
###############################################################################
#
# This file contains modified crystal structure data generated from the
# MOF subset of the Cambridge Structural Database (CSD) v543 
# hosted by the Cambridge Crystallographic Data Centre (CCDC).
#
# This work is licensed under the Creative Commons
# Attribution-NonCommercial-ShareAlike 4.0 International License.
# To view a copy of this license, visit
# http://creativecommons.org/licenses/by-nc-sa/4.0/
# or send a letter to
# Creative Commons, PO Box 1866, Mountain View, CA 94042, USA.
#
# CIF created using the CSD Python API on 29 September 2022
# The structure has been converted into the P1 space group
# The structure has a 3D framework
# The original CSD entry KADLUZ is in the rhombohedral crystal system
# The framework has been calculated to contain at least 10.0% void space
# The void calculation uses a probe of radius 1.32A, grid spacing 0.4
#
###############################################################################

data_KADLUZ
_chemical_formula_moiety         '(C396 H252 Cu31 I11 N72 O72)n'
_symmetry_cell_setting           triclinic
_symmetry_space_group_name_H-M   'P 1'
_symmetry_Int_Tables_number      1
_space_group_name_Hall           'P 1'
loop_
_symmetry_equiv_pos_site_id
_symmetry_equiv_pos_as_xyz
1 x,y,z
_cell_length_a                   40.463(5)
_cell_length_b                   40.463(5)
_cell_length_c                   15.710(2)
_cell_angle_alpha                90
_cell_angle_beta                 90
_cell_angle_gamma                120
_cell_volume                     22275.3
loop_
_atom_site_label
_atom_site_type_symbol
_atom_site_fract_x
_atom_site_fract_y
_atom_site_fract_z
Cu1 Cu 0.51401(2) 0.50417(2) 0.42055(3)
Cu2 Cu 0.18701(2) 0.36831(2) 0.35748(3)
I1 I 0.21158(2) 0.32165(2) 0.39369(2)
O1 O 0.48697(8) 0.44904(7) 0.41543(17)
O2 O 0.46290(8) 0.44209(7) 0.55204(17)
C1 C 0.46774(10) 0.42940(10) 0.4801(2)
C2 C 0.44925(7) 0.38770(4) 0.47088(15)
C3 C 0.45845(7) 0.37188(6) 0.40275(13)
H1 H 0.4764 0.3880 0.3613
C4 C 0.44140(8) 0.33248(6) 0.39521(13)
H2 H 0.4477 0.3217 0.3486
C5 C 0.41514(7) 0.30889(4) 0.45581(15)
C6 C 0.40594(7) 0.32471(6) 0.52395(13)
H3 H 0.3880 0.3086 0.5654
C7 C 0.42299(7) 0.36411(6) 0.53148(13)
H4 H 0.4167 0.3749 0.5780
C8 C 0.39795(7) 0.26803(4) 0.44948(13)
C9 C 0.38191(7) 0.24867(5) 0.37402(11)
H5 H 0.3826 0.2624 0.3245
N1 N 0.36488(7) 0.20915(5) 0.37107(10)
C10 C 0.36390(7) 0.18899(4) 0.44358(12)
H6 H 0.3523 0.1620 0.4416
N2 N 0.37995(7) 0.20836(5) 0.51904(10)
C11 C 0.39697(7) 0.24787(5) 0.52200(11)
H7 H 0.4079 0.2611 0.5736
O3 O 0.46780(7) 0.50341(8) 0.37646(17)
O4 O 0.44450(7) 0.49687(8) 0.51304(17)
C12 C 0.44233(10) 0.49858(10) 0.4304(2)
C13 C 0.40571(5) 0.49384(7) 0.39341(14)
C14 C 0.40059(6) 0.49664(8) 0.30676(13)
H8 H 0.4214 0.5043 0.2687
C15 C 0.36503(7) 0.48820(8) 0.27586(11)
H9 H 0.3615 0.4901 0.2166
C16 C 0.33457(5) 0.47696(8) 0.33161(15)
C17 C 0.33969(5) 0.47416(8) 0.41826(13)
H10 H 0.3189 0.4665 0.4564
C18 C 0.37525(6) 0.48260(8) 0.44916(11)
H11 H 0.3787 0.4807 0.5084
C19 C 0.29561(5) 0.46411(7) 0.29720(17)
C20 C 0.28783(6) 0.48517(6) 0.23891(18)
H12 H 0.3081 0.5082 0.2162
N3 N 0.25043(7) 0.47256(7) 0.21391(18)
C21 C 0.22082(5) 0.43891(7) 0.24720(17)
H13 H 0.1953 0.4303 0.2301
N4 N 0.22861(5) 0.41785(6) 0.30549(15)
C22 C 0.26600(6) 0.43045(7) 0.33049(15)
H14 H 0.2713 0.4161 0.3703
Cu3 Cu 0.48599(2) 0.49583(2) 0.57945(3)
Cu4 Cu 0.34317(3) 0.18068(2) 0.24612(3)
Cu5 Cu 0.36831(2) 0.18130(3) 0.64252(3)
Cu6 Cu 0.14632(2) 0.29836(2) 0.30919(3)
I2 I 0.12175(2) 0.34502(2) 0.27298(2)
O5 O 0.53710(8) 0.55791(7) 0.44796(17)
N5 N 0.54248(5) 0.51094(9) 0.29560(10)
N6 N 0.17159(9) 0.37995(7) 0.48096(10)
O6 O 0.55550(7) 0.50313(8) 0.48696(17)
Cu1_2 Cu 0.49583(2) 0.00984(3) 0.42055(3)
O1_2 O 0.55096(7) 0.03793(11) 0.41543(17)
O2_2 O 0.55791(7) 0.02081(11) 0.55204(17)
C1_2 C 0.57060(10) 0.03834(14) 0.4801(2)
C2_2 C 0.61230(4) 0.06155(8) 0.47088(15)
C3_2 C 0.62812(6) 0.08657(9) 0.40275(13)
H1_2 H 0.6120 0.0884 0.3613
C4_2 C 0.66752(6) 0.10892(10) 0.39521(13)
H2_2 H 0.6783 0.1260 0.3486
C5_2 C 0.69111(4) 0.10625(8) 0.45581(15)
C6_2 C 0.67529(6) 0.08123(9) 0.52395(13)
H3_2 H 0.6914 0.0794 0.5654
C7_2 C 0.63589(6) 0.05888(9) 0.53148(13)
H4_2 H 0.6251 0.0418 0.5780
C8_2 C 0.73197(4) 0.12992(8) 0.44948(13)
C9_2 C 0.75133(5) 0.13324(9) 0.37402(11)
H5_2 H 0.7376 0.1202 0.3245
N1_2 N 0.79085(5) 0.15573(9) 0.37107(10)
C10_2 C 0.81101(4) 0.17491(8) 0.44358(12)
H6_2 H 0.8380 0.1903 0.4416
N2_2 N 0.79164(5) 0.17159(9) 0.51904(10)
C11_2 C 0.75213(5) 0.14910(9) 0.52200(11)
H7_2 H 0.7389 0.1468 0.5736
Cu4_2 Cu 0.81932(2) 0.16250(4) 0.24612(3)
Cu5_2 Cu 0.81870(3) 0.18701(4) 0.64252(3)
N5_2 N 0.48906(9) 0.03155(10) 0.29560(10)
O6_2 O 0.49687(8) 0.05237(11) 0.48696(17)
Cu2_2 Cu 0.63169(2) 0.81870(3) 0.35748(3)
I1_2 I 0.67835(2) 0.88993(3) 0.39369(2)
O3_2 O 0.49659(8) 0.96439(11) 0.37646(17)
O4_2 O 0.50313(8) 0.94763(11) 0.51304(17)
C12_2 C 0.50142(10) 0.94375(14) 0.4304(2)
C13_2 C 0.50616(7) 0.91187(9) 0.39341(14)
C14_2 C 0.50336(8) 0.90395(10) 0.30676(13)
H8_2 H 0.4957 0.9171 0.2687
C15_2 C 0.51180(8) 0.87683(11) 0.27586(11)
H9_2 H 0.5099 0.8714 0.2166
C16_2 C 0.52304(8) 0.85761(9) 0.33161(15)
C17_2 C 0.52584(8) 0.86553(9) 0.41826(13)
H10_2 H 0.5335 0.8524 0.4564
C18_2 C 0.51740(8) 0.89265(10) 0.44916(11)
H11_2 H 0.5193 0.8980 0.5084
C19_2 C 0.53589(7) 0.83150(9) 0.29720(17)
C20_2 C 0.51483(6) 0.80266(8) 0.23891(18)
H12_2 H 0.4918 0.7999 0.2162
N3_2 N 0.52744(7) 0.77787(10) 0.21391(18)
C21_2 C 0.56109(7) 0.78191(9) 0.24720(17)
H13_2 H 0.5697 0.7650 0.2301
N4_2 N 0.58215(6) 0.81076(8) 0.30549(15)
C22_2 C 0.56955(7) 0.83555(9) 0.33049(15)
H14_2 H 0.5839 0.8552 0.3703
Cu3_2 Cu 0.50417(2) 0.99016(3) 0.57945(3)
Cu6_2 Cu 0.70164(2) 0.84797(3) 0.30919(3)
I2_2 I 0.65498(2) 0.77674(3) 0.27298(2)
O5_2 O 0.44209(7) 0.97919(11) 0.44796(17)
N6_2 N 0.62005(7) 0.79164(11) 0.48096(10)
Cu2_3 Cu 0.18130(3) 0.81299(2) 0.35748(3)
I1_3 I 0.11007(3) 0.78842(2) 0.39369(2)
O3_3 O 0.03561(11) 0.53220(7) 0.37646(17)
O4_3 O 0.05237(11) 0.55550(7) 0.51304(17)
C12_3 C 0.05625(14) 0.55767(10) 0.4304(2)
C13_3 C 0.08813(9) 0.59429(5) 0.39341(14)
C14_3 C 0.09605(10) 0.59941(6) 0.30676(13)
H8_3 H 0.0829 0.5786 0.2687
C15_3 C 0.12317(11) 0.63497(7) 0.27586(11)
H9_3 H 0.1286 0.6385 0.2166
C16_3 C 0.14239(9) 0.66543(5) 0.33161(15)
C17_3 C 0.13447(9) 0.66031(5) 0.41826(13)
H10_3 H 0.1476 0.6811 0.4564
C18_3 C 0.10735(10) 0.62475(6) 0.44916(11)
H11_3 H 0.1020 0.6213 0.5084
C19_3 C 0.16850(9) 0.70439(5) 0.29720(17)
C20_3 C 0.19734(8) 0.71217(6) 0.23891(18)
H12_3 H 0.2001 0.6919 0.2162
N3_3 N 0.22213(10) 0.74957(7) 0.21391(18)
C21_3 C 0.21809(9) 0.77918(5) 0.24720(17)
H13_3 H 0.2350 0.8047 0.2301
N4_3 N 0.18924(8) 0.77139(5) 0.30549(15)
C22_3 C 0.16445(9) 0.73400(6) 0.33049(15)
H14_3 H 0.1448 0.7287 0.3703
Cu3_3 Cu 0.00984(3) 0.51401(2) 0.57945(3)
Cu6_3 Cu 0.15203(3) 0.85368(2) 0.30919(3)
I2_3 I 0.22326(3) 0.87825(2) 0.27298(2)
O5_3 O 0.02081(11) 0.46290(8) 0.44796(17)
N6_3 N 0.20836(11) 0.82841(9) 0.48096(10)
Cu1_3 Cu 0.99016(3) 0.48599(2) 0.42055(3)
O1_3 O 0.96207(11) 0.51303(8) 0.41543(17)
O2_3 O 0.97919(11) 0.53710(8) 0.55204(17)
C1_3 C 0.96166(14) 0.53226(10) 0.4801(2)
C2_3 C 0.93845(8) 0.55075(7) 0.47088(15)
C3_3 C 0.91343(9) 0.54155(7) 0.40275(13)
H1_3 H 0.9116 0.5236 0.3613
C4_3 C 0.89108(10) 0.55860(8) 0.39521(13)
H2_3 H 0.8740 0.5523 0.3486
C5_3 C 0.89375(8) 0.58486(7) 0.45581(15)
C6_3 C 0.91877(9) 0.59406(7) 0.52395(13)
H3_3 H 0.9206 0.6120 0.5654
C7_3 C 0.94112(9) 0.57701(7) 0.53148(13)
H4_3 H 0.9582 0.5833 0.5780
C8_3 C 0.87008(8) 0.60205(7) 0.44948(13)
C9_3 C 0.86676(9) 0.61809(7) 0.37402(11)
H5_3 H 0.8798 0.6174 0.3245
N1_3 N 0.84427(9) 0.63512(7) 0.37107(10)
C10_3 C 0.82509(8) 0.63610(7) 0.44358(12)
H6_3 H 0.8097 0.6477 0.4416
N2_3 N 0.82841(9) 0.62005(7) 0.51904(10)
C11_3 C 0.85090(9) 0.60303(7) 0.52200(11)
H7_3 H 0.8532 0.5921 0.5736
Cu4_3 Cu 0.83750(4) 0.65683(3) 0.24612(3)
Cu5_3 Cu 0.81299(4) 0.63169(2) 0.64252(3)
N5_3 N 0.96845(10) 0.45752(5) 0.29560(10)
O6_3 O 0.94763(11) 0.44450(7) 0.48696(17)
Cu1_4 Cu 0.18068(2) 0.83750(2) 0.75388(3)
O1_4 O 0.15364(8) 0.78237(7) 0.74876(17)
O2_4 O 0.12957(8) 0.77542(7) 0.88537(17)
C1_4 C 0.13441(10) 0.76273(10) 0.8134(2)
C2_4 C 0.11592(7) 0.72103(4) 0.80421(15)
C3_4 C 0.12512(7) 0.70521(6) 0.73608(13)
H1_4 H 0.1431 0.7213 0.6946
C4_4 C 0.10807(8) 0.66581(6) 0.72854(13)
H2_4 H 0.1144 0.6550 0.6819
C5_4 C 0.08181(7) 0.64222(4) 0.78914(15)
C6_4 C 0.07261(7) 0.65804(6) 0.85728(13)
H3_4 H 0.0547 0.6419 0.8987
C7_4 C 0.08966(7) 0.69744(6) 0.86481(13)
H4_4 H 0.0834 0.7082 0.9113
C8_4 C 0.06462(7) 0.60136(4) 0.78281(13)
C9_4 C 0.04858(7) 0.58200(5) 0.70735(11)
H5_4 H 0.0493 0.5957 0.6578
N1_4 N 0.03155(7) 0.54248(5) 0.70440(10)
C10_4 C 0.03057(7) 0.52232(4) 0.77691(12)
H6_4 H 0.0190 0.4953 0.7749
N2_4 N 0.04662(7) 0.54169(5) 0.85237(10)
C11_4 C 0.06364(7) 0.58120(5) 0.85533(11)
H7_4 H 0.0746 0.5944 0.9069
O3_4 O 0.13447(7) 0.83674(8) 0.70979(17)
O4_4 O 0.11117(7) 0.83020(8) 0.84637(17)
C12_4 C 0.10900(10) 0.83191(10) 0.7637(2)
C13_4 C 0.07238(5) 0.82717(7) 0.72674(14)
C14_4 C 0.06726(6) 0.82997(8) 0.64009(13)
H8_4 H 0.0881 0.8376 0.6020
C15_4 C 0.03170(7) 0.82153(8) 0.60919(11)
H9_4 H 0.0282 0.8234 0.5499
C16_4 C 0.00124(5) 0.81029(8) 0.66494(15)
C17_4 C 0.00636(5) 0.80749(8) 0.75159(13)
C18_4 C 0.04192(6) 0.81593(8) 0.78249(11)
H11_4 H 0.0454 0.8140 0.8417
Cu3_4 Cu 0.15266(2) 0.82916(2) 0.91278(3)
Cu5_4 Cu 0.03498(2) 0.51463(3) 0.97585(3)
O5_4 O 0.20377(8) 0.89124(7) 0.78129(17)
N5_4 N 0.20915(5) 0.84427(9) 0.62893(10)
O6_4 O 0.22217(7) 0.83646(8) 0.82029(17)
Cu2_4 Cu 0.85368(2) 0.70164(2) 0.69081(3)
I1_4 I 0.87825(2) 0.65498(2) 0.72702(2)
H10_4 H 0.9856 0.7998 0.7897
C19_4 C 0.96228(5) 0.79744(7) 0.63053(17)
C20_4 C 0.95450(6) 0.81850(6) 0.57224(18)
H12_4 H 0.9748 0.8415 0.5495
N3_4 N 0.91710(7) 0.80589(7) 0.54724(18)
C21_4 C 0.88749(5) 0.77224(7) 0.58053(17)
H13_4 H 0.8620 0.7636 0.5634
N4_4 N 0.89528(5) 0.75118(6) 0.63882(15)
C22_4 C 0.93267(6) 0.76378(7) 0.66382(15)
H14_4 H 0.9380 0.7494 0.7036
I2_4 I 0.78842(2) 0.67835(2) 0.60631(2)
N6_4 N 0.83826(9) 0.71328(7) 0.81429(10)
Cu1_5 Cu 0.16250(2) 0.34317(3) 0.75388(3)
Cu2_5 Cu 0.29836(2) 0.15203(3) 0.69081(3)
I1_5 I 0.34502(2) 0.22326(3) 0.72702(2)
O1_5 O 0.21763(7) 0.37126(11) 0.74876(17)
O2_5 O 0.22458(7) 0.35414(11) 0.88537(17)
C1_5 C 0.23727(10) 0.37167(14) 0.8134(2)
C2_5 C 0.27897(4) 0.39488(8) 0.80421(15)
C3_5 C 0.29479(6) 0.41990(9) 0.73608(13)
H1_5 H 0.2787 0.4217 0.6946
C4_5 C 0.33419(6) 0.44225(10) 0.72854(13)
H2_5 H 0.3450 0.4593 0.6819
C5_5 C 0.35778(4) 0.43958(8) 0.78914(15)
C6_5 C 0.34196(6) 0.41456(9) 0.85728(13)
H3_5 H 0.3581 0.4127 0.8987
C7_5 C 0.30256(6) 0.39221(9) 0.86481(13)
H4_5 H 0.2918 0.3751 0.9113
C8_5 C 0.39864(4) 0.46325(8) 0.78281(13)
C9_5 C 0.41800(5) 0.46657(9) 0.70735(11)
H5_5 H 0.4043 0.4535 0.6578
N1_5 N 0.45752(5) 0.48906(9) 0.70440(10)
C10_5 C 0.47768(4) 0.50824(8) 0.77691(12)
H6_5 H 0.5047 0.5236 0.7749
N2_5 N 0.45831(5) 0.50492(9) 0.85237(10)
C11_5 C 0.41880(5) 0.48243(9) 0.85533(11)
H7_5 H 0.4056 0.4801 0.9069
O3_5 O 0.16326(8) 0.29772(11) 0.70979(17)
O4_5 O 0.16980(8) 0.28096(11) 0.84637(17)
C12_5 C 0.16809(10) 0.27708(14) 0.7637(2)
C13_5 C 0.17283(7) 0.24520(9) 0.72674(14)
C14_5 C 0.17003(8) 0.23728(10) 0.64009(13)
H8_5 H 0.1624 0.2504 0.6020
C15_5 C 0.17847(8) 0.21016(11) 0.60919(11)
H9_5 H 0.1766 0.2047 0.5499
C16_5 C 0.18971(8) 0.19094(9) 0.66494(15)
C17_5 C 0.19251(8) 0.19886(9) 0.75159(13)
H10_5 H 0.2002 0.1857 0.7897
C18_5 C 0.18407(8) 0.22598(10) 0.78249(11)
H11_5 H 0.1860 0.2313 0.8417
C19_5 C 0.20256(7) 0.16483(9) 0.63053(17)
C20_5 C 0.18150(6) 0.13599(8) 0.57224(18)
H12_5 H 0.1585 0.1332 0.5495
N3_5 N 0.19411(7) 0.11120(10) 0.54724(18)
C21_5 C 0.22776(7) 0.11524(9) 0.58053(17)
H13_5 H 0.2364 0.0983 0.5634
N4_5 N 0.24882(6) 0.14409(8) 0.63882(15)
C22_5 C 0.23622(7) 0.16888(9) 0.66382(15)
H14_5 H 0.2506 0.1885 0.7036
Cu3_5 Cu 0.17084(2) 0.32349(3) 0.91278(3)
Cu5_5 Cu 0.48537(3) 0.52034(4) 0.97585(3)
I2_5 I 0.32165(2) 0.11007(3) 0.60631(2)
O5_5 O 0.10876(7) 0.31252(11) 0.78129(17)
N5_5 N 0.15573(9) 0.36488(10) 0.62893(10)
N6_5 N 0.28672(7) 0.12497(11) 0.81429(10)
O6_5 O 0.16354(8) 0.38570(11) 0.82029(17)
Cu2_6 Cu 0.84797(3) 0.14632(2) 0.69081(3)
I1_6 I 0.77674(3) 0.12175(2) 0.72702(2)
H10_6 H 0.8143 0.0144 0.7897
C19_6 C 0.83517(9) 0.03772(5) 0.63053(17)
C20_6 C 0.86401(8) 0.04550(6) 0.57224(18)
H12_6 H 0.8668 0.0252 0.5495
N3_6 N 0.88880(10) 0.08290(7) 0.54724(18)
C21_6 C 0.88476(9) 0.11251(5) 0.58053(17)
H13_6 H 0.9017 0.1380 0.5634
N4_6 N 0.85591(8) 0.10472(5) 0.63882(15)
C22_6 C 0.83112(9) 0.06733(6) 0.66382(15)
H14_6 H 0.8115 0.0620 0.7036
I2_6 I 0.88993(3) 0.21158(2) 0.60631(2)
N6_6 N 0.87503(11) 0.16174(9) 0.81429(10)
Cu1_6 Cu 0.65683(3) 0.81932(2) 0.75388(3)
O1_6 O 0.62874(11) 0.84636(8) 0.74876(17)
O2_6 O 0.64586(11) 0.87043(8) 0.88537(17)
C1_6 C 0.62833(14) 0.86559(10) 0.8134(2)
C2_6 C 0.60512(8) 0.88408(7) 0.80421(15)
C3_6 C 0.58010(9) 0.87488(7) 0.73608(13)
H1_6 H 0.5783 0.8569 0.6946
C4_6 C 0.55775(10) 0.89193(8) 0.72854(13)
H2_6 H 0.5407 0.8856 0.6819
C5_6 C 0.56042(8) 0.91819(7) 0.78914(15)
C6_6 C 0.58544(9) 0.92739(7) 0.85728(13)
H3_6 H 0.5873 0.9453 0.8987
C7_6 C 0.60779(9) 0.91034(7) 0.86481(13)
H4_6 H 0.6249 0.9166 0.9113
C8_6 C 0.53675(8) 0.93538(7) 0.78281(13)
C9_6 C 0.53343(9) 0.95142(7) 0.70735(11)
H5_6 H 0.5465 0.9507 0.6578
N1_6 N 0.51094(9) 0.96845(7) 0.70440(10)
C10_6 C 0.49176(8) 0.96943(7) 0.77691(12)
H6_6 H 0.4764 0.9810 0.7749
N2_6 N 0.49508(9) 0.95338(7) 0.85237(10)
C11_6 C 0.51757(9) 0.93636(7) 0.85533(11)
H7_6 H 0.5199 0.9254 0.9069
O3_6 O 0.70228(11) 0.86553(7) 0.70979(17)
O4_6 O 0.71904(11) 0.88883(7) 0.84637(17)
C12_6 C 0.72292(14) 0.89100(10) 0.7637(2)
C13_6 C 0.75480(9) 0.92762(5) 0.72674(14)
C14_6 C 0.76272(10) 0.93274(6) 0.64009(13)
H8_6 H 0.7496 0.9119 0.6020
C15_6 C 0.78984(11) 0.96830(7) 0.60919(11)
H9_6 H 0.7953 0.9718 0.5499
C16_6 C 0.80906(9) 0.99876(5) 0.66494(15)
C17_6 C 0.80114(9) 0.99364(5) 0.75159(13)
C18_6 C 0.77402(10) 0.95808(6) 0.78249(11)
H11_6 H 0.7687 0.9546 0.8417
Cu3_6 Cu 0.67651(3) 0.84734(2) 0.91278(3)
Cu5_6 Cu 0.47966(4) 0.96502(2) 0.97585(3)
O5_6 O 0.68748(11) 0.79623(8) 0.78129(17)
N5_6 N 0.63512(10) 0.79085(5) 0.62893(10)
O6_6 O 0.61430(11) 0.77783(7) 0.82029(17)
Cu1_7 Cu 0.84734(2) 0.17084(2) 0.08722(3)
Cu2_7 Cu 0.52034(2) 0.03498(2) 0.02415(3)
O1_7 O 0.82030(8) 0.11571(7) 0.08210(17)
O2_7 O 0.79623(8) 0.10876(7) 0.21871(17)
C1_7 C 0.80107(10) 0.09607(10) 0.1468(2)
C2_7 C 0.78258(7) 0.05437(4) 0.13755(15)
C3_7 C 0.79178(7) 0.03855(6) 0.06942(13)
H1_7 H 0.8097 0.0547 0.0280
C7_7 C 0.75632(7) 0.03078(6) 0.19815(13)
H4_7 H 0.7500 0.0416 0.2447
O3_7 O 0.80113(7) 0.17008(8) 0.04313(17)
O4_7 O 0.77783(7) 0.16354(8) 0.17971(17)
C12_7 C 0.77566(10) 0.16525(10) 0.0971(2)
C13_7 C 0.73904(5) 0.16051(7) 0.06008(14)
C17_7 C 0.67302(5) 0.14083(8) 0.08493(13)
H10_7 H 0.6522 0.1332 0.1231
C18_7 C 0.70858(6) 0.14927(8) 0.11583(11)
H11_7 H 0.7120 0.1474 0.1751
H14_7 H 0.6046 0.0828 0.0370
O5_7 O 0.87043(8) 0.22458(7) 0.11463(17)
N6_7 N 0.50492(9) 0.04662(7) 0.14763(10)
O6_7 O 0.88883(7) 0.16980(8) 0.15363(17)
C14_7 C 0.73392(6) 0.16331(8) 0.97343(13)
H8_7 H 0.7547 0.1710 0.9354
C15_7 C 0.69836(7) 0.15487(8) 0.94253(11)
H9_7 H 0.6948 0.1568 0.8833
C16_7 C 0.66790(5) 0.14363(8) 0.99828(15)
C19_7 C 0.62894(5) 0.13078(7) 0.96387(17)
C20_7 C 0.62116(6) 0.15184(6) 0.90558(18)
H12_7 H 0.6414 0.1749 0.8829
N3_7 N 0.58376(7) 0.13923(7) 0.88058(18)
C21_7 C 0.55415(5) 0.10558(7) 0.91387(17)
H13_7 H 0.5286 0.0970 0.8968
N4_7 N 0.56194(5) 0.08452(6) 0.97216(15)
C22_7 C 0.59933(6) 0.09712(7) 0.99716(15)
I2_7 I 0.45509(2) 0.01168(2) 0.93964(2)
N5_7 N 0.87582(5) 0.17760(9) 0.96226(10)
I1_7 I 0.54491(2) 0.98832(2) 0.06036(2)
C4_7 C 0.77473(8) 0.99915(6) 0.06188(13)
H2_7 H 0.7810 0.9884 0.0153
C5_7 C 0.74847(7) 0.97556(4) 0.12248(15)
C6_7 C 0.73927(7) 0.99138(6) 0.19062(13)
H3_7 H 0.7213 0.9753 0.2321
C8_7 C 0.73128(7) 0.93470(4) 0.11615(13)
C9_7 C 0.71524(7) 0.91534(5) 0.04069(11)
N1_7 N 0.69821(7) 0.87582(5) 0.03774(10)
C10_7 C 0.69723(7) 0.85566(4) 0.11025(12)
H6_7 H 0.6856 0.8287 0.1083
N2_7 N 0.71328(7) 0.87503(5) 0.18571(10)
C11_7 C 0.73030(7) 0.91454(5) 0.18867(11)
H7_7 H 0.7412 0.9278 0.2403
H5_7 H 0.7159 0.9291 0.9912
I1_8 I 0.01168(2) 0.55660(3) 0.06036(2)
C4_8 C 0.00085(6) 0.77559(10) 0.06188(13)
H2_8 H 0.0116 0.7927 0.0153
C5_8 C 0.02444(4) 0.77292(8) 0.12248(15)
C6_8 C 0.00862(6) 0.74790(9) 0.19062(13)
H3_8 H 0.0247 0.7461 0.2321
C8_8 C 0.06530(4) 0.79659(8) 0.11615(13)
C9_8 C 0.08466(5) 0.79991(9) 0.04069(11)
N1_8 N 0.12418(5) 0.82240(9) 0.03774(10)
C10_8 C 0.14434(4) 0.84158(8) 0.11025(12)
H6_8 H 0.1713 0.8570 0.1083
N2_8 N 0.12497(5) 0.83826(9) 0.18571(10)
C11_8 C 0.08546(5) 0.81577(9) 0.18867(11)
H7_8 H 0.0722 0.8135 0.2403
H5_8 H 0.0709 0.7869 0.9912
Cu1_8 Cu 0.82916(2) 0.67651(3) 0.08722(3)
Cu2_8 Cu 0.96502(2) 0.48537(3) 0.02415(3)
O1_8 O 0.88429(7) 0.70460(11) 0.08210(17)
O2_8 O 0.89124(7) 0.68748(11) 0.21871(17)
C1_8 C 0.90393(10) 0.70501(14) 0.1468(2)
C2_8 C 0.94563(4) 0.72822(8) 0.13755(15)
C3_8 C 0.96145(6) 0.75324(9) 0.06942(13)
H1_8 H 0.9453 0.7551 0.0280
C7_8 C 0.96922(6) 0.72555(9) 0.19815(13)
H4_8 H 0.9584 0.7085 0.2447
O3_8 O 0.82992(8) 0.63106(11) 0.04313(17)
O4_8 O 0.83646(8) 0.61430(11) 0.17971(17)
C12_8 C 0.83475(10) 0.61042(14) 0.0971(2)
C13_8 C 0.83949(7) 0.57854(9) 0.06008(14)
C17_8 C 0.85917(8) 0.53220(9) 0.08493(13)
H10_8 H 0.8668 0.5191 0.1231
C18_8 C 0.85073(8) 0.55932(10) 0.11583(11)
H11_8 H 0.8526 0.5647 0.1751
H14_8 H 0.9172 0.5219 0.0370
O5_8 O 0.77542(7) 0.64586(11) 0.11463(17)
N6_8 N 0.95338(7) 0.45831(11) 0.14763(10)
O6_8 O 0.83020(8) 0.71904(11) 0.15363(17)
C14_8 C 0.83669(8) 0.57062(10) 0.97343(13)
H8_8 H 0.8290 0.5838 0.9354
C15_8 C 0.84513(8) 0.54350(11) 0.94253(11)
H9_8 H 0.8432 0.5381 0.8833
C16_8 C 0.85637(8) 0.52428(9) 0.99828(15)
C19_8 C 0.86922(7) 0.49817(9) 0.96387(17)
C20_8 C 0.84816(6) 0.46933(8) 0.90558(18)
H12_8 H 0.8251 0.4666 0.8829
N3_8 N 0.86077(7) 0.44454(10) 0.88058(18)
C21_8 C 0.89442(7) 0.44858(9) 0.91387(17)
H13_8 H 0.9030 0.4317 0.8968
N4_8 N 0.91548(6) 0.47743(8) 0.97216(15)
C22_8 C 0.90288(7) 0.50222(9) 0.99716(15)
I2_8 I 0.98832(2) 0.44340(3) 0.93964(2)
N5_8 N 0.82240(9) 0.69821(10) 0.96226(10)
Cu1_9 Cu 0.32349(3) 0.15266(2) 0.08722(3)
Cu2_9 Cu 0.51463(3) 0.47966(2) 0.02415(3)
I1_9 I 0.44340(3) 0.45509(2) 0.06036(2)
O1_9 O 0.29540(11) 0.17970(8) 0.08210(17)
O2_9 O 0.31252(11) 0.20377(8) 0.21871(17)
C1_9 C 0.29499(14) 0.19893(10) 0.1468(2)
C2_9 C 0.27178(8) 0.21742(7) 0.13755(15)
C3_9 C 0.24676(9) 0.20822(7) 0.06942(13)
H1_9 H 0.2449 0.1903 0.0280
C4_9 C 0.22441(10) 0.22527(8) 0.06188(13)
H2_9 H 0.2073 0.2190 0.0153
C5_9 C 0.22708(8) 0.25153(7) 0.12248(15)
C6_9 C 0.25210(9) 0.26073(7) 0.19062(13)
H3_9 H 0.2539 0.2787 0.2321
C7_9 C 0.27445(9) 0.24368(7) 0.19815(13)
H4_9 H 0.2915 0.2500 0.2447
C8_9 C 0.20341(8) 0.26872(7) 0.11615(13)
C9_9 C 0.20009(9) 0.28476(7) 0.04069(11)
N1_9 N 0.17760(9) 0.30179(7) 0.03774(10)
C10_9 C 0.15842(8) 0.30277(7) 0.11025(12)
H6_9 H 0.1430 0.3144 0.1083
N2_9 N 0.16174(9) 0.28672(7) 0.18571(10)
C11_9 C 0.18423(9) 0.26970(7) 0.18867(11)
H7_9 H 0.1865 0.2588 0.2403
O3_9 O 0.36894(11) 0.19887(7) 0.04313(17)
O4_9 O 0.38570(11) 0.22217(7) 0.17971(17)
C12_9 C 0.38958(14) 0.22434(10) 0.0971(2)
C13_9 C 0.42146(9) 0.26096(5) 0.06008(14)
C17_9 C 0.46780(9) 0.32698(5) 0.08493(13)
H10_9 H 0.4809 0.3478 0.1231
C18_9 C 0.44068(10) 0.29142(6) 0.11583(11)
H11_9 H 0.4353 0.2880 0.1751
H14_9 H 0.4781 0.3954 0.0370
O5_9 O 0.35414(11) 0.12957(8) 0.11463(17)
N6_9 N 0.54169(11) 0.49508(9) 0.14763(10)
O6_9 O 0.28096(11) 0.11117(7) 0.15363(17)
H5_9 H 0.2131 0.2841 0.9912
C14_9 C 0.42938(10) 0.26608(6) 0.97343(13)
H8_9 H 0.4162 0.2453 0.9354
C15_9 C 0.45650(11) 0.30164(7) 0.94253(11)
H9_9 H 0.4619 0.3052 0.8833
C16_9 C 0.47572(9) 0.33210(5) 0.99828(15)
C19_9 C 0.50183(9) 0.37106(5) 0.96387(17)
C20_9 C 0.53067(8) 0.37884(6) 0.90558(18)
H12_9 H 0.5334 0.3586 0.8829
N3_9 N 0.55546(10) 0.41624(7) 0.88058(18)
C21_9 C 0.55142(9) 0.44585(5) 0.91387(17)
H13_9 H 0.5683 0.4714 0.8968
N4_9 N 0.52257(8) 0.43806(5) 0.97216(15)
C22_9 C 0.49778(9) 0.40067(6) 0.99716(15)
I2_9 I 0.55660(3) 0.54491(2) 0.93964(2)
N5_9 N 0.30179(10) 0.12418(5) 0.96226(10)
O1_10 O 0.51303(8) 0.55096(7) 0.58457(17)
C1_10 C 0.53226(10) 0.57060(10) 0.5199(2)
C2_10 C 0.55075(7) 0.61230(4) 0.52912(15)
C3_10 C 0.54155(7) 0.62812(6) 0.59725(13)
H1_10 H 0.5236 0.6120 0.6387
C4_10 C 0.55860(8) 0.66752(6) 0.60479(13)
H2_10 H 0.5523 0.6783 0.6514
C5_10 C 0.58486(7) 0.69111(4) 0.54419(15)
C6_10 C 0.59406(7) 0.67529(6) 0.47605(13)
H3_10 H 0.6120 0.6914 0.4346
C7_10 C 0.57701(7) 0.63589(6) 0.46852(13)
H4_10 H 0.5833 0.6251 0.4220
C8_10 C 0.60205(7) 0.73197(4) 0.55052(13)
C9_10 C 0.61809(7) 0.75133(5) 0.62598(11)
H5_10 H 0.6174 0.7376 0.6755
C10_10 C 0.63610(7) 0.81101(4) 0.55642(12)
H6_10 H 0.6477 0.8380 0.5584
C11_10 C 0.60303(7) 0.75213(5) 0.47800(11)
H7_10 H 0.5921 0.7389 0.4264
O3_10 O 0.53220(7) 0.49659(8) 0.62354(17)
C12_10 C 0.55767(10) 0.50142(10) 0.5696(2)
C13_10 C 0.59429(5) 0.50616(7) 0.60659(14)
C14_10 C 0.59941(6) 0.50336(8) 0.69324(13)
H8_10 H 0.5786 0.4957 0.7313
C15_10 C 0.63497(7) 0.51180(8) 0.72414(11)
H9_10 H 0.6385 0.5099 0.7834
C16_10 C 0.66543(5) 0.52304(8) 0.66839(15)
C17_10 C 0.66031(5) 0.52584(8) 0.58174(13)
H10_10 H 0.6811 0.5335 0.5436
C18_10 C 0.62475(6) 0.51740(8) 0.55084(11)
H11_10 H 0.6213 0.5193 0.4916
C19_10 C 0.70439(5) 0.53589(7) 0.70280(17)
C20_10 C 0.71217(6) 0.51483(6) 0.76109(18)
H12_10 H 0.6919 0.4918 0.7838
N3_10 N 0.74957(7) 0.52744(7) 0.78609(18)
C21_10 C 0.77918(5) 0.56109(7) 0.75280(17)
H13_10 H 0.8047 0.5697 0.7699
N4_10 N 0.77139(5) 0.58215(6) 0.69451(15)
C22_10 C 0.73400(6) 0.56955(7) 0.66951(15)
H14_10 H 0.7287 0.5839 0.6297
O3_11 O 0.50341(8) 0.03561(11) 0.62354(17)
C12_11 C 0.49858(10) 0.05625(14) 0.5696(2)
C13_11 C 0.49384(7) 0.08813(9) 0.60659(14)
C14_11 C 0.49664(8) 0.09605(10) 0.69324(13)
H8_11 H 0.5043 0.0829 0.7313
C15_11 C 0.48820(8) 0.12317(11) 0.72414(11)
H9_11 H 0.4901 0.1286 0.7834
C16_11 C 0.47696(8) 0.14239(9) 0.66839(15)
C17_11 C 0.47416(8) 0.13447(9) 0.58174(13)
H10_11 H 0.4665 0.1476 0.5436
C18_11 C 0.48260(8) 0.10735(10) 0.55084(11)
H11_11 H 0.4807 0.1020 0.4916
C19_11 C 0.46411(7) 0.16850(9) 0.70280(17)
C20_11 C 0.48517(6) 0.19734(8) 0.76109(18)
H12_11 H 0.5082 0.2001 0.7838
N3_11 N 0.47256(7) 0.22213(10) 0.78609(18)
C21_11 C 0.43891(7) 0.21809(9) 0.75280(17)
H13_11 H 0.4303 0.2350 0.7699
N4_11 N 0.41785(6) 0.18924(8) 0.69451(15)
C22_11 C 0.43045(7) 0.16445(9) 0.66951(15)
H14_11 H 0.4161 0.1448 0.6297
O1_11 O 0.44904(7) 0.96207(11) 0.58457(17)
C1_11 C 0.42940(10) 0.96166(14) 0.5199(2)
C2_11 C 0.38770(4) 0.93845(8) 0.52912(15)
C3_11 C 0.37188(6) 0.91343(9) 0.59725(13)
H1_11 H 0.3880 0.9116 0.6387
C4_11 C 0.33248(6) 0.89108(10) 0.60479(13)
H2_11 H 0.3217 0.8740 0.6514
C5_11 C 0.30889(4) 0.89375(8) 0.54419(15)
C6_11 C 0.32471(6) 0.91877(9) 0.47605(13)
H3_11 H 0.3086 0.9206 0.4346
C7_11 C 0.36411(6) 0.94112(9) 0.46852(13)
H4_11 H 0.3749 0.9582 0.4220
C8_11 C 0.26803(4) 0.87008(8) 0.55052(13)
C9_11 C 0.24867(5) 0.86676(9) 0.62598(11)
H5_11 H 0.2624 0.8798 0.6755
C10_11 C 0.18899(4) 0.82509(8) 0.55642(12)
H6_11 H 0.1620 0.8097 0.5584
C11_11 C 0.24787(5) 0.85090(9) 0.47800(11)
H7_11 H 0.2611 0.8532 0.4264
O1_12 O 0.03793(11) 0.48697(8) 0.58457(17)
C1_12 C 0.03834(14) 0.46774(10) 0.5199(2)
C2_12 C 0.06155(8) 0.44925(7) 0.52912(15)
C3_12 C 0.08657(9) 0.45845(7) 0.59725(13)
H1_12 H 0.0884 0.4764 0.6387
C4_12 C 0.10892(10) 0.44140(8) 0.60479(13)
H2_12 H 0.1260 0.4477 0.6514
C5_12 C 0.10625(8) 0.41514(7) 0.54419(15)
C6_12 C 0.08123(9) 0.40594(7) 0.47605(13)
H3_12 H 0.0794 0.3880 0.4346
C7_12 C 0.05888(9) 0.42299(7) 0.46852(13)
H4_12 H 0.0418 0.4167 0.4220
C8_12 C 0.12992(8) 0.39795(7) 0.55052(13)
C9_12 C 0.13324(9) 0.38191(7) 0.62598(11)
H5_12 H 0.1202 0.3826 0.6755
C10_12 C 0.17491(8) 0.36390(7) 0.55642(12)
H6_12 H 0.1903 0.3523 0.5584
C11_12 C 0.14910(9) 0.39697(7) 0.47800(11)
H7_12 H 0.1468 0.4079 0.4264
O3_12 O 0.96439(11) 0.46780(7) 0.62354(17)
C12_12 C 0.94375(14) 0.44233(10) 0.5696(2)
C13_12 C 0.91187(9) 0.40571(5) 0.60659(14)
C14_12 C 0.90395(10) 0.40059(6) 0.69324(13)
H8_12 H 0.9171 0.4214 0.7313
C15_12 C 0.87683(11) 0.36503(7) 0.72414(11)
H9_12 H 0.8714 0.3615 0.7834
C16_12 C 0.85761(9) 0.33457(5) 0.66839(15)
C17_12 C 0.86553(9) 0.33969(5) 0.58174(13)
H10_12 H 0.8524 0.3189 0.5436
C18_12 C 0.89265(10) 0.37525(6) 0.55084(11)
H11_12 H 0.8980 0.3787 0.4916
C19_12 C 0.83150(9) 0.29561(5) 0.70280(17)
C20_12 C 0.80266(8) 0.28783(6) 0.76109(18)
H12_12 H 0.7999 0.3081 0.7838
N3_12 N 0.77787(10) 0.25043(7) 0.78609(18)
C21_12 C 0.78191(9) 0.22082(5) 0.75280(17)
H13_12 H 0.7650 0.1953 0.7699
N4_12 N 0.81076(8) 0.22861(5) 0.69451(15)
C22_12 C 0.83555(9) 0.26600(6) 0.66951(15)
H14_12 H 0.8552 0.2713 0.6297
H10_13 H 0.0144 0.2002 0.2103
C19_13 C 0.03772(5) 0.20256(7) 0.36947(17)
C20_13 C 0.04550(6) 0.18150(6) 0.42776(18)
H12_13 H 0.0252 0.1585 0.4505
N3_13 N 0.08290(7) 0.19411(7) 0.45276(18)
C21_13 C 0.11251(5) 0.22776(7) 0.41947(17)
H13_13 H 0.1380 0.2364 0.4366
N4_13 N 0.10472(5) 0.24882(6) 0.36118(15)
C22_13 C 0.06733(6) 0.23622(7) 0.33618(15)
H14_13 H 0.0620 0.2506 0.2964
O1_13 O 0.84636(8) 0.21763(7) 0.25124(17)
C1_13 C 0.86559(10) 0.23727(10) 0.1866(2)
C2_13 C 0.88408(7) 0.27897(4) 0.19579(15)
C3_13 C 0.87488(7) 0.29479(6) 0.26392(13)
H1_13 H 0.8569 0.2787 0.3054
C4_13 C 0.89193(8) 0.33419(6) 0.27146(13)
H2_13 H 0.8856 0.3450 0.3181
C5_13 C 0.91819(7) 0.35778(4) 0.21086(15)
C6_13 C 0.92739(7) 0.34196(6) 0.14272(13)
H3_13 H 0.9453 0.3581 0.1013
C7_13 C 0.91034(7) 0.30256(6) 0.13519(13)
H4_13 H 0.9166 0.2918 0.0887
C8_13 C 0.93538(7) 0.39864(4) 0.21719(13)
C9_13 C 0.95142(7) 0.41800(5) 0.29265(11)
H5_13 H 0.9507 0.4043 0.3422
C10_13 C 0.96943(7) 0.47768(4) 0.22309(12)
H6_13 H 0.9810 0.5047 0.2251
C11_13 C 0.93636(7) 0.41880(5) 0.14467(11)
H7_13 H 0.9254 0.4056 0.0931
O3_13 O 0.86553(7) 0.16326(8) 0.29021(17)
C12_13 C 0.89100(10) 0.16809(10) 0.2363(2)
C13_13 C 0.92762(5) 0.17283(7) 0.27326(14)
C14_13 C 0.93274(6) 0.17003(8) 0.35991(13)
H8_13 H 0.9119 0.1624 0.3980
C15_13 C 0.96830(7) 0.17847(8) 0.39081(11)
H9_13 H 0.9718 0.1766 0.4501
C16_13 C 0.99876(5) 0.18971(8) 0.33506(15)
C17_13 C 0.99364(5) 0.19251(8) 0.24841(13)
C18_13 C 0.95808(6) 0.18407(8) 0.21751(11)
H11_13 H 0.9546 0.1860 0.1583
O1_14 O 0.78237(7) 0.62874(11) 0.25124(17)
C1_14 C 0.76273(10) 0.62833(14) 0.1866(2)
C2_14 C 0.72103(4) 0.60512(8) 0.19579(15)
C3_14 C 0.70521(6) 0.58010(9) 0.26392(13)
H1_14 H 0.7213 0.5783 0.3054
C4_14 C 0.66581(6) 0.55775(10) 0.27146(13)
H2_14 H 0.6550 0.5407 0.3181
C5_14 C 0.64222(4) 0.56042(8) 0.21086(15)
C6_14 C 0.65804(6) 0.58544(9) 0.14272(13)
H3_14 H 0.6419 0.5873 0.1013
C7_14 C 0.69744(6) 0.60779(9) 0.13519(13)
H4_14 H 0.7082 0.6249 0.0887
C8_14 C 0.60136(4) 0.53675(8) 0.21719(13)
C9_14 C 0.58200(5) 0.53343(9) 0.29265(11)
H5_14 H 0.5957 0.5465 0.3422
C10_14 C 0.52232(4) 0.49176(8) 0.22309(12)
H6_14 H 0.4953 0.4764 0.2251
C11_14 C 0.58120(5) 0.51757(9) 0.14467(11)
H7_14 H 0.5944 0.5199 0.0931
O3_14 O 0.83674(8) 0.70228(11) 0.29021(17)
C12_14 C 0.83191(10) 0.72292(14) 0.2363(2)
C13_14 C 0.82717(7) 0.75480(9) 0.27326(14)
C14_14 C 0.82997(8) 0.76272(10) 0.35991(13)
H8_14 H 0.8376 0.7496 0.3980
C15_14 C 0.82153(8) 0.78984(11) 0.39081(11)
H9_14 H 0.8234 0.7953 0.4501
C16_14 C 0.81029(8) 0.80906(9) 0.33506(15)
C17_14 C 0.80749(8) 0.80114(9) 0.24841(13)
H10_14 H 0.7998 0.8143 0.2103
C18_14 C 0.81593(8) 0.77402(10) 0.21751(11)
H11_14 H 0.8140 0.7687 0.1583
C19_14 C 0.79744(7) 0.83517(9) 0.36947(17)
C20_14 C 0.81850(6) 0.86401(8) 0.42776(18)
H12_14 H 0.8415 0.8668 0.4505
N3_14 N 0.80589(7) 0.88880(10) 0.45276(18)
C21_14 C 0.77224(7) 0.88476(9) 0.41947(17)
H13_14 H 0.7636 0.9017 0.4366
N4_14 N 0.75118(6) 0.85591(8) 0.36118(15)
C22_14 C 0.76378(7) 0.83112(9) 0.33618(15)
H14_14 H 0.7494 0.8115 0.2964
O1_15 O 0.37126(11) 0.15364(8) 0.25124(17)
C1_15 C 0.37167(14) 0.13441(10) 0.1866(2)
C2_15 C 0.39488(8) 0.11592(7) 0.19579(15)
C3_15 C 0.41990(9) 0.12512(7) 0.26392(13)
H1_15 H 0.4217 0.1431 0.3054
C4_15 C 0.44225(10) 0.10807(8) 0.27146(13)
H2_15 H 0.4593 0.1144 0.3181
C5_15 C 0.43958(8) 0.08181(7) 0.21086(15)
C6_15 C 0.41456(9) 0.07261(7) 0.14272(13)
H3_15 H 0.4127 0.0547 0.1013
C7_15 C 0.39221(9) 0.08966(7) 0.13519(13)
H4_15 H 0.3751 0.0834 0.0887
C8_15 C 0.46325(8) 0.06462(7) 0.21719(13)
C9_15 C 0.46657(9) 0.04858(7) 0.29265(11)
H5_15 H 0.4535 0.0493 0.3422
C10_15 C 0.50824(8) 0.03057(7) 0.22309(12)
H6_15 H 0.5236 0.0190 0.2251
C11_15 C 0.48243(9) 0.06364(7) 0.14467(11)
H7_15 H 0.4801 0.0746 0.0931
O3_15 O 0.29772(11) 0.13447(7) 0.29021(17)
C12_15 C 0.27708(14) 0.10900(10) 0.2363(2)
C13_15 C 0.24520(9) 0.07238(5) 0.27326(14)
C14_15 C 0.23728(10) 0.06726(6) 0.35991(13)
H8_15 H 0.2504 0.0881 0.3980
C15_15 C 0.21016(11) 0.03170(7) 0.39081(11)
H9_15 H 0.2047 0.0282 0.4501
C16_15 C 0.19094(9) 0.00124(5) 0.33506(15)
C17_15 C 0.19886(9) 0.00636(5) 0.24841(13)
C18_15 C 0.22598(10) 0.04192(6) 0.21751(11)
H11_15 H 0.2313 0.0454 0.1583
H10_15 H 0.1857 0.9856 0.2103
C19_15 C 0.16483(9) 0.96228(5) 0.36947(17)
C20_15 C 0.13599(8) 0.95450(6) 0.42776(18)
H12_15 H 0.1332 0.9748 0.4505
N3_15 N 0.11120(10) 0.91710(7) 0.45276(18)
C21_15 C 0.11524(9) 0.88749(5) 0.41947(17)
H13_15 H 0.0983 0.8620 0.4366
N4_15 N 0.14409(8) 0.89528(5) 0.36118(15)
C22_15 C 0.16888(9) 0.93267(6) 0.33618(15)
H14_15 H 0.1885 0.9380 0.2964
H5_16 H 0.2841 0.0709 0.0088
C4_16 C 0.22527(8) 0.00085(6) 0.93812(13)
H2_16 H 0.2190 0.0116 0.9847
C5_16 C 0.25153(7) 0.02444(4) 0.87752(15)
C6_16 C 0.26073(7) 0.00862(6) 0.80938(13)
H3_16 H 0.2787 0.0247 0.7679
C8_16 C 0.26872(7) 0.06530(4) 0.88385(13)
C9_16 C 0.28476(7) 0.08466(5) 0.95931(11)
C10_16 C 0.30277(7) 0.14434(4) 0.88975(12)
H6_16 H 0.3144 0.1713 0.8917
C11_16 C 0.26970(7) 0.08546(5) 0.81133(11)
H7_16 H 0.2588 0.0722 0.7597
C14_16 C 0.26608(6) 0.83669(8) 0.02657(13)
H8_16 H 0.2453 0.8290 0.0646
C15_16 C 0.30164(7) 0.84513(8) 0.05747(11)
H9_16 H 0.3052 0.8432 0.1167
C16_16 C 0.33210(5) 0.85637(8) 0.00172(15)
C19_16 C 0.37106(5) 0.86922(7) 0.03613(17)
C20_16 C 0.37884(6) 0.84816(6) 0.09442(18)
H12_16 H 0.3586 0.8251 0.1171
N3_16 N 0.41624(7) 0.86077(7) 0.11942(18)
C21_16 C 0.44585(5) 0.89442(7) 0.08613(17)
H13_16 H 0.4714 0.9030 0.1032
N4_16 N 0.43806(5) 0.91548(6) 0.02784(15)
C22_16 C 0.40067(6) 0.90288(7) 0.00284(15)
O1_16 O 0.17970(8) 0.88429(7) 0.91790(17)
C1_16 C 0.19893(10) 0.90393(10) 0.8532(2)
C2_16 C 0.21742(7) 0.94563(4) 0.86245(15)
C3_16 C 0.20822(7) 0.96145(6) 0.93058(13)
H1_16 H 0.1903 0.9453 0.9720
C7_16 C 0.24368(7) 0.96922(6) 0.80185(13)
H4_16 H 0.2500 0.9584 0.7553
O3_16 O 0.19887(7) 0.82992(8) 0.95687(17)
C12_16 C 0.22434(10) 0.83475(10) 0.9029(2)
C13_16 C 0.26096(5) 0.83949(7) 0.93992(14)
C17_16 C 0.32698(5) 0.85917(8) 0.91507(13)
H10_16 H 0.3478 0.8668 0.8769
C18_16 C 0.29142(6) 0.85073(8) 0.88417(11)
H11_16 H 0.2880 0.8526 0.8249
H14_16 H 0.3954 0.9172 0.9630
C14_17 C 0.16331(8) 0.42938(10) 0.02657(13)
H8_17 H 0.1710 0.4162 0.0646
C15_17 C 0.15487(8) 0.45650(11) 0.05747(11)
H9_17 H 0.1568 0.4619 0.1167
C16_17 C 0.14363(8) 0.47572(9) 0.00172(15)
C19_17 C 0.13078(7) 0.50183(9) 0.03613(17)
C20_17 C 0.15184(6) 0.53067(8) 0.09442(18)
H12_17 H 0.1749 0.5334 0.1171
N3_17 N 0.13923(7) 0.55546(10) 0.11942(18)
C21_17 C 0.10558(7) 0.55142(9) 0.08613(17)
H13_17 H 0.0970 0.5683 0.1032
N4_17 N 0.08452(6) 0.52257(8) 0.02784(15)
C22_17 C 0.09712(7) 0.49778(9) 0.00284(15)
O1_17 O 0.11571(7) 0.29540(11) 0.91790(17)
C1_17 C 0.09607(10) 0.29499(14) 0.8532(2)
C2_17 C 0.05437(4) 0.27178(8) 0.86245(15)
C3_17 C 0.03855(6) 0.24676(9) 0.93058(13)
H1_17 H 0.0547 0.2449 0.9720
C7_17 C 0.03078(6) 0.27445(9) 0.80185(13)
H4_17 H 0.0416 0.2915 0.7553
O3_17 O 0.17008(8) 0.36894(11) 0.95687(17)
C12_17 C 0.16525(10) 0.38958(14) 0.9029(2)
C13_17 C 0.16051(7) 0.42146(9) 0.93992(14)
C17_17 C 0.14083(8) 0.46780(9) 0.91507(13)
H10_17 H 0.1332 0.4809 0.8769
C18_17 C 0.14927(8) 0.44068(10) 0.88417(11)
H11_17 H 0.1474 0.4353 0.8249
H14_17 H 0.0828 0.4781 0.9630
H5_17 H 0.9291 0.2131 0.0088
C4_17 C 0.99915(6) 0.22441(10) 0.93812(13)
H2_17 H 0.9884 0.2073 0.9847
C5_17 C 0.97556(4) 0.22708(8) 0.87752(15)
C6_17 C 0.99138(6) 0.25210(9) 0.80938(13)
H3_17 H 0.9753 0.2539 0.7679
C8_17 C 0.93470(4) 0.20341(8) 0.88385(13)
C9_17 C 0.91534(5) 0.20009(9) 0.95931(11)
C10_17 C 0.85566(4) 0.15842(8) 0.88975(12)
H6_17 H 0.8287 0.1430 0.8917
C11_17 C 0.91454(5) 0.18423(9) 0.81133(11)
H7_17 H 0.9278 0.1865 0.7597
H5_18 H 0.7869 0.7159 0.0088
C14_18 C 0.57062(10) 0.73392(6) 0.02657(13)
H8_18 H 0.5838 0.7547 0.0646
C15_18 C 0.54350(11) 0.69836(7) 0.05747(11)
H9_18 H 0.5381 0.6948 0.1167
C16_18 C 0.52428(9) 0.66790(5) 0.00172(15)
C19_18 C 0.49817(9) 0.62894(5) 0.03613(17)
C20_18 C 0.46933(8) 0.62116(6) 0.09442(18)
H12_18 H 0.4666 0.6414 0.1171
N3_18 N 0.44454(10) 0.58376(7) 0.11942(18)
C21_18 C 0.44858(9) 0.55415(5) 0.08613(17)
H13_18 H 0.4317 0.5286 0.1032
N4_18 N 0.47743(8) 0.56194(5) 0.02784(15)
C22_18 C 0.50222(9) 0.59933(6) 0.00284(15)
O1_18 O 0.70460(11) 0.82030(8) 0.91790(17)
C1_18 C 0.70501(14) 0.80107(10) 0.8532(2)
C2_18 C 0.72822(8) 0.78258(7) 0.86245(15)
C3_18 C 0.75324(9) 0.79178(7) 0.93058(13)
H1_18 H 0.7551 0.8097 0.9720
C4_18 C 0.77559(10) 0.77473(8) 0.93812(13)
H2_18 H 0.7927 0.7810 0.9847
C5_18 C 0.77292(8) 0.74847(7) 0.87752(15)
C6_18 C 0.74790(9) 0.73927(7) 0.80938(13)
H3_18 H 0.7461 0.7213 0.7679
C7_18 C 0.72555(9) 0.75632(7) 0.80185(13)
H4_18 H 0.7085 0.7500 0.7553
C8_18 C 0.79659(8) 0.73128(7) 0.88385(13)
C9_18 C 0.79991(9) 0.71524(7) 0.95931(11)
C10_18 C 0.84158(8) 0.69723(7) 0.88975(12)
H6_18 H 0.8570 0.6856 0.8917
C11_18 C 0.81577(9) 0.73030(7) 0.81133(11)
H7_18 H 0.8135 0.7412 0.7597
O3_18 O 0.63106(11) 0.80113(7) 0.95687(17)
C12_18 C 0.61042(14) 0.77566(10) 0.9029(2)
C13_18 C 0.57854(9) 0.73904(5) 0.93992(14)
C17_18 C 0.53220(9) 0.67302(5) 0.91507(13)
H10_18 H 0.5191 0.6522 0.8769
C18_18 C 0.55932(10) 0.70858(6) 0.88417(11)
H11_18 H 0.5647 0.7120 0.8249
H14_18 H 0.5219 0.6046 0.9630
loop_
_geom_bond_atom_site_label_1
_geom_bond_atom_site_label_2
_geom_bond_site_symmetry_1
_geom_bond_site_symmetry_2
Cu1 O1 1_555 1_555
Cu2 I1 1_555 1_555
I1 Cu6 1_555 1_555
O1 C1 1_555 1_555
O2 C1 1_555 1_555
C1 C2 1_555 1_555
C2 C3 1_555 1_555
C3 H1 1_555 1_555
C4 C3 1_555 1_555
H2 C4 1_555 1_555
C5 C4 1_555 1_555
C6 C5 1_555 1_555
H3 C6 1_555 1_555
C7 C2 1_555 1_555
H4 C7 1_555 1_555
C8 C5 1_555 1_555
C9 C8 1_555 1_555
H5 C9 1_555 1_555
N1 C9 1_555 1_555
C10 N1 1_555 1_555
H6 C10 1_555 1_555
N2 C10 1_555 1_555
C11 C8 1_555 1_555
H7 C11 1_555 1_555
O3 Cu1 1_555 1_555
O4 C12 1_555 1_555
C12 O3 1_555 1_555
C13 C12 1_555 1_555
C14 C13 1_555 1_555
H8 C14 1_555 1_555
C15 C14 1_555 1_555
H9 C15 1_555 1_555
C16 C15 1_555 1_555
C17 C16 1_555 1_555
H10 C17 1_555 1_555
C18 C13 1_555 1_555
H11 C18 1_555 1_555
C19 C16 1_555 1_555
C20 C19 1_555 1_555
H12 C20 1_555 1_555
N3 C20 1_555 1_555
C21 N3 1_555 1_555
H13 C21 1_555 1_555
N4 Cu2 1_555 1_555
C22 C19 1_555 1_555
H14 C22 1_555 1_555
Cu3 O2 1_555 1_555
Cu4 N1 1_555 1_555
Cu5 N2 1_555 1_555
Cu6 I2 1_555 1_555
I2 Cu2 1_555 1_555
O5 Cu1 1_555 1_555
N5 Cu1 1_555 1_555
N6 Cu2 1_555 1_555
O6 Cu1 1_555 1_555
C6 C7 1_555 1_555
N2 C11 1_555 1_555
O4 Cu3 1_555 1_555
C17 C18 1_555 1_555
C21 N4 1_555 1_555
N4 C22 1_555 1_555
Cu1_2 O1_2 1_555 1_555
O1_2 C1_2 1_555 1_555
O2_2 C1_2 1_555 1_555
C1_2 C2_2 1_555 1_555
C2_2 C3_2 1_555 1_555
C3_2 H1_2 1_555 1_555
C4_2 C3_2 1_555 1_555
H2_2 C4_2 1_555 1_555
C5_2 C4_2 1_555 1_555
C6_2 C5_2 1_555 1_555
H3_2 C6_2 1_555 1_555
C7_2 C2_2 1_555 1_555
H4_2 C7_2 1_555 1_555
C8_2 C5_2 1_555 1_555
C9_2 C8_2 1_555 1_555
H5_2 C9_2 1_555 1_555
N1_2 C9_2 1_555 1_555
C10_2 N1_2 1_555 1_555
H6_2 C10_2 1_555 1_555
N2_2 C10_2 1_555 1_555
C11_2 C8_2 1_555 1_555
H7_2 C11_2 1_555 1_555
Cu4_2 N1_2 1_555 1_555
Cu5_2 N2_2 1_555 1_555
N5_2 Cu1_2 1_555 1_555
O6_2 Cu1_2 1_555 1_555
C6_2 C7_2 1_555 1_555
N2_2 C11_2 1_555 1_555
Cu2_2 I1_2 1_555 1_555
I1_2 Cu6_2 1_555 1_555
O4_2 C12_2 1_555 1_555
C12_2 O3_2 1_555 1_555
C13_2 C12_2 1_555 1_555
C14_2 C13_2 1_555 1_555
H8_2 C14_2 1_555 1_555
C15_2 C14_2 1_555 1_555
H9_2 C15_2 1_555 1_555
C16_2 C15_2 1_555 1_555
C17_2 C16_2 1_555 1_555
H10_2 C17_2 1_555 1_555
C18_2 C13_2 1_555 1_555
H11_2 C18_2 1_555 1_555
C19_2 C16_2 1_555 1_555
C20_2 C19_2 1_555 1_555
H12_2 C20_2 1_555 1_555
N3_2 C20_2 1_555 1_555
C21_2 N3_2 1_555 1_555
H13_2 C21_2 1_555 1_555
N4_2 Cu2_2 1_555 1_555
C22_2 C19_2 1_555 1_555
H14_2 C22_2 1_555 1_555
Cu6_2 I2_2 1_555 1_555
I2_2 Cu2_2 1_555 1_555
N6_2 Cu2_2 1_555 1_555
O4_2 Cu3_2 1_555 1_555
C17_2 C18_2 1_555 1_555
C21_2 N4_2 1_555 1_555
N4_2 C22_2 1_555 1_555
Cu2_3 I1_3 1_555 1_555
I1_3 Cu6_3 1_555 1_555
O4_3 C12_3 1_555 1_555
C12_3 O3_3 1_555 1_555
C13_3 C12_3 1_555 1_555
C14_3 C13_3 1_555 1_555
H8_3 C14_3 1_555 1_555
C15_3 C14_3 1_555 1_555
H9_3 C15_3 1_555 1_555
C16_3 C15_3 1_555 1_555
C17_3 C16_3 1_555 1_555
H10_3 C17_3 1_555 1_555
C18_3 C13_3 1_555 1_555
H11_3 C18_3 1_555 1_555
C19_3 C16_3 1_555 1_555
C20_3 C19_3 1_555 1_555
H12_3 C20_3 1_555 1_555
N3_3 C20_3 1_555 1_555
C21_3 N3_3 1_555 1_555
H13_3 C21_3 1_555 1_555
N4_3 Cu2_3 1_555 1_555
C22_3 C19_3 1_555 1_555
H14_3 C22_3 1_555 1_555
Cu6_3 I2_3 1_555 1_555
I2_3 Cu2_3 1_555 1_555
N6_3 Cu2_3 1_555 1_555
O4_3 Cu3_3 1_555 1_555
C17_3 C18_3 1_555 1_555
C21_3 N4_3 1_555 1_555
N4_3 C22_3 1_555 1_555
Cu1_3 O1_3 1_555 1_555
O1_3 C1_3 1_555 1_555
O2_3 C1_3 1_555 1_555
C1_3 C2_3 1_555 1_555
C2_3 C3_3 1_555 1_555
C3_3 H1_3 1_555 1_555
C4_3 C3_3 1_555 1_555
H2_3 C4_3 1_555 1_555
C5_3 C4_3 1_555 1_555
C6_3 C5_3 1_555 1_555
H3_3 C6_3 1_555 1_555
C7_3 C2_3 1_555 1_555
H4_3 C7_3 1_555 1_555
C8_3 C5_3 1_555 1_555
C9_3 C8_3 1_555 1_555
H5_3 C9_3 1_555 1_555
N1_3 C9_3 1_555 1_555
C10_3 N1_3 1_555 1_555
H6_3 C10_3 1_555 1_555
N2_3 C10_3 1_555 1_555
C11_3 C8_3 1_555 1_555
H7_3 C11_3 1_555 1_555
Cu4_3 N1_3 1_555 1_555
Cu5_3 N2_3 1_555 1_555
N5_3 Cu1_3 1_555 1_555
O6_3 Cu1_3 1_555 1_555
C6_3 C7_3 1_555 1_555
N2_3 C11_3 1_555 1_555
Cu1_4 O1_4 1_555 1_555
O1_4 C1_4 1_555 1_555
O2_4 C1_4 1_555 1_555
C1_4 C2_4 1_555 1_555
C2_4 C3_4 1_555 1_555
C3_4 H1_4 1_555 1_555
C4_4 C3_4 1_555 1_555
H2_4 C4_4 1_555 1_555
C5_4 C4_4 1_555 1_555
C6_4 C5_4 1_555 1_555
H3_4 C6_4 1_555 1_555
C7_4 C2_4 1_555 1_555
H4_4 C7_4 1_555 1_555
C8_4 C5_4 1_555 1_555
C9_4 C8_4 1_555 1_555
H5_4 C9_4 1_555 1_555
N1_4 C9_4 1_555 1_555
C10_4 N1_4 1_555 1_555
H6_4 C10_4 1_555 1_555
N2_4 C10_4 1_555 1_555
C11_4 C8_4 1_555 1_555
H7_4 C11_4 1_555 1_555
O3_4 Cu1_4 1_555 1_555
O4_4 C12_4 1_555 1_555
C12_4 O3_4 1_555 1_555
C13_4 C12_4 1_555 1_555
C14_4 C13_4 1_555 1_555
H8_4 C14_4 1_555 1_555
C15_4 C14_4 1_555 1_555
H9_4 C15_4 1_555 1_555
C16_4 C15_4 1_555 1_555
C17_4 C16_4 1_555 1_555
C18_4 C13_4 1_555 1_555
H11_4 C18_4 1_555 1_555
Cu3_4 O2_4 1_555 1_555
Cu3_3 N1_4 1_555 1_555
Cu5_4 N2_4 1_555 1_555
O5_4 Cu1_4 1_555 1_555
N5_4 Cu1_4 1_555 1_555
O6_4 Cu1_4 1_555 1_555
C6_4 C7_4 1_555 1_555
N2_4 C11_4 1_555 1_555
O4_4 Cu3_4 1_555 1_555
C17_4 C18_4 1_555 1_555
Cu2_4 I1_4 1_555 1_555
I1_4 Cu5_3 1_555 1_555
C20_4 C19_4 1_555 1_555
H12_4 C20_4 1_555 1_555
N3_4 C20_4 1_555 1_555
C21_4 N3_4 1_555 1_555
H13_4 C21_4 1_555 1_555
N4_4 Cu2_4 1_555 1_555
C22_4 C19_4 1_555 1_555
H14_4 C22_4 1_555 1_555
Cu5_3 I2_4 1_555 1_555
I2_4 Cu2_4 1_555 1_555
N6_4 Cu2_4 1_555 1_555
C21_4 N4_4 1_555 1_555
N4_4 C22_4 1_555 1_555
Cu1_5 O1_5 1_555 1_555
Cu2_5 I1_5 1_555 1_555
I1_5 Cu5 1_555 1_555
O1_5 C1_5 1_555 1_555
O2_5 C1_5 1_555 1_555
C1_5 C2_5 1_555 1_555
C2_5 C3_5 1_555 1_555
C3_5 H1_5 1_555 1_555
C4_5 C3_5 1_555 1_555
H2_5 C4_5 1_555 1_555
C5_5 C4_5 1_555 1_555
C6_5 C5_5 1_555 1_555
H3_5 C6_5 1_555 1_555
C7_5 C2_5 1_555 1_555
H4_5 C7_5 1_555 1_555
C8_5 C5_5 1_555 1_555
C9_5 C8_5 1_555 1_555
H5_5 C9_5 1_555 1_555
N1_5 C9_5 1_555 1_555
C10_5 N1_5 1_555 1_555
H6_5 C10_5 1_555 1_555
N2_5 C10_5 1_555 1_555
C11_5 C8_5 1_555 1_555
H7_5 C11_5 1_555 1_555
O3_5 Cu1_5 1_555 1_555
O4_5 C12_5 1_555 1_555
C12_5 O3_5 1_555 1_555
C13_5 C12_5 1_555 1_555
C14_5 C13_5 1_555 1_555
H8_5 C14_5 1_555 1_555
C15_5 C14_5 1_555 1_555
H9_5 C15_5 1_555 1_555
C16_5 C15_5 1_555 1_555
C17_5 C16_5 1_555 1_555
H10_5 C17_5 1_555 1_555
C18_5 C13_5 1_555 1_555
H11_5 C18_5 1_555 1_555
C19_5 C16_5 1_555 1_555
C20_5 C19_5 1_555 1_555
H12_5 C20_5 1_555 1_555
N3_5 C20_5 1_555 1_555
C21_5 N3_5 1_555 1_555
H13_5 C21_5 1_555 1_555
N4_5 Cu2_5 1_555 1_555
C22_5 C19_5 1_555 1_555
H14_5 C22_5 1_555 1_555
Cu3_5 O2_5 1_555 1_555
Cu3 N1_5 1_555 1_555
Cu5_5 N2_5 1_555 1_555
Cu5 I2_5 1_555 1_555
I2_5 Cu2_5 1_555 1_555
O5_5 Cu1_5 1_555 1_555
N5_5 Cu1_5 1_555 1_555
N6_5 Cu2_5 1_555 1_555
O6_5 Cu1_5 1_555 1_555
C6_5 C7_5 1_555 1_555
N2_5 C11_5 1_555 1_555
O4_5 Cu3_5 1_555 1_555
C17_5 C18_5 1_555 1_555
C21_5 N4_5 1_555 1_555
N4_5 C22_5 1_555 1_555
Cu2_6 I1_6 1_555 1_555
I1_6 Cu5_2 1_555 1_555
C20_6 C19_6 1_555 1_555
H12_6 C20_6 1_555 1_555
N3_6 C20_6 1_555 1_555
C21_6 N3_6 1_555 1_555
H13_6 C21_6 1_555 1_555
N4_6 Cu2_6 1_555 1_555
C22_6 C19_6 1_555 1_555
H14_6 C22_6 1_555 1_555
Cu5_2 I2_6 1_555 1_555
I2_6 Cu2_6 1_555 1_555
N6_6 Cu2_6 1_555 1_555
C21_6 N4_6 1_555 1_555
N4_6 C22_6 1_555 1_555
Cu1_6 O1_6 1_555 1_555
O1_6 C1_6 1_555 1_555
O2_6 C1_6 1_555 1_555
C1_6 C2_6 1_555 1_555
C2_6 C3_6 1_555 1_555
C3_6 H1_6 1_555 1_555
C4_6 C3_6 1_555 1_555
H2_6 C4_6 1_555 1_555
C5_6 C4_6 1_555 1_555
C6_6 C5_6 1_555 1_555
H3_6 C6_6 1_555 1_555
C7_6 C2_6 1_555 1_555
H4_6 C7_6 1_555 1_555
C8_6 C5_6 1_555 1_555
C9_6 C8_6 1_555 1_555
H5_6 C9_6 1_555 1_555
N1_6 C9_6 1_555 1_555
C10_6 N1_6 1_555 1_555
H6_6 C10_6 1_555 1_555
N2_6 C10_6 1_555 1_555
C11_6 C8_6 1_555 1_555
H7_6 C11_6 1_555 1_555
O3_6 Cu1_6 1_555 1_555
O4_6 C12_6 1_555 1_555
C12_6 O3_6 1_555 1_555
C13_6 C12_6 1_555 1_555
C14_6 C13_6 1_555 1_555
H8_6 C14_6 1_555 1_555
C15_6 C14_6 1_555 1_555
H9_6 C15_6 1_555 1_555
C16_6 C15_6 1_555 1_555
C17_6 C16_6 1_555 1_555
C18_6 C13_6 1_555 1_555
H11_6 C18_6 1_555 1_555
Cu3_6 O2_6 1_555 1_555
Cu3_2 N1_6 1_555 1_555
Cu5_6 N2_6 1_555 1_555
O5_6 Cu1_6 1_555 1_555
N5_6 Cu1_6 1_555 1_555
O6_6 Cu1_6 1_555 1_555
C6_6 C7_6 1_555 1_555
N2_6 C11_6 1_555 1_555
O4_6 Cu3_6 1_555 1_555
C17_6 C18_6 1_555 1_555
Cu1_7 O1_7 1_555 1_555
O1_7 C1_7 1_555 1_555
O2_7 C1_7 1_555 1_555
C1_7 C2_7 1_555 1_555
C2_7 C3_7 1_555 1_555
C3_7 H1_7 1_555 1_555
C7_7 C2_7 1_555 1_555
H4_7 C7_7 1_555 1_555
O3_7 Cu1_7 1_555 1_555
O4_7 C12_7 1_555 1_555
C12_7 O3_7 1_555 1_555
C13_7 C12_7 1_555 1_555
H10_7 C17_7 1_555 1_555
C18_7 C13_7 1_555 1_555
H11_7 C18_7 1_555 1_555
Cu4_2 O2_7 1_555 1_555
O5_7 Cu1_7 1_555 1_555
N6_7 Cu2_7 1_555 1_555
O6_7 Cu1_7 1_555 1_555
O4_7 Cu4_2 1_555 1_555
C17_7 C18_7 1_555 1_555
H8_7 C14_7 1_555 1_555
C15_7 C14_7 1_555 1_555
H9_7 C15_7 1_555 1_555
C16_7 C15_7 1_555 1_555
C19_7 C16_7 1_555 1_555
C20_7 C19_7 1_555 1_555
H12_7 C20_7 1_555 1_555
N3_7 C20_7 1_555 1_555
C21_7 N3_7 1_555 1_555
H13_7 C21_7 1_555 1_555
C22_7 C19_7 1_555 1_555
C21_7 N4_7 1_555 1_555
N4_7 C22_7 1_555 1_555
H2_7 C4_7 1_555 1_555
C5_7 C4_7 1_555 1_555
C6_7 C5_7 1_555 1_555
H3_7 C6_7 1_555 1_555
C8_7 C5_7 1_555 1_555
C9_7 C8_7 1_555 1_555
N1_7 C9_7 1_555 1_555
C10_7 N1_7 1_555 1_555
H6_7 C10_7 1_555 1_555
N2_7 C10_7 1_555 1_555
C11_7 C8_7 1_555 1_555
H7_7 C11_7 1_555 1_555
Cu6_2 N2_7 1_555 1_555
N2_7 C11_7 1_555 1_555
H2_8 C4_8 1_555 1_555
C5_8 C4_8 1_555 1_555
C6_8 C5_8 1_555 1_555
H3_8 C6_8 1_555 1_555
C8_8 C5_8 1_555 1_555
C9_8 C8_8 1_555 1_555
N1_8 C9_8 1_555 1_555
C10_8 N1_8 1_555 1_555
H6_8 C10_8 1_555 1_555
N2_8 C10_8 1_555 1_555
C11_8 C8_8 1_555 1_555
H7_8 C11_8 1_555 1_555
Cu6_3 N2_8 1_555 1_555
N2_8 C11_8 1_555 1_555
Cu1_8 O1_8 1_555 1_555
O1_8 C1_8 1_555 1_555
O2_8 C1_8 1_555 1_555
C1_8 C2_8 1_555 1_555
C2_8 C3_8 1_555 1_555
C3_8 H1_8 1_555 1_555
C7_8 C2_8 1_555 1_555
H4_8 C7_8 1_555 1_555
O3_8 Cu1_8 1_555 1_555
O4_8 C12_8 1_555 1_555
C12_8 O3_8 1_555 1_555
C13_8 C12_8 1_555 1_555
H10_8 C17_8 1_555 1_555
C18_8 C13_8 1_555 1_555
H11_8 C18_8 1_555 1_555
Cu4_3 O2_8 1_555 1_555
O5_8 Cu1_8 1_555 1_555
N6_8 Cu2_8 1_555 1_555
O6_8 Cu1_8 1_555 1_555
O4_8 Cu4_3 1_555 1_555
C17_8 C18_8 1_555 1_555
H8_8 C14_8 1_555 1_555
C15_8 C14_8 1_555 1_555
H9_8 C15_8 1_555 1_555
C16_8 C15_8 1_555 1_555
C19_8 C16_8 1_555 1_555
C20_8 C19_8 1_555 1_555
H12_8 C20_8 1_555 1_555
N3_8 C20_8 1_555 1_555
C21_8 N3_8 1_555 1_555
H13_8 C21_8 1_555 1_555
C22_8 C19_8 1_555 1_555
C21_8 N4_8 1_555 1_555
N4_8 C22_8 1_555 1_555
Cu1_9 O1_9 1_555 1_555
Cu2_9 I1_9 1_555 1_555
O1_9 C1_9 1_555 1_555
O2_9 C1_9 1_555 1_555
C1_9 C2_9 1_555 1_555
C2_9 C3_9 1_555 1_555
C3_9 H1_9 1_555 1_555
C4_9 C3_9 1_555 1_555
H2_9 C4_9 1_555 1_555
C5_9 C4_9 1_555 1_555
C6_9 C5_9 1_555 1_555
H3_9 C6_9 1_555 1_555
C7_9 C2_9 1_555 1_555
H4_9 C7_9 1_555 1_555
C8_9 C5_9 1_555 1_555
C9_9 C8_9 1_555 1_555
N1_9 C9_9 1_555 1_555
C10_9 N1_9 1_555 1_555
H6_9 C10_9 1_555 1_555
N2_9 C10_9 1_555 1_555
C11_9 C8_9 1_555 1_555
H7_9 C11_9 1_555 1_555
O3_9 Cu1_9 1_555 1_555
O4_9 C12_9 1_555 1_555
C12_9 O3_9 1_555 1_555
C13_9 C12_9 1_555 1_555
H10_9 C17_9 1_555 1_555
C18_9 C13_9 1_555 1_555
H11_9 C18_9 1_555 1_555
Cu4 O2_9 1_555 1_555
Cu6 N2_9 1_555 1_555
O5_9 Cu1_9 1_555 1_555
N6_9 Cu2_9 1_555 1_555
O6_9 Cu1_9 1_555 1_555
C6_9 C7_9 1_555 1_555
N2_9 C11_9 1_555 1_555
O4_9 Cu4 1_555 1_555
C17_9 C18_9 1_555 1_555
H8_9 C14_9 1_555 1_555
C15_9 C14_9 1_555 1_555
H9_9 C15_9 1_555 1_555
C16_9 C15_9 1_555 1_555
C19_9 C16_9 1_555 1_555
C20_9 C19_9 1_555 1_555
H12_9 C20_9 1_555 1_555
N3_9 C20_9 1_555 1_555
C21_9 N3_9 1_555 1_555
H13_9 C21_9 1_555 1_555
C22_9 C19_9 1_555 1_555
Cu5_5 I2_9 1_555 1_555
C21_9 N4_9 1_555 1_555
N4_9 C22_9 1_555 1_555
Cu3 O1_10 1_555 1_555
O1_10 C1_10 1_555 1_555
O5 C1_10 1_555 1_555
C1_10 C2_10 1_555 1_555
C2_10 C3_10 1_555 1_555
C3_10 H1_10 1_555 1_555
C4_10 C3_10 1_555 1_555
H2_10 C4_10 1_555 1_555
C5_10 C4_10 1_555 1_555
C6_10 C5_10 1_555 1_555
H3_10 C6_10 1_555 1_555
C7_10 C2_10 1_555 1_555
H4_10 C7_10 1_555 1_555
C8_10 C5_10 1_555 1_555
C9_10 C8_10 1_555 1_555
H5_10 C9_10 1_555 1_555
N5_6 C9_10 1_555 1_555
C10_10 N5_6 1_555 1_555
H6_10 C10_10 1_555 1_555
N6_2 C10_10 1_555 1_555
C11_10 C8_10 1_555 1_555
H7_10 C11_10 1_555 1_555
O3_10 Cu3 1_555 1_555
O6 C12_10 1_555 1_555
C12_10 O3_10 1_555 1_555
C13_10 C12_10 1_555 1_555
C14_10 C13_10 1_555 1_555
H8_10 C14_10 1_555 1_555
C15_10 C14_10 1_555 1_555
H9_10 C15_10 1_555 1_555
C16_10 C15_10 1_555 1_555
C17_10 C16_10 1_555 1_555
H10_10 C17_10 1_555 1_555
C18_10 C13_10 1_555 1_555
H11_10 C18_10 1_555 1_555
C19_10 C16_10 1_555 1_555
C20_10 C19_10 1_555 1_555
H12_10 C20_10 1_555 1_555
N3_10 C20_10 1_555 1_555
C21_10 N3_10 1_555 1_555
H13_10 C21_10 1_555 1_555
N4_10 Cu5_3 1_555 1_555
C22_10 C19_10 1_555 1_555
H14_10 C22_10 1_555 1_555
C6_10 C7_10 1_555 1_555
N6_2 C11_10 1_555 1_555
C17_10 C18_10 1_555 1_555
C21_10 N4_10 1_555 1_555
N4_10 C22_10 1_555 1_555
O6_2 C12_11 1_555 1_555
C12_11 O3_11 1_555 1_555
C13_11 C12_11 1_555 1_555
C14_11 C13_11 1_555 1_555
H8_11 C14_11 1_555 1_555
C15_11 C14_11 1_555 1_555
H9_11 C15_11 1_555 1_555
C16_11 C15_11 1_555 1_555
C17_11 C16_11 1_555 1_555
H10_11 C17_11 1_555 1_555
C18_11 C13_11 1_555 1_555
H11_11 C18_11 1_555 1_555
C19_11 C16_11 1_555 1_555
C20_11 C19_11 1_555 1_555
H12_11 C20_11 1_555 1_555
N3_11 C20_11 1_555 1_555
C21_11 N3_11 1_555 1_555
H13_11 C21_11 1_555 1_555
N4_11 Cu5 1_555 1_555
C22_11 C19_11 1_555 1_555
H14_11 C22_11 1_555 1_555
C17_11 C18_11 1_555 1_555
C21_11 N4_11 1_555 1_555
N4_11 C22_11 1_555 1_555
Cu3_2 O1_11 1_555 1_555
O1_11 C1_11 1_555 1_555
O5_2 C1_11 1_555 1_555
C1_11 C2_11 1_555 1_555
C2_11 C3_11 1_555 1_555
C3_11 H1_11 1_555 1_555
C4_11 C3_11 1_555 1_555
H2_11 C4_11 1_555 1_555
C5_11 C4_11 1_555 1_555
C6_11 C5_11 1_555 1_555
H3_11 C6_11 1_555 1_555
C7_11 C2_11 1_555 1_555
H4_11 C7_11 1_555 1_555
C8_11 C5_11 1_555 1_555
C9_11 C8_11 1_555 1_555
H5_11 C9_11 1_555 1_555
N5_4 C9_11 1_555 1_555
C10_11 N5_4 1_555 1_555
H6_11 C10_11 1_555 1_555
N6_3 C10_11 1_555 1_555
C11_11 C8_11 1_555 1_555
H7_11 C11_11 1_555 1_555
C6_11 C7_11 1_555 1_555
N6_3 C11_11 1_555 1_555
Cu3_3 O1_12 1_555 1_555
O1_12 C1_12 1_555 1_555
O5_3 C1_12 1_555 1_555
C1_12 C2_12 1_555 1_555
C2_12 C3_12 1_555 1_555
C3_12 H1_12 1_555 1_555
C4_12 C3_12 1_555 1_555
H2_12 C4_12 1_555 1_555
C5_12 C4_12 1_555 1_555
C6_12 C5_12 1_555 1_555
H3_12 C6_12 1_555 1_555
C7_12 C2_12 1_555 1_555
H4_12 C7_12 1_555 1_555
C8_12 C5_12 1_555 1_555
C9_12 C8_12 1_555 1_555
H5_12 C9_12 1_555 1_555
N5_5 C9_12 1_555 1_555
C10_12 N5_5 1_555 1_555
H6_12 C10_12 1_555 1_555
N6 C10_12 1_555 1_555
C11_12 C8_12 1_555 1_555
H7_12 C11_12 1_555 1_555
C6_12 C7_12 1_555 1_555
N6 C11_12 1_555 1_555
O6_3 C12_12 1_555 1_555
C12_12 O3_12 1_555 1_555
C13_12 C12_12 1_555 1_555
C14_12 C13_12 1_555 1_555
H8_12 C14_12 1_555 1_555
C15_12 C14_12 1_555 1_555
H9_12 C15_12 1_555 1_555
C16_12 C15_12 1_555 1_555
C17_12 C16_12 1_555 1_555
H10_12 C17_12 1_555 1_555
C18_12 C13_12 1_555 1_555
H11_12 C18_12 1_555 1_555
C19_12 C16_12 1_555 1_555
C20_12 C19_12 1_555 1_555
H12_12 C20_12 1_555 1_555
N3_12 C20_12 1_555 1_555
C21_12 N3_12 1_555 1_555
H13_12 C21_12 1_555 1_555
N4_12 Cu5_2 1_555 1_555
C22_12 C19_12 1_555 1_555
H14_12 C22_12 1_555 1_555
C17_12 C18_12 1_555 1_555
C21_12 N4_12 1_555 1_555
N4_12 C22_12 1_555 1_555
C20_13 C19_13 1_555 1_555
H12_13 C20_13 1_555 1_555
N3_13 C20_13 1_555 1_555
C21_13 N3_13 1_555 1_555
H13_13 C21_13 1_555 1_555
N4_13 Cu6 1_555 1_555
C22_13 C19_13 1_555 1_555
H14_13 C22_13 1_555 1_555
C21_13 N4_13 1_555 1_555
N4_13 C22_13 1_555 1_555
Cu4_2 O1_13 1_555 1_555
O1_13 C1_13 1_555 1_555
O5_7 C1_13 1_555 1_555
C1_13 C2_13 1_555 1_555
C2_13 C3_13 1_555 1_555
C3_13 H1_13 1_555 1_555
C4_13 C3_13 1_555 1_555
H2_13 C4_13 1_555 1_555
C5_13 C4_13 1_555 1_555
C6_13 C5_13 1_555 1_555
H3_13 C6_13 1_555 1_555
C7_13 C2_13 1_555 1_555
H4_13 C7_13 1_555 1_555
C8_13 C5_13 1_555 1_555
C9_13 C8_13 1_555 1_555
H5_13 C9_13 1_555 1_555
N5_3 C9_13 1_555 1_555
C10_13 N5_3 1_555 1_555
H6_13 C10_13 1_555 1_555
N6_8 C10_13 1_555 1_555
C11_13 C8_13 1_555 1_555
H7_13 C11_13 1_555 1_555
O3_13 Cu4_2 1_555 1_555
O6_7 C12_13 1_555 1_555
C12_13 O3_13 1_555 1_555
C13_13 C12_13 1_555 1_555
C14_13 C13_13 1_555 1_555
H8_13 C14_13 1_555 1_555
C15_13 C14_13 1_555 1_555
H9_13 C15_13 1_555 1_555
C16_13 C15_13 1_555 1_555
C17_13 C16_13 1_555 1_555
C18_13 C13_13 1_555 1_555
H11_13 C18_13 1_555 1_555
C6_13 C7_13 1_555 1_555
N6_8 C11_13 1_555 1_555
C17_13 C18_13 1_555 1_555
Cu4_3 O1_14 1_555 1_555
O1_14 C1_14 1_555 1_555
O5_8 C1_14 1_555 1_555
C1_14 C2_14 1_555 1_555
C2_14 C3_14 1_555 1_555
C3_14 H1_14 1_555 1_555
C4_14 C3_14 1_555 1_555
H2_14 C4_14 1_555 1_555
C5_14 C4_14 1_555 1_555
C6_14 C5_14 1_555 1_555
H3_14 C6_14 1_555 1_555
C7_14 C2_14 1_555 1_555
H4_14 C7_14 1_555 1_555
C8_14 C5_14 1_555 1_555
C9_14 C8_14 1_555 1_555
H5_14 C9_14 1_555 1_555
N5 C9_14 1_555 1_555
C10_14 N5 1_555 1_555
H6_14 C10_14 1_555 1_555
N6_9 C10_14 1_555 1_555
C11_14 C8_14 1_555 1_555
H7_14 C11_14 1_555 1_555
O3_14 Cu4_3 1_555 1_555
O6_8 C12_14 1_555 1_555
C12_14 O3_14 1_555 1_555
C13_14 C12_14 1_555 1_555
C14_14 C13_14 1_555 1_555
H8_14 C14_14 1_555 1_555
C15_14 C14_14 1_555 1_555
H9_14 C15_14 1_555 1_555
C16_14 C15_14 1_555 1_555
C17_14 C16_14 1_555 1_555
H10_14 C17_14 1_555 1_555
C18_14 C13_14 1_555 1_555
H11_14 C18_14 1_555 1_555
C19_14 C16_14 1_555 1_555
C20_14 C19_14 1_555 1_555
H12_14 C20_14 1_555 1_555
N3_14 C20_14 1_555 1_555
C21_14 N3_14 1_555 1_555
H13_14 C21_14 1_555 1_555
N4_14 Cu6_2 1_555 1_555
C22_14 C19_14 1_555 1_555
H14_14 C22_14 1_555 1_555
C6_14 C7_14 1_555 1_555
N6_9 C11_14 1_555 1_555
C17_14 C18_14 1_555 1_555
C21_14 N4_14 1_555 1_555
N4_14 C22_14 1_555 1_555
Cu4 O1_15 1_555 1_555
O1_15 C1_15 1_555 1_555
O5_9 C1_15 1_555 1_555
C1_15 C2_15 1_555 1_555
C2_15 C3_15 1_555 1_555
C3_15 H1_15 1_555 1_555
C4_15 C3_15 1_555 1_555
H2_15 C4_15 1_555 1_555
C5_15 C4_15 1_555 1_555
C6_15 C5_15 1_555 1_555
H3_15 C6_15 1_555 1_555
C7_15 C2_15 1_555 1_555
H4_15 C7_15 1_555 1_555
C8_15 C5_15 1_555 1_555
C9_15 C8_15 1_555 1_555
H5_15 C9_15 1_555 1_555
N5_2 C9_15 1_555 1_555
C10_15 N5_2 1_555 1_555
H6_15 C10_15 1_555 1_555
N6_7 C10_15 1_555 1_555
C11_15 C8_15 1_555 1_555
H7_15 C11_15 1_555 1_555
O3_15 Cu4 1_555 1_555
O6_9 C12_15 1_555 1_555
C12_15 O3_15 1_555 1_555
C13_15 C12_15 1_555 1_555
C14_15 C13_15 1_555 1_555
H8_15 C14_15 1_555 1_555
C15_15 C14_15 1_555 1_555
H9_15 C15_15 1_555 1_555
C16_15 C15_15 1_555 1_555
C17_15 C16_15 1_555 1_555
C18_15 C13_15 1_555 1_555
H11_15 C18_15 1_555 1_555
C6_15 C7_15 1_555 1_555
N6_7 C11_15 1_555 1_555
C17_15 C18_15 1_555 1_555
C20_15 C19_15 1_555 1_555
H12_15 C20_15 1_555 1_555
N3_15 C20_15 1_555 1_555
C21_15 N3_15 1_555 1_555
H13_15 C21_15 1_555 1_555
N4_15 Cu6_3 1_555 1_555
C22_15 C19_15 1_555 1_555
H14_15 C22_15 1_555 1_555
C21_15 N4_15 1_555 1_555
N4_15 C22_15 1_555 1_555
H2_16 C4_16 1_555 1_555
C5_16 C4_16 1_555 1_555
C6_16 C5_16 1_555 1_555
H3_16 C6_16 1_555 1_555
C8_16 C5_16 1_555 1_555
C9_16 C8_16 1_555 1_555
N5_9 C9_16 1_555 1_555
C10_16 N5_9 1_555 1_555
H6_16 C10_16 1_555 1_555
N6_5 C10_16 1_555 1_555
C11_16 C8_16 1_555 1_555
H7_16 C11_16 1_555 1_555
N6_5 C11_16 1_555 1_555
H8_16 C14_16 1_555 1_555
C15_16 C14_16 1_555 1_555
H9_16 C15_16 1_555 1_555
C16_16 C15_16 1_555 1_555
C19_16 C16_16 1_555 1_555
C20_16 C19_16 1_555 1_555
H12_16 C20_16 1_555 1_555
N3_16 C20_16 1_555 1_555
C21_16 N3_16 1_555 1_555
H13_16 C21_16 1_555 1_555
C22_16 C19_16 1_555 1_555
C21_16 N4_16 1_555 1_555
N4_16 C22_16 1_555 1_555
Cu3_4 O1_16 1_555 1_555
O1_16 C1_16 1_555 1_555
O5_4 C1_16 1_555 1_555
C1_16 C2_16 1_555 1_555
C2_16 C3_16 1_555 1_555
C3_16 H1_16 1_555 1_555
C7_16 C2_16 1_555 1_555
H4_16 C7_16 1_555 1_555
O3_16 Cu3_4 1_555 1_555
O6_4 C12_16 1_555 1_555
C12_16 O3_16 1_555 1_555
C13_16 C12_16 1_555 1_555
H10_16 C17_16 1_555 1_555
C18_16 C13_16 1_555 1_555
H11_16 C18_16 1_555 1_555
C17_16 C18_16 1_555 1_555
H8_17 C14_17 1_555 1_555
C15_17 C14_17 1_555 1_555
H9_17 C15_17 1_555 1_555
C16_17 C15_17 1_555 1_555
C19_17 C16_17 1_555 1_555
C20_17 C19_17 1_555 1_555
H12_17 C20_17 1_555 1_555
N3_17 C20_17 1_555 1_555
C21_17 N3_17 1_555 1_555
H13_17 C21_17 1_555 1_555
C22_17 C19_17 1_555 1_555
C21_17 N4_17 1_555 1_555
N4_17 C22_17 1_555 1_555
Cu3_5 O1_17 1_555 1_555
O1_17 C1_17 1_555 1_555
O5_5 C1_17 1_555 1_555
C1_17 C2_17 1_555 1_555
C2_17 C3_17 1_555 1_555
C3_17 H1_17 1_555 1_555
C7_17 C2_17 1_555 1_555
H4_17 C7_17 1_555 1_555
O3_17 Cu3_5 1_555 1_555
O6_5 C12_17 1_555 1_555
C12_17 O3_17 1_555 1_555
C13_17 C12_17 1_555 1_555
H10_17 C17_17 1_555 1_555
C18_17 C13_17 1_555 1_555
H11_17 C18_17 1_555 1_555
C17_17 C18_17 1_555 1_555
H2_17 C4_17 1_555 1_555
C5_17 C4_17 1_555 1_555
C6_17 C5_17 1_555 1_555
H3_17 C6_17 1_555 1_555
C8_17 C5_17 1_555 1_555
C9_17 C8_17 1_555 1_555
N5_7 C9_17 1_555 1_555
C10_17 N5_7 1_555 1_555
H6_17 C10_17 1_555 1_555
N6_6 C10_17 1_555 1_555
C11_17 C8_17 1_555 1_555
H7_17 C11_17 1_555 1_555
N6_6 C11_17 1_555 1_555
H8_18 C14_18 1_555 1_555
C15_18 C14_18 1_555 1_555
H9_18 C15_18 1_555 1_555
C16_18 C15_18 1_555 1_555
C19_18 C16_18 1_555 1_555
C20_18 C19_18 1_555 1_555
H12_18 C20_18 1_555 1_555
N3_18 C20_18 1_555 1_555
C21_18 N3_18 1_555 1_555
H13_18 C21_18 1_555 1_555
C22_18 C19_18 1_555 1_555
C21_18 N4_18 1_555 1_555
N4_18 C22_18 1_555 1_555
Cu3_6 O1_18 1_555 1_555
O1_18 C1_18 1_555 1_555
O5_6 C1_18 1_555 1_555
C1_18 C2_18 1_555 1_555
C2_18 C3_18 1_555 1_555
C3_18 H1_18 1_555 1_555
C4_18 C3_18 1_555 1_555
H2_18 C4_18 1_555 1_555
C5_18 C4_18 1_555 1_555
C6_18 C5_18 1_555 1_555
H3_18 C6_18 1_555 1_555
C7_18 C2_18 1_555 1_555
H4_18 C7_18 1_555 1_555
C8_18 C5_18 1_555 1_555
C9_18 C8_18 1_555 1_555
N5_8 C9_18 1_555 1_555
C10_18 N5_8 1_555 1_555
H6_18 C10_18 1_555 1_555
N6_4 C10_18 1_555 1_555
C11_18 C8_18 1_555 1_555
H7_18 C11_18 1_555 1_555
O3_18 Cu3_6 1_555 1_555
O6_6 C12_18 1_555 1_555
C12_18 O3_18 1_555 1_555
C13_18 C12_18 1_555 1_555
H10_18 C17_18 1_555 1_555
C18_18 C13_18 1_555 1_555
H11_18 C18_18 1_555 1_555
C6_18 C7_18 1_555 1_555
N6_4 C11_18 1_555 1_555
C17_18 C18_18 1_555 1_555

#END
