
###############################################################################
#
# This file contains modified crystal structure data generated from the
# MOF subset of the Cambridge Structural Database (CSD) v543 
# hosted by the Cambridge Crystallographic Data Centre (CCDC).
#
# This work is licensed under the Creative Commons
# Attribution-NonCommercial-ShareAlike 4.0 International License.
# To view a copy of this license, visit
# http://creativecommons.org/licenses/by-nc-sa/4.0/
# or send a letter to
# Creative Commons, PO Box 1866, Mountain View, CA 94042, USA.
#
# CIF created using the CSD Python API on 29 September 2022
# The structure has been converted into the P1 space group
# The structure has a 3D framework
# The original CSD entry KAFCUT is in the tetragonal crystal system
# The framework has been calculated to contain at least 10.0% void space
# The void calculation uses a probe of radius 1.32A, grid spacing 0.4
# The framework is charged, counterions have been retained in the structure
#
###############################################################################

data_KAFCUT
_chemical_formula_moiety         '(C208 H128 N48 O32 Tb8 8+)n'
_symmetry_cell_setting           triclinic
_symmetry_space_group_name_H-M   'P 1'
_symmetry_Int_Tables_number      1
_space_group_name_Hall           'P 1'
loop_
_symmetry_equiv_pos_site_id
_symmetry_equiv_pos_as_xyz
1 x,y,z
_cell_length_a                   16.3876(10)
_cell_length_b                   16.3876(10)
_cell_length_c                   22.027(2)
_cell_angle_alpha                90
_cell_angle_beta                 90
_cell_angle_gamma                90
_cell_volume                     5915.43
loop_
_atom_site_label
_atom_site_type_symbol
_atom_site_fract_x
_atom_site_fract_y
_atom_site_fract_z
Tb1 Tb 0.0000 0.2500 0.02620(2)
H8 H 0.1276 0.4241 0.0380
O5 O 0.0204(4) 0.1151(4) 0.0609(3)
O8 O 0.1056(4) 0.2675(4) 0.0904(3)
N1 N 0.0729(5) 0.1899(4) 0.9352(4)
N2 N 0.1283(8) 0.2097(6) 0.8450(5)
H1 H 0.1534 0.2338 0.8158
N3 N 0.1153(5) 0.3406(5) 0.9751(4)
C3 C 0.0267(6) 0.0455(5) 0.9150(4)
H2 H 0.0047 0.0359 0.9533
C4 C 0.0617(6) 0.1203(5) 0.9007(4)
C5 C 0.0960(8) 0.1326(7) 0.8438(5)
C6 C 0.0937(10) 0.0732(8) 0.7975(6)
H3 H 0.1155 0.0829 0.7592
C7 C 0.0580(8) 0.0012(7) 0.8121(5)
C8 C 0.1138(8) 0.2406(7) 0.8998(5)
C9 C 0.1407(8) 0.3212(7) 0.9191(6)
C10 C 0.1909(16) 0.3701(13) 0.8856(10)
H5 H 0.2094 0.3538 0.8476
C11 C 0.2134(14) 0.4442(12) 0.9098(10)
H6 H 0.2424 0.4816 0.8864
C12 C 0.1928(15) 0.4624(11) 0.9681(9)
H7 H 0.2124 0.5095 0.9867
C13 C 0.1431(8) 0.4105(7) 0.9987(6)
O3 O 0.0204(4) 0.6151(4) 0.9391(3)
O4 O 0.0175(4) 0.6444(4) 0.8404(3)
C14 C 0.0073(6) 0.5966(5) 0.8845(4)
Tb3 Tb -0.0000 0.7500 0.77620(2)
Tb5 Tb -0.0000 0.7500 0.97380(2)
C2 C 0.0257(6) 0.9863(5) 0.8707(4)
H4 H 0.0547 0.9605 0.7829
Tb1_2 Tb 1.0000 0.2500 0.02620(2)
H16 H 0.8724 0.0759 0.0380
O6 O 0.9796(4) 0.3849(4) 0.0609(3)
O7 O 0.8944(4) 0.2325(4) 0.0904(3)
N4 N 0.9271(5) 0.3101(4) 0.9352(4)
N5 N 0.8717(8) 0.2903(6) 0.8450(5)
H9 H 0.8466 0.2662 0.8158
N6 N 0.8847(5) 0.1594(5) 0.9751(4)
C15 C 0.9743(6) 0.5137(5) 0.8707(4)
C16 C 0.9733(6) 0.4545(5) 0.9150(4)
H10 H 0.9953 0.4641 0.9533
C17 C 0.9383(6) 0.3797(5) 0.9007(4)
C18 C 0.9040(8) 0.3674(7) 0.8438(5)
C19 C 0.9063(10) 0.4268(8) 0.7975(6)
H11 H 0.8845 0.4171 0.7592
C20 C 0.9420(8) 0.4988(7) 0.8121(5)
H12 H 0.9453 0.5395 0.7829
C21 C 0.8862(8) 0.2594(7) 0.8998(5)
C22 C 0.8593(8) 0.1788(7) 0.9191(6)
C23 C 0.8091(16) 0.1299(13) 0.8856(10)
H13 H 0.7906 0.1462 0.8476
C24 C 0.7866(14) 0.0558(12) 0.9098(10)
H14 H 0.7576 0.0184 0.8864
C25 C 0.8072(15) 0.0376(11) 0.9681(9)
C26 C 0.8569(8) 0.0895(7) 0.9987(6)
Tb3_2 Tb 1.0000 0.7500 0.77620(2)
Tb5_2 Tb 1.0000 0.7500 0.97380(2)
O1 O 0.9796(4) 0.8849(4) 0.9391(3)
O2 O 0.9825(4) 0.8556(4) 0.8404(3)
C1 C 0.9927(6) 0.9034(5) 0.8845(4)
H15 H 0.7876 0.9905 0.9867
O1_2 O 0.5204(4) 0.1151(4) 0.4391(3)
O2_2 O 0.5175(4) 0.1444(4) 0.3404(3)
C1_2 C 0.5073(6) 0.0966(5) 0.3845(4)
C2_2 C 0.4743(6) 0.0137(5) 0.3707(4)
H4_2 H 0.4453 0.0395 0.2829
H15_2 H 0.7124 0.0095 0.4867
Tb2 Tb 0.5000 0.2500 0.27620(2)
Tb4 Tb 0.5000 0.2500 0.47380(2)
Tb1_3 Tb 0.5000 0.7500 0.52620(2)
N1_2 N 0.4271(5) 0.8101(4) 0.4352(4)
N2_2 N 0.3717(8) 0.7903(6) 0.3450(5)
H1_2 H 0.3466 0.7662 0.3158
N3_2 N 0.3847(5) 0.6594(5) 0.4751(4)
C3_2 C 0.4733(6) 0.9545(5) 0.4150(4)
H2_2 H 0.4953 0.9641 0.4533
C4_2 C 0.4383(6) 0.8797(5) 0.4007(4)
C5_2 C 0.4040(8) 0.8674(7) 0.3438(5)
C6_2 C 0.4063(10) 0.9268(8) 0.2975(6)
H3_2 H 0.3845 0.9171 0.2592
C7_2 C 0.4420(8) 0.9988(7) 0.3121(5)
C8_2 C 0.3862(8) 0.7594(7) 0.3998(5)
C9_2 C 0.3593(8) 0.6788(7) 0.4191(6)
C10_2 C 0.3091(16) 0.6299(13) 0.3856(10)
H5_2 H 0.2906 0.6462 0.3476
C11_2 C 0.2866(14) 0.5558(12) 0.4098(10)
H6_2 H 0.2576 0.5184 0.3864
C12_2 C 0.3072(15) 0.5376(11) 0.4681(9)
H7_2 H 0.2876 0.4905 0.4867
C13_2 C 0.3569(8) 0.5895(7) 0.4987(6)
H8_2 H 0.3724 0.5759 0.5380
O3_2 O 0.4796(4) 0.3849(4) 0.4391(3)
O4_2 O 0.4825(4) 0.3556(4) 0.3404(3)
N4_2 N 0.5729(5) 0.6899(4) 0.4352(4)
N5_2 N 0.6283(8) 0.7097(6) 0.3450(5)
H9_2 H 0.6534 0.7338 0.3158
N6_2 N 0.6153(5) 0.8406(5) 0.4751(4)
C14_2 C 0.4927(6) 0.4034(5) 0.3845(4)
C15_2 C 0.5257(6) 0.4863(5) 0.3707(4)
C16_2 C 0.5267(6) 0.5455(5) 0.4150(4)
H10_2 H 0.5047 0.5359 0.4533
C17_2 C 0.5617(6) 0.6203(5) 0.4007(4)
C18_2 C 0.5960(8) 0.6326(7) 0.3438(5)
C19_2 C 0.5937(10) 0.5732(8) 0.2975(6)
H11_2 H 0.6155 0.5829 0.2592
C20_2 C 0.5580(8) 0.5012(7) 0.3121(5)
H12_2 H 0.5547 0.4605 0.2829
C21_2 C 0.6138(8) 0.7406(7) 0.3998(5)
C22_2 C 0.6407(8) 0.8212(7) 0.4191(6)
C23_2 C 0.6909(16) 0.8701(13) 0.3856(10)
H13_2 H 0.7094 0.8538 0.3476
C24_2 C 0.7134(14) 0.9442(12) 0.4098(10)
H14_2 H 0.7424 0.9816 0.3864
C25_2 C 0.6928(15) 0.9624(11) 0.4681(9)
C26_2 C 0.6431(8) 0.9105(7) 0.4987(6)
H16_2 H 0.6276 0.9241 0.5380
O5_2 O 0.4796(4) 0.8849(4) 0.5609(3)
O6_2 O 0.5204(4) 0.6151(4) 0.5609(3)
O7_2 O 0.6056(4) 0.7675(4) 0.5904(3)
O8_2 O 0.3944(4) 0.7325(4) 0.5904(3)
Tb4_2 Tb -0.0000 0.2500 0.22380(2)
O1_3 O 0.8651(4) 0.2296(4) 0.1891(3)
N1_3 N 0.5601(4) 0.3229(5) 0.1852(4)
N2_3 N 0.5403(6) 0.3783(8) 0.0950(5)
H1_3 H 0.5162 0.4034 0.0658
N3_3 N 0.4094(5) 0.3653(5) 0.2251(4)
C1_3 C 0.8466(5) 0.2427(6) 0.1345(4)
C2_3 C 0.7637(5) 0.2757(6) 0.1207(4)
C3_3 C 0.7045(5) 0.2767(6) 0.1650(4)
H2_3 H 0.7141 0.2547 0.2033
C4_3 C 0.6297(5) 0.3117(6) 0.1507(4)
C5_3 C 0.6174(7) 0.3460(8) 0.0938(5)
C6_3 C 0.6768(8) 0.3437(10) 0.0475(6)
H3_3 H 0.6671 0.3655 0.0092
C7_3 C 0.7488(7) 0.3080(8) 0.0621(5)
H4_3 H 0.7895 0.3047 0.0329
C8_3 C 0.5094(7) 0.3638(8) 0.1498(5)
C9_3 C 0.4288(7) 0.3907(8) 0.1691(6)
C10_3 C 0.3799(13) 0.4409(16) 0.1356(10)
H5_3 H 0.3962 0.4594 0.0976
C11_3 C 0.3058(12) 0.4634(14) 0.1598(10)
H6_3 H 0.2684 0.4924 0.1364
C12_3 C 0.2876(11) 0.4428(15) 0.2181(9)
H7_3 H 0.2405 0.4624 0.2367
C13_3 C 0.3395(7) 0.3931(8) 0.2487(6)
H8_3 H 0.3259 0.3776 0.2880
O3_3 O 0.1349(4) 0.2704(4) 0.1891(3)
N4_3 N 0.4399(4) 0.1771(5) 0.1852(4)
N5_3 N 0.4597(6) 0.1217(8) 0.0950(5)
H9_3 H 0.4838 0.0966 0.0658
N6_3 N 0.5906(5) 0.1347(5) 0.2251(4)
C14_3 C 0.1534(5) 0.2573(6) 0.1345(4)
C15_3 C 0.2363(5) 0.2243(6) 0.1207(4)
C16_3 C 0.2955(5) 0.2233(6) 0.1650(4)
H10_3 H 0.2859 0.2453 0.2033
C17_3 C 0.3703(5) 0.1883(6) 0.1507(4)
C18_3 C 0.3826(7) 0.1540(8) 0.0938(5)
C19_3 C 0.3232(8) 0.1563(10) 0.0475(6)
H11_3 H 0.3329 0.1345 0.0092
C20_3 C 0.2512(7) 0.1920(8) 0.0621(5)
H12_3 H 0.2105 0.1953 0.0329
C21_3 C 0.4906(7) 0.1362(8) 0.1498(5)
C22_3 C 0.5712(7) 0.1093(8) 0.1691(6)
C23_3 C 0.6201(13) 0.0591(16) 0.1356(10)
H13_3 H 0.6038 0.0406 0.0976
C24_3 C 0.6942(12) 0.0366(14) 0.1598(10)
H14_3 H 0.7316 0.0076 0.1364
C25_3 C 0.7124(11) 0.0572(15) 0.2181(9)
H15_3 H 0.7595 0.0376 0.2367
C26_3 C 0.6605(7) 0.1069(8) 0.2487(6)
H16_3 H 0.6741 0.1224 0.2880
Tb4_3 Tb 1.0000 0.2500 0.22380(2)
O5_3 O 0.6349(4) 0.2704(4) 0.3109(3)
O6_3 O 0.3651(4) 0.2296(4) 0.3109(3)
N3_4 N 0.0906(5) 0.6347(5) 0.7251(4)
C9_4 C 0.0712(7) 0.6093(8) 0.6691(6)
C10_4 C 0.1201(13) 0.5591(16) 0.6356(10)
H5_4 H 0.1038 0.5406 0.5976
C11_4 C 0.1942(12) 0.5366(14) 0.6598(10)
H6_4 H 0.2316 0.5076 0.6364
C12_4 C 0.2124(11) 0.5572(15) 0.7181(9)
H7_4 H 0.2595 0.5376 0.7367
C13_4 C 0.1605(7) 0.6069(8) 0.7487(6)
H8_4 H 0.1741 0.6224 0.7880
O3_4 O 0.3651(4) 0.7296(4) 0.6891(3)
N4_4 N 0.0601(4) 0.8229(5) 0.6852(4)
N5_4 N 0.0403(6) 0.8783(8) 0.5950(5)
H9_4 H 0.0162 0.9034 0.5658
C14_4 C 0.3466(5) 0.7427(6) 0.6345(4)
C15_4 C 0.2637(5) 0.7757(6) 0.6207(4)
C16_4 C 0.2045(5) 0.7767(6) 0.6650(4)
H10_4 H 0.2141 0.7547 0.7033
C17_4 C 0.1297(5) 0.8117(6) 0.6507(4)
C18_4 C 0.1174(7) 0.8460(8) 0.5938(5)
C19_4 C 0.1768(8) 0.8437(10) 0.5475(6)
H11_4 H 0.1671 0.8655 0.5092
C20_4 C 0.2488(7) 0.8080(8) 0.5621(5)
H12_4 H 0.2895 0.8047 0.5329
C21_4 C 0.0094(7) 0.8638(8) 0.6498(5)
Tb5_3 Tb 0.5000 0.7500 0.72380(2)
O6_4 O 0.1349(4) 0.7704(4) 0.8109(3)
O1_4 O 0.6349(4) 0.7704(4) 0.6891(3)
N1_4 N 0.9399(4) 0.6771(5) 0.6852(4)
N2_4 N 0.9597(6) 0.6217(8) 0.5950(5)
H1_4 H 0.9838 0.5966 0.5658
C1_4 C 0.6534(5) 0.7573(6) 0.6345(4)
C2_4 C 0.7363(5) 0.7243(6) 0.6207(4)
C3_4 C 0.7955(5) 0.7233(6) 0.6650(4)
H2_4 H 0.7859 0.7453 0.7033
C4_4 C 0.8703(5) 0.6883(6) 0.6507(4)
C5_4 C 0.8826(7) 0.6540(8) 0.5938(5)
C6_4 C 0.8232(8) 0.6563(10) 0.5475(6)
H3_4 H 0.8329 0.6345 0.5092
C7_4 C 0.7512(7) 0.6920(8) 0.5621(5)
H4_4 H 0.7105 0.6953 0.5329
C8_4 C 0.9906(7) 0.6362(8) 0.6498(5)
N6_4 N 0.9094(5) 0.8653(5) 0.7251(4)
C22_4 C 0.9288(7) 0.8907(8) 0.6691(6)
C23_4 C 0.8799(13) 0.9409(16) 0.6356(10)
H13_4 H 0.8962 0.9594 0.5976
C24_4 C 0.8058(12) 0.9634(14) 0.6598(10)
H14_4 H 0.7684 0.9924 0.6364
C25_4 C 0.7876(11) 0.9428(15) 0.7181(9)
H15_4 H 0.7405 0.9624 0.7367
C26_4 C 0.8395(7) 0.8931(8) 0.7487(6)
H16_4 H 0.8259 0.8776 0.7880
O5_4 O 0.8651(4) 0.7296(4) 0.8109(3)
O2_3 O 0.0175(4) 0.1444(4) 0.1596(3)
C1_5 C 0.0073(6) 0.0966(5) 0.1155(4)
H15_5 H 0.2124 0.0095 0.0133
N4_5 N 0.0729(5) 0.6899(4) 0.0648(4)
N5_5 N 0.1283(8) 0.7097(6) 0.1550(5)
H9_5 H 0.1534 0.7338 0.1842
N6_5 N 0.1153(5) 0.8406(5) 0.0249(4)
C15_5 C 0.0257(6) 0.4863(5) 0.1293(4)
C16_5 C 0.0267(6) 0.5455(5) 0.0850(4)
H10_5 H 0.0047 0.5359 0.0467
C17_5 C 0.0617(6) 0.6203(5) 0.0993(4)
C18_5 C 0.0960(8) 0.6326(7) 0.1562(5)
C19_5 C 0.0937(10) 0.5732(8) 0.2025(6)
H11_5 H 0.1155 0.5829 0.2408
C20_5 C 0.0580(8) 0.5012(7) 0.1879(5)
H12_5 H 0.0547 0.4605 0.2171
C21_5 C 0.1138(8) 0.7406(7) 0.1002(5)
C22_5 C 0.1407(8) 0.8212(7) 0.0809(6)
C23_5 C 0.1909(16) 0.8701(13) 0.1144(10)
H13_5 H 0.2094 0.8538 0.1524
C24_5 C 0.2134(14) 0.9442(12) 0.0902(10)
H14_5 H 0.2424 0.9816 0.1136
C25_5 C 0.1928(15) 0.9624(11) 0.0319(9)
C26_5 C 0.1431(8) 0.9105(7) 0.0013(6)
H16_5 H 0.1276 0.9241 0.9620
O7_3 O 0.1056(4) 0.7675(4) 0.9096(3)
C2_5 C 0.9743(6) 0.0137(5) 0.1293(4)
H4_5 H 0.9453 0.0395 0.2171
N1_5 N 0.9271(5) 0.8101(4) 0.0648(4)
N2_5 N 0.8717(8) 0.7903(6) 0.1550(5)
H1_5 H 0.8466 0.7662 0.1842
N3_5 N 0.8847(5) 0.6594(5) 0.0249(4)
C3_5 C 0.9733(6) 0.9545(5) 0.0850(4)
H2_5 H 0.9953 0.9641 0.0467
C4_5 C 0.9383(6) 0.8797(5) 0.0993(4)
C5_5 C 0.9040(8) 0.8674(7) 0.1562(5)
C6_5 C 0.9063(10) 0.9268(8) 0.2025(6)
H3_5 H 0.8845 0.9171 0.2408
C7_5 C 0.9420(8) 0.9988(7) 0.1879(5)
C8_5 C 0.8862(8) 0.7594(7) 0.1002(5)
C9_5 C 0.8593(8) 0.6788(7) 0.0809(6)
C10_5 C 0.8091(16) 0.6299(13) 0.1144(10)
H5_5 H 0.7906 0.6462 0.1524
C11_5 C 0.7866(14) 0.5558(12) 0.0902(10)
H6_5 H 0.7576 0.5184 0.1136
C12_5 C 0.8072(15) 0.5376(11) 0.0319(9)
H7_5 H 0.7876 0.4905 0.0133
C13_5 C 0.8569(8) 0.5895(7) 0.0013(6)
O4_3 O 0.9825(4) 0.3556(4) 0.1596(3)
C14_5 C 0.9927(6) 0.4034(5) 0.1155(4)
H8_5 H 0.8724 0.5759 0.9620
O8_3 O 0.8944(4) 0.7325(4) 0.9096(3)
N1_6 N 0.5729(5) 0.1899(4) 0.5648(4)
N2_6 N 0.6283(8) 0.2097(6) 0.6550(5)
H1_6 H 0.6534 0.2338 0.6842
N3_6 N 0.6153(5) 0.3406(5) 0.5249(4)
C3_6 C 0.5267(6) 0.0455(5) 0.5850(4)
H2_6 H 0.5047 0.0359 0.5467
C4_6 C 0.5617(6) 0.1203(5) 0.5993(4)
C5_6 C 0.5960(8) 0.1326(7) 0.6562(5)
C6_6 C 0.5937(10) 0.0732(8) 0.7025(6)
H3_6 H 0.6155 0.0829 0.7408
C7_6 C 0.5580(8) 0.0012(7) 0.6879(5)
C8_6 C 0.6138(8) 0.2406(7) 0.6002(5)
C9_6 C 0.6407(8) 0.3212(7) 0.5809(6)
C10_6 C 0.6909(16) 0.3701(13) 0.6144(10)
H5_6 H 0.7094 0.3538 0.6524
C11_6 C 0.7134(14) 0.4442(12) 0.5902(10)
H6_6 H 0.7424 0.4816 0.6136
C12_6 C 0.6928(15) 0.4624(11) 0.5319(9)
H7_6 H 0.7124 0.5095 0.5133
C13_6 C 0.6431(8) 0.4105(7) 0.5013(6)
H8_6 H 0.6276 0.4241 0.4620
O4_4 O 0.5175(4) 0.6444(4) 0.6596(3)
N4_6 N 0.4271(5) 0.3101(4) 0.5648(4)
N5_6 N 0.3717(8) 0.2903(6) 0.6550(5)
H9_6 H 0.3466 0.2662 0.6842
N6_6 N 0.3847(5) 0.1594(5) 0.5249(4)
C14_6 C 0.5073(6) 0.5966(5) 0.6155(4)
C15_6 C 0.4743(6) 0.5137(5) 0.6293(4)
C16_6 C 0.4733(6) 0.4545(5) 0.5850(4)
H10_6 H 0.4953 0.4641 0.5467
C17_6 C 0.4383(6) 0.3797(5) 0.5993(4)
C18_6 C 0.4040(8) 0.3674(7) 0.6562(5)
C19_6 C 0.4063(10) 0.4268(8) 0.7025(6)
H11_6 H 0.3845 0.4171 0.7408
C20_6 C 0.4420(8) 0.4988(7) 0.6879(5)
H12_6 H 0.4453 0.5395 0.7171
C21_6 C 0.3862(8) 0.2594(7) 0.6002(5)
C22_6 C 0.3593(8) 0.1788(7) 0.5809(6)
C23_6 C 0.3091(16) 0.1299(13) 0.6144(10)
H13_6 H 0.2906 0.1462 0.6524
C24_6 C 0.2866(14) 0.0558(12) 0.5902(10)
H14_6 H 0.2576 0.0184 0.6136
C25_6 C 0.3072(15) 0.0376(11) 0.5319(9)
C26_6 C 0.3569(8) 0.0895(7) 0.5013(6)
H16_6 H 0.3724 0.0759 0.4620
O7_4 O 0.3944(4) 0.2325(4) 0.4096(3)
O8_4 O 0.6056(4) 0.2675(4) 0.4096(3)
O2_4 O 0.4825(4) 0.8556(4) 0.6596(3)
C1_6 C 0.4927(6) 0.9034(5) 0.6155(4)
C2_6 C 0.5257(6) 0.9863(5) 0.6293(4)
H4_6 H 0.5547 0.9605 0.7171
H15_6 H 0.2876 0.9905 0.5133
N1_7 N 0.4399(4) 0.6771(5) 0.8148(4)
N2_7 N 0.4597(6) 0.6217(8) 0.9050(5)
H1_7 H 0.4838 0.5966 0.9342
N3_7 N 0.5906(5) 0.6347(5) 0.7749(4)
C1_7 C 0.1534(5) 0.7573(6) 0.8655(4)
C2_7 C 0.2363(5) 0.7243(6) 0.8793(4)
C3_7 C 0.2955(5) 0.7233(6) 0.8350(4)
H2_7 H 0.2859 0.7453 0.7967
C4_7 C 0.3703(5) 0.6883(6) 0.8493(4)
C5_7 C 0.3826(7) 0.6540(8) 0.9062(5)
C6_7 C 0.3232(8) 0.6563(10) 0.9525(6)
H3_7 H 0.3329 0.6345 0.9908
C7_7 C 0.2512(7) 0.6920(8) 0.9379(5)
H4_7 H 0.2105 0.6953 0.9671
C8_7 C 0.4906(7) 0.6362(8) 0.8502(5)
C9_7 C 0.5712(7) 0.6093(8) 0.8309(6)
C10_7 C 0.6201(13) 0.5591(16) 0.8644(10)
H5_7 H 0.6038 0.5406 0.9024
C11_7 C 0.6942(12) 0.5366(14) 0.8402(10)
H6_7 H 0.7316 0.5076 0.8636
C12_7 C 0.7124(11) 0.5572(15) 0.7819(9)
H7_7 H 0.7595 0.5376 0.7633
C13_7 C 0.6605(7) 0.6069(8) 0.7513(6)
H8_7 H 0.6741 0.6224 0.7120
N4_7 N 0.5601(4) 0.8229(5) 0.8148(4)
N5_7 N 0.5403(6) 0.8783(8) 0.9050(5)
H9_7 H 0.5162 0.9034 0.9342
N6_7 N 0.4094(5) 0.8653(5) 0.7749(4)
C14_7 C 0.8466(5) 0.7427(6) 0.8655(4)
C15_7 C 0.7637(5) 0.7757(6) 0.8793(4)
C16_7 C 0.7045(5) 0.7767(6) 0.8350(4)
H10_7 H 0.7141 0.7547 0.7967
C17_7 C 0.6297(5) 0.8117(6) 0.8493(4)
C18_7 C 0.6174(7) 0.8460(8) 0.9062(5)
C19_7 C 0.6768(8) 0.8437(10) 0.9525(6)
H11_7 H 0.6671 0.8655 0.9908
C20_7 C 0.7488(7) 0.8080(8) 0.9379(5)
H12_7 H 0.7895 0.8047 0.9671
C21_7 C 0.5094(7) 0.8638(8) 0.8502(5)
C22_7 C 0.4288(7) 0.8907(8) 0.8309(6)
C23_7 C 0.3799(13) 0.9409(16) 0.8644(10)
H13_7 H 0.3962 0.9594 0.9024
C24_7 C 0.3058(12) 0.9634(14) 0.8402(10)
H14_7 H 0.2684 0.9924 0.8636
C25_7 C 0.2876(11) 0.9428(15) 0.7819(9)
H15_7 H 0.2405 0.9624 0.7633
C26_7 C 0.3395(7) 0.8931(8) 0.7513(6)
H16_7 H 0.3259 0.8776 0.7120
N1_8 N 0.0601(4) 0.3229(5) 0.3148(4)
N2_8 N 0.0403(6) 0.3783(8) 0.4050(5)
H1_8 H 0.0162 0.4034 0.4342
C1_8 C 0.3466(5) 0.2427(6) 0.3655(4)
C2_8 C 0.2637(5) 0.2757(6) 0.3793(4)
C3_8 C 0.2045(5) 0.2767(6) 0.3350(4)
H2_8 H 0.2141 0.2547 0.2967
C4_8 C 0.1297(5) 0.3117(6) 0.3493(4)
C5_8 C 0.1174(7) 0.3460(8) 0.4062(5)
C6_8 C 0.1768(8) 0.3437(10) 0.4525(6)
H3_8 H 0.1671 0.3655 0.4908
C7_8 C 0.2488(7) 0.3080(8) 0.4379(5)
H4_8 H 0.2895 0.3047 0.4671
C8_8 C 0.0094(7) 0.3638(8) 0.3502(5)
N6_8 N 0.0906(5) 0.1347(5) 0.2749(4)
C22_8 C 0.0712(7) 0.1093(8) 0.3309(6)
C23_8 C 0.1201(13) 0.0591(16) 0.3644(10)
H13_8 H 0.1038 0.0406 0.4024
C24_8 C 0.1942(12) 0.0366(14) 0.3402(10)
H14_8 H 0.2316 0.0076 0.3636
C25_8 C 0.2124(11) 0.0572(15) 0.2819(9)
H15_8 H 0.2595 0.0376 0.2633
C26_8 C 0.1605(7) 0.1069(8) 0.2513(6)
H16_8 H 0.1741 0.1224 0.2120
N3_8 N 0.9094(5) 0.3653(5) 0.2749(4)
C9_8 C 0.9288(7) 0.3907(8) 0.3309(6)
C10_8 C 0.8799(13) 0.4409(16) 0.3644(10)
H5_8 H 0.8962 0.4594 0.4024
C11_8 C 0.8058(12) 0.4634(14) 0.3402(10)
H6_8 H 0.7684 0.4924 0.3636
C12_8 C 0.7876(11) 0.4428(15) 0.2819(9)
H7_8 H 0.7405 0.4624 0.2633
C13_8 C 0.8395(7) 0.3931(8) 0.2513(6)
H8_8 H 0.8259 0.3776 0.2120
N4_8 N 0.9399(4) 0.1771(5) 0.3148(4)
N5_8 N 0.9597(6) 0.1217(8) 0.4050(5)
H9_8 H 0.9838 0.0966 0.4342
C14_8 C 0.6534(5) 0.2573(6) 0.3655(4)
C15_8 C 0.7363(5) 0.2243(6) 0.3793(4)
C16_8 C 0.7955(5) 0.2233(6) 0.3350(4)
H10_8 H 0.7859 0.2453 0.2967
C17_8 C 0.8703(5) 0.1883(6) 0.3493(4)
C18_8 C 0.8826(7) 0.1540(8) 0.4062(5)
C19_8 C 0.8232(8) 0.1563(10) 0.4525(6)
H11_8 H 0.8329 0.1345 0.4908
C20_8 C 0.7512(7) 0.1920(8) 0.4379(5)
H12_8 H 0.7105 0.1953 0.4671
C21_8 C 0.9906(7) 0.1362(8) 0.3502(5)
loop_
_geom_bond_atom_site_label_1
_geom_bond_atom_site_label_2
_geom_bond_site_symmetry_1
_geom_bond_site_symmetry_2
O5 Tb1 1_555 1_555
O8 Tb1 1_555 1_555
N1 C4 1_555 1_555
N2 H1 1_555 1_555
C3 H2 1_555 1_555
C4 C3 1_555 1_555
C5 N2 1_555 1_555
C6 C5 1_555 1_555
H3 C6 1_555 1_555
C8 N1 1_555 1_555
C9 N3 1_555 1_555
C10 C9 1_555 1_555
H5 C10 1_555 1_555
C11 C10 1_555 1_555
H6 C11 1_555 1_555
C12 C11 1_555 1_555
H7 C12 1_555 1_555
C13 N3 1_555 1_555
O3 C14 1_555 1_555
O4 C14 1_555 1_555
Tb3 O4 1_555 1_555
Tb5 O3 1_555 1_555
N2 C8 1_555 1_555
C4 C5 1_555 1_555
C6 C7 1_555 1_555
C8 C9 1_555 1_555
C12 C13 1_555 1_555
O6 Tb1_2 1_555 1_555
O7 Tb1_2 1_555 1_555
N5 H9 1_555 1_555
C15 C16 1_555 1_555
C16 H10 1_555 1_555
C17 N4 1_555 1_555
C18 N5 1_555 1_555
C19 C18 1_555 1_555
H11 C19 1_555 1_555
C20 C15 1_555 1_555
H12 C20 1_555 1_555
C21 N4 1_555 1_555
C22 N6 1_555 1_555
C23 C22 1_555 1_555
H13 C23 1_555 1_555
C24 C23 1_555 1_555
H14 C24 1_555 1_555
C25 C24 1_555 1_555
C26 N6 1_555 1_555
N5 C21 1_555 1_555
C16 C17 1_555 1_555
C17 C18 1_555 1_555
C19 C20 1_555 1_555
C21 C22 1_555 1_555
C25 C26 1_555 1_555
O1 C1 1_555 1_555
O2 C1 1_555 1_555
Tb3_2 O2 1_555 1_555
Tb5_2 O1 1_555 1_555
O1_2 C1_2 1_555 1_555
O2_2 C1_2 1_555 1_555
C1_2 C2_2 1_555 1_555
Tb2 O2_2 1_555 1_555
Tb4 O1_2 1_555 1_555
Tb1_3 N1_2 1_555 1_555
N1_2 C4_2 1_555 1_555
N2_2 H1_2 1_555 1_555
N3_2 Tb1_3 1_555 1_555
C3_2 H2_2 1_555 1_555
C4_2 C3_2 1_555 1_555
C5_2 N2_2 1_555 1_555
C6_2 C5_2 1_555 1_555
H3_2 C6_2 1_555 1_555
C8_2 N1_2 1_555 1_555
C9_2 N3_2 1_555 1_555
C10_2 C9_2 1_555 1_555
H5_2 C10_2 1_555 1_555
C11_2 C10_2 1_555 1_555
H6_2 C11_2 1_555 1_555
C12_2 C11_2 1_555 1_555
H7_2 C12_2 1_555 1_555
C13_2 N3_2 1_555 1_555
H8_2 C13_2 1_555 1_555
O3_2 C14_2 1_555 1_555
O4_2 C14_2 1_555 1_555
N4_2 Tb1_3 1_555 1_555
N5_2 H9_2 1_555 1_555
N6_2 Tb1_3 1_555 1_555
C14_2 C15_2 1_555 1_555
C15_2 C16_2 1_555 1_555
C16_2 H10_2 1_555 1_555
C17_2 N4_2 1_555 1_555
C18_2 N5_2 1_555 1_555
C19_2 C18_2 1_555 1_555
H11_2 C19_2 1_555 1_555
C20_2 C15_2 1_555 1_555
H12_2 C20_2 1_555 1_555
C21_2 N4_2 1_555 1_555
C22_2 N6_2 1_555 1_555
C23_2 C22_2 1_555 1_555
H13_2 C23_2 1_555 1_555
C24_2 C23_2 1_555 1_555
H14_2 C24_2 1_555 1_555
C25_2 C24_2 1_555 1_555
C26_2 N6_2 1_555 1_555
H16_2 C26_2 1_555 1_555
Tb2 O4_2 1_555 1_555
Tb4 O3_2 1_555 1_555
O5_2 Tb1_3 1_555 1_555
O6_2 Tb1_3 1_555 1_555
O7_2 Tb1_3 1_555 1_555
O8_2 Tb1_3 1_555 1_555
N2_2 C8_2 1_555 1_555
C4_2 C5_2 1_555 1_555
C6_2 C7_2 1_555 1_555
C8_2 C9_2 1_555 1_555
C12_2 C13_2 1_555 1_555
N5_2 C21_2 1_555 1_555
C16_2 C17_2 1_555 1_555
C17_2 C18_2 1_555 1_555
C19_2 C20_2 1_555 1_555
C21_2 C22_2 1_555 1_555
C25_2 C26_2 1_555 1_555
Tb2 N1_3 1_555 1_555
O1_3 C1_3 1_555 1_555
O7 C1_3 1_555 1_555
N1_3 C4_3 1_555 1_555
N2_3 H1_3 1_555 1_555
N3_3 Tb2 1_555 1_555
C1_3 C2_3 1_555 1_555
C2_3 C3_3 1_555 1_555
C3_3 H2_3 1_555 1_555
C4_3 C3_3 1_555 1_555
C5_3 N2_3 1_555 1_555
C6_3 C5_3 1_555 1_555
H3_3 C6_3 1_555 1_555
C7_3 C2_3 1_555 1_555
H4_3 C7_3 1_555 1_555
C8_3 N1_3 1_555 1_555
C9_3 N3_3 1_555 1_555
C10_3 C9_3 1_555 1_555
H5_3 C10_3 1_555 1_555
C11_3 C10_3 1_555 1_555
H6_3 C11_3 1_555 1_555
C12_3 C11_3 1_555 1_555
H7_3 C12_3 1_555 1_555
C13_3 N3_3 1_555 1_555
H8_3 C13_3 1_555 1_555
O3_3 C14_3 1_555 1_555
O8 C14_3 1_555 1_555
N4_3 Tb2 1_555 1_555
N5_3 H9_3 1_555 1_555
N6_3 Tb2 1_555 1_555
C14_3 C15_3 1_555 1_555
C15_3 C16_3 1_555 1_555
C16_3 H10_3 1_555 1_555
C17_3 N4_3 1_555 1_555
C18_3 N5_3 1_555 1_555
C19_3 C18_3 1_555 1_555
H11_3 C19_3 1_555 1_555
C20_3 C15_3 1_555 1_555
H12_3 C20_3 1_555 1_555
C21_3 N4_3 1_555 1_555
C22_3 N6_3 1_555 1_555
C23_3 C22_3 1_555 1_555
H13_3 C23_3 1_555 1_555
C24_3 C23_3 1_555 1_555
H14_3 C24_3 1_555 1_555
C25_3 C24_3 1_555 1_555
H15_3 C25_3 1_555 1_555
C26_3 N6_3 1_555 1_555
H16_3 C26_3 1_555 1_555
Tb4_3 O1_3 1_555 1_555
Tb4_2 O3_3 1_555 1_555
O5_3 Tb2 1_555 1_555
O6_3 Tb2 1_555 1_555
N2_3 C8_3 1_555 1_555
C4_3 C5_3 1_555 1_555
C6_3 C7_3 1_555 1_555
C8_3 C9_3 1_555 1_555
C12_3 C13_3 1_555 1_555
N5_3 C21_3 1_555 1_555
C16_3 C17_3 1_555 1_555
C17_3 C18_3 1_555 1_555
C19_3 C20_3 1_555 1_555
C21_3 C22_3 1_555 1_555
C25_3 C26_3 1_555 1_555
N3_4 Tb3 1_555 1_555
C9_4 N3_4 1_555 1_555
C10_4 C9_4 1_555 1_555
H5_4 C10_4 1_555 1_555
C11_4 C10_4 1_555 1_555
H6_4 C11_4 1_555 1_555
C12_4 C11_4 1_555 1_555
H7_4 C12_4 1_555 1_555
C13_4 N3_4 1_555 1_555
H8_4 C13_4 1_555 1_555
O3_4 C14_4 1_555 1_555
O8_2 C14_4 1_555 1_555
N4_4 Tb3 1_555 1_555
N5_4 H9_4 1_555 1_555
C14_4 C15_4 1_555 1_555
C15_4 C16_4 1_555 1_555
C16_4 H10_4 1_555 1_555
C17_4 N4_4 1_555 1_555
C18_4 N5_4 1_555 1_555
C19_4 C18_4 1_555 1_555
H11_4 C19_4 1_555 1_555
C20_4 C15_4 1_555 1_555
H12_4 C20_4 1_555 1_555
C21_4 N4_4 1_555 1_555
Tb5_3 O3_4 1_555 1_555
O6_4 Tb3 1_555 1_555
C12_4 C13_4 1_555 1_555
N5_4 C21_4 1_555 1_555
C16_4 C17_4 1_555 1_555
C17_4 C18_4 1_555 1_555
C19_4 C20_4 1_555 1_555
Tb3_2 N1_4 1_555 1_555
O1_4 C1_4 1_555 1_555
O7_2 C1_4 1_555 1_555
N1_4 C4_4 1_555 1_555
N2_4 H1_4 1_555 1_555
C1_4 C2_4 1_555 1_555
C2_4 C3_4 1_555 1_555
C3_4 H2_4 1_555 1_555
C4_4 C3_4 1_555 1_555
C5_4 N2_4 1_555 1_555
C6_4 C5_4 1_555 1_555
H3_4 C6_4 1_555 1_555
C7_4 C2_4 1_555 1_555
H4_4 C7_4 1_555 1_555
C8_4 N1_4 1_555 1_555
N6_4 Tb3_2 1_555 1_555
C22_4 N6_4 1_555 1_555
C23_4 C22_4 1_555 1_555
H13_4 C23_4 1_555 1_555
C24_4 C23_4 1_555 1_555
H14_4 C24_4 1_555 1_555
C25_4 C24_4 1_555 1_555
H15_4 C25_4 1_555 1_555
C26_4 N6_4 1_555 1_555
H16_4 C26_4 1_555 1_555
Tb5_3 O1_4 1_555 1_555
O5_4 Tb3_2 1_555 1_555
N2_4 C8_4 1_555 1_555
C4_4 C5_4 1_555 1_555
C6_4 C7_4 1_555 1_555
C25_4 C26_4 1_555 1_555
O5 C1_5 1_555 1_555
O2_3 C1_5 1_555 1_555
Tb4_2 O2_3 1_555 1_555
N5_5 H9_5 1_555 1_555
C15_5 C16_5 1_555 1_555
C16_5 H10_5 1_555 1_555
C17_5 N4_5 1_555 1_555
C18_5 N5_5 1_555 1_555
C19_5 C18_5 1_555 1_555
H11_5 C19_5 1_555 1_555
C20_5 C15_5 1_555 1_555
H12_5 C20_5 1_555 1_555
C21_5 N4_5 1_555 1_555
C22_5 N6_5 1_555 1_555
C23_5 C22_5 1_555 1_555
H13_5 C23_5 1_555 1_555
C24_5 C23_5 1_555 1_555
H14_5 C24_5 1_555 1_555
C25_5 C24_5 1_555 1_555
C26_5 N6_5 1_555 1_555
N5_5 C21_5 1_555 1_555
C16_5 C17_5 1_555 1_555
C17_5 C18_5 1_555 1_555
C19_5 C20_5 1_555 1_555
C21_5 C22_5 1_555 1_555
C25_5 C26_5 1_555 1_555
O7_3 Tb5 1_555 1_555
N1_5 C4_5 1_555 1_555
N2_5 H1_5 1_555 1_555
C3_5 H2_5 1_555 1_555
C4_5 C3_5 1_555 1_555
C5_5 N2_5 1_555 1_555
C6_5 C5_5 1_555 1_555
H3_5 C6_5 1_555 1_555
C8_5 N1_5 1_555 1_555
C9_5 N3_5 1_555 1_555
C10_5 C9_5 1_555 1_555
H5_5 C10_5 1_555 1_555
C11_5 C10_5 1_555 1_555
H6_5 C11_5 1_555 1_555
C12_5 C11_5 1_555 1_555
H7_5 C12_5 1_555 1_555
C13_5 N3_5 1_555 1_555
O6 C14_5 1_555 1_555
O4_3 C14_5 1_555 1_555
Tb4_3 O4_3 1_555 1_555
N2_5 C8_5 1_555 1_555
C4_5 C5_5 1_555 1_555
C6_5 C7_5 1_555 1_555
C8_5 C9_5 1_555 1_555
C12_5 C13_5 1_555 1_555
O8_3 Tb5_2 1_555 1_555
Tb4 N1_6 1_555 1_555
N1_6 C4_6 1_555 1_555
N2_6 H1_6 1_555 1_555
N3_6 Tb4 1_555 1_555
C3_6 H2_6 1_555 1_555
C4_6 C3_6 1_555 1_555
C5_6 N2_6 1_555 1_555
C6_6 C5_6 1_555 1_555
H3_6 C6_6 1_555 1_555
C8_6 N1_6 1_555 1_555
C9_6 N3_6 1_555 1_555
C10_6 C9_6 1_555 1_555
H5_6 C10_6 1_555 1_555
C11_6 C10_6 1_555 1_555
H6_6 C11_6 1_555 1_555
C12_6 C11_6 1_555 1_555
H7_6 C12_6 1_555 1_555
C13_6 N3_6 1_555 1_555
H8_6 C13_6 1_555 1_555
O6_2 C14_6 1_555 1_555
O4_4 C14_6 1_555 1_555
N4_6 Tb4 1_555 1_555
N5_6 H9_6 1_555 1_555
N6_6 Tb4 1_555 1_555
C14_6 C15_6 1_555 1_555
C15_6 C16_6 1_555 1_555
C16_6 H10_6 1_555 1_555
C17_6 N4_6 1_555 1_555
C18_6 N5_6 1_555 1_555
C19_6 C18_6 1_555 1_555
H11_6 C19_6 1_555 1_555
C20_6 C15_6 1_555 1_555
H12_6 C20_6 1_555 1_555
C21_6 N4_6 1_555 1_555
C22_6 N6_6 1_555 1_555
C23_6 C22_6 1_555 1_555
H13_6 C23_6 1_555 1_555
C24_6 C23_6 1_555 1_555
H14_6 C24_6 1_555 1_555
C25_6 C24_6 1_555 1_555
C26_6 N6_6 1_555 1_555
H16_6 C26_6 1_555 1_555
Tb5_3 O4_4 1_555 1_555
O7_4 Tb4 1_555 1_555
O8_4 Tb4 1_555 1_555
N2_6 C8_6 1_555 1_555
C4_6 C5_6 1_555 1_555
C6_6 C7_6 1_555 1_555
C8_6 C9_6 1_555 1_555
C12_6 C13_6 1_555 1_555
N5_6 C21_6 1_555 1_555
C16_6 C17_6 1_555 1_555
C17_6 C18_6 1_555 1_555
C19_6 C20_6 1_555 1_555
C21_6 C22_6 1_555 1_555
C25_6 C26_6 1_555 1_555
O5_2 C1_6 1_555 1_555
O2_4 C1_6 1_555 1_555
C1_6 C2_6 1_555 1_555
Tb5_3 O2_4 1_555 1_555
Tb5_3 N1_7 1_555 1_555
O6_4 C1_7 1_555 1_555
O7_3 C1_7 1_555 1_555
N1_7 C4_7 1_555 1_555
N2_7 H1_7 1_555 1_555
N3_7 Tb5_3 1_555 1_555
C1_7 C2_7 1_555 1_555
C2_7 C3_7 1_555 1_555
C3_7 H2_7 1_555 1_555
C4_7 C3_7 1_555 1_555
C5_7 N2_7 1_555 1_555
C6_7 C5_7 1_555 1_555
H3_7 C6_7 1_555 1_555
C7_7 C2_7 1_555 1_555
H4_7 C7_7 1_555 1_555
C8_7 N1_7 1_555 1_555
C9_7 N3_7 1_555 1_555
C10_7 C9_7 1_555 1_555
H5_7 C10_7 1_555 1_555
C11_7 C10_7 1_555 1_555
H6_7 C11_7 1_555 1_555
C12_7 C11_7 1_555 1_555
H7_7 C12_7 1_555 1_555
C13_7 N3_7 1_555 1_555
H8_7 C13_7 1_555 1_555
O5_4 C14_7 1_555 1_555
O8_3 C14_7 1_555 1_555
N4_7 Tb5_3 1_555 1_555
N5_7 H9_7 1_555 1_555
N6_7 Tb5_3 1_555 1_555
C14_7 C15_7 1_555 1_555
C15_7 C16_7 1_555 1_555
C16_7 H10_7 1_555 1_555
C17_7 N4_7 1_555 1_555
C18_7 N5_7 1_555 1_555
C19_7 C18_7 1_555 1_555
H11_7 C19_7 1_555 1_555
C20_7 C15_7 1_555 1_555
H12_7 C20_7 1_555 1_555
C21_7 N4_7 1_555 1_555
C22_7 N6_7 1_555 1_555
C23_7 C22_7 1_555 1_555
H13_7 C23_7 1_555 1_555
C24_7 C23_7 1_555 1_555
H14_7 C24_7 1_555 1_555
C25_7 C24_7 1_555 1_555
H15_7 C25_7 1_555 1_555
C26_7 N6_7 1_555 1_555
H16_7 C26_7 1_555 1_555
N2_7 C8_7 1_555 1_555
C4_7 C5_7 1_555 1_555
C6_7 C7_7 1_555 1_555
C8_7 C9_7 1_555 1_555
C12_7 C13_7 1_555 1_555
N5_7 C21_7 1_555 1_555
C16_7 C17_7 1_555 1_555
C17_7 C18_7 1_555 1_555
C19_7 C20_7 1_555 1_555
C21_7 C22_7 1_555 1_555
C25_7 C26_7 1_555 1_555
Tb4_2 N1_8 1_555 1_555
O6_3 C1_8 1_555 1_555
O7_4 C1_8 1_555 1_555
N1_8 C4_8 1_555 1_555
N2_8 H1_8 1_555 1_555
C1_8 C2_8 1_555 1_555
C2_8 C3_8 1_555 1_555
C3_8 H2_8 1_555 1_555
C4_8 C3_8 1_555 1_555
C5_8 N2_8 1_555 1_555
C6_8 C5_8 1_555 1_555
H3_8 C6_8 1_555 1_555
C7_8 C2_8 1_555 1_555
H4_8 C7_8 1_555 1_555
C8_8 N1_8 1_555 1_555
N6_8 Tb4_2 1_555 1_555
C22_8 N6_8 1_555 1_555
C23_8 C22_8 1_555 1_555
H13_8 C23_8 1_555 1_555
C24_8 C23_8 1_555 1_555
H14_8 C24_8 1_555 1_555
C25_8 C24_8 1_555 1_555
H15_8 C25_8 1_555 1_555
C26_8 N6_8 1_555 1_555
H16_8 C26_8 1_555 1_555
N2_8 C8_8 1_555 1_555
C4_8 C5_8 1_555 1_555
C6_8 C7_8 1_555 1_555
C25_8 C26_8 1_555 1_555
N3_8 Tb4_3 1_555 1_555
C9_8 N3_8 1_555 1_555
C10_8 C9_8 1_555 1_555
H5_8 C10_8 1_555 1_555
C11_8 C10_8 1_555 1_555
H6_8 C11_8 1_555 1_555
C12_8 C11_8 1_555 1_555
H7_8 C12_8 1_555 1_555
C13_8 N3_8 1_555 1_555
H8_8 C13_8 1_555 1_555
O5_3 C14_8 1_555 1_555
O8_4 C14_8 1_555 1_555
N4_8 Tb4_3 1_555 1_555
N5_8 H9_8 1_555 1_555
C14_8 C15_8 1_555 1_555
C15_8 C16_8 1_555 1_555
C16_8 H10_8 1_555 1_555
C17_8 N4_8 1_555 1_555
C18_8 N5_8 1_555 1_555
C19_8 C18_8 1_555 1_555
H11_8 C19_8 1_555 1_555
C20_8 C15_8 1_555 1_555
H12_8 C20_8 1_555 1_555
C21_8 N4_8 1_555 1_555
C12_8 C13_8 1_555 1_555
N5_8 C21_8 1_555 1_555
C16_8 C17_8 1_555 1_555
C17_8 C18_8 1_555 1_555
C19_8 C20_8 1_555 1_555

#END
