
###############################################################################
#
# This file contains modified crystal structure data generated from the
# MOF subset of the Cambridge Structural Database (CSD) v543 
# hosted by the Cambridge Crystallographic Data Centre (CCDC).
#
# This work is licensed under the Creative Commons
# Attribution-NonCommercial-ShareAlike 4.0 International License.
# To view a copy of this license, visit
# http://creativecommons.org/licenses/by-nc-sa/4.0/
# or send a letter to
# Creative Commons, PO Box 1866, Mountain View, CA 94042, USA.
#
# CIF created using the CSD Python API on 29 September 2022
# The structure has been converted into the P1 space group
# The structure has a 3D framework
# The original CSD entry KAFCON is in the tetragonal crystal system
# The framework has been calculated to contain at least 10.0% void space
# The void calculation uses a probe of radius 1.32A, grid spacing 0.4
# The framework is charged, counterions have been retained in the structure
#
###############################################################################

data_KAFCON
_chemical_formula_moiety         '(C208 H128 Eu10 N48 O32 10+)n'
_symmetry_cell_setting           triclinic
_symmetry_space_group_name_H-M   'P 1'
_symmetry_Int_Tables_number      1
_space_group_name_Hall           'P 1'
loop_
_symmetry_equiv_pos_site_id
_symmetry_equiv_pos_as_xyz
1 x,y,z
_cell_length_a                   16.4311(6)
_cell_length_b                   16.4311(6)
_cell_length_c                   22.2895(14)
_cell_angle_alpha                90
_cell_angle_beta                 90
_cell_angle_gamma                90
_cell_volume                     6017.74
loop_
_atom_site_label
_atom_site_type_symbol
_atom_site_fract_x
_atom_site_fract_y
_atom_site_fract_z
C1 C 0.4921(6) 0.0952(5) 0.8852(4)
C2 C 0.5249(6) 0.0125(5) 0.8710(4)
H3 H 0.5527 0.0373 0.7832
O1 O 0.4787(4) 0.1139(4) 0.9384(3)
O2 O 0.4809(4) 0.1429(4) 0.8413(3)
H14 H 0.2851 0.0099 0.9853
Eu3 Eu 0.5000 0.2500 0.77671(3)
Eu5 Eu 0.5000 0.2500 0.97329(3)
Eu1 Eu 0.5000 0.7500 0.02671(3)
H7 H 0.6284 0.5762 0.0376
H15 H 0.3716 0.9238 0.0376
O5 O 0.5213(4) 0.8861(4) 0.0616(3)
O6 O 0.4787(4) 0.6139(4) 0.0616(3)
O7 O 0.6071(4) 0.7309(4) 0.0913(3)
O8 O 0.3929(4) 0.7691(4) 0.0913(3)
C3 C 0.5281(6) 0.9535(6) 0.9145(4)
H1 H 0.5074 0.9637 0.9526
C4 C 0.5623(7) 0.8789(6) 0.9012(4)
C5 C 0.5962(9) 0.8662(7) 0.8432(5)
C6 C 0.5923(10) 0.9253(8) 0.7979(6)
H2 H 0.6131 0.9157 0.7597
C7 C 0.5567(8) 0.9969(7) 0.8123(5)
C8 C 0.6141(8) 0.7584(7) 0.9001(5)
C9 C 0.6410(8) 0.6783(7) 0.9196(6)
C10 C 0.6898(15) 0.6286(11) 0.8857(9)
H4 H 0.7076 0.6446 0.8479
C11 C 0.7117(15) 0.5536(12) 0.9095(10)
H5 H 0.7384 0.5155 0.8858
C12 C 0.6940(13) 0.5365(11) 0.9670(8)
H6 H 0.7149 0.4901 0.9853
C13 C 0.6436(7) 0.5897(7) 0.9986(6)
N1 N 0.5737(5) 0.8098(5) 0.9355(4)
N2 N 0.6286(8) 0.7896(6) 0.8448(5)
H8 H 0.6537 0.7655 0.8160
N3 N 0.6166(5) 0.6590(5) 0.9751(4)
C14 C 0.5079(6) 0.4048(5) 0.8852(4)
C15 C 0.4751(6) 0.4875(5) 0.8710(4)
C16 C 0.4719(6) 0.5465(6) 0.9145(4)
H9 H 0.4926 0.5363 0.9526
C17 C 0.4377(7) 0.6211(6) 0.9012(4)
C18 C 0.4038(9) 0.6338(7) 0.8432(5)
C19 C 0.4077(10) 0.5747(8) 0.7979(6)
H10 H 0.3869 0.5843 0.7597
C20 C 0.4433(8) 0.5031(7) 0.8123(5)
H11 H 0.4473 0.4627 0.7832
C21 C 0.3859(8) 0.7416(7) 0.9001(5)
C22 C 0.3590(8) 0.8217(7) 0.9196(6)
C23 C 0.3102(15) 0.8714(11) 0.8857(9)
H12 H 0.2924 0.8554 0.8479
C24 C 0.2883(15) 0.9464(12) 0.9095(10)
H13 H 0.2616 0.9845 0.8858
C25 C 0.3060(13) 0.9635(11) 0.9670(8)
C26 C 0.3564(7) 0.9103(7) 0.9986(6)
N4 N 0.4263(5) 0.6902(5) 0.9355(4)
N5 N 0.3714(8) 0.7104(6) 0.8448(5)
H16 H 0.3463 0.7345 0.8160
N6 N 0.3834(5) 0.8410(5) 0.9751(4)
O3 O 0.5213(4) 0.3861(4) 0.9384(3)
O4 O 0.5191(4) 0.3571(4) 0.8413(3)
Eu1_2 Eu 0.0000 0.2500 0.52671(3)
C15_2 C 0.0249(6) 0.5125(5) 0.3710(4)
C16_2 C 0.0281(6) 0.4535(6) 0.4145(4)
H9_2 H 0.0074 0.4637 0.4526
C17_2 C 0.0623(7) 0.3789(6) 0.4012(4)
C18_2 C 0.0962(9) 0.3662(7) 0.3432(5)
C19_2 C 0.0923(10) 0.4253(8) 0.2979(6)
H10_2 H 0.1131 0.4157 0.2597
C20_2 C 0.0567(8) 0.4969(7) 0.3123(5)
H11_2 H 0.0527 0.5373 0.2832
C21_2 C 0.1141(8) 0.2584(7) 0.4001(5)
C22_2 C 0.1410(8) 0.1783(7) 0.4196(6)
C23_2 C 0.1898(15) 0.1286(11) 0.3857(9)
H12_2 H 0.2076 0.1446 0.3479
C24_2 C 0.2117(15) 0.0536(12) 0.4095(10)
H13_2 H 0.2384 0.0155 0.3858
C25_2 C 0.1940(13) 0.0365(11) 0.4670(8)
C26_2 C 0.1436(7) 0.0897(7) 0.4986(6)
H15_2 H 0.1284 0.0762 0.5376
N4_2 N 0.0737(5) 0.3098(5) 0.4355(4)
N5_2 N 0.1286(8) 0.2896(6) 0.3448(5)
H16_2 H 0.1537 0.2655 0.3160
N6_2 N 0.1166(5) 0.1590(5) 0.4751(4)
Eu2 Eu -0.0000 0.7500 0.27671(3)
Eu4 Eu -0.0000 0.7500 0.47329(3)
O6_2 O 0.0213(4) 0.3861(4) 0.5616(3)
O8_2 O 0.1071(4) 0.2309(4) 0.5913(3)
C1_2 C 0.0079(6) 0.9048(5) 0.3852(4)
O1_2 O 0.0213(4) 0.8861(4) 0.4384(3)
O2_2 O 0.0191(4) 0.8571(4) 0.3413(3)
H14_2 H 0.2149 0.9901 0.4853
Eu1_3 Eu 1.0000 0.2500 0.52671(3)
C3_2 C 0.9719(6) 0.0465(6) 0.4145(4)
H1_2 H 0.9926 0.0363 0.4526
C4_2 C 0.9377(7) 0.1211(6) 0.4012(4)
C5_2 C 0.9038(9) 0.1338(7) 0.3432(5)
C6_2 C 0.9077(10) 0.0747(8) 0.2979(6)
H2_2 H 0.8869 0.0843 0.2597
C7_2 C 0.9433(8) 0.0031(7) 0.3123(5)
C8_2 C 0.8859(8) 0.2416(7) 0.4001(5)
C9_2 C 0.8590(8) 0.3217(7) 0.4196(6)
C10_2 C 0.8102(15) 0.3714(11) 0.3857(9)
H4_2 H 0.7924 0.3554 0.3479
C11_2 C 0.7883(15) 0.4464(12) 0.4095(10)
H5_2 H 0.7616 0.4845 0.3858
C12_2 C 0.8060(13) 0.4635(11) 0.4670(8)
H6_2 H 0.7851 0.5099 0.4853
C13_2 C 0.8564(7) 0.4103(7) 0.4986(6)
H7_2 H 0.8716 0.4238 0.5376
N1_2 N 0.9263(5) 0.1902(5) 0.4355(4)
N2_2 N 0.8714(8) 0.2104(6) 0.3448(5)
H8_2 H 0.8463 0.2345 0.3160
N3_2 N 0.8834(5) 0.3410(5) 0.4751(4)
C14_2 C 0.9921(6) 0.5952(5) 0.3852(4)
O3_2 O 0.9787(4) 0.6139(4) 0.4384(3)
O4_2 O 0.9809(4) 0.6429(4) 0.3413(3)
Eu2_2 Eu 1.0000 0.7500 0.27671(3)
Eu4_2 Eu 1.0000 0.7500 0.47329(3)
O5_2 O 0.9787(4) 0.1139(4) 0.5616(3)
O7_2 O 0.8929(4) 0.2691(4) 0.5913(3)
C2_2 C 0.9751(6) 0.9875(5) 0.3710(4)
H3_2 H 0.9473 0.9627 0.2832
C9_3 C 0.0717(7) 0.8910(8) 0.1696(6)
C10_3 C 0.1214(11) 0.9398(15) 0.1357(9)
H4_3 H 0.1054 0.9576 0.0979
C11_3 C 0.1964(12) 0.9617(15) 0.1595(10)
H5_3 H 0.2345 0.9884 0.1358
C12_3 C 0.2135(11) 0.9440(13) 0.2170(8)
H6_3 H 0.2599 0.9649 0.2353
C13_3 C 0.1603(7) 0.8936(7) 0.2486(6)
H7_3 H 0.1738 0.8784 0.2876
N3_3 N 0.0910(5) 0.8666(5) 0.2251(4)
C14_3 C 0.3452(5) 0.7579(6) 0.1352(4)
C15_3 C 0.2625(5) 0.7251(6) 0.1210(4)
C16_3 C 0.2035(6) 0.7219(6) 0.1645(4)
H9_3 H 0.2137 0.7426 0.2026
C17_3 C 0.1289(6) 0.6877(7) 0.1512(4)
C18_3 C 0.1162(7) 0.6538(9) 0.0932(5)
C19_3 C 0.1753(8) 0.6577(10) 0.0479(6)
H10_3 H 0.1657 0.6369 0.0097
C20_3 C 0.2469(7) 0.6933(8) 0.0623(5)
H11_3 H 0.2873 0.6973 0.0332
C21_3 C 0.0084(7) 0.6359(8) 0.1501(5)
N4_3 N 0.0598(5) 0.6763(5) 0.1855(4)
N5_3 N 0.0396(6) 0.6214(8) 0.0948(5)
H16_3 H 0.0155 0.5963 0.0660
O3_3 O 0.3639(4) 0.7713(4) 0.1884(3)
Eu4_3 Eu 0.5000 0.7500 0.22329(3)
O6_3 O 0.1361(4) 0.7287(4) 0.3116(3)
C1_3 C 0.6548(5) 0.7421(6) 0.1352(4)
C2_3 C 0.7375(5) 0.7749(6) 0.1210(4)
C3_3 C 0.7965(6) 0.7781(6) 0.1645(4)
H1_3 H 0.7863 0.7574 0.2026
C4_3 C 0.8711(6) 0.8123(7) 0.1512(4)
C5_3 C 0.8838(7) 0.8462(9) 0.0932(5)
C6_3 C 0.8247(8) 0.8423(10) 0.0479(6)
H2_3 H 0.8343 0.8631 0.0097
C7_3 C 0.7531(7) 0.8067(8) 0.0623(5)
H3_3 H 0.7127 0.8027 0.0332
C8_3 C 0.9916(7) 0.8641(8) 0.1501(5)
N1_3 N 0.9402(5) 0.8237(5) 0.1855(4)
N2_3 N 0.9604(6) 0.8786(8) 0.0948(5)
H8_3 H 0.9845 0.9037 0.0660
O1_3 O 0.6361(4) 0.7287(4) 0.1884(3)
C22_3 C 0.9283(7) 0.6090(8) 0.1696(6)
C23_3 C 0.8786(11) 0.5602(15) 0.1357(9)
H12_3 H 0.8946 0.5424 0.0979
C24_3 C 0.8036(12) 0.5383(15) 0.1595(10)
H13_3 H 0.7655 0.5116 0.1358
C25_3 C 0.7865(11) 0.5560(13) 0.2170(8)
H14_3 H 0.7401 0.5351 0.2353
C26_3 C 0.8397(7) 0.6064(7) 0.2486(6)
H15_3 H 0.8262 0.6216 0.2876
N6_3 N 0.9090(5) 0.6334(5) 0.2251(4)
O5_3 O 0.8639(4) 0.7713(4) 0.3116(3)
Eu5_2 Eu 0.0000 0.2500 0.72329(3)
C1_4 C 0.8452(5) 0.2579(6) 0.6352(4)
C2_4 C 0.7625(5) 0.2251(6) 0.6210(4)
C3_4 C 0.7035(6) 0.2219(6) 0.6645(4)
H1_4 H 0.7137 0.2426 0.7026
C4_4 C 0.6289(6) 0.1877(7) 0.6512(4)
C5_4 C 0.6162(7) 0.1538(9) 0.5932(5)
C6_4 C 0.6753(8) 0.1577(10) 0.5479(6)
H2_4 H 0.6657 0.1369 0.5097
C7_4 C 0.7469(7) 0.1933(8) 0.5623(5)
H3_4 H 0.7873 0.1973 0.5332
C8_4 C 0.5084(7) 0.1359(8) 0.6501(5)
C9_4 C 0.4283(7) 0.1090(8) 0.6696(6)
C10_4 C 0.3786(11) 0.0602(15) 0.6357(9)
H4_4 H 0.3946 0.0424 0.5979
C11_4 C 0.3036(12) 0.0383(15) 0.6595(10)
H5_4 H 0.2655 0.0116 0.6358
C12_4 C 0.2865(11) 0.0560(13) 0.7170(8)
H6_4 H 0.2401 0.0351 0.7353
C13_4 C 0.3397(7) 0.1064(7) 0.7486(6)
H7_4 H 0.3262 0.1216 0.7876
N1_4 N 0.5598(5) 0.1763(5) 0.6855(4)
N2_4 N 0.5396(6) 0.1214(8) 0.5948(5)
H8_4 H 0.5155 0.0963 0.5660
N3_4 N 0.4090(5) 0.1334(5) 0.7251(4)
O1_4 O 0.8639(4) 0.2713(4) 0.6884(3)
C14_4 C 0.1548(5) 0.2421(6) 0.6352(4)
C15_4 C 0.2375(5) 0.2749(6) 0.6210(4)
C16_4 C 0.2965(6) 0.2781(6) 0.6645(4)
H9_4 H 0.2863 0.2574 0.7026
C17_4 C 0.3711(6) 0.3123(7) 0.6512(4)
C18_4 C 0.3838(7) 0.3462(9) 0.5932(5)
C19_4 C 0.3247(8) 0.3423(10) 0.5479(6)
H10_4 H 0.3343 0.3631 0.5097
C20_4 C 0.2531(7) 0.3067(8) 0.5623(5)
H11_4 H 0.2127 0.3027 0.5332
C21_4 C 0.4916(7) 0.3641(8) 0.6501(5)
C22_4 C 0.5717(7) 0.3910(8) 0.6696(6)
C23_4 C 0.6214(11) 0.4398(15) 0.6357(9)
H12_4 H 0.6054 0.4576 0.5979
C24_4 C 0.6964(12) 0.4617(15) 0.6595(10)
H13_4 H 0.7345 0.4884 0.6358
C25_4 C 0.7135(11) 0.4440(13) 0.7170(8)
H14_4 H 0.7599 0.4649 0.7353
C26_4 C 0.6603(7) 0.3936(7) 0.7486(6)
H15_4 H 0.6738 0.3784 0.7876
N4_4 N 0.4402(5) 0.3237(5) 0.6855(4)
N5_4 N 0.4604(6) 0.3786(8) 0.5948(5)
H16_4 H 0.4845 0.4037 0.5660
N6_4 N 0.5910(5) 0.3666(5) 0.7251(4)
O3_4 O 0.1361(4) 0.2287(4) 0.6884(3)
Eu5_3 Eu 1.0000 0.2500 0.72329(3)
O5_4 O 0.6361(4) 0.2287(4) 0.8116(3)
O6_4 O 0.3639(4) 0.2713(4) 0.8116(3)
C3_5 C 0.4719(6) 0.0465(6) 0.0855(4)
H1_5 H 0.4926 0.0363 0.0474
C4_5 C 0.4377(7) 0.1211(6) 0.0988(4)
C5_5 C 0.4038(9) 0.1338(7) 0.1568(5)
C6_5 C 0.4077(10) 0.0747(8) 0.2021(6)
H2_5 H 0.3869 0.0843 0.2403
C7_5 C 0.4433(8) 0.0031(7) 0.1877(5)
C8_5 C 0.3859(8) 0.2416(7) 0.0999(5)
C9_5 C 0.3590(8) 0.3217(7) 0.0804(6)
C10_5 C 0.3102(15) 0.3714(11) 0.1143(9)
H4_5 H 0.2924 0.3554 0.1521
C11_5 C 0.2883(15) 0.4464(12) 0.0905(10)
H5_5 H 0.2616 0.4845 0.1142
C12_5 C 0.3060(13) 0.4635(11) 0.0330(8)
H6_5 H 0.2851 0.5099 0.0147
C13_5 C 0.3564(7) 0.4103(7) 0.0014(6)
N1_5 N 0.4263(5) 0.1902(5) 0.0645(4)
N2_5 N 0.3714(8) 0.2104(6) 0.1552(5)
H8_5 H 0.3463 0.2345 0.1840
N3_5 N 0.3834(5) 0.3410(5) 0.0249(4)
C14_5 C 0.4921(6) 0.5952(5) 0.1148(4)
C15_5 C 0.5249(6) 0.5125(5) 0.1290(4)
C16_5 C 0.5281(6) 0.4535(6) 0.0855(4)
H9_5 H 0.5074 0.4637 0.0474
C17_5 C 0.5623(7) 0.3789(6) 0.0988(4)
C18_5 C 0.5962(9) 0.3662(7) 0.1568(5)
C19_5 C 0.5923(10) 0.4253(8) 0.2021(6)
H10_5 H 0.6131 0.4157 0.2403
C20_5 C 0.5567(8) 0.4969(7) 0.1877(5)
H11_5 H 0.5527 0.5373 0.2168
C21_5 C 0.6141(8) 0.2584(7) 0.0999(5)
C22_5 C 0.6410(8) 0.1783(7) 0.0804(6)
C23_5 C 0.6898(15) 0.1286(11) 0.1143(9)
H12_5 H 0.7076 0.1446 0.1521
C24_5 C 0.7117(15) 0.0536(12) 0.0905(10)
H13_5 H 0.7384 0.0155 0.1142
C25_5 C 0.6940(13) 0.0365(11) 0.0330(8)
C26_5 C 0.6436(7) 0.0897(7) 0.0014(6)
N4_5 N 0.5737(5) 0.3098(5) 0.0645(4)
N5_5 N 0.6286(8) 0.2896(6) 0.1552(5)
H16_5 H 0.6537 0.2655 0.1840
N6_5 N 0.6166(5) 0.1590(5) 0.0249(4)
O4_3 O 0.4809(4) 0.6429(4) 0.1587(3)
H7_5 H 0.3716 0.4238 0.9624
H15_5 H 0.6284 0.0762 0.9624
O7_3 O 0.3929(4) 0.2691(4) 0.9087(3)
O8_3 O 0.6071(4) 0.2309(4) 0.9087(3)
C1_5 C 0.5079(6) 0.9048(5) 0.1148(4)
C2_5 C 0.4751(6) 0.9875(5) 0.1290(4)
H3_5 H 0.4473 0.9627 0.2168
O2_3 O 0.5191(4) 0.8571(4) 0.1587(3)
H14_5 H 0.7149 0.9901 0.0147
C2_6 C 0.0249(6) 0.0125(5) 0.6290(4)
H3_6 H 0.0527 0.0373 0.7168
C3_6 C 0.0281(6) 0.9535(6) 0.5855(4)
H1_6 H 0.0074 0.9637 0.5474
C4_6 C 0.0623(7) 0.8789(6) 0.5988(4)
C5_6 C 0.0962(9) 0.8662(7) 0.6568(5)
C6_6 C 0.0923(10) 0.9253(8) 0.7021(6)
H2_6 H 0.1131 0.9157 0.7403
C7_6 C 0.0567(8) 0.9969(7) 0.6877(5)
C8_6 C 0.1141(8) 0.7584(7) 0.5999(5)
C9_6 C 0.1410(8) 0.6783(7) 0.5804(6)
C10_6 C 0.1898(15) 0.6286(11) 0.6143(9)
H4_6 H 0.2076 0.6446 0.6521
C11_6 C 0.2117(15) 0.5536(12) 0.5905(10)
H5_6 H 0.2384 0.5155 0.6142
C12_6 C 0.1940(13) 0.5365(11) 0.5330(8)
H6_6 H 0.2149 0.4901 0.5147
C13_6 C 0.1436(7) 0.5897(7) 0.5014(6)
H7_6 H 0.1284 0.5762 0.4624
N1_6 N 0.0737(5) 0.8098(5) 0.5645(4)
N2_6 N 0.1286(8) 0.7896(6) 0.6552(5)
H8_6 H 0.1537 0.7655 0.6840
N3_6 N 0.1166(5) 0.6590(5) 0.5249(4)
C14_6 C 0.0079(6) 0.4048(5) 0.6148(4)
O4_4 O 0.0191(4) 0.3571(4) 0.6587(3)
O7_4 O 0.1071(4) 0.7309(4) 0.4087(3)
C1_6 C 0.9921(6) 0.0952(5) 0.6148(4)
O2_4 O 0.9809(4) 0.1429(4) 0.6587(3)
H14_6 H 0.7851 0.0099 0.5147
C15_6 C 0.9751(6) 0.4875(5) 0.6290(4)
C16_6 C 0.9719(6) 0.5465(6) 0.5855(4)
H9_6 H 0.9926 0.5363 0.5474
C17_6 C 0.9377(7) 0.6211(6) 0.5988(4)
C18_6 C 0.9038(9) 0.6338(7) 0.6568(5)
C19_6 C 0.9077(10) 0.5747(8) 0.7021(6)
H10_6 H 0.8869 0.5843 0.7403
C20_6 C 0.9433(8) 0.5031(7) 0.6877(5)
H11_6 H 0.9473 0.4627 0.7168
C21_6 C 0.8859(8) 0.7416(7) 0.5999(5)
C22_6 C 0.8590(8) 0.8217(7) 0.5804(6)
C23_6 C 0.8102(15) 0.8714(11) 0.6143(9)
H12_6 H 0.7924 0.8554 0.6521
C24_6 C 0.7883(15) 0.9464(12) 0.5905(10)
H13_6 H 0.7616 0.9845 0.6142
C25_6 C 0.8060(13) 0.9635(11) 0.5330(8)
C26_6 C 0.8564(7) 0.9103(7) 0.5014(6)
H15_6 H 0.8716 0.9238 0.4624
N4_6 N 0.9263(5) 0.6902(5) 0.5645(4)
N5_6 N 0.8714(8) 0.7104(6) 0.6552(5)
H16_6 H 0.8463 0.7345 0.6840
N6_6 N 0.8834(5) 0.8410(5) 0.5249(4)
O8_4 O 0.8929(4) 0.7691(4) 0.4087(3)
C1_7 C 0.3452(5) 0.2579(6) 0.8648(4)
C2_7 C 0.2625(5) 0.2251(6) 0.8790(4)
C3_7 C 0.2035(6) 0.2219(6) 0.8355(4)
H1_7 H 0.2137 0.2426 0.7974
C4_7 C 0.1289(6) 0.1877(7) 0.8488(4)
C5_7 C 0.1162(7) 0.1538(9) 0.9068(5)
C6_7 C 0.1753(8) 0.1577(10) 0.9521(6)
H2_7 H 0.1657 0.1369 0.9903
C7_7 C 0.2469(7) 0.1933(8) 0.9377(5)
H3_7 H 0.2873 0.1973 0.9668
C8_7 C 0.0084(7) 0.1359(8) 0.8499(5)
N1_7 N 0.0598(5) 0.1763(5) 0.8145(4)
N2_7 N 0.0396(6) 0.1214(8) 0.9052(5)
H8_7 H 0.0155 0.0963 0.9340
C22_7 C 0.0717(7) 0.3910(8) 0.8304(6)
C23_7 C 0.1214(11) 0.4398(15) 0.8643(9)
H12_7 H 0.1054 0.4576 0.9021
C24_7 C 0.1964(12) 0.4617(15) 0.8405(10)
H13_7 H 0.2345 0.4884 0.8642
C25_7 C 0.2135(11) 0.4440(13) 0.7830(8)
H14_7 H 0.2599 0.4649 0.7647
C26_7 C 0.1603(7) 0.3936(7) 0.7514(6)
H15_7 H 0.1738 0.3784 0.7124
N6_7 N 0.0910(5) 0.3666(5) 0.7749(4)
C9_7 C 0.9283(7) 0.1090(8) 0.8304(6)
C10_7 C 0.8786(11) 0.0602(15) 0.8643(9)
H4_7 H 0.8946 0.0424 0.9021
C11_7 C 0.8036(12) 0.0383(15) 0.8405(10)
H5_7 H 0.7655 0.0116 0.8642
C12_7 C 0.7865(11) 0.0560(13) 0.7830(8)
H6_7 H 0.7401 0.0351 0.7647
C13_7 C 0.8397(7) 0.1064(7) 0.7514(6)
H7_7 H 0.8262 0.1216 0.7124
N3_7 N 0.9090(5) 0.1334(5) 0.7749(4)
C14_7 C 0.6548(5) 0.2421(6) 0.8648(4)
C15_7 C 0.7375(5) 0.2749(6) 0.8790(4)
C16_7 C 0.7965(6) 0.2781(6) 0.8355(4)
H9_7 H 0.7863 0.2574 0.7974
C17_7 C 0.8711(6) 0.3123(7) 0.8488(4)
C18_7 C 0.8838(7) 0.3462(9) 0.9068(5)
C19_7 C 0.8247(8) 0.3423(10) 0.9521(6)
H10_7 H 0.8343 0.3631 0.9903
C20_7 C 0.7531(7) 0.3067(8) 0.9377(5)
H11_7 H 0.7127 0.3027 0.9668
C21_7 C 0.9916(7) 0.3641(8) 0.8499(5)
N4_7 N 0.9402(5) 0.3237(5) 0.8145(4)
N5_7 N 0.9604(6) 0.3786(8) 0.9052(5)
H16_7 H 0.9845 0.4037 0.9340
C1_8 C 0.1548(5) 0.7421(6) 0.3648(4)
C2_8 C 0.2375(5) 0.7749(6) 0.3790(4)
C3_8 C 0.2965(6) 0.7781(6) 0.3355(4)
H1_8 H 0.2863 0.7574 0.2974
C4_8 C 0.3711(6) 0.8123(7) 0.3488(4)
C5_8 C 0.3838(7) 0.8462(9) 0.4068(5)
C6_8 C 0.3247(8) 0.8423(10) 0.4521(6)
H2_8 H 0.3343 0.8631 0.4903
C7_8 C 0.2531(7) 0.8067(8) 0.4377(5)
H3_8 H 0.2127 0.8027 0.4668
C8_8 C 0.4916(7) 0.8641(8) 0.3499(5)
C9_8 C 0.5717(7) 0.8910(8) 0.3304(6)
C10_8 C 0.6214(11) 0.9398(15) 0.3643(9)
H4_8 H 0.6054 0.9576 0.4021
C11_8 C 0.6964(12) 0.9617(15) 0.3405(10)
H5_8 H 0.7345 0.9884 0.3642
C12_8 C 0.7135(11) 0.9440(13) 0.2830(8)
H6_8 H 0.7599 0.9649 0.2647
C13_8 C 0.6603(7) 0.8936(7) 0.2514(6)
H7_8 H 0.6738 0.8784 0.2124
N1_8 N 0.4402(5) 0.8237(5) 0.3145(4)
N2_8 N 0.4604(6) 0.8786(8) 0.4052(5)
H8_8 H 0.4845 0.9037 0.4340
N3_8 N 0.5910(5) 0.8666(5) 0.2749(4)
C14_8 C 0.8452(5) 0.7579(6) 0.3648(4)
C15_8 C 0.7625(5) 0.7251(6) 0.3790(4)
C16_8 C 0.7035(6) 0.7219(6) 0.3355(4)
H9_8 H 0.7137 0.7426 0.2974
C17_8 C 0.6289(6) 0.6877(7) 0.3488(4)
C18_8 C 0.6162(7) 0.6538(9) 0.4068(5)
C19_8 C 0.6753(8) 0.6577(10) 0.4521(6)
H10_8 H 0.6657 0.6369 0.4903
C20_8 C 0.7469(7) 0.6933(8) 0.4377(5)
H11_8 H 0.7873 0.6973 0.4668
C21_8 C 0.5084(7) 0.6359(8) 0.3499(5)
C22_8 C 0.4283(7) 0.6090(8) 0.3304(6)
C23_8 C 0.3786(11) 0.5602(15) 0.3643(9)
H12_8 H 0.3946 0.5424 0.4021
C24_8 C 0.3036(12) 0.5383(15) 0.3405(10)
H13_8 H 0.2655 0.5116 0.3642
C25_8 C 0.2865(11) 0.5560(13) 0.2830(8)
H14_8 H 0.2401 0.5351 0.2647
C26_8 C 0.3397(7) 0.6064(7) 0.2514(6)
H15_8 H 0.3262 0.6216 0.2124
N4_8 N 0.5598(5) 0.6763(5) 0.3145(4)
N5_8 N 0.5396(6) 0.6214(8) 0.4052(5)
H16_8 H 0.5155 0.5963 0.4340
N6_8 N 0.4090(5) 0.6334(5) 0.2749(4)
loop_
_geom_bond_atom_site_label_1
_geom_bond_atom_site_label_2
_geom_bond_site_symmetry_1
_geom_bond_site_symmetry_2
C1 C2 1_555 1_555
O1 C1 1_555 1_555
O2 C1 1_555 1_555
Eu3 O2 1_555 1_555
Eu5 O1 1_555 1_555
O5 Eu1 1_555 1_555
O6 Eu1 1_555 1_555
O7 Eu1 1_555 1_555
O8 Eu1 1_555 1_555
C3 H1 1_555 1_555
C4 C3 1_555 1_555
C5 C4 1_555 1_555
C6 C5 1_555 1_555
H2 C6 1_555 1_555
C8 C9 1_555 1_555
C9 C10 1_555 1_555
C10 H4 1_555 1_555
C11 C10 1_555 1_555
H5 C11 1_555 1_555
C12 C11 1_555 1_555
H6 C12 1_555 1_555
C13 C12 1_555 1_555
N1 C4 1_555 1_555
N2 C5 1_555 1_555
H8 N2 1_555 1_555
C14 C15 1_555 1_555
C15 C16 1_555 1_555
C16 H9 1_555 1_555
C17 C16 1_555 1_555
C18 C17 1_555 1_555
C19 C18 1_555 1_555
H10 C19 1_555 1_555
C20 C15 1_555 1_555
H11 C20 1_555 1_555
C21 C22 1_555 1_555
C22 C23 1_555 1_555
C23 H12 1_555 1_555
C24 C23 1_555 1_555
H13 C24 1_555 1_555
C25 C24 1_555 1_555
C26 C25 1_555 1_555
N5 C18 1_555 1_555
H16 N5 1_555 1_555
O3 C14 1_555 1_555
O4 C14 1_555 1_555
Eu3 O4 1_555 1_555
Eu5 O3 1_555 1_555
C6 C7 1_555 1_555
C8 N1 1_555 1_555
C8 N2 1_555 1_555
C9 N3 1_555 1_555
C13 N3 1_555 1_555
C17 N4 1_555 1_555
C19 C20 1_555 1_555
C21 N4 1_555 1_555
C21 N5 1_555 1_555
C22 N6 1_555 1_555
C26 N6 1_555 1_555
C15_2 C16_2 1_555 1_555
C16_2 H9_2 1_555 1_555
C17_2 C16_2 1_555 1_555
C18_2 C17_2 1_555 1_555
C19_2 C18_2 1_555 1_555
H10_2 C19_2 1_555 1_555
C20_2 C15_2 1_555 1_555
H11_2 C20_2 1_555 1_555
C21_2 C22_2 1_555 1_555
C22_2 C23_2 1_555 1_555
C23_2 H12_2 1_555 1_555
C24_2 C23_2 1_555 1_555
H13_2 C24_2 1_555 1_555
C25_2 C24_2 1_555 1_555
C26_2 C25_2 1_555 1_555
H15_2 C26_2 1_555 1_555
N4_2 Eu1_2 1_555 1_555
N5_2 C18_2 1_555 1_555
H16_2 N5_2 1_555 1_555
N6_2 Eu1_2 1_555 1_555
O6_2 Eu1_2 1_555 1_555
O8_2 Eu1_2 1_555 1_555
C17_2 N4_2 1_555 1_555
C19_2 C20_2 1_555 1_555
C21_2 N4_2 1_555 1_555
C21_2 N5_2 1_555 1_555
C22_2 N6_2 1_555 1_555
C26_2 N6_2 1_555 1_555
O1_2 C1_2 1_555 1_555
O2_2 C1_2 1_555 1_555
Eu2 O2_2 1_555 1_555
Eu4 O1_2 1_555 1_555
Eu1_3 N1_2 1_555 1_555
C3_2 H1_2 1_555 1_555
C4_2 C3_2 1_555 1_555
C5_2 C4_2 1_555 1_555
C6_2 C5_2 1_555 1_555
H2_2 C6_2 1_555 1_555
C8_2 C9_2 1_555 1_555
C9_2 C10_2 1_555 1_555
C10_2 H4_2 1_555 1_555
C11_2 C10_2 1_555 1_555
H5_2 C11_2 1_555 1_555
C12_2 C11_2 1_555 1_555
H6_2 C12_2 1_555 1_555
C13_2 C12_2 1_555 1_555
H7_2 C13_2 1_555 1_555
N1_2 C4_2 1_555 1_555
N2_2 C5_2 1_555 1_555
H8_2 N2_2 1_555 1_555
N3_2 Eu1_3 1_555 1_555
O3_2 C14_2 1_555 1_555
O4_2 C14_2 1_555 1_555
Eu2_2 O4_2 1_555 1_555
Eu4_2 O3_2 1_555 1_555
O5_2 Eu1_3 1_555 1_555
O7_2 Eu1_3 1_555 1_555
C6_2 C7_2 1_555 1_555
C8_2 N1_2 1_555 1_555
C8_2 N2_2 1_555 1_555
C9_2 N3_2 1_555 1_555
C13_2 N3_2 1_555 1_555
C9_3 C10_3 1_555 1_555
C10_3 H4_3 1_555 1_555
C11_3 C10_3 1_555 1_555
H5_3 C11_3 1_555 1_555
C12_3 C11_3 1_555 1_555
H6_3 C12_3 1_555 1_555
C13_3 C12_3 1_555 1_555
H7_3 C13_3 1_555 1_555
N3_3 Eu2 1_555 1_555
C14_3 C15_3 1_555 1_555
C15_3 C16_3 1_555 1_555
C16_3 H9_3 1_555 1_555
C17_3 C16_3 1_555 1_555
C18_3 C17_3 1_555 1_555
C19_3 C18_3 1_555 1_555
H10_3 C19_3 1_555 1_555
C20_3 C15_3 1_555 1_555
H11_3 C20_3 1_555 1_555
N4_3 Eu2 1_555 1_555
N5_3 C18_3 1_555 1_555
H16_3 N5_3 1_555 1_555
O3_3 C14_3 1_555 1_555
O8 C14_3 1_555 1_555
Eu4_3 O3_3 1_555 1_555
O6_3 Eu2 1_555 1_555
C9_3 N3_3 1_555 1_555
C13_3 N3_3 1_555 1_555
C17_3 N4_3 1_555 1_555
C19_3 C20_3 1_555 1_555
C21_3 N4_3 1_555 1_555
C21_3 N5_3 1_555 1_555
Eu2_2 N1_3 1_555 1_555
C1_3 C2_3 1_555 1_555
C2_3 C3_3 1_555 1_555
C3_3 H1_3 1_555 1_555
C4_3 C3_3 1_555 1_555
C5_3 C4_3 1_555 1_555
C6_3 C5_3 1_555 1_555
H2_3 C6_3 1_555 1_555
C7_3 C2_3 1_555 1_555
H3_3 C7_3 1_555 1_555
N1_3 C4_3 1_555 1_555
N2_3 C5_3 1_555 1_555
H8_3 N2_3 1_555 1_555
O1_3 C1_3 1_555 1_555
O7 C1_3 1_555 1_555
C22_3 C23_3 1_555 1_555
C23_3 H12_3 1_555 1_555
C24_3 C23_3 1_555 1_555
H13_3 C24_3 1_555 1_555
C25_3 C24_3 1_555 1_555
H14_3 C25_3 1_555 1_555
C26_3 C25_3 1_555 1_555
H15_3 C26_3 1_555 1_555
N6_3 Eu2_2 1_555 1_555
Eu4_3 O1_3 1_555 1_555
O5_3 Eu2_2 1_555 1_555
C6_3 C7_3 1_555 1_555
C8_3 N1_3 1_555 1_555
C8_3 N2_3 1_555 1_555
C22_3 N6_3 1_555 1_555
C26_3 N6_3 1_555 1_555
Eu3 N1_4 1_555 1_555
C1_4 C2_4 1_555 1_555
C2_4 C3_4 1_555 1_555
C3_4 H1_4 1_555 1_555
C4_4 C3_4 1_555 1_555
C5_4 C4_4 1_555 1_555
C6_4 C5_4 1_555 1_555
H2_4 C6_4 1_555 1_555
C7_4 C2_4 1_555 1_555
H3_4 C7_4 1_555 1_555
C8_4 C9_4 1_555 1_555
C9_4 C10_4 1_555 1_555
C10_4 H4_4 1_555 1_555
C11_4 C10_4 1_555 1_555
H5_4 C11_4 1_555 1_555
C12_4 C11_4 1_555 1_555
H6_4 C12_4 1_555 1_555
C13_4 C12_4 1_555 1_555
H7_4 C13_4 1_555 1_555
N1_4 C4_4 1_555 1_555
N2_4 C5_4 1_555 1_555
H8_4 N2_4 1_555 1_555
N3_4 Eu3 1_555 1_555
O1_4 C1_4 1_555 1_555
O7_2 C1_4 1_555 1_555
C14_4 C15_4 1_555 1_555
C15_4 C16_4 1_555 1_555
C16_4 H9_4 1_555 1_555
C17_4 C16_4 1_555 1_555
C18_4 C17_4 1_555 1_555
C19_4 C18_4 1_555 1_555
H10_4 C19_4 1_555 1_555
C20_4 C15_4 1_555 1_555
H11_4 C20_4 1_555 1_555
C21_4 C22_4 1_555 1_555
C22_4 C23_4 1_555 1_555
C23_4 H12_4 1_555 1_555
C24_4 C23_4 1_555 1_555
H13_4 C24_4 1_555 1_555
C25_4 C24_4 1_555 1_555
H14_4 C25_4 1_555 1_555
C26_4 C25_4 1_555 1_555
H15_4 C26_4 1_555 1_555
N4_4 Eu3 1_555 1_555
N5_4 C18_4 1_555 1_555
H16_4 N5_4 1_555 1_555
N6_4 Eu3 1_555 1_555
O3_4 C14_4 1_555 1_555
O8_2 C14_4 1_555 1_555
Eu5_2 O3_4 1_555 1_555
Eu5_3 O1_4 1_555 1_555
O5_4 Eu3 1_555 1_555
O6_4 Eu3 1_555 1_555
C6_4 C7_4 1_555 1_555
C8_4 N1_4 1_555 1_555
C8_4 N2_4 1_555 1_555
C9_4 N3_4 1_555 1_555
C13_4 N3_4 1_555 1_555
C17_4 N4_4 1_555 1_555
C19_4 C20_4 1_555 1_555
C21_4 N4_4 1_555 1_555
C21_4 N5_4 1_555 1_555
C22_4 N6_4 1_555 1_555
C26_4 N6_4 1_555 1_555
C3_5 H1_5 1_555 1_555
C4_5 C3_5 1_555 1_555
C5_5 C4_5 1_555 1_555
C6_5 C5_5 1_555 1_555
H2_5 C6_5 1_555 1_555
C8_5 C9_5 1_555 1_555
C9_5 C10_5 1_555 1_555
C10_5 H4_5 1_555 1_555
C11_5 C10_5 1_555 1_555
H5_5 C11_5 1_555 1_555
C12_5 C11_5 1_555 1_555
H6_5 C12_5 1_555 1_555
C13_5 C12_5 1_555 1_555
N1_5 C4_5 1_555 1_555
N2_5 C5_5 1_555 1_555
H8_5 N2_5 1_555 1_555
C14_5 C15_5 1_555 1_555
C15_5 C16_5 1_555 1_555
C16_5 H9_5 1_555 1_555
C17_5 C16_5 1_555 1_555
C18_5 C17_5 1_555 1_555
C19_5 C18_5 1_555 1_555
H10_5 C19_5 1_555 1_555
C20_5 C15_5 1_555 1_555
H11_5 C20_5 1_555 1_555
C21_5 C22_5 1_555 1_555
C22_5 C23_5 1_555 1_555
C23_5 H12_5 1_555 1_555
C24_5 C23_5 1_555 1_555
H13_5 C24_5 1_555 1_555
C25_5 C24_5 1_555 1_555
C26_5 C25_5 1_555 1_555
N5_5 C18_5 1_555 1_555
H16_5 N5_5 1_555 1_555
O6 C14_5 1_555 1_555
O4_3 C14_5 1_555 1_555
Eu4_3 O4_3 1_555 1_555
C6_5 C7_5 1_555 1_555
C8_5 N1_5 1_555 1_555
C8_5 N2_5 1_555 1_555
C9_5 N3_5 1_555 1_555
C13_5 N3_5 1_555 1_555
C17_5 N4_5 1_555 1_555
C19_5 C20_5 1_555 1_555
C21_5 N4_5 1_555 1_555
C21_5 N5_5 1_555 1_555
C22_5 N6_5 1_555 1_555
C26_5 N6_5 1_555 1_555
O7_3 Eu5 1_555 1_555
O8_3 Eu5 1_555 1_555
C1_5 C2_5 1_555 1_555
O5 C1_5 1_555 1_555
O2_3 C1_5 1_555 1_555
Eu4_3 O2_3 1_555 1_555
Eu4 N1_6 1_555 1_555
C3_6 H1_6 1_555 1_555
C4_6 C3_6 1_555 1_555
C5_6 C4_6 1_555 1_555
C6_6 C5_6 1_555 1_555
H2_6 C6_6 1_555 1_555
C8_6 C9_6 1_555 1_555
C9_6 C10_6 1_555 1_555
C10_6 H4_6 1_555 1_555
C11_6 C10_6 1_555 1_555
H5_6 C11_6 1_555 1_555
C12_6 C11_6 1_555 1_555
H6_6 C12_6 1_555 1_555
C13_6 C12_6 1_555 1_555
H7_6 C13_6 1_555 1_555
N1_6 C4_6 1_555 1_555
N2_6 C5_6 1_555 1_555
H8_6 N2_6 1_555 1_555
N3_6 Eu4 1_555 1_555
O6_2 C14_6 1_555 1_555
O4_4 C14_6 1_555 1_555
Eu5_2 O4_4 1_555 1_555
O7_4 Eu4 1_555 1_555
C6_6 C7_6 1_555 1_555
C8_6 N1_6 1_555 1_555
C8_6 N2_6 1_555 1_555
C9_6 N3_6 1_555 1_555
C13_6 N3_6 1_555 1_555
O5_2 C1_6 1_555 1_555
O2_4 C1_6 1_555 1_555
Eu5_3 O2_4 1_555 1_555
C15_6 C16_6 1_555 1_555
C16_6 H9_6 1_555 1_555
C17_6 C16_6 1_555 1_555
C18_6 C17_6 1_555 1_555
C19_6 C18_6 1_555 1_555
H10_6 C19_6 1_555 1_555
C20_6 C15_6 1_555 1_555
H11_6 C20_6 1_555 1_555
C21_6 C22_6 1_555 1_555
C22_6 C23_6 1_555 1_555
C23_6 H12_6 1_555 1_555
C24_6 C23_6 1_555 1_555
H13_6 C24_6 1_555 1_555
C25_6 C24_6 1_555 1_555
C26_6 C25_6 1_555 1_555
H15_6 C26_6 1_555 1_555
N4_6 Eu4_2 1_555 1_555
N5_6 C18_6 1_555 1_555
H16_6 N5_6 1_555 1_555
N6_6 Eu4_2 1_555 1_555
O8_4 Eu4_2 1_555 1_555
C17_6 N4_6 1_555 1_555
C19_6 C20_6 1_555 1_555
C21_6 N4_6 1_555 1_555
C21_6 N5_6 1_555 1_555
C22_6 N6_6 1_555 1_555
C26_6 N6_6 1_555 1_555
Eu5_2 N1_7 1_555 1_555
C1_7 C2_7 1_555 1_555
C2_7 C3_7 1_555 1_555
C3_7 H1_7 1_555 1_555
C4_7 C3_7 1_555 1_555
C5_7 C4_7 1_555 1_555
C6_7 C5_7 1_555 1_555
H2_7 C6_7 1_555 1_555
C7_7 C2_7 1_555 1_555
H3_7 C7_7 1_555 1_555
N1_7 C4_7 1_555 1_555
N2_7 C5_7 1_555 1_555
H8_7 N2_7 1_555 1_555
O6_4 C1_7 1_555 1_555
O7_3 C1_7 1_555 1_555
C22_7 C23_7 1_555 1_555
C23_7 H12_7 1_555 1_555
C24_7 C23_7 1_555 1_555
H13_7 C24_7 1_555 1_555
C25_7 C24_7 1_555 1_555
H14_7 C25_7 1_555 1_555
C26_7 C25_7 1_555 1_555
H15_7 C26_7 1_555 1_555
N6_7 Eu5_2 1_555 1_555
C6_7 C7_7 1_555 1_555
C8_7 N1_7 1_555 1_555
C8_7 N2_7 1_555 1_555
C22_7 N6_7 1_555 1_555
C26_7 N6_7 1_555 1_555
C9_7 C10_7 1_555 1_555
C10_7 H4_7 1_555 1_555
C11_7 C10_7 1_555 1_555
H5_7 C11_7 1_555 1_555
C12_7 C11_7 1_555 1_555
H6_7 C12_7 1_555 1_555
C13_7 C12_7 1_555 1_555
H7_7 C13_7 1_555 1_555
N3_7 Eu5_3 1_555 1_555
C14_7 C15_7 1_555 1_555
C15_7 C16_7 1_555 1_555
C16_7 H9_7 1_555 1_555
C17_7 C16_7 1_555 1_555
C18_7 C17_7 1_555 1_555
C19_7 C18_7 1_555 1_555
H10_7 C19_7 1_555 1_555
C20_7 C15_7 1_555 1_555
H11_7 C20_7 1_555 1_555
N4_7 Eu5_3 1_555 1_555
N5_7 C18_7 1_555 1_555
H16_7 N5_7 1_555 1_555
O5_4 C14_7 1_555 1_555
O8_3 C14_7 1_555 1_555
C9_7 N3_7 1_555 1_555
C13_7 N3_7 1_555 1_555
C17_7 N4_7 1_555 1_555
C19_7 C20_7 1_555 1_555
C21_7 N4_7 1_555 1_555
C21_7 N5_7 1_555 1_555
Eu4_3 N1_8 1_555 1_555
C1_8 C2_8 1_555 1_555
C2_8 C3_8 1_555 1_555
C3_8 H1_8 1_555 1_555
C4_8 C3_8 1_555 1_555
C5_8 C4_8 1_555 1_555
C6_8 C5_8 1_555 1_555
H2_8 C6_8 1_555 1_555
C7_8 C2_8 1_555 1_555
H3_8 C7_8 1_555 1_555
C8_8 C9_8 1_555 1_555
C9_8 C10_8 1_555 1_555
C10_8 H4_8 1_555 1_555
C11_8 C10_8 1_555 1_555
H5_8 C11_8 1_555 1_555
C12_8 C11_8 1_555 1_555
H6_8 C12_8 1_555 1_555
C13_8 C12_8 1_555 1_555
H7_8 C13_8 1_555 1_555
N1_8 C4_8 1_555 1_555
N2_8 C5_8 1_555 1_555
H8_8 N2_8 1_555 1_555
N3_8 Eu4_3 1_555 1_555
O6_3 C1_8 1_555 1_555
O7_4 C1_8 1_555 1_555
C14_8 C15_8 1_555 1_555
C15_8 C16_8 1_555 1_555
C16_8 H9_8 1_555 1_555
C17_8 C16_8 1_555 1_555
C18_8 C17_8 1_555 1_555
C19_8 C18_8 1_555 1_555
H10_8 C19_8 1_555 1_555
C20_8 C15_8 1_555 1_555
H11_8 C20_8 1_555 1_555
C21_8 C22_8 1_555 1_555
C22_8 C23_8 1_555 1_555
C23_8 H12_8 1_555 1_555
C24_8 C23_8 1_555 1_555
H13_8 C24_8 1_555 1_555
C25_8 C24_8 1_555 1_555
H14_8 C25_8 1_555 1_555
C26_8 C25_8 1_555 1_555
H15_8 C26_8 1_555 1_555
N4_8 Eu4_3 1_555 1_555
N5_8 C18_8 1_555 1_555
H16_8 N5_8 1_555 1_555
N6_8 Eu4_3 1_555 1_555
O5_3 C14_8 1_555 1_555
O8_4 C14_8 1_555 1_555
C6_8 C7_8 1_555 1_555
C8_8 N1_8 1_555 1_555
C8_8 N2_8 1_555 1_555
C9_8 N3_8 1_555 1_555
C13_8 N3_8 1_555 1_555
C17_8 N4_8 1_555 1_555
C19_8 C20_8 1_555 1_555
C21_8 N4_8 1_555 1_555
C21_8 N5_8 1_555 1_555
C22_8 N6_8 1_555 1_555
C26_8 N6_8 1_555 1_555

#END
