
###############################################################################
#
# This file contains modified crystal structure data generated from the
# MOF subset of the Cambridge Structural Database (CSD) v543 
# hosted by the Cambridge Crystallographic Data Centre (CCDC).
#
# This work is licensed under the Creative Commons
# Attribution-NonCommercial-ShareAlike 4.0 International License.
# To view a copy of this license, visit
# http://creativecommons.org/licenses/by-nc-sa/4.0/
# or send a letter to
# Creative Commons, PO Box 1866, Mountain View, CA 94042, USA.
#
# CIF created using the CSD Python API on 29 September 2022
# The structure has been converted into the P1 space group
# The structure has a 3D framework
# The original CSD entry KAFDEE is in the tetragonal crystal system
# The framework has been calculated to contain at least 10.0% void space
# The void calculation uses a probe of radius 1.32A, grid spacing 0.4
# The framework is charged, counterions have been retained in the structure
#
###############################################################################

data_KAFDEE
_chemical_formula_moiety         '(C208 H128 Dy8 N48 O32 8+)n'
_symmetry_cell_setting           triclinic
_symmetry_space_group_name_H-M   'P 1'
_symmetry_Int_Tables_number      1
_space_group_name_Hall           'P 1'
loop_
_symmetry_equiv_pos_site_id
_symmetry_equiv_pos_as_xyz
1 x,y,z
_cell_length_a                   16.3406(10)
_cell_length_b                   16.3406(10)
_cell_length_c                   22.204(3)
_cell_angle_alpha                90
_cell_angle_beta                 90
_cell_angle_gamma                90
_cell_volume                     5928.81
loop_
_atom_site_label
_atom_site_type_symbol
_atom_site_fract_x
_atom_site_fract_y
_atom_site_fract_z
Dy1 Dy 0.5000 0.2500 0.47339(3)
N1 N 0.5716(7) 0.1900(6) 0.5640(5)
N2 N 0.6272(10) 0.2113(8) 0.6541(6)
H1 H 0.6525 0.2363 0.6838
N3 N 0.6146(6) 0.3417(6) 0.5234(5)
C3 C 0.5259(8) 0.0451(7) 0.5846(6)
H2 H 0.5037 0.0347 0.5458
C4 C 0.5617(8) 0.1205(7) 0.5989(6)
C5 C 0.5955(10) 0.1337(8) 0.6554(7)
C6 C 0.5913(12) 0.0748(9) 0.7017(7)
H3 H 0.6121 0.0855 0.7408
C7 C 0.5559(10) 0.0014(8) 0.6873(7)
C8 C 0.6127(10) 0.2422(9) 0.5996(6)
C9 C 0.6394(10) 0.3219(9) 0.5788(7)
C10 C 0.6892(16) 0.3732(13) 0.6127(10)
H5 H 0.7079 0.3566 0.6514
C11 C 0.7113(15) 0.4481(13) 0.5898(10)
H6 H 0.7395 0.4870 0.6139
C12 C 0.6913(15) 0.4651(12) 0.5308(10)
H7 H 0.7113 0.5133 0.5119
C13 C 0.6421(8) 0.4115(9) 0.4995(7)
H8 H 0.6270 0.4247 0.4593
O3 O 0.5222(5) 0.6161(5) 0.5608(4)
O4 O 0.5192(5) 0.6453(5) 0.6593(4)
N4 N 0.4284(7) 0.3100(6) 0.5640(5)
N5 N 0.3728(10) 0.2887(8) 0.6541(6)
H9 H 0.3475 0.2637 0.6838
N6 N 0.3854(6) 0.1583(6) 0.5234(5)
C14 C 0.5089(7) 0.5966(6) 0.6152(6)
C15 C 0.4757(7) 0.5130(7) 0.6291(6)
C16 C 0.4741(8) 0.4549(7) 0.5846(6)
H10 H 0.4963 0.4653 0.5458
C17 C 0.4383(8) 0.3795(7) 0.5989(6)
C18 C 0.4045(10) 0.3663(8) 0.6554(7)
C19 C 0.4087(12) 0.4252(9) 0.7017(7)
H11 H 0.3879 0.4145 0.7408
C20 C 0.4441(10) 0.4986(8) 0.6873(7)
H12 H 0.4475 0.5403 0.7170
C21 C 0.3873(10) 0.2578(9) 0.5996(6)
C22 C 0.3606(10) 0.1781(9) 0.5788(7)
C23 C 0.3108(16) 0.1268(13) 0.6127(10)
H13 H 0.2921 0.1434 0.6514
C24 C 0.2887(15) 0.0519(13) 0.5898(10)
H14 H 0.2605 0.0130 0.6139
C25 C 0.3087(15) 0.0349(12) 0.5308(10)
C26 C 0.3579(8) 0.0885(9) 0.4995(7)
H16 H 0.3730 0.0753 0.4593
Dy3 Dy 0.5000 0.7500 0.72339(3)
Dy5 Dy 0.5000 0.7500 0.52661(3)
O5 O 0.5222(5) 0.1161(5) 0.4392(4)
O6 O 0.4778(5) 0.3839(5) 0.4392(4)
O7 O 0.6047(5) 0.2692(5) 0.4093(4)
O8 O 0.3953(5) 0.2308(5) 0.4093(4)
O1 O 0.4778(5) 0.8839(5) 0.5608(4)
O2 O 0.4808(5) 0.8547(5) 0.6593(4)
C1 C 0.4911(7) 0.9034(6) 0.6152(6)
C2 C 0.5243(7) 0.9870(7) 0.6291(6)
H4 H 0.5525 0.9597 0.7170
H15 H 0.2887 0.9867 0.5119
O1_2 O 0.0222(5) 0.1161(5) 0.0608(4)
O2_2 O 0.0192(5) 0.1453(5) 0.1593(4)
C1_2 C 0.0089(7) 0.0966(6) 0.1152(6)
H15_2 H 0.2113 0.0133 0.0119
Dy2 Dy 0.0000 0.2500 0.22339(3)
Dy4 Dy 0.0000 0.2500 0.02661(3)
N4_2 N 0.0716(7) 0.6900(6) 0.0640(5)
N5_2 N 0.1272(10) 0.7113(8) 0.1541(6)
H9_2 H 0.1525 0.7363 0.1838
N6_2 N 0.1146(6) 0.8417(6) 0.0234(5)
C15_2 C 0.0243(7) 0.4870(7) 0.1291(6)
C16_2 C 0.0259(8) 0.5451(7) 0.0846(6)
H10_2 H 0.0037 0.5347 0.0458
C17_2 C 0.0617(8) 0.6205(7) 0.0989(6)
C18_2 C 0.0955(10) 0.6337(8) 0.1554(7)
C19_2 C 0.0913(12) 0.5748(9) 0.2017(7)
H11_2 H 0.1121 0.5855 0.2408
C20_2 C 0.0559(10) 0.5014(8) 0.1873(7)
H12_2 H 0.0525 0.4597 0.2170
C21_2 C 0.1127(10) 0.7422(9) 0.0996(6)
C22_2 C 0.1394(10) 0.8219(9) 0.0788(7)
C23_2 C 0.1892(16) 0.8732(13) 0.1127(10)
H13_2 H 0.2079 0.8566 0.1514
C24_2 C 0.2113(15) 0.9481(13) 0.0898(10)
H14_2 H 0.2395 0.9870 0.1139
C25_2 C 0.1913(15) 0.9651(12) 0.0308(10)
Dy1_2 Dy 0.0000 0.7500 0.97339(3)
C26_2 C 0.1421(8) 0.9115(9) 0.9995(7)
H16_2 H 0.1270 0.9247 0.9593
O6_2 O 0.0222(5) 0.6161(5) 0.9392(4)
O8_2 O 0.1047(5) 0.7692(5) 0.9093(4)
C2_2 C 0.9757(7) 0.0130(7) 0.1291(6)
H4_2 H 0.9475 0.0403 0.2170
Dy2_2 Dy 1.0000 0.2500 0.22339(3)
Dy4_2 Dy 1.0000 0.2500 0.02661(3)
N1_2 N 0.9284(7) 0.8100(6) 0.0640(5)
N2_2 N 0.8728(10) 0.7887(8) 0.1541(6)
H1_2 H 0.8475 0.7637 0.1838
N3_2 N 0.8854(6) 0.6583(6) 0.0234(5)
C3_2 C 0.9741(8) 0.9549(7) 0.0846(6)
H2_2 H 0.9963 0.9653 0.0458
C4_2 C 0.9383(8) 0.8795(7) 0.0989(6)
C5_2 C 0.9045(10) 0.8663(8) 0.1554(7)
C6_2 C 0.9087(12) 0.9252(9) 0.2017(7)
H3_2 H 0.8879 0.9145 0.2408
C7_2 C 0.9441(10) 0.9986(8) 0.1873(7)
C8_2 C 0.8873(10) 0.7578(9) 0.0996(6)
C9_2 C 0.8606(10) 0.6781(9) 0.0788(7)
C10_2 C 0.8108(16) 0.6268(13) 0.1127(10)
H5_2 H 0.7921 0.6434 0.1514
C11_2 C 0.7887(15) 0.5519(13) 0.0898(10)
H6_2 H 0.7605 0.5130 0.1139
C12_2 C 0.8087(15) 0.5349(12) 0.0308(10)
H7_2 H 0.7887 0.4867 0.0119
O3_2 O 0.9778(5) 0.3839(5) 0.0608(4)
O4_2 O 0.9808(5) 0.3547(5) 0.1593(4)
C14_2 C 0.9911(7) 0.4034(6) 0.1152(6)
Dy1_3 Dy 1.0000 0.7500 0.97339(3)
C13_2 C 0.8579(8) 0.5885(9) 0.9995(7)
H8_2 H 0.8730 0.5753 0.9593
O5_2 O 0.9778(5) 0.8839(5) 0.9392(4)
O7_2 O 0.8953(5) 0.7308(5) 0.9093(4)
Dy4_3 Dy -0.0000 0.7500 0.77661(3)
O1_3 O 0.8661(5) 0.7278(5) 0.8108(4)
N1_3 N 0.5600(6) 0.8216(7) 0.8140(5)
N2_3 N 0.5387(8) 0.8772(10) 0.9041(6)
H1_3 H 0.5137 0.9025 0.9338
N3_3 N 0.4083(6) 0.8646(6) 0.7734(5)
C1_3 C 0.8466(6) 0.7411(7) 0.8652(6)
C2_3 C 0.7630(7) 0.7743(7) 0.8791(6)
C3_3 C 0.7049(7) 0.7759(8) 0.8346(6)
H2_3 H 0.7153 0.7537 0.7958
C4_3 C 0.6295(7) 0.8117(8) 0.8489(6)
C5_3 C 0.6163(8) 0.8455(10) 0.9054(7)
C6_3 C 0.6752(9) 0.8413(12) 0.9517(7)
H3_3 H 0.6645 0.8621 0.9908
C7_3 C 0.7486(8) 0.8059(10) 0.9373(7)
H4_3 H 0.7903 0.8025 0.9670
C8_3 C 0.5078(9) 0.8627(10) 0.8496(6)
C9_3 C 0.4281(9) 0.8894(10) 0.8288(7)
C10_3 C 0.3768(13) 0.9392(16) 0.8627(10)
H5_3 H 0.3934 0.9579 0.9014
C11_3 C 0.3019(13) 0.9613(15) 0.8398(10)
H6_3 H 0.2630 0.9895 0.8639
C12_3 C 0.2849(12) 0.9413(15) 0.7808(10)
H7_3 H 0.2367 0.9613 0.7619
C13_3 C 0.3385(9) 0.8921(8) 0.7495(7)
H8_3 H 0.3253 0.8770 0.7093
O3_3 O 0.1339(5) 0.7722(5) 0.8108(4)
N4_3 N 0.4400(6) 0.6784(7) 0.8140(5)
N5_3 N 0.4613(8) 0.6228(10) 0.9041(6)
H9_3 H 0.4863 0.5975 0.9338
N6_3 N 0.5917(6) 0.6354(6) 0.7734(5)
C14_3 C 0.1534(6) 0.7589(7) 0.8652(6)
C15_3 C 0.2370(7) 0.7257(7) 0.8791(6)
C16_3 C 0.2951(7) 0.7241(8) 0.8346(6)
H10_3 H 0.2847 0.7463 0.7958
C17_3 C 0.3705(7) 0.6883(8) 0.8489(6)
C18_3 C 0.3837(8) 0.6545(10) 0.9054(7)
C19_3 C 0.3248(9) 0.6587(12) 0.9517(7)
H11_3 H 0.3355 0.6379 0.9908
C20_3 C 0.2514(8) 0.6941(10) 0.9373(7)
H12_3 H 0.2097 0.6975 0.9670
C21_3 C 0.4922(9) 0.6373(10) 0.8496(6)
C22_3 C 0.5719(9) 0.6106(10) 0.8288(7)
C23_3 C 0.6232(13) 0.5608(16) 0.8627(10)
H13_3 H 0.6066 0.5421 0.9014
C24_3 C 0.6981(13) 0.5387(15) 0.8398(10)
H14_3 H 0.7370 0.5105 0.8639
C25_3 C 0.7151(12) 0.5587(15) 0.7808(10)
H15_3 H 0.7633 0.5387 0.7619
C26_3 C 0.6615(9) 0.6079(8) 0.7495(7)
H16_3 H 0.6747 0.6230 0.7093
Dy4_4 Dy 1.0000 0.7500 0.77661(3)
O5_3 O 0.6339(5) 0.7722(5) 0.6892(4)
O6_3 O 0.3661(5) 0.7278(5) 0.6892(4)
N3_4 N 0.0917(6) 0.1354(6) 0.2734(5)
C9_4 C 0.0719(9) 0.1106(10) 0.3288(7)
C10_4 C 0.1232(13) 0.0608(16) 0.3627(10)
H5_4 H 0.1066 0.0421 0.4014
C11_4 C 0.1981(13) 0.0387(15) 0.3398(10)
H6_4 H 0.2370 0.0105 0.3639
C12_4 C 0.2151(12) 0.0587(15) 0.2808(10)
H7_4 H 0.2633 0.0387 0.2619
C13_4 C 0.1615(9) 0.1079(8) 0.2495(7)
H8_4 H 0.1747 0.1230 0.2093
O3_4 O 0.3661(5) 0.2278(5) 0.3108(4)
N4_4 N 0.0600(6) 0.3216(7) 0.3140(5)
N5_4 N 0.0387(8) 0.3772(10) 0.4041(6)
H9_4 H 0.0137 0.4025 0.4338
C14_4 C 0.3466(6) 0.2411(7) 0.3652(6)
C15_4 C 0.2630(7) 0.2743(7) 0.3791(6)
C16_4 C 0.2049(7) 0.2759(8) 0.3346(6)
H10_4 H 0.2153 0.2537 0.2958
C17_4 C 0.1295(7) 0.3117(8) 0.3489(6)
C18_4 C 0.1163(8) 0.3455(10) 0.4054(7)
C19_4 C 0.1752(9) 0.3413(12) 0.4517(7)
H11_4 H 0.1645 0.3621 0.4908
C20_4 C 0.2486(8) 0.3059(10) 0.4373(7)
H12_4 H 0.2903 0.3025 0.4670
C21_4 C 0.0078(9) 0.3627(10) 0.3496(6)
Dy5_2 Dy 0.5000 0.2500 0.27661(3)
O6_4 O 0.1339(5) 0.2722(5) 0.1892(4)
O1_4 O 0.6339(5) 0.2722(5) 0.3108(4)
N1_4 N 0.9400(6) 0.1784(7) 0.3140(5)
N2_4 N 0.9613(8) 0.1228(10) 0.4041(6)
H1_4 H 0.9863 0.0975 0.4338
C1_4 C 0.6534(6) 0.2589(7) 0.3652(6)
C2_4 C 0.7370(7) 0.2257(7) 0.3791(6)
C3_4 C 0.7951(7) 0.2241(8) 0.3346(6)
H2_4 H 0.7847 0.2463 0.2958
C4_4 C 0.8705(7) 0.1883(8) 0.3489(6)
C5_4 C 0.8837(8) 0.1545(10) 0.4054(7)
C6_4 C 0.8248(9) 0.1587(12) 0.4517(7)
H3_4 H 0.8355 0.1379 0.4908
C7_4 C 0.7514(8) 0.1941(10) 0.4373(7)
H4_4 H 0.7097 0.1975 0.4670
C8_4 C 0.9922(9) 0.1373(10) 0.3496(6)
N6_4 N 0.9083(6) 0.3646(6) 0.2734(5)
C22_4 C 0.9281(9) 0.3894(10) 0.3288(7)
C23_4 C 0.8768(13) 0.4392(16) 0.3627(10)
H13_4 H 0.8934 0.4579 0.4014
C24_4 C 0.8019(13) 0.4613(15) 0.3398(10)
H14_4 H 0.7630 0.4895 0.3639
C25_4 C 0.7849(12) 0.4413(15) 0.2808(10)
H15_4 H 0.7367 0.4613 0.2619
C26_4 C 0.8385(9) 0.3921(8) 0.2495(7)
H16_4 H 0.8253 0.3770 0.2093
O5_4 O 0.8661(5) 0.2278(5) 0.1892(4)
O2_3 O 0.5192(5) 0.1453(5) 0.3407(4)
C1_5 C 0.5089(7) 0.0966(6) 0.3848(6)
C2_5 C 0.4757(7) 0.0130(7) 0.3709(6)
H4_5 H 0.4475 0.0403 0.2830
H15_5 H 0.7113 0.0133 0.4881
N1_5 N 0.4284(7) 0.8100(6) 0.4360(5)
N2_5 N 0.3728(10) 0.7887(8) 0.3459(6)
H1_5 H 0.3475 0.7637 0.3162
N3_5 N 0.3854(6) 0.6583(6) 0.4766(5)
C3_5 C 0.4741(8) 0.9549(7) 0.4154(6)
H2_5 H 0.4963 0.9653 0.4542
C4_5 C 0.4383(8) 0.8795(7) 0.4011(6)
C5_5 C 0.4045(10) 0.8663(8) 0.3446(7)
C6_5 C 0.4087(12) 0.9252(9) 0.2983(7)
H3_5 H 0.3879 0.9145 0.2592
C7_5 C 0.4441(10) 0.9986(8) 0.3127(7)
C8_5 C 0.3873(10) 0.7578(9) 0.4004(6)
C9_5 C 0.3606(10) 0.6781(9) 0.4212(7)
C10_5 C 0.3108(16) 0.6268(13) 0.3873(10)
H5_5 H 0.2921 0.6434 0.3486
C11_5 C 0.2887(15) 0.5519(13) 0.4102(10)
H6_5 H 0.2605 0.5130 0.3861
C12_5 C 0.3087(15) 0.5349(12) 0.4692(10)
H7_5 H 0.2887 0.4867 0.4881
C13_5 C 0.3579(8) 0.5885(9) 0.5005(7)
H8_5 H 0.3730 0.5753 0.5407
O4_3 O 0.4808(5) 0.3547(5) 0.3407(4)
N4_5 N 0.5716(7) 0.6900(6) 0.4360(5)
N5_5 N 0.6272(10) 0.7113(8) 0.3459(6)
H9_5 H 0.6525 0.7363 0.3162
N6_5 N 0.6146(6) 0.8417(6) 0.4766(5)
C14_5 C 0.4911(7) 0.4034(6) 0.3848(6)
C15_5 C 0.5243(7) 0.4870(7) 0.3709(6)
C16_5 C 0.5259(8) 0.5451(7) 0.4154(6)
H10_5 H 0.5037 0.5347 0.4542
C17_5 C 0.5617(8) 0.6205(7) 0.4011(6)
C18_5 C 0.5955(10) 0.6337(8) 0.3446(7)
C19_5 C 0.5913(12) 0.5748(9) 0.2983(7)
H11_5 H 0.6121 0.5855 0.2592
C20_5 C 0.5559(10) 0.5014(8) 0.3127(7)
H12_5 H 0.5525 0.4597 0.2830
C21_5 C 0.6127(10) 0.7422(9) 0.4004(6)
C22_5 C 0.6394(10) 0.8219(9) 0.4212(7)
C23_5 C 0.6892(16) 0.8732(13) 0.3873(10)
H13_5 H 0.7079 0.8566 0.3486
C24_5 C 0.7113(15) 0.9481(13) 0.4102(10)
H14_5 H 0.7395 0.9870 0.3861
C25_5 C 0.6913(15) 0.9651(12) 0.4692(10)
C26_5 C 0.6421(8) 0.9115(9) 0.5005(7)
H16_5 H 0.6270 0.9247 0.5407
O7_3 O 0.3953(5) 0.7308(5) 0.5907(4)
O8_3 O 0.6047(5) 0.7692(5) 0.5907(4)
C13_6 C 0.1421(8) 0.4115(9) 0.0005(7)
H8_6 H 0.1270 0.4247 0.0407
O7_4 O 0.1047(5) 0.2692(5) 0.0907(4)
N1_6 N 0.0716(7) 0.1900(6) 0.9360(5)
N2_6 N 0.1272(10) 0.2113(8) 0.8459(6)
H1_6 H 0.1525 0.2363 0.8162
N3_6 N 0.1146(6) 0.3417(6) 0.9766(5)
C3_6 C 0.0259(8) 0.0451(7) 0.9154(6)
H2_6 H 0.0037 0.0347 0.9542
C4_6 C 0.0617(8) 0.1205(7) 0.9011(6)
C5_6 C 0.0955(10) 0.1337(8) 0.8446(7)
C6_6 C 0.0913(12) 0.0748(9) 0.7983(7)
H3_6 H 0.1121 0.0855 0.7592
C7_6 C 0.0559(10) 0.0014(8) 0.8127(7)
C8_6 C 0.1127(10) 0.2422(9) 0.9004(6)
C9_6 C 0.1394(10) 0.3219(9) 0.9212(7)
C10_6 C 0.1892(16) 0.3732(13) 0.8873(10)
H5_6 H 0.2079 0.3566 0.8486
C11_6 C 0.2113(15) 0.4481(13) 0.9102(10)
H6_6 H 0.2395 0.4870 0.8861
C12_6 C 0.1913(15) 0.4651(12) 0.9692(10)
H7_6 H 0.2113 0.5133 0.9881
O4_4 O 0.0192(5) 0.6453(5) 0.8407(4)
C14_6 C 0.0089(7) 0.5966(6) 0.8848(6)
C2_6 C 0.0243(7) 0.9870(7) 0.8709(6)
H4_6 H 0.0525 0.9597 0.7830
C26_6 C 0.8579(8) 0.0885(9) 0.0005(7)
H16_6 H 0.8730 0.0753 0.0407
O8_4 O 0.8953(5) 0.2308(5) 0.0907(4)
N4_6 N 0.9284(7) 0.3100(6) 0.9360(5)
N5_6 N 0.8728(10) 0.2887(8) 0.8459(6)
H9_6 H 0.8475 0.2637 0.8162
N6_6 N 0.8854(6) 0.1583(6) 0.9766(5)
C15_6 C 0.9757(7) 0.5130(7) 0.8709(6)
C16_6 C 0.9741(8) 0.4549(7) 0.9154(6)
H10_6 H 0.9963 0.4653 0.9542
C17_6 C 0.9383(8) 0.3795(7) 0.9011(6)
C18_6 C 0.9045(10) 0.3663(8) 0.8446(7)
C19_6 C 0.9087(12) 0.4252(9) 0.7983(7)
H11_6 H 0.8879 0.4145 0.7592
C20_6 C 0.9441(10) 0.4986(8) 0.8127(7)
H12_6 H 0.9475 0.5403 0.7830
C21_6 C 0.8873(10) 0.2578(9) 0.9004(6)
C22_6 C 0.8606(10) 0.1781(9) 0.9212(7)
C23_6 C 0.8108(16) 0.1268(13) 0.8873(10)
H13_6 H 0.7921 0.1434 0.8486
C24_6 C 0.7887(15) 0.0519(13) 0.9102(10)
H14_6 H 0.7605 0.0130 0.8861
C25_6 C 0.8087(15) 0.0349(12) 0.9692(10)
O2_4 O 0.9808(5) 0.8547(5) 0.8407(4)
C1_6 C 0.9911(7) 0.9034(6) 0.8848(6)
H15_6 H 0.7887 0.9867 0.9881
N1_7 N 0.4400(6) 0.1784(7) 0.1860(5)
N2_7 N 0.4613(8) 0.1228(10) 0.0959(6)
H1_7 H 0.4863 0.0975 0.0662
N3_7 N 0.5917(6) 0.1354(6) 0.2266(5)
C1_7 C 0.1534(6) 0.2589(7) 0.1348(6)
C2_7 C 0.2370(7) 0.2257(7) 0.1209(6)
C3_7 C 0.2951(7) 0.2241(8) 0.1654(6)
H2_7 H 0.2847 0.2463 0.2042
C4_7 C 0.3705(7) 0.1883(8) 0.1511(6)
C5_7 C 0.3837(8) 0.1545(10) 0.0946(7)
C6_7 C 0.3248(9) 0.1587(12) 0.0483(7)
H3_7 H 0.3355 0.1379 0.0092
C7_7 C 0.2514(8) 0.1941(10) 0.0627(7)
H4_7 H 0.2097 0.1975 0.0330
C8_7 C 0.4922(9) 0.1373(10) 0.1504(6)
C9_7 C 0.5719(9) 0.1106(10) 0.1712(7)
C10_7 C 0.6232(13) 0.0608(16) 0.1373(10)
H5_7 H 0.6066 0.0421 0.0986
C11_7 C 0.6981(13) 0.0387(15) 0.1602(10)
H6_7 H 0.7370 0.0105 0.1361
C12_7 C 0.7151(12) 0.0587(15) 0.2192(10)
H7_7 H 0.7633 0.0387 0.2381
C13_7 C 0.6615(9) 0.1079(8) 0.2505(7)
H8_7 H 0.6747 0.1230 0.2907
N4_7 N 0.5600(6) 0.3216(7) 0.1860(5)
N5_7 N 0.5387(8) 0.3772(10) 0.0959(6)
H9_7 H 0.5137 0.4025 0.0662
N6_7 N 0.4083(6) 0.3646(6) 0.2266(5)
C14_7 C 0.8466(6) 0.2411(7) 0.1348(6)
C15_7 C 0.7630(7) 0.2743(7) 0.1209(6)
C16_7 C 0.7049(7) 0.2759(8) 0.1654(6)
H10_7 H 0.7153 0.2537 0.2042
C17_7 C 0.6295(7) 0.3117(8) 0.1511(6)
C18_7 C 0.6163(8) 0.3455(10) 0.0946(7)
C19_7 C 0.6752(9) 0.3413(12) 0.0483(7)
H11_7 H 0.6645 0.3621 0.0092
C20_7 C 0.7486(8) 0.3059(10) 0.0627(7)
H12_7 H 0.7903 0.3025 0.0330
C21_7 C 0.5078(9) 0.3627(10) 0.1504(6)
C22_7 C 0.4281(9) 0.3894(10) 0.1712(7)
C23_7 C 0.3768(13) 0.4392(16) 0.1373(10)
H13_7 H 0.3934 0.4579 0.0986
C24_7 C 0.3019(13) 0.4613(15) 0.1602(10)
H14_7 H 0.2630 0.4895 0.1361
C25_7 C 0.2849(12) 0.4413(15) 0.2192(10)
H15_7 H 0.2367 0.4613 0.2381
C26_7 C 0.3385(9) 0.3921(8) 0.2505(7)
H16_7 H 0.3253 0.3770 0.2907
N1_8 N 0.0600(6) 0.8216(7) 0.6860(5)
N2_8 N 0.0387(8) 0.8772(10) 0.5959(6)
H1_8 H 0.0137 0.9025 0.5662
C1_8 C 0.3466(6) 0.7411(7) 0.6348(6)
C2_8 C 0.2630(7) 0.7743(7) 0.6209(6)
C3_8 C 0.2049(7) 0.7759(8) 0.6654(6)
H2_8 H 0.2153 0.7537 0.7042
C4_8 C 0.1295(7) 0.8117(8) 0.6511(6)
C5_8 C 0.1163(8) 0.8455(10) 0.5946(7)
C6_8 C 0.1752(9) 0.8413(12) 0.5483(7)
H3_8 H 0.1645 0.8621 0.5092
C7_8 C 0.2486(8) 0.8059(10) 0.5627(7)
H4_8 H 0.2903 0.8025 0.5330
C8_8 C 0.0078(9) 0.8627(10) 0.6504(6)
N6_8 N 0.0917(6) 0.6354(6) 0.7266(5)
C22_8 C 0.0719(9) 0.6106(10) 0.6712(7)
C23_8 C 0.1232(13) 0.5608(16) 0.6373(10)
H13_8 H 0.1066 0.5421 0.5986
C24_8 C 0.1981(13) 0.5387(15) 0.6602(10)
H14_8 H 0.2370 0.5105 0.6361
C25_8 C 0.2151(12) 0.5587(15) 0.7192(10)
H15_8 H 0.2633 0.5387 0.7381
C26_8 C 0.1615(9) 0.6079(8) 0.7505(7)
H16_8 H 0.1747 0.6230 0.7907
N3_8 N 0.9083(6) 0.8646(6) 0.7266(5)
C9_8 C 0.9281(9) 0.8894(10) 0.6712(7)
C10_8 C 0.8768(13) 0.9392(16) 0.6373(10)
H5_8 H 0.8934 0.9579 0.5986
C11_8 C 0.8019(13) 0.9613(15) 0.6602(10)
H6_8 H 0.7630 0.9895 0.6361
C12_8 C 0.7849(12) 0.9413(15) 0.7192(10)
H7_8 H 0.7367 0.9613 0.7381
C13_8 C 0.8385(9) 0.8921(8) 0.7505(7)
H8_8 H 0.8253 0.8770 0.7907
N4_8 N 0.9400(6) 0.6784(7) 0.6860(5)
N5_8 N 0.9613(8) 0.6228(10) 0.5959(6)
H9_8 H 0.9863 0.5975 0.5662
C14_8 C 0.6534(6) 0.7589(7) 0.6348(6)
C15_8 C 0.7370(7) 0.7257(7) 0.6209(6)
C16_8 C 0.7951(7) 0.7241(8) 0.6654(6)
H10_8 H 0.7847 0.7463 0.7042
C17_8 C 0.8705(7) 0.6883(8) 0.6511(6)
C18_8 C 0.8837(8) 0.6545(10) 0.5946(7)
C19_8 C 0.8248(9) 0.6587(12) 0.5483(7)
H11_8 H 0.8355 0.6379 0.5092
C20_8 C 0.7514(8) 0.6941(10) 0.5627(7)
H12_8 H 0.7097 0.6975 0.5330
C21_8 C 0.9922(9) 0.6373(10) 0.6504(6)
loop_
_geom_bond_atom_site_label_1
_geom_bond_atom_site_label_2
_geom_bond_site_symmetry_1
_geom_bond_site_symmetry_2
Dy1 N1 1_555 1_555
N1 C4 1_555 1_555
N2 H1 1_555 1_555
N3 Dy1 1_555 1_555
C3 H2 1_555 1_555
C4 C3 1_555 1_555
C5 N2 1_555 1_555
C6 C5 1_555 1_555
H3 C6 1_555 1_555
C8 N1 1_555 1_555
C9 N3 1_555 1_555
C10 C9 1_555 1_555
H5 C10 1_555 1_555
C11 C10 1_555 1_555
H6 C11 1_555 1_555
C12 C11 1_555 1_555
H7 C12 1_555 1_555
C13 N3 1_555 1_555
H8 C13 1_555 1_555
O3 C14 1_555 1_555
O4 C14 1_555 1_555
N4 Dy1 1_555 1_555
N5 H9 1_555 1_555
N6 Dy1 1_555 1_555
C14 C15 1_555 1_555
C15 C16 1_555 1_555
C16 H10 1_555 1_555
C17 N4 1_555 1_555
C18 N5 1_555 1_555
C19 C18 1_555 1_555
H11 C19 1_555 1_555
C20 C15 1_555 1_555
H12 C20 1_555 1_555
C21 N4 1_555 1_555
C22 N6 1_555 1_555
C23 C22 1_555 1_555
H13 C23 1_555 1_555
C24 C23 1_555 1_555
H14 C24 1_555 1_555
C25 C24 1_555 1_555
C26 N6 1_555 1_555
H16 C26 1_555 1_555
Dy3 O4 1_555 1_555
Dy5 O3 1_555 1_555
O5 Dy1 1_555 1_555
O6 Dy1 1_555 1_555
O7 Dy1 1_555 1_555
O8 Dy1 1_555 1_555
N2 C8 1_555 1_555
C4 C5 1_555 1_555
C6 C7 1_555 1_555
C8 C9 1_555 1_555
C12 C13 1_555 1_555
N5 C21 1_555 1_555
C16 C17 1_555 1_555
C17 C18 1_555 1_555
C19 C20 1_555 1_555
C21 C22 1_555 1_555
C25 C26 1_555 1_555
O1 C1 1_555 1_555
O2 C1 1_555 1_555
C1 C2 1_555 1_555
Dy3 O2 1_555 1_555
Dy5 O1 1_555 1_555
O1_2 C1_2 1_555 1_555
O2_2 C1_2 1_555 1_555
Dy2 O2_2 1_555 1_555
Dy4 O1_2 1_555 1_555
N5_2 H9_2 1_555 1_555
C15_2 C16_2 1_555 1_555
C16_2 H10_2 1_555 1_555
C17_2 N4_2 1_555 1_555
C18_2 N5_2 1_555 1_555
C19_2 C18_2 1_555 1_555
H11_2 C19_2 1_555 1_555
C20_2 C15_2 1_555 1_555
H12_2 C20_2 1_555 1_555
C21_2 N4_2 1_555 1_555
C22_2 N6_2 1_555 1_555
C23_2 C22_2 1_555 1_555
H13_2 C23_2 1_555 1_555
C24_2 C23_2 1_555 1_555
H14_2 C24_2 1_555 1_555
C25_2 C24_2 1_555 1_555
N5_2 C21_2 1_555 1_555
C16_2 C17_2 1_555 1_555
C17_2 C18_2 1_555 1_555
C19_2 C20_2 1_555 1_555
C21_2 C22_2 1_555 1_555
H16_2 C26_2 1_555 1_555
O6_2 Dy1_2 1_555 1_555
O8_2 Dy1_2 1_555 1_555
N1_2 C4_2 1_555 1_555
N2_2 H1_2 1_555 1_555
C3_2 H2_2 1_555 1_555
C4_2 C3_2 1_555 1_555
C5_2 N2_2 1_555 1_555
C6_2 C5_2 1_555 1_555
H3_2 C6_2 1_555 1_555
C8_2 N1_2 1_555 1_555
C9_2 N3_2 1_555 1_555
C10_2 C9_2 1_555 1_555
H5_2 C10_2 1_555 1_555
C11_2 C10_2 1_555 1_555
H6_2 C11_2 1_555 1_555
C12_2 C11_2 1_555 1_555
H7_2 C12_2 1_555 1_555
O3_2 C14_2 1_555 1_555
O4_2 C14_2 1_555 1_555
Dy2_2 O4_2 1_555 1_555
Dy4_2 O3_2 1_555 1_555
N2_2 C8_2 1_555 1_555
C4_2 C5_2 1_555 1_555
C6_2 C7_2 1_555 1_555
C8_2 C9_2 1_555 1_555
H8_2 C13_2 1_555 1_555
O5_2 Dy1_3 1_555 1_555
O7_2 Dy1_3 1_555 1_555
Dy3 N1_3 1_555 1_555
O1_3 C1_3 1_555 1_555
O7_2 C1_3 1_555 1_555
N1_3 C4_3 1_555 1_555
N2_3 H1_3 1_555 1_555
N3_3 Dy3 1_555 1_555
C1_3 C2_3 1_555 1_555
C2_3 C3_3 1_555 1_555
C3_3 H2_3 1_555 1_555
C4_3 C3_3 1_555 1_555
C5_3 N2_3 1_555 1_555
C6_3 C5_3 1_555 1_555
H3_3 C6_3 1_555 1_555
C7_3 C2_3 1_555 1_555
H4_3 C7_3 1_555 1_555
C8_3 N1_3 1_555 1_555
C9_3 N3_3 1_555 1_555
C10_3 C9_3 1_555 1_555
H5_3 C10_3 1_555 1_555
C11_3 C10_3 1_555 1_555
H6_3 C11_3 1_555 1_555
C12_3 C11_3 1_555 1_555
H7_3 C12_3 1_555 1_555
C13_3 N3_3 1_555 1_555
H8_3 C13_3 1_555 1_555
O3_3 C14_3 1_555 1_555
O8_2 C14_3 1_555 1_555
N4_3 Dy3 1_555 1_555
N5_3 H9_3 1_555 1_555
N6_3 Dy3 1_555 1_555
C14_3 C15_3 1_555 1_555
C15_3 C16_3 1_555 1_555
C16_3 H10_3 1_555 1_555
C17_3 N4_3 1_555 1_555
C18_3 N5_3 1_555 1_555
C19_3 C18_3 1_555 1_555
H11_3 C19_3 1_555 1_555
C20_3 C15_3 1_555 1_555
H12_3 C20_3 1_555 1_555
C21_3 N4_3 1_555 1_555
C22_3 N6_3 1_555 1_555
C23_3 C22_3 1_555 1_555
H13_3 C23_3 1_555 1_555
C24_3 C23_3 1_555 1_555
H14_3 C24_3 1_555 1_555
C25_3 C24_3 1_555 1_555
H15_3 C25_3 1_555 1_555
C26_3 N6_3 1_555 1_555
H16_3 C26_3 1_555 1_555
Dy4_4 O1_3 1_555 1_555
Dy4_3 O3_3 1_555 1_555
O5_3 Dy3 1_555 1_555
O6_3 Dy3 1_555 1_555
N2_3 C8_3 1_555 1_555
C4_3 C5_3 1_555 1_555
C6_3 C7_3 1_555 1_555
C8_3 C9_3 1_555 1_555
C12_3 C13_3 1_555 1_555
N5_3 C21_3 1_555 1_555
C16_3 C17_3 1_555 1_555
C17_3 C18_3 1_555 1_555
C19_3 C20_3 1_555 1_555
C21_3 C22_3 1_555 1_555
C25_3 C26_3 1_555 1_555
N3_4 Dy2 1_555 1_555
C9_4 N3_4 1_555 1_555
C10_4 C9_4 1_555 1_555
H5_4 C10_4 1_555 1_555
C11_4 C10_4 1_555 1_555
H6_4 C11_4 1_555 1_555
C12_4 C11_4 1_555 1_555
H7_4 C12_4 1_555 1_555
C13_4 N3_4 1_555 1_555
H8_4 C13_4 1_555 1_555
O3_4 C14_4 1_555 1_555
O8 C14_4 1_555 1_555
N4_4 Dy2 1_555 1_555
N5_4 H9_4 1_555 1_555
C14_4 C15_4 1_555 1_555
C15_4 C16_4 1_555 1_555
C16_4 H10_4 1_555 1_555
C17_4 N4_4 1_555 1_555
C18_4 N5_4 1_555 1_555
C19_4 C18_4 1_555 1_555
H11_4 C19_4 1_555 1_555
C20_4 C15_4 1_555 1_555
H12_4 C20_4 1_555 1_555
C21_4 N4_4 1_555 1_555
Dy5_2 O3_4 1_555 1_555
O6_4 Dy2 1_555 1_555
C12_4 C13_4 1_555 1_555
N5_4 C21_4 1_555 1_555
C16_4 C17_4 1_555 1_555
C17_4 C18_4 1_555 1_555
C19_4 C20_4 1_555 1_555
Dy2_2 N1_4 1_555 1_555
O1_4 C1_4 1_555 1_555
O7 C1_4 1_555 1_555
N1_4 C4_4 1_555 1_555
N2_4 H1_4 1_555 1_555
C1_4 C2_4 1_555 1_555
C2_4 C3_4 1_555 1_555
C3_4 H2_4 1_555 1_555
C4_4 C3_4 1_555 1_555
C5_4 N2_4 1_555 1_555
C6_4 C5_4 1_555 1_555
H3_4 C6_4 1_555 1_555
C7_4 C2_4 1_555 1_555
H4_4 C7_4 1_555 1_555
C8_4 N1_4 1_555 1_555
N6_4 Dy2_2 1_555 1_555
C22_4 N6_4 1_555 1_555
C23_4 C22_4 1_555 1_555
H13_4 C23_4 1_555 1_555
C24_4 C23_4 1_555 1_555
H14_4 C24_4 1_555 1_555
C25_4 C24_4 1_555 1_555
H15_4 C25_4 1_555 1_555
C26_4 N6_4 1_555 1_555
H16_4 C26_4 1_555 1_555
Dy5_2 O1_4 1_555 1_555
O5_4 Dy2_2 1_555 1_555
N2_4 C8_4 1_555 1_555
C4_4 C5_4 1_555 1_555
C6_4 C7_4 1_555 1_555
C25_4 C26_4 1_555 1_555
O5 C1_5 1_555 1_555
O2_3 C1_5 1_555 1_555
C1_5 C2_5 1_555 1_555
Dy5_2 O2_3 1_555 1_555
Dy5 N1_5 1_555 1_555
N1_5 C4_5 1_555 1_555
N2_5 H1_5 1_555 1_555
N3_5 Dy5 1_555 1_555
C3_5 H2_5 1_555 1_555
C4_5 C3_5 1_555 1_555
C5_5 N2_5 1_555 1_555
C6_5 C5_5 1_555 1_555
H3_5 C6_5 1_555 1_555
C8_5 N1_5 1_555 1_555
C9_5 N3_5 1_555 1_555
C10_5 C9_5 1_555 1_555
H5_5 C10_5 1_555 1_555
C11_5 C10_5 1_555 1_555
H6_5 C11_5 1_555 1_555
C12_5 C11_5 1_555 1_555
H7_5 C12_5 1_555 1_555
C13_5 N3_5 1_555 1_555
H8_5 C13_5 1_555 1_555
O6 C14_5 1_555 1_555
O4_3 C14_5 1_555 1_555
N4_5 Dy5 1_555 1_555
N5_5 H9_5 1_555 1_555
N6_5 Dy5 1_555 1_555
C14_5 C15_5 1_555 1_555
C15_5 C16_5 1_555 1_555
C16_5 H10_5 1_555 1_555
C17_5 N4_5 1_555 1_555
C18_5 N5_5 1_555 1_555
C19_5 C18_5 1_555 1_555
H11_5 C19_5 1_555 1_555
C20_5 C15_5 1_555 1_555
H12_5 C20_5 1_555 1_555
C21_5 N4_5 1_555 1_555
C22_5 N6_5 1_555 1_555
C23_5 C22_5 1_555 1_555
H13_5 C23_5 1_555 1_555
C24_5 C23_5 1_555 1_555
H14_5 C24_5 1_555 1_555
C25_5 C24_5 1_555 1_555
C26_5 N6_5 1_555 1_555
H16_5 C26_5 1_555 1_555
Dy5_2 O4_3 1_555 1_555
O7_3 Dy5 1_555 1_555
O8_3 Dy5 1_555 1_555
N2_5 C8_5 1_555 1_555
C4_5 C5_5 1_555 1_555
C6_5 C7_5 1_555 1_555
C8_5 C9_5 1_555 1_555
C12_5 C13_5 1_555 1_555
N5_5 C21_5 1_555 1_555
C16_5 C17_5 1_555 1_555
C17_5 C18_5 1_555 1_555
C19_5 C20_5 1_555 1_555
C21_5 C22_5 1_555 1_555
C25_5 C26_5 1_555 1_555
H8_6 C13_6 1_555 1_555
O7_4 Dy4 1_555 1_555
N1_6 C4_6 1_555 1_555
N2_6 H1_6 1_555 1_555
C3_6 H2_6 1_555 1_555
C4_6 C3_6 1_555 1_555
C5_6 N2_6 1_555 1_555
C6_6 C5_6 1_555 1_555
H3_6 C6_6 1_555 1_555
C8_6 N1_6 1_555 1_555
C9_6 N3_6 1_555 1_555
C10_6 C9_6 1_555 1_555
H5_6 C10_6 1_555 1_555
C11_6 C10_6 1_555 1_555
H6_6 C11_6 1_555 1_555
C12_6 C11_6 1_555 1_555
H7_6 C12_6 1_555 1_555
O6_2 C14_6 1_555 1_555
O4_4 C14_6 1_555 1_555
Dy4_3 O4_4 1_555 1_555
N2_6 C8_6 1_555 1_555
C4_6 C5_6 1_555 1_555
C6_6 C7_6 1_555 1_555
C8_6 C9_6 1_555 1_555
H16_6 C26_6 1_555 1_555
O8_4 Dy4_2 1_555 1_555
N5_6 H9_6 1_555 1_555
C15_6 C16_6 1_555 1_555
C16_6 H10_6 1_555 1_555
C17_6 N4_6 1_555 1_555
C18_6 N5_6 1_555 1_555
C19_6 C18_6 1_555 1_555
H11_6 C19_6 1_555 1_555
C20_6 C15_6 1_555 1_555
H12_6 C20_6 1_555 1_555
C21_6 N4_6 1_555 1_555
C22_6 N6_6 1_555 1_555
C23_6 C22_6 1_555 1_555
H13_6 C23_6 1_555 1_555
C24_6 C23_6 1_555 1_555
H14_6 C24_6 1_555 1_555
C25_6 C24_6 1_555 1_555
N5_6 C21_6 1_555 1_555
C16_6 C17_6 1_555 1_555
C17_6 C18_6 1_555 1_555
C19_6 C20_6 1_555 1_555
C21_6 C22_6 1_555 1_555
O5_2 C1_6 1_555 1_555
O2_4 C1_6 1_555 1_555
Dy4_4 O2_4 1_555 1_555
Dy5_2 N1_7 1_555 1_555
O6_4 C1_7 1_555 1_555
O7_4 C1_7 1_555 1_555
N1_7 C4_7 1_555 1_555
N2_7 H1_7 1_555 1_555
N3_7 Dy5_2 1_555 1_555
C1_7 C2_7 1_555 1_555
C2_7 C3_7 1_555 1_555
C3_7 H2_7 1_555 1_555
C4_7 C3_7 1_555 1_555
C5_7 N2_7 1_555 1_555
C6_7 C5_7 1_555 1_555
H3_7 C6_7 1_555 1_555
C7_7 C2_7 1_555 1_555
H4_7 C7_7 1_555 1_555
C8_7 N1_7 1_555 1_555
C9_7 N3_7 1_555 1_555
C10_7 C9_7 1_555 1_555
H5_7 C10_7 1_555 1_555
C11_7 C10_7 1_555 1_555
H6_7 C11_7 1_555 1_555
C12_7 C11_7 1_555 1_555
H7_7 C12_7 1_555 1_555
C13_7 N3_7 1_555 1_555
H8_7 C13_7 1_555 1_555
O5_4 C14_7 1_555 1_555
O8_4 C14_7 1_555 1_555
N4_7 Dy5_2 1_555 1_555
N5_7 H9_7 1_555 1_555
N6_7 Dy5_2 1_555 1_555
C14_7 C15_7 1_555 1_555
C15_7 C16_7 1_555 1_555
C16_7 H10_7 1_555 1_555
C17_7 N4_7 1_555 1_555
C18_7 N5_7 1_555 1_555
C19_7 C18_7 1_555 1_555
H11_7 C19_7 1_555 1_555
C20_7 C15_7 1_555 1_555
H12_7 C20_7 1_555 1_555
C21_7 N4_7 1_555 1_555
C22_7 N6_7 1_555 1_555
C23_7 C22_7 1_555 1_555
H13_7 C23_7 1_555 1_555
C24_7 C23_7 1_555 1_555
H14_7 C24_7 1_555 1_555
C25_7 C24_7 1_555 1_555
H15_7 C25_7 1_555 1_555
C26_7 N6_7 1_555 1_555
H16_7 C26_7 1_555 1_555
N2_7 C8_7 1_555 1_555
C4_7 C5_7 1_555 1_555
C6_7 C7_7 1_555 1_555
C8_7 C9_7 1_555 1_555
C12_7 C13_7 1_555 1_555
N5_7 C21_7 1_555 1_555
C16_7 C17_7 1_555 1_555
C17_7 C18_7 1_555 1_555
C19_7 C20_7 1_555 1_555
C21_7 C22_7 1_555 1_555
C25_7 C26_7 1_555 1_555
Dy4_3 N1_8 1_555 1_555
O6_3 C1_8 1_555 1_555
O7_3 C1_8 1_555 1_555
N1_8 C4_8 1_555 1_555
N2_8 H1_8 1_555 1_555
C1_8 C2_8 1_555 1_555
C2_8 C3_8 1_555 1_555
C3_8 H2_8 1_555 1_555
C4_8 C3_8 1_555 1_555
C5_8 N2_8 1_555 1_555
C6_8 C5_8 1_555 1_555
H3_8 C6_8 1_555 1_555
C7_8 C2_8 1_555 1_555
H4_8 C7_8 1_555 1_555
C8_8 N1_8 1_555 1_555
N6_8 Dy4_3 1_555 1_555
C22_8 N6_8 1_555 1_555
C23_8 C22_8 1_555 1_555
H13_8 C23_8 1_555 1_555
C24_8 C23_8 1_555 1_555
H14_8 C24_8 1_555 1_555
C25_8 C24_8 1_555 1_555
H15_8 C25_8 1_555 1_555
C26_8 N6_8 1_555 1_555
H16_8 C26_8 1_555 1_555
N2_8 C8_8 1_555 1_555
C4_8 C5_8 1_555 1_555
C6_8 C7_8 1_555 1_555
C25_8 C26_8 1_555 1_555
N3_8 Dy4_4 1_555 1_555
C9_8 N3_8 1_555 1_555
C10_8 C9_8 1_555 1_555
H5_8 C10_8 1_555 1_555
C11_8 C10_8 1_555 1_555
H6_8 C11_8 1_555 1_555
C12_8 C11_8 1_555 1_555
H7_8 C12_8 1_555 1_555
C13_8 N3_8 1_555 1_555
H8_8 C13_8 1_555 1_555
O5_3 C14_8 1_555 1_555
O8_3 C14_8 1_555 1_555
N4_8 Dy4_4 1_555 1_555
N5_8 H9_8 1_555 1_555
C14_8 C15_8 1_555 1_555
C15_8 C16_8 1_555 1_555
C16_8 H10_8 1_555 1_555
C17_8 N4_8 1_555 1_555
C18_8 N5_8 1_555 1_555
C19_8 C18_8 1_555 1_555
H11_8 C19_8 1_555 1_555
C20_8 C15_8 1_555 1_555
H12_8 C20_8 1_555 1_555
C21_8 N4_8 1_555 1_555
C12_8 C13_8 1_555 1_555
N5_8 C21_8 1_555 1_555
C16_8 C17_8 1_555 1_555
C17_8 C18_8 1_555 1_555
C19_8 C20_8 1_555 1_555

#END
