
###############################################################################
#
# This file contains modified crystal structure data generated from the
# MOF subset of the Cambridge Structural Database (CSD) v543 
# hosted by the Cambridge Crystallographic Data Centre (CCDC).
#
# This work is licensed under the Creative Commons
# Attribution-NonCommercial-ShareAlike 4.0 International License.
# To view a copy of this license, visit
# http://creativecommons.org/licenses/by-nc-sa/4.0/
# or send a letter to
# Creative Commons, PO Box 1866, Mountain View, CA 94042, USA.
#
# CIF created using the CSD Python API on 29 September 2022
# The structure has been converted into the P1 space group
# The structure has a 3D framework
# The original CSD entry KAFDAA is in the tetragonal crystal system
# The framework has been calculated to contain at least 10.0% void space
# The void calculation uses a probe of radius 1.32A, grid spacing 0.4
# The framework is charged, counterions have been retained in the structure
#
###############################################################################

data_KAFDAA
_chemical_formula_moiety         '(C208 H128 Gd12 N48 O32 12+)n'
_symmetry_cell_setting           triclinic
_symmetry_space_group_name_H-M   'P 1'
_symmetry_Int_Tables_number      1
_space_group_name_Hall           'P 1'
loop_
_symmetry_equiv_pos_site_id
_symmetry_equiv_pos_as_xyz
1 x,y,z
_cell_length_a                   16.3533(2)
_cell_length_b                   16.3533(2)
_cell_length_c                   22.3454(6)
_cell_angle_alpha                90
_cell_angle_beta                 90
_cell_angle_gamma                90
_cell_volume                     5975.84
loop_
_atom_site_label
_atom_site_type_symbol
_atom_site_fract_x
_atom_site_fract_y
_atom_site_fract_z
Gd1 Gd 0.0000 0.2500 0.72321(2)
O3 O 0.10628(8) 0.22995(9) 0.59126(6)
O4 O 0.13530(8) 0.22755(9) 0.68870(6)
N4 N 0.44089(10) 0.32319(11) 0.68582(7)
N5 N 0.46152(13) 0.37753(16) 0.59564(9)
H9 H 0.4864 0.4027 0.5660
N6 N 0.59205(10) 0.36534(11) 0.72575(8)
C14 C 0.15411(11) 0.24085(12) 0.63461(8)
C15 C 0.23715(11) 0.27401(13) 0.62102(9)
C16 C 0.29642(11) 0.27699(13) 0.66521(8)
H10 H 0.2860 0.2558 0.7041
C17 C 0.37124(12) 0.31159(13) 0.65125(9)
C18 C 0.38408(13) 0.34507(17) 0.59444(10)
C19 C 0.32553(16) 0.3423(2) 0.54940(11)
H11 H 0.3357 0.3646 0.5108
C20 C 0.25241(14) 0.30579(17) 0.56331(10)
H12 H 0.2112 0.3018 0.5335
C21 C 0.49250(13) 0.36361(15) 0.65072(10)
C22 C 0.57299(14) 0.39065(16) 0.67071(11)
C23 C 0.6236(2) 0.4398(3) 0.63664(16)
H13 H 0.6082 0.4563 0.5975
C24 C 0.6974(2) 0.4641(3) 0.66106(18)
H14 H 0.7346 0.4960 0.6382
C25 C 0.71648(19) 0.4418(2) 0.71848(15)
H15 H 0.7659 0.4597 0.7366
C26 C 0.66207(14) 0.39268(15) 0.74938(11)
H16 H 0.6751 0.3776 0.7893
Gd3 Gd 0.5000 0.2500 0.77679(2)
Gd4 Gd 0.0000 0.2500 0.52679(2)
O6 O 0.02005(9) 0.35628(8) 0.65874(6)
N7 N 0.05911(10) 0.17681(11) 0.81418(7)
N10 N 0.09205(10) 0.36534(11) 0.77425(8)
Gd1_2 Gd 1.0000 0.2500 0.72321(2)
O1 O 0.89372(8) 0.27005(9) 0.59126(6)
O2 O 0.86470(8) 0.27245(9) 0.68870(6)
N1 N 0.55911(10) 0.17681(11) 0.68582(7)
N2 N 0.53848(13) 0.12247(16) 0.59564(9)
H1 H 0.5136 0.0973 0.5660
N3 N 0.40795(10) 0.13466(11) 0.72575(8)
C1 C 0.84589(11) 0.25915(12) 0.63461(8)
C2 C 0.76285(11) 0.22599(13) 0.62102(9)
C3 C 0.70358(11) 0.22301(13) 0.66521(8)
H2 H 0.7140 0.2442 0.7041
C4 C 0.62876(12) 0.18841(13) 0.65125(9)
C5 C 0.61592(13) 0.15493(17) 0.59444(10)
C6 C 0.67447(16) 0.1577(2) 0.54940(11)
H3 H 0.6643 0.1354 0.5108
C7 C 0.74759(14) 0.19421(17) 0.56331(10)
H4 H 0.7888 0.1982 0.5335
C8 C 0.50750(13) 0.13639(15) 0.65072(10)
C9 C 0.42701(14) 0.10935(16) 0.67071(11)
C10 C 0.3764(2) 0.0602(3) 0.63664(16)
H5 H 0.3918 0.0437 0.5975
C11 C 0.3026(2) 0.0359(3) 0.66106(18)
H6 H 0.2654 0.0040 0.6382
C12 C 0.28352(19) 0.0582(2) 0.71848(15)
H7 H 0.2341 0.0403 0.7366
C13 C 0.33793(14) 0.10732(15) 0.74938(11)
H8 H 0.3249 0.1224 0.7893
Gd4_2 Gd 1.0000 0.2500 0.52679(2)
O5 O 0.97995(9) 0.14372(8) 0.65874(6)
N8 N 0.94089(10) 0.32319(11) 0.81418(7)
N9 N 0.90795(10) 0.13466(11) 0.77425(8)
N3_2 N 0.09205(10) 0.86534(11) 0.22575(8)
C9_2 C 0.07299(14) 0.89065(16) 0.17071(11)
C10_2 C 0.1236(2) 0.9398(3) 0.13664(16)
H5_2 H 0.1082 0.9563 0.0975
C11_2 C 0.1974(2) 0.9641(3) 0.16106(18)
H6_2 H 0.2346 0.9960 0.1382
C12_2 C 0.21648(19) 0.9418(2) 0.21848(15)
H7_2 H 0.2659 0.9597 0.2366
C13_2 C 0.16207(14) 0.89268(15) 0.24938(11)
H8_2 H 0.1751 0.8776 0.2893
Gd2 Gd -0.0000 0.7500 0.27679(2)
Gd1_3 Gd 0.5000 0.7500 0.22321(2)
O1_2 O 0.60628(8) 0.72995(9) 0.09126(6)
O2_2 O 0.63530(8) 0.72755(9) 0.18870(6)
N1_2 N 0.94089(10) 0.82319(11) 0.18582(7)
N2_2 N 0.96152(13) 0.87753(16) 0.09564(9)
H1_2 H 0.9864 0.9027 0.0660
C1_2 C 0.65411(11) 0.74085(12) 0.13461(8)
C2_2 C 0.73715(11) 0.77401(13) 0.12102(9)
C3_2 C 0.79642(11) 0.77699(13) 0.16521(8)
H2_2 H 0.7860 0.7558 0.2041
C4_2 C 0.87124(12) 0.81159(13) 0.15125(9)
C5_2 C 0.88408(13) 0.84507(17) 0.09444(10)
C6_2 C 0.82553(16) 0.8423(2) 0.04940(11)
H3_2 H 0.8357 0.8646 0.0108
C7_2 C 0.75241(14) 0.80579(17) 0.06331(10)
H4_2 H 0.7112 0.8018 0.0335
C8_2 C 0.99250(13) 0.86361(15) 0.15072(10)
O3_2 O 0.39372(8) 0.77005(9) 0.09126(6)
O4_2 O 0.36470(8) 0.77245(9) 0.18870(6)
N4_2 N 0.05911(10) 0.67681(11) 0.18582(7)
N5_2 N 0.03848(13) 0.62247(16) 0.09564(9)
H9_2 H 0.0136 0.5973 0.0660
C14_2 C 0.34589(11) 0.75915(12) 0.13461(8)
C15_2 C 0.26285(11) 0.72599(13) 0.12102(9)
C16_2 C 0.20358(11) 0.72301(13) 0.16521(8)
H10_2 H 0.2140 0.7442 0.2041
C17_2 C 0.12876(12) 0.68841(13) 0.15125(9)
C18_2 C 0.11592(13) 0.65493(17) 0.09444(10)
C19_2 C 0.17447(16) 0.6577(2) 0.04940(11)
H11_2 H 0.1643 0.6354 0.0108
C20_2 C 0.24759(14) 0.69421(17) 0.06331(10)
H12_2 H 0.2888 0.6982 0.0335
C21_2 C 0.00750(13) 0.63639(15) 0.15072(10)
Gd2_2 Gd 1.0000 0.7500 0.27679(2)
Gd4_3 Gd 0.5000 0.7500 0.02679(2)
O5_2 O 0.52005(9) 0.85628(8) 0.15874(6)
O6_2 O 0.47995(9) 0.64372(8) 0.15874(6)
N7_2 N 0.44089(10) 0.82319(11) 0.31418(7)
N8_2 N 0.55911(10) 0.67681(11) 0.31418(7)
N9_2 N 0.59205(10) 0.86534(11) 0.27425(8)
N10_2 N 0.40795(10) 0.63466(11) 0.27425(8)
N6_2 N 0.90795(10) 0.63466(11) 0.22575(8)
C22_2 C 0.92701(14) 0.60935(16) 0.17071(11)
C23_2 C 0.8764(2) 0.5602(3) 0.13664(16)
H13_2 H 0.8918 0.5437 0.0975
C24_2 C 0.8026(2) 0.5359(3) 0.16106(18)
H14_2 H 0.7654 0.5040 0.1382
C25_2 C 0.78352(19) 0.5582(2) 0.21848(15)
H15_2 H 0.7341 0.5403 0.2366
C26_2 C 0.83793(14) 0.60732(15) 0.24938(11)
H16_2 H 0.8249 0.6224 0.2893
H16_3 H 0.3724 0.9251 0.0393
N7_3 N 0.57319(11) 0.30911(10) 0.06418(7)
N8_3 N 0.42681(11) 0.19089(10) 0.06418(7)
N9_3 N 0.61534(11) 0.15795(10) 0.02425(8)
N10_3 N 0.38466(11) 0.34205(10) 0.02425(8)
Gd1_4 Gd 0.5000 0.2500 0.97321(2)
O1_3 O 0.47995(9) 0.14372(8) 0.84126(6)
O2_3 O 0.47755(9) 0.11470(8) 0.93870(6)
C1_3 C 0.49085(12) 0.09589(11) 0.88461(8)
C2_3 C 0.52401(13) 0.01285(11) 0.87102(9)
H4_3 H 0.5518 0.0388 0.7835
O3_3 O 0.52005(9) 0.35628(8) 0.84126(6)
O4_3 O 0.52245(9) 0.38530(8) 0.93870(6)
N4_3 N 0.42681(11) 0.69089(10) 0.93582(7)
N5_3 N 0.37247(16) 0.71152(13) 0.84564(9)
H9_3 H 0.3473 0.7364 0.8160
N6_3 N 0.38466(11) 0.84205(10) 0.97575(8)
C14_3 C 0.50915(12) 0.40411(11) 0.88461(8)
C15_3 C 0.47599(13) 0.48715(11) 0.87102(9)
C16_3 C 0.47301(13) 0.54642(11) 0.91521(8)
H10_3 H 0.4942 0.5360 0.9541
C17_3 C 0.43841(13) 0.62124(12) 0.90125(9)
C18_3 C 0.40493(17) 0.63408(13) 0.84444(10)
C19_3 C 0.4077(2) 0.57553(16) 0.79940(11)
H11_3 H 0.3854 0.5857 0.7608
C20_3 C 0.44421(17) 0.50241(14) 0.81331(10)
H12_3 H 0.4482 0.4612 0.7835
C21_3 C 0.38639(15) 0.74250(13) 0.90072(10)
C22_3 C 0.35935(16) 0.82299(14) 0.92071(11)
C23_3 C 0.3102(3) 0.8736(2) 0.88664(16)
H13_3 H 0.2937 0.8582 0.8475
C24_3 C 0.2859(3) 0.9474(2) 0.91106(18)
H14_3 H 0.2540 0.9846 0.8882
C25_3 C 0.3082(2) 0.96648(19) 0.96848(15)
C26_3 C 0.35732(15) 0.91207(14) 0.99938(11)
O5_3 O 0.60628(8) 0.22995(9) 0.90874(6)
O6_3 O 0.39372(8) 0.27005(9) 0.90874(6)
H8_3 H 0.6276 0.5749 0.0393
N1_3 N 0.57319(11) 0.80911(10) 0.93582(7)
N2_3 N 0.62753(16) 0.78848(13) 0.84564(9)
H1_3 H 0.6527 0.7636 0.8160
N3_3 N 0.61534(11) 0.65795(10) 0.97575(8)
C3_3 C 0.52699(13) 0.95358(11) 0.91521(8)
H2_3 H 0.5058 0.9640 0.9541
C4_3 C 0.56159(13) 0.87876(12) 0.90125(9)
C5_3 C 0.59507(17) 0.86592(13) 0.84444(10)
C6_3 C 0.5923(2) 0.92447(16) 0.79940(11)
H3_3 H 0.6146 0.9143 0.7608
C7_3 C 0.55579(17) 0.99759(14) 0.81331(10)
C8_3 C 0.61361(15) 0.75750(13) 0.90072(10)
C9_3 C 0.64065(16) 0.67701(14) 0.92071(11)
C10_3 C 0.6898(3) 0.6264(2) 0.88664(16)
H5_3 H 0.7063 0.6418 0.8475
C11_3 C 0.7141(3) 0.5526(2) 0.91106(18)
H6_3 H 0.7460 0.5154 0.8882
C12_3 C 0.6918(2) 0.53352(19) 0.96848(15)
H7_3 H 0.7097 0.4841 0.9866
C13_3 C 0.64268(15) 0.58793(14) 0.99938(11)
Gd1_5 Gd 0.0000 0.7500 0.47321(2)
O1_4 O 0.02005(9) 0.85628(8) 0.34126(6)
O2_4 O 0.02245(9) 0.88530(8) 0.43870(6)
C1_4 C 0.00915(12) 0.90411(11) 0.38461(8)
N4_4 N 0.07319(11) 0.30911(10) 0.43582(7)
N5_4 N 0.12753(16) 0.28848(13) 0.34564(9)
H9_4 H 0.1527 0.2636 0.3160
N6_4 N 0.11534(11) 0.15795(10) 0.47575(8)
C15_4 C 0.02401(13) 0.51285(11) 0.37102(9)
C16_4 C 0.02699(13) 0.45358(11) 0.41521(8)
H10_4 H 0.0058 0.4640 0.4541
C17_4 C 0.06159(13) 0.37876(12) 0.40125(9)
C18_4 C 0.09507(17) 0.36592(13) 0.34444(10)
C19_4 C 0.0923(2) 0.42447(16) 0.29940(11)
H11_4 H 0.1146 0.4143 0.2608
C20_4 C 0.05579(17) 0.49759(14) 0.31331(10)
H12_4 H 0.0518 0.5388 0.2835
C21_4 C 0.11361(15) 0.25750(13) 0.40072(10)
C22_4 C 0.14065(16) 0.17701(14) 0.42071(11)
C23_4 C 0.1898(3) 0.1264(2) 0.38664(16)
H13_4 H 0.2063 0.1418 0.3475
C24_4 C 0.2141(3) 0.0526(2) 0.41106(18)
H14_4 H 0.2460 0.0154 0.3882
C25_4 C 0.1918(2) 0.03352(19) 0.46848(15)
C26_4 C 0.14268(15) 0.08793(14) 0.49938(11)
H16_4 H 0.1276 0.0749 0.5393
O6_4 O 0.10628(8) 0.72995(9) 0.40874(6)
N8_4 N 0.07319(11) 0.80911(10) 0.56418(7)
N10_4 N 0.11534(11) 0.65795(10) 0.52425(8)
N1_4 N 0.92681(11) 0.19089(10) 0.43582(7)
N2_4 N 0.87247(16) 0.21152(13) 0.34564(9)
H1_4 H 0.8473 0.2364 0.3160
N3_4 N 0.88466(11) 0.34205(10) 0.47575(8)
C3_4 C 0.97301(13) 0.04642(11) 0.41521(8)
H2_4 H 0.9942 0.0360 0.4541
C4_4 C 0.93841(13) 0.12124(12) 0.40125(9)
C5_4 C 0.90493(17) 0.13408(13) 0.34444(10)
C6_4 C 0.9077(2) 0.07553(16) 0.29940(11)
H3_4 H 0.8854 0.0857 0.2608
C7_4 C 0.94421(17) 0.00241(14) 0.31331(10)
C8_4 C 0.88639(15) 0.24250(13) 0.40072(10)
C9_4 C 0.85935(16) 0.32299(14) 0.42071(11)
C10_4 C 0.8102(3) 0.3736(2) 0.38664(16)
H5_4 H 0.7937 0.3582 0.3475
C11_4 C 0.7859(3) 0.4474(2) 0.41106(18)
H6_4 H 0.7540 0.4846 0.3882
C12_4 C 0.8082(2) 0.46648(19) 0.46848(15)
H7_4 H 0.7903 0.5159 0.4866
C13_4 C 0.85732(15) 0.41207(14) 0.49938(11)
H8_4 H 0.8724 0.4251 0.5393
Gd1_6 Gd 1.0000 0.7500 0.47321(2)
C2_4 C 0.97599(13) 0.98715(11) 0.37102(9)
H4_4 H 0.9482 0.9612 0.2835
O3_4 O 0.97995(9) 0.64372(8) 0.34126(6)
O4_4 O 0.97755(9) 0.61470(8) 0.43870(6)
C14_4 C 0.99085(12) 0.59589(11) 0.38461(8)
O5_4 O 0.89372(8) 0.77005(9) 0.40874(6)
N7_4 N 0.92681(11) 0.69089(10) 0.56418(7)
N9_4 N 0.88466(11) 0.84205(10) 0.52425(8)
O2_5 O 0.13530(8) 0.72755(9) 0.31130(6)
N2_5 N 0.46152(13) 0.87753(16) 0.40436(9)
H1_5 H 0.4864 0.9027 0.4340
C1_5 C 0.15411(11) 0.74085(12) 0.36539(8)
C2_5 C 0.23715(11) 0.77401(13) 0.37898(9)
C3_5 C 0.29642(11) 0.77699(13) 0.33479(8)
H2_5 H 0.2860 0.7558 0.2959
C4_5 C 0.37124(12) 0.81159(13) 0.34875(9)
C5_5 C 0.38408(13) 0.84507(17) 0.40556(10)
C6_5 C 0.32553(16) 0.8423(2) 0.45060(11)
H3_5 H 0.3357 0.8646 0.4892
C7_5 C 0.25241(14) 0.80579(17) 0.43669(10)
H4_5 H 0.2112 0.8018 0.4665
C8_5 C 0.49250(13) 0.86361(15) 0.34928(10)
C9_5 C 0.57299(14) 0.89065(16) 0.32929(11)
C10_5 C 0.6236(2) 0.9398(3) 0.36336(16)
H5_5 H 0.6082 0.9563 0.4025
C11_5 C 0.6974(2) 0.9641(3) 0.33894(18)
H6_5 H 0.7346 0.9960 0.3618
C12_5 C 0.71648(19) 0.9418(2) 0.28152(15)
H7_5 H 0.7659 0.9597 0.2634
C13_5 C 0.66207(14) 0.89268(15) 0.25062(11)
H8_5 H 0.6751 0.8776 0.2107
O4_5 O 0.86470(8) 0.77245(9) 0.31130(6)
N5_5 N 0.53848(13) 0.62247(16) 0.40436(9)
H9_5 H 0.5136 0.5973 0.4340
C14_5 C 0.84589(11) 0.75915(12) 0.36539(8)
C15_5 C 0.76285(11) 0.72599(13) 0.37898(9)
C16_5 C 0.70358(11) 0.72301(13) 0.33479(8)
H10_5 H 0.7140 0.7442 0.2959
C17_5 C 0.62876(12) 0.68841(13) 0.34875(9)
C18_5 C 0.61592(13) 0.65493(17) 0.40556(10)
C19_5 C 0.67447(16) 0.6577(2) 0.45060(11)
H11_5 H 0.6643 0.6354 0.4892
C20_5 C 0.74759(14) 0.69421(17) 0.43669(10)
H12_5 H 0.7888 0.6982 0.4665
C21_5 C 0.50750(13) 0.63639(15) 0.34928(10)
C22_5 C 0.42701(14) 0.60935(16) 0.32929(11)
C23_5 C 0.3764(2) 0.5602(3) 0.36336(16)
H13_5 H 0.3918 0.5437 0.4025
C24_5 C 0.3026(2) 0.5359(3) 0.33894(18)
H14_5 H 0.2654 0.5040 0.3618
C25_5 C 0.28352(19) 0.5582(2) 0.28152(15)
H15_3 H 0.2341 0.5403 0.2634
C26_5 C 0.33793(14) 0.60732(15) 0.25062(11)
H16_5 H 0.3249 0.6224 0.2107
C22_6 C 0.07299(14) 0.39065(16) 0.82929(11)
C23_6 C 0.1236(2) 0.4398(3) 0.86336(16)
H13_6 H 0.1082 0.4563 0.9025
C24_6 C 0.1974(2) 0.4641(3) 0.83894(18)
H14_6 H 0.2346 0.4960 0.8618
C25_6 C 0.21648(19) 0.4418(2) 0.78152(15)
H15_4 H 0.2659 0.4597 0.7634
C26_6 C 0.16207(14) 0.39268(15) 0.75062(11)
H16_6 H 0.1751 0.3776 0.7107
O2_6 O 0.36470(8) 0.27245(9) 0.81130(6)
N2_6 N 0.03848(13) 0.12247(16) 0.90436(9)
H1_6 H 0.0136 0.0973 0.9340
C1_6 C 0.34589(11) 0.25915(12) 0.86539(8)
C2_6 C 0.26285(11) 0.22599(13) 0.87898(9)
C3_6 C 0.20358(11) 0.22301(13) 0.83479(8)
H2_6 H 0.2140 0.2442 0.7959
C4_6 C 0.12876(12) 0.18841(13) 0.84875(9)
C5_6 C 0.11592(13) 0.15493(17) 0.90556(10)
C6_6 C 0.17447(16) 0.1577(2) 0.95060(11)
H3_6 H 0.1643 0.1354 0.9892
C7_6 C 0.24759(14) 0.19421(17) 0.93669(10)
H4_6 H 0.2888 0.1982 0.9665
C8_6 C 0.00750(13) 0.13639(15) 0.84928(10)
O4_6 O 0.63530(8) 0.22755(9) 0.81130(6)
N5_6 N 0.96152(13) 0.37753(16) 0.90436(9)
H9_6 H 0.9864 0.4027 0.9340
C14_6 C 0.65411(11) 0.24085(12) 0.86539(8)
C15_6 C 0.73715(11) 0.27401(13) 0.87898(9)
C16_6 C 0.79642(11) 0.27699(13) 0.83479(8)
H10_6 H 0.7860 0.2558 0.7959
C17_6 C 0.87124(12) 0.31159(13) 0.84875(9)
C18_6 C 0.88408(13) 0.34507(17) 0.90556(10)
C19_6 C 0.82553(16) 0.3423(2) 0.95060(11)
H11_6 H 0.8357 0.3646 0.9892
C20_6 C 0.75241(14) 0.30579(17) 0.93669(10)
H12_6 H 0.7112 0.3018 0.9665
C21_6 C 0.99250(13) 0.36361(15) 0.84928(10)
C9_6 C 0.92701(14) 0.10935(16) 0.82929(11)
C10_6 C 0.8764(2) 0.0602(3) 0.86336(16)
H5_6 H 0.8918 0.0437 0.9025
C11_6 C 0.8026(2) 0.0359(3) 0.83894(18)
H6_6 H 0.7654 0.0040 0.8618
C12_6 C 0.78352(19) 0.0582(2) 0.78152(15)
H7_6 H 0.7341 0.0403 0.7634
C13_6 C 0.83793(14) 0.10732(15) 0.75062(11)
H8_6 H 0.8249 0.1224 0.7107
N2_7 N 0.37247(16) 0.21152(13) 0.15436(9)
H1_7 H 0.3473 0.2364 0.1840
C3_7 C 0.47301(13) 0.04642(11) 0.08479(8)
H2_7 H 0.4942 0.0360 0.0459
C4_7 C 0.43841(13) 0.12124(12) 0.09875(9)
C5_7 C 0.40493(17) 0.13408(13) 0.15556(10)
C6_7 C 0.4077(2) 0.07553(16) 0.20060(11)
H3_7 H 0.3854 0.0857 0.2392
C7_7 C 0.44421(17) 0.00241(14) 0.18669(10)
C8_7 C 0.38639(15) 0.24250(13) 0.09928(10)
C9_7 C 0.35935(16) 0.32299(14) 0.07929(11)
C10_7 C 0.3102(3) 0.3736(2) 0.11336(16)
H5_7 H 0.2937 0.3582 0.1525
C11_7 C 0.2859(3) 0.4474(2) 0.08894(18)
H6_7 H 0.2540 0.4846 0.1118
C12_7 C 0.3082(2) 0.46648(19) 0.03152(15)
H7_7 H 0.2903 0.5159 0.0134
C13_7 C 0.35732(15) 0.41207(14) 0.00062(11)
H8_7 H 0.3724 0.4251 0.9607
O2_7 O 0.52245(9) 0.88530(8) 0.06130(6)
C1_7 C 0.50915(12) 0.90411(11) 0.11539(8)
C2_7 C 0.47599(13) 0.98715(11) 0.12898(9)
H4_7 H 0.4482 0.9612 0.2165
O4_7 O 0.47755(9) 0.61470(8) 0.06130(6)
N5_7 N 0.62753(16) 0.28848(13) 0.15436(9)
H9_7 H 0.6527 0.2636 0.1840
C14_7 C 0.49085(12) 0.59589(11) 0.11539(8)
C15_7 C 0.52401(13) 0.51285(11) 0.12898(9)
C16_7 C 0.52699(13) 0.45358(11) 0.08479(8)
H10_7 H 0.5058 0.4640 0.0459
C17_7 C 0.56159(13) 0.37876(12) 0.09875(9)
C18_7 C 0.59507(17) 0.36592(13) 0.15556(10)
C19_7 C 0.5923(2) 0.42447(16) 0.20060(11)
H11_7 H 0.6146 0.4143 0.2392
C20_7 C 0.55579(17) 0.49759(14) 0.18669(10)
H12_7 H 0.5518 0.5388 0.2165
C21_7 C 0.61361(15) 0.25750(13) 0.09928(10)
C22_7 C 0.64065(16) 0.17701(14) 0.07929(11)
C23_7 C 0.6898(3) 0.1264(2) 0.11336(16)
H13_7 H 0.7063 0.1418 0.1525
C24_7 C 0.7141(3) 0.0526(2) 0.08894(18)
H14_7 H 0.7460 0.0154 0.1118
C25_7 C 0.6918(2) 0.03352(19) 0.03152(15)
C26_7 C 0.64268(15) 0.08793(14) 0.00062(11)
H16_7 H 0.6276 0.0749 0.9607
C2_8 C 0.02401(13) 0.01285(11) 0.62898(9)
H4_8 H 0.0518 0.0388 0.7165
O4_8 O 0.02245(9) 0.38530(8) 0.56130(6)
C14_8 C 0.00915(12) 0.40411(11) 0.61539(8)
N2_8 N 0.12753(16) 0.78848(13) 0.65436(9)
H1_8 H 0.1527 0.7636 0.6840
C3_8 C 0.02699(13) 0.95358(11) 0.58479(8)
H2_8 H 0.0058 0.9640 0.5459
C4_8 C 0.06159(13) 0.87876(12) 0.59875(9)
C5_8 C 0.09507(17) 0.86592(13) 0.65556(10)
C6_8 C 0.0923(2) 0.92447(16) 0.70060(11)
H3_8 H 0.1146 0.9143 0.7392
C7_8 C 0.05579(17) 0.99759(14) 0.68669(10)
C8_8 C 0.11361(15) 0.75750(13) 0.59928(10)
C9_8 C 0.14065(16) 0.67701(14) 0.57929(11)
C10_8 C 0.1898(3) 0.6264(2) 0.61336(16)
H5_8 H 0.2063 0.6418 0.6525
C11_8 C 0.2141(3) 0.5526(2) 0.58894(18)
H6_8 H 0.2460 0.5154 0.6118
C12_8 C 0.1918(2) 0.53352(19) 0.53152(15)
H7_8 H 0.2097 0.4841 0.5134
C13_8 C 0.14268(15) 0.58793(14) 0.50062(11)
H8_8 H 0.1276 0.5749 0.4607
O2_8 O 0.97755(9) 0.11470(8) 0.56130(6)
C1_8 C 0.99085(12) 0.09589(11) 0.61539(8)
N5_8 N 0.87247(16) 0.71152(13) 0.65436(9)
H9_8 H 0.8473 0.7364 0.6840
C15_8 C 0.97599(13) 0.48715(11) 0.62898(9)
C16_8 C 0.97301(13) 0.54642(11) 0.58479(8)
H10_8 H 0.9942 0.5360 0.5459
C17_8 C 0.93841(13) 0.62124(12) 0.59875(9)
C18_8 C 0.90493(17) 0.63408(13) 0.65556(10)
C19_8 C 0.9077(2) 0.57553(16) 0.70060(11)
H11_8 H 0.8854 0.5857 0.7392
C20_8 C 0.94421(17) 0.50241(14) 0.68669(10)
H12_8 H 0.9482 0.4612 0.7165
C21_8 C 0.88639(15) 0.74250(13) 0.59928(10)
C22_8 C 0.85935(16) 0.82299(14) 0.57929(11)
C23_8 C 0.8102(3) 0.8736(2) 0.61336(16)
H13_8 H 0.7937 0.8582 0.6525
C24_8 C 0.7859(3) 0.9474(2) 0.58894(18)
H14_8 H 0.7540 0.9846 0.6118
C25_8 C 0.8082(2) 0.96648(19) 0.53152(15)
C26_8 C 0.85732(15) 0.91207(14) 0.50062(11)
H16_8 H 0.8724 0.9251 0.4607
H15_5 H 0.2903 0.0159 0.9866
H15_6 H 0.2097 0.9841 0.4866
H15_7 H 0.7097 0.9841 0.0134
H15_8 H 0.7903 0.0159 0.5134
loop_
_geom_bond_atom_site_label_1
_geom_bond_atom_site_label_2
_geom_bond_site_symmetry_1
_geom_bond_site_symmetry_2
O3 C14 1_555 1_555
O4 Gd1 1_555 1_555
N4 C17 1_555 1_555
N5 H9 1_555 1_555
N6 C22 1_555 1_555
C14 O4 1_555 1_555
C15 C14 1_555 1_555
C16 C15 1_555 1_555
H10 C16 1_555 1_555
C17 C16 1_555 1_555
C18 N5 1_555 1_555
C19 C18 1_555 1_555
H11 C19 1_555 1_555
C20 C15 1_555 1_555
H12 C20 1_555 1_555
C21 N4 1_555 1_555
C22 C21 1_555 1_555
C23 C22 1_555 1_555
H13 C23 1_555 1_555
C24 C23 1_555 1_555
H14 C24 1_555 1_555
C25 C24 1_555 1_555
H15 C25 1_555 1_555
C26 N6 1_555 1_555
H16 C26 1_555 1_555
Gd3 N4 1_555 1_555
O6 Gd1 1_555 1_555
N7 Gd1 1_555 1_555
N10 Gd1 1_555 1_555
O3 Gd4 1_555 1_555
N5 C21 1_555 1_555
N6 Gd3 1_555 1_555
C17 C18 1_555 1_555
C19 C20 1_555 1_555
C25 C26 1_555 1_555
Gd1_2 O2 1_555 1_555
O1 C1 1_555 1_555
O2 C1 1_555 1_555
N1 C4 1_555 1_555
N2 H1 1_555 1_555
N3 C9 1_555 1_555
C1 C2 1_555 1_555
C2 C3 1_555 1_555
C3 H2 1_555 1_555
C4 C3 1_555 1_555
C5 N2 1_555 1_555
C6 C5 1_555 1_555
H3 C6 1_555 1_555
C7 C2 1_555 1_555
H4 C7 1_555 1_555
C8 N1 1_555 1_555
C9 C8 1_555 1_555
C10 C9 1_555 1_555
H5 C10 1_555 1_555
C11 C10 1_555 1_555
H6 C11 1_555 1_555
C12 C11 1_555 1_555
H7 C12 1_555 1_555
C13 N3 1_555 1_555
H8 C13 1_555 1_555
Gd3 N1 1_555 1_555
Gd4_2 O1 1_555 1_555
O5 Gd1_2 1_555 1_555
N8 Gd1_2 1_555 1_555
N9 Gd1_2 1_555 1_555
N2 C8 1_555 1_555
N3 Gd3 1_555 1_555
C4 C5 1_555 1_555
C6 C7 1_555 1_555
C12 C13 1_555 1_555
N3_2 C9_2 1_555 1_555
C10_2 C9_2 1_555 1_555
H5_2 C10_2 1_555 1_555
C11_2 C10_2 1_555 1_555
H6_2 C11_2 1_555 1_555
C12_2 C11_2 1_555 1_555
H7_2 C12_2 1_555 1_555
C13_2 N3_2 1_555 1_555
H8_2 C13_2 1_555 1_555
N3_2 Gd2 1_555 1_555
C12_2 C13_2 1_555 1_555
Gd1_3 O2_2 1_555 1_555
O1_2 C1_2 1_555 1_555
O2_2 C1_2 1_555 1_555
N1_2 C4_2 1_555 1_555
N2_2 H1_2 1_555 1_555
C1_2 C2_2 1_555 1_555
C2_2 C3_2 1_555 1_555
C3_2 H2_2 1_555 1_555
C4_2 C3_2 1_555 1_555
C5_2 N2_2 1_555 1_555
C6_2 C5_2 1_555 1_555
H3_2 C6_2 1_555 1_555
C7_2 C2_2 1_555 1_555
H4_2 C7_2 1_555 1_555
C8_2 N1_2 1_555 1_555
O3_2 C14_2 1_555 1_555
O4_2 Gd1_3 1_555 1_555
N4_2 C17_2 1_555 1_555
N5_2 H9_2 1_555 1_555
C14_2 O4_2 1_555 1_555
C15_2 C14_2 1_555 1_555
C16_2 C15_2 1_555 1_555
H10_2 C16_2 1_555 1_555
C17_2 C16_2 1_555 1_555
C18_2 N5_2 1_555 1_555
C19_2 C18_2 1_555 1_555
H11_2 C19_2 1_555 1_555
C20_2 C15_2 1_555 1_555
H12_2 C20_2 1_555 1_555
C21_2 N4_2 1_555 1_555
Gd2_2 N1_2 1_555 1_555
Gd2 N4_2 1_555 1_555
Gd4_3 O1_2 1_555 1_555
O5_2 Gd1_3 1_555 1_555
O6_2 Gd1_3 1_555 1_555
N7_2 Gd1_3 1_555 1_555
N8_2 Gd1_3 1_555 1_555
N9_2 Gd1_3 1_555 1_555
N10_2 Gd1_3 1_555 1_555
N2_2 C8_2 1_555 1_555
C4_2 C5_2 1_555 1_555
C6_2 C7_2 1_555 1_555
O3_2 Gd4_3 1_555 1_555
N5_2 C21_2 1_555 1_555
C17_2 C18_2 1_555 1_555
C19_2 C20_2 1_555 1_555
N6_2 C22_2 1_555 1_555
C23_2 C22_2 1_555 1_555
H13_2 C23_2 1_555 1_555
C24_2 C23_2 1_555 1_555
H14_2 C24_2 1_555 1_555
C25_2 C24_2 1_555 1_555
H15_2 C25_2 1_555 1_555
C26_2 N6_2 1_555 1_555
H16_2 C26_2 1_555 1_555
N6_2 Gd2_2 1_555 1_555
C25_2 C26_2 1_555 1_555
Gd1_4 O2_3 1_555 1_555
O1_3 C1_3 1_555 1_555
O2_3 C1_3 1_555 1_555
C1_3 C2_3 1_555 1_555
O3_3 C14_3 1_555 1_555
O4_3 Gd1_4 1_555 1_555
N4_3 C17_3 1_555 1_555
N5_3 H9_3 1_555 1_555
N6_3 C22_3 1_555 1_555
C14_3 O4_3 1_555 1_555
C15_3 C14_3 1_555 1_555
C16_3 C15_3 1_555 1_555
H10_3 C16_3 1_555 1_555
C17_3 C16_3 1_555 1_555
C18_3 N5_3 1_555 1_555
C19_3 C18_3 1_555 1_555
H11_3 C19_3 1_555 1_555
C20_3 C15_3 1_555 1_555
H12_3 C20_3 1_555 1_555
C21_3 N4_3 1_555 1_555
C22_3 C21_3 1_555 1_555
C23_3 C22_3 1_555 1_555
H13_3 C23_3 1_555 1_555
C24_3 C23_3 1_555 1_555
H14_3 C24_3 1_555 1_555
C25_3 C24_3 1_555 1_555
C26_3 N6_3 1_555 1_555
Gd3 O1_3 1_555 1_555
O5_3 Gd1_4 1_555 1_555
O6_3 Gd1_4 1_555 1_555
O3_3 Gd3 1_555 1_555
N5_3 C21_3 1_555 1_555
C17_3 C18_3 1_555 1_555
C19_3 C20_3 1_555 1_555
C25_3 C26_3 1_555 1_555
N1_3 C4_3 1_555 1_555
N2_3 H1_3 1_555 1_555
N3_3 C9_3 1_555 1_555
C3_3 H2_3 1_555 1_555
C4_3 C3_3 1_555 1_555
C5_3 N2_3 1_555 1_555
C6_3 C5_3 1_555 1_555
H3_3 C6_3 1_555 1_555
C8_3 N1_3 1_555 1_555
C9_3 C8_3 1_555 1_555
C10_3 C9_3 1_555 1_555
H5_3 C10_3 1_555 1_555
C11_3 C10_3 1_555 1_555
H6_3 C11_3 1_555 1_555
C12_3 C11_3 1_555 1_555
H7_3 C12_3 1_555 1_555
C13_3 N3_3 1_555 1_555
N2_3 C8_3 1_555 1_555
C4_3 C5_3 1_555 1_555
C6_3 C7_3 1_555 1_555
C12_3 C13_3 1_555 1_555
Gd1_5 O2_4 1_555 1_555
O1_4 C1_4 1_555 1_555
O2_4 C1_4 1_555 1_555
N4_4 C17_4 1_555 1_555
N5_4 H9_4 1_555 1_555
N6_4 C22_4 1_555 1_555
C16_4 C15_4 1_555 1_555
H10_4 C16_4 1_555 1_555
C17_4 C16_4 1_555 1_555
C18_4 N5_4 1_555 1_555
C19_4 C18_4 1_555 1_555
H11_4 C19_4 1_555 1_555
C20_4 C15_4 1_555 1_555
H12_4 C20_4 1_555 1_555
C21_4 N4_4 1_555 1_555
C22_4 C21_4 1_555 1_555
C23_4 C22_4 1_555 1_555
H13_4 C23_4 1_555 1_555
C24_4 C23_4 1_555 1_555
H14_4 C24_4 1_555 1_555
C25_4 C24_4 1_555 1_555
C26_4 N6_4 1_555 1_555
H16_4 C26_4 1_555 1_555
Gd4 N4_4 1_555 1_555
Gd2 O1_4 1_555 1_555
O6_4 Gd1_5 1_555 1_555
N8_4 Gd1_5 1_555 1_555
N10_4 Gd1_5 1_555 1_555
N5_4 C21_4 1_555 1_555
N6_4 Gd4 1_555 1_555
C17_4 C18_4 1_555 1_555
C19_4 C20_4 1_555 1_555
C25_4 C26_4 1_555 1_555
N1_4 C4_4 1_555 1_555
N2_4 H1_4 1_555 1_555
N3_4 C9_4 1_555 1_555
C3_4 H2_4 1_555 1_555
C4_4 C3_4 1_555 1_555
C5_4 N2_4 1_555 1_555
C6_4 C5_4 1_555 1_555
H3_4 C6_4 1_555 1_555
C8_4 N1_4 1_555 1_555
C9_4 C8_4 1_555 1_555
C10_4 C9_4 1_555 1_555
H5_4 C10_4 1_555 1_555
C11_4 C10_4 1_555 1_555
H6_4 C11_4 1_555 1_555
C12_4 C11_4 1_555 1_555
H7_4 C12_4 1_555 1_555
C13_4 N3_4 1_555 1_555
H8_4 C13_4 1_555 1_555
Gd4_2 N1_4 1_555 1_555
N2_4 C8_4 1_555 1_555
N3_4 Gd4_2 1_555 1_555
C4_4 C5_4 1_555 1_555
C6_4 C7_4 1_555 1_555
C12_4 C13_4 1_555 1_555
O3_4 C14_4 1_555 1_555
O4_4 Gd1_6 1_555 1_555
C14_4 O4_4 1_555 1_555
O5_4 Gd1_6 1_555 1_555
N7_4 Gd1_6 1_555 1_555
N9_4 Gd1_6 1_555 1_555
O3_4 Gd2_2 1_555 1_555
Gd2 O2_5 1_555 1_555
O6_4 C1_5 1_555 1_555
O2_5 C1_5 1_555 1_555
N7_2 C4_5 1_555 1_555
N2_5 H1_5 1_555 1_555
N9_2 C9_5 1_555 1_555
C1_5 C2_5 1_555 1_555
C2_5 C3_5 1_555 1_555
C3_5 H2_5 1_555 1_555
C4_5 C3_5 1_555 1_555
C5_5 N2_5 1_555 1_555
C6_5 C5_5 1_555 1_555
H3_5 C6_5 1_555 1_555
C7_5 C2_5 1_555 1_555
H4_5 C7_5 1_555 1_555
C8_5 N7_2 1_555 1_555
C9_5 C8_5 1_555 1_555
C10_5 C9_5 1_555 1_555
H5_5 C10_5 1_555 1_555
C11_5 C10_5 1_555 1_555
H6_5 C11_5 1_555 1_555
C12_5 C11_5 1_555 1_555
H7_5 C12_5 1_555 1_555
C13_5 N9_2 1_555 1_555
H8_5 C13_5 1_555 1_555
N2_5 C8_5 1_555 1_555
C4_5 C5_5 1_555 1_555
C6_5 C7_5 1_555 1_555
C12_5 C13_5 1_555 1_555
O5_4 C14_5 1_555 1_555
O4_5 Gd2_2 1_555 1_555
N8_2 C17_5 1_555 1_555
N5_5 H9_5 1_555 1_555
N10_2 C22_5 1_555 1_555
C14_5 O4_5 1_555 1_555
C15_5 C14_5 1_555 1_555
C16_5 C15_5 1_555 1_555
H10_5 C16_5 1_555 1_555
C17_5 C16_5 1_555 1_555
C18_5 N5_5 1_555 1_555
C19_5 C18_5 1_555 1_555
H11_5 C19_5 1_555 1_555
C20_5 C15_5 1_555 1_555
H12_5 C20_5 1_555 1_555
C21_5 N8_2 1_555 1_555
C22_5 C21_5 1_555 1_555
C23_5 C22_5 1_555 1_555
H13_5 C23_5 1_555 1_555
C24_5 C23_5 1_555 1_555
H14_5 C24_5 1_555 1_555
C25_5 C24_5 1_555 1_555
H15_3 C25_5 1_555 1_555
C26_5 N10_2 1_555 1_555
H16_5 C26_5 1_555 1_555
N5_5 C21_5 1_555 1_555
C17_5 C18_5 1_555 1_555
C19_5 C20_5 1_555 1_555
C25_5 C26_5 1_555 1_555
N10 C22_6 1_555 1_555
C23_6 C22_6 1_555 1_555
H13_6 C23_6 1_555 1_555
C24_6 C23_6 1_555 1_555
H14_6 C24_6 1_555 1_555
C25_6 C24_6 1_555 1_555
H15_4 C25_6 1_555 1_555
C26_6 N10 1_555 1_555
H16_6 C26_6 1_555 1_555
C25_6 C26_6 1_555 1_555
Gd3 O2_6 1_555 1_555
O6_3 C1_6 1_555 1_555
O2_6 C1_6 1_555 1_555
N7 C4_6 1_555 1_555
N2_6 H1_6 1_555 1_555
C1_6 C2_6 1_555 1_555
C2_6 C3_6 1_555 1_555
C3_6 H2_6 1_555 1_555
C4_6 C3_6 1_555 1_555
C5_6 N2_6 1_555 1_555
C6_6 C5_6 1_555 1_555
H3_6 C6_6 1_555 1_555
C7_6 C2_6 1_555 1_555
H4_6 C7_6 1_555 1_555
C8_6 N7 1_555 1_555
O5_3 C14_6 1_555 1_555
O4_6 Gd3 1_555 1_555
N8 C17_6 1_555 1_555
N5_6 H9_6 1_555 1_555
C14_6 O4_6 1_555 1_555
C15_6 C14_6 1_555 1_555
C16_6 C15_6 1_555 1_555
H10_6 C16_6 1_555 1_555
C17_6 C16_6 1_555 1_555
C18_6 N5_6 1_555 1_555
C19_6 C18_6 1_555 1_555
H11_6 C19_6 1_555 1_555
C20_6 C15_6 1_555 1_555
H12_6 C20_6 1_555 1_555
C21_6 N8 1_555 1_555
N2_6 C8_6 1_555 1_555
C4_6 C5_6 1_555 1_555
C6_6 C7_6 1_555 1_555
N5_6 C21_6 1_555 1_555
C17_6 C18_6 1_555 1_555
C19_6 C20_6 1_555 1_555
N9 C9_6 1_555 1_555
C10_6 C9_6 1_555 1_555
H5_6 C10_6 1_555 1_555
C11_6 C10_6 1_555 1_555
H6_6 C11_6 1_555 1_555
C12_6 C11_6 1_555 1_555
H7_6 C12_6 1_555 1_555
C13_6 N9 1_555 1_555
H8_6 C13_6 1_555 1_555
C12_6 C13_6 1_555 1_555
N8_3 C4_7 1_555 1_555
N2_7 H1_7 1_555 1_555
N10_3 C9_7 1_555 1_555
C3_7 H2_7 1_555 1_555
C4_7 C3_7 1_555 1_555
C5_7 N2_7 1_555 1_555
C6_7 C5_7 1_555 1_555
H3_7 C6_7 1_555 1_555
C8_7 N8_3 1_555 1_555
C9_7 C8_7 1_555 1_555
C10_7 C9_7 1_555 1_555
H5_7 C10_7 1_555 1_555
C11_7 C10_7 1_555 1_555
H6_7 C11_7 1_555 1_555
C12_7 C11_7 1_555 1_555
H7_7 C12_7 1_555 1_555
C13_7 N10_3 1_555 1_555
N2_7 C8_7 1_555 1_555
C4_7 C5_7 1_555 1_555
C6_7 C7_7 1_555 1_555
C12_7 C13_7 1_555 1_555
Gd4_3 O2_7 1_555 1_555
O5_2 C1_7 1_555 1_555
O2_7 C1_7 1_555 1_555
C1_7 C2_7 1_555 1_555
O6_2 C14_7 1_555 1_555
O4_7 Gd4_3 1_555 1_555
N7_3 C17_7 1_555 1_555
N5_7 H9_7 1_555 1_555
N9_3 C22_7 1_555 1_555
C14_7 O4_7 1_555 1_555
C15_7 C14_7 1_555 1_555
C16_7 C15_7 1_555 1_555
H10_7 C16_7 1_555 1_555
C17_7 C16_7 1_555 1_555
C18_7 N5_7 1_555 1_555
C19_7 C18_7 1_555 1_555
H11_7 C19_7 1_555 1_555
C20_7 C15_7 1_555 1_555
H12_7 C20_7 1_555 1_555
C21_7 N7_3 1_555 1_555
C22_7 C21_7 1_555 1_555
C23_7 C22_7 1_555 1_555
H13_7 C23_7 1_555 1_555
C24_7 C23_7 1_555 1_555
H14_7 C24_7 1_555 1_555
C25_7 C24_7 1_555 1_555
C26_7 N9_3 1_555 1_555
N5_7 C21_7 1_555 1_555
C17_7 C18_7 1_555 1_555
C19_7 C20_7 1_555 1_555
C25_7 C26_7 1_555 1_555
O6 C14_8 1_555 1_555
O4_8 Gd4 1_555 1_555
C14_8 O4_8 1_555 1_555
N8_4 C4_8 1_555 1_555
N2_8 H1_8 1_555 1_555
N10_4 C9_8 1_555 1_555
C3_8 H2_8 1_555 1_555
C4_8 C3_8 1_555 1_555
C5_8 N2_8 1_555 1_555
C6_8 C5_8 1_555 1_555
H3_8 C6_8 1_555 1_555
C8_8 N8_4 1_555 1_555
C9_8 C8_8 1_555 1_555
C10_8 C9_8 1_555 1_555
H5_8 C10_8 1_555 1_555
C11_8 C10_8 1_555 1_555
H6_8 C11_8 1_555 1_555
C12_8 C11_8 1_555 1_555
H7_8 C12_8 1_555 1_555
C13_8 N10_4 1_555 1_555
H8_8 C13_8 1_555 1_555
N2_8 C8_8 1_555 1_555
C4_8 C5_8 1_555 1_555
C6_8 C7_8 1_555 1_555
C12_8 C13_8 1_555 1_555
Gd4_2 O2_8 1_555 1_555
O5 C1_8 1_555 1_555
O2_8 C1_8 1_555 1_555
N7_4 C17_8 1_555 1_555
N5_8 H9_8 1_555 1_555
N9_4 C22_8 1_555 1_555
C16_8 C15_8 1_555 1_555
H10_8 C16_8 1_555 1_555
C17_8 C16_8 1_555 1_555
C18_8 N5_8 1_555 1_555
C19_8 C18_8 1_555 1_555
H11_8 C19_8 1_555 1_555
C20_8 C15_8 1_555 1_555
H12_8 C20_8 1_555 1_555
C21_8 N7_4 1_555 1_555
C22_8 C21_8 1_555 1_555
C23_8 C22_8 1_555 1_555
H13_8 C23_8 1_555 1_555
C24_8 C23_8 1_555 1_555
H14_8 C24_8 1_555 1_555
C25_8 C24_8 1_555 1_555
C26_8 N9_4 1_555 1_555
H16_8 C26_8 1_555 1_555
N5_8 C21_8 1_555 1_555
C17_8 C18_8 1_555 1_555
C19_8 C20_8 1_555 1_555
C25_8 C26_8 1_555 1_555

#END
