
###############################################################################
#
# This file contains modified crystal structure data generated from the
# MOF subset of the Cambridge Structural Database (CSD) v543 
# hosted by the Cambridge Crystallographic Data Centre (CCDC).
#
# This work is licensed under the Creative Commons
# Attribution-NonCommercial-ShareAlike 4.0 International License.
# To view a copy of this license, visit
# http://creativecommons.org/licenses/by-nc-sa/4.0/
# or send a letter to
# Creative Commons, PO Box 1866, Mountain View, CA 94042, USA.
#
# CIF created using the CSD Python API on 29 September 2022
# The structure has been converted into the P1 space group
# The structure has a 3D framework
# The original CSD entry KAFTUJ is in the rhombohedral crystal system
# The framework has been calculated to contain at least 10.0% void space
# The void calculation uses a probe of radius 1.32A, grid spacing 0.4
#
###############################################################################

data_KAFTUJ
_chemical_formula_moiety         '(C864 H648 N72 O208 Zn47)n'
_symmetry_cell_setting           triclinic
_symmetry_space_group_name_H-M   'P 1'
_symmetry_Int_Tables_number      1
_space_group_name_Hall           'P 1'
loop_
_symmetry_equiv_pos_site_id
_symmetry_equiv_pos_as_xyz
1 x,y,z
_cell_length_a                   44.6954(9)
_cell_length_b                   44.6954(9)
_cell_length_c                   26.7782(19)
_cell_angle_alpha                90
_cell_angle_beta                 90
_cell_angle_gamma                120
_cell_volume                     46327.4
loop_
_atom_site_label
_atom_site_type_symbol
_atom_site_fract_x
_atom_site_fract_y
_atom_site_fract_z
Zn1 Zn 0.5000 0.5000 0.0000
O1 O 0.21730(11) 0.35682(16) 0.30989(19)
O2 O 0.47902(12) 0.51865(12) 0.44567(19)
O3 O 0.46316(12) 0.49199(12) 0.05223(17)
O4 O 0.48777(12) 0.56510(11) 0.40584(17)
C1 C 0.41758(17) 0.47505(18) 0.1107(3)
C2 C 0.39941(18) 0.4735(2) 0.2969(3)
C3 C 0.44592(17) 0.51212(16) 0.3737(3)
O5 O 0.41077(11) 0.47968(15) 0.0232(2)
C4 C 0.40106(17) 0.45810(19) 0.3401(3)
H1 H 0.3861 0.4345 0.3443
O6 O 0.22969(11) 0.31889(16) 0.2736(2)
C5 C 0.23630(15) 0.34839(23) 0.2900(2)
C6 C 0.4317(2) 0.48342(16) 0.0571(3)
N1 N 0.37770(15) 0.45343(17) 0.2579(2)
C7 C 0.28851(17) 0.40829(25) 0.3060(3)
H2 H 0.2748 0.4128 0.3272
C8 C 0.29481(15) 0.37037(25) 0.2507(3)
H3 H 0.2856 0.3489 0.2351
C9 C 0.42478(17) 0.46883(18) 0.1974(3)
H4 H 0.4392 0.4697 0.2231
C10 C 0.32234(18) 0.43320(27) 0.2989(3)
H5 H 0.3315 0.4540 0.3160
C11 C 0.38316(16) 0.4654(2) 0.1210(3)
H6 H 0.3684 0.4632 0.0950
C12 C 0.42434(17) 0.47640(18) 0.3782(3)
H7 H 0.4255 0.4649 0.4065
C13 C 0.39135(16) 0.46031(18) 0.2086(3)
C14 C 0.43744(16) 0.47604(18) 0.1502(3)
H8 H 0.4602 0.4818 0.1446
C15 C 0.27430(17) 0.37674(24) 0.2826(3)
C16 C 0.34296(16) 0.42745(19) 0.2665(3)
C17 C 0.44264(19) 0.52725(19) 0.3301(3)
H9 H 0.4561 0.5511 0.3267
C18 C 0.32982(18) 0.39588(27) 0.2413(3)
H10 H 0.3435 0.3918 0.2193
C19 C 0.47239(14) 0.53178(17) 0.4116(3)
C20 C 0.4207(2) 0.50887(19) 0.2919(3)
H11 H 0.4201 0.5200 0.2629
C21 C 0.37116(18) 0.4591(2) 0.1689(3)
H12 H 0.3486 0.4538 0.1750
Zn2 Zn 0.52450(2) 0.58380(2) 0.45505(3)
N2 N 0.54817(11) 0.63421(11) 0.4313(2)
C22 C 0.5639(3) 0.63853(18) 0.3824(3)
H13 H 0.5460 0.6258 0.3578
H14 H 0.5793 0.6291 0.3829
C23 C 0.5742(2) 0.65687(17) 0.4658(4)
H15 H 0.5916 0.6499 0.4687
H16 H 0.5638 0.6542 0.4984
C24 C 0.5236(2) 0.64778(17) 0.4278(4)
H17 H 0.5147 0.6480 0.4608
H18 H 0.5042 0.6327 0.4067
N3 N 0.58063(16) 0.69912(11) 0.4020(2)
C25 C 0.59204(35) 0.69480(18) 0.4509(3)
H19 H 0.5869 0.7075 0.4755
H20 H 0.6169 0.7042 0.4504
C26 C 0.58400(26) 0.67646(17) 0.3675(4)
H21 H 0.6084 0.6834 0.3646
H22 H 0.5763 0.6791 0.3349
C27 C 0.54249(26) 0.68555(17) 0.4055(4)
H23 H 0.5334 0.6853 0.3725
H24 H 0.5382 0.7006 0.4266
O7 O 0.35682(16) 0.21730(11) 0.19011(19)
O8 O 0.51865(12) 0.47902(12) 0.05433(19)
O9 O 0.49199(12) 0.46316(12) 0.44777(17)
O10 O 0.56510(11) 0.48777(12) 0.09416(17)
C28 C 0.47505(18) 0.41758(17) 0.3893(3)
C29 C 0.4735(2) 0.39941(18) 0.2031(3)
C30 C 0.51212(16) 0.44592(17) 0.1263(3)
O11 O 0.47968(15) 0.41077(11) 0.4768(2)
C31 C 0.45810(19) 0.40106(17) 0.1599(3)
H25 H 0.4345 0.3861 0.1557
O12 O 0.31889(16) 0.22969(11) 0.2264(2)
C32 C 0.34839(23) 0.23630(15) 0.2100(2)
C33 C 0.48342(16) 0.4317(2) 0.4429(3)
N4 N 0.45343(17) 0.37770(15) 0.2421(2)
C34 C 0.40829(25) 0.28851(17) 0.1940(3)
H26 H 0.4128 0.2748 0.1728
C35 C 0.37037(25) 0.29481(15) 0.2493(3)
H27 H 0.3489 0.2856 0.2649
C36 C 0.46883(18) 0.42478(17) 0.3026(3)
H28 H 0.4697 0.4392 0.2769
C37 C 0.43320(27) 0.32234(18) 0.2011(3)
H29 H 0.4540 0.3315 0.1840
C38 C 0.4654(2) 0.38316(16) 0.3790(3)
H30 H 0.4632 0.3684 0.4050
C39 C 0.47640(18) 0.42434(17) 0.1218(3)
H31 H 0.4649 0.4255 0.0935
C40 C 0.46031(18) 0.39135(16) 0.2914(3)
C41 C 0.47604(18) 0.43744(16) 0.3498(3)
H32 H 0.4818 0.4602 0.3554
C42 C 0.37674(24) 0.27430(17) 0.2174(3)
C43 C 0.42745(19) 0.34296(16) 0.2335(3)
C44 C 0.52725(19) 0.44264(19) 0.1699(3)
H33 H 0.5511 0.4561 0.1733
C45 C 0.39588(27) 0.32982(18) 0.2587(3)
H34 H 0.3918 0.3435 0.2807
C46 C 0.53178(17) 0.47239(14) 0.0884(3)
C47 C 0.50887(19) 0.4207(2) 0.2081(3)
H35 H 0.5200 0.4201 0.2371
C48 C 0.4591(2) 0.37116(18) 0.3311(3)
H36 H 0.4538 0.3486 0.3250
Zn3 Zn 0.58380(2) 0.52450(2) 0.04495(3)
Zn4 Zn 0.5000 0.5000 0.5000
Zn5 Zn 0.1667 0.3333 0.3333
Zn6 Zn 0.3333 0.1667 0.1667
O14 O 0.52715(19) 0.55063(11) 0.02344(19)
O18 O 0.52032(15) 0.58923(11) 0.5232(2)
O19 O 0.57747(19) 0.56302(11) 0.0597(2)
O20 O 0.56302(11) 0.57747(19) 0.4403(2)
Zn7 Zn 0.60737(3) 0.74953(2) 0.37828(3)
Zn8 Zn 0.47550(2) 0.41620(2) 0.54495(3)
Zn10 Zn 0.19117(2) 0.27403(3) 0.28838(3)
Zn11 Zn 0.27403(3) 0.19117(2) 0.21162(3)
N5 N 0.63421(11) 0.54817(11) 0.0687(2)
Zn1_2 Zn 0.5000 0.5000 1.0000
O13 O 0.47285(19) 0.44937(11) 0.97656(19)
O15 O 0.48135(12) 0.52098(12) 0.94567(19)
O16 O 0.53684(12) 0.50801(12) 0.94777(17)
O17 O 0.58923(11) 0.52032(15) 0.9768(2)
Zn9 Zn 0.41620(2) 0.47550(2) 0.95505(3)
Zn1_3 Zn 0.5000 0.0000 0.0000
O7_2 O 0.78270(11) 0.13952(19) 0.19011(19)
O8_2 O 0.52098(12) 0.03963(17) 0.05433(19)
O9_2 O 0.53684(12) 0.02883(17) 0.44777(17)
O10_2 O 0.51223(12) 0.07733(16) 0.09416(17)
C28_2 C 0.58242(17) 0.05747(25) 0.3893(3)
C29_2 C 0.60059(18) 0.07409(27) 0.2031(3)
C30_2 C 0.55408(17) 0.06620(23) 0.1263(3)
O11_2 O 0.58923(11) 0.06891(19) 0.4768(2)
C31_2 C 0.59894(17) 0.05704(25) 0.1599(3)
H25_2 H 0.6139 0.0484 0.1557
O12_2 O 0.77031(11) 0.08920(19) 0.2264(2)
C32_2 C 0.76370(15) 0.11209(27) 0.2100(2)
C33_2 C 0.5683(2) 0.05172(26) 0.4429(3)
N4_2 N 0.62230(15) 0.07573(23) 0.2421(2)
C34_2 C 0.71149(17) 0.11978(30) 0.1940(3)
H26_2 H 0.7252 0.1380 0.1728
C35_2 C 0.70519(15) 0.07556(29) 0.2493(3)
H27_2 H 0.7144 0.0633 0.2649
C36_2 C 0.57522(17) 0.04405(25) 0.3026(3)
H28_2 H 0.5608 0.0305 0.2769
C37_2 C 0.67766(18) 0.11086(32) 0.2011(3)
H29_2 H 0.6685 0.1225 0.1840
C38_2 C 0.61684(16) 0.08224(26) 0.3790(3)
H30_2 H 0.6316 0.0948 0.4050
C39_2 C 0.57566(17) 0.05206(25) 0.1218(3)
H31_2 H 0.5745 0.0394 0.0935
C40_2 C 0.60865(16) 0.06896(24) 0.2914(3)
C41_2 C 0.56256(16) 0.03860(24) 0.3498(3)
H32_2 H 0.5398 0.0216 0.3554
C42_2 C 0.72570(17) 0.10244(29) 0.2174(3)
C43_2 C 0.65704(16) 0.08449(25) 0.2335(3)
C44_2 C 0.55736(19) 0.08461(27) 0.1699(3)
H33_2 H 0.5439 0.0950 0.1733
C45_2 C 0.67018(18) 0.06606(32) 0.2587(3)
H34_2 H 0.6565 0.0483 0.2807
C46_2 C 0.52761(14) 0.05939(22) 0.0884(3)
C47_2 C 0.5793(2) 0.08817(28) 0.2081(3)
H35_2 H 0.5799 0.0999 0.2371
C48_2 C 0.62884(18) 0.08794(27) 0.3311(3)
H36_2 H 0.6514 0.1052 0.3250
Zn3_2 Zn 0.47550(2) 0.05930(3) 0.04495(3)
Zn4_2 Zn 0.5000 0.0000 0.5000
Zn6_2 Zn 0.8333 0.1667 0.1667
O19_2 O 0.43698(11) 0.01444(22) 0.0597(2)
Zn8_2 Zn 0.58380(2) 0.05930(3) 0.54495(3)
Zn11_2 Zn 0.80883(2) 0.08287(4) 0.21162(3)
N5_2 N 0.45183(11) 0.08604(16) 0.0687(2)
Zn1_4 Zn 0.5000 0.0000 1.0000
O13_2 O 0.55063(11) 0.02349(22) 0.97656(19)
O16_2 O 0.49199(12) 0.02883(17) 0.94777(17)
O17_2 O 0.47968(15) 0.06891(19) 0.9768(2)
Zn1_5 Zn 0.5000 1.0000 0.0000
O1_2 O 0.64318(16) 0.86048(19) 0.30989(19)
O2_2 O 0.48135(12) 0.96037(17) 0.44567(19)
O3_2 O 0.50801(12) 0.97117(17) 0.05223(17)
O4_2 O 0.43490(11) 0.92267(16) 0.40584(17)
C1_2 C 0.52495(18) 0.94253(25) 0.1107(3)
C2_2 C 0.5265(2) 0.92591(27) 0.2969(3)
C3_2 C 0.48788(16) 0.93380(23) 0.3737(3)
O5_2 O 0.52032(15) 0.93109(19) 0.0232(2)
C4_2 C 0.54190(19) 0.94296(25) 0.3401(3)
H1_2 H 0.5655 0.9516 0.3443
O6_2 O 0.68111(16) 0.91080(19) 0.2736(2)
C5_2 C 0.65161(23) 0.88791(27) 0.2900(2)
C6_2 C 0.51658(16) 0.94828(26) 0.0571(3)
N1_2 N 0.54657(17) 0.92427(23) 0.2579(2)
C7_2 C 0.59171(25) 0.88022(30) 0.3060(3)
H2_2 H 0.5872 0.8620 0.3272
C8_2 C 0.62963(25) 0.92444(29) 0.2507(3)
H3_2 H 0.6511 0.9367 0.2351
C9_2 C 0.53117(18) 0.95595(25) 0.1974(3)
H4_2 H 0.5303 0.9695 0.2231
C10_2 C 0.56680(27) 0.88914(32) 0.2989(3)
H5_2 H 0.5460 0.8775 0.3160
C11_2 C 0.5346(2) 0.91776(26) 0.1210(3)
H6_2 H 0.5368 0.9052 0.0950
C12_2 C 0.52360(18) 0.94794(25) 0.3782(3)
H7_2 H 0.5351 0.9606 0.4065
C13_2 C 0.53969(18) 0.93104(24) 0.2086(3)
C14_2 C 0.52396(18) 0.96140(24) 0.1502(3)
H8_2 H 0.5182 0.9784 0.1446
C15_2 C 0.62326(24) 0.89756(29) 0.2826(3)
C16_2 C 0.57255(19) 0.91551(25) 0.2665(3)
C17_2 C 0.47275(19) 0.91539(27) 0.3301(3)
H9_2 H 0.4489 0.9050 0.3267
C18_2 C 0.60412(27) 0.93394(32) 0.2413(3)
H10_2 H 0.6082 0.9517 0.2193
C19_2 C 0.46822(17) 0.94061(22) 0.4116(3)
C20_2 C 0.49113(19) 0.91183(28) 0.2919(3)
H11_2 H 0.4800 0.9001 0.2629
C21_2 C 0.5409(2) 0.91206(27) 0.1689(3)
H12_2 H 0.5462 0.8948 0.1750
Zn2_2 Zn 0.41620(2) 0.94070(3) 0.45505(3)
N2_2 N 0.36579(11) 0.91396(16) 0.4313(2)
C22_2 C 0.36147(18) 0.92537(35) 0.3824(3)
H13_2 H 0.3742 0.9202 0.3578
H14_2 H 0.3709 0.9502 0.3829
C23_2 C 0.34313(17) 0.91733(26) 0.4658(4)
H15_2 H 0.3501 0.9417 0.4687
H16_2 H 0.3458 0.9096 0.4984
C24_2 C 0.35222(17) 0.87582(26) 0.4278(4)
H17_2 H 0.3520 0.8667 0.4608
H18_2 H 0.3673 0.8715 0.4067
N3_2 N 0.30088(11) 0.88150(19) 0.4020(2)
C25_2 C 0.30520(18) 0.89723(39) 0.4509(3)
H19_2 H 0.2925 0.8793 0.4755
H20_2 H 0.2958 0.9126 0.4504
C26_2 C 0.32354(17) 0.90753(31) 0.3675(4)
H21_2 H 0.3166 0.9249 0.3646
H22_2 H 0.3209 0.8971 0.3349
C27_2 C 0.31445(17) 0.85693(31) 0.4055(4)
H23_2 H 0.3147 0.8480 0.3725
H24_2 H 0.2994 0.8375 0.4266
Zn4_3 Zn 0.5000 1.0000 0.5000
Zn5_2 Zn 0.6667 0.8333 0.3333
O14_2 O 0.44937(11) 0.97651(22) 0.02344(19)
O18_2 O 0.41077(11) 0.93109(19) 0.5232(2)
O20_2 O 0.42253(19) 0.98556(22) 0.4403(2)
Zn7_2 Zn 0.25047(2) 0.85783(4) 0.37828(3)
Zn10_2 Zn 0.72597(3) 0.91713(4) 0.28838(3)
Zn1_6 Zn 0.5000 1.0000 1.0000
O15_2 O 0.47902(12) 0.96037(17) 0.94567(19)
Zn9_2 Zn 0.52450(2) 0.94070(3) 0.95505(3)
Zn1_7 Zn -0.0000 0.5000 0.0000
O1_3 O 0.13952(19) 0.78270(11) 0.30989(19)
O2_3 O 0.03963(17) 0.52098(12) 0.44567(19)
O3_3 O 0.02883(17) 0.53684(12) 0.05223(17)
O4_3 O 0.07733(16) 0.51223(12) 0.40584(17)
C1_3 C 0.05747(25) 0.58242(17) 0.1107(3)
C2_3 C 0.07409(27) 0.60059(18) 0.2969(3)
C3_3 C 0.06620(23) 0.55408(17) 0.3737(3)
O5_3 O 0.06891(19) 0.58923(11) 0.0232(2)
C4_3 C 0.05704(25) 0.59894(17) 0.3401(3)
H1_3 H 0.0484 0.6139 0.3443
O6_3 O 0.08920(19) 0.77031(11) 0.2736(2)
C5_3 C 0.11209(27) 0.76370(15) 0.2900(2)
C6_3 C 0.05172(26) 0.5683(2) 0.0571(3)
N1_3 N 0.07573(23) 0.62230(15) 0.2579(2)
C7_3 C 0.11978(30) 0.71149(17) 0.3060(3)
H2_3 H 0.1380 0.7252 0.3272
C8_3 C 0.07556(29) 0.70519(15) 0.2507(3)
H3_3 H 0.0633 0.7144 0.2351
C9_3 C 0.04405(25) 0.57522(17) 0.1974(3)
H4_3 H 0.0305 0.5608 0.2231
C10_3 C 0.11086(32) 0.67766(18) 0.2989(3)
H5_3 H 0.1225 0.6685 0.3160
C11_3 C 0.08224(26) 0.61684(16) 0.1210(3)
H6_3 H 0.0948 0.6316 0.0950
C12_3 C 0.05206(25) 0.57566(17) 0.3782(3)
H7_3 H 0.0394 0.5745 0.4065
C13_3 C 0.06896(24) 0.60865(16) 0.2086(3)
C14_3 C 0.03860(24) 0.56256(16) 0.1502(3)
H8_3 H 0.0216 0.5398 0.1446
C15_3 C 0.10244(29) 0.72570(17) 0.2826(3)
C16_3 C 0.08449(25) 0.65704(16) 0.2665(3)
C17_3 C 0.08461(27) 0.55736(19) 0.3301(3)
H9_3 H 0.0950 0.5439 0.3267
C18_3 C 0.06606(32) 0.67018(18) 0.2413(3)
H10_3 H 0.0483 0.6565 0.2193
C19_3 C 0.05939(22) 0.52761(14) 0.4116(3)
C20_3 C 0.08817(28) 0.5793(2) 0.2919(3)
H11_3 H 0.0999 0.5799 0.2629
C21_3 C 0.08794(27) 0.62884(18) 0.1689(3)
H12_3 H 0.1052 0.6514 0.1750
Zn2_3 Zn 0.05930(3) 0.47550(2) 0.45505(3)
N2_3 N 0.08604(16) 0.45183(11) 0.4313(2)
C22_3 C 0.07463(35) 0.4361(3) 0.3824(3)
H13_3 H 0.0798 0.4540 0.3578
H14_3 H 0.0498 0.4207 0.3829
C23_3 C 0.08267(26) 0.4258(2) 0.4658(4)
H15_3 H 0.0583 0.4084 0.4687
H16_3 H 0.0904 0.4362 0.4984
C24_3 C 0.12418(26) 0.4764(2) 0.4278(4)
H17_3 H 0.1333 0.4853 0.4608
H18_3 H 0.1285 0.4958 0.4067
N3_3 N 0.11850(19) 0.41937(16) 0.4020(2)
C25_3 C 0.10277(39) 0.40796(35) 0.4509(3)
H19_3 H 0.1207 0.4131 0.4755
H20_3 H 0.0874 0.3831 0.4504
C26_3 C 0.09247(31) 0.41600(26) 0.3675(4)
H21_3 H 0.0751 0.3916 0.3646
H22_3 H 0.1029 0.4237 0.3349
C27_3 C 0.14307(31) 0.45751(26) 0.4055(4)
H23_3 H 0.1520 0.4666 0.3725
H24_3 H 0.1625 0.4618 0.4266
Zn4_4 Zn -0.0000 0.5000 0.5000
Zn5_3 Zn 0.1667 0.8333 0.3333
O14_3 O 0.02349(22) 0.47285(19) 0.02344(19)
O18_3 O 0.06891(19) 0.47968(15) 0.5232(2)
O20_3 O 0.01444(22) 0.43698(11) 0.4403(2)
Zn7_3 Zn 0.14217(4) 0.39263(3) 0.37828(3)
Zn10_3 Zn 0.08287(4) 0.80883(2) 0.28838(3)
Zn1_8 Zn 0.0000 0.5000 1.0000
O15_3 O 0.03963(17) 0.51865(12) 0.94567(19)
Zn9_3 Zn 0.05930(3) 0.58380(2) 0.95505(3)
Zn1_9 Zn 1.0000 0.5000 0.0000
O7_3 O 0.86048(19) 0.64318(16) 0.19011(19)
O8_3 O 0.96037(17) 0.48135(12) 0.05433(19)
O9_3 O 0.97117(17) 0.50801(12) 0.44777(17)
O10_3 O 0.92267(16) 0.43490(11) 0.09416(17)
C28_3 C 0.94253(25) 0.52495(18) 0.3893(3)
C29_3 C 0.92591(27) 0.5265(2) 0.2031(3)
C30_3 C 0.93380(23) 0.48788(16) 0.1263(3)
O11_3 O 0.93109(19) 0.52032(15) 0.4768(2)
C31_3 C 0.94296(25) 0.54190(19) 0.1599(3)
H25_3 H 0.9516 0.5655 0.1557
O12_3 O 0.91080(19) 0.68111(16) 0.2264(2)
C32_3 C 0.88791(27) 0.65161(23) 0.2100(2)
C33_3 C 0.94828(26) 0.51658(16) 0.4429(3)
N4_3 N 0.92427(23) 0.54657(17) 0.2421(2)
C34_3 C 0.88022(30) 0.59171(25) 0.1940(3)
H26_3 H 0.8620 0.5872 0.1728
C35_3 C 0.92444(29) 0.62963(25) 0.2493(3)
H27_3 H 0.9367 0.6511 0.2649
C36_3 C 0.95595(25) 0.53117(18) 0.3026(3)
H28_3 H 0.9695 0.5303 0.2769
C37_3 C 0.88914(32) 0.56680(27) 0.2011(3)
H29_3 H 0.8775 0.5460 0.1840
C38_3 C 0.91776(26) 0.5346(2) 0.3790(3)
H30_3 H 0.9052 0.5368 0.4050
C39_3 C 0.94794(25) 0.52360(18) 0.1218(3)
H31_3 H 0.9606 0.5351 0.0935
C40_3 C 0.93104(24) 0.53969(18) 0.2914(3)
C41_3 C 0.96140(24) 0.52396(18) 0.3498(3)
H32_3 H 0.9784 0.5182 0.3554
C42_3 C 0.89756(29) 0.62326(24) 0.2174(3)
C43_3 C 0.91551(25) 0.57255(19) 0.2335(3)
C44_3 C 0.91539(27) 0.47275(19) 0.1699(3)
H33_3 H 0.9050 0.4489 0.1733
C45_3 C 0.93394(32) 0.60412(27) 0.2587(3)
H34_3 H 0.9517 0.6082 0.2807
C46_3 C 0.94061(22) 0.46822(17) 0.0884(3)
C47_3 C 0.91183(28) 0.49113(19) 0.2081(3)
H35_3 H 0.9001 0.4800 0.2371
C48_3 C 0.91206(27) 0.5409(2) 0.3311(3)
H36_3 H 0.8948 0.5462 0.3250
Zn3_3 Zn 0.94070(3) 0.41620(2) 0.04495(3)
Zn4_5 Zn 1.0000 0.5000 0.5000
Zn6_3 Zn 0.8333 0.6667 0.1667
O19_3 O 0.98556(22) 0.42253(19) 0.0597(2)
Zn8_3 Zn 0.94070(3) 0.52450(2) 0.54495(3)
Zn11_3 Zn 0.91713(4) 0.72597(3) 0.21162(3)
N5_3 N 0.91396(16) 0.36579(11) 0.0687(2)
Zn1_10 Zn 1.0000 0.5000 1.0000
O13_3 O 0.97651(22) 0.52715(19) 0.97656(19)
O16_3 O 0.97117(17) 0.46316(12) 0.94777(17)
O17_3 O 0.93109(19) 0.41077(11) 0.9768(2)
C22_4 C 0.63853(18) 0.5639(3) 0.1176(3)
H13_4 H 0.6258 0.5460 0.1422
H14_4 H 0.6291 0.5793 0.1171
C23_4 C 0.65687(17) 0.5742(2) 0.0342(4)
H15_4 H 0.6499 0.5916 0.0313
H16_4 H 0.6542 0.5638 0.0016
C24_4 C 0.64778(17) 0.5236(2) 0.0722(4)
H17_4 H 0.6480 0.5147 0.0392
H18_4 H 0.6327 0.5042 0.0933
N3_4 N 0.69912(11) 0.58063(16) 0.0980(2)
C25_4 C 0.69480(18) 0.59204(35) 0.0491(3)
H19_4 H 0.7075 0.5869 0.0245
H20_4 H 0.7042 0.6169 0.0496
C26_4 C 0.67646(17) 0.58400(26) 0.1325(4)
H21_4 H 0.6834 0.6084 0.1354
H22_4 H 0.6791 0.5763 0.1651
C27_4 C 0.68555(17) 0.54249(26) 0.0945(4)
H23_4 H 0.6853 0.5334 0.1275
H24_4 H 0.7006 0.5382 0.0734
O13_4 O 0.44937(11) 0.47285(19) 0.52344(19)
O14_4 O 0.55063(11) 0.52715(19) 0.47656(19)
O15_4 O 0.52098(12) 0.48135(12) 0.55433(19)
O16_4 O 0.50801(12) 0.53684(12) 0.55223(17)
Zn7_4 Zn 0.74953(2) 0.60737(3) 0.12172(3)
O13_5 O 0.02349(22) 0.55063(11) 0.52344(19)
O16_5 O 0.02883(17) 0.49199(12) 0.55223(17)
C22_5 C 0.92537(35) 0.36147(18) 0.1176(3)
H13_5 H 0.9202 0.3742 0.1422
H14_5 H 0.9502 0.3709 0.1171
C23_5 C 0.91733(26) 0.34313(17) 0.0342(4)
H15_5 H 0.9417 0.3501 0.0313
H16_5 H 0.9096 0.3458 0.0016
C24_5 C 0.87582(26) 0.35222(17) 0.0722(4)
H17_5 H 0.8667 0.3520 0.0392
H18_5 H 0.8715 0.3673 0.0933
N3_5 N 0.88150(19) 0.30088(11) 0.0980(2)
C25_5 C 0.89723(39) 0.30520(18) 0.0491(3)
H19_5 H 0.8793 0.2925 0.0245
H20_5 H 0.9126 0.2958 0.0496
C26_5 C 0.90753(31) 0.32354(17) 0.1325(4)
H21_5 H 0.9249 0.3166 0.1354
H22_5 H 0.8971 0.3209 0.1651
C27_5 C 0.85693(31) 0.31445(17) 0.0945(4)
H23_5 H 0.8480 0.3147 0.1275
H24_5 H 0.8375 0.2994 0.0734
O14_5 O 0.97651(22) 0.44937(11) 0.47656(19)
O15_5 O 0.96037(17) 0.47902(12) 0.55433(19)
Zn7_5 Zn 0.85783(4) 0.25047(2) 0.12172(3)
C22_6 C 0.4361(3) 0.07463(35) 0.1176(3)
H13_6 H 0.4540 0.0798 0.1422
H14_6 H 0.4207 0.0498 0.1171
C23_6 C 0.4258(2) 0.08267(26) 0.0342(4)
H15_6 H 0.4084 0.0583 0.0313
H16_6 H 0.4362 0.0904 0.0016
C24_6 C 0.4764(2) 0.12418(26) 0.0722(4)
H17_6 H 0.4853 0.1333 0.0392
H18_6 H 0.4958 0.1285 0.0933
N3_6 N 0.41937(16) 0.11850(19) 0.0980(2)
C25_6 C 0.40796(35) 0.10277(39) 0.0491(3)
H19_6 H 0.4131 0.1207 0.0245
H20_6 H 0.3831 0.0874 0.0496
C26_6 C 0.41600(26) 0.09247(31) 0.1325(4)
H21_6 H 0.3916 0.0751 0.1354
H22_6 H 0.4237 0.1029 0.1651
C27_6 C 0.45751(26) 0.14307(31) 0.0945(4)
H23_6 H 0.4666 0.1520 0.1275
H24_6 H 0.4618 0.1625 0.0734
O14_6 O 0.47285(19) 0.02349(22) 0.47656(19)
O15_6 O 0.51865(12) 0.03963(17) 0.55433(19)
Zn7_6 Zn 0.39263(3) 0.14217(4) 0.12172(3)
O13_6 O 0.52715(19) 0.97651(22) 0.52344(19)
O16_6 O 0.46316(12) 0.97117(17) 0.55223(17)
N3_7 N 0.24729(16) 0.03246(11) 0.7354(2)
C25_7 C 0.25870(35) 0.02814(18) 0.7843(3)
H19_7 H 0.2535 0.0409 0.8089
H20_7 H 0.2835 0.0376 0.7838
C26_7 C 0.25066(26) 0.00980(17) 0.7009(4)
H21_7 H 0.2750 0.0168 0.6980
H22_7 H 0.2429 0.0125 0.6683
C27_7 C 0.20915(26) 0.01889(17) 0.7389(4)
H23_7 H 0.2000 0.0187 0.7059
H24_7 H 0.2048 0.0340 0.7600
Zn7_7 Zn 0.27403(3) 0.08287(2) 0.71162(3)
O2_4 O 0.14569(12) 0.85198(12) 0.77900(19)
O3_4 O 0.12983(12) 0.82532(12) 0.38556(17)
O4_4 O 0.15444(12) 0.89843(11) 0.73917(17)
C1_4 C 0.08425(17) 0.80838(18) 0.4440(3)
C2_4 C 0.06608(18) 0.8068(2) 0.6302(3)
C3_4 C 0.11259(17) 0.84545(16) 0.7070(3)
O5_4 O 0.07744(11) 0.81301(15) 0.3565(2)
C4_4 C 0.06773(17) 0.79143(19) 0.6734(3)
H1_4 H 0.0528 0.7678 0.6776
C6_4 C 0.0984(2) 0.81675(16) 0.3904(3)
N1_4 N 0.04437(15) 0.78676(17) 0.5912(2)
C9_4 C 0.09145(17) 0.80216(18) 0.5307(3)
H4_4 H 0.1059 0.8030 0.5564
C11_4 C 0.04983(16) 0.7987(2) 0.4543(3)
H6_4 H 0.0351 0.7965 0.4283
C12_4 C 0.09101(17) 0.80973(18) 0.7115(3)
H7_4 H 0.0922 0.7982 0.7398
C13_4 C 0.05802(16) 0.79364(18) 0.5419(3)
C14_4 C 0.10411(16) 0.80937(18) 0.4835(3)
H8_4 H 0.1269 0.8151 0.4779
C16_4 C 0.00963(16) 0.76078(19) 0.5998(3)
C17_4 C 0.10931(19) 0.86058(19) 0.6634(3)
H9_4 H 0.1228 0.8844 0.6600
H10_4 H 0.0102 0.7251 0.5526
C19_4 C 0.13906(14) 0.86511(17) 0.7449(3)
C20_4 C 0.0874(2) 0.84220(19) 0.6252(3)
H11_4 H 0.0868 0.8533 0.5962
C21_4 C 0.03783(18) 0.7924(2) 0.5022(3)
H12_4 H 0.0153 0.7871 0.5083
Zn2_4 Zn 0.19117(2) 0.91713(2) 0.78838(3)
N2_4 N 0.21484(11) 0.96754(11) 0.7646(2)
C22_7 C 0.2306(3) 0.97186(18) 0.7157(3)
H13_7 H 0.2127 0.9591 0.6911
H14_7 H 0.2460 0.9624 0.7162
C23_7 C 0.2409(2) 0.99020(17) 0.7991(4)
H15_7 H 0.2583 0.9832 0.8020
H16_7 H 0.2305 0.9875 0.8317
C24_7 C 0.1903(2) 0.98111(17) 0.7611(4)
H17_7 H 0.1814 0.9813 0.7941
H18_7 H 0.1709 0.9660 0.7400
O8_4 O 0.18532(12) 0.81235(12) 0.38766(19)
O9_4 O 0.15866(12) 0.79649(12) 0.78110(17)
O10_4 O 0.23177(11) 0.82110(12) 0.42749(17)
C28_4 C 0.14172(18) 0.75091(17) 0.7226(3)
C29_4 C 0.1402(2) 0.73274(18) 0.5364(3)
C30_4 C 0.17879(16) 0.77925(17) 0.4596(3)
O11_4 O 0.14635(15) 0.74410(11) 0.8101(2)
C31_4 C 0.12477(19) 0.73439(17) 0.4932(3)
H25_4 H 0.1012 0.7194 0.4890
C32_4 C 0.01506(23) 0.56963(15) 0.5433(2)
C33_4 C 0.15009(16) 0.7650(2) 0.7762(3)
N4_4 N 0.12010(17) 0.71103(15) 0.5754(2)
C34_4 C 0.07496(25) 0.62184(17) 0.5273(3)
H26_4 H 0.0795 0.6081 0.5061
C35_4 C 0.03704(25) 0.62814(15) 0.5826(3)
H27_4 H 0.0156 0.6189 0.5982
C36_4 C 0.13550(18) 0.75811(17) 0.6359(3)
H28_4 H 0.1364 0.7725 0.6102
C37_4 C 0.09987(27) 0.65567(18) 0.5344(3)
H29_4 H 0.1207 0.6648 0.5173
C38_4 C 0.1321(2) 0.71649(16) 0.7123(3)
H30_4 H 0.1299 0.7017 0.7383
C39_4 C 0.14307(18) 0.75767(17) 0.4551(3)
H31_4 H 0.1316 0.7588 0.4268
C40_4 C 0.12698(18) 0.72468(16) 0.6247(3)
C41_4 C 0.14271(18) 0.77077(16) 0.6831(3)
H32_4 H 0.1485 0.7935 0.6887
C42_4 C 0.04341(24) 0.60763(17) 0.5507(3)
C43_4 C 0.09412(19) 0.67629(16) 0.5668(3)
C44_4 C 0.19392(19) 0.77597(19) 0.5032(3)
H33_4 H 0.2178 0.7894 0.5066
C45_4 C 0.06255(27) 0.66315(18) 0.5920(3)
H34_4 H 0.0585 0.6768 0.6140
C46_4 C 0.19845(17) 0.80572(14) 0.4217(3)
C47_4 C 0.17554(19) 0.7540(2) 0.5414(3)
H35_4 H 0.1867 0.7534 0.5704
C48_4 C 0.1258(2) 0.70449(18) 0.6644(3)
H36_4 H 0.1205 0.6819 0.6583
Zn4_6 Zn 0.1667 0.8333 0.8333
O14_7 O 0.19381(19) 0.88397(11) 0.35678(19)
O15_7 O 0.14802(12) 0.85431(12) 0.27900(19)
O16_7 O 0.20351(12) 0.84134(12) 0.28110(17)
O17_4 O 0.25590(11) 0.85365(15) 0.3101(2)
O18_4 O 0.18699(15) 0.92256(11) 0.8565(2)
O19_4 O 0.24413(19) 0.89636(11) 0.3931(2)
O20_4 O 0.22969(11) 0.91080(19) 0.7736(2)
Zn8_4 Zn 0.14217(2) 0.74953(2) 0.87828(3)
O1_4 O 0.88397(11) 0.69015(16) 0.64322(19)
O6_4 O 0.89636(11) 0.65222(16) 0.6069(2)
C5_4 C 0.90297(15) 0.68172(23) 0.6233(2)
C7_4 C 0.95518(17) 0.74162(25) 0.6393(3)
H2_4 H 0.9415 0.7461 0.6605
C8_4 C 0.96148(15) 0.70370(25) 0.5840(3)
H3_4 H 0.9523 0.6822 0.5684
C10_4 C 0.98901(18) 0.76653(27) 0.6322(3)
H5_4 H 0.9982 0.7873 0.6493
C15_4 C 0.94097(17) 0.71007(24) 0.6159(3)
C18_4 C 0.99649(18) 0.72921(27) 0.5746(3)
O12_4 O 0.98556(16) 0.56302(11) 0.5597(2)
Zn5_4 Zn 0.8333 0.6667 0.6667
Zn10_4 Zn 0.85783(2) 0.60737(3) 0.62172(3)
O1_5 O 0.30985(16) 0.19381(19) 0.64322(19)
O2_5 O 0.14802(12) 0.29370(17) 0.77900(19)
O3_5 O 0.17468(12) 0.30450(17) 0.38556(17)
O4_5 O 0.10157(11) 0.25600(16) 0.73917(17)
C1_5 C 0.19162(18) 0.27586(25) 0.4440(3)
C2_5 C 0.1932(2) 0.25924(27) 0.6302(3)
C3_5 C 0.15455(16) 0.26713(23) 0.7070(3)
O5_5 O 0.18699(15) 0.26442(19) 0.3565(2)
C4_5 C 0.20857(19) 0.27629(25) 0.6734(3)
H1_5 H 0.2322 0.2849 0.6776
O6_5 O 0.34778(16) 0.24413(19) 0.6069(2)
C5_5 C 0.31828(23) 0.22124(27) 0.6233(2)
C6_5 C 0.18325(16) 0.28161(26) 0.3904(3)
N1_5 N 0.21324(17) 0.25760(23) 0.5912(2)
C7_5 C 0.25838(25) 0.21355(30) 0.6393(3)
H2_5 H 0.2539 0.1953 0.6605
C8_5 C 0.29630(25) 0.25777(29) 0.5840(3)
H3_5 H 0.3178 0.2700 0.5684
C9_5 C 0.19784(18) 0.28928(25) 0.5307(3)
H4_5 H 0.1970 0.3028 0.5564
C10_5 C 0.23347(27) 0.22247(32) 0.6322(3)
H5_5 H 0.2127 0.2108 0.6493
C11_5 C 0.2013(2) 0.25109(26) 0.4543(3)
H6_5 H 0.2035 0.2385 0.4283
C12_5 C 0.19027(18) 0.28127(25) 0.7115(3)
H7_5 H 0.2018 0.2939 0.7398
C13_5 C 0.20636(18) 0.26437(24) 0.5419(3)
C14_5 C 0.19063(18) 0.29473(24) 0.4835(3)
H8_5 H 0.1849 0.3117 0.4779
C15_5 C 0.28993(24) 0.23089(29) 0.6159(3)
C16_5 C 0.23922(19) 0.24884(25) 0.5998(3)
C17_5 C 0.13942(19) 0.24872(27) 0.6634(3)
H9_5 H 0.1156 0.2383 0.6600
C18_5 C 0.27079(27) 0.26727(32) 0.5746(3)
H10_5 H 0.2749 0.2850 0.5526
C19_5 C 0.13489(17) 0.27394(22) 0.7449(3)
C20_5 C 0.15780(19) 0.24516(28) 0.6252(3)
H11_5 H 0.1467 0.2334 0.5962
C21_5 C 0.2076(2) 0.24539(27) 0.5022(3)
H12_5 H 0.2129 0.2281 0.5083
Zn2_5 Zn 0.08287(2) 0.27403(3) 0.78838(3)
N2_5 N 0.03246(11) 0.24729(16) 0.7646(2)
C22_8 C 0.02814(18) 0.25870(35) 0.7157(3)
H13_8 H 0.0409 0.2535 0.6911
H14_8 H 0.0376 0.2835 0.7162
C23_8 C 0.00980(17) 0.25066(26) 0.7991(4)
H15_8 H 0.0168 0.2750 0.8020
H16_8 H 0.0125 0.2429 0.8317
C24_8 C 0.01889(17) 0.20915(26) 0.7611(4)
H17_8 H 0.0187 0.2000 0.7941
H18_8 H 0.0340 0.2048 0.7400
O8_5 O 0.18765(12) 0.37296(17) 0.38766(19)
O9_5 O 0.20351(12) 0.36216(17) 0.78110(17)
O10_5 O 0.17890(12) 0.41066(16) 0.42749(17)
C28_5 C 0.24909(17) 0.39080(25) 0.7226(3)
C29_5 C 0.26726(18) 0.40742(27) 0.5364(3)
C30_5 C 0.22075(17) 0.39953(23) 0.4596(3)
O11_5 O 0.25590(11) 0.40224(19) 0.8101(2)
C31_5 C 0.26561(17) 0.39037(25) 0.4932(3)
H25_5 H 0.2806 0.3817 0.4890
O12_5 O 0.43698(11) 0.42253(19) 0.5597(2)
C32_5 C 0.43037(15) 0.44542(27) 0.5433(2)
C33_5 C 0.2350(2) 0.38505(26) 0.7762(3)
N4_5 N 0.28897(15) 0.40906(23) 0.5754(2)
C34_5 C 0.37816(17) 0.45311(30) 0.5273(3)
H26_5 H 0.3919 0.4713 0.5061
C35_5 C 0.37186(15) 0.40889(29) 0.5826(3)
H27_5 H 0.3811 0.3966 0.5982
C36_5 C 0.24189(17) 0.37738(25) 0.6359(3)
H28_5 H 0.2275 0.3638 0.6102
C37_5 C 0.34433(18) 0.44419(32) 0.5344(3)
H29_5 H 0.3352 0.4558 0.5173
C38_5 C 0.28351(16) 0.41557(26) 0.7123(3)
H30_5 H 0.2983 0.4281 0.7383
C39_5 C 0.24233(17) 0.38539(25) 0.4551(3)
H31_5 H 0.2412 0.3727 0.4268
C40_5 C 0.27532(16) 0.40229(24) 0.6247(3)
C41_5 C 0.22923(16) 0.37193(24) 0.6831(3)
H32_5 H 0.2065 0.3549 0.6887
C42_5 C 0.39237(17) 0.43577(29) 0.5507(3)
C43_5 C 0.32371(16) 0.41782(25) 0.5668(3)
C44_5 C 0.22403(19) 0.41794(27) 0.5032(3)
H33_5 H 0.2106 0.4283 0.5066
C45_5 C 0.33685(18) 0.39939(32) 0.5920(3)
H34_5 H 0.3232 0.3816 0.6140
C46_5 C 0.19428(14) 0.39272(22) 0.4217(3)
C47_5 C 0.2460(2) 0.42150(28) 0.5414(3)
H35_5 H 0.2466 0.4332 0.5704
C48_5 C 0.29551(18) 0.42127(27) 0.6644(3)
H36_5 H 0.3181 0.4385 0.6583
Zn4_7 Zn 0.1667 0.3333 0.8333
Zn5_5 Zn 0.3333 0.1667 0.6667
O14_8 O 0.11603(11) 0.30985(22) 0.35678(19)
O15_8 O 0.14569(12) 0.29370(17) 0.27900(19)
O16_8 O 0.15866(12) 0.36216(17) 0.28110(17)
O17_5 O 0.14635(15) 0.40224(19) 0.3101(2)
O18_5 O 0.07744(11) 0.26442(19) 0.8565(2)
O19_5 O 0.10364(11) 0.34778(22) 0.3931(2)
O20_5 O 0.08920(19) 0.31889(22) 0.7736(2)
Zn8_5 Zn 0.25047(2) 0.39263(3) 0.87828(3)
Zn10_5 Zn 0.39263(3) 0.25047(4) 0.62172(3)
N3_8 N 0.96754(11) 0.21484(19) 0.7354(2)
C25_8 C 0.97186(18) 0.23057(39) 0.7843(3)
H19_8 H 0.9591 0.2127 0.8089
H20_8 H 0.9624 0.2460 0.7838
C26_8 C 0.99020(17) 0.24087(31) 0.7009(4)
H21_8 H 0.9832 0.2583 0.6980
H22_8 H 0.9875 0.2305 0.6683
C27_8 C 0.98111(17) 0.19027(31) 0.7389(4)
H23_8 H 0.9813 0.1814 0.7059
H24_8 H 0.9660 0.1709 0.7600
Zn7_8 Zn 0.91713(2) 0.19117(4) 0.71162(3)
O1_6 O 0.80619(19) 0.11603(11) 0.64322(19)
O6_6 O 0.75587(19) 0.10364(11) 0.6069(2)
C5_6 C 0.77876(27) 0.09703(15) 0.6233(2)
C7_6 C 0.78645(30) 0.04482(17) 0.6393(3)
H2_6 H 0.8047 0.0585 0.6605
C8_6 C 0.74223(29) 0.03852(15) 0.5840(3)
H3_6 H 0.7300 0.0477 0.5684
C10_6 C 0.77753(32) 0.01099(18) 0.6322(3)
H5_6 H 0.7892 0.0018 0.6493
C15_6 C 0.76911(29) 0.05903(17) 0.6159(3)
C18_6 C 0.73273(32) 0.00351(18) 0.5746(3)
O12_6 O 0.57747(19) 0.01444(16) 0.5597(2)
Zn5_6 Zn 0.8333 0.1667 0.6667
Zn10_6 Zn 0.74953(4) 0.14217(2) 0.62172(3)
O2_6 O 0.70630(17) 0.85431(12) 0.77900(19)
O3_6 O 0.69550(17) 0.87017(12) 0.38556(17)
O4_6 O 0.74400(16) 0.84556(12) 0.73917(17)
C1_6 C 0.72414(25) 0.91575(17) 0.4440(3)
C2_6 C 0.74076(27) 0.93392(18) 0.6302(3)
C3_6 C 0.73287(23) 0.88741(17) 0.7070(3)
O5_6 O 0.73558(19) 0.92256(11) 0.3565(2)
C4_6 C 0.72371(25) 0.93227(17) 0.6734(3)
H1_6 H 0.7151 0.9472 0.6776
C6_6 C 0.71839(26) 0.9016(2) 0.3904(3)
N1_6 N 0.74240(23) 0.95563(15) 0.5912(2)
C9_6 C 0.71072(25) 0.90855(17) 0.5307(3)
H4_6 H 0.6972 0.8941 0.5564
C11_6 C 0.74891(26) 0.95017(16) 0.4543(3)
H6_6 H 0.7615 0.9649 0.4283
C12_6 C 0.71873(25) 0.90899(17) 0.7115(3)
H7_6 H 0.7061 0.9078 0.7398
C13_6 C 0.73563(24) 0.94198(16) 0.5419(3)
C14_6 C 0.70527(24) 0.89589(16) 0.4835(3)
H8_6 H 0.6883 0.8731 0.4779
C16_6 C 0.75116(25) 0.99037(16) 0.5998(3)
C17_6 C 0.75128(27) 0.89069(19) 0.6634(3)
H9_6 H 0.7617 0.8772 0.6600
H10_6 H 0.7150 0.9898 0.5526
C19_6 C 0.72606(22) 0.86094(14) 0.7449(3)
C20_6 C 0.75484(28) 0.9126(2) 0.6252(3)
H11_6 H 0.7666 0.9132 0.5962
C21_6 C 0.75461(27) 0.96217(18) 0.5022(3)
H12_6 H 0.7719 0.9847 0.5083
Zn2_6 Zn 0.72597(3) 0.80883(2) 0.78838(3)
N2_6 N 0.75271(16) 0.78516(11) 0.7646(2)
C22_9 C 0.74130(35) 0.7694(3) 0.7157(3)
H13_9 H 0.7465 0.7873 0.6911
H14_9 H 0.7165 0.7540 0.7162
C23_9 C 0.74934(26) 0.7591(2) 0.7991(4)
H15_9 H 0.7250 0.7417 0.8020
H16_9 H 0.7571 0.7695 0.8317
C24_9 C 0.79085(26) 0.8097(2) 0.7611(4)
H17_9 H 0.8000 0.8186 0.7941
H18_9 H 0.7952 0.8291 0.7400
N3_9 N 0.78516(19) 0.75271(16) 0.7354(2)
C25_9 C 0.76943(39) 0.74130(35) 0.7843(3)
H19_9 H 0.7873 0.7465 0.8089
H20_9 H 0.7540 0.7165 0.7838
C26_9 C 0.75913(31) 0.74934(26) 0.7009(4)
H21_9 H 0.7417 0.7250 0.6980
H22_9 H 0.7695 0.7571 0.6683
C27_9 C 0.80973(31) 0.79085(26) 0.7389(4)
H23_9 H 0.8186 0.8000 0.7059
H24_9 H 0.8291 0.7952 0.7600
O8_6 O 0.62704(17) 0.81468(12) 0.38766(19)
O9_6 O 0.63784(17) 0.84134(12) 0.78110(17)
O10_6 O 0.58934(16) 0.76823(11) 0.42749(17)
C28_6 C 0.60920(25) 0.85828(18) 0.7226(3)
C29_6 C 0.59258(27) 0.8598(2) 0.5364(3)
C30_6 C 0.60047(23) 0.82121(16) 0.4596(3)
O11_6 O 0.59776(19) 0.85365(15) 0.8101(2)
C31_6 C 0.60963(25) 0.87523(19) 0.4932(3)
H25_6 H 0.6183 0.8988 0.4890
C32_6 C 0.55458(27) 0.98494(23) 0.5433(2)
C33_6 C 0.61495(26) 0.84991(16) 0.7762(3)
N4_6 N 0.59094(23) 0.87990(17) 0.5754(2)
C34_6 C 0.54689(30) 0.92504(25) 0.5273(3)
H26_6 H 0.5287 0.9205 0.5061
C35_6 C 0.59111(29) 0.96296(25) 0.5826(3)
H27_6 H 0.6034 0.9844 0.5982
C36_6 C 0.62262(25) 0.86450(18) 0.6359(3)
H28_6 H 0.6362 0.8636 0.6102
C37_6 C 0.55581(32) 0.90013(27) 0.5344(3)
H29_6 H 0.5442 0.8793 0.5173
C38_6 C 0.58443(26) 0.8679(2) 0.7123(3)
H30_6 H 0.5719 0.8701 0.7383
C39_6 C 0.61461(25) 0.85693(18) 0.4551(3)
H31_6 H 0.6273 0.8684 0.4268
C40_6 C 0.59771(24) 0.87302(18) 0.6247(3)
C41_6 C 0.62807(24) 0.85729(18) 0.6831(3)
H32_6 H 0.6451 0.8515 0.6887
C42_6 C 0.56423(29) 0.95659(24) 0.5507(3)
C43_6 C 0.58218(25) 0.90588(19) 0.5668(3)
C44_6 C 0.58206(27) 0.80608(19) 0.5032(3)
H33_6 H 0.5717 0.7822 0.5066
C45_6 C 0.60061(32) 0.93745(27) 0.5920(3)
H34_6 H 0.6184 0.9415 0.6140
C46_6 C 0.60728(22) 0.80155(17) 0.4217(3)
C47_6 C 0.57850(28) 0.82446(19) 0.5414(3)
H35_6 H 0.5668 0.8133 0.5704
C48_6 C 0.57873(27) 0.8742(2) 0.6644(3)
H36_6 H 0.5615 0.8795 0.6583
Zn4_8 Zn 0.6667 0.8333 0.8333
O14_9 O 0.69015(22) 0.80619(19) 0.35678(19)
O15_9 O 0.70630(17) 0.85198(12) 0.27900(19)
O16_9 O 0.63784(17) 0.79649(12) 0.28110(17)
O17_6 O 0.59776(19) 0.74410(11) 0.3101(2)
O18_6 O 0.73558(19) 0.81301(15) 0.8565(2)
O19_6 O 0.65222(22) 0.75587(19) 0.3931(2)
O20_6 O 0.68111(22) 0.77031(11) 0.7736(2)
Zn7_9 Zn 0.80883(4) 0.72597(3) 0.71162(3)
Zn8_6 Zn 0.60737(3) 0.85783(2) 0.87828(3)
O13_7 O 0.11603(11) 0.80619(19) 0.85678(19)
O14_10 O 0.21730(11) 0.86048(19) 0.80989(19)
O15_10 O 0.18765(12) 0.81468(12) 0.88766(19)
O16_10 O 0.17468(12) 0.87017(12) 0.88556(17)
O13_8 O 0.69015(22) 0.88397(11) 0.85678(19)
O14_11 O 0.64318(22) 0.78270(11) 0.80989(19)
O15_11 O 0.62704(17) 0.81235(12) 0.88766(19)
O16_11 O 0.69550(17) 0.82532(12) 0.88556(17)
O13_9 O 0.19381(19) 0.30985(22) 0.85678(19)
O14_12 O 0.13952(19) 0.35682(22) 0.80989(19)
O15_12 O 0.18532(12) 0.37296(17) 0.88766(19)
O16_12 O 0.12983(12) 0.30450(17) 0.88556(17)
O2_7 O 0.81235(12) 0.18532(12) 0.11234(19)
O4_7 O 0.82110(12) 0.23177(11) 0.07251(17)
C3_7 C 0.77925(17) 0.17879(16) 0.0404(3)
C4_7 C 0.73439(17) 0.12477(19) 0.0068(3)
H1_7 H 0.7194 0.1012 0.0110
C12_7 C 0.75767(17) 0.14307(18) 0.0449(3)
H7_7 H 0.7588 0.1316 0.0732
C19_7 C 0.80572(14) 0.19845(17) 0.0783(3)
O9_7 O 0.82532(12) 0.12983(12) 0.11444(17)
C28_7 C 0.80838(18) 0.08425(17) 0.0560(3)
O11_7 O 0.81301(15) 0.07744(11) 0.1435(2)
C33_7 C 0.81675(16) 0.0984(2) 0.1096(3)
C38_7 C 0.7987(2) 0.04983(16) 0.0457(3)
H30_7 H 0.7965 0.0351 0.0717
C41_7 C 0.80937(18) 0.10411(16) 0.0165(3)
H32_7 H 0.8151 0.1269 0.0221
O18_7 O 0.85365(15) 0.25590(11) 0.1899(2)
O20_7 O 0.89636(11) 0.24413(19) 0.1069(2)
O3_7 O 0.79649(12) 0.15866(12) 0.71890(17)
C1_7 C 0.75091(17) 0.14172(18) 0.7774(3)
C2_7 C 0.73274(18) 0.1402(2) 0.9636(3)
O5_7 O 0.74410(11) 0.14635(15) 0.6899(2)
C5_7 C 0.56963(15) 0.01506(23) 0.9567(2)
C6_7 C 0.7650(2) 0.15009(16) 0.7238(3)
N1_7 N 0.71103(15) 0.12010(17) 0.9246(2)
C7_7 C 0.62184(17) 0.07496(25) 0.9727(3)
H2_7 H 0.6081 0.0795 0.9939
C8_7 C 0.62814(15) 0.03704(25) 0.9174(3)
H3_7 H 0.6189 0.0156 0.9018
C9_7 C 0.75811(17) 0.13550(18) 0.8641(3)
H4_7 H 0.7725 0.1364 0.8898
C10_7 C 0.65567(18) 0.09987(27) 0.9656(3)
H5_7 H 0.6648 0.1207 0.9827
C11_7 C 0.71649(16) 0.1321(2) 0.7877(3)
H6_7 H 0.7017 0.1299 0.7617
C13_7 C 0.72468(16) 0.12698(18) 0.8753(3)
C14_7 C 0.77077(16) 0.14271(18) 0.8169(3)
H8_7 H 0.7935 0.1485 0.8113
C15_7 C 0.60763(17) 0.04341(24) 0.9493(3)
C16_7 C 0.67629(16) 0.09412(19) 0.9332(3)
C17_7 C 0.77597(19) 0.19392(19) 0.9968(3)
H9_7 H 0.7894 0.2178 0.9934
C18_7 C 0.66315(18) 0.06255(27) 0.9080(3)
H10_7 H 0.6768 0.0585 0.8860
C20_7 C 0.7540(2) 0.17554(19) 0.9586(3)
H11_7 H 0.7534 0.1867 0.9296
C21_7 C 0.70449(18) 0.1258(2) 0.8356(3)
H12_7 H 0.6819 0.1205 0.8417
O8_7 O 0.85198(12) 0.14569(12) 0.72100(19)
O10_7 O 0.89843(11) 0.15444(12) 0.76083(17)
C29_7 C 0.8068(2) 0.06608(18) 0.8698(3)
C30_7 C 0.84545(16) 0.11259(17) 0.7930(3)
C31_7 C 0.79143(19) 0.06773(17) 0.8266(3)
H25_7 H 0.7678 0.0528 0.8224
N4_7 N 0.78676(17) 0.04437(15) 0.9088(2)
C36_7 C 0.80216(18) 0.09145(17) 0.9693(3)
H28_7 H 0.8030 0.1059 0.9436
C39_7 C 0.80973(18) 0.09101(17) 0.7885(3)
H31_7 H 0.7982 0.0922 0.7602
C40_7 C 0.79364(18) 0.05802(16) 0.9581(3)
C43_7 C 0.76078(19) 0.00963(16) 0.9002(3)
C44_7 C 0.86058(19) 0.10931(19) 0.8366(3)
H33_7 H 0.8844 0.1228 0.8400
H34_7 H 0.7251 0.0102 0.9474
C46_7 C 0.86511(17) 0.13906(14) 0.7551(3)
C47_7 C 0.84220(19) 0.0874(2) 0.8748(3)
H35_7 H 0.8533 0.0868 0.9038
C48_7 C 0.7924(2) 0.03783(18) 0.9978(3)
H36_7 H 0.7871 0.0153 0.9917
O14_13 O 0.86048(19) 0.21730(11) 0.69011(19)
O15_13 O 0.81468(12) 0.18765(12) 0.61234(19)
O16_13 O 0.87017(12) 0.17468(12) 0.61444(17)
O17_7 O 0.92256(11) 0.18699(15) 0.6435(2)
O19_7 O 0.91080(19) 0.22969(11) 0.7264(2)
O6_7 O 0.56302(11) 0.98556(16) 0.9403(2)
O12_7 O 0.65222(16) 0.89636(11) 0.8931(2)
C32_7 C 0.68172(23) 0.90297(15) 0.8767(2)
C34_7 C 0.74162(25) 0.95518(17) 0.8607(3)
H26_7 H 0.7461 0.9415 0.8395
C35_7 C 0.70370(25) 0.96148(15) 0.9160(3)
H27_7 H 0.6822 0.9523 0.9316
C37_7 C 0.76653(27) 0.98901(18) 0.8678(3)
H29_7 H 0.7873 0.9982 0.8507
C42_7 C 0.71007(24) 0.94097(17) 0.8841(3)
C45_7 C 0.72921(27) 0.99649(18) 0.9254(3)
O6_8 O 0.01444(16) 0.57747(19) 0.9403(2)
O12_8 O 0.10364(11) 0.75587(19) 0.8931(2)
C32_8 C 0.09703(15) 0.77876(27) 0.8767(2)
C34_8 C 0.04482(17) 0.78645(30) 0.8607(3)
H26_8 H 0.0585 0.8047 0.8395
C35_8 C 0.03852(15) 0.74223(29) 0.9160(3)
H27_8 H 0.0477 0.7300 0.9316
C37_8 C 0.01099(18) 0.77753(32) 0.8678(3)
H29_8 H 0.0018 0.7892 0.8507
C42_8 C 0.05903(17) 0.76911(29) 0.8841(3)
C45_8 C 0.00351(18) 0.73273(32) 0.9254(3)
O2_8 O 0.81468(12) 0.62704(17) 0.11234(19)
O4_8 O 0.76823(11) 0.58934(16) 0.07251(17)
C3_8 C 0.82121(16) 0.60047(23) 0.0404(3)
C4_8 C 0.87523(19) 0.60963(25) 0.0068(3)
H1_8 H 0.8988 0.6183 0.0110
C12_8 C 0.85693(18) 0.61461(25) 0.0449(3)
H7_8 H 0.8684 0.6273 0.0732
C19_8 C 0.80155(17) 0.60728(22) 0.0783(3)
O9_8 O 0.87017(12) 0.69550(17) 0.11444(17)
C28_8 C 0.91575(17) 0.72414(25) 0.0560(3)
O11_8 O 0.92256(11) 0.73558(19) 0.1435(2)
C33_8 C 0.9016(2) 0.71839(26) 0.1096(3)
C38_8 C 0.95017(16) 0.74891(26) 0.0457(3)
H30_8 H 0.9649 0.7615 0.0717
C41_8 C 0.89589(16) 0.70527(24) 0.0165(3)
H32_8 H 0.8731 0.6883 0.0221
O18_8 O 0.74410(11) 0.59776(19) 0.1899(2)
O20_8 O 0.75587(19) 0.65222(22) 0.1069(2)
O3_8 O 0.84134(12) 0.63784(17) 0.71890(17)
C1_8 C 0.85828(18) 0.60920(25) 0.7774(3)
C2_8 C 0.8598(2) 0.59258(27) 0.9636(3)
O5_8 O 0.85365(15) 0.59776(19) 0.6899(2)
C5_8 C 0.98494(23) 0.55458(27) 0.9567(2)
C6_8 C 0.84991(16) 0.61495(26) 0.7238(3)
N1_8 N 0.87990(17) 0.59094(23) 0.9246(2)
C7_8 C 0.92504(25) 0.54689(30) 0.9727(3)
H2_8 H 0.9205 0.5287 0.9939
C8_8 C 0.96296(25) 0.59111(29) 0.9174(3)
H3_8 H 0.9844 0.6034 0.9018
C9_8 C 0.86450(18) 0.62262(25) 0.8641(3)
H4_8 H 0.8636 0.6362 0.8898
C10_8 C 0.90013(27) 0.55581(32) 0.9656(3)
H5_8 H 0.8793 0.5442 0.9827
C11_8 C 0.8679(2) 0.58443(26) 0.7877(3)
H6_8 H 0.8701 0.5719 0.7617
C13_8 C 0.87302(18) 0.59771(24) 0.8753(3)
C14_8 C 0.85729(18) 0.62807(24) 0.8169(3)
H8_8 H 0.8515 0.6451 0.8113
C15_8 C 0.95659(24) 0.56423(29) 0.9493(3)
C16_8 C 0.90588(19) 0.58218(25) 0.9332(3)
C17_8 C 0.80608(19) 0.58206(27) 0.9968(3)
H9_8 H 0.7822 0.5717 0.9934
C18_8 C 0.93745(27) 0.60061(32) 0.9080(3)
H10_8 H 0.9415 0.6184 0.8860
C20_8 C 0.82446(19) 0.57850(28) 0.9586(3)
H11_8 H 0.8133 0.5668 0.9296
C21_8 C 0.8742(2) 0.57873(27) 0.8356(3)
H12_8 H 0.8795 0.5615 0.8417
O8_8 O 0.85431(12) 0.70630(17) 0.72100(19)
O10_8 O 0.84556(12) 0.74400(16) 0.76083(17)
C29_8 C 0.93392(18) 0.74076(27) 0.8698(3)
C30_8 C 0.88741(17) 0.73287(23) 0.7930(3)
C31_8 C 0.93227(17) 0.72371(25) 0.8266(3)
H25_8 H 0.9472 0.7151 0.8224
N4_8 N 0.95563(15) 0.74240(23) 0.9088(2)
C36_8 C 0.90855(17) 0.71072(25) 0.9693(3)
H28_8 H 0.8941 0.6972 0.9436
C39_8 C 0.90899(17) 0.71873(25) 0.7885(3)
H31_8 H 0.9078 0.7061 0.7602
C40_8 C 0.94198(16) 0.73563(24) 0.9581(3)
C43_8 C 0.99037(16) 0.75116(25) 0.9002(3)
C44_8 C 0.89069(19) 0.75128(27) 0.8366(3)
H33_8 H 0.8772 0.7617 0.8400
H34_8 H 0.9898 0.7150 0.9474
C46_8 C 0.86094(14) 0.72606(22) 0.7551(3)
C47_8 C 0.9126(2) 0.75484(28) 0.8748(3)
H35_8 H 0.9132 0.7666 0.9038
C48_8 C 0.96217(18) 0.75461(27) 0.9978(3)
H36_8 H 0.9847 0.7719 0.9917
O14_14 O 0.78270(11) 0.64318(22) 0.69011(19)
O15_14 O 0.81235(12) 0.62704(17) 0.61234(19)
O16_14 O 0.82532(12) 0.69550(17) 0.61444(17)
O17_8 O 0.81301(15) 0.73558(19) 0.6435(2)
O19_8 O 0.77031(11) 0.68111(22) 0.7264(2)
O2_9 O 0.37296(17) 0.18765(12) 0.11234(19)
O4_9 O 0.41066(16) 0.17890(12) 0.07251(17)
C3_9 C 0.39953(23) 0.22075(17) 0.0404(3)
C4_9 C 0.39037(25) 0.26561(17) 0.0068(3)
H1_9 H 0.3817 0.2806 0.0110
C12_9 C 0.38539(25) 0.24233(17) 0.0449(3)
H7_9 H 0.3727 0.2412 0.0732
C19_9 C 0.39272(22) 0.19428(14) 0.0783(3)
O9_9 O 0.30450(17) 0.17468(12) 0.11444(17)
C28_9 C 0.27586(25) 0.19162(18) 0.0560(3)
O11_9 O 0.26442(19) 0.18699(15) 0.1435(2)
C33_9 C 0.28161(26) 0.18325(16) 0.1096(3)
C38_9 C 0.25109(26) 0.2013(2) 0.0457(3)
H30_9 H 0.2385 0.2035 0.0717
C41_9 C 0.29473(24) 0.19063(18) 0.0165(3)
H32_9 H 0.3117 0.1849 0.0221
O18_9 O 0.40224(19) 0.14635(15) 0.1899(2)
O20_9 O 0.34778(22) 0.10364(11) 0.1069(2)
O3_9 O 0.36216(17) 0.20351(12) 0.71890(17)
C1_9 C 0.39080(25) 0.24909(17) 0.7774(3)
C2_9 C 0.40742(27) 0.26726(18) 0.9636(3)
O5_9 O 0.40224(19) 0.25590(11) 0.6899(2)
O6_9 O 0.42253(19) 0.43698(11) 0.9403(2)
C5_9 C 0.44542(27) 0.43037(15) 0.9567(2)
C6_9 C 0.38505(26) 0.2350(2) 0.7238(3)
N1_9 N 0.40906(23) 0.28897(15) 0.9246(2)
C7_9 C 0.45311(30) 0.37816(17) 0.9727(3)
H2_9 H 0.4713 0.3919 0.9939
C8_9 C 0.40889(29) 0.37186(15) 0.9174(3)
H3_9 H 0.3966 0.3811 0.9018
C9_9 C 0.37738(25) 0.24189(17) 0.8641(3)
H4_9 H 0.3638 0.2275 0.8898
C10_9 C 0.44419(32) 0.34433(18) 0.9656(3)
H5_9 H 0.4558 0.3352 0.9827
C11_9 C 0.41557(26) 0.28351(16) 0.7877(3)
H6_9 H 0.4281 0.2983 0.7617
C13_9 C 0.40229(24) 0.27532(16) 0.8753(3)
C14_9 C 0.37193(24) 0.22923(16) 0.8169(3)
H8_9 H 0.3549 0.2065 0.8113
C15_9 C 0.43577(29) 0.39237(17) 0.9493(3)
C16_9 C 0.41782(25) 0.32371(16) 0.9332(3)
C17_9 C 0.41794(27) 0.22403(19) 0.9968(3)
H9_9 H 0.4283 0.2106 0.9934
C18_9 C 0.39939(32) 0.33685(18) 0.9080(3)
H10_9 H 0.3816 0.3232 0.8860
C20_9 C 0.42150(28) 0.2460(2) 0.9586(3)
H11_9 H 0.4332 0.2466 0.9296
C21_9 C 0.42127(27) 0.29551(18) 0.8356(3)
H12_9 H 0.4385 0.3181 0.8417
O8_9 O 0.29370(17) 0.14802(12) 0.72100(19)
O10_9 O 0.25600(16) 0.10157(11) 0.76083(17)
C29_9 C 0.25924(27) 0.1932(2) 0.8698(3)
C30_9 C 0.26713(23) 0.15455(16) 0.7930(3)
C31_9 C 0.27629(25) 0.20857(19) 0.8266(3)
H25_9 H 0.2849 0.2322 0.8224
O12_9 O 0.24413(19) 0.34778(16) 0.8931(2)
C32_9 C 0.22124(27) 0.31828(23) 0.8767(2)
N4_9 N 0.25760(23) 0.21324(17) 0.9088(2)
C34_9 C 0.21355(30) 0.25838(25) 0.8607(3)
H26_9 H 0.1953 0.2539 0.8395
C35_9 C 0.25777(29) 0.29630(25) 0.9160(3)
H27_9 H 0.2700 0.3178 0.9316
C36_9 C 0.28928(25) 0.19784(18) 0.9693(3)
H28_9 H 0.3028 0.1970 0.9436
C37_9 C 0.22247(32) 0.23347(27) 0.8678(3)
H29_9 H 0.2108 0.2127 0.8507
C39_9 C 0.28127(25) 0.19027(18) 0.7885(3)
H31_9 H 0.2939 0.2018 0.7602
C40_9 C 0.26437(24) 0.20636(18) 0.9581(3)
C42_9 C 0.23089(29) 0.28993(24) 0.8841(3)
C43_9 C 0.24884(25) 0.23922(19) 0.9002(3)
C44_9 C 0.24872(27) 0.13942(19) 0.8366(3)
H33_9 H 0.2383 0.1156 0.8400
C45_9 C 0.26727(32) 0.27079(27) 0.9254(3)
H34_9 H 0.2850 0.2749 0.9474
C46_9 C 0.27394(22) 0.13489(17) 0.7551(3)
C47_9 C 0.24516(28) 0.15780(19) 0.8748(3)
H35_9 H 0.2334 0.1467 0.9038
C48_9 C 0.24539(27) 0.2076(2) 0.9978(3)
H36_9 H 0.2281 0.2129 0.9917
O14_15 O 0.35682(22) 0.13952(19) 0.69011(19)
O15_15 O 0.37296(17) 0.18532(12) 0.61234(19)
O16_15 O 0.30450(17) 0.12983(12) 0.61444(17)
O17_9 O 0.26442(19) 0.07744(11) 0.6435(2)
O19_9 O 0.31889(22) 0.08920(19) 0.7264(2)
O14_16 O 0.88397(11) 0.19381(19) 0.14322(19)
O15_16 O 0.85431(12) 0.14802(12) 0.22100(19)
O16_16 O 0.84134(12) 0.20351(12) 0.21890(17)
O14_17 O 0.30985(22) 0.11603(11) 0.14322(19)
O15_17 O 0.29370(17) 0.14569(12) 0.22100(19)
O16_17 O 0.36216(17) 0.15866(12) 0.21890(17)
O14_18 O 0.80619(19) 0.69015(22) 0.14322(19)
O15_18 O 0.85198(12) 0.70630(17) 0.22100(19)
O16_18 O 0.79649(12) 0.63784(17) 0.21890(17)
O4_10 O 0.51223(12) 0.43490(11) 0.59416(17)
C1_10 C 0.58242(17) 0.52495(18) 0.8893(3)
C2_10 C 0.60059(18) 0.5265(2) 0.7031(3)
C3_10 C 0.55408(17) 0.48788(16) 0.6263(3)
C4_10 C 0.59894(17) 0.54190(19) 0.6599(3)
H1_10 H 0.6139 0.5655 0.6557
C5_10 C 0.76370(15) 0.65161(23) 0.7100(2)
C6_10 C 0.5683(2) 0.51658(16) 0.9429(3)
N1_10 N 0.62230(15) 0.54657(17) 0.7421(2)
C7_10 C 0.71149(17) 0.59171(25) 0.6940(3)
H2_10 H 0.7252 0.5872 0.6728
C8_10 C 0.70519(15) 0.62963(25) 0.7493(3)
H3_10 H 0.7144 0.6511 0.7649
C9_10 C 0.57522(17) 0.53117(18) 0.8026(3)
H4_10 H 0.5608 0.5303 0.7769
C10_10 C 0.67766(18) 0.56680(27) 0.7011(3)
H5_10 H 0.6685 0.5460 0.6840
C11_10 C 0.61684(16) 0.5346(2) 0.8790(3)
H6_10 H 0.6316 0.5368 0.9050
C12_10 C 0.57566(17) 0.52360(18) 0.6218(3)
H7_10 H 0.5745 0.5351 0.5935
C13_10 C 0.60865(16) 0.53969(18) 0.7914(3)
C14_10 C 0.56256(16) 0.52396(18) 0.8498(3)
H8_10 H 0.5398 0.5182 0.8554
C15_10 C 0.72570(17) 0.62326(24) 0.7174(3)
C16_10 C 0.65704(16) 0.57255(19) 0.7335(3)
C17_10 C 0.55736(19) 0.47275(19) 0.6699(3)
H9_10 H 0.5439 0.4489 0.6733
C18_10 C 0.67018(18) 0.60412(27) 0.7587(3)
H10_10 H 0.6565 0.6082 0.7807
C19_10 C 0.52761(14) 0.46822(17) 0.5884(3)
C20_10 C 0.5793(2) 0.49113(19) 0.7081(3)
H11_10 H 0.5799 0.4800 0.7371
C21_10 C 0.62884(18) 0.5409(2) 0.8311(3)
H12_10 H 0.6514 0.5462 0.8250
N2_7 N 0.45183(11) 0.36579(11) 0.5687(2)
C22_10 C 0.4361(3) 0.36147(18) 0.6176(3)
H13_10 H 0.4540 0.3742 0.6422
H14_10 H 0.4207 0.3709 0.6171
C23_10 C 0.4258(2) 0.34313(17) 0.5342(4)
H15_10 H 0.4084 0.3501 0.5313
H16_10 H 0.4362 0.3458 0.5016
C24_10 C 0.4764(2) 0.35222(17) 0.5722(4)
H17_10 H 0.4853 0.3520 0.5392
H18_10 H 0.4958 0.3673 0.5933
N3_10 N 0.41937(16) 0.30088(11) 0.5980(2)
C25_10 C 0.40796(35) 0.30520(18) 0.5491(3)
H19_10 H 0.4131 0.2925 0.5245
H20_10 H 0.3831 0.2958 0.5496
C26_10 C 0.41600(26) 0.32354(17) 0.6325(4)
H21_10 H 0.3916 0.3166 0.6354
H22_10 H 0.4237 0.3209 0.6651
C27_10 C 0.45751(26) 0.31445(17) 0.5945(4)
H23_10 H 0.4666 0.3147 0.6275
H24_10 H 0.4618 0.2994 0.5734
O10_10 O 0.43490(11) 0.51223(12) 0.90584(17)
C28_10 C 0.52495(18) 0.58242(17) 0.6107(3)
C29_10 C 0.5265(2) 0.60059(18) 0.7969(3)
C30_10 C 0.48788(16) 0.55408(17) 0.8737(3)
C31_10 C 0.54190(19) 0.59894(17) 0.8401(3)
H25_10 H 0.5655 0.6139 0.8443
C32_10 C 0.65161(23) 0.76370(15) 0.7900(2)
C33_10 C 0.51658(16) 0.5683(2) 0.5571(3)
N4_10 N 0.54657(17) 0.62230(15) 0.7579(2)
C34_10 C 0.59171(25) 0.71149(17) 0.8060(3)
H26_10 H 0.5872 0.7252 0.8272
C35_10 C 0.62963(25) 0.70519(15) 0.7507(3)
H27_10 H 0.6511 0.7144 0.7351
C36_10 C 0.53117(18) 0.57522(17) 0.6974(3)
H28_10 H 0.5303 0.5608 0.7231
C37_10 C 0.56680(27) 0.67766(18) 0.7989(3)
H29_10 H 0.5460 0.6685 0.8160
C38_10 C 0.5346(2) 0.61684(16) 0.6210(3)
H30_10 H 0.5368 0.6316 0.5950
C39_10 C 0.52360(18) 0.57566(17) 0.8782(3)
H31_10 H 0.5351 0.5745 0.9065
C40_10 C 0.53969(18) 0.60865(16) 0.7086(3)
C41_10 C 0.52396(18) 0.56256(16) 0.6502(3)
H32_10 H 0.5182 0.5398 0.6446
C42_10 C 0.62326(24) 0.72570(17) 0.7826(3)
C43_10 C 0.57255(19) 0.65704(16) 0.7665(3)
C44_10 C 0.47275(19) 0.55736(19) 0.8301(3)
H33_10 H 0.4489 0.5439 0.8267
C45_10 C 0.60412(27) 0.67018(18) 0.7413(3)
H34_10 H 0.6082 0.6565 0.7193
C46_10 C 0.46822(17) 0.52761(14) 0.9116(3)
C47_10 C 0.49113(19) 0.5793(2) 0.7919(3)
H35_10 H 0.4800 0.5799 0.7629
C48_10 C 0.5409(2) 0.62884(18) 0.6689(3)
H36_10 H 0.5462 0.6514 0.6750
N5_4 N 0.36579(11) 0.45183(11) 0.9313(2)
O4_11 O 0.56510(11) 0.07733(16) 0.59416(17)
C1_11 C 0.47505(18) 0.05747(25) 0.8893(3)
C2_11 C 0.4735(2) 0.07409(27) 0.7031(3)
C3_11 C 0.51212(16) 0.06620(23) 0.6263(3)
C4_11 C 0.45810(19) 0.05704(25) 0.6599(3)
H1_11 H 0.4345 0.0484 0.6557
C5_11 C 0.34839(23) 0.11209(27) 0.7100(2)
C6_11 C 0.48342(16) 0.05172(26) 0.9429(3)
N1_11 N 0.45343(17) 0.07573(23) 0.7421(2)
C7_11 C 0.40829(25) 0.11978(30) 0.6940(3)
H2_11 H 0.4128 0.1380 0.6728
C8_11 C 0.37037(25) 0.07556(29) 0.7493(3)
H3_11 H 0.3489 0.0633 0.7649
C9_11 C 0.46883(18) 0.04405(25) 0.8026(3)
H4_11 H 0.4697 0.0305 0.7769
C10_11 C 0.43320(27) 0.11086(32) 0.7011(3)
H5_11 H 0.4540 0.1225 0.6840
C11_11 C 0.4654(2) 0.08224(26) 0.8790(3)
H6_11 H 0.4632 0.0948 0.9050
C12_11 C 0.47640(18) 0.05206(25) 0.6218(3)
H7_11 H 0.4649 0.0394 0.5935
C13_11 C 0.46031(18) 0.06896(24) 0.7914(3)
C14_11 C 0.47604(18) 0.03860(24) 0.8498(3)
H8_11 H 0.4818 0.0216 0.8554
C15_11 C 0.37674(24) 0.10244(29) 0.7174(3)
C16_11 C 0.42745(19) 0.08449(25) 0.7335(3)
C17_11 C 0.52725(19) 0.08461(27) 0.6699(3)
H9_11 H 0.5511 0.0950 0.6733
C18_11 C 0.39588(27) 0.06606(32) 0.7587(3)
H10_11 H 0.3918 0.0483 0.7807
C19_11 C 0.53178(17) 0.05939(22) 0.5884(3)
C20_11 C 0.50887(19) 0.08817(28) 0.7081(3)
H11_11 H 0.5200 0.0999 0.7371
C21_11 C 0.4591(2) 0.08794(27) 0.8311(3)
H12_11 H 0.4538 0.1052 0.8250
N2_8 N 0.63421(11) 0.08604(16) 0.5687(2)
C22_11 C 0.63853(18) 0.07463(35) 0.6176(3)
H13_11 H 0.6258 0.0798 0.6422
H14_11 H 0.6291 0.0498 0.6171
C23_11 C 0.65687(17) 0.08267(26) 0.5342(4)
H15_11 H 0.6499 0.0583 0.5313
H16_11 H 0.6542 0.0904 0.5016
C24_11 C 0.64778(17) 0.12418(26) 0.5722(4)
H17_11 H 0.6480 0.1333 0.5392
H18_11 H 0.6327 0.1285 0.5933
N3_11 N 0.69912(11) 0.11850(19) 0.5980(2)
C25_11 C 0.69480(18) 0.10277(39) 0.5491(3)
H19_11 H 0.7075 0.1207 0.5245
H20_11 H 0.7042 0.0874 0.5496
C26_11 C 0.67646(17) 0.09247(31) 0.6325(4)
H21_11 H 0.6834 0.0751 0.6354
H22_11 H 0.6791 0.1029 0.6651
C27_11 C 0.68555(17) 0.14307(31) 0.5945(4)
H23_11 H 0.6853 0.1520 0.6275
H24_11 H 0.7006 0.1625 0.5734
O10_11 O 0.48777(12) 0.92267(16) 0.90584(17)
C28_11 C 0.41758(17) 0.94253(25) 0.6107(3)
C29_11 C 0.39941(18) 0.92591(27) 0.7969(3)
C30_11 C 0.44592(17) 0.93380(23) 0.8737(3)
C31_11 C 0.40106(17) 0.94296(25) 0.8401(3)
H25_11 H 0.3861 0.9516 0.8443
C32_11 C 0.23630(15) 0.88791(27) 0.7900(2)
C33_11 C 0.4317(2) 0.94828(26) 0.5571(3)
N4_11 N 0.37770(15) 0.92427(23) 0.7579(2)
C34_11 C 0.28851(17) 0.88022(30) 0.8060(3)
H26_11 H 0.2748 0.8620 0.8272
C35_11 C 0.29481(15) 0.92444(29) 0.7507(3)
H27_11 H 0.2856 0.9367 0.7351
C36_11 C 0.42478(17) 0.95595(25) 0.6974(3)
H28_11 H 0.4392 0.9695 0.7231
C37_11 C 0.32234(18) 0.88914(32) 0.7989(3)
H29_11 H 0.3315 0.8775 0.8160
C38_11 C 0.38316(16) 0.91776(26) 0.6210(3)
H30_11 H 0.3684 0.9052 0.5950
C39_11 C 0.42434(17) 0.94794(25) 0.8782(3)
H31_11 H 0.4255 0.9606 0.9065
C40_11 C 0.39135(16) 0.93104(24) 0.7086(3)
C41_11 C 0.43744(16) 0.96140(24) 0.6502(3)
H32_11 H 0.4602 0.9784 0.6446
C42_11 C 0.27430(17) 0.89756(29) 0.7826(3)
C43_11 C 0.34296(16) 0.91551(25) 0.7665(3)
C44_11 C 0.44264(19) 0.91539(27) 0.8301(3)
H33_11 H 0.4561 0.9050 0.8267
C45_11 C 0.32982(18) 0.93394(32) 0.7413(3)
H34_11 H 0.3435 0.9517 0.7193
C46_11 C 0.47239(14) 0.94061(22) 0.9116(3)
C47_11 C 0.4207(2) 0.91183(28) 0.7919(3)
H35_11 H 0.4201 0.9001 0.7629
C48_11 C 0.37116(18) 0.91206(27) 0.6689(3)
H36_11 H 0.3486 0.8948 0.6750
N5_5 N 0.54817(11) 0.91396(16) 0.9313(2)
O10_12 O 0.07733(16) 0.56510(11) 0.90584(17)
C28_12 C 0.05747(25) 0.47505(18) 0.6107(3)
C29_12 C 0.07409(27) 0.4735(2) 0.7969(3)
C30_12 C 0.06620(23) 0.51212(16) 0.8737(3)
C31_12 C 0.05704(25) 0.45810(19) 0.8401(3)
H25_12 H 0.0484 0.4345 0.8443
C32_12 C 0.11209(27) 0.34839(23) 0.7900(2)
C33_12 C 0.05172(26) 0.48342(16) 0.5571(3)
N4_12 N 0.07573(23) 0.45343(17) 0.7579(2)
C34_12 C 0.11978(30) 0.40829(25) 0.8060(3)
H26_12 H 0.1380 0.4128 0.8272
C35_12 C 0.07556(29) 0.37037(25) 0.7507(3)
H27_12 H 0.0633 0.3489 0.7351
C36_12 C 0.04405(25) 0.46883(18) 0.6974(3)
H28_12 H 0.0305 0.4697 0.7231
C37_12 C 0.11086(32) 0.43320(27) 0.7989(3)
H29_12 H 0.1225 0.4540 0.8160
C38_12 C 0.08224(26) 0.4654(2) 0.6210(3)
H30_12 H 0.0948 0.4632 0.5950
C39_12 C 0.05206(25) 0.47640(18) 0.8782(3)
H31_12 H 0.0394 0.4649 0.9065
C40_12 C 0.06896(24) 0.46031(18) 0.7086(3)
C41_12 C 0.03860(24) 0.47604(18) 0.6502(3)
H32_12 H 0.0216 0.4818 0.6446
C42_12 C 0.10244(29) 0.37674(24) 0.7826(3)
C43_12 C 0.08449(25) 0.42745(19) 0.7665(3)
C44_12 C 0.08461(27) 0.52725(19) 0.8301(3)
H33_12 H 0.0950 0.5511 0.8267
C45_12 C 0.06606(32) 0.39588(27) 0.7413(3)
H34_12 H 0.0483 0.3918 0.7193
C46_12 C 0.05939(22) 0.53178(17) 0.9116(3)
C47_12 C 0.08817(28) 0.50887(19) 0.7919(3)
H35_12 H 0.0999 0.5200 0.7629
C48_12 C 0.08794(27) 0.4591(2) 0.6689(3)
H36_12 H 0.1052 0.4538 0.6750
N5_6 N 0.08604(16) 0.63421(11) 0.9313(2)
O4_12 O 0.92267(16) 0.48777(12) 0.59416(17)
C1_12 C 0.94253(25) 0.41758(17) 0.8893(3)
C2_12 C 0.92591(27) 0.39941(18) 0.7031(3)
C3_12 C 0.93380(23) 0.44592(17) 0.6263(3)
C4_12 C 0.94296(25) 0.40106(17) 0.6599(3)
H1_12 H 0.9516 0.3861 0.6557
C5_12 C 0.88791(27) 0.23630(15) 0.7100(2)
C6_12 C 0.94828(26) 0.4317(2) 0.9429(3)
N1_12 N 0.92427(23) 0.37770(15) 0.7421(2)
C7_12 C 0.88022(30) 0.28851(17) 0.6940(3)
H2_12 H 0.8620 0.2748 0.6728
C8_12 C 0.92444(29) 0.29481(15) 0.7493(3)
H3_12 H 0.9367 0.2856 0.7649
C9_12 C 0.95595(25) 0.42478(17) 0.8026(3)
H4_12 H 0.9695 0.4392 0.7769
C10_12 C 0.88914(32) 0.32234(18) 0.7011(3)
H5_12 H 0.8775 0.3315 0.6840
C11_12 C 0.91776(26) 0.38316(16) 0.8790(3)
H6_12 H 0.9052 0.3684 0.9050
C12_12 C 0.94794(25) 0.42434(17) 0.6218(3)
H7_12 H 0.9606 0.4255 0.5935
C13_12 C 0.93104(24) 0.39135(16) 0.7914(3)
C14_12 C 0.96140(24) 0.43744(16) 0.8498(3)
H8_12 H 0.9784 0.4602 0.8554
C15_12 C 0.89756(29) 0.27430(17) 0.7174(3)
C16_12 C 0.91551(25) 0.34296(16) 0.7335(3)
C17_12 C 0.91539(27) 0.44264(19) 0.6699(3)
H9_12 H 0.9050 0.4561 0.6733
C18_12 C 0.93394(32) 0.32982(18) 0.7587(3)
H10_12 H 0.9517 0.3435 0.7807
C19_12 C 0.94061(22) 0.47239(14) 0.5884(3)
C20_12 C 0.91183(28) 0.4207(2) 0.7081(3)
H11_12 H 0.9001 0.4201 0.7371
C21_12 C 0.91206(27) 0.37116(18) 0.8311(3)
H12_12 H 0.8948 0.3486 0.8250
N2_9 N 0.91396(16) 0.54817(11) 0.5687(2)
C22_12 C 0.92537(35) 0.5639(3) 0.6176(3)
H13_12 H 0.9202 0.5460 0.6422
H14_12 H 0.9502 0.5793 0.6171
C23_12 C 0.91733(26) 0.5742(2) 0.5342(4)
H15_12 H 0.9417 0.5916 0.5313
H16_12 H 0.9096 0.5638 0.5016
C24_12 C 0.87582(26) 0.5236(2) 0.5722(4)
H17_12 H 0.8667 0.5147 0.5392
H18_12 H 0.8715 0.5042 0.5933
N3_12 N 0.88150(19) 0.58063(16) 0.5980(2)
C25_12 C 0.89723(39) 0.59204(35) 0.5491(3)
H19_12 H 0.8793 0.5869 0.5245
H20_12 H 0.9126 0.6169 0.5496
C26_12 C 0.90753(31) 0.58400(26) 0.6325(4)
H21_12 H 0.9249 0.6084 0.6354
H22_12 H 0.8971 0.5763 0.6651
C27_12 C 0.85693(31) 0.54249(26) 0.5945(4)
H23_12 H 0.8480 0.5334 0.6275
H24_12 H 0.8375 0.5382 0.5734
C22_13 C 0.36147(18) 0.4361(3) 0.8824(3)
H13_13 H 0.3742 0.4540 0.8578
H14_13 H 0.3709 0.4207 0.8829
C23_13 C 0.34313(17) 0.4258(2) 0.9658(4)
H15_13 H 0.3501 0.4084 0.9687
H16_13 H 0.3458 0.4362 0.9984
C24_13 C 0.35222(17) 0.4764(2) 0.9278(4)
H17_13 H 0.3520 0.4853 0.9608
H18_13 H 0.3673 0.4958 0.9067
N3_13 N 0.30088(11) 0.41937(16) 0.9020(2)
C25_13 C 0.30520(18) 0.40796(35) 0.9509(3)
H19_13 H 0.2925 0.4131 0.9755
H20_13 H 0.2958 0.3831 0.9504
C26_13 C 0.32354(17) 0.41600(26) 0.8675(4)
H21_13 H 0.3166 0.3916 0.8646
H22_13 H 0.3209 0.4237 0.8349
C27_13 C 0.31445(17) 0.45751(26) 0.9055(4)
H23_13 H 0.3147 0.4666 0.8725
H24_13 H 0.2994 0.4618 0.9266
C22_14 C 0.07463(35) 0.63853(18) 0.8824(3)
H13_14 H 0.0798 0.6258 0.8578
H14_14 H 0.0498 0.6291 0.8829
C23_14 C 0.08267(26) 0.65687(17) 0.9658(4)
H15_14 H 0.0583 0.6499 0.9687
H16_14 H 0.0904 0.6542 0.9984
C24_14 C 0.12418(26) 0.64778(17) 0.9278(4)
H17_14 H 0.1333 0.6480 0.9608
H18_14 H 0.1285 0.6327 0.9067
N3_14 N 0.11850(19) 0.69912(11) 0.9020(2)
C25_14 C 0.10277(39) 0.69480(18) 0.9509(3)
H19_14 H 0.1207 0.7075 0.9755
H20_14 H 0.0874 0.7042 0.9504
C26_14 C 0.09247(31) 0.67646(17) 0.8675(4)
H21_14 H 0.0751 0.6834 0.8646
H22_14 H 0.1029 0.6791 0.8349
C27_14 C 0.14307(31) 0.68555(17) 0.9055(4)
H23_14 H 0.1520 0.6853 0.8725
H24_14 H 0.1625 0.7006 0.9266
C22_15 C 0.5639(3) 0.92537(35) 0.8824(3)
H13_15 H 0.5460 0.9202 0.8578
H14_15 H 0.5793 0.9502 0.8829
C23_15 C 0.5742(2) 0.91733(26) 0.9658(4)
H15_15 H 0.5916 0.9417 0.9687
H16_15 H 0.5638 0.9096 0.9984
C24_15 C 0.5236(2) 0.87582(26) 0.9278(4)
H17_15 H 0.5147 0.8667 0.9608
H18_15 H 0.5042 0.8715 0.9067
N3_15 N 0.58063(16) 0.88150(19) 0.9020(2)
C25_15 C 0.59204(35) 0.89723(39) 0.9509(3)
H19_15 H 0.5869 0.8793 0.9755
H20_15 H 0.6169 0.9126 0.9504
C26_15 C 0.58400(26) 0.90753(31) 0.8675(4)
H21_15 H 0.6084 0.9249 0.8646
H22_15 H 0.5763 0.8971 0.8349
C27_15 C 0.54249(26) 0.85693(31) 0.9055(4)
H23_15 H 0.5334 0.8480 0.8725
H24_15 H 0.5382 0.8375 0.9266
C5_13 C 0.09703(15) 0.31828(23) 0.3767(2)
C7_13 C 0.04482(17) 0.25838(25) 0.3607(3)
H2_13 H 0.0585 0.2539 0.3395
C8_13 C 0.03852(15) 0.29630(25) 0.4160(3)
H3_13 H 0.0477 0.3178 0.4316
C10_13 C 0.01099(18) 0.23347(27) 0.3678(3)
H5_13 H 0.0018 0.2127 0.3507
C15_13 C 0.05903(17) 0.28993(24) 0.3841(3)
C18_13 C 0.00351(18) 0.27079(27) 0.4254(3)
O4_13 O 0.84556(12) 0.10157(11) 0.26083(17)
C1_13 C 0.91575(17) 0.19162(18) 0.5560(3)
C2_13 C 0.93392(18) 0.1932(2) 0.3698(3)
C3_13 C 0.88741(17) 0.15455(16) 0.2930(3)
C4_13 C 0.93227(17) 0.20857(19) 0.3266(3)
H1_13 H 0.9472 0.2322 0.3224
C6_13 C 0.9016(2) 0.18325(16) 0.6096(3)
N1_13 N 0.95563(15) 0.21324(17) 0.4088(2)
C9_13 C 0.90855(17) 0.19784(18) 0.4693(3)
H4_13 H 0.8941 0.1970 0.4436
C11_13 C 0.95017(16) 0.2013(2) 0.5457(3)
H6_13 H 0.9649 0.2035 0.5717
C12_13 C 0.90899(17) 0.19027(18) 0.2885(3)
H7_13 H 0.9078 0.2018 0.2602
C13_13 C 0.94198(16) 0.20636(18) 0.4581(3)
C14_13 C 0.89589(16) 0.19063(18) 0.5165(3)
H8_13 H 0.8731 0.1849 0.5221
C16_13 C 0.99037(16) 0.23922(19) 0.4002(3)
C17_13 C 0.89069(19) 0.13942(19) 0.3366(3)
H9_13 H 0.8772 0.1156 0.3400
H10_13 H 0.9898 0.2749 0.4474
C19_13 C 0.86094(14) 0.13489(17) 0.2551(3)
C20_13 C 0.9126(2) 0.15780(19) 0.3748(3)
H11_13 H 0.9132 0.1467 0.4038
C21_13 C 0.96217(18) 0.2076(2) 0.4978(3)
H12_13 H 0.9847 0.2129 0.4917
N2_10 N 0.78516(11) 0.03246(11) 0.2354(2)
C22_16 C 0.7694(3) 0.02814(18) 0.2843(3)
H13_16 H 0.7873 0.0409 0.3089
H14_16 H 0.7540 0.0376 0.2838
C23_16 C 0.7591(2) 0.00980(17) 0.2009(4)
H15_16 H 0.7417 0.0168 0.1980
H16_16 H 0.7695 0.0125 0.1683
C24_16 C 0.8097(2) 0.01889(17) 0.2389(4)
H17_16 H 0.8186 0.0187 0.2059
H18_16 H 0.8291 0.0340 0.2600
O10_13 O 0.76823(11) 0.17890(12) 0.57251(17)
C28_13 C 0.85828(18) 0.24909(17) 0.2774(3)
C29_13 C 0.8598(2) 0.26726(18) 0.4636(3)
C30_13 C 0.82121(16) 0.22075(17) 0.5404(3)
C31_13 C 0.87523(19) 0.26561(17) 0.5068(3)
H25_13 H 0.8988 0.2806 0.5110
C32_13 C 0.98494(23) 0.43037(15) 0.4567(2)
C33_13 C 0.84991(16) 0.2350(2) 0.2238(3)
N4_13 N 0.87990(17) 0.28897(15) 0.4246(2)
C34_13 C 0.92504(25) 0.37816(17) 0.4727(3)
H26_13 H 0.9205 0.3919 0.4939
C35_13 C 0.96296(25) 0.37186(15) 0.4174(3)
H27_13 H 0.9844 0.3811 0.4018
C36_13 C 0.86450(18) 0.24189(17) 0.3641(3)
H28_13 H 0.8636 0.2275 0.3898
C37_13 C 0.90013(27) 0.34433(18) 0.4656(3)
H29_13 H 0.8793 0.3352 0.4827
C38_13 C 0.8679(2) 0.28351(16) 0.2877(3)
H30_13 H 0.8701 0.2983 0.2617
C39_13 C 0.85693(18) 0.24233(17) 0.5449(3)
H31_13 H 0.8684 0.2412 0.5732
C40_13 C 0.87302(18) 0.27532(16) 0.3753(3)
C41_13 C 0.85729(18) 0.22923(16) 0.3169(3)
H32_13 H 0.8515 0.2065 0.3113
C42_13 C 0.95659(24) 0.39237(17) 0.4493(3)
C43_13 C 0.90588(19) 0.32371(16) 0.4332(3)
C44_13 C 0.80608(19) 0.22403(19) 0.4968(3)
H33_13 H 0.7822 0.2106 0.4934
C45_13 C 0.93745(27) 0.33685(18) 0.4080(3)
H34_13 H 0.9415 0.3232 0.3860
C46_13 C 0.80155(17) 0.19428(14) 0.5783(3)
C47_13 C 0.82446(19) 0.2460(2) 0.4586(3)
H35_13 H 0.8133 0.2466 0.4296
C48_13 C 0.8742(2) 0.29551(18) 0.3356(3)
H36_13 H 0.8795 0.3181 0.3417
N3_16 N 0.75271(16) 0.96754(11) 0.2646(2)
C25_16 C 0.74130(35) 0.97186(18) 0.2157(3)
H19_16 H 0.7465 0.9591 0.1911
H20_16 H 0.7165 0.9624 0.2162
C26_16 C 0.74934(26) 0.99020(17) 0.2991(4)
H21_16 H 0.7250 0.9832 0.3020
H22_16 H 0.7571 0.9875 0.3317
C27_16 C 0.79085(26) 0.98111(17) 0.2611(4)
H23_16 H 0.8000 0.9813 0.2941
H24_16 H 0.7952 0.9660 0.2400
N3_17 N 0.03246(11) 0.78516(19) 0.2646(2)
C25_17 C 0.02814(18) 0.76943(39) 0.2157(3)
H19_17 H 0.0409 0.7873 0.1911
H20_17 H 0.0376 0.7540 0.2162
C26_17 C 0.00980(17) 0.75913(31) 0.2991(4)
H21_17 H 0.0168 0.7417 0.3020
H22_17 H 0.0125 0.7695 0.3317
C27_17 C 0.01889(17) 0.80973(31) 0.2611(4)
H23_17 H 0.0187 0.8186 0.2941
H24_17 H 0.0340 0.8291 0.2400
O4_14 O 0.89843(11) 0.74400(16) 0.26083(17)
C1_14 C 0.80838(18) 0.72414(25) 0.5560(3)
C2_14 C 0.8068(2) 0.74076(27) 0.3698(3)
C3_14 C 0.84545(16) 0.73287(23) 0.2930(3)
C4_14 C 0.79143(19) 0.72371(25) 0.3266(3)
H1_14 H 0.7678 0.7151 0.3224
C5_14 C 0.68172(23) 0.77876(27) 0.3767(2)
C6_14 C 0.81675(16) 0.71839(26) 0.6096(3)
N1_14 N 0.78676(17) 0.74240(23) 0.4088(2)
C7_14 C 0.74162(25) 0.78645(30) 0.3607(3)
H2_14 H 0.7461 0.8047 0.3395
C8_14 C 0.70370(25) 0.74223(29) 0.4160(3)
H3_14 H 0.6822 0.7300 0.4316
C9_14 C 0.80216(18) 0.71072(25) 0.4693(3)
H4_14 H 0.8030 0.6972 0.4436
C10_14 C 0.76653(27) 0.77753(32) 0.3678(3)
H5_14 H 0.7873 0.7892 0.3507
C11_14 C 0.7987(2) 0.74891(26) 0.5457(3)
H6_14 H 0.7965 0.7615 0.5717
C12_14 C 0.80973(18) 0.71873(25) 0.2885(3)
H7_14 H 0.7982 0.7061 0.2602
C13_14 C 0.79364(18) 0.73563(24) 0.4581(3)
C14_14 C 0.80937(18) 0.70527(24) 0.5165(3)
H8_14 H 0.8151 0.6883 0.5221
C15_14 C 0.71007(24) 0.76911(29) 0.3841(3)
C16_14 C 0.76078(19) 0.75116(25) 0.4002(3)
C17_14 C 0.86058(19) 0.75128(27) 0.3366(3)
H9_14 H 0.8844 0.7617 0.3400
C18_14 C 0.72921(27) 0.73273(32) 0.4254(3)
H10_14 H 0.7251 0.7150 0.4474
C19_14 C 0.86511(17) 0.72606(22) 0.2551(3)
C20_14 C 0.84220(19) 0.75484(28) 0.3748(3)
H11_14 H 0.8533 0.7666 0.4038
C21_14 C 0.7924(2) 0.75461(27) 0.4978(3)
H12_14 H 0.7871 0.7719 0.4917
N2_11 N 0.96754(11) 0.75271(16) 0.2354(2)
C22_17 C 0.97186(18) 0.74130(35) 0.2843(3)
H13_17 H 0.9591 0.7465 0.3089
H14_17 H 0.9624 0.7165 0.2838
C23_17 C 0.99020(17) 0.74934(26) 0.2009(4)
H15_17 H 0.9832 0.7250 0.1980
H16_17 H 0.9875 0.7571 0.1683
C24_17 C 0.98111(17) 0.79085(26) 0.2389(4)
H17_17 H 0.9813 0.8000 0.2059
H18_17 H 0.9660 0.7952 0.2600
O10_14 O 0.82110(12) 0.58934(16) 0.57251(17)
C28_14 C 0.75091(17) 0.60920(25) 0.2774(3)
C29_14 C 0.73274(18) 0.59258(27) 0.4636(3)
C30_14 C 0.77925(17) 0.60047(23) 0.5404(3)
C31_14 C 0.73439(17) 0.60963(25) 0.5068(3)
H25_14 H 0.7194 0.6183 0.5110
C32_14 C 0.56963(15) 0.55458(27) 0.4567(2)
C33_14 C 0.7650(2) 0.61495(26) 0.2238(3)
N4_14 N 0.71103(15) 0.59094(23) 0.4246(2)
C34_14 C 0.62184(17) 0.54689(30) 0.4727(3)
H26_14 H 0.6081 0.5287 0.4939
C35_14 C 0.62814(15) 0.59111(29) 0.4174(3)
H27_14 H 0.6189 0.6034 0.4018
C36_14 C 0.75811(17) 0.62262(25) 0.3641(3)
H28_14 H 0.7725 0.6362 0.3898
C37_14 C 0.65567(18) 0.55581(32) 0.4656(3)
H29_14 H 0.6648 0.5442 0.4827
C38_14 C 0.71649(16) 0.58443(26) 0.2877(3)
H30_14 H 0.7017 0.5719 0.2617
C39_14 C 0.75767(17) 0.61461(25) 0.5449(3)
H31_14 H 0.7588 0.6273 0.5732
C40_14 C 0.72468(16) 0.59771(24) 0.3753(3)
C41_14 C 0.77077(16) 0.62807(24) 0.3169(3)
H32_14 H 0.7935 0.6451 0.3113
C42_14 C 0.60763(17) 0.56423(29) 0.4493(3)
C43_14 C 0.67629(16) 0.58218(25) 0.4332(3)
C44_14 C 0.77597(19) 0.58206(27) 0.4968(3)
H33_14 H 0.7894 0.5717 0.4934
C45_14 C 0.66315(18) 0.60061(32) 0.4080(3)
H34_14 H 0.6768 0.6184 0.3860
C46_14 C 0.80572(14) 0.60728(22) 0.5783(3)
C47_14 C 0.7540(2) 0.57850(28) 0.4586(3)
H35_14 H 0.7534 0.5668 0.4296
C48_14 C 0.70449(18) 0.57873(27) 0.3356(3)
H36_14 H 0.6819 0.5615 0.3417
O4_15 O 0.25600(16) 0.15444(12) 0.26083(17)
C1_15 C 0.27586(25) 0.08425(17) 0.5560(3)
C2_15 C 0.25924(27) 0.06608(18) 0.3698(3)
C3_15 C 0.26713(23) 0.11259(17) 0.2930(3)
C4_15 C 0.27629(25) 0.06773(17) 0.3266(3)
H1_15 H 0.2849 0.0528 0.3224
C6_15 C 0.28161(26) 0.0984(2) 0.6096(3)
N1_15 N 0.25760(23) 0.04437(15) 0.4088(2)
C9_15 C 0.28928(25) 0.09145(17) 0.4693(3)
H4_15 H 0.3028 0.1059 0.4436
C11_15 C 0.25109(26) 0.04983(16) 0.5457(3)
H6_15 H 0.2385 0.0351 0.5717
C12_15 C 0.28127(25) 0.09101(17) 0.2885(3)
H7_15 H 0.2939 0.0922 0.2602
C13_15 C 0.26437(24) 0.05802(16) 0.4581(3)
C14_15 C 0.29473(24) 0.10411(16) 0.5165(3)
H8_15 H 0.3117 0.1269 0.5221
C16_15 C 0.24884(25) 0.00963(16) 0.4002(3)
C17_15 C 0.24872(27) 0.10931(19) 0.3366(3)
H9_15 H 0.2383 0.1228 0.3400
H10_15 H 0.2850 0.0102 0.4474
C19_15 C 0.27394(22) 0.13906(14) 0.2551(3)
C20_15 C 0.24516(28) 0.0874(2) 0.3748(3)
H11_15 H 0.2334 0.0868 0.4038
C21_15 C 0.24539(27) 0.03783(18) 0.4978(3)
H12_15 H 0.2281 0.0153 0.4917
N2_12 N 0.24729(16) 0.21484(11) 0.2354(2)
C22_18 C 0.25870(35) 0.2306(3) 0.2843(3)
H13_18 H 0.2535 0.2127 0.3089
H14_18 H 0.2835 0.2460 0.2838
C23_18 C 0.25066(26) 0.2409(2) 0.2009(4)
H15_18 H 0.2750 0.2583 0.1980
H16_18 H 0.2429 0.2305 0.1683
C24_18 C 0.20915(26) 0.1903(2) 0.2389(4)
H17_18 H 0.2000 0.1814 0.2059
H18_18 H 0.2048 0.1709 0.2600
N3_18 N 0.21484(19) 0.24729(16) 0.2646(2)
C25_18 C 0.23057(39) 0.25870(35) 0.2157(3)
H19_18 H 0.2127 0.2535 0.1911
H20_18 H 0.2460 0.2835 0.2162
C26_18 C 0.24087(31) 0.25066(26) 0.2991(4)
H21_18 H 0.2583 0.2750 0.3020
H22_18 H 0.2305 0.2429 0.3317
C27_18 C 0.19027(31) 0.20915(26) 0.2611(4)
H23_18 H 0.1814 0.2000 0.2941
H24_18 H 0.1709 0.2048 0.2400
O10_15 O 0.41066(16) 0.23177(11) 0.57251(17)
C28_15 C 0.39080(25) 0.14172(18) 0.2774(3)
C29_15 C 0.40742(27) 0.1402(2) 0.4636(3)
C30_15 C 0.39953(23) 0.17879(16) 0.5404(3)
C31_15 C 0.39037(25) 0.12477(19) 0.5068(3)
H25_15 H 0.3817 0.1012 0.5110
C32_15 C 0.44542(27) 0.01506(23) 0.4567(2)
C33_15 C 0.38505(26) 0.15009(16) 0.2238(3)
N4_15 N 0.40906(23) 0.12010(17) 0.4246(2)
C34_15 C 0.45311(30) 0.07496(25) 0.4727(3)
H26_15 H 0.4713 0.0795 0.4939
C35_15 C 0.40889(29) 0.03704(25) 0.4174(3)
H27_15 H 0.3966 0.0156 0.4018
C36_15 C 0.37738(25) 0.13550(18) 0.3641(3)
H28_15 H 0.3638 0.1364 0.3898
C37_15 C 0.44419(32) 0.09987(27) 0.4656(3)
H29_15 H 0.4558 0.1207 0.4827
C38_15 C 0.41557(26) 0.1321(2) 0.2877(3)
H30_15 H 0.4281 0.1299 0.2617
C39_15 C 0.38539(25) 0.14307(18) 0.5449(3)
H31_15 H 0.3727 0.1316 0.5732
C40_15 C 0.40229(24) 0.12698(18) 0.3753(3)
C41_15 C 0.37193(24) 0.14271(18) 0.3169(3)
H32_15 H 0.3549 0.1485 0.3113
C42_15 C 0.43577(29) 0.04341(24) 0.4493(3)
C43_15 C 0.41782(25) 0.09412(19) 0.4332(3)
C44_15 C 0.41794(27) 0.19392(19) 0.4968(3)
H33_15 H 0.4283 0.2178 0.4934
C45_15 C 0.39939(32) 0.06255(27) 0.4080(3)
H34_15 H 0.3816 0.0585 0.3860
C46_15 C 0.39272(22) 0.19845(17) 0.5783(3)
C47_15 C 0.42150(28) 0.17554(19) 0.4586(3)
H35_15 H 0.4332 0.1867 0.4296
C48_15 C 0.42127(27) 0.1258(2) 0.3356(3)
H36_15 H 0.4385 0.1205 0.3417
C5_15 C 0.22124(27) 0.90297(15) 0.3767(2)
C7_15 C 0.21355(30) 0.95518(17) 0.3607(3)
H2_15 H 0.1953 0.9415 0.3395
C8_15 C 0.25777(29) 0.96148(15) 0.4160(3)
H3_15 H 0.2700 0.9523 0.4316
C10_15 C 0.22247(32) 0.98901(18) 0.3678(3)
H5_15 H 0.2108 0.9982 0.3507
C15_15 C 0.23089(29) 0.94097(17) 0.3841(3)
C18_15 C 0.26727(32) 0.99649(18) 0.4254(3)
C32_16 C 0.31828(23) 0.09703(15) 0.1233(2)
C34_16 C 0.25838(25) 0.04482(17) 0.1393(3)
H26_16 H 0.2539 0.0585 0.1605
C35_16 C 0.29630(25) 0.03852(15) 0.0840(3)
H27_16 H 0.3178 0.0477 0.0684
C37_16 C 0.23347(27) 0.01099(18) 0.1322(3)
H29_16 H 0.2127 0.0018 0.1493
C42_16 C 0.28993(24) 0.05903(17) 0.1159(3)
C45_16 C 0.27079(27) 0.00351(18) 0.0746(3)
C1_16 C 0.24909(17) 0.85828(18) 0.2226(3)
C2_16 C 0.26726(18) 0.8598(2) 0.0364(3)
C5_16 C 0.43037(15) 0.98494(23) 0.0433(2)
C6_16 C 0.2350(2) 0.84991(16) 0.2762(3)
N1_16 N 0.28897(15) 0.87990(17) 0.0754(2)
C7_16 C 0.37816(17) 0.92504(25) 0.0273(3)
H2_16 H 0.3919 0.9205 0.0061
C8_16 C 0.37186(15) 0.96296(25) 0.0826(3)
H3_16 H 0.3811 0.9844 0.0982
C9_16 C 0.24189(17) 0.86450(18) 0.1359(3)
H4_16 H 0.2275 0.8636 0.1102
C10_16 C 0.34433(18) 0.90013(27) 0.0344(3)
H5_16 H 0.3352 0.8793 0.0173
C11_16 C 0.28351(16) 0.8679(2) 0.2123(3)
H6_16 H 0.2983 0.8701 0.2383
C13_16 C 0.27532(16) 0.87302(18) 0.1247(3)
C14_16 C 0.22923(16) 0.85729(18) 0.1831(3)
H8_16 H 0.2065 0.8515 0.1887
C15_16 C 0.39237(17) 0.95659(24) 0.0507(3)
C16_16 C 0.32371(16) 0.90588(19) 0.0668(3)
C17_16 C 0.22403(19) 0.80608(19) 0.0032(3)
H9_16 H 0.2106 0.7822 0.0066
C18_16 C 0.33685(18) 0.93745(27) 0.0920(3)
H10_16 H 0.3232 0.9415 0.1140
C20_16 C 0.2460(2) 0.82446(19) 0.0414(3)
H11_16 H 0.2466 0.8133 0.0704
C21_16 C 0.29551(18) 0.8742(2) 0.1644(3)
H12_16 H 0.3181 0.8795 0.1583
O10_16 O 0.10157(11) 0.84556(12) 0.23917(17)
C29_16 C 0.1932(2) 0.93392(18) 0.1302(3)
C30_16 C 0.15455(16) 0.88741(17) 0.2070(3)
C31_16 C 0.20857(19) 0.93227(17) 0.1734(3)
H25_16 H 0.2322 0.9472 0.1776
N4_16 N 0.21324(17) 0.95563(15) 0.0912(2)
C36_16 C 0.19784(18) 0.90855(17) 0.0307(3)
H28_16 H 0.1970 0.8941 0.0564
C39_16 C 0.19027(18) 0.90899(17) 0.2115(3)
H31_16 H 0.2018 0.9078 0.2398
C40_16 C 0.20636(18) 0.94198(16) 0.0419(3)
C43_16 C 0.23922(19) 0.99037(16) 0.0998(3)
C44_16 C 0.13942(19) 0.89069(19) 0.1634(3)
H33_16 H 0.1156 0.8772 0.1600
H34_16 H 0.2749 0.9898 0.0526
C46_16 C 0.13489(17) 0.86094(14) 0.2449(3)
C47_16 C 0.15780(19) 0.9126(2) 0.1252(3)
H35_16 H 0.1467 0.9132 0.0962
C48_16 C 0.2076(2) 0.96217(18) 0.0022(3)
H36_16 H 0.2129 0.9847 0.0083
O4_16 O 0.17890(12) 0.76823(11) 0.92749(17)
C3_16 C 0.22075(17) 0.82121(16) 0.9596(3)
C4_16 C 0.26561(17) 0.87523(19) 0.9932(3)
H1_16 H 0.2806 0.8988 0.9890
C12_16 C 0.24233(17) 0.85693(18) 0.9551(3)
H7_16 H 0.2412 0.8684 0.9268
C19_16 C 0.19428(14) 0.80155(17) 0.9217(3)
C28_16 C 0.19162(18) 0.91575(17) 0.9440(3)
C33_16 C 0.18325(16) 0.9016(2) 0.8904(3)
C38_16 C 0.2013(2) 0.95017(16) 0.9543(3)
H30_16 H 0.2035 0.9649 0.9283
C41_16 C 0.19063(18) 0.89589(16) 0.9835(3)
H32_16 H 0.1849 0.8731 0.9779
C1_17 C 0.14172(18) 0.39080(25) 0.2226(3)
C2_17 C 0.1402(2) 0.40742(27) 0.0364(3)
C5_17 C 0.01506(23) 0.44542(27) 0.0433(2)
C6_17 C 0.15009(16) 0.38505(26) 0.2762(3)
N1_17 N 0.12010(17) 0.40906(23) 0.0754(2)
C7_17 C 0.07496(25) 0.45311(30) 0.0273(3)
H2_17 H 0.0795 0.4713 0.0061
C8_17 C 0.03704(25) 0.40889(29) 0.0826(3)
H3_17 H 0.0156 0.3966 0.0982
C9_17 C 0.13550(18) 0.37738(25) 0.1359(3)
H4_17 H 0.1364 0.3638 0.1102
C10_17 C 0.09987(27) 0.44419(32) 0.0344(3)
H5_17 H 0.1207 0.4558 0.0173
C11_17 C 0.1321(2) 0.41557(26) 0.2123(3)
H6_17 H 0.1299 0.4281 0.2383
C13_17 C 0.12698(18) 0.40229(24) 0.1247(3)
C14_17 C 0.14271(18) 0.37193(24) 0.1831(3)
H8_17 H 0.1485 0.3549 0.1887
C15_17 C 0.04341(24) 0.43577(29) 0.0507(3)
C16_17 C 0.09412(19) 0.41782(25) 0.0668(3)
C17_17 C 0.19392(19) 0.41794(27) 0.0032(3)
H9_17 H 0.2178 0.4283 0.0066
C18_17 C 0.06255(27) 0.39939(32) 0.0920(3)
H10_17 H 0.0585 0.3816 0.1140
C20_17 C 0.17554(19) 0.42150(28) 0.0414(3)
H11_17 H 0.1867 0.4332 0.0704
C21_17 C 0.1258(2) 0.42127(27) 0.1644(3)
H12_17 H 0.1205 0.4385 0.1583
O10_17 O 0.15444(12) 0.25600(16) 0.23917(17)
C29_17 C 0.06608(18) 0.25924(27) 0.1302(3)
C30_17 C 0.11259(17) 0.26713(23) 0.2070(3)
C31_17 C 0.06773(17) 0.27629(25) 0.1734(3)
H25_17 H 0.0528 0.2849 0.1776
N4_17 N 0.04437(15) 0.25760(23) 0.0912(2)
C36_17 C 0.09145(17) 0.28928(25) 0.0307(3)
H28_17 H 0.1059 0.3028 0.0564
C39_17 C 0.09101(17) 0.28127(25) 0.2115(3)
H31_17 H 0.0922 0.2939 0.2398
C40_17 C 0.05802(16) 0.26437(24) 0.0419(3)
C43_17 C 0.00963(16) 0.24884(25) 0.0998(3)
C44_17 C 0.10931(19) 0.24872(27) 0.1634(3)
H33_17 H 0.1228 0.2383 0.1600
H34_17 H 0.0102 0.2850 0.0526
C46_17 C 0.13906(14) 0.27394(22) 0.2449(3)
C47_17 C 0.0874(2) 0.24516(28) 0.1252(3)
H35_17 H 0.0868 0.2334 0.0962
C48_17 C 0.03783(18) 0.24539(27) 0.0022(3)
H36_17 H 0.0153 0.2281 0.0083
O4_17 O 0.23177(11) 0.41066(16) 0.92749(17)
C3_17 C 0.17879(16) 0.39953(23) 0.9596(3)
C4_17 C 0.12477(19) 0.39037(25) 0.9932(3)
H1_17 H 0.1012 0.3817 0.9890
C12_17 C 0.14307(18) 0.38539(25) 0.9551(3)
H7_17 H 0.1316 0.3727 0.9268
C19_17 C 0.19845(17) 0.39272(22) 0.9217(3)
C28_17 C 0.08425(17) 0.27586(25) 0.9440(3)
C33_17 C 0.0984(2) 0.28161(26) 0.8904(3)
C38_17 C 0.04983(16) 0.25109(26) 0.9543(3)
H30_17 H 0.0351 0.2385 0.9283
C41_17 C 0.10411(16) 0.29473(24) 0.9835(3)
H32_17 H 0.1269 0.3117 0.9779
C32_17 C 0.90297(15) 0.22124(27) 0.1233(2)
C34_17 C 0.95518(17) 0.21355(30) 0.1393(3)
H26_17 H 0.9415 0.1953 0.1605
C35_17 C 0.96148(15) 0.25777(29) 0.0840(3)
H27_17 H 0.9523 0.2700 0.0684
C37_17 C 0.98901(18) 0.22247(32) 0.1322(3)
H29_17 H 0.9982 0.2108 0.1493
C42_17 C 0.94097(17) 0.23089(29) 0.1159(3)
C45_17 C 0.99649(18) 0.26727(32) 0.0746(3)
C1_18 C 0.60920(25) 0.75091(17) 0.2226(3)
C2_18 C 0.59258(27) 0.73274(18) 0.0364(3)
C5_18 C 0.55458(27) 0.56963(15) 0.0433(2)
C6_18 C 0.61495(26) 0.7650(2) 0.2762(3)
N1_18 N 0.59094(23) 0.71103(15) 0.0754(2)
C7_18 C 0.54689(30) 0.62184(17) 0.0273(3)
H2_18 H 0.5287 0.6081 0.0061
C8_18 C 0.59111(29) 0.62814(15) 0.0826(3)
H3_18 H 0.6034 0.6189 0.0982
C9_18 C 0.62262(25) 0.75811(17) 0.1359(3)
H4_18 H 0.6362 0.7725 0.1102
C10_18 C 0.55581(32) 0.65567(18) 0.0344(3)
H5_18 H 0.5442 0.6648 0.0173
C11_18 C 0.58443(26) 0.71649(16) 0.2123(3)
H6_18 H 0.5719 0.7017 0.2383
C13_18 C 0.59771(24) 0.72468(16) 0.1247(3)
C14_18 C 0.62807(24) 0.77077(16) 0.1831(3)
H8_18 H 0.6451 0.7935 0.1887
C15_18 C 0.56423(29) 0.60763(17) 0.0507(3)
C16_18 C 0.58218(25) 0.67629(16) 0.0668(3)
C17_18 C 0.58206(27) 0.77597(19) 0.0032(3)
H9_18 H 0.5717 0.7894 0.0066
C18_18 C 0.60061(32) 0.66315(18) 0.0920(3)
H10_18 H 0.6184 0.6768 0.1140
C20_18 C 0.57850(28) 0.7540(2) 0.0414(3)
H11_18 H 0.5668 0.7534 0.0704
C21_18 C 0.57873(27) 0.70449(18) 0.1644(3)
H12_18 H 0.5615 0.6819 0.1583
O10_18 O 0.74400(16) 0.89843(11) 0.23917(17)
C29_18 C 0.74076(27) 0.8068(2) 0.1302(3)
C30_18 C 0.73287(23) 0.84545(16) 0.2070(3)
C31_18 C 0.72371(25) 0.79143(19) 0.1734(3)
H25_18 H 0.7151 0.7678 0.1776
C32_18 C 0.77876(27) 0.68172(23) 0.1233(2)
N4_18 N 0.74240(23) 0.78676(17) 0.0912(2)
C34_18 C 0.78645(30) 0.74162(25) 0.1393(3)
H26_18 H 0.8047 0.7461 0.1605
C35_18 C 0.74223(29) 0.70370(25) 0.0840(3)
H27_18 H 0.7300 0.6822 0.0684
C36_18 C 0.71072(25) 0.80216(18) 0.0307(3)
H28_18 H 0.6972 0.8030 0.0564
C37_18 C 0.77753(32) 0.76653(27) 0.1322(3)
H29_18 H 0.7892 0.7873 0.1493
C39_18 C 0.71873(25) 0.80973(18) 0.2115(3)
H31_18 H 0.7061 0.7982 0.2398
C40_18 C 0.73563(24) 0.79364(18) 0.0419(3)
C42_18 C 0.76911(29) 0.71007(24) 0.1159(3)
C43_18 C 0.75116(25) 0.76078(19) 0.0998(3)
C44_18 C 0.75128(27) 0.86058(19) 0.1634(3)
H33_18 H 0.7617 0.8844 0.1600
C45_18 C 0.73273(32) 0.72921(27) 0.0746(3)
H34_18 H 0.7150 0.7251 0.0526
C46_18 C 0.72606(22) 0.86511(17) 0.2449(3)
C47_18 C 0.75484(28) 0.84220(19) 0.1252(3)
H35_18 H 0.7666 0.8533 0.0962
C48_18 C 0.75461(27) 0.7924(2) 0.0022(3)
H36_18 H 0.7719 0.7871 0.0083
O4_18 O 0.58934(16) 0.82110(12) 0.92749(17)
C3_18 C 0.60047(23) 0.77925(17) 0.9596(3)
C4_18 C 0.60963(25) 0.73439(17) 0.9932(3)
H1_18 H 0.6183 0.7194 0.9890
C12_18 C 0.61461(25) 0.75767(17) 0.9551(3)
H7_18 H 0.6273 0.7588 0.9268
C19_18 C 0.60728(22) 0.80572(14) 0.9217(3)
C28_18 C 0.72414(25) 0.80838(18) 0.9440(3)
C33_18 C 0.71839(26) 0.81675(16) 0.8904(3)
C38_18 C 0.74891(26) 0.7987(2) 0.9543(3)
H30_18 H 0.7615 0.7965 0.9283
C41_18 C 0.70527(24) 0.80937(18) 0.9835(3)
H32_18 H 0.6883 0.8151 0.9779
loop_
_geom_bond_atom_site_label_1
_geom_bond_atom_site_label_2
_geom_bond_site_symmetry_1
_geom_bond_site_symmetry_2
Zn1 O3 1_555 1_555
O1 C5 1_555 1_555
O2 C19 1_555 1_555
O3 C6 1_555 1_555
O4 C19 1_555 1_555
C1 C6 1_555 1_555
C2 C4 1_555 1_555
C3 C12 1_555 1_555
O5 C6 1_555 1_555
C4 H1 1_555 1_555
O6 C5 1_555 1_555
C5 C15 1_555 1_555
N1 C2 1_555 1_555
C7 H2 1_555 1_555
C8 H3 1_555 1_555
C9 H4 1_555 1_555
C10 C7 1_555 1_555
H5 C10 1_555 1_555
C11 C1 1_555 1_555
H6 C11 1_555 1_555
C12 C4 1_555 1_555
H7 C12 1_555 1_555
C13 N1 1_555 1_555
C14 C1 1_555 1_555
H8 C14 1_555 1_555
C15 C7 1_555 1_555
C16 N1 1_555 1_555
C17 C3 1_555 1_555
H9 C17 1_555 1_555
C18 C8 1_555 1_555
H10 C18 1_555 1_555
C19 C3 1_555 1_555
C20 C2 1_555 1_555
H11 C20 1_555 1_555
C21 C11 1_555 1_555
H12 C21 1_555 1_555
Zn2 O4 1_555 1_555
N2 Zn2 1_555 1_555
C22 N2 1_555 1_555
H13 C22 1_555 1_555
H14 C22 1_555 1_555
C23 N2 1_555 1_555
H15 C23 1_555 1_555
H16 C23 1_555 1_555
C24 N2 1_555 1_555
H17 C24 1_555 1_555
H18 C24 1_555 1_555
N3 C25 1_555 1_555
C25 C23 1_555 1_555
H19 C25 1_555 1_555
H20 C25 1_555 1_555
C26 C22 1_555 1_555
H21 C26 1_555 1_555
H22 C26 1_555 1_555
C27 C24 1_555 1_555
H23 C27 1_555 1_555
H24 C27 1_555 1_555
O7 C32 1_555 1_555
O8 Zn1 1_555 1_555
O9 C33 1_555 1_555
O10 C46 1_555 1_555
C28 C33 1_555 1_555
C29 C31 1_555 1_555
C30 C39 1_555 1_555
O11 C33 1_555 1_555
C31 H25 1_555 1_555
O12 C32 1_555 1_555
C32 C42 1_555 1_555
N4 C29 1_555 1_555
C34 H26 1_555 1_555
C35 H27 1_555 1_555
C36 H28 1_555 1_555
C37 C34 1_555 1_555
H29 C37 1_555 1_555
C38 C28 1_555 1_555
H30 C38 1_555 1_555
C39 C31 1_555 1_555
H31 C39 1_555 1_555
C40 N4 1_555 1_555
C41 C28 1_555 1_555
H32 C41 1_555 1_555
C42 C34 1_555 1_555
C43 N4 1_555 1_555
C44 C30 1_555 1_555
H33 C44 1_555 1_555
C45 C35 1_555 1_555
H34 C45 1_555 1_555
C46 O8 1_555 1_555
C47 C29 1_555 1_555
H35 C47 1_555 1_555
C48 C38 1_555 1_555
H36 C48 1_555 1_555
Zn3 O10 1_555 1_555
Zn4 O2 1_555 1_555
Zn5 O1 1_555 1_555
Zn6 O7 1_555 1_555
O14 Zn1 1_555 1_555
O18 Zn2 1_555 1_555
O19 Zn3 1_555 1_555
O20 Zn2 1_555 1_555
Zn7 N3 1_555 1_555
Zn8 O11 1_555 1_555
Zn10 O6 1_555 1_555
Zn11 O12 1_555 1_555
N5 Zn3 1_555 1_555
C8 C15 1_555 1_555
C9 C13 1_555 1_555
C9 C14 1_555 1_555
C10 C16 1_555 1_555
C13 C21 1_555 1_555
C16 C18 1_555 1_555
C17 C20 1_555 1_555
N3 C26 1_555 1_555
N3 C27 1_555 1_555
O9 Zn4 1_555 1_555
C30 C46 1_555 1_555
C35 C42 1_555 1_555
C36 C40 1_555 1_555
C36 C41 1_555 1_555
C37 C43 1_555 1_555
C40 C48 1_555 1_555
C43 C45 1_555 1_555
C44 C47 1_555 1_555
O13 Zn1_2 1_555 1_555
O15 Zn1_2 1_555 1_555
O16 Zn1_2 1_555 1_555
O7_2 C32_2 1_555 1_555
O8_2 Zn1_3 1_555 1_555
O9_2 C33_2 1_555 1_555
O10_2 C46_2 1_555 1_555
C28_2 C33_2 1_555 1_555
C29_2 C31_2 1_555 1_555
C30_2 C39_2 1_555 1_555
O11_2 C33_2 1_555 1_555
C31_2 H25_2 1_555 1_555
O12_2 C32_2 1_555 1_555
C32_2 C42_2 1_555 1_555
N4_2 C29_2 1_555 1_555
C34_2 H26_2 1_555 1_555
C35_2 H27_2 1_555 1_555
C36_2 H28_2 1_555 1_555
C37_2 C34_2 1_555 1_555
H29_2 C37_2 1_555 1_555
C38_2 C28_2 1_555 1_555
H30_2 C38_2 1_555 1_555
C39_2 C31_2 1_555 1_555
H31_2 C39_2 1_555 1_555
C40_2 N4_2 1_555 1_555
C41_2 C28_2 1_555 1_555
H32_2 C41_2 1_555 1_555
C42_2 C34_2 1_555 1_555
C43_2 N4_2 1_555 1_555
C44_2 C30_2 1_555 1_555
H33_2 C44_2 1_555 1_555
C45_2 C35_2 1_555 1_555
H34_2 C45_2 1_555 1_555
C46_2 O8_2 1_555 1_555
C47_2 C29_2 1_555 1_555
H35_2 C47_2 1_555 1_555
C48_2 C38_2 1_555 1_555
H36_2 C48_2 1_555 1_555
Zn3_2 O10_2 1_555 1_555
Zn6_2 O7_2 1_555 1_555
O19_2 Zn3_2 1_555 1_555
Zn8_2 O11_2 1_555 1_555
Zn11_2 O12_2 1_555 1_555
N5_2 Zn3_2 1_555 1_555
O9_2 Zn4_2 1_555 1_555
C30_2 C46_2 1_555 1_555
C35_2 C42_2 1_555 1_555
C36_2 C40_2 1_555 1_555
C36_2 C41_2 1_555 1_555
C37_2 C43_2 1_555 1_555
C40_2 C48_2 1_555 1_555
C43_2 C45_2 1_555 1_555
C44_2 C47_2 1_555 1_555
O13_2 Zn1_4 1_555 1_555
O16_2 Zn1_4 1_555 1_555
Zn1_5 O3_2 1_555 1_555
O1_2 C5_2 1_555 1_555
O2_2 C19_2 1_555 1_555
O3_2 C6_2 1_555 1_555
O4_2 C19_2 1_555 1_555
C1_2 C6_2 1_555 1_555
C2_2 C4_2 1_555 1_555
C3_2 C12_2 1_555 1_555
O5_2 C6_2 1_555 1_555
C4_2 H1_2 1_555 1_555
O6_2 C5_2 1_555 1_555
C5_2 C15_2 1_555 1_555
N1_2 C2_2 1_555 1_555
C7_2 H2_2 1_555 1_555
C8_2 H3_2 1_555 1_555
C9_2 H4_2 1_555 1_555
C10_2 C7_2 1_555 1_555
H5_2 C10_2 1_555 1_555
C11_2 C1_2 1_555 1_555
H6_2 C11_2 1_555 1_555
C12_2 C4_2 1_555 1_555
H7_2 C12_2 1_555 1_555
C13_2 N1_2 1_555 1_555
C14_2 C1_2 1_555 1_555
H8_2 C14_2 1_555 1_555
C15_2 C7_2 1_555 1_555
C16_2 N1_2 1_555 1_555
C17_2 C3_2 1_555 1_555
H9_2 C17_2 1_555 1_555
C18_2 C8_2 1_555 1_555
H10_2 C18_2 1_555 1_555
C19_2 C3_2 1_555 1_555
C20_2 C2_2 1_555 1_555
H11_2 C20_2 1_555 1_555
C21_2 C11_2 1_555 1_555
H12_2 C21_2 1_555 1_555
Zn2_2 O4_2 1_555 1_555
N2_2 Zn2_2 1_555 1_555
C22_2 N2_2 1_555 1_555
H13_2 C22_2 1_555 1_555
H14_2 C22_2 1_555 1_555
C23_2 N2_2 1_555 1_555
H15_2 C23_2 1_555 1_555
H16_2 C23_2 1_555 1_555
C24_2 N2_2 1_555 1_555
H17_2 C24_2 1_555 1_555
H18_2 C24_2 1_555 1_555
N3_2 C25_2 1_555 1_555
C25_2 C23_2 1_555 1_555
H19_2 C25_2 1_555 1_555
H20_2 C25_2 1_555 1_555
C26_2 C22_2 1_555 1_555
H21_2 C26_2 1_555 1_555
H22_2 C26_2 1_555 1_555
C27_2 C24_2 1_555 1_555
H23_2 C27_2 1_555 1_555
H24_2 C27_2 1_555 1_555
Zn4_3 O2_2 1_555 1_555
Zn5_2 O1_2 1_555 1_555
O14_2 Zn1_5 1_555 1_555
O18_2 Zn2_2 1_555 1_555
O20_2 Zn2_2 1_555 1_555
Zn7_2 N3_2 1_555 1_555
Zn10_2 O6_2 1_555 1_555
C8_2 C15_2 1_555 1_555
C9_2 C13_2 1_555 1_555
C9_2 C14_2 1_555 1_555
C10_2 C16_2 1_555 1_555
C13_2 C21_2 1_555 1_555
C16_2 C18_2 1_555 1_555
C17_2 C20_2 1_555 1_555
N3_2 C26_2 1_555 1_555
N3_2 C27_2 1_555 1_555
O15_2 Zn1_6 1_555 1_555
Zn1_7 O3_3 1_555 1_555
O1_3 C5_3 1_555 1_555
O2_3 C19_3 1_555 1_555
O3_3 C6_3 1_555 1_555
O4_3 C19_3 1_555 1_555
C1_3 C6_3 1_555 1_555
C2_3 C4_3 1_555 1_555
C3_3 C12_3 1_555 1_555
O5_3 C6_3 1_555 1_555
C4_3 H1_3 1_555 1_555
O6_3 C5_3 1_555 1_555
C5_3 C15_3 1_555 1_555
N1_3 C2_3 1_555 1_555
C7_3 H2_3 1_555 1_555
C8_3 H3_3 1_555 1_555
C9_3 H4_3 1_555 1_555
C10_3 C7_3 1_555 1_555
H5_3 C10_3 1_555 1_555
C11_3 C1_3 1_555 1_555
H6_3 C11_3 1_555 1_555
C12_3 C4_3 1_555 1_555
H7_3 C12_3 1_555 1_555
C13_3 N1_3 1_555 1_555
C14_3 C1_3 1_555 1_555
H8_3 C14_3 1_555 1_555
C15_3 C7_3 1_555 1_555
C16_3 N1_3 1_555 1_555
C17_3 C3_3 1_555 1_555
H9_3 C17_3 1_555 1_555
C18_3 C8_3 1_555 1_555
H10_3 C18_3 1_555 1_555
C19_3 C3_3 1_555 1_555
C20_3 C2_3 1_555 1_555
H11_3 C20_3 1_555 1_555
C21_3 C11_3 1_555 1_555
H12_3 C21_3 1_555 1_555
Zn2_3 O4_3 1_555 1_555
N2_3 Zn2_3 1_555 1_555
C22_3 N2_3 1_555 1_555
H13_3 C22_3 1_555 1_555
H14_3 C22_3 1_555 1_555
C23_3 N2_3 1_555 1_555
H15_3 C23_3 1_555 1_555
H16_3 C23_3 1_555 1_555
C24_3 N2_3 1_555 1_555
H17_3 C24_3 1_555 1_555
H18_3 C24_3 1_555 1_555
N3_3 C25_3 1_555 1_555
C25_3 C23_3 1_555 1_555
H19_3 C25_3 1_555 1_555
H20_3 C25_3 1_555 1_555
C26_3 C22_3 1_555 1_555
H21_3 C26_3 1_555 1_555
H22_3 C26_3 1_555 1_555
C27_3 C24_3 1_555 1_555
H23_3 C27_3 1_555 1_555
H24_3 C27_3 1_555 1_555
Zn4_4 O2_3 1_555 1_555
Zn5_3 O1_3 1_555 1_555
O14_3 Zn1_7 1_555 1_555
O18_3 Zn2_3 1_555 1_555
O20_3 Zn2_3 1_555 1_555
Zn7_3 N3_3 1_555 1_555
Zn10_3 O6_3 1_555 1_555
C8_3 C15_3 1_555 1_555
C9_3 C13_3 1_555 1_555
C9_3 C14_3 1_555 1_555
C10_3 C16_3 1_555 1_555
C13_3 C21_3 1_555 1_555
C16_3 C18_3 1_555 1_555
C17_3 C20_3 1_555 1_555
N3_3 C26_3 1_555 1_555
N3_3 C27_3 1_555 1_555
O15_3 Zn1_8 1_555 1_555
O7_3 C32_3 1_555 1_555
O8_3 Zn1_9 1_555 1_555
O9_3 C33_3 1_555 1_555
O10_3 C46_3 1_555 1_555
C28_3 C33_3 1_555 1_555
C29_3 C31_3 1_555 1_555
C30_3 C39_3 1_555 1_555
O11_3 C33_3 1_555 1_555
C31_3 H25_3 1_555 1_555
O12_3 C32_3 1_555 1_555
C32_3 C42_3 1_555 1_555
N4_3 C29_3 1_555 1_555
C34_3 H26_3 1_555 1_555
C35_3 H27_3 1_555 1_555
C36_3 H28_3 1_555 1_555
C37_3 C34_3 1_555 1_555
H29_3 C37_3 1_555 1_555
C38_3 C28_3 1_555 1_555
H30_3 C38_3 1_555 1_555
C39_3 C31_3 1_555 1_555
H31_3 C39_3 1_555 1_555
C40_3 N4_3 1_555 1_555
C41_3 C28_3 1_555 1_555
H32_3 C41_3 1_555 1_555
C42_3 C34_3 1_555 1_555
C43_3 N4_3 1_555 1_555
C44_3 C30_3 1_555 1_555
H33_3 C44_3 1_555 1_555
C45_3 C35_3 1_555 1_555
H34_3 C45_3 1_555 1_555
C46_3 O8_3 1_555 1_555
C47_3 C29_3 1_555 1_555
H35_3 C47_3 1_555 1_555
C48_3 C38_3 1_555 1_555
H36_3 C48_3 1_555 1_555
Zn3_3 O10_3 1_555 1_555
Zn6_3 O7_3 1_555 1_555
O19_3 Zn3_3 1_555 1_555
Zn8_3 O11_3 1_555 1_555
Zn11_3 O12_3 1_555 1_555
N5_3 Zn3_3 1_555 1_555
O9_3 Zn4_5 1_555 1_555
C30_3 C46_3 1_555 1_555
C35_3 C42_3 1_555 1_555
C36_3 C40_3 1_555 1_555
C36_3 C41_3 1_555 1_555
C37_3 C43_3 1_555 1_555
C40_3 C48_3 1_555 1_555
C43_3 C45_3 1_555 1_555
C44_3 C47_3 1_555 1_555
O13_3 Zn1_10 1_555 1_555
O16_3 Zn1_10 1_555 1_555
C22_4 N5 1_555 1_555
H13_4 C22_4 1_555 1_555
H14_4 C22_4 1_555 1_555
C23_4 N5 1_555 1_555
H15_4 C23_4 1_555 1_555
H16_4 C23_4 1_555 1_555
C24_4 N5 1_555 1_555
H17_4 C24_4 1_555 1_555
H18_4 C24_4 1_555 1_555
N3_4 C25_4 1_555 1_555
C25_4 C23_4 1_555 1_555
H19_4 C25_4 1_555 1_555
H20_4 C25_4 1_555 1_555
C26_4 C22_4 1_555 1_555
H21_4 C26_4 1_555 1_555
H22_4 C26_4 1_555 1_555
C27_4 C24_4 1_555 1_555
H23_4 C27_4 1_555 1_555
H24_4 C27_4 1_555 1_555
O13_4 Zn4 1_555 1_555
O14_4 Zn4 1_555 1_555
O15_4 Zn4 1_555 1_555
O16_4 Zn4 1_555 1_555
Zn7_4 N3_4 1_555 1_555
N3_4 C26_4 1_555 1_555
N3_4 C27_4 1_555 1_555
O13_5 Zn4_4 1_555 1_555
O16_5 Zn4_4 1_555 1_555
C22_5 N5_3 1_555 1_555
H13_5 C22_5 1_555 1_555
H14_5 C22_5 1_555 1_555
C23_5 N5_3 1_555 1_555
H15_5 C23_5 1_555 1_555
H16_5 C23_5 1_555 1_555
C24_5 N5_3 1_555 1_555
H17_5 C24_5 1_555 1_555
H18_5 C24_5 1_555 1_555
N3_5 C25_5 1_555 1_555
C25_5 C23_5 1_555 1_555
H19_5 C25_5 1_555 1_555
H20_5 C25_5 1_555 1_555
C26_5 C22_5 1_555 1_555
H21_5 C26_5 1_555 1_555
H22_5 C26_5 1_555 1_555
C27_5 C24_5 1_555 1_555
H23_5 C27_5 1_555 1_555
H24_5 C27_5 1_555 1_555
O14_5 Zn4_5 1_555 1_555
O15_5 Zn4_5 1_555 1_555
Zn7_5 N3_5 1_555 1_555
N3_5 C26_5 1_555 1_555
N3_5 C27_5 1_555 1_555
C22_6 N5_2 1_555 1_555
H13_6 C22_6 1_555 1_555
H14_6 C22_6 1_555 1_555
C23_6 N5_2 1_555 1_555
H15_6 C23_6 1_555 1_555
H16_6 C23_6 1_555 1_555
C24_6 N5_2 1_555 1_555
H17_6 C24_6 1_555 1_555
H18_6 C24_6 1_555 1_555
N3_6 C25_6 1_555 1_555
C25_6 C23_6 1_555 1_555
H19_6 C25_6 1_555 1_555
H20_6 C25_6 1_555 1_555
C26_6 C22_6 1_555 1_555
H21_6 C26_6 1_555 1_555
H22_6 C26_6 1_555 1_555
C27_6 C24_6 1_555 1_555
H23_6 C27_6 1_555 1_555
H24_6 C27_6 1_555 1_555
O14_6 Zn4_2 1_555 1_555
O15_6 Zn4_2 1_555 1_555
Zn7_6 N3_6 1_555 1_555
N3_6 C26_6 1_555 1_555
N3_6 C27_6 1_555 1_555
O13_6 Zn4_3 1_555 1_555
O16_6 Zn4_3 1_555 1_555
N3_7 C25_7 1_555 1_555
H19_7 C25_7 1_555 1_555
H20_7 C25_7 1_555 1_555
H21_7 C26_7 1_555 1_555
H22_7 C26_7 1_555 1_555
H23_7 C27_7 1_555 1_555
H24_7 C27_7 1_555 1_555
Zn7_7 N3_7 1_555 1_555
N3_7 C26_7 1_555 1_555
N3_7 C27_7 1_555 1_555
Zn5_3 O3_4 1_555 1_555
O2_4 C19_4 1_555 1_555
O3_4 C6_4 1_555 1_555
O4_4 C19_4 1_555 1_555
C1_4 C6_4 1_555 1_555
C2_4 C4_4 1_555 1_555
C3_4 C12_4 1_555 1_555
O5_4 C6_4 1_555 1_555
C4_4 H1_4 1_555 1_555
N1_4 C2_4 1_555 1_555
C9_4 H4_4 1_555 1_555
C11_4 C1_4 1_555 1_555
H6_4 C11_4 1_555 1_555
C12_4 C4_4 1_555 1_555
H7_4 C12_4 1_555 1_555
C13_4 N1_4 1_555 1_555
C14_4 C1_4 1_555 1_555
H8_4 C14_4 1_555 1_555
C16_4 N1_4 1_555 1_555
C17_4 C3_4 1_555 1_555
H9_4 C17_4 1_555 1_555
C19_4 C3_4 1_555 1_555
C20_4 C2_4 1_555 1_555
H11_4 C20_4 1_555 1_555
C21_4 C11_4 1_555 1_555
H12_4 C21_4 1_555 1_555
Zn2_4 O4_4 1_555 1_555
N2_4 Zn2_4 1_555 1_555
C22_7 N2_4 1_555 1_555
H13_7 C22_7 1_555 1_555
H14_7 C22_7 1_555 1_555
C23_7 N2_4 1_555 1_555
H15_7 C23_7 1_555 1_555
H16_7 C23_7 1_555 1_555
C24_7 N2_4 1_555 1_555
H17_7 C24_7 1_555 1_555
H18_7 C24_7 1_555 1_555
O13_5 C32_4 1_555 1_555
O8_4 Zn5_3 1_555 1_555
O9_4 C33_4 1_555 1_555
O10_4 C46_4 1_555 1_555
C28_4 C33_4 1_555 1_555
C29_4 C31_4 1_555 1_555
C30_4 C39_4 1_555 1_555
O11_4 C33_4 1_555 1_555
C31_4 H25_4 1_555 1_555
C32_4 C42_4 1_555 1_555
N4_4 C29_4 1_555 1_555
C34_4 H26_4 1_555 1_555
C35_4 H27_4 1_555 1_555
C36_4 H28_4 1_555 1_555
C37_4 C34_4 1_555 1_555
H29_4 C37_4 1_555 1_555
C38_4 C28_4 1_555 1_555
H30_4 C38_4 1_555 1_555
C39_4 C31_4 1_555 1_555
H31_4 C39_4 1_555 1_555
C40_4 N4_4 1_555 1_555
C41_4 C28_4 1_555 1_555
H32_4 C41_4 1_555 1_555
C42_4 C34_4 1_555 1_555
C43_4 N4_4 1_555 1_555
C44_4 C30_4 1_555 1_555
H33_4 C44_4 1_555 1_555
C45_4 C35_4 1_555 1_555
H34_4 C45_4 1_555 1_555
C46_4 O8_4 1_555 1_555
C47_4 C29_4 1_555 1_555
H35_4 C47_4 1_555 1_555
C48_4 C38_4 1_555 1_555
H36_4 C48_4 1_555 1_555
Zn7_2 O10_4 1_555 1_555
Zn4_6 O2_4 1_555 1_555
O14_7 Zn5_3 1_555 1_555
O15_7 Zn5_3 1_555 1_555
O16_7 Zn5_3 1_555 1_555
O17_4 Zn7_2 1_555 1_555
O18_4 Zn2_4 1_555 1_555
O19_4 Zn7_2 1_555 1_555
O20_4 Zn2_4 1_555 1_555
Zn8_4 O11_4 1_555 1_555
Zn10_3 O5_4 1_555 1_555
C9_4 C13_4 1_555 1_555
C9_4 C14_4 1_555 1_555
C13_4 C21_4 1_555 1_555
C17_4 C20_4 1_555 1_555
O9_4 Zn4_6 1_555 1_555
C30_4 C46_4 1_555 1_555
C35_4 C42_4 1_555 1_555
C36_4 C40_4 1_555 1_555
C36_4 C41_4 1_555 1_555
C37_4 C43_4 1_555 1_555
C40_4 C48_4 1_555 1_555
C43_4 C45_4 1_555 1_555
C44_4 C47_4 1_555 1_555
O1_4 C5_4 1_555 1_555
O6_4 C5_4 1_555 1_555
C5_4 C15_4 1_555 1_555
C7_4 H2_4 1_555 1_555
C8_4 H3_4 1_555 1_555
C10_4 C7_4 1_555 1_555
H5_4 C10_4 1_555 1_555
C15_4 C7_4 1_555 1_555
C18_4 C8_4 1_555 1_555
Zn5_4 O1_4 1_555 1_555
Zn10_4 O6_4 1_555 1_555
Zn8_3 O12_4 1_555 1_555
C8_4 C15_4 1_555 1_555
Zn5 O3_5 1_555 1_555
O1_5 C5_5 1_555 1_555
O2_5 C19_5 1_555 1_555
O3_5 C6_5 1_555 1_555
O4_5 C19_5 1_555 1_555
C1_5 C6_5 1_555 1_555
C2_5 C4_5 1_555 1_555
C3_5 C12_5 1_555 1_555
O5_5 C6_5 1_555 1_555
C4_5 H1_5 1_555 1_555
O6_5 C5_5 1_555 1_555
C5_5 C15_5 1_555 1_555
N1_5 C2_5 1_555 1_555
C7_5 H2_5 1_555 1_555
C8_5 H3_5 1_555 1_555
C9_5 H4_5 1_555 1_555
C10_5 C7_5 1_555 1_555
H5_5 C10_5 1_555 1_555
C11_5 C1_5 1_555 1_555
H6_5 C11_5 1_555 1_555
C12_5 C4_5 1_555 1_555
H7_5 C12_5 1_555 1_555
C13_5 N1_5 1_555 1_555
C14_5 C1_5 1_555 1_555
H8_5 C14_5 1_555 1_555
C15_5 C7_5 1_555 1_555
C16_5 N1_5 1_555 1_555
C17_5 C3_5 1_555 1_555
H9_5 C17_5 1_555 1_555
C18_5 C8_5 1_555 1_555
H10_5 C18_5 1_555 1_555
C19_5 C3_5 1_555 1_555
C20_5 C2_5 1_555 1_555
H11_5 C20_5 1_555 1_555
C21_5 C11_5 1_555 1_555
H12_5 C21_5 1_555 1_555
Zn2_5 O4_5 1_555 1_555
N2_5 Zn2_5 1_555 1_555
C22_8 N2_5 1_555 1_555
H13_8 C22_8 1_555 1_555
H14_8 C22_8 1_555 1_555
C23_8 N2_5 1_555 1_555
H15_8 C23_8 1_555 1_555
H16_8 C23_8 1_555 1_555
C24_8 N2_5 1_555 1_555
H17_8 C24_8 1_555 1_555
H18_8 C24_8 1_555 1_555
O13_4 C32_5 1_555 1_555
O8_5 Zn5 1_555 1_555
O9_5 C33_5 1_555 1_555
O10_5 C46_5 1_555 1_555
C28_5 C33_5 1_555 1_555
C29_5 C31_5 1_555 1_555
C30_5 C39_5 1_555 1_555
O11_5 C33_5 1_555 1_555
C31_5 H25_5 1_555 1_555
O12_5 C32_5 1_555 1_555
C32_5 C42_5 1_555 1_555
N4_5 C29_5 1_555 1_555
C34_5 H26_5 1_555 1_555
C35_5 H27_5 1_555 1_555
C36_5 H28_5 1_555 1_555
C37_5 C34_5 1_555 1_555
H29_5 C37_5 1_555 1_555
C38_5 C28_5 1_555 1_555
H30_5 C38_5 1_555 1_555
C39_5 C31_5 1_555 1_555
H31_5 C39_5 1_555 1_555
C40_5 N4_5 1_555 1_555
C41_5 C28_5 1_555 1_555
H32_5 C41_5 1_555 1_555
C42_5 C34_5 1_555 1_555
C43_5 N4_5 1_555 1_555
C44_5 C30_5 1_555 1_555
H33_5 C44_5 1_555 1_555
C45_5 C35_5 1_555 1_555
H34_5 C45_5 1_555 1_555
C46_5 O8_5 1_555 1_555
C47_5 C29_5 1_555 1_555
H35_5 C47_5 1_555 1_555
C48_5 C38_5 1_555 1_555
H36_5 C48_5 1_555 1_555
Zn7_3 O10_5 1_555 1_555
Zn4_7 O2_5 1_555 1_555
Zn5_5 O1_5 1_555 1_555
O14_8 Zn5 1_555 1_555
O15_8 Zn5 1_555 1_555
O16_8 Zn5 1_555 1_555
O17_5 Zn7_3 1_555 1_555
O18_5 Zn2_5 1_555 1_555
O19_5 Zn7_3 1_555 1_555
O20_5 Zn2_5 1_555 1_555
Zn8_5 O11_5 1_555 1_555
Zn10 O5_5 1_555 1_555
Zn10_5 O6_5 1_555 1_555
Zn8 O12_5 1_555 1_555
C8_5 C15_5 1_555 1_555
C9_5 C13_5 1_555 1_555
C9_5 C14_5 1_555 1_555
C10_5 C16_5 1_555 1_555
C13_5 C21_5 1_555 1_555
C16_5 C18_5 1_555 1_555
C17_5 C20_5 1_555 1_555
O9_5 Zn4_7 1_555 1_555
C30_5 C46_5 1_555 1_555
C35_5 C42_5 1_555 1_555
C36_5 C40_5 1_555 1_555
C36_5 C41_5 1_555 1_555
C37_5 C43_5 1_555 1_555
C40_5 C48_5 1_555 1_555
C43_5 C45_5 1_555 1_555
C44_5 C47_5 1_555 1_555
N3_8 C25_8 1_555 1_555
H19_8 C25_8 1_555 1_555
H20_8 C25_8 1_555 1_555
H21_8 C26_8 1_555 1_555
H22_8 C26_8 1_555 1_555
H23_8 C27_8 1_555 1_555
H24_8 C27_8 1_555 1_555
Zn7_8 N3_8 1_555 1_555
N3_8 C26_8 1_555 1_555
N3_8 C27_8 1_555 1_555
O1_6 C5_6 1_555 1_555
O6_6 C5_6 1_555 1_555
C5_6 C15_6 1_555 1_555
C7_6 H2_6 1_555 1_555
C8_6 H3_6 1_555 1_555
C10_6 C7_6 1_555 1_555
H5_6 C10_6 1_555 1_555
C15_6 C7_6 1_555 1_555
C18_6 C8_6 1_555 1_555
Zn5_6 O1_6 1_555 1_555
Zn10_6 O6_6 1_555 1_555
Zn8_2 O12_6 1_555 1_555
C8_6 C15_6 1_555 1_555
Zn5_2 O3_6 1_555 1_555
O2_6 C19_6 1_555 1_555
O3_6 C6_6 1_555 1_555
O4_6 C19_6 1_555 1_555
C1_6 C6_6 1_555 1_555
C2_6 C4_6 1_555 1_555
C3_6 C12_6 1_555 1_555
O5_6 C6_6 1_555 1_555
C4_6 H1_6 1_555 1_555
N1_6 C2_6 1_555 1_555
C9_6 H4_6 1_555 1_555
C11_6 C1_6 1_555 1_555
H6_6 C11_6 1_555 1_555
C12_6 C4_6 1_555 1_555
H7_6 C12_6 1_555 1_555
C13_6 N1_6 1_555 1_555
C14_6 C1_6 1_555 1_555
H8_6 C14_6 1_555 1_555
C16_6 N1_6 1_555 1_555
C17_6 C3_6 1_555 1_555
H9_6 C17_6 1_555 1_555
C19_6 C3_6 1_555 1_555
C20_6 C2_6 1_555 1_555
H11_6 C20_6 1_555 1_555
C21_6 C11_6 1_555 1_555
H12_6 C21_6 1_555 1_555
Zn2_6 O4_6 1_555 1_555
N2_6 Zn2_6 1_555 1_555
C22_9 N2_6 1_555 1_555
H13_9 C22_9 1_555 1_555
H14_9 C22_9 1_555 1_555
C23_9 N2_6 1_555 1_555
H15_9 C23_9 1_555 1_555
H16_9 C23_9 1_555 1_555
C24_9 N2_6 1_555 1_555
H17_9 C24_9 1_555 1_555
H18_9 C24_9 1_555 1_555
N3_9 C25_9 1_555 1_555
C25_9 C23_9 1_555 1_555
H19_9 C25_9 1_555 1_555
H20_9 C25_9 1_555 1_555
C26_9 C22_9 1_555 1_555
H21_9 C26_9 1_555 1_555
H22_9 C26_9 1_555 1_555
C27_9 C24_9 1_555 1_555
H23_9 C27_9 1_555 1_555
H24_9 C27_9 1_555 1_555
O13_6 C32_6 1_555 1_555
O8_6 Zn5_2 1_555 1_555
O9_6 C33_6 1_555 1_555
O10_6 C46_6 1_555 1_555
C28_6 C33_6 1_555 1_555
C29_6 C31_6 1_555 1_555
C30_6 C39_6 1_555 1_555
O11_6 C33_6 1_555 1_555
C31_6 H25_6 1_555 1_555
C32_6 C42_6 1_555 1_555
N4_6 C29_6 1_555 1_555
C34_6 H26_6 1_555 1_555
C35_6 H27_6 1_555 1_555
C36_6 H28_6 1_555 1_555
C37_6 C34_6 1_555 1_555
H29_6 C37_6 1_555 1_555
C38_6 C28_6 1_555 1_555
H30_6 C38_6 1_555 1_555
C39_6 C31_6 1_555 1_555
H31_6 C39_6 1_555 1_555
C40_6 N4_6 1_555 1_555
C41_6 C28_6 1_555 1_555
H32_6 C41_6 1_555 1_555
C42_6 C34_6 1_555 1_555
C43_6 N4_6 1_555 1_555
C44_6 C30_6 1_555 1_555
H33_6 C44_6 1_555 1_555
C45_6 C35_6 1_555 1_555
H34_6 C45_6 1_555 1_555
C46_6 O8_6 1_555 1_555
C47_6 C29_6 1_555 1_555
H35_6 C47_6 1_555 1_555
C48_6 C38_6 1_555 1_555
H36_6 C48_6 1_555 1_555
Zn7 O10_6 1_555 1_555
Zn4_8 O2_6 1_555 1_555
O14_9 Zn5_2 1_555 1_555
O15_9 Zn5_2 1_555 1_555
O16_9 Zn5_2 1_555 1_555
O17_6 Zn7 1_555 1_555
O18_6 Zn2_6 1_555 1_555
O19_6 Zn7 1_555 1_555
O20_6 Zn2_6 1_555 1_555
Zn7_9 N3_9 1_555 1_555
Zn8_6 O11_6 1_555 1_555
Zn10_2 O5_6 1_555 1_555
C9_6 C13_6 1_555 1_555
C9_6 C14_6 1_555 1_555
C13_6 C21_6 1_555 1_555
C17_6 C20_6 1_555 1_555
N3_9 C26_9 1_555 1_555
N3_9 C27_9 1_555 1_555
O9_6 Zn4_8 1_555 1_555
C30_6 C46_6 1_555 1_555
C35_6 C42_6 1_555 1_555
C36_6 C40_6 1_555 1_555
C36_6 C41_6 1_555 1_555
C37_6 C43_6 1_555 1_555
C40_6 C48_6 1_555 1_555
C43_6 C45_6 1_555 1_555
C44_6 C47_6 1_555 1_555
O13_7 Zn4_6 1_555 1_555
O14_10 Zn4_6 1_555 1_555
O15_10 Zn4_6 1_555 1_555
O16_10 Zn4_6 1_555 1_555
O13_8 Zn4_8 1_555 1_555
O14_11 Zn4_8 1_555 1_555
O15_11 Zn4_8 1_555 1_555
O16_11 Zn4_8 1_555 1_555
O13_9 Zn4_7 1_555 1_555
O14_12 Zn4_7 1_555 1_555
O15_12 Zn4_7 1_555 1_555
O16_12 Zn4_7 1_555 1_555
O2_7 C19_7 1_555 1_555
O4_7 C19_7 1_555 1_555
C3_7 C12_7 1_555 1_555
C4_7 H1_7 1_555 1_555
C12_7 C4_7 1_555 1_555
H7_7 C12_7 1_555 1_555
C19_7 C3_7 1_555 1_555
Zn7_5 O4_7 1_555 1_555
O9_7 C33_7 1_555 1_555
C28_7 C33_7 1_555 1_555
O11_7 C33_7 1_555 1_555
C38_7 C28_7 1_555 1_555
H30_7 C38_7 1_555 1_555
C41_7 C28_7 1_555 1_555
H32_7 C41_7 1_555 1_555
Zn6_2 O2_7 1_555 1_555
O18_7 Zn7_5 1_555 1_555
O20_7 Zn7_5 1_555 1_555
Zn11_2 O11_7 1_555 1_555
O9_7 Zn6_2 1_555 1_555
Zn5_6 O3_7 1_555 1_555
O13_2 C5_7 1_555 1_555
O3_7 C6_7 1_555 1_555
C1_7 C6_7 1_555 1_555
O5_7 C6_7 1_555 1_555
C5_7 C15_7 1_555 1_555
N1_7 C2_7 1_555 1_555
C7_7 H2_7 1_555 1_555
C8_7 H3_7 1_555 1_555
C9_7 H4_7 1_555 1_555
C10_7 C7_7 1_555 1_555
H5_7 C10_7 1_555 1_555
C11_7 C1_7 1_555 1_555
H6_7 C11_7 1_555 1_555
C13_7 N1_7 1_555 1_555
C14_7 C1_7 1_555 1_555
H8_7 C14_7 1_555 1_555
C15_7 C7_7 1_555 1_555
C16_7 N1_7 1_555 1_555
H9_7 C17_7 1_555 1_555
C18_7 C8_7 1_555 1_555
H10_7 C18_7 1_555 1_555
C20_7 C2_7 1_555 1_555
H11_7 C20_7 1_555 1_555
C21_7 C11_7 1_555 1_555
H12_7 C21_7 1_555 1_555
O8_7 Zn5_6 1_555 1_555
O10_7 C46_7 1_555 1_555
C29_7 C31_7 1_555 1_555
C30_7 C39_7 1_555 1_555
C31_7 H25_7 1_555 1_555
N4_7 C29_7 1_555 1_555
C36_7 H28_7 1_555 1_555
C39_7 C31_7 1_555 1_555
H31_7 C39_7 1_555 1_555
C40_7 N4_7 1_555 1_555
C43_7 N4_7 1_555 1_555
C44_7 C30_7 1_555 1_555
H33_7 C44_7 1_555 1_555
C46_7 O8_7 1_555 1_555
C47_7 C29_7 1_555 1_555
H35_7 C47_7 1_555 1_555
H36_7 C48_7 1_555 1_555
Zn7_8 O10_7 1_555 1_555
O14_13 Zn5_6 1_555 1_555
O15_13 Zn5_6 1_555 1_555
O16_13 Zn5_6 1_555 1_555
O17_7 Zn7_8 1_555 1_555
O19_7 Zn7_8 1_555 1_555
Zn10_6 O5_7 1_555 1_555
C8_7 C15_7 1_555 1_555
C9_7 C13_7 1_555 1_555
C9_7 C14_7 1_555 1_555
C10_7 C16_7 1_555 1_555
C13_7 C21_7 1_555 1_555
C16_7 C18_7 1_555 1_555
C17_7 C20_7 1_555 1_555
C30_7 C46_7 1_555 1_555
C36_7 C40_7 1_555 1_555
C40_7 C48_7 1_555 1_555
C44_7 C47_7 1_555 1_555
O13_8 C32_7 1_555 1_555
O12_7 C32_7 1_555 1_555
C32_7 C42_7 1_555 1_555
C34_7 H26_7 1_555 1_555
C35_7 H27_7 1_555 1_555
C37_7 C34_7 1_555 1_555
H29_7 C37_7 1_555 1_555
C42_7 C34_7 1_555 1_555
C45_7 C35_7 1_555 1_555
Zn9_2 O6_7 1_555 1_555
Zn8_6 O12_7 1_555 1_555
C35_7 C42_7 1_555 1_555
O13_7 C32_8 1_555 1_555
O12_8 C32_8 1_555 1_555
C32_8 C42_8 1_555 1_555
C34_8 H26_8 1_555 1_555
C35_8 H27_8 1_555 1_555
C37_8 C34_8 1_555 1_555
H29_8 C37_8 1_555 1_555
C42_8 C34_8 1_555 1_555
C45_8 C35_8 1_555 1_555
Zn9_3 O6_8 1_555 1_555
Zn8_4 O12_8 1_555 1_555
C35_8 C42_8 1_555 1_555
O2_8 C19_8 1_555 1_555
O4_8 C19_8 1_555 1_555
C3_8 C12_8 1_555 1_555
C4_8 H1_8 1_555 1_555
C12_8 C4_8 1_555 1_555
H7_8 C12_8 1_555 1_555
C19_8 C3_8 1_555 1_555
Zn7_4 O4_8 1_555 1_555
O9_8 C33_8 1_555 1_555
C28_8 C33_8 1_555 1_555
O11_8 C33_8 1_555 1_555
C38_8 C28_8 1_555 1_555
H30_8 C38_8 1_555 1_555
C41_8 C28_8 1_555 1_555
H32_8 C41_8 1_555 1_555
Zn6_3 O2_8 1_555 1_555
O18_8 Zn7_4 1_555 1_555
O20_8 Zn7_4 1_555 1_555
Zn11_3 O11_8 1_555 1_555
O9_8 Zn6_3 1_555 1_555
Zn5_4 O3_8 1_555 1_555
O13_3 C5_8 1_555 1_555
O3_8 C6_8 1_555 1_555
C1_8 C6_8 1_555 1_555
O5_8 C6_8 1_555 1_555
C5_8 C15_8 1_555 1_555
N1_8 C2_8 1_555 1_555
C7_8 H2_8 1_555 1_555
C8_8 H3_8 1_555 1_555
C9_8 H4_8 1_555 1_555
C10_8 C7_8 1_555 1_555
H5_8 C10_8 1_555 1_555
C11_8 C1_8 1_555 1_555
H6_8 C11_8 1_555 1_555
C13_8 N1_8 1_555 1_555
C14_8 C1_8 1_555 1_555
H8_8 C14_8 1_555 1_555
C15_8 C7_8 1_555 1_555
C16_8 N1_8 1_555 1_555
H9_8 C17_8 1_555 1_555
C18_8 C8_8 1_555 1_555
H10_8 C18_8 1_555 1_555
C20_8 C2_8 1_555 1_555
H11_8 C20_8 1_555 1_555
C21_8 C11_8 1_555 1_555
H12_8 C21_8 1_555 1_555
O8_8 Zn5_4 1_555 1_555
O10_8 C46_8 1_555 1_555
C29_8 C31_8 1_555 1_555
C30_8 C39_8 1_555 1_555
C31_8 H25_8 1_555 1_555
N4_8 C29_8 1_555 1_555
C36_8 H28_8 1_555 1_555
C39_8 C31_8 1_555 1_555
H31_8 C39_8 1_555 1_555
C40_8 N4_8 1_555 1_555
C43_8 N4_8 1_555 1_555
C44_8 C30_8 1_555 1_555
H33_8 C44_8 1_555 1_555
C46_8 O8_8 1_555 1_555
C47_8 C29_8 1_555 1_555
H35_8 C47_8 1_555 1_555
H36_8 C48_8 1_555 1_555
Zn7_9 O10_8 1_555 1_555
O14_14 Zn5_4 1_555 1_555
O15_14 Zn5_4 1_555 1_555
O16_14 Zn5_4 1_555 1_555
O17_8 Zn7_9 1_555 1_555
O19_8 Zn7_9 1_555 1_555
Zn10_4 O5_8 1_555 1_555
C8_8 C15_8 1_555 1_555
C9_8 C13_8 1_555 1_555
C9_8 C14_8 1_555 1_555
C10_8 C16_8 1_555 1_555
C13_8 C21_8 1_555 1_555
C16_8 C18_8 1_555 1_555
C17_8 C20_8 1_555 1_555
C30_8 C46_8 1_555 1_555
C36_8 C40_8 1_555 1_555
C40_8 C48_8 1_555 1_555
C44_8 C47_8 1_555 1_555
O2_9 C19_9 1_555 1_555
O4_9 C19_9 1_555 1_555
C3_9 C12_9 1_555 1_555
C4_9 H1_9 1_555 1_555
C12_9 C4_9 1_555 1_555
H7_9 C12_9 1_555 1_555
C19_9 C3_9 1_555 1_555
Zn7_6 O4_9 1_555 1_555
O9_9 C33_9 1_555 1_555
C28_9 C33_9 1_555 1_555
O11_9 C33_9 1_555 1_555
C38_9 C28_9 1_555 1_555
H30_9 C38_9 1_555 1_555
C41_9 C28_9 1_555 1_555
H32_9 C41_9 1_555 1_555
Zn6 O2_9 1_555 1_555
O18_9 Zn7_6 1_555 1_555
O20_9 Zn7_6 1_555 1_555
Zn11 O11_9 1_555 1_555
O9_9 Zn6 1_555 1_555
Zn5_5 O3_9 1_555 1_555
O13 C5_9 1_555 1_555
O3_9 C6_9 1_555 1_555
C1_9 C6_9 1_555 1_555
O5_9 C6_9 1_555 1_555
O6_9 C5_9 1_555 1_555
C5_9 C15_9 1_555 1_555
N1_9 C2_9 1_555 1_555
C7_9 H2_9 1_555 1_555
C8_9 H3_9 1_555 1_555
C9_9 H4_9 1_555 1_555
C10_9 C7_9 1_555 1_555
H5_9 C10_9 1_555 1_555
C11_9 C1_9 1_555 1_555
H6_9 C11_9 1_555 1_555
C13_9 N1_9 1_555 1_555
C14_9 C1_9 1_555 1_555
H8_9 C14_9 1_555 1_555
C15_9 C7_9 1_555 1_555
C16_9 N1_9 1_555 1_555
H9_9 C17_9 1_555 1_555
C18_9 C8_9 1_555 1_555
H10_9 C18_9 1_555 1_555
C20_9 C2_9 1_555 1_555
H11_9 C20_9 1_555 1_555
C21_9 C11_9 1_555 1_555
H12_9 C21_9 1_555 1_555
O13_9 C32_9 1_555 1_555
O8_9 Zn5_5 1_555 1_555
O10_9 C46_9 1_555 1_555
C29_9 C31_9 1_555 1_555
C30_9 C39_9 1_555 1_555
C31_9 H25_9 1_555 1_555
O12_9 C32_9 1_555 1_555
C32_9 C42_9 1_555 1_555
N4_9 C29_9 1_555 1_555
C34_9 H26_9 1_555 1_555
C35_9 H27_9 1_555 1_555
C36_9 H28_9 1_555 1_555
C37_9 C34_9 1_555 1_555
H29_9 C37_9 1_555 1_555
C39_9 C31_9 1_555 1_555
H31_9 C39_9 1_555 1_555
C40_9 N4_9 1_555 1_555
C42_9 C34_9 1_555 1_555
C43_9 N4_9 1_555 1_555
C44_9 C30_9 1_555 1_555
H33_9 C44_9 1_555 1_555
C45_9 C35_9 1_555 1_555
H34_9 C45_9 1_555 1_555
C46_9 O8_9 1_555 1_555
C47_9 C29_9 1_555 1_555
H35_9 C47_9 1_555 1_555
H36_9 C48_9 1_555 1_555
Zn7_7 O10_9 1_555 1_555
O14_15 Zn5_5 1_555 1_555
O15_15 Zn5_5 1_555 1_555
O16_15 Zn5_5 1_555 1_555
O17_9 Zn7_7 1_555 1_555
O19_9 Zn7_7 1_555 1_555
Zn10_5 O5_9 1_555 1_555
Zn9 O6_9 1_555 1_555
Zn8_5 O12_9 1_555 1_555
C8_9 C15_9 1_555 1_555
C9_9 C13_9 1_555 1_555
C9_9 C14_9 1_555 1_555
C10_9 C16_9 1_555 1_555
C13_9 C21_9 1_555 1_555
C16_9 C18_9 1_555 1_555
C17_9 C20_9 1_555 1_555
C30_9 C46_9 1_555 1_555
C35_9 C42_9 1_555 1_555
C36_9 C40_9 1_555 1_555
C37_9 C43_9 1_555 1_555
C40_9 C48_9 1_555 1_555
C43_9 C45_9 1_555 1_555
C44_9 C47_9 1_555 1_555
O14_16 Zn6_2 1_555 1_555
O15_16 Zn6_2 1_555 1_555
O16_16 Zn6_2 1_555 1_555
O14_17 Zn6 1_555 1_555
O15_17 Zn6 1_555 1_555
O16_17 Zn6 1_555 1_555
O14_18 Zn6_3 1_555 1_555
O15_18 Zn6_3 1_555 1_555
O16_18 Zn6_3 1_555 1_555
O14_14 C5_10 1_555 1_555
O15_4 C19_10 1_555 1_555
O16 C6_10 1_555 1_555
O4_10 C19_10 1_555 1_555
C1_10 C6_10 1_555 1_555
C2_10 C4_10 1_555 1_555
C3_10 C12_10 1_555 1_555
O17 C6_10 1_555 1_555
C4_10 H1_10 1_555 1_555
O19_8 C5_10 1_555 1_555
C5_10 C15_10 1_555 1_555
N1_10 C2_10 1_555 1_555
C7_10 H2_10 1_555 1_555
C8_10 H3_10 1_555 1_555
C9_10 H4_10 1_555 1_555
C10_10 C7_10 1_555 1_555
H5_10 C10_10 1_555 1_555
C11_10 C1_10 1_555 1_555
H6_10 C11_10 1_555 1_555
C12_10 C4_10 1_555 1_555
H7_10 C12_10 1_555 1_555
C13_10 N1_10 1_555 1_555
C14_10 C1_10 1_555 1_555
H8_10 C14_10 1_555 1_555
C15_10 C7_10 1_555 1_555
C16_10 N1_10 1_555 1_555
C17_10 C3_10 1_555 1_555
H9_10 C17_10 1_555 1_555
C18_10 C8_10 1_555 1_555
H10_10 C18_10 1_555 1_555
C19_10 C3_10 1_555 1_555
C20_10 C2_10 1_555 1_555
H11_10 C20_10 1_555 1_555
C21_10 C11_10 1_555 1_555
H12_10 C21_10 1_555 1_555
Zn8 O4_10 1_555 1_555
N2_7 Zn8 1_555 1_555
C22_10 N2_7 1_555 1_555
H13_10 C22_10 1_555 1_555
H14_10 C22_10 1_555 1_555
C23_10 N2_7 1_555 1_555
H15_10 C23_10 1_555 1_555
H16_10 C23_10 1_555 1_555
C24_10 N2_7 1_555 1_555
H17_10 C24_10 1_555 1_555
H18_10 C24_10 1_555 1_555
N3_10 C25_10 1_555 1_555
C25_10 C23_10 1_555 1_555
H19_10 C25_10 1_555 1_555
H20_10 C25_10 1_555 1_555
C26_10 C22_10 1_555 1_555
H21_10 C26_10 1_555 1_555
H22_10 C26_10 1_555 1_555
C27_10 C24_10 1_555 1_555
H23_10 C27_10 1_555 1_555
H24_10 C27_10 1_555 1_555
O14_11 C32_10 1_555 1_555
O16_4 C33_10 1_555 1_555
O10_10 C46_10 1_555 1_555
C28_10 C33_10 1_555 1_555
C29_10 C31_10 1_555 1_555
C30_10 C39_10 1_555 1_555
O18 C33_10 1_555 1_555
C31_10 H25_10 1_555 1_555
O20_6 C32_10 1_555 1_555
C32_10 C42_10 1_555 1_555
N4_10 C29_10 1_555 1_555
C34_10 H26_10 1_555 1_555
C35_10 H27_10 1_555 1_555
C36_10 H28_10 1_555 1_555
C37_10 C34_10 1_555 1_555
H29_10 C37_10 1_555 1_555
C38_10 C28_10 1_555 1_555
H30_10 C38_10 1_555 1_555
C39_10 C31_10 1_555 1_555
H31_10 C39_10 1_555 1_555
C40_10 N4_10 1_555 1_555
C41_10 C28_10 1_555 1_555
H32_10 C41_10 1_555 1_555
C42_10 C34_10 1_555 1_555
C43_10 N4_10 1_555 1_555
C44_10 C30_10 1_555 1_555
H33_10 C44_10 1_555 1_555
C45_10 C35_10 1_555 1_555
H34_10 C45_10 1_555 1_555
C46_10 O15 1_555 1_555
C47_10 C29_10 1_555 1_555
H35_10 C47_10 1_555 1_555
C48_10 C38_10 1_555 1_555
H36_10 C48_10 1_555 1_555
Zn9 O10_10 1_555 1_555
Zn10_5 N3_10 1_555 1_555
N5_4 Zn9 1_555 1_555
C8_10 C15_10 1_555 1_555
C9_10 C13_10 1_555 1_555
C9_10 C14_10 1_555 1_555
C10_10 C16_10 1_555 1_555
C13_10 C21_10 1_555 1_555
C16_10 C18_10 1_555 1_555
C17_10 C20_10 1_555 1_555
N3_10 C26_10 1_555 1_555
N3_10 C27_10 1_555 1_555
C30_10 C46_10 1_555 1_555
C35_10 C42_10 1_555 1_555
C36_10 C40_10 1_555 1_555
C36_10 C41_10 1_555 1_555
C37_10 C43_10 1_555 1_555
C40_10 C48_10 1_555 1_555
C43_10 C45_10 1_555 1_555
C44_10 C47_10 1_555 1_555
O14_15 C5_11 1_555 1_555
O15_6 C19_11 1_555 1_555
O16_2 C6_11 1_555 1_555
O4_11 C19_11 1_555 1_555
C1_11 C6_11 1_555 1_555
C2_11 C4_11 1_555 1_555
C3_11 C12_11 1_555 1_555
O17_2 C6_11 1_555 1_555
C4_11 H1_11 1_555 1_555
O19_9 C5_11 1_555 1_555
C5_11 C15_11 1_555 1_555
N1_11 C2_11 1_555 1_555
C7_11 H2_11 1_555 1_555
C8_11 H3_11 1_555 1_555
C9_11 H4_11 1_555 1_555
C10_11 C7_11 1_555 1_555
H5_11 C10_11 1_555 1_555
C11_11 C1_11 1_555 1_555
H6_11 C11_11 1_555 1_555
C12_11 C4_11 1_555 1_555
H7_11 C12_11 1_555 1_555
C13_11 N1_11 1_555 1_555
C14_11 C1_11 1_555 1_555
H8_11 C14_11 1_555 1_555
C15_11 C7_11 1_555 1_555
C16_11 N1_11 1_555 1_555
C17_11 C3_11 1_555 1_555
H9_11 C17_11 1_555 1_555
C18_11 C8_11 1_555 1_555
H10_11 C18_11 1_555 1_555
C19_11 C3_11 1_555 1_555
C20_11 C2_11 1_555 1_555
H11_11 C20_11 1_555 1_555
C21_11 C11_11 1_555 1_555
H12_11 C21_11 1_555 1_555
Zn8_2 O4_11 1_555 1_555
N2_8 Zn8_2 1_555 1_555
C22_11 N2_8 1_555 1_555
H13_11 C22_11 1_555 1_555
H14_11 C22_11 1_555 1_555
C23_11 N2_8 1_555 1_555
H15_11 C23_11 1_555 1_555
H16_11 C23_11 1_555 1_555
C24_11 N2_8 1_555 1_555
H17_11 C24_11 1_555 1_555
H18_11 C24_11 1_555 1_555
N3_11 C25_11 1_555 1_555
C25_11 C23_11 1_555 1_555
H19_11 C25_11 1_555 1_555
H20_11 C25_11 1_555 1_555
C26_11 C22_11 1_555 1_555
H21_11 C26_11 1_555 1_555
H22_11 C26_11 1_555 1_555
C27_11 C24_11 1_555 1_555
H23_11 C27_11 1_555 1_555
H24_11 C27_11 1_555 1_555
Zn10_6 N3_11 1_555 1_555
C8_11 C15_11 1_555 1_555
C9_11 C13_11 1_555 1_555
C9_11 C14_11 1_555 1_555
C10_11 C16_11 1_555 1_555
C13_11 C21_11 1_555 1_555
C16_11 C18_11 1_555 1_555
C17_11 C20_11 1_555 1_555
N3_11 C26_11 1_555 1_555
N3_11 C27_11 1_555 1_555
O14_10 C32_11 1_555 1_555
O16_6 C33_11 1_555 1_555
O10_11 C46_11 1_555 1_555
C28_11 C33_11 1_555 1_555
C29_11 C31_11 1_555 1_555
C30_11 C39_11 1_555 1_555
O18_2 C33_11 1_555 1_555
C31_11 H25_11 1_555 1_555
O20_4 C32_11 1_555 1_555
C32_11 C42_11 1_555 1_555
N4_11 C29_11 1_555 1_555
C34_11 H26_11 1_555 1_555
C35_11 H27_11 1_555 1_555
C36_11 H28_11 1_555 1_555
C37_11 C34_11 1_555 1_555
H29_11 C37_11 1_555 1_555
C38_11 C28_11 1_555 1_555
H30_11 C38_11 1_555 1_555
C39_11 C31_11 1_555 1_555
H31_11 C39_11 1_555 1_555
C40_11 N4_11 1_555 1_555
C41_11 C28_11 1_555 1_555
H32_11 C41_11 1_555 1_555
C42_11 C34_11 1_555 1_555
C43_11 N4_11 1_555 1_555
C44_11 C30_11 1_555 1_555
H33_11 C44_11 1_555 1_555
C45_11 C35_11 1_555 1_555
H34_11 C45_11 1_555 1_555
C46_11 O15_2 1_555 1_555
C47_11 C29_11 1_555 1_555
H35_11 C47_11 1_555 1_555
C48_11 C38_11 1_555 1_555
H36_11 C48_11 1_555 1_555
Zn9_2 O10_11 1_555 1_555
N5_5 Zn9_2 1_555 1_555
C30_11 C46_11 1_555 1_555
C35_11 C42_11 1_555 1_555
C36_11 C40_11 1_555 1_555
C36_11 C41_11 1_555 1_555
C37_11 C43_11 1_555 1_555
C40_11 C48_11 1_555 1_555
C43_11 C45_11 1_555 1_555
C44_11 C47_11 1_555 1_555
O14_12 C32_12 1_555 1_555
O16_5 C33_12 1_555 1_555
O10_12 C46_12 1_555 1_555
C28_12 C33_12 1_555 1_555
C29_12 C31_12 1_555 1_555
C30_12 C39_12 1_555 1_555
O18_3 C33_12 1_555 1_555
C31_12 H25_12 1_555 1_555
O20_5 C32_12 1_555 1_555
C32_12 C42_12 1_555 1_555
N4_12 C29_12 1_555 1_555
C34_12 H26_12 1_555 1_555
C35_12 H27_12 1_555 1_555
C36_12 H28_12 1_555 1_555
C37_12 C34_12 1_555 1_555
H29_12 C37_12 1_555 1_555
C38_12 C28_12 1_555 1_555
H30_12 C38_12 1_555 1_555
C39_12 C31_12 1_555 1_555
H31_12 C39_12 1_555 1_555
C40_12 N4_12 1_555 1_555
C41_12 C28_12 1_555 1_555
H32_12 C41_12 1_555 1_555
C42_12 C34_12 1_555 1_555
C43_12 N4_12 1_555 1_555
C44_12 C30_12 1_555 1_555
H33_12 C44_12 1_555 1_555
C45_12 C35_12 1_555 1_555
H34_12 C45_12 1_555 1_555
C46_12 O15_3 1_555 1_555
C47_12 C29_12 1_555 1_555
H35_12 C47_12 1_555 1_555
C48_12 C38_12 1_555 1_555
H36_12 C48_12 1_555 1_555
Zn9_3 O10_12 1_555 1_555
N5_6 Zn9_3 1_555 1_555
C30_12 C46_12 1_555 1_555
C35_12 C42_12 1_555 1_555
C36_12 C40_12 1_555 1_555
C36_12 C41_12 1_555 1_555
C37_12 C43_12 1_555 1_555
C40_12 C48_12 1_555 1_555
C43_12 C45_12 1_555 1_555
C44_12 C47_12 1_555 1_555
O14_13 C5_12 1_555 1_555
O15_5 C19_12 1_555 1_555
O16_3 C6_12 1_555 1_555
O4_12 C19_12 1_555 1_555
C1_12 C6_12 1_555 1_555
C2_12 C4_12 1_555 1_555
C3_12 C12_12 1_555 1_555
O17_3 C6_12 1_555 1_555
C4_12 H1_12 1_555 1_555
O19_7 C5_12 1_555 1_555
C5_12 C15_12 1_555 1_555
N1_12 C2_12 1_555 1_555
C7_12 H2_12 1_555 1_555
C8_12 H3_12 1_555 1_555
C9_12 H4_12 1_555 1_555
C10_12 C7_12 1_555 1_555
H5_12 C10_12 1_555 1_555
C11_12 C1_12 1_555 1_555
H6_12 C11_12 1_555 1_555
C12_12 C4_12 1_555 1_555
H7_12 C12_12 1_555 1_555
C13_12 N1_12 1_555 1_555
C14_12 C1_12 1_555 1_555
H8_12 C14_12 1_555 1_555
C15_12 C7_12 1_555 1_555
C16_12 N1_12 1_555 1_555
C17_12 C3_12 1_555 1_555
H9_12 C17_12 1_555 1_555
C18_12 C8_12 1_555 1_555
H10_12 C18_12 1_555 1_555
C19_12 C3_12 1_555 1_555
C20_12 C2_12 1_555 1_555
H11_12 C20_12 1_555 1_555
C21_12 C11_12 1_555 1_555
H12_12 C21_12 1_555 1_555
Zn8_3 O4_12 1_555 1_555
N2_9 Zn8_3 1_555 1_555
C22_12 N2_9 1_555 1_555
H13_12 C22_12 1_555 1_555
H14_12 C22_12 1_555 1_555
C23_12 N2_9 1_555 1_555
H15_12 C23_12 1_555 1_555
H16_12 C23_12 1_555 1_555
C24_12 N2_9 1_555 1_555
H17_12 C24_12 1_555 1_555
H18_12 C24_12 1_555 1_555
N3_12 C25_12 1_555 1_555
C25_12 C23_12 1_555 1_555
H19_12 C25_12 1_555 1_555
H20_12 C25_12 1_555 1_555
C26_12 C22_12 1_555 1_555
H21_12 C26_12 1_555 1_555
H22_12 C26_12 1_555 1_555
C27_12 C24_12 1_555 1_555
H23_12 C27_12 1_555 1_555
H24_12 C27_12 1_555 1_555
Zn10_4 N3_12 1_555 1_555
C8_12 C15_12 1_555 1_555
C9_12 C13_12 1_555 1_555
C9_12 C14_12 1_555 1_555
C10_12 C16_12 1_555 1_555
C13_12 C21_12 1_555 1_555
C16_12 C18_12 1_555 1_555
C17_12 C20_12 1_555 1_555
N3_12 C26_12 1_555 1_555
N3_12 C27_12 1_555 1_555
C22_13 N5_4 1_555 1_555
H13_13 C22_13 1_555 1_555
H14_13 C22_13 1_555 1_555
C23_13 N5_4 1_555 1_555
H15_13 C23_13 1_555 1_555
H16_13 C23_13 1_555 1_555
C24_13 N5_4 1_555 1_555
H17_13 C24_13 1_555 1_555
H18_13 C24_13 1_555 1_555
N3_13 C25_13 1_555 1_555
C25_13 C23_13 1_555 1_555
H19_13 C25_13 1_555 1_555
H20_13 C25_13 1_555 1_555
C26_13 C22_13 1_555 1_555
H21_13 C26_13 1_555 1_555
H22_13 C26_13 1_555 1_555
C27_13 C24_13 1_555 1_555
H23_13 C27_13 1_555 1_555
H24_13 C27_13 1_555 1_555
Zn8_5 N3_13 1_555 1_555
N3_13 C26_13 1_555 1_555
N3_13 C27_13 1_555 1_555
C22_14 N5_6 1_555 1_555
H13_14 C22_14 1_555 1_555
H14_14 C22_14 1_555 1_555
C23_14 N5_6 1_555 1_555
H15_14 C23_14 1_555 1_555
H16_14 C23_14 1_555 1_555
C24_14 N5_6 1_555 1_555
H17_14 C24_14 1_555 1_555
H18_14 C24_14 1_555 1_555
N3_14 C25_14 1_555 1_555
C25_14 C23_14 1_555 1_555
H19_14 C25_14 1_555 1_555
H20_14 C25_14 1_555 1_555
C26_14 C22_14 1_555 1_555
H21_14 C26_14 1_555 1_555
H22_14 C26_14 1_555 1_555
C27_14 C24_14 1_555 1_555
H23_14 C27_14 1_555 1_555
H24_14 C27_14 1_555 1_555
Zn8_4 N3_14 1_555 1_555
N3_14 C26_14 1_555 1_555
N3_14 C27_14 1_555 1_555
C22_15 N5_5 1_555 1_555
H13_15 C22_15 1_555 1_555
H14_15 C22_15 1_555 1_555
C23_15 N5_5 1_555 1_555
H15_15 C23_15 1_555 1_555
H16_15 C23_15 1_555 1_555
C24_15 N5_5 1_555 1_555
H17_15 C24_15 1_555 1_555
H18_15 C24_15 1_555 1_555
N3_15 C25_15 1_555 1_555
C25_15 C23_15 1_555 1_555
H19_15 C25_15 1_555 1_555
H20_15 C25_15 1_555 1_555
C26_15 C22_15 1_555 1_555
H21_15 C26_15 1_555 1_555
H22_15 C26_15 1_555 1_555
C27_15 C24_15 1_555 1_555
H23_15 C27_15 1_555 1_555
H24_15 C27_15 1_555 1_555
Zn8_6 N3_15 1_555 1_555
N3_15 C26_15 1_555 1_555
N3_15 C27_15 1_555 1_555
O14_8 C5_13 1_555 1_555
O19_5 C5_13 1_555 1_555
C5_13 C15_13 1_555 1_555
C7_13 H2_13 1_555 1_555
C8_13 H3_13 1_555 1_555
C10_13 C7_13 1_555 1_555
H5_13 C10_13 1_555 1_555
C15_13 C7_13 1_555 1_555
C18_13 C8_13 1_555 1_555
C8_13 C15_13 1_555 1_555
O15_16 C19_13 1_555 1_555
O16_13 C6_13 1_555 1_555
O4_13 C19_13 1_555 1_555
C1_13 C6_13 1_555 1_555
C2_13 C4_13 1_555 1_555
C3_13 C12_13 1_555 1_555
O17_7 C6_13 1_555 1_555
C4_13 H1_13 1_555 1_555
N1_13 C2_13 1_555 1_555
C9_13 H4_13 1_555 1_555
C11_13 C1_13 1_555 1_555
H6_13 C11_13 1_555 1_555
C12_13 C4_13 1_555 1_555
H7_13 C12_13 1_555 1_555
C13_13 N1_13 1_555 1_555
C14_13 C1_13 1_555 1_555
H8_13 C14_13 1_555 1_555
C16_13 N1_13 1_555 1_555
C17_13 C3_13 1_555 1_555
H9_13 C17_13 1_555 1_555
C19_13 C3_13 1_555 1_555
C20_13 C2_13 1_555 1_555
H11_13 C20_13 1_555 1_555
C21_13 C11_13 1_555 1_555
H12_13 C21_13 1_555 1_555
Zn11_2 O4_13 1_555 1_555
N2_10 Zn11_2 1_555 1_555
C22_16 N2_10 1_555 1_555
H13_16 C22_16 1_555 1_555
H14_16 C22_16 1_555 1_555
C23_16 N2_10 1_555 1_555
H15_16 C23_16 1_555 1_555
H16_16 C23_16 1_555 1_555
C24_16 N2_10 1_555 1_555
H17_16 C24_16 1_555 1_555
H18_16 C24_16 1_555 1_555
O14_5 C32_13 1_555 1_555
O16_16 C33_13 1_555 1_555
O10_13 C46_13 1_555 1_555
C28_13 C33_13 1_555 1_555
C29_13 C31_13 1_555 1_555
C30_13 C39_13 1_555 1_555
O18_7 C33_13 1_555 1_555
C31_13 H25_13 1_555 1_555
C32_13 C42_13 1_555 1_555
N4_13 C29_13 1_555 1_555
C34_13 H26_13 1_555 1_555
C35_13 H27_13 1_555 1_555
C36_13 H28_13 1_555 1_555
C37_13 C34_13 1_555 1_555
H29_13 C37_13 1_555 1_555
C38_13 C28_13 1_555 1_555
H30_13 C38_13 1_555 1_555
C39_13 C31_13 1_555 1_555
H31_13 C39_13 1_555 1_555
C40_13 N4_13 1_555 1_555
C41_13 C28_13 1_555 1_555
H32_13 C41_13 1_555 1_555
C42_13 C34_13 1_555 1_555
C43_13 N4_13 1_555 1_555
C44_13 C30_13 1_555 1_555
H33_13 C44_13 1_555 1_555
C45_13 C35_13 1_555 1_555
H34_13 C45_13 1_555 1_555
C46_13 O15_13 1_555 1_555
C47_13 C29_13 1_555 1_555
H35_13 C47_13 1_555 1_555
C48_13 C38_13 1_555 1_555
H36_13 C48_13 1_555 1_555
Zn10_6 O10_13 1_555 1_555
C9_13 C13_13 1_555 1_555
C9_13 C14_13 1_555 1_555
C13_13 C21_13 1_555 1_555
C17_13 C20_13 1_555 1_555
C30_13 C46_13 1_555 1_555
C35_13 C42_13 1_555 1_555
C36_13 C40_13 1_555 1_555
C36_13 C41_13 1_555 1_555
C37_13 C43_13 1_555 1_555
C40_13 C48_13 1_555 1_555
C43_13 C45_13 1_555 1_555
C44_13 C47_13 1_555 1_555
N3_16 C25_16 1_555 1_555
H19_16 C25_16 1_555 1_555
H20_16 C25_16 1_555 1_555
H21_16 C26_16 1_555 1_555
H22_16 C26_16 1_555 1_555
H23_16 C27_16 1_555 1_555
H24_16 C27_16 1_555 1_555
Zn10_2 N3_16 1_555 1_555
N3_16 C26_16 1_555 1_555
N3_16 C27_16 1_555 1_555
N3_17 C25_17 1_555 1_555
H19_17 C25_17 1_555 1_555
H20_17 C25_17 1_555 1_555
H21_17 C26_17 1_555 1_555
H22_17 C26_17 1_555 1_555
H23_17 C27_17 1_555 1_555
H24_17 C27_17 1_555 1_555
Zn10_3 N3_17 1_555 1_555
N3_17 C26_17 1_555 1_555
N3_17 C27_17 1_555 1_555
O14_9 C5_14 1_555 1_555
O15_18 C19_14 1_555 1_555
O16_14 C6_14 1_555 1_555
O4_14 C19_14 1_555 1_555
C1_14 C6_14 1_555 1_555
C2_14 C4_14 1_555 1_555
C3_14 C12_14 1_555 1_555
O17_8 C6_14 1_555 1_555
C4_14 H1_14 1_555 1_555
O19_6 C5_14 1_555 1_555
C5_14 C15_14 1_555 1_555
N1_14 C2_14 1_555 1_555
C7_14 H2_14 1_555 1_555
C8_14 H3_14 1_555 1_555
C9_14 H4_14 1_555 1_555
C10_14 C7_14 1_555 1_555
H5_14 C10_14 1_555 1_555
C11_14 C1_14 1_555 1_555
H6_14 C11_14 1_555 1_555
C12_14 C4_14 1_555 1_555
H7_14 C12_14 1_555 1_555
C13_14 N1_14 1_555 1_555
C14_14 C1_14 1_555 1_555
H8_14 C14_14 1_555 1_555
C15_14 C7_14 1_555 1_555
C16_14 N1_14 1_555 1_555
C17_14 C3_14 1_555 1_555
H9_14 C17_14 1_555 1_555
C18_14 C8_14 1_555 1_555
H10_14 C18_14 1_555 1_555
C19_14 C3_14 1_555 1_555
C20_14 C2_14 1_555 1_555
H11_14 C20_14 1_555 1_555
C21_14 C11_14 1_555 1_555
H12_14 C21_14 1_555 1_555
Zn11_3 O4_14 1_555 1_555
N2_11 Zn11_3 1_555 1_555
C22_17 N2_11 1_555 1_555
H13_17 C22_17 1_555 1_555
H14_17 C22_17 1_555 1_555
C23_17 N2_11 1_555 1_555
H15_17 C23_17 1_555 1_555
H16_17 C23_17 1_555 1_555
C24_17 N2_11 1_555 1_555
H17_17 C24_17 1_555 1_555
H18_17 C24_17 1_555 1_555
O14_4 C32_14 1_555 1_555
O16_18 C33_14 1_555 1_555
O10_14 C46_14 1_555 1_555
C28_14 C33_14 1_555 1_555
C29_14 C31_14 1_555 1_555
C30_14 C39_14 1_555 1_555
O18_8 C33_14 1_555 1_555
C31_14 H25_14 1_555 1_555
O20 C32_14 1_555 1_555
C32_14 C42_14 1_555 1_555
N4_14 C29_14 1_555 1_555
C34_14 H26_14 1_555 1_555
C35_14 H27_14 1_555 1_555
C36_14 H28_14 1_555 1_555
C37_14 C34_14 1_555 1_555
H29_14 C37_14 1_555 1_555
C38_14 C28_14 1_555 1_555
H30_14 C38_14 1_555 1_555
C39_14 C31_14 1_555 1_555
H31_14 C39_14 1_555 1_555
C40_14 N4_14 1_555 1_555
C41_14 C28_14 1_555 1_555
H32_14 C41_14 1_555 1_555
C42_14 C34_14 1_555 1_555
C43_14 N4_14 1_555 1_555
C44_14 C30_14 1_555 1_555
H33_14 C44_14 1_555 1_555
C45_14 C35_14 1_555 1_555
H34_14 C45_14 1_555 1_555
C46_14 O15_14 1_555 1_555
C47_14 C29_14 1_555 1_555
H35_14 C47_14 1_555 1_555
C48_14 C38_14 1_555 1_555
H36_14 C48_14 1_555 1_555
Zn10_4 O10_14 1_555 1_555
C8_14 C15_14 1_555 1_555
C9_14 C13_14 1_555 1_555
C9_14 C14_14 1_555 1_555
C10_14 C16_14 1_555 1_555
C13_14 C21_14 1_555 1_555
C16_14 C18_14 1_555 1_555
C17_14 C20_14 1_555 1_555
C30_14 C46_14 1_555 1_555
C35_14 C42_14 1_555 1_555
C36_14 C40_14 1_555 1_555
C36_14 C41_14 1_555 1_555
C37_14 C43_14 1_555 1_555
C40_14 C48_14 1_555 1_555
C43_14 C45_14 1_555 1_555
C44_14 C47_14 1_555 1_555
O15_17 C19_15 1_555 1_555
O16_15 C6_15 1_555 1_555
O4_15 C19_15 1_555 1_555
C1_15 C6_15 1_555 1_555
C2_15 C4_15 1_555 1_555
C3_15 C12_15 1_555 1_555
O17_9 C6_15 1_555 1_555
C4_15 H1_15 1_555 1_555
N1_15 C2_15 1_555 1_555
C9_15 H4_15 1_555 1_555
C11_15 C1_15 1_555 1_555
H6_15 C11_15 1_555 1_555
C12_15 C4_15 1_555 1_555
H7_15 C12_15 1_555 1_555
C13_15 N1_15 1_555 1_555
C14_15 C1_15 1_555 1_555
H8_15 C14_15 1_555 1_555
C16_15 N1_15 1_555 1_555
C17_15 C3_15 1_555 1_555
H9_15 C17_15 1_555 1_555
C19_15 C3_15 1_555 1_555
C20_15 C2_15 1_555 1_555
H11_15 C20_15 1_555 1_555
C21_15 C11_15 1_555 1_555
H12_15 C21_15 1_555 1_555
Zn11 O4_15 1_555 1_555
N2_12 Zn11 1_555 1_555
C22_18 N2_12 1_555 1_555
H13_18 C22_18 1_555 1_555
H14_18 C22_18 1_555 1_555
C23_18 N2_12 1_555 1_555
H15_18 C23_18 1_555 1_555
H16_18 C23_18 1_555 1_555
C24_18 N2_12 1_555 1_555
H17_18 C24_18 1_555 1_555
H18_18 C24_18 1_555 1_555
N3_18 C25_18 1_555 1_555
C25_18 C23_18 1_555 1_555
H19_18 C25_18 1_555 1_555
H20_18 C25_18 1_555 1_555
C26_18 C22_18 1_555 1_555
H21_18 C26_18 1_555 1_555
H22_18 C26_18 1_555 1_555
C27_18 C24_18 1_555 1_555
H23_18 C27_18 1_555 1_555
H24_18 C27_18 1_555 1_555
O14_6 C32_15 1_555 1_555
O16_17 C33_15 1_555 1_555
O10_15 C46_15 1_555 1_555
C28_15 C33_15 1_555 1_555
C29_15 C31_15 1_555 1_555
C30_15 C39_15 1_555 1_555
O18_9 C33_15 1_555 1_555
C31_15 H25_15 1_555 1_555
C32_15 C42_15 1_555 1_555
N4_15 C29_15 1_555 1_555
C34_15 H26_15 1_555 1_555
C35_15 H27_15 1_555 1_555
C36_15 H28_15 1_555 1_555
C37_15 C34_15 1_555 1_555
H29_15 C37_15 1_555 1_555
C38_15 C28_15 1_555 1_555
H30_15 C38_15 1_555 1_555
C39_15 C31_15 1_555 1_555
H31_15 C39_15 1_555 1_555
C40_15 N4_15 1_555 1_555
C41_15 C28_15 1_555 1_555
H32_15 C41_15 1_555 1_555
C42_15 C34_15 1_555 1_555
C43_15 N4_15 1_555 1_555
C44_15 C30_15 1_555 1_555
H33_15 C44_15 1_555 1_555
C45_15 C35_15 1_555 1_555
H34_15 C45_15 1_555 1_555
C46_15 O15_15 1_555 1_555
C47_15 C29_15 1_555 1_555
H35_15 C47_15 1_555 1_555
C48_15 C38_15 1_555 1_555
H36_15 C48_15 1_555 1_555
Zn10_5 O10_15 1_555 1_555
Zn10 N3_18 1_555 1_555
C9_15 C13_15 1_555 1_555
C9_15 C14_15 1_555 1_555
C13_15 C21_15 1_555 1_555
C17_15 C20_15 1_555 1_555
N3_18 C26_18 1_555 1_555
N3_18 C27_18 1_555 1_555
C30_15 C46_15 1_555 1_555
C35_15 C42_15 1_555 1_555
C36_15 C40_15 1_555 1_555
C36_15 C41_15 1_555 1_555
C37_15 C43_15 1_555 1_555
C40_15 C48_15 1_555 1_555
C43_15 C45_15 1_555 1_555
C44_15 C47_15 1_555 1_555
O14_7 C5_15 1_555 1_555
O19_4 C5_15 1_555 1_555
C5_15 C15_15 1_555 1_555
C7_15 H2_15 1_555 1_555
C8_15 H3_15 1_555 1_555
C10_15 C7_15 1_555 1_555
H5_15 C10_15 1_555 1_555
C15_15 C7_15 1_555 1_555
C18_15 C8_15 1_555 1_555
C8_15 C15_15 1_555 1_555
O14_17 C32_16 1_555 1_555
O20_9 C32_16 1_555 1_555
C32_16 C42_16 1_555 1_555
C34_16 H26_16 1_555 1_555
C35_16 H27_16 1_555 1_555
C37_16 C34_16 1_555 1_555
H29_16 C37_16 1_555 1_555
C42_16 C34_16 1_555 1_555
C45_16 C35_16 1_555 1_555
C35_16 C42_16 1_555 1_555
O14_2 C5_16 1_555 1_555
O16_7 C6_16 1_555 1_555
C1_16 C6_16 1_555 1_555
O17_4 C6_16 1_555 1_555
C5_16 C15_16 1_555 1_555
N1_16 C2_16 1_555 1_555
C7_16 H2_16 1_555 1_555
C8_16 H3_16 1_555 1_555
C9_16 H4_16 1_555 1_555
C10_16 C7_16 1_555 1_555
H5_16 C10_16 1_555 1_555
C11_16 C1_16 1_555 1_555
H6_16 C11_16 1_555 1_555
C13_16 N1_16 1_555 1_555
C14_16 C1_16 1_555 1_555
H8_16 C14_16 1_555 1_555
C15_16 C7_16 1_555 1_555
C16_16 N1_16 1_555 1_555
H9_16 C17_16 1_555 1_555
C18_16 C8_16 1_555 1_555
H10_16 C18_16 1_555 1_555
C20_16 C2_16 1_555 1_555
H11_16 C20_16 1_555 1_555
C21_16 C11_16 1_555 1_555
H12_16 C21_16 1_555 1_555
O10_16 C46_16 1_555 1_555
C29_16 C31_16 1_555 1_555
C30_16 C39_16 1_555 1_555
C31_16 H25_16 1_555 1_555
N4_16 C29_16 1_555 1_555
C36_16 H28_16 1_555 1_555
C39_16 C31_16 1_555 1_555
H31_16 C39_16 1_555 1_555
C40_16 N4_16 1_555 1_555
C43_16 N4_16 1_555 1_555
C44_16 C30_16 1_555 1_555
H33_16 C44_16 1_555 1_555
C46_16 O15_7 1_555 1_555
C47_16 C29_16 1_555 1_555
H35_16 C47_16 1_555 1_555
H36_16 C48_16 1_555 1_555
Zn10_3 O10_16 1_555 1_555
C8_16 C15_16 1_555 1_555
C9_16 C13_16 1_555 1_555
C9_16 C14_16 1_555 1_555
C10_16 C16_16 1_555 1_555
C13_16 C21_16 1_555 1_555
C16_16 C18_16 1_555 1_555
C17_16 C20_16 1_555 1_555
C30_16 C46_16 1_555 1_555
C36_16 C40_16 1_555 1_555
C40_16 C48_16 1_555 1_555
C44_16 C47_16 1_555 1_555
O15_10 C19_16 1_555 1_555
O4_16 C19_16 1_555 1_555
C3_16 C12_16 1_555 1_555
C4_16 H1_16 1_555 1_555
C12_16 C4_16 1_555 1_555
H7_16 C12_16 1_555 1_555
C19_16 C3_16 1_555 1_555
Zn8_4 O4_16 1_555 1_555
O16_10 C33_16 1_555 1_555
C28_16 C33_16 1_555 1_555
O18_4 C33_16 1_555 1_555
C38_16 C28_16 1_555 1_555
H30_16 C38_16 1_555 1_555
C41_16 C28_16 1_555 1_555
H32_16 C41_16 1_555 1_555
O14_3 C5_17 1_555 1_555
O16_8 C6_17 1_555 1_555
C1_17 C6_17 1_555 1_555
O17_5 C6_17 1_555 1_555
C5_17 C15_17 1_555 1_555
N1_17 C2_17 1_555 1_555
C7_17 H2_17 1_555 1_555
C8_17 H3_17 1_555 1_555
C9_17 H4_17 1_555 1_555
C10_17 C7_17 1_555 1_555
H5_17 C10_17 1_555 1_555
C11_17 C1_17 1_555 1_555
H6_17 C11_17 1_555 1_555
C13_17 N1_17 1_555 1_555
C14_17 C1_17 1_555 1_555
H8_17 C14_17 1_555 1_555
C15_17 C7_17 1_555 1_555
C16_17 N1_17 1_555 1_555
H9_17 C17_17 1_555 1_555
C18_17 C8_17 1_555 1_555
H10_17 C18_17 1_555 1_555
C20_17 C2_17 1_555 1_555
H11_17 C20_17 1_555 1_555
C21_17 C11_17 1_555 1_555
H12_17 C21_17 1_555 1_555
O10_17 C46_17 1_555 1_555
C29_17 C31_17 1_555 1_555
C30_17 C39_17 1_555 1_555
C31_17 H25_17 1_555 1_555
N4_17 C29_17 1_555 1_555
C36_17 H28_17 1_555 1_555
C39_17 C31_17 1_555 1_555
H31_17 C39_17 1_555 1_555
C40_17 N4_17 1_555 1_555
C43_17 N4_17 1_555 1_555
C44_17 C30_17 1_555 1_555
H33_17 C44_17 1_555 1_555
C46_17 O15_8 1_555 1_555
C47_17 C29_17 1_555 1_555
H35_17 C47_17 1_555 1_555
H36_17 C48_17 1_555 1_555
Zn10 O10_17 1_555 1_555
C8_17 C15_17 1_555 1_555
C9_17 C13_17 1_555 1_555
C9_17 C14_17 1_555 1_555
C10_17 C16_17 1_555 1_555
C13_17 C21_17 1_555 1_555
C16_17 C18_17 1_555 1_555
C17_17 C20_17 1_555 1_555
C30_17 C46_17 1_555 1_555
C36_17 C40_17 1_555 1_555
C40_17 C48_17 1_555 1_555
C44_17 C47_17 1_555 1_555
O15_12 C19_17 1_555 1_555
O4_17 C19_17 1_555 1_555
C3_17 C12_17 1_555 1_555
C4_17 H1_17 1_555 1_555
C12_17 C4_17 1_555 1_555
H7_17 C12_17 1_555 1_555
C19_17 C3_17 1_555 1_555
Zn8_5 O4_17 1_555 1_555
O16_12 C33_17 1_555 1_555
C28_17 C33_17 1_555 1_555
O18_5 C33_17 1_555 1_555
C38_17 C28_17 1_555 1_555
H30_17 C38_17 1_555 1_555
C41_17 C28_17 1_555 1_555
H32_17 C41_17 1_555 1_555
O14_16 C32_17 1_555 1_555
O20_7 C32_17 1_555 1_555
C32_17 C42_17 1_555 1_555
C34_17 H26_17 1_555 1_555
C35_17 H27_17 1_555 1_555
C37_17 C34_17 1_555 1_555
H29_17 C37_17 1_555 1_555
C42_17 C34_17 1_555 1_555
C45_17 C35_17 1_555 1_555
C35_17 C42_17 1_555 1_555
O14 C5_18 1_555 1_555
O16_9 C6_18 1_555 1_555
C1_18 C6_18 1_555 1_555
O17_6 C6_18 1_555 1_555
O19 C5_18 1_555 1_555
C5_18 C15_18 1_555 1_555
N1_18 C2_18 1_555 1_555
C7_18 H2_18 1_555 1_555
C8_18 H3_18 1_555 1_555
C9_18 H4_18 1_555 1_555
C10_18 C7_18 1_555 1_555
H5_18 C10_18 1_555 1_555
C11_18 C1_18 1_555 1_555
H6_18 C11_18 1_555 1_555
C13_18 N1_18 1_555 1_555
C14_18 C1_18 1_555 1_555
H8_18 C14_18 1_555 1_555
C15_18 C7_18 1_555 1_555
C16_18 N1_18 1_555 1_555
H9_18 C17_18 1_555 1_555
C18_18 C8_18 1_555 1_555
H10_18 C18_18 1_555 1_555
C20_18 C2_18 1_555 1_555
H11_18 C20_18 1_555 1_555
C21_18 C11_18 1_555 1_555
H12_18 C21_18 1_555 1_555
O14_18 C32_18 1_555 1_555
O10_18 C46_18 1_555 1_555
C29_18 C31_18 1_555 1_555
C30_18 C39_18 1_555 1_555
C31_18 H25_18 1_555 1_555
O20_8 C32_18 1_555 1_555
C32_18 C42_18 1_555 1_555
N4_18 C29_18 1_555 1_555
C34_18 H26_18 1_555 1_555
C35_18 H27_18 1_555 1_555
C36_18 H28_18 1_555 1_555
C37_18 C34_18 1_555 1_555
H29_18 C37_18 1_555 1_555
C39_18 C31_18 1_555 1_555
H31_18 C39_18 1_555 1_555
C40_18 N4_18 1_555 1_555
C42_18 C34_18 1_555 1_555
C43_18 N4_18 1_555 1_555
C44_18 C30_18 1_555 1_555
H33_18 C44_18 1_555 1_555
C45_18 C35_18 1_555 1_555
H34_18 C45_18 1_555 1_555
C46_18 O15_9 1_555 1_555
C47_18 C29_18 1_555 1_555
H35_18 C47_18 1_555 1_555
H36_18 C48_18 1_555 1_555
Zn10_2 O10_18 1_555 1_555
C8_18 C15_18 1_555 1_555
C9_18 C13_18 1_555 1_555
C9_18 C14_18 1_555 1_555
C10_18 C16_18 1_555 1_555
C13_18 C21_18 1_555 1_555
C16_18 C18_18 1_555 1_555
C17_18 C20_18 1_555 1_555
C30_18 C46_18 1_555 1_555
C35_18 C42_18 1_555 1_555
C36_18 C40_18 1_555 1_555
C37_18 C43_18 1_555 1_555
C40_18 C48_18 1_555 1_555
C43_18 C45_18 1_555 1_555
C44_18 C47_18 1_555 1_555
O15_11 C19_18 1_555 1_555
O4_18 C19_18 1_555 1_555
C3_18 C12_18 1_555 1_555
C4_18 H1_18 1_555 1_555
C12_18 C4_18 1_555 1_555
H7_18 C12_18 1_555 1_555
C19_18 C3_18 1_555 1_555
Zn8_6 O4_18 1_555 1_555
O16_11 C33_18 1_555 1_555
C28_18 C33_18 1_555 1_555
O18_6 C33_18 1_555 1_555
C38_18 C28_18 1_555 1_555
H30_18 C38_18 1_555 1_555
C41_18 C28_18 1_555 1_555
H32_18 C41_18 1_555 1_555

#END
