
###############################################################################
#
# This file contains modified crystal structure data generated from the
# MOF subset of the Cambridge Structural Database (CSD) v543 
# hosted by the Cambridge Crystallographic Data Centre (CCDC).
#
# This work is licensed under the Creative Commons
# Attribution-NonCommercial-ShareAlike 4.0 International License.
# To view a copy of this license, visit
# http://creativecommons.org/licenses/by-nc-sa/4.0/
# or send a letter to
# Creative Commons, PO Box 1866, Mountain View, CA 94042, USA.
#
# CIF created using the CSD Python API on 29 September 2022
# The structure has been converted into the P1 space group
# The structure has a 3D framework
# The original CSD entry KAGCAY is in the cubic crystal system
# The framework has been calculated to contain at least 10.0% void space
# The void calculation uses a probe of radius 1.32A, grid spacing 0.4
# H atom positions have been added when not included in the experimental data
#
###############################################################################

data_KAGCAY
_chemical_formula_moiety         '(C432 H960 Cu120 N384 O254 176+)n'
_symmetry_cell_setting           triclinic
_symmetry_space_group_name_H-M   'P 1'
_symmetry_Int_Tables_number      1
_space_group_name_Hall           'P 1'
loop_
_symmetry_equiv_pos_site_id
_symmetry_equiv_pos_as_xyz
1 x,y,z
_cell_length_a                   30.1955(9)
_cell_length_b                   30.1955(9)
_cell_length_c                   30.1955(9)
_cell_angle_alpha                90
_cell_angle_beta                 90
_cell_angle_gamma                90
_cell_volume                     27531.3
loop_
_atom_site_label
_atom_site_type_symbol
_atom_site_fract_x
_atom_site_fract_y
_atom_site_fract_z
Cu1 Cu 0.205063(17) 0.0000 0.455063(17)
O1 O 0.2500 -0.0000 0.5000
Cu3 Cu 0.294937(17) 0.044937(17) 0.5000
Cu5 Cu 0.2500 0.205063(17) 0.294937(17)
Cu6 Cu 0.0000 0.044937(17) 0.294937(17)
N3 N 0.2330(3) 0.0517(2) 0.4292(3)
N4 N 0.2670(3) 0.0708(3) 0.4483(2)
N5 N 0.0517(2) 0.0170(3) 0.3208(3)
N8 N 0.3208(3) 0.0170(3) 0.5517(2)
C5 C 0.2221(3) 0.0759(4) 0.3939(5)
C6 C 0.2779(3) 0.1061(5) 0.4241(4)
C7 C 0.0759(4) 0.0279(3) 0.3561(5)
H3 H 0.1986 0.0699 0.3749
H4 H 0.3014 0.1251 0.4301
H5 H 0.0699 0.0514 0.3751
C9 C 0.2500(2) 0.1102 0.3898(2)
C10 C 0.1102 0.0000(2) 0.3602(2)
C11 C 0.2500(2) 0.1453(2) 0.3547
C12 C 0.1453(2) -0.0000(2) 0.3953
O4 O 0.2250(3) 0.1382(3) 0.3209(4)
O5 O 0.2750(3) 0.1791(4) 0.3618(3)
O6 O 0.1382(3) 0.0250(3) 0.4291(4)
O10 O 0.3209(4) 0.1118(3) 0.5250(3)
O11 O 0.3618(3) 0.0709(4) 0.4750(3)
Cu1_2 Cu 0.205063(17) 1.0000 0.455063(17)
O1_2 O 0.2500 1.0000 0.5000
N1 N 0.1792(3) 0.9483(2) 0.4830(3)
C1 C 0.1439(5) 0.9241(4) 0.4721(3)
H1 H 0.1249 0.9301 0.4486
C2 C 0.1398(2) 0.8898 0.5000(2)
C3 C 0.1047 0.8547(2) 0.5000(2)
O2 O 0.0709(4) 0.8618(3) 0.4750(3)
Cu2 Cu 0.2500 0.955063(17) 0.544937(17)
Cu4 Cu 0.044937(17) 0.794937(17) 0.5000
Cu7 Cu 0.044937(17) 0.955063(17) 0.2500
N2 N 0.1983(2) 0.9292(3) 0.5170(3)
N6 N 0.0708(3) 0.9830(3) 0.3017(2)
N7 N 0.3017(2) 0.9830(3) 0.5708(3)
C4 C 0.1741(4) 0.8939(5) 0.5279(3)
C8 C 0.1061(5) 0.9721(3) 0.3259(4)
H2 H 0.1801 0.8749 0.5514
H6 H 0.1251 0.9486 0.3199
C10_2 C 0.1102 1.0000(2) 0.3602(2)
C12_2 C 0.1453(2) 1.0000(2) 0.3953
O3 O 0.1118(3) 0.8209(4) 0.5250(3)
O7 O 0.1791(4) 0.9750(3) 0.3882(3)
O8 O 0.2750(3) 0.8882(3) 0.5709(4)
O9 O 0.2250(3) 0.9291(4) 0.6118(3)
Cu6_2 Cu 1.0000 0.044937(17) 0.294937(17)
O1_3 O 0.0000 0.7500 0.0000
C2_2 C 0.1102(2) 0.8602 0.0000(2)
C3_2 C 0.1453 0.8953(2) 0.0000(2)
Cu2_2 Cu 0.0000 0.794937(17) 0.044937(17)
Cu4_2 Cu 0.205063(17) 0.955063(17) 0.0000
N2_2 N 0.0517(2) 0.8208(3) 0.0170(3)
C4_2 C 0.0759(4) 0.8561(5) 0.0279(3)
H2_2 H 0.0699 0.8751 0.0514
O3_2 O 0.1382(3) 0.9291(4) 0.0250(3)
O9_2 O 0.0250(3) 0.8209(4) 0.1118(3)
Cu1_3 Cu 0.044937(17) 0.7500 0.955063(17)
O1_4 O 0.0000 0.7500 1.0000
N1_2 N 0.0708(3) 0.8017(2) 0.9830(3)
C1_2 C 0.1061(5) 0.8259(4) 0.9721(3)
H1_2 H 0.1251 0.8199 0.9486
C2_3 C 0.1102(2) 0.8602 1.0000(2)
C3_3 C 0.1453 0.8953(2) 1.0000(2)
O2_2 O 0.1791(4) 0.8882(3) 0.9750(3)
Cu4_3 Cu 0.205063(17) 0.955063(17) 1.0000
Cu5_2 Cu -0.0000 0.544937(17) 0.794937(17)
Cu6_3 Cu 0.2500 0.705063(17) 0.794937(17)
Cu7_2 Cu 0.205063(17) 0.794937(17) 0.7500
N3_2 N 0.0170(3) 0.6983(2) 0.9292(3)
N5_2 N 0.1983(2) 0.7330(3) 0.8208(3)
N6_2 N 0.1792(3) 0.7670(3) 0.8017(2)
C5_2 C 0.0279(3) 0.6741(4) 0.8939(5)
C7_2 C 0.1741(4) 0.7221(3) 0.8561(5)
C8_2 C 0.1439(5) 0.7779(3) 0.8259(4)
H3_2 H 0.0514 0.6801 0.8749
H5_2 H 0.1801 0.6986 0.8751
H6_2 H 0.1249 0.8014 0.8199
C9_2 C 0.0000(2) 0.6398 0.8898(2)
C10_3 C 0.1398 0.7500(2) 0.8602(2)
C11_2 C 0.0000(2) 0.6047(2) 0.8547
C12_3 C 0.1047(2) 0.7500(2) 0.8953
O4_2 O 0.0250(3) 0.6118(3) 0.8209(4)
O6_2 O 0.1118(3) 0.7250(3) 0.9291(4)
O7_2 O 0.0709(4) 0.7750(3) 0.8882(3)
O1_5 O 1.0000 0.7500 0.0000
Cu2_3 Cu 1.0000 0.794937(17) 0.044937(17)
Cu3_2 Cu 0.955063(17) 0.705063(17) 0.0000
N7_2 N 0.9483(2) 0.7670(3) 0.0708(3)
N8_2 N 0.9292(3) 0.7330(3) 0.0517(2)
O8_2 O 0.9750(3) 0.8618(3) 0.0709(4)
O10_2 O 0.9291(4) 0.6382(3) 0.0250(3)
O1_6 O 1.0000 0.7500 1.0000
Cu3_3 Cu 0.955063(17) 0.705063(17) 1.0000
Cu5_3 Cu 1.0000 0.544937(17) 0.794937(17)
N4_2 N 0.9830(3) 0.6792(3) 0.9483(2)
C6_2 C 0.9721(3) 0.6439(5) 0.9241(4)
H4_2 H 0.9486 0.6249 0.9301
C9_3 C 1.0000(2) 0.6398 0.8898(2)
C11_3 C 1.0000(2) 0.6047(2) 0.8547
O5_2 O 0.9750(3) 0.5709(4) 0.8618(3)
O11_2 O 0.8882(3) 0.6791(4) 0.9750(3)
Cu7_3 Cu 0.705063(17) 0.455063(17) 0.0000
Cu1_4 Cu 0.544937(17) 0.5000 0.794937(17)
O1_7 O 0.5000 0.5000 0.7500
N1_3 N 0.5708(3) 0.4483(2) 0.7670(3)
C1_3 C 0.6061(5) 0.4241(4) 0.7779(3)
H1_3 H 0.6251 0.4301 0.8014
C2_4 C 0.6102(2) 0.3898 0.7500(2)
C3_4 C 0.6453 0.3547(2) 0.7500(2)
O2_3 O 0.6791(4) 0.3618(3) 0.7750(3)
Cu2_4 Cu 0.5000 0.455063(17) 0.705063(17)
Cu3_4 Cu 0.455063(17) 0.544937(17) 0.7500
Cu4_4 Cu 0.705063(17) 0.294937(17) 0.7500
Cu5_4 Cu 0.5000 0.705063(17) 0.955063(17)
Cu6_4 Cu 0.7500 0.544937(17) 0.955063(17)
Cu7_4 Cu 0.705063(17) 0.455063(17) 1.0000
N2_3 N 0.5517(2) 0.4292(3) 0.7330(3)
N3_3 N 0.5170(3) 0.5517(2) 0.8208(3)
N4_3 N 0.4830(3) 0.5708(3) 0.8017(2)
N5_3 N 0.6983(2) 0.5170(3) 0.9292(3)
N6_3 N 0.6792(3) 0.4830(3) 0.9483(2)
N7_3 N 0.4483(2) 0.4830(3) 0.6792(3)
N8_3 N 0.4292(3) 0.5170(3) 0.6983(2)
C4_3 C 0.5759(4) 0.3939(5) 0.7221(3)
C5_3 C 0.5279(3) 0.5759(4) 0.8561(5)
C6_3 C 0.4721(3) 0.6061(5) 0.8259(4)
C7_3 C 0.6741(4) 0.5279(3) 0.8939(5)
C8_3 C 0.6439(5) 0.4721(3) 0.9241(4)
H2_3 H 0.5699 0.3749 0.6986
H3_3 H 0.5514 0.5699 0.8751
H4_3 H 0.4486 0.6251 0.8199
H5_3 H 0.6801 0.5514 0.8749
H6_3 H 0.6249 0.4486 0.9301
C9_4 C 0.5000(2) 0.6102 0.8602(2)
C10_4 C 0.6398 0.5000(2) 0.8898(2)
C11_4 C 0.5000(2) 0.6453(2) 0.8953
C12_4 C 0.6047(2) 0.5000(2) 0.8547
O3_3 O 0.6382(3) 0.3209(4) 0.7250(3)
O4_3 O 0.5250(3) 0.6382(3) 0.9291(4)
O5_3 O 0.4750(3) 0.6791(4) 0.8882(3)
O6_3 O 0.6118(3) 0.5250(3) 0.8209(4)
O7_3 O 0.5709(4) 0.4750(3) 0.8618(3)
O8_3 O 0.4750(3) 0.3882(3) 0.6791(4)
O9_3 O 0.5250(3) 0.4291(4) 0.6382(3)
O10_3 O 0.4291(4) 0.6118(3) 0.7250(3)
O11_3 O 0.3882(3) 0.5709(4) 0.7750(3)
Cu1_5 Cu 0.705063(17) 0.2500 0.294937(17)
O1_8 O 0.7500 0.2500 0.2500
N1_4 N 0.6792(3) 0.3017(2) 0.2670(3)
C1_4 C 0.6439(5) 0.3259(4) 0.2779(3)
H1_4 H 0.6249 0.3199 0.3014
C2_5 C 0.6398(2) 0.3602 0.2500(2)
C3_5 C 0.6047 0.3953(2) 0.2500(2)
O2_4 O 0.5709(4) 0.3882(3) 0.2750(3)
Cu2_5 Cu 0.7500 0.294937(17) 0.205063(17)
Cu3_5 Cu 0.794937(17) 0.205063(17) 0.2500
Cu4_5 Cu 0.544937(17) 0.455063(17) 0.2500
Cu5_5 Cu 0.7500 0.044937(17) 0.455063(17)
Cu6_5 Cu 0.5000 0.205063(17) 0.455063(17)
Cu7_5 Cu 0.544937(17) 0.294937(17) 0.5000
N2_4 N 0.6983(2) 0.3208(3) 0.2330(3)
N3_4 N 0.7330(3) 0.1983(2) 0.3208(3)
N4_4 N 0.7670(3) 0.1792(3) 0.3017(2)
N5_4 N 0.5517(2) 0.2330(3) 0.4292(3)
N6_4 N 0.5708(3) 0.2670(3) 0.4483(2)
N7_4 N 0.8017(2) 0.2670(3) 0.1792(3)
N8_4 N 0.8208(3) 0.2330(3) 0.1983(2)
C4_4 C 0.6741(4) 0.3561(5) 0.2221(3)
C5_4 C 0.7221(3) 0.1741(4) 0.3561(5)
C6_4 C 0.7779(3) 0.1439(5) 0.3259(4)
C7_4 C 0.5759(4) 0.2221(3) 0.3939(5)
C8_4 C 0.6061(5) 0.2779(3) 0.4241(4)
H2_4 H 0.6801 0.3751 0.1986
H3_4 H 0.6986 0.1801 0.3751
H4_4 H 0.8014 0.1249 0.3199
H5_4 H 0.5699 0.1986 0.3749
H6_4 H 0.6251 0.3014 0.4301
C9_5 C 0.7500(2) 0.1398 0.3602(2)
C10_5 C 0.6102 0.2500(2) 0.3898(2)
C11_5 C 0.7500(2) 0.1047(2) 0.3953
C12_5 C 0.6453(2) 0.2500(2) 0.3547
O3_4 O 0.6118(3) 0.4291(4) 0.2250(3)
O4_4 O 0.7250(3) 0.1118(3) 0.4291(4)
O5_4 O 0.7750(3) 0.0709(4) 0.3882(3)
O6_4 O 0.6382(3) 0.2250(3) 0.3209(4)
O7_4 O 0.6791(4) 0.2750(3) 0.3618(3)
O8_4 O 0.7750(3) 0.3618(3) 0.1791(4)
O9_4 O 0.7250(3) 0.3209(4) 0.1382(3)
O10_4 O 0.8209(4) 0.1382(3) 0.2250(3)
O11_4 O 0.8618(3) 0.1791(4) 0.2750(3)
Cu1_6 Cu 0.455063(17) 0.205063(17) 0.0000
O1_9 O 0.5000 0.2500 0.0000
Cu3_6 Cu 0.5000 0.294937(17) 0.044937(17)
Cu5_6 Cu 0.294937(17) 0.2500 0.205063(17)
Cu6_6 Cu 0.294937(17) 0.0000 0.044937(17)
N3_5 N 0.4292(3) 0.2330(3) 0.0517(2)
N4_5 N 0.4483(2) 0.2670(3) 0.0708(3)
N5_5 N 0.3208(3) 0.0517(2) 0.0170(3)
N8_5 N 0.5517(2) 0.3208(3) 0.0170(3)
C5_5 C 0.3939(5) 0.2221(3) 0.0759(4)
C6_5 C 0.4241(4) 0.2779(3) 0.1061(5)
C7_5 C 0.3561(5) 0.0759(4) 0.0279(3)
H3_5 H 0.3749 0.1986 0.0699
H4_5 H 0.4301 0.3014 0.1251
H5_5 H 0.3751 0.0699 0.0514
C9_6 C 0.3898(2) 0.2500(2) 0.1102
C10_6 C 0.3602(2) 0.1102 0.0000(2)
C11_6 C 0.3547 0.2500(2) 0.1453(2)
C12_6 C 0.3953 0.1453(2) 0.0000(2)
O4_5 O 0.3209(4) 0.2250(3) 0.1382(3)
O5_5 O 0.3618(3) 0.2750(3) 0.1791(4)
O6_5 O 0.4291(4) 0.1382(3) 0.0250(3)
O10_5 O 0.5250(3) 0.3209(4) 0.1118(3)
O11_5 O 0.4750(3) 0.3618(3) 0.0709(4)
Cu1_7 Cu 0.455063(17) 0.205063(17) 1.0000
O1_10 O 0.5000 0.2500 1.0000
N1_5 N 0.4830(3) 0.1792(3) 0.9483(2)
C1_5 C 0.4721(3) 0.1439(5) 0.9241(4)
H1_5 H 0.4486 0.1249 0.9301
C2_6 C 0.5000(2) 0.1398(2) 0.8898
C3_6 C 0.5000(2) 0.1047 0.8547(2)
O2_5 O 0.4750(3) 0.0709(4) 0.8618(3)
Cu2_6 Cu 0.544937(17) 0.2500 0.955063(17)
Cu4_6 Cu 0.5000 0.044937(17) 0.794937(17)
Cu7_6 Cu 0.2500 0.044937(17) 0.955063(17)
N2_5 N 0.5170(3) 0.1983(2) 0.9292(3)
N6_5 N 0.3017(2) 0.0708(3) 0.9830(3)
N7_5 N 0.5708(3) 0.3017(2) 0.9830(3)
C4_5 C 0.5279(3) 0.1741(4) 0.8939(5)
C8_5 C 0.3259(4) 0.1061(5) 0.9721(3)
H2_5 H 0.5514 0.1801 0.8749
H6_5 H 0.3199 0.1251 0.9486
C10_7 C 0.3602(2) 0.1102 1.0000(2)
C12_7 C 0.3953 0.1453(2) 1.0000(2)
O3_5 O 0.5250(3) 0.1118(3) 0.8209(4)
O7_5 O 0.3882(3) 0.1791(4) 0.9750(3)
O8_5 O 0.5709(4) 0.2750(3) 0.8882(3)
O9_5 O 0.6118(3) 0.2250(3) 0.9291(4)
Cu6_7 Cu 0.294937(17) 1.0000 0.044937(17)
O1_11 O 0.0000 0.0000 0.7500
C2_7 C 0.0000(2) 0.1102(2) 0.8602
C3_7 C -0.0000(2) 0.1453 0.8953(2)
Cu2_7 Cu 0.044937(17) 0.0000 0.794937(17)
Cu4_7 Cu 0.0000 0.205063(17) 0.955063(17)
N2_6 N 0.0170(3) 0.0517(2) 0.8208(3)
C4_6 C 0.0279(3) 0.0759(4) 0.8561(5)
H2_6 H 0.0514 0.0699 0.8751
O3_6 O 0.0250(3) 0.1382(3) 0.9291(4)
O9_6 O 0.1118(3) 0.0250(3) 0.8209(4)
O1_12 O 0.0000 1.0000 0.7500
Cu2_8 Cu 0.044937(17) 1.0000 0.794937(17)
Cu3_7 Cu 0.0000 0.955063(17) 0.705063(17)
N7_6 N 0.0708(3) 0.9483(2) 0.7670(3)
N8_6 N 0.0517(2) 0.9292(3) 0.7330(3)
O8_6 O 0.0709(4) 0.9750(3) 0.8618(3)
O10_6 O 0.0250(3) 0.9291(4) 0.6382(3)
Cu1_8 Cu 0.955063(17) 0.044937(17) 0.7500
O1_13 O 1.0000 0.0000 0.7500
N1_6 N 0.9830(3) 0.0708(3) 0.8017(2)
C1_6 C 0.9721(3) 0.1061(5) 0.8259(4)
H1_6 H 0.9486 0.1251 0.8199
C2_8 C 1.0000(2) 0.1102(2) 0.8602
C3_8 C 1.0000(2) 0.1453 0.8953(2)
O2_6 O 0.9750(3) 0.1791(4) 0.8882(3)
Cu4_8 Cu 1.0000 0.205063(17) 0.955063(17)
Cu5_7 Cu 0.794937(17) -0.0000 0.544937(17)
Cu6_8 Cu 0.794937(17) 0.2500 0.705063(17)
Cu7_7 Cu 0.7500 0.205063(17) 0.794937(17)
N3_6 N 0.9292(3) 0.0170(3) 0.6983(2)
N5_6 N 0.8208(3) 0.1983(2) 0.7330(3)
N6_6 N 0.8017(2) 0.1792(3) 0.7670(3)
C5_6 C 0.8939(5) 0.0279(3) 0.6741(4)
C7_6 C 0.8561(5) 0.1741(4) 0.7221(3)
C8_6 C 0.8259(4) 0.1439(5) 0.7779(3)
H3_6 H 0.8749 0.0514 0.6801
H5_6 H 0.8751 0.1801 0.6986
H6_6 H 0.8199 0.1249 0.8014
C9_7 C 0.8898(2) 0.0000(2) 0.6398
C10_8 C 0.8602(2) 0.1398 0.7500(2)
C11_7 C 0.8547 0.0000(2) 0.6047(2)
C12_8 C 0.8953 0.1047(2) 0.7500(2)
O4_6 O 0.8209(4) 0.0250(3) 0.6118(3)
O6_6 O 0.9291(4) 0.1118(3) 0.7250(3)
O7_6 O 0.8882(3) 0.0709(4) 0.7750(3)
O1_14 O 1.0000 1.0000 0.7500
Cu3_8 Cu 1.0000 0.955063(17) 0.705063(17)
Cu5_8 Cu 0.794937(17) 1.0000 0.544937(17)
N4_6 N 0.9483(2) 0.9830(3) 0.6792(3)
C6_6 C 0.9241(4) 0.9721(3) 0.6439(5)
H4_6 H 0.9301 0.9486 0.6249
C9_8 C 0.8898(2) 1.0000(2) 0.6398
C11_8 C 0.8547 1.0000(2) 0.6047(2)
O5_6 O 0.8618(3) 0.9750(3) 0.5709(4)
O11_6 O 0.9750(3) 0.8882(3) 0.6791(4)
Cu7_8 Cu 0.0000 0.705063(17) 0.455063(17)
Cu1_9 Cu 0.794937(17) 0.544937(17) 0.5000
O1_15 O 0.7500 0.5000 0.5000
N1_7 N 0.7670(3) 0.5708(3) 0.4483(2)
C1_7 C 0.7779(3) 0.6061(5) 0.4241(4)
H1_7 H 0.8014 0.6251 0.4301
C2_9 C 0.7500(2) 0.6102(2) 0.3898
C3_9 C 0.7500(2) 0.6453 0.3547(2)
O2_7 O 0.7750(3) 0.6791(4) 0.3618(3)
Cu2_9 Cu 0.705063(17) 0.5000 0.455063(17)
Cu3_9 Cu 0.7500 0.455063(17) 0.544937(17)
Cu4_9 Cu 0.7500 0.705063(17) 0.294937(17)
Cu5_9 Cu 0.955063(17) 0.5000 0.705063(17)
Cu6_9 Cu 0.955063(17) 0.7500 0.544937(17)
Cu7_9 Cu 1.0000 0.705063(17) 0.455063(17)
N2_7 N 0.7330(3) 0.5517(2) 0.4292(3)
N3_7 N 0.8208(3) 0.5170(3) 0.5517(2)
N4_7 N 0.8017(2) 0.4830(3) 0.5708(3)
N5_7 N 0.9292(3) 0.6983(2) 0.5170(3)
N6_7 N 0.9483(2) 0.6792(3) 0.4830(3)
N7_7 N 0.6792(3) 0.4483(2) 0.4830(3)
N8_7 N 0.6983(2) 0.4292(3) 0.5170(3)
C4_7 C 0.7221(3) 0.5759(4) 0.3939(5)
C5_7 C 0.8561(5) 0.5279(3) 0.5759(4)
C6_7 C 0.8259(4) 0.4721(3) 0.6061(5)
C7_7 C 0.8939(5) 0.6741(4) 0.5279(3)
C8_7 C 0.9241(4) 0.6439(5) 0.4721(3)
H2_7 H 0.6986 0.5699 0.3749
H3_7 H 0.8751 0.5514 0.5699
H4_7 H 0.8199 0.4486 0.6251
H5_7 H 0.8749 0.6801 0.5514
H6_7 H 0.9301 0.6249 0.4486
C9_9 C 0.8602(2) 0.5000(2) 0.6102
C10_9 C 0.8898(2) 0.6398 0.5000(2)
C11_9 C 0.8953 0.5000(2) 0.6453(2)
C12_9 C 0.8547 0.6047(2) 0.5000(2)
O3_7 O 0.7250(3) 0.6382(3) 0.3209(4)
O4_7 O 0.9291(4) 0.5250(3) 0.6382(3)
O5_7 O 0.8882(3) 0.4750(3) 0.6791(4)
O6_7 O 0.8209(4) 0.6118(3) 0.5250(3)
O7_7 O 0.8618(3) 0.5709(4) 0.4750(3)
O8_7 O 0.6791(4) 0.4750(3) 0.3882(3)
O9_7 O 0.6382(3) 0.5250(3) 0.4291(4)
O10_7 O 0.7250(3) 0.4291(4) 0.6118(3)
O11_7 O 0.7750(3) 0.3882(3) 0.5709(4)
Cu1_10 Cu 0.294937(17) 0.705063(17) 0.2500
O1_16 O 0.2500 0.7500 0.2500
N1_8 N 0.2670(3) 0.6792(3) 0.3017(2)
C1_8 C 0.2779(3) 0.6439(5) 0.3259(4)
H1_8 H 0.3014 0.6249 0.3199
C2_10 C 0.2500(2) 0.6398(2) 0.3602
C3_10 C 0.2500(2) 0.6047 0.3953(2)
O2_8 O 0.2750(3) 0.5709(4) 0.3882(3)
Cu2_10 Cu 0.205063(17) 0.7500 0.294937(17)
Cu3_10 Cu 0.2500 0.794937(17) 0.205063(17)
Cu4_10 Cu 0.2500 0.544937(17) 0.455063(17)
Cu5_10 Cu 0.455063(17) 0.7500 0.044937(17)
Cu6_10 Cu 0.455063(17) 0.5000 0.205063(17)
Cu7_10 Cu 0.5000 0.544937(17) 0.294937(17)
N2_8 N 0.2330(3) 0.6983(2) 0.3208(3)
N3_8 N 0.3208(3) 0.7330(3) 0.1983(2)
N4_8 N 0.3017(2) 0.7670(3) 0.1792(3)
N5_8 N 0.4292(3) 0.5517(2) 0.2330(3)
N6_8 N 0.4483(2) 0.5708(3) 0.2670(3)
N7_8 N 0.1792(3) 0.8017(2) 0.2670(3)
N8_8 N 0.1983(2) 0.8208(3) 0.2330(3)
C4_8 C 0.2221(3) 0.6741(4) 0.3561(5)
C5_8 C 0.3561(5) 0.7221(3) 0.1741(4)
C6_8 C 0.3259(4) 0.7779(3) 0.1439(5)
C7_8 C 0.3939(5) 0.5759(4) 0.2221(3)
C8_8 C 0.4241(4) 0.6061(5) 0.2779(3)
H2_8 H 0.1986 0.6801 0.3751
H3_8 H 0.3751 0.6986 0.1801
H4_8 H 0.3199 0.8014 0.1249
H5_8 H 0.3749 0.5699 0.1986
H6_8 H 0.4301 0.6251 0.3014
C9_10 C 0.3602(2) 0.7500(2) 0.1398
C10_10 C 0.3898(2) 0.6102 0.2500(2)
C11_10 C 0.3953 0.7500(2) 0.1047(2)
C12_10 C 0.3547 0.6453(2) 0.2500(2)
O3_8 O 0.2250(3) 0.6118(3) 0.4291(4)
O4_8 O 0.4291(4) 0.7250(3) 0.1118(3)
O5_8 O 0.3882(3) 0.7750(3) 0.0709(4)
O6_8 O 0.3209(4) 0.6382(3) 0.2250(3)
O7_8 O 0.3618(3) 0.6791(4) 0.2750(3)
O8_8 O 0.1791(4) 0.7750(3) 0.3618(3)
O9_8 O 0.1382(3) 0.7250(3) 0.3209(4)
O10_8 O 0.2250(3) 0.8209(4) 0.1382(3)
O11_8 O 0.2750(3) 0.8618(3) 0.1791(4)
Cu1_11 Cu 0.0000 0.455063(17) 0.205063(17)
O1_17 O -0.0000 0.5000 0.2500
Cu3_11 Cu 0.044937(17) 0.5000 0.294937(17)
Cu5_11 Cu 0.205063(17) 0.294937(17) 0.2500
Cu6_11 Cu 0.044937(17) 0.294937(17) 0.0000
N3_9 N 0.0517(2) 0.4292(3) 0.2330(3)
N4_9 N 0.0708(3) 0.4483(2) 0.2670(3)
N5_9 N 0.0170(3) 0.3208(3) 0.0517(2)
N8_9 N 0.0170(3) 0.5517(2) 0.3208(3)
C5_9 C 0.0759(4) 0.3939(5) 0.2221(3)
C6_9 C 0.1061(5) 0.4241(4) 0.2779(3)
C7_9 C 0.0279(3) 0.3561(5) 0.0759(4)
H3_9 H 0.0699 0.3749 0.1986
H4_9 H 0.1251 0.4301 0.3014
H5_9 H 0.0514 0.3751 0.0699
C9_11 C 0.1102 0.3898(2) 0.2500(2)
C10_11 C 0.0000(2) 0.3602(2) 0.1102
C11_11 C 0.1453(2) 0.3547 0.2500(2)
C12_11 C -0.0000(2) 0.3953 0.1453(2)
O4_9 O 0.1382(3) 0.3209(4) 0.2250(3)
O5_9 O 0.1791(4) 0.3618(3) 0.2750(3)
O6_9 O 0.0250(3) 0.4291(4) 0.1382(3)
O10_9 O 0.1118(3) 0.5250(3) 0.3209(4)
O11_9 O 0.0709(4) 0.4750(3) 0.3618(3)
Cu6_12 Cu 0.044937(17) 0.294937(17) 1.0000
Cu1_12 Cu 1.0000 0.455063(17) 0.205063(17)
O1_18 O 1.0000 0.5000 0.2500
N1_9 N 0.9483(2) 0.4830(3) 0.1792(3)
C1_9 C 0.9241(4) 0.4721(3) 0.1439(5)
H1_9 H 0.9301 0.4486 0.1249
C2_11 C 0.8898 0.5000(2) 0.1398(2)
C3_11 C 0.8547(2) 0.5000(2) 0.1047
O2_9 O 0.8618(3) 0.4750(3) 0.0709(4)
Cu2_11 Cu 0.955063(17) 0.544937(17) 0.2500
Cu4_11 Cu 0.794937(17) 0.5000 0.044937(17)
Cu7_11 Cu 0.955063(17) 0.2500 0.044937(17)
N2_9 N 0.9292(3) 0.5170(3) 0.1983(2)
N6_9 N 0.9830(3) 0.3017(2) 0.0708(3)
N7_9 N 0.9830(3) 0.5708(3) 0.3017(2)
C4_9 C 0.8939(5) 0.5279(3) 0.1741(4)
C8_9 C 0.9721(3) 0.3259(4) 0.1061(5)
H2_9 H 0.8749 0.5514 0.1801
H6_9 H 0.9486 0.3199 0.1251
C10_12 C 1.0000(2) 0.3602(2) 0.1102
C12_12 C 1.0000(2) 0.3953 0.1453(2)
O3_9 O 0.8209(4) 0.5250(3) 0.1118(3)
O7_9 O 0.9750(3) 0.3882(3) 0.1791(4)
O8_9 O 0.8882(3) 0.5709(4) 0.2750(3)
O9_9 O 0.9291(4) 0.6118(3) 0.2250(3)
O1_19 O 0.7500 -0.0000 0.0000
C2_12 C 0.8602 0.0000(2) 0.1102(2)
C3_12 C 0.8953(2) -0.0000(2) 0.1453
Cu2_12 Cu 0.794937(17) 0.044937(17) 0.0000
Cu4_12 Cu 0.955063(17) -0.0000 0.205063(17)
N2_10 N 0.8208(3) 0.0170(3) 0.0517(2)
C4_10 C 0.8561(5) 0.0279(3) 0.0759(4)
H2_10 H 0.8751 0.0514 0.0699
O3_10 O 0.9291(4) 0.0250(3) 0.1382(3)
O9_10 O 0.8209(4) 0.1118(3) 0.0250(3)
O1_20 O 0.7500 -0.0000 1.0000
Cu2_13 Cu 0.794937(17) 0.044937(17) 1.0000
Cu3_12 Cu 0.705063(17) 0.0000 0.955063(17)
N7_10 N 0.7670(3) 0.0708(3) 0.9483(2)
N8_10 N 0.7330(3) 0.0517(2) 0.9292(3)
O8_10 O 0.8618(3) 0.0709(4) 0.9750(3)
O10_10 O 0.6382(3) 0.0250(3) 0.9291(4)
Cu1_13 Cu 0.7500 0.955063(17) 0.044937(17)
O1_21 O 0.7500 1.0000 0.0000
N1_10 N 0.8017(2) 0.9830(3) 0.0708(3)
C1_10 C 0.8259(4) 0.9721(3) 0.1061(5)
H1_10 H 0.8199 0.9486 0.1251
C2_13 C 0.8602 1.0000(2) 0.1102(2)
C3_13 C 0.8953(2) 1.0000(2) 0.1453
O2_10 O 0.8882(3) 0.9750(3) 0.1791(4)
Cu4_13 Cu 0.955063(17) 1.0000 0.205063(17)
Cu5_12 Cu 0.544937(17) 0.794937(17) -0.0000
Cu6_13 Cu 0.705063(17) 0.794937(17) 0.2500
Cu7_12 Cu 0.794937(17) 0.7500 0.205063(17)
N3_10 N 0.6983(2) 0.9292(3) 0.0170(3)
N5_10 N 0.7330(3) 0.8208(3) 0.1983(2)
N6_10 N 0.7670(3) 0.8017(2) 0.1792(3)
C5_10 C 0.6741(4) 0.8939(5) 0.0279(3)
C7_10 C 0.7221(3) 0.8561(5) 0.1741(4)
C8_10 C 0.7779(3) 0.8259(4) 0.1439(5)
H3_10 H 0.6801 0.8749 0.0514
H5_10 H 0.6986 0.8751 0.1801
H6_10 H 0.8014 0.8199 0.1249
C9_12 C 0.6398 0.8898(2) 0.0000(2)
C10_13 C 0.7500(2) 0.8602(2) 0.1398
C11_12 C 0.6047(2) 0.8547 0.0000(2)
C12_13 C 0.7500(2) 0.8953 0.1047(2)
O4_10 O 0.6118(3) 0.8209(4) 0.0250(3)
O6_10 O 0.7250(3) 0.9291(4) 0.1118(3)
O7_10 O 0.7750(3) 0.8882(3) 0.0709(4)
O1_22 O 0.7500 1.0000 1.0000
Cu3_13 Cu 0.705063(17) 1.0000 0.955063(17)
Cu5_13 Cu 0.544937(17) 0.794937(17) 1.0000
N4_10 N 0.6792(3) 0.9483(2) 0.9830(3)
C6_10 C 0.6439(5) 0.9241(4) 0.9721(3)
H4_10 H 0.6249 0.9301 0.9486
C9_13 C 0.6398 0.8898(2) 1.0000(2)
C11_13 C 0.6047(2) 0.8547 1.0000(2)
O5_10 O 0.5709(4) 0.8618(3) 0.9750(3)
O11_10 O 0.6791(4) 0.9750(3) 0.8882(3)
Cu7_13 Cu 0.455063(17) 0.0000 0.705063(17)
Cu1_14 Cu 0.5000 0.794937(17) 0.544937(17)
O1_23 O 0.5000 0.7500 0.5000
N1_11 N 0.4483(2) 0.7670(3) 0.5708(3)
C1_11 C 0.4241(4) 0.7779(3) 0.6061(5)
H1_11 H 0.4301 0.8014 0.6251
C2_14 C 0.3898 0.7500(2) 0.6102(2)
C3_14 C 0.3547(2) 0.7500(2) 0.6453
O2_11 O 0.3618(3) 0.7750(3) 0.6791(4)
Cu2_14 Cu 0.455063(17) 0.705063(17) 0.5000
Cu3_14 Cu 0.544937(17) 0.7500 0.455063(17)
Cu4_14 Cu 0.294937(17) 0.7500 0.705063(17)
Cu5_14 Cu 0.705063(17) 0.955063(17) 0.5000
Cu6_14 Cu 0.544937(17) 0.955063(17) 0.7500
Cu7_14 Cu 0.455063(17) 1.0000 0.705063(17)
N2_11 N 0.4292(3) 0.7330(3) 0.5517(2)
N3_11 N 0.5517(2) 0.8208(3) 0.5170(3)
N4_11 N 0.5708(3) 0.8017(2) 0.4830(3)
N5_11 N 0.5170(3) 0.9292(3) 0.6983(2)
N6_11 N 0.4830(3) 0.9483(2) 0.6792(3)
N7_11 N 0.4830(3) 0.6792(3) 0.4483(2)
N8_11 N 0.5170(3) 0.6983(2) 0.4292(3)
C4_11 C 0.3939(5) 0.7221(3) 0.5759(4)
C5_11 C 0.5759(4) 0.8561(5) 0.5279(3)
C6_11 C 0.6061(5) 0.8259(4) 0.4721(3)
C7_11 C 0.5279(3) 0.8939(5) 0.6741(4)
C8_11 C 0.4721(3) 0.9241(4) 0.6439(5)
H2_11 H 0.3749 0.6986 0.5699
H3_11 H 0.5699 0.8751 0.5514
H4_11 H 0.6251 0.8199 0.4486
H5_11 H 0.5514 0.8749 0.6801
H6_11 H 0.4486 0.9301 0.6249
C9_14 C 0.6102 0.8602(2) 0.5000(2)
C10_14 C 0.5000(2) 0.8898(2) 0.6398
C11_14 C 0.6453(2) 0.8953 0.5000(2)
C12_14 C 0.5000(2) 0.8547 0.6047(2)
O3_11 O 0.3209(4) 0.7250(3) 0.6382(3)
O4_11 O 0.6382(3) 0.9291(4) 0.5250(3)
O5_11 O 0.6791(4) 0.8882(3) 0.4750(3)
O6_11 O 0.5250(3) 0.8209(4) 0.6118(3)
O7_11 O 0.4750(3) 0.8618(3) 0.5709(4)
O8_11 O 0.3882(3) 0.6791(4) 0.4750(3)
O9_11 O 0.4291(4) 0.6382(3) 0.5250(3)
O10_11 O 0.6118(3) 0.7250(3) 0.4291(4)
O11_11 O 0.5709(4) 0.7750(3) 0.3882(3)
Cu1_15 Cu 0.2500 0.294937(17) 0.705063(17)
O1_24 O 0.2500 0.2500 0.7500
N1_12 N 0.3017(2) 0.2670(3) 0.6792(3)
C1_12 C 0.3259(4) 0.2779(3) 0.6439(5)
H1_12 H 0.3199 0.3014 0.6249
C2_15 C 0.3602 0.2500(2) 0.6398(2)
C3_15 C 0.3953(2) 0.2500(2) 0.6047
O2_12 O 0.3882(3) 0.2750(3) 0.5709(4)
Cu2_15 Cu 0.294937(17) 0.205063(17) 0.7500
Cu3_15 Cu 0.205063(17) 0.2500 0.794937(17)
Cu4_15 Cu 0.455063(17) 0.2500 0.544937(17)
Cu5_15 Cu 0.044937(17) 0.455063(17) 0.7500
Cu6_15 Cu 0.205063(17) 0.455063(17) 0.5000
Cu7_15 Cu 0.294937(17) 0.5000 0.544937(17)
N2_12 N 0.3208(3) 0.2330(3) 0.6983(2)
N3_12 N 0.1983(2) 0.3208(3) 0.7330(3)
N4_12 N 0.1792(3) 0.3017(2) 0.7670(3)
N5_12 N 0.2330(3) 0.4292(3) 0.5517(2)
N6_12 N 0.2670(3) 0.4483(2) 0.5708(3)
N7_12 N 0.2670(3) 0.1792(3) 0.8017(2)
N8_12 N 0.2330(3) 0.1983(2) 0.8208(3)
C4_12 C 0.3561(5) 0.2221(3) 0.6741(4)
C5_12 C 0.1741(4) 0.3561(5) 0.7221(3)
C6_12 C 0.1439(5) 0.3259(4) 0.7779(3)
C7_12 C 0.2221(3) 0.3939(5) 0.5759(4)
C8_12 C 0.2779(3) 0.4241(4) 0.6061(5)
H2_12 H 0.3751 0.1986 0.6801
H3_12 H 0.1801 0.3751 0.6986
H4_12 H 0.1249 0.3199 0.8014
H5_12 H 0.1986 0.3749 0.5699
H6_12 H 0.3014 0.4301 0.6251
C9_15 C 0.1398 0.3602(2) 0.7500(2)
C10_15 C 0.2500(2) 0.3898(2) 0.6102
C11_15 C 0.1047(2) 0.3953 0.7500(2)
C12_15 C 0.2500(2) 0.3547 0.6453(2)
O3_12 O 0.4291(4) 0.2250(3) 0.6118(3)
O4_12 O 0.1118(3) 0.4291(4) 0.7250(3)
O5_12 O 0.0709(4) 0.3882(3) 0.7750(3)
O6_12 O 0.2250(3) 0.3209(4) 0.6382(3)
O7_12 O 0.2750(3) 0.3618(3) 0.6791(4)
O8_12 O 0.3618(3) 0.1791(4) 0.7750(3)
O9_12 O 0.3209(4) 0.1382(3) 0.7250(3)
O10_12 O 0.1382(3) 0.2250(3) 0.8209(4)
O11_12 O 0.1791(4) 0.2750(3) 0.8618(3)
C1_13 C 0.6741(4) 0.3939(5) 0.5279(3)
H1_13 H 0.6801 0.3749 0.5514
C2_16 C 0.6398 0.3898(2) 0.5000(2)
C3_16 C 0.6047(2) 0.3547 0.5000(2)
O2_13 O 0.6118(3) 0.3209(4) 0.5250(3)
N5_13 N 0.7670(3) 0.3017(2) 0.6792(3)
N6_13 N 0.7330(3) 0.3208(3) 0.6983(2)
C4_13 C 0.6439(5) 0.4241(4) 0.4721(3)
C7_13 C 0.7779(3) 0.3259(4) 0.6439(5)
C8_13 C 0.7221(3) 0.3561(5) 0.6741(4)
H2_13 H 0.6249 0.4301 0.4486
H5_13 H 0.8014 0.3199 0.6249
H6_13 H 0.6986 0.3751 0.6801
C10_16 C 0.7500(2) 0.3602 0.6398(2)
C12_16 C 0.7500(2) 0.3953(2) 0.6047
O3_13 O 0.5709(4) 0.3618(3) 0.4750(3)
C1_14 C 0.5759(4) 0.3561(5) 0.0279(3)
H1_14 H 0.5699 0.3751 0.0514
C2_17 C 0.6102 0.3602(2) 0.0000(2)
C3_17 C 0.6453(2) 0.3953 0.0000(2)
O2_14 O 0.6382(3) 0.4291(4) 0.0250(3)
N5_14 N 0.4830(3) 0.4483(2) 0.1792(3)
N6_14 N 0.5170(3) 0.4292(3) 0.1983(2)
C7_14 C 0.4721(3) 0.4241(4) 0.1439(5)
C8_14 C 0.5279(3) 0.3939(5) 0.1741(4)
H5_14 H 0.4486 0.4301 0.1249
H6_14 H 0.5514 0.3749 0.1801
C10_17 C 0.5000(2) 0.3898 0.1398(2)
C12_17 C 0.5000(2) 0.3547(2) 0.1047
C2_18 C 0.6102 0.3602(2) 1.0000(2)
C3_18 C 0.6453(2) 0.3953 1.0000(2)
C4_14 C 0.6061(5) 0.3259(4) 0.9721(3)
H2_14 H 0.6251 0.3199 0.9486
O3_14 O 0.6791(4) 0.3882(3) 0.9750(3)
C1_15 C 0.1741(4) 0.8561(5) 0.2221(3)
H1_15 H 0.1801 0.8751 0.1986
C2_19 C 0.1398 0.8602(2) 0.2500(2)
C3_19 C 0.1047(2) 0.8953 0.2500(2)
O2_15 O 0.1118(3) 0.9291(4) 0.2250(3)
N5_15 N 0.2670(3) 0.9483(2) 0.0708(3)
N6_15 N 0.2330(3) 0.9292(3) 0.0517(2)
C4_15 C 0.1439(5) 0.8259(4) 0.2779(3)
C7_15 C 0.2779(3) 0.9241(4) 0.1061(5)
C8_15 C 0.2221(3) 0.8939(5) 0.0759(4)
H2_15 H 0.1249 0.8199 0.3014
H5_15 H 0.3014 0.9301 0.1251
H6_15 H 0.1986 0.8749 0.0699
C10_18 C 0.2500(2) 0.8898 0.1102(2)
C12_18 C 0.2500(2) 0.8547(2) 0.1453
O3_15 O 0.0709(4) 0.8882(3) 0.2750(3)
C1_16 C 0.0759(4) 0.8939(5) 0.7221(3)
H1_16 H 0.0699 0.8749 0.6986
C2_20 C 0.1102 0.8898(2) 0.7500(2)
C3_20 C 0.1453(2) 0.8547 0.7500(2)
O2_16 O 0.1382(3) 0.8209(4) 0.7250(3)
N6_16 N 0.0170(3) 0.8208(3) 0.5517(2)
C4_16 C 0.1061(5) 0.9241(4) 0.7779(3)
C8_16 C 0.0279(3) 0.8561(5) 0.5759(4)
H2_16 H 0.1251 0.9301 0.8014
H6_16 H 0.0514 0.8751 0.5699
C10_19 C 0.0000(2) 0.8602 0.6102(2)
C12_19 C 0.0000(2) 0.8953(2) 0.6453
O3_16 O 0.1791(4) 0.8618(3) 0.7750(3)
N5_16 N 0.9830(3) 0.8017(2) 0.5708(3)
C7_16 C 0.9721(3) 0.8259(4) 0.6061(5)
H5_16 H 0.9486 0.8199 0.6251
C10_20 C 1.0000(2) 0.8602 0.6102(2)
C12_20 C 1.0000(2) 0.8953(2) 0.6453
C1_17 C 0.8939(5) 0.7221(3) 0.0759(4)
H1_17 H 0.8749 0.6986 0.0699
C2_21 C 0.8898(2) 0.7500(2) 0.1102
C3_21 C 0.8547 0.7500(2) 0.1453(2)
O2_17 O 0.8209(4) 0.7250(3) 0.1382(3)
N6_17 N 0.8208(3) 0.5517(2) 0.0170(3)
C4_17 C 0.9241(4) 0.7779(3) 0.1061(5)
C8_17 C 0.8561(5) 0.5759(4) 0.0279(3)
H2_17 H 0.9301 0.8014 0.1251
H6_17 H 0.8751 0.5699 0.0514
C10_21 C 0.8602 0.6102(2) 0.0000(2)
C12_21 C 0.8953(2) 0.6453 0.0000(2)
O3_17 O 0.8618(3) 0.7750(3) 0.1791(4)
N5_17 N 0.8017(2) 0.5708(3) 0.9830(3)
C7_17 C 0.8259(4) 0.6061(5) 0.9721(3)
H5_17 H 0.8199 0.6251 0.9486
C10_22 C 0.8602 0.6102(2) 1.0000(2)
C12_22 C 0.8953(2) 0.6453 1.0000(2)
C1_18 C 0.8561(5) 0.2221(3) 0.1741(4)
H1_18 H 0.8751 0.1986 0.1801
C2_22 C 0.8602(2) 0.2500(2) 0.1398
C3_22 C 0.8953 0.2500(2) 0.1047(2)
O2_18 O 0.9291(4) 0.2250(3) 0.1118(3)
N5_18 N 0.9483(2) 0.0708(3) 0.2670(3)
N6_18 N 0.9292(3) 0.0517(2) 0.2330(3)
C4_18 C 0.8259(4) 0.2779(3) 0.1439(5)
C7_18 C 0.9241(4) 0.1061(5) 0.2779(3)
C8_18 C 0.8939(5) 0.0759(4) 0.2221(3)
H2_18 H 0.8199 0.3014 0.1249
H5_18 H 0.9301 0.1251 0.3014
H6_18 H 0.8749 0.0699 0.1986
C10_23 C 0.8898 0.1102(2) 0.2500(2)
C12_23 C 0.8547(2) 0.1453 0.2500(2)
O3_18 O 0.8882(3) 0.2750(3) 0.0709(4)
C1_19 C 0.3561(5) 0.0279(3) 0.5759(4)
H1_19 H 0.3751 0.0514 0.5699
C2_23 C 0.3602(2) -0.0000(2) 0.6102
C3_23 C 0.3953 -0.0000(2) 0.6453(2)
O2_19 O 0.4291(4) 0.0250(3) 0.6382(3)
N5_19 N 0.4483(2) 0.1792(3) 0.4830(3)
N6_19 N 0.4292(3) 0.1983(2) 0.5170(3)
C7_19 C 0.4241(4) 0.1439(5) 0.4721(3)
C8_19 C 0.3939(5) 0.1741(4) 0.5279(3)
H5_19 H 0.4301 0.1249 0.4486
H6_19 H 0.3749 0.1801 0.5514
C10_24 C 0.3898 0.1398(2) 0.5000(2)
C12_24 C 0.3547(2) 0.1047 0.5000(2)
C2_24 C 0.3602(2) 1.0000(2) 0.6102
C3_24 C 0.3953 1.0000(2) 0.6453(2)
C4_19 C 0.3259(4) 0.9721(3) 0.6061(5)
H2_19 H 0.3199 0.9486 0.6251
O3_19 O 0.3882(3) 0.9750(3) 0.6791(4)
C1_20 C 0.3939(5) 0.5279(3) 0.6741(4)
H1_20 H 0.3749 0.5514 0.6801
C2_25 C 0.3898(2) 0.5000(2) 0.6398
C3_25 C 0.3547 0.5000(2) 0.6047(2)
O2_20 O 0.3209(4) 0.5250(3) 0.6118(3)
N5_20 N 0.3017(2) 0.6792(3) 0.7670(3)
N6_20 N 0.3208(3) 0.6983(2) 0.7330(3)
C4_20 C 0.4241(4) 0.4721(3) 0.6439(5)
C7_20 C 0.3259(4) 0.6439(5) 0.7779(3)
C8_20 C 0.3561(5) 0.6741(4) 0.7221(3)
H2_20 H 0.4301 0.4486 0.6249
H5_20 H 0.3199 0.6249 0.8014
H6_20 H 0.3751 0.6801 0.6986
C10_25 C 0.3602 0.6398(2) 0.7500(2)
C12_25 C 0.3953(2) 0.6047 0.7500(2)
O3_20 O 0.3618(3) 0.4750(3) 0.5709(4)
C1_21 C 0.2221(3) 0.1741(4) 0.8561(5)
H1_21 H 0.1986 0.1801 0.8751
C2_26 C 0.2500(2) 0.1398 0.8602(2)
C3_26 C 0.2500(2) 0.1047(2) 0.8953
O2_21 O 0.2250(3) 0.1118(3) 0.9291(4)
N5_21 N 0.0708(3) 0.2670(3) 0.9483(2)
N6_21 N 0.0517(2) 0.2330(3) 0.9292(3)
C4_21 C 0.2779(3) 0.1439(5) 0.8259(4)
C7_21 C 0.1061(5) 0.2779(3) 0.9241(4)
C8_21 C 0.0759(4) 0.2221(3) 0.8939(5)
H2_21 H 0.3014 0.1249 0.8199
H5_21 H 0.1251 0.3014 0.9301
H6_21 H 0.0699 0.1986 0.8749
C10_26 C 0.1102(2) 0.2500(2) 0.8898
C12_26 C 0.1453 0.2500(2) 0.8547(2)
O3_21 O 0.2750(3) 0.0709(4) 0.8882(3)
C1_22 C 0.7221(3) 0.0759(4) 0.8939(5)
H1_22 H 0.6986 0.0699 0.8749
C2_27 C 0.7500(2) 0.1102 0.8898(2)
C3_27 C 0.7500(2) 0.1453(2) 0.8547
O2_22 O 0.7250(3) 0.1382(3) 0.8209(4)
N6_22 N 0.5517(2) 0.0170(3) 0.8208(3)
C4_22 C 0.7779(3) 0.1061(5) 0.9241(4)
C8_22 C 0.5759(4) 0.0279(3) 0.8561(5)
H2_22 H 0.8014 0.1251 0.9301
H6_22 H 0.5699 0.0514 0.8751
C10_27 C 0.6102(2) -0.0000(2) 0.8602
C12_27 C 0.6453 0.0000(2) 0.8953(2)
O3_22 O 0.7750(3) 0.1791(4) 0.8618(3)
N5_22 N 0.5708(3) 0.9830(3) 0.8017(2)
C7_22 C 0.6061(5) 0.9721(3) 0.8259(4)
H5_22 H 0.6251 0.9486 0.8199
C10_28 C 0.6102(2) 1.0000(2) 0.8602
C12_28 C 0.6453 1.0000(2) 0.8953(2)
C1_23 C 0.5279(3) 0.6741(4) 0.3939(5)
H1_23 H 0.5514 0.6801 0.3749
C2_28 C 0.5000(2) 0.6398 0.3898(2)
C3_28 C 0.5000(2) 0.6047(2) 0.3547
O2_23 O 0.5250(3) 0.6118(3) 0.3209(4)
N5_23 N 0.6792(3) 0.7670(3) 0.3017(2)
N6_23 N 0.6983(2) 0.7330(3) 0.3208(3)
C4_23 C 0.4721(3) 0.6439(5) 0.4241(4)
C7_23 C 0.6439(5) 0.7779(3) 0.3259(4)
C8_23 C 0.6741(4) 0.7221(3) 0.3561(5)
H2_23 H 0.4486 0.6249 0.4301
H5_23 H 0.6249 0.8014 0.3199
H6_23 H 0.6801 0.6986 0.3751
C10_29 C 0.6398(2) 0.7500(2) 0.3602
C12_29 C 0.6047 0.7500(2) 0.3953(2)
O3_23 O 0.4750(3) 0.5709(4) 0.3618(3)
C1_24 C 0.0279(3) 0.5759(4) 0.3561(5)
H1_24 H 0.0514 0.5699 0.3751
C2_29 C 0.0000(2) 0.6102 0.3602(2)
C3_29 C -0.0000(2) 0.6453(2) 0.3953
O2_24 O 0.0250(3) 0.6382(3) 0.4291(4)
N5_24 N 0.1792(3) 0.4830(3) 0.4483(2)
N6_24 N 0.1983(2) 0.5170(3) 0.4292(3)
C7_24 C 0.1439(5) 0.4721(3) 0.4241(4)
C8_24 C 0.1741(4) 0.5279(3) 0.3939(5)
H5_24 H 0.1249 0.4486 0.4301
H6_24 H 0.1801 0.5514 0.3749
C10_30 C 0.1398(2) 0.5000(2) 0.3898
C12_30 C 0.1047 0.5000(2) 0.3547(2)
C2_30 C 1.0000(2) 0.6102 0.3602(2)
C3_30 C 1.0000(2) 0.6453(2) 0.3953
C4_24 C 0.9721(3) 0.6061(5) 0.3259(4)
H2_24 H 0.9486 0.6251 0.3199
O3_24 O 0.9750(3) 0.6791(4) 0.3882(3)
O1_25 O 0.2500 0.5000 0.0000
C2_31 C 0.1398(2) 0.3898 0.0000(2)
C3_31 C 0.1047 0.3547(2) 0.0000(2)
Cu2_16 Cu 0.2500 0.455063(17) 0.044937(17)
Cu3_16 Cu 0.294937(17) 0.544937(17) 0.0000
N2_13 N 0.1983(2) 0.4292(3) 0.0170(3)
N7_13 N 0.3017(2) 0.4830(3) 0.0708(3)
N8_13 N 0.3208(3) 0.5170(3) 0.0517(2)
C4_25 C 0.1741(4) 0.3939(5) 0.0279(3)
H2_25 H 0.1801 0.3749 0.0514
O3_25 O 0.1118(3) 0.3209(4) 0.0250(3)
O8_13 O 0.2750(3) 0.3882(3) 0.0709(4)
O9_13 O 0.2250(3) 0.4291(4) 0.1118(3)
O10_13 O 0.3209(4) 0.6118(3) 0.0250(3)
Cu1_16 Cu 0.205063(17) 0.5000 0.955063(17)
O1_26 O 0.2500 0.5000 1.0000
N1_13 N 0.1792(3) 0.4483(2) 0.9830(3)
C1_25 C 0.1439(5) 0.4241(4) 0.9721(3)
H1_25 H 0.1249 0.4301 0.9486
C2_32 C 0.1398(2) 0.3898 1.0000(2)
C3_32 C 0.1047 0.3547(2) 1.0000(2)
O2_25 O 0.0709(4) 0.3618(3) 0.9750(3)
Cu3_17 Cu 0.294937(17) 0.544937(17) 1.0000
N3_13 N 0.2330(3) 0.5517(2) 0.9292(3)
N4_13 N 0.2670(3) 0.5708(3) 0.9483(2)
N5_25 N 0.0517(2) 0.5170(3) 0.8208(3)
N6_25 N 0.0708(3) 0.4830(3) 0.8017(2)
C5_13 C 0.2221(3) 0.5759(4) 0.8939(5)
C6_13 C 0.2779(3) 0.6061(5) 0.9241(4)
C7_25 C 0.0759(4) 0.5279(3) 0.8561(5)
C8_25 C 0.1061(5) 0.4721(3) 0.8259(4)
H3_13 H 0.1986 0.5699 0.8749
H4_13 H 0.3014 0.6251 0.9301
H5_25 H 0.0699 0.5514 0.8751
H6_25 H 0.1251 0.4486 0.8199
C9_16 C 0.2500(2) 0.6102 0.8898(2)
C10_31 C 0.1102 0.5000(2) 0.8602(2)
C11_16 C 0.2500(2) 0.6453(2) 0.8547
C12_31 C 0.1453(2) 0.5000(2) 0.8953
O4_13 O 0.2250(3) 0.6382(3) 0.8209(4)
O5_13 O 0.2750(3) 0.6791(4) 0.8618(3)
O6_13 O 0.1382(3) 0.5250(3) 0.9291(4)
O7_13 O 0.1791(4) 0.4750(3) 0.8882(3)
O11_13 O 0.3618(3) 0.5709(4) 0.9750(3)
Cu1_17 Cu 0.044937(17) 0.2500 0.455063(17)
O1_27 O 0.0000 0.2500 0.5000
N1_14 N 0.0708(3) 0.3017(2) 0.4830(3)
C1_26 C 0.1061(5) 0.3259(4) 0.4721(3)
H1_26 H 0.1251 0.3199 0.4486
C2_33 C 0.1102(2) 0.3602 0.5000(2)
C3_33 C 0.1453 0.3953(2) 0.5000(2)
O2_26 O 0.1791(4) 0.3882(3) 0.4750(3)
Cu2_17 Cu 0.0000 0.294937(17) 0.544937(17)
N2_14 N 0.0517(2) 0.3208(3) 0.5170(3)
N3_14 N 0.0170(3) 0.1983(2) 0.4292(3)
N5_26 N 0.1983(2) 0.2330(3) 0.3208(3)
N6_26 N 0.1792(3) 0.2670(3) 0.3017(2)
C4_26 C 0.0759(4) 0.3561(5) 0.5279(3)
C5_14 C 0.0279(3) 0.1741(4) 0.3939(5)
C7_26 C 0.1741(4) 0.2221(3) 0.3561(5)
C8_26 C 0.1439(5) 0.2779(3) 0.3259(4)
H2_26 H 0.0699 0.3751 0.5514
H3_14 H 0.0514 0.1801 0.3749
H5_26 H 0.1801 0.1986 0.3751
H6_26 H 0.1249 0.3014 0.3199
C9_17 C 0.0000(2) 0.1398 0.3898(2)
C10_32 C 0.1398 0.2500(2) 0.3602(2)
C11_17 C 0.0000(2) 0.1047(2) 0.3547
C12_32 C 0.1047(2) 0.2500(2) 0.3953
O3_26 O 0.1382(3) 0.4291(4) 0.5250(3)
O4_14 O 0.0250(3) 0.1118(3) 0.3209(4)
O6_14 O 0.1118(3) 0.2250(3) 0.4291(4)
O7_14 O 0.0709(4) 0.2750(3) 0.3882(3)
O9_14 O 0.0250(3) 0.3209(4) 0.6118(3)
O1_28 O 1.0000 0.2500 0.5000
Cu2_18 Cu 1.0000 0.294937(17) 0.544937(17)
Cu3_18 Cu 0.955063(17) 0.205063(17) 0.5000
N4_14 N 0.9830(3) 0.1792(3) 0.4483(2)
N7_14 N 0.9483(2) 0.2670(3) 0.5708(3)
N8_14 N 0.9292(3) 0.2330(3) 0.5517(2)
C6_14 C 0.9721(3) 0.1439(5) 0.4241(4)
H4_14 H 0.9486 0.1249 0.4301
C9_18 C 1.0000(2) 0.1398 0.3898(2)
C11_18 C 1.0000(2) 0.1047(2) 0.3547
O5_14 O 0.9750(3) 0.0709(4) 0.3618(3)
O8_14 O 0.9750(3) 0.3618(3) 0.5709(4)
O10_14 O 0.9291(4) 0.1382(3) 0.5250(3)
O11_14 O 0.8882(3) 0.1791(4) 0.4750(3)
Cu1_18 Cu 0.544937(17) -0.0000 0.294937(17)
O1_29 O 0.5000 -0.0000 0.2500
Cu3_19 Cu 0.455063(17) 0.044937(17) 0.2500
N3_15 N 0.5170(3) 0.0517(2) 0.3208(3)
N4_15 N 0.4830(3) 0.0708(3) 0.3017(2)
N5_27 N 0.6983(2) 0.0170(3) 0.4292(3)
N8_15 N 0.4292(3) 0.0170(3) 0.1983(2)
C5_15 C 0.5279(3) 0.0759(4) 0.3561(5)
C6_15 C 0.4721(3) 0.1061(5) 0.3259(4)
C7_27 C 0.6741(4) 0.0279(3) 0.3939(5)
H3_15 H 0.5514 0.0699 0.3751
H4_15 H 0.4486 0.1251 0.3199
H5_27 H 0.6801 0.0514 0.3749
C9_19 C 0.5000(2) 0.1102 0.3602(2)
C10_33 C 0.6398 -0.0000(2) 0.3898(2)
C11_19 C 0.5000(2) 0.1453(2) 0.3953
C12_33 C 0.6047(2) 0.0000(2) 0.3547
O4_15 O 0.5250(3) 0.1382(3) 0.4291(4)
O5_15 O 0.4750(3) 0.1791(4) 0.3882(3)
O6_15 O 0.6118(3) 0.0250(3) 0.3209(4)
O10_15 O 0.4291(4) 0.1118(3) 0.2250(3)
O11_15 O 0.3882(3) 0.0709(4) 0.2750(3)
Cu1_19 Cu 0.544937(17) 1.0000 0.294937(17)
O1_30 O 0.5000 1.0000 0.2500
N1_15 N 0.5708(3) 0.9483(2) 0.2670(3)
C1_27 C 0.6061(5) 0.9241(4) 0.2779(3)
H1_27 H 0.6251 0.9301 0.3014
C2_34 C 0.6102(2) 0.8898 0.2500(2)
C3_34 C 0.6453 0.8547(2) 0.2500(2)
O2_27 O 0.6791(4) 0.8618(3) 0.2750(3)
Cu2_19 Cu 0.5000 0.955063(17) 0.205063(17)
N2_15 N 0.5517(2) 0.9292(3) 0.2330(3)
N6_27 N 0.6792(3) 0.9830(3) 0.4483(2)
N7_15 N 0.4483(2) 0.9830(3) 0.1792(3)
C4_27 C 0.5759(4) 0.8939(5) 0.2221(3)
C8_27 C 0.6439(5) 0.9721(3) 0.4241(4)
H2_27 H 0.5699 0.8749 0.1986
H6_27 H 0.6249 0.9486 0.4301
C10_34 C 0.6398 1.0000(2) 0.3898(2)
C12_34 C 0.6047(2) 1.0000(2) 0.3547
O3_27 O 0.6382(3) 0.8209(4) 0.2250(3)
O7_15 O 0.5709(4) 0.9750(3) 0.3618(3)
O8_15 O 0.4750(3) 0.8882(3) 0.1791(4)
O9_15 O 0.5250(3) 0.9291(4) 0.1382(3)
Cu1_20 Cu 0.705063(17) 0.7500 0.794937(17)
O1_31 O 0.7500 0.7500 0.7500
N1_16 N 0.6792(3) 0.8017(2) 0.7670(3)
C1_28 C 0.6439(5) 0.8259(4) 0.7779(3)
H1_28 H 0.6249 0.8199 0.8014
C2_35 C 0.6398(2) 0.8602 0.7500(2)
C3_35 C 0.6047 0.8953(2) 0.7500(2)
O2_28 O 0.5709(4) 0.8882(3) 0.7750(3)
Cu2_20 Cu 0.7500 0.794937(17) 0.705063(17)
Cu3_20 Cu 0.794937(17) 0.705063(17) 0.7500
N2_16 N 0.6983(2) 0.8208(3) 0.7330(3)
N3_16 N 0.7330(3) 0.6983(2) 0.8208(3)
N4_16 N 0.7670(3) 0.6792(3) 0.8017(2)
N5_28 N 0.5517(2) 0.7330(3) 0.9292(3)
N6_28 N 0.5708(3) 0.7670(3) 0.9483(2)
N7_16 N 0.8017(2) 0.7670(3) 0.6792(3)
N8_16 N 0.8208(3) 0.7330(3) 0.6983(2)
C4_28 C 0.6741(4) 0.8561(5) 0.7221(3)
C5_16 C 0.7221(3) 0.6741(4) 0.8561(5)
C6_16 C 0.7779(3) 0.6439(5) 0.8259(4)
C7_28 C 0.5759(4) 0.7221(3) 0.8939(5)
C8_28 C 0.6061(5) 0.7779(3) 0.9241(4)
H2_28 H 0.6801 0.8751 0.6986
H3_16 H 0.6986 0.6801 0.8751
H4_16 H 0.8014 0.6249 0.8199
H5_28 H 0.5699 0.6986 0.8749
H6_28 H 0.6251 0.8014 0.9301
C9_20 C 0.7500(2) 0.6398 0.8602(2)
C10_35 C 0.6102 0.7500(2) 0.8898(2)
C11_20 C 0.7500(2) 0.6047(2) 0.8953
C12_35 C 0.6453(2) 0.7500(2) 0.8547
O3_28 O 0.6118(3) 0.9291(4) 0.7250(3)
O4_16 O 0.7250(3) 0.6118(3) 0.9291(4)
O5_16 O 0.7750(3) 0.5709(4) 0.8882(3)
O6_16 O 0.6382(3) 0.7250(3) 0.8209(4)
O7_16 O 0.6791(4) 0.7750(3) 0.8618(3)
O8_16 O 0.7750(3) 0.8618(3) 0.6791(4)
O9_16 O 0.7250(3) 0.8209(4) 0.6382(3)
O10_16 O 0.8209(4) 0.6382(3) 0.7250(3)
O11_16 O 0.8618(3) 0.6791(4) 0.7750(3)
N5_29 N 0.3208(3) 0.5517(2) 0.5170(3)
N6_29 N 0.3017(2) 0.5708(3) 0.4830(3)
C7_29 C 0.3561(5) 0.5759(4) 0.5279(3)
C8_29 C 0.3259(4) 0.6061(5) 0.4721(3)
H5_29 H 0.3751 0.5699 0.5514
H6_29 H 0.3199 0.6251 0.4486
C10_36 C 0.3602(2) 0.6102 0.5000(2)
C12_36 C 0.3953 0.6453(2) 0.5000(2)
N5_30 N 0.8208(3) 0.6983(2) 0.2330(3)
N6_30 N 0.8017(2) 0.6792(3) 0.2670(3)
C7_30 C 0.8561(5) 0.6741(4) 0.2221(3)
C8_30 C 0.8259(4) 0.6439(5) 0.2779(3)
H5_30 H 0.8751 0.6801 0.1986
H6_30 H 0.8199 0.6249 0.3014
C10_37 C 0.8602(2) 0.6398 0.2500(2)
C12_37 C 0.8953 0.6047(2) 0.2500(2)
N5_31 N 0.9292(3) 0.1983(2) 0.0170(3)
C7_31 C 0.8939(5) 0.1741(4) 0.0279(3)
H5_31 H 0.8749 0.1801 0.0514
C10_38 C 0.8898(2) 0.1398 0.0000(2)
C12_38 C 0.8547 0.1047(2) 0.0000(2)
N6_31 N 0.9483(2) 0.1792(3) 0.9830(3)
C8_31 C 0.9241(4) 0.1439(5) 0.9721(3)
H6_31 H 0.9301 0.1249 0.9486
C10_39 C 0.8898(2) 0.1398 1.0000(2)
C12_39 C 0.8547 0.1047(2) 1.0000(2)
N5_32 N 0.4292(3) 0.0517(2) 0.7330(3)
N6_32 N 0.4483(2) 0.0708(3) 0.7670(3)
C7_32 C 0.3939(5) 0.0759(4) 0.7221(3)
C8_32 C 0.4241(4) 0.1061(5) 0.7779(3)
H5_32 H 0.3749 0.0699 0.6986
H6_32 H 0.4301 0.1251 0.8014
C10_40 C 0.3898(2) 0.1102 0.7500(2)
C12_40 C 0.3547 0.1453(2) 0.7500(2)
C1_29 C 0.8939(5) 0.2221(3) 0.5759(4)
H1_29 H 0.8749 0.1986 0.5699
C2_36 C 0.8898(2) 0.2500(2) 0.6102
C3_36 C 0.8547 0.2500(2) 0.6453(2)
O2_29 O 0.8209(4) 0.2250(3) 0.6382(3)
N5_33 N 0.8017(2) 0.0708(3) 0.4830(3)
N6_33 N 0.8208(3) 0.0517(2) 0.5170(3)
C4_29 C 0.9241(4) 0.2779(3) 0.6061(5)
C7_33 C 0.8259(4) 0.1061(5) 0.4721(3)
C8_33 C 0.8561(5) 0.0759(4) 0.5279(3)
H2_29 H 0.9301 0.3014 0.6251
H5_33 H 0.8199 0.1251 0.4486
H6_33 H 0.8751 0.0699 0.5514
C10_41 C 0.8602 0.1102(2) 0.5000(2)
C12_41 C 0.8953(2) 0.1453 0.5000(2)
O3_29 O 0.8618(3) 0.2750(3) 0.6791(4)
C1_30 C 0.8561(5) 0.7221(3) 0.6741(4)
H1_30 H 0.8751 0.6986 0.6801
C2_37 C 0.8602(2) 0.7500(2) 0.6398
C3_37 C 0.8953 0.7500(2) 0.6047(2)
O2_30 O 0.9291(4) 0.7250(3) 0.6118(3)
N5_34 N 0.9483(2) 0.5708(3) 0.7670(3)
N6_34 N 0.9292(3) 0.5517(2) 0.7330(3)
C4_30 C 0.8259(4) 0.7779(3) 0.6439(5)
C7_34 C 0.9241(4) 0.6061(5) 0.7779(3)
C8_34 C 0.8939(5) 0.5759(4) 0.7221(3)
H2_30 H 0.8199 0.8014 0.6249
H5_34 H 0.9301 0.6251 0.8014
H6_34 H 0.8749 0.5699 0.6986
C10_42 C 0.8898 0.6102(2) 0.7500(2)
C12_42 C 0.8547(2) 0.6453 0.7500(2)
O3_30 O 0.8882(3) 0.7750(3) 0.5709(4)
C1_31 C 0.3561(5) 0.5279(3) 0.0759(4)
H1_31 H 0.3751 0.5514 0.0699
C2_38 C 0.3602(2) 0.5000(2) 0.1102
C3_38 C 0.3953 0.5000(2) 0.1453(2)
O2_31 O 0.4291(4) 0.5250(3) 0.1382(3)
N6_35 N 0.4292(3) 0.6983(2) 0.0170(3)
C4_31 C 0.3259(4) 0.4721(3) 0.1061(5)
C8_35 C 0.3939(5) 0.6741(4) 0.0279(3)
H2_31 H 0.3199 0.4486 0.1251
H6_35 H 0.3749 0.6801 0.0514
C10_43 C 0.3898 0.6398(2) 0.0000(2)
C12_43 C 0.3547(2) 0.6047 0.0000(2)
O3_31 O 0.3882(3) 0.4750(3) 0.1791(4)
N5_35 N 0.4483(2) 0.6792(3) 0.9830(3)
C7_35 C 0.4241(4) 0.6439(5) 0.9721(3)
H5_35 H 0.4301 0.6249 0.9486
C10_44 C 0.3898 0.6398(2) 1.0000(2)
C12_44 C 0.3547(2) 0.6047 1.0000(2)
C1_32 C 0.3939(5) 0.0279(3) 0.1741(4)
H1_32 H 0.3749 0.0514 0.1801
C2_39 C 0.3898(2) -0.0000(2) 0.1398
C3_39 C 0.3547 -0.0000(2) 0.1047(2)
O2_32 O 0.3209(4) 0.0250(3) 0.1118(3)
N5_36 N 0.3017(2) 0.1792(3) 0.2670(3)
N6_36 N 0.3208(3) 0.1983(2) 0.2330(3)
C7_36 C 0.3259(4) 0.1439(5) 0.2779(3)
C8_36 C 0.3561(5) 0.1741(4) 0.2221(3)
H5_36 H 0.3199 0.1249 0.3014
H6_36 H 0.3751 0.1801 0.1986
C10_45 C 0.3602 0.1398(2) 0.2500(2)
C12_45 C 0.3953(2) 0.1047 0.2500(2)
C2_40 C 0.3898(2) 1.0000(2) 0.1398
C3_40 C 0.3547 1.0000(2) 0.1047(2)
C4_32 C 0.4241(4) 0.9721(3) 0.1439(5)
H2_32 H 0.4301 0.9486 0.1249
O3_32 O 0.3618(3) 0.9750(3) 0.0709(4)
N5_37 N 0.0708(3) 0.7670(3) 0.4483(2)
N6_37 N 0.0517(2) 0.7330(3) 0.4292(3)
C7_37 C 0.1061(5) 0.7779(3) 0.4241(4)
C8_37 C 0.0759(4) 0.7221(3) 0.3939(5)
H5_37 H 0.1251 0.8014 0.4301
H6_37 H 0.0699 0.6986 0.3749
C10_46 C 0.1102(2) 0.7500(2) 0.3898
C12_46 C 0.1453 0.7500(2) 0.3547(2)
N5_38 N 0.5708(3) 0.4830(3) 0.3017(2)
N6_38 N 0.5517(2) 0.5170(3) 0.3208(3)
C7_38 C 0.6061(5) 0.4721(3) 0.3259(4)
C8_38 C 0.5759(4) 0.5279(3) 0.3561(5)
H5_38 H 0.6251 0.4486 0.3199
H6_38 H 0.5699 0.5514 0.3751
C10_47 C 0.6102(2) 0.5000(2) 0.3602
C12_47 C 0.6453 0.5000(2) 0.3953(2)
N5_39 N 0.6792(3) 0.2670(3) 0.8017(2)
N6_39 N 0.6983(2) 0.2330(3) 0.8208(3)
C7_39 C 0.6439(5) 0.2779(3) 0.8259(4)
C8_39 C 0.6741(4) 0.2221(3) 0.8561(5)
H5_39 H 0.6249 0.3014 0.8199
H6_39 H 0.6801 0.1986 0.8751
C10_48 C 0.6398(2) 0.2500(2) 0.8602
C12_48 C 0.6047 0.2500(2) 0.8953(2)
N6_40 N 0.1983(2) 0.0170(3) 0.9292(3)
C8_40 C 0.1741(4) 0.0279(3) 0.8939(5)
H6_40 H 0.1801 0.0514 0.8749
C10_49 C 0.1398(2) 0.0000(2) 0.8898
C12_49 C 0.1047 0.0000(2) 0.8547(2)
N5_40 N 0.1792(3) 0.9830(3) 0.9483(2)
C7_40 C 0.1439(5) 0.9721(3) 0.9241(4)
H5_40 H 0.1249 0.9486 0.9301
C10_50 C 0.1398(2) 1.0000(2) 0.8898
C12_50 C 0.1047 1.0000(2) 0.8547(2)
N5_41 N 0.5170(3) 0.3208(3) 0.5517(2)
N6_41 N 0.4830(3) 0.3017(2) 0.5708(3)
C7_41 C 0.5279(3) 0.3561(5) 0.5759(4)
C8_41 C 0.4721(3) 0.3259(4) 0.6061(5)
H5_41 H 0.5514 0.3751 0.5699
H6_41 H 0.4486 0.3199 0.6251
C10_51 C 0.5000(2) 0.3602(2) 0.6102
C12_51 C 0.5000(2) 0.3953 0.6453(2)
N5_42 N 0.2330(3) 0.8208(3) 0.6983(2)
N6_42 N 0.2670(3) 0.8017(2) 0.6792(3)
C7_42 C 0.2221(3) 0.8561(5) 0.6741(4)
C8_42 C 0.2779(3) 0.8259(4) 0.6439(5)
H5_42 H 0.1986 0.8751 0.6801
H6_42 H 0.3014 0.8199 0.6249
C10_52 C 0.2500(2) 0.8602(2) 0.6398
C12_52 C 0.2500(2) 0.8953 0.6047(2)
N5_43 N 0.0170(3) 0.9292(3) 0.1983(2)
C7_43 C 0.0279(3) 0.8939(5) 0.1741(4)
H5_43 H 0.0514 0.8749 0.1801
C10_53 C -0.0000(2) 0.8898(2) 0.1398
C12_53 C 0.0000(2) 0.8547 0.1047(2)
N6_43 N 0.9830(3) 0.9483(2) 0.1792(3)
C8_43 C 0.9721(3) 0.9241(4) 0.1439(5)
H6_43 H 0.9486 0.9301 0.1249
C10_54 C 1.0000(2) 0.8898(2) 0.1398
C12_54 C 1.0000(2) 0.8547 0.1047(2)
N5_44 N 0.7330(3) 0.4292(3) 0.0517(2)
N6_44 N 0.7670(3) 0.4483(2) 0.0708(3)
C7_44 C 0.7221(3) 0.3939(5) 0.0759(4)
C8_44 C 0.7779(3) 0.4241(4) 0.1061(5)
H5_44 H 0.6986 0.3749 0.0699
H6_44 H 0.8014 0.4301 0.1251
C10_55 C 0.7500(2) 0.3898(2) 0.1102
C12_55 C 0.7500(2) 0.3547 0.1453(2)
N5_45 N 0.2670(3) 0.3017(2) 0.1792(3)
N6_45 N 0.2330(3) 0.3208(3) 0.1983(2)
C7_45 C 0.2779(3) 0.3259(4) 0.1439(5)
C8_45 C 0.2221(3) 0.3561(5) 0.1741(4)
H5_45 H 0.3014 0.3199 0.1249
H6_45 H 0.1986 0.3751 0.1801
C10_56 C 0.2500(2) 0.3602 0.1398(2)
C12_56 C 0.2500(2) 0.3953(2) 0.1047
N6_46 N 0.0170(3) 0.4292(3) 0.6983(2)
C8_46 C 0.0279(3) 0.3939(5) 0.6741(4)
H6_46 H 0.0514 0.3749 0.6801
C10_57 C 0.0000(2) 0.3898 0.6398(2)
C12_57 C 0.0000(2) 0.3547(2) 0.6047
N5_46 N 0.9830(3) 0.4483(2) 0.6792(3)
C7_46 C 0.9721(3) 0.4241(4) 0.6439(5)
H5_46 H 0.9486 0.4301 0.6249
C10_58 C 1.0000(2) 0.3898 0.6398(2)
C12_58 C 1.0000(2) 0.3547(2) 0.6047
N5_47 N 0.7670(3) 0.9483(2) 0.5708(3)
N6_47 N 0.7330(3) 0.9292(3) 0.5517(2)
C7_47 C 0.7779(3) 0.9241(4) 0.6061(5)
C8_47 C 0.7221(3) 0.8939(5) 0.5759(4)
H5_47 H 0.8014 0.9301 0.6251
H6_47 H 0.6986 0.8749 0.5699
C10_59 C 0.7500(2) 0.8898 0.6102(2)
C12_59 C 0.7500(2) 0.8547(2) 0.6453
N5_48 N 0.4830(3) 0.8017(2) 0.0708(3)
N6_48 N 0.5170(3) 0.8208(3) 0.0517(2)
C7_48 C 0.4721(3) 0.8259(4) 0.1061(5)
C8_48 C 0.5279(3) 0.8561(5) 0.0759(4)
H5_48 H 0.4486 0.8199 0.1251
H6_48 H 0.5514 0.8751 0.0699
C10_60 C 0.5000(2) 0.8602 0.1102(2)
C12_60 C 0.5000(2) 0.8953(2) 0.1453
O1_32 O 0.7500 -0.0000 0.5000
O1_33 O 0.7500 1.0000 0.5000
O1_34 O -0.0000 0.2500 0.0000
O1_35 O -0.0000 0.2500 1.0000
O1_36 O 1.0000 0.2500 0.0000
O1_37 O 1.0000 0.2500 1.0000
O1_38 O 0.5000 0.5000 0.2500
O1_39 O 0.2500 0.7500 0.7500
O1_40 O 0.5000 0.7500 0.0000
O1_41 O 0.5000 0.7500 1.0000
O1_42 O -0.0000 -0.0000 0.2500
O1_43 O 0.0000 1.0000 0.2500
O1_44 O 1.0000 -0.0000 0.2500
O1_45 O 1.0000 1.0000 0.2500
O1_46 O 0.2500 0.5000 0.5000
O1_47 O 0.7500 0.2500 0.7500
O1_48 O 0.0000 0.5000 0.7500
O1_49 O 1.0000 0.5000 0.7500
O1_50 O 0.2500 0.0000 -0.0000
O1_51 O 0.2500 -0.0000 1.0000
O1_52 O 0.2500 1.0000 -0.0000
O1_53 O 0.2500 1.0000 1.0000
O1_54 O 0.5000 0.2500 0.5000
O1_55 O 0.7500 0.7500 0.2500
O1_56 O 0.7500 0.5000 0.0000
O1_57 O 0.7500 0.5000 1.0000
O1_58 O -0.0000 0.7500 0.5000
O1_59 O 1.0000 0.7500 0.5000
O1_60 O 0.5000 0.0000 0.7500
O1_61 O 0.5000 1.0000 0.7500
O1_62 O 0.2500 0.2500 0.2500
N9 N 0.956(4) 0.938(3) 0.0295(16)
H7 H 0.989614 0.938 0.0295
H8 H 0.944795 0.965446 0.0136541
H9 H 0.944795 0.910554 0.0136541
H10 H 0.944795 0.938 0.0611918
N9_2 N 0.294(4) 0.812(3) 0.5295(16)
H7_2 H 0.260386 0.812 0.5295
H8_2 H 0.305205 0.784554 0.513654
H9_2 H 0.305205 0.839446 0.513654
H10_2 H 0.305205 0.812 0.561192
N9_3 N 0.794(4) 0.438(3) 0.2205(16)
H7_3 H 0.760386 0.438 0.2205
H8_3 H 0.805205 0.465446 0.236346
H9_3 H 0.805205 0.410554 0.236346
H10_3 H 0.805205 0.438 0.188808
N9_4 N 0.456(4) 0.312(3) 0.7205(16)
H7_4 H 0.489614 0.312 0.7205
H8_4 H 0.444795 0.284554 0.736346
H9_4 H 0.444795 0.339446 0.736346
H10_4 H 0.444795 0.312 0.688808
N9_5 N 0.0295(16) 0.956(4) 0.938(3)
H7_5 H 0.0295 0.989614 0.938
H8_5 H 0.0136541 0.944795 0.965446
H9_5 H 0.0136541 0.944795 0.910554
H10_5 H 0.0611918 0.944795 0.938
N9_6 N 0.5295(16) 0.294(4) 0.812(3)
H7_6 H 0.5295 0.260386 0.812
H8_6 H 0.513654 0.305205 0.784554
H9_6 H 0.513654 0.305205 0.839446
H10_6 H 0.561192 0.305205 0.812
N9_7 N 0.2205(16) 0.794(4) 0.438(3)
H7_7 H 0.2205 0.760386 0.438
H8_7 H 0.236346 0.805205 0.465446
H9_7 H 0.236346 0.805205 0.410554
H10_7 H 0.188808 0.805205 0.438
N9_8 N 0.7205(16) 0.456(4) 0.312(3)
H7_8 H 0.7205 0.489614 0.312
H8_8 H 0.736346 0.444795 0.284554
H9_8 H 0.736346 0.444795 0.339446
H10_8 H 0.688808 0.444795 0.312
N9_9 N 0.938(3) 0.0295(16) 0.956(4)
H7_9 H 0.938 0.0295 0.989614
H8_9 H 0.965446 0.0136541 0.944795
H9_9 H 0.910554 0.0136541 0.944795
H10_9 H 0.938 0.0611918 0.944795
N9_10 N 0.812(3) 0.5295(16) 0.294(4)
H7_10 H 0.812 0.5295 0.260386
H8_10 H 0.784554 0.513654 0.305205
H9_10 H 0.839446 0.513654 0.305205
H10_10 H 0.812 0.561192 0.305205
N9_11 N 0.438(3) 0.2205(16) 0.794(4)
H7_11 H 0.438 0.2205 0.760386
H8_11 H 0.465446 0.236346 0.805205
H9_11 H 0.410554 0.236346 0.805205
H10_11 H 0.438 0.188808 0.805205
N9_12 N 0.312(3) 0.7205(16) 0.456(4)
H7_12 H 0.312 0.7205 0.489614
H8_12 H 0.284554 0.736346 0.444795
H9_12 H 0.339446 0.736346 0.444795
H10_12 H 0.312 0.688808 0.444795
N9_13 N 0.688(3) 0.206(4) 0.9705(16)
H7_13 H 0.688 0.239614 0.9705
H8_13 H 0.715446 0.194795 0.986346
H9_13 H 0.660554 0.194795 0.986346
H10_13 H 0.688 0.194795 0.938808
N9_14 N 0.562(3) 0.544(4) 0.4705(16)
H7_14 H 0.562 0.510386 0.4705
H8_14 H 0.534554 0.555205 0.486346
H9_14 H 0.589446 0.555205 0.486346
H10_14 H 0.562 0.555205 0.438808
N9_15 N 0.188(3) 0.044(4) 0.7795(16)
H7_15 H 0.188 0.0103857 0.7795
H8_15 H 0.215446 0.0552048 0.763654
H9_15 H 0.160554 0.0552048 0.763654
H10_15 H 0.188 0.0552048 0.811192
N9_16 N 0.062(3) 0.706(4) 0.2795(16)
H7_16 H 0.062 0.739614 0.2795
H8_16 H 0.0345541 0.694795 0.263654
H9_16 H 0.0894459 0.694795 0.263654
H10_16 H 0.062 0.694795 0.311192
N9_17 N 0.706(4) 0.2795(16) 0.062(3)
H7_17 H 0.739614 0.2795 0.062
H8_17 H 0.694795 0.263654 0.0345541
H9_17 H 0.694795 0.263654 0.0894459
H10_17 H 0.694795 0.311192 0.062
N9_18 N 0.044(4) 0.7795(16) 0.188(3)
H7_18 H 0.0103857 0.7795 0.188
H8_18 H 0.0552048 0.763654 0.215446
H9_18 H 0.0552048 0.763654 0.160554
H10_18 H 0.0552048 0.811192 0.188
N9_19 N 0.544(4) 0.4705(16) 0.562(3)
H7_19 H 0.510386 0.4705 0.562
H8_19 H 0.555205 0.486346 0.534554
H9_19 H 0.555205 0.486346 0.589446
H10_19 H 0.555205 0.438808 0.562
N9_20 N 0.206(4) 0.9705(16) 0.688(3)
H7_20 H 0.239614 0.9705 0.688
H8_20 H 0.194795 0.986346 0.715446
H9_20 H 0.194795 0.986346 0.660554
H10_20 H 0.194795 0.938808 0.688
N9_21 N 0.7795(16) 0.188(3) 0.044(4)
H7_21 H 0.7795 0.188 0.0103857
H8_21 H 0.763654 0.215446 0.0552048
H9_21 H 0.763654 0.160554 0.0552048
H10_21 H 0.811192 0.188 0.0552048
N9_22 N 0.2795(16) 0.062(3) 0.706(4)
H7_22 H 0.2795 0.062 0.739614
H8_22 H 0.263654 0.0345541 0.694795
H9_22 H 0.263654 0.0894459 0.694795
H10_22 H 0.311192 0.062 0.694795
N9_23 N 0.9705(16) 0.688(3) 0.206(4)
H7_23 H 0.9705 0.688 0.239614
H8_23 H 0.986346 0.715446 0.194795
H9_23 H 0.986346 0.660554 0.194795
H10_23 H 0.938808 0.688 0.194795
N9_24 N 0.4705(16) 0.562(3) 0.544(4)
H7_24 H 0.4705 0.562 0.510386
H8_24 H 0.486346 0.534554 0.555205
H9_24 H 0.486346 0.589446 0.555205
H10_24 H 0.438808 0.562 0.555205
N9_25 N 0.956(4) 0.438(3) 0.5295(16)
H7_25 H 0.989614 0.438 0.5295
H8_25 H 0.944795 0.465446 0.513654
H9_25 H 0.944795 0.410554 0.513654
H10_25 H 0.944795 0.438 0.561192
N9_26 N 0.294(4) 0.312(3) 0.0295(16)
H7_26 H 0.260386 0.312 0.0295
H8_26 H 0.305205 0.284554 0.0136541
H9_26 H 0.305205 0.339446 0.0136541
H10_26 H 0.305205 0.312 0.0611918
N9_27 N 0.794(4) 0.938(3) 0.7205(16)
H7_27 H 0.760386 0.938 0.7205
H8_27 H 0.805205 0.965446 0.736346
H9_27 H 0.805205 0.910554 0.736346
H10_27 H 0.805205 0.938 0.688808
N9_28 N 0.456(4) 0.812(3) 0.2205(16)
H7_28 H 0.489614 0.812 0.2205
H8_28 H 0.444795 0.784554 0.236346
H9_28 H 0.444795 0.839446 0.236346
H10_28 H 0.444795 0.812 0.188808
N9_29 N 0.0295(16) 0.456(4) 0.438(3)
H7_29 H 0.0295 0.489614 0.438
H8_29 H 0.0136541 0.444795 0.465446
H9_29 H 0.0136541 0.444795 0.410554
H10_29 H 0.0611918 0.444795 0.438
N9_30 N 0.5295(16) 0.794(4) 0.312(3)
H7_30 H 0.5295 0.760386 0.312
H8_30 H 0.513654 0.805205 0.284554
H9_30 H 0.513654 0.805205 0.339446
H10_30 H 0.561192 0.805205 0.312
N9_31 N 0.2205(16) 0.294(4) 0.938(3)
H7_31 H 0.2205 0.260386 0.938
H8_31 H 0.236346 0.305205 0.965446
H9_31 H 0.236346 0.305205 0.910554
H10_31 H 0.188808 0.305205 0.938
N9_32 N 0.7205(16) 0.956(4) 0.812(3)
H7_32 H 0.7205 0.989614 0.812
H8_32 H 0.736346 0.944795 0.784554
H9_32 H 0.736346 0.944795 0.839446
H10_32 H 0.688808 0.944795 0.812
N9_33 N 0.938(3) 0.5295(16) 0.456(4)
H7_33 H 0.938 0.5295 0.489614
H8_33 H 0.965446 0.513654 0.444795
H9_33 H 0.910554 0.513654 0.444795
H10_33 H 0.938 0.561192 0.444795
N9_34 N 0.812(3) 0.0295(16) 0.794(4)
H7_34 H 0.812 0.0295 0.760386
H8_34 H 0.784554 0.0136541 0.805205
H9_34 H 0.839446 0.0136541 0.805205
H10_34 H 0.812 0.0611918 0.805205
N9_35 N 0.438(3) 0.7205(16) 0.294(4)
H7_35 H 0.438 0.7205 0.260386
H8_35 H 0.465446 0.736346 0.305205
H9_35 H 0.410554 0.736346 0.305205
H10_35 H 0.438 0.688808 0.305205
N9_36 N 0.312(3) 0.2205(16) 0.956(4)
H7_36 H 0.312 0.2205 0.989614
H8_36 H 0.284554 0.236346 0.944795
H9_36 H 0.339446 0.236346 0.944795
H10_36 H 0.312 0.188808 0.944795
N9_37 N 0.688(3) 0.706(4) 0.4705(16)
H7_37 H 0.688 0.739614 0.4705
H8_37 H 0.715446 0.694795 0.486346
H9_37 H 0.660554 0.694795 0.486346
H10_37 H 0.688 0.694795 0.438808
N9_38 N 0.562(3) 0.044(4) 0.9705(16)
H7_38 H 0.562 0.0103857 0.9705
H8_38 H 0.534554 0.0552048 0.986346
H9_38 H 0.589446 0.0552048 0.986346
H10_38 H 0.562 0.0552048 0.938808
N9_39 N 0.188(3) 0.544(4) 0.2795(16)
H7_39 H 0.188 0.510386 0.2795
H8_39 H 0.215446 0.555205 0.263654
H9_39 H 0.160554 0.555205 0.263654
H10_39 H 0.188 0.555205 0.311192
N9_40 N 0.062(3) 0.206(4) 0.7795(16)
H7_40 H 0.062 0.239614 0.7795
H8_40 H 0.0345541 0.194795 0.763654
H9_40 H 0.0894459 0.194795 0.763654
H10_40 H 0.062 0.194795 0.811192
N9_41 N 0.706(4) 0.7795(16) 0.562(3)
H7_41 H 0.739614 0.7795 0.562
H8_41 H 0.694795 0.763654 0.534554
H9_41 H 0.694795 0.763654 0.589446
H10_41 H 0.694795 0.811192 0.562
N9_42 N 0.044(4) 0.2795(16) 0.688(3)
H7_42 H 0.0103857 0.2795 0.688
H8_42 H 0.0552048 0.263654 0.715446
H9_42 H 0.0552048 0.263654 0.660554
H10_42 H 0.0552048 0.311192 0.688
N9_43 N 0.544(4) 0.9705(16) 0.062(3)
H7_43 H 0.510386 0.9705 0.062
H8_43 H 0.555205 0.986346 0.0345541
H9_43 H 0.555205 0.986346 0.0894459
H10_43 H 0.555205 0.938808 0.062
N9_44 N 0.206(4) 0.4705(16) 0.188(3)
H7_44 H 0.239614 0.4705 0.188
H8_44 H 0.194795 0.486346 0.215446
H9_44 H 0.194795 0.486346 0.160554
H10_44 H 0.194795 0.438808 0.188
N9_45 N 0.7795(16) 0.688(3) 0.544(4)
H7_45 H 0.7795 0.688 0.510386
H8_45 H 0.763654 0.715446 0.555205
H9_45 H 0.763654 0.660554 0.555205
H10_45 H 0.811192 0.688 0.555205
N9_46 N 0.2795(16) 0.562(3) 0.206(4)
H7_46 H 0.2795 0.562 0.239614
H8_46 H 0.263654 0.534554 0.194795
H9_46 H 0.263654 0.589446 0.194795
H10_46 H 0.311192 0.562 0.194795
N9_47 N 0.9705(16) 0.188(3) 0.706(4)
H7_47 H 0.9705 0.188 0.739614
H8_47 H 0.986346 0.215446 0.694795
H9_47 H 0.986346 0.160554 0.694795
H10_47 H 0.938808 0.188 0.694795
N9_48 N 0.4705(16) 0.062(3) 0.044(4)
H7_48 H 0.4705 0.062 0.0103857
H8_48 H 0.486346 0.0345541 0.0552048
H9_48 H 0.486346 0.0894459 0.0552048
H10_48 H 0.438808 0.062 0.0552048
N9_49 N 0.456(4) 0.938(3) 0.5295(16)
H7_49 H 0.489614 0.938 0.5295
H8_49 H 0.444795 0.965446 0.513654
H9_49 H 0.444795 0.910554 0.513654
H10_49 H 0.444795 0.938 0.561192
N9_50 N 0.794(4) 0.812(3) 0.0295(16)
H7_50 H 0.760386 0.812 0.0295
H8_50 H 0.805205 0.784554 0.0136541
H9_50 H 0.805205 0.839446 0.0136541
H10_50 H 0.805205 0.812 0.0611918
N9_51 N 0.294(4) 0.438(3) 0.7205(16)
H7_51 H 0.260386 0.438 0.7205
H8_51 H 0.305205 0.465446 0.736346
H9_51 H 0.305205 0.410554 0.736346
H10_51 H 0.305205 0.438 0.688808
N9_52 N 0.956(4) 0.312(3) 0.2205(16)
H7_52 H 0.989614 0.312 0.2205
H8_52 H 0.944795 0.284554 0.236346
H9_52 H 0.944795 0.339446 0.236346
H10_52 H 0.944795 0.312 0.188808
N9_53 N 0.5295(16) 0.956(4) 0.438(3)
H7_53 H 0.5295 0.989614 0.438
H8_53 H 0.513654 0.944795 0.465446
H9_53 H 0.513654 0.944795 0.410554
H10_53 H 0.561192 0.944795 0.438
N9_54 N 0.0295(16) 0.294(4) 0.312(3)
H7_54 H 0.0295 0.260386 0.312
H8_54 H 0.0136541 0.305205 0.284554
H9_54 H 0.0136541 0.305205 0.339446
H10_54 H 0.0611918 0.305205 0.312
N9_55 N 0.7205(16) 0.794(4) 0.938(3)
H7_55 H 0.7205 0.760386 0.938
H8_55 H 0.736346 0.805205 0.965446
H9_55 H 0.736346 0.805205 0.910554
H10_55 H 0.688808 0.805205 0.938
N9_56 N 0.2205(16) 0.456(4) 0.812(3)
H7_56 H 0.2205 0.489614 0.812
H8_56 H 0.236346 0.444795 0.784554
H9_56 H 0.236346 0.444795 0.839446
H10_56 H 0.188808 0.444795 0.812
N9_57 N 0.438(3) 0.0295(16) 0.456(4)
H7_57 H 0.438 0.0295 0.489614
H8_57 H 0.465446 0.0136541 0.444795
H9_57 H 0.410554 0.0136541 0.444795
H10_57 H 0.438 0.0611918 0.444795
N9_58 N 0.312(3) 0.5295(16) 0.794(4)
H7_58 H 0.312 0.5295 0.760386
H8_58 H 0.284554 0.513654 0.805205
H9_58 H 0.339446 0.513654 0.805205
H10_58 H 0.312 0.561192 0.805205
N9_59 N 0.938(3) 0.2205(16) 0.294(4)
H7_59 H 0.938 0.2205 0.260386
H8_59 H 0.965446 0.236346 0.305205
H9_59 H 0.910554 0.236346 0.305205
H10_59 H 0.938 0.188808 0.305205
N9_60 N 0.812(3) 0.7205(16) 0.956(4)
H7_60 H 0.812 0.7205 0.989614
H8_60 H 0.784554 0.736346 0.944795
H9_60 H 0.839446 0.736346 0.944795
H10_60 H 0.812 0.688808 0.944795
N9_61 N 0.188(3) 0.206(4) 0.4705(16)
H7_61 H 0.188 0.239614 0.4705
H8_61 H 0.215446 0.194795 0.486346
H9_61 H 0.160554 0.194795 0.486346
H10_61 H 0.188 0.194795 0.438808
N9_62 N 0.062(3) 0.544(4) 0.9705(16)
H7_62 H 0.062 0.510386 0.9705
H8_62 H 0.0345541 0.555205 0.986346
H9_62 H 0.0894459 0.555205 0.986346
H10_62 H 0.062 0.555205 0.938808
N9_63 N 0.688(3) 0.044(4) 0.2795(16)
H7_63 H 0.688 0.0103857 0.2795
H8_63 H 0.715446 0.0552048 0.263654
H9_63 H 0.660554 0.0552048 0.263654
H10_63 H 0.688 0.0552048 0.311192
N9_64 N 0.562(3) 0.706(4) 0.7795(16)
H7_64 H 0.562 0.739614 0.7795
H8_64 H 0.534554 0.694795 0.763654
H9_64 H 0.589446 0.694795 0.763654
H10_64 H 0.562 0.694795 0.811192
N9_65 N 0.206(4) 0.2795(16) 0.562(3)
H7_65 H 0.239614 0.2795 0.562
H8_65 H 0.194795 0.263654 0.534554
H9_65 H 0.194795 0.263654 0.589446
H10_65 H 0.194795 0.311192 0.562
N9_66 N 0.544(4) 0.7795(16) 0.688(3)
H7_66 H 0.510386 0.7795 0.688
H8_66 H 0.555205 0.763654 0.715446
H9_66 H 0.555205 0.763654 0.660554
H10_66 H 0.555205 0.811192 0.688
N9_67 N 0.044(4) 0.4705(16) 0.062(3)
H7_67 H 0.0103857 0.4705 0.062
H8_67 H 0.0552048 0.486346 0.0345541
H9_67 H 0.0552048 0.486346 0.0894459
H10_67 H 0.0552048 0.438808 0.062
N9_68 N 0.706(4) 0.9705(16) 0.188(3)
H7_68 H 0.739614 0.9705 0.188
H8_68 H 0.694795 0.986346 0.215446
H9_68 H 0.694795 0.986346 0.160554
H10_68 H 0.694795 0.938808 0.188
N9_69 N 0.2795(16) 0.188(3) 0.544(4)
H7_69 H 0.2795 0.188 0.510386
H8_69 H 0.263654 0.215446 0.555205
H9_69 H 0.263654 0.160554 0.555205
H10_69 H 0.311192 0.188 0.555205
N9_70 N 0.7795(16) 0.062(3) 0.206(4)
H7_70 H 0.7795 0.062 0.239614
H8_70 H 0.763654 0.0345541 0.194795
H9_70 H 0.763654 0.0894459 0.194795
H10_70 H 0.811192 0.062 0.194795
N9_71 N 0.4705(16) 0.688(3) 0.706(4)
H7_71 H 0.4705 0.688 0.739614
H8_71 H 0.486346 0.715446 0.694795
H9_71 H 0.486346 0.660554 0.694795
H10_71 H 0.438808 0.688 0.694795
N9_72 N 0.9705(16) 0.562(3) 0.044(4)
H7_72 H 0.9705 0.562 0.0103857
H8_72 H 0.986346 0.534554 0.0552048
H9_72 H 0.986346 0.589446 0.0552048
H10_72 H 0.938808 0.562 0.0552048
N9_73 N 0.456(4) 0.438(3) 0.0295(16)
H7_73 H 0.489614 0.438 0.0295
H8_73 H 0.444795 0.465446 0.0136541
H9_73 H 0.444795 0.410554 0.0136541
H10_73 H 0.444795 0.438 0.0611918
N9_74 N 0.794(4) 0.312(3) 0.5295(16)
H7_74 H 0.760386 0.312 0.5295
H8_74 H 0.805205 0.284554 0.513654
H9_74 H 0.805205 0.339446 0.513654
H10_74 H 0.805205 0.312 0.561192
N9_75 N 0.294(4) 0.938(3) 0.2205(16)
H7_75 H 0.260386 0.938 0.2205
H8_75 H 0.305205 0.965446 0.236346
H9_75 H 0.305205 0.910554 0.236346
H10_75 H 0.305205 0.938 0.188808
N9_76 N 0.956(4) 0.812(3) 0.7205(16)
H7_76 H 0.989614 0.812 0.7205
H8_76 H 0.944795 0.784554 0.736346
H9_76 H 0.944795 0.839446 0.736346
H10_76 H 0.944795 0.812 0.688808
N9_77 N 0.5295(16) 0.456(4) 0.938(3)
H7_77 H 0.5295 0.489614 0.938
H8_77 H 0.513654 0.444795 0.965446
H9_77 H 0.513654 0.444795 0.910554
H10_77 H 0.561192 0.444795 0.938
N9_78 N 0.0295(16) 0.794(4) 0.812(3)
H7_78 H 0.0295 0.760386 0.812
H8_78 H 0.0136541 0.805205 0.784554
H9_78 H 0.0136541 0.805205 0.839446
H10_78 H 0.0611918 0.805205 0.812
N9_79 N 0.7205(16) 0.294(4) 0.438(3)
H7_79 H 0.7205 0.260386 0.438
H8_79 H 0.736346 0.305205 0.465446
H9_79 H 0.736346 0.305205 0.410554
H10_79 H 0.688808 0.305205 0.438
N9_80 N 0.2205(16) 0.956(4) 0.312(3)
H7_80 H 0.2205 0.989614 0.312
H8_80 H 0.236346 0.944795 0.284554
H9_80 H 0.236346 0.944795 0.339446
H10_80 H 0.188808 0.944795 0.312
N9_81 N 0.438(3) 0.5295(16) 0.956(4)
H7_81 H 0.438 0.5295 0.989614
H8_81 H 0.465446 0.513654 0.944795
H9_81 H 0.410554 0.513654 0.944795
H10_81 H 0.438 0.561192 0.944795
N9_82 N 0.312(3) 0.0295(16) 0.294(4)
H7_82 H 0.312 0.0295 0.260386
H8_82 H 0.284554 0.0136541 0.305205
H9_82 H 0.339446 0.0136541 0.305205
H10_82 H 0.312 0.0611918 0.305205
N9_83 N 0.938(3) 0.7205(16) 0.794(4)
H7_83 H 0.938 0.7205 0.760386
H8_83 H 0.965446 0.736346 0.805205
H9_83 H 0.910554 0.736346 0.805205
H10_83 H 0.938 0.688808 0.805205
N9_84 N 0.812(3) 0.2205(16) 0.456(4)
H7_84 H 0.812 0.2205 0.489614
H8_84 H 0.784554 0.236346 0.444795
H9_84 H 0.839446 0.236346 0.444795
H10_84 H 0.812 0.188808 0.444795
N9_85 N 0.188(3) 0.706(4) 0.9705(16)
H7_85 H 0.188 0.739614 0.9705
H8_85 H 0.215446 0.694795 0.986346
H9_85 H 0.160554 0.694795 0.986346
H10_85 H 0.188 0.694795 0.938808
N9_86 N 0.062(3) 0.044(4) 0.4705(16)
H7_86 H 0.062 0.0103857 0.4705
H8_86 H 0.0345541 0.0552048 0.486346
H9_86 H 0.0894459 0.0552048 0.486346
H10_86 H 0.062 0.0552048 0.438808
N9_87 N 0.688(3) 0.544(4) 0.7795(16)
H7_87 H 0.688 0.510386 0.7795
H8_87 H 0.715446 0.555205 0.763654
H9_87 H 0.660554 0.555205 0.763654
H10_87 H 0.688 0.555205 0.811192
N9_88 N 0.562(3) 0.206(4) 0.2795(16)
H7_88 H 0.562 0.239614 0.2795
H8_88 H 0.534554 0.194795 0.263654
H9_88 H 0.589446 0.194795 0.263654
H10_88 H 0.562 0.194795 0.311192
N9_89 N 0.206(4) 0.7795(16) 0.062(3)
H7_89 H 0.239614 0.7795 0.062
H8_89 H 0.194795 0.763654 0.0345541
H9_89 H 0.194795 0.763654 0.0894459
H10_89 H 0.194795 0.811192 0.062
N9_90 N 0.544(4) 0.2795(16) 0.188(3)
H7_90 H 0.510386 0.2795 0.188
H8_90 H 0.555205 0.263654 0.215446
H9_90 H 0.555205 0.263654 0.160554
H10_90 H 0.555205 0.311192 0.188
N9_91 N 0.044(4) 0.9705(16) 0.562(3)
H7_91 H 0.0103857 0.9705 0.562
H8_91 H 0.0552048 0.986346 0.534554
H9_91 H 0.0552048 0.986346 0.589446
H10_91 H 0.0552048 0.938808 0.562
N9_92 N 0.706(4) 0.4705(16) 0.688(3)
H7_92 H 0.739614 0.4705 0.688
H8_92 H 0.694795 0.486346 0.715446
H9_92 H 0.694795 0.486346 0.660554
H10_92 H 0.694795 0.438808 0.688
N9_93 N 0.2795(16) 0.688(3) 0.044(4)
H7_93 H 0.2795 0.688 0.0103857
H8_93 H 0.263654 0.715446 0.0552048
H9_93 H 0.263654 0.660554 0.0552048
H10_93 H 0.311192 0.688 0.0552048
N9_94 N 0.7795(16) 0.562(3) 0.706(4)
H7_94 H 0.7795 0.562 0.739614
H8_94 H 0.763654 0.534554 0.694795
H9_94 H 0.763654 0.589446 0.694795
H10_94 H 0.811192 0.562 0.694795
N9_95 N 0.4705(16) 0.188(3) 0.206(4)
H7_95 H 0.4705 0.188 0.239614
H8_95 H 0.486346 0.215446 0.194795
H9_95 H 0.486346 0.160554 0.194795
H10_95 H 0.438808 0.188 0.194795
N9_96 N 0.9705(16) 0.062(3) 0.544(4)
H7_96 H 0.9705 0.062 0.510386
H8_96 H 0.986346 0.0345541 0.555205
H9_96 H 0.986346 0.0894459 0.555205
H10_96 H 0.938808 0.062 0.555205
N9_97 N 0.044(4) 0.062(3) 0.9705(16)
H7_97 H 0.0103857 0.062 0.9705
H8_97 H 0.0552048 0.0345541 0.986346
H9_97 H 0.0552048 0.0894459 0.986346
H10_97 H 0.0552048 0.062 0.938808
N9_98 N 0.706(4) 0.188(3) 0.4705(16)
H7_98 H 0.739614 0.188 0.4705
H8_98 H 0.694795 0.215446 0.486346
H9_98 H 0.694795 0.160554 0.486346
H10_98 H 0.694795 0.188 0.438808
N9_99 N 0.206(4) 0.562(3) 0.7795(16)
H7_99 H 0.239614 0.562 0.7795
H8_99 H 0.194795 0.534554 0.763654
H9_99 H 0.194795 0.589446 0.763654
H10_99 H 0.194795 0.562 0.811192
N9_100 N 0.544(4) 0.688(3) 0.2795(16)
H7_100 H 0.510386 0.688 0.2795
H8_100 H 0.555205 0.715446 0.263654
H9_100 H 0.555205 0.660554 0.263654
H10_100 H 0.555205 0.688 0.311192
N9_101 N 0.9705(16) 0.044(4) 0.062(3)
H7_101 H 0.9705 0.0103857 0.062
H8_101 H 0.986346 0.0552048 0.0345541
H9_101 H 0.986346 0.0552048 0.0894459
H10_101 H 0.938808 0.0552048 0.062
N9_102 N 0.4705(16) 0.706(4) 0.188(3)
H7_102 H 0.4705 0.739614 0.188
H8_102 H 0.486346 0.694795 0.215446
H9_102 H 0.486346 0.694795 0.160554
H10_102 H 0.438808 0.694795 0.188
N9_103 N 0.7795(16) 0.206(4) 0.562(3)
H7_103 H 0.7795 0.239614 0.562
H8_103 H 0.763654 0.194795 0.534554
H9_103 H 0.763654 0.194795 0.589446
H10_103 H 0.811192 0.194795 0.562
N9_104 N 0.2795(16) 0.544(4) 0.688(3)
H7_104 H 0.2795 0.510386 0.688
H8_104 H 0.263654 0.555205 0.715446
H9_104 H 0.263654 0.555205 0.660554
H10_104 H 0.311192 0.555205 0.688
N9_105 N 0.062(3) 0.9705(16) 0.044(4)
H7_105 H 0.062 0.9705 0.0103857
H8_105 H 0.0345541 0.986346 0.0552048
H9_105 H 0.0894459 0.986346 0.0552048
H10_105 H 0.062 0.938808 0.0552048
N9_106 N 0.188(3) 0.4705(16) 0.706(4)
H7_106 H 0.188 0.4705 0.739614
H8_106 H 0.215446 0.486346 0.694795
H9_106 H 0.160554 0.486346 0.694795
H10_106 H 0.188 0.438808 0.694795
N9_107 N 0.562(3) 0.7795(16) 0.206(4)
H7_107 H 0.562 0.7795 0.239614
H8_107 H 0.534554 0.763654 0.194795
H9_107 H 0.589446 0.763654 0.194795
H10_107 H 0.562 0.811192 0.194795
N9_108 N 0.688(3) 0.2795(16) 0.544(4)
H7_108 H 0.688 0.2795 0.510386
H8_108 H 0.715446 0.263654 0.555205
H9_108 H 0.660554 0.263654 0.555205
H10_108 H 0.688 0.311192 0.555205
N9_109 N 0.312(3) 0.794(4) 0.0295(16)
H7_109 H 0.312 0.760386 0.0295
H8_109 H 0.284554 0.805205 0.0136541
H9_109 H 0.339446 0.805205 0.0136541
H10_109 H 0.312 0.805205 0.0611918
N9_110 N 0.438(3) 0.456(4) 0.5295(16)
H7_110 H 0.438 0.489614 0.5295
H8_110 H 0.465446 0.444795 0.513654
H9_110 H 0.410554 0.444795 0.513654
H10_110 H 0.438 0.444795 0.561192
N9_111 N 0.812(3) 0.956(4) 0.2205(16)
H7_111 H 0.812 0.989614 0.2205
H8_111 H 0.784554 0.944795 0.236346
H9_111 H 0.839446 0.944795 0.236346
H10_111 H 0.812 0.944795 0.188808
N9_112 N 0.938(3) 0.294(4) 0.7205(16)
H7_112 H 0.938 0.260386 0.7205
H8_112 H 0.965446 0.305205 0.736346
H9_112 H 0.910554 0.305205 0.736346
H10_112 H 0.938 0.305205 0.688808
N9_113 N 0.294(4) 0.7205(16) 0.938(3)
H7_113 H 0.260386 0.7205 0.938
H8_113 H 0.305205 0.736346 0.965446
H9_113 H 0.305205 0.736346 0.910554
H10_113 H 0.305205 0.688808 0.938
N9_114 N 0.956(4) 0.2205(16) 0.812(3)
H7_114 H 0.989614 0.2205 0.812
H8_114 H 0.944795 0.236346 0.784554
H9_114 H 0.944795 0.236346 0.839446
H10_114 H 0.944795 0.188808 0.812
N9_115 N 0.456(4) 0.5295(16) 0.438(3)
H7_115 H 0.489614 0.5295 0.438
H8_115 H 0.444795 0.513654 0.465446
H9_115 H 0.444795 0.513654 0.410554
H10_115 H 0.444795 0.561192 0.438
N9_116 N 0.794(4) 0.0295(16) 0.312(3)
H7_116 H 0.760386 0.0295 0.312
H8_116 H 0.805205 0.0136541 0.284554
H9_116 H 0.805205 0.0136541 0.339446
H10_116 H 0.805205 0.0611918 0.312
N9_117 N 0.2205(16) 0.812(3) 0.956(4)
H7_117 H 0.2205 0.812 0.989614
H8_117 H 0.236346 0.784554 0.944795
H9_117 H 0.236346 0.839446 0.944795
H10_117 H 0.188808 0.812 0.944795
N9_118 N 0.7205(16) 0.938(3) 0.294(4)
H7_118 H 0.7205 0.938 0.260386
H8_118 H 0.736346 0.965446 0.305205
H9_118 H 0.736346 0.910554 0.305205
H10_118 H 0.688808 0.938 0.305205
N9_119 N 0.0295(16) 0.312(3) 0.794(4)
H7_119 H 0.0295 0.312 0.760386
H8_119 H 0.0136541 0.284554 0.805205
H9_119 H 0.0136541 0.339446 0.805205
H10_119 H 0.0611918 0.312 0.805205
N9_120 N 0.5295(16) 0.438(3) 0.456(4)
H7_120 H 0.5295 0.438 0.489614
H8_120 H 0.513654 0.465446 0.444795
H9_120 H 0.513654 0.410554 0.444795
H10_120 H 0.561192 0.438 0.444795
N9_121 N 0.044(4) 0.562(3) 0.4705(16)
H7_121 H 0.0103857 0.562 0.4705
H8_121 H 0.0552048 0.534554 0.486346
H9_121 H 0.0552048 0.589446 0.486346
H10_121 H 0.0552048 0.562 0.438808
N9_122 N 0.706(4) 0.688(3) 0.9705(16)
H7_122 H 0.739614 0.688 0.9705
H8_122 H 0.694795 0.715446 0.986346
H9_122 H 0.694795 0.660554 0.986346
H10_122 H 0.694795 0.688 0.938808
N9_123 N 0.206(4) 0.062(3) 0.2795(16)
H7_123 H 0.239614 0.062 0.2795
H8_123 H 0.194795 0.0345541 0.263654
H9_123 H 0.194795 0.0894459 0.263654
H10_123 H 0.194795 0.062 0.311192
N9_124 N 0.544(4) 0.188(3) 0.7795(16)
H7_124 H 0.510386 0.188 0.7795
H8_124 H 0.555205 0.215446 0.763654
H9_124 H 0.555205 0.160554 0.763654
H10_124 H 0.555205 0.188 0.811192
N9_125 N 0.9705(16) 0.544(4) 0.562(3)
H7_125 H 0.9705 0.510386 0.562
H8_125 H 0.986346 0.555205 0.534554
H9_125 H 0.986346 0.555205 0.589446
H10_125 H 0.938808 0.555205 0.562
N9_126 N 0.4705(16) 0.206(4) 0.688(3)
H7_126 H 0.4705 0.239614 0.688
H8_126 H 0.486346 0.194795 0.715446
H9_126 H 0.486346 0.194795 0.660554
H10_126 H 0.438808 0.194795 0.688
N9_127 N 0.7795(16) 0.706(4) 0.062(3)
H7_127 H 0.7795 0.739614 0.062
H8_127 H 0.763654 0.694795 0.0345541
H9_127 H 0.763654 0.694795 0.0894459
H10_127 H 0.811192 0.694795 0.062
N9_128 N 0.2795(16) 0.044(4) 0.188(3)
H7_128 H 0.2795 0.0103857 0.188
H8_128 H 0.263654 0.0552048 0.215446
H9_128 H 0.263654 0.0552048 0.160554
H10_128 H 0.311192 0.0552048 0.188
N9_129 N 0.062(3) 0.4705(16) 0.544(4)
H7_129 H 0.062 0.4705 0.510386
H8_129 H 0.0345541 0.486346 0.555205
H9_129 H 0.0894459 0.486346 0.555205
H10_129 H 0.062 0.438808 0.555205
N9_130 N 0.188(3) 0.9705(16) 0.206(4)
H7_130 H 0.188 0.9705 0.239614
H8_130 H 0.215446 0.986346 0.194795
H9_130 H 0.160554 0.986346 0.194795
H10_130 H 0.188 0.938808 0.194795
N9_131 N 0.562(3) 0.2795(16) 0.706(4)
H7_131 H 0.562 0.2795 0.739614
H8_131 H 0.534554 0.263654 0.694795
H9_131 H 0.589446 0.263654 0.694795
H10_131 H 0.562 0.311192 0.694795
N9_132 N 0.688(3) 0.7795(16) 0.044(4)
H7_132 H 0.688 0.7795 0.0103857
H8_132 H 0.715446 0.763654 0.0552048
H9_132 H 0.660554 0.763654 0.0552048
H10_132 H 0.688 0.811192 0.0552048
N9_133 N 0.312(3) 0.294(4) 0.5295(16)
H7_133 H 0.312 0.260386 0.5295
H8_133 H 0.284554 0.305205 0.513654
H9_133 H 0.339446 0.305205 0.513654
H10_133 H 0.312 0.305205 0.561192
N9_134 N 0.438(3) 0.956(4) 0.0295(16)
H7_134 H 0.438 0.989614 0.0295
H8_134 H 0.465446 0.944795 0.0136541
H9_134 H 0.410554 0.944795 0.0136541
H10_134 H 0.438 0.944795 0.0611918
N9_135 N 0.812(3) 0.456(4) 0.7205(16)
H7_135 H 0.812 0.489614 0.7205
H8_135 H 0.784554 0.444795 0.736346
H9_135 H 0.839446 0.444795 0.736346
H10_135 H 0.812 0.444795 0.688808
N9_136 N 0.938(3) 0.794(4) 0.2205(16)
H7_136 H 0.938 0.760386 0.2205
H8_136 H 0.965446 0.805205 0.236346
H9_136 H 0.910554 0.805205 0.236346
H10_136 H 0.938 0.805205 0.188808
N9_137 N 0.294(4) 0.2205(16) 0.438(3)
H7_137 H 0.260386 0.2205 0.438
H8_137 H 0.305205 0.236346 0.465446
H9_137 H 0.305205 0.236346 0.410554
H10_137 H 0.305205 0.188808 0.438
N9_138 N 0.956(4) 0.7205(16) 0.312(3)
H7_138 H 0.989614 0.7205 0.312
H8_138 H 0.944795 0.736346 0.284554
H9_138 H 0.944795 0.736346 0.339446
H10_138 H 0.944795 0.688808 0.312
N9_139 N 0.456(4) 0.0295(16) 0.938(3)
H7_139 H 0.489614 0.0295 0.938
H8_139 H 0.444795 0.0136541 0.965446
H9_139 H 0.444795 0.0136541 0.910554
H10_139 H 0.444795 0.0611918 0.938
N9_140 N 0.794(4) 0.5295(16) 0.812(3)
H7_140 H 0.760386 0.5295 0.812
H8_140 H 0.805205 0.513654 0.784554
H9_140 H 0.805205 0.513654 0.839446
H10_140 H 0.805205 0.561192 0.812
N9_141 N 0.2205(16) 0.312(3) 0.456(4)
H7_141 H 0.2205 0.312 0.489614
H8_141 H 0.236346 0.284554 0.444795
H9_141 H 0.236346 0.339446 0.444795
H10_141 H 0.188808 0.312 0.444795
N9_142 N 0.7205(16) 0.438(3) 0.794(4)
H7_142 H 0.7205 0.438 0.760386
H8_142 H 0.736346 0.465446 0.805205
H9_142 H 0.736346 0.410554 0.805205
H10_142 H 0.688808 0.438 0.805205
N9_143 N 0.0295(16) 0.812(3) 0.294(4)
H7_143 H 0.0295 0.812 0.260386
H8_143 H 0.0136541 0.784554 0.305205
H9_143 H 0.0136541 0.839446 0.305205
H10_143 H 0.0611918 0.812 0.305205
N9_144 N 0.5295(16) 0.938(3) 0.956(4)
H7_144 H 0.5295 0.938 0.989614
H8_144 H 0.513654 0.965446 0.944795
H9_144 H 0.513654 0.910554 0.944795
H10_144 H 0.561192 0.938 0.944795
N9_145 N 0.544(4) 0.062(3) 0.4705(16)
H7_145 H 0.510386 0.062 0.4705
H8_145 H 0.555205 0.0345541 0.486346
H9_145 H 0.555205 0.0894459 0.486346
H10_145 H 0.555205 0.062 0.438808
N9_146 N 0.206(4) 0.188(3) 0.9705(16)
H7_146 H 0.239614 0.188 0.9705
H8_146 H 0.194795 0.215446 0.986346
H9_146 H 0.194795 0.160554 0.986346
H10_146 H 0.194795 0.188 0.938808
N9_147 N 0.706(4) 0.562(3) 0.2795(16)
H7_147 H 0.739614 0.562 0.2795
H8_147 H 0.694795 0.534554 0.263654
H9_147 H 0.694795 0.589446 0.263654
H10_147 H 0.694795 0.562 0.311192
N9_148 N 0.044(4) 0.688(3) 0.7795(16)
H7_148 H 0.0103857 0.688 0.7795
H8_148 H 0.0552048 0.715446 0.763654
H9_148 H 0.0552048 0.660554 0.763654
H10_148 H 0.0552048 0.688 0.811192
N9_149 N 0.4705(16) 0.044(4) 0.562(3)
H7_149 H 0.4705 0.0103857 0.562
H8_149 H 0.486346 0.0552048 0.534554
H9_149 H 0.486346 0.0552048 0.589446
H10_149 H 0.438808 0.0552048 0.562
N9_150 N 0.9705(16) 0.706(4) 0.688(3)
H7_150 H 0.9705 0.739614 0.688
H8_150 H 0.986346 0.694795 0.715446
H9_150 H 0.986346 0.694795 0.660554
H10_150 H 0.938808 0.694795 0.688
N9_151 N 0.2795(16) 0.206(4) 0.062(3)
H7_151 H 0.2795 0.239614 0.062
H8_151 H 0.263654 0.194795 0.0345541
H9_151 H 0.263654 0.194795 0.0894459
H10_151 H 0.311192 0.194795 0.062
N9_152 N 0.7795(16) 0.544(4) 0.188(3)
H7_152 H 0.7795 0.510386 0.188
H8_152 H 0.763654 0.555205 0.215446
H9_152 H 0.763654 0.555205 0.160554
H10_152 H 0.811192 0.555205 0.188
N9_153 N 0.562(3) 0.9705(16) 0.544(4)
H7_153 H 0.562 0.9705 0.510386
H8_153 H 0.534554 0.986346 0.555205
H9_153 H 0.589446 0.986346 0.555205
H10_153 H 0.562 0.938808 0.555205
N9_154 N 0.688(3) 0.4705(16) 0.206(4)
H7_154 H 0.688 0.4705 0.239614
H8_154 H 0.715446 0.486346 0.194795
H9_154 H 0.660554 0.486346 0.194795
H10_154 H 0.688 0.438808 0.194795
N9_155 N 0.062(3) 0.7795(16) 0.706(4)
H7_155 H 0.062 0.7795 0.739614
H8_155 H 0.0345541 0.763654 0.694795
H9_155 H 0.0894459 0.763654 0.694795
H10_155 H 0.062 0.811192 0.694795
N9_156 N 0.188(3) 0.2795(16) 0.044(4)
H7_156 H 0.188 0.2795 0.0103857
H8_156 H 0.215446 0.263654 0.0552048
H9_156 H 0.160554 0.263654 0.0552048
H10_156 H 0.188 0.311192 0.0552048
N9_157 N 0.812(3) 0.794(4) 0.5295(16)
H7_157 H 0.812 0.760386 0.5295
H8_157 H 0.784554 0.805205 0.513654
H9_157 H 0.839446 0.805205 0.513654
H10_157 H 0.812 0.805205 0.561192
N9_158 N 0.938(3) 0.456(4) 0.0295(16)
H7_158 H 0.938 0.489614 0.0295
H8_158 H 0.965446 0.444795 0.0136541
H9_158 H 0.910554 0.444795 0.0136541
H10_158 H 0.938 0.444795 0.0611918
N9_159 N 0.312(3) 0.956(4) 0.7205(16)
H7_159 H 0.312 0.989614 0.7205
H8_159 H 0.284554 0.944795 0.736346
H9_159 H 0.339446 0.944795 0.736346
H10_159 H 0.312 0.944795 0.688808
N9_160 N 0.438(3) 0.294(4) 0.2205(16)
H7_160 H 0.438 0.260386 0.2205
H8_160 H 0.465446 0.305205 0.236346
H9_160 H 0.410554 0.305205 0.236346
H10_160 H 0.438 0.305205 0.188808
N9_161 N 0.794(4) 0.7205(16) 0.438(3)
H7_161 H 0.760386 0.7205 0.438
H8_161 H 0.805205 0.736346 0.465446
H9_161 H 0.805205 0.736346 0.410554
H10_161 H 0.805205 0.688808 0.438
N9_162 N 0.456(4) 0.2205(16) 0.312(3)
H7_162 H 0.489614 0.2205 0.312
H8_162 H 0.444795 0.236346 0.284554
H9_162 H 0.444795 0.236346 0.339446
H10_162 H 0.444795 0.188808 0.312
N9_163 N 0.956(4) 0.5295(16) 0.938(3)
H7_163 H 0.989614 0.5295 0.938
H8_163 H 0.944795 0.513654 0.965446
H9_163 H 0.944795 0.513654 0.910554
H10_163 H 0.944795 0.561192 0.938
N9_164 N 0.294(4) 0.0295(16) 0.812(3)
H7_164 H 0.260386 0.0295 0.812
H8_164 H 0.305205 0.0136541 0.784554
H9_164 H 0.305205 0.0136541 0.839446
H10_164 H 0.305205 0.0611918 0.812
N9_165 N 0.7205(16) 0.812(3) 0.456(4)
H7_165 H 0.7205 0.812 0.489614
H8_165 H 0.736346 0.784554 0.444795
H9_165 H 0.736346 0.839446 0.444795
H10_165 H 0.688808 0.812 0.444795
N9_166 N 0.2205(16) 0.938(3) 0.794(4)
H7_166 H 0.2205 0.938 0.760386
H8_166 H 0.236346 0.965446 0.805205
H9_166 H 0.236346 0.910554 0.805205
H10_166 H 0.188808 0.938 0.805205
N9_167 N 0.5295(16) 0.312(3) 0.294(4)
H7_167 H 0.5295 0.312 0.260386
H8_167 H 0.513654 0.284554 0.305205
H9_167 H 0.513654 0.339446 0.305205
H10_167 H 0.561192 0.312 0.305205
N9_168 N 0.0295(16) 0.438(3) 0.956(4)
H7_168 H 0.0295 0.438 0.989614
H8_168 H 0.0136541 0.465446 0.944795
H9_168 H 0.0136541 0.410554 0.944795
H10_168 H 0.0611918 0.438 0.944795
N9_169 N 0.544(4) 0.562(3) 0.9705(16)
H7_169 H 0.510386 0.562 0.9705
H8_169 H 0.555205 0.534554 0.986346
H9_169 H 0.555205 0.589446 0.986346
H10_169 H 0.555205 0.562 0.938808
N9_170 N 0.206(4) 0.688(3) 0.4705(16)
H7_170 H 0.239614 0.688 0.4705
H8_170 H 0.194795 0.715446 0.486346
H9_170 H 0.194795 0.660554 0.486346
H10_170 H 0.194795 0.688 0.438808
N9_171 N 0.706(4) 0.062(3) 0.7795(16)
H7_171 H 0.739614 0.062 0.7795
H8_171 H 0.694795 0.0345541 0.763654
H9_171 H 0.694795 0.0894459 0.763654
H10_171 H 0.694795 0.062 0.811192
N9_172 N 0.044(4) 0.188(3) 0.2795(16)
H7_172 H 0.0103857 0.188 0.2795
H8_172 H 0.0552048 0.215446 0.263654
H9_172 H 0.0552048 0.160554 0.263654
H10_172 H 0.0552048 0.188 0.311192
N9_173 N 0.4705(16) 0.544(4) 0.062(3)
H7_173 H 0.4705 0.510386 0.062
H8_173 H 0.486346 0.555205 0.0345541
H9_173 H 0.486346 0.555205 0.0894459
H10_173 H 0.438808 0.555205 0.062
N9_174 N 0.9705(16) 0.206(4) 0.188(3)
H7_174 H 0.9705 0.239614 0.188
H8_174 H 0.986346 0.194795 0.215446
H9_174 H 0.986346 0.194795 0.160554
H10_174 H 0.938808 0.194795 0.188
N9_175 N 0.2795(16) 0.706(4) 0.562(3)
H7_175 H 0.2795 0.739614 0.562
H8_175 H 0.263654 0.694795 0.534554
H9_175 H 0.263654 0.694795 0.589446
H10_175 H 0.311192 0.694795 0.562
N9_176 N 0.7795(16) 0.044(4) 0.688(3)
H7_176 H 0.7795 0.0103857 0.688
H8_176 H 0.763654 0.0552048 0.715446
H9_176 H 0.763654 0.0552048 0.660554
H10_176 H 0.811192 0.0552048 0.688
N9_177 N 0.562(3) 0.4705(16) 0.044(4)
H7_177 H 0.562 0.4705 0.0103857
H8_177 H 0.534554 0.486346 0.0552048
H9_177 H 0.589446 0.486346 0.0552048
H10_177 H 0.562 0.438808 0.0552048
N9_178 N 0.688(3) 0.9705(16) 0.706(4)
H7_178 H 0.688 0.9705 0.739614
H8_178 H 0.715446 0.986346 0.694795
H9_178 H 0.660554 0.986346 0.694795
H10_178 H 0.688 0.938808 0.694795
N9_179 N 0.062(3) 0.2795(16) 0.206(4)
H7_179 H 0.062 0.2795 0.239614
H8_179 H 0.0345541 0.263654 0.194795
H9_179 H 0.0894459 0.263654 0.194795
H10_179 H 0.062 0.311192 0.194795
N9_180 N 0.188(3) 0.7795(16) 0.544(4)
H7_180 H 0.188 0.7795 0.510386
H8_180 H 0.215446 0.763654 0.555205
H9_180 H 0.160554 0.763654 0.555205
H10_180 H 0.188 0.811192 0.555205
N9_181 N 0.812(3) 0.294(4) 0.0295(16)
H7_181 H 0.812 0.260386 0.0295
H8_181 H 0.784554 0.305205 0.0136541
H9_181 H 0.839446 0.305205 0.0136541
H10_181 H 0.812 0.305205 0.0611918
N9_182 N 0.938(3) 0.956(4) 0.5295(16)
H7_182 H 0.938 0.989614 0.5295
H8_182 H 0.965446 0.944795 0.513654
H9_182 H 0.910554 0.944795 0.513654
H10_182 H 0.938 0.944795 0.561192
N9_183 N 0.312(3) 0.456(4) 0.2205(16)
H7_183 H 0.312 0.489614 0.2205
H8_183 H 0.284554 0.444795 0.236346
H9_183 H 0.339446 0.444795 0.236346
H10_183 H 0.312 0.444795 0.188808
N9_184 N 0.438(3) 0.794(4) 0.7205(16)
H7_184 H 0.438 0.760386 0.7205
H8_184 H 0.465446 0.805205 0.736346
H9_184 H 0.410554 0.805205 0.736346
H10_184 H 0.438 0.805205 0.688808
N9_185 N 0.794(4) 0.2205(16) 0.938(3)
H7_185 H 0.760386 0.2205 0.938
H8_185 H 0.805205 0.236346 0.965446
H9_185 H 0.805205 0.236346 0.910554
H10_185 H 0.805205 0.188808 0.938
N9_186 N 0.456(4) 0.7205(16) 0.812(3)
H7_186 H 0.489614 0.7205 0.812
H8_186 H 0.444795 0.736346 0.784554
H9_186 H 0.444795 0.736346 0.839446
H10_186 H 0.444795 0.688808 0.812
N9_187 N 0.956(4) 0.0295(16) 0.438(3)
H7_187 H 0.989614 0.0295 0.438
H8_187 H 0.944795 0.0136541 0.465446
H9_187 H 0.944795 0.0136541 0.410554
H10_187 H 0.944795 0.0611918 0.438
N9_188 N 0.294(4) 0.5295(16) 0.312(3)
H7_188 H 0.260386 0.5295 0.312
H8_188 H 0.305205 0.513654 0.284554
H9_188 H 0.305205 0.513654 0.339446
H10_188 H 0.305205 0.561192 0.312
N9_189 N 0.7205(16) 0.312(3) 0.956(4)
H7_189 H 0.7205 0.312 0.989614
H8_189 H 0.736346 0.284554 0.944795
H9_189 H 0.736346 0.339446 0.944795
H10_189 H 0.688808 0.312 0.944795
N9_190 N 0.2205(16) 0.438(3) 0.294(4)
H7_190 H 0.2205 0.438 0.260386
H8_190 H 0.236346 0.465446 0.305205
H9_190 H 0.236346 0.410554 0.305205
H10_190 H 0.188808 0.438 0.305205
N9_191 N 0.5295(16) 0.812(3) 0.794(4)
H7_191 H 0.5295 0.812 0.760386
H8_191 H 0.513654 0.784554 0.805205
H9_191 H 0.513654 0.839446 0.805205
H10_191 H 0.561192 0.812 0.805205
N9_192 N 0.0295(16) 0.938(3) 0.456(4)
H7_192 H 0.0295 0.938 0.489614
H8_192 H 0.0136541 0.965446 0.444795
H9_192 H 0.0136541 0.910554 0.444795
H10_192 H 0.0611918 0.938 0.444795
loop_
_geom_bond_atom_site_label_1
_geom_bond_atom_site_label_2
_geom_bond_site_symmetry_1
_geom_bond_site_symmetry_2
Cu1 O1 1_555 1_555
Cu3 O1 1_555 1_555
Cu5 O4 1_555 1_555
Cu6 N5 1_555 1_555
N3 Cu1 1_555 1_555
N4 Cu3 1_555 1_555
N8 Cu3 1_555 1_555
C5 N3 1_555 1_555
C6 N4 1_555 1_555
C7 N5 1_555 1_555
H3 C5 1_555 1_555
H4 C6 1_555 1_555
H5 C7 1_555 1_555
C9 C5 1_555 1_555
C10 C7 1_555 1_555
C11 C9 1_555 1_555
C12 C10 1_555 1_555
O4 C11 1_555 1_555
O5 Cu5 1_555 1_555
O6 Cu1 1_555 1_555
O10 Cu3 1_555 1_555
O11 Cu3 1_555 1_555
N3 N4 1_555 1_555
C6 C9 1_555 1_555
C11 O5 1_555 1_555
C12 O6 1_555 1_555
Cu1_2 O1_2 1_555 1_555
O1_2 Cu2 1_555 1_555
N1 Cu1_2 1_555 1_555
C1 N1 1_555 1_555
H1 C1 1_555 1_555
C2 C1 1_555 1_555
C3 C2 1_555 1_555
O2 C3 1_555 1_555
Cu2 N2 1_555 1_555
Cu4 O2 1_555 1_555
Cu7 N6 1_555 1_555
N2 N1 1_555 1_555
N6 C8 1_555 1_555
N7 Cu2 1_555 1_555
C4 C2 1_555 1_555
C8 H6 1_555 1_555
H2 C4 1_555 1_555
C12_2 C10_2 1_555 1_555
O3 C3 1_555 1_555
O7 Cu1_2 1_555 1_555
O8 Cu2 1_555 1_555
O9 Cu2 1_555 1_555
Cu4 O3 1_555 1_555
N2 C4 1_555 1_555
C8 C10_2 1_555 1_555
C12_2 O7 1_555 1_555
O1_3 Cu2_2 1_555 1_555
C3_2 C2_2 1_555 1_555
Cu2_2 N2_2 1_555 1_555
C4_2 C2_2 1_555 1_555
H2_2 C4_2 1_555 1_555
O3_2 C3_2 1_555 1_555
O9_2 Cu2_2 1_555 1_555
Cu4_2 O3_2 1_555 1_555
N2_2 C4_2 1_555 1_555
Cu1_3 O1_4 1_555 1_555
N1_2 Cu1_3 1_555 1_555
C1_2 N1_2 1_555 1_555
H1_2 C1_2 1_555 1_555
C2_3 C1_2 1_555 1_555
C3_3 C2_3 1_555 1_555
O2_2 C3_3 1_555 1_555
Cu4_3 O2_2 1_555 1_555
Cu5_2 O4_2 1_555 1_555
Cu6_3 N5_2 1_555 1_555
Cu7_2 N6_2 1_555 1_555
N3_2 Cu1_3 1_555 1_555
N5_2 N6_2 1_555 1_555
N6_2 C8_2 1_555 1_555
C5_2 N3_2 1_555 1_555
C7_2 N5_2 1_555 1_555
C8_2 H6_2 1_555 1_555
H3_2 C5_2 1_555 1_555
H5_2 C7_2 1_555 1_555
C9_2 C5_2 1_555 1_555
C10_3 C7_2 1_555 1_555
C11_2 C9_2 1_555 1_555
C12_3 C10_3 1_555 1_555
O4_2 C11_2 1_555 1_555
O6_2 Cu1_3 1_555 1_555
O7_2 Cu1_3 1_555 1_555
C8_2 C10_3 1_555 1_555
C12_3 O6_2 1_555 1_555
C12_3 O7_2 1_555 1_555
O1_5 Cu2_3 1_555 1_555
Cu3_2 O1_5 1_555 1_555
N7_2 Cu2_3 1_555 1_555
N8_2 Cu3_2 1_555 1_555
O8_2 Cu2_3 1_555 1_555
O10_2 Cu3_2 1_555 1_555
N7_2 N8_2 1_555 1_555
Cu3_3 O1_6 1_555 1_555
N4_2 Cu3_3 1_555 1_555
C6_2 N4_2 1_555 1_555
H4_2 C6_2 1_555 1_555
C11_3 C9_3 1_555 1_555
O5_2 Cu5_3 1_555 1_555
O11_2 Cu3_3 1_555 1_555
C6_2 C9_3 1_555 1_555
C11_3 O5_2 1_555 1_555
Cu1_4 O1_7 1_555 1_555
O1_7 Cu2_4 1_555 1_555
N1_3 Cu1_4 1_555 1_555
C1_3 N1_3 1_555 1_555
H1_3 C1_3 1_555 1_555
C2_4 C1_3 1_555 1_555
C3_4 C2_4 1_555 1_555
O2_3 C3_4 1_555 1_555
Cu2_4 N2_3 1_555 1_555
Cu3_4 O1_7 1_555 1_555
Cu4_4 O2_3 1_555 1_555
Cu5_4 O4_3 1_555 1_555
Cu6_4 N5_3 1_555 1_555
Cu7_4 N6_3 1_555 1_555
N2_3 N1_3 1_555 1_555
N3_3 Cu1_4 1_555 1_555
N4_3 Cu3_4 1_555 1_555
N5_3 N6_3 1_555 1_555
N6_3 C8_3 1_555 1_555
N7_3 Cu2_4 1_555 1_555
N8_3 Cu3_4 1_555 1_555
C4_3 C2_4 1_555 1_555
C5_3 N3_3 1_555 1_555
C6_3 N4_3 1_555 1_555
C7_3 N5_3 1_555 1_555
C8_3 H6_3 1_555 1_555
H2_3 C4_3 1_555 1_555
H3_3 C5_3 1_555 1_555
H4_3 C6_3 1_555 1_555
H5_3 C7_3 1_555 1_555
C9_4 C5_3 1_555 1_555
C10_4 C7_3 1_555 1_555
C11_4 C9_4 1_555 1_555
C12_4 C10_4 1_555 1_555
O3_3 C3_4 1_555 1_555
O4_3 C11_4 1_555 1_555
O5_3 Cu5_4 1_555 1_555
O6_3 Cu1_4 1_555 1_555
O7_3 Cu1_4 1_555 1_555
O8_3 Cu2_4 1_555 1_555
O9_3 Cu2_4 1_555 1_555
O10_3 Cu3_4 1_555 1_555
O11_3 Cu3_4 1_555 1_555
Cu4_4 O3_3 1_555 1_555
N2_3 C4_3 1_555 1_555
N3_3 N4_3 1_555 1_555
N7_3 N8_3 1_555 1_555
C6_3 C9_4 1_555 1_555
C8_3 C10_4 1_555 1_555
C11_4 O5_3 1_555 1_555
C12_4 O6_3 1_555 1_555
C12_4 O7_3 1_555 1_555
Cu1_5 O1_8 1_555 1_555
O1_8 Cu2_5 1_555 1_555
N1_4 Cu1_5 1_555 1_555
C1_4 N1_4 1_555 1_555
H1_4 C1_4 1_555 1_555
C2_5 C1_4 1_555 1_555
C3_5 C2_5 1_555 1_555
O2_4 C3_5 1_555 1_555
Cu2_5 N2_4 1_555 1_555
Cu3_5 O1_8 1_555 1_555
Cu4_5 O2_4 1_555 1_555
Cu5_5 O4_4 1_555 1_555
Cu6_5 N5_4 1_555 1_555
Cu7_5 N6_4 1_555 1_555
N2_4 N1_4 1_555 1_555
N3_4 Cu1_5 1_555 1_555
N4_4 Cu3_5 1_555 1_555
N5_4 N6_4 1_555 1_555
N6_4 C8_4 1_555 1_555
N7_4 Cu2_5 1_555 1_555
N8_4 Cu3_5 1_555 1_555
C4_4 C2_5 1_555 1_555
C5_4 N3_4 1_555 1_555
C6_4 N4_4 1_555 1_555
C7_4 N5_4 1_555 1_555
C8_4 H6_4 1_555 1_555
H2_4 C4_4 1_555 1_555
H3_4 C5_4 1_555 1_555
H4_4 C6_4 1_555 1_555
H5_4 C7_4 1_555 1_555
C9_5 C5_4 1_555 1_555
C10_5 C7_4 1_555 1_555
C11_5 C9_5 1_555 1_555
C12_5 C10_5 1_555 1_555
O3_4 C3_5 1_555 1_555
O4_4 C11_5 1_555 1_555
O5_4 Cu5_5 1_555 1_555
O6_4 Cu1_5 1_555 1_555
O7_4 Cu1_5 1_555 1_555
O8_4 Cu2_5 1_555 1_555
O9_4 Cu2_5 1_555 1_555
O10_4 Cu3_5 1_555 1_555
O11_4 Cu3_5 1_555 1_555
Cu4_5 O3_4 1_555 1_555
N2_4 C4_4 1_555 1_555
N3_4 N4_4 1_555 1_555
N7_4 N8_4 1_555 1_555
C6_4 C9_5 1_555 1_555
C8_4 C10_5 1_555 1_555
C11_5 O5_4 1_555 1_555
C12_5 O6_4 1_555 1_555
C12_5 O7_4 1_555 1_555
Cu1_6 O1_9 1_555 1_555
Cu3_6 O1_9 1_555 1_555
Cu5_6 O4_5 1_555 1_555
Cu6_6 N5_5 1_555 1_555
N3_5 Cu1_6 1_555 1_555
N4_5 Cu3_6 1_555 1_555
N8_5 Cu3_6 1_555 1_555
C5_5 N3_5 1_555 1_555
C6_5 N4_5 1_555 1_555
C7_5 N5_5 1_555 1_555
H3_5 C5_5 1_555 1_555
H4_5 C6_5 1_555 1_555
H5_5 C7_5 1_555 1_555
C9_6 C5_5 1_555 1_555
C10_6 C7_5 1_555 1_555
C11_6 C9_6 1_555 1_555
C12_6 C10_6 1_555 1_555
O4_5 C11_6 1_555 1_555
O5_5 Cu5_6 1_555 1_555
O6_5 Cu1_6 1_555 1_555
O10_5 Cu3_6 1_555 1_555
O11_5 Cu3_6 1_555 1_555
N3_5 N4_5 1_555 1_555
C6_5 C9_6 1_555 1_555
C11_6 O5_5 1_555 1_555
C12_6 O6_5 1_555 1_555
Cu1_7 O1_10 1_555 1_555
O1_10 Cu2_6 1_555 1_555
N1_5 Cu1_7 1_555 1_555
C1_5 N1_5 1_555 1_555
H1_5 C1_5 1_555 1_555
C2_6 C1_5 1_555 1_555
C3_6 C2_6 1_555 1_555
O2_5 C3_6 1_555 1_555
Cu2_6 N2_5 1_555 1_555
Cu4_6 O2_5 1_555 1_555
Cu7_6 N6_5 1_555 1_555
N2_5 N1_5 1_555 1_555
N6_5 C8_5 1_555 1_555
N7_5 Cu2_6 1_555 1_555
C4_5 C2_6 1_555 1_555
C8_5 H6_5 1_555 1_555
H2_5 C4_5 1_555 1_555
C12_7 C10_7 1_555 1_555
O3_5 C3_6 1_555 1_555
O7_5 Cu1_7 1_555 1_555
O8_5 Cu2_6 1_555 1_555
O9_5 Cu2_6 1_555 1_555
Cu4_6 O3_5 1_555 1_555
N2_5 C4_5 1_555 1_555
C8_5 C10_7 1_555 1_555
C12_7 O7_5 1_555 1_555
O1_11 Cu2_7 1_555 1_555
C3_7 C2_7 1_555 1_555
Cu2_7 N2_6 1_555 1_555
C4_6 C2_7 1_555 1_555
H2_6 C4_6 1_555 1_555
O3_6 C3_7 1_555 1_555
O9_6 Cu2_7 1_555 1_555
Cu4_7 O3_6 1_555 1_555
N2_6 C4_6 1_555 1_555
O1_12 Cu2_8 1_555 1_555
Cu3_7 O1_12 1_555 1_555
N7_6 Cu2_8 1_555 1_555
N8_6 Cu3_7 1_555 1_555
O8_6 Cu2_8 1_555 1_555
O10_6 Cu3_7 1_555 1_555
N7_6 N8_6 1_555 1_555
Cu1_8 O1_13 1_555 1_555
N1_6 Cu1_8 1_555 1_555
C1_6 N1_6 1_555 1_555
H1_6 C1_6 1_555 1_555
C2_8 C1_6 1_555 1_555
C3_8 C2_8 1_555 1_555
O2_6 C3_8 1_555 1_555
Cu4_8 O2_6 1_555 1_555
Cu5_7 O4_6 1_555 1_555
Cu6_8 N5_6 1_555 1_555
Cu7_7 N6_6 1_555 1_555
N3_6 Cu1_8 1_555 1_555
N5_6 N6_6 1_555 1_555
N6_6 C8_6 1_555 1_555
C5_6 N3_6 1_555 1_555
C7_6 N5_6 1_555 1_555
C8_6 H6_6 1_555 1_555
H3_6 C5_6 1_555 1_555
H5_6 C7_6 1_555 1_555
C9_7 C5_6 1_555 1_555
C10_8 C7_6 1_555 1_555
C11_7 C9_7 1_555 1_555
C12_8 C10_8 1_555 1_555
O4_6 C11_7 1_555 1_555
O6_6 Cu1_8 1_555 1_555
O7_6 Cu1_8 1_555 1_555
C8_6 C10_8 1_555 1_555
C12_8 O6_6 1_555 1_555
C12_8 O7_6 1_555 1_555
Cu3_8 O1_14 1_555 1_555
N4_6 Cu3_8 1_555 1_555
C6_6 N4_6 1_555 1_555
H4_6 C6_6 1_555 1_555
C11_8 C9_8 1_555 1_555
O5_6 Cu5_8 1_555 1_555
O11_6 Cu3_8 1_555 1_555
C6_6 C9_8 1_555 1_555
C11_8 O5_6 1_555 1_555
Cu1_9 O1_15 1_555 1_555
O1_15 Cu2_9 1_555 1_555
N1_7 Cu1_9 1_555 1_555
C1_7 N1_7 1_555 1_555
H1_7 C1_7 1_555 1_555
C2_9 C1_7 1_555 1_555
C3_9 C2_9 1_555 1_555
O2_7 C3_9 1_555 1_555
Cu2_9 N2_7 1_555 1_555
Cu3_9 O1_15 1_555 1_555
Cu4_9 O2_7 1_555 1_555
Cu5_9 O4_7 1_555 1_555
Cu6_9 N5_7 1_555 1_555
Cu7_9 N6_7 1_555 1_555
N2_7 N1_7 1_555 1_555
N3_7 Cu1_9 1_555 1_555
N4_7 Cu3_9 1_555 1_555
N5_7 N6_7 1_555 1_555
N6_7 C8_7 1_555 1_555
N7_7 Cu2_9 1_555 1_555
N8_7 Cu3_9 1_555 1_555
C4_7 C2_9 1_555 1_555
C5_7 N3_7 1_555 1_555
C6_7 N4_7 1_555 1_555
C7_7 N5_7 1_555 1_555
C8_7 H6_7 1_555 1_555
H2_7 C4_7 1_555 1_555
H3_7 C5_7 1_555 1_555
H4_7 C6_7 1_555 1_555
H5_7 C7_7 1_555 1_555
C9_9 C5_7 1_555 1_555
C10_9 C7_7 1_555 1_555
C11_9 C9_9 1_555 1_555
C12_9 C10_9 1_555 1_555
O3_7 C3_9 1_555 1_555
O4_7 C11_9 1_555 1_555
O5_7 Cu5_9 1_555 1_555
O6_7 Cu1_9 1_555 1_555
O7_7 Cu1_9 1_555 1_555
O8_7 Cu2_9 1_555 1_555
O9_7 Cu2_9 1_555 1_555
O10_7 Cu3_9 1_555 1_555
O11_7 Cu3_9 1_555 1_555
Cu4_9 O3_7 1_555 1_555
N2_7 C4_7 1_555 1_555
N3_7 N4_7 1_555 1_555
N7_7 N8_7 1_555 1_555
C6_7 C9_9 1_555 1_555
C8_7 C10_9 1_555 1_555
C11_9 O5_7 1_555 1_555
C12_9 O6_7 1_555 1_555
C12_9 O7_7 1_555 1_555
Cu1_10 O1_16 1_555 1_555
O1_16 Cu2_10 1_555 1_555
N1_8 Cu1_10 1_555 1_555
C1_8 N1_8 1_555 1_555
H1_8 C1_8 1_555 1_555
C2_10 C1_8 1_555 1_555
C3_10 C2_10 1_555 1_555
O2_8 C3_10 1_555 1_555
Cu2_10 N2_8 1_555 1_555
Cu3_10 O1_16 1_555 1_555
Cu4_10 O2_8 1_555 1_555
Cu5_10 O4_8 1_555 1_555
Cu6_10 N5_8 1_555 1_555
Cu7_10 N6_8 1_555 1_555
N2_8 N1_8 1_555 1_555
N3_8 Cu1_10 1_555 1_555
N4_8 Cu3_10 1_555 1_555
N5_8 N6_8 1_555 1_555
N6_8 C8_8 1_555 1_555
N7_8 Cu2_10 1_555 1_555
N8_8 Cu3_10 1_555 1_555
C4_8 C2_10 1_555 1_555
C5_8 N3_8 1_555 1_555
C6_8 N4_8 1_555 1_555
C7_8 N5_8 1_555 1_555
C8_8 H6_8 1_555 1_555
H2_8 C4_8 1_555 1_555
H3_8 C5_8 1_555 1_555
H4_8 C6_8 1_555 1_555
H5_8 C7_8 1_555 1_555
C9_10 C5_8 1_555 1_555
C10_10 C7_8 1_555 1_555
C11_10 C9_10 1_555 1_555
C12_10 C10_10 1_555 1_555
O3_8 C3_10 1_555 1_555
O4_8 C11_10 1_555 1_555
O5_8 Cu5_10 1_555 1_555
O6_8 Cu1_10 1_555 1_555
O7_8 Cu1_10 1_555 1_555
O8_8 Cu2_10 1_555 1_555
O9_8 Cu2_10 1_555 1_555
O10_8 Cu3_10 1_555 1_555
O11_8 Cu3_10 1_555 1_555
Cu4_10 O3_8 1_555 1_555
N2_8 C4_8 1_555 1_555
N3_8 N4_8 1_555 1_555
N7_8 N8_8 1_555 1_555
C6_8 C9_10 1_555 1_555
C8_8 C10_10 1_555 1_555
C11_10 O5_8 1_555 1_555
C12_10 O6_8 1_555 1_555
C12_10 O7_8 1_555 1_555
Cu1_11 O1_17 1_555 1_555
Cu3_11 O1_17 1_555 1_555
Cu5_11 O4_9 1_555 1_555
Cu6_11 N5_9 1_555 1_555
N3_9 Cu1_11 1_555 1_555
N4_9 Cu3_11 1_555 1_555
N8_9 Cu3_11 1_555 1_555
C5_9 N3_9 1_555 1_555
C6_9 N4_9 1_555 1_555
C7_9 N5_9 1_555 1_555
H3_9 C5_9 1_555 1_555
H4_9 C6_9 1_555 1_555
H5_9 C7_9 1_555 1_555
C9_11 C5_9 1_555 1_555
C10_11 C7_9 1_555 1_555
C11_11 C9_11 1_555 1_555
C12_11 C10_11 1_555 1_555
O4_9 C11_11 1_555 1_555
O5_9 Cu5_11 1_555 1_555
O6_9 Cu1_11 1_555 1_555
O10_9 Cu3_11 1_555 1_555
O11_9 Cu3_11 1_555 1_555
N3_9 N4_9 1_555 1_555
C6_9 C9_11 1_555 1_555
C11_11 O5_9 1_555 1_555
C12_11 O6_9 1_555 1_555
Cu1_12 O1_18 1_555 1_555
O1_18 Cu2_11 1_555 1_555
N1_9 Cu1_12 1_555 1_555
C1_9 N1_9 1_555 1_555
H1_9 C1_9 1_555 1_555
C2_11 C1_9 1_555 1_555
C3_11 C2_11 1_555 1_555
O2_9 C3_11 1_555 1_555
Cu2_11 N2_9 1_555 1_555
Cu4_11 O2_9 1_555 1_555
Cu7_11 N6_9 1_555 1_555
N2_9 N1_9 1_555 1_555
N6_9 C8_9 1_555 1_555
N7_9 Cu2_11 1_555 1_555
C4_9 C2_11 1_555 1_555
C8_9 H6_9 1_555 1_555
H2_9 C4_9 1_555 1_555
C12_12 C10_12 1_555 1_555
O3_9 C3_11 1_555 1_555
O7_9 Cu1_12 1_555 1_555
O8_9 Cu2_11 1_555 1_555
O9_9 Cu2_11 1_555 1_555
Cu4_11 O3_9 1_555 1_555
N2_9 C4_9 1_555 1_555
C8_9 C10_12 1_555 1_555
C12_12 O7_9 1_555 1_555
O1_19 Cu2_12 1_555 1_555
C3_12 C2_12 1_555 1_555
Cu2_12 N2_10 1_555 1_555
C4_10 C2_12 1_555 1_555
H2_10 C4_10 1_555 1_555
O3_10 C3_12 1_555 1_555
O9_10 Cu2_12 1_555 1_555
Cu4_12 O3_10 1_555 1_555
N2_10 C4_10 1_555 1_555
O1_20 Cu2_13 1_555 1_555
Cu3_12 O1_20 1_555 1_555
N7_10 Cu2_13 1_555 1_555
N8_10 Cu3_12 1_555 1_555
O8_10 Cu2_13 1_555 1_555
O10_10 Cu3_12 1_555 1_555
N7_10 N8_10 1_555 1_555
Cu1_13 O1_21 1_555 1_555
N1_10 Cu1_13 1_555 1_555
C1_10 N1_10 1_555 1_555
H1_10 C1_10 1_555 1_555
C2_13 C1_10 1_555 1_555
C3_13 C2_13 1_555 1_555
O2_10 C3_13 1_555 1_555
Cu4_13 O2_10 1_555 1_555
Cu5_12 O4_10 1_555 1_555
Cu6_13 N5_10 1_555 1_555
Cu7_12 N6_10 1_555 1_555
N3_10 Cu1_13 1_555 1_555
N5_10 N6_10 1_555 1_555
N6_10 C8_10 1_555 1_555
C5_10 N3_10 1_555 1_555
C7_10 N5_10 1_555 1_555
C8_10 H6_10 1_555 1_555
H3_10 C5_10 1_555 1_555
H5_10 C7_10 1_555 1_555
C9_12 C5_10 1_555 1_555
C10_13 C7_10 1_555 1_555
C11_12 C9_12 1_555 1_555
C12_13 C10_13 1_555 1_555
O4_10 C11_12 1_555 1_555
O6_10 Cu1_13 1_555 1_555
O7_10 Cu1_13 1_555 1_555
C8_10 C10_13 1_555 1_555
C12_13 O6_10 1_555 1_555
C12_13 O7_10 1_555 1_555
Cu3_13 O1_22 1_555 1_555
N4_10 Cu3_13 1_555 1_555
C6_10 N4_10 1_555 1_555
H4_10 C6_10 1_555 1_555
C11_13 C9_13 1_555 1_555
O5_10 Cu5_13 1_555 1_555
O11_10 Cu3_13 1_555 1_555
C6_10 C9_13 1_555 1_555
C11_13 O5_10 1_555 1_555
Cu1_14 O1_23 1_555 1_555
O1_23 Cu2_14 1_555 1_555
N1_11 Cu1_14 1_555 1_555
C1_11 N1_11 1_555 1_555
H1_11 C1_11 1_555 1_555
C2_14 C1_11 1_555 1_555
C3_14 C2_14 1_555 1_555
O2_11 C3_14 1_555 1_555
Cu2_14 N2_11 1_555 1_555
Cu3_14 O1_23 1_555 1_555
Cu4_14 O2_11 1_555 1_555
Cu5_14 O4_11 1_555 1_555
Cu6_14 N5_11 1_555 1_555
Cu7_14 N6_11 1_555 1_555
N2_11 N1_11 1_555 1_555
N3_11 Cu1_14 1_555 1_555
N4_11 Cu3_14 1_555 1_555
N5_11 N6_11 1_555 1_555
N6_11 C8_11 1_555 1_555
N7_11 Cu2_14 1_555 1_555
N8_11 Cu3_14 1_555 1_555
C4_11 C2_14 1_555 1_555
C5_11 N3_11 1_555 1_555
C6_11 N4_11 1_555 1_555
C7_11 N5_11 1_555 1_555
C8_11 H6_11 1_555 1_555
H2_11 C4_11 1_555 1_555
H3_11 C5_11 1_555 1_555
H4_11 C6_11 1_555 1_555
H5_11 C7_11 1_555 1_555
C9_14 C5_11 1_555 1_555
C10_14 C7_11 1_555 1_555
C11_14 C9_14 1_555 1_555
C12_14 C10_14 1_555 1_555
O3_11 C3_14 1_555 1_555
O4_11 C11_14 1_555 1_555
O5_11 Cu5_14 1_555 1_555
O6_11 Cu1_14 1_555 1_555
O7_11 Cu1_14 1_555 1_555
O8_11 Cu2_14 1_555 1_555
O9_11 Cu2_14 1_555 1_555
O10_11 Cu3_14 1_555 1_555
O11_11 Cu3_14 1_555 1_555
Cu4_14 O3_11 1_555 1_555
N2_11 C4_11 1_555 1_555
N3_11 N4_11 1_555 1_555
N7_11 N8_11 1_555 1_555
C6_11 C9_14 1_555 1_555
C8_11 C10_14 1_555 1_555
C11_14 O5_11 1_555 1_555
C12_14 O6_11 1_555 1_555
C12_14 O7_11 1_555 1_555
Cu1_15 O1_24 1_555 1_555
O1_24 Cu2_15 1_555 1_555
N1_12 Cu1_15 1_555 1_555
C1_12 N1_12 1_555 1_555
H1_12 C1_12 1_555 1_555
C2_15 C1_12 1_555 1_555
C3_15 C2_15 1_555 1_555
O2_12 C3_15 1_555 1_555
Cu2_15 N2_12 1_555 1_555
Cu3_15 O1_24 1_555 1_555
Cu4_15 O2_12 1_555 1_555
Cu5_15 O4_12 1_555 1_555
Cu6_15 N5_12 1_555 1_555
Cu7_15 N6_12 1_555 1_555
N2_12 N1_12 1_555 1_555
N3_12 Cu1_15 1_555 1_555
N4_12 Cu3_15 1_555 1_555
N5_12 N6_12 1_555 1_555
N6_12 C8_12 1_555 1_555
N7_12 Cu2_15 1_555 1_555
N8_12 Cu3_15 1_555 1_555
C4_12 C2_15 1_555 1_555
C5_12 N3_12 1_555 1_555
C6_12 N4_12 1_555 1_555
C7_12 N5_12 1_555 1_555
C8_12 H6_12 1_555 1_555
H2_12 C4_12 1_555 1_555
H3_12 C5_12 1_555 1_555
H4_12 C6_12 1_555 1_555
H5_12 C7_12 1_555 1_555
C9_15 C5_12 1_555 1_555
C10_15 C7_12 1_555 1_555
C11_15 C9_15 1_555 1_555
C12_15 C10_15 1_555 1_555
O3_12 C3_15 1_555 1_555
O4_12 C11_15 1_555 1_555
O5_12 Cu5_15 1_555 1_555
O6_12 Cu1_15 1_555 1_555
O7_12 Cu1_15 1_555 1_555
O8_12 Cu2_15 1_555 1_555
O9_12 Cu2_15 1_555 1_555
O10_12 Cu3_15 1_555 1_555
O11_12 Cu3_15 1_555 1_555
Cu4_15 O3_12 1_555 1_555
N2_12 C4_12 1_555 1_555
N3_12 N4_12 1_555 1_555
N7_12 N8_12 1_555 1_555
C6_12 C9_15 1_555 1_555
C8_12 C10_15 1_555 1_555
C11_15 O5_12 1_555 1_555
C12_15 O6_12 1_555 1_555
C12_15 O7_12 1_555 1_555
C1_13 N8_7 1_555 1_555
H1_13 C1_13 1_555 1_555
C2_16 C1_13 1_555 1_555
C3_16 C2_16 1_555 1_555
O2_13 C3_16 1_555 1_555
Cu7_5 O2_13 1_555 1_555
Cu6_8 N5_13 1_555 1_555
Cu4_4 N6_13 1_555 1_555
N5_13 N6_13 1_555 1_555
N6_13 C8_13 1_555 1_555
C4_13 C2_16 1_555 1_555
C7_13 N5_13 1_555 1_555
C8_13 H6_13 1_555 1_555
H2_13 C4_13 1_555 1_555
H5_13 C7_13 1_555 1_555
C10_16 C7_13 1_555 1_555
C12_16 C10_16 1_555 1_555
O3_13 C3_16 1_555 1_555
Cu7_5 O3_13 1_555 1_555
N7_7 C4_13 1_555 1_555
C8_13 C10_16 1_555 1_555
C12_16 O11_7 1_555 1_555
C12_16 O10_7 1_555 1_555
C1_14 N8_5 1_555 1_555
H1_14 C1_14 1_555 1_555
C2_17 C1_14 1_555 1_555
C3_17 C2_17 1_555 1_555
O2_14 C3_17 1_555 1_555
Cu7_3 O2_14 1_555 1_555
Cu6_10 N5_14 1_555 1_555
Cu4_5 N6_14 1_555 1_555
N5_14 N6_14 1_555 1_555
N6_14 C8_14 1_555 1_555
C7_14 N5_14 1_555 1_555
C8_14 H6_14 1_555 1_555
H5_14 C7_14 1_555 1_555
C10_17 C7_14 1_555 1_555
C12_17 C10_17 1_555 1_555
C8_14 C10_17 1_555 1_555
C12_17 O11_5 1_555 1_555
C12_17 O10_5 1_555 1_555
C3_18 C2_18 1_555 1_555
C4_14 C2_18 1_555 1_555
H2_14 C4_14 1_555 1_555
O3_14 C3_18 1_555 1_555
Cu7_4 O3_14 1_555 1_555
N7_5 C4_14 1_555 1_555
C1_15 N8_8 1_555 1_555
H1_15 C1_15 1_555 1_555
C2_19 C1_15 1_555 1_555
C3_19 C2_19 1_555 1_555
O2_15 C3_19 1_555 1_555
Cu7 O2_15 1_555 1_555
Cu6_7 N5_15 1_555 1_555
Cu4_2 N6_15 1_555 1_555
N5_15 N6_15 1_555 1_555
N6_15 C8_15 1_555 1_555
C4_15 C2_19 1_555 1_555
C7_15 N5_15 1_555 1_555
C8_15 H6_15 1_555 1_555
H2_15 C4_15 1_555 1_555
H5_15 C7_15 1_555 1_555
C10_18 C7_15 1_555 1_555
C12_18 C10_18 1_555 1_555
O3_15 C3_19 1_555 1_555
Cu7 O3_15 1_555 1_555
N7_8 C4_15 1_555 1_555
C8_15 C10_18 1_555 1_555
C12_18 O11_8 1_555 1_555
C12_18 O10_8 1_555 1_555
C1_16 N8_6 1_555 1_555
H1_16 C1_16 1_555 1_555
C2_20 C1_16 1_555 1_555
C3_20 C2_20 1_555 1_555
O2_16 C3_20 1_555 1_555
Cu7_2 O2_16 1_555 1_555
Cu4 N6_16 1_555 1_555
N6_16 C8_16 1_555 1_555
C4_16 C2_20 1_555 1_555
C8_16 H6_16 1_555 1_555
H2_16 C4_16 1_555 1_555
C12_19 C10_19 1_555 1_555
O3_16 C3_20 1_555 1_555
Cu7_2 O3_16 1_555 1_555
N7_6 C4_16 1_555 1_555
C8_16 C10_19 1_555 1_555
C12_19 O10_6 1_555 1_555
Cu6_9 N5_16 1_555 1_555
C7_16 N5_16 1_555 1_555
H5_16 C7_16 1_555 1_555
C10_20 C7_16 1_555 1_555
C12_20 C10_20 1_555 1_555
C12_20 O11_6 1_555 1_555
C1_17 N8_2 1_555 1_555
H1_17 C1_17 1_555 1_555
C2_21 C1_17 1_555 1_555
C3_21 C2_21 1_555 1_555
O2_17 C3_21 1_555 1_555
Cu7_12 O2_17 1_555 1_555
Cu4_11 N6_17 1_555 1_555
N6_17 C8_17 1_555 1_555
C4_17 C2_21 1_555 1_555
C8_17 H6_17 1_555 1_555
H2_17 C4_17 1_555 1_555
C12_21 C10_21 1_555 1_555
O3_17 C3_21 1_555 1_555
Cu7_12 O3_17 1_555 1_555
N7_2 C4_17 1_555 1_555
C8_17 C10_21 1_555 1_555
C12_21 O10_2 1_555 1_555
Cu6_4 N5_17 1_555 1_555
C7_17 N5_17 1_555 1_555
H5_17 C7_17 1_555 1_555
C10_22 C7_17 1_555 1_555
C12_22 C10_22 1_555 1_555
C12_22 O11_2 1_555 1_555
C1_18 N8_4 1_555 1_555
H1_18 C1_18 1_555 1_555
C2_22 C1_18 1_555 1_555
C3_22 C2_22 1_555 1_555
O2_18 C3_22 1_555 1_555
Cu7_11 O2_18 1_555 1_555
Cu6_2 N5_18 1_555 1_555
Cu4_12 N6_18 1_555 1_555
N5_18 N6_18 1_555 1_555
N6_18 C8_18 1_555 1_555
C4_18 C2_22 1_555 1_555
C7_18 N5_18 1_555 1_555
C8_18 H6_18 1_555 1_555
H2_18 C4_18 1_555 1_555
H5_18 C7_18 1_555 1_555
C10_23 C7_18 1_555 1_555
C12_23 C10_23 1_555 1_555
O3_18 C3_22 1_555 1_555
Cu7_11 O3_18 1_555 1_555
N7_4 C4_18 1_555 1_555
C8_18 C10_23 1_555 1_555
C12_23 O11_4 1_555 1_555
C12_23 O10_4 1_555 1_555
C1_19 N8 1_555 1_555
H1_19 C1_19 1_555 1_555
C2_23 C1_19 1_555 1_555
C3_23 C2_23 1_555 1_555
O2_19 C3_23 1_555 1_555
Cu7_13 O2_19 1_555 1_555
Cu6_5 N5_19 1_555 1_555
Cu4_15 N6_19 1_555 1_555
N5_19 N6_19 1_555 1_555
N6_19 C8_19 1_555 1_555
C7_19 N5_19 1_555 1_555
C8_19 H6_19 1_555 1_555
H5_19 C7_19 1_555 1_555
C10_24 C7_19 1_555 1_555
C12_24 C10_24 1_555 1_555
C8_19 C10_24 1_555 1_555
C12_24 O11 1_555 1_555
C12_24 O10 1_555 1_555
C3_24 C2_24 1_555 1_555
C4_19 C2_24 1_555 1_555
H2_19 C4_19 1_555 1_555
O3_19 C3_24 1_555 1_555
Cu7_14 O3_19 1_555 1_555
N7 C4_19 1_555 1_555
C1_20 N8_3 1_555 1_555
H1_20 C1_20 1_555 1_555
C2_25 C1_20 1_555 1_555
C3_25 C2_25 1_555 1_555
O2_20 C3_25 1_555 1_555
Cu7_15 O2_20 1_555 1_555
Cu6_3 N5_20 1_555 1_555
Cu4_14 N6_20 1_555 1_555
N5_20 N6_20 1_555 1_555
N6_20 C8_20 1_555 1_555
C4_20 C2_25 1_555 1_555
C7_20 N5_20 1_555 1_555
C8_20 H6_20 1_555 1_555
H2_20 C4_20 1_555 1_555
H5_20 C7_20 1_555 1_555
C10_25 C7_20 1_555 1_555
C12_25 C10_25 1_555 1_555
O3_20 C3_25 1_555 1_555
Cu7_15 O3_20 1_555 1_555
N7_3 C4_20 1_555 1_555
C8_20 C10_25 1_555 1_555
C12_25 O11_3 1_555 1_555
C12_25 O10_3 1_555 1_555
C1_21 N8_12 1_555 1_555
H1_21 C1_21 1_555 1_555
C2_26 C1_21 1_555 1_555
C3_26 C2_26 1_555 1_555
O2_21 C3_26 1_555 1_555
Cu7_6 O2_21 1_555 1_555
Cu6_12 N5_21 1_555 1_555
Cu4_7 N6_21 1_555 1_555
N5_21 N6_21 1_555 1_555
N6_21 C8_21 1_555 1_555
C4_21 C2_26 1_555 1_555
C7_21 N5_21 1_555 1_555
C8_21 H6_21 1_555 1_555
H2_21 C4_21 1_555 1_555
H5_21 C7_21 1_555 1_555
C10_26 C7_21 1_555 1_555
C12_26 C10_26 1_555 1_555
O3_21 C3_26 1_555 1_555
Cu7_6 O3_21 1_555 1_555
N7_12 C4_21 1_555 1_555
C8_21 C10_26 1_555 1_555
C12_26 O11_12 1_555 1_555
C12_26 O10_12 1_555 1_555
C1_22 N8_10 1_555 1_555
H1_22 C1_22 1_555 1_555
C2_27 C1_22 1_555 1_555
C3_27 C2_27 1_555 1_555
O2_22 C3_27 1_555 1_555
Cu7_7 O2_22 1_555 1_555
Cu4_6 N6_22 1_555 1_555
N6_22 C8_22 1_555 1_555
C4_22 C2_27 1_555 1_555
C8_22 H6_22 1_555 1_555
H2_22 C4_22 1_555 1_555
C12_27 C10_27 1_555 1_555
O3_22 C3_27 1_555 1_555
Cu7_7 O3_22 1_555 1_555
N7_10 C4_22 1_555 1_555
C8_22 C10_27 1_555 1_555
C12_27 O10_10 1_555 1_555
Cu6_14 N5_22 1_555 1_555
C7_22 N5_22 1_555 1_555
H5_22 C7_22 1_555 1_555
C10_28 C7_22 1_555 1_555
C12_28 C10_28 1_555 1_555
C12_28 O11_10 1_555 1_555
C1_23 N8_11 1_555 1_555
H1_23 C1_23 1_555 1_555
C2_28 C1_23 1_555 1_555
C3_28 C2_28 1_555 1_555
O2_23 C3_28 1_555 1_555
Cu7_10 O2_23 1_555 1_555
Cu6_13 N5_23 1_555 1_555
Cu4_9 N6_23 1_555 1_555
N5_23 N6_23 1_555 1_555
N6_23 C8_23 1_555 1_555
C4_23 C2_28 1_555 1_555
C7_23 N5_23 1_555 1_555
C8_23 H6_23 1_555 1_555
H2_23 C4_23 1_555 1_555
H5_23 C7_23 1_555 1_555
C10_29 C7_23 1_555 1_555
C12_29 C10_29 1_555 1_555
O3_23 C3_28 1_555 1_555
Cu7_10 O3_23 1_555 1_555
N7_11 C4_23 1_555 1_555
C8_23 C10_29 1_555 1_555
C12_29 O11_11 1_555 1_555
C12_29 O10_11 1_555 1_555
C1_24 N8_9 1_555 1_555
H1_24 C1_24 1_555 1_555
C2_29 C1_24 1_555 1_555
C3_29 C2_29 1_555 1_555
O2_24 C3_29 1_555 1_555
Cu7_8 O2_24 1_555 1_555
Cu6_15 N5_24 1_555 1_555
Cu4_10 N6_24 1_555 1_555
N5_24 N6_24 1_555 1_555
N6_24 C8_24 1_555 1_555
C7_24 N5_24 1_555 1_555
C8_24 H6_24 1_555 1_555
H5_24 C7_24 1_555 1_555
C10_30 C7_24 1_555 1_555
C12_30 C10_30 1_555 1_555
C8_24 C10_30 1_555 1_555
C12_30 O11_9 1_555 1_555
C12_30 O10_9 1_555 1_555
C3_30 C2_30 1_555 1_555
C4_24 C2_30 1_555 1_555
H2_24 C4_24 1_555 1_555
O3_24 C3_30 1_555 1_555
Cu7_9 O3_24 1_555 1_555
N7_9 C4_24 1_555 1_555
O1_25 Cu2_16 1_555 1_555
C3_31 C2_31 1_555 1_555
Cu2_16 N2_13 1_555 1_555
Cu3_16 O1_25 1_555 1_555
N7_13 Cu2_16 1_555 1_555
N8_13 Cu3_16 1_555 1_555
C4_25 C2_31 1_555 1_555
H2_25 C4_25 1_555 1_555
O3_25 C3_31 1_555 1_555
O8_13 Cu2_16 1_555 1_555
O9_13 Cu2_16 1_555 1_555
O10_13 Cu3_16 1_555 1_555
Cu6_11 O3_25 1_555 1_555
N2_13 C4_25 1_555 1_555
N7_13 N8_13 1_555 1_555
Cu1_16 O1_26 1_555 1_555
N1_13 Cu1_16 1_555 1_555
C1_25 N1_13 1_555 1_555
H1_25 C1_25 1_555 1_555
C2_32 C1_25 1_555 1_555
C3_32 C2_32 1_555 1_555
O2_25 C3_32 1_555 1_555
Cu3_17 O1_26 1_555 1_555
Cu6_12 O2_25 1_555 1_555
Cu6_3 O4_13 1_555 1_555
Cu5_2 N5_25 1_555 1_555
Cu5_15 N6_25 1_555 1_555
N3_13 Cu1_16 1_555 1_555
N4_13 Cu3_17 1_555 1_555
N5_25 N6_25 1_555 1_555
N6_25 C8_25 1_555 1_555
C5_13 N3_13 1_555 1_555
C6_13 N4_13 1_555 1_555
C7_25 N5_25 1_555 1_555
C8_25 H6_25 1_555 1_555
H3_13 C5_13 1_555 1_555
H4_13 C6_13 1_555 1_555
H5_25 C7_25 1_555 1_555
C9_16 C5_13 1_555 1_555
C10_31 C7_25 1_555 1_555
C11_16 C9_16 1_555 1_555
C12_31 C10_31 1_555 1_555
O4_13 C11_16 1_555 1_555
O5_13 Cu6_3 1_555 1_555
O6_13 Cu1_16 1_555 1_555
O7_13 Cu1_16 1_555 1_555
O11_13 Cu3_17 1_555 1_555
N3_13 N4_13 1_555 1_555
C6_13 C9_16 1_555 1_555
C8_25 C10_31 1_555 1_555
C11_16 O5_13 1_555 1_555
C12_31 O6_13 1_555 1_555
C12_31 O7_13 1_555 1_555
Cu1_17 O1_27 1_555 1_555
O1_27 Cu2_17 1_555 1_555
N1_14 Cu1_17 1_555 1_555
C1_26 N1_14 1_555 1_555
H1_26 C1_26 1_555 1_555
C2_33 C1_26 1_555 1_555
C3_33 C2_33 1_555 1_555
O2_26 C3_33 1_555 1_555
Cu2_17 N2_14 1_555 1_555
Cu6_15 O2_26 1_555 1_555
Cu6 O4_14 1_555 1_555
Cu5 N5_26 1_555 1_555
Cu5_11 N6_26 1_555 1_555
N2_14 N1_14 1_555 1_555
N3_14 Cu1_17 1_555 1_555
N5_26 N6_26 1_555 1_555
N6_26 C8_26 1_555 1_555
C4_26 C2_33 1_555 1_555
C5_14 N3_14 1_555 1_555
C7_26 N5_26 1_555 1_555
C8_26 H6_26 1_555 1_555
H2_26 C4_26 1_555 1_555
H3_14 C5_14 1_555 1_555
H5_26 C7_26 1_555 1_555
C9_17 C5_14 1_555 1_555
C10_32 C7_26 1_555 1_555
C11_17 C9_17 1_555 1_555
C12_32 C10_32 1_555 1_555
O3_26 C3_33 1_555 1_555
O4_14 C11_17 1_555 1_555
O6_14 Cu1_17 1_555 1_555
O7_14 Cu1_17 1_555 1_555
O9_14 Cu2_17 1_555 1_555
Cu6_15 O3_26 1_555 1_555
N2_14 C4_26 1_555 1_555
C8_26 C10_32 1_555 1_555
C12_32 O6_14 1_555 1_555
C12_32 O7_14 1_555 1_555
O1_28 Cu2_18 1_555 1_555
Cu3_18 O1_28 1_555 1_555
N4_14 Cu3_18 1_555 1_555
N7_14 Cu2_18 1_555 1_555
N8_14 Cu3_18 1_555 1_555
C6_14 N4_14 1_555 1_555
H4_14 C6_14 1_555 1_555
C11_18 C9_18 1_555 1_555
O5_14 Cu6_2 1_555 1_555
O8_14 Cu2_18 1_555 1_555
O10_14 Cu3_18 1_555 1_555
O11_14 Cu3_18 1_555 1_555
N7_14 N8_14 1_555 1_555
C6_14 C9_18 1_555 1_555
C11_18 O5_14 1_555 1_555
Cu1_18 O1_29 1_555 1_555
Cu3_19 O1_29 1_555 1_555
Cu6_5 O4_15 1_555 1_555
Cu5_5 N5_27 1_555 1_555
N3_15 Cu1_18 1_555 1_555
N4_15 Cu3_19 1_555 1_555
N8_15 Cu3_19 1_555 1_555
C5_15 N3_15 1_555 1_555
C6_15 N4_15 1_555 1_555
C7_27 N5_27 1_555 1_555
H3_15 C5_15 1_555 1_555
H4_15 C6_15 1_555 1_555
H5_27 C7_27 1_555 1_555
C9_19 C5_15 1_555 1_555
C10_33 C7_27 1_555 1_555
C11_19 C9_19 1_555 1_555
C12_33 C10_33 1_555 1_555
O4_15 C11_19 1_555 1_555
O5_15 Cu6_5 1_555 1_555
O6_15 Cu1_18 1_555 1_555
O10_15 Cu3_19 1_555 1_555
O11_15 Cu3_19 1_555 1_555
N3_15 N4_15 1_555 1_555
C6_15 C9_19 1_555 1_555
C11_19 O5_15 1_555 1_555
C12_33 O6_15 1_555 1_555
Cu1_19 O1_30 1_555 1_555
O1_30 Cu2_19 1_555 1_555
N1_15 Cu1_19 1_555 1_555
C1_27 N1_15 1_555 1_555
H1_27 C1_27 1_555 1_555
C2_34 C1_27 1_555 1_555
C3_34 C2_34 1_555 1_555
O2_27 C3_34 1_555 1_555
Cu2_19 N2_15 1_555 1_555
Cu6_13 O2_27 1_555 1_555
Cu5_14 N6_27 1_555 1_555
N2_15 N1_15 1_555 1_555
N6_27 C8_27 1_555 1_555
N7_15 Cu2_19 1_555 1_555
C4_27 C2_34 1_555 1_555
C8_27 H6_27 1_555 1_555
H2_27 C4_27 1_555 1_555
C12_34 C10_34 1_555 1_555
O3_27 C3_34 1_555 1_555
O7_15 Cu1_19 1_555 1_555
O8_15 Cu2_19 1_555 1_555
O9_15 Cu2_19 1_555 1_555
Cu6_13 O3_27 1_555 1_555
N2_15 C4_27 1_555 1_555
C8_27 C10_34 1_555 1_555
C12_34 O7_15 1_555 1_555
Cu1_20 O1_31 1_555 1_555
O1_31 Cu2_20 1_555 1_555
N1_16 Cu1_20 1_555 1_555
C1_28 N1_16 1_555 1_555
H1_28 C1_28 1_555 1_555
C2_35 C1_28 1_555 1_555
C3_35 C2_35 1_555 1_555
O2_28 C3_35 1_555 1_555
Cu2_20 N2_16 1_555 1_555
Cu3_20 O1_31 1_555 1_555
Cu6_14 O2_28 1_555 1_555
Cu6_4 O4_16 1_555 1_555
Cu5_4 N5_28 1_555 1_555
Cu5_13 N6_28 1_555 1_555
N2_16 N1_16 1_555 1_555
N3_16 Cu1_20 1_555 1_555
N4_16 Cu3_20 1_555 1_555
N5_28 N6_28 1_555 1_555
N6_28 C8_28 1_555 1_555
N7_16 Cu2_20 1_555 1_555
N8_16 Cu3_20 1_555 1_555
C4_28 C2_35 1_555 1_555
C5_16 N3_16 1_555 1_555
C6_16 N4_16 1_555 1_555
C7_28 N5_28 1_555 1_555
C8_28 H6_28 1_555 1_555
H2_28 C4_28 1_555 1_555
H3_16 C5_16 1_555 1_555
H4_16 C6_16 1_555 1_555
H5_28 C7_28 1_555 1_555
C9_20 C5_16 1_555 1_555
C10_35 C7_28 1_555 1_555
C11_20 C9_20 1_555 1_555
C12_35 C10_35 1_555 1_555
O3_28 C3_35 1_555 1_555
O4_16 C11_20 1_555 1_555
O5_16 Cu6_4 1_555 1_555
O6_16 Cu1_20 1_555 1_555
O7_16 Cu1_20 1_555 1_555
O8_16 Cu2_20 1_555 1_555
O9_16 Cu2_20 1_555 1_555
O10_16 Cu3_20 1_555 1_555
O11_16 Cu3_20 1_555 1_555
Cu6_14 O3_28 1_555 1_555
N2_16 C4_28 1_555 1_555
N3_16 N4_16 1_555 1_555
N7_16 N8_16 1_555 1_555
C6_16 C9_20 1_555 1_555
C8_28 C10_35 1_555 1_555
C11_20 O5_16 1_555 1_555
C12_35 O6_16 1_555 1_555
C12_35 O7_16 1_555 1_555
Cu7_15 N5_29 1_555 1_555
Cu4_10 N6_29 1_555 1_555
N5_29 N6_29 1_555 1_555
N6_29 C8_29 1_555 1_555
C7_29 N5_29 1_555 1_555
C8_29 H6_29 1_555 1_555
H5_29 C7_29 1_555 1_555
C10_36 C7_29 1_555 1_555
C12_36 C10_36 1_555 1_555
C8_29 C10_36 1_555 1_555
C12_36 O9_11 1_555 1_555
C12_36 O8_11 1_555 1_555
Cu7_12 N5_30 1_555 1_555
Cu4_9 N6_30 1_555 1_555
N5_30 N6_30 1_555 1_555
N6_30 C8_30 1_555 1_555
C7_30 N5_30 1_555 1_555
C8_30 H6_30 1_555 1_555
H5_30 C7_30 1_555 1_555
C10_37 C7_30 1_555 1_555
C12_37 C10_37 1_555 1_555
C8_30 C10_37 1_555 1_555
C12_37 O9_9 1_555 1_555
C12_37 O8_9 1_555 1_555
Cu7_11 N5_31 1_555 1_555
C7_31 N5_31 1_555 1_555
H5_31 C7_31 1_555 1_555
C10_38 C7_31 1_555 1_555
C12_38 C10_38 1_555 1_555
C12_38 O9_10 1_555 1_555
Cu4_8 N6_31 1_555 1_555
N6_31 C8_31 1_555 1_555
C8_31 H6_31 1_555 1_555
C12_39 C10_39 1_555 1_555
C8_31 C10_39 1_555 1_555
C12_39 O8_10 1_555 1_555
Cu7_13 N5_32 1_555 1_555
Cu4_6 N6_32 1_555 1_555
N5_32 N6_32 1_555 1_555
N6_32 C8_32 1_555 1_555
C7_32 N5_32 1_555 1_555
C8_32 H6_32 1_555 1_555
H5_32 C7_32 1_555 1_555
C10_40 C7_32 1_555 1_555
C12_40 C10_40 1_555 1_555
C8_32 C10_40 1_555 1_555
C12_40 O9_12 1_555 1_555
C12_40 O8_12 1_555 1_555
C1_29 N8_14 1_555 1_555
H1_29 C1_29 1_555 1_555
C2_36 C1_29 1_555 1_555
C3_36 C2_36 1_555 1_555
O2_29 C3_36 1_555 1_555
Cu6_8 O2_29 1_555 1_555
Cu5_5 N5_33 1_555 1_555
Cu5_7 N6_33 1_555 1_555
N5_33 N6_33 1_555 1_555
N6_33 C8_33 1_555 1_555
C4_29 C2_36 1_555 1_555
C7_33 N5_33 1_555 1_555
C8_33 H6_33 1_555 1_555
H2_29 C4_29 1_555 1_555
H5_33 C7_33 1_555 1_555
C10_41 C7_33 1_555 1_555
C12_41 C10_41 1_555 1_555
O3_29 C3_36 1_555 1_555
Cu6_8 O3_29 1_555 1_555
N7_14 C4_29 1_555 1_555
C8_33 C10_41 1_555 1_555
C12_41 O11_14 1_555 1_555
C12_41 O10_14 1_555 1_555
C1_30 N8_16 1_555 1_555
H1_30 C1_30 1_555 1_555
C2_37 C1_30 1_555 1_555
C3_37 C2_37 1_555 1_555
O2_30 C3_37 1_555 1_555
Cu6_9 O2_30 1_555 1_555
Cu5_3 N5_34 1_555 1_555
Cu5_9 N6_34 1_555 1_555
N5_34 N6_34 1_555 1_555
N6_34 C8_34 1_555 1_555
C4_30 C2_37 1_555 1_555
C7_34 N5_34 1_555 1_555
C8_34 H6_34 1_555 1_555
H2_30 C4_30 1_555 1_555
H5_34 C7_34 1_555 1_555
C10_42 C7_34 1_555 1_555
C12_42 C10_42 1_555 1_555
O3_30 C3_37 1_555 1_555
Cu6_9 O3_30 1_555 1_555
N7_16 C4_30 1_555 1_555
C8_34 C10_42 1_555 1_555
C12_42 O11_16 1_555 1_555
C12_42 O10_16 1_555 1_555
C1_31 N8_13 1_555 1_555
H1_31 C1_31 1_555 1_555
C2_38 C1_31 1_555 1_555
C3_38 C2_38 1_555 1_555
O2_31 C3_38 1_555 1_555
Cu6_10 O2_31 1_555 1_555
Cu5_10 N6_35 1_555 1_555
N6_35 C8_35 1_555 1_555
C4_31 C2_38 1_555 1_555
C8_35 H6_35 1_555 1_555
H2_31 C4_31 1_555 1_555
C12_43 C10_43 1_555 1_555
O3_31 C3_38 1_555 1_555
Cu6_10 O3_31 1_555 1_555
N7_13 C4_31 1_555 1_555
C8_35 C10_43 1_555 1_555
C12_43 O10_13 1_555 1_555
Cu5_4 N5_35 1_555 1_555
C7_35 N5_35 1_555 1_555
H5_35 C7_35 1_555 1_555
C10_44 C7_35 1_555 1_555
C12_44 C10_44 1_555 1_555
C12_44 O11_13 1_555 1_555
C1_32 N8_15 1_555 1_555
H1_32 C1_32 1_555 1_555
C2_39 C1_32 1_555 1_555
C3_39 C2_39 1_555 1_555
O2_32 C3_39 1_555 1_555
Cu6_6 O2_32 1_555 1_555
Cu5 N5_36 1_555 1_555
Cu5_6 N6_36 1_555 1_555
N5_36 N6_36 1_555 1_555
N6_36 C8_36 1_555 1_555
C7_36 N5_36 1_555 1_555
C8_36 H6_36 1_555 1_555
H5_36 C7_36 1_555 1_555
C10_45 C7_36 1_555 1_555
C12_45 C10_45 1_555 1_555
C8_36 C10_45 1_555 1_555
C12_45 O11_15 1_555 1_555
C12_45 O10_15 1_555 1_555
C3_40 C2_40 1_555 1_555
C4_32 C2_40 1_555 1_555
H2_32 C4_32 1_555 1_555
O3_32 C3_40 1_555 1_555
Cu6_7 O3_32 1_555 1_555
N7_15 C4_32 1_555 1_555
Cu4 N5_37 1_555 1_555
Cu7_8 N6_37 1_555 1_555
N5_37 N6_37 1_555 1_555
N6_37 C8_37 1_555 1_555
C7_37 N5_37 1_555 1_555
C8_37 H6_37 1_555 1_555
H5_37 C7_37 1_555 1_555
C10_46 C7_37 1_555 1_555
C12_46 C10_46 1_555 1_555
C8_37 C10_46 1_555 1_555
C12_46 O8_8 1_555 1_555
C12_46 O9_8 1_555 1_555
Cu4_5 N5_38 1_555 1_555
Cu7_10 N6_38 1_555 1_555
N5_38 N6_38 1_555 1_555
N6_38 C8_38 1_555 1_555
C7_38 N5_38 1_555 1_555
C8_38 H6_38 1_555 1_555
H5_38 C7_38 1_555 1_555
C10_47 C7_38 1_555 1_555
C12_47 C10_47 1_555 1_555
C8_38 C10_47 1_555 1_555
C12_47 O8_7 1_555 1_555
C12_47 O9_7 1_555 1_555
Cu4_4 N5_39 1_555 1_555
Cu7_7 N6_39 1_555 1_555
N5_39 N6_39 1_555 1_555
N6_39 C8_39 1_555 1_555
C7_39 N5_39 1_555 1_555
C8_39 H6_39 1_555 1_555
H5_39 C7_39 1_555 1_555
C10_48 C7_39 1_555 1_555
C12_48 C10_48 1_555 1_555
C8_39 C10_48 1_555 1_555
C12_48 O8_5 1_555 1_555
C12_48 O9_5 1_555 1_555
Cu7_6 N6_40 1_555 1_555
N6_40 C8_40 1_555 1_555
C8_40 H6_40 1_555 1_555
C12_49 C10_49 1_555 1_555
C8_40 C10_49 1_555 1_555
C12_49 O9_6 1_555 1_555
Cu4_3 N5_40 1_555 1_555
C7_40 N5_40 1_555 1_555
H5_40 C7_40 1_555 1_555
C10_50 C7_40 1_555 1_555
C12_50 C10_50 1_555 1_555
C12_50 O8_6 1_555 1_555
Cu7_5 N5_41 1_555 1_555
Cu4_15 N6_41 1_555 1_555
N5_41 N6_41 1_555 1_555
N6_41 C8_41 1_555 1_555
C7_41 N5_41 1_555 1_555
C8_41 H6_41 1_555 1_555
H5_41 C7_41 1_555 1_555
C10_51 C7_41 1_555 1_555
C12_51 C10_51 1_555 1_555
C8_41 C10_51 1_555 1_555
C12_51 O9_3 1_555 1_555
C12_51 O8_3 1_555 1_555
Cu7_2 N5_42 1_555 1_555
Cu4_14 N6_42 1_555 1_555
N5_42 N6_42 1_555 1_555
N6_42 C8_42 1_555 1_555
C7_42 N5_42 1_555 1_555
C8_42 H6_42 1_555 1_555
H5_42 C7_42 1_555 1_555
C10_52 C7_42 1_555 1_555
C12_52 C10_52 1_555 1_555
C8_42 C10_52 1_555 1_555
C12_52 O9 1_555 1_555
C12_52 O8 1_555 1_555
Cu7 N5_43 1_555 1_555
C7_43 N5_43 1_555 1_555
H5_43 C7_43 1_555 1_555
C10_53 C7_43 1_555 1_555
C12_53 C10_53 1_555 1_555
C12_53 O9_2 1_555 1_555
Cu4_13 N6_43 1_555 1_555
N6_43 C8_43 1_555 1_555
C8_43 H6_43 1_555 1_555
C12_54 C10_54 1_555 1_555
C8_43 C10_54 1_555 1_555
C12_54 O8_2 1_555 1_555
Cu7_3 N5_44 1_555 1_555
Cu4_11 N6_44 1_555 1_555
N5_44 N6_44 1_555 1_555
N6_44 C8_44 1_555 1_555
C7_44 N5_44 1_555 1_555
C8_44 H6_44 1_555 1_555
H5_44 C7_44 1_555 1_555
C10_55 C7_44 1_555 1_555
C12_55 C10_55 1_555 1_555
C8_44 C10_55 1_555 1_555
C12_55 O9_4 1_555 1_555
C12_55 O8_4 1_555 1_555
Cu5_6 N5_45 1_555 1_555
Cu5_11 N6_45 1_555 1_555
N5_45 N6_45 1_555 1_555
N6_45 C8_45 1_555 1_555
C7_45 N5_45 1_555 1_555
C8_45 H6_45 1_555 1_555
H5_45 C7_45 1_555 1_555
C10_56 C7_45 1_555 1_555
C12_56 C10_56 1_555 1_555
C8_45 C10_56 1_555 1_555
C12_56 O8_13 1_555 1_555
C12_56 O9_13 1_555 1_555
Cu5_15 N6_46 1_555 1_555
N6_46 C8_46 1_555 1_555
C8_46 H6_46 1_555 1_555
C12_57 C10_57 1_555 1_555
C8_46 C10_57 1_555 1_555
C12_57 O9_14 1_555 1_555
Cu5_9 N5_46 1_555 1_555
C7_46 N5_46 1_555 1_555
H5_46 C7_46 1_555 1_555
C10_58 C7_46 1_555 1_555
C12_58 C10_58 1_555 1_555
C12_58 O8_14 1_555 1_555
Cu5_8 N5_47 1_555 1_555
Cu5_14 N6_47 1_555 1_555
N5_47 N6_47 1_555 1_555
N6_47 C8_47 1_555 1_555
C7_47 N5_47 1_555 1_555
C8_47 H6_47 1_555 1_555
H5_47 C7_47 1_555 1_555
C10_59 C7_47 1_555 1_555
C12_59 C10_59 1_555 1_555
C8_47 C10_59 1_555 1_555
C12_59 O8_16 1_555 1_555
C12_59 O9_16 1_555 1_555
Cu5_10 N5_48 1_555 1_555
Cu5_12 N6_48 1_555 1_555
N5_48 N6_48 1_555 1_555
N6_48 C8_48 1_555 1_555
C7_48 N5_48 1_555 1_555
C8_48 H6_48 1_555 1_555
H5_48 C7_48 1_555 1_555
C10_60 C7_48 1_555 1_555
C12_60 C10_60 1_555 1_555
C8_48 C10_60 1_555 1_555
C12_60 O8_15 1_555 1_555
C12_60 O9_15 1_555 1_555
Cu5_7 O1_32 1_555 1_555
O1_32 Cu5_5 1_555 1_555
Cu5_8 O1_33 1_555 1_555
Cu5_14 O1_33 1_555 1_555
Cu6_11 O1_34 1_555 1_555
O1_35 Cu4_7 1_555 1_555
Cu6_12 O1_35 1_555 1_555
Cu7_11 O1_36 1_555 1_555
O1_37 Cu4_8 1_555 1_555
Cu6_10 O1_38 1_555 1_555
O1_38 Cu7_10 1_555 1_555
Cu4_5 O1_38 1_555 1_555
Cu4_14 O1_39 1_555 1_555
O1_39 Cu6_3 1_555 1_555
Cu7_2 O1_39 1_555 1_555
Cu5_12 O1_40 1_555 1_555
O1_40 Cu5_10 1_555 1_555
Cu5_13 O1_41 1_555 1_555
Cu5_4 O1_41 1_555 1_555
Cu6 O1_42 1_555 1_555
Cu7 O1_43 1_555 1_555
O1_44 Cu4_12 1_555 1_555
Cu6_2 O1_44 1_555 1_555
O1_45 Cu4_13 1_555 1_555
Cu6_15 O1_46 1_555 1_555
O1_46 Cu7_15 1_555 1_555
Cu4_10 O1_46 1_555 1_555
Cu4_4 O1_47 1_555 1_555
O1_47 Cu6_8 1_555 1_555
Cu7_7 O1_47 1_555 1_555
Cu5_2 O1_48 1_555 1_555
O1_48 Cu5_15 1_555 1_555
Cu5_3 O1_49 1_555 1_555
Cu5_9 O1_49 1_555 1_555
Cu6_6 O1_50 1_555 1_555
Cu7_6 O1_51 1_555 1_555
O1_52 Cu4_2 1_555 1_555
Cu6_7 O1_52 1_555 1_555
O1_53 Cu4_3 1_555 1_555
Cu6_5 O1_54 1_555 1_555
O1_54 Cu7_5 1_555 1_555
Cu4_15 O1_54 1_555 1_555
Cu4_9 O1_55 1_555 1_555
O1_55 Cu6_13 1_555 1_555
Cu7_12 O1_55 1_555 1_555
Cu4_11 O1_56 1_555 1_555
Cu7_3 O1_56 1_555 1_555
O1_57 Cu6_4 1_555 1_555
Cu7_4 O1_57 1_555 1_555
O1_58 Cu7_8 1_555 1_555
Cu4 O1_58 1_555 1_555
Cu6_9 O1_59 1_555 1_555
O1_59 Cu7_9 1_555 1_555
Cu7_13 O1_60 1_555 1_555
O1_60 Cu4_6 1_555 1_555
Cu7_14 O1_61 1_555 1_555
Cu6_14 O1_61 1_555 1_555
Cu5_6 O1_62 1_555 1_555
O1_62 Cu5 1_555 1_555
Cu5_11 O1_62 1_555 1_555
N9 H7 1_555 1_555
N9 H8 1_555 1_555
N9 H9 1_555 1_555
N9 H10 1_555 1_555
N9_2 H7_2 1_555 1_555
N9_2 H8_2 1_555 1_555
N9_2 H9_2 1_555 1_555
N9_2 H10_2 1_555 1_555
N9_3 H7_3 1_555 1_555
N9_3 H8_3 1_555 1_555
N9_3 H9_3 1_555 1_555
N9_3 H10_3 1_555 1_555
N9_4 H7_4 1_555 1_555
N9_4 H8_4 1_555 1_555
N9_4 H9_4 1_555 1_555
N9_4 H10_4 1_555 1_555
N9_5 H7_5 1_555 1_555
N9_5 H8_5 1_555 1_555
N9_5 H9_5 1_555 1_555
N9_5 H10_5 1_555 1_555
N9_6 H7_6 1_555 1_555
N9_6 H8_6 1_555 1_555
N9_6 H9_6 1_555 1_555
N9_6 H10_6 1_555 1_555
N9_7 H7_7 1_555 1_555
N9_7 H8_7 1_555 1_555
N9_7 H9_7 1_555 1_555
N9_7 H10_7 1_555 1_555
N9_8 H7_8 1_555 1_555
N9_8 H8_8 1_555 1_555
N9_8 H9_8 1_555 1_555
N9_8 H10_8 1_555 1_555
N9_9 H7_9 1_555 1_555
N9_9 H8_9 1_555 1_555
N9_9 H9_9 1_555 1_555
N9_9 H10_9 1_555 1_555
N9_10 H7_10 1_555 1_555
N9_10 H8_10 1_555 1_555
N9_10 H9_10 1_555 1_555
N9_10 H10_10 1_555 1_555
N9_11 H7_11 1_555 1_555
N9_11 H8_11 1_555 1_555
N9_11 H9_11 1_555 1_555
N9_11 H10_11 1_555 1_555
N9_12 H7_12 1_555 1_555
N9_12 H8_12 1_555 1_555
N9_12 H9_12 1_555 1_555
N9_12 H10_12 1_555 1_555
N9_13 H7_13 1_555 1_555
N9_13 H8_13 1_555 1_555
N9_13 H9_13 1_555 1_555
N9_13 H10_13 1_555 1_555
N9_14 H7_14 1_555 1_555
N9_14 H8_14 1_555 1_555
N9_14 H9_14 1_555 1_555
N9_14 H10_14 1_555 1_555
N9_15 H7_15 1_555 1_555
N9_15 H8_15 1_555 1_555
N9_15 H9_15 1_555 1_555
N9_15 H10_15 1_555 1_555
N9_16 H7_16 1_555 1_555
N9_16 H8_16 1_555 1_555
N9_16 H9_16 1_555 1_555
N9_16 H10_16 1_555 1_555
N9_17 H7_17 1_555 1_555
N9_17 H8_17 1_555 1_555
N9_17 H9_17 1_555 1_555
N9_17 H10_17 1_555 1_555
N9_18 H7_18 1_555 1_555
N9_18 H8_18 1_555 1_555
N9_18 H9_18 1_555 1_555
N9_18 H10_18 1_555 1_555
N9_19 H7_19 1_555 1_555
N9_19 H8_19 1_555 1_555
N9_19 H9_19 1_555 1_555
N9_19 H10_19 1_555 1_555
N9_20 H7_20 1_555 1_555
N9_20 H8_20 1_555 1_555
N9_20 H9_20 1_555 1_555
N9_20 H10_20 1_555 1_555
N9_21 H7_21 1_555 1_555
N9_21 H8_21 1_555 1_555
N9_21 H9_21 1_555 1_555
N9_21 H10_21 1_555 1_555
N9_22 H7_22 1_555 1_555
N9_22 H8_22 1_555 1_555
N9_22 H9_22 1_555 1_555
N9_22 H10_22 1_555 1_555
N9_23 H7_23 1_555 1_555
N9_23 H8_23 1_555 1_555
N9_23 H9_23 1_555 1_555
N9_23 H10_23 1_555 1_555
N9_24 H7_24 1_555 1_555
N9_24 H8_24 1_555 1_555
N9_24 H9_24 1_555 1_555
N9_24 H10_24 1_555 1_555
N9_25 H7_25 1_555 1_555
N9_25 H8_25 1_555 1_555
N9_25 H9_25 1_555 1_555
N9_25 H10_25 1_555 1_555
N9_26 H7_26 1_555 1_555
N9_26 H8_26 1_555 1_555
N9_26 H9_26 1_555 1_555
N9_26 H10_26 1_555 1_555
N9_27 H7_27 1_555 1_555
N9_27 H8_27 1_555 1_555
N9_27 H9_27 1_555 1_555
N9_27 H10_27 1_555 1_555
N9_28 H7_28 1_555 1_555
N9_28 H8_28 1_555 1_555
N9_28 H9_28 1_555 1_555
N9_28 H10_28 1_555 1_555
N9_29 H7_29 1_555 1_555
N9_29 H8_29 1_555 1_555
N9_29 H9_29 1_555 1_555
N9_29 H10_29 1_555 1_555
N9_30 H7_30 1_555 1_555
N9_30 H8_30 1_555 1_555
N9_30 H9_30 1_555 1_555
N9_30 H10_30 1_555 1_555
N9_31 H7_31 1_555 1_555
N9_31 H8_31 1_555 1_555
N9_31 H9_31 1_555 1_555
N9_31 H10_31 1_555 1_555
N9_32 H7_32 1_555 1_555
N9_32 H8_32 1_555 1_555
N9_32 H9_32 1_555 1_555
N9_32 H10_32 1_555 1_555
N9_33 H7_33 1_555 1_555
N9_33 H8_33 1_555 1_555
N9_33 H9_33 1_555 1_555
N9_33 H10_33 1_555 1_555
N9_34 H7_34 1_555 1_555
N9_34 H8_34 1_555 1_555
N9_34 H9_34 1_555 1_555
N9_34 H10_34 1_555 1_555
N9_35 H7_35 1_555 1_555
N9_35 H8_35 1_555 1_555
N9_35 H9_35 1_555 1_555
N9_35 H10_35 1_555 1_555
N9_36 H7_36 1_555 1_555
N9_36 H8_36 1_555 1_555
N9_36 H9_36 1_555 1_555
N9_36 H10_36 1_555 1_555
N9_37 H7_37 1_555 1_555
N9_37 H8_37 1_555 1_555
N9_37 H9_37 1_555 1_555
N9_37 H10_37 1_555 1_555
N9_38 H7_38 1_555 1_555
N9_38 H8_38 1_555 1_555
N9_38 H9_38 1_555 1_555
N9_38 H10_38 1_555 1_555
N9_39 H7_39 1_555 1_555
N9_39 H8_39 1_555 1_555
N9_39 H9_39 1_555 1_555
N9_39 H10_39 1_555 1_555
N9_40 H7_40 1_555 1_555
N9_40 H8_40 1_555 1_555
N9_40 H9_40 1_555 1_555
N9_40 H10_40 1_555 1_555
N9_41 H7_41 1_555 1_555
N9_41 H8_41 1_555 1_555
N9_41 H9_41 1_555 1_555
N9_41 H10_41 1_555 1_555
N9_42 H7_42 1_555 1_555
N9_42 H8_42 1_555 1_555
N9_42 H9_42 1_555 1_555
N9_42 H10_42 1_555 1_555
N9_43 H7_43 1_555 1_555
N9_43 H8_43 1_555 1_555
N9_43 H9_43 1_555 1_555
N9_43 H10_43 1_555 1_555
N9_44 H7_44 1_555 1_555
N9_44 H8_44 1_555 1_555
N9_44 H9_44 1_555 1_555
N9_44 H10_44 1_555 1_555
N9_45 H7_45 1_555 1_555
N9_45 H8_45 1_555 1_555
N9_45 H9_45 1_555 1_555
N9_45 H10_45 1_555 1_555
N9_46 H7_46 1_555 1_555
N9_46 H8_46 1_555 1_555
N9_46 H9_46 1_555 1_555
N9_46 H10_46 1_555 1_555
N9_47 H7_47 1_555 1_555
N9_47 H8_47 1_555 1_555
N9_47 H9_47 1_555 1_555
N9_47 H10_47 1_555 1_555
N9_48 H7_48 1_555 1_555
N9_48 H8_48 1_555 1_555
N9_48 H9_48 1_555 1_555
N9_48 H10_48 1_555 1_555
N9_49 H7_49 1_555 1_555
N9_49 H8_49 1_555 1_555
N9_49 H9_49 1_555 1_555
N9_49 H10_49 1_555 1_555
N9_50 H7_50 1_555 1_555
N9_50 H8_50 1_555 1_555
N9_50 H9_50 1_555 1_555
N9_50 H10_50 1_555 1_555
N9_51 H7_51 1_555 1_555
N9_51 H8_51 1_555 1_555
N9_51 H9_51 1_555 1_555
N9_51 H10_51 1_555 1_555
N9_52 H7_52 1_555 1_555
N9_52 H8_52 1_555 1_555
N9_52 H9_52 1_555 1_555
N9_52 H10_52 1_555 1_555
N9_53 H7_53 1_555 1_555
N9_53 H8_53 1_555 1_555
N9_53 H9_53 1_555 1_555
N9_53 H10_53 1_555 1_555
N9_54 H7_54 1_555 1_555
N9_54 H8_54 1_555 1_555
N9_54 H9_54 1_555 1_555
N9_54 H10_54 1_555 1_555
N9_55 H7_55 1_555 1_555
N9_55 H8_55 1_555 1_555
N9_55 H9_55 1_555 1_555
N9_55 H10_55 1_555 1_555
N9_56 H7_56 1_555 1_555
N9_56 H8_56 1_555 1_555
N9_56 H9_56 1_555 1_555
N9_56 H10_56 1_555 1_555
N9_57 H7_57 1_555 1_555
N9_57 H8_57 1_555 1_555
N9_57 H9_57 1_555 1_555
N9_57 H10_57 1_555 1_555
N9_58 H7_58 1_555 1_555
N9_58 H8_58 1_555 1_555
N9_58 H9_58 1_555 1_555
N9_58 H10_58 1_555 1_555
N9_59 H7_59 1_555 1_555
N9_59 H8_59 1_555 1_555
N9_59 H9_59 1_555 1_555
N9_59 H10_59 1_555 1_555
N9_60 H7_60 1_555 1_555
N9_60 H8_60 1_555 1_555
N9_60 H9_60 1_555 1_555
N9_60 H10_60 1_555 1_555
N9_61 H7_61 1_555 1_555
N9_61 H8_61 1_555 1_555
N9_61 H9_61 1_555 1_555
N9_61 H10_61 1_555 1_555
N9_62 H7_62 1_555 1_555
N9_62 H8_62 1_555 1_555
N9_62 H9_62 1_555 1_555
N9_62 H10_62 1_555 1_555
N9_63 H7_63 1_555 1_555
N9_63 H8_63 1_555 1_555
N9_63 H9_63 1_555 1_555
N9_63 H10_63 1_555 1_555
N9_64 H7_64 1_555 1_555
N9_64 H8_64 1_555 1_555
N9_64 H9_64 1_555 1_555
N9_64 H10_64 1_555 1_555
N9_65 H7_65 1_555 1_555
N9_65 H8_65 1_555 1_555
N9_65 H9_65 1_555 1_555
N9_65 H10_65 1_555 1_555
N9_66 H7_66 1_555 1_555
N9_66 H8_66 1_555 1_555
N9_66 H9_66 1_555 1_555
N9_66 H10_66 1_555 1_555
N9_67 H7_67 1_555 1_555
N9_67 H8_67 1_555 1_555
N9_67 H9_67 1_555 1_555
N9_67 H10_67 1_555 1_555
N9_68 H7_68 1_555 1_555
N9_68 H8_68 1_555 1_555
N9_68 H9_68 1_555 1_555
N9_68 H10_68 1_555 1_555
N9_69 H7_69 1_555 1_555
N9_69 H8_69 1_555 1_555
N9_69 H9_69 1_555 1_555
N9_69 H10_69 1_555 1_555
N9_70 H7_70 1_555 1_555
N9_70 H8_70 1_555 1_555
N9_70 H9_70 1_555 1_555
N9_70 H10_70 1_555 1_555
N9_71 H7_71 1_555 1_555
N9_71 H8_71 1_555 1_555
N9_71 H9_71 1_555 1_555
N9_71 H10_71 1_555 1_555
N9_72 H7_72 1_555 1_555
N9_72 H8_72 1_555 1_555
N9_72 H9_72 1_555 1_555
N9_72 H10_72 1_555 1_555
N9_73 H7_73 1_555 1_555
N9_73 H8_73 1_555 1_555
N9_73 H9_73 1_555 1_555
N9_73 H10_73 1_555 1_555
N9_74 H7_74 1_555 1_555
N9_74 H8_74 1_555 1_555
N9_74 H9_74 1_555 1_555
N9_74 H10_74 1_555 1_555
N9_75 H7_75 1_555 1_555
N9_75 H8_75 1_555 1_555
N9_75 H9_75 1_555 1_555
N9_75 H10_75 1_555 1_555
N9_76 H7_76 1_555 1_555
N9_76 H8_76 1_555 1_555
N9_76 H9_76 1_555 1_555
N9_76 H10_76 1_555 1_555
N9_77 H7_77 1_555 1_555
N9_77 H8_77 1_555 1_555
N9_77 H9_77 1_555 1_555
N9_77 H10_77 1_555 1_555
N9_78 H7_78 1_555 1_555
N9_78 H8_78 1_555 1_555
N9_78 H9_78 1_555 1_555
N9_78 H10_78 1_555 1_555
N9_79 H7_79 1_555 1_555
N9_79 H8_79 1_555 1_555
N9_79 H9_79 1_555 1_555
N9_79 H10_79 1_555 1_555
N9_80 H7_80 1_555 1_555
N9_80 H8_80 1_555 1_555
N9_80 H9_80 1_555 1_555
N9_80 H10_80 1_555 1_555
N9_81 H7_81 1_555 1_555
N9_81 H8_81 1_555 1_555
N9_81 H9_81 1_555 1_555
N9_81 H10_81 1_555 1_555
N9_82 H7_82 1_555 1_555
N9_82 H8_82 1_555 1_555
N9_82 H9_82 1_555 1_555
N9_82 H10_82 1_555 1_555
N9_83 H7_83 1_555 1_555
N9_83 H8_83 1_555 1_555
N9_83 H9_83 1_555 1_555
N9_83 H10_83 1_555 1_555
N9_84 H7_84 1_555 1_555
N9_84 H8_84 1_555 1_555
N9_84 H9_84 1_555 1_555
N9_84 H10_84 1_555 1_555
N9_85 H7_85 1_555 1_555
N9_85 H8_85 1_555 1_555
N9_85 H9_85 1_555 1_555
N9_85 H10_85 1_555 1_555
N9_86 H7_86 1_555 1_555
N9_86 H8_86 1_555 1_555
N9_86 H9_86 1_555 1_555
N9_86 H10_86 1_555 1_555
N9_87 H7_87 1_555 1_555
N9_87 H8_87 1_555 1_555
N9_87 H9_87 1_555 1_555
N9_87 H10_87 1_555 1_555
N9_88 H7_88 1_555 1_555
N9_88 H8_88 1_555 1_555
N9_88 H9_88 1_555 1_555
N9_88 H10_88 1_555 1_555
N9_89 H7_89 1_555 1_555
N9_89 H8_89 1_555 1_555
N9_89 H9_89 1_555 1_555
N9_89 H10_89 1_555 1_555
N9_90 H7_90 1_555 1_555
N9_90 H8_90 1_555 1_555
N9_90 H9_90 1_555 1_555
N9_90 H10_90 1_555 1_555
N9_91 H7_91 1_555 1_555
N9_91 H8_91 1_555 1_555
N9_91 H9_91 1_555 1_555
N9_91 H10_91 1_555 1_555
N9_92 H7_92 1_555 1_555
N9_92 H8_92 1_555 1_555
N9_92 H9_92 1_555 1_555
N9_92 H10_92 1_555 1_555
N9_93 H7_93 1_555 1_555
N9_93 H8_93 1_555 1_555
N9_93 H9_93 1_555 1_555
N9_93 H10_93 1_555 1_555
N9_94 H7_94 1_555 1_555
N9_94 H8_94 1_555 1_555
N9_94 H9_94 1_555 1_555
N9_94 H10_94 1_555 1_555
N9_95 H7_95 1_555 1_555
N9_95 H8_95 1_555 1_555
N9_95 H9_95 1_555 1_555
N9_95 H10_95 1_555 1_555
N9_96 H7_96 1_555 1_555
N9_96 H8_96 1_555 1_555
N9_96 H9_96 1_555 1_555
N9_96 H10_96 1_555 1_555
N9_97 H7_97 1_555 1_555
N9_97 H8_97 1_555 1_555
N9_97 H9_97 1_555 1_555
N9_97 H10_97 1_555 1_555
N9_98 H7_98 1_555 1_555
N9_98 H8_98 1_555 1_555
N9_98 H9_98 1_555 1_555
N9_98 H10_98 1_555 1_555
N9_99 H7_99 1_555 1_555
N9_99 H8_99 1_555 1_555
N9_99 H9_99 1_555 1_555
N9_99 H10_99 1_555 1_555
N9_100 H7_100 1_555 1_555
N9_100 H8_100 1_555 1_555
N9_100 H9_100 1_555 1_555
N9_100 H10_100 1_555 1_555
N9_101 H7_101 1_555 1_555
N9_101 H8_101 1_555 1_555
N9_101 H9_101 1_555 1_555
N9_101 H10_101 1_555 1_555
N9_102 H7_102 1_555 1_555
N9_102 H8_102 1_555 1_555
N9_102 H9_102 1_555 1_555
N9_102 H10_102 1_555 1_555
N9_103 H7_103 1_555 1_555
N9_103 H8_103 1_555 1_555
N9_103 H9_103 1_555 1_555
N9_103 H10_103 1_555 1_555
N9_104 H7_104 1_555 1_555
N9_104 H8_104 1_555 1_555
N9_104 H9_104 1_555 1_555
N9_104 H10_104 1_555 1_555
N9_105 H7_105 1_555 1_555
N9_105 H8_105 1_555 1_555
N9_105 H9_105 1_555 1_555
N9_105 H10_105 1_555 1_555
N9_106 H7_106 1_555 1_555
N9_106 H8_106 1_555 1_555
N9_106 H9_106 1_555 1_555
N9_106 H10_106 1_555 1_555
N9_107 H7_107 1_555 1_555
N9_107 H8_107 1_555 1_555
N9_107 H9_107 1_555 1_555
N9_107 H10_107 1_555 1_555
N9_108 H7_108 1_555 1_555
N9_108 H8_108 1_555 1_555
N9_108 H9_108 1_555 1_555
N9_108 H10_108 1_555 1_555
N9_109 H7_109 1_555 1_555
N9_109 H8_109 1_555 1_555
N9_109 H9_109 1_555 1_555
N9_109 H10_109 1_555 1_555
N9_110 H7_110 1_555 1_555
N9_110 H8_110 1_555 1_555
N9_110 H9_110 1_555 1_555
N9_110 H10_110 1_555 1_555
N9_111 H7_111 1_555 1_555
N9_111 H8_111 1_555 1_555
N9_111 H9_111 1_555 1_555
N9_111 H10_111 1_555 1_555
N9_112 H7_112 1_555 1_555
N9_112 H8_112 1_555 1_555
N9_112 H9_112 1_555 1_555
N9_112 H10_112 1_555 1_555
N9_113 H7_113 1_555 1_555
N9_113 H8_113 1_555 1_555
N9_113 H9_113 1_555 1_555
N9_113 H10_113 1_555 1_555
N9_114 H7_114 1_555 1_555
N9_114 H8_114 1_555 1_555
N9_114 H9_114 1_555 1_555
N9_114 H10_114 1_555 1_555
N9_115 H7_115 1_555 1_555
N9_115 H8_115 1_555 1_555
N9_115 H9_115 1_555 1_555
N9_115 H10_115 1_555 1_555
N9_116 H7_116 1_555 1_555
N9_116 H8_116 1_555 1_555
N9_116 H9_116 1_555 1_555
N9_116 H10_116 1_555 1_555
N9_117 H7_117 1_555 1_555
N9_117 H8_117 1_555 1_555
N9_117 H9_117 1_555 1_555
N9_117 H10_117 1_555 1_555
N9_118 H7_118 1_555 1_555
N9_118 H8_118 1_555 1_555
N9_118 H9_118 1_555 1_555
N9_118 H10_118 1_555 1_555
N9_119 H7_119 1_555 1_555
N9_119 H8_119 1_555 1_555
N9_119 H9_119 1_555 1_555
N9_119 H10_119 1_555 1_555
N9_120 H7_120 1_555 1_555
N9_120 H8_120 1_555 1_555
N9_120 H9_120 1_555 1_555
N9_120 H10_120 1_555 1_555
N9_121 H7_121 1_555 1_555
N9_121 H8_121 1_555 1_555
N9_121 H9_121 1_555 1_555
N9_121 H10_121 1_555 1_555
N9_122 H7_122 1_555 1_555
N9_122 H8_122 1_555 1_555
N9_122 H9_122 1_555 1_555
N9_122 H10_122 1_555 1_555
N9_123 H7_123 1_555 1_555
N9_123 H8_123 1_555 1_555
N9_123 H9_123 1_555 1_555
N9_123 H10_123 1_555 1_555
N9_124 H7_124 1_555 1_555
N9_124 H8_124 1_555 1_555
N9_124 H9_124 1_555 1_555
N9_124 H10_124 1_555 1_555
N9_125 H7_125 1_555 1_555
N9_125 H8_125 1_555 1_555
N9_125 H9_125 1_555 1_555
N9_125 H10_125 1_555 1_555
N9_126 H7_126 1_555 1_555
N9_126 H8_126 1_555 1_555
N9_126 H9_126 1_555 1_555
N9_126 H10_126 1_555 1_555
N9_127 H7_127 1_555 1_555
N9_127 H8_127 1_555 1_555
N9_127 H9_127 1_555 1_555
N9_127 H10_127 1_555 1_555
N9_128 H7_128 1_555 1_555
N9_128 H8_128 1_555 1_555
N9_128 H9_128 1_555 1_555
N9_128 H10_128 1_555 1_555
N9_129 H7_129 1_555 1_555
N9_129 H8_129 1_555 1_555
N9_129 H9_129 1_555 1_555
N9_129 H10_129 1_555 1_555
N9_130 H7_130 1_555 1_555
N9_130 H8_130 1_555 1_555
N9_130 H9_130 1_555 1_555
N9_130 H10_130 1_555 1_555
N9_131 H7_131 1_555 1_555
N9_131 H8_131 1_555 1_555
N9_131 H9_131 1_555 1_555
N9_131 H10_131 1_555 1_555
N9_132 H7_132 1_555 1_555
N9_132 H8_132 1_555 1_555
N9_132 H9_132 1_555 1_555
N9_132 H10_132 1_555 1_555
N9_133 H7_133 1_555 1_555
N9_133 H8_133 1_555 1_555
N9_133 H9_133 1_555 1_555
N9_133 H10_133 1_555 1_555
N9_134 H7_134 1_555 1_555
N9_134 H8_134 1_555 1_555
N9_134 H9_134 1_555 1_555
N9_134 H10_134 1_555 1_555
N9_135 H7_135 1_555 1_555
N9_135 H8_135 1_555 1_555
N9_135 H9_135 1_555 1_555
N9_135 H10_135 1_555 1_555
N9_136 H7_136 1_555 1_555
N9_136 H8_136 1_555 1_555
N9_136 H9_136 1_555 1_555
N9_136 H10_136 1_555 1_555
N9_137 H7_137 1_555 1_555
N9_137 H8_137 1_555 1_555
N9_137 H9_137 1_555 1_555
N9_137 H10_137 1_555 1_555
N9_138 H7_138 1_555 1_555
N9_138 H8_138 1_555 1_555
N9_138 H9_138 1_555 1_555
N9_138 H10_138 1_555 1_555
N9_139 H7_139 1_555 1_555
N9_139 H8_139 1_555 1_555
N9_139 H9_139 1_555 1_555
N9_139 H10_139 1_555 1_555
N9_140 H7_140 1_555 1_555
N9_140 H8_140 1_555 1_555
N9_140 H9_140 1_555 1_555
N9_140 H10_140 1_555 1_555
N9_141 H7_141 1_555 1_555
N9_141 H8_141 1_555 1_555
N9_141 H9_141 1_555 1_555
N9_141 H10_141 1_555 1_555
N9_142 H7_142 1_555 1_555
N9_142 H8_142 1_555 1_555
N9_142 H9_142 1_555 1_555
N9_142 H10_142 1_555 1_555
N9_143 H7_143 1_555 1_555
N9_143 H8_143 1_555 1_555
N9_143 H9_143 1_555 1_555
N9_143 H10_143 1_555 1_555
N9_144 H7_144 1_555 1_555
N9_144 H8_144 1_555 1_555
N9_144 H9_144 1_555 1_555
N9_144 H10_144 1_555 1_555
N9_145 H7_145 1_555 1_555
N9_145 H8_145 1_555 1_555
N9_145 H9_145 1_555 1_555
N9_145 H10_145 1_555 1_555
N9_146 H7_146 1_555 1_555
N9_146 H8_146 1_555 1_555
N9_146 H9_146 1_555 1_555
N9_146 H10_146 1_555 1_555
N9_147 H7_147 1_555 1_555
N9_147 H8_147 1_555 1_555
N9_147 H9_147 1_555 1_555
N9_147 H10_147 1_555 1_555
N9_148 H7_148 1_555 1_555
N9_148 H8_148 1_555 1_555
N9_148 H9_148 1_555 1_555
N9_148 H10_148 1_555 1_555
N9_149 H7_149 1_555 1_555
N9_149 H8_149 1_555 1_555
N9_149 H9_149 1_555 1_555
N9_149 H10_149 1_555 1_555
N9_150 H7_150 1_555 1_555
N9_150 H8_150 1_555 1_555
N9_150 H9_150 1_555 1_555
N9_150 H10_150 1_555 1_555
N9_151 H7_151 1_555 1_555
N9_151 H8_151 1_555 1_555
N9_151 H9_151 1_555 1_555
N9_151 H10_151 1_555 1_555
N9_152 H7_152 1_555 1_555
N9_152 H8_152 1_555 1_555
N9_152 H9_152 1_555 1_555
N9_152 H10_152 1_555 1_555
N9_153 H7_153 1_555 1_555
N9_153 H8_153 1_555 1_555
N9_153 H9_153 1_555 1_555
N9_153 H10_153 1_555 1_555
N9_154 H7_154 1_555 1_555
N9_154 H8_154 1_555 1_555
N9_154 H9_154 1_555 1_555
N9_154 H10_154 1_555 1_555
N9_155 H7_155 1_555 1_555
N9_155 H8_155 1_555 1_555
N9_155 H9_155 1_555 1_555
N9_155 H10_155 1_555 1_555
N9_156 H7_156 1_555 1_555
N9_156 H8_156 1_555 1_555
N9_156 H9_156 1_555 1_555
N9_156 H10_156 1_555 1_555
N9_157 H7_157 1_555 1_555
N9_157 H8_157 1_555 1_555
N9_157 H9_157 1_555 1_555
N9_157 H10_157 1_555 1_555
N9_158 H7_158 1_555 1_555
N9_158 H8_158 1_555 1_555
N9_158 H9_158 1_555 1_555
N9_158 H10_158 1_555 1_555
N9_159 H7_159 1_555 1_555
N9_159 H8_159 1_555 1_555
N9_159 H9_159 1_555 1_555
N9_159 H10_159 1_555 1_555
N9_160 H7_160 1_555 1_555
N9_160 H8_160 1_555 1_555
N9_160 H9_160 1_555 1_555
N9_160 H10_160 1_555 1_555
N9_161 H7_161 1_555 1_555
N9_161 H8_161 1_555 1_555
N9_161 H9_161 1_555 1_555
N9_161 H10_161 1_555 1_555
N9_162 H7_162 1_555 1_555
N9_162 H8_162 1_555 1_555
N9_162 H9_162 1_555 1_555
N9_162 H10_162 1_555 1_555
N9_163 H7_163 1_555 1_555
N9_163 H8_163 1_555 1_555
N9_163 H9_163 1_555 1_555
N9_163 H10_163 1_555 1_555
N9_164 H7_164 1_555 1_555
N9_164 H8_164 1_555 1_555
N9_164 H9_164 1_555 1_555
N9_164 H10_164 1_555 1_555
N9_165 H7_165 1_555 1_555
N9_165 H8_165 1_555 1_555
N9_165 H9_165 1_555 1_555
N9_165 H10_165 1_555 1_555
N9_166 H7_166 1_555 1_555
N9_166 H8_166 1_555 1_555
N9_166 H9_166 1_555 1_555
N9_166 H10_166 1_555 1_555
N9_167 H7_167 1_555 1_555
N9_167 H8_167 1_555 1_555
N9_167 H9_167 1_555 1_555
N9_167 H10_167 1_555 1_555
N9_168 H7_168 1_555 1_555
N9_168 H8_168 1_555 1_555
N9_168 H9_168 1_555 1_555
N9_168 H10_168 1_555 1_555
N9_169 H7_169 1_555 1_555
N9_169 H8_169 1_555 1_555
N9_169 H9_169 1_555 1_555
N9_169 H10_169 1_555 1_555
N9_170 H7_170 1_555 1_555
N9_170 H8_170 1_555 1_555
N9_170 H9_170 1_555 1_555
N9_170 H10_170 1_555 1_555
N9_171 H7_171 1_555 1_555
N9_171 H8_171 1_555 1_555
N9_171 H9_171 1_555 1_555
N9_171 H10_171 1_555 1_555
N9_172 H7_172 1_555 1_555
N9_172 H8_172 1_555 1_555
N9_172 H9_172 1_555 1_555
N9_172 H10_172 1_555 1_555
N9_173 H7_173 1_555 1_555
N9_173 H8_173 1_555 1_555
N9_173 H9_173 1_555 1_555
N9_173 H10_173 1_555 1_555
N9_174 H7_174 1_555 1_555
N9_174 H8_174 1_555 1_555
N9_174 H9_174 1_555 1_555
N9_174 H10_174 1_555 1_555
N9_175 H7_175 1_555 1_555
N9_175 H8_175 1_555 1_555
N9_175 H9_175 1_555 1_555
N9_175 H10_175 1_555 1_555
N9_176 H7_176 1_555 1_555
N9_176 H8_176 1_555 1_555
N9_176 H9_176 1_555 1_555
N9_176 H10_176 1_555 1_555
N9_177 H7_177 1_555 1_555
N9_177 H8_177 1_555 1_555
N9_177 H9_177 1_555 1_555
N9_177 H10_177 1_555 1_555
N9_178 H7_178 1_555 1_555
N9_178 H8_178 1_555 1_555
N9_178 H9_178 1_555 1_555
N9_178 H10_178 1_555 1_555
N9_179 H7_179 1_555 1_555
N9_179 H8_179 1_555 1_555
N9_179 H9_179 1_555 1_555
N9_179 H10_179 1_555 1_555
N9_180 H7_180 1_555 1_555
N9_180 H8_180 1_555 1_555
N9_180 H9_180 1_555 1_555
N9_180 H10_180 1_555 1_555
N9_181 H7_181 1_555 1_555
N9_181 H8_181 1_555 1_555
N9_181 H9_181 1_555 1_555
N9_181 H10_181 1_555 1_555
N9_182 H7_182 1_555 1_555
N9_182 H8_182 1_555 1_555
N9_182 H9_182 1_555 1_555
N9_182 H10_182 1_555 1_555
N9_183 H7_183 1_555 1_555
N9_183 H8_183 1_555 1_555
N9_183 H9_183 1_555 1_555
N9_183 H10_183 1_555 1_555
N9_184 H7_184 1_555 1_555
N9_184 H8_184 1_555 1_555
N9_184 H9_184 1_555 1_555
N9_184 H10_184 1_555 1_555
N9_185 H7_185 1_555 1_555
N9_185 H8_185 1_555 1_555
N9_185 H9_185 1_555 1_555
N9_185 H10_185 1_555 1_555
N9_186 H7_186 1_555 1_555
N9_186 H8_186 1_555 1_555
N9_186 H9_186 1_555 1_555
N9_186 H10_186 1_555 1_555
N9_187 H7_187 1_555 1_555
N9_187 H8_187 1_555 1_555
N9_187 H9_187 1_555 1_555
N9_187 H10_187 1_555 1_555
N9_188 H7_188 1_555 1_555
N9_188 H8_188 1_555 1_555
N9_188 H9_188 1_555 1_555
N9_188 H10_188 1_555 1_555
N9_189 H7_189 1_555 1_555
N9_189 H8_189 1_555 1_555
N9_189 H9_189 1_555 1_555
N9_189 H10_189 1_555 1_555
N9_190 H7_190 1_555 1_555
N9_190 H8_190 1_555 1_555
N9_190 H9_190 1_555 1_555
N9_190 H10_190 1_555 1_555
N9_191 H7_191 1_555 1_555
N9_191 H8_191 1_555 1_555
N9_191 H9_191 1_555 1_555
N9_191 H10_191 1_555 1_555
N9_192 H7_192 1_555 1_555
N9_192 H8_192 1_555 1_555
N9_192 H9_192 1_555 1_555
N9_192 H10_192 1_555 1_555

#END
