
###############################################################################
#
# This file contains modified crystal structure data generated from the
# MOF subset of the Cambridge Structural Database (CSD) v543 
# hosted by the Cambridge Crystallographic Data Centre (CCDC).
#
# This work is licensed under the Creative Commons
# Attribution-NonCommercial-ShareAlike 4.0 International License.
# To view a copy of this license, visit
# http://creativecommons.org/licenses/by-nc-sa/4.0/
# or send a letter to
# Creative Commons, PO Box 1866, Mountain View, CA 94042, USA.
#
# CIF created using the CSD Python API on 29 September 2022
# The structure has been converted into the P1 space group
# The structure has a 3D framework
# The original CSD entry KAJWOL is in the monoclinic crystal system
# The framework has been calculated to contain at least 10.0% void space
# The void calculation uses a probe of radius 1.32A, grid spacing 0.4
#
###############################################################################

data_KAJWOL
_chemical_formula_moiety         '(C264 H240 Cu24 N48 O158)n'
_symmetry_cell_setting           triclinic
_symmetry_space_group_name_H-M   'P 1'
_symmetry_Int_Tables_number      1
_space_group_name_Hall           'P 1'
loop_
_symmetry_equiv_pos_site_id
_symmetry_equiv_pos_as_xyz
1 x,y,z
_cell_length_a                   29.9702(11)
_cell_length_b                   21.5802(7)
_cell_length_c                   18.2863(5)
_cell_angle_alpha                90
_cell_angle_beta                 109.587(3)
_cell_angle_gamma                90
_cell_volume                     11142.5
loop_
_atom_site_label
_atom_site_type_symbol
_atom_site_fract_x
_atom_site_fract_y
_atom_site_fract_z
Cu1 Cu 0.03429(2) 0.01232(2) 0.06589(3)
Cu3 Cu 0.26974(2) 0.20272(2) 0.04666(2)
O13 O 0.30501(13) 0.13436(16) 0.12922(18)
O17 O 0.08731(17) 0.0347(2) 0.1705(2)
C27 C 0.3140(3) 0.1474(3) 0.1999(3)
H14 H 0.3015 0.1842 0.2110
N5 N 0.3388(3) 0.1146(3) 0.2579(3)
C29 C 0.1167(5) 0.0724(5) 0.1723(8)
H18 H 0.1132 0.0927 0.1258
C30 C 0.3454(5) 0.1322(6) 0.3355(4)
H19 H 0.3786 0.1346 0.3642
H20 H 0.3309 0.1019 0.3589
H21 H 0.3310 0.1719 0.3358
C31 C 0.3658(4) 0.0578(5) 0.2473(7)
H22 H 0.3445 0.0234 0.2317
H23 H 0.3903 0.0483 0.2955
H24 H 0.3798 0.0660 0.2082
C32 C 0.1377(5) 0.0783(6) 0.3149(8)
H25 H 0.1088 0.1002 0.3091
H26 H 0.1625 0.0940 0.3592
H27 H 0.1332 0.0350 0.3220
N6 N 0.1532(4) 0.0888(5) 0.2314(7)
C33 C 0.1943(5) 0.1283(7) 0.2325(9)
H28 H 0.2152 0.1332 0.2850
H29 H 0.1831 0.1682 0.2109
H30 H 0.2111 0.1089 0.2022
O24 O 0.23189(12) 0.23481(15) 0.10686(15)
O25 O 0.00331(11) 0.09417(14) 0.05255(19)
O26 O 0.31866(11) 0.26532(14) 0.09555(15)
Cu2 Cu 0.24829(2) 0.19156(2) 0.47537(3)
O1 O 0.06806(9) 0.04014(15) 0.99563(16)
O2 O 0.00996(10) 0.01978(15) 0.88345(17)
O4 O 0.30087(12) 0.18477(14) 0.97026(16)
O5 O 0.21422(11) 0.15478(13) 0.98266(16)
O6 O 0.26811(12) 0.26519(15) 0.89314(15)
O9 O 0.18134(11) 0.23468(14) 0.90445(15)
O10 O 0.27721(12) 0.17047(15) 0.58594(17)
C1 C 0.11732(14) 0.10665(19) 0.9195(2)
H1 H 0.1265 0.1089 0.9733
C3 C 0.04991(13) 0.04085(19) 0.9228(2)
C4 C 0.28771(18) 0.2119(2) 0.6372(2)
C5 C 0.18320(15) 0.1796(2) 0.9259(2)
O12 O 0.25117(15) 0.09694(16) 0.4420(2)
C6 C 0.29496(16) 0.2137(2) 0.7761(2)
H2 H 0.2697 0.2413 0.7630
C7 C 0.29321(15) 0.2171(2) 0.9108(2)
C8 C 0.08920(19) 0.0990(3) 0.7591(3)
H3 H 0.0794 0.0973 0.7052
C9 C 0.07846(14) 0.07180(19) 0.8796(2)
C12 C 0.14324(15) 0.1388(2) 0.8809(2)
C13 C 0.31149(17) 0.1922(2) 0.7191(2)
O14 O 0.1972(2) 0.1633(3) 0.7824(3)
O15 O 0.27913(14) 0.26948(17) 0.62678(16)
C15 C 0.31508(17) 0.1952(2) 0.8521(2)
C16 C 0.06532(16) 0.0673(2) 0.7984(3)
H5 H 0.0399 0.0422 0.7712
C17 C 0.12790(18) 0.1335(2) 0.8000(2)
C19 C 0.3714(2) 0.1326(3) 0.8186(3)
H6 H 0.3974 0.1061 0.8330
N1 N 0.1540(2) 0.1664(3) 0.7570(3)
C20 C 0.3497(2) 0.1507(2) 0.7416(3)
O16 O 0.1331(2) 0.1935(3) 0.6994(3)
N2 N 0.3713(3) 0.1276(4) 0.6853(4)
C21 C 0.35279(19) 0.1553(3) 0.8722(3)
H7 H 0.3662 0.1433 0.9238
O18 O 0.3800(2) 0.1660(3) 0.6416(3)
N3 N 0.2954(3) 0.0093(2) 0.4644(3)
C23 C 0.2870(3) 0.0672(2) 0.4770(4)
H9 H 0.3103 0.0878 0.5162
O20 O 0.3836(4) 0.0762(4) 0.6866(5)
H13 H 0.2510 0.0030 0.3560
Cu7 Cu 0.25171(2) 0.30844(2) 0.52463(3)
Cu8 Cu 0.23026(2) 0.29728(2) 0.95334(2)
O23 O 0.31248(12) 0.20795(14) 0.47484(19)
O27 O 0.18529(12) 0.19326(14) 0.4858(2)
O28 O 0.22087(14) 0.23052(17) 0.37322(16)
O3 O 0.18752(12) 0.70795(14) 0.02516(19)
O7 O 0.05480(10) 0.92665(14) 0.05787(17)
C2 C 0.03282(15) 0.8924(2) 0.0035(3)
C10 C 0.16728(17) 0.7590(2) 0.0051(2)
C11 C 0.09802(16) 0.8221(2) 0.0073(3)
H4 H 0.1173 0.8569 0.0145
C14 C 0.11685(16) 0.7642(2) 0.0020(3)
C18 C 0.05161(17) 0.8292(2) 0.0023(3)
Cu5 Cu 0.25171(2) 0.69156(2) 0.02463(3)
O11 O 0.18529(12) 0.80674(14) 0.9858(2)
C22 C 0.0892(2) 0.7138(3) 0.9932(5)
H8 H 0.1013 0.6751 0.9873
C24 C 0.0246(2) 0.7748(3) 0.9938(5)
C25 C 0.0423(3) 0.7182(3) 0.9929(6)
H10 H 0.0243 0.6830 0.9921
C26 C 0.2611(5) 0.9767(4) 0.4009(6)
H11 H 0.2342 0.9656 0.4156
H12 H 0.2752 0.9399 0.3890
C28 C 0.3383(5) 0.9778(5) 0.5072(7)
H15 H 0.3597 0.9787 0.4782
H16 H 0.3312 0.9356 0.5158
H17 H 0.3526 0.9980 0.5562
Cu6 Cu 0.24829(2) 0.80844(2) 0.97537(3)
O19 O 0.9658(2) 0.8160(3) 0.0368(5)
O22 O 0.99004(10) 0.98022(15) 0.11655(17)
O8 O 0.99669(11) 0.90583(14) 0.94745(19)
N4 N 0.9745(3) 0.7833(4) 0.9912(6)
O21 O 0.9453(3) 0.7527(5) 0.9372(7)
Cu4 Cu 0.96571(2) 0.98768(2) 0.93411(3)
O8_2 O 0.00331(11) 0.90583(14) 0.55255(19)
O19_2 O 0.0342(2) 0.8160(3) 0.4632(5)
N4_2 N 0.0255(3) 0.7833(4) 0.5088(6)
O21_2 O 0.0547(3) 0.7527(5) 0.5628(7)
Cu4_2 Cu 0.03429(2) 0.98768(2) 0.56589(3)
O22_2 O 0.00996(10) 0.98022(15) 0.38345(17)
Cu2_2 Cu 0.75171(2) 0.19156(2) 0.02463(3)
O12_2 O 0.74883(15) 0.09694(16) 0.0580(2)
N3_2 N 0.7046(3) 0.0093(2) 0.0356(3)
C23_2 C 0.7130(3) 0.0672(2) 0.0230(4)
H13_2 H 0.7490 0.0030 0.1440
O23_2 O 0.68752(12) 0.20795(14) 0.02516(19)
O27_2 O 0.81471(12) 0.19326(14) 0.0142(2)
O28_2 O 0.77913(14) 0.23052(17) 0.12678(16)
Cu1_2 Cu 0.96571(2) 0.01232(2) 0.43411(3)
Cu3_2 Cu 0.73026(2) 0.20272(2) 0.45334(2)
O1_2 O 0.93194(9) 0.04014(15) 0.50437(16)
O2_2 O 0.99004(10) 0.01978(15) 0.61655(17)
O4_2 O 0.69913(12) 0.18477(14) 0.52974(16)
O5_2 O 0.78578(11) 0.15478(13) 0.51734(16)
O6_2 O 0.73189(12) 0.26519(15) 0.60686(15)
O9_2 O 0.81866(11) 0.23468(14) 0.59555(15)
O10_2 O 0.72279(12) 0.17047(15) 0.91406(17)
C1_2 C 0.88268(14) 0.10665(19) 0.5805(2)
H1_2 H 0.8735 0.1089 0.5267
C3_2 C 0.95009(13) 0.04085(19) 0.5772(2)
C4_2 C 0.71229(18) 0.2119(2) 0.8628(2)
C5_2 C 0.81680(15) 0.1796(2) 0.5741(2)
C6_2 C 0.70504(16) 0.2137(2) 0.7239(2)
H2_2 H 0.7303 0.2413 0.7370
C7_2 C 0.70679(15) 0.2171(2) 0.5892(2)
C8_2 C 0.91080(19) 0.0990(3) 0.7409(3)
H3_2 H 0.9206 0.0973 0.7948
C9_2 C 0.92154(14) 0.07180(19) 0.6204(2)
O13_2 O 0.69499(13) 0.13436(16) 0.37078(18)
C12_2 C 0.85676(15) 0.1388(2) 0.6191(2)
C13_2 C 0.68851(17) 0.1922(2) 0.7809(2)
O14_2 O 0.8028(2) 0.1633(3) 0.7176(3)
O15_2 O 0.72087(14) 0.26948(17) 0.87322(16)
C15_2 C 0.68492(17) 0.1952(2) 0.6479(2)
C16_2 C 0.93468(16) 0.0673(2) 0.7016(3)
H5_2 H 0.9601 0.0422 0.7288
C17_2 C 0.87210(18) 0.1335(2) 0.7000(2)
C19_2 C 0.6286(2) 0.1326(3) 0.6814(3)
H6_2 H 0.6026 0.1061 0.6670
N1_2 N 0.8460(2) 0.1664(3) 0.7430(3)
C20_2 C 0.6503(2) 0.1507(2) 0.7584(3)
O16_2 O 0.8669(2) 0.1935(3) 0.8006(3)
N2_2 N 0.6287(3) 0.1276(4) 0.8147(4)
C21_2 C 0.64721(19) 0.1553(3) 0.6278(3)
H7_2 H 0.6338 0.1433 0.5762
O17_2 O 0.91269(17) 0.0347(2) 0.3295(2)
O18_2 O 0.6200(2) 0.1660(3) 0.8584(3)
H9_2 H 0.6897 0.0878 0.9838
O20_2 O 0.6164(4) 0.0762(4) 0.8134(5)
C27_2 C 0.6860(3) 0.1474(3) 0.3001(3)
H14_2 H 0.6985 0.1842 0.2890
N5_2 N 0.6612(3) 0.1146(3) 0.2421(3)
C29_2 C 0.8833(5) 0.0724(5) 0.3277(8)
H18_2 H 0.8868 0.0927 0.3742
C30_2 C 0.6546(5) 0.1322(6) 0.1645(4)
H19_2 H 0.6214 0.1346 0.1358
H20_2 H 0.6691 0.1019 0.1411
H21_2 H 0.6690 0.1719 0.1642
C31_2 C 0.6342(4) 0.0578(5) 0.2527(7)
H22_2 H 0.6555 0.0234 0.2683
H23_2 H 0.6097 0.0483 0.2045
H24_2 H 0.6202 0.0660 0.2918
C32_2 C 0.8623(5) 0.0783(6) 0.1851(8)
H25_2 H 0.8912 0.1002 0.1909
H26_2 H 0.8375 0.0940 0.1408
H27_2 H 0.8668 0.0350 0.1780
N6_2 N 0.8468(4) 0.0888(5) 0.2686(7)
C33_2 C 0.8057(5) 0.1283(7) 0.2675(9)
H28_2 H 0.7848 0.1332 0.2150
H29_2 H 0.8169 0.1682 0.2891
H30_2 H 0.7889 0.1089 0.2978
Cu7_2 Cu 0.74829(2) 0.30844(2) 0.97537(3)
Cu8_2 Cu 0.76974(2) 0.29728(2) 0.54666(2)
O24_2 O 0.76811(12) 0.23481(15) 0.39314(15)
O25_2 O 0.99669(11) 0.09417(14) 0.44745(19)
O26_2 O 0.68134(11) 0.26532(14) 0.40445(15)
O3_2 O 0.81248(12) 0.70795(14) 0.47484(19)
O7_2 O 0.94520(10) 0.92665(14) 0.44213(17)
O11_2 O 0.81471(12) 0.80674(14) 0.5142(2)
C2_2 C 0.96718(15) 0.8924(2) 0.4965(3)
C10_2 C 0.83272(17) 0.7590(2) 0.4949(2)
C11_2 C 0.90198(16) 0.8221(2) 0.4927(3)
H4_2 H 0.8827 0.8569 0.4855
C14_2 C 0.88315(16) 0.7642(2) 0.4980(3)
C18_2 C 0.94839(17) 0.8292(2) 0.4977(3)
C22_2 C 0.9108(2) 0.7138(3) 0.5068(5)
H8_2 H 0.8987 0.6751 0.5127
C24_2 C 0.9754(2) 0.7748(3) 0.5062(5)
C25_2 C 0.9577(3) 0.7182(3) 0.5071(6)
H10_2 H 0.9757 0.6830 0.5079
C28_2 C 0.6617(5) 0.9778(5) 0.9928(7)
H16_2 H 0.6688 0.9356 0.9842
H17_2 H 0.6474 0.9980 0.9438
Cu5_2 Cu 0.74829(2) 0.69156(2) 0.47537(3)
Cu6_2 Cu 0.75171(2) 0.80844(2) 0.52463(3)
Cu1_3 Cu 0.53429(2) 0.51232(2) 0.06589(3)
Cu3_3 Cu 0.76974(2) 0.70272(2) 0.04666(2)
O7_3 O 0.55480(10) 0.42665(14) 0.05787(17)
C2_3 C 0.53282(15) 0.3924(2) 0.0035(3)
C10_3 C 0.66728(17) 0.2590(2) 0.0051(2)
O13_3 O 0.80501(13) 0.63436(16) 0.12922(18)
C11_3 C 0.59802(16) 0.3221(2) 0.0073(3)
H4_3 H 0.6173 0.3569 0.0145
C14_3 C 0.61685(16) 0.2642(2) 0.0020(3)
C18_3 C 0.55161(17) 0.3292(2) 0.0023(3)
O17_3 O 0.58731(17) 0.5347(2) 0.1705(2)
O19_3 O 0.4658(2) 0.3160(3) 0.0368(5)
C27_3 C 0.8140(3) 0.6474(3) 0.1999(3)
H14_3 H 0.8015 0.6842 0.2110
N5_3 N 0.8388(3) 0.6146(3) 0.2579(3)
C29_3 C 0.6167(5) 0.5724(5) 0.1723(8)
H18_3 H 0.6132 0.5927 0.1258
C30_3 C 0.8454(5) 0.6322(6) 0.3355(4)
H19_3 H 0.8786 0.6346 0.3642
H20_3 H 0.8309 0.6019 0.3589
H21_3 H 0.8310 0.6719 0.3358
C31_3 C 0.8658(4) 0.5578(5) 0.2473(7)
H22_3 H 0.8445 0.5234 0.2317
H23_3 H 0.8903 0.5483 0.2955
H24_3 H 0.8798 0.5660 0.2082
C32_3 C 0.6377(5) 0.5783(6) 0.3149(8)
H25_3 H 0.6088 0.6002 0.3091
H26_3 H 0.6625 0.5940 0.3592
H27_3 H 0.6332 0.5350 0.3220
N6_3 N 0.6532(4) 0.5888(5) 0.2314(7)
C33_3 C 0.6943(5) 0.6283(7) 0.2325(9)
H28_3 H 0.7152 0.6332 0.2850
H29_3 H 0.6831 0.6682 0.2109
H30_3 H 0.7111 0.6089 0.2022
O22_3 O 0.49004(10) 0.48022(15) 0.11655(17)
O24_3 O 0.73189(12) 0.73481(15) 0.10686(15)
O25_3 O 0.50331(11) 0.59417(14) 0.05255(19)
O26_3 O 0.81866(11) 0.76532(14) 0.09555(15)
O1_3 O 0.56806(9) 0.54014(15) 0.99563(16)
O2_3 O 0.50996(10) 0.51978(15) 0.88345(17)
O4_3 O 0.80087(12) 0.68477(14) 0.97026(16)
O5_3 O 0.71422(11) 0.65478(13) 0.98266(16)
O6_3 O 0.76811(12) 0.76519(15) 0.89314(15)
O8_3 O 0.49669(11) 0.40583(14) 0.94745(19)
O9_3 O 0.68134(11) 0.73468(14) 0.90445(15)
O10_3 O 0.77721(12) 0.67047(15) 0.58594(17)
O11_3 O 0.68529(12) 0.30674(14) 0.9858(2)
C1_3 C 0.61732(14) 0.60665(19) 0.9195(2)
H1_3 H 0.6265 0.6089 0.9733
C3_3 C 0.54991(13) 0.54085(19) 0.9228(2)
C4_3 C 0.78771(18) 0.7119(2) 0.6372(2)
C5_3 C 0.68320(15) 0.6796(2) 0.9259(2)
O12_3 O 0.75117(15) 0.59694(16) 0.4420(2)
C6_3 C 0.79496(16) 0.7137(2) 0.7761(2)
H2_3 H 0.7697 0.7413 0.7630
C7_3 C 0.79321(15) 0.7171(2) 0.9108(2)
C8_3 C 0.58920(19) 0.5990(3) 0.7591(3)
H3_3 H 0.5794 0.5973 0.7052
C9_3 C 0.57846(14) 0.57180(19) 0.8796(2)
C12_3 C 0.64324(15) 0.6388(2) 0.8809(2)
C13_3 C 0.81149(17) 0.6922(2) 0.7191(2)
O14_3 O 0.6972(2) 0.6633(3) 0.7824(3)
O15_3 O 0.77913(14) 0.76948(17) 0.62678(16)
C15_3 C 0.81508(17) 0.6952(2) 0.8521(2)
C16_3 C 0.56532(16) 0.5673(2) 0.7984(3)
H5_3 H 0.5399 0.5422 0.7712
C17_3 C 0.62790(18) 0.6335(2) 0.8000(2)
C19_3 C 0.8714(2) 0.6326(3) 0.8186(3)
H6_3 H 0.8974 0.6061 0.8330
N1_3 N 0.6540(2) 0.6664(3) 0.7570(3)
C20_3 C 0.8497(2) 0.6507(2) 0.7416(3)
O16_3 O 0.6331(2) 0.6935(3) 0.6994(3)
N2_3 N 0.8713(3) 0.6276(4) 0.6853(4)
C21_3 C 0.85279(19) 0.6553(3) 0.8722(3)
H7_3 H 0.8662 0.6433 0.9238
O18_3 O 0.8800(2) 0.6660(3) 0.6416(3)
N3_3 N 0.7954(3) 0.5093(2) 0.4644(3)
C22_3 C 0.5892(2) 0.2138(3) 0.9932(5)
H8_3 H 0.6013 0.1751 0.9873
C23_3 C 0.7870(3) 0.5672(2) 0.4770(4)
H9_3 H 0.8103 0.5878 0.5162
C24_3 C 0.5246(2) 0.2748(3) 0.9938(5)
C25_3 C 0.5423(3) 0.2182(3) 0.9929(6)
H10_3 H 0.5243 0.1830 0.9921
O20_3 O 0.8836(4) 0.5762(4) 0.6866(5)
N4_3 N 0.4745(3) 0.2833(4) 0.9912(6)
C26_2 C 0.7611(5) 0.4767(4) 0.4009(6)
H11_2 H 0.7342 0.4656 0.4156
H12_2 H 0.7752 0.4399 0.3890
H13_3 H 0.7510 0.5030 0.3560
C28_3 C 0.8383(5) 0.4778(5) 0.5072(7)
H15_2 H 0.8597 0.4787 0.4782
H16_3 H 0.8312 0.4356 0.5158
H17_3 H 0.8526 0.4980 0.5562
O21_3 O 0.4453(3) 0.2527(5) 0.9372(7)
Cu4_3 Cu 0.46571(2) 0.48768(2) 0.93411(3)
Cu8_3 Cu 0.73026(2) 0.79728(2) 0.95334(2)
O27_3 O 0.68529(12) 0.69326(14) 0.4858(2)
O28_3 O 0.72087(14) 0.73052(17) 0.37322(16)
O12_4 O 0.24883(15) 0.59694(16) 0.0580(2)
N3_4 N 0.2046(3) 0.5093(2) 0.0356(3)
C23_4 C 0.2130(3) 0.5672(2) 0.0230(4)
C26_3 C 0.2389(5) 0.4767(4) 0.0991(6)
H11_3 H 0.2658 0.4656 0.0844
H12_3 H 0.2248 0.4399 0.1110
H13_4 H 0.2490 0.5030 0.1440
H15_3 H 0.1403 0.4787 0.0218
O27_4 O 0.31471(12) 0.69326(14) 0.0142(2)
O28_4 O 0.27913(14) 0.73052(17) 0.12678(16)
Cu1_4 Cu 0.46571(2) 0.51232(2) 0.43411(3)
Cu3_4 Cu 0.23026(2) 0.70272(2) 0.45334(2)
O1_4 O 0.43194(9) 0.54014(15) 0.50437(16)
O2_4 O 0.49004(10) 0.51978(15) 0.61655(17)
O4_4 O 0.19913(12) 0.68477(14) 0.52974(16)
O5_4 O 0.28578(11) 0.65478(13) 0.51734(16)
O6_4 O 0.23189(12) 0.76519(15) 0.60686(15)
O7_4 O 0.44520(10) 0.42665(14) 0.44213(17)
O8_4 O 0.50331(11) 0.40583(14) 0.55255(19)
O9_4 O 0.31866(11) 0.73468(14) 0.59555(15)
O10_4 O 0.22279(12) 0.67047(15) 0.91406(17)
O11_4 O 0.31471(12) 0.30674(14) 0.5142(2)
C1_4 C 0.38268(14) 0.60665(19) 0.5805(2)
H1_4 H 0.3735 0.6089 0.5267
C2_4 C 0.46718(15) 0.3924(2) 0.4965(3)
C3_4 C 0.45009(13) 0.54085(19) 0.5772(2)
C4_4 C 0.21229(18) 0.7119(2) 0.8628(2)
C5_4 C 0.31680(15) 0.6796(2) 0.5741(2)
C6_4 C 0.20504(16) 0.7137(2) 0.7239(2)
H2_4 H 0.2303 0.7413 0.7370
C7_4 C 0.20679(15) 0.7171(2) 0.5892(2)
C8_4 C 0.41080(19) 0.5990(3) 0.7409(3)
H3_4 H 0.4206 0.5973 0.7948
C9_4 C 0.42154(14) 0.57180(19) 0.6204(2)
C10_4 C 0.33272(17) 0.2590(2) 0.4949(2)
O13_4 O 0.19499(13) 0.63436(16) 0.37078(18)
C11_4 C 0.40198(16) 0.3221(2) 0.4927(3)
H4_4 H 0.3827 0.3569 0.4855
C12_4 C 0.35676(15) 0.6388(2) 0.6191(2)
C13_4 C 0.18851(17) 0.6922(2) 0.7809(2)
O14_4 O 0.3028(2) 0.6633(3) 0.7176(3)
C14_4 C 0.38315(16) 0.2642(2) 0.4980(3)
O15_4 O 0.22087(14) 0.76948(17) 0.87322(16)
C15_4 C 0.18492(17) 0.6952(2) 0.6479(2)
C16_4 C 0.43468(16) 0.5673(2) 0.7016(3)
H5_4 H 0.4601 0.5422 0.7288
C17_4 C 0.37210(18) 0.6335(2) 0.7000(2)
C18_4 C 0.44839(17) 0.3292(2) 0.4977(3)
C19_4 C 0.1286(2) 0.6326(3) 0.6814(3)
H6_4 H 0.1026 0.6061 0.6670
N1_4 N 0.3460(2) 0.6664(3) 0.7430(3)
C20_4 C 0.1503(2) 0.6507(2) 0.7584(3)
O16_4 O 0.3669(2) 0.6935(3) 0.8006(3)
N2_4 N 0.1287(3) 0.6276(4) 0.8147(4)
C21_4 C 0.14721(19) 0.6553(3) 0.6278(3)
H7_4 H 0.1338 0.6433 0.5762
O17_4 O 0.41269(17) 0.5347(2) 0.3295(2)
O18_4 O 0.1200(2) 0.6660(3) 0.8584(3)
C22_4 C 0.4108(2) 0.2138(3) 0.5068(5)
H8_4 H 0.3987 0.1751 0.5127
H9_4 H 0.1897 0.5878 0.9838
C24_4 C 0.4754(2) 0.2748(3) 0.5062(5)
O19_4 O 0.5342(2) 0.3160(3) 0.4632(5)
C25_4 C 0.4577(3) 0.2182(3) 0.5071(6)
H10_4 H 0.4757 0.1830 0.5079
O20_4 O 0.1164(4) 0.5762(4) 0.8134(5)
N4_4 N 0.5255(3) 0.2833(4) 0.5088(6)
C27_4 C 0.1860(3) 0.6474(3) 0.3001(3)
H14_4 H 0.1985 0.6842 0.2890
N5_4 N 0.1612(3) 0.6146(3) 0.2421(3)
C28_4 C 0.1617(5) 0.4778(5) 0.9928(7)
H16_4 H 0.1688 0.4356 0.9842
H17_4 H 0.1474 0.4980 0.9438
C29_4 C 0.3833(5) 0.5724(5) 0.3277(8)
H18_4 H 0.3868 0.5927 0.3742
C30_4 C 0.1546(5) 0.6322(6) 0.1645(4)
H19_4 H 0.1214 0.6346 0.1358
H20_4 H 0.1691 0.6019 0.1411
H21_4 H 0.1690 0.6719 0.1642
C31_4 C 0.1342(4) 0.5578(5) 0.2527(7)
H22_4 H 0.1555 0.5234 0.2683
H23_4 H 0.1097 0.5483 0.2045
H24_4 H 0.1202 0.5660 0.2918
O21_4 O 0.5547(3) 0.2527(5) 0.5628(7)
C32_4 C 0.3623(5) 0.5783(6) 0.1851(8)
H25_4 H 0.3912 0.6002 0.1909
H26_4 H 0.3375 0.5940 0.1408
H27_4 H 0.3668 0.5350 0.1780
N6_4 N 0.3468(4) 0.5888(5) 0.2686(7)
C33_4 C 0.3057(5) 0.6283(7) 0.2675(9)
H28_4 H 0.2848 0.6332 0.2150
H29_4 H 0.3169 0.6682 0.2891
H30_4 H 0.2889 0.6089 0.2978
Cu4_4 Cu 0.53429(2) 0.48768(2) 0.56589(3)
Cu8_4 Cu 0.26974(2) 0.79728(2) 0.54666(2)
O22_4 O 0.50996(10) 0.48022(15) 0.38345(17)
O24_4 O 0.26811(12) 0.73481(15) 0.39314(15)
O25_4 O 0.49669(11) 0.59417(14) 0.44745(19)
O26_4 O 0.18134(11) 0.76532(14) 0.40445(15)
N4_5 N 0.0255(3) 0.2167(4) 0.0088(6)
O21_5 O 0.0547(3) 0.2473(5) 0.0628(7)
O19_5 O 0.0342(2) 0.1840(3) 0.9632(5)
C22_5 C 0.9108(2) 0.2862(3) 0.0068(5)
H8_5 H 0.8987 0.3249 0.0127
C24_5 C 0.9754(2) 0.2252(3) 0.0062(5)
C25_5 C 0.9577(3) 0.2818(3) 0.0071(6)
H10_5 H 0.9757 0.3170 0.0079
C26_4 C 0.7389(5) 0.0233(4) 0.5991(6)
H11_4 H 0.7658 0.0344 0.5844
H12_4 H 0.7248 0.0601 0.6110
C28_5 C 0.6617(5) 0.0222(5) 0.4928(7)
H15_4 H 0.6403 0.0213 0.5218
H16_5 H 0.6688 0.0644 0.4842
H17_5 H 0.6474 0.0020 0.4438
O3_3 O 0.81248(12) 0.29205(14) 0.97484(19)
O7_5 O 0.94520(10) 0.07335(14) 0.94213(17)
C2_5 C 0.96718(15) 0.1076(2) 0.9965(3)
C10_5 C 0.83272(17) 0.2410(2) 0.9949(2)
C11_5 C 0.90198(16) 0.1779(2) 0.9927(3)
H4_5 H 0.8827 0.1431 0.9855
C14_5 C 0.88315(16) 0.2358(2) 0.9980(3)
C18_5 C 0.94839(17) 0.1708(2) 0.9977(3)
O1_5 O 0.93194(9) 0.95986(15) 0.00437(16)
O4_5 O 0.69913(12) 0.81523(14) 0.02974(16)
O5_5 O 0.78578(11) 0.84522(13) 0.01734(16)
O10_5 O 0.72279(12) 0.82953(15) 0.41406(17)
C1_5 C 0.88268(14) 0.89335(19) 0.0805(2)
H1_5 H 0.8735 0.8911 0.0267
C3_5 C 0.95009(13) 0.95915(19) 0.0772(2)
C4_5 C 0.71229(18) 0.7881(2) 0.3628(2)
C5_5 C 0.81680(15) 0.8204(2) 0.0741(2)
O12_5 O 0.74883(15) 0.90306(16) 0.5580(2)
C6_5 C 0.70504(16) 0.7863(2) 0.2239(2)
H2_5 H 0.7303 0.7587 0.2370
C7_5 C 0.70679(15) 0.7829(2) 0.0892(2)
C8_5 C 0.91080(19) 0.9010(3) 0.2409(3)
H3_5 H 0.9206 0.9027 0.2948
C9_5 C 0.92154(14) 0.92820(19) 0.1204(2)
C12_5 C 0.85676(15) 0.8612(2) 0.1191(2)
C13_5 C 0.68851(17) 0.8078(2) 0.2809(2)
O14_5 O 0.8028(2) 0.8367(3) 0.2176(3)
C15_5 C 0.68492(17) 0.8048(2) 0.1479(2)
C16_5 C 0.93468(16) 0.9327(2) 0.2016(3)
H5_5 H 0.9601 0.9578 0.2288
C17_5 C 0.87210(18) 0.8665(2) 0.2000(2)
C19_5 C 0.6286(2) 0.8674(3) 0.1814(3)
H6_5 H 0.6026 0.8939 0.1670
N1_5 N 0.8460(2) 0.8336(3) 0.2430(3)
C20_5 C 0.6503(2) 0.8493(2) 0.2584(3)
O16_5 O 0.8669(2) 0.8065(3) 0.3006(3)
N2_5 N 0.6287(3) 0.8724(4) 0.3147(4)
C21_5 C 0.64721(19) 0.8447(3) 0.1278(3)
H7_5 H 0.6338 0.8567 0.0762
O18_5 O 0.6200(2) 0.8340(3) 0.3584(3)
N3_5 N 0.7046(3) 0.9907(2) 0.5356(3)
C23_5 C 0.7130(3) 0.9328(2) 0.5230(4)
H9_5 H 0.6897 0.9122 0.4838
O20_5 O 0.6164(4) 0.9238(4) 0.3134(5)
H13_5 H 0.7490 0.9970 0.6440
O23_3 O 0.68752(12) 0.79205(14) 0.52516(19)
O13_5 O 0.69499(13) 0.86564(16) 0.87078(18)
O17_5 O 0.91269(17) 0.9653(2) 0.8295(2)
C27_5 C 0.6860(3) 0.8526(3) 0.8001(3)
H14_5 H 0.6985 0.8158 0.7890
N5_5 N 0.6612(3) 0.8854(3) 0.7421(3)
C29_5 C 0.8833(5) 0.9276(5) 0.8277(8)
H18_5 H 0.8868 0.9073 0.8742
C30_5 C 0.6546(5) 0.8678(6) 0.6645(4)
H19_5 H 0.6214 0.8654 0.6358
H20_5 H 0.6691 0.8981 0.6411
H21_5 H 0.6690 0.8281 0.6642
C31_5 C 0.6342(4) 0.9422(5) 0.7527(7)
H22_5 H 0.6555 0.9766 0.7683
H23_5 H 0.6097 0.9517 0.7045
H24_5 H 0.6202 0.9340 0.7918
C32_5 C 0.8623(5) 0.9217(6) 0.6851(8)
H25_5 H 0.8912 0.8998 0.6909
H26_5 H 0.8375 0.9060 0.6408
H27_5 H 0.8668 0.9650 0.6780
N6_5 N 0.8468(4) 0.9112(5) 0.7686(7)
C33_5 C 0.8057(5) 0.8717(7) 0.7675(9)
H28_5 H 0.7848 0.8668 0.7150
H29_5 H 0.8169 0.8318 0.7891
H30_5 H 0.7889 0.8911 0.7978
O3_4 O 0.18752(12) 0.29205(14) 0.52516(19)
O7_6 O 0.05480(10) 0.07335(14) 0.55787(17)
C2_6 C 0.03282(15) 0.1076(2) 0.5035(3)
C10_6 C 0.16728(17) 0.2410(2) 0.5051(2)
C11_6 C 0.09802(16) 0.1779(2) 0.5073(3)
H4_6 H 0.1173 0.1431 0.5145
C14_6 C 0.11685(16) 0.2358(2) 0.5020(3)
C18_6 C 0.05161(17) 0.1708(2) 0.5023(3)
C22_6 C 0.0892(2) 0.2862(3) 0.4932(5)
H8_6 H 0.1013 0.3249 0.4873
C24_6 C 0.0246(2) 0.2252(3) 0.4938(5)
C25_6 C 0.0423(3) 0.2818(3) 0.4929(6)
H10_6 H 0.0243 0.3170 0.4921
C28_6 C 0.3383(5) 0.0222(5) 0.0072(7)
H16_6 H 0.3312 0.0644 0.0158
H17_6 H 0.3526 0.0020 0.0562
O1_6 O 0.06806(9) 0.95986(15) 0.49563(16)
O4_6 O 0.30087(12) 0.81523(14) 0.47026(16)
O5_6 O 0.21422(11) 0.84522(13) 0.48266(16)
O10_6 O 0.27721(12) 0.82953(15) 0.08594(17)
C1_6 C 0.11732(14) 0.89335(19) 0.4195(2)
H1_6 H 0.1265 0.8911 0.4733
C3_6 C 0.04991(13) 0.95915(19) 0.4228(2)
C4_6 C 0.28771(18) 0.7881(2) 0.1372(2)
C5_6 C 0.18320(15) 0.8204(2) 0.4259(2)
C6_6 C 0.29496(16) 0.7863(2) 0.2761(2)
H2_6 H 0.2697 0.7587 0.2630
C7_6 C 0.29321(15) 0.7829(2) 0.4108(2)
C8_6 C 0.08920(19) 0.9010(3) 0.2591(3)
H3_6 H 0.0794 0.9027 0.2052
C9_6 C 0.07846(14) 0.92820(19) 0.3796(2)
O13_6 O 0.30501(13) 0.86564(16) 0.62922(18)
C12_6 C 0.14324(15) 0.8612(2) 0.3809(2)
C13_6 C 0.31149(17) 0.8078(2) 0.2191(2)
O14_6 O 0.1972(2) 0.8367(3) 0.2824(3)
C15_6 C 0.31508(17) 0.8048(2) 0.3521(2)
C16_6 C 0.06532(16) 0.9327(2) 0.2984(3)
H5_6 H 0.0399 0.9578 0.2712
C17_6 C 0.12790(18) 0.8665(2) 0.3000(2)
C19_6 C 0.3714(2) 0.8674(3) 0.3186(3)
H6_6 H 0.3974 0.8939 0.3330
N1_6 N 0.1540(2) 0.8336(3) 0.2570(3)
C20_6 C 0.3497(2) 0.8493(2) 0.2416(3)
O16_6 O 0.1331(2) 0.8065(3) 0.1994(3)
N2_6 N 0.3713(3) 0.8724(4) 0.1853(4)
C21_6 C 0.35279(19) 0.8447(3) 0.3722(3)
H7_6 H 0.3662 0.8567 0.4238
O17_6 O 0.08731(17) 0.9653(2) 0.6705(2)
O18_6 O 0.3800(2) 0.8340(3) 0.1416(3)
H9_6 H 0.3103 0.9122 0.0162
O20_6 O 0.3836(4) 0.9238(4) 0.1866(5)
C27_6 C 0.3140(3) 0.8526(3) 0.6999(3)
H14_6 H 0.3015 0.8158 0.7110
N5_6 N 0.3388(3) 0.8854(3) 0.7579(3)
C29_6 C 0.1167(5) 0.9276(5) 0.6723(8)
H18_6 H 0.1132 0.9073 0.6258
C30_6 C 0.3454(5) 0.8678(6) 0.8355(4)
H19_6 H 0.3786 0.8654 0.8642
H20_6 H 0.3309 0.8981 0.8589
H21_6 H 0.3310 0.8281 0.8358
C31_6 C 0.3658(4) 0.9422(5) 0.7473(7)
H22_6 H 0.3445 0.9766 0.7317
H23_6 H 0.3903 0.9517 0.7955
H24_6 H 0.3798 0.9340 0.7082
C32_6 C 0.1377(5) 0.9217(6) 0.8149(8)
H25_6 H 0.1088 0.8998 0.8091
H26_6 H 0.1625 0.9060 0.8592
H27_6 H 0.1332 0.9650 0.8220
N6_6 N 0.1532(4) 0.9112(5) 0.7314(7)
C33_6 C 0.1943(5) 0.8717(7) 0.7325(9)
H28_6 H 0.2152 0.8668 0.7850
H29_6 H 0.1831 0.8318 0.7109
H30_6 H 0.2111 0.8911 0.7022
O12_6 O 0.25117(15) 0.90306(16) 0.9420(2)
N3_6 N 0.2954(3) 0.9907(2) 0.9644(3)
C23_6 C 0.2870(3) 0.9328(2) 0.9770(4)
H13_6 H 0.2510 0.9970 0.8560
O23_4 O 0.31248(12) 0.79205(14) 0.97484(19)
O19_6 O 0.9658(2) 0.1840(3) 0.5368(5)
N4_6 N 0.9745(3) 0.2167(4) 0.4912(6)
O21_6 O 0.9453(3) 0.2473(5) 0.4372(7)
O1_7 O 0.43194(9) 0.45986(15) 0.00437(16)
O4_7 O 0.19913(12) 0.31523(14) 0.02974(16)
O5_7 O 0.28578(11) 0.34522(13) 0.01734(16)
O10_7 O 0.22279(12) 0.32953(15) 0.41406(17)
C1_7 C 0.38268(14) 0.39335(19) 0.0805(2)
H1_7 H 0.3735 0.3911 0.0267
C3_7 C 0.45009(13) 0.45915(19) 0.0772(2)
C4_7 C 0.21229(18) 0.2881(2) 0.3628(2)
C5_7 C 0.31680(15) 0.3204(2) 0.0741(2)
O12_7 O 0.24883(15) 0.40306(16) 0.5580(2)
C6_7 C 0.20504(16) 0.2863(2) 0.2239(2)
H2_7 H 0.2303 0.2587 0.2370
C7_7 C 0.20679(15) 0.2829(2) 0.0892(2)
C8_7 C 0.41080(19) 0.4010(3) 0.2409(3)
H3_7 H 0.4206 0.4027 0.2948
C9_7 C 0.42154(14) 0.42820(19) 0.1204(2)
C12_7 C 0.35676(15) 0.3612(2) 0.1191(2)
C13_7 C 0.18851(17) 0.3078(2) 0.2809(2)
O14_7 O 0.3028(2) 0.3367(3) 0.2176(3)
C15_7 C 0.18492(17) 0.3048(2) 0.1479(2)
C16_7 C 0.43468(16) 0.4327(2) 0.2016(3)
H5_7 H 0.4601 0.4578 0.2288
C17_7 C 0.37210(18) 0.3665(2) 0.2000(2)
C19_7 C 0.1286(2) 0.3674(3) 0.1814(3)
H6_7 H 0.1026 0.3939 0.1670
N1_7 N 0.3460(2) 0.3336(3) 0.2430(3)
C20_7 C 0.1503(2) 0.3493(2) 0.2584(3)
O16_7 O 0.3669(2) 0.3065(3) 0.3006(3)
N2_7 N 0.1287(3) 0.3724(4) 0.3147(4)
C21_7 C 0.14721(19) 0.3447(3) 0.1278(3)
H7_7 H 0.1338 0.3567 0.0762
O18_7 O 0.1200(2) 0.3340(3) 0.3584(3)
N3_7 N 0.2046(3) 0.4907(2) 0.5356(3)
C22_7 C 0.4108(2) 0.7862(3) 0.0068(5)
H8_7 H 0.3987 0.8249 0.0127
C23_7 C 0.2130(3) 0.4328(2) 0.5230(4)
H9_7 H 0.1897 0.4122 0.4838
C24_7 C 0.4754(2) 0.7252(3) 0.0062(5)
C25_7 C 0.4577(3) 0.7818(3) 0.0071(6)
H10_7 H 0.4757 0.8170 0.0079
O20_7 O 0.1164(4) 0.4238(4) 0.3134(5)
N4_7 N 0.5255(3) 0.7167(4) 0.0088(6)
C26_5 C 0.2389(5) 0.5233(4) 0.5991(6)
H11_5 H 0.2658 0.5344 0.5844
H12_5 H 0.2248 0.5601 0.6110
H13_7 H 0.2490 0.4970 0.6440
C28_7 C 0.1617(5) 0.5222(5) 0.4928(7)
H15_5 H 0.1403 0.5213 0.5218
H16_7 H 0.1688 0.5644 0.4842
H17_7 H 0.1474 0.5020 0.4438
O21_7 O 0.5547(3) 0.7473(5) 0.0628(7)
O7_7 O 0.44520(10) 0.57335(14) 0.94213(17)
C2_7 C 0.46718(15) 0.6076(2) 0.9965(3)
C10_7 C 0.33272(17) 0.7410(2) 0.9949(2)
O13_7 O 0.19499(13) 0.36564(16) 0.87078(18)
C11_7 C 0.40198(16) 0.6779(2) 0.9927(3)
H4_7 H 0.3827 0.6431 0.9855
C14_7 C 0.38315(16) 0.7358(2) 0.9980(3)
C18_7 C 0.44839(17) 0.6708(2) 0.9977(3)
O17_7 O 0.41269(17) 0.4653(2) 0.8295(2)
O19_7 O 0.5342(2) 0.6840(3) 0.9632(5)
C27_7 C 0.1860(3) 0.3526(3) 0.8001(3)
H14_7 H 0.1985 0.3158 0.7890
N5_7 N 0.1612(3) 0.3854(3) 0.7421(3)
C29_7 C 0.3833(5) 0.4276(5) 0.8277(8)
H18_7 H 0.3868 0.4073 0.8742
C30_7 C 0.1546(5) 0.3678(6) 0.6645(4)
H19_7 H 0.1214 0.3654 0.6358
H20_7 H 0.1691 0.3981 0.6411
H21_7 H 0.1690 0.3281 0.6642
C31_7 C 0.1342(4) 0.4422(5) 0.7527(7)
H22_7 H 0.1555 0.4766 0.7683
H23_7 H 0.1097 0.4517 0.7045
H24_7 H 0.1202 0.4340 0.7918
C32_7 C 0.3623(5) 0.4217(6) 0.6851(8)
H25_7 H 0.3912 0.3998 0.6909
H26_7 H 0.3375 0.4060 0.6408
H27_7 H 0.3668 0.4650 0.6780
N6_7 N 0.3468(4) 0.4112(5) 0.7686(7)
C33_7 C 0.3057(5) 0.3717(7) 0.7675(9)
H28_7 H 0.2848 0.3668 0.7150
H29_7 H 0.3169 0.3318 0.7891
H30_7 H 0.2889 0.3911 0.7978
O1_8 O 0.56806(9) 0.45986(15) 0.49563(16)
O4_8 O 0.80087(12) 0.31523(14) 0.47026(16)
O5_8 O 0.71422(11) 0.34522(13) 0.48266(16)
O7_8 O 0.55480(10) 0.57335(14) 0.55787(17)
O10_8 O 0.77721(12) 0.32953(15) 0.08594(17)
C1_8 C 0.61732(14) 0.39335(19) 0.4195(2)
H1_8 H 0.6265 0.3911 0.4733
C2_8 C 0.53282(15) 0.6076(2) 0.5035(3)
C3_8 C 0.54991(13) 0.45915(19) 0.4228(2)
C4_8 C 0.78771(18) 0.2881(2) 0.1372(2)
C5_8 C 0.68320(15) 0.3204(2) 0.4259(2)
C6_8 C 0.79496(16) 0.2863(2) 0.2761(2)
H2_8 H 0.7697 0.2587 0.2630
C7_8 C 0.79321(15) 0.2829(2) 0.4108(2)
C8_8 C 0.58920(19) 0.4010(3) 0.2591(3)
H3_8 H 0.5794 0.4027 0.2052
C9_8 C 0.57846(14) 0.42820(19) 0.3796(2)
C10_8 C 0.66728(17) 0.7410(2) 0.5051(2)
O13_8 O 0.80501(13) 0.36564(16) 0.62922(18)
C11_8 C 0.59802(16) 0.6779(2) 0.5073(3)
H4_8 H 0.6173 0.6431 0.5145
C12_8 C 0.64324(15) 0.3612(2) 0.3809(2)
C13_8 C 0.81149(17) 0.3078(2) 0.2191(2)
O14_8 O 0.6972(2) 0.3367(3) 0.2824(3)
C14_8 C 0.61685(16) 0.7358(2) 0.5020(3)
C15_8 C 0.81508(17) 0.3048(2) 0.3521(2)
C16_8 C 0.56532(16) 0.4327(2) 0.2984(3)
H5_8 H 0.5399 0.4578 0.2712
C17_8 C 0.62790(18) 0.3665(2) 0.3000(2)
C18_8 C 0.55161(17) 0.6708(2) 0.5023(3)
C19_8 C 0.8714(2) 0.3674(3) 0.3186(3)
H6_8 H 0.8974 0.3939 0.3330
N1_8 N 0.6540(2) 0.3336(3) 0.2570(3)
C20_8 C 0.8497(2) 0.3493(2) 0.2416(3)
O16_8 O 0.6331(2) 0.3065(3) 0.1994(3)
N2_8 N 0.8713(3) 0.3724(4) 0.1853(4)
C21_8 C 0.85279(19) 0.3447(3) 0.3722(3)
H7_8 H 0.8662 0.3567 0.4238
O17_8 O 0.58731(17) 0.4653(2) 0.6705(2)
O18_8 O 0.8800(2) 0.3340(3) 0.1416(3)
C22_8 C 0.5892(2) 0.7862(3) 0.4932(5)
H8_8 H 0.6013 0.8249 0.4873
H9_8 H 0.8103 0.4122 0.0162
C24_8 C 0.5246(2) 0.7252(3) 0.4938(5)
O19_8 O 0.4658(2) 0.6840(3) 0.5368(5)
C25_8 C 0.5423(3) 0.7818(3) 0.4929(6)
H10_8 H 0.5243 0.8170 0.4921
O20_8 O 0.8836(4) 0.4238(4) 0.1866(5)
N4_8 N 0.4745(3) 0.7167(4) 0.4912(6)
C27_8 C 0.8140(3) 0.3526(3) 0.6999(3)
H14_8 H 0.8015 0.3158 0.7110
N5_8 N 0.8388(3) 0.3854(3) 0.7579(3)
C28_8 C 0.8383(5) 0.5222(5) 0.0072(7)
H16_8 H 0.8312 0.5644 0.0158
H17_8 H 0.8526 0.5020 0.0562
C29_8 C 0.6167(5) 0.4276(5) 0.6723(8)
H18_8 H 0.6132 0.4073 0.6258
C30_8 C 0.8454(5) 0.3678(6) 0.8355(4)
H19_8 H 0.8786 0.3654 0.8642
H20_8 H 0.8309 0.3981 0.8589
H21_8 H 0.8310 0.3281 0.8358
C31_8 C 0.8658(4) 0.4422(5) 0.7473(7)
H22_8 H 0.8445 0.4766 0.7317
H23_8 H 0.8903 0.4517 0.7955
H24_8 H 0.8798 0.4340 0.7082
O21_8 O 0.4453(3) 0.7473(5) 0.4372(7)
C32_8 C 0.6377(5) 0.4217(6) 0.8149(8)
H25_8 H 0.6088 0.3998 0.8091
H26_8 H 0.6625 0.4060 0.8592
H27_8 H 0.6332 0.4650 0.8220
N6_8 N 0.6532(4) 0.4112(5) 0.7314(7)
C33_8 C 0.6943(5) 0.3717(7) 0.7325(9)
H28_8 H 0.7152 0.3668 0.7850
H29_8 H 0.6831 0.3318 0.7109
H30_8 H 0.7111 0.3911 0.7022
O12_8 O 0.75117(15) 0.40306(16) 0.9420(2)
N3_8 N 0.7954(3) 0.4907(2) 0.9644(3)
C23_8 C 0.7870(3) 0.4328(2) 0.9770(4)
C26_6 C 0.7611(5) 0.5233(4) 0.9009(6)
H11_6 H 0.7342 0.5344 0.9156
H12_6 H 0.7752 0.5601 0.8890
H13_8 H 0.7510 0.4970 0.8560
H15_6 H 0.8597 0.5213 0.9782
C26_7 C 0.7389(5) 0.9767(4) 0.0991(6)
H11_7 H 0.7658 0.9656 0.0844
H12_7 H 0.7248 0.9399 0.1110
H15_7 H 0.6403 0.9787 0.0218
C26_8 C 0.2611(5) 0.0233(4) 0.9009(6)
H11_8 H 0.2342 0.0344 0.9156
H12_8 H 0.2752 0.0601 0.8890
H15_8 H 0.3597 0.0213 0.9782
loop_
_geom_bond_atom_site_label_1
_geom_bond_atom_site_label_2
_geom_bond_site_symmetry_1
_geom_bond_site_symmetry_2
O13 Cu3 1_555 1_555
O17 Cu1 1_555 1_555
C27 O13 1_555 1_555
H14 C27 1_555 1_555
N5 C27 1_555 1_555
C29 O17 1_555 1_555
H18 C29 1_555 1_555
C30 N5 1_555 1_555
H19 C30 1_555 1_555
H20 C30 1_555 1_555
H21 C30 1_555 1_555
C31 N5 1_555 1_555
H22 C31 1_555 1_555
H23 C31 1_555 1_555
H24 C31 1_555 1_555
C32 H25 1_555 1_555
H26 C32 1_555 1_555
H27 C32 1_555 1_555
N6 C29 1_555 1_555
C33 N6 1_555 1_555
H28 C33 1_555 1_555
H29 C33 1_555 1_555
H30 C33 1_555 1_555
O24 Cu3 1_555 1_555
O25 Cu1 1_555 1_555
O26 Cu3 1_555 1_555
C32 N6 1_555 1_555
Cu2 O10 1_555 1_555
O1 C3 1_555 1_555
O2 C3 1_555 1_555
O4 C7 1_555 1_555
O6 C7 1_555 1_555
O9 C5 1_555 1_555
O10 C4 1_555 1_555
C1 H1 1_555 1_555
C3 C9 1_555 1_555
C4 C13 1_555 1_555
C5 O5 1_555 1_555
O12 Cu2 1_555 1_555
C6 H2 1_555 1_555
C7 C15 1_555 1_555
C8 H3 1_555 1_555
C9 C1 1_555 1_555
C12 C1 1_555 1_555
C13 C6 1_555 1_555
O14 N1 1_555 1_555
O15 C4 1_555 1_555
C15 C6 1_555 1_555
C16 C8 1_555 1_555
H5 C16 1_555 1_555
C17 C8 1_555 1_555
C19 H6 1_555 1_555
N1 C17 1_555 1_555
C20 C13 1_555 1_555
O16 N1 1_555 1_555
N2 C20 1_555 1_555
C21 C15 1_555 1_555
H7 C21 1_555 1_555
O18 N2 1_555 1_555
N3 C23 1_555 1_555
C23 O12 1_555 1_555
H9 C23 1_555 1_555
O20 N2 1_555 1_555
Cu7 Cu2 1_555 1_555
O23 Cu2 1_555 1_555
O27 Cu2 1_555 1_555
O28 Cu2 1_555 1_555
O6 Cu8 1_555 1_555
O9 Cu8 1_555 1_555
C5 C12 1_555 1_555
C9 C16 1_555 1_555
C12 C17 1_555 1_555
O15 Cu7 1_555 1_555
C19 C20 1_555 1_555
C19 C21 1_555 1_555
O3 C10 1_555 1_555
C2 O7 1_555 1_555
C10 C14 1_555 1_555
C11 H4 1_555 1_555
C14 C11 1_555 1_555
C18 C2 1_555 1_555
Cu5 O3 1_555 1_555
C11 C18 1_555 1_555
H8 C22 1_555 1_555
C25 C22 1_555 1_555
H10 C25 1_555 1_555
H11 C26 1_555 1_555
H12 C26 1_555 1_555
H15 C28 1_555 1_555
H16 C28 1_555 1_555
H17 C28 1_555 1_555
Cu6 O11 1_555 1_555
C24 C25 1_555 1_555
O21 N4 1_555 1_555
O8 Cu4 1_555 1_555
O19_2 N4_2 1_555 1_555
O21_2 N4_2 1_555 1_555
O8_2 Cu4_2 1_555 1_555
O12_2 Cu2_2 1_555 1_555
N3_2 C23_2 1_555 1_555
C23_2 O12_2 1_555 1_555
O23_2 Cu2_2 1_555 1_555
O27_2 Cu2_2 1_555 1_555
O28_2 Cu2_2 1_555 1_555
Cu1_2 O1_2 1_555 1_555
Cu3_2 O4_2 1_555 1_555
O1_2 C3_2 1_555 1_555
O2_2 C3_2 1_555 1_555
O4_2 C7_2 1_555 1_555
O5_2 Cu3_2 1_555 1_555
O6_2 C7_2 1_555 1_555
O9_2 C5_2 1_555 1_555
O10_2 C4_2 1_555 1_555
C1_2 H1_2 1_555 1_555
C3_2 C9_2 1_555 1_555
C4_2 C13_2 1_555 1_555
C5_2 O5_2 1_555 1_555
C6_2 H2_2 1_555 1_555
C7_2 C15_2 1_555 1_555
C8_2 H3_2 1_555 1_555
C9_2 C1_2 1_555 1_555
O13_2 Cu3_2 1_555 1_555
C12_2 C1_2 1_555 1_555
C13_2 C6_2 1_555 1_555
O14_2 N1_2 1_555 1_555
O15_2 C4_2 1_555 1_555
C15_2 C6_2 1_555 1_555
C16_2 C8_2 1_555 1_555
H5_2 C16_2 1_555 1_555
C17_2 C8_2 1_555 1_555
C19_2 H6_2 1_555 1_555
N1_2 C17_2 1_555 1_555
C20_2 C13_2 1_555 1_555
O16_2 N1_2 1_555 1_555
N2_2 C20_2 1_555 1_555
C21_2 C15_2 1_555 1_555
H7_2 C21_2 1_555 1_555
O17_2 Cu1_2 1_555 1_555
O18_2 N2_2 1_555 1_555
O20_2 N2_2 1_555 1_555
C27_2 O13_2 1_555 1_555
H14_2 C27_2 1_555 1_555
N5_2 C27_2 1_555 1_555
C29_2 O17_2 1_555 1_555
H18_2 C29_2 1_555 1_555
C30_2 N5_2 1_555 1_555
H19_2 C30_2 1_555 1_555
H20_2 C30_2 1_555 1_555
H21_2 C30_2 1_555 1_555
C31_2 N5_2 1_555 1_555
H22_2 C31_2 1_555 1_555
H23_2 C31_2 1_555 1_555
H24_2 C31_2 1_555 1_555
C32_2 H25_2 1_555 1_555
H26_2 C32_2 1_555 1_555
H27_2 C32_2 1_555 1_555
N6_2 C29_2 1_555 1_555
C33_2 N6_2 1_555 1_555
H28_2 C33_2 1_555 1_555
H29_2 C33_2 1_555 1_555
H30_2 C33_2 1_555 1_555
Cu8_2 Cu3_2 1_555 1_555
O24_2 Cu3_2 1_555 1_555
O25_2 Cu1_2 1_555 1_555
O26_2 Cu3_2 1_555 1_555
O6_2 Cu8_2 1_555 1_555
O9_2 Cu8_2 1_555 1_555
C5_2 C12_2 1_555 1_555
C9_2 C16_2 1_555 1_555
C12_2 C17_2 1_555 1_555
O15_2 Cu7_2 1_555 1_555
C19_2 C20_2 1_555 1_555
C19_2 C21_2 1_555 1_555
C32_2 N6_2 1_555 1_555
O3_2 C10_2 1_555 1_555
O11_2 C10_2 1_555 1_555
C2_2 O7_2 1_555 1_555
C10_2 C14_2 1_555 1_555
C11_2 H4_2 1_555 1_555
C14_2 C11_2 1_555 1_555
C18_2 C2_2 1_555 1_555
C22_2 C14_2 1_555 1_555
H8_2 C22_2 1_555 1_555
C24_2 C18_2 1_555 1_555
C25_2 C22_2 1_555 1_555
H10_2 C25_2 1_555 1_555
H16_2 C28_2 1_555 1_555
H17_2 C28_2 1_555 1_555
Cu5_2 O3_2 1_555 1_555
Cu6_2 O11_2 1_555 1_555
C11_2 C18_2 1_555 1_555
C24_2 C25_2 1_555 1_555
Cu5_2 Cu6_2 1_555 1_555
O23_2 C10_3 1_555 1_555
O7_3 Cu1_3 1_555 1_555
C2_3 O7_3 1_555 1_555
C10_3 C14_3 1_555 1_555
O13_3 Cu3_3 1_555 1_555
C11_3 H4_3 1_555 1_555
C14_3 C11_3 1_555 1_555
C18_3 C2_3 1_555 1_555
O17_3 Cu1_3 1_555 1_555
C27_3 O13_3 1_555 1_555
H14_3 C27_3 1_555 1_555
N5_3 C27_3 1_555 1_555
C29_3 O17_3 1_555 1_555
H18_3 C29_3 1_555 1_555
C30_3 N5_3 1_555 1_555
H19_3 C30_3 1_555 1_555
H20_3 C30_3 1_555 1_555
H21_3 C30_3 1_555 1_555
C31_3 N5_3 1_555 1_555
H22_3 C31_3 1_555 1_555
H23_3 C31_3 1_555 1_555
H24_3 C31_3 1_555 1_555
C32_3 H25_3 1_555 1_555
H26_3 C32_3 1_555 1_555
H27_3 C32_3 1_555 1_555
N6_3 C29_3 1_555 1_555
C33_3 N6_3 1_555 1_555
H28_3 C33_3 1_555 1_555
H29_3 C33_3 1_555 1_555
H30_3 C33_3 1_555 1_555
O22_3 Cu1_3 1_555 1_555
O24_3 Cu3_3 1_555 1_555
O25_3 Cu1_3 1_555 1_555
O26_3 Cu3_3 1_555 1_555
C11_3 C18_3 1_555 1_555
C32_3 N6_3 1_555 1_555
Cu5_2 O10_3 1_555 1_555
O1_3 C3_3 1_555 1_555
O2_3 C3_3 1_555 1_555
O4_3 C7_3 1_555 1_555
O6_3 C7_3 1_555 1_555
O9_3 C5_3 1_555 1_555
O10_3 C4_3 1_555 1_555
C1_3 H1_3 1_555 1_555
C3_3 C9_3 1_555 1_555
C4_3 C13_3 1_555 1_555
C5_3 O5_3 1_555 1_555
O12_3 Cu5_2 1_555 1_555
C6_3 H2_3 1_555 1_555
C7_3 C15_3 1_555 1_555
C8_3 H3_3 1_555 1_555
C9_3 C1_3 1_555 1_555
C12_3 C1_3 1_555 1_555
C13_3 C6_3 1_555 1_555
O14_3 N1_3 1_555 1_555
O15_3 C4_3 1_555 1_555
C15_3 C6_3 1_555 1_555
C16_3 C8_3 1_555 1_555
H5_3 C16_3 1_555 1_555
C17_3 C8_3 1_555 1_555
C19_3 H6_3 1_555 1_555
N1_3 C17_3 1_555 1_555
C20_3 C13_3 1_555 1_555
O16_3 N1_3 1_555 1_555
N2_3 C20_3 1_555 1_555
C21_3 C15_3 1_555 1_555
H7_3 C21_3 1_555 1_555
O18_3 N2_3 1_555 1_555
N3_3 C23_3 1_555 1_555
H8_3 C22_3 1_555 1_555
C23_3 O12_3 1_555 1_555
H9_3 C23_3 1_555 1_555
C25_3 C22_3 1_555 1_555
H10_3 C25_3 1_555 1_555
O20_3 N2_3 1_555 1_555
N4_3 C24_3 1_555 1_555
C26_2 N3_3 1_555 1_555
H11_2 C26_2 1_555 1_555
H12_2 C26_2 1_555 1_555
H13_3 C26_2 1_555 1_555
C28_3 N3_3 1_555 1_555
H15_2 C28_3 1_555 1_555
H16_3 C28_3 1_555 1_555
H17_3 C28_3 1_555 1_555
O21_3 N4_3 1_555 1_555
Cu7_2 O11_3 1_555 1_555
O27_3 Cu5_2 1_555 1_555
O28_3 Cu5_2 1_555 1_555
O2_3 Cu4_3 1_555 1_555
O6_3 Cu8_3 1_555 1_555
O8_3 Cu4_3 1_555 1_555
O9_3 Cu8_3 1_555 1_555
C5_3 C12_3 1_555 1_555
C9_3 C16_3 1_555 1_555
C12_3 C17_3 1_555 1_555
O15_3 Cu6_2 1_555 1_555
C19_3 C20_3 1_555 1_555
C19_3 C21_3 1_555 1_555
C24_3 C25_3 1_555 1_555
O12_4 Cu5 1_555 1_555
N3_4 C23_4 1_555 1_555
C23_4 O12_4 1_555 1_555
C26_3 N3_4 1_555 1_555
H11_3 C26_3 1_555 1_555
H12_3 C26_3 1_555 1_555
H13_4 C26_3 1_555 1_555
O27_4 Cu5 1_555 1_555
O28_4 Cu5 1_555 1_555
Cu1_4 O1_4 1_555 1_555
Cu3_4 O4_4 1_555 1_555
O1_4 C3_4 1_555 1_555
O2_4 C3_4 1_555 1_555
O23 C10_4 1_555 1_555
O4_4 C7_4 1_555 1_555
O5_4 Cu3_4 1_555 1_555
O6_4 C7_4 1_555 1_555
O7_4 Cu1_4 1_555 1_555
O8_4 C2_4 1_555 1_555
O9_4 C5_4 1_555 1_555
O10_4 C4_4 1_555 1_555
O11_4 C10_4 1_555 1_555
C1_4 H1_4 1_555 1_555
C2_4 O7_4 1_555 1_555
C3_4 C9_4 1_555 1_555
C4_4 C13_4 1_555 1_555
C5_4 O5_4 1_555 1_555
C6_4 H2_4 1_555 1_555
C7_4 C15_4 1_555 1_555
C8_4 H3_4 1_555 1_555
C9_4 C1_4 1_555 1_555
C10_4 C14_4 1_555 1_555
O13_4 Cu3_4 1_555 1_555
C11_4 H4_4 1_555 1_555
C12_4 C1_4 1_555 1_555
C13_4 C6_4 1_555 1_555
O14_4 N1_4 1_555 1_555
C14_4 C11_4 1_555 1_555
O15_4 C4_4 1_555 1_555
C15_4 C6_4 1_555 1_555
C16_4 C8_4 1_555 1_555
H5_4 C16_4 1_555 1_555
C17_4 C8_4 1_555 1_555
C18_4 C2_4 1_555 1_555
C19_4 H6_4 1_555 1_555
N1_4 C17_4 1_555 1_555
C20_4 C13_4 1_555 1_555
O16_4 N1_4 1_555 1_555
N2_4 C20_4 1_555 1_555
C21_4 C15_4 1_555 1_555
H7_4 C21_4 1_555 1_555
O17_4 Cu1_4 1_555 1_555
O18_4 N2_4 1_555 1_555
C22_4 C14_4 1_555 1_555
H8_4 C22_4 1_555 1_555
C24_4 C18_4 1_555 1_555
O19_4 N4_4 1_555 1_555
C25_4 C22_4 1_555 1_555
H10_4 C25_4 1_555 1_555
O20_4 N2_4 1_555 1_555
N4_4 C24_4 1_555 1_555
C27_4 O13_4 1_555 1_555
H14_4 C27_4 1_555 1_555
N5_4 C27_4 1_555 1_555
H16_4 C28_4 1_555 1_555
H17_4 C28_4 1_555 1_555
C29_4 O17_4 1_555 1_555
H18_4 C29_4 1_555 1_555
C30_4 N5_4 1_555 1_555
H19_4 C30_4 1_555 1_555
H20_4 C30_4 1_555 1_555
H21_4 C30_4 1_555 1_555
C31_4 N5_4 1_555 1_555
H22_4 C31_4 1_555 1_555
H23_4 C31_4 1_555 1_555
H24_4 C31_4 1_555 1_555
O21_4 N4_4 1_555 1_555
C32_4 H25_4 1_555 1_555
H26_4 C32_4 1_555 1_555
H27_4 C32_4 1_555 1_555
N6_4 C29_4 1_555 1_555
C33_4 N6_4 1_555 1_555
H28_4 C33_4 1_555 1_555
H29_4 C33_4 1_555 1_555
H30_4 C33_4 1_555 1_555
Cu4_4 Cu1_4 1_555 1_555
Cu7 O11_4 1_555 1_555
Cu8_4 Cu3_4 1_555 1_555
O22_4 Cu1_4 1_555 1_555
O24_4 Cu3_4 1_555 1_555
O25_4 Cu1_4 1_555 1_555
O26_4 Cu3_4 1_555 1_555
O2_4 Cu4_4 1_555 1_555
O6_4 Cu8_4 1_555 1_555
O8_4 Cu4_4 1_555 1_555
O9_4 Cu8_4 1_555 1_555
C5_4 C12_4 1_555 1_555
C9_4 C16_4 1_555 1_555
C11_4 C18_4 1_555 1_555
C12_4 C17_4 1_555 1_555
O15_4 Cu6 1_555 1_555
C19_4 C20_4 1_555 1_555
C19_4 C21_4 1_555 1_555
C24_4 C25_4 1_555 1_555
C32_4 N6_4 1_555 1_555
O21_5 N4_5 1_555 1_555
H8_5 C22_5 1_555 1_555
C25_5 C22_5 1_555 1_555
H10_5 C25_5 1_555 1_555
H11_4 C26_4 1_555 1_555
H12_4 C26_4 1_555 1_555
H15_4 C28_5 1_555 1_555
H16_5 C28_5 1_555 1_555
H17_5 C28_5 1_555 1_555
C24_5 C25_5 1_555 1_555
O3_3 C10_5 1_555 1_555
C2_5 O7_5 1_555 1_555
C10_5 C14_5 1_555 1_555
C11_5 H4_5 1_555 1_555
C14_5 C11_5 1_555 1_555
C18_5 C2_5 1_555 1_555
Cu7_2 O3_3 1_555 1_555
C11_5 C18_5 1_555 1_555
Cu6_2 O10_5 1_555 1_555
O1_5 C3_5 1_555 1_555
O22 C3_5 1_555 1_555
O4_5 C7_5 1_555 1_555
O24_3 C7_5 1_555 1_555
O26_3 C5_5 1_555 1_555
O10_5 C4_5 1_555 1_555
C1_5 H1_5 1_555 1_555
C3_5 C9_5 1_555 1_555
C4_5 C13_5 1_555 1_555
C5_5 O5_5 1_555 1_555
O12_5 Cu6_2 1_555 1_555
C6_5 H2_5 1_555 1_555
C7_5 C15_5 1_555 1_555
C8_5 H3_5 1_555 1_555
C9_5 C1_5 1_555 1_555
C12_5 C1_5 1_555 1_555
C13_5 C6_5 1_555 1_555
O14_5 N1_5 1_555 1_555
O28_3 C4_5 1_555 1_555
C15_5 C6_5 1_555 1_555
C16_5 C8_5 1_555 1_555
H5_5 C16_5 1_555 1_555
C17_5 C8_5 1_555 1_555
C19_5 H6_5 1_555 1_555
N1_5 C17_5 1_555 1_555
C20_5 C13_5 1_555 1_555
O16_5 N1_5 1_555 1_555
N2_5 C20_5 1_555 1_555
C21_5 C15_5 1_555 1_555
H7_5 C21_5 1_555 1_555
O18_5 N2_5 1_555 1_555
N3_5 C23_5 1_555 1_555
C23_5 O12_5 1_555 1_555
H9_5 C23_5 1_555 1_555
O20_5 N2_5 1_555 1_555
O23_3 Cu6_2 1_555 1_555
C5_5 C12_5 1_555 1_555
C9_5 C16_5 1_555 1_555
C12_5 C17_5 1_555 1_555
C19_5 C20_5 1_555 1_555
C19_5 C21_5 1_555 1_555
O13_5 Cu8_3 1_555 1_555
O17_5 Cu4 1_555 1_555
C27_5 O13_5 1_555 1_555
H14_5 C27_5 1_555 1_555
N5_5 C27_5 1_555 1_555
C29_5 O17_5 1_555 1_555
H18_5 C29_5 1_555 1_555
C30_5 N5_5 1_555 1_555
H19_5 C30_5 1_555 1_555
H20_5 C30_5 1_555 1_555
H21_5 C30_5 1_555 1_555
C31_5 N5_5 1_555 1_555
H22_5 C31_5 1_555 1_555
H23_5 C31_5 1_555 1_555
H24_5 C31_5 1_555 1_555
C32_5 H25_5 1_555 1_555
H26_5 C32_5 1_555 1_555
H27_5 C32_5 1_555 1_555
N6_5 C29_5 1_555 1_555
C33_5 N6_5 1_555 1_555
H28_5 C33_5 1_555 1_555
H29_5 C33_5 1_555 1_555
H30_5 C33_5 1_555 1_555
C32_5 N6_5 1_555 1_555
O3_4 C10_6 1_555 1_555
O27 C10_6 1_555 1_555
C2_6 O7_6 1_555 1_555
C10_6 C14_6 1_555 1_555
C11_6 H4_6 1_555 1_555
C14_6 C11_6 1_555 1_555
C18_6 C2_6 1_555 1_555
C22_6 C14_6 1_555 1_555
H8_6 C22_6 1_555 1_555
C24_6 C18_6 1_555 1_555
C25_6 C22_6 1_555 1_555
H10_6 C25_6 1_555 1_555
H16_6 C28_6 1_555 1_555
H17_6 C28_6 1_555 1_555
Cu7 O3_4 1_555 1_555
C11_6 C18_6 1_555 1_555
C24_6 C25_6 1_555 1_555
Cu4_2 O1_6 1_555 1_555
Cu8_4 O4_6 1_555 1_555
O1_6 C3_6 1_555 1_555
O22_2 C3_6 1_555 1_555
O4_6 C7_6 1_555 1_555
O5_6 Cu8_4 1_555 1_555
O24_4 C7_6 1_555 1_555
O26_4 C5_6 1_555 1_555
O10_6 C4_6 1_555 1_555
C1_6 H1_6 1_555 1_555
C3_6 C9_6 1_555 1_555
C4_6 C13_6 1_555 1_555
C5_6 O5_6 1_555 1_555
C6_6 H2_6 1_555 1_555
C7_6 C15_6 1_555 1_555
C8_6 H3_6 1_555 1_555
C9_6 C1_6 1_555 1_555
O13_6 Cu8_4 1_555 1_555
C12_6 C1_6 1_555 1_555
C13_6 C6_6 1_555 1_555
O14_6 N1_6 1_555 1_555
O28_4 C4_6 1_555 1_555
C15_6 C6_6 1_555 1_555
C16_6 C8_6 1_555 1_555
H5_6 C16_6 1_555 1_555
C17_6 C8_6 1_555 1_555
C19_6 H6_6 1_555 1_555
N1_6 C17_6 1_555 1_555
C20_6 C13_6 1_555 1_555
O16_6 N1_6 1_555 1_555
N2_6 C20_6 1_555 1_555
C21_6 C15_6 1_555 1_555
H7_6 C21_6 1_555 1_555
O17_6 Cu4_2 1_555 1_555
O18_6 N2_6 1_555 1_555
O20_6 N2_6 1_555 1_555
C27_6 O13_6 1_555 1_555
H14_6 C27_6 1_555 1_555
N5_6 C27_6 1_555 1_555
C29_6 O17_6 1_555 1_555
H18_6 C29_6 1_555 1_555
C30_6 N5_6 1_555 1_555
H19_6 C30_6 1_555 1_555
H20_6 C30_6 1_555 1_555
H21_6 C30_6 1_555 1_555
C31_6 N5_6 1_555 1_555
H22_6 C31_6 1_555 1_555
H23_6 C31_6 1_555 1_555
H24_6 C31_6 1_555 1_555
C32_6 H25_6 1_555 1_555
H26_6 C32_6 1_555 1_555
H27_6 C32_6 1_555 1_555
N6_6 C29_6 1_555 1_555
C33_6 N6_6 1_555 1_555
H28_6 C33_6 1_555 1_555
H29_6 C33_6 1_555 1_555
H30_6 C33_6 1_555 1_555
C5_6 C12_6 1_555 1_555
C9_6 C16_6 1_555 1_555
C12_6 C17_6 1_555 1_555
C19_6 C20_6 1_555 1_555
C19_6 C21_6 1_555 1_555
C32_6 N6_6 1_555 1_555
O12_6 Cu6 1_555 1_555
N3_6 C23_6 1_555 1_555
C23_6 O12_6 1_555 1_555
O23_4 Cu6 1_555 1_555
O19_6 N4_6 1_555 1_555
O21_6 N4_6 1_555 1_555
Cu7 O10_7 1_555 1_555
O1_7 C3_7 1_555 1_555
O22_3 C3_7 1_555 1_555
O4_7 C7_7 1_555 1_555
O24 C7_7 1_555 1_555
O26 C5_7 1_555 1_555
O10_7 C4_7 1_555 1_555
C1_7 H1_7 1_555 1_555
C3_7 C9_7 1_555 1_555
C4_7 C13_7 1_555 1_555
C5_7 O5_7 1_555 1_555
O12_7 Cu7 1_555 1_555
C6_7 H2_7 1_555 1_555
C7_7 C15_7 1_555 1_555
C8_7 H3_7 1_555 1_555
C9_7 C1_7 1_555 1_555
C12_7 C1_7 1_555 1_555
C13_7 C6_7 1_555 1_555
O14_7 N1_7 1_555 1_555
O28 C4_7 1_555 1_555
C15_7 C6_7 1_555 1_555
C16_7 C8_7 1_555 1_555
H5_7 C16_7 1_555 1_555
C17_7 C8_7 1_555 1_555
C19_7 H6_7 1_555 1_555
N1_7 C17_7 1_555 1_555
C20_7 C13_7 1_555 1_555
O16_7 N1_7 1_555 1_555
N2_7 C20_7 1_555 1_555
C21_7 C15_7 1_555 1_555
H7_7 C21_7 1_555 1_555
O18_7 N2_7 1_555 1_555
N3_7 C23_7 1_555 1_555
H8_7 C22_7 1_555 1_555
C23_7 O12_7 1_555 1_555
H9_7 C23_7 1_555 1_555
C25_7 C22_7 1_555 1_555
H10_7 C25_7 1_555 1_555
O20_7 N2_7 1_555 1_555
N4_7 C24_7 1_555 1_555
C26_5 N3_7 1_555 1_555
H11_5 C26_5 1_555 1_555
H12_5 C26_5 1_555 1_555
H13_7 C26_5 1_555 1_555
C28_7 N3_7 1_555 1_555
H15_5 C28_7 1_555 1_555
H16_7 C28_7 1_555 1_555
H17_7 C28_7 1_555 1_555
O21_7 N4_7 1_555 1_555
C5_7 C12_7 1_555 1_555
C9_7 C16_7 1_555 1_555
C12_7 C17_7 1_555 1_555
C19_7 C20_7 1_555 1_555
C19_7 C21_7 1_555 1_555
C24_7 C25_7 1_555 1_555
O23_4 C10_7 1_555 1_555
O7_7 Cu4_3 1_555 1_555
C2_7 O7_7 1_555 1_555
C10_7 C14_7 1_555 1_555
O13_7 Cu8 1_555 1_555
C11_7 H4_7 1_555 1_555
C14_7 C11_7 1_555 1_555
C18_7 C2_7 1_555 1_555
O17_7 Cu4_3 1_555 1_555
C27_7 O13_7 1_555 1_555
H14_7 C27_7 1_555 1_555
N5_7 C27_7 1_555 1_555
C29_7 O17_7 1_555 1_555
H18_7 C29_7 1_555 1_555
C30_7 N5_7 1_555 1_555
H19_7 C30_7 1_555 1_555
H20_7 C30_7 1_555 1_555
H21_7 C30_7 1_555 1_555
C31_7 N5_7 1_555 1_555
H22_7 C31_7 1_555 1_555
H23_7 C31_7 1_555 1_555
H24_7 C31_7 1_555 1_555
C32_7 H25_7 1_555 1_555
H26_7 C32_7 1_555 1_555
H27_7 C32_7 1_555 1_555
N6_7 C29_7 1_555 1_555
C33_7 N6_7 1_555 1_555
H28_7 C33_7 1_555 1_555
H29_7 C33_7 1_555 1_555
H30_7 C33_7 1_555 1_555
C11_7 C18_7 1_555 1_555
C32_7 N6_7 1_555 1_555
Cu4_4 O1_8 1_555 1_555
Cu8_2 O4_8 1_555 1_555
O1_8 C3_8 1_555 1_555
O22_4 C3_8 1_555 1_555
O23_3 C10_8 1_555 1_555
O4_8 C7_8 1_555 1_555
O5_8 Cu8_2 1_555 1_555
O24_2 C7_8 1_555 1_555
O7_8 Cu4_4 1_555 1_555
O25_4 C2_8 1_555 1_555
O26_2 C5_8 1_555 1_555
O10_8 C4_8 1_555 1_555
O27_3 C10_8 1_555 1_555
C1_8 H1_8 1_555 1_555
C2_8 O7_8 1_555 1_555
C3_8 C9_8 1_555 1_555
C4_8 C13_8 1_555 1_555
C5_8 O5_8 1_555 1_555
C6_8 H2_8 1_555 1_555
C7_8 C15_8 1_555 1_555
C8_8 H3_8 1_555 1_555
C9_8 C1_8 1_555 1_555
C10_8 C14_8 1_555 1_555
O13_8 Cu8_2 1_555 1_555
C11_8 H4_8 1_555 1_555
C12_8 C1_8 1_555 1_555
C13_8 C6_8 1_555 1_555
O14_8 N1_8 1_555 1_555
C14_8 C11_8 1_555 1_555
O28_2 C4_8 1_555 1_555
C15_8 C6_8 1_555 1_555
C16_8 C8_8 1_555 1_555
H5_8 C16_8 1_555 1_555
C17_8 C8_8 1_555 1_555
C18_8 C2_8 1_555 1_555
C19_8 H6_8 1_555 1_555
N1_8 C17_8 1_555 1_555
C20_8 C13_8 1_555 1_555
O16_8 N1_8 1_555 1_555
N2_8 C20_8 1_555 1_555
C21_8 C15_8 1_555 1_555
H7_8 C21_8 1_555 1_555
O17_8 Cu4_4 1_555 1_555
O18_8 N2_8 1_555 1_555
C22_8 C14_8 1_555 1_555
H8_8 C22_8 1_555 1_555
C24_8 C18_8 1_555 1_555
O19_8 N4_8 1_555 1_555
C25_8 C22_8 1_555 1_555
H10_8 C25_8 1_555 1_555
O20_8 N2_8 1_555 1_555
N4_8 C24_8 1_555 1_555
C27_8 O13_8 1_555 1_555
H14_8 C27_8 1_555 1_555
N5_8 C27_8 1_555 1_555
H16_8 C28_8 1_555 1_555
H17_8 C28_8 1_555 1_555
C29_8 O17_8 1_555 1_555
H18_8 C29_8 1_555 1_555
C30_8 N5_8 1_555 1_555
H19_8 C30_8 1_555 1_555
H20_8 C30_8 1_555 1_555
H21_8 C30_8 1_555 1_555
C31_8 N5_8 1_555 1_555
H22_8 C31_8 1_555 1_555
H23_8 C31_8 1_555 1_555
H24_8 C31_8 1_555 1_555
O21_8 N4_8 1_555 1_555
C32_8 H25_8 1_555 1_555
H26_8 C32_8 1_555 1_555
H27_8 C32_8 1_555 1_555
N6_8 C29_8 1_555 1_555
C33_8 N6_8 1_555 1_555
H28_8 C33_8 1_555 1_555
H29_8 C33_8 1_555 1_555
H30_8 C33_8 1_555 1_555
C5_8 C12_8 1_555 1_555
C9_8 C16_8 1_555 1_555
C11_8 C18_8 1_555 1_555
C12_8 C17_8 1_555 1_555
C19_8 C20_8 1_555 1_555
C19_8 C21_8 1_555 1_555
C24_8 C25_8 1_555 1_555
C32_8 N6_8 1_555 1_555
O12_8 Cu7_2 1_555 1_555
N3_8 C23_8 1_555 1_555
C23_8 O12_8 1_555 1_555
C26_6 N3_8 1_555 1_555
H11_6 C26_6 1_555 1_555
H12_6 C26_6 1_555 1_555
H13_8 C26_6 1_555 1_555
H11_7 C26_7 1_555 1_555
H12_7 C26_7 1_555 1_555
H11_8 C26_8 1_555 1_555
H12_8 C26_8 1_555 1_555

#END
