
###############################################################################
#
# This file contains modified crystal structure data generated from the
# MOF subset of the Cambridge Structural Database (CSD) v543 
# hosted by the Cambridge Crystallographic Data Centre (CCDC).
#
# This work is licensed under the Creative Commons
# Attribution-NonCommercial-ShareAlike 4.0 International License.
# To view a copy of this license, visit
# http://creativecommons.org/licenses/by-nc-sa/4.0/
# or send a letter to
# Creative Commons, PO Box 1866, Mountain View, CA 94042, USA.
#
# CIF created using the CSD Python API on 29 September 2022
# The structure has been converted into the P1 space group
# The structure has a 3D framework
# The original CSD entry KAJZIH is in the tetragonal crystal system
# The framework has been calculated to contain at least 10.0% void space
# The void calculation uses a probe of radius 1.32A, grid spacing 0.4
#
###############################################################################

data_KAJZIH
_chemical_formula_moiety         '(C72 H40 Cu12 O48)n'
_symmetry_cell_setting           triclinic
_symmetry_space_group_name_H-M   'P 1'
_symmetry_Int_Tables_number      1
_space_group_name_Hall           'P 1'
loop_
_symmetry_equiv_pos_site_id
_symmetry_equiv_pos_as_xyz
1 x,y,z
_cell_length_a                   19.2100(5)
_cell_length_b                   19.210
_cell_length_c                   6.9158(2)
_cell_angle_alpha                90
_cell_angle_beta                 90
_cell_angle_gamma                90
_cell_volume                     2552.1
loop_
_atom_site_label
_atom_site_type_symbol
_atom_site_fract_x
_atom_site_fract_y
_atom_site_fract_z
Cu2 Cu 0.53003(2) 0.53003(2) 0.35189(8)
O2 O 0.53227(18) 0.43386(14) 0.2615(4)
O3 O 0.4841(2) 0.38177(15) 0.5124(4)
C3 C 0.55650(18) 0.31241(17) 0.0724(5)
H1 H 0.5659 0.3551 0.0083
C4 C 0.52472(17) 0.31270(18) 0.2546(5)
C5 C 0.5092(3) 0.2500 0.3468(7)
H2 H 0.4884 0.2500 0.4714
C6 C 0.51203(17) 0.38111(17) 0.3508(5)
O4 O 0.57098(13) 0.57098(13) 0.0860(5)
H3 H 0.6025(9) 0.6025(9) 0.055(9)
O6 O 0.53227(18) 0.06614(14) 0.2615(4)
O7 O 0.4841(2) 0.11823(15) 0.5124(4)
C7 C 0.55650(18) 0.18759(17) 0.0724(5)
H5 H 0.5659 0.1449 0.0083
C8 C 0.52472(17) 0.18730(18) 0.2546(5)
C9 C 0.51203(17) 0.11889(17) 0.3508(5)
Cu5 Cu 0.46997(2) 0.03003(2) 0.64811(8)
Cu6 Cu 0.46997(2) 0.46997(2) 0.64811(8)
O9 O 0.43386(14) 0.53227(18) 0.2615(4)
O10 O 0.61823(15) 0.5159(2) 0.4876(4)
O11 O 0.5159(2) 0.61823(15) 0.4876(4)
Cu4 Cu 0.53003(2) 0.96997(2) 0.35189(8)
O3_2 O 0.0159(2) 0.11823(15) 0.5124(4)
H2_2 H 0.0116 0.2500 0.4714
O7_2 O 0.0159(2) 0.38177(15) 0.5124(4)
Cu5_2 Cu 0.03003(2) 0.46997(2) 0.64811(8)
Cu6_2 Cu 0.03003(2) 0.03003(2) 0.64811(8)
O9_2 O 0.06614(14) 0.96773(18) 0.2615(4)
O2_2 O 0.96773(18) 0.06614(14) 0.2615(4)
C3_2 C 0.94350(18) 0.18759(17) 0.0724(5)
H1_2 H 0.9341 0.1449 0.0083
C4_2 C 0.97528(17) 0.18730(18) 0.2546(5)
C5_2 C 0.9908(3) 0.2500 0.3468(7)
C6_2 C 0.98797(17) 0.11889(17) 0.3508(5)
O6_2 O 0.96773(18) 0.43386(14) 0.2615(4)
C7_2 C 0.94350(18) 0.31241(17) 0.0724(5)
H5_2 H 0.9341 0.3551 0.0083
C8_2 C 0.97528(17) 0.31270(18) 0.2546(5)
C9_2 C 0.98797(17) 0.38111(17) 0.3508(5)
Cu4_2 Cu 0.96997(2) 0.53003(2) 0.35189(8)
Cu2_2 Cu 0.96997(2) 0.96997(2) 0.35189(8)
O4_2 O 0.92902(13) 0.92902(13) 0.0860(5)
H3_2 H 0.8975(9) 0.8975(9) 0.055(9)
O10_2 O 0.88177(15) 0.9841(2) 0.4876(4)
O11_2 O 0.9841(2) 0.88177(15) 0.4876(4)
O2_3 O 0.06614(14) 0.53227(18) 0.2615(4)
O3_3 O 0.11823(15) 0.4841(2) 0.5124(4)
C3_3 C 0.18759(17) 0.55650(18) 0.0724(5)
H1_3 H 0.1449 0.5659 0.0083
C4_3 C 0.18730(18) 0.52472(17) 0.2546(5)
C5_3 C 0.2500 0.5092(3) 0.3468(7)
H2_3 H 0.2500 0.4884 0.4714
C6_3 C 0.11889(17) 0.51203(17) 0.3508(5)
O7_3 O 0.38177(15) 0.4841(2) 0.5124(4)
C7_3 C 0.31241(17) 0.55650(18) 0.0724(5)
H5_3 H 0.3551 0.5659 0.0083
C8_3 C 0.31270(18) 0.52472(17) 0.2546(5)
C9_3 C 0.38111(17) 0.51203(17) 0.3508(5)
O4_3 O 0.92902(13) 0.57098(13) 0.0860(5)
H3_3 H 0.8975(9) 0.6025(9) 0.055(9)
O10_3 O 0.9841(2) 0.61823(15) 0.4876(4)
O11_3 O 0.88177(15) 0.5159(2) 0.4876(4)
O3_4 O 0.38177(15) 0.0159(2) 0.5124(4)
H2_4 H 0.2500 0.0116 0.4714
O7_4 O 0.11823(15) 0.0159(2) 0.5124(4)
O2_4 O 0.43386(14) 0.96773(18) 0.2615(4)
C3_4 C 0.31241(17) 0.94350(18) 0.0724(5)
H1_4 H 0.3551 0.9341 0.0083
C4_4 C 0.31270(18) 0.97528(17) 0.2546(5)
C5_4 C 0.2500 0.9908(3) 0.3468(7)
C6_4 C 0.38111(17) 0.98797(17) 0.3508(5)
O4_4 O 0.57098(13) 0.92902(13) 0.0860(5)
H3_4 H 0.6025(9) 0.8975(9) 0.055(9)
C7_4 C 0.18759(17) 0.94350(18) 0.0724(5)
H5_4 H 0.1449 0.9341 0.0083
C8_4 C 0.18730(18) 0.97528(17) 0.2546(5)
C9_4 C 0.11889(17) 0.98797(17) 0.3508(5)
O10_4 O 0.5159(2) 0.88177(15) 0.4876(4)
O11_4 O 0.61823(15) 0.9841(2) 0.4876(4)
O4_5 O 0.42902(13) 0.07098(13) 0.9140(5)
H3_5 H 0.3975(9) 0.1025(9) 0.945(9)
O9_3 O 0.56614(14) 0.03227(18) 0.7385(4)
O2_5 O 0.46773(18) 0.93386(14) 0.7385(4)
C3_5 C 0.44350(18) 0.81241(17) 0.9276(5)
H1_5 H 0.4341 0.8551 0.9917
C4_5 C 0.47528(17) 0.81270(18) 0.7454(5)
C5_5 C 0.4908(3) 0.7500 0.6532(7)
H2_5 H 0.5116 0.7500 0.5286
C6_5 C 0.48797(17) 0.88111(17) 0.6492(5)
O6_3 O 0.46773(18) 0.56614(14) 0.7385(4)
C7_5 C 0.44350(18) 0.68759(17) 0.9276(5)
H5_5 H 0.4341 0.6449 0.9917
C8_5 C 0.47528(17) 0.68730(18) 0.7454(5)
C9_5 C 0.48797(17) 0.61889(17) 0.6492(5)
O2_6 O 0.03227(18) 0.56614(14) 0.7385(4)
C3_6 C 0.05650(18) 0.68759(17) 0.9276(5)
H1_6 H 0.0659 0.6449 0.9917
C4_6 C 0.02472(17) 0.68730(18) 0.7454(5)
C5_6 C 0.0092(3) 0.7500 0.6532(7)
C6_6 C 0.01203(17) 0.61889(17) 0.6492(5)
O4_6 O 0.07098(13) 0.42902(13) 0.9140(5)
H3_6 H 0.1025(9) 0.3975(9) 0.945(9)
O6_4 O 0.03227(18) 0.93386(14) 0.7385(4)
C7_6 C 0.05650(18) 0.81241(17) 0.9276(5)
H5_6 H 0.0659 0.8551 0.9917
C8_6 C 0.02472(17) 0.81270(18) 0.7454(5)
C9_6 C 0.01203(17) 0.88111(17) 0.6492(5)
H2_6 H 0.9884 0.7500 0.5286
O9_4 O 0.93386(14) 0.46773(18) 0.7385(4)
O4_7 O 0.07098(13) 0.07098(13) 0.9140(5)
H3_7 H 0.1025(9) 0.1025(9) 0.945(9)
O2_7 O 0.93386(14) 0.03227(18) 0.7385(4)
C3_7 C 0.81241(17) 0.05650(18) 0.9276(5)
H1_7 H 0.8551 0.0659 0.9917
C4_7 C 0.81270(18) 0.02472(17) 0.7454(5)
C5_7 C 0.7500 0.0092(3) 0.6532(7)
C6_7 C 0.88111(17) 0.01203(17) 0.6492(5)
C7_7 C 0.68759(17) 0.05650(18) 0.9276(5)
H5_7 H 0.6449 0.0659 0.9917
C8_7 C 0.68730(18) 0.02472(17) 0.7454(5)
C9_7 C 0.61889(17) 0.01203(17) 0.6492(5)
H2_7 H 0.7500 0.9884 0.5286
O2_8 O 0.56614(14) 0.46773(18) 0.7385(4)
C3_8 C 0.68759(17) 0.44350(18) 0.9276(5)
H1_8 H 0.6449 0.4341 0.9917
C4_8 C 0.68730(18) 0.47528(17) 0.7454(5)
C5_8 C 0.7500 0.4908(3) 0.6532(7)
H2_8 H 0.7500 0.5116 0.5286
C6_8 C 0.61889(17) 0.48797(17) 0.6492(5)
O4_8 O 0.42902(13) 0.42902(13) 0.9140(5)
H3_8 H 0.3975(9) 0.3975(9) 0.945(9)
C7_8 C 0.81241(17) 0.44350(18) 0.9276(5)
H5_8 H 0.8551 0.4341 0.9917
C8_8 C 0.81270(18) 0.47528(17) 0.7454(5)
C9_8 C 0.88111(17) 0.48797(17) 0.6492(5)
Cu1 Cu 0.67264(2) 0.17264(2) 0.5000
O1 O 0.63198(16) 0.19197(13) 0.7335(4)
C1 C 0.6153(3) 0.2500 0.8018(7)
C2 C 0.5742(3) 0.2500 0.9855(7)
H4 H 0.559(2) 0.559(2) 0.970(5)
O5 O 0.63198(16) 0.30803(13) 0.7335(4)
Cu3 Cu 0.67264(2) 0.32736(2) 0.5000
O8 O 0.69197(13) 0.13198(16) 0.2665(4)
Cu1_2 Cu 0.82736(2) 0.32736(2) 0.5000
O1_2 O 0.86802(16) 0.30803(13) 0.7335(4)
C1_2 C 0.8847(3) 0.2500 0.8018(7)
C2_2 C 0.9258(3) 0.2500 0.9855(7)
O5_2 O 0.86802(16) 0.19197(13) 0.7335(4)
Cu3_2 Cu 0.82736(2) 0.17264(2) 0.5000
O8_2 O 0.80803(13) 0.36802(16) 0.2665(4)
Cu1_3 Cu 0.32736(2) 0.67264(2) 0.5000
O1_3 O 0.30803(13) 0.63198(16) 0.7335(4)
C1_3 C 0.2500 0.6153(3) 0.8018(7)
C2_3 C 0.2500 0.5742(3) 0.9855(7)
O5_3 O 0.19197(13) 0.63198(16) 0.7335(4)
Cu3_3 Cu 0.17264(2) 0.67264(2) 0.5000
O8_3 O 0.36802(16) 0.69197(13) 0.2665(4)
H4_2 H 0.941(2) 0.559(2) 0.970(5)
Cu1_4 Cu 0.17264(2) 0.82736(2) 0.5000
O1_4 O 0.19197(13) 0.86802(16) 0.7335(4)
C1_4 C 0.2500 0.8847(3) 0.8018(7)
C2_4 C 0.2500 0.9258(3) 0.9855(7)
H4_3 H 0.559(2) 0.941(2) 0.970(5)
O5_4 O 0.30803(13) 0.86802(16) 0.7335(4)
Cu3_4 Cu 0.32736(2) 0.82736(2) 0.5000
O8_4 O 0.13198(16) 0.80803(13) 0.2665(4)
H4_4 H 0.441(2) 0.059(2) 0.030(5)
C1_5 C 0.3847(3) 0.7500 0.1982(7)
C2_5 C 0.4258(3) 0.7500 0.0145(7)
O5_5 O 0.36802(16) 0.80803(13) 0.2665(4)
C1_6 C 0.1153(3) 0.7500 0.1982(7)
C2_6 C 0.0742(3) 0.7500 0.0145(7)
H4_5 H 0.059(2) 0.441(2) 0.030(5)
O5_6 O 0.13198(16) 0.69197(13) 0.2665(4)
C1_7 C 0.7500 0.1153(3) 0.1982(7)
C2_7 C 0.7500 0.0742(3) 0.0145(7)
O5_7 O 0.80803(13) 0.13198(16) 0.2665(4)
C1_8 C 0.7500 0.3847(3) 0.1982(7)
C2_8 C 0.7500 0.4258(3) 0.0145(7)
H4_6 H 0.441(2) 0.441(2) 0.030(5)
O5_8 O 0.69197(13) 0.36802(16) 0.2665(4)
H4_7 H 0.941(2) 0.941(2) 0.970(5)
H4_8 H 0.059(2) 0.059(2) 0.030(5)
loop_
_geom_bond_atom_site_label_1
_geom_bond_atom_site_label_2
_geom_bond_site_symmetry_1
_geom_bond_site_symmetry_2
Cu2 O2 1_555 1_555
O2 C6 1_555 1_555
O3 C6 1_555 1_555
C3 H1 1_555 1_555
C4 C3 1_555 1_555
C5 C4 1_555 1_555
H2 C5 1_555 1_555
C6 C4 1_555 1_555
O4 Cu2 1_555 1_555
H3 O4 1_555 1_555
O6 C9 1_555 1_555
O7 C9 1_555 1_555
H5 C7 1_555 1_555
C8 C5 1_555 1_555
C9 C8 1_555 1_555
Cu5 O7 1_555 1_555
Cu6 Cu2 1_555 1_555
O9 Cu2 1_555 1_555
O10 Cu2 1_555 1_555
O11 Cu2 1_555 1_555
O3 Cu6 1_555 1_555
C7 C8 1_555 1_555
Cu5_2 O7_2 1_555 1_555
O3_2 Cu6_2 1_555 1_555
O2_2 C6_2 1_555 1_555
C3_2 H1_2 1_555 1_555
C4_2 C3_2 1_555 1_555
C5_2 C4_2 1_555 1_555
C6_2 C4_2 1_555 1_555
O6_2 C9_2 1_555 1_555
H5_2 C7_2 1_555 1_555
C8_2 C5_2 1_555 1_555
C9_2 C8_2 1_555 1_555
Cu4_2 O6_2 1_555 1_555
C7_2 C8_2 1_555 1_555
O4_2 Cu2_2 1_555 1_555
H3_2 O4_2 1_555 1_555
O10_2 Cu2_2 1_555 1_555
O11_2 Cu2_2 1_555 1_555
O2_3 C6_3 1_555 1_555
O3_3 C6_3 1_555 1_555
C3_3 H1_3 1_555 1_555
C4_3 C3_3 1_555 1_555
C5_3 C4_3 1_555 1_555
H2_3 C5_3 1_555 1_555
C6_3 C4_3 1_555 1_555
O9 C9_3 1_555 1_555
O7_3 C9_3 1_555 1_555
H5_3 C7_3 1_555 1_555
C8_3 C5_3 1_555 1_555
C9_3 C8_3 1_555 1_555
Cu6 O7_3 1_555 1_555
O3_3 Cu5_2 1_555 1_555
C7_3 C8_3 1_555 1_555
O4_3 Cu4_2 1_555 1_555
H3_3 O4_3 1_555 1_555
O10_3 Cu4_2 1_555 1_555
O11_3 Cu4_2 1_555 1_555
Cu6_2 O7_4 1_555 1_555
O3_4 Cu5 1_555 1_555
Cu4 O2_4 1_555 1_555
O2_4 C6_4 1_555 1_555
C3_4 H1_4 1_555 1_555
C4_4 C3_4 1_555 1_555
C5_4 C4_4 1_555 1_555
C6_4 C4_4 1_555 1_555
O4_4 Cu4 1_555 1_555
H3_4 O4_4 1_555 1_555
O9_2 C9_4 1_555 1_555
H5_4 C7_4 1_555 1_555
C8_4 C5_4 1_555 1_555
C9_4 C8_4 1_555 1_555
O10_4 Cu4 1_555 1_555
O11_4 Cu4 1_555 1_555
C7_4 C8_4 1_555 1_555
O4_5 Cu5 1_555 1_555
H3_5 O4_5 1_555 1_555
O9_3 Cu5 1_555 1_555
O2_5 C6_5 1_555 1_555
O10_4 C6_5 1_555 1_555
C3_5 H1_5 1_555 1_555
C4_5 C3_5 1_555 1_555
C5_5 C4_5 1_555 1_555
H2_5 C5_5 1_555 1_555
C6_5 C4_5 1_555 1_555
O6_3 C9_5 1_555 1_555
O11 C9_5 1_555 1_555
H5_5 C7_5 1_555 1_555
C8_5 C5_5 1_555 1_555
C9_5 C8_5 1_555 1_555
Cu6 O6_3 1_555 1_555
C7_5 C8_5 1_555 1_555
Cu5_2 O2_6 1_555 1_555
O2_6 C6_6 1_555 1_555
C3_6 H1_6 1_555 1_555
C4_6 C3_6 1_555 1_555
C5_6 C4_6 1_555 1_555
C6_6 C4_6 1_555 1_555
O4_6 Cu5_2 1_555 1_555
H3_6 O4_6 1_555 1_555
O6_4 C9_6 1_555 1_555
H5_6 C7_6 1_555 1_555
C8_6 C5_6 1_555 1_555
C9_6 C8_6 1_555 1_555
C7_6 C8_6 1_555 1_555
O4_7 Cu6_2 1_555 1_555
H3_7 O4_7 1_555 1_555
O2_7 C6_7 1_555 1_555
C3_7 H1_7 1_555 1_555
C4_7 C3_7 1_555 1_555
C5_7 C4_7 1_555 1_555
C6_7 C4_7 1_555 1_555
O9_3 C9_7 1_555 1_555
H5_7 C7_7 1_555 1_555
C8_7 C5_7 1_555 1_555
C9_7 C8_7 1_555 1_555
C7_7 C8_7 1_555 1_555
Cu6 O2_8 1_555 1_555
O2_8 C6_8 1_555 1_555
O10 C6_8 1_555 1_555
C3_8 H1_8 1_555 1_555
C4_8 C3_8 1_555 1_555
C5_8 C4_8 1_555 1_555
H2_8 C5_8 1_555 1_555
C6_8 C4_8 1_555 1_555
O4_8 Cu6 1_555 1_555
H3_8 O4_8 1_555 1_555
O9_4 C9_8 1_555 1_555
O11_3 C9_8 1_555 1_555
H5_8 C7_8 1_555 1_555
C8_8 C5_8 1_555 1_555
C9_8 C8_8 1_555 1_555
C7_8 C8_8 1_555 1_555
Cu1 O1 1_555 1_555
O1 C1 1_555 1_555
C1 C2 1_555 1_555
O5 C1 1_555 1_555
Cu3 O5 1_555 1_555
O8 Cu1 1_555 1_555
Cu1_2 O1_2 1_555 1_555
O1_2 C1_2 1_555 1_555
C1_2 C2_2 1_555 1_555
O5_2 C1_2 1_555 1_555
Cu3_2 O5_2 1_555 1_555
O8_2 Cu1_2 1_555 1_555
Cu1_3 O1_3 1_555 1_555
O1_3 C1_3 1_555 1_555
C1_3 C2_3 1_555 1_555
O5_3 C1_3 1_555 1_555
Cu3_3 O5_3 1_555 1_555
O8_3 Cu1_3 1_555 1_555
Cu1_4 O1_4 1_555 1_555
O1_4 C1_4 1_555 1_555
C1_4 C2_4 1_555 1_555
O5_4 C1_4 1_555 1_555
Cu3_4 O5_4 1_555 1_555
O8_4 Cu1_4 1_555 1_555
O8_3 C1_5 1_555 1_555
C1_5 C2_5 1_555 1_555
O5_5 C1_5 1_555 1_555
Cu3_4 O5_5 1_555 1_555
O8_4 C1_6 1_555 1_555
C1_6 C2_6 1_555 1_555
O5_6 C1_6 1_555 1_555
Cu3_3 O5_6 1_555 1_555
O8 C1_7 1_555 1_555
C1_7 C2_7 1_555 1_555
O5_7 C1_7 1_555 1_555
Cu3_2 O5_7 1_555 1_555
O8_2 C1_8 1_555 1_555
C1_8 C2_8 1_555 1_555
O5_8 C1_8 1_555 1_555
Cu3 O5_8 1_555 1_555

#END
