
###############################################################################
#
# This file contains modified crystal structure data generated from the
# MOF subset of the Cambridge Structural Database (CSD) v543 
# hosted by the Cambridge Crystallographic Data Centre (CCDC).
#
# This work is licensed under the Creative Commons
# Attribution-NonCommercial-ShareAlike 4.0 International License.
# To view a copy of this license, visit
# http://creativecommons.org/licenses/by-nc-sa/4.0/
# or send a letter to
# Creative Commons, PO Box 1866, Mountain View, CA 94042, USA.
#
# CIF created using the CSD Python API on 29 September 2022
# The structure has been converted into the P1 space group
# The structure has a 3D framework
# The original CSD entry KAKCEH02 is in the orthorhombic crystal system
# The framework has been calculated to contain at least 10.0% void space
# The void calculation uses a probe of radius 1.32A, grid spacing 0.4
# The framework is charged, counterions have been retained in the structure
# H atom positions have been added when not included in the experimental data
#
###############################################################################

data_KAKCEH02
_chemical_formula_moiety         '(C124 H132 Ba3 N8 O26 7+)n'
_symmetry_cell_setting           triclinic
_symmetry_space_group_name_H-M   'P 1'
_symmetry_Int_Tables_number      1
_space_group_name_Hall           'P 1'
loop_
_symmetry_equiv_pos_site_id
_symmetry_equiv_pos_as_xyz
1 x,y,z
_cell_length_a                   7.2652(3)
_cell_length_b                   19.3152(9)
_cell_length_c                   26.0723(12)
_cell_angle_alpha                90
_cell_angle_beta                 90
_cell_angle_gamma                90
_cell_volume                     3658.69
loop_
_atom_site_label
_atom_site_type_symbol
_atom_site_fract_x
_atom_site_fract_y
_atom_site_fract_z
Ba4 Ba 0.13256(8) 0.80820(3) 0.91167(5)
Ba1 Ba 0.36744(8) 0.30820(3) 0.41167(5)
O1 O 0.6693(12) 0.2687(5) 0.3414(3)
O2 O 0.5497(13) 0.3723(4) 0.3287(4)
O3 O 0.313(2) 0.3293(9) 0.5176(6)
O5 O 0.7141(13) 0.3153(4) 0.4557(4)
O6 O 0.4212(13) 0.4507(4) 0.4257(4)
C1 C 0.3616(16) 0.1519(6) 0.4454(5)
C2 C 0.3758(16) 0.0772(7) 0.4669(6)
C3 C 0.3019(18) 0.0610(7) 0.5122(5)
C4 C 0.4697(17) 0.0293(6) 0.4382(5)
H1 H 0.2259 0.0933 0.5296
H2 H 0.5128 0.0408 0.4048
O8 O 0.4903(8) 0.1735(3) 0.4213(3)
O9 O 0.1693(12) 0.2313(5) 0.3414(3)
O10 O 0.2141(13) 0.1847(4) 0.4557(4)
Ba2 Ba 0.86744(8) 0.19180(3) 0.41167(5)
H16 H 0.395837 0.366746 0.529773
H17 H 0.183015 0.34272 0.523907
C5 C 0.3366(18) 0.9967(7) 0.5335(5)
C6 C 0.5010(17) 0.9642(6) 0.4584(5)
C7 C 0.4374(16) 0.9464(6) 0.5065(5)
H3 H 0.2919 0.9865 0.5669
H4 H 0.5675 0.9311 0.4388
C8 C 0.4865(17) 0.8777(5) 0.5298(5)
C9 C 0.5402(16) 0.8750(6) 0.5812(5)
C10 C 0.4901(16) 0.8181(5) 0.5018(5)
C11 C 0.5942(15) 0.8133(6) 0.6048(5)
H5 H 0.5399 0.9165 0.6009
H6 H 0.4598 0.8198 0.4664
C12 C 0.5369(15) 0.7550(6) 0.5239(5)
C13 C 0.6637(16) 0.8140(6) 0.6571(5)
C14 C 0.5937(16) 0.7542(6) 0.5747(5)
C15 C 0.5217(16) 0.6908(5) 0.4931(5)
C16 C 0.6412(16) 0.7591(6) 0.6900(5)
C17 C 0.756(2) 0.8710(7) 0.6770(6)
H7 H 0.6334 0.7117 0.5894
C18 C 0.566(2) 0.6903(7) 0.4412(5)
C19 C 0.4660(17) 0.6298(5) 0.5150(5)
C20 C 0.7023(16) 0.7606(6) 0.7399(5)
H8 H 0.5814 0.7185 0.6778
C21 C 0.817(2) 0.8749(6) 0.7265(6)
H9 H 0.7772 0.9093 0.6550
C22 C 0.5580(16) 0.6288(5) 0.4140(8)
H10 H 0.6015 0.7319 0.4245
C23 C 0.4500(17) 0.5688(6) 0.4863(5)
H11 H 0.4375 0.6289 0.5506
C24 C 0.7859(19) 0.8183(6) 0.7599(5)
H12 H 0.6863 0.7209 0.7610
H13 H 0.8798 0.9151 0.7383
H14 H 0.5943 0.6292 0.3790
C25 C 0.4997(19) 0.5665(6) 0.4353(5)
H15 H 0.4040 0.5282 0.5024
C26 C 0.8556(18) 0.8204(7) 0.8136(5)
C27 C 0.4915(16) 0.5012(5) 0.4060(8)
O7 O 0.5639(15) 0.5022(4) 0.3605(4)
O11 O 0.9503(13) 0.8723(4) 0.8287(4)
O12 O 0.8307(12) 0.7687(5) 0.8414(3)
Ba5 Ba 0.63256(8) 0.69180(3) 0.91167(5)
O4 O 0.9903(8) 0.3265(3) 0.4213(3)
O4_2 O 0.0097(8) 0.6735(3) 0.9213(3)
C5_2 C 0.6634(18) 0.0033(7) 0.0335(5)
C7_2 C 0.5626(16) 0.0536(6) 0.0065(5)
H3_2 H 0.7081 0.0135 0.0669
C8_2 C 0.5135(17) 0.1223(5) 0.0298(5)
C9_2 C 0.4598(16) 0.1250(6) 0.0812(5)
C10_2 C 0.5099(16) 0.1819(5) 0.0018(5)
C11_2 C 0.4058(15) 0.1867(6) 0.1048(5)
H5_2 H 0.4601 0.0835 0.1009
C12_2 C 0.4631(15) 0.2450(6) 0.0239(5)
C13_2 C 0.3363(16) 0.1860(6) 0.1571(5)
C14_2 C 0.4063(16) 0.2458(6) 0.0747(5)
C16_2 C 0.3588(16) 0.2409(6) 0.1900(5)
C17_2 C 0.244(2) 0.1290(7) 0.1770(6)
H7_2 H 0.3666 0.2883 0.0894
C19_2 C 0.5340(17) 0.3702(5) 0.0150(5)
C20_2 C 0.2977(16) 0.2394(6) 0.2399(5)
H8_2 H 0.4186 0.2815 0.1778
C21_2 C 0.183(2) 0.1251(6) 0.2265(6)
H9_2 H 0.2228 0.0907 0.1550
H11_2 H 0.5625 0.3711 0.0506
C24_2 C 0.2141(19) 0.1817(6) 0.2599(5)
H12_2 H 0.3137 0.2791 0.2610
H13_2 H 0.1202 0.0849 0.2383
H15_2 H 0.5960 0.4718 0.0024
C26_2 C 0.1444(18) 0.1796(7) 0.3136(5)
O11_2 O 0.0497(13) 0.1277(4) 0.3287(4)
C6_2 C 0.4990(17) 0.0358(6) 0.9584(5)
H4_2 H 0.4325 0.0689 0.9388
H6_2 H 0.5402 0.1802 0.9664
C15_2 C 0.4783(16) 0.3092(5) 0.9931(5)
C18_2 C 0.434(2) 0.3097(7) 0.9412(5)
C22_2 C 0.4420(16) 0.3712(5) 0.9140(8)
H10_2 H 0.3985 0.2681 0.9245
C23_2 C 0.5500(17) 0.4312(6) 0.9863(5)
H14_2 H 0.4057 0.3708 0.8790
C25_2 C 0.5003(19) 0.4335(6) 0.9353(5)
C27_2 C 0.5085(16) 0.4988(5) 0.9060(8)
O7_2 O 0.4361(15) 0.4978(4) 0.8605(4)
O13 O 0.5788(13) 0.5493(4) 0.9257(4)
O1_2 O 0.3307(12) 0.7313(5) 0.8414(3)
O2_2 O 0.4503(13) 0.6277(4) 0.8287(4)
O5_2 O 0.2859(13) 0.6847(4) 0.9557(4)
C1_2 C 0.6384(16) 0.8481(6) 0.9454(5)
C2_2 C 0.6242(16) 0.9228(7) 0.9669(6)
C4_2 C 0.5303(17) 0.9707(6) 0.9382(5)
H2_2 H 0.4872 0.9592 0.9048
O8_2 O 0.5097(8) 0.8265(3) 0.9213(3)
O10_2 O 0.7859(13) 0.8153(4) 0.9557(4)
O6_2 O 0.0788(13) 0.9507(4) 0.9257(4)
C1_3 C 0.1384(16) 0.6519(6) 0.9454(5)
C2_3 C 0.1242(16) 0.5772(7) 0.9669(6)
C4_3 C 0.0303(17) 0.5293(6) 0.9382(5)
H6_3 H 0.0402 0.3198 0.9664
C23_3 C 0.0500(17) 0.0688(6) 0.9863(5)
C25_3 C 0.0003(19) 0.0665(6) 0.9353(5)
C27_3 C 0.0085(16) 0.0012(5) 0.9060(8)
C9_3 C 0.9598(16) 0.3750(6) 0.0812(5)
C11_3 C 0.9058(15) 0.3133(6) 0.1048(5)
H5_3 H 0.9601 0.4165 0.1009
C12_3 C 0.9631(15) 0.2550(6) 0.0239(5)
C13_3 C 0.8363(16) 0.3140(6) 0.1571(5)
C14_3 C 0.9063(16) 0.2542(6) 0.0747(5)
C16_3 C 0.8588(16) 0.2591(6) 0.1900(5)
C17_3 C 0.744(2) 0.3710(7) 0.1770(6)
H7_3 H 0.8666 0.2117 0.0894
C20_3 C 0.7977(16) 0.2606(6) 0.2399(5)
H8_3 H 0.9186 0.2185 0.1778
C21_3 C 0.683(2) 0.3749(6) 0.2265(6)
H9_3 H 0.7228 0.4093 0.1550
C24_3 C 0.7141(19) 0.3183(6) 0.2599(5)
H12_3 H 0.8137 0.2209 0.2610
H13_3 H 0.6202 0.4151 0.2383
C26_3 C 0.6444(18) 0.3204(7) 0.3136(5)
C6_3 C 0.9990(17) 0.4642(6) 0.9584(5)
H2_3 H 0.9872 0.5408 0.9048
H4_3 H 0.9325 0.4311 0.9388
C15_3 C 0.9783(16) 0.1908(5) 0.9931(5)
C18_3 C 0.934(2) 0.1903(7) 0.9412(5)
C22_3 C 0.9420(16) 0.1288(5) 0.9140(8)
H10_3 H 0.8985 0.2319 0.9245
H14_3 H 0.9057 0.1292 0.8790
O7_3 O 0.9361(15) 0.0022(4) 0.8605(4)
C6_4 C 0.0010(17) 0.5358(6) 0.4584(5)
H2_4 H 0.0128 0.4592 0.4048
H4_4 H 0.0675 0.5689 0.4388
C9_4 C 0.0402(16) 0.6250(6) 0.5812(5)
C11_4 C 0.0942(15) 0.6867(6) 0.6048(5)
H5_4 H 0.0399 0.5835 0.6009
C12_4 C 0.0369(15) 0.7450(6) 0.5239(5)
C13_4 C 0.1637(16) 0.6860(6) 0.6571(5)
C14_4 C 0.0937(16) 0.7458(6) 0.5747(5)
C15_4 C 0.0217(16) 0.8092(5) 0.4931(5)
C16_4 C 0.1412(16) 0.7409(6) 0.6900(5)
C17_4 C 0.256(2) 0.6290(7) 0.6770(6)
H7_4 H 0.1334 0.7883 0.5894
C18_4 C 0.066(2) 0.8097(7) 0.4412(5)
C20_4 C 0.2023(16) 0.7394(6) 0.7399(5)
H8_4 H 0.0814 0.7815 0.6778
C21_4 C 0.317(2) 0.6251(6) 0.7265(6)
H9_4 H 0.2772 0.5907 0.6550
C22_4 C 0.0580(16) 0.8712(5) 0.4140(8)
H10_4 H 0.1015 0.7681 0.4245
C24_4 C 0.2859(19) 0.6817(6) 0.7599(5)
H12_4 H 0.1863 0.7791 0.7610
H13_4 H 0.3798 0.5849 0.7383
H14_4 H 0.0943 0.8708 0.3790
C26_4 C 0.3556(18) 0.6796(7) 0.8136(5)
O7_4 O 0.0639(15) 0.9978(4) 0.3605(4)
O13_2 O 0.9212(13) 0.0493(4) 0.4257(4)
O3_2 O 0.813(2) 0.1707(9) 0.5176(6)
C1_4 C 0.8616(16) 0.3481(6) 0.4454(5)
C2_4 C 0.8758(16) 0.4228(7) 0.4669(6)
C3_2 C 0.8019(18) 0.4390(7) 0.5122(5)
C4_4 C 0.9697(17) 0.4707(6) 0.4382(5)
C5_3 C 0.8366(18) 0.5033(7) 0.5335(5)
H1_2 H 0.7259 0.4067 0.5296
C7_3 C 0.9374(16) 0.5536(6) 0.5065(5)
H3_3 H 0.7919 0.5135 0.5669
C8_3 C 0.9865(17) 0.6223(5) 0.5298(5)
C10_3 C 0.9901(16) 0.6819(5) 0.5018(5)
H6_4 H 0.9598 0.6802 0.4664
C19_3 C 0.9660(17) 0.8702(5) 0.5150(5)
C23_4 C 0.9500(17) 0.9312(6) 0.4863(5)
H11_3 H 0.9375 0.8711 0.5506
C25_4 C 0.9997(19) 0.9335(6) 0.4353(5)
H15_3 H 0.9040 0.9718 0.5024
C27_4 C 0.9915(16) 0.9988(5) 0.4060(8)
H16_2 H 0.895837 0.133254 0.529773
H17_2 H 0.683015 0.15728 0.523907
O3_3 O 0.687(2) 0.6707(9) 0.0176(6)
C3_3 C 0.6981(18) 0.9390(7) 0.0122(5)
H1_3 H 0.7741 0.9067 0.0296
H16_3 H 0.604163 0.633254 0.0297732
H17_3 H 0.816985 0.65728 0.0239069
O3_4 O 0.187(2) 0.8293(9) 0.0176(6)
C3_4 C 0.1981(18) 0.5610(7) 0.0122(5)
C5_4 C 0.1634(18) 0.4967(7) 0.0335(5)
H1_4 H 0.2741 0.5933 0.0296
C7_4 C 0.0626(16) 0.4464(6) 0.0065(5)
H3_4 H 0.2081 0.4865 0.0669
C8_4 C 0.0135(17) 0.3777(5) 0.0298(5)
C10_4 C 0.0099(16) 0.3181(5) 0.0018(5)
C19_4 C 0.0340(17) 0.1298(5) 0.0150(5)
H11_4 H 0.0625 0.1289 0.0506
H15_4 H 0.0960 0.0282 0.0024
H16_4 H 0.104163 0.866746 0.0297732
H17_4 H 0.316985 0.84272 0.0239069
C28 C 0.123(7) 0.440(3) 0.294(2)
C29 C 0.200(8) 0.463(3) 0.199(2)
N1 N 0.135(7) 0.481(3) 0.253(2)
H18 H 0.258686 0.419516 0.303206
H19 H 0.0710771 0.46964 0.326452
H20 H 0.0294352 0.397354 0.285833
H24 H 0.112443 0.42256 0.183132
H25 H 0.192275 0.508866 0.174805
H26 H 0.341694 0.444722 0.200505
H29 H 0.219088 0.520124 0.264245
H30 H 0.00541554 0.499468 0.248053
C28_2 C 0.877(7) 0.560(3) 0.794(2)
C29_2 C 0.800(8) 0.537(3) 0.699(2)
N1_2 N 0.865(7) 0.519(3) 0.753(2)
H18_2 H 0.741314 0.580484 0.803206
H19_2 H 0.928923 0.53036 0.826452
H20_2 H 0.970565 0.602646 0.785833
H24_2 H 0.887557 0.57744 0.683132
H25_2 H 0.807725 0.491134 0.674805
H26_2 H 0.658306 0.555278 0.700505
H29_2 H 0.780912 0.479876 0.764245
H30_2 H 0.994584 0.500532 0.748053
H25_3 H 0.307725 0.0088658 0.674805
H29_3 H 0.280912 0.0201235 0.764245
C28_3 C 0.377(7) 0.940(3) 0.794(2)
C29_3 C 0.300(8) 0.963(3) 0.699(2)
N1_3 N 0.365(7) 0.981(3) 0.753(2)
H18_3 H 0.241314 0.919516 0.803206
H19_3 H 0.428923 0.96964 0.826452
H20_3 H 0.470565 0.897354 0.785833
H24_3 H 0.387557 0.92256 0.683132
H26_3 H 0.158306 0.944722 0.700505
H30_3 H 0.494584 0.999468 0.748053
C28_4 C 0.623(7) 0.060(3) 0.294(2)
C29_4 C 0.700(8) 0.037(3) 0.199(2)
N1_4 N 0.635(7) 0.019(3) 0.253(2)
H18_4 H 0.758686 0.0804842 0.303206
H19_4 H 0.571077 0.0303603 0.326452
H20_4 H 0.529435 0.102646 0.285833
H24_4 H 0.612443 0.0774398 0.183132
H26_4 H 0.841694 0.0552785 0.200505
H30_4 H 0.505416 0.000531948 0.248053
H25_4 H 0.692275 0.991134 0.174805
H29_4 H 0.719088 0.979876 0.264245
N2 N 0.142(7) 0.342(3) 0.5860(18)
C30 C 0.254(9) 0.389(3) 0.595(2)
H23 H 0.0492919 0.304177 0.659153
H27 H 0.218276 0.298684 0.580165
H28 H 0.0781116 0.355471 0.552848
H31 H 0.3309 0.376678 0.629671
H32 H 0.348826 0.393945 0.56286
H33 H 0.180517 0.437604 0.600363
C31 C 0.989(9) 0.321(3) 0.623(2)
H21 H 0.898909 0.365103 0.629845
H22 H 0.909662 0.278741 0.606396
C31_2 C 0.011(9) 0.679(3) 0.123(2)
H21_2 H 0.101091 0.634897 0.129845
H22_2 H 0.0903382 0.721259 0.106396
N2_2 N 0.858(7) 0.658(3) 0.0860(18)
C30_2 C 0.746(9) 0.611(3) 0.095(2)
H23_2 H 0.950708 0.695823 0.159153
H27_2 H 0.781724 0.701316 0.0801647
H28_2 H 0.921888 0.644529 0.0528484
H31_2 H 0.6691 0.623322 0.129671
H32_2 H 0.651174 0.606055 0.0628602
H33_2 H 0.819483 0.562396 0.100363
N2_3 N 0.358(7) 0.842(3) 0.0860(18)
C30_3 C 0.246(9) 0.889(3) 0.095(2)
C31_3 C 0.511(9) 0.821(3) 0.123(2)
H21_3 H 0.601091 0.865103 0.129845
H22_3 H 0.590338 0.778741 0.106396
H23_3 H 0.450708 0.804177 0.159153
H27_3 H 0.281724 0.798684 0.0801647
H28_3 H 0.421888 0.855471 0.0528484
H31_3 H 0.1691 0.876678 0.129671
H32_3 H 0.151174 0.893945 0.0628602
H33_3 H 0.319483 0.937604 0.100363
N2_4 N 0.642(7) 0.158(3) 0.5860(18)
C30_4 C 0.754(9) 0.111(3) 0.595(2)
C31_4 C 0.489(9) 0.179(3) 0.623(2)
H21_4 H 0.398909 0.134897 0.629845
H22_4 H 0.409662 0.221259 0.606396
H23_4 H 0.549292 0.195823 0.659153
H27_4 H 0.718276 0.201316 0.580165
H28_4 H 0.578112 0.144529 0.552848
H31_4 H 0.8309 0.123322 0.629671
H32_4 H 0.848826 0.106055 0.56286
H33_4 H 0.680517 0.0623956 0.600363
loop_
_geom_bond_atom_site_label_1
_geom_bond_atom_site_label_2
_geom_bond_site_symmetry_1
_geom_bond_site_symmetry_2
Ba1 O1 1_555 1_555
O1 Ba2 1_555 1_555
O2 Ba1 1_555 1_555
O3 Ba1 1_555 1_555
O5 Ba1 1_555 1_555
O6 Ba1 1_555 1_555
C1 C2 1_555 1_555
C2 C3 1_555 1_555
C4 C2 1_555 1_555
H1 C3 1_555 1_555
H2 C4 1_555 1_555
O8 Ba1 1_555 1_555
O9 Ba1 1_555 1_555
O10 Ba1 1_555 1_555
Ba2 O5 1_555 1_555
C1 O8 1_555 1_555
C1 O10 1_555 1_555
O8 Ba2 1_555 1_555
O3 H16 1_555 1_555
O3 H17 1_555 1_555
C5 C7 1_555 1_555
C7 C6 1_555 1_555
H3 C5 1_555 1_555
H4 C6 1_555 1_555
C8 C7 1_555 1_555
C9 C8 1_555 1_555
C10 C8 1_555 1_555
C11 C9 1_555 1_555
H5 C9 1_555 1_555
H6 C10 1_555 1_555
C12 C10 1_555 1_555
C13 C11 1_555 1_555
C14 C11 1_555 1_555
C15 C12 1_555 1_555
C16 C13 1_555 1_555
C17 C13 1_555 1_555
H7 C14 1_555 1_555
C18 C15 1_555 1_555
C19 C15 1_555 1_555
C20 C16 1_555 1_555
H8 C16 1_555 1_555
C21 C17 1_555 1_555
H9 C17 1_555 1_555
C22 C18 1_555 1_555
H10 C18 1_555 1_555
C23 C19 1_555 1_555
H11 C19 1_555 1_555
C24 C20 1_555 1_555
H12 C20 1_555 1_555
H13 C21 1_555 1_555
H14 C22 1_555 1_555
C25 C22 1_555 1_555
H15 C23 1_555 1_555
C26 C24 1_555 1_555
C27 C25 1_555 1_555
O7 C27 1_555 1_555
O11 C26 1_555 1_555
O12 C26 1_555 1_555
O6 C27 1_555 1_555
Ba5 O12 1_555 1_555
C12 C14 1_555 1_555
C21 C24 1_555 1_555
C23 C25 1_555 1_555
Ba2 O4 1_555 1_555
Ba4 O4_2 1_555 1_555
C5_2 C7_2 1_555 1_555
H3_2 C5_2 1_555 1_555
C8_2 C7_2 1_555 1_555
C9_2 C8_2 1_555 1_555
C10_2 C8_2 1_555 1_555
C11_2 C9_2 1_555 1_555
H5_2 C9_2 1_555 1_555
C12_2 C10_2 1_555 1_555
C13_2 C11_2 1_555 1_555
C14_2 C11_2 1_555 1_555
C16_2 C13_2 1_555 1_555
C17_2 C13_2 1_555 1_555
H7_2 C14_2 1_555 1_555
C20_2 C16_2 1_555 1_555
H8_2 C16_2 1_555 1_555
C21_2 C17_2 1_555 1_555
H9_2 C17_2 1_555 1_555
H11_2 C19_2 1_555 1_555
C24_2 C20_2 1_555 1_555
H12_2 C20_2 1_555 1_555
H13_2 C21_2 1_555 1_555
C26_2 C24_2 1_555 1_555
O11_2 C26_2 1_555 1_555
O9 C26_2 1_555 1_555
C12_2 C14_2 1_555 1_555
C21_2 C24_2 1_555 1_555
H4_2 C6_2 1_555 1_555
C18_2 C15_2 1_555 1_555
C22_2 C18_2 1_555 1_555
H10_2 C18_2 1_555 1_555
H14_2 C22_2 1_555 1_555
C25_2 C22_2 1_555 1_555
C27_2 C25_2 1_555 1_555
O7_2 C27_2 1_555 1_555
O13 C27_2 1_555 1_555
Ba5 O13 1_555 1_555
C23_2 C25_2 1_555 1_555
Ba5 O1_2 1_555 1_555
O1_2 Ba4 1_555 1_555
O2_2 Ba5 1_555 1_555
O5_2 Ba5 1_555 1_555
C1_2 C2_2 1_555 1_555
C4_2 C2_2 1_555 1_555
H2_2 C4_2 1_555 1_555
O8_2 Ba5 1_555 1_555
O10_2 Ba5 1_555 1_555
Ba4 O5_2 1_555 1_555
C1_2 O8_2 1_555 1_555
C1_2 O10_2 1_555 1_555
O8_2 Ba4 1_555 1_555
O6_2 Ba4 1_555 1_555
C1_3 C2_3 1_555 1_555
C4_3 C2_3 1_555 1_555
C27_3 C25_3 1_555 1_555
C1_3 O4_2 1_555 1_555
C1_3 O5_2 1_555 1_555
C23_3 C25_3 1_555 1_555
C11_3 C9_3 1_555 1_555
H5_3 C9_3 1_555 1_555
C13_3 C11_3 1_555 1_555
C14_3 C11_3 1_555 1_555
C16_3 C13_3 1_555 1_555
C17_3 C13_3 1_555 1_555
H7_3 C14_3 1_555 1_555
C20_3 C16_3 1_555 1_555
H8_3 C16_3 1_555 1_555
C21_3 C17_3 1_555 1_555
H9_3 C17_3 1_555 1_555
C24_3 C20_3 1_555 1_555
H12_3 C20_3 1_555 1_555
H13_3 C21_3 1_555 1_555
C26_3 C24_3 1_555 1_555
O2 C26_3 1_555 1_555
O1 C26_3 1_555 1_555
C12_3 C14_3 1_555 1_555
C21_3 C24_3 1_555 1_555
H4_3 C6_3 1_555 1_555
C18_3 C15_3 1_555 1_555
C22_3 C18_3 1_555 1_555
H10_3 C18_3 1_555 1_555
H14_3 C22_3 1_555 1_555
H4_4 C6_4 1_555 1_555
C11_4 C9_4 1_555 1_555
H5_4 C9_4 1_555 1_555
C13_4 C11_4 1_555 1_555
C14_4 C11_4 1_555 1_555
C15_4 C12_4 1_555 1_555
C16_4 C13_4 1_555 1_555
C17_4 C13_4 1_555 1_555
H7_4 C14_4 1_555 1_555
C18_4 C15_4 1_555 1_555
C20_4 C16_4 1_555 1_555
H8_4 C16_4 1_555 1_555
C21_4 C17_4 1_555 1_555
H9_4 C17_4 1_555 1_555
C22_4 C18_4 1_555 1_555
H10_4 C18_4 1_555 1_555
C24_4 C20_4 1_555 1_555
H12_4 C20_4 1_555 1_555
H13_4 C21_4 1_555 1_555
H14_4 C22_4 1_555 1_555
C26_4 C24_4 1_555 1_555
O2_2 C26_4 1_555 1_555
O1_2 C26_4 1_555 1_555
C12_4 C14_4 1_555 1_555
C21_4 C24_4 1_555 1_555
Ba2 O13_2 1_555 1_555
O3_2 Ba2 1_555 1_555
C1_4 C2_4 1_555 1_555
C2_4 C3_2 1_555 1_555
C3_2 C5_3 1_555 1_555
C4_4 C2_4 1_555 1_555
C5_3 C7_3 1_555 1_555
H1_2 C3_2 1_555 1_555
H3_3 C5_3 1_555 1_555
C8_3 C7_3 1_555 1_555
C10_3 C8_3 1_555 1_555
H6_4 C10_3 1_555 1_555
C23_4 C19_3 1_555 1_555
H11_3 C19_3 1_555 1_555
H15_3 C23_4 1_555 1_555
C27_4 C25_4 1_555 1_555
C1_4 O4 1_555 1_555
C1_4 O5 1_555 1_555
C23_4 C25_4 1_555 1_555
O3_2 H16_2 1_555 1_555
O3_2 H17_2 1_555 1_555
H1_3 C3_3 1_555 1_555
O3_3 H16_3 1_555 1_555
O3_3 H17_3 1_555 1_555
C3_4 C5_4 1_555 1_555
C5_4 C7_4 1_555 1_555
H1_4 C3_4 1_555 1_555
H3_4 C5_4 1_555 1_555
C8_4 C7_4 1_555 1_555
C10_4 C8_4 1_555 1_555
H11_4 C19_4 1_555 1_555
O3_4 H16_4 1_555 1_555
O3_4 H17_4 1_555 1_555
C28 N1 1_555 1_555
C29 N1 1_555 1_555
C28 H18 1_555 1_555
C28 H19 1_555 1_555
C28 H20 1_555 1_555
C29 H24 1_555 1_555
C29 H25 1_555 1_555
C29 H26 1_555 1_555
N1 H29 1_555 1_555
N1 H30 1_555 1_555
C28_2 N1_2 1_555 1_555
C29_2 N1_2 1_555 1_555
C28_2 H18_2 1_555 1_555
C28_2 H19_2 1_555 1_555
C28_2 H20_2 1_555 1_555
C29_2 H24_2 1_555 1_555
C29_2 H25_2 1_555 1_555
C29_2 H26_2 1_555 1_555
N1_2 H29_2 1_555 1_555
N1_2 H30_2 1_555 1_555
C28_3 N1_3 1_555 1_555
C29_3 N1_3 1_555 1_555
C28_3 H18_3 1_555 1_555
C28_3 H19_3 1_555 1_555
C28_3 H20_3 1_555 1_555
C29_3 H24_3 1_555 1_555
C29_3 H26_3 1_555 1_555
N1_3 H30_3 1_555 1_555
C28_4 N1_4 1_555 1_555
C29_4 N1_4 1_555 1_555
C28_4 H18_4 1_555 1_555
C28_4 H19_4 1_555 1_555
C28_4 H20_4 1_555 1_555
C29_4 H24_4 1_555 1_555
C29_4 H26_4 1_555 1_555
N1_4 H30_4 1_555 1_555
N2 C30 1_555 1_555
N2 H27 1_555 1_555
N2 H28 1_555 1_555
C30 H31 1_555 1_555
C30 H32 1_555 1_555
C30 H33 1_555 1_555
C31 H21 1_555 1_555
C31 H22 1_555 1_555
C31_2 H21_2 1_555 1_555
C31_2 H22_2 1_555 1_555
N2_2 C30_2 1_555 1_555
N2_2 H27_2 1_555 1_555
N2_2 H28_2 1_555 1_555
C30_2 H31_2 1_555 1_555
C30_2 H32_2 1_555 1_555
C30_2 H33_2 1_555 1_555
N2_3 C30_3 1_555 1_555
C31_3 N2_3 1_555 1_555
C31_3 H21_3 1_555 1_555
C31_3 H22_3 1_555 1_555
C31_3 H23_3 1_555 1_555
N2_3 H27_3 1_555 1_555
N2_3 H28_3 1_555 1_555
C30_3 H31_3 1_555 1_555
C30_3 H32_3 1_555 1_555
C30_3 H33_3 1_555 1_555
N2_4 C30_4 1_555 1_555
C31_4 N2_4 1_555 1_555
C31_4 H21_4 1_555 1_555
C31_4 H22_4 1_555 1_555
C31_4 H23_4 1_555 1_555
N2_4 H27_4 1_555 1_555
N2_4 H28_4 1_555 1_555
C30_4 H31_4 1_555 1_555
C30_4 H32_4 1_555 1_555
C30_4 H33_4 1_555 1_555

#END
