
###############################################################################
#
# This file contains modified crystal structure data generated from the
# MOF subset of the Cambridge Structural Database (CSD) v543 
# hosted by the Cambridge Crystallographic Data Centre (CCDC).
#
# This work is licensed under the Creative Commons
# Attribution-NonCommercial-ShareAlike 4.0 International License.
# To view a copy of this license, visit
# http://creativecommons.org/licenses/by-nc-sa/4.0/
# or send a letter to
# Creative Commons, PO Box 1866, Mountain View, CA 94042, USA.
#
# CIF created using the CSD Python API on 29 September 2022
# The structure has been converted into the P1 space group
# The structure has a 3D framework
# The original CSD entry KAKCEH is in the orthorhombic crystal system
# The framework has been calculated to contain at least 10.0% void space
# The void calculation uses a probe of radius 1.32A, grid spacing 0.4
# H atom positions have been added when not included in the experimental data
#
###############################################################################

data_KAKCEH
_chemical_formula_moiety         '(C116 H100 Ba2 N4 O26)n'
_symmetry_cell_setting           triclinic
_symmetry_space_group_name_H-M   'P 1'
_symmetry_Int_Tables_number      1
_space_group_name_Hall           'P 1'
loop_
_symmetry_equiv_pos_site_id
_symmetry_equiv_pos_as_xyz
1 x,y,z
_cell_length_a                   7.2993(2)
_cell_length_b                   19.3615(6)
_cell_length_c                   26.0984(9)
_cell_angle_alpha                90
_cell_angle_beta                 90
_cell_angle_gamma                90
_cell_volume                     3688.37
loop_
_atom_site_label
_atom_site_type_symbol
_atom_site_fract_x
_atom_site_fract_y
_atom_site_fract_z
O5 O 0.176(2) 0.6653(11) 0.0942(6)
H1 H 0.1279 0.6958 0.1235
H2 H 0.2457 0.6239 0.1094
O6 O 0.0736(12) 0.5507(4) 0.0036(3)
C13 C 0.0279(15) 0.3714(5) 0.0924(4)
H9 H 0.0592 0.3717 0.1270
C14 C 0.0393(14) 0.4322(5) 0.0645(4)
H10 H 0.0801 0.4724 0.0802
C16 C 0.0019(12) 0.1830(4) 0.0778(4)
H11 H 0.0296 0.1814 0.0430
C17 C 0.0083(13) 0.1222(5) 0.1071(4)
C21 C 0.0543(14) 0.0548(5) 0.0829(4)
C22 C 0.1580(14) 0.0055(6) 0.1105(5)
H14 H 0.2054 0.0170 0.1425
O13 O 0.2767(10) 0.8162(3) 0.0327(3)
Ba1 Ba 0.12795(7) 0.69239(2) 0.98982(5)
C8 C 0.0035(14) 0.4996(5) 0.9848(6)
O9 O 0.3298(10) 0.7680(4) 0.9189(3)
O11 O 0.0038(9) 0.8263(3) 0.9968(5)
O12 O 0.5038(9) 0.6737(3) 0.9968(5)
C23 C 0.1895(15) 0.9406(5) 0.0904(4)
H15 H 0.2607 0.9090 0.1084
C24 C 0.0199(14) 0.9712(5) 0.0161(4)
C26 C 0.1150(12) 0.9224(5) 0.0432(4)
C27 C 0.1339(14) 0.8502(6) 0.0239(5)
Ba6 Ba 0.62795(7) 0.80761(2) 0.98982(5)
O1 O 0.5513(13) 0.1289(4) 0.4057(3)
O2 O 0.6702(10) 0.2320(4) 0.4189(3)
C1 C 0.6460(14) 0.1808(5) 0.3913(4)
C2 C 0.7143(14) 0.1819(5) 0.3375(4)
C3 C 0.7983(14) 0.2391(6) 0.3182(4)
H3 H 0.8156 0.2772 0.3393
C4 C 0.8591(13) 0.2417(5) 0.2675(4)
H4 H 0.9188 0.2810 0.2556
C5 C 0.8316(14) 0.1863(5) 0.2346(4)
C6 C 0.7398(16) 0.1279(5) 0.2538(4)
H5 H 0.7218 0.0899 0.2325
C7 C 0.6764(18) 0.1255(6) 0.3032(5)
H6 H 0.6091 0.0877 0.3144
C9 C 0.9896(15) 0.4331(5) 0.0130(4)
C11 C 0.9244(18) 0.3116(5) 0.0170(5)
H8 H 0.8896 0.2711 0.0006
C12 C 0.9708(13) 0.3098(4) 0.0699(4)
C15 C 0.9543(14) 0.2456(5) 0.1004(4)
C18 C 0.9544(14) 0.1256(5) 0.1580(4)
H12 H 0.9536 0.0853 0.1774
C19 C 0.9019(13) 0.1871(5) 0.1809(4)
C20 C 0.9038(11) 0.2470(5) 0.1511(4)
H13 H 0.8701 0.2888 0.1659
C25 C 0.9923(14) 0.0371(5) 0.0348(4)
H17 H 0.9315 0.0697 0.0149
Ba3 Ba 0.87205(7) 0.30761(2) 0.48982(5)
Ba4 Ba 0.37205(7) 0.19239(2) 0.48982(5)
O14 O 0.7767(10) 0.6838(3) 0.0327(3)
O7 O 0.9265(13) 0.5010(4) 0.9393(4)
C10 C 0.9301(14) 0.3720(5) 0.9900(7)
H7 H 0.8939 0.3724 0.9558
O8 O 0.9487(13) 0.6289(4) 0.9057(3)
O10 O 0.8298(10) 0.7320(4) 0.9189(3)
H16 H 0.9726 0.9596 0.9841
H16_2 H 0.0274 0.0404 0.4841
O1_2 O 0.4487(13) 0.8711(4) 0.9057(3)
O7_2 O 0.0735(13) 0.4990(4) 0.4393(4)
C1_2 C 0.3540(14) 0.8192(5) 0.8913(4)
C2_2 C 0.2857(14) 0.8181(5) 0.8375(4)
C3_2 C 0.2017(14) 0.7609(6) 0.8182(4)
H3_2 H 0.1844 0.7228 0.8393
C4_2 C 0.1409(13) 0.7583(5) 0.7675(4)
H4_2 H 0.0812 0.7190 0.7556
C5_2 C 0.1684(14) 0.8137(5) 0.7346(4)
C6_2 C 0.2602(16) 0.8721(5) 0.7538(4)
H5_2 H 0.2782 0.9101 0.7325
C7_2 C 0.3236(18) 0.8745(6) 0.8032(5)
H6_2 H 0.3909 0.9123 0.8144
C9_2 C 0.0104(15) 0.5669(5) 0.5130(4)
C10_2 C 0.0699(14) 0.6280(5) 0.4900(7)
H7_2 H 0.1061 0.6276 0.4558
C11_2 C 0.0756(18) 0.6884(5) 0.5170(5)
H8_2 H 0.1104 0.7289 0.5006
C12_2 C 0.0292(13) 0.6902(4) 0.5699(4)
C15_2 C 0.0457(14) 0.7544(5) 0.6004(4)
C18_2 C 0.0456(14) 0.8744(5) 0.6580(4)
H12_2 H 0.0464 0.9147 0.6774
C19_2 C 0.0981(13) 0.8129(5) 0.6809(4)
C20_2 C 0.0962(11) 0.7530(5) 0.6511(4)
H13_2 H 0.1299 0.7112 0.6659
C25_2 C 0.0077(14) 0.9629(5) 0.5348(4)
H17_2 H 0.0685 0.9303 0.5149
O8_2 O 0.0513(13) 0.3711(4) 0.4057(3)
O10_2 O 0.1702(10) 0.2680(4) 0.4189(3)
O14_2 O 0.2233(10) 0.3162(3) 0.5327(3)
O3 O 0.9962(9) 0.1737(3) 0.4968(5)
O4 O 0.7233(10) 0.1838(3) 0.5327(3)
C23_2 C 0.8105(15) 0.0594(5) 0.5904(4)
H15_2 H 0.7393 0.0910 0.6084
C24_2 C 0.9801(14) 0.0288(5) 0.5161(4)
C26_2 C 0.8850(12) 0.0776(5) 0.5432(4)
C27_2 C 0.8661(14) 0.1498(6) 0.5239(5)
O5_2 O 0.824(2) 0.3347(11) 0.5942(6)
H1_2 H 0.8721 0.3042 0.6235
H2_2 H 0.7543 0.3761 0.6094
O6_2 O 0.9264(12) 0.4493(4) 0.5036(3)
C8_2 C 0.9965(14) 0.5004(5) 0.4848(6)
C13_2 C 0.9721(15) 0.6286(5) 0.5924(4)
H9_2 H 0.9408 0.6283 0.6270
C14_2 C 0.9607(14) 0.5678(5) 0.5645(4)
H10_2 H 0.9199 0.5276 0.5802
C16_2 C 0.9981(12) 0.8170(4) 0.5778(4)
H11_2 H 0.9704 0.8186 0.5430
C17_2 C 0.9917(13) 0.8778(5) 0.6071(4)
C21_2 C 0.9457(14) 0.9452(5) 0.5829(4)
C22_2 C 0.8420(14) 0.9945(6) 0.6105(5)
H14_2 H 0.7946 0.9830 0.6425
O12_2 O 0.4962(9) 0.3263(3) 0.4968(5)
O5_3 O 0.324(2) 0.1653(11) 0.5942(6)
H1_3 H 0.3721 0.1958 0.6235
H2_3 H 0.2543 0.1239 0.6094
O6_3 O 0.4264(12) 0.0507(4) 0.5036(3)
O7_3 O 0.5735(13) 0.0010(4) 0.4393(4)
C1_3 C 0.8540(14) 0.6808(5) 0.8913(4)
C2_3 C 0.7857(14) 0.6819(5) 0.8375(4)
C3_3 C 0.7017(14) 0.7391(6) 0.8182(4)
H3_3 H 0.6844 0.7772 0.8393
C4_3 C 0.6409(13) 0.7417(5) 0.7675(4)
H4_3 H 0.5812 0.7810 0.7556
C5_3 C 0.6684(14) 0.6863(5) 0.7346(4)
C6_3 C 0.7602(16) 0.6279(5) 0.7538(4)
H5_3 H 0.7782 0.5899 0.7325
C7_3 C 0.8236(18) 0.6255(6) 0.8032(5)
H6_3 H 0.8909 0.5877 0.8144
C8_3 C 0.4965(14) 0.9996(5) 0.4848(6)
C9_3 C 0.5104(15) 0.9331(5) 0.5130(4)
C10_3 C 0.5699(14) 0.8720(5) 0.4900(7)
H7_3 H 0.6061 0.8724 0.4558
C11_3 C 0.5756(18) 0.8116(5) 0.5170(5)
H8_3 H 0.6104 0.7711 0.5006
C12_3 C 0.5292(13) 0.8098(4) 0.5699(4)
C13_3 C 0.4721(15) 0.8714(5) 0.5924(4)
H9_3 H 0.4408 0.8717 0.6270
C14_3 C 0.4607(14) 0.9322(5) 0.5645(4)
H10_3 H 0.4199 0.9724 0.5802
C15_3 C 0.5457(14) 0.7456(5) 0.6004(4)
C16_3 C 0.4981(12) 0.6830(4) 0.5778(4)
H11_3 H 0.4704 0.6814 0.5430
C17_3 C 0.4917(13) 0.6222(5) 0.6071(4)
C18_3 C 0.5456(14) 0.6256(5) 0.6580(4)
H12_3 H 0.5464 0.5853 0.6774
C19_3 C 0.5981(13) 0.6871(5) 0.6809(4)
C20_3 C 0.5962(11) 0.7470(5) 0.6511(4)
H13_3 H 0.6299 0.7888 0.6659
C21_3 C 0.4457(14) 0.5548(5) 0.5829(4)
C22_3 C 0.3420(14) 0.5055(6) 0.6105(5)
H14_3 H 0.2946 0.5170 0.6425
C23_3 C 0.3105(15) 0.4406(5) 0.5904(4)
H15_3 H 0.2393 0.4090 0.6084
C24_3 C 0.4801(14) 0.4712(5) 0.5161(4)
H16_3 H 0.5274 0.4596 0.4841
C25_3 C 0.5077(14) 0.5371(5) 0.5348(4)
H17_3 H 0.5685 0.5697 0.5149
C26_3 C 0.3850(12) 0.4224(5) 0.5432(4)
C27_3 C 0.3661(14) 0.3502(6) 0.5239(5)
C1_4 C 0.1460(14) 0.3192(5) 0.3913(4)
C2_4 C 0.2143(14) 0.3181(5) 0.3375(4)
C3_4 C 0.2983(14) 0.2609(6) 0.3182(4)
H3_4 H 0.3156 0.2228 0.3393
C4_4 C 0.3591(13) 0.2583(5) 0.2675(4)
H4_4 H 0.4188 0.2190 0.2556
C5_4 C 0.3316(14) 0.3137(5) 0.2346(4)
C6_4 C 0.2398(16) 0.3721(5) 0.2538(4)
H5_4 H 0.2218 0.4101 0.2325
C7_4 C 0.1764(18) 0.3745(6) 0.3032(5)
H6_4 H 0.1091 0.4123 0.3144
C9_4 C 0.4896(15) 0.0669(5) 0.0130(4)
C11_4 C 0.4244(18) 0.1884(5) 0.0170(5)
H8_4 H 0.3896 0.2289 0.0006
C12_4 C 0.4708(13) 0.1902(4) 0.0699(4)
C13_4 C 0.5279(15) 0.1286(5) 0.0924(4)
H9_4 H 0.5592 0.1283 0.1270
C14_4 C 0.5393(14) 0.0678(5) 0.0645(4)
H10_4 H 0.5801 0.0276 0.0802
C15_4 C 0.4543(14) 0.2544(5) 0.1004(4)
C16_4 C 0.5019(12) 0.3170(4) 0.0778(4)
H11_4 H 0.5296 0.3186 0.0430
C17_4 C 0.5083(13) 0.3778(5) 0.1071(4)
C18_4 C 0.4544(14) 0.3744(5) 0.1580(4)
H12_4 H 0.4536 0.4147 0.1774
C19_4 C 0.4019(13) 0.3129(5) 0.1809(4)
C20_4 C 0.4038(11) 0.2530(5) 0.1511(4)
H13_4 H 0.3701 0.2112 0.1659
C21_4 C 0.5543(14) 0.4452(5) 0.0829(4)
C22_4 C 0.6580(14) 0.4945(6) 0.1105(5)
H14_4 H 0.7054 0.4830 0.1425
C23_4 C 0.6895(15) 0.5594(5) 0.0904(4)
H15_4 H 0.7607 0.5910 0.1084
C24_4 C 0.5199(14) 0.5288(5) 0.0161(4)
C25_4 C 0.4923(14) 0.4629(5) 0.0348(4)
H17_4 H 0.4315 0.4303 0.0149
C26_4 C 0.6150(12) 0.5776(5) 0.0432(4)
C27_4 C 0.6339(14) 0.6498(6) 0.0239(5)
C8_4 C 0.5035(14) 0.0004(5) 0.9848(6)
C10_4 C 0.4301(14) 0.1280(5) 0.9900(7)
H7_4 H 0.3939 0.1276 0.9558
H16_4 H 0.4726 0.5404 0.9841
O5_4 O 0.676(2) 0.8347(11) 0.0942(6)
H1_4 H 0.6279 0.8042 0.1235
H2_4 H 0.7457 0.8761 0.1094
O6_4 O 0.5736(12) 0.9493(4) 0.0036(3)
O7_4 O 0.4265(13) 0.9990(4) 0.9393(4)
C28 C 0.392(16) 0.473(4) 0.851(3)
C29 C 0.294(9) 0.547(3) 0.779(3)
N1 N 0.397(5) 0.538(3) 0.841(3)
H18 H 0.468594 0.444873 0.8219
H19 H 0.452894 0.463649 0.888456
H20 H 0.250278 0.455426 0.851114
H21 H 0.528419 0.555111 0.840355
H22 H 0.324938 0.564947 0.867584
H23 H 0.153762 0.527886 0.780287
H24 H 0.293593 0.601247 0.767977
H25 H 0.372078 0.517333 0.751074
C28_2 C 0.608(16) 0.527(4) 0.351(3)
C29_2 C 0.706(9) 0.453(3) 0.279(3)
N1_2 N 0.603(5) 0.462(3) 0.341(3)
H18_2 H 0.531406 0.555127 0.3219
H19_2 H 0.547106 0.536351 0.388456
H20_2 H 0.749722 0.544574 0.351114
H21_2 H 0.471581 0.444889 0.340355
H22_2 H 0.675062 0.435053 0.367584
H23_2 H 0.846238 0.472114 0.280287
H24_2 H 0.706407 0.398753 0.267977
H25_2 H 0.627922 0.482667 0.251074
C29_3 C 0.206(9) 0.047(3) 0.279(3)
N1_3 N 0.103(5) 0.038(3) 0.341(3)
H22_3 H 0.175062 0.0649468 0.367584
H23_3 H 0.346238 0.0278864 0.280287
H24_3 H 0.206407 0.101247 0.267977
H25_3 H 0.127922 0.0173334 0.251074
C28_3 C 0.108(16) 0.973(4) 0.351(3)
H18_3 H 0.0314064 0.944873 0.3219
H19_3 H 0.047106 0.963649 0.388456
H20_3 H 0.249722 0.955426 0.351114
H21_3 H 0.971581 0.0551108 0.340355
H21_4 H 0.0284187 0.944889 0.840355
C28_4 C 0.892(16) 0.027(4) 0.851(3)
H18_4 H 0.968594 0.055127 0.8219
H19_4 H 0.952894 0.0363507 0.888456
H20_4 H 0.750278 0.044574 0.851114
C29_4 C 0.794(9) 0.953(3) 0.779(3)
N1_4 N 0.897(5) 0.962(3) 0.841(3)
H22_4 H 0.824938 0.935053 0.867584
H23_4 H 0.653762 0.972114 0.780287
H24_4 H 0.793593 0.898753 0.767977
H25_4 H 0.872078 0.982667 0.751074
loop_
_geom_bond_atom_site_label_1
_geom_bond_atom_site_label_2
_geom_bond_site_symmetry_1
_geom_bond_site_symmetry_2
O5 H1 1_555 1_555
H2 O5 1_555 1_555
H9 C13 1_555 1_555
H10 C14 1_555 1_555
H11 C16 1_555 1_555
C17 C16 1_555 1_555
C21 C17 1_555 1_555
C22 C21 1_555 1_555
H14 C22 1_555 1_555
C13 C14 1_555 1_555
O9 Ba1 1_555 1_555
O11 Ba1 1_555 1_555
O12 Ba1 1_555 1_555
O13 C27 1_555 1_555
H15 C23 1_555 1_555
C26 C23 1_555 1_555
C27 C26 1_555 1_555
C24 C26 1_555 1_555
O1 C1 1_555 1_555
O2 C1 1_555 1_555
C1 C2 1_555 1_555
C2 C3 1_555 1_555
C3 H3 1_555 1_555
C4 C3 1_555 1_555
H4 C4 1_555 1_555
C5 C4 1_555 1_555
C6 C5 1_555 1_555
H5 C6 1_555 1_555
C7 C2 1_555 1_555
H6 C7 1_555 1_555
H8 C11 1_555 1_555
C12 C11 1_555 1_555
C15 C12 1_555 1_555
H12 C18 1_555 1_555
C19 C5 1_555 1_555
C20 C15 1_555 1_555
H13 C20 1_555 1_555
H17 C25 1_555 1_555
Ba3 O2 1_555 1_555
Ba4 O1 1_555 1_555
O2 Ba4 1_555 1_555
C6 C7 1_555 1_555
C18 C19 1_555 1_555
C19 C20 1_555 1_555
H7 C10 1_555 1_555
O1_2 C1_2 1_555 1_555
O9 C1_2 1_555 1_555
C1_2 C2_2 1_555 1_555
C2_2 C3_2 1_555 1_555
C3_2 H3_2 1_555 1_555
C4_2 C3_2 1_555 1_555
H4_2 C4_2 1_555 1_555
C5_2 C4_2 1_555 1_555
C6_2 C5_2 1_555 1_555
H5_2 C6_2 1_555 1_555
C7_2 C2_2 1_555 1_555
H6_2 C7_2 1_555 1_555
C10_2 C9_2 1_555 1_555
H7_2 C10_2 1_555 1_555
C11_2 C10_2 1_555 1_555
H8_2 C11_2 1_555 1_555
C12_2 C11_2 1_555 1_555
C15_2 C12_2 1_555 1_555
H12_2 C18_2 1_555 1_555
C19_2 C5_2 1_555 1_555
C20_2 C15_2 1_555 1_555
H13_2 C20_2 1_555 1_555
H17_2 C25_2 1_555 1_555
Ba6 O1_2 1_555 1_555
O9 Ba6 1_555 1_555
C6_2 C7_2 1_555 1_555
C18_2 C19_2 1_555 1_555
C19_2 C20_2 1_555 1_555
O3 C27_2 1_555 1_555
O4 C27_2 1_555 1_555
H15_2 C23_2 1_555 1_555
C26_2 C23_2 1_555 1_555
C27_2 C26_2 1_555 1_555
Ba3 O3 1_555 1_555
Ba4 O4 1_555 1_555
O4 Ba3 1_555 1_555
C24_2 C26_2 1_555 1_555
Ba3 O5_2 1_555 1_555
O5_2 H1_2 1_555 1_555
H2_2 O5_2 1_555 1_555
O6_2 Ba3 1_555 1_555
C8_2 O6_2 1_555 1_555
H9_2 C13_2 1_555 1_555
H10_2 C14_2 1_555 1_555
H11_2 C16_2 1_555 1_555
C17_2 C16_2 1_555 1_555
C21_2 C17_2 1_555 1_555
C22_2 C21_2 1_555 1_555
H14_2 C22_2 1_555 1_555
O12_2 Ba3 1_555 1_555
C13_2 C14_2 1_555 1_555
Ba4 O5_3 1_555 1_555
O5_3 H1_3 1_555 1_555
H2_3 O5_3 1_555 1_555
O6_3 Ba4 1_555 1_555
O10_2 Ba4 1_555 1_555
O12_2 Ba4 1_555 1_555
O14_2 Ba4 1_555 1_555
O8 C1_3 1_555 1_555
O10 C1_3 1_555 1_555
O12_2 C27_3 1_555 1_555
O14_2 C27_3 1_555 1_555
C1_3 C2_3 1_555 1_555
C2_3 C3_3 1_555 1_555
C3_3 H3_3 1_555 1_555
C4_3 C3_3 1_555 1_555
H4_3 C4_3 1_555 1_555
C5_3 C4_3 1_555 1_555
C6_3 C5_3 1_555 1_555
H5_3 C6_3 1_555 1_555
C7_3 C2_3 1_555 1_555
H6_3 C7_3 1_555 1_555
C9_3 C8_3 1_555 1_555
C10_3 C9_3 1_555 1_555
H7_3 C10_3 1_555 1_555
C11_3 C10_3 1_555 1_555
H8_3 C11_3 1_555 1_555
C12_3 C11_3 1_555 1_555
C13_3 C12_3 1_555 1_555
H9_3 C13_3 1_555 1_555
C14_3 C9_3 1_555 1_555
H10_3 C14_3 1_555 1_555
C15_3 C12_3 1_555 1_555
C16_3 C15_3 1_555 1_555
H11_3 C16_3 1_555 1_555
C17_3 C16_3 1_555 1_555
C18_3 C17_3 1_555 1_555
H12_3 C18_3 1_555 1_555
C19_3 C5_3 1_555 1_555
C20_3 C15_3 1_555 1_555
H13_3 C20_3 1_555 1_555
C21_3 C17_3 1_555 1_555
C22_3 C21_3 1_555 1_555
H14_3 C22_3 1_555 1_555
C23_3 C22_3 1_555 1_555
H15_3 C23_3 1_555 1_555
C24_3 H16_3 1_555 1_555
C25_3 C21_3 1_555 1_555
H17_3 C25_3 1_555 1_555
C26_3 C23_3 1_555 1_555
C27_3 C26_3 1_555 1_555
Ba6 O10 1_555 1_555
C6_3 C7_3 1_555 1_555
C13_3 C14_3 1_555 1_555
C18_3 C19_3 1_555 1_555
C19_3 C20_3 1_555 1_555
C24_3 C25_3 1_555 1_555
C24_3 C26_3 1_555 1_555
O8_2 C1_4 1_555 1_555
O10_2 C1_4 1_555 1_555
O14 C27_4 1_555 1_555
C1_4 C2_4 1_555 1_555
C2_4 C3_4 1_555 1_555
C3_4 H3_4 1_555 1_555
C4_4 C3_4 1_555 1_555
H4_4 C4_4 1_555 1_555
C5_4 C4_4 1_555 1_555
C6_4 C5_4 1_555 1_555
H5_4 C6_4 1_555 1_555
C7_4 C2_4 1_555 1_555
H6_4 C7_4 1_555 1_555
H8_4 C11_4 1_555 1_555
C12_4 C11_4 1_555 1_555
C13_4 C12_4 1_555 1_555
H9_4 C13_4 1_555 1_555
C14_4 C9_4 1_555 1_555
H10_4 C14_4 1_555 1_555
C15_4 C12_4 1_555 1_555
C16_4 C15_4 1_555 1_555
H11_4 C16_4 1_555 1_555
C17_4 C16_4 1_555 1_555
C18_4 C17_4 1_555 1_555
H12_4 C18_4 1_555 1_555
C19_4 C5_4 1_555 1_555
C20_4 C15_4 1_555 1_555
H13_4 C20_4 1_555 1_555
C21_4 C17_4 1_555 1_555
C22_4 C21_4 1_555 1_555
H14_4 C22_4 1_555 1_555
C23_4 C22_4 1_555 1_555
H15_4 C23_4 1_555 1_555
C25_4 C21_4 1_555 1_555
H17_4 C25_4 1_555 1_555
C26_4 C23_4 1_555 1_555
C27_4 C26_4 1_555 1_555
C6_4 C7_4 1_555 1_555
C13_4 C14_4 1_555 1_555
C18_4 C19_4 1_555 1_555
C19_4 C20_4 1_555 1_555
C24_4 C25_4 1_555 1_555
C24_4 C26_4 1_555 1_555
H7_4 C10_4 1_555 1_555
Ba6 O12 1_555 1_555
O5_4 H1_4 1_555 1_555
H2_4 O5_4 1_555 1_555
C28 N1 1_555 1_555
C29 N1 1_555 1_555
C28 H18 1_555 1_555
C28 H19 1_555 1_555
C28 H20 1_555 1_555
N1 H21 1_555 1_555
N1 H22 1_555 1_555
C29 H23 1_555 1_555
C29 H24 1_555 1_555
C29 H25 1_555 1_555
C28_2 N1_2 1_555 1_555
C29_2 N1_2 1_555 1_555
C28_2 H18_2 1_555 1_555
C28_2 H19_2 1_555 1_555
C28_2 H20_2 1_555 1_555
N1_2 H21_2 1_555 1_555
N1_2 H22_2 1_555 1_555
C29_2 H23_2 1_555 1_555
C29_2 H24_2 1_555 1_555
C29_2 H25_2 1_555 1_555
C29_3 N1_3 1_555 1_555
N1_3 H22_3 1_555 1_555
C29_3 H23_3 1_555 1_555
C29_3 H24_3 1_555 1_555
C29_3 H25_3 1_555 1_555
C28_3 H18_3 1_555 1_555
C28_3 H19_3 1_555 1_555
C28_3 H20_3 1_555 1_555
C28_4 H18_4 1_555 1_555
C28_4 H19_4 1_555 1_555
C28_4 H20_4 1_555 1_555
C29_4 N1_4 1_555 1_555
N1_4 H22_4 1_555 1_555
C29_4 H23_4 1_555 1_555
C29_4 H24_4 1_555 1_555
C29_4 H25_4 1_555 1_555

#END
