
###############################################################################
#
# This file contains modified crystal structure data generated from the
# MOF subset of the Cambridge Structural Database (CSD) v543 
# hosted by the Cambridge Crystallographic Data Centre (CCDC).
#
# This work is licensed under the Creative Commons
# Attribution-NonCommercial-ShareAlike 4.0 International License.
# To view a copy of this license, visit
# http://creativecommons.org/licenses/by-nc-sa/4.0/
# or send a letter to
# Creative Commons, PO Box 1866, Mountain View, CA 94042, USA.
#
# CIF created using the CSD Python API on 29 September 2022
# The structure has been converted into the P1 space group
# The structure has a 3D framework
# The original CSD entry KAKCAD is in the monoclinic crystal system
# The framework has been calculated to contain at least 10.0% void space
# The void calculation uses a probe of radius 1.32A, grid spacing 0.4
# The framework is charged, counterions have been retained in the structure
#
###############################################################################

data_KAKCAD
_chemical_formula_moiety         '(C448 H352 N8 O116 Sr18)n'
_symmetry_cell_setting           triclinic
_symmetry_space_group_name_H-M   'P 1'
_symmetry_Int_Tables_number      1
_space_group_name_Hall           'P 1'
loop_
_symmetry_equiv_pos_site_id
_symmetry_equiv_pos_as_xyz
1 x,y,z
_cell_length_a                   18.2197(11)
_cell_length_b                   31.5978(17)
_cell_length_c                   29.862(2)
_cell_angle_alpha                90
_cell_angle_beta                 101.311(3)
_cell_angle_gamma                90
_cell_volume                     16857.7
loop_
_atom_site_label
_atom_site_type_symbol
_atom_site_fract_x
_atom_site_fract_y
_atom_site_fract_z
O3 O 0.1617(3) 0.35192(16) 0.5762(3)
O4 O 0.1910(3) 0.29001(15) 0.55255(18)
C22 C 0.1444(4) 0.3151(2) 0.5638(3)
C23 C 0.0674(4) 0.2992(2) 0.5641(3)
C24 C 0.0366(4) 0.2657(2) 0.5363(3)
H20 H 0.0635 0.2531 0.5164
C25 C 0.0234(4) 0.3189(2) 0.5910(3)
H21 H 0.0422 0.3419 0.6091
Sr6 Sr 0.30382(3) 0.35018(2) 0.57790(2)
Sr12 Sr 0.2500 0.2500 0.5000
Sr3 Sr 0.35143(3) 0.46056(2) 0.53012(2)
O1 O 0.2743(3) 0.39228(12) 0.49875(13)
O2 O 0.2912(3) 0.32404(12) 0.48971(13)
O7 O 0.2721(3) 0.56952(12) 0.08522(16)
O8 O 0.2926(4) 0.60430(15) 0.14991(16)
O9 O 0.4204(2) 0.38761(13) 0.57019(17)
O10 O 0.4857(3) 0.43124(16) 0.5356(2)
O11 O 0.4065(4) 0.49491(19) 0.60794(15)
H1 H 0.4244 0.5053 0.6341
H2 H 0.3597 0.4911 0.6054
O12 O 0.4306(3) 0.53006(15) 0.52333(17)
H3 H 0.4616 0.5203 0.5081
H4 H 0.4330 0.5157 0.5477
O13 O 0.3576(6) 0.4718(3) 0.44757(16)
H5 H 0.3226 0.4536 0.4426
H6 H 0.3604 0.4843 0.4227
O15 O 0.6143(4) 0.01745(16) 0.4825(3)
C1 C 0.2729(4) 0.36056(17) 0.4727(2)
C2 C 0.2470(4) 0.36542(19) 0.4239(2)
C3 C 0.2426(5) 0.3314(2) 0.3942(2)
H7 H 0.2569 0.3046 0.4056
C4 C 0.2169(5) 0.3367(2) 0.3473(2)
H8 H 0.2149 0.3136 0.3278
C5 C 0.1945(5) 0.3762(2) 0.3297(2)
C6 C 0.1971(5) 0.4099(2) 0.3592(2)
H9 H 0.1819 0.4365 0.3477
C7 C 0.2223(5) 0.4049(2) 0.4059(2)
H10 H 0.2226 0.4279 0.4254
C8 C 0.1692(5) 0.3823(2) 0.2799(2)
C9 C 0.1222(5) 0.3534(2) 0.2535(2)
H11 H 0.1082 0.3290 0.2671
C10 C 0.0952(5) 0.3601(2) 0.2068(2)
C11 C 0.1211(5) 0.3950(2) 0.1871(2)
H12 H 0.1066 0.3989 0.1557
C12 C 0.1682(5) 0.4246(2) 0.2127(2)
C13 C 0.1919(5) 0.4175(2) 0.2582(2)
H13 H 0.2243 0.4369 0.2753
C14 C 0.1932(5) 0.4632(2) 0.1906(2)
C15 C 0.2028(5) 0.4620(2) 0.1462(2)
H14 H 0.1925 0.4371 0.1295
C16 C 0.2074(7) 0.5004(3) 0.2139(3)
H15 H 0.1979 0.5023 0.2433
C17 C 0.2361(6) 0.5359(3) 0.1945(3)
H16 H 0.2492 0.5603 0.2116
C18 C 0.0446(5) 0.3277(2) 0.1791(2)
C19 C 0.0361(5) 0.2885(2) 0.1945(2)
H17 H 0.0648 0.2802 0.2224
C20 C 0.0009(8) 0.3379(3) 0.1377(3)
H18 H 0.0052 0.3647 0.1255
C29 C 0.2724(4) 0.57187(19) 0.1271(2)
C30 C 0.2444(5) 0.5336(2) 0.1496(2)
C31 C 0.2275(5) 0.49719(19) 0.1257(2)
H23 H 0.2325 0.4958 0.0954
C32 C 0.4787(4) 0.3970(2) 0.5553(3)
C33 C 0.5417(4) 0.36482(19) 0.5613(2)
C34 C 0.6053(4) 0.3740(2) 0.5443(3)
H24 H 0.6100 0.4000 0.5307
C35 C 0.6616(4) 0.3443(2) 0.5477(3)
H25 H 0.7043 0.3508 0.5364
C36 C 0.6562(4) 0.30547(19) 0.5674(3)
C37 C 0.5925(4) 0.2969(2) 0.5845(3)
H26 H 0.5874 0.2709 0.5981
C38 C 0.5363(4) 0.3269(2) 0.5817(3)
H27 H 0.4942 0.3209 0.5939
C39 C 0.7157(4) 0.27275(19) 0.5672(3)
C40 C 0.7898(4) 0.2847(2) 0.5700(3)
H28 H 0.8029 0.3129 0.5756
C41 C 0.8455(4) 0.2557(2) 0.5647(3)
C42 C 0.8244(4) 0.2132(2) 0.5568(3)
H29 H 0.8602 0.1934 0.5525
C43 C 0.7512(4) 0.20023(19) 0.5551(3)
C44 C 0.6965(4) 0.2302(2) 0.5602(3)
H30 H 0.6473 0.2216 0.5588
C45 C 0.9221(4) 0.27009(19) 0.5654(3)
C46 C 0.9660(4) 0.2512(2) 0.5387(3)
H31 H 0.9473 0.2276 0.5214
C47 C 0.9525(4) 0.3046(2) 0.5911(3)
H32 H 0.9238 0.3185 0.6090
C48 C 0.6789(5) 0.0260(2) 0.5006(3)
C49 C 0.6975(4) 0.07119(18) 0.5163(3)
C50 C 0.7645(4) 0.08115(19) 0.5425(3)
H33 H 0.7999 0.0600 0.5514
C51 C 0.7807(4) 0.1225(2) 0.5563(3)
H34 H 0.8272 0.1286 0.5743
C52 C 0.7297(4) 0.15510(19) 0.5442(3)
C53 C 0.6608(4) 0.1439(2) 0.5181(3)
H35 H 0.6244 0.1646 0.5098
C54 C 0.6451(4) 0.1029(2) 0.5043(3)
H36 H 0.5985 0.0963 0.4866
O20 O 0.1431(3) 0.2465(2) 0.4357(2)
O21 O 0.1235(4) 0.2058(2) 0.3756(2)
C75 C 0.0499(6) 0.3092(3) 0.3865(3)
H55 H 0.0798 0.3172 0.4142
C80 C 0.1127(4) 0.2387(3) 0.3966(3)
C81 C 0.0560(4) 0.2704(2) 0.3703(2)
C82 C 0.0144(5) 0.2597(2) 0.3299(2)
H58 H 0.0192 0.2329 0.3180
Sr9 Sr 0.30382(3) 0.64982(2) 0.07790(2)
Sr10 Sr 0.19618(3) 0.14982(2) 0.42210(2)
Sr18 Sr 0.35143(3) 0.53944(2) 0.03012(2)
O31 O 0.2088(3) 0.17596(12) 0.51029(13)
O36 O 0.3090(3) 0.20999(15) 0.44745(18)
O37 O 0.3569(3) 0.2535(2) 0.5643(2)
O39 O 0.3765(4) 0.2942(2) 0.6244(2)
O41 O 0.2721(3) 0.43048(12) 0.58522(16)
O43 O 0.2926(4) 0.39570(15) 0.64991(16)
O44 O 0.2314(3) 0.49926(14) 0.50826(17)
O14 O 0.7314(3) 0.99926(14) 0.50826(17)
Sr15 Sr 0.85143(3) 0.96056(2) 0.53012(2)
O5 O 0.8569(3) 0.2465(2) 0.0643(2)
O6 O 0.8765(4) 0.2058(2) 0.1244(2)
C21 C 0.9501(6) 0.3092(3) 0.1135(3)
H19 H 0.9202 0.3172 0.0858
C26 C 0.8873(4) 0.2387(3) 0.1034(3)
C27 C 0.9440(4) 0.2704(2) 0.1297(2)
C28 C 0.9856(5) 0.2597(2) 0.1701(2)
H22 H 0.9808 0.2329 0.1820
O16 O 0.7257(3) 0.39228(12) 0.00125(13)
O17 O 0.7088(3) 0.32404(12) 0.01029(13)
O22 O 0.7279(3) 0.56952(12) 0.41478(16)
O23 O 0.7074(4) 0.60430(15) 0.35009(16)
O28 O 0.6424(6) 0.4718(3) 0.05243(16)
H41 H 0.6774 0.4536 0.0574
H42 H 0.6396 0.4843 0.0773
O30 O 0.3857(4) 0.01745(16) 0.0175(3)
C55 C 0.7271(4) 0.36056(17) 0.0273(2)
C56 C 0.7530(4) 0.36542(19) 0.0761(2)
C57 C 0.7574(5) 0.3314(2) 0.1058(2)
H43 H 0.7431 0.3046 0.0944
C58 C 0.7831(5) 0.3367(2) 0.1527(2)
H44 H 0.7851 0.3136 0.1722
C59 C 0.8055(5) 0.3762(2) 0.1703(2)
C60 C 0.8029(5) 0.4099(2) 0.1408(2)
H45 H 0.8181 0.4365 0.1523
C61 C 0.7777(5) 0.4049(2) 0.0941(2)
H46 H 0.7774 0.4279 0.0746
C62 C 0.8308(5) 0.3823(2) 0.2201(2)
C63 C 0.8778(5) 0.3534(2) 0.2465(2)
H47 H 0.8918 0.3290 0.2329
C64 C 0.9048(5) 0.3601(2) 0.2932(2)
C65 C 0.8789(5) 0.3950(2) 0.3129(2)
H48 H 0.8934 0.3989 0.3443
C66 C 0.8318(5) 0.4246(2) 0.2873(2)
C67 C 0.8081(5) 0.4175(2) 0.2418(2)
H49 H 0.7757 0.4369 0.2247
C68 C 0.8068(5) 0.4632(2) 0.3094(2)
C69 C 0.7972(5) 0.4620(2) 0.3538(2)
H50 H 0.8075 0.4371 0.3705
C70 C 0.7926(7) 0.5004(3) 0.2861(3)
H51 H 0.8021 0.5023 0.2567
C71 C 0.7639(6) 0.5359(3) 0.3055(3)
H52 H 0.7508 0.5603 0.2884
C72 C 0.9554(5) 0.3277(2) 0.3209(2)
C73 C 0.9639(5) 0.2885(2) 0.3055(2)
H53 H 0.9352 0.2802 0.2776
C74 C 0.9991(8) 0.3379(3) 0.3623(3)
H54 H 0.9948 0.3647 0.3745
C83 C 0.7276(4) 0.57187(19) 0.3729(2)
C84 C 0.7556(5) 0.5336(2) 0.3504(2)
C85 C 0.7725(5) 0.49719(19) 0.3743(2)
H59 H 0.7675 0.4958 0.4046
H72 H 0.4015 0.0963 0.0134
Sr8 Sr 0.69618(3) 0.64982(2) 0.42210(2)
Sr11 Sr 0.80382(3) 0.14982(2) 0.07790(2)
Sr14 Sr 0.7500 0.2500 0.0000
Sr17 Sr 0.64857(3) 0.53944(2) 0.46988(2)
Sr4 Sr 0.69618(3) 0.35018(2) 0.92210(2)
Sr5 Sr 0.64857(3) 0.46056(2) 0.96988(2)
O24 O 0.5796(2) 0.38761(13) 0.92981(17)
O25 O 0.5143(3) 0.43124(16) 0.9644(2)
O26 O 0.5935(4) 0.49491(19) 0.89206(15)
H37 H 0.5756 0.5053 0.8659
H38 H 0.6403 0.4911 0.8946
O27 O 0.5694(3) 0.53006(15) 0.97667(17)
H39 H 0.5384 0.5203 0.9919
H40 H 0.5670 0.5157 0.9523
C86 C 0.5213(4) 0.3970(2) 0.9447(3)
C87 C 0.4583(4) 0.36482(19) 0.9387(2)
C88 C 0.3947(4) 0.3740(2) 0.9557(3)
H60 H 0.3900 0.4000 0.9693
C89 C 0.3384(4) 0.3443(2) 0.9523(3)
H61 H 0.2957 0.3508 0.9636
C90 C 0.3438(4) 0.30547(19) 0.9326(3)
C91 C 0.4075(4) 0.2969(2) 0.9155(3)
H62 H 0.4126 0.2709 0.9019
C92 C 0.4637(4) 0.3269(2) 0.9183(3)
H63 H 0.5058 0.3209 0.9061
C93 C 0.2843(4) 0.27275(19) 0.9328(3)
C94 C 0.2102(4) 0.2847(2) 0.9300(3)
H64 H 0.1971 0.3129 0.9244
C95 C 0.1545(4) 0.2557(2) 0.9353(3)
C96 C 0.1756(4) 0.2132(2) 0.9432(3)
H65 H 0.1398 0.1934 0.9475
C97 C 0.2488(4) 0.20023(19) 0.9449(3)
C98 C 0.3035(4) 0.2302(2) 0.9398(3)
H66 H 0.3527 0.2216 0.9412
C99 C 0.0779(4) 0.27009(19) 0.9346(3)
C100 C 0.0340(4) 0.2512(2) 0.9613(3)
H67 H 0.0527 0.2276 0.9786
C101 C 0.0475(4) 0.3046(2) 0.9089(3)
H68 H 0.0762 0.3185 0.8910
C102 C 0.3211(5) 0.0260(2) 0.9994(3)
C103 C 0.3025(4) 0.07119(18) 0.9837(3)
C104 C 0.2355(4) 0.08115(19) 0.9575(3)
H69 H 0.2001 0.0600 0.9486
C105 C 0.2193(4) 0.1225(2) 0.9437(3)
H70 H 0.1728 0.1286 0.9257
C106 C 0.2703(4) 0.15510(19) 0.9558(3)
C107 C 0.3392(4) 0.1439(2) 0.9819(3)
H71 H 0.3756 0.1646 0.9902
C108 C 0.3549(4) 0.1029(2) 0.9957(3)
Sr14_2 Sr 0.7500 0.2500 1.0000
O33 O 0.8383(3) 0.35192(16) 0.9238(3)
O35 O 0.8090(3) 0.29001(15) 0.94745(18)
O38 O 0.6235(4) 0.2942(2) 0.8756(2)
O40 O 0.7279(3) 0.43048(12) 0.91478(16)
O42 O 0.7074(4) 0.39570(15) 0.85009(16)
O45 O 0.7686(3) 0.49926(14) 0.99174(17)
O29 O 0.2686(3) 0.99926(14) 0.99174(17)
Sr16 Sr 0.14857(3) 0.96056(2) 0.96988(2)
C76 C 0.8556(4) 0.3151(2) 0.9362(3)
C77 C 0.9326(4) 0.2992(2) 0.9359(3)
C78 C 0.9634(4) 0.2657(2) 0.9637(3)
H56 H 0.9365 0.2531 0.9836
C79 C 0.9766(4) 0.3189(2) 0.9090(3)
H57 H 0.9578 0.3419 0.8909
O36_2 O 0.6910(3) 0.20999(15) 0.05255(18)
O31_2 O 0.7912(3) 0.17596(12) 0.98971(13)
O37_2 O 0.6431(3) 0.2535(2) 0.9357(2)
O3_2 O 0.6617(3) 0.85192(16) 0.5762(3)
O4_2 O 0.6910(3) 0.79001(15) 0.55255(18)
O15_2 O 0.1143(4) 0.51745(16) 0.4825(3)
C22_2 C 0.6444(4) 0.8151(2) 0.5638(3)
C23_2 C 0.5674(4) 0.7992(2) 0.5641(3)
C24_2 C 0.5366(4) 0.7657(2) 0.5363(3)
H20_2 H 0.5635 0.7531 0.5164
C25_2 C 0.5234(4) 0.8189(2) 0.5910(3)
H21_2 H 0.5422 0.8419 0.6091
C33_2 C 0.0417(4) 0.86482(19) 0.5613(2)
C34_2 C 0.1053(4) 0.8740(2) 0.5443(3)
H24_2 H 0.1100 0.9000 0.5307
C35_2 C 0.1616(4) 0.8443(2) 0.5477(3)
H25_2 H 0.2043 0.8508 0.5364
C36_2 C 0.1562(4) 0.80547(19) 0.5674(3)
C37_2 C 0.0925(4) 0.7969(2) 0.5845(3)
H26_2 H 0.0874 0.7709 0.5981
C38_2 C 0.0363(4) 0.8269(2) 0.5817(3)
C39_2 C 0.2157(4) 0.77275(19) 0.5672(3)
C40_2 C 0.2898(4) 0.7847(2) 0.5700(3)
H28_2 H 0.3029 0.8129 0.5756
C41_2 C 0.3455(4) 0.7557(2) 0.5647(3)
C42_2 C 0.3244(4) 0.7132(2) 0.5568(3)
H29_2 H 0.3602 0.6934 0.5525
C43_2 C 0.2512(4) 0.70023(19) 0.5551(3)
C44_2 C 0.1965(4) 0.7302(2) 0.5602(3)
H30_2 H 0.1473 0.7216 0.5588
C45_2 C 0.4221(4) 0.77009(19) 0.5654(3)
C46_2 C 0.4660(4) 0.7512(2) 0.5387(3)
H31_2 H 0.4473 0.7276 0.5214
C47_2 C 0.4525(4) 0.8046(2) 0.5911(3)
H32_2 H 0.4238 0.8185 0.6090
C48_2 C 0.1789(5) 0.5260(2) 0.5006(3)
C49_2 C 0.1975(4) 0.57119(18) 0.5163(3)
C50_2 C 0.2645(4) 0.58115(19) 0.5425(3)
H33_2 H 0.2999 0.5600 0.5514
C51_2 C 0.2807(4) 0.6225(2) 0.5563(3)
H34_2 H 0.3272 0.6286 0.5743
C52_2 C 0.2297(4) 0.65510(19) 0.5442(3)
C53_2 C 0.1608(4) 0.6439(2) 0.5181(3)
H35_2 H 0.1244 0.6646 0.5098
C54_2 C 0.1451(4) 0.6029(2) 0.5043(3)
H36_2 H 0.0985 0.5963 0.4866
Sr6_2 Sr 0.80382(3) 0.85018(2) 0.57790(2)
Sr12_2 Sr 0.7500 0.7500 0.5000
O7_2 O 0.7721(3) 0.06952(12) 0.08522(16)
O8_2 O 0.7926(4) 0.10430(15) 0.14991(16)
H1_2 H 0.9244 0.0053 0.6341
O12_2 O 0.9306(3) 0.03006(15) 0.52333(17)
H3_2 H 0.9616 0.0203 0.5081
H4_2 H 0.9330 0.0157 0.5477
C16_2 C 0.7074(7) 0.0004(3) 0.2139(3)
H15_2 H 0.6979 0.0023 0.2433
C17_2 C 0.7361(6) 0.0359(3) 0.1945(3)
H16_2 H 0.7492 0.0603 0.2116
C29_2 C 0.7724(4) 0.07187(19) 0.1271(2)
C30_2 C 0.7444(5) 0.0336(2) 0.1496(2)
O22_2 O 0.2279(3) 0.06952(12) 0.41478(16)
O23_2 O 0.2074(4) 0.10430(15) 0.35009(16)
C70_2 C 0.2926(7) 0.0004(3) 0.2861(3)
H51_2 H 0.3021 0.0023 0.2567
C71_2 C 0.2639(6) 0.0359(3) 0.3055(3)
H52_2 H 0.2508 0.0603 0.2884
C83_2 C 0.2276(4) 0.07187(19) 0.3729(2)
C84_2 C 0.2556(5) 0.0336(2) 0.3504(2)
Sr17_2 Sr 0.14857(3) 0.03944(2) 0.46988(2)
Sr18_2 Sr 0.85143(3) 0.03944(2) 0.03012(2)
O1_2 O 0.7743(3) 0.89228(12) 0.49875(13)
O2_2 O 0.7912(3) 0.82404(12) 0.48971(13)
O5_2 O 0.3569(3) 0.7465(2) 0.0643(2)
O6_2 O 0.3765(4) 0.7058(2) 0.1244(2)
O9_2 O 0.9204(2) 0.88761(13) 0.57019(17)
O10_2 O 0.9857(3) 0.93124(16) 0.5356(2)
O11_2 O 0.9065(4) 0.99491(19) 0.60794(15)
H2_2 H 0.8597 0.9911 0.6054
O13_2 O 0.8576(6) 0.9718(3) 0.44757(16)
H5_2 H 0.8226 0.9536 0.4426
H6_2 H 0.8604 0.9843 0.4227
C1_2 C 0.7729(4) 0.86056(17) 0.4727(2)
C2_2 C 0.7470(4) 0.86542(19) 0.4239(2)
C3_2 C 0.7426(5) 0.8314(2) 0.3942(2)
H7_2 H 0.7569 0.8046 0.4056
C4_2 C 0.7169(5) 0.8367(2) 0.3473(2)
H8_2 H 0.7149 0.8136 0.3278
C5_2 C 0.6945(5) 0.8762(2) 0.3297(2)
C6_2 C 0.6971(5) 0.9099(2) 0.3592(2)
H9_2 H 0.6819 0.9365 0.3477
C7_2 C 0.7223(5) 0.9049(2) 0.4059(2)
H10_2 H 0.7226 0.9279 0.4254
C8_2 C 0.6692(5) 0.8823(2) 0.2799(2)
C9_2 C 0.6222(5) 0.8534(2) 0.2535(2)
H11_2 H 0.6082 0.8290 0.2671
C10_2 C 0.5952(5) 0.8601(2) 0.2068(2)
C11_2 C 0.6211(5) 0.8950(2) 0.1871(2)
H12_2 H 0.6066 0.8989 0.1557
C12_2 C 0.6682(5) 0.9246(2) 0.2127(2)
C13_2 C 0.6919(5) 0.9175(2) 0.2582(2)
H13_2 H 0.7243 0.9369 0.2753
C14_2 C 0.6932(5) 0.9632(2) 0.1906(2)
C15_2 C 0.7028(5) 0.9620(2) 0.1462(2)
H14_2 H 0.6925 0.9371 0.1295
C18_2 C 0.5446(5) 0.8277(2) 0.1791(2)
C19_2 C 0.5361(5) 0.7885(2) 0.1945(2)
H17_2 H 0.5648 0.7802 0.2224
C20_2 C 0.5009(8) 0.8379(3) 0.1377(3)
H18_2 H 0.5052 0.8647 0.1255
C21_2 C 0.4501(6) 0.8092(3) 0.1135(3)
H19_2 H 0.4202 0.8172 0.0858
C26_2 C 0.3873(4) 0.7387(3) 0.1034(3)
C27_2 C 0.4440(4) 0.7704(2) 0.1297(2)
C28_2 C 0.4856(5) 0.7597(2) 0.1701(2)
H22_2 H 0.4808 0.7329 0.1820
C31_2 C 0.7275(5) 0.99719(19) 0.1257(2)
H23_2 H 0.7325 0.9958 0.0954
C32_2 C 0.9787(4) 0.8970(2) 0.5553(3)
H27_2 H 0.9942 0.8209 0.5939
O16_2 O 0.2257(3) 0.89228(12) 0.00125(13)
O17_2 O 0.2088(3) 0.82404(12) 0.01029(13)
O20_2 O 0.6431(3) 0.7465(2) 0.4357(2)
O21_2 O 0.6235(4) 0.7058(2) 0.3756(2)
O28_2 O 0.1424(6) 0.9718(3) 0.05243(16)
H41_2 H 0.1774 0.9536 0.0574
H42_2 H 0.1396 0.9843 0.0773
C55_2 C 0.2271(4) 0.86056(17) 0.0273(2)
C56_2 C 0.2530(4) 0.86542(19) 0.0761(2)
C57_2 C 0.2574(5) 0.8314(2) 0.1058(2)
H43_2 H 0.2431 0.8046 0.0944
C58_2 C 0.2831(5) 0.8367(2) 0.1527(2)
H44_2 H 0.2851 0.8136 0.1722
C59_2 C 0.3055(5) 0.8762(2) 0.1703(2)
C60_2 C 0.3029(5) 0.9099(2) 0.1408(2)
H45_2 H 0.3181 0.9365 0.1523
C61_2 C 0.2777(5) 0.9049(2) 0.0941(2)
H46_2 H 0.2774 0.9279 0.0746
C62_2 C 0.3308(5) 0.8823(2) 0.2201(2)
C63_2 C 0.3778(5) 0.8534(2) 0.2465(2)
H47_2 H 0.3918 0.8290 0.2329
C64_2 C 0.4048(5) 0.8601(2) 0.2932(2)
C65_2 C 0.3789(5) 0.8950(2) 0.3129(2)
H48_2 H 0.3934 0.8989 0.3443
C66_2 C 0.3318(5) 0.9246(2) 0.2873(2)
C67_2 C 0.3081(5) 0.9175(2) 0.2418(2)
H49_2 H 0.2757 0.9369 0.2247
C68_2 C 0.3068(5) 0.9632(2) 0.3094(2)
C69_2 C 0.2972(5) 0.9620(2) 0.3538(2)
H50_2 H 0.3075 0.9371 0.3705
C72_2 C 0.4554(5) 0.8277(2) 0.3209(2)
C73_2 C 0.4639(5) 0.7885(2) 0.3055(2)
H53_2 H 0.4352 0.7802 0.2776
C74_2 C 0.4991(8) 0.8379(3) 0.3623(3)
H54_2 H 0.4948 0.8647 0.3745
C75_2 C 0.5499(6) 0.8092(3) 0.3865(3)
H55_2 H 0.5798 0.8172 0.4142
C80_2 C 0.6127(4) 0.7387(3) 0.3966(3)
C81_2 C 0.5560(4) 0.7704(2) 0.3703(2)
C82_2 C 0.5144(5) 0.7597(2) 0.3299(2)
H58_2 H 0.5192 0.7329 0.3180
C85_2 C 0.2725(5) 0.99719(19) 0.3743(2)
H59_2 H 0.2675 0.9958 0.4046
Sr14_3 Sr 0.2500 0.7500 0.0000
O31_3 O 0.7088(3) 0.67596(12) 0.51029(13)
O36_3 O 0.8090(3) 0.70999(15) 0.44745(18)
O37_3 O 0.8569(3) 0.7535(2) 0.5643(2)
O39_2 O 0.8765(4) 0.7942(2) 0.6244(2)
O41_2 O 0.7721(3) 0.93048(12) 0.58522(16)
O43_2 O 0.7926(4) 0.89570(15) 0.64991(16)
Sr4_2 Sr 0.19618(3) 0.85018(2) 0.92210(2)
O24_2 O 0.0796(2) 0.88761(13) 0.92981(17)
O25_2 O 0.0143(3) 0.93124(16) 0.9644(2)
O26_2 O 0.0935(4) 0.99491(19) 0.89206(15)
H38_2 H 0.1403 0.9911 0.8946
C86_2 C 0.0213(4) 0.8970(2) 0.9447(3)
H63_2 H 0.0058 0.8209 0.9061
Sr14_4 Sr 0.2500 0.7500 1.0000
O33_2 O 0.3383(3) 0.85192(16) 0.9238(3)
O35_2 O 0.3090(3) 0.79001(15) 0.94745(18)
O38_2 O 0.1235(4) 0.7942(2) 0.8756(2)
O40_2 O 0.2279(3) 0.93048(12) 0.91478(16)
O42_2 O 0.2074(4) 0.89570(15) 0.85009(16)
O30_2 O 0.8857(4) 0.51745(16) 0.0175(3)
H72_2 H 0.9015 0.5963 0.0134
C76_2 C 0.3556(4) 0.8151(2) 0.9362(3)
C77_2 C 0.4326(4) 0.7992(2) 0.9359(3)
C78_2 C 0.4634(4) 0.7657(2) 0.9637(3)
H56_2 H 0.4365 0.7531 0.9836
C79_2 C 0.4766(4) 0.8189(2) 0.9090(3)
H57_2 H 0.4578 0.8419 0.8909
C87_2 C 0.9583(4) 0.86482(19) 0.9387(2)
C88_2 C 0.8947(4) 0.8740(2) 0.9557(3)
H60_2 H 0.8900 0.9000 0.9693
C89_2 C 0.8384(4) 0.8443(2) 0.9523(3)
H61_2 H 0.7957 0.8508 0.9636
C90_2 C 0.8438(4) 0.80547(19) 0.9326(3)
C91_2 C 0.9075(4) 0.7969(2) 0.9155(3)
H62_2 H 0.9126 0.7709 0.9019
C92_2 C 0.9637(4) 0.8269(2) 0.9183(3)
C93_2 C 0.7843(4) 0.77275(19) 0.9328(3)
C94_2 C 0.7102(4) 0.7847(2) 0.9300(3)
H64_2 H 0.6971 0.8129 0.9244
C95_2 C 0.6545(4) 0.7557(2) 0.9353(3)
C96_2 C 0.6756(4) 0.7132(2) 0.9432(3)
H65_2 H 0.6398 0.6934 0.9475
C97_2 C 0.7488(4) 0.70023(19) 0.9449(3)
C98_2 C 0.8035(4) 0.7302(2) 0.9398(3)
H66_2 H 0.8527 0.7216 0.9412
C99_2 C 0.5779(4) 0.77009(19) 0.9346(3)
C100_2 C 0.5340(4) 0.7512(2) 0.9613(3)
H67_2 H 0.5527 0.7276 0.9786
C101_2 C 0.5475(4) 0.8046(2) 0.9089(3)
H68_2 H 0.5762 0.8185 0.8910
C102_2 C 0.8211(5) 0.5260(2) 0.9994(3)
C103_2 C 0.8025(4) 0.57119(18) 0.9837(3)
C104_2 C 0.7355(4) 0.58115(19) 0.9575(3)
H69_2 H 0.7001 0.5600 0.9486
C105_2 C 0.7193(4) 0.6225(2) 0.9437(3)
H70_2 H 0.6728 0.6286 0.9257
C106_2 C 0.7703(4) 0.65510(19) 0.9558(3)
C107_2 C 0.8392(4) 0.6439(2) 0.9819(3)
H71_2 H 0.8756 0.6646 0.9902
C108_2 C 0.8549(4) 0.6029(2) 0.9957(3)
O36_4 O 0.1910(3) 0.70999(15) 0.05255(18)
O31_4 O 0.2912(3) 0.67596(12) 0.98971(13)
O37_4 O 0.1431(3) 0.7535(2) 0.9357(2)
O18 O 0.1617(3) 0.64808(16) 0.0762(3)
C76_3 C 0.1444(4) 0.6849(2) 0.0638(3)
C77_3 C 0.0674(4) 0.7008(2) 0.0641(3)
C78_3 C 0.0366(4) 0.7343(2) 0.0363(3)
H56_3 H 0.0635 0.7469 0.0164
C79_3 C 0.0234(4) 0.6811(2) 0.0910(3)
H57_3 H 0.0422 0.6581 0.1091
O29_2 O 0.7314(3) 0.00074(14) 0.00826(17)
O24_3 O 0.4204(2) 0.61239(13) 0.07019(17)
O25_3 O 0.4857(3) 0.56876(16) 0.0356(2)
O26_3 O 0.4065(4) 0.50509(19) 0.10794(15)
H37_2 H 0.4244 0.4947 0.1341
H38_3 H 0.3597 0.5089 0.1054
O27_2 O 0.4306(3) 0.46994(15) 0.02333(17)
H39_2 H 0.4616 0.4797 0.0081
H40_2 H 0.4330 0.4843 0.0477
C86_3 C 0.4787(4) 0.6030(2) 0.0553(3)
C87_3 C 0.5417(4) 0.63518(19) 0.0613(2)
C88_3 C 0.6053(4) 0.6260(2) 0.0443(3)
H60_3 H 0.6100 0.6000 0.0307
C89_3 C 0.6616(4) 0.6557(2) 0.0477(3)
H61_3 H 0.7043 0.6492 0.0364
C90_3 C 0.6562(4) 0.69453(19) 0.0674(3)
C91_3 C 0.5925(4) 0.7031(2) 0.0845(3)
H62_3 H 0.5874 0.7291 0.0981
C92_3 C 0.5363(4) 0.6731(2) 0.0817(3)
H63_3 H 0.4942 0.6791 0.0939
C93_3 C 0.7157(4) 0.72725(19) 0.0672(3)
C94_3 C 0.7898(4) 0.7153(2) 0.0700(3)
H64_3 H 0.8029 0.6871 0.0756
C95_3 C 0.8455(4) 0.7443(2) 0.0647(3)
C96_3 C 0.8244(4) 0.7868(2) 0.0568(3)
H65_3 H 0.8602 0.8066 0.0525
C97_3 C 0.7512(4) 0.79977(19) 0.0551(3)
C98_3 C 0.6965(4) 0.7698(2) 0.0602(3)
H66_3 H 0.6473 0.7784 0.0588
C99_3 C 0.9221(4) 0.72991(19) 0.0654(3)
C100_3 C 0.9660(4) 0.7488(2) 0.0387(3)
H67_3 H 0.9473 0.7724 0.0214
C101_3 C 0.9525(4) 0.6954(2) 0.0911(3)
H68_3 H 0.9238 0.6815 0.1090
C102_3 C 0.6789(5) 0.9740(2) 0.0006(3)
C103_3 C 0.6975(4) 0.92881(18) 0.0163(3)
C104_3 C 0.7645(4) 0.91885(19) 0.0425(3)
H69_3 H 0.7999 0.9400 0.0514
C105_3 C 0.7807(4) 0.8775(2) 0.0563(3)
H70_3 H 0.8272 0.8714 0.0743
C106_3 C 0.7297(4) 0.84490(19) 0.0442(3)
C107_3 C 0.6608(4) 0.8561(2) 0.0181(3)
H71_3 H 0.6244 0.8354 0.0098
C108_3 C 0.6451(4) 0.8971(2) 0.0043(3)
O45_2 O 0.2314(3) 0.50074(14) 0.00826(17)
C21_3 C 0.0499(6) 0.6908(3) 0.8865(3)
H19_3 H 0.0798 0.6828 0.9142
C26_3 C 0.1127(4) 0.7613(3) 0.8966(3)
C27_3 C 0.0560(4) 0.7296(2) 0.8703(2)
C28_3 C 0.0144(5) 0.7403(2) 0.8299(2)
H22_3 H 0.0192 0.7671 0.8180
O16_3 O 0.2743(3) 0.60772(12) 0.99875(13)
O28_3 O 0.3576(6) 0.5282(3) 0.94757(16)
H41_3 H 0.3226 0.5464 0.9426
H42_3 H 0.3604 0.5157 0.9227
O30_3 O 0.6143(4) 0.98255(16) 0.9825(3)
C55_3 C 0.2729(4) 0.63944(17) 0.9727(2)
C56_3 C 0.2470(4) 0.63458(19) 0.9239(2)
C57_3 C 0.2426(5) 0.6686(2) 0.8942(2)
H43_3 H 0.2569 0.6954 0.9056
C58_3 C 0.2169(5) 0.6633(2) 0.8473(2)
H44_3 H 0.2149 0.6864 0.8278
C59_3 C 0.1945(5) 0.6238(2) 0.8297(2)
C60_3 C 0.1971(5) 0.5901(2) 0.8592(2)
H45_3 H 0.1819 0.5635 0.8477
C61_3 C 0.2223(5) 0.5951(2) 0.9059(2)
H46_3 H 0.2226 0.5721 0.9254
C62_3 C 0.1692(5) 0.6177(2) 0.7799(2)
C63_3 C 0.1222(5) 0.6466(2) 0.7535(2)
H47_3 H 0.1082 0.6710 0.7671
C64_3 C 0.0952(5) 0.6399(2) 0.7068(2)
C65_3 C 0.1211(5) 0.6050(2) 0.6871(2)
H48_3 H 0.1066 0.6011 0.6557
C66_3 C 0.1682(5) 0.5754(2) 0.7127(2)
C67_3 C 0.1919(5) 0.5825(2) 0.7582(2)
H49_3 H 0.2243 0.5631 0.7753
C68_3 C 0.1932(5) 0.5368(2) 0.6906(2)
C69_3 C 0.2028(5) 0.5380(2) 0.6462(2)
H50_3 H 0.1925 0.5629 0.6295
C70_3 C 0.2074(7) 0.4996(3) 0.7139(3)
H51_3 H 0.1979 0.4977 0.7433
C71_3 C 0.2361(6) 0.4641(3) 0.6945(3)
H52_3 H 0.2492 0.4397 0.7116
C72_3 C 0.0446(5) 0.6723(2) 0.6791(2)
C73_3 C 0.0361(5) 0.7115(2) 0.6945(2)
H53_3 H 0.0648 0.7198 0.7224
C74_3 C 0.0009(8) 0.6621(3) 0.6377(3)
H54_3 H 0.0052 0.6353 0.6255
C83_3 C 0.2724(4) 0.42813(19) 0.6271(2)
C84_3 C 0.2444(5) 0.4664(2) 0.6496(2)
C85_3 C 0.2275(5) 0.50281(19) 0.6257(2)
H59_3 H 0.2325 0.5042 0.5954
H72_3 H 0.5985 0.9037 0.9866
O14_2 O 0.2686(3) 0.00074(14) 0.49174(17)
O1_3 O 0.7257(3) 0.60772(12) 0.50125(13)
O9_3 O 0.5796(2) 0.61239(13) 0.42981(17)
O10_3 O 0.5143(3) 0.56876(16) 0.4644(2)
O11_3 O 0.5935(4) 0.50509(19) 0.39206(15)
H1_3 H 0.5756 0.4947 0.3659
H2_3 H 0.6403 0.5089 0.3946
O12_3 O 0.5694(3) 0.46994(15) 0.47667(17)
H3_3 H 0.5384 0.4797 0.4919
H4_3 H 0.5670 0.4843 0.4523
O13_3 O 0.6424(6) 0.5282(3) 0.55243(16)
H5_3 H 0.6774 0.5464 0.5574
H6_3 H 0.6396 0.5157 0.5773
O15_3 O 0.3857(4) 0.98255(16) 0.5175(3)
C1_3 C 0.7271(4) 0.63944(17) 0.5273(2)
C2_3 C 0.7530(4) 0.63458(19) 0.5761(2)
C3_3 C 0.7574(5) 0.6686(2) 0.6058(2)
H7_3 H 0.7431 0.6954 0.5944
C4_3 C 0.7831(5) 0.6633(2) 0.6527(2)
H8_3 H 0.7851 0.6864 0.6722
C5_3 C 0.8055(5) 0.6238(2) 0.6703(2)
C6_3 C 0.8029(5) 0.5901(2) 0.6408(2)
H9_3 H 0.8181 0.5635 0.6523
C7_3 C 0.7777(5) 0.5951(2) 0.5941(2)
H10_3 H 0.7774 0.5721 0.5746
C8_3 C 0.8308(5) 0.6177(2) 0.7201(2)
C9_3 C 0.8778(5) 0.6466(2) 0.7465(2)
H11_3 H 0.8918 0.6710 0.7329
C10_3 C 0.9048(5) 0.6399(2) 0.7932(2)
C11_3 C 0.8789(5) 0.6050(2) 0.8129(2)
H12_3 H 0.8934 0.6011 0.8443
C12_3 C 0.8318(5) 0.5754(2) 0.7873(2)
C13_3 C 0.8081(5) 0.5825(2) 0.7418(2)
H13_3 H 0.7757 0.5631 0.7247
C14_3 C 0.8068(5) 0.5368(2) 0.8094(2)
C15_3 C 0.7972(5) 0.5380(2) 0.8538(2)
H14_3 H 0.8075 0.5629 0.8705
C16_3 C 0.7926(7) 0.4996(3) 0.7861(3)
H15_3 H 0.8021 0.4977 0.7567
C17_3 C 0.7639(6) 0.4641(3) 0.8055(3)
H16_3 H 0.7508 0.4397 0.7884
C18_3 C 0.9554(5) 0.6723(2) 0.8209(2)
C19_3 C 0.9639(5) 0.7115(2) 0.8055(2)
H17_3 H 0.9352 0.7198 0.7776
C20_3 C 0.9991(8) 0.6621(3) 0.8623(3)
H18_3 H 0.9948 0.6353 0.8745
C29_3 C 0.7276(4) 0.42813(19) 0.8729(2)
C30_3 C 0.7556(5) 0.4664(2) 0.8504(2)
C31_3 C 0.7725(5) 0.50281(19) 0.8743(2)
H23_3 H 0.7675 0.5042 0.9046
C32_3 C 0.5213(4) 0.6030(2) 0.4447(3)
C33_3 C 0.4583(4) 0.63518(19) 0.4387(2)
C34_3 C 0.3947(4) 0.6260(2) 0.4557(3)
H24_3 H 0.3900 0.6000 0.4693
C35_3 C 0.3384(4) 0.6557(2) 0.4523(3)
H25_3 H 0.2957 0.6492 0.4636
C36_3 C 0.3438(4) 0.69453(19) 0.4326(3)
C37_3 C 0.4075(4) 0.7031(2) 0.4155(3)
H26_3 H 0.4126 0.7291 0.4019
C38_3 C 0.4637(4) 0.6731(2) 0.4183(3)
H27_3 H 0.5058 0.6791 0.4061
C39_3 C 0.2843(4) 0.72725(19) 0.4328(3)
C40_3 C 0.2102(4) 0.7153(2) 0.4300(3)
H28_3 H 0.1971 0.6871 0.4244
C41_3 C 0.1545(4) 0.7443(2) 0.4353(3)
C42_3 C 0.1756(4) 0.7868(2) 0.4432(3)
H29_3 H 0.1398 0.8066 0.4475
C43_3 C 0.2488(4) 0.79977(19) 0.4449(3)
C44_3 C 0.3035(4) 0.7698(2) 0.4398(3)
H30_3 H 0.3527 0.7784 0.4412
C45_3 C 0.0779(4) 0.72991(19) 0.4346(3)
C46_3 C 0.0340(4) 0.7488(2) 0.4613(3)
H31_3 H 0.0527 0.7724 0.4786
C47_3 C 0.0475(4) 0.6954(2) 0.4089(3)
H32_3 H 0.0762 0.6815 0.3910
C48_3 C 0.3211(5) 0.9740(2) 0.4994(3)
C49_3 C 0.3025(4) 0.92881(18) 0.4837(3)
C50_3 C 0.2355(4) 0.91885(19) 0.4575(3)
H33_3 H 0.2001 0.9400 0.4486
C51_3 C 0.2193(4) 0.8775(2) 0.4437(3)
H34_3 H 0.1728 0.8714 0.4257
C52_3 C 0.2703(4) 0.84490(19) 0.4558(3)
C53_3 C 0.3392(4) 0.8561(2) 0.4819(3)
H35_3 H 0.3756 0.8354 0.4902
C54_3 C 0.3549(4) 0.8971(2) 0.4957(3)
H36_3 H 0.4015 0.9037 0.5134
C75_3 C 0.9501(6) 0.6908(3) 0.6135(3)
H55_3 H 0.9202 0.6828 0.5858
C80_3 C 0.8873(4) 0.7613(3) 0.6034(3)
C81_3 C 0.9440(4) 0.7296(2) 0.6297(2)
C82_3 C 0.9856(5) 0.7403(2) 0.6701(2)
H58_3 H 0.9808 0.7671 0.6820
O32 O 0.8383(3) 0.64808(16) 0.4238(3)
O44_2 O 0.7686(3) 0.50074(14) 0.49174(17)
C22_3 C 0.8556(4) 0.6849(2) 0.4362(3)
C23_3 C 0.9326(4) 0.7008(2) 0.4359(3)
C24_3 C 0.9634(4) 0.7343(2) 0.4637(3)
H20_3 H 0.9365 0.7469 0.4836
C25_3 C 0.9766(4) 0.6811(2) 0.4090(3)
H21_3 H 0.9578 0.6581 0.3909
O18_2 O 0.6617(3) 0.14808(16) 0.0762(3)
C76_4 C 0.6444(4) 0.1849(2) 0.0638(3)
C77_4 C 0.5674(4) 0.2008(2) 0.0641(3)
C78_4 C 0.5366(4) 0.2343(2) 0.0363(3)
H56_4 H 0.5635 0.2469 0.0164
C79_4 C 0.5234(4) 0.1811(2) 0.0910(3)
H57_4 H 0.5422 0.1581 0.1091
C87_4 C 0.0417(4) 0.13518(19) 0.0613(2)
C88_4 C 0.1053(4) 0.1260(2) 0.0443(3)
H60_4 H 0.1100 0.1000 0.0307
C89_4 C 0.1616(4) 0.1557(2) 0.0477(3)
H61_4 H 0.2043 0.1492 0.0364
C90_4 C 0.1562(4) 0.19453(19) 0.0674(3)
C91_4 C 0.0925(4) 0.2031(2) 0.0845(3)
H62_4 H 0.0874 0.2291 0.0981
C92_4 C 0.0363(4) 0.1731(2) 0.0817(3)
C93_4 C 0.2157(4) 0.22725(19) 0.0672(3)
C94_4 C 0.2898(4) 0.2153(2) 0.0700(3)
H64_4 H 0.3029 0.1871 0.0756
C95_4 C 0.3455(4) 0.2443(2) 0.0647(3)
C96_4 C 0.3244(4) 0.2868(2) 0.0568(3)
H65_4 H 0.3602 0.3066 0.0525
C97_4 C 0.2512(4) 0.29977(19) 0.0551(3)
C98_4 C 0.1965(4) 0.2698(2) 0.0602(3)
H66_4 H 0.1473 0.2784 0.0588
C99_4 C 0.4221(4) 0.22991(19) 0.0654(3)
C100_4 C 0.4660(4) 0.2488(2) 0.0387(3)
H67_4 H 0.4473 0.2724 0.0214
C101_4 C 0.4525(4) 0.1954(2) 0.0911(3)
H68_4 H 0.4238 0.1815 0.1090
C102_4 C 0.1789(5) 0.4740(2) 0.0006(3)
C103_4 C 0.1975(4) 0.42881(18) 0.0163(3)
C104_4 C 0.2645(4) 0.41885(19) 0.0425(3)
H69_4 H 0.2999 0.4400 0.0514
C105_4 C 0.2807(4) 0.3775(2) 0.0563(3)
H70_4 H 0.3272 0.3714 0.0743
C106_4 C 0.2297(4) 0.34490(19) 0.0442(3)
C107_4 C 0.1608(4) 0.3561(2) 0.0181(3)
H71_4 H 0.1244 0.3354 0.0098
C108_4 C 0.1451(4) 0.3971(2) 0.0043(3)
O30_4 O 0.1143(4) 0.48255(16) 0.9825(3)
H72_4 H 0.0985 0.4037 0.9866
O24_4 O 0.9204(2) 0.11239(13) 0.07019(17)
O25_4 O 0.9857(3) 0.06876(16) 0.0356(2)
O26_4 O 0.9065(4) 0.00509(19) 0.10794(15)
H38_4 H 0.8597 0.0089 0.1054
C86_4 C 0.9787(4) 0.1030(2) 0.0553(3)
H63_4 H 0.9942 0.1791 0.0939
O1_4 O 0.2257(3) 0.10772(12) 0.50125(13)
O9_4 O 0.0796(2) 0.11239(13) 0.42981(17)
O10_4 O 0.0143(3) 0.06876(16) 0.4644(2)
O11_4 O 0.0935(4) 0.00509(19) 0.39206(15)
H2_4 H 0.1403 0.0089 0.3946
O13_4 O 0.1424(6) 0.0282(3) 0.55243(16)
H5_4 H 0.1774 0.0464 0.5574
H6_4 H 0.1396 0.0157 0.5773
C1_4 C 0.2271(4) 0.13944(17) 0.5273(2)
C2_4 C 0.2530(4) 0.13458(19) 0.5761(2)
C3_4 C 0.2574(5) 0.1686(2) 0.6058(2)
H7_4 H 0.2431 0.1954 0.5944
C4_4 C 0.2831(5) 0.1633(2) 0.6527(2)
H8_4 H 0.2851 0.1864 0.6722
C5_4 C 0.3055(5) 0.1238(2) 0.6703(2)
C6_4 C 0.3029(5) 0.0901(2) 0.6408(2)
H9_4 H 0.3181 0.0635 0.6523
C7_4 C 0.2777(5) 0.0951(2) 0.5941(2)
H10_4 H 0.2774 0.0721 0.5746
C8_4 C 0.3308(5) 0.1177(2) 0.7201(2)
C9_4 C 0.3778(5) 0.1466(2) 0.7465(2)
H11_4 H 0.3918 0.1710 0.7329
C10_4 C 0.4048(5) 0.1399(2) 0.7932(2)
C11_4 C 0.3789(5) 0.1050(2) 0.8129(2)
H12_4 H 0.3934 0.1011 0.8443
C12_4 C 0.3318(5) 0.0754(2) 0.7873(2)
C13_4 C 0.3081(5) 0.0825(2) 0.7418(2)
H13_4 H 0.2757 0.0631 0.7247
C14_4 C 0.3068(5) 0.0368(2) 0.8094(2)
C15_4 C 0.2972(5) 0.0380(2) 0.8538(2)
H14_4 H 0.3075 0.0629 0.8705
C18_4 C 0.4554(5) 0.1723(2) 0.8209(2)
C19_4 C 0.4639(5) 0.2115(2) 0.8055(2)
H17_4 H 0.4352 0.2198 0.7776
C20_4 C 0.4991(8) 0.1621(3) 0.8623(3)
H18_4 H 0.4948 0.1353 0.8745
C21_4 C 0.5499(6) 0.1908(3) 0.8865(3)
H19_4 H 0.5798 0.1828 0.9142
C26_4 C 0.6127(4) 0.2613(3) 0.8966(3)
C27_4 C 0.5560(4) 0.2296(2) 0.8703(2)
C28_4 C 0.5144(5) 0.2403(2) 0.8299(2)
H22_4 H 0.5192 0.2671 0.8180
C31_4 C 0.2725(5) 0.00281(19) 0.8743(2)
H23_4 H 0.2675 0.0042 0.9046
C32_4 C 0.0213(4) 0.1030(2) 0.4447(3)
H27_4 H 0.0058 0.1791 0.4061
O16_4 O 0.7743(3) 0.10772(12) 0.99875(13)
O28_4 O 0.8576(6) 0.0282(3) 0.94757(16)
H41_4 H 0.8226 0.0464 0.9426
H42_4 H 0.8604 0.0157 0.9227
C55_4 C 0.7729(4) 0.13944(17) 0.9727(2)
C56_4 C 0.7470(4) 0.13458(19) 0.9239(2)
C57_4 C 0.7426(5) 0.1686(2) 0.8942(2)
H43_4 H 0.7569 0.1954 0.9056
C58_4 C 0.7169(5) 0.1633(2) 0.8473(2)
H44_4 H 0.7149 0.1864 0.8278
C59_4 C 0.6945(5) 0.1238(2) 0.8297(2)
C60_4 C 0.6971(5) 0.0901(2) 0.8592(2)
H45_4 H 0.6819 0.0635 0.8477
C61_4 C 0.7223(5) 0.0951(2) 0.9059(2)
H46_4 H 0.7226 0.0721 0.9254
C62_4 C 0.6692(5) 0.1177(2) 0.7799(2)
C63_4 C 0.6222(5) 0.1466(2) 0.7535(2)
H47_4 H 0.6082 0.1710 0.7671
C64_4 C 0.5952(5) 0.1399(2) 0.7068(2)
C65_4 C 0.6211(5) 0.1050(2) 0.6871(2)
H48_4 H 0.6066 0.1011 0.6557
C66_4 C 0.6682(5) 0.0754(2) 0.7127(2)
C67_4 C 0.6919(5) 0.0825(2) 0.7582(2)
H49_4 H 0.7243 0.0631 0.7753
C68_4 C 0.6932(5) 0.0368(2) 0.6906(2)
C69_4 C 0.7028(5) 0.0380(2) 0.6462(2)
H50_4 H 0.6925 0.0629 0.6295
C72_4 C 0.5446(5) 0.1723(2) 0.6791(2)
C73_4 C 0.5361(5) 0.2115(2) 0.6945(2)
H53_4 H 0.5648 0.2198 0.7224
C74_4 C 0.5009(8) 0.1621(3) 0.6377(3)
H54_4 H 0.5052 0.1353 0.6255
C75_4 C 0.4501(6) 0.1908(3) 0.6135(3)
H55_4 H 0.4202 0.1828 0.5858
C80_4 C 0.3873(4) 0.2613(3) 0.6034(3)
C81_4 C 0.4440(4) 0.2296(2) 0.6297(2)
C82_4 C 0.4856(5) 0.2403(2) 0.6701(2)
H58_4 H 0.4808 0.2671 0.6820
C85_4 C 0.7275(5) 0.00281(19) 0.6257(2)
H59_4 H 0.7325 0.0042 0.5954
O32_2 O 0.3383(3) 0.14808(16) 0.4238(3)
H1_4 H 0.0756 0.9947 0.3659
O12_4 O 0.0694(3) 0.96994(15) 0.47667(17)
H3_4 H 0.0384 0.9797 0.4919
H4_4 H 0.0670 0.9843 0.4523
C16_4 C 0.2926(7) 0.9996(3) 0.7861(3)
H15_4 H 0.3021 0.9977 0.7567
C17_4 C 0.2639(6) 0.9641(3) 0.8055(3)
H16_4 H 0.2508 0.9397 0.7884
C29_4 C 0.2276(4) 0.92813(19) 0.8729(2)
C30_4 C 0.2556(5) 0.9664(2) 0.8504(2)
C70_4 C 0.7074(7) 0.9996(3) 0.7139(3)
H51_4 H 0.6979 0.9977 0.7433
C71_4 C 0.7361(6) 0.9641(3) 0.6945(3)
H52_4 H 0.7492 0.9397 0.7116
C83_4 C 0.7724(4) 0.92813(19) 0.6271(2)
C84_4 C 0.7444(5) 0.9664(2) 0.6496(2)
O15_4 O 0.8857(4) 0.48255(16) 0.5175(3)
C22_4 C 0.3556(4) 0.1849(2) 0.4362(3)
C23_4 C 0.4326(4) 0.2008(2) 0.4359(3)
C24_4 C 0.4634(4) 0.2343(2) 0.4637(3)
H20_4 H 0.4365 0.2469 0.4836
C25_4 C 0.4766(4) 0.1811(2) 0.4090(3)
H21_4 H 0.4578 0.1581 0.3909
C33_4 C 0.9583(4) 0.13518(19) 0.4387(2)
C34_4 C 0.8947(4) 0.1260(2) 0.4557(3)
H24_4 H 0.8900 0.1000 0.4693
C35_4 C 0.8384(4) 0.1557(2) 0.4523(3)
H25_4 H 0.7957 0.1492 0.4636
C36_4 C 0.8438(4) 0.19453(19) 0.4326(3)
C37_4 C 0.9075(4) 0.2031(2) 0.4155(3)
H26_4 H 0.9126 0.2291 0.4019
C38_4 C 0.9637(4) 0.1731(2) 0.4183(3)
C39_4 C 0.7843(4) 0.22725(19) 0.4328(3)
C40_4 C 0.7102(4) 0.2153(2) 0.4300(3)
H28_4 H 0.6971 0.1871 0.4244
C41_4 C 0.6545(4) 0.2443(2) 0.4353(3)
C42_4 C 0.6756(4) 0.2868(2) 0.4432(3)
H29_4 H 0.6398 0.3066 0.4475
C43_4 C 0.7488(4) 0.29977(19) 0.4449(3)
C44_4 C 0.8035(4) 0.2698(2) 0.4398(3)
H30_4 H 0.8527 0.2784 0.4412
C45_4 C 0.5779(4) 0.22991(19) 0.4346(3)
C46_4 C 0.5340(4) 0.2488(2) 0.4613(3)
H31_4 H 0.5527 0.2724 0.4786
C47_4 C 0.5475(4) 0.1954(2) 0.4089(3)
H32_4 H 0.5762 0.1815 0.3910
C48_4 C 0.8211(5) 0.4740(2) 0.4994(3)
C49_4 C 0.8025(4) 0.42881(18) 0.4837(3)
C50_4 C 0.7355(4) 0.41885(19) 0.4575(3)
H33_4 H 0.7001 0.4400 0.4486
C51_4 C 0.7193(4) 0.3775(2) 0.4437(3)
H34_4 H 0.6728 0.3714 0.4257
C52_4 C 0.7703(4) 0.34490(19) 0.4558(3)
C53_4 C 0.8392(4) 0.3561(2) 0.4819(3)
H35_4 H 0.8756 0.3354 0.4902
C54_4 C 0.8549(4) 0.3971(2) 0.4957(3)
H36_4 H 0.9015 0.4037 0.5134
H37_3 H 0.0756 0.0053 0.8659
O27_3 O 0.0694(3) 0.03006(15) 0.97667(17)
H39_3 H 0.0384 0.0203 0.9919
H40_3 H 0.0670 0.0157 0.9523
H37_4 H 0.9244 0.9947 0.1341
O27_4 O 0.9306(3) 0.96994(15) 0.02333(17)
H39_4 H 0.9616 0.9797 0.0081
H40_4 H 0.9330 0.9843 0.0477
N1 N 0.1147(4) 0.4324(2) 0.5179(3)
H73 H 0.1552 0.4187 0.5323
H74 H 0.1302 0.4562 0.5068
C109 C 0.0776(7) 0.4063(4) 0.4794(4)
H75 H 0.1112 0.4017 0.4588
H76 H 0.0336 0.4206 0.4635
H77 H 0.0637 0.3796 0.4905
C110 C 0.0721(6) 0.4431(4) 0.5496(4)
H78 H 0.0224 0.4504 0.5342
H79 H 0.0944 0.4668 0.5673
H80 H 0.0698 0.4194 0.5695
C109_2 C 0.9224(7) 0.4063(4) 0.0206(4)
H75_2 H 0.8888 0.4017 0.0412
H76_2 H 0.9664 0.4206 0.0365
H77_2 H 0.9363 0.3796 0.0095
N1_2 N 0.8853(4) 0.4324(2) 0.9821(3)
H73_2 H 0.8448 0.4187 0.9677
H74_2 H 0.8698 0.4562 0.9932
C110_2 C 0.9279(6) 0.4431(4) 0.9504(4)
H78_2 H 0.9776 0.4504 0.9658
H79_2 H 0.9056 0.4668 0.9327
H80_2 H 0.9302 0.4194 0.9305
N1_3 N 0.6147(4) 0.9324(2) 0.5179(3)
H73_3 H 0.6552 0.9187 0.5323
H74_3 H 0.6302 0.9562 0.5068
C109_3 C 0.5776(7) 0.9063(4) 0.4794(4)
H75_3 H 0.6112 0.9017 0.4588
H76_3 H 0.5336 0.9206 0.4635
H77_3 H 0.5637 0.8796 0.4905
C110_3 C 0.5721(6) 0.9431(4) 0.5496(4)
H78_3 H 0.5224 0.9504 0.5342
H79_3 H 0.5944 0.9668 0.5673
H80_3 H 0.5698 0.9194 0.5695
C109_4 C 0.4224(7) 0.9063(4) 0.0206(4)
H75_4 H 0.3888 0.9017 0.0412
H76_4 H 0.4664 0.9206 0.0365
H77_4 H 0.4363 0.8796 0.0095
N1_4 N 0.3853(4) 0.9324(2) 0.9821(3)
H73_4 H 0.3448 0.9187 0.9677
H74_4 H 0.3698 0.9562 0.9932
C110_4 C 0.4279(6) 0.9431(4) 0.9504(4)
H78_4 H 0.4776 0.9504 0.9658
H79_4 H 0.4056 0.9668 0.9327
H80_4 H 0.4302 0.9194 0.9305
N1_5 N 0.8853(4) 0.5676(2) 0.4821(3)
H73_5 H 0.8448 0.5813 0.4677
H74_5 H 0.8698 0.5438 0.4932
C109_5 C 0.9224(7) 0.5937(4) 0.5206(4)
H75_5 H 0.8888 0.5983 0.5412
H76_5 H 0.9664 0.5794 0.5365
H77_5 H 0.9363 0.6204 0.5095
C110_5 C 0.9279(6) 0.5569(4) 0.4504(4)
H78_5 H 0.9776 0.5496 0.4658
H79_5 H 0.9056 0.5332 0.4327
H80_5 H 0.9302 0.5806 0.4305
N1_6 N 0.1147(4) 0.5676(2) 0.0179(3)
H73_6 H 0.1552 0.5813 0.0323
H74_6 H 0.1302 0.5438 0.0068
C110_6 C 0.0721(6) 0.5569(4) 0.0496(4)
H78_6 H 0.0224 0.5496 0.0342
H79_6 H 0.0944 0.5332 0.0673
H80_6 H 0.0698 0.5806 0.0695
C109_6 C 0.0776(7) 0.5937(4) 0.9794(4)
H75_6 H 0.1112 0.5983 0.9588
H76_6 H 0.0336 0.5794 0.9635
H77_6 H 0.0637 0.6204 0.9905
N1_7 N 0.3853(4) 0.0676(2) 0.4821(3)
H73_7 H 0.3448 0.0813 0.4677
H74_7 H 0.3698 0.0438 0.4932
C109_7 C 0.4224(7) 0.0937(4) 0.5206(4)
H75_7 H 0.3888 0.0983 0.5412
H76_7 H 0.4664 0.0794 0.5365
H77_7 H 0.4363 0.1204 0.5095
C110_7 C 0.4279(6) 0.0569(4) 0.4504(4)
H78_7 H 0.4776 0.0496 0.4658
H79_7 H 0.4056 0.0332 0.4327
H80_7 H 0.4302 0.0806 0.4305
N1_8 N 0.6147(4) 0.0676(2) 0.0179(3)
H73_8 H 0.6552 0.0813 0.0323
H74_8 H 0.6302 0.0438 0.0068
C110_8 C 0.5721(6) 0.0569(4) 0.0496(4)
H78_8 H 0.5224 0.0496 0.0342
H79_8 H 0.5944 0.0332 0.0673
H80_8 H 0.5698 0.0806 0.0695
C109_8 C 0.5776(7) 0.0937(4) 0.9794(4)
H75_8 H 0.6112 0.0983 0.9588
H76_8 H 0.5336 0.0794 0.9635
H77_8 H 0.5637 0.1204 0.9905
loop_
_geom_bond_atom_site_label_1
_geom_bond_atom_site_label_2
_geom_bond_site_symmetry_1
_geom_bond_site_symmetry_2
O3 C22 1_555 1_555
O4 C22 1_555 1_555
C22 C23 1_555 1_555
C23 C24 1_555 1_555
C24 H20 1_555 1_555
C25 C23 1_555 1_555
H21 C25 1_555 1_555
Sr6 O3 1_555 1_555
Sr12 O4 1_555 1_555
O4 Sr6 1_555 1_555
Sr6 O1 1_555 1_555
Sr12 O2 1_555 1_555
Sr3 O1 1_555 1_555
O1 C1 1_555 1_555
O2 Sr6 1_555 1_555
O7 C29 1_555 1_555
O8 C29 1_555 1_555
O9 Sr6 1_555 1_555
O10 Sr3 1_555 1_555
O11 Sr3 1_555 1_555
H1 O11 1_555 1_555
H2 O11 1_555 1_555
O12 Sr3 1_555 1_555
H3 O12 1_555 1_555
H4 O12 1_555 1_555
O13 Sr3 1_555 1_555
H5 O13 1_555 1_555
H6 O13 1_555 1_555
O15 C48 1_555 1_555
C1 O2 1_555 1_555
C2 C1 1_555 1_555
C3 C2 1_555 1_555
H7 C3 1_555 1_555
C4 C3 1_555 1_555
H8 C4 1_555 1_555
C5 C4 1_555 1_555
C6 C5 1_555 1_555
H9 C6 1_555 1_555
C7 C2 1_555 1_555
H10 C7 1_555 1_555
C8 C5 1_555 1_555
C9 C8 1_555 1_555
H11 C9 1_555 1_555
C10 C9 1_555 1_555
C11 C10 1_555 1_555
H12 C11 1_555 1_555
C12 C11 1_555 1_555
C13 C8 1_555 1_555
H13 C13 1_555 1_555
C14 C12 1_555 1_555
C15 C14 1_555 1_555
H14 C15 1_555 1_555
C16 C14 1_555 1_555
H15 C16 1_555 1_555
C17 C16 1_555 1_555
H16 C17 1_555 1_555
C18 C10 1_555 1_555
C19 C18 1_555 1_555
H17 C19 1_555 1_555
C20 C18 1_555 1_555
H18 C20 1_555 1_555
C29 C30 1_555 1_555
C30 C17 1_555 1_555
C31 C15 1_555 1_555
H23 C31 1_555 1_555
C32 O9 1_555 1_555
C33 C32 1_555 1_555
C34 C33 1_555 1_555
H24 C34 1_555 1_555
C35 C34 1_555 1_555
H25 C35 1_555 1_555
C36 C35 1_555 1_555
C37 C36 1_555 1_555
H26 C37 1_555 1_555
C38 C33 1_555 1_555
H27 C38 1_555 1_555
C39 C36 1_555 1_555
C40 C39 1_555 1_555
H28 C40 1_555 1_555
C41 C40 1_555 1_555
C42 C41 1_555 1_555
H29 C42 1_555 1_555
C43 C42 1_555 1_555
C44 C39 1_555 1_555
H30 C44 1_555 1_555
C45 C41 1_555 1_555
H31 C46 1_555 1_555
H32 C47 1_555 1_555
C48 C49 1_555 1_555
C49 C50 1_555 1_555
C50 H33 1_555 1_555
C51 C50 1_555 1_555
H34 C51 1_555 1_555
C52 C43 1_555 1_555
C53 C52 1_555 1_555
H35 C53 1_555 1_555
C54 C49 1_555 1_555
H36 C54 1_555 1_555
O20 Sr12 1_555 1_555
O21 C80 1_555 1_555
H55 C75 1_555 1_555
C80 O20 1_555 1_555
C81 C75 1_555 1_555
H58 C82 1_555 1_555
Sr9 O7 1_555 1_555
Sr10 O21 1_555 1_555
Sr18 O7 1_555 1_555
O31 Sr12 1_555 1_555
O36 Sr12 1_555 1_555
O37 Sr12 1_555 1_555
O39 Sr6 1_555 1_555
O41 Sr6 1_555 1_555
O43 Sr6 1_555 1_555
O44 Sr3 1_555 1_555
Sr3 O9 1_555 1_555
Sr3 O41 1_555 1_555
O8 Sr9 1_555 1_555
O10 C32 1_555 1_555
C6 C7 1_555 1_555
C12 C13 1_555 1_555
C30 C31 1_555 1_555
C37 C38 1_555 1_555
C43 C44 1_555 1_555
C45 C46 1_555 1_555
C45 C47 1_555 1_555
C51 C52 1_555 1_555
C53 C54 1_555 1_555
C80 C81 1_555 1_555
C81 C82 1_555 1_555
Sr10 O31 1_555 1_555
Sr10 O36 1_555 1_555
Sr15 O14 1_555 1_555
O5 C26 1_555 1_555
O6 C26 1_555 1_555
H19 C21 1_555 1_555
C26 C27 1_555 1_555
C27 C21 1_555 1_555
H22 C28 1_555 1_555
O16 C55 1_555 1_555
O22 C83 1_555 1_555
O23 C83 1_555 1_555
H41 O28 1_555 1_555
H42 O28 1_555 1_555
C55 O17 1_555 1_555
C56 C55 1_555 1_555
C57 C56 1_555 1_555
H43 C57 1_555 1_555
C58 C57 1_555 1_555
H44 C58 1_555 1_555
C59 C58 1_555 1_555
C60 C59 1_555 1_555
H45 C60 1_555 1_555
C61 C56 1_555 1_555
H46 C61 1_555 1_555
C62 C59 1_555 1_555
C63 C62 1_555 1_555
H47 C63 1_555 1_555
C64 C63 1_555 1_555
C65 C64 1_555 1_555
H48 C65 1_555 1_555
C66 C65 1_555 1_555
C67 C62 1_555 1_555
H49 C67 1_555 1_555
C68 C66 1_555 1_555
C69 C68 1_555 1_555
H50 C69 1_555 1_555
C70 C68 1_555 1_555
H51 C70 1_555 1_555
C71 C70 1_555 1_555
H52 C71 1_555 1_555
C72 C64 1_555 1_555
C73 C72 1_555 1_555
H53 C73 1_555 1_555
C74 C72 1_555 1_555
H54 C74 1_555 1_555
C83 C84 1_555 1_555
C84 C71 1_555 1_555
C85 C69 1_555 1_555
H59 C85 1_555 1_555
Sr8 O22 1_555 1_555
Sr11 O6 1_555 1_555
Sr14 O5 1_555 1_555
Sr17 O22 1_555 1_555
C27 C28 1_555 1_555
O17 Sr14 1_555 1_555
O23 Sr8 1_555 1_555
C60 C61 1_555 1_555
C66 C67 1_555 1_555
C84 C85 1_555 1_555
O24 Sr4 1_555 1_555
O25 Sr5 1_555 1_555
O26 Sr5 1_555 1_555
H37 O26 1_555 1_555
H38 O26 1_555 1_555
O27 Sr5 1_555 1_555
H39 O27 1_555 1_555
H40 O27 1_555 1_555
C86 O24 1_555 1_555
C87 C86 1_555 1_555
C88 C87 1_555 1_555
H60 C88 1_555 1_555
C89 C88 1_555 1_555
H61 C89 1_555 1_555
C90 C89 1_555 1_555
C91 C90 1_555 1_555
H62 C91 1_555 1_555
C92 C87 1_555 1_555
H63 C92 1_555 1_555
C93 C90 1_555 1_555
C94 C93 1_555 1_555
H64 C94 1_555 1_555
C95 C94 1_555 1_555
C96 C95 1_555 1_555
H65 C96 1_555 1_555
C97 C96 1_555 1_555
C98 C93 1_555 1_555
H66 C98 1_555 1_555
C99 C95 1_555 1_555
H67 C100 1_555 1_555
H68 C101 1_555 1_555
C102 C103 1_555 1_555
C103 C104 1_555 1_555
C104 H69 1_555 1_555
C105 C104 1_555 1_555
H70 C105 1_555 1_555
C106 C97 1_555 1_555
C107 C106 1_555 1_555
H71 C107 1_555 1_555
C108 C103 1_555 1_555
O33 Sr4 1_555 1_555
O35 Sr4 1_555 1_555
O38 Sr4 1_555 1_555
O40 Sr4 1_555 1_555
O42 Sr4 1_555 1_555
O45 Sr5 1_555 1_555
Sr5 O24 1_555 1_555
Sr5 O40 1_555 1_555
O25 C86 1_555 1_555
C91 C92 1_555 1_555
C97 C98 1_555 1_555
C99 C100 1_555 1_555
C99 C101 1_555 1_555
C105 C106 1_555 1_555
C107 C108 1_555 1_555
Sr14_2 O35 1_555 1_555
Sr16 O29 1_555 1_555
O33 C76 1_555 1_555
O35 C76 1_555 1_555
C76 C77 1_555 1_555
C77 C78 1_555 1_555
C78 H56 1_555 1_555
C79 C77 1_555 1_555
H57 C79 1_555 1_555
O36_2 Sr14 1_555 1_555
Sr11 O36_2 1_555 1_555
O31_2 Sr14_2 1_555 1_555
O37_2 Sr14_2 1_555 1_555
O3_2 C22_2 1_555 1_555
O4_2 C22_2 1_555 1_555
O44 C48_2 1_555 1_555
O15_2 C48_2 1_555 1_555
C22_2 C23_2 1_555 1_555
C23_2 C24_2 1_555 1_555
C24_2 H20_2 1_555 1_555
C25_2 C23_2 1_555 1_555
H21_2 C25_2 1_555 1_555
C34_2 C33_2 1_555 1_555
H24_2 C34_2 1_555 1_555
C35_2 C34_2 1_555 1_555
H25_2 C35_2 1_555 1_555
C36_2 C35_2 1_555 1_555
C37_2 C36_2 1_555 1_555
H26_2 C37_2 1_555 1_555
C38_2 C33_2 1_555 1_555
C39_2 C36_2 1_555 1_555
C40_2 C39_2 1_555 1_555
H28_2 C40_2 1_555 1_555
C41_2 C40_2 1_555 1_555
C42_2 C41_2 1_555 1_555
H29_2 C42_2 1_555 1_555
C43_2 C42_2 1_555 1_555
C44_2 C39_2 1_555 1_555
H30_2 C44_2 1_555 1_555
C45_2 C41_2 1_555 1_555
C46_2 C24_2 1_555 1_555
H31_2 C46_2 1_555 1_555
C47_2 C25_2 1_555 1_555
H32_2 C47_2 1_555 1_555
C48_2 C49_2 1_555 1_555
C49_2 C50_2 1_555 1_555
C50_2 H33_2 1_555 1_555
C51_2 C50_2 1_555 1_555
H34_2 C51_2 1_555 1_555
C52_2 C43_2 1_555 1_555
C53_2 C52_2 1_555 1_555
H35_2 C53_2 1_555 1_555
C54_2 C49_2 1_555 1_555
H36_2 C54_2 1_555 1_555
Sr6_2 O3_2 1_555 1_555
Sr12_2 O4_2 1_555 1_555
O4_2 Sr6_2 1_555 1_555
C37_2 C38_2 1_555 1_555
C43_2 C44_2 1_555 1_555
C45_2 C46_2 1_555 1_555
C45_2 C47_2 1_555 1_555
C51_2 C52_2 1_555 1_555
C53_2 C54_2 1_555 1_555
O7_2 C29_2 1_555 1_555
O8_2 C29_2 1_555 1_555
H3_2 O12_2 1_555 1_555
H4_2 O12_2 1_555 1_555
H15_2 C16_2 1_555 1_555
C17_2 C16_2 1_555 1_555
H16_2 C17_2 1_555 1_555
C29_2 C30_2 1_555 1_555
C30_2 C17_2 1_555 1_555
O22_2 C83_2 1_555 1_555
O23_2 C83_2 1_555 1_555
H51_2 C70_2 1_555 1_555
C71_2 C70_2 1_555 1_555
H52_2 C71_2 1_555 1_555
C83_2 C84_2 1_555 1_555
C84_2 C71_2 1_555 1_555
Sr10 O22_2 1_555 1_555
Sr11 O7_2 1_555 1_555
Sr17_2 O22_2 1_555 1_555
Sr18_2 O7_2 1_555 1_555
O8_2 Sr11 1_555 1_555
O23_2 Sr10 1_555 1_555
Sr6_2 O1_2 1_555 1_555
Sr12_2 O2_2 1_555 1_555
Sr15 O1_2 1_555 1_555
O1_2 C1_2 1_555 1_555
O2_2 Sr6_2 1_555 1_555
O5_2 C26_2 1_555 1_555
O6_2 C26_2 1_555 1_555
O9_2 Sr6_2 1_555 1_555
O10_2 Sr15 1_555 1_555
O11_2 Sr15 1_555 1_555
H2_2 O11_2 1_555 1_555
O13_2 Sr15 1_555 1_555
H5_2 O13_2 1_555 1_555
H6_2 O13_2 1_555 1_555
C1_2 O2_2 1_555 1_555
C2_2 C1_2 1_555 1_555
C3_2 C2_2 1_555 1_555
H7_2 C3_2 1_555 1_555
C4_2 C3_2 1_555 1_555
H8_2 C4_2 1_555 1_555
C5_2 C4_2 1_555 1_555
C6_2 C5_2 1_555 1_555
H9_2 C6_2 1_555 1_555
C7_2 C2_2 1_555 1_555
H10_2 C7_2 1_555 1_555
C8_2 C5_2 1_555 1_555
C9_2 C8_2 1_555 1_555
H11_2 C9_2 1_555 1_555
C10_2 C9_2 1_555 1_555
C11_2 C10_2 1_555 1_555
H12_2 C11_2 1_555 1_555
C12_2 C11_2 1_555 1_555
C13_2 C8_2 1_555 1_555
H13_2 C13_2 1_555 1_555
C14_2 C12_2 1_555 1_555
C15_2 C14_2 1_555 1_555
H14_2 C15_2 1_555 1_555
C18_2 C10_2 1_555 1_555
C19_2 C18_2 1_555 1_555
H17_2 C19_2 1_555 1_555
C20_2 C18_2 1_555 1_555
H18_2 C20_2 1_555 1_555
C21_2 C20_2 1_555 1_555
H19_2 C21_2 1_555 1_555
C26_2 C27_2 1_555 1_555
C27_2 C21_2 1_555 1_555
C28_2 C19_2 1_555 1_555
H22_2 C28_2 1_555 1_555
C31_2 C15_2 1_555 1_555
H23_2 C31_2 1_555 1_555
C32_2 O9_2 1_555 1_555
O16_2 C55_2 1_555 1_555
O20_2 Sr12_2 1_555 1_555
O21_2 C80_2 1_555 1_555
H41_2 O28_2 1_555 1_555
H42_2 O28_2 1_555 1_555
C55_2 O17_2 1_555 1_555
C56_2 C55_2 1_555 1_555
C57_2 C56_2 1_555 1_555
H43_2 C57_2 1_555 1_555
C58_2 C57_2 1_555 1_555
H44_2 C58_2 1_555 1_555
C59_2 C58_2 1_555 1_555
C60_2 C59_2 1_555 1_555
H45_2 C60_2 1_555 1_555
C61_2 C56_2 1_555 1_555
H46_2 C61_2 1_555 1_555
C62_2 C59_2 1_555 1_555
C63_2 C62_2 1_555 1_555
H47_2 C63_2 1_555 1_555
C64_2 C63_2 1_555 1_555
C65_2 C64_2 1_555 1_555
H48_2 C65_2 1_555 1_555
C66_2 C65_2 1_555 1_555
C67_2 C62_2 1_555 1_555
H49_2 C67_2 1_555 1_555
C68_2 C66_2 1_555 1_555
C69_2 C68_2 1_555 1_555
H50_2 C69_2 1_555 1_555
C72_2 C64_2 1_555 1_555
C73_2 C72_2 1_555 1_555
H53_2 C73_2 1_555 1_555
C74_2 C72_2 1_555 1_555
H54_2 C74_2 1_555 1_555
C75_2 C74_2 1_555 1_555
H55_2 C75_2 1_555 1_555
C80_2 O20_2 1_555 1_555
C81_2 C75_2 1_555 1_555
C82_2 C73_2 1_555 1_555
H58_2 C82_2 1_555 1_555
C85_2 C69_2 1_555 1_555
H59_2 C85_2 1_555 1_555
Sr8 O21_2 1_555 1_555
Sr9 O6_2 1_555 1_555
Sr14_3 O5_2 1_555 1_555
O31_3 Sr12_2 1_555 1_555
O36_3 Sr12_2 1_555 1_555
O37_3 Sr12_2 1_555 1_555
O39_2 Sr6_2 1_555 1_555
O41_2 Sr6_2 1_555 1_555
O43_2 Sr6_2 1_555 1_555
Sr15 O9_2 1_555 1_555
Sr15 O41_2 1_555 1_555
O10_2 C32_2 1_555 1_555
C6_2 C7_2 1_555 1_555
C12_2 C13_2 1_555 1_555
C27_2 C28_2 1_555 1_555
O17_2 Sr14_3 1_555 1_555
C60_2 C61_2 1_555 1_555
C66_2 C67_2 1_555 1_555
C80_2 C81_2 1_555 1_555
C81_2 C82_2 1_555 1_555
Sr8 O31_3 1_555 1_555
Sr8 O36_3 1_555 1_555
O24_2 Sr4_2 1_555 1_555
O25_2 Sr16 1_555 1_555
O26_2 Sr16 1_555 1_555
H38_2 O26_2 1_555 1_555
C86_2 O24_2 1_555 1_555
O33_2 Sr4_2 1_555 1_555
O35_2 Sr4_2 1_555 1_555
O38_2 Sr4_2 1_555 1_555
O40_2 Sr4_2 1_555 1_555
O42_2 Sr4_2 1_555 1_555
Sr16 O24_2 1_555 1_555
Sr16 O40_2 1_555 1_555
O25_2 C86_2 1_555 1_555
Sr14_4 O35_2 1_555 1_555
O33_2 C76_2 1_555 1_555
O35_2 C76_2 1_555 1_555
O45 C102_2 1_555 1_555
C76_2 C77_2 1_555 1_555
C77_2 C78_2 1_555 1_555
C78_2 H56_2 1_555 1_555
C79_2 C77_2 1_555 1_555
H57_2 C79_2 1_555 1_555
C88_2 C87_2 1_555 1_555
H60_2 C88_2 1_555 1_555
C89_2 C88_2 1_555 1_555
H61_2 C89_2 1_555 1_555
C90_2 C89_2 1_555 1_555
C91_2 C90_2 1_555 1_555
H62_2 C91_2 1_555 1_555
C92_2 C87_2 1_555 1_555
C93_2 C90_2 1_555 1_555
C94_2 C93_2 1_555 1_555
H64_2 C94_2 1_555 1_555
C95_2 C94_2 1_555 1_555
C96_2 C95_2 1_555 1_555
H65_2 C96_2 1_555 1_555
C97_2 C96_2 1_555 1_555
C98_2 C93_2 1_555 1_555
H66_2 C98_2 1_555 1_555
C99_2 C95_2 1_555 1_555
C100_2 C78_2 1_555 1_555
H67_2 C100_2 1_555 1_555
C101_2 C79_2 1_555 1_555
H68_2 C101_2 1_555 1_555
C102_2 C103_2 1_555 1_555
C103_2 C104_2 1_555 1_555
C104_2 H69_2 1_555 1_555
C105_2 C104_2 1_555 1_555
H70_2 C105_2 1_555 1_555
C106_2 C97_2 1_555 1_555
C107_2 C106_2 1_555 1_555
H71_2 C107_2 1_555 1_555
C108_2 C103_2 1_555 1_555
C91_2 C92_2 1_555 1_555
C97_2 C98_2 1_555 1_555
C99_2 C100_2 1_555 1_555
C99_2 C101_2 1_555 1_555
C105_2 C106_2 1_555 1_555
C107_2 C108_2 1_555 1_555
O36_4 Sr14_3 1_555 1_555
Sr9 O36_4 1_555 1_555
O31_4 Sr14_4 1_555 1_555
O37_4 Sr14_4 1_555 1_555
O18 C76_3 1_555 1_555
O36_4 C76_3 1_555 1_555
C76_3 C77_3 1_555 1_555
C77_3 C78_3 1_555 1_555
C78_3 H56_3 1_555 1_555
C79_3 C77_3 1_555 1_555
H57_3 C79_3 1_555 1_555
Sr9 O18 1_555 1_555
Sr18_2 O29_2 1_555 1_555
O24_3 Sr9 1_555 1_555
O25_3 Sr18 1_555 1_555
O26_3 Sr18 1_555 1_555
H37_2 O26_3 1_555 1_555
H38_3 O26_3 1_555 1_555
O27_2 Sr18 1_555 1_555
H39_2 O27_2 1_555 1_555
H40_2 O27_2 1_555 1_555
C86_3 O24_3 1_555 1_555
C87_3 C86_3 1_555 1_555
C88_3 C87_3 1_555 1_555
H60_3 C88_3 1_555 1_555
C89_3 C88_3 1_555 1_555
H61_3 C89_3 1_555 1_555
C90_3 C89_3 1_555 1_555
C91_3 C90_3 1_555 1_555
H62_3 C91_3 1_555 1_555
C92_3 C87_3 1_555 1_555
H63_3 C92_3 1_555 1_555
C93_3 C90_3 1_555 1_555
C94_3 C93_3 1_555 1_555
H64_3 C94_3 1_555 1_555
C95_3 C94_3 1_555 1_555
C96_3 C95_3 1_555 1_555
H65_3 C96_3 1_555 1_555
C97_3 C96_3 1_555 1_555
C98_3 C93_3 1_555 1_555
H66_3 C98_3 1_555 1_555
C99_3 C95_3 1_555 1_555
H67_3 C100_3 1_555 1_555
H68_3 C101_3 1_555 1_555
C102_3 C103_3 1_555 1_555
C103_3 C104_3 1_555 1_555
C104_3 H69_3 1_555 1_555
C105_3 C104_3 1_555 1_555
H70_3 C105_3 1_555 1_555
C106_3 C97_3 1_555 1_555
C107_3 C106_3 1_555 1_555
H71_3 C107_3 1_555 1_555
C108_3 C103_3 1_555 1_555
O45_2 Sr18 1_555 1_555
Sr18 O24_3 1_555 1_555
O25_3 C86_3 1_555 1_555
C91_3 C92_3 1_555 1_555
C97_3 C98_3 1_555 1_555
C99_3 C100_3 1_555 1_555
C99_3 C101_3 1_555 1_555
C105_3 C106_3 1_555 1_555
C107_3 C108_3 1_555 1_555
O37_4 C26_3 1_555 1_555
O38_2 C26_3 1_555 1_555
H19_3 C21_3 1_555 1_555
C26_3 C27_3 1_555 1_555
C27_3 C21_3 1_555 1_555
H22_3 C28_3 1_555 1_555
O16_3 C55_3 1_555 1_555
O41 C83_3 1_555 1_555
O43 C83_3 1_555 1_555
H41_3 O28_3 1_555 1_555
H42_3 O28_3 1_555 1_555
C55_3 O31_4 1_555 1_555
C56_3 C55_3 1_555 1_555
C57_3 C56_3 1_555 1_555
H43_3 C57_3 1_555 1_555
C58_3 C57_3 1_555 1_555
H44_3 C58_3 1_555 1_555
C59_3 C58_3 1_555 1_555
C60_3 C59_3 1_555 1_555
H45_3 C60_3 1_555 1_555
C61_3 C56_3 1_555 1_555
H46_3 C61_3 1_555 1_555
C62_3 C59_3 1_555 1_555
C63_3 C62_3 1_555 1_555
H47_3 C63_3 1_555 1_555
C64_3 C63_3 1_555 1_555
C65_3 C64_3 1_555 1_555
H48_3 C65_3 1_555 1_555
C66_3 C65_3 1_555 1_555
C67_3 C62_3 1_555 1_555
H49_3 C67_3 1_555 1_555
C68_3 C66_3 1_555 1_555
C69_3 C68_3 1_555 1_555
H50_3 C69_3 1_555 1_555
C70_3 C68_3 1_555 1_555
H51_3 C70_3 1_555 1_555
C71_3 C70_3 1_555 1_555
H52_3 C71_3 1_555 1_555
C72_3 C64_3 1_555 1_555
C73_3 C72_3 1_555 1_555
H53_3 C73_3 1_555 1_555
C74_3 C72_3 1_555 1_555
H54_3 C74_3 1_555 1_555
C83_3 C84_3 1_555 1_555
C84_3 C71_3 1_555 1_555
C85_3 C69_3 1_555 1_555
H59_3 C85_3 1_555 1_555
C27_3 C28_3 1_555 1_555
C60_3 C61_3 1_555 1_555
C66_3 C67_3 1_555 1_555
C84_3 C85_3 1_555 1_555
Sr17_2 O14_2 1_555 1_555
Sr8 O1_3 1_555 1_555
Sr17 O1_3 1_555 1_555
O1_3 C1_3 1_555 1_555
O40 C29_3 1_555 1_555
O42 C29_3 1_555 1_555
O9_3 Sr8 1_555 1_555
O10_3 Sr17 1_555 1_555
O11_3 Sr17 1_555 1_555
H1_3 O11_3 1_555 1_555
H2_3 O11_3 1_555 1_555
O12_3 Sr17 1_555 1_555
H3_3 O12_3 1_555 1_555
H4_3 O12_3 1_555 1_555
O13_3 Sr17 1_555 1_555
H5_3 O13_3 1_555 1_555
H6_3 O13_3 1_555 1_555
O15_3 C48_3 1_555 1_555
C1_3 O31_3 1_555 1_555
C2_3 C1_3 1_555 1_555
C3_3 C2_3 1_555 1_555
H7_3 C3_3 1_555 1_555
C4_3 C3_3 1_555 1_555
H8_3 C4_3 1_555 1_555
C5_3 C4_3 1_555 1_555
C6_3 C5_3 1_555 1_555
H9_3 C6_3 1_555 1_555
C7_3 C2_3 1_555 1_555
H10_3 C7_3 1_555 1_555
C8_3 C5_3 1_555 1_555
C9_3 C8_3 1_555 1_555
H11_3 C9_3 1_555 1_555
C10_3 C9_3 1_555 1_555
C11_3 C10_3 1_555 1_555
H12_3 C11_3 1_555 1_555
C12_3 C11_3 1_555 1_555
C13_3 C8_3 1_555 1_555
H13_3 C13_3 1_555 1_555
C14_3 C12_3 1_555 1_555
C15_3 C14_3 1_555 1_555
H14_3 C15_3 1_555 1_555
C16_3 C14_3 1_555 1_555
H15_3 C16_3 1_555 1_555
C17_3 C16_3 1_555 1_555
H16_3 C17_3 1_555 1_555
C18_3 C10_3 1_555 1_555
C19_3 C18_3 1_555 1_555
H17_3 C19_3 1_555 1_555
C20_3 C18_3 1_555 1_555
H18_3 C20_3 1_555 1_555
C29_3 C30_3 1_555 1_555
C30_3 C17_3 1_555 1_555
C31_3 C15_3 1_555 1_555
H23_3 C31_3 1_555 1_555
C32_3 O9_3 1_555 1_555
C33_3 C32_3 1_555 1_555
C34_3 C33_3 1_555 1_555
H24_3 C34_3 1_555 1_555
C35_3 C34_3 1_555 1_555
H25_3 C35_3 1_555 1_555
C36_3 C35_3 1_555 1_555
C37_3 C36_3 1_555 1_555
H26_3 C37_3 1_555 1_555
C38_3 C33_3 1_555 1_555
H27_3 C38_3 1_555 1_555
C39_3 C36_3 1_555 1_555
C40_3 C39_3 1_555 1_555
H28_3 C40_3 1_555 1_555
C41_3 C40_3 1_555 1_555
C42_3 C41_3 1_555 1_555
H29_3 C42_3 1_555 1_555
C43_3 C42_3 1_555 1_555
C44_3 C39_3 1_555 1_555
H30_3 C44_3 1_555 1_555
C45_3 C41_3 1_555 1_555
H31_3 C46_3 1_555 1_555
H32_3 C47_3 1_555 1_555
C48_3 C49_3 1_555 1_555
C49_3 C50_3 1_555 1_555
C50_3 H33_3 1_555 1_555
C51_3 C50_3 1_555 1_555
H34_3 C51_3 1_555 1_555
C52_3 C43_3 1_555 1_555
C53_3 C52_3 1_555 1_555
H35_3 C53_3 1_555 1_555
C54_3 C49_3 1_555 1_555
H36_3 C54_3 1_555 1_555
O39_2 C80_3 1_555 1_555
H55_3 C75_3 1_555 1_555
C80_3 O37_3 1_555 1_555
C81_3 C75_3 1_555 1_555
H58_3 C82_3 1_555 1_555
O32 Sr8 1_555 1_555
O44_2 Sr17 1_555 1_555
Sr17 O9_3 1_555 1_555
O10_3 C32_3 1_555 1_555
C6_3 C7_3 1_555 1_555
C12_3 C13_3 1_555 1_555
C30_3 C31_3 1_555 1_555
C37_3 C38_3 1_555 1_555
C43_3 C44_3 1_555 1_555
C45_3 C46_3 1_555 1_555
C45_3 C47_3 1_555 1_555
C51_3 C52_3 1_555 1_555
C53_3 C54_3 1_555 1_555
C80_3 C81_3 1_555 1_555
C81_3 C82_3 1_555 1_555
O32 C22_3 1_555 1_555
O36_3 C22_3 1_555 1_555
C22_3 C23_3 1_555 1_555
C23_3 C24_3 1_555 1_555
C24_3 H20_3 1_555 1_555
C25_3 C23_3 1_555 1_555
H21_3 C25_3 1_555 1_555
O18_2 C76_4 1_555 1_555
O36_2 C76_4 1_555 1_555
O45_2 C102_4 1_555 1_555
C76_4 C77_4 1_555 1_555
C77_4 C78_4 1_555 1_555
C78_4 H56_4 1_555 1_555
C79_4 C77_4 1_555 1_555
H57_4 C79_4 1_555 1_555
C88_4 C87_4 1_555 1_555
H60_4 C88_4 1_555 1_555
C89_4 C88_4 1_555 1_555
H61_4 C89_4 1_555 1_555
C90_4 C89_4 1_555 1_555
C91_4 C90_4 1_555 1_555
H62_4 C91_4 1_555 1_555
C92_4 C87_4 1_555 1_555
C93_4 C90_4 1_555 1_555
C94_4 C93_4 1_555 1_555
H64_4 C94_4 1_555 1_555
C95_4 C94_4 1_555 1_555
C96_4 C95_4 1_555 1_555
H65_4 C96_4 1_555 1_555
C97_4 C96_4 1_555 1_555
C98_4 C93_4 1_555 1_555
H66_4 C98_4 1_555 1_555
C99_4 C95_4 1_555 1_555
C100_4 C78_4 1_555 1_555
H67_4 C100_4 1_555 1_555
C101_4 C79_4 1_555 1_555
H68_4 C101_4 1_555 1_555
C102_4 C103_4 1_555 1_555
C103_4 C104_4 1_555 1_555
C104_4 H69_4 1_555 1_555
C105_4 C104_4 1_555 1_555
H70_4 C105_4 1_555 1_555
C106_4 C97_4 1_555 1_555
C107_4 C106_4 1_555 1_555
H71_4 C107_4 1_555 1_555
C108_4 C103_4 1_555 1_555
Sr11 O18_2 1_555 1_555
C91_4 C92_4 1_555 1_555
C97_4 C98_4 1_555 1_555
C99_4 C100_4 1_555 1_555
C99_4 C101_4 1_555 1_555
C105_4 C106_4 1_555 1_555
C107_4 C108_4 1_555 1_555
O24_4 Sr11 1_555 1_555
O25_4 Sr18_2 1_555 1_555
O26_4 Sr18_2 1_555 1_555
H38_4 O26_4 1_555 1_555
C86_4 O24_4 1_555 1_555
Sr18_2 O24_4 1_555 1_555
O25_4 C86_4 1_555 1_555
Sr10 O1_4 1_555 1_555
Sr17_2 O1_4 1_555 1_555
O1_4 C1_4 1_555 1_555
O37_2 C26_4 1_555 1_555
O38 C26_4 1_555 1_555
O9_4 Sr10 1_555 1_555
O10_4 Sr17_2 1_555 1_555
O11_4 Sr17_2 1_555 1_555
H2_4 O11_4 1_555 1_555
O13_4 Sr17_2 1_555 1_555
H5_4 O13_4 1_555 1_555
H6_4 O13_4 1_555 1_555
C1_4 O31 1_555 1_555
C2_4 C1_4 1_555 1_555
C3_4 C2_4 1_555 1_555
H7_4 C3_4 1_555 1_555
C4_4 C3_4 1_555 1_555
H8_4 C4_4 1_555 1_555
C5_4 C4_4 1_555 1_555
C6_4 C5_4 1_555 1_555
H9_4 C6_4 1_555 1_555
C7_4 C2_4 1_555 1_555
H10_4 C7_4 1_555 1_555
C8_4 C5_4 1_555 1_555
C9_4 C8_4 1_555 1_555
H11_4 C9_4 1_555 1_555
C10_4 C9_4 1_555 1_555
C11_4 C10_4 1_555 1_555
H12_4 C11_4 1_555 1_555
C12_4 C11_4 1_555 1_555
C13_4 C8_4 1_555 1_555
H13_4 C13_4 1_555 1_555
C14_4 C12_4 1_555 1_555
C15_4 C14_4 1_555 1_555
H14_4 C15_4 1_555 1_555
C18_4 C10_4 1_555 1_555
C19_4 C18_4 1_555 1_555
H17_4 C19_4 1_555 1_555
C20_4 C18_4 1_555 1_555
H18_4 C20_4 1_555 1_555
C21_4 C20_4 1_555 1_555
H19_4 C21_4 1_555 1_555
C26_4 C27_4 1_555 1_555
C27_4 C21_4 1_555 1_555
C28_4 C19_4 1_555 1_555
H22_4 C28_4 1_555 1_555
C31_4 C15_4 1_555 1_555
H23_4 C31_4 1_555 1_555
C32_4 O9_4 1_555 1_555
O16_4 C55_4 1_555 1_555
O39 C80_4 1_555 1_555
H41_4 O28_4 1_555 1_555
H42_4 O28_4 1_555 1_555
C55_4 O31_2 1_555 1_555
C56_4 C55_4 1_555 1_555
C57_4 C56_4 1_555 1_555
H43_4 C57_4 1_555 1_555
C58_4 C57_4 1_555 1_555
H44_4 C58_4 1_555 1_555
C59_4 C58_4 1_555 1_555
C60_4 C59_4 1_555 1_555
H45_4 C60_4 1_555 1_555
C61_4 C56_4 1_555 1_555
H46_4 C61_4 1_555 1_555
C62_4 C59_4 1_555 1_555
C63_4 C62_4 1_555 1_555
H47_4 C63_4 1_555 1_555
C64_4 C63_4 1_555 1_555
C65_4 C64_4 1_555 1_555
H48_4 C65_4 1_555 1_555
C66_4 C65_4 1_555 1_555
C67_4 C62_4 1_555 1_555
H49_4 C67_4 1_555 1_555
C68_4 C66_4 1_555 1_555
C69_4 C68_4 1_555 1_555
H50_4 C69_4 1_555 1_555
C72_4 C64_4 1_555 1_555
C73_4 C72_4 1_555 1_555
H53_4 C73_4 1_555 1_555
C74_4 C72_4 1_555 1_555
H54_4 C74_4 1_555 1_555
C75_4 C74_4 1_555 1_555
H55_4 C75_4 1_555 1_555
C80_4 O37 1_555 1_555
C81_4 C75_4 1_555 1_555
C82_4 C73_4 1_555 1_555
H58_4 C82_4 1_555 1_555
C85_4 C69_4 1_555 1_555
H59_4 C85_4 1_555 1_555
O32_2 Sr10 1_555 1_555
Sr17_2 O9_4 1_555 1_555
O10_4 C32_4 1_555 1_555
C6_4 C7_4 1_555 1_555
C12_4 C13_4 1_555 1_555
C27_4 C28_4 1_555 1_555
C60_4 C61_4 1_555 1_555
C66_4 C67_4 1_555 1_555
C80_4 C81_4 1_555 1_555
C81_4 C82_4 1_555 1_555
O40_2 C29_4 1_555 1_555
O42_2 C29_4 1_555 1_555
H3_4 O12_4 1_555 1_555
H4_4 O12_4 1_555 1_555
H15_4 C16_4 1_555 1_555
C17_4 C16_4 1_555 1_555
H16_4 C17_4 1_555 1_555
C29_4 C30_4 1_555 1_555
C30_4 C17_4 1_555 1_555
O41_2 C83_4 1_555 1_555
O43_2 C83_4 1_555 1_555
H51_4 C70_4 1_555 1_555
C71_4 C70_4 1_555 1_555
H52_4 C71_4 1_555 1_555
C83_4 C84_4 1_555 1_555
C84_4 C71_4 1_555 1_555
O32_2 C22_4 1_555 1_555
O36 C22_4 1_555 1_555
O44_2 C48_4 1_555 1_555
O15_4 C48_4 1_555 1_555
C22_4 C23_4 1_555 1_555
C23_4 C24_4 1_555 1_555
C24_4 H20_4 1_555 1_555
C25_4 C23_4 1_555 1_555
H21_4 C25_4 1_555 1_555
C34_4 C33_4 1_555 1_555
H24_4 C34_4 1_555 1_555
C35_4 C34_4 1_555 1_555
H25_4 C35_4 1_555 1_555
C36_4 C35_4 1_555 1_555
C37_4 C36_4 1_555 1_555
H26_4 C37_4 1_555 1_555
C38_4 C33_4 1_555 1_555
C39_4 C36_4 1_555 1_555
C40_4 C39_4 1_555 1_555
H28_4 C40_4 1_555 1_555
C41_4 C40_4 1_555 1_555
C42_4 C41_4 1_555 1_555
H29_4 C42_4 1_555 1_555
C43_4 C42_4 1_555 1_555
C44_4 C39_4 1_555 1_555
H30_4 C44_4 1_555 1_555
C45_4 C41_4 1_555 1_555
C46_4 C24_4 1_555 1_555
H31_4 C46_4 1_555 1_555
C47_4 C25_4 1_555 1_555
H32_4 C47_4 1_555 1_555
C48_4 C49_4 1_555 1_555
C49_4 C50_4 1_555 1_555
C50_4 H33_4 1_555 1_555
C51_4 C50_4 1_555 1_555
H34_4 C51_4 1_555 1_555
C52_4 C43_4 1_555 1_555
C53_4 C52_4 1_555 1_555
H35_4 C53_4 1_555 1_555
C54_4 C49_4 1_555 1_555
H36_4 C54_4 1_555 1_555
C37_4 C38_4 1_555 1_555
C43_4 C44_4 1_555 1_555
C45_4 C46_4 1_555 1_555
C45_4 C47_4 1_555 1_555
C51_4 C52_4 1_555 1_555
C53_4 C54_4 1_555 1_555
H39_3 O27_3 1_555 1_555
H40_3 O27_3 1_555 1_555
H39_4 O27_4 1_555 1_555
H40_4 O27_4 1_555 1_555
N1 H73 1_555 1_555
H74 N1 1_555 1_555
C109 N1 1_555 1_555
H75 C109 1_555 1_555
H76 C109 1_555 1_555
H77 C109 1_555 1_555
C110 N1 1_555 1_555
H78 C110 1_555 1_555
H79 C110 1_555 1_555
H80 C110 1_555 1_555
H75_2 C109_2 1_555 1_555
H76_2 C109_2 1_555 1_555
H77_2 C109_2 1_555 1_555
N1_2 H73_2 1_555 1_555
H74_2 N1_2 1_555 1_555
C110_2 N1_2 1_555 1_555
H78_2 C110_2 1_555 1_555
H79_2 C110_2 1_555 1_555
H80_2 C110_2 1_555 1_555
N1_3 H73_3 1_555 1_555
H74_3 N1_3 1_555 1_555
C109_3 N1_3 1_555 1_555
H75_3 C109_3 1_555 1_555
H76_3 C109_3 1_555 1_555
H77_3 C109_3 1_555 1_555
C110_3 N1_3 1_555 1_555
H78_3 C110_3 1_555 1_555
H79_3 C110_3 1_555 1_555
H80_3 C110_3 1_555 1_555
H75_4 C109_4 1_555 1_555
H76_4 C109_4 1_555 1_555
H77_4 C109_4 1_555 1_555
N1_4 H73_4 1_555 1_555
H74_4 N1_4 1_555 1_555
C110_4 N1_4 1_555 1_555
H78_4 C110_4 1_555 1_555
H79_4 C110_4 1_555 1_555
H80_4 C110_4 1_555 1_555
N1_5 H73_5 1_555 1_555
H74_5 N1_5 1_555 1_555
C109_5 N1_5 1_555 1_555
H75_5 C109_5 1_555 1_555
H76_5 C109_5 1_555 1_555
H77_5 C109_5 1_555 1_555
C110_5 N1_5 1_555 1_555
H78_5 C110_5 1_555 1_555
H79_5 C110_5 1_555 1_555
H80_5 C110_5 1_555 1_555
N1_6 H73_6 1_555 1_555
H74_6 N1_6 1_555 1_555
C110_6 N1_6 1_555 1_555
H78_6 C110_6 1_555 1_555
H79_6 C110_6 1_555 1_555
H80_6 C110_6 1_555 1_555
H75_6 C109_6 1_555 1_555
H76_6 C109_6 1_555 1_555
H77_6 C109_6 1_555 1_555
N1_7 H73_7 1_555 1_555
H74_7 N1_7 1_555 1_555
C109_7 N1_7 1_555 1_555
H75_7 C109_7 1_555 1_555
H76_7 C109_7 1_555 1_555
H77_7 C109_7 1_555 1_555
C110_7 N1_7 1_555 1_555
H78_7 C110_7 1_555 1_555
H79_7 C110_7 1_555 1_555
H80_7 C110_7 1_555 1_555
N1_8 H73_8 1_555 1_555
H74_8 N1_8 1_555 1_555
C110_8 N1_8 1_555 1_555
H78_8 C110_8 1_555 1_555
H79_8 C110_8 1_555 1_555
H80_8 C110_8 1_555 1_555
H75_8 C109_8 1_555 1_555
H76_8 C109_8 1_555 1_555
H77_8 C109_8 1_555 1_555

#END
