
###############################################################################
#
# This file contains modified crystal structure data generated from the
# MOF subset of the Cambridge Structural Database (CSD) v543 
# hosted by the Cambridge Crystallographic Data Centre (CCDC).
#
# This work is licensed under the Creative Commons
# Attribution-NonCommercial-ShareAlike 4.0 International License.
# To view a copy of this license, visit
# http://creativecommons.org/licenses/by-nc-sa/4.0/
# or send a letter to
# Creative Commons, PO Box 1866, Mountain View, CA 94042, USA.
#
# CIF created using the CSD Python API on 29 September 2022
# The structure has been converted into the P1 space group
# The structure has a 3D framework
# The original CSD entry KAKCEH01 is in the orthorhombic crystal system
# The framework has been calculated to contain at least 10.0% void space
# The void calculation uses a probe of radius 1.32A, grid spacing 0.4
# The framework is charged, counterions have been retained in the structure
# H atom positions have been added when not included in the experimental data
#
###############################################################################

data_KAKCEH01
_chemical_formula_moiety         '(C116 H100 Ba4 N4 O26 2+)n'
_symmetry_cell_setting           triclinic
_symmetry_space_group_name_H-M   'P 1'
_symmetry_Int_Tables_number      1
_space_group_name_Hall           'P 1'
loop_
_symmetry_equiv_pos_site_id
_symmetry_equiv_pos_as_xyz
1 x,y,z
_cell_length_a                   7.2459(6)
_cell_length_b                   19.2242(16)
_cell_length_c                   25.807(2)
_cell_angle_alpha                90
_cell_angle_beta                 90
_cell_angle_gamma                90
_cell_volume                     3594.83
loop_
_atom_site_label
_atom_site_type_symbol
_atom_site_fract_x
_atom_site_fract_y
_atom_site_fract_z
Ba1 Ba 0.18198(8) 0.31140(3) 0.89257(4)
O5 O 0.0584(10) 0.1771(3) 0.8798(2)
O6 O 0.3257(13) 0.1859(5) 0.8416(4)
C1 C 0.1888(16) 0.1542(6) 0.8552(5)
C2 C 0.1590(15) 0.0807(6) 0.8316(5)
C3 C 0.2232(17) 0.0632(7) 0.7858(5)
H1 H 0.2969 0.0943 0.7676
C7 C 0.0597(17) 0.0327(6) 0.8604(4)
H4 H 0.0143 0.0453 0.8927
O7 O 0.217(3) 0.3373(11) 0.7852(8)
Ba6 Ba 0.68198(8) 0.18860(3) 0.89257(4)
O8 O 0.3791(14) 0.2288(5) 0.9608(3)
O11 O 0.1096(13) 0.4516(5) 0.8761(3)
O12 O 0.5584(10) 0.3229(3) 0.8798(2)
H24 H 0.0949106 0.331701 0.768227
H25 H 0.262363 0.385486 0.779732
C4 C 0.182(2) 0.9979(6) 0.7639(5)
H2 H 0.2216 0.9868 0.7307
C5 C 0.0824(16) 0.9514(5) 0.7923(4)
C6 C 0.0269(17) 0.9666(7) 0.8420(5)
C8 C 0.0279(16) 0.8814(6) 0.7704(5)
C15 C 0.0365(14) 0.5043(5) 0.8951(7)
C16 C 0.0241(17) 0.5699(6) 0.8669(5)
C17 C 0.0616(19) 0.5722(6) 0.8133(6)
H9 H 0.0976 0.5315 0.7966
C18 C 0.0470(17) 0.6316(6) 0.7849(5)
H10 H 0.0723 0.6308 0.7496
C26 C 0.0281(17) 0.8213(5) 0.7988(5)
H15 H 0.0639 0.8227 0.8334
O9 O 0.8791(14) 0.2712(5) 0.9608(3)
O10 O 0.9862(14) 0.3755(4) 0.9742(3)
O13 O 0.8257(13) 0.3141(5) 0.8416(4)
O1 O 0.6209(14) 0.7712(5) 0.4608(3)
O2 O 0.5138(14) 0.8755(4) 0.4742(3)
O4 O 0.9711(15) 0.5038(5) 0.9401(4)
H3 H 0.9689 0.9334 0.8625
C9 C 0.6054(19) 0.8236(6) 0.4890(5)
C10 C 0.6832(17) 0.8213(6) 0.5426(5)
C11 C 0.6687(19) 0.8780(6) 0.5764(5)
H5 H 0.6091 0.9181 0.5652
C12 C 0.7380(19) 0.8761(6) 0.6242(5)
H6 H 0.7242 0.9149 0.6454
C13 C 0.7736(18) 0.7626(6) 0.5608(5)
H7 H 0.7883 0.7242 0.5393
C14 C 0.8414(16) 0.7610(6) 0.6103(4)
H8 H 0.8971 0.7206 0.6225
C19 C 0.9954(14) 0.6923(6) 0.8082(5)
C20 C 0.961(2) 0.6906(7) 0.8612(5)
H11 H 0.9292 0.7318 0.8779
C21 C 0.9711(18) 0.6313(5) 0.8892(7)
H12 H 0.9417 0.6322 0.9243
C22 C 0.9760(15) 0.7584(5) 0.7770(4)
C23 C 0.9139(15) 0.7577(5) 0.7257(4)
H13 H 0.8774 0.7157 0.7111
C24 C 0.9052(16) 0.8168(6) 0.6966(4)
C25 C 0.9677(17) 0.8788(6) 0.7175(5)
H14 H 0.9705 0.9187 0.6973
C27 C 0.8283(17) 0.8195(6) 0.6434(5)
Ba3 Ba 0.81802(8) 0.68860(3) 0.39257(4)
Ba4 Ba 0.31802(8) 0.81140(3) 0.39257(4)
O2_2 O 0.4862(14) 0.1245(4) 0.9742(3)
C9_2 C 0.3946(19) 0.1764(6) 0.9890(5)
O9_2 O 0.1209(14) 0.7288(5) 0.4608(3)
O10_2 O 0.0138(14) 0.6245(4) 0.4742(3)
O13_2 O 0.1743(13) 0.6859(5) 0.3416(4)
O3 O 0.8904(13) 0.5484(5) 0.3761(3)
C4_2 C 0.818(2) 0.0021(6) 0.2639(5)
H2_2 H 0.7784 0.0132 0.2307
C5_2 C 0.9176(16) 0.0486(5) 0.2923(4)
C6_2 C 0.9731(17) 0.0334(7) 0.3420(5)
C8_2 C 0.9721(16) 0.1186(6) 0.2704(5)
C15_2 C 0.9635(14) 0.4957(5) 0.3951(7)
C16_2 C 0.9759(17) 0.4301(6) 0.3669(5)
C17_2 C 0.9384(19) 0.4278(6) 0.3133(6)
H9_2 H 0.9024 0.4685 0.2966
C18_2 C 0.9530(17) 0.3684(6) 0.2849(5)
H10_2 H 0.9277 0.3692 0.2496
C26_2 C 0.9719(17) 0.1787(5) 0.2988(5)
H15_2 H 0.9361 0.1773 0.3334
O5_2 O 0.9416(10) 0.8229(3) 0.3798(2)
O6_2 O 0.6743(13) 0.8141(5) 0.3416(4)
C1_2 C 0.8112(16) 0.8458(6) 0.3552(5)
C2_2 C 0.8410(15) 0.9193(6) 0.3316(5)
C3_2 C 0.7768(17) 0.9368(7) 0.2858(5)
H1_2 H 0.7031 0.9057 0.2676
C7_2 C 0.9403(17) 0.9673(6) 0.3604(4)
H4_2 H 0.9857 0.9547 0.3927
O7_2 O 0.783(3) 0.6627(11) 0.2852(8)
O12_2 O 0.4416(10) 0.6771(3) 0.3798(2)
H24_2 H 0.905089 0.668299 0.268227
H25_2 H 0.737637 0.614514 0.279732
O4_2 O 0.5289(15) 0.0038(5) 0.4401(4)
C1_3 C 0.3112(16) 0.6542(6) 0.3552(5)
C2_3 C 0.3410(15) 0.5807(6) 0.3316(5)
C3_3 C 0.2768(17) 0.5632(7) 0.2858(5)
H1_3 H 0.2031 0.5943 0.2676
C4_3 C 0.318(2) 0.4979(6) 0.2639(5)
H2_3 H 0.2784 0.4868 0.2307
C5_3 C 0.4176(16) 0.4514(5) 0.2923(4)
C6_3 C 0.4731(17) 0.4666(7) 0.3420(5)
H3_2 H 0.5311 0.4334 0.3625
C7_3 C 0.4403(17) 0.5327(6) 0.3604(4)
H4_3 H 0.4857 0.5453 0.3927
C8_3 C 0.4721(16) 0.3814(6) 0.2704(5)
C10_2 C 0.8168(17) 0.3213(6) 0.0426(5)
C11_2 C 0.8313(19) 0.3780(6) 0.0764(5)
H5_2 H 0.8909 0.4181 0.0652
C12_2 C 0.7620(19) 0.3761(6) 0.1242(5)
H6_2 H 0.7758 0.4149 0.1454
C13_2 C 0.7264(18) 0.2626(6) 0.0608(5)
H7_2 H 0.7117 0.2242 0.0393
C14_2 C 0.6586(16) 0.2610(6) 0.1103(4)
H8_2 H 0.6029 0.2206 0.1225
C15_3 C 0.4635(14) 0.0043(5) 0.3951(7)
C16_3 C 0.4759(17) 0.0699(6) 0.3669(5)
C17_3 C 0.4384(19) 0.0722(6) 0.3133(6)
H9_3 H 0.4024 0.0315 0.2966
C18_3 C 0.4530(17) 0.1316(6) 0.2849(5)
H10_3 H 0.4277 0.1308 0.2496
C19_2 C 0.5046(14) 0.1923(6) 0.3082(5)
C20_2 C 0.539(2) 0.1906(7) 0.3612(5)
H11_2 H 0.5708 0.2318 0.3779
C21_2 C 0.5289(18) 0.1313(5) 0.3892(7)
H12_2 H 0.5583 0.1322 0.4243
C22_2 C 0.5240(15) 0.2584(5) 0.2770(4)
C23_2 C 0.5861(15) 0.2577(5) 0.2257(4)
H13_2 H 0.6226 0.2157 0.2111
C24_2 C 0.5948(16) 0.3168(6) 0.1966(4)
C25_2 C 0.5323(17) 0.3788(6) 0.2175(5)
H14_2 H 0.5295 0.4187 0.1973
C26_3 C 0.4719(17) 0.3213(5) 0.2988(5)
H15_3 H 0.4361 0.3227 0.3334
O7_3 O 0.283(3) 0.8373(11) 0.2852(8)
C27_2 C 0.6717(17) 0.3195(6) 0.1434(5)
O11_2 O 0.3904(13) 0.9516(5) 0.3761(3)
H24_3 H 0.405089 0.831701 0.268227
H25_3 H 0.237637 0.885486 0.279732
C9_3 C 0.8946(19) 0.3236(6) 0.9890(5)
O3_2 O 0.6096(13) 0.0484(5) 0.8761(3)
O4_3 O 0.4711(15) 0.9962(5) 0.9401(4)
C1_4 C 0.6888(16) 0.3458(6) 0.8552(5)
C2_4 C 0.6590(15) 0.4193(6) 0.8316(5)
C3_4 C 0.7232(17) 0.4368(7) 0.7858(5)
H1_4 H 0.7969 0.4057 0.7676
C4_4 C 0.682(2) 0.5021(6) 0.7639(5)
H2_4 H 0.7216 0.5132 0.7307
C5_4 C 0.5824(16) 0.5486(5) 0.7923(4)
C6_4 C 0.5269(17) 0.5334(7) 0.8420(5)
H3_3 H 0.4689 0.5666 0.8625
C7_4 C 0.5597(17) 0.4673(6) 0.8604(4)
H4_4 H 0.5143 0.4547 0.8927
C8_4 C 0.5279(16) 0.6186(6) 0.7704(5)
C9_4 C 0.1054(19) 0.6764(6) 0.4890(5)
C10_3 C 0.1832(17) 0.6787(6) 0.5426(5)
C11_3 C 0.1687(19) 0.6220(6) 0.5764(5)
H5_3 H 0.1091 0.5819 0.5652
C12_3 C 0.2380(19) 0.6239(6) 0.6242(5)
H6_3 H 0.2242 0.5851 0.6454
C13_3 C 0.2736(18) 0.7374(6) 0.5608(5)
H7_3 H 0.2883 0.7758 0.5393
C14_3 C 0.3414(16) 0.7390(6) 0.6103(4)
H8_3 H 0.3971 0.7794 0.6225
C15_4 C 0.5365(14) 0.9957(5) 0.8951(7)
C16_4 C 0.5241(17) 0.9301(6) 0.8669(5)
C17_4 C 0.5616(19) 0.9278(6) 0.8133(6)
H9_4 H 0.5976 0.9685 0.7966
C18_4 C 0.5470(17) 0.8684(6) 0.7849(5)
H10_4 H 0.5723 0.8692 0.7496
C19_3 C 0.4954(14) 0.8077(6) 0.8082(5)
C20_3 C 0.461(2) 0.8094(7) 0.8612(5)
H11_3 H 0.4292 0.7682 0.8779
C21_3 C 0.4711(18) 0.8687(5) 0.8892(7)
H12_3 H 0.4417 0.8678 0.9243
C22_3 C 0.4760(15) 0.7416(5) 0.7770(4)
C23_3 C 0.4139(15) 0.7423(5) 0.7257(4)
H13_3 H 0.3774 0.7843 0.7111
C24_3 C 0.4052(16) 0.6832(6) 0.6966(4)
C25_3 C 0.4677(17) 0.6212(6) 0.7175(5)
H14_3 H 0.4705 0.5813 0.6973
C26_4 C 0.5281(17) 0.6787(5) 0.7988(5)
H15_4 H 0.5639 0.6773 0.8334
O7_4 O 0.717(3) 0.1627(11) 0.7852(8)
C27_3 C 0.3283(17) 0.6805(6) 0.6434(5)
H24_4 H 0.594911 0.168299 0.768227
H25_4 H 0.762363 0.114514 0.779732
O4_4 O 0.0289(15) 0.4962(5) 0.4401(4)
H3_4 H 0.0311 0.0666 0.3625
C10_4 C 0.3168(17) 0.1787(6) 0.0426(5)
C11_4 C 0.3313(19) 0.1220(6) 0.0764(5)
H5_4 H 0.3909 0.0819 0.0652
C12_4 C 0.2620(19) 0.1239(6) 0.1242(5)
H6_4 H 0.2758 0.0851 0.1454
C13_4 C 0.2264(18) 0.2374(6) 0.0608(5)
H7_4 H 0.2117 0.2758 0.0393
C14_4 C 0.1586(16) 0.2390(6) 0.1103(4)
H8_4 H 0.1029 0.2794 0.1225
C19_4 C 0.0046(14) 0.3077(6) 0.3082(5)
C20_4 C 0.039(2) 0.3094(7) 0.3612(5)
H11_4 H 0.0708 0.2682 0.3779
C21_4 C 0.0289(18) 0.3687(5) 0.3892(7)
H12_4 H 0.0583 0.3678 0.4243
C22_4 C 0.0240(15) 0.2416(5) 0.2770(4)
C23_4 C 0.0861(15) 0.2423(5) 0.2257(4)
H13_4 H 0.1226 0.2843 0.2111
C24_4 C 0.0948(16) 0.1832(6) 0.1966(4)
C25_4 C 0.0323(17) 0.1212(6) 0.2175(5)
H14_4 H 0.0295 0.0813 0.1973
C27_4 C 0.1717(17) 0.1805(6) 0.1434(5)
C28 C 0.520(13) 0.533(4) 0.518(3)
N1 N 0.664(10) 0.517(4) 0.568(3)
C29 C 0.633(16) 0.449(6) 0.602(5)
H16 H 0.379299 0.537788 0.532398
H17 H 0.560397 0.581231 0.498995
H18 H 0.527387 0.490305 0.490344
H19 H 0.655469 0.55833 0.592357
H20 H 0.793494 0.514074 0.553161
H21 H 0.644364 0.403149 0.577426
H22 H 0.737133 0.446655 0.632377
H23 H 0.496276 0.450632 0.619479
C28_2 C 0.480(13) 0.467(4) 0.018(3)
N1_2 N 0.336(10) 0.483(4) 0.068(3)
C29_2 C 0.367(16) 0.551(6) 0.102(5)
H16_2 H 0.620701 0.462212 0.0323976
H19_2 H 0.344531 0.44167 0.0923569
H20_2 H 0.206506 0.485926 0.0531611
H21_2 H 0.355636 0.596851 0.0774255
H22_2 H 0.262867 0.553345 0.132377
H23_2 H 0.503724 0.549368 0.119479
H17_2 H 0.439603 0.418769 0.998995
H18_2 H 0.472613 0.509695 0.990344
H16_3 H 0.120701 0.0377883 0.0323976
H23_3 H 0.00372399 0.950632 0.119479
C28_3 C 0.980(13) 0.033(4) 0.018(3)
N1_3 N 0.836(10) 0.017(4) 0.068(3)
H19_3 H 0.844531 0.0583302 0.0923569
H20_3 H 0.706506 0.0140737 0.0531611
H17_3 H 0.939603 0.0812307 0.998995
C29_3 C 0.867(16) 0.949(6) 0.102(5)
H21_3 H 0.855636 0.903149 0.0774255
H22_3 H 0.762867 0.946655 0.132377
H18_3 H 0.972613 0.990305 0.990344
C29_4 C 0.133(16) 0.051(6) 0.602(5)
H18_4 H 0.0273867 0.00969483 0.490344
H21_4 H 0.144364 0.0968506 0.577426
H22_4 H 0.237133 0.0533449 0.632377
C28_4 C 0.020(13) 0.967(4) 0.518(3)
N1_4 N 0.164(10) 0.983(4) 0.568(3)
H17_4 H 0.0603971 0.918769 0.498995
H19_4 H 0.155469 0.94167 0.592357
H20_4 H 0.293494 0.985926 0.553161
H23_4 H 0.996276 0.0493675 0.619479
H16_4 H 0.879299 0.962212 0.532398
loop_
_geom_bond_atom_site_label_1
_geom_bond_atom_site_label_2
_geom_bond_site_symmetry_1
_geom_bond_site_symmetry_2
Ba1 O5 1_555 1_555
O5 C1 1_555 1_555
O6 Ba1 1_555 1_555
C1 O6 1_555 1_555
C2 C1 1_555 1_555
C3 C2 1_555 1_555
H1 C3 1_555 1_555
C7 C2 1_555 1_555
H4 C7 1_555 1_555
O7 Ba1 1_555 1_555
Ba6 O6 1_555 1_555
O8 Ba1 1_555 1_555
O11 Ba1 1_555 1_555
O12 Ba1 1_555 1_555
Ba6 O8 1_555 1_555
Ba6 O12 1_555 1_555
O7 H24 1_555 1_555
O7 H25 1_555 1_555
O11 C15 1_555 1_555
H2 C4 1_555 1_555
C5 C4 1_555 1_555
C6 C5 1_555 1_555
C8 C5 1_555 1_555
C15 C16 1_555 1_555
C16 C17 1_555 1_555
C17 H9 1_555 1_555
C18 C17 1_555 1_555
H10 C18 1_555 1_555
C26 C8 1_555 1_555
H15 C26 1_555 1_555
Ba6 O9 1_555 1_555
Ba6 O13 1_555 1_555
O1 C9 1_555 1_555
O2 C9 1_555 1_555
C9 C10 1_555 1_555
C10 C11 1_555 1_555
C11 H5 1_555 1_555
C12 C11 1_555 1_555
H6 C12 1_555 1_555
C13 C10 1_555 1_555
H7 C13 1_555 1_555
C14 C13 1_555 1_555
H8 C14 1_555 1_555
C20 C19 1_555 1_555
H11 C20 1_555 1_555
H12 C21 1_555 1_555
C22 C19 1_555 1_555
C23 C22 1_555 1_555
H13 C23 1_555 1_555
C24 C23 1_555 1_555
H14 C25 1_555 1_555
C27 C12 1_555 1_555
Ba3 O1 1_555 1_555
Ba4 O1 1_555 1_555
O2 Ba4 1_555 1_555
C14 C27 1_555 1_555
C20 C21 1_555 1_555
C24 C25 1_555 1_555
C24 C27 1_555 1_555
O8 C9_2 1_555 1_555
O2_2 C9_2 1_555 1_555
O2_2 Ba6 1_555 1_555
Ba4 O9_2 1_555 1_555
Ba4 O13_2 1_555 1_555
O3 C15_2 1_555 1_555
H2_2 C4_2 1_555 1_555
C5_2 C4_2 1_555 1_555
C6_2 C5_2 1_555 1_555
C8_2 C5_2 1_555 1_555
C15_2 C16_2 1_555 1_555
C16_2 C17_2 1_555 1_555
C17_2 H9_2 1_555 1_555
C18_2 C17_2 1_555 1_555
H10_2 C18_2 1_555 1_555
C26_2 C8_2 1_555 1_555
H15_2 C26_2 1_555 1_555
Ba3 O3 1_555 1_555
Ba3 O5_2 1_555 1_555
O5_2 C1_2 1_555 1_555
O6_2 Ba3 1_555 1_555
C1_2 O6_2 1_555 1_555
C2_2 C1_2 1_555 1_555
C3_2 C2_2 1_555 1_555
H1_2 C3_2 1_555 1_555
C7_2 C2_2 1_555 1_555
H4_2 C7_2 1_555 1_555
O7_2 Ba3 1_555 1_555
Ba4 O6_2 1_555 1_555
O12_2 Ba3 1_555 1_555
Ba4 O12_2 1_555 1_555
O7_2 H24_2 1_555 1_555
O7_2 H25_2 1_555 1_555
O4_2 C15_3 1_555 1_555
O12_2 C1_3 1_555 1_555
C1_3 O13_2 1_555 1_555
C2_3 C1_3 1_555 1_555
C3_3 C2_3 1_555 1_555
H1_3 C3_3 1_555 1_555
C4_3 C3_3 1_555 1_555
H2_3 C4_3 1_555 1_555
C5_3 C4_3 1_555 1_555
C6_3 C5_3 1_555 1_555
H3_2 C6_3 1_555 1_555
C7_3 C2_3 1_555 1_555
H4_3 C7_3 1_555 1_555
C8_3 C5_3 1_555 1_555
C10_2 C11_2 1_555 1_555
C11_2 H5_2 1_555 1_555
C12_2 C11_2 1_555 1_555
H6_2 C12_2 1_555 1_555
C13_2 C10_2 1_555 1_555
H7_2 C13_2 1_555 1_555
C14_2 C13_2 1_555 1_555
H8_2 C14_2 1_555 1_555
C15_3 C16_3 1_555 1_555
C16_3 C17_3 1_555 1_555
C17_3 H9_3 1_555 1_555
C18_3 C17_3 1_555 1_555
H10_3 C18_3 1_555 1_555
C19_2 C18_3 1_555 1_555
C20_2 C19_2 1_555 1_555
H11_2 C20_2 1_555 1_555
C21_2 C16_3 1_555 1_555
H12_2 C21_2 1_555 1_555
C22_2 C19_2 1_555 1_555
C23_2 C22_2 1_555 1_555
H13_2 C23_2 1_555 1_555
C24_2 C23_2 1_555 1_555
C25_2 C8_3 1_555 1_555
H14_2 C25_2 1_555 1_555
C26_3 C8_3 1_555 1_555
H15_3 C26_3 1_555 1_555
O7_3 Ba4 1_555 1_555
C27_2 C12_2 1_555 1_555
O11_2 Ba4 1_555 1_555
C6_3 C7_3 1_555 1_555
C14_2 C27_2 1_555 1_555
C20_2 C21_2 1_555 1_555
C22_2 C26_3 1_555 1_555
C24_2 C25_2 1_555 1_555
C24_2 C27_2 1_555 1_555
O7_3 H24_3 1_555 1_555
O7_3 H25_3 1_555 1_555
O9 C9_3 1_555 1_555
O10 C9_3 1_555 1_555
Ba6 O3_2 1_555 1_555
O9_2 C9_4 1_555 1_555
O10_2 C9_4 1_555 1_555
O4_3 C15_4 1_555 1_555
O12 C1_4 1_555 1_555
C1_4 O13 1_555 1_555
C2_4 C1_4 1_555 1_555
C3_4 C2_4 1_555 1_555
H1_4 C3_4 1_555 1_555
C4_4 C3_4 1_555 1_555
H2_4 C4_4 1_555 1_555
C5_4 C4_4 1_555 1_555
C6_4 C5_4 1_555 1_555
H3_3 C6_4 1_555 1_555
C7_4 C2_4 1_555 1_555
H4_4 C7_4 1_555 1_555
C8_4 C5_4 1_555 1_555
C9_4 C10_3 1_555 1_555
C10_3 C11_3 1_555 1_555
C11_3 H5_3 1_555 1_555
C12_3 C11_3 1_555 1_555
H6_3 C12_3 1_555 1_555
C13_3 C10_3 1_555 1_555
H7_3 C13_3 1_555 1_555
C14_3 C13_3 1_555 1_555
H8_3 C14_3 1_555 1_555
C15_4 C16_4 1_555 1_555
C16_4 C17_4 1_555 1_555
C17_4 H9_4 1_555 1_555
C18_4 C17_4 1_555 1_555
H10_4 C18_4 1_555 1_555
C19_3 C18_4 1_555 1_555
C20_3 C19_3 1_555 1_555
H11_3 C20_3 1_555 1_555
C21_3 C16_4 1_555 1_555
H12_3 C21_3 1_555 1_555
C22_3 C19_3 1_555 1_555
C23_3 C22_3 1_555 1_555
H13_3 C23_3 1_555 1_555
C24_3 C23_3 1_555 1_555
C25_3 C8_4 1_555 1_555
H14_3 C25_3 1_555 1_555
C26_4 C8_4 1_555 1_555
H15_4 C26_4 1_555 1_555
O7_4 Ba6 1_555 1_555
C27_3 C12_3 1_555 1_555
C6_4 C7_4 1_555 1_555
C14_3 C27_3 1_555 1_555
C20_3 C21_3 1_555 1_555
C22_3 C26_4 1_555 1_555
C24_3 C25_3 1_555 1_555
C24_3 C27_3 1_555 1_555
O7_4 H24_4 1_555 1_555
O7_4 H25_4 1_555 1_555
C10_4 C11_4 1_555 1_555
C11_4 H5_4 1_555 1_555
C12_4 C11_4 1_555 1_555
H6_4 C12_4 1_555 1_555
C13_4 C10_4 1_555 1_555
H7_4 C13_4 1_555 1_555
C14_4 C13_4 1_555 1_555
H8_4 C14_4 1_555 1_555
C20_4 C19_4 1_555 1_555
H11_4 C20_4 1_555 1_555
H12_4 C21_4 1_555 1_555
C22_4 C19_4 1_555 1_555
C23_4 C22_4 1_555 1_555
H13_4 C23_4 1_555 1_555
C24_4 C23_4 1_555 1_555
H14_4 C25_4 1_555 1_555
C27_4 C12_4 1_555 1_555
C14_4 C27_4 1_555 1_555
C20_4 C21_4 1_555 1_555
C24_4 C25_4 1_555 1_555
C24_4 C27_4 1_555 1_555
C28 N1 1_555 1_555
N1 C29 1_555 1_555
C28 H16 1_555 1_555
C28 H17 1_555 1_555
C28 H18 1_555 1_555
N1 H19 1_555 1_555
N1 H20 1_555 1_555
C29 H21 1_555 1_555
C29 H22 1_555 1_555
C29 H23 1_555 1_555
C28_2 N1_2 1_555 1_555
N1_2 C29_2 1_555 1_555
C28_2 H16_2 1_555 1_555
N1_2 H19_2 1_555 1_555
N1_2 H20_2 1_555 1_555
C29_2 H21_2 1_555 1_555
C29_2 H22_2 1_555 1_555
C29_2 H23_2 1_555 1_555
C28_3 N1_3 1_555 1_555
N1_3 H19_3 1_555 1_555
N1_3 H20_3 1_555 1_555
C29_3 H21_3 1_555 1_555
C29_3 H22_3 1_555 1_555
C29_4 H21_4 1_555 1_555
C29_4 H22_4 1_555 1_555
C28_4 N1_4 1_555 1_555
C28_4 H17_4 1_555 1_555
N1_4 H19_4 1_555 1_555
N1_4 H20_4 1_555 1_555

#END
