
###############################################################################
#
# This file contains modified crystal structure data generated from the
# MOF subset of the Cambridge Structural Database (CSD) v543 
# hosted by the Cambridge Crystallographic Data Centre (CCDC).
#
# This work is licensed under the Creative Commons
# Attribution-NonCommercial-ShareAlike 4.0 International License.
# To view a copy of this license, visit
# http://creativecommons.org/licenses/by-nc-sa/4.0/
# or send a letter to
# Creative Commons, PO Box 1866, Mountain View, CA 94042, USA.
#
# CIF created using the CSD Python API on 29 September 2022
# The structure has been converted into the P1 space group
# The structure has a 3D framework
# The original CSD entry KALCOT is in the monoclinic crystal system
# The framework has been calculated to contain at least 10.0% void space
# The void calculation uses a probe of radius 1.32A, grid spacing 0.4
#
###############################################################################

data_KALCOT
_chemical_formula_moiety         '(C168 H120 N48 Zn12)n'
_symmetry_cell_setting           triclinic
_symmetry_space_group_name_H-M   'P 1'
_symmetry_Int_Tables_number      1
_space_group_name_Hall           'P 1'
loop_
_symmetry_equiv_pos_site_id
_symmetry_equiv_pos_as_xyz
1 x,y,z
_cell_length_a                   14.723(6)
_cell_length_b                   21.84(1)
_cell_length_c                   16.169(7)
_cell_angle_alpha                90
_cell_angle_beta                 111.18(3)
_cell_angle_gamma                90
_cell_volume                     4847.94
loop_
_atom_site_label
_atom_site_type_symbol
_atom_site_fract_x
_atom_site_fract_y
_atom_site_fract_z
_atom_site_U_iso_or_equiv
_atom_site_thermal_displace_type
Zn2 Zn 0.362(6) 0.636(4) 0.095(6) 0.0127 Uiso
Zn3 Zn 0.469(7) 0.749(4) 0.440(6) 0.0127 Uiso
C13 C 0.3443(5) 0.7701(8) 0.0112(6) 0.0418 Uiso
H9 H 0.3226(5) 0.8668(8) 0.0240(6) 0.0418 Uiso
H10 H 0.3080(5) 0.7569(8) 0.0550(6) 0.0418 Uiso
C15 C 0.446(7) 0.509(5) 0.169(7) 0.0633 Uiso
H11 H 0.4916(4) 0.53067(10) 0.2296(3) 0.0633 Uiso
N5 N 0.3739(12) 0.5395(5) 0.1051(11) 0.0633 Uiso
C16 C 0.3351(12) 0.4972(5) 0.0419(11) 0.0633 Uiso
C20 C 0.3584(12) 0.3906(5) 0.0155(11) 0.0633 Uiso
C21 C 0.3831(12) 0.4430(5) 0.0681(11) 0.0633 Uiso
N6 N 0.4538(12) 0.4501(5) 0.1489(11) 0.0633 Uiso
H15 H 0.3953(12) 0.3478(5) 0.0350(11) 0.0633 Uiso
C22 C 0.438(7) 0.701(5) 0.271(7) 0.0633 Uiso
H16 H 0.3748(3) 0.7293(3) 0.254593(13) 0.0633 Uiso
N7 N 0.4676(5) 0.6746(4) 0.2087(10) 0.0633 Uiso
C23 C 0.5477(5) 0.6430(4) 0.2557(10) 0.0633 Uiso
C24 C 0.6075(5) 0.6075(4) 0.2249(10) 0.0633 Uiso
C25 C 0.6881(5) 0.5787(4) 0.2888(10) 0.0633 Uiso
C26 C 0.7063(5) 0.5860(4) 0.3803(10) 0.0633 Uiso
C27 C 0.6442(5) 0.6223(4) 0.4090(10) 0.0633 Uiso
C28 C 0.5653(5) 0.6500(4) 0.3441(10) 0.0633 Uiso
N8 N 0.4960(5) 0.6866(4) 0.3546(10) 0.0633 Uiso
H17 H 0.5910(5) 0.6033(4) 0.1551(10) 0.0633 Uiso
H18 H 0.7354(5) 0.5512(4) 0.2672(10) 0.0633 Uiso
H19 H 0.7679(5) 0.5637(4) 0.4276(10) 0.0633 Uiso
H20 H 0.6590(5) 0.6273(4) 0.4785(10) 0.0633 Uiso
C29 C 0.677(7) 0.816(4) 0.502(6) 0.0633 Uiso
H21 H 0.71598(2) 0.8032(4) 0.46066(19) 0.0633 Uiso
N9 N 0.5781(16) 0.815804(11) 0.4744(5) 0.0633 Uiso
C30 C 0.5586(16) 0.835304(11) 0.5449(5) 0.0633 Uiso
C31 C 0.4683(16) 0.843300(11) 0.5529(5) 0.0633 Uiso
C32 C 0.4677(16) 0.864547(11) 0.6350(5) 0.0633 Uiso
C33 C 0.5561(16) 0.877019(11) 0.7057(5) 0.0633 Uiso
C34 C 0.6461(16) 0.868378(11) 0.6951(5) 0.0633 Uiso
C35 C 0.6439(16) 0.847343(11) 0.6132(5) 0.0633 Uiso
N10 N 0.7196(16) 0.835548(11) 0.5868(5) 0.0633 Uiso
H22 H 0.4033(16) 0.833303(11) 0.4977(5) 0.0633 Uiso
H23 H 0.3994(16) 0.871160(11) 0.6432(5) 0.0633 Uiso
H24 H 0.5538(16) 0.893117(11) 0.7674(5) 0.0633 Uiso
H25 H 0.7123(16) 0.878015(11) 0.7492(5) 0.0633 Uiso
C36 C 0.482(5) 0.709(4) 0.642(5) 0.0139 Uiso
H26 H 0.5222(4) 0.74483(13) 0.685439(3) 0.0139 Uiso
N11 N 0.4595(4) 0.6553(9) 0.6722(5) 0.0139 Uiso
C37 C 0.4093(4) 0.6241(9) 0.5984(5) 0.0139 Uiso
C38 C 0.3689(4) 0.5658(9) 0.5908(5) 0.0139 Uiso
C39 C 0.3191(4) 0.5432(9) 0.5046(5) 0.0139 Uiso
C40 C 0.3113(4) 0.5791(9) 0.4295(5) 0.0139 Uiso
C41 C 0.4018(4) 0.6588(9) 0.5259(5) 0.0139 Uiso
C42 C 0.3532(4) 0.6380(9) 0.4398(5) 0.0139 Uiso
N12 N 0.4475(4) 0.7130(9) 0.5529(5) 0.0139 Uiso
H27 H 0.3765(4) 0.5402(9) 0.6494(5) 0.0139 Uiso
H28 H 0.2872(4) 0.4985(9) 0.4965(5) 0.0139 Uiso
H29 H 0.2732(4) 0.5611(9) 0.3647(5) 0.0139 Uiso
H30 H 0.3466(4) 0.6646(9) 0.3823(5) 0.0139 Uiso
Zn4 Zn 0.537(7) 0.646(4) 0.813(6) 0.0127 Uiso
Zn5 Zn 0.463(7) 0.354(4) 0.187(6) 0.0127 Uiso
Zn6 Zn 0.862(6) 0.864(4) 0.595(6) 0.0127 Uiso
N13 N 0.3385(14) 0.78819(6) 0.3789(3) 0.0532 Uiso
N15 N 0.2196(16) 0.664452(11) 0.0868(5) 0.0633 Uiso
C1 C 0.757(7) 0.715(4) 0.900(6) 0.0532 Uiso
H1 H 0.7530(2) 0.7424(3) 0.9532(4) 0.0532 Uiso
N1 N 0.8385(14) 0.71181(6) 0.8789(3) 0.0532 Uiso
C2 C 0.8138(14) 0.67402(6) 0.8088(3) 0.0532 Uiso
C3 C 0.8704(14) 0.65448(6) 0.7610(3) 0.0532 Uiso
C4 C 0.8267(14) 0.61432(6) 0.6894(3) 0.0532 Uiso
C5 C 0.7291(14) 0.59512(6) 0.6679(3) 0.0532 Uiso
C6 C 0.6741(14) 0.61586(6) 0.7179(3) 0.0532 Uiso
C7 C 0.7196(14) 0.65548(6) 0.7881(3) 0.0532 Uiso
N2 N 0.6828(14) 0.68148(6) 0.8453(3) 0.0532 Uiso
H2 H 0.9439(14) 0.67016(6) 0.7795(3) 0.0532 Uiso
H3 H 0.8683(14) 0.59848(6) 0.6513(3) 0.0532 Uiso
H4 H 0.6974(14) 0.56460(6) 0.6133(3) 0.0532 Uiso
H5 H 0.6004(14) 0.60092(6) 0.7008(3) 0.0532 Uiso
C8 C 0.434(7) 0.648(4) 0.922(7) 0.0418 Uiso
H6 H 0.4487(6) 0.601553(16) 0.9117(5) 0.0418 Uiso
N3 N 0.4625(5) 0.6961(8) 0.8837(6) 0.0418 Uiso
C9 C 0.4309(5) 0.7458(8) 0.9140(6) 0.0418 Uiso
C10 C 0.4404(5) 0.8072(8) 0.8952(6) 0.0418 Uiso
C11 C 0.4003(5) 0.8511(8) 0.9360(6) 0.0418 Uiso
C12 C 0.3525(5) 0.8327(8) 0.9937(6) 0.0418 Uiso
C14 C 0.3848(5) 0.7280(8) 0.9697(6) 0.0418 Uiso
N4 N 0.3864(5) 0.6661(8) 0.9756(6) 0.0418 Uiso
H7 H 0.4771(5) 0.8191(8) 0.8511(6) 0.0418 Uiso
H8 H 0.4064(5) 0.8987(8) 0.9229(6) 0.0418 Uiso
C17 C 0.2584(12) 0.5036(5) 0.9611(11) 0.0633 Uiso
C18 C 0.2313(12) 0.4516(5) 0.9061(11) 0.0633 Uiso
C19 C 0.2811(12) 0.3954(5) 0.9332(11) 0.0633 Uiso
H12 H 0.2228(12) 0.5470(5) 0.9433(11) 0.0633 Uiso
H13 H 0.1726(12) 0.4550(5) 0.8436(11) 0.0633 Uiso
H14 H 0.2592(12) 0.3564(5) 0.8904(11) 0.0633 Uiso
Zn7 Zn 0.969(7) 0.751(4) 0.940(6) 0.0127 Uiso
N14 N 0.5462(12) 0.5499(5) 0.8511(11) 0.0633 Uiso
Zn2_2 Zn 0.138(6) 0.136(4) 0.405(6) 0.0127 Uiso
Zn3_2 Zn 0.031(7) 0.249(4) 0.060(6) 0.0127 Uiso
C8_2 C 0.066(7) 0.148(4) 0.578(7) 0.0418 Uiso
H6_2 H 0.0513(6) 0.101553(16) 0.5883(5) 0.0418 Uiso
N3_2 N 0.0375(5) 0.1961(8) 0.6163(6) 0.0418 Uiso
C9_2 C 0.0691(5) 0.2458(8) 0.5860(6) 0.0418 Uiso
C10_2 C 0.0596(5) 0.3072(8) 0.6048(6) 0.0418 Uiso
C11_2 C 0.0997(5) 0.3511(8) 0.5640(6) 0.0418 Uiso
C12_2 C 0.1475(5) 0.3327(8) 0.5063(6) 0.0418 Uiso
C13_2 C 0.1557(5) 0.2701(8) 0.4888(6) 0.0418 Uiso
C14_2 C 0.1152(5) 0.2280(8) 0.5303(6) 0.0418 Uiso
N4_2 N 0.1136(5) 0.1661(8) 0.5244(6) 0.0418 Uiso
H7_2 H 0.0229(5) 0.3191(8) 0.6489(6) 0.0418 Uiso
H8_2 H 0.0936(5) 0.3987(8) 0.5771(6) 0.0418 Uiso
H9_2 H 0.1774(5) 0.3668(8) 0.4760(6) 0.0418 Uiso
H10_2 H 0.1920(5) 0.2569(8) 0.4450(6) 0.0418 Uiso
C15_2 C 0.054(7) 0.009(5) 0.331(7) 0.0633 Uiso
H11_2 H 0.0084(4) 0.03067(10) 0.2704(3) 0.0633 Uiso
N5_2 N 0.1261(12) 0.0395(5) 0.3949(11) 0.0633 Uiso
C17_2 C 0.2416(12) 0.0036(5) 0.5389(11) 0.0633 Uiso
H12_2 H 0.2772(12) 0.0470(5) 0.5567(11) 0.0633 Uiso
C22_2 C 0.062(7) 0.201(5) 0.229(7) 0.0633 Uiso
H16_2 H 0.1252(3) 0.2293(3) 0.245407(13) 0.0633 Uiso
N7_2 N 0.0324(5) 0.1746(4) 0.2913(10) 0.0633 Uiso
N8_2 N 0.0040(5) 0.1866(4) 0.1454(10) 0.0633 Uiso
H22_2 H 0.0967(16) 0.333303(11) 0.0023(5) 0.0633 Uiso
C40_2 C 0.1887(4) 0.0791(9) 0.0705(5) 0.0139 Uiso
C42_2 C 0.1468(4) 0.1380(9) 0.0602(5) 0.0139 Uiso
H29_2 H 0.2268(4) 0.0611(9) 0.1353(5) 0.0139 Uiso
H30_2 H 0.1534(4) 0.1646(9) 0.1177(5) 0.0139 Uiso
N13_2 N 0.1615(14) 0.28819(6) 0.1211(3) 0.0532 Uiso
N15_2 N 0.2804(16) 0.164452(11) 0.4132(5) 0.0633 Uiso
N16 N 0.0405(4) 0.1553(9) 0.8278(5) 0.0139 Uiso
C31_2 C 0.0317(16) 0.343300(11) 0.9471(5) 0.0633 Uiso
C32_2 C 0.0323(16) 0.364547(11) 0.8650(5) 0.0633 Uiso
H23_2 H 0.1006(16) 0.371160(11) 0.8568(5) 0.0633 Uiso
C36_2 C 0.018(5) 0.209(4) 0.858(5) 0.0139 Uiso
C37_2 C 0.0907(4) 0.1241(9) 0.9016(5) 0.0139 Uiso
C38_2 C 0.1311(4) 0.0658(9) 0.9092(5) 0.0139 Uiso
C39_2 C 0.1809(4) 0.0432(9) 0.9954(5) 0.0139 Uiso
C41_2 C 0.0982(4) 0.1588(9) 0.9741(5) 0.0139 Uiso
N12_2 N 0.0525(4) 0.2130(9) 0.9471(5) 0.0139 Uiso
H27_2 H 0.1235(4) 0.0402(9) 0.8506(5) 0.0139 Uiso
C16_2 C 0.1649(12) 0.9972(5) 0.4581(11) 0.0633 Uiso
C18_2 C 0.2687(12) 0.9516(5) 0.5939(11) 0.0633 Uiso
C19_2 C 0.2189(12) 0.8954(5) 0.5668(11) 0.0633 Uiso
C20_2 C 0.1416(12) 0.8906(5) 0.4845(11) 0.0633 Uiso
C21_2 C 0.1169(12) 0.9430(5) 0.4319(11) 0.0633 Uiso
N6_2 N 0.0462(12) 0.9501(5) 0.3511(11) 0.0633 Uiso
H13_2 H 0.3274(12) 0.9550(5) 0.6564(11) 0.0633 Uiso
H14_2 H 0.2408(12) 0.8564(5) 0.6096(11) 0.0633 Uiso
H15_2 H 0.1047(12) 0.8478(5) 0.4650(11) 0.0633 Uiso
H28_2 H 0.2128(4) 0.9985(9) 0.0035(5) 0.0139 Uiso
Zn5_2 Zn 0.037(7) 0.854(4) 0.313(6) 0.0127 Uiso
Zn1 Zn 0.963(7) 0.146(4) 0.687(6) 0.0127 Uiso
C1_2 C 0.743(7) 0.215(4) 0.600(6) 0.0532 Uiso
H1_2 H 0.7470(2) 0.2424(3) 0.5468(4) 0.0532 Uiso
N1_2 N 0.6615(14) 0.21181(6) 0.6211(3) 0.0532 Uiso
C2_2 C 0.6862(14) 0.17402(6) 0.6912(3) 0.0532 Uiso
C3_2 C 0.6296(14) 0.15448(6) 0.7390(3) 0.0532 Uiso
C4_2 C 0.6733(14) 0.11432(6) 0.8106(3) 0.0532 Uiso
C5_2 C 0.7709(14) 0.09512(6) 0.8321(3) 0.0532 Uiso
C6_2 C 0.8259(14) 0.11586(6) 0.7821(3) 0.0532 Uiso
C7_2 C 0.7804(14) 0.15548(6) 0.7119(3) 0.0532 Uiso
N2_2 N 0.8172(14) 0.18148(6) 0.6547(3) 0.0532 Uiso
H2_2 H 0.5561(14) 0.17016(6) 0.7205(3) 0.0532 Uiso
H3_2 H 0.6317(14) 0.09848(6) 0.8487(3) 0.0532 Uiso
H4_2 H 0.8026(14) 0.06460(6) 0.8867(3) 0.0532 Uiso
H5_2 H 0.8996(14) 0.10092(6) 0.7992(3) 0.0532 Uiso
C23_2 C 0.9523(5) 0.1430(4) 0.2443(10) 0.0633 Uiso
C24_2 C 0.8925(5) 0.1075(4) 0.2751(10) 0.0633 Uiso
C25_2 C 0.8119(5) 0.0787(4) 0.2112(10) 0.0633 Uiso
C26_2 C 0.7937(5) 0.0860(4) 0.1197(10) 0.0633 Uiso
C27_2 C 0.8558(5) 0.1223(4) 0.0910(10) 0.0633 Uiso
C28_2 C 0.9347(5) 0.1500(4) 0.1559(10) 0.0633 Uiso
H17_2 H 0.9090(5) 0.1033(4) 0.3449(10) 0.0633 Uiso
H18_2 H 0.7646(5) 0.0512(4) 0.2328(10) 0.0633 Uiso
H19_2 H 0.7321(5) 0.0637(4) 0.0724(10) 0.0633 Uiso
H20_2 H 0.8410(5) 0.1273(4) 0.0215(10) 0.0633 Uiso
H21_2 H 0.78402(2) 0.3032(4) 0.03934(19) 0.0633 Uiso
N9_2 N 0.9219(16) 0.315804(11) 0.0256(5) 0.0633 Uiso
Zn7_2 Zn 0.531(7) 0.251(4) 0.560(6) 0.0127 Uiso
N14_2 N 0.9538(12) 0.0499(5) 0.6489(11) 0.0633 Uiso
C29_2 C 0.823(7) 0.316(4) 0.998(6) 0.0633 Uiso
C30_2 C 0.9414(16) 0.335304(11) 0.9551(5) 0.0633 Uiso
C33_2 C 0.9439(16) 0.377019(11) 0.7943(5) 0.0633 Uiso
C34_2 C 0.8539(16) 0.368378(11) 0.8049(5) 0.0633 Uiso
C35_2 C 0.8561(16) 0.347343(11) 0.8868(5) 0.0633 Uiso
N10_2 N 0.7804(16) 0.335548(11) 0.9132(5) 0.0633 Uiso
H24_2 H 0.9462(16) 0.393117(11) 0.7326(5) 0.0633 Uiso
H25_2 H 0.7877(16) 0.378015(11) 0.7508(5) 0.0633 Uiso
H26_2 H 0.9778(4) 0.24483(13) 0.814561(3) 0.0139 Uiso
Zn6_2 Zn 0.638(6) 0.364(4) 0.905(6) 0.0127 Uiso
C1_3 C 0.243(7) 0.285(4) 0.100(6) 0.0532 Uiso
H1_3 H 0.2470(2) 0.2576(3) 0.0468(4) 0.0532 Uiso
C2_3 C 0.1862(14) 0.32598(6) 0.1912(3) 0.0532 Uiso
C3_3 C 0.1296(14) 0.34552(6) 0.2390(3) 0.0532 Uiso
C4_3 C 0.1733(14) 0.38568(6) 0.3106(3) 0.0532 Uiso
C5_3 C 0.2709(14) 0.40488(6) 0.3321(3) 0.0532 Uiso
C6_3 C 0.3259(14) 0.38414(6) 0.2821(3) 0.0532 Uiso
C7_3 C 0.2804(14) 0.34452(6) 0.2119(3) 0.0532 Uiso
N2_3 N 0.3172(14) 0.31852(6) 0.1547(3) 0.0532 Uiso
H2_3 H 0.0561(14) 0.32984(6) 0.2205(3) 0.0532 Uiso
H3_3 H 0.1317(14) 0.40152(6) 0.3487(3) 0.0532 Uiso
H4_3 H 0.3026(14) 0.43540(6) 0.3867(3) 0.0532 Uiso
H5_3 H 0.3996(14) 0.39908(6) 0.2992(3) 0.0532 Uiso
C8_3 C 0.566(7) 0.352(4) 0.078(7) 0.0418 Uiso
H6_3 H 0.5513(6) 0.398447(16) 0.0883(5) 0.0418 Uiso
N3_3 N 0.5375(5) 0.3039(8) 0.1163(6) 0.0418 Uiso
C9_3 C 0.5691(5) 0.2542(8) 0.0860(6) 0.0418 Uiso
C10_3 C 0.5596(5) 0.1928(8) 0.1048(6) 0.0418 Uiso
C11_3 C 0.5997(5) 0.1489(8) 0.0640(6) 0.0418 Uiso
C12_3 C 0.6475(5) 0.1673(8) 0.0063(6) 0.0418 Uiso
C14_3 C 0.6152(5) 0.2720(8) 0.0303(6) 0.0418 Uiso
N4_3 N 0.6136(5) 0.3339(8) 0.0244(6) 0.0418 Uiso
H7_3 H 0.5229(5) 0.1809(8) 0.1489(6) 0.0418 Uiso
H8_3 H 0.5936(5) 0.1013(8) 0.0771(6) 0.0418 Uiso
C17_3 C 0.7416(12) 0.4964(5) 0.0389(11) 0.0633 Uiso
C18_3 C 0.7687(12) 0.5484(5) 0.0939(11) 0.0633 Uiso
C19_3 C 0.7189(12) 0.6046(5) 0.0668(11) 0.0633 Uiso
H12_3 H 0.7772(12) 0.4530(5) 0.0567(11) 0.0633 Uiso
H13_3 H 0.8274(12) 0.5450(5) 0.1564(11) 0.0633 Uiso
H14_3 H 0.7408(12) 0.6436(5) 0.1096(11) 0.0633 Uiso
N16_2 N 0.5405(4) 0.3447(9) 0.3278(5) 0.0139 Uiso
C13_3 C 0.6557(5) 0.2299(8) 0.9888(6) 0.0418 Uiso
H9_3 H 0.6774(5) 0.1332(8) 0.9760(6) 0.0418 Uiso
H10_3 H 0.6920(5) 0.2431(8) 0.9450(6) 0.0418 Uiso
C15_3 C 0.554(7) 0.491(5) 0.831(7) 0.0633 Uiso
H11_3 H 0.5084(4) 0.46933(10) 0.7704(3) 0.0633 Uiso
N5_3 N 0.6261(12) 0.4605(5) 0.8949(11) 0.0633 Uiso
C16_3 C 0.6649(12) 0.5028(5) 0.9581(11) 0.0633 Uiso
C20_3 C 0.6416(12) 0.6094(5) 0.9845(11) 0.0633 Uiso
C21_3 C 0.6169(12) 0.5570(5) 0.9319(11) 0.0633 Uiso
H15_3 H 0.6047(12) 0.6522(5) 0.9650(11) 0.0633 Uiso
C22_3 C 0.562(7) 0.299(5) 0.729(7) 0.0633 Uiso
H16_3 H 0.6252(3) 0.2707(3) 0.745407(13) 0.0633 Uiso
N7_3 N 0.5324(5) 0.3254(4) 0.7913(10) 0.0633 Uiso
C23_3 C 0.4523(5) 0.3570(4) 0.7443(10) 0.0633 Uiso
C24_3 C 0.3925(5) 0.3925(4) 0.7751(10) 0.0633 Uiso
C25_3 C 0.3119(5) 0.4213(4) 0.7112(10) 0.0633 Uiso
C26_3 C 0.2937(5) 0.4140(4) 0.6197(10) 0.0633 Uiso
C27_3 C 0.3558(5) 0.3777(4) 0.5910(10) 0.0633 Uiso
C28_3 C 0.4347(5) 0.3500(4) 0.6559(10) 0.0633 Uiso
N8_3 N 0.5040(5) 0.3134(4) 0.6454(10) 0.0633 Uiso
H17_3 H 0.4090(5) 0.3967(4) 0.8449(10) 0.0633 Uiso
H18_3 H 0.2646(5) 0.4488(4) 0.7328(10) 0.0633 Uiso
H19_3 H 0.2321(5) 0.4363(4) 0.5724(10) 0.0633 Uiso
H20_3 H 0.3410(5) 0.3727(4) 0.5215(10) 0.0633 Uiso
C29_3 C 0.323(7) 0.184(4) 0.498(6) 0.0633 Uiso
H21_3 H 0.28402(2) 0.1968(4) 0.53934(19) 0.0633 Uiso
N9_3 N 0.4219(16) 0.184196(11) 0.5256(5) 0.0633 Uiso
C30_3 C 0.4414(16) 0.164696(11) 0.4551(5) 0.0633 Uiso
C31_3 C 0.5317(16) 0.156700(11) 0.4471(5) 0.0633 Uiso
C32_3 C 0.5323(16) 0.135453(11) 0.3650(5) 0.0633 Uiso
C33_3 C 0.4439(16) 0.122981(11) 0.2943(5) 0.0633 Uiso
C34_3 C 0.3539(16) 0.131622(11) 0.3049(5) 0.0633 Uiso
C35_3 C 0.3561(16) 0.152657(11) 0.3868(5) 0.0633 Uiso
H22_3 H 0.5967(16) 0.166697(11) 0.5023(5) 0.0633 Uiso
H23_3 H 0.6006(16) 0.128840(11) 0.3568(5) 0.0633 Uiso
H24_3 H 0.4462(16) 0.106883(11) 0.2326(5) 0.0633 Uiso
H25_3 H 0.2877(16) 0.121985(11) 0.2508(5) 0.0633 Uiso
C36_3 C 0.518(5) 0.291(4) 0.358(5) 0.0139 Uiso
H26_3 H 0.4778(4) 0.25517(13) 0.314561(3) 0.0139 Uiso
C37_3 C 0.5907(4) 0.3759(9) 0.4016(5) 0.0139 Uiso
C38_3 C 0.6311(4) 0.4342(9) 0.4092(5) 0.0139 Uiso
C39_3 C 0.6809(4) 0.4568(9) 0.4954(5) 0.0139 Uiso
C40_3 C 0.6887(4) 0.4209(9) 0.5705(5) 0.0139 Uiso
C41_3 C 0.5982(4) 0.3412(9) 0.4741(5) 0.0139 Uiso
C42_3 C 0.6468(4) 0.3620(9) 0.5602(5) 0.0139 Uiso
N12_3 N 0.5525(4) 0.2870(9) 0.4471(5) 0.0139 Uiso
H27_3 H 0.6235(4) 0.4598(9) 0.3506(5) 0.0139 Uiso
H28_3 H 0.7128(4) 0.5015(9) 0.5035(5) 0.0139 Uiso
H29_3 H 0.7268(4) 0.4389(9) 0.6353(5) 0.0139 Uiso
H30_3 H 0.6534(4) 0.3354(9) 0.6177(5) 0.0139 Uiso
C29_4 C 0.177(7) 0.684(4) 0.002(6) 0.0633 Uiso
C30_4 C 0.0586(16) 0.664696(11) 0.0449(5) 0.0633 Uiso
C33_4 C 0.0561(16) 0.622981(11) 0.2057(5) 0.0633 Uiso
C34_4 C 0.1461(16) 0.631622(11) 0.1951(5) 0.0633 Uiso
C35_4 C 0.1439(16) 0.652657(11) 0.1132(5) 0.0633 Uiso
H24_4 H 0.0538(16) 0.606883(11) 0.2674(5) 0.0633 Uiso
H25_4 H 0.2123(16) 0.621985(11) 0.2492(5) 0.0633 Uiso
H26_4 H 0.0222(4) 0.75517(13) 0.185439(3) 0.0139 Uiso
C1_4 C 0.257(7) 0.785(4) 0.400(6) 0.0532 Uiso
H1_4 H 0.2530(2) 0.7576(3) 0.4532(4) 0.0532 Uiso
C2_4 C 0.3138(14) 0.82598(6) 0.3088(3) 0.0532 Uiso
C3_4 C 0.3704(14) 0.84552(6) 0.2610(3) 0.0532 Uiso
C4_4 C 0.3267(14) 0.88568(6) 0.1894(3) 0.0532 Uiso
C5_4 C 0.2291(14) 0.90488(6) 0.1679(3) 0.0532 Uiso
C6_4 C 0.1741(14) 0.88414(6) 0.2179(3) 0.0532 Uiso
C7_4 C 0.2196(14) 0.84452(6) 0.2881(3) 0.0532 Uiso
N2_4 N 0.1828(14) 0.81852(6) 0.3453(3) 0.0532 Uiso
H2_4 H 0.4439(14) 0.82984(6) 0.2795(3) 0.0532 Uiso
H3_4 H 0.3683(14) 0.90152(6) 0.1513(3) 0.0532 Uiso
H4_4 H 0.1974(14) 0.93540(6) 0.1133(3) 0.0532 Uiso
H5_4 H 0.1004(14) 0.89908(6) 0.2008(3) 0.0532 Uiso
C23_4 C 0.0477(5) 0.8570(4) 0.7557(10) 0.0633 Uiso
C24_4 C 0.1075(5) 0.8925(4) 0.7249(10) 0.0633 Uiso
C25_4 C 0.1881(5) 0.9213(4) 0.7888(10) 0.0633 Uiso
C26_4 C 0.2063(5) 0.9140(4) 0.8803(10) 0.0633 Uiso
C27_4 C 0.1442(5) 0.8777(4) 0.9090(10) 0.0633 Uiso
C28_4 C 0.0653(5) 0.8500(4) 0.8441(10) 0.0633 Uiso
H17_4 H 0.0910(5) 0.8967(4) 0.6551(10) 0.0633 Uiso
H18_4 H 0.2354(5) 0.9488(4) 0.7672(10) 0.0633 Uiso
H19_4 H 0.2679(5) 0.9363(4) 0.9276(10) 0.0633 Uiso
H20_4 H 0.1590(5) 0.8727(4) 0.9785(10) 0.0633 Uiso
H21_4 H 0.21598(2) 0.6968(4) 0.96066(19) 0.0633 Uiso
N9_4 N 0.0781(16) 0.684196(11) 0.9744(5) 0.0633 Uiso
C16_4 C 0.8351(12) 0.0028(5) 0.5419(11) 0.0633 Uiso
C18_4 C 0.7313(12) 0.0484(5) 0.4061(11) 0.0633 Uiso
C19_4 C 0.7811(12) 0.1046(5) 0.4332(11) 0.0633 Uiso
C20_4 C 0.8584(12) 0.1094(5) 0.5155(11) 0.0633 Uiso
C21_4 C 0.8831(12) 0.0570(5) 0.5681(11) 0.0633 Uiso
H13_4 H 0.6726(12) 0.0450(5) 0.3436(11) 0.0633 Uiso
H14_4 H 0.7592(12) 0.1436(5) 0.3904(11) 0.0633 Uiso
H15_4 H 0.8953(12) 0.1522(5) 0.5350(11) 0.0633 Uiso
H28_4 H 0.7872(4) 0.0015(9) 0.9965(5) 0.0139 Uiso
C31_4 C 0.9683(16) 0.656700(11) 0.0529(5) 0.0633 Uiso
C32_4 C 0.9677(16) 0.635453(11) 0.1350(5) 0.0633 Uiso
H23_4 H 0.8994(16) 0.628840(11) 0.1432(5) 0.0633 Uiso
C36_4 C 0.982(5) 0.791(4) 0.142(5) 0.0139 Uiso
N11_2 N 0.9595(4) 0.8447(9) 0.1722(5) 0.0139 Uiso
C37_4 C 0.9093(4) 0.8759(9) 0.0984(5) 0.0139 Uiso
C38_4 C 0.8689(4) 0.9342(9) 0.0908(5) 0.0139 Uiso
C39_4 C 0.8191(4) 0.9568(9) 0.0046(5) 0.0139 Uiso
C41_4 C 0.9018(4) 0.8412(9) 0.0259(5) 0.0139 Uiso
N12_4 N 0.9475(4) 0.7870(9) 0.0529(5) 0.0139 Uiso
H27_4 H 0.8765(4) 0.9598(9) 0.1494(5) 0.0139 Uiso
C8_4 C 0.934(7) 0.852(4) 0.422(7) 0.0418 Uiso
H6_4 H 0.9487(6) 0.898447(16) 0.4117(5) 0.0418 Uiso
N3_4 N 0.9625(5) 0.8039(8) 0.3837(6) 0.0418 Uiso
C9_4 C 0.9309(5) 0.7542(8) 0.4140(6) 0.0418 Uiso
C10_4 C 0.9404(5) 0.6928(8) 0.3952(6) 0.0418 Uiso
C11_4 C 0.9003(5) 0.6489(8) 0.4360(6) 0.0418 Uiso
C12_4 C 0.8525(5) 0.6673(8) 0.4937(6) 0.0418 Uiso
C13_4 C 0.8443(5) 0.7299(8) 0.5112(6) 0.0418 Uiso
C14_4 C 0.8848(5) 0.7720(8) 0.4697(6) 0.0418 Uiso
N4_4 N 0.8864(5) 0.8339(8) 0.4756(6) 0.0418 Uiso
H7_4 H 0.9771(5) 0.6809(8) 0.3511(6) 0.0418 Uiso
H8_4 H 0.9064(5) 0.6013(8) 0.4229(6) 0.0418 Uiso
H9_4 H 0.8226(5) 0.6332(8) 0.5240(6) 0.0418 Uiso
H10_4 H 0.8080(5) 0.7431(8) 0.5550(6) 0.0418 Uiso
C15_4 C 0.946(7) 0.991(5) 0.669(7) 0.0633 Uiso
H11_4 H 0.9916(4) 0.96933(10) 0.7296(3) 0.0633 Uiso
N5_4 N 0.8739(12) 0.9605(5) 0.6051(11) 0.0633 Uiso
C17_4 C 0.7584(12) 0.9964(5) 0.4611(11) 0.0633 Uiso
H12_4 H 0.7228(12) 0.9530(5) 0.4433(11) 0.0633 Uiso
C22_4 C 0.938(7) 0.799(5) 0.771(7) 0.0633 Uiso
H16_4 H 0.8748(3) 0.7707(3) 0.754593(13) 0.0633 Uiso
N7_4 N 0.9676(5) 0.8254(4) 0.7087(10) 0.0633 Uiso
N8_4 N 0.9960(5) 0.8134(4) 0.8546(10) 0.0633 Uiso
H22_4 H 0.9033(16) 0.666697(11) 0.9977(5) 0.0633 Uiso
C40_4 C 0.8113(4) 0.9209(9) 0.9295(5) 0.0139 Uiso
C42_4 C 0.8532(4) 0.8620(9) 0.9398(5) 0.0139 Uiso
H29_4 H 0.7732(4) 0.9389(9) 0.8647(5) 0.0139 Uiso
H30_4 H 0.8466(4) 0.8354(9) 0.8823(5) 0.0139 Uiso
loop_
_geom_bond_atom_site_label_1
_geom_bond_atom_site_label_2
_geom_bond_site_symmetry_1
_geom_bond_site_symmetry_2
Zn3 N8 1_555 1_555
H10 C13 1_555 1_555
C15 H11 1_555 1_555
N5 Zn2 1_555 1_555
C16 N5 1_555 1_555
C21 C16 1_555 1_555
N6 C15 1_555 1_555
H15 C20 1_555 1_555
C22 H16 1_555 1_555
N7 Zn2 1_555 1_555
C23 N7 1_555 1_555
C24 C23 1_555 1_555
C25 C24 1_555 1_555
C26 C25 1_555 1_555
C27 C26 1_555 1_555
C28 C23 1_555 1_555
N8 C22 1_555 1_555
H17 C24 1_555 1_555
H18 C25 1_555 1_555
H19 C26 1_555 1_555
H20 C27 1_555 1_555
C29 H21 1_555 1_555
N9 Zn3 1_555 1_555
C30 N9 1_555 1_555
C31 C30 1_555 1_555
C32 C31 1_555 1_555
C33 C32 1_555 1_555
C34 C33 1_555 1_555
C35 C30 1_555 1_555
N10 C29 1_555 1_555
H22 C31 1_555 1_555
H23 C32 1_555 1_555
H24 C33 1_555 1_555
H25 C34 1_555 1_555
C36 H26 1_555 1_555
N11 C36 1_555 1_555
C37 N11 1_555 1_555
C38 C37 1_555 1_555
C39 C38 1_555 1_555
C40 C39 1_555 1_555
C41 C37 1_555 1_555
C42 C40 1_555 1_555
N12 Zn3 1_555 1_555
H27 C38 1_555 1_555
H28 C39 1_555 1_555
H29 C40 1_555 1_555
H30 C42 1_555 1_555
Zn4 N11 1_555 1_555
Zn5 N6 1_555 1_555
Zn6 N10 1_555 1_555
N13 Zn3 1_555 1_555
N15 Zn2 1_555 1_555
C15 N5 1_555 1_555
C20 C21 1_555 1_555
C21 N6 1_555 1_555
C22 N7 1_555 1_555
C27 C28 1_555 1_555
C28 N8 1_555 1_555
C29 N9 1_555 1_555
C34 C35 1_555 1_555
C35 N10 1_555 1_555
C36 N12 1_555 1_555
C41 C42 1_555 1_555
C41 N12 1_555 1_555
Zn4 N2 1_555 1_555
C1 H1 1_555 1_555
N1 C1 1_555 1_555
C2 N1 1_555 1_555
C3 C2 1_555 1_555
C4 C3 1_555 1_555
C5 C4 1_555 1_555
C6 C5 1_555 1_555
C7 C2 1_555 1_555
N2 C1 1_555 1_555
H2 C3 1_555 1_555
H3 C4 1_555 1_555
H4 C5 1_555 1_555
H5 C6 1_555 1_555
C8 H6 1_555 1_555
N3 Zn4 1_555 1_555
C9 N3 1_555 1_555
C10 C9 1_555 1_555
C11 C10 1_555 1_555
C12 C11 1_555 1_555
C14 C9 1_555 1_555
N4 C8 1_555 1_555
H7 C10 1_555 1_555
H8 C11 1_555 1_555
C18 C17 1_555 1_555
C19 C18 1_555 1_555
H12 C17 1_555 1_555
H13 C18 1_555 1_555
H14 C19 1_555 1_555
Zn7 N1 1_555 1_555
N14 Zn4 1_555 1_555
C6 C7 1_555 1_555
C7 N2 1_555 1_555
C8 N3 1_555 1_555
C14 N4 1_555 1_555
Zn2_2 N4_2 1_555 1_555
Zn3_2 N8_2 1_555 1_555
C8_2 H6_2 1_555 1_555
C9_2 N3_2 1_555 1_555
C10_2 C9_2 1_555 1_555
C11_2 C10_2 1_555 1_555
C12_2 C11_2 1_555 1_555
C13_2 C12_2 1_555 1_555
C14_2 C9_2 1_555 1_555
N4_2 C8_2 1_555 1_555
H7_2 C10_2 1_555 1_555
H8_2 C11_2 1_555 1_555
H9_2 C12_2 1_555 1_555
H10_2 C13_2 1_555 1_555
C15_2 H11_2 1_555 1_555
N5_2 Zn2_2 1_555 1_555
H12_2 C17_2 1_555 1_555
C22_2 H16_2 1_555 1_555
N7_2 Zn2_2 1_555 1_555
N8_2 C22_2 1_555 1_555
C42_2 C40_2 1_555 1_555
H29_2 C40_2 1_555 1_555
H30_2 C42_2 1_555 1_555
N13_2 Zn3_2 1_555 1_555
N15_2 Zn2_2 1_555 1_555
C8_2 N3_2 1_555 1_555
C13_2 C14_2 1_555 1_555
C14_2 N4_2 1_555 1_555
C15_2 N5_2 1_555 1_555
C22_2 N7_2 1_555 1_555
C32_2 C31_2 1_555 1_555
H23_2 C32_2 1_555 1_555
N16 C36_2 1_555 1_555
C37_2 N16 1_555 1_555
C38_2 C37_2 1_555 1_555
C39_2 C38_2 1_555 1_555
C41_2 C37_2 1_555 1_555
H27_2 C38_2 1_555 1_555
C36_2 N12_2 1_555 1_555
C41_2 N12_2 1_555 1_555
C19_2 C18_2 1_555 1_555
C20_2 C19_2 1_555 1_555
C21_2 C16_2 1_555 1_555
H13_2 C18_2 1_555 1_555
H14_2 C19_2 1_555 1_555
H15_2 C20_2 1_555 1_555
Zn5_2 N6_2 1_555 1_555
C20_2 C21_2 1_555 1_555
C21_2 N6_2 1_555 1_555
Zn1 N2_2 1_555 1_555
C1_2 H1_2 1_555 1_555
N1_2 C1_2 1_555 1_555
C2_2 N1_2 1_555 1_555
C3_2 C2_2 1_555 1_555
C4_2 C3_2 1_555 1_555
C5_2 C4_2 1_555 1_555
C6_2 C5_2 1_555 1_555
C7_2 C2_2 1_555 1_555
N2_2 C1_2 1_555 1_555
H2_2 C3_2 1_555 1_555
H3_2 C4_2 1_555 1_555
H4_2 C5_2 1_555 1_555
H5_2 C6_2 1_555 1_555
C24_2 C23_2 1_555 1_555
C25_2 C24_2 1_555 1_555
C26_2 C25_2 1_555 1_555
C27_2 C26_2 1_555 1_555
C28_2 C23_2 1_555 1_555
H17_2 C24_2 1_555 1_555
H18_2 C25_2 1_555 1_555
H19_2 C26_2 1_555 1_555
H20_2 C27_2 1_555 1_555
Zn7_2 N1_2 1_555 1_555
N14_2 Zn1 1_555 1_555
C6_2 C7_2 1_555 1_555
C7_2 N2_2 1_555 1_555
C27_2 C28_2 1_555 1_555
C34_2 C33_2 1_555 1_555
C35_2 C30_2 1_555 1_555
N10_2 C29_2 1_555 1_555
H24_2 C33_2 1_555 1_555
H25_2 C34_2 1_555 1_555
Zn6_2 N10_2 1_555 1_555
C34_2 C35_2 1_555 1_555
C35_2 N10_2 1_555 1_555
Zn5 N2_3 1_555 1_555
C1_3 H1_3 1_555 1_555
N13_2 C1_3 1_555 1_555
C2_3 N13_2 1_555 1_555
C3_3 C2_3 1_555 1_555
C4_3 C3_3 1_555 1_555
C5_3 C4_3 1_555 1_555
C6_3 C5_3 1_555 1_555
C7_3 C2_3 1_555 1_555
N2_3 C1_3 1_555 1_555
H2_3 C3_3 1_555 1_555
H3_3 C4_3 1_555 1_555
H4_3 C5_3 1_555 1_555
H5_3 C6_3 1_555 1_555
C8_3 H6_3 1_555 1_555
N3_3 Zn5 1_555 1_555
C9_3 N3_3 1_555 1_555
C10_3 C9_3 1_555 1_555
C11_3 C10_3 1_555 1_555
C12_3 C11_3 1_555 1_555
C14_3 C9_3 1_555 1_555
N4_3 C8_3 1_555 1_555
H7_3 C10_3 1_555 1_555
H8_3 C11_3 1_555 1_555
C18_3 C17_3 1_555 1_555
C19_3 C18_3 1_555 1_555
H12_3 C17_3 1_555 1_555
H13_3 C18_3 1_555 1_555
H14_3 C19_3 1_555 1_555
N16_2 Zn5 1_555 1_555
C6_3 C7_3 1_555 1_555
C7_3 N2_3 1_555 1_555
C8_3 N3_3 1_555 1_555
C14_3 N4_3 1_555 1_555
Zn7_2 N8_3 1_555 1_555
H10_3 C13_3 1_555 1_555
C15_3 H11_3 1_555 1_555
N5_3 Zn6_2 1_555 1_555
C16_3 N5_3 1_555 1_555
C21_3 C16_3 1_555 1_555
N14 C15_3 1_555 1_555
H15_3 C20_3 1_555 1_555
C22_3 H16_3 1_555 1_555
N7_3 Zn6_2 1_555 1_555
C23_3 N7_3 1_555 1_555
C24_3 C23_3 1_555 1_555
C25_3 C24_3 1_555 1_555
C26_3 C25_3 1_555 1_555
C27_3 C26_3 1_555 1_555
C28_3 C23_3 1_555 1_555
N8_3 C22_3 1_555 1_555
H17_3 C24_3 1_555 1_555
H18_3 C25_3 1_555 1_555
H19_3 C26_3 1_555 1_555
H20_3 C27_3 1_555 1_555
C29_3 H21_3 1_555 1_555
N9_3 Zn7_2 1_555 1_555
C30_3 N9_3 1_555 1_555
C31_3 C30_3 1_555 1_555
C32_3 C31_3 1_555 1_555
C33_3 C32_3 1_555 1_555
C34_3 C33_3 1_555 1_555
C35_3 C30_3 1_555 1_555
N15_2 C29_3 1_555 1_555
H22_3 C31_3 1_555 1_555
H23_3 C32_3 1_555 1_555
H24_3 C33_3 1_555 1_555
H25_3 C34_3 1_555 1_555
C36_3 H26_3 1_555 1_555
N16_2 C36_3 1_555 1_555
C37_3 N16_2 1_555 1_555
C38_3 C37_3 1_555 1_555
C39_3 C38_3 1_555 1_555
C40_3 C39_3 1_555 1_555
C41_3 C37_3 1_555 1_555
C42_3 C40_3 1_555 1_555
N12_3 Zn7_2 1_555 1_555
H27_3 C38_3 1_555 1_555
H28_3 C39_3 1_555 1_555
H29_3 C40_3 1_555 1_555
H30_3 C42_3 1_555 1_555
C15_3 N5_3 1_555 1_555
C20_3 C21_3 1_555 1_555
C21_3 N14 1_555 1_555
C22_3 N7_3 1_555 1_555
C27_3 C28_3 1_555 1_555
C28_3 N8_3 1_555 1_555
C29_3 N9_3 1_555 1_555
C34_3 C35_3 1_555 1_555
C35_3 N15_2 1_555 1_555
C36_3 N12_3 1_555 1_555
C41_3 C42_3 1_555 1_555
C41_3 N12_3 1_555 1_555
C34_4 C33_4 1_555 1_555
C35_4 C30_4 1_555 1_555
N15 C29_4 1_555 1_555
H24_4 C33_4 1_555 1_555
H25_4 C34_4 1_555 1_555
C34_4 C35_4 1_555 1_555
C35_4 N15 1_555 1_555
Zn5_2 N2_4 1_555 1_555
C1_4 H1_4 1_555 1_555
N13 C1_4 1_555 1_555
C2_4 N13 1_555 1_555
C3_4 C2_4 1_555 1_555
C4_4 C3_4 1_555 1_555
C5_4 C4_4 1_555 1_555
C6_4 C5_4 1_555 1_555
C7_4 C2_4 1_555 1_555
N2_4 C1_4 1_555 1_555
H2_4 C3_4 1_555 1_555
H3_4 C4_4 1_555 1_555
H4_4 C5_4 1_555 1_555
H5_4 C6_4 1_555 1_555
C24_4 C23_4 1_555 1_555
C25_4 C24_4 1_555 1_555
C26_4 C25_4 1_555 1_555
C27_4 C26_4 1_555 1_555
C28_4 C23_4 1_555 1_555
H17_4 C24_4 1_555 1_555
H18_4 C25_4 1_555 1_555
H19_4 C26_4 1_555 1_555
H20_4 C27_4 1_555 1_555
C6_4 C7_4 1_555 1_555
C7_4 N2_4 1_555 1_555
C27_4 C28_4 1_555 1_555
C19_4 C18_4 1_555 1_555
C20_4 C19_4 1_555 1_555
C21_4 C16_4 1_555 1_555
H13_4 C18_4 1_555 1_555
H14_4 C19_4 1_555 1_555
H15_4 C20_4 1_555 1_555
C20_4 C21_4 1_555 1_555
C21_4 N14_2 1_555 1_555
C32_4 C31_4 1_555 1_555
H23_4 C32_4 1_555 1_555
N11_2 C36_4 1_555 1_555
C37_4 N11_2 1_555 1_555
C38_4 C37_4 1_555 1_555
C39_4 C38_4 1_555 1_555
C41_4 C37_4 1_555 1_555
H27_4 C38_4 1_555 1_555
C36_4 N12_4 1_555 1_555
C41_4 N12_4 1_555 1_555
Zn6 N4_4 1_555 1_555
Zn7 N8_4 1_555 1_555
C8_4 H6_4 1_555 1_555
C9_4 N3_4 1_555 1_555
C10_4 C9_4 1_555 1_555
C11_4 C10_4 1_555 1_555
C12_4 C11_4 1_555 1_555
C13_4 C12_4 1_555 1_555
C14_4 C9_4 1_555 1_555
N4_4 C8_4 1_555 1_555
H7_4 C10_4 1_555 1_555
H8_4 C11_4 1_555 1_555
H9_4 C12_4 1_555 1_555
H10_4 C13_4 1_555 1_555
C15_4 H11_4 1_555 1_555
N5_4 Zn6 1_555 1_555
H12_4 C17_4 1_555 1_555
C22_4 H16_4 1_555 1_555
N7_4 Zn6 1_555 1_555
N8_4 C22_4 1_555 1_555
C42_4 C40_4 1_555 1_555
H29_4 C40_4 1_555 1_555
H30_4 C42_4 1_555 1_555
C8_4 N3_4 1_555 1_555
C13_4 C14_4 1_555 1_555
C14_4 N4_4 1_555 1_555
C15_4 N5_4 1_555 1_555
C22_4 N7_4 1_555 1_555

#END
