
###############################################################################
#
# This file contains modified crystal structure data generated from the
# MOF subset of the Cambridge Structural Database (CSD) v543 
# hosted by the Cambridge Crystallographic Data Centre (CCDC).
#
# This work is licensed under the Creative Commons
# Attribution-NonCommercial-ShareAlike 4.0 International License.
# To view a copy of this license, visit
# http://creativecommons.org/licenses/by-nc-sa/4.0/
# or send a letter to
# Creative Commons, PO Box 1866, Mountain View, CA 94042, USA.
#
# CIF created using the CSD Python API on 29 September 2022
# The structure has been converted into the P1 space group
# The structure has a 3D framework
# The original CSD entry KALCUZ is in the monoclinic crystal system
# The framework has been calculated to contain at least 10.0% void space
# The void calculation uses a probe of radius 1.32A, grid spacing 0.4
#
###############################################################################

data_KALCUZ
_chemical_formula_moiety         '(C168 H122 N48 Zn12)n'
_symmetry_cell_setting           triclinic
_symmetry_space_group_name_H-M   'P 1'
_symmetry_Int_Tables_number      1
_space_group_name_Hall           'P 1'
loop_
_symmetry_equiv_pos_site_id
_symmetry_equiv_pos_as_xyz
1 x,y,z
_cell_length_a                   13.694(8)
_cell_length_b                   19.565(12)
_cell_length_c                   16.955(10)
_cell_angle_alpha                90
_cell_angle_beta                 105.86(5)
_cell_angle_gamma                90
_cell_volume                     4369.71
loop_
_atom_site_label
_atom_site_type_symbol
_atom_site_fract_x
_atom_site_fract_y
_atom_site_fract_z
_atom_site_U_iso_or_equiv
_atom_site_thermal_displace_type
Zn7 Zn 0.025(10) 0.775(5) 0.019(6) 0.0127 Uiso
Zn2 Zn 0.426(10) 0.645(5) 0.170(6) 0.0127 Uiso
Zn3 Zn 0.525(10) 0.725(5) 0.519(6) 0.0127 Uiso
H1 H 0.788(19) 0.763(12) 0.010(15) 0.0127 Uiso
C8 C 0.516(11) 0.659(5) 0.034(10) 0.0380 Uiso
H6 H 0.50(2) 0.606(12) 0.022(18) 0.0380 Uiso
C9 C 0.5510(3) 0.7633(6) 0.0163(7) 0.0380 Uiso
C11 C 0.5820(3) 0.8830(6) 0.0388(7) 0.0380 Uiso
C12 C 0.5629(3) 0.8765(6) 0.1164(7) 0.0380 Uiso
C13 C 0.5377(3) 0.8124(6) 0.1435(7) 0.0380 Uiso
C14 C 0.5326(3) 0.7569(6) 0.0911(7) 0.0380 Uiso
N4 N 0.5102(3) 0.6909(6) 0.1029(7) 0.0380 Uiso
H8 H 0.6011(3) 0.9317(6) 0.0185(7) 0.0380 Uiso
H9 H 0.5678(3) 0.9207(6) 0.1543(7) 0.0380 Uiso
H10 H 0.5234(3) 0.8083(6) 0.2023(7) 0.0380 Uiso
C15 C 0.419(11) 0.484(8) 0.152(8) 0.0127 Uiso
H11 H 0.470(17) 0.470(13) 0.210(13) 0.0127 Uiso
N5 N 0.41017(12) 0.5485(9) 0.1223(4) 0.0127 Uiso
C16 C 0.33922(12) 0.5441(9) 0.0501(4) 0.0127 Uiso
C21 C 0.30660(12) 0.4780(9) 0.0372(4) 0.0127 Uiso
N6 N 0.35685(12) 0.4391(9) 0.1016(4) 0.0127 Uiso
H12 H 0.32845(12) 0.6469(9) 0.0064(4) 0.0127 Uiso
C22 C 0.448(8) 0.653(6) 0.367(9) 0.0127 Uiso
H16 H 0.373(13) 0.669(12) 0.363(14) 0.0127 Uiso
N7 N 0.4812(5) 0.63952(18) 0.2997(9) 0.0127 Uiso
C23 C 0.5785(5) 0.62065(18) 0.3303(9) 0.0127 Uiso
C24 C 0.6483(5) 0.60150(18) 0.2882(9) 0.0127 Uiso
C25 C 0.7467(5) 0.58381(18) 0.3353(9) 0.0127 Uiso
C26 C 0.7721(5) 0.58575(18) 0.4220(9) 0.0127 Uiso
C27 C 0.6994(5) 0.60539(18) 0.4625(9) 0.0127 Uiso
C28 C 0.6030(5) 0.62252(18) 0.4140(9) 0.0127 Uiso
N8 N 0.5209(5) 0.64279(18) 0.4379(9) 0.0127 Uiso
H17 H 0.6258(5) 0.60076(18) 0.2226(9) 0.0127 Uiso
H18 H 0.8021(5) 0.56887(18) 0.3048(9) 0.0127 Uiso
H19 H 0.8473(5) 0.57210(18) 0.4565(9) 0.0127 Uiso
H20 H 0.7198(5) 0.60660(18) 0.5281(9) 0.0127 Uiso
C29 C 0.738(12) 0.771(8) 0.571(9) 0.0380 Uiso
H21 H 0.773(17) 0.725(14) 0.557(19) 0.0380 Uiso
N9 N 0.6430(13) 0.7907(3) 0.5296(6) 0.0380 Uiso
C30 C 0.6279(13) 0.8490(3) 0.5664(6) 0.0380 Uiso
C31 C 0.5426(13) 0.8909(3) 0.5482(6) 0.0380 Uiso
C32 C 0.5462(13) 0.9499(3) 0.5967(6) 0.0380 Uiso
C33 C 0.6338(13) 0.9649(3) 0.6611(6) 0.0380 Uiso
C34 C 0.7188(13) 0.9212(3) 0.6777(6) 0.0380 Uiso
C35 C 0.7125(13) 0.8635(3) 0.6286(6) 0.0380 Uiso
N10 N 0.7831(13) 0.8142(3) 0.6322(6) 0.0380 Uiso
H22 H 0.4780(13) 0.8776(3) 0.4989(6) 0.0380 Uiso
H23 H 0.4818(13) 0.9832(3) 0.5842(6) 0.0380 Uiso
H25 H 0.7844(13) 0.9333(3) 0.7266(6) 0.0380 Uiso
C36 C 0.562(9) 0.727(5) 0.714(7) 0.0127 Uiso
H26 H 0.620(17) 0.765(11) 0.728(14) 0.0127 Uiso
N11 N 0.5243(5) 0.6966(4) 0.7712(8) 0.0127 Uiso
C37 C 0.4548(5) 0.6523(4) 0.7289(8) 0.0127 Uiso
C38 C 0.3930(5) 0.6080(4) 0.7580(8) 0.0127 Uiso
C39 C 0.3256(5) 0.5662(4) 0.7002(8) 0.0127 Uiso
C40 C 0.3219(5) 0.5699(4) 0.6161(8) 0.0127 Uiso
C41 C 0.4512(5) 0.6558(4) 0.6477(8) 0.0127 Uiso
C42 C 0.3856(5) 0.6154(4) 0.5889(8) 0.0127 Uiso
N12 N 0.5191(5) 0.7029(4) 0.6372(8) 0.0127 Uiso
H27 H 0.3983(5) 0.6069(4) 0.8221(8) 0.0127 Uiso
H28 H 0.2771(5) 0.5317(4) 0.7207(8) 0.0127 Uiso
H29 H 0.2701(5) 0.5377(4) 0.5733(8) 0.0127 Uiso
H30 H 0.3819(5) 0.6176(4) 0.5251(8) 0.0127 Uiso
Zn4 Zn 0.604(10) 0.666(7) 0.887(9) 0.0127 Uiso
Zn5 Zn 0.396(10) 0.334(7) 0.113(9) 0.0127 Uiso
Zn6 Zn 0.926(10) 0.855(5) 0.670(6) 0.0127 Uiso
N13 N 0.4018(13) 0.7823(2) 0.461477(5) 0.0127 Uiso
N15 N 0.2831(13) 0.6858(3) 0.1322(6) 0.0380 Uiso
C1 C 0.806(9) 0.735(7) 0.961(8) 0.0127 Uiso
N1 N 0.9018(13) 0.7177(2) 0.961477(5) 0.0127 Uiso
C2 C 0.8912(13) 0.6841(2) 0.890643(5) 0.0127 Uiso
C3 C 0.9662(13) 0.6551(2) 0.859984(5) 0.0127 Uiso
C4 C 0.9348(13) 0.6223(2) 0.783210(5) 0.0127 Uiso
C5 C 0.8307(13) 0.6195(2) 0.739890(5) 0.0127 Uiso
C6 C 0.7569(13) 0.6494(2) 0.772877(5) 0.0127 Uiso
C7 C 0.7907(13) 0.6814(2) 0.848828(5) 0.0127 Uiso
N2 N 0.7355(13) 0.7135(2) 0.892927(5) 0.0127 Uiso
H3 H 0.9906(13) 0.5995(2) 0.757976(5) 0.0127 Uiso
H4 H 0.8085(13) 0.5943(2) 0.681687(5) 0.0127 Uiso
H5 H 0.6785(13) 0.6468(2) 0.739364(5) 0.0127 Uiso
N3 N 0.5408(3) 0.7020(6) 0.9793(7) 0.0380 Uiso
C10 C 0.5761(3) 0.8257(6) 0.9875(7) 0.0380 Uiso
H7 H 0.5899(3) 0.8283(6) 0.9284(7) 0.0380 Uiso
C17 C 0.30070(12) 0.5958(9) 0.9938(4) 0.0127 Uiso
C18 C 0.22577(12) 0.5776(9) 0.9218(4) 0.0127 Uiso
C19 C 0.19197(12) 0.5091(9) 0.9084(4) 0.0127 Uiso
C20 C 0.23274(12) 0.4582(9) 0.9668(4) 0.0127 Uiso
H13 H 0.19464(12) 0.6162(9) 0.8773(4) 0.0127 Uiso
H14 H 0.13499(12) 0.4965(9) 0.8533(4) 0.0127 Uiso
H15 H 0.20639(12) 0.4066(9) 0.9558(4) 0.0127 Uiso
N14 N 0.64315(12) 0.5609(9) 0.8984(4) 0.0127 Uiso
Zn2_2 Zn 0.074(10) 0.145(5) 0.330(6) 0.0127 Uiso
H6_2 H 0.00(2) 0.106(12) 0.478(18) 0.0380 Uiso
N5_2 N 0.08983(12) 0.0485(9) 0.3777(4) 0.0127 Uiso
C16_2 C 0.16078(12) 0.0441(9) 0.4499(4) 0.0127 Uiso
C17_2 C 0.19930(12) 0.0958(9) 0.5062(4) 0.0127 Uiso
C18_2 C 0.27423(12) 0.0776(9) 0.5782(4) 0.0127 Uiso
C19_2 C 0.30803(12) 0.0091(9) 0.5916(4) 0.0127 Uiso
H12_2 H 0.17155(12) 0.1469(9) 0.4936(4) 0.0127 Uiso
H13_2 H 0.30536(12) 0.1162(9) 0.6227(4) 0.0127 Uiso
C22_2 C 0.052(8) 0.153(6) 0.133(9) 0.0127 Uiso
H16_2 H 0.127(13) 0.169(12) 0.137(14) 0.0127 Uiso
N7_2 N 0.0188(5) 0.13952(18) 0.2003(9) 0.0127 Uiso
H22_2 H 0.0220(13) 0.3776(3) 0.0011(6) 0.0380 Uiso
N13_2 N 0.0982(13) 0.2823(2) 0.038523(5) 0.0127 Uiso
N15_2 N 0.2169(13) 0.1858(3) 0.3678(6) 0.0380 Uiso
C15_2 C 0.081(11) 0.984(8) 0.348(8) 0.0127 Uiso
H11_2 H 0.030(17) 0.970(13) 0.290(13) 0.0127 Uiso
C20_2 C 0.26726(12) 0.9582(9) 0.5332(4) 0.0127 Uiso
C21_2 C 0.19340(12) 0.9780(9) 0.4628(4) 0.0127 Uiso
N6_2 N 0.14315(12) 0.9391(9) 0.3984(4) 0.0127 Uiso
H14_2 H 0.36501(12) 0.9965(9) 0.6467(4) 0.0127 Uiso
H15_2 H 0.29361(12) 0.9066(9) 0.5442(4) 0.0127 Uiso
Zn5_2 Zn 0.104(10) 0.834(7) 0.387(9) 0.0127 Uiso
Zn1 Zn 0.896(10) 0.166(7) 0.613(9) 0.0127 Uiso
C1_2 C 0.694(9) 0.235(7) 0.539(8) 0.0127 Uiso
H1_2 H 0.712(19) 0.263(12) 0.490(15) 0.0127 Uiso
N1_2 N 0.5982(13) 0.2177(2) 0.538523(5) 0.0127 Uiso
C2_2 C 0.6088(13) 0.1841(2) 0.609357(5) 0.0127 Uiso
C3_2 C 0.5338(13) 0.1551(2) 0.640016(5) 0.0127 Uiso
C4_2 C 0.5652(13) 0.1223(2) 0.716790(5) 0.0127 Uiso
C5_2 C 0.6693(13) 0.1195(2) 0.760110(5) 0.0127 Uiso
C6_2 C 0.7431(13) 0.1494(2) 0.727123(5) 0.0127 Uiso
C7_2 C 0.7093(13) 0.1814(2) 0.651172(5) 0.0127 Uiso
N2_2 N 0.7645(13) 0.2135(2) 0.607073(5) 0.0127 Uiso
H2 H 0.4560(13) 0.1585(2) 0.605180(5) 0.0127 Uiso
H3_2 H 0.5094(13) 0.0995(2) 0.742024(5) 0.0127 Uiso
H4_2 H 0.6915(13) 0.0943(2) 0.818313(5) 0.0127 Uiso
H5_2 H 0.8215(13) 0.1468(2) 0.760636(5) 0.0127 Uiso
C8_2 C 0.984(11) 0.159(5) 0.466(10) 0.0380 Uiso
H6_3 H 1.00(2) 0.106(12) 0.478(18) 0.0380 Uiso
N3_2 N 0.9592(3) 0.2020(6) 0.5207(7) 0.0380 Uiso
C9_2 C 0.9490(3) 0.2633(6) 0.4837(7) 0.0380 Uiso
C10_2 C 0.9239(3) 0.3257(6) 0.5125(7) 0.0380 Uiso
C11_2 C 0.9180(3) 0.3830(6) 0.4612(7) 0.0380 Uiso
C12_2 C 0.9371(3) 0.3765(6) 0.3836(7) 0.0380 Uiso
C13_2 C 0.9623(3) 0.3124(6) 0.3565(7) 0.0380 Uiso
C14_2 C 0.9674(3) 0.2569(6) 0.4089(7) 0.0380 Uiso
N4_2 N 0.9898(3) 0.1909(6) 0.3971(7) 0.0380 Uiso
H7_2 H 0.9101(3) 0.3283(6) 0.5716(7) 0.0380 Uiso
H8_2 H 0.8989(3) 0.4317(6) 0.4815(7) 0.0380 Uiso
H9_2 H 0.9322(3) 0.4207(6) 0.3457(7) 0.0380 Uiso
H10_2 H 0.9766(3) 0.3083(6) 0.2977(7) 0.0380 Uiso
C23_2 C 0.9215(5) 0.12065(18) 0.1697(9) 0.0127 Uiso
C24_2 C 0.8517(5) 0.10150(18) 0.2118(9) 0.0127 Uiso
C25_2 C 0.7533(5) 0.08381(18) 0.1647(9) 0.0127 Uiso
C26_2 C 0.7279(5) 0.08575(18) 0.0780(9) 0.0127 Uiso
C27_2 C 0.8006(5) 0.10539(18) 0.0375(9) 0.0127 Uiso
C28_2 C 0.8970(5) 0.12252(18) 0.0860(9) 0.0127 Uiso
N8_2 N 0.9791(5) 0.14279(18) 0.0621(9) 0.0127 Uiso
H17_2 H 0.8742(5) 0.10076(18) 0.2774(9) 0.0127 Uiso
H18_2 H 0.6979(5) 0.06887(18) 0.1952(9) 0.0127 Uiso
H19_2 H 0.6527(5) 0.07210(18) 0.0435(9) 0.0127 Uiso
Zn7_2 Zn 0.475(10) 0.275(5) 0.481(6) 0.0127 Uiso
N14_2 N 0.85685(12) 0.0609(9) 0.6016(4) 0.0127 Uiso
N16 N 0.9757(5) 0.1966(4) 0.7288(8) 0.0127 Uiso
Zn3_2 Zn 0.975(10) 0.225(5) 0.981(6) 0.0127 Uiso
H20_2 H 0.7802(5) 0.10660(18) 0.9719(9) 0.0127 Uiso
C29_2 C 0.762(12) 0.271(8) 0.929(9) 0.0380 Uiso
H21_2 H 0.727(17) 0.225(14) 0.943(19) 0.0380 Uiso
N9_2 N 0.8570(13) 0.2907(3) 0.9704(6) 0.0380 Uiso
C30_2 C 0.8721(13) 0.3490(3) 0.9336(6) 0.0380 Uiso
C31_2 C 0.9574(13) 0.3909(3) 0.9518(6) 0.0380 Uiso
C32_2 C 0.9538(13) 0.4499(3) 0.9033(6) 0.0380 Uiso
C33_2 C 0.8662(13) 0.4649(3) 0.8389(6) 0.0380 Uiso
C34_2 C 0.7812(13) 0.4212(3) 0.8223(6) 0.0380 Uiso
C35_2 C 0.7875(13) 0.3635(3) 0.8714(6) 0.0380 Uiso
N10_2 N 0.7169(13) 0.3142(3) 0.8678(6) 0.0380 Uiso
H24 H 0.8652(13) 0.5100(3) 0.8029(6) 0.0380 Uiso
H25_2 H 0.7156(13) 0.4333(3) 0.7734(6) 0.0380 Uiso
C36_2 C 0.938(9) 0.227(5) 0.786(7) 0.0127 Uiso
H26_2 H 0.880(17) 0.265(11) 0.772(14) 0.0127 Uiso
N12_2 N 0.9809(5) 0.2029(4) 0.8628(8) 0.0127 Uiso
Zn6_2 Zn 0.574(10) 0.355(5) 0.830(6) 0.0127 Uiso
C1_3 C 0.194(9) 0.265(7) 0.039(8) 0.0127 Uiso
C2_3 C 0.1088(13) 0.3159(2) 0.109357(5) 0.0127 Uiso
C3_3 C 0.0338(13) 0.3449(2) 0.140016(5) 0.0127 Uiso
C4_3 C 0.0652(13) 0.3777(2) 0.216790(5) 0.0127 Uiso
C5_3 C 0.1693(13) 0.3805(2) 0.260110(5) 0.0127 Uiso
C6_3 C 0.2431(13) 0.3506(2) 0.227123(5) 0.0127 Uiso
C7_3 C 0.2093(13) 0.3186(2) 0.151172(5) 0.0127 Uiso
N2_3 N 0.2645(13) 0.2865(2) 0.107073(5) 0.0127 Uiso
H3_3 H 0.0094(13) 0.4005(2) 0.242024(5) 0.0127 Uiso
H4_3 H 0.1915(13) 0.4057(2) 0.318313(5) 0.0127 Uiso
H5_3 H 0.3215(13) 0.3532(2) 0.260636(5) 0.0127 Uiso
N3_3 N 0.4592(3) 0.2980(6) 0.0207(7) 0.0380 Uiso
C10_3 C 0.4239(3) 0.1743(6) 0.0125(7) 0.0380 Uiso
H7_3 H 0.4101(3) 0.1717(6) 0.0716(7) 0.0380 Uiso
C17_3 C 0.69930(12) 0.4042(9) 0.0062(4) 0.0127 Uiso
C18_3 C 0.77423(12) 0.4224(9) 0.0782(4) 0.0127 Uiso
C19_3 C 0.80803(12) 0.4909(9) 0.0916(4) 0.0127 Uiso
C20_3 C 0.76726(12) 0.5418(9) 0.0332(4) 0.0127 Uiso
H13_3 H 0.80536(12) 0.3838(9) 0.1227(4) 0.0127 Uiso
H14_3 H 0.86501(12) 0.5035(9) 0.1467(4) 0.0127 Uiso
H15_3 H 0.79361(12) 0.5934(9) 0.0442(4) 0.0127 Uiso
N16_2 N 0.4757(5) 0.3034(4) 0.2288(8) 0.0127 Uiso
H1_3 H 0.212(19) 0.237(12) 0.990(15) 0.0127 Uiso
C8_3 C 0.484(11) 0.341(5) 0.966(10) 0.0380 Uiso
H6_4 H 0.50(2) 0.394(12) 0.978(18) 0.0380 Uiso
C9_3 C 0.4490(3) 0.2367(6) 0.9837(7) 0.0380 Uiso
C11_3 C 0.4180(3) 0.1170(6) 0.9612(7) 0.0380 Uiso
C12_3 C 0.4371(3) 0.1235(6) 0.8836(7) 0.0380 Uiso
C13_3 C 0.4623(3) 0.1876(6) 0.8565(7) 0.0380 Uiso
C14_3 C 0.4674(3) 0.2431(6) 0.9089(7) 0.0380 Uiso
N4_3 N 0.4898(3) 0.3091(6) 0.8971(7) 0.0380 Uiso
H8_3 H 0.3989(3) 0.0683(6) 0.9815(7) 0.0380 Uiso
H9_3 H 0.4322(3) 0.0793(6) 0.8457(7) 0.0380 Uiso
H10_3 H 0.4766(3) 0.1917(6) 0.7977(7) 0.0380 Uiso
C15_3 C 0.581(11) 0.516(8) 0.848(8) 0.0127 Uiso
H11_3 H 0.530(17) 0.530(13) 0.790(13) 0.0127 Uiso
N5_3 N 0.58983(12) 0.4515(9) 0.8777(4) 0.0127 Uiso
C16_3 C 0.66078(12) 0.4559(9) 0.9499(4) 0.0127 Uiso
C21_3 C 0.69340(12) 0.5220(9) 0.9628(4) 0.0127 Uiso
H12_3 H 0.67155(12) 0.3531(9) 0.9936(4) 0.0127 Uiso
C22_3 C 0.552(8) 0.347(6) 0.633(9) 0.0127 Uiso
H16_3 H 0.627(13) 0.331(12) 0.637(14) 0.0127 Uiso
N7_3 N 0.5188(5) 0.36048(18) 0.7003(9) 0.0127 Uiso
C23_3 C 0.4215(5) 0.37935(18) 0.6697(9) 0.0127 Uiso
C24_3 C 0.3517(5) 0.39850(18) 0.7118(9) 0.0127 Uiso
C25_3 C 0.2533(5) 0.41619(18) 0.6647(9) 0.0127 Uiso
C26_3 C 0.2279(5) 0.41425(18) 0.5780(9) 0.0127 Uiso
C27_3 C 0.3006(5) 0.39461(18) 0.5375(9) 0.0127 Uiso
C28_3 C 0.3970(5) 0.37748(18) 0.5860(9) 0.0127 Uiso
N8_3 N 0.4791(5) 0.35721(18) 0.5621(9) 0.0127 Uiso
H17_3 H 0.3742(5) 0.39924(18) 0.7774(9) 0.0127 Uiso
H18_3 H 0.1979(5) 0.43113(18) 0.6952(9) 0.0127 Uiso
H19_3 H 0.1527(5) 0.42790(18) 0.5435(9) 0.0127 Uiso
H20_3 H 0.2802(5) 0.39340(18) 0.4719(9) 0.0127 Uiso
C29_3 C 0.262(12) 0.229(8) 0.429(9) 0.0380 Uiso
H21_3 H 0.227(17) 0.275(14) 0.443(19) 0.0380 Uiso
N9_3 N 0.3570(13) 0.2093(3) 0.4704(6) 0.0380 Uiso
C30_3 C 0.3721(13) 0.1510(3) 0.4336(6) 0.0380 Uiso
C31_3 C 0.4574(13) 0.1091(3) 0.4518(6) 0.0380 Uiso
C32_3 C 0.4538(13) 0.0501(3) 0.4033(6) 0.0380 Uiso
C33_3 C 0.3662(13) 0.0351(3) 0.3389(6) 0.0380 Uiso
C34_3 C 0.2812(13) 0.0788(3) 0.3223(6) 0.0380 Uiso
C35_3 C 0.2875(13) 0.1365(3) 0.3714(6) 0.0380 Uiso
H22_3 H 0.5220(13) 0.1224(3) 0.5011(6) 0.0380 Uiso
H23_2 H 0.5182(13) 0.0168(3) 0.4158(6) 0.0380 Uiso
H25_3 H 0.2156(13) 0.0667(3) 0.2734(6) 0.0380 Uiso
C36_3 C 0.438(9) 0.273(5) 0.286(7) 0.0127 Uiso
H26_3 H 0.380(17) 0.235(11) 0.272(14) 0.0127 Uiso
C37_2 C 0.5452(5) 0.3477(4) 0.2711(8) 0.0127 Uiso
C38_2 C 0.6070(5) 0.3920(4) 0.2420(8) 0.0127 Uiso
C39_2 C 0.6744(5) 0.4338(4) 0.2998(8) 0.0127 Uiso
C40_2 C 0.6781(5) 0.4301(4) 0.3839(8) 0.0127 Uiso
C41_2 C 0.5488(5) 0.3442(4) 0.3523(8) 0.0127 Uiso
C42_2 C 0.6144(5) 0.3846(4) 0.4111(8) 0.0127 Uiso
N12_3 N 0.4809(5) 0.2971(4) 0.3628(8) 0.0127 Uiso
H27_2 H 0.6017(5) 0.3931(4) 0.1779(8) 0.0127 Uiso
H28_2 H 0.7229(5) 0.4683(4) 0.2793(8) 0.0127 Uiso
H29_2 H 0.7299(5) 0.4623(4) 0.4267(8) 0.0127 Uiso
H30_2 H 0.6181(5) 0.3824(4) 0.4749(8) 0.0127 Uiso
H20_4 H 0.2198(5) 0.89340(18) 0.0281(9) 0.0127 Uiso
C29_4 C 0.238(12) 0.729(8) 0.071(9) 0.0380 Uiso
H21_4 H 0.273(17) 0.775(14) 0.057(19) 0.0380 Uiso
N9_4 N 0.1430(13) 0.7093(3) 0.0296(6) 0.0380 Uiso
C30_4 C 0.1279(13) 0.6510(3) 0.0664(6) 0.0380 Uiso
C31_4 C 0.0426(13) 0.6091(3) 0.0482(6) 0.0380 Uiso
C32_4 C 0.0462(13) 0.5501(3) 0.0967(6) 0.0380 Uiso
C33_4 C 0.1338(13) 0.5351(3) 0.1611(6) 0.0380 Uiso
C34_4 C 0.2188(13) 0.5788(3) 0.1777(6) 0.0380 Uiso
C35_4 C 0.2125(13) 0.6365(3) 0.1286(6) 0.0380 Uiso
H24_2 H 0.1348(13) 0.4900(3) 0.1971(6) 0.0380 Uiso
H25_4 H 0.2844(13) 0.5667(3) 0.2266(6) 0.0380 Uiso
C36_4 C 0.062(9) 0.773(5) 0.214(7) 0.0127 Uiso
H26_4 H 0.120(17) 0.735(11) 0.228(14) 0.0127 Uiso
N11_2 N 0.0243(5) 0.8034(4) 0.2712(8) 0.0127 Uiso
N12_4 N 0.0191(5) 0.7971(4) 0.1372(8) 0.0127 Uiso
C1_4 C 0.306(9) 0.765(7) 0.461(8) 0.0127 Uiso
H1_4 H 0.288(19) 0.737(12) 0.510(15) 0.0127 Uiso
C2_4 C 0.3912(13) 0.8159(2) 0.390643(5) 0.0127 Uiso
C3_4 C 0.4662(13) 0.8449(2) 0.359984(5) 0.0127 Uiso
C4_4 C 0.4348(13) 0.8777(2) 0.283210(5) 0.0127 Uiso
C5_4 C 0.3307(13) 0.8805(2) 0.239890(5) 0.0127 Uiso
C6_4 C 0.2569(13) 0.8506(2) 0.272877(5) 0.0127 Uiso
C7_4 C 0.2907(13) 0.8186(2) 0.348828(5) 0.0127 Uiso
N2_4 N 0.2355(13) 0.7865(2) 0.392927(5) 0.0127 Uiso
H2_2 H 0.5440(13) 0.8415(2) 0.394820(5) 0.0127 Uiso
H3_4 H 0.4906(13) 0.9005(2) 0.257976(5) 0.0127 Uiso
H4_4 H 0.3085(13) 0.9057(2) 0.181687(5) 0.0127 Uiso
H5_4 H 0.1785(13) 0.8532(2) 0.239364(5) 0.0127 Uiso
C8_4 C 0.016(11) 0.841(5) 0.534(10) 0.0380 Uiso
H6_5 H 0.00(2) 0.894(12) 0.522(18) 0.0380 Uiso
N3_4 N 0.0408(3) 0.7980(6) 0.4793(7) 0.0380 Uiso
C9_4 C 0.0510(3) 0.7367(6) 0.5163(7) 0.0380 Uiso
C10_4 C 0.0761(3) 0.6743(6) 0.4875(7) 0.0380 Uiso
C11_4 C 0.0820(3) 0.6170(6) 0.5388(7) 0.0380 Uiso
C12_4 C 0.0629(3) 0.6235(6) 0.6164(7) 0.0380 Uiso
C13_4 C 0.0377(3) 0.6876(6) 0.6435(7) 0.0380 Uiso
C14_4 C 0.0326(3) 0.7431(6) 0.5911(7) 0.0380 Uiso
N4_4 N 0.0102(3) 0.8091(6) 0.6029(7) 0.0380 Uiso
H7_4 H 0.0899(3) 0.6717(6) 0.4284(7) 0.0380 Uiso
H8_4 H 0.1011(3) 0.5683(6) 0.5185(7) 0.0380 Uiso
H9_4 H 0.0678(3) 0.5793(6) 0.6543(7) 0.0380 Uiso
H10_4 H 0.0234(3) 0.6917(6) 0.7023(7) 0.0380 Uiso
C23_4 C 0.0785(5) 0.87935(18) 0.8303(9) 0.0127 Uiso
C24_4 C 0.1483(5) 0.89850(18) 0.7882(9) 0.0127 Uiso
C25_4 C 0.2467(5) 0.91619(18) 0.8353(9) 0.0127 Uiso
C26_4 C 0.2721(5) 0.91425(18) 0.9220(9) 0.0127 Uiso
C27_4 C 0.1994(5) 0.89461(18) 0.9625(9) 0.0127 Uiso
C28_4 C 0.1030(5) 0.87748(18) 0.9140(9) 0.0127 Uiso
N8_4 N 0.0209(5) 0.85721(18) 0.9379(9) 0.0127 Uiso
H17_4 H 0.1258(5) 0.89924(18) 0.7226(9) 0.0127 Uiso
H18_4 H 0.3021(5) 0.93113(18) 0.8048(9) 0.0127 Uiso
H19_4 H 0.3473(5) 0.92790(18) 0.9565(9) 0.0127 Uiso
C15_4 C 0.919(11) 0.016(8) 0.652(8) 0.0127 Uiso
H11_4 H 0.970(17) 0.030(13) 0.710(13) 0.0127 Uiso
C20_4 C 0.73274(12) 0.0418(9) 0.4668(4) 0.0127 Uiso
C21_4 C 0.80660(12) 0.0220(9) 0.5372(4) 0.0127 Uiso
H14_4 H 0.63499(12) 0.0035(9) 0.3533(4) 0.0127 Uiso
H15_4 H 0.70639(12) 0.0934(9) 0.4558(4) 0.0127 Uiso
H6_6 H 1.00(2) 0.894(12) 0.522(18) 0.0380 Uiso
N5_4 N 0.91017(12) 0.9515(9) 0.6223(4) 0.0127 Uiso
C16_4 C 0.83922(12) 0.9559(9) 0.5501(4) 0.0127 Uiso
C17_4 C 0.80070(12) 0.9042(9) 0.4938(4) 0.0127 Uiso
C18_4 C 0.72577(12) 0.9224(9) 0.4218(4) 0.0127 Uiso
C19_4 C 0.69197(12) 0.9909(9) 0.4084(4) 0.0127 Uiso
H12_4 H 0.82845(12) 0.8531(9) 0.5064(4) 0.0127 Uiso
H13_4 H 0.69464(12) 0.8838(9) 0.3773(4) 0.0127 Uiso
C22_4 C 0.948(8) 0.847(6) 0.867(9) 0.0127 Uiso
H16_4 H 0.873(13) 0.831(12) 0.863(14) 0.0127 Uiso
N7_4 N 0.9812(5) 0.86048(18) 0.7997(9) 0.0127 Uiso
H22_4 H 0.9780(13) 0.6224(3) 0.9989(6) 0.0380 Uiso
H2_3 H 0.0440(13) 0.6585(2) 0.894820(5) 0.0127 Uiso
H24_3 H 0.6348(13) 0.0100(3) 0.6971(6) 0.0380 Uiso
H23_3 H 0.0182(13) 0.4832(3) 0.9158(6) 0.0380 Uiso
C37_3 C 0.0452(5) 0.1523(4) 0.7711(8) 0.0127 Uiso
C38_3 C 0.1070(5) 0.1080(4) 0.7420(8) 0.0127 Uiso
C39_3 C 0.1744(5) 0.0662(4) 0.7998(8) 0.0127 Uiso
C40_3 C 0.1781(5) 0.0699(4) 0.8839(8) 0.0127 Uiso
C41_3 C 0.0488(5) 0.1558(4) 0.8523(8) 0.0127 Uiso
C42_3 C 0.1144(5) 0.1154(4) 0.9111(8) 0.0127 Uiso
H27_3 H 0.1017(5) 0.1069(4) 0.6779(8) 0.0127 Uiso
H28_3 H 0.2229(5) 0.0317(4) 0.7793(8) 0.0127 Uiso
H29_3 H 0.2299(5) 0.0377(4) 0.9267(8) 0.0127 Uiso
H30_3 H 0.1181(5) 0.1176(4) 0.9749(8) 0.0127 Uiso
H24_4 H 0.3652(13) 0.9900(3) 0.3029(6) 0.0380 Uiso
H2_4 H 0.9560(13) 0.3415(2) 0.105180(5) 0.0127 Uiso
H23_4 H 0.9818(13) 0.5168(3) 0.0842(6) 0.0380 Uiso
C37_4 C 0.9548(5) 0.8477(4) 0.2289(8) 0.0127 Uiso
C38_4 C 0.8930(5) 0.8920(4) 0.2580(8) 0.0127 Uiso
C39_4 C 0.8256(5) 0.9338(4) 0.2002(8) 0.0127 Uiso
C40_4 C 0.8219(5) 0.9301(4) 0.1161(8) 0.0127 Uiso
C41_4 C 0.9512(5) 0.8442(4) 0.1477(8) 0.0127 Uiso
C42_4 C 0.8856(5) 0.8846(4) 0.0889(8) 0.0127 Uiso
H27_4 H 0.8983(5) 0.8931(4) 0.3221(8) 0.0127 Uiso
H28_4 H 0.7771(5) 0.9683(4) 0.2207(8) 0.0127 Uiso
H29_4 H 0.7701(5) 0.9623(4) 0.0733(8) 0.0127 Uiso
H30_4 H 0.8819(5) 0.8824(4) 0.0251(8) 0.0127 Uiso
loop_
_geom_bond_atom_site_label_1
_geom_bond_atom_site_label_2
_geom_bond_site_symmetry_1
_geom_bond_site_symmetry_2
Zn2 N4 1_555 1_555
Zn3 N8 1_555 1_555
C8 H6 1_555 1_555
C12 C11 1_555 1_555
C13 C12 1_555 1_555
C14 C9 1_555 1_555
N4 C8 1_555 1_555
H8 C11 1_555 1_555
H9 C12 1_555 1_555
H10 C13 1_555 1_555
C15 H11 1_555 1_555
N5 Zn2 1_555 1_555
C16 N5 1_555 1_555
C21 C16 1_555 1_555
N6 C15 1_555 1_555
C22 H16 1_555 1_555
N7 Zn2 1_555 1_555
C23 N7 1_555 1_555
C24 C23 1_555 1_555
C25 C24 1_555 1_555
C26 C25 1_555 1_555
C27 C26 1_555 1_555
C28 C23 1_555 1_555
N8 C22 1_555 1_555
H17 C24 1_555 1_555
H18 C25 1_555 1_555
H19 C26 1_555 1_555
H20 C27 1_555 1_555
C29 H21 1_555 1_555
N9 Zn3 1_555 1_555
C30 N9 1_555 1_555
C31 C30 1_555 1_555
C32 C31 1_555 1_555
C33 C32 1_555 1_555
C34 C33 1_555 1_555
C35 C30 1_555 1_555
N10 C29 1_555 1_555
H22 C31 1_555 1_555
H23 C32 1_555 1_555
H25 C34 1_555 1_555
C36 H26 1_555 1_555
N11 C36 1_555 1_555
C37 N11 1_555 1_555
C38 C37 1_555 1_555
C39 C38 1_555 1_555
C40 C39 1_555 1_555
C41 C37 1_555 1_555
C42 C40 1_555 1_555
N12 Zn3 1_555 1_555
H27 C38 1_555 1_555
H28 C39 1_555 1_555
H29 C40 1_555 1_555
H30 C42 1_555 1_555
Zn4 N11 1_555 1_555
Zn5 N6 1_555 1_555
Zn6 N10 1_555 1_555
N13 Zn3 1_555 1_555
N15 Zn2 1_555 1_555
C13 C14 1_555 1_555
C14 N4 1_555 1_555
C15 N5 1_555 1_555
C21 N6 1_555 1_555
C22 N7 1_555 1_555
C27 C28 1_555 1_555
C28 N8 1_555 1_555
C29 N9 1_555 1_555
C34 C35 1_555 1_555
C35 N10 1_555 1_555
C36 N12 1_555 1_555
C41 C42 1_555 1_555
C41 N12 1_555 1_555
Zn4 N2 1_555 1_555
N1 C1 1_555 1_555
C2 N1 1_555 1_555
C3 C2 1_555 1_555
C4 C3 1_555 1_555
C5 C4 1_555 1_555
C6 C5 1_555 1_555
C7 C2 1_555 1_555
N2 C1 1_555 1_555
H3 C4 1_555 1_555
H4 C5 1_555 1_555
H5 C6 1_555 1_555
N3 Zn4 1_555 1_555
H7 C10 1_555 1_555
C18 C17 1_555 1_555
C19 C18 1_555 1_555
C20 C19 1_555 1_555
H13 C18 1_555 1_555
H14 C19 1_555 1_555
H15 C20 1_555 1_555
N14 Zn4 1_555 1_555
C6 C7 1_555 1_555
C7 N2 1_555 1_555
N5_2 Zn2_2 1_555 1_555
C16_2 N5_2 1_555 1_555
C17_2 C16_2 1_555 1_555
C18_2 C17_2 1_555 1_555
C19_2 C18_2 1_555 1_555
H12_2 C17_2 1_555 1_555
H13_2 C18_2 1_555 1_555
C22_2 H16_2 1_555 1_555
N7_2 Zn2_2 1_555 1_555
N15_2 Zn2_2 1_555 1_555
C22_2 N7_2 1_555 1_555
C15_2 H11_2 1_555 1_555
N6_2 C15_2 1_555 1_555
H15_2 C20_2 1_555 1_555
Zn5_2 N6_2 1_555 1_555
C20_2 C21_2 1_555 1_555
C21_2 N6_2 1_555 1_555
Zn1 N2_2 1_555 1_555
C1_2 H1_2 1_555 1_555
N1_2 C1_2 1_555 1_555
C2_2 N1_2 1_555 1_555
C3_2 C2_2 1_555 1_555
C4_2 C3_2 1_555 1_555
C5_2 C4_2 1_555 1_555
C6_2 C5_2 1_555 1_555
C7_2 C2_2 1_555 1_555
N2_2 C1_2 1_555 1_555
H2 C3_2 1_555 1_555
H3_2 C4_2 1_555 1_555
H4_2 C5_2 1_555 1_555
H5_2 C6_2 1_555 1_555
C8_2 H6_3 1_555 1_555
N3_2 Zn1 1_555 1_555
C9_2 N3_2 1_555 1_555
C10_2 C9_2 1_555 1_555
C11_2 C10_2 1_555 1_555
C12_2 C11_2 1_555 1_555
C13_2 C12_2 1_555 1_555
C14_2 C9_2 1_555 1_555
N4_2 C8_2 1_555 1_555
H7_2 C10_2 1_555 1_555
H8_2 C11_2 1_555 1_555
H9_2 C12_2 1_555 1_555
H10_2 C13_2 1_555 1_555
C24_2 C23_2 1_555 1_555
C25_2 C24_2 1_555 1_555
C26_2 C25_2 1_555 1_555
C27_2 C26_2 1_555 1_555
C28_2 C23_2 1_555 1_555
H17_2 C24_2 1_555 1_555
H18_2 C25_2 1_555 1_555
H19_2 C26_2 1_555 1_555
Zn7_2 N1_2 1_555 1_555
N14_2 Zn1 1_555 1_555
N16 Zn1 1_555 1_555
C6_2 C7_2 1_555 1_555
C7_2 N2_2 1_555 1_555
C8_2 N3_2 1_555 1_555
C13_2 C14_2 1_555 1_555
C14_2 N4_2 1_555 1_555
C27_2 C28_2 1_555 1_555
C28_2 N8_2 1_555 1_555
C29_2 H21_2 1_555 1_555
N9_2 Zn3_2 1_555 1_555
C30_2 N9_2 1_555 1_555
C31_2 C30_2 1_555 1_555
C32_2 C31_2 1_555 1_555
C33_2 C32_2 1_555 1_555
C34_2 C33_2 1_555 1_555
C35_2 C30_2 1_555 1_555
N10_2 C29_2 1_555 1_555
H24 C33_2 1_555 1_555
H25_2 C34_2 1_555 1_555
C36_2 H26_2 1_555 1_555
N16 C36_2 1_555 1_555
N12_2 Zn3_2 1_555 1_555
Zn6_2 N10_2 1_555 1_555
C29_2 N9_2 1_555 1_555
C34_2 C35_2 1_555 1_555
C35_2 N10_2 1_555 1_555
C36_2 N12_2 1_555 1_555
Zn5 N2_3 1_555 1_555
N13_2 C1_3 1_555 1_555
C2_3 N13_2 1_555 1_555
C3_3 C2_3 1_555 1_555
C4_3 C3_3 1_555 1_555
C5_3 C4_3 1_555 1_555
C6_3 C5_3 1_555 1_555
C7_3 C2_3 1_555 1_555
N2_3 C1_3 1_555 1_555
H3_3 C4_3 1_555 1_555
H4_3 C5_3 1_555 1_555
H5_3 C6_3 1_555 1_555
N3_3 Zn5 1_555 1_555
H7_3 C10_3 1_555 1_555
C18_3 C17_3 1_555 1_555
C19_3 C18_3 1_555 1_555
C20_3 C19_3 1_555 1_555
H13_3 C18_3 1_555 1_555
H14_3 C19_3 1_555 1_555
H15_3 C20_3 1_555 1_555
N16_2 Zn5 1_555 1_555
C6_3 C7_3 1_555 1_555
C7_3 N2_3 1_555 1_555
Zn6_2 N4_3 1_555 1_555
Zn7_2 N8_3 1_555 1_555
C8_3 H6_4 1_555 1_555
C12_3 C11_3 1_555 1_555
C13_3 C12_3 1_555 1_555
C14_3 C9_3 1_555 1_555
N4_3 C8_3 1_555 1_555
H8_3 C11_3 1_555 1_555
H9_3 C12_3 1_555 1_555
H10_3 C13_3 1_555 1_555
C15_3 H11_3 1_555 1_555
N5_3 Zn6_2 1_555 1_555
C16_3 N5_3 1_555 1_555
C21_3 C16_3 1_555 1_555
N14 C15_3 1_555 1_555
C22_3 H16_3 1_555 1_555
N7_3 Zn6_2 1_555 1_555
C23_3 N7_3 1_555 1_555
C24_3 C23_3 1_555 1_555
C25_3 C24_3 1_555 1_555
C26_3 C25_3 1_555 1_555
C27_3 C26_3 1_555 1_555
C28_3 C23_3 1_555 1_555
N8_3 C22_3 1_555 1_555
H17_3 C24_3 1_555 1_555
H18_3 C25_3 1_555 1_555
H19_3 C26_3 1_555 1_555
H20_3 C27_3 1_555 1_555
C29_3 H21_3 1_555 1_555
N9_3 Zn7_2 1_555 1_555
C30_3 N9_3 1_555 1_555
C31_3 C30_3 1_555 1_555
C32_3 C31_3 1_555 1_555
C33_3 C32_3 1_555 1_555
C34_3 C33_3 1_555 1_555
C35_3 C30_3 1_555 1_555
N15_2 C29_3 1_555 1_555
H22_3 C31_3 1_555 1_555
H23_2 C32_3 1_555 1_555
H25_3 C34_3 1_555 1_555
C36_3 H26_3 1_555 1_555
N16_2 C36_3 1_555 1_555
C37_2 N16_2 1_555 1_555
C38_2 C37_2 1_555 1_555
C39_2 C38_2 1_555 1_555
C40_2 C39_2 1_555 1_555
C41_2 C37_2 1_555 1_555
C42_2 C40_2 1_555 1_555
N12_3 Zn7_2 1_555 1_555
H27_2 C38_2 1_555 1_555
H28_2 C39_2 1_555 1_555
H29_2 C40_2 1_555 1_555
H30_2 C42_2 1_555 1_555
C13_3 C14_3 1_555 1_555
C14_3 N4_3 1_555 1_555
C15_3 N5_3 1_555 1_555
C21_3 N14 1_555 1_555
C22_3 N7_3 1_555 1_555
C27_3 C28_3 1_555 1_555
C28_3 N8_3 1_555 1_555
C29_3 N9_3 1_555 1_555
C34_3 C35_3 1_555 1_555
C35_3 N15_2 1_555 1_555
C36_3 N12_3 1_555 1_555
C41_2 C42_2 1_555 1_555
C41_2 N12_3 1_555 1_555
C29_4 H21_4 1_555 1_555
N9_4 Zn7 1_555 1_555
C30_4 N9_4 1_555 1_555
C31_4 C30_4 1_555 1_555
C32_4 C31_4 1_555 1_555
C33_4 C32_4 1_555 1_555
C34_4 C33_4 1_555 1_555
C35_4 C30_4 1_555 1_555
N15 C29_4 1_555 1_555
H24_2 C33_4 1_555 1_555
H25_4 C34_4 1_555 1_555
C36_4 H26_4 1_555 1_555
N11_2 C36_4 1_555 1_555
N12_4 Zn7 1_555 1_555
Zn5_2 N11_2 1_555 1_555
C29_4 N9_4 1_555 1_555
C34_4 C35_4 1_555 1_555
C35_4 N15 1_555 1_555
C36_4 N12_4 1_555 1_555
Zn5_2 N2_4 1_555 1_555
C1_4 H1_4 1_555 1_555
N13 C1_4 1_555 1_555
C2_4 N13 1_555 1_555
C3_4 C2_4 1_555 1_555
C4_4 C3_4 1_555 1_555
C5_4 C4_4 1_555 1_555
C6_4 C5_4 1_555 1_555
C7_4 C2_4 1_555 1_555
N2_4 C1_4 1_555 1_555
H2_2 C3_4 1_555 1_555
H3_4 C4_4 1_555 1_555
H4_4 C5_4 1_555 1_555
H5_4 C6_4 1_555 1_555
C8_4 H6_5 1_555 1_555
N3_4 Zn5_2 1_555 1_555
C9_4 N3_4 1_555 1_555
C10_4 C9_4 1_555 1_555
C11_4 C10_4 1_555 1_555
C12_4 C11_4 1_555 1_555
C13_4 C12_4 1_555 1_555
C14_4 C9_4 1_555 1_555
N4_4 C8_4 1_555 1_555
H7_4 C10_4 1_555 1_555
H8_4 C11_4 1_555 1_555
H9_4 C12_4 1_555 1_555
H10_4 C13_4 1_555 1_555
C24_4 C23_4 1_555 1_555
C25_4 C24_4 1_555 1_555
C26_4 C25_4 1_555 1_555
C27_4 C26_4 1_555 1_555
C28_4 C23_4 1_555 1_555
H17_4 C24_4 1_555 1_555
H18_4 C25_4 1_555 1_555
H19_4 C26_4 1_555 1_555
C6_4 C7_4 1_555 1_555
C7_4 N2_4 1_555 1_555
C8_4 N3_4 1_555 1_555
C13_4 C14_4 1_555 1_555
C14_4 N4_4 1_555 1_555
C27_4 C28_4 1_555 1_555
C28_4 N8_4 1_555 1_555
C15_4 H11_4 1_555 1_555
N14_2 C15_4 1_555 1_555
H15_4 C20_4 1_555 1_555
C20_4 C21_4 1_555 1_555
C21_4 N14_2 1_555 1_555
N5_4 Zn6 1_555 1_555
C16_4 N5_4 1_555 1_555
C17_4 C16_4 1_555 1_555
C18_4 C17_4 1_555 1_555
C19_4 C18_4 1_555 1_555
H12_4 C17_4 1_555 1_555
H13_4 C18_4 1_555 1_555
C22_4 H16_4 1_555 1_555
N7_4 Zn6 1_555 1_555
C22_4 N7_4 1_555 1_555
C38_3 C37_3 1_555 1_555
C39_3 C38_3 1_555 1_555
C40_3 C39_3 1_555 1_555
C41_3 C37_3 1_555 1_555
C42_3 C40_3 1_555 1_555
H27_3 C38_3 1_555 1_555
H28_3 C39_3 1_555 1_555
H29_3 C40_3 1_555 1_555
H30_3 C42_3 1_555 1_555
C41_3 C42_3 1_555 1_555
C38_4 C37_4 1_555 1_555
C39_4 C38_4 1_555 1_555
C40_4 C39_4 1_555 1_555
C41_4 C37_4 1_555 1_555
C42_4 C40_4 1_555 1_555
H27_4 C38_4 1_555 1_555
H28_4 C39_4 1_555 1_555
H29_4 C40_4 1_555 1_555
H30_4 C42_4 1_555 1_555
C41_4 C42_4 1_555 1_555

#END
