
###############################################################################
#
# This file contains modified crystal structure data generated from the
# MOF subset of the Cambridge Structural Database (CSD) v543 
# hosted by the Cambridge Crystallographic Data Centre (CCDC).
#
# This work is licensed under the Creative Commons
# Attribution-NonCommercial-ShareAlike 4.0 International License.
# To view a copy of this license, visit
# http://creativecommons.org/licenses/by-nc-sa/4.0/
# or send a letter to
# Creative Commons, PO Box 1866, Mountain View, CA 94042, USA.
#
# CIF created using the CSD Python API on 29 September 2022
# The structure has been converted into the P1 space group
# The structure has a 3D framework
# The original CSD entry KALFIO is in the orthorhombic crystal system
# The framework has been calculated to contain at least 10.0% void space
# The void calculation uses a probe of radius 1.32A, grid spacing 0.4
#
###############################################################################

data_KALFIO
_chemical_formula_moiety         '(C320 H240 N32 Ni16 O74)n'
_symmetry_cell_setting           triclinic
_symmetry_space_group_name_H-M   'P 1'
_symmetry_Int_Tables_number      1
_space_group_name_Hall           'P 1'
loop_
_symmetry_equiv_pos_site_id
_symmetry_equiv_pos_as_xyz
1 x,y,z
_cell_length_a                   15.526(3)
_cell_length_b                   22.639(5)
_cell_length_c                   32.994(7)
_cell_angle_alpha                90
_cell_angle_beta                 90
_cell_angle_gamma                90
_cell_volume                     11597.2
loop_
_atom_site_label
_atom_site_type_symbol
_atom_site_fract_x
_atom_site_fract_y
_atom_site_fract_z
Ni1 Ni 0.13841(4) 0.24041(3) 0.732008(18)
N1 N 0.0231(3) 0.2359(2) 0.69976(13)
O1 O 0.1914(3) 0.19105(18) 0.68648(11)
O2 O 0.3310(3) 0.18356(19) 0.70179(11)
O3 O 0.0801(3) 0.0730(3) 0.56571(16)
O4 O 0.1795(3) 0.03841(19) 0.52392(12)
O5 O 0.2500 0.2500 0.76787(16)
H4 H 0.0373 0.1545 0.6800
C13 C 0.2816(5) 0.1392(4) 0.6405(2)
C14 C 0.3661(5) 0.1277(5) 0.6288(3)
H11 H 0.4126 0.1390 0.6453
C15 C 0.3800(6) 0.0990(5) 0.5920(3)
H12 H 0.4367 0.0919 0.5832
C16 C 0.3131(6) 0.0814(5) 0.5687(3)
H13 H 0.3244 0.0640 0.5434
C17 C 0.2281(5) 0.0882(4) 0.5811(2)
C18 C 0.2137(5) 0.1199(3) 0.61736(18)
H14 H 0.1570 0.1278 0.6257
C19 C 0.2661(4) 0.1749(3) 0.67944(16)
C20 C 0.1570(4) 0.0670(3) 0.55506(19)
H15 H 0.233(4) 0.2805(15) 0.7776(17)
Ni4 Ni 0.36159(4) 0.25959(3) 0.732008(18)
Ni7 Ni 0.38841(4) 0.50959(3) 0.482008(18)
N5 N 0.1064(3) 0.1637(2) 0.76427(14)
O6 O 0.3086(3) 0.30895(18) 0.68648(11)
O8 O 0.1690(3) 0.31644(19) 0.70179(11)
O10 O 0.4199(3) 0.4270(3) 0.56571(16)
O11 O 0.3205(3) 0.46159(19) 0.52392(12)
O12 O 0.0705(3) 0.28841(19) 0.77392(12)
C33 C 0.2184(5) 0.3608(4) 0.6405(2)
C34 C 0.1339(5) 0.3723(5) 0.6288(3)
H26 H 0.0874 0.3610 0.6453
C35 C 0.1200(6) 0.4010(5) 0.5920(3)
H27 H 0.0633 0.4081 0.5832
C36 C 0.1869(6) 0.4186(5) 0.5687(3)
H28 H 0.1756 0.4360 0.5434
C37 C 0.2719(5) 0.4118(4) 0.5811(2)
C38 C 0.2863(5) 0.3801(3) 0.61736(18)
H29 H 0.3430 0.3722 0.6257
C39 C 0.2339(4) 0.3251(3) 0.67944(16)
C40 C 0.3430(4) 0.4330(3) 0.55506(19)
H30 H 0.267(4) 0.2195(15) 0.7776(17)
Ni5 Ni 0.11159(4) 0.99041(3) 0.482008(18)
N2 N 0.8564(3) 0.0863(2) 0.51427(14)
C1 C 0.9697(5) 0.2816(3) 0.6997(2)
H1 H 0.9856 0.3158 0.7139
C2 C 0.8897(5) 0.2809(3) 0.6791(2)
H2 H 0.8538 0.3143 0.6789
C3 C 0.8654(4) 0.2284(3) 0.65888(17)
C4 C 0.9208(4) 0.1820(3) 0.66009(19)
H3 H 0.9060 0.1463 0.6473
C5 C 0.9995(4) 0.1869(3) 0.68024(19)
C6 C 0.7845(4) 0.2251(2) 0.63440(15)
H5 H 0.7563 0.1864 0.6387
C7 C 0.7951(4) 0.2367(2) 0.58810(16)
H6 H 0.8382 0.2683 0.5837
C8 C 0.8160(4) 0.1844(2) 0.56145(16)
C9 C 0.7593(4) 0.1369(3) 0.5570(2)
H7 H 0.7062 0.1370 0.5707
C10 C 0.7806(4) 0.0912(3) 0.53329(19)
H8 H 0.7400 0.0609 0.5298
C11 C 0.9122(4) 0.1316(3) 0.51856(19)
H9 H 0.9656 0.1298 0.5053
C12 C 0.8935(4) 0.1794(3) 0.5414(2)
H10 H 0.9343 0.2099 0.5437
Ni3 Ni 0.88841(4) 0.00959(3) 0.482008(18)
Ni6 Ni 0.61159(4) 0.49041(3) 0.482008(18)
N3 N 0.4769(3) 0.2641(2) 0.69976(13)
N4 N 0.6436(3) 0.4137(2) 0.51427(14)
N6 N 0.3936(3) 0.3363(2) 0.76427(14)
O13 O 0.4295(3) 0.21159(19) 0.77392(12)
C21 C 0.5303(5) 0.2184(3) 0.6997(2)
H16 H 0.5144 0.1842 0.7139
C22 C 0.6103(5) 0.2191(3) 0.6791(2)
H17 H 0.6462 0.1857 0.6789
C23 C 0.6346(4) 0.2716(3) 0.65888(17)
C24 C 0.5792(4) 0.3180(3) 0.66009(19)
H18 H 0.5940 0.3537 0.6473
C25 C 0.5005(4) 0.3131(3) 0.68024(19)
H19 H 0.4627 0.3455 0.6800
C26 C 0.7155(4) 0.2749(2) 0.63440(15)
H20 H 0.7437 0.3136 0.6387
C27 C 0.7049(4) 0.2633(2) 0.58810(16)
H21 H 0.6618 0.2317 0.5837
C28 C 0.6840(4) 0.3156(2) 0.56145(16)
C29 C 0.7407(4) 0.3631(3) 0.5570(2)
H22 H 0.7938 0.3630 0.5707
C30 C 0.7194(4) 0.4088(3) 0.53329(19)
H23 H 0.7600 0.4391 0.5298
C31 C 0.5878(4) 0.3684(3) 0.51856(19)
H24 H 0.5344 0.3702 0.5053
C32 C 0.6065(4) 0.3206(3) 0.5414(2)
H25 H 0.5657 0.2901 0.5437
N2_2 N 0.1436(3) 0.9137(2) 0.51427(14)
C1_2 C 0.0303(5) 0.7184(3) 0.6997(2)
H1_2 H 0.0144 0.6842 0.7139
C2_2 C 0.1103(5) 0.7191(3) 0.6791(2)
H2_2 H 0.1462 0.6857 0.6789
C3_2 C 0.1346(4) 0.7716(3) 0.65888(17)
C4_2 C 0.0792(4) 0.8180(3) 0.66009(19)
H3_2 H 0.0940 0.8537 0.6473
C5_2 C 0.0005(4) 0.8131(3) 0.68024(19)
C6_2 C 0.2155(4) 0.7749(2) 0.63440(15)
H5_2 H 0.2437 0.8136 0.6387
C7_2 C 0.2049(4) 0.7633(2) 0.58810(16)
H6_2 H 0.1618 0.7317 0.5837
C8_2 C 0.1840(4) 0.8156(2) 0.56145(16)
C9_2 C 0.2407(4) 0.8631(3) 0.5570(2)
H7_2 H 0.2938 0.8630 0.5707
C10_2 C 0.2194(4) 0.9088(3) 0.53329(19)
H8_2 H 0.2600 0.9391 0.5298
C11_2 C 0.0878(4) 0.8684(3) 0.51856(19)
H9_2 H 0.0344 0.8702 0.5053
C12_2 C 0.1065(4) 0.8206(3) 0.5414(2)
H10_2 H 0.0657 0.7901 0.5437
Ni2 Ni 0.63841(4) 0.74041(3) 0.732008(18)
N3_2 N 0.5231(3) 0.7359(2) 0.69976(13)
N4_2 N 0.3564(3) 0.5863(2) 0.51427(14)
N6_2 N 0.6064(3) 0.6637(2) 0.76427(14)
O7 O 0.6914(3) 0.69105(18) 0.68648(11)
O9 O 0.6690(3) 0.81644(19) 0.70179(11)
O13_2 O 0.5705(3) 0.78841(19) 0.77392(12)
O14 O 0.7500 0.7500 0.76787(16)
C21_2 C 0.4697(5) 0.7816(3) 0.6997(2)
H16_2 H 0.4856 0.8158 0.7139
C22_2 C 0.3897(5) 0.7809(3) 0.6791(2)
H17_2 H 0.3538 0.8143 0.6789
C23_2 C 0.3654(4) 0.7284(3) 0.65888(17)
C24_2 C 0.4208(4) 0.6820(3) 0.66009(19)
H18_2 H 0.4060 0.6463 0.6473
C25_2 C 0.4995(4) 0.6869(3) 0.68024(19)
H19_2 H 0.5373 0.6545 0.6800
C26_2 C 0.2845(4) 0.7251(2) 0.63440(15)
H20_2 H 0.2563 0.6864 0.6387
C27_2 C 0.2951(4) 0.7367(2) 0.58810(16)
H21_2 H 0.3382 0.7683 0.5837
C28_2 C 0.3160(4) 0.6844(2) 0.56145(16)
C29_2 C 0.2593(4) 0.6369(3) 0.5570(2)
H22_2 H 0.2062 0.6370 0.5707
C30_2 C 0.2806(4) 0.5912(3) 0.53329(19)
H23_2 H 0.2400 0.5609 0.5298
C31_2 C 0.4122(4) 0.6316(3) 0.51856(19)
H24_2 H 0.4656 0.6298 0.5053
C32_2 C 0.3935(4) 0.6794(3) 0.5414(2)
H25_2 H 0.4343 0.7099 0.5437
H31 H 0.733(4) 0.7805(15) 0.7776(17)
H32 H 0.767(4) 0.7195(15) 0.7776(17)
Ni1_2 Ni 0.86159(4) 0.75959(3) 0.732008(18)
N1_2 N 0.9769(3) 0.7641(2) 0.69976(13)
O1_2 O 0.8086(3) 0.80895(18) 0.68648(11)
O3_2 O 0.9199(3) 0.9270(3) 0.56571(16)
O4_2 O 0.8205(3) 0.96159(19) 0.52392(12)
H4_2 H 0.9627 0.8455 0.6800
C13_2 C 0.7184(5) 0.8608(4) 0.6405(2)
C14_2 C 0.6339(5) 0.8723(5) 0.6288(3)
H11_2 H 0.5874 0.8610 0.6453
C15_2 C 0.6200(6) 0.9010(5) 0.5920(3)
H12_2 H 0.5633 0.9081 0.5832
C16_2 C 0.6869(6) 0.9186(5) 0.5687(3)
H13_2 H 0.6756 0.9360 0.5434
C17_2 C 0.7719(5) 0.9118(4) 0.5811(2)
C18_2 C 0.7863(5) 0.8801(3) 0.61736(18)
H14_2 H 0.8430 0.8722 0.6257
C19_2 C 0.7339(4) 0.8251(3) 0.67944(16)
C20_2 C 0.8430(4) 0.9330(3) 0.55506(19)
N5_2 N 0.8936(3) 0.8363(2) 0.76427(14)
O8_2 O 0.8310(3) 0.68356(19) 0.70179(11)
O10_2 O 0.5801(3) 0.5730(3) 0.56571(16)
O11_2 O 0.6795(3) 0.53841(19) 0.52392(12)
O12_2 O 0.9295(3) 0.71159(19) 0.77392(12)
C33_2 C 0.7816(5) 0.6392(4) 0.6405(2)
C34_2 C 0.8661(5) 0.6277(5) 0.6288(3)
H26_2 H 0.9126 0.6390 0.6453
C35_2 C 0.8800(6) 0.5990(5) 0.5920(3)
H27_2 H 0.9367 0.5919 0.5832
C36_2 C 0.8131(6) 0.5814(5) 0.5687(3)
H28_2 H 0.8244 0.5640 0.5434
C37_2 C 0.7281(5) 0.5882(4) 0.5811(2)
C38_2 C 0.7137(5) 0.6199(3) 0.61736(18)
H29_2 H 0.6570 0.6278 0.6257
C39_2 C 0.7661(4) 0.6749(3) 0.67944(16)
C40_2 C 0.6570(4) 0.5670(3) 0.55506(19)
O5_2 O 0.5000 -0.0000 0.01787(16)
N5_3 N 0.3564(3) 0.0863(2) 0.01427(14)
H30_2 H 0.517(4) 0.0305(15) 0.0276(17)
Ni1_3 Ni 0.38841(4) 0.00959(3) 0.982008(18)
N1_3 N 0.2731(3) 0.0141(2) 0.94976(13)
O1_3 O 0.4414(3) 0.05895(18) 0.93648(11)
O2_2 O 0.5810(3) 0.06644(19) 0.95179(11)
O3_3 O 0.3301(3) 0.1770(3) 0.81571(16)
C3_3 C 0.1154(4) 0.0216(3) 0.90888(17)
C4_3 C 0.1708(4) 0.0680(3) 0.91009(19)
H3_3 H 0.1560 0.1037 0.8973
C5_3 C 0.2495(4) 0.0631(3) 0.93024(19)
H4_3 H 0.2873 0.0955 0.9300
C6_3 C 0.0345(4) 0.0249(2) 0.88440(15)
H5_3 H 0.0063 0.0636 0.8887
C7_3 C 0.0451(4) 0.0133(2) 0.83810(16)
C8_3 C 0.0660(4) 0.0656(2) 0.81145(16)
C9_3 C 0.0093(4) 0.1131(3) 0.8070(2)
C10_3 C 0.0306(4) 0.1588(3) 0.78329(19)
C11_3 C 0.1622(4) 0.1184(3) 0.76856(19)
H9_3 H 0.2156 0.1202 0.7553
C12_3 C 0.1435(4) 0.0706(3) 0.7914(2)
H10_3 H 0.1843 0.0401 0.7937
C13_3 C 0.5316(5) 0.1108(4) 0.8905(2)
C14_3 C 0.6161(5) 0.1223(5) 0.8788(3)
H11_3 H 0.6626 0.1110 0.8953
C15_3 C 0.6300(6) 0.1510(5) 0.8420(3)
H12_3 H 0.6867 0.1581 0.8332
C16_3 C 0.5631(6) 0.1686(5) 0.8187(3)
H13_3 H 0.5744 0.1860 0.7934
C17_3 C 0.4781(5) 0.1618(4) 0.8311(2)
C18_3 C 0.4637(5) 0.1301(3) 0.86736(18)
H14_3 H 0.4070 0.1222 0.8757
C19_3 C 0.5161(4) 0.0751(3) 0.92944(16)
C20_3 C 0.4070(4) 0.1830(3) 0.80506(19)
O5_3 O 0.5000 1.0000 0.01787(16)
H15_2 H 0.483(4) 0.9695(15) 0.0276(17)
O12_3 O 0.3205(3) 0.96159(19) 0.02392(12)
C1_3 C 0.2197(5) 0.9684(3) 0.9497(2)
H1_3 H 0.2356 0.9342 0.9639
C2_3 C 0.1397(5) 0.9691(3) 0.9291(2)
H2_3 H 0.1038 0.9357 0.9289
H6_3 H 0.0882 0.9817 0.8337
Ni4_2 Ni 0.61159(4) 0.99041(3) 0.982008(18)
O6_2 O 0.5586(3) 0.94105(18) 0.93648(11)
O8_3 O 0.4190(3) 0.93356(19) 0.95179(11)
O10_3 O 0.6699(3) 0.8230(3) 0.81571(16)
H22_3 H 0.0438 0.8870 0.8207
H23_3 H 0.0100 0.8109 0.7798
C33_3 C 0.4684(5) 0.8892(4) 0.8905(2)
C34_3 C 0.3839(5) 0.8777(5) 0.8788(3)
H26_3 H 0.3374 0.8890 0.8953
C35_3 C 0.3700(6) 0.8490(5) 0.8420(3)
H27_3 H 0.3133 0.8419 0.8332
C36_3 C 0.4369(6) 0.8314(5) 0.8187(3)
H28_3 H 0.4256 0.8140 0.7934
C37_3 C 0.5219(5) 0.8382(4) 0.8311(2)
C38_3 C 0.5363(5) 0.8699(3) 0.86736(18)
H29_3 H 0.5930 0.8778 0.8757
C39_3 C 0.4839(4) 0.9249(3) 0.92944(16)
C40_3 C 0.5930(4) 0.8170(3) 0.80506(19)
O13_3 O 0.6795(3) 0.03841(19) 0.02392(12)
H7_3 H 0.9562 0.1130 0.8207
H8_3 H 0.9900 0.1891 0.7798
C21_3 C 0.7803(5) 0.0316(3) 0.9497(2)
H16_3 H 0.7644 0.0658 0.9639
C22_3 C 0.8603(5) 0.0309(3) 0.9291(2)
H17_3 H 0.8962 0.0643 0.9289
H21_3 H 0.9118 0.0183 0.8337
N6_3 N 0.6436(3) 0.9137(2) 0.01427(14)
N3_3 N 0.7269(3) 0.9859(2) 0.94976(13)
C23_3 C 0.8846(4) 0.9784(3) 0.90888(17)
C24_3 C 0.8292(4) 0.9320(3) 0.91009(19)
H18_3 H 0.8440 0.8963 0.8973
C25_3 C 0.7505(4) 0.9369(3) 0.93024(19)
H19_3 H 0.7127 0.9045 0.9300
C26_3 C 0.9655(4) 0.9751(2) 0.88440(15)
H20_3 H 0.9937 0.9364 0.8887
C27_3 C 0.9549(4) 0.9867(2) 0.83810(16)
C28_3 C 0.9340(4) 0.9344(2) 0.81145(16)
C29_3 C 0.9907(4) 0.8869(3) 0.8070(2)
C30_3 C 0.9694(4) 0.8412(3) 0.78329(19)
C31_3 C 0.8378(4) 0.8816(3) 0.76856(19)
H24_3 H 0.7844 0.8798 0.7553
C32_3 C 0.8565(4) 0.9294(3) 0.7914(2)
H25_3 H 0.8157 0.9599 0.7937
O14_2 O 0.0000 0.5000 0.01787(16)
H32_2 H 0.017(4) 0.5305(15) 0.0276(17)
N5_4 N 0.1436(3) 0.4137(2) 0.01427(14)
N6_4 N 0.8564(3) 0.5863(2) 0.01427(14)
O12_4 O 0.1795(3) 0.53841(19) 0.02392(12)
O13_4 O 0.8205(3) 0.46159(19) 0.02392(12)
O14_3 O 1.0000 0.5000 0.01787(16)
H31_2 H 0.983(4) 0.4695(15) 0.0276(17)
Ni1_4 Ni 0.11159(4) 0.49041(3) 0.982008(18)
N1_4 N 0.2269(3) 0.4859(2) 0.94976(13)
O1_4 O 0.0586(3) 0.44105(18) 0.93648(11)
O3_4 O 0.1699(3) 0.3230(3) 0.81571(16)
C1_4 C 0.2803(5) 0.5316(3) 0.9497(2)
H1_4 H 0.2644 0.5658 0.9639
C2_4 C 0.3603(5) 0.5309(3) 0.9291(2)
H2_4 H 0.3962 0.5643 0.9289
C3_4 C 0.3846(4) 0.4784(3) 0.90888(17)
C4_4 C 0.3292(4) 0.4320(3) 0.91009(19)
H3_4 H 0.3440 0.3963 0.8973
C5_4 C 0.2505(4) 0.4369(3) 0.93024(19)
H4_4 H 0.2127 0.4045 0.9300
C6_4 C 0.4655(4) 0.4751(2) 0.88440(15)
H5_4 H 0.4937 0.4364 0.8887
C7_4 C 0.4549(4) 0.4867(2) 0.83810(16)
H6_4 H 0.4118 0.5183 0.8337
C8_4 C 0.4340(4) 0.4344(2) 0.81145(16)
C9_4 C 0.4907(4) 0.3869(3) 0.8070(2)
H7_4 H 0.5438 0.3870 0.8207
C10_4 C 0.4694(4) 0.3412(3) 0.78329(19)
H8_4 H 0.5100 0.3109 0.7798
C11_4 C 0.3378(4) 0.3816(3) 0.76856(19)
H9_4 H 0.2844 0.3798 0.7553
C12_4 C 0.3565(4) 0.4294(3) 0.7914(2)
H10_4 H 0.3157 0.4599 0.7937
C17_4 C 0.0219(5) 0.3382(4) 0.8311(2)
C18_4 C 0.0363(5) 0.3699(3) 0.86736(18)
H14_4 H 0.0930 0.3778 0.8757
C20_4 C 0.0930(4) 0.3170(3) 0.80506(19)
Ni2_2 Ni 0.88841(4) 0.50959(3) 0.982008(18)
N3_4 N 0.7731(3) 0.5141(2) 0.94976(13)
O7_2 O 0.9414(3) 0.55895(18) 0.93648(11)
O8_4 O 0.0810(3) 0.56644(19) 0.95179(11)
O9_2 O 0.9190(3) 0.43356(19) 0.95179(11)
C21_4 C 0.7197(5) 0.4684(3) 0.9497(2)
H16_4 H 0.7356 0.4342 0.9639
C22_4 C 0.6397(5) 0.4691(3) 0.9291(2)
H17_4 H 0.6038 0.4357 0.9289
C23_4 C 0.6154(4) 0.5216(3) 0.90888(17)
C24_4 C 0.6708(4) 0.5680(3) 0.91009(19)
H18_4 H 0.6560 0.6037 0.8973
C25_4 C 0.7495(4) 0.5631(3) 0.93024(19)
H19_4 H 0.7873 0.5955 0.9300
C26_4 C 0.5345(4) 0.5249(2) 0.88440(15)
H20_4 H 0.5063 0.5636 0.8887
C27_4 C 0.5451(4) 0.5133(2) 0.83810(16)
H21_4 H 0.5882 0.4817 0.8337
C28_4 C 0.5660(4) 0.5656(2) 0.81145(16)
C29_4 C 0.5093(4) 0.6131(3) 0.8070(2)
H22_4 H 0.4562 0.6130 0.8207
C30_4 C 0.5306(4) 0.6588(3) 0.78329(19)
H23_4 H 0.4900 0.6891 0.7798
C31_4 C 0.6622(4) 0.6184(3) 0.76856(19)
H24_4 H 0.7156 0.6202 0.7553
C32_4 C 0.6435(4) 0.5706(3) 0.7914(2)
H25_4 H 0.6843 0.5401 0.7937
C33_4 C 0.0316(5) 0.6108(4) 0.8905(2)
C34_4 C 0.1161(5) 0.6223(5) 0.8788(3)
H26_4 H 0.1626 0.6110 0.8953
C35_4 C 0.1300(6) 0.6510(5) 0.8420(3)
H27_4 H 0.1867 0.6581 0.8332
C36_4 C 0.0631(6) 0.6686(5) 0.8187(3)
H28_4 H 0.0744 0.6860 0.7934
C39_4 C 0.0161(4) 0.5751(3) 0.92944(16)
C13_4 C 0.9684(5) 0.3892(4) 0.8905(2)
C14_4 C 0.8839(5) 0.3777(5) 0.8788(3)
H11_4 H 0.8374 0.3890 0.8953
C15_4 C 0.8700(6) 0.3490(5) 0.8420(3)
H12_4 H 0.8133 0.3419 0.8332
C16_4 C 0.9369(6) 0.3314(5) 0.8187(3)
H13_4 H 0.9256 0.3140 0.7934
C19_4 C 0.9839(4) 0.4249(3) 0.92944(16)
O10_4 O 0.8301(3) 0.6770(3) 0.81571(16)
C37_4 C 0.9781(5) 0.6618(4) 0.8311(2)
C38_4 C 0.9637(5) 0.6301(3) 0.86736(18)
H29_4 H 0.9070 0.6222 0.8757
C40_4 C 0.9070(4) 0.6830(3) 0.80506(19)
Ni1_5 Ni 0.13841(4) 0.74041(3) 0.232008(18)
N1_5 N 0.0231(3) 0.7359(2) 0.19976(13)
O1_5 O 0.1914(3) 0.69105(18) 0.18648(11)
O2_3 O 0.3310(3) 0.68356(19) 0.20179(11)
O3_5 O 0.0801(3) 0.5730(3) 0.06571(16)
O5_4 O 0.2500 0.7500 0.26787(16)
H4_5 H 0.0373 0.6545 0.1800
C13_5 C 0.2816(5) 0.6392(4) 0.1405(2)
C14_5 C 0.3661(5) 0.6277(5) 0.1288(3)
H11_5 H 0.4126 0.6390 0.1453
C15_5 C 0.3800(6) 0.5990(5) 0.0920(3)
H12_5 H 0.4367 0.5919 0.0832
C16_5 C 0.3131(6) 0.5814(5) 0.0687(3)
H13_5 H 0.3244 0.5640 0.0434
C17_5 C 0.2281(5) 0.5882(4) 0.0811(2)
C18_5 C 0.2137(5) 0.6199(3) 0.11736(18)
H14_5 H 0.1570 0.6278 0.1257
C19_5 C 0.2661(4) 0.6749(3) 0.17944(16)
C20_5 C 0.1570(4) 0.5670(3) 0.05506(19)
H15_3 H 0.233(4) 0.7805(15) 0.2776(17)
Ni4_3 Ni 0.36159(4) 0.75959(3) 0.232008(18)
N5_5 N 0.1064(3) 0.6637(2) 0.26427(14)
O6_3 O 0.3086(3) 0.80895(18) 0.18648(11)
O8_5 O 0.1690(3) 0.81644(19) 0.20179(11)
O10_5 O 0.4199(3) 0.9270(3) 0.06571(16)
O12_5 O 0.0705(3) 0.78841(19) 0.27392(12)
C33_5 C 0.2184(5) 0.8608(4) 0.1405(2)
C34_5 C 0.1339(5) 0.8723(5) 0.1288(3)
H26_5 H 0.0874 0.8610 0.1453
C35_5 C 0.1200(6) 0.9010(5) 0.0920(3)
H27_5 H 0.0633 0.9081 0.0832
C36_5 C 0.1869(6) 0.9186(5) 0.0687(3)
H28_5 H 0.1756 0.9360 0.0434
C37_5 C 0.2719(5) 0.9118(4) 0.0811(2)
C38_5 C 0.2863(5) 0.8801(3) 0.11736(18)
H29_5 H 0.3430 0.8722 0.1257
C39_5 C 0.2339(4) 0.8251(3) 0.17944(16)
C40_5 C 0.3430(4) 0.9330(3) 0.05506(19)
H30_3 H 0.267(4) 0.7195(15) 0.2776(17)
C1_5 C 0.9697(5) 0.7816(3) 0.1997(2)
H1_5 H 0.9856 0.8158 0.2139
C2_5 C 0.8897(5) 0.7809(3) 0.1791(2)
H2_5 H 0.8538 0.8143 0.1789
C3_5 C 0.8654(4) 0.7284(3) 0.15888(17)
C4_5 C 0.9208(4) 0.6820(3) 0.16009(19)
H3_5 H 0.9060 0.6463 0.1473
C5_5 C 0.9995(4) 0.6869(3) 0.18024(19)
C6_5 C 0.7845(4) 0.7251(2) 0.13440(15)
H5_5 H 0.7563 0.6864 0.1387
C7_5 C 0.7951(4) 0.7367(2) 0.08810(16)
H6_5 H 0.8382 0.7683 0.0837
C8_5 C 0.8160(4) 0.6844(2) 0.06145(16)
C9_5 C 0.7593(4) 0.6369(3) 0.0570(2)
H7_5 H 0.7062 0.6370 0.0707
C10_5 C 0.7806(4) 0.5912(3) 0.03329(19)
H8_5 H 0.7400 0.5609 0.0298
C11_5 C 0.9122(4) 0.6316(3) 0.01856(19)
H9_5 H 0.9656 0.6298 0.0053
C12_5 C 0.8935(4) 0.6794(3) 0.0414(2)
H10_5 H 0.9343 0.7099 0.0437
N3_5 N 0.4769(3) 0.7641(2) 0.19976(13)
N6_5 N 0.3936(3) 0.8363(2) 0.26427(14)
O13_5 O 0.4295(3) 0.71159(19) 0.27392(12)
C21_5 C 0.5303(5) 0.7184(3) 0.1997(2)
H16_5 H 0.5144 0.6842 0.2139
C22_5 C 0.6103(5) 0.7191(3) 0.1791(2)
H17_5 H 0.6462 0.6857 0.1789
C23_5 C 0.6346(4) 0.7716(3) 0.15888(17)
C24_5 C 0.5792(4) 0.8180(3) 0.16009(19)
H18_5 H 0.5940 0.8537 0.1473
C25_5 C 0.5005(4) 0.8131(3) 0.18024(19)
H19_5 H 0.4627 0.8455 0.1800
C26_5 C 0.7155(4) 0.7749(2) 0.13440(15)
H20_5 H 0.7437 0.8136 0.1387
C27_5 C 0.7049(4) 0.7633(2) 0.08810(16)
H21_5 H 0.6618 0.7317 0.0837
C28_5 C 0.6840(4) 0.8156(2) 0.06145(16)
C29_5 C 0.7407(4) 0.8631(3) 0.0570(2)
H22_5 H 0.7938 0.8630 0.0707
C30_5 C 0.7194(4) 0.9088(3) 0.03329(19)
H23_5 H 0.7600 0.9391 0.0298
C31_5 C 0.5878(4) 0.8684(3) 0.01856(19)
H24_5 H 0.5344 0.8702 0.0053
C32_5 C 0.6065(4) 0.8206(3) 0.0414(2)
H25_5 H 0.5657 0.7901 0.0437
C1_6 C 0.0303(5) 0.2184(3) 0.1997(2)
H1_6 H 0.0144 0.1842 0.2139
C2_6 C 0.1103(5) 0.2191(3) 0.1791(2)
H2_6 H 0.1462 0.1857 0.1789
C3_6 C 0.1346(4) 0.2716(3) 0.15888(17)
C4_6 C 0.0792(4) 0.3180(3) 0.16009(19)
H3_6 H 0.0940 0.3537 0.1473
C5_6 C 0.0005(4) 0.3131(3) 0.18024(19)
C6_6 C 0.2155(4) 0.2749(2) 0.13440(15)
H5_6 H 0.2437 0.3136 0.1387
C7_6 C 0.2049(4) 0.2633(2) 0.08810(16)
H6_6 H 0.1618 0.2317 0.0837
C8_6 C 0.1840(4) 0.3156(2) 0.06145(16)
C9_6 C 0.2407(4) 0.3631(3) 0.0570(2)
H7_6 H 0.2938 0.3630 0.0707
C10_6 C 0.2194(4) 0.4088(3) 0.03329(19)
H8_6 H 0.2600 0.4391 0.0298
C11_6 C 0.0878(4) 0.3684(3) 0.01856(19)
H9_6 H 0.0344 0.3702 0.0053
C12_6 C 0.1065(4) 0.3206(3) 0.0414(2)
H10_6 H 0.0657 0.2901 0.0437
Ni2_3 Ni 0.63841(4) 0.24041(3) 0.232008(18)
N3_6 N 0.5231(3) 0.2359(2) 0.19976(13)
N6_6 N 0.6064(3) 0.1637(2) 0.26427(14)
O7_3 O 0.6914(3) 0.19105(18) 0.18648(11)
O9_3 O 0.6690(3) 0.31644(19) 0.20179(11)
O13_6 O 0.5705(3) 0.28841(19) 0.27392(12)
O14_4 O 0.7500 0.2500 0.26787(16)
C21_6 C 0.4697(5) 0.2816(3) 0.1997(2)
H16_6 H 0.4856 0.3158 0.2139
C22_6 C 0.3897(5) 0.2809(3) 0.1791(2)
H17_6 H 0.3538 0.3143 0.1789
C23_6 C 0.3654(4) 0.2284(3) 0.15888(17)
C24_6 C 0.4208(4) 0.1820(3) 0.16009(19)
H18_6 H 0.4060 0.1463 0.1473
C25_6 C 0.4995(4) 0.1869(3) 0.18024(19)
H19_6 H 0.5373 0.1545 0.1800
C26_6 C 0.2845(4) 0.2251(2) 0.13440(15)
H20_6 H 0.2563 0.1864 0.1387
C27_6 C 0.2951(4) 0.2367(2) 0.08810(16)
H21_6 H 0.3382 0.2683 0.0837
C28_6 C 0.3160(4) 0.1844(2) 0.06145(16)
C29_6 C 0.2593(4) 0.1369(3) 0.0570(2)
H22_6 H 0.2062 0.1370 0.0707
C30_6 C 0.2806(4) 0.0912(3) 0.03329(19)
H23_6 H 0.2400 0.0609 0.0298
C31_6 C 0.4122(4) 0.1316(3) 0.01856(19)
H24_6 H 0.4656 0.1298 0.0053
C32_6 C 0.3935(4) 0.1794(3) 0.0414(2)
H25_6 H 0.4343 0.2099 0.0437
H31_3 H 0.733(4) 0.2805(15) 0.2776(17)
H32_3 H 0.767(4) 0.2195(15) 0.2776(17)
Ni1_6 Ni 0.86159(4) 0.25959(3) 0.232008(18)
N1_6 N 0.9769(3) 0.2641(2) 0.19976(13)
O1_6 O 0.8086(3) 0.30895(18) 0.18648(11)
O3_6 O 0.9199(3) 0.4270(3) 0.06571(16)
H4_6 H 0.9627 0.3455 0.1800
C13_6 C 0.7184(5) 0.3608(4) 0.1405(2)
C14_6 C 0.6339(5) 0.3723(5) 0.1288(3)
H11_6 H 0.5874 0.3610 0.1453
C15_6 C 0.6200(6) 0.4010(5) 0.0920(3)
H12_6 H 0.5633 0.4081 0.0832
C16_6 C 0.6869(6) 0.4186(5) 0.0687(3)
H13_6 H 0.6756 0.4360 0.0434
C17_6 C 0.7719(5) 0.4118(4) 0.0811(2)
C18_6 C 0.7863(5) 0.3801(3) 0.11736(18)
H14_6 H 0.8430 0.3722 0.1257
C19_6 C 0.7339(4) 0.3251(3) 0.17944(16)
C20_6 C 0.8430(4) 0.4330(3) 0.05506(19)
N5_6 N 0.8936(3) 0.3363(2) 0.26427(14)
O8_6 O 0.8310(3) 0.18356(19) 0.20179(11)
O10_6 O 0.5801(3) 0.0730(3) 0.06571(16)
O12_6 O 0.9295(3) 0.21159(19) 0.27392(12)
C33_6 C 0.7816(5) 0.1392(4) 0.1405(2)
C34_6 C 0.8661(5) 0.1277(5) 0.1288(3)
H26_6 H 0.9126 0.1390 0.1453
C35_6 C 0.8800(6) 0.0990(5) 0.0920(3)
H27_6 H 0.9367 0.0919 0.0832
C36_6 C 0.8131(6) 0.0814(5) 0.0687(3)
H28_6 H 0.8244 0.0640 0.0434
C37_6 C 0.7281(5) 0.0882(4) 0.0811(2)
C38_6 C 0.7137(5) 0.1199(3) 0.11736(18)
H29_6 H 0.6570 0.1278 0.1257
C39_6 C 0.7661(4) 0.1749(3) 0.17944(16)
C40_6 C 0.6570(4) 0.0670(3) 0.05506(19)
N1_7 N 0.2731(3) 0.5141(2) 0.44976(13)
O1_7 O 0.4414(3) 0.55895(18) 0.43648(11)
O2_4 O 0.5810(3) 0.56644(19) 0.45179(11)
O3_7 O 0.3301(3) 0.6770(3) 0.31571(16)
O5_5 O 0.5000 0.5000 0.51787(16)
C1_7 C 0.2197(5) 0.4684(3) 0.4497(2)
H1_7 H 0.2356 0.4342 0.4639
C2_7 C 0.1397(5) 0.4691(3) 0.4291(2)
H2_7 H 0.1038 0.4357 0.4289
C3_7 C 0.1154(4) 0.5216(3) 0.40888(17)
C4_7 C 0.1708(4) 0.5680(3) 0.41009(19)
H3_7 H 0.1560 0.6037 0.3973
C5_7 C 0.2495(4) 0.5631(3) 0.43024(19)
H4_7 H 0.2873 0.5955 0.4300
C6_7 C 0.0345(4) 0.5249(2) 0.38440(15)
H5_7 H 0.0063 0.5636 0.3887
C7_7 C 0.0451(4) 0.5133(2) 0.33810(16)
H6_7 H 0.0882 0.4817 0.3337
C8_7 C 0.0660(4) 0.5656(2) 0.31145(16)
C9_7 C 0.0093(4) 0.6131(3) 0.3070(2)
C10_7 C 0.0306(4) 0.6588(3) 0.28329(19)
C11_7 C 0.1622(4) 0.6184(3) 0.26856(19)
H9_7 H 0.2156 0.6202 0.2553
C12_7 C 0.1435(4) 0.5706(3) 0.2914(2)
H10_7 H 0.1843 0.5401 0.2937
C13_7 C 0.5316(5) 0.6108(4) 0.3905(2)
C14_7 C 0.6161(5) 0.6223(5) 0.3788(3)
H11_7 H 0.6626 0.6110 0.3953
C15_7 C 0.6300(6) 0.6510(5) 0.3420(3)
H12_7 H 0.6867 0.6581 0.3332
C16_7 C 0.5631(6) 0.6686(5) 0.3187(3)
H13_7 H 0.5744 0.6860 0.2934
C17_7 C 0.4781(5) 0.6618(4) 0.3311(2)
C18_7 C 0.4637(5) 0.6301(3) 0.36736(18)
H14_7 H 0.4070 0.6222 0.3757
C19_7 C 0.5161(4) 0.5751(3) 0.42944(16)
C20_7 C 0.4070(4) 0.6830(3) 0.30506(19)
H15_4 H 0.483(4) 0.4695(15) 0.5276(17)
O6_4 O 0.5586(3) 0.44105(18) 0.43648(11)
O8_7 O 0.4190(3) 0.43356(19) 0.45179(11)
O10_7 O 0.6699(3) 0.3230(3) 0.31571(16)
H22_7 H 0.0438 0.3870 0.3207
H23_7 H 0.0100 0.3109 0.2798
C33_7 C 0.4684(5) 0.3892(4) 0.3905(2)
C34_7 C 0.3839(5) 0.3777(5) 0.3788(3)
H26_7 H 0.3374 0.3890 0.3953
C35_7 C 0.3700(6) 0.3490(5) 0.3420(3)
H27_7 H 0.3133 0.3419 0.3332
C36_7 C 0.4369(6) 0.3314(5) 0.3187(3)
H28_7 H 0.4256 0.3140 0.2934
C37_7 C 0.5219(5) 0.3382(4) 0.3311(2)
C38_7 C 0.5363(5) 0.3699(3) 0.36736(18)
H29_7 H 0.5930 0.3778 0.3757
C39_7 C 0.4839(4) 0.4249(3) 0.42944(16)
C40_7 C 0.5930(4) 0.3170(3) 0.30506(19)
H30_4 H 0.517(4) 0.5305(15) 0.5276(17)
H7_7 H 0.9562 0.6130 0.3207
H8_7 H 0.9900 0.6891 0.2798
N3_7 N 0.7269(3) 0.4859(2) 0.44976(13)
C21_7 C 0.7803(5) 0.5316(3) 0.4497(2)
H16_7 H 0.7644 0.5658 0.4639
C22_7 C 0.8603(5) 0.5309(3) 0.4291(2)
H17_7 H 0.8962 0.5643 0.4289
C23_7 C 0.8846(4) 0.4784(3) 0.40888(17)
C24_7 C 0.8292(4) 0.4320(3) 0.41009(19)
H18_7 H 0.8440 0.3963 0.3973
C25_7 C 0.7505(4) 0.4369(3) 0.43024(19)
H19_7 H 0.7127 0.4045 0.4300
C26_7 C 0.9655(4) 0.4751(2) 0.38440(15)
H20_7 H 0.9937 0.4364 0.3887
C27_7 C 0.9549(4) 0.4867(2) 0.33810(16)
H21_7 H 0.9118 0.5183 0.3337
C28_7 C 0.9340(4) 0.4344(2) 0.31145(16)
C29_7 C 0.9907(4) 0.3869(3) 0.3070(2)
C30_7 C 0.9694(4) 0.3412(3) 0.28329(19)
C31_7 C 0.8378(4) 0.3816(3) 0.26856(19)
H24_7 H 0.7844 0.3798 0.2553
C32_7 C 0.8565(4) 0.4294(3) 0.2914(2)
H25_7 H 0.8157 0.4599 0.2937
O14_5 O 0.0000 0.0000 0.51787(16)
H32_4 H 0.017(4) 0.0305(15) 0.5276(17)
O14_6 O 0.0000 1.0000 0.51787(16)
C1_8 C 0.2803(5) 0.0316(3) 0.4497(2)
H1_8 H 0.2644 0.0658 0.4639
C2_8 C 0.3603(5) 0.0309(3) 0.4291(2)
H2_8 H 0.3962 0.0643 0.4289
H6_8 H 0.4118 0.0183 0.3337
N3_8 N 0.7731(3) 0.0141(2) 0.44976(13)
O7_4 O 0.9414(3) 0.05895(18) 0.43648(11)
O8_8 O 0.0810(3) 0.06644(19) 0.45179(11)
O14_7 O 1.0000 0.0000 0.51787(16)
C23_8 C 0.6154(4) 0.0216(3) 0.40888(17)
C24_8 C 0.6708(4) 0.0680(3) 0.41009(19)
H18_8 H 0.6560 0.1037 0.3973
C25_8 C 0.7495(4) 0.0631(3) 0.43024(19)
H19_8 H 0.7873 0.0955 0.4300
C26_8 C 0.5345(4) 0.0249(2) 0.38440(15)
H20_8 H 0.5063 0.0636 0.3887
C27_8 C 0.5451(4) 0.0133(2) 0.33810(16)
C28_8 C 0.5660(4) 0.0656(2) 0.31145(16)
C29_8 C 0.5093(4) 0.1131(3) 0.3070(2)
H22_8 H 0.4562 0.1130 0.3207
C30_8 C 0.5306(4) 0.1588(3) 0.28329(19)
H23_8 H 0.4900 0.1891 0.2798
C31_8 C 0.6622(4) 0.1184(3) 0.26856(19)
H24_8 H 0.7156 0.1202 0.2553
C32_8 C 0.6435(4) 0.0706(3) 0.2914(2)
H25_8 H 0.6843 0.0401 0.2937
C33_8 C 0.0316(5) 0.1108(4) 0.3905(2)
C34_8 C 0.1161(5) 0.1223(5) 0.3788(3)
H26_8 H 0.1626 0.1110 0.3953
C35_8 C 0.1300(6) 0.1510(5) 0.3420(3)
H27_8 H 0.1867 0.1581 0.3332
C36_8 C 0.0631(6) 0.1686(5) 0.3187(3)
H28_8 H 0.0744 0.1860 0.2934
C39_8 C 0.0161(4) 0.0751(3) 0.42944(16)
N1_8 N 0.2269(3) 0.9859(2) 0.44976(13)
O1_8 O 0.0586(3) 0.94105(18) 0.43648(11)
O3_8 O 0.1699(3) 0.8230(3) 0.31571(16)
C3_8 C 0.3846(4) 0.9784(3) 0.40888(17)
C4_8 C 0.3292(4) 0.9320(3) 0.41009(19)
H3_8 H 0.3440 0.8963 0.3973
C5_8 C 0.2505(4) 0.9369(3) 0.43024(19)
H4_8 H 0.2127 0.9045 0.4300
C6_8 C 0.4655(4) 0.9751(2) 0.38440(15)
H5_8 H 0.4937 0.9364 0.3887
C7_8 C 0.4549(4) 0.9867(2) 0.33810(16)
C8_8 C 0.4340(4) 0.9344(2) 0.31145(16)
C9_8 C 0.4907(4) 0.8869(3) 0.3070(2)
H7_8 H 0.5438 0.8870 0.3207
C10_8 C 0.4694(4) 0.8412(3) 0.28329(19)
H8_8 H 0.5100 0.8109 0.2798
C11_8 C 0.3378(4) 0.8816(3) 0.26856(19)
H9_8 H 0.2844 0.8798 0.2553
C12_8 C 0.3565(4) 0.9294(3) 0.2914(2)
H10_8 H 0.3157 0.9599 0.2937
C17_8 C 0.0219(5) 0.8382(4) 0.3311(2)
C18_8 C 0.0363(5) 0.8699(3) 0.36736(18)
H14_8 H 0.0930 0.8778 0.3757
C20_8 C 0.0930(4) 0.8170(3) 0.30506(19)
O9_4 O 0.9190(3) 0.93356(19) 0.45179(11)
O14_8 O 1.0000 1.0000 0.51787(16)
C21_8 C 0.7197(5) 0.9684(3) 0.4497(2)
H16_8 H 0.7356 0.9342 0.4639
C22_8 C 0.6397(5) 0.9691(3) 0.4291(2)
H17_8 H 0.6038 0.9357 0.4289
H21_8 H 0.5882 0.9817 0.3337
H31_4 H 0.983(4) 0.9695(15) 0.5276(17)
O10_8 O 0.8301(3) 0.1770(3) 0.31571(16)
C37_8 C 0.9781(5) 0.1618(4) 0.3311(2)
C38_8 C 0.9637(5) 0.1301(3) 0.36736(18)
H29_8 H 0.9070 0.1222 0.3757
C40_8 C 0.9070(4) 0.1830(3) 0.30506(19)
C13_8 C 0.9684(5) 0.8892(4) 0.3905(2)
C14_8 C 0.8839(5) 0.8777(5) 0.3788(3)
H11_8 H 0.8374 0.8890 0.3953
C15_8 C 0.8700(6) 0.8490(5) 0.3420(3)
H12_8 H 0.8133 0.8419 0.3332
C16_8 C 0.9369(6) 0.8314(5) 0.3187(3)
H13_8 H 0.9256 0.8140 0.2934
C19_8 C 0.9839(4) 0.9249(3) 0.42944(16)
loop_
_geom_bond_atom_site_label_1
_geom_bond_atom_site_label_2
_geom_bond_site_symmetry_1
_geom_bond_site_symmetry_2
Ni1 N1 1_555 1_555
O1 Ni1 1_555 1_555
O2 C19 1_555 1_555
O3 C20 1_555 1_555
O4 C20 1_555 1_555
O5 Ni1 1_555 1_555
C13 C14 1_555 1_555
C14 H11 1_555 1_555
C15 C14 1_555 1_555
H12 C15 1_555 1_555
C16 C15 1_555 1_555
H13 C16 1_555 1_555
C17 C16 1_555 1_555
C18 C13 1_555 1_555
H14 C18 1_555 1_555
C19 O1 1_555 1_555
C20 C17 1_555 1_555
H15 O5 1_555 1_555
Ni4 O2 1_555 1_555
Ni7 O11 1_555 1_555
N5 Ni1 1_555 1_555
O6 Ni4 1_555 1_555
O8 Ni1 1_555 1_555
O10 C40 1_555 1_555
O11 C40 1_555 1_555
O12 Ni1 1_555 1_555
C33 C34 1_555 1_555
C34 H26 1_555 1_555
C35 C34 1_555 1_555
H27 C35 1_555 1_555
C36 C35 1_555 1_555
H28 C36 1_555 1_555
C37 C36 1_555 1_555
C38 C33 1_555 1_555
H29 C38 1_555 1_555
C39 O6 1_555 1_555
C40 C37 1_555 1_555
H30 O5 1_555 1_555
O5 Ni4 1_555 1_555
C13 C19 1_555 1_555
C17 C18 1_555 1_555
O8 C39 1_555 1_555
C33 C39 1_555 1_555
C37 C38 1_555 1_555
N2 C10 1_555 1_555
C1 H1 1_555 1_555
C2 C1 1_555 1_555
H2 C2 1_555 1_555
C3 C2 1_555 1_555
C4 C3 1_555 1_555
H3 C4 1_555 1_555
C6 C3 1_555 1_555
H5 C6 1_555 1_555
C7 C6 1_555 1_555
H6 C7 1_555 1_555
C8 C7 1_555 1_555
C9 C8 1_555 1_555
H7 C9 1_555 1_555
C10 C9 1_555 1_555
H8 C10 1_555 1_555
C11 N2 1_555 1_555
H9 C11 1_555 1_555
C12 C8 1_555 1_555
H10 C12 1_555 1_555
Ni4 N3 1_555 1_555
Ni3 N2 1_555 1_555
Ni6 N4 1_555 1_555
N3 C21 1_555 1_555
N4 C30 1_555 1_555
N6 Ni4 1_555 1_555
O13 Ni4 1_555 1_555
C21 H16 1_555 1_555
C22 C21 1_555 1_555
H17 C22 1_555 1_555
C23 C22 1_555 1_555
C24 C23 1_555 1_555
H18 C24 1_555 1_555
C25 N3 1_555 1_555
H19 C25 1_555 1_555
C26 C6 1_555 1_555
H20 C26 1_555 1_555
C27 C7 1_555 1_555
H21 C27 1_555 1_555
C28 C27 1_555 1_555
C29 C28 1_555 1_555
H22 C29 1_555 1_555
C30 C29 1_555 1_555
H23 C30 1_555 1_555
C31 N4 1_555 1_555
H24 C31 1_555 1_555
C32 C28 1_555 1_555
H25 C32 1_555 1_555
C4 C5 1_555 1_555
C11 C12 1_555 1_555
C23 C26 1_555 1_555
C24 C25 1_555 1_555
C26 C27 1_555 1_555
C31 C32 1_555 1_555
N2_2 C10_2 1_555 1_555
C1_2 H1_2 1_555 1_555
C2_2 C1_2 1_555 1_555
H2_2 C2_2 1_555 1_555
C3_2 C2_2 1_555 1_555
C4_2 C3_2 1_555 1_555
H3_2 C4_2 1_555 1_555
C6_2 C3_2 1_555 1_555
H5_2 C6_2 1_555 1_555
C7_2 C6_2 1_555 1_555
H6_2 C7_2 1_555 1_555
C8_2 C7_2 1_555 1_555
C9_2 C8_2 1_555 1_555
H7_2 C9_2 1_555 1_555
C10_2 C9_2 1_555 1_555
H8_2 C10_2 1_555 1_555
C11_2 N2_2 1_555 1_555
H9_2 C11_2 1_555 1_555
C12_2 C8_2 1_555 1_555
H10_2 C12_2 1_555 1_555
Ni2 N3_2 1_555 1_555
Ni5 N2_2 1_555 1_555
Ni7 N4_2 1_555 1_555
N3_2 C21_2 1_555 1_555
N4_2 C30_2 1_555 1_555
N6_2 Ni2 1_555 1_555
O7 Ni2 1_555 1_555
O9 Ni2 1_555 1_555
O13_2 Ni2 1_555 1_555
O14 Ni2 1_555 1_555
C21_2 H16_2 1_555 1_555
C22_2 C21_2 1_555 1_555
H17_2 C22_2 1_555 1_555
C23_2 C22_2 1_555 1_555
C24_2 C23_2 1_555 1_555
H18_2 C24_2 1_555 1_555
C25_2 N3_2 1_555 1_555
H19_2 C25_2 1_555 1_555
C26_2 C6_2 1_555 1_555
H20_2 C26_2 1_555 1_555
C27_2 C7_2 1_555 1_555
H21_2 C27_2 1_555 1_555
C28_2 C27_2 1_555 1_555
C29_2 C28_2 1_555 1_555
H22_2 C29_2 1_555 1_555
C30_2 C29_2 1_555 1_555
H23_2 C30_2 1_555 1_555
C31_2 N4_2 1_555 1_555
H24_2 C31_2 1_555 1_555
C32_2 C28_2 1_555 1_555
H25_2 C32_2 1_555 1_555
H31 O14 1_555 1_555
H32 O14 1_555 1_555
C4_2 C5_2 1_555 1_555
C11_2 C12_2 1_555 1_555
C23_2 C26_2 1_555 1_555
C24_2 C25_2 1_555 1_555
C26_2 C27_2 1_555 1_555
C31_2 C32_2 1_555 1_555
Ni1_2 N1_2 1_555 1_555
O1_2 Ni1_2 1_555 1_555
O9 C19_2 1_555 1_555
O3_2 C20_2 1_555 1_555
O4_2 C20_2 1_555 1_555
O14 Ni1_2 1_555 1_555
C13_2 C14_2 1_555 1_555
C14_2 H11_2 1_555 1_555
C15_2 C14_2 1_555 1_555
H12_2 C15_2 1_555 1_555
C16_2 C15_2 1_555 1_555
H13_2 C16_2 1_555 1_555
C17_2 C16_2 1_555 1_555
C18_2 C13_2 1_555 1_555
H14_2 C18_2 1_555 1_555
C19_2 O1_2 1_555 1_555
C20_2 C17_2 1_555 1_555
Ni6 O11_2 1_555 1_555
N5_2 Ni1_2 1_555 1_555
O8_2 Ni1_2 1_555 1_555
O10_2 C40_2 1_555 1_555
O11_2 C40_2 1_555 1_555
O12_2 Ni1_2 1_555 1_555
C33_2 C34_2 1_555 1_555
C34_2 H26_2 1_555 1_555
C35_2 C34_2 1_555 1_555
H27_2 C35_2 1_555 1_555
C36_2 C35_2 1_555 1_555
H28_2 C36_2 1_555 1_555
C37_2 C36_2 1_555 1_555
C38_2 C33_2 1_555 1_555
H29_2 C38_2 1_555 1_555
C39_2 O7 1_555 1_555
C40_2 C37_2 1_555 1_555
C13_2 C19_2 1_555 1_555
C17_2 C18_2 1_555 1_555
O8_2 C39_2 1_555 1_555
C33_2 C39_2 1_555 1_555
C37_2 C38_2 1_555 1_555
H30_2 O5_2 1_555 1_555
Ni1_3 N1_3 1_555 1_555
N5 C10_3 1_555 1_555
O1_3 Ni1_3 1_555 1_555
O2_2 C19_3 1_555 1_555
O3_3 C20_3 1_555 1_555
O13 C20_3 1_555 1_555
C4_3 C3_3 1_555 1_555
H3_3 C4_3 1_555 1_555
C5_3 N1_3 1_555 1_555
H4_3 C5_3 1_555 1_555
C6_3 C3_3 1_555 1_555
H5_3 C6_3 1_555 1_555
C7_3 C6_3 1_555 1_555
C8_3 C7_3 1_555 1_555
C9_3 C8_3 1_555 1_555
C10_3 C9_3 1_555 1_555
C11_3 N5 1_555 1_555
H9_3 C11_3 1_555 1_555
C12_3 C8_3 1_555 1_555
H10_3 C12_3 1_555 1_555
C13_3 C14_3 1_555 1_555
C14_3 H11_3 1_555 1_555
C15_3 C14_3 1_555 1_555
H12_3 C15_3 1_555 1_555
C16_3 C15_3 1_555 1_555
H13_3 C16_3 1_555 1_555
C17_3 C16_3 1_555 1_555
C18_3 C13_3 1_555 1_555
H14_3 C18_3 1_555 1_555
C19_3 O1_3 1_555 1_555
C20_3 C17_3 1_555 1_555
C4_3 C5_3 1_555 1_555
C11_3 C12_3 1_555 1_555
C13_3 C19_3 1_555 1_555
C17_3 C18_3 1_555 1_555
H15_2 O5_3 1_555 1_555
C1_3 H1_3 1_555 1_555
C2_3 C1_3 1_555 1_555
H2_3 C2_3 1_555 1_555
O6_2 Ni4_2 1_555 1_555
O10_3 C40_3 1_555 1_555
O13_2 C40_3 1_555 1_555
C33_3 C34_3 1_555 1_555
C34_3 H26_3 1_555 1_555
C35_3 C34_3 1_555 1_555
H27_3 C35_3 1_555 1_555
C36_3 C35_3 1_555 1_555
H28_3 C36_3 1_555 1_555
C37_3 C36_3 1_555 1_555
C38_3 C33_3 1_555 1_555
H29_3 C38_3 1_555 1_555
C39_3 O6_2 1_555 1_555
C40_3 C37_3 1_555 1_555
O8_3 C39_3 1_555 1_555
C33_3 C39_3 1_555 1_555
C37_3 C38_3 1_555 1_555
C21_3 H16_3 1_555 1_555
C22_3 C21_3 1_555 1_555
H17_3 C22_3 1_555 1_555
Ni4_2 N3_3 1_555 1_555
N5_2 C30_3 1_555 1_555
C24_3 C23_3 1_555 1_555
H18_3 C24_3 1_555 1_555
C25_3 N3_3 1_555 1_555
H19_3 C25_3 1_555 1_555
H20_3 C26_3 1_555 1_555
C28_3 C27_3 1_555 1_555
C29_3 C28_3 1_555 1_555
C30_3 C29_3 1_555 1_555
C31_3 N5_2 1_555 1_555
H24_3 C31_3 1_555 1_555
C32_3 C28_3 1_555 1_555
H25_3 C32_3 1_555 1_555
C23_3 C26_3 1_555 1_555
C24_3 C25_3 1_555 1_555
C26_3 C27_3 1_555 1_555
C31_3 C32_3 1_555 1_555
H32_2 O14_2 1_555 1_555
H31_2 O14_3 1_555 1_555
Ni1_4 N1_4 1_555 1_555
N1_4 C1_4 1_555 1_555
N6 C10_4 1_555 1_555
O1_4 Ni1_4 1_555 1_555
O3_4 C20_4 1_555 1_555
O12 C20_4 1_555 1_555
C1_4 H1_4 1_555 1_555
C2_4 C1_4 1_555 1_555
H2_4 C2_4 1_555 1_555
C3_4 C2_4 1_555 1_555
C4_4 C3_4 1_555 1_555
H3_4 C4_4 1_555 1_555
C5_4 N1_4 1_555 1_555
H4_4 C5_4 1_555 1_555
C6_4 C3_4 1_555 1_555
H5_4 C6_4 1_555 1_555
C7_4 C6_4 1_555 1_555
H6_4 C7_4 1_555 1_555
C8_4 C7_4 1_555 1_555
C9_4 C8_4 1_555 1_555
H7_4 C9_4 1_555 1_555
C10_4 C9_4 1_555 1_555
H8_4 C10_4 1_555 1_555
C11_4 N6 1_555 1_555
H9_4 C11_4 1_555 1_555
C12_4 C8_4 1_555 1_555
H10_4 C12_4 1_555 1_555
H14_4 C18_4 1_555 1_555
C20_4 C17_4 1_555 1_555
Ni2_2 N3_4 1_555 1_555
N3_4 C21_4 1_555 1_555
N6_2 C30_4 1_555 1_555
O7_2 Ni2_2 1_555 1_555
O8_4 Ni1_4 1_555 1_555
O9_2 Ni2_2 1_555 1_555
C21_4 H16_4 1_555 1_555
C22_4 C21_4 1_555 1_555
H17_4 C22_4 1_555 1_555
C23_4 C22_4 1_555 1_555
C24_4 C23_4 1_555 1_555
H18_4 C24_4 1_555 1_555
C25_4 N3_4 1_555 1_555
H19_4 C25_4 1_555 1_555
C26_4 C6_4 1_555 1_555
H20_4 C26_4 1_555 1_555
C27_4 C7_4 1_555 1_555
H21_4 C27_4 1_555 1_555
C28_4 C27_4 1_555 1_555
C29_4 C28_4 1_555 1_555
H22_4 C29_4 1_555 1_555
C30_4 C29_4 1_555 1_555
H23_4 C30_4 1_555 1_555
C31_4 N6_2 1_555 1_555
H24_4 C31_4 1_555 1_555
C32_4 C28_4 1_555 1_555
H25_4 C32_4 1_555 1_555
C33_4 C34_4 1_555 1_555
C34_4 H26_4 1_555 1_555
C35_4 C34_4 1_555 1_555
H27_4 C35_4 1_555 1_555
C36_4 C35_4 1_555 1_555
H28_4 C36_4 1_555 1_555
C4_4 C5_4 1_555 1_555
C11_4 C12_4 1_555 1_555
C17_4 C18_4 1_555 1_555
O8_4 C39_4 1_555 1_555
C23_4 C26_4 1_555 1_555
C24_4 C25_4 1_555 1_555
C26_4 C27_4 1_555 1_555
C31_4 C32_4 1_555 1_555
C33_4 C39_4 1_555 1_555
O9_2 C19_4 1_555 1_555
C13_4 C14_4 1_555 1_555
C14_4 H11_4 1_555 1_555
C15_4 C14_4 1_555 1_555
H12_4 C15_4 1_555 1_555
C16_4 C15_4 1_555 1_555
H13_4 C16_4 1_555 1_555
O10_4 C40_4 1_555 1_555
O12_2 C40_4 1_555 1_555
H29_4 C38_4 1_555 1_555
C40_4 C37_4 1_555 1_555
C13_4 C19_4 1_555 1_555
C37_4 C38_4 1_555 1_555
Ni1_5 N1_5 1_555 1_555
O1_5 Ni1_5 1_555 1_555
O2_3 C19_5 1_555 1_555
O3_5 C20_5 1_555 1_555
O12_4 C20_5 1_555 1_555
O5_4 Ni1_5 1_555 1_555
C13_5 C14_5 1_555 1_555
C14_5 H11_5 1_555 1_555
C15_5 C14_5 1_555 1_555
H12_5 C15_5 1_555 1_555
C16_5 C15_5 1_555 1_555
H13_5 C16_5 1_555 1_555
C17_5 C16_5 1_555 1_555
C18_5 C13_5 1_555 1_555
H14_5 C18_5 1_555 1_555
C19_5 O1_5 1_555 1_555
C20_5 C17_5 1_555 1_555
H15_3 O5_4 1_555 1_555
Ni4_3 O2_3 1_555 1_555
N5_5 Ni1_5 1_555 1_555
O6_3 Ni4_3 1_555 1_555
O8_5 Ni1_5 1_555 1_555
O10_5 C40_5 1_555 1_555
O12_3 C40_5 1_555 1_555
O12_5 Ni1_5 1_555 1_555
C33_5 C34_5 1_555 1_555
C34_5 H26_5 1_555 1_555
C35_5 C34_5 1_555 1_555
H27_5 C35_5 1_555 1_555
C36_5 C35_5 1_555 1_555
H28_5 C36_5 1_555 1_555
C37_5 C36_5 1_555 1_555
C38_5 C33_5 1_555 1_555
H29_5 C38_5 1_555 1_555
C39_5 O6_3 1_555 1_555
C40_5 C37_5 1_555 1_555
H30_3 O5_4 1_555 1_555
O5_4 Ni4_3 1_555 1_555
C13_5 C19_5 1_555 1_555
C17_5 C18_5 1_555 1_555
O8_5 C39_5 1_555 1_555
C33_5 C39_5 1_555 1_555
C37_5 C38_5 1_555 1_555
N6_4 C10_5 1_555 1_555
C1_5 H1_5 1_555 1_555
C2_5 C1_5 1_555 1_555
H2_5 C2_5 1_555 1_555
C3_5 C2_5 1_555 1_555
C4_5 C3_5 1_555 1_555
H3_5 C4_5 1_555 1_555
C6_5 C3_5 1_555 1_555
H5_5 C6_5 1_555 1_555
C7_5 C6_5 1_555 1_555
H6_5 C7_5 1_555 1_555
C8_5 C7_5 1_555 1_555
C9_5 C8_5 1_555 1_555
H7_5 C9_5 1_555 1_555
C10_5 C9_5 1_555 1_555
H8_5 C10_5 1_555 1_555
C11_5 N6_4 1_555 1_555
H9_5 C11_5 1_555 1_555
C12_5 C8_5 1_555 1_555
H10_5 C12_5 1_555 1_555
Ni4_3 N3_5 1_555 1_555
N3_5 C21_5 1_555 1_555
N6_3 C30_5 1_555 1_555
N6_5 Ni4_3 1_555 1_555
O13_5 Ni4_3 1_555 1_555
C21_5 H16_5 1_555 1_555
C22_5 C21_5 1_555 1_555
H17_5 C22_5 1_555 1_555
C23_5 C22_5 1_555 1_555
C24_5 C23_5 1_555 1_555
H18_5 C24_5 1_555 1_555
C25_5 N3_5 1_555 1_555
H19_5 C25_5 1_555 1_555
C26_5 C6_5 1_555 1_555
H20_5 C26_5 1_555 1_555
C27_5 C7_5 1_555 1_555
H21_5 C27_5 1_555 1_555
C28_5 C27_5 1_555 1_555
C29_5 C28_5 1_555 1_555
H22_5 C29_5 1_555 1_555
C30_5 C29_5 1_555 1_555
H23_5 C30_5 1_555 1_555
C31_5 N6_3 1_555 1_555
H24_5 C31_5 1_555 1_555
C32_5 C28_5 1_555 1_555
H25_5 C32_5 1_555 1_555
C4_5 C5_5 1_555 1_555
C11_5 C12_5 1_555 1_555
C23_5 C26_5 1_555 1_555
C24_5 C25_5 1_555 1_555
C26_5 C27_5 1_555 1_555
C31_5 C32_5 1_555 1_555
N5_4 C10_6 1_555 1_555
C1_6 H1_6 1_555 1_555
C2_6 C1_6 1_555 1_555
H2_6 C2_6 1_555 1_555
C3_6 C2_6 1_555 1_555
C4_6 C3_6 1_555 1_555
H3_6 C4_6 1_555 1_555
C6_6 C3_6 1_555 1_555
H5_6 C6_6 1_555 1_555
C7_6 C6_6 1_555 1_555
H6_6 C7_6 1_555 1_555
C8_6 C7_6 1_555 1_555
C9_6 C8_6 1_555 1_555
H7_6 C9_6 1_555 1_555
C10_6 C9_6 1_555 1_555
H8_6 C10_6 1_555 1_555
C11_6 N5_4 1_555 1_555
H9_6 C11_6 1_555 1_555
C12_6 C8_6 1_555 1_555
H10_6 C12_6 1_555 1_555
Ni2_3 N3_6 1_555 1_555
N3_6 C21_6 1_555 1_555
N5_3 C30_6 1_555 1_555
N6_6 Ni2_3 1_555 1_555
O7_3 Ni2_3 1_555 1_555
O9_3 Ni2_3 1_555 1_555
O13_6 Ni2_3 1_555 1_555
O14_4 Ni2_3 1_555 1_555
C21_6 H16_6 1_555 1_555
C22_6 C21_6 1_555 1_555
H17_6 C22_6 1_555 1_555
C23_6 C22_6 1_555 1_555
C24_6 C23_6 1_555 1_555
H18_6 C24_6 1_555 1_555
C25_6 N3_6 1_555 1_555
H19_6 C25_6 1_555 1_555
C26_6 C6_6 1_555 1_555
H20_6 C26_6 1_555 1_555
C27_6 C7_6 1_555 1_555
H21_6 C27_6 1_555 1_555
C28_6 C27_6 1_555 1_555
C29_6 C28_6 1_555 1_555
H22_6 C29_6 1_555 1_555
C30_6 C29_6 1_555 1_555
H23_6 C30_6 1_555 1_555
C31_6 N5_3 1_555 1_555
H24_6 C31_6 1_555 1_555
C32_6 C28_6 1_555 1_555
H25_6 C32_6 1_555 1_555
H31_3 O14_4 1_555 1_555
H32_3 O14_4 1_555 1_555
C4_6 C5_6 1_555 1_555
C11_6 C12_6 1_555 1_555
C23_6 C26_6 1_555 1_555
C24_6 C25_6 1_555 1_555
C26_6 C27_6 1_555 1_555
C31_6 C32_6 1_555 1_555
Ni1_6 N1_6 1_555 1_555
O1_6 Ni1_6 1_555 1_555
O9_3 C19_6 1_555 1_555
O3_6 C20_6 1_555 1_555
O13_4 C20_6 1_555 1_555
O14_4 Ni1_6 1_555 1_555
C13_6 C14_6 1_555 1_555
C14_6 H11_6 1_555 1_555
C15_6 C14_6 1_555 1_555
H12_6 C15_6 1_555 1_555
C16_6 C15_6 1_555 1_555
H13_6 C16_6 1_555 1_555
C17_6 C16_6 1_555 1_555
C18_6 C13_6 1_555 1_555
H14_6 C18_6 1_555 1_555
C19_6 O1_6 1_555 1_555
C20_6 C17_6 1_555 1_555
N5_6 Ni1_6 1_555 1_555
O8_6 Ni1_6 1_555 1_555
O10_6 C40_6 1_555 1_555
O13_3 C40_6 1_555 1_555
O12_6 Ni1_6 1_555 1_555
C33_6 C34_6 1_555 1_555
C34_6 H26_6 1_555 1_555
C35_6 C34_6 1_555 1_555
H27_6 C35_6 1_555 1_555
C36_6 C35_6 1_555 1_555
H28_6 C36_6 1_555 1_555
C37_6 C36_6 1_555 1_555
C38_6 C33_6 1_555 1_555
H29_6 C38_6 1_555 1_555
C39_6 O7_3 1_555 1_555
C40_6 C37_6 1_555 1_555
C13_6 C19_6 1_555 1_555
C17_6 C18_6 1_555 1_555
O8_6 C39_6 1_555 1_555
C33_6 C39_6 1_555 1_555
C37_6 C38_6 1_555 1_555
Ni7 N1_7 1_555 1_555
N1_7 C1_7 1_555 1_555
N5_5 C10_7 1_555 1_555
O1_7 Ni7 1_555 1_555
O2_4 C19_7 1_555 1_555
O3_7 C20_7 1_555 1_555
O13_5 C20_7 1_555 1_555
O5_5 Ni7 1_555 1_555
C1_7 H1_7 1_555 1_555
C2_7 C1_7 1_555 1_555
H2_7 C2_7 1_555 1_555
C3_7 C2_7 1_555 1_555
C4_7 C3_7 1_555 1_555
H3_7 C4_7 1_555 1_555
C5_7 N1_7 1_555 1_555
H4_7 C5_7 1_555 1_555
C6_7 C3_7 1_555 1_555
H5_7 C6_7 1_555 1_555
C7_7 C6_7 1_555 1_555
H6_7 C7_7 1_555 1_555
C8_7 C7_7 1_555 1_555
C9_7 C8_7 1_555 1_555
C10_7 C9_7 1_555 1_555
C11_7 N5_5 1_555 1_555
H9_7 C11_7 1_555 1_555
C12_7 C8_7 1_555 1_555
H10_7 C12_7 1_555 1_555
C13_7 C14_7 1_555 1_555
C14_7 H11_7 1_555 1_555
C15_7 C14_7 1_555 1_555
H12_7 C15_7 1_555 1_555
C16_7 C15_7 1_555 1_555
H13_7 C16_7 1_555 1_555
C17_7 C16_7 1_555 1_555
C18_7 C13_7 1_555 1_555
H14_7 C18_7 1_555 1_555
C19_7 O1_7 1_555 1_555
C20_7 C17_7 1_555 1_555
H15_4 O5_5 1_555 1_555
Ni6 O2_4 1_555 1_555
O6_4 Ni6 1_555 1_555
O8_7 Ni7 1_555 1_555
O10_7 C40_7 1_555 1_555
O13_6 C40_7 1_555 1_555
C33_7 C34_7 1_555 1_555
C34_7 H26_7 1_555 1_555
C35_7 C34_7 1_555 1_555
H27_7 C35_7 1_555 1_555
C36_7 C35_7 1_555 1_555
H28_7 C36_7 1_555 1_555
C37_7 C36_7 1_555 1_555
C38_7 C33_7 1_555 1_555
H29_7 C38_7 1_555 1_555
C39_7 O6_4 1_555 1_555
C40_7 C37_7 1_555 1_555
H30_4 O5_5 1_555 1_555
O5_5 Ni6 1_555 1_555
C4_7 C5_7 1_555 1_555
C11_7 C12_7 1_555 1_555
C13_7 C19_7 1_555 1_555
C17_7 C18_7 1_555 1_555
O8_7 C39_7 1_555 1_555
C33_7 C39_7 1_555 1_555
C37_7 C38_7 1_555 1_555
Ni6 N3_7 1_555 1_555
N3_7 C21_7 1_555 1_555
N5_6 C30_7 1_555 1_555
C21_7 H16_7 1_555 1_555
C22_7 C21_7 1_555 1_555
H17_7 C22_7 1_555 1_555
C23_7 C22_7 1_555 1_555
C24_7 C23_7 1_555 1_555
H18_7 C24_7 1_555 1_555
C25_7 N3_7 1_555 1_555
H19_7 C25_7 1_555 1_555
H20_7 C26_7 1_555 1_555
H21_7 C27_7 1_555 1_555
C28_7 C27_7 1_555 1_555
C29_7 C28_7 1_555 1_555
C30_7 C29_7 1_555 1_555
C31_7 N5_6 1_555 1_555
H24_7 C31_7 1_555 1_555
C32_7 C28_7 1_555 1_555
H25_7 C32_7 1_555 1_555
C23_7 C26_7 1_555 1_555
C24_7 C25_7 1_555 1_555
C26_7 C27_7 1_555 1_555
C31_7 C32_7 1_555 1_555
H32_4 O14_5 1_555 1_555
C1_8 H1_8 1_555 1_555
C2_8 C1_8 1_555 1_555
H2_8 C2_8 1_555 1_555
Ni3 N3_8 1_555 1_555
N6_6 C30_8 1_555 1_555
O7_4 Ni3 1_555 1_555
O14_7 Ni3 1_555 1_555
C24_8 C23_8 1_555 1_555
H18_8 C24_8 1_555 1_555
C25_8 N3_8 1_555 1_555
H19_8 C25_8 1_555 1_555
H20_8 C26_8 1_555 1_555
C28_8 C27_8 1_555 1_555
C29_8 C28_8 1_555 1_555
H22_8 C29_8 1_555 1_555
C30_8 C29_8 1_555 1_555
H23_8 C30_8 1_555 1_555
C31_8 N6_6 1_555 1_555
H24_8 C31_8 1_555 1_555
C32_8 C28_8 1_555 1_555
H25_8 C32_8 1_555 1_555
C33_8 C34_8 1_555 1_555
C34_8 H26_8 1_555 1_555
C35_8 C34_8 1_555 1_555
H27_8 C35_8 1_555 1_555
C36_8 C35_8 1_555 1_555
H28_8 C36_8 1_555 1_555
O8_8 C39_8 1_555 1_555
C23_8 C26_8 1_555 1_555
C24_8 C25_8 1_555 1_555
C26_8 C27_8 1_555 1_555
C31_8 C32_8 1_555 1_555
C33_8 C39_8 1_555 1_555
Ni5 N1_8 1_555 1_555
N6_5 C10_8 1_555 1_555
O1_8 Ni5 1_555 1_555
O3_8 C20_8 1_555 1_555
O12_5 C20_8 1_555 1_555
O14_6 Ni5 1_555 1_555
C4_8 C3_8 1_555 1_555
H3_8 C4_8 1_555 1_555
C5_8 N1_8 1_555 1_555
H4_8 C5_8 1_555 1_555
C6_8 C3_8 1_555 1_555
H5_8 C6_8 1_555 1_555
C7_8 C6_8 1_555 1_555
C8_8 C7_8 1_555 1_555
C9_8 C8_8 1_555 1_555
H7_8 C9_8 1_555 1_555
C10_8 C9_8 1_555 1_555
H8_8 C10_8 1_555 1_555
C11_8 N6_5 1_555 1_555
H9_8 C11_8 1_555 1_555
C12_8 C8_8 1_555 1_555
H10_8 C12_8 1_555 1_555
H14_8 C18_8 1_555 1_555
C20_8 C17_8 1_555 1_555
C21_8 H16_8 1_555 1_555
C22_8 C21_8 1_555 1_555
H17_8 C22_8 1_555 1_555
H31_4 O14_8 1_555 1_555
C4_8 C5_8 1_555 1_555
C11_8 C12_8 1_555 1_555
C17_8 C18_8 1_555 1_555
O10_8 C40_8 1_555 1_555
O12_6 C40_8 1_555 1_555
H29_8 C38_8 1_555 1_555
C40_8 C37_8 1_555 1_555
C37_8 C38_8 1_555 1_555
O9_4 C19_8 1_555 1_555
C13_8 C14_8 1_555 1_555
C14_8 H11_8 1_555 1_555
C15_8 C14_8 1_555 1_555
H12_8 C15_8 1_555 1_555
C16_8 C15_8 1_555 1_555
H13_8 C16_8 1_555 1_555
C13_8 C19_8 1_555 1_555

#END
