
###############################################################################
#
# This file contains modified crystal structure data generated from the
# MOF subset of the Cambridge Structural Database (CSD) v543 
# hosted by the Cambridge Crystallographic Data Centre (CCDC).
#
# This work is licensed under the Creative Commons
# Attribution-NonCommercial-ShareAlike 4.0 International License.
# To view a copy of this license, visit
# http://creativecommons.org/licenses/by-nc-sa/4.0/
# or send a letter to
# Creative Commons, PO Box 1866, Mountain View, CA 94042, USA.
#
# CIF created using the CSD Python API on 29 September 2022
# The structure has been converted into the P1 space group
# The structure has a 3D framework
# The original CSD entry KALFOU is in the orthorhombic crystal system
# The framework has been calculated to contain at least 10.0% void space
# The void calculation uses a probe of radius 1.32A, grid spacing 0.4
#
###############################################################################

data_KALFOU
_chemical_formula_moiety         '(C320 H238 N32 Ni16 O72)n'
_symmetry_cell_setting           triclinic
_symmetry_space_group_name_H-M   'P 1'
_symmetry_Int_Tables_number      1
_space_group_name_Hall           'P 1'
loop_
_symmetry_equiv_pos_site_id
_symmetry_equiv_pos_as_xyz
1 x,y,z
_cell_length_a                   15.322(3)
_cell_length_b                   24.083(5)
_cell_length_c                   31.621(6)
_cell_angle_alpha                90
_cell_angle_beta                 90
_cell_angle_gamma                90
_cell_volume                     11668.1
loop_
_atom_site_label
_atom_site_type_symbol
_atom_site_fract_x
_atom_site_fract_y
_atom_site_fract_z
H10 H 0.0128 0.1828 0.6156
H11 H 0.0505 0.1033 0.5805
O7 O 0.4134(2) 0.06328(16) 0.43569(11)
O13 O 0.3153(2) 0.02841(16) 0.36133(11)
O14 O 0.5000 0.0000 0.36958(17)
H18 H 0.482(6) 0.024(3) 0.351(2)
C21 C 0.2162(4) 0.0270(3) 0.44073(19)
H19 H 0.2297 0.0584 0.4243
C22 C 0.1374(4) 0.0260(3) 0.4621(2)
H20 H 0.0981 0.0558 0.4595
H24 H 0.0916 0.0147 0.5674
Ni2 Ni 0.38851(4) 0.98913(3) 0.407371(19)
Ni6 Ni 0.13851(4) 0.76087(3) 0.657371(19)
N3 N 0.2734(3) 0.98611(19) 0.44221(14)
N4 N 0.1089(3) 0.8365(2) 0.62807(14)
N6 N 0.3589(3) 0.9135(2) 0.37807(14)
O9 O 0.4462(2) 0.94441(16) 0.45541(11)
O14_2 O 0.5000 1.0000 0.36958(17)
H17 H 0.518(6) 0.976(3) 0.351(2)
C23 C 0.1167(3) 0.9810(2) 0.48731(16)
C24 C 0.1760(4) 0.9374(3) 0.48783(19)
H21 H 0.1634 0.9050 0.5033
C25 C 0.2526(4) 0.9412(3) 0.46594(19)
H22 H 0.2923 0.9116 0.4674
C26 C 0.0355(3) 0.9771(2) 0.51325(16)
H23 H 0.0075 0.9406 0.5082
C27 C 0.0463(3) 0.9862(2) 0.56203(16)
C28 C 0.0650(3) 0.9356(2) 0.58726(15)
C29 C 0.1481(4) 0.9268(3) 0.6027(2)
H25 H 0.1917 0.9539 0.5992
C30 C 0.1663(4) 0.8772(3) 0.6236(2)
H26 H 0.2224 0.8724 0.6351
C31 C 0.0294(4) 0.8452(3) 0.6124(2)
C32 C 0.0061(4) 0.8931(3) 0.5917(2)
Ni1 Ni 0.61149(4) 0.01087(3) 0.407371(19)
N1 N 0.7266(3) 0.01389(19) 0.44221(14)
N2 N 0.8911(3) 0.1635(2) 0.62807(14)
C3 C 0.8833(3) 0.0190(2) 0.48731(16)
C4 C 0.8240(4) 0.0626(3) 0.48783(19)
H4 H 0.8366 0.0950 0.5033
C5 C 0.7474(4) 0.0588(3) 0.46594(19)
H5 H 0.7077 0.0884 0.4674
C6 C 0.9645(3) 0.0229(2) 0.51325(16)
H6 H 0.9925 0.0594 0.5082
C7 C 0.9537(3) 0.0138(2) 0.56203(16)
C8 C 0.9350(3) 0.0644(2) 0.58726(15)
C9 C 0.8519(4) 0.0732(3) 0.6027(2)
H8 H 0.8083 0.0461 0.5992
C10 C 0.8337(4) 0.1228(3) 0.6236(2)
H9 H 0.7776 0.1276 0.6351
C11 C 0.9706(4) 0.1548(3) 0.6124(2)
C12 C 0.9939(4) 0.1069(3) 0.5917(2)
Ni3 Ni 0.86149(4) 0.23913(3) 0.657371(19)
Ni7 Ni 0.63851(4) 0.26087(3) 0.657371(19)
N5 N 0.6411(3) 0.0865(2) 0.37807(14)
O8 O 0.5538(2) 0.05559(16) 0.45541(11)
O10 O 0.6658(3) 0.1828(2) 0.57005(14)
O11 O 0.5653(2) 0.22159(16) 0.61133(11)
C33 C 0.4631(4) 0.1181(3) 0.49284(18)
C34 C 0.3814(4) 0.1408(4) 0.4982(2)
H29 H 0.3358 0.1303 0.4799
C35 C 0.3656(5) 0.1783(4) 0.5297(3)
H30 H 0.3093 0.1933 0.5327
C36 C 0.4300(4) 0.1946(3) 0.5568(2)
H31 H 0.4176 0.2191 0.5791
C37 C 0.5153(4) 0.1742(3) 0.55082(19)
C38 C 0.5310(4) 0.1364(3) 0.51825(17)
H32 H 0.5880 0.1232 0.5135
C39 C 0.5890(4) 0.1943(3) 0.57925(17)
C40 C 0.4789(3) 0.0749(2) 0.45878(16)
O1 O 0.5866(2) 0.93672(16) 0.43569(11)
O3 O 0.3342(3) 0.8172(2) 0.57005(14)
O4 O 0.4347(2) 0.77841(16) 0.61133(11)
C1 C 0.7838(4) 0.9730(3) 0.44073(19)
H2 H 0.7703 0.9416 0.4243
C2 C 0.8626(4) 0.9740(3) 0.4621(2)
H3 H 0.9019 0.9442 0.4595
H7 H 0.9084 0.9853 0.5674
C13 C 0.5369(4) 0.8819(3) 0.49284(18)
C14 C 0.6186(4) 0.8592(4) 0.4982(2)
H12 H 0.6642 0.8697 0.4799
C15 C 0.6344(5) 0.8217(4) 0.5297(3)
H13 H 0.6907 0.8067 0.5327
C16 C 0.5700(4) 0.8054(3) 0.5568(2)
H14 H 0.5824 0.7809 0.5791
C17 C 0.4847(4) 0.8258(3) 0.55082(19)
C18 C 0.4690(4) 0.8636(3) 0.51825(17)
H15 H 0.4120 0.8768 0.5135
C19 C 0.4110(4) 0.8057(3) 0.57925(17)
C20 C 0.5211(3) 0.9251(2) 0.45878(16)
Ni5 Ni 0.36149(4) 0.73913(3) 0.657371(19)
O12 O 0.6847(2) 0.97159(16) 0.36133(11)
H27 H 0.9872 0.8172 0.6156
H28 H 0.9495 0.8967 0.5805
N2_2 N 0.1411(3) 0.0865(2) 0.87807(14)
C1_2 C 0.0338(4) 0.2770(3) 0.69073(19)
H2_2 H 0.0203 0.3084 0.6743
C2_2 C 0.1126(4) 0.2760(3) 0.7121(2)
H3_2 H 0.1519 0.3058 0.7095
C3_2 C 0.1333(3) 0.2310(2) 0.73731(16)
C4_2 C 0.0740(4) 0.1874(3) 0.73783(19)
H4_2 H 0.0866 0.1550 0.7533
C6_2 C 0.2145(3) 0.2271(2) 0.76325(16)
H6_2 H 0.2425 0.1906 0.7582
C7_2 C 0.2037(3) 0.2362(2) 0.81203(16)
H7_2 H 0.1584 0.2647 0.8174
C8_2 C 0.1850(3) 0.1856(2) 0.83726(15)
C9_2 C 0.1019(4) 0.1768(3) 0.8527(2)
H8_2 H 0.0583 0.2039 0.8492
C10_2 C 0.0837(4) 0.1272(3) 0.8736(2)
H9_2 H 0.0276 0.1224 0.8851
C11_2 C 0.2206(4) 0.0952(3) 0.8624(2)
H10_2 H 0.2628 0.0672 0.8656
C12_2 C 0.2439(4) 0.1431(3) 0.8417(2)
H11_2 H 0.3005 0.1467 0.8305
Ni3_2 Ni 0.11149(4) 0.01087(3) 0.907371(19)
Ni6_2 Ni 0.38851(4) 0.48913(3) 0.907371(19)
N3_2 N 0.5234(3) 0.26389(19) 0.69221(14)
N4_2 N 0.3589(3) 0.4135(2) 0.87807(14)
N6_2 N 0.6089(3) 0.3365(2) 0.62807(14)
O7_2 O 0.6634(2) 0.18672(16) 0.68569(11)
O9_2 O 0.6962(2) 0.30559(16) 0.70541(11)
O14_3 O 0.7500 0.2500 0.61958(17)
H17_2 H 0.768(6) 0.274(3) 0.601(2)
H18_2 H 0.732(6) 0.226(3) 0.601(2)
C21_2 C 0.4662(4) 0.2230(3) 0.69073(19)
H19_2 H 0.4797 0.1916 0.6743
C22_2 C 0.3874(4) 0.2240(3) 0.7121(2)
H20_2 H 0.3481 0.1942 0.7095
C23_2 C 0.3667(3) 0.2690(2) 0.73731(16)
C24_2 C 0.4260(4) 0.3126(3) 0.73783(19)
H21_2 H 0.4134 0.3450 0.7533
C25_2 C 0.5026(4) 0.3088(3) 0.71594(19)
H22_2 H 0.5423 0.3384 0.7174
C26_2 C 0.2855(3) 0.2729(2) 0.76325(16)
H23_2 H 0.2575 0.3094 0.7582
C27_2 C 0.2963(3) 0.2638(2) 0.81203(16)
H24_2 H 0.3416 0.2353 0.8174
C28_2 C 0.3150(3) 0.3144(2) 0.83726(15)
C29_2 C 0.3981(4) 0.3232(3) 0.8527(2)
H25_2 H 0.4417 0.2961 0.8492
C30_2 C 0.4163(4) 0.3728(3) 0.8736(2)
H26_2 H 0.4724 0.3776 0.8851
C31_2 C 0.2794(4) 0.4048(3) 0.8624(2)
H27_2 H 0.2372 0.4328 0.8656
C32_2 C 0.2561(4) 0.3569(3) 0.8417(2)
H28_2 H 0.1995 0.3533 0.8305
N1_2 N 0.9766(3) 0.23611(19) 0.69221(14)
O1_2 O 0.8366(2) 0.31328(16) 0.68569(11)
O3_2 O 0.5842(3) 0.4328(2) 0.82005(14)
O4_2 O 0.6847(2) 0.47159(16) 0.86133(11)
C5_2 C 0.9974(4) 0.1912(3) 0.71594(19)
H5_2 H 0.9577 0.1616 0.7174
C13_2 C 0.7869(4) 0.3681(3) 0.74284(18)
C14_2 C 0.8686(4) 0.3908(4) 0.7482(2)
H12_2 H 0.9142 0.3803 0.7299
C15_2 C 0.8844(5) 0.4283(4) 0.7797(3)
H13_2 H 0.9407 0.4433 0.7827
C16_2 C 0.8200(4) 0.4446(3) 0.8068(2)
H14_2 H 0.8324 0.4691 0.8291
C17_2 C 0.7347(4) 0.4242(3) 0.80082(19)
C18_2 C 0.7190(4) 0.3864(3) 0.76825(17)
H15_2 H 0.6620 0.3732 0.7635
C19_2 C 0.6610(4) 0.4443(3) 0.82925(17)
C20_2 C 0.7711(3) 0.3249(2) 0.70878(16)
Ni5_2 Ni 0.61149(4) 0.51087(3) 0.907371(19)
O8_2 O 0.8038(2) 0.19441(16) 0.70541(11)
O10_2 O 0.9158(3) 0.0672(2) 0.82005(14)
O11_2 O 0.8153(2) 0.02841(16) 0.86133(11)
O12_2 O 0.9347(2) 0.27841(16) 0.61133(11)
C33_2 C 0.7131(4) 0.1319(3) 0.74284(18)
C34_2 C 0.6314(4) 0.1092(4) 0.7482(2)
H29_2 H 0.5858 0.1197 0.7299
C35_2 C 0.6156(5) 0.0717(4) 0.7797(3)
H30_2 H 0.5593 0.0567 0.7827
C36_2 C 0.6800(4) 0.0554(3) 0.8068(2)
H31_2 H 0.6676 0.0309 0.8291
C37_2 C 0.7653(4) 0.0758(3) 0.80082(19)
C38_2 C 0.7810(4) 0.1136(3) 0.76825(17)
H32_2 H 0.8380 0.1268 0.7635
C39_2 C 0.8390(4) 0.0557(3) 0.82925(17)
C40_2 C 0.7289(3) 0.1751(2) 0.70878(16)
Ni7_2 Ni 0.88851(4) 0.98913(3) 0.907371(19)
H10_3 H 0.0128 0.6828 0.1156
H11_3 H 0.0505 0.6033 0.0805
Ni6_3 Ni 0.13851(4) 0.26087(3) 0.157371(19)
N4_3 N 0.1089(3) 0.3365(2) 0.12807(14)
H21_3 H 0.1634 0.4050 0.0033
C26_3 C 0.0355(3) 0.4771(2) 0.01325(16)
H23_3 H 0.0075 0.4406 0.0082
C27_3 C 0.0463(3) 0.4862(2) 0.06203(16)
H24_3 H 0.0916 0.5147 0.0674
C28_3 C 0.0650(3) 0.4356(2) 0.08726(15)
C29_3 C 0.1481(4) 0.4268(3) 0.1027(2)
H25_3 H 0.1917 0.4539 0.0992
C30_3 C 0.1663(4) 0.3772(3) 0.1236(2)
H26_3 H 0.2224 0.3724 0.1351
C31_3 C 0.0294(4) 0.3452(3) 0.1124(2)
C32_3 C 0.0061(4) 0.3931(3) 0.0917(2)
N3_3 N 0.2734(3) 0.48611(19) 0.94221(14)
O7_3 O 0.4134(2) 0.56328(16) 0.93569(11)
O9_3 O 0.4462(2) 0.44441(16) 0.95541(11)
O13_2 O 0.3153(2) 0.52841(16) 0.86133(11)
O14_4 O 0.5000 0.5000 0.86958(17)
H17_3 H 0.518(6) 0.476(3) 0.851(2)
H18_3 H 0.482(6) 0.524(3) 0.851(2)
C21_3 C 0.2162(4) 0.5270(3) 0.94073(19)
H19_3 H 0.2297 0.5584 0.9243
C22_3 C 0.1374(4) 0.5260(3) 0.9621(2)
H20_3 H 0.0981 0.5558 0.9595
C23_3 C 0.1167(3) 0.4810(2) 0.98731(16)
C24_3 C 0.1760(4) 0.4374(3) 0.98783(19)
C25_3 C 0.2526(4) 0.4412(3) 0.96594(19)
H22_3 H 0.2923 0.4116 0.9674
N2_3 N 0.8911(3) 0.6635(2) 0.12807(14)
O3_3 O 0.3342(3) 0.3172(2) 0.07005(14)
O4_3 O 0.4347(2) 0.27841(16) 0.11133(11)
H4_3 H 0.8366 0.5950 0.0033
C6_3 C 0.9645(3) 0.5229(2) 0.01325(16)
H6_3 H 0.9925 0.5594 0.0082
C7_3 C 0.9537(3) 0.5138(2) 0.06203(16)
H7_3 H 0.9084 0.4853 0.0674
C8_3 C 0.9350(3) 0.5644(2) 0.08726(15)
C9_3 C 0.8519(4) 0.5732(3) 0.1027(2)
H8_3 H 0.8083 0.5461 0.0992
C10_3 C 0.8337(4) 0.6228(3) 0.1236(2)
H9_3 H 0.7776 0.6276 0.1351
C11_3 C 0.9706(4) 0.6548(3) 0.1124(2)
C12_3 C 0.9939(4) 0.6069(3) 0.0917(2)
C15_3 C 0.6344(5) 0.3217(4) 0.0297(3)
H13_3 H 0.6907 0.3067 0.0327
C16_3 C 0.5700(4) 0.3054(3) 0.0568(2)
H14_3 H 0.5824 0.2809 0.0791
C17_3 C 0.4847(4) 0.3258(3) 0.05082(19)
C18_3 C 0.4690(4) 0.3636(3) 0.01825(17)
H15_3 H 0.4120 0.3768 0.0135
C19_3 C 0.4110(4) 0.3057(3) 0.07925(17)
Ni3_3 Ni 0.86149(4) 0.73913(3) 0.157371(19)
Ni5_3 Ni 0.36149(4) 0.23913(3) 0.157371(19)
Ni7_3 Ni 0.63851(4) 0.76087(3) 0.157371(19)
O10_3 O 0.6658(3) 0.6828(2) 0.07005(14)
O11_3 O 0.5653(2) 0.72159(16) 0.11133(11)
H27_3 H 0.9872 0.3172 0.1156
H28_3 H 0.9495 0.3967 0.0805
C35_3 C 0.3656(5) 0.6783(4) 0.0297(3)
H30_3 H 0.3093 0.6933 0.0327
C36_3 C 0.4300(4) 0.6946(3) 0.0568(2)
H31_3 H 0.4176 0.7191 0.0791
C37_3 C 0.5153(4) 0.6742(3) 0.05082(19)
C38_3 C 0.5310(4) 0.6364(3) 0.01825(17)
H32_3 H 0.5880 0.6232 0.0135
C39_3 C 0.5890(4) 0.6943(3) 0.07925(17)
N1_3 N 0.7266(3) 0.51389(19) 0.94221(14)
O1_3 O 0.5866(2) 0.43672(16) 0.93569(11)
C1_3 C 0.7838(4) 0.4730(3) 0.94073(19)
H2_3 H 0.7703 0.4416 0.9243
C2_3 C 0.8626(4) 0.4740(3) 0.9621(2)
H3_3 H 0.9019 0.4442 0.9595
C3_3 C 0.8833(3) 0.5190(2) 0.98731(16)
C4_3 C 0.8240(4) 0.5626(3) 0.98783(19)
C5_3 C 0.7474(4) 0.5588(3) 0.96594(19)
H5_3 H 0.7077 0.5884 0.9674
C13_3 C 0.5369(4) 0.3819(3) 0.99284(18)
C14_3 C 0.6186(4) 0.3592(4) 0.9982(2)
H12_3 H 0.6642 0.3697 0.9799
C20_3 C 0.5211(3) 0.4251(2) 0.95878(16)
N5_2 N 0.6411(3) 0.5865(2) 0.87807(14)
O8_3 O 0.5538(2) 0.55559(16) 0.95541(11)
C33_3 C 0.4631(4) 0.6181(3) 0.99284(18)
C34_3 C 0.3814(4) 0.6408(4) 0.9982(2)
H29_3 H 0.3358 0.6303 0.9799
C40_3 C 0.4789(3) 0.5749(2) 0.95878(16)
N2_4 N 0.1411(3) 0.5865(2) 0.37807(14)
C1_4 C 0.0338(4) 0.7770(3) 0.19073(19)
H2_4 H 0.0203 0.8084 0.1743
C2_4 C 0.1126(4) 0.7760(3) 0.2121(2)
H3_4 H 0.1519 0.8058 0.2095
C3_4 C 0.1333(3) 0.7310(2) 0.23731(16)
C4_4 C 0.0740(4) 0.6874(3) 0.23783(19)
H4_4 H 0.0866 0.6550 0.2533
C6_4 C 0.2145(3) 0.7271(2) 0.26325(16)
H6_4 H 0.2425 0.6906 0.2582
C7_4 C 0.2037(3) 0.7362(2) 0.31203(16)
H7_4 H 0.1584 0.7647 0.3174
C8_4 C 0.1850(3) 0.6856(2) 0.33726(15)
C9_4 C 0.1019(4) 0.6768(3) 0.3527(2)
H8_4 H 0.0583 0.7039 0.3492
C10_4 C 0.0837(4) 0.6272(3) 0.3736(2)
H9_4 H 0.0276 0.6224 0.3851
C11_4 C 0.2206(4) 0.5952(3) 0.3624(2)
H10_4 H 0.2628 0.5672 0.3656
C12_4 C 0.2439(4) 0.6431(3) 0.3417(2)
H11_4 H 0.3005 0.6467 0.3305
Ni3_4 Ni 0.11149(4) 0.51087(3) 0.407371(19)
N3_4 N 0.5234(3) 0.76389(19) 0.19221(14)
N6_3 N 0.6089(3) 0.8365(2) 0.12807(14)
O7_4 O 0.6634(2) 0.68672(16) 0.18569(11)
O9_4 O 0.6962(2) 0.80559(16) 0.20541(11)
O14_5 O 0.7500 0.7500 0.11958(17)
H17_4 H 0.768(6) 0.774(3) 0.101(2)
H18_4 H 0.732(6) 0.726(3) 0.101(2)
C21_4 C 0.4662(4) 0.7230(3) 0.19073(19)
H19_4 H 0.4797 0.6916 0.1743
C22_4 C 0.3874(4) 0.7240(3) 0.2121(2)
H20_4 H 0.3481 0.6942 0.2095
C23_4 C 0.3667(3) 0.7690(2) 0.23731(16)
C24_4 C 0.4260(4) 0.8126(3) 0.23783(19)
H21_4 H 0.4134 0.8450 0.2533
C25_4 C 0.5026(4) 0.8088(3) 0.21594(19)
H22_4 H 0.5423 0.8384 0.2174
C26_4 C 0.2855(3) 0.7729(2) 0.26325(16)
H23_4 H 0.2575 0.8094 0.2582
C27_4 C 0.2963(3) 0.7638(2) 0.31203(16)
H24_4 H 0.3416 0.7353 0.3174
C28_4 C 0.3150(3) 0.8144(2) 0.33726(15)
C29_4 C 0.3981(4) 0.8232(3) 0.3527(2)
H25_4 H 0.4417 0.7961 0.3492
C30_4 C 0.4163(4) 0.8728(3) 0.3736(2)
H26_4 H 0.4724 0.8776 0.3851
C31_4 C 0.2794(4) 0.9048(3) 0.3624(2)
H27_4 H 0.2372 0.9328 0.3656
C32_4 C 0.2561(4) 0.8569(3) 0.3417(2)
H28_4 H 0.1995 0.8533 0.3305
N1_4 N 0.9766(3) 0.73611(19) 0.19221(14)
O1_4 O 0.8366(2) 0.81328(16) 0.18569(11)
O3_4 O 0.5842(3) 0.9328(2) 0.32005(14)
C5_4 C 0.9974(4) 0.6912(3) 0.21594(19)
H5_4 H 0.9577 0.6616 0.2174
C13_4 C 0.7869(4) 0.8681(3) 0.24284(18)
C14_4 C 0.8686(4) 0.8908(4) 0.2482(2)
H12_4 H 0.9142 0.8803 0.2299
C15_4 C 0.8844(5) 0.9283(4) 0.2797(3)
H13_4 H 0.9407 0.9433 0.2827
C16_4 C 0.8200(4) 0.9446(3) 0.3068(2)
H14_4 H 0.8324 0.9691 0.3291
C17_4 C 0.7347(4) 0.9242(3) 0.30082(19)
C18_4 C 0.7190(4) 0.8864(3) 0.26825(17)
H15_4 H 0.6620 0.8732 0.2635
C19_4 C 0.6610(4) 0.9443(3) 0.32925(17)
C20_4 C 0.7711(3) 0.8249(2) 0.20878(16)
Ni7_4 Ni 0.88851(4) 0.48913(3) 0.407371(19)
O8_4 O 0.8038(2) 0.69441(16) 0.20541(11)
O10_4 O 0.9158(3) 0.5672(2) 0.32005(14)
O11_4 O 0.8153(2) 0.52841(16) 0.36133(11)
O12_3 O 0.9347(2) 0.77841(16) 0.11133(11)
C33_4 C 0.7131(4) 0.6319(3) 0.24284(18)
C34_4 C 0.6314(4) 0.6092(4) 0.2482(2)
H29_4 H 0.5858 0.6197 0.2299
C35_4 C 0.6156(5) 0.5717(4) 0.2797(3)
H30_4 H 0.5593 0.5567 0.2827
C36_4 C 0.6800(4) 0.5554(3) 0.3068(2)
H31_4 H 0.6676 0.5309 0.3291
C37_4 C 0.7653(4) 0.5758(3) 0.30082(19)
C38_4 C 0.7810(4) 0.6136(3) 0.26825(17)
H32_4 H 0.8380 0.6268 0.2635
C39_4 C 0.8390(4) 0.5557(3) 0.32925(17)
C40_4 C 0.7289(3) 0.6751(2) 0.20878(16)
O14_6 O 0.0000 0.0000 0.86958(17)
O14_7 O 0.0000 1.0000 0.86958(17)
H17_5 H 0.018(6) 0.976(3) 0.851(2)
N2_5 N 0.3911(3) 0.1635(2) 0.12807(14)
H4_5 H 0.3366 0.0950 0.0033
C6_5 C 0.4645(3) 0.0229(2) 0.01325(16)
H6_5 H 0.4925 0.0594 0.0082
C7_5 C 0.4537(3) 0.0138(2) 0.06203(16)
C8_5 C 0.4350(3) 0.0644(2) 0.08726(15)
C9_5 C 0.3519(4) 0.0732(3) 0.1027(2)
H8_5 H 0.3083 0.0461 0.0992
C10_5 C 0.3337(4) 0.1228(3) 0.1236(2)
H9_5 H 0.2776 0.1276 0.1351
C11_5 C 0.4706(4) 0.1548(3) 0.1124(2)
H10_5 H 0.5128 0.1828 0.1156
C12_5 C 0.4939(4) 0.1069(3) 0.0917(2)
H11_5 H 0.5505 0.1033 0.0805
O10_5 O 0.1658(3) 0.1828(2) 0.07005(14)
O11_5 O 0.0653(2) 0.22159(16) 0.11133(11)
H24_5 H 0.5916 0.0147 0.0674
C37_5 C 0.0153(4) 0.1742(3) 0.05082(19)
C38_5 C 0.0310(4) 0.1364(3) 0.01825(17)
H32_5 H 0.0880 0.1232 0.0135
C39_5 C 0.0890(4) 0.1943(3) 0.07925(17)
N1_5 N 0.2266(3) 0.01389(19) 0.94221(14)
C3_5 C 0.3833(3) 0.0190(2) 0.98731(16)
C4_5 C 0.3240(4) 0.0626(3) 0.98783(19)
C5_5 C 0.2474(4) 0.0588(3) 0.96594(19)
H5_5 H 0.2077 0.0884 0.9674
O7_5 O 0.9134(2) 0.06328(16) 0.93569(11)
O8_5 O 0.0538(2) 0.05559(16) 0.95541(11)
O14_8 O 1.0000 0.0000 0.86958(17)
H18_5 H 0.982(6) 0.024(3) 0.851(2)
C21_5 C 0.7162(4) 0.0270(3) 0.94073(19)
H19_5 H 0.7297 0.0584 0.9243
C22_5 C 0.6374(4) 0.0260(3) 0.9621(2)
H20_5 H 0.5981 0.0558 0.9595
H7_5 H 0.4084 0.9853 0.0674
C15_5 C 0.1344(5) 0.8217(4) 0.0297(3)
H13_5 H 0.1907 0.8067 0.0327
C16_5 C 0.0700(4) 0.8054(3) 0.0568(2)
H14_5 H 0.0824 0.7809 0.0791
H21_5 H 0.6634 0.9050 0.0033
C26_5 C 0.5355(3) 0.9771(2) 0.01325(16)
H23_5 H 0.5075 0.9406 0.0082
C27_5 C 0.5463(3) 0.9862(2) 0.06203(16)
C28_5 C 0.5650(3) 0.9356(2) 0.08726(15)
C29_5 C 0.6481(4) 0.9268(3) 0.1027(2)
H25_5 H 0.6917 0.9539 0.0992
C30_5 C 0.6663(4) 0.8772(3) 0.1236(2)
H26_5 H 0.7224 0.8724 0.1351
C31_5 C 0.5294(4) 0.8452(3) 0.1124(2)
H27_5 H 0.4872 0.8172 0.1156
C32_5 C 0.5061(4) 0.8931(3) 0.0917(2)
H28_5 H 0.4495 0.8967 0.0805
O1_5 O 0.0866(2) 0.93672(16) 0.93569(11)
C1_5 C 0.2838(4) 0.9730(3) 0.94073(19)
H2_5 H 0.2703 0.9416 0.9243
C2_5 C 0.3626(4) 0.9740(3) 0.9621(2)
H3_5 H 0.4019 0.9442 0.9595
C13_5 C 0.0369(4) 0.8819(3) 0.99284(18)
C14_5 C 0.1186(4) 0.8592(4) 0.9982(2)
H12_5 H 0.1642 0.8697 0.9799
C20_5 C 0.0211(3) 0.9251(2) 0.95878(16)
N3_5 N 0.7734(3) 0.98611(19) 0.94221(14)
N6_4 N 0.8589(3) 0.9135(2) 0.87807(14)
O9_5 O 0.9462(2) 0.94441(16) 0.95541(11)
O12_4 O 0.1847(2) 0.97159(16) 0.86133(11)
O14_9 O 1.0000 1.0000 0.86958(17)
C23_5 C 0.6167(3) 0.9810(2) 0.98731(16)
C24_5 C 0.6760(4) 0.9374(3) 0.98783(19)
C25_5 C 0.7526(4) 0.9412(3) 0.96594(19)
H22_5 H 0.7923 0.9116 0.9674
C35_5 C 0.8656(5) 0.1783(4) 0.0297(3)
H30_5 H 0.8093 0.1933 0.0327
C36_5 C 0.9300(4) 0.1946(3) 0.0568(2)
H31_5 H 0.9176 0.2191 0.0791
C33_5 C 0.9631(4) 0.1181(3) 0.99284(18)
C34_5 C 0.8814(4) 0.1408(4) 0.9982(2)
H29_5 H 0.8358 0.1303 0.9799
C40_5 C 0.9789(3) 0.0749(2) 0.95878(16)
O3_5 O 0.8342(3) 0.8172(2) 0.07005(14)
C17_5 C 0.9847(4) 0.8258(3) 0.05082(19)
C18_5 C 0.9690(4) 0.8636(3) 0.01825(17)
H15_5 H 0.9120 0.8768 0.0135
C19_5 C 0.9110(4) 0.8057(3) 0.07925(17)
N3_6 N 0.0234(3) 0.26389(19) 0.19221(14)
O7_6 O 0.1634(2) 0.18672(16) 0.18569(11)
O9_6 O 0.1962(2) 0.30559(16) 0.20541(11)
O14_10 O 0.2500 0.2500 0.11958(17)
H17_6 H 0.268(6) 0.274(3) 0.101(2)
H18_6 H 0.232(6) 0.226(3) 0.101(2)
C25_6 C 0.0026(4) 0.3088(3) 0.21594(19)
H22_6 H 0.0423 0.3384 0.2174
N1_6 N 0.4766(3) 0.23611(19) 0.19221(14)
O1_6 O 0.3366(2) 0.31328(16) 0.18569(11)
O3_6 O 0.0842(3) 0.4328(2) 0.32005(14)
O4_4 O 0.1847(2) 0.47159(16) 0.36133(11)
C1_6 C 0.5338(4) 0.2770(3) 0.19073(19)
H2_6 H 0.5203 0.3084 0.1743
C2_6 C 0.6126(4) 0.2760(3) 0.2121(2)
H3_6 H 0.6519 0.3058 0.2095
C3_6 C 0.6333(3) 0.2310(2) 0.23731(16)
C4_6 C 0.5740(4) 0.1874(3) 0.23783(19)
H4_6 H 0.5866 0.1550 0.2533
C5_6 C 0.4974(4) 0.1912(3) 0.21594(19)
H5_6 H 0.4577 0.1616 0.2174
C6_6 C 0.7145(3) 0.2271(2) 0.26325(16)
H6_6 H 0.7425 0.1906 0.2582
C7_6 C 0.7037(3) 0.2362(2) 0.31203(16)
H7_6 H 0.6584 0.2647 0.3174
C8_6 C 0.6850(3) 0.1856(2) 0.33726(15)
C9_6 C 0.6019(4) 0.1768(3) 0.3527(2)
H8_6 H 0.5583 0.2039 0.3492
C10_6 C 0.5837(4) 0.1272(3) 0.3736(2)
H9_6 H 0.5276 0.1224 0.3851
C11_6 C 0.7206(4) 0.0952(3) 0.3624(2)
H10_6 H 0.7628 0.0672 0.3656
C12_6 C 0.7439(4) 0.1431(3) 0.3417(2)
H11_6 H 0.8005 0.1467 0.3305
C13_6 C 0.2869(4) 0.3681(3) 0.24284(18)
C14_6 C 0.3686(4) 0.3908(4) 0.2482(2)
H12_6 H 0.4142 0.3803 0.2299
C15_6 C 0.3844(5) 0.4283(4) 0.2797(3)
H13_6 H 0.4407 0.4433 0.2827
C16_6 C 0.3200(4) 0.4446(3) 0.3068(2)
H14_6 H 0.3324 0.4691 0.3291
C17_6 C 0.2347(4) 0.4242(3) 0.30082(19)
C18_6 C 0.2190(4) 0.3864(3) 0.26825(17)
H15_6 H 0.1620 0.3732 0.2635
C19_6 C 0.1610(4) 0.4443(3) 0.32925(17)
C20_6 C 0.2711(3) 0.3249(2) 0.20878(16)
N4_4 N 0.8589(3) 0.4135(2) 0.37807(14)
O8_6 O 0.3038(2) 0.19441(16) 0.20541(11)
O10_6 O 0.4158(3) 0.0672(2) 0.32005(14)
C21_6 C 0.9662(4) 0.2230(3) 0.19073(19)
H19_6 H 0.9797 0.1916 0.1743
C22_6 C 0.8874(4) 0.2240(3) 0.2121(2)
H20_6 H 0.8481 0.1942 0.2095
C23_6 C 0.8667(3) 0.2690(2) 0.23731(16)
C24_6 C 0.9260(4) 0.3126(3) 0.23783(19)
H21_6 H 0.9134 0.3450 0.2533
C26_6 C 0.7855(3) 0.2729(2) 0.26325(16)
H23_6 H 0.7575 0.3094 0.2582
C27_6 C 0.7963(3) 0.2638(2) 0.31203(16)
H24_6 H 0.8416 0.2353 0.3174
C28_6 C 0.8150(3) 0.3144(2) 0.33726(15)
C29_6 C 0.8981(4) 0.3232(3) 0.3527(2)
H25_6 H 0.9417 0.2961 0.3492
C30_6 C 0.9163(4) 0.3728(3) 0.3736(2)
H26_6 H 0.9724 0.3776 0.3851
C31_6 C 0.7794(4) 0.4048(3) 0.3624(2)
H27_6 H 0.7372 0.4328 0.3656
C32_6 C 0.7561(4) 0.3569(3) 0.3417(2)
H28_6 H 0.6995 0.3533 0.3305
C33_6 C 0.2131(4) 0.1319(3) 0.24284(18)
C34_6 C 0.1314(4) 0.1092(4) 0.2482(2)
H29_6 H 0.0858 0.1197 0.2299
C35_6 C 0.1156(5) 0.0717(4) 0.2797(3)
H30_6 H 0.0593 0.0567 0.2827
C36_6 C 0.1800(4) 0.0554(3) 0.3068(2)
H31_6 H 0.1676 0.0309 0.3291
C37_6 C 0.2653(4) 0.0758(3) 0.30082(19)
C38_6 C 0.2810(4) 0.1136(3) 0.26825(17)
H32_6 H 0.3380 0.1268 0.2635
C39_6 C 0.3390(4) 0.0557(3) 0.32925(17)
C40_6 C 0.2289(3) 0.1751(2) 0.20878(16)
O14_11 O 0.0000 0.5000 0.36958(17)
H17_7 H 0.018(6) 0.476(3) 0.351(2)
N1_7 N 0.2266(3) 0.51389(19) 0.44221(14)
N2_6 N 0.3911(3) 0.6635(2) 0.62807(14)
O1_7 O 0.0866(2) 0.43672(16) 0.43569(11)
C1_7 C 0.2838(4) 0.4730(3) 0.44073(19)
H2_7 H 0.2703 0.4416 0.4243
C2_7 C 0.3626(4) 0.4740(3) 0.4621(2)
H3_7 H 0.4019 0.4442 0.4595
C3_7 C 0.3833(3) 0.5190(2) 0.48731(16)
C4_7 C 0.3240(4) 0.5626(3) 0.48783(19)
H4_7 H 0.3366 0.5950 0.5033
C5_7 C 0.2474(4) 0.5588(3) 0.46594(19)
H5_7 H 0.2077 0.5884 0.4674
C6_7 C 0.4645(3) 0.5229(2) 0.51325(16)
H6_7 H 0.4925 0.5594 0.5082
C7_7 C 0.4537(3) 0.5138(2) 0.56203(16)
H7_7 H 0.4084 0.4853 0.5674
C8_7 C 0.4350(3) 0.5644(2) 0.58726(15)
C9_7 C 0.3519(4) 0.5732(3) 0.6027(2)
H8_7 H 0.3083 0.5461 0.5992
C10_7 C 0.3337(4) 0.6228(3) 0.6236(2)
H9_7 H 0.2776 0.6276 0.6351
C11_7 C 0.4706(4) 0.6548(3) 0.6124(2)
H10_7 H 0.5128 0.6828 0.6156
C12_7 C 0.4939(4) 0.6069(3) 0.5917(2)
H11_7 H 0.5505 0.6033 0.5805
C13_7 C 0.0369(4) 0.3819(3) 0.49284(18)
C14_7 C 0.1186(4) 0.3592(4) 0.4982(2)
H12_7 H 0.1642 0.3697 0.4799
C15_7 C 0.1344(5) 0.3217(4) 0.5297(3)
H13_7 H 0.1907 0.3067 0.5327
C16_7 C 0.0700(4) 0.3054(3) 0.5568(2)
H14_7 H 0.0824 0.2809 0.5791
C20_7 C 0.0211(3) 0.4251(2) 0.45878(16)
N3_7 N 0.7734(3) 0.48611(19) 0.44221(14)
O7_7 O 0.9134(2) 0.56328(16) 0.43569(11)
O8_7 O 0.0538(2) 0.55559(16) 0.45541(11)
O9_7 O 0.9462(2) 0.44441(16) 0.45541(11)
O10_7 O 0.1658(3) 0.6828(2) 0.57005(14)
O11_6 O 0.0653(2) 0.72159(16) 0.61133(11)
O14_12 O 1.0000 0.5000 0.36958(17)
H18_7 H 0.982(6) 0.524(3) 0.351(2)
C21_7 C 0.7162(4) 0.5270(3) 0.44073(19)
H19_7 H 0.7297 0.5584 0.4243
C22_7 C 0.6374(4) 0.5260(3) 0.4621(2)
H20_7 H 0.5981 0.5558 0.4595
C23_7 C 0.6167(3) 0.4810(2) 0.48731(16)
C24_7 C 0.6760(4) 0.4374(3) 0.48783(19)
H21_7 H 0.6634 0.4050 0.5033
C25_7 C 0.7526(4) 0.4412(3) 0.46594(19)
H22_7 H 0.7923 0.4116 0.4674
C26_7 C 0.5355(3) 0.4771(2) 0.51325(16)
H23_7 H 0.5075 0.4406 0.5082
C27_7 C 0.5463(3) 0.4862(2) 0.56203(16)
H24_7 H 0.5916 0.5147 0.5674
C28_7 C 0.5650(3) 0.4356(2) 0.58726(15)
C29_7 C 0.6481(4) 0.4268(3) 0.6027(2)
H25_7 H 0.6917 0.4539 0.5992
C30_7 C 0.6663(4) 0.3772(3) 0.6236(2)
H26_7 H 0.7224 0.3724 0.6351
C31_7 C 0.5294(4) 0.3452(3) 0.6124(2)
H27_7 H 0.4872 0.3172 0.6156
C32_7 C 0.5061(4) 0.3931(3) 0.5917(2)
H28_7 H 0.4495 0.3967 0.5805
C37_7 C 0.0153(4) 0.6742(3) 0.55082(19)
C38_7 C 0.0310(4) 0.6364(3) 0.51825(17)
H32_7 H 0.0880 0.6232 0.5135
C39_7 C 0.0890(4) 0.6943(3) 0.57925(17)
O3_7 O 0.8342(3) 0.3172(2) 0.57005(14)
C17_7 C 0.9847(4) 0.3258(3) 0.55082(19)
C18_7 C 0.9690(4) 0.3636(3) 0.51825(17)
H15_7 H 0.9120 0.3768 0.5135
C19_7 C 0.9110(4) 0.3057(3) 0.57925(17)
C33_7 C 0.9631(4) 0.6181(3) 0.49284(18)
C34_7 C 0.8814(4) 0.6408(4) 0.4982(2)
H29_7 H 0.8358 0.6303 0.4799
C35_7 C 0.8656(5) 0.6783(4) 0.5297(3)
H30_7 H 0.8093 0.6933 0.5327
C36_7 C 0.9300(4) 0.6946(3) 0.5568(2)
H31_7 H 0.9176 0.7191 0.5791
C40_7 C 0.9789(3) 0.5749(2) 0.45878(16)
N3_8 N 0.0234(3) 0.76389(19) 0.69221(14)
O7_8 O 0.1634(2) 0.68672(16) 0.68569(11)
O9_8 O 0.1962(2) 0.80559(16) 0.70541(11)
O14_13 O 0.2500 0.7500 0.61958(17)
H17_8 H 0.268(6) 0.774(3) 0.601(2)
H18_8 H 0.232(6) 0.726(3) 0.601(2)
C25_8 C 0.0026(4) 0.8088(3) 0.71594(19)
H22_8 H 0.0423 0.8384 0.7174
N1_8 N 0.4766(3) 0.73611(19) 0.69221(14)
O1_8 O 0.3366(2) 0.81328(16) 0.68569(11)
O3_8 O 0.0842(3) 0.9328(2) 0.82005(14)
C1_8 C 0.5338(4) 0.7770(3) 0.69073(19)
H2_8 H 0.5203 0.8084 0.6743
C2_8 C 0.6126(4) 0.7760(3) 0.7121(2)
H3_8 H 0.6519 0.8058 0.7095
C3_8 C 0.6333(3) 0.7310(2) 0.73731(16)
C4_8 C 0.5740(4) 0.6874(3) 0.73783(19)
H4_8 H 0.5866 0.6550 0.7533
C5_8 C 0.4974(4) 0.6912(3) 0.71594(19)
H5_8 H 0.4577 0.6616 0.7174
C6_8 C 0.7145(3) 0.7271(2) 0.76325(16)
H6_8 H 0.7425 0.6906 0.7582
C7_8 C 0.7037(3) 0.7362(2) 0.81203(16)
H7_8 H 0.6584 0.7647 0.8174
C8_8 C 0.6850(3) 0.6856(2) 0.83726(15)
C9_8 C 0.6019(4) 0.6768(3) 0.8527(2)
H8_8 H 0.5583 0.7039 0.8492
C10_8 C 0.5837(4) 0.6272(3) 0.8736(2)
H9_8 H 0.5276 0.6224 0.8851
C11_8 C 0.7206(4) 0.5952(3) 0.8624(2)
H10_8 H 0.7628 0.5672 0.8656
C12_8 C 0.7439(4) 0.6431(3) 0.8417(2)
H11_8 H 0.8005 0.6467 0.8305
C13_8 C 0.2869(4) 0.8681(3) 0.74284(18)
C14_8 C 0.3686(4) 0.8908(4) 0.7482(2)
H12_8 H 0.4142 0.8803 0.7299
C15_8 C 0.3844(5) 0.9283(4) 0.7797(3)
H13_8 H 0.4407 0.9433 0.7827
C16_8 C 0.3200(4) 0.9446(3) 0.8068(2)
H14_8 H 0.3324 0.9691 0.8291
C17_8 C 0.2347(4) 0.9242(3) 0.80082(19)
C18_8 C 0.2190(4) 0.8864(3) 0.76825(17)
H15_8 H 0.1620 0.8732 0.7635
C19_8 C 0.1610(4) 0.9443(3) 0.82925(17)
C20_8 C 0.2711(3) 0.8249(2) 0.70878(16)
O8_8 O 0.3038(2) 0.69441(16) 0.70541(11)
O10_8 O 0.4158(3) 0.5672(2) 0.82005(14)
C21_8 C 0.9662(4) 0.7230(3) 0.69073(19)
H19_8 H 0.9797 0.6916 0.6743
C22_8 C 0.8874(4) 0.7240(3) 0.7121(2)
H20_8 H 0.8481 0.6942 0.7095
C23_8 C 0.8667(3) 0.7690(2) 0.73731(16)
C24_8 C 0.9260(4) 0.8126(3) 0.73783(19)
H21_8 H 0.9134 0.8450 0.7533
C26_8 C 0.7855(3) 0.7729(2) 0.76325(16)
H23_8 H 0.7575 0.8094 0.7582
C27_8 C 0.7963(3) 0.7638(2) 0.81203(16)
H24_8 H 0.8416 0.7353 0.8174
C28_8 C 0.8150(3) 0.8144(2) 0.83726(15)
C29_8 C 0.8981(4) 0.8232(3) 0.8527(2)
H25_8 H 0.9417 0.7961 0.8492
C30_8 C 0.9163(4) 0.8728(3) 0.8736(2)
H26_8 H 0.9724 0.8776 0.8851
C31_8 C 0.7794(4) 0.9048(3) 0.8624(2)
H27_8 H 0.7372 0.9328 0.8656
C32_8 C 0.7561(4) 0.8569(3) 0.8417(2)
H28_8 H 0.6995 0.8533 0.8305
C33_8 C 0.2131(4) 0.6319(3) 0.74284(18)
C34_8 C 0.1314(4) 0.6092(4) 0.7482(2)
H29_8 H 0.0858 0.6197 0.7299
C35_8 C 0.1156(5) 0.5717(4) 0.7797(3)
H30_8 H 0.0593 0.5567 0.7827
C36_8 C 0.1800(4) 0.5554(3) 0.8068(2)
H31_8 H 0.1676 0.5309 0.8291
C37_8 C 0.2653(4) 0.5758(3) 0.80082(19)
C38_8 C 0.2810(4) 0.6136(3) 0.76825(17)
H32_8 H 0.3380 0.6268 0.7635
C39_8 C 0.3390(4) 0.5557(3) 0.82925(17)
C40_8 C 0.2289(3) 0.6751(2) 0.70878(16)
loop_
_geom_bond_atom_site_label_1
_geom_bond_atom_site_label_2
_geom_bond_site_symmetry_1
_geom_bond_site_symmetry_2
H18 O14 1_555 1_555
C21 H19 1_555 1_555
C22 C21 1_555 1_555
H20 C22 1_555 1_555
Ni2 N3 1_555 1_555
Ni6 N4 1_555 1_555
N4 C30 1_555 1_555
N6 Ni2 1_555 1_555
O9 Ni2 1_555 1_555
O14_2 Ni2 1_555 1_555
H17 O14_2 1_555 1_555
C24 C23 1_555 1_555
H21 C24 1_555 1_555
C25 N3 1_555 1_555
H22 C25 1_555 1_555
H23 C26 1_555 1_555
C28 C27 1_555 1_555
C29 C28 1_555 1_555
H25 C29 1_555 1_555
C30 C29 1_555 1_555
H26 C30 1_555 1_555
C31 N4 1_555 1_555
C32 C28 1_555 1_555
C23 C26 1_555 1_555
C24 C25 1_555 1_555
C26 C27 1_555 1_555
C31 C32 1_555 1_555
Ni1 N1 1_555 1_555
N2 C10 1_555 1_555
O14 Ni1 1_555 1_555
C4 C3 1_555 1_555
H4 C4 1_555 1_555
C5 N1 1_555 1_555
H5 C5 1_555 1_555
C6 C3 1_555 1_555
H6 C6 1_555 1_555
C7 C6 1_555 1_555
C8 C7 1_555 1_555
C9 C8 1_555 1_555
H8 C9 1_555 1_555
C10 C9 1_555 1_555
H9 C10 1_555 1_555
C11 N2 1_555 1_555
C12 C8 1_555 1_555
Ni3 N2 1_555 1_555
Ni7 O11 1_555 1_555
N5 Ni1 1_555 1_555
O8 Ni1 1_555 1_555
O10 C39 1_555 1_555
O11 C39 1_555 1_555
C33 C34 1_555 1_555
C34 H29 1_555 1_555
C35 C34 1_555 1_555
H30 C35 1_555 1_555
C36 C35 1_555 1_555
H31 C36 1_555 1_555
C37 C36 1_555 1_555
C38 C33 1_555 1_555
H32 C38 1_555 1_555
C39 C37 1_555 1_555
C40 O7 1_555 1_555
C4 C5 1_555 1_555
C11 C12 1_555 1_555
O8 C40 1_555 1_555
C33 C40 1_555 1_555
C37 C38 1_555 1_555
O9 C20 1_555 1_555
O3 C19 1_555 1_555
O4 C19 1_555 1_555
C1 H2 1_555 1_555
C2 C1 1_555 1_555
H3 C2 1_555 1_555
C13 C14 1_555 1_555
C14 H12 1_555 1_555
C15 C14 1_555 1_555
H13 C15 1_555 1_555
C16 C15 1_555 1_555
H14 C16 1_555 1_555
C17 C16 1_555 1_555
C18 C13 1_555 1_555
H15 C18 1_555 1_555
C19 C17 1_555 1_555
C20 O1 1_555 1_555
Ni5 O4 1_555 1_555
C13 C20 1_555 1_555
C17 C18 1_555 1_555
N2_2 C10_2 1_555 1_555
C1_2 H2_2 1_555 1_555
C2_2 C1_2 1_555 1_555
H3_2 C2_2 1_555 1_555
C3_2 C2_2 1_555 1_555
C4_2 C3_2 1_555 1_555
H4_2 C4_2 1_555 1_555
C6_2 C3_2 1_555 1_555
H6_2 C6_2 1_555 1_555
C7_2 C6_2 1_555 1_555
H7_2 C7_2 1_555 1_555
C8_2 C7_2 1_555 1_555
C9_2 C8_2 1_555 1_555
H8_2 C9_2 1_555 1_555
C10_2 C9_2 1_555 1_555
H9_2 C10_2 1_555 1_555
C11_2 N2_2 1_555 1_555
H10_2 C11_2 1_555 1_555
C12_2 C8_2 1_555 1_555
H11_2 C12_2 1_555 1_555
Ni7 N3_2 1_555 1_555
Ni3_2 N2_2 1_555 1_555
Ni6_2 N4_2 1_555 1_555
N3_2 C21_2 1_555 1_555
N4_2 C30_2 1_555 1_555
N6_2 Ni7 1_555 1_555
O7_2 Ni7 1_555 1_555
O9_2 Ni7 1_555 1_555
O14_3 Ni7 1_555 1_555
H17_2 O14_3 1_555 1_555
H18_2 O14_3 1_555 1_555
C21_2 H19_2 1_555 1_555
C22_2 C21_2 1_555 1_555
H20_2 C22_2 1_555 1_555
C23_2 C22_2 1_555 1_555
C24_2 C23_2 1_555 1_555
H21_2 C24_2 1_555 1_555
C25_2 N3_2 1_555 1_555
H22_2 C25_2 1_555 1_555
C26_2 C6_2 1_555 1_555
H23_2 C26_2 1_555 1_555
C27_2 C7_2 1_555 1_555
H24_2 C27_2 1_555 1_555
C28_2 C27_2 1_555 1_555
C29_2 C28_2 1_555 1_555
H25_2 C29_2 1_555 1_555
C30_2 C29_2 1_555 1_555
H26_2 C30_2 1_555 1_555
C31_2 N4_2 1_555 1_555
H27_2 C31_2 1_555 1_555
C32_2 C28_2 1_555 1_555
H28_2 C32_2 1_555 1_555
C11_2 C12_2 1_555 1_555
C23_2 C26_2 1_555 1_555
C24_2 C25_2 1_555 1_555
C26_2 C27_2 1_555 1_555
C31_2 C32_2 1_555 1_555
Ni3 N1_2 1_555 1_555
O1_2 Ni3 1_555 1_555
O9_2 C20_2 1_555 1_555
O3_2 C19_2 1_555 1_555
O4_2 C19_2 1_555 1_555
O14_3 Ni3 1_555 1_555
C5_2 N1_2 1_555 1_555
H5_2 C5_2 1_555 1_555
C13_2 C14_2 1_555 1_555
C14_2 H12_2 1_555 1_555
C15_2 C14_2 1_555 1_555
H13_2 C15_2 1_555 1_555
C16_2 C15_2 1_555 1_555
H14_2 C16_2 1_555 1_555
C17_2 C16_2 1_555 1_555
C18_2 C13_2 1_555 1_555
H15_2 C18_2 1_555 1_555
C19_2 C17_2 1_555 1_555
C20_2 O1_2 1_555 1_555
Ni5_2 O4_2 1_555 1_555
O8_2 Ni3 1_555 1_555
O10_2 C39_2 1_555 1_555
O11_2 C39_2 1_555 1_555
O12_2 Ni3 1_555 1_555
C33_2 C34_2 1_555 1_555
C34_2 H29_2 1_555 1_555
C35_2 C34_2 1_555 1_555
H30_2 C35_2 1_555 1_555
C36_2 C35_2 1_555 1_555
H31_2 C36_2 1_555 1_555
C37_2 C36_2 1_555 1_555
C38_2 C33_2 1_555 1_555
H32_2 C38_2 1_555 1_555
C39_2 C37_2 1_555 1_555
C40_2 O7_2 1_555 1_555
C13_2 C20_2 1_555 1_555
C17_2 C18_2 1_555 1_555
O8_2 C40_2 1_555 1_555
C33_2 C40_2 1_555 1_555
C37_2 C38_2 1_555 1_555
Ni6_3 N4_3 1_555 1_555
N4_3 C30_3 1_555 1_555
H23_3 C26_3 1_555 1_555
H24_3 C27_3 1_555 1_555
C28_3 C27_3 1_555 1_555
C29_3 C28_3 1_555 1_555
H25_3 C29_3 1_555 1_555
C30_3 C29_3 1_555 1_555
H26_3 C30_3 1_555 1_555
C31_3 N4_3 1_555 1_555
C32_3 C28_3 1_555 1_555
C26_3 C27_3 1_555 1_555
C31_3 C32_3 1_555 1_555
Ni6_2 N3_3 1_555 1_555
N3_3 C21_3 1_555 1_555
O7_3 Ni6_2 1_555 1_555
O9_3 Ni6_2 1_555 1_555
O13_2 Ni6_2 1_555 1_555
O14_4 Ni6_2 1_555 1_555
H17_3 O14_4 1_555 1_555
H18_3 O14_4 1_555 1_555
C21_3 H19_3 1_555 1_555
C22_3 C21_3 1_555 1_555
H20_3 C22_3 1_555 1_555
C23_3 C22_3 1_555 1_555
C24_3 C23_3 1_555 1_555
C25_3 N3_3 1_555 1_555
H22_3 C25_3 1_555 1_555
C24_3 C25_3 1_555 1_555
N2_3 C10_3 1_555 1_555
O3_3 C19_3 1_555 1_555
O4_3 C19_3 1_555 1_555
H6_3 C6_3 1_555 1_555
C7_3 C6_3 1_555 1_555
H7_3 C7_3 1_555 1_555
C8_3 C7_3 1_555 1_555
C9_3 C8_3 1_555 1_555
H8_3 C9_3 1_555 1_555
C10_3 C9_3 1_555 1_555
H9_3 C10_3 1_555 1_555
C11_3 N2_3 1_555 1_555
C12_3 C8_3 1_555 1_555
H13_3 C15_3 1_555 1_555
C16_3 C15_3 1_555 1_555
H14_3 C16_3 1_555 1_555
C17_3 C16_3 1_555 1_555
H15_3 C18_3 1_555 1_555
C19_3 C17_3 1_555 1_555
Ni3_3 N2_3 1_555 1_555
Ni5_3 O4_3 1_555 1_555
Ni7_3 O11_3 1_555 1_555
O10_3 C39_3 1_555 1_555
O11_3 C39_3 1_555 1_555
H30_3 C35_3 1_555 1_555
C36_3 C35_3 1_555 1_555
H31_3 C36_3 1_555 1_555
C37_3 C36_3 1_555 1_555
H32_3 C38_3 1_555 1_555
C39_3 C37_3 1_555 1_555
C11_3 C12_3 1_555 1_555
C17_3 C18_3 1_555 1_555
C37_3 C38_3 1_555 1_555
Ni5_2 N1_3 1_555 1_555
N1_3 C1_3 1_555 1_555
O1_3 Ni5_2 1_555 1_555
O9_3 C20_3 1_555 1_555
O14_4 Ni5_2 1_555 1_555
C1_3 H2_3 1_555 1_555
C2_3 C1_3 1_555 1_555
H3_3 C2_3 1_555 1_555
C3_3 C2_3 1_555 1_555
C4_3 C3_3 1_555 1_555
C5_3 N1_3 1_555 1_555
H5_3 C5_3 1_555 1_555
C13_3 C14_3 1_555 1_555
C14_3 H12_3 1_555 1_555
C20_3 O1_3 1_555 1_555
N5_2 Ni5_2 1_555 1_555
O8_3 Ni5_2 1_555 1_555
C33_3 C34_3 1_555 1_555
C34_3 H29_3 1_555 1_555
C40_3 O7_3 1_555 1_555
C4_3 C5_3 1_555 1_555
C13_3 C20_3 1_555 1_555
O8_3 C40_3 1_555 1_555
C33_3 C40_3 1_555 1_555
N2_4 C10_4 1_555 1_555
C1_4 H2_4 1_555 1_555
C2_4 C1_4 1_555 1_555
H3_4 C2_4 1_555 1_555
C3_4 C2_4 1_555 1_555
C4_4 C3_4 1_555 1_555
H4_4 C4_4 1_555 1_555
C6_4 C3_4 1_555 1_555
H6_4 C6_4 1_555 1_555
C7_4 C6_4 1_555 1_555
H7_4 C7_4 1_555 1_555
C8_4 C7_4 1_555 1_555
C9_4 C8_4 1_555 1_555
H8_4 C9_4 1_555 1_555
C10_4 C9_4 1_555 1_555
H9_4 C10_4 1_555 1_555
C11_4 N2_4 1_555 1_555
H10_4 C11_4 1_555 1_555
C12_4 C8_4 1_555 1_555
H11_4 C12_4 1_555 1_555
Ni7_3 N3_4 1_555 1_555
Ni3_4 N2_4 1_555 1_555
N3_4 C21_4 1_555 1_555
N6 C30_4 1_555 1_555
N6_3 Ni7_3 1_555 1_555
O7_4 Ni7_3 1_555 1_555
O9_4 Ni7_3 1_555 1_555
O14_5 Ni7_3 1_555 1_555
H17_4 O14_5 1_555 1_555
H18_4 O14_5 1_555 1_555
C21_4 H19_4 1_555 1_555
C22_4 C21_4 1_555 1_555
H20_4 C22_4 1_555 1_555
C23_4 C22_4 1_555 1_555
C24_4 C23_4 1_555 1_555
H21_4 C24_4 1_555 1_555
C25_4 N3_4 1_555 1_555
H22_4 C25_4 1_555 1_555
C26_4 C6_4 1_555 1_555
H23_4 C26_4 1_555 1_555
C27_4 C7_4 1_555 1_555
H24_4 C27_4 1_555 1_555
C28_4 C27_4 1_555 1_555
C29_4 C28_4 1_555 1_555
H25_4 C29_4 1_555 1_555
C30_4 C29_4 1_555 1_555
H26_4 C30_4 1_555 1_555
C31_4 N6 1_555 1_555
H27_4 C31_4 1_555 1_555
C32_4 C28_4 1_555 1_555
H28_4 C32_4 1_555 1_555
C11_4 C12_4 1_555 1_555
C23_4 C26_4 1_555 1_555
C24_4 C25_4 1_555 1_555
C26_4 C27_4 1_555 1_555
C31_4 C32_4 1_555 1_555
Ni3_3 N1_4 1_555 1_555
O1_4 Ni3_3 1_555 1_555
O9_4 C20_4 1_555 1_555
O3_4 C19_4 1_555 1_555
O12 C19_4 1_555 1_555
O14_5 Ni3_3 1_555 1_555
C5_4 N1_4 1_555 1_555
H5_4 C5_4 1_555 1_555
C13_4 C14_4 1_555 1_555
C14_4 H12_4 1_555 1_555
C15_4 C14_4 1_555 1_555
H13_4 C15_4 1_555 1_555
C16_4 C15_4 1_555 1_555
H14_4 C16_4 1_555 1_555
C17_4 C16_4 1_555 1_555
C18_4 C13_4 1_555 1_555
H15_4 C18_4 1_555 1_555
C19_4 C17_4 1_555 1_555
C20_4 O1_4 1_555 1_555
Ni7_4 O11_4 1_555 1_555
O8_4 Ni3_3 1_555 1_555
O10_4 C39_4 1_555 1_555
O11_4 C39_4 1_555 1_555
O12_3 Ni3_3 1_555 1_555
C33_4 C34_4 1_555 1_555
C34_4 H29_4 1_555 1_555
C35_4 C34_4 1_555 1_555
H30_4 C35_4 1_555 1_555
C36_4 C35_4 1_555 1_555
H31_4 C36_4 1_555 1_555
C37_4 C36_4 1_555 1_555
C38_4 C33_4 1_555 1_555
H32_4 C38_4 1_555 1_555
C39_4 C37_4 1_555 1_555
C40_4 O7_4 1_555 1_555
C13_4 C20_4 1_555 1_555
C17_4 C18_4 1_555 1_555
O8_4 C40_4 1_555 1_555
C33_4 C40_4 1_555 1_555
C37_4 C38_4 1_555 1_555
H17_5 O14_7 1_555 1_555
N2_5 C10_5 1_555 1_555
H6_5 C6_5 1_555 1_555
C7_5 C6_5 1_555 1_555
C8_5 C7_5 1_555 1_555
C9_5 C8_5 1_555 1_555
H8_5 C9_5 1_555 1_555
C10_5 C9_5 1_555 1_555
H9_5 C10_5 1_555 1_555
C11_5 N2_5 1_555 1_555
H10_5 C11_5 1_555 1_555
C12_5 C8_5 1_555 1_555
H11_5 C12_5 1_555 1_555
Ni5_3 N2_5 1_555 1_555
Ni6_3 O11_5 1_555 1_555
O10_5 C39_5 1_555 1_555
O11_5 C39_5 1_555 1_555
H32_5 C38_5 1_555 1_555
C39_5 C37_5 1_555 1_555
C11_5 C12_5 1_555 1_555
C37_5 C38_5 1_555 1_555
Ni3_2 N1_5 1_555 1_555
O14_6 Ni3_2 1_555 1_555
C4_5 C3_5 1_555 1_555
C5_5 N1_5 1_555 1_555
H5_5 C5_5 1_555 1_555
O8_5 Ni3_2 1_555 1_555
H18_5 O14_8 1_555 1_555
C21_5 H19_5 1_555 1_555
C22_5 C21_5 1_555 1_555
H20_5 C22_5 1_555 1_555
C4_5 C5_5 1_555 1_555
H13_5 C15_5 1_555 1_555
C16_5 C15_5 1_555 1_555
H14_5 C16_5 1_555 1_555
N6_3 C30_5 1_555 1_555
H23_5 C26_5 1_555 1_555
C28_5 C27_5 1_555 1_555
C29_5 C28_5 1_555 1_555
H25_5 C29_5 1_555 1_555
C30_5 C29_5 1_555 1_555
H26_5 C30_5 1_555 1_555
C31_5 N6_3 1_555 1_555
H27_5 C31_5 1_555 1_555
C32_5 C28_5 1_555 1_555
H28_5 C32_5 1_555 1_555
C26_5 C27_5 1_555 1_555
C31_5 C32_5 1_555 1_555
C1_5 H2_5 1_555 1_555
C2_5 C1_5 1_555 1_555
H3_5 C2_5 1_555 1_555
C13_5 C14_5 1_555 1_555
C14_5 H12_5 1_555 1_555
C20_5 O1_5 1_555 1_555
Ni7_2 N3_5 1_555 1_555
N6_4 Ni7_2 1_555 1_555
O9_5 Ni7_2 1_555 1_555
O14_9 Ni7_2 1_555 1_555
C24_5 C23_5 1_555 1_555
C25_5 N3_5 1_555 1_555
H22_5 C25_5 1_555 1_555
C13_5 C20_5 1_555 1_555
C24_5 C25_5 1_555 1_555
H30_5 C35_5 1_555 1_555
C36_5 C35_5 1_555 1_555
H31_5 C36_5 1_555 1_555
C33_5 C34_5 1_555 1_555
C34_5 H29_5 1_555 1_555
C40_5 O7_5 1_555 1_555
C33_5 C40_5 1_555 1_555
O3_5 C19_5 1_555 1_555
O12_3 C19_5 1_555 1_555
H15_5 C18_5 1_555 1_555
C19_5 C17_5 1_555 1_555
C17_5 C18_5 1_555 1_555
Ni6_3 N3_6 1_555 1_555
O7_6 Ni6_3 1_555 1_555
O9_6 Ni6_3 1_555 1_555
O14_10 Ni6_3 1_555 1_555
H17_6 O14_10 1_555 1_555
H18_6 O14_10 1_555 1_555
C25_6 N3_6 1_555 1_555
H22_6 C25_6 1_555 1_555
Ni5_3 N1_6 1_555 1_555
N1_6 C1_6 1_555 1_555
N5 C10_6 1_555 1_555
O1_6 Ni5_3 1_555 1_555
O9_6 C20_6 1_555 1_555
O3_6 C19_6 1_555 1_555
O4_4 C19_6 1_555 1_555
O14_10 Ni5_3 1_555 1_555
C1_6 H2_6 1_555 1_555
C2_6 C1_6 1_555 1_555
H3_6 C2_6 1_555 1_555
C3_6 C2_6 1_555 1_555
C4_6 C3_6 1_555 1_555
H4_6 C4_6 1_555 1_555
C5_6 N1_6 1_555 1_555
H5_6 C5_6 1_555 1_555
C6_6 C3_6 1_555 1_555
H6_6 C6_6 1_555 1_555
C7_6 C6_6 1_555 1_555
H7_6 C7_6 1_555 1_555
C8_6 C7_6 1_555 1_555
C9_6 C8_6 1_555 1_555
H8_6 C9_6 1_555 1_555
C10_6 C9_6 1_555 1_555
H9_6 C10_6 1_555 1_555
C11_6 N5 1_555 1_555
H10_6 C11_6 1_555 1_555
C12_6 C8_6 1_555 1_555
H11_6 C12_6 1_555 1_555
C13_6 C14_6 1_555 1_555
C14_6 H12_6 1_555 1_555
C15_6 C14_6 1_555 1_555
H13_6 C15_6 1_555 1_555
C16_6 C15_6 1_555 1_555
H14_6 C16_6 1_555 1_555
C17_6 C16_6 1_555 1_555
C18_6 C13_6 1_555 1_555
H15_6 C18_6 1_555 1_555
C19_6 C17_6 1_555 1_555
C20_6 O1_6 1_555 1_555
Ni3_4 O4_4 1_555 1_555
Ni7_4 N4_4 1_555 1_555
N4_4 C30_6 1_555 1_555
O8_6 Ni5_3 1_555 1_555
O10_6 C39_6 1_555 1_555
O13 C39_6 1_555 1_555
C21_6 H19_6 1_555 1_555
C22_6 C21_6 1_555 1_555
H20_6 C22_6 1_555 1_555
C23_6 C22_6 1_555 1_555
C24_6 C23_6 1_555 1_555
H21_6 C24_6 1_555 1_555
C26_6 C6_6 1_555 1_555
H23_6 C26_6 1_555 1_555
C27_6 C7_6 1_555 1_555
H24_6 C27_6 1_555 1_555
C28_6 C27_6 1_555 1_555
C29_6 C28_6 1_555 1_555
H25_6 C29_6 1_555 1_555
C30_6 C29_6 1_555 1_555
H26_6 C30_6 1_555 1_555
C31_6 N4_4 1_555 1_555
H27_6 C31_6 1_555 1_555
C32_6 C28_6 1_555 1_555
H28_6 C32_6 1_555 1_555
C33_6 C34_6 1_555 1_555
C34_6 H29_6 1_555 1_555
C35_6 C34_6 1_555 1_555
H30_6 C35_6 1_555 1_555
C36_6 C35_6 1_555 1_555
H31_6 C36_6 1_555 1_555
C37_6 C36_6 1_555 1_555
C38_6 C33_6 1_555 1_555
H32_6 C38_6 1_555 1_555
C39_6 C37_6 1_555 1_555
C40_6 O7_6 1_555 1_555
C4_6 C5_6 1_555 1_555
C11_6 C12_6 1_555 1_555
C13_6 C20_6 1_555 1_555
C17_6 C18_6 1_555 1_555
O8_6 C40_6 1_555 1_555
C23_6 C26_6 1_555 1_555
C26_6 C27_6 1_555 1_555
C31_6 C32_6 1_555 1_555
C33_6 C40_6 1_555 1_555
C37_6 C38_6 1_555 1_555
H17_7 O14_11 1_555 1_555
Ni3_4 N1_7 1_555 1_555
N1_7 C1_7 1_555 1_555
N2_6 C10_7 1_555 1_555
O1_7 Ni3_4 1_555 1_555
O14_11 Ni3_4 1_555 1_555
C1_7 H2_7 1_555 1_555
C2_7 C1_7 1_555 1_555
H3_7 C2_7 1_555 1_555
C3_7 C2_7 1_555 1_555
C4_7 C3_7 1_555 1_555
H4_7 C4_7 1_555 1_555
C5_7 N1_7 1_555 1_555
H5_7 C5_7 1_555 1_555
C6_7 C3_7 1_555 1_555
H6_7 C6_7 1_555 1_555
C7_7 C6_7 1_555 1_555
H7_7 C7_7 1_555 1_555
C8_7 C7_7 1_555 1_555
C9_7 C8_7 1_555 1_555
H8_7 C9_7 1_555 1_555
C10_7 C9_7 1_555 1_555
H9_7 C10_7 1_555 1_555
C11_7 N2_6 1_555 1_555
H10_7 C11_7 1_555 1_555
C12_7 C8_7 1_555 1_555
H11_7 C12_7 1_555 1_555
C13_7 C14_7 1_555 1_555
C14_7 H12_7 1_555 1_555
C15_7 C14_7 1_555 1_555
H13_7 C15_7 1_555 1_555
C16_7 C15_7 1_555 1_555
H14_7 C16_7 1_555 1_555
C20_7 O1_7 1_555 1_555
Ni7_4 N3_7 1_555 1_555
Ni5 N2_6 1_555 1_555
Ni6 O11_6 1_555 1_555
N3_7 C21_7 1_555 1_555
N6_2 C30_7 1_555 1_555
O7_7 Ni7_4 1_555 1_555
O8_7 Ni3_4 1_555 1_555
O9_7 Ni7_4 1_555 1_555
O10_7 C39_7 1_555 1_555
O11_6 C39_7 1_555 1_555
O14_12 Ni7_4 1_555 1_555
H18_7 O14_12 1_555 1_555
C21_7 H19_7 1_555 1_555
C22_7 C21_7 1_555 1_555
H20_7 C22_7 1_555 1_555
C23_7 C22_7 1_555 1_555
C24_7 C23_7 1_555 1_555
H21_7 C24_7 1_555 1_555
C25_7 N3_7 1_555 1_555
H22_7 C25_7 1_555 1_555
C26_7 C6_7 1_555 1_555
H23_7 C26_7 1_555 1_555
C27_7 C7_7 1_555 1_555
H24_7 C27_7 1_555 1_555
C28_7 C27_7 1_555 1_555
C29_7 C28_7 1_555 1_555
H25_7 C29_7 1_555 1_555
C30_7 C29_7 1_555 1_555
H26_7 C30_7 1_555 1_555
C31_7 N6_2 1_555 1_555
H27_7 C31_7 1_555 1_555
C32_7 C28_7 1_555 1_555
H28_7 C32_7 1_555 1_555
H32_7 C38_7 1_555 1_555
C39_7 C37_7 1_555 1_555
C4_7 C5_7 1_555 1_555
C11_7 C12_7 1_555 1_555
C13_7 C20_7 1_555 1_555
C23_7 C26_7 1_555 1_555
C24_7 C25_7 1_555 1_555
C26_7 C27_7 1_555 1_555
C31_7 C32_7 1_555 1_555
C37_7 C38_7 1_555 1_555
O3_7 C19_7 1_555 1_555
O12_2 C19_7 1_555 1_555
H15_7 C18_7 1_555 1_555
C19_7 C17_7 1_555 1_555
C33_7 C34_7 1_555 1_555
C34_7 H29_7 1_555 1_555
C35_7 C34_7 1_555 1_555
H30_7 C35_7 1_555 1_555
C36_7 C35_7 1_555 1_555
H31_7 C36_7 1_555 1_555
C40_7 O7_7 1_555 1_555
C17_7 C18_7 1_555 1_555
C33_7 C40_7 1_555 1_555
Ni6 N3_8 1_555 1_555
O7_8 Ni6 1_555 1_555
O9_8 Ni6 1_555 1_555
O14_13 Ni6 1_555 1_555
H17_8 O14_13 1_555 1_555
H18_8 O14_13 1_555 1_555
C25_8 N3_8 1_555 1_555
H22_8 C25_8 1_555 1_555
Ni5 N1_8 1_555 1_555
N1_8 C1_8 1_555 1_555
N5_2 C10_8 1_555 1_555
O1_8 Ni5 1_555 1_555
O9_8 C20_8 1_555 1_555
O3_8 C19_8 1_555 1_555
O12_4 C19_8 1_555 1_555
O14_13 Ni5 1_555 1_555
C1_8 H2_8 1_555 1_555
C2_8 C1_8 1_555 1_555
H3_8 C2_8 1_555 1_555
C3_8 C2_8 1_555 1_555
C4_8 C3_8 1_555 1_555
H4_8 C4_8 1_555 1_555
C5_8 N1_8 1_555 1_555
H5_8 C5_8 1_555 1_555
C6_8 C3_8 1_555 1_555
H6_8 C6_8 1_555 1_555
C7_8 C6_8 1_555 1_555
H7_8 C7_8 1_555 1_555
C8_8 C7_8 1_555 1_555
C9_8 C8_8 1_555 1_555
H8_8 C9_8 1_555 1_555
C10_8 C9_8 1_555 1_555
H9_8 C10_8 1_555 1_555
C11_8 N5_2 1_555 1_555
H10_8 C11_8 1_555 1_555
C12_8 C8_8 1_555 1_555
H11_8 C12_8 1_555 1_555
C13_8 C14_8 1_555 1_555
C14_8 H12_8 1_555 1_555
C15_8 C14_8 1_555 1_555
H13_8 C15_8 1_555 1_555
C16_8 C15_8 1_555 1_555
H14_8 C16_8 1_555 1_555
C17_8 C16_8 1_555 1_555
C18_8 C13_8 1_555 1_555
H15_8 C18_8 1_555 1_555
C19_8 C17_8 1_555 1_555
C20_8 O1_8 1_555 1_555
N6_4 C30_8 1_555 1_555
O8_8 Ni5 1_555 1_555
O10_8 C39_8 1_555 1_555
O13_2 C39_8 1_555 1_555
C21_8 H19_8 1_555 1_555
C22_8 C21_8 1_555 1_555
H20_8 C22_8 1_555 1_555
C23_8 C22_8 1_555 1_555
C24_8 C23_8 1_555 1_555
H21_8 C24_8 1_555 1_555
C26_8 C6_8 1_555 1_555
H23_8 C26_8 1_555 1_555
C27_8 C7_8 1_555 1_555
H24_8 C27_8 1_555 1_555
C28_8 C27_8 1_555 1_555
C29_8 C28_8 1_555 1_555
H25_8 C29_8 1_555 1_555
C30_8 C29_8 1_555 1_555
H26_8 C30_8 1_555 1_555
C31_8 N6_4 1_555 1_555
H27_8 C31_8 1_555 1_555
C32_8 C28_8 1_555 1_555
H28_8 C32_8 1_555 1_555
C33_8 C34_8 1_555 1_555
C34_8 H29_8 1_555 1_555
C35_8 C34_8 1_555 1_555
H30_8 C35_8 1_555 1_555
C36_8 C35_8 1_555 1_555
H31_8 C36_8 1_555 1_555
C37_8 C36_8 1_555 1_555
C38_8 C33_8 1_555 1_555
H32_8 C38_8 1_555 1_555
C39_8 C37_8 1_555 1_555
C40_8 O7_8 1_555 1_555
C4_8 C5_8 1_555 1_555
C11_8 C12_8 1_555 1_555
C13_8 C20_8 1_555 1_555
C17_8 C18_8 1_555 1_555
O8_8 C40_8 1_555 1_555
C23_8 C26_8 1_555 1_555
C26_8 C27_8 1_555 1_555
C31_8 C32_8 1_555 1_555
C33_8 C40_8 1_555 1_555
C37_8 C38_8 1_555 1_555

#END
