
###############################################################################
#
# This file contains modified crystal structure data generated from the
# MOF subset of the Cambridge Structural Database (CSD) v543 
# hosted by the Cambridge Crystallographic Data Centre (CCDC).
#
# This work is licensed under the Creative Commons
# Attribution-NonCommercial-ShareAlike 4.0 International License.
# To view a copy of this license, visit
# http://creativecommons.org/licenses/by-nc-sa/4.0/
# or send a letter to
# Creative Commons, PO Box 1866, Mountain View, CA 94042, USA.
#
# CIF created using the CSD Python API on 29 September 2022
# The structure has been converted into the P1 space group
# The structure has a 3D framework
# The original CSD entry KALFEK is in the orthorhombic crystal system
# The framework has been calculated to contain at least 10.0% void space
# The void calculation uses a probe of radius 1.32A, grid spacing 0.4
#
###############################################################################

data_KALFEK
_chemical_formula_moiety         '(C320 H233 N28 Ni16 O66)n'
_symmetry_cell_setting           triclinic
_symmetry_space_group_name_H-M   'P 1'
_symmetry_Int_Tables_number      1
_space_group_name_Hall           'P 1'
loop_
_symmetry_equiv_pos_site_id
_symmetry_equiv_pos_as_xyz
1 x,y,z
_cell_length_a                   15.571(3)
_cell_length_b                   23.296(5)
_cell_length_c                   32.328(7)
_cell_angle_alpha                90
_cell_angle_beta                 90
_cell_angle_gamma                90
_cell_volume                     11726.7
loop_
_atom_site_label
_atom_site_type_symbol
_atom_site_fract_x
_atom_site_fract_y
_atom_site_fract_z
Ni5 Ni 0.11198(4) 0.01046(3) 0.16389(2)
O3 O 0.0785(3) 0.9314(2) 0.07709(18)
O4 O 0.1777(2) 0.96482(19) 0.11977(14)
C13 C 0.2805(4) 0.8674(2) 0.0009(2)
C14 C 0.3626(4) 0.8867(4) 0.0106(3)
C15 C 0.3768(4) 0.9244(4) 0.0420(3)
H13 H 0.4320 0.9397 0.0463
C16 C 0.3091(4) 0.9400(3) 0.0677(3)
H14 H 0.3195 0.9634 0.0908
C17 C 0.2264(4) 0.9212(3) 0.0595(2)
C18 C 0.2121(4) 0.8856(2) 0.0256(2)
H15 H 0.1560 0.8737 0.0193
C20 C 0.1552(4) 0.9401(3) 0.0875(2)
Ni7 Ni 0.38802(4) 0.48954(3) 0.16389(2)
O10 O 0.4215(3) 0.5686(2) 0.07709(18)
O11 O 0.3223(2) 0.53518(19) 0.11977(14)
C33 C 0.2195(4) 0.6326(2) 0.0009(2)
C34 C 0.1374(4) 0.6133(4) 0.0106(3)
C35 C 0.1232(4) 0.5756(4) 0.0420(3)
H30 H 0.0680 0.5603 0.0463
C36 C 0.1909(4) 0.5600(3) 0.0677(3)
H31 H 0.1805 0.5366 0.0908
C37 C 0.2736(4) 0.5788(3) 0.0595(2)
C38 C 0.2879(4) 0.6144(2) 0.0256(2)
H32 H 0.3440 0.6263 0.0193
C40 C 0.3448(4) 0.5599(3) 0.0875(2)
Ni1 Ni 0.13802(4) 0.76046(3) 0.91389(2)
N1 N 0.1071(3) 0.8361(2) 0.88268(17)
N2 N 0.2720(3) 0.9860(2) 0.69652(17)
O1 O 0.1928(2) 0.80504(17) 0.96158(13)
O2 O 0.3295(2) 0.81665(17) 0.94229(13)
O5 O 0.2500 0.7500 0.8780(2)
H1 H 0.270(2) 0.776(2) 0.8652(15)
C1 C 0.0294(4) 0.8437(3) 0.8658(2)
C2 C 0.0068(3) 0.8912(3) 0.8436(2)
C3 C 0.0653(3) 0.9347(2) 0.83726(19)
C4 C 0.1461(4) 0.9282(3) 0.8545(2)
H4 H 0.1881 0.9568 0.8512
C5 C 0.1644(4) 0.8782(3) 0.8768(2)
H5 H 0.2195 0.8740 0.8883
C6 C 0.0455(3) 0.9869(2) 0.8109(2)
C7 C 0.0348(3) 0.9764(2) 0.76322(19)
H7 H 0.0074 0.9386 0.7586
C8 C 0.1144(3) 0.9804(3) 0.7379(2)
C11 C 0.2475(3) 0.9389(3) 0.7162(2)
H10 H 0.2848 0.9072 0.7161
C12 C 0.1708(4) 0.9337(3) 0.7365(2)
H11 H 0.1561 0.8990 0.7495
H12 H 0.4095 0.8735 0.9949
C19 C 0.2669(3) 0.8260(2) 0.9661(2)
Ni3 Ni 0.38802(4) 0.98954(3) 0.66389(2)
Ni4 Ni 0.36198(4) 0.73954(3) 0.91389(2)
N5 N 0.0220(3) 0.7640(2) 0.94652(17)
O6 O 0.3072(2) 0.69496(17) 0.96158(13)
O8 O 0.1705(2) 0.68335(17) 0.94229(13)
O12 O 0.0723(2) 0.71482(19) 0.86977(14)
H16 H 0.230(2) 0.724(2) 0.8652(15)
H29 H 0.0905 0.6265 0.9949
C39 C 0.2331(3) 0.6740(2) 0.9661(2)
Ni2 Ni 0.86198(4) 0.23954(3) 0.91389(2)
Ni6 Ni 0.61198(4) 0.01046(3) 0.66389(2)
N3 N 0.8929(3) 0.1639(2) 0.88268(17)
N4 N 0.7280(3) 0.0140(2) 0.69652(17)
N6 N 0.9780(3) 0.2360(2) 0.94652(17)
O7 O 0.8072(2) 0.19496(17) 0.96158(13)
O9 O 0.8295(2) 0.31665(17) 0.94229(13)
O13 O 0.9277(2) 0.28518(19) 0.86977(14)
O14 O 0.7500 0.2500 0.8780(2)
H17 H 0.730(2) 0.224(2) 0.8652(15)
H18 H 0.770(2) 0.276(2) 0.8652(15)
C21 C 0.9706(4) 0.1563(3) 0.8658(2)
C22 C 0.9932(3) 0.1088(3) 0.8436(2)
C23 C 0.9347(3) 0.0653(2) 0.83726(19)
C24 C 0.8539(4) 0.0718(3) 0.8545(2)
H21 H 0.8119 0.0432 0.8512
C25 C 0.8356(4) 0.1218(3) 0.8768(2)
H22 H 0.7805 0.1260 0.8883
C26 C 0.9545(3) 0.0131(2) 0.8109(2)
C27 C 0.9652(3) 0.0236(2) 0.76322(19)
H24 H 0.9926 0.0614 0.7586
C28 C 0.8856(3) 0.0196(3) 0.7379(2)
C31 C 0.7525(3) 0.0611(3) 0.7162(2)
H27 H 0.7152 0.0928 0.7161
C32 C 0.8292(4) 0.0663(3) 0.7365(2)
H28 H 0.8439 0.1010 0.7495
O3_2 O 0.9215(3) 0.0686(2) 0.07709(18)
O4_2 O 0.8223(2) 0.03518(19) 0.11977(14)
C13_2 C 0.7195(4) 0.1326(2) 0.0009(2)
C14_2 C 0.6374(4) 0.1133(4) 0.0106(3)
C15_2 C 0.6232(4) 0.0756(4) 0.0420(3)
H13_2 H 0.5680 0.0603 0.0463
C16_2 C 0.6909(4) 0.0600(3) 0.0677(3)
H14_2 H 0.6805 0.0366 0.0908
C17_2 C 0.7736(4) 0.0788(3) 0.0595(2)
C18_2 C 0.7879(4) 0.1144(2) 0.0256(2)
H15_2 H 0.8440 0.1263 0.0193
C20_2 C 0.8448(4) 0.0599(3) 0.0875(2)
Ni7_2 Ni 0.61198(4) 0.51046(3) 0.16389(2)
O10_2 O 0.5785(3) 0.4314(2) 0.07709(18)
O11_2 O 0.6777(2) 0.46482(19) 0.11977(14)
C33_2 C 0.7805(4) 0.3674(2) 0.0009(2)
C34_2 C 0.8626(4) 0.3867(4) 0.0106(3)
C35_2 C 0.8768(4) 0.4244(4) 0.0420(3)
H30_2 H 0.9320 0.4397 0.0463
C36_2 C 0.8091(4) 0.4400(3) 0.0677(3)
H31_2 H 0.8195 0.4634 0.0908
C37_2 C 0.7264(4) 0.4212(3) 0.0595(2)
C38_2 C 0.7121(4) 0.3856(2) 0.0256(2)
H32_2 H 0.6560 0.3737 0.0193
C40_2 C 0.6552(4) 0.4401(3) 0.0875(2)
O2_2 O 0.6705(2) 0.18335(17) 0.94229(13)
H12_2 H 0.5905 0.1265 0.9949
C19_2 C 0.7331(3) 0.1740(2) 0.9661(2)
Ni4_2 Ni 0.63802(4) 0.26046(3) 0.91389(2)
O6_2 O 0.6928(2) 0.30504(17) 0.96158(13)
H29_2 H 0.9095 0.3735 0.9949
C39_2 C 0.7669(3) 0.3260(2) 0.9661(2)
Ni5_2 Ni 0.88802(4) 0.98954(3) 0.16389(2)
N1_2 N 0.3571(3) 0.4139(2) 0.13268(17)
O1_2 O 0.4428(2) 0.44496(17) 0.21158(13)
O2_3 O 0.5795(2) 0.43335(17) 0.19229(13)
O3_3 O 0.3285(3) 0.3186(2) 0.32709(18)
O4_3 O 0.4277(2) 0.28518(19) 0.36977(14)
O5_2 O 0.5000 0.5000 0.1280(2)
H1_2 H 0.520(2) 0.474(2) 0.1152(15)
C1_2 C 0.2794(4) 0.4063(3) 0.1158(2)
H2 H 0.2381 0.4354 0.1194
C2_2 C 0.2568(3) 0.3588(3) 0.0936(2)
H3 H 0.2011 0.3558 0.0826
C3_2 C 0.3153(3) 0.3153(2) 0.08726(19)
C4_2 C 0.3961(4) 0.3218(3) 0.1045(2)
H4_2 H 0.4381 0.2932 0.1012
C5_2 C 0.4144(4) 0.3718(3) 0.1268(2)
H5_2 H 0.4695 0.3760 0.1383
C6_2 C 0.2955(3) 0.2631(2) 0.0609(2)
H6 H 0.3388 0.2328 0.0658
C7_2 C 0.2848(3) 0.2736(2) 0.01322(19)
H7_2 H 0.2574 0.3114 0.0086
C13_3 C 0.5305(4) 0.3826(2) 0.2509(2)
C14_3 C 0.6126(4) 0.3633(4) 0.2606(3)
H12_3 H 0.6595 0.3765 0.2449
C15_3 C 0.6268(4) 0.3256(4) 0.2920(3)
H13_3 H 0.6820 0.3103 0.2963
C16_3 C 0.5591(4) 0.3100(3) 0.3177(3)
H14_3 H 0.5695 0.2866 0.3408
C17_3 C 0.4764(4) 0.3288(3) 0.3095(2)
C18_3 C 0.4621(4) 0.3644(2) 0.2756(2)
H15_3 H 0.4060 0.3763 0.2693
C19_3 C 0.5169(3) 0.4240(2) 0.2161(2)
C20_3 C 0.4052(4) 0.3099(3) 0.3375(2)
Ni5_3 Ni 0.36198(4) 0.23954(3) 0.41389(2)
Ni7_3 Ni 0.63802(4) 0.76046(3) 0.41389(2)
N3_2 N 0.1429(3) 0.0861(2) 0.13268(17)
N5_2 N 0.2720(3) 0.4860(2) 0.19652(17)
N6_2 N 0.2280(3) 0.0140(2) 0.19652(17)
O6_3 O 0.5572(2) 0.55504(17) 0.21158(13)
O7_2 O 0.0572(2) 0.05504(17) 0.21158(13)
O8_2 O 0.4205(2) 0.56665(17) 0.19229(13)
O10_3 O 0.6715(3) 0.6814(2) 0.32709(18)
O11_3 O 0.5723(2) 0.71482(19) 0.36977(14)
O14_2 O 0.0000 0.0000 0.1280(2)
H16_2 H 0.480(2) 0.526(2) 0.1152(15)
C21_2 C 0.2206(4) 0.0937(3) 0.1158(2)
H19 H 0.2619 0.0646 0.1194
C22_2 C 0.2432(3) 0.1412(3) 0.0936(2)
H20 H 0.2989 0.1442 0.0826
C23_2 C 0.1847(3) 0.1847(2) 0.08726(19)
C24_2 C 0.1039(4) 0.1782(3) 0.1045(2)
H21_2 H 0.0619 0.2068 0.1012
C25_2 C 0.0856(4) 0.1282(3) 0.1268(2)
H22_2 H 0.0305 0.1240 0.1383
C26_2 C 0.2045(3) 0.2369(2) 0.0609(2)
H23 H 0.1612 0.2672 0.0658
C27_2 C 0.2152(3) 0.2264(2) 0.01322(19)
H24_2 H 0.2426 0.1886 0.0086
C33_3 C 0.4695(4) 0.6174(2) 0.2509(2)
C34_3 C 0.3874(4) 0.6367(4) 0.2606(3)
H29_3 H 0.3405 0.6235 0.2449
C35_3 C 0.3732(4) 0.6744(4) 0.2920(3)
H30_3 H 0.3180 0.6897 0.2963
C36_3 C 0.4409(4) 0.6900(3) 0.3177(3)
H31_3 H 0.4305 0.7134 0.3408
C37_3 C 0.5236(4) 0.6712(3) 0.3095(2)
C38_3 C 0.5379(4) 0.6356(2) 0.2756(2)
H32_3 H 0.5940 0.6237 0.2693
C39_3 C 0.4831(3) 0.5760(2) 0.2161(2)
C40_3 C 0.5948(4) 0.6901(3) 0.3375(2)
N2_2 N 0.5220(3) 0.2640(2) 0.94652(17)
C8_2 C 0.3644(3) 0.2696(3) 0.9879(2)
C9 C 0.3902(4) 0.2210(3) 0.9669(2)
H8 H 0.3546 0.1884 0.9665
C10 C 0.4681(4) 0.2200(3) 0.9467(2)
H9 H 0.4837 0.1866 0.9323
C11_2 C 0.4975(3) 0.3111(3) 0.9662(2)
H10_2 H 0.5348 0.3428 0.9661
C12_2 C 0.4208(4) 0.3163(3) 0.9865(2)
H11_2 H 0.4061 0.3510 0.9995
C28_2 C 0.1356(3) 0.2304(3) 0.9879(2)
C29 C 0.1098(4) 0.2790(3) 0.9669(2)
H25 H 0.1454 0.3116 0.9665
C30 C 0.0319(4) 0.2800(3) 0.9467(2)
H26 H 0.0163 0.3134 0.9323
C31_2 C 0.0025(3) 0.1889(3) 0.9662(2)
C32_2 C 0.0792(4) 0.1837(3) 0.9865(2)
H28_2 H 0.0939 0.1490 0.9995
O9_2 O 0.0795(2) 0.93335(17) 0.19229(13)
O14_3 O 0.0000 1.0000 0.1280(2)
H18_2 H 0.020(2) 0.974(2) 0.1152(15)
O14_4 O 1.0000 0.0000 0.1280(2)
H17_2 H 0.980(2) 0.026(2) 0.1152(15)
H27_2 H 0.9652 0.1572 0.9661
O14_5 O 1.0000 1.0000 0.1280(2)
O3_4 O 0.1715(3) 0.1814(2) 0.32709(18)
O4_4 O 0.0723(2) 0.21482(19) 0.36977(14)
C17_4 C 0.0236(4) 0.1712(3) 0.3095(2)
C18_4 C 0.0379(4) 0.1356(2) 0.2756(2)
H15_4 H 0.0940 0.1237 0.2693
C20_4 C 0.0948(4) 0.1901(3) 0.3375(2)
Ni5_4 Ni 0.13802(4) 0.26046(3) 0.41389(2)
C33_4 C 0.0305(4) 0.8826(2) 0.2509(2)
C34_4 C 0.1126(4) 0.8633(4) 0.2606(3)
H29_4 H 0.1595 0.8765 0.2449
C35_4 C 0.1268(4) 0.8256(4) 0.2920(3)
H30_4 H 0.1820 0.8103 0.2963
C36_4 C 0.0591(4) 0.8100(3) 0.3177(3)
H31_4 H 0.0695 0.7866 0.3408
C39_4 C 0.0169(3) 0.9240(2) 0.2161(2)
O2_4 O 0.9205(2) 0.06665(17) 0.19229(13)
C13_4 C 0.9695(4) 0.1174(2) 0.2509(2)
C14_4 C 0.8874(4) 0.1367(4) 0.2606(3)
H12_4 H 0.8405 0.1235 0.2449
C15_4 C 0.8732(4) 0.1744(4) 0.2920(3)
H13_4 H 0.8180 0.1897 0.2963
C16_4 C 0.9409(4) 0.1900(3) 0.3177(3)
H14_4 H 0.9305 0.2134 0.3408
C19_4 C 0.9831(3) 0.0760(2) 0.2161(2)
Ni7_4 Ni 0.86198(4) 0.73954(3) 0.41389(2)
O6_4 O 0.9428(2) 0.94496(17) 0.21158(13)
O10_4 O 0.8285(3) 0.8186(2) 0.32709(18)
O11_4 O 0.9277(2) 0.78518(19) 0.36977(14)
C37_4 C 0.9764(4) 0.8288(3) 0.3095(2)
C38_4 C 0.9621(4) 0.8644(2) 0.2756(2)
H32_4 H 0.9060 0.8763 0.2693
C40_4 C 0.9052(4) 0.8099(3) 0.3375(2)
N1_3 N 0.1071(3) 0.3361(2) 0.38268(17)
O1_3 O 0.1928(2) 0.30504(17) 0.46158(13)
O2_5 O 0.3295(2) 0.31665(17) 0.44229(13)
O3_5 O 0.0785(3) 0.4314(2) 0.57709(18)
O4_5 O 0.1777(2) 0.46482(19) 0.61977(14)
O5_3 O 0.2500 0.2500 0.3780(2)
H1_3 H 0.270(2) 0.276(2) 0.3652(15)
C1_3 C 0.0294(4) 0.3437(3) 0.3658(2)
C2_3 C 0.0068(3) 0.3912(3) 0.3436(2)
C3_3 C 0.0653(3) 0.4347(2) 0.33726(19)
C4_3 C 0.1461(4) 0.4282(3) 0.3545(2)
H4_3 H 0.1881 0.4568 0.3512
C5_3 C 0.1644(4) 0.3782(3) 0.3768(2)
H5_3 H 0.2195 0.3740 0.3883
C6_3 C 0.0455(3) 0.4869(2) 0.3109(2)
H6_2 H 0.0888 0.5172 0.3158
C7_3 C 0.0348(3) 0.4764(2) 0.26322(19)
H7_3 H 0.0074 0.4386 0.2586
C8_3 C 0.1144(3) 0.4804(3) 0.2379(2)
C9_2 C 0.1402(4) 0.5290(3) 0.2169(2)
H8_2 H 0.1046 0.5616 0.2165
C10_2 C 0.2181(4) 0.5300(3) 0.1967(2)
H9_2 H 0.2337 0.5634 0.1823
C11_3 C 0.2475(3) 0.4389(3) 0.2162(2)
H10_3 H 0.2848 0.4072 0.2161
C12_3 C 0.1708(4) 0.4337(3) 0.2365(2)
H11_3 H 0.1561 0.3990 0.2495
C13_5 C 0.2805(4) 0.3674(2) 0.5009(2)
C14_5 C 0.3626(4) 0.3867(4) 0.5106(3)
H12_5 H 0.4095 0.3735 0.4949
C15_5 C 0.3768(4) 0.4244(4) 0.5420(3)
H13_5 H 0.4320 0.4397 0.5463
C16_5 C 0.3091(4) 0.4400(3) 0.5677(3)
H14_5 H 0.3195 0.4634 0.5908
C17_5 C 0.2264(4) 0.4212(3) 0.5595(2)
C18_5 C 0.2121(4) 0.3856(2) 0.5256(2)
H15_5 H 0.1560 0.3737 0.5193
C19_5 C 0.2669(3) 0.3260(2) 0.4661(2)
C20_5 C 0.1552(4) 0.4401(3) 0.5875(2)
Ni5_5 Ni 0.11198(4) 0.51046(3) 0.66389(2)
N5_3 N 0.0220(3) 0.2640(2) 0.44652(17)
O6_5 O 0.3072(2) 0.19496(17) 0.46158(13)
O8_3 O 0.1705(2) 0.18335(17) 0.44229(13)
O10_5 O 0.4215(3) 0.0686(2) 0.57709(18)
O11_5 O 0.3223(2) 0.03518(19) 0.61977(14)
H16_3 H 0.230(2) 0.224(2) 0.3652(15)
H19_2 H 0.0119 0.6854 0.3694
H20_2 H 0.0489 0.6058 0.3326
C33_5 C 0.2195(4) 0.1326(2) 0.5009(2)
C34_5 C 0.1374(4) 0.1133(4) 0.5106(3)
H29_5 H 0.0905 0.1265 0.4949
C35_5 C 0.1232(4) 0.0756(4) 0.5420(3)
H30_5 H 0.0680 0.0603 0.5463
C36_5 C 0.1909(4) 0.0600(3) 0.5677(3)
H31_5 H 0.1805 0.0366 0.5908
C37_5 C 0.2736(4) 0.0788(3) 0.5595(2)
C38_5 C 0.2879(4) 0.1144(2) 0.5256(2)
H32_5 H 0.3440 0.1263 0.5193
C39_5 C 0.2331(3) 0.1740(2) 0.4661(2)
C40_5 C 0.3448(4) 0.0599(3) 0.5875(2)
H2_2 H 0.9881 0.3146 0.3694
H3_2 H 0.9511 0.3942 0.3326
N3_3 N 0.8929(3) 0.6639(2) 0.38268(17)
N4_2 N 0.7280(3) 0.5140(2) 0.19652(17)
N6_3 N 0.9780(3) 0.7360(2) 0.44652(17)
O7_3 O 0.8072(2) 0.69496(17) 0.46158(13)
O9_3 O 0.8295(2) 0.81665(17) 0.44229(13)
O14_6 O 0.7500 0.7500 0.3780(2)
H17_3 H 0.730(2) 0.724(2) 0.3652(15)
H18_3 H 0.770(2) 0.776(2) 0.3652(15)
C21_3 C 0.9706(4) 0.6563(3) 0.3658(2)
C22_3 C 0.9932(3) 0.6088(3) 0.3436(2)
C23_3 C 0.9347(3) 0.5653(2) 0.33726(19)
C24_3 C 0.8539(4) 0.5718(3) 0.3545(2)
H21_3 H 0.8119 0.5432 0.3512
C25_3 C 0.8356(4) 0.6218(3) 0.3768(2)
H22_3 H 0.7805 0.6260 0.3883
C26_3 C 0.9545(3) 0.5131(2) 0.3109(2)
H23_2 H 0.9112 0.4828 0.3158
C27_3 C 0.9652(3) 0.5236(2) 0.26322(19)
H24_3 H 0.9926 0.5614 0.2586
C28_3 C 0.8856(3) 0.5196(3) 0.2379(2)
C29_2 C 0.8598(4) 0.4710(3) 0.2169(2)
H25_2 H 0.8954 0.4384 0.2165
C30_2 C 0.7819(4) 0.4700(3) 0.1967(2)
H26_2 H 0.7663 0.4366 0.1823
C31_3 C 0.7525(3) 0.5611(3) 0.2162(2)
H27_3 H 0.7152 0.5928 0.2161
C32_3 C 0.8292(4) 0.5663(3) 0.2365(2)
H28_3 H 0.8439 0.6010 0.2495
O2_6 O 0.6705(2) 0.68335(17) 0.44229(13)
O3_6 O 0.9215(3) 0.5686(2) 0.57709(18)
O4_6 O 0.8223(2) 0.53518(19) 0.61977(14)
C13_6 C 0.7195(4) 0.6326(2) 0.5009(2)
C14_6 C 0.6374(4) 0.6133(4) 0.5106(3)
H12_6 H 0.5905 0.6265 0.4949
C15_6 C 0.6232(4) 0.5756(4) 0.5420(3)
H13_6 H 0.5680 0.5603 0.5463
C16_6 C 0.6909(4) 0.5600(3) 0.5677(3)
H14_6 H 0.6805 0.5366 0.5908
C17_6 C 0.7736(4) 0.5788(3) 0.5595(2)
C18_6 C 0.7879(4) 0.6144(2) 0.5256(2)
H15_6 H 0.8440 0.6263 0.5193
C19_6 C 0.7331(3) 0.6740(2) 0.4661(2)
C20_6 C 0.8448(4) 0.5599(3) 0.5875(2)
Ni5_6 Ni 0.88802(4) 0.48954(3) 0.66389(2)
O6_6 O 0.6928(2) 0.80504(17) 0.46158(13)
O10_6 O 0.5785(3) 0.9314(2) 0.57709(18)
O11_6 O 0.6777(2) 0.96482(19) 0.61977(14)
C33_6 C 0.7805(4) 0.8674(2) 0.5009(2)
C34_6 C 0.8626(4) 0.8867(4) 0.5106(3)
H29_6 H 0.9095 0.8735 0.4949
C35_6 C 0.8768(4) 0.9244(4) 0.5420(3)
H30_6 H 0.9320 0.9397 0.5463
C36_6 C 0.8091(4) 0.9400(3) 0.5677(3)
H31_6 H 0.8195 0.9634 0.5908
C37_6 C 0.7264(4) 0.9212(3) 0.5595(2)
C38_6 C 0.7121(4) 0.8856(2) 0.5256(2)
H32_6 H 0.6560 0.8737 0.5193
C39_6 C 0.7669(3) 0.8260(2) 0.4661(2)
C40_6 C 0.6552(4) 0.9401(3) 0.5875(2)
O5_4 O 0.5000 0.0000 0.6280(2)
O6_7 O 0.5572(2) 0.05504(17) 0.71158(13)
O8_4 O 0.4205(2) 0.06665(17) 0.69229(13)
O10_7 O 0.6715(3) 0.1814(2) 0.82709(18)
O11_7 O 0.5723(2) 0.21482(19) 0.86977(14)
H16_4 H 0.480(2) 0.026(2) 0.6152(15)
C33_7 C 0.4695(4) 0.1174(2) 0.7509(2)
C34_7 C 0.3874(4) 0.1367(4) 0.7606(3)
H29_7 H 0.3405 0.1235 0.7449
C35_7 C 0.3732(4) 0.1744(4) 0.7920(3)
H30_7 H 0.3180 0.1897 0.7963
C36_7 C 0.4409(4) 0.1900(3) 0.8177(3)
H31_7 H 0.4305 0.2134 0.8408
C37_7 C 0.5236(4) 0.1712(3) 0.8095(2)
C38_7 C 0.5379(4) 0.1356(2) 0.7756(2)
H32_7 H 0.5940 0.1237 0.7693
C39_7 C 0.4831(3) 0.0760(2) 0.7161(2)
C40_7 C 0.5948(4) 0.1901(3) 0.8375(2)
N1_4 N 0.3571(3) 0.9139(2) 0.63268(17)
N2_3 N 0.5220(3) 0.7640(2) 0.44652(17)
O1_4 O 0.4428(2) 0.94496(17) 0.71158(13)
O2_7 O 0.5795(2) 0.93335(17) 0.69229(13)
O3_7 O 0.3285(3) 0.8186(2) 0.82709(18)
O4_7 O 0.4277(2) 0.78518(19) 0.86977(14)
O5_5 O 0.5000 1.0000 0.6280(2)
H1_4 H 0.520(2) 0.974(2) 0.6152(15)
C1_4 C 0.2794(4) 0.9063(3) 0.6158(2)
H2_3 H 0.2381 0.9354 0.6194
C2_4 C 0.2568(3) 0.8588(3) 0.5936(2)
H3_3 H 0.2011 0.8558 0.5826
C3_4 C 0.3153(3) 0.8153(2) 0.58726(19)
C4_4 C 0.3961(4) 0.8218(3) 0.6045(2)
H4_4 H 0.4381 0.7932 0.6012
C5_4 C 0.4144(4) 0.8718(3) 0.6268(2)
H5_4 H 0.4695 0.8760 0.6383
C6_4 C 0.2955(3) 0.7631(2) 0.5609(2)
H6_3 H 0.3388 0.7328 0.5658
C7_4 C 0.2848(3) 0.7736(2) 0.51322(19)
H7_4 H 0.2574 0.8114 0.5086
C8_4 C 0.3644(3) 0.7696(3) 0.4879(2)
C9_3 C 0.3902(4) 0.7210(3) 0.4669(2)
H8_3 H 0.3546 0.6884 0.4665
C10_3 C 0.4681(4) 0.7200(3) 0.4467(2)
H9_3 H 0.4837 0.6866 0.4323
C11_4 C 0.4975(3) 0.8111(3) 0.4662(2)
H10_4 H 0.5348 0.8428 0.4661
C12_4 C 0.4208(4) 0.8163(3) 0.4865(2)
H11_4 H 0.4061 0.8510 0.4995
C13_7 C 0.5305(4) 0.8826(2) 0.7509(2)
C14_7 C 0.6126(4) 0.8633(4) 0.7606(3)
H12_7 H 0.6595 0.8765 0.7449
C15_7 C 0.6268(4) 0.8256(4) 0.7920(3)
H13_7 H 0.6820 0.8103 0.7963
C16_7 C 0.5591(4) 0.8100(3) 0.8177(3)
H14_7 H 0.5695 0.7866 0.8408
C17_7 C 0.4764(4) 0.8288(3) 0.8095(2)
C18_7 C 0.4621(4) 0.8644(2) 0.7756(2)
H15_7 H 0.4060 0.8763 0.7693
C19_7 C 0.5169(3) 0.9240(2) 0.7161(2)
C20_7 C 0.4052(4) 0.8099(3) 0.8375(2)
N3_4 N 0.1429(3) 0.5861(2) 0.63268(17)
N6_4 N 0.2280(3) 0.5140(2) 0.69652(17)
O7_4 O 0.0572(2) 0.55504(17) 0.71158(13)
O9_4 O 0.0795(2) 0.43335(17) 0.69229(13)
O14_7 O 0.0000 0.5000 0.6280(2)
H18_4 H 0.020(2) 0.474(2) 0.6152(15)
C21_4 C 0.2206(4) 0.5937(3) 0.6158(2)
H19_3 H 0.2619 0.5646 0.6194
C22_4 C 0.2432(3) 0.6412(3) 0.5936(2)
H20_3 H 0.2989 0.6442 0.5826
C23_4 C 0.1847(3) 0.6847(2) 0.58726(19)
C24_4 C 0.1039(4) 0.6782(3) 0.6045(2)
H21_4 H 0.0619 0.7068 0.6012
C25_4 C 0.0856(4) 0.6282(3) 0.6268(2)
H22_4 H 0.0305 0.6240 0.6383
C26_4 C 0.2045(3) 0.7369(2) 0.5609(2)
H23_3 H 0.1612 0.7672 0.5658
C27_4 C 0.2152(3) 0.7264(2) 0.51322(19)
H24_4 H 0.2426 0.6886 0.5086
C28_4 C 0.1356(3) 0.7304(3) 0.4879(2)
C29_3 C 0.1098(4) 0.7790(3) 0.4669(2)
H25_3 H 0.1454 0.8116 0.4665
C30_3 C 0.0319(4) 0.7800(3) 0.4467(2)
H26_3 H 0.0163 0.8134 0.4323
C31_4 C 0.0025(3) 0.6889(3) 0.4662(2)
C32_4 C 0.0792(4) 0.6837(3) 0.4865(2)
H28_4 H 0.0939 0.6490 0.4995
O14_8 O 1.0000 0.5000 0.6280(2)
H17_4 H 0.980(2) 0.526(2) 0.6152(15)
H27_4 H 0.9652 0.6572 0.4661
O3_8 O 0.1715(3) 0.6814(2) 0.82709(18)
C17_8 C 0.0236(4) 0.6712(3) 0.8095(2)
C18_8 C 0.0379(4) 0.6356(2) 0.7756(2)
H15_8 H 0.0940 0.6237 0.7693
C20_8 C 0.0948(4) 0.6901(3) 0.8375(2)
C33_8 C 0.0305(4) 0.3826(2) 0.7509(2)
C34_8 C 0.1126(4) 0.3633(4) 0.7606(3)
H29_8 H 0.1595 0.3765 0.7449
C35_8 C 0.1268(4) 0.3256(4) 0.7920(3)
H30_8 H 0.1820 0.3103 0.7963
C36_8 C 0.0591(4) 0.3100(3) 0.8177(3)
H31_8 H 0.0695 0.2866 0.8408
C39_8 C 0.0169(3) 0.4240(2) 0.7161(2)
O2_8 O 0.9205(2) 0.56665(17) 0.69229(13)
C13_8 C 0.9695(4) 0.6174(2) 0.7509(2)
C14_8 C 0.8874(4) 0.6367(4) 0.7606(3)
H12_8 H 0.8405 0.6235 0.7449
C15_8 C 0.8732(4) 0.6744(4) 0.7920(3)
H13_8 H 0.8180 0.6897 0.7963
C16_8 C 0.9409(4) 0.6900(3) 0.8177(3)
H14_8 H 0.9305 0.7134 0.8408
C19_8 C 0.9831(3) 0.5760(2) 0.7161(2)
O6_8 O 0.9428(2) 0.44496(17) 0.71158(13)
O10_8 O 0.8285(3) 0.3186(2) 0.82709(18)
C37_8 C 0.9764(4) 0.3288(3) 0.8095(2)
C38_8 C 0.9621(4) 0.3644(2) 0.7756(2)
H32_8 H 0.9060 0.3763 0.7693
C40_8 C 0.9052(4) 0.3099(3) 0.8375(2)
H6_4 H 0.5888 0.0172 0.3158
C9_4 C 0.6402(4) 0.0290(3) 0.2169(2)
H8_4 H 0.6046 0.0616 0.2165
C10_4 C 0.7181(4) 0.0300(3) 0.1967(2)
H9_4 H 0.7337 0.0634 0.1823
N3_5 N 0.3929(3) 0.1639(2) 0.38268(17)
N6_5 N 0.4780(3) 0.2360(2) 0.44652(17)
C21_5 C 0.4706(4) 0.1563(3) 0.3658(2)
H19_4 H 0.5119 0.1854 0.3694
C22_5 C 0.4932(3) 0.1088(3) 0.3436(2)
H20_4 H 0.5489 0.1058 0.3326
C23_5 C 0.4347(3) 0.0653(2) 0.33726(19)
C24_5 C 0.3539(4) 0.0718(3) 0.3545(2)
H21_5 H 0.3119 0.0432 0.3512
C25_5 C 0.3356(4) 0.1218(3) 0.3768(2)
H22_5 H 0.2805 0.1260 0.3883
C26_5 C 0.4545(3) 0.0131(2) 0.3109(2)
C27_5 C 0.4652(3) 0.0236(2) 0.26322(19)
H24_5 H 0.4926 0.0614 0.2586
C28_5 C 0.3856(3) 0.0196(3) 0.2379(2)
C31_5 C 0.2525(3) 0.0611(3) 0.2162(2)
H27_5 H 0.2152 0.0928 0.2161
C32_5 C 0.3292(4) 0.0663(3) 0.2365(2)
H28_5 H 0.3439 0.1010 0.2495
N1_5 N 0.6071(3) 0.8361(2) 0.38268(17)
N2_4 N 0.7720(3) 0.9860(2) 0.19652(17)
C1_5 C 0.5294(4) 0.8437(3) 0.3658(2)
H2_4 H 0.4881 0.8146 0.3694
C2_5 C 0.5068(3) 0.8912(3) 0.3436(2)
H3_4 H 0.4511 0.8942 0.3326
C3_5 C 0.5653(3) 0.9347(2) 0.33726(19)
C4_5 C 0.6461(4) 0.9282(3) 0.3545(2)
H4_5 H 0.6881 0.9568 0.3512
C5_5 C 0.6644(4) 0.8782(3) 0.3768(2)
H5_5 H 0.7195 0.8740 0.3883
C6_5 C 0.5455(3) 0.9869(2) 0.3109(2)
C7_5 C 0.5348(3) 0.9764(2) 0.26322(19)
H7_5 H 0.5074 0.9386 0.2586
C8_5 C 0.6144(3) 0.9804(3) 0.2379(2)
C11_5 C 0.7475(3) 0.9389(3) 0.2162(2)
H10_5 H 0.7848 0.9072 0.2161
C12_5 C 0.6708(4) 0.9337(3) 0.2365(2)
H11_5 H 0.6561 0.8990 0.2495
H23_4 H 0.4112 0.9828 0.3158
C29_4 C 0.3598(4) 0.9710(3) 0.2169(2)
H25_4 H 0.3954 0.9384 0.2165
C30_4 C 0.2819(4) 0.9700(3) 0.1967(2)
H26_4 H 0.2663 0.9366 0.1823
H10_6 H 0.0348 0.3428 0.4661
N1_6 N 0.8571(3) 0.4139(2) 0.63268(17)
C1_6 C 0.7794(4) 0.4063(3) 0.6158(2)
H2_5 H 0.7381 0.4354 0.6194
C2_6 C 0.7568(3) 0.3588(3) 0.5936(2)
H3_5 H 0.7011 0.3558 0.5826
C3_6 C 0.8153(3) 0.3153(2) 0.58726(19)
C4_6 C 0.8961(4) 0.3218(3) 0.6045(2)
H4_6 H 0.9381 0.2932 0.6012
C5_6 C 0.9144(4) 0.3718(3) 0.6268(2)
H5_6 H 0.9695 0.3760 0.6383
C6_6 C 0.7955(3) 0.2631(2) 0.5609(2)
H6_5 H 0.8388 0.2328 0.5658
C7_6 C 0.7848(3) 0.2736(2) 0.51322(19)
H7_6 H 0.7574 0.3114 0.5086
C8_6 C 0.8644(3) 0.2696(3) 0.4879(2)
C9_5 C 0.8902(4) 0.2210(3) 0.4669(2)
H8_5 H 0.8546 0.1884 0.4665
C10_5 C 0.9681(4) 0.2200(3) 0.4467(2)
H9_5 H 0.9837 0.1866 0.4323
C11_6 C 0.9975(3) 0.3111(3) 0.4662(2)
C12_6 C 0.9208(4) 0.3163(3) 0.4865(2)
H11_6 H 0.9061 0.3510 0.4995
N3_6 N 0.6429(3) 0.0861(2) 0.63268(17)
N5_4 N 0.7720(3) 0.4860(2) 0.69652(17)
C21_6 C 0.7206(4) 0.0937(3) 0.6158(2)
H19_5 H 0.7619 0.0646 0.6194
C22_6 C 0.7432(3) 0.1412(3) 0.5936(2)
H20_5 H 0.7989 0.1442 0.5826
C23_6 C 0.6847(3) 0.1847(2) 0.58726(19)
C24_6 C 0.6039(4) 0.1782(3) 0.6045(2)
H21_6 H 0.5619 0.2068 0.6012
C25_6 C 0.5856(4) 0.1282(3) 0.6268(2)
H22_6 H 0.5305 0.1240 0.6383
C26_6 C 0.7045(3) 0.2369(2) 0.5609(2)
H23_5 H 0.6612 0.2672 0.5658
C27_6 C 0.7152(3) 0.2264(2) 0.51322(19)
H24_6 H 0.7426 0.1886 0.5086
C28_6 C 0.6356(3) 0.2304(3) 0.4879(2)
C29_5 C 0.6098(4) 0.2790(3) 0.4669(2)
H25_5 H 0.6454 0.3116 0.4665
C30_5 C 0.5319(4) 0.2800(3) 0.4467(2)
H26_5 H 0.5163 0.3134 0.4323
C31_6 C 0.5025(3) 0.1889(3) 0.4662(2)
H27_6 H 0.4652 0.1572 0.4661
C32_6 C 0.5792(4) 0.1837(3) 0.4865(2)
H28_6 H 0.5939 0.1490 0.4995
N1_7 N 0.6071(3) 0.3361(2) 0.88268(17)
C1_7 C 0.5294(4) 0.3437(3) 0.8658(2)
H2_6 H 0.4881 0.3146 0.8694
C2_7 C 0.5068(3) 0.3912(3) 0.8436(2)
H3_6 H 0.4511 0.3942 0.8326
C3_7 C 0.5653(3) 0.4347(2) 0.83726(19)
C4_7 C 0.6461(4) 0.4282(3) 0.8545(2)
H4_7 H 0.6881 0.4568 0.8512
C5_7 C 0.6644(4) 0.3782(3) 0.8768(2)
H5_7 H 0.7195 0.3740 0.8883
C6_7 C 0.5455(3) 0.4869(2) 0.8109(2)
H6_6 H 0.5888 0.5172 0.8158
C7_7 C 0.5348(3) 0.4764(2) 0.76322(19)
H7_7 H 0.5074 0.4386 0.7586
C8_7 C 0.6144(3) 0.4804(3) 0.7379(2)
C9_6 C 0.6402(4) 0.5290(3) 0.7169(2)
H8_6 H 0.6046 0.5616 0.7165
C10_6 C 0.7181(4) 0.5300(3) 0.6967(2)
H9_6 H 0.7337 0.5634 0.6823
C11_7 C 0.7475(3) 0.4389(3) 0.7162(2)
H10_7 H 0.7848 0.4072 0.7161
C12_7 C 0.6708(4) 0.4337(3) 0.7365(2)
H11_7 H 0.6561 0.3990 0.7495
N3_7 N 0.3929(3) 0.6639(2) 0.88268(17)
N6_6 N 0.4780(3) 0.7360(2) 0.94652(17)
C21_7 C 0.4706(4) 0.6563(3) 0.8658(2)
H19_6 H 0.5119 0.6854 0.8694
C22_7 C 0.4932(3) 0.6088(3) 0.8436(2)
H20_6 H 0.5489 0.6058 0.8326
C23_7 C 0.4347(3) 0.5653(2) 0.83726(19)
C24_7 C 0.3539(4) 0.5718(3) 0.8545(2)
H21_7 H 0.3119 0.5432 0.8512
C25_7 C 0.3356(4) 0.6218(3) 0.8768(2)
H22_7 H 0.2805 0.6260 0.8883
C26_7 C 0.4545(3) 0.5131(2) 0.8109(2)
H23_6 H 0.4112 0.4828 0.8158
C27_7 C 0.4652(3) 0.5236(2) 0.76322(19)
H24_7 H 0.4926 0.5614 0.7586
C28_7 C 0.3856(3) 0.5196(3) 0.7379(2)
C29_6 C 0.3598(4) 0.4710(3) 0.7169(2)
H25_6 H 0.3954 0.4384 0.7165
C30_6 C 0.2819(4) 0.4700(3) 0.6967(2)
H26_6 H 0.2663 0.4366 0.6823
C31_7 C 0.2525(3) 0.5611(3) 0.7162(2)
H27_7 H 0.2152 0.5928 0.7161
C32_7 C 0.3292(4) 0.5663(3) 0.7365(2)
H28_7 H 0.3439 0.6010 0.7495
H10_8 H 0.0348 0.8428 0.9661
N1_8 N 0.8571(3) 0.9139(2) 0.13268(17)
C1_8 C 0.7794(4) 0.9063(3) 0.1158(2)
H2_7 H 0.7381 0.9354 0.1194
C2_8 C 0.7568(3) 0.8588(3) 0.0936(2)
H3_7 H 0.7011 0.8558 0.0826
C3_8 C 0.8153(3) 0.8153(2) 0.08726(19)
C4_8 C 0.8961(4) 0.8218(3) 0.1045(2)
H4_8 H 0.9381 0.7932 0.1012
C5_8 C 0.9144(4) 0.8718(3) 0.1268(2)
H5_8 H 0.9695 0.8760 0.1383
C6_8 C 0.7955(3) 0.7631(2) 0.0609(2)
H6_7 H 0.8388 0.7328 0.0658
C7_8 C 0.7848(3) 0.7736(2) 0.01322(19)
H7_8 H 0.7574 0.8114 0.0086
N3_8 N 0.6429(3) 0.5861(2) 0.13268(17)
C21_8 C 0.7206(4) 0.5937(3) 0.1158(2)
H19_7 H 0.7619 0.5646 0.1194
C22_8 C 0.7432(3) 0.6412(3) 0.0936(2)
H20_7 H 0.7989 0.6442 0.0826
C23_8 C 0.6847(3) 0.6847(2) 0.08726(19)
C24_8 C 0.6039(4) 0.6782(3) 0.1045(2)
H21_8 H 0.5619 0.7068 0.1012
C25_8 C 0.5856(4) 0.6282(3) 0.1268(2)
H22_8 H 0.5305 0.6240 0.1383
C26_8 C 0.7045(3) 0.7369(2) 0.0609(2)
H23_7 H 0.6612 0.7672 0.0658
C27_8 C 0.7152(3) 0.7264(2) 0.01322(19)
H24_8 H 0.7426 0.6886 0.0086
C8_8 C 0.8644(3) 0.7696(3) 0.9879(2)
C9_7 C 0.8902(4) 0.7210(3) 0.9669(2)
H8_7 H 0.8546 0.6884 0.9665
C10_7 C 0.9681(4) 0.7200(3) 0.9467(2)
H9_7 H 0.9837 0.6866 0.9323
C11_8 C 0.9975(3) 0.8111(3) 0.9662(2)
C12_8 C 0.9208(4) 0.8163(3) 0.9865(2)
H11_8 H 0.9061 0.8510 0.9995
C28_8 C 0.6356(3) 0.7304(3) 0.9879(2)
C29_7 C 0.6098(4) 0.7790(3) 0.9669(2)
H25_7 H 0.6454 0.8116 0.9665
C30_7 C 0.5319(4) 0.7800(3) 0.9467(2)
H26_7 H 0.5163 0.8134 0.9323
C31_8 C 0.5025(3) 0.6889(3) 0.9662(2)
H27_8 H 0.4652 0.6572 0.9661
C32_8 C 0.5792(4) 0.6837(3) 0.9865(2)
H28_8 H 0.5939 0.6490 0.9995
H6_8 H 0.0888 0.0172 0.8158
C9_8 C 0.1402(4) 0.0290(3) 0.7169(2)
H8_8 H 0.1046 0.0616 0.7165
C10_8 C 0.2181(4) 0.0300(3) 0.6967(2)
H9_8 H 0.2337 0.0634 0.6823
H19_8 H 0.0119 0.1854 0.8694
H20_8 H 0.0489 0.1058 0.8326
H2_8 H 0.9881 0.8146 0.8694
H3_8 H 0.9511 0.8942 0.8326
H23_8 H 0.9112 0.9828 0.8158
C29_8 C 0.8598(4) 0.9710(3) 0.7169(2)
H25_8 H 0.8954 0.9384 0.7165
C30_8 C 0.7819(4) 0.9700(3) 0.6967(2)
H26_8 H 0.7663 0.9366 0.6823
loop_
_geom_bond_atom_site_label_1
_geom_bond_atom_site_label_2
_geom_bond_site_symmetry_1
_geom_bond_site_symmetry_2
O3 C20 1_555 1_555
O4 C20 1_555 1_555
C13 C14 1_555 1_555
C15 C14 1_555 1_555
H13 C15 1_555 1_555
C16 C15 1_555 1_555
H14 C16 1_555 1_555
C17 C16 1_555 1_555
C18 C13 1_555 1_555
H15 C18 1_555 1_555
C20 C17 1_555 1_555
Ni7 O11 1_555 1_555
O10 C40 1_555 1_555
O11 C40 1_555 1_555
C33 C34 1_555 1_555
C35 C34 1_555 1_555
H30 C35 1_555 1_555
C36 C35 1_555 1_555
H31 C36 1_555 1_555
C37 C36 1_555 1_555
C38 C33 1_555 1_555
H32 C38 1_555 1_555
C40 C37 1_555 1_555
C17 C18 1_555 1_555
C37 C38 1_555 1_555
Ni1 N1 1_555 1_555
N1 C1 1_555 1_555
O1 Ni1 1_555 1_555
O2 C19 1_555 1_555
O5 Ni1 1_555 1_555
H1 O5 1_555 1_555
C2 C1 1_555 1_555
C3 C2 1_555 1_555
C4 C3 1_555 1_555
H4 C4 1_555 1_555
C5 N1 1_555 1_555
H5 C5 1_555 1_555
C6 C3 1_555 1_555
C7 C6 1_555 1_555
H7 C7 1_555 1_555
C8 C7 1_555 1_555
C11 N2 1_555 1_555
H10 C11 1_555 1_555
C12 C8 1_555 1_555
H11 C12 1_555 1_555
C19 O1 1_555 1_555
Ni3 N2 1_555 1_555
Ni4 O2 1_555 1_555
N5 Ni1 1_555 1_555
O6 Ni4 1_555 1_555
O8 Ni1 1_555 1_555
O12 Ni1 1_555 1_555
H16 O5 1_555 1_555
C39 O6 1_555 1_555
O5 Ni4 1_555 1_555
C4 C5 1_555 1_555
C11 C12 1_555 1_555
O8 C39 1_555 1_555
Ni2 N3 1_555 1_555
Ni6 N4 1_555 1_555
N3 C21 1_555 1_555
N6 Ni2 1_555 1_555
O7 Ni2 1_555 1_555
O9 Ni2 1_555 1_555
O13 Ni2 1_555 1_555
O14 Ni2 1_555 1_555
H17 O14 1_555 1_555
H18 O14 1_555 1_555
C22 C21 1_555 1_555
C23 C22 1_555 1_555
C24 C23 1_555 1_555
H21 C24 1_555 1_555
C25 N3 1_555 1_555
H22 C25 1_555 1_555
H24 C27 1_555 1_555
C28 C27 1_555 1_555
C31 N4 1_555 1_555
H27 C31 1_555 1_555
C32 C28 1_555 1_555
H28 C32 1_555 1_555
C23 C26 1_555 1_555
C24 C25 1_555 1_555
C26 C27 1_555 1_555
C31 C32 1_555 1_555
O3_2 C20_2 1_555 1_555
O4_2 C20_2 1_555 1_555
C13_2 C14_2 1_555 1_555
C15_2 C14_2 1_555 1_555
H13_2 C15_2 1_555 1_555
C16_2 C15_2 1_555 1_555
H14_2 C16_2 1_555 1_555
C17_2 C16_2 1_555 1_555
C18_2 C13_2 1_555 1_555
H15_2 C18_2 1_555 1_555
C20_2 C17_2 1_555 1_555
Ni7_2 O11_2 1_555 1_555
O10_2 C40_2 1_555 1_555
O11_2 C40_2 1_555 1_555
C33_2 C34_2 1_555 1_555
C35_2 C34_2 1_555 1_555
H30_2 C35_2 1_555 1_555
C36_2 C35_2 1_555 1_555
H31_2 C36_2 1_555 1_555
C37_2 C36_2 1_555 1_555
C38_2 C33_2 1_555 1_555
H32_2 C38_2 1_555 1_555
C40_2 C37_2 1_555 1_555
C17_2 C18_2 1_555 1_555
C37_2 C38_2 1_555 1_555
O2_2 C19_2 1_555 1_555
C19_2 O7 1_555 1_555
Ni4_2 O2_2 1_555 1_555
O6_2 Ni4_2 1_555 1_555
C39_2 O6_2 1_555 1_555
O14 Ni4_2 1_555 1_555
O9 C39_2 1_555 1_555
Ni7 N1_2 1_555 1_555
N1_2 C1_2 1_555 1_555
O1_2 Ni7 1_555 1_555
O2_3 C19_3 1_555 1_555
O3_3 C20_3 1_555 1_555
O4_3 C20_3 1_555 1_555
O5_2 Ni7 1_555 1_555
H1_2 O5_2 1_555 1_555
C1_2 H2 1_555 1_555
C2_2 C1_2 1_555 1_555
H3 C2_2 1_555 1_555
C3_2 C2_2 1_555 1_555
C4_2 C3_2 1_555 1_555
H4_2 C4_2 1_555 1_555
C5_2 N1_2 1_555 1_555
H5_2 C5_2 1_555 1_555
C6_2 C3_2 1_555 1_555
H6 C6_2 1_555 1_555
C7_2 C6_2 1_555 1_555
H7_2 C7_2 1_555 1_555
C13_3 C14_3 1_555 1_555
C14_3 H12_3 1_555 1_555
C15_3 C14_3 1_555 1_555
H13_3 C15_3 1_555 1_555
C16_3 C15_3 1_555 1_555
H14_3 C16_3 1_555 1_555
C17_3 C16_3 1_555 1_555
C18_3 C13_3 1_555 1_555
H15_3 C18_3 1_555 1_555
C19_3 O1_2 1_555 1_555
C20_3 C17_3 1_555 1_555
Ni5 N3_2 1_555 1_555
Ni7_2 O2_3 1_555 1_555
Ni5_3 O4_3 1_555 1_555
Ni7_3 O11_3 1_555 1_555
N3_2 C21_2 1_555 1_555
N5_2 Ni7 1_555 1_555
N6_2 Ni5 1_555 1_555
O6_3 Ni7_2 1_555 1_555
O7_2 Ni5 1_555 1_555
O8_2 Ni7 1_555 1_555
O10_3 C40_3 1_555 1_555
O11_3 C40_3 1_555 1_555
O14_2 Ni5 1_555 1_555
H16_2 O5_2 1_555 1_555
C21_2 H19 1_555 1_555
C22_2 C21_2 1_555 1_555
H20 C22_2 1_555 1_555
C23_2 C22_2 1_555 1_555
C24_2 C23_2 1_555 1_555
H21_2 C24_2 1_555 1_555
C25_2 N3_2 1_555 1_555
H22_2 C25_2 1_555 1_555
C26_2 C6_2 1_555 1_555
H23 C26_2 1_555 1_555
C27_2 C7_2 1_555 1_555
H24_2 C27_2 1_555 1_555
C33_3 C34_3 1_555 1_555
C34_3 H29_3 1_555 1_555
C35_3 C34_3 1_555 1_555
H30_3 C35_3 1_555 1_555
C36_3 C35_3 1_555 1_555
H31_3 C36_3 1_555 1_555
C37_3 C36_3 1_555 1_555
C38_3 C33_3 1_555 1_555
H32_3 C38_3 1_555 1_555
C39_3 O6_3 1_555 1_555
C40_3 C37_3 1_555 1_555
O5_2 Ni7_2 1_555 1_555
C4_2 C5_2 1_555 1_555
C13_3 C19_3 1_555 1_555
C17_3 C18_3 1_555 1_555
O8_2 C39_3 1_555 1_555
C23_2 C26_2 1_555 1_555
C24_2 C25_2 1_555 1_555
C26_2 C27_2 1_555 1_555
C33_3 C39_3 1_555 1_555
C37_3 C38_3 1_555 1_555
N2_2 C10 1_555 1_555
C9 C8_2 1_555 1_555
H8 C9 1_555 1_555
C10 C9 1_555 1_555
H9 C10 1_555 1_555
C11_2 N2_2 1_555 1_555
H10_2 C11_2 1_555 1_555
C12_2 C8_2 1_555 1_555
H11_2 C12_2 1_555 1_555
Ni4_2 N2_2 1_555 1_555
C29 C28_2 1_555 1_555
H25 C29 1_555 1_555
C30 C29 1_555 1_555
H26 C30 1_555 1_555
C32_2 C28_2 1_555 1_555
H28_2 C32_2 1_555 1_555
C11_2 C12_2 1_555 1_555
C31_2 C32_2 1_555 1_555
H18_2 O14_3 1_555 1_555
H17_2 O14_4 1_555 1_555
O3_4 C20_4 1_555 1_555
O4_4 C20_4 1_555 1_555
H15_4 C18_4 1_555 1_555
C20_4 C17_4 1_555 1_555
Ni5_4 O4_4 1_555 1_555
C17_4 C18_4 1_555 1_555
C33_4 C34_4 1_555 1_555
C34_4 H29_4 1_555 1_555
C35_4 C34_4 1_555 1_555
H30_4 C35_4 1_555 1_555
C36_4 C35_4 1_555 1_555
H31_4 C36_4 1_555 1_555
O9_2 C39_4 1_555 1_555
C33_4 C39_4 1_555 1_555
O2_4 C19_4 1_555 1_555
C13_4 C14_4 1_555 1_555
C14_4 H12_4 1_555 1_555
C15_4 C14_4 1_555 1_555
H13_4 C15_4 1_555 1_555
C16_4 C15_4 1_555 1_555
H14_4 C16_4 1_555 1_555
C13_4 C19_4 1_555 1_555
Ni7_4 O11_4 1_555 1_555
O6_4 Ni5_2 1_555 1_555
O10_4 C40_4 1_555 1_555
O11_4 C40_4 1_555 1_555
H32_4 C38_4 1_555 1_555
C40_4 C37_4 1_555 1_555
O14_5 Ni5_2 1_555 1_555
C37_4 C38_4 1_555 1_555
Ni5_4 N1_3 1_555 1_555
N1_3 C1_3 1_555 1_555
N5_2 C10_2 1_555 1_555
O1_3 Ni5_4 1_555 1_555
O2_5 C19_5 1_555 1_555
O3_5 C20_5 1_555 1_555
O4_5 C20_5 1_555 1_555
O5_3 Ni5_4 1_555 1_555
H1_3 O5_3 1_555 1_555
C2_3 C1_3 1_555 1_555
C3_3 C2_3 1_555 1_555
C4_3 C3_3 1_555 1_555
H4_3 C4_3 1_555 1_555
C5_3 N1_3 1_555 1_555
H5_3 C5_3 1_555 1_555
C6_3 C3_3 1_555 1_555
H6_2 C6_3 1_555 1_555
C7_3 C6_3 1_555 1_555
H7_3 C7_3 1_555 1_555
C8_3 C7_3 1_555 1_555
C9_2 C8_3 1_555 1_555
H8_2 C9_2 1_555 1_555
C10_2 C9_2 1_555 1_555
H9_2 C10_2 1_555 1_555
C11_3 N5_2 1_555 1_555
H10_3 C11_3 1_555 1_555
C12_3 C8_3 1_555 1_555
H11_3 C12_3 1_555 1_555
C13_5 C14_5 1_555 1_555
C14_5 H12_5 1_555 1_555
C15_5 C14_5 1_555 1_555
H13_5 C15_5 1_555 1_555
C16_5 C15_5 1_555 1_555
H14_5 C16_5 1_555 1_555
C17_5 C16_5 1_555 1_555
C18_5 C13_5 1_555 1_555
H15_5 C18_5 1_555 1_555
C19_5 O1_3 1_555 1_555
C20_5 C17_5 1_555 1_555
Ni5_3 O2_5 1_555 1_555
Ni5_5 O4_5 1_555 1_555
N5_3 Ni5_4 1_555 1_555
O6_5 Ni5_3 1_555 1_555
O8_3 Ni5_4 1_555 1_555
O10_5 C40_5 1_555 1_555
O11_5 C40_5 1_555 1_555
H16_3 O5_3 1_555 1_555
C33_5 C34_5 1_555 1_555
C34_5 H29_5 1_555 1_555
C35_5 C34_5 1_555 1_555
H30_5 C35_5 1_555 1_555
C36_5 C35_5 1_555 1_555
H31_5 C36_5 1_555 1_555
C37_5 C36_5 1_555 1_555
C38_5 C33_5 1_555 1_555
H32_5 C38_5 1_555 1_555
C39_5 O6_5 1_555 1_555
C40_5 C37_5 1_555 1_555
O5_3 Ni5_3 1_555 1_555
C4_3 C5_3 1_555 1_555
C11_3 C12_3 1_555 1_555
C13_5 C19_5 1_555 1_555
C17_5 C18_5 1_555 1_555
O8_3 C39_5 1_555 1_555
C33_5 C39_5 1_555 1_555
C37_5 C38_5 1_555 1_555
Ni7_4 N3_3 1_555 1_555
Ni7_2 N4_2 1_555 1_555
N3_3 C21_3 1_555 1_555
N4_2 C30_2 1_555 1_555
N6_3 Ni7_4 1_555 1_555
O7_3 Ni7_4 1_555 1_555
O9_3 Ni7_4 1_555 1_555
O14_6 Ni7_4 1_555 1_555
H17_3 O14_6 1_555 1_555
H18_3 O14_6 1_555 1_555
C22_3 C21_3 1_555 1_555
C23_3 C22_3 1_555 1_555
C24_3 C23_3 1_555 1_555
H21_3 C24_3 1_555 1_555
C25_3 N3_3 1_555 1_555
H22_3 C25_3 1_555 1_555
H23_2 C26_3 1_555 1_555
H24_3 C27_3 1_555 1_555
C28_3 C27_3 1_555 1_555
C29_2 C28_3 1_555 1_555
H25_2 C29_2 1_555 1_555
C30_2 C29_2 1_555 1_555
H26_2 C30_2 1_555 1_555
C31_3 N4_2 1_555 1_555
H27_3 C31_3 1_555 1_555
C32_3 C28_3 1_555 1_555
H28_3 C32_3 1_555 1_555
C23_3 C26_3 1_555 1_555
C24_3 C25_3 1_555 1_555
C26_3 C27_3 1_555 1_555
C31_3 C32_3 1_555 1_555
O2_6 C19_6 1_555 1_555
O3_6 C20_6 1_555 1_555
O4_6 C20_6 1_555 1_555
C13_6 C14_6 1_555 1_555
C14_6 H12_6 1_555 1_555
C15_6 C14_6 1_555 1_555
H13_6 C15_6 1_555 1_555
C16_6 C15_6 1_555 1_555
H14_6 C16_6 1_555 1_555
C17_6 C16_6 1_555 1_555
C18_6 C13_6 1_555 1_555
H15_6 C18_6 1_555 1_555
C19_6 O7_3 1_555 1_555
C20_6 C17_6 1_555 1_555
Ni7_3 O2_6 1_555 1_555
Ni5_6 O4_6 1_555 1_555
O6_6 Ni7_3 1_555 1_555
O10_6 C40_6 1_555 1_555
O11_6 C40_6 1_555 1_555
C33_6 C34_6 1_555 1_555
C34_6 H29_6 1_555 1_555
C35_6 C34_6 1_555 1_555
H30_6 C35_6 1_555 1_555
C36_6 C35_6 1_555 1_555
H31_6 C36_6 1_555 1_555
C37_6 C36_6 1_555 1_555
C38_6 C33_6 1_555 1_555
H32_6 C38_6 1_555 1_555
C39_6 O6_6 1_555 1_555
C40_6 C37_6 1_555 1_555
O14_6 Ni7_3 1_555 1_555
C13_6 C19_6 1_555 1_555
C17_6 C18_6 1_555 1_555
O9_3 C39_6 1_555 1_555
C33_6 C39_6 1_555 1_555
C37_6 C38_6 1_555 1_555
Ni4_2 O11_7 1_555 1_555
O6_7 Ni6 1_555 1_555
O10_7 C40_7 1_555 1_555
O11_7 C40_7 1_555 1_555
H16_4 O5_4 1_555 1_555
C33_7 C34_7 1_555 1_555
C34_7 H29_7 1_555 1_555
C35_7 C34_7 1_555 1_555
H30_7 C35_7 1_555 1_555
C36_7 C35_7 1_555 1_555
H31_7 C36_7 1_555 1_555
C37_7 C36_7 1_555 1_555
C38_7 C33_7 1_555 1_555
H32_7 C38_7 1_555 1_555
C39_7 O6_7 1_555 1_555
C40_7 C37_7 1_555 1_555
O5_4 Ni6 1_555 1_555
O8_4 C39_7 1_555 1_555
C33_7 C39_7 1_555 1_555
C37_7 C38_7 1_555 1_555
Ni3 N1_4 1_555 1_555
N1_4 C1_4 1_555 1_555
N2_3 C10_3 1_555 1_555
O1_4 Ni3 1_555 1_555
O2_7 C19_7 1_555 1_555
O3_7 C20_7 1_555 1_555
O4_7 C20_7 1_555 1_555
O5_5 Ni3 1_555 1_555
H1_4 O5_5 1_555 1_555
C1_4 H2_3 1_555 1_555
C2_4 C1_4 1_555 1_555
H3_3 C2_4 1_555 1_555
C3_4 C2_4 1_555 1_555
C4_4 C3_4 1_555 1_555
H4_4 C4_4 1_555 1_555
C5_4 N1_4 1_555 1_555
H5_4 C5_4 1_555 1_555
C6_4 C3_4 1_555 1_555
H6_3 C6_4 1_555 1_555
C7_4 C6_4 1_555 1_555
H7_4 C7_4 1_555 1_555
C8_4 C7_4 1_555 1_555
C9_3 C8_4 1_555 1_555
H8_3 C9_3 1_555 1_555
C10_3 C9_3 1_555 1_555
H9_3 C10_3 1_555 1_555
C11_4 N2_3 1_555 1_555
H10_4 C11_4 1_555 1_555
C12_4 C8_4 1_555 1_555
H11_4 C12_4 1_555 1_555
C13_7 C14_7 1_555 1_555
C14_7 H12_7 1_555 1_555
C15_7 C14_7 1_555 1_555
H13_7 C15_7 1_555 1_555
C16_7 C15_7 1_555 1_555
H14_7 C16_7 1_555 1_555
C17_7 C16_7 1_555 1_555
C18_7 C13_7 1_555 1_555
H15_7 C18_7 1_555 1_555
C19_7 O1_4 1_555 1_555
C20_7 C17_7 1_555 1_555
Ni5_5 N3_4 1_555 1_555
Ni7_3 N2_3 1_555 1_555
Ni4 O4_7 1_555 1_555
N3_4 C21_4 1_555 1_555
N6_4 Ni5_5 1_555 1_555
O7_4 Ni5_5 1_555 1_555
O9_4 Ni5_5 1_555 1_555
O14_7 Ni5_5 1_555 1_555
H18_4 O14_7 1_555 1_555
C21_4 H19_3 1_555 1_555
C22_4 C21_4 1_555 1_555
H20_3 C22_4 1_555 1_555
C23_4 C22_4 1_555 1_555
C24_4 C23_4 1_555 1_555
H21_4 C24_4 1_555 1_555
C25_4 N3_4 1_555 1_555
H22_4 C25_4 1_555 1_555
C26_4 C6_4 1_555 1_555
H23_3 C26_4 1_555 1_555
C27_4 C7_4 1_555 1_555
H24_4 C27_4 1_555 1_555
C28_4 C27_4 1_555 1_555
C29_3 C28_4 1_555 1_555
H25_3 C29_3 1_555 1_555
C30_3 C29_3 1_555 1_555
H26_3 C30_3 1_555 1_555
C32_4 C28_4 1_555 1_555
H28_4 C32_4 1_555 1_555
C4_4 C5_4 1_555 1_555
C11_4 C12_4 1_555 1_555
C13_7 C19_7 1_555 1_555
C17_7 C18_7 1_555 1_555
C23_4 C26_4 1_555 1_555
C24_4 C25_4 1_555 1_555
C26_4 C27_4 1_555 1_555
C31_4 C32_4 1_555 1_555
H17_4 O14_8 1_555 1_555
O3_8 C20_8 1_555 1_555
O12 C20_8 1_555 1_555
H15_8 C18_8 1_555 1_555
C20_8 C17_8 1_555 1_555
C33_8 C34_8 1_555 1_555
C34_8 H29_8 1_555 1_555
C35_8 C34_8 1_555 1_555
H30_8 C35_8 1_555 1_555
C36_8 C35_8 1_555 1_555
H31_8 C36_8 1_555 1_555
C17_8 C18_8 1_555 1_555
O9_4 C39_8 1_555 1_555
C33_8 C39_8 1_555 1_555
O2_8 C19_8 1_555 1_555
C13_8 C14_8 1_555 1_555
C14_8 H12_8 1_555 1_555
C15_8 C14_8 1_555 1_555
H13_8 C15_8 1_555 1_555
C16_8 C15_8 1_555 1_555
H14_8 C16_8 1_555 1_555
Ni5_6 O2_8 1_555 1_555
O6_8 Ni5_6 1_555 1_555
O10_8 C40_8 1_555 1_555
O13 C40_8 1_555 1_555
H32_8 C38_8 1_555 1_555
C40_8 C37_8 1_555 1_555
O14_8 Ni5_6 1_555 1_555
C13_8 C19_8 1_555 1_555
C37_8 C38_8 1_555 1_555
H8_4 C9_4 1_555 1_555
C10_4 C9_4 1_555 1_555
H9_4 C10_4 1_555 1_555
Ni5_3 N3_5 1_555 1_555
N3_5 C21_5 1_555 1_555
N6_5 Ni5_3 1_555 1_555
C21_5 H19_4 1_555 1_555
C22_5 C21_5 1_555 1_555
H20_4 C22_5 1_555 1_555
C23_5 C22_5 1_555 1_555
C24_5 C23_5 1_555 1_555
H21_5 C24_5 1_555 1_555
C25_5 N3_5 1_555 1_555
H22_5 C25_5 1_555 1_555
H24_5 C27_5 1_555 1_555
C28_5 C27_5 1_555 1_555
C31_5 N6_2 1_555 1_555
H27_5 C31_5 1_555 1_555
C32_5 C28_5 1_555 1_555
H28_5 C32_5 1_555 1_555
C23_5 C26_5 1_555 1_555
C24_5 C25_5 1_555 1_555
C26_5 C27_5 1_555 1_555
C31_5 C32_5 1_555 1_555
Ni7_3 N1_5 1_555 1_555
N1_5 C1_5 1_555 1_555
C1_5 H2_4 1_555 1_555
C2_5 C1_5 1_555 1_555
H3_4 C2_5 1_555 1_555
C3_5 C2_5 1_555 1_555
C4_5 C3_5 1_555 1_555
H4_5 C4_5 1_555 1_555
C5_5 N1_5 1_555 1_555
H5_5 C5_5 1_555 1_555
C6_5 C3_5 1_555 1_555
C7_5 C6_5 1_555 1_555
H7_5 C7_5 1_555 1_555
C8_5 C7_5 1_555 1_555
C11_5 N2_4 1_555 1_555
H10_5 C11_5 1_555 1_555
C12_5 C8_5 1_555 1_555
H11_5 C12_5 1_555 1_555
Ni5_2 N2_4 1_555 1_555
H25_4 C29_4 1_555 1_555
C30_4 C29_4 1_555 1_555
H26_4 C30_4 1_555 1_555
C4_5 C5_5 1_555 1_555
C11_5 C12_5 1_555 1_555
Ni5_6 N1_6 1_555 1_555
N1_6 C1_6 1_555 1_555
C1_6 H2_5 1_555 1_555
C2_6 C1_6 1_555 1_555
H3_5 C2_6 1_555 1_555
C3_6 C2_6 1_555 1_555
C4_6 C3_6 1_555 1_555
H4_6 C4_6 1_555 1_555
C5_6 N1_6 1_555 1_555
H5_6 C5_6 1_555 1_555
C6_6 C3_6 1_555 1_555
H6_5 C6_6 1_555 1_555
C7_6 C6_6 1_555 1_555
H7_6 C7_6 1_555 1_555
C8_6 C7_6 1_555 1_555
C9_5 C8_6 1_555 1_555
H8_5 C9_5 1_555 1_555
C10_5 C9_5 1_555 1_555
H9_5 C10_5 1_555 1_555
C12_6 C8_6 1_555 1_555
H11_6 C12_6 1_555 1_555
Ni6 N3_6 1_555 1_555
N3_6 C21_6 1_555 1_555
N6_5 C30_5 1_555 1_555
N5_4 Ni5_6 1_555 1_555
C21_6 H19_5 1_555 1_555
C22_6 C21_6 1_555 1_555
H20_5 C22_6 1_555 1_555
C23_6 C22_6 1_555 1_555
C24_6 C23_6 1_555 1_555
H21_6 C24_6 1_555 1_555
C25_6 N3_6 1_555 1_555
H22_6 C25_6 1_555 1_555
C26_6 C6_6 1_555 1_555
H23_5 C26_6 1_555 1_555
C27_6 C7_6 1_555 1_555
H24_6 C27_6 1_555 1_555
C28_6 C27_6 1_555 1_555
C29_5 C28_6 1_555 1_555
H25_5 C29_5 1_555 1_555
C30_5 C29_5 1_555 1_555
H26_5 C30_5 1_555 1_555
C31_6 N6_5 1_555 1_555
H27_6 C31_6 1_555 1_555
C32_6 C28_6 1_555 1_555
H28_6 C32_6 1_555 1_555
C4_6 C5_6 1_555 1_555
C11_6 C12_6 1_555 1_555
C23_6 C26_6 1_555 1_555
C24_6 C25_6 1_555 1_555
C26_6 C27_6 1_555 1_555
C31_6 C32_6 1_555 1_555
Ni4_2 N1_7 1_555 1_555
N1_7 C1_7 1_555 1_555
N5_4 C10_6 1_555 1_555
C1_7 H2_6 1_555 1_555
C2_7 C1_7 1_555 1_555
H3_6 C2_7 1_555 1_555
C3_7 C2_7 1_555 1_555
C4_7 C3_7 1_555 1_555
H4_7 C4_7 1_555 1_555
C5_7 N1_7 1_555 1_555
H5_7 C5_7 1_555 1_555
C6_7 C3_7 1_555 1_555
H6_6 C6_7 1_555 1_555
C7_7 C6_7 1_555 1_555
H7_7 C7_7 1_555 1_555
C8_7 C7_7 1_555 1_555
C9_6 C8_7 1_555 1_555
H8_6 C9_6 1_555 1_555
C10_6 C9_6 1_555 1_555
H9_6 C10_6 1_555 1_555
C11_7 N5_4 1_555 1_555
H10_7 C11_7 1_555 1_555
C12_7 C8_7 1_555 1_555
H11_7 C12_7 1_555 1_555
Ni4 N3_7 1_555 1_555
N3_7 C21_7 1_555 1_555
N6_4 C30_6 1_555 1_555
N6_6 Ni4 1_555 1_555
C21_7 H19_6 1_555 1_555
C22_7 C21_7 1_555 1_555
H20_6 C22_7 1_555 1_555
C23_7 C22_7 1_555 1_555
C24_7 C23_7 1_555 1_555
H21_7 C24_7 1_555 1_555
C25_7 N3_7 1_555 1_555
H22_7 C25_7 1_555 1_555
C26_7 C6_7 1_555 1_555
H23_6 C26_7 1_555 1_555
C27_7 C7_7 1_555 1_555
H24_7 C27_7 1_555 1_555
C28_7 C27_7 1_555 1_555
C29_6 C28_7 1_555 1_555
H25_6 C29_6 1_555 1_555
C30_6 C29_6 1_555 1_555
H26_6 C30_6 1_555 1_555
C31_7 N6_4 1_555 1_555
H27_7 C31_7 1_555 1_555
C32_7 C28_7 1_555 1_555
H28_7 C32_7 1_555 1_555
C4_7 C5_7 1_555 1_555
C11_7 C12_7 1_555 1_555
C23_7 C26_7 1_555 1_555
C24_7 C25_7 1_555 1_555
C26_7 C27_7 1_555 1_555
C31_7 C32_7 1_555 1_555
Ni5_2 N1_8 1_555 1_555
N1_8 C1_8 1_555 1_555
C1_8 H2_7 1_555 1_555
C2_8 C1_8 1_555 1_555
H3_7 C2_8 1_555 1_555
C3_8 C2_8 1_555 1_555
C4_8 C3_8 1_555 1_555
H4_8 C4_8 1_555 1_555
C5_8 N1_8 1_555 1_555
H5_8 C5_8 1_555 1_555
C6_8 C3_8 1_555 1_555
H6_7 C6_8 1_555 1_555
C7_8 C6_8 1_555 1_555
H7_8 C7_8 1_555 1_555
Ni7_2 N3_8 1_555 1_555
N3_8 C21_8 1_555 1_555
C21_8 H19_7 1_555 1_555
C22_8 C21_8 1_555 1_555
H20_7 C22_8 1_555 1_555
C23_8 C22_8 1_555 1_555
C24_8 C23_8 1_555 1_555
H21_8 C24_8 1_555 1_555
C25_8 N3_8 1_555 1_555
H22_8 C25_8 1_555 1_555
C26_8 C6_8 1_555 1_555
H23_7 C26_8 1_555 1_555
C27_8 C7_8 1_555 1_555
H24_8 C27_8 1_555 1_555
C4_8 C5_8 1_555 1_555
C23_8 C26_8 1_555 1_555
C24_8 C25_8 1_555 1_555
C26_8 C27_8 1_555 1_555
C9_7 C8_8 1_555 1_555
H8_7 C9_7 1_555 1_555
C10_7 C9_7 1_555 1_555
H9_7 C10_7 1_555 1_555
C12_8 C8_8 1_555 1_555
H11_8 C12_8 1_555 1_555
N6_6 C30_7 1_555 1_555
C29_7 C28_8 1_555 1_555
H25_7 C29_7 1_555 1_555
C30_7 C29_7 1_555 1_555
H26_7 C30_7 1_555 1_555
C31_8 N6_6 1_555 1_555
H27_8 C31_8 1_555 1_555
C32_8 C28_8 1_555 1_555
H28_8 C32_8 1_555 1_555
C11_8 C12_8 1_555 1_555
C31_8 C32_8 1_555 1_555
H8_8 C9_8 1_555 1_555
C10_8 C9_8 1_555 1_555
H9_8 C10_8 1_555 1_555
H25_8 C29_8 1_555 1_555
C30_8 C29_8 1_555 1_555
H26_8 C30_8 1_555 1_555

#END
