
###############################################################################
#
# This file contains modified crystal structure data generated from the
# MOF subset of the Cambridge Structural Database (CSD) v543 
# hosted by the Cambridge Crystallographic Data Centre (CCDC).
#
# This work is licensed under the Creative Commons
# Attribution-NonCommercial-ShareAlike 4.0 International License.
# To view a copy of this license, visit
# http://creativecommons.org/licenses/by-nc-sa/4.0/
# or send a letter to
# Creative Commons, PO Box 1866, Mountain View, CA 94042, USA.
#
# CIF created using the CSD Python API on 29 September 2022
# The structure has been converted into the P1 space group
# The structure has a 3D framework
# The original CSD entry KALGAH is in the orthorhombic crystal system
# The framework has been calculated to contain at least 10.0% void space
# The void calculation uses a probe of radius 1.32A, grid spacing 0.4
#
###############################################################################

data_KALGAH
_chemical_formula_moiety         '(C320 H224 N32 Ni14 O70)n'
_symmetry_cell_setting           triclinic
_symmetry_space_group_name_H-M   'P 1'
_symmetry_Int_Tables_number      1
_space_group_name_Hall           'P 1'
loop_
_symmetry_equiv_pos_site_id
_symmetry_equiv_pos_as_xyz
1 x,y,z
_cell_length_a                   15.477(3)
_cell_length_b                   23.392(5)
_cell_length_c                   32.321(7)
_cell_angle_alpha                90
_cell_angle_beta                 90
_cell_angle_gamma                90
_cell_volume                     11701.4
loop_
_atom_site_label
_atom_site_type_symbol
_atom_site_fract_x
_atom_site_fract_y
_atom_site_fract_z
Ni7 Ni 0.13889(5) 0.25946(3) 0.15247(3)
O10 O 0.1694(3) 0.1747(3) 0.06893(18)
O11 O 0.0679(3) 0.2187(2) 0.10750(14)
C37 C 0.0214(3) 0.1705(3) 0.0478(2)
C38 C 0.0357(3) 0.1315(3) 0.0161(2)
H28 H 0.0903 0.1144 0.0130
C40 C 0.0923(5) 0.1894(3) 0.0768(2)
Ni1 Ni 0.11111(5) 0.00946(3) 0.90247(3)
N1 N 0.1406(4) 0.0866(3) 0.8729(2)
C1 C 0.0841(4) 0.1296(3) 0.8674(2)
H1 H 0.0285 0.1259 0.8788
C2 C 0.1036(5) 0.1781(3) 0.8464(3)
H2 H 0.0620 0.2072 0.8443
C3 C 0.1842(4) 0.1853(3) 0.8277(2)
C4 C 0.2413(5) 0.1416(3) 0.8335(2)
H3 H 0.2970 0.1443 0.8221
O5 O -0.0000 -0.0000 0.8659(2)
C5 C 0.2189(5) 0.0939(3) 0.8557(2)
H4 H 0.2603 0.0649 0.8589
C6 C 0.2039(4) 0.2365(3) 0.8016(2)
H5 H 0.1601 0.2665 0.8065
C7 C 0.2146(4) 0.2266(3) 0.7551(2)
H6 H 0.2419 0.1889 0.7505
C8 C 0.1346(4) 0.2309(3) 0.7291(2)
C9 C 0.0723(5) 0.1870(3) 0.7317(3)
H7 H 0.0828 0.1542 0.7477
C11 C 0.0355(6) 0.2790(4) 0.6828(3)
H9 H 0.0230 0.3106 0.6659
C12 C 0.1144(5) 0.2773(4) 0.7040(3)
H10 H 0.1538 0.3077 0.7012
Ni5 Ni 0.38889(5) 0.49054(3) 0.90247(3)
Ni6 Ni 0.63889(5) 0.25946(3) 0.65247(3)
N3 N 0.3594(4) 0.4134(3) 0.8729(2)
C21 C 0.4159(4) 0.3704(3) 0.8674(2)
H15 H 0.4715 0.3741 0.8788
C22 C 0.3964(5) 0.3219(3) 0.8464(3)
H16 H 0.4380 0.2928 0.8443
N5 N 0.5219(4) 0.2628(3) 0.68601(19)
N6 N 0.2281(4) 0.0128(3) 0.93601(19)
O8 O 0.0563(3) 0.0561(2) 0.94955(15)
C23 C 0.3158(4) 0.3147(3) 0.8277(2)
C24 C 0.2587(5) 0.3584(3) 0.8335(2)
H17 H 0.2030 0.3557 0.8221
C25 C 0.2811(5) 0.4061(3) 0.8557(2)
H18 H 0.2397 0.4351 0.8589
C26 C 0.2961(4) 0.2635(3) 0.8016(2)
H19 H 0.3399 0.2335 0.8065
C27 C 0.2854(4) 0.2734(3) 0.7551(2)
H20 H 0.2581 0.3111 0.7505
C28 C 0.3654(4) 0.2691(3) 0.7291(2)
C29 C 0.4277(5) 0.3130(3) 0.7317(3)
H21 H 0.4172 0.3458 0.7477
C30 C 0.5035(5) 0.3069(4) 0.7105(3)
H22 H 0.5454 0.3358 0.7133
C31 C 0.4645(6) 0.2210(4) 0.6828(3)
H23 H 0.4770 0.1894 0.6659
C32 C 0.3856(5) 0.2227(4) 0.7040(3)
H24 H 0.3462 0.1923 0.7012
O1 O 0.0823(3) 0.9338(2) 0.93140(15)
O5_2 O 0.0000 1.0000 0.8659(2)
C13 C 0.0307(3) 0.8822(3) 0.9889(2)
C14 C 0.1114(3) 0.8569(4) 0.9933(2)
H11 H 0.1563 0.8662 0.9749
C19 C 0.0183(4) 0.9240(3) 0.9537(2)
O12 O 0.1821(3) 0.9687(2) 0.85750(14)
N2 N 0.9781(4) 0.2372(3) 0.68601(19)
O5_3 O 1.0000 -0.0000 0.8659(2)
C10 C 0.9965(5) 0.1931(4) 0.7105(3)
H8 H 0.9546 0.1642 0.7133
Ni3 Ni 0.86111(5) 0.24054(3) 0.65247(3)
O6 O 0.9177(3) 0.0662(2) 0.93140(15)
O7 O 0.8323(3) 0.3162(2) 0.68140(15)
N4 N 0.8906(4) 0.1634(3) 0.6229(2)
O9 O 0.8063(3) 0.1939(2) 0.69955(15)
O13 O 0.9321(3) 0.2813(2) 0.60750(14)
O14 O 0.7500 0.2500 0.6159(2)
C33 C 0.9693(3) 0.1178(3) 0.9889(2)
C34 C 0.8886(3) 0.1431(4) 0.9933(2)
H25 H 0.8437 0.1338 0.9749
C39 C 0.9817(4) 0.0760(3) 0.9537(2)
O3 O 0.8306(3) 0.8253(3) 0.06893(18)
O4 O 0.9321(3) 0.7813(2) 0.10750(14)
C17 C 0.9786(3) 0.8295(3) 0.0478(2)
C18 C 0.9643(3) 0.8685(3) 0.0161(2)
H14 H 0.9097 0.8856 0.0130
C20 C 0.9077(5) 0.8106(3) 0.0768(2)
Ni4 Ni 0.86111(5) 0.74054(3) 0.15247(3)
O2 O 0.9437(3) 0.9439(2) 0.94955(15)
O5_4 O 1.0000 1.0000 0.8659(2)
Ni2 Ni 0.88889(5) 0.99054(3) 0.90247(3)
N2_2 N 0.0219(4) 0.7628(3) 0.68601(19)
C10_2 C 0.0035(5) 0.8069(4) 0.7105(3)
H8_2 H 0.0454 0.8358 0.7133
Ni3_2 Ni 0.13889(5) 0.75946(3) 0.65247(3)
O7_2 O 0.1677(3) 0.6838(2) 0.68140(15)
N4_2 N 0.1094(4) 0.8366(3) 0.6229(2)
O9_2 O 0.1937(3) 0.8061(2) 0.69955(15)
O13_2 O 0.0679(3) 0.7187(2) 0.60750(14)
O14_2 O 0.2500 0.7500 0.6159(2)
O12_2 O 0.8179(3) 0.0313(2) 0.85750(14)
N1_2 N 0.8594(4) 0.9134(3) 0.8729(2)
C1_2 C 0.9159(4) 0.8704(3) 0.8674(2)
H1_2 H 0.9715 0.8741 0.8788
C2_2 C 0.8964(5) 0.8219(3) 0.8464(3)
H2_2 H 0.9380 0.7928 0.8443
C3_2 C 0.8158(4) 0.8147(3) 0.8277(2)
C4_2 C 0.7587(5) 0.8584(3) 0.8335(2)
H3_2 H 0.7030 0.8557 0.8221
C5_2 C 0.7811(5) 0.9061(3) 0.8557(2)
H4_2 H 0.7397 0.9351 0.8589
C6_2 C 0.7961(4) 0.7635(3) 0.8016(2)
H5_2 H 0.8399 0.7335 0.8065
C7_2 C 0.7854(4) 0.7734(3) 0.7551(2)
H6_2 H 0.7581 0.8111 0.7505
C8_2 C 0.8654(4) 0.7691(3) 0.7291(2)
C9_2 C 0.9277(5) 0.8130(3) 0.7317(3)
H7_2 H 0.9172 0.8458 0.7477
C11_2 C 0.9645(6) 0.7210(4) 0.6828(3)
H9_2 H 0.9770 0.6894 0.6659
C12_2 C 0.8856(5) 0.7227(4) 0.7040(3)
H10_2 H 0.8462 0.6923 0.7012
Ni5_2 Ni 0.61111(5) 0.50946(3) 0.90247(3)
Ni6_2 Ni 0.36111(5) 0.74054(3) 0.65247(3)
N3_2 N 0.6406(4) 0.5866(3) 0.8729(2)
C21_2 C 0.5841(4) 0.6296(3) 0.8674(2)
H15_2 H 0.5285 0.6259 0.8788
C22_2 C 0.6036(5) 0.6781(3) 0.8464(3)
H16_2 H 0.5620 0.7072 0.8443
N5_2 N 0.4781(4) 0.7372(3) 0.68601(19)
N6_2 N 0.7719(4) 0.9872(3) 0.93601(19)
C23_2 C 0.6842(4) 0.6853(3) 0.8277(2)
C24_2 C 0.7413(5) 0.6416(3) 0.8335(2)
H17_2 H 0.7970 0.6443 0.8221
C25_2 C 0.7189(5) 0.5939(3) 0.8557(2)
H18_2 H 0.7603 0.5649 0.8589
C26_2 C 0.7039(4) 0.7365(3) 0.8016(2)
H19_2 H 0.6601 0.7665 0.8065
C27_2 C 0.7146(4) 0.7266(3) 0.7551(2)
H20_2 H 0.7419 0.6889 0.7505
C28_2 C 0.6346(4) 0.7309(3) 0.7291(2)
C29_2 C 0.5723(5) 0.6870(3) 0.7317(3)
H21_2 H 0.5828 0.6542 0.7477
C30_2 C 0.4965(5) 0.6931(4) 0.7105(3)
H22_2 H 0.4546 0.6642 0.7133
C31_2 C 0.5355(6) 0.7790(4) 0.6828(3)
H23_2 H 0.5230 0.8106 0.6659
C32_2 C 0.6144(5) 0.7773(4) 0.7040(3)
H24_2 H 0.6538 0.8077 0.7012
Ni1_2 Ni 0.36111(5) 0.24054(3) 0.15247(3)
O1_2 O 0.3323(3) 0.3162(2) 0.18140(15)
N1_3 N 0.3906(4) 0.1634(3) 0.1229(2)
C1_3 C 0.3341(4) 0.1204(3) 0.1174(2)
H1_3 H 0.2785 0.1241 0.1288
C2_3 C 0.3536(5) 0.0719(3) 0.0964(3)
H2_3 H 0.3120 0.0428 0.0943
O2_2 O 0.1937(3) 0.3061(2) 0.19955(15)
C3_3 C 0.4342(4) 0.0647(3) 0.0777(2)
O3_2 O 0.0806(3) 0.4247(3) 0.31893(18)
C4_3 C 0.4913(5) 0.1084(3) 0.0835(2)
H3_3 H 0.5470 0.1057 0.0721
O4_2 O 0.1821(3) 0.4687(2) 0.35750(14)
O5_5 O 0.2500 0.2500 0.1159(2)
C5_3 C 0.4689(5) 0.1561(3) 0.1057(2)
H4_3 H 0.5103 0.1851 0.1089
C6_3 C 0.4539(4) 0.0135(3) 0.0516(2)
C7_3 C 0.4646(4) 0.0234(3) 0.0051(2)
H6_3 H 0.4919 0.0611 0.0005
C13_2 C 0.2807(3) 0.3678(3) 0.2389(2)
C14_2 C 0.3614(3) 0.3931(4) 0.2433(2)
H11_2 H 0.4063 0.3838 0.2249
C15 C 0.3757(3) 0.4321(4) 0.2750(3)
H12 H 0.4303 0.4492 0.2781
C16 C 0.3094(4) 0.4458(4) 0.3022(2)
H13 H 0.3191 0.4722 0.3237
C17_2 C 0.2286(3) 0.4205(3) 0.2978(2)
C18_2 C 0.2143(3) 0.3815(3) 0.2661(2)
H14_2 H 0.1597 0.3644 0.2630
C19_2 C 0.2683(4) 0.3260(3) 0.2037(2)
C20_2 C 0.1577(5) 0.4394(3) 0.3268(2)
Ni4_2 Ni 0.11111(5) 0.50946(3) 0.40247(3)
O6_2 O 0.1677(3) 0.1838(2) 0.18140(15)
N6_3 N 0.4781(4) 0.2372(3) 0.18601(19)
O8_2 O 0.3063(3) 0.1939(2) 0.19955(15)
O10_2 O 0.4194(3) 0.0753(3) 0.31893(18)
O11_2 O 0.3179(3) 0.0313(2) 0.35750(14)
O12_3 O 0.4321(3) 0.2813(2) 0.10750(14)
H19_3 H 0.5899 0.0165 0.0565
C33_2 C 0.2193(3) 0.1322(3) 0.2389(2)
C34_2 C 0.1386(3) 0.1069(4) 0.2433(2)
H25_2 H 0.0937 0.1162 0.2249
C35 C 0.1243(3) 0.0679(4) 0.2750(3)
H26 H 0.0697 0.0508 0.2781
C36 C 0.1906(4) 0.0542(4) 0.3022(2)
H27 H 0.1809 0.0278 0.3237
C37_2 C 0.2714(3) 0.0795(3) 0.2978(2)
C38_2 C 0.2857(3) 0.1185(3) 0.2661(2)
H28_2 H 0.3403 0.1356 0.2630
C39_2 C 0.2317(4) 0.1740(3) 0.2037(2)
C40_2 C 0.3423(5) 0.0606(3) 0.3268(2)
C8_3 C 0.3846(4) 0.0191(3) 0.9791(2)
C9_3 C 0.3223(5) 0.0630(3) 0.9817(3)
H7_3 H 0.3328 0.0958 0.9977
C10_3 C 0.2465(5) 0.0569(4) 0.9605(3)
H8_3 H 0.2046 0.0858 0.9633
C31_3 C 0.7145(6) 0.0290(4) 0.9328(3)
H23_3 H 0.7270 0.0606 0.9159
C32_3 C 0.6356(5) 0.0273(4) 0.9540(3)
H24_3 H 0.5962 0.0577 0.9512
H5_3 H 0.4101 0.9835 0.0565
Ni5_3 Ni 0.63889(5) 0.75946(3) 0.15247(3)
Ni7_2 Ni 0.38889(5) 0.99054(3) 0.40247(3)
N3_3 N 0.6094(4) 0.8366(3) 0.1229(2)
C21_3 C 0.6659(4) 0.8796(3) 0.1174(2)
H15_3 H 0.7215 0.8759 0.1288
C22_3 C 0.6464(5) 0.9281(3) 0.0964(3)
H16_3 H 0.6880 0.9572 0.0943
C23_3 C 0.5658(4) 0.9353(3) 0.0777(2)
C24_3 C 0.5087(5) 0.8916(3) 0.0835(2)
H17_3 H 0.4530 0.8943 0.0721
C25_3 C 0.5311(5) 0.8439(3) 0.1057(2)
H18_3 H 0.4897 0.8149 0.1089
C26_3 C 0.5461(4) 0.9865(3) 0.0516(2)
C27_3 C 0.5354(4) 0.9766(3) 0.0051(2)
H20_3 H 0.5081 0.9389 0.0005
C11_3 C 0.2855(6) 0.9710(4) 0.9328(3)
H9_3 H 0.2730 0.9394 0.9159
C12_3 C 0.3644(5) 0.9727(4) 0.9540(3)
H10_3 H 0.4038 0.9423 0.9512
C28_3 C 0.6154(4) 0.9809(3) 0.9791(2)
C29_3 C 0.6777(5) 0.9370(3) 0.9817(3)
H21_3 H 0.6672 0.9042 0.9977
C30_3 C 0.7535(5) 0.9431(4) 0.9605(3)
H22_3 H 0.7954 0.9142 0.9633
N1_4 N 0.1094(4) 0.3366(3) 0.1229(2)
C1_4 C 0.1659(4) 0.3796(3) 0.1174(2)
H1_4 H 0.2215 0.3759 0.1288
C2_4 C 0.1464(5) 0.4281(3) 0.0964(3)
H2_4 H 0.1880 0.4572 0.0943
C3_4 C 0.0658(4) 0.4353(3) 0.0777(2)
C4_4 C 0.0087(5) 0.3916(3) 0.0835(2)
C5_4 C 0.0311(5) 0.3439(3) 0.1057(2)
C6_4 C 0.0461(4) 0.4865(3) 0.0516(2)
H5_4 H 0.0899 0.5165 0.0565
C7_4 C 0.0354(4) 0.4766(3) 0.0051(2)
H6_4 H 0.0081 0.4389 0.0005
N6_4 N 0.0219(4) 0.2628(3) 0.18601(19)
H17_4 H 0.0470 0.6057 0.0721
H18_4 H 0.0103 0.6851 0.1089
N2_3 N 0.2719(4) 0.4872(3) 0.93601(19)
C8_4 C 0.1154(4) 0.4809(3) 0.9791(2)
C9_4 C 0.1777(5) 0.4370(3) 0.9817(3)
H7_4 H 0.1672 0.4042 0.9977
C10_4 C 0.2535(5) 0.4431(4) 0.9605(3)
H8_4 H 0.2954 0.4142 0.9633
C11_4 C 0.2145(6) 0.5290(4) 0.9328(3)
H9_4 H 0.2270 0.5606 0.9159
C12_4 C 0.1356(5) 0.5273(4) 0.9540(3)
H10_4 H 0.0962 0.5577 0.9512
O7_3 O 0.4177(3) 0.5662(2) 0.93140(15)
O9_3 O 0.4437(3) 0.4439(2) 0.94955(15)
O13_3 O 0.3179(3) 0.5313(2) 0.85750(14)
O14_3 O 0.5000 0.5000 0.8659(2)
H3_4 H 0.9530 0.3943 0.0721
H4_4 H 0.9897 0.3149 0.1089
N3_4 N 0.8906(4) 0.6634(3) 0.1229(2)
C21_4 C 0.8341(4) 0.6204(3) 0.1174(2)
H15_4 H 0.7785 0.6241 0.1288
C22_4 C 0.8536(5) 0.5719(3) 0.0964(3)
H16_4 H 0.8120 0.5428 0.0943
C23_4 C 0.9342(4) 0.5647(3) 0.0777(2)
C24_4 C 0.9913(5) 0.6084(3) 0.0835(2)
C25_4 C 0.9689(5) 0.6561(3) 0.1057(2)
C26_4 C 0.9539(4) 0.5135(3) 0.0516(2)
H19_4 H 0.9101 0.4835 0.0565
C27_4 C 0.9646(4) 0.5234(3) 0.0051(2)
H20_4 H 0.9919 0.5611 0.0005
N5_3 N 0.7281(4) 0.5128(3) 0.93601(19)
C28_4 C 0.8846(4) 0.5191(3) 0.9791(2)
C29_4 C 0.8223(5) 0.5630(3) 0.9817(3)
H21_4 H 0.8328 0.5958 0.9977
C30_4 C 0.7465(5) 0.5569(4) 0.9605(3)
H22_4 H 0.7046 0.5858 0.9633
C31_4 C 0.7855(6) 0.4710(4) 0.9328(3)
H23_4 H 0.7730 0.4394 0.9159
C32_4 C 0.8644(5) 0.4727(4) 0.9540(3)
H24_4 H 0.9038 0.4423 0.9512
O1_3 O 0.0823(3) 0.4338(2) 0.43140(15)
N1_5 N 0.1406(4) 0.5866(3) 0.3729(2)
C1_5 C 0.0841(4) 0.6296(3) 0.3674(2)
H1_5 H 0.0285 0.6259 0.3788
C2_5 C 0.1036(5) 0.6781(3) 0.3464(3)
H2_5 H 0.0620 0.7072 0.3443
C3_5 C 0.1842(4) 0.6853(3) 0.3277(2)
C4_5 C 0.2413(5) 0.6416(3) 0.3335(2)
H3_5 H 0.2970 0.6443 0.3221
O5_6 O 0.0000 0.5000 0.3659(2)
C5_5 C 0.2189(5) 0.5939(3) 0.3557(2)
H4_5 H 0.2603 0.5649 0.3589
C6_5 C 0.2039(4) 0.7365(3) 0.3016(2)
H5_5 H 0.1601 0.7665 0.3065
C7_5 C 0.2146(4) 0.7266(3) 0.2551(2)
H6_5 H 0.2419 0.6889 0.2505
C8_5 C 0.1346(4) 0.7309(3) 0.2291(2)
C9_5 C 0.0723(5) 0.6870(3) 0.2317(3)
H7_5 H 0.0828 0.6542 0.2477
C11_5 C 0.0355(6) 0.7790(4) 0.1828(3)
H9_5 H 0.0230 0.8106 0.1659
C12_5 C 0.1144(5) 0.7773(4) 0.2040(3)
H10_5 H 0.1538 0.8077 0.2012
C13_3 C 0.0307(3) 0.3822(3) 0.4889(2)
C14_3 C 0.1114(3) 0.3569(4) 0.4933(2)
H11_3 H 0.1563 0.3662 0.4749
C15_2 C 0.1257(3) 0.3179(4) 0.5250(3)
H12_2 H 0.1803 0.3008 0.5281
C16_2 C 0.0594(4) 0.3042(4) 0.5522(2)
H13_2 H 0.0691 0.2778 0.5737
C19_3 C 0.0183(4) 0.4240(3) 0.4537(2)
N3_5 N 0.3594(4) 0.9134(3) 0.3729(2)
C21_5 C 0.4159(4) 0.8704(3) 0.3674(2)
H15_5 H 0.4715 0.8741 0.3788
C22_5 C 0.3964(5) 0.8219(3) 0.3464(3)
H16_5 H 0.4380 0.7928 0.3443
N5_4 N 0.5219(4) 0.7628(3) 0.18601(19)
N6_5 N 0.2281(4) 0.5128(3) 0.43601(19)
O8_3 O 0.0563(3) 0.5561(2) 0.44955(15)
C23_5 C 0.3158(4) 0.8147(3) 0.3277(2)
O10_3 O 0.1694(3) 0.6747(3) 0.56893(18)
C24_5 C 0.2587(5) 0.8584(3) 0.3335(2)
H17_5 H 0.2030 0.8557 0.3221
C25_5 C 0.2811(5) 0.9061(3) 0.3557(2)
H18_5 H 0.2397 0.9351 0.3589
C26_5 C 0.2961(4) 0.7635(3) 0.3016(2)
H19_5 H 0.3399 0.7335 0.3065
C27_5 C 0.2854(4) 0.7734(3) 0.2551(2)
H20_5 H 0.2581 0.8111 0.2505
C28_5 C 0.3654(4) 0.7691(3) 0.2291(2)
C29_5 C 0.4277(5) 0.8130(3) 0.2317(3)
H21_5 H 0.4172 0.8458 0.2477
C30_5 C 0.5035(5) 0.8069(4) 0.2105(3)
H22_5 H 0.5454 0.8358 0.2133
C31_5 C 0.4645(6) 0.7210(4) 0.1828(3)
H23_5 H 0.4770 0.6894 0.1659
C32_5 C 0.3856(5) 0.7227(4) 0.2040(3)
H24_5 H 0.3462 0.6923 0.2012
C37_3 C 0.0214(3) 0.6705(3) 0.5478(2)
C38_3 C 0.0357(3) 0.6315(3) 0.5161(2)
H28_3 H 0.0903 0.6144 0.5130
C40_3 C 0.0923(5) 0.6894(3) 0.5768(2)
N2_4 N 0.9781(4) 0.7372(3) 0.18601(19)
O2_3 O 0.9437(3) 0.4439(2) 0.44955(15)
O3_3 O 0.8306(3) 0.3253(3) 0.56893(18)
O5_7 O 1.0000 0.5000 0.3659(2)
C10_5 C 0.9965(5) 0.6931(4) 0.2105(3)
H8_5 H 0.9546 0.6642 0.2133
C17_3 C 0.9786(3) 0.3295(3) 0.5478(2)
C18_3 C 0.9643(3) 0.3685(3) 0.5161(2)
H14_3 H 0.9097 0.3856 0.5130
C20_3 C 0.9077(5) 0.3106(3) 0.5768(2)
Ni2_2 Ni 0.88889(5) 0.49054(3) 0.40247(3)
O6_3 O 0.9177(3) 0.5662(2) 0.43140(15)
O7_4 O 0.8323(3) 0.8162(2) 0.18140(15)
O9_4 O 0.8063(3) 0.6939(2) 0.19955(15)
O14_4 O 0.7500 0.7500 0.1159(2)
C33_3 C 0.9693(3) 0.6178(3) 0.4889(2)
C34_3 C 0.8886(3) 0.6431(4) 0.4933(2)
H25_3 H 0.8437 0.6338 0.4749
C35_2 C 0.8743(3) 0.6821(4) 0.5250(3)
H26_2 H 0.8197 0.6992 0.5281
C36_2 C 0.9406(4) 0.6958(4) 0.5522(2)
H27_2 H 0.9309 0.7222 0.5737
C39_3 C 0.9817(4) 0.5760(3) 0.4537(2)
C10_6 C 0.0035(5) 0.3069(4) 0.2105(3)
H8_6 H 0.0454 0.3358 0.2133
N1_6 N 0.8594(4) 0.4134(3) 0.3729(2)
C1_6 C 0.9159(4) 0.3704(3) 0.3674(2)
H1_6 H 0.9715 0.3741 0.3788
C2_6 C 0.8964(5) 0.3219(3) 0.3464(3)
H2_6 H 0.9380 0.2928 0.3443
C3_6 C 0.8158(4) 0.3147(3) 0.3277(2)
C4_6 C 0.7587(5) 0.3584(3) 0.3335(2)
H3_6 H 0.7030 0.3557 0.3221
C5_6 C 0.7811(5) 0.4061(3) 0.3557(2)
H4_6 H 0.7397 0.4351 0.3589
C6_6 C 0.7961(4) 0.2635(3) 0.3016(2)
H5_6 H 0.8399 0.2335 0.3065
C7_6 C 0.7854(4) 0.2734(3) 0.2551(2)
H6_6 H 0.7581 0.3111 0.2505
C8_6 C 0.8654(4) 0.2691(3) 0.2291(2)
C9_6 C 0.9277(5) 0.3130(3) 0.2317(3)
H7_6 H 0.9172 0.3458 0.2477
C11_6 C 0.9645(6) 0.2210(4) 0.1828(3)
H9_6 H 0.9770 0.1894 0.1659
C12_6 C 0.8856(5) 0.2227(4) 0.2040(3)
H10_6 H 0.8462 0.1923 0.2012
Ni5_4 Ni 0.61111(5) 0.00946(3) 0.40247(3)
N3_6 N 0.6406(4) 0.0866(3) 0.3729(2)
C21_6 C 0.5841(4) 0.1296(3) 0.3674(2)
H15_6 H 0.5285 0.1259 0.3788
C22_6 C 0.6036(5) 0.1781(3) 0.3464(3)
H16_6 H 0.5620 0.2072 0.3443
N6_6 N 0.7719(4) 0.4872(3) 0.43601(19)
C23_6 C 0.6842(4) 0.1853(3) 0.3277(2)
C24_6 C 0.7413(5) 0.1416(3) 0.3335(2)
H17_6 H 0.7970 0.1443 0.3221
O12_4 O 0.8179(3) 0.5313(2) 0.35750(14)
C25_6 C 0.7189(5) 0.0939(3) 0.3557(2)
H18_6 H 0.7603 0.0649 0.3589
C26_6 C 0.7039(4) 0.2365(3) 0.3016(2)
H19_6 H 0.6601 0.2665 0.3065
C27_6 C 0.7146(4) 0.2266(3) 0.2551(2)
H20_6 H 0.7419 0.1889 0.2505
C28_6 C 0.6346(4) 0.2309(3) 0.2291(2)
C29_6 C 0.5723(5) 0.1870(3) 0.2317(3)
H21_6 H 0.5828 0.1542 0.2477
C30_6 C 0.4965(5) 0.1931(4) 0.2105(3)
H22_6 H 0.4546 0.1642 0.2133
C31_6 C 0.5355(6) 0.2790(4) 0.1828(3)
H23_6 H 0.5230 0.3106 0.1659
C32_6 C 0.6144(5) 0.2773(4) 0.2040(3)
H24_6 H 0.6538 0.3077 0.2012
O1_4 O 0.3323(3) 0.8162(2) 0.68140(15)
N1_7 N 0.3906(4) 0.6634(3) 0.6229(2)
C1_7 C 0.3341(4) 0.6204(3) 0.6174(2)
H1_7 H 0.2785 0.6241 0.6288
C2_7 C 0.3536(5) 0.5719(3) 0.5964(3)
H2_7 H 0.3120 0.5428 0.5943
C3_7 C 0.4342(4) 0.5647(3) 0.5777(2)
O3_4 O 0.0806(3) 0.9247(3) 0.81893(18)
C4_7 C 0.4913(5) 0.6084(3) 0.5835(2)
H3_7 H 0.5470 0.6057 0.5721
C5_7 C 0.4689(5) 0.6561(3) 0.6057(2)
H4_7 H 0.5103 0.6851 0.6089
C6_7 C 0.4539(4) 0.5135(3) 0.5516(2)
H5_7 H 0.4101 0.4835 0.5565
C7_7 C 0.4646(4) 0.5234(3) 0.5051(2)
H6_7 H 0.4919 0.5611 0.5005
C8_7 C 0.3846(4) 0.5191(3) 0.4791(2)
C9_7 C 0.3223(5) 0.5630(3) 0.4817(3)
H7_7 H 0.3328 0.5958 0.4977
C10_7 C 0.2465(5) 0.5569(4) 0.4605(3)
H8_7 H 0.2046 0.5858 0.4633
C11_7 C 0.2855(6) 0.4710(4) 0.4328(3)
H9_7 H 0.2730 0.4394 0.4159
C12_7 C 0.3644(5) 0.4727(4) 0.4540(3)
H10_7 H 0.4038 0.4423 0.4512
C13_4 C 0.2807(3) 0.8678(3) 0.7389(2)
C14_4 C 0.3614(3) 0.8931(4) 0.7433(2)
H11_4 H 0.4063 0.8838 0.7249
C15_3 C 0.3757(3) 0.9321(4) 0.7750(3)
H12_3 H 0.4303 0.9492 0.7781
C16_3 C 0.3094(4) 0.9458(4) 0.8022(2)
H13_3 H 0.3191 0.9722 0.8237
C17_4 C 0.2286(3) 0.9205(3) 0.7978(2)
C18_4 C 0.2143(3) 0.8815(3) 0.7661(2)
H14_4 H 0.1597 0.8644 0.7630
C19_4 C 0.2683(4) 0.8260(3) 0.7037(2)
C20_4 C 0.1577(5) 0.9394(3) 0.8268(2)
N3_7 N 0.6094(4) 0.3366(3) 0.6229(2)
C21_7 C 0.6659(4) 0.3796(3) 0.6174(2)
H15_7 H 0.7215 0.3759 0.6288
C22_7 C 0.6464(5) 0.4281(3) 0.5964(3)
H16_7 H 0.6880 0.4572 0.5943
O8_4 O 0.3063(3) 0.6939(2) 0.69955(15)
C23_7 C 0.5658(4) 0.4353(3) 0.5777(2)
O10_4 O 0.4194(3) 0.5753(3) 0.81893(18)
C24_7 C 0.5087(5) 0.3916(3) 0.5835(2)
H17_7 H 0.4530 0.3943 0.5721
O12_5 O 0.4321(3) 0.7813(2) 0.60750(14)
C25_7 C 0.5311(5) 0.3439(3) 0.6057(2)
H18_7 H 0.4897 0.3149 0.6089
C26_7 C 0.5461(4) 0.4865(3) 0.5516(2)
H19_7 H 0.5899 0.5165 0.5565
C27_7 C 0.5354(4) 0.4766(3) 0.5051(2)
H20_7 H 0.5081 0.4389 0.5005
C28_7 C 0.6154(4) 0.4809(3) 0.4791(2)
C29_7 C 0.6777(5) 0.4370(3) 0.4817(3)
H21_7 H 0.6672 0.4042 0.4977
C30_7 C 0.7535(5) 0.4431(4) 0.4605(3)
H22_7 H 0.7954 0.4142 0.4633
C31_7 C 0.7145(6) 0.5290(4) 0.4328(3)
H23_7 H 0.7270 0.5606 0.4159
C32_7 C 0.6356(5) 0.5273(4) 0.4540(3)
H24_7 H 0.5962 0.5577 0.4512
C33_4 C 0.2193(3) 0.6322(3) 0.7389(2)
C34_4 C 0.1386(3) 0.6069(4) 0.7433(2)
H25_4 H 0.0937 0.6162 0.7249
C35_3 C 0.1243(3) 0.5679(4) 0.7750(3)
H26_3 H 0.0697 0.5508 0.7781
C36_3 C 0.1906(4) 0.5542(4) 0.8022(2)
H27_3 H 0.1809 0.5278 0.8237
C37_4 C 0.2714(3) 0.5795(3) 0.7978(2)
C38_4 C 0.2857(3) 0.6185(3) 0.7661(2)
H28_4 H 0.3403 0.6356 0.7630
C39_4 C 0.2317(4) 0.6740(3) 0.7037(2)
C40_4 C 0.3423(5) 0.5606(3) 0.8268(2)
H5_8 H 0.0899 0.0165 0.5565
C11_8 C 0.2145(6) 0.0290(4) 0.4328(3)
H9_8 H 0.2270 0.0606 0.4159
C12_8 C 0.1356(5) 0.0273(4) 0.4540(3)
H10_8 H 0.0962 0.0577 0.4512
O7_5 O 0.4177(3) 0.0662(2) 0.43140(15)
H17_8 H 0.0470 0.1057 0.5721
O14_5 O 0.5000 -0.0000 0.3659(2)
H18_8 H 0.0103 0.1851 0.6089
C1_8 C 0.1659(4) 0.8796(3) 0.6174(2)
H1_8 H 0.2215 0.8759 0.6288
C2_8 C 0.1464(5) 0.9281(3) 0.5964(3)
H2_8 H 0.1880 0.9572 0.5943
N2_5 N 0.2719(4) 0.9872(3) 0.43601(19)
C3_8 C 0.0658(4) 0.9353(3) 0.5777(2)
C4_8 C 0.0087(5) 0.8916(3) 0.5835(2)
C5_8 C 0.0311(5) 0.8439(3) 0.6057(2)
C6_8 C 0.0461(4) 0.9865(3) 0.5516(2)
C7_8 C 0.0354(4) 0.9766(3) 0.5051(2)
H6_8 H 0.0081 0.9389 0.5005
C8_8 C 0.1154(4) 0.9809(3) 0.4791(2)
C9_8 C 0.1777(5) 0.9370(3) 0.4817(3)
H7_8 H 0.1672 0.9042 0.4977
C10_8 C 0.2535(5) 0.9431(4) 0.4605(3)
H8_8 H 0.2954 0.9142 0.4633
O9_5 O 0.4437(3) 0.9439(2) 0.44955(15)
O14_6 O 0.5000 1.0000 0.3659(2)
C21_8 C 0.8341(4) 0.1204(3) 0.6174(2)
H15_8 H 0.7785 0.1241 0.6288
C22_8 C 0.8536(5) 0.0719(3) 0.5964(3)
H16_8 H 0.8120 0.0428 0.5943
N5_5 N 0.7281(4) 0.0128(3) 0.43601(19)
C23_8 C 0.9342(4) 0.0647(3) 0.5777(2)
C24_8 C 0.9913(5) 0.1084(3) 0.5835(2)
C25_8 C 0.9689(5) 0.1561(3) 0.6057(2)
C26_8 C 0.9539(4) 0.0135(3) 0.5516(2)
C27_8 C 0.9646(4) 0.0234(3) 0.5051(2)
H20_8 H 0.9919 0.0611 0.5005
C28_8 C 0.8846(4) 0.0191(3) 0.4791(2)
C29_8 C 0.8223(5) 0.0630(3) 0.4817(3)
H21_8 H 0.8328 0.0958 0.4977
C30_8 C 0.7465(5) 0.0569(4) 0.4605(3)
H22_8 H 0.7046 0.0858 0.4633
H3_8 H 0.9530 0.8943 0.5721
H4_8 H 0.9897 0.8149 0.6089
H19_8 H 0.9101 0.9835 0.5565
C31_8 C 0.7855(6) 0.9710(4) 0.4328(3)
H23_8 H 0.7730 0.9394 0.4159
C32_8 C 0.8644(5) 0.9727(4) 0.4540(3)
H24_8 H 0.9038 0.9423 0.4512
O8_5 O 0.5563(3) 0.0561(2) 0.44955(15)
O10_5 O 0.6694(3) 0.1747(3) 0.56893(18)
O11_3 O 0.5679(3) 0.2187(2) 0.60750(14)
C33_5 C 0.4693(3) 0.1178(3) 0.4889(2)
C34_5 C 0.3886(3) 0.1431(4) 0.4933(2)
H25_5 H 0.3437 0.1338 0.4749
C35_4 C 0.3743(3) 0.1821(4) 0.5250(3)
H26_4 H 0.3197 0.1992 0.5281
C36_4 C 0.4406(4) 0.1958(4) 0.5522(2)
H27_4 H 0.4309 0.2222 0.5737
C37_5 C 0.5214(3) 0.1705(3) 0.5478(2)
C38_5 C 0.5357(3) 0.1315(3) 0.5161(2)
H28_5 H 0.5903 0.1144 0.5130
C39_5 C 0.4817(4) 0.0760(3) 0.4537(2)
C40_5 C 0.5923(5) 0.1894(3) 0.5768(2)
O1_5 O 0.5823(3) 0.9338(2) 0.43140(15)
O3_5 O 0.3306(3) 0.8253(3) 0.56893(18)
C13_5 C 0.5307(3) 0.8822(3) 0.4889(2)
C14_5 C 0.6114(3) 0.8569(4) 0.4933(2)
H11_5 H 0.6563 0.8662 0.4749
C15_4 C 0.6257(3) 0.8179(4) 0.5250(3)
H12_4 H 0.6803 0.8008 0.5281
C16_4 C 0.5594(4) 0.8042(4) 0.5522(2)
H13_4 H 0.5691 0.7778 0.5737
C17_5 C 0.4786(3) 0.8295(3) 0.5478(2)
C18_5 C 0.4643(3) 0.8685(3) 0.5161(2)
H14_5 H 0.4097 0.8856 0.5130
C19_5 C 0.5183(4) 0.9240(3) 0.4537(2)
C20_5 C 0.4077(5) 0.8106(3) 0.5768(2)
O12_6 O 0.6821(3) 0.9687(2) 0.35750(14)
O7_6 O 0.6677(3) 0.6838(2) 0.18140(15)
O9_6 O 0.6937(3) 0.8061(2) 0.19955(15)
O13_4 O 0.5679(3) 0.7187(2) 0.10750(14)
O2_4 O 0.6937(3) 0.3061(2) 0.69955(15)
O3_6 O 0.5806(3) 0.4247(3) 0.81893(18)
O4_3 O 0.6821(3) 0.4687(2) 0.85750(14)
C13_6 C 0.7807(3) 0.3678(3) 0.7389(2)
C14_6 C 0.8614(3) 0.3931(4) 0.7433(2)
H11_6 H 0.9063 0.3838 0.7249
C15_5 C 0.8757(3) 0.4321(4) 0.7750(3)
H12_5 H 0.9303 0.4492 0.7781
C16_5 C 0.8094(4) 0.4458(4) 0.8022(2)
H13_5 H 0.8191 0.4722 0.8237
C17_6 C 0.7286(3) 0.4205(3) 0.7978(2)
C18_6 C 0.7143(3) 0.3815(3) 0.7661(2)
H14_6 H 0.6597 0.3644 0.7630
C19_6 C 0.7683(4) 0.3260(3) 0.7037(2)
C20_6 C 0.6577(5) 0.4394(3) 0.8268(2)
O6_4 O 0.6677(3) 0.1838(2) 0.68140(15)
O10_6 O 0.9194(3) 0.0753(3) 0.81893(18)
C33_6 C 0.7193(3) 0.1322(3) 0.7389(2)
C34_6 C 0.6386(3) 0.1069(4) 0.7433(2)
H25_6 H 0.5937 0.1162 0.7249
C35_5 C 0.6243(3) 0.0679(4) 0.7750(3)
H26_5 H 0.5697 0.0508 0.7781
C36_5 C 0.6906(4) 0.0542(4) 0.8022(2)
H27_5 H 0.6809 0.0278 0.8237
C37_6 C 0.7714(3) 0.0795(3) 0.7978(2)
C38_6 C 0.7857(3) 0.1185(3) 0.7661(2)
H28_6 H 0.8403 0.1356 0.7630
C39_6 C 0.7317(4) 0.1740(3) 0.7037(2)
C40_6 C 0.8423(5) 0.0606(3) 0.8268(2)
O3_7 O 0.3306(3) 0.3253(3) 0.06893(18)
C15_6 C 0.6257(3) 0.3179(4) 0.0250(3)
H12_6 H 0.6803 0.3008 0.0281
C16_6 C 0.5594(4) 0.3042(4) 0.0522(2)
H13_6 H 0.5691 0.2778 0.0737
C17_7 C 0.4786(3) 0.3295(3) 0.0478(2)
C18_7 C 0.4643(3) 0.3685(3) 0.0161(2)
H14_7 H 0.4097 0.3856 0.0130
C20_7 C 0.4077(5) 0.3106(3) 0.0768(2)
O10_7 O 0.6694(3) 0.6747(3) 0.06893(18)
C35_6 C 0.3743(3) 0.6821(4) 0.0250(3)
H26_6 H 0.3197 0.6992 0.0281
C36_6 C 0.4406(4) 0.6958(4) 0.0522(2)
H27_6 H 0.4309 0.7222 0.0737
C37_7 C 0.5214(3) 0.6705(3) 0.0478(2)
C38_7 C 0.5357(3) 0.6315(3) 0.0161(2)
H28_7 H 0.5903 0.6144 0.0130
C40_7 C 0.5923(5) 0.6894(3) 0.0768(2)
O1_6 O 0.5823(3) 0.4338(2) 0.93140(15)
C13_7 C 0.5307(3) 0.3822(3) 0.9889(2)
C14_7 C 0.6114(3) 0.3569(4) 0.9933(2)
H11_7 H 0.6563 0.3662 0.9749
C19_7 C 0.5183(4) 0.4240(3) 0.9537(2)
O8_6 O 0.5563(3) 0.5561(2) 0.94955(15)
C33_7 C 0.4693(3) 0.6178(3) 0.9889(2)
C34_7 C 0.3886(3) 0.6431(4) 0.9933(2)
H25_7 H 0.3437 0.6338 0.9749
C39_7 C 0.4817(4) 0.5760(3) 0.9537(2)
O3_8 O 0.5806(3) 0.9247(3) 0.31893(18)
C13_8 C 0.7807(3) 0.8678(3) 0.2389(2)
C14_8 C 0.8614(3) 0.8931(4) 0.2433(2)
H11_8 H 0.9063 0.8838 0.2249
C15_7 C 0.8757(3) 0.9321(4) 0.2750(3)
H12_7 H 0.9303 0.9492 0.2781
C16_7 C 0.8094(4) 0.9458(4) 0.3022(2)
H13_7 H 0.8191 0.9722 0.3237
C17_8 C 0.7286(3) 0.9205(3) 0.2978(2)
C18_8 C 0.7143(3) 0.8815(3) 0.2661(2)
H14_8 H 0.6597 0.8644 0.2630
C19_8 C 0.7683(4) 0.8260(3) 0.2037(2)
C20_8 C 0.6577(5) 0.9394(3) 0.3268(2)
O10_8 O 0.9194(3) 0.5753(3) 0.31893(18)
C33_8 C 0.7193(3) 0.6322(3) 0.2389(2)
C34_8 C 0.6386(3) 0.6069(4) 0.2433(2)
H25_8 H 0.5937 0.6162 0.2249
C35_7 C 0.6243(3) 0.5679(4) 0.2750(3)
H26_7 H 0.5697 0.5508 0.2781
C36_7 C 0.6906(4) 0.5542(4) 0.3022(2)
H27_7 H 0.6809 0.5278 0.3237
C37_8 C 0.7714(3) 0.5795(3) 0.2978(2)
C38_8 C 0.7857(3) 0.6185(3) 0.2661(2)
H28_8 H 0.8403 0.6356 0.2630
C39_8 C 0.7317(4) 0.6740(3) 0.2037(2)
C40_8 C 0.8423(5) 0.5606(3) 0.3268(2)
C15_8 C 0.1257(3) 0.8179(4) 0.0250(3)
H12_8 H 0.1803 0.8008 0.0281
C16_8 C 0.0594(4) 0.8042(4) 0.0522(2)
H13_8 H 0.0691 0.7778 0.0737
C35_8 C 0.8743(3) 0.1821(4) 0.0250(3)
H26_8 H 0.8197 0.1992 0.0281
C36_8 C 0.9406(4) 0.1958(4) 0.0522(2)
H27_8 H 0.9309 0.2222 0.0737
loop_
_geom_bond_atom_site_label_1
_geom_bond_atom_site_label_2
_geom_bond_site_symmetry_1
_geom_bond_site_symmetry_2
Ni7 O11 1_555 1_555
O10 C40 1_555 1_555
O11 C40 1_555 1_555
H28 C38 1_555 1_555
C40 C37 1_555 1_555
C37 C38 1_555 1_555
N1 Ni1 1_555 1_555
C1 N1 1_555 1_555
H1 C1 1_555 1_555
C2 C1 1_555 1_555
H2 C2 1_555 1_555
C3 C2 1_555 1_555
C4 C3 1_555 1_555
H3 C4 1_555 1_555
O5 Ni1 1_555 1_555
C5 N1 1_555 1_555
H4 C5 1_555 1_555
C6 C3 1_555 1_555
H5 C6 1_555 1_555
C7 C6 1_555 1_555
H6 C7 1_555 1_555
C8 C7 1_555 1_555
C9 C8 1_555 1_555
H7 C9 1_555 1_555
H9 C11 1_555 1_555
C12 C8 1_555 1_555
H10 C12 1_555 1_555
Ni5 N3 1_555 1_555
Ni6 N5 1_555 1_555
N3 C21 1_555 1_555
C21 H15 1_555 1_555
C22 C21 1_555 1_555
H16 C22 1_555 1_555
N5 C30 1_555 1_555
N6 Ni1 1_555 1_555
O8 Ni1 1_555 1_555
C23 C22 1_555 1_555
C24 C23 1_555 1_555
H17 C24 1_555 1_555
C25 N3 1_555 1_555
H18 C25 1_555 1_555
C26 C6 1_555 1_555
H19 C26 1_555 1_555
C27 C7 1_555 1_555
H20 C27 1_555 1_555
C28 C27 1_555 1_555
C29 C28 1_555 1_555
H21 C29 1_555 1_555
C30 C29 1_555 1_555
H22 C30 1_555 1_555
C31 N5 1_555 1_555
H23 C31 1_555 1_555
C32 C28 1_555 1_555
H24 C32 1_555 1_555
C4 C5 1_555 1_555
C11 C12 1_555 1_555
C23 C26 1_555 1_555
C24 C25 1_555 1_555
C26 C27 1_555 1_555
C31 C32 1_555 1_555
O1 C19 1_555 1_555
C13 C14 1_555 1_555
C14 H11 1_555 1_555
C19 C13 1_555 1_555
N2 C10 1_555 1_555
H8 C10 1_555 1_555
Ni3 N2 1_555 1_555
O7 Ni3 1_555 1_555
N4 Ni3 1_555 1_555
O9 Ni3 1_555 1_555
O13 Ni3 1_555 1_555
O14 Ni3 1_555 1_555
C33 C34 1_555 1_555
C34 H25 1_555 1_555
C39 O6 1_555 1_555
C33 C39 1_555 1_555
O3 C20 1_555 1_555
O4 C20 1_555 1_555
H14 C18 1_555 1_555
C20 C17 1_555 1_555
Ni4 O4 1_555 1_555
C17 C18 1_555 1_555
Ni2 O2 1_555 1_555
O5_4 Ni2 1_555 1_555
N2_2 C10_2 1_555 1_555
H8_2 C10_2 1_555 1_555
Ni3_2 N2_2 1_555 1_555
O7_2 Ni3_2 1_555 1_555
N4_2 Ni3_2 1_555 1_555
O9_2 Ni3_2 1_555 1_555
O13_2 Ni3_2 1_555 1_555
O14_2 Ni3_2 1_555 1_555
N1_2 Ni2 1_555 1_555
C1_2 N1_2 1_555 1_555
H1_2 C1_2 1_555 1_555
C2_2 C1_2 1_555 1_555
H2_2 C2_2 1_555 1_555
C3_2 C2_2 1_555 1_555
C4_2 C3_2 1_555 1_555
H3_2 C4_2 1_555 1_555
C5_2 N1_2 1_555 1_555
H4_2 C5_2 1_555 1_555
C6_2 C3_2 1_555 1_555
H5_2 C6_2 1_555 1_555
C7_2 C6_2 1_555 1_555
H6_2 C7_2 1_555 1_555
C8_2 C7_2 1_555 1_555
C9_2 C8_2 1_555 1_555
H7_2 C9_2 1_555 1_555
H9_2 C11_2 1_555 1_555
C12_2 C8_2 1_555 1_555
H10_2 C12_2 1_555 1_555
Ni5_2 N3_2 1_555 1_555
Ni6_2 N5_2 1_555 1_555
N3_2 C21_2 1_555 1_555
C21_2 H15_2 1_555 1_555
C22_2 C21_2 1_555 1_555
H16_2 C22_2 1_555 1_555
N5_2 C30_2 1_555 1_555
N6_2 Ni2 1_555 1_555
C23_2 C22_2 1_555 1_555
C24_2 C23_2 1_555 1_555
H17_2 C24_2 1_555 1_555
C25_2 N3_2 1_555 1_555
H18_2 C25_2 1_555 1_555
C26_2 C6_2 1_555 1_555
H19_2 C26_2 1_555 1_555
C27_2 C7_2 1_555 1_555
H20_2 C27_2 1_555 1_555
C28_2 C27_2 1_555 1_555
C29_2 C28_2 1_555 1_555
H21_2 C29_2 1_555 1_555
C30_2 C29_2 1_555 1_555
H22_2 C30_2 1_555 1_555
C31_2 N5_2 1_555 1_555
H23_2 C31_2 1_555 1_555
C32_2 C28_2 1_555 1_555
H24_2 C32_2 1_555 1_555
C4_2 C5_2 1_555 1_555
C11_2 C12_2 1_555 1_555
C23_2 C26_2 1_555 1_555
C24_2 C25_2 1_555 1_555
C26_2 C27_2 1_555 1_555
C31_2 C32_2 1_555 1_555
Ni1_2 O1_2 1_555 1_555
O1_2 C19_2 1_555 1_555
N1_3 Ni1_2 1_555 1_555
C1_3 N1_3 1_555 1_555
H1_3 C1_3 1_555 1_555
C2_3 C1_3 1_555 1_555
H2_3 C2_3 1_555 1_555
O2_2 C19_2 1_555 1_555
C3_3 C2_3 1_555 1_555
O3_2 C20_2 1_555 1_555
C4_3 C3_3 1_555 1_555
H3_3 C4_3 1_555 1_555
O4_2 C20_2 1_555 1_555
O5_5 Ni1_2 1_555 1_555
C5_3 N1_3 1_555 1_555
H4_3 C5_3 1_555 1_555
C6_3 C3_3 1_555 1_555
C7_3 C6_3 1_555 1_555
H6_3 C7_3 1_555 1_555
C13_2 C14_2 1_555 1_555
C14_2 H11_2 1_555 1_555
C15 C14_2 1_555 1_555
H12 C15 1_555 1_555
C16 C15 1_555 1_555
H13 C16 1_555 1_555
C17_2 C16 1_555 1_555
C18_2 C13_2 1_555 1_555
H14_2 C18_2 1_555 1_555
C19_2 C13_2 1_555 1_555
C20_2 C17_2 1_555 1_555
Ni7 O2_2 1_555 1_555
Ni4_2 O4_2 1_555 1_555
O6_2 Ni7 1_555 1_555
N6_3 Ni1_2 1_555 1_555
O8_2 Ni1_2 1_555 1_555
O10_2 C40_2 1_555 1_555
O11_2 C40_2 1_555 1_555
O12_3 Ni1_2 1_555 1_555
C33_2 C34_2 1_555 1_555
C34_2 H25_2 1_555 1_555
C35 C34_2 1_555 1_555
H26 C35 1_555 1_555
C36 C35 1_555 1_555
H27 C36 1_555 1_555
C37_2 C36 1_555 1_555
C38_2 C33_2 1_555 1_555
H28_2 C38_2 1_555 1_555
C39_2 O6_2 1_555 1_555
C40_2 C37_2 1_555 1_555
C4_3 C5_3 1_555 1_555
O5_5 Ni7 1_555 1_555
C17_2 C18_2 1_555 1_555
O8_2 C39_2 1_555 1_555
C33_2 C39_2 1_555 1_555
C37_2 C38_2 1_555 1_555
N6 C10_3 1_555 1_555
C9_3 C8_3 1_555 1_555
H7_3 C9_3 1_555 1_555
C10_3 C9_3 1_555 1_555
H8_3 C10_3 1_555 1_555
H23_3 C31_3 1_555 1_555
H24_3 C32_3 1_555 1_555
C31_3 C32_3 1_555 1_555
Ni5_3 N3_3 1_555 1_555
N3_3 C21_3 1_555 1_555
C21_3 H15_3 1_555 1_555
C22_3 C21_3 1_555 1_555
H16_3 C22_3 1_555 1_555
C23_3 C22_3 1_555 1_555
C24_3 C23_3 1_555 1_555
H17_3 C24_3 1_555 1_555
C25_3 N3_3 1_555 1_555
H18_3 C25_3 1_555 1_555
H20_3 C27_3 1_555 1_555
C23_3 C26_3 1_555 1_555
C24_3 C25_3 1_555 1_555
C26_3 C27_3 1_555 1_555
H9_3 C11_3 1_555 1_555
H10_3 C12_3 1_555 1_555
N6_2 C30_3 1_555 1_555
C29_3 C28_3 1_555 1_555
H21_3 C29_3 1_555 1_555
C30_3 C29_3 1_555 1_555
H22_3 C30_3 1_555 1_555
C11_3 C12_3 1_555 1_555
N1_4 Ni7 1_555 1_555
C1_4 N1_4 1_555 1_555
H1_4 C1_4 1_555 1_555
C2_4 C1_4 1_555 1_555
H2_4 C2_4 1_555 1_555
C3_4 C2_4 1_555 1_555
C4_4 C3_4 1_555 1_555
C5_4 N1_4 1_555 1_555
C6_4 C3_4 1_555 1_555
H5_4 C6_4 1_555 1_555
C7_4 C6_4 1_555 1_555
H6_4 C7_4 1_555 1_555
N6_4 Ni7 1_555 1_555
C4_4 C5_4 1_555 1_555
N2_3 C10_4 1_555 1_555
C9_4 C8_4 1_555 1_555
H7_4 C9_4 1_555 1_555
C10_4 C9_4 1_555 1_555
H8_4 C10_4 1_555 1_555
C11_4 N2_3 1_555 1_555
H9_4 C11_4 1_555 1_555
C12_4 C8_4 1_555 1_555
H10_4 C12_4 1_555 1_555
Ni5 N2_3 1_555 1_555
O7_3 Ni5 1_555 1_555
O9_3 Ni5 1_555 1_555
O13_3 Ni5 1_555 1_555
O14_3 Ni5 1_555 1_555
C11_4 C12_4 1_555 1_555
Ni4 N3_4 1_555 1_555
N3_4 C21_4 1_555 1_555
C21_4 H15_4 1_555 1_555
C22_4 C21_4 1_555 1_555
H16_4 C22_4 1_555 1_555
C23_4 C22_4 1_555 1_555
C24_4 C23_4 1_555 1_555
C25_4 N3_4 1_555 1_555
H19_4 C26_4 1_555 1_555
H20_4 C27_4 1_555 1_555
C23_4 C26_4 1_555 1_555
C24_4 C25_4 1_555 1_555
C26_4 C27_4 1_555 1_555
Ni5_2 N5_3 1_555 1_555
N5_3 C30_4 1_555 1_555
C29_4 C28_4 1_555 1_555
H21_4 C29_4 1_555 1_555
C30_4 C29_4 1_555 1_555
H22_4 C30_4 1_555 1_555
C31_4 N5_3 1_555 1_555
H23_4 C31_4 1_555 1_555
C32_4 C28_4 1_555 1_555
H24_4 C32_4 1_555 1_555
C31_4 C32_4 1_555 1_555
Ni4_2 O1_3 1_555 1_555
O1_3 C19_3 1_555 1_555
N1_5 Ni4_2 1_555 1_555
C1_5 N1_5 1_555 1_555
H1_5 C1_5 1_555 1_555
C2_5 C1_5 1_555 1_555
H2_5 C2_5 1_555 1_555
C3_5 C2_5 1_555 1_555
C4_5 C3_5 1_555 1_555
H3_5 C4_5 1_555 1_555
O5_6 Ni4_2 1_555 1_555
C5_5 N1_5 1_555 1_555
H4_5 C5_5 1_555 1_555
C6_5 C3_5 1_555 1_555
H5_5 C6_5 1_555 1_555
C7_5 C6_5 1_555 1_555
H6_5 C7_5 1_555 1_555
C8_5 C7_5 1_555 1_555
C9_5 C8_5 1_555 1_555
H7_5 C9_5 1_555 1_555
H9_5 C11_5 1_555 1_555
C12_5 C8_5 1_555 1_555
H10_5 C12_5 1_555 1_555
C13_3 C14_3 1_555 1_555
C14_3 H11_3 1_555 1_555
C15_2 C14_3 1_555 1_555
H12_2 C15_2 1_555 1_555
C16_2 C15_2 1_555 1_555
H13_2 C16_2 1_555 1_555
C19_3 C13_3 1_555 1_555
Ni7_2 N3_5 1_555 1_555
Ni5_3 N5_4 1_555 1_555
N3_5 C21_5 1_555 1_555
C21_5 H15_5 1_555 1_555
C22_5 C21_5 1_555 1_555
H16_5 C22_5 1_555 1_555
N5_4 C30_5 1_555 1_555
N6_5 Ni4_2 1_555 1_555
O8_3 Ni4_2 1_555 1_555
C23_5 C22_5 1_555 1_555
O10_3 C40_3 1_555 1_555
C24_5 C23_5 1_555 1_555
H17_5 C24_5 1_555 1_555
O13_2 C40_3 1_555 1_555
C25_5 N3_5 1_555 1_555
H18_5 C25_5 1_555 1_555
C26_5 C6_5 1_555 1_555
H19_5 C26_5 1_555 1_555
C27_5 C7_5 1_555 1_555
H20_5 C27_5 1_555 1_555
C28_5 C27_5 1_555 1_555
C29_5 C28_5 1_555 1_555
H21_5 C29_5 1_555 1_555
C30_5 C29_5 1_555 1_555
H22_5 C30_5 1_555 1_555
C31_5 N5_4 1_555 1_555
H23_5 C31_5 1_555 1_555
C32_5 C28_5 1_555 1_555
H24_5 C32_5 1_555 1_555
H28_3 C38_3 1_555 1_555
C40_3 C37_3 1_555 1_555
C4_5 C5_5 1_555 1_555
C11_5 C12_5 1_555 1_555
C23_5 C26_5 1_555 1_555
C24_5 C25_5 1_555 1_555
C26_5 C27_5 1_555 1_555
C31_5 C32_5 1_555 1_555
C37_3 C38_3 1_555 1_555
N2_4 C10_5 1_555 1_555
O3_3 C20_3 1_555 1_555
O13 C20_3 1_555 1_555
H8_5 C10_5 1_555 1_555
H14_3 C18_3 1_555 1_555
C20_3 C17_3 1_555 1_555
Ni2_2 O2_3 1_555 1_555
Ni4 N2_4 1_555 1_555
O6_3 Ni2_2 1_555 1_555
O7_4 Ni4 1_555 1_555
O9_4 Ni4 1_555 1_555
O14_4 Ni4 1_555 1_555
C33_3 C34_3 1_555 1_555
C34_3 H25_3 1_555 1_555
C35_2 C34_3 1_555 1_555
H26_2 C35_2 1_555 1_555
C36_2 C35_2 1_555 1_555
H27_2 C36_2 1_555 1_555
C39_3 O6_3 1_555 1_555
O5_7 Ni2_2 1_555 1_555
C17_3 C18_3 1_555 1_555
C33_3 C39_3 1_555 1_555
N6_4 C10_6 1_555 1_555
H8_6 C10_6 1_555 1_555
N1_6 Ni2_2 1_555 1_555
C1_6 N1_6 1_555 1_555
H1_6 C1_6 1_555 1_555
C2_6 C1_6 1_555 1_555
H2_6 C2_6 1_555 1_555
C3_6 C2_6 1_555 1_555
C4_6 C3_6 1_555 1_555
H3_6 C4_6 1_555 1_555
C5_6 N1_6 1_555 1_555
H4_6 C5_6 1_555 1_555
C6_6 C3_6 1_555 1_555
H5_6 C6_6 1_555 1_555
C7_6 C6_6 1_555 1_555
H6_6 C7_6 1_555 1_555
C8_6 C7_6 1_555 1_555
C9_6 C8_6 1_555 1_555
H7_6 C9_6 1_555 1_555
H9_6 C11_6 1_555 1_555
C12_6 C8_6 1_555 1_555
H10_6 C12_6 1_555 1_555
Ni5_4 N3_6 1_555 1_555
N3_6 C21_6 1_555 1_555
C21_6 H15_6 1_555 1_555
C22_6 C21_6 1_555 1_555
H16_6 C22_6 1_555 1_555
N6_3 C30_6 1_555 1_555
N6_6 Ni2_2 1_555 1_555
C23_6 C22_6 1_555 1_555
C24_6 C23_6 1_555 1_555
H17_6 C24_6 1_555 1_555
O12_4 Ni2_2 1_555 1_555
C25_6 N3_6 1_555 1_555
H18_6 C25_6 1_555 1_555
C26_6 C6_6 1_555 1_555
H19_6 C26_6 1_555 1_555
C27_6 C7_6 1_555 1_555
H20_6 C27_6 1_555 1_555
C28_6 C27_6 1_555 1_555
C29_6 C28_6 1_555 1_555
H21_6 C29_6 1_555 1_555
C30_6 C29_6 1_555 1_555
H22_6 C30_6 1_555 1_555
C31_6 N6_3 1_555 1_555
H23_6 C31_6 1_555 1_555
C32_6 C28_6 1_555 1_555
H24_6 C32_6 1_555 1_555
C4_6 C5_6 1_555 1_555
C11_6 C12_6 1_555 1_555
C23_6 C26_6 1_555 1_555
C24_6 C25_6 1_555 1_555
C26_6 C27_6 1_555 1_555
C31_6 C32_6 1_555 1_555
Ni6_2 O1_4 1_555 1_555
O1_4 C19_4 1_555 1_555
N1_7 Ni6_2 1_555 1_555
C1_7 N1_7 1_555 1_555
H1_7 C1_7 1_555 1_555
C2_7 C1_7 1_555 1_555
H2_7 C2_7 1_555 1_555
N6_5 C10_7 1_555 1_555
O9_2 C19_4 1_555 1_555
C3_7 C2_7 1_555 1_555
O3_4 C20_4 1_555 1_555
C4_7 C3_7 1_555 1_555
H3_7 C4_7 1_555 1_555
O12 C20_4 1_555 1_555
O14_2 Ni6_2 1_555 1_555
C5_7 N1_7 1_555 1_555
H4_7 C5_7 1_555 1_555
C6_7 C3_7 1_555 1_555
H5_7 C6_7 1_555 1_555
C7_7 C6_7 1_555 1_555
H6_7 C7_7 1_555 1_555
C8_7 C7_7 1_555 1_555
C9_7 C8_7 1_555 1_555
H7_7 C9_7 1_555 1_555
C10_7 C9_7 1_555 1_555
H8_7 C10_7 1_555 1_555
C11_7 N6_5 1_555 1_555
H9_7 C11_7 1_555 1_555
C12_7 C8_7 1_555 1_555
H10_7 C12_7 1_555 1_555
C13_4 C14_4 1_555 1_555
C14_4 H11_4 1_555 1_555
C15_3 C14_4 1_555 1_555
H12_3 C15_3 1_555 1_555
C16_3 C15_3 1_555 1_555
H13_3 C16_3 1_555 1_555
C17_4 C16_3 1_555 1_555
C18_4 C13_4 1_555 1_555
H14_4 C18_4 1_555 1_555
C19_4 C13_4 1_555 1_555
C20_4 C17_4 1_555 1_555
Ni6 N3_7 1_555 1_555
N3_7 C21_7 1_555 1_555
C21_7 H15_7 1_555 1_555
C22_7 C21_7 1_555 1_555
H16_7 C22_7 1_555 1_555
N6_6 C30_7 1_555 1_555
O8_4 Ni6_2 1_555 1_555
C23_7 C22_7 1_555 1_555
O10_4 C40_4 1_555 1_555
C24_7 C23_7 1_555 1_555
H17_7 C24_7 1_555 1_555
O13_3 C40_4 1_555 1_555
O12_5 Ni6_2 1_555 1_555
C25_7 N3_7 1_555 1_555
H18_7 C25_7 1_555 1_555
C26_7 C6_7 1_555 1_555
H19_7 C26_7 1_555 1_555
C27_7 C7_7 1_555 1_555
H20_7 C27_7 1_555 1_555
C28_7 C27_7 1_555 1_555
C29_7 C28_7 1_555 1_555
H21_7 C29_7 1_555 1_555
C30_7 C29_7 1_555 1_555
H22_7 C30_7 1_555 1_555
C31_7 N6_6 1_555 1_555
H23_7 C31_7 1_555 1_555
C32_7 C28_7 1_555 1_555
H24_7 C32_7 1_555 1_555
C33_4 C34_4 1_555 1_555
C34_4 H25_4 1_555 1_555
C35_3 C34_4 1_555 1_555
H26_3 C35_3 1_555 1_555
C36_3 C35_3 1_555 1_555
H27_3 C36_3 1_555 1_555
C37_4 C36_3 1_555 1_555
C38_4 C33_4 1_555 1_555
H28_4 C38_4 1_555 1_555
C39_4 O7_2 1_555 1_555
C40_4 C37_4 1_555 1_555
C4_7 C5_7 1_555 1_555
C11_7 C12_7 1_555 1_555
C17_4 C18_4 1_555 1_555
O8_4 C39_4 1_555 1_555
C23_7 C26_7 1_555 1_555
C24_7 C25_7 1_555 1_555
C26_7 C27_7 1_555 1_555
C31_7 C32_7 1_555 1_555
C33_4 C39_4 1_555 1_555
C37_4 C38_4 1_555 1_555
H9_8 C11_8 1_555 1_555
H10_8 C12_8 1_555 1_555
C11_8 C12_8 1_555 1_555
C1_8 N4_2 1_555 1_555
H1_8 C1_8 1_555 1_555
C2_8 C1_8 1_555 1_555
H2_8 C2_8 1_555 1_555
N2_5 C10_8 1_555 1_555
C3_8 C2_8 1_555 1_555
C4_8 C3_8 1_555 1_555
C5_8 N4_2 1_555 1_555
C6_8 C3_8 1_555 1_555
C7_8 C6_8 1_555 1_555
H6_8 C7_8 1_555 1_555
C8_8 C7_8 1_555 1_555
C9_8 C8_8 1_555 1_555
H7_8 C9_8 1_555 1_555
C10_8 C9_8 1_555 1_555
H8_8 C10_8 1_555 1_555
Ni7_2 N2_5 1_555 1_555
O9_5 Ni7_2 1_555 1_555
O14_6 Ni7_2 1_555 1_555
C4_8 C5_8 1_555 1_555
Ni5_4 N5_5 1_555 1_555
N4 C21_8 1_555 1_555
C21_8 H15_8 1_555 1_555
C22_8 C21_8 1_555 1_555
H16_8 C22_8 1_555 1_555
N5_5 C30_8 1_555 1_555
C23_8 C22_8 1_555 1_555
C24_8 C23_8 1_555 1_555
C25_8 N4 1_555 1_555
H20_8 C27_8 1_555 1_555
C28_8 C27_8 1_555 1_555
C29_8 C28_8 1_555 1_555
H21_8 C29_8 1_555 1_555
C30_8 C29_8 1_555 1_555
H22_8 C30_8 1_555 1_555
C23_8 C26_8 1_555 1_555
C24_8 C25_8 1_555 1_555
C26_8 C27_8 1_555 1_555
H23_8 C31_8 1_555 1_555
H24_8 C32_8 1_555 1_555
C31_8 C32_8 1_555 1_555
O14_5 Ni5_4 1_555 1_555
Ni6 O11_3 1_555 1_555
O8_5 Ni5_4 1_555 1_555
O10_5 C40_5 1_555 1_555
O11_3 C40_5 1_555 1_555
C33_5 C34_5 1_555 1_555
C34_5 H25_5 1_555 1_555
C35_4 C34_5 1_555 1_555
H26_4 C35_4 1_555 1_555
C36_4 C35_4 1_555 1_555
H27_4 C36_4 1_555 1_555
C37_5 C36_4 1_555 1_555
C38_5 C33_5 1_555 1_555
H28_5 C38_5 1_555 1_555
C39_5 O7_5 1_555 1_555
C40_5 C37_5 1_555 1_555
O8_5 C39_5 1_555 1_555
C33_5 C39_5 1_555 1_555
C37_5 C38_5 1_555 1_555
O1_5 C19_5 1_555 1_555
O9_5 C19_5 1_555 1_555
O3_5 C20_5 1_555 1_555
O12_5 C20_5 1_555 1_555
C13_5 C14_5 1_555 1_555
C14_5 H11_5 1_555 1_555
C15_4 C14_5 1_555 1_555
H12_4 C15_4 1_555 1_555
C16_4 C15_4 1_555 1_555
H13_4 C16_4 1_555 1_555
C17_5 C16_4 1_555 1_555
C18_5 C13_5 1_555 1_555
H14_5 C18_5 1_555 1_555
C19_5 C13_5 1_555 1_555
C20_5 C17_5 1_555 1_555
C17_5 C18_5 1_555 1_555
O7_6 Ni5_3 1_555 1_555
O9_6 Ni5_3 1_555 1_555
O13_4 Ni5_3 1_555 1_555
O14_4 Ni5_3 1_555 1_555
O7 C19_6 1_555 1_555
O2_4 C19_6 1_555 1_555
O3_6 C20_6 1_555 1_555
O4_3 C20_6 1_555 1_555
C13_6 C14_6 1_555 1_555
C14_6 H11_6 1_555 1_555
C15_5 C14_6 1_555 1_555
H12_5 C15_5 1_555 1_555
C16_5 C15_5 1_555 1_555
H13_5 C16_5 1_555 1_555
C17_6 C16_5 1_555 1_555
C18_6 C13_6 1_555 1_555
H14_6 C18_6 1_555 1_555
C19_6 C13_6 1_555 1_555
C20_6 C17_6 1_555 1_555
Ni6 O2_4 1_555 1_555
Ni5_2 O4_3 1_555 1_555
O6_4 Ni6 1_555 1_555
O10_6 C40_6 1_555 1_555
O12_2 C40_6 1_555 1_555
C33_6 C34_6 1_555 1_555
C34_6 H25_6 1_555 1_555
C35_5 C34_6 1_555 1_555
H26_5 C35_5 1_555 1_555
C36_5 C35_5 1_555 1_555
H27_5 C36_5 1_555 1_555
C37_6 C36_5 1_555 1_555
C38_6 C33_6 1_555 1_555
H28_6 C38_6 1_555 1_555
C39_6 O6_4 1_555 1_555
C40_6 C37_6 1_555 1_555
O14 Ni6 1_555 1_555
C17_6 C18_6 1_555 1_555
O9 C39_6 1_555 1_555
C33_6 C39_6 1_555 1_555
C37_6 C38_6 1_555 1_555
O3_7 C20_7 1_555 1_555
O12_3 C20_7 1_555 1_555
H12_6 C15_6 1_555 1_555
C16_6 C15_6 1_555 1_555
H13_6 C16_6 1_555 1_555
C17_7 C16_6 1_555 1_555
H14_7 C18_7 1_555 1_555
C20_7 C17_7 1_555 1_555
O10_7 C40_7 1_555 1_555
O13_4 C40_7 1_555 1_555
H26_6 C35_6 1_555 1_555
C36_6 C35_6 1_555 1_555
H27_6 C36_6 1_555 1_555
C37_7 C36_6 1_555 1_555
H28_7 C38_7 1_555 1_555
C40_7 C37_7 1_555 1_555
C17_7 C18_7 1_555 1_555
C37_7 C38_7 1_555 1_555
Ni5_2 O1_6 1_555 1_555
O1_6 C19_7 1_555 1_555
O9_3 C19_7 1_555 1_555
O14_3 Ni5_2 1_555 1_555
C13_7 C14_7 1_555 1_555
C14_7 H11_7 1_555 1_555
C19_7 C13_7 1_555 1_555
O8_6 Ni5_2 1_555 1_555
C33_7 C34_7 1_555 1_555
C34_7 H25_7 1_555 1_555
C39_7 O7_3 1_555 1_555
O8_6 C39_7 1_555 1_555
C33_7 C39_7 1_555 1_555
O7_4 C19_8 1_555 1_555
O9_6 C19_8 1_555 1_555
O3_8 C20_8 1_555 1_555
O12_6 C20_8 1_555 1_555
C13_8 C14_8 1_555 1_555
C14_8 H11_8 1_555 1_555
C15_7 C14_8 1_555 1_555
H12_7 C15_7 1_555 1_555
C16_7 C15_7 1_555 1_555
H13_7 C16_7 1_555 1_555
C17_8 C16_7 1_555 1_555
C18_8 C13_8 1_555 1_555
H14_8 C18_8 1_555 1_555
C19_8 C13_8 1_555 1_555
C20_8 C17_8 1_555 1_555
O10_8 C40_8 1_555 1_555
O12_4 C40_8 1_555 1_555
C33_8 C34_8 1_555 1_555
C34_8 H25_8 1_555 1_555
C35_7 C34_8 1_555 1_555
H26_7 C35_7 1_555 1_555
C36_7 C35_7 1_555 1_555
H27_7 C36_7 1_555 1_555
C37_8 C36_7 1_555 1_555
C38_8 C33_8 1_555 1_555
H28_8 C38_8 1_555 1_555
C39_8 O7_6 1_555 1_555
C40_8 C37_8 1_555 1_555
C17_8 C18_8 1_555 1_555
O9_4 C39_8 1_555 1_555
C33_8 C39_8 1_555 1_555
C37_8 C38_8 1_555 1_555
H12_8 C15_8 1_555 1_555
C16_8 C15_8 1_555 1_555
H13_8 C16_8 1_555 1_555
H26_8 C35_8 1_555 1_555
C36_8 C35_8 1_555 1_555
H27_8 C36_8 1_555 1_555

#END
