
###############################################################################
#
# This file contains modified crystal structure data generated from the
# MOF subset of the Cambridge Structural Database (CSD) v543 
# hosted by the Cambridge Crystallographic Data Centre (CCDC).
#
# This work is licensed under the Creative Commons
# Attribution-NonCommercial-ShareAlike 4.0 International License.
# To view a copy of this license, visit
# http://creativecommons.org/licenses/by-nc-sa/4.0/
# or send a letter to
# Creative Commons, PO Box 1866, Mountain View, CA 94042, USA.
#
# CIF created using the CSD Python API on 29 September 2022
# The structure has been converted into the P1 space group
# The structure has a 3D framework
# The original CSD entry KALGEL is in the orthorhombic crystal system
# The framework has been calculated to contain at least 10.0% void space
# The void calculation uses a probe of radius 1.32A, grid spacing 0.4
#
###############################################################################

data_KALGEL
_chemical_formula_moiety         '(C320 H235 N32 Ni13 O67)n'
_symmetry_cell_setting           triclinic
_symmetry_space_group_name_H-M   'P 1'
_symmetry_Int_Tables_number      1
_space_group_name_Hall           'P 1'
loop_
_symmetry_equiv_pos_site_id
_symmetry_equiv_pos_as_xyz
1 x,y,z
_cell_length_a                   15.417(3)
_cell_length_b                   23.492(5)
_cell_length_c                   32.648(7)
_cell_angle_alpha                90
_cell_angle_beta                 90
_cell_angle_gamma                90
_cell_volume                     11824.3
loop_
_atom_site_label
_atom_site_type_symbol
_atom_site_fract_x
_atom_site_fract_y
_atom_site_fract_z
Ni1 Ni 0.36176(6) 0.24030(4) 0.51297(3)
N1 N 0.3913(4) 0.1645(3) 0.4825(2)
N2 N 0.2272(5) 0.0119(3) 0.2973(2)
O1 O 0.3064(3) 0.1938(2) 0.55974(17)
O2 O 0.1667(4) 0.1838(2) 0.54097(17)
O3 O 0.4181(4) 0.0710(3) 0.6777(2)
O4 O 0.3171(4) 0.0332(2) 0.71931(19)
O5 O 0.2500 0.2500 0.4767(3)
H1 H 0.221(5) 0.225(3) 0.467(3)
C1 C 0.4691(5) 0.1572(4) 0.4647(3)
H2 H 0.5098 0.1868 0.4673
C2 C 0.4932(5) 0.1094(4) 0.4431(3)
H3 H 0.5487 0.1066 0.4313
C3 C 0.4329(5) 0.0651(3) 0.4391(2)
C4 C 0.3521(5) 0.0705(4) 0.4575(3)
H4 H 0.3105 0.0414 0.4558
C5 C 0.3352(5) 0.1215(4) 0.4787(3)
H5 H 0.2805 0.1255 0.4911
C6 C 0.4545(5) 0.0133(3) 0.4131(3)
C7 C 0.4657(5) 0.0240(3) 0.3664(3)
H7 H 0.4937 0.0613 0.3616
C8 C 0.3834(5) 0.0183(4) 0.3398(3)
C9 C 0.3261(6) 0.0654(4) 0.3387(3)
H8 H 0.3410 0.0998 0.3517
C10 C 0.2477(6) 0.0602(4) 0.3182(4)
H9 H 0.2080 0.0905 0.3188
C13 C 0.2146(5) 0.1335(4) 0.5999(3)
C14 C 0.1313(6) 0.1127(5) 0.6070(3)
H12 H 0.0857 0.1224 0.5892
C15 C 0.1155(6) 0.0778(7) 0.6401(4)
H13 H 0.0584 0.0660 0.6454
C16 C 0.1813(6) 0.0597(5) 0.6657(4)
H14 H 0.1698 0.0345 0.6874
C17 C 0.2676(5) 0.0801(4) 0.6584(3)
C18 C 0.2837(5) 0.1149(3) 0.6255(3)
H15 H 0.3408 0.1266 0.6198
C19 C 0.2317(5) 0.1743(3) 0.5644(3)
C20 C 0.3415(6) 0.0602(4) 0.6866(3)
Ni3 Ni 0.11176(6) 0.00970(4) 0.26297(3)
Ni4 Ni 0.13824(6) 0.25970(4) 0.51297(3)
Ni7 Ni 0.11176(6) 0.50970(4) 0.76297(3)
N5 N 0.4772(5) 0.2381(3) 0.5473(2)
O7 O 0.1936(3) 0.3062(2) 0.55974(17)
O8 O 0.3333(4) 0.3162(2) 0.54097(17)
O10 O 0.0819(4) 0.4290(3) 0.6777(2)
O11 O 0.4329(4) 0.2832(2) 0.46931(19)
O13 O 0.1829(4) 0.4668(2) 0.71931(19)
H16 H 0.279(5) 0.275(3) 0.467(3)
H23 H 0.5896 0.0167 0.4176
C31 C 0.7158(6) 0.0294(4) 0.2951(3)
H27 H 0.7279 0.0611 0.2786
C32 C 0.6368(6) 0.0276(4) 0.3169(4)
H28 H 0.5981 0.0584 0.3155
C33 C 0.2854(5) 0.3665(4) 0.5999(3)
C34 C 0.3687(6) 0.3873(5) 0.6070(3)
H29 H 0.4143 0.3776 0.5892
C35 C 0.3845(6) 0.4222(7) 0.6401(4)
H30 H 0.4416 0.4340 0.6454
C36 C 0.3187(6) 0.4403(5) 0.6657(4)
H31 H 0.3302 0.4655 0.6874
C37 C 0.2324(5) 0.4199(4) 0.6584(3)
C38 C 0.2163(5) 0.3851(3) 0.6255(3)
H32 H 0.1592 0.3734 0.6198
C39 C 0.2683(5) 0.3257(3) 0.5644(3)
C40 C 0.1585(6) 0.4398(4) 0.6866(3)
H6 H 0.4104 0.9833 0.4176
C11 C 0.2842(6) 0.9706(4) 0.2951(3)
H10 H 0.2721 0.9389 0.2786
C12 C 0.3632(6) 0.9724(4) 0.3169(4)
H11 H 0.4019 0.9416 0.3155
Ni2 Ni 0.63824(6) 0.75970(4) 0.51297(3)
Ni5 Ni 0.38824(6) 0.99030(4) 0.76297(3)
Ni6 Ni 0.88824(6) 0.99030(4) 0.26297(3)
N3 N 0.6087(4) 0.8355(3) 0.4825(2)
N4 N 0.7728(5) 0.9881(3) 0.2973(2)
N6 N 0.5228(5) 0.7619(3) 0.5473(2)
O6 O 0.6936(3) 0.8062(2) 0.55974(17)
O9 O 0.6667(4) 0.6838(2) 0.54097(17)
O12 O 0.5671(4) 0.7168(2) 0.46931(19)
O14 O 0.7500 0.7500 0.4767(3)
H17 H 0.779(5) 0.775(3) 0.467(3)
H18 H 0.721(5) 0.725(3) 0.467(3)
C21 C 0.5309(5) 0.8428(4) 0.4647(3)
H19 H 0.4902 0.8132 0.4673
C22 C 0.5068(5) 0.8906(4) 0.4431(3)
H20 H 0.4513 0.8934 0.4313
C23 C 0.5671(5) 0.9349(3) 0.4391(2)
C24 C 0.6479(5) 0.9295(4) 0.4575(3)
H21 H 0.6895 0.9586 0.4558
C25 C 0.6648(5) 0.8785(4) 0.4787(3)
H22 H 0.7195 0.8745 0.4911
C26 C 0.5455(5) 0.9867(3) 0.4131(3)
C27 C 0.5343(5) 0.9760(3) 0.3664(3)
H24 H 0.5063 0.9387 0.3616
C28 C 0.6166(5) 0.9817(4) 0.3398(3)
C29 C 0.6739(6) 0.9346(4) 0.3387(3)
H25 H 0.6590 0.9002 0.3517
C30 C 0.7523(6) 0.9398(4) 0.3182(4)
H26 H 0.7920 0.9095 0.3188
Ni5_2 Ni 0.61176(6) 0.00970(4) 0.76297(3)
O2_2 O 0.8333(4) 0.8162(2) 0.54097(17)
O3_2 O 0.5819(4) 0.9290(3) 0.6777(2)
O4_2 O 0.6829(4) 0.9668(2) 0.71931(19)
C13_2 C 0.7854(5) 0.8665(4) 0.5999(3)
C14_2 C 0.8687(6) 0.8873(5) 0.6070(3)
H12_2 H 0.9143 0.8776 0.5892
C15_2 C 0.8845(6) 0.9222(7) 0.6401(4)
H13_2 H 0.9416 0.9340 0.6454
C16_2 C 0.8187(6) 0.9403(5) 0.6657(4)
H14_2 H 0.8302 0.9655 0.6874
C17_2 C 0.7324(5) 0.9199(4) 0.6584(3)
C18_2 C 0.7163(5) 0.8851(3) 0.6255(3)
H15_2 H 0.6592 0.8734 0.6198
C19_2 C 0.7683(5) 0.8257(3) 0.5644(3)
C20_2 C 0.6585(6) 0.9398(4) 0.6866(3)
Ni4_2 Ni 0.86176(6) 0.74030(4) 0.51297(3)
Ni7_2 Ni 0.88824(6) 0.49030(4) 0.76297(3)
O7_2 O 0.8064(3) 0.6938(2) 0.55974(17)
O10_2 O 0.9181(4) 0.5710(3) 0.6777(2)
O13_2 O 0.8171(4) 0.5332(2) 0.71931(19)
C33_2 C 0.7146(5) 0.6335(4) 0.5999(3)
C34_2 C 0.6313(6) 0.6127(5) 0.6070(3)
H29_2 H 0.5857 0.6224 0.5892
C35_2 C 0.6155(6) 0.5778(7) 0.6401(4)
H30_2 H 0.5584 0.5660 0.6454
C36_2 C 0.6813(6) 0.5597(5) 0.6657(4)
H31_2 H 0.6698 0.5345 0.6874
C37_2 C 0.7676(5) 0.5801(4) 0.6584(3)
C38_2 C 0.7837(5) 0.6149(3) 0.6255(3)
H32_2 H 0.8408 0.6266 0.6198
C39_2 C 0.7317(5) 0.6743(3) 0.5644(3)
C40_2 C 0.8415(6) 0.5602(4) 0.6866(3)
N4_2 N 0.0228(5) 0.2619(3) 0.5473(2)
O14_2 O 0.0000 0.5000 0.7267(3)
H17_2 H 0.029(5) 0.475(3) 0.717(3)
C30_2 C 0.0023(6) 0.3102(4) 0.5682(4)
H26_2 H 0.0420 0.3405 0.5688
Ni5_3 Ni 0.63824(6) 0.25970(4) 0.01297(3)
N1_2 N 0.6413(4) 0.0855(3) 0.7325(2)
O1_2 O 0.5564(3) 0.0562(2) 0.80974(17)
O2_3 O 0.4167(4) 0.0662(2) 0.79097(17)
O3_3 O 0.6681(4) 0.1790(3) 0.9277(2)
O4_3 O 0.5671(4) 0.2168(2) 0.96931(19)
O5_2 O 0.5000 0.0000 0.7267(3)
H1_2 H 0.471(5) 0.025(3) 0.717(3)
C1_2 C 0.7191(5) 0.0928(4) 0.7147(3)
H2_2 H 0.7598 0.0632 0.7173
C2_2 C 0.7432(5) 0.1406(4) 0.6931(3)
H3_2 H 0.7987 0.1434 0.6813
C3_2 C 0.6829(5) 0.1849(3) 0.6891(2)
C4_2 C 0.6021(5) 0.1795(4) 0.7075(3)
H4_2 H 0.5605 0.2086 0.7058
C5_2 C 0.5852(5) 0.1285(4) 0.7287(3)
H5_2 H 0.5305 0.1245 0.7411
C6_2 C 0.7045(5) 0.2367(3) 0.6631(3)
H6_2 H 0.6604 0.2667 0.6676
C7_2 C 0.7157(5) 0.2260(3) 0.6164(3)
H7_2 H 0.7437 0.1887 0.6116
C8_2 C 0.6334(5) 0.2317(4) 0.5898(3)
C9_2 C 0.5761(6) 0.1846(4) 0.5887(3)
H8_2 H 0.5910 0.1502 0.6017
C10_2 C 0.4977(6) 0.1898(4) 0.5682(4)
H9_2 H 0.4580 0.1595 0.5688
C11_2 C 0.5342(6) 0.2794(4) 0.5451(3)
H10_2 H 0.5221 0.3111 0.5286
C12_2 C 0.6132(6) 0.2776(4) 0.5669(4)
H11_2 H 0.6519 0.3084 0.5655
C13_3 C 0.4646(5) 0.1165(4) 0.8499(3)
C14_3 C 0.3813(6) 0.1373(5) 0.8570(3)
H12_3 H 0.3357 0.1276 0.8392
C15_3 C 0.3655(6) 0.1722(7) 0.8901(4)
H13_3 H 0.3084 0.1840 0.8954
C16_3 C 0.4313(6) 0.1903(5) 0.9157(4)
H14_3 H 0.4198 0.2155 0.9374
C17_3 C 0.5176(5) 0.1699(4) 0.9084(3)
C18_3 C 0.5337(5) 0.1351(3) 0.8755(3)
H15_3 H 0.5908 0.1234 0.8698
C19_3 C 0.4817(5) 0.0757(3) 0.8144(3)
C20_3 C 0.5915(6) 0.1898(4) 0.9366(3)
N3_2 N 0.8587(4) 0.4145(3) 0.7325(2)
N5_2 N 0.7272(5) 0.0119(3) 0.7973(2)
N6_2 N 0.7728(5) 0.4881(3) 0.7973(2)
O6_2 O 0.9436(3) 0.4438(2) 0.80974(17)
O9_2 O 0.9167(4) 0.5662(2) 0.79097(17)
O14_3 O 1.0000 0.5000 0.7267(3)
H18_2 H 0.971(5) 0.525(3) 0.717(3)
C21_2 C 0.7809(5) 0.4072(4) 0.7147(3)
H19_2 H 0.7402 0.4368 0.7173
C22_2 C 0.7568(5) 0.3594(4) 0.6931(3)
H20_2 H 0.7013 0.3566 0.6813
C23_2 C 0.8171(5) 0.3151(3) 0.6891(2)
C24_2 C 0.8979(5) 0.3205(4) 0.7075(3)
H21_2 H 0.9395 0.2914 0.7058
C25_2 C 0.9148(5) 0.3715(4) 0.7287(3)
H22_2 H 0.9695 0.3755 0.7411
C26_2 C 0.7955(5) 0.2633(3) 0.6631(3)
H23_2 H 0.8396 0.2333 0.6676
C27_2 C 0.7843(5) 0.2740(3) 0.6164(3)
H24_2 H 0.7563 0.3113 0.6116
C28_2 C 0.8666(5) 0.2683(4) 0.5898(3)
C29_2 C 0.9239(6) 0.3154(4) 0.5887(3)
H25_2 H 0.9090 0.3498 0.6017
C31_2 C 0.9658(6) 0.2206(4) 0.5451(3)
H27_2 H 0.9779 0.1889 0.5286
C32_2 C 0.8868(6) 0.2224(4) 0.5669(4)
H28_2 H 0.8481 0.1916 0.5655
Ni7_3 Ni 0.36176(6) 0.74030(4) 0.01297(3)
O5_3 O 0.5000 1.0000 0.7267(3)
O7_3 O 0.4436(3) 0.9438(2) 0.80974(17)
O8_2 O 0.5833(4) 0.9338(2) 0.79097(17)
O10_3 O 0.3319(4) 0.8210(3) 0.9277(2)
O13_3 O 0.4329(4) 0.7832(2) 0.96931(19)
H16_2 H 0.529(5) 0.975(3) 0.717(3)
C33_3 C 0.5354(5) 0.8835(4) 0.8499(3)
C34_3 C 0.6187(6) 0.8627(5) 0.8570(3)
H29_3 H 0.6643 0.8724 0.8392
C35_3 C 0.6345(6) 0.8278(7) 0.8901(4)
H30_3 H 0.6916 0.8160 0.8954
C36_3 C 0.5687(6) 0.8097(5) 0.9157(4)
H31_3 H 0.5802 0.7845 0.9374
C37_3 C 0.4824(5) 0.8301(4) 0.9084(3)
C38_3 C 0.4663(5) 0.8649(3) 0.8755(3)
H32_3 H 0.4092 0.8766 0.8698
C39_3 C 0.5183(5) 0.9243(3) 0.8144(3)
C40_3 C 0.4085(6) 0.8102(4) 0.9366(3)
Ni7_4 Ni 0.13824(6) 0.75970(4) 0.01297(3)
O2_4 O 0.0833(4) 0.4338(2) 0.79097(17)
C13_4 C 0.0354(5) 0.3835(4) 0.8499(3)
C14_4 C 0.1187(6) 0.3627(5) 0.8570(3)
H12_4 H 0.1643 0.3724 0.8392
C15_4 C 0.1345(6) 0.3278(7) 0.8901(4)
H13_4 H 0.1916 0.3160 0.8954
C16_4 C 0.0687(6) 0.3097(5) 0.9157(4)
H14_4 H 0.0802 0.2845 0.9374
C19_4 C 0.0183(5) 0.4243(3) 0.8144(3)
O7_4 O 0.0564(3) 0.5562(2) 0.80974(17)
O10_4 O 0.1681(4) 0.6790(3) 0.9277(2)
O13_4 O 0.0671(4) 0.7168(2) 0.96931(19)
C37_4 C 0.0176(5) 0.6699(4) 0.9084(3)
C38_4 C 0.0337(5) 0.6351(3) 0.8755(3)
H32_4 H 0.0908 0.6234 0.8698
C40_4 C 0.0915(6) 0.6898(4) 0.9366(3)
Ni5_4 Ni 0.86176(6) 0.24030(4) 0.01297(3)
O3_4 O 0.8319(4) 0.3210(3) 0.9277(2)
O4_4 O 0.9329(4) 0.2832(2) 0.96931(19)
C17_4 C 0.9824(5) 0.3301(4) 0.9084(3)
C18_4 C 0.9663(5) 0.3649(3) 0.8755(3)
H15_4 H 0.9092 0.3766 0.8698
C20_4 C 0.9085(6) 0.3102(4) 0.9366(3)
C33_4 C 0.9646(5) 0.6165(4) 0.8499(3)
C34_4 C 0.8813(6) 0.6373(5) 0.8570(3)
H29_4 H 0.8357 0.6276 0.8392
C35_4 C 0.8655(6) 0.6722(7) 0.8901(4)
H30_4 H 0.8084 0.6840 0.8954
C36_4 C 0.9313(6) 0.6903(5) 0.9157(4)
H31_4 H 0.9198 0.7155 0.9374
C39_4 C 0.9817(5) 0.5757(3) 0.8144(3)
O1_3 O 0.3064(3) 0.6938(2) 0.05974(17)
O2_5 O 0.1667(4) 0.6838(2) 0.04097(17)
O3_5 O 0.4181(4) 0.5710(3) 0.1777(2)
O4_5 O 0.3171(4) 0.5332(2) 0.21931(19)
C13_5 C 0.2146(5) 0.6335(4) 0.0999(3)
C14_5 C 0.1313(6) 0.6127(5) 0.1070(3)
H12_5 H 0.0857 0.6224 0.0892
C15_5 C 0.1155(6) 0.5778(7) 0.1401(4)
H13_5 H 0.0584 0.5660 0.1454
C16_5 C 0.1813(6) 0.5597(5) 0.1657(4)
H14_5 H 0.1698 0.5345 0.1874
C17_5 C 0.2676(5) 0.5801(4) 0.1584(3)
C18_5 C 0.2837(5) 0.6149(3) 0.1255(3)
H15_5 H 0.3408 0.6266 0.1198
C19_5 C 0.2317(5) 0.6743(3) 0.0644(3)
C20_5 C 0.3415(6) 0.5602(4) 0.1866(3)
Ni5_5 Ni 0.38824(6) 0.49030(4) 0.26297(3)
N5_3 N 0.4772(5) 0.7381(3) 0.0473(2)
N6_3 N 0.5228(5) 0.2619(3) 0.0473(2)
O6_3 O 0.6936(3) 0.3062(2) 0.05974(17)
O7_5 O 0.1936(3) 0.8062(2) 0.05974(17)
O8_3 O 0.3333(4) 0.8162(2) 0.04097(17)
O9_3 O 0.6667(4) 0.1838(2) 0.04097(17)
O10_5 O 0.0819(4) 0.9290(3) 0.1777(2)
O13_5 O 0.1829(4) 0.9668(2) 0.21931(19)
C33_5 C 0.2854(5) 0.8665(4) 0.0999(3)
C34_5 C 0.3687(6) 0.8873(5) 0.1070(3)
H29_5 H 0.4143 0.8776 0.0892
C35_5 C 0.3845(6) 0.9222(7) 0.1401(4)
H30_5 H 0.4416 0.9340 0.1454
C36_5 C 0.3187(6) 0.9403(5) 0.1657(4)
H31_5 H 0.3302 0.9655 0.1874
C37_5 C 0.2324(5) 0.9199(4) 0.1584(3)
C38_5 C 0.2163(5) 0.8851(3) 0.1255(3)
H32_5 H 0.1592 0.8734 0.1198
C39_5 C 0.2683(5) 0.8257(3) 0.0644(3)
C40_5 C 0.1585(6) 0.9398(4) 0.1866(3)
N1_3 N 0.3913(4) 0.6645(3) 0.9825(2)
N2_2 N 0.2272(5) 0.5119(3) 0.7973(2)
O5_4 O 0.2500 0.7500 0.9767(3)
H1_3 H 0.221(5) 0.725(3) 0.967(3)
C1_3 C 0.4691(5) 0.6572(4) 0.9647(3)
H2_3 H 0.5098 0.6868 0.9673
C2_3 C 0.4932(5) 0.6094(4) 0.9431(3)
H3_3 H 0.5487 0.6066 0.9313
C3_3 C 0.4329(5) 0.5651(3) 0.9391(2)
C4_3 C 0.3521(5) 0.5705(4) 0.9575(3)
H4_3 H 0.3105 0.5414 0.9558
C5_3 C 0.3352(5) 0.6215(4) 0.9787(3)
H5_3 H 0.2805 0.6255 0.9911
C6_3 C 0.4545(5) 0.5133(3) 0.9131(3)
H6_3 H 0.4104 0.4833 0.9176
C7_3 C 0.4657(5) 0.5240(3) 0.8664(3)
H7_3 H 0.4937 0.5613 0.8616
C8_3 C 0.3834(5) 0.5183(4) 0.8398(3)
C9_3 C 0.3261(6) 0.5654(4) 0.8387(3)
H8_3 H 0.3410 0.5998 0.8517
C10_3 C 0.2477(6) 0.5602(4) 0.8182(4)
H9_3 H 0.2080 0.5905 0.8188
C11_3 C 0.2842(6) 0.4706(4) 0.7951(3)
H10_3 H 0.2721 0.4389 0.7786
C12_3 C 0.3632(6) 0.4724(4) 0.8169(4)
H11_3 H 0.4019 0.4416 0.8155
N3_3 N 0.6087(4) 0.3355(3) 0.9825(2)
O14_4 O 0.7500 0.2500 0.9767(3)
H16_3 H 0.279(5) 0.775(3) 0.967(3)
H17_3 H 0.779(5) 0.275(3) 0.967(3)
H18_3 H 0.721(5) 0.225(3) 0.967(3)
C21_3 C 0.5309(5) 0.3428(4) 0.9647(3)
H19_3 H 0.4902 0.3132 0.9673
C22_3 C 0.5068(5) 0.3906(4) 0.9431(3)
H20_3 H 0.4513 0.3934 0.9313
C23_3 C 0.5671(5) 0.4349(3) 0.9391(2)
C24_3 C 0.6479(5) 0.4295(4) 0.9575(3)
H21_3 H 0.6895 0.4586 0.9558
C25_3 C 0.6648(5) 0.3785(4) 0.9787(3)
H22_3 H 0.7195 0.3745 0.9911
C26_3 C 0.5455(5) 0.4867(3) 0.9131(3)
H23_3 H 0.5896 0.5167 0.9176
C27_3 C 0.5343(5) 0.4760(3) 0.8664(3)
H24_3 H 0.5063 0.4387 0.8616
C28_3 C 0.6166(5) 0.4817(4) 0.8398(3)
C29_3 C 0.6739(6) 0.4346(4) 0.8387(3)
H25_3 H 0.6590 0.4002 0.8517
C30_3 C 0.7523(6) 0.4398(4) 0.8182(4)
H26_3 H 0.7920 0.4095 0.8188
C31_3 C 0.7158(6) 0.5294(4) 0.7951(3)
H27_3 H 0.7279 0.5611 0.7786
C32_3 C 0.6368(6) 0.5276(4) 0.8169(4)
H28_3 H 0.5981 0.5584 0.8155
O2_6 O 0.8333(4) 0.3162(2) 0.04097(17)
O3_6 O 0.5819(4) 0.4290(3) 0.1777(2)
O4_6 O 0.6829(4) 0.4668(2) 0.21931(19)
C13_6 C 0.7854(5) 0.3665(4) 0.0999(3)
C14_6 C 0.8687(6) 0.3873(5) 0.1070(3)
H12_6 H 0.9143 0.3776 0.0892
C15_6 C 0.8845(6) 0.4222(7) 0.1401(4)
H13_6 H 0.9416 0.4340 0.1454
C16_6 C 0.8187(6) 0.4403(5) 0.1657(4)
H14_6 H 0.8302 0.4655 0.1874
C17_6 C 0.7324(5) 0.4199(4) 0.1584(3)
C18_6 C 0.7163(5) 0.3851(3) 0.1255(3)
H15_6 H 0.6592 0.3734 0.1198
C19_6 C 0.7683(5) 0.3257(3) 0.0644(3)
C20_6 C 0.6585(6) 0.4398(4) 0.1866(3)
Ni5_6 Ni 0.61176(6) 0.50970(4) 0.26297(3)
O7_6 O 0.8064(3) 0.1938(2) 0.05974(17)
O10_6 O 0.9181(4) 0.0710(3) 0.1777(2)
O13_6 O 0.8171(4) 0.0332(2) 0.21931(19)
C33_6 C 0.7146(5) 0.1335(4) 0.0999(3)
C34_6 C 0.6313(6) 0.1127(5) 0.1070(3)
H29_6 H 0.5857 0.1224 0.0892
C35_6 C 0.6155(6) 0.0778(7) 0.1401(4)
H30_6 H 0.5584 0.0660 0.1454
C36_6 C 0.6813(6) 0.0597(5) 0.1657(4)
H31_6 H 0.6698 0.0345 0.1874
C37_6 C 0.7676(5) 0.0801(4) 0.1584(3)
C38_6 C 0.7837(5) 0.1149(3) 0.1255(3)
H32_6 H 0.8408 0.1266 0.1198
C39_6 C 0.7317(5) 0.1743(3) 0.0644(3)
C40_6 C 0.8415(6) 0.0602(4) 0.1866(3)
O14_5 O 0.0000 0.0000 0.2267(3)
N4_3 N 0.0228(5) 0.7619(3) 0.0473(2)
O14_6 O 0.0000 1.0000 0.2267(3)
H17_4 H 0.029(5) 0.975(3) 0.217(3)
C30_4 C 0.0023(6) 0.8102(4) 0.0682(4)
H26_4 H 0.0420 0.8405 0.0688
O9_4 O 0.9167(4) 0.0662(2) 0.29097(17)
O14_7 O 1.0000 0.0000 0.2267(3)
H18_4 H 0.971(5) 0.025(3) 0.217(3)
N1_4 N 0.6413(4) 0.5855(3) 0.2325(2)
O1_4 O 0.5564(3) 0.5562(2) 0.30974(17)
O2_7 O 0.4167(4) 0.5662(2) 0.29097(17)
O3_7 O 0.6681(4) 0.6790(3) 0.4277(2)
O5_5 O 0.5000 0.5000 0.2267(3)
H1_4 H 0.471(5) 0.525(3) 0.217(3)
C1_4 C 0.7191(5) 0.5928(4) 0.2147(3)
H2_4 H 0.7598 0.5632 0.2173
C2_4 C 0.7432(5) 0.6406(4) 0.1931(3)
H3_4 H 0.7987 0.6434 0.1813
C3_4 C 0.6829(5) 0.6849(3) 0.1891(2)
C4_4 C 0.6021(5) 0.6795(4) 0.2075(3)
H4_4 H 0.5605 0.7086 0.2058
C5_4 C 0.5852(5) 0.6285(4) 0.2287(3)
H5_4 H 0.5305 0.6245 0.2411
C6_4 C 0.7045(5) 0.7367(3) 0.1631(3)
H6_4 H 0.6604 0.7667 0.1676
C7_4 C 0.7157(5) 0.7260(3) 0.1164(3)
H7_4 H 0.7437 0.6887 0.1116
C8_4 C 0.6334(5) 0.7317(4) 0.0898(3)
C9_4 C 0.5761(6) 0.6846(4) 0.0887(3)
H8_4 H 0.5910 0.6502 0.1017
C10_4 C 0.4977(6) 0.6898(4) 0.0682(4)
H9_4 H 0.4580 0.6595 0.0688
C11_4 C 0.5342(6) 0.7794(4) 0.0451(3)
H10_4 H 0.5221 0.8111 0.0286
C12_4 C 0.6132(6) 0.7776(4) 0.0669(4)
H11_4 H 0.6519 0.8084 0.0655
C13_7 C 0.4646(5) 0.6165(4) 0.3499(3)
C14_7 C 0.3813(6) 0.6373(5) 0.3570(3)
H12_7 H 0.3357 0.6276 0.3392
C15_7 C 0.3655(6) 0.6722(7) 0.3901(4)
H13_7 H 0.3084 0.6840 0.3954
C16_7 C 0.4313(6) 0.6903(5) 0.4157(4)
H14_7 H 0.4198 0.7155 0.4374
C17_7 C 0.5176(5) 0.6699(4) 0.4084(3)
C18_7 C 0.5337(5) 0.6351(3) 0.3755(3)
H15_7 H 0.5908 0.6234 0.3698
C19_7 C 0.4817(5) 0.5757(3) 0.3144(3)
C20_7 C 0.5915(6) 0.6898(4) 0.4366(3)
N3_4 N 0.8587(4) 0.9145(3) 0.2325(2)
N5_4 N 0.7272(5) 0.5119(3) 0.2973(2)
O6_4 O 0.9436(3) 0.9438(2) 0.30974(17)
O7_7 O 0.4436(3) 0.4438(2) 0.30974(17)
O8_4 O 0.5833(4) 0.4338(2) 0.29097(17)
O10_7 O 0.3319(4) 0.3210(3) 0.4277(2)
O14_8 O 1.0000 1.0000 0.2267(3)
H16_4 H 0.529(5) 0.475(3) 0.217(3)
C21_4 C 0.7809(5) 0.9072(4) 0.2147(3)
H19_4 H 0.7402 0.9368 0.2173
C22_4 C 0.7568(5) 0.8594(4) 0.1931(3)
H20_4 H 0.7013 0.8566 0.1813
C23_4 C 0.8171(5) 0.8151(3) 0.1891(2)
C24_4 C 0.8979(5) 0.8205(4) 0.2075(3)
H21_4 H 0.9395 0.7914 0.2058
C25_4 C 0.9148(5) 0.8715(4) 0.2287(3)
H22_4 H 0.9695 0.8755 0.2411
C26_4 C 0.7955(5) 0.7633(3) 0.1631(3)
H23_4 H 0.8396 0.7333 0.1676
C27_4 C 0.7843(5) 0.7740(3) 0.1164(3)
H24_4 H 0.7563 0.8113 0.1116
C28_4 C 0.8666(5) 0.7683(4) 0.0898(3)
C29_4 C 0.9239(6) 0.8154(4) 0.0887(3)
H25_4 H 0.9090 0.8498 0.1017
C31_4 C 0.9658(6) 0.7206(4) 0.0451(3)
H27_4 H 0.9779 0.6889 0.0286
C32_4 C 0.8868(6) 0.7224(4) 0.0669(4)
H28_4 H 0.8481 0.6916 0.0655
C33_7 C 0.5354(5) 0.3835(4) 0.3499(3)
C34_7 C 0.6187(6) 0.3627(5) 0.3570(3)
H29_7 H 0.6643 0.3724 0.3392
C35_7 C 0.6345(6) 0.3278(7) 0.3901(4)
H30_7 H 0.6916 0.3160 0.3954
C36_7 C 0.5687(6) 0.3097(5) 0.4157(4)
H31_7 H 0.5802 0.2845 0.4374
C37_7 C 0.4824(5) 0.3301(4) 0.4084(3)
C38_7 C 0.4663(5) 0.3649(3) 0.3755(3)
H32_7 H 0.4092 0.3766 0.3698
C39_7 C 0.5183(5) 0.4243(3) 0.3144(3)
C40_7 C 0.4085(6) 0.3102(4) 0.4366(3)
O7_8 O 0.0564(3) 0.0562(2) 0.30974(17)
O10_8 O 0.1681(4) 0.1790(3) 0.4277(2)
O13_7 O 0.0671(4) 0.2168(2) 0.46931(19)
C37_8 C 0.0176(5) 0.1699(4) 0.4084(3)
C38_8 C 0.0337(5) 0.1351(3) 0.3755(3)
H32_8 H 0.0908 0.1234 0.3698
C40_8 C 0.0915(6) 0.1898(4) 0.4366(3)
O2_8 O 0.0833(4) 0.9338(2) 0.29097(17)
C13_8 C 0.0354(5) 0.8835(4) 0.3499(3)
C14_8 C 0.1187(6) 0.8627(5) 0.3570(3)
H12_8 H 0.1643 0.8724 0.3392
C15_8 C 0.1345(6) 0.8278(7) 0.3901(4)
H13_8 H 0.1916 0.8160 0.3954
C16_8 C 0.0687(6) 0.8097(5) 0.4157(4)
H14_8 H 0.0802 0.7845 0.4374
C19_8 C 0.0183(5) 0.9243(3) 0.3144(3)
C33_8 C 0.9646(5) 0.1165(4) 0.3499(3)
C34_8 C 0.8813(6) 0.1373(5) 0.3570(3)
H29_8 H 0.8357 0.1276 0.3392
C35_8 C 0.8655(6) 0.1722(7) 0.3901(4)
H30_8 H 0.8084 0.1840 0.3954
C36_8 C 0.9313(6) 0.1903(5) 0.4157(4)
H31_8 H 0.9198 0.2155 0.4374
C39_8 C 0.9817(5) 0.0757(3) 0.3144(3)
O3_8 O 0.8319(4) 0.8210(3) 0.4277(2)
O4_7 O 0.9329(4) 0.7832(2) 0.46931(19)
C17_8 C 0.9824(5) 0.8301(4) 0.4084(3)
C18_8 C 0.9663(5) 0.8649(3) 0.3755(3)
H15_8 H 0.9092 0.8766 0.3698
C20_8 C 0.9085(6) 0.8102(4) 0.4366(3)
N3_5 N 0.1087(4) 0.8355(3) 0.9825(2)
N4_4 N 0.2728(5) 0.9881(3) 0.7973(2)
C21_5 C 0.0309(5) 0.8428(4) 0.9647(3)
C22_5 C 0.0068(5) 0.8906(4) 0.9431(3)
C23_5 C 0.0671(5) 0.9349(3) 0.9391(2)
C24_5 C 0.1479(5) 0.9295(4) 0.9575(3)
H21_5 H 0.1895 0.9586 0.9558
C25_5 C 0.1648(5) 0.8785(4) 0.9787(3)
H22_5 H 0.2195 0.8745 0.9911
C26_5 C 0.0455(5) 0.9867(3) 0.9131(3)
C27_5 C 0.0343(5) 0.9760(3) 0.8664(3)
H24_5 H 0.0063 0.9387 0.8616
C28_5 C 0.1166(5) 0.9817(4) 0.8398(3)
C29_5 C 0.1739(6) 0.9346(4) 0.8387(3)
H25_5 H 0.1590 0.9002 0.8517
C30_5 C 0.2523(6) 0.9398(4) 0.8182(4)
H26_5 H 0.2920 0.9095 0.8188
N5_5 N 0.9772(5) 0.2381(3) 0.0473(2)
N1_5 N 0.8913(4) 0.1645(3) 0.9825(2)
C1_5 C 0.9691(5) 0.1572(4) 0.9647(3)
C2_5 C 0.9932(5) 0.1094(4) 0.9431(3)
C3_5 C 0.9329(5) 0.0651(3) 0.9391(2)
C4_5 C 0.8521(5) 0.0705(4) 0.9575(3)
H4_5 H 0.8105 0.0414 0.9558
C5_5 C 0.8352(5) 0.1215(4) 0.9787(3)
H5_5 H 0.7805 0.1255 0.9911
C6_5 C 0.9545(5) 0.0133(3) 0.9131(3)
C7_5 C 0.9657(5) 0.0240(3) 0.8664(3)
H7_5 H 0.9937 0.0613 0.8616
C8_5 C 0.8834(5) 0.0183(4) 0.8398(3)
C9_5 C 0.8261(6) 0.0654(4) 0.8387(3)
H8_5 H 0.8410 0.0998 0.8517
C10_5 C 0.7477(6) 0.0602(4) 0.8182(4)
H9_5 H 0.7080 0.0905 0.8188
N1_6 N 0.1413(4) 0.0855(3) 0.2325(2)
C1_6 C 0.2191(5) 0.0928(4) 0.2147(3)
H2_5 H 0.2598 0.0632 0.2173
C2_6 C 0.2432(5) 0.1406(4) 0.1931(3)
H3_5 H 0.2987 0.1434 0.1813
C3_6 C 0.1829(5) 0.1849(3) 0.1891(2)
C4_6 C 0.1021(5) 0.1795(4) 0.2075(3)
H4_6 H 0.0605 0.2086 0.2058
C5_6 C 0.0852(5) 0.1285(4) 0.2287(3)
H5_6 H 0.0305 0.1245 0.2411
C6_6 C 0.2045(5) 0.2367(3) 0.1631(3)
H6_5 H 0.1604 0.2667 0.1676
C7_6 C 0.2157(5) 0.2260(3) 0.1164(3)
H7_6 H 0.2437 0.1887 0.1116
C8_6 C 0.1334(5) 0.2317(4) 0.0898(3)
C9_6 C 0.0761(6) 0.1846(4) 0.0887(3)
H8_6 H 0.0910 0.1502 0.1017
C11_5 C 0.0342(6) 0.2794(4) 0.0451(3)
H10_5 H 0.0221 0.3111 0.0286
C12_5 C 0.1132(6) 0.2776(4) 0.0669(4)
H11_5 H 0.1519 0.3084 0.0655
N3_6 N 0.3587(4) 0.4145(3) 0.2325(2)
N6_4 N 0.2728(5) 0.4881(3) 0.2973(2)
C21_6 C 0.2809(5) 0.4072(4) 0.2147(3)
H19_5 H 0.2402 0.4368 0.2173
C22_6 C 0.2568(5) 0.3594(4) 0.1931(3)
H20_5 H 0.2013 0.3566 0.1813
C23_6 C 0.3171(5) 0.3151(3) 0.1891(2)
C24_6 C 0.3979(5) 0.3205(4) 0.2075(3)
H21_6 H 0.4395 0.2914 0.2058
C25_6 C 0.4148(5) 0.3715(4) 0.2287(3)
H22_6 H 0.4695 0.3755 0.2411
C26_6 C 0.2955(5) 0.2633(3) 0.1631(3)
H23_5 H 0.3396 0.2333 0.1676
C27_6 C 0.2843(5) 0.2740(3) 0.1164(3)
H24_6 H 0.2563 0.3113 0.1116
C28_6 C 0.3666(5) 0.2683(4) 0.0898(3)
C29_6 C 0.4239(6) 0.3154(4) 0.0887(3)
H25_6 H 0.4090 0.3498 0.1017
C30_6 C 0.5023(6) 0.3102(4) 0.0682(4)
H26_6 H 0.5420 0.3405 0.0688
C31_5 C 0.4658(6) 0.2206(4) 0.0451(3)
H27_5 H 0.4779 0.1889 0.0286
C32_5 C 0.3868(6) 0.2224(4) 0.0669(4)
H28_5 H 0.3481 0.1916 0.0655
C10_6 C 0.9977(6) 0.1898(4) 0.0682(4)
H9_6 H 0.9580 0.1595 0.0688
H2_6 H 0.0098 0.6868 0.4673
H3_6 H 0.0487 0.6066 0.4313
N3_7 N 0.1087(4) 0.3355(3) 0.4825(2)
C21_7 C 0.0309(5) 0.3428(4) 0.4647(3)
C22_7 C 0.0068(5) 0.3906(4) 0.4431(3)
C23_7 C 0.0671(5) 0.4349(3) 0.4391(2)
C24_7 C 0.1479(5) 0.4295(4) 0.4575(3)
H21_7 H 0.1895 0.4586 0.4558
C25_7 C 0.1648(5) 0.3785(4) 0.4787(3)
H22_7 H 0.2195 0.3745 0.4911
C26_7 C 0.0455(5) 0.4867(3) 0.4131(3)
H23_6 H 0.0896 0.5167 0.4176
C27_7 C 0.0343(5) 0.4760(3) 0.3664(3)
H24_7 H 0.0063 0.4387 0.3616
C28_7 C 0.1166(5) 0.4817(4) 0.3398(3)
C29_7 C 0.1739(6) 0.4346(4) 0.3387(3)
H25_7 H 0.1590 0.4002 0.3517
C30_7 C 0.2523(6) 0.4398(4) 0.3182(4)
H26_7 H 0.2920 0.4095 0.3188
C31_6 C 0.2158(6) 0.5294(4) 0.2951(3)
H27_6 H 0.2279 0.5611 0.2786
C32_6 C 0.1368(6) 0.5276(4) 0.3169(4)
H28_6 H 0.0981 0.5584 0.3155
N1_7 N 0.8913(4) 0.6645(3) 0.4825(2)
C1_7 C 0.9691(5) 0.6572(4) 0.4647(3)
C2_7 C 0.9932(5) 0.6094(4) 0.4431(3)
C3_7 C 0.9329(5) 0.5651(3) 0.4391(2)
C4_7 C 0.8521(5) 0.5705(4) 0.4575(3)
H4_7 H 0.8105 0.5414 0.4558
C5_7 C 0.8352(5) 0.6215(4) 0.4787(3)
H5_7 H 0.7805 0.6255 0.4911
C6_7 C 0.9545(5) 0.5133(3) 0.4131(3)
H6_6 H 0.9104 0.4833 0.4176
C7_7 C 0.9657(5) 0.5240(3) 0.3664(3)
H7_7 H 0.9937 0.5613 0.3616
C8_7 C 0.8834(5) 0.5183(4) 0.3398(3)
C9_7 C 0.8261(6) 0.5654(4) 0.3387(3)
H8_7 H 0.8410 0.5998 0.3517
C10_7 C 0.7477(6) 0.5602(4) 0.3182(4)
H9_7 H 0.7080 0.5905 0.3188
C11_6 C 0.7842(6) 0.4706(4) 0.2951(3)
H10_6 H 0.7721 0.4389 0.2786
C12_6 C 0.8632(6) 0.4724(4) 0.3169(4)
H11_6 H 0.9019 0.4416 0.3155
N5_6 N 0.9772(5) 0.7381(3) 0.5473(2)
H19_6 H 0.9902 0.3132 0.4673
H20_6 H 0.9513 0.3934 0.4313
N1_8 N 0.1413(4) 0.5855(3) 0.7325(2)
C1_8 C 0.2191(5) 0.5928(4) 0.7147(3)
H2_7 H 0.2598 0.5632 0.7173
C2_8 C 0.2432(5) 0.6406(4) 0.6931(3)
H3_7 H 0.2987 0.6434 0.6813
C3_8 C 0.1829(5) 0.6849(3) 0.6891(2)
C4_8 C 0.1021(5) 0.6795(4) 0.7075(3)
H4_8 H 0.0605 0.7086 0.7058
C5_8 C 0.0852(5) 0.6285(4) 0.7287(3)
H5_8 H 0.0305 0.6245 0.7411
C6_8 C 0.2045(5) 0.7367(3) 0.6631(3)
H6_7 H 0.1604 0.7667 0.6676
C7_8 C 0.2157(5) 0.7260(3) 0.6164(3)
H7_8 H 0.2437 0.6887 0.6116
C8_8 C 0.1334(5) 0.7317(4) 0.5898(3)
C9_8 C 0.0761(6) 0.6846(4) 0.5887(3)
H8_8 H 0.0910 0.6502 0.6017
C11_7 C 0.0342(6) 0.7794(4) 0.5451(3)
H10_7 H 0.0221 0.8111 0.5286
C12_7 C 0.1132(6) 0.7776(4) 0.5669(4)
H11_7 H 0.1519 0.8084 0.5655
N3_8 N 0.3587(4) 0.9145(3) 0.7325(2)
C21_8 C 0.2809(5) 0.9072(4) 0.7147(3)
H19_7 H 0.2402 0.9368 0.7173
C22_8 C 0.2568(5) 0.8594(4) 0.6931(3)
H20_7 H 0.2013 0.8566 0.6813
C23_8 C 0.3171(5) 0.8151(3) 0.6891(2)
C24_8 C 0.3979(5) 0.8205(4) 0.7075(3)
H21_8 H 0.4395 0.7914 0.7058
C25_8 C 0.4148(5) 0.8715(4) 0.7287(3)
H22_8 H 0.4695 0.8755 0.7411
C26_8 C 0.2955(5) 0.7633(3) 0.6631(3)
H23_7 H 0.3396 0.7333 0.6676
C27_8 C 0.2843(5) 0.7740(3) 0.6164(3)
H24_8 H 0.2563 0.8113 0.6116
C28_8 C 0.3666(5) 0.7683(4) 0.5898(3)
C29_8 C 0.4239(6) 0.8154(4) 0.5887(3)
H25_8 H 0.4090 0.8498 0.6017
C30_8 C 0.5023(6) 0.8102(4) 0.5682(4)
H26_8 H 0.5420 0.8405 0.5688
C31_7 C 0.4658(6) 0.7206(4) 0.5451(3)
H27_7 H 0.4779 0.6889 0.5286
C32_7 C 0.3868(6) 0.7224(4) 0.5669(4)
H28_7 H 0.3481 0.6916 0.5655
C10_8 C 0.9977(6) 0.6898(4) 0.5682(4)
H9_8 H 0.9580 0.6595 0.5688
H2_8 H 0.0098 0.1868 0.9673
H3_8 H 0.0487 0.1066 0.9313
H23_8 H 0.0896 0.0167 0.9176
C31_8 C 0.2158(6) 0.0294(4) 0.7951(3)
H27_8 H 0.2279 0.0611 0.7786
C32_8 C 0.1368(6) 0.0276(4) 0.8169(4)
H28_8 H 0.0981 0.0584 0.8155
H6_8 H 0.9104 0.9833 0.9176
C11_8 C 0.7842(6) 0.9706(4) 0.7951(3)
H10_8 H 0.7721 0.9389 0.7786
C12_8 C 0.8632(6) 0.9724(4) 0.8169(4)
H11_8 H 0.9019 0.9416 0.8155
H19_8 H 0.9902 0.8132 0.9673
H20_8 H 0.9513 0.8934 0.9313
loop_
_geom_bond_atom_site_label_1
_geom_bond_atom_site_label_2
_geom_bond_site_symmetry_1
_geom_bond_site_symmetry_2
Ni1 N1 1_555 1_555
N1 C1 1_555 1_555
N2 C10 1_555 1_555
O1 Ni1 1_555 1_555
O2 C19 1_555 1_555
O3 C20 1_555 1_555
O4 C20 1_555 1_555
O5 Ni1 1_555 1_555
H1 O5 1_555 1_555
C1 H2 1_555 1_555
C2 C1 1_555 1_555
H3 C2 1_555 1_555
C3 C2 1_555 1_555
C4 C3 1_555 1_555
H4 C4 1_555 1_555
C5 N1 1_555 1_555
H5 C5 1_555 1_555
C6 C3 1_555 1_555
C7 C6 1_555 1_555
H7 C7 1_555 1_555
C8 C7 1_555 1_555
C9 C8 1_555 1_555
H8 C9 1_555 1_555
C10 C9 1_555 1_555
H9 C10 1_555 1_555
C13 C14 1_555 1_555
C14 H12 1_555 1_555
C15 C14 1_555 1_555
H13 C15 1_555 1_555
C16 C15 1_555 1_555
H14 C16 1_555 1_555
C17 C16 1_555 1_555
C18 C13 1_555 1_555
H15 C18 1_555 1_555
C19 O1 1_555 1_555
C20 C17 1_555 1_555
Ni3 N2 1_555 1_555
Ni4 O2 1_555 1_555
Ni7 O13 1_555 1_555
N5 Ni1 1_555 1_555
O7 Ni4 1_555 1_555
O8 Ni1 1_555 1_555
O10 C40 1_555 1_555
O11 Ni1 1_555 1_555
O13 C40 1_555 1_555
H16 O5 1_555 1_555
H27 C31 1_555 1_555
H28 C32 1_555 1_555
C33 C34 1_555 1_555
C34 H29 1_555 1_555
C35 C34 1_555 1_555
H30 C35 1_555 1_555
C36 C35 1_555 1_555
H31 C36 1_555 1_555
C37 C36 1_555 1_555
C38 C33 1_555 1_555
H32 C38 1_555 1_555
C39 O7 1_555 1_555
C40 C37 1_555 1_555
O5 Ni4 1_555 1_555
C4 C5 1_555 1_555
C13 C19 1_555 1_555
C17 C18 1_555 1_555
O8 C39 1_555 1_555
C31 C32 1_555 1_555
C33 C39 1_555 1_555
C37 C38 1_555 1_555
H10 C11 1_555 1_555
H11 C12 1_555 1_555
Ni2 N3 1_555 1_555
Ni6 N4 1_555 1_555
N3 C21 1_555 1_555
N4 C30 1_555 1_555
N6 Ni2 1_555 1_555
O6 Ni2 1_555 1_555
O9 Ni2 1_555 1_555
O12 Ni2 1_555 1_555
O14 Ni2 1_555 1_555
H17 O14 1_555 1_555
H18 O14 1_555 1_555
C21 H19 1_555 1_555
C22 C21 1_555 1_555
H20 C22 1_555 1_555
C23 C22 1_555 1_555
C24 C23 1_555 1_555
H21 C24 1_555 1_555
C25 N3 1_555 1_555
H22 C25 1_555 1_555
H24 C27 1_555 1_555
C28 C27 1_555 1_555
C29 C28 1_555 1_555
H25 C29 1_555 1_555
C30 C29 1_555 1_555
H26 C30 1_555 1_555
C11 C12 1_555 1_555
C23 C26 1_555 1_555
C24 C25 1_555 1_555
C26 C27 1_555 1_555
O2_2 C19_2 1_555 1_555
O3_2 C20_2 1_555 1_555
O4_2 C20_2 1_555 1_555
C13_2 C14_2 1_555 1_555
C14_2 H12_2 1_555 1_555
C15_2 C14_2 1_555 1_555
H13_2 C15_2 1_555 1_555
C16_2 C15_2 1_555 1_555
H14_2 C16_2 1_555 1_555
C17_2 C16_2 1_555 1_555
C18_2 C13_2 1_555 1_555
H15_2 C18_2 1_555 1_555
C19_2 O6 1_555 1_555
C20_2 C17_2 1_555 1_555
Ni4_2 O2_2 1_555 1_555
Ni7_2 O13_2 1_555 1_555
O7_2 Ni4_2 1_555 1_555
O10_2 C40_2 1_555 1_555
O13_2 C40_2 1_555 1_555
C33_2 C34_2 1_555 1_555
C34_2 H29_2 1_555 1_555
C35_2 C34_2 1_555 1_555
H30_2 C35_2 1_555 1_555
C36_2 C35_2 1_555 1_555
H31_2 C36_2 1_555 1_555
C37_2 C36_2 1_555 1_555
C38_2 C33_2 1_555 1_555
H32_2 C38_2 1_555 1_555
C39_2 O7_2 1_555 1_555
C40_2 C37_2 1_555 1_555
O14 Ni4_2 1_555 1_555
C13_2 C19_2 1_555 1_555
C17_2 C18_2 1_555 1_555
O9 C39_2 1_555 1_555
C33_2 C39_2 1_555 1_555
C37_2 C38_2 1_555 1_555
Ni4 N4_2 1_555 1_555
N4_2 C30_2 1_555 1_555
H17_2 O14_2 1_555 1_555
H26_2 C30_2 1_555 1_555
Ni5_2 N1_2 1_555 1_555
N1_2 C1_2 1_555 1_555
N5 C10_2 1_555 1_555
O1_2 Ni5_2 1_555 1_555
O2_3 C19_3 1_555 1_555
O3_3 C20_3 1_555 1_555
O4_3 C20_3 1_555 1_555
O5_2 Ni5_2 1_555 1_555
H1_2 O5_2 1_555 1_555
C1_2 H2_2 1_555 1_555
C2_2 C1_2 1_555 1_555
H3_2 C2_2 1_555 1_555
C3_2 C2_2 1_555 1_555
C4_2 C3_2 1_555 1_555
H4_2 C4_2 1_555 1_555
C5_2 N1_2 1_555 1_555
H5_2 C5_2 1_555 1_555
C6_2 C3_2 1_555 1_555
H6_2 C6_2 1_555 1_555
C7_2 C6_2 1_555 1_555
H7_2 C7_2 1_555 1_555
C8_2 C7_2 1_555 1_555
C9_2 C8_2 1_555 1_555
H8_2 C9_2 1_555 1_555
C10_2 C9_2 1_555 1_555
H9_2 C10_2 1_555 1_555
C11_2 N5 1_555 1_555
H10_2 C11_2 1_555 1_555
C12_2 C8_2 1_555 1_555
H11_2 C12_2 1_555 1_555
C13_3 C14_3 1_555 1_555
C14_3 H12_3 1_555 1_555
C15_3 C14_3 1_555 1_555
H13_3 C15_3 1_555 1_555
C16_3 C15_3 1_555 1_555
H14_3 C16_3 1_555 1_555
C17_3 C16_3 1_555 1_555
C18_3 C13_3 1_555 1_555
H15_3 C18_3 1_555 1_555
C19_3 O1_2 1_555 1_555
C20_3 C17_3 1_555 1_555
Ni7_2 N3_2 1_555 1_555
N3_2 C21_2 1_555 1_555
N5_2 Ni5_2 1_555 1_555
N6_2 Ni7_2 1_555 1_555
O6_2 Ni7_2 1_555 1_555
O9_2 Ni7_2 1_555 1_555
O14_3 Ni7_2 1_555 1_555
H18_2 O14_3 1_555 1_555
C21_2 H19_2 1_555 1_555
C22_2 C21_2 1_555 1_555
H20_2 C22_2 1_555 1_555
C23_2 C22_2 1_555 1_555
C24_2 C23_2 1_555 1_555
H21_2 C24_2 1_555 1_555
C25_2 N3_2 1_555 1_555
H22_2 C25_2 1_555 1_555
C26_2 C6_2 1_555 1_555
H23_2 C26_2 1_555 1_555
C27_2 C7_2 1_555 1_555
H24_2 C27_2 1_555 1_555
C28_2 C27_2 1_555 1_555
C29_2 C28_2 1_555 1_555
H25_2 C29_2 1_555 1_555
H27_2 C31_2 1_555 1_555
C32_2 C28_2 1_555 1_555
H28_2 C32_2 1_555 1_555
C4_2 C5_2 1_555 1_555
C11_2 C12_2 1_555 1_555
C13_3 C19_3 1_555 1_555
C17_3 C18_3 1_555 1_555
C23_2 C26_2 1_555 1_555
C24_2 C25_2 1_555 1_555
C26_2 C27_2 1_555 1_555
C31_2 C32_2 1_555 1_555
O7_3 Ni5 1_555 1_555
O10_3 C40_3 1_555 1_555
O13_3 C40_3 1_555 1_555
H16_2 O5_3 1_555 1_555
C33_3 C34_3 1_555 1_555
C34_3 H29_3 1_555 1_555
C35_3 C34_3 1_555 1_555
H30_3 C35_3 1_555 1_555
C36_3 C35_3 1_555 1_555
H31_3 C36_3 1_555 1_555
C37_3 C36_3 1_555 1_555
C38_3 C33_3 1_555 1_555
H32_3 C38_3 1_555 1_555
C39_3 O7_3 1_555 1_555
C40_3 C37_3 1_555 1_555
O5_3 Ni5 1_555 1_555
O8_2 C39_3 1_555 1_555
C33_3 C39_3 1_555 1_555
C37_3 C38_3 1_555 1_555
O2_4 C19_4 1_555 1_555
C13_4 C14_4 1_555 1_555
C14_4 H12_4 1_555 1_555
C15_4 C14_4 1_555 1_555
H13_4 C15_4 1_555 1_555
C16_4 C15_4 1_555 1_555
H14_4 C16_4 1_555 1_555
Ni7 O2_4 1_555 1_555
O7_4 Ni7 1_555 1_555
O10_4 C40_4 1_555 1_555
O13_4 C40_4 1_555 1_555
H32_4 C38_4 1_555 1_555
C40_4 C37_4 1_555 1_555
O14_2 Ni7 1_555 1_555
C13_4 C19_4 1_555 1_555
C37_4 C38_4 1_555 1_555
O3_4 C20_4 1_555 1_555
O4_4 C20_4 1_555 1_555
H15_4 C18_4 1_555 1_555
C20_4 C17_4 1_555 1_555
C33_4 C34_4 1_555 1_555
C34_4 H29_4 1_555 1_555
C35_4 C34_4 1_555 1_555
H30_4 C35_4 1_555 1_555
C36_4 C35_4 1_555 1_555
H31_4 C36_4 1_555 1_555
C17_4 C18_4 1_555 1_555
O9_2 C39_4 1_555 1_555
C33_4 C39_4 1_555 1_555
O1_3 Ni7_3 1_555 1_555
O2_5 C19_5 1_555 1_555
O3_5 C20_5 1_555 1_555
O4_5 C20_5 1_555 1_555
C13_5 C14_5 1_555 1_555
C14_5 H12_5 1_555 1_555
C15_5 C14_5 1_555 1_555
H13_5 C15_5 1_555 1_555
C16_5 C15_5 1_555 1_555
H14_5 C16_5 1_555 1_555
C17_5 C16_5 1_555 1_555
C18_5 C13_5 1_555 1_555
H15_5 C18_5 1_555 1_555
C19_5 O1_3 1_555 1_555
C20_5 C17_5 1_555 1_555
Ni7_4 O2_5 1_555 1_555
Ni5_5 O4_5 1_555 1_555
N5_3 Ni7_3 1_555 1_555
N6_3 Ni5_3 1_555 1_555
O6_3 Ni5_3 1_555 1_555
O7_5 Ni7_4 1_555 1_555
O8_3 Ni7_3 1_555 1_555
O9_3 Ni5_3 1_555 1_555
O10_5 C40_5 1_555 1_555
O13_5 C40_5 1_555 1_555
C33_5 C34_5 1_555 1_555
C34_5 H29_5 1_555 1_555
C35_5 C34_5 1_555 1_555
H30_5 C35_5 1_555 1_555
C36_5 C35_5 1_555 1_555
H31_5 C36_5 1_555 1_555
C37_5 C36_5 1_555 1_555
C38_5 C33_5 1_555 1_555
H32_5 C38_5 1_555 1_555
C39_5 O7_5 1_555 1_555
C40_5 C37_5 1_555 1_555
C13_5 C19_5 1_555 1_555
C17_5 C18_5 1_555 1_555
O8_3 C39_5 1_555 1_555
C33_5 C39_5 1_555 1_555
C37_5 C38_5 1_555 1_555
N1_3 C1_3 1_555 1_555
N2_2 C10_3 1_555 1_555
H1_3 O5_4 1_555 1_555
C1_3 H2_3 1_555 1_555
C2_3 C1_3 1_555 1_555
H3_3 C2_3 1_555 1_555
C3_3 C2_3 1_555 1_555
C4_3 C3_3 1_555 1_555
H4_3 C4_3 1_555 1_555
C5_3 N1_3 1_555 1_555
H5_3 C5_3 1_555 1_555
C6_3 C3_3 1_555 1_555
H6_3 C6_3 1_555 1_555
C7_3 C6_3 1_555 1_555
H7_3 C7_3 1_555 1_555
C8_3 C7_3 1_555 1_555
C9_3 C8_3 1_555 1_555
H8_3 C9_3 1_555 1_555
C10_3 C9_3 1_555 1_555
H9_3 C10_3 1_555 1_555
C11_3 N2_2 1_555 1_555
H10_3 C11_3 1_555 1_555
C12_3 C8_3 1_555 1_555
H11_3 C12_3 1_555 1_555
Ni7 N2_2 1_555 1_555
N3_3 C21_3 1_555 1_555
N6_2 C30_3 1_555 1_555
H16_3 O5_4 1_555 1_555
H17_3 O14_4 1_555 1_555
H18_3 O14_4 1_555 1_555
C21_3 H19_3 1_555 1_555
C22_3 C21_3 1_555 1_555
H20_3 C22_3 1_555 1_555
C23_3 C22_3 1_555 1_555
C24_3 C23_3 1_555 1_555
H21_3 C24_3 1_555 1_555
C25_3 N3_3 1_555 1_555
H22_3 C25_3 1_555 1_555
C26_3 C6_3 1_555 1_555
H23_3 C26_3 1_555 1_555
C27_3 C7_3 1_555 1_555
H24_3 C27_3 1_555 1_555
C28_3 C27_3 1_555 1_555
C29_3 C28_3 1_555 1_555
H25_3 C29_3 1_555 1_555
C30_3 C29_3 1_555 1_555
H26_3 C30_3 1_555 1_555
C31_3 N6_2 1_555 1_555
H27_3 C31_3 1_555 1_555
C32_3 C28_3 1_555 1_555
H28_3 C32_3 1_555 1_555
C4_3 C5_3 1_555 1_555
C11_3 C12_3 1_555 1_555
C23_3 C26_3 1_555 1_555
C24_3 C25_3 1_555 1_555
C26_3 C27_3 1_555 1_555
C31_3 C32_3 1_555 1_555
O2_6 C19_6 1_555 1_555
O3_6 C20_6 1_555 1_555
O4_6 C20_6 1_555 1_555
C13_6 C14_6 1_555 1_555
C14_6 H12_6 1_555 1_555
C15_6 C14_6 1_555 1_555
H13_6 C15_6 1_555 1_555
C16_6 C15_6 1_555 1_555
H14_6 C16_6 1_555 1_555
C17_6 C16_6 1_555 1_555
C18_6 C13_6 1_555 1_555
H15_6 C18_6 1_555 1_555
C19_6 O6_3 1_555 1_555
C20_6 C17_6 1_555 1_555
Ni5_4 O2_6 1_555 1_555
Ni5_6 O4_6 1_555 1_555
O7_6 Ni5_4 1_555 1_555
O10_6 C40_6 1_555 1_555
O13_6 C40_6 1_555 1_555
C33_6 C34_6 1_555 1_555
C34_6 H29_6 1_555 1_555
C35_6 C34_6 1_555 1_555
H30_6 C35_6 1_555 1_555
C36_6 C35_6 1_555 1_555
H31_6 C36_6 1_555 1_555
C37_6 C36_6 1_555 1_555
C38_6 C33_6 1_555 1_555
H32_6 C38_6 1_555 1_555
C39_6 O7_6 1_555 1_555
C40_6 C37_6 1_555 1_555
C13_6 C19_6 1_555 1_555
C17_6 C18_6 1_555 1_555
O9_3 C39_6 1_555 1_555
C33_6 C39_6 1_555 1_555
C37_6 C38_6 1_555 1_555
Ni7_4 N4_3 1_555 1_555
N4_3 C30_4 1_555 1_555
H17_4 O14_6 1_555 1_555
H26_4 C30_4 1_555 1_555
H18_4 O14_7 1_555 1_555
Ni5_6 N1_4 1_555 1_555
N1_4 C1_4 1_555 1_555
N5_3 C10_4 1_555 1_555
O1_4 Ni5_6 1_555 1_555
O2_7 C19_7 1_555 1_555
O3_7 C20_7 1_555 1_555
O12 C20_7 1_555 1_555
O5_5 Ni5_6 1_555 1_555
H1_4 O5_5 1_555 1_555
C1_4 H2_4 1_555 1_555
C2_4 C1_4 1_555 1_555
H3_4 C2_4 1_555 1_555
C3_4 C2_4 1_555 1_555
C4_4 C3_4 1_555 1_555
H4_4 C4_4 1_555 1_555
C5_4 N1_4 1_555 1_555
H5_4 C5_4 1_555 1_555
C6_4 C3_4 1_555 1_555
H6_4 C6_4 1_555 1_555
C7_4 C6_4 1_555 1_555
H7_4 C7_4 1_555 1_555
C8_4 C7_4 1_555 1_555
C9_4 C8_4 1_555 1_555
H8_4 C9_4 1_555 1_555
C10_4 C9_4 1_555 1_555
H9_4 C10_4 1_555 1_555
C11_4 N5_3 1_555 1_555
H10_4 C11_4 1_555 1_555
C12_4 C8_4 1_555 1_555
H11_4 C12_4 1_555 1_555
C13_7 C14_7 1_555 1_555
C14_7 H12_7 1_555 1_555
C15_7 C14_7 1_555 1_555
H13_7 C15_7 1_555 1_555
C16_7 C15_7 1_555 1_555
H14_7 C16_7 1_555 1_555
C17_7 C16_7 1_555 1_555
C18_7 C13_7 1_555 1_555
H15_7 C18_7 1_555 1_555
C19_7 O1_4 1_555 1_555
C20_7 C17_7 1_555 1_555
Ni6 N3_4 1_555 1_555
Ni5_5 O2_7 1_555 1_555
N3_4 C21_4 1_555 1_555
N5_4 Ni5_6 1_555 1_555
O6_4 Ni6 1_555 1_555
O7_7 Ni5_5 1_555 1_555
O8_4 Ni5_6 1_555 1_555
O10_7 C40_7 1_555 1_555
O11 C40_7 1_555 1_555
O14_8 Ni6 1_555 1_555
H16_4 O5_5 1_555 1_555
C21_4 H19_4 1_555 1_555
C22_4 C21_4 1_555 1_555
H20_4 C22_4 1_555 1_555
C23_4 C22_4 1_555 1_555
C24_4 C23_4 1_555 1_555
H21_4 C24_4 1_555 1_555
C25_4 N3_4 1_555 1_555
H22_4 C25_4 1_555 1_555
C26_4 C6_4 1_555 1_555
H23_4 C26_4 1_555 1_555
C27_4 C7_4 1_555 1_555
H24_4 C27_4 1_555 1_555
C28_4 C27_4 1_555 1_555
C29_4 C28_4 1_555 1_555
H25_4 C29_4 1_555 1_555
H27_4 C31_4 1_555 1_555
C32_4 C28_4 1_555 1_555
H28_4 C32_4 1_555 1_555
C33_7 C34_7 1_555 1_555
C34_7 H29_7 1_555 1_555
C35_7 C34_7 1_555 1_555
H30_7 C35_7 1_555 1_555
C36_7 C35_7 1_555 1_555
H31_7 C36_7 1_555 1_555
C37_7 C36_7 1_555 1_555
C38_7 C33_7 1_555 1_555
H32_7 C38_7 1_555 1_555
C39_7 O7_7 1_555 1_555
C40_7 C37_7 1_555 1_555
O5_5 Ni5_5 1_555 1_555
C4_4 C5_4 1_555 1_555
C11_4 C12_4 1_555 1_555
C13_7 C19_7 1_555 1_555
C17_7 C18_7 1_555 1_555
O8_4 C39_7 1_555 1_555
C23_4 C26_4 1_555 1_555
C24_4 C25_4 1_555 1_555
C26_4 C27_4 1_555 1_555
C31_4 C32_4 1_555 1_555
C33_7 C39_7 1_555 1_555
C37_7 C38_7 1_555 1_555
Ni4 O13_7 1_555 1_555
O7_8 Ni3 1_555 1_555
O10_8 C40_8 1_555 1_555
O13_7 C40_8 1_555 1_555
H32_8 C38_8 1_555 1_555
C40_8 C37_8 1_555 1_555
O14_5 Ni3 1_555 1_555
C37_8 C38_8 1_555 1_555
O2_8 C19_8 1_555 1_555
C13_8 C14_8 1_555 1_555
C14_8 H12_8 1_555 1_555
C15_8 C14_8 1_555 1_555
H13_8 C15_8 1_555 1_555
C16_8 C15_8 1_555 1_555
H14_8 C16_8 1_555 1_555
C13_8 C19_8 1_555 1_555
C33_8 C34_8 1_555 1_555
C34_8 H29_8 1_555 1_555
C35_8 C34_8 1_555 1_555
H30_8 C35_8 1_555 1_555
C36_8 C35_8 1_555 1_555
H31_8 C36_8 1_555 1_555
O9_4 C39_8 1_555 1_555
C33_8 C39_8 1_555 1_555
O3_8 C20_8 1_555 1_555
O4_7 C20_8 1_555 1_555
H15_8 C18_8 1_555 1_555
C20_8 C17_8 1_555 1_555
Ni4_2 O4_7 1_555 1_555
C17_8 C18_8 1_555 1_555
Ni5 N4_4 1_555 1_555
N3_5 C21_5 1_555 1_555
N4_4 C30_5 1_555 1_555
C22_5 C21_5 1_555 1_555
C23_5 C22_5 1_555 1_555
C24_5 C23_5 1_555 1_555
H21_5 C24_5 1_555 1_555
C25_5 N3_5 1_555 1_555
H22_5 C25_5 1_555 1_555
H24_5 C27_5 1_555 1_555
C28_5 C27_5 1_555 1_555
C29_5 C28_5 1_555 1_555
H25_5 C29_5 1_555 1_555
C30_5 C29_5 1_555 1_555
H26_5 C30_5 1_555 1_555
C23_5 C26_5 1_555 1_555
C24_5 C25_5 1_555 1_555
C26_5 C27_5 1_555 1_555
N5_5 Ni5_4 1_555 1_555
N1_5 C1_5 1_555 1_555
N5_2 C10_5 1_555 1_555
C2_5 C1_5 1_555 1_555
C3_5 C2_5 1_555 1_555
C4_5 C3_5 1_555 1_555
H4_5 C4_5 1_555 1_555
C5_5 N1_5 1_555 1_555
H5_5 C5_5 1_555 1_555
C6_5 C3_5 1_555 1_555
C7_5 C6_5 1_555 1_555
H7_5 C7_5 1_555 1_555
C8_5 C7_5 1_555 1_555
C9_5 C8_5 1_555 1_555
H8_5 C9_5 1_555 1_555
C10_5 C9_5 1_555 1_555
H9_5 C10_5 1_555 1_555
C4_5 C5_5 1_555 1_555
Ni3 N1_6 1_555 1_555
N1_6 C1_6 1_555 1_555
C1_6 H2_5 1_555 1_555
C2_6 C1_6 1_555 1_555
H3_5 C2_6 1_555 1_555
C3_6 C2_6 1_555 1_555
C4_6 C3_6 1_555 1_555
H4_6 C4_6 1_555 1_555
C5_6 N1_6 1_555 1_555
H5_6 C5_6 1_555 1_555
C6_6 C3_6 1_555 1_555
H6_5 C6_6 1_555 1_555
C7_6 C6_6 1_555 1_555
H7_6 C7_6 1_555 1_555
C8_6 C7_6 1_555 1_555
C9_6 C8_6 1_555 1_555
H8_6 C9_6 1_555 1_555
H10_5 C11_5 1_555 1_555
C12_5 C8_6 1_555 1_555
H11_5 C12_5 1_555 1_555
Ni5_5 N3_6 1_555 1_555
N3_6 C21_6 1_555 1_555
N6_3 C30_6 1_555 1_555
N6_4 Ni5_5 1_555 1_555
C21_6 H19_5 1_555 1_555
C22_6 C21_6 1_555 1_555
H20_5 C22_6 1_555 1_555
C23_6 C22_6 1_555 1_555
C24_6 C23_6 1_555 1_555
H21_6 C24_6 1_555 1_555
C25_6 N3_6 1_555 1_555
H22_6 C25_6 1_555 1_555
C26_6 C6_6 1_555 1_555
H23_5 C26_6 1_555 1_555
C27_6 C7_6 1_555 1_555
H24_6 C27_6 1_555 1_555
C28_6 C27_6 1_555 1_555
C29_6 C28_6 1_555 1_555
H25_6 C29_6 1_555 1_555
C30_6 C29_6 1_555 1_555
H26_6 C30_6 1_555 1_555
C31_5 N6_3 1_555 1_555
H27_5 C31_5 1_555 1_555
C32_5 C28_6 1_555 1_555
H28_5 C32_5 1_555 1_555
C4_6 C5_6 1_555 1_555
C11_5 C12_5 1_555 1_555
C23_6 C26_6 1_555 1_555
C24_6 C25_6 1_555 1_555
C26_6 C27_6 1_555 1_555
C31_5 C32_5 1_555 1_555
N5_5 C10_6 1_555 1_555
H9_6 C10_6 1_555 1_555
Ni4 N3_7 1_555 1_555
N3_7 C21_7 1_555 1_555
N6_4 C30_7 1_555 1_555
C22_7 C21_7 1_555 1_555
C23_7 C22_7 1_555 1_555
C24_7 C23_7 1_555 1_555
H21_7 C24_7 1_555 1_555
C25_7 N3_7 1_555 1_555
H22_7 C25_7 1_555 1_555
H23_6 C26_7 1_555 1_555
H24_7 C27_7 1_555 1_555
C28_7 C27_7 1_555 1_555
C29_7 C28_7 1_555 1_555
H25_7 C29_7 1_555 1_555
C30_7 C29_7 1_555 1_555
H26_7 C30_7 1_555 1_555
C31_6 N6_4 1_555 1_555
H27_6 C31_6 1_555 1_555
C32_6 C28_7 1_555 1_555
H28_6 C32_6 1_555 1_555
C23_7 C26_7 1_555 1_555
C24_7 C25_7 1_555 1_555
C26_7 C27_7 1_555 1_555
C31_6 C32_6 1_555 1_555
Ni4_2 N1_7 1_555 1_555
N1_7 C1_7 1_555 1_555
N5_4 C10_7 1_555 1_555
C2_7 C1_7 1_555 1_555
C3_7 C2_7 1_555 1_555
C4_7 C3_7 1_555 1_555
H4_7 C4_7 1_555 1_555
C5_7 N1_7 1_555 1_555
H5_7 C5_7 1_555 1_555
C6_7 C3_7 1_555 1_555
H6_6 C6_7 1_555 1_555
C7_7 C6_7 1_555 1_555
H7_7 C7_7 1_555 1_555
C8_7 C7_7 1_555 1_555
C9_7 C8_7 1_555 1_555
H8_7 C9_7 1_555 1_555
C10_7 C9_7 1_555 1_555
H9_7 C10_7 1_555 1_555
C11_6 N5_4 1_555 1_555
H10_6 C11_6 1_555 1_555
C12_6 C8_7 1_555 1_555
H11_6 C12_6 1_555 1_555
N5_6 Ni4_2 1_555 1_555
C4_7 C5_7 1_555 1_555
C11_6 C12_6 1_555 1_555
Ni7 N1_8 1_555 1_555
N1_8 C1_8 1_555 1_555
C1_8 H2_7 1_555 1_555
C2_8 C1_8 1_555 1_555
H3_7 C2_8 1_555 1_555
C3_8 C2_8 1_555 1_555
C4_8 C3_8 1_555 1_555
H4_8 C4_8 1_555 1_555
C5_8 N1_8 1_555 1_555
H5_8 C5_8 1_555 1_555
C6_8 C3_8 1_555 1_555
H6_7 C6_8 1_555 1_555
C7_8 C6_8 1_555 1_555
H7_8 C7_8 1_555 1_555
C8_8 C7_8 1_555 1_555
C9_8 C8_8 1_555 1_555
H8_8 C9_8 1_555 1_555
H10_7 C11_7 1_555 1_555
C12_7 C8_8 1_555 1_555
H11_7 C12_7 1_555 1_555
Ni5 N3_8 1_555 1_555
N3_8 C21_8 1_555 1_555
N6 C30_8 1_555 1_555
C21_8 H19_7 1_555 1_555
C22_8 C21_8 1_555 1_555
H20_7 C22_8 1_555 1_555
C23_8 C22_8 1_555 1_555
C24_8 C23_8 1_555 1_555
H21_8 C24_8 1_555 1_555
C25_8 N3_8 1_555 1_555
H22_8 C25_8 1_555 1_555
C26_8 C6_8 1_555 1_555
H23_7 C26_8 1_555 1_555
C27_8 C7_8 1_555 1_555
H24_8 C27_8 1_555 1_555
C28_8 C27_8 1_555 1_555
C29_8 C28_8 1_555 1_555
H25_8 C29_8 1_555 1_555
C30_8 C29_8 1_555 1_555
H26_8 C30_8 1_555 1_555
C31_7 N6 1_555 1_555
H27_7 C31_7 1_555 1_555
C32_7 C28_8 1_555 1_555
H28_7 C32_7 1_555 1_555
C4_8 C5_8 1_555 1_555
C11_7 C12_7 1_555 1_555
C23_8 C26_8 1_555 1_555
C24_8 C25_8 1_555 1_555
C26_8 C27_8 1_555 1_555
C31_7 C32_7 1_555 1_555
N5_6 C10_8 1_555 1_555
H9_8 C10_8 1_555 1_555
H27_8 C31_8 1_555 1_555
H28_8 C32_8 1_555 1_555
C31_8 C32_8 1_555 1_555
H10_8 C11_8 1_555 1_555
H11_8 C12_8 1_555 1_555
C11_8 C12_8 1_555 1_555

#END
