
###############################################################################
#
# This file contains modified crystal structure data generated from the
# MOF subset of the Cambridge Structural Database (CSD) v543 
# hosted by the Cambridge Crystallographic Data Centre (CCDC).
#
# This work is licensed under the Creative Commons
# Attribution-NonCommercial-ShareAlike 4.0 International License.
# To view a copy of this license, visit
# http://creativecommons.org/licenses/by-nc-sa/4.0/
# or send a letter to
# Creative Commons, PO Box 1866, Mountain View, CA 94042, USA.
#
# CIF created using the CSD Python API on 29 September 2022
# The structure has been converted into the P1 space group
# The structure has a 3D framework
# The original CSD entry KAMZUV is in the cubic crystal system
# The framework has been calculated to contain at least 10.0% void space
# The void calculation uses a probe of radius 1.32A, grid spacing 0.4
# H atom positions have been added when not included in the experimental data
#
###############################################################################

data_KAMZUV
_chemical_formula_moiety         '(C96 H192 N48 Zn14)n'
_symmetry_cell_setting           triclinic
_symmetry_space_group_name_H-M   'P 1'
_symmetry_Int_Tables_number      1
_space_group_name_Hall           'P 1'
loop_
_symmetry_equiv_pos_site_id
_symmetry_equiv_pos_as_xyz
1 x,y,z
_cell_length_a                   17.107270(13)
_cell_length_b                   17.107270(13)
_cell_length_c                   17.107270(13)
_cell_angle_alpha                90
_cell_angle_beta                 90
_cell_angle_gamma                90
_cell_volume                     5006.59
loop_
_atom_site_label
_atom_site_type_symbol
_atom_site_fract_x
_atom_site_fract_y
_atom_site_fract_z
_atom_site_U_iso_or_equiv
_atom_site_thermal_displace_type
Zn1 Zn 0.50000 0.00000 0.75000 0.0108 Uiso
C2 C 0.609840(99) 0.10942(11) 0.666110(88) 0.0146 Uiso
N1 N 0.588350(87) 0.033230(90) 0.681060(96) 0.0146 Uiso
H1 H 0.58863 0.15486 0.69119 0.0175 Uiso
C4 C 0.666110(88) 0.10942(11) 0.609840(99) 0.0146 Uiso
N2 N 0.681060(96) 0.033230(90) 0.588350(87) 0.0146 Uiso
H2 H 0.69119 0.15486 0.58863 0.0175 Uiso
C5 C 0.36678(13) 0.00868(15) 0.63322(13) 0.0146 Uiso
C7 C 0.37541(15) 0.09567(14) 0.62459(15) 0.0146 Uiso
Zn2 Zn 0.75000 0.00000 0.50000 0.0108 Uiso
Zn3 Zn 0.25000 0.00000 0.50000 0.0108 Uiso
N6 N 0.466770(90) 0.088350(87) 0.818940(96) 0.0146 Uiso
H8 H 0.434119 0.109236 0.60406 . .
H9 H 0.33273 0.117159 0.582532 . .
H10 H 0.365635 0.123655 0.680924 . .
Zn1_2 Zn 0.50000 1.00000 0.75000 0.0108 Uiso
C1 C 0.63322(13) 0.99132(15) 0.63322(13) 0.0146 Uiso
C3 C 0.62459(15) 0.90433(14) 0.62459(15) 0.0146 Uiso
C6 C 0.390160(99) 0.89058(11) 0.666110(88) 0.0146 Uiso
N3 N 0.411650(87) 0.966770(90) 0.681060(96) 0.0146 Uiso
H3 H 0.41137 0.84514 0.69119 0.0175 Uiso
C8 C 0.333890(88) 0.89058(11) 0.609840(99) 0.0146 Uiso
N4 N 0.318940(96) 0.966770(90) 0.588350(87) 0.0146 Uiso
H4 H 0.30881 0.84514 0.58863 0.0175 Uiso
Zn2_2 Zn 0.75000 1.00000 0.50000 0.0108 Uiso
Zn3_2 Zn 0.25000 1.00000 0.50000 0.0108 Uiso
N5 N 0.533230(90) 0.911650(87) 0.818940(96) 0.0146 Uiso
H5 H 0.565881 0.890764 0.60406 . .
H6 H 0.66727 0.882841 0.582532 . .
H7 H 0.634365 0.876345 0.680924 . .
Zn1_3 Zn -0.00000 0.50000 0.25000 0.0108 Uiso
C1_2 C 0.13322(13) 0.49132(15) 0.13322(13) 0.0146 Uiso
C2_2 C 0.109840(99) 0.60942(11) 0.166110(88) 0.0146 Uiso
C3_2 C 0.12459(15) 0.40433(14) 0.12459(15) 0.0146 Uiso
N1_2 N 0.088350(87) 0.533230(90) 0.181060(96) 0.0146 Uiso
H1_2 H 0.08863 0.65486 0.19119 0.0175 Uiso
C4_2 C 0.166110(88) 0.60942(11) 0.109840(99) 0.0146 Uiso
N2_2 N 0.181060(96) 0.533230(90) 0.088350(87) 0.0146 Uiso
H2_2 H 0.19119 0.65486 0.08863 0.0175 Uiso
Zn2_3 Zn 0.25000 0.50000 0.00000 0.0108 Uiso
N5_2 N 0.033230(90) 0.411650(87) 0.318940(96) 0.0146 Uiso
H5_2 H 0.0658812 0.390764 0.10406 . .
H6_2 H 0.16727 0.382841 0.082532 . .
H7_2 H 0.134365 0.376345 0.180924 . .
Zn2_4 Zn 0.25000 0.50000 1.00000 0.0108 Uiso
Zn1_4 Zn 1.00000 0.50000 0.25000 0.0108 Uiso
C5_2 C 0.86678(13) 0.50868(15) 0.13322(13) 0.0146 Uiso
C6_2 C 0.890160(99) 0.39058(11) 0.166110(88) 0.0146 Uiso
C7_2 C 0.87541(15) 0.59567(14) 0.12459(15) 0.0146 Uiso
N3_2 N 0.911650(87) 0.466770(90) 0.181060(96) 0.0146 Uiso
H3_2 H 0.91137 0.34514 0.19119 0.0175 Uiso
C8_2 C 0.833890(88) 0.39058(11) 0.109840(99) 0.0146 Uiso
N4_2 N 0.818940(96) 0.466770(90) 0.088350(87) 0.0146 Uiso
H4_2 H 0.80881 0.34514 0.08863 0.0175 Uiso
Zn3_3 Zn 0.75000 0.50000 0.00000 0.0108 Uiso
N6_2 N 0.966770(90) 0.588350(87) 0.318940(96) 0.0146 Uiso
H8_2 H 0.934119 0.609236 0.10406 . .
H9_2 H 0.83273 0.617159 0.082532 . .
H10_2 H 0.865635 0.623655 0.180924 . .
Zn3_4 Zn 0.75000 0.50000 1.00000 0.0108 Uiso
Zn1_5 Zn 0.50000 0.00000 0.25000 0.0108 Uiso
C2_3 C 0.390160(99) 0.10942(11) 0.333890(88) 0.0146 Uiso
N1_3 N 0.411650(87) 0.033230(90) 0.318940(96) 0.0146 Uiso
H1_3 H 0.41137 0.15486 0.30881 0.0175 Uiso
C4_3 C 0.333890(88) 0.10942(11) 0.390160(99) 0.0146 Uiso
N2_3 N 0.318940(96) 0.033230(90) 0.411650(87) 0.0146 Uiso
H2_3 H 0.30881 0.15486 0.41137 0.0175 Uiso
C5_3 C 0.63322(13) 0.00868(15) 0.36678(13) 0.0146 Uiso
C7_3 C 0.62459(15) 0.09567(14) 0.37541(15) 0.0146 Uiso
N6_3 N 0.533230(90) 0.088350(87) 0.181060(96) 0.0146 Uiso
H8_3 H 0.565881 0.109236 0.39594 . .
H9_3 H 0.66727 0.117159 0.417468 . .
H10_3 H 0.634365 0.123655 0.319076 . .
Zn1_6 Zn 0.50000 1.00000 0.25000 0.0108 Uiso
C1_3 C 0.36678(13) 0.99132(15) 0.36678(13) 0.0146 Uiso
C3_3 C 0.37541(15) 0.90433(14) 0.37541(15) 0.0146 Uiso
C6_3 C 0.609840(99) 0.89058(11) 0.333890(88) 0.0146 Uiso
N3_3 N 0.588350(87) 0.966770(90) 0.318940(96) 0.0146 Uiso
H3_3 H 0.58863 0.84514 0.30881 0.0175 Uiso
C8_3 C 0.666110(88) 0.89058(11) 0.390160(99) 0.0146 Uiso
N4_3 N 0.681060(96) 0.966770(90) 0.411650(87) 0.0146 Uiso
H4_3 H 0.69119 0.84514 0.41137 0.0175 Uiso
N5_3 N 0.466770(90) 0.911650(87) 0.181060(96) 0.0146 Uiso
H5_3 H 0.434119 0.890764 0.39594 . .
H6_3 H 0.33273 0.882841 0.417468 . .
H7_3 H 0.365635 0.876345 0.319076 . .
Zn1_7 Zn 0.00000 0.50000 0.75000 0.0108 Uiso
C5_4 C 0.13322(13) 0.50868(15) 0.86678(13) 0.0146 Uiso
C6_4 C 0.109840(99) 0.39058(11) 0.833890(88) 0.0146 Uiso
C7_4 C 0.12459(15) 0.59567(14) 0.87541(15) 0.0146 Uiso
N3_4 N 0.088350(87) 0.466770(90) 0.818940(96) 0.0146 Uiso
H3_4 H 0.08863 0.34514 0.80881 0.0175 Uiso
C8_4 C 0.166110(88) 0.39058(11) 0.890160(99) 0.0146 Uiso
N4_4 N 0.181060(96) 0.466770(90) 0.911650(87) 0.0146 Uiso
H4_4 H 0.19119 0.34514 0.91137 0.0175 Uiso
N6_4 N 0.033230(90) 0.588350(87) 0.681060(96) 0.0146 Uiso
H8_4 H 0.0658812 0.609236 0.89594 . .
H9_4 H 0.16727 0.617159 0.917468 . .
H10_4 H 0.134365 0.623655 0.819076 . .
Zn1_8 Zn 1.00000 0.50000 0.75000 0.0108 Uiso
C1_4 C 0.86678(13) 0.49132(15) 0.86678(13) 0.0146 Uiso
C2_4 C 0.890160(99) 0.60942(11) 0.833890(88) 0.0146 Uiso
C3_4 C 0.87541(15) 0.40433(14) 0.87541(15) 0.0146 Uiso
N1_4 N 0.911650(87) 0.533230(90) 0.818940(96) 0.0146 Uiso
H1_4 H 0.91137 0.65486 0.80881 0.0175 Uiso
C4_4 C 0.833890(88) 0.60942(11) 0.890160(99) 0.0146 Uiso
N2_4 N 0.818940(96) 0.533230(90) 0.911650(87) 0.0146 Uiso
H2_4 H 0.80881 0.65486 0.91137 0.0175 Uiso
N5_4 N 0.966770(90) 0.411650(87) 0.681060(96) 0.0146 Uiso
H5_4 H 0.934119 0.390764 0.89594 . .
H6_4 H 0.83273 0.382841 0.917468 . .
H7_4 H 0.865635 0.376345 0.819076 . .
C2_5 C 0.10942(11) 0.390160(99) 0.333890(88) 0.0146 Uiso
H1_5 H 0.15486 0.41137 0.30881 0.0175 Uiso
C4_5 C 0.10942(11) 0.333890(88) 0.390160(99) 0.0146 Uiso
N2_5 N 0.033230(90) 0.318940(96) 0.411650(87) 0.0146 Uiso
H2_5 H 0.15486 0.30881 0.41137 0.0175 Uiso
C5_5 C 0.00868(15) 0.63322(13) 0.36678(13) 0.0146 Uiso
C7_5 C 0.09567(14) 0.62459(15) 0.37541(15) 0.0146 Uiso
Zn2_5 Zn 0.00000 0.25000 0.50000 0.0108 Uiso
Zn3_5 Zn 0.00000 0.75000 0.50000 0.0108 Uiso
H8_5 H 0.109236 0.565881 0.39594 . .
H9_5 H 0.117159 0.66727 0.417468 . .
H10_5 H 0.123655 0.634365 0.319076 . .
C1_5 C 0.99132(15) 0.36678(13) 0.36678(13) 0.0146 Uiso
C3_5 C 0.90433(14) 0.37541(15) 0.37541(15) 0.0146 Uiso
C6_5 C 0.89058(11) 0.609840(99) 0.333890(88) 0.0146 Uiso
H3_5 H 0.84514 0.58863 0.30881 0.0175 Uiso
C8_5 C 0.89058(11) 0.666110(88) 0.390160(99) 0.0146 Uiso
N4_5 N 0.966770(90) 0.681060(96) 0.411650(87) 0.0146 Uiso
H4_5 H 0.84514 0.69119 0.41137 0.0175 Uiso
Zn2_6 Zn 1.00000 0.25000 0.50000 0.0108 Uiso
Zn3_6 Zn 1.00000 0.75000 0.50000 0.0108 Uiso
H5_5 H 0.890764 0.434119 0.39594 . .
H6_5 H 0.882841 0.33273 0.417468 . .
H7_5 H 0.876345 0.365635 0.319076 . .
Zn3_7 Zn 0.50000 0.25000 0.00000 0.0108 Uiso
C5_6 C 0.50868(15) 0.13322(13) 0.86678(13) 0.0146 Uiso
C6_6 C 0.39058(11) 0.109840(99) 0.833890(88) 0.0146 Uiso
C7_6 C 0.59567(14) 0.12459(15) 0.87541(15) 0.0146 Uiso
H3_6 H 0.34514 0.08863 0.80881 0.0175 Uiso
C8_6 C 0.39058(11) 0.166110(88) 0.890160(99) 0.0146 Uiso
N4_6 N 0.466770(90) 0.181060(96) 0.911650(87) 0.0146 Uiso
H4_6 H 0.34514 0.19119 0.91137 0.0175 Uiso
Zn3_8 Zn 0.50000 0.25000 1.00000 0.0108 Uiso
H8_6 H 0.609236 0.0658812 0.89594 . .
H9_6 H 0.617159 0.16727 0.917468 . .
H10_6 H 0.623655 0.134365 0.819076 . .
Zn2_7 Zn 0.50000 0.75000 0.00000 0.0108 Uiso
C1_6 C 0.49132(15) 0.86678(13) 0.86678(13) 0.0146 Uiso
C2_6 C 0.60942(11) 0.890160(99) 0.833890(88) 0.0146 Uiso
C3_6 C 0.40433(14) 0.87541(15) 0.87541(15) 0.0146 Uiso
H1_6 H 0.65486 0.91137 0.80881 0.0175 Uiso
C4_6 C 0.60942(11) 0.833890(88) 0.890160(99) 0.0146 Uiso
N2_6 N 0.533230(90) 0.818940(96) 0.911650(87) 0.0146 Uiso
H2_6 H 0.65486 0.80881 0.91137 0.0175 Uiso
Zn2_8 Zn 0.50000 0.75000 1.00000 0.0108 Uiso
H5_6 H 0.390764 0.934119 0.89594 . .
H6_6 H 0.382841 0.83273 0.917468 . .
H7_6 H 0.376345 0.865635 0.819076 . .
C1_7 C 0.00868(15) 0.36678(13) 0.63322(13) 0.0146 Uiso
C3_7 C 0.09567(14) 0.37541(15) 0.62459(15) 0.0146 Uiso
C6_7 C 0.10942(11) 0.609840(99) 0.666110(88) 0.0146 Uiso
H3_7 H 0.15486 0.58863 0.69119 0.0175 Uiso
C8_7 C 0.10942(11) 0.666110(88) 0.609840(99) 0.0146 Uiso
N4_7 N 0.033230(90) 0.681060(96) 0.588350(87) 0.0146 Uiso
H4_7 H 0.15486 0.69119 0.58863 0.0175 Uiso
H5_7 H 0.109236 0.434119 0.60406 . .
H6_7 H 0.117159 0.33273 0.582532 . .
H7_7 H 0.123655 0.365635 0.680924 . .
C2_7 C 0.89058(11) 0.390160(99) 0.666110(88) 0.0146 Uiso
H1_7 H 0.84514 0.41137 0.69119 0.0175 Uiso
C4_7 C 0.89058(11) 0.333890(88) 0.609840(99) 0.0146 Uiso
N2_7 N 0.966770(90) 0.318940(96) 0.588350(87) 0.0146 Uiso
H2_7 H 0.84514 0.30881 0.58863 0.0175 Uiso
C5_7 C 0.99132(15) 0.63322(13) 0.63322(13) 0.0146 Uiso
C7_7 C 0.90433(14) 0.62459(15) 0.62459(15) 0.0146 Uiso
H8_7 H 0.890764 0.565881 0.60406 . .
H9_7 H 0.882841 0.66727 0.582532 . .
H10_7 H 0.876345 0.634365 0.680924 . .
C5_8 C 0.49132(15) 0.13322(13) 0.13322(13) 0.0146 Uiso
C6_8 C 0.60942(11) 0.109840(99) 0.166110(88) 0.0146 Uiso
C7_8 C 0.40433(14) 0.12459(15) 0.12459(15) 0.0146 Uiso
H3_8 H 0.65486 0.08863 0.19119 0.0175 Uiso
C8_8 C 0.60942(11) 0.166110(88) 0.109840(99) 0.0146 Uiso
N4_8 N 0.533230(90) 0.181060(96) 0.088350(87) 0.0146 Uiso
H4_8 H 0.65486 0.19119 0.08863 0.0175 Uiso
H8_8 H 0.390764 0.0658812 0.10406 . .
H9_8 H 0.382841 0.16727 0.082532 . .
H10_8 H 0.376345 0.134365 0.180924 . .
C1_8 C 0.50868(15) 0.86678(13) 0.13322(13) 0.0146 Uiso
C2_8 C 0.39058(11) 0.890160(99) 0.166110(88) 0.0146 Uiso
C3_8 C 0.59567(14) 0.87541(15) 0.12459(15) 0.0146 Uiso
H1_8 H 0.34514 0.91137 0.19119 0.0175 Uiso
C4_8 C 0.39058(11) 0.833890(88) 0.109840(99) 0.0146 Uiso
N2_8 N 0.466770(90) 0.818940(96) 0.088350(87) 0.0146 Uiso
H2_8 H 0.34514 0.80881 0.08863 0.0175 Uiso
H5_8 H 0.609236 0.934119 0.10406 . .
H6_8 H 0.617159 0.83273 0.082532 . .
H7_8 H 0.623655 0.865635 0.180924 . .
C2_9 C 0.666110(88) 0.609840(99) 0.10942(11) 0.0146 Uiso
N1_5 N 0.681060(96) 0.588350(87) 0.033230(90) 0.0146 Uiso
H1_9 H 0.69119 0.58863 0.15486 0.0175 Uiso
C4_9 C 0.609840(99) 0.666110(88) 0.10942(11) 0.0146 Uiso
N2_9 N 0.588350(87) 0.681060(96) 0.033230(90) 0.0146 Uiso
H2_9 H 0.58863 0.69119 0.15486 0.0175 Uiso
C5_9 C 0.63322(13) 0.36678(13) 0.00868(15) 0.0146 Uiso
C7_9 C 0.62459(15) 0.37541(15) 0.09567(14) 0.0146 Uiso
H8_9 H 0.60406 0.434119 0.109236 . .
H9_9 H 0.582532 0.33273 0.117159 . .
H10_9 H 0.680924 0.365635 0.123655 . .
C1_9 C 0.63322(13) 0.63322(13) 0.99132(15) 0.0146 Uiso
C3_9 C 0.62459(15) 0.62459(15) 0.90433(14) 0.0146 Uiso
C6_9 C 0.666110(88) 0.390160(99) 0.89058(11) 0.0146 Uiso
N3_5 N 0.681060(96) 0.411650(87) 0.966770(90) 0.0146 Uiso
H3_9 H 0.69119 0.41137 0.84514 0.0175 Uiso
C8_9 C 0.609840(99) 0.333890(88) 0.89058(11) 0.0146 Uiso
N4_9 N 0.588350(87) 0.318940(96) 0.966770(90) 0.0146 Uiso
H4_9 H 0.58863 0.30881 0.84514 0.0175 Uiso
H5_9 H 0.60406 0.565881 0.890764 . .
H6_9 H 0.582532 0.66727 0.882841 . .
H7_9 H 0.680924 0.634365 0.876345 . .
N6_5 N 0.088350(87) 0.818940(96) 0.466770(90) 0.0146 Uiso
H8_10 H 0.109236 0.60406 0.434119 . .
H9_10 H 0.117159 0.582532 0.33273 . .
H10_10 H 0.123655 0.680924 0.365635 . .
N5_5 N 0.911650(87) 0.818940(96) 0.533230(90) 0.0146 Uiso
H5_10 H 0.890764 0.60406 0.565881 . .
H6_10 H 0.882841 0.582532 0.66727 . .
H7_10 H 0.876345 0.680924 0.634365 . .
N6_6 N 0.818940(96) 0.088350(87) 0.466770(90) 0.0146 Uiso
H8_11 H 0.60406 0.109236 0.434119 . .
H9_11 H 0.582532 0.117159 0.33273 . .
H10_11 H 0.680924 0.123655 0.365635 . .
N5_6 N 0.818940(96) 0.911650(87) 0.533230(90) 0.0146 Uiso
H5_11 H 0.60406 0.890764 0.565881 . .
H6_11 H 0.582532 0.882841 0.66727 . .
H7_11 H 0.680924 0.876345 0.634365 . .
C5_10 C 0.36678(13) 0.63322(13) 0.00868(15) 0.0146 Uiso
C7_10 C 0.37541(15) 0.62459(15) 0.09567(14) 0.0146 Uiso
H8_12 H 0.434119 0.60406 0.109236 . .
H9_12 H 0.33273 0.582532 0.117159 . .
H10_12 H 0.365635 0.680924 0.123655 . .
C6_10 C 0.390160(99) 0.666110(88) 0.89058(11) 0.0146 Uiso
N3_6 N 0.411650(87) 0.681060(96) 0.966770(90) 0.0146 Uiso
H3_10 H 0.41137 0.69119 0.84514 0.0175 Uiso
C8_10 C 0.333890(88) 0.609840(99) 0.89058(11) 0.0146 Uiso
N4_10 N 0.318940(96) 0.588350(87) 0.966770(90) 0.0146 Uiso
H4_10 H 0.30881 0.58863 0.84514 0.0175 Uiso
H5_12 H 0.565881 0.60406 0.890764 . .
H6_12 H 0.66727 0.582532 0.882841 . .
H7_12 H 0.634365 0.680924 0.876345 . .
N5_7 N 0.318940(96) 0.411650(87) 0.033230(90) 0.0146 Uiso
H5_13 H 0.10406 0.390764 0.0658812 . .
H6_13 H 0.082532 0.382841 0.16727 . .
H7_13 H 0.180924 0.376345 0.134365 . .
H8_13 H 0.10406 0.609236 0.934119 . .
H9_13 H 0.082532 0.617159 0.83273 . .
H10_13 H 0.180924 0.623655 0.865635 . .
C1_10 C 0.13322(13) 0.13322(13) 0.49132(15) 0.0146 Uiso
C2_10 C 0.109840(99) 0.166110(88) 0.60942(11) 0.0146 Uiso
C3_10 C 0.12459(15) 0.12459(15) 0.40433(14) 0.0146 Uiso
N1_6 N 0.088350(87) 0.181060(96) 0.533230(90) 0.0146 Uiso
H1_10 H 0.08863 0.19119 0.65486 0.0175 Uiso
C4_10 C 0.166110(88) 0.109840(99) 0.60942(11) 0.0146 Uiso
N2_10 N 0.181060(96) 0.088350(87) 0.533230(90) 0.0146 Uiso
H2_10 H 0.19119 0.08863 0.65486 0.0175 Uiso
H5_14 H 0.0658812 0.10406 0.390764 . .
H6_14 H 0.16727 0.082532 0.382841 . .
H7_14 H 0.134365 0.180924 0.376345 . .
C5_11 C 0.86678(13) 0.13322(13) 0.50868(15) 0.0146 Uiso
C6_11 C 0.890160(99) 0.166110(88) 0.39058(11) 0.0146 Uiso
C7_11 C 0.87541(15) 0.12459(15) 0.59567(14) 0.0146 Uiso
N3_7 N 0.911650(87) 0.181060(96) 0.466770(90) 0.0146 Uiso
H3_11 H 0.91137 0.19119 0.34514 0.0175 Uiso
C8_11 C 0.833890(88) 0.109840(99) 0.39058(11) 0.0146 Uiso
H4_11 H 0.80881 0.08863 0.34514 0.0175 Uiso
H8_14 H 0.934119 0.10406 0.609236 . .
H9_14 H 0.83273 0.082532 0.617159 . .
H10_14 H 0.865635 0.180924 0.623655 . .
C2_11 C 0.333890(88) 0.390160(99) 0.10942(11) 0.0146 Uiso
H1_11 H 0.30881 0.41137 0.15486 0.0175 Uiso
C4_11 C 0.390160(99) 0.333890(88) 0.10942(11) 0.0146 Uiso
N2_11 N 0.411650(87) 0.318940(96) 0.033230(90) 0.0146 Uiso
H2_11 H 0.41137 0.30881 0.15486 0.0175 Uiso
H8_15 H 0.39594 0.565881 0.109236 . .
H9_15 H 0.417468 0.66727 0.117159 . .
H10_15 H 0.319076 0.634365 0.123655 . .
C1_11 C 0.36678(13) 0.36678(13) 0.99132(15) 0.0146 Uiso
C3_11 C 0.37541(15) 0.37541(15) 0.90433(14) 0.0146 Uiso
H5_15 H 0.39594 0.434119 0.890764 . .
H6_15 H 0.417468 0.33273 0.882841 . .
H7_15 H 0.319076 0.365635 0.876345 . .
H8_16 H 0.109236 0.39594 0.565881 . .
H9_16 H 0.117159 0.417468 0.66727 . .
H10_16 H 0.123655 0.319076 0.634365 . .
H5_16 H 0.890764 0.39594 0.434119 . .
H6_16 H 0.882841 0.417468 0.33273 . .
H7_16 H 0.876345 0.319076 0.365635 . .
H5_17 H 0.10406 0.0658812 0.390764 . .
H6_17 H 0.082532 0.16727 0.382841 . .
H7_17 H 0.180924 0.134365 0.376345 . .
C5_12 C 0.13322(13) 0.86678(13) 0.50868(15) 0.0146 Uiso
C6_12 C 0.166110(88) 0.890160(99) 0.39058(11) 0.0146 Uiso
C7_12 C 0.12459(15) 0.87541(15) 0.59567(14) 0.0146 Uiso
N3_8 N 0.181060(96) 0.911650(87) 0.466770(90) 0.0146 Uiso
H3_12 H 0.19119 0.91137 0.34514 0.0175 Uiso
C8_12 C 0.109840(99) 0.833890(88) 0.39058(11) 0.0146 Uiso
H4_12 H 0.08863 0.80881 0.34514 0.0175 Uiso
H8_17 H 0.10406 0.934119 0.609236 . .
H9_17 H 0.082532 0.83273 0.617159 . .
H10_17 H 0.180924 0.865635 0.623655 . .
H8_18 H 0.89594 0.0658812 0.609236 . .
H9_18 H 0.917468 0.16727 0.617159 . .
H10_18 H 0.819076 0.134365 0.623655 . .
C1_12 C 0.86678(13) 0.86678(13) 0.49132(15) 0.0146 Uiso
C2_12 C 0.833890(88) 0.890160(99) 0.60942(11) 0.0146 Uiso
C3_12 C 0.87541(15) 0.87541(15) 0.40433(14) 0.0146 Uiso
H1_12 H 0.80881 0.91137 0.65486 0.0175 Uiso
C4_12 C 0.890160(99) 0.833890(88) 0.60942(11) 0.0146 Uiso
H2_12 H 0.91137 0.80881 0.65486 0.0175 Uiso
H5_18 H 0.89594 0.934119 0.390764 . .
H6_18 H 0.917468 0.83273 0.382841 . .
H7_18 H 0.819076 0.865635 0.376345 . .
H5_19 H 0.390764 0.10406 0.0658812 . .
H6_19 H 0.382841 0.082532 0.16727 . .
H7_19 H 0.376345 0.180924 0.134365 . .
H8_19 H 0.609236 0.10406 0.934119 . .
H9_19 H 0.617159 0.082532 0.83273 . .
H10_19 H 0.623655 0.180924 0.865635 . .
H8_20 H 0.609236 0.89594 0.0658812 . .
H9_20 H 0.617159 0.917468 0.16727 . .
H10_20 H 0.623655 0.819076 0.134365 . .
H5_20 H 0.390764 0.89594 0.934119 . .
H6_20 H 0.382841 0.917468 0.83273 . .
H7_20 H 0.376345 0.819076 0.865635 . .
H5_21 H 0.565881 0.39594 0.109236 . .
H6_21 H 0.66727 0.417468 0.117159 . .
H7_21 H 0.634365 0.319076 0.123655 . .
H8_21 H 0.434119 0.39594 0.890764 . .
H9_21 H 0.33273 0.417468 0.882841 . .
H10_21 H 0.365635 0.319076 0.876345 . .
H5_22 H 0.39594 0.109236 0.565881 . .
H6_22 H 0.417468 0.117159 0.66727 . .
H7_22 H 0.319076 0.123655 0.634365 . .
H8_22 H 0.39594 0.890764 0.434119 . .
H9_22 H 0.417468 0.882841 0.33273 . .
H10_22 H 0.319076 0.876345 0.365635 . .
H5_23 H 0.0658812 0.89594 0.609236 . .
H6_23 H 0.16727 0.917468 0.617159 . .
H7_23 H 0.134365 0.819076 0.623655 . .
H8_23 H 0.934119 0.89594 0.390764 . .
H9_23 H 0.83273 0.917468 0.382841 . .
H10_23 H 0.865635 0.819076 0.376345 . .
H5_24 H 0.89594 0.609236 0.0658812 . .
H6_24 H 0.917468 0.617159 0.16727 . .
H7_24 H 0.819076 0.623655 0.134365 . .
H8_24 H 0.89594 0.390764 0.934119 . .
H9_24 H 0.917468 0.382841 0.83273 . .
H10_24 H 0.819076 0.376345 0.865635 . .
loop_
_geom_bond_atom_site_label_1
_geom_bond_atom_site_label_2
_geom_bond_site_symmetry_1
_geom_bond_site_symmetry_2
Zn1 N1 1_555 1_555
C2 N1 1_555 1_555
H1 C2 1_555 1_555
C4 C2 1_555 1_555
H2 C4 1_555 1_555
C5 C7 1_555 1_555
Zn2 N2 1_555 1_555
N6 Zn1 1_555 1_555
C4 N2 1_555 1_555
C7 H8 1_555 1_555
C7 H9 1_555 1_555
C7 H10 1_555 1_555
C1 C3 1_555 1_555
C6 N3 1_555 1_555
N3 Zn1_2 1_555 1_555
H3 C6 1_555 1_555
C8 C6 1_555 1_555
H4 C8 1_555 1_555
Zn3_2 N4 1_555 1_555
N5 Zn1_2 1_555 1_555
C8 N4 1_555 1_555
C3 H5 1_555 1_555
C3 H6 1_555 1_555
C3 H7 1_555 1_555
Zn1_3 N1_2 1_555 1_555
C1_2 C3_2 1_555 1_555
C2_2 N1_2 1_555 1_555
N1_2 C1_2 1_555 1_555
H1_2 C2_2 1_555 1_555
C4_2 C2_2 1_555 1_555
N2_2 C1_2 1_555 1_555
H2_2 C4_2 1_555 1_555
Zn2_3 N2_2 1_555 1_555
N5_2 Zn1_3 1_555 1_555
C4_2 N2_2 1_555 1_555
C3_2 H5_2 1_555 1_555
C3_2 H6_2 1_555 1_555
C3_2 H7_2 1_555 1_555
C5_2 C7_2 1_555 1_555
C6_2 N3_2 1_555 1_555
N3_2 Zn1_4 1_555 1_555
H3_2 C6_2 1_555 1_555
C8_2 C6_2 1_555 1_555
N4_2 C5_2 1_555 1_555
H4_2 C8_2 1_555 1_555
Zn3_3 N4_2 1_555 1_555
N6_2 Zn1_4 1_555 1_555
C5_2 N3_2 1_555 1_555
C8_2 N4_2 1_555 1_555
C7_2 H8_2 1_555 1_555
C7_2 H9_2 1_555 1_555
C7_2 H10_2 1_555 1_555
Zn1_5 N1_3 1_555 1_555
C2_3 N1_3 1_555 1_555
H1_3 C2_3 1_555 1_555
C4_3 C2_3 1_555 1_555
H2_3 C4_3 1_555 1_555
C5_3 C7_3 1_555 1_555
Zn3 N2_3 1_555 1_555
N6_3 Zn1_5 1_555 1_555
C4_3 N2_3 1_555 1_555
C7_3 H8_3 1_555 1_555
C7_3 H9_3 1_555 1_555
C7_3 H10_3 1_555 1_555
C1_3 C3_3 1_555 1_555
C6_3 N3_3 1_555 1_555
N3_3 Zn1_6 1_555 1_555
H3_3 C6_3 1_555 1_555
C8_3 C6_3 1_555 1_555
H4_3 C8_3 1_555 1_555
Zn2_2 N4_3 1_555 1_555
N5_3 Zn1_6 1_555 1_555
C8_3 N4_3 1_555 1_555
C3_3 H5_3 1_555 1_555
C3_3 H6_3 1_555 1_555
C3_3 H7_3 1_555 1_555
C5_4 C7_4 1_555 1_555
C6_4 N3_4 1_555 1_555
N3_4 Zn1_7 1_555 1_555
H3_4 C6_4 1_555 1_555
C8_4 C6_4 1_555 1_555
N4_4 C5_4 1_555 1_555
H4_4 C8_4 1_555 1_555
Zn2_4 N4_4 1_555 1_555
N6_4 Zn1_7 1_555 1_555
C5_4 N3_4 1_555 1_555
C8_4 N4_4 1_555 1_555
C7_4 H8_4 1_555 1_555
C7_4 H9_4 1_555 1_555
C7_4 H10_4 1_555 1_555
Zn1_8 N1_4 1_555 1_555
C1_4 C3_4 1_555 1_555
C2_4 N1_4 1_555 1_555
N1_4 C1_4 1_555 1_555
H1_4 C2_4 1_555 1_555
C4_4 C2_4 1_555 1_555
N2_4 C1_4 1_555 1_555
H2_4 C4_4 1_555 1_555
Zn3_4 N2_4 1_555 1_555
N5_4 Zn1_8 1_555 1_555
C4_4 N2_4 1_555 1_555
C3_4 H5_4 1_555 1_555
C3_4 H6_4 1_555 1_555
C3_4 H7_4 1_555 1_555
C2_5 N5_2 1_555 1_555
H1_5 C2_5 1_555 1_555
C4_5 C2_5 1_555 1_555
H2_5 C4_5 1_555 1_555
C5_5 C7_5 1_555 1_555
Zn2_5 N2_5 1_555 1_555
C4_5 N2_5 1_555 1_555
C7_5 H8_5 1_555 1_555
C7_5 H9_5 1_555 1_555
C7_5 H10_5 1_555 1_555
C1_5 C3_5 1_555 1_555
C6_5 N6_2 1_555 1_555
H3_5 C6_5 1_555 1_555
C8_5 C6_5 1_555 1_555
H4_5 C8_5 1_555 1_555
Zn3_6 N4_5 1_555 1_555
C8_5 N4_5 1_555 1_555
C3_5 H5_5 1_555 1_555
C3_5 H6_5 1_555 1_555
C3_5 H7_5 1_555 1_555
C5_6 C7_6 1_555 1_555
C6_6 N6 1_555 1_555
H3_6 C6_6 1_555 1_555
C8_6 C6_6 1_555 1_555
N4_6 C5_6 1_555 1_555
H4_6 C8_6 1_555 1_555
Zn3_8 N4_6 1_555 1_555
C5_6 N6 1_555 1_555
C8_6 N4_6 1_555 1_555
C7_6 H8_6 1_555 1_555
C7_6 H9_6 1_555 1_555
C7_6 H10_6 1_555 1_555
C1_6 C3_6 1_555 1_555
C2_6 N5 1_555 1_555
N5 C1_6 1_555 1_555
H1_6 C2_6 1_555 1_555
C4_6 C2_6 1_555 1_555
N2_6 C1_6 1_555 1_555
H2_6 C4_6 1_555 1_555
Zn2_8 N2_6 1_555 1_555
C4_6 N2_6 1_555 1_555
C3_6 H5_6 1_555 1_555
C3_6 H6_6 1_555 1_555
C3_6 H7_6 1_555 1_555
C1_7 C3_7 1_555 1_555
C6_7 N6_4 1_555 1_555
H3_7 C6_7 1_555 1_555
C8_7 C6_7 1_555 1_555
H4_7 C8_7 1_555 1_555
Zn3_5 N4_7 1_555 1_555
C8_7 N4_7 1_555 1_555
C3_7 H5_7 1_555 1_555
C3_7 H6_7 1_555 1_555
C3_7 H7_7 1_555 1_555
C2_7 N5_4 1_555 1_555
H1_7 C2_7 1_555 1_555
C4_7 C2_7 1_555 1_555
H2_7 C4_7 1_555 1_555
C5_7 C7_7 1_555 1_555
Zn2_6 N2_7 1_555 1_555
C4_7 N2_7 1_555 1_555
C7_7 H8_7 1_555 1_555
C7_7 H9_7 1_555 1_555
C7_7 H10_7 1_555 1_555
C5_8 C7_8 1_555 1_555
C6_8 N6_3 1_555 1_555
H3_8 C6_8 1_555 1_555
C8_8 C6_8 1_555 1_555
N4_8 C5_8 1_555 1_555
H4_8 C8_8 1_555 1_555
Zn3_7 N4_8 1_555 1_555
C5_8 N6_3 1_555 1_555
C8_8 N4_8 1_555 1_555
C7_8 H8_8 1_555 1_555
C7_8 H9_8 1_555 1_555
C7_8 H10_8 1_555 1_555
C1_8 C3_8 1_555 1_555
C2_8 N5_3 1_555 1_555
N5_3 C1_8 1_555 1_555
H1_8 C2_8 1_555 1_555
C4_8 C2_8 1_555 1_555
N2_8 C1_8 1_555 1_555
H2_8 C4_8 1_555 1_555
Zn2_7 N2_8 1_555 1_555
C4_8 N2_8 1_555 1_555
C3_8 H5_8 1_555 1_555
C3_8 H6_8 1_555 1_555
C3_8 H7_8 1_555 1_555
Zn3_3 N1_5 1_555 1_555
C2_9 N1_5 1_555 1_555
H1_9 C2_9 1_555 1_555
C4_9 C2_9 1_555 1_555
H2_9 C4_9 1_555 1_555
C5_9 C7_9 1_555 1_555
Zn2_7 N2_9 1_555 1_555
C4_9 N2_9 1_555 1_555
C7_9 H8_9 1_555 1_555
C7_9 H9_9 1_555 1_555
C7_9 H10_9 1_555 1_555
C1_9 C3_9 1_555 1_555
C6_9 N3_5 1_555 1_555
N3_5 Zn3_4 1_555 1_555
H3_9 C6_9 1_555 1_555
C8_9 C6_9 1_555 1_555
H4_9 C8_9 1_555 1_555
Zn3_8 N4_9 1_555 1_555
C8_9 N4_9 1_555 1_555
C3_9 H5_9 1_555 1_555
C3_9 H6_9 1_555 1_555
C3_9 H7_9 1_555 1_555
N6_5 Zn3_5 1_555 1_555
C7_5 H8_10 1_555 1_555
C7_5 H9_10 1_555 1_555
C7_5 H10_10 1_555 1_555
N5_5 Zn3_6 1_555 1_555
C7_7 H5_10 1_555 1_555
C7_7 H6_10 1_555 1_555
C7_7 H7_10 1_555 1_555
N6_6 Zn2 1_555 1_555
C7_3 H8_11 1_555 1_555
C7_3 H9_11 1_555 1_555
C7_3 H10_11 1_555 1_555
N5_6 Zn2_2 1_555 1_555
C3 H5_11 1_555 1_555
C3 H6_11 1_555 1_555
C3 H7_11 1_555 1_555
C5_10 C7_10 1_555 1_555
C7_10 H8_12 1_555 1_555
C7_10 H9_12 1_555 1_555
C7_10 H10_12 1_555 1_555
C6_10 N3_6 1_555 1_555
N3_6 Zn2_8 1_555 1_555
H3_10 C6_10 1_555 1_555
C8_10 C6_10 1_555 1_555
H4_10 C8_10 1_555 1_555
Zn2_4 N4_10 1_555 1_555
C8_10 N4_10 1_555 1_555
C3_9 H5_12 1_555 1_555
C3_9 H6_12 1_555 1_555
C3_9 H7_12 1_555 1_555
N5_7 Zn2_3 1_555 1_555
C3_2 H5_13 1_555 1_555
C3_2 H6_13 1_555 1_555
C3_2 H7_13 1_555 1_555
C7_4 H8_13 1_555 1_555
C7_4 H9_13 1_555 1_555
C7_4 H10_13 1_555 1_555
Zn2_5 N1_6 1_555 1_555
C1_10 C3_10 1_555 1_555
C2_10 N1_6 1_555 1_555
N1_6 C1_10 1_555 1_555
H1_10 C2_10 1_555 1_555
C4_10 C2_10 1_555 1_555
N2_10 C1_10 1_555 1_555
H2_10 C4_10 1_555 1_555
Zn3 N2_10 1_555 1_555
C4_10 N2_10 1_555 1_555
C3_10 H5_14 1_555 1_555
C3_10 H6_14 1_555 1_555
C3_10 H7_14 1_555 1_555
C5_11 C7_11 1_555 1_555
C6_11 N3_7 1_555 1_555
N3_7 Zn2_6 1_555 1_555
H3_11 C6_11 1_555 1_555
C8_11 C6_11 1_555 1_555
N6_6 C5_11 1_555 1_555
H4_11 C8_11 1_555 1_555
C5_11 N3_7 1_555 1_555
C8_11 N6_6 1_555 1_555
C7_11 H8_14 1_555 1_555
C7_11 H9_14 1_555 1_555
C7_11 H10_14 1_555 1_555
C2_11 N5_7 1_555 1_555
H1_11 C2_11 1_555 1_555
C4_11 C2_11 1_555 1_555
H2_11 C4_11 1_555 1_555
Zn3_7 N2_11 1_555 1_555
C4_11 N2_11 1_555 1_555
C7_10 H8_15 1_555 1_555
C7_10 H9_15 1_555 1_555
C7_10 H10_15 1_555 1_555
C1_11 C3_11 1_555 1_555
C3_11 H5_15 1_555 1_555
C3_11 H6_15 1_555 1_555
C3_11 H7_15 1_555 1_555
C3_7 H8_16 1_555 1_555
C3_7 H9_16 1_555 1_555
C3_7 H10_16 1_555 1_555
C3_5 H5_16 1_555 1_555
C3_5 H6_16 1_555 1_555
C3_5 H7_16 1_555 1_555
C3_10 H5_17 1_555 1_555
C3_10 H6_17 1_555 1_555
C3_10 H7_17 1_555 1_555
C5_12 C7_12 1_555 1_555
C6_12 N3_8 1_555 1_555
N3_8 Zn3_2 1_555 1_555
H3_12 C6_12 1_555 1_555
C8_12 C6_12 1_555 1_555
N6_5 C5_12 1_555 1_555
H4_12 C8_12 1_555 1_555
C5_12 N3_8 1_555 1_555
C8_12 N6_5 1_555 1_555
C7_12 H8_17 1_555 1_555
C7_12 H9_17 1_555 1_555
C7_12 H10_17 1_555 1_555
C7_11 H8_18 1_555 1_555
C7_11 H9_18 1_555 1_555
C7_11 H10_18 1_555 1_555
C1_12 C3_12 1_555 1_555
C2_12 N5_6 1_555 1_555
N5_6 C1_12 1_555 1_555
H1_12 C2_12 1_555 1_555
C4_12 C2_12 1_555 1_555
N5_5 C1_12 1_555 1_555
H2_12 C4_12 1_555 1_555
C4_12 N5_5 1_555 1_555
C3_12 H5_18 1_555 1_555
C3_12 H6_18 1_555 1_555
C3_12 H7_18 1_555 1_555
C7_8 H5_19 1_555 1_555
C7_8 H6_19 1_555 1_555
C7_8 H7_19 1_555 1_555
C7_6 H8_19 1_555 1_555
C7_6 H9_19 1_555 1_555
C7_6 H10_19 1_555 1_555
C3_8 H8_20 1_555 1_555
C3_8 H9_20 1_555 1_555
C3_8 H10_20 1_555 1_555
C3_6 H5_20 1_555 1_555
C3_6 H6_20 1_555 1_555
C3_6 H7_20 1_555 1_555
C7_9 H5_21 1_555 1_555
C7_9 H6_21 1_555 1_555
C7_9 H7_21 1_555 1_555
C3_11 H8_21 1_555 1_555
C3_11 H9_21 1_555 1_555
C3_11 H10_21 1_555 1_555
C7 H5_22 1_555 1_555
C7 H6_22 1_555 1_555
C7 H7_22 1_555 1_555
C3_3 H8_22 1_555 1_555
C3_3 H9_22 1_555 1_555
C3_3 H10_22 1_555 1_555
C7_12 H5_23 1_555 1_555
C7_12 H6_23 1_555 1_555
C7_12 H7_23 1_555 1_555
C3_12 H8_23 1_555 1_555
C3_12 H9_23 1_555 1_555
C3_12 H10_23 1_555 1_555
C7_2 H5_24 1_555 1_555
C7_2 H6_24 1_555 1_555
C7_2 H7_24 1_555 1_555
C3_4 H8_24 1_555 1_555
C3_4 H9_24 1_555 1_555
C3_4 H10_24 1_555 1_555

#END
