
###############################################################################
#
# This file contains modified crystal structure data generated from the
# MOF subset of the Cambridge Structural Database (CSD) v543 
# hosted by the Cambridge Crystallographic Data Centre (CCDC).
#
# This work is licensed under the Creative Commons
# Attribution-NonCommercial-ShareAlike 4.0 International License.
# To view a copy of this license, visit
# http://creativecommons.org/licenses/by-nc-sa/4.0/
# or send a letter to
# Creative Commons, PO Box 1866, Mountain View, CA 94042, USA.
#
# CIF created using the CSD Python API on 29 September 2022
# The structure has been converted into the P1 space group
# The structure has a 3D framework
# The original CSD entry KANCIN is in the orthorhombic crystal system
# The framework has been calculated to contain at least 10.0% void space
# The void calculation uses a probe of radius 1.32A, grid spacing 0.4
#
###############################################################################

data_KANCIN
_chemical_formula_moiety         '(C136 H80 N12 O32 Zn8)n'
_symmetry_cell_setting           triclinic
_symmetry_space_group_name_H-M   'P 1'
_symmetry_Int_Tables_number      1
_space_group_name_Hall           'P 1'
loop_
_symmetry_equiv_pos_site_id
_symmetry_equiv_pos_as_xyz
1 x,y,z
_cell_length_a                   11.426(2)
_cell_length_b                   18.457(4)
_cell_length_c                   18.340(4)
_cell_angle_alpha                90
_cell_angle_beta                 90
_cell_angle_gamma                90
_cell_volume                     3867.72
loop_
_atom_site_label
_atom_site_type_symbol
_atom_site_fract_x
_atom_site_fract_y
_atom_site_fract_z
Zn3 Zn -0.0000 0.16877(3) 0.2500
N2 N 0.0000 0.0588(3) 0.2500
C24 C 0.0755(4) 0.0215(2) 0.2908(3)
H14 H 0.1286 0.0477 0.3216
Zn1 Zn -0.0000 0.33123(3) 0.2500
O1 O 0.1308(3) 0.31718(18) 0.17309(19)
O2 O 0.1102(3) 0.19588(18) 0.16914(18)
N1 N -0.0000 0.4412(3) 0.2500
C1 C 0.1431(4) 0.2562(2) 0.1430(3)
C2 C 0.2001(5) 0.2533(2) 0.0696(3)
C3 C 0.2559(9) 0.3116(3) 0.0396(4)
H1 H 0.2614 0.3556 0.0672
C4 C 0.1951(7) 0.1908(3) 0.0295(4)
H2 H 0.1577 0.1486 0.0493
C5 C 0.0755(4) 0.4785(2) 0.2092(3)
H3 H 0.1286 0.4523 0.1784
C6 C 0.0805(5) 0.5545(3) 0.2095(4)
H4 H 0.1395 0.5792 0.1818
C7 C -0.0000 0.5939(4) 0.2500
C8 C -0.0000 0.6740(4) 0.2500
C9 C 0.1055(4) 0.7124(3) 0.2494(5)
H5 H 0.1784 0.6866 0.2481
Zn5 Zn 0.5000 0.33123(3) 0.7500
Zn7 Zn 0.5000 0.16877(3) 0.7500
O4 O 0.1308(3) 0.18282(18) 0.32691(19)
O5 O 0.3692(3) 0.31718(18) 0.67309(19)
O9 O 0.1102(3) 0.30412(18) 0.33086(18)
O10 O 0.3898(3) 0.19588(18) 0.66914(18)
C11 C 0.1431(4) 0.2438(2) 0.3570(3)
C12 C 0.3569(4) 0.2562(2) 0.6430(3)
C14 C 0.2001(5) 0.2467(2) 0.4304(3)
C15 C 0.2999(5) 0.2533(2) 0.5696(3)
C17 C 0.2559(9) 0.1884(3) 0.4604(4)
C18 C 0.2441(9) 0.3116(3) 0.5396(4)
H7 H 0.2614 0.1444 0.4328
H8 H 0.2386 0.3556 0.5672
C20 C 0.1951(7) 0.3092(3) 0.4705(4)
C21 C 0.3049(7) 0.1908(3) 0.5295(4)
H10 H 0.1577 0.3514 0.4507
H11 H 0.3423 0.1486 0.5493
C27 C 0.0805(5) 0.9455(3) 0.2905(4)
H17 H 0.1395 0.9208 0.3182
C28 C 0.0000 0.9061(4) 0.2500
C29 C 0.0000 0.8260(4) 0.2500
C32 C 0.1055(4) 0.7876(3) 0.2506(5)
H20 H 0.1784 0.8134 0.2519
O3 O 0.3692(3) 0.18282(18) 0.82691(19)
O8 O 0.3898(3) 0.30412(18) 0.83086(18)
C10 C 0.3569(4) 0.2438(2) 0.8570(3)
C13 C 0.2999(5) 0.2467(2) 0.9304(3)
C16 C 0.2441(9) 0.1884(3) 0.9604(4)
H6 H 0.2386 0.1444 0.9328
C19 C 0.3049(7) 0.3092(3) 0.9705(4)
H9 H 0.3423 0.3514 0.9507
Zn3_2 Zn 1.0000 0.16877(3) 0.2500
N2_2 N 1.0000 0.0588(3) 0.2500
C23 C 0.9245(4) 0.0215(2) 0.2092(3)
H13 H 0.8714 0.0477 0.1784
Zn1_2 Zn 1.0000 0.33123(3) 0.2500
N1_2 N 1.0000 0.4412(3) 0.2500
C7_2 C 1.0000 0.5939(4) 0.2500
C8_2 C 1.0000 0.6740(4) 0.2500
O6 O 0.8692(3) 0.18282(18) 0.17309(19)
O7 O 0.8692(3) 0.31718(18) 0.32691(19)
O11 O 0.8898(3) 0.30412(18) 0.16914(18)
O12 O 0.8898(3) 0.19588(18) 0.33086(18)
C22 C 0.9245(4) 0.4785(2) 0.2908(3)
H12 H 0.8714 0.4523 0.3216
C25 C 0.9195(5) 0.5545(3) 0.2905(4)
C26 C 0.9195(5) 0.9455(3) 0.2095(4)
H15 H 0.8605 0.5792 0.3182
H16 H 0.8605 0.9208 0.1818
C28_2 C 1.0000 0.9061(4) 0.2500
C29_2 C 1.0000 0.8260(4) 0.2500
C30 C 0.8945(4) 0.7124(3) 0.2506(5)
C31 C 0.8945(4) 0.7876(3) 0.2494(5)
H18 H 0.8216 0.6866 0.2519
H19 H 0.8216 0.8134 0.2481
C1_2 C 0.8569(4) 0.2562(2) 0.3570(3)
C2_2 C 0.7999(5) 0.2533(2) 0.4304(3)
C3_2 C 0.7441(9) 0.3116(3) 0.4604(4)
H1_2 H 0.7386 0.3556 0.4328
C4_2 C 0.8049(7) 0.1908(3) 0.4705(4)
H2_2 H 0.8423 0.1486 0.4507
O3_2 O 0.6308(3) 0.18282(18) 0.67309(19)
O8_2 O 0.6102(3) 0.30412(18) 0.66914(18)
C10_2 C 0.6431(4) 0.2438(2) 0.6430(3)
C11_2 C 0.8569(4) 0.2438(2) 0.1430(3)
C13_2 C 0.7001(5) 0.2467(2) 0.5696(3)
C14_2 C 0.7999(5) 0.2467(2) 0.0696(3)
C16_2 C 0.7559(9) 0.1884(3) 0.5396(4)
C17_2 C 0.7441(9) 0.1884(3) 0.0396(4)
H6_2 H 0.7614 0.1444 0.5672
H7_2 H 0.7386 0.1444 0.0672
C19_2 C 0.6951(7) 0.3092(3) 0.5295(4)
C20_2 C 0.8049(7) 0.3092(3) 0.0295(4)
H9_2 H 0.6577 0.3514 0.5493
H10_2 H 0.8423 0.3514 0.0493
O5_2 O 0.6308(3) 0.31718(18) 0.82691(19)
O10_2 O 0.6102(3) 0.19588(18) 0.83086(18)
C12_2 C 0.6431(4) 0.2562(2) 0.8570(3)
C15_2 C 0.7001(5) 0.2533(2) 0.9304(3)
C18_2 C 0.7559(9) 0.3116(3) 0.9604(4)
H8_2 H 0.7614 0.3556 0.9328
C21_2 C 0.6951(7) 0.1908(3) 0.9705(4)
H11_2 H 0.6577 0.1486 0.9507
N2_3 N 0.5000 0.0588(3) 0.7500
C23_2 C 0.4245(4) 0.0215(2) 0.7908(3)
C24_2 C 0.5755(4) 0.0215(2) 0.7092(3)
H13_2 H 0.3714 0.0477 0.8216
H14_2 H 0.6286 0.0477 0.6784
N1_3 N 0.5000 0.4412(3) 0.7500
C5_2 C 0.5755(4) 0.4785(2) 0.7908(3)
H3_2 H 0.6286 0.4523 0.8216
C6_2 C 0.5805(5) 0.5545(3) 0.7905(4)
H4_2 H 0.6395 0.5792 0.8182
C7_3 C 0.5000 0.5939(4) 0.7500
C8_3 C 0.5000 0.6740(4) 0.7500
C9_2 C 0.6055(4) 0.7124(3) 0.7506(5)
H5_2 H 0.6784 0.6866 0.7519
C22_2 C 0.4245(4) 0.4785(2) 0.7092(3)
H12_2 H 0.3714 0.4523 0.6784
C25_2 C 0.4195(5) 0.5545(3) 0.7095(4)
C26_2 C 0.4195(5) 0.9455(3) 0.7905(4)
C27_2 C 0.5805(5) 0.9455(3) 0.7095(4)
H15_2 H 0.3605 0.5792 0.6818
H16_2 H 0.3605 0.9208 0.8182
H17_2 H 0.6395 0.9208 0.6818
C28_3 C 0.5000 0.9061(4) 0.7500
C29_3 C 0.5000 0.8260(4) 0.7500
C30_2 C 0.3945(4) 0.7124(3) 0.7494(5)
C31_2 C 0.3945(4) 0.7876(3) 0.7506(5)
C32_2 C 0.6055(4) 0.7876(3) 0.7494(5)
H18_2 H 0.3216 0.6866 0.7481
H19_2 H 0.3216 0.8134 0.7519
H20_2 H 0.6784 0.8134 0.7481
Zn1_3 Zn 0.5000 0.66877(3) 0.2500
O1_2 O 0.3692(3) 0.68282(18) 0.17309(19)
O2_2 O 0.3898(3) 0.80412(18) 0.16914(18)
N1_4 N 0.5000 0.5588(3) 0.2500
C1_3 C 0.3569(4) 0.7438(2) 0.1430(3)
C2_3 C 0.2999(5) 0.7467(2) 0.0696(3)
C3_3 C 0.2441(9) 0.6884(3) 0.0396(4)
H1_3 H 0.2386 0.6444 0.0672
C4_3 C 0.3049(7) 0.8092(3) 0.0295(4)
H2_3 H 0.3423 0.8514 0.0493
C5_3 C 0.4245(4) 0.5215(2) 0.2092(3)
H3_3 H 0.3714 0.5477 0.1784
C6_3 C 0.4195(5) 0.4455(3) 0.2095(4)
H4_3 H 0.3605 0.4208 0.1818
C7_4 C 0.5000 0.4061(4) 0.2500
C8_4 C 0.5000 0.3260(4) 0.2500
C9_3 C 0.3945(4) 0.2876(3) 0.2494(5)
H5_3 H 0.3216 0.3134 0.2481
Zn2 Zn 0.5000 0.83123(3) 0.2500
Zn5_2 Zn -0.0000 0.66877(3) 0.7500
Zn7_2 Zn -0.0000 0.83123(3) 0.7500
O4_2 O 0.3692(3) 0.81718(18) 0.32691(19)
O5_3 O 0.1308(3) 0.68282(18) 0.67309(19)
O6_2 O 0.6308(3) 0.81718(18) 0.17309(19)
O7_2 O 0.6308(3) 0.68282(18) 0.32691(19)
O9_2 O 0.3898(3) 0.69588(18) 0.33086(18)
O10_3 O 0.1102(3) 0.80412(18) 0.66914(18)
O11_2 O 0.6102(3) 0.69588(18) 0.16914(18)
O12_2 O 0.6102(3) 0.80412(18) 0.33086(18)
N3 N 0.5000 0.9412(3) 0.2500
C11_3 C 0.3569(4) 0.7562(2) 0.3570(3)
C12_3 C 0.1431(4) 0.7438(2) 0.6430(3)
C14_3 C 0.2999(5) 0.7533(2) 0.4304(3)
C15_3 C 0.2001(5) 0.7467(2) 0.5696(3)
C17_3 C 0.2441(9) 0.8116(3) 0.4604(4)
C18_3 C 0.2559(9) 0.6884(3) 0.5396(4)
H7_3 H 0.2386 0.8556 0.4328
H8_3 H 0.2614 0.6444 0.5672
C20_3 C 0.3049(7) 0.6908(3) 0.4705(4)
C21_3 C 0.1951(7) 0.8092(3) 0.5295(4)
H10_3 H 0.3423 0.6486 0.4507
H11_3 H 0.1577 0.8514 0.5493
C22_3 C 0.5755(4) 0.5215(2) 0.2908(3)
H12_3 H 0.6286 0.5477 0.3216
C25_3 C 0.5805(5) 0.4455(3) 0.2905(4)
C26_3 C 0.5805(5) 0.0545(3) 0.2095(4)
C27_3 C 0.4195(5) 0.0545(3) 0.2905(4)
H15_3 H 0.6395 0.4208 0.3182
H16_3 H 0.6395 0.0792 0.1818
H17_3 H 0.3605 0.0792 0.3182
C28_4 C 0.5000 0.0939(4) 0.2500
C29_4 C 0.5000 0.1740(4) 0.2500
C30_3 C 0.6055(4) 0.2876(3) 0.2506(5)
C31_3 C 0.6055(4) 0.2124(3) 0.2494(5)
C32_3 C 0.3945(4) 0.2124(3) 0.2506(5)
H18_3 H 0.6784 0.3134 0.2519
H19_3 H 0.6784 0.1866 0.2481
H20_3 H 0.3216 0.1866 0.2519
O3_3 O 0.1308(3) 0.81718(18) 0.82691(19)
O8_3 O 0.1102(3) 0.69588(18) 0.83086(18)
C10_3 C 0.1431(4) 0.7562(2) 0.8570(3)
C13_3 C 0.2001(5) 0.7533(2) 0.9304(3)
C16_3 C 0.2559(9) 0.8116(3) 0.9604(4)
H6_3 H 0.2614 0.8556 0.9328
C19_3 C 0.1951(7) 0.6908(3) 0.9705(4)
H9_3 H 0.1577 0.6486 0.9507
C23_3 C 0.5755(4) 0.9785(2) 0.2092(3)
C24_3 C 0.4245(4) 0.9785(2) 0.2908(3)
H13_3 H 0.6286 0.9523 0.1784
H14_3 H 0.3714 0.9523 0.3216
Zn5_3 Zn 1.0000 0.66877(3) 0.7500
Zn7_3 Zn 1.0000 0.83123(3) 0.7500
C1_4 C 0.6431(4) 0.7438(2) 0.3570(3)
C2_4 C 0.7001(5) 0.7467(2) 0.4304(3)
C3_4 C 0.7559(9) 0.6884(3) 0.4604(4)
H1_4 H 0.7614 0.6444 0.4328
C4_4 C 0.6951(7) 0.8092(3) 0.4705(4)
H2_4 H 0.6577 0.8514 0.4507
O3_4 O 0.8692(3) 0.81718(18) 0.67309(19)
O8_4 O 0.8898(3) 0.69588(18) 0.66914(18)
C10_4 C 0.8569(4) 0.7562(2) 0.6430(3)
C11_4 C 0.6431(4) 0.7562(2) 0.1430(3)
C13_4 C 0.7999(5) 0.7533(2) 0.5696(3)
C14_4 C 0.7001(5) 0.7533(2) 0.0696(3)
C16_4 C 0.7441(9) 0.8116(3) 0.5396(4)
C17_4 C 0.7559(9) 0.8116(3) 0.0396(4)
H6_4 H 0.7386 0.8556 0.5672
H7_4 H 0.7614 0.8556 0.0672
C19_4 C 0.8049(7) 0.6908(3) 0.5295(4)
C20_4 C 0.6951(7) 0.6908(3) 0.0295(4)
H9_4 H 0.8423 0.6486 0.5493
H10_4 H 0.6577 0.6486 0.0493
O5_4 O 0.8692(3) 0.68282(18) 0.82691(19)
O10_4 O 0.8898(3) 0.80412(18) 0.83086(18)
C12_4 C 0.8569(4) 0.7438(2) 0.8570(3)
C15_4 C 0.7999(5) 0.7467(2) 0.9304(3)
C18_4 C 0.7441(9) 0.6884(3) 0.9604(4)
H8_4 H 0.7386 0.6444 0.9328
C21_4 C 0.8049(7) 0.8092(3) 0.9705(4)
H11_4 H 0.8423 0.8514 0.9507
N1_5 N 0.0000 0.5588(3) 0.7500
C7_5 C 0.0000 0.4061(4) 0.7500
C8_5 C 0.0000 0.3260(4) 0.7500
N3_2 N -0.0000 0.9412(3) 0.7500
C22_4 C 0.0755(4) 0.5215(2) 0.7092(3)
H12_4 H 0.1286 0.5477 0.6784
C25_4 C 0.0805(5) 0.4455(3) 0.7095(4)
C26_4 C 0.0805(5) 0.0545(3) 0.7905(4)
H15_4 H 0.1395 0.4208 0.6818
H16_4 H 0.1395 0.0792 0.8182
C28_5 C -0.0000 0.0939(4) 0.7500
C29_5 C -0.0000 0.1740(4) 0.7500
C30_4 C 0.1055(4) 0.2876(3) 0.7494(5)
C31_4 C 0.1055(4) 0.2124(3) 0.7506(5)
H18_4 H 0.1784 0.3134 0.7481
H19_4 H 0.1784 0.1866 0.7519
C23_4 C 0.0755(4) 0.9785(2) 0.7908(3)
H13_4 H 0.1286 0.9523 0.8216
N1_6 N 1.0000 0.5588(3) 0.7500
C5_4 C 0.9245(4) 0.5215(2) 0.7908(3)
H3_4 H 0.8714 0.5477 0.8216
C6_4 C 0.9195(5) 0.4455(3) 0.7905(4)
H4_4 H 0.8605 0.4208 0.8182
C7_6 C 1.0000 0.4061(4) 0.7500
C8_6 C 1.0000 0.3260(4) 0.7500
C9_4 C 0.8945(4) 0.2876(3) 0.7506(5)
H5_4 H 0.8216 0.3134 0.7519
N3_3 N 1.0000 0.9412(3) 0.7500
C27_4 C 0.9195(5) 0.0545(3) 0.7095(4)
H17_4 H 0.8605 0.0792 0.6818
C28_6 C 1.0000 0.0939(4) 0.7500
C29_6 C 1.0000 0.1740(4) 0.7500
C32_4 C 0.8945(4) 0.2124(3) 0.7494(5)
H20_4 H 0.8216 0.1866 0.7481
C24_4 C 0.9245(4) 0.9785(2) 0.7092(3)
H14_4 H 0.8714 0.9523 0.6784
loop_
_geom_bond_atom_site_label_1
_geom_bond_atom_site_label_2
_geom_bond_site_symmetry_1
_geom_bond_site_symmetry_2
Zn3 N2 1_555 1_555
C24 N2 1_555 1_555
H14 C24 1_555 1_555
Zn1 O1 1_555 1_555
O1 C1 1_555 1_555
O2 C1 1_555 1_555
N1 Zn1 1_555 1_555
C1 C2 1_555 1_555
C2 C3 1_555 1_555
C3 H1 1_555 1_555
C4 C2 1_555 1_555
H2 C4 1_555 1_555
C5 N1 1_555 1_555
H3 C5 1_555 1_555
C6 C5 1_555 1_555
H4 C6 1_555 1_555
C7 C6 1_555 1_555
C8 C7 1_555 1_555
C9 C8 1_555 1_555
H5 C9 1_555 1_555
Zn3 O2 1_555 1_555
Zn5 O5 1_555 1_555
Zn7 O10 1_555 1_555
O4 Zn3 1_555 1_555
O5 C12 1_555 1_555
O9 Zn1 1_555 1_555
O10 C12 1_555 1_555
C11 O4 1_555 1_555
C12 C15 1_555 1_555
C14 C11 1_555 1_555
C15 C18 1_555 1_555
C17 C14 1_555 1_555
C18 H8 1_555 1_555
H7 C17 1_555 1_555
C20 C14 1_555 1_555
C21 C15 1_555 1_555
H10 C20 1_555 1_555
H11 C21 1_555 1_555
H17 C27 1_555 1_555
C29 C28 1_555 1_555
C32 C9 1_555 1_555
H20 C32 1_555 1_555
O9 C11 1_555 1_555
C17 C21 1_555 1_555
C18 C20 1_555 1_555
C27 C28 1_555 1_555
C29 C32 1_555 1_555
Zn5 O8 1_555 1_555
Zn7 O3 1_555 1_555
O3 C10 1_555 1_555
O8 C10 1_555 1_555
C10 C13 1_555 1_555
C13 C16 1_555 1_555
H6 C16 1_555 1_555
H9 C19 1_555 1_555
C13 C19 1_555 1_555
Zn3_2 N2_2 1_555 1_555
N2_2 C23 1_555 1_555
C23 H13 1_555 1_555
N1_2 Zn1_2 1_555 1_555
C8_2 C7_2 1_555 1_555
O6 Zn3_2 1_555 1_555
O7 Zn1_2 1_555 1_555
O11 Zn1_2 1_555 1_555
O12 Zn3_2 1_555 1_555
C22 N1_2 1_555 1_555
H12 C22 1_555 1_555
C25 C7_2 1_555 1_555
H15 C25 1_555 1_555
H16 C26 1_555 1_555
C28_2 C26 1_555 1_555
C29_2 C28_2 1_555 1_555
C30 C8_2 1_555 1_555
C31 C29_2 1_555 1_555
H18 C30 1_555 1_555
H19 C31 1_555 1_555
C22 C25 1_555 1_555
C30 C31 1_555 1_555
O7 C1_2 1_555 1_555
O12 C1_2 1_555 1_555
C1_2 C2_2 1_555 1_555
C2_2 C3_2 1_555 1_555
C3_2 H1_2 1_555 1_555
C4_2 C2_2 1_555 1_555
H2_2 C4_2 1_555 1_555
Zn5 O8_2 1_555 1_555
Zn7 O3_2 1_555 1_555
O3_2 C10_2 1_555 1_555
O8_2 C10_2 1_555 1_555
C10_2 C13_2 1_555 1_555
C11_2 O6 1_555 1_555
C13_2 C16_2 1_555 1_555
C14_2 C11_2 1_555 1_555
C16_2 C4_2 1_555 1_555
C17_2 C14_2 1_555 1_555
H6_2 C16_2 1_555 1_555
H7_2 C17_2 1_555 1_555
C19_2 C3_2 1_555 1_555
C20_2 C14_2 1_555 1_555
H9_2 C19_2 1_555 1_555
H10_2 C20_2 1_555 1_555
O11 C11_2 1_555 1_555
C13_2 C19_2 1_555 1_555
Zn5 O5_2 1_555 1_555
Zn7 O10_2 1_555 1_555
O5_2 C12_2 1_555 1_555
O10_2 C12_2 1_555 1_555
C12_2 C15_2 1_555 1_555
C15_2 C18_2 1_555 1_555
C18_2 H8_2 1_555 1_555
C21_2 C15_2 1_555 1_555
H11_2 C21_2 1_555 1_555
Zn7 N2_3 1_555 1_555
N2_3 C23_2 1_555 1_555
C23_2 H13_2 1_555 1_555
C24_2 N2_3 1_555 1_555
H14_2 C24_2 1_555 1_555
N1_3 Zn5 1_555 1_555
C5_2 N1_3 1_555 1_555
H3_2 C5_2 1_555 1_555
C6_2 C5_2 1_555 1_555
H4_2 C6_2 1_555 1_555
C7_3 C6_2 1_555 1_555
C8_3 C7_3 1_555 1_555
C9_2 C8_3 1_555 1_555
H5_2 C9_2 1_555 1_555
C22_2 N1_3 1_555 1_555
H12_2 C22_2 1_555 1_555
C25_2 C7_3 1_555 1_555
H15_2 C25_2 1_555 1_555
H16_2 C26_2 1_555 1_555
H17_2 C27_2 1_555 1_555
C28_3 C26_2 1_555 1_555
C29_3 C28_3 1_555 1_555
C30_2 C8_3 1_555 1_555
C31_2 C29_3 1_555 1_555
C32_2 C9_2 1_555 1_555
H18_2 C30_2 1_555 1_555
H19_2 C31_2 1_555 1_555
H20_2 C32_2 1_555 1_555
C22_2 C25_2 1_555 1_555
C27_2 C28_3 1_555 1_555
C29_3 C32_2 1_555 1_555
C30_2 C31_2 1_555 1_555
Zn1_3 O1_2 1_555 1_555
O1_2 C1_3 1_555 1_555
O2_2 C1_3 1_555 1_555
N1_4 Zn1_3 1_555 1_555
C1_3 C2_3 1_555 1_555
C2_3 C3_3 1_555 1_555
C3_3 H1_3 1_555 1_555
C4_3 C2_3 1_555 1_555
H2_3 C4_3 1_555 1_555
C5_3 N1_4 1_555 1_555
H3_3 C5_3 1_555 1_555
C6_3 C5_3 1_555 1_555
H4_3 C6_3 1_555 1_555
C7_4 C6_3 1_555 1_555
C8_4 C7_4 1_555 1_555
C9_3 C8_4 1_555 1_555
H5_3 C9_3 1_555 1_555
Zn2 O2_2 1_555 1_555
Zn5_2 O5_3 1_555 1_555
Zn7_2 O10_3 1_555 1_555
O4_2 Zn2 1_555 1_555
O5_3 C12_3 1_555 1_555
O6_2 Zn2 1_555 1_555
O7_2 Zn1_3 1_555 1_555
O9_2 Zn1_3 1_555 1_555
O10_3 C12_3 1_555 1_555
O11_2 Zn1_3 1_555 1_555
O12_2 Zn2 1_555 1_555
N3 Zn2 1_555 1_555
C11_3 O4_2 1_555 1_555
C12_3 C15_3 1_555 1_555
C14_3 C11_3 1_555 1_555
C15_3 C18_3 1_555 1_555
C17_3 C14_3 1_555 1_555
C18_3 H8_3 1_555 1_555
H7_3 C17_3 1_555 1_555
C20_3 C14_3 1_555 1_555
C21_3 C15_3 1_555 1_555
H10_3 C20_3 1_555 1_555
H11_3 C21_3 1_555 1_555
C22_3 N1_4 1_555 1_555
H12_3 C22_3 1_555 1_555
C25_3 C7_4 1_555 1_555
H15_3 C25_3 1_555 1_555
H16_3 C26_3 1_555 1_555
H17_3 C27_3 1_555 1_555
C28_4 C26_3 1_555 1_555
C29_4 C28_4 1_555 1_555
C30_3 C8_4 1_555 1_555
C31_3 C29_4 1_555 1_555
C32_3 C9_3 1_555 1_555
H18_3 C30_3 1_555 1_555
H19_3 C31_3 1_555 1_555
H20_3 C32_3 1_555 1_555
O9_2 C11_3 1_555 1_555
C17_3 C21_3 1_555 1_555
C18_3 C20_3 1_555 1_555
C22_3 C25_3 1_555 1_555
C27_3 C28_4 1_555 1_555
C29_4 C32_3 1_555 1_555
C30_3 C31_3 1_555 1_555
Zn5_2 O8_3 1_555 1_555
Zn7_2 O3_3 1_555 1_555
O3_3 C10_3 1_555 1_555
O8_3 C10_3 1_555 1_555
C10_3 C13_3 1_555 1_555
C13_3 C16_3 1_555 1_555
H6_3 C16_3 1_555 1_555
H9_3 C19_3 1_555 1_555
C13_3 C19_3 1_555 1_555
N3 C23_3 1_555 1_555
C23_3 H13_3 1_555 1_555
C24_3 N3 1_555 1_555
H14_3 C24_3 1_555 1_555
O7_2 C1_4 1_555 1_555
O12_2 C1_4 1_555 1_555
C1_4 C2_4 1_555 1_555
C2_4 C3_4 1_555 1_555
C3_4 H1_4 1_555 1_555
C4_4 C2_4 1_555 1_555
H2_4 C4_4 1_555 1_555
Zn5_3 O8_4 1_555 1_555
Zn7_3 O3_4 1_555 1_555
O3_4 C10_4 1_555 1_555
O8_4 C10_4 1_555 1_555
C10_4 C13_4 1_555 1_555
C11_4 O6_2 1_555 1_555
C13_4 C16_4 1_555 1_555
C14_4 C11_4 1_555 1_555
C16_4 C4_4 1_555 1_555
C17_4 C14_4 1_555 1_555
H6_4 C16_4 1_555 1_555
H7_4 C17_4 1_555 1_555
C19_4 C3_4 1_555 1_555
C20_4 C14_4 1_555 1_555
H9_4 C19_4 1_555 1_555
H10_4 C20_4 1_555 1_555
O11_2 C11_4 1_555 1_555
C13_4 C19_4 1_555 1_555
Zn5_3 O5_4 1_555 1_555
Zn7_3 O10_4 1_555 1_555
O5_4 C12_4 1_555 1_555
O10_4 C12_4 1_555 1_555
C12_4 C15_4 1_555 1_555
C15_4 C18_4 1_555 1_555
C18_4 H8_4 1_555 1_555
C21_4 C15_4 1_555 1_555
H11_4 C21_4 1_555 1_555
N1_5 Zn5_2 1_555 1_555
C8_5 C7_5 1_555 1_555
N3_2 Zn7_2 1_555 1_555
C22_4 N1_5 1_555 1_555
H12_4 C22_4 1_555 1_555
C25_4 C7_5 1_555 1_555
H15_4 C25_4 1_555 1_555
H16_4 C26_4 1_555 1_555
C28_5 C26_4 1_555 1_555
C29_5 C28_5 1_555 1_555
C30_4 C8_5 1_555 1_555
C31_4 C29_5 1_555 1_555
H18_4 C30_4 1_555 1_555
H19_4 C31_4 1_555 1_555
C22_4 C25_4 1_555 1_555
C30_4 C31_4 1_555 1_555
N3_2 C23_4 1_555 1_555
C23_4 H13_4 1_555 1_555
N1_6 Zn5_3 1_555 1_555
C5_4 N1_6 1_555 1_555
H3_4 C5_4 1_555 1_555
C6_4 C5_4 1_555 1_555
H4_4 C6_4 1_555 1_555
C7_6 C6_4 1_555 1_555
C8_6 C7_6 1_555 1_555
C9_4 C8_6 1_555 1_555
H5_4 C9_4 1_555 1_555
N3_3 Zn7_3 1_555 1_555
H17_4 C27_4 1_555 1_555
C29_6 C28_6 1_555 1_555
C32_4 C9_4 1_555 1_555
H20_4 C32_4 1_555 1_555
C27_4 C28_6 1_555 1_555
C29_6 C32_4 1_555 1_555
C24_4 N3_3 1_555 1_555
H14_4 C24_4 1_555 1_555

#END
