
###############################################################################
#
# This file contains modified crystal structure data generated from the
# MOF subset of the Cambridge Structural Database (CSD) v543 
# hosted by the Cambridge Crystallographic Data Centre (CCDC).
#
# This work is licensed under the Creative Commons
# Attribution-NonCommercial-ShareAlike 4.0 International License.
# To view a copy of this license, visit
# http://creativecommons.org/licenses/by-nc-sa/4.0/
# or send a letter to
# Creative Commons, PO Box 1866, Mountain View, CA 94042, USA.
#
# CIF created using the CSD Python API on 29 September 2022
# The structure has been converted into the P1 space group
# The structure has a 3D framework
# The original CSD entry KANDAG is in the triclinic crystal system
# The framework has been calculated to contain at least 10.0% void space
# The void calculation uses a probe of radius 1.32A, grid spacing 0.4
#
###############################################################################

data_KANDAG
_chemical_formula_moiety         '(C64 H36 F4 N4 O16 Zn4)n'
_symmetry_cell_setting           triclinic
_symmetry_space_group_name_H-M   'P 1'
_symmetry_Int_Tables_number      1
_space_group_name_Hall           'P 1'
loop_
_symmetry_equiv_pos_site_id
_symmetry_equiv_pos_as_xyz
1 x,y,z
_cell_length_a                   10.903(2)
_cell_length_b                   10.960(2)
_cell_length_c                   14.840(3)
_cell_angle_alpha                82.55(3)
_cell_angle_beta                 85.61(3)
_cell_angle_gamma                88.79(3)
_cell_volume                     1753.09
loop_
_atom_site_label
_atom_site_type_symbol
_atom_site_fract_x
_atom_site_fract_y
_atom_site_fract_z
O7 O 0.4433(5) 0.6347(5) 0.2173(4)
O8 O 0.4445(5) 0.6061(5) 0.3721(4)
C9 C 0.4509(7) 0.1756(8) 0.2905(6)
C10 C 0.4021(7) 0.2245(7) 0.3693(5)
H5 H 0.3710 0.1724 0.4201
C11 C 0.4009(7) 0.3521(7) 0.3704(5)
H6 H 0.3711 0.3846 0.4228
C12 C 0.4445(7) 0.4319(7) 0.2929(5)
C13 C 0.4935(8) 0.3821(8) 0.2152(6)
H7 H 0.5235 0.4347 0.1644
C14 C 0.4979(7) 0.2544(7) 0.2127(5)
H8 H 0.5311 0.2222 0.1610
C15 C 0.4541(6) 0.0378(7) 0.2890(5)
C16 C 0.4442(7) 0.5683(7) 0.2941(5)
Zn4 Zn 0.44930(8) 0.78383(8) 0.39492(6)
Zn7 Zn 0.45129(8) 0.82184(8) 0.18907(6)
O3 O 0.2800(5) 0.8052(6) 0.3276(4)
O4 O 0.2647(5) 0.8321(6) 0.1764(4)
O5 O 0.4554(5) 0.9710(5) 0.3669(4)
O6 O 0.4570(5) 0.9991(5) 0.2115(4)
N1 N 0.3469(6) 0.7756(6) 0.5183(4)
F1 F 0.1890(5) 0.8811(6) 0.8295(4)
F2 F 0.0019(5) 0.9002(5) 0.9534(4)
C3 C 0.0252(8) 0.7911(10) 0.3654(6)
H2 H 0.0748 0.7842 0.4141
C4 C 0.0788(7) 0.8097(9) 0.2764(6)
C5 C 0.0018(8) 0.8214(9) 0.2017(6)
H3 H 0.0355 0.8355 0.1418
C8 C 0.2183(7) 0.8155(8) 0.2590(6)
C17 C 0.3192(7) 0.8774(8) 0.5558(5)
H9 H 0.3619 0.9486 0.5328
C18 C 0.2301(8) 0.8840(9) 0.6275(6)
H10 H 0.2123 0.9576 0.6509
C19 C 0.1686(8) 0.7756(9) 0.6628(6)
C20 C 0.1994(8) 0.6678(9) 0.6273(7)
H11 H 0.1604 0.5948 0.6513
C21 C 0.2896(8) 0.6692(8) 0.5550(6)
H12 H 0.3110 0.5963 0.5315
C22 C 0.0649(7) 0.7803(8) 0.7354(6)
C27 C 0.0781(8) 0.8366(9) 0.8127(7)
O9 O 0.6368(5) 0.7785(6) 0.4074(4)
O10 O 0.6222(5) 0.7989(6) 0.2571(4)
N3 N 0.5586(6) 0.8281(6) 0.0675(4)
C30 C 0.5821(8) 0.7246(8) 0.0289(6)
H16 H 0.5314 0.6572 0.0465
C31 C 0.6322(8) 0.9244(8) 0.0401(6)
H17 H 0.6154 0.9970 0.0653
C1 C 0.8224(7) 0.7942(8) 0.3090(6)
C2 C 0.8980(8) 0.7829(10) 0.3819(6)
H1 H 0.8631 0.7698 0.4415
C6 C 0.8762(7) 0.8112(9) 0.2208(6)
H4 H 0.8258 0.8160 0.1726
C7 C 0.6833(7) 0.7881(8) 0.3260(6)
C23 C 0.9486(8) 0.7321(10) 0.7258(7)
H13 H 0.9373 0.6935 0.6748
C24 C 0.8492(8) 0.7405(9) 0.7909(6)
H14 H 0.7735 0.7076 0.7830
C25 C 0.8652(7) 0.7999(8) 0.8692(6)
C26 C 0.9804(8) 0.8470(9) 0.8788(6)
C28 C 0.7579(7) 0.8123(9) 0.9371(6)
C29 C 0.6792(9) 0.7144(10) 0.9638(6)
H15 H 0.6914 0.6417 0.9381
C32 C 0.7330(8) 0.9221(8) 0.9758(6)
H18 H 0.7820 0.9909 0.9591
O1 O 0.3632(5) 0.2215(6) 0.5926(4)
O2 O 0.3778(5) 0.2011(6) 0.7429(4)
C1_2 C 0.1776(7) 0.2058(8) 0.6910(6)
C2_2 C 0.1020(8) 0.2171(10) 0.6181(6)
H1_2 H 0.1369 0.2302 0.5585
C6_2 C 0.1238(7) 0.1888(9) 0.7792(6)
H4_2 H 0.1742 0.1840 0.8274
C7_2 C 0.3167(7) 0.2119(8) 0.6740(6)
C23_2 C 0.0514(8) 0.2679(10) 0.2742(7)
H13_2 H 0.0627 0.3065 0.3252
C24_2 C 0.1508(8) 0.2595(9) 0.2091(6)
H14_2 H 0.2265 0.2924 0.2170
C25_2 C 0.1348(7) 0.2001(8) 0.1308(6)
C26_2 C 0.0196(8) 0.1530(9) 0.1212(6)
C28_2 C 0.2421(7) 0.1877(9) 0.0629(6)
C29_2 C 0.3208(9) 0.2856(10) 0.0362(6)
H15_2 H 0.3086 0.3583 0.0619
C32_2 C 0.2670(8) 0.0779(8) 0.0242(6)
H18_2 H 0.2180 0.0091 0.0409
Zn3 Zn 0.55070(8) 0.21617(8) 0.60508(6)
Zn5 Zn 0.54871(8) 0.17816(8) 0.81093(6)
N2 N 0.4414(6) 0.1719(6) 0.9325(4)
C30_2 C 0.4179(8) 0.2754(8) 0.9711(6)
H16_2 H 0.4686 0.3428 0.9535
C31_2 C 0.3678(8) 0.0756(8) 0.9599(6)
H17_2 H 0.3846 0.0030 0.9347
O3_2 O 0.7200(5) 0.1948(6) 0.6724(4)
O4_2 O 0.7353(5) 0.1679(6) 0.8236(4)
O5_2 O 0.5446(5) 0.0290(5) 0.6331(4)
O6_2 O 0.5430(5) 0.0009(5) 0.7885(4)
N1_2 N 0.6531(6) 0.2244(6) 0.4817(4)
F1_2 F 0.8110(5) 0.1189(6) 0.1705(4)
F2_2 F 0.9981(5) 0.0998(5) 0.0466(4)
C3_2 C 0.9748(8) 0.2089(10) 0.6346(6)
H2_2 H 0.9252 0.2158 0.5859
C4_2 C 0.9212(7) 0.1903(9) 0.7236(6)
C5_2 C 0.9982(8) 0.1786(9) 0.7983(6)
H3_2 H 0.9645 0.1645 0.8582
C8_2 C 0.7817(7) 0.1845(8) 0.7410(6)
C17_2 C 0.6808(7) 0.1226(8) 0.4442(5)
H9_2 H 0.6381 0.0514 0.4672
C18_2 C 0.7699(8) 0.1160(9) 0.3725(6)
H10_2 H 0.7877 0.0424 0.3491
C19_2 C 0.8314(8) 0.2244(9) 0.3372(6)
C20_2 C 0.8006(8) 0.3322(9) 0.3727(7)
H11_2 H 0.8396 0.4052 0.3487
C21_2 C 0.7104(8) 0.3308(8) 0.4450(6)
H12_2 H 0.6890 0.4037 0.4685
C22_2 C 0.9351(7) 0.2197(8) 0.2646(6)
C27_2 C 0.9219(8) 0.1634(9) 0.1873(7)
O11 O 0.5567(5) 0.3653(5) 0.7827(4)
O12 O 0.5555(5) 0.3939(5) 0.6279(4)
C9_2 C 0.5491(7) 0.8244(8) 0.7095(6)
C10_2 C 0.5979(7) 0.7755(7) 0.6307(5)
H5_2 H 0.6290 0.8276 0.5799
C11_2 C 0.5991(7) 0.6479(7) 0.6296(5)
H6_2 H 0.6289 0.6154 0.5772
C12_2 C 0.5555(7) 0.5681(7) 0.7071(5)
C13_2 C 0.5065(8) 0.6179(8) 0.7848(6)
H7_2 H 0.4765 0.5653 0.8356
C14_2 C 0.5021(7) 0.7456(7) 0.7873(5)
H8_2 H 0.4689 0.7778 0.8390
C15_2 C 0.5459(6) 0.9622(7) 0.7110(5)
C16_2 C 0.5558(7) 0.4317(7) 0.7059(5)
loop_
_geom_bond_atom_site_label_1
_geom_bond_atom_site_label_2
_geom_bond_site_symmetry_1
_geom_bond_site_symmetry_2
O7 C16 1_555 1_555
O8 C16 1_555 1_555
C9 C10 1_555 1_555
C10 H5 1_555 1_555
C11 C10 1_555 1_555
H6 C11 1_555 1_555
C12 C11 1_555 1_555
C13 C12 1_555 1_555
H7 C13 1_555 1_555
C14 C9 1_555 1_555
H8 C14 1_555 1_555
C16 C12 1_555 1_555
Zn4 O8 1_555 1_555
Zn7 O7 1_555 1_555
C9 C15 1_555 1_555
C13 C14 1_555 1_555
Zn4 O3 1_555 1_555
Zn7 O4 1_555 1_555
O3 C8 1_555 1_555
O4 C8 1_555 1_555
O5 Zn4 1_555 1_555
O6 Zn7 1_555 1_555
N1 Zn4 1_555 1_555
F1 C27 1_555 1_555
H2 C3 1_555 1_555
C4 C3 1_555 1_555
C5 C4 1_555 1_555
H3 C5 1_555 1_555
C8 C4 1_555 1_555
C17 N1 1_555 1_555
H9 C17 1_555 1_555
C18 C17 1_555 1_555
H10 C18 1_555 1_555
C19 C18 1_555 1_555
C20 C19 1_555 1_555
H11 C20 1_555 1_555
C21 N1 1_555 1_555
H12 C21 1_555 1_555
C22 C19 1_555 1_555
C27 C22 1_555 1_555
O9 Zn4 1_555 1_555
O10 Zn7 1_555 1_555
N3 Zn7 1_555 1_555
C20 C21 1_555 1_555
N3 C30 1_555 1_555
H16 C30 1_555 1_555
C31 N3 1_555 1_555
H17 C31 1_555 1_555
O9 C7 1_555 1_555
O10 C7 1_555 1_555
C1 C2 1_555 1_555
C2 H1 1_555 1_555
C6 C1 1_555 1_555
H4 C6 1_555 1_555
C7 C1 1_555 1_555
H13 C23 1_555 1_555
C24 C23 1_555 1_555
H14 C24 1_555 1_555
C25 C24 1_555 1_555
C26 C25 1_555 1_555
C28 C25 1_555 1_555
C29 C28 1_555 1_555
H15 C29 1_555 1_555
C32 C28 1_555 1_555
H18 C32 1_555 1_555
O1 C7_2 1_555 1_555
O2 C7_2 1_555 1_555
C1_2 C2_2 1_555 1_555
C2_2 H1_2 1_555 1_555
C6_2 C1_2 1_555 1_555
H4_2 C6_2 1_555 1_555
C7_2 C1_2 1_555 1_555
H13_2 C23_2 1_555 1_555
C24_2 C23_2 1_555 1_555
H14_2 C24_2 1_555 1_555
C25_2 C24_2 1_555 1_555
C26_2 C25_2 1_555 1_555
C28_2 C25_2 1_555 1_555
C29_2 C28_2 1_555 1_555
H15_2 C29_2 1_555 1_555
C32_2 C28_2 1_555 1_555
H18_2 C32_2 1_555 1_555
Zn3 O1 1_555 1_555
Zn5 O2 1_555 1_555
N2 C30_2 1_555 1_555
H16_2 C30_2 1_555 1_555
C31_2 N2 1_555 1_555
H17_2 C31_2 1_555 1_555
Zn5 N2 1_555 1_555
Zn3 O3_2 1_555 1_555
Zn5 O4_2 1_555 1_555
O3_2 C8_2 1_555 1_555
O4_2 C8_2 1_555 1_555
O5_2 Zn3 1_555 1_555
O6_2 Zn5 1_555 1_555
N1_2 Zn3 1_555 1_555
F1_2 C27_2 1_555 1_555
H2_2 C3_2 1_555 1_555
C4_2 C3_2 1_555 1_555
C5_2 C4_2 1_555 1_555
H3_2 C5_2 1_555 1_555
C8_2 C4_2 1_555 1_555
C17_2 N1_2 1_555 1_555
H9_2 C17_2 1_555 1_555
C18_2 C17_2 1_555 1_555
H10_2 C18_2 1_555 1_555
C19_2 C18_2 1_555 1_555
C20_2 C19_2 1_555 1_555
H11_2 C20_2 1_555 1_555
C21_2 N1_2 1_555 1_555
H12_2 C21_2 1_555 1_555
C22_2 C19_2 1_555 1_555
C27_2 C22_2 1_555 1_555
O11 Zn5 1_555 1_555
O12 Zn3 1_555 1_555
C20_2 C21_2 1_555 1_555
O11 C16_2 1_555 1_555
O12 C16_2 1_555 1_555
C9_2 C10_2 1_555 1_555
C10_2 H5_2 1_555 1_555
C11_2 C10_2 1_555 1_555
H6_2 C11_2 1_555 1_555
C12_2 C11_2 1_555 1_555
C13_2 C12_2 1_555 1_555
H7_2 C13_2 1_555 1_555
C14_2 C9_2 1_555 1_555
H8_2 C14_2 1_555 1_555
C16_2 C12_2 1_555 1_555
C9_2 C15_2 1_555 1_555
C13_2 C14_2 1_555 1_555

#END
