
###############################################################################
#
# This file contains modified crystal structure data generated from the
# MOF subset of the Cambridge Structural Database (CSD) v543 
# hosted by the Cambridge Crystallographic Data Centre (CCDC).
#
# This work is licensed under the Creative Commons
# Attribution-NonCommercial-ShareAlike 4.0 International License.
# To view a copy of this license, visit
# http://creativecommons.org/licenses/by-nc-sa/4.0/
# or send a letter to
# Creative Commons, PO Box 1866, Mountain View, CA 94042, USA.
#
# CIF created using the CSD Python API on 29 September 2022
# The structure has been converted into the P1 space group
# The structure has a 3D framework
# The original CSD entry KANDEK is in the triclinic crystal system
# The framework has been calculated to contain at least 10.0% void space
# The void calculation uses a probe of radius 1.32A, grid spacing 0.4
#
###############################################################################

data_KANDEK
_chemical_formula_moiety         '(C64 H36 F4 N4 O14 Zn4)n'
_symmetry_cell_setting           triclinic
_symmetry_space_group_name_H-M   'P 1'
_symmetry_Int_Tables_number      1
_space_group_name_Hall           'P 1'
loop_
_symmetry_equiv_pos_site_id
_symmetry_equiv_pos_as_xyz
1 x,y,z
_cell_length_a                   10.865(2)
_cell_length_b                   10.960(2)
_cell_length_c                   15.272(3)
_cell_angle_alpha                79.28(3)
_cell_angle_beta                 83.75(3)
_cell_angle_gamma                84.50(3)
_cell_volume                     1770.91
loop_
_atom_site_label
_atom_site_type_symbol
_atom_site_fract_x
_atom_site_fract_y
_atom_site_fract_z
Zn4 Zn 0.04628(7) 0.15829(7) 0.30364(5)
Zn6 Zn 0.05462(7) 0.21235(7) 0.10297(5)
O3 O 0.0478(5) 0.0221(4) 0.1318(3)
O1 O 0.0472(5) 0.3482(4) 0.2767(3)
O2 O 0.0549(4) 0.3884(4) 0.1248(3)
O4 O 0.0465(4) 0.9802(4) 0.2835(3)
O5 O 0.2329(4) 0.1454(5) 0.3131(3)
O6 O 0.2251(4) 0.1786(5) 0.1641(3)
O7 O 0.8678(5) 0.2281(5) 0.0918(3)
O8 O 0.8749(4) 0.1918(5) 0.2402(3)
C1 C 0.0529(7) 0.5568(6) 0.2023(5)
C2 C 0.0967(7) 0.6372(7) 0.1269(5)
H1 H 0.1265 0.6061 0.0753
C3 C 0.0967(7) 0.7662(6) 0.1273(5)
H2 H 0.1272 0.8195 0.0765
C4 C 0.0505(7) 0.8133(7) 0.2048(5)
C5 C 0.0059(6) 0.7305(6) 0.2821(5)
C6 C 0.0061(7) 0.6046(7) 0.2793(5)
C7 C 0.0521(6) 0.4204(6) 0.2010(5)
C8 C 0.0487(6) 0.9475(6) 0.2084(5)
C9 C 0.4212(6) 0.1805(6) 0.2191(5)
C10 C 0.4802(7) 0.2022(7) 0.1291(5)
H5 H 0.4331 0.2080 0.0809
C11 C 0.6083(6) 0.2145(7) 0.1138(5)
H6 H 0.6466 0.2298 0.0558
C12 C 0.6789(7) 0.2033(7) 0.1887(5)
C13 C 0.6203(7) 0.1836(7) 0.2757(5)
H7 H 0.6667 0.1789 0.3241
C14 C 0.4931(6) 0.1710(7) 0.2904(5)
H8 H 0.4557 0.1561 0.3487
C15 C 0.2829(7) 0.1675(6) 0.2323(6)
C16 C 0.8169(6) 0.2085(6) 0.1734(5)
N3 N 0.1547(5) 0.2209(5) 0.9802(4)
N2 N 0.9395(5) 0.1451(5) 0.4236(4)
F1 F 0.4927(4) 0.1008(5) 0.5452(3)
F2 F 0.3055(4) 0.1245(4) 0.6710(3)
H3 H 0.9767 0.7604 0.3342
H4 H 0.9747 0.5509 0.3296
C17 C 0.2227(7) 0.3189(7) 0.9459(5)
H9 H 0.2093 0.3896 0.9722
C18 C 0.3116(8) 0.3187(8) 0.8735(5)
H10 H 0.3560 0.3881 0.8515
C19 C 0.3330(6) 0.2128(7) 0.8343(5)
C20 C 0.2603(7) 0.1120(7) 0.8683(5)
H11 H 0.2703 0.0407 0.8426
C21 C 0.1739(7) 0.1206(7) 0.9406(5)
H12 H 0.1267 0.0533 0.9630
C22 C 0.4350(7) 0.2032(7) 0.7615(5)
C23 C 0.5546(8) 0.2374(9) 0.7702(5)
H13 H 0.5682 0.2691 0.8204
C24 C 0.6535(8) 0.2241(9) 0.7040(5)
H14 H 0.7310 0.2488 0.7108
C25 C 0.6371(7) 0.1736(7) 0.6268(5)
C26 C 0.5158(7) 0.1419(7) 0.6191(5)
C27 C 0.4200(7) 0.1568(7) 0.6841(5)
C28 C 0.7405(7) 0.1607(8) 0.5569(5)
C29 C 0.8273(7) 0.2507(8) 0.5366(5)
H15 H 0.8206 0.3167 0.5677
C30 C 0.9238(7) 0.2412(8) 0.4694(5)
H16 H 0.9794 0.3029 0.4556
C31 C 0.8614(7) 0.0566(7) 0.4466(5)
C32 C 0.7593(7) 0.0607(6) 0.5118(5)
H17 H 0.8746 0.9877 0.4183
H18 H 0.7054 0.9974 0.5243
H17_2 H 0.1254 0.0123 0.5817
H18_2 H 0.2946 0.0026 0.4757
N1 N 0.8453(5) 0.7791(5) 0.0198(4)
N2_2 N 0.0605(5) 0.8549(5) 0.5764(4)
F1_2 F 0.5073(4) 0.8992(5) 0.4548(3)
F2_2 F 0.6945(4) 0.8755(4) 0.3290(3)
H3_2 H 0.0233 0.2396 0.6658
H4_2 H 0.0253 0.4491 0.6704
C17_2 C 0.7773(7) 0.6811(7) 0.0541(5)
H9_2 H 0.7907 0.6104 0.0278
C18_2 C 0.6884(8) 0.6813(8) 0.1265(5)
H10_2 H 0.6440 0.6119 0.1485
C19_2 C 0.6670(6) 0.7872(7) 0.1657(5)
C20_2 C 0.7397(7) 0.8880(7) 0.1317(5)
H11_2 H 0.7297 0.9593 0.1574
C21_2 C 0.8261(7) 0.8794(7) 0.0594(5)
H12_2 H 0.8733 0.9467 0.0370
C22_2 C 0.5650(7) 0.7968(7) 0.2385(5)
C23_2 C 0.4454(8) 0.7626(9) 0.2298(5)
H13_2 H 0.4318 0.7309 0.1796
C24_2 C 0.3465(8) 0.7759(9) 0.2960(5)
H14_2 H 0.2690 0.7512 0.2892
C25_2 C 0.3629(7) 0.8264(7) 0.3732(5)
C26_2 C 0.4842(7) 0.8581(7) 0.3809(5)
C27_2 C 0.5800(7) 0.8432(7) 0.3159(5)
C28_2 C 0.2595(7) 0.8393(8) 0.4431(5)
C29_2 C 0.1727(7) 0.7493(8) 0.4634(5)
H15_2 H 0.1794 0.6833 0.4323
C30_2 C 0.0762(7) 0.7588(8) 0.5306(5)
H16_2 H 0.0206 0.6971 0.5444
C31_2 C 0.1386(7) 0.9434(7) 0.5534(5)
C32_2 C 0.2407(7) 0.9393(6) 0.4882(5)
O11 O 0.1322(5) 0.7719(5) 0.9082(3)
O12 O 0.1251(4) 0.8082(5) 0.7598(3)
Zn7 Zn 0.94538(7) 0.78765(7) 0.89703(5)
O10 O 0.9535(4) 0.0198(4) 0.7165(3)
Zn1 Zn 0.95372(7) 0.84171(7) 0.69636(5)
O1_2 O 0.9528(5) 0.6518(4) 0.7233(3)
O2_2 O 0.9451(4) 0.6116(4) 0.8752(3)
O5_2 O 0.7671(4) 0.8546(5) 0.6869(3)
O6_2 O 0.7749(4) 0.8214(5) 0.8359(3)
C1_2 C 0.9471(7) 0.4432(6) 0.7977(5)
C2_2 C 0.9033(7) 0.3628(7) 0.8731(5)
H1_2 H 0.8735 0.3939 0.9247
C3_2 C 0.9033(7) 0.2338(6) 0.8727(5)
H2_2 H 0.8728 0.1805 0.9235
C4_2 C 0.9495(7) 0.1867(7) 0.7952(5)
C5_2 C 0.9941(6) 0.2695(6) 0.7179(5)
C6_2 C 0.9939(7) 0.3954(7) 0.7207(5)
C7_2 C 0.9479(6) 0.5796(6) 0.7990(5)
C8_2 C 0.9513(6) 0.0525(6) 0.7916(5)
C9_2 C 0.5788(6) 0.8195(6) 0.7809(5)
C10_2 C 0.5198(7) 0.7978(7) 0.8709(5)
H5_2 H 0.5669 0.7920 0.9191
C11_2 C 0.3917(6) 0.7855(7) 0.8862(5)
H6_2 H 0.3534 0.7702 0.9442
C12_2 C 0.3211(7) 0.7967(7) 0.8113(5)
C13_2 C 0.3797(7) 0.8164(7) 0.7243(5)
H7_2 H 0.3333 0.8211 0.6759
C14_2 C 0.5069(6) 0.8290(7) 0.7096(5)
H8_2 H 0.5443 0.8439 0.6513
C15_2 C 0.7171(7) 0.8325(6) 0.7677(6)
C16_2 C 0.1831(6) 0.7915(6) 0.8266(5)
O9 O 0.9522(5) 0.9779(4) 0.8682(3)
loop_
_geom_bond_atom_site_label_1
_geom_bond_atom_site_label_2
_geom_bond_site_symmetry_1
_geom_bond_site_symmetry_2
Zn6 O3 1_555 1_555
Zn4 O1 1_555 1_555
Zn6 O2 1_555 1_555
O1 C7 1_555 1_555
O2 C7 1_555 1_555
O4 C8 1_555 1_555
O5 Zn4 1_555 1_555
O6 Zn6 1_555 1_555
O7 C16 1_555 1_555
O8 C16 1_555 1_555
C1 C2 1_555 1_555
C2 H1 1_555 1_555
C3 C2 1_555 1_555
H2 C3 1_555 1_555
C4 C3 1_555 1_555
C5 C4 1_555 1_555
C6 C1 1_555 1_555
C7 C1 1_555 1_555
C8 C4 1_555 1_555
C9 C10 1_555 1_555
C10 H5 1_555 1_555
C11 C10 1_555 1_555
H6 C11 1_555 1_555
C12 C11 1_555 1_555
C13 C12 1_555 1_555
H7 C13 1_555 1_555
C14 C9 1_555 1_555
H8 C14 1_555 1_555
C15 O5 1_555 1_555
C16 C12 1_555 1_555
O6 C15 1_555 1_555
C5 C6 1_555 1_555
C9 C15 1_555 1_555
C13 C14 1_555 1_555
N3 C17 1_555 1_555
F1 C26 1_555 1_555
F2 C27 1_555 1_555
C17 H9 1_555 1_555
C18 C17 1_555 1_555
H10 C18 1_555 1_555
C19 C18 1_555 1_555
C20 C19 1_555 1_555
H11 C20 1_555 1_555
C21 N3 1_555 1_555
H12 C21 1_555 1_555
C22 C19 1_555 1_555
C23 C22 1_555 1_555
H13 C23 1_555 1_555
C24 C23 1_555 1_555
H14 C24 1_555 1_555
C25 C24 1_555 1_555
C26 C25 1_555 1_555
C27 C22 1_555 1_555
C28 C25 1_555 1_555
C29 C28 1_555 1_555
H15 C29 1_555 1_555
C30 N2 1_555 1_555
H16 C30 1_555 1_555
C31 N2 1_555 1_555
C32 C28 1_555 1_555
C20 C21 1_555 1_555
C26 C27 1_555 1_555
C29 C30 1_555 1_555
C31 C32 1_555 1_555
N1 C17_2 1_555 1_555
F1_2 C26_2 1_555 1_555
F2_2 C27_2 1_555 1_555
C17_2 H9_2 1_555 1_555
C18_2 C17_2 1_555 1_555
H10_2 C18_2 1_555 1_555
C19_2 C18_2 1_555 1_555
C20_2 C19_2 1_555 1_555
H11_2 C20_2 1_555 1_555
C21_2 N1 1_555 1_555
H12_2 C21_2 1_555 1_555
C22_2 C19_2 1_555 1_555
C23_2 C22_2 1_555 1_555
H13_2 C23_2 1_555 1_555
C24_2 C23_2 1_555 1_555
H14_2 C24_2 1_555 1_555
C25_2 C24_2 1_555 1_555
C26_2 C25_2 1_555 1_555
C27_2 C22_2 1_555 1_555
C28_2 C25_2 1_555 1_555
C29_2 C28_2 1_555 1_555
H15_2 C29_2 1_555 1_555
C30_2 N2_2 1_555 1_555
H16_2 C30_2 1_555 1_555
C31_2 N2_2 1_555 1_555
C32_2 C28_2 1_555 1_555
C20_2 C21_2 1_555 1_555
C26_2 C27_2 1_555 1_555
C29_2 C30_2 1_555 1_555
C31_2 C32_2 1_555 1_555
Zn1 O1_2 1_555 1_555
Zn7 O2_2 1_555 1_555
O1_2 C7_2 1_555 1_555
O2_2 C7_2 1_555 1_555
O10 C8_2 1_555 1_555
O5_2 Zn1 1_555 1_555
O6_2 Zn7 1_555 1_555
O11 C16_2 1_555 1_555
O12 C16_2 1_555 1_555
C1_2 C2_2 1_555 1_555
C2_2 H1_2 1_555 1_555
C3_2 C2_2 1_555 1_555
H2_2 C3_2 1_555 1_555
C4_2 C3_2 1_555 1_555
C5_2 C4_2 1_555 1_555
C6_2 C1_2 1_555 1_555
C7_2 C1_2 1_555 1_555
C8_2 C4_2 1_555 1_555
C9_2 C10_2 1_555 1_555
C10_2 H5_2 1_555 1_555
C11_2 C10_2 1_555 1_555
H6_2 C11_2 1_555 1_555
C12_2 C11_2 1_555 1_555
C13_2 C12_2 1_555 1_555
H7_2 C13_2 1_555 1_555
C14_2 C9_2 1_555 1_555
H8_2 C14_2 1_555 1_555
C15_2 O5_2 1_555 1_555
C16_2 C12_2 1_555 1_555
O9 Zn7 1_555 1_555
O6_2 C15_2 1_555 1_555
C5_2 C6_2 1_555 1_555
C9_2 C15_2 1_555 1_555
C13_2 C14_2 1_555 1_555

#END
