
###############################################################################
#
# This file contains modified crystal structure data generated from the
# MOF subset of the Cambridge Structural Database (CSD) v543 
# hosted by the Cambridge Crystallographic Data Centre (CCDC).
#
# This work is licensed under the Creative Commons
# Attribution-NonCommercial-ShareAlike 4.0 International License.
# To view a copy of this license, visit
# http://creativecommons.org/licenses/by-nc-sa/4.0/
# or send a letter to
# Creative Commons, PO Box 1866, Mountain View, CA 94042, USA.
#
# CIF created using the CSD Python API on 29 September 2022
# The structure has been converted into the P1 space group
# The structure has a 3D framework
# The original CSD entry KAPHUH is in the orthorhombic crystal system
# The framework has been calculated to contain at least 10.0% void space
# The void calculation uses a probe of radius 1.32A, grid spacing 0.4
#
###############################################################################

data_KAPHUH
_chemical_formula_moiety         '(C106 H56 Mn26 N52 O8)n'
_symmetry_cell_setting           triclinic
_symmetry_space_group_name_H-M   'P 1'
_symmetry_Int_Tables_number      1
_space_group_name_Hall           'P 1'
loop_
_symmetry_equiv_pos_site_id
_symmetry_equiv_pos_as_xyz
1 x,y,z
_cell_length_a                   16.039(5)
_cell_length_b                   17.851(4)
_cell_length_c                   11.558(3)
_cell_angle_alpha                90
_cell_angle_beta                 90
_cell_angle_gamma                90
_cell_volume                     3309.2
loop_
_atom_site_label
_atom_site_type_symbol
_atom_site_fract_x
_atom_site_fract_y
_atom_site_fract_z
Mn12 Mn 0.10679(10) 0.66858(10) -0.000000
Mn12_2 Mn 0.10679(10) 0.66858(10) 1.000000
Mn6 Mn 0.500000 0.500000 -0.000000
Mn7 Mn 0.39321(10) 0.16858(10) -0.000000
Mn8 Mn 0.60679(10) 0.83142(10) -0.000000
C1 C 0.0859(8) 0.3483(7) -0.000000
C2 C 0.1569(9) 0.4982(7) -0.000000
C4 C 0.2519(8) 0.2895(8) -0.000000
C5 C 0.3159(8) 0.4316(8) -0.000000
C6 C 0.4602(7) 0.4506(6) 0.2554(8)
H1 H 0.430109 0.414587 0.214971
C7 C 0.4592(8) 0.4476(7) 0.3716(8)
H2 H 0.430115 0.408946 0.407516
C8 C 0.500000 0.500000 0.4402(9)
C9 C 0.4435(10) 0.1319(8) 0.2553(11)
H3 H 0.473363 0.095516 0.215394
C10 C 0.4496(10) 0.1316(8) 0.3715(10)
H4 H 0.482889 0.096167 0.408074
C11 C 0.4072(6) 0.1832(6) 0.4357(8)
C12 C 0.3658(7) 0.2360(6) 0.3750(8)
H5 H 0.339090 0.274999 0.413454
C13 C 0.3631(7) 0.2320(6) 0.2559(8)
H6 H 0.334030 0.268875 0.215872
N1 N 0.0202(8) 0.3220(7) -0.000000
N2 N 0.1308(8) 0.5571(6) -0.000000
N4 N 0.2933(7) 0.2356(6) -0.000000
N5 N 0.3819(6) 0.4472(9) -0.000000
N6 N 0.500000 0.500000 0.1968(8)
N7 N 0.4004(5) 0.1777(5) 0.1949(7)
O1 O 0.4312(7) 0.6070(6) -0.000000
H7 H 0.407883 0.614571 0.075980
Mn1 Mn 0.19965(10) 0.39083(10) -0.000000
C14 C 0.5398(7) 0.5494(6) 0.2554(8)
H8 H 0.569891 0.585413 0.214971
C15 C 0.5408(8) 0.5524(7) 0.3716(8)
H9 H 0.569885 0.591054 0.407516
C16 C 0.5398(7) 0.5494(6) 0.7446(8)
H10 H 0.569891 0.585413 0.785029
C17 C 0.5408(8) 0.5524(7) 0.6284(8)
H11 H 0.569885 0.591054 0.592484
C18 C 0.500000 0.500000 0.5598(9)
N8 N 0.500000 0.500000 0.8032(8)
C19 C 0.4602(7) 0.4506(6) 0.7446(8)
H12 H 0.430109 0.414587 0.785029
C20 C 0.4592(8) 0.4476(7) 0.6284(8)
H13 H 0.430115 0.408946 0.592484
C21 C 0.4435(10) 0.1319(8) 0.7447(11)
H14 H 0.473363 0.095516 0.784606
C22 C 0.4496(10) 0.1316(8) 0.6285(10)
H15 H 0.482889 0.096167 0.591926
C23 C 0.4072(6) 0.1832(6) 0.5643(8)
C24 C 0.3658(7) 0.2360(6) 0.6250(8)
H16 H 0.339090 0.274999 0.586546
C25 C 0.3631(7) 0.2320(6) 0.7441(8)
H17 H 0.334030 0.268875 0.784128
N9 N 0.4004(5) 0.1777(5) 0.8051(7)
C26 C 0.9141(8) 0.6517(7) -0.000000
C27 C 0.8431(9) 0.5018(7) -0.000000
C29 C 0.7481(8) 0.7105(8) -0.000000
C30 C 0.6841(8) 0.5684(8) -0.000000
C31 C 0.5565(10) 0.8681(8) 0.2553(11)
H19 H 0.526637 0.904484 0.215394
C32 C 0.5504(10) 0.8684(8) 0.3715(10)
H20 H 0.517111 0.903833 0.408074
C33 C 0.5928(6) 0.8168(6) 0.4357(8)
C34 C 0.6342(7) 0.7640(6) 0.3750(8)
H21 H 0.660910 0.725001 0.413454
C35 C 0.6369(7) 0.7680(6) 0.2559(8)
H22 H 0.665970 0.731125 0.215872
N10 N 0.9798(8) 0.6780(7) -0.000000
N11 N 0.8692(8) 0.4429(6) -0.000000
N13 N 0.7067(7) 0.7644(6) -0.000000
N14 N 0.6181(6) 0.5528(9) -0.000000
N15 N 0.5996(5) 0.8223(5) 0.1949(7)
O2 O 0.5688(7) 0.3930(6) -0.000000
H23 H 0.592117 0.385429 0.075980
Mn4 Mn 0.80035(10) 0.60917(10) -0.000000
C36 C 0.5565(10) 0.8681(8) 0.7447(11)
H24 H 0.526637 0.904484 0.784606
C37 C 0.5504(10) 0.8684(8) 0.6285(10)
H25 H 0.517111 0.903833 0.591926
C38 C 0.5928(6) 0.8168(6) 0.5643(8)
C39 C 0.6342(7) 0.7640(6) 0.6250(8)
H26 H 0.660910 0.725001 0.586546
C40 C 0.6369(7) 0.7680(6) 0.7441(8)
H27 H 0.665970 0.731125 0.784128
N16 N 0.5996(5) 0.8223(5) 0.8051(7)
C41 C 0.7999(6) 0.6076(6) 0.1785(10)
N17 N 0.7969(7) 0.6084(6) 0.2783(9)
C42 C 0.2001(6) 0.3924(6) 0.1785(10)
N18 N 0.2031(7) 0.3916(6) 0.2783(9)
N19 N 0.5202(8) 0.1780(7) -0.000000
N20 N 0.4798(8) 0.8220(7) -0.000000
N21 N 0.6308(8) 0.9429(6) -0.000000
N22 N 0.3692(8) 0.0571(6) -0.000000
Mn6_2 Mn 0.500000 0.500000 1.000000
Mn7_2 Mn 0.39321(10) 0.16858(10) 1.000000
Mn8_2 Mn 0.60679(10) 0.83142(10) 1.000000
Mn10 Mn 0.89321(10) 0.33142(10) -0.000000
C1_2 C 0.0859(8) 0.3483(7) 1.000000
C2_2 C 0.1569(9) 0.4982(7) 1.000000
C3 C 0.2001(6) 0.3924(6) 0.8215(10)
C4_2 C 0.2519(8) 0.2895(8) 1.000000
C5_2 C 0.3159(8) 0.4316(8) 1.000000
N1_2 N 0.0202(8) 0.3220(7) 1.000000
N2_2 N 0.1308(8) 0.5571(6) 1.000000
N3 N 0.2031(7) 0.3916(6) 0.7217(9)
N4_2 N 0.2933(7) 0.2356(6) 1.000000
N5_2 N 0.3819(6) 0.4472(9) 1.000000
O1_2 O 0.4312(7) 0.6070(6) 1.000000
Mn1_2 Mn 0.19965(10) 0.39083(10) 1.000000
H18 H 0.407883 0.614571 0.924020
C26_2 C 0.9141(8) 0.6517(7) 1.000000
C27_2 C 0.8431(9) 0.5018(7) 1.000000
C28 C 0.7999(6) 0.6076(6) 0.8215(10)
C29_2 C 0.7481(8) 0.7105(8) 1.000000
C30_2 C 0.6841(8) 0.5684(8) 1.000000
N10_2 N 0.9798(8) 0.6780(7) 1.000000
N11_2 N 0.8692(8) 0.4429(6) 1.000000
N12 N 0.7969(7) 0.6084(6) 0.7217(9)
N13_2 N 0.7067(7) 0.7644(6) 1.000000
N14_2 N 0.6181(6) 0.5528(9) 1.000000
O2_2 O 0.5688(7) 0.3930(6) 1.000000
Mn4_2 Mn 0.80035(10) 0.60917(10) 1.000000
H28 H 0.592117 0.385429 0.924020
N19_2 N 0.5202(8) 0.1780(7) 1.000000
N20_2 N 0.4798(8) 0.8220(7) 1.000000
N21_2 N 0.6308(8) 0.9429(6) 1.000000
N22_2 N 0.3692(8) 0.0571(6) 1.000000
Mn10_2 Mn 0.89321(10) 0.33142(10) 1.000000
Mn2 Mn -0.000000 0.000000 0.000000
O2_3 O 0.0688(7) 0.1070(6) 0.000000
H28_2 H 0.092117 0.114571 0.075980
N23 N -0.000000 0.000000 0.1968(8)
C8_2 C 0.000000 0.000000 0.5598(9)
N6_2 N -0.000000 0.000000 0.8032(8)
Mn2_2 Mn -0.000000 0.000000 1.000000
C18_2 C 0.000000 0.000000 0.4402(9)
O2_4 O 0.0688(7) 0.1070(6) 1.000000
H23_2 H 0.092117 0.114571 0.924020
Mn2_3 Mn -0.000000 1.000000 0.000000
C26_3 C 0.4141(8) 0.8483(7) 0.000000
C27_3 C 0.3431(9) 0.9982(7) 0.000000
C28_2 C 0.2999(6) 0.8924(6) 0.1785(10)
C29_3 C 0.2481(8) 0.7895(8) 0.000000
C30_3 C 0.1841(8) 0.9316(8) 0.000000
N12_2 N 0.2969(7) 0.8916(6) 0.2783(9)
N13_3 N 0.2067(7) 0.7356(6) 0.000000
N14_3 N 0.1181(6) 0.9472(9) 0.000000
Mn4_3 Mn 0.30035(10) 0.89083(10) 0.000000
N23_2 N -0.000000 1.000000 0.1968(8)
N24 N 0.0996(5) 0.6777(5) 0.1949(7)
C8_3 C 0.000000 1.000000 0.5598(9)
N6_3 N -0.000000 1.000000 0.8032(8)
Mn2_4 Mn -0.000000 1.000000 1.000000
C14_2 C 0.0398(7) 0.9506(6) 0.7446(8)
H8_2 H 0.069891 0.914587 0.785029
C15_2 C 0.0408(8) 0.9476(7) 0.6284(8)
H9_2 H 0.069885 0.908946 0.592484
C16_2 C 0.0398(7) 0.9506(6) 0.2554(8)
H10_2 H 0.069891 0.914587 0.214971
C17_2 C 0.0408(8) 0.9476(7) 0.3716(8)
H11_2 H 0.069885 0.908946 0.407516
C18_3 C 0.000000 1.000000 0.4402(9)
C26_4 C 0.4141(8) 0.8483(7) 1.000000
C27_4 C 0.3431(9) 0.9982(7) 1.000000
C29_4 C 0.2481(8) 0.7895(8) 1.000000
C30_4 C 0.1841(8) 0.9316(8) 1.000000
C31_2 C 0.0565(10) 0.6319(8) 0.7447(11)
H19_2 H 0.026637 0.595516 0.784606
C32_2 C 0.0504(10) 0.6316(8) 0.6285(10)
H20_2 H 0.017111 0.596167 0.591926
C33_2 C 0.0928(6) 0.6832(6) 0.5643(8)
C34_2 C 0.1342(7) 0.7360(6) 0.6250(8)
H21_2 H 0.160910 0.774999 0.586546
C35_2 C 0.1369(7) 0.7320(6) 0.7441(8)
H22_2 H 0.165970 0.768875 0.784128
N13_4 N 0.2067(7) 0.7356(6) 1.000000
N14_4 N 0.1181(6) 0.9472(9) 1.000000
N15_2 N 0.0996(5) 0.6777(5) 0.8051(7)
Mn4_4 Mn 0.30035(10) 0.89083(10) 1.000000
C36_2 C 0.0565(10) 0.6319(8) 0.2553(11)
H24_2 H 0.026637 0.595516 0.215394
C37_2 C 0.0504(10) 0.6316(8) 0.3715(10)
H25_2 H 0.017111 0.596167 0.408074
C38_2 C 0.0928(6) 0.6832(6) 0.4357(8)
C39_2 C 0.1342(7) 0.7360(6) 0.3750(8)
H26_2 H 0.160910 0.774999 0.413454
C40_2 C 0.1369(7) 0.7320(6) 0.2559(8)
H27_2 H 0.165970 0.768875 0.215872
C41_2 C 0.2999(6) 0.8924(6) 0.8215(10)
N17_2 N 0.2969(7) 0.8916(6) 0.7217(9)
C1_3 C 0.5859(8) 0.1517(7) 0.000000
C2_3 C 0.6569(9) 0.0018(7) 0.000000
C3_2 C 0.7001(6) 0.1076(6) 0.1785(10)
C4_3 C 0.7519(8) 0.2105(8) 0.000000
C5_3 C 0.8159(8) 0.0684(8) 0.000000
N3_2 N 0.7031(7) 0.1084(6) 0.2783(9)
N4_3 N 0.7933(7) 0.2644(6) 0.000000
N5_3 N 0.8819(6) 0.0528(9) 0.000000
Mn1_3 Mn 0.69965(10) 0.10917(10) 0.000000
Mn2_5 Mn 1.000000 0.000000 0.000000
N23_3 N 1.000000 0.000000 0.1968(8)
N25 N 0.9004(5) 0.3223(5) 0.1949(7)
C1_4 C 0.5859(8) 0.1517(7) 1.000000
C2_4 C 0.6569(9) 0.0018(7) 1.000000
C4_4 C 0.7519(8) 0.2105(8) 1.000000
C5_4 C 0.8159(8) 0.0684(8) 1.000000
C6_2 C 0.9602(7) 0.0494(6) 0.7446(8)
H1_2 H 0.930109 0.085413 0.785029
C7_2 C 0.9592(8) 0.0524(7) 0.6284(8)
H2_2 H 0.930115 0.091054 0.592484
C8_4 C 1.000000 0.000000 0.5598(9)
C9_2 C 0.9435(10) 0.3681(8) 0.7447(11)
H3_2 H 0.973363 0.404484 0.784606
C10_2 C 0.9496(10) 0.3684(8) 0.6285(10)
H4_2 H 0.982889 0.403833 0.591926
C11_2 C 0.9072(6) 0.3168(6) 0.5643(8)
C12_2 C 0.8658(7) 0.2640(6) 0.6250(8)
H5_2 H 0.839090 0.225001 0.586546
C13_2 C 0.8631(7) 0.2680(6) 0.7441(8)
H6_2 H 0.834030 0.231125 0.784128
N4_4 N 0.7933(7) 0.2644(6) 1.000000
N5_4 N 0.8819(6) 0.0528(9) 1.000000
N6_4 N 1.000000 0.000000 0.8032(8)
N7_2 N 0.9004(5) 0.3223(5) 0.8051(7)
Mn1_4 Mn 0.69965(10) 0.10917(10) 1.000000
Mn2_6 Mn 1.000000 0.000000 1.000000
C18_4 C 1.000000 0.000000 0.4402(9)
C19_2 C 0.9602(7) 0.0494(6) 0.2554(8)
H12_2 H 0.930109 0.085413 0.214971
C20_2 C 0.9592(8) 0.0524(7) 0.3716(8)
H13_2 H 0.930115 0.091054 0.407516
C21_2 C 0.9435(10) 0.3681(8) 0.2553(11)
H14_2 H 0.973363 0.404484 0.215394
C22_2 C 0.9496(10) 0.3684(8) 0.3715(10)
H15_2 H 0.982889 0.403833 0.408074
C23_2 C 0.9072(6) 0.3168(6) 0.4357(8)
C24_2 C 0.8658(7) 0.2640(6) 0.3750(8)
H16_2 H 0.839090 0.225001 0.413454
C25_2 C 0.8631(7) 0.2680(6) 0.2559(8)
H17_2 H 0.834030 0.231125 0.215872
C42_2 C 0.7001(6) 0.1076(6) 0.8215(10)
N18_2 N 0.7031(7) 0.1084(6) 0.7217(9)
O1_3 O 0.9312(7) 0.8930(6) 0.000000
Mn2_7 Mn 1.000000 1.000000 0.000000
H18_2 H 0.907883 0.885429 0.075980
N23_4 N 1.000000 1.000000 0.1968(8)
C8_5 C 1.000000 1.000000 0.5598(9)
N6_5 N 1.000000 1.000000 0.8032(8)
O1_4 O 0.9312(7) 0.8930(6) 1.000000
H7_2 H 0.907883 0.885429 0.924020
Mn2_8 Mn 1.000000 1.000000 1.000000
C18_5 C 1.000000 1.000000 0.4402(9)
loop_
_geom_bond_atom_site_label_1
_geom_bond_atom_site_label_2
_geom_bond_site_symmetry_1
_geom_bond_site_symmetry_2
C1 N1 1_555 1_555
C2 N2 1_555 1_555
C4 N4 1_555 1_555
C5 N5 1_555 1_555
C6 H1 1_555 1_555
C7 C6 1_555 1_555
H2 C7 1_555 1_555
C8 C7 1_555 1_555
C9 H3 1_555 1_555
C10 C9 1_555 1_555
H4 C10 1_555 1_555
C11 C10 1_555 1_555
C12 C11 1_555 1_555
H5 C12 1_555 1_555
C13 C12 1_555 1_555
H6 C13 1_555 1_555
N2 Mn12 1_555 1_555
N4 Mn7 1_555 1_555
N5 Mn6 1_555 1_555
N6 C6 1_555 1_555
N7 C9 1_555 1_555
O1 H7 1_555 1_555
Mn1 C1 1_555 1_555
Mn6 N6 1_555 1_555
Mn7 N7 1_555 1_555
C14 N6 1_555 1_555
H8 C14 1_555 1_555
C15 C8 1_555 1_555
H9 C15 1_555 1_555
C16 H10 1_555 1_555
C17 C16 1_555 1_555
H11 C17 1_555 1_555
C18 C8 1_555 1_555
N8 C16 1_555 1_555
C19 N8 1_555 1_555
H12 C19 1_555 1_555
C20 C18 1_555 1_555
H13 C20 1_555 1_555
C21 H14 1_555 1_555
C22 C21 1_555 1_555
H15 C22 1_555 1_555
C23 C11 1_555 1_555
C24 C23 1_555 1_555
H16 C24 1_555 1_555
C25 C24 1_555 1_555
H17 C25 1_555 1_555
N9 C21 1_555 1_555
C26 N10 1_555 1_555
C27 N11 1_555 1_555
C29 N13 1_555 1_555
C30 N14 1_555 1_555
C31 H19 1_555 1_555
C32 C31 1_555 1_555
H20 C32 1_555 1_555
C33 C32 1_555 1_555
C34 C33 1_555 1_555
H21 C34 1_555 1_555
C35 C34 1_555 1_555
H22 C35 1_555 1_555
N11 Mn10 1_555 1_555
N13 Mn8 1_555 1_555
N14 Mn6 1_555 1_555
N15 C31 1_555 1_555
O2 Mn6 1_555 1_555
H23 O2 1_555 1_555
Mn4 C26 1_555 1_555
Mn8 N15 1_555 1_555
C36 H24 1_555 1_555
C37 C36 1_555 1_555
H25 C37 1_555 1_555
C38 C33 1_555 1_555
C39 C38 1_555 1_555
H26 C39 1_555 1_555
C40 C39 1_555 1_555
H27 C40 1_555 1_555
N16 C36 1_555 1_555
C41 Mn4 1_555 1_555
N17 C41 1_555 1_555
C42 Mn1 1_555 1_555
N18 C42 1_555 1_555
N19 Mn7 1_555 1_555
N20 Mn8 1_555 1_555
N21 Mn8 1_555 1_555
N22 Mn7 1_555 1_555
Mn6_2 N8 1_555 1_555
Mn7_2 N9 1_555 1_555
Mn8_2 N16 1_555 1_555
C2 Mn1 1_555 1_555
C4 Mn1 1_555 1_555
C5 Mn1 1_555 1_555
C13 N7 1_555 1_555
O1 Mn6 1_555 1_555
C14 C15 1_555 1_555
C17 C18 1_555 1_555
C19 C20 1_555 1_555
C22 C23 1_555 1_555
C25 N9 1_555 1_555
C27 Mn4 1_555 1_555
C29 Mn4 1_555 1_555
C30 Mn4 1_555 1_555
C35 N15 1_555 1_555
C37 C38 1_555 1_555
C40 N16 1_555 1_555
C1_2 N1_2 1_555 1_555
C2_2 N2_2 1_555 1_555
C3 N3 1_555 1_555
C4_2 N4_2 1_555 1_555
C5_2 N5_2 1_555 1_555
N2_2 Mn12_2 1_555 1_555
N4_2 Mn7_2 1_555 1_555
N5_2 Mn6_2 1_555 1_555
Mn1_2 C1_2 1_555 1_555
H18 O1_2 1_555 1_555
C26_2 N10_2 1_555 1_555
C27_2 N11_2 1_555 1_555
C28 N12 1_555 1_555
C29_2 N13_2 1_555 1_555
C30_2 N14_2 1_555 1_555
N11_2 Mn10_2 1_555 1_555
N13_2 Mn8_2 1_555 1_555
N14_2 Mn6_2 1_555 1_555
O2_2 Mn6_2 1_555 1_555
Mn4_2 C26_2 1_555 1_555
H28 O2_2 1_555 1_555
N19_2 Mn7_2 1_555 1_555
N20_2 Mn8_2 1_555 1_555
N21_2 Mn8_2 1_555 1_555
N22_2 Mn7_2 1_555 1_555
C2_2 Mn1_2 1_555 1_555
C3 Mn1_2 1_555 1_555
C4_2 Mn1_2 1_555 1_555
C5_2 Mn1_2 1_555 1_555
O1_2 Mn6_2 1_555 1_555
C27_2 Mn4_2 1_555 1_555
C28 Mn4_2 1_555 1_555
C29_2 Mn4_2 1_555 1_555
C30_2 Mn4_2 1_555 1_555
O2_3 Mn2 1_555 1_555
H28_2 O2_3 1_555 1_555
N23 Mn2 1_555 1_555
Mn2_2 N6_2 1_555 1_555
C18_2 C8_2 1_555 1_555
O2_4 Mn2_2 1_555 1_555
H23_2 O2_4 1_555 1_555
C26_3 N20 1_555 1_555
C28_2 N12_2 1_555 1_555
C29_3 N13_3 1_555 1_555
C30_3 N14_3 1_555 1_555
N13_3 Mn12 1_555 1_555
N14_3 Mn2_3 1_555 1_555
Mn4_3 C26_3 1_555 1_555
N23_2 Mn2_3 1_555 1_555
N24 Mn12 1_555 1_555
C27_3 Mn4_3 1_555 1_555
C28_2 Mn4_3 1_555 1_555
C29_3 Mn4_3 1_555 1_555
C30_3 Mn4_3 1_555 1_555
Mn2_4 N6_3 1_555 1_555
C14_2 N6_3 1_555 1_555
H8_2 C14_2 1_555 1_555
C15_2 C8_3 1_555 1_555
H9_2 C15_2 1_555 1_555
C16_2 H10_2 1_555 1_555
C17_2 C16_2 1_555 1_555
H11_2 C17_2 1_555 1_555
C18_3 C8_3 1_555 1_555
N23_2 C16_2 1_555 1_555
C26_4 N20_2 1_555 1_555
C29_4 N13_4 1_555 1_555
C30_4 N14_4 1_555 1_555
C31_2 H19_2 1_555 1_555
C32_2 C31_2 1_555 1_555
H20_2 C32_2 1_555 1_555
C33_2 C32_2 1_555 1_555
C34_2 C33_2 1_555 1_555
H21_2 C34_2 1_555 1_555
C35_2 C34_2 1_555 1_555
H22_2 C35_2 1_555 1_555
N13_4 Mn12_2 1_555 1_555
N14_4 Mn2_4 1_555 1_555
N15_2 C31_2 1_555 1_555
Mn4_4 C26_4 1_555 1_555
Mn12_2 N15_2 1_555 1_555
C36_2 H24_2 1_555 1_555
C37_2 C36_2 1_555 1_555
H25_2 C37_2 1_555 1_555
C38_2 C33_2 1_555 1_555
C39_2 C38_2 1_555 1_555
H26_2 C39_2 1_555 1_555
C40_2 C39_2 1_555 1_555
H27_2 C40_2 1_555 1_555
N24 C36_2 1_555 1_555
C41_2 Mn4_4 1_555 1_555
N17_2 C41_2 1_555 1_555
C14_2 C15_2 1_555 1_555
C17_2 C18_3 1_555 1_555
C27_4 Mn4_4 1_555 1_555
C29_4 Mn4_4 1_555 1_555
C30_4 Mn4_4 1_555 1_555
C35_2 N15_2 1_555 1_555
C37_2 C38_2 1_555 1_555
C40_2 N24 1_555 1_555
C1_3 N19 1_555 1_555
C3_2 N3_2 1_555 1_555
C4_3 N4_3 1_555 1_555
C5_3 N5_3 1_555 1_555
N4_3 Mn10 1_555 1_555
N5_3 Mn2_5 1_555 1_555
Mn1_3 C1_3 1_555 1_555
N23_3 Mn2_5 1_555 1_555
N25 Mn10 1_555 1_555
C2_3 Mn1_3 1_555 1_555
C3_2 Mn1_3 1_555 1_555
C4_3 Mn1_3 1_555 1_555
C5_3 Mn1_3 1_555 1_555
C1_4 N19_2 1_555 1_555
C4_4 N4_4 1_555 1_555
C5_4 N5_4 1_555 1_555
C6_2 H1_2 1_555 1_555
C7_2 C6_2 1_555 1_555
H2_2 C7_2 1_555 1_555
C8_4 C7_2 1_555 1_555
C9_2 H3_2 1_555 1_555
C10_2 C9_2 1_555 1_555
H4_2 C10_2 1_555 1_555
C11_2 C10_2 1_555 1_555
C12_2 C11_2 1_555 1_555
H5_2 C12_2 1_555 1_555
C13_2 C12_2 1_555 1_555
H6_2 C13_2 1_555 1_555
N4_4 Mn10_2 1_555 1_555
N5_4 Mn2_6 1_555 1_555
N6_4 C6_2 1_555 1_555
N7_2 C9_2 1_555 1_555
Mn1_4 C1_4 1_555 1_555
Mn2_6 N6_4 1_555 1_555
Mn10_2 N7_2 1_555 1_555
C18_4 C8_4 1_555 1_555
C19_2 N23_3 1_555 1_555
H12_2 C19_2 1_555 1_555
C20_2 C18_4 1_555 1_555
H13_2 C20_2 1_555 1_555
C21_2 H14_2 1_555 1_555
C22_2 C21_2 1_555 1_555
H15_2 C22_2 1_555 1_555
C23_2 C11_2 1_555 1_555
C24_2 C23_2 1_555 1_555
H16_2 C24_2 1_555 1_555
C25_2 C24_2 1_555 1_555
H17_2 C25_2 1_555 1_555
N25 C21_2 1_555 1_555
C42_2 Mn1_4 1_555 1_555
N18_2 C42_2 1_555 1_555
C2_4 Mn1_4 1_555 1_555
C4_4 Mn1_4 1_555 1_555
C5_4 Mn1_4 1_555 1_555
C13_2 N7_2 1_555 1_555
C19_2 C20_2 1_555 1_555
C22_2 C23_2 1_555 1_555
C25_2 N25 1_555 1_555
H18_2 O1_3 1_555 1_555
N23_4 Mn2_7 1_555 1_555
O1_3 Mn2_7 1_555 1_555
O1_4 H7_2 1_555 1_555
Mn2_8 N6_5 1_555 1_555
C18_5 C8_5 1_555 1_555
O1_4 Mn2_8 1_555 1_555

#END
