
###############################################################################
#
# This file contains modified crystal structure data generated from the
# MOF subset of the Cambridge Structural Database (CSD) v543 
# hosted by the Cambridge Crystallographic Data Centre (CCDC).
#
# This work is licensed under the Creative Commons
# Attribution-NonCommercial-ShareAlike 4.0 International License.
# To view a copy of this license, visit
# http://creativecommons.org/licenses/by-nc-sa/4.0/
# or send a letter to
# Creative Commons, PO Box 1866, Mountain View, CA 94042, USA.
#
# CIF created using the CSD Python API on 29 September 2022
# The structure has been converted into the P1 space group
# The structure has a 3D framework
# The original CSD entry KAPHOZ is in the monoclinic crystal system
# The framework has been calculated to contain at least 10.0% void space
# The void calculation uses a probe of radius 1.32A, grid spacing 0.4
# The framework is charged, counterions have been retained in the structure
#
###############################################################################

data_KAPHOZ
_chemical_formula_moiety         '(C40 H8 K8 O32 Zn1)n'
_symmetry_cell_setting           triclinic
_symmetry_space_group_name_H-M   'P 1'
_symmetry_Int_Tables_number      1
_space_group_name_Hall           'P 1'
loop_
_symmetry_equiv_pos_site_id
_symmetry_equiv_pos_as_xyz
1 x,y,z
_cell_length_a                   11.3366(10)
_cell_length_b                   15.3829(10)
_cell_length_c                   11.1085(10)
_cell_angle_alpha                90
_cell_angle_beta                 91.398(10)
_cell_angle_gamma                90
_cell_volume                     1936.63
loop_
_atom_site_label
_atom_site_type_symbol
_atom_site_fract_x
_atom_site_fract_y
_atom_site_fract_z
Zn1 Zn 0.50000 0.00325(4) 0.25000
O9 O 0.4088(3) 0.06342(17) 0.3749(2)
O10 O 0.5912(3) 0.06342(17) 0.1251(2)
O1 O 0.3821(2) 0.93789(17) 0.1521(2)
O2 O 0.5288(3) 0.8513(2) 0.0990(3)
C1 C 0.4236(4) 0.8709(3) 0.0994(3)
C3 C 0.3329(3) 0.8102(2) 0.0439(3)
C5 C 0.2787(4) 0.7525(3) 0.1210(4)
H1 H 0.2979 0.7543 0.2028
Zn4 Zn -0.00000 0.50325(4) 0.25000
O6 O 0.6179(2) 0.93789(17) 0.3479(2)
O8 O 0.0912(3) 0.56342(17) 0.1251(2)
O11 O 0.1476(3) 0.6479(2) 0.2763(3)
C7 C 0.1417(4) 0.6310(3) 0.1675(3)
C9 C 0.1964(3) 0.6922(2) 0.0788(3)
O3 O 0.4088(3) 0.93658(17) 0.8749(2)
O4 O 0.3524(3) 0.8521(2) 0.7237(3)
C2 C 0.3583(4) 0.8690(3) 0.8325(3)
C4 C 0.3036(3) 0.8078(2) 0.9212(3)
Zn2 Zn 0.50000 0.99675(4) 0.75000
Zn3 Zn -0.00000 0.49675(4) 0.75000
O5 O 0.1179(2) 0.56211(17) 0.8479(2)
C6 C 0.0764(4) 0.6291(3) 0.9006(3)
C8 C 0.1671(3) 0.6898(2) 0.9561(3)
C10 C 0.2213(4) 0.7475(3) 0.8790(4)
H2 H 0.2021 0.7457 0.7972
Zn4_2 Zn 1.00000 0.50325(4) 0.25000
Zn3_2 Zn 1.00000 0.49675(4) 0.75000
O7 O 0.9712(3) 0.6487(2) 0.9010(3)
O2_2 O 0.0288(3) 0.3513(2) 0.0990(3)
O6_2 O 0.1179(2) 0.43789(17) 0.3479(2)
O1_2 O 0.8821(2) 0.43789(17) 0.1521(2)
C1_2 C 0.9236(4) 0.3709(3) 0.0994(3)
C3_2 C 0.8329(3) 0.3102(2) 0.0439(3)
C5_2 C 0.7787(4) 0.2525(3) 0.1210(4)
H1_2 H 0.7979 0.2543 0.2028
O9_2 O 0.9088(3) 0.56342(17) 0.3749(2)
O11_2 O 0.6476(3) 0.1479(2) 0.2763(3)
C7_2 C 0.6417(4) 0.1310(3) 0.1675(3)
C9_2 C 0.6964(3) 0.1922(2) 0.0788(3)
O3_2 O 0.9088(3) 0.43658(17) 0.8749(2)
O4_2 O 0.8524(3) 0.3521(2) 0.7237(3)
C2_2 C 0.8583(4) 0.3690(3) 0.8325(3)
C4_2 C 0.8036(3) 0.3078(2) 0.9212(3)
O5_2 O 0.6179(2) 0.06211(17) 0.8479(2)
O7_2 O 0.4712(3) 0.1487(2) 0.9010(3)
C6_2 C 0.5764(4) 0.1291(3) 0.9006(3)
C8_2 C 0.6671(3) 0.1898(2) 0.9561(3)
C10_2 C 0.7213(4) 0.2475(3) 0.8790(4)
H2_2 H 0.7021 0.2457 0.7972
O7_3 O 0.0288(3) 0.6487(2) 0.5990(3)
O2_3 O 0.4712(3) 0.8513(2) 0.4010(3)
O3_3 O 0.5912(3) 0.93658(17) 0.6251(2)
O4_3 O 0.6476(3) 0.8521(2) 0.7763(3)
C1_3 C 0.5764(4) 0.8709(3) 0.4006(3)
C2_3 C 0.6417(4) 0.8690(3) 0.6675(3)
C3_3 C 0.6671(3) 0.8102(2) 0.4561(3)
C4_3 C 0.6964(3) 0.8078(2) 0.5788(3)
C5_3 C 0.7213(4) 0.7525(3) 0.3790(4)
H1_3 H 0.7021 0.7543 0.2972
O5_3 O 0.8821(2) 0.56211(17) 0.6521(2)
O11_3 O 0.8524(3) 0.6479(2) 0.2237(3)
C6_3 C 0.9236(4) 0.6291(3) 0.5994(3)
C7_3 C 0.8583(4) 0.6310(3) 0.3325(3)
C8_3 C 0.8329(3) 0.6898(2) 0.5439(3)
C9_3 C 0.8036(3) 0.6922(2) 0.4212(3)
C10_3 C 0.7787(4) 0.7475(3) 0.6210(4)
H2_3 H 0.7979 0.7457 0.7028
O3_4 O 0.0912(3) 0.43658(17) 0.6251(2)
O4_4 O 0.1476(3) 0.3521(2) 0.7763(3)
C1_4 C 0.0764(4) 0.3709(3) 0.4006(3)
C2_4 C 0.1417(4) 0.3690(3) 0.6675(3)
C3_4 C 0.1671(3) 0.3102(2) 0.4561(3)
C4_4 C 0.1964(3) 0.3078(2) 0.5788(3)
C5_4 C 0.2213(4) 0.2525(3) 0.3790(4)
H1_4 H 0.2021 0.2543 0.2972
O5_4 O 0.3821(2) 0.06211(17) 0.6521(2)
O7_4 O 0.5288(3) 0.1487(2) 0.5990(3)
O11_4 O 0.3524(3) 0.1479(2) 0.2237(3)
C6_4 C 0.4236(4) 0.1291(3) 0.5994(3)
C7_4 C 0.3583(4) 0.1310(3) 0.3325(3)
C8_4 C 0.3329(3) 0.1898(2) 0.5439(3)
C9_4 C 0.3036(3) 0.1922(2) 0.4212(3)
C10_4 C 0.2787(4) 0.2475(3) 0.6210(4)
H2_4 H 0.2979 0.2457 0.7028
O2_4 O 0.9712(3) 0.3513(2) 0.4010(3)
K1 K 0.71600(11) 0.07381(8) 0.49244(10)
K1_2 K 0.21600(11) 0.57381(8) 0.49244(10)
K1_3 K 0.28400(11) 0.07381(8) 0.00756(10)
K1_4 K 0.78400(11) 0.57381(8) 0.00756(10)
K1_5 K 0.28400(11) 0.92619(8) 0.50756(10)
K1_6 K 0.78400(11) 0.42619(8) 0.50756(10)
K1_7 K 0.71600(11) 0.92619(8) 0.99244(10)
K1_8 K 0.21600(11) 0.42619(8) 0.99244(10)
loop_
_geom_bond_atom_site_label_1
_geom_bond_atom_site_label_2
_geom_bond_site_symmetry_1
_geom_bond_site_symmetry_2
O9 Zn1 1_555 1_555
O10 Zn1 1_555 1_555
O1 C1 1_555 1_555
O2 C1 1_555 1_555
C1 C3 1_555 1_555
C5 C3 1_555 1_555
H1 C5 1_555 1_555
Zn4 O8 1_555 1_555
O8 C7 1_555 1_555
O11 C7 1_555 1_555
C7 C9 1_555 1_555
C9 C5 1_555 1_555
O3 C2 1_555 1_555
O4 C2 1_555 1_555
C2 C4 1_555 1_555
C4 C10 1_555 1_555
Zn2 O3 1_555 1_555
Zn3 O5 1_555 1_555
O5 C6 1_555 1_555
C6 C8 1_555 1_555
C10 C8 1_555 1_555
H2 C10 1_555 1_555
O6_2 Zn4 1_555 1_555
Zn4_2 O1_2 1_555 1_555
O1_2 C1_2 1_555 1_555
C1_2 C3_2 1_555 1_555
C5_2 C3_2 1_555 1_555
H1_2 C5_2 1_555 1_555
O10 C7_2 1_555 1_555
O9_2 Zn4_2 1_555 1_555
O11_2 C7_2 1_555 1_555
C7_2 C9_2 1_555 1_555
C9_2 C5_2 1_555 1_555
O3_2 C2_2 1_555 1_555
O4_2 C2_2 1_555 1_555
C2_2 C4_2 1_555 1_555
C4_2 C10_2 1_555 1_555
Zn3_2 O3_2 1_555 1_555
O5_2 C6_2 1_555 1_555
O7_2 C6_2 1_555 1_555
C6_2 C8_2 1_555 1_555
C10_2 C8_2 1_555 1_555
H2_2 C10_2 1_555 1_555
O6 C1_3 1_555 1_555
O2_3 C1_3 1_555 1_555
O3_3 C2_3 1_555 1_555
O4_3 C2_3 1_555 1_555
C1_3 C3_3 1_555 1_555
C2_3 C4_3 1_555 1_555
C3_3 C4_3 1_555 1_555
C4_3 C10_3 1_555 1_555
C5_3 C3_3 1_555 1_555
H1_3 C5_3 1_555 1_555
Zn2 O3_3 1_555 1_555
Zn3_2 O5_3 1_555 1_555
O5_3 C6_3 1_555 1_555
O9_2 C7_3 1_555 1_555
O11_3 C7_3 1_555 1_555
C6_3 C8_3 1_555 1_555
C7_3 C9_3 1_555 1_555
C8_3 C9_3 1_555 1_555
C9_3 C5_3 1_555 1_555
C10_3 C8_3 1_555 1_555
H2_3 C10_3 1_555 1_555
O6_2 C1_4 1_555 1_555
O3_4 C2_4 1_555 1_555
O4_4 C2_4 1_555 1_555
C1_4 C3_4 1_555 1_555
C2_4 C4_4 1_555 1_555
C3_4 C4_4 1_555 1_555
C4_4 C10_4 1_555 1_555
C5_4 C3_4 1_555 1_555
H1_4 C5_4 1_555 1_555
Zn3 O3_4 1_555 1_555
O5_4 C6_4 1_555 1_555
O7_4 C6_4 1_555 1_555
O9 C7_4 1_555 1_555
O11_4 C7_4 1_555 1_555
C6_4 C8_4 1_555 1_555
C7_4 C9_4 1_555 1_555
C8_4 C9_4 1_555 1_555
C9_4 C5_4 1_555 1_555
C10_4 C8_4 1_555 1_555
H2_4 C10_4 1_555 1_555

#END
