
###############################################################################
#
# This file contains modified crystal structure data generated from the
# MOF subset of the Cambridge Structural Database (CSD) v543 
# hosted by the Cambridge Crystallographic Data Centre (CCDC).
#
# This work is licensed under the Creative Commons
# Attribution-NonCommercial-ShareAlike 4.0 International License.
# To view a copy of this license, visit
# http://creativecommons.org/licenses/by-nc-sa/4.0/
# or send a letter to
# Creative Commons, PO Box 1866, Mountain View, CA 94042, USA.
#
# CIF created using the CSD Python API on 29 September 2022
# The structure has been converted into the P1 space group
# The structure has a 3D framework
# The original CSD entry KAPHOB is in the orthorhombic crystal system
# The framework has been calculated to contain at least 10.0% void space
# The void calculation uses a probe of radius 1.32A, grid spacing 0.4
#
###############################################################################

data_KAPHOB
_chemical_formula_moiety         '(C106 H72 Mn26 N56 O16)n'
_symmetry_cell_setting           triclinic
_symmetry_space_group_name_H-M   'P 1'
_symmetry_Int_Tables_number      1
_space_group_name_Hall           'P 1'
loop_
_symmetry_equiv_pos_site_id
_symmetry_equiv_pos_as_xyz
1 x,y,z
_cell_length_a                   16.2079(18)
_cell_length_b                   17.833(2)
_cell_length_c                   11.6508(12)
_cell_angle_alpha                90
_cell_angle_beta                 90
_cell_angle_gamma                90
_cell_volume                     3367.49
loop_
_atom_site_label
_atom_site_type_symbol
_atom_site_fract_x
_atom_site_fract_y
_atom_site_fract_z
Mn12 Mn 0.11078(3) 0.67837(3) 0.000000
Mn12_2 Mn 0.11078(3) 0.67837(3) 1.000000
C1 C 0.0884(2) 0.36889(19) 0.000000
C2 C 0.1667(2) 0.5012(2) 0.000000
C4 C 0.2385(2) 0.2998(2) 0.000000
C5 C 0.3098(2) 0.43146(19) 0.000000
N1 N 0.02051(19) 0.35099(18) 0.000000
N2 N 0.1506(2) 0.56365(17) 0.000000
N4 N 0.27124(19) 0.24251(16) 0.000000
N5 N 0.37788(19) 0.44824(18) 0.000000
O1 O 0.43960(18) 0.29312(16) 0.000000
H7 H 0.499051 0.304481 0.000000
H8 H 0.410911 0.331921 0.000000
O2 O 0.43063(16) 0.61000(14) 0.000000
Mn1 Mn 0.19940(2) 0.39971(2) 0.000000
Mn2 Mn 0.500000 0.500000 0.000000
Mn3 Mn 0.38922(3) 0.17837(3) 0.000000
H20 H 0.400489 0.620755 0.070490
C26 C 0.9116(2) 0.63111(19) 0.000000
C27 C 0.8333(2) 0.4988(2) 0.000000
C29 C 0.7615(2) 0.7002(2) 0.000000
C30 C 0.6902(2) 0.56854(19) 0.000000
N10 N 0.97949(19) 0.64901(18) 0.000000
N11 N 0.8494(2) 0.43635(17) 0.000000
N13 N 0.72876(19) 0.75749(16) 0.000000
N14 N 0.62212(19) 0.55176(18) 0.000000
O3 O 0.56040(18) 0.70688(16) 0.000000
H25 H 0.500949 0.695519 0.000000
H26 H 0.589089 0.668079 0.000000
O4 O 0.56937(16) 0.39000(14) 0.000000
Mn4 Mn 0.80060(2) 0.60029(2) 0.000000
Mn5 Mn 0.61078(3) 0.82163(3) 0.000000
H32 H 0.599511 0.379245 0.070490
C41 C 0.19890(15) 0.39990(13) 0.1643(2)
N17 N 0.20029(19) 0.40081(16) 0.2633(2)
C42 C 0.80110(15) 0.60010(13) 0.1643(2)
N18 N 0.79971(19) 0.59919(16) 0.2633(2)
N19 N 0.52051(19) 0.14901(18) 0.000000
N20 N 0.47949(19) 0.85099(18) 0.000000
N21 N 0.6506(2) 0.93635(17) 0.000000
N22 N 0.3494(2) 0.06365(17) 0.000000
N23 N 0.500000 0.500000 0.1949(2)
N24 N 0.60712(15) 0.81828(13) 0.19499(19)
N25 N 0.39288(15) 0.18172(13) 0.19499(19)
Mn10 Mn 0.88922(3) 0.32163(3) 0.000000
C1_2 C 0.0884(2) 0.36889(19) 1.000000
C2_2 C 0.1667(2) 0.5012(2) 1.000000
C3 C 0.19890(15) 0.39990(13) 0.8357(2)
C4_2 C 0.2385(2) 0.2998(2) 1.000000
C5_2 C 0.3098(2) 0.43146(19) 1.000000
C6 C 0.4593(2) 0.4495(2) 0.7446(2)
H1 H 0.429639 0.413051 0.784164
C7 C 0.4582(2) 0.4475(2) 0.6266(2)
H2 H 0.428698 0.410130 0.589031
C8 C 0.500000 0.500000 0.5640(3)
C9 C 0.4339(3) 0.1300(2) 0.7457(3)
H3 H 0.460547 0.091980 0.785865
C10 C 0.4388(3) 0.1300(2) 0.6269(3)
H4 H 0.468214 0.092487 0.589506
C11 C 0.40016(18) 0.18545(17) 0.5637(2)
C12 C 0.3592(2) 0.23957(17) 0.6256(2)
H5 H 0.333106 0.278842 0.587710
C13 C 0.3567(2) 0.23576(17) 0.7444(2)
H6 H 0.328285 0.272984 0.783835
N1_2 N 0.02051(19) 0.35099(18) 1.000000
N2_2 N 0.1506(2) 0.56365(17) 1.000000
N3 N 0.20029(19) 0.40081(16) 0.7367(2)
N4_2 N 0.27124(19) 0.24251(16) 1.000000
N5_2 N 0.37788(19) 0.44824(18) 1.000000
N6 N 0.500000 0.500000 0.8051(2)
N7 N 0.39288(15) 0.18172(13) 0.80501(19)
O1_2 O 0.43960(18) 0.29312(16) 1.000000
H7_2 H 0.499051 0.304481 1.000000
H8_2 H 0.410911 0.331921 1.000000
O2_2 O 0.43063(16) 0.61000(14) 1.000000
H9 H 0.400489 0.620755 0.929510
Mn1_2 Mn 0.19940(2) 0.39971(2) 1.000000
Mn2_2 Mn 0.500000 0.500000 1.000000
Mn3_2 Mn 0.38922(3) 0.17837(3) 1.000000
C14 C 0.5407(2) 0.5505(2) 0.7446(2)
H10 H 0.570361 0.586949 0.784164
C15 C 0.5418(2) 0.5525(2) 0.6266(2)
H11 H 0.571302 0.589870 0.589031
C16 C 0.5407(2) 0.5505(2) 0.2554(2)
H12 H 0.570361 0.586949 0.215836
C17 C 0.5418(2) 0.5525(2) 0.3734(2)
H13 H 0.571302 0.589870 0.410969
C18 C 0.500000 0.500000 0.4360(3)
C19 C 0.4593(2) 0.4495(2) 0.2554(2)
H14 H 0.429639 0.413051 0.215836
C20 C 0.4582(2) 0.4475(2) 0.3734(2)
H15 H 0.428698 0.410130 0.410969
C21 C 0.4339(3) 0.1300(2) 0.2543(3)
H16 H 0.460547 0.091980 0.214135
C22 C 0.4388(3) 0.1300(2) 0.3731(3)
H17 H 0.468214 0.092487 0.410494
C23 C 0.40016(18) 0.18545(17) 0.4363(2)
C24 C 0.3592(2) 0.23957(17) 0.3744(2)
H18 H 0.333106 0.278842 0.412290
C25 C 0.3567(2) 0.23576(17) 0.2556(2)
H19 H 0.328285 0.272984 0.216165
C26_2 C 0.9116(2) 0.63111(19) 1.000000
C27_2 C 0.8333(2) 0.4988(2) 1.000000
C28 C 0.80110(15) 0.60010(13) 0.8357(2)
C29_2 C 0.7615(2) 0.7002(2) 1.000000
C30_2 C 0.6902(2) 0.56854(19) 1.000000
C31 C 0.5661(3) 0.8700(2) 0.7457(3)
H21 H 0.539453 0.908020 0.785865
C32 C 0.5612(3) 0.8700(2) 0.6269(3)
H22 H 0.531786 0.907513 0.589506
C33 C 0.59984(18) 0.81455(17) 0.5637(2)
C34 C 0.6408(2) 0.76043(17) 0.6256(2)
H23 H 0.666894 0.721158 0.587710
C35 C 0.6433(2) 0.76424(17) 0.7444(2)
H24 H 0.671715 0.727016 0.783835
N10_2 N 0.97949(19) 0.64901(18) 1.000000
N11_2 N 0.8494(2) 0.43635(17) 1.000000
N12 N 0.79971(19) 0.59919(16) 0.7367(2)
N13_2 N 0.72876(19) 0.75749(16) 1.000000
N14_2 N 0.62212(19) 0.55176(18) 1.000000
N15 N 0.60712(15) 0.81828(13) 0.80501(19)
O3_2 O 0.56040(18) 0.70688(16) 1.000000
H25_2 H 0.500949 0.695519 1.000000
H26_2 H 0.589089 0.668079 1.000000
O4_2 O 0.56937(16) 0.39000(14) 1.000000
H27 H 0.599511 0.379245 0.929510
Mn4_2 Mn 0.80060(2) 0.60029(2) 1.000000
Mn5_2 Mn 0.61078(3) 0.82163(3) 1.000000
C36 C 0.5661(3) 0.8700(2) 0.2543(3)
H28 H 0.539453 0.908020 0.214135
C37 C 0.5612(3) 0.8700(2) 0.3731(3)
H29 H 0.531786 0.907513 0.410494
C38 C 0.59984(18) 0.81455(17) 0.4363(2)
C39 C 0.6408(2) 0.76043(17) 0.3744(2)
H30 H 0.666894 0.721158 0.412290
C40 C 0.6433(2) 0.76424(17) 0.2556(2)
H31 H 0.671715 0.727016 0.216165
N19_2 N 0.52051(19) 0.14901(18) 1.000000
N20_2 N 0.47949(19) 0.85099(18) 1.000000
N21_2 N 0.6506(2) 0.93635(17) 1.000000
N22_2 N 0.3494(2) 0.06365(17) 1.000000
Mn10_2 Mn 0.88922(3) 0.32163(3) 1.000000
Mn6 Mn -0.000000 0.000000 0.000000
C8_2 C -0.000000 0.000000 0.4360(3)
N6_2 N -0.000000 0.000000 0.1949(2)
C18_2 C -0.000000 0.000000 0.5640(3)
N8 N -0.000000 -0.000000 0.8051(2)
C27_3 C 0.3333(2) 0.0012(2) 0.000000
O4_3 O 0.06937(16) 0.11000(14) 0.000000
H27_2 H 0.099511 0.120755 0.070490
Mn6_2 Mn -0.000000 0.000000 1.000000
C27_4 C 0.3333(2) 0.0012(2) 1.000000
O4_4 O 0.06937(16) 0.11000(14) 1.000000
H32_2 H 0.099511 0.120755 0.929510
Mn6_3 Mn -0.000000 1.000000 0.000000
C8_3 C -0.000000 1.000000 0.4360(3)
N6_3 N -0.000000 1.000000 0.1949(2)
C14_2 C 0.0407(2) 0.9495(2) 0.2554(2)
H10_2 H 0.070361 0.913051 0.215836
C15_2 C 0.0418(2) 0.9475(2) 0.3734(2)
H11_2 H 0.071302 0.910130 0.410969
C16_2 C 0.0407(2) 0.9495(2) 0.7446(2)
H12_2 H 0.070361 0.913051 0.784164
C17_2 C 0.0418(2) 0.9475(2) 0.6266(2)
H13_2 H 0.071302 0.910130 0.589031
C18_3 C -0.000000 1.000000 0.5640(3)
N8_2 N -0.000000 1.000000 0.8051(2)
C26_3 C 0.4116(2) 0.86889(19) 0.000000
C28_2 C 0.30110(15) 0.89990(13) 0.1643(2)
C29_3 C 0.2615(2) 0.7998(2) 0.000000
C30_3 C 0.1902(2) 0.93146(19) 0.000000
C31_2 C 0.0661(3) 0.6300(2) 0.2543(3)
H21_2 H 0.039453 0.591980 0.214135
C32_2 C 0.0612(3) 0.6300(2) 0.3731(3)
H22_2 H 0.031786 0.592487 0.410494
C33_2 C 0.09984(18) 0.68545(17) 0.4363(2)
C34_2 C 0.1408(2) 0.73957(17) 0.3744(2)
H23_2 H 0.166894 0.778842 0.412290
C35_2 C 0.1433(2) 0.73576(17) 0.2556(2)
H24_2 H 0.171715 0.772984 0.216165
N12_2 N 0.29971(19) 0.90081(16) 0.2633(2)
N13_3 N 0.22876(19) 0.74251(16) 0.000000
N14_3 N 0.12212(19) 0.94824(18) 0.000000
N15_2 N 0.10712(15) 0.68172(13) 0.19499(19)
O3_3 O 0.06040(18) 0.79312(16) 0.000000
H25_3 H 0.000949 0.804481 0.000000
H26_3 H 0.089089 0.831921 0.000000
Mn4_3 Mn 0.30060(2) 0.89971(2) 0.000000
C36_2 C 0.0661(3) 0.6300(2) 0.7457(3)
H28_2 H 0.039453 0.591980 0.785865
C37_2 C 0.0612(3) 0.6300(2) 0.6269(3)
H29_2 H 0.031786 0.592487 0.589506
C38_2 C 0.09984(18) 0.68545(17) 0.5637(2)
C39_2 C 0.1408(2) 0.73957(17) 0.6256(2)
H30_2 H 0.166894 0.778842 0.587710
C40_2 C 0.1433(2) 0.73576(17) 0.7444(2)
H31_2 H 0.171715 0.772984 0.783835
N16 N 0.10712(15) 0.68172(13) 0.80501(19)
Mn6_4 Mn -0.000000 1.000000 1.000000
C26_4 C 0.4116(2) 0.86889(19) 1.000000
C29_4 C 0.2615(2) 0.7998(2) 1.000000
C30_4 C 0.1902(2) 0.93146(19) 1.000000
N13_4 N 0.22876(19) 0.74251(16) 1.000000
N14_4 N 0.12212(19) 0.94824(18) 1.000000
O3_4 O 0.06040(18) 0.79312(16) 1.000000
H25_4 H 0.000949 0.804481 1.000000
H26_4 H 0.089089 0.831921 1.000000
Mn4_4 Mn 0.30060(2) 0.89971(2) 1.000000
C42_2 C 0.30110(15) 0.89990(13) 0.8357(2)
N18_2 N 0.29971(19) 0.90081(16) 0.7367(2)
Mn6_5 Mn 1.000000 0.000000 0.000000
C1_3 C 0.5884(2) 0.13111(19) 0.000000
C3_2 C 0.69890(15) 0.10010(13) 0.1643(2)
C4_3 C 0.7385(2) 0.2002(2) 0.000000
C5_3 C 0.8098(2) 0.06854(19) 0.000000
C6_2 C 0.9593(2) 0.0505(2) 0.2554(2)
H1_2 H 0.929639 0.086949 0.215836
C7_2 C 0.9582(2) 0.0525(2) 0.3734(2)
H2_2 H 0.928698 0.089870 0.410969
C8_4 C 1.000000 0.000000 0.4360(3)
C9_2 C 0.9339(3) 0.3700(2) 0.2543(3)
H3_2 H 0.960547 0.408020 0.214135
C10_2 C 0.9388(3) 0.3700(2) 0.3731(3)
H4_2 H 0.968214 0.407513 0.410494
C11_2 C 0.90016(18) 0.31455(17) 0.4363(2)
C12_2 C 0.8592(2) 0.26043(17) 0.3744(2)
H5_2 H 0.833106 0.221158 0.412290
C13_2 C 0.8567(2) 0.26424(17) 0.2556(2)
H6_2 H 0.828285 0.227016 0.216165
N3_2 N 0.70029(19) 0.09919(16) 0.2633(2)
N4_3 N 0.77124(19) 0.25749(16) 0.000000
N5_3 N 0.87788(19) 0.05176(18) 0.000000
N6_4 N 1.000000 0.000000 0.1949(2)
N7_2 N 0.89288(15) 0.31828(13) 0.19499(19)
O1_3 O 0.93960(18) 0.20688(16) 0.000000
H7_3 H 0.999051 0.195519 0.000000
H8_3 H 0.910911 0.168079 0.000000
Mn1_3 Mn 0.69940(2) 0.10029(2) 0.000000
C18_4 C 1.000000 0.000000 0.5640(3)
N8_3 N 1.000000 -0.000000 0.8051(2)
C19_2 C 0.9593(2) 0.0505(2) 0.7446(2)
H14_2 H 0.929639 0.086949 0.784164
C20_2 C 0.9582(2) 0.0525(2) 0.6266(2)
H15_2 H 0.928698 0.089870 0.589031
C21_2 C 0.9339(3) 0.3700(2) 0.7457(3)
H16_2 H 0.960547 0.408020 0.785865
C22_2 C 0.9388(3) 0.3700(2) 0.6269(3)
H17_2 H 0.968214 0.407513 0.589506
C23_2 C 0.90016(18) 0.31455(17) 0.5637(2)
C24_2 C 0.8592(2) 0.26043(17) 0.6256(2)
H18_2 H 0.833106 0.221158 0.587710
C25_2 C 0.8567(2) 0.26424(17) 0.7444(2)
H19_2 H 0.828285 0.227016 0.783835
N9 N 0.89288(15) 0.31828(13) 0.80501(19)
Mn6_6 Mn 1.000000 0.000000 1.000000
C1_4 C 0.5884(2) 0.13111(19) 1.000000
C4_4 C 0.7385(2) 0.2002(2) 1.000000
C5_4 C 0.8098(2) 0.06854(19) 1.000000
N4_4 N 0.77124(19) 0.25749(16) 1.000000
N5_4 N 0.87788(19) 0.05176(18) 1.000000
O1_4 O 0.93960(18) 0.20688(16) 1.000000
H7_4 H 0.999051 0.195519 1.000000
H8_4 H 0.910911 0.168079 1.000000
Mn1_4 Mn 0.69940(2) 0.10029(2) 1.000000
C41_2 C 0.69890(15) 0.10010(13) 0.8357(2)
N17_2 N 0.70029(19) 0.09919(16) 0.7367(2)
Mn6_7 Mn 1.000000 1.000000 0.000000
C2_3 C 0.6667(2) 0.9988(2) 0.000000
C8_5 C 1.000000 1.000000 0.4360(3)
N6_5 N 1.000000 1.000000 0.1949(2)
O2_3 O 0.93063(16) 0.89000(14) 0.000000
H9_2 H 0.900489 0.879245 0.070490
C18_5 C 1.000000 1.000000 0.5640(3)
N8_4 N 1.000000 1.000000 0.8051(2)
Mn6_8 Mn 1.000000 1.000000 1.000000
C2_4 C 0.6667(2) 0.9988(2) 1.000000
O2_4 O 0.93063(16) 0.89000(14) 1.000000
H20_2 H 0.900489 0.879245 0.929510
loop_
_geom_bond_atom_site_label_1
_geom_bond_atom_site_label_2
_geom_bond_site_symmetry_1
_geom_bond_site_symmetry_2
C1 N1 1_555 1_555
C2 N2 1_555 1_555
C4 N4 1_555 1_555
C5 N5 1_555 1_555
N2 Mn12 1_555 1_555
N4 Mn3 1_555 1_555
N5 Mn2 1_555 1_555
O1 H7 1_555 1_555
H8 O1 1_555 1_555
Mn1 C1 1_555 1_555
H20 O2 1_555 1_555
C26 N10 1_555 1_555
C27 N11 1_555 1_555
C29 N13 1_555 1_555
C30 N14 1_555 1_555
N11 Mn10 1_555 1_555
N13 Mn5 1_555 1_555
N14 Mn2 1_555 1_555
O3 H25 1_555 1_555
H26 O3 1_555 1_555
O4 Mn2 1_555 1_555
Mn4 C26 1_555 1_555
H32 O4 1_555 1_555
C41 Mn1 1_555 1_555
N17 C41 1_555 1_555
C42 Mn4 1_555 1_555
N18 C42 1_555 1_555
N19 Mn3 1_555 1_555
N20 Mn5 1_555 1_555
N21 Mn5 1_555 1_555
N22 Mn3 1_555 1_555
N23 Mn2 1_555 1_555
N24 Mn5 1_555 1_555
N25 Mn3 1_555 1_555
C2 Mn1 1_555 1_555
C4 Mn1 1_555 1_555
C5 Mn1 1_555 1_555
O1 Mn3 1_555 1_555
O2 Mn2 1_555 1_555
C27 Mn4 1_555 1_555
C29 Mn4 1_555 1_555
C30 Mn4 1_555 1_555
O3 Mn5 1_555 1_555
C1_2 N1_2 1_555 1_555
C2_2 N2_2 1_555 1_555
C3 N3 1_555 1_555
C4_2 N4_2 1_555 1_555
C5_2 N5_2 1_555 1_555
C6 H1 1_555 1_555
C7 C6 1_555 1_555
H2 C7 1_555 1_555
C8 C7 1_555 1_555
C9 H3 1_555 1_555
C10 C9 1_555 1_555
H4 C10 1_555 1_555
C11 C10 1_555 1_555
C12 C11 1_555 1_555
H5 C12 1_555 1_555
C13 C12 1_555 1_555
H6 C13 1_555 1_555
N2_2 Mn12_2 1_555 1_555
N4_2 Mn3_2 1_555 1_555
N5_2 Mn2_2 1_555 1_555
N6 C6 1_555 1_555
N7 C9 1_555 1_555
O1_2 H7_2 1_555 1_555
H8_2 O1_2 1_555 1_555
O2_2 H9 1_555 1_555
Mn1_2 C1_2 1_555 1_555
Mn2_2 N6 1_555 1_555
Mn3_2 N7 1_555 1_555
C14 N6 1_555 1_555
H10 C14 1_555 1_555
C15 C8 1_555 1_555
H11 C15 1_555 1_555
C16 H12 1_555 1_555
C17 C16 1_555 1_555
H13 C17 1_555 1_555
C18 C8 1_555 1_555
N23 C16 1_555 1_555
C19 N23 1_555 1_555
H14 C19 1_555 1_555
C20 C18 1_555 1_555
H15 C20 1_555 1_555
C21 H16 1_555 1_555
C22 C21 1_555 1_555
H17 C22 1_555 1_555
C23 C11 1_555 1_555
C24 C23 1_555 1_555
H18 C24 1_555 1_555
C25 C24 1_555 1_555
H19 C25 1_555 1_555
N25 C21 1_555 1_555
C26_2 N10_2 1_555 1_555
C27_2 N11_2 1_555 1_555
C28 N12 1_555 1_555
C29_2 N13_2 1_555 1_555
C30_2 N14_2 1_555 1_555
C31 H21 1_555 1_555
C32 C31 1_555 1_555
H22 C32 1_555 1_555
C33 C32 1_555 1_555
C34 C33 1_555 1_555
H23 C34 1_555 1_555
C35 C34 1_555 1_555
H24 C35 1_555 1_555
N11_2 Mn10_2 1_555 1_555
N13_2 Mn5_2 1_555 1_555
N14_2 Mn2_2 1_555 1_555
N15 C31 1_555 1_555
O3_2 H25_2 1_555 1_555
H26_2 O3_2 1_555 1_555
O4_2 Mn2_2 1_555 1_555
H27 O4_2 1_555 1_555
Mn4_2 C26_2 1_555 1_555
Mn5_2 N15 1_555 1_555
C36 H28 1_555 1_555
C37 C36 1_555 1_555
H29 C37 1_555 1_555
C38 C33 1_555 1_555
C39 C38 1_555 1_555
H30 C39 1_555 1_555
C40 C39 1_555 1_555
H31 C40 1_555 1_555
N24 C36 1_555 1_555
N19_2 Mn3_2 1_555 1_555
N20_2 Mn5_2 1_555 1_555
N21_2 Mn5_2 1_555 1_555
N22_2 Mn3_2 1_555 1_555
C2_2 Mn1_2 1_555 1_555
C3 Mn1_2 1_555 1_555
C4_2 Mn1_2 1_555 1_555
C5_2 Mn1_2 1_555 1_555
C13 N7 1_555 1_555
O1_2 Mn3_2 1_555 1_555
O2_2 Mn2_2 1_555 1_555
C14 C15 1_555 1_555
C17 C18 1_555 1_555
C19 C20 1_555 1_555
C22 C23 1_555 1_555
C25 N25 1_555 1_555
C27_2 Mn4_2 1_555 1_555
C28 Mn4_2 1_555 1_555
C29_2 Mn4_2 1_555 1_555
C30_2 Mn4_2 1_555 1_555
C35 N15 1_555 1_555
O3_2 Mn5_2 1_555 1_555
C37 C38 1_555 1_555
C40 N24 1_555 1_555
Mn6 N6_2 1_555 1_555
C18_2 C8_2 1_555 1_555
C27_3 N22 1_555 1_555
O4_3 Mn6 1_555 1_555
H27_2 O4_3 1_555 1_555
Mn6_2 N8 1_555 1_555
C27_4 N22_2 1_555 1_555
O4_4 Mn6_2 1_555 1_555
H32_2 O4_4 1_555 1_555
Mn6_3 N6_3 1_555 1_555
C14_2 N6_3 1_555 1_555
H10_2 C14_2 1_555 1_555
C15_2 C8_3 1_555 1_555
H11_2 C15_2 1_555 1_555
C16_2 H12_2 1_555 1_555
C17_2 C16_2 1_555 1_555
H13_2 C17_2 1_555 1_555
C18_3 C8_3 1_555 1_555
N8_2 C16_2 1_555 1_555
C26_3 N20 1_555 1_555
C28_2 N12_2 1_555 1_555
C29_3 N13_3 1_555 1_555
C30_3 N14_3 1_555 1_555
C31_2 H21_2 1_555 1_555
C32_2 C31_2 1_555 1_555
H22_2 C32_2 1_555 1_555
C33_2 C32_2 1_555 1_555
C34_2 C33_2 1_555 1_555
H23_2 C34_2 1_555 1_555
C35_2 C34_2 1_555 1_555
H24_2 C35_2 1_555 1_555
N13_3 Mn12 1_555 1_555
N14_3 Mn6_3 1_555 1_555
N15_2 C31_2 1_555 1_555
O3_3 H25_3 1_555 1_555
H26_3 O3_3 1_555 1_555
Mn4_3 C26_3 1_555 1_555
Mn12 N15_2 1_555 1_555
C36_2 H28_2 1_555 1_555
C37_2 C36_2 1_555 1_555
H29_2 C37_2 1_555 1_555
C38_2 C33_2 1_555 1_555
C39_2 C38_2 1_555 1_555
H30_2 C39_2 1_555 1_555
C40_2 C39_2 1_555 1_555
H31_2 C40_2 1_555 1_555
N16 C36_2 1_555 1_555
Mn6_4 N8_2 1_555 1_555
Mn12_2 N16 1_555 1_555
C14_2 C15_2 1_555 1_555
C17_2 C18_3 1_555 1_555
C28_2 Mn4_3 1_555 1_555
C29_3 Mn4_3 1_555 1_555
C30_3 Mn4_3 1_555 1_555
C35_2 N15_2 1_555 1_555
O3_3 Mn12 1_555 1_555
C37_2 C38_2 1_555 1_555
C40_2 N16 1_555 1_555
C26_4 N20_2 1_555 1_555
C29_4 N13_4 1_555 1_555
C30_4 N14_4 1_555 1_555
N13_4 Mn12_2 1_555 1_555
N14_4 Mn6_4 1_555 1_555
O3_4 H25_4 1_555 1_555
H26_4 O3_4 1_555 1_555
Mn4_4 C26_4 1_555 1_555
C42_2 Mn4_4 1_555 1_555
N18_2 C42_2 1_555 1_555
C29_4 Mn4_4 1_555 1_555
C30_4 Mn4_4 1_555 1_555
O3_4 Mn12_2 1_555 1_555
C1_3 N19 1_555 1_555
C3_2 N3_2 1_555 1_555
C4_3 N4_3 1_555 1_555
C5_3 N5_3 1_555 1_555
C6_2 H1_2 1_555 1_555
C7_2 C6_2 1_555 1_555
H2_2 C7_2 1_555 1_555
C8_4 C7_2 1_555 1_555
C9_2 H3_2 1_555 1_555
C10_2 C9_2 1_555 1_555
H4_2 C10_2 1_555 1_555
C11_2 C10_2 1_555 1_555
C12_2 C11_2 1_555 1_555
H5_2 C12_2 1_555 1_555
C13_2 C12_2 1_555 1_555
H6_2 C13_2 1_555 1_555
N4_3 Mn10 1_555 1_555
N5_3 Mn6_5 1_555 1_555
N6_4 C6_2 1_555 1_555
N7_2 C9_2 1_555 1_555
O1_3 H7_3 1_555 1_555
H8_3 O1_3 1_555 1_555
Mn1_3 C1_3 1_555 1_555
Mn6_5 N6_4 1_555 1_555
Mn10 N7_2 1_555 1_555
C18_4 C8_4 1_555 1_555
C19_2 N8_3 1_555 1_555
H14_2 C19_2 1_555 1_555
C20_2 C18_4 1_555 1_555
H15_2 C20_2 1_555 1_555
C21_2 H16_2 1_555 1_555
C22_2 C21_2 1_555 1_555
H17_2 C22_2 1_555 1_555
C23_2 C11_2 1_555 1_555
C24_2 C23_2 1_555 1_555
H18_2 C24_2 1_555 1_555
C25_2 C24_2 1_555 1_555
H19_2 C25_2 1_555 1_555
N9 C21_2 1_555 1_555
Mn6_6 N8_3 1_555 1_555
Mn10_2 N9 1_555 1_555
C3_2 Mn1_3 1_555 1_555
C4_3 Mn1_3 1_555 1_555
C5_3 Mn1_3 1_555 1_555
C13_2 N7_2 1_555 1_555
O1_3 Mn10 1_555 1_555
C19_2 C20_2 1_555 1_555
C22_2 C23_2 1_555 1_555
C25_2 N9 1_555 1_555
C1_4 N19_2 1_555 1_555
C4_4 N4_4 1_555 1_555
C5_4 N5_4 1_555 1_555
N4_4 Mn10_2 1_555 1_555
N5_4 Mn6_6 1_555 1_555
O1_4 H7_4 1_555 1_555
H8_4 O1_4 1_555 1_555
Mn1_4 C1_4 1_555 1_555
C41_2 Mn1_4 1_555 1_555
N17_2 C41_2 1_555 1_555
C4_4 Mn1_4 1_555 1_555
C5_4 Mn1_4 1_555 1_555
O1_4 Mn10_2 1_555 1_555
C2_3 N21 1_555 1_555
O2_3 H9_2 1_555 1_555
Mn6_7 N6_5 1_555 1_555
C18_5 C8_5 1_555 1_555
Mn6_8 N8_4 1_555 1_555
O2_3 Mn6_7 1_555 1_555
C2_4 N21_2 1_555 1_555
H20_2 O2_4 1_555 1_555
O2_4 Mn6_8 1_555 1_555

#END
