
###############################################################################
#
# This file contains modified crystal structure data generated from the
# MOF subset of the Cambridge Structural Database (CSD) v543 
# hosted by the Cambridge Crystallographic Data Centre (CCDC).
#
# This work is licensed under the Creative Commons
# Attribution-NonCommercial-ShareAlike 4.0 International License.
# To view a copy of this license, visit
# http://creativecommons.org/licenses/by-nc-sa/4.0/
# or send a letter to
# Creative Commons, PO Box 1866, Mountain View, CA 94042, USA.
#
# CIF created using the CSD Python API on 29 September 2022
# The structure has been converted into the P1 space group
# The structure has a 3D framework
# The original CSD entry KARLIA is in the cubic crystal system
# The framework has been calculated to contain at least 10.0% void space
# The void calculation uses a probe of radius 1.32A, grid spacing 0.4
#
###############################################################################

data_KARLIA
_chemical_formula_moiety         '(C336 H216 N24 Ni20 O104)n'
_symmetry_cell_setting           triclinic
_symmetry_space_group_name_H-M   'P 1'
_symmetry_Int_Tables_number      1
_space_group_name_Hall           'P 1'
loop_
_symmetry_equiv_pos_site_id
_symmetry_equiv_pos_as_xyz
1 x,y,z
_cell_length_a                   25.8186(6)
_cell_length_b                   25.8186(6)
_cell_length_c                   25.8186(6)
_cell_angle_alpha                90
_cell_angle_beta                 90
_cell_angle_gamma                90
_cell_volume                     17210.7
loop_
_atom_site_label
_atom_site_type_symbol
_atom_site_fract_x
_atom_site_fract_y
_atom_site_fract_z
Ni6 Ni 0.130346(10) 0.229675(10) 0.781066(10)
Ni8 Ni 0.218934(10) 0.130346(10) 0.770325(10)
O7 O 0.19676(7) 0.19676(7) 0.80324(7)
O14 O 0.15656(7) 0.23131(6) 0.70539(6)
O20 O 0.16170(6) 0.30295(7) 0.79117(6)
O21 O 0.09173(7) 0.16181(10) 0.76681(7)
O28 O 0.14709(6) 0.09772(9) 0.76699(6)
O35 O 0.09772(9) 0.23301(6) 0.85291(6)
N6 N 0.24539(6) 0.06247(6) 0.73440(4)
N10 N 0.06247(6) 0.26560(4) 0.75461(6)
C19 C 0.28765(6) 0.03688(6) 0.75582(6)
H14 H 0.3080 0.0534 0.7817
C39 C 0.21566(6) 0.03834(6) 0.69656(6)
H29 H 0.1868 0.0558 0.6819
C55 C 0.10333(9) 0.11622(10) 0.76526(9)
C60 C 0.05825(11) 0.07846(11) 0.75642(11)
C65 C 0.06646(10) 0.02631(10) 0.75634(11)
H40 H 0.1010 0.0136 0.7564
C80 C 0.00779(11) 0.09703(13) 0.75595(10)
H50 H 0.0016 0.1333 0.7559
Ni10 Ni 0.229675(10) 0.781066(10) 0.130346(10)
Ni11 Ni 0.130346(10) 0.770325(10) 0.218934(10)
O23 O 0.16181(10) 0.76681(7) 0.09173(7)
O30 O 0.09772(9) 0.76699(6) 0.14709(6)
C57 C 0.11622(10) 0.76526(9) 0.10333(9)
C62 C 0.07846(11) 0.75642(11) 0.05825(11)
C67 C 0.02631(10) 0.75634(11) 0.06646(10)
H42 H 0.0136 0.7564 0.1010
C82 C 0.09703(13) 0.75595(10) 0.00779(11)
H52 H 0.1333 0.7559 0.0016
Ni3 Ni 0.281066(10) 0.729675(10) 0.630346(10)
Ni5 Ni 0.270325(10) 0.630346(10) 0.718934(10)
Ni17 Ni 0.369654(10) 0.718934(10) 0.729675(10)
O6 O 0.30324(7) 0.69676(7) 0.69676(7)
O9 O 0.20539(6) 0.73131(6) 0.65656(7)
O12 O 0.34344(7) 0.79461(6) 0.73131(6)
O13 O 0.26869(6) 0.65656(7) 0.79461(6)
O16 O 0.19705(7) 0.66170(6) 0.70883(6)
O19 O 0.29117(6) 0.80295(7) 0.66170(6)
O26 O 0.26681(7) 0.66181(10) 0.59173(7)
O27 O 0.33819(10) 0.59173(7) 0.73319(7)
O33 O 0.35291(6) 0.73301(6) 0.59772(9)
O34 O 0.26699(6) 0.59772(9) 0.64709(6)
N7 N 0.25461(6) 0.76560(4) 0.56247(6)
N9 N 0.23440(4) 0.56247(6) 0.74539(6)
C21 C 0.01283(6) 0.73939(6) 0.69983(7)
C24 C 0.30017(7) 0.98717(6) 0.73939(6)
H16 H 0.0303 0.7540 0.6710
H19 H 0.3290 0.9697 0.7540
C26 C 0.03696(7) 0.70154(5) 0.72957(7)
C29 C 0.27043(7) 0.96304(7) 0.70154(5)
C31 C 0.01138(7) 0.68013(6) 0.77182(6)
C34 C 0.22818(6) 0.98862(7) 0.68013(6)
H21 H 0.0279 0.6543 0.7921
H24 H 0.2079 0.9721 0.6543
C41 C 0.09213(10) 0.68694(9) 0.71876(9)
C44 C 0.28124(9) 0.90787(10) 0.68694(9)
H31 H 0.1048 0.6563 0.7347
H34 H 0.2653 0.8952 0.6563
C46 C 0.12326(10) 0.71197(9) 0.69020(10)
C49 C 0.30980(10) 0.87674(10) 0.71197(9)
H36 H 0.1100 0.7404 0.6709
H39 H 0.3291 0.8900 0.7404
C51 C 0.18053(8) 0.69928(8) 0.68500(8)
C54 C 0.31500(8) 0.81947(8) 0.69928(8)
C70 C 0.02504(11) 0.99092(10) 0.75622(10)
C71 C 0.00908(10) 0.75622(10) 0.97496(11)
C75 C 0.03363(11) 0.93726(13) 0.75558(11)
C76 C 0.06274(13) 0.75558(11) 0.96637(11)
H45 H 0.0681 0.9243 0.7549
H46 H 0.0757 0.7549 0.9319
Ni13 Ni 0.781066(10) 0.130346(10) 0.229675(10)
Ni14 Ni 0.770325(10) 0.218934(10) 0.130346(10)
O25 O 0.76681(7) 0.09173(7) 0.16181(10)
O32 O 0.76699(6) 0.14709(6) 0.09772(9)
C59 C 0.76526(9) 0.10333(9) 0.11622(10)
C64 C 0.75642(11) 0.05825(11) 0.07846(11)
C69 C 0.75634(11) 0.06646(10) 0.02631(10)
H44 H 0.7564 0.1010 0.0136
C84 C 0.75595(10) 0.00779(11) 0.09703(13)
H54 H 0.7559 0.0016 0.1333
C12 C 0.97496(11) 0.00908(10) 0.75622(10)
C13 C 0.96637(11) 0.06274(13) 0.75558(11)
H8 H 0.9319 0.0757 0.7549
C74 C 0.75622(10) 0.02504(11) 0.99092(10)
C79 C 0.75558(11) 0.03363(11) 0.93726(13)
H49 H 0.7549 0.0681 0.9243
Ni15 Ni 0.729675(10) 0.630346(10) 0.281066(10)
Ni16 Ni 0.630346(10) 0.718934(10) 0.270325(10)
O11 O 0.73131(6) 0.65656(7) 0.20539(6)
O18 O 0.66170(6) 0.70883(6) 0.19705(7)
C23 C 0.73939(6) 0.69983(7) 0.01283(6)
H18 H 0.7540 0.6710 0.0303
C28 C 0.70154(5) 0.72957(7) 0.03696(7)
C33 C 0.68013(6) 0.77182(6) 0.01138(7)
H23 H 0.6543 0.7921 0.0279
C43 C 0.68694(9) 0.71876(9) 0.09213(10)
H33 H 0.6563 0.7347 0.1048
C48 C 0.71197(9) 0.69020(10) 0.12326(10)
H38 H 0.7404 0.6709 0.1100
C53 C 0.69928(8) 0.68500(8) 0.18053(8)
C72 C 0.99092(10) 0.75622(10) 0.02504(11)
C73 C 0.75622(10) 0.97496(11) 0.00908(10)
C77 C 0.93726(13) 0.75558(11) 0.03363(11)
C78 C 0.75558(11) 0.96637(11) 0.06274(13)
H47 H 0.9243 0.7549 0.0681
H48 H 0.7549 0.9319 0.0757
Ni1 Ni 0.869654(10) 0.770325(10) 0.781066(10)
O1 O 0.80324(7) 0.80324(7) 0.80324(7)
O2 O 0.84344(7) 0.76869(6) 0.70539(6)
O3 O 0.79117(6) 0.83830(6) 0.69705(7)
O4 O 0.90827(7) 0.83819(10) 0.76681(7)
O5 O 0.85291(6) 0.90228(9) 0.76699(6)
N1 N 0.74539(6) 0.76560(4) 0.43753(6)
C1 C 0.78765(6) 0.74418(6) 0.46312(6)
H1 H 0.8080 0.7183 0.4466
C2 C 0.80017(7) 0.76061(6) 0.51283(6)
H2 H 0.8290 0.7460 0.5303
C3 C 0.77043(7) 0.79846(5) 0.53696(7)
C4 C 0.72818(6) 0.81987(6) 0.51138(7)
H3 H 0.7079 0.8457 0.5279
C5 C 0.71566(6) 0.80344(6) 0.46166(6)
H4 H 0.6868 0.8181 0.4442
C6 C 0.78124(9) 0.81306(9) 0.59213(10)
H5 H 0.7653 0.8437 0.6048
C7 C 0.80980(10) 0.78803(9) 0.62326(10)
H6 H 0.8291 0.7596 0.6100
C8 C 0.81500(8) 0.80072(8) 0.68053(8)
C9 C 0.89667(9) 0.88378(10) 0.76526(9)
C10 C 0.94175(11) 0.92154(11) 0.75642(11)
C11 C 0.93354(10) 0.97369(10) 0.75634(11)
H7 H 0.8990 0.9864 0.7564
C14 C 0.99221(11) 0.90297(13) 0.75595(10)
H9 H 0.9984 0.8667 0.7559
Ni2 Ni 0.770325(10) 0.781066(10) 0.869654(10)
Ni4 Ni 0.781066(10) 0.869654(10) 0.770325(10)
Ni7 Ni 0.718934(10) 0.729675(10) 0.369654(10)
Ni9 Ni 0.729675(10) 0.369654(10) 0.718934(10)
O8 O 0.76869(6) 0.70539(6) 0.84344(7)
O10 O 0.70539(6) 0.84344(7) 0.76869(6)
O15 O 0.83830(6) 0.69705(7) 0.79117(6)
O17 O 0.69705(7) 0.79117(6) 0.83830(6)
O22 O 0.83819(10) 0.76681(7) 0.90827(7)
O24 O 0.76681(7) 0.90827(7) 0.83819(10)
O29 O 0.90228(9) 0.76699(6) 0.85291(6)
O31 O 0.76699(6) 0.85291(6) 0.90228(9)
N2 N 0.76560(4) 0.43753(6) 0.74539(6)
N3 N 0.93753(6) 0.73440(4) 0.75461(6)
N4 N 0.43753(6) 0.74539(6) 0.76560(4)
N5 N 0.73440(4) 0.75461(6) 0.93753(6)
N8 N 0.75461(6) 0.93753(6) 0.73440(4)
C15 C 0.74418(6) 0.46312(6) 0.78765(6)
C16 C 0.96312(6) 0.75582(6) 0.71235(6)
C17 C 0.46312(6) 0.78765(6) 0.74418(6)
C18 C 0.75582(6) 0.71235(6) 0.96312(6)
H10 H 0.7183 0.4466 0.8080
H11 H 0.9466 0.7817 0.6920
H12 H 0.4466 0.8080 0.7183
H13 H 0.7817 0.6920 0.9466
C20 C 0.76061(6) 0.51283(6) 0.80017(7)
C22 C 0.51283(6) 0.80017(7) 0.76061(6)
H15 H 0.7460 0.5303 0.8290
H17 H 0.5303 0.8290 0.7460
C25 C 0.79846(5) 0.53696(7) 0.77043(7)
C27 C 0.53696(7) 0.77043(7) 0.79846(5)
C30 C 0.81987(6) 0.51138(7) 0.72818(6)
C32 C 0.51138(7) 0.72818(6) 0.81987(6)
H20 H 0.8457 0.5279 0.7079
H22 H 0.5279 0.7079 0.8457
C35 C 0.80344(6) 0.46166(6) 0.71566(6)
C36 C 0.96166(6) 0.69656(6) 0.78434(6)
C37 C 0.46166(6) 0.71566(6) 0.80344(6)
C38 C 0.69656(6) 0.78434(6) 0.96166(6)
H25 H 0.8181 0.4442 0.6868
H26 H 0.9442 0.6819 0.8132
H27 H 0.4442 0.6868 0.8181
H28 H 0.6819 0.8132 0.9442
C40 C 0.81306(9) 0.59213(10) 0.78124(9)
C42 C 0.59213(10) 0.78124(9) 0.81306(9)
H30 H 0.8437 0.6048 0.7653
H32 H 0.6048 0.7653 0.8437
C45 C 0.78803(9) 0.62326(10) 0.80980(10)
C47 C 0.62326(10) 0.80980(10) 0.78803(9)
H35 H 0.7596 0.6100 0.8291
H37 H 0.6100 0.8291 0.7596
C50 C 0.80072(8) 0.68053(8) 0.81500(8)
C52 C 0.68053(8) 0.81500(8) 0.80072(8)
C56 C 0.88378(10) 0.76526(9) 0.89667(9)
C58 C 0.76526(9) 0.89667(9) 0.88378(10)
C61 C 0.92154(11) 0.75642(11) 0.94175(11)
C63 C 0.75642(11) 0.94175(11) 0.92154(11)
C66 C 0.97369(10) 0.75634(11) 0.93354(10)
C68 C 0.75634(11) 0.93354(10) 0.97369(10)
H41 H 0.9864 0.7564 0.8990
H43 H 0.7564 0.8990 0.9864
C81 C 0.90297(13) 0.75595(10) 0.99221(11)
C83 C 0.75595(10) 0.99221(11) 0.90297(13)
H51 H 0.8667 0.7559 0.9984
H53 H 0.7559 0.9984 0.8667
Ni15_2 Ni 0.270325(10) 0.369654(10) 0.281066(10)
Ni16_2 Ni 0.369654(10) 0.281066(10) 0.270325(10)
O11_2 O 0.26869(6) 0.34344(7) 0.20539(6)
O18_2 O 0.33830(6) 0.29117(6) 0.19705(7)
C23_2 C 0.26061(6) 0.30017(7) 0.01283(6)
H18_2 H 0.2460 0.3290 0.0303
C28_2 C 0.29846(5) 0.27043(7) 0.03696(7)
C33_2 C 0.31987(6) 0.22818(6) 0.01138(7)
H23_2 H 0.3457 0.2079 0.0279
C43_2 C 0.31306(9) 0.28124(9) 0.09213(10)
H33_2 H 0.3437 0.2653 0.1048
C48_2 C 0.28803(9) 0.30980(10) 0.12326(10)
H38_2 H 0.2596 0.3291 0.1100
C53_2 C 0.30072(8) 0.31500(8) 0.18053(8)
C72_2 C 0.00908(10) 0.24378(10) 0.02504(11)
C73_2 C 0.24378(10) 0.02504(11) 0.00908(10)
C77_2 C 0.06274(13) 0.24442(11) 0.03363(11)
C78_2 C 0.24442(11) 0.03363(11) 0.06274(13)
H47_2 H 0.0757 0.2451 0.0681
H48_2 H 0.2451 0.0681 0.0757
O3_2 O 0.20883(6) 0.16170(6) 0.69705(7)
N1_2 N 0.25461(6) 0.23440(4) 0.43753(6)
C1_2 C 0.21235(6) 0.25582(6) 0.46312(6)
H1_2 H 0.1920 0.2817 0.4466
C2_2 C 0.19983(7) 0.23939(6) 0.51283(6)
H2_2 H 0.1710 0.2540 0.5303
C3_2 C 0.22957(7) 0.20154(5) 0.53696(7)
C4_2 C 0.27182(6) 0.18013(6) 0.51138(7)
H3_2 H 0.2921 0.1543 0.5279
C5_2 C 0.28434(6) 0.19656(6) 0.46166(6)
H4_2 H 0.3132 0.1819 0.4442
C6_2 C 0.21876(9) 0.18694(9) 0.59213(10)
H5_2 H 0.2347 0.1563 0.6048
C7_2 C 0.19020(10) 0.21197(9) 0.62326(10)
H6_2 H 0.1709 0.2404 0.6100
C8_2 C 0.18500(8) 0.19928(8) 0.68053(8)
Ni2_2 Ni 0.229675(10) 0.218934(10) 0.869654(10)
Ni7_2 Ni 0.281066(10) 0.270325(10) 0.369654(10)
Ni12 Ni 0.630346(10) 0.281066(10) 0.729675(10)
O8_2 O 0.23131(6) 0.29461(6) 0.84344(7)
O10_2 O 0.29461(6) 0.15656(7) 0.76869(6)
O17_2 O 0.30295(7) 0.20883(6) 0.83830(6)
O22_2 O 0.16181(10) 0.23319(7) 0.90827(7)
O24_2 O 0.23319(7) 0.09173(7) 0.83819(10)
O31_2 O 0.23301(6) 0.14709(6) 0.90228(9)
N4_2 N 0.56247(6) 0.25461(6) 0.76560(4)
N5_2 N 0.26560(4) 0.24539(6) 0.93753(6)
C15_2 C 0.25582(6) 0.53688(6) 0.78765(6)
C16_2 C 0.03688(6) 0.24418(6) 0.71235(6)
C17_2 C 0.53688(6) 0.21235(6) 0.74418(6)
C18_2 C 0.24418(6) 0.28765(6) 0.96312(6)
H10_2 H 0.2817 0.5534 0.8080
H11_2 H 0.0534 0.2183 0.6920
H12_2 H 0.5534 0.1920 0.7183
H13_2 H 0.2183 0.3080 0.9466
C20_2 C 0.23939(6) 0.48717(6) 0.80017(7)
C22_2 C 0.48717(6) 0.19983(7) 0.76061(6)
H15_2 H 0.2540 0.4697 0.8290
H17_2 H 0.4697 0.1710 0.7460
C25_2 C 0.20154(5) 0.46304(7) 0.77043(7)
C27_2 C 0.46304(7) 0.22957(7) 0.79846(5)
C30_2 C 0.18013(6) 0.48862(7) 0.72818(6)
C32_2 C 0.48862(7) 0.27182(6) 0.81987(6)
H20_2 H 0.1543 0.4721 0.7079
H22_2 H 0.4721 0.2921 0.8457
C35_2 C 0.19656(6) 0.53834(6) 0.71566(6)
C36_2 C 0.03834(6) 0.30344(6) 0.78434(6)
C37_2 C 0.53834(6) 0.28434(6) 0.80344(6)
C38_2 C 0.30344(6) 0.21566(6) 0.96166(6)
H25_2 H 0.1819 0.5558 0.6868
H26_2 H 0.0558 0.3181 0.8132
H27_2 H 0.5558 0.3132 0.8181
H28_2 H 0.3181 0.1868 0.9442
C40_2 C 0.18694(9) 0.40787(10) 0.78124(9)
C42_2 C 0.40787(10) 0.21876(9) 0.81306(9)
H30_2 H 0.1563 0.3952 0.7653
H32_2 H 0.3952 0.2347 0.8437
C45_2 C 0.21197(9) 0.37674(10) 0.80980(10)
C47_2 C 0.37674(10) 0.19020(10) 0.78803(9)
H35_2 H 0.2404 0.3900 0.8291
H37_2 H 0.3900 0.1709 0.7596
C50_2 C 0.19928(8) 0.31947(8) 0.81500(8)
C52_2 C 0.31947(8) 0.18500(8) 0.80072(8)
C56_2 C 0.11622(10) 0.23474(9) 0.89667(9)
C58_2 C 0.23474(9) 0.10333(9) 0.88378(10)
C61_2 C 0.07846(11) 0.24358(11) 0.94175(11)
C63_2 C 0.24358(11) 0.05825(11) 0.92154(11)
C66_2 C 0.02631(10) 0.24366(11) 0.93354(10)
C68_2 C 0.24366(11) 0.06646(10) 0.97369(10)
H41_2 H 0.0136 0.2436 0.8990
H43_2 H 0.2436 0.1010 0.9864
C81_2 C 0.09703(13) 0.24405(10) 0.99221(11)
C83_2 C 0.24405(10) 0.00779(11) 0.90297(13)
H51_2 H 0.1333 0.2441 0.9984
H53_2 H 0.2441 0.0016 0.8667
Ni13_2 Ni 0.218934(10) 0.869654(10) 0.229675(10)
O25_2 O 0.23319(7) 0.90827(7) 0.16181(10)
O32_2 O 0.23301(6) 0.85291(6) 0.09772(9)
C59_2 C 0.23474(9) 0.89667(9) 0.11622(10)
C64_2 C 0.24358(11) 0.94175(11) 0.07846(11)
C69_2 C 0.24366(11) 0.93354(10) 0.02631(10)
H44_2 H 0.2436 0.8990 0.0136
C84_2 C 0.24405(10) 0.99221(11) 0.09703(13)
H54_2 H 0.2441 0.9984 0.1333
C74_2 C 0.24378(10) 0.97496(11) 0.99092(10)
C79_2 C 0.24442(11) 0.96637(11) 0.93726(13)
H49_2 H 0.2451 0.9319 0.9243
Ni11_2 Ni 0.869654(10) 0.229675(10) 0.218934(10)
O23_2 O 0.83819(10) 0.23319(7) 0.09173(7)
O30_2 O 0.90228(9) 0.23301(6) 0.14709(6)
C57_2 C 0.88378(10) 0.23474(9) 0.10333(9)
C62_2 C 0.92154(11) 0.24358(11) 0.05825(11)
C67_2 C 0.97369(10) 0.24366(11) 0.06646(10)
H42_2 H 0.9864 0.2436 0.1010
C82_2 C 0.90297(13) 0.24405(10) 0.00779(11)
H52_2 H 0.8667 0.2441 0.0016
Ni3_2 Ni 0.718934(10) 0.270325(10) 0.630346(10)
O6_2 O 0.69676(7) 0.30324(7) 0.69676(7)
O9_2 O 0.79461(6) 0.26869(6) 0.65656(7)
O12_2 O 0.65656(7) 0.20539(6) 0.73131(6)
O13_2 O 0.73131(6) 0.34344(7) 0.79461(6)
O16_2 O 0.80295(7) 0.33830(6) 0.70883(6)
O19_2 O 0.70883(6) 0.19705(7) 0.66170(6)
O26_2 O 0.73319(7) 0.33819(10) 0.59173(7)
O27_2 O 0.66181(10) 0.40827(7) 0.73319(7)
O33_2 O 0.64709(6) 0.26699(6) 0.59772(9)
O34_2 O 0.73301(6) 0.40228(9) 0.64709(6)
N7_2 N 0.74539(6) 0.23440(4) 0.56247(6)
C21_2 C 0.98717(6) 0.26061(6) 0.69983(7)
C24_2 C 0.69983(7) 0.01283(6) 0.73939(6)
H16_2 H 0.9697 0.2460 0.6710
H19_2 H 0.6710 0.0303 0.7540
C26_2 C 0.96304(7) 0.29846(5) 0.72957(7)
C29_2 C 0.72957(7) 0.03696(7) 0.70154(5)
C31_2 C 0.98862(7) 0.31987(6) 0.77182(6)
C34_2 C 0.77182(6) 0.01138(7) 0.68013(6)
H21_2 H 0.9721 0.3457 0.7921
H24_2 H 0.7921 0.0279 0.6543
C41_2 C 0.90787(10) 0.31306(9) 0.71876(9)
C44_2 C 0.71876(9) 0.09213(10) 0.68694(9)
H31_2 H 0.8952 0.3437 0.7347
H34_2 H 0.7347 0.1048 0.6563
C46_2 C 0.87674(10) 0.28803(9) 0.69020(10)
C49_2 C 0.69020(10) 0.12326(10) 0.71197(9)
H36_2 H 0.8900 0.2596 0.6709
H39_2 H 0.6709 0.1100 0.7404
C51_2 C 0.81947(8) 0.30072(8) 0.68500(8)
C54_2 C 0.68500(8) 0.18053(8) 0.69928(8)
C71_2 C 0.99092(10) 0.24378(10) 0.97496(11)
C76_2 C 0.93726(13) 0.24442(11) 0.96637(11)
H46_2 H 0.9243 0.2451 0.9319
C19_2 C 0.71235(6) 0.96312(6) 0.75582(6)
H14_2 H 0.6920 0.9466 0.7817
C39_2 C 0.78434(6) 0.96166(6) 0.69656(6)
H29_2 H 0.8132 0.9442 0.6819
C12_2 C 0.02504(11) 0.00908(10) 0.24378(10)
C13_2 C 0.03363(11) 0.06274(13) 0.24442(11)
H8_2 H 0.0681 0.0757 0.2451
O1_2 O 0.19676(7) 0.80324(7) 0.19676(7)
O2_2 O 0.15656(7) 0.76869(6) 0.29461(6)
O3_3 O 0.20883(6) 0.83830(6) 0.30295(7)
O4_2 O 0.09173(7) 0.83819(10) 0.23319(7)
O5_2 O 0.14709(6) 0.90228(9) 0.23301(6)
C1_3 C 0.21235(6) 0.74418(6) 0.53688(6)
H1_3 H 0.1920 0.7183 0.5534
C2_3 C 0.19983(7) 0.76061(6) 0.48717(6)
H2_3 H 0.1710 0.7460 0.4697
C3_3 C 0.22957(7) 0.79846(5) 0.46304(7)
C4_3 C 0.27182(6) 0.81987(6) 0.48862(7)
H3_3 H 0.2921 0.8457 0.4721
C5_3 C 0.28434(6) 0.80344(6) 0.53834(6)
H4_3 H 0.3132 0.8181 0.5558
C6_3 C 0.21876(9) 0.81306(9) 0.40787(10)
H5_3 H 0.2347 0.8437 0.3952
C7_3 C 0.19020(10) 0.78803(9) 0.37674(10)
H6_3 H 0.1709 0.7596 0.3900
C8_3 C 0.18500(8) 0.80072(8) 0.31947(8)
C9_2 C 0.10333(9) 0.88378(10) 0.23474(9)
C10_2 C 0.05825(11) 0.92154(11) 0.24358(11)
C11_2 C 0.06646(10) 0.97369(10) 0.24366(11)
H7_2 H 0.1010 0.9864 0.2436
C14_2 C 0.00779(11) 0.90297(13) 0.24405(10)
H9_2 H 0.0016 0.8667 0.2441
O8_3 O 0.23131(6) 0.70539(6) 0.15656(7)
O10_3 O 0.29461(6) 0.84344(7) 0.23131(6)
O15_2 O 0.16170(6) 0.69705(7) 0.20883(6)
O17_3 O 0.30295(7) 0.79117(6) 0.16170(6)
N2_2 N 0.23440(4) 0.43753(6) 0.25461(6)
N3_2 N 0.06247(6) 0.73440(4) 0.24539(6)
N4_3 N 0.56247(6) 0.74539(6) 0.23440(4)
N5_3 N 0.26560(4) 0.75461(6) 0.06247(6)
N8_2 N 0.24539(6) 0.93753(6) 0.26560(4)
C15_3 C 0.25582(6) 0.46312(6) 0.21235(6)
C16_3 C 0.03688(6) 0.75582(6) 0.28765(6)
C17_3 C 0.53688(6) 0.78765(6) 0.25582(6)
C18_3 C 0.24418(6) 0.71235(6) 0.03688(6)
H10_3 H 0.2817 0.4466 0.1920
H11_3 H 0.0534 0.7817 0.3080
H12_3 H 0.5534 0.8080 0.2817
H13_3 H 0.2183 0.6920 0.0534
C20_3 C 0.23939(6) 0.51283(6) 0.19983(7)
C22_3 C 0.48717(6) 0.80017(7) 0.23939(6)
H15_3 H 0.2540 0.5303 0.1710
H17_3 H 0.4697 0.8290 0.2540
C25_3 C 0.20154(5) 0.53696(7) 0.22957(7)
C27_3 C 0.46304(7) 0.77043(7) 0.20154(5)
C30_3 C 0.18013(6) 0.51138(7) 0.27182(6)
C32_3 C 0.48862(7) 0.72818(6) 0.18013(6)
H20_3 H 0.1543 0.5279 0.2921
H22_3 H 0.4721 0.7079 0.1543
C35_3 C 0.19656(6) 0.46166(6) 0.28434(6)
C36_3 C 0.03834(6) 0.69656(6) 0.21566(6)
C37_3 C 0.53834(6) 0.71566(6) 0.19656(6)
C38_3 C 0.30344(6) 0.78434(6) 0.03834(6)
H25_3 H 0.1819 0.4442 0.3132
H26_3 H 0.0558 0.6819 0.1868
H27_3 H 0.5558 0.6868 0.1819
H28_3 H 0.3181 0.8132 0.0558
C40_3 C 0.18694(9) 0.59213(10) 0.21876(9)
C42_3 C 0.40787(10) 0.78124(9) 0.18694(9)
H30_3 H 0.1563 0.6048 0.2347
H32_3 H 0.3952 0.7653 0.1563
C45_3 C 0.21197(9) 0.62326(10) 0.19020(10)
C47_3 C 0.37674(10) 0.80980(10) 0.21197(9)
H35_3 H 0.2404 0.6100 0.1709
H37_3 H 0.3900 0.8291 0.2404
C50_3 C 0.19928(8) 0.68053(8) 0.18500(8)
C52_3 C 0.31947(8) 0.81500(8) 0.19928(8)
O18_3 O 0.33830(6) 0.70883(6) 0.80295(7)
C23_3 C 0.26061(6) 0.69983(7) 0.98717(6)
H18_3 H 0.2460 0.6710 0.9697
C28_3 C 0.29846(5) 0.72957(7) 0.96304(7)
C33_3 C 0.31987(6) 0.77182(6) 0.98862(7)
H23_3 H 0.3457 0.7921 0.9721
C43_3 C 0.31306(9) 0.71876(9) 0.90787(10)
H33_3 H 0.3437 0.7347 0.8952
C48_3 C 0.28803(9) 0.69020(10) 0.87674(10)
H38_3 H 0.2596 0.6709 0.8900
C53_3 C 0.30072(8) 0.68500(8) 0.81947(8)
O7_2 O 0.80324(7) 0.19676(7) 0.19676(7)
O14_2 O 0.84344(7) 0.23131(6) 0.29461(6)
O20_2 O 0.83830(6) 0.30295(7) 0.20883(6)
O21_2 O 0.90827(7) 0.16181(10) 0.23319(7)
O28_2 O 0.85291(6) 0.09772(9) 0.23301(6)
N6_2 N 0.75461(6) 0.06247(6) 0.26560(4)
N10_2 N 0.93753(6) 0.26560(4) 0.24539(6)
C19_3 C 0.71235(6) 0.03688(6) 0.24418(6)
H14_3 H 0.6920 0.0534 0.2183
C39_3 C 0.78434(6) 0.03834(6) 0.30344(6)
H29_3 H 0.8132 0.0558 0.3181
C55_2 C 0.89667(9) 0.11622(10) 0.23474(9)
C60_2 C 0.94175(11) 0.07846(11) 0.24358(11)
C65_2 C 0.93354(10) 0.02631(10) 0.24366(11)
H40_2 H 0.8990 0.0136 0.2436
C80_2 C 0.99221(11) 0.09703(13) 0.24405(10)
H50_2 H 0.9984 0.1333 0.2441
O6_3 O 0.69676(7) 0.69676(7) 0.30324(7)
O9_3 O 0.79461(6) 0.73131(6) 0.34344(7)
O12_3 O 0.65656(7) 0.79461(6) 0.26869(6)
O16_3 O 0.80295(7) 0.66170(6) 0.29117(6)
O19_3 O 0.70883(6) 0.80295(7) 0.33830(6)
O26_3 O 0.73319(7) 0.66181(10) 0.40827(7)
O27_3 O 0.66181(10) 0.59173(7) 0.26681(7)
O33_3 O 0.64709(6) 0.73301(6) 0.40228(9)
O34_3 O 0.73301(6) 0.59772(9) 0.35291(6)
N9_2 N 0.76560(4) 0.56247(6) 0.25461(6)
C21_3 C 0.98717(6) 0.73939(6) 0.30017(7)
C24_3 C 0.69983(7) 0.98717(6) 0.26061(6)
H16_3 H 0.9697 0.7540 0.3290
H19_3 H 0.6710 0.9697 0.2460
C26_3 C 0.96304(7) 0.70154(5) 0.27043(7)
C29_3 C 0.72957(7) 0.96304(7) 0.29846(5)
C31_3 C 0.98862(7) 0.68013(6) 0.22818(6)
C34_3 C 0.77182(6) 0.98862(7) 0.31987(6)
H21_3 H 0.9721 0.6543 0.2079
H24_3 H 0.7921 0.9721 0.3457
C41_3 C 0.90787(10) 0.68694(9) 0.28124(9)
C44_3 C 0.71876(9) 0.90787(10) 0.31306(9)
H31_3 H 0.8952 0.6563 0.2653
H34_3 H 0.7347 0.8952 0.3437
C46_3 C 0.87674(10) 0.71197(9) 0.30980(10)
C49_3 C 0.69020(10) 0.87674(10) 0.28803(9)
H36_3 H 0.8900 0.7404 0.3291
H39_3 H 0.6709 0.8900 0.2596
C51_3 C 0.81947(8) 0.69928(8) 0.31500(8)
C54_3 C 0.68500(8) 0.81947(8) 0.30072(8)
C70_2 C 0.97496(11) 0.99092(10) 0.24378(10)
C75_2 C 0.96637(11) 0.93726(13) 0.24442(11)
H45_2 H 0.9319 0.9243 0.2451
O6_4 O 0.30324(7) 0.30324(7) 0.30324(7)
O9_4 O 0.20539(6) 0.26869(6) 0.34344(7)
O12_4 O 0.34344(7) 0.20539(6) 0.26869(6)
O16_4 O 0.19705(7) 0.33830(6) 0.29117(6)
O19_4 O 0.29117(6) 0.19705(7) 0.33830(6)
O26_4 O 0.26681(7) 0.33819(10) 0.40827(7)
O27_4 O 0.33819(10) 0.40827(7) 0.26681(7)
O33_4 O 0.35291(6) 0.26699(6) 0.40228(9)
O34_4 O 0.26699(6) 0.40228(9) 0.35291(6)
C21_4 C 0.01283(6) 0.26061(6) 0.30017(7)
C24_4 C 0.30017(7) 0.01283(6) 0.26061(6)
H16_4 H 0.0303 0.2460 0.3290
H19_4 H 0.3290 0.0303 0.2460
C26_4 C 0.03696(7) 0.29846(5) 0.27043(7)
C29_4 C 0.27043(7) 0.03696(7) 0.29846(5)
C31_4 C 0.01138(7) 0.31987(6) 0.22818(6)
C34_4 C 0.22818(6) 0.01138(7) 0.31987(6)
H21_4 H 0.0279 0.3457 0.2079
H24_4 H 0.2079 0.0279 0.3457
C41_4 C 0.09213(10) 0.31306(9) 0.28124(9)
C44_4 C 0.28124(9) 0.09213(10) 0.31306(9)
H31_4 H 0.1048 0.3437 0.2653
H34_4 H 0.2653 0.1048 0.3437
C46_4 C 0.12326(10) 0.28803(9) 0.30980(10)
C49_4 C 0.30980(10) 0.12326(10) 0.28803(9)
H36_4 H 0.1100 0.2596 0.3291
H39_4 H 0.3291 0.1100 0.2596
C51_4 C 0.18053(8) 0.30072(8) 0.31500(8)
C54_4 C 0.31500(8) 0.18053(8) 0.30072(8)
C19_4 C 0.28765(6) 0.96312(6) 0.24418(6)
H14_4 H 0.3080 0.9466 0.2183
C39_4 C 0.21566(6) 0.96166(6) 0.30344(6)
H29_4 H 0.1868 0.9442 0.3181
O3_4 O 0.79117(6) 0.16170(6) 0.30295(7)
C1_4 C 0.78765(6) 0.25582(6) 0.53688(6)
H1_4 H 0.8080 0.2817 0.5534
C2_4 C 0.80017(7) 0.23939(6) 0.48717(6)
H2_4 H 0.8290 0.2540 0.4697
C3_4 C 0.77043(7) 0.20154(5) 0.46304(7)
C4_4 C 0.72818(6) 0.18013(6) 0.48862(7)
H3_4 H 0.7079 0.1543 0.4721
C5_4 C 0.71566(6) 0.19656(6) 0.53834(6)
H4_4 H 0.6868 0.1819 0.5558
C6_4 C 0.78124(9) 0.18694(9) 0.40787(10)
H5_4 H 0.7653 0.1563 0.3952
C7_4 C 0.80980(10) 0.21197(9) 0.37674(10)
H6_4 H 0.8291 0.2404 0.3900
C8_4 C 0.81500(8) 0.19928(8) 0.31947(8)
O8_4 O 0.76869(6) 0.29461(6) 0.15656(7)
O10_4 O 0.70539(6) 0.15656(7) 0.23131(6)
O17_4 O 0.69705(7) 0.20883(6) 0.16170(6)
N4_4 N 0.43753(6) 0.25461(6) 0.23440(4)
N5_4 N 0.73440(4) 0.24539(6) 0.06247(6)
C15_4 C 0.74418(6) 0.53688(6) 0.21235(6)
C16_4 C 0.96312(6) 0.24418(6) 0.28765(6)
C17_4 C 0.46312(6) 0.21235(6) 0.25582(6)
C18_4 C 0.75582(6) 0.28765(6) 0.03688(6)
H10_4 H 0.7183 0.5534 0.1920
H11_4 H 0.9466 0.2183 0.3080
H12_4 H 0.4466 0.1920 0.2817
H13_4 H 0.7817 0.3080 0.0534
C20_4 C 0.76061(6) 0.48717(6) 0.19983(7)
C22_4 C 0.51283(6) 0.19983(7) 0.23939(6)
H15_4 H 0.7460 0.4697 0.1710
H17_4 H 0.5303 0.1710 0.2540
C25_4 C 0.79846(5) 0.46304(7) 0.22957(7)
C27_4 C 0.53696(7) 0.22957(7) 0.20154(5)
C30_4 C 0.81987(6) 0.48862(7) 0.27182(6)
C32_4 C 0.51138(7) 0.27182(6) 0.18013(6)
H20_4 H 0.8457 0.4721 0.2921
H22_4 H 0.5279 0.2921 0.1543
C35_4 C 0.80344(6) 0.53834(6) 0.28434(6)
C36_4 C 0.96166(6) 0.30344(6) 0.21566(6)
C37_4 C 0.46166(6) 0.28434(6) 0.19656(6)
C38_4 C 0.69656(6) 0.21566(6) 0.03834(6)
H25_4 H 0.8181 0.5558 0.3132
H26_4 H 0.9442 0.3181 0.1868
H27_4 H 0.4442 0.3132 0.1819
H28_4 H 0.6819 0.1868 0.0558
C40_4 C 0.81306(9) 0.40787(10) 0.21876(9)
C42_4 C 0.59213(10) 0.21876(9) 0.18694(9)
H30_4 H 0.8437 0.3952 0.2347
H32_4 H 0.6048 0.2347 0.1563
C45_4 C 0.78803(9) 0.37674(10) 0.19020(10)
C47_4 C 0.62326(10) 0.19020(10) 0.21197(9)
H35_4 H 0.7596 0.3900 0.1709
H37_4 H 0.6100 0.1709 0.2404
C50_4 C 0.80072(8) 0.31947(8) 0.18500(8)
C52_4 C 0.68053(8) 0.18500(8) 0.19928(8)
O18_4 O 0.66170(6) 0.29117(6) 0.80295(7)
C23_4 C 0.73939(6) 0.30017(7) 0.98717(6)
H18_4 H 0.7540 0.3290 0.9697
C28_4 C 0.70154(5) 0.27043(7) 0.96304(7)
C33_4 C 0.68013(6) 0.22818(6) 0.98862(7)
H23_4 H 0.6543 0.2079 0.9721
C43_4 C 0.68694(9) 0.28124(9) 0.90787(10)
H33_4 H 0.6563 0.2653 0.8952
C48_4 C 0.71197(9) 0.30980(10) 0.87674(10)
H38_4 H 0.7404 0.3291 0.8900
C53_4 C 0.69928(8) 0.31500(8) 0.81947(8)
O26_5 O 0.59173(7) 0.26681(7) 0.66181(10)
O33_5 O 0.59772(9) 0.35291(6) 0.73301(6)
O26_6 O 0.59173(7) 0.73319(7) 0.33819(10)
O33_6 O 0.59772(9) 0.64709(6) 0.26699(6)
O26_7 O 0.40827(7) 0.73319(7) 0.66181(10)
O33_7 O 0.40228(9) 0.64709(6) 0.73301(6)
O26_8 O 0.40827(7) 0.26681(7) 0.33819(10)
O33_8 O 0.40228(9) 0.35291(6) 0.26699(6)
C9_3 C 0.38378(10) 0.39667(9) 0.26526(9)
C10_3 C 0.42154(11) 0.44175(11) 0.25642(11)
C11_3 C 0.47369(10) 0.43354(10) 0.25634(11)
H7_3 H 0.4864 0.3990 0.2564
C12_3 C 0.50908(10) 0.47496(11) 0.25622(10)
C13_3 C 0.56274(13) 0.46637(11) 0.25558(11)
H8_3 H 0.5757 0.4319 0.2549
C14_3 C 0.40297(13) 0.49221(11) 0.25595(10)
H9_3 H 0.3667 0.4984 0.2559
C55_3 C 0.61622(10) 0.60333(9) 0.26526(9)
C56_3 C 0.26526(9) 0.38378(10) 0.39667(9)
C57_3 C 0.26526(9) 0.61622(10) 0.60333(9)
C58_3 C 0.39667(9) 0.26526(9) 0.38378(10)
C59_3 C 0.60333(9) 0.26526(9) 0.61622(10)
C60_3 C 0.57846(11) 0.55825(11) 0.25642(11)
C61_3 C 0.25642(11) 0.42154(11) 0.44175(11)
C62_3 C 0.25642(11) 0.57846(11) 0.55825(11)
C63_3 C 0.44175(11) 0.25642(11) 0.42154(11)
C64_3 C 0.55825(11) 0.25642(11) 0.57846(11)
C65_3 C 0.52631(10) 0.56646(10) 0.25634(11)
C66_3 C 0.25634(11) 0.47369(10) 0.43354(10)
C67_3 C 0.25634(11) 0.52631(10) 0.56646(10)
C68_3 C 0.43354(10) 0.25634(11) 0.47369(10)
C69_3 C 0.56646(10) 0.25634(11) 0.52631(10)
H40_3 H 0.5136 0.6010 0.2564
H41_3 H 0.2564 0.4864 0.3990
H42_3 H 0.2564 0.5136 0.6010
H43_3 H 0.3990 0.2564 0.4864
H44_3 H 0.6010 0.2564 0.5136
C70_3 C 0.49092(10) 0.52504(11) 0.25622(10)
C71_3 C 0.25622(10) 0.50908(10) 0.47496(11)
C72_3 C 0.25622(10) 0.49092(10) 0.52504(11)
C73_3 C 0.47496(11) 0.25622(10) 0.50908(10)
C74_3 C 0.52504(11) 0.25622(10) 0.49092(10)
C75_3 C 0.43726(13) 0.53363(11) 0.25558(11)
C76_3 C 0.25558(11) 0.56274(13) 0.46637(11)
C77_3 C 0.25558(11) 0.43726(13) 0.53363(11)
C78_3 C 0.46637(11) 0.25558(11) 0.56274(13)
C79_3 C 0.53363(11) 0.25558(11) 0.43726(13)
H45_3 H 0.4243 0.5681 0.2549
H46_3 H 0.2549 0.5757 0.4319
H47_3 H 0.2549 0.4243 0.5681
H48_3 H 0.4319 0.2549 0.5757
H49_3 H 0.5681 0.2549 0.4243
C80_3 C 0.59703(13) 0.50779(11) 0.25595(10)
C81_3 C 0.25595(10) 0.40297(13) 0.49221(11)
C82_3 C 0.25595(10) 0.59703(13) 0.50779(11)
C83_3 C 0.49221(11) 0.25595(10) 0.40297(13)
C84_3 C 0.50779(11) 0.25595(10) 0.59703(13)
H50_3 H 0.6333 0.5016 0.2559
H51_3 H 0.2559 0.3667 0.4984
H52_3 H 0.2559 0.6333 0.5016
H53_3 H 0.4984 0.2559 0.3667
H54_3 H 0.5016 0.2559 0.6333
C56_4 C 0.73474(9) 0.61622(10) 0.39667(9)
C57_4 C 0.73474(9) 0.38378(10) 0.60333(9)
C58_4 C 0.60333(9) 0.73474(9) 0.38378(10)
C59_4 C 0.39667(9) 0.73474(9) 0.61622(10)
C61_4 C 0.74358(11) 0.57846(11) 0.44175(11)
C62_4 C 0.74358(11) 0.42154(11) 0.55825(11)
C63_4 C 0.55825(11) 0.74358(11) 0.42154(11)
C64_4 C 0.44175(11) 0.74358(11) 0.57846(11)
C66_4 C 0.74366(11) 0.52631(10) 0.43354(10)
C67_4 C 0.74366(11) 0.47369(10) 0.56646(10)
C68_4 C 0.56646(10) 0.74366(11) 0.47369(10)
C69_4 C 0.43354(10) 0.74366(11) 0.52631(10)
H41_4 H 0.7436 0.5136 0.3990
H42_4 H 0.7436 0.4864 0.6010
H43_4 H 0.6010 0.7436 0.4864
H44_4 H 0.3990 0.7436 0.5136
C71_4 C 0.74378(10) 0.49092(10) 0.47496(11)
C72_4 C 0.74378(10) 0.50908(10) 0.52504(11)
C73_4 C 0.52504(11) 0.74378(10) 0.50908(10)
C74_4 C 0.47496(11) 0.74378(10) 0.49092(10)
C76_4 C 0.74442(11) 0.43726(13) 0.46637(11)
C77_4 C 0.74442(11) 0.56274(13) 0.53363(11)
C78_4 C 0.53363(11) 0.74442(11) 0.56274(13)
C79_4 C 0.46637(11) 0.74442(11) 0.43726(13)
H46_4 H 0.7451 0.4243 0.4319
H47_4 H 0.7451 0.5757 0.5681
H48_4 H 0.5681 0.7451 0.5757
H49_4 H 0.4319 0.7451 0.4243
C81_4 C 0.74405(10) 0.59703(13) 0.49221(11)
C82_4 C 0.74405(10) 0.40297(13) 0.50779(11)
C83_4 C 0.50779(11) 0.74405(10) 0.40297(13)
C84_4 C 0.49221(11) 0.74405(10) 0.59703(13)
H51_4 H 0.7441 0.6333 0.4984
H52_4 H 0.7441 0.3667 0.5016
H53_4 H 0.5016 0.7441 0.3667
H54_4 H 0.4984 0.7441 0.6333
C9_4 C 0.38378(10) 0.60333(9) 0.73474(9)
C10_4 C 0.42154(11) 0.55825(11) 0.74358(11)
C11_4 C 0.47369(10) 0.56646(10) 0.74366(11)
H7_4 H 0.4864 0.6010 0.7436
C12_4 C 0.50908(10) 0.52504(11) 0.74378(10)
C13_4 C 0.56274(13) 0.53363(11) 0.74442(11)
H8_4 H 0.5757 0.5681 0.7451
C14_4 C 0.40297(13) 0.50779(11) 0.74405(10)
H9_4 H 0.3667 0.5016 0.7441
C55_4 C 0.61622(10) 0.39667(9) 0.73474(9)
C60_4 C 0.57846(11) 0.44175(11) 0.74358(11)
C65_4 C 0.52631(10) 0.43354(10) 0.74366(11)
H40_4 H 0.5136 0.3990 0.7436
C70_4 C 0.49092(10) 0.47496(11) 0.74378(10)
C75_4 C 0.43726(13) 0.46637(11) 0.74442(11)
H45_4 H 0.4243 0.4319 0.7451
C80_4 C 0.59703(13) 0.49221(11) 0.74405(10)
H50_4 H 0.6333 0.4984 0.7441
loop_
_geom_bond_atom_site_label_1
_geom_bond_atom_site_label_2
_geom_bond_site_symmetry_1
_geom_bond_site_symmetry_2
Ni6 O7 1_555 1_555
Ni8 O7 1_555 1_555
O14 Ni6 1_555 1_555
O20 Ni6 1_555 1_555
O21 Ni6 1_555 1_555
O28 Ni8 1_555 1_555
O35 Ni6 1_555 1_555
N6 Ni8 1_555 1_555
N10 Ni6 1_555 1_555
C19 N6 1_555 1_555
H14 C19 1_555 1_555
C39 N6 1_555 1_555
H29 C39 1_555 1_555
C55 O21 1_555 1_555
C60 C55 1_555 1_555
C65 C60 1_555 1_555
H40 C65 1_555 1_555
H50 C80 1_555 1_555
O28 C55 1_555 1_555
C60 C80 1_555 1_555
Ni10 O23 1_555 1_555
Ni11 O30 1_555 1_555
O23 C57 1_555 1_555
O30 C57 1_555 1_555
C57 C62 1_555 1_555
C62 C67 1_555 1_555
C67 H42 1_555 1_555
C82 C62 1_555 1_555
H52 C82 1_555 1_555
Ni3 O6 1_555 1_555
Ni5 O6 1_555 1_555
Ni17 O6 1_555 1_555
O9 Ni3 1_555 1_555
O12 Ni17 1_555 1_555
O13 Ni5 1_555 1_555
O16 Ni5 1_555 1_555
O19 Ni3 1_555 1_555
O26 Ni3 1_555 1_555
O27 Ni5 1_555 1_555
O33 Ni3 1_555 1_555
O34 Ni5 1_555 1_555
N7 Ni3 1_555 1_555
N9 Ni5 1_555 1_555
H16 C21 1_555 1_555
H19 C24 1_555 1_555
C26 C21 1_555 1_555
C29 C24 1_555 1_555
C31 C26 1_555 1_555
C34 C29 1_555 1_555
H21 C31 1_555 1_555
H24 C34 1_555 1_555
C41 C26 1_555 1_555
C44 C29 1_555 1_555
H31 C41 1_555 1_555
H34 C44 1_555 1_555
C46 C41 1_555 1_555
C49 C44 1_555 1_555
H36 C46 1_555 1_555
H39 C49 1_555 1_555
C51 O9 1_555 1_555
C54 O12 1_555 1_555
C76 C71 1_555 1_555
H45 C75 1_555 1_555
H46 C76 1_555 1_555
O16 C51 1_555 1_555
O19 C54 1_555 1_555
C46 C51 1_555 1_555
C49 C54 1_555 1_555
C70 C75 1_555 1_555
Ni13 O25 1_555 1_555
Ni14 O32 1_555 1_555
O25 C59 1_555 1_555
O32 C59 1_555 1_555
C59 C64 1_555 1_555
C64 C69 1_555 1_555
C69 H44 1_555 1_555
C84 C64 1_555 1_555
H54 C84 1_555 1_555
C13 C12 1_555 1_555
H8 C13 1_555 1_555
C79 C74 1_555 1_555
H49 C79 1_555 1_555
Ni15 O11 1_555 1_555
Ni16 O18 1_555 1_555
O11 C53 1_555 1_555
O18 C53 1_555 1_555
H18 C23 1_555 1_555
C28 C23 1_555 1_555
C33 C28 1_555 1_555
H23 C33 1_555 1_555
C43 C28 1_555 1_555
H33 C43 1_555 1_555
C48 C43 1_555 1_555
H38 C48 1_555 1_555
C53 C48 1_555 1_555
C77 C72 1_555 1_555
C78 C73 1_555 1_555
H47 C77 1_555 1_555
H48 C78 1_555 1_555
Ni1 O1 1_555 1_555
O1 Ni2 1_555 1_555
O2 Ni1 1_555 1_555
O3 C8 1_555 1_555
O4 Ni1 1_555 1_555
O5 C9 1_555 1_555
N1 C1 1_555 1_555
C1 H1 1_555 1_555
C2 C1 1_555 1_555
H2 C2 1_555 1_555
C3 C2 1_555 1_555
C4 C3 1_555 1_555
H3 C4 1_555 1_555
C5 N1 1_555 1_555
H4 C5 1_555 1_555
C6 C3 1_555 1_555
H5 C6 1_555 1_555
C7 C6 1_555 1_555
H6 C7 1_555 1_555
C8 O2 1_555 1_555
C9 O4 1_555 1_555
C10 C9 1_555 1_555
C11 C10 1_555 1_555
H7 C11 1_555 1_555
C14 C10 1_555 1_555
H9 C14 1_555 1_555
Ni2 O8 1_555 1_555
Ni4 O1 1_555 1_555
Ni7 N1 1_555 1_555
Ni9 N2 1_555 1_555
Ni17 N4 1_555 1_555
O8 C50 1_555 1_555
O10 Ni4 1_555 1_555
O15 Ni1 1_555 1_555
O17 Ni2 1_555 1_555
O22 Ni2 1_555 1_555
O24 Ni4 1_555 1_555
O29 Ni1 1_555 1_555
O31 Ni2 1_555 1_555
N2 C15 1_555 1_555
N3 Ni1 1_555 1_555
N4 C17 1_555 1_555
N5 Ni2 1_555 1_555
N8 Ni4 1_555 1_555
C15 H10 1_555 1_555
C16 N3 1_555 1_555
C17 H12 1_555 1_555
C18 N5 1_555 1_555
H11 C16 1_555 1_555
H13 C18 1_555 1_555
C20 C15 1_555 1_555
C22 C17 1_555 1_555
H15 C20 1_555 1_555
H17 C22 1_555 1_555
C25 C20 1_555 1_555
C27 C22 1_555 1_555
C30 C25 1_555 1_555
C32 C27 1_555 1_555
H20 C30 1_555 1_555
H22 C32 1_555 1_555
C35 N2 1_555 1_555
C36 N3 1_555 1_555
C37 N4 1_555 1_555
C38 N5 1_555 1_555
H25 C35 1_555 1_555
H26 C36 1_555 1_555
H27 C37 1_555 1_555
H28 C38 1_555 1_555
C40 C25 1_555 1_555
C42 C27 1_555 1_555
H30 C40 1_555 1_555
H32 C42 1_555 1_555
C45 C40 1_555 1_555
C47 C42 1_555 1_555
H35 C45 1_555 1_555
H37 C47 1_555 1_555
C50 O15 1_555 1_555
C52 O10 1_555 1_555
C56 O22 1_555 1_555
C58 O24 1_555 1_555
C61 C56 1_555 1_555
C63 C58 1_555 1_555
C66 C61 1_555 1_555
C68 C63 1_555 1_555
H41 C66 1_555 1_555
H43 C68 1_555 1_555
C81 C61 1_555 1_555
C83 C63 1_555 1_555
H51 C81 1_555 1_555
H53 C83 1_555 1_555
O3 Ni4 1_555 1_555
O5 Ni4 1_555 1_555
C4 C5 1_555 1_555
C7 C8 1_555 1_555
O17 C52 1_555 1_555
O29 C56 1_555 1_555
O31 C58 1_555 1_555
C30 C35 1_555 1_555
C32 C37 1_555 1_555
C45 C50 1_555 1_555
C47 C52 1_555 1_555
Ni15_2 O11_2 1_555 1_555
Ni16_2 O18_2 1_555 1_555
O11_2 C53_2 1_555 1_555
O18_2 C53_2 1_555 1_555
H18_2 C23_2 1_555 1_555
C28_2 C23_2 1_555 1_555
C33_2 C28_2 1_555 1_555
H23_2 C33_2 1_555 1_555
C43_2 C28_2 1_555 1_555
H33_2 C43_2 1_555 1_555
C48_2 C43_2 1_555 1_555
H38_2 C48_2 1_555 1_555
C53_2 C48_2 1_555 1_555
C77_2 C72_2 1_555 1_555
C78_2 C73_2 1_555 1_555
H47_2 C77_2 1_555 1_555
H48_2 C78_2 1_555 1_555
O7 Ni2_2 1_555 1_555
O3_2 C8_2 1_555 1_555
N1_2 C1_2 1_555 1_555
C1_2 H1_2 1_555 1_555
C2_2 C1_2 1_555 1_555
H2_2 C2_2 1_555 1_555
C3_2 C2_2 1_555 1_555
C4_2 C3_2 1_555 1_555
H3_2 C4_2 1_555 1_555
C5_2 N1_2 1_555 1_555
H4_2 C5_2 1_555 1_555
C6_2 C3_2 1_555 1_555
H5_2 C6_2 1_555 1_555
C7_2 C6_2 1_555 1_555
H6_2 C7_2 1_555 1_555
C8_2 O14 1_555 1_555
Ni2_2 O8_2 1_555 1_555
Ni7_2 N1_2 1_555 1_555
Ni12 N4_2 1_555 1_555
O8_2 C50_2 1_555 1_555
O10_2 Ni8 1_555 1_555
O17_2 Ni2_2 1_555 1_555
O22_2 Ni2_2 1_555 1_555
O24_2 Ni8 1_555 1_555
O31_2 Ni2_2 1_555 1_555
N9 C15_2 1_555 1_555
N4_2 C17_2 1_555 1_555
N5_2 Ni2_2 1_555 1_555
C15_2 H10_2 1_555 1_555
C16_2 N10 1_555 1_555
C17_2 H12_2 1_555 1_555
C18_2 N5_2 1_555 1_555
H11_2 C16_2 1_555 1_555
H13_2 C18_2 1_555 1_555
C20_2 C15_2 1_555 1_555
C22_2 C17_2 1_555 1_555
H15_2 C20_2 1_555 1_555
H17_2 C22_2 1_555 1_555
C25_2 C20_2 1_555 1_555
C27_2 C22_2 1_555 1_555
C30_2 C25_2 1_555 1_555
C32_2 C27_2 1_555 1_555
H20_2 C30_2 1_555 1_555
H22_2 C32_2 1_555 1_555
C35_2 N9 1_555 1_555
C36_2 N10 1_555 1_555
C37_2 N4_2 1_555 1_555
C38_2 N5_2 1_555 1_555
H25_2 C35_2 1_555 1_555
H26_2 C36_2 1_555 1_555
H27_2 C37_2 1_555 1_555
H28_2 C38_2 1_555 1_555
C40_2 C25_2 1_555 1_555
C42_2 C27_2 1_555 1_555
H30_2 C40_2 1_555 1_555
H32_2 C42_2 1_555 1_555
C45_2 C40_2 1_555 1_555
C47_2 C42_2 1_555 1_555
H35_2 C45_2 1_555 1_555
H37_2 C47_2 1_555 1_555
C50_2 O20 1_555 1_555
C52_2 O10_2 1_555 1_555
C56_2 O22_2 1_555 1_555
C58_2 O24_2 1_555 1_555
C61_2 C56_2 1_555 1_555
C63_2 C58_2 1_555 1_555
C66_2 C61_2 1_555 1_555
C68_2 C63_2 1_555 1_555
H41_2 C66_2 1_555 1_555
H43_2 C68_2 1_555 1_555
C81_2 C61_2 1_555 1_555
C83_2 C63_2 1_555 1_555
H51_2 C81_2 1_555 1_555
H53_2 C83_2 1_555 1_555
O3_2 Ni8 1_555 1_555
C4_2 C5_2 1_555 1_555
C7_2 C8_2 1_555 1_555
O17_2 C52_2 1_555 1_555
O35 C56_2 1_555 1_555
O31_2 C58_2 1_555 1_555
C30_2 C35_2 1_555 1_555
C32_2 C37_2 1_555 1_555
C45_2 C50_2 1_555 1_555
C47_2 C52_2 1_555 1_555
Ni13_2 O25_2 1_555 1_555
Ni10 O32_2 1_555 1_555
O25_2 C59_2 1_555 1_555
O32_2 C59_2 1_555 1_555
C59_2 C64_2 1_555 1_555
C64_2 C69_2 1_555 1_555
C69_2 H44_2 1_555 1_555
C84_2 C64_2 1_555 1_555
H54_2 C84_2 1_555 1_555
C79_2 C74_2 1_555 1_555
H49_2 C79_2 1_555 1_555
Ni14 O23_2 1_555 1_555
Ni11_2 O30_2 1_555 1_555
O23_2 C57_2 1_555 1_555
O30_2 C57_2 1_555 1_555
C57_2 C62_2 1_555 1_555
C62_2 C67_2 1_555 1_555
C67_2 H42_2 1_555 1_555
C82_2 C62_2 1_555 1_555
H52_2 C82_2 1_555 1_555
Ni3_2 O6_2 1_555 1_555
Ni9 O6_2 1_555 1_555
Ni12 O6_2 1_555 1_555
O9_2 Ni3_2 1_555 1_555
O12_2 Ni12 1_555 1_555
O13_2 Ni9 1_555 1_555
O16_2 Ni9 1_555 1_555
O19_2 Ni3_2 1_555 1_555
O26_2 Ni3_2 1_555 1_555
O27_2 Ni9 1_555 1_555
O33_2 Ni3_2 1_555 1_555
O34_2 Ni9 1_555 1_555
N7_2 Ni3_2 1_555 1_555
H16_2 C21_2 1_555 1_555
H19_2 C24_2 1_555 1_555
C26_2 C21_2 1_555 1_555
C29_2 C24_2 1_555 1_555
C31_2 C26_2 1_555 1_555
C34_2 C29_2 1_555 1_555
H21_2 C31_2 1_555 1_555
H24_2 C34_2 1_555 1_555
C41_2 C26_2 1_555 1_555
C44_2 C29_2 1_555 1_555
H31_2 C41_2 1_555 1_555
H34_2 C44_2 1_555 1_555
C46_2 C41_2 1_555 1_555
C49_2 C44_2 1_555 1_555
H36_2 C46_2 1_555 1_555
H39_2 C49_2 1_555 1_555
C51_2 O9_2 1_555 1_555
C54_2 O12_2 1_555 1_555
C76_2 C71_2 1_555 1_555
H46_2 C76_2 1_555 1_555
O16_2 C51_2 1_555 1_555
O19_2 C54_2 1_555 1_555
C46_2 C51_2 1_555 1_555
C49_2 C54_2 1_555 1_555
C19_2 N8 1_555 1_555
H14_2 C19_2 1_555 1_555
C39_2 N8 1_555 1_555
H29_2 C39_2 1_555 1_555
C13_2 C12_2 1_555 1_555
H8_2 C13_2 1_555 1_555
Ni11 O1_2 1_555 1_555
O1_2 Ni10 1_555 1_555
O2_2 Ni11 1_555 1_555
O3_3 C8_3 1_555 1_555
O4_2 Ni11 1_555 1_555
O5_2 C9_2 1_555 1_555
N7 C1_3 1_555 1_555
C1_3 H1_3 1_555 1_555
C2_3 C1_3 1_555 1_555
H2_3 C2_3 1_555 1_555
C3_3 C2_3 1_555 1_555
C4_3 C3_3 1_555 1_555
H3_3 C4_3 1_555 1_555
C5_3 N7 1_555 1_555
H4_3 C5_3 1_555 1_555
C6_3 C3_3 1_555 1_555
H5_3 C6_3 1_555 1_555
C7_3 C6_3 1_555 1_555
H6_3 C7_3 1_555 1_555
C8_3 O2_2 1_555 1_555
C9_2 O4_2 1_555 1_555
C10_2 C9_2 1_555 1_555
C11_2 C10_2 1_555 1_555
H7_2 C11_2 1_555 1_555
C14_2 C10_2 1_555 1_555
H9_2 C14_2 1_555 1_555
Ni10 O8_3 1_555 1_555
Ni13_2 O1_2 1_555 1_555
Ni15_2 N2_2 1_555 1_555
Ni16 N4_3 1_555 1_555
O8_3 C50_3 1_555 1_555
O10_3 Ni13_2 1_555 1_555
O15_2 Ni11 1_555 1_555
O17_3 Ni10 1_555 1_555
N2_2 C15_3 1_555 1_555
N3_2 Ni11 1_555 1_555
N4_3 C17_3 1_555 1_555
N5_3 Ni10 1_555 1_555
N8_2 Ni13_2 1_555 1_555
C15_3 H10_3 1_555 1_555
C16_3 N3_2 1_555 1_555
C17_3 H12_3 1_555 1_555
C18_3 N5_3 1_555 1_555
H11_3 C16_3 1_555 1_555
H13_3 C18_3 1_555 1_555
C20_3 C15_3 1_555 1_555
C22_3 C17_3 1_555 1_555
H15_3 C20_3 1_555 1_555
H17_3 C22_3 1_555 1_555
C25_3 C20_3 1_555 1_555
C27_3 C22_3 1_555 1_555
C30_3 C25_3 1_555 1_555
C32_3 C27_3 1_555 1_555
H20_3 C30_3 1_555 1_555
H22_3 C32_3 1_555 1_555
C35_3 N2_2 1_555 1_555
C36_3 N3_2 1_555 1_555
C37_3 N4_3 1_555 1_555
C38_3 N5_3 1_555 1_555
H25_3 C35_3 1_555 1_555
H26_3 C36_3 1_555 1_555
H27_3 C37_3 1_555 1_555
H28_3 C38_3 1_555 1_555
C40_3 C25_3 1_555 1_555
C42_3 C27_3 1_555 1_555
H30_3 C40_3 1_555 1_555
H32_3 C42_3 1_555 1_555
C45_3 C40_3 1_555 1_555
C47_3 C42_3 1_555 1_555
H35_3 C45_3 1_555 1_555
H37_3 C47_3 1_555 1_555
C50_3 O15_2 1_555 1_555
C52_3 O10_3 1_555 1_555
O3_3 Ni13_2 1_555 1_555
O5_2 Ni13_2 1_555 1_555
C4_3 C5_3 1_555 1_555
C7_3 C8_3 1_555 1_555
O17_3 C52_3 1_555 1_555
C30_3 C35_3 1_555 1_555
C32_3 C37_3 1_555 1_555
C45_3 C50_3 1_555 1_555
C47_3 C52_3 1_555 1_555
Ni17 O18_3 1_555 1_555
O13 C53_3 1_555 1_555
O18_3 C53_3 1_555 1_555
H18_3 C23_3 1_555 1_555
C28_3 C23_3 1_555 1_555
C33_3 C28_3 1_555 1_555
H23_3 C33_3 1_555 1_555
C43_3 C28_3 1_555 1_555
H33_3 C43_3 1_555 1_555
C48_3 C43_3 1_555 1_555
H38_3 C48_3 1_555 1_555
C53_3 C48_3 1_555 1_555
Ni11_2 O7_2 1_555 1_555
Ni13 O7_2 1_555 1_555
O14_2 Ni11_2 1_555 1_555
O20_2 Ni11_2 1_555 1_555
O21_2 Ni11_2 1_555 1_555
O28_2 Ni13 1_555 1_555
N6_2 Ni13 1_555 1_555
N10_2 Ni11_2 1_555 1_555
C19_3 N6_2 1_555 1_555
H14_3 C19_3 1_555 1_555
C39_3 N6_2 1_555 1_555
H29_3 C39_3 1_555 1_555
C55_2 O21_2 1_555 1_555
C60_2 C55_2 1_555 1_555
C65_2 C60_2 1_555 1_555
H40_2 C65_2 1_555 1_555
H50_2 C80_2 1_555 1_555
O28_2 C55_2 1_555 1_555
C60_2 C80_2 1_555 1_555
Ni7 O6_3 1_555 1_555
Ni15 O6_3 1_555 1_555
Ni16 O6_3 1_555 1_555
O9_3 Ni7 1_555 1_555
O12_3 Ni16 1_555 1_555
O16_3 Ni15 1_555 1_555
O19_3 Ni7 1_555 1_555
O26_3 Ni7 1_555 1_555
O27_3 Ni15 1_555 1_555
O33_3 Ni7 1_555 1_555
O34_3 Ni15 1_555 1_555
N9_2 Ni15 1_555 1_555
H16_3 C21_3 1_555 1_555
H19_3 C24_3 1_555 1_555
C26_3 C21_3 1_555 1_555
C29_3 C24_3 1_555 1_555
C31_3 C26_3 1_555 1_555
C34_3 C29_3 1_555 1_555
H21_3 C31_3 1_555 1_555
H24_3 C34_3 1_555 1_555
C41_3 C26_3 1_555 1_555
C44_3 C29_3 1_555 1_555
H31_3 C41_3 1_555 1_555
H34_3 C44_3 1_555 1_555
C46_3 C41_3 1_555 1_555
C49_3 C44_3 1_555 1_555
H36_3 C46_3 1_555 1_555
H39_3 C49_3 1_555 1_555
C51_3 O9_3 1_555 1_555
C54_3 O12_3 1_555 1_555
H45_2 C75_2 1_555 1_555
O16_3 C51_3 1_555 1_555
O19_3 C54_3 1_555 1_555
C46_3 C51_3 1_555 1_555
C49_3 C54_3 1_555 1_555
C70_2 C75_2 1_555 1_555
Ni7_2 O6_4 1_555 1_555
Ni15_2 O6_4 1_555 1_555
Ni16_2 O6_4 1_555 1_555
O9_4 Ni7_2 1_555 1_555
O12_4 Ni16_2 1_555 1_555
O16_4 Ni15_2 1_555 1_555
O19_4 Ni7_2 1_555 1_555
O26_4 Ni7_2 1_555 1_555
O27_4 Ni15_2 1_555 1_555
O33_4 Ni7_2 1_555 1_555
O34_4 Ni15_2 1_555 1_555
H16_4 C21_4 1_555 1_555
H19_4 C24_4 1_555 1_555
C26_4 C21_4 1_555 1_555
C29_4 C24_4 1_555 1_555
C31_4 C26_4 1_555 1_555
C34_4 C29_4 1_555 1_555
H21_4 C31_4 1_555 1_555
H24_4 C34_4 1_555 1_555
C41_4 C26_4 1_555 1_555
C44_4 C29_4 1_555 1_555
H31_4 C41_4 1_555 1_555
H34_4 C44_4 1_555 1_555
C46_4 C41_4 1_555 1_555
C49_4 C44_4 1_555 1_555
H36_4 C46_4 1_555 1_555
H39_4 C49_4 1_555 1_555
C51_4 O9_4 1_555 1_555
C54_4 O12_4 1_555 1_555
O16_4 C51_4 1_555 1_555
O19_4 C54_4 1_555 1_555
C46_4 C51_4 1_555 1_555
C49_4 C54_4 1_555 1_555
C19_4 N8_2 1_555 1_555
H14_4 C19_4 1_555 1_555
C39_4 N8_2 1_555 1_555
H29_4 C39_4 1_555 1_555
O7_2 Ni14 1_555 1_555
O3_4 C8_4 1_555 1_555
N7_2 C1_4 1_555 1_555
C1_4 H1_4 1_555 1_555
C2_4 C1_4 1_555 1_555
H2_4 C2_4 1_555 1_555
C3_4 C2_4 1_555 1_555
C4_4 C3_4 1_555 1_555
H3_4 C4_4 1_555 1_555
C5_4 N7_2 1_555 1_555
H4_4 C5_4 1_555 1_555
C6_4 C3_4 1_555 1_555
H5_4 C6_4 1_555 1_555
C7_4 C6_4 1_555 1_555
H6_4 C7_4 1_555 1_555
C8_4 O14_2 1_555 1_555
Ni14 O8_4 1_555 1_555
Ni16_2 N4_4 1_555 1_555
O8_4 C50_4 1_555 1_555
O10_4 Ni13 1_555 1_555
O17_4 Ni14 1_555 1_555
N9_2 C15_4 1_555 1_555
N4_4 C17_4 1_555 1_555
N5_4 Ni14 1_555 1_555
C15_4 H10_4 1_555 1_555
C16_4 N10_2 1_555 1_555
C17_4 H12_4 1_555 1_555
C18_4 N5_4 1_555 1_555
H11_4 C16_4 1_555 1_555
H13_4 C18_4 1_555 1_555
C20_4 C15_4 1_555 1_555
C22_4 C17_4 1_555 1_555
H15_4 C20_4 1_555 1_555
H17_4 C22_4 1_555 1_555
C25_4 C20_4 1_555 1_555
C27_4 C22_4 1_555 1_555
C30_4 C25_4 1_555 1_555
C32_4 C27_4 1_555 1_555
H20_4 C30_4 1_555 1_555
H22_4 C32_4 1_555 1_555
C35_4 N9_2 1_555 1_555
C36_4 N10_2 1_555 1_555
C37_4 N4_4 1_555 1_555
C38_4 N5_4 1_555 1_555
H25_4 C35_4 1_555 1_555
H26_4 C36_4 1_555 1_555
H27_4 C37_4 1_555 1_555
H28_4 C38_4 1_555 1_555
C40_4 C25_4 1_555 1_555
C42_4 C27_4 1_555 1_555
H30_4 C40_4 1_555 1_555
H32_4 C42_4 1_555 1_555
C45_4 C40_4 1_555 1_555
C47_4 C42_4 1_555 1_555
H35_4 C45_4 1_555 1_555
H37_4 C47_4 1_555 1_555
C50_4 O20_2 1_555 1_555
C52_4 O10_4 1_555 1_555
O3_4 Ni13 1_555 1_555
C4_4 C5_4 1_555 1_555
C7_4 C8_4 1_555 1_555
O17_4 C52_4 1_555 1_555
C30_4 C35_4 1_555 1_555
C32_4 C37_4 1_555 1_555
C45_4 C50_4 1_555 1_555
C47_4 C52_4 1_555 1_555
Ni12 O18_4 1_555 1_555
O13_2 C53_4 1_555 1_555
O18_4 C53_4 1_555 1_555
H18_4 C23_4 1_555 1_555
C28_4 C23_4 1_555 1_555
C33_4 C28_4 1_555 1_555
H23_4 C33_4 1_555 1_555
C43_4 C28_4 1_555 1_555
H33_4 C43_4 1_555 1_555
C48_4 C43_4 1_555 1_555
H38_4 C48_4 1_555 1_555
C53_4 C48_4 1_555 1_555
O26_5 Ni12 1_555 1_555
O33_5 Ni12 1_555 1_555
O26_6 Ni16 1_555 1_555
O33_6 Ni16 1_555 1_555
O26_7 Ni17 1_555 1_555
O33_7 Ni17 1_555 1_555
O26_8 Ni16_2 1_555 1_555
O33_8 Ni16_2 1_555 1_555
O33_8 C9_3 1_555 1_555
C9_3 O27_4 1_555 1_555
C10_3 C9_3 1_555 1_555
C11_3 C10_3 1_555 1_555
H7_3 C11_3 1_555 1_555
C12_3 C11_3 1_555 1_555
C13_3 C12_3 1_555 1_555
H8_3 C13_3 1_555 1_555
C14_3 C10_3 1_555 1_555
H9_3 C14_3 1_555 1_555
O26 C57_3 1_555 1_555
O26_5 C59_3 1_555 1_555
O34 C57_3 1_555 1_555
O33_2 C59_3 1_555 1_555
C55_3 O27_3 1_555 1_555
C56_3 O26_4 1_555 1_555
C57_3 C62_3 1_555 1_555
C58_3 O26_8 1_555 1_555
C59_3 C64_3 1_555 1_555
C60_3 C55_3 1_555 1_555
C61_3 C56_3 1_555 1_555
C62_3 C67_3 1_555 1_555
C63_3 C58_3 1_555 1_555
C64_3 C69_3 1_555 1_555
C65_3 C60_3 1_555 1_555
C66_3 C61_3 1_555 1_555
C67_3 H42_3 1_555 1_555
C68_3 C63_3 1_555 1_555
C69_3 H44_3 1_555 1_555
H40_3 C65_3 1_555 1_555
H41_3 C66_3 1_555 1_555
H43_3 C68_3 1_555 1_555
C70_3 C12_3 1_555 1_555
C71_3 C66_3 1_555 1_555
C72_3 C67_3 1_555 1_555
C73_3 C68_3 1_555 1_555
C74_3 C69_3 1_555 1_555
C75_3 C14_3 1_555 1_555
C76_3 C71_3 1_555 1_555
C77_3 C72_3 1_555 1_555
C78_3 C73_3 1_555 1_555
C79_3 C74_3 1_555 1_555
H45_3 C75_3 1_555 1_555
H46_3 C76_3 1_555 1_555
H47_3 C77_3 1_555 1_555
H48_3 C78_3 1_555 1_555
H49_3 C79_3 1_555 1_555
C80_3 C13_3 1_555 1_555
C81_3 C61_3 1_555 1_555
C82_3 C62_3 1_555 1_555
C83_3 C63_3 1_555 1_555
C84_3 C64_3 1_555 1_555
H50_3 C80_3 1_555 1_555
H51_3 C81_3 1_555 1_555
H52_3 C82_3 1_555 1_555
H53_3 C83_3 1_555 1_555
H54_3 C84_3 1_555 1_555
O33_6 C55_3 1_555 1_555
O34_4 C56_3 1_555 1_555
O33_4 C58_3 1_555 1_555
C60_3 C80_3 1_555 1_555
C65_3 C70_3 1_555 1_555
C70_3 C75_3 1_555 1_555
C71_3 C72_3 1_555 1_555
C73_3 C74_3 1_555 1_555
C76_3 C82_3 1_555 1_555
C77_3 C81_3 1_555 1_555
C78_3 C84_3 1_555 1_555
C79_3 C83_3 1_555 1_555
O26_2 C57_4 1_555 1_555
O26_7 C59_4 1_555 1_555
O34_2 C57_4 1_555 1_555
O33 C59_4 1_555 1_555
C56_4 O26_3 1_555 1_555
C57_4 C62_4 1_555 1_555
C58_4 O26_6 1_555 1_555
C59_4 C64_4 1_555 1_555
C61_4 C56_4 1_555 1_555
C62_4 C67_4 1_555 1_555
C63_4 C58_4 1_555 1_555
C64_4 C69_4 1_555 1_555
C66_4 C61_4 1_555 1_555
C67_4 H42_4 1_555 1_555
C68_4 C63_4 1_555 1_555
C69_4 H44_4 1_555 1_555
H41_4 C66_4 1_555 1_555
H43_4 C68_4 1_555 1_555
C71_4 C66_4 1_555 1_555
C72_4 C67_4 1_555 1_555
C73_4 C68_4 1_555 1_555
C74_4 C69_4 1_555 1_555
C76_4 C71_4 1_555 1_555
C77_4 C72_4 1_555 1_555
C78_4 C73_4 1_555 1_555
C79_4 C74_4 1_555 1_555
H46_4 C76_4 1_555 1_555
H47_4 C77_4 1_555 1_555
H48_4 C78_4 1_555 1_555
H49_4 C79_4 1_555 1_555
C81_4 C61_4 1_555 1_555
C82_4 C62_4 1_555 1_555
C83_4 C63_4 1_555 1_555
C84_4 C64_4 1_555 1_555
H51_4 C81_4 1_555 1_555
H52_4 C82_4 1_555 1_555
H53_4 C83_4 1_555 1_555
H54_4 C84_4 1_555 1_555
O34_3 C56_4 1_555 1_555
O33_3 C58_4 1_555 1_555
C71_4 C72_4 1_555 1_555
C73_4 C74_4 1_555 1_555
C76_4 C82_4 1_555 1_555
C77_4 C81_4 1_555 1_555
C78_4 C84_4 1_555 1_555
C79_4 C83_4 1_555 1_555
O33_7 C9_4 1_555 1_555
C9_4 O27 1_555 1_555
C10_4 C9_4 1_555 1_555
C11_4 C10_4 1_555 1_555
H7_4 C11_4 1_555 1_555
C12_4 C11_4 1_555 1_555
C13_4 C12_4 1_555 1_555
H8_4 C13_4 1_555 1_555
C14_4 C10_4 1_555 1_555
H9_4 C14_4 1_555 1_555
C55_4 O27_2 1_555 1_555
C60_4 C55_4 1_555 1_555
C65_4 C60_4 1_555 1_555
H40_4 C65_4 1_555 1_555
C70_4 C12_4 1_555 1_555
C75_4 C14_4 1_555 1_555
H45_4 C75_4 1_555 1_555
C80_4 C13_4 1_555 1_555
H50_4 C80_4 1_555 1_555
O33_5 C55_4 1_555 1_555
C60_4 C80_4 1_555 1_555
C65_4 C70_4 1_555 1_555
C70_4 C75_4 1_555 1_555

#END
