
###############################################################################
#
# This file contains modified crystal structure data generated from the
# MOF subset of the Cambridge Structural Database (CSD) v543 
# hosted by the Cambridge Crystallographic Data Centre (CCDC).
#
# This work is licensed under the Creative Commons
# Attribution-NonCommercial-ShareAlike 4.0 International License.
# To view a copy of this license, visit
# http://creativecommons.org/licenses/by-nc-sa/4.0/
# or send a letter to
# Creative Commons, PO Box 1866, Mountain View, CA 94042, USA.
#
# CIF created using the CSD Python API on 29 September 2022
# The structure has been converted into the P1 space group
# The structure has a 3D framework
# The original CSD entry KARLAS is in the cubic crystal system
# The framework has been calculated to contain at least 10.0% void space
# The void calculation uses a probe of radius 1.32A, grid spacing 0.4
#
###############################################################################

data_KARLAS
_chemical_formula_moiety         '(C240 H144 N24 Ni24 O104)n'
_symmetry_cell_setting           triclinic
_symmetry_space_group_name_H-M   'P 1'
_symmetry_Int_Tables_number      1
_space_group_name_Hall           'P 1'
loop_
_symmetry_equiv_pos_site_id
_symmetry_equiv_pos_as_xyz
1 x,y,z
_cell_length_a                   21.625(3)
_cell_length_b                   21.625(3)
_cell_length_c                   21.625(3)
_cell_angle_alpha                90
_cell_angle_beta                 90
_cell_angle_gamma                90
_cell_volume                     10112.7
loop_
_atom_site_label
_atom_site_type_symbol
_atom_site_fract_x
_atom_site_fract_y
_atom_site_fract_z
C106 C 0.0147(3) 0.0615(2) 0.2558(3)
C108 C 0.0615(2) 0.0147(3) 0.2558(3)
C114 C 0.2558(3) 0.0147(3) 0.0615(2)
C116 C 0.2558(3) 0.0615(2) 0.0147(3)
C118 C 0.0615(2) 0.2558(3) 0.0147(3)
C120 C 0.0147(3) 0.2558(3) 0.0615(2)
H58 H 0.0264 0.1038 0.2559
H60 H 0.1038 0.0264 0.2559
H66 H 0.2559 0.0264 0.1038
H68 H 0.2559 0.1038 0.0264
H70 H 0.1038 0.2559 0.0264
H72 H 0.0264 0.2559 0.1038
Ni5 Ni 0.23259(2) 0.11933(3) 0.76741(2)
Ni10 Ni 0.23259(2) 0.23259(2) 0.88067(3)
Ni11 Ni 0.11933(3) 0.23259(2) 0.76741(2)
Ni15 Ni 0.61933(3) 0.26741(2) 0.73259(2)
Ni18 Ni 0.26741(2) 0.61933(3) 0.73259(2)
Ni21 Ni 0.26741(2) 0.26741(2) 0.38067(3)
O6 O 0.1982(2) 0.1982(2) 0.8018(2)
O14 O 0.22641(17) 0.15276(14) 0.67849(13)
O15 O 0.15276(14) 0.22641(17) 0.67849(13)
O24 O 0.32151(13) 0.22641(17) 0.84724(14)
O25 O 0.32151(13) 0.15276(14) 0.77359(17)
O26 O 0.15276(14) 0.32151(13) 0.77359(17)
O27 O 0.22641(17) 0.32151(13) 0.84724(14)
O35 O 0.07754(14) 0.14870(15) 0.7571(2)
O36 O 0.14870(15) 0.07754(14) 0.7571(2)
O47 O 0.2429(2) 0.07754(14) 0.85130(15)
O48 O 0.2429(2) 0.14870(15) 0.92246(14)
O49 O 0.07754(14) 0.2429(2) 0.85130(15)
O50 O 0.14870(15) 0.2429(2) 0.92246(14)
N5 N 0.22969(15) 0.22969(15) 0.46227(19)
N10 N 0.53773(19) 0.22969(15) 0.77031(15)
N11 N 0.22969(15) 0.53773(19) 0.77031(15)
N16 N 0.27031(15) 0.03773(19) 0.72969(15)
N17 N 0.27031(15) 0.27031(15) 0.96227(19)
N22 N 0.03773(19) 0.27031(15) 0.72969(15)
C15 C 0.2592(2) 0.18454(19) 0.4920(2)
C16 C 0.18454(19) 0.2592(2) 0.4920(2)
C25 C 0.5080(2) 0.2592(2) 0.81546(19)
C26 C 0.5080(2) 0.18454(19) 0.7408(2)
C27 C 0.18454(19) 0.5080(2) 0.7408(2)
C28 C 0.2592(2) 0.5080(2) 0.81546(19)
H11 H 0.2904 0.1619 0.4708
H12 H 0.1619 0.2904 0.4708
H21 H 0.5292 0.2904 0.8381
H22 H 0.5292 0.1619 0.7096
H23 H 0.1619 0.5292 0.7096
H24 H 0.2904 0.5292 0.8381
C38 C 0.2458(2) 0.16961(19) 0.5526(2)
C39 C 0.16961(19) 0.2458(2) 0.5526(2)
C48 C 0.4474(2) 0.2458(2) 0.83039(19)
C49 C 0.4474(2) 0.16961(19) 0.7542(2)
C50 C 0.16961(19) 0.4474(2) 0.7542(2)
C51 C 0.2458(2) 0.4474(2) 0.83039(19)
H34 H 0.2682 0.1375 0.5725
H35 H 0.1375 0.2682 0.5725
H44 H 0.4275 0.2682 0.8625
H45 H 0.4275 0.1375 0.7318
H46 H 0.1375 0.4275 0.7318
H47 H 0.2682 0.4275 0.8625
C57 C 0.20043(17) 0.20043(17) 0.5845(3)
C62 C 0.4155(3) 0.20043(17) 0.79957(17)
C63 C 0.20043(17) 0.4155(3) 0.79957(17)
C68 C 0.19121(19) 0.19121(19) 0.6524(3)
C73 C 0.3476(3) 0.19121(19) 0.80879(19)
C74 C 0.19121(19) 0.3476(3) 0.80879(19)
C78 C 0.0949(2) 0.0949(2) 0.7539(3)
C84 C 0.2461(3) 0.0949(2) 0.9051(2)
C85 C 0.0949(2) 0.2461(3) 0.9051(2)
C89 C 0.0462(2) 0.0462(2) 0.7444(3)
C95 C 0.2556(3) 0.0462(2) 0.9538(2)
C96 C 0.0462(2) 0.2556(3) 0.9538(2)
Ni2 Ni 0.11933(3) 0.76741(2) 0.23259(2)
Ni6 Ni 0.23259(2) 0.88067(3) 0.23259(2)
Ni8 Ni 0.23259(2) 0.76741(2) 0.11933(3)
Ni14 Ni 0.61933(3) 0.73259(2) 0.26741(2)
Ni17 Ni 0.26741(2) 0.38067(3) 0.26741(2)
Ni23 Ni 0.26741(2) 0.73259(2) 0.61933(3)
O4 O 0.1982(2) 0.8018(2) 0.1982(2)
O8 O 0.15276(14) 0.67849(13) 0.22641(17)
O9 O 0.22641(17) 0.67849(13) 0.15276(14)
O16 O 0.22641(17) 0.84724(14) 0.32151(13)
O17 O 0.15276(14) 0.77359(17) 0.32151(13)
O20 O 0.32151(13) 0.77359(17) 0.15276(14)
O21 O 0.32151(13) 0.84724(14) 0.22641(17)
O31 O 0.14870(15) 0.7571(2) 0.07754(14)
O32 O 0.07754(14) 0.7571(2) 0.14870(15)
O39 O 0.07754(14) 0.85130(15) 0.2429(2)
O40 O 0.14870(15) 0.92246(14) 0.2429(2)
O45 O 0.2429(2) 0.85130(15) 0.07754(14)
O46 O 0.2429(2) 0.92246(14) 0.14870(15)
N2 N 0.22969(15) 0.46227(19) 0.22969(15)
N6 N 0.22969(15) 0.77031(15) 0.53773(19)
N8 N 0.53773(19) 0.77031(15) 0.22969(15)
N13 N 0.27031(15) 0.96227(19) 0.27031(15)
N18 N 0.27031(15) 0.72969(15) 0.03773(19)
N24 N 0.03773(19) 0.72969(15) 0.27031(15)
C9 C 0.18454(19) 0.4920(2) 0.2592(2)
C10 C 0.2592(2) 0.4920(2) 0.18454(19)
C17 C 0.2592(2) 0.81546(19) 0.5080(2)
C18 C 0.18454(19) 0.7408(2) 0.5080(2)
C21 C 0.5080(2) 0.7408(2) 0.18454(19)
C22 C 0.5080(2) 0.81546(19) 0.2592(2)
H5 H 0.1619 0.4708 0.2904
H6 H 0.2904 0.4708 0.1619
H13 H 0.2904 0.8381 0.5292
H14 H 0.1619 0.7096 0.5292
H17 H 0.5292 0.7096 0.1619
H18 H 0.5292 0.8381 0.2904
C32 C 0.16961(19) 0.5526(2) 0.2458(2)
C33 C 0.2458(2) 0.5526(2) 0.16961(19)
C40 C 0.2458(2) 0.83039(19) 0.4474(2)
C41 C 0.16961(19) 0.7542(2) 0.4474(2)
C44 C 0.4474(2) 0.7542(2) 0.16961(19)
C45 C 0.4474(2) 0.83039(19) 0.2458(2)
H28 H 0.1375 0.5725 0.2682
H29 H 0.2682 0.5725 0.1375
H36 H 0.2682 0.8625 0.4275
H37 H 0.1375 0.7318 0.4275
H40 H 0.4275 0.7318 0.1375
H41 H 0.4275 0.8625 0.2682
C54 C 0.20043(17) 0.5845(3) 0.20043(17)
C58 C 0.20043(17) 0.79957(17) 0.4155(3)
C60 C 0.4155(3) 0.79957(17) 0.20043(17)
C65 C 0.19121(19) 0.6524(3) 0.19121(19)
C69 C 0.19121(19) 0.80879(19) 0.3476(3)
C71 C 0.3476(3) 0.80879(19) 0.19121(19)
C76 C 0.0949(2) 0.7539(3) 0.0949(2)
C80 C 0.0949(2) 0.9051(2) 0.2461(3)
C83 C 0.2461(3) 0.9051(2) 0.0949(2)
C87 C 0.0462(2) 0.7444(3) 0.0462(2)
C91 C 0.0462(2) 0.9538(2) 0.2556(3)
C94 C 0.2556(3) 0.9538(2) 0.0462(2)
Ni4 Ni 0.76741(2) 0.11933(3) 0.23259(2)
Ni9 Ni 0.76741(2) 0.23259(2) 0.11933(3)
Ni12 Ni 0.88067(3) 0.23259(2) 0.23259(2)
Ni13 Ni 0.38067(3) 0.26741(2) 0.26741(2)
Ni19 Ni 0.73259(2) 0.61933(3) 0.26741(2)
Ni22 Ni 0.73259(2) 0.26741(2) 0.61933(3)
O5 O 0.8018(2) 0.1982(2) 0.1982(2)
O12 O 0.77359(17) 0.15276(14) 0.32151(13)
O13 O 0.84724(14) 0.22641(17) 0.32151(13)
O22 O 0.67849(13) 0.22641(17) 0.15276(14)
O23 O 0.67849(13) 0.15276(14) 0.22641(17)
O28 O 0.84724(14) 0.32151(13) 0.22641(17)
O29 O 0.77359(17) 0.32151(13) 0.15276(14)
O37 O 0.85130(15) 0.07754(14) 0.2429(2)
O38 O 0.92246(14) 0.14870(15) 0.2429(2)
O43 O 0.7571(2) 0.07754(14) 0.14870(15)
O44 O 0.7571(2) 0.14870(15) 0.07754(14)
O51 O 0.85130(15) 0.2429(2) 0.07754(14)
O52 O 0.92246(14) 0.2429(2) 0.14870(15)
N4 N 0.77031(15) 0.22969(15) 0.53773(19)
N9 N 0.46227(19) 0.22969(15) 0.22969(15)
N12 N 0.77031(15) 0.53773(19) 0.22969(15)
N14 N 0.72969(15) 0.03773(19) 0.27031(15)
N20 N 0.72969(15) 0.27031(15) 0.03773(19)
N21 N 0.96227(19) 0.27031(15) 0.27031(15)
C13 C 0.7408(2) 0.18454(19) 0.5080(2)
C14 C 0.81546(19) 0.2592(2) 0.5080(2)
C23 C 0.4920(2) 0.2592(2) 0.18454(19)
C24 C 0.4920(2) 0.18454(19) 0.2592(2)
C29 C 0.81546(19) 0.5080(2) 0.2592(2)
C30 C 0.7408(2) 0.5080(2) 0.18454(19)
H9 H 0.7096 0.1619 0.5292
H10 H 0.8381 0.2904 0.5292
H19 H 0.4708 0.2904 0.1619
H20 H 0.4708 0.1619 0.2904
H25 H 0.8381 0.5292 0.2904
H26 H 0.7096 0.5292 0.1619
C36 C 0.7542(2) 0.16961(19) 0.4474(2)
C37 C 0.83039(19) 0.2458(2) 0.4474(2)
C46 C 0.5526(2) 0.2458(2) 0.16961(19)
C47 C 0.5526(2) 0.16961(19) 0.2458(2)
C52 C 0.83039(19) 0.4474(2) 0.2458(2)
C53 C 0.7542(2) 0.4474(2) 0.16961(19)
H32 H 0.7318 0.1375 0.4275
H33 H 0.8625 0.2682 0.4275
H42 H 0.5725 0.2682 0.1375
H43 H 0.5725 0.1375 0.2682
H48 H 0.8625 0.4275 0.2682
H49 H 0.7318 0.4275 0.1375
C56 C 0.79957(17) 0.20043(17) 0.4155(3)
C61 C 0.5845(3) 0.20043(17) 0.20043(17)
C64 C 0.79957(17) 0.4155(3) 0.20043(17)
C67 C 0.80879(19) 0.19121(19) 0.3476(3)
C72 C 0.6524(3) 0.19121(19) 0.19121(19)
C75 C 0.80879(19) 0.3476(3) 0.19121(19)
C79 C 0.9051(2) 0.0949(2) 0.2461(3)
C82 C 0.7539(3) 0.0949(2) 0.0949(2)
C86 C 0.9051(2) 0.2461(3) 0.0949(2)
C90 C 0.9538(2) 0.0462(2) 0.2556(3)
C93 C 0.7444(3) 0.0462(2) 0.0462(2)
C97 C 0.9538(2) 0.2556(3) 0.0462(2)
Ni1 Ni 0.88067(3) 0.76741(2) 0.76741(2)
O1 O 0.8018(2) 0.8018(2) 0.8018(2)
O2 O 0.84724(14) 0.67849(13) 0.77359(17)
O3 O 0.92246(14) 0.7571(2) 0.85130(15)
N1 N 0.77031(15) 0.46227(19) 0.77031(15)
C1 C 0.81546(19) 0.4920(2) 0.7408(2)
H1 H 0.8381 0.4708 0.7096
C2 C 0.83039(19) 0.5526(2) 0.7542(2)
H2 H 0.8625 0.5725 0.7318
C3 C 0.79957(17) 0.5845(3) 0.79957(17)
C4 C 0.80879(19) 0.6524(3) 0.80879(19)
C5 C 0.9051(2) 0.7539(3) 0.9051(2)
C6 C 0.9538(2) 0.7444(3) 0.9538(2)
Ni3 Ni 0.76741(2) 0.88067(3) 0.76741(2)
Ni7 Ni 0.76741(2) 0.76741(2) 0.88067(3)
Ni16 Ni 0.38067(3) 0.73259(2) 0.73259(2)
Ni20 Ni 0.73259(2) 0.38067(3) 0.73259(2)
Ni24 Ni 0.73259(2) 0.73259(2) 0.38067(3)
O7 O 0.77359(17) 0.67849(13) 0.84724(14)
O10 O 0.77359(17) 0.84724(14) 0.67849(13)
O11 O 0.84724(14) 0.77359(17) 0.67849(13)
O18 O 0.67849(13) 0.77359(17) 0.84724(14)
O19 O 0.67849(13) 0.84724(14) 0.77359(17)
O30 O 0.85130(15) 0.7571(2) 0.92246(14)
O33 O 0.85130(15) 0.92246(14) 0.7571(2)
O34 O 0.92246(14) 0.85130(15) 0.7571(2)
O41 O 0.7571(2) 0.85130(15) 0.92246(14)
O42 O 0.7571(2) 0.92246(14) 0.85130(15)
N3 N 0.77031(15) 0.77031(15) 0.46227(19)
N7 N 0.46227(19) 0.77031(15) 0.77031(15)
N15 N 0.72969(15) 0.96227(19) 0.72969(15)
N19 N 0.72969(15) 0.72969(15) 0.96227(19)
N23 N 0.96227(19) 0.72969(15) 0.72969(15)
C8 C 0.7408(2) 0.4920(2) 0.81546(19)
C11 C 0.7408(2) 0.81546(19) 0.4920(2)
C12 C 0.81546(19) 0.7408(2) 0.4920(2)
C19 C 0.4920(2) 0.7408(2) 0.81546(19)
C20 C 0.4920(2) 0.81546(19) 0.7408(2)
H4 H 0.7096 0.4708 0.8381
H7 H 0.7096 0.8381 0.4708
H8 H 0.8381 0.7096 0.4708
H15 H 0.4708 0.7096 0.8381
H16 H 0.4708 0.8381 0.7096
C31 C 0.7542(2) 0.5526(2) 0.83039(19)
C34 C 0.7542(2) 0.83039(19) 0.5526(2)
C35 C 0.83039(19) 0.7542(2) 0.5526(2)
C42 C 0.5526(2) 0.7542(2) 0.83039(19)
C43 C 0.5526(2) 0.83039(19) 0.7542(2)
H27 H 0.7318 0.5725 0.8625
H30 H 0.7318 0.8625 0.5725
H31 H 0.8625 0.7318 0.5725
H38 H 0.5725 0.7318 0.8625
H39 H 0.5725 0.8625 0.7318
C55 C 0.79957(17) 0.79957(17) 0.5845(3)
C59 C 0.5845(3) 0.79957(17) 0.79957(17)
C66 C 0.80879(19) 0.80879(19) 0.6524(3)
C70 C 0.6524(3) 0.80879(19) 0.80879(19)
C77 C 0.9051(2) 0.9051(2) 0.7539(3)
C81 C 0.7539(3) 0.9051(2) 0.9051(2)
C88 C 0.9538(2) 0.9538(2) 0.7444(3)
C92 C 0.7444(3) 0.9538(2) 0.9538(2)
C21_2 C 0.0080(2) 0.2408(2) 0.68454(19)
C22_2 C 0.0080(2) 0.31546(19) 0.7592(2)
C25_2 C 0.0080(2) 0.7592(2) 0.31546(19)
C26_2 C 0.0080(2) 0.68454(19) 0.2408(2)
H17_2 H 0.0292 0.2096 0.6619
H18_2 H 0.0292 0.3381 0.7904
H21_2 H 0.0292 0.7904 0.3381
H22_2 H 0.0292 0.6619 0.2096
C27_2 C 0.68454(19) 0.0080(2) 0.2408(2)
C28_2 C 0.7592(2) 0.0080(2) 0.31546(19)
C29_2 C 0.31546(19) 0.0080(2) 0.7592(2)
C30_2 C 0.2408(2) 0.0080(2) 0.68454(19)
H23_2 H 0.6619 0.0292 0.2096
H24_2 H 0.7904 0.0292 0.3381
H25_2 H 0.3381 0.0292 0.7904
H26_2 H 0.2096 0.0292 0.6619
C13_2 C 0.2408(2) 0.68454(19) 0.0080(2)
C14_2 C 0.31546(19) 0.7592(2) 0.0080(2)
C17_2 C 0.7592(2) 0.31546(19) 0.0080(2)
C18_2 C 0.68454(19) 0.2408(2) 0.0080(2)
H9_2 H 0.2096 0.6619 0.0292
H10_2 H 0.3381 0.7904 0.0292
H13_2 H 0.7904 0.3381 0.0292
H14_2 H 0.6619 0.2096 0.0292
O1_2 O 0.3018(2) 0.3018(2) 0.3018(2)
O2_2 O 0.34724(14) 0.17849(13) 0.27359(17)
O3_2 O 0.42246(14) 0.2571(2) 0.35130(15)
C2_2 C 0.33039(19) 0.0526(2) 0.2542(2)
H2_2 H 0.3625 0.0725 0.2318
C3_2 C 0.29957(17) 0.0845(3) 0.29957(17)
C4_2 C 0.30879(19) 0.1524(3) 0.30879(19)
C5_2 C 0.4051(2) 0.2539(3) 0.4051(2)
C6_2 C 0.4538(2) 0.2444(3) 0.4538(2)
C7 C 0.5147(3) 0.2442(3) 0.4385(2)
H3 H 0.5264 0.2441 0.3962
O4_2 O 0.6982(2) 0.3018(2) 0.6982(2)
O5_2 O 0.3018(2) 0.6982(2) 0.6982(2)
O6_2 O 0.6982(2) 0.6982(2) 0.3018(2)
O7_2 O 0.27359(17) 0.17849(13) 0.34724(14)
O8_2 O 0.65276(14) 0.17849(13) 0.72641(17)
O9_2 O 0.72641(17) 0.17849(13) 0.65276(14)
O10_2 O 0.27359(17) 0.34724(14) 0.17849(13)
O11_2 O 0.34724(14) 0.27359(17) 0.17849(13)
O12_2 O 0.27359(17) 0.65276(14) 0.82151(13)
O13_2 O 0.34724(14) 0.72641(17) 0.82151(13)
O14_2 O 0.72641(17) 0.65276(14) 0.17849(13)
O15_2 O 0.65276(14) 0.72641(17) 0.17849(13)
O16_2 O 0.72641(17) 0.34724(14) 0.82151(13)
O17_2 O 0.65276(14) 0.27359(17) 0.82151(13)
O18_2 O 0.17849(13) 0.27359(17) 0.34724(14)
O19_2 O 0.17849(13) 0.34724(14) 0.27359(17)
O20_2 O 0.82151(13) 0.27359(17) 0.65276(14)
O21_2 O 0.82151(13) 0.34724(14) 0.72641(17)
O22_2 O 0.17849(13) 0.72641(17) 0.65276(14)
O23_2 O 0.17849(13) 0.65276(14) 0.72641(17)
O24_2 O 0.82151(13) 0.72641(17) 0.34724(14)
O25_2 O 0.82151(13) 0.65276(14) 0.27359(17)
O26_2 O 0.65276(14) 0.82151(13) 0.27359(17)
O27_2 O 0.72641(17) 0.82151(13) 0.34724(14)
O28_2 O 0.34724(14) 0.82151(13) 0.72641(17)
O29_2 O 0.27359(17) 0.82151(13) 0.65276(14)
O30_2 O 0.35130(15) 0.2571(2) 0.42246(14)
O31_2 O 0.64870(15) 0.2571(2) 0.57754(14)
O32_2 O 0.57754(14) 0.2571(2) 0.64870(15)
O33_2 O 0.35130(15) 0.42246(14) 0.2571(2)
O34_2 O 0.42246(14) 0.35130(15) 0.2571(2)
O35_2 O 0.57754(14) 0.64870(15) 0.2571(2)
O36_2 O 0.64870(15) 0.57754(14) 0.2571(2)
O37_2 O 0.35130(15) 0.57754(14) 0.7429(2)
O38_2 O 0.42246(14) 0.64870(15) 0.7429(2)
O39_2 O 0.57754(14) 0.35130(15) 0.7429(2)
O40_2 O 0.64870(15) 0.42246(14) 0.7429(2)
O41_2 O 0.2571(2) 0.35130(15) 0.42246(14)
O42_2 O 0.2571(2) 0.42246(14) 0.35130(15)
O43_2 O 0.2571(2) 0.57754(14) 0.64870(15)
O44_2 O 0.2571(2) 0.64870(15) 0.57754(14)
O45_2 O 0.7429(2) 0.35130(15) 0.57754(14)
O46_2 O 0.7429(2) 0.42246(14) 0.64870(15)
O47_2 O 0.7429(2) 0.57754(14) 0.35130(15)
O48_2 O 0.7429(2) 0.64870(15) 0.42246(14)
O49_2 O 0.57754(14) 0.7429(2) 0.35130(15)
O50_2 O 0.64870(15) 0.7429(2) 0.42246(14)
O51_2 O 0.35130(15) 0.7429(2) 0.57754(14)
O52_2 O 0.42246(14) 0.7429(2) 0.64870(15)
C31_2 C 0.2542(2) 0.0526(2) 0.33039(19)
C32_2 C 0.66961(19) 0.0526(2) 0.7458(2)
C33_2 C 0.7458(2) 0.0526(2) 0.66961(19)
C34_2 C 0.2542(2) 0.33039(19) 0.0526(2)
C35_2 C 0.33039(19) 0.2542(2) 0.0526(2)
C36_2 C 0.2542(2) 0.66961(19) 0.9474(2)
C37_2 C 0.33039(19) 0.7458(2) 0.9474(2)
C38_2 C 0.7458(2) 0.66961(19) 0.0526(2)
C39_2 C 0.66961(19) 0.7458(2) 0.0526(2)
C40_2 C 0.7458(2) 0.33039(19) 0.9474(2)
C41_2 C 0.66961(19) 0.2542(2) 0.9474(2)
C42_2 C 0.0526(2) 0.2542(2) 0.33039(19)
C43_2 C 0.0526(2) 0.33039(19) 0.2542(2)
C44_2 C 0.9474(2) 0.2542(2) 0.66961(19)
C45_2 C 0.9474(2) 0.33039(19) 0.7458(2)
C46_2 C 0.0526(2) 0.7458(2) 0.66961(19)
C47_2 C 0.0526(2) 0.66961(19) 0.7458(2)
C48_2 C 0.9474(2) 0.7458(2) 0.33039(19)
C49_2 C 0.9474(2) 0.66961(19) 0.2542(2)
C50_2 C 0.66961(19) 0.9474(2) 0.2542(2)
C51_2 C 0.7458(2) 0.9474(2) 0.33039(19)
C52_2 C 0.33039(19) 0.9474(2) 0.7458(2)
C53_2 C 0.2542(2) 0.9474(2) 0.66961(19)
H27_2 H 0.2318 0.0725 0.3625
H28_2 H 0.6375 0.0725 0.7682
H29_2 H 0.7682 0.0725 0.6375
H30_2 H 0.2318 0.3625 0.0725
H31_2 H 0.3625 0.2318 0.0725
H32_2 H 0.2318 0.6375 0.9275
H33_2 H 0.3625 0.7682 0.9275
H34_2 H 0.7682 0.6375 0.0725
H35_2 H 0.6375 0.7682 0.0725
H36_2 H 0.7682 0.3625 0.9275
H37_2 H 0.6375 0.2318 0.9275
H38_2 H 0.0725 0.2318 0.3625
H39_2 H 0.0725 0.3625 0.2318
H40_2 H 0.9275 0.2318 0.6375
H41_2 H 0.9275 0.3625 0.7682
H42_2 H 0.0725 0.7682 0.6375
H43_2 H 0.0725 0.6375 0.7682
H44_2 H 0.9275 0.7682 0.3625
H45_2 H 0.9275 0.6375 0.2318
H46_2 H 0.6375 0.9275 0.2318
H47_2 H 0.7682 0.9275 0.3625
H48_2 H 0.3625 0.9275 0.7682
H49_2 H 0.2318 0.9275 0.6375
C54_2 C 0.70043(17) 0.0845(3) 0.70043(17)
C55_2 C 0.29957(17) 0.29957(17) 0.0845(3)
C56_2 C 0.29957(17) 0.70043(17) 0.9155(3)
C57_2 C 0.70043(17) 0.70043(17) 0.0845(3)
C58_2 C 0.70043(17) 0.29957(17) 0.9155(3)
C59_2 C 0.0845(3) 0.29957(17) 0.29957(17)
C60_2 C 0.9155(3) 0.29957(17) 0.70043(17)
C61_2 C 0.0845(3) 0.70043(17) 0.70043(17)
C62_2 C 0.9155(3) 0.70043(17) 0.29957(17)
C63_2 C 0.70043(17) 0.9155(3) 0.29957(17)
C64_2 C 0.29957(17) 0.9155(3) 0.70043(17)
C65_2 C 0.69121(19) 0.1524(3) 0.69121(19)
C66_2 C 0.30879(19) 0.30879(19) 0.1524(3)
C67_2 C 0.30879(19) 0.69121(19) 0.8476(3)
C68_2 C 0.69121(19) 0.69121(19) 0.1524(3)
C69_2 C 0.69121(19) 0.30879(19) 0.8476(3)
C70_2 C 0.1524(3) 0.30879(19) 0.30879(19)
C71_2 C 0.8476(3) 0.30879(19) 0.69121(19)
C72_2 C 0.1524(3) 0.69121(19) 0.69121(19)
C73_2 C 0.8476(3) 0.69121(19) 0.30879(19)
C74_2 C 0.69121(19) 0.8476(3) 0.30879(19)
C75_2 C 0.30879(19) 0.8476(3) 0.69121(19)
C76_2 C 0.5949(2) 0.2539(3) 0.5949(2)
C77_2 C 0.4051(2) 0.4051(2) 0.2539(3)
C78_2 C 0.5949(2) 0.5949(2) 0.2539(3)
C79_2 C 0.4051(2) 0.5949(2) 0.7461(3)
C80_2 C 0.5949(2) 0.4051(2) 0.7461(3)
C81_2 C 0.2539(3) 0.4051(2) 0.4051(2)
C82_2 C 0.2539(3) 0.5949(2) 0.5949(2)
C83_2 C 0.7461(3) 0.4051(2) 0.5949(2)
C84_2 C 0.7461(3) 0.5949(2) 0.4051(2)
C85_2 C 0.5949(2) 0.7461(3) 0.4051(2)
C86_2 C 0.4051(2) 0.7461(3) 0.5949(2)
C87_2 C 0.5462(2) 0.2444(3) 0.5462(2)
C88_2 C 0.4538(2) 0.4538(2) 0.2444(3)
C89_2 C 0.5462(2) 0.5462(2) 0.2444(3)
C90_2 C 0.4538(2) 0.5462(2) 0.7556(3)
C91_2 C 0.5462(2) 0.4538(2) 0.7556(3)
C92_2 C 0.2444(3) 0.4538(2) 0.4538(2)
C93_2 C 0.2444(3) 0.5462(2) 0.5462(2)
C94_2 C 0.7556(3) 0.4538(2) 0.5462(2)
C95_2 C 0.7556(3) 0.5462(2) 0.4538(2)
C96_2 C 0.5462(2) 0.7556(3) 0.4538(2)
C97_2 C 0.4538(2) 0.7556(3) 0.5462(2)
C98 C 0.4385(2) 0.2442(3) 0.5147(3)
C99 C 0.5615(2) 0.2442(3) 0.4853(3)
C100 C 0.4853(3) 0.2442(3) 0.5615(2)
C101 C 0.4385(2) 0.5147(3) 0.2442(3)
C102 C 0.5147(3) 0.4385(2) 0.2442(3)
C103 C 0.4853(3) 0.5615(2) 0.2442(3)
C104 C 0.5615(2) 0.4853(3) 0.2442(3)
C105 C 0.4385(2) 0.4853(3) 0.7558(3)
C106_2 C 0.5147(3) 0.5615(2) 0.7558(3)
C107 C 0.4853(3) 0.4385(2) 0.7558(3)
C108_2 C 0.5615(2) 0.5147(3) 0.7558(3)
C109 C 0.2442(3) 0.4385(2) 0.5147(3)
C110 C 0.2442(3) 0.5147(3) 0.4385(2)
C111 C 0.2442(3) 0.4853(3) 0.5615(2)
C112 C 0.2442(3) 0.5615(2) 0.4853(3)
C113 C 0.7558(3) 0.4385(2) 0.4853(3)
C114_2 C 0.7558(3) 0.5147(3) 0.5615(2)
C115 C 0.7558(3) 0.4853(3) 0.4385(2)
C116_2 C 0.7558(3) 0.5615(2) 0.5147(3)
C117 C 0.4853(3) 0.7558(3) 0.4385(2)
C118_2 C 0.5615(2) 0.7558(3) 0.5147(3)
C119 C 0.4385(2) 0.7558(3) 0.4853(3)
C120_2 C 0.5147(3) 0.7558(3) 0.5615(2)
H50 H 0.3962 0.2441 0.5264
H51 H 0.6038 0.2441 0.4736
H52 H 0.4736 0.2441 0.6038
H53 H 0.3962 0.5264 0.2441
H54 H 0.5264 0.3962 0.2441
H55 H 0.4736 0.6038 0.2441
H56 H 0.6038 0.4736 0.2441
H57 H 0.3962 0.4736 0.7559
H58_2 H 0.5264 0.6038 0.7559
H59 H 0.4736 0.3962 0.7559
H60_2 H 0.6038 0.5264 0.7559
H61 H 0.2441 0.3962 0.5264
H62 H 0.2441 0.5264 0.3962
H63 H 0.2441 0.4736 0.6038
H64 H 0.2441 0.6038 0.4736
H65 H 0.7559 0.3962 0.4736
H66_2 H 0.7559 0.5264 0.6038
H67 H 0.7559 0.4736 0.3962
H68_2 H 0.7559 0.6038 0.5264
H69 H 0.4736 0.7559 0.3962
H70_2 H 0.6038 0.7559 0.5264
H71 H 0.3962 0.7559 0.4736
H72_2 H 0.5264 0.7559 0.6038
C11_2 C 0.2408(2) 0.31546(19) 0.9920(2)
C12_2 C 0.31546(19) 0.2408(2) 0.9920(2)
C15_2 C 0.7592(2) 0.68454(19) 0.9920(2)
C16_2 C 0.68454(19) 0.7592(2) 0.9920(2)
H7_2 H 0.2096 0.3381 0.9708
H8_2 H 0.3381 0.2096 0.9708
H11_2 H 0.7904 0.6619 0.9708
H12_2 H 0.6619 0.7904 0.9708
C1_2 C 0.31546(19) 0.9920(2) 0.2408(2)
H1_2 H 0.3381 0.9708 0.2096
C8_2 C 0.2408(2) 0.9920(2) 0.31546(19)
C9_2 C 0.68454(19) 0.9920(2) 0.7592(2)
C10_2 C 0.7592(2) 0.9920(2) 0.68454(19)
H4_2 H 0.2096 0.9708 0.3381
H5_2 H 0.6619 0.9708 0.7904
H6_2 H 0.7904 0.9708 0.6619
C19_2 C 0.9920(2) 0.2408(2) 0.31546(19)
C20_2 C 0.9920(2) 0.31546(19) 0.2408(2)
C23_2 C 0.9920(2) 0.7592(2) 0.68454(19)
C24_2 C 0.9920(2) 0.68454(19) 0.7592(2)
H15_2 H 0.9708 0.2096 0.3381
H16_2 H 0.9708 0.3381 0.2096
H19_2 H 0.9708 0.7904 0.6619
H20_2 H 0.9708 0.6619 0.7904
C7_2 C 0.0147(3) 0.7442(3) 0.9385(2)
H3_2 H 0.0264 0.7441 0.8962
C99_2 C 0.0615(2) 0.7442(3) 0.9853(3)
C102_2 C 0.0147(3) 0.9385(2) 0.7442(3)
C104_2 C 0.0615(2) 0.9853(3) 0.7442(3)
C113_2 C 0.2558(3) 0.9385(2) 0.9853(3)
C115_2 C 0.2558(3) 0.9853(3) 0.9385(2)
H51_2 H 0.1038 0.7441 0.9736
H54_2 H 0.0264 0.8962 0.7441
H56_2 H 0.1038 0.9736 0.7441
H65_2 H 0.2559 0.8962 0.9736
H67_2 H 0.2559 0.9736 0.8962
C101_2 C 0.9385(2) 0.0147(3) 0.7442(3)
C103_2 C 0.9853(3) 0.0615(2) 0.7442(3)
C110_2 C 0.7442(3) 0.0147(3) 0.9385(2)
C112_2 C 0.7442(3) 0.0615(2) 0.9853(3)
C117_2 C 0.9853(3) 0.2558(3) 0.9385(2)
C119_2 C 0.9385(2) 0.2558(3) 0.9853(3)
H53_2 H 0.8962 0.0264 0.7441
H55_2 H 0.9736 0.1038 0.7441
H62_2 H 0.7441 0.0264 0.8962
H64_2 H 0.7441 0.1038 0.9736
H69_2 H 0.9736 0.2559 0.8962
H71_2 H 0.8962 0.2559 0.9736
C98_2 C 0.9385(2) 0.7442(3) 0.0147(3)
C100_2 C 0.9853(3) 0.7442(3) 0.0615(2)
C105_2 C 0.9385(2) 0.9853(3) 0.2558(3)
C107_2 C 0.9853(3) 0.9385(2) 0.2558(3)
C109_2 C 0.7442(3) 0.9385(2) 0.0147(3)
C111_2 C 0.7442(3) 0.9853(3) 0.0615(2)
H50_2 H 0.8962 0.7441 0.0264
H52_2 H 0.9736 0.7441 0.1038
H57_2 H 0.8962 0.9736 0.2559
H59_2 H 0.9736 0.8962 0.2559
H61_2 H 0.7441 0.8962 0.0264
H63_2 H 0.7441 0.9736 0.1038
loop_
_geom_bond_atom_site_label_1
_geom_bond_atom_site_label_2
_geom_bond_site_symmetry_1
_geom_bond_site_symmetry_2
H58 C106 1_555 1_555
H60 C108 1_555 1_555
H66 C114 1_555 1_555
H68 C116 1_555 1_555
H70 C118 1_555 1_555
H72 C120 1_555 1_555
C106 C108 1_555 1_555
C114 C116 1_555 1_555
C118 C120 1_555 1_555
Ni5 O6 1_555 1_555
Ni10 O6 1_555 1_555
Ni11 O6 1_555 1_555
Ni15 N10 1_555 1_555
Ni18 N11 1_555 1_555
Ni21 N5 1_555 1_555
O14 Ni5 1_555 1_555
O15 Ni11 1_555 1_555
O24 Ni10 1_555 1_555
O25 Ni5 1_555 1_555
O26 Ni11 1_555 1_555
O27 Ni10 1_555 1_555
O35 Ni11 1_555 1_555
O36 Ni5 1_555 1_555
O47 Ni5 1_555 1_555
O48 Ni10 1_555 1_555
O49 Ni11 1_555 1_555
O50 Ni10 1_555 1_555
N5 C15 1_555 1_555
N10 C25 1_555 1_555
N11 C27 1_555 1_555
N16 Ni5 1_555 1_555
N17 Ni10 1_555 1_555
N22 Ni11 1_555 1_555
C15 H11 1_555 1_555
C16 N5 1_555 1_555
C25 H21 1_555 1_555
C26 N10 1_555 1_555
C27 H23 1_555 1_555
C28 N11 1_555 1_555
H12 C16 1_555 1_555
H22 C26 1_555 1_555
H24 C28 1_555 1_555
C38 C15 1_555 1_555
C39 C16 1_555 1_555
C48 C25 1_555 1_555
C49 C26 1_555 1_555
C50 C27 1_555 1_555
C51 C28 1_555 1_555
H34 C38 1_555 1_555
H35 C39 1_555 1_555
H44 C48 1_555 1_555
H45 C49 1_555 1_555
H46 C50 1_555 1_555
H47 C51 1_555 1_555
C57 C38 1_555 1_555
C62 C48 1_555 1_555
C63 C50 1_555 1_555
C68 O14 1_555 1_555
C73 O24 1_555 1_555
C74 O26 1_555 1_555
C78 O35 1_555 1_555
C84 O47 1_555 1_555
C85 O49 1_555 1_555
C89 C78 1_555 1_555
C95 C84 1_555 1_555
C96 C85 1_555 1_555
O15 C68 1_555 1_555
O25 C73 1_555 1_555
O27 C74 1_555 1_555
O36 C78 1_555 1_555
O48 C84 1_555 1_555
O50 C85 1_555 1_555
C39 C57 1_555 1_555
C49 C62 1_555 1_555
C51 C63 1_555 1_555
C57 C68 1_555 1_555
C62 C73 1_555 1_555
C63 C74 1_555 1_555
Ni2 O4 1_555 1_555
Ni6 O4 1_555 1_555
Ni8 O4 1_555 1_555
Ni14 N8 1_555 1_555
Ni17 N2 1_555 1_555
Ni23 N6 1_555 1_555
O8 Ni2 1_555 1_555
O9 Ni8 1_555 1_555
O16 Ni6 1_555 1_555
O17 Ni2 1_555 1_555
O20 Ni8 1_555 1_555
O21 Ni6 1_555 1_555
O31 Ni8 1_555 1_555
O32 Ni2 1_555 1_555
O39 Ni2 1_555 1_555
O40 Ni6 1_555 1_555
O45 Ni8 1_555 1_555
O46 Ni6 1_555 1_555
N2 C9 1_555 1_555
N6 C17 1_555 1_555
N8 C21 1_555 1_555
N13 Ni6 1_555 1_555
N18 Ni8 1_555 1_555
N24 Ni2 1_555 1_555
C9 H5 1_555 1_555
C10 N2 1_555 1_555
C17 H13 1_555 1_555
C18 N6 1_555 1_555
C21 H17 1_555 1_555
C22 N8 1_555 1_555
H6 C10 1_555 1_555
H14 C18 1_555 1_555
H18 C22 1_555 1_555
C32 C9 1_555 1_555
C33 C10 1_555 1_555
C40 C17 1_555 1_555
C41 C18 1_555 1_555
C44 C21 1_555 1_555
C45 C22 1_555 1_555
H28 C32 1_555 1_555
H29 C33 1_555 1_555
H36 C40 1_555 1_555
H37 C41 1_555 1_555
H40 C44 1_555 1_555
H41 C45 1_555 1_555
C54 C32 1_555 1_555
C58 C40 1_555 1_555
C60 C44 1_555 1_555
C65 O8 1_555 1_555
C69 O16 1_555 1_555
C71 O20 1_555 1_555
C76 O31 1_555 1_555
C80 O39 1_555 1_555
C83 O45 1_555 1_555
C87 C76 1_555 1_555
C91 C80 1_555 1_555
C94 C83 1_555 1_555
O9 C65 1_555 1_555
O17 C69 1_555 1_555
O21 C71 1_555 1_555
O32 C76 1_555 1_555
O40 C80 1_555 1_555
O46 C83 1_555 1_555
C33 C54 1_555 1_555
C41 C58 1_555 1_555
C45 C60 1_555 1_555
C54 C65 1_555 1_555
C58 C69 1_555 1_555
C60 C71 1_555 1_555
Ni4 O5 1_555 1_555
Ni9 O5 1_555 1_555
Ni12 O5 1_555 1_555
Ni13 N9 1_555 1_555
Ni19 N12 1_555 1_555
Ni22 N4 1_555 1_555
O12 Ni4 1_555 1_555
O13 Ni12 1_555 1_555
O22 Ni9 1_555 1_555
O23 Ni4 1_555 1_555
O28 Ni12 1_555 1_555
O29 Ni9 1_555 1_555
O37 Ni4 1_555 1_555
O38 Ni12 1_555 1_555
O43 Ni4 1_555 1_555
O44 Ni9 1_555 1_555
O51 Ni9 1_555 1_555
O52 Ni12 1_555 1_555
N4 C13 1_555 1_555
N9 C23 1_555 1_555
N12 C29 1_555 1_555
N14 Ni4 1_555 1_555
N20 Ni9 1_555 1_555
N21 Ni12 1_555 1_555
C13 H9 1_555 1_555
C14 N4 1_555 1_555
C23 H19 1_555 1_555
C24 N9 1_555 1_555
C29 H25 1_555 1_555
C30 N12 1_555 1_555
H10 C14 1_555 1_555
H20 C24 1_555 1_555
H26 C30 1_555 1_555
C36 C13 1_555 1_555
C37 C14 1_555 1_555
C46 C23 1_555 1_555
C47 C24 1_555 1_555
C52 C29 1_555 1_555
C53 C30 1_555 1_555
H32 C36 1_555 1_555
H33 C37 1_555 1_555
H42 C46 1_555 1_555
H43 C47 1_555 1_555
H48 C52 1_555 1_555
H49 C53 1_555 1_555
C56 C36 1_555 1_555
C61 C46 1_555 1_555
C64 C52 1_555 1_555
C67 O12 1_555 1_555
C72 O22 1_555 1_555
C75 O28 1_555 1_555
C79 O37 1_555 1_555
C82 O43 1_555 1_555
C86 O51 1_555 1_555
C90 C79 1_555 1_555
C93 C82 1_555 1_555
C97 C86 1_555 1_555
O13 C67 1_555 1_555
O23 C72 1_555 1_555
O29 C75 1_555 1_555
O38 C79 1_555 1_555
O44 C82 1_555 1_555
O52 C86 1_555 1_555
C37 C56 1_555 1_555
C47 C61 1_555 1_555
C53 C64 1_555 1_555
C56 C67 1_555 1_555
C61 C72 1_555 1_555
C64 C75 1_555 1_555
Ni1 O1 1_555 1_555
O1 Ni3 1_555 1_555
O2 Ni1 1_555 1_555
O3 Ni1 1_555 1_555
N1 C1 1_555 1_555
C1 H1 1_555 1_555
C2 C1 1_555 1_555
H2 C2 1_555 1_555
C3 C2 1_555 1_555
C4 O2 1_555 1_555
C5 O3 1_555 1_555
C6 C5 1_555 1_555
Ni3 O10 1_555 1_555
Ni7 O1 1_555 1_555
Ni16 N7 1_555 1_555
Ni20 N1 1_555 1_555
Ni24 N3 1_555 1_555
O7 C4 1_555 1_555
O10 C66 1_555 1_555
O11 Ni1 1_555 1_555
O18 Ni7 1_555 1_555
O19 Ni3 1_555 1_555
O30 C5 1_555 1_555
O33 Ni3 1_555 1_555
O34 Ni1 1_555 1_555
O41 Ni7 1_555 1_555
O42 Ni3 1_555 1_555
N3 C11 1_555 1_555
N7 C19 1_555 1_555
N15 Ni3 1_555 1_555
N19 Ni7 1_555 1_555
N23 Ni1 1_555 1_555
C8 N1 1_555 1_555
C11 H7 1_555 1_555
C12 N3 1_555 1_555
C19 H15 1_555 1_555
C20 N7 1_555 1_555
H4 C8 1_555 1_555
H8 C12 1_555 1_555
H16 C20 1_555 1_555
C31 C3 1_555 1_555
C34 C11 1_555 1_555
C35 C12 1_555 1_555
C42 C19 1_555 1_555
C43 C20 1_555 1_555
H27 C31 1_555 1_555
H30 C34 1_555 1_555
H31 C35 1_555 1_555
H38 C42 1_555 1_555
H39 C43 1_555 1_555
C55 C34 1_555 1_555
C59 C42 1_555 1_555
C66 O11 1_555 1_555
C70 O18 1_555 1_555
C77 O33 1_555 1_555
C81 O41 1_555 1_555
C88 C77 1_555 1_555
C92 C81 1_555 1_555
C3 C4 1_555 1_555
Ni7 O7 1_555 1_555
Ni7 O30 1_555 1_555
O19 C70 1_555 1_555
O34 C77 1_555 1_555
O42 C81 1_555 1_555
C8 C31 1_555 1_555
C35 C55 1_555 1_555
C43 C59 1_555 1_555
C55 C66 1_555 1_555
C59 C70 1_555 1_555
N22 C21_2 1_555 1_555
N24 C25_2 1_555 1_555
C21_2 H17_2 1_555 1_555
C22_2 N22 1_555 1_555
C25_2 H21_2 1_555 1_555
C26_2 N24 1_555 1_555
H18_2 C22_2 1_555 1_555
H22_2 C26_2 1_555 1_555
N14 C27_2 1_555 1_555
N16 C29_2 1_555 1_555
C27_2 H23_2 1_555 1_555
C28_2 N14 1_555 1_555
C29_2 H25_2 1_555 1_555
C30_2 N16 1_555 1_555
H24_2 C28_2 1_555 1_555
H26_2 C30_2 1_555 1_555
N18 C13_2 1_555 1_555
N20 C17_2 1_555 1_555
C13_2 H9_2 1_555 1_555
C14_2 N18 1_555 1_555
C17_2 H13_2 1_555 1_555
C18_2 N20 1_555 1_555
H10_2 C14_2 1_555 1_555
H14_2 C18_2 1_555 1_555
Ni13 O1_2 1_555 1_555
O1_2 Ni17 1_555 1_555
O2_2 Ni13 1_555 1_555
O3_2 Ni13 1_555 1_555
H2_2 C2_2 1_555 1_555
C3_2 C2_2 1_555 1_555
C4_2 O2_2 1_555 1_555
C5_2 O3_2 1_555 1_555
C6_2 C5_2 1_555 1_555
C7 C6_2 1_555 1_555
H3 C7 1_555 1_555
Ni15 O4_2 1_555 1_555
Ni17 O10_2 1_555 1_555
Ni18 O5_2 1_555 1_555
Ni19 O6_2 1_555 1_555
Ni20 O4_2 1_555 1_555
Ni21 O1_2 1_555 1_555
Ni22 O4_2 1_555 1_555
Ni23 O5_2 1_555 1_555
Ni24 O6_2 1_555 1_555
Ni14 O6_2 1_555 1_555
Ni16 O5_2 1_555 1_555
O7_2 C4_2 1_555 1_555
O8_2 Ni15 1_555 1_555
O9_2 Ni22 1_555 1_555
O10_2 C66_2 1_555 1_555
O11_2 Ni13 1_555 1_555
O12_2 Ni18 1_555 1_555
O13_2 Ni16 1_555 1_555
O14_2 Ni19 1_555 1_555
O15_2 Ni14 1_555 1_555
O16_2 Ni20 1_555 1_555
O17_2 Ni15 1_555 1_555
O18_2 Ni21 1_555 1_555
O19_2 Ni17 1_555 1_555
O20_2 Ni22 1_555 1_555
O21_2 Ni20 1_555 1_555
O22_2 Ni23 1_555 1_555
O23_2 Ni18 1_555 1_555
O24_2 Ni24 1_555 1_555
O25_2 Ni19 1_555 1_555
O26_2 Ni14 1_555 1_555
O27_2 Ni24 1_555 1_555
O28_2 Ni16 1_555 1_555
O29_2 Ni23 1_555 1_555
O30_2 C5_2 1_555 1_555
O31_2 Ni22 1_555 1_555
O32_2 Ni15 1_555 1_555
O33_2 Ni17 1_555 1_555
O34_2 Ni13 1_555 1_555
O35_2 Ni14 1_555 1_555
O36_2 Ni19 1_555 1_555
O37_2 Ni18 1_555 1_555
O38_2 Ni16 1_555 1_555
O39_2 Ni15 1_555 1_555
O40_2 Ni20 1_555 1_555
O41_2 Ni21 1_555 1_555
O42_2 Ni17 1_555 1_555
O43_2 Ni18 1_555 1_555
O44_2 Ni23 1_555 1_555
O45_2 Ni22 1_555 1_555
O46_2 Ni20 1_555 1_555
O47_2 Ni19 1_555 1_555
O48_2 Ni24 1_555 1_555
O49_2 Ni14 1_555 1_555
O50_2 Ni24 1_555 1_555
O51_2 Ni23 1_555 1_555
O52_2 Ni16 1_555 1_555
C31_2 C3_2 1_555 1_555
H27_2 C31_2 1_555 1_555
H28_2 C32_2 1_555 1_555
H29_2 C33_2 1_555 1_555
H30_2 C34_2 1_555 1_555
H31_2 C35_2 1_555 1_555
H32_2 C36_2 1_555 1_555
H33_2 C37_2 1_555 1_555
H34_2 C38_2 1_555 1_555
H35_2 C39_2 1_555 1_555
H36_2 C40_2 1_555 1_555
H37_2 C41_2 1_555 1_555
H38_2 C42_2 1_555 1_555
H39_2 C43_2 1_555 1_555
H40_2 C44_2 1_555 1_555
H41_2 C45_2 1_555 1_555
H42_2 C46_2 1_555 1_555
H43_2 C47_2 1_555 1_555
H44_2 C48_2 1_555 1_555
H45_2 C49_2 1_555 1_555
H46_2 C50_2 1_555 1_555
H47_2 C51_2 1_555 1_555
H48_2 C52_2 1_555 1_555
H49_2 C53_2 1_555 1_555
C54_2 C32_2 1_555 1_555
C55_2 C34_2 1_555 1_555
C56_2 C36_2 1_555 1_555
C57_2 C38_2 1_555 1_555
C58_2 C40_2 1_555 1_555
C59_2 C42_2 1_555 1_555
C60_2 C44_2 1_555 1_555
C61_2 C46_2 1_555 1_555
C62_2 C48_2 1_555 1_555
C63_2 C50_2 1_555 1_555
C64_2 C52_2 1_555 1_555
C65_2 O8_2 1_555 1_555
C66_2 O11_2 1_555 1_555
C67_2 O12_2 1_555 1_555
C68_2 O14_2 1_555 1_555
C69_2 O16_2 1_555 1_555
C70_2 O18_2 1_555 1_555
C71_2 O20_2 1_555 1_555
C72_2 O22_2 1_555 1_555
C73_2 O24_2 1_555 1_555
C74_2 O26_2 1_555 1_555
C75_2 O28_2 1_555 1_555
C76_2 O31_2 1_555 1_555
C77_2 O33_2 1_555 1_555
C78_2 O35_2 1_555 1_555
C79_2 O37_2 1_555 1_555
C80_2 O39_2 1_555 1_555
C81_2 O41_2 1_555 1_555
C82_2 O43_2 1_555 1_555
C83_2 O45_2 1_555 1_555
C84_2 O47_2 1_555 1_555
C85_2 O49_2 1_555 1_555
C86_2 O51_2 1_555 1_555
C87_2 C76_2 1_555 1_555
C88_2 C77_2 1_555 1_555
C89_2 C78_2 1_555 1_555
C90_2 C79_2 1_555 1_555
C91_2 C80_2 1_555 1_555
C92_2 C81_2 1_555 1_555
C93_2 C82_2 1_555 1_555
C94_2 C83_2 1_555 1_555
C95_2 C84_2 1_555 1_555
C96_2 C85_2 1_555 1_555
C97_2 C86_2 1_555 1_555
C98 C6_2 1_555 1_555
C99 C7 1_555 1_555
C100 C87_2 1_555 1_555
C101 C88_2 1_555 1_555
C102 C88_2 1_555 1_555
C103 C89_2 1_555 1_555
C104 C89_2 1_555 1_555
C105 C90_2 1_555 1_555
C106_2 C90_2 1_555 1_555
C107 C91_2 1_555 1_555
C108_2 C91_2 1_555 1_555
C109 C92_2 1_555 1_555
C110 C92_2 1_555 1_555
C111 C93_2 1_555 1_555
C112 C93_2 1_555 1_555
C113 C94_2 1_555 1_555
C114_2 C94_2 1_555 1_555
C115 C95_2 1_555 1_555
C116_2 C95_2 1_555 1_555
C117 C96_2 1_555 1_555
C118_2 C96_2 1_555 1_555
C119 C97_2 1_555 1_555
C120_2 C97_2 1_555 1_555
H50 C98 1_555 1_555
H51 C99 1_555 1_555
H52 C100 1_555 1_555
H53 C101 1_555 1_555
H54 C102 1_555 1_555
H55 C103 1_555 1_555
H56 C104 1_555 1_555
H57 C105 1_555 1_555
H58_2 C106_2 1_555 1_555
H59 C107 1_555 1_555
H60_2 C108_2 1_555 1_555
H61 C109 1_555 1_555
H62 C110 1_555 1_555
H63 C111 1_555 1_555
H64 C112 1_555 1_555
H65 C113 1_555 1_555
H66_2 C114_2 1_555 1_555
H67 C115 1_555 1_555
H68_2 C116_2 1_555 1_555
H69 C117 1_555 1_555
H70_2 C118_2 1_555 1_555
H71 C119 1_555 1_555
H72_2 C120_2 1_555 1_555
C3_2 C4_2 1_555 1_555
Ni21 O7_2 1_555 1_555
Ni21 O30_2 1_555 1_555
O9_2 C65_2 1_555 1_555
O13_2 C67_2 1_555 1_555
O15_2 C68_2 1_555 1_555
O17_2 C69_2 1_555 1_555
O19_2 C70_2 1_555 1_555
O21_2 C71_2 1_555 1_555
O23_2 C72_2 1_555 1_555
O25_2 C73_2 1_555 1_555
O27_2 C74_2 1_555 1_555
O29_2 C75_2 1_555 1_555
O32_2 C76_2 1_555 1_555
O34_2 C77_2 1_555 1_555
O36_2 C78_2 1_555 1_555
O38_2 C79_2 1_555 1_555
O40_2 C80_2 1_555 1_555
O42_2 C81_2 1_555 1_555
O44_2 C82_2 1_555 1_555
O46_2 C83_2 1_555 1_555
O48_2 C84_2 1_555 1_555
O50_2 C85_2 1_555 1_555
O52_2 C86_2 1_555 1_555
C33_2 C54_2 1_555 1_555
C35_2 C55_2 1_555 1_555
C37_2 C56_2 1_555 1_555
C39_2 C57_2 1_555 1_555
C41_2 C58_2 1_555 1_555
C43_2 C59_2 1_555 1_555
C45_2 C60_2 1_555 1_555
C47_2 C61_2 1_555 1_555
C49_2 C62_2 1_555 1_555
C51_2 C63_2 1_555 1_555
C53_2 C64_2 1_555 1_555
C54_2 C65_2 1_555 1_555
C55_2 C66_2 1_555 1_555
C56_2 C67_2 1_555 1_555
C57_2 C68_2 1_555 1_555
C58_2 C69_2 1_555 1_555
C59_2 C70_2 1_555 1_555
C60_2 C71_2 1_555 1_555
C61_2 C72_2 1_555 1_555
C62_2 C73_2 1_555 1_555
C63_2 C74_2 1_555 1_555
C64_2 C75_2 1_555 1_555
C87_2 C99 1_555 1_555
C98 C100 1_555 1_555
C101 C103 1_555 1_555
C102 C104 1_555 1_555
C105 C107 1_555 1_555
C106_2 C108_2 1_555 1_555
C109 C111 1_555 1_555
C110 C112 1_555 1_555
C113 C115 1_555 1_555
C114_2 C116_2 1_555 1_555
C117 C119 1_555 1_555
C118_2 C120_2 1_555 1_555
N17 C11_2 1_555 1_555
N19 C15_2 1_555 1_555
C11_2 H7_2 1_555 1_555
C12_2 N17 1_555 1_555
C15_2 H11_2 1_555 1_555
C16_2 N19 1_555 1_555
H8_2 C12_2 1_555 1_555
H12_2 C16_2 1_555 1_555
N13 C1_2 1_555 1_555
C1_2 H1_2 1_555 1_555
N15 C9_2 1_555 1_555
C8_2 N13 1_555 1_555
C9_2 H5_2 1_555 1_555
C10_2 N15 1_555 1_555
H4_2 C8_2 1_555 1_555
H6_2 C10_2 1_555 1_555
N21 C19_2 1_555 1_555
N23 C23_2 1_555 1_555
C19_2 H15_2 1_555 1_555
C20_2 N21 1_555 1_555
C23_2 H19_2 1_555 1_555
C24_2 N23 1_555 1_555
H16_2 C20_2 1_555 1_555
H20_2 C24_2 1_555 1_555
H3_2 C7_2 1_555 1_555
C99_2 C7_2 1_555 1_555
H51_2 C99_2 1_555 1_555
H54_2 C102_2 1_555 1_555
H56_2 C104_2 1_555 1_555
H65_2 C113_2 1_555 1_555
H67_2 C115_2 1_555 1_555
C102_2 C104_2 1_555 1_555
C113_2 C115_2 1_555 1_555
H53_2 C101_2 1_555 1_555
H55_2 C103_2 1_555 1_555
H62_2 C110_2 1_555 1_555
H64_2 C112_2 1_555 1_555
H69_2 C117_2 1_555 1_555
H71_2 C119_2 1_555 1_555
C101_2 C103_2 1_555 1_555
C110_2 C112_2 1_555 1_555
C117_2 C119_2 1_555 1_555
H50_2 C98_2 1_555 1_555
H52_2 C100_2 1_555 1_555
H57_2 C105_2 1_555 1_555
H59_2 C107_2 1_555 1_555
H61_2 C109_2 1_555 1_555
H63_2 C111_2 1_555 1_555
C98_2 C100_2 1_555 1_555
C105_2 C107_2 1_555 1_555
C109_2 C111_2 1_555 1_555

#END
