
###############################################################################
#
# This file contains modified crystal structure data generated from the
# MOF subset of the Cambridge Structural Database (CSD) v543 
# hosted by the Cambridge Crystallographic Data Centre (CCDC).
#
# This work is licensed under the Creative Commons
# Attribution-NonCommercial-ShareAlike 4.0 International License.
# To view a copy of this license, visit
# http://creativecommons.org/licenses/by-nc-sa/4.0/
# or send a letter to
# Creative Commons, PO Box 1866, Mountain View, CA 94042, USA.
#
# CIF created using the CSD Python API on 29 September 2022
# The structure has been converted into the P1 space group
# The structure has a 3D framework
# The original CSD entry KASDOA is in the tetragonal crystal system
# The framework has been calculated to contain at least 10.0% void space
# The void calculation uses a probe of radius 1.32A, grid spacing 0.4
# The framework is charged, counterions have been retained in the structure
#
###############################################################################

data_KASDOA
_chemical_formula_moiety         '(C296 H152 N48 O96 Zn24 15-)n'
_symmetry_cell_setting           triclinic
_symmetry_space_group_name_H-M   'P 1'
_symmetry_Int_Tables_number      1
_space_group_name_Hall           'P 1'
loop_
_symmetry_equiv_pos_site_id
_symmetry_equiv_pos_as_xyz
1 x,y,z
_cell_length_a                   26.6257(4)
_cell_length_b                   26.6257(4)
_cell_length_c                   20.2942(6)
_cell_angle_alpha                90
_cell_angle_beta                 90
_cell_angle_gamma                90
_cell_volume                     14387.1
loop_
_atom_site_label
_atom_site_type_symbol
_atom_site_fract_x
_atom_site_fract_y
_atom_site_fract_z
Zn1 Zn 0.31151(2) 0.28915(2) 0.17089(3)
Zn3 Zn 0.19605(3) 0.30395(3) 0.42489(5)
Zn4 Zn 0.30546(2) 0.29531(2) 0.68567(3)
N1 N 0.31125(17) 0.18875(17) 0.0140(3)
N2 N 0.2173(2) 0.2827(2) 0.5163(3)
N3 N 0.30251(16) 0.23342(15) 0.1035(2)
N4 N 0.26638(17) 0.26974(18) 0.2481(2)
N5 N 0.25561(17) 0.28076(17) 0.6117(2)
O2 O 0.37946(14) 0.2834(2) 0.2053(3)
N6 N 0.2276(2) 0.2724(2) 0.3438(3)
C1 C 0.3277(2) 0.2268(2) 0.0494(3)
H1 H 0.3546 0.2469 0.0369
C3 C 0.2636(2) 0.2920(2) 0.3050(3)
H2 H 0.2843 0.3185 0.3175
C4 C 0.2527(2) 0.3024(2) 0.5539(3)
H3 H 0.2733 0.3288 0.5407
O4 O 0.4045(2) 0.3058(3) 0.1063(3)
C5 C 0.4133(2) 0.2941(3) 0.1647(4)
C6 C 0.4750(2) 0.2852(3) 0.2545(4)
H4 H 0.4476 0.2850 0.2830
C11 C 0.4662(3) 0.2892(4) 0.1889(4)
C13 C 0.5227(3) 0.2815(4) 0.2812(4)
C14 C 0.5060(3) 0.2907(6) 0.1451(5)
H8 H 0.5010 0.2941 0.1000
C18 C 0.5270(3) 0.2783(4) 0.3538(4)
C19 C 0.5486(4) 0.2377(5) 0.4568(5)
H11 H 0.5667 0.2125 0.4780
C21 C 0.5630(3) 0.2822(5) 0.2383(5)
C23 C 0.5506(4) 0.2411(5) 0.3858(6)
H12 H 0.5685 0.2172 0.3620
O7 O 0.36946(19) 0.2799(2) 0.6404(3)
O8 O 0.3991(2) 0.2939(3) 0.7398(4)
C24 C 0.5141(3) 0.2637(4) 0.5639(4)
C25 C 0.4051(3) 0.2817(3) 0.6811(5)
C26 C 0.4573(3) 0.2692(4) 0.6547(5)
C27 C 0.5529(3) 0.2518(4) 0.6079(4)
C28 C 0.4668(3) 0.2696(4) 0.5898(4)
H13 H 0.4400 0.2742 0.5609
C29 C 0.5224(3) 0.2684(4) 0.4915(4)
O9 O 0.6326(2) 0.2806(3) 0.5711(4)
C30 C 0.6067(3) 0.2459(4) 0.5867(4)
C31 C 0.4941(3) 0.2576(5) 0.6977(5)
H14 H 0.4872 0.2556 0.7425
C32 C 0.5018(4) 0.3115(6) 0.4590(6)
H15 H 0.4874 0.3371 0.4838
C33 C 0.5417(3) 0.2487(6) 0.6749(5)
H16 H 0.5670 0.2405 0.7046
C34 C 0.5032(5) 0.3151(6) 0.3910(6)
H17 H 0.4881 0.3423 0.3701
C35 C 0.5540(3) 0.2870(7) 0.1720(6)
H18 H 0.5814 0.2877 0.1435
O10 O 0.62334(18) 0.2009(3) 0.5909(3)
O11 O 0.6335(2) 0.3057(3) 0.2967(4)
O12 O 0.6435(4) 0.2385(6) 0.2415(9)
C36 C 0.6172(4) 0.2778(8) 0.2615(6)
N7 N 0.2920(2) 0.24402(18) 0.7559(2)
C37 C 0.3178(3) 0.2372(2) 0.8105(3)
H19 H 0.3448 0.2572 0.8230
N8 N 0.3012(2) 0.1988(2) 0.8456(3)
N9 N 0.26658(15) 0.19749(16) 0.1035(2)
C38 C 0.2732(2) 0.1723(2) 0.0494(3)
H20 H 0.2531 0.1454 0.0369
N10 N 0.21924(17) 0.24439(17) 0.6117(2)
C39 C 0.1976(2) 0.2473(2) 0.5539(3)
H21 H 0.1712 0.2267 0.5407
N11 N 0.23026(18) 0.23362(17) 0.2481(2)
C40 C 0.2080(2) 0.2364(2) 0.3050(3)
H22 H 0.1815 0.2157 0.3175
N12 N 0.25598(18) 0.2080(2) 0.7559(2)
C52 C 0.2628(2) 0.1822(3) 0.8105(3)
H28 H 0.2428 0.1552 0.8230
Zn5 Zn 0.28915(2) 0.68849(2) 0.82911(3)
Zn6 Zn 0.29531(2) 0.69454(2) 0.31433(3)
O17 O 0.2834(2) 0.62054(14) 0.7947(3)
O18 O 0.3058(3) 0.5955(2) 0.8937(3)
C53 C 0.2941(3) 0.5867(2) 0.8353(4)
C54 C 0.2852(3) 0.5250(2) 0.7455(4)
H29 H 0.2850 0.5524 0.7170
C55 C 0.2892(4) 0.5338(3) 0.8111(4)
C56 C 0.2815(4) 0.4773(3) 0.7188(4)
C57 C 0.2907(6) 0.4940(3) 0.8549(5)
H30 H 0.2941 0.4990 0.9000
C58 C 0.2783(4) 0.4730(3) 0.6462(4)
C59 C 0.2377(5) 0.4514(4) 0.5432(5)
H31 H 0.2125 0.4333 0.5220
C60 C 0.2822(5) 0.4370(3) 0.7617(5)
C61 C 0.2411(5) 0.4494(4) 0.6142(6)
H32 H 0.2172 0.4315 0.6380
O19 O 0.2799(2) 0.63054(19) 0.3596(3)
O20 O 0.2939(3) 0.6009(2) 0.2602(4)
C62 C 0.2637(4) 0.4859(3) 0.4361(4)
C63 C 0.2817(3) 0.5949(3) 0.3189(5)
C64 C 0.2692(4) 0.5427(3) 0.3453(5)
C65 C 0.2518(4) 0.4471(3) 0.3921(4)
C66 C 0.2696(4) 0.5332(3) 0.4102(4)
H33 H 0.2742 0.5600 0.4391
C67 C 0.2684(4) 0.4776(3) 0.5085(4)
O21 O 0.2806(3) 0.3674(2) 0.4289(4)
C68 C 0.2459(4) 0.3933(3) 0.4133(4)
C69 C 0.2576(5) 0.5059(3) 0.3023(5)
H34 H 0.2556 0.5128 0.2575
C70 C 0.3115(6) 0.4982(4) 0.5410(6)
H35 H 0.3371 0.5126 0.5162
C71 C 0.2487(6) 0.4583(3) 0.3251(5)
H36 H 0.2405 0.4330 0.2954
C72 C 0.3151(6) 0.4968(5) 0.6090(6)
H37 H 0.3423 0.5119 0.6299
C73 C 0.2870(7) 0.4460(3) 0.8280(6)
H38 H 0.2877 0.4186 0.8565
O22 O 0.2009(3) 0.37666(18) 0.4091(3)
O23 O 0.3057(3) 0.3665(2) 0.7033(4)
O24 O 0.2385(6) 0.3565(4) 0.7585(9)
C74 C 0.2778(8) 0.3828(4) 0.7385(6)
Zn9 Zn 0.21085(2) 0.18849(2) 0.17089(3)
Zn10 Zn 0.33431(2) 0.16569(2) 0.92447(5)
Zn12 Zn 0.69605(3) 0.19605(3) 0.57511(5)
Zn13 Zn 0.70469(2) 0.30546(2) 0.31433(3)
Zn14 Zn 0.20469(2) 0.19454(2) 0.68567(3)
N13 N 0.23342(15) 0.69749(16) 0.8965(2)
N14 N 0.26974(18) 0.73362(17) 0.7519(2)
N15 N 0.28076(17) 0.74439(17) 0.3883(2)
O26 O 0.3060(3) 0.3767(2) 0.2160(4)
O27 O 0.3767(2) 0.6940(3) 0.7840(4)
O28 O 0.2787(2) 0.3469(2) 0.1221(4)
O29 O 0.3469(2) 0.7213(2) 0.8779(4)
O30 O 0.12334(18) 0.2991(3) 0.4091(3)
O31 O 0.3665(2) 0.6943(3) 0.2967(4)
N16 N 0.24402(18) 0.7080(2) 0.2441(2)
O1 O 0.38836(15) 0.25323(18) 0.9265(2)
O3 O 0.40794(16) 0.17342(18) 0.9123(3)
C2 C 0.4190(2) 0.2206(3) 0.9129(3)
C7 C 0.4816(3) 0.2848(3) 0.8847(6)
H5 H 0.4568 0.3090 0.8897
C8 C 0.4719(3) 0.2350(3) 0.8958(4)
C9 C 0.5310(3) 0.2980(3) 0.8654(6)
H6 H 0.5381 0.3314 0.8561
C10 C 0.5086(2) 0.1991(2) 0.8902(4)
H7 H 0.5007 0.1657 0.8982
C12 C 0.5583(3) 0.2123(3) 0.8726(4)
C15 C 0.6330(2) 0.1702(2) 0.8193(4)
H9 H 0.620(3) 0.182(3) 0.777(4)
C16 C 0.5971(2) 0.1727(2) 0.8699(4)
C17 C 0.5996(3) 0.1376(3) 0.9204(5)
H10 H 0.5763 0.1387 0.9545
C20 C 0.5683(3) 0.2636(3) 0.8600(5)
O5 O 0.6233(2) 0.3060(3) 0.7840(4)
C22 C 0.6194(3) 0.2845(3) 0.8382(6)
O6 O 0.6531(2) 0.2787(2) 0.8779(4)
C44 C 0.7980(3) 0.0310(3) 0.8654(6)
H24 H 0.8314 0.0381 0.8561
C45 C 0.6991(2) 0.0086(2) 0.8902(4)
H25 H 0.6657 0.0007 0.8982
C46 C 0.7123(3) 0.0583(3) 0.8726(4)
C47 C 0.6702(2) 0.1330(2) 0.8193(4)
H26 H 0.682(3) 0.120(3) 0.777(4)
C48 C 0.6727(2) 0.0971(2) 0.8699(4)
C49 C 0.6376(3) 0.0996(3) 0.9204(5)
H27 H 0.6387 0.0763 0.9545
C50 C 0.7636(3) 0.0683(3) 0.8600(5)
O15 O 0.8060(3) 0.1233(2) 0.7840(4)
C51 C 0.7845(3) 0.1194(3) 0.8382(6)
O16 O 0.7787(2) 0.1531(2) 0.8779(4)
Zn7 Zn 0.71085(2) 0.31151(2) 0.82911(3)
Zn8 Zn 0.81151(2) 0.21085(2) 0.82911(3)
O25 O 0.32658(18) 0.09206(16) 0.9123(3)
O13 O 0.75323(18) 0.88836(15) 0.9265(2)
O14 O 0.67342(18) 0.90794(16) 0.9123(3)
C41 C 0.7206(3) 0.9190(2) 0.9129(3)
C42 C 0.7848(3) 0.9816(3) 0.8847(6)
H23 H 0.8090 0.9568 0.8897
C43 C 0.7350(3) 0.9719(3) 0.8958(4)
Zn11 Zn 0.66569(2) 0.83431(2) 0.92447(5)
Zn2 Zn 0.16569(2) 0.66569(2) 0.07553(5)
O1_2 O 0.25323(18) 0.61164(15) 0.0735(2)
O3_2 O 0.17342(18) 0.59206(16) 0.0877(3)
C2_2 C 0.2206(3) 0.5810(2) 0.0871(3)
C7_2 C 0.2848(3) 0.5184(3) 0.1153(6)
H5_2 H 0.3090 0.5432 0.1103
C8_2 C 0.2350(3) 0.5281(3) 0.1042(4)
C9_2 C 0.2980(3) 0.4690(3) 0.1346(6)
H6_2 H 0.3314 0.4619 0.1439
C10_2 C 0.1991(2) 0.4914(2) 0.1098(4)
H7_2 H 0.1657 0.4993 0.1018
C12_2 C 0.2123(3) 0.4417(3) 0.1274(4)
C15_2 C 0.1702(2) 0.3670(2) 0.1807(4)
H9_2 H 0.182(3) 0.380(3) 0.223(4)
C16_2 C 0.1727(2) 0.4029(2) 0.1301(4)
C17_2 C 0.1376(3) 0.4004(3) 0.0796(5)
H10_2 H 0.1387 0.4237 0.0455
C20_2 C 0.2636(3) 0.4317(3) 0.1400(5)
C22_2 C 0.2845(3) 0.3806(3) 0.1618(6)
C44_2 C 0.0310(3) 0.2020(3) 0.1346(6)
H24_2 H 0.0381 0.1686 0.1439
C45_2 C 0.0086(2) 0.3009(2) 0.1098(4)
H25_2 H 0.0007 0.3343 0.1018
C46_2 C 0.0583(3) 0.2877(3) 0.1274(4)
C47_2 C 0.1330(2) 0.3298(2) 0.1807(4)
H26_2 H 0.120(3) 0.318(3) 0.223(4)
C48_2 C 0.0971(2) 0.3273(2) 0.1301(4)
C49_2 C 0.0996(3) 0.3624(3) 0.0796(5)
H27_2 H 0.0763 0.3613 0.0455
C50_2 C 0.0683(3) 0.2364(3) 0.1400(5)
O15_2 O 0.1233(2) 0.1940(3) 0.2160(4)
C51_2 C 0.1194(3) 0.2155(3) 0.1618(6)
O16_2 O 0.1531(2) 0.2213(2) 0.1221(4)
O25_2 O 0.09206(16) 0.67342(18) 0.0877(3)
N17 N 0.1988(2) 0.6988(2) 0.1544(3)
Zn3_2 Zn 0.30395(3) 0.80395(3) 0.57511(5)
N1_2 N 0.18875(17) 0.68875(17) 0.9860(3)
N2_2 N 0.2827(2) 0.7827(2) 0.4837(3)
N6_2 N 0.2724(2) 0.7724(2) 0.6562(3)
C1_2 C 0.2268(2) 0.6723(2) 0.9506(3)
H1_2 H 0.2469 0.6454 0.9631
C3_2 C 0.2920(2) 0.7364(2) 0.6950(3)
H2_2 H 0.3185 0.7157 0.6825
C4_2 C 0.3024(2) 0.7473(2) 0.4461(3)
H3_2 H 0.3288 0.7267 0.4593
C37_2 C 0.2372(2) 0.6822(3) 0.1895(3)
H19_2 H 0.2572 0.6552 0.1770
N9_2 N 0.19749(16) 0.73342(15) 0.8965(2)
C38_2 C 0.1723(2) 0.7268(2) 0.9506(3)
H20_2 H 0.1454 0.7469 0.9631
N10_2 N 0.24439(17) 0.78076(17) 0.3883(2)
C39_2 C 0.2473(2) 0.8024(2) 0.4461(3)
H21_2 H 0.2267 0.8288 0.4593
N11_2 N 0.23362(17) 0.76974(18) 0.7519(2)
C40_2 C 0.2364(2) 0.7920(2) 0.6950(3)
H22_2 H 0.2157 0.8185 0.6825
N12_2 N 0.2080(2) 0.74402(18) 0.2441(2)
C52_2 C 0.1822(3) 0.7372(2) 0.1895(3)
H28_2 H 0.1552 0.7572 0.1770
Zn5_2 Zn 0.68849(2) 0.71085(2) 0.17089(3)
Zn6_2 Zn 0.69454(2) 0.70469(2) 0.68567(3)
O17_2 O 0.62054(14) 0.7166(2) 0.2053(3)
O18_2 O 0.5955(2) 0.6942(3) 0.1063(3)
C53_2 C 0.5867(2) 0.7059(3) 0.1647(4)
C54_2 C 0.5250(2) 0.7148(3) 0.2545(4)
H29_2 H 0.5524 0.7150 0.2830
C55_2 C 0.5338(3) 0.7108(4) 0.1889(4)
C56_2 C 0.4773(3) 0.7185(4) 0.2812(4)
C57_2 C 0.4940(3) 0.7093(6) 0.1451(5)
H30_2 H 0.4990 0.7059 0.1000
C58_2 C 0.4730(3) 0.7217(4) 0.3538(4)
C59_2 C 0.4514(4) 0.7623(5) 0.4568(5)
H31_2 H 0.4333 0.7875 0.4780
C60_2 C 0.4370(3) 0.7178(5) 0.2383(5)
C61_2 C 0.4494(4) 0.7589(5) 0.3858(6)
H32_2 H 0.4315 0.7828 0.3620
O19_2 O 0.63054(19) 0.7201(2) 0.6404(3)
O20_2 O 0.6009(2) 0.7061(3) 0.7398(4)
C62_2 C 0.4859(3) 0.7363(4) 0.5639(4)
C63_2 C 0.5949(3) 0.7183(3) 0.6811(5)
C64_2 C 0.5427(3) 0.7308(4) 0.6547(5)
C65_2 C 0.4471(3) 0.7482(4) 0.6079(4)
C66_2 C 0.5332(3) 0.7304(4) 0.5898(4)
H33_2 H 0.5600 0.7258 0.5609
C67_2 C 0.4776(3) 0.7316(4) 0.4915(4)
O21_2 O 0.3674(2) 0.7194(3) 0.5711(4)
C68_2 C 0.3933(3) 0.7541(4) 0.5867(4)
C69_2 C 0.5059(3) 0.7424(5) 0.6977(5)
H34_2 H 0.5128 0.7444 0.7425
C70_2 C 0.4982(4) 0.6885(6) 0.4590(6)
H35_2 H 0.5126 0.6629 0.4838
C71_2 C 0.4583(3) 0.7513(6) 0.6749(5)
H36_2 H 0.4330 0.7595 0.7046
C72_2 C 0.4968(5) 0.6849(6) 0.3910(6)
H37_2 H 0.5119 0.6577 0.3701
C73_2 C 0.4460(3) 0.7130(7) 0.1720(6)
H38_2 H 0.4186 0.7123 0.1435
O22_2 O 0.37666(18) 0.7991(3) 0.5909(3)
O24_2 O 0.3565(4) 0.7615(6) 0.2415(9)
C74_2 C 0.3828(4) 0.7222(8) 0.2615(6)
Zn9_2 Zn 0.18849(2) 0.78915(2) 0.82911(3)
Zn14_2 Zn 0.19454(2) 0.79531(2) 0.31433(3)
N13_2 N 0.69749(16) 0.76658(15) 0.1035(2)
N14_2 N 0.73362(17) 0.73026(18) 0.2481(2)
N15_2 N 0.74439(17) 0.71924(17) 0.6117(2)
O27_2 O 0.6940(3) 0.6233(2) 0.2160(4)
O29_2 O 0.7213(2) 0.6531(2) 0.1221(4)
O30_2 O 0.2991(3) 0.87666(18) 0.5909(3)
O31_2 O 0.6943(3) 0.6335(2) 0.7033(4)
N16_2 N 0.7080(2) 0.75598(18) 0.7559(2)
O13_2 O 0.88836(15) 0.24677(18) 0.0735(2)
O14_2 O 0.90794(16) 0.32658(18) 0.0877(3)
C41_2 C 0.9190(2) 0.2794(3) 0.0871(3)
C42_2 C 0.9816(3) 0.2152(3) 0.1153(6)
H23_2 H 0.9568 0.1910 0.1103
C43_2 C 0.9719(3) 0.2650(3) 0.1042(4)
Zn11_2 Zn 0.83431(2) 0.33431(2) 0.07553(5)
O13_3 O 0.24677(18) 0.11164(15) 0.9265(2)
C41_3 C 0.2794(3) 0.0810(2) 0.9129(3)
C42_3 C 0.2152(3) 0.0184(3) 0.8847(6)
H23_3 H 0.1910 0.0432 0.8897
C43_3 C 0.2650(3) 0.0281(3) 0.8958(4)
Zn3_3 Zn 0.80395(3) 0.69605(3) 0.42489(5)
N1_3 N 0.68875(17) 0.81125(17) 0.0140(3)
N2_3 N 0.7827(2) 0.7173(2) 0.5163(3)
N6_3 N 0.7724(2) 0.7276(2) 0.3438(3)
C1_3 C 0.6723(2) 0.7732(2) 0.0494(3)
H1_3 H 0.6454 0.7531 0.0369
C3_3 C 0.7364(2) 0.7080(2) 0.3050(3)
H2_3 H 0.7157 0.6815 0.3175
C4_3 C 0.7473(2) 0.6976(2) 0.5539(3)
H3_3 H 0.7267 0.6712 0.5407
C37_3 C 0.6822(3) 0.7628(2) 0.8105(3)
H19_3 H 0.6552 0.7428 0.8230
N8_2 N 0.6988(2) 0.8012(2) 0.8456(3)
N9_3 N 0.73342(15) 0.80251(16) 0.1035(2)
C38_3 C 0.7268(2) 0.8277(2) 0.0494(3)
H20_3 H 0.7469 0.8546 0.0369
N10_3 N 0.78076(17) 0.75561(17) 0.6117(2)
C39_3 C 0.8024(2) 0.7527(2) 0.5539(3)
H21_3 H 0.8288 0.7733 0.5407
N11_3 N 0.76974(18) 0.76638(17) 0.2481(2)
C40_3 C 0.7920(2) 0.7636(2) 0.3050(3)
H22_3 H 0.8185 0.7843 0.3175
N12_3 N 0.74402(18) 0.7920(2) 0.7559(2)
C52_3 C 0.7372(2) 0.8178(3) 0.8105(3)
H28_3 H 0.7572 0.8448 0.8230
O17_3 O 0.7166(2) 0.37946(14) 0.7947(3)
O18_3 O 0.6942(3) 0.4045(2) 0.8937(3)
C53_3 C 0.7059(3) 0.4133(2) 0.8353(4)
C54_3 C 0.7148(3) 0.4750(2) 0.7455(4)
H29_3 H 0.7150 0.4476 0.7170
C55_3 C 0.7108(4) 0.4662(3) 0.8111(4)
C56_3 C 0.7185(4) 0.5227(3) 0.7188(4)
C57_3 C 0.7093(6) 0.5060(3) 0.8549(5)
H30_3 H 0.7059 0.5010 0.9000
C58_3 C 0.7217(4) 0.5270(3) 0.6462(4)
C59_3 C 0.7623(5) 0.5486(4) 0.5432(5)
H31_3 H 0.7875 0.5667 0.5220
C60_3 C 0.7178(5) 0.5630(3) 0.7617(5)
C61_3 C 0.7589(5) 0.5506(4) 0.6142(6)
H32_3 H 0.7828 0.5685 0.6380
O19_3 O 0.7201(2) 0.36946(19) 0.3596(3)
O20_3 O 0.7061(3) 0.3991(2) 0.2602(4)
C62_3 C 0.7363(4) 0.5141(3) 0.4361(4)
C63_3 C 0.7183(3) 0.4051(3) 0.3189(5)
C64_3 C 0.7308(4) 0.4573(3) 0.3453(5)
C65_3 C 0.7482(4) 0.5529(3) 0.3921(4)
C66_3 C 0.7304(4) 0.4668(3) 0.4102(4)
H33_3 H 0.7258 0.4400 0.4391
C67_3 C 0.7316(4) 0.5224(3) 0.5085(4)
O21_3 O 0.7194(3) 0.6326(2) 0.4289(4)
C68_3 C 0.7541(4) 0.6067(3) 0.4133(4)
C69_3 C 0.7424(5) 0.4941(3) 0.3023(5)
H34_3 H 0.7444 0.4872 0.2575
C70_3 C 0.6885(6) 0.5018(4) 0.5410(6)
H35_3 H 0.6629 0.4874 0.5162
C71_3 C 0.7513(6) 0.5417(3) 0.3251(5)
H36_3 H 0.7595 0.5670 0.2954
C72_3 C 0.6849(6) 0.5032(5) 0.6090(6)
H37_3 H 0.6577 0.4881 0.6299
C73_3 C 0.7130(7) 0.5540(3) 0.8280(6)
H38_3 H 0.7123 0.5814 0.8565
O22_3 O 0.7991(3) 0.62334(18) 0.4091(3)
O24_3 O 0.7615(6) 0.6435(4) 0.7585(9)
C74_3 C 0.7222(8) 0.6172(4) 0.7385(6)
Zn9_3 Zn 0.78915(2) 0.81151(2) 0.17089(3)
Zn14_3 Zn 0.79531(2) 0.80546(2) 0.68567(3)
N13_3 N 0.76658(15) 0.30251(16) 0.8965(2)
N14_3 N 0.73026(18) 0.26638(17) 0.7519(2)
N15_3 N 0.71924(17) 0.25561(17) 0.3883(2)
O30_3 O 0.87666(18) 0.7009(3) 0.4091(3)
N16_3 N 0.75598(18) 0.2920(2) 0.2441(2)
O1_3 O 0.61164(15) 0.74677(18) 0.9265(2)
O3_3 O 0.59206(16) 0.82658(18) 0.9123(3)
C2_3 C 0.5810(2) 0.7794(3) 0.9129(3)
C7_3 C 0.5184(3) 0.7152(3) 0.8847(6)
H5_3 H 0.5432 0.6910 0.8897
C8_3 C 0.5281(3) 0.7650(3) 0.8958(4)
C9_3 C 0.4690(3) 0.7020(3) 0.8654(6)
H6_3 H 0.4619 0.6686 0.8561
C10_3 C 0.4914(2) 0.8009(2) 0.8902(4)
H7_3 H 0.4993 0.8343 0.8982
C12_3 C 0.4417(3) 0.7877(3) 0.8726(4)
C15_3 C 0.3670(2) 0.8298(2) 0.8193(4)
H9_3 H 0.380(3) 0.818(3) 0.777(4)
C16_3 C 0.4029(2) 0.8273(2) 0.8699(4)
C17_3 C 0.4004(3) 0.8624(3) 0.9204(5)
H10_3 H 0.4237 0.8613 0.9545
C20_3 C 0.4317(3) 0.7364(3) 0.8600(5)
C22_3 C 0.3806(3) 0.7155(3) 0.8382(6)
C44_3 C 0.2020(3) 0.9690(3) 0.8654(6)
H24_3 H 0.1686 0.9619 0.8561
C45_3 C 0.3009(2) 0.9914(2) 0.8902(4)
H25_3 H 0.3343 0.9993 0.8982
C46_3 C 0.2877(3) 0.9417(3) 0.8726(4)
C47_3 C 0.3298(2) 0.8670(2) 0.8193(4)
H26_3 H 0.318(3) 0.880(3) 0.777(4)
C48_3 C 0.3273(2) 0.9029(2) 0.8699(4)
C49_3 C 0.3624(3) 0.9004(3) 0.9204(5)
H27_3 H 0.3613 0.9237 0.9545
C50_3 C 0.2364(3) 0.9317(3) 0.8600(5)
O15_3 O 0.1940(3) 0.8767(2) 0.7840(4)
C51_3 C 0.2155(3) 0.8806(3) 0.8382(6)
O16_3 O 0.2213(2) 0.8469(2) 0.8779(4)
O13_4 O 0.11164(15) 0.75323(18) 0.0735(2)
C41_4 C 0.0810(2) 0.7206(3) 0.0871(3)
C42_4 C 0.0184(3) 0.7848(3) 0.1153(6)
H23_4 H 0.0432 0.8090 0.1103
C43_4 C 0.0281(3) 0.7350(3) 0.1042(4)
O1_4 O 0.74677(18) 0.38836(15) 0.0735(2)
O3_4 O 0.82658(18) 0.40794(16) 0.0877(3)
C2_4 C 0.7794(3) 0.4190(2) 0.0871(3)
C7_4 C 0.7152(3) 0.4816(3) 0.1153(6)
H5_4 H 0.6910 0.4568 0.1103
C8_4 C 0.7650(3) 0.4719(3) 0.1042(4)
C9_4 C 0.7020(3) 0.5310(3) 0.1346(6)
H6_4 H 0.6686 0.5381 0.1439
C10_4 C 0.8009(2) 0.5086(2) 0.1098(4)
H7_4 H 0.8343 0.5007 0.1018
C12_4 C 0.7877(3) 0.5583(3) 0.1274(4)
C15_4 C 0.8298(2) 0.6330(2) 0.1807(4)
H9_4 H 0.818(3) 0.620(3) 0.223(4)
C16_4 C 0.8273(2) 0.5971(2) 0.1301(4)
C17_4 C 0.8624(3) 0.5996(3) 0.0796(5)
H10_4 H 0.8613 0.5763 0.0455
C20_4 C 0.7364(3) 0.5683(3) 0.1400(5)
C22_4 C 0.7155(3) 0.6194(3) 0.1618(6)
C44_4 C 0.9690(3) 0.7980(3) 0.1346(6)
H24_4 H 0.9619 0.8314 0.1439
C45_4 C 0.9914(2) 0.6991(2) 0.1098(4)
H25_4 H 0.9993 0.6657 0.1018
C46_4 C 0.9417(3) 0.7123(3) 0.1274(4)
C47_4 C 0.8670(2) 0.6702(2) 0.1807(4)
H26_4 H 0.880(3) 0.682(3) 0.223(4)
C48_4 C 0.9029(2) 0.6727(2) 0.1301(4)
C49_4 C 0.9004(3) 0.6376(3) 0.0796(5)
H27_4 H 0.9237 0.6387 0.0455
C50_4 C 0.9317(3) 0.7636(3) 0.1400(5)
O15_4 O 0.8767(2) 0.8060(3) 0.2160(4)
C51_4 C 0.8806(3) 0.7845(3) 0.1618(6)
O16_4 O 0.8469(2) 0.7787(2) 0.1221(4)
N17_2 N 0.8012(2) 0.3012(2) 0.1544(3)
N1_4 N 0.81125(17) 0.31125(17) 0.9860(3)
N2_4 N 0.7173(2) 0.2173(2) 0.4837(3)
N6_4 N 0.7276(2) 0.2276(2) 0.6562(3)
C1_4 C 0.7732(2) 0.3277(2) 0.9506(3)
H1_4 H 0.7531 0.3546 0.9631
C3_4 C 0.7080(2) 0.2636(2) 0.6950(3)
H2_4 H 0.6815 0.2843 0.6825
C4_4 C 0.6976(2) 0.2527(2) 0.4461(3)
H3_4 H 0.6712 0.2733 0.4593
C37_4 C 0.7628(2) 0.3178(3) 0.1895(3)
H19_4 H 0.7428 0.3448 0.1770
N9_4 N 0.80251(16) 0.26658(15) 0.8965(2)
C38_4 C 0.8277(2) 0.2732(2) 0.9506(3)
H20_4 H 0.8546 0.2531 0.9631
N10_4 N 0.75561(17) 0.21924(17) 0.3883(2)
C39_4 C 0.7527(2) 0.1976(2) 0.4461(3)
H21_4 H 0.7733 0.1712 0.4593
N11_4 N 0.76638(17) 0.23026(18) 0.7519(2)
C40_4 C 0.7636(2) 0.2080(2) 0.6950(3)
H22_4 H 0.7843 0.1815 0.6825
N12_4 N 0.7920(2) 0.25598(18) 0.2441(2)
C52_4 C 0.8178(3) 0.2628(2) 0.1895(3)
H28_4 H 0.8448 0.2428 0.1770
Zn14_4 Zn 0.80546(2) 0.20469(2) 0.31433(3)
O30_4 O 0.7009(3) 0.12334(18) 0.5909(3)
C13_2 C 0.0227(3) 0.2185(4) 0.7188(4)
C14_2 C 0.0060(3) 0.2093(6) 0.8549(5)
H8_2 H 0.0010 0.2059 0.9000
C18_2 C 0.0270(3) 0.2217(4) 0.6462(4)
C19_2 C 0.0486(4) 0.2623(5) 0.5432(5)
H11_2 H 0.0667 0.2875 0.5220
C21_2 C 0.0630(3) 0.2178(5) 0.7617(5)
C23_2 C 0.0506(4) 0.2589(5) 0.6142(6)
H12_2 H 0.0685 0.2828 0.6380
C24_2 C 0.0141(3) 0.2363(4) 0.4361(4)
C27_2 C 0.0529(3) 0.2482(4) 0.3921(4)
C29_2 C 0.0224(3) 0.2316(4) 0.5085(4)
O9_2 O 0.1326(2) 0.2194(3) 0.4289(4)
C30_2 C 0.1067(3) 0.2541(4) 0.4133(4)
C32_2 C 0.0018(4) 0.1885(6) 0.5410(6)
C33_2 C 0.0417(3) 0.2513(6) 0.3251(5)
H16_2 H 0.0670 0.2595 0.2954
C34_2 C 0.0032(5) 0.1849(6) 0.6090(6)
C35_2 C 0.0540(3) 0.2130(7) 0.8280(6)
H18_2 H 0.0814 0.2123 0.8565
O11_2 O 0.1335(2) 0.1943(3) 0.7033(4)
O12_2 O 0.1435(4) 0.2615(6) 0.7585(9)
C36_2 C 0.1172(4) 0.2222(8) 0.7385(6)
O2_2 O 0.87946(14) 0.2166(2) 0.7947(3)
O4_2 O 0.9045(2) 0.1942(3) 0.8937(3)
C5_2 C 0.9133(2) 0.2059(3) 0.8353(4)
C6_2 C 0.9750(2) 0.2148(3) 0.7455(4)
H4_2 H 0.9476 0.2150 0.7170
C11_2 C 0.9662(3) 0.2108(4) 0.8111(4)
O7_2 O 0.86946(19) 0.2201(2) 0.3596(3)
O8_2 O 0.8991(2) 0.2061(3) 0.2602(4)
C25_2 C 0.9051(3) 0.2183(3) 0.3189(5)
C26_2 C 0.9573(3) 0.2308(4) 0.3453(5)
C28_2 C 0.9668(3) 0.2304(4) 0.4102(4)
H13_2 H 0.9400 0.2258 0.4391
C31_2 C 0.9941(3) 0.2424(5) 0.3023(5)
H14_2 H 0.9872 0.2444 0.2575
H15_2 H 0.9874 0.1629 0.5162
H17_2 H 0.9881 0.1577 0.6299
C56_4 C 0.7815(4) 0.0227(3) 0.2812(4)
C57_4 C 0.7907(6) 0.0060(3) 0.1451(5)
H30_4 H 0.7941 0.0010 0.1000
C58_4 C 0.7783(4) 0.0270(3) 0.3538(4)
C59_4 C 0.7377(5) 0.0486(4) 0.4568(5)
H31_4 H 0.7125 0.0667 0.4780
C60_4 C 0.7822(5) 0.0630(3) 0.2383(5)
C61_4 C 0.7411(5) 0.0506(4) 0.3858(6)
H32_4 H 0.7172 0.0685 0.3620
C62_4 C 0.7637(4) 0.0141(3) 0.5639(4)
C65_4 C 0.7518(4) 0.0529(3) 0.6079(4)
C67_4 C 0.7684(4) 0.0224(3) 0.4915(4)
O21_4 O 0.7806(3) 0.1326(2) 0.5711(4)
C68_4 C 0.7459(4) 0.1067(3) 0.5867(4)
C70_4 C 0.8115(6) 0.0018(4) 0.4590(6)
C71_4 C 0.7487(6) 0.0417(3) 0.6749(5)
H36_4 H 0.7405 0.0670 0.7046
C72_4 C 0.8151(6) 0.0032(5) 0.3910(6)
C73_4 C 0.7870(7) 0.0540(3) 0.1720(6)
H38_4 H 0.7877 0.0814 0.1435
O23_2 O 0.8057(3) 0.1335(2) 0.2967(4)
O24_4 O 0.7385(6) 0.1435(4) 0.2415(9)
C74_4 C 0.7778(8) 0.1172(4) 0.2615(6)
O17_4 O 0.7834(2) 0.87946(14) 0.2053(3)
O18_4 O 0.8058(3) 0.9045(2) 0.1063(3)
C53_4 C 0.7941(3) 0.9133(2) 0.1647(4)
C54_4 C 0.7852(3) 0.9750(2) 0.2545(4)
H29_4 H 0.7850 0.9476 0.2830
C55_4 C 0.7892(4) 0.9662(3) 0.1889(4)
O19_4 O 0.7799(2) 0.86946(19) 0.6404(3)
O20_4 O 0.7939(3) 0.8991(2) 0.7398(4)
C63_4 C 0.7817(3) 0.9051(3) 0.6811(5)
C64_4 C 0.7692(4) 0.9573(3) 0.6547(5)
C66_4 C 0.7696(4) 0.9668(3) 0.5898(4)
H33_4 H 0.7742 0.9400 0.5609
C69_4 C 0.7576(5) 0.9941(3) 0.6977(5)
H34_4 H 0.7556 0.9872 0.7425
H35_4 H 0.8371 0.9874 0.4838
H37_4 H 0.8423 0.9881 0.3701
O31_3 O 0.8665(2) 0.8057(3) 0.7033(4)
O17_5 O 0.2166(2) 0.12054(14) 0.2053(3)
O18_5 O 0.1942(3) 0.0955(2) 0.1063(3)
C53_5 C 0.2059(3) 0.0867(2) 0.1647(4)
C54_5 C 0.2148(3) 0.0250(2) 0.2545(4)
H29_5 H 0.2150 0.0524 0.2830
C55_5 C 0.2108(4) 0.0338(3) 0.1889(4)
O19_5 O 0.2201(2) 0.13054(19) 0.6404(3)
O20_5 O 0.2061(3) 0.1009(2) 0.7398(4)
C63_5 C 0.2183(3) 0.0949(3) 0.6811(5)
C64_5 C 0.2308(4) 0.0427(3) 0.6547(5)
C66_5 C 0.2304(4) 0.0332(3) 0.5898(4)
H33_5 H 0.2258 0.0600 0.5609
C69_5 C 0.2424(5) 0.0059(3) 0.6977(5)
H34_5 H 0.2444 0.0128 0.7425
H35_5 H 0.1629 0.0126 0.4838
H37_5 H 0.1577 0.0119 0.3701
O2_3 O 0.12054(14) 0.7834(2) 0.7947(3)
O4_3 O 0.0955(2) 0.8058(3) 0.8937(3)
C5_3 C 0.0867(2) 0.7941(3) 0.8353(4)
C6_3 C 0.0250(2) 0.7852(3) 0.7455(4)
H4_3 H 0.0524 0.7850 0.7170
C11_3 C 0.0338(3) 0.7892(4) 0.8111(4)
O7_3 O 0.13054(19) 0.7799(2) 0.3596(3)
O8_3 O 0.1009(2) 0.7939(3) 0.2602(4)
C25_3 C 0.0949(3) 0.7817(3) 0.3189(5)
C26_3 C 0.0427(3) 0.7692(4) 0.3453(5)
C28_3 C 0.0332(3) 0.7696(4) 0.4102(4)
H13_3 H 0.0600 0.7742 0.4391
C31_3 C 0.0059(3) 0.7576(5) 0.3023(5)
H14_3 H 0.0128 0.7556 0.2575
H15_3 H 0.0126 0.8371 0.5162
H17_3 H 0.0119 0.8423 0.6299
C56_5 C 0.2185(4) 0.9773(3) 0.2812(4)
C57_5 C 0.2093(6) 0.9940(3) 0.1451(5)
H30_5 H 0.2059 0.9990 0.1000
C58_5 C 0.2217(4) 0.9730(3) 0.3538(4)
C59_5 C 0.2623(5) 0.9514(4) 0.4568(5)
H31_5 H 0.2875 0.9333 0.4780
C60_5 C 0.2178(5) 0.9370(3) 0.2383(5)
C61_5 C 0.2589(5) 0.9494(4) 0.3858(6)
H32_5 H 0.2828 0.9315 0.3620
C62_5 C 0.2363(4) 0.9859(3) 0.5639(4)
C65_5 C 0.2482(4) 0.9471(3) 0.6079(4)
C67_5 C 0.2316(4) 0.9776(3) 0.4915(4)
O21_5 O 0.2194(3) 0.8674(2) 0.5711(4)
C68_5 C 0.2541(4) 0.8933(3) 0.5867(4)
C70_5 C 0.1885(6) 0.9982(4) 0.4590(6)
C71_5 C 0.2513(6) 0.9583(3) 0.6749(5)
H36_5 H 0.2595 0.9330 0.7046
C72_5 C 0.1849(6) 0.9968(5) 0.3910(6)
C73_5 C 0.2130(7) 0.9460(3) 0.1720(6)
H38_5 H 0.2123 0.9186 0.1435
O23_3 O 0.1943(3) 0.8665(2) 0.2967(4)
O24_5 O 0.2615(6) 0.8565(4) 0.2415(9)
C74_5 C 0.2222(8) 0.8828(4) 0.2615(6)
C13_3 C 0.9773(3) 0.7815(4) 0.7188(4)
C14_3 C 0.9940(3) 0.7907(6) 0.8549(5)
H8_3 H 0.9990 0.7941 0.9000
C18_3 C 0.9730(3) 0.7783(4) 0.6462(4)
C19_3 C 0.9514(4) 0.7377(5) 0.5432(5)
H11_3 H 0.9333 0.7125 0.5220
C21_3 C 0.9370(3) 0.7822(5) 0.7617(5)
C23_3 C 0.9494(4) 0.7411(5) 0.6142(6)
H12_3 H 0.9315 0.7172 0.6380
C24_3 C 0.9859(3) 0.7637(4) 0.4361(4)
C27_3 C 0.9471(3) 0.7518(4) 0.3921(4)
C29_3 C 0.9776(3) 0.7684(4) 0.5085(4)
O9_3 O 0.8674(2) 0.7806(3) 0.4289(4)
C30_3 C 0.8933(3) 0.7459(4) 0.4133(4)
C32_3 C 0.9982(4) 0.8115(6) 0.5410(6)
C33_3 C 0.9583(3) 0.7487(6) 0.3251(5)
H16_3 H 0.9330 0.7405 0.2954
C34_3 C 0.9968(5) 0.8151(6) 0.6090(6)
C35_3 C 0.9460(3) 0.7870(7) 0.8280(6)
H18_3 H 0.9186 0.7877 0.8565
O12_3 O 0.8565(4) 0.7385(6) 0.7585(9)
C36_3 C 0.8828(4) 0.7778(8) 0.7385(6)
loop_
_geom_bond_atom_site_label_1
_geom_bond_atom_site_label_2
_geom_bond_site_symmetry_1
_geom_bond_site_symmetry_2
Zn1 N3 1_555 1_555
Zn3 N2 1_555 1_555
Zn4 N5 1_555 1_555
N1 C1 1_555 1_555
N2 C4 1_555 1_555
N3 C1 1_555 1_555
N4 Zn1 1_555 1_555
N5 C4 1_555 1_555
O2 Zn1 1_555 1_555
N6 Zn3 1_555 1_555
C1 H1 1_555 1_555
C3 N4 1_555 1_555
H2 C3 1_555 1_555
C4 H3 1_555 1_555
O4 C5 1_555 1_555
C5 O2 1_555 1_555
C6 H4 1_555 1_555
C11 C5 1_555 1_555
C13 C6 1_555 1_555
C14 C11 1_555 1_555
H8 C14 1_555 1_555
C18 C13 1_555 1_555
C19 H11 1_555 1_555
C21 C13 1_555 1_555
C23 C18 1_555 1_555
H12 C23 1_555 1_555
O7 Zn4 1_555 1_555
O8 C25 1_555 1_555
C24 C27 1_555 1_555
C25 O7 1_555 1_555
C26 C25 1_555 1_555
C27 C30 1_555 1_555
C28 C24 1_555 1_555
H13 C28 1_555 1_555
C29 C19 1_555 1_555
O9 C30 1_555 1_555
C30 O10 1_555 1_555
C31 C26 1_555 1_555
H14 C31 1_555 1_555
C32 C29 1_555 1_555
H15 C32 1_555 1_555
C33 C27 1_555 1_555
H16 C33 1_555 1_555
C34 C18 1_555 1_555
H17 C34 1_555 1_555
C35 C14 1_555 1_555
H18 C35 1_555 1_555
O10 Zn12 1_555 1_555
O11 C36 1_555 1_555
O12 C36 1_555 1_555
C36 C21 1_555 1_555
N7 Zn4 1_555 1_555
C37 N7 1_555 1_555
H19 C37 1_555 1_555
N8 C37 1_555 1_555
N9 N3 1_555 1_555
C38 N1 1_555 1_555
H20 C38 1_555 1_555
N10 N5 1_555 1_555
C39 N2 1_555 1_555
H21 C39 1_555 1_555
N11 N4 1_555 1_555
C40 N6 1_555 1_555
H22 C40 1_555 1_555
N12 N7 1_555 1_555
C52 N8 1_555 1_555
H28 C52 1_555 1_555
Zn5 O17 1_555 1_555
Zn6 O19 1_555 1_555
O17 C53 1_555 1_555
O18 C53 1_555 1_555
C53 C55 1_555 1_555
C54 H29 1_555 1_555
C55 C54 1_555 1_555
C56 C54 1_555 1_555
C57 C55 1_555 1_555
H30 C57 1_555 1_555
C58 C56 1_555 1_555
C59 H31 1_555 1_555
C60 C56 1_555 1_555
C61 C58 1_555 1_555
H32 C61 1_555 1_555
O19 C63 1_555 1_555
O20 C63 1_555 1_555
C62 C65 1_555 1_555
C63 C64 1_555 1_555
C64 C66 1_555 1_555
C65 C68 1_555 1_555
C66 C62 1_555 1_555
H33 C66 1_555 1_555
C67 C59 1_555 1_555
O21 C68 1_555 1_555
C68 O22 1_555 1_555
C69 C64 1_555 1_555
H34 C69 1_555 1_555
C70 C67 1_555 1_555
H35 C70 1_555 1_555
C71 C65 1_555 1_555
H36 C71 1_555 1_555
C72 C58 1_555 1_555
H37 C72 1_555 1_555
C73 C57 1_555 1_555
H38 C73 1_555 1_555
O22 Zn3 1_555 1_555
O23 Zn4 1_555 1_555
O24 C74 1_555 1_555
C74 C60 1_555 1_555
Zn9 N9 1_555 1_555
Zn10 N8 1_555 1_555
Zn13 O11 1_555 1_555
Zn14 N10 1_555 1_555
N13 Zn5 1_555 1_555
N14 Zn5 1_555 1_555
N15 Zn6 1_555 1_555
O26 Zn1 1_555 1_555
O27 Zn5 1_555 1_555
O28 Zn1 1_555 1_555
O29 Zn5 1_555 1_555
O30 Zn3 1_555 1_555
O31 Zn6 1_555 1_555
N16 Zn6 1_555 1_555
N6 C3 1_555 1_555
C6 C11 1_555 1_555
C19 C23 1_555 1_555
C21 C35 1_555 1_555
C24 C29 1_555 1_555
C26 C28 1_555 1_555
C31 C33 1_555 1_555
C32 C34 1_555 1_555
N9 C38 1_555 1_555
N10 C39 1_555 1_555
N11 C40 1_555 1_555
N11 Zn9 1_555 1_555
N12 C52 1_555 1_555
N12 Zn14 1_555 1_555
C59 C61 1_555 1_555
C60 C73 1_555 1_555
C62 C67 1_555 1_555
C69 C71 1_555 1_555
C70 C72 1_555 1_555
O23 C74 1_555 1_555
O1 C2 1_555 1_555
O3 Zn10 1_555 1_555
C2 O3 1_555 1_555
C7 H5 1_555 1_555
C8 C2 1_555 1_555
C9 C7 1_555 1_555
H6 C9 1_555 1_555
C10 C8 1_555 1_555
H7 C10 1_555 1_555
C12 C10 1_555 1_555
C15 H9 1_555 1_555
C16 C12 1_555 1_555
C17 C16 1_555 1_555
H10 C17 1_555 1_555
C20 C9 1_555 1_555
O5 C22 1_555 1_555
C22 C20 1_555 1_555
O6 C22 1_555 1_555
H24 C44 1_555 1_555
H25 C45 1_555 1_555
C46 C45 1_555 1_555
C47 C15 1_555 1_555
H26 C47 1_555 1_555
C48 C46 1_555 1_555
C49 C17 1_555 1_555
H27 C49 1_555 1_555
C50 C44 1_555 1_555
O15 C51 1_555 1_555
C51 C50 1_555 1_555
O16 C51 1_555 1_555
Zn7 O5 1_555 1_555
Zn8 O15 1_555 1_555
O25 Zn10 1_555 1_555
C7 C8 1_555 1_555
C12 C20 1_555 1_555
C15 C16 1_555 1_555
O6 Zn7 1_555 1_555
C46 C50 1_555 1_555
C47 C48 1_555 1_555
C48 C49 1_555 1_555
O16 Zn8 1_555 1_555
O13 C41 1_555 1_555
O14 C41 1_555 1_555
C41 C43 1_555 1_555
C42 H23 1_555 1_555
C43 C42 1_555 1_555
Zn11 O14 1_555 1_555
O1_2 C2_2 1_555 1_555
O3_2 Zn2 1_555 1_555
C2_2 O3_2 1_555 1_555
C7_2 H5_2 1_555 1_555
C8_2 C2_2 1_555 1_555
C9_2 C7_2 1_555 1_555
H6_2 C9_2 1_555 1_555
C10_2 C8_2 1_555 1_555
H7_2 C10_2 1_555 1_555
C12_2 C10_2 1_555 1_555
C15_2 H9_2 1_555 1_555
C16_2 C12_2 1_555 1_555
C17_2 C16_2 1_555 1_555
H10_2 C17_2 1_555 1_555
C20_2 C9_2 1_555 1_555
O26 C22_2 1_555 1_555
C22_2 C20_2 1_555 1_555
O28 C22_2 1_555 1_555
H24_2 C44_2 1_555 1_555
H25_2 C45_2 1_555 1_555
C46_2 C45_2 1_555 1_555
C47_2 C15_2 1_555 1_555
H26_2 C47_2 1_555 1_555
C48_2 C46_2 1_555 1_555
C49_2 C17_2 1_555 1_555
H27_2 C49_2 1_555 1_555
C50_2 C44_2 1_555 1_555
O15_2 C51_2 1_555 1_555
C51_2 C50_2 1_555 1_555
O16_2 C51_2 1_555 1_555
Zn9 O15_2 1_555 1_555
O25_2 Zn2 1_555 1_555
N17 Zn2 1_555 1_555
C7_2 C8_2 1_555 1_555
C12_2 C20_2 1_555 1_555
C15_2 C16_2 1_555 1_555
C46_2 C50_2 1_555 1_555
C47_2 C48_2 1_555 1_555
C48_2 C49_2 1_555 1_555
O16_2 Zn9 1_555 1_555
Zn3_2 N2_2 1_555 1_555
N1_2 C1_2 1_555 1_555
N2_2 C4_2 1_555 1_555
N13 C1_2 1_555 1_555
N15 C4_2 1_555 1_555
N6_2 Zn3_2 1_555 1_555
C1_2 H1_2 1_555 1_555
C3_2 N14 1_555 1_555
H2_2 C3_2 1_555 1_555
C4_2 H3_2 1_555 1_555
C37_2 N16 1_555 1_555
H19_2 C37_2 1_555 1_555
N17 C37_2 1_555 1_555
N9_2 N13 1_555 1_555
C38_2 N1_2 1_555 1_555
H20_2 C38_2 1_555 1_555
N10_2 N15 1_555 1_555
C39_2 N2_2 1_555 1_555
H21_2 C39_2 1_555 1_555
N11_2 N14 1_555 1_555
C40_2 N6_2 1_555 1_555
H22_2 C40_2 1_555 1_555
N12_2 N16 1_555 1_555
C52_2 N17 1_555 1_555
H28_2 C52_2 1_555 1_555
Zn5_2 O17_2 1_555 1_555
Zn6_2 O19_2 1_555 1_555
O17_2 C53_2 1_555 1_555
O18_2 C53_2 1_555 1_555
C53_2 C55_2 1_555 1_555
C54_2 H29_2 1_555 1_555
C55_2 C54_2 1_555 1_555
C56_2 C54_2 1_555 1_555
C57_2 C55_2 1_555 1_555
H30_2 C57_2 1_555 1_555
C58_2 C56_2 1_555 1_555
C59_2 H31_2 1_555 1_555
C60_2 C56_2 1_555 1_555
C61_2 C58_2 1_555 1_555
H32_2 C61_2 1_555 1_555
O19_2 C63_2 1_555 1_555
O20_2 C63_2 1_555 1_555
C62_2 C65_2 1_555 1_555
C63_2 C64_2 1_555 1_555
C64_2 C66_2 1_555 1_555
C65_2 C68_2 1_555 1_555
C66_2 C62_2 1_555 1_555
H33_2 C66_2 1_555 1_555
C67_2 C59_2 1_555 1_555
O21_2 C68_2 1_555 1_555
C68_2 O22_2 1_555 1_555
C69_2 C64_2 1_555 1_555
H34_2 C69_2 1_555 1_555
C70_2 C67_2 1_555 1_555
H35_2 C70_2 1_555 1_555
C71_2 C65_2 1_555 1_555
H36_2 C71_2 1_555 1_555
C72_2 C58_2 1_555 1_555
H37_2 C72_2 1_555 1_555
C73_2 C57_2 1_555 1_555
H38_2 C73_2 1_555 1_555
O22_2 Zn3_2 1_555 1_555
O24_2 C74_2 1_555 1_555
C74_2 C60_2 1_555 1_555
Zn9_2 N9_2 1_555 1_555
Zn14_2 N10_2 1_555 1_555
N13_2 Zn5_2 1_555 1_555
N14_2 Zn5_2 1_555 1_555
N15_2 Zn6_2 1_555 1_555
O27_2 Zn5_2 1_555 1_555
O29_2 Zn5_2 1_555 1_555
O30_2 Zn3_2 1_555 1_555
O31_2 Zn6_2 1_555 1_555
N16_2 Zn6_2 1_555 1_555
N6_2 C3_2 1_555 1_555
N9_2 C38_2 1_555 1_555
N10_2 C39_2 1_555 1_555
N11_2 C40_2 1_555 1_555
N11_2 Zn9_2 1_555 1_555
N12_2 C52_2 1_555 1_555
N12_2 Zn14_2 1_555 1_555
C59_2 C61_2 1_555 1_555
C60_2 C73_2 1_555 1_555
C62_2 C67_2 1_555 1_555
C69_2 C71_2 1_555 1_555
C70_2 C72_2 1_555 1_555
O31 C74_2 1_555 1_555
O13_2 C41_2 1_555 1_555
O14_2 C41_2 1_555 1_555
C41_2 C43_2 1_555 1_555
C42_2 H23_2 1_555 1_555
C43_2 C42_2 1_555 1_555
Zn11_2 O14_2 1_555 1_555
O13_3 C41_3 1_555 1_555
O25 C41_3 1_555 1_555
C41_3 C43_3 1_555 1_555
C42_3 H23_3 1_555 1_555
C43_3 C42_3 1_555 1_555
Zn3_3 N2_3 1_555 1_555
N1_3 C1_3 1_555 1_555
N2_3 C4_3 1_555 1_555
N13_2 C1_3 1_555 1_555
N15_2 C4_3 1_555 1_555
N6_3 Zn3_3 1_555 1_555
C1_3 H1_3 1_555 1_555
C3_3 N14_2 1_555 1_555
H2_3 C3_3 1_555 1_555
C4_3 H3_3 1_555 1_555
C37_3 N16_2 1_555 1_555
H19_3 C37_3 1_555 1_555
N8_2 C37_3 1_555 1_555
N9_3 N13_2 1_555 1_555
C38_3 N1_3 1_555 1_555
H20_3 C38_3 1_555 1_555
N10_3 N15_2 1_555 1_555
C39_3 N2_3 1_555 1_555
H21_3 C39_3 1_555 1_555
N11_3 N14_2 1_555 1_555
C40_3 N6_3 1_555 1_555
H22_3 C40_3 1_555 1_555
N12_3 N16_2 1_555 1_555
C52_3 N8_2 1_555 1_555
H28_3 C52_3 1_555 1_555
Zn7 O17_3 1_555 1_555
Zn13 O19_3 1_555 1_555
O17_3 C53_3 1_555 1_555
O18_3 C53_3 1_555 1_555
C53_3 C55_3 1_555 1_555
C54_3 H29_3 1_555 1_555
C55_3 C54_3 1_555 1_555
C56_3 C54_3 1_555 1_555
C57_3 C55_3 1_555 1_555
H30_3 C57_3 1_555 1_555
C58_3 C56_3 1_555 1_555
C59_3 H31_3 1_555 1_555
C60_3 C56_3 1_555 1_555
C61_3 C58_3 1_555 1_555
H32_3 C61_3 1_555 1_555
O19_3 C63_3 1_555 1_555
O20_3 C63_3 1_555 1_555
C62_3 C65_3 1_555 1_555
C63_3 C64_3 1_555 1_555
C64_3 C66_3 1_555 1_555
C65_3 C68_3 1_555 1_555
C66_3 C62_3 1_555 1_555
H33_3 C66_3 1_555 1_555
C67_3 C59_3 1_555 1_555
O21_3 C68_3 1_555 1_555
C68_3 O22_3 1_555 1_555
C69_3 C64_3 1_555 1_555
H34_3 C69_3 1_555 1_555
C70_3 C67_3 1_555 1_555
H35_3 C70_3 1_555 1_555
C71_3 C65_3 1_555 1_555
H36_3 C71_3 1_555 1_555
C72_3 C58_3 1_555 1_555
H37_3 C72_3 1_555 1_555
C73_3 C57_3 1_555 1_555
H38_3 C73_3 1_555 1_555
O22_3 Zn3_3 1_555 1_555
O24_3 C74_3 1_555 1_555
C74_3 C60_3 1_555 1_555
Zn9_3 N9_3 1_555 1_555
Zn11 N8_2 1_555 1_555
Zn14_3 N10_3 1_555 1_555
N13_3 Zn7 1_555 1_555
N14_3 Zn7 1_555 1_555
N15_3 Zn13 1_555 1_555
O30_3 Zn3_3 1_555 1_555
N16_3 Zn13 1_555 1_555
N6_3 C3_3 1_555 1_555
N9_3 C38_3 1_555 1_555
N10_3 C39_3 1_555 1_555
N11_3 C40_3 1_555 1_555
N11_3 Zn9_3 1_555 1_555
N12_3 C52_3 1_555 1_555
N12_3 Zn14_3 1_555 1_555
C59_3 C61_3 1_555 1_555
C60_3 C73_3 1_555 1_555
C62_3 C67_3 1_555 1_555
C69_3 C71_3 1_555 1_555
C70_3 C72_3 1_555 1_555
O31_2 C74_3 1_555 1_555
O1_3 C2_3 1_555 1_555
O3_3 Zn11 1_555 1_555
C2_3 O3_3 1_555 1_555
C7_3 H5_3 1_555 1_555
C8_3 C2_3 1_555 1_555
C9_3 C7_3 1_555 1_555
H6_3 C9_3 1_555 1_555
C10_3 C8_3 1_555 1_555
H7_3 C10_3 1_555 1_555
C12_3 C10_3 1_555 1_555
C15_3 H9_3 1_555 1_555
C16_3 C12_3 1_555 1_555
C17_3 C16_3 1_555 1_555
H10_3 C17_3 1_555 1_555
C20_3 C9_3 1_555 1_555
O27 C22_3 1_555 1_555
C22_3 C20_3 1_555 1_555
O29 C22_3 1_555 1_555
H24_3 C44_3 1_555 1_555
H25_3 C45_3 1_555 1_555
C46_3 C45_3 1_555 1_555
C47_3 C15_3 1_555 1_555
H26_3 C47_3 1_555 1_555
C48_3 C46_3 1_555 1_555
C49_3 C17_3 1_555 1_555
H27_3 C49_3 1_555 1_555
C50_3 C44_3 1_555 1_555
O15_3 C51_3 1_555 1_555
C51_3 C50_3 1_555 1_555
O16_3 C51_3 1_555 1_555
Zn9_2 O15_3 1_555 1_555
C7_3 C8_3 1_555 1_555
C12_3 C20_3 1_555 1_555
C15_3 C16_3 1_555 1_555
C46_3 C50_3 1_555 1_555
C47_3 C48_3 1_555 1_555
C48_3 C49_3 1_555 1_555
O16_3 Zn9_2 1_555 1_555
O13_4 C41_4 1_555 1_555
O25_2 C41_4 1_555 1_555
C41_4 C43_4 1_555 1_555
C42_4 H23_4 1_555 1_555
C43_4 C42_4 1_555 1_555
O1_4 C2_4 1_555 1_555
O3_4 Zn11_2 1_555 1_555
C2_4 O3_4 1_555 1_555
C7_4 H5_4 1_555 1_555
C8_4 C2_4 1_555 1_555
C9_4 C7_4 1_555 1_555
H6_4 C9_4 1_555 1_555
C10_4 C8_4 1_555 1_555
H7_4 C10_4 1_555 1_555
C12_4 C10_4 1_555 1_555
C15_4 H9_4 1_555 1_555
C16_4 C12_4 1_555 1_555
C17_4 C16_4 1_555 1_555
H10_4 C17_4 1_555 1_555
C20_4 C9_4 1_555 1_555
O27_2 C22_4 1_555 1_555
C22_4 C20_4 1_555 1_555
O29_2 C22_4 1_555 1_555
H24_4 C44_4 1_555 1_555
H25_4 C45_4 1_555 1_555
C46_4 C45_4 1_555 1_555
C47_4 C15_4 1_555 1_555
H26_4 C47_4 1_555 1_555
C48_4 C46_4 1_555 1_555
C49_4 C17_4 1_555 1_555
H27_4 C49_4 1_555 1_555
C50_4 C44_4 1_555 1_555
O15_4 C51_4 1_555 1_555
C51_4 C50_4 1_555 1_555
O16_4 C51_4 1_555 1_555
Zn9_3 O15_4 1_555 1_555
N17_2 Zn11_2 1_555 1_555
C7_4 C8_4 1_555 1_555
C12_4 C20_4 1_555 1_555
C15_4 C16_4 1_555 1_555
C46_4 C50_4 1_555 1_555
C47_4 C48_4 1_555 1_555
C48_4 C49_4 1_555 1_555
O16_4 Zn9_3 1_555 1_555
Zn12 N2_4 1_555 1_555
N1_4 C1_4 1_555 1_555
N2_4 C4_4 1_555 1_555
N13_3 C1_4 1_555 1_555
N15_3 C4_4 1_555 1_555
N6_4 Zn12 1_555 1_555
C1_4 H1_4 1_555 1_555
C3_4 N14_3 1_555 1_555
H2_4 C3_4 1_555 1_555
C4_4 H3_4 1_555 1_555
C37_4 N16_3 1_555 1_555
H19_4 C37_4 1_555 1_555
N17_2 C37_4 1_555 1_555
N9_4 N13_3 1_555 1_555
C38_4 N1_4 1_555 1_555
H20_4 C38_4 1_555 1_555
N10_4 N15_3 1_555 1_555
C39_4 N2_4 1_555 1_555
H21_4 C39_4 1_555 1_555
N11_4 N14_3 1_555 1_555
C40_4 N6_4 1_555 1_555
H22_4 C40_4 1_555 1_555
N12_4 N16_3 1_555 1_555
C52_4 N17_2 1_555 1_555
H28_4 C52_4 1_555 1_555
Zn8 N9_4 1_555 1_555
Zn14_4 N10_4 1_555 1_555
O30_4 Zn12 1_555 1_555
N6_4 C3_4 1_555 1_555
N9_4 C38_4 1_555 1_555
N10_4 C39_4 1_555 1_555
N11_4 C40_4 1_555 1_555
N11_4 Zn8 1_555 1_555
N12_4 C52_4 1_555 1_555
N12_4 Zn14_4 1_555 1_555
H8_2 C14_2 1_555 1_555
C18_2 C13_2 1_555 1_555
C19_2 H11_2 1_555 1_555
C21_2 C13_2 1_555 1_555
C23_2 C18_2 1_555 1_555
H12_2 C23_2 1_555 1_555
C24_2 C27_2 1_555 1_555
C27_2 C30_2 1_555 1_555
C29_2 C19_2 1_555 1_555
O9_2 C30_2 1_555 1_555
C30_2 O30 1_555 1_555
C32_2 C29_2 1_555 1_555
C33_2 C27_2 1_555 1_555
H16_2 C33_2 1_555 1_555
C34_2 C18_2 1_555 1_555
C35_2 C14_2 1_555 1_555
H18_2 C35_2 1_555 1_555
O11_2 C36_2 1_555 1_555
O12_2 C36_2 1_555 1_555
C36_2 C21_2 1_555 1_555
Zn14 O11_2 1_555 1_555
C19_2 C23_2 1_555 1_555
C21_2 C35_2 1_555 1_555
C24_2 C29_2 1_555 1_555
C32_2 C34_2 1_555 1_555
O2_2 Zn8 1_555 1_555
O4_2 C5_2 1_555 1_555
C5_2 O2_2 1_555 1_555
C6_2 H4_2 1_555 1_555
C11_2 C5_2 1_555 1_555
O7_2 Zn14_4 1_555 1_555
O8_2 C25_2 1_555 1_555
C25_2 O7_2 1_555 1_555
C26_2 C25_2 1_555 1_555
H13_2 C28_2 1_555 1_555
C31_2 C26_2 1_555 1_555
H14_2 C31_2 1_555 1_555
H30_4 C57_4 1_555 1_555
C58_4 C56_4 1_555 1_555
C59_4 H31_4 1_555 1_555
C60_4 C56_4 1_555 1_555
C61_4 C58_4 1_555 1_555
H32_4 C61_4 1_555 1_555
C62_4 C65_4 1_555 1_555
C65_4 C68_4 1_555 1_555
C67_4 C59_4 1_555 1_555
O21_4 C68_4 1_555 1_555
C68_4 O30_4 1_555 1_555
C70_4 C67_4 1_555 1_555
C71_4 C65_4 1_555 1_555
H36_4 C71_4 1_555 1_555
C72_4 C58_4 1_555 1_555
C73_4 C57_4 1_555 1_555
H38_4 C73_4 1_555 1_555
O23_2 Zn14_4 1_555 1_555
O24_4 C74_4 1_555 1_555
C74_4 C60_4 1_555 1_555
C6_2 C11_2 1_555 1_555
C26_2 C28_2 1_555 1_555
C59_4 C61_4 1_555 1_555
C60_4 C73_4 1_555 1_555
C62_4 C67_4 1_555 1_555
C70_4 C72_4 1_555 1_555
O23_2 C74_4 1_555 1_555
Zn9_3 O17_4 1_555 1_555
Zn14_3 O19_4 1_555 1_555
O17_4 C53_4 1_555 1_555
O18_4 C53_4 1_555 1_555
C53_4 C55_4 1_555 1_555
C54_4 H29_4 1_555 1_555
C55_4 C54_4 1_555 1_555
O19_4 C63_4 1_555 1_555
O20_4 C63_4 1_555 1_555
C63_4 C64_4 1_555 1_555
C64_4 C66_4 1_555 1_555
H33_4 C66_4 1_555 1_555
C69_4 C64_4 1_555 1_555
H34_4 C69_4 1_555 1_555
O31_3 Zn14_3 1_555 1_555
Zn9 O17_5 1_555 1_555
Zn14 O19_5 1_555 1_555
O17_5 C53_5 1_555 1_555
O18_5 C53_5 1_555 1_555
C53_5 C55_5 1_555 1_555
C54_5 H29_5 1_555 1_555
C55_5 C54_5 1_555 1_555
O19_5 C63_5 1_555 1_555
O20_5 C63_5 1_555 1_555
C63_5 C64_5 1_555 1_555
C64_5 C66_5 1_555 1_555
H33_5 C66_5 1_555 1_555
C69_5 C64_5 1_555 1_555
H34_5 C69_5 1_555 1_555
O2_3 Zn9_2 1_555 1_555
O4_3 C5_3 1_555 1_555
C5_3 O2_3 1_555 1_555
C6_3 H4_3 1_555 1_555
C11_3 C5_3 1_555 1_555
O7_3 Zn14_2 1_555 1_555
O8_3 C25_3 1_555 1_555
C25_3 O7_3 1_555 1_555
C26_3 C25_3 1_555 1_555
H13_3 C28_3 1_555 1_555
C31_3 C26_3 1_555 1_555
H14_3 C31_3 1_555 1_555
H30_5 C57_5 1_555 1_555
C58_5 C56_5 1_555 1_555
C59_5 H31_5 1_555 1_555
C60_5 C56_5 1_555 1_555
C61_5 C58_5 1_555 1_555
H32_5 C61_5 1_555 1_555
C62_5 C65_5 1_555 1_555
C65_5 C68_5 1_555 1_555
C67_5 C59_5 1_555 1_555
O21_5 C68_5 1_555 1_555
C68_5 O30_2 1_555 1_555
C70_5 C67_5 1_555 1_555
C71_5 C65_5 1_555 1_555
H36_5 C71_5 1_555 1_555
C72_5 C58_5 1_555 1_555
C73_5 C57_5 1_555 1_555
H38_5 C73_5 1_555 1_555
O23_3 Zn14_2 1_555 1_555
O24_5 C74_5 1_555 1_555
C74_5 C60_5 1_555 1_555
C6_3 C11_3 1_555 1_555
C26_3 C28_3 1_555 1_555
C59_5 C61_5 1_555 1_555
C60_5 C73_5 1_555 1_555
C62_5 C67_5 1_555 1_555
C70_5 C72_5 1_555 1_555
O23_3 C74_5 1_555 1_555
H8_3 C14_3 1_555 1_555
C18_3 C13_3 1_555 1_555
C19_3 H11_3 1_555 1_555
C21_3 C13_3 1_555 1_555
C23_3 C18_3 1_555 1_555
H12_3 C23_3 1_555 1_555
C24_3 C27_3 1_555 1_555
C27_3 C30_3 1_555 1_555
C29_3 C19_3 1_555 1_555
O9_3 C30_3 1_555 1_555
C30_3 O30_3 1_555 1_555
C32_3 C29_3 1_555 1_555
C33_3 C27_3 1_555 1_555
H16_3 C33_3 1_555 1_555
C34_3 C18_3 1_555 1_555
C35_3 C14_3 1_555 1_555
H18_3 C35_3 1_555 1_555
O31_3 C36_3 1_555 1_555
O12_3 C36_3 1_555 1_555
C36_3 C21_3 1_555 1_555
C19_3 C23_3 1_555 1_555
C21_3 C35_3 1_555 1_555
C24_3 C29_3 1_555 1_555
C32_3 C34_3 1_555 1_555

#END
