
###############################################################################
#
# This file contains modified crystal structure data generated from the
# MOF subset of the Cambridge Structural Database (CSD) v543 
# hosted by the Cambridge Crystallographic Data Centre (CCDC).
#
# This work is licensed under the Creative Commons
# Attribution-NonCommercial-ShareAlike 4.0 International License.
# To view a copy of this license, visit
# http://creativecommons.org/licenses/by-nc-sa/4.0/
# or send a letter to
# Creative Commons, PO Box 1866, Mountain View, CA 94042, USA.
#
# CIF created using the CSD Python API on 29 September 2022
# The structure has been converted into the P1 space group
# The structure has a 3D framework
# The original CSD entry KASLUO is in the monoclinic crystal system
# The framework has been calculated to contain at least 10.0% void space
# The void calculation uses a probe of radius 1.32A, grid spacing 0.4
#
###############################################################################

data_KASLUO
_chemical_formula_moiety         '(C204 H124 N12 O40 S8 Zn8)n'
_symmetry_cell_setting           triclinic
_symmetry_space_group_name_H-M   'P 1'
_symmetry_Int_Tables_number      1
_space_group_name_Hall           'P 1'
loop_
_symmetry_equiv_pos_site_id
_symmetry_equiv_pos_as_xyz
1 x,y,z
_cell_length_a                   17.164
_cell_length_b                   18.512
_cell_length_c                   24.463
_cell_angle_alpha                90
_cell_angle_beta                 120.35
_cell_angle_gamma                90
_cell_volume                     6707.64
loop_
_atom_site_label
_atom_site_type_symbol
_atom_site_fract_x
_atom_site_fract_y
_atom_site_fract_z
Zn4 Zn 0.20341(3) 0.06046(2) 0.01187(2)
Zn2 Zn 0.68812(3) 0.45479(2) 0.51184(2)
S2 S 0.46927(9) 0.11915(5) 0.52591(7)
N2 N 0.6069(2) 0.37172(13) 0.50584(13)
C7 C 0.4349(3) 0.20482(19) 0.50301(19)
C11 C 0.3488(4) 0.0173(2) 0.5242(3)
C14 C 0.3658(3) 0.0920(2) 0.5118(2)
C16 C 0.5878(3) 0.25111(17) 0.5310(2)
H8 H 0.6136 0.2068 0.5491
C25 C 0.6413(3) 0.30692(17) 0.53183(18)
H16 H 0.7033 0.2996 0.5509
C29 C 0.4611(3) 0.32796(17) 0.47633(17)
H19 H 0.3994 0.3368 0.4566
C35 C 0.5185(3) 0.38049(17) 0.47890(17)
H22 H 0.4942 0.4250 0.4607
C37 C 0.4958(3) 0.26081(18) 0.50350(18)
C49 C 0.3442(3) 0.20999(19) 0.4851(2)
H29 H 0.3112 0.2523 0.4690
H30 H 0.2124 0.0276 0.4886
C51 C 0.3069(3) 0.1481(2) 0.4930(2)
H31 H 0.2486 0.1451 0.4863
O11 O 0.81227(18) 0.41174(12) 0.56603(12)
O12 O 0.58979(16) 0.52363(11) 0.45187(11)
O13 O 0.70555(19) 0.51364(12) 0.58826(11)
O14 O 0.7041(2) 0.42624(13) 0.43603(12)
S1 S 0.14613(9) 0.80968(6) 0.52036(7)
N3 N 0.4092(3) 0.8970(2) 0.5595(3)
O3 O 0.18773(18) 0.91174(12) 0.93397(12)
O9 O 0.10578(17) 0.99095(11) 0.95162(11)
C2 C 0.3231(5) 0.8773(3) 0.5430(4)
H2 H 0.3134 0.8291 0.5484
C3 C 0.0833(4) 0.9312(2) 0.4783(3)
H3 H 0.0779 0.9798 0.4674
C4 C 0.0345(3) 0.82110(19) 0.49265(19)
C6 C 0.1609(4) 0.8958(2) 0.5044(2)
C8 C 0.2479(4) 0.9240(2) 0.5183(2)
C10 C 0.4185(4) 0.9666(2) 0.5487(3)
H5 H 0.4755 0.9822 0.5583
C20 C 0.0179(3) 0.69535(19) 0.52234(19)
H11 H 0.0801 0.6893 0.5427
C41 C 0.0446(3) 0.81747(19) 0.87538(18)
H25 H 0.1010 0.8016 0.8838
C42 C 0.0120(3) 0.88952(17) 0.4690(2)
C46 C 0.0348(2) 0.88624(17) 0.89370(15)
C48 C 0.1156(3) 0.93328(17) 0.92864(15)
C50 C 0.2605(3) 0.99538(18) 0.50695(18)
Zn7 Zn 0.31188(3) 0.95479(2) 0.98816(2)
Zn1 Zn 0.79659(3) 0.56046(2) 0.48813(2)
N1 N 0.8732(2) 0.64534(13) 0.49183(13)
O1 O 0.8123(2) 0.75157(18) 0.80127(15)
O2 O 0.7185(2) 0.24108(18) 0.22587(16)
O4 O 0.41021(16) 0.02363(11) 0.04813(11)
O6 O 0.78093(19) 0.59218(13) 0.56353(11)
O7 O 0.7859(2) 0.50096(13) 0.41412(12)
O10 O 0.32863(18) 0.10216(12) 0.06804(11)
C1 C 0.9630(3) 0.63961(19) 0.52011(18)
H1 H 0.9897 0.5960 0.5392
C5 C 0.8863(3) 0.7962(2) 0.8297(2)
C9 C 0.7632(3) 0.6406(2) 0.7467(2)
H4 H 0.7477 0.6257 0.7763
C12 C 0.7563(4) 0.3579(3) 0.2708(2)
H6 H 0.7729 0.3707 0.2413
C13 C 0.6380(3) 0.2015(2) 0.1914(2)
C15 C 0.6474(3) 0.1351(2) 0.16933(18)
H7 H 0.7039 0.1177 0.1795
C17 C 0.6975(3) 0.2707(2) 0.3131(2)
H9 H 0.6767 0.2243 0.3131
C18 C 0.7040(3) 0.32191(18) 0.35648(17)
H10 H 0.6856 0.3100 0.3851
C19 C 0.7228(3) 0.2907(2) 0.2701(2)
C21 C 0.7649(3) 0.4064(2) 0.3163(2)
H12 H 0.7904 0.4515 0.3185
C22 C 0.8079(3) 0.68501(19) 0.65927(17)
H13 H 0.8240 0.7002 0.6301
C23 C 0.9697(3) 0.7721(2) 0.8443(2)
H14 H 0.9767 0.7253 0.8335
C24 C 0.8744(3) 0.8635(2) 0.84764(19)
H15 H 0.8176 0.8791 0.8386
C26 C 0.8859(3) 0.76680(18) 0.4653(2)
H17 H 0.8577 0.8102 0.4467
C27 C 0.4798(3) 0.18842(19) 0.13892(18)
H18 H 0.4235 0.2066 0.1287
C28 C 0.8021(3) 0.7070(2) 0.75291(19)
C30 C 0.5554(3) 0.2282(2) 0.1760(2)
H20 H 0.5506 0.2733 0.1907
C31 C 0.9788(3) 0.76071(18) 0.49366(18)
C32 C 0.4858(3) 0.12127(17) 0.11628(15)
C33 C 0.7371(3) 0.38989(18) 0.35819(16)
C34 C 0.5696(3) 0.09528(19) 0.13147(17)
H21 H 0.5742 0.0504 0.1162
C36 C 0.7502(3) 0.57006(18) 0.59735(16)
C38 C 0.8230(3) 0.7293(2) 0.7086(2)
H23 H 0.8478 0.7749 0.7119
C39 C 0.7468(3) 0.5958(2) 0.69689(18)
H24 H 0.7210 0.5507 0.6933
C40 C 0.7685(2) 0.61748(17) 0.65268(15)
H26 H 0.9529 0.9064 0.4482
C43 C 0.4022(3) 0.07895(17) 0.07491(15)
C44 C 0.7427(3) 0.44315(18) 0.40677(17)
C45 C 0.9498(3) 0.90807(19) 0.87985(17)
H27 H 0.9426 0.9538 0.8924
C47 C 0.8360(3) 0.70957(16) 0.46467(18)
H28 H 0.7737 0.7147 0.4447
O15 O 0.89422(17) 0.49095(11) 0.54838(11)
O16 O 0.67137(18) 0.60216(12) 0.43196(11)
N1_2 N 0.1268(2) 0.14534(13) 0.00817(13)
O7_2 O 0.2141(2) 0.00096(13) 0.08588(12)
C26_2 C 0.1141(3) 0.26680(18) 0.0347(2)
H17_2 H 0.1423 0.3102 0.0533
C31_2 C 0.0212(3) 0.26071(18) 0.00634(18)
H26_2 H 0.0471 0.4064 0.0518
C47_2 C 0.1640(3) 0.20957(16) 0.03533(18)
H28_2 H 0.2263 0.2147 0.0553
O2_2 O 0.2815(2) 0.74108(18) 0.27413(16)
O8 O 0.2959(2) 0.92624(13) 0.06397(12)
C12_2 C 0.2437(4) 0.8579(3) 0.2292(2)
H6_2 H 0.2271 0.8707 0.2587
C13_2 C 0.3620(3) 0.7015(2) 0.3086(2)
C15_2 C 0.3526(3) 0.6351(2) 0.33067(18)
H7_2 H 0.2961 0.6177 0.3205
C17_2 C 0.3025(3) 0.7707(2) 0.1869(2)
H9_2 H 0.3233 0.7243 0.1869
C18_2 C 0.2960(3) 0.82191(18) 0.14352(17)
H10_2 H 0.3144 0.8100 0.1149
C19_2 C 0.2772(3) 0.7907(2) 0.2299(2)
C21_2 C 0.2351(3) 0.9064(2) 0.1837(2)
H12_2 H 0.2096 0.9515 0.1815
C27_2 C 0.5202(3) 0.68842(19) 0.36108(18)
H18_2 H 0.5765 0.7066 0.3713
C30_2 C 0.4446(3) 0.7282(2) 0.3240(2)
H20_2 H 0.4494 0.7733 0.3093
C32_2 C 0.5142(3) 0.62127(17) 0.38372(15)
C33_2 C 0.2629(3) 0.88989(18) 0.14181(16)
C34_2 C 0.4304(3) 0.59528(19) 0.36853(17)
H21_2 H 0.4258 0.5504 0.3838
C43_2 C 0.5978(3) 0.57895(17) 0.42509(15)
C44_2 C 0.2573(3) 0.94315(18) 0.09323(17)
C3_2 C 0.9167(4) 0.4312(2) 0.0217(3)
H3_2 H 0.9221 0.4798 0.0326
C4_2 C 0.9655(3) 0.32110(19) 0.00735(19)
C29_2 C 0.5389(3) 0.82796(17) 0.02367(17)
H19_2 H 0.6006 0.8368 0.0434
C35_2 C 0.4815(3) 0.88049(17) 0.02110(17)
H22_2 H 0.5058 0.9250 0.0393
C42_2 C 0.9880(3) 0.38952(17) 0.0310(2)
C49_2 C 0.6558(3) 0.70999(19) 0.0149(2)
H29_2 H 0.6888 0.7523 0.0310
H30_2 H 0.7876 0.5276 0.0114
C51_2 C 0.6931(3) 0.6481(2) 0.0070(2)
H31_2 H 0.7514 0.6451 0.0137
S1_2 S 0.85387(9) 0.30968(6) 0.97964(7)
S2_2 S 0.53073(9) 0.61915(5) 0.97409(7)
N2_2 N 0.3931(2) 0.87172(13) 0.99416(13)
N3_2 N 0.5908(3) 0.3970(2) 0.9405(3)
C2_2 C 0.6769(5) 0.3773(3) 0.9570(4)
H2_2 H 0.6866 0.3291 0.9516
C6_2 C 0.8391(4) 0.3958(2) 0.9956(2)
C7_2 C 0.5651(3) 0.70482(19) 0.99699(19)
C8_2 C 0.7521(4) 0.4240(2) 0.9817(2)
C10_2 C 0.5815(4) 0.4666(2) 0.9513(3)
H5_2 H 0.5245 0.4822 0.9417
C11_2 C 0.6512(4) 0.5173(2) 0.9758(3)
C14_2 C 0.6342(3) 0.5920(2) 0.9882(2)
C16_2 C 0.4122(3) 0.75111(17) 0.9690(2)
H8_2 H 0.3864 0.7068 0.9509
C20_2 C 0.9821(3) 0.19535(19) 0.97766(19)
H11_2 H 0.9199 0.1893 0.9573
C25_2 C 0.3587(3) 0.80692(17) 0.96817(18)
H16_2 H 0.2967 0.7996 0.9491
C37_2 C 0.5042(3) 0.76081(18) 0.99650(18)
C41_2 C 0.9554(3) 0.31747(19) 0.62462(18)
H25_2 H 0.8990 0.3016 0.6162
C46_2 C 0.9652(2) 0.38624(17) 0.60630(15)
C48_2 C 0.8844(3) 0.43328(17) 0.57136(15)
C50_2 C 0.7395(3) 0.49538(18) 0.99305(18)
O1_2 O 0.1877(2) 0.25157(18) 0.69873(15)
O5 O 0.29445(19) 0.01364(12) 0.91174(11)
O6_2 O 0.21907(19) 0.09218(13) 0.93647(11)
C1_2 C 0.0370(3) 0.13961(19) 0.97989(18)
H1_2 H 0.0103 0.0960 0.9608
C5_2 C 0.1137(3) 0.2962(2) 0.6703(2)
C9_2 C 0.2368(3) 0.1406(2) 0.7533(2)
H4_2 H 0.2523 0.1257 0.7237
C22_2 C 0.1921(3) 0.18501(19) 0.84073(17)
H13_2 H 0.1760 0.2002 0.8699
C23_2 C 0.0303(3) 0.2721(2) 0.6557(2)
H14_2 H 0.0233 0.2253 0.6665
C24_2 C 0.1256(3) 0.3635(2) 0.65236(19)
H15_2 H 0.1824 0.3791 0.6614
C28_2 C 0.1979(3) 0.2070(2) 0.74709(19)
C36_2 C 0.2498(3) 0.07006(18) 0.90265(16)
C38_2 C 0.1770(3) 0.2293(2) 0.7914(2)
H23_2 H 0.1522 0.2749 0.7881
C39_2 C 0.2532(3) 0.0958(2) 0.80311(18)
H24_2 H 0.2790 0.0507 0.8067
C40_2 C 0.2315(2) 0.11748(17) 0.84732(15)
C45_2 C 0.0502(3) 0.40807(19) 0.62015(17)
H27_2 H 0.0574 0.4538 0.6076
Zn6 Zn 0.68812(3) 0.04521(2) 0.01184(2)
Zn1_2 Zn 0.20341(3) 0.43954(2) 0.51187(2)
N1_3 N 0.1268(2) 0.35466(13) 0.50817(13)
O1_3 O 0.1877(2) 0.24843(18) 0.19873(15)
O2_3 O 0.2815(2) 0.75892(18) 0.77413(16)
O4_2 O 0.58979(16) 0.97637(11) 0.95187(11)
O5_2 O 0.29445(19) 0.48636(12) 0.41174(11)
O6_3 O 0.21907(19) 0.40782(13) 0.43647(11)
O7_3 O 0.2141(2) 0.49904(13) 0.58588(12)
O8_2 O 0.2959(2) 0.57376(13) 0.56397(12)
O10_2 O 0.67137(18) 0.89784(12) 0.93196(11)
C1_3 C 0.0370(3) 0.36039(19) 0.47989(18)
H1_3 H 0.0103 0.4040 0.4608
C5_3 C 0.1137(3) 0.2038(2) 0.1703(2)
C9_3 C 0.2368(3) 0.3594(2) 0.2533(2)
H4_3 H 0.2523 0.3743 0.2237
C12_3 C 0.2437(4) 0.6421(3) 0.7292(2)
H6_3 H 0.2271 0.6293 0.7587
C13_3 C 0.3620(3) 0.7985(2) 0.8086(2)
C15_3 C 0.3526(3) 0.8649(2) 0.83067(18)
H7_3 H 0.2961 0.8823 0.8205
C17_3 C 0.3025(3) 0.7293(2) 0.6869(2)
H9_3 H 0.3233 0.7757 0.6869
C18_3 C 0.2960(3) 0.67809(18) 0.64352(17)
H10_3 H 0.3144 0.6900 0.6149
C19_3 C 0.2772(3) 0.7093(2) 0.7299(2)
C21_3 C 0.2351(3) 0.5936(2) 0.6837(2)
H12_3 H 0.2096 0.5485 0.6815
C22_3 C 0.1921(3) 0.31499(19) 0.34073(17)
H13_3 H 0.1760 0.2998 0.3699
C23_3 C 0.0303(3) 0.2279(2) 0.1557(2)
H14_3 H 0.0233 0.2747 0.1665
C24_3 C 0.1256(3) 0.1365(2) 0.15236(19)
H15_3 H 0.1824 0.1209 0.1614
C26_3 C 0.1141(3) 0.23320(18) 0.5347(2)
H17_3 H 0.1423 0.1898 0.5533
C27_3 C 0.5202(3) 0.81158(19) 0.86108(18)
H18_3 H 0.5765 0.7934 0.8713
C28_3 C 0.1979(3) 0.2930(2) 0.24709(19)
C30_3 C 0.4446(3) 0.7718(2) 0.8240(2)
H20_3 H 0.4494 0.7267 0.8093
C31_3 C 0.0212(3) 0.23929(18) 0.50634(18)
C32_3 C 0.5142(3) 0.87873(17) 0.88372(15)
C33_3 C 0.2629(3) 0.61011(18) 0.64181(16)
C34_3 C 0.4304(3) 0.90472(19) 0.86853(17)
H21_3 H 0.4258 0.9496 0.8838
C36_3 C 0.2498(3) 0.42994(18) 0.40265(16)
C38_3 C 0.1770(3) 0.2707(2) 0.2914(2)
H23_3 H 0.1522 0.2251 0.2881
C39_3 C 0.2532(3) 0.4042(2) 0.30311(18)
H24_3 H 0.2790 0.4493 0.3067
C40_3 C 0.2315(2) 0.38252(17) 0.34732(15)
H26_3 H 0.0471 0.0936 0.5518
C43_3 C 0.5978(3) 0.92105(17) 0.92509(15)
C44_3 C 0.2573(3) 0.55685(18) 0.59323(17)
C45_3 C 0.0502(3) 0.09193(19) 0.12015(17)
H27_3 H 0.0574 0.0462 0.1076
C47_3 C 0.1640(3) 0.29043(16) 0.53533(18)
H28_3 H 0.2263 0.2853 0.5553
Zn3 Zn 0.79659(3) 0.93954(2) 0.98813(2)
Zn5 Zn 0.31188(3) 0.54521(2) 0.48816(2)
O15_2 O 0.10578(17) 0.50905(11) 0.45162(11)
O16_2 O 0.32863(18) 0.39784(12) 0.56804(11)
S1_3 S 0.85387(9) 0.19032(6) 0.47964(7)
N3_3 N 0.5908(3) 0.1030(2) 0.4405(3)
O3_2 O 0.81227(18) 0.08826(12) 0.06603(12)
O9_2 O 0.89422(17) 0.00905(11) 0.04838(11)
C2_3 C 0.6769(5) 0.1227(3) 0.4570(4)
H2_3 H 0.6866 0.1709 0.4516
C3_3 C 0.9167(4) 0.0688(2) 0.5217(3)
H3_3 H 0.9221 0.0202 0.5326
C4_3 C 0.9655(3) 0.17890(19) 0.50735(19)
C6_3 C 0.8391(4) 0.1042(2) 0.4956(2)
C8_3 C 0.7521(4) 0.0760(2) 0.4817(2)
C10_3 C 0.5815(4) 0.0334(2) 0.4513(3)
H5_3 H 0.5245 0.0178 0.4417
C20_3 C 0.9821(3) 0.30465(19) 0.47766(19)
H11_3 H 0.9199 0.3107 0.4573
C41_3 C 0.9554(3) 0.18253(19) 0.12462(18)
H25_3 H 0.8990 0.1984 0.1162
C42_3 C 0.9880(3) 0.11048(17) 0.5310(2)
C46_3 C 0.9652(2) 0.11376(17) 0.10630(15)
C48_3 C 0.8844(3) 0.06672(17) 0.07136(15)
C50_3 C 0.7395(3) 0.00462(18) 0.49305(18)
S2_3 S 0.53073(9) 0.88085(5) 0.47409(7)
N2_3 N 0.3931(2) 0.62828(13) 0.49416(13)
C7_3 C 0.5651(3) 0.79518(19) 0.49699(19)
C11_3 C 0.6512(4) 0.9827(2) 0.4758(3)
C14_3 C 0.6342(3) 0.9080(2) 0.4882(2)
C16_3 C 0.4122(3) 0.74889(17) 0.4690(2)
H8_3 H 0.3864 0.7932 0.4509
C25_3 C 0.3587(3) 0.69308(17) 0.46817(18)
H16_3 H 0.2967 0.7004 0.4491
C29_3 C 0.5389(3) 0.67204(17) 0.52367(17)
H19_3 H 0.6006 0.6632 0.5434
C35_3 C 0.4815(3) 0.61951(17) 0.52110(17)
H22_3 H 0.5058 0.5750 0.5393
C37_3 C 0.5042(3) 0.73919(18) 0.49650(18)
C49_3 C 0.6558(3) 0.79001(19) 0.5149(2)
H29_3 H 0.6888 0.7477 0.5310
H30_3 H 0.7876 0.9724 0.5114
C51_3 C 0.6931(3) 0.8519(2) 0.5070(2)
H31_3 H 0.7514 0.8549 0.5137
O11_2 O 0.18773(18) 0.58826(12) 0.43397(12)
O12_2 O 0.41021(16) 0.47637(11) 0.54813(11)
S1_4 S 0.14613(9) 0.69032(6) 0.02036(7)
S2_4 S 0.46927(9) 0.38085(5) 0.02591(7)
N2_4 N 0.6069(2) 0.12828(13) 0.00584(13)
N3_4 N 0.4092(3) 0.6030(2) 0.0595(3)
C2_4 C 0.3231(5) 0.6227(3) 0.0430(4)
H2_4 H 0.3134 0.6709 0.0484
C6_4 C 0.1609(4) 0.6042(2) 0.0044(2)
C7_4 C 0.4349(3) 0.29518(19) 0.00301(19)
C8_4 C 0.2479(4) 0.5760(2) 0.0183(2)
C10_4 C 0.4185(4) 0.5334(2) 0.0487(3)
H5_4 H 0.4755 0.5178 0.0583
C11_4 C 0.3488(4) 0.4827(2) 0.0242(3)
C14_4 C 0.3658(3) 0.4080(2) 0.0118(2)
C16_4 C 0.5878(3) 0.24889(17) 0.0310(2)
H8_4 H 0.6136 0.2932 0.0491
C20_4 C 0.0179(3) 0.80465(19) 0.02234(19)
H11_4 H 0.0801 0.8107 0.0427
C25_4 C 0.6413(3) 0.19308(17) 0.03183(18)
H16_4 H 0.7033 0.2004 0.0509
C37_4 C 0.4958(3) 0.23919(18) 0.00350(18)
C41_4 C 0.0446(3) 0.68253(19) 0.37538(18)
H25_4 H 0.1010 0.6984 0.3838
C46_4 C 0.0348(2) 0.61376(17) 0.39370(15)
C48_4 C 0.1156(3) 0.56672(17) 0.42864(15)
C50_4 C 0.2605(3) 0.50462(18) 0.00695(18)
C3_4 C 0.0833(4) 0.5688(2) 0.9783(3)
H3_4 H 0.0779 0.5202 0.9674
C4_4 C 0.0345(3) 0.67890(19) 0.99265(19)
C29_4 C 0.4611(3) 0.17204(17) 0.97633(17)
H19_4 H 0.3994 0.1632 0.9566
C35_4 C 0.5185(3) 0.11951(17) 0.97890(17)
H22_4 H 0.4942 0.0750 0.9607
C42_4 C 0.0120(3) 0.61048(17) 0.9690(2)
C49_4 C 0.3442(3) 0.29001(19) 0.9851(2)
H29_4 H 0.3112 0.2477 0.9690
H30_4 H 0.2124 0.4724 0.9886
C51_4 C 0.3069(3) 0.3519(2) 0.9930(2)
H31_4 H 0.2486 0.3549 0.9863
O14_2 O 0.7041(2) 0.07376(13) 0.93603(12)
O2_4 O 0.7185(2) 0.25892(18) 0.72587(16)
C12_4 C 0.7563(4) 0.1421(3) 0.7708(2)
H6_4 H 0.7729 0.1293 0.7413
C13_4 C 0.6380(3) 0.2985(2) 0.6914(2)
C15_4 C 0.6474(3) 0.3649(2) 0.66933(18)
H7_4 H 0.7039 0.3823 0.6795
C17_4 C 0.6975(3) 0.2293(2) 0.8131(2)
H9_4 H 0.6767 0.2757 0.8131
C18_4 C 0.7040(3) 0.17809(18) 0.85648(17)
H10_4 H 0.6856 0.1900 0.8851
C19_4 C 0.7228(3) 0.2093(2) 0.7701(2)
C21_4 C 0.7649(3) 0.0936(2) 0.8163(2)
H12_4 H 0.7904 0.0485 0.8185
C27_4 C 0.4798(3) 0.31158(19) 0.63892(18)
H18_4 H 0.4235 0.2934 0.6287
C30_4 C 0.5554(3) 0.2718(2) 0.6760(2)
H20_4 H 0.5506 0.2267 0.6907
C32_4 C 0.4858(3) 0.37873(17) 0.61628(15)
C33_4 C 0.7371(3) 0.11011(18) 0.85819(16)
C34_4 C 0.5696(3) 0.40472(19) 0.63147(17)
H21_4 H 0.5742 0.4496 0.6162
C43_4 C 0.4022(3) 0.42105(17) 0.57491(15)
C44_4 C 0.7427(3) 0.05685(18) 0.90677(17)
N1_4 N 0.8732(2) 0.85466(13) 0.99183(13)
O7_4 O 0.7859(2) 0.99904(13) 0.91412(12)
C26_4 C 0.8859(3) 0.73320(18) 0.9653(2)
H17_4 H 0.8577 0.6898 0.9467
C31_4 C 0.9788(3) 0.73929(18) 0.99366(18)
H26_4 H 0.9529 0.5936 0.9482
C47_4 C 0.8360(3) 0.79043(16) 0.96467(18)
H28_4 H 0.7737 0.7853 0.9447
O13_2 O 0.70555(19) 0.98636(12) 0.08826(11)
O1_4 O 0.8123(2) 0.74843(18) 0.30127(15)
O6_4 O 0.78093(19) 0.90782(13) 0.06353(11)
C1_4 C 0.9630(3) 0.86039(19) 0.02011(18)
H1_4 H 0.9897 0.9040 0.0392
C5_4 C 0.8863(3) 0.7038(2) 0.3297(2)
C9_4 C 0.7632(3) 0.8594(2) 0.2467(2)
H4_4 H 0.7477 0.8743 0.2763
C22_4 C 0.8079(3) 0.81499(19) 0.15927(17)
H13_4 H 0.8240 0.7998 0.1301
C23_4 C 0.9697(3) 0.7279(2) 0.3443(2)
H14_4 H 0.9767 0.7747 0.3335
C24_4 C 0.8744(3) 0.6365(2) 0.34764(19)
H15_4 H 0.8176 0.6209 0.3386
C28_4 C 0.8021(3) 0.7930(2) 0.25291(19)
C36_4 C 0.7502(3) 0.92994(18) 0.09735(16)
C38_4 C 0.8230(3) 0.7707(2) 0.2086(2)
H23_4 H 0.8478 0.7251 0.2119
C39_4 C 0.7468(3) 0.9042(2) 0.19689(18)
H24_4 H 0.7210 0.9493 0.1933
C40_4 C 0.7685(2) 0.88252(17) 0.15268(15)
C45_4 C 0.9498(3) 0.59193(19) 0.37985(17)
H27_4 H 0.9426 0.5462 0.3924
loop_
_geom_bond_atom_site_label_1
_geom_bond_atom_site_label_2
_geom_bond_site_symmetry_1
_geom_bond_site_symmetry_2
Zn2 N2 1_555 1_555
S2 C7 1_555 1_555
N2 C25 1_555 1_555
C7 C37 1_555 1_555
C14 S2 1_555 1_555
C16 H8 1_555 1_555
C25 C16 1_555 1_555
H16 C25 1_555 1_555
C29 H19 1_555 1_555
C35 N2 1_555 1_555
H22 C35 1_555 1_555
C37 C16 1_555 1_555
C49 C7 1_555 1_555
H29 C49 1_555 1_555
C51 C14 1_555 1_555
H31 C51 1_555 1_555
O11 Zn2 1_555 1_555
O12 Zn2 1_555 1_555
O13 Zn2 1_555 1_555
O14 Zn2 1_555 1_555
C11 C14 1_555 1_555
C29 C35 1_555 1_555
C29 C37 1_555 1_555
C49 C51 1_555 1_555
S1 C4 1_555 1_555
N3 C2 1_555 1_555
O3 C48 1_555 1_555
O9 C48 1_555 1_555
C2 H2 1_555 1_555
C3 H3 1_555 1_555
C6 S1 1_555 1_555
C8 C2 1_555 1_555
C10 N3 1_555 1_555
H5 C10 1_555 1_555
H11 C20 1_555 1_555
H25 C41 1_555 1_555
C42 C3 1_555 1_555
C46 C41 1_555 1_555
C48 C46 1_555 1_555
C50 C8 1_555 1_555
Zn7 O3 1_555 1_555
C3 C6 1_555 1_555
C4 C42 1_555 1_555
C6 C8 1_555 1_555
Zn1 N1 1_555 1_555
N1 C1 1_555 1_555
O1 C5 1_555 1_555
O2 C13 1_555 1_555
O4 C43 1_555 1_555
O13 C36 1_555 1_555
O6 Zn1 1_555 1_555
O7 Zn1 1_555 1_555
O14 C44 1_555 1_555
O10 C43 1_555 1_555
C1 H1 1_555 1_555
C5 C23 1_555 1_555
C9 H4 1_555 1_555
C12 H6 1_555 1_555
C13 C15 1_555 1_555
C15 H7 1_555 1_555
C17 H9 1_555 1_555
C18 C17 1_555 1_555
H10 C18 1_555 1_555
C19 O2 1_555 1_555
C21 C12 1_555 1_555
H12 C21 1_555 1_555
C22 H13 1_555 1_555
C23 H14 1_555 1_555
C24 C5 1_555 1_555
H15 C24 1_555 1_555
C26 H17 1_555 1_555
C27 H18 1_555 1_555
C28 O1 1_555 1_555
C30 C13 1_555 1_555
H20 C30 1_555 1_555
C32 C27 1_555 1_555
C33 C18 1_555 1_555
C34 C15 1_555 1_555
H21 C34 1_555 1_555
C36 O6 1_555 1_555
C38 C22 1_555 1_555
H23 C38 1_555 1_555
C39 C9 1_555 1_555
H24 C39 1_555 1_555
C40 C22 1_555 1_555
C43 C32 1_555 1_555
C44 O7 1_555 1_555
C45 C24 1_555 1_555
H27 C45 1_555 1_555
C47 N1 1_555 1_555
H28 C47 1_555 1_555
Zn4 O10 1_555 1_555
O15 Zn1 1_555 1_555
O16 Zn1 1_555 1_555
C9 C28 1_555 1_555
C12 C19 1_555 1_555
C17 C19 1_555 1_555
C21 C33 1_555 1_555
C26 C31 1_555 1_555
C26 C47 1_555 1_555
C27 C30 1_555 1_555
C28 C38 1_555 1_555
C32 C34 1_555 1_555
C33 C44 1_555 1_555
C36 C40 1_555 1_555
C39 C40 1_555 1_555
Zn4 N1_2 1_555 1_555
O7_2 Zn4 1_555 1_555
C26_2 H17_2 1_555 1_555
C47_2 N1_2 1_555 1_555
H28_2 C47_2 1_555 1_555
C26_2 C31_2 1_555 1_555
C26_2 C47_2 1_555 1_555
O2_2 C13_2 1_555 1_555
O12 C43_2 1_555 1_555
O8 C44_2 1_555 1_555
O16 C43_2 1_555 1_555
C12_2 H6_2 1_555 1_555
C13_2 C15_2 1_555 1_555
C15_2 H7_2 1_555 1_555
C17_2 H9_2 1_555 1_555
C18_2 C17_2 1_555 1_555
H10_2 C18_2 1_555 1_555
C19_2 O2_2 1_555 1_555
C21_2 C12_2 1_555 1_555
H12_2 C21_2 1_555 1_555
C27_2 H18_2 1_555 1_555
C30_2 C13_2 1_555 1_555
H20_2 C30_2 1_555 1_555
C32_2 C27_2 1_555 1_555
C33_2 C18_2 1_555 1_555
C34_2 C15_2 1_555 1_555
H21_2 C34_2 1_555 1_555
C43_2 C32_2 1_555 1_555
C12_2 C19_2 1_555 1_555
C17_2 C19_2 1_555 1_555
C21_2 C33_2 1_555 1_555
C27_2 C30_2 1_555 1_555
C32_2 C34_2 1_555 1_555
C33_2 C44_2 1_555 1_555
C3_2 H3_2 1_555 1_555
C29_2 H19_2 1_555 1_555
H22_2 C35_2 1_555 1_555
C42_2 C3_2 1_555 1_555
H29_2 C49_2 1_555 1_555
H31_2 C51_2 1_555 1_555
C4_2 C42_2 1_555 1_555
C29_2 C35_2 1_555 1_555
C49_2 C51_2 1_555 1_555
Zn7 N2_2 1_555 1_555
S2_2 C7_2 1_555 1_555
N2_2 C25_2 1_555 1_555
N3_2 C2_2 1_555 1_555
O11 C48_2 1_555 1_555
O15 C48_2 1_555 1_555
C2_2 H2_2 1_555 1_555
C6_2 S1_2 1_555 1_555
C7_2 C37_2 1_555 1_555
C8_2 C2_2 1_555 1_555
C10_2 N3_2 1_555 1_555
H5_2 C10_2 1_555 1_555
C11_2 C10_2 1_555 1_555
C14_2 S2_2 1_555 1_555
C16_2 H8_2 1_555 1_555
H11_2 C20_2 1_555 1_555
C25_2 C16_2 1_555 1_555
H16_2 C25_2 1_555 1_555
C37_2 C16_2 1_555 1_555
H25_2 C41_2 1_555 1_555
C46_2 C41_2 1_555 1_555
C48_2 C46_2 1_555 1_555
C50_2 C8_2 1_555 1_555
C6_2 C8_2 1_555 1_555
C11_2 C14_2 1_555 1_555
C11_2 C50_2 1_555 1_555
O1_2 C5_2 1_555 1_555
O5 C36_2 1_555 1_555
C1_2 H1_2 1_555 1_555
C5_2 C23_2 1_555 1_555
C9_2 H4_2 1_555 1_555
C22_2 H13_2 1_555 1_555
C23_2 H14_2 1_555 1_555
C24_2 C5_2 1_555 1_555
H15_2 C24_2 1_555 1_555
C28_2 O1_2 1_555 1_555
C36_2 O6_2 1_555 1_555
C38_2 C22_2 1_555 1_555
H23_2 C38_2 1_555 1_555
C39_2 C9_2 1_555 1_555
H24_2 C39_2 1_555 1_555
C40_2 C22_2 1_555 1_555
C45_2 C24_2 1_555 1_555
H27_2 C45_2 1_555 1_555
C9_2 C28_2 1_555 1_555
C28_2 C38_2 1_555 1_555
C36_2 C40_2 1_555 1_555
C39_2 C40_2 1_555 1_555
Zn1_2 N1_3 1_555 1_555
N1_3 C1_3 1_555 1_555
O1_3 C5_3 1_555 1_555
O2_3 C13_3 1_555 1_555
O4_2 C43_3 1_555 1_555
O5_2 C36_3 1_555 1_555
O6_3 Zn1_2 1_555 1_555
O7_3 Zn1_2 1_555 1_555
O8_2 C44_3 1_555 1_555
O10_2 C43_3 1_555 1_555
C1_3 H1_3 1_555 1_555
C5_3 C23_3 1_555 1_555
C9_3 H4_3 1_555 1_555
C12_3 H6_3 1_555 1_555
C13_3 C15_3 1_555 1_555
C15_3 H7_3 1_555 1_555
C17_3 H9_3 1_555 1_555
C18_3 C17_3 1_555 1_555
H10_3 C18_3 1_555 1_555
C19_3 O2_3 1_555 1_555
C21_3 C12_3 1_555 1_555
H12_3 C21_3 1_555 1_555
C22_3 H13_3 1_555 1_555
C23_3 H14_3 1_555 1_555
C24_3 C5_3 1_555 1_555
H15_3 C24_3 1_555 1_555
C26_3 H17_3 1_555 1_555
C27_3 H18_3 1_555 1_555
C28_3 O1_3 1_555 1_555
C30_3 C13_3 1_555 1_555
H20_3 C30_3 1_555 1_555
C32_3 C27_3 1_555 1_555
C33_3 C18_3 1_555 1_555
C34_3 C15_3 1_555 1_555
H21_3 C34_3 1_555 1_555
C36_3 O6_3 1_555 1_555
C38_3 C22_3 1_555 1_555
H23_3 C38_3 1_555 1_555
C39_3 C9_3 1_555 1_555
H24_3 C39_3 1_555 1_555
C40_3 C22_3 1_555 1_555
C43_3 C32_3 1_555 1_555
C44_3 O7_3 1_555 1_555
C45_3 C24_3 1_555 1_555
H27_3 C45_3 1_555 1_555
C47_3 N1_3 1_555 1_555
H28_3 C47_3 1_555 1_555
Zn3 O10_2 1_555 1_555
Zn5 O5_2 1_555 1_555
O15_2 Zn1_2 1_555 1_555
O16_2 Zn1_2 1_555 1_555
O8_2 Zn5 1_555 1_555
C9_3 C28_3 1_555 1_555
C12_3 C19_3 1_555 1_555
C17_3 C19_3 1_555 1_555
C21_3 C33_3 1_555 1_555
C26_3 C31_3 1_555 1_555
C26_3 C47_3 1_555 1_555
C27_3 C30_3 1_555 1_555
C28_3 C38_3 1_555 1_555
C32_3 C34_3 1_555 1_555
C33_3 C44_3 1_555 1_555
C36_3 C40_3 1_555 1_555
C39_3 C40_3 1_555 1_555
S1_3 C4_3 1_555 1_555
N3_3 C2_3 1_555 1_555
O3_2 C48_3 1_555 1_555
O9_2 C48_3 1_555 1_555
C2_3 H2_3 1_555 1_555
C3_3 H3_3 1_555 1_555
C6_3 S1_3 1_555 1_555
C8_3 C2_3 1_555 1_555
C10_3 N3_3 1_555 1_555
H5_3 C10_3 1_555 1_555
H11_3 C20_3 1_555 1_555
H25_3 C41_3 1_555 1_555
C42_3 C3_3 1_555 1_555
C46_3 C41_3 1_555 1_555
C48_3 C46_3 1_555 1_555
C50_3 C8_3 1_555 1_555
Zn6 O3_2 1_555 1_555
C3_3 C6_3 1_555 1_555
C4_3 C42_3 1_555 1_555
C6_3 C8_3 1_555 1_555
Zn5 N2_3 1_555 1_555
S2_3 C7_3 1_555 1_555
N2_3 C25_3 1_555 1_555
C7_3 C37_3 1_555 1_555
C14_3 S2_3 1_555 1_555
C16_3 H8_3 1_555 1_555
C25_3 C16_3 1_555 1_555
H16_3 C25_3 1_555 1_555
C29_3 H19_3 1_555 1_555
C35_3 N2_3 1_555 1_555
H22_3 C35_3 1_555 1_555
C37_3 C16_3 1_555 1_555
C49_3 C7_3 1_555 1_555
H29_3 C49_3 1_555 1_555
C51_3 C14_3 1_555 1_555
H31_3 C51_3 1_555 1_555
O11_2 Zn5 1_555 1_555
O12_2 Zn5 1_555 1_555
C11_3 C14_3 1_555 1_555
C29_3 C35_3 1_555 1_555
C29_3 C37_3 1_555 1_555
C49_3 C51_3 1_555 1_555
Zn6 N2_4 1_555 1_555
S2_4 C7_4 1_555 1_555
N2_4 C25_4 1_555 1_555
N3_4 C2_4 1_555 1_555
O11_2 C48_4 1_555 1_555
O15_2 C48_4 1_555 1_555
C2_4 H2_4 1_555 1_555
C6_4 S1_4 1_555 1_555
C7_4 C37_4 1_555 1_555
C8_4 C2_4 1_555 1_555
C10_4 N3_4 1_555 1_555
H5_4 C10_4 1_555 1_555
C11_4 C10_4 1_555 1_555
C14_4 S2_4 1_555 1_555
C16_4 H8_4 1_555 1_555
H11_4 C20_4 1_555 1_555
C25_4 C16_4 1_555 1_555
H16_4 C25_4 1_555 1_555
C37_4 C16_4 1_555 1_555
H25_4 C41_4 1_555 1_555
C46_4 C41_4 1_555 1_555
C48_4 C46_4 1_555 1_555
C50_4 C8_4 1_555 1_555
C6_4 C8_4 1_555 1_555
C11_4 C14_4 1_555 1_555
C11_4 C50_4 1_555 1_555
C3_4 H3_4 1_555 1_555
C29_4 H19_4 1_555 1_555
H22_4 C35_4 1_555 1_555
C42_4 C3_4 1_555 1_555
H29_4 C49_4 1_555 1_555
H31_4 C51_4 1_555 1_555
C4_4 C42_4 1_555 1_555
C29_4 C35_4 1_555 1_555
C49_4 C51_4 1_555 1_555
O2_4 C13_4 1_555 1_555
O12_2 C43_4 1_555 1_555
O14_2 C44_4 1_555 1_555
O16_2 C43_4 1_555 1_555
C12_4 H6_4 1_555 1_555
C13_4 C15_4 1_555 1_555
C15_4 H7_4 1_555 1_555
C17_4 H9_4 1_555 1_555
C18_4 C17_4 1_555 1_555
H10_4 C18_4 1_555 1_555
C19_4 O2_4 1_555 1_555
C21_4 C12_4 1_555 1_555
H12_4 C21_4 1_555 1_555
C27_4 H18_4 1_555 1_555
C30_4 C13_4 1_555 1_555
H20_4 C30_4 1_555 1_555
C32_4 C27_4 1_555 1_555
C33_4 C18_4 1_555 1_555
C34_4 C15_4 1_555 1_555
H21_4 C34_4 1_555 1_555
C43_4 C32_4 1_555 1_555
C12_4 C19_4 1_555 1_555
C17_4 C19_4 1_555 1_555
C21_4 C33_4 1_555 1_555
C27_4 C30_4 1_555 1_555
C32_4 C34_4 1_555 1_555
C33_4 C44_4 1_555 1_555
Zn3 N1_4 1_555 1_555
O7_4 Zn3 1_555 1_555
C26_4 H17_4 1_555 1_555
C47_4 N1_4 1_555 1_555
H28_4 C47_4 1_555 1_555
C26_4 C31_4 1_555 1_555
C26_4 C47_4 1_555 1_555
O1_4 C5_4 1_555 1_555
O13_2 C36_4 1_555 1_555
C1_4 H1_4 1_555 1_555
C5_4 C23_4 1_555 1_555
C9_4 H4_4 1_555 1_555
C22_4 H13_4 1_555 1_555
C23_4 H14_4 1_555 1_555
C24_4 C5_4 1_555 1_555
H15_4 C24_4 1_555 1_555
C28_4 O1_4 1_555 1_555
C36_4 O6_4 1_555 1_555
C38_4 C22_4 1_555 1_555
H23_4 C38_4 1_555 1_555
C39_4 C9_4 1_555 1_555
H24_4 C39_4 1_555 1_555
C40_4 C22_4 1_555 1_555
C45_4 C24_4 1_555 1_555
H27_4 C45_4 1_555 1_555
C9_4 C28_4 1_555 1_555
C28_4 C38_4 1_555 1_555
C36_4 C40_4 1_555 1_555
C39_4 C40_4 1_555 1_555

#END
