
###############################################################################
#
# This file contains modified crystal structure data generated from the
# MOF subset of the Cambridge Structural Database (CSD) v543 
# hosted by the Cambridge Crystallographic Data Centre (CCDC).
#
# This work is licensed under the Creative Commons
# Attribution-NonCommercial-ShareAlike 4.0 International License.
# To view a copy of this license, visit
# http://creativecommons.org/licenses/by-nc-sa/4.0/
# or send a letter to
# Creative Commons, PO Box 1866, Mountain View, CA 94042, USA.
#
# CIF created using the CSD Python API on 29 September 2022
# The structure has been converted into the P1 space group
# The structure has a 3D framework
# The original CSD entry KASRAZ is in the monoclinic crystal system
# The framework has been calculated to contain at least 10.0% void space
# The void calculation uses a probe of radius 1.32A, grid spacing 0.4
# H atom positions have been added when not included in the experimental data
#
###############################################################################

data_KASRAZ
_chemical_formula_moiety         '(C156 H148 Cd8 N4 O38)n'
_symmetry_cell_setting           triclinic
_symmetry_space_group_name_H-M   'P 1'
_symmetry_Int_Tables_number      1
_space_group_name_Hall           'P 1'
loop_
_symmetry_equiv_pos_site_id
_symmetry_equiv_pos_as_xyz
1 x,y,z
_cell_length_a                   11.4137(16)
_cell_length_b                   16.592(2)
_cell_length_c                   26.041(3)
_cell_angle_alpha                90
_cell_angle_beta                 95.290(3)
_cell_angle_gamma                90
_cell_volume                     4910.54
loop_
_atom_site_label
_atom_site_type_symbol
_atom_site_fract_x
_atom_site_fract_y
_atom_site_fract_z
H14 H 0.0468 0.7662 0.4005
C27 C 0.0037(5) 0.6345(4) 0.4539(2)
O4 O 0.0446(4) 0.7515(3) 0.09542(17)
O8 O 0.0882(4) 0.6705(3) 0.47771(15)
Cd3 Cd 0.11409(4) 0.94113(3) 0.039220(15)
Cd5 Cd 0.11409(4) 0.55887(3) 0.539220(15)
Cd6 Cd 0.16817(4) 0.73388(3) 0.036935(16)
Cd8 Cd 0.16817(4) 0.76612(3) 0.536935(16)
O15 O 0.0198(4) 0.0635(3) 0.03498(16)
C1 C 0.6125(5) 0.8103(4) 0.2876(2)
C2 C 0.7251(5) 0.7879(4) 0.2855(2)
C3 C 0.7883(5) 0.7945(4) 0.2381(2)
C4 C 0.7914(5) 0.8661(4) 0.2106(2)
H1 H 0.7496 0.9117 0.2214
C5 C 0.8541(5) 0.8721(4) 0.1679(2)
H2 H 0.8568 0.9219 0.1501
C6 C 0.9132(5) 0.8058(4) 0.1509(2)
C7 C 0.9101(7) 0.7341(4) 0.1781(3)
H3 H 0.9516 0.6884 0.1674
C8 C 0.8470(7) 0.7289(4) 0.2209(3)
H4 H 0.8443 0.6791 0.2388
C9 C 0.5550(5) 0.8120(4) 0.3367(2)
C10 C 0.6072(6) 0.8501(4) 0.3800(2)
H5 H 0.6820 0.8749 0.3787
C11 C 0.5525(6) 0.8529(5) 0.4253(2)
H6 H 0.5897 0.8797 0.4547
C12 C 0.4436(5) 0.8167(4) 0.4280(2)
C13 C 0.3910(6) 0.7785(4) 0.3843(2)
H7 H 0.3170 0.7527 0.3855
C14 C 0.4456(6) 0.7778(4) 0.3394(2)
H8 H 0.4070 0.7532 0.3095
C15 C 0.5333(5) 0.8326(4) 0.2409(2)
C16 C 0.5132(6) 0.7794(4) 0.2005(2)
H9 H 0.5551 0.7299 0.2012
C17 C 0.4324(6) 0.7970(4) 0.1586(2)
H10 H 0.4191 0.7593 0.1312
C18 C 0.3719(5) 0.8684(4) 0.1566(2)
C19 C 0.3939(6) 0.9236(4) 0.1972(2)
H11 H 0.3543 0.9740 0.1962
C20 C 0.4737(6) 0.9041(4) 0.2386(2)
H12 H 0.4873 0.9414 0.2662
C21 C 0.7960(5) 0.7505(4) 0.3304(2)
C22 C 0.9063(5) 0.7808(4) 0.3479(2)
H13 H 0.9360 0.8270 0.3319
C23 C 0.9725(5) 0.7443(4) 0.3883(2)
C24 C 0.9317(5) 0.6759(4) 0.4113(2)
C25 C 0.8217(5) 0.6453(4) 0.3938(2)
H15 H 0.7928 0.5987 0.4096
C26 C 0.7538(5) 0.6823(4) 0.3534(2)
H16 H 0.6788 0.6610 0.3417
C28 C 0.2839(5) 0.8887(4) 0.1130(2)
C29 C 0.9838(5) 0.8133(4) 0.1053(2)
C30 C 0.3814(6) 0.8204(4) 0.4764(2)
C31 C 0.2522(13) 0.5619(9) 0.0971(7)
O1 O 0.2721(4) 0.8421(3) 0.07458(15)
O2 O 0.2242(4) 0.9519(3) 0.11599(18)
O3 O 0.9784(4) 0.8781(3) 0.08122(16)
O5 O 0.2893(4) 0.7808(3) 0.47662(17)
O6 O 0.4260(5) 0.8628(5) 0.5125(2)
C39 C 0.170(2) 0.5461(13) 0.1292(11)
O7 O 0.9802(4) 0.5635(3) 0.46502(16)
O9 O 0.2861(4) 0.6416(3) 0.08522(17)
O10 O 0.0514(5) 0.6328(4) 0.0012(2)
Cd4 Cd 0.88591(4) 0.44113(3) 0.460780(15)
H33 H 0.221588 0.533977 0.0604543
H34 H 0.331961 0.531764 0.1133
H35 H 0.0869012 0.573257 0.114261
H36 H 0.158961 0.481147 0.132345
H37 H 0.197274 0.571044 0.167106
C34 C 0.2803(9) 0.9930(10) 0.9638(4)
H22 H 0.2346 0.9540 0.9441
C37 C 0.3938(9) 0.9971(9) 0.8855(4)
H28 H 0.3242 0.9684 0.8691
C38 C 0.4876(12) 0.9464(8) 0.8893(6)
H30 H 0.5482 0.9672 0.9150
H31 H 0.5197 0.9426 0.8558
H32 H 0.4625 0.8929 0.8998
O14 O 0.2893(4) 0.7192(3) 0.97662(17)
O17 O 0.0882(4) 0.8295(3) 0.97771(15)
C32 C 0.9404(11) 0.6105(8) 0.0180(5)
H17 H 0.9472 0.6092 0.0562
H18 H 0.9204 0.5554 0.0055
C33 C 0.8460(12) 0.6645(10) 0.0002(5)
H19 H 0.8735 0.7203 0.0037
H20 H 0.7794 0.6566 0.0208
H21 H 0.8211 0.6532 0.9639
O16 O 0.9802(4) 0.9365(3) 0.96502(16)
C32_2 C 0.0596(11) 0.1105(8) 0.4820(5)
H17_2 H 0.0528 0.1092 0.4438
H18_2 H 0.0796 0.0554 0.4945
C33_2 C 0.1540(12) 0.1645(10) 0.4998(5)
H19_2 H 0.1265 0.2203 0.4963
H20_2 H 0.2206 0.1566 0.4792
H21_2 H 0.1789 0.1532 0.5361
O12 O 0.0216(4) 0.3781(3) 0.41878(16)
O16_2 O 0.0198(4) 0.4365(3) 0.53498(16)
C1_2 C 0.3875(5) 0.3103(4) 0.2124(2)
C2_2 C 0.2749(5) 0.2879(4) 0.2145(2)
C3_2 C 0.2117(5) 0.2945(4) 0.2619(2)
C4_2 C 0.2086(5) 0.3661(4) 0.2894(2)
H1_2 H 0.2504 0.4117 0.2786
C5_2 C 0.1459(5) 0.3721(4) 0.3321(2)
H2_2 H 0.1432 0.4219 0.3499
C6_2 C 0.0868(5) 0.3058(4) 0.3491(2)
C7_2 C 0.0899(7) 0.2341(4) 0.3219(3)
H3_2 H 0.0484 0.1884 0.3326
C8_2 C 0.1530(7) 0.2289(4) 0.2791(3)
H4_2 H 0.1557 0.1791 0.2612
C9_2 C 0.4450(5) 0.3120(4) 0.1633(2)
C10_2 C 0.3928(6) 0.3501(4) 0.1200(2)
H5_2 H 0.3180 0.3749 0.1213
C11_2 C 0.4475(6) 0.3529(5) 0.0747(2)
H6_2 H 0.4103 0.3797 0.0453
C12_2 C 0.5564(5) 0.3167(4) 0.0720(2)
C13_2 C 0.6090(6) 0.2785(4) 0.1157(2)
H7_2 H 0.6830 0.2527 0.1145
C14_2 C 0.5544(6) 0.2778(4) 0.1606(2)
H8_2 H 0.5930 0.2532 0.1905
C15_2 C 0.4667(5) 0.3326(4) 0.2591(2)
C16_2 C 0.4868(6) 0.2794(4) 0.2995(2)
H9_2 H 0.4449 0.2299 0.2988
C17_2 C 0.5676(6) 0.2970(4) 0.3414(2)
H10_2 H 0.5809 0.2593 0.3688
C18_2 C 0.6281(5) 0.3684(4) 0.3434(2)
C19_2 C 0.6061(6) 0.4236(4) 0.3028(2)
H11_2 H 0.6457 0.4740 0.3038
C20_2 C 0.5263(6) 0.4041(4) 0.2614(2)
H12_2 H 0.5127 0.4414 0.2338
C21_2 C 0.2040(5) 0.2505(4) 0.1696(2)
C22_2 C 0.0937(5) 0.2808(4) 0.1521(2)
H13_2 H 0.0640 0.3270 0.1681
C23_2 C 0.0275(5) 0.2443(4) 0.1117(2)
C24_2 C 0.0683(5) 0.1759(4) 0.0887(2)
C25_2 C 0.1783(5) 0.1453(4) 0.1062(2)
H15_2 H 0.2072 0.0987 0.0904
C26_2 C 0.2462(5) 0.1823(4) 0.1466(2)
H16_2 H 0.3212 0.1610 0.1583
C28_2 C 0.7161(5) 0.3887(4) 0.3870(2)
C29_2 C 0.0162(5) 0.3133(4) 0.3947(2)
C30_2 C 0.6186(6) 0.3204(4) 0.0236(2)
C31_2 C 0.7478(13) 0.0619(9) 0.4029(7)
C34_2 C 0.7197(9) 0.4930(10) 0.5362(4)
H22_2 H 0.7654 0.4540 0.5559
C35 C 0.5813(15) 0.5949(9) 0.5411(5)
H23 H 0.4978 0.5926 0.5485
H24 H 0.5817 0.5881 0.5033
C36 C 0.6201(15) 0.6767(10) 0.5523(7)
H25 H 0.6363 0.6834 0.5896
H26 H 0.5584 0.7145 0.5393
H27 H 0.6919 0.6875 0.5355
C37_2 C 0.6062(9) 0.4971(9) 0.6145(4)
H28_2 H 0.6758 0.4684 0.6309
H29 H 0.5896 0.5432 0.6368
C38_2 C 0.5124(12) 0.4464(8) 0.6107(6)
H30_2 H 0.4518 0.4672 0.5850
H31_2 H 0.4803 0.4426 0.6442
H32_2 H 0.5375 0.3929 0.6002
Cd2 Cd 0.83183(4) 0.23388(3) 0.463065(16)
N1 N 0.6333(7) 0.5280(8) 0.5628(3)
O1_2 O 0.7279(4) 0.3421(3) 0.42542(15)
O2_2 O 0.7758(4) 0.4519(3) 0.38401(18)
O5_2 O 0.7107(4) 0.2808(3) 0.02338(17)
C39_2 C 0.830(2) 0.0461(13) 0.3708(11)
O9_2 O 0.7139(4) 0.1416(3) 0.41478(17)
O10_2 O 0.9486(5) 0.1328(4) 0.4988(2)
O11 O 0.7444(5) 0.5003(4) 0.5001(2)
O13 O 0.9554(4) 0.2515(3) 0.40458(17)
O14_2 O 0.7107(4) 0.2192(3) 0.52338(17)
O17_2 O 0.9118(4) 0.3295(3) 0.52229(15)
H33_2 H 0.778412 0.0339765 0.439546
H34_2 H 0.668039 0.0317643 0.3867
H35_2 H 0.913099 0.0732565 0.385739
H37_2 H 0.802726 0.0710443 0.332894
O6_2 O 0.5740(5) 0.3628(5) 0.9875(2)
Cd7 Cd 0.83183(4) 0.26612(3) 0.963065(16)
H36_2 H 0.841039 0.981147 0.367655
H14_2 H 0.9532 0.2662 0.0995
C27_2 C 0.9963(5) 0.1345(4) 0.0461(2)
O8_2 O 0.9118(4) 0.1705(3) 0.02229(15)
Cd5_2 Cd 0.88591(4) 0.05887(3) 0.960780(15)
H21_3 H 0.1789 0.3468 0.0361
C32_3 C 0.0596(11) 0.3895(8) 0.9820(5)
H17_3 H 0.0528 0.3908 0.9438
H18_3 H 0.0796 0.4446 0.9945
C33_3 C 0.1540(12) 0.3355(10) 0.9998(5)
H19_3 H 0.1265 0.2797 0.9963
H20_3 H 0.2206 0.3434 0.9792
O12_2 O 0.0216(4) 0.1219(3) 0.91878(16)
C34_3 C 0.7197(9) 0.0070(10) 0.0362(4)
H22_3 H 0.7654 0.0460 0.0559
C37_3 C 0.6062(9) 0.0029(9) 0.1145(4)
H28_3 H 0.6758 0.0316 0.1309
C38_3 C 0.5124(12) 0.0536(8) 0.1107(6)
H30_3 H 0.4518 0.0328 0.0850
H31_3 H 0.4803 0.0574 0.1442
H32_3 H 0.5375 0.1071 0.1002
C1_3 C 0.3875(5) 0.1897(4) 0.7124(2)
C2_3 C 0.2749(5) 0.2121(4) 0.7145(2)
C3_3 C 0.2117(5) 0.2055(4) 0.7619(2)
C4_3 C 0.2086(5) 0.1339(4) 0.7894(2)
H1_3 H 0.2504 0.0883 0.7786
C5_3 C 0.1459(5) 0.1279(4) 0.8321(2)
H2_3 H 0.1432 0.0781 0.8499
C6_3 C 0.0868(5) 0.1942(4) 0.8491(2)
C7_3 C 0.0899(7) 0.2659(4) 0.8219(3)
H3_3 H 0.0484 0.3116 0.8326
C8_3 C 0.1530(7) 0.2711(4) 0.7791(3)
H4_3 H 0.1557 0.3209 0.7612
C9_3 C 0.4450(5) 0.1880(4) 0.6633(2)
C10_3 C 0.3928(6) 0.1499(4) 0.6200(2)
H5_3 H 0.3180 0.1251 0.6213
C11_3 C 0.4475(6) 0.1471(5) 0.5747(2)
H6_3 H 0.4103 0.1203 0.5453
C12_3 C 0.5564(5) 0.1833(4) 0.5720(2)
C13_3 C 0.6090(6) 0.2215(4) 0.6157(2)
H7_3 H 0.6830 0.2473 0.6145
C14_3 C 0.5544(6) 0.2222(4) 0.6606(2)
H8_3 H 0.5930 0.2468 0.6905
C15_3 C 0.4667(5) 0.1674(4) 0.7591(2)
C16_3 C 0.4868(6) 0.2206(4) 0.7995(2)
H9_3 H 0.4449 0.2701 0.7988
C17_3 C 0.5676(6) 0.2030(4) 0.8414(2)
H10_3 H 0.5809 0.2407 0.8688
C18_3 C 0.6281(5) 0.1316(4) 0.8434(2)
C19_3 C 0.6061(6) 0.0764(4) 0.8028(2)
H11_3 H 0.6457 0.0260 0.8038
C20_3 C 0.5263(6) 0.0959(4) 0.7614(2)
H12_3 H 0.5127 0.0586 0.7338
C21_3 C 0.2040(5) 0.2495(4) 0.6696(2)
C22_3 C 0.0937(5) 0.2192(4) 0.6521(2)
H13_3 H 0.0640 0.1730 0.6681
C23_3 C 0.0275(5) 0.2557(4) 0.6117(2)
C24_3 C 0.0683(5) 0.3241(4) 0.5887(2)
C25_3 C 0.1783(5) 0.3547(4) 0.6062(2)
H15_3 H 0.2072 0.4013 0.5904
C26_3 C 0.2462(5) 0.3177(4) 0.6466(2)
H16_3 H 0.3212 0.3390 0.6583
C28_3 C 0.7161(5) 0.1113(4) 0.8870(2)
C29_3 C 0.0162(5) 0.1867(4) 0.8947(2)
C30_3 C 0.6186(6) 0.1796(4) 0.5236(2)
C31_3 C 0.7478(13) 0.4381(9) 0.9029(7)
O1_3 O 0.7279(4) 0.1579(3) 0.92542(15)
O2_3 O 0.7758(4) 0.0481(3) 0.88401(18)
O6_3 O 0.5740(5) 0.1372(5) 0.4875(2)
C39_3 C 0.830(2) 0.4539(13) 0.8708(11)
O9_3 O 0.7139(4) 0.3584(3) 0.91478(17)
O10_3 O 0.9486(5) 0.3672(4) 0.9988(2)
O13_2 O 0.9554(4) 0.2485(3) 0.90458(17)
H33_3 H 0.778412 0.466023 0.939546
H34_3 H 0.668039 0.468236 0.8867
H35_3 H 0.913099 0.426743 0.885739
H36_3 H 0.841039 0.518853 0.867655
H37_3 H 0.802726 0.428956 0.832894
H14_3 H 0.9532 0.2338 0.5995
C27_3 C 0.9963(5) 0.3655(4) 0.5461(2)
H14_4 H 0.0468 0.7338 0.9005
C27_4 C 0.0037(5) 0.8655(4) 0.9539(2)
O4_2 O 0.0446(4) 0.7485(3) 0.59542(17)
H36_4 H 0.158961 0.018853 0.632345
O6_4 O 0.4260(5) 0.6372(5) 0.0125(2)
C1_4 C 0.6125(5) 0.6897(4) 0.7876(2)
C2_4 C 0.7251(5) 0.7121(4) 0.7855(2)
C3_4 C 0.7883(5) 0.7055(4) 0.7381(2)
C4_4 C 0.7914(5) 0.6339(4) 0.7106(2)
H1_4 H 0.7496 0.5883 0.7214
C5_4 C 0.8541(5) 0.6279(4) 0.6679(2)
H2_4 H 0.8568 0.5781 0.6501
C6_4 C 0.9132(5) 0.6942(4) 0.6509(2)
C7_4 C 0.9101(7) 0.7659(4) 0.6781(3)
H3_4 H 0.9516 0.8116 0.6674
C8_4 C 0.8470(7) 0.7711(4) 0.7209(3)
H4_4 H 0.8443 0.8209 0.7388
C9_4 C 0.5550(5) 0.6880(4) 0.8367(2)
C10_4 C 0.6072(6) 0.6499(4) 0.8800(2)
H5_4 H 0.6820 0.6251 0.8787
C11_4 C 0.5525(6) 0.6471(5) 0.9253(2)
H6_4 H 0.5897 0.6203 0.9547
C12_4 C 0.4436(5) 0.6833(4) 0.9280(2)
C13_4 C 0.3910(6) 0.7215(4) 0.8843(2)
H7_4 H 0.3170 0.7473 0.8855
C14_4 C 0.4456(6) 0.7222(4) 0.8394(2)
H8_4 H 0.4070 0.7468 0.8095
C15_4 C 0.5333(5) 0.6674(4) 0.7409(2)
C16_4 C 0.5132(6) 0.7206(4) 0.7005(2)
H9_4 H 0.5551 0.7701 0.7012
C17_4 C 0.4324(6) 0.7030(4) 0.6586(2)
H10_4 H 0.4191 0.7407 0.6312
C18_4 C 0.3719(5) 0.6316(4) 0.6566(2)
C19_4 C 0.3939(6) 0.5764(4) 0.6972(2)
H11_4 H 0.3543 0.5260 0.6962
C20_4 C 0.4737(6) 0.5959(4) 0.7386(2)
H12_4 H 0.4873 0.5586 0.7662
C21_4 C 0.7960(5) 0.7495(4) 0.8304(2)
C22_4 C 0.9063(5) 0.7192(4) 0.8479(2)
H13_4 H 0.9360 0.6730 0.8319
C23_4 C 0.9725(5) 0.7557(4) 0.8883(2)
C24_4 C 0.9317(5) 0.8241(4) 0.9113(2)
C25_4 C 0.8217(5) 0.8547(4) 0.8938(2)
H15_4 H 0.7928 0.9013 0.9096
C26_4 C 0.7538(5) 0.8177(4) 0.8534(2)
H16_4 H 0.6788 0.8390 0.8417
C28_4 C 0.2839(5) 0.6113(4) 0.6130(2)
C29_4 C 0.9838(5) 0.6867(4) 0.6053(2)
C30_4 C 0.3814(6) 0.6796(4) 0.9764(2)
C31_4 C 0.2522(13) 0.9381(9) 0.5971(7)
C34_4 C 0.2803(9) 0.5070(10) 0.4638(4)
H22_4 H 0.2346 0.5460 0.4441
C35_2 C 0.4187(15) 0.4051(9) 0.4589(5)
H23_2 H 0.5022 0.4074 0.4515
H24_2 H 0.4183 0.4119 0.4967
C36_2 C 0.3799(15) 0.3233(10) 0.4477(7)
H25_2 H 0.3637 0.3166 0.4104
H26_2 H 0.4416 0.2855 0.4607
H27_2 H 0.3081 0.3125 0.4645
C37_4 C 0.3938(9) 0.5029(9) 0.3855(4)
H28_4 H 0.3242 0.5316 0.3691
H29_2 H 0.4104 0.4568 0.3632
C38_4 C 0.4876(12) 0.5536(8) 0.3893(6)
H30_4 H 0.5482 0.5328 0.4150
H31_4 H 0.5197 0.5574 0.3558
H32_4 H 0.4625 0.6071 0.3998
N1_2 N 0.3667(7) 0.4720(8) 0.4372(3)
O1_4 O 0.2721(4) 0.6579(3) 0.57458(15)
O2_4 O 0.2242(4) 0.5481(3) 0.61599(18)
O3_2 O 0.9784(4) 0.6219(3) 0.58122(16)
C39_4 C 0.170(2) 0.9539(13) 0.6292(11)
O9_4 O 0.2861(4) 0.8584(3) 0.58522(17)
O10_4 O 0.0514(5) 0.8672(4) 0.5012(2)
O11_2 O 0.2556(5) 0.4997(4) 0.4999(2)
H33_4 H 0.221588 0.966023 0.560454
H34_4 H 0.331961 0.968236 0.6133
H35_4 H 0.0869012 0.926743 0.614261
H37_4 H 0.197274 0.928956 0.667106
C32_4 C 0.9404(11) 0.8895(8) 0.5180(5)
H17_4 H 0.9472 0.8908 0.5562
H18_4 H 0.9204 0.9446 0.5055
C33_4 C 0.8460(12) 0.8355(10) 0.5002(5)
H19_4 H 0.8735 0.7797 0.5037
H20_4 H 0.7794 0.8434 0.5208
H21_4 H 0.8211 0.8468 0.4639
C35_3 C 0.4187(15) 0.0949(9) 0.9589(5)
H23_3 H 0.5022 0.0926 0.9515
H24_3 H 0.4183 0.0881 0.9967
C36_3 C 0.3799(15) 0.1767(10) 0.9477(7)
H25_3 H 0.3637 0.1834 0.9104
H26_3 H 0.4416 0.2145 0.9607
H27_3 H 0.3081 0.1875 0.9645
H29_3 H 0.4104 0.0432 0.8632
N1_3 N 0.3667(7) 0.0280(8) 0.9372(3)
O11_3 O 0.2556(5) 0.0003(4) 0.9999(2)
C35_4 C 0.5813(15) 0.9051(9) 0.0411(5)
H23_4 H 0.4978 0.9074 0.0485
H24_4 H 0.5817 0.9119 0.0033
C36_4 C 0.6201(15) 0.8233(10) 0.0523(7)
H25_4 H 0.6363 0.8166 0.0896
H26_4 H 0.5584 0.7855 0.0393
H27_4 H 0.6919 0.8125 0.0355
H29_4 H 0.5896 0.9568 0.1368
N1_4 N 0.6333(7) 0.9720(8) 0.0628(3)
O11_4 O 0.7444(5) 0.9997(4) 0.0001(2)
loop_
_geom_bond_atom_site_label_1
_geom_bond_atom_site_label_2
_geom_bond_site_symmetry_1
_geom_bond_site_symmetry_2
O8 C27 1_555 1_555
Cd6 O4 1_555 1_555
Cd8 O8 1_555 1_555
O8 Cd5 1_555 1_555
C1 C2 1_555 1_555
C2 C3 1_555 1_555
C3 C4 1_555 1_555
C4 H1 1_555 1_555
C5 C4 1_555 1_555
H2 C5 1_555 1_555
C6 C5 1_555 1_555
C7 C6 1_555 1_555
H3 C7 1_555 1_555
C8 C3 1_555 1_555
H4 C8 1_555 1_555
C9 C1 1_555 1_555
C10 C9 1_555 1_555
H5 C10 1_555 1_555
C11 C10 1_555 1_555
H6 C11 1_555 1_555
C12 C11 1_555 1_555
C13 C12 1_555 1_555
H7 C13 1_555 1_555
C14 C9 1_555 1_555
H8 C14 1_555 1_555
C15 C1 1_555 1_555
C16 C15 1_555 1_555
H9 C16 1_555 1_555
C17 C16 1_555 1_555
H10 C17 1_555 1_555
C18 C17 1_555 1_555
C19 C18 1_555 1_555
H11 C19 1_555 1_555
C20 C15 1_555 1_555
H12 C20 1_555 1_555
C21 C2 1_555 1_555
C22 C21 1_555 1_555
H13 C22 1_555 1_555
C23 C22 1_555 1_555
C24 C23 1_555 1_555
C25 C24 1_555 1_555
H15 C25 1_555 1_555
C26 C21 1_555 1_555
H16 C26 1_555 1_555
C28 C18 1_555 1_555
C29 C6 1_555 1_555
C30 C12 1_555 1_555
C31 C39 1_555 1_555
Cd3 O1 1_555 1_555
Cd6 O1 1_555 1_555
O1 C28 1_555 1_555
O2 C28 1_555 1_555
O3 C29 1_555 1_555
O5 C30 1_555 1_555
O6 C30 1_555 1_555
O9 C31 1_555 1_555
Cd4 O7 1_555 1_555
Cd8 O5 1_555 1_555
C7 C8 1_555 1_555
C13 C14 1_555 1_555
C19 C20 1_555 1_555
C25 C26 1_555 1_555
Cd3 O2 1_555 1_555
Cd6 O9 1_555 1_555
Cd6 O10 1_555 1_555
C31 H33 1_555 1_555
C31 H34 1_555 1_555
C39 H35 1_555 1_555
C39 H36 1_555 1_555
C39 H37 1_555 1_555
C34 H22 1_555 1_555
C37 H28 1_555 1_555
C38 C37 1_555 1_555
H30 C38 1_555 1_555
H31 C38 1_555 1_555
H32 C38 1_555 1_555
C32 H17 1_555 1_555
H18 C32 1_555 1_555
C33 C32 1_555 1_555
H19 C33 1_555 1_555
H20 C33 1_555 1_555
C32_2 H17_2 1_555 1_555
H18_2 C32_2 1_555 1_555
C33_2 C32_2 1_555 1_555
H19_2 C33_2 1_555 1_555
H20_2 C33_2 1_555 1_555
H21_2 C33_2 1_555 1_555
C1_2 C2_2 1_555 1_555
C2_2 C3_2 1_555 1_555
C3_2 C4_2 1_555 1_555
C4_2 H1_2 1_555 1_555
C5_2 C4_2 1_555 1_555
H2_2 C5_2 1_555 1_555
C6_2 C5_2 1_555 1_555
C7_2 C6_2 1_555 1_555
H3_2 C7_2 1_555 1_555
C8_2 C3_2 1_555 1_555
H4_2 C8_2 1_555 1_555
C9_2 C1_2 1_555 1_555
C10_2 C9_2 1_555 1_555
H5_2 C10_2 1_555 1_555
C11_2 C10_2 1_555 1_555
H6_2 C11_2 1_555 1_555
C12_2 C11_2 1_555 1_555
C13_2 C12_2 1_555 1_555
H7_2 C13_2 1_555 1_555
C14_2 C9_2 1_555 1_555
H8_2 C14_2 1_555 1_555
C15_2 C1_2 1_555 1_555
C16_2 C15_2 1_555 1_555
H9_2 C16_2 1_555 1_555
C17_2 C16_2 1_555 1_555
H10_2 C17_2 1_555 1_555
C18_2 C17_2 1_555 1_555
C19_2 C18_2 1_555 1_555
H11_2 C19_2 1_555 1_555
C20_2 C15_2 1_555 1_555
H12_2 C20_2 1_555 1_555
C21_2 C2_2 1_555 1_555
C22_2 C21_2 1_555 1_555
H13_2 C22_2 1_555 1_555
C23_2 C22_2 1_555 1_555
C24_2 C23_2 1_555 1_555
C25_2 C24_2 1_555 1_555
H15_2 C25_2 1_555 1_555
C26_2 C21_2 1_555 1_555
H16_2 C26_2 1_555 1_555
C28_2 C18_2 1_555 1_555
C29_2 C6_2 1_555 1_555
C30_2 C12_2 1_555 1_555
C31_2 C39_2 1_555 1_555
C34_2 H22_2 1_555 1_555
C35 H23 1_555 1_555
H24 C35 1_555 1_555
C36 C35 1_555 1_555
H25 C36 1_555 1_555
H26 C36 1_555 1_555
H27 C36 1_555 1_555
C37_2 H28_2 1_555 1_555
H29 C37_2 1_555 1_555
C38_2 C37_2 1_555 1_555
H30_2 C38_2 1_555 1_555
H31_2 C38_2 1_555 1_555
H32_2 C38_2 1_555 1_555
Cd4 O1_2 1_555 1_555
Cd2 O1_2 1_555 1_555
N1 C34_2 1_555 1_555
O1_2 C28_2 1_555 1_555
O2_2 C28_2 1_555 1_555
O12 C29_2 1_555 1_555
O5_2 C30_2 1_555 1_555
O9_2 C31_2 1_555 1_555
O11 C34_2 1_555 1_555
O13 Cd2 1_555 1_555
O14_2 Cd2 1_555 1_555
O17_2 Cd4 1_555 1_555
C7_2 C8_2 1_555 1_555
C13_2 C14_2 1_555 1_555
C19_2 C20_2 1_555 1_555
C25_2 C26_2 1_555 1_555
C35 N1 1_555 1_555
C37_2 N1 1_555 1_555
Cd4 O2_2 1_555 1_555
Cd4 O11 1_555 1_555
Cd2 O9_2 1_555 1_555
Cd2 O10_2 1_555 1_555
Cd2 O17_2 1_555 1_555
C31_2 H33_2 1_555 1_555
C31_2 H34_2 1_555 1_555
C39_2 H35_2 1_555 1_555
C39_2 H37_2 1_555 1_555
O8_2 C27_2 1_555 1_555
C32_3 H17_3 1_555 1_555
H18_3 C32_3 1_555 1_555
C33_3 C32_3 1_555 1_555
H19_3 C33_3 1_555 1_555
H20_3 C33_3 1_555 1_555
C34_3 H22_3 1_555 1_555
C37_3 H28_3 1_555 1_555
C38_3 C37_3 1_555 1_555
H30_3 C38_3 1_555 1_555
H31_3 C38_3 1_555 1_555
H32_3 C38_3 1_555 1_555
C1_3 C2_3 1_555 1_555
C2_3 C3_3 1_555 1_555
C3_3 C4_3 1_555 1_555
C4_3 H1_3 1_555 1_555
C5_3 C4_3 1_555 1_555
H2_3 C5_3 1_555 1_555
C6_3 C5_3 1_555 1_555
C7_3 C6_3 1_555 1_555
H3_3 C7_3 1_555 1_555
C8_3 C3_3 1_555 1_555
H4_3 C8_3 1_555 1_555
C9_3 C1_3 1_555 1_555
C10_3 C9_3 1_555 1_555
H5_3 C10_3 1_555 1_555
C11_3 C10_3 1_555 1_555
H6_3 C11_3 1_555 1_555
C12_3 C11_3 1_555 1_555
C13_3 C12_3 1_555 1_555
H7_3 C13_3 1_555 1_555
C14_3 C9_3 1_555 1_555
H8_3 C14_3 1_555 1_555
C15_3 C1_3 1_555 1_555
C16_3 C15_3 1_555 1_555
H9_3 C16_3 1_555 1_555
C17_3 C16_3 1_555 1_555
H10_3 C17_3 1_555 1_555
C18_3 C17_3 1_555 1_555
C19_3 C18_3 1_555 1_555
H11_3 C19_3 1_555 1_555
C20_3 C15_3 1_555 1_555
H12_3 C20_3 1_555 1_555
C21_3 C2_3 1_555 1_555
C22_3 C21_3 1_555 1_555
H13_3 C22_3 1_555 1_555
C23_3 C22_3 1_555 1_555
C24_3 C23_3 1_555 1_555
C25_3 C24_3 1_555 1_555
H15_3 C25_3 1_555 1_555
C26_3 C21_3 1_555 1_555
H16_3 C26_3 1_555 1_555
C28_3 C18_3 1_555 1_555
C29_3 C6_3 1_555 1_555
C30_3 C12_3 1_555 1_555
C31_3 C39_3 1_555 1_555
Cd5_2 O1_3 1_555 1_555
Cd7 O1_3 1_555 1_555
O1_3 C28_3 1_555 1_555
O2_3 C28_3 1_555 1_555
O12_2 C29_3 1_555 1_555
O14_2 C30_3 1_555 1_555
O6_3 C30_3 1_555 1_555
O9_3 C31_3 1_555 1_555
Cd5 O16_2 1_555 1_555
O13_2 Cd7 1_555 1_555
C7_3 C8_3 1_555 1_555
C13_3 C14_3 1_555 1_555
C19_3 C20_3 1_555 1_555
C25_3 C26_3 1_555 1_555
Cd5_2 O2_3 1_555 1_555
Cd7 O9_3 1_555 1_555
Cd7 O10_3 1_555 1_555
C31_3 H33_3 1_555 1_555
C31_3 H34_3 1_555 1_555
C39_3 H35_3 1_555 1_555
C39_3 H36_3 1_555 1_555
C39_3 H37_3 1_555 1_555
O17_2 C27_3 1_555 1_555
O17 C27_4 1_555 1_555
Cd8 O4_2 1_555 1_555
C1_4 C2_4 1_555 1_555
C2_4 C3_4 1_555 1_555
C3_4 C4_4 1_555 1_555
C4_4 H1_4 1_555 1_555
C5_4 C4_4 1_555 1_555
H2_4 C5_4 1_555 1_555
C6_4 C5_4 1_555 1_555
C7_4 C6_4 1_555 1_555
H3_4 C7_4 1_555 1_555
C8_4 C3_4 1_555 1_555
H4_4 C8_4 1_555 1_555
C9_4 C1_4 1_555 1_555
C10_4 C9_4 1_555 1_555
H5_4 C10_4 1_555 1_555
C11_4 C10_4 1_555 1_555
H6_4 C11_4 1_555 1_555
C12_4 C11_4 1_555 1_555
C13_4 C12_4 1_555 1_555
H7_4 C13_4 1_555 1_555
C14_4 C9_4 1_555 1_555
H8_4 C14_4 1_555 1_555
C15_4 C1_4 1_555 1_555
C16_4 C15_4 1_555 1_555
H9_4 C16_4 1_555 1_555
C17_4 C16_4 1_555 1_555
H10_4 C17_4 1_555 1_555
C18_4 C17_4 1_555 1_555
C19_4 C18_4 1_555 1_555
H11_4 C19_4 1_555 1_555
C20_4 C15_4 1_555 1_555
H12_4 C20_4 1_555 1_555
C21_4 C2_4 1_555 1_555
C22_4 C21_4 1_555 1_555
H13_4 C22_4 1_555 1_555
C23_4 C22_4 1_555 1_555
C24_4 C23_4 1_555 1_555
C25_4 C24_4 1_555 1_555
H15_4 C25_4 1_555 1_555
C26_4 C21_4 1_555 1_555
H16_4 C26_4 1_555 1_555
C28_4 C18_4 1_555 1_555
C29_4 C6_4 1_555 1_555
C30_4 C12_4 1_555 1_555
C31_4 C39_4 1_555 1_555
C34_4 H22_4 1_555 1_555
C35_2 H23_2 1_555 1_555
H24_2 C35_2 1_555 1_555
C36_2 C35_2 1_555 1_555
H25_2 C36_2 1_555 1_555
H26_2 C36_2 1_555 1_555
H27_2 C36_2 1_555 1_555
C37_4 H28_4 1_555 1_555
H29_2 C37_4 1_555 1_555
C38_4 C37_4 1_555 1_555
H30_4 C38_4 1_555 1_555
H31_4 C38_4 1_555 1_555
H32_4 C38_4 1_555 1_555
Cd5 O1_4 1_555 1_555
Cd8 O1_4 1_555 1_555
N1_2 C34_4 1_555 1_555
O1_4 C28_4 1_555 1_555
O2_4 C28_4 1_555 1_555
O3_2 C29_4 1_555 1_555
O14 C30_4 1_555 1_555
O9_4 C31_4 1_555 1_555
O11_2 C34_4 1_555 1_555
C7_4 C8_4 1_555 1_555
C13_4 C14_4 1_555 1_555
C19_4 C20_4 1_555 1_555
C25_4 C26_4 1_555 1_555
C35_2 N1_2 1_555 1_555
C37_4 N1_2 1_555 1_555
Cd5 O2_4 1_555 1_555
Cd5 O11_2 1_555 1_555
Cd8 O9_4 1_555 1_555
Cd8 O10_4 1_555 1_555
C31_4 H33_4 1_555 1_555
C31_4 H34_4 1_555 1_555
C39_4 H35_4 1_555 1_555
C39_4 H37_4 1_555 1_555
C32_4 H17_4 1_555 1_555
H18_4 C32_4 1_555 1_555
C33_4 C32_4 1_555 1_555
H19_4 C33_4 1_555 1_555
H20_4 C33_4 1_555 1_555
H21_4 C33_4 1_555 1_555
C35_3 H23_3 1_555 1_555
H24_3 C35_3 1_555 1_555
C36_3 C35_3 1_555 1_555
H25_3 C36_3 1_555 1_555
H26_3 C36_3 1_555 1_555
H27_3 C36_3 1_555 1_555
C35_3 N1_3 1_555 1_555
C35_4 H23_4 1_555 1_555
H24_4 C35_4 1_555 1_555
C36_4 C35_4 1_555 1_555
H25_4 C36_4 1_555 1_555
H26_4 C36_4 1_555 1_555
H27_4 C36_4 1_555 1_555
C35_4 N1_4 1_555 1_555

#END
