
###############################################################################
#
# This file contains modified crystal structure data generated from the
# MOF subset of the Cambridge Structural Database (CSD) v543 
# hosted by the Cambridge Crystallographic Data Centre (CCDC).
#
# This work is licensed under the Creative Commons
# Attribution-NonCommercial-ShareAlike 4.0 International License.
# To view a copy of this license, visit
# http://creativecommons.org/licenses/by-nc-sa/4.0/
# or send a letter to
# Creative Commons, PO Box 1866, Mountain View, CA 94042, USA.
#
# CIF created using the CSD Python API on 29 September 2022
# The structure has been converted into the P1 space group
# The structure has a 3D framework
# The original CSD entry KASRED is in the monoclinic crystal system
# The framework has been calculated to contain at least 10.0% void space
# The void calculation uses a probe of radius 1.32A, grid spacing 0.4
# H atom positions have been added when not included in the experimental data
#
###############################################################################

data_KASRED
_chemical_formula_moiety         '(C148 H136 Cd5 N4 O44)n'
_symmetry_cell_setting           triclinic
_symmetry_space_group_name_H-M   'P 1'
_symmetry_Int_Tables_number      1
_space_group_name_Hall           'P 1'
loop_
_symmetry_equiv_pos_site_id
_symmetry_equiv_pos_as_xyz
1 x,y,z
_cell_length_a                   11.4917(18)
_cell_length_b                   18.524(3)
_cell_length_c                   25.727(4)
_cell_angle_alpha                90
_cell_angle_beta                 96.280(3)
_cell_angle_gamma                90
_cell_volume                     5443.7
loop_
_atom_site_label
_atom_site_type_symbol
_atom_site_fract_x
_atom_site_fract_y
_atom_site_fract_z
Cd8 Cd 0.02417(3) 0.749577(17) 0.441717(12)
Cd6 Cd 0.02417(3) 0.750423(17) 0.941717(12)
C1 C 0.4634(4) 0.7113(2) 0.19187(16)
C2 C 0.5755(4) 0.7313(3) 0.18992(16)
C3 C 0.6468(4) 0.7668(3) 0.23472(16)
C4 C 0.6110(5) 0.8307(3) 0.2550(3)
H1 H 0.5396 0.8522 0.2405
C5 C 0.6773(6) 0.8639(3) 0.2959(3)
H2 H 0.6512 0.9082 0.3092
C6 C 0.7808(4) 0.8339(2) 0.31772(16)
C7 C 0.8182(4) 0.7707(3) 0.29734(19)
H3 H 0.8893 0.7491 0.3121
C8 C 0.7530(4) 0.7382(3) 0.2556(2)
H4 H 0.7815 0.6955 0.2409
C9 C 0.4051(4) 0.7132(3) 0.24092(16)
C10 C 0.4541(4) 0.6778(3) 0.28546(19)
H5 H 0.5274 0.6541 0.2856
C11 C 0.3954(4) 0.6769(4) 0.3301(2)
H6 H 0.4298 0.6525 0.3605
C12 C 0.2886(4) 0.7105(3) 0.33126(18)
C13 C 0.2409(4) 0.7465(3) 0.28698(19)
H7 H 0.1684 0.7710 0.2872
C14 C 0.2981(4) 0.7471(3) 0.24227(19)
H8 H 0.2631 0.7712 0.2119
C15 C 0.3870(3) 0.6845(2) 0.14526(16)
C16 C 0.3282(4) 0.6197(3) 0.14800(16)
H9 H 0.3388 0.5922 0.1794
C17 C 0.2541(4) 0.5939(3) 0.10597(16)
H10 H 0.2159 0.5488 0.1085
C18 C 0.2358(3) 0.6340(2) 0.06020(16)
C19 C 0.2941(4) 0.6995(3) 0.05682(18)
H11 H 0.2818 0.7274 0.0257
C20 C 0.3704(4) 0.7242(3) 0.09886(18)
H12 H 0.4114 0.7683 0.0960
C21 C 0.6396(3) 0.7187(3) 0.14348(16)
C22 C 0.7027(4) 0.7740(3) 0.12308(19)
H13 H 0.7017 0.8210 0.1379
C23 C 0.7671(4) 0.7614(3) 0.08141(19)
H14 H 0.8083 0.8000 0.0674
C24 C 0.7715(4) 0.6935(2) 0.06026(16)
C25 C 0.7079(4) 0.6375(2) 0.08016(16)
H15 H 0.7094 0.5905 0.0654
C26 C 0.6427(4) 0.6505(2) 0.12125(16)
H16 H 0.5993 0.6123 0.1345
C27 C 0.1507(3) 0.6078(2) 0.01634(15)
C28 C 0.2253(5) 0.7087(4) 0.3796(2)
C29 C 0.8483(4) 0.8697(2) 0.36323(16)
C30 C 0.8473(4) 0.6784(3) 0.01758(16)
C31 C 0.080(4) 0.8732(13) 0.0244(11)
C32 C 0.083(3) 0.8707(14) 0.1197(9)
C33 C 0.221(3) 0.894(3) 0.1306(19)
Cd1 Cd 0.03830(2) 0.437333(16) 0.053664(10)
N1 N 0.025(2) 0.9172(11) 0.0654(9)
O1 O 0.1047(3) 0.54629(17) 0.01959(11)
O3 O 0.8666(3) 0.61228(18) 0.00880(12)
O5 O 0.2758(5) 0.6869(7) 0.4205(2)
O6 O 0.1265(4) 0.7327(2) 0.37582(16)
O7 O 0.9389(3) 0.83982(17) 0.38560(11)
O8 O 0.8141(3) 0.92922(19) 0.37857(15)
Cd5 Cd 0.96170(2) 0.937333(16) 0.446336(10)
O17 O 0.0611(3) 0.33982(17) 0.11440(11)
O19 O 0.1859(3) 0.42922(19) 0.12143(15)
H20 H 0.174764 0.8732 0.0244
H21 H 0.227298 0.951992 0.137267
H22 H 0.261679 0.865609 0.164955
H23 H 0.265779 0.879892 0.0968257
H28 H 0.0371654 0.884917 0.153137
H29 H 0.0756466 0.812818 0.112696
O2 O 0.1238(2) 0.64754(17) 0.97681(11)
O4 O 0.8860(3) 0.7305(2) 0.99471(14)
O11 O 0.1128(7) 0.8271(3) 0.9999(3)
Cd4 Cd 0.96170(2) 0.562667(16) 0.946336(10)
O14 O 0.1334(3) 0.38772(18) 0.99120(12)
O16 O 0.1265(4) 0.7673(2) 0.87582(16)
C34 C 0.927(3) 0.9849(17) 0.0726(14)
C35 C 0.823(3) 0.974(2) 0.1004(17)
O9 O 0.9233(3) 0.51500(18) 0.09225(12)
O13 O 0.8762(2) 0.35246(17) 0.02319(11)
H24 H 0.873852 0.54245 0.0649919
H25 H 0.872375 0.487657 0.114071
H32 H 0.850375 0.957995 0.140612
H34 H 0.768334 0.931844 0.0809561
C36 C 0.7986(11) 0.8660(8) 0.9257(6)
C37 C 0.6994(14) 0.863(2) 0.8892(12)
O10 O 0.9018(4) 0.8420(2) 0.90976(16)
O12 O 0.8953(3) 0.45371(17) 0.98041(11)
O18 O 0.9389(3) 0.66018(17) 0.88560(11)
H17 H 0.683214 0.807294 0.87695
H18 H 0.624084 0.88354 0.906846
H19 H 0.713546 0.895827 0.855342
H30 H 0.780869 0.833575 0.959253
H31 H 0.811201 0.922108 0.937646
C34_2 C 0.073(3) 0.4849(17) 0.4274(14)
C35_2 C 0.177(3) 0.474(2) 0.3996(17)
C36_2 C 0.2014(11) 0.3660(8) 0.5743(6)
C37_2 C 0.3006(14) 0.363(2) 0.6108(12)
O9_2 O 0.0767(3) 0.01500(18) 0.40775(12)
O10_2 O 0.0982(4) 0.3420(2) 0.59024(16)
Cd3 Cd 0.03830(2) 0.062667(16) 0.553664(10)
O15 O 0.1140(3) 0.2305(2) 0.50529(14)
O18_2 O 0.0611(3) 0.16018(17) 0.61440(11)
H17_2 H 0.316786 0.307294 0.62305
H18_2 H 0.375916 0.38354 0.593154
H19_2 H 0.286454 0.395827 0.644658
H24_2 H 0.126148 0.0424496 0.435008
H26 H 0.0233423 0.528515 0.407101
H27 H 0.105383 0.502364 0.466757
H30_2 H 0.219131 0.333575 0.540747
H31_2 H 0.188799 0.422108 0.562354
H32_2 H 0.149625 0.457995 0.359388
H33 H 0.226633 0.524099 0.399806
H34_2 H 0.231666 0.431844 0.419044
O12_2 O 0.1047(3) 0.95371(17) 0.51959(11)
O13_2 O 0.1238(2) 0.85246(17) 0.47681(11)
H25_2 H 0.127625 0.987657 0.385929
C1_2 C 0.5366(4) 0.2113(2) 0.30813(16)
C2_2 C 0.4245(4) 0.2313(3) 0.31008(16)
C3_2 C 0.3532(4) 0.2668(3) 0.26528(16)
C4_2 C 0.3890(5) 0.3307(3) 0.2450(3)
H1_2 H 0.4604 0.3522 0.2595
C5_2 C 0.3227(6) 0.3639(3) 0.2041(3)
H2_2 H 0.3488 0.4082 0.1908
C6_2 C 0.2192(4) 0.3339(2) 0.18228(16)
C7_2 C 0.1818(4) 0.2707(3) 0.20266(19)
H3_2 H 0.1107 0.2491 0.1879
C8_2 C 0.2470(4) 0.2382(3) 0.2444(2)
H4_2 H 0.2185 0.1955 0.2591
C9_2 C 0.5949(4) 0.2132(3) 0.25908(16)
C10_2 C 0.5459(4) 0.1778(3) 0.21454(19)
H5_2 H 0.4726 0.1541 0.2144
C11_2 C 0.6046(4) 0.1769(4) 0.1699(2)
H6_2 H 0.5702 0.1525 0.1395
C12_2 C 0.7114(4) 0.2105(3) 0.16874(18)
C13_2 C 0.7591(4) 0.2465(3) 0.21302(19)
H7_2 H 0.8316 0.2710 0.2128
C14_2 C 0.7019(4) 0.2471(3) 0.25773(19)
H8_2 H 0.7369 0.2712 0.2881
C15_2 C 0.6130(3) 0.1845(2) 0.35474(16)
C16_2 C 0.6718(4) 0.1197(3) 0.35200(16)
H9_2 H 0.6612 0.0922 0.3206
C17_2 C 0.7459(4) 0.0939(3) 0.39403(16)
H10_2 H 0.7841 0.0488 0.3915
C18_2 C 0.7642(3) 0.1340(2) 0.43980(16)
C19_2 C 0.7059(4) 0.1995(3) 0.44318(18)
H11_2 H 0.7182 0.2274 0.4743
C20_2 C 0.6296(4) 0.2242(3) 0.40114(18)
H12_2 H 0.5886 0.2683 0.4040
C21_2 C 0.3604(3) 0.2187(3) 0.35652(16)
C22_2 C 0.2973(4) 0.2740(3) 0.37692(19)
H13_2 H 0.2983 0.3210 0.3621
C23_2 C 0.2329(4) 0.2614(3) 0.41859(19)
H14_2 H 0.1917 0.3000 0.4326
C24_2 C 0.2285(4) 0.1935(2) 0.43974(16)
C25_2 C 0.2921(4) 0.1375(2) 0.41984(16)
H15_2 H 0.2906 0.0905 0.4346
C26_2 C 0.3573(4) 0.1505(2) 0.37875(16)
H16_2 H 0.4007 0.1123 0.3655
C27_2 C 0.8493(3) 0.1078(2) 0.48366(15)
C28_2 C 0.7747(5) 0.2087(4) 0.1204(2)
C29_2 C 0.1517(4) 0.3697(2) 0.13677(16)
C30_2 C 0.1527(4) 0.1784(3) 0.48242(16)
C31_2 C 0.920(4) 0.3732(13) 0.4756(11)
C32_2 C 0.917(3) 0.3707(14) 0.3803(9)
C33_2 C 0.779(3) 0.394(3) 0.3694(19)
Cd2 Cd 0.97583(3) 0.250423(17) 0.558283(12)
N1_2 N 0.975(2) 0.4172(11) 0.4346(9)
O1_2 O 0.8953(3) 0.04629(17) 0.48041(11)
O2_2 O 0.8762(2) 0.14754(17) 0.52319(11)
O3_2 O 0.1334(3) 0.11228(18) 0.49120(12)
O5_2 O 0.7242(5) 0.1869(7) 0.0795(2)
O6_2 O 0.8735(4) 0.2327(2) 0.12418(16)
O11_2 O 0.8872(7) 0.3271(3) 0.5001(3)
Cd7 Cd 0.97583(3) 0.249577(17) 0.058283(12)
O16_2 O 0.8735(4) 0.2673(2) 0.62418(16)
H20_2 H 0.825236 0.3732 0.4756
H21_2 H 0.772702 0.451992 0.362733
H22_2 H 0.738321 0.365609 0.335045
H23_2 H 0.734221 0.379892 0.403174
H28_2 H 0.962835 0.384917 0.346863
H29_2 H 0.924353 0.312818 0.387304
O14_2 O 0.8666(3) 0.88772(18) 0.50880(12)
C36_3 C 0.2014(11) 0.1340(8) 0.0743(6)
C37_3 C 0.3006(14) 0.137(2) 0.1108(12)
O10_3 O 0.0982(4) 0.1580(2) 0.09024(16)
O15_2 O 0.1140(3) 0.2695(2) 0.00529(14)
H17_3 H 0.316786 0.192706 0.12305
H18_3 H 0.375916 0.11646 0.0931545
H19_3 H 0.286454 0.104173 0.144658
H30_3 H 0.219131 0.166425 0.0407467
H31_3 H 0.188799 0.0778919 0.0623543
C34_3 C 0.073(3) 0.0151(17) 0.9274(14)
C35_3 C 0.177(3) 0.026(2) 0.8996(17)
O9_3 O 0.0767(3) 0.48500(18) 0.90775(12)
H24_3 H 0.126148 0.45755 0.935008
H25_3 H 0.127625 0.512343 0.885929
H32_3 H 0.149625 0.042005 0.859388
H34_3 H 0.231666 0.0681558 0.919044
O11_3 O 0.8872(7) 0.1729(3) 0.0001(3)
C1_3 C 0.5366(4) 0.2887(2) 0.80813(16)
C2_3 C 0.4245(4) 0.2687(3) 0.81008(16)
C3_3 C 0.3532(4) 0.2332(3) 0.76528(16)
C4_3 C 0.3890(5) 0.1693(3) 0.7450(3)
H1_3 H 0.4604 0.1478 0.7595
C5_3 C 0.3227(6) 0.1361(3) 0.7041(3)
H2_3 H 0.3488 0.0918 0.6908
C6_3 C 0.2192(4) 0.1661(2) 0.68228(16)
C7_3 C 0.1818(4) 0.2293(3) 0.70266(19)
H3_3 H 0.1107 0.2509 0.6879
C8_3 C 0.2470(4) 0.2618(3) 0.7444(2)
H4_3 H 0.2185 0.3045 0.7591
C9_3 C 0.5949(4) 0.2868(3) 0.75908(16)
C10_3 C 0.5459(4) 0.3222(3) 0.71454(19)
H5_3 H 0.4726 0.3459 0.7144
C11_3 C 0.6046(4) 0.3231(4) 0.6699(2)
H6_3 H 0.5702 0.3475 0.6395
C12_3 C 0.7114(4) 0.2895(3) 0.66874(18)
C13_3 C 0.7591(4) 0.2535(3) 0.71302(19)
H7_3 H 0.8316 0.2290 0.7128
C14_3 C 0.7019(4) 0.2529(3) 0.75773(19)
H8_3 H 0.7369 0.2288 0.7881
C15_3 C 0.6130(3) 0.3155(2) 0.85474(16)
C16_3 C 0.6718(4) 0.3803(3) 0.85200(16)
H9_3 H 0.6612 0.4078 0.8206
C17_3 C 0.7459(4) 0.4061(3) 0.89403(16)
H10_3 H 0.7841 0.4512 0.8915
C18_3 C 0.7642(3) 0.3660(2) 0.93980(16)
C19_3 C 0.7059(4) 0.3005(3) 0.94318(18)
H11_3 H 0.7182 0.2726 0.9743
C20_3 C 0.6296(4) 0.2758(3) 0.90114(18)
H12_3 H 0.5886 0.2317 0.9040
C21_3 C 0.3604(3) 0.2813(3) 0.85652(16)
C22_3 C 0.2973(4) 0.2260(3) 0.87692(19)
H13_3 H 0.2983 0.1790 0.8621
C23_3 C 0.2329(4) 0.2386(3) 0.91859(19)
H14_3 H 0.1917 0.2000 0.9326
C24_3 C 0.2285(4) 0.3065(2) 0.93974(16)
C25_3 C 0.2921(4) 0.3625(2) 0.91984(16)
H15_3 H 0.2906 0.4095 0.9346
C26_3 C 0.3573(4) 0.3495(2) 0.87875(16)
H16_3 H 0.4007 0.3877 0.8655
C27_3 C 0.8493(3) 0.3922(2) 0.98366(15)
C28_3 C 0.7747(5) 0.2913(4) 0.6204(2)
C29_3 C 0.1517(4) 0.1303(2) 0.63677(16)
C30_3 C 0.1527(4) 0.3216(3) 0.98242(16)
C31_3 C 0.920(4) 0.1268(13) 0.9756(11)
C32_3 C 0.917(3) 0.1293(14) 0.8803(9)
C33_3 C 0.779(3) 0.106(3) 0.8694(19)
N1_3 N 0.975(2) 0.0828(11) 0.9346(9)
O5_3 O 0.7242(5) 0.3131(7) 0.5795(2)
O8_2 O 0.1859(3) 0.07078(19) 0.62143(15)
O19_2 O 0.8141(3) 0.57078(19) 0.87857(15)
H20_3 H 0.825236 0.1268 0.9756
H21_3 H 0.772702 0.0480084 0.862733
H22_3 H 0.738321 0.134391 0.835045
H23_3 H 0.734221 0.120108 0.903174
H28_3 H 0.962835 0.115083 0.846863
H29_3 H 0.924353 0.187182 0.887304
C1_4 C 0.4634(4) 0.7887(2) 0.69187(16)
C2_4 C 0.5755(4) 0.7687(3) 0.68992(16)
C3_4 C 0.6468(4) 0.7332(3) 0.73472(16)
C4_4 C 0.6110(5) 0.6693(3) 0.7550(3)
H1_4 H 0.5396 0.6478 0.7405
C5_4 C 0.6773(6) 0.6361(3) 0.7959(3)
H2_4 H 0.6512 0.5918 0.8092
C6_4 C 0.7808(4) 0.6661(2) 0.81772(16)
C7_4 C 0.8182(4) 0.7293(3) 0.79734(19)
H3_4 H 0.8893 0.7509 0.8121
C8_4 C 0.7530(4) 0.7618(3) 0.7556(2)
H4_4 H 0.7815 0.8045 0.7409
C9_4 C 0.4051(4) 0.7868(3) 0.74092(16)
C10_4 C 0.4541(4) 0.8222(3) 0.78546(19)
H5_4 H 0.5274 0.8459 0.7856
C11_4 C 0.3954(4) 0.8231(4) 0.8301(2)
H6_4 H 0.4298 0.8475 0.8605
C12_4 C 0.2886(4) 0.7895(3) 0.83126(18)
C13_4 C 0.2409(4) 0.7535(3) 0.78698(19)
H7_4 H 0.1684 0.7290 0.7872
C14_4 C 0.2981(4) 0.7529(3) 0.74227(19)
H8_4 H 0.2631 0.7288 0.7119
C15_4 C 0.3870(3) 0.8155(2) 0.64526(16)
C16_4 C 0.3282(4) 0.8803(3) 0.64800(16)
H9_4 H 0.3388 0.9078 0.6794
C17_4 C 0.2541(4) 0.9061(3) 0.60597(16)
H10_4 H 0.2159 0.9512 0.6085
C18_4 C 0.2358(3) 0.8660(2) 0.56020(16)
C19_4 C 0.2941(4) 0.8005(3) 0.55682(18)
H11_4 H 0.2818 0.7726 0.5257
C20_4 C 0.3704(4) 0.7758(3) 0.59886(18)
H12_4 H 0.4114 0.7317 0.5960
C21_4 C 0.6396(3) 0.7813(3) 0.64348(16)
C22_4 C 0.7027(4) 0.7260(3) 0.62308(19)
H13_4 H 0.7017 0.6790 0.6379
C23_4 C 0.7671(4) 0.7386(3) 0.58141(19)
H14_4 H 0.8083 0.7000 0.5674
C24_4 C 0.7715(4) 0.8065(2) 0.56026(16)
C25_4 C 0.7079(4) 0.8625(2) 0.58016(16)
H15_4 H 0.7094 0.9095 0.5654
C26_4 C 0.6427(4) 0.8495(2) 0.62125(16)
H16_4 H 0.5993 0.8877 0.6345
C27_4 C 0.1507(3) 0.8922(2) 0.51634(15)
C28_4 C 0.2253(5) 0.7913(4) 0.8796(2)
C29_4 C 0.8483(4) 0.6303(2) 0.86323(16)
C30_4 C 0.8473(4) 0.8216(3) 0.51758(16)
C31_4 C 0.080(4) 0.6268(13) 0.5244(11)
C32_4 C 0.083(3) 0.6293(14) 0.6197(9)
C33_4 C 0.221(3) 0.606(3) 0.6306(19)
N1_4 N 0.025(2) 0.5828(11) 0.5654(9)
O4_2 O 0.8860(3) 0.7695(2) 0.49471(14)
O5_4 O 0.2758(5) 0.8131(7) 0.9205(2)
O11_4 O 0.1128(7) 0.6729(3) 0.4999(3)
H20_4 H 0.174764 0.6268 0.5244
H21_4 H 0.227298 0.548008 0.637267
H22_4 H 0.261679 0.634391 0.664955
H23_4 H 0.265779 0.620108 0.596826
H28_4 H 0.0371654 0.615083 0.653137
H29_4 H 0.0756466 0.687182 0.612696
H25_4 H 0.872375 0.0123427 0.614071
C34_4 C 0.927(3) 0.5151(17) 0.5726(14)
C35_4 C 0.823(3) 0.526(2) 0.6004(17)
C36_4 C 0.7986(11) 0.6340(8) 0.4257(6)
C37_4 C 0.6994(14) 0.637(2) 0.3892(12)
O9_4 O 0.9233(3) 0.98500(18) 0.59225(12)
O10_4 O 0.9018(4) 0.6580(2) 0.40976(16)
H17_4 H 0.683214 0.692706 0.37695
H18_4 H 0.624084 0.61646 0.406846
H19_4 H 0.713546 0.604173 0.355342
H24_4 H 0.873852 0.95755 0.564992
H26_2 H 0.976658 0.471485 0.592899
H27_2 H 0.894617 0.497636 0.533243
H30_4 H 0.780869 0.666425 0.459253
H31_4 H 0.811201 0.577892 0.437646
H32_4 H 0.850375 0.542005 0.640612
H33_2 H 0.773367 0.475901 0.600194
H34_4 H 0.768334 0.568156 0.580956
H26_3 H 0.976658 0.028515 0.0928992
H27_3 H 0.894617 0.00236427 0.0332434
H33_3 H 0.773367 0.0240985 0.100194
H26_4 H 0.0233423 0.971485 0.907101
H27_4 H 0.105383 0.997636 0.966757
H33_4 H 0.226633 0.975901 0.899806
loop_
_geom_bond_atom_site_label_1
_geom_bond_atom_site_label_2
_geom_bond_site_symmetry_1
_geom_bond_site_symmetry_2
C1 C2 1_555 1_555
C2 C3 1_555 1_555
C3 C4 1_555 1_555
C4 H1 1_555 1_555
C5 C4 1_555 1_555
H2 C5 1_555 1_555
C6 C5 1_555 1_555
C7 C6 1_555 1_555
H3 C7 1_555 1_555
C8 C3 1_555 1_555
H4 C8 1_555 1_555
C9 C1 1_555 1_555
C10 C9 1_555 1_555
H5 C10 1_555 1_555
C11 C10 1_555 1_555
H6 C11 1_555 1_555
C12 C11 1_555 1_555
C13 C12 1_555 1_555
H7 C13 1_555 1_555
C14 C9 1_555 1_555
H8 C14 1_555 1_555
C15 C1 1_555 1_555
C16 C15 1_555 1_555
H9 C16 1_555 1_555
C17 C16 1_555 1_555
H10 C17 1_555 1_555
C18 C17 1_555 1_555
C19 C18 1_555 1_555
H11 C19 1_555 1_555
C20 C15 1_555 1_555
H12 C20 1_555 1_555
C21 C2 1_555 1_555
C22 C21 1_555 1_555
H13 C22 1_555 1_555
C23 C22 1_555 1_555
H14 C23 1_555 1_555
C24 C23 1_555 1_555
C25 C24 1_555 1_555
H15 C25 1_555 1_555
C26 C21 1_555 1_555
H16 C26 1_555 1_555
C27 C18 1_555 1_555
C28 C12 1_555 1_555
C29 C6 1_555 1_555
C30 C24 1_555 1_555
C31 N1 1_555 1_555
C32 C33 1_555 1_555
Cd1 O1 1_555 1_555
N1 C32 1_555 1_555
O1 C27 1_555 1_555
O3 C30 1_555 1_555
O5 C28 1_555 1_555
O6 C28 1_555 1_555
O7 C29 1_555 1_555
O8 C29 1_555 1_555
Cd5 O7 1_555 1_555
Cd8 O6 1_555 1_555
O17 Cd1 1_555 1_555
O19 Cd1 1_555 1_555
C7 C8 1_555 1_555
C13 C14 1_555 1_555
C19 C20 1_555 1_555
C25 C26 1_555 1_555
O8 Cd5 1_555 1_555
C31 H20 1_555 1_555
C33 H21 1_555 1_555
C33 H22 1_555 1_555
C33 H23 1_555 1_555
C32 H28 1_555 1_555
C32 H29 1_555 1_555
Cd6 O2 1_555 1_555
O16 Cd6 1_555 1_555
Cd6 O11 1_555 1_555
C34 C35 1_555 1_555
O9 H24 1_555 1_555
O9 H25 1_555 1_555
C35 H32 1_555 1_555
C35 H34 1_555 1_555
C36 C37 1_555 1_555
O10 C36 1_555 1_555
Cd4 O12 1_555 1_555
Cd4 O18 1_555 1_555
C37 H17 1_555 1_555
C37 H18 1_555 1_555
C37 H19 1_555 1_555
C36 H30 1_555 1_555
C36 H31 1_555 1_555
C34_2 C35_2 1_555 1_555
C36_2 C37_2 1_555 1_555
O10_2 C36_2 1_555 1_555
Cd3 O18_2 1_555 1_555
C37_2 H17_2 1_555 1_555
C37_2 H18_2 1_555 1_555
C37_2 H19_2 1_555 1_555
O9_2 H24_2 1_555 1_555
C34_2 H26 1_555 1_555
C34_2 H27 1_555 1_555
C36_2 H30_2 1_555 1_555
C36_2 H31_2 1_555 1_555
C35_2 H32_2 1_555 1_555
C35_2 H33 1_555 1_555
C35_2 H34_2 1_555 1_555
C1_2 C2_2 1_555 1_555
C2_2 C3_2 1_555 1_555
C3_2 C4_2 1_555 1_555
C4_2 H1_2 1_555 1_555
C5_2 C4_2 1_555 1_555
H2_2 C5_2 1_555 1_555
C6_2 C5_2 1_555 1_555
C7_2 C6_2 1_555 1_555
H3_2 C7_2 1_555 1_555
C8_2 C3_2 1_555 1_555
H4_2 C8_2 1_555 1_555
C9_2 C1_2 1_555 1_555
C10_2 C9_2 1_555 1_555
H5_2 C10_2 1_555 1_555
C11_2 C10_2 1_555 1_555
H6_2 C11_2 1_555 1_555
C12_2 C11_2 1_555 1_555
C13_2 C12_2 1_555 1_555
H7_2 C13_2 1_555 1_555
C14_2 C9_2 1_555 1_555
H8_2 C14_2 1_555 1_555
C15_2 C1_2 1_555 1_555
C16_2 C15_2 1_555 1_555
H9_2 C16_2 1_555 1_555
C17_2 C16_2 1_555 1_555
H10_2 C17_2 1_555 1_555
C18_2 C17_2 1_555 1_555
C19_2 C18_2 1_555 1_555
H11_2 C19_2 1_555 1_555
C20_2 C15_2 1_555 1_555
H12_2 C20_2 1_555 1_555
C21_2 C2_2 1_555 1_555
C22_2 C21_2 1_555 1_555
H13_2 C22_2 1_555 1_555
C23_2 C22_2 1_555 1_555
H14_2 C23_2 1_555 1_555
C24_2 C23_2 1_555 1_555
C25_2 C24_2 1_555 1_555
H15_2 C25_2 1_555 1_555
C26_2 C21_2 1_555 1_555
H16_2 C26_2 1_555 1_555
C27_2 C18_2 1_555 1_555
C28_2 C12_2 1_555 1_555
C29_2 C6_2 1_555 1_555
C30_2 C24_2 1_555 1_555
C31_2 N1_2 1_555 1_555
C32_2 C33_2 1_555 1_555
Cd2 O2_2 1_555 1_555
N1_2 C32_2 1_555 1_555
O1_2 C27_2 1_555 1_555
O2_2 C27_2 1_555 1_555
O3_2 C30_2 1_555 1_555
O15 C30_2 1_555 1_555
O5_2 C28_2 1_555 1_555
O6_2 C28_2 1_555 1_555
O17 C29_2 1_555 1_555
O19 C29_2 1_555 1_555
O11_2 C31_2 1_555 1_555
Cd3 O3_2 1_555 1_555
Cd7 O6_2 1_555 1_555
O16_2 Cd2 1_555 1_555
C7_2 C8_2 1_555 1_555
C13_2 C14_2 1_555 1_555
C19_2 C20_2 1_555 1_555
C25_2 C26_2 1_555 1_555
Cd2 O11_2 1_555 1_555
C31_2 H20_2 1_555 1_555
C33_2 H21_2 1_555 1_555
C33_2 H22_2 1_555 1_555
C33_2 H23_2 1_555 1_555
C32_2 H28_2 1_555 1_555
C32_2 H29_2 1_555 1_555
O14_2 Cd5 1_555 1_555
C36_3 C37_3 1_555 1_555
O10_3 C36_3 1_555 1_555
C37_3 H17_3 1_555 1_555
C37_3 H18_3 1_555 1_555
C37_3 H19_3 1_555 1_555
C36_3 H30_3 1_555 1_555
C36_3 H31_3 1_555 1_555
C34_3 C35_3 1_555 1_555
O9_3 H24_3 1_555 1_555
O9_3 H25_3 1_555 1_555
C35_3 H32_3 1_555 1_555
C35_3 H34_3 1_555 1_555
Cd7 O13 1_555 1_555
Cd7 O11_3 1_555 1_555
C1_3 C2_3 1_555 1_555
C2_3 C3_3 1_555 1_555
C3_3 C4_3 1_555 1_555
C4_3 H1_3 1_555 1_555
C5_3 C4_3 1_555 1_555
H2_3 C5_3 1_555 1_555
C6_3 C5_3 1_555 1_555
C7_3 C6_3 1_555 1_555
H3_3 C7_3 1_555 1_555
C8_3 C3_3 1_555 1_555
H4_3 C8_3 1_555 1_555
C9_3 C1_3 1_555 1_555
C10_3 C9_3 1_555 1_555
H5_3 C10_3 1_555 1_555
C11_3 C10_3 1_555 1_555
H6_3 C11_3 1_555 1_555
C12_3 C11_3 1_555 1_555
C13_3 C12_3 1_555 1_555
H7_3 C13_3 1_555 1_555
C14_3 C9_3 1_555 1_555
H8_3 C14_3 1_555 1_555
C15_3 C1_3 1_555 1_555
C16_3 C15_3 1_555 1_555
H9_3 C16_3 1_555 1_555
C17_3 C16_3 1_555 1_555
H10_3 C17_3 1_555 1_555
C18_3 C17_3 1_555 1_555
C19_3 C18_3 1_555 1_555
H11_3 C19_3 1_555 1_555
C20_3 C15_3 1_555 1_555
H12_3 C20_3 1_555 1_555
C21_3 C2_3 1_555 1_555
C22_3 C21_3 1_555 1_555
H13_3 C22_3 1_555 1_555
C23_3 C22_3 1_555 1_555
H14_3 C23_3 1_555 1_555
C24_3 C23_3 1_555 1_555
C25_3 C24_3 1_555 1_555
H15_3 C25_3 1_555 1_555
C26_3 C21_3 1_555 1_555
H16_3 C26_3 1_555 1_555
C27_3 C18_3 1_555 1_555
C28_3 C12_3 1_555 1_555
C29_3 C6_3 1_555 1_555
C30_3 C24_3 1_555 1_555
C31_3 N1_3 1_555 1_555
C32_3 C33_3 1_555 1_555
N1_3 C32_3 1_555 1_555
O12 C27_3 1_555 1_555
O14 C30_3 1_555 1_555
O5_3 C28_3 1_555 1_555
O16_2 C28_3 1_555 1_555
O18_2 C29_3 1_555 1_555
O8_2 C29_3 1_555 1_555
O19_2 Cd4 1_555 1_555
C7_3 C8_3 1_555 1_555
C13_3 C14_3 1_555 1_555
C19_3 C20_3 1_555 1_555
C25_3 C26_3 1_555 1_555
O8_2 Cd3 1_555 1_555
C31_3 H20_3 1_555 1_555
C33_3 H21_3 1_555 1_555
C33_3 H22_3 1_555 1_555
C33_3 H23_3 1_555 1_555
C32_3 H28_3 1_555 1_555
C32_3 H29_3 1_555 1_555
C1_4 C2_4 1_555 1_555
C2_4 C3_4 1_555 1_555
C3_4 C4_4 1_555 1_555
C4_4 H1_4 1_555 1_555
C5_4 C4_4 1_555 1_555
H2_4 C5_4 1_555 1_555
C6_4 C5_4 1_555 1_555
C7_4 C6_4 1_555 1_555
H3_4 C7_4 1_555 1_555
C8_4 C3_4 1_555 1_555
H4_4 C8_4 1_555 1_555
C9_4 C1_4 1_555 1_555
C10_4 C9_4 1_555 1_555
H5_4 C10_4 1_555 1_555
C11_4 C10_4 1_555 1_555
H6_4 C11_4 1_555 1_555
C12_4 C11_4 1_555 1_555
C13_4 C12_4 1_555 1_555
H7_4 C13_4 1_555 1_555
C14_4 C9_4 1_555 1_555
H8_4 C14_4 1_555 1_555
C15_4 C1_4 1_555 1_555
C16_4 C15_4 1_555 1_555
H9_4 C16_4 1_555 1_555
C17_4 C16_4 1_555 1_555
H10_4 C17_4 1_555 1_555
C18_4 C17_4 1_555 1_555
C19_4 C18_4 1_555 1_555
H11_4 C19_4 1_555 1_555
C20_4 C15_4 1_555 1_555
H12_4 C20_4 1_555 1_555
C21_4 C2_4 1_555 1_555
C22_4 C21_4 1_555 1_555
H13_4 C22_4 1_555 1_555
C23_4 C22_4 1_555 1_555
H14_4 C23_4 1_555 1_555
C24_4 C23_4 1_555 1_555
C25_4 C24_4 1_555 1_555
H15_4 C25_4 1_555 1_555
C26_4 C21_4 1_555 1_555
H16_4 C26_4 1_555 1_555
C27_4 C18_4 1_555 1_555
C28_4 C12_4 1_555 1_555
C29_4 C6_4 1_555 1_555
C30_4 C24_4 1_555 1_555
C31_4 N1_4 1_555 1_555
C32_4 C33_4 1_555 1_555
Cd8 O13_2 1_555 1_555
N1_4 C32_4 1_555 1_555
O12_2 C27_4 1_555 1_555
O13_2 C27_4 1_555 1_555
O14_2 C30_4 1_555 1_555
O4_2 C30_4 1_555 1_555
O5_4 C28_4 1_555 1_555
O16 C28_4 1_555 1_555
O18 C29_4 1_555 1_555
O19_2 C29_4 1_555 1_555
O11_4 C31_4 1_555 1_555
C7_4 C8_4 1_555 1_555
C13_4 C14_4 1_555 1_555
C19_4 C20_4 1_555 1_555
C25_4 C26_4 1_555 1_555
Cd8 O11_4 1_555 1_555
C31_4 H20_4 1_555 1_555
C33_4 H21_4 1_555 1_555
C33_4 H22_4 1_555 1_555
C33_4 H23_4 1_555 1_555
C32_4 H28_4 1_555 1_555
C32_4 H29_4 1_555 1_555
C34_4 C35_4 1_555 1_555
C36_4 C37_4 1_555 1_555
O10_4 C36_4 1_555 1_555
C37_4 H17_4 1_555 1_555
C37_4 H18_4 1_555 1_555
C37_4 H19_4 1_555 1_555
O9_4 H24_4 1_555 1_555
C34_4 H26_2 1_555 1_555
C34_4 H27_2 1_555 1_555
C36_4 H30_4 1_555 1_555
C36_4 H31_4 1_555 1_555
C35_4 H32_4 1_555 1_555
C35_4 H33_2 1_555 1_555
C35_4 H34_4 1_555 1_555

#END
