
###############################################################################
#
# This file contains modified crystal structure data generated from the
# MOF subset of the Cambridge Structural Database (CSD) v543 
# hosted by the Cambridge Crystallographic Data Centre (CCDC).
#
# This work is licensed under the Creative Commons
# Attribution-NonCommercial-ShareAlike 4.0 International License.
# To view a copy of this license, visit
# http://creativecommons.org/licenses/by-nc-sa/4.0/
# or send a letter to
# Creative Commons, PO Box 1866, Mountain View, CA 94042, USA.
#
# CIF created using the CSD Python API on 29 September 2022
# The structure has been converted into the P1 space group
# The structure has a 3D framework
# The original CSD entry KASZOX is in the cubic crystal system
# The original CSD entry KASZOX is in a Sohncke space group
# The framework has been calculated to contain at least 10.0% void space
# The void calculation uses a probe of radius 1.32A, grid spacing 0.4
#
###############################################################################

data_KASZOX
_chemical_formula_moiety         '(C1152 H864 O384 U48)n'
_symmetry_cell_setting           triclinic
_symmetry_space_group_name_H-M   'P 1'
_symmetry_Int_Tables_number      1
_space_group_name_Hall           'P 1'
loop_
_symmetry_equiv_pos_site_id
_symmetry_equiv_pos_as_xyz
1 x,y,z
_cell_length_a                   44.055(3)
_cell_length_b                   44.055(3)
_cell_length_c                   44.055(3)
_cell_angle_alpha                90
_cell_angle_beta                 90
_cell_angle_gamma                90
_cell_volume                     85503.8
loop_
_atom_site_label
_atom_site_type_symbol
_atom_site_fract_x
_atom_site_fract_y
_atom_site_fract_z
O11 O 0.2184(3) 0.4051(5) 0.0874(4)
O12 O 0.2491(3) 0.3664(3) 0.0640(3)
C42 C 0.2089(3) 0.3674(5) 0.0165(4)
H28 H 0.229199 0.360371 0.015175
C43 C 0.1984(3) 0.3804(4) 0.0433(3)
C44 C 0.1686(4) 0.3907(6) 0.0453(4)
H29 H 0.161483 0.399557 0.063576
C45 C 0.1494(3) 0.3881(5) 0.0204(5)
H30 H 0.129042 0.395161 0.021749
C47 C 0.2238(5) 0.3852(5) 0.0640(5)
U4 U 0.26614(3) 0.38746(3) 0.11310(3)
U1 U 0.01614(3) 0.63690(3) 0.63746(3)
O1 O 0.2184(3) 0.5949(5) 0.4126(4)
O2 O 0.2491(3) 0.6336(3) 0.4360(3)
O3 O 0.0458(5) 0.6569(5) 0.5980(5)
O4 O 0.0613(4) 0.6133(4) 0.6173(4)
O6 O 0.0253(6) 0.5853(6) 0.6573(7)
O8 O 0.0368(6) 0.6548(6) 0.6693(8)
C1 C 0.0656(6) 0.6349(6) 0.5975(5)
C2 C 0.0964(4) 0.6580(4) 0.5534(4)
H1 H 0.085026 0.676354 0.553122
C3 C 0.0903(4) 0.6361(5) 0.5753(4)
C4 C 0.1070(6) 0.6093(4) 0.5757(5)
H2 H 0.102861 0.594268 0.590639
C5 C 0.1298(5) 0.6045(4) 0.5544(5)
C6 C 0.1358(4) 0.6265(5) 0.5326(4)
C7 C 0.1192(4) 0.6532(4) 0.5321(4)
H3 H 0.123312 0.668257 0.517206
C8 C 0.1599(4) 0.6248(5) 0.5064(4)
C9 C 0.1896(4) 0.6352(6) 0.5083(3)
C10 C 0.2089(3) 0.6326(5) 0.4835(4)
H4 H 0.229199 0.639629 0.484825
C11 C 0.1984(3) 0.6196(4) 0.4567(3)
C12 C 0.1686(4) 0.6093(6) 0.4547(4)
H5 H 0.161483 0.600443 0.436424
C13 C 0.1494(3) 0.6119(5) 0.4796(5)
H6 H 0.129042 0.604839 0.478251
C14 C 0.1983(9) 0.6505(14) 0.5314(9)
H7 H 0.213446 0.638930 0.542732
H8 H 0.180791 0.654747 0.544465
H9 H 0.207196 0.669734 0.524522
C15 C 0.2238(5) 0.6148(5) 0.4360(5)
C16 C 0.0034(8) 0.5877(7) 0.6778(8)
C20 C 0.0154(7) 0.5125(5) 0.7157(7)
H11 H 0.028600 0.495617 0.713641
C21 C 0.0149(8) 0.5350(7) 0.6935(6)
H12 H 0.027730 0.533391 0.676310
C24 C 0.1473(13) 0.5831(11) 0.5526(12)
H16 H 0.137514 0.564781 0.560654
H17 H 0.165616 0.587489 0.564424
H18 H 0.152817 0.579769 0.531316
O10 O 0.0253(6) 0.4147(6) 0.8427(7)
C25 C 0.0034(8) 0.4123(7) 0.8222(8)
C29 C 0.0154(7) 0.4875(5) 0.7843(7)
H20 H 0.028600 0.504383 0.786359
C30 C 0.0149(8) 0.4650(7) 0.8065(6)
H21 H 0.027730 0.466609 0.823690
U2 U 0.01614(3) 0.36310(3) 0.86254(3)
O13 O 0.0458(5) 0.3431(5) 0.9020(5)
O14 O 0.0613(4) 0.3867(4) 0.8827(4)
O16 O 0.0368(6) 0.3452(6) 0.8307(8)
C33 C 0.0656(6) 0.3651(6) 0.9025(5)
C34 C 0.0964(4) 0.3420(4) 0.9466(4)
H25 H 0.085026 0.323646 0.946878
C35 C 0.0903(4) 0.3639(5) 0.9247(4)
C36 C 0.1070(6) 0.3907(4) 0.9243(5)
H26 H 0.102861 0.405732 0.909361
C37 C 0.1298(5) 0.3955(4) 0.9456(5)
C38 C 0.1358(4) 0.3735(5) 0.9674(4)
C39 C 0.1192(4) 0.3468(4) 0.9679(4)
H27 H 0.123312 0.331743 0.982794
C40 C 0.1599(4) 0.3752(5) 0.9936(4)
C41 C 0.1896(4) 0.3648(6) 0.9917(3)
C46 C 0.1983(9) 0.3495(14) 0.9686(9)
H31 H 0.213446 0.361070 0.957268
H32 H 0.180791 0.345253 0.955535
H33 H 0.207196 0.330266 0.975478
C48 C 0.1473(13) 0.4169(11) 0.9474(12)
H34 H 0.137514 0.435219 0.939346
H35 H 0.165616 0.412511 0.935576
H36 H 0.152817 0.420231 0.968684
U3 U 0.26614(3) 0.61254(3) 0.38690(3)
O5 O 0.9848(4) 0.6113(5) 0.6781(4)
O7 O 0.9972(3) 0.6175(3) 0.6120(4)
C17 C 0.9766(5) 0.5620(4) 0.7218(5)
H10 H 0.963416 0.578876 0.723834
C18 C 0.9772(4) 0.5395(5) 0.7439(4)
C19 C 0.9965(5) 0.5148(5) 0.7409(5)
C22 C 0.9955(7) 0.5597(5) 0.6966(5)
C23 C 0.9560(13) 0.5389(12) 0.7638(15)
H13 H 0.959538 0.554777 0.778898
H14 H 0.955886 0.518999 0.773780
H15 H 0.936422 0.542283 0.753816
O9 O 0.9848(4) 0.3887(5) 0.8219(4)
C26 C 0.9766(5) 0.4380(4) 0.7782(5)
H19 H 0.963416 0.421124 0.776166
C27 C 0.9772(4) 0.4605(5) 0.7561(4)
C28 C 0.9965(5) 0.4852(5) 0.7591(5)
C31 C 0.9955(7) 0.4403(5) 0.8034(5)
C32 C 0.9560(13) 0.4611(12) 0.7362(15)
H22 H 0.959538 0.445223 0.721102
H23 H 0.955886 0.481001 0.726220
H24 H 0.936422 0.457717 0.746184
O15 O 0.9972(3) 0.3825(3) 0.8880(4)
O17 O 0.9684(3) 0.6626(4) 0.6551(5)
O18 O 0.9684(3) 0.3374(4) 0.8449(5)
O19 O 0.9991(3) 0.6860(3) 0.6164(3)
O20 O 0.9991(3) 0.3140(3) 0.8836(3)
H11_2 H 0.528600 0.004383 0.286359
O9_2 O 0.4848(4) 0.1113(5) 0.1781(4)
O10_2 O 0.5253(6) 0.0853(6) 0.1573(7)
C25_2 C 0.5034(8) 0.0877(7) 0.1778(8)
C26_2 C 0.4766(5) 0.0620(4) 0.2218(5)
H19_2 H 0.463416 0.078876 0.223834
C27_2 C 0.4772(4) 0.0395(5) 0.2439(4)
C28_2 C 0.4965(5) 0.0148(5) 0.2409(5)
C29_2 C 0.5154(7) 0.0125(5) 0.2157(7)
C30_2 C 0.5149(8) 0.0350(7) 0.1935(6)
H21_2 H 0.527730 0.033391 0.176310
C31_2 C 0.4955(7) 0.0597(5) 0.1966(5)
C32_2 C 0.4560(13) 0.0389(12) 0.2638(15)
H22_2 H 0.459538 0.054777 0.278898
H23_2 H 0.455886 0.018999 0.273780
H24_2 H 0.436422 0.042283 0.253816
U2_2 U 0.51614(3) 0.13690(3) 0.13746(3)
O13_2 O 0.5458(5) 0.1569(5) 0.0980(5)
O14_2 O 0.5613(4) 0.1133(4) 0.1173(4)
O15_2 O 0.4972(3) 0.1175(3) 0.1120(4)
O16_2 O 0.5368(6) 0.1548(6) 0.1693(8)
C33_2 C 0.5656(6) 0.1349(6) 0.0975(5)
C34_2 C 0.5964(4) 0.1580(4) 0.0534(4)
H25_2 H 0.585026 0.176354 0.053122
C35_2 C 0.5903(4) 0.1361(5) 0.0753(4)
C36_2 C 0.6070(6) 0.1093(4) 0.0757(5)
H26_2 H 0.602861 0.094268 0.090639
C37_2 C 0.6298(5) 0.1045(4) 0.0544(5)
C38_2 C 0.6358(4) 0.1265(5) 0.0326(4)
C39_2 C 0.6192(4) 0.1532(4) 0.0321(4)
H27_2 H 0.623312 0.168257 0.017206
C40_2 C 0.6599(4) 0.1248(5) 0.0064(4)
C41_2 C 0.6896(4) 0.1352(6) 0.0083(3)
C46_2 C 0.6983(9) 0.1505(14) 0.0314(9)
H31_2 H 0.713446 0.138930 0.042732
H32_2 H 0.680791 0.154747 0.044465
H33_2 H 0.707196 0.169734 0.024522
C48_2 C 0.6473(13) 0.0831(11) 0.0526(12)
H34_2 H 0.637514 0.064781 0.060654
H35_2 H 0.665616 0.087489 0.064424
H36_2 H 0.652817 0.079769 0.031316
O18_2 O 0.4684(3) 0.1626(4) 0.1551(5)
O20_2 O 0.4991(3) 0.1860(3) 0.1164(3)
O11_2 O 0.7184(3) 0.0949(5) 0.9126(4)
O12_2 O 0.7491(3) 0.1336(3) 0.9360(3)
C42_2 C 0.7089(3) 0.1326(5) 0.9835(4)
H28_2 H 0.729199 0.139629 0.984825
C43_2 C 0.6984(3) 0.1196(4) 0.9567(3)
C44_2 C 0.6686(4) 0.1093(6) 0.9547(4)
H29_2 H 0.661483 0.100443 0.936424
C45_2 C 0.6494(3) 0.1119(5) 0.9796(5)
H30_2 H 0.629042 0.104839 0.978251
C47_2 C 0.7238(5) 0.1148(5) 0.9360(5)
U4_2 U 0.76614(3) 0.11254(3) 0.88690(3)
U1_2 U 0.51614(3) 0.86310(3) 0.36254(3)
O1_2 O 0.7184(3) 0.9051(5) 0.5874(4)
O2_2 O 0.7491(3) 0.8664(3) 0.5640(3)
O3_2 O 0.5458(5) 0.8431(5) 0.4020(5)
O4_2 O 0.5613(4) 0.8867(4) 0.3827(4)
O5_2 O 0.4848(4) 0.8887(5) 0.3219(4)
O6_2 O 0.5253(6) 0.9147(6) 0.3427(7)
O7_2 O 0.4972(3) 0.8825(3) 0.3880(4)
O8_2 O 0.5368(6) 0.8452(6) 0.3307(8)
C1_2 C 0.5656(6) 0.8651(6) 0.4025(5)
C2_2 C 0.5964(4) 0.8420(4) 0.4466(4)
H1_2 H 0.585026 0.823646 0.446878
C3_2 C 0.5903(4) 0.8639(5) 0.4247(4)
C4_2 C 0.6070(6) 0.8907(4) 0.4243(5)
H2_2 H 0.602861 0.905732 0.409361
C5_2 C 0.6298(5) 0.8955(4) 0.4456(5)
C6_2 C 0.6358(4) 0.8735(5) 0.4674(4)
C7_2 C 0.6192(4) 0.8468(4) 0.4679(4)
H3_2 H 0.623312 0.831743 0.482794
C8_2 C 0.6599(4) 0.8752(5) 0.4936(4)
C9_2 C 0.6896(4) 0.8648(6) 0.4917(3)
C10_2 C 0.7089(3) 0.8674(5) 0.5165(4)
H4_2 H 0.729199 0.860371 0.515175
C11_2 C 0.6984(3) 0.8804(4) 0.5433(3)
C12_2 C 0.6686(4) 0.8907(6) 0.5453(4)
H5_2 H 0.661483 0.899557 0.563576
C13_2 C 0.6494(3) 0.8881(5) 0.5204(5)
H6_2 H 0.629042 0.895161 0.521749
C14_2 C 0.6983(9) 0.8495(14) 0.4686(9)
H7_2 H 0.713446 0.861070 0.457268
H8_2 H 0.680791 0.845253 0.455535
H9_2 H 0.707196 0.830266 0.475478
C15_2 C 0.7238(5) 0.8852(5) 0.5640(5)
C16_2 C 0.5034(8) 0.9123(7) 0.3222(8)
C17_2 C 0.4766(5) 0.9380(4) 0.2782(5)
H10_2 H 0.463416 0.921124 0.276166
C18_2 C 0.4772(4) 0.9605(5) 0.2561(4)
C19_2 C 0.4965(5) 0.9852(5) 0.2591(5)
C20_2 C 0.5154(7) 0.9875(5) 0.2843(7)
C21_2 C 0.5149(8) 0.9650(7) 0.3065(6)
H12_2 H 0.527730 0.966609 0.323690
C22_2 C 0.4955(7) 0.9403(5) 0.3034(5)
C23_2 C 0.4560(13) 0.9611(12) 0.2362(15)
H13_2 H 0.459538 0.945223 0.221102
H14_2 H 0.455886 0.981001 0.226220
H15_2 H 0.436422 0.957717 0.246184
C24_2 C 0.6473(13) 0.9169(11) 0.4474(12)
H16_2 H 0.637514 0.935219 0.439346
H17_2 H 0.665616 0.912511 0.435576
H18_2 H 0.652817 0.920231 0.468684
H20_2 H 0.528600 0.995617 0.213641
U3_2 U 0.76614(3) 0.88746(3) 0.61310(3)
O17_2 O 0.4684(3) 0.8374(4) 0.3449(5)
O19_2 O 0.4991(3) 0.8140(3) 0.3836(3)
C23_3 C 0.7060(13) 0.0138(15) 0.7111(12)
H13_3 H 0.709538 0.028898 0.695223
H14_3 H 0.705886 0.023780 0.731001
H15_3 H 0.686422 0.003816 0.707717
O9_3 O 0.7348(4) 0.0719(4) 0.8613(5)
O10_3 O 0.7753(6) 0.0927(7) 0.8353(6)
C25_3 C 0.7534(8) 0.0722(8) 0.8377(7)
C26_3 C 0.7266(5) 0.0282(5) 0.8120(4)
H19_3 H 0.713416 0.026166 0.828876
C27_3 C 0.7272(4) 0.0061(4) 0.7895(5)
C28_3 C 0.7465(5) 0.0091(5) 0.7648(5)
C29_3 C 0.7654(7) 0.0343(7) 0.7625(5)
H20_3 H 0.778600 0.036359 0.745617
C30_3 C 0.7649(8) 0.0565(6) 0.7850(7)
H21_3 H 0.777730 0.073690 0.783391
C31_3 C 0.7455(7) 0.0534(5) 0.8097(5)
O13_3 O 0.7958(5) 0.1520(5) 0.9069(5)
O14_3 O 0.8113(4) 0.1327(4) 0.8633(4)
O15_3 O 0.7472(3) 0.1380(4) 0.8675(3)
O16_3 O 0.7868(6) 0.0807(8) 0.9048(6)
C33_3 C 0.8156(6) 0.1525(5) 0.8849(6)
C34_3 C 0.8464(4) 0.1966(4) 0.9080(4)
H25_3 H 0.835026 0.196878 0.926354
C35_3 C 0.8403(4) 0.1747(4) 0.8861(5)
C36_3 C 0.8570(6) 0.1743(5) 0.8593(4)
H26_3 H 0.852861 0.159361 0.844268
C37_3 C 0.8798(5) 0.1956(5) 0.8545(4)
C38_3 C 0.8858(4) 0.2174(4) 0.8765(5)
C39_3 C 0.8692(4) 0.2179(4) 0.9032(4)
H27_3 H 0.873312 0.232794 0.918257
C40_3 C 0.9099(4) 0.2436(4) 0.8748(5)
C41_3 C 0.9396(4) 0.2417(3) 0.8852(6)
C42_3 C 0.9589(3) 0.2665(4) 0.8826(5)
H28_3 H 0.979199 0.265175 0.889629
C43_3 C 0.9484(3) 0.2933(3) 0.8696(4)
C44_3 C 0.9186(4) 0.2953(4) 0.8593(6)
H29_3 H 0.911483 0.313576 0.850443
C45_3 C 0.8994(3) 0.2704(5) 0.8619(5)
H30_3 H 0.879042 0.271749 0.854839
C46_3 C 0.9483(9) 0.2186(9) 0.9005(14)
H31_3 H 0.963446 0.207268 0.888930
H32_3 H 0.930791 0.205535 0.904747
H33_3 H 0.957196 0.225478 0.919734
C47_3 C 0.9738(5) 0.3140(5) 0.8648(5)
C48_3 C 0.8973(13) 0.1974(12) 0.8331(11)
H34_3 H 0.887514 0.189346 0.814781
H35_3 H 0.915616 0.185576 0.837489
H36_3 H 0.902817 0.218684 0.829769
O3_3 O 0.7958(5) 0.8480(5) 0.5931(5)
O4_3 O 0.8113(4) 0.8673(4) 0.6367(4)
O5_3 O 0.7348(4) 0.9281(4) 0.6387(5)
O6_3 O 0.7753(6) 0.9073(7) 0.6647(6)
O7_3 O 0.7472(3) 0.8620(4) 0.6325(3)
O8_3 O 0.7868(6) 0.9193(8) 0.5952(6)
C1_3 C 0.8156(6) 0.8475(5) 0.6151(6)
C2_3 C 0.8464(4) 0.8034(4) 0.5920(4)
H1_3 H 0.835026 0.803122 0.573646
C3_3 C 0.8403(4) 0.8253(4) 0.6139(5)
C4_3 C 0.8570(6) 0.8257(5) 0.6407(4)
H2_3 H 0.852861 0.840639 0.655732
C5_3 C 0.8798(5) 0.8044(5) 0.6455(4)
C6_3 C 0.8858(4) 0.7826(4) 0.6235(5)
C7_3 C 0.8692(4) 0.7821(4) 0.5968(4)
H3_3 H 0.873312 0.767206 0.581743
C8_3 C 0.9099(4) 0.7564(4) 0.6252(5)
C9_3 C 0.9396(4) 0.7583(3) 0.6148(6)
C10_3 C 0.9589(3) 0.7335(4) 0.6174(5)
H4_3 H 0.979199 0.734825 0.610371
C11_3 C 0.9484(3) 0.7067(3) 0.6304(4)
C12_3 C 0.9186(4) 0.7047(4) 0.6407(6)
H5_3 H 0.911483 0.686424 0.649557
C13_3 C 0.8994(3) 0.7296(5) 0.6381(5)
H6_3 H 0.879042 0.728251 0.645161
C14_3 C 0.9483(9) 0.7814(9) 0.5995(14)
H7_3 H 0.963446 0.792732 0.611070
H8_3 H 0.930791 0.794465 0.595253
H9_3 H 0.957196 0.774522 0.580266
C15_3 C 0.9738(5) 0.6860(5) 0.6352(5)
C16_3 C 0.7534(8) 0.9278(8) 0.6623(7)
C17_3 C 0.7266(5) 0.9718(5) 0.6880(4)
H10_3 H 0.713416 0.973834 0.671124
C18_3 C 0.7272(4) 0.9939(4) 0.7105(5)
C19_3 C 0.7465(5) 0.9909(5) 0.7352(5)
C20_3 C 0.7654(7) 0.9657(7) 0.7375(5)
H11_3 H 0.778600 0.963641 0.754383
C21_3 C 0.7649(8) 0.9435(6) 0.7150(7)
H12_3 H 0.777730 0.926310 0.716609
C22_3 C 0.7455(7) 0.9466(5) 0.6903(5)
C24_3 C 0.8973(13) 0.8026(12) 0.6669(11)
H16_3 H 0.887514 0.810654 0.685219
H17_3 H 0.915616 0.814424 0.662511
H18_3 H 0.902817 0.781316 0.670231
C32_3 C 0.7060(13) 0.9862(15) 0.7889(12)
H22_3 H 0.709538 0.971102 0.804777
H23_3 H 0.705886 0.976220 0.768999
H24_3 H 0.686422 0.996184 0.792283
O3_4 O 0.2958(5) 0.6520(5) 0.4069(5)
O4_4 O 0.3113(4) 0.6327(4) 0.3633(4)
O5_4 O 0.2348(4) 0.5719(4) 0.3613(5)
O6_4 O 0.2753(6) 0.5927(7) 0.3353(6)
O7_4 O 0.2472(3) 0.6380(4) 0.3675(3)
O8_4 O 0.2868(6) 0.5807(8) 0.4048(6)
C1_4 C 0.3156(6) 0.6525(5) 0.3849(6)
C2_4 C 0.3464(4) 0.6966(4) 0.4080(4)
H1_4 H 0.335026 0.696878 0.426354
C3_4 C 0.3403(4) 0.6747(4) 0.3861(5)
C4_4 C 0.3570(6) 0.6743(5) 0.3593(4)
H2_4 H 0.352861 0.659361 0.344268
C5_4 C 0.3798(5) 0.6956(5) 0.3545(4)
C6_4 C 0.3858(4) 0.7174(4) 0.3765(5)
C7_4 C 0.3692(4) 0.7179(4) 0.4032(4)
H3_4 H 0.373312 0.732794 0.418257
C8_4 C 0.4099(4) 0.7436(4) 0.3748(5)
C9_4 C 0.4396(4) 0.7417(3) 0.3852(6)
C10_4 C 0.4589(3) 0.7665(4) 0.3826(5)
H4_4 H 0.479199 0.765175 0.389629
C11_4 C 0.4484(3) 0.7933(3) 0.3696(4)
C12_4 C 0.4186(4) 0.7953(4) 0.3593(6)
H5_4 H 0.411483 0.813576 0.350443
C13_4 C 0.3994(3) 0.7704(5) 0.3619(5)
H6_4 H 0.379042 0.771749 0.354839
C14_4 C 0.4483(9) 0.7186(9) 0.4005(14)
H7_4 H 0.463446 0.707268 0.388930
H8_4 H 0.430791 0.705535 0.404747
H9_4 H 0.457196 0.725478 0.419734
C15_4 C 0.4738(5) 0.8140(5) 0.3648(5)
C16_4 C 0.2534(8) 0.5722(8) 0.3377(7)
C17_4 C 0.2266(5) 0.5282(5) 0.3120(4)
H10_4 H 0.213416 0.526166 0.328876
C18_4 C 0.2272(4) 0.5061(4) 0.2895(5)
C19_4 C 0.2465(5) 0.5091(5) 0.2648(5)
C20_4 C 0.2654(7) 0.5343(7) 0.2625(5)
H11_4 H 0.278600 0.536359 0.245617
C21_4 C 0.2649(8) 0.5565(6) 0.2850(7)
H12_4 H 0.277730 0.573690 0.283391
C22_4 C 0.2455(7) 0.5534(5) 0.3097(5)
C23_4 C 0.2060(13) 0.4862(15) 0.2889(12)
H13_4 H 0.209538 0.471102 0.304777
H14_4 H 0.205886 0.476220 0.268999
H15_4 H 0.186422 0.496184 0.292283
C24_4 C 0.3973(13) 0.6974(12) 0.3331(11)
H16_4 H 0.387514 0.689346 0.314781
H17_4 H 0.415616 0.685576 0.337489
H18_4 H 0.402817 0.718684 0.329769
O9_4 O 0.2348(4) 0.4281(4) 0.1387(5)
O10_4 O 0.2753(6) 0.4073(7) 0.1647(6)
C25_4 C 0.2534(8) 0.4278(8) 0.1623(7)
C26_4 C 0.2266(5) 0.4718(5) 0.1880(4)
H19_4 H 0.213416 0.473834 0.171124
C27_4 C 0.2272(4) 0.4939(4) 0.2105(5)
C28_4 C 0.2465(5) 0.4909(5) 0.2352(5)
C29_4 C 0.2654(7) 0.4657(7) 0.2375(5)
H20_4 H 0.278600 0.463641 0.254383
C30_4 C 0.2649(8) 0.4435(6) 0.2150(7)
H21_4 H 0.277730 0.426310 0.216609
C31_4 C 0.2455(7) 0.4466(5) 0.1903(5)
C32_4 C 0.2060(13) 0.5138(15) 0.2111(12)
H22_4 H 0.209538 0.528898 0.195223
H23_4 H 0.205886 0.523780 0.231001
H24_4 H 0.186422 0.503816 0.207717
O13_4 O 0.2958(5) 0.3480(5) 0.0931(5)
O14_4 O 0.3113(4) 0.3673(4) 0.1367(4)
O15_4 O 0.2472(3) 0.3620(4) 0.1325(3)
O16_4 O 0.2868(6) 0.4193(8) 0.0952(6)
C33_4 C 0.3156(6) 0.3475(5) 0.1151(6)
C34_4 C 0.3464(4) 0.3034(4) 0.0920(4)
H25_4 H 0.335026 0.303122 0.073646
C35_4 C 0.3403(4) 0.3253(4) 0.1139(5)
C36_4 C 0.3570(6) 0.3257(5) 0.1407(4)
H26_4 H 0.352861 0.340639 0.155732
C37_4 C 0.3798(5) 0.3044(5) 0.1455(4)
C38_4 C 0.3858(4) 0.2826(4) 0.1235(5)
C39_4 C 0.3692(4) 0.2821(4) 0.0968(4)
H27_4 H 0.373312 0.267206 0.081743
C40_4 C 0.4099(4) 0.2564(4) 0.1252(5)
C41_4 C 0.4396(4) 0.2583(3) 0.1148(6)
C42_4 C 0.4589(3) 0.2335(4) 0.1174(5)
H28_4 H 0.479199 0.234825 0.110371
C43_4 C 0.4484(3) 0.2067(3) 0.1304(4)
C44_4 C 0.4186(4) 0.2047(4) 0.1407(6)
H29_4 H 0.411483 0.186424 0.149557
C45_4 C 0.3994(3) 0.2296(5) 0.1381(5)
H30_4 H 0.379042 0.228251 0.145161
C46_4 C 0.4483(9) 0.2814(9) 0.0995(14)
H31_4 H 0.463446 0.292732 0.111070
H32_4 H 0.430791 0.294465 0.095253
H33_4 H 0.457196 0.274522 0.080266
C47_4 C 0.4738(5) 0.1860(5) 0.1352(5)
C48_4 C 0.3973(13) 0.3026(12) 0.1669(11)
H34_4 H 0.387514 0.310654 0.185219
H35_4 H 0.415616 0.314424 0.162511
H36_4 H 0.402817 0.281316 0.170231
U1_3 U 0.48386(3) 0.36310(3) 0.13746(3)
O3_5 O 0.4542(5) 0.3431(5) 0.0980(5)
O4_5 O 0.4387(4) 0.3867(4) 0.1173(4)
O5_5 O 0.5152(4) 0.3887(5) 0.1781(4)
O6_5 O 0.4747(6) 0.4147(6) 0.1573(7)
O7_5 O 0.5028(3) 0.3825(3) 0.1120(4)
O8_5 O 0.4632(6) 0.3452(6) 0.1693(8)
C1_5 C 0.4344(6) 0.3651(6) 0.0975(5)
C2_5 C 0.4036(4) 0.3420(4) 0.0534(4)
H1_5 H 0.414974 0.323646 0.053122
C3_5 C 0.4097(4) 0.3639(5) 0.0753(4)
C4_5 C 0.3930(6) 0.3907(4) 0.0757(5)
H2_5 H 0.397139 0.405732 0.090639
C5_5 C 0.3702(5) 0.3955(4) 0.0544(5)
C6_5 C 0.3642(4) 0.3735(5) 0.0326(4)
C7_5 C 0.3808(4) 0.3468(4) 0.0321(4)
H3_5 H 0.376688 0.331743 0.017206
C8_5 C 0.3401(4) 0.3752(5) 0.0064(4)
C9_5 C 0.3104(4) 0.3648(6) 0.0083(3)
C14_5 C 0.3017(9) 0.3495(14) 0.0314(9)
H7_5 H 0.286554 0.361070 0.042732
H8_5 H 0.319209 0.345253 0.044465
H9_5 H 0.292804 0.330266 0.024522
C16_5 C 0.4966(8) 0.4123(7) 0.1778(8)
C17_5 C 0.5234(5) 0.4380(4) 0.2218(5)
H10_5 H 0.536584 0.421124 0.223834
C18_5 C 0.5228(4) 0.4605(5) 0.2439(4)
C19_5 C 0.5035(5) 0.4852(5) 0.2409(5)
C20_5 C 0.4846(7) 0.4875(5) 0.2157(7)
H11_5 H 0.471400 0.504383 0.213641
C21_5 C 0.4851(8) 0.4650(7) 0.1935(6)
H12_5 H 0.472270 0.466609 0.176310
C22_5 C 0.5045(7) 0.4403(5) 0.1966(5)
C23_5 C 0.5440(13) 0.4611(12) 0.2638(15)
H13_5 H 0.540462 0.445223 0.278898
H14_5 H 0.544114 0.481001 0.273780
H15_5 H 0.563578 0.457717 0.253816
C24_5 C 0.3527(13) 0.4169(11) 0.0526(12)
H16_5 H 0.362486 0.435219 0.060654
H17_5 H 0.334384 0.412511 0.064424
H18_5 H 0.347183 0.420231 0.031316
O9_5 O 0.5152(4) 0.6113(5) 0.3219(4)
O10_5 O 0.4747(6) 0.5853(6) 0.3427(7)
C25_5 C 0.4966(8) 0.5877(7) 0.3222(8)
C26_5 C 0.5234(5) 0.5620(4) 0.2782(5)
H19_5 H 0.536584 0.578876 0.276166
C27_5 C 0.5228(4) 0.5395(5) 0.2561(4)
C28_5 C 0.5035(5) 0.5148(5) 0.2591(5)
C29_5 C 0.4846(7) 0.5125(5) 0.2843(7)
H20_5 H 0.471400 0.495617 0.286359
C30_5 C 0.4851(8) 0.5350(7) 0.3065(6)
H21_5 H 0.472270 0.533391 0.323690
C31_5 C 0.5045(7) 0.5597(5) 0.3034(5)
C32_5 C 0.5440(13) 0.5389(12) 0.2362(15)
H22_5 H 0.540462 0.554777 0.221102
H23_5 H 0.544114 0.518999 0.226220
H24_5 H 0.563578 0.542283 0.246184
U2_3 U 0.48386(3) 0.63690(3) 0.36254(3)
O11_3 O 0.2816(3) 0.5949(5) 0.5874(4)
O12_3 O 0.2509(3) 0.6336(3) 0.5640(3)
O13_5 O 0.4542(5) 0.6569(5) 0.4020(5)
O14_5 O 0.4387(4) 0.6133(4) 0.3827(4)
O15_5 O 0.5028(3) 0.6175(3) 0.3880(4)
O16_5 O 0.4632(6) 0.6548(6) 0.3307(8)
C33_5 C 0.4344(6) 0.6349(6) 0.4025(5)
C34_5 C 0.4036(4) 0.6580(4) 0.4466(4)
H25_5 H 0.414974 0.676354 0.446878
C35_5 C 0.4097(4) 0.6361(5) 0.4247(4)
C36_5 C 0.3930(6) 0.6093(4) 0.4243(5)
H26_5 H 0.397139 0.594268 0.409361
C37_5 C 0.3702(5) 0.6045(4) 0.4456(5)
C38_5 C 0.3642(4) 0.6265(5) 0.4674(4)
C39_5 C 0.3808(4) 0.6532(4) 0.4679(4)
H27_5 H 0.376688 0.668257 0.482794
C40_5 C 0.3401(4) 0.6248(5) 0.4936(4)
C41_5 C 0.3104(4) 0.6352(6) 0.4917(3)
C42_5 C 0.2911(3) 0.6326(5) 0.5165(4)
H28_5 H 0.270801 0.639629 0.515175
C43_5 C 0.3016(3) 0.6196(4) 0.5433(3)
C44_5 C 0.3314(4) 0.6093(6) 0.5453(4)
H29_5 H 0.338517 0.600443 0.563576
C45_5 C 0.3506(3) 0.6119(5) 0.5204(5)
H30_5 H 0.370958 0.604839 0.521749
C46_5 C 0.3017(9) 0.6505(14) 0.4686(9)
H31_5 H 0.286554 0.638930 0.457268
H32_5 H 0.319209 0.654747 0.455535
H33_5 H 0.292804 0.669734 0.475478
C47_5 C 0.2762(5) 0.6148(5) 0.5640(5)
C48_5 C 0.3527(13) 0.5831(11) 0.4474(12)
H34_5 H 0.362486 0.564781 0.439346
H35_5 H 0.334384 0.587489 0.435576
H36_5 H 0.347183 0.579769 0.468684
U4_3 U 0.23386(3) 0.61254(3) 0.61310(3)
O17_3 O 0.5316(3) 0.3374(4) 0.1551(5)
O18_3 O 0.5316(3) 0.6626(4) 0.3449(5)
O19_3 O 0.5009(3) 0.3140(3) 0.1164(3)
O20_3 O 0.5009(3) 0.6860(3) 0.3836(3)
O1_3 O 0.2816(3) 0.4051(5) 0.9126(4)
O2_3 O 0.2509(3) 0.3664(3) 0.9360(3)
C10_5 C 0.2911(3) 0.3674(5) 0.9835(4)
H4_5 H 0.270801 0.360371 0.984825
C11_5 C 0.3016(3) 0.3804(4) 0.9567(3)
C12_5 C 0.3314(4) 0.3907(6) 0.9547(4)
H5_5 H 0.338517 0.399557 0.936424
C13_5 C 0.3506(3) 0.3881(5) 0.9796(5)
H6_5 H 0.370958 0.395161 0.978251
C15_5 C 0.2762(5) 0.3852(5) 0.9360(5)
U3_3 U 0.23386(3) 0.38746(3) 0.88690(3)
O5_6 O 0.0152(4) 0.1113(5) 0.8219(4)
O7_6 O 0.0028(3) 0.1175(3) 0.8880(4)
C17_6 C 0.0234(5) 0.0620(4) 0.7782(5)
H10_6 H 0.036584 0.078876 0.776166
C18_6 C 0.0228(4) 0.0395(5) 0.7561(4)
C19_6 C 0.0035(5) 0.0148(5) 0.7591(5)
C22_6 C 0.0045(7) 0.0597(5) 0.8034(5)
C23_6 C 0.0440(13) 0.0389(12) 0.7362(15)
H13_6 H 0.040462 0.054777 0.721102
H14_6 H 0.044114 0.018999 0.726220
H15_6 H 0.063578 0.042283 0.746184
O17_4 O 0.0316(3) 0.1626(4) 0.8449(5)
O19_4 O 0.0009(3) 0.1860(3) 0.8836(3)
O9_6 O 0.0152(4) 0.8887(5) 0.6781(4)
C26_6 C 0.0234(5) 0.9380(4) 0.7218(5)
H19_6 H 0.036584 0.921124 0.723834
C27_6 C 0.0228(4) 0.9605(5) 0.7439(4)
C28_6 C 0.0035(5) 0.9852(5) 0.7409(5)
C31_6 C 0.0045(7) 0.9403(5) 0.6966(5)
C32_6 C 0.0440(13) 0.9611(12) 0.7638(15)
H22_6 H 0.040462 0.945223 0.778898
H23_6 H 0.044114 0.981001 0.773780
H24_6 H 0.063578 0.957717 0.753816
O15_6 O 0.0028(3) 0.8825(3) 0.6120(4)
O18_4 O 0.0316(3) 0.8374(4) 0.6551(5)
O20_4 O 0.0009(3) 0.8140(3) 0.6164(3)
O1_4 O 0.7816(3) 0.0949(5) 0.0874(4)
O2_4 O 0.7509(3) 0.1336(3) 0.0640(3)
C10_6 C 0.7911(3) 0.1326(5) 0.0165(4)
H4_6 H 0.770801 0.139629 0.015175
C11_6 C 0.8016(3) 0.1196(4) 0.0433(3)
C12_6 C 0.8314(4) 0.1093(6) 0.0453(4)
H5_6 H 0.838517 0.100443 0.063576
C13_6 C 0.8506(3) 0.1119(5) 0.0204(5)
H6_6 H 0.870958 0.104839 0.021749
C15_6 C 0.7762(5) 0.1148(5) 0.0640(5)
U3_4 U 0.73386(3) 0.11254(3) 0.11310(3)
U1_4 U 0.98386(3) 0.13690(3) 0.86254(3)
O3_6 O 0.9542(5) 0.1569(5) 0.9020(5)
O4_6 O 0.9387(4) 0.1133(4) 0.8827(4)
O6_6 O 0.9747(6) 0.0853(6) 0.8427(7)
O8_6 O 0.9632(6) 0.1548(6) 0.8307(8)
C1_6 C 0.9344(6) 0.1349(6) 0.9025(5)
C2_6 C 0.9036(4) 0.1580(4) 0.9466(4)
H1_6 H 0.914974 0.176354 0.946878
C3_6 C 0.9097(4) 0.1361(5) 0.9247(4)
C4_6 C 0.8930(6) 0.1093(4) 0.9243(5)
H2_6 H 0.897139 0.094268 0.909361
C5_6 C 0.8702(5) 0.1045(4) 0.9456(5)
C6_6 C 0.8642(4) 0.1265(5) 0.9674(4)
C7_6 C 0.8808(4) 0.1532(4) 0.9679(4)
H3_6 H 0.876688 0.168257 0.982794
C8_6 C 0.8401(4) 0.1248(5) 0.9936(4)
C9_6 C 0.8104(4) 0.1352(6) 0.9917(3)
C14_6 C 0.8017(9) 0.1505(14) 0.9686(9)
H7_6 H 0.786554 0.138930 0.957268
H8_6 H 0.819209 0.154747 0.955535
H9_6 H 0.792804 0.169734 0.975478
C16_6 C 0.9966(8) 0.0877(7) 0.8222(8)
C20_6 C 0.9846(7) 0.0125(5) 0.7843(7)
C21_6 C 0.9851(8) 0.0350(7) 0.8065(6)
H12_6 H 0.972270 0.033391 0.823690
C24_6 C 0.8527(13) 0.0831(11) 0.9474(12)
H16_6 H 0.862486 0.064781 0.939346
H17_6 H 0.834384 0.087489 0.935576
H18_6 H 0.847183 0.079769 0.968684
H20_6 H 0.971400 0.004383 0.713641
H11_6 H 0.971400 0.995617 0.786359
O10_6 O 0.9747(6) 0.9147(6) 0.6573(7)
C25_6 C 0.9966(8) 0.9123(7) 0.6778(8)
C29_6 C 0.9846(7) 0.9875(5) 0.7157(7)
C30_6 C 0.9851(8) 0.9650(7) 0.6935(6)
H21_6 H 0.972270 0.966609 0.676310
U2_4 U 0.98386(3) 0.86310(3) 0.63746(3)
O11_4 O 0.7816(3) 0.9051(5) 0.4126(4)
O12_4 O 0.7509(3) 0.8664(3) 0.4360(3)
O13_6 O 0.9542(5) 0.8431(5) 0.5980(5)
O14_6 O 0.9387(4) 0.8867(4) 0.6173(4)
O16_6 O 0.9632(6) 0.8452(6) 0.6693(8)
C33_6 C 0.9344(6) 0.8651(6) 0.5975(5)
C34_6 C 0.9036(4) 0.8420(4) 0.5534(4)
H25_6 H 0.914974 0.823646 0.553122
C35_6 C 0.9097(4) 0.8639(5) 0.5753(4)
C36_6 C 0.8930(6) 0.8907(4) 0.5757(5)
H26_6 H 0.897139 0.905732 0.590639
C37_6 C 0.8702(5) 0.8955(4) 0.5544(5)
C38_6 C 0.8642(4) 0.8735(5) 0.5326(4)
C39_6 C 0.8808(4) 0.8468(4) 0.5321(4)
H27_6 H 0.876688 0.831743 0.517206
C40_6 C 0.8401(4) 0.8752(5) 0.5064(4)
C41_6 C 0.8104(4) 0.8648(6) 0.5083(3)
C42_6 C 0.7911(3) 0.8674(5) 0.4835(4)
H28_6 H 0.770801 0.860371 0.484825
C43_6 C 0.8016(3) 0.8804(4) 0.4567(3)
C44_6 C 0.8314(4) 0.8907(6) 0.4547(4)
H29_6 H 0.838517 0.899557 0.436424
C45_6 C 0.8506(3) 0.8881(5) 0.4796(5)
H30_6 H 0.870958 0.895161 0.478251
C46_6 C 0.8017(9) 0.8495(14) 0.5314(9)
H31_6 H 0.786554 0.861070 0.542732
H32_6 H 0.819209 0.845253 0.544465
H33_6 H 0.792804 0.830266 0.524522
C47_6 C 0.7762(5) 0.8852(5) 0.4360(5)
C48_6 C 0.8527(13) 0.9169(11) 0.5526(12)
H34_6 H 0.862486 0.935219 0.560654
H35_6 H 0.834384 0.912511 0.564424
H36_6 H 0.847183 0.920231 0.531316
U4_4 U 0.73386(3) 0.88746(3) 0.38690(3)
O3_7 O 0.2042(5) 0.3480(5) 0.9069(5)
O4_7 O 0.1887(4) 0.3673(4) 0.8633(4)
O5_7 O 0.2652(4) 0.4281(4) 0.8613(5)
O6_7 O 0.2247(6) 0.4073(7) 0.8353(6)
O7_7 O 0.2528(3) 0.3620(4) 0.8675(3)
O8_7 O 0.2132(6) 0.4193(8) 0.9048(6)
C1_7 C 0.1844(6) 0.3475(5) 0.8849(6)
C2_7 C 0.1536(4) 0.3034(4) 0.9080(4)
H1_7 H 0.164974 0.303122 0.926354
C3_7 C 0.1597(4) 0.3253(4) 0.8861(5)
C4_7 C 0.1430(6) 0.3257(5) 0.8593(4)
H2_7 H 0.147139 0.340639 0.844268
C5_7 C 0.1202(5) 0.3044(5) 0.8545(4)
C6_7 C 0.1142(4) 0.2826(4) 0.8765(5)
C7_7 C 0.1308(4) 0.2821(4) 0.9032(4)
H3_7 H 0.126688 0.267206 0.918257
C8_7 C 0.0901(4) 0.2564(4) 0.8748(5)
C9_7 C 0.0604(4) 0.2583(3) 0.8852(6)
C10_7 C 0.0411(3) 0.2335(4) 0.8826(5)
H4_7 H 0.020801 0.234825 0.889629
C11_7 C 0.0516(3) 0.2067(3) 0.8696(4)
C12_7 C 0.0814(4) 0.2047(4) 0.8593(6)
H5_7 H 0.088517 0.186424 0.850443
C13_7 C 0.1006(3) 0.2296(5) 0.8619(5)
H6_7 H 0.120958 0.228251 0.854839
C14_7 C 0.0517(9) 0.2814(9) 0.9005(14)
H7_7 H 0.036554 0.292732 0.888930
H8_7 H 0.069209 0.294465 0.904747
H9_7 H 0.042804 0.274522 0.919734
C15_7 C 0.0262(5) 0.1860(5) 0.8648(5)
C16_7 C 0.2466(8) 0.4278(8) 0.8377(7)
C17_7 C 0.2734(5) 0.4718(5) 0.8120(4)
H10_7 H 0.286584 0.473834 0.828876
C18_7 C 0.2728(4) 0.4939(4) 0.7895(5)
C19_7 C 0.2535(5) 0.4909(5) 0.7648(5)
C20_7 C 0.2346(7) 0.4657(7) 0.7625(5)
H11_7 H 0.221400 0.463641 0.745617
C21_7 C 0.2351(8) 0.4435(6) 0.7850(7)
H12_7 H 0.222270 0.426310 0.783391
C22_7 C 0.2545(7) 0.4466(5) 0.8097(5)
C23_7 C 0.2940(13) 0.5138(15) 0.7889(12)
H13_7 H 0.290462 0.528898 0.804777
H14_7 H 0.294114 0.523780 0.768999
H15_7 H 0.313578 0.503816 0.792283
C24_7 C 0.1027(13) 0.3026(12) 0.8331(11)
H16_7 H 0.112486 0.310654 0.814781
H17_7 H 0.084384 0.314424 0.837489
H18_7 H 0.097183 0.281316 0.829769
O9_7 O 0.2652(4) 0.5719(4) 0.6387(5)
O10_7 O 0.2247(6) 0.5927(7) 0.6647(6)
C25_7 C 0.2466(8) 0.5722(8) 0.6623(7)
C26_7 C 0.2734(5) 0.5282(5) 0.6880(4)
H19_7 H 0.286584 0.526166 0.671124
C27_7 C 0.2728(4) 0.5061(4) 0.7105(5)
C28_7 C 0.2535(5) 0.5091(5) 0.7352(5)
C29_7 C 0.2346(7) 0.5343(7) 0.7375(5)
H20_7 H 0.221400 0.536359 0.754383
C30_7 C 0.2351(8) 0.5565(6) 0.7150(7)
H21_7 H 0.222270 0.573690 0.716609
C31_7 C 0.2545(7) 0.5534(5) 0.6903(5)
C32_7 C 0.2940(13) 0.4862(15) 0.7111(12)
H22_7 H 0.290462 0.471102 0.695223
H23_7 H 0.294114 0.476220 0.731001
H24_7 H 0.313578 0.496184 0.707717
O13_7 O 0.2042(5) 0.6520(5) 0.5931(5)
O14_7 O 0.1887(4) 0.6327(4) 0.6367(4)
O15_7 O 0.2528(3) 0.6380(4) 0.6325(3)
O16_7 O 0.2132(6) 0.5807(8) 0.5952(6)
C33_7 C 0.1844(6) 0.6525(5) 0.6151(6)
C34_7 C 0.1536(4) 0.6966(4) 0.5920(4)
H25_7 H 0.164974 0.696878 0.573646
C35_7 C 0.1597(4) 0.6747(4) 0.6139(5)
C36_7 C 0.1430(6) 0.6743(5) 0.6407(4)
H26_7 H 0.147139 0.659361 0.655732
C37_7 C 0.1202(5) 0.6956(5) 0.6455(4)
C38_7 C 0.1142(4) 0.7174(4) 0.6235(5)
C39_7 C 0.1308(4) 0.7179(4) 0.5968(4)
H27_7 H 0.126688 0.732794 0.581743
C40_7 C 0.0901(4) 0.7436(4) 0.6252(5)
C41_7 C 0.0604(4) 0.7417(3) 0.6148(6)
C42_7 C 0.0411(3) 0.7665(4) 0.6174(5)
H28_7 H 0.020801 0.765175 0.610371
C43_7 C 0.0516(3) 0.7933(3) 0.6304(4)
C44_7 C 0.0814(4) 0.7953(4) 0.6407(6)
H29_7 H 0.088517 0.813576 0.649557
C45_7 C 0.1006(3) 0.7704(5) 0.6381(5)
H30_7 H 0.120958 0.771749 0.645161
C46_7 C 0.0517(9) 0.7186(9) 0.5995(14)
H31_7 H 0.036554 0.707268 0.611070
H32_7 H 0.069209 0.705535 0.595253
H33_7 H 0.042804 0.725478 0.580266
C47_7 C 0.0262(5) 0.8140(5) 0.6352(5)
C48_7 C 0.1027(13) 0.6974(12) 0.6669(11)
H34_7 H 0.112486 0.689346 0.685219
H35_7 H 0.084384 0.685576 0.662511
H36_7 H 0.097183 0.718684 0.670231
O3_8 O 0.7042(5) 0.1520(5) 0.0931(5)
O4_8 O 0.6887(4) 0.1327(4) 0.1367(4)
O5_8 O 0.7652(4) 0.0719(4) 0.1387(5)
O6_8 O 0.7247(6) 0.0927(7) 0.1647(6)
O7_8 O 0.7528(3) 0.1380(4) 0.1325(3)
O8_8 O 0.7132(6) 0.0807(8) 0.0952(6)
C1_8 C 0.6844(6) 0.1525(5) 0.1151(6)
C2_8 C 0.6536(4) 0.1966(4) 0.0920(4)
H1_8 H 0.664974 0.196878 0.073646
C3_8 C 0.6597(4) 0.1747(4) 0.1139(5)
C4_8 C 0.6430(6) 0.1743(5) 0.1407(4)
H2_8 H 0.647139 0.159361 0.155732
C5_8 C 0.6202(5) 0.1956(5) 0.1455(4)
C6_8 C 0.6142(4) 0.2174(4) 0.1235(5)
C7_8 C 0.6308(4) 0.2179(4) 0.0968(4)
H3_8 H 0.626688 0.232794 0.081743
C8_8 C 0.5901(4) 0.2436(4) 0.1252(5)
C9_8 C 0.5604(4) 0.2417(3) 0.1148(6)
C10_8 C 0.5411(3) 0.2665(4) 0.1174(5)
H4_8 H 0.520801 0.265175 0.110371
C11_8 C 0.5516(3) 0.2933(3) 0.1304(4)
C12_8 C 0.5814(4) 0.2953(4) 0.1407(6)
H5_8 H 0.588517 0.313576 0.149557
C13_8 C 0.6006(3) 0.2704(5) 0.1381(5)
H6_8 H 0.620958 0.271749 0.145161
C14_8 C 0.5517(9) 0.2186(9) 0.0995(14)
H7_8 H 0.536554 0.207268 0.111070
H8_8 H 0.569209 0.205535 0.095253
H9_8 H 0.542804 0.225478 0.080266
C15_8 C 0.5262(5) 0.3140(5) 0.1352(5)
C16_8 C 0.7466(8) 0.0722(8) 0.1623(7)
C17_8 C 0.7734(5) 0.0282(5) 0.1880(4)
H10_8 H 0.786584 0.026166 0.171124
C18_8 C 0.7728(4) 0.0061(4) 0.2105(5)
C19_8 C 0.7535(5) 0.0091(5) 0.2352(5)
C20_8 C 0.7346(7) 0.0343(7) 0.2375(5)
H11_8 H 0.721400 0.036359 0.254383
C21_8 C 0.7351(8) 0.0565(6) 0.2150(7)
H12_8 H 0.722270 0.073690 0.216609
C22_8 C 0.7545(7) 0.0534(5) 0.1903(5)
C24_8 C 0.6027(13) 0.1974(12) 0.1669(11)
H16_8 H 0.612486 0.189346 0.185219
H17_8 H 0.584384 0.185576 0.162511
H18_8 H 0.597183 0.218684 0.170231
C32_8 C 0.7940(13) 0.0138(15) 0.2889(12)
H22_8 H 0.790462 0.028898 0.304777
H23_8 H 0.794114 0.023780 0.268999
H24_8 H 0.813578 0.003816 0.292283
C23_8 C 0.7940(13) 0.9862(15) 0.2111(12)
H13_8 H 0.790462 0.971102 0.195223
H14_8 H 0.794114 0.976220 0.231001
H15_8 H 0.813578 0.996184 0.207717
O9_8 O 0.7652(4) 0.9281(4) 0.3613(5)
O10_8 O 0.7247(6) 0.9073(7) 0.3353(6)
C25_8 C 0.7466(8) 0.9278(8) 0.3377(7)
C26_8 C 0.7734(5) 0.9718(5) 0.3120(4)
H19_8 H 0.786584 0.973834 0.328876
C27_8 C 0.7728(4) 0.9939(4) 0.2895(5)
C28_8 C 0.7535(5) 0.9909(5) 0.2648(5)
C29_8 C 0.7346(7) 0.9657(7) 0.2625(5)
H20_8 H 0.721400 0.963641 0.245617
C30_8 C 0.7351(8) 0.9435(6) 0.2850(7)
H21_8 H 0.722270 0.926310 0.283391
C31_8 C 0.7545(7) 0.9466(5) 0.3097(5)
O13_8 O 0.7042(5) 0.8480(5) 0.4069(5)
O14_8 O 0.6887(4) 0.8673(4) 0.3633(4)
O15_8 O 0.7528(3) 0.8620(4) 0.3675(3)
O16_8 O 0.7132(6) 0.9193(8) 0.4048(6)
C33_8 C 0.6844(6) 0.8475(5) 0.3849(6)
C34_8 C 0.6536(4) 0.8034(4) 0.4080(4)
H25_8 H 0.664974 0.803122 0.426354
C35_8 C 0.6597(4) 0.8253(4) 0.3861(5)
C36_8 C 0.6430(6) 0.8257(5) 0.3593(4)
H26_8 H 0.647139 0.840639 0.344268
C37_8 C 0.6202(5) 0.8044(5) 0.3545(4)
C38_8 C 0.6142(4) 0.7826(4) 0.3765(5)
C39_8 C 0.6308(4) 0.7821(4) 0.4032(4)
H27_8 H 0.626688 0.767206 0.418257
C40_8 C 0.5901(4) 0.7564(4) 0.3748(5)
C41_8 C 0.5604(4) 0.7583(3) 0.3852(6)
C42_8 C 0.5411(3) 0.7335(4) 0.3826(5)
H28_8 H 0.520801 0.734825 0.389629
C43_8 C 0.5516(3) 0.7067(3) 0.3696(4)
C44_8 C 0.5814(4) 0.7047(4) 0.3593(6)
H29_8 H 0.588517 0.686424 0.350443
C45_8 C 0.6006(3) 0.7296(5) 0.3619(5)
H30_8 H 0.620958 0.728251 0.354839
C46_8 C 0.5517(9) 0.7814(9) 0.4005(14)
H31_8 H 0.536554 0.792732 0.388930
H32_8 H 0.569209 0.794465 0.404747
H33_8 H 0.542804 0.774522 0.419734
C47_8 C 0.5262(5) 0.6860(5) 0.3648(5)
C48_8 C 0.6027(13) 0.8026(12) 0.3331(11)
H34_8 H 0.612486 0.810654 0.314781
H35_8 H 0.584384 0.814424 0.337489
H36_8 H 0.597183 0.781316 0.329769
O11_5 O 0.0874(4) 0.2184(3) 0.4051(5)
O12_5 O 0.0640(3) 0.2491(3) 0.3664(3)
C42_9 C 0.0165(4) 0.2089(3) 0.3674(5)
H28_9 H 0.015175 0.229199 0.360371
C43_9 C 0.0433(3) 0.1984(3) 0.3804(4)
C44_9 C 0.0453(4) 0.1686(4) 0.3907(6)
H29_9 H 0.063576 0.161483 0.399557
C45_9 C 0.0204(5) 0.1494(3) 0.3881(5)
H30_9 H 0.021749 0.129042 0.395161
C47_9 C 0.0640(5) 0.2238(5) 0.3852(5)
U4_5 U 0.11310(3) 0.26614(3) 0.38746(3)
U1_5 U 0.63746(3) 0.01614(3) 0.63690(3)
O1_5 O 0.4126(4) 0.2184(3) 0.5949(5)
O2_5 O 0.4360(3) 0.2491(3) 0.6336(3)
O3_9 O 0.5980(5) 0.0458(5) 0.6569(5)
O4_9 O 0.6173(4) 0.0613(4) 0.6133(4)
O6_9 O 0.6573(7) 0.0253(6) 0.5853(6)
O8_9 O 0.6693(8) 0.0368(6) 0.6548(6)
C1_9 C 0.5975(5) 0.0656(6) 0.6349(6)
C2_9 C 0.5534(4) 0.0964(4) 0.6580(4)
H1_9 H 0.553122 0.085026 0.676354
C3_9 C 0.5753(4) 0.0903(4) 0.6361(5)
C4_9 C 0.5757(5) 0.1070(6) 0.6093(4)
H2_9 H 0.590639 0.102861 0.594268
C5_9 C 0.5544(5) 0.1298(5) 0.6045(4)
C6_9 C 0.5326(4) 0.1358(4) 0.6265(5)
C7_9 C 0.5321(4) 0.1192(4) 0.6532(4)
H3_9 H 0.517206 0.123312 0.668257
C8_9 C 0.5064(4) 0.1599(4) 0.6248(5)
C9_9 C 0.5083(3) 0.1896(4) 0.6352(6)
C10_9 C 0.4835(4) 0.2089(3) 0.6326(5)
H4_9 H 0.484825 0.229199 0.639629
C11_9 C 0.4567(3) 0.1984(3) 0.6196(4)
C12_9 C 0.4547(4) 0.1686(4) 0.6093(6)
H5_9 H 0.436424 0.161483 0.600443
C13_9 C 0.4796(5) 0.1494(3) 0.6119(5)
H6_9 H 0.478251 0.129042 0.604839
C14_9 C 0.5314(9) 0.1983(9) 0.6505(14)
H7_9 H 0.542732 0.213446 0.638930
H8_9 H 0.544465 0.180791 0.654747
H9_9 H 0.524522 0.207196 0.669734
C15_9 C 0.4360(5) 0.2238(5) 0.6148(5)
C16_9 C 0.6778(8) 0.0034(8) 0.5877(7)
C20_9 C 0.7157(7) 0.0154(7) 0.5125(5)
H11_9 H 0.713641 0.028600 0.495617
C21_9 C 0.6935(6) 0.0149(8) 0.5350(7)
H12_9 H 0.676310 0.027730 0.533391
C24_9 C 0.5526(12) 0.1473(13) 0.5831(11)
H16_9 H 0.560654 0.137514 0.564781
H17_9 H 0.564424 0.165616 0.587489
H18_9 H 0.531316 0.152817 0.579769
O10_9 O 0.8427(7) 0.0253(6) 0.4147(6)
C25_9 C 0.8222(8) 0.0034(8) 0.4123(7)
C29_9 C 0.7843(7) 0.0154(7) 0.4875(5)
H20_9 H 0.786359 0.028600 0.504383
C30_9 C 0.8065(6) 0.0149(8) 0.4650(7)
H21_9 H 0.823690 0.027730 0.466609
U2_5 U 0.86254(3) 0.01614(3) 0.36310(3)
O13_9 O 0.9020(5) 0.0458(5) 0.3431(5)
O14_9 O 0.8827(4) 0.0613(4) 0.3867(4)
O16_9 O 0.8307(8) 0.0368(6) 0.3452(6)
C33_9 C 0.9025(5) 0.0656(6) 0.3651(6)
C34_9 C 0.9466(4) 0.0964(4) 0.3420(4)
H25_9 H 0.946878 0.085026 0.323646
C35_9 C 0.9247(4) 0.0903(4) 0.3639(5)
C36_9 C 0.9243(5) 0.1070(6) 0.3907(4)
H26_9 H 0.909361 0.102861 0.405732
C37_9 C 0.9456(5) 0.1298(5) 0.3955(4)
C38_9 C 0.9674(4) 0.1358(4) 0.3735(5)
C39_9 C 0.9679(4) 0.1192(4) 0.3468(4)
H27_9 H 0.982794 0.123312 0.331743
C40_9 C 0.9936(4) 0.1599(4) 0.3752(5)
C41_9 C 0.9917(3) 0.1896(4) 0.3648(6)
C46_9 C 0.9686(9) 0.1983(9) 0.3495(14)
H31_9 H 0.957268 0.213446 0.361070
H32_9 H 0.955535 0.180791 0.345253
H33_9 H 0.975478 0.207196 0.330266
C48_9 C 0.9474(12) 0.1473(13) 0.4169(11)
H34_9 H 0.939346 0.137514 0.435219
H35_9 H 0.935576 0.165616 0.412511
H36_9 H 0.968684 0.152817 0.420231
U3_5 U 0.38690(3) 0.26614(3) 0.61254(3)
O5_9 O 0.6781(4) 0.9848(4) 0.6113(5)
O7_9 O 0.6120(4) 0.9972(3) 0.6175(3)
C17_9 C 0.7218(5) 0.9766(5) 0.5620(4)
H10_9 H 0.723834 0.963416 0.578876
C18_9 C 0.7439(4) 0.9772(4) 0.5395(5)
C19_9 C 0.7409(5) 0.9965(5) 0.5148(5)
C22_9 C 0.6966(5) 0.9955(7) 0.5597(5)
C23_9 C 0.7638(15) 0.9560(13) 0.5389(12)
H13_9 H 0.778898 0.959538 0.554777
H14_9 H 0.773780 0.955886 0.518999
H15_9 H 0.753816 0.936422 0.542283
O9_9 O 0.8219(4) 0.9848(4) 0.3887(5)
C26_9 C 0.7782(5) 0.9766(5) 0.4380(4)
H19_9 H 0.776166 0.963416 0.421124
C27_9 C 0.7561(4) 0.9772(4) 0.4605(5)
C28_9 C 0.7591(5) 0.9965(5) 0.4852(5)
C31_9 C 0.8034(5) 0.9955(7) 0.4403(5)
C32_9 C 0.7362(15) 0.9560(13) 0.4611(12)
H22_9 H 0.721102 0.959538 0.445223
H23_9 H 0.726220 0.955886 0.481001
H24_9 H 0.746184 0.936422 0.457717
O15_9 O 0.8880(4) 0.9972(3) 0.3825(3)
O17_5 O 0.6551(5) 0.9684(3) 0.6626(4)
O18_5 O 0.8449(5) 0.9684(3) 0.3374(4)
O19_5 O 0.6164(3) 0.9991(3) 0.6860(3)
O20_5 O 0.8836(3) 0.9991(3) 0.3140(3)
H11_10 H 0.286359 0.528600 0.004383
O9_10 O 0.1781(4) 0.4848(4) 0.1113(5)
O10_10 O 0.1573(7) 0.5253(6) 0.0853(6)
C25_10 C 0.1778(8) 0.5034(8) 0.0877(7)
C26_10 C 0.2218(5) 0.4766(5) 0.0620(4)
H19_10 H 0.223834 0.463416 0.078876
C27_10 C 0.2439(4) 0.4772(4) 0.0395(5)
C28_10 C 0.2409(5) 0.4965(5) 0.0148(5)
C29_10 C 0.2157(7) 0.5154(7) 0.0125(5)
C30_10 C 0.1935(6) 0.5149(8) 0.0350(7)
H21_10 H 0.176310 0.527730 0.033391
C31_10 C 0.1966(5) 0.4955(7) 0.0597(5)
C32_10 C 0.2638(15) 0.4560(13) 0.0389(12)
H22_10 H 0.278898 0.459538 0.054777
H23_10 H 0.273780 0.455886 0.018999
H24_10 H 0.253816 0.436422 0.042283
U2_6 U 0.13746(3) 0.51614(3) 0.13690(3)
O13_10 O 0.0980(5) 0.5458(5) 0.1569(5)
O14_10 O 0.1173(4) 0.5613(4) 0.1133(4)
O15_10 O 0.1120(4) 0.4972(3) 0.1175(3)
O16_10 O 0.1693(8) 0.5368(6) 0.1548(6)
C33_10 C 0.0975(5) 0.5656(6) 0.1349(6)
C34_10 C 0.0534(4) 0.5964(4) 0.1580(4)
H25_10 H 0.053122 0.585026 0.176354
C35_10 C 0.0753(4) 0.5903(4) 0.1361(5)
C36_10 C 0.0757(5) 0.6070(6) 0.1093(4)
H26_10 H 0.090639 0.602861 0.094268
C37_10 C 0.0544(5) 0.6298(5) 0.1045(4)
C38_10 C 0.0326(4) 0.6358(4) 0.1265(5)
C39_10 C 0.0321(4) 0.6192(4) 0.1532(4)
H27_10 H 0.017206 0.623312 0.168257
C40_10 C 0.0064(4) 0.6599(4) 0.1248(5)
C41_10 C 0.0083(3) 0.6896(4) 0.1352(6)
C46_10 C 0.0314(9) 0.6983(9) 0.1505(14)
H31_10 H 0.042732 0.713446 0.138930
H32_10 H 0.044465 0.680791 0.154747
H33_10 H 0.024522 0.707196 0.169734
C48_10 C 0.0526(12) 0.6473(13) 0.0831(11)
H34_10 H 0.060654 0.637514 0.064781
H35_10 H 0.064424 0.665616 0.087489
H36_10 H 0.031316 0.652817 0.079769
O18_6 O 0.1551(5) 0.4684(3) 0.1626(4)
O20_6 O 0.1164(3) 0.4991(3) 0.1860(3)
U1_6 U 0.36254(3) 0.51614(3) 0.86310(3)
O1_6 O 0.5874(4) 0.7184(3) 0.9051(5)
O2_6 O 0.5640(3) 0.7491(3) 0.8664(3)
O3_10 O 0.4020(5) 0.5458(5) 0.8431(5)
O4_10 O 0.3827(4) 0.5613(4) 0.8867(4)
O5_10 O 0.3219(4) 0.4848(4) 0.8887(5)
O6_10 O 0.3427(7) 0.5253(6) 0.9147(6)
O7_10 O 0.3880(4) 0.4972(3) 0.8825(3)
O8_10 O 0.3307(8) 0.5368(6) 0.8452(6)
C1_10 C 0.4025(5) 0.5656(6) 0.8651(6)
C2_10 C 0.4466(4) 0.5964(4) 0.8420(4)
H1_10 H 0.446878 0.585026 0.823646
C3_10 C 0.4247(4) 0.5903(4) 0.8639(5)
C4_10 C 0.4243(5) 0.6070(6) 0.8907(4)
H2_10 H 0.409361 0.602861 0.905732
C5_10 C 0.4456(5) 0.6298(5) 0.8955(4)
C6_10 C 0.4674(4) 0.6358(4) 0.8735(5)
C7_10 C 0.4679(4) 0.6192(4) 0.8468(4)
H3_10 H 0.482794 0.623312 0.831743
C8_10 C 0.4936(4) 0.6599(4) 0.8752(5)
C9_10 C 0.4917(3) 0.6896(4) 0.8648(6)
C10_10 C 0.5165(4) 0.7089(3) 0.8674(5)
H4_10 H 0.515175 0.729199 0.860371
C11_10 C 0.5433(3) 0.6984(3) 0.8804(4)
C12_10 C 0.5453(4) 0.6686(4) 0.8907(6)
H5_10 H 0.563576 0.661483 0.899557
C13_10 C 0.5204(5) 0.6494(3) 0.8881(5)
H6_10 H 0.521749 0.629042 0.895161
C14_10 C 0.4686(9) 0.6983(9) 0.8495(14)
H7_10 H 0.457268 0.713446 0.861070
H8_10 H 0.455535 0.680791 0.845253
H9_10 H 0.475478 0.707196 0.830266
C15_10 C 0.5640(5) 0.7238(5) 0.8852(5)
C16_10 C 0.3222(8) 0.5034(8) 0.9123(7)
C17_10 C 0.2782(5) 0.4766(5) 0.9380(4)
H10_10 H 0.276166 0.463416 0.921124
C18_10 C 0.2561(4) 0.4772(4) 0.9605(5)
C19_10 C 0.2591(5) 0.4965(5) 0.9852(5)
C20_10 C 0.2843(7) 0.5154(7) 0.9875(5)
C21_10 C 0.3065(6) 0.5149(8) 0.9650(7)
H12_10 H 0.323690 0.527730 0.966609
C22_10 C 0.3034(5) 0.4955(7) 0.9403(5)
C23_10 C 0.2362(15) 0.4560(13) 0.9611(12)
H13_10 H 0.221102 0.459538 0.945223
H14_10 H 0.226220 0.455886 0.981001
H15_10 H 0.246184 0.436422 0.957717
C24_10 C 0.4474(12) 0.6473(13) 0.9169(11)
H16_10 H 0.439346 0.637514 0.935219
H17_10 H 0.435576 0.665616 0.912511
H18_10 H 0.468684 0.652817 0.920231
H20_10 H 0.213641 0.528600 0.995617
U3_6 U 0.61310(3) 0.76614(3) 0.88746(3)
O17_6 O 0.3449(5) 0.4684(3) 0.8374(4)
O19_6 O 0.3836(3) 0.4991(3) 0.8140(3)
O11_6 O 0.9126(4) 0.7184(3) 0.0949(5)
O12_6 O 0.9360(3) 0.7491(3) 0.1336(3)
C42_10 C 0.9835(4) 0.7089(3) 0.1326(5)
H28_10 H 0.984825 0.729199 0.139629
C43_10 C 0.9567(3) 0.6984(3) 0.1196(4)
C44_10 C 0.9547(4) 0.6686(4) 0.1093(6)
H29_10 H 0.936424 0.661483 0.100443
C45_10 C 0.9796(5) 0.6494(3) 0.1119(5)
H30_10 H 0.978251 0.629042 0.104839
C47_10 C 0.9360(5) 0.7238(5) 0.1148(5)
U4_6 U 0.88690(3) 0.76614(3) 0.11254(3)
O3_11 O 0.4069(5) 0.2958(5) 0.6520(5)
O4_11 O 0.3633(4) 0.3113(4) 0.6327(4)
O5_11 O 0.3613(5) 0.2348(4) 0.5719(4)
O6_11 O 0.3353(6) 0.2753(6) 0.5927(7)
O7_11 O 0.3675(3) 0.2472(3) 0.6380(4)
O8_11 O 0.4048(6) 0.2868(6) 0.5807(8)
C1_11 C 0.3849(6) 0.3156(6) 0.6525(5)
C2_11 C 0.4080(4) 0.3464(4) 0.6966(4)
H1_11 H 0.426354 0.335026 0.696878
C3_11 C 0.3861(5) 0.3403(4) 0.6747(4)
C4_11 C 0.3593(4) 0.3570(6) 0.6743(5)
H2_11 H 0.344268 0.352861 0.659361
C5_11 C 0.3545(4) 0.3798(5) 0.6956(5)
C6_11 C 0.3765(5) 0.3858(4) 0.7174(4)
C7_11 C 0.4032(4) 0.3692(4) 0.7179(4)
H3_11 H 0.418257 0.373312 0.732794
C8_11 C 0.3748(5) 0.4099(4) 0.7436(4)
C9_11 C 0.3852(6) 0.4396(4) 0.7417(3)
C10_11 C 0.3826(5) 0.4589(3) 0.7665(4)
H4_11 H 0.389629 0.479199 0.765175
C11_11 C 0.3696(4) 0.4484(3) 0.7933(3)
C12_11 C 0.3593(6) 0.4186(4) 0.7953(4)
H5_11 H 0.350443 0.411483 0.813576
C13_11 C 0.3619(5) 0.3994(3) 0.7704(5)
H6_11 H 0.354839 0.379042 0.771749
C14_11 C 0.4005(14) 0.4483(9) 0.7186(9)
H7_11 H 0.388930 0.463446 0.707268
H8_11 H 0.404747 0.430791 0.705535
H9_11 H 0.419734 0.457196 0.725478
C15_11 C 0.3648(5) 0.4738(5) 0.8140(5)
C16_11 C 0.3377(7) 0.2534(8) 0.5722(8)
C17_11 C 0.3120(4) 0.2266(5) 0.5282(5)
H10_11 H 0.328876 0.213416 0.526166
C18_11 C 0.2895(5) 0.2272(4) 0.5061(4)
C19_11 C 0.2648(5) 0.2465(5) 0.5091(5)
C20_11 C 0.2625(5) 0.2654(7) 0.5343(7)
H11_11 H 0.245617 0.278600 0.536359
C21_11 C 0.2850(7) 0.2649(8) 0.5565(6)
H12_11 H 0.283391 0.277730 0.573690
C22_11 C 0.3097(5) 0.2455(7) 0.5534(5)
C23_11 C 0.2889(12) 0.2060(13) 0.4862(15)
H13_11 H 0.304777 0.209538 0.471102
H14_11 H 0.268999 0.205886 0.476220
H15_11 H 0.292283 0.186422 0.496184
C24_11 C 0.3331(11) 0.3973(13) 0.6974(12)
H16_11 H 0.314781 0.387514 0.689346
H17_11 H 0.337489 0.415616 0.685576
H18_11 H 0.329769 0.402817 0.718684
O9_11 O 0.1387(5) 0.2348(4) 0.4281(4)
O10_11 O 0.1647(6) 0.2753(6) 0.4073(7)
C25_11 C 0.1623(7) 0.2534(8) 0.4278(8)
C26_11 C 0.1880(4) 0.2266(5) 0.4718(5)
H19_11 H 0.171124 0.213416 0.473834
C27_11 C 0.2105(5) 0.2272(4) 0.4939(4)
C28_11 C 0.2352(5) 0.2465(5) 0.4909(5)
C29_11 C 0.2375(5) 0.2654(7) 0.4657(7)
H20_11 H 0.254383 0.278600 0.463641
C30_11 C 0.2150(7) 0.2649(8) 0.4435(6)
H21_11 H 0.216609 0.277730 0.426310
C31_11 C 0.1903(5) 0.2455(7) 0.4466(5)
C32_11 C 0.2111(12) 0.2060(13) 0.5138(15)
H22_11 H 0.195223 0.209538 0.528898
H23_11 H 0.231001 0.205886 0.523780
H24_11 H 0.207717 0.186422 0.503816
O13_11 O 0.0931(5) 0.2958(5) 0.3480(5)
O14_11 O 0.1367(4) 0.3113(4) 0.3673(4)
O15_11 O 0.1325(3) 0.2472(3) 0.3620(4)
O16_11 O 0.0952(6) 0.2868(6) 0.4193(8)
C33_11 C 0.1151(6) 0.3156(6) 0.3475(5)
C34_11 C 0.0920(4) 0.3464(4) 0.3034(4)
H25_11 H 0.073646 0.335026 0.303122
C35_11 C 0.1139(5) 0.3403(4) 0.3253(4)
C36_11 C 0.1407(4) 0.3570(6) 0.3257(5)
H26_11 H 0.155732 0.352861 0.340639
C37_11 C 0.1455(4) 0.3798(5) 0.3044(5)
C38_11 C 0.1235(5) 0.3858(4) 0.2826(4)
C39_11 C 0.0968(4) 0.3692(4) 0.2821(4)
H27_11 H 0.081743 0.373312 0.267206
C40_11 C 0.1252(5) 0.4099(4) 0.2564(4)
C41_11 C 0.1148(6) 0.4396(4) 0.2583(3)
C42_11 C 0.1174(5) 0.4589(3) 0.2335(4)
H28_11 H 0.110371 0.479199 0.234825
C43_11 C 0.1304(4) 0.4484(3) 0.2067(3)
C44_11 C 0.1407(6) 0.4186(4) 0.2047(4)
H29_11 H 0.149557 0.411483 0.186424
C45_11 C 0.1381(5) 0.3994(3) 0.2296(5)
H30_11 H 0.145161 0.379042 0.228251
C46_11 C 0.0995(14) 0.4483(9) 0.2814(9)
H31_11 H 0.111070 0.463446 0.292732
H32_11 H 0.095253 0.430791 0.294465
H33_11 H 0.080266 0.457196 0.274522
C47_11 C 0.1352(5) 0.4738(5) 0.1860(5)
C48_11 C 0.1669(11) 0.3973(13) 0.3026(12)
H34_11 H 0.185219 0.387514 0.310654
H35_11 H 0.162511 0.415616 0.314424
H36_11 H 0.170231 0.402817 0.281316
C23_12 C 0.7111(12) 0.7060(13) 0.0138(15)
H13_12 H 0.695223 0.709538 0.028898
H14_12 H 0.731001 0.705886 0.023780
H15_12 H 0.707717 0.686422 0.003816
O9_12 O 0.8613(5) 0.7348(4) 0.0719(4)
O10_12 O 0.8353(6) 0.7753(6) 0.0927(7)
C25_12 C 0.8377(7) 0.7534(8) 0.0722(8)
C26_12 C 0.8120(4) 0.7266(5) 0.0282(5)
H19_12 H 0.828876 0.713416 0.026166
C27_12 C 0.7895(5) 0.7272(4) 0.0061(4)
C28_12 C 0.7648(5) 0.7465(5) 0.0091(5)
C29_12 C 0.7625(5) 0.7654(7) 0.0343(7)
H20_12 H 0.745617 0.778600 0.036359
C30_12 C 0.7850(7) 0.7649(8) 0.0565(6)
H21_12 H 0.783391 0.777730 0.073690
C31_12 C 0.8097(5) 0.7455(7) 0.0534(5)
O13_12 O 0.9069(5) 0.7958(5) 0.1520(5)
O14_12 O 0.8633(4) 0.8113(4) 0.1327(4)
O15_12 O 0.8675(3) 0.7472(3) 0.1380(4)
O16_12 O 0.9048(6) 0.7868(6) 0.0807(8)
C33_12 C 0.8849(6) 0.8156(6) 0.1525(5)
C34_12 C 0.9080(4) 0.8464(4) 0.1966(4)
H25_12 H 0.926354 0.835026 0.196878
C35_12 C 0.8861(5) 0.8403(4) 0.1747(4)
C36_12 C 0.8593(4) 0.8570(6) 0.1743(5)
H26_12 H 0.844268 0.852861 0.159361
C37_12 C 0.8545(4) 0.8798(5) 0.1956(5)
C38_12 C 0.8765(5) 0.8858(4) 0.2174(4)
C39_12 C 0.9032(4) 0.8692(4) 0.2179(4)
H27_12 H 0.918257 0.873312 0.232794
C40_12 C 0.8748(5) 0.9099(4) 0.2436(4)
C41_12 C 0.8852(6) 0.9396(4) 0.2417(3)
C42_12 C 0.8826(5) 0.9589(3) 0.2665(4)
H28_12 H 0.889629 0.979199 0.265175
C43_12 C 0.8696(4) 0.9484(3) 0.2933(3)
C44_12 C 0.8593(6) 0.9186(4) 0.2953(4)
H29_12 H 0.850443 0.911483 0.313576
C45_12 C 0.8619(5) 0.8994(3) 0.2704(5)
H30_12 H 0.854839 0.879042 0.271749
C46_12 C 0.9005(14) 0.9483(9) 0.2186(9)
H31_12 H 0.888930 0.963446 0.207268
H32_12 H 0.904747 0.930791 0.205535
H33_12 H 0.919734 0.957196 0.225478
C47_12 C 0.8648(5) 0.9738(5) 0.3140(5)
C48_12 C 0.8331(11) 0.8973(13) 0.1974(12)
H34_12 H 0.814781 0.887514 0.189346
H35_12 H 0.837489 0.915616 0.185576
H36_12 H 0.829769 0.902817 0.218684
O3_12 O 0.5931(5) 0.7958(5) 0.8480(5)
O4_12 O 0.6367(4) 0.8113(4) 0.8673(4)
O5_12 O 0.6387(5) 0.7348(4) 0.9281(4)
O6_12 O 0.6647(6) 0.7753(6) 0.9073(7)
O7_12 O 0.6325(3) 0.7472(3) 0.8620(4)
O8_12 O 0.5952(6) 0.7868(6) 0.9193(8)
C1_12 C 0.6151(6) 0.8156(6) 0.8475(5)
C2_12 C 0.5920(4) 0.8464(4) 0.8034(4)
H1_12 H 0.573646 0.835026 0.803122
C3_12 C 0.6139(5) 0.8403(4) 0.8253(4)
C4_12 C 0.6407(4) 0.8570(6) 0.8257(5)
H2_12 H 0.655732 0.852861 0.840639
C5_12 C 0.6455(4) 0.8798(5) 0.8044(5)
C6_12 C 0.6235(5) 0.8858(4) 0.7826(4)
C7_12 C 0.5968(4) 0.8692(4) 0.7821(4)
H3_12 H 0.581743 0.873312 0.767206
C8_12 C 0.6252(5) 0.9099(4) 0.7564(4)
C9_12 C 0.6148(6) 0.9396(4) 0.7583(3)
C10_12 C 0.6174(5) 0.9589(3) 0.7335(4)
H4_12 H 0.610371 0.979199 0.734825
C11_12 C 0.6304(4) 0.9484(3) 0.7067(3)
C12_12 C 0.6407(6) 0.9186(4) 0.7047(4)
H5_12 H 0.649557 0.911483 0.686424
C13_12 C 0.6381(5) 0.8994(3) 0.7296(5)
H6_12 H 0.645161 0.879042 0.728251
C14_12 C 0.5995(14) 0.9483(9) 0.7814(9)
H7_12 H 0.611070 0.963446 0.792732
H8_12 H 0.595253 0.930791 0.794465
H9_12 H 0.580266 0.957196 0.774522
C15_12 C 0.6352(5) 0.9738(5) 0.6860(5)
C16_12 C 0.6623(7) 0.7534(8) 0.9278(8)
C17_12 C 0.6880(4) 0.7266(5) 0.9718(5)
H10_12 H 0.671124 0.713416 0.973834
C18_12 C 0.7105(5) 0.7272(4) 0.9939(4)
C19_12 C 0.7352(5) 0.7465(5) 0.9909(5)
C20_12 C 0.7375(5) 0.7654(7) 0.9657(7)
H11_12 H 0.754383 0.778600 0.963641
C21_12 C 0.7150(7) 0.7649(8) 0.9435(6)
H12_12 H 0.716609 0.777730 0.926310
C22_12 C 0.6903(5) 0.7455(7) 0.9466(5)
C24_12 C 0.6669(11) 0.8973(13) 0.8026(12)
H16_12 H 0.685219 0.887514 0.810654
H17_12 H 0.662511 0.915616 0.814424
H18_12 H 0.670231 0.902817 0.781316
C32_12 C 0.7889(12) 0.7060(13) 0.9862(15)
H22_12 H 0.804777 0.709538 0.971102
H23_12 H 0.768999 0.705886 0.976220
H24_12 H 0.792283 0.686422 0.996184
U1_7 U 0.13746(3) 0.48386(3) 0.36310(3)
O3_13 O 0.0980(5) 0.4542(5) 0.3431(5)
O4_13 O 0.1173(4) 0.4387(4) 0.3867(4)
O5_13 O 0.1781(4) 0.5152(4) 0.3887(5)
O6_13 O 0.1573(7) 0.4747(6) 0.4147(6)
O7_13 O 0.1120(4) 0.5028(3) 0.3825(3)
O8_13 O 0.1693(8) 0.4632(6) 0.3452(6)
C1_13 C 0.0975(5) 0.4344(6) 0.3651(6)
C2_13 C 0.0534(4) 0.4036(4) 0.3420(4)
H1_13 H 0.053122 0.414974 0.323646
C3_13 C 0.0753(4) 0.4097(4) 0.3639(5)
C4_13 C 0.0757(5) 0.3930(6) 0.3907(4)
H2_13 H 0.090639 0.397139 0.405732
C5_13 C 0.0544(5) 0.3702(5) 0.3955(4)
C6_13 C 0.0326(4) 0.3642(4) 0.3735(5)
C7_13 C 0.0321(4) 0.3808(4) 0.3468(4)
H3_13 H 0.017206 0.376688 0.331743
C8_13 C 0.0064(4) 0.3401(4) 0.3752(5)
C9_13 C 0.0083(3) 0.3104(4) 0.3648(6)
C14_13 C 0.0314(9) 0.3017(9) 0.3495(14)
H7_13 H 0.042732 0.286554 0.361070
H8_13 H 0.044465 0.319209 0.345253
H9_13 H 0.024522 0.292804 0.330266
C16_13 C 0.1778(8) 0.4966(8) 0.4123(7)
C17_13 C 0.2218(5) 0.5234(5) 0.4380(4)
H10_13 H 0.223834 0.536584 0.421124
C18_13 C 0.2439(4) 0.5228(4) 0.4605(5)
C19_13 C 0.2409(5) 0.5035(5) 0.4852(5)
C20_13 C 0.2157(7) 0.4846(7) 0.4875(5)
H11_13 H 0.213641 0.471400 0.504383
C21_13 C 0.1935(6) 0.4851(8) 0.4650(7)
H12_13 H 0.176310 0.472270 0.466609
C22_13 C 0.1966(5) 0.5045(7) 0.4403(5)
C23_13 C 0.2638(15) 0.5440(13) 0.4611(12)
H13_13 H 0.278898 0.540462 0.445223
H14_13 H 0.273780 0.544114 0.481001
H15_13 H 0.253816 0.563578 0.457717
C24_13 C 0.0526(12) 0.3527(13) 0.4169(11)
H16_13 H 0.060654 0.362486 0.435219
H17_13 H 0.064424 0.334384 0.412511
H18_13 H 0.031316 0.347183 0.420231
O9_13 O 0.3219(4) 0.5152(4) 0.6113(5)
O10_13 O 0.3427(7) 0.4747(6) 0.5853(6)
C25_13 C 0.3222(8) 0.4966(8) 0.5877(7)
C26_13 C 0.2782(5) 0.5234(5) 0.5620(4)
H19_13 H 0.276166 0.536584 0.578876
C27_13 C 0.2561(4) 0.5228(4) 0.5395(5)
C28_13 C 0.2591(5) 0.5035(5) 0.5148(5)
C29_13 C 0.2843(7) 0.4846(7) 0.5125(5)
H20_13 H 0.286359 0.471400 0.495617
C30_13 C 0.3065(6) 0.4851(8) 0.5350(7)
H21_13 H 0.323690 0.472270 0.533391
C31_13 C 0.3034(5) 0.5045(7) 0.5597(5)
C32_13 C 0.2362(15) 0.5440(13) 0.5389(12)
H22_13 H 0.221102 0.540462 0.554777
H23_13 H 0.226220 0.544114 0.518999
H24_13 H 0.246184 0.563578 0.542283
U2_7 U 0.36254(3) 0.48386(3) 0.63690(3)
O11_7 O 0.5874(4) 0.2816(3) 0.5949(5)
O12_7 O 0.5640(3) 0.2509(3) 0.6336(3)
O13_13 O 0.4020(5) 0.4542(5) 0.6569(5)
O14_13 O 0.3827(4) 0.4387(4) 0.6133(4)
O15_13 O 0.3880(4) 0.5028(3) 0.6175(3)
O16_13 O 0.3307(8) 0.4632(6) 0.6548(6)
C33_13 C 0.4025(5) 0.4344(6) 0.6349(6)
C34_13 C 0.4466(4) 0.4036(4) 0.6580(4)
H25_13 H 0.446878 0.414974 0.676354
C35_13 C 0.4247(4) 0.4097(4) 0.6361(5)
C36_13 C 0.4243(5) 0.3930(6) 0.6093(4)
H26_13 H 0.409361 0.397139 0.594268
C37_13 C 0.4456(5) 0.3702(5) 0.6045(4)
C38_13 C 0.4674(4) 0.3642(4) 0.6265(5)
C39_13 C 0.4679(4) 0.3808(4) 0.6532(4)
H27_13 H 0.482794 0.376688 0.668257
C40_13 C 0.4936(4) 0.3401(4) 0.6248(5)
C41_13 C 0.4917(3) 0.3104(4) 0.6352(6)
C42_13 C 0.5165(4) 0.2911(3) 0.6326(5)
H28_13 H 0.515175 0.270801 0.639629
C43_13 C 0.5433(3) 0.3016(3) 0.6196(4)
C44_13 C 0.5453(4) 0.3314(4) 0.6093(6)
H29_13 H 0.563576 0.338517 0.600443
C45_13 C 0.5204(5) 0.3506(3) 0.6119(5)
H30_13 H 0.521749 0.370958 0.604839
C46_13 C 0.4686(9) 0.3017(9) 0.6505(14)
H31_13 H 0.457268 0.286554 0.638930
H32_13 H 0.455535 0.319209 0.654747
H33_13 H 0.475478 0.292804 0.669734
C47_13 C 0.5640(5) 0.2762(5) 0.6148(5)
C48_13 C 0.4474(12) 0.3527(13) 0.5831(11)
H34_13 H 0.439346 0.362486 0.564781
H35_13 H 0.435576 0.334384 0.587489
H36_13 H 0.468684 0.347183 0.579769
U4_7 U 0.61310(3) 0.23386(3) 0.61254(3)
O17_7 O 0.1551(5) 0.5316(3) 0.3374(4)
O18_7 O 0.3449(5) 0.5316(3) 0.6626(4)
O19_7 O 0.1164(3) 0.5009(3) 0.3140(3)
O20_7 O 0.3836(3) 0.5009(3) 0.6860(3)
O1_7 O 0.9126(4) 0.2816(3) 0.4051(5)
O2_7 O 0.9360(3) 0.2509(3) 0.3664(3)
C10_13 C 0.9835(4) 0.2911(3) 0.3674(5)
H4_13 H 0.984825 0.270801 0.360371
C11_13 C 0.9567(3) 0.3016(3) 0.3804(4)
C12_13 C 0.9547(4) 0.3314(4) 0.3907(6)
H5_13 H 0.936424 0.338517 0.399557
C13_13 C 0.9796(5) 0.3506(3) 0.3881(5)
H6_13 H 0.978251 0.370958 0.395161
C15_13 C 0.9360(5) 0.2762(5) 0.3852(5)
U3_7 U 0.88690(3) 0.23386(3) 0.38746(3)
O1_8 O 0.0874(4) 0.7816(3) 0.0949(5)
O2_8 O 0.0640(3) 0.7509(3) 0.1336(3)
C10_14 C 0.0165(4) 0.7911(3) 0.1326(5)
H4_14 H 0.015175 0.770801 0.139629
C11_14 C 0.0433(3) 0.8016(3) 0.1196(4)
C12_14 C 0.0453(4) 0.8314(4) 0.1093(6)
H5_14 H 0.063576 0.838517 0.100443
C13_14 C 0.0204(5) 0.8506(3) 0.1119(5)
H6_14 H 0.021749 0.870958 0.104839
C15_14 C 0.0640(5) 0.7762(5) 0.1148(5)
U3_8 U 0.11310(3) 0.73386(3) 0.11254(3)
O5_14 O 0.8219(4) 0.0152(4) 0.1113(5)
O7_14 O 0.8880(4) 0.0028(3) 0.1175(3)
C17_14 C 0.7782(5) 0.0234(5) 0.0620(4)
H10_14 H 0.776166 0.036584 0.078876
C18_14 C 0.7561(4) 0.0228(4) 0.0395(5)
C19_14 C 0.7591(5) 0.0035(5) 0.0148(5)
C22_14 C 0.8034(5) 0.0045(7) 0.0597(5)
C23_14 C 0.7362(15) 0.0440(13) 0.0389(12)
H13_14 H 0.721102 0.040462 0.054777
H14_14 H 0.726220 0.044114 0.018999
H15_14 H 0.746184 0.063578 0.042283
O17_8 O 0.8449(5) 0.0316(3) 0.1626(4)
O19_8 O 0.8836(3) 0.0009(3) 0.1860(3)
O9_14 O 0.6781(4) 0.0152(4) 0.8887(5)
C26_14 C 0.7218(5) 0.0234(5) 0.9380(4)
H19_14 H 0.723834 0.036584 0.921124
C27_14 C 0.7439(4) 0.0228(4) 0.9605(5)
C28_14 C 0.7409(5) 0.0035(5) 0.9852(5)
C31_14 C 0.6966(5) 0.0045(7) 0.9403(5)
C32_14 C 0.7638(15) 0.0440(13) 0.9611(12)
H22_14 H 0.778898 0.040462 0.945223
H23_14 H 0.773780 0.044114 0.981001
H24_14 H 0.753816 0.063578 0.957717
O15_14 O 0.6120(4) 0.0028(3) 0.8825(3)
O18_8 O 0.6551(5) 0.0316(3) 0.8374(4)
O20_8 O 0.6164(3) 0.0009(3) 0.8140(3)
U1_8 U 0.86254(3) 0.98386(3) 0.13690(3)
O3_14 O 0.9020(5) 0.9542(5) 0.1569(5)
O4_14 O 0.8827(4) 0.9387(4) 0.1133(4)
O6_14 O 0.8427(7) 0.9747(6) 0.0853(6)
O8_14 O 0.8307(8) 0.9632(6) 0.1548(6)
C1_14 C 0.9025(5) 0.9344(6) 0.1349(6)
C2_14 C 0.9466(4) 0.9036(4) 0.1580(4)
H1_14 H 0.946878 0.914974 0.176354
C3_14 C 0.9247(4) 0.9097(4) 0.1361(5)
C4_14 C 0.9243(5) 0.8930(6) 0.1093(4)
H2_14 H 0.909361 0.897139 0.094268
C5_14 C 0.9456(5) 0.8702(5) 0.1045(4)
C6_14 C 0.9674(4) 0.8642(4) 0.1265(5)
C7_14 C 0.9679(4) 0.8808(4) 0.1532(4)
H3_14 H 0.982794 0.876688 0.168257
C8_14 C 0.9936(4) 0.8401(4) 0.1248(5)
C9_14 C 0.9917(3) 0.8104(4) 0.1352(6)
C14_14 C 0.9686(9) 0.8017(9) 0.1505(14)
H7_14 H 0.957268 0.786554 0.138930
H8_14 H 0.955535 0.819209 0.154747
H9_14 H 0.975478 0.792804 0.169734
C16_14 C 0.8222(8) 0.9966(8) 0.0877(7)
C20_14 C 0.7843(7) 0.9846(7) 0.0125(5)
C21_14 C 0.8065(6) 0.9851(8) 0.0350(7)
H12_14 H 0.823690 0.972270 0.033391
C24_14 C 0.9474(12) 0.8527(13) 0.0831(11)
H16_14 H 0.939346 0.862486 0.064781
H17_14 H 0.935576 0.834384 0.087489
H18_14 H 0.968684 0.847183 0.079769
H20_14 H 0.713641 0.971400 0.004383
H11_14 H 0.786359 0.971400 0.995617
O10_14 O 0.6573(7) 0.9747(6) 0.9147(6)
C25_14 C 0.6778(8) 0.9966(8) 0.9123(7)
C29_14 C 0.7157(7) 0.9846(7) 0.9875(5)
C30_14 C 0.6935(6) 0.9851(8) 0.9650(7)
H21_14 H 0.676310 0.972270 0.966609
U2_8 U 0.63746(3) 0.98386(3) 0.86310(3)
O11_8 O 0.4126(4) 0.7816(3) 0.9051(5)
O12_8 O 0.4360(3) 0.7509(3) 0.8664(3)
O13_14 O 0.5980(5) 0.9542(5) 0.8431(5)
O14_14 O 0.6173(4) 0.9387(4) 0.8867(4)
O16_14 O 0.6693(8) 0.9632(6) 0.8452(6)
C33_14 C 0.5975(5) 0.9344(6) 0.8651(6)
C34_14 C 0.5534(4) 0.9036(4) 0.8420(4)
H25_14 H 0.553122 0.914974 0.823646
C35_14 C 0.5753(4) 0.9097(4) 0.8639(5)
C36_14 C 0.5757(5) 0.8930(6) 0.8907(4)
H26_14 H 0.590639 0.897139 0.905732
C37_14 C 0.5544(5) 0.8702(5) 0.8955(4)
C38_14 C 0.5326(4) 0.8642(4) 0.8735(5)
C39_14 C 0.5321(4) 0.8808(4) 0.8468(4)
H27_14 H 0.517206 0.876688 0.831743
C40_14 C 0.5064(4) 0.8401(4) 0.8752(5)
C41_14 C 0.5083(3) 0.8104(4) 0.8648(6)
C42_14 C 0.4835(4) 0.7911(3) 0.8674(5)
H28_14 H 0.484825 0.770801 0.860371
C43_14 C 0.4567(3) 0.8016(3) 0.8804(4)
C44_14 C 0.4547(4) 0.8314(4) 0.8907(6)
H29_14 H 0.436424 0.838517 0.899557
C45_14 C 0.4796(5) 0.8506(3) 0.8881(5)
H30_14 H 0.478251 0.870958 0.895161
C46_14 C 0.5314(9) 0.8017(9) 0.8495(14)
H31_14 H 0.542732 0.786554 0.861070
H32_14 H 0.544465 0.819209 0.845253
H33_14 H 0.524522 0.792804 0.830266
C47_14 C 0.4360(5) 0.7762(5) 0.8852(5)
C48_14 C 0.5526(12) 0.8527(13) 0.9169(11)
H34_14 H 0.560654 0.862486 0.935219
H35_14 H 0.564424 0.834384 0.912511
H36_14 H 0.531316 0.847183 0.920231
U4_8 U 0.38690(3) 0.73386(3) 0.88746(3)
O3_15 O 0.0931(5) 0.7042(5) 0.1520(5)
O4_15 O 0.1367(4) 0.6887(4) 0.1327(4)
O5_15 O 0.1387(5) 0.7652(4) 0.0719(4)
O6_15 O 0.1647(6) 0.7247(6) 0.0927(7)
O7_15 O 0.1325(3) 0.7528(3) 0.1380(4)
O8_15 O 0.0952(6) 0.7132(6) 0.0807(8)
C1_15 C 0.1151(6) 0.6844(6) 0.1525(5)
C2_15 C 0.0920(4) 0.6536(4) 0.1966(4)
H1_15 H 0.073646 0.664974 0.196878
C3_15 C 0.1139(5) 0.6597(4) 0.1747(4)
C4_15 C 0.1407(4) 0.6430(6) 0.1743(5)
H2_15 H 0.155732 0.647139 0.159361
C5_15 C 0.1455(4) 0.6202(5) 0.1956(5)
C6_15 C 0.1235(5) 0.6142(4) 0.2174(4)
C7_15 C 0.0968(4) 0.6308(4) 0.2179(4)
H3_15 H 0.081743 0.626688 0.232794
C8_15 C 0.1252(5) 0.5901(4) 0.2436(4)
C9_15 C 0.1148(6) 0.5604(4) 0.2417(3)
C10_15 C 0.1174(5) 0.5411(3) 0.2665(4)
H4_15 H 0.110371 0.520801 0.265175
C11_15 C 0.1304(4) 0.5516(3) 0.2933(3)
C12_15 C 0.1407(6) 0.5814(4) 0.2953(4)
H5_15 H 0.149557 0.588517 0.313576
C13_15 C 0.1381(5) 0.6006(3) 0.2704(5)
H6_15 H 0.145161 0.620958 0.271749
C14_15 C 0.0995(14) 0.5517(9) 0.2186(9)
H7_15 H 0.111070 0.536554 0.207268
H8_15 H 0.095253 0.569209 0.205535
H9_15 H 0.080266 0.542804 0.225478
C15_15 C 0.1352(5) 0.5262(5) 0.3140(5)
C16_15 C 0.1623(7) 0.7466(8) 0.0722(8)
C17_15 C 0.1880(4) 0.7734(5) 0.0282(5)
H10_15 H 0.171124 0.786584 0.026166
C18_15 C 0.2105(5) 0.7728(4) 0.0061(4)
C19_15 C 0.2352(5) 0.7535(5) 0.0091(5)
C20_15 C 0.2375(5) 0.7346(7) 0.0343(7)
H11_15 H 0.254383 0.721400 0.036359
C21_15 C 0.2150(7) 0.7351(8) 0.0565(6)
H12_15 H 0.216609 0.722270 0.073690
C22_15 C 0.1903(5) 0.7545(7) 0.0534(5)
C24_15 C 0.1669(11) 0.6027(13) 0.1974(12)
H16_15 H 0.185219 0.612486 0.189346
H17_15 H 0.162511 0.584384 0.185576
H18_15 H 0.170231 0.597183 0.218684
C32_15 C 0.2889(12) 0.7940(13) 0.0138(15)
H22_15 H 0.304777 0.790462 0.028898
H23_15 H 0.268999 0.794114 0.023780
H24_15 H 0.292283 0.813578 0.003816
C23_15 C 0.2111(12) 0.7940(13) 0.9862(15)
H13_15 H 0.195223 0.790462 0.971102
H14_15 H 0.231001 0.794114 0.976220
H15_15 H 0.207717 0.813578 0.996184
O9_15 O 0.3613(5) 0.7652(4) 0.9281(4)
O10_15 O 0.3353(6) 0.7247(6) 0.9073(7)
C25_15 C 0.3377(7) 0.7466(8) 0.9278(8)
C26_15 C 0.3120(4) 0.7734(5) 0.9718(5)
H19_15 H 0.328876 0.786584 0.973834
C27_15 C 0.2895(5) 0.7728(4) 0.9939(4)
C28_15 C 0.2648(5) 0.7535(5) 0.9909(5)
C29_15 C 0.2625(5) 0.7346(7) 0.9657(7)
H20_15 H 0.245617 0.721400 0.963641
C30_15 C 0.2850(7) 0.7351(8) 0.9435(6)
H21_15 H 0.283391 0.722270 0.926310
C31_15 C 0.3097(5) 0.7545(7) 0.9466(5)
O13_15 O 0.4069(5) 0.7042(5) 0.8480(5)
O14_15 O 0.3633(4) 0.6887(4) 0.8673(4)
O15_15 O 0.3675(3) 0.7528(3) 0.8620(4)
O16_15 O 0.4048(6) 0.7132(6) 0.9193(8)
C33_15 C 0.3849(6) 0.6844(6) 0.8475(5)
C34_15 C 0.4080(4) 0.6536(4) 0.8034(4)
H25_15 H 0.426354 0.664974 0.803122
C35_15 C 0.3861(5) 0.6597(4) 0.8253(4)
C36_15 C 0.3593(4) 0.6430(6) 0.8257(5)
H26_15 H 0.344268 0.647139 0.840639
C37_15 C 0.3545(4) 0.6202(5) 0.8044(5)
C38_15 C 0.3765(5) 0.6142(4) 0.7826(4)
C39_15 C 0.4032(4) 0.6308(4) 0.7821(4)
H27_15 H 0.418257 0.626688 0.767206
C40_15 C 0.3748(5) 0.5901(4) 0.7564(4)
C41_15 C 0.3852(6) 0.5604(4) 0.7583(3)
C42_15 C 0.3826(5) 0.5411(3) 0.7335(4)
H28_15 H 0.389629 0.520801 0.734825
C43_15 C 0.3696(4) 0.5516(3) 0.7067(3)
C44_15 C 0.3593(6) 0.5814(4) 0.7047(4)
H29_15 H 0.350443 0.588517 0.686424
C45_15 C 0.3619(5) 0.6006(3) 0.7296(5)
H30_15 H 0.354839 0.620958 0.728251
C46_15 C 0.4005(14) 0.5517(9) 0.7814(9)
H31_15 H 0.388930 0.536554 0.792732
H32_15 H 0.404747 0.569209 0.794465
H33_15 H 0.419734 0.542804 0.774522
C47_15 C 0.3648(5) 0.5262(5) 0.6860(5)
C48_15 C 0.3331(11) 0.6027(13) 0.8026(12)
H34_15 H 0.314781 0.612486 0.810654
H35_15 H 0.337489 0.584384 0.814424
H36_15 H 0.329769 0.597183 0.781316
O3_16 O 0.9069(5) 0.2042(5) 0.3480(5)
O4_16 O 0.8633(4) 0.1887(4) 0.3673(4)
O5_16 O 0.8613(5) 0.2652(4) 0.4281(4)
O6_16 O 0.8353(6) 0.2247(6) 0.4073(7)
O7_16 O 0.8675(3) 0.2528(3) 0.3620(4)
O8_16 O 0.9048(6) 0.2132(6) 0.4193(8)
C1_16 C 0.8849(6) 0.1844(6) 0.3475(5)
C2_16 C 0.9080(4) 0.1536(4) 0.3034(4)
H1_16 H 0.926354 0.164974 0.303122
C3_16 C 0.8861(5) 0.1597(4) 0.3253(4)
C4_16 C 0.8593(4) 0.1430(6) 0.3257(5)
H2_16 H 0.844268 0.147139 0.340639
C5_16 C 0.8545(4) 0.1202(5) 0.3044(5)
C6_16 C 0.8765(5) 0.1142(4) 0.2826(4)
C7_16 C 0.9032(4) 0.1308(4) 0.2821(4)
H3_16 H 0.918257 0.126688 0.267206
C8_16 C 0.8748(5) 0.0901(4) 0.2564(4)
C9_16 C 0.8852(6) 0.0604(4) 0.2583(3)
C10_16 C 0.8826(5) 0.0411(3) 0.2335(4)
H4_16 H 0.889629 0.020801 0.234825
C11_16 C 0.8696(4) 0.0516(3) 0.2067(3)
C12_16 C 0.8593(6) 0.0814(4) 0.2047(4)
H5_16 H 0.850443 0.088517 0.186424
C13_16 C 0.8619(5) 0.1006(3) 0.2296(5)
H6_16 H 0.854839 0.120958 0.228251
C14_16 C 0.9005(14) 0.0517(9) 0.2814(9)
H7_16 H 0.888930 0.036554 0.292732
H8_16 H 0.904747 0.069209 0.294465
H9_16 H 0.919734 0.042804 0.274522
C15_16 C 0.8648(5) 0.0262(5) 0.1860(5)
C16_16 C 0.8377(7) 0.2466(8) 0.4278(8)
C17_16 C 0.8120(4) 0.2734(5) 0.4718(5)
H10_16 H 0.828876 0.286584 0.473834
C18_16 C 0.7895(5) 0.2728(4) 0.4939(4)
C19_16 C 0.7648(5) 0.2535(5) 0.4909(5)
C20_16 C 0.7625(5) 0.2346(7) 0.4657(7)
H11_16 H 0.745617 0.221400 0.463641
C21_16 C 0.7850(7) 0.2351(8) 0.4435(6)
H12_16 H 0.783391 0.222270 0.426310
C22_16 C 0.8097(5) 0.2545(7) 0.4466(5)
C23_16 C 0.7889(12) 0.2940(13) 0.5138(15)
H13_16 H 0.804777 0.290462 0.528898
H14_16 H 0.768999 0.294114 0.523780
H15_16 H 0.792283 0.313578 0.503816
C24_16 C 0.8331(11) 0.1027(13) 0.3026(12)
H16_16 H 0.814781 0.112486 0.310654
H17_16 H 0.837489 0.084384 0.314424
H18_16 H 0.829769 0.097183 0.281316
O9_16 O 0.6387(5) 0.2652(4) 0.5719(4)
O10_16 O 0.6647(6) 0.2247(6) 0.5927(7)
C25_16 C 0.6623(7) 0.2466(8) 0.5722(8)
C26_16 C 0.6880(4) 0.2734(5) 0.5282(5)
H19_16 H 0.671124 0.286584 0.526166
C27_16 C 0.7105(5) 0.2728(4) 0.5061(4)
C28_16 C 0.7352(5) 0.2535(5) 0.5091(5)
C29_16 C 0.7375(5) 0.2346(7) 0.5343(7)
H20_16 H 0.754383 0.221400 0.536359
C30_16 C 0.7150(7) 0.2351(8) 0.5565(6)
H21_16 H 0.716609 0.222270 0.573690
C31_16 C 0.6903(5) 0.2545(7) 0.5534(5)
C32_16 C 0.7111(12) 0.2940(13) 0.4862(15)
H22_16 H 0.695223 0.290462 0.471102
H23_16 H 0.731001 0.294114 0.476220
H24_16 H 0.707717 0.313578 0.496184
O13_16 O 0.5931(5) 0.2042(5) 0.6520(5)
O14_16 O 0.6367(4) 0.1887(4) 0.6327(4)
O15_16 O 0.6325(3) 0.2528(3) 0.6380(4)
O16_16 O 0.5952(6) 0.2132(6) 0.5807(8)
C33_16 C 0.6151(6) 0.1844(6) 0.6525(5)
C34_16 C 0.5920(4) 0.1536(4) 0.6966(4)
H25_16 H 0.573646 0.164974 0.696878
C35_16 C 0.6139(5) 0.1597(4) 0.6747(4)
C36_16 C 0.6407(4) 0.1430(6) 0.6743(5)
H26_16 H 0.655732 0.147139 0.659361
C37_16 C 0.6455(4) 0.1202(5) 0.6956(5)
C38_16 C 0.6235(5) 0.1142(4) 0.7174(4)
C39_16 C 0.5968(4) 0.1308(4) 0.7179(4)
H27_16 H 0.581743 0.126688 0.732794
C40_16 C 0.6252(5) 0.0901(4) 0.7436(4)
C41_16 C 0.6148(6) 0.0604(4) 0.7417(3)
C42_16 C 0.6174(5) 0.0411(3) 0.7665(4)
H28_16 H 0.610371 0.020801 0.765175
C43_16 C 0.6304(4) 0.0516(3) 0.7933(3)
C44_16 C 0.6407(6) 0.0814(4) 0.7953(4)
H29_16 H 0.649557 0.088517 0.813576
C45_16 C 0.6381(5) 0.1006(3) 0.7704(5)
H30_16 H 0.645161 0.120958 0.771749
C46_16 C 0.5995(14) 0.0517(9) 0.7186(9)
H31_16 H 0.611070 0.036554 0.707268
H32_16 H 0.595253 0.069209 0.705535
H33_16 H 0.580266 0.042804 0.725478
C47_16 C 0.6352(5) 0.0262(5) 0.8140(5)
C48_16 C 0.6669(11) 0.1027(13) 0.6974(12)
H34_16 H 0.685219 0.112486 0.689346
H35_16 H 0.662511 0.084384 0.685576
H36_16 H 0.670231 0.097183 0.718684
O11_9 O 0.4051(5) 0.0874(4) 0.2184(3)
O12_9 O 0.3664(3) 0.0640(3) 0.2491(3)
C42_17 C 0.3674(5) 0.0165(4) 0.2089(3)
H28_17 H 0.360371 0.015175 0.229199
C43_17 C 0.3804(4) 0.0433(3) 0.1984(3)
C44_17 C 0.3907(6) 0.0453(4) 0.1686(4)
H29_17 H 0.399557 0.063576 0.161483
C45_17 C 0.3881(5) 0.0204(5) 0.1494(3)
H30_17 H 0.395161 0.021749 0.129042
C47_17 C 0.3852(5) 0.0640(5) 0.2238(5)
U4_9 U 0.38746(3) 0.11310(3) 0.26614(3)
U1_9 U 0.63690(3) 0.63746(3) 0.01614(3)
O1_9 O 0.5949(5) 0.4126(4) 0.2184(3)
O2_9 O 0.6336(3) 0.4360(3) 0.2491(3)
O3_17 O 0.6569(5) 0.5980(5) 0.0458(5)
O4_17 O 0.6133(4) 0.6173(4) 0.0613(4)
O6_17 O 0.5853(6) 0.6573(7) 0.0253(6)
O8_17 O 0.6548(6) 0.6693(8) 0.0368(6)
C1_17 C 0.6349(6) 0.5975(5) 0.0656(6)
C2_17 C 0.6580(4) 0.5534(4) 0.0964(4)
H1_17 H 0.676354 0.553122 0.085026
C3_17 C 0.6361(5) 0.5753(4) 0.0903(4)
C4_17 C 0.6093(4) 0.5757(5) 0.1070(6)
H2_17 H 0.594268 0.590639 0.102861
C5_17 C 0.6045(4) 0.5544(5) 0.1298(5)
C6_17 C 0.6265(5) 0.5326(4) 0.1358(4)
C7_17 C 0.6532(4) 0.5321(4) 0.1192(4)
H3_17 H 0.668257 0.517206 0.123312
C8_17 C 0.6248(5) 0.5064(4) 0.1599(4)
C9_17 C 0.6352(6) 0.5083(3) 0.1896(4)
C10_17 C 0.6326(5) 0.4835(4) 0.2089(3)
H4_17 H 0.639629 0.484825 0.229199
C11_17 C 0.6196(4) 0.4567(3) 0.1984(3)
C12_17 C 0.6093(6) 0.4547(4) 0.1686(4)
H5_17 H 0.600443 0.436424 0.161483
C13_17 C 0.6119(5) 0.4796(5) 0.1494(3)
H6_17 H 0.604839 0.478251 0.129042
C14_17 C 0.6505(14) 0.5314(9) 0.1983(9)
H7_17 H 0.638930 0.542732 0.213446
H8_17 H 0.654747 0.544465 0.180791
H9_17 H 0.669734 0.524522 0.207196
C15_17 C 0.6148(5) 0.4360(5) 0.2238(5)
C16_17 C 0.5877(7) 0.6778(8) 0.0034(8)
C20_17 C 0.5125(5) 0.7157(7) 0.0154(7)
H11_17 H 0.495617 0.713641 0.028600
C21_17 C 0.5350(7) 0.6935(6) 0.0149(8)
H12_17 H 0.533391 0.676310 0.027730
C24_17 C 0.5831(11) 0.5526(12) 0.1473(13)
H16_17 H 0.564781 0.560654 0.137514
H17_17 H 0.587489 0.564424 0.165616
H18_17 H 0.579769 0.531316 0.152817
O10_17 O 0.4147(6) 0.8427(7) 0.0253(6)
C25_17 C 0.4123(7) 0.8222(8) 0.0034(8)
C29_17 C 0.4875(5) 0.7843(7) 0.0154(7)
H20_17 H 0.504383 0.786359 0.028600
C30_17 C 0.4650(7) 0.8065(6) 0.0149(8)
H21_17 H 0.466609 0.823690 0.027730
U2_9 U 0.36310(3) 0.86254(3) 0.01614(3)
O13_17 O 0.3431(5) 0.9020(5) 0.0458(5)
O14_17 O 0.3867(4) 0.8827(4) 0.0613(4)
O16_17 O 0.3452(6) 0.8307(8) 0.0368(6)
C33_17 C 0.3651(6) 0.9025(5) 0.0656(6)
C34_17 C 0.3420(4) 0.9466(4) 0.0964(4)
H25_17 H 0.323646 0.946878 0.085026
C35_17 C 0.3639(5) 0.9247(4) 0.0903(4)
C36_17 C 0.3907(4) 0.9243(5) 0.1070(6)
H26_17 H 0.405732 0.909361 0.102861
C37_17 C 0.3955(4) 0.9456(5) 0.1298(5)
C38_17 C 0.3735(5) 0.9674(4) 0.1358(4)
C39_17 C 0.3468(4) 0.9679(4) 0.1192(4)
H27_17 H 0.331743 0.982794 0.123312
C40_17 C 0.3752(5) 0.9936(4) 0.1599(4)
C41_17 C 0.3648(6) 0.9917(3) 0.1896(4)
C46_17 C 0.3495(14) 0.9686(9) 0.1983(9)
H31_17 H 0.361070 0.957268 0.213446
H32_17 H 0.345253 0.955535 0.180791
H33_17 H 0.330266 0.975478 0.207196
C48_17 C 0.4169(11) 0.9474(12) 0.1473(13)
H34_17 H 0.435219 0.939346 0.137514
H35_17 H 0.412511 0.935576 0.165616
H36_17 H 0.420231 0.968684 0.152817
U3_9 U 0.61254(3) 0.38690(3) 0.26614(3)
O5_17 O 0.6113(5) 0.6781(4) 0.9848(4)
O7_17 O 0.6175(3) 0.6120(4) 0.9972(3)
C17_17 C 0.5620(4) 0.7218(5) 0.9766(5)
H10_17 H 0.578876 0.723834 0.963416
C18_17 C 0.5395(5) 0.7439(4) 0.9772(4)
C19_17 C 0.5148(5) 0.7409(5) 0.9965(5)
C22_17 C 0.5597(5) 0.6966(5) 0.9955(7)
C23_17 C 0.5389(12) 0.7638(15) 0.9560(13)
H13_17 H 0.554777 0.778898 0.959538
H14_17 H 0.518999 0.773780 0.955886
H15_17 H 0.542283 0.753816 0.936422
O9_17 O 0.3887(5) 0.8219(4) 0.9848(4)
C26_17 C 0.4380(4) 0.7782(5) 0.9766(5)
H19_17 H 0.421124 0.776166 0.963416
C27_17 C 0.4605(5) 0.7561(4) 0.9772(4)
C28_17 C 0.4852(5) 0.7591(5) 0.9965(5)
C31_17 C 0.4403(5) 0.8034(5) 0.9955(7)
C32_17 C 0.4611(12) 0.7362(15) 0.9560(13)
H22_17 H 0.445223 0.721102 0.959538
H23_17 H 0.481001 0.726220 0.955886
H24_17 H 0.457717 0.746184 0.936422
O15_17 O 0.3825(3) 0.8880(4) 0.9972(3)
O17_9 O 0.6626(4) 0.6551(5) 0.9684(3)
O18_9 O 0.3374(4) 0.8449(5) 0.9684(3)
O19_9 O 0.6860(3) 0.6164(3) 0.9991(3)
O20_9 O 0.3140(3) 0.8836(3) 0.9991(3)
H11_18 H 0.004383 0.286359 0.528600
O9_18 O 0.1113(5) 0.1781(4) 0.4848(4)
O10_18 O 0.0853(6) 0.1573(7) 0.5253(6)
C25_18 C 0.0877(7) 0.1778(8) 0.5034(8)
C26_18 C 0.0620(4) 0.2218(5) 0.4766(5)
H19_18 H 0.078876 0.223834 0.463416
C27_18 C 0.0395(5) 0.2439(4) 0.4772(4)
C28_18 C 0.0148(5) 0.2409(5) 0.4965(5)
C29_18 C 0.0125(5) 0.2157(7) 0.5154(7)
C30_18 C 0.0350(7) 0.1935(6) 0.5149(8)
H21_18 H 0.033391 0.176310 0.527730
C31_18 C 0.0597(5) 0.1966(5) 0.4955(7)
C32_18 C 0.0389(12) 0.2638(15) 0.4560(13)
H22_18 H 0.054777 0.278898 0.459538
H23_18 H 0.018999 0.273780 0.455886
H24_18 H 0.042283 0.253816 0.436422
U2_10 U 0.13690(3) 0.13746(3) 0.51614(3)
O13_18 O 0.1569(5) 0.0980(5) 0.5458(5)
O14_18 O 0.1133(4) 0.1173(4) 0.5613(4)
O15_18 O 0.1175(3) 0.1120(4) 0.4972(3)
O16_18 O 0.1548(6) 0.1693(8) 0.5368(6)
C33_18 C 0.1349(6) 0.0975(5) 0.5656(6)
C34_18 C 0.1580(4) 0.0534(4) 0.5964(4)
H25_18 H 0.176354 0.053122 0.585026
C35_18 C 0.1361(5) 0.0753(4) 0.5903(4)
C36_18 C 0.1093(4) 0.0757(5) 0.6070(6)
H26_18 H 0.094268 0.090639 0.602861
C37_18 C 0.1045(4) 0.0544(5) 0.6298(5)
C38_18 C 0.1265(5) 0.0326(4) 0.6358(4)
C39_18 C 0.1532(4) 0.0321(4) 0.6192(4)
H27_18 H 0.168257 0.017206 0.623312
C40_18 C 0.1248(5) 0.0064(4) 0.6599(4)
C41_18 C 0.1352(6) 0.0083(3) 0.6896(4)
C46_18 C 0.1505(14) 0.0314(9) 0.6983(9)
H31_18 H 0.138930 0.042732 0.713446
H32_18 H 0.154747 0.044465 0.680791
H33_18 H 0.169734 0.024522 0.707196
C48_18 C 0.0831(11) 0.0526(12) 0.6473(13)
H34_18 H 0.064781 0.060654 0.637514
H35_18 H 0.087489 0.064424 0.665616
H36_18 H 0.079769 0.031316 0.652817
O18_10 O 0.1626(4) 0.1551(5) 0.4684(3)
O20_10 O 0.1860(3) 0.1164(3) 0.4991(3)
O11_10 O 0.0949(5) 0.9126(4) 0.7184(3)
O12_10 O 0.1336(3) 0.9360(3) 0.7491(3)
C42_18 C 0.1326(5) 0.9835(4) 0.7089(3)
H28_18 H 0.139629 0.984825 0.729199
C43_18 C 0.1196(4) 0.9567(3) 0.6984(3)
C44_18 C 0.1093(6) 0.9547(4) 0.6686(4)
H29_18 H 0.100443 0.936424 0.661483
C45_18 C 0.1119(5) 0.9796(5) 0.6494(3)
H30_18 H 0.104839 0.978251 0.629042
C47_18 C 0.1148(5) 0.9360(5) 0.7238(5)
U4_10 U 0.11254(3) 0.88690(3) 0.76614(3)
U1_10 U 0.86310(3) 0.36254(3) 0.51614(3)
O1_10 O 0.9051(5) 0.5874(4) 0.7184(3)
O2_10 O 0.8664(3) 0.5640(3) 0.7491(3)
O3_18 O 0.8431(5) 0.4020(5) 0.5458(5)
O4_18 O 0.8867(4) 0.3827(4) 0.5613(4)
O5_18 O 0.8887(5) 0.3219(4) 0.4848(4)
O6_18 O 0.9147(6) 0.3427(7) 0.5253(6)
O7_18 O 0.8825(3) 0.3880(4) 0.4972(3)
O8_18 O 0.8452(6) 0.3307(8) 0.5368(6)
C1_18 C 0.8651(6) 0.4025(5) 0.5656(6)
C2_18 C 0.8420(4) 0.4466(4) 0.5964(4)
H1_18 H 0.823646 0.446878 0.585026
C3_18 C 0.8639(5) 0.4247(4) 0.5903(4)
C4_18 C 0.8907(4) 0.4243(5) 0.6070(6)
H2_18 H 0.905732 0.409361 0.602861
C5_18 C 0.8955(4) 0.4456(5) 0.6298(5)
C6_18 C 0.8735(5) 0.4674(4) 0.6358(4)
C7_18 C 0.8468(4) 0.4679(4) 0.6192(4)
H3_18 H 0.831743 0.482794 0.623312
C8_18 C 0.8752(5) 0.4936(4) 0.6599(4)
C9_18 C 0.8648(6) 0.4917(3) 0.6896(4)
C10_18 C 0.8674(5) 0.5165(4) 0.7089(3)
H4_18 H 0.860371 0.515175 0.729199
C11_18 C 0.8804(4) 0.5433(3) 0.6984(3)
C12_18 C 0.8907(6) 0.5453(4) 0.6686(4)
H5_18 H 0.899557 0.563576 0.661483
C13_18 C 0.8881(5) 0.5204(5) 0.6494(3)
H6_18 H 0.895161 0.521749 0.629042
C14_18 C 0.8495(14) 0.4686(9) 0.6983(9)
H7_18 H 0.861070 0.457268 0.713446
H8_18 H 0.845253 0.455535 0.680791
H9_18 H 0.830266 0.475478 0.707196
C15_18 C 0.8852(5) 0.5640(5) 0.7238(5)
C16_18 C 0.9123(7) 0.3222(8) 0.5034(8)
C17_18 C 0.9380(4) 0.2782(5) 0.4766(5)
H10_18 H 0.921124 0.276166 0.463416
C18_18 C 0.9605(5) 0.2561(4) 0.4772(4)
C19_18 C 0.9852(5) 0.2591(5) 0.4965(5)
C20_18 C 0.9875(5) 0.2843(7) 0.5154(7)
C21_18 C 0.9650(7) 0.3065(6) 0.5149(8)
H12_18 H 0.966609 0.323690 0.527730
C22_18 C 0.9403(5) 0.3034(5) 0.4955(7)
C23_18 C 0.9611(12) 0.2362(15) 0.4560(13)
H13_18 H 0.945223 0.221102 0.459538
H14_18 H 0.981001 0.226220 0.455886
H15_18 H 0.957717 0.246184 0.436422
C24_18 C 0.9169(11) 0.4474(12) 0.6473(13)
H16_18 H 0.935219 0.439346 0.637514
H17_18 H 0.912511 0.435576 0.665616
H18_18 H 0.920231 0.468684 0.652817
H20_18 H 0.995617 0.213641 0.528600
U3_10 U 0.88746(3) 0.61310(3) 0.76614(3)
O17_10 O 0.8374(4) 0.3449(5) 0.4684(3)
O19_10 O 0.8140(3) 0.3836(3) 0.4991(3)
C23_19 C 0.0138(15) 0.7111(12) 0.7060(13)
H13_19 H 0.028898 0.695223 0.709538
H14_19 H 0.023780 0.731001 0.705886
H15_19 H 0.003816 0.707717 0.686422
O9_19 O 0.0719(4) 0.8613(5) 0.7348(4)
O10_19 O 0.0927(7) 0.8353(6) 0.7753(6)
C25_19 C 0.0722(8) 0.8377(7) 0.7534(8)
C26_19 C 0.0282(5) 0.8120(4) 0.7266(5)
H19_19 H 0.026166 0.828876 0.713416
C27_19 C 0.0061(4) 0.7895(5) 0.7272(4)
C28_19 C 0.0091(5) 0.7648(5) 0.7465(5)
C29_19 C 0.0343(7) 0.7625(5) 0.7654(7)
H20_19 H 0.036359 0.745617 0.778600
C30_19 C 0.0565(6) 0.7850(7) 0.7649(8)
H21_19 H 0.073690 0.783391 0.777730
C31_19 C 0.0534(5) 0.8097(5) 0.7455(7)
O13_19 O 0.1520(5) 0.9069(5) 0.7958(5)
O14_19 O 0.1327(4) 0.8633(4) 0.8113(4)
O15_19 O 0.1380(4) 0.8675(3) 0.7472(3)
O16_19 O 0.0807(8) 0.9048(6) 0.7868(6)
C33_19 C 0.1525(5) 0.8849(6) 0.8156(6)
C34_19 C 0.1966(4) 0.9080(4) 0.8464(4)
H25_19 H 0.196878 0.926354 0.835026
C35_19 C 0.1747(4) 0.8861(5) 0.8403(4)
C36_19 C 0.1743(5) 0.8593(4) 0.8570(6)
H26_19 H 0.159361 0.844268 0.852861
C37_19 C 0.1956(5) 0.8545(4) 0.8798(5)
C38_19 C 0.2174(4) 0.8765(5) 0.8858(4)
C39_19 C 0.2179(4) 0.9032(4) 0.8692(4)
H27_19 H 0.232794 0.918257 0.873312
C40_19 C 0.2436(4) 0.8748(5) 0.9099(4)
C41_19 C 0.2417(3) 0.8852(6) 0.9396(4)
C42_19 C 0.2665(4) 0.8826(5) 0.9589(3)
H28_19 H 0.265175 0.889629 0.979199
C43_19 C 0.2933(3) 0.8696(4) 0.9484(3)
C44_19 C 0.2953(4) 0.8593(6) 0.9186(4)
H29_19 H 0.313576 0.850443 0.911483
C45_19 C 0.2704(5) 0.8619(5) 0.8994(3)
H30_19 H 0.271749 0.854839 0.879042
C46_19 C 0.2186(9) 0.9005(14) 0.9483(9)
H31_19 H 0.207268 0.888930 0.963446
H32_19 H 0.205535 0.904747 0.930791
H33_19 H 0.225478 0.919734 0.957196
C47_19 C 0.3140(5) 0.8648(5) 0.9738(5)
C48_19 C 0.1974(12) 0.8331(11) 0.8973(13)
H34_19 H 0.189346 0.814781 0.887514
H35_19 H 0.185576 0.837489 0.915616
H36_19 H 0.218684 0.829769 0.902817
O3_19 O 0.8480(5) 0.5931(5) 0.7958(5)
O4_19 O 0.8673(4) 0.6367(4) 0.8113(4)
O5_19 O 0.9281(4) 0.6387(5) 0.7348(4)
O6_19 O 0.9073(7) 0.6647(6) 0.7753(6)
O7_19 O 0.8620(4) 0.6325(3) 0.7472(3)
O8_19 O 0.9193(8) 0.5952(6) 0.7868(6)
C1_19 C 0.8475(5) 0.6151(6) 0.8156(6)
C2_19 C 0.8034(4) 0.5920(4) 0.8464(4)
H1_19 H 0.803122 0.573646 0.835026
C3_19 C 0.8253(4) 0.6139(5) 0.8403(4)
C4_19 C 0.8257(5) 0.6407(4) 0.8570(6)
H2_19 H 0.840639 0.655732 0.852861
C5_19 C 0.8044(5) 0.6455(4) 0.8798(5)
C6_19 C 0.7826(4) 0.6235(5) 0.8858(4)
C7_19 C 0.7821(4) 0.5968(4) 0.8692(4)
H3_19 H 0.767206 0.581743 0.873312
C8_19 C 0.7564(4) 0.6252(5) 0.9099(4)
C9_19 C 0.7583(3) 0.6148(6) 0.9396(4)
C10_19 C 0.7335(4) 0.6174(5) 0.9589(3)
H4_19 H 0.734825 0.610371 0.979199
C11_19 C 0.7067(3) 0.6304(4) 0.9484(3)
C12_19 C 0.7047(4) 0.6407(6) 0.9186(4)
H5_19 H 0.686424 0.649557 0.911483
C13_19 C 0.7296(5) 0.6381(5) 0.8994(3)
H6_19 H 0.728251 0.645161 0.879042
C14_19 C 0.7814(9) 0.5995(14) 0.9483(9)
H7_19 H 0.792732 0.611070 0.963446
H8_19 H 0.794465 0.595253 0.930791
H9_19 H 0.774522 0.580266 0.957196
C15_19 C 0.6860(5) 0.6352(5) 0.9738(5)
C16_19 C 0.9278(8) 0.6623(7) 0.7534(8)
C17_19 C 0.9718(5) 0.6880(4) 0.7266(5)
H10_19 H 0.973834 0.671124 0.713416
C18_19 C 0.9939(4) 0.7105(5) 0.7272(4)
C19_19 C 0.9909(5) 0.7352(5) 0.7465(5)
C20_19 C 0.9657(7) 0.7375(5) 0.7654(7)
H11_19 H 0.963641 0.754383 0.778600
C21_19 C 0.9435(6) 0.7150(7) 0.7649(8)
H12_19 H 0.926310 0.716609 0.777730
C22_19 C 0.9466(5) 0.6903(5) 0.7455(7)
C24_19 C 0.8026(12) 0.6669(11) 0.8973(13)
H16_19 H 0.810654 0.685219 0.887514
H17_19 H 0.814424 0.662511 0.915616
H18_19 H 0.781316 0.670231 0.902817
C32_19 C 0.9862(15) 0.7889(12) 0.7060(13)
H22_19 H 0.971102 0.804777 0.709538
H23_19 H 0.976220 0.768999 0.705886
H24_19 H 0.996184 0.792283 0.686422
O3_20 O 0.6520(5) 0.4069(5) 0.2958(5)
O4_20 O 0.6327(4) 0.3633(4) 0.3113(4)
O5_20 O 0.5719(4) 0.3613(5) 0.2348(4)
O6_20 O 0.5927(7) 0.3353(6) 0.2753(6)
O7_20 O 0.6380(4) 0.3675(3) 0.2472(3)
O8_20 O 0.5807(8) 0.4048(6) 0.2868(6)
C1_20 C 0.6525(5) 0.3849(6) 0.3156(6)
C2_20 C 0.6966(4) 0.4080(4) 0.3464(4)
H1_20 H 0.696878 0.426354 0.335026
C3_20 C 0.6747(4) 0.3861(5) 0.3403(4)
C4_20 C 0.6743(5) 0.3593(4) 0.3570(6)
H2_20 H 0.659361 0.344268 0.352861
C5_20 C 0.6956(5) 0.3545(4) 0.3798(5)
C6_20 C 0.7174(4) 0.3765(5) 0.3858(4)
C7_20 C 0.7179(4) 0.4032(4) 0.3692(4)
H3_20 H 0.732794 0.418257 0.373312
C8_20 C 0.7436(4) 0.3748(5) 0.4099(4)
C9_20 C 0.7417(3) 0.3852(6) 0.4396(4)
C10_20 C 0.7665(4) 0.3826(5) 0.4589(3)
H4_20 H 0.765175 0.389629 0.479199
C11_20 C 0.7933(3) 0.3696(4) 0.4484(3)
C12_20 C 0.7953(4) 0.3593(6) 0.4186(4)
H5_20 H 0.813576 0.350443 0.411483
C13_20 C 0.7704(5) 0.3619(5) 0.3994(3)
H6_20 H 0.771749 0.354839 0.379042
C14_20 C 0.7186(9) 0.4005(14) 0.4483(9)
H7_20 H 0.707268 0.388930 0.463446
H8_20 H 0.705535 0.404747 0.430791
H9_20 H 0.725478 0.419734 0.457196
C15_20 C 0.8140(5) 0.3648(5) 0.4738(5)
C16_20 C 0.5722(8) 0.3377(7) 0.2534(8)
C17_20 C 0.5282(5) 0.3120(4) 0.2266(5)
H10_20 H 0.526166 0.328876 0.213416
C18_20 C 0.5061(4) 0.2895(5) 0.2272(4)
C19_20 C 0.5091(5) 0.2648(5) 0.2465(5)
C20_20 C 0.5343(7) 0.2625(5) 0.2654(7)
H11_20 H 0.536359 0.245617 0.278600
C21_20 C 0.5565(6) 0.2850(7) 0.2649(8)
H12_20 H 0.573690 0.283391 0.277730
C22_20 C 0.5534(5) 0.3097(5) 0.2455(7)
C23_20 C 0.4862(15) 0.2889(12) 0.2060(13)
H13_20 H 0.471102 0.304777 0.209538
H14_20 H 0.476220 0.268999 0.205886
H15_20 H 0.496184 0.292283 0.186422
C24_20 C 0.6974(12) 0.3331(11) 0.3973(13)
H16_20 H 0.689346 0.314781 0.387514
H17_20 H 0.685576 0.337489 0.415616
H18_20 H 0.718684 0.329769 0.402817
O9_20 O 0.4281(4) 0.1387(5) 0.2348(4)
O10_20 O 0.4073(7) 0.1647(6) 0.2753(6)
C25_20 C 0.4278(8) 0.1623(7) 0.2534(8)
C26_20 C 0.4718(5) 0.1880(4) 0.2266(5)
H19_20 H 0.473834 0.171124 0.213416
C27_20 C 0.4939(4) 0.2105(5) 0.2272(4)
C28_20 C 0.4909(5) 0.2352(5) 0.2465(5)
C29_20 C 0.4657(7) 0.2375(5) 0.2654(7)
H20_20 H 0.463641 0.254383 0.278600
C30_20 C 0.4435(6) 0.2150(7) 0.2649(8)
H21_20 H 0.426310 0.216609 0.277730
C31_20 C 0.4466(5) 0.1903(5) 0.2455(7)
C32_20 C 0.5138(15) 0.2111(12) 0.2060(13)
H22_20 H 0.528898 0.195223 0.209538
H23_20 H 0.523780 0.231001 0.205886
H24_20 H 0.503816 0.207717 0.186422
O13_20 O 0.3480(5) 0.0931(5) 0.2958(5)
O14_20 O 0.3673(4) 0.1367(4) 0.3113(4)
O15_20 O 0.3620(4) 0.1325(3) 0.2472(3)
O16_20 O 0.4193(8) 0.0952(6) 0.2868(6)
C33_20 C 0.3475(5) 0.1151(6) 0.3156(6)
C34_20 C 0.3034(4) 0.0920(4) 0.3464(4)
H25_20 H 0.303122 0.073646 0.335026
C35_20 C 0.3253(4) 0.1139(5) 0.3403(4)
C36_20 C 0.3257(5) 0.1407(4) 0.3570(6)
H26_20 H 0.340639 0.155732 0.352861
C37_20 C 0.3044(5) 0.1455(4) 0.3798(5)
C38_20 C 0.2826(4) 0.1235(5) 0.3858(4)
C39_20 C 0.2821(4) 0.0968(4) 0.3692(4)
H27_20 H 0.267206 0.081743 0.373312
C40_20 C 0.2564(4) 0.1252(5) 0.4099(4)
C41_20 C 0.2583(3) 0.1148(6) 0.4396(4)
C42_20 C 0.2335(4) 0.1174(5) 0.4589(3)
H28_20 H 0.234825 0.110371 0.479199
C43_20 C 0.2067(3) 0.1304(4) 0.4484(3)
C44_20 C 0.2047(4) 0.1407(6) 0.4186(4)
H29_20 H 0.186424 0.149557 0.411483
C45_20 C 0.2296(5) 0.1381(5) 0.3994(3)
H30_20 H 0.228251 0.145161 0.379042
C46_20 C 0.2814(9) 0.0995(14) 0.4483(9)
H31_20 H 0.292732 0.111070 0.463446
H32_20 H 0.294465 0.095253 0.430791
H33_20 H 0.274522 0.080266 0.457196
C47_20 C 0.1860(5) 0.1352(5) 0.4738(5)
C48_20 C 0.3026(12) 0.1669(11) 0.3973(13)
H34_20 H 0.310654 0.185219 0.387514
H35_20 H 0.314424 0.162511 0.415616
H36_20 H 0.281316 0.170231 0.402817
U1_11 U 0.36310(3) 0.13746(3) 0.48386(3)
O3_21 O 0.3431(5) 0.0980(5) 0.4542(5)
O4_21 O 0.3867(4) 0.1173(4) 0.4387(4)
O5_21 O 0.3887(5) 0.1781(4) 0.5152(4)
O6_21 O 0.4147(6) 0.1573(7) 0.4747(6)
O7_21 O 0.3825(3) 0.1120(4) 0.5028(3)
O8_21 O 0.3452(6) 0.1693(8) 0.4632(6)
C1_21 C 0.3651(6) 0.0975(5) 0.4344(6)
C2_21 C 0.3420(4) 0.0534(4) 0.4036(4)
H1_21 H 0.323646 0.053122 0.414974
C3_21 C 0.3639(5) 0.0753(4) 0.4097(4)
C4_21 C 0.3907(4) 0.0757(5) 0.3930(6)
H2_21 H 0.405732 0.090639 0.397139
C5_21 C 0.3955(4) 0.0544(5) 0.3702(5)
C6_21 C 0.3735(5) 0.0326(4) 0.3642(4)
C7_21 C 0.3468(4) 0.0321(4) 0.3808(4)
H3_21 H 0.331743 0.017206 0.376688
C8_21 C 0.3752(5) 0.0064(4) 0.3401(4)
C9_21 C 0.3648(6) 0.0083(3) 0.3104(4)
C14_21 C 0.3495(14) 0.0314(9) 0.3017(9)
H7_21 H 0.361070 0.042732 0.286554
H8_21 H 0.345253 0.044465 0.319209
H9_21 H 0.330266 0.024522 0.292804
C16_21 C 0.4123(7) 0.1778(8) 0.4966(8)
C17_21 C 0.4380(4) 0.2218(5) 0.5234(5)
H10_21 H 0.421124 0.223834 0.536584
C18_21 C 0.4605(5) 0.2439(4) 0.5228(4)
C19_21 C 0.4852(5) 0.2409(5) 0.5035(5)
C20_21 C 0.4875(5) 0.2157(7) 0.4846(7)
H11_21 H 0.504383 0.213641 0.471400
C21_21 C 0.4650(7) 0.1935(6) 0.4851(8)
H12_21 H 0.466609 0.176310 0.472270
C22_21 C 0.4403(5) 0.1966(5) 0.5045(7)
C23_21 C 0.4611(12) 0.2638(15) 0.5440(13)
H13_21 H 0.445223 0.278898 0.540462
H14_21 H 0.481001 0.273780 0.544114
H15_21 H 0.457717 0.253816 0.563578
C24_21 C 0.4169(11) 0.0526(12) 0.3527(13)
H16_21 H 0.435219 0.060654 0.362486
H17_21 H 0.412511 0.064424 0.334384
H18_21 H 0.420231 0.031316 0.347183
O9_21 O 0.6113(5) 0.3219(4) 0.5152(4)
O10_21 O 0.5853(6) 0.3427(7) 0.4747(6)
C25_21 C 0.5877(7) 0.3222(8) 0.4966(8)
C26_21 C 0.5620(4) 0.2782(5) 0.5234(5)
H19_21 H 0.578876 0.276166 0.536584
C27_21 C 0.5395(5) 0.2561(4) 0.5228(4)
C28_21 C 0.5148(5) 0.2591(5) 0.5035(5)
C29_21 C 0.5125(5) 0.2843(7) 0.4846(7)
H20_21 H 0.495617 0.286359 0.471400
C30_21 C 0.5350(7) 0.3065(6) 0.4851(8)
H21_21 H 0.533391 0.323690 0.472270
C31_21 C 0.5597(5) 0.3034(5) 0.5045(7)
C32_21 C 0.5389(12) 0.2362(15) 0.5440(13)
H22_21 H 0.554777 0.221102 0.540462
H23_21 H 0.518999 0.226220 0.544114
H24_21 H 0.542283 0.246184 0.563578
U2_11 U 0.63690(3) 0.36254(3) 0.48386(3)
O11_11 O 0.5949(5) 0.5874(4) 0.2816(3)
O12_11 O 0.6336(3) 0.5640(3) 0.2509(3)
O13_21 O 0.6569(5) 0.4020(5) 0.4542(5)
O14_21 O 0.6133(4) 0.3827(4) 0.4387(4)
O15_21 O 0.6175(3) 0.3880(4) 0.5028(3)
O16_21 O 0.6548(6) 0.3307(8) 0.4632(6)
C33_21 C 0.6349(6) 0.4025(5) 0.4344(6)
C34_21 C 0.6580(4) 0.4466(4) 0.4036(4)
H25_21 H 0.676354 0.446878 0.414974
C35_21 C 0.6361(5) 0.4247(4) 0.4097(4)
C36_21 C 0.6093(4) 0.4243(5) 0.3930(6)
H26_21 H 0.594268 0.409361 0.397139
C37_21 C 0.6045(4) 0.4456(5) 0.3702(5)
C38_21 C 0.6265(5) 0.4674(4) 0.3642(4)
C39_21 C 0.6532(4) 0.4679(4) 0.3808(4)
H27_21 H 0.668257 0.482794 0.376688
C40_21 C 0.6248(5) 0.4936(4) 0.3401(4)
C41_21 C 0.6352(6) 0.4917(3) 0.3104(4)
C42_21 C 0.6326(5) 0.5165(4) 0.2911(3)
H28_21 H 0.639629 0.515175 0.270801
C43_21 C 0.6196(4) 0.5433(3) 0.3016(3)
C44_21 C 0.6093(6) 0.5453(4) 0.3314(4)
H29_21 H 0.600443 0.563576 0.338517
C45_21 C 0.6119(5) 0.5204(5) 0.3506(3)
H30_21 H 0.604839 0.521749 0.370958
C46_21 C 0.6505(14) 0.4686(9) 0.3017(9)
H31_21 H 0.638930 0.457268 0.286554
H32_21 H 0.654747 0.455535 0.319209
H33_21 H 0.669734 0.475478 0.292804
C47_21 C 0.6148(5) 0.5640(5) 0.2762(5)
C48_21 C 0.5831(11) 0.4474(12) 0.3527(13)
H34_21 H 0.564781 0.439346 0.362486
H35_21 H 0.587489 0.435576 0.334384
H36_21 H 0.579769 0.468684 0.347183
U4_11 U 0.61254(3) 0.61310(3) 0.23386(3)
O17_11 O 0.3374(4) 0.1551(5) 0.5316(3)
O18_11 O 0.6626(4) 0.3449(5) 0.5316(3)
O19_11 O 0.3140(3) 0.1164(3) 0.5009(3)
O20_11 O 0.6860(3) 0.3836(3) 0.5009(3)
O1_11 O 0.4051(5) 0.9126(4) 0.2816(3)
O2_11 O 0.3664(3) 0.9360(3) 0.2509(3)
C10_21 C 0.3674(5) 0.9835(4) 0.2911(3)
H4_21 H 0.360371 0.984825 0.270801
C11_21 C 0.3804(4) 0.9567(3) 0.3016(3)
C12_21 C 0.3907(6) 0.9547(4) 0.3314(4)
H5_21 H 0.399557 0.936424 0.338517
C13_21 C 0.3881(5) 0.9796(5) 0.3506(3)
H6_21 H 0.395161 0.978251 0.370958
C15_21 C 0.3852(5) 0.9360(5) 0.2762(5)
U3_11 U 0.38746(3) 0.88690(3) 0.23386(3)
O1_12 O 0.0949(5) 0.0874(4) 0.7816(3)
O2_12 O 0.1336(3) 0.0640(3) 0.7509(3)
C10_22 C 0.1326(5) 0.0165(4) 0.7911(3)
H4_22 H 0.139629 0.015175 0.770801
C11_22 C 0.1196(4) 0.0433(3) 0.8016(3)
C12_22 C 0.1093(6) 0.0453(4) 0.8314(4)
H5_22 H 0.100443 0.063576 0.838517
C13_22 C 0.1119(5) 0.0204(5) 0.8506(3)
H6_22 H 0.104839 0.021749 0.870958
C15_22 C 0.1148(5) 0.0640(5) 0.7762(5)
U3_12 U 0.11254(3) 0.11310(3) 0.73386(3)
O5_22 O 0.1113(5) 0.8219(4) 0.0152(4)
O7_22 O 0.1175(3) 0.8880(4) 0.0028(3)
C17_22 C 0.0620(4) 0.7782(5) 0.0234(5)
H10_22 H 0.078876 0.776166 0.036584
C18_22 C 0.0395(5) 0.7561(4) 0.0228(4)
C19_22 C 0.0148(5) 0.7591(5) 0.0035(5)
C22_22 C 0.0597(5) 0.8034(5) 0.0045(7)
C23_22 C 0.0389(12) 0.7362(15) 0.0440(13)
H13_22 H 0.054777 0.721102 0.040462
H14_22 H 0.018999 0.726220 0.044114
H15_22 H 0.042283 0.746184 0.063578
O17_12 O 0.1626(4) 0.8449(5) 0.0316(3)
O19_12 O 0.1860(3) 0.8836(3) 0.0009(3)
U1_12 U 0.13690(3) 0.86254(3) 0.98386(3)
O3_22 O 0.1569(5) 0.9020(5) 0.9542(5)
O4_22 O 0.1133(4) 0.8827(4) 0.9387(4)
O6_22 O 0.0853(6) 0.8427(7) 0.9747(6)
O8_22 O 0.1548(6) 0.8307(8) 0.9632(6)
C1_22 C 0.1349(6) 0.9025(5) 0.9344(6)
C2_22 C 0.1580(4) 0.9466(4) 0.9036(4)
H1_22 H 0.176354 0.946878 0.914974
C3_22 C 0.1361(5) 0.9247(4) 0.9097(4)
C4_22 C 0.1093(4) 0.9243(5) 0.8930(6)
H2_22 H 0.094268 0.909361 0.897139
C5_22 C 0.1045(4) 0.9456(5) 0.8702(5)
C6_22 C 0.1265(5) 0.9674(4) 0.8642(4)
C7_22 C 0.1532(4) 0.9679(4) 0.8808(4)
H3_22 H 0.168257 0.982794 0.876688
C8_22 C 0.1248(5) 0.9936(4) 0.8401(4)
C9_22 C 0.1352(6) 0.9917(3) 0.8104(4)
C14_22 C 0.1505(14) 0.9686(9) 0.8017(9)
H7_22 H 0.138930 0.957268 0.786554
H8_22 H 0.154747 0.955535 0.819209
H9_22 H 0.169734 0.975478 0.792804
C16_22 C 0.0877(7) 0.8222(8) 0.9966(8)
C20_22 C 0.0125(5) 0.7843(7) 0.9846(7)
C21_22 C 0.0350(7) 0.8065(6) 0.9851(8)
H12_22 H 0.033391 0.823690 0.972270
C24_22 C 0.0831(11) 0.9474(12) 0.8527(13)
H16_22 H 0.064781 0.939346 0.862486
H17_22 H 0.087489 0.935576 0.834384
H18_22 H 0.079769 0.968684 0.847183
H20_22 H 0.004383 0.713641 0.971400
O9_22 O 0.8887(5) 0.6781(4) 0.0152(4)
C26_22 C 0.9380(4) 0.7218(5) 0.0234(5)
H19_22 H 0.921124 0.723834 0.036584
C27_22 C 0.9605(5) 0.7439(4) 0.0228(4)
C28_22 C 0.9852(5) 0.7409(5) 0.0035(5)
C31_22 C 0.9403(5) 0.6966(5) 0.0045(7)
C32_22 C 0.9611(12) 0.7638(15) 0.0440(13)
H22_22 H 0.945223 0.778898 0.040462
H23_22 H 0.981001 0.773780 0.044114
H24_22 H 0.957717 0.753816 0.063578
O15_22 O 0.8825(3) 0.6120(4) 0.0028(3)
O18_12 O 0.8374(4) 0.6551(5) 0.0316(3)
O20_12 O 0.8140(3) 0.6164(3) 0.0009(3)
H11_22 H 0.995617 0.786359 0.971400
O10_22 O 0.9147(6) 0.6573(7) 0.9747(6)
C25_22 C 0.9123(7) 0.6778(8) 0.9966(8)
C29_22 C 0.9875(5) 0.7157(7) 0.9846(7)
C30_22 C 0.9650(7) 0.6935(6) 0.9851(8)
H21_22 H 0.966609 0.676310 0.972270
U2_12 U 0.86310(3) 0.63746(3) 0.98386(3)
O11_12 O 0.9051(5) 0.4126(4) 0.7816(3)
O12_12 O 0.8664(3) 0.4360(3) 0.7509(3)
O13_22 O 0.8431(5) 0.5980(5) 0.9542(5)
O14_22 O 0.8867(4) 0.6173(4) 0.9387(4)
O16_22 O 0.8452(6) 0.6693(8) 0.9632(6)
C33_22 C 0.8651(6) 0.5975(5) 0.9344(6)
C34_22 C 0.8420(4) 0.5534(4) 0.9036(4)
H25_22 H 0.823646 0.553122 0.914974
C35_22 C 0.8639(5) 0.5753(4) 0.9097(4)
C36_22 C 0.8907(4) 0.5757(5) 0.8930(6)
H26_22 H 0.905732 0.590639 0.897139
C37_22 C 0.8955(4) 0.5544(5) 0.8702(5)
C38_22 C 0.8735(5) 0.5326(4) 0.8642(4)
C39_22 C 0.8468(4) 0.5321(4) 0.8808(4)
H27_22 H 0.831743 0.517206 0.876688
C40_22 C 0.8752(5) 0.5064(4) 0.8401(4)
C41_22 C 0.8648(6) 0.5083(3) 0.8104(4)
C42_22 C 0.8674(5) 0.4835(4) 0.7911(3)
H28_22 H 0.860371 0.484825 0.770801
C43_22 C 0.8804(4) 0.4567(3) 0.8016(3)
C44_22 C 0.8907(6) 0.4547(4) 0.8314(4)
H29_22 H 0.899557 0.436424 0.838517
C45_22 C 0.8881(5) 0.4796(5) 0.8506(3)
H30_22 H 0.895161 0.478251 0.870958
C46_22 C 0.8495(14) 0.5314(9) 0.8017(9)
H31_22 H 0.861070 0.542732 0.786554
H32_22 H 0.845253 0.544465 0.819209
H33_22 H 0.830266 0.524522 0.792804
C47_22 C 0.8852(5) 0.4360(5) 0.7762(5)
C48_22 C 0.9169(11) 0.5526(12) 0.8527(13)
H34_22 H 0.935219 0.560654 0.862486
H35_22 H 0.912511 0.564424 0.834384
H36_22 H 0.920231 0.531316 0.847183
U4_12 U 0.88746(3) 0.38690(3) 0.73386(3)
O3_23 O 0.3480(5) 0.9069(5) 0.2042(5)
O4_23 O 0.3673(4) 0.8633(4) 0.1887(4)
O5_23 O 0.4281(4) 0.8613(5) 0.2652(4)
O6_23 O 0.4073(7) 0.8353(6) 0.2247(6)
O7_23 O 0.3620(4) 0.8675(3) 0.2528(3)
O8_23 O 0.4193(8) 0.9048(6) 0.2132(6)
C1_23 C 0.3475(5) 0.8849(6) 0.1844(6)
C2_23 C 0.3034(4) 0.9080(4) 0.1536(4)
H1_23 H 0.303122 0.926354 0.164974
C3_23 C 0.3253(4) 0.8861(5) 0.1597(4)
C4_23 C 0.3257(5) 0.8593(4) 0.1430(6)
H2_23 H 0.340639 0.844268 0.147139
C5_23 C 0.3044(5) 0.8545(4) 0.1202(5)
C6_23 C 0.2826(4) 0.8765(5) 0.1142(4)
C7_23 C 0.2821(4) 0.9032(4) 0.1308(4)
H3_23 H 0.267206 0.918257 0.126688
C8_23 C 0.2564(4) 0.8748(5) 0.0901(4)
C9_23 C 0.2583(3) 0.8852(6) 0.0604(4)
C10_23 C 0.2335(4) 0.8826(5) 0.0411(3)
H4_23 H 0.234825 0.889629 0.020801
C11_23 C 0.2067(3) 0.8696(4) 0.0516(3)
C12_23 C 0.2047(4) 0.8593(6) 0.0814(4)
H5_23 H 0.186424 0.850443 0.088517
C13_23 C 0.2296(5) 0.8619(5) 0.1006(3)
H6_23 H 0.228251 0.854839 0.120958
C14_23 C 0.2814(9) 0.9005(14) 0.0517(9)
H7_23 H 0.292732 0.888930 0.036554
H8_23 H 0.294465 0.904747 0.069209
H9_23 H 0.274522 0.919734 0.042804
C15_23 C 0.1860(5) 0.8648(5) 0.0262(5)
C16_23 C 0.4278(8) 0.8377(7) 0.2466(8)
C17_23 C 0.4718(5) 0.8120(4) 0.2734(5)
H10_23 H 0.473834 0.828876 0.286584
C18_23 C 0.4939(4) 0.7895(5) 0.2728(4)
C19_23 C 0.4909(5) 0.7648(5) 0.2535(5)
C20_23 C 0.4657(7) 0.7625(5) 0.2346(7)
H11_23 H 0.463641 0.745617 0.221400
C21_23 C 0.4435(6) 0.7850(7) 0.2351(8)
H12_23 H 0.426310 0.783391 0.222270
C22_23 C 0.4466(5) 0.8097(5) 0.2545(7)
C23_23 C 0.5138(15) 0.7889(12) 0.2940(13)
H13_23 H 0.528898 0.804777 0.290462
H14_23 H 0.523780 0.768999 0.294114
H15_23 H 0.503816 0.792283 0.313578
C24_23 C 0.3026(12) 0.8331(11) 0.1027(13)
H16_23 H 0.310654 0.814781 0.112486
H17_23 H 0.314424 0.837489 0.084384
H18_23 H 0.281316 0.829769 0.097183
O9_23 O 0.5719(4) 0.6387(5) 0.2652(4)
O10_23 O 0.5927(7) 0.6647(6) 0.2247(6)
C25_23 C 0.5722(8) 0.6623(7) 0.2466(8)
C26_23 C 0.5282(5) 0.6880(4) 0.2734(5)
H19_23 H 0.526166 0.671124 0.286584
C27_23 C 0.5061(4) 0.7105(5) 0.2728(4)
C28_23 C 0.5091(5) 0.7352(5) 0.2535(5)
C29_23 C 0.5343(7) 0.7375(5) 0.2346(7)
H20_23 H 0.536359 0.754383 0.221400
C30_23 C 0.5565(6) 0.7150(7) 0.2351(8)
H21_23 H 0.573690 0.716609 0.222270
C31_23 C 0.5534(5) 0.6903(5) 0.2545(7)
C32_23 C 0.4862(15) 0.7111(12) 0.2940(13)
H22_23 H 0.471102 0.695223 0.290462
H23_23 H 0.476220 0.731001 0.294114
H24_23 H 0.496184 0.707717 0.313578
O13_23 O 0.6520(5) 0.5931(5) 0.2042(5)
O14_23 O 0.6327(4) 0.6367(4) 0.1887(4)
O15_23 O 0.6380(4) 0.6325(3) 0.2528(3)
O16_23 O 0.5807(8) 0.5952(6) 0.2132(6)
C33_23 C 0.6525(5) 0.6151(6) 0.1844(6)
C34_23 C 0.6966(4) 0.5920(4) 0.1536(4)
H25_23 H 0.696878 0.573646 0.164974
C35_23 C 0.6747(4) 0.6139(5) 0.1597(4)
C36_23 C 0.6743(5) 0.6407(4) 0.1430(6)
H26_23 H 0.659361 0.655732 0.147139
C37_23 C 0.6956(5) 0.6455(4) 0.1202(5)
C38_23 C 0.7174(4) 0.6235(5) 0.1142(4)
C39_23 C 0.7179(4) 0.5968(4) 0.1308(4)
H27_23 H 0.732794 0.581743 0.126688
C40_23 C 0.7436(4) 0.6252(5) 0.0901(4)
C41_23 C 0.7417(3) 0.6148(6) 0.0604(4)
C42_23 C 0.7665(4) 0.6174(5) 0.0411(3)
H28_23 H 0.765175 0.610371 0.020801
C43_23 C 0.7933(3) 0.6304(4) 0.0516(3)
C44_23 C 0.7953(4) 0.6407(6) 0.0814(4)
H29_23 H 0.813576 0.649557 0.088517
C45_23 C 0.7704(5) 0.6381(5) 0.1006(3)
H30_23 H 0.771749 0.645161 0.120958
C46_23 C 0.7186(9) 0.5995(14) 0.0517(9)
H31_23 H 0.707268 0.611070 0.036554
H32_23 H 0.705535 0.595253 0.069209
H33_23 H 0.725478 0.580266 0.042804
C47_23 C 0.8140(5) 0.6352(5) 0.0262(5)
C48_23 C 0.6974(12) 0.6669(11) 0.1027(13)
H34_23 H 0.689346 0.685219 0.112486
H35_23 H 0.685576 0.662511 0.084384
H36_23 H 0.718684 0.670231 0.097183
O3_24 O 0.1520(5) 0.0931(5) 0.7042(5)
O4_24 O 0.1327(4) 0.1367(4) 0.6887(4)
O5_24 O 0.0719(4) 0.1387(5) 0.7652(4)
O6_24 O 0.0927(7) 0.1647(6) 0.7247(6)
O7_24 O 0.1380(4) 0.1325(3) 0.7528(3)
O8_24 O 0.0807(8) 0.0952(6) 0.7132(6)
C1_24 C 0.1525(5) 0.1151(6) 0.6844(6)
C2_24 C 0.1966(4) 0.0920(4) 0.6536(4)
H1_24 H 0.196878 0.073646 0.664974
C3_24 C 0.1747(4) 0.1139(5) 0.6597(4)
C4_24 C 0.1743(5) 0.1407(4) 0.6430(6)
H2_24 H 0.159361 0.155732 0.647139
C5_24 C 0.1956(5) 0.1455(4) 0.6202(5)
C6_24 C 0.2174(4) 0.1235(5) 0.6142(4)
C7_24 C 0.2179(4) 0.0968(4) 0.6308(4)
H3_24 H 0.232794 0.081743 0.626688
C8_24 C 0.2436(4) 0.1252(5) 0.5901(4)
C9_24 C 0.2417(3) 0.1148(6) 0.5604(4)
C10_24 C 0.2665(4) 0.1174(5) 0.5411(3)
H4_24 H 0.265175 0.110371 0.520801
C11_24 C 0.2933(3) 0.1304(4) 0.5516(3)
C12_24 C 0.2953(4) 0.1407(6) 0.5814(4)
H5_24 H 0.313576 0.149557 0.588517
C13_24 C 0.2704(5) 0.1381(5) 0.6006(3)
H6_24 H 0.271749 0.145161 0.620958
C14_24 C 0.2186(9) 0.0995(14) 0.5517(9)
H7_24 H 0.207268 0.111070 0.536554
H8_24 H 0.205535 0.095253 0.569209
H9_24 H 0.225478 0.080266 0.542804
C15_24 C 0.3140(5) 0.1352(5) 0.5262(5)
C16_24 C 0.0722(8) 0.1623(7) 0.7466(8)
C17_24 C 0.0282(5) 0.1880(4) 0.7734(5)
H10_24 H 0.026166 0.171124 0.786584
C18_24 C 0.0061(4) 0.2105(5) 0.7728(4)
C19_24 C 0.0091(5) 0.2352(5) 0.7535(5)
C20_24 C 0.0343(7) 0.2375(5) 0.7346(7)
H11_24 H 0.036359 0.254383 0.721400
C21_24 C 0.0565(6) 0.2150(7) 0.7351(8)
H12_24 H 0.073690 0.216609 0.722270
C22_24 C 0.0534(5) 0.1903(5) 0.7545(7)
C24_24 C 0.1974(12) 0.1669(11) 0.6027(13)
H16_24 H 0.189346 0.185219 0.612486
H17_24 H 0.185576 0.162511 0.584384
H18_24 H 0.218684 0.170231 0.597183
C32_24 C 0.0138(15) 0.2889(12) 0.7940(13)
H22_24 H 0.028898 0.304777 0.790462
H23_24 H 0.023780 0.268999 0.794114
H24_24 H 0.003816 0.292283 0.813578
C23_24 C 0.9862(15) 0.2111(12) 0.7940(13)
H13_24 H 0.971102 0.195223 0.790462
H14_24 H 0.976220 0.231001 0.794114
H15_24 H 0.996184 0.207717 0.813578
O9_24 O 0.9281(4) 0.3613(5) 0.7652(4)
O10_24 O 0.9073(7) 0.3353(6) 0.7247(6)
C25_24 C 0.9278(8) 0.3377(7) 0.7466(8)
C26_24 C 0.9718(5) 0.3120(4) 0.7734(5)
H19_24 H 0.973834 0.328876 0.786584
C27_24 C 0.9939(4) 0.2895(5) 0.7728(4)
C28_24 C 0.9909(5) 0.2648(5) 0.7535(5)
C29_24 C 0.9657(7) 0.2625(5) 0.7346(7)
H20_24 H 0.963641 0.245617 0.721400
C30_24 C 0.9435(6) 0.2850(7) 0.7351(8)
H21_24 H 0.926310 0.283391 0.722270
C31_24 C 0.9466(5) 0.3097(5) 0.7545(7)
O13_24 O 0.8480(5) 0.4069(5) 0.7042(5)
O14_24 O 0.8673(4) 0.3633(4) 0.6887(4)
O15_24 O 0.8620(4) 0.3675(3) 0.7528(3)
O16_24 O 0.9193(8) 0.4048(6) 0.7132(6)
C33_24 C 0.8475(5) 0.3849(6) 0.6844(6)
C34_24 C 0.8034(4) 0.4080(4) 0.6536(4)
H25_24 H 0.803122 0.426354 0.664974
C35_24 C 0.8253(4) 0.3861(5) 0.6597(4)
C36_24 C 0.8257(5) 0.3593(4) 0.6430(6)
H26_24 H 0.840639 0.344268 0.647139
C37_24 C 0.8044(5) 0.3545(4) 0.6202(5)
C38_24 C 0.7826(4) 0.3765(5) 0.6142(4)
C39_24 C 0.7821(4) 0.4032(4) 0.6308(4)
H27_24 H 0.767206 0.418257 0.626688
C40_24 C 0.7564(4) 0.3748(5) 0.5901(4)
C41_24 C 0.7583(3) 0.3852(6) 0.5604(4)
C42_24 C 0.7335(4) 0.3826(5) 0.5411(3)
H28_24 H 0.734825 0.389629 0.520801
C43_24 C 0.7067(3) 0.3696(4) 0.5516(3)
C44_24 C 0.7047(4) 0.3593(6) 0.5814(4)
H29_24 H 0.686424 0.350443 0.588517
C45_24 C 0.7296(5) 0.3619(5) 0.6006(3)
H30_24 H 0.728251 0.354839 0.620958
C46_24 C 0.7814(9) 0.4005(14) 0.5517(9)
H31_24 H 0.792732 0.388930 0.536554
H32_24 H 0.794465 0.404747 0.569209
H33_24 H 0.774522 0.419734 0.542804
C47_24 C 0.6860(5) 0.3648(5) 0.5262(5)
C48_24 C 0.8026(12) 0.3331(11) 0.6027(13)
H34_24 H 0.810654 0.314781 0.612486
H35_24 H 0.814424 0.337489 0.584384
H36_24 H 0.781316 0.329769 0.597183
loop_
_geom_bond_atom_site_label_1
_geom_bond_atom_site_label_2
_geom_bond_site_symmetry_1
_geom_bond_site_symmetry_2
O11 C47 1_555 1_555
O12 C47 1_555 1_555
H28 C42 1_555 1_555
C43 C42 1_555 1_555
C44 C43 1_555 1_555
H29 C44 1_555 1_555
H30 C45 1_555 1_555
C47 C43 1_555 1_555
U4 O11 1_555 1_555
O12 U4 1_555 1_555
C44 C45 1_555 1_555
U1 O3 1_555 1_555
O1 C15 1_555 1_555
O2 C15 1_555 1_555
O3 C1 1_555 1_555
O4 U1 1_555 1_555
O6 U1 1_555 1_555
O8 U1 1_555 1_555
C1 O4 1_555 1_555
C2 H1 1_555 1_555
C3 C1 1_555 1_555
C4 C3 1_555 1_555
H2 C4 1_555 1_555
C5 C4 1_555 1_555
C6 C5 1_555 1_555
C7 C2 1_555 1_555
H3 C7 1_555 1_555
C8 C6 1_555 1_555
C9 C8 1_555 1_555
C10 C9 1_555 1_555
H4 C10 1_555 1_555
C11 C10 1_555 1_555
C12 C11 1_555 1_555
H5 C12 1_555 1_555
C13 C8 1_555 1_555
H6 C13 1_555 1_555
C14 C9 1_555 1_555
H7 C14 1_555 1_555
H8 C14 1_555 1_555
H9 C14 1_555 1_555
C15 C11 1_555 1_555
H11 C20 1_555 1_555
C21 C20 1_555 1_555
H12 C21 1_555 1_555
C24 C5 1_555 1_555
H16 C24 1_555 1_555
H17 C24 1_555 1_555
H18 C24 1_555 1_555
O10 C25 1_555 1_555
H20 C29 1_555 1_555
C30 C29 1_555 1_555
H21 C30 1_555 1_555
O13 U2 1_555 1_555
O14 U2 1_555 1_555
O16 U2 1_555 1_555
C33 O13 1_555 1_555
C34 H25 1_555 1_555
C35 C33 1_555 1_555
C36 C35 1_555 1_555
H26 C36 1_555 1_555
C37 C36 1_555 1_555
C38 C37 1_555 1_555
C39 C34 1_555 1_555
H27 C39 1_555 1_555
C40 C38 1_555 1_555
C41 C40 1_555 1_555
C46 C41 1_555 1_555
H31 C46 1_555 1_555
H32 C46 1_555 1_555
H33 C46 1_555 1_555
C48 C37 1_555 1_555
H34 C48 1_555 1_555
H35 C48 1_555 1_555
H36 C48 1_555 1_555
U3 O1 1_555 1_555
O2 U3 1_555 1_555
O6 C16 1_555 1_555
C2 C3 1_555 1_555
C6 C7 1_555 1_555
C12 C13 1_555 1_555
O10 U2 1_555 1_555
O14 C33 1_555 1_555
C34 C35 1_555 1_555
C38 C39 1_555 1_555
C17 H10 1_555 1_555
C18 C17 1_555 1_555
C19 C18 1_555 1_555
C23 C18 1_555 1_555
H13 C23 1_555 1_555
H14 C23 1_555 1_555
H15 C23 1_555 1_555
C26 H19 1_555 1_555
C27 C26 1_555 1_555
C28 C19 1_555 1_555
C31 C26 1_555 1_555
C32 C27 1_555 1_555
H22 C32 1_555 1_555
H23 C32 1_555 1_555
H24 C32 1_555 1_555
C17 C22 1_555 1_555
C27 C28 1_555 1_555
O9_2 C25_2 1_555 1_555
O10_2 C25_2 1_555 1_555
C25_2 C31_2 1_555 1_555
C26_2 H19_2 1_555 1_555
C27_2 C26_2 1_555 1_555
C29_2 C28_2 1_555 1_555
C30_2 C29_2 1_555 1_555
H21_2 C30_2 1_555 1_555
C31_2 C26_2 1_555 1_555
C32_2 C27_2 1_555 1_555
H22_2 C32_2 1_555 1_555
H23_2 C32_2 1_555 1_555
H24_2 C32_2 1_555 1_555
U2_2 O9_2 1_555 1_555
O13_2 U2_2 1_555 1_555
O14_2 U2_2 1_555 1_555
O15_2 U2_2 1_555 1_555
O16_2 U2_2 1_555 1_555
C33_2 O13_2 1_555 1_555
C34_2 H25_2 1_555 1_555
C35_2 C33_2 1_555 1_555
C36_2 C35_2 1_555 1_555
H26_2 C36_2 1_555 1_555
C37_2 C36_2 1_555 1_555
C38_2 C37_2 1_555 1_555
C39_2 C34_2 1_555 1_555
H27_2 C39_2 1_555 1_555
C40_2 C38_2 1_555 1_555
C41_2 C40_2 1_555 1_555
C46_2 C41_2 1_555 1_555
H31_2 C46_2 1_555 1_555
H32_2 C46_2 1_555 1_555
H33_2 C46_2 1_555 1_555
C48_2 C37_2 1_555 1_555
H34_2 C48_2 1_555 1_555
H35_2 C48_2 1_555 1_555
H36_2 C48_2 1_555 1_555
O18_2 U2_2 1_555 1_555
O20_2 U2_2 1_555 1_555
O10_2 U2_2 1_555 1_555
C27_2 C28_2 1_555 1_555
C30_2 C31_2 1_555 1_555
O14_2 C33_2 1_555 1_555
C34_2 C35_2 1_555 1_555
C38_2 C39_2 1_555 1_555
O11_2 C47_2 1_555 1_555
O12_2 C47_2 1_555 1_555
H28_2 C42_2 1_555 1_555
C43_2 C42_2 1_555 1_555
C44_2 C43_2 1_555 1_555
H29_2 C44_2 1_555 1_555
H30_2 C45_2 1_555 1_555
C47_2 C43_2 1_555 1_555
U4_2 O11_2 1_555 1_555
O12_2 U4_2 1_555 1_555
C44_2 C45_2 1_555 1_555
U1_2 O3_2 1_555 1_555
O1_2 C15_2 1_555 1_555
O2_2 C15_2 1_555 1_555
O3_2 C1_2 1_555 1_555
O4_2 U1_2 1_555 1_555
O5_2 U1_2 1_555 1_555
O6_2 U1_2 1_555 1_555
O7_2 U1_2 1_555 1_555
O8_2 U1_2 1_555 1_555
C1_2 O4_2 1_555 1_555
C2_2 H1_2 1_555 1_555
C3_2 C1_2 1_555 1_555
C4_2 C3_2 1_555 1_555
H2_2 C4_2 1_555 1_555
C5_2 C4_2 1_555 1_555
C6_2 C5_2 1_555 1_555
C7_2 C2_2 1_555 1_555
H3_2 C7_2 1_555 1_555
C8_2 C6_2 1_555 1_555
C9_2 C8_2 1_555 1_555
C10_2 C9_2 1_555 1_555
H4_2 C10_2 1_555 1_555
C11_2 C10_2 1_555 1_555
C12_2 C11_2 1_555 1_555
H5_2 C12_2 1_555 1_555
C13_2 C8_2 1_555 1_555
H6_2 C13_2 1_555 1_555
C14_2 C9_2 1_555 1_555
H7_2 C14_2 1_555 1_555
H8_2 C14_2 1_555 1_555
H9_2 C14_2 1_555 1_555
C15_2 C11_2 1_555 1_555
C16_2 O5_2 1_555 1_555
C17_2 H10_2 1_555 1_555
C18_2 C17_2 1_555 1_555
C19_2 C18_2 1_555 1_555
C20_2 C19_2 1_555 1_555
C21_2 C20_2 1_555 1_555
H12_2 C21_2 1_555 1_555
C22_2 C16_2 1_555 1_555
C23_2 C18_2 1_555 1_555
H13_2 C23_2 1_555 1_555
H14_2 C23_2 1_555 1_555
H15_2 C23_2 1_555 1_555
C24_2 C5_2 1_555 1_555
H16_2 C24_2 1_555 1_555
H17_2 C24_2 1_555 1_555
H18_2 C24_2 1_555 1_555
U3_2 O1_2 1_555 1_555
O17_2 U1_2 1_555 1_555
O19_2 U1_2 1_555 1_555
O2_2 U3_2 1_555 1_555
O6_2 C16_2 1_555 1_555
C2_2 C3_2 1_555 1_555
C6_2 C7_2 1_555 1_555
C12_2 C13_2 1_555 1_555
C17_2 C22_2 1_555 1_555
C21_2 C22_2 1_555 1_555
H13_3 C23_3 1_555 1_555
H14_3 C23_3 1_555 1_555
H15_3 C23_3 1_555 1_555
O9_3 C25_3 1_555 1_555
O10_3 C25_3 1_555 1_555
C25_3 C31_3 1_555 1_555
C26_3 H19_3 1_555 1_555
C27_3 C26_3 1_555 1_555
C29_3 C28_3 1_555 1_555
H20_3 C29_3 1_555 1_555
C30_3 C29_3 1_555 1_555
H21_3 C30_3 1_555 1_555
C31_3 C26_3 1_555 1_555
U4_2 O9_3 1_555 1_555
O18 C47_3 1_555 1_555
O20 C47_3 1_555 1_555
O13_3 U4_2 1_555 1_555
O14_3 U4_2 1_555 1_555
O15_3 U4_2 1_555 1_555
O16_3 U4_2 1_555 1_555
C33_3 O13_3 1_555 1_555
C34_3 H25_3 1_555 1_555
C35_3 C33_3 1_555 1_555
C36_3 C35_3 1_555 1_555
H26_3 C36_3 1_555 1_555
C37_3 C36_3 1_555 1_555
C38_3 C37_3 1_555 1_555
C39_3 C34_3 1_555 1_555
H27_3 C39_3 1_555 1_555
C40_3 C38_3 1_555 1_555
C41_3 C40_3 1_555 1_555
C42_3 C41_3 1_555 1_555
H28_3 C42_3 1_555 1_555
C43_3 C42_3 1_555 1_555
C44_3 C43_3 1_555 1_555
H29_3 C44_3 1_555 1_555
C45_3 C40_3 1_555 1_555
H30_3 C45_3 1_555 1_555
C46_3 C41_3 1_555 1_555
H31_3 C46_3 1_555 1_555
H32_3 C46_3 1_555 1_555
H33_3 C46_3 1_555 1_555
C47_3 C43_3 1_555 1_555
C48_3 C37_3 1_555 1_555
H34_3 C48_3 1_555 1_555
H35_3 C48_3 1_555 1_555
H36_3 C48_3 1_555 1_555
O10_3 U4_2 1_555 1_555
C27_3 C28_3 1_555 1_555
C30_3 C31_3 1_555 1_555
O14_3 C33_3 1_555 1_555
C34_3 C35_3 1_555 1_555
C38_3 C39_3 1_555 1_555
C44_3 C45_3 1_555 1_555
U3_2 O3_3 1_555 1_555
O17 C15_3 1_555 1_555
O19 C15_3 1_555 1_555
O3_3 C1_3 1_555 1_555
O4_3 U3_2 1_555 1_555
O5_3 U3_2 1_555 1_555
O6_3 U3_2 1_555 1_555
O7_3 U3_2 1_555 1_555
O8_3 U3_2 1_555 1_555
C1_3 O4_3 1_555 1_555
C2_3 H1_3 1_555 1_555
C3_3 C1_3 1_555 1_555
C4_3 C3_3 1_555 1_555
H2_3 C4_3 1_555 1_555
C5_3 C4_3 1_555 1_555
C6_3 C5_3 1_555 1_555
C7_3 C2_3 1_555 1_555
H3_3 C7_3 1_555 1_555
C8_3 C6_3 1_555 1_555
C9_3 C8_3 1_555 1_555
C10_3 C9_3 1_555 1_555
H4_3 C10_3 1_555 1_555
C11_3 C10_3 1_555 1_555
C12_3 C11_3 1_555 1_555
H5_3 C12_3 1_555 1_555
C13_3 C8_3 1_555 1_555
H6_3 C13_3 1_555 1_555
C14_3 C9_3 1_555 1_555
H7_3 C14_3 1_555 1_555
H8_3 C14_3 1_555 1_555
H9_3 C14_3 1_555 1_555
C15_3 C11_3 1_555 1_555
C16_3 O5_3 1_555 1_555
C17_3 H10_3 1_555 1_555
C18_3 C17_3 1_555 1_555
C19_3 C18_3 1_555 1_555
C20_3 C19_3 1_555 1_555
H11_3 C20_3 1_555 1_555
C21_3 C20_3 1_555 1_555
H12_3 C21_3 1_555 1_555
C22_3 C16_3 1_555 1_555
C24_3 C5_3 1_555 1_555
H16_3 C24_3 1_555 1_555
H17_3 C24_3 1_555 1_555
H18_3 C24_3 1_555 1_555
H22_3 C32_3 1_555 1_555
H23_3 C32_3 1_555 1_555
H24_3 C32_3 1_555 1_555
O6_3 C16_3 1_555 1_555
C2_3 C3_3 1_555 1_555
C6_3 C7_3 1_555 1_555
C12_3 C13_3 1_555 1_555
C17_3 C22_3 1_555 1_555
C21_3 C22_3 1_555 1_555
U3 O3_4 1_555 1_555
O17_2 C15_4 1_555 1_555
O19_2 C15_4 1_555 1_555
O3_4 C1_4 1_555 1_555
O4_4 U3 1_555 1_555
O5_4 U3 1_555 1_555
O6_4 U3 1_555 1_555
O7_4 U3 1_555 1_555
O8_4 U3 1_555 1_555
C1_4 O4_4 1_555 1_555
C2_4 H1_4 1_555 1_555
C3_4 C1_4 1_555 1_555
C4_4 C3_4 1_555 1_555
H2_4 C4_4 1_555 1_555
C5_4 C4_4 1_555 1_555
C6_4 C5_4 1_555 1_555
C7_4 C2_4 1_555 1_555
H3_4 C7_4 1_555 1_555
C8_4 C6_4 1_555 1_555
C9_4 C8_4 1_555 1_555
C10_4 C9_4 1_555 1_555
H4_4 C10_4 1_555 1_555
C11_4 C10_4 1_555 1_555
C12_4 C11_4 1_555 1_555
H5_4 C12_4 1_555 1_555
C13_4 C8_4 1_555 1_555
H6_4 C13_4 1_555 1_555
C14_4 C9_4 1_555 1_555
H7_4 C14_4 1_555 1_555
H8_4 C14_4 1_555 1_555
H9_4 C14_4 1_555 1_555
C15_4 C11_4 1_555 1_555
C16_4 O5_4 1_555 1_555
C17_4 H10_4 1_555 1_555
C18_4 C17_4 1_555 1_555
C19_4 C18_4 1_555 1_555
C20_4 C19_4 1_555 1_555
H11_4 C20_4 1_555 1_555
C21_4 C20_4 1_555 1_555
H12_4 C21_4 1_555 1_555
C22_4 C16_4 1_555 1_555
C23_4 C18_4 1_555 1_555
H13_4 C23_4 1_555 1_555
H14_4 C23_4 1_555 1_555
H15_4 C23_4 1_555 1_555
C24_4 C5_4 1_555 1_555
H16_4 C24_4 1_555 1_555
H17_4 C24_4 1_555 1_555
H18_4 C24_4 1_555 1_555
O9_4 C25_4 1_555 1_555
O10_4 C25_4 1_555 1_555
C25_4 C31_4 1_555 1_555
C26_4 H19_4 1_555 1_555
C27_4 C26_4 1_555 1_555
C28_4 C19_4 1_555 1_555
C29_4 C28_4 1_555 1_555
H20_4 C29_4 1_555 1_555
C30_4 C29_4 1_555 1_555
H21_4 C30_4 1_555 1_555
C31_4 C26_4 1_555 1_555
C32_4 C27_4 1_555 1_555
H22_4 C32_4 1_555 1_555
H23_4 C32_4 1_555 1_555
H24_4 C32_4 1_555 1_555
U4 O9_4 1_555 1_555
O18_2 C47_4 1_555 1_555
O20_2 C47_4 1_555 1_555
O13_4 U4 1_555 1_555
O14_4 U4 1_555 1_555
O15_4 U4 1_555 1_555
O16_4 U4 1_555 1_555
C33_4 O13_4 1_555 1_555
C34_4 H25_4 1_555 1_555
C35_4 C33_4 1_555 1_555
C36_4 C35_4 1_555 1_555
H26_4 C36_4 1_555 1_555
C37_4 C36_4 1_555 1_555
C38_4 C37_4 1_555 1_555
C39_4 C34_4 1_555 1_555
H27_4 C39_4 1_555 1_555
C40_4 C38_4 1_555 1_555
C41_4 C40_4 1_555 1_555
C42_4 C41_4 1_555 1_555
H28_4 C42_4 1_555 1_555
C43_4 C42_4 1_555 1_555
C44_4 C43_4 1_555 1_555
H29_4 C44_4 1_555 1_555
C45_4 C40_4 1_555 1_555
H30_4 C45_4 1_555 1_555
C46_4 C41_4 1_555 1_555
H31_4 C46_4 1_555 1_555
H32_4 C46_4 1_555 1_555
H33_4 C46_4 1_555 1_555
C47_4 C43_4 1_555 1_555
C48_4 C37_4 1_555 1_555
H34_4 C48_4 1_555 1_555
H35_4 C48_4 1_555 1_555
H36_4 C48_4 1_555 1_555
O6_4 C16_4 1_555 1_555
C2_4 C3_4 1_555 1_555
C6_4 C7_4 1_555 1_555
C12_4 C13_4 1_555 1_555
C17_4 C22_4 1_555 1_555
C21_4 C22_4 1_555 1_555
O10_4 U4 1_555 1_555
C27_4 C28_4 1_555 1_555
C30_4 C31_4 1_555 1_555
O14_4 C33_4 1_555 1_555
C34_4 C35_4 1_555 1_555
C38_4 C39_4 1_555 1_555
C44_4 C45_4 1_555 1_555
U1_3 O3_5 1_555 1_555
O3_5 C1_5 1_555 1_555
O4_5 U1_3 1_555 1_555
O5_5 U1_3 1_555 1_555
O6_5 U1_3 1_555 1_555
O7_5 U1_3 1_555 1_555
O8_5 U1_3 1_555 1_555
C1_5 O4_5 1_555 1_555
C2_5 H1_5 1_555 1_555
C3_5 C1_5 1_555 1_555
C4_5 C3_5 1_555 1_555
H2_5 C4_5 1_555 1_555
C5_5 C4_5 1_555 1_555
C6_5 C5_5 1_555 1_555
C7_5 C2_5 1_555 1_555
H3_5 C7_5 1_555 1_555
C8_5 C6_5 1_555 1_555
C9_5 C8_5 1_555 1_555
C14_5 C9_5 1_555 1_555
H7_5 C14_5 1_555 1_555
H8_5 C14_5 1_555 1_555
H9_5 C14_5 1_555 1_555
C16_5 O5_5 1_555 1_555
C17_5 H10_5 1_555 1_555
C18_5 C17_5 1_555 1_555
C19_5 C18_5 1_555 1_555
C20_5 C19_5 1_555 1_555
H11_5 C20_5 1_555 1_555
C21_5 C20_5 1_555 1_555
H12_5 C21_5 1_555 1_555
C22_5 C16_5 1_555 1_555
C23_5 C18_5 1_555 1_555
H13_5 C23_5 1_555 1_555
H14_5 C23_5 1_555 1_555
H15_5 C23_5 1_555 1_555
C24_5 C5_5 1_555 1_555
H16_5 C24_5 1_555 1_555
H17_5 C24_5 1_555 1_555
H18_5 C24_5 1_555 1_555
O9_5 C25_5 1_555 1_555
O10_5 C25_5 1_555 1_555
C25_5 C31_5 1_555 1_555
C26_5 H19_5 1_555 1_555
C27_5 C26_5 1_555 1_555
C28_5 C19_5 1_555 1_555
C29_5 C28_5 1_555 1_555
H20_5 C29_5 1_555 1_555
C30_5 C29_5 1_555 1_555
H21_5 C30_5 1_555 1_555
C31_5 C26_5 1_555 1_555
C32_5 C27_5 1_555 1_555
H22_5 C32_5 1_555 1_555
H23_5 C32_5 1_555 1_555
H24_5 C32_5 1_555 1_555
U2_3 O9_5 1_555 1_555
O11_3 C47_5 1_555 1_555
O12_3 C47_5 1_555 1_555
O13_5 U2_3 1_555 1_555
O14_5 U2_3 1_555 1_555
O15_5 U2_3 1_555 1_555
O16_5 U2_3 1_555 1_555
C33_5 O13_5 1_555 1_555
C34_5 H25_5 1_555 1_555
C35_5 C33_5 1_555 1_555
C36_5 C35_5 1_555 1_555
H26_5 C36_5 1_555 1_555
C37_5 C36_5 1_555 1_555
C38_5 C37_5 1_555 1_555
C39_5 C34_5 1_555 1_555
H27_5 C39_5 1_555 1_555
C40_5 C38_5 1_555 1_555
C41_5 C40_5 1_555 1_555
C42_5 C41_5 1_555 1_555
H28_5 C42_5 1_555 1_555
C43_5 C42_5 1_555 1_555
C44_5 C43_5 1_555 1_555
H29_5 C44_5 1_555 1_555
C45_5 C40_5 1_555 1_555
H30_5 C45_5 1_555 1_555
C46_5 C41_5 1_555 1_555
H31_5 C46_5 1_555 1_555
H32_5 C46_5 1_555 1_555
H33_5 C46_5 1_555 1_555
C47_5 C43_5 1_555 1_555
C48_5 C37_5 1_555 1_555
H34_5 C48_5 1_555 1_555
H35_5 C48_5 1_555 1_555
H36_5 C48_5 1_555 1_555
U4_3 O11_3 1_555 1_555
O17_3 U1_3 1_555 1_555
O18_3 U2_3 1_555 1_555
O19_3 U1_3 1_555 1_555
O20_3 U2_3 1_555 1_555
O6_5 C16_5 1_555 1_555
C2_5 C3_5 1_555 1_555
C6_5 C7_5 1_555 1_555
C17_5 C22_5 1_555 1_555
C21_5 C22_5 1_555 1_555
O10_5 U2_3 1_555 1_555
C27_5 C28_5 1_555 1_555
C30_5 C31_5 1_555 1_555
O12_3 U4_3 1_555 1_555
O14_5 C33_5 1_555 1_555
C34_5 C35_5 1_555 1_555
C38_5 C39_5 1_555 1_555
C44_5 C45_5 1_555 1_555
O1_3 C15_5 1_555 1_555
O2_3 C15_5 1_555 1_555
H4_5 C10_5 1_555 1_555
C11_5 C10_5 1_555 1_555
C12_5 C11_5 1_555 1_555
H5_5 C12_5 1_555 1_555
H6_5 C13_5 1_555 1_555
C15_5 C11_5 1_555 1_555
U3_3 O1_3 1_555 1_555
O2_3 U3_3 1_555 1_555
C12_5 C13_5 1_555 1_555
C17_6 H10_6 1_555 1_555
C18_6 C17_6 1_555 1_555
C19_6 C18_6 1_555 1_555
C23_6 C18_6 1_555 1_555
H13_6 C23_6 1_555 1_555
H14_6 C23_6 1_555 1_555
H15_6 C23_6 1_555 1_555
C17_6 C22_6 1_555 1_555
C26_6 H19_6 1_555 1_555
C27_6 C26_6 1_555 1_555
C31_6 C26_6 1_555 1_555
C32_6 C27_6 1_555 1_555
H22_6 C32_6 1_555 1_555
H23_6 C32_6 1_555 1_555
H24_6 C32_6 1_555 1_555
C27_6 C28_6 1_555 1_555
O1_4 C15_6 1_555 1_555
O2_4 C15_6 1_555 1_555
H4_6 C10_6 1_555 1_555
C11_6 C10_6 1_555 1_555
C12_6 C11_6 1_555 1_555
H5_6 C12_6 1_555 1_555
H6_6 C13_6 1_555 1_555
C15_6 C11_6 1_555 1_555
U3_4 O1_4 1_555 1_555
O2_4 U3_4 1_555 1_555
C12_6 C13_6 1_555 1_555
U1_4 O3_6 1_555 1_555
O3_6 C1_6 1_555 1_555
O4_6 U1_4 1_555 1_555
O6_6 U1_4 1_555 1_555
O8_6 U1_4 1_555 1_555
C1_6 O4_6 1_555 1_555
C2_6 H1_6 1_555 1_555
C3_6 C1_6 1_555 1_555
C4_6 C3_6 1_555 1_555
H2_6 C4_6 1_555 1_555
C5_6 C4_6 1_555 1_555
C6_6 C5_6 1_555 1_555
C7_6 C2_6 1_555 1_555
H3_6 C7_6 1_555 1_555
C8_6 C6_6 1_555 1_555
C9_6 C8_6 1_555 1_555
C14_6 C9_6 1_555 1_555
H7_6 C14_6 1_555 1_555
H8_6 C14_6 1_555 1_555
H9_6 C14_6 1_555 1_555
C21_6 C20_6 1_555 1_555
H12_6 C21_6 1_555 1_555
C24_6 C5_6 1_555 1_555
H16_6 C24_6 1_555 1_555
H17_6 C24_6 1_555 1_555
H18_6 C24_6 1_555 1_555
O6_6 C16_6 1_555 1_555
C2_6 C3_6 1_555 1_555
C6_6 C7_6 1_555 1_555
O10_6 C25_6 1_555 1_555
C30_6 C29_6 1_555 1_555
H21_6 C30_6 1_555 1_555
O11_4 C47_6 1_555 1_555
O12_4 C47_6 1_555 1_555
O13_6 U2_4 1_555 1_555
O14_6 U2_4 1_555 1_555
O16_6 U2_4 1_555 1_555
C33_6 O13_6 1_555 1_555
C34_6 H25_6 1_555 1_555
C35_6 C33_6 1_555 1_555
C36_6 C35_6 1_555 1_555
H26_6 C36_6 1_555 1_555
C37_6 C36_6 1_555 1_555
C38_6 C37_6 1_555 1_555
C39_6 C34_6 1_555 1_555
H27_6 C39_6 1_555 1_555
C40_6 C38_6 1_555 1_555
C41_6 C40_6 1_555 1_555
C42_6 C41_6 1_555 1_555
H28_6 C42_6 1_555 1_555
C43_6 C42_6 1_555 1_555
C44_6 C43_6 1_555 1_555
H29_6 C44_6 1_555 1_555
C45_6 C40_6 1_555 1_555
H30_6 C45_6 1_555 1_555
C46_6 C41_6 1_555 1_555
H31_6 C46_6 1_555 1_555
H32_6 C46_6 1_555 1_555
H33_6 C46_6 1_555 1_555
C47_6 C43_6 1_555 1_555
C48_6 C37_6 1_555 1_555
H34_6 C48_6 1_555 1_555
H35_6 C48_6 1_555 1_555
H36_6 C48_6 1_555 1_555
U4_4 O11_4 1_555 1_555
O10_6 U2_4 1_555 1_555
O12_4 U4_4 1_555 1_555
O14_6 C33_6 1_555 1_555
C34_6 C35_6 1_555 1_555
C38_6 C39_6 1_555 1_555
C44_6 C45_6 1_555 1_555
U3_3 O3_7 1_555 1_555
O17_4 C15_7 1_555 1_555
O19_4 C15_7 1_555 1_555
O3_7 C1_7 1_555 1_555
O4_7 U3_3 1_555 1_555
O5_7 U3_3 1_555 1_555
O6_7 U3_3 1_555 1_555
O7_7 U3_3 1_555 1_555
O8_7 U3_3 1_555 1_555
C1_7 O4_7 1_555 1_555
C2_7 H1_7 1_555 1_555
C3_7 C1_7 1_555 1_555
C4_7 C3_7 1_555 1_555
H2_7 C4_7 1_555 1_555
C5_7 C4_7 1_555 1_555
C6_7 C5_7 1_555 1_555
C7_7 C2_7 1_555 1_555
H3_7 C7_7 1_555 1_555
C8_7 C6_7 1_555 1_555
C9_7 C8_7 1_555 1_555
C10_7 C9_7 1_555 1_555
H4_7 C10_7 1_555 1_555
C11_7 C10_7 1_555 1_555
C12_7 C11_7 1_555 1_555
H5_7 C12_7 1_555 1_555
C13_7 C8_7 1_555 1_555
H6_7 C13_7 1_555 1_555
C14_7 C9_7 1_555 1_555
H7_7 C14_7 1_555 1_555
H8_7 C14_7 1_555 1_555
H9_7 C14_7 1_555 1_555
C15_7 C11_7 1_555 1_555
C16_7 O5_7 1_555 1_555
C17_7 H10_7 1_555 1_555
C18_7 C17_7 1_555 1_555
C19_7 C18_7 1_555 1_555
C20_7 C19_7 1_555 1_555
H11_7 C20_7 1_555 1_555
C21_7 C20_7 1_555 1_555
H12_7 C21_7 1_555 1_555
C22_7 C16_7 1_555 1_555
C23_7 C18_7 1_555 1_555
H13_7 C23_7 1_555 1_555
H14_7 C23_7 1_555 1_555
H15_7 C23_7 1_555 1_555
C24_7 C5_7 1_555 1_555
H16_7 C24_7 1_555 1_555
H17_7 C24_7 1_555 1_555
H18_7 C24_7 1_555 1_555
O9_7 C25_7 1_555 1_555
O10_7 C25_7 1_555 1_555
C25_7 C31_7 1_555 1_555
C26_7 H19_7 1_555 1_555
C27_7 C26_7 1_555 1_555
C28_7 C19_7 1_555 1_555
C29_7 C28_7 1_555 1_555
H20_7 C29_7 1_555 1_555
C30_7 C29_7 1_555 1_555
H21_7 C30_7 1_555 1_555
C31_7 C26_7 1_555 1_555
C32_7 C27_7 1_555 1_555
H22_7 C32_7 1_555 1_555
H23_7 C32_7 1_555 1_555
H24_7 C32_7 1_555 1_555
U4_3 O9_7 1_555 1_555
O18_4 C47_7 1_555 1_555
O20_4 C47_7 1_555 1_555
O13_7 U4_3 1_555 1_555
O14_7 U4_3 1_555 1_555
O15_7 U4_3 1_555 1_555
O16_7 U4_3 1_555 1_555
C33_7 O13_7 1_555 1_555
C34_7 H25_7 1_555 1_555
C35_7 C33_7 1_555 1_555
C36_7 C35_7 1_555 1_555
H26_7 C36_7 1_555 1_555
C37_7 C36_7 1_555 1_555
C38_7 C37_7 1_555 1_555
C39_7 C34_7 1_555 1_555
H27_7 C39_7 1_555 1_555
C40_7 C38_7 1_555 1_555
C41_7 C40_7 1_555 1_555
C42_7 C41_7 1_555 1_555
H28_7 C42_7 1_555 1_555
C43_7 C42_7 1_555 1_555
C44_7 C43_7 1_555 1_555
H29_7 C44_7 1_555 1_555
C45_7 C40_7 1_555 1_555
H30_7 C45_7 1_555 1_555
C46_7 C41_7 1_555 1_555
H31_7 C46_7 1_555 1_555
H32_7 C46_7 1_555 1_555
H33_7 C46_7 1_555 1_555
C47_7 C43_7 1_555 1_555
C48_7 C37_7 1_555 1_555
H34_7 C48_7 1_555 1_555
H35_7 C48_7 1_555 1_555
H36_7 C48_7 1_555 1_555
O6_7 C16_7 1_555 1_555
C2_7 C3_7 1_555 1_555
C6_7 C7_7 1_555 1_555
C12_7 C13_7 1_555 1_555
C17_7 C22_7 1_555 1_555
C21_7 C22_7 1_555 1_555
O10_7 U4_3 1_555 1_555
C27_7 C28_7 1_555 1_555
C30_7 C31_7 1_555 1_555
O14_7 C33_7 1_555 1_555
C34_7 C35_7 1_555 1_555
C38_7 C39_7 1_555 1_555
C44_7 C45_7 1_555 1_555
U3_4 O3_8 1_555 1_555
O17_3 C15_8 1_555 1_555
O19_3 C15_8 1_555 1_555
O3_8 C1_8 1_555 1_555
O4_8 U3_4 1_555 1_555
O5_8 U3_4 1_555 1_555
O6_8 U3_4 1_555 1_555
O7_8 U3_4 1_555 1_555
O8_8 U3_4 1_555 1_555
C1_8 O4_8 1_555 1_555
C2_8 H1_8 1_555 1_555
C3_8 C1_8 1_555 1_555
C4_8 C3_8 1_555 1_555
H2_8 C4_8 1_555 1_555
C5_8 C4_8 1_555 1_555
C6_8 C5_8 1_555 1_555
C7_8 C2_8 1_555 1_555
H3_8 C7_8 1_555 1_555
C8_8 C6_8 1_555 1_555
C9_8 C8_8 1_555 1_555
C10_8 C9_8 1_555 1_555
H4_8 C10_8 1_555 1_555
C11_8 C10_8 1_555 1_555
C12_8 C11_8 1_555 1_555
H5_8 C12_8 1_555 1_555
C13_8 C8_8 1_555 1_555
H6_8 C13_8 1_555 1_555
C14_8 C9_8 1_555 1_555
H7_8 C14_8 1_555 1_555
H8_8 C14_8 1_555 1_555
H9_8 C14_8 1_555 1_555
C15_8 C11_8 1_555 1_555
C16_8 O5_8 1_555 1_555
C17_8 H10_8 1_555 1_555
C18_8 C17_8 1_555 1_555
C19_8 C18_8 1_555 1_555
C20_8 C19_8 1_555 1_555
H11_8 C20_8 1_555 1_555
C21_8 C20_8 1_555 1_555
H12_8 C21_8 1_555 1_555
C22_8 C16_8 1_555 1_555
C24_8 C5_8 1_555 1_555
H16_8 C24_8 1_555 1_555
H17_8 C24_8 1_555 1_555
H18_8 C24_8 1_555 1_555
H22_8 C32_8 1_555 1_555
H23_8 C32_8 1_555 1_555
H24_8 C32_8 1_555 1_555
O6_8 C16_8 1_555 1_555
C2_8 C3_8 1_555 1_555
C6_8 C7_8 1_555 1_555
C12_8 C13_8 1_555 1_555
C17_8 C22_8 1_555 1_555
C21_8 C22_8 1_555 1_555
H13_8 C23_8 1_555 1_555
H14_8 C23_8 1_555 1_555
H15_8 C23_8 1_555 1_555
O9_8 C25_8 1_555 1_555
O10_8 C25_8 1_555 1_555
C25_8 C31_8 1_555 1_555
C26_8 H19_8 1_555 1_555
C27_8 C26_8 1_555 1_555
C29_8 C28_8 1_555 1_555
H20_8 C29_8 1_555 1_555
C30_8 C29_8 1_555 1_555
H21_8 C30_8 1_555 1_555
C31_8 C26_8 1_555 1_555
U4_4 O9_8 1_555 1_555
O18_3 C47_8 1_555 1_555
O20_3 C47_8 1_555 1_555
O13_8 U4_4 1_555 1_555
O14_8 U4_4 1_555 1_555
O15_8 U4_4 1_555 1_555
O16_8 U4_4 1_555 1_555
C33_8 O13_8 1_555 1_555
C34_8 H25_8 1_555 1_555
C35_8 C33_8 1_555 1_555
C36_8 C35_8 1_555 1_555
H26_8 C36_8 1_555 1_555
C37_8 C36_8 1_555 1_555
C38_8 C37_8 1_555 1_555
C39_8 C34_8 1_555 1_555
H27_8 C39_8 1_555 1_555
C40_8 C38_8 1_555 1_555
C41_8 C40_8 1_555 1_555
C42_8 C41_8 1_555 1_555
H28_8 C42_8 1_555 1_555
C43_8 C42_8 1_555 1_555
C44_8 C43_8 1_555 1_555
H29_8 C44_8 1_555 1_555
C45_8 C40_8 1_555 1_555
H30_8 C45_8 1_555 1_555
C46_8 C41_8 1_555 1_555
H31_8 C46_8 1_555 1_555
H32_8 C46_8 1_555 1_555
H33_8 C46_8 1_555 1_555
C47_8 C43_8 1_555 1_555
C48_8 C37_8 1_555 1_555
H34_8 C48_8 1_555 1_555
H35_8 C48_8 1_555 1_555
H36_8 C48_8 1_555 1_555
O10_8 U4_4 1_555 1_555
C27_8 C28_8 1_555 1_555
C30_8 C31_8 1_555 1_555
O14_8 C33_8 1_555 1_555
C34_8 C35_8 1_555 1_555
C38_8 C39_8 1_555 1_555
C44_8 C45_8 1_555 1_555
O11_5 C47_9 1_555 1_555
O12_5 C47_9 1_555 1_555
H28_9 C42_9 1_555 1_555
C43_9 C42_9 1_555 1_555
C44_9 C43_9 1_555 1_555
H29_9 C44_9 1_555 1_555
H30_9 C45_9 1_555 1_555
C47_9 C43_9 1_555 1_555
U4_5 O11_5 1_555 1_555
O12_5 U4_5 1_555 1_555
C44_9 C45_9 1_555 1_555
U1_5 O3_9 1_555 1_555
O1_5 C15_9 1_555 1_555
O2_5 C15_9 1_555 1_555
O3_9 C1_9 1_555 1_555
O4_9 U1_5 1_555 1_555
O6_9 U1_5 1_555 1_555
O8_9 U1_5 1_555 1_555
C1_9 O4_9 1_555 1_555
C2_9 H1_9 1_555 1_555
C3_9 C1_9 1_555 1_555
C4_9 C3_9 1_555 1_555
H2_9 C4_9 1_555 1_555
C5_9 C4_9 1_555 1_555
C6_9 C5_9 1_555 1_555
C7_9 C2_9 1_555 1_555
H3_9 C7_9 1_555 1_555
C8_9 C6_9 1_555 1_555
C9_9 C8_9 1_555 1_555
C10_9 C9_9 1_555 1_555
H4_9 C10_9 1_555 1_555
C11_9 C10_9 1_555 1_555
C12_9 C11_9 1_555 1_555
H5_9 C12_9 1_555 1_555
C13_9 C8_9 1_555 1_555
H6_9 C13_9 1_555 1_555
C14_9 C9_9 1_555 1_555
H7_9 C14_9 1_555 1_555
H8_9 C14_9 1_555 1_555
H9_9 C14_9 1_555 1_555
C15_9 C11_9 1_555 1_555
H11_9 C20_9 1_555 1_555
C21_9 C20_9 1_555 1_555
H12_9 C21_9 1_555 1_555
C24_9 C5_9 1_555 1_555
H16_9 C24_9 1_555 1_555
H17_9 C24_9 1_555 1_555
H18_9 C24_9 1_555 1_555
O10_9 C25_9 1_555 1_555
H20_9 C29_9 1_555 1_555
C30_9 C29_9 1_555 1_555
H21_9 C30_9 1_555 1_555
O13_9 U2_5 1_555 1_555
O14_9 U2_5 1_555 1_555
O16_9 U2_5 1_555 1_555
C33_9 O13_9 1_555 1_555
C34_9 H25_9 1_555 1_555
C35_9 C33_9 1_555 1_555
C36_9 C35_9 1_555 1_555
H26_9 C36_9 1_555 1_555
C37_9 C36_9 1_555 1_555
C38_9 C37_9 1_555 1_555
C39_9 C34_9 1_555 1_555
H27_9 C39_9 1_555 1_555
C40_9 C38_9 1_555 1_555
C41_9 C40_9 1_555 1_555
C46_9 C41_9 1_555 1_555
H31_9 C46_9 1_555 1_555
H32_9 C46_9 1_555 1_555
H33_9 C46_9 1_555 1_555
C48_9 C37_9 1_555 1_555
H34_9 C48_9 1_555 1_555
H35_9 C48_9 1_555 1_555
H36_9 C48_9 1_555 1_555
U3_5 O1_5 1_555 1_555
O2_5 U3_5 1_555 1_555
O6_9 C16_9 1_555 1_555
C2_9 C3_9 1_555 1_555
C6_9 C7_9 1_555 1_555
C12_9 C13_9 1_555 1_555
O10_9 U2_5 1_555 1_555
O14_9 C33_9 1_555 1_555
C34_9 C35_9 1_555 1_555
C38_9 C39_9 1_555 1_555
C17_9 H10_9 1_555 1_555
C18_9 C17_9 1_555 1_555
C19_9 C18_9 1_555 1_555
C23_9 C18_9 1_555 1_555
H13_9 C23_9 1_555 1_555
H14_9 C23_9 1_555 1_555
H15_9 C23_9 1_555 1_555
C26_9 H19_9 1_555 1_555
C27_9 C26_9 1_555 1_555
C28_9 C19_9 1_555 1_555
C31_9 C26_9 1_555 1_555
C32_9 C27_9 1_555 1_555
H22_9 C32_9 1_555 1_555
H23_9 C32_9 1_555 1_555
H24_9 C32_9 1_555 1_555
C17_9 C22_9 1_555 1_555
C27_9 C28_9 1_555 1_555
O9_10 C25_10 1_555 1_555
O10_10 C25_10 1_555 1_555
C25_10 C31_10 1_555 1_555
C26_10 H19_10 1_555 1_555
C27_10 C26_10 1_555 1_555
C29_10 C28_10 1_555 1_555
C30_10 C29_10 1_555 1_555
H21_10 C30_10 1_555 1_555
C31_10 C26_10 1_555 1_555
C32_10 C27_10 1_555 1_555
H22_10 C32_10 1_555 1_555
H23_10 C32_10 1_555 1_555
H24_10 C32_10 1_555 1_555
U2_6 O9_10 1_555 1_555
O13_10 U2_6 1_555 1_555
O14_10 U2_6 1_555 1_555
O15_10 U2_6 1_555 1_555
O16_10 U2_6 1_555 1_555
C33_10 O13_10 1_555 1_555
C34_10 H25_10 1_555 1_555
C35_10 C33_10 1_555 1_555
C36_10 C35_10 1_555 1_555
H26_10 C36_10 1_555 1_555
C37_10 C36_10 1_555 1_555
C38_10 C37_10 1_555 1_555
C39_10 C34_10 1_555 1_555
H27_10 C39_10 1_555 1_555
C40_10 C38_10 1_555 1_555
C41_10 C40_10 1_555 1_555
C46_10 C41_10 1_555 1_555
H31_10 C46_10 1_555 1_555
H32_10 C46_10 1_555 1_555
H33_10 C46_10 1_555 1_555
C48_10 C37_10 1_555 1_555
H34_10 C48_10 1_555 1_555
H35_10 C48_10 1_555 1_555
H36_10 C48_10 1_555 1_555
O18_6 U2_6 1_555 1_555
O20_6 U2_6 1_555 1_555
O10_10 U2_6 1_555 1_555
C27_10 C28_10 1_555 1_555
C30_10 C31_10 1_555 1_555
O14_10 C33_10 1_555 1_555
C34_10 C35_10 1_555 1_555
C38_10 C39_10 1_555 1_555
U1_6 O3_10 1_555 1_555
O1_6 C15_10 1_555 1_555
O2_6 C15_10 1_555 1_555
O3_10 C1_10 1_555 1_555
O4_10 U1_6 1_555 1_555
O5_10 U1_6 1_555 1_555
O6_10 U1_6 1_555 1_555
O7_10 U1_6 1_555 1_555
O8_10 U1_6 1_555 1_555
C1_10 O4_10 1_555 1_555
C2_10 H1_10 1_555 1_555
C3_10 C1_10 1_555 1_555
C4_10 C3_10 1_555 1_555
H2_10 C4_10 1_555 1_555
C5_10 C4_10 1_555 1_555
C6_10 C5_10 1_555 1_555
C7_10 C2_10 1_555 1_555
H3_10 C7_10 1_555 1_555
C8_10 C6_10 1_555 1_555
C9_10 C8_10 1_555 1_555
C10_10 C9_10 1_555 1_555
H4_10 C10_10 1_555 1_555
C11_10 C10_10 1_555 1_555
C12_10 C11_10 1_555 1_555
H5_10 C12_10 1_555 1_555
C13_10 C8_10 1_555 1_555
H6_10 C13_10 1_555 1_555
C14_10 C9_10 1_555 1_555
H7_10 C14_10 1_555 1_555
H8_10 C14_10 1_555 1_555
H9_10 C14_10 1_555 1_555
C15_10 C11_10 1_555 1_555
C16_10 O5_10 1_555 1_555
C17_10 H10_10 1_555 1_555
C18_10 C17_10 1_555 1_555
C19_10 C18_10 1_555 1_555
C20_10 C19_10 1_555 1_555
C21_10 C20_10 1_555 1_555
H12_10 C21_10 1_555 1_555
C22_10 C16_10 1_555 1_555
C23_10 C18_10 1_555 1_555
H13_10 C23_10 1_555 1_555
H14_10 C23_10 1_555 1_555
H15_10 C23_10 1_555 1_555
C24_10 C5_10 1_555 1_555
H16_10 C24_10 1_555 1_555
H17_10 C24_10 1_555 1_555
H18_10 C24_10 1_555 1_555
U3_6 O1_6 1_555 1_555
O17_6 U1_6 1_555 1_555
O19_6 U1_6 1_555 1_555
O2_6 U3_6 1_555 1_555
O6_10 C16_10 1_555 1_555
C2_10 C3_10 1_555 1_555
C6_10 C7_10 1_555 1_555
C12_10 C13_10 1_555 1_555
C17_10 C22_10 1_555 1_555
C21_10 C22_10 1_555 1_555
O11_6 C47_10 1_555 1_555
O12_6 C47_10 1_555 1_555
H28_10 C42_10 1_555 1_555
C43_10 C42_10 1_555 1_555
C44_10 C43_10 1_555 1_555
H29_10 C44_10 1_555 1_555
H30_10 C45_10 1_555 1_555
C47_10 C43_10 1_555 1_555
U4_6 O11_6 1_555 1_555
O12_6 U4_6 1_555 1_555
C44_10 C45_10 1_555 1_555
U3_5 O3_11 1_555 1_555
O17_6 C15_11 1_555 1_555
O19_6 C15_11 1_555 1_555
O3_11 C1_11 1_555 1_555
O4_11 U3_5 1_555 1_555
O5_11 U3_5 1_555 1_555
O6_11 U3_5 1_555 1_555
O7_11 U3_5 1_555 1_555
O8_11 U3_5 1_555 1_555
C1_11 O4_11 1_555 1_555
C2_11 H1_11 1_555 1_555
C3_11 C1_11 1_555 1_555
C4_11 C3_11 1_555 1_555
H2_11 C4_11 1_555 1_555
C5_11 C4_11 1_555 1_555
C6_11 C5_11 1_555 1_555
C7_11 C2_11 1_555 1_555
H3_11 C7_11 1_555 1_555
C8_11 C6_11 1_555 1_555
C9_11 C8_11 1_555 1_555
C10_11 C9_11 1_555 1_555
H4_11 C10_11 1_555 1_555
C11_11 C10_11 1_555 1_555
C12_11 C11_11 1_555 1_555
H5_11 C12_11 1_555 1_555
C13_11 C8_11 1_555 1_555
H6_11 C13_11 1_555 1_555
C14_11 C9_11 1_555 1_555
H7_11 C14_11 1_555 1_555
H8_11 C14_11 1_555 1_555
H9_11 C14_11 1_555 1_555
C15_11 C11_11 1_555 1_555
C16_11 O5_11 1_555 1_555
C17_11 H10_11 1_555 1_555
C18_11 C17_11 1_555 1_555
C19_11 C18_11 1_555 1_555
C20_11 C19_11 1_555 1_555
H11_11 C20_11 1_555 1_555
C21_11 C20_11 1_555 1_555
H12_11 C21_11 1_555 1_555
C22_11 C16_11 1_555 1_555
C23_11 C18_11 1_555 1_555
H13_11 C23_11 1_555 1_555
H14_11 C23_11 1_555 1_555
H15_11 C23_11 1_555 1_555
C24_11 C5_11 1_555 1_555
H16_11 C24_11 1_555 1_555
H17_11 C24_11 1_555 1_555
H18_11 C24_11 1_555 1_555
O9_11 C25_11 1_555 1_555
O10_11 C25_11 1_555 1_555
C25_11 C31_11 1_555 1_555
C26_11 H19_11 1_555 1_555
C27_11 C26_11 1_555 1_555
C28_11 C19_11 1_555 1_555
C29_11 C28_11 1_555 1_555
H20_11 C29_11 1_555 1_555
C30_11 C29_11 1_555 1_555
H21_11 C30_11 1_555 1_555
C31_11 C26_11 1_555 1_555
C32_11 C27_11 1_555 1_555
H22_11 C32_11 1_555 1_555
H23_11 C32_11 1_555 1_555
H24_11 C32_11 1_555 1_555
U4_5 O9_11 1_555 1_555
O18_6 C47_11 1_555 1_555
O20_6 C47_11 1_555 1_555
O13_11 U4_5 1_555 1_555
O14_11 U4_5 1_555 1_555
O15_11 U4_5 1_555 1_555
O16_11 U4_5 1_555 1_555
C33_11 O13_11 1_555 1_555
C34_11 H25_11 1_555 1_555
C35_11 C33_11 1_555 1_555
C36_11 C35_11 1_555 1_555
H26_11 C36_11 1_555 1_555
C37_11 C36_11 1_555 1_555
C38_11 C37_11 1_555 1_555
C39_11 C34_11 1_555 1_555
H27_11 C39_11 1_555 1_555
C40_11 C38_11 1_555 1_555
C41_11 C40_11 1_555 1_555
C42_11 C41_11 1_555 1_555
H28_11 C42_11 1_555 1_555
C43_11 C42_11 1_555 1_555
C44_11 C43_11 1_555 1_555
H29_11 C44_11 1_555 1_555
C45_11 C40_11 1_555 1_555
H30_11 C45_11 1_555 1_555
C46_11 C41_11 1_555 1_555
H31_11 C46_11 1_555 1_555
H32_11 C46_11 1_555 1_555
H33_11 C46_11 1_555 1_555
C47_11 C43_11 1_555 1_555
C48_11 C37_11 1_555 1_555
H34_11 C48_11 1_555 1_555
H35_11 C48_11 1_555 1_555
H36_11 C48_11 1_555 1_555
O6_11 C16_11 1_555 1_555
C2_11 C3_11 1_555 1_555
C6_11 C7_11 1_555 1_555
C12_11 C13_11 1_555 1_555
C17_11 C22_11 1_555 1_555
C21_11 C22_11 1_555 1_555
O10_11 U4_5 1_555 1_555
C27_11 C28_11 1_555 1_555
C30_11 C31_11 1_555 1_555
O14_11 C33_11 1_555 1_555
C34_11 C35_11 1_555 1_555
C38_11 C39_11 1_555 1_555
C44_11 C45_11 1_555 1_555
H13_12 C23_12 1_555 1_555
H14_12 C23_12 1_555 1_555
H15_12 C23_12 1_555 1_555
O9_12 C25_12 1_555 1_555
O10_12 C25_12 1_555 1_555
C25_12 C31_12 1_555 1_555
C26_12 H19_12 1_555 1_555
C27_12 C26_12 1_555 1_555
C29_12 C28_12 1_555 1_555
H20_12 C29_12 1_555 1_555
C30_12 C29_12 1_555 1_555
H21_12 C30_12 1_555 1_555
C31_12 C26_12 1_555 1_555
U4_6 O9_12 1_555 1_555
O18_5 C47_12 1_555 1_555
O20_5 C47_12 1_555 1_555
O13_12 U4_6 1_555 1_555
O14_12 U4_6 1_555 1_555
O15_12 U4_6 1_555 1_555
O16_12 U4_6 1_555 1_555
C33_12 O13_12 1_555 1_555
C34_12 H25_12 1_555 1_555
C35_12 C33_12 1_555 1_555
C36_12 C35_12 1_555 1_555
H26_12 C36_12 1_555 1_555
C37_12 C36_12 1_555 1_555
C38_12 C37_12 1_555 1_555
C39_12 C34_12 1_555 1_555
H27_12 C39_12 1_555 1_555
C40_12 C38_12 1_555 1_555
C41_12 C40_12 1_555 1_555
C42_12 C41_12 1_555 1_555
H28_12 C42_12 1_555 1_555
C43_12 C42_12 1_555 1_555
C44_12 C43_12 1_555 1_555
H29_12 C44_12 1_555 1_555
C45_12 C40_12 1_555 1_555
H30_12 C45_12 1_555 1_555
C46_12 C41_12 1_555 1_555
H31_12 C46_12 1_555 1_555
H32_12 C46_12 1_555 1_555
H33_12 C46_12 1_555 1_555
C47_12 C43_12 1_555 1_555
C48_12 C37_12 1_555 1_555
H34_12 C48_12 1_555 1_555
H35_12 C48_12 1_555 1_555
H36_12 C48_12 1_555 1_555
O10_12 U4_6 1_555 1_555
C27_12 C28_12 1_555 1_555
C30_12 C31_12 1_555 1_555
O14_12 C33_12 1_555 1_555
C34_12 C35_12 1_555 1_555
C38_12 C39_12 1_555 1_555
C44_12 C45_12 1_555 1_555
U3_6 O3_12 1_555 1_555
O17_5 C15_12 1_555 1_555
O19_5 C15_12 1_555 1_555
O3_12 C1_12 1_555 1_555
O4_12 U3_6 1_555 1_555
O5_12 U3_6 1_555 1_555
O6_12 U3_6 1_555 1_555
O7_12 U3_6 1_555 1_555
O8_12 U3_6 1_555 1_555
C1_12 O4_12 1_555 1_555
C2_12 H1_12 1_555 1_555
C3_12 C1_12 1_555 1_555
C4_12 C3_12 1_555 1_555
H2_12 C4_12 1_555 1_555
C5_12 C4_12 1_555 1_555
C6_12 C5_12 1_555 1_555
C7_12 C2_12 1_555 1_555
H3_12 C7_12 1_555 1_555
C8_12 C6_12 1_555 1_555
C9_12 C8_12 1_555 1_555
C10_12 C9_12 1_555 1_555
H4_12 C10_12 1_555 1_555
C11_12 C10_12 1_555 1_555
C12_12 C11_12 1_555 1_555
H5_12 C12_12 1_555 1_555
C13_12 C8_12 1_555 1_555
H6_12 C13_12 1_555 1_555
C14_12 C9_12 1_555 1_555
H7_12 C14_12 1_555 1_555
H8_12 C14_12 1_555 1_555
H9_12 C14_12 1_555 1_555
C15_12 C11_12 1_555 1_555
C16_12 O5_12 1_555 1_555
C17_12 H10_12 1_555 1_555
C18_12 C17_12 1_555 1_555
C19_12 C18_12 1_555 1_555
C20_12 C19_12 1_555 1_555
H11_12 C20_12 1_555 1_555
C21_12 C20_12 1_555 1_555
H12_12 C21_12 1_555 1_555
C22_12 C16_12 1_555 1_555
C24_12 C5_12 1_555 1_555
H16_12 C24_12 1_555 1_555
H17_12 C24_12 1_555 1_555
H18_12 C24_12 1_555 1_555
H22_12 C32_12 1_555 1_555
H23_12 C32_12 1_555 1_555
H24_12 C32_12 1_555 1_555
O6_12 C16_12 1_555 1_555
C2_12 C3_12 1_555 1_555
C6_12 C7_12 1_555 1_555
C12_12 C13_12 1_555 1_555
C17_12 C22_12 1_555 1_555
C21_12 C22_12 1_555 1_555
U1_7 O3_13 1_555 1_555
O3_13 C1_13 1_555 1_555
O4_13 U1_7 1_555 1_555
O5_13 U1_7 1_555 1_555
O6_13 U1_7 1_555 1_555
O7_13 U1_7 1_555 1_555
O8_13 U1_7 1_555 1_555
C1_13 O4_13 1_555 1_555
C2_13 H1_13 1_555 1_555
C3_13 C1_13 1_555 1_555
C4_13 C3_13 1_555 1_555
H2_13 C4_13 1_555 1_555
C5_13 C4_13 1_555 1_555
C6_13 C5_13 1_555 1_555
C7_13 C2_13 1_555 1_555
H3_13 C7_13 1_555 1_555
C8_13 C6_13 1_555 1_555
C9_13 C8_13 1_555 1_555
C14_13 C9_13 1_555 1_555
H7_13 C14_13 1_555 1_555
H8_13 C14_13 1_555 1_555
H9_13 C14_13 1_555 1_555
C16_13 O5_13 1_555 1_555
C17_13 H10_13 1_555 1_555
C18_13 C17_13 1_555 1_555
C19_13 C18_13 1_555 1_555
C20_13 C19_13 1_555 1_555
H11_13 C20_13 1_555 1_555
C21_13 C20_13 1_555 1_555
H12_13 C21_13 1_555 1_555
C22_13 C16_13 1_555 1_555
C23_13 C18_13 1_555 1_555
H13_13 C23_13 1_555 1_555
H14_13 C23_13 1_555 1_555
H15_13 C23_13 1_555 1_555
C24_13 C5_13 1_555 1_555
H16_13 C24_13 1_555 1_555
H17_13 C24_13 1_555 1_555
H18_13 C24_13 1_555 1_555
O9_13 C25_13 1_555 1_555
O10_13 C25_13 1_555 1_555
C25_13 C31_13 1_555 1_555
C26_13 H19_13 1_555 1_555
C27_13 C26_13 1_555 1_555
C28_13 C19_13 1_555 1_555
C29_13 C28_13 1_555 1_555
H20_13 C29_13 1_555 1_555
C30_13 C29_13 1_555 1_555
H21_13 C30_13 1_555 1_555
C31_13 C26_13 1_555 1_555
C32_13 C27_13 1_555 1_555
H22_13 C32_13 1_555 1_555
H23_13 C32_13 1_555 1_555
H24_13 C32_13 1_555 1_555
U2_7 O9_13 1_555 1_555
O11_7 C47_13 1_555 1_555
O12_7 C47_13 1_555 1_555
O13_13 U2_7 1_555 1_555
O14_13 U2_7 1_555 1_555
O15_13 U2_7 1_555 1_555
O16_13 U2_7 1_555 1_555
C33_13 O13_13 1_555 1_555
C34_13 H25_13 1_555 1_555
C35_13 C33_13 1_555 1_555
C36_13 C35_13 1_555 1_555
H26_13 C36_13 1_555 1_555
C37_13 C36_13 1_555 1_555
C38_13 C37_13 1_555 1_555
C39_13 C34_13 1_555 1_555
H27_13 C39_13 1_555 1_555
C40_13 C38_13 1_555 1_555
C41_13 C40_13 1_555 1_555
C42_13 C41_13 1_555 1_555
H28_13 C42_13 1_555 1_555
C43_13 C42_13 1_555 1_555
C44_13 C43_13 1_555 1_555
H29_13 C44_13 1_555 1_555
C45_13 C40_13 1_555 1_555
H30_13 C45_13 1_555 1_555
C46_13 C41_13 1_555 1_555
H31_13 C46_13 1_555 1_555
H32_13 C46_13 1_555 1_555
H33_13 C46_13 1_555 1_555
C47_13 C43_13 1_555 1_555
C48_13 C37_13 1_555 1_555
H34_13 C48_13 1_555 1_555
H35_13 C48_13 1_555 1_555
H36_13 C48_13 1_555 1_555
U4_7 O11_7 1_555 1_555
O17_7 U1_7 1_555 1_555
O18_7 U2_7 1_555 1_555
O19_7 U1_7 1_555 1_555
O20_7 U2_7 1_555 1_555
O6_13 C16_13 1_555 1_555
C2_13 C3_13 1_555 1_555
C6_13 C7_13 1_555 1_555
C17_13 C22_13 1_555 1_555
C21_13 C22_13 1_555 1_555
O10_13 U2_7 1_555 1_555
C27_13 C28_13 1_555 1_555
C30_13 C31_13 1_555 1_555
O12_7 U4_7 1_555 1_555
O14_13 C33_13 1_555 1_555
C34_13 C35_13 1_555 1_555
C38_13 C39_13 1_555 1_555
C44_13 C45_13 1_555 1_555
O1_7 C15_13 1_555 1_555
O2_7 C15_13 1_555 1_555
H4_13 C10_13 1_555 1_555
C11_13 C10_13 1_555 1_555
C12_13 C11_13 1_555 1_555
H5_13 C12_13 1_555 1_555
H6_13 C13_13 1_555 1_555
C15_13 C11_13 1_555 1_555
U3_7 O1_7 1_555 1_555
O2_7 U3_7 1_555 1_555
C12_13 C13_13 1_555 1_555
O1_8 C15_14 1_555 1_555
O2_8 C15_14 1_555 1_555
H4_14 C10_14 1_555 1_555
C11_14 C10_14 1_555 1_555
C12_14 C11_14 1_555 1_555
H5_14 C12_14 1_555 1_555
H6_14 C13_14 1_555 1_555
C15_14 C11_14 1_555 1_555
U3_8 O1_8 1_555 1_555
O2_8 U3_8 1_555 1_555
C12_14 C13_14 1_555 1_555
C17_14 H10_14 1_555 1_555
C18_14 C17_14 1_555 1_555
C19_14 C18_14 1_555 1_555
C23_14 C18_14 1_555 1_555
H13_14 C23_14 1_555 1_555
H14_14 C23_14 1_555 1_555
H15_14 C23_14 1_555 1_555
C17_14 C22_14 1_555 1_555
C26_14 H19_14 1_555 1_555
C27_14 C26_14 1_555 1_555
C31_14 C26_14 1_555 1_555
C32_14 C27_14 1_555 1_555
H22_14 C32_14 1_555 1_555
H23_14 C32_14 1_555 1_555
H24_14 C32_14 1_555 1_555
C27_14 C28_14 1_555 1_555
U1_8 O3_14 1_555 1_555
O3_14 C1_14 1_555 1_555
O4_14 U1_8 1_555 1_555
O6_14 U1_8 1_555 1_555
O8_14 U1_8 1_555 1_555
C1_14 O4_14 1_555 1_555
C2_14 H1_14 1_555 1_555
C3_14 C1_14 1_555 1_555
C4_14 C3_14 1_555 1_555
H2_14 C4_14 1_555 1_555
C5_14 C4_14 1_555 1_555
C6_14 C5_14 1_555 1_555
C7_14 C2_14 1_555 1_555
H3_14 C7_14 1_555 1_555
C8_14 C6_14 1_555 1_555
C9_14 C8_14 1_555 1_555
C14_14 C9_14 1_555 1_555
H7_14 C14_14 1_555 1_555
H8_14 C14_14 1_555 1_555
H9_14 C14_14 1_555 1_555
C21_14 C20_14 1_555 1_555
H12_14 C21_14 1_555 1_555
C24_14 C5_14 1_555 1_555
H16_14 C24_14 1_555 1_555
H17_14 C24_14 1_555 1_555
H18_14 C24_14 1_555 1_555
O6_14 C16_14 1_555 1_555
C2_14 C3_14 1_555 1_555
C6_14 C7_14 1_555 1_555
O10_14 C25_14 1_555 1_555
C30_14 C29_14 1_555 1_555
H21_14 C30_14 1_555 1_555
O11_8 C47_14 1_555 1_555
O12_8 C47_14 1_555 1_555
O13_14 U2_8 1_555 1_555
O14_14 U2_8 1_555 1_555
O16_14 U2_8 1_555 1_555
C33_14 O13_14 1_555 1_555
C34_14 H25_14 1_555 1_555
C35_14 C33_14 1_555 1_555
C36_14 C35_14 1_555 1_555
H26_14 C36_14 1_555 1_555
C37_14 C36_14 1_555 1_555
C38_14 C37_14 1_555 1_555
C39_14 C34_14 1_555 1_555
H27_14 C39_14 1_555 1_555
C40_14 C38_14 1_555 1_555
C41_14 C40_14 1_555 1_555
C42_14 C41_14 1_555 1_555
H28_14 C42_14 1_555 1_555
C43_14 C42_14 1_555 1_555
C44_14 C43_14 1_555 1_555
H29_14 C44_14 1_555 1_555
C45_14 C40_14 1_555 1_555
H30_14 C45_14 1_555 1_555
C46_14 C41_14 1_555 1_555
H31_14 C46_14 1_555 1_555
H32_14 C46_14 1_555 1_555
H33_14 C46_14 1_555 1_555
C47_14 C43_14 1_555 1_555
C48_14 C37_14 1_555 1_555
H34_14 C48_14 1_555 1_555
H35_14 C48_14 1_555 1_555
H36_14 C48_14 1_555 1_555
U4_8 O11_8 1_555 1_555
O10_14 U2_8 1_555 1_555
O12_8 U4_8 1_555 1_555
O14_14 C33_14 1_555 1_555
C34_14 C35_14 1_555 1_555
C38_14 C39_14 1_555 1_555
C44_14 C45_14 1_555 1_555
U3_8 O3_15 1_555 1_555
O17_7 C15_15 1_555 1_555
O19_7 C15_15 1_555 1_555
O3_15 C1_15 1_555 1_555
O4_15 U3_8 1_555 1_555
O5_15 U3_8 1_555 1_555
O6_15 U3_8 1_555 1_555
O7_15 U3_8 1_555 1_555
O8_15 U3_8 1_555 1_555
C1_15 O4_15 1_555 1_555
C2_15 H1_15 1_555 1_555
C3_15 C1_15 1_555 1_555
C4_15 C3_15 1_555 1_555
H2_15 C4_15 1_555 1_555
C5_15 C4_15 1_555 1_555
C6_15 C5_15 1_555 1_555
C7_15 C2_15 1_555 1_555
H3_15 C7_15 1_555 1_555
C8_15 C6_15 1_555 1_555
C9_15 C8_15 1_555 1_555
C10_15 C9_15 1_555 1_555
H4_15 C10_15 1_555 1_555
C11_15 C10_15 1_555 1_555
C12_15 C11_15 1_555 1_555
H5_15 C12_15 1_555 1_555
C13_15 C8_15 1_555 1_555
H6_15 C13_15 1_555 1_555
C14_15 C9_15 1_555 1_555
H7_15 C14_15 1_555 1_555
H8_15 C14_15 1_555 1_555
H9_15 C14_15 1_555 1_555
C15_15 C11_15 1_555 1_555
C16_15 O5_15 1_555 1_555
C17_15 H10_15 1_555 1_555
C18_15 C17_15 1_555 1_555
C19_15 C18_15 1_555 1_555
C20_15 C19_15 1_555 1_555
H11_15 C20_15 1_555 1_555
C21_15 C20_15 1_555 1_555
H12_15 C21_15 1_555 1_555
C22_15 C16_15 1_555 1_555
C24_15 C5_15 1_555 1_555
H16_15 C24_15 1_555 1_555
H17_15 C24_15 1_555 1_555
H18_15 C24_15 1_555 1_555
H22_15 C32_15 1_555 1_555
H23_15 C32_15 1_555 1_555
H24_15 C32_15 1_555 1_555
O6_15 C16_15 1_555 1_555
C2_15 C3_15 1_555 1_555
C6_15 C7_15 1_555 1_555
C12_15 C13_15 1_555 1_555
C17_15 C22_15 1_555 1_555
C21_15 C22_15 1_555 1_555
H13_15 C23_15 1_555 1_555
H14_15 C23_15 1_555 1_555
H15_15 C23_15 1_555 1_555
O9_15 C25_15 1_555 1_555
O10_15 C25_15 1_555 1_555
C25_15 C31_15 1_555 1_555
C26_15 H19_15 1_555 1_555
C27_15 C26_15 1_555 1_555
C29_15 C28_15 1_555 1_555
H20_15 C29_15 1_555 1_555
C30_15 C29_15 1_555 1_555
H21_15 C30_15 1_555 1_555
C31_15 C26_15 1_555 1_555
U4_8 O9_15 1_555 1_555
O18_7 C47_15 1_555 1_555
O20_7 C47_15 1_555 1_555
O13_15 U4_8 1_555 1_555
O14_15 U4_8 1_555 1_555
O15_15 U4_8 1_555 1_555
O16_15 U4_8 1_555 1_555
C33_15 O13_15 1_555 1_555
C34_15 H25_15 1_555 1_555
C35_15 C33_15 1_555 1_555
C36_15 C35_15 1_555 1_555
H26_15 C36_15 1_555 1_555
C37_15 C36_15 1_555 1_555
C38_15 C37_15 1_555 1_555
C39_15 C34_15 1_555 1_555
H27_15 C39_15 1_555 1_555
C40_15 C38_15 1_555 1_555
C41_15 C40_15 1_555 1_555
C42_15 C41_15 1_555 1_555
H28_15 C42_15 1_555 1_555
C43_15 C42_15 1_555 1_555
C44_15 C43_15 1_555 1_555
H29_15 C44_15 1_555 1_555
C45_15 C40_15 1_555 1_555
H30_15 C45_15 1_555 1_555
C46_15 C41_15 1_555 1_555
H31_15 C46_15 1_555 1_555
H32_15 C46_15 1_555 1_555
H33_15 C46_15 1_555 1_555
C47_15 C43_15 1_555 1_555
C48_15 C37_15 1_555 1_555
H34_15 C48_15 1_555 1_555
H35_15 C48_15 1_555 1_555
H36_15 C48_15 1_555 1_555
O10_15 U4_8 1_555 1_555
C27_15 C28_15 1_555 1_555
C30_15 C31_15 1_555 1_555
O14_15 C33_15 1_555 1_555
C34_15 C35_15 1_555 1_555
C38_15 C39_15 1_555 1_555
C44_15 C45_15 1_555 1_555
U3_7 O3_16 1_555 1_555
O17_8 C15_16 1_555 1_555
O19_8 C15_16 1_555 1_555
O3_16 C1_16 1_555 1_555
O4_16 U3_7 1_555 1_555
O5_16 U3_7 1_555 1_555
O6_16 U3_7 1_555 1_555
O7_16 U3_7 1_555 1_555
O8_16 U3_7 1_555 1_555
C1_16 O4_16 1_555 1_555
C2_16 H1_16 1_555 1_555
C3_16 C1_16 1_555 1_555
C4_16 C3_16 1_555 1_555
H2_16 C4_16 1_555 1_555
C5_16 C4_16 1_555 1_555
C6_16 C5_16 1_555 1_555
C7_16 C2_16 1_555 1_555
H3_16 C7_16 1_555 1_555
C8_16 C6_16 1_555 1_555
C9_16 C8_16 1_555 1_555
C10_16 C9_16 1_555 1_555
H4_16 C10_16 1_555 1_555
C11_16 C10_16 1_555 1_555
C12_16 C11_16 1_555 1_555
H5_16 C12_16 1_555 1_555
C13_16 C8_16 1_555 1_555
H6_16 C13_16 1_555 1_555
C14_16 C9_16 1_555 1_555
H7_16 C14_16 1_555 1_555
H8_16 C14_16 1_555 1_555
H9_16 C14_16 1_555 1_555
C15_16 C11_16 1_555 1_555
C16_16 O5_16 1_555 1_555
C17_16 H10_16 1_555 1_555
C18_16 C17_16 1_555 1_555
C19_16 C18_16 1_555 1_555
C20_16 C19_16 1_555 1_555
H11_16 C20_16 1_555 1_555
C21_16 C20_16 1_555 1_555
H12_16 C21_16 1_555 1_555
C22_16 C16_16 1_555 1_555
C23_16 C18_16 1_555 1_555
H13_16 C23_16 1_555 1_555
H14_16 C23_16 1_555 1_555
H15_16 C23_16 1_555 1_555
C24_16 C5_16 1_555 1_555
H16_16 C24_16 1_555 1_555
H17_16 C24_16 1_555 1_555
H18_16 C24_16 1_555 1_555
O9_16 C25_16 1_555 1_555
O10_16 C25_16 1_555 1_555
C25_16 C31_16 1_555 1_555
C26_16 H19_16 1_555 1_555
C27_16 C26_16 1_555 1_555
C28_16 C19_16 1_555 1_555
C29_16 C28_16 1_555 1_555
H20_16 C29_16 1_555 1_555
C30_16 C29_16 1_555 1_555
H21_16 C30_16 1_555 1_555
C31_16 C26_16 1_555 1_555
C32_16 C27_16 1_555 1_555
H22_16 C32_16 1_555 1_555
H23_16 C32_16 1_555 1_555
H24_16 C32_16 1_555 1_555
U4_7 O9_16 1_555 1_555
O18_8 C47_16 1_555 1_555
O20_8 C47_16 1_555 1_555
O13_16 U4_7 1_555 1_555
O14_16 U4_7 1_555 1_555
O15_16 U4_7 1_555 1_555
O16_16 U4_7 1_555 1_555
C33_16 O13_16 1_555 1_555
C34_16 H25_16 1_555 1_555
C35_16 C33_16 1_555 1_555
C36_16 C35_16 1_555 1_555
H26_16 C36_16 1_555 1_555
C37_16 C36_16 1_555 1_555
C38_16 C37_16 1_555 1_555
C39_16 C34_16 1_555 1_555
H27_16 C39_16 1_555 1_555
C40_16 C38_16 1_555 1_555
C41_16 C40_16 1_555 1_555
C42_16 C41_16 1_555 1_555
H28_16 C42_16 1_555 1_555
C43_16 C42_16 1_555 1_555
C44_16 C43_16 1_555 1_555
H29_16 C44_16 1_555 1_555
C45_16 C40_16 1_555 1_555
H30_16 C45_16 1_555 1_555
C46_16 C41_16 1_555 1_555
H31_16 C46_16 1_555 1_555
H32_16 C46_16 1_555 1_555
H33_16 C46_16 1_555 1_555
C47_16 C43_16 1_555 1_555
C48_16 C37_16 1_555 1_555
H34_16 C48_16 1_555 1_555
H35_16 C48_16 1_555 1_555
H36_16 C48_16 1_555 1_555
O6_16 C16_16 1_555 1_555
C2_16 C3_16 1_555 1_555
C6_16 C7_16 1_555 1_555
C12_16 C13_16 1_555 1_555
C17_16 C22_16 1_555 1_555
C21_16 C22_16 1_555 1_555
O10_16 U4_7 1_555 1_555
C27_16 C28_16 1_555 1_555
C30_16 C31_16 1_555 1_555
O14_16 C33_16 1_555 1_555
C34_16 C35_16 1_555 1_555
C38_16 C39_16 1_555 1_555
C44_16 C45_16 1_555 1_555
O11_9 C47_17 1_555 1_555
O12_9 C47_17 1_555 1_555
H28_17 C42_17 1_555 1_555
C43_17 C42_17 1_555 1_555
C44_17 C43_17 1_555 1_555
H29_17 C44_17 1_555 1_555
H30_17 C45_17 1_555 1_555
C47_17 C43_17 1_555 1_555
U4_9 O11_9 1_555 1_555
O12_9 U4_9 1_555 1_555
C44_17 C45_17 1_555 1_555
U1_9 O3_17 1_555 1_555
O1_9 C15_17 1_555 1_555
O2_9 C15_17 1_555 1_555
O3_17 C1_17 1_555 1_555
O4_17 U1_9 1_555 1_555
O6_17 U1_9 1_555 1_555
O8_17 U1_9 1_555 1_555
C1_17 O4_17 1_555 1_555
C2_17 H1_17 1_555 1_555
C3_17 C1_17 1_555 1_555
C4_17 C3_17 1_555 1_555
H2_17 C4_17 1_555 1_555
C5_17 C4_17 1_555 1_555
C6_17 C5_17 1_555 1_555
C7_17 C2_17 1_555 1_555
H3_17 C7_17 1_555 1_555
C8_17 C6_17 1_555 1_555
C9_17 C8_17 1_555 1_555
C10_17 C9_17 1_555 1_555
H4_17 C10_17 1_555 1_555
C11_17 C10_17 1_555 1_555
C12_17 C11_17 1_555 1_555
H5_17 C12_17 1_555 1_555
C13_17 C8_17 1_555 1_555
H6_17 C13_17 1_555 1_555
C14_17 C9_17 1_555 1_555
H7_17 C14_17 1_555 1_555
H8_17 C14_17 1_555 1_555
H9_17 C14_17 1_555 1_555
C15_17 C11_17 1_555 1_555
H11_17 C20_17 1_555 1_555
C21_17 C20_17 1_555 1_555
H12_17 C21_17 1_555 1_555
C24_17 C5_17 1_555 1_555
H16_17 C24_17 1_555 1_555
H17_17 C24_17 1_555 1_555
H18_17 C24_17 1_555 1_555
O10_17 C25_17 1_555 1_555
H20_17 C29_17 1_555 1_555
C30_17 C29_17 1_555 1_555
H21_17 C30_17 1_555 1_555
O13_17 U2_9 1_555 1_555
O14_17 U2_9 1_555 1_555
O16_17 U2_9 1_555 1_555
C33_17 O13_17 1_555 1_555
C34_17 H25_17 1_555 1_555
C35_17 C33_17 1_555 1_555
C36_17 C35_17 1_555 1_555
H26_17 C36_17 1_555 1_555
C37_17 C36_17 1_555 1_555
C38_17 C37_17 1_555 1_555
C39_17 C34_17 1_555 1_555
H27_17 C39_17 1_555 1_555
C40_17 C38_17 1_555 1_555
C41_17 C40_17 1_555 1_555
C46_17 C41_17 1_555 1_555
H31_17 C46_17 1_555 1_555
H32_17 C46_17 1_555 1_555
H33_17 C46_17 1_555 1_555
C48_17 C37_17 1_555 1_555
H34_17 C48_17 1_555 1_555
H35_17 C48_17 1_555 1_555
H36_17 C48_17 1_555 1_555
U3_9 O1_9 1_555 1_555
O2_9 U3_9 1_555 1_555
O6_17 C16_17 1_555 1_555
C2_17 C3_17 1_555 1_555
C6_17 C7_17 1_555 1_555
C12_17 C13_17 1_555 1_555
O10_17 U2_9 1_555 1_555
O14_17 C33_17 1_555 1_555
C34_17 C35_17 1_555 1_555
C38_17 C39_17 1_555 1_555
C17_17 H10_17 1_555 1_555
C18_17 C17_17 1_555 1_555
C19_17 C18_17 1_555 1_555
C23_17 C18_17 1_555 1_555
H13_17 C23_17 1_555 1_555
H14_17 C23_17 1_555 1_555
H15_17 C23_17 1_555 1_555
C26_17 H19_17 1_555 1_555
C27_17 C26_17 1_555 1_555
C28_17 C19_17 1_555 1_555
C31_17 C26_17 1_555 1_555
C32_17 C27_17 1_555 1_555
H22_17 C32_17 1_555 1_555
H23_17 C32_17 1_555 1_555
H24_17 C32_17 1_555 1_555
C17_17 C22_17 1_555 1_555
C27_17 C28_17 1_555 1_555
O9_18 C25_18 1_555 1_555
O10_18 C25_18 1_555 1_555
C25_18 C31_18 1_555 1_555
C26_18 H19_18 1_555 1_555
C27_18 C26_18 1_555 1_555
C29_18 C28_18 1_555 1_555
C30_18 C29_18 1_555 1_555
H21_18 C30_18 1_555 1_555
C31_18 C26_18 1_555 1_555
C32_18 C27_18 1_555 1_555
H22_18 C32_18 1_555 1_555
H23_18 C32_18 1_555 1_555
H24_18 C32_18 1_555 1_555
U2_10 O9_18 1_555 1_555
O13_18 U2_10 1_555 1_555
O14_18 U2_10 1_555 1_555
O15_18 U2_10 1_555 1_555
O16_18 U2_10 1_555 1_555
C33_18 O13_18 1_555 1_555
C34_18 H25_18 1_555 1_555
C35_18 C33_18 1_555 1_555
C36_18 C35_18 1_555 1_555
H26_18 C36_18 1_555 1_555
C37_18 C36_18 1_555 1_555
C38_18 C37_18 1_555 1_555
C39_18 C34_18 1_555 1_555
H27_18 C39_18 1_555 1_555
C40_18 C38_18 1_555 1_555
C41_18 C40_18 1_555 1_555
C46_18 C41_18 1_555 1_555
H31_18 C46_18 1_555 1_555
H32_18 C46_18 1_555 1_555
H33_18 C46_18 1_555 1_555
C48_18 C37_18 1_555 1_555
H34_18 C48_18 1_555 1_555
H35_18 C48_18 1_555 1_555
H36_18 C48_18 1_555 1_555
O18_10 U2_10 1_555 1_555
O20_10 U2_10 1_555 1_555
O10_18 U2_10 1_555 1_555
C27_18 C28_18 1_555 1_555
C30_18 C31_18 1_555 1_555
O14_18 C33_18 1_555 1_555
C34_18 C35_18 1_555 1_555
C38_18 C39_18 1_555 1_555
O11_10 C47_18 1_555 1_555
O12_10 C47_18 1_555 1_555
H28_18 C42_18 1_555 1_555
C43_18 C42_18 1_555 1_555
C44_18 C43_18 1_555 1_555
H29_18 C44_18 1_555 1_555
H30_18 C45_18 1_555 1_555
C47_18 C43_18 1_555 1_555
U4_10 O11_10 1_555 1_555
O12_10 U4_10 1_555 1_555
C44_18 C45_18 1_555 1_555
U1_10 O3_18 1_555 1_555
O1_10 C15_18 1_555 1_555
O2_10 C15_18 1_555 1_555
O3_18 C1_18 1_555 1_555
O4_18 U1_10 1_555 1_555
O5_18 U1_10 1_555 1_555
O6_18 U1_10 1_555 1_555
O7_18 U1_10 1_555 1_555
O8_18 U1_10 1_555 1_555
C1_18 O4_18 1_555 1_555
C2_18 H1_18 1_555 1_555
C3_18 C1_18 1_555 1_555
C4_18 C3_18 1_555 1_555
H2_18 C4_18 1_555 1_555
C5_18 C4_18 1_555 1_555
C6_18 C5_18 1_555 1_555
C7_18 C2_18 1_555 1_555
H3_18 C7_18 1_555 1_555
C8_18 C6_18 1_555 1_555
C9_18 C8_18 1_555 1_555
C10_18 C9_18 1_555 1_555
H4_18 C10_18 1_555 1_555
C11_18 C10_18 1_555 1_555
C12_18 C11_18 1_555 1_555
H5_18 C12_18 1_555 1_555
C13_18 C8_18 1_555 1_555
H6_18 C13_18 1_555 1_555
C14_18 C9_18 1_555 1_555
H7_18 C14_18 1_555 1_555
H8_18 C14_18 1_555 1_555
H9_18 C14_18 1_555 1_555
C15_18 C11_18 1_555 1_555
C16_18 O5_18 1_555 1_555
C17_18 H10_18 1_555 1_555
C18_18 C17_18 1_555 1_555
C19_18 C18_18 1_555 1_555
C20_18 C19_18 1_555 1_555
C21_18 C20_18 1_555 1_555
H12_18 C21_18 1_555 1_555
C22_18 C16_18 1_555 1_555
C23_18 C18_18 1_555 1_555
H13_18 C23_18 1_555 1_555
H14_18 C23_18 1_555 1_555
H15_18 C23_18 1_555 1_555
C24_18 C5_18 1_555 1_555
H16_18 C24_18 1_555 1_555
H17_18 C24_18 1_555 1_555
H18_18 C24_18 1_555 1_555
U3_10 O1_10 1_555 1_555
O17_10 U1_10 1_555 1_555
O19_10 U1_10 1_555 1_555
O2_10 U3_10 1_555 1_555
O6_18 C16_18 1_555 1_555
C2_18 C3_18 1_555 1_555
C6_18 C7_18 1_555 1_555
C12_18 C13_18 1_555 1_555
C17_18 C22_18 1_555 1_555
C21_18 C22_18 1_555 1_555
H13_19 C23_19 1_555 1_555
H14_19 C23_19 1_555 1_555
H15_19 C23_19 1_555 1_555
O9_19 C25_19 1_555 1_555
O10_19 C25_19 1_555 1_555
C25_19 C31_19 1_555 1_555
C26_19 H19_19 1_555 1_555
C27_19 C26_19 1_555 1_555
C29_19 C28_19 1_555 1_555
H20_19 C29_19 1_555 1_555
C30_19 C29_19 1_555 1_555
H21_19 C30_19 1_555 1_555
C31_19 C26_19 1_555 1_555
U4_10 O9_19 1_555 1_555
O18_9 C47_19 1_555 1_555
O20_9 C47_19 1_555 1_555
O13_19 U4_10 1_555 1_555
O14_19 U4_10 1_555 1_555
O15_19 U4_10 1_555 1_555
O16_19 U4_10 1_555 1_555
C33_19 O13_19 1_555 1_555
C34_19 H25_19 1_555 1_555
C35_19 C33_19 1_555 1_555
C36_19 C35_19 1_555 1_555
H26_19 C36_19 1_555 1_555
C37_19 C36_19 1_555 1_555
C38_19 C37_19 1_555 1_555
C39_19 C34_19 1_555 1_555
H27_19 C39_19 1_555 1_555
C40_19 C38_19 1_555 1_555
C41_19 C40_19 1_555 1_555
C42_19 C41_19 1_555 1_555
H28_19 C42_19 1_555 1_555
C43_19 C42_19 1_555 1_555
C44_19 C43_19 1_555 1_555
H29_19 C44_19 1_555 1_555
C45_19 C40_19 1_555 1_555
H30_19 C45_19 1_555 1_555
C46_19 C41_19 1_555 1_555
H31_19 C46_19 1_555 1_555
H32_19 C46_19 1_555 1_555
H33_19 C46_19 1_555 1_555
C47_19 C43_19 1_555 1_555
C48_19 C37_19 1_555 1_555
H34_19 C48_19 1_555 1_555
H35_19 C48_19 1_555 1_555
H36_19 C48_19 1_555 1_555
O10_19 U4_10 1_555 1_555
C27_19 C28_19 1_555 1_555
C30_19 C31_19 1_555 1_555
O14_19 C33_19 1_555 1_555
C34_19 C35_19 1_555 1_555
C38_19 C39_19 1_555 1_555
C44_19 C45_19 1_555 1_555
U3_10 O3_19 1_555 1_555
O17_9 C15_19 1_555 1_555
O19_9 C15_19 1_555 1_555
O3_19 C1_19 1_555 1_555
O4_19 U3_10 1_555 1_555
O5_19 U3_10 1_555 1_555
O6_19 U3_10 1_555 1_555
O7_19 U3_10 1_555 1_555
O8_19 U3_10 1_555 1_555
C1_19 O4_19 1_555 1_555
C2_19 H1_19 1_555 1_555
C3_19 C1_19 1_555 1_555
C4_19 C3_19 1_555 1_555
H2_19 C4_19 1_555 1_555
C5_19 C4_19 1_555 1_555
C6_19 C5_19 1_555 1_555
C7_19 C2_19 1_555 1_555
H3_19 C7_19 1_555 1_555
C8_19 C6_19 1_555 1_555
C9_19 C8_19 1_555 1_555
C10_19 C9_19 1_555 1_555
H4_19 C10_19 1_555 1_555
C11_19 C10_19 1_555 1_555
C12_19 C11_19 1_555 1_555
H5_19 C12_19 1_555 1_555
C13_19 C8_19 1_555 1_555
H6_19 C13_19 1_555 1_555
C14_19 C9_19 1_555 1_555
H7_19 C14_19 1_555 1_555
H8_19 C14_19 1_555 1_555
H9_19 C14_19 1_555 1_555
C15_19 C11_19 1_555 1_555
C16_19 O5_19 1_555 1_555
C17_19 H10_19 1_555 1_555
C18_19 C17_19 1_555 1_555
C19_19 C18_19 1_555 1_555
C20_19 C19_19 1_555 1_555
H11_19 C20_19 1_555 1_555
C21_19 C20_19 1_555 1_555
H12_19 C21_19 1_555 1_555
C22_19 C16_19 1_555 1_555
C24_19 C5_19 1_555 1_555
H16_19 C24_19 1_555 1_555
H17_19 C24_19 1_555 1_555
H18_19 C24_19 1_555 1_555
H22_19 C32_19 1_555 1_555
H23_19 C32_19 1_555 1_555
H24_19 C32_19 1_555 1_555
O6_19 C16_19 1_555 1_555
C2_19 C3_19 1_555 1_555
C6_19 C7_19 1_555 1_555
C12_19 C13_19 1_555 1_555
C17_19 C22_19 1_555 1_555
C21_19 C22_19 1_555 1_555
U3_9 O3_20 1_555 1_555
O17_10 C15_20 1_555 1_555
O19_10 C15_20 1_555 1_555
O3_20 C1_20 1_555 1_555
O4_20 U3_9 1_555 1_555
O5_20 U3_9 1_555 1_555
O6_20 U3_9 1_555 1_555
O7_20 U3_9 1_555 1_555
O8_20 U3_9 1_555 1_555
C1_20 O4_20 1_555 1_555
C2_20 H1_20 1_555 1_555
C3_20 C1_20 1_555 1_555
C4_20 C3_20 1_555 1_555
H2_20 C4_20 1_555 1_555
C5_20 C4_20 1_555 1_555
C6_20 C5_20 1_555 1_555
C7_20 C2_20 1_555 1_555
H3_20 C7_20 1_555 1_555
C8_20 C6_20 1_555 1_555
C9_20 C8_20 1_555 1_555
C10_20 C9_20 1_555 1_555
H4_20 C10_20 1_555 1_555
C11_20 C10_20 1_555 1_555
C12_20 C11_20 1_555 1_555
H5_20 C12_20 1_555 1_555
C13_20 C8_20 1_555 1_555
H6_20 C13_20 1_555 1_555
C14_20 C9_20 1_555 1_555
H7_20 C14_20 1_555 1_555
H8_20 C14_20 1_555 1_555
H9_20 C14_20 1_555 1_555
C15_20 C11_20 1_555 1_555
C16_20 O5_20 1_555 1_555
C17_20 H10_20 1_555 1_555
C18_20 C17_20 1_555 1_555
C19_20 C18_20 1_555 1_555
C20_20 C19_20 1_555 1_555
H11_20 C20_20 1_555 1_555
C21_20 C20_20 1_555 1_555
H12_20 C21_20 1_555 1_555
C22_20 C16_20 1_555 1_555
C23_20 C18_20 1_555 1_555
H13_20 C23_20 1_555 1_555
H14_20 C23_20 1_555 1_555
H15_20 C23_20 1_555 1_555
C24_20 C5_20 1_555 1_555
H16_20 C24_20 1_555 1_555
H17_20 C24_20 1_555 1_555
H18_20 C24_20 1_555 1_555
O9_20 C25_20 1_555 1_555
O10_20 C25_20 1_555 1_555
C25_20 C31_20 1_555 1_555
C26_20 H19_20 1_555 1_555
C27_20 C26_20 1_555 1_555
C28_20 C19_20 1_555 1_555
C29_20 C28_20 1_555 1_555
H20_20 C29_20 1_555 1_555
C30_20 C29_20 1_555 1_555
H21_20 C30_20 1_555 1_555
C31_20 C26_20 1_555 1_555
C32_20 C27_20 1_555 1_555
H22_20 C32_20 1_555 1_555
H23_20 C32_20 1_555 1_555
H24_20 C32_20 1_555 1_555
U4_9 O9_20 1_555 1_555
O18_10 C47_20 1_555 1_555
O20_10 C47_20 1_555 1_555
O13_20 U4_9 1_555 1_555
O14_20 U4_9 1_555 1_555
O15_20 U4_9 1_555 1_555
O16_20 U4_9 1_555 1_555
C33_20 O13_20 1_555 1_555
C34_20 H25_20 1_555 1_555
C35_20 C33_20 1_555 1_555
C36_20 C35_20 1_555 1_555
H26_20 C36_20 1_555 1_555
C37_20 C36_20 1_555 1_555
C38_20 C37_20 1_555 1_555
C39_20 C34_20 1_555 1_555
H27_20 C39_20 1_555 1_555
C40_20 C38_20 1_555 1_555
C41_20 C40_20 1_555 1_555
C42_20 C41_20 1_555 1_555
H28_20 C42_20 1_555 1_555
C43_20 C42_20 1_555 1_555
C44_20 C43_20 1_555 1_555
H29_20 C44_20 1_555 1_555
C45_20 C40_20 1_555 1_555
H30_20 C45_20 1_555 1_555
C46_20 C41_20 1_555 1_555
H31_20 C46_20 1_555 1_555
H32_20 C46_20 1_555 1_555
H33_20 C46_20 1_555 1_555
C47_20 C43_20 1_555 1_555
C48_20 C37_20 1_555 1_555
H34_20 C48_20 1_555 1_555
H35_20 C48_20 1_555 1_555
H36_20 C48_20 1_555 1_555
O6_20 C16_20 1_555 1_555
C2_20 C3_20 1_555 1_555
C6_20 C7_20 1_555 1_555
C12_20 C13_20 1_555 1_555
C17_20 C22_20 1_555 1_555
C21_20 C22_20 1_555 1_555
O10_20 U4_9 1_555 1_555
C27_20 C28_20 1_555 1_555
C30_20 C31_20 1_555 1_555
O14_20 C33_20 1_555 1_555
C34_20 C35_20 1_555 1_555
C38_20 C39_20 1_555 1_555
C44_20 C45_20 1_555 1_555
U1_11 O3_21 1_555 1_555
O3_21 C1_21 1_555 1_555
O4_21 U1_11 1_555 1_555
O5_21 U1_11 1_555 1_555
O6_21 U1_11 1_555 1_555
O7_21 U1_11 1_555 1_555
O8_21 U1_11 1_555 1_555
C1_21 O4_21 1_555 1_555
C2_21 H1_21 1_555 1_555
C3_21 C1_21 1_555 1_555
C4_21 C3_21 1_555 1_555
H2_21 C4_21 1_555 1_555
C5_21 C4_21 1_555 1_555
C6_21 C5_21 1_555 1_555
C7_21 C2_21 1_555 1_555
H3_21 C7_21 1_555 1_555
C8_21 C6_21 1_555 1_555
C9_21 C8_21 1_555 1_555
C14_21 C9_21 1_555 1_555
H7_21 C14_21 1_555 1_555
H8_21 C14_21 1_555 1_555
H9_21 C14_21 1_555 1_555
C16_21 O5_21 1_555 1_555
C17_21 H10_21 1_555 1_555
C18_21 C17_21 1_555 1_555
C19_21 C18_21 1_555 1_555
C20_21 C19_21 1_555 1_555
H11_21 C20_21 1_555 1_555
C21_21 C20_21 1_555 1_555
H12_21 C21_21 1_555 1_555
C22_21 C16_21 1_555 1_555
C23_21 C18_21 1_555 1_555
H13_21 C23_21 1_555 1_555
H14_21 C23_21 1_555 1_555
H15_21 C23_21 1_555 1_555
C24_21 C5_21 1_555 1_555
H16_21 C24_21 1_555 1_555
H17_21 C24_21 1_555 1_555
H18_21 C24_21 1_555 1_555
O9_21 C25_21 1_555 1_555
O10_21 C25_21 1_555 1_555
C25_21 C31_21 1_555 1_555
C26_21 H19_21 1_555 1_555
C27_21 C26_21 1_555 1_555
C28_21 C19_21 1_555 1_555
C29_21 C28_21 1_555 1_555
H20_21 C29_21 1_555 1_555
C30_21 C29_21 1_555 1_555
H21_21 C30_21 1_555 1_555
C31_21 C26_21 1_555 1_555
C32_21 C27_21 1_555 1_555
H22_21 C32_21 1_555 1_555
H23_21 C32_21 1_555 1_555
H24_21 C32_21 1_555 1_555
U2_11 O9_21 1_555 1_555
O11_11 C47_21 1_555 1_555
O12_11 C47_21 1_555 1_555
O13_21 U2_11 1_555 1_555
O14_21 U2_11 1_555 1_555
O15_21 U2_11 1_555 1_555
O16_21 U2_11 1_555 1_555
C33_21 O13_21 1_555 1_555
C34_21 H25_21 1_555 1_555
C35_21 C33_21 1_555 1_555
C36_21 C35_21 1_555 1_555
H26_21 C36_21 1_555 1_555
C37_21 C36_21 1_555 1_555
C38_21 C37_21 1_555 1_555
C39_21 C34_21 1_555 1_555
H27_21 C39_21 1_555 1_555
C40_21 C38_21 1_555 1_555
C41_21 C40_21 1_555 1_555
C42_21 C41_21 1_555 1_555
H28_21 C42_21 1_555 1_555
C43_21 C42_21 1_555 1_555
C44_21 C43_21 1_555 1_555
H29_21 C44_21 1_555 1_555
C45_21 C40_21 1_555 1_555
H30_21 C45_21 1_555 1_555
C46_21 C41_21 1_555 1_555
H31_21 C46_21 1_555 1_555
H32_21 C46_21 1_555 1_555
H33_21 C46_21 1_555 1_555
C47_21 C43_21 1_555 1_555
C48_21 C37_21 1_555 1_555
H34_21 C48_21 1_555 1_555
H35_21 C48_21 1_555 1_555
H36_21 C48_21 1_555 1_555
U4_11 O11_11 1_555 1_555
O17_11 U1_11 1_555 1_555
O18_11 U2_11 1_555 1_555
O19_11 U1_11 1_555 1_555
O20_11 U2_11 1_555 1_555
O6_21 C16_21 1_555 1_555
C2_21 C3_21 1_555 1_555
C6_21 C7_21 1_555 1_555
C17_21 C22_21 1_555 1_555
C21_21 C22_21 1_555 1_555
O10_21 U2_11 1_555 1_555
C27_21 C28_21 1_555 1_555
C30_21 C31_21 1_555 1_555
O12_11 U4_11 1_555 1_555
O14_21 C33_21 1_555 1_555
C34_21 C35_21 1_555 1_555
C38_21 C39_21 1_555 1_555
C44_21 C45_21 1_555 1_555
O1_11 C15_21 1_555 1_555
O2_11 C15_21 1_555 1_555
H4_21 C10_21 1_555 1_555
C11_21 C10_21 1_555 1_555
C12_21 C11_21 1_555 1_555
H5_21 C12_21 1_555 1_555
H6_21 C13_21 1_555 1_555
C15_21 C11_21 1_555 1_555
U3_11 O1_11 1_555 1_555
O2_11 U3_11 1_555 1_555
C12_21 C13_21 1_555 1_555
O1_12 C15_22 1_555 1_555
O2_12 C15_22 1_555 1_555
H4_22 C10_22 1_555 1_555
C11_22 C10_22 1_555 1_555
C12_22 C11_22 1_555 1_555
H5_22 C12_22 1_555 1_555
H6_22 C13_22 1_555 1_555
C15_22 C11_22 1_555 1_555
U3_12 O1_12 1_555 1_555
O2_12 U3_12 1_555 1_555
C12_22 C13_22 1_555 1_555
C17_22 H10_22 1_555 1_555
C18_22 C17_22 1_555 1_555
C19_22 C18_22 1_555 1_555
C23_22 C18_22 1_555 1_555
H13_22 C23_22 1_555 1_555
H14_22 C23_22 1_555 1_555
H15_22 C23_22 1_555 1_555
C17_22 C22_22 1_555 1_555
U1_12 O3_22 1_555 1_555
O3_22 C1_22 1_555 1_555
O4_22 U1_12 1_555 1_555
O6_22 U1_12 1_555 1_555
O8_22 U1_12 1_555 1_555
C1_22 O4_22 1_555 1_555
C2_22 H1_22 1_555 1_555
C3_22 C1_22 1_555 1_555
C4_22 C3_22 1_555 1_555
H2_22 C4_22 1_555 1_555
C5_22 C4_22 1_555 1_555
C6_22 C5_22 1_555 1_555
C7_22 C2_22 1_555 1_555
H3_22 C7_22 1_555 1_555
C8_22 C6_22 1_555 1_555
C9_22 C8_22 1_555 1_555
C14_22 C9_22 1_555 1_555
H7_22 C14_22 1_555 1_555
H8_22 C14_22 1_555 1_555
H9_22 C14_22 1_555 1_555
C21_22 C20_22 1_555 1_555
H12_22 C21_22 1_555 1_555
C24_22 C5_22 1_555 1_555
H16_22 C24_22 1_555 1_555
H17_22 C24_22 1_555 1_555
H18_22 C24_22 1_555 1_555
O6_22 C16_22 1_555 1_555
C2_22 C3_22 1_555 1_555
C6_22 C7_22 1_555 1_555
C26_22 H19_22 1_555 1_555
C27_22 C26_22 1_555 1_555
C31_22 C26_22 1_555 1_555
C32_22 C27_22 1_555 1_555
H22_22 C32_22 1_555 1_555
H23_22 C32_22 1_555 1_555
H24_22 C32_22 1_555 1_555
C27_22 C28_22 1_555 1_555
O10_22 C25_22 1_555 1_555
C30_22 C29_22 1_555 1_555
H21_22 C30_22 1_555 1_555
O11_12 C47_22 1_555 1_555
O12_12 C47_22 1_555 1_555
O13_22 U2_12 1_555 1_555
O14_22 U2_12 1_555 1_555
O16_22 U2_12 1_555 1_555
C33_22 O13_22 1_555 1_555
C34_22 H25_22 1_555 1_555
C35_22 C33_22 1_555 1_555
C36_22 C35_22 1_555 1_555
H26_22 C36_22 1_555 1_555
C37_22 C36_22 1_555 1_555
C38_22 C37_22 1_555 1_555
C39_22 C34_22 1_555 1_555
H27_22 C39_22 1_555 1_555
C40_22 C38_22 1_555 1_555
C41_22 C40_22 1_555 1_555
C42_22 C41_22 1_555 1_555
H28_22 C42_22 1_555 1_555
C43_22 C42_22 1_555 1_555
C44_22 C43_22 1_555 1_555
H29_22 C44_22 1_555 1_555
C45_22 C40_22 1_555 1_555
H30_22 C45_22 1_555 1_555
C46_22 C41_22 1_555 1_555
H31_22 C46_22 1_555 1_555
H32_22 C46_22 1_555 1_555
H33_22 C46_22 1_555 1_555
C47_22 C43_22 1_555 1_555
C48_22 C37_22 1_555 1_555
H34_22 C48_22 1_555 1_555
H35_22 C48_22 1_555 1_555
H36_22 C48_22 1_555 1_555
U4_12 O11_12 1_555 1_555
O10_22 U2_12 1_555 1_555
O12_12 U4_12 1_555 1_555
O14_22 C33_22 1_555 1_555
C34_22 C35_22 1_555 1_555
C38_22 C39_22 1_555 1_555
C44_22 C45_22 1_555 1_555
U3_11 O3_23 1_555 1_555
O17_12 C15_23 1_555 1_555
O19_12 C15_23 1_555 1_555
O3_23 C1_23 1_555 1_555
O4_23 U3_11 1_555 1_555
O5_23 U3_11 1_555 1_555
O6_23 U3_11 1_555 1_555
O7_23 U3_11 1_555 1_555
O8_23 U3_11 1_555 1_555
C1_23 O4_23 1_555 1_555
C2_23 H1_23 1_555 1_555
C3_23 C1_23 1_555 1_555
C4_23 C3_23 1_555 1_555
H2_23 C4_23 1_555 1_555
C5_23 C4_23 1_555 1_555
C6_23 C5_23 1_555 1_555
C7_23 C2_23 1_555 1_555
H3_23 C7_23 1_555 1_555
C8_23 C6_23 1_555 1_555
C9_23 C8_23 1_555 1_555
C10_23 C9_23 1_555 1_555
H4_23 C10_23 1_555 1_555
C11_23 C10_23 1_555 1_555
C12_23 C11_23 1_555 1_555
H5_23 C12_23 1_555 1_555
C13_23 C8_23 1_555 1_555
H6_23 C13_23 1_555 1_555
C14_23 C9_23 1_555 1_555
H7_23 C14_23 1_555 1_555
H8_23 C14_23 1_555 1_555
H9_23 C14_23 1_555 1_555
C15_23 C11_23 1_555 1_555
C16_23 O5_23 1_555 1_555
C17_23 H10_23 1_555 1_555
C18_23 C17_23 1_555 1_555
C19_23 C18_23 1_555 1_555
C20_23 C19_23 1_555 1_555
H11_23 C20_23 1_555 1_555
C21_23 C20_23 1_555 1_555
H12_23 C21_23 1_555 1_555
C22_23 C16_23 1_555 1_555
C23_23 C18_23 1_555 1_555
H13_23 C23_23 1_555 1_555
H14_23 C23_23 1_555 1_555
H15_23 C23_23 1_555 1_555
C24_23 C5_23 1_555 1_555
H16_23 C24_23 1_555 1_555
H17_23 C24_23 1_555 1_555
H18_23 C24_23 1_555 1_555
O9_23 C25_23 1_555 1_555
O10_23 C25_23 1_555 1_555
C25_23 C31_23 1_555 1_555
C26_23 H19_23 1_555 1_555
C27_23 C26_23 1_555 1_555
C28_23 C19_23 1_555 1_555
C29_23 C28_23 1_555 1_555
H20_23 C29_23 1_555 1_555
C30_23 C29_23 1_555 1_555
H21_23 C30_23 1_555 1_555
C31_23 C26_23 1_555 1_555
C32_23 C27_23 1_555 1_555
H22_23 C32_23 1_555 1_555
H23_23 C32_23 1_555 1_555
H24_23 C32_23 1_555 1_555
U4_11 O9_23 1_555 1_555
O18_12 C47_23 1_555 1_555
O20_12 C47_23 1_555 1_555
O13_23 U4_11 1_555 1_555
O14_23 U4_11 1_555 1_555
O15_23 U4_11 1_555 1_555
O16_23 U4_11 1_555 1_555
C33_23 O13_23 1_555 1_555
C34_23 H25_23 1_555 1_555
C35_23 C33_23 1_555 1_555
C36_23 C35_23 1_555 1_555
H26_23 C36_23 1_555 1_555
C37_23 C36_23 1_555 1_555
C38_23 C37_23 1_555 1_555
C39_23 C34_23 1_555 1_555
H27_23 C39_23 1_555 1_555
C40_23 C38_23 1_555 1_555
C41_23 C40_23 1_555 1_555
C42_23 C41_23 1_555 1_555
H28_23 C42_23 1_555 1_555
C43_23 C42_23 1_555 1_555
C44_23 C43_23 1_555 1_555
H29_23 C44_23 1_555 1_555
C45_23 C40_23 1_555 1_555
H30_23 C45_23 1_555 1_555
C46_23 C41_23 1_555 1_555
H31_23 C46_23 1_555 1_555
H32_23 C46_23 1_555 1_555
H33_23 C46_23 1_555 1_555
C47_23 C43_23 1_555 1_555
C48_23 C37_23 1_555 1_555
H34_23 C48_23 1_555 1_555
H35_23 C48_23 1_555 1_555
H36_23 C48_23 1_555 1_555
O6_23 C16_23 1_555 1_555
C2_23 C3_23 1_555 1_555
C6_23 C7_23 1_555 1_555
C12_23 C13_23 1_555 1_555
C17_23 C22_23 1_555 1_555
C21_23 C22_23 1_555 1_555
O10_23 U4_11 1_555 1_555
C27_23 C28_23 1_555 1_555
C30_23 C31_23 1_555 1_555
O14_23 C33_23 1_555 1_555
C34_23 C35_23 1_555 1_555
C38_23 C39_23 1_555 1_555
C44_23 C45_23 1_555 1_555
U3_12 O3_24 1_555 1_555
O17_11 C15_24 1_555 1_555
O19_11 C15_24 1_555 1_555
O3_24 C1_24 1_555 1_555
O4_24 U3_12 1_555 1_555
O5_24 U3_12 1_555 1_555
O6_24 U3_12 1_555 1_555
O7_24 U3_12 1_555 1_555
O8_24 U3_12 1_555 1_555
C1_24 O4_24 1_555 1_555
C2_24 H1_24 1_555 1_555
C3_24 C1_24 1_555 1_555
C4_24 C3_24 1_555 1_555
H2_24 C4_24 1_555 1_555
C5_24 C4_24 1_555 1_555
C6_24 C5_24 1_555 1_555
C7_24 C2_24 1_555 1_555
H3_24 C7_24 1_555 1_555
C8_24 C6_24 1_555 1_555
C9_24 C8_24 1_555 1_555
C10_24 C9_24 1_555 1_555
H4_24 C10_24 1_555 1_555
C11_24 C10_24 1_555 1_555
C12_24 C11_24 1_555 1_555
H5_24 C12_24 1_555 1_555
C13_24 C8_24 1_555 1_555
H6_24 C13_24 1_555 1_555
C14_24 C9_24 1_555 1_555
H7_24 C14_24 1_555 1_555
H8_24 C14_24 1_555 1_555
H9_24 C14_24 1_555 1_555
C15_24 C11_24 1_555 1_555
C16_24 O5_24 1_555 1_555
C17_24 H10_24 1_555 1_555
C18_24 C17_24 1_555 1_555
C19_24 C18_24 1_555 1_555
C20_24 C19_24 1_555 1_555
H11_24 C20_24 1_555 1_555
C21_24 C20_24 1_555 1_555
H12_24 C21_24 1_555 1_555
C22_24 C16_24 1_555 1_555
C24_24 C5_24 1_555 1_555
H16_24 C24_24 1_555 1_555
H17_24 C24_24 1_555 1_555
H18_24 C24_24 1_555 1_555
H22_24 C32_24 1_555 1_555
H23_24 C32_24 1_555 1_555
H24_24 C32_24 1_555 1_555
O6_24 C16_24 1_555 1_555
C2_24 C3_24 1_555 1_555
C6_24 C7_24 1_555 1_555
C12_24 C13_24 1_555 1_555
C17_24 C22_24 1_555 1_555
C21_24 C22_24 1_555 1_555
H13_24 C23_24 1_555 1_555
H14_24 C23_24 1_555 1_555
H15_24 C23_24 1_555 1_555
O9_24 C25_24 1_555 1_555
O10_24 C25_24 1_555 1_555
C25_24 C31_24 1_555 1_555
C26_24 H19_24 1_555 1_555
C27_24 C26_24 1_555 1_555
C29_24 C28_24 1_555 1_555
H20_24 C29_24 1_555 1_555
C30_24 C29_24 1_555 1_555
H21_24 C30_24 1_555 1_555
C31_24 C26_24 1_555 1_555
U4_12 O9_24 1_555 1_555
O18_11 C47_24 1_555 1_555
O20_11 C47_24 1_555 1_555
O13_24 U4_12 1_555 1_555
O14_24 U4_12 1_555 1_555
O15_24 U4_12 1_555 1_555
O16_24 U4_12 1_555 1_555
C33_24 O13_24 1_555 1_555
C34_24 H25_24 1_555 1_555
C35_24 C33_24 1_555 1_555
C36_24 C35_24 1_555 1_555
H26_24 C36_24 1_555 1_555
C37_24 C36_24 1_555 1_555
C38_24 C37_24 1_555 1_555
C39_24 C34_24 1_555 1_555
H27_24 C39_24 1_555 1_555
C40_24 C38_24 1_555 1_555
C41_24 C40_24 1_555 1_555
C42_24 C41_24 1_555 1_555
H28_24 C42_24 1_555 1_555
C43_24 C42_24 1_555 1_555
C44_24 C43_24 1_555 1_555
H29_24 C44_24 1_555 1_555
C45_24 C40_24 1_555 1_555
H30_24 C45_24 1_555 1_555
C46_24 C41_24 1_555 1_555
H31_24 C46_24 1_555 1_555
H32_24 C46_24 1_555 1_555
H33_24 C46_24 1_555 1_555
C47_24 C43_24 1_555 1_555
C48_24 C37_24 1_555 1_555
H34_24 C48_24 1_555 1_555
H35_24 C48_24 1_555 1_555
H36_24 C48_24 1_555 1_555
O10_24 U4_12 1_555 1_555
C27_24 C28_24 1_555 1_555
C30_24 C31_24 1_555 1_555
O14_24 C33_24 1_555 1_555
C34_24 C35_24 1_555 1_555
C38_24 C39_24 1_555 1_555
C44_24 C45_24 1_555 1_555

#END
