
###############################################################################
#
# This file contains modified crystal structure data generated from the
# MOF subset of the Cambridge Structural Database (CSD) v543 
# hosted by the Cambridge Crystallographic Data Centre (CCDC).
#
# This work is licensed under the Creative Commons
# Attribution-NonCommercial-ShareAlike 4.0 International License.
# To view a copy of this license, visit
# http://creativecommons.org/licenses/by-nc-sa/4.0/
# or send a letter to
# Creative Commons, PO Box 1866, Mountain View, CA 94042, USA.
#
# CIF created using the CSD Python API on 29 September 2022
# The structure has been converted into the P1 space group
# The structure has a 3D framework
# The original CSD entry KATDAM is in the hexagonal crystal system
# The original CSD entry KATDAM is in a Sohncke space group
# The framework has been calculated to contain at least 10.0% void space
# The void calculation uses a probe of radius 1.32A, grid spacing 0.4
#
###############################################################################

data_KATDAM
_chemical_formula_moiety         '(C162 H126 Cd6 N30 O30)n'
_symmetry_cell_setting           triclinic
_symmetry_space_group_name_H-M   'P 1'
_symmetry_Int_Tables_number      1
_space_group_name_Hall           'P 1'
loop_
_symmetry_equiv_pos_site_id
_symmetry_equiv_pos_as_xyz
1 x,y,z
_cell_length_a                   21.0747(7)
_cell_length_b                   21.0747(7)
_cell_length_c                   11.2029(5)
_cell_angle_alpha                90
_cell_angle_beta                 90
_cell_angle_gamma                120
_cell_volume                     4309.07
loop_
_atom_site_label
_atom_site_type_symbol
_atom_site_fract_x
_atom_site_fract_y
_atom_site_fract_z
Cd1 Cd 0.57100(2) 0.54737(2) 0.06081(4)
O1 O 0.4508(3) 0.4738(3) 0.0057(5)
O2 O 0.4722(2) 0.4553(2) 0.1896(4)
O3 O 0.3741(2) 0.4639(2) 0.3754(4)
O4 O 0.3833(2) 0.3656(2) 0.4095(4)
O5 O 0.1493(5) 0.2505(5) 0.7144(8)
N1 N 0.6380(3) 0.5080(3) 0.1540(4)
N2 N 0.7209(3) 0.4793(3) 0.2058(4)
N3 N 0.6743(3) 0.1161(3) 0.1889(4)
N4 N 0.6312(3) 0.0524(3) 0.0249(4)
N5 N 0.2157(3) 0.2938(3) 0.3663(6)
C1 C 0.4289(3) 0.4421(3) 0.1050(7)
C2 C 0.3634(3) 0.4019(3) 0.3471(5)
C3 C 0.3500(3) 0.3849(3) 0.1211(6)
C4 C 0.3204(3) 0.3669(3) 0.2366(6)
C5 C 0.2467(4) 0.3130(3) 0.2476(7)
C6 C 0.2048(4) 0.2787(4) 0.1498(8)
H1 H 0.1556 0.2435 0.1590
C7 C 0.2352(4) 0.2960(5) 0.0381(8)
C8 C 0.3061(4) 0.3497(4) 0.0237(6)
C9 C 0.2078(5) 0.2341(6) 0.4204(10)
H4 H 0.2181 0.2021 0.3786
C10 C 0.1845(6) 0.2187(7) 0.5383(13)
H5 H 0.1794 0.1763 0.5732
C11 C 0.1684(5) 0.2648(8) 0.6068(11)
C12 C 0.1758(6) 0.3253(6) 0.5419(10)
H6 H 0.1635 0.3573 0.5788
C13 C 0.1995(5) 0.3383(5) 0.4307(9)
H7 H 0.2055 0.3806 0.3943
C14 C 0.6381(4) 0.5012(4) 0.2769(6)
H8 H 0.6077 0.5077 0.3295
C15 C 0.6889(4) 0.4838(4) 0.3084(6)
H9 H 0.7001 0.4763 0.3855
C16 C 0.6895(3) 0.4948(3) 0.1179(5)
H10 H 0.7025 0.4963 0.0382
C17 C 0.7762(3) 0.4567(3) 0.1979(6)
H11 H 0.8168 0.4875 0.2501
H12 H 0.7948 0.4643 0.1168
C18 C 0.7476(3) 0.3789(3) 0.2309(6)
C19 C 0.7942(3) 0.3588(3) 0.2883(5)
H13 H 0.8412 0.3947 0.3101
C20 C 0.7707(3) 0.2856(3) 0.3128(5)
H14 H 0.8025 0.2731 0.3496
C21 C 0.7007(3) 0.2312(3) 0.2831(5)
C22 C 0.6540(3) 0.2526(3) 0.2296(6)
H15 H 0.6063 0.2169 0.2108
C23 C 0.6765(3) 0.3238(3) 0.2047(5)
H16 H 0.6440 0.3359 0.1696
C24 C 0.6758(4) 0.1519(3) 0.3007(6)
H17 H 0.7085 0.1472 0.3562
H18 H 0.6271 0.1277 0.3354
C25 C 0.7321(4) 0.1208(4) 0.1286(7)
H19 H 0.7810 0.1467 0.1518
C26 C 0.7057(4) 0.0811(4) 0.0296(6)
C27 C 0.6148(3) 0.0746(3) 0.1243(5)
H21 H 0.5676 0.0626 0.1463
Cd2 Cd 0.42900(2) 0.45263(2) 0.56081(4)
N6 N 0.5788(4) 0.6312(3) 0.1916(4)
H2 H 0.2073 0.2710 0.9719
H3 H 0.3254 0.3629 0.9471
H20 H 0.7335 0.0740 0.9724
O6 O 0.6259(2) 0.5361(2) 0.8754(4)
O7 O 0.6167(2) 0.6344(2) 0.9095(4)
Cd3 Cd 0.54737(2) 0.97637(3) 0.89414(4)
Cd1_2 Cd 0.02363(3) 0.57100(2) 0.22748(4)
O2_2 O 0.0169(3) 0.4722(2) 0.3563(4)
O4_2 O 0.0177(3) 0.3833(2) 0.5762(4)
N1_2 N 0.1300(4) 0.6380(3) 0.3207(4)
N2_2 N 0.2416(4) 0.7209(3) 0.3725(4)
N3_2 N 0.5582(4) 0.6743(3) 0.3556(4)
H4_2 H 0.0160 0.2181 0.5453
H5_2 H 0.0031 0.1794 0.7399
C14_2 C 0.1369(6) 0.6381(4) 0.4436(6)
H8_2 H 0.1000 0.6077 0.4962
C15_2 C 0.2051(6) 0.6889(4) 0.4751(6)
H9_2 H 0.2238 0.7001 0.5522
C16_2 C 0.1947(4) 0.6895(3) 0.2846(5)
H10_2 H 0.2062 0.7025 0.2049
C17_2 C 0.3195(4) 0.7762(3) 0.3646(6)
H11_2 H 0.3293 0.8168 0.4168
H12_2 H 0.3305 0.7948 0.2835
C18_2 C 0.3687(4) 0.7476(3) 0.3976(6)
C19_2 C 0.4354(4) 0.7942(3) 0.4550(5)
H13_2 H 0.4465 0.8412 0.4768
C20_2 C 0.4851(4) 0.7707(3) 0.4795(5)
H14_2 H 0.5294 0.8025 0.5163
C21_2 C 0.4695(4) 0.7007(3) 0.4498(5)
C22_2 C 0.4014(4) 0.6540(3) 0.3963(6)
H15_2 H 0.3894 0.6063 0.3775
C23_2 C 0.3527(4) 0.6765(3) 0.3714(5)
H16_2 H 0.3081 0.6440 0.3363
C24_2 C 0.5239(5) 0.6758(4) 0.4674(6)
H17_2 H 0.5613 0.7085 0.5229
H18_2 H 0.4994 0.6271 0.5021
C25_2 C 0.6113(6) 0.7321(4) 0.2953(7)
H19_2 H 0.6343 0.7810 0.3185
C26_2 C 0.6246(6) 0.7057(4) 0.1963(6)
H20_2 H 0.6595 0.7335 0.1391
C27_2 C 0.5402(4) 0.6148(3) 0.2910(5)
H21_2 H 0.5050 0.5676 0.3130
O6_2 O 0.0898(3) 0.6259(2) 0.0421(4)
O1_2 O 0.9770(4) 0.4508(3) 0.1724(5)
O3_2 O 0.9102(3) 0.3741(2) 0.5421(4)
O5_2 O 0.8988(7) 0.1493(5) 0.8811(8)
N5_2 N 0.9219(4) 0.2157(3) 0.5330(6)
C1_2 C 0.9868(4) 0.4289(3) 0.2717(7)
C2_2 C 0.9615(4) 0.3634(3) 0.5138(5)
C3_2 C 0.9651(4) 0.3500(3) 0.2878(6)
C4_2 C 0.9535(4) 0.3204(3) 0.4033(6)
C5_2 C 0.9337(5) 0.2467(4) 0.4143(7)
C6_2 C 0.9261(6) 0.2048(4) 0.3165(8)
H1_2 H 0.9121 0.1556 0.3257
C7_2 C 0.9392(6) 0.2352(4) 0.2048(8)
H2_2 H 0.9363 0.2073 0.1386
C8_2 C 0.9564(6) 0.3061(4) 0.1904(6)
H3_2 H 0.9625 0.3254 0.1138
C9_2 C 0.9737(8) 0.2078(5) 0.5871(10)
C10_2 C 0.9658(9) 0.1845(6) 0.7050(13)
C11_2 C 0.9036(9) 0.1684(5) 0.7735(11)
C12_2 C 0.8505(8) 0.1758(6) 0.7086(10)
H6_2 H 0.8062 0.1635 0.7455
C13_2 C 0.8612(7) 0.1995(5) 0.5974(9)
H7_2 H 0.8249 0.2055 0.5610
Cd2_2 Cd 0.97637(3) 0.42900(2) 0.72748(4)
O7_2 O 0.9823(3) 0.6167(2) 0.0762(4)
N6_2 N 0.9476(5) 0.5788(4) 0.3582(4)
Cd1_3 Cd 0.45263(2) 0.02363(3) 0.39414(4)
O2_3 O 0.5447(2) 0.0169(3) 0.5229(4)
O4_3 O 0.6344(2) 0.0177(3) 0.7428(4)
N1_3 N 0.4920(3) 0.1300(4) 0.4873(4)
N2_3 N 0.5207(3) 0.2416(4) 0.5391(4)
N3_3 N 0.8839(3) 0.5582(4) 0.5222(4)
H4_3 H 0.7979 0.0160 0.7119
H5_3 H 0.8237 0.0031 0.9065
C14_3 C 0.4988(4) 0.1369(6) 0.6102(6)
H8_3 H 0.4923 0.1000 0.6628
C15_3 C 0.5162(4) 0.2051(6) 0.6417(6)
H9_3 H 0.5237 0.2238 0.7188
C16_3 C 0.5052(3) 0.1947(4) 0.4512(5)
H10_3 H 0.5037 0.2062 0.3715
C17_3 C 0.5433(3) 0.3195(4) 0.5312(6)
H11_3 H 0.5125 0.3293 0.5834
H12_3 H 0.5357 0.3305 0.4501
C18_3 C 0.6211(3) 0.3687(4) 0.5642(6)
C19_3 C 0.6412(3) 0.4354(4) 0.6216(5)
H13_3 H 0.6053 0.4465 0.6434
C20_3 C 0.7144(3) 0.4851(4) 0.6461(5)
H14_3 H 0.7269 0.5294 0.6829
C21_3 C 0.7688(3) 0.4695(4) 0.6164(5)
C22_3 C 0.7474(3) 0.4014(4) 0.5629(6)
H15_3 H 0.7831 0.3894 0.5441
C23_3 C 0.6762(3) 0.3527(4) 0.5380(5)
H16_3 H 0.6641 0.3081 0.5029
C24_3 C 0.8481(3) 0.5239(5) 0.6340(6)
H17_3 H 0.8528 0.5613 0.6895
H18_3 H 0.8723 0.4994 0.6687
C25_3 C 0.8792(4) 0.6113(6) 0.4619(7)
H19_3 H 0.8533 0.6343 0.4851
C26_3 C 0.9189(4) 0.6246(6) 0.3629(6)
H20_3 H 0.9260 0.6595 0.3057
C27_3 C 0.9254(3) 0.5402(4) 0.4576(5)
H21_3 H 0.9374 0.5050 0.4796
O6_3 O 0.4639(2) 0.0898(3) 0.2087(4)
O1_3 O 0.5262(3) 0.9770(4) 0.3390(5)
O3_3 O 0.5361(2) 0.9102(3) 0.7087(4)
N5_3 N 0.7062(3) 0.9219(4) 0.6996(6)
C1_3 C 0.5579(3) 0.9868(4) 0.4383(7)
C2_3 C 0.5981(3) 0.9615(4) 0.6804(5)
C3_3 C 0.6151(3) 0.9651(4) 0.4544(6)
C4_3 C 0.6331(3) 0.9535(4) 0.5699(6)
C5_3 C 0.6870(3) 0.9337(5) 0.5809(7)
C6_3 C 0.7213(4) 0.9261(6) 0.4831(8)
H1_3 H 0.7565 0.9121 0.4923
C7_3 C 0.7040(5) 0.9392(6) 0.3714(8)
H2_3 H 0.7290 0.9363 0.3052
C8_3 C 0.6503(4) 0.9564(6) 0.3570(6)
H3_3 H 0.6371 0.9625 0.2804
C9_3 C 0.7659(6) 0.9737(8) 0.7537(10)
C10_3 C 0.7813(7) 0.9658(9) 0.8716(13)
C11_3 C 0.7352(8) 0.9036(9) 0.9401(11)
C12_3 C 0.6747(6) 0.8505(8) 0.8752(10)
H6_3 H 0.6427 0.8062 0.9121
C13_3 C 0.6617(5) 0.8612(7) 0.7640(9)
H7_3 H 0.6194 0.8249 0.7276
O7_3 O 0.3656(2) 0.9823(3) 0.2428(4)
N6_3 N 0.3688(3) 0.9476(5) 0.5249(4)
O5_3 O 0.8507(5) 0.7495(5) 0.2144(8)
C10_4 C 0.8155(6) 0.7813(7) 0.0383(13)
H5_4 H 0.8206 0.8237 0.0732
C11_4 C 0.8316(5) 0.7352(8) 0.1068(11)
C12_4 C 0.8242(6) 0.6747(6) 0.0419(10)
H6_4 H 0.8365 0.6427 0.0788
O1_4 O 0.5492(3) 0.5262(3) 0.5057(5)
O2_4 O 0.5278(2) 0.5447(2) 0.6896(4)
N1_4 N 0.3620(3) 0.4920(3) 0.6540(4)
N2_4 N 0.2791(3) 0.5207(3) 0.7058(4)
N3_4 N 0.3257(3) 0.8839(3) 0.6889(4)
N5_4 N 0.7843(3) 0.7062(3) 0.8663(6)
C1_4 C 0.5711(3) 0.5579(3) 0.6050(7)
C2_4 C 0.6366(3) 0.5981(3) 0.8471(5)
C3_4 C 0.6500(3) 0.6151(3) 0.6211(6)
C4_4 C 0.6796(3) 0.6331(3) 0.7366(6)
C5_4 C 0.7533(4) 0.6870(3) 0.7476(7)
C6_4 C 0.7952(4) 0.7213(4) 0.6498(8)
H1_4 H 0.8444 0.7565 0.6590
C7_4 C 0.7648(4) 0.7040(5) 0.5381(8)
H2_4 H 0.7927 0.7290 0.4719
C8_4 C 0.6939(4) 0.6503(4) 0.5237(6)
H3_4 H 0.6746 0.6371 0.4471
C9_4 C 0.7922(5) 0.7659(6) 0.9204(10)
H4_4 H 0.7819 0.7979 0.8786
C13_4 C 0.8005(5) 0.6617(5) 0.9307(9)
H7_4 H 0.7945 0.6194 0.8943
C14_4 C 0.3619(4) 0.4988(4) 0.7769(6)
H8_4 H 0.3923 0.4923 0.8295
C15_4 C 0.3111(4) 0.5162(4) 0.8084(6)
H9_4 H 0.2999 0.5237 0.8855
C16_4 C 0.3105(3) 0.5052(3) 0.6179(5)
H10_4 H 0.2975 0.5037 0.5382
C17_4 C 0.2238(3) 0.5433(3) 0.6979(6)
H11_4 H 0.1832 0.5125 0.7501
H12_4 H 0.2052 0.5357 0.6168
C18_4 C 0.2524(3) 0.6211(3) 0.7309(6)
C19_4 C 0.2058(3) 0.6412(3) 0.7883(5)
H13_4 H 0.1588 0.6053 0.8101
C20_4 C 0.2293(3) 0.7144(3) 0.8128(5)
H14_4 H 0.1975 0.7269 0.8496
C21_4 C 0.2993(3) 0.7688(3) 0.7831(5)
C22_4 C 0.3460(3) 0.7474(3) 0.7296(6)
H15_4 H 0.3937 0.7831 0.7108
C23_4 C 0.3235(3) 0.6762(3) 0.7047(5)
H16_4 H 0.3560 0.6641 0.6696
C24_4 C 0.3242(4) 0.8481(3) 0.8007(6)
H17_4 H 0.2915 0.8528 0.8562
H18_4 H 0.3729 0.8723 0.8354
C25_4 C 0.2679(4) 0.8792(4) 0.6286(7)
H19_4 H 0.2190 0.8533 0.6518
C26_4 C 0.2943(4) 0.9189(4) 0.5296(6)
H20_4 H 0.2665 0.9260 0.4724
C27_4 C 0.3852(3) 0.9254(3) 0.6243(5)
H21_4 H 0.4324 0.9374 0.6463
N6_4 N 0.4212(4) 0.3688(3) 0.6916(4)
O5_4 O 0.1012(7) 0.8507(5) 0.3811(8)
N5_5 N 0.0781(4) 0.7843(3) 0.0330(6)
C2_5 C 0.0385(4) 0.6366(3) 0.0138(5)
C9_5 C 0.0263(8) 0.7922(5) 0.0871(10)
C10_5 C 0.0342(9) 0.8155(6) 0.2050(13)
C11_5 C 0.0964(9) 0.8316(5) 0.2735(11)
C12_5 C 0.1495(8) 0.8242(6) 0.2086(10)
H6_5 H 0.1938 0.8365 0.2455
C13_5 C 0.1388(7) 0.8005(5) 0.0974(9)
H7_5 H 0.1751 0.7945 0.0610
O1_5 O 0.0230(4) 0.5492(3) 0.6724(5)
C1_5 C 0.0132(4) 0.5711(3) 0.7717(7)
C3_5 C 0.0349(4) 0.6500(3) 0.7878(6)
C4_5 C 0.0465(4) 0.6796(3) 0.9033(6)
C5_5 C 0.0663(5) 0.7533(4) 0.9143(7)
C6_5 C 0.0739(6) 0.7952(4) 0.8165(8)
H1_5 H 0.0879 0.8444 0.8257
C7_5 C 0.0608(6) 0.7648(4) 0.7048(8)
H2_5 H 0.0637 0.7927 0.6386
C8_5 C 0.0436(6) 0.6939(4) 0.6904(6)
H3_5 H 0.0375 0.6746 0.6138
N6_5 N 0.0524(5) 0.4212(4) 0.8582(4)
H4_5 H 0.9840 0.7819 0.0453
H5_5 H 0.9969 0.8206 0.2399
H9_5 H 0.7762 0.2999 0.0522
H14_5 H 0.4706 0.1975 0.0163
H17_5 H 0.4387 0.2915 0.0229
H18_5 H 0.5006 0.3729 0.0021
O2_5 O 0.9831(3) 0.5278(2) 0.8563(4)
N1_5 N 0.8700(4) 0.3620(3) 0.8207(4)
N2_5 N 0.7584(4) 0.2791(3) 0.8725(4)
N3_5 N 0.4418(4) 0.3257(3) 0.8556(4)
C14_5 C 0.8631(6) 0.3619(4) 0.9436(6)
H8_5 H 0.9000 0.3923 0.9962
C15_5 C 0.7949(6) 0.3111(4) 0.9751(6)
C16_5 C 0.8053(4) 0.3105(3) 0.7846(5)
H10_5 H 0.7938 0.2975 0.7049
C17_5 C 0.6805(4) 0.2238(3) 0.8646(6)
H11_5 H 0.6707 0.1832 0.9168
H12_5 H 0.6695 0.2052 0.7835
C18_5 C 0.6313(4) 0.2524(3) 0.8976(6)
C19_5 C 0.5646(4) 0.2058(3) 0.9550(5)
H13_5 H 0.5535 0.1588 0.9768
C20_5 C 0.5149(4) 0.2293(3) 0.9795(5)
C21_5 C 0.5305(4) 0.2993(3) 0.9498(5)
C22_5 C 0.5986(4) 0.3460(3) 0.8963(6)
H15_5 H 0.6106 0.3937 0.8775
C23_5 C 0.6473(4) 0.3235(3) 0.8714(5)
H16_5 H 0.6919 0.3560 0.8363
C24_5 C 0.4761(5) 0.3242(4) 0.9674(6)
C25_5 C 0.3887(6) 0.2679(4) 0.7953(7)
H19_5 H 0.3657 0.2190 0.8185
C26_5 C 0.3754(6) 0.2943(4) 0.6963(6)
H20_5 H 0.3405 0.2665 0.6391
C27_5 C 0.4598(4) 0.3852(3) 0.7910(5)
H21_5 H 0.4950 0.4324 0.8130
O5_5 O 0.2505(5) 0.1012(7) 0.5477(8)
N5_6 N 0.2938(3) 0.0781(4) 0.1996(6)
C2_6 C 0.4019(3) 0.0385(4) 0.1804(5)
C4_6 C 0.3669(3) 0.0465(4) 0.0699(6)
C5_6 C 0.3130(3) 0.0663(5) 0.0809(7)
C9_6 C 0.2341(6) 0.0263(8) 0.2537(10)
C10_6 C 0.2187(7) 0.0342(9) 0.3716(13)
C11_6 C 0.2648(8) 0.0964(9) 0.4401(11)
C12_6 C 0.3253(6) 0.1495(8) 0.3752(10)
H6_6 H 0.3573 0.1938 0.4121
C13_6 C 0.3383(5) 0.1388(7) 0.2640(9)
H7_6 H 0.3806 0.1751 0.2276
O1_6 O 0.4738(3) 0.0230(4) 0.8390(5)
C1_6 C 0.4421(3) 0.0132(4) 0.9383(7)
C3_6 C 0.3849(3) 0.0349(4) 0.9544(6)
C6_6 C 0.2787(4) 0.0739(6) 0.9831(8)
H1_6 H 0.2435 0.0879 0.9923
C7_6 C 0.2960(5) 0.0608(6) 0.8714(8)
H2_6 H 0.2710 0.0637 0.8052
C8_6 C 0.3497(4) 0.0436(6) 0.8570(6)
H3_6 H 0.3629 0.0375 0.7804
O2_6 O 0.4553(2) 0.9831(3) 0.0229(4)
N2_6 N 0.4793(3) 0.7584(4) 0.0391(4)
N3_6 N 0.1161(3) 0.4418(4) 0.0222(4)
H4_6 H 0.2021 0.9840 0.2119
H5_6 H 0.1763 0.9969 0.4065
C14_6 C 0.5012(4) 0.8631(6) 0.1102(6)
H8_6 H 0.5077 0.9000 0.1628
C15_6 C 0.4838(4) 0.7949(6) 0.1417(6)
H9_6 H 0.4763 0.7762 0.2188
C17_6 C 0.4567(3) 0.6805(4) 0.0312(6)
H11_6 H 0.4875 0.6707 0.0834
C18_6 C 0.3789(3) 0.6313(4) 0.0642(6)
C19_6 C 0.3588(3) 0.5646(4) 0.1216(5)
H13_6 H 0.3947 0.5535 0.1434
C20_6 C 0.2856(3) 0.5149(4) 0.1461(5)
H14_6 H 0.2731 0.4706 0.1829
C21_6 C 0.2312(3) 0.5305(4) 0.1164(5)
C22_6 C 0.2526(3) 0.5986(4) 0.0629(6)
H15_6 H 0.2169 0.6106 0.0441
C23_6 C 0.3238(3) 0.6473(4) 0.0380(5)
H16_6 H 0.3359 0.6919 0.0029
C24_6 C 0.1519(3) 0.4761(5) 0.1340(6)
H17_6 H 0.1472 0.4387 0.1895
H18_6 H 0.1277 0.5006 0.1687
N1_6 N 0.5080(3) 0.8700(4) 0.9873(4)
C16_6 C 0.4948(3) 0.8053(4) 0.9512(5)
H10_6 H 0.4963 0.7938 0.8715
H12_6 H 0.4643 0.6695 0.9501
C25_6 C 0.1208(4) 0.3887(6) 0.9619(7)
H19_6 H 0.1467 0.3657 0.9851
C26_6 C 0.0811(4) 0.3754(6) 0.8629(6)
H20_6 H 0.0740 0.3405 0.8057
C27_6 C 0.0746(3) 0.4598(4) 0.9576(5)
H21_6 H 0.0626 0.4950 0.9796
O5_6 O 0.7495(5) 0.8988(7) 0.0477(8)
loop_
_geom_bond_atom_site_label_1
_geom_bond_atom_site_label_2
_geom_bond_site_symmetry_1
_geom_bond_site_symmetry_2
Cd1 O1 1_555 1_555
O1 C1 1_555 1_555
O2 Cd1 1_555 1_555
O3 C2 1_555 1_555
O4 C2 1_555 1_555
O5 C11 1_555 1_555
N1 Cd1 1_555 1_555
N2 C15 1_555 1_555
N3 C24 1_555 1_555
N4 C26 1_555 1_555
N5 C5 1_555 1_555
C1 O2 1_555 1_555
C2 C4 1_555 1_555
C3 C1 1_555 1_555
C4 C3 1_555 1_555
C5 C4 1_555 1_555
C6 C5 1_555 1_555
H1 C6 1_555 1_555
C7 C6 1_555 1_555
C8 C3 1_555 1_555
C9 N5 1_555 1_555
H4 C9 1_555 1_555
C10 C9 1_555 1_555
H5 C10 1_555 1_555
C11 C10 1_555 1_555
C12 C11 1_555 1_555
H6 C12 1_555 1_555
C13 N5 1_555 1_555
H7 C13 1_555 1_555
C14 N1 1_555 1_555
H8 C14 1_555 1_555
C15 C14 1_555 1_555
H9 C15 1_555 1_555
C16 N1 1_555 1_555
H10 C16 1_555 1_555
C17 N2 1_555 1_555
H11 C17 1_555 1_555
H12 C17 1_555 1_555
C18 C17 1_555 1_555
C19 C18 1_555 1_555
H13 C19 1_555 1_555
C20 C19 1_555 1_555
H14 C20 1_555 1_555
C21 C20 1_555 1_555
C22 C21 1_555 1_555
H15 C22 1_555 1_555
C23 C18 1_555 1_555
H16 C23 1_555 1_555
C24 C21 1_555 1_555
H17 C24 1_555 1_555
H18 C24 1_555 1_555
C25 N3 1_555 1_555
H19 C25 1_555 1_555
C26 C25 1_555 1_555
C27 N3 1_555 1_555
H21 C27 1_555 1_555
Cd2 O3 1_555 1_555
N6 Cd1 1_555 1_555
O4 Cd2 1_555 1_555
N2 C16 1_555 1_555
N4 C27 1_555 1_555
C7 C8 1_555 1_555
C12 C13 1_555 1_555
C22 C23 1_555 1_555
O2_2 Cd1_2 1_555 1_555
N1_2 Cd1_2 1_555 1_555
N2_2 C15_2 1_555 1_555
N3_2 C24_2 1_555 1_555
N6 C26_2 1_555 1_555
C14_2 N1_2 1_555 1_555
H8_2 C14_2 1_555 1_555
C15_2 C14_2 1_555 1_555
H9_2 C15_2 1_555 1_555
C16_2 N1_2 1_555 1_555
H10_2 C16_2 1_555 1_555
C17_2 N2_2 1_555 1_555
H11_2 C17_2 1_555 1_555
H12_2 C17_2 1_555 1_555
C18_2 C17_2 1_555 1_555
C19_2 C18_2 1_555 1_555
H13_2 C19_2 1_555 1_555
C20_2 C19_2 1_555 1_555
H14_2 C20_2 1_555 1_555
C21_2 C20_2 1_555 1_555
C22_2 C21_2 1_555 1_555
H15_2 C22_2 1_555 1_555
C23_2 C18_2 1_555 1_555
H16_2 C23_2 1_555 1_555
C24_2 C21_2 1_555 1_555
H17_2 C24_2 1_555 1_555
H18_2 C24_2 1_555 1_555
C25_2 N3_2 1_555 1_555
H19_2 C25_2 1_555 1_555
C26_2 C25_2 1_555 1_555
H20_2 C26_2 1_555 1_555
C27_2 N3_2 1_555 1_555
H21_2 C27_2 1_555 1_555
O6_2 Cd1_2 1_555 1_555
N2_2 C16_2 1_555 1_555
N6 C27_2 1_555 1_555
C22_2 C23_2 1_555 1_555
O1_2 C1_2 1_555 1_555
O3_2 C2_2 1_555 1_555
O5_2 C11_2 1_555 1_555
N5_2 C5_2 1_555 1_555
C2_2 C4_2 1_555 1_555
C3_2 C1_2 1_555 1_555
C4_2 C3_2 1_555 1_555
C5_2 C4_2 1_555 1_555
C6_2 C5_2 1_555 1_555
H1_2 C6_2 1_555 1_555
C7_2 C6_2 1_555 1_555
H2_2 C7_2 1_555 1_555
C8_2 C3_2 1_555 1_555
H3_2 C8_2 1_555 1_555
C9_2 N5_2 1_555 1_555
C10_2 C9_2 1_555 1_555
C11_2 C10_2 1_555 1_555
C12_2 C11_2 1_555 1_555
H6_2 C12_2 1_555 1_555
C13_2 N5_2 1_555 1_555
H7_2 C13_2 1_555 1_555
Cd2_2 O3_2 1_555 1_555
C7_2 C8_2 1_555 1_555
C12_2 C13_2 1_555 1_555
O2_3 Cd1_3 1_555 1_555
N1_3 Cd1_3 1_555 1_555
N2_3 C15_3 1_555 1_555
N3_3 C24_3 1_555 1_555
N6_2 C26_3 1_555 1_555
C14_3 N1_3 1_555 1_555
H8_3 C14_3 1_555 1_555
C15_3 C14_3 1_555 1_555
H9_3 C15_3 1_555 1_555
C16_3 N1_3 1_555 1_555
H10_3 C16_3 1_555 1_555
C17_3 N2_3 1_555 1_555
H11_3 C17_3 1_555 1_555
H12_3 C17_3 1_555 1_555
C18_3 C17_3 1_555 1_555
C19_3 C18_3 1_555 1_555
H13_3 C19_3 1_555 1_555
C20_3 C19_3 1_555 1_555
H14_3 C20_3 1_555 1_555
C21_3 C20_3 1_555 1_555
C22_3 C21_3 1_555 1_555
H15_3 C22_3 1_555 1_555
C23_3 C18_3 1_555 1_555
H16_3 C23_3 1_555 1_555
C24_3 C21_3 1_555 1_555
H17_3 C24_3 1_555 1_555
H18_3 C24_3 1_555 1_555
C25_3 N3_3 1_555 1_555
H19_3 C25_3 1_555 1_555
C26_3 C25_3 1_555 1_555
H20_3 C26_3 1_555 1_555
C27_3 N3_3 1_555 1_555
H21_3 C27_3 1_555 1_555
O6_3 Cd1_3 1_555 1_555
N2_3 C16_3 1_555 1_555
N6_2 C27_3 1_555 1_555
C22_3 C23_3 1_555 1_555
O1_3 C1_3 1_555 1_555
O3_3 C2_3 1_555 1_555
N5_3 C5_3 1_555 1_555
C2_3 C4_3 1_555 1_555
C3_3 C1_3 1_555 1_555
C4_3 C3_3 1_555 1_555
C5_3 C4_3 1_555 1_555
C6_3 C5_3 1_555 1_555
H1_3 C6_3 1_555 1_555
C7_3 C6_3 1_555 1_555
H2_3 C7_3 1_555 1_555
C8_3 C3_3 1_555 1_555
H3_3 C8_3 1_555 1_555
C9_3 N5_3 1_555 1_555
C10_3 C9_3 1_555 1_555
C11_3 C10_3 1_555 1_555
C12_3 C11_3 1_555 1_555
H6_3 C12_3 1_555 1_555
C13_3 N5_3 1_555 1_555
H7_3 C13_3 1_555 1_555
Cd3 O3_3 1_555 1_555
C7_3 C8_3 1_555 1_555
C12_3 C13_3 1_555 1_555
O5_3 C11_4 1_555 1_555
H5_4 C10_4 1_555 1_555
C11_4 C10_4 1_555 1_555
C12_4 C11_4 1_555 1_555
H6_4 C12_4 1_555 1_555
Cd2 O1_4 1_555 1_555
O1_4 C1_4 1_555 1_555
O2_4 Cd2 1_555 1_555
O6 C2_4 1_555 1_555
O7 C2_4 1_555 1_555
N1_4 Cd2 1_555 1_555
N2_4 C15_4 1_555 1_555
N3_4 C24_4 1_555 1_555
N6_3 C26_4 1_555 1_555
N5_4 C5_4 1_555 1_555
C1_4 O2_4 1_555 1_555
C2_4 C4_4 1_555 1_555
C3_4 C1_4 1_555 1_555
C4_4 C3_4 1_555 1_555
C5_4 C4_4 1_555 1_555
C6_4 C5_4 1_555 1_555
H1_4 C6_4 1_555 1_555
C7_4 C6_4 1_555 1_555
H2_4 C7_4 1_555 1_555
C8_4 C3_4 1_555 1_555
H3_4 C8_4 1_555 1_555
C9_4 N5_4 1_555 1_555
H4_4 C9_4 1_555 1_555
C13_4 N5_4 1_555 1_555
H7_4 C13_4 1_555 1_555
C14_4 N1_4 1_555 1_555
H8_4 C14_4 1_555 1_555
C15_4 C14_4 1_555 1_555
H9_4 C15_4 1_555 1_555
C16_4 N1_4 1_555 1_555
H10_4 C16_4 1_555 1_555
C17_4 N2_4 1_555 1_555
H11_4 C17_4 1_555 1_555
H12_4 C17_4 1_555 1_555
C18_4 C17_4 1_555 1_555
C19_4 C18_4 1_555 1_555
H13_4 C19_4 1_555 1_555
C20_4 C19_4 1_555 1_555
H14_4 C20_4 1_555 1_555
C21_4 C20_4 1_555 1_555
C22_4 C21_4 1_555 1_555
H15_4 C22_4 1_555 1_555
C23_4 C18_4 1_555 1_555
H16_4 C23_4 1_555 1_555
C24_4 C21_4 1_555 1_555
H17_4 C24_4 1_555 1_555
H18_4 C24_4 1_555 1_555
C25_4 N3_4 1_555 1_555
H19_4 C25_4 1_555 1_555
C26_4 C25_4 1_555 1_555
H20_4 C26_4 1_555 1_555
C27_4 N3_4 1_555 1_555
H21_4 C27_4 1_555 1_555
N6_4 Cd2 1_555 1_555
N2_4 C16_4 1_555 1_555
N6_3 C27_4 1_555 1_555
C7_4 C8_4 1_555 1_555
C22_4 C23_4 1_555 1_555
O6_2 C2_5 1_555 1_555
O5_4 C11_5 1_555 1_555
C9_5 N5_5 1_555 1_555
C10_5 C9_5 1_555 1_555
C11_5 C10_5 1_555 1_555
C12_5 C11_5 1_555 1_555
H6_5 C12_5 1_555 1_555
C13_5 N5_5 1_555 1_555
H7_5 C13_5 1_555 1_555
C12_5 C13_5 1_555 1_555
O1_5 C1_5 1_555 1_555
C3_5 C1_5 1_555 1_555
C4_5 C3_5 1_555 1_555
C5_5 C4_5 1_555 1_555
C6_5 C5_5 1_555 1_555
H1_5 C6_5 1_555 1_555
C7_5 C6_5 1_555 1_555
H2_5 C7_5 1_555 1_555
C8_5 C3_5 1_555 1_555
H3_5 C8_5 1_555 1_555
C7_5 C8_5 1_555 1_555
O2_5 Cd2_2 1_555 1_555
N1_5 Cd2_2 1_555 1_555
N2_5 C15_5 1_555 1_555
N3_5 C24_5 1_555 1_555
N6_4 C26_5 1_555 1_555
C14_5 N1_5 1_555 1_555
H8_5 C14_5 1_555 1_555
C15_5 C14_5 1_555 1_555
C16_5 N1_5 1_555 1_555
H10_5 C16_5 1_555 1_555
C17_5 N2_5 1_555 1_555
H11_5 C17_5 1_555 1_555
H12_5 C17_5 1_555 1_555
C18_5 C17_5 1_555 1_555
C19_5 C18_5 1_555 1_555
H13_5 C19_5 1_555 1_555
C20_5 C19_5 1_555 1_555
C21_5 C20_5 1_555 1_555
C22_5 C21_5 1_555 1_555
H15_5 C22_5 1_555 1_555
C23_5 C18_5 1_555 1_555
H16_5 C23_5 1_555 1_555
C24_5 C21_5 1_555 1_555
C25_5 N3_5 1_555 1_555
H19_5 C25_5 1_555 1_555
C26_5 C25_5 1_555 1_555
H20_5 C26_5 1_555 1_555
C27_5 N3_5 1_555 1_555
H21_5 C27_5 1_555 1_555
N2_5 C16_5 1_555 1_555
N6_4 C27_5 1_555 1_555
C22_5 C23_5 1_555 1_555
O6_3 C2_6 1_555 1_555
O5_5 C11_6 1_555 1_555
N5_6 C5_6 1_555 1_555
C2_6 C4_6 1_555 1_555
C5_6 C4_6 1_555 1_555
C9_6 N5_6 1_555 1_555
C10_6 C9_6 1_555 1_555
C11_6 C10_6 1_555 1_555
C12_6 C11_6 1_555 1_555
H6_6 C12_6 1_555 1_555
C13_6 N5_6 1_555 1_555
H7_6 C13_6 1_555 1_555
C12_6 C13_6 1_555 1_555
O1_6 C1_6 1_555 1_555
C3_6 C1_6 1_555 1_555
H1_6 C6_6 1_555 1_555
C7_6 C6_6 1_555 1_555
H2_6 C7_6 1_555 1_555
C8_6 C3_6 1_555 1_555
H3_6 C8_6 1_555 1_555
C7_6 C8_6 1_555 1_555
N2_6 C15_6 1_555 1_555
N3_6 C24_6 1_555 1_555
H8_6 C14_6 1_555 1_555
C15_6 C14_6 1_555 1_555
H9_6 C15_6 1_555 1_555
C17_6 N2_6 1_555 1_555
H11_6 C17_6 1_555 1_555
C18_6 C17_6 1_555 1_555
C19_6 C18_6 1_555 1_555
H13_6 C19_6 1_555 1_555
C20_6 C19_6 1_555 1_555
H14_6 C20_6 1_555 1_555
C21_6 C20_6 1_555 1_555
C22_6 C21_6 1_555 1_555
H15_6 C22_6 1_555 1_555
C23_6 C18_6 1_555 1_555
H16_6 C23_6 1_555 1_555
C24_6 C21_6 1_555 1_555
H17_6 C24_6 1_555 1_555
H18_6 C24_6 1_555 1_555
C22_6 C23_6 1_555 1_555
N1_6 Cd3 1_555 1_555
N6_5 C26_6 1_555 1_555
C16_6 N1_6 1_555 1_555
H10_6 C16_6 1_555 1_555
H19_6 C25_6 1_555 1_555
C26_6 C25_6 1_555 1_555
H20_6 C26_6 1_555 1_555
H21_6 C27_6 1_555 1_555
N6_5 C27_6 1_555 1_555

#END
