
###############################################################################
#
# This file contains modified crystal structure data generated from the
# MOF subset of the Cambridge Structural Database (CSD) v543 
# hosted by the Cambridge Crystallographic Data Centre (CCDC).
#
# This work is licensed under the Creative Commons
# Attribution-NonCommercial-ShareAlike 4.0 International License.
# To view a copy of this license, visit
# http://creativecommons.org/licenses/by-nc-sa/4.0/
# or send a letter to
# Creative Commons, PO Box 1866, Mountain View, CA 94042, USA.
#
# CIF created using the CSD Python API on 29 September 2022
# The structure has been converted into the P1 space group
# The structure has a 3D framework
# The original CSD entry KATTOR is in the monoclinic crystal system
# The framework has been calculated to contain at least 10.0% void space
# The void calculation uses a probe of radius 1.32A, grid spacing 0.4
# The framework is charged, counterions have been retained in the structure
#
###############################################################################

data_KATTOR
_chemical_formula_moiety         '(C88 H64 Li4 N4 O36 Zn4)n'
_symmetry_cell_setting           triclinic
_symmetry_space_group_name_H-M   'P 1'
_symmetry_Int_Tables_number      1
_space_group_name_Hall           'P 1'
loop_
_symmetry_equiv_pos_site_id
_symmetry_equiv_pos_as_xyz
1 x,y,z
_cell_length_a                   9.7373(3)
_cell_length_b                   15.1542(5)
_cell_length_c                   21.1695(6)
_cell_angle_alpha                90
_cell_angle_beta                 98.756(3)
_cell_angle_gamma                90
_cell_volume                     3087.39
loop_
_atom_site_label
_atom_site_type_symbol
_atom_site_fract_x
_atom_site_fract_y
_atom_site_fract_z
C1 C 0.1863(7) 0.7557(7) 0.2745(4)
H1 H 0.1342 0.7939 0.2419
H2 H 0.1869 0.6953 0.2581
H3 H 0.2819 0.7772 0.2849
C2 C 0.1063(14) 0.8475(7) 0.3534(6)
H4 H 0.1958 0.8684 0.3759
H5 H 0.0371 0.8489 0.3825
H6 H 0.0759 0.8859 0.3167
N1 N 0.1213(6) 0.7568(4) 0.3310(3)
H7 H 0.1741 0.7247 0.3627
H8 H 0.0351 0.7308 0.3224
C1_2 C 0.8137(7) 0.2557(7) 0.2255(4)
H1_2 H 0.8658 0.2939 0.2581
H2_2 H 0.8131 0.1953 0.2419
H3_2 H 0.7181 0.2772 0.2151
C2_2 C 0.8937(14) 0.3475(7) 0.1466(6)
H4_2 H 0.8042 0.3684 0.1241
H5_2 H 0.9629 0.3489 0.1175
H6_2 H 0.9241 0.3859 0.1833
N1_2 N 0.8787(6) 0.2568(4) 0.1690(3)
H7_2 H 0.8259 0.2247 0.1373
H8_2 H 0.9649 0.2308 0.1776
C1_3 C 0.8137(7) 0.2443(7) 0.7255(4)
H1_3 H 0.8658 0.2061 0.7581
H2_3 H 0.8131 0.3047 0.7419
H3_3 H 0.7181 0.2228 0.7151
C2_3 C 0.8937(14) 0.1525(7) 0.6466(6)
H4_3 H 0.8042 0.1316 0.6241
H5_3 H 0.9629 0.1511 0.6175
H6_3 H 0.9241 0.1141 0.6833
N1_3 N 0.8787(6) 0.2432(4) 0.6690(3)
H7_3 H 0.8259 0.2753 0.6373
H8_3 H 0.9649 0.2692 0.6776
C1_4 C 0.1863(7) 0.7443(7) 0.7745(4)
H1_4 H 0.1342 0.7061 0.7419
H2_4 H 0.1869 0.8047 0.7581
H3_4 H 0.2819 0.7228 0.7849
C2_4 C 0.1063(14) 0.6525(7) 0.8534(6)
H4_4 H 0.1958 0.6316 0.8759
H5_4 H 0.0371 0.6511 0.8825
H6_4 H 0.0759 0.6141 0.8167
N1_4 N 0.1213(6) 0.7432(4) 0.8310(3)
H7_4 H 0.1741 0.7753 0.8627
H8_4 H 0.0351 0.7692 0.8224
C3 C 0.4211(4) 0.3361(3) 0.16326(18)
C4 C 0.4546(4) 0.4176(3) 0.12806(18)
C5 C 0.4657(4) 0.4964(3) 0.16237(18)
H9 H 0.4510 0.4959 0.2057
C6 C 0.4975(4) 0.5750(3) 0.13529(18)
C7 C 0.5209(4) 0.6535(3) 0.17922(17)
C8 C 0.5106(4) 0.5784(3) 0.06966(18)
C9 C 0.5317(4) 0.6599(3) 0.03791(18)
H10 H 0.5396 0.7133 0.0617
C10 C 0.4595(4) 0.3381(3) 0.02519(19)
H11 H 0.4455 0.2831 0.0448
C11 C 0.4707(4) 0.4170(3) 0.06330(18)
C12 C 0.4953(4) 0.4989(3) 0.03368(18)
C13 C 0.1835(4) 0.3956(3) 0.33693(17)
C14 C 0.0882(4) 0.4523(3) 0.37031(18)
C18 C 0.0907(4) 0.4470(3) 0.43682(18)
C19 C 0.1801(4) 0.3869(3) 0.47667(19)
H13 H 0.2402 0.3491 0.4577
O1 O 0.4745(4) 0.2645(2) 0.15306(14)
O2 O 0.3380(3) 0.3500(2) 0.20304(14)
O3 O 0.4449(3) 0.66354(19) 0.22018(13)
O4 O 0.6247(3) 0.70151(19) 0.17183(13)
O5 O 0.1249(3) 0.33653(19) 0.29950(13)
O6 O 0.3094(3) 0.4095(2) 0.34633(15)
O9 O 0.6126(4) 0.0854(2) 0.14096(16)
H15 H 0.6542 0.1106 0.1134
H16 H 0.6347 0.0311 0.1436
Li1 Li 0.4965(7) 0.1503(4) 0.1891(3)
Zn1 Zn 0.26933(5) 0.27103(3) 0.26169(2)
C35 C 0.0005(4) 0.4891(3) 0.66618(18)
H20 H 0.0002 0.4857 0.7110
C36 C 0.0900(4) 0.4353(3) 0.63802(19)
C37 C 0.1913(4) 0.3775(3) 0.68031(18)
C40 C 0.1805(4) 0.3830(3) 0.54046(19)
H22 H 0.2413 0.3429 0.5653
C41 C 0.0910(4) 0.4382(3) 0.57159(19)
C42 C 0.0005(4) 0.4976(3) 0.53398(18)
O16 O 0.3150(3) 0.3969(2) 0.68702(15)
O17 O 0.1399(3) 0.3123(2) 0.70718(14)
O18 O 0.3874(4) 0.5854(2) 0.35904(16)
H23 H 0.3458 0.6106 0.3866
H24 H 0.3653 0.5311 0.3564
Li2 Li 0.5035(7) 0.6503(4) 0.3109(3)
O19 O 0.5255(4) 0.7645(2) 0.34694(14)
O21 O 0.5551(3) 0.16354(19) 0.27982(13)
O22 O 0.3753(3) 0.20151(19) 0.32817(13)
O24 O 0.6850(3) 0.6031(2) 0.31298(15)
O25 O 0.3150(3) 0.1031(2) 0.18702(15)
O26 O 0.1399(3) 0.1877(2) 0.20718(14)
Li6 Li 0.4965(7) 0.3497(4) 0.6891(3)
Zn4 Zn 0.73067(5) 0.77103(3) 0.23831(2)
Zn7 Zn 0.26933(5) 0.22897(3) 0.76169(2)
C23 C 0.5789(4) 0.6639(3) 0.83674(18)
C24 C 0.5454(4) 0.5824(3) 0.87194(18)
C25 C 0.5343(4) 0.5036(3) 0.83763(18)
H17 H 0.5490 0.5041 0.7943
C26 C 0.5025(4) 0.4250(3) 0.86471(18)
C27 C 0.4791(4) 0.3465(3) 0.82078(17)
C28 C 0.4894(4) 0.4216(3) 0.93034(18)
C29 C 0.4683(4) 0.3401(3) 0.96209(18)
H18 H 0.4604 0.2867 0.9383
C30 C 0.5405(4) 0.6619(3) 0.97481(19)
H19 H 0.5545 0.7169 0.9552
C31 C 0.5293(4) 0.5830(3) 0.93670(18)
C32 C 0.5047(4) 0.5011(3) 0.96632(18)
O10 O 0.5255(4) 0.7355(2) 0.84694(14)
O11 O 0.6620(3) 0.6500(2) 0.79696(14)
O12 O 0.5551(3) 0.33646(19) 0.77982(13)
O13 O 0.3753(3) 0.29849(19) 0.82817(13)
Li4 Li 0.5035(7) 0.8497(4) 0.8109(3)
Zn5 Zn 0.73067(5) 0.72897(3) 0.73831(2)
C15 C 0.9995(4) 0.5109(3) 0.33382(18)
H12 H 0.9998 0.5143 0.2890
C16 C 0.9100(4) 0.5647(3) 0.36198(19)
C17 C 0.8087(4) 0.6225(3) 0.31969(18)
C20 C 0.8195(4) 0.6170(3) 0.45954(19)
H14 H 0.7587 0.6571 0.4347
C21 C 0.9090(4) 0.5618(3) 0.42841(19)
C22 C 0.9995(4) 0.5024(3) 0.46602(18)
O8 O 0.8601(3) 0.6877(2) 0.29282(14)
C33 C 0.8165(4) 0.6044(3) 0.66307(17)
C34 C 0.9118(4) 0.5477(3) 0.62969(18)
C38 C 0.9093(4) 0.5530(3) 0.56318(18)
C39 C 0.8199(4) 0.6131(3) 0.52333(19)
H21 H 0.7598 0.6509 0.5423
O14 O 0.8751(3) 0.66347(19) 0.70050(13)
O15 O 0.6906(3) 0.5905(2) 0.65367(15)
O23 O 0.6247(3) 0.79849(19) 0.67183(13)
O27 O 0.8601(3) 0.8123(2) 0.79282(14)
C15_2 C 0.0005(4) 0.0109(3) 0.16618(18)
H12_2 H 0.0002 0.0143 0.2110
C16_2 C 0.0900(4) 0.0647(3) 0.13802(19)
C17_2 C 0.1913(4) 0.1225(3) 0.18031(18)
C20_2 C 0.1805(4) 0.1170(3) 0.04046(19)
H14_2 H 0.2413 0.1571 0.0653
C21_2 C 0.0910(4) 0.0618(3) 0.07159(19)
C22_2 C 0.0005(4) 0.0024(3) 0.03398(18)
C33_2 C 0.1835(4) 0.1044(3) 0.83693(17)
C34_2 C 0.0882(4) 0.0477(3) 0.87031(18)
C38_2 C 0.0907(4) 0.0530(3) 0.93682(18)
C39_2 C 0.1801(4) 0.1131(3) 0.97667(19)
H21_2 H 0.2402 0.1509 0.9577
O14_2 O 0.1249(3) 0.16347(19) 0.79950(13)
O15_2 O 0.3094(3) 0.0905(2) 0.84633(15)
O20 O 0.3380(3) 0.1500(2) 0.70304(14)
C6_2 C 0.5025(4) 0.0750(3) 0.36471(18)
C7_2 C 0.4791(4) 0.1535(3) 0.32078(17)
C8_2 C 0.4894(4) 0.0784(3) 0.43034(18)
C9_2 C 0.4683(4) 0.1599(3) 0.46209(18)
H10_2 H 0.4604 0.2133 0.4383
C23_2 C 0.4211(4) 0.1639(3) 0.66326(18)
C24_2 C 0.4546(4) 0.0824(3) 0.62806(18)
C25_2 C 0.4657(4) 0.0036(3) 0.66237(18)
H17_2 H 0.4510 0.0041 0.7057
C30_2 C 0.4595(4) 0.1619(3) 0.52519(19)
H19_2 H 0.4455 0.2169 0.5448
C31_2 C 0.4707(4) 0.0830(3) 0.56330(18)
C32_2 C 0.4953(4) 0.0011(3) 0.53368(18)
O10_2 O 0.4745(4) 0.2355(2) 0.65306(14)
C3_2 C 0.5789(4) 0.8361(3) 0.33674(18)
C4_2 C 0.5454(4) 0.9176(3) 0.37194(18)
C5_2 C 0.5343(4) 0.9964(3) 0.33763(18)
H9_2 H 0.5490 0.9959 0.2943
C10_2 C 0.5405(4) 0.8381(3) 0.47481(19)
H11_2 H 0.5545 0.7831 0.4552
C11_2 C 0.5293(4) 0.9170(3) 0.43670(18)
C12_2 C 0.5047(4) 0.9989(3) 0.46632(18)
C13_2 C 0.8165(4) 0.8956(3) 0.16307(17)
C14_2 C 0.9118(4) 0.9523(3) 0.12969(18)
C18_2 C 0.9093(4) 0.9470(3) 0.06318(18)
C19_2 C 0.8199(4) 0.8869(3) 0.02333(19)
H13_2 H 0.7598 0.8491 0.0423
O2_2 O 0.6620(3) 0.8500(2) 0.29696(14)
O5_2 O 0.8751(3) 0.83653(19) 0.20050(13)
O6_2 O 0.6906(3) 0.9095(2) 0.15367(15)
C26_2 C 0.4975(4) 0.9250(3) 0.63529(18)
C27_2 C 0.5209(4) 0.8465(3) 0.67922(17)
C28_2 C 0.5106(4) 0.9216(3) 0.56966(18)
C29_2 C 0.5317(4) 0.8401(3) 0.53791(18)
H18_2 H 0.5396 0.7867 0.5617
O12_2 O 0.4449(3) 0.83646(19) 0.72018(13)
C35_2 C 0.9995(4) 0.9891(3) 0.83382(18)
H20_2 H 0.9998 0.9857 0.7890
C36_2 C 0.9100(4) 0.9353(3) 0.86198(19)
C37_2 C 0.8087(4) 0.8775(3) 0.81969(18)
C40_2 C 0.8195(4) 0.8830(3) 0.95954(19)
H22_2 H 0.7587 0.8429 0.9347
C41_2 C 0.9090(4) 0.9382(3) 0.92841(19)
C42_2 C 0.9995(4) 0.9976(3) 0.96602(18)
O16_2 O 0.6850(3) 0.8969(2) 0.81298(15)
O9_2 O 0.3874(4) 0.9146(2) 0.85904(16)
H15_2 H 0.3458 0.8894 0.8866
H16_2 H 0.3653 0.9689 0.8564
O18_2 O 0.6126(4) 0.4146(2) 0.64096(16)
H23_2 H 0.6542 0.3894 0.6134
H24_2 H 0.6347 0.4689 0.6436
loop_
_geom_bond_atom_site_label_1
_geom_bond_atom_site_label_2
_geom_bond_site_symmetry_1
_geom_bond_site_symmetry_2
C1 H1 1_555 1_555
H2 C1 1_555 1_555
H3 C1 1_555 1_555
C2 H4 1_555 1_555
H5 C2 1_555 1_555
H6 C2 1_555 1_555
N1 C1 1_555 1_555
H7 N1 1_555 1_555
H8 N1 1_555 1_555
C2 N1 1_555 1_555
C1_2 H1_2 1_555 1_555
H2_2 C1_2 1_555 1_555
H3_2 C1_2 1_555 1_555
C2_2 H4_2 1_555 1_555
H5_2 C2_2 1_555 1_555
H6_2 C2_2 1_555 1_555
N1_2 C1_2 1_555 1_555
H7_2 N1_2 1_555 1_555
H8_2 N1_2 1_555 1_555
C2_2 N1_2 1_555 1_555
C1_3 H1_3 1_555 1_555
H2_3 C1_3 1_555 1_555
H3_3 C1_3 1_555 1_555
C2_3 H4_3 1_555 1_555
H5_3 C2_3 1_555 1_555
H6_3 C2_3 1_555 1_555
N1_3 C1_3 1_555 1_555
H7_3 N1_3 1_555 1_555
H8_3 N1_3 1_555 1_555
C2_3 N1_3 1_555 1_555
C1_4 H1_4 1_555 1_555
H2_4 C1_4 1_555 1_555
H3_4 C1_4 1_555 1_555
C2_4 H4_4 1_555 1_555
H5_4 C2_4 1_555 1_555
H6_4 C2_4 1_555 1_555
N1_4 C1_4 1_555 1_555
H7_4 N1_4 1_555 1_555
H8_4 N1_4 1_555 1_555
C2_4 N1_4 1_555 1_555
C3 C4 1_555 1_555
C4 C5 1_555 1_555
C5 H9 1_555 1_555
C6 C5 1_555 1_555
C7 C6 1_555 1_555
C8 C6 1_555 1_555
C9 C8 1_555 1_555
H10 C9 1_555 1_555
C10 H11 1_555 1_555
C11 C4 1_555 1_555
C12 C8 1_555 1_555
C13 C14 1_555 1_555
C18 C14 1_555 1_555
C19 C18 1_555 1_555
H13 C19 1_555 1_555
O1 C3 1_555 1_555
O2 C3 1_555 1_555
O3 C7 1_555 1_555
O4 C7 1_555 1_555
O5 C13 1_555 1_555
O6 C13 1_555 1_555
O9 H15 1_555 1_555
H16 O9 1_555 1_555
Li1 O1 1_555 1_555
Zn1 O2 1_555 1_555
C35 H20 1_555 1_555
C36 C35 1_555 1_555
C37 C36 1_555 1_555
C40 C19 1_555 1_555
H22 C40 1_555 1_555
C41 C36 1_555 1_555
O16 C37 1_555 1_555
O17 C37 1_555 1_555
O18 H23 1_555 1_555
H24 O18 1_555 1_555
Li2 O3 1_555 1_555
O19 Li2 1_555 1_555
O21 Li1 1_555 1_555
O22 Zn1 1_555 1_555
O24 Li2 1_555 1_555
O25 Li1 1_555 1_555
O26 Zn1 1_555 1_555
Li6 O16 1_555 1_555
Zn4 O4 1_555 1_555
Zn7 O17 1_555 1_555
C10 C11 1_555 1_555
C11 C12 1_555 1_555
O5 Zn1 1_555 1_555
O9 Li1 1_555 1_555
C40 C41 1_555 1_555
C41 C42 1_555 1_555
O18 Li2 1_555 1_555
C23 C24 1_555 1_555
C24 C25 1_555 1_555
C25 H17 1_555 1_555
C26 C25 1_555 1_555
C27 C26 1_555 1_555
C28 C26 1_555 1_555
H18 C29 1_555 1_555
H19 C30 1_555 1_555
C31 C24 1_555 1_555
O10 C23 1_555 1_555
O11 C23 1_555 1_555
O12 C27 1_555 1_555
O13 C27 1_555 1_555
Li4 O10 1_555 1_555
Li6 O12 1_555 1_555
Zn5 O11 1_555 1_555
Zn7 O13 1_555 1_555
C28 C29 1_555 1_555
C28 C32 1_555 1_555
C30 C31 1_555 1_555
C31 C32 1_555 1_555
C15 H12 1_555 1_555
C16 C15 1_555 1_555
C17 C16 1_555 1_555
C20 H14 1_555 1_555
C21 C16 1_555 1_555
O24 C17 1_555 1_555
O8 C17 1_555 1_555
C33 C34 1_555 1_555
C38 C34 1_555 1_555
C39 C20 1_555 1_555
H21 C39 1_555 1_555
O14 C33 1_555 1_555
O15 C33 1_555 1_555
Zn5 O14 1_555 1_555
O23 Zn5 1_555 1_555
O27 Zn5 1_555 1_555
Zn4 O8 1_555 1_555
C20 C21 1_555 1_555
C21 C22 1_555 1_555
C38 C39 1_555 1_555
C15_2 H12_2 1_555 1_555
C16_2 C15_2 1_555 1_555
C17_2 C16_2 1_555 1_555
C20_2 H14_2 1_555 1_555
C21_2 C16_2 1_555 1_555
O25 C17_2 1_555 1_555
O26 C17_2 1_555 1_555
C20_2 C21_2 1_555 1_555
C21_2 C22_2 1_555 1_555
C33_2 C34_2 1_555 1_555
C38_2 C34_2 1_555 1_555
H21_2 C39_2 1_555 1_555
O14_2 C33_2 1_555 1_555
O15_2 C33_2 1_555 1_555
Zn7 O14_2 1_555 1_555
O20 Zn7 1_555 1_555
C38_2 C39_2 1_555 1_555
C7_2 C6_2 1_555 1_555
C8_2 C6_2 1_555 1_555
C9_2 C8_2 1_555 1_555
H10_2 C9_2 1_555 1_555
O21 C7_2 1_555 1_555
O22 C7_2 1_555 1_555
C23_2 C24_2 1_555 1_555
C24_2 C25_2 1_555 1_555
C25_2 H17_2 1_555 1_555
C30_2 C9_2 1_555 1_555
H19_2 C30_2 1_555 1_555
C31_2 C24_2 1_555 1_555
O10_2 C23_2 1_555 1_555
O20 C23_2 1_555 1_555
Li6 O10_2 1_555 1_555
C30_2 C31_2 1_555 1_555
C31_2 C32_2 1_555 1_555
C3_2 C4_2 1_555 1_555
C4_2 C5_2 1_555 1_555
C5_2 H9_2 1_555 1_555
C10_2 H11_2 1_555 1_555
C11_2 C4_2 1_555 1_555
C13_2 C14_2 1_555 1_555
C18_2 C14_2 1_555 1_555
C19_2 C18_2 1_555 1_555
H13_2 C19_2 1_555 1_555
O19 C3_2 1_555 1_555
O2_2 C3_2 1_555 1_555
O5_2 C13_2 1_555 1_555
O6_2 C13_2 1_555 1_555
Zn4 O2_2 1_555 1_555
C27_2 C26_2 1_555 1_555
C28_2 C26_2 1_555 1_555
C29_2 C10_2 1_555 1_555
H18_2 C29_2 1_555 1_555
O12_2 C27_2 1_555 1_555
O23 C27_2 1_555 1_555
Li4 O12_2 1_555 1_555
C10_2 C11_2 1_555 1_555
C11_2 C12_2 1_555 1_555
O5_2 Zn4 1_555 1_555
C28_2 C29_2 1_555 1_555
C35_2 H20_2 1_555 1_555
C36_2 C35_2 1_555 1_555
C37_2 C36_2 1_555 1_555
H22_2 C40_2 1_555 1_555
C41_2 C36_2 1_555 1_555
O16_2 C37_2 1_555 1_555
O27 C37_2 1_555 1_555
Li4 O16_2 1_555 1_555
C40_2 C41_2 1_555 1_555
C41_2 C42_2 1_555 1_555
O9_2 H15_2 1_555 1_555
H16_2 O9_2 1_555 1_555
O18_2 H23_2 1_555 1_555
H24_2 O18_2 1_555 1_555
O9_2 Li4 1_555 1_555
O18_2 Li6 1_555 1_555

#END
