
###############################################################################
#
# This file contains modified crystal structure data generated from the
# MOF subset of the Cambridge Structural Database (CSD) v543 
# hosted by the Cambridge Crystallographic Data Centre (CCDC).
#
# This work is licensed under the Creative Commons
# Attribution-NonCommercial-ShareAlike 4.0 International License.
# To view a copy of this license, visit
# http://creativecommons.org/licenses/by-nc-sa/4.0/
# or send a letter to
# Creative Commons, PO Box 1866, Mountain View, CA 94042, USA.
#
# CIF created using the CSD Python API on 29 September 2022
# The structure has been converted into the P1 space group
# The structure has a 3D framework
# The original CSD entry KAVGAQ is in the triclinic crystal system
# The framework has been calculated to contain at least 10.0% void space
# The void calculation uses a probe of radius 1.32A, grid spacing 0.4
#
###############################################################################

data_KAVGAQ
_chemical_formula_moiety         '(C40 H26 Co13 N10 O8)n'
_symmetry_cell_setting           triclinic
_symmetry_space_group_name_H-M   'P 1'
_symmetry_Int_Tables_number      1
_space_group_name_Hall           'P 1'
loop_
_symmetry_equiv_pos_site_id
_symmetry_equiv_pos_as_xyz
1 x,y,z
_cell_length_a                   11.4932(2)
_cell_length_b                   11.61320(10)
_cell_length_c                   11.81820(10)
_cell_angle_alpha                65.275(8)
_cell_angle_beta                 81.174(12)
_cell_angle_gamma                72.752(10)
_cell_volume                     1367.58
loop_
_atom_site_label
_atom_site_type_symbol
_atom_site_fract_x
_atom_site_fract_y
_atom_site_fract_z
Co8 Co 0.0000 0.0000 0.0000
Co8_2 Co 0.0000 0.0000 1.0000
Co8_3 Co 0.0000 1.0000 0.0000
Co5 Co 0.0000 0.5000 0.5000
Co8_4 Co 0.0000 1.0000 1.0000
Co8_5 Co 1.0000 0.0000 0.0000
Co1 Co 0.0000 0.0000 0.5000
O3 O 0.0814(3) 0.1510(3) 0.4542(3)
O4 O 0.0455(3) 0.3623(3) 0.4153(3)
C2 C 0.0185(4) 0.1126(4) 0.7315(4)
C3 C 0.0216(4) 0.2220(4) 0.6219(4)
C4 C 0.0513(4) 0.2445(4) 0.4891(4)
C16 C 0.2215(5) 0.1042(6) 0.9918(7)
H10 H 0.1583 0.1822 0.9801
C17 C 0.3398(5) 0.1106(6) 0.9879(7)
H11 H 0.3564 0.1907 0.9751
Co8_6 Co 1.0000 0.0000 1.0000
N6 N 0.0057(4) 0.6698(4) 0.3480(4)
N11 N 0.1990(4) 0.4543(4) 0.5215(4)
N15 N 0.8102(4) 0.0025(5) 0.9894(4)
C38 C 0.5647(5) 0.0015(6) 0.9970(5)
C39 C 0.5975(6) 0.1146(7) 0.9738(8)
H25 H 0.5365 0.1945 0.9601
C40 C 0.7200(5) 0.1116(7) 0.9706(7)
H26 H 0.7403 0.1907 0.9543
N5 N 0.1898(4) 0.9975(5) 0.0106(4)
C18 C 0.4353(5) 0.9985(6) 0.0030(5)
C19 C 0.4025(6) 0.8854(7) 0.0262(8)
H12 H 0.4635 0.8055 0.0399
C20 C 0.2800(5) 0.8884(7) 0.0294(7)
H13 H 0.2597 0.8093 0.0457
Co8_7 Co 1.0000 1.0000 0.0000
N8 N 0.0104(4) 0.8457(4) 0.1712(4)
C36 C 0.7785(5) 0.8958(6) 0.0082(7)
H23 H 0.8417 0.8178 0.0199
C37 C 0.6602(5) 0.8894(6) 0.0121(7)
H24 H 0.6436 0.8093 0.0249
Co1_2 Co 0.0000 1.0000 0.5000
O1 O 0.0418(4) 0.9247(3) 0.6862(3)
O2 O 0.0483(3) 0.8983(3) 0.8810(3)
N3 N 0.1742(4) 0.8750(4) 0.4724(4)
N4 N 0.8010(4) 0.5457(4) 0.4785(4)
C5 C 0.0381(4) 0.9708(4) 0.7648(4)
C6 C 0.2181(5) 0.7574(5) 0.5633(5)
H2 H 0.1649 0.7244 0.6318
C7 C 0.3364(5) 0.6815(6) 0.5626(6)
H3 H 0.3627 0.5987 0.6292
C8 C 0.4158(5) 0.7271(5) 0.4644(5)
C9 C 0.3703(5) 0.8476(6) 0.3678(5)
H4 H 0.4212 0.8818 0.2975
C10 C 0.2499(5) 0.9173(6) 0.3754(5)
H5 H 0.2201 0.9987 0.3085
C11 C 0.7466(5) 0.6178(6) 0.3701(6)
H6 H 0.7954 0.6312 0.2954
C12 C 0.6217(5) 0.6746(6) 0.3610(5)
H7 H 0.5872 0.7254 0.2814
C13 C 0.5477(5) 0.6572(5) 0.4674(5)
C14 C 0.6036(5) 0.5753(6) 0.5799(6)
H8 H 0.5563 0.5553 0.6557
C15 C 0.7288(5) 0.5232(6) 0.5807(6)
H9 H 0.7653 0.4681 0.6588
Co5_2 Co 1.0000 0.5000 0.5000
Co8_8 Co 1.0000 1.0000 1.0000
C21 C 0.0236(4) 0.7166(5) 0.2252(4)
H14 H 0.0440 0.6623 0.1795
O6 O 0.9517(3) 0.1017(3) 0.1190(3)
Co1_3 Co 1.0000 0.0000 0.5000
N1 N 0.9943(4) 0.3302(4) 0.6520(4)
N2 N 0.9896(4) 0.1543(4) 0.8288(4)
C1 C 0.9764(4) 0.2834(5) 0.7748(4)
H1 H 0.9560 0.3377 0.8205
O5 O 0.9582(4) 0.0753(3) 0.3138(3)
O9 O 0.9545(3) 0.6377(3) 0.5847(3)
N10 N 0.8258(4) 0.1250(4) 0.5276(4)
C25 C 0.9619(4) 0.0292(4) 0.2352(4)
C26 C 0.7819(5) 0.2426(5) 0.4367(5)
H15 H 0.8351 0.2756 0.3682
C27 C 0.6636(5) 0.3185(6) 0.4374(6)
H16 H 0.6373 0.4013 0.3708
C28 C 0.5842(5) 0.2729(5) 0.5356(5)
C29 C 0.6297(5) 0.1524(6) 0.6322(5)
H17 H 0.5788 0.1182 0.7025
C30 C 0.7501(5) 0.0827(6) 0.6246(5)
H18 H 0.7799 0.0013 0.6915
C31 C 0.2534(5) 0.3822(6) 0.6299(6)
H19 H 0.2046 0.3688 0.7046
C32 C 0.3783(5) 0.3254(6) 0.6390(5)
H20 H 0.4128 0.2746 0.7186
C33 C 0.4523(5) 0.3428(5) 0.5326(5)
C34 C 0.3964(5) 0.4247(6) 0.4201(6)
H21 H 0.4437 0.4447 0.3443
C35 C 0.2712(5) 0.4768(6) 0.4193(6)
H22 H 0.2347 0.5319 0.3412
Co1_4 Co 1.0000 1.0000 0.5000
O8 O 0.9186(3) 0.8490(3) 0.5458(3)
C22 C 0.9815(4) 0.8874(4) 0.2685(4)
C23 C 0.9784(4) 0.7780(4) 0.3781(4)
C24 C 0.9487(4) 0.7555(4) 0.5109(4)
loop_
_geom_bond_atom_site_label_1
_geom_bond_atom_site_label_2
_geom_bond_site_symmetry_1
_geom_bond_site_symmetry_2
Co5 O4 1_555 1_555
O3 Co1 1_555 1_555
O4 C4 1_555 1_555
C4 O3 1_555 1_555
H10 C16 1_555 1_555
C17 C16 1_555 1_555
H11 C17 1_555 1_555
Co8_6 N15 1_555 1_555
N6 Co5 1_555 1_555
N11 Co5 1_555 1_555
C39 C38 1_555 1_555
H25 C39 1_555 1_555
C40 N15 1_555 1_555
H26 C40 1_555 1_555
C2 C3 1_555 1_555
C3 C4 1_555 1_555
C39 C40 1_555 1_555
N5 Co8_3 1_555 1_555
C19 C18 1_555 1_555
H12 C19 1_555 1_555
C20 N5 1_555 1_555
H13 C20 1_555 1_555
N8 Co8_3 1_555 1_555
C36 H23 1_555 1_555
C37 C36 1_555 1_555
H24 C37 1_555 1_555
C19 C20 1_555 1_555
Co1_2 O1 1_555 1_555
Co8_4 O2 1_555 1_555
O1 C5 1_555 1_555
O2 C5 1_555 1_555
N3 Co1_2 1_555 1_555
N4 C11 1_555 1_555
C6 N3 1_555 1_555
H2 C6 1_555 1_555
C7 C6 1_555 1_555
H3 C7 1_555 1_555
C8 C7 1_555 1_555
C9 C8 1_555 1_555
H4 C9 1_555 1_555
C10 N3 1_555 1_555
H5 C10 1_555 1_555
C11 H6 1_555 1_555
C12 C11 1_555 1_555
H7 C12 1_555 1_555
C13 C8 1_555 1_555
C14 C13 1_555 1_555
H8 C14 1_555 1_555
C15 N4 1_555 1_555
H9 C15 1_555 1_555
Co5_2 N4 1_555 1_555
C21 N6 1_555 1_555
H14 C21 1_555 1_555
C9 C10 1_555 1_555
C12 C13 1_555 1_555
C14 C15 1_555 1_555
N8 C21 1_555 1_555
O6 Co8_5 1_555 1_555
N1 Co5_2 1_555 1_555
N2 Co8_6 1_555 1_555
C1 N1 1_555 1_555
H1 C1 1_555 1_555
O5 Co1_3 1_555 1_555
O6 C25 1_555 1_555
O9 Co5_2 1_555 1_555
N10 Co1_3 1_555 1_555
N11 C31 1_555 1_555
C25 O5 1_555 1_555
C26 N10 1_555 1_555
H15 C26 1_555 1_555
C27 C26 1_555 1_555
H16 C27 1_555 1_555
C28 C27 1_555 1_555
C29 C28 1_555 1_555
H17 C29 1_555 1_555
C30 N10 1_555 1_555
H18 C30 1_555 1_555
C31 H19 1_555 1_555
C32 C31 1_555 1_555
H20 C32 1_555 1_555
C33 C28 1_555 1_555
C34 C33 1_555 1_555
H21 C34 1_555 1_555
C35 N11 1_555 1_555
H22 C35 1_555 1_555
N2 C1 1_555 1_555
C29 C30 1_555 1_555
C32 C33 1_555 1_555
C34 C35 1_555 1_555
O8 Co1_4 1_555 1_555
O9 C24 1_555 1_555
C24 O8 1_555 1_555
C22 C23 1_555 1_555
C23 C24 1_555 1_555

#END
