
###############################################################################
#
# This file contains modified crystal structure data generated from the
# MOF subset of the Cambridge Structural Database (CSD) v543 
# hosted by the Cambridge Crystallographic Data Centre (CCDC).
#
# This work is licensed under the Creative Commons
# Attribution-NonCommercial-ShareAlike 4.0 International License.
# To view a copy of this license, visit
# http://creativecommons.org/licenses/by-nc-sa/4.0/
# or send a letter to
# Creative Commons, PO Box 1866, Mountain View, CA 94042, USA.
#
# CIF created using the CSD Python API on 29 September 2022
# The structure has been converted into the P1 space group
# The structure has a 3D framework
# The original CSD entry KAVKIC is in the tetragonal crystal system
# The framework has been calculated to contain at least 10.0% void space
# The void calculation uses a probe of radius 1.32A, grid spacing 0.4
# H atom positions have been added when not included in the experimental data
#
###############################################################################

data_KAVKIC
_chemical_formula_moiety         '(C160 H128 Dy32 N64 O172)n'
_symmetry_cell_setting           triclinic
_symmetry_space_group_name_H-M   'P 1'
_symmetry_Int_Tables_number      1
_space_group_name_Hall           'P 1'
loop_
_symmetry_equiv_pos_site_id
_symmetry_equiv_pos_as_xyz
1 x,y,z
_cell_length_a                   20.187(3)
_cell_length_b                   20.187(3)
_cell_length_c                   15.992(3)
_cell_angle_alpha                90
_cell_angle_beta                 90
_cell_angle_gamma                90
_cell_volume                     6516.98
loop_
_atom_site_label
_atom_site_type_symbol
_atom_site_fract_x
_atom_site_fract_y
_atom_site_fract_z
Dy1 Dy 0.706715(12) 0.673132(12) 0.090775(15)
Dy2 Dy 0.568960(12) 0.544010(11) 0.419210(15)
O1 O 0.58857(19) 0.61747(18) 0.3078(2)
O2 O 0.65182(18) 0.66906(18) 0.2157(2)
O3 O 0.7920(2) 0.66340(19) 0.1866(3)
O4 O 0.8752(2) 0.63270(18) 0.2675(3)
N1 N 0.6871(2) 0.5500(2) 0.3761(3)
N2 N 0.7984(2) 0.5550(2) 0.3624(3)
N3 N 0.7936(2) 0.6255(2) 0.0097(3)
C1 C 0.7460(3) 0.5282(3) 0.4019(4)
H1 H 0.7505 0.4969 0.4442
C2 C 0.7696(3) 0.5979(3) 0.3059(3)
C3 C 0.7015(2) 0.5951(2) 0.3143(3)
C4 C 0.6457(3) 0.6298(3) 0.2761(3)
C5 C 0.8137(3) 0.6337(3) 0.2495(3)
C6 C 0.8378(3) 0.5779(3) 0.0258(3)
H2 H 0.8427 0.5592 0.0786
O9 O 0.7774(2) 0.7667(2) 0.0874(3)
O10 O 0.6295(2) 0.7609(2) 0.0822(3)
O11 O 0.4938(2) 0.6338(2) 0.4490(3)
Dy3 Dy 0.923132(12) 0.543285(12) 0.340775(15)
O12 O 0.61730(18) 0.6252(2) 0.0175(3)
O13 O 0.58073(18) 0.46267(18) 0.3083(2)
O14 O 0.62468(19) 0.6188(2) 0.5036(2)
O15 O 0.53374(17) 0.52045(18) 0.5674(2)
O16 O 0.46626(17) 0.47955(18) 0.4326(2)
O17 O 0.46571(18) 0.53377(18) 0.3128(2)
N5 N 0.6950(2) 0.5484(2) 0.1124(3)
N6 N 0.6258(2) 0.4409(2) 0.4606(3)
H3 H 0.462182 0.638957 0.401881
H4 H 0.468951 0.623959 0.501129
H5 H 0.637944 0.793014 0.128011
H6 H 0.63423 0.783579 0.027424
H7 H 0.810135 0.763571 0.133579
H8 H 0.801065 0.768146 0.0329948
O5 O 0.91927(18) 0.53733(18) 0.8083(2)
O6 O 0.8688(2) 0.62532(19) 0.7536(2)
O7 O 0.77045(18) 0.71626(17) 0.8174(2)
O8 O 0.71623(18) 0.71571(18) 0.9372(2)
N4 N 0.8742(2) 0.5591(2) 0.9606(3)
C7 C 0.8033(3) 0.6401(3) 0.9260(3)
C8 C 0.8531(2) 0.5990(2) 0.8970(3)
C9 C 0.8812(3) 0.5871(3) 0.8132(3)
C10 C 0.7612(3) 0.6931(2) 0.8911(3)
Dy4 Dy 0.931040(12) 0.455990(11) 0.919210(15)
Dy5 Dy 0.794010(11) 0.681040(12) 0.669210(15)
Dy6 Dy 0.705990(11) 0.818960(12) 0.830790(15)
O3_2 O 0.08660(19) 0.0420(2) 0.4366(3)
O4_2 O 0.11730(18) 0.1252(2) 0.5175(3)
O5_2 O 0.21267(18) 0.16927(18) 0.0583(2)
O6_2 O 0.12468(19) 0.1188(2) 0.0036(2)
O7_2 O 0.03374(17) 0.02045(18) 0.0674(2)
N2_2 N 0.1950(2) 0.0484(2) 0.6124(3)
N3_2 N 0.1245(2) 0.0436(2) 0.2597(3)
N4_2 N 0.1909(2) 0.1242(2) 0.2106(3)
H1_2 H 0.2531 0.0005 0.6942
C2_2 C 0.1521(3) 0.0196(3) 0.5559(3)
C5_2 C 0.1163(3) 0.0637(3) 0.4995(3)
C6_2 C 0.1721(3) 0.0878(3) 0.2758(3)
H2_2 H 0.1908 0.0927 0.3286
C7_2 C 0.1099(3) 0.0533(3) 0.1760(3)
C8_2 C 0.1510(2) 0.1031(2) 0.1470(3)
C9_2 C 0.1629(3) 0.1312(3) 0.0632(3)
C10_2 C 0.0569(2) 0.0112(3) 0.1411(3)
Dy3_2 Dy 0.206715(12) 0.173132(12) 0.590775(15)
Dy4_2 Dy 0.294010(11) 0.181040(12) 0.169210(15)
Dy5_2 Dy 0.068960(12) 0.044010(11) 0.919210(15)
Dy1_2 Dy 0.076868(12) 0.956715(12) 0.340775(15)
Dy2_2 Dy 0.205990(11) 0.818960(12) 0.669210(15)
O1_2 O 0.13253(18) 0.83857(19) 0.5578(2)
O2_2 O 0.08094(18) 0.90182(18) 0.4657(2)
O8_2 O 0.03429(18) 0.96623(18) 0.1872(2)
N1_2 N 0.2000(2) 0.9371(2) 0.6261(3)
C1_2 C 0.2218(3) 0.9960(3) 0.6519(4)
C3_2 C 0.1549(2) 0.9515(2) 0.5643(3)
C4_2 C 0.1202(3) 0.8957(3) 0.5261(3)
O11_2 O 0.1162(2) 0.7438(2) 0.6990(3)
O12_2 O 0.1248(2) 0.86730(18) 0.2675(3)
O13_2 O 0.28733(18) 0.83073(18) 0.5583(2)
O14_2 O 0.1312(2) 0.87468(19) 0.7536(2)
O15_2 O 0.22955(18) 0.78374(17) 0.8174(2)
O16_2 O 0.27045(18) 0.71626(17) 0.6826(2)
O17_2 O 0.21623(18) 0.71571(18) 0.5628(2)
N5_2 N 0.2016(2) 0.9450(2) 0.3624(3)
N6_2 N 0.3091(2) 0.8758(2) 0.7106(3)
H3_2 H 0.111043 0.712182 0.651881
H4_2 H 0.126041 0.718951 0.751129
O10_2 O 0.9891(2) 0.8795(2) 0.3322(3)
Dy6_2 Dy 0.931040(12) 0.955990(11) 0.080790(15)
H5_2 H 0.956986 0.887944 0.378011
H6_2 H 0.966421 0.88423 0.277424
O1_3 O 0.08857(19) 0.11747(18) 0.8078(2)
O2_3 O 0.15182(18) 0.16906(18) 0.7157(2)
O3_3 O 0.2920(2) 0.16340(19) 0.6866(3)
O4_3 O 0.3752(2) 0.13270(18) 0.7675(3)
O5_3 O 0.41927(18) 0.03733(18) 0.3083(2)
O6_3 O 0.3688(2) 0.12532(19) 0.2536(2)
O7_3 O 0.27045(18) 0.21626(17) 0.3174(2)
O8_3 O 0.21623(18) 0.21571(18) 0.4372(2)
N1_3 N 0.1871(2) 0.0500(2) 0.8761(3)
N2_3 N 0.2984(2) 0.0550(2) 0.8624(3)
N3_3 N 0.2936(2) 0.1255(2) 0.5097(3)
N4_3 N 0.3742(2) 0.0591(2) 0.4606(3)
C1_3 C 0.2460(3) 0.0282(3) 0.9019(4)
C2_3 C 0.2696(3) 0.0979(3) 0.8059(3)
C3_3 C 0.2015(2) 0.0951(2) 0.8143(3)
C4_3 C 0.1457(3) 0.1298(3) 0.7761(3)
C5_3 C 0.3137(3) 0.1337(3) 0.7495(3)
C6_3 C 0.3378(3) 0.0779(3) 0.5258(3)
H2_3 H 0.3427 0.0592 0.5786
C7_3 C 0.3033(3) 0.1401(3) 0.4260(3)
C8_3 C 0.3531(2) 0.0990(2) 0.3970(3)
C9_3 C 0.3812(3) 0.0871(3) 0.3132(3)
C10_3 C 0.2612(3) 0.1931(2) 0.3911(3)
O9_2 O 0.2774(2) 0.2667(2) 0.5874(3)
O10_3 O 0.1295(2) 0.2609(2) 0.5822(3)
Dy3_3 Dy 0.423132(12) 0.043285(12) 0.840775(15)
Dy6_3 Dy 0.205990(11) 0.318960(12) 0.330790(15)
H5_3 H 0.137944 0.293014 0.628011
H6_3 H 0.13423 0.283579 0.527424
H7_2 H 0.310135 0.263571 0.633579
H8_2 H 0.301065 0.268146 0.532995
H1_3 H 0.2505 0.9969 0.9442
Dy4_3 Dy 0.431040(12) 0.955990(11) 0.419210(15)
O13_3 O 0.08073(18) 0.96267(18) 0.8083(2)
N6_3 N 0.1258(2) 0.9409(2) 0.9606(3)
O11_3 O 0.9938(2) 0.1338(2) 0.9490(3)
O17_3 O 0.96571(18) 0.03377(18) 0.8128(2)
H3_3 H 0.962182 0.138957 0.901881
O16_3 O 0.96626(17) 0.97955(18) 0.9326(2)
Dy2_3 Dy 0.705990(11) 0.318960(12) 0.169210(15)
O1_4 O 0.63253(18) 0.33857(19) 0.0578(2)
N1_4 N 0.7000(2) 0.4371(2) 0.1261(3)
C1_4 C 0.7218(3) 0.4960(3) 0.1519(4)
H1_4 H 0.7531 0.5005 0.1942
C2_4 C 0.6521(3) 0.5196(3) 0.0559(3)
C3_4 C 0.6549(2) 0.4515(2) 0.0643(3)
C4_4 C 0.6202(3) 0.3957(3) 0.0261(3)
O11_4 O 0.6162(2) 0.2438(2) 0.1990(3)
O13_4 O 0.78733(18) 0.33073(18) 0.0583(2)
O14_3 O 0.6312(2) 0.37468(19) 0.2536(2)
O15_3 O 0.72955(18) 0.28374(17) 0.3174(2)
O16_4 O 0.77045(18) 0.21626(17) 0.1826(2)
O17_4 O 0.71623(18) 0.21571(18) 0.0628(2)
N6_4 N 0.8091(2) 0.3758(2) 0.2106(3)
H3_4 H 0.611043 0.212182 0.151881
H4_3 H 0.626041 0.218951 0.251129
Dy1_3 Dy 0.576868(12) 0.456715(12) 0.840775(15)
O2_4 O 0.58094(18) 0.40182(18) 0.9657(2)
O3_4 O 0.58660(19) 0.5420(2) 0.9366(3)
O5_4 O 0.71267(18) 0.66927(18) 0.5583(2)
O8_4 O 0.53429(18) 0.46623(18) 0.6872(2)
N3_4 N 0.6245(2) 0.5436(2) 0.7597(3)
N4_4 N 0.6909(2) 0.6242(2) 0.7106(3)
C5_4 C 0.6163(3) 0.5637(3) 0.9995(3)
C6_4 C 0.6721(3) 0.5878(3) 0.7758(3)
H2_4 H 0.6908 0.5927 0.8286
C7_4 C 0.6099(3) 0.5533(3) 0.6760(3)
C8_4 C 0.6510(2) 0.6031(2) 0.6470(3)
C9_4 C 0.6629(3) 0.6312(3) 0.5632(3)
C10_4 C 0.5569(2) 0.5112(3) 0.6411(3)
O9_3 O 0.4833(2) 0.5274(2) 0.8374(3)
O10_4 O 0.4891(2) 0.3795(2) 0.8322(3)
Dy6_4 Dy 0.431040(12) 0.455990(11) 0.580790(15)
O12_3 O 0.6248(2) 0.36730(18) 0.7675(3)
N5_3 N 0.7016(2) 0.4450(2) 0.8624(3)
H5_4 H 0.456986 0.387944 0.878011
H6_4 H 0.466421 0.38423 0.777424
H7_3 H 0.486429 0.560135 0.883579
H8_3 H 0.481854 0.551065 0.782995
O9_4 O 0.0167(2) 0.4726(2) 0.3374(3)
O10_5 O 0.0109(2) 0.6205(2) 0.3322(3)
Dy6_5 Dy 0.068960(12) 0.544010(11) 0.080790(15)
H5_5 H 0.0430137 0.612056 0.378011
H6_5 H 0.0335787 0.61577 0.277424
H7_4 H 0.0135708 0.439865 0.383579
H8_4 H 0.0181461 0.448935 0.282995
O1_5 O 0.86747(18) 0.66143(19) 0.5578(2)
O2_5 O 0.91906(18) 0.59818(18) 0.4657(2)
O3_5 O 0.91340(19) 0.4580(2) 0.4366(3)
O4_4 O 0.88270(18) 0.3748(2) 0.5175(3)
O6_4 O 0.87532(19) 0.3812(2) 0.0036(2)
O7_4 O 0.96626(17) 0.47955(18) 0.0674(2)
O8_5 O 0.96571(18) 0.53377(18) 0.1872(2)
N1_5 N 0.8000(2) 0.5629(2) 0.6261(3)
N2_4 N 0.8050(2) 0.4516(2) 0.6124(3)
N3_5 N 0.8755(2) 0.4564(2) 0.2597(3)
C1_5 C 0.7782(3) 0.5040(3) 0.6519(4)
H1_5 H 0.7469 0.4995 0.6942
C2_5 C 0.8479(3) 0.4804(3) 0.5559(3)
C3_5 C 0.8451(2) 0.5485(2) 0.5643(3)
C4_5 C 0.8798(3) 0.6043(3) 0.5261(3)
C5_5 C 0.8837(3) 0.4363(3) 0.4995(3)
C6_5 C 0.8279(3) 0.4122(3) 0.2758(3)
H2_5 H 0.8092 0.4073 0.3286
C7_5 C 0.8901(3) 0.4467(3) 0.1760(3)
C8_5 C 0.8490(2) 0.3969(2) 0.1470(3)
C9_5 C 0.8371(3) 0.3688(3) 0.0632(3)
C10_5 C 0.9431(2) 0.4888(3) 0.1411(3)
O11_5 O 0.8838(2) 0.7562(2) 0.6990(3)
Dy3_4 Dy 0.793285(12) 0.326868(12) 0.590775(15)
O16_5 O 0.72955(18) 0.78374(17) 0.6826(2)
O17_5 O 0.78377(18) 0.78429(18) 0.5628(2)
H3_5 H 0.888957 0.787818 0.651881
H4_4 H 0.873959 0.781049 0.751129
O11_6 O 0.0062(2) 0.3662(2) 0.9490(3)
O16_6 O 0.03374(17) 0.52045(18) 0.9326(2)
O17_6 O 0.03429(18) 0.46623(18) 0.8128(2)
H3_6 H 0.0378185 0.361043 0.901881
O1_6 O 0.91143(19) 0.38253(18) 0.8078(2)
O2_6 O 0.84818(18) 0.33094(18) 0.7157(2)
O3_6 O 0.7080(2) 0.33660(19) 0.6866(3)
O8_6 O 0.78377(18) 0.28429(18) 0.4372(2)
N1_6 N 0.8129(2) 0.4500(2) 0.8761(3)
N3_6 N 0.7064(2) 0.3745(2) 0.5097(3)
C1_6 C 0.7540(3) 0.4718(3) 0.9019(4)
H1_6 H 0.7495 0.5031 0.9442
C2_6 C 0.7304(3) 0.4021(3) 0.8059(3)
C3_6 C 0.7985(2) 0.4049(2) 0.8143(3)
C4_6 C 0.8543(3) 0.3702(3) 0.7761(3)
C5_6 C 0.6863(3) 0.3663(3) 0.7495(3)
C6_6 C 0.6622(3) 0.4221(3) 0.5258(3)
H2_6 H 0.6573 0.4408 0.5786
C7_6 C 0.6967(3) 0.3599(3) 0.4260(3)
C8_6 C 0.6469(2) 0.4010(2) 0.3970(3)
C9_6 C 0.6188(3) 0.4129(3) 0.3132(3)
C10_6 C 0.7388(3) 0.3069(2) 0.3911(3)
O9_5 O 0.7226(2) 0.2333(2) 0.5874(3)
O10_6 O 0.8705(2) 0.2391(2) 0.5822(3)
Dy6_6 Dy 0.794010(11) 0.181040(12) 0.330790(15)
H5_6 H 0.862056 0.206986 0.628011
H6_6 H 0.86577 0.216421 0.527424
H7_5 H 0.689865 0.236429 0.633579
H8_5 H 0.698935 0.231854 0.532995
O1_7 O 0.36747(18) 0.16143(19) 0.0578(2)
N1_7 N 0.3000(2) 0.0629(2) 0.1261(3)
C1_7 C 0.2782(3) 0.0040(3) 0.1519(4)
C3_7 C 0.3451(2) 0.0485(2) 0.0643(3)
C4_7 C 0.3798(3) 0.1043(3) 0.0261(3)
O11_7 O 0.3838(2) 0.2562(2) 0.1990(3)
O16_7 O 0.22955(18) 0.28374(17) 0.1826(2)
O17_7 O 0.28377(18) 0.28429(18) 0.0628(2)
H3_7 H 0.388957 0.287818 0.151881
H4_5 H 0.373959 0.281049 0.251129
O2_7 O 0.41906(18) 0.09818(18) 0.9657(2)
O8_7 O 0.46571(18) 0.03377(18) 0.6872(2)
O10_7 O 0.5109(2) 0.1205(2) 0.8322(3)
Dy6_7 Dy 0.568960(12) 0.044010(11) 0.580790(15)
H5_7 H 0.543014 0.112056 0.878011
H6_7 H 0.533579 0.11577 0.777424
O4_5 O 0.38270(18) 0.8748(2) 0.0175(3)
N2_5 N 0.3050(2) 0.9516(2) 0.1124(3)
H1_7 H 0.2469 0.9995 0.1942
C2_7 C 0.3479(3) 0.9804(3) 0.0559(3)
Dy3_5 Dy 0.293285(12) 0.826868(12) 0.090775(15)
O3_7 O 0.41340(19) 0.9580(2) 0.9366(3)
O6_5 O 0.37532(19) 0.8812(2) 0.5036(2)
O7_5 O 0.46626(17) 0.97955(18) 0.5674(2)
N3_7 N 0.3755(2) 0.9564(2) 0.7597(3)
C5_7 C 0.3837(3) 0.9363(3) 0.9995(3)
C6_7 C 0.3279(3) 0.9122(3) 0.7758(3)
H2_7 H 0.3092 0.9073 0.8286
C7_7 C 0.3901(3) 0.9467(3) 0.6760(3)
C8_7 C 0.3490(2) 0.8969(2) 0.6470(3)
C9_7 C 0.3371(3) 0.8688(3) 0.5632(3)
C10_7 C 0.4431(2) 0.9888(3) 0.6411(3)
O9_6 O 0.5167(2) 0.9726(2) 0.8374(3)
H7_6 H 0.513571 0.939865 0.883579
H8_6 H 0.518146 0.948935 0.782995
H1_8 H 0.2495 0.0031 0.4442
O16_8 O 0.53374(17) 0.02045(18) 0.4326(2)
O1_8 O 0.41143(19) 0.88253(18) 0.3078(2)
O2_8 O 0.34818(18) 0.83094(18) 0.2157(2)
O3_8 O 0.2080(2) 0.83660(19) 0.1866(3)
N1_8 N 0.3129(2) 0.9500(2) 0.3761(3)
N3_8 N 0.2064(2) 0.8745(2) 0.0097(3)
C1_8 C 0.2540(3) 0.9718(3) 0.4019(4)
C2_8 C 0.2304(3) 0.9021(3) 0.3059(3)
C3_8 C 0.2985(2) 0.9049(2) 0.3143(3)
C4_8 C 0.3543(3) 0.8702(3) 0.2761(3)
C5_8 C 0.1863(3) 0.8663(3) 0.2495(3)
C6_8 C 0.1622(3) 0.9221(3) 0.0258(3)
H2_8 H 0.1573 0.9408 0.0786
O9_7 O 0.2226(2) 0.7333(2) 0.0874(3)
O10_8 O 0.3705(2) 0.7391(2) 0.0822(3)
O11_8 O 0.5062(2) 0.8662(2) 0.4490(3)
O17_8 O 0.53429(18) 0.96623(18) 0.3128(2)
H3_8 H 0.537818 0.861043 0.401881
H4_6 H 0.531049 0.876041 0.501129
H5_8 H 0.362056 0.706986 0.128011
H6_8 H 0.36577 0.716421 0.027424
H7_7 H 0.189865 0.736429 0.133579
H8_7 H 0.198935 0.731854 0.0329948
O8_8 O 0.28377(18) 0.78429(18) 0.9372(2)
C7_8 C 0.1967(3) 0.8599(3) 0.9260(3)
C8_8 C 0.1469(2) 0.9010(2) 0.8970(3)
C9_8 C 0.1188(3) 0.9129(3) 0.8132(3)
C10_8 C 0.2388(3) 0.8069(2) 0.8911(3)
Dy6_8 Dy 0.294010(11) 0.681040(12) 0.830790(15)
O5_5 O 0.08073(18) 0.46267(18) 0.1917(2)
O6_6 O 0.1312(2) 0.37468(19) 0.2464(2)
N4_5 N 0.1258(2) 0.4409(2) 0.0394(3)
C7_9 C 0.1967(3) 0.3599(3) 0.0740(3)
C8_9 C 0.1469(2) 0.4010(2) 0.1030(3)
C9_9 C 0.1188(3) 0.4129(3) 0.1868(3)
C10_9 C 0.2388(3) 0.3069(2) 0.1089(3)
Dy1_4 Dy 0.293285(12) 0.326868(12) 0.909225(15)
O1_9 O 0.41143(19) 0.38253(18) 0.6922(2)
O2_9 O 0.34818(18) 0.33094(18) 0.7843(2)
O3_9 O 0.2080(2) 0.33660(19) 0.8134(3)
O4_6 O 0.1248(2) 0.36730(18) 0.7325(3)
N1_9 N 0.3129(2) 0.4500(2) 0.6239(3)
N2_6 N 0.2016(2) 0.4450(2) 0.6376(3)
N3_9 N 0.2064(2) 0.3745(2) 0.9903(3)
C1_9 C 0.2540(3) 0.4718(3) 0.5981(4)
H1_9 H 0.2495 0.5031 0.5558
C2_9 C 0.2304(3) 0.4021(3) 0.6941(3)
C3_9 C 0.2985(2) 0.4049(2) 0.6857(3)
C4_9 C 0.3543(3) 0.3702(3) 0.7239(3)
C5_9 C 0.1863(3) 0.3663(3) 0.7505(3)
C6_9 C 0.1622(3) 0.4221(3) 0.9742(3)
H2_9 H 0.1573 0.4408 0.9214
O9_8 O 0.2226(2) 0.2333(2) 0.9126(3)
O10_9 O 0.3705(2) 0.2391(2) 0.9178(3)
O11_9 O 0.5062(2) 0.3662(2) 0.5510(3)
Dy3_6 Dy 0.076868(12) 0.456715(12) 0.659225(15)
O12_4 O 0.38270(18) 0.3748(2) 0.9825(3)
O13_5 O 0.41927(18) 0.53733(18) 0.6917(2)
O14_4 O 0.37532(19) 0.3812(2) 0.4964(2)
N5_4 N 0.3050(2) 0.4516(2) 0.8876(3)
N6_5 N 0.3742(2) 0.5591(2) 0.5394(3)
H3_9 H 0.537818 0.361043 0.598119
H4_7 H 0.531049 0.376041 0.498871
H5_9 H 0.362056 0.206986 0.871989
H6_9 H 0.36577 0.216421 0.972576
H7_8 H 0.189865 0.236429 0.866421
H8_8 H 0.198935 0.231854 0.967005
O10_10 O 0.0109(2) 0.1205(2) 0.6678(3)
H5_10 H 0.0430137 0.112056 0.621989
H6_10 H 0.0335787 0.11577 0.722576
Dy1_5 Dy 0.923132(12) 0.043285(12) 0.659225(15)
O1_10 O 0.86747(18) 0.16143(19) 0.4422(2)
O2_10 O 0.91906(18) 0.09818(18) 0.5343(2)
N1_10 N 0.8000(2) 0.0629(2) 0.3739(3)
C1_10 C 0.7782(3) 0.0040(3) 0.3481(4)
C3_10 C 0.8451(2) 0.0485(2) 0.4357(3)
C4_10 C 0.8798(3) 0.1043(3) 0.4739(3)
O11_10 O 0.8838(2) 0.2562(2) 0.3010(3)
O12_5 O 0.8752(2) 0.13270(18) 0.7325(3)
O13_6 O 0.71267(18) 0.16927(18) 0.4417(2)
O14_5 O 0.8688(2) 0.12532(19) 0.2464(2)
N5_5 N 0.7984(2) 0.0550(2) 0.6376(3)
N6_6 N 0.6909(2) 0.1242(2) 0.2894(3)
H3_10 H 0.888957 0.287818 0.348119
H4_8 H 0.873959 0.281049 0.248871
O3_10 O 0.91340(19) 0.9580(2) 0.5634(3)
O4_7 O 0.88270(18) 0.8748(2) 0.4825(3)
O5_6 O 0.78733(18) 0.83073(18) 0.9417(2)
O6_7 O 0.87532(19) 0.8812(2) 0.9964(2)
N2_7 N 0.8050(2) 0.9516(2) 0.3876(3)
N3_10 N 0.8755(2) 0.9564(2) 0.7403(3)
N4_6 N 0.8091(2) 0.8758(2) 0.7894(3)
H1_10 H 0.7469 0.9995 0.3058
C2_10 C 0.8479(3) 0.9804(3) 0.4441(3)
C5_10 C 0.8837(3) 0.9363(3) 0.5005(3)
C6_10 C 0.8279(3) 0.9122(3) 0.7242(3)
H2_10 H 0.8092 0.9073 0.6714
C7_10 C 0.8901(3) 0.9467(3) 0.8240(3)
C8_10 C 0.8490(2) 0.8969(2) 0.8530(3)
C9_10 C 0.8371(3) 0.8688(3) 0.9368(3)
C10_10 C 0.9431(2) 0.9888(3) 0.8589(3)
Dy3_7 Dy 0.793285(12) 0.826868(12) 0.409225(15)
O11_11 O 0.0062(2) 0.8662(2) 0.0510(3)
H3_11 H 0.0378185 0.861043 0.0981192
H1_11 H 0.7495 0.0031 0.0558
O13_7 O 0.91927(18) 0.03733(18) 0.1917(2)
N6_7 N 0.8742(2) 0.0591(2) 0.0394(3)
O1_11 O 0.91143(19) 0.88253(18) 0.1922(2)
O2_11 O 0.84818(18) 0.83094(18) 0.2843(2)
O3_11 O 0.7080(2) 0.83660(19) 0.3134(3)
O4_8 O 0.6248(2) 0.86730(18) 0.2325(3)
O5_7 O 0.58073(18) 0.96267(18) 0.6917(2)
O6_8 O 0.6312(2) 0.87468(19) 0.7464(2)
N1_11 N 0.8129(2) 0.9500(2) 0.1239(3)
N2_8 N 0.7016(2) 0.9450(2) 0.1376(3)
N3_11 N 0.7064(2) 0.8745(2) 0.4903(3)
N4_7 N 0.6258(2) 0.9409(2) 0.5394(3)
C1_11 C 0.7540(3) 0.9718(3) 0.0981(4)
C2_11 C 0.7304(3) 0.9021(3) 0.1941(3)
C3_11 C 0.7985(2) 0.9049(2) 0.1857(3)
C4_11 C 0.8543(3) 0.8702(3) 0.2239(3)
C5_11 C 0.6863(3) 0.8663(3) 0.2505(3)
C6_11 C 0.6622(3) 0.9221(3) 0.4742(3)
H2_11 H 0.6573 0.9408 0.4214
C7_11 C 0.6967(3) 0.8599(3) 0.5740(3)
C8_11 C 0.6469(2) 0.9010(2) 0.6030(3)
C9_11 C 0.6188(3) 0.9129(3) 0.6868(3)
C10_11 C 0.7388(3) 0.8069(2) 0.6089(3)
O9_9 O 0.7226(2) 0.7333(2) 0.4126(3)
O10_11 O 0.8705(2) 0.7391(2) 0.4178(3)
Dy3_8 Dy 0.576868(12) 0.956715(12) 0.159225(15)
H5_11 H 0.862056 0.706986 0.371989
H6_11 H 0.86577 0.716421 0.472576
H7_9 H 0.689865 0.736429 0.366421
H8_9 H 0.698935 0.731854 0.467005
Dy1_6 Dy 0.423132(12) 0.543285(12) 0.159225(15)
O2_12 O 0.41906(18) 0.59818(18) 0.0343(2)
O3_12 O 0.41340(19) 0.4580(2) 0.0634(3)
O5_8 O 0.28733(18) 0.33073(18) 0.4417(2)
N3_12 N 0.3755(2) 0.4564(2) 0.2403(3)
N4_8 N 0.3091(2) 0.3758(2) 0.2894(3)
C5_12 C 0.3837(3) 0.4363(3) 0.0005(3)
C6_12 C 0.3279(3) 0.4122(3) 0.2242(3)
H2_12 H 0.3092 0.4073 0.1714
C7_12 C 0.3901(3) 0.4467(3) 0.3240(3)
C8_12 C 0.3490(2) 0.3969(2) 0.3530(3)
C9_12 C 0.3371(3) 0.3688(3) 0.4368(3)
C10_12 C 0.4431(2) 0.4888(3) 0.3589(3)
O9_10 O 0.5167(2) 0.4726(2) 0.1626(3)
O10_12 O 0.5109(2) 0.6205(2) 0.1678(3)
O12_6 O 0.3752(2) 0.63270(18) 0.2325(3)
N5_6 N 0.2984(2) 0.5550(2) 0.1376(3)
H5_12 H 0.543014 0.612056 0.121989
H6_12 H 0.533579 0.61577 0.222576
H7_10 H 0.513571 0.439865 0.116421
H8_10 H 0.518146 0.448935 0.217005
O1_12 O 0.36747(18) 0.66143(19) 0.9422(2)
N1_12 N 0.3000(2) 0.5629(2) 0.8739(3)
C1_12 C 0.2782(3) 0.5040(3) 0.8481(4)
H1_12 H 0.2469 0.4995 0.8058
C2_12 C 0.3479(3) 0.4804(3) 0.9441(3)
C3_12 C 0.3451(2) 0.5485(2) 0.9357(3)
C4_12 C 0.3798(3) 0.6043(3) 0.9739(3)
O11_12 O 0.3838(2) 0.7562(2) 0.8010(3)
O13_8 O 0.21267(18) 0.66927(18) 0.9417(2)
O14_6 O 0.3688(2) 0.62532(19) 0.7464(2)
N6_8 N 0.1909(2) 0.6242(2) 0.7894(3)
H3_12 H 0.388957 0.787818 0.848119
H4_9 H 0.373959 0.781049 0.748871
O1_13 O 0.13253(18) 0.33857(19) 0.4422(2)
O2_13 O 0.08094(18) 0.40182(18) 0.5343(2)
O3_13 O 0.08660(19) 0.5420(2) 0.5634(3)
O4_9 O 0.11730(18) 0.6252(2) 0.4825(3)
O6_9 O 0.12468(19) 0.6188(2) 0.9964(2)
N1_13 N 0.2000(2) 0.4371(2) 0.3739(3)
N2_9 N 0.1950(2) 0.5484(2) 0.3876(3)
N3_13 N 0.1245(2) 0.5436(2) 0.7403(3)
C1_13 C 0.2218(3) 0.4960(3) 0.3481(4)
H1_13 H 0.2531 0.5005 0.3058
C2_13 C 0.1521(3) 0.5196(3) 0.4441(3)
C3_13 C 0.1549(2) 0.4515(2) 0.4357(3)
C4_13 C 0.1202(3) 0.3957(3) 0.4739(3)
C5_13 C 0.1163(3) 0.5637(3) 0.5005(3)
C6_13 C 0.1721(3) 0.5878(3) 0.7242(3)
H2_13 H 0.1908 0.5927 0.6714
C7_13 C 0.1099(3) 0.5533(3) 0.8240(3)
C8_13 C 0.1510(2) 0.6031(2) 0.8530(3)
C9_13 C 0.1629(3) 0.6312(3) 0.9368(3)
C10_13 C 0.0569(2) 0.5112(3) 0.8589(3)
O11_13 O 0.1162(2) 0.2438(2) 0.3010(3)
Dy3_9 Dy 0.206715(12) 0.673132(12) 0.409225(15)
H3_13 H 0.111043 0.212182 0.348119
H4_10 H 0.126041 0.218951 0.248871
O9_11 O 0.9833(2) 0.5274(2) 0.6626(3)
O10_13 O 0.9891(2) 0.3795(2) 0.6678(3)
H5_13 H 0.956986 0.387944 0.621989
H6_13 H 0.966421 0.38423 0.722576
H7_11 H 0.986429 0.560135 0.616421
H8_11 H 0.981854 0.551065 0.717005
O1_14 O 0.08857(19) 0.61747(18) 0.1922(2)
O2_14 O 0.15182(18) 0.66906(18) 0.2843(2)
O3_14 O 0.2920(2) 0.66340(19) 0.3134(3)
N1_14 N 0.1871(2) 0.5500(2) 0.1239(3)
N3_14 N 0.2936(2) 0.6255(2) 0.4903(3)
C1_14 C 0.2460(3) 0.5282(3) 0.0981(4)
H1_14 H 0.2505 0.4969 0.0558
C2_14 C 0.2696(3) 0.5979(3) 0.1941(3)
C3_14 C 0.2015(2) 0.5951(2) 0.1857(3)
C4_14 C 0.1457(3) 0.6298(3) 0.2239(3)
C5_14 C 0.3137(3) 0.6337(3) 0.2505(3)
C6_14 C 0.3378(3) 0.5779(3) 0.4742(3)
H2_14 H 0.3427 0.5592 0.4214
C7_14 C 0.3033(3) 0.6401(3) 0.5740(3)
C8_14 C 0.3531(2) 0.5990(2) 0.6030(3)
C9_14 C 0.3812(3) 0.5871(3) 0.6868(3)
C10_14 C 0.2612(3) 0.6931(2) 0.6089(3)
O9_12 O 0.2774(2) 0.7667(2) 0.4126(3)
O10_14 O 0.1295(2) 0.7609(2) 0.4178(3)
H5_14 H 0.137944 0.793014 0.371989
H6_14 H 0.13423 0.783579 0.472576
H7_12 H 0.310135 0.763571 0.366421
H8_12 H 0.301065 0.768146 0.467005
O11_14 O 0.9938(2) 0.6338(2) 0.0510(3)
H3_14 H 0.962182 0.638957 0.0981192
O3_15 O 0.58660(19) 0.0420(2) 0.0634(3)
O6_10 O 0.62468(19) 0.1188(2) 0.4964(2)
N3_15 N 0.6245(2) 0.0436(2) 0.2403(3)
C5_15 C 0.6163(3) 0.0637(3) 0.0005(3)
C6_15 C 0.6721(3) 0.0878(3) 0.2242(3)
H2_15 H 0.6908 0.0927 0.1714
C7_15 C 0.6099(3) 0.0533(3) 0.3240(3)
C8_15 C 0.6510(2) 0.1031(2) 0.3530(3)
C9_15 C 0.6629(3) 0.1312(3) 0.4368(3)
C10_15 C 0.5569(2) 0.0112(3) 0.3589(3)
O9_13 O 0.4833(2) 0.0274(2) 0.1626(3)
H7_13 H 0.486429 0.060135 0.116421
H8_13 H 0.481854 0.0510646 0.217005
O4_10 O 0.61730(18) 0.1252(2) 0.9825(3)
N2_10 N 0.6950(2) 0.0484(2) 0.8876(3)
H1_15 H 0.7531 0.0005 0.8058
C2_15 C 0.6521(3) 0.0196(3) 0.9441(3)
Dy3_10 Dy 0.706715(12) 0.173132(12) 0.909225(15)
O2_15 O 0.58094(18) 0.90182(18) 0.0343(2)
O10_15 O 0.4891(2) 0.8795(2) 0.1678(3)
H5_15 H 0.456986 0.887944 0.121989
H6_15 H 0.466421 0.88423 0.222576
O1_15 O 0.63253(18) 0.83857(19) 0.9422(2)
N1_15 N 0.7000(2) 0.9371(2) 0.8739(3)
C1_15 C 0.7218(3) 0.9960(3) 0.8481(4)
C3_15 C 0.6549(2) 0.9515(2) 0.9357(3)
C4_15 C 0.6202(3) 0.8957(3) 0.9739(3)
O11_15 O 0.6162(2) 0.7438(2) 0.8010(3)
H3_15 H 0.611043 0.712182 0.848119
H4_11 H 0.626041 0.718951 0.748871
C7_16 C 0.8033(3) 0.1401(3) 0.0740(3)
C8_16 C 0.8531(2) 0.0990(2) 0.1030(3)
C9_16 C 0.8812(3) 0.0871(3) 0.1868(3)
C10_16 C 0.7612(3) 0.1931(2) 0.1089(3)
O1_16 O 0.58857(19) 0.11747(18) 0.6922(2)
O2_16 O 0.65182(18) 0.16906(18) 0.7843(2)
O3_16 O 0.7920(2) 0.16340(19) 0.8134(3)
N1_16 N 0.6871(2) 0.0500(2) 0.6239(3)
N3_16 N 0.7936(2) 0.1255(2) 0.9903(3)
C1_16 C 0.7460(3) 0.0282(3) 0.5981(4)
C2_16 C 0.7696(3) 0.0979(3) 0.6941(3)
C3_16 C 0.7015(2) 0.0951(2) 0.6857(3)
C4_16 C 0.6457(3) 0.1298(3) 0.7239(3)
C5_16 C 0.8137(3) 0.1337(3) 0.7505(3)
C6_16 C 0.8378(3) 0.0779(3) 0.9742(3)
H2_16 H 0.8427 0.0592 0.9214
O9_14 O 0.7774(2) 0.2667(2) 0.9126(3)
O10_16 O 0.6295(2) 0.2609(2) 0.9178(3)
O11_16 O 0.4938(2) 0.1338(2) 0.5510(3)
H3_16 H 0.462182 0.138957 0.598119
H4_12 H 0.468951 0.123959 0.498871
H5_16 H 0.637944 0.293014 0.871989
H6_16 H 0.63423 0.283579 0.972576
H7_14 H 0.810135 0.263571 0.866421
H8_14 H 0.801065 0.268146 0.967005
H1_16 H 0.7505 0.9969 0.5558
O9_15 O 0.9833(2) 0.0274(2) 0.3374(3)
H7_15 H 0.986429 0.060135 0.383579
H8_15 H 0.981854 0.0510646 0.282995
H4_13 H 0.968951 0.123959 0.00112889
H4_14 H 0.0310486 0.376041 0.00112889
O9_16 O 0.0167(2) 0.9726(2) 0.6626(3)
H7_16 H 0.0135708 0.939865 0.616421
H8_16 H 0.0181461 0.948935 0.717005
H4_15 H 0.0310486 0.876041 0.998871
H4_16 H 0.968951 0.623959 0.998871
loop_
_geom_bond_atom_site_label_1
_geom_bond_atom_site_label_2
_geom_bond_site_symmetry_1
_geom_bond_site_symmetry_2
Dy1 O2 1_555 1_555
Dy2 O1 1_555 1_555
O1 C4 1_555 1_555
O2 C4 1_555 1_555
O3 Dy1 1_555 1_555
O4 C5 1_555 1_555
N1 Dy2 1_555 1_555
N2 C1 1_555 1_555
N3 Dy1 1_555 1_555
C1 N1 1_555 1_555
H1 C1 1_555 1_555
C2 N2 1_555 1_555
C3 N1 1_555 1_555
C4 C3 1_555 1_555
C5 O3 1_555 1_555
C6 N3 1_555 1_555
H2 C6 1_555 1_555
O9 Dy1 1_555 1_555
O10 Dy1 1_555 1_555
O11 Dy2 1_555 1_555
Dy3 O4 1_555 1_555
O12 Dy1 1_555 1_555
O13 Dy2 1_555 1_555
O14 Dy2 1_555 1_555
O15 Dy2 1_555 1_555
O16 Dy2 1_555 1_555
O17 Dy2 1_555 1_555
N5 Dy1 1_555 1_555
N6 Dy2 1_555 1_555
N2 Dy3 1_555 1_555
C2 C3 1_555 1_555
C2 C5 1_555 1_555
O11 H3 1_555 1_555
O11 H4 1_555 1_555
O10 H5 1_555 1_555
O10 H6 1_555 1_555
O9 H7 1_555 1_555
O9 H8 1_555 1_555
O5 C9 1_555 1_555
O6 C9 1_555 1_555
O7 C10 1_555 1_555
C8 N4 1_555 1_555
C9 C8 1_555 1_555
C10 O8 1_555 1_555
Dy4 O5 1_555 1_555
Dy5 O6 1_555 1_555
Dy6 O7 1_555 1_555
O7 Dy5 1_555 1_555
O8 Dy6 1_555 1_555
N4 Dy4 1_555 1_555
C7 C8 1_555 1_555
C7 C10 1_555 1_555
O4_2 C5_2 1_555 1_555
O5_2 C9_2 1_555 1_555
O6_2 C9_2 1_555 1_555
O7_2 C10_2 1_555 1_555
N4_2 C6_2 1_555 1_555
C2_2 N2_2 1_555 1_555
C5_2 O3_2 1_555 1_555
C6_2 N3_2 1_555 1_555
H2_2 C6_2 1_555 1_555
C7_2 N3_2 1_555 1_555
C8_2 N4_2 1_555 1_555
C9_2 C8_2 1_555 1_555
Dy3_2 O4_2 1_555 1_555
Dy4_2 O5_2 1_555 1_555
N2_2 Dy3_2 1_555 1_555
N4_2 Dy4_2 1_555 1_555
C2_2 C5_2 1_555 1_555
C7_2 C8_2 1_555 1_555
C7_2 C10_2 1_555 1_555
Dy1_2 O2_2 1_555 1_555
Dy2_2 O1_2 1_555 1_555
O1_2 C4_2 1_555 1_555
O2_2 C4_2 1_555 1_555
O8_2 Dy1_2 1_555 1_555
N1_2 Dy2_2 1_555 1_555
C1_2 N1_2 1_555 1_555
C3_2 N1_2 1_555 1_555
C4_2 C3_2 1_555 1_555
O11_2 Dy2_2 1_555 1_555
O12_2 Dy1_2 1_555 1_555
O13_2 Dy2_2 1_555 1_555
O14_2 Dy2_2 1_555 1_555
O15_2 Dy2_2 1_555 1_555
O16_2 Dy2_2 1_555 1_555
O17_2 Dy2_2 1_555 1_555
N5_2 Dy1_2 1_555 1_555
N6_2 Dy2_2 1_555 1_555
O11_2 H3_2 1_555 1_555
O11_2 H4_2 1_555 1_555
O10_2 H5_2 1_555 1_555
O10_2 H6_2 1_555 1_555
Dy3_2 O2_3 1_555 1_555
Dy5_2 O1_3 1_555 1_555
O1_3 C4_3 1_555 1_555
O2_3 C4_3 1_555 1_555
O3_3 Dy3_2 1_555 1_555
O4_3 C5_3 1_555 1_555
O5_3 C9_3 1_555 1_555
O6_3 C9_3 1_555 1_555
O7_3 C10_3 1_555 1_555
O8_3 Dy3_2 1_555 1_555
N1_3 Dy5_2 1_555 1_555
N2_3 C1_3 1_555 1_555
N3_3 Dy3_2 1_555 1_555
N4_3 C6_3 1_555 1_555
C1_3 N1_3 1_555 1_555
C2_3 N2_3 1_555 1_555
C3_3 N1_3 1_555 1_555
C4_3 C3_3 1_555 1_555
C5_3 O3_3 1_555 1_555
C6_3 N3_3 1_555 1_555
H2_3 C6_3 1_555 1_555
C7_3 N3_3 1_555 1_555
C8_3 N4_3 1_555 1_555
C9_3 C8_3 1_555 1_555
C10_3 O8_3 1_555 1_555
O9_2 Dy3_2 1_555 1_555
O10_3 Dy3_2 1_555 1_555
Dy3_3 O4_3 1_555 1_555
Dy4_2 O6_3 1_555 1_555
Dy6_3 O7_3 1_555 1_555
O7_3 Dy4_2 1_555 1_555
O8_3 Dy6_3 1_555 1_555
N2_3 Dy3_3 1_555 1_555
C2_3 C3_3 1_555 1_555
C2_3 C5_3 1_555 1_555
C7_3 C8_3 1_555 1_555
C7_3 C10_3 1_555 1_555
O10_3 H5_3 1_555 1_555
O10_3 H6_3 1_555 1_555
O9_2 H7_2 1_555 1_555
O9_2 H8_2 1_555 1_555
O11_3 H3_3 1_555 1_555
Dy2_3 O1_4 1_555 1_555
O1_4 C4_4 1_555 1_555
N1_4 Dy2_3 1_555 1_555
N5 C1_4 1_555 1_555
C1_4 N1_4 1_555 1_555
H1_4 C1_4 1_555 1_555
C2_4 N5 1_555 1_555
C3_4 N1_4 1_555 1_555
C4_4 C3_4 1_555 1_555
O11_4 Dy2_3 1_555 1_555
O13_4 Dy2_3 1_555 1_555
O14_3 Dy2_3 1_555 1_555
O15_3 Dy2_3 1_555 1_555
O16_4 Dy2_3 1_555 1_555
O17_4 Dy2_3 1_555 1_555
N6_4 Dy2_3 1_555 1_555
C2_4 C3_4 1_555 1_555
O11_4 H3_4 1_555 1_555
O11_4 H4_3 1_555 1_555
Dy1_3 O2_4 1_555 1_555
O3_4 Dy1_3 1_555 1_555
O5_4 C9_4 1_555 1_555
O14 C9_4 1_555 1_555
O15 C10_4 1_555 1_555
O8_4 Dy1_3 1_555 1_555
N3_4 Dy1_3 1_555 1_555
N4_4 C6_4 1_555 1_555
C5_4 O3_4 1_555 1_555
C6_4 N3_4 1_555 1_555
H2_4 C6_4 1_555 1_555
C7_4 N3_4 1_555 1_555
C8_4 N4_4 1_555 1_555
C9_4 C8_4 1_555 1_555
C10_4 O8_4 1_555 1_555
O9_3 Dy1_3 1_555 1_555
O10_4 Dy1_3 1_555 1_555
Dy5 O5_4 1_555 1_555
Dy6_4 O15 1_555 1_555
O12_3 Dy1_3 1_555 1_555
N5_3 Dy1_3 1_555 1_555
O8_4 Dy6_4 1_555 1_555
N4_4 Dy5 1_555 1_555
C7_4 C8_4 1_555 1_555
C7_4 C10_4 1_555 1_555
O10_4 H5_4 1_555 1_555
O10_4 H6_4 1_555 1_555
O9_3 H7_3 1_555 1_555
O9_3 H8_3 1_555 1_555
O10_5 H5_5 1_555 1_555
O10_5 H6_5 1_555 1_555
O9_4 H7_4 1_555 1_555
O9_4 H8_4 1_555 1_555
Dy3 O2_5 1_555 1_555
Dy5 O1_5 1_555 1_555
O1_5 C4_5 1_555 1_555
O2_5 C4_5 1_555 1_555
O3_5 Dy3 1_555 1_555
O4_4 C5_5 1_555 1_555
O13_4 C9_5 1_555 1_555
O6_4 C9_5 1_555 1_555
O7_4 C10_5 1_555 1_555
O8_5 Dy3 1_555 1_555
N1_5 Dy5 1_555 1_555
N2_4 C1_5 1_555 1_555
N3_5 Dy3 1_555 1_555
N6_4 C6_5 1_555 1_555
C1_5 N1_5 1_555 1_555
H1_5 C1_5 1_555 1_555
C2_5 N2_4 1_555 1_555
C3_5 N1_5 1_555 1_555
C4_5 C3_5 1_555 1_555
C5_5 O3_5 1_555 1_555
C6_5 N3_5 1_555 1_555
H2_5 C6_5 1_555 1_555
C7_5 N3_5 1_555 1_555
C8_5 N6_4 1_555 1_555
C9_5 C8_5 1_555 1_555
C10_5 O8_5 1_555 1_555
O11_5 Dy5 1_555 1_555
Dy3_4 O4_4 1_555 1_555
O16_5 Dy5 1_555 1_555
O17_5 Dy5 1_555 1_555
N2_4 Dy3_4 1_555 1_555
C2_5 C3_5 1_555 1_555
C2_5 C5_5 1_555 1_555
C7_5 C8_5 1_555 1_555
C7_5 C10_5 1_555 1_555
O11_5 H3_5 1_555 1_555
O11_5 H4_4 1_555 1_555
O11_6 H3_6 1_555 1_555
Dy3_4 O2_6 1_555 1_555
Dy4 O1_6 1_555 1_555
O1_6 C4_6 1_555 1_555
O2_6 C4_6 1_555 1_555
O3_6 Dy3_4 1_555 1_555
O12_3 C5_6 1_555 1_555
O13 C9_6 1_555 1_555
O14_3 C9_6 1_555 1_555
O15_3 C10_6 1_555 1_555
O8_6 Dy3_4 1_555 1_555
N1_6 Dy4 1_555 1_555
N5_3 C1_6 1_555 1_555
N3_6 Dy3_4 1_555 1_555
N6 C6_6 1_555 1_555
C1_6 N1_6 1_555 1_555
H1_6 C1_6 1_555 1_555
C2_6 N5_3 1_555 1_555
C3_6 N1_6 1_555 1_555
C4_6 C3_6 1_555 1_555
C5_6 O3_6 1_555 1_555
C6_6 N3_6 1_555 1_555
H2_6 C6_6 1_555 1_555
C7_6 N3_6 1_555 1_555
C8_6 N6 1_555 1_555
C9_6 C8_6 1_555 1_555
C10_6 O8_6 1_555 1_555
O9_5 Dy3_4 1_555 1_555
O10_6 Dy3_4 1_555 1_555
Dy6_6 O15_3 1_555 1_555
O8_6 Dy6_6 1_555 1_555
C2_6 C3_6 1_555 1_555
C2_6 C5_6 1_555 1_555
C7_6 C8_6 1_555 1_555
C7_6 C10_6 1_555 1_555
O10_6 H5_6 1_555 1_555
O10_6 H6_6 1_555 1_555
O9_5 H7_5 1_555 1_555
O9_5 H8_5 1_555 1_555
Dy4_2 O1_7 1_555 1_555
O1_7 C4_7 1_555 1_555
N1_7 Dy4_2 1_555 1_555
C1_7 N1_7 1_555 1_555
C3_7 N1_7 1_555 1_555
C4_7 C3_7 1_555 1_555
O11_7 Dy4_2 1_555 1_555
O16_7 Dy4_2 1_555 1_555
O17_7 Dy4_2 1_555 1_555
O11_7 H3_7 1_555 1_555
O11_7 H4_5 1_555 1_555
Dy3_3 O2_7 1_555 1_555
O8_7 Dy3_3 1_555 1_555
O10_7 Dy3_3 1_555 1_555
O8_7 Dy6_7 1_555 1_555
O10_7 H5_7 1_555 1_555
O10_7 H6_7 1_555 1_555
C2_7 N2_5 1_555 1_555
Dy3_5 O4_5 1_555 1_555
N2_5 Dy3_5 1_555 1_555
O13_2 C9_7 1_555 1_555
O6_5 C9_7 1_555 1_555
O7_5 C10_7 1_555 1_555
N6_2 C6_7 1_555 1_555
C5_7 O3_7 1_555 1_555
C6_7 N3_7 1_555 1_555
H2_7 C6_7 1_555 1_555
C7_7 N3_7 1_555 1_555
C8_7 N6_2 1_555 1_555
C9_7 C8_7 1_555 1_555
Dy4_3 O6_5 1_555 1_555
O7_5 Dy4_3 1_555 1_555
C7_7 C8_7 1_555 1_555
C7_7 C10_7 1_555 1_555
O9_6 H7_6 1_555 1_555
O9_6 H8_6 1_555 1_555
Dy3_5 O2_8 1_555 1_555
Dy4_3 O1_8 1_555 1_555
O1_8 C4_8 1_555 1_555
O2_8 C4_8 1_555 1_555
O3_8 Dy3_5 1_555 1_555
O12_2 C5_8 1_555 1_555
N1_8 Dy4_3 1_555 1_555
N5_2 C1_8 1_555 1_555
N3_8 Dy3_5 1_555 1_555
C1_8 N1_8 1_555 1_555
C2_8 N5_2 1_555 1_555
C3_8 N1_8 1_555 1_555
C4_8 C3_8 1_555 1_555
C5_8 O3_8 1_555 1_555
C6_8 N3_8 1_555 1_555
H2_8 C6_8 1_555 1_555
O9_7 Dy3_5 1_555 1_555
O10_8 Dy3_5 1_555 1_555
O11_8 Dy4_3 1_555 1_555
O17_8 Dy4_3 1_555 1_555
C2_8 C3_8 1_555 1_555
C2_8 C5_8 1_555 1_555
O11_8 H3_8 1_555 1_555
O11_8 H4_6 1_555 1_555
O10_8 H5_8 1_555 1_555
O10_8 H6_8 1_555 1_555
O9_7 H7_7 1_555 1_555
O9_7 H8_7 1_555 1_555
O13_3 C9_8 1_555 1_555
O14_2 C9_8 1_555 1_555
O15_2 C10_8 1_555 1_555
C8_8 N6_3 1_555 1_555
C9_8 C8_8 1_555 1_555
C10_8 O8_8 1_555 1_555
Dy6_8 O15_2 1_555 1_555
O8_8 Dy6_8 1_555 1_555
C7_8 C8_8 1_555 1_555
C7_8 C10_8 1_555 1_555
O5_5 C9_9 1_555 1_555
O6_6 C9_9 1_555 1_555
O16_7 C10_9 1_555 1_555
C8_9 N4_5 1_555 1_555
C9_9 C8_9 1_555 1_555
C10_9 O17_7 1_555 1_555
Dy6_5 O5_5 1_555 1_555
Dy6_3 O6_6 1_555 1_555
O16_7 Dy6_3 1_555 1_555
N4_5 Dy6_5 1_555 1_555
C7_9 C8_9 1_555 1_555
C7_9 C10_9 1_555 1_555
Dy1_4 O2_9 1_555 1_555
Dy6_4 O1_9 1_555 1_555
O1_9 C4_9 1_555 1_555
O2_9 C4_9 1_555 1_555
O3_9 Dy1_4 1_555 1_555
O4_6 C5_9 1_555 1_555
N1_9 Dy6_4 1_555 1_555
N2_6 C1_9 1_555 1_555
N3_9 Dy1_4 1_555 1_555
C1_9 N1_9 1_555 1_555
H1_9 C1_9 1_555 1_555
C2_9 N2_6 1_555 1_555
C3_9 N1_9 1_555 1_555
C4_9 C3_9 1_555 1_555
C5_9 O3_9 1_555 1_555
C6_9 N3_9 1_555 1_555
H2_9 C6_9 1_555 1_555
O9_8 Dy1_4 1_555 1_555
O10_9 Dy1_4 1_555 1_555
O11_9 Dy6_4 1_555 1_555
Dy3_6 O4_6 1_555 1_555
O12_4 Dy1_4 1_555 1_555
O13_5 Dy6_4 1_555 1_555
O14_4 Dy6_4 1_555 1_555
O16 Dy6_4 1_555 1_555
N5_4 Dy1_4 1_555 1_555
N6_5 Dy6_4 1_555 1_555
N2_6 Dy3_6 1_555 1_555
C2_9 C3_9 1_555 1_555
C2_9 C5_9 1_555 1_555
O11_9 H3_9 1_555 1_555
O11_9 H4_7 1_555 1_555
O10_9 H5_9 1_555 1_555
O10_9 H6_9 1_555 1_555
O9_8 H7_8 1_555 1_555
O9_8 H8_8 1_555 1_555
O10_10 H5_10 1_555 1_555
O10_10 H6_10 1_555 1_555
Dy1_5 O2_10 1_555 1_555
Dy6_6 O1_10 1_555 1_555
O1_10 C4_10 1_555 1_555
O2_10 C4_10 1_555 1_555
O17_3 Dy1_5 1_555 1_555
N1_10 Dy6_6 1_555 1_555
C1_10 N1_10 1_555 1_555
C3_10 N1_10 1_555 1_555
C4_10 C3_10 1_555 1_555
O11_10 Dy6_6 1_555 1_555
O12_5 Dy1_5 1_555 1_555
O13_6 Dy6_6 1_555 1_555
O14_5 Dy6_6 1_555 1_555
O16_4 Dy6_6 1_555 1_555
N5_5 Dy1_5 1_555 1_555
N6_6 Dy6_6 1_555 1_555
O11_10 H3_10 1_555 1_555
O11_10 H4_8 1_555 1_555
O4_7 C5_10 1_555 1_555
O5_6 C9_10 1_555 1_555
O6_7 C9_10 1_555 1_555
O16_3 C10_10 1_555 1_555
N4_6 C6_10 1_555 1_555
C2_10 N2_7 1_555 1_555
C5_10 O3_10 1_555 1_555
C6_10 N3_10 1_555 1_555
H2_10 C6_10 1_555 1_555
C7_10 N3_10 1_555 1_555
C8_10 N4_6 1_555 1_555
C9_10 C8_10 1_555 1_555
Dy3_7 O4_7 1_555 1_555
Dy6 O5_6 1_555 1_555
N2_7 Dy3_7 1_555 1_555
N4_6 Dy6 1_555 1_555
C2_10 C5_10 1_555 1_555
C7_10 C8_10 1_555 1_555
C7_10 C10_10 1_555 1_555
O11_11 H3_11 1_555 1_555
Dy3_7 O2_11 1_555 1_555
Dy6_2 O1_11 1_555 1_555
O1_11 C4_11 1_555 1_555
O2_11 C4_11 1_555 1_555
O3_11 Dy3_7 1_555 1_555
O4_8 C5_11 1_555 1_555
O5_7 C9_11 1_555 1_555
O6_8 C9_11 1_555 1_555
O16_5 C10_11 1_555 1_555
O17_5 Dy3_7 1_555 1_555
N1_11 Dy6_2 1_555 1_555
N2_8 C1_11 1_555 1_555
N3_11 Dy3_7 1_555 1_555
N4_7 C6_11 1_555 1_555
C1_11 N1_11 1_555 1_555
C2_11 N2_8 1_555 1_555
C3_11 N1_11 1_555 1_555
C4_11 C3_11 1_555 1_555
C5_11 O3_11 1_555 1_555
C6_11 N3_11 1_555 1_555
H2_11 C6_11 1_555 1_555
C7_11 N3_11 1_555 1_555
C8_11 N4_7 1_555 1_555
C9_11 C8_11 1_555 1_555
C10_11 O17_5 1_555 1_555
O9_9 Dy3_7 1_555 1_555
O10_11 Dy3_7 1_555 1_555
Dy3_8 O4_8 1_555 1_555
Dy6 O6_8 1_555 1_555
O16_5 Dy6 1_555 1_555
N2_8 Dy3_8 1_555 1_555
C2_11 C3_11 1_555 1_555
C2_11 C5_11 1_555 1_555
C7_11 C8_11 1_555 1_555
C7_11 C10_11 1_555 1_555
O10_11 H5_11 1_555 1_555
O10_11 H6_11 1_555 1_555
O9_9 H7_9 1_555 1_555
O9_9 H8_9 1_555 1_555
Dy1_6 O2_12 1_555 1_555
O3_12 Dy1_6 1_555 1_555
O5_8 C9_12 1_555 1_555
O14_4 C9_12 1_555 1_555
O16 C10_12 1_555 1_555
O17 Dy1_6 1_555 1_555
N3_12 Dy1_6 1_555 1_555
N4_8 C6_12 1_555 1_555
C5_12 O3_12 1_555 1_555
C6_12 N3_12 1_555 1_555
H2_12 C6_12 1_555 1_555
C7_12 N3_12 1_555 1_555
C8_12 N4_8 1_555 1_555
C9_12 C8_12 1_555 1_555
C10_12 O17 1_555 1_555
O9_10 Dy1_6 1_555 1_555
O10_12 Dy1_6 1_555 1_555
Dy6_3 O5_8 1_555 1_555
O12_6 Dy1_6 1_555 1_555
N5_6 Dy1_6 1_555 1_555
N4_8 Dy6_3 1_555 1_555
C7_12 C8_12 1_555 1_555
C7_12 C10_12 1_555 1_555
O10_12 H5_12 1_555 1_555
O10_12 H6_12 1_555 1_555
O9_10 H7_10 1_555 1_555
O9_10 H8_10 1_555 1_555
Dy6_8 O1_12 1_555 1_555
O1_12 C4_12 1_555 1_555
N1_12 Dy6_8 1_555 1_555
N5_4 C1_12 1_555 1_555
C1_12 N1_12 1_555 1_555
H1_12 C1_12 1_555 1_555
C2_12 N5_4 1_555 1_555
C3_12 N1_12 1_555 1_555
C4_12 C3_12 1_555 1_555
O11_12 Dy6_8 1_555 1_555
O13_8 Dy6_8 1_555 1_555
O14_6 Dy6_8 1_555 1_555
O16_2 Dy6_8 1_555 1_555
N6_8 Dy6_8 1_555 1_555
C2_12 C3_12 1_555 1_555
O11_12 H3_12 1_555 1_555
O11_12 H4_9 1_555 1_555
Dy3_6 O2_13 1_555 1_555
Dy6_3 O1_13 1_555 1_555
O1_13 C4_13 1_555 1_555
O2_13 C4_13 1_555 1_555
O3_13 Dy3_6 1_555 1_555
O4_9 C5_13 1_555 1_555
O13_8 C9_13 1_555 1_555
O6_9 C9_13 1_555 1_555
O16_6 C10_13 1_555 1_555
O17_6 Dy3_6 1_555 1_555
N1_13 Dy6_3 1_555 1_555
N2_9 C1_13 1_555 1_555
N3_13 Dy3_6 1_555 1_555
N6_8 C6_13 1_555 1_555
C1_13 N1_13 1_555 1_555
H1_13 C1_13 1_555 1_555
C2_13 N2_9 1_555 1_555
C3_13 N1_13 1_555 1_555
C4_13 C3_13 1_555 1_555
C5_13 O3_13 1_555 1_555
C6_13 N3_13 1_555 1_555
H2_13 C6_13 1_555 1_555
C7_13 N3_13 1_555 1_555
C8_13 N6_8 1_555 1_555
C9_13 C8_13 1_555 1_555
C10_13 O17_6 1_555 1_555
O11_13 Dy6_3 1_555 1_555
Dy3_9 O4_9 1_555 1_555
N2_9 Dy3_9 1_555 1_555
C2_13 C3_13 1_555 1_555
C2_13 C5_13 1_555 1_555
C7_13 C8_13 1_555 1_555
C7_13 C10_13 1_555 1_555
O11_13 H3_13 1_555 1_555
O11_13 H4_10 1_555 1_555
O10_13 H5_13 1_555 1_555
O10_13 H6_13 1_555 1_555
O9_11 H7_11 1_555 1_555
O9_11 H8_11 1_555 1_555
Dy3_9 O2_14 1_555 1_555
Dy6_5 O1_14 1_555 1_555
O1_14 C4_14 1_555 1_555
O2_14 C4_14 1_555 1_555
O3_14 Dy3_9 1_555 1_555
O12_6 C5_14 1_555 1_555
O13_5 C9_14 1_555 1_555
O14_6 C9_14 1_555 1_555
O16_2 C10_14 1_555 1_555
O17_2 Dy3_9 1_555 1_555
N1_14 Dy6_5 1_555 1_555
N5_6 C1_14 1_555 1_555
N3_14 Dy3_9 1_555 1_555
N6_5 C6_14 1_555 1_555
C1_14 N1_14 1_555 1_555
H1_14 C1_14 1_555 1_555
C2_14 N5_6 1_555 1_555
C3_14 N1_14 1_555 1_555
C4_14 C3_14 1_555 1_555
C5_14 O3_14 1_555 1_555
C6_14 N3_14 1_555 1_555
H2_14 C6_14 1_555 1_555
C7_14 N3_14 1_555 1_555
C8_14 N6_5 1_555 1_555
C9_14 C8_14 1_555 1_555
C10_14 O17_2 1_555 1_555
O9_12 Dy3_9 1_555 1_555
O10_14 Dy3_9 1_555 1_555
C2_14 C3_14 1_555 1_555
C2_14 C5_14 1_555 1_555
C7_14 C8_14 1_555 1_555
C7_14 C10_14 1_555 1_555
O10_14 H5_14 1_555 1_555
O10_14 H6_14 1_555 1_555
O9_12 H7_12 1_555 1_555
O9_12 H8_12 1_555 1_555
O11_14 H3_14 1_555 1_555
O13_6 C9_15 1_555 1_555
O6_10 C9_15 1_555 1_555
O16_8 C10_15 1_555 1_555
N6_6 C6_15 1_555 1_555
C5_15 O3_15 1_555 1_555
C6_15 N3_15 1_555 1_555
H2_15 C6_15 1_555 1_555
C7_15 N3_15 1_555 1_555
C8_15 N6_6 1_555 1_555
C9_15 C8_15 1_555 1_555
Dy6_7 O6_10 1_555 1_555
O16_8 Dy6_7 1_555 1_555
C7_15 C8_15 1_555 1_555
C7_15 C10_15 1_555 1_555
O9_13 H7_13 1_555 1_555
O9_13 H8_13 1_555 1_555
C2_15 N2_10 1_555 1_555
Dy3_10 O4_10 1_555 1_555
N2_10 Dy3_10 1_555 1_555
Dy3_8 O2_15 1_555 1_555
O17_8 Dy3_8 1_555 1_555
O10_15 Dy3_8 1_555 1_555
O10_15 H5_15 1_555 1_555
O10_15 H6_15 1_555 1_555
Dy6 O1_15 1_555 1_555
O1_15 C4_15 1_555 1_555
N1_15 Dy6 1_555 1_555
C1_15 N1_15 1_555 1_555
C3_15 N1_15 1_555 1_555
C4_15 C3_15 1_555 1_555
O11_15 Dy6 1_555 1_555
O11_15 H3_15 1_555 1_555
O11_15 H4_11 1_555 1_555
O13_7 C9_16 1_555 1_555
O14_5 C9_16 1_555 1_555
O16_4 C10_16 1_555 1_555
C8_16 N6_7 1_555 1_555
C9_16 C8_16 1_555 1_555
C10_16 O17_4 1_555 1_555
C7_16 C8_16 1_555 1_555
C7_16 C10_16 1_555 1_555
Dy3_10 O2_16 1_555 1_555
Dy6_7 O1_16 1_555 1_555
O1_16 C4_16 1_555 1_555
O2_16 C4_16 1_555 1_555
O3_16 Dy3_10 1_555 1_555
O12_5 C5_16 1_555 1_555
N1_16 Dy6_7 1_555 1_555
N5_5 C1_16 1_555 1_555
N3_16 Dy3_10 1_555 1_555
C1_16 N1_16 1_555 1_555
C2_16 N5_5 1_555 1_555
C3_16 N1_16 1_555 1_555
C4_16 C3_16 1_555 1_555
C5_16 O3_16 1_555 1_555
C6_16 N3_16 1_555 1_555
H2_16 C6_16 1_555 1_555
O9_14 Dy3_10 1_555 1_555
O10_16 Dy3_10 1_555 1_555
O11_16 Dy6_7 1_555 1_555
C2_16 C3_16 1_555 1_555
C2_16 C5_16 1_555 1_555
O11_16 H3_16 1_555 1_555
O11_16 H4_12 1_555 1_555
O10_16 H5_16 1_555 1_555
O10_16 H6_16 1_555 1_555
O9_14 H7_14 1_555 1_555
O9_14 H8_14 1_555 1_555
O9_15 H7_15 1_555 1_555
O9_15 H8_15 1_555 1_555
O9_16 H7_16 1_555 1_555
O9_16 H8_16 1_555 1_555

#END
