
###############################################################################
#
# This file contains modified crystal structure data generated from the
# MOF subset of the Cambridge Structural Database (CSD) v543 
# hosted by the Cambridge Crystallographic Data Centre (CCDC).
#
# This work is licensed under the Creative Commons
# Attribution-NonCommercial-ShareAlike 4.0 International License.
# To view a copy of this license, visit
# http://creativecommons.org/licenses/by-nc-sa/4.0/
# or send a letter to
# Creative Commons, PO Box 1866, Mountain View, CA 94042, USA.
#
# CIF created using the CSD Python API on 29 September 2022
# The structure has been converted into the P1 space group
# The structure has a 3D framework
# The original CSD entry KAVLID is in the monoclinic crystal system
# The framework has been calculated to contain at least 10.0% void space
# The void calculation uses a probe of radius 1.32A, grid spacing 0.4
# The framework is charged, counterions have been retained in the structure
#
###############################################################################

data_KAVLID
_chemical_formula_moiety         '(C192 H128 N16 Ni8 O40)n'
_symmetry_cell_setting           triclinic
_symmetry_space_group_name_H-M   'P 1'
_symmetry_Int_Tables_number      1
_space_group_name_Hall           'P 1'
loop_
_symmetry_equiv_pos_site_id
_symmetry_equiv_pos_as_xyz
1 x,y,z
_cell_length_a                   18.911(4)
_cell_length_b                   12.318(5)
_cell_length_c                   19.885(4)
_cell_angle_alpha                90
_cell_angle_beta                 95.58(3)
_cell_angle_gamma                90
_cell_volume                     4610.18
loop_
_atom_site_label
_atom_site_type_symbol
_atom_site_fract_x
_atom_site_fract_y
_atom_site_fract_z
O6 O 0.06823(15) 0.0667(2) 0.02775(17)
Ni1 Ni 0.05732(3) 0.08294(4) 0.92530(3)
O1 O 0.11713(17) 0.2296(3) 0.92968(19)
O2 O 0.07444(17) 0.1630(3) 0.83151(19)
O3 O 0.21550(19) 0.6064(3) 0.7437(2)
C11 C 0.0909(2) 0.8264(4) 0.6263(3)
C12 C 0.1455(2) 0.7706(4) 0.6002(3)
H9 H 0.1556 0.7842 0.5551
C13 C 0.1857(3) 0.6950(4) 0.6388(3)
H10 H 0.2231 0.6570 0.6204
C14 C 0.1710(3) 0.6756(4) 0.7038(3)
C15 C 0.1162(3) 0.7290(5) 0.7304(3)
H11 H 0.1060 0.7145 0.7754
C16 C 0.0759(3) 0.8038(5) 0.6914(3)
H12 H 0.0377 0.8398 0.7096
C17 C 0.0488(2) 0.9104(3) 0.5846(3)
C18 C 0.1848(3) 0.5171(4) 0.7718(3)
C19 C 0.2153(3) 0.4849(4) 0.8346(3)
H13 H 0.2537 0.5248 0.8569
C20 C 0.1894(3) 0.3945(4) 0.8646(3)
H14 H 0.2096 0.3728 0.9081
C21 C 0.1340(2) 0.3342(4) 0.8319(3)
C22 C 0.1050(3) 0.3677(4) 0.7689(3)
H15 H 0.0675 0.3270 0.7458
C23 C 0.1301(3) 0.4604(5) 0.7390(3)
H16 H 0.1091 0.4838 0.6961
C24 C 0.1070(2) 0.2360(4) 0.8653(3)
O4 O 0.06823(15) 0.9333(2) 0.52775(17)
Ni3 Ni 0.05732(3) 0.91706(4) 0.42530(3)
N3 N 0.15004(18) 0.9906(3) 0.9223(2)
O7 O 0.00268(16) 0.9525(2) 0.88948(18)
Ni4 Ni 0.94268(3) 0.08294(4) 0.57470(3)
N1 N 0.96338(18) 0.1736(3) 0.9238(2)
N2 N 0.65004(18) 0.4906(3) 0.9223(2)
C1 C 0.9128(2) 0.1668(4) 0.8720(3)
H1 H 0.9205 0.1198 0.8355
C2 C 0.8498(2) 0.2248(4) 0.8688(3)
H2 H 0.8149 0.2159 0.8315
C3 C 0.8383(2) 0.2964(4) 0.9210(3)
C4 C 0.8912(3) 0.3038(4) 0.9736(3)
C5 C 0.9523(2) 0.2418(4) 0.9733(3)
C6 C 0.7722(2) 0.3629(4) 0.9202(3)
C7 C 0.7556(3) 0.4134(5) 0.9777(3)
C8 C 0.6944(3) 0.4754(5) 0.9766(3)
C9 C 0.6670(3) 0.4445(5) 0.8668(3)
H7 H 0.6369 0.4557 0.8263
C10 C 0.7268(3) 0.3800(5) 0.8642(3)
H8 H 0.7360 0.3474 0.8227
O5 O 0.99732(16) 0.9525(2) 0.61052(18)
Ni2 Ni 0.55732(3) 0.58294(4) 0.92530(3)
O3_2 O 0.71550(19) 0.1064(3) 0.7437(2)
C11_2 C 0.5909(2) 0.3264(4) 0.6263(3)
C12_2 C 0.6455(2) 0.2706(4) 0.6002(3)
H9_2 H 0.6556 0.2842 0.5551
C13_2 C 0.6857(3) 0.1950(4) 0.6388(3)
H10_2 H 0.7231 0.1570 0.6204
C14_2 C 0.6710(3) 0.1756(4) 0.7038(3)
C15_2 C 0.6162(3) 0.2290(5) 0.7304(3)
H11_2 H 0.6060 0.2145 0.7754
C16_2 C 0.5759(3) 0.3038(5) 0.6914(3)
H12_2 H 0.5377 0.3398 0.7096
C17_2 C 0.5488(2) 0.4104(3) 0.5846(3)
C18_2 C 0.6848(3) 0.0171(4) 0.7718(3)
H13_2 H 0.7537 0.0248 0.8569
O4_2 O 0.56823(15) 0.4333(2) 0.52775(17)
O5_2 O 0.49732(16) 0.4525(2) 0.61052(18)
Ni3_2 Ni 0.55732(3) 0.41706(4) 0.42530(3)
Ni4_2 Ni 0.44268(3) 0.58294(4) 0.57470(3)
H3 H 0.3857 0.8516 0.0102
H4 H 0.4878 0.7484 0.0103
H5 H 0.2859 0.9060 0.0184
O6_2 O 0.56823(15) 0.5667(2) 0.02775(17)
O1_2 O 0.61713(17) 0.7296(3) 0.92968(19)
O2_2 O 0.57444(17) 0.6630(3) 0.83151(19)
N1_2 N 0.46338(18) 0.6736(3) 0.9238(2)
C1_2 C 0.4128(2) 0.6668(4) 0.8720(3)
H1_2 H 0.4205 0.6198 0.8355
C2_2 C 0.3498(2) 0.7248(4) 0.8688(3)
H2_2 H 0.3149 0.7159 0.8315
C3_2 C 0.3383(2) 0.7964(4) 0.9210(3)
C4_2 C 0.3912(3) 0.8038(4) 0.9736(3)
C5_2 C 0.4523(2) 0.7418(4) 0.9733(3)
C6_2 C 0.2722(2) 0.8629(4) 0.9202(3)
C7_2 C 0.2556(3) 0.9134(5) 0.9777(3)
C8_2 C 0.1944(3) 0.9754(5) 0.9766(3)
C9_2 C 0.1670(3) 0.9445(5) 0.8668(3)
H7_2 H 0.1369 0.9557 0.8263
C10_2 C 0.2268(3) 0.8800(5) 0.8642(3)
H8_2 H 0.2360 0.8474 0.8227
C19_2 C 0.7153(3) 0.9849(4) 0.8346(3)
C20_2 C 0.6894(3) 0.8945(4) 0.8646(3)
H14_2 H 0.7096 0.8728 0.9081
C21_2 C 0.6340(2) 0.8342(4) 0.8319(3)
C22_2 C 0.6050(3) 0.8677(4) 0.7689(3)
H15_2 H 0.5675 0.8270 0.7458
C23_2 C 0.6301(3) 0.9604(5) 0.7390(3)
H16_2 H 0.6091 0.9838 0.6961
C24_2 C 0.6070(2) 0.7360(4) 0.8653(3)
O7_2 O 0.50268(16) 0.4525(2) 0.88948(18)
N1_3 N 0.03662(18) 0.1736(3) 0.5762(2)
N2_2 N 0.34996(18) 0.4906(3) 0.5777(2)
C1_3 C 0.0872(2) 0.1668(4) 0.6280(3)
H1_3 H 0.0795 0.1198 0.6645
C2_3 C 0.1502(2) 0.2248(4) 0.6312(3)
H2_3 H 0.1851 0.2159 0.6685
C3_3 C 0.1617(2) 0.2964(4) 0.5790(3)
C4_3 C 0.1088(3) 0.3038(4) 0.5264(3)
H3_2 H 0.1143 0.3516 0.4898
C5_3 C 0.0477(2) 0.2418(4) 0.5267(3)
H4_2 H 0.0122 0.2484 0.4897
C6_3 C 0.2278(2) 0.3629(4) 0.5798(3)
C7_3 C 0.2444(3) 0.4134(5) 0.5223(3)
H5_2 H 0.2141 0.4060 0.4816
C8_3 C 0.3056(3) 0.4754(5) 0.5234(3)
H6 H 0.3162 0.5089 0.4826
C9_3 C 0.3330(3) 0.4445(5) 0.6332(3)
H7_3 H 0.3631 0.4557 0.6737
C10_3 C 0.2732(3) 0.3800(5) 0.6358(3)
H8_3 H 0.2640 0.3474 0.6773
Ni3_3 Ni 0.94268(3) 0.91706(4) 0.07470(3)
O1_3 O 0.88287(17) 0.2296(3) 0.57032(19)
O2_3 O 0.92556(17) 0.1630(3) 0.66849(19)
O3_3 O 0.78450(19) 0.6064(3) 0.7563(2)
C11_3 C 0.9091(2) 0.8264(4) 0.8737(3)
C12_3 C 0.8545(2) 0.7706(4) 0.8998(3)
H9_3 H 0.8444 0.7842 0.9449
C13_3 C 0.8143(3) 0.6950(4) 0.8612(3)
H10_3 H 0.7769 0.6570 0.8796
C14_3 C 0.8290(3) 0.6756(4) 0.7962(3)
C15_3 C 0.8838(3) 0.7290(5) 0.7696(3)
H11_3 H 0.8940 0.7145 0.7246
C16_3 C 0.9241(3) 0.8038(5) 0.8086(3)
H12_3 H 0.9623 0.8398 0.7904
C17_3 C 0.9512(2) 0.9104(3) 0.9154(3)
C18_3 C 0.8152(3) 0.5171(4) 0.7282(3)
C19_3 C 0.7847(3) 0.4849(4) 0.6654(3)
H13_3 H 0.7463 0.5248 0.6431
C20_3 C 0.8106(3) 0.3945(4) 0.6354(3)
H14_3 H 0.7904 0.3728 0.5919
C21_3 C 0.8660(2) 0.3342(4) 0.6681(3)
C22_3 C 0.8950(3) 0.3677(4) 0.7311(3)
H15_3 H 0.9325 0.3270 0.7542
C23_3 C 0.8699(3) 0.4604(5) 0.7610(3)
H16_3 H 0.8909 0.4838 0.8039
C24_3 C 0.8930(2) 0.2360(4) 0.6347(3)
O4_3 O 0.93177(15) 0.9333(2) 0.97225(17)
O6_3 O 0.93177(15) 0.0667(2) 0.47225(17)
N3_2 N 0.84996(18) 0.9906(3) 0.5777(2)
Ni3_4 Ni 0.44268(3) 0.41706(4) 0.07470(3)
O3_4 O 0.28450(19) 0.1064(3) 0.7563(2)
H6_2 H 0.8162 0.0089 0.4826
C11_4 C 0.4091(2) 0.3264(4) 0.8737(3)
C12_4 C 0.3545(2) 0.2706(4) 0.8998(3)
H9_4 H 0.3444 0.2842 0.9449
C13_4 C 0.3143(3) 0.1950(4) 0.8612(3)
H10_4 H 0.2769 0.1570 0.8796
C14_4 C 0.3290(3) 0.1756(4) 0.7962(3)
C15_4 C 0.3838(3) 0.2290(5) 0.7696(3)
H11_4 H 0.3940 0.2145 0.7246
C16_4 C 0.4241(3) 0.3038(5) 0.8086(3)
H12_4 H 0.4623 0.3398 0.7904
C17_4 C 0.4512(2) 0.4104(3) 0.9154(3)
C18_4 C 0.3152(3) 0.0171(4) 0.7282(3)
H13_4 H 0.2463 0.0248 0.6431
O4_4 O 0.43177(15) 0.4333(2) 0.97225(17)
O1_4 O 0.38287(17) 0.7296(3) 0.57032(19)
O2_4 O 0.42556(17) 0.6630(3) 0.66849(19)
N1_4 N 0.53662(18) 0.6736(3) 0.5762(2)
C1_4 C 0.5872(2) 0.6668(4) 0.6280(3)
H1_4 H 0.5795 0.6198 0.6645
C2_4 C 0.6502(2) 0.7248(4) 0.6312(3)
H2_4 H 0.6851 0.7159 0.6685
C3_4 C 0.6617(2) 0.7964(4) 0.5790(3)
C4_4 C 0.6088(3) 0.8038(4) 0.5264(3)
H3_3 H 0.6143 0.8516 0.4898
C5_4 C 0.5477(2) 0.7418(4) 0.5267(3)
H4_3 H 0.5122 0.7484 0.4897
C6_4 C 0.7278(2) 0.8629(4) 0.5798(3)
C7_4 C 0.7444(3) 0.9134(5) 0.5223(3)
H5_3 H 0.7141 0.9060 0.4816
C8_4 C 0.8056(3) 0.9754(5) 0.5234(3)
C9_4 C 0.8330(3) 0.9445(5) 0.6332(3)
H7_4 H 0.8631 0.9557 0.6737
C10_4 C 0.7732(3) 0.8800(5) 0.6358(3)
H8_4 H 0.7640 0.8474 0.6773
C19_4 C 0.2847(3) 0.9849(4) 0.6654(3)
C20_4 C 0.3106(3) 0.8945(4) 0.6354(3)
H14_4 H 0.2904 0.8728 0.5919
C21_4 C 0.3660(2) 0.8342(4) 0.6681(3)
C22_4 C 0.3950(3) 0.8677(4) 0.7311(3)
H15_4 H 0.4325 0.8270 0.7542
C23_4 C 0.3699(3) 0.9604(5) 0.7610(3)
H16_4 H 0.3909 0.9838 0.8039
C24_4 C 0.3930(2) 0.7360(4) 0.6347(3)
O6_4 O 0.43177(15) 0.5667(2) 0.47225(17)
N1_5 N 0.03662(18) 0.8264(3) 0.0762(2)
N2_3 N 0.34996(18) 0.5094(3) 0.0777(2)
C1_5 C 0.0872(2) 0.8332(4) 0.1280(3)
H1_5 H 0.0795 0.8802 0.1645
C2_5 C 0.1502(2) 0.7752(4) 0.1312(3)
H2_5 H 0.1851 0.7841 0.1685
C3_5 C 0.1617(2) 0.7036(4) 0.0790(3)
C4_5 C 0.1088(3) 0.6962(4) 0.0264(3)
C5_5 C 0.0477(2) 0.7582(4) 0.0267(3)
C6_5 C 0.2278(2) 0.6371(4) 0.0798(3)
C7_5 C 0.2444(3) 0.5866(5) 0.0223(3)
C8_5 C 0.3056(3) 0.5246(5) 0.0234(3)
C9_5 C 0.3330(3) 0.5555(5) 0.1332(3)
H7_5 H 0.3631 0.5443 0.1737
C10_5 C 0.2732(3) 0.6200(5) 0.1358(3)
H8_5 H 0.2640 0.6526 0.1773
O5_3 O 0.00268(16) 0.0475(2) 0.38948(18)
N3_3 N 0.84996(18) 0.0094(3) 0.0777(2)
O7_3 O 0.99732(16) 0.0475(2) 0.11052(18)
O1_5 O 0.88287(17) 0.7704(3) 0.07032(19)
O2_5 O 0.92556(17) 0.8370(3) 0.16849(19)
O3_5 O 0.78450(19) 0.3936(3) 0.2563(2)
C11_5 C 0.9091(2) 0.1736(4) 0.3737(3)
C12_5 C 0.8545(2) 0.2294(4) 0.3998(3)
H9_5 H 0.8444 0.2158 0.4449
C13_5 C 0.8143(3) 0.3050(4) 0.3612(3)
H10_5 H 0.7769 0.3430 0.3796
C14_5 C 0.8290(3) 0.3244(4) 0.2962(3)
C15_5 C 0.8838(3) 0.2710(5) 0.2696(3)
H11_5 H 0.8940 0.2855 0.2246
C16_5 C 0.9241(3) 0.1962(5) 0.3086(3)
H12_5 H 0.9623 0.1602 0.2904
C17_5 C 0.9512(2) 0.0896(3) 0.4154(3)
C18_5 C 0.8152(3) 0.4829(4) 0.2282(3)
C19_5 C 0.7847(3) 0.5151(4) 0.1654(3)
H13_5 H 0.7463 0.4752 0.1431
C20_5 C 0.8106(3) 0.6055(4) 0.1354(3)
H14_5 H 0.7904 0.6272 0.0919
C21_5 C 0.8660(2) 0.6658(4) 0.1681(3)
C22_5 C 0.8950(3) 0.6323(4) 0.2311(3)
H15_5 H 0.9325 0.6730 0.2542
C23_5 C 0.8699(3) 0.5396(5) 0.2610(3)
H16_5 H 0.8909 0.5162 0.3039
C24_5 C 0.8930(2) 0.7640(4) 0.1347(3)
O1_6 O 0.38287(17) 0.2704(3) 0.07032(19)
O2_6 O 0.42556(17) 0.3370(3) 0.16849(19)
N1_6 N 0.53662(18) 0.3264(3) 0.0762(2)
C1_6 C 0.5872(2) 0.3332(4) 0.1280(3)
H1_6 H 0.5795 0.3802 0.1645
C2_6 C 0.6502(2) 0.2752(4) 0.1312(3)
H2_6 H 0.6851 0.2841 0.1685
C3_6 C 0.6617(2) 0.2036(4) 0.0790(3)
C4_6 C 0.6088(3) 0.1962(4) 0.0264(3)
C5_6 C 0.5477(2) 0.2582(4) 0.0267(3)
C6_6 C 0.7278(2) 0.1371(4) 0.0798(3)
C7_6 C 0.7444(3) 0.0866(5) 0.0223(3)
C8_6 C 0.8056(3) 0.0246(5) 0.0234(3)
C9_6 C 0.8330(3) 0.0555(5) 0.1332(3)
H7_6 H 0.8631 0.0443 0.1737
C10_6 C 0.7732(3) 0.1200(5) 0.1358(3)
H8_6 H 0.7640 0.1526 0.1773
C19_6 C 0.2847(3) 0.0151(4) 0.1654(3)
C20_6 C 0.3106(3) 0.1055(4) 0.1354(3)
H14_6 H 0.2904 0.1272 0.0919
C21_6 C 0.3660(2) 0.1658(4) 0.1681(3)
C22_6 C 0.3950(3) 0.1323(4) 0.2311(3)
H15_6 H 0.4325 0.1730 0.2542
C23_6 C 0.3699(3) 0.0396(5) 0.2610(3)
H16_6 H 0.3909 0.0162 0.3039
C24_6 C 0.3930(2) 0.2640(4) 0.1347(3)
O7_4 O 0.49732(16) 0.5475(2) 0.11052(18)
H3_4 H 0.6143 0.1484 0.9898
H4_4 H 0.5122 0.2516 0.9897
H5_4 H 0.7141 0.0940 0.9816
O3_6 O 0.28450(19) 0.8936(3) 0.2563(2)
C11_6 C 0.4091(2) 0.6736(4) 0.3737(3)
C12_6 C 0.3545(2) 0.7294(4) 0.3998(3)
H9_6 H 0.3444 0.7158 0.4449
C13_6 C 0.3143(3) 0.8050(4) 0.3612(3)
H10_6 H 0.2769 0.8430 0.3796
C14_6 C 0.3290(3) 0.8244(4) 0.2962(3)
C15_6 C 0.3838(3) 0.7710(5) 0.2696(3)
H11_6 H 0.3940 0.7855 0.2246
C16_6 C 0.4241(3) 0.6962(5) 0.3086(3)
H12_6 H 0.4623 0.6602 0.2904
C17_6 C 0.4512(2) 0.5896(3) 0.4154(3)
C18_6 C 0.3152(3) 0.9829(4) 0.2282(3)
H13_6 H 0.2463 0.9752 0.1431
O5_4 O 0.50268(16) 0.5475(2) 0.38948(18)
N3_4 N 0.15004(18) 0.0094(3) 0.4223(2)
O1_7 O 0.11713(17) 0.7704(3) 0.42968(19)
O2_7 O 0.07444(17) 0.8370(3) 0.33151(19)
O3_7 O 0.21550(19) 0.3936(3) 0.2437(2)
C11_7 C 0.0909(2) 0.1736(4) 0.1263(3)
C12_7 C 0.1455(2) 0.2294(4) 0.1002(3)
H9_7 H 0.1556 0.2158 0.0551
C13_7 C 0.1857(3) 0.3050(4) 0.1388(3)
H10_7 H 0.2231 0.3430 0.1204
C14_7 C 0.1710(3) 0.3244(4) 0.2038(3)
C15_7 C 0.1162(3) 0.2710(5) 0.2304(3)
H11_7 H 0.1060 0.2855 0.2754
C16_7 C 0.0759(3) 0.1962(5) 0.1914(3)
H12_7 H 0.0377 0.1602 0.2096
C17_7 C 0.0488(2) 0.0896(3) 0.0846(3)
C18_7 C 0.1848(3) 0.4829(4) 0.2718(3)
C19_7 C 0.2153(3) 0.5151(4) 0.3346(3)
H13_7 H 0.2537 0.4752 0.3569
C20_7 C 0.1894(3) 0.6055(4) 0.3646(3)
H14_7 H 0.2096 0.6272 0.4081
C21_7 C 0.1340(2) 0.6658(4) 0.3319(3)
C22_7 C 0.1050(3) 0.6323(4) 0.2689(3)
H15_7 H 0.0675 0.6730 0.2458
C23_7 C 0.1301(3) 0.5396(5) 0.2390(3)
H16_7 H 0.1091 0.5162 0.1961
C24_7 C 0.1070(2) 0.7640(4) 0.3653(3)
N1_7 N 0.96338(18) 0.8264(3) 0.4238(2)
N2_4 N 0.65004(18) 0.5094(3) 0.4223(2)
C1_7 C 0.9128(2) 0.8332(4) 0.3720(3)
H1_7 H 0.9205 0.8802 0.3355
C2_7 C 0.8498(2) 0.7752(4) 0.3688(3)
H2_7 H 0.8149 0.7841 0.3315
C3_7 C 0.8383(2) 0.7036(4) 0.4210(3)
C4_7 C 0.8912(3) 0.6962(4) 0.4736(3)
H3_5 H 0.8857 0.6484 0.5102
C5_7 C 0.9523(2) 0.7582(4) 0.4733(3)
H4_5 H 0.9878 0.7516 0.5103
C6_7 C 0.7722(2) 0.6371(4) 0.4202(3)
C7_7 C 0.7556(3) 0.5866(5) 0.4777(3)
H5_5 H 0.7859 0.5940 0.5184
C8_7 C 0.6944(3) 0.5246(5) 0.4766(3)
H6_3 H 0.6838 0.4911 0.5174
C9_7 C 0.6670(3) 0.5555(5) 0.3668(3)
H7_7 H 0.6369 0.5443 0.3263
C10_7 C 0.7268(3) 0.6200(5) 0.3642(3)
H8_7 H 0.7360 0.6526 0.3227
O1_8 O 0.61713(17) 0.2704(3) 0.42968(19)
O2_8 O 0.57444(17) 0.3370(3) 0.33151(19)
N1_8 N 0.46338(18) 0.3264(3) 0.4238(2)
C1_8 C 0.4128(2) 0.3332(4) 0.3720(3)
H1_8 H 0.4205 0.3802 0.3355
C2_8 C 0.3498(2) 0.2752(4) 0.3688(3)
H2_8 H 0.3149 0.2841 0.3315
C3_8 C 0.3383(2) 0.2036(4) 0.4210(3)
C4_8 C 0.3912(3) 0.1962(4) 0.4736(3)
H3_6 H 0.3857 0.1484 0.5102
C5_8 C 0.4523(2) 0.2582(4) 0.4733(3)
H4_6 H 0.4878 0.2516 0.5103
C6_8 C 0.2722(2) 0.1371(4) 0.4202(3)
C7_8 C 0.2556(3) 0.0866(5) 0.4777(3)
H5_6 H 0.2859 0.0940 0.5184
C8_8 C 0.1944(3) 0.0246(5) 0.4766(3)
C9_8 C 0.1670(3) 0.0555(5) 0.3668(3)
H7_8 H 0.1369 0.0443 0.3263
C10_8 C 0.2268(3) 0.1200(5) 0.3642(3)
H8_8 H 0.2360 0.1526 0.3227
C19_8 C 0.7153(3) 0.0151(4) 0.3346(3)
C20_8 C 0.6894(3) 0.1055(4) 0.3646(3)
H14_8 H 0.7096 0.1272 0.4081
C21_8 C 0.6340(2) 0.1658(4) 0.3319(3)
C22_8 C 0.6050(3) 0.1323(4) 0.2689(3)
H15_8 H 0.5675 0.1730 0.2458
C23_8 C 0.6301(3) 0.0396(5) 0.2390(3)
H16_8 H 0.6091 0.0162 0.1961
C24_8 C 0.6070(2) 0.2640(4) 0.3653(3)
O3_8 O 0.71550(19) 0.8936(3) 0.2437(2)
H6_4 H 0.1838 0.9911 0.5174
C11_8 C 0.5909(2) 0.6736(4) 0.1263(3)
C12_8 C 0.6455(2) 0.7294(4) 0.1002(3)
H9_8 H 0.6556 0.7158 0.0551
C13_8 C 0.6857(3) 0.8050(4) 0.1388(3)
H10_8 H 0.7231 0.8430 0.1204
C14_8 C 0.6710(3) 0.8244(4) 0.2038(3)
C15_8 C 0.6162(3) 0.7710(5) 0.2304(3)
H11_8 H 0.6060 0.7855 0.2754
C16_8 C 0.5759(3) 0.6962(5) 0.1914(3)
H12_8 H 0.5377 0.6602 0.2096
C17_8 C 0.5488(2) 0.5896(3) 0.0846(3)
C18_8 C 0.6848(3) 0.9829(4) 0.2718(3)
H13_8 H 0.7537 0.9752 0.3569
H3_7 H 0.8857 0.3516 0.0102
H4_7 H 0.9878 0.2484 0.0103
H5_7 H 0.7859 0.4060 0.0184
H6_5 H 0.6838 0.5089 0.0174
H6_6 H 0.1838 0.0089 0.0174
H3_8 H 0.1143 0.6484 0.9898
H4_8 H 0.0122 0.7516 0.9897
H5_8 H 0.2141 0.5940 0.9816
H6_7 H 0.3162 0.4911 0.9826
H6_8 H 0.8162 0.9911 0.9826
loop_
_geom_bond_atom_site_label_1
_geom_bond_atom_site_label_2
_geom_bond_site_symmetry_1
_geom_bond_site_symmetry_2
Ni1 O1 1_555 1_555
O1 C24 1_555 1_555
O2 Ni1 1_555 1_555
O3 C14 1_555 1_555
C11 C12 1_555 1_555
C12 H9 1_555 1_555
C13 C12 1_555 1_555
H10 C13 1_555 1_555
C14 C13 1_555 1_555
C15 C14 1_555 1_555
H11 C15 1_555 1_555
C16 C11 1_555 1_555
H12 C16 1_555 1_555
C17 C11 1_555 1_555
C18 O3 1_555 1_555
C19 C18 1_555 1_555
H13 C19 1_555 1_555
C20 C19 1_555 1_555
H14 C20 1_555 1_555
C21 C20 1_555 1_555
C22 C21 1_555 1_555
H15 C22 1_555 1_555
C23 C18 1_555 1_555
H16 C23 1_555 1_555
C24 O2 1_555 1_555
O4 C17 1_555 1_555
Ni3 O4 1_555 1_555
C15 C16 1_555 1_555
C21 C24 1_555 1_555
C22 C23 1_555 1_555
N2 C8 1_555 1_555
C1 N1 1_555 1_555
H1 C1 1_555 1_555
C2 C1 1_555 1_555
H2 C2 1_555 1_555
C3 C2 1_555 1_555
C4 C3 1_555 1_555
C5 N1 1_555 1_555
C6 C3 1_555 1_555
C7 C6 1_555 1_555
C8 C7 1_555 1_555
C9 N2 1_555 1_555
H7 C9 1_555 1_555
C10 C6 1_555 1_555
H8 C10 1_555 1_555
Ni2 N2 1_555 1_555
C4 C5 1_555 1_555
C9 C10 1_555 1_555
O3_2 C14_2 1_555 1_555
C11_2 C12_2 1_555 1_555
C12_2 H9_2 1_555 1_555
C13_2 C12_2 1_555 1_555
H10_2 C13_2 1_555 1_555
C14_2 C13_2 1_555 1_555
C15_2 C14_2 1_555 1_555
H11_2 C15_2 1_555 1_555
C16_2 C11_2 1_555 1_555
H12_2 C16_2 1_555 1_555
C17_2 C11_2 1_555 1_555
C18_2 O3_2 1_555 1_555
O4_2 C17_2 1_555 1_555
O5_2 C17_2 1_555 1_555
Ni3_2 O4_2 1_555 1_555
Ni4_2 O5_2 1_555 1_555
C15_2 C16_2 1_555 1_555
Ni2 O1_2 1_555 1_555
O1_2 C24_2 1_555 1_555
O2_2 Ni2 1_555 1_555
N1_2 Ni2 1_555 1_555
N3 C8_2 1_555 1_555
C1_2 N1_2 1_555 1_555
H1_2 C1_2 1_555 1_555
C2_2 C1_2 1_555 1_555
H2_2 C2_2 1_555 1_555
C3_2 C2_2 1_555 1_555
C4_2 C3_2 1_555 1_555
C5_2 N1_2 1_555 1_555
C6_2 C3_2 1_555 1_555
C7_2 C6_2 1_555 1_555
C8_2 C7_2 1_555 1_555
C9_2 N3 1_555 1_555
H7_2 C9_2 1_555 1_555
C10_2 C6_2 1_555 1_555
H8_2 C10_2 1_555 1_555
C20_2 C19_2 1_555 1_555
H14_2 C20_2 1_555 1_555
C21_2 C20_2 1_555 1_555
C22_2 C21_2 1_555 1_555
H15_2 C22_2 1_555 1_555
H16_2 C23_2 1_555 1_555
C24_2 O2_2 1_555 1_555
O7_2 Ni2 1_555 1_555
C4_2 C5_2 1_555 1_555
C9_2 C10_2 1_555 1_555
C21_2 C24_2 1_555 1_555
C22_2 C23_2 1_555 1_555
N2_2 C8_3 1_555 1_555
C1_3 N1_3 1_555 1_555
H1_3 C1_3 1_555 1_555
C2_3 C1_3 1_555 1_555
H2_3 C2_3 1_555 1_555
C3_3 C2_3 1_555 1_555
C4_3 C3_3 1_555 1_555
H3_2 C4_3 1_555 1_555
C5_3 N1_3 1_555 1_555
H4_2 C5_3 1_555 1_555
C6_3 C3_3 1_555 1_555
C7_3 C6_3 1_555 1_555
H5_2 C7_3 1_555 1_555
C8_3 C7_3 1_555 1_555
H6 C8_3 1_555 1_555
C9_3 N2_2 1_555 1_555
H7_3 C9_3 1_555 1_555
C10_3 C6_3 1_555 1_555
H8_3 C10_3 1_555 1_555
Ni4_2 N2_2 1_555 1_555
C4_3 C5_3 1_555 1_555
C9_3 C10_3 1_555 1_555
Ni4 O1_3 1_555 1_555
O1_3 C24_3 1_555 1_555
O2_3 Ni4 1_555 1_555
O3_3 C14_3 1_555 1_555
C11_3 C12_3 1_555 1_555
C12_3 H9_3 1_555 1_555
C13_3 C12_3 1_555 1_555
H10_3 C13_3 1_555 1_555
C14_3 C13_3 1_555 1_555
C15_3 C14_3 1_555 1_555
H11_3 C15_3 1_555 1_555
C16_3 C11_3 1_555 1_555
H12_3 C16_3 1_555 1_555
C17_3 C11_3 1_555 1_555
C18_3 O3_3 1_555 1_555
C19_3 C18_3 1_555 1_555
H13_3 C19_3 1_555 1_555
C20_3 C19_3 1_555 1_555
H14_3 C20_3 1_555 1_555
C21_3 C20_3 1_555 1_555
C22_3 C21_3 1_555 1_555
H15_3 C22_3 1_555 1_555
C23_3 C18_3 1_555 1_555
H16_3 C23_3 1_555 1_555
C24_3 O2_3 1_555 1_555
O4_3 C17_3 1_555 1_555
O6_3 Ni4 1_555 1_555
C15_3 C16_3 1_555 1_555
C21_3 C24_3 1_555 1_555
C22_3 C23_3 1_555 1_555
O3_4 C14_4 1_555 1_555
C11_4 C12_4 1_555 1_555
C12_4 H9_4 1_555 1_555
C13_4 C12_4 1_555 1_555
H10_4 C13_4 1_555 1_555
C14_4 C13_4 1_555 1_555
C15_4 C14_4 1_555 1_555
H11_4 C15_4 1_555 1_555
C16_4 C11_4 1_555 1_555
H12_4 C16_4 1_555 1_555
C17_4 C11_4 1_555 1_555
C18_4 O3_4 1_555 1_555
O4_4 C17_4 1_555 1_555
O7_2 C17_4 1_555 1_555
C15_4 C16_4 1_555 1_555
Ni4_2 O1_4 1_555 1_555
O1_4 C24_4 1_555 1_555
O2_4 Ni4_2 1_555 1_555
N1_4 Ni4_2 1_555 1_555
N3_2 C8_4 1_555 1_555
C1_4 N1_4 1_555 1_555
H1_4 C1_4 1_555 1_555
C2_4 C1_4 1_555 1_555
H2_4 C2_4 1_555 1_555
C3_4 C2_4 1_555 1_555
C4_4 C3_4 1_555 1_555
H3_3 C4_4 1_555 1_555
C5_4 N1_4 1_555 1_555
H4_3 C5_4 1_555 1_555
C6_4 C3_4 1_555 1_555
C7_4 C6_4 1_555 1_555
H5_3 C7_4 1_555 1_555
C8_4 C7_4 1_555 1_555
C9_4 N3_2 1_555 1_555
H7_4 C9_4 1_555 1_555
C10_4 C6_4 1_555 1_555
H8_4 C10_4 1_555 1_555
C20_4 C19_4 1_555 1_555
H14_4 C20_4 1_555 1_555
C21_4 C20_4 1_555 1_555
C22_4 C21_4 1_555 1_555
H15_4 C22_4 1_555 1_555
H16_4 C23_4 1_555 1_555
C24_4 O2_4 1_555 1_555
O6_4 Ni4_2 1_555 1_555
C4_4 C5_4 1_555 1_555
C9_4 C10_4 1_555 1_555
C21_4 C24_4 1_555 1_555
C22_4 C23_4 1_555 1_555
N2_3 C8_5 1_555 1_555
C1_5 N1_5 1_555 1_555
H1_5 C1_5 1_555 1_555
C2_5 C1_5 1_555 1_555
H2_5 C2_5 1_555 1_555
C3_5 C2_5 1_555 1_555
C4_5 C3_5 1_555 1_555
C5_5 N1_5 1_555 1_555
C6_5 C3_5 1_555 1_555
C7_5 C6_5 1_555 1_555
C8_5 C7_5 1_555 1_555
C9_5 N2_3 1_555 1_555
H7_5 C9_5 1_555 1_555
C10_5 C6_5 1_555 1_555
H8_5 C10_5 1_555 1_555
Ni3_4 N2_3 1_555 1_555
C4_5 C5_5 1_555 1_555
C9_5 C10_5 1_555 1_555
Ni3_3 O1_5 1_555 1_555
O1_5 C24_5 1_555 1_555
O2_5 Ni3_3 1_555 1_555
O3_5 C14_5 1_555 1_555
C11_5 C12_5 1_555 1_555
C12_5 H9_5 1_555 1_555
C13_5 C12_5 1_555 1_555
H10_5 C13_5 1_555 1_555
C14_5 C13_5 1_555 1_555
C15_5 C14_5 1_555 1_555
H11_5 C15_5 1_555 1_555
C16_5 C11_5 1_555 1_555
H12_5 C16_5 1_555 1_555
C17_5 C11_5 1_555 1_555
C18_5 O3_5 1_555 1_555
C19_5 C18_5 1_555 1_555
H13_5 C19_5 1_555 1_555
C20_5 C19_5 1_555 1_555
H14_5 C20_5 1_555 1_555
C21_5 C20_5 1_555 1_555
C22_5 C21_5 1_555 1_555
H15_5 C22_5 1_555 1_555
C23_5 C18_5 1_555 1_555
H16_5 C23_5 1_555 1_555
C24_5 O2_5 1_555 1_555
O6_3 C17_5 1_555 1_555
C15_5 C16_5 1_555 1_555
C21_5 C24_5 1_555 1_555
C22_5 C23_5 1_555 1_555
Ni3_4 O1_6 1_555 1_555
O1_6 C24_6 1_555 1_555
O2_6 Ni3_4 1_555 1_555
N1_6 Ni3_4 1_555 1_555
N3_3 C8_6 1_555 1_555
C1_6 N1_6 1_555 1_555
H1_6 C1_6 1_555 1_555
C2_6 C1_6 1_555 1_555
H2_6 C2_6 1_555 1_555
C3_6 C2_6 1_555 1_555
C4_6 C3_6 1_555 1_555
C5_6 N1_6 1_555 1_555
C6_6 C3_6 1_555 1_555
C7_6 C6_6 1_555 1_555
C8_6 C7_6 1_555 1_555
C9_6 N3_3 1_555 1_555
H7_6 C9_6 1_555 1_555
C10_6 C6_6 1_555 1_555
H8_6 C10_6 1_555 1_555
C20_6 C19_6 1_555 1_555
H14_6 C20_6 1_555 1_555
C21_6 C20_6 1_555 1_555
C22_6 C21_6 1_555 1_555
H15_6 C22_6 1_555 1_555
H16_6 C23_6 1_555 1_555
C24_6 O2_6 1_555 1_555
O7_4 Ni3_4 1_555 1_555
C4_6 C5_6 1_555 1_555
C9_6 C10_6 1_555 1_555
C21_6 C24_6 1_555 1_555
C22_6 C23_6 1_555 1_555
O3_6 C14_6 1_555 1_555
C11_6 C12_6 1_555 1_555
C12_6 H9_6 1_555 1_555
C13_6 C12_6 1_555 1_555
H10_6 C13_6 1_555 1_555
C14_6 C13_6 1_555 1_555
C15_6 C14_6 1_555 1_555
H11_6 C15_6 1_555 1_555
C16_6 C11_6 1_555 1_555
H12_6 C16_6 1_555 1_555
C17_6 C11_6 1_555 1_555
C18_6 O3_6 1_555 1_555
O6_4 C17_6 1_555 1_555
O5_4 C17_6 1_555 1_555
Ni3_2 O5_4 1_555 1_555
C15_6 C16_6 1_555 1_555
Ni3 O1_7 1_555 1_555
O1_7 C24_7 1_555 1_555
O2_7 Ni3 1_555 1_555
O3_7 C14_7 1_555 1_555
C11_7 C12_7 1_555 1_555
C12_7 H9_7 1_555 1_555
C13_7 C12_7 1_555 1_555
H10_7 C13_7 1_555 1_555
C14_7 C13_7 1_555 1_555
C15_7 C14_7 1_555 1_555
H11_7 C15_7 1_555 1_555
C16_7 C11_7 1_555 1_555
H12_7 C16_7 1_555 1_555
C17_7 C11_7 1_555 1_555
C18_7 O3_7 1_555 1_555
C19_7 C18_7 1_555 1_555
H13_7 C19_7 1_555 1_555
C20_7 C19_7 1_555 1_555
H14_7 C20_7 1_555 1_555
C21_7 C20_7 1_555 1_555
C22_7 C21_7 1_555 1_555
H15_7 C22_7 1_555 1_555
C23_7 C18_7 1_555 1_555
H16_7 C23_7 1_555 1_555
C24_7 O2_7 1_555 1_555
O6 C17_7 1_555 1_555
C15_7 C16_7 1_555 1_555
C21_7 C24_7 1_555 1_555
C22_7 C23_7 1_555 1_555
N2_4 C8_7 1_555 1_555
C1_7 N1_7 1_555 1_555
H1_7 C1_7 1_555 1_555
C2_7 C1_7 1_555 1_555
H2_7 C2_7 1_555 1_555
C3_7 C2_7 1_555 1_555
C4_7 C3_7 1_555 1_555
H3_5 C4_7 1_555 1_555
C5_7 N1_7 1_555 1_555
H4_5 C5_7 1_555 1_555
C6_7 C3_7 1_555 1_555
C7_7 C6_7 1_555 1_555
H5_5 C7_7 1_555 1_555
C8_7 C7_7 1_555 1_555
H6_3 C8_7 1_555 1_555
C9_7 N2_4 1_555 1_555
H7_7 C9_7 1_555 1_555
C10_7 C6_7 1_555 1_555
H8_7 C10_7 1_555 1_555
Ni3_2 N2_4 1_555 1_555
C4_7 C5_7 1_555 1_555
C9_7 C10_7 1_555 1_555
Ni3_2 O1_8 1_555 1_555
O1_8 C24_8 1_555 1_555
O2_8 Ni3_2 1_555 1_555
N1_8 Ni3_2 1_555 1_555
N3_4 C8_8 1_555 1_555
C1_8 N1_8 1_555 1_555
H1_8 C1_8 1_555 1_555
C2_8 C1_8 1_555 1_555
H2_8 C2_8 1_555 1_555
C3_8 C2_8 1_555 1_555
C4_8 C3_8 1_555 1_555
H3_6 C4_8 1_555 1_555
C5_8 N1_8 1_555 1_555
H4_6 C5_8 1_555 1_555
C6_8 C3_8 1_555 1_555
C7_8 C6_8 1_555 1_555
H5_6 C7_8 1_555 1_555
C8_8 C7_8 1_555 1_555
C9_8 N3_4 1_555 1_555
H7_8 C9_8 1_555 1_555
C10_8 C6_8 1_555 1_555
H8_8 C10_8 1_555 1_555
C20_8 C19_8 1_555 1_555
H14_8 C20_8 1_555 1_555
C21_8 C20_8 1_555 1_555
C22_8 C21_8 1_555 1_555
H15_8 C22_8 1_555 1_555
H16_8 C23_8 1_555 1_555
C24_8 O2_8 1_555 1_555
C4_8 C5_8 1_555 1_555
C9_8 C10_8 1_555 1_555
C21_8 C24_8 1_555 1_555
C22_8 C23_8 1_555 1_555
O3_8 C14_8 1_555 1_555
C11_8 C12_8 1_555 1_555
C12_8 H9_8 1_555 1_555
C13_8 C12_8 1_555 1_555
H10_8 C13_8 1_555 1_555
C14_8 C13_8 1_555 1_555
C15_8 C14_8 1_555 1_555
H11_8 C15_8 1_555 1_555
C16_8 C11_8 1_555 1_555
H12_8 C16_8 1_555 1_555
C17_8 C11_8 1_555 1_555
C18_8 O3_8 1_555 1_555
O6_2 C17_8 1_555 1_555
O7_4 C17_8 1_555 1_555
C15_8 C16_8 1_555 1_555

#END
