
###############################################################################
#
# This file contains modified crystal structure data generated from the
# MOF subset of the Cambridge Structural Database (CSD) v543 
# hosted by the Cambridge Crystallographic Data Centre (CCDC).
#
# This work is licensed under the Creative Commons
# Attribution-NonCommercial-ShareAlike 4.0 International License.
# To view a copy of this license, visit
# http://creativecommons.org/licenses/by-nc-sa/4.0/
# or send a letter to
# Creative Commons, PO Box 1866, Mountain View, CA 94042, USA.
#
# CIF created using the CSD Python API on 29 September 2022
# The structure has been converted into the P1 space group
# The structure has a 3D framework
# The original CSD entry KAVNIH is in the monoclinic crystal system
# The framework has been calculated to contain at least 10.0% void space
# The void calculation uses a probe of radius 1.32A, grid spacing 0.4
#
###############################################################################

data_KAVNIH
_chemical_formula_moiety         '(C392 H256 Co8 N48 O32)n'
_symmetry_cell_setting           triclinic
_symmetry_space_group_name_H-M   'P 1'
_symmetry_Int_Tables_number      1
_space_group_name_Hall           'P 1'
loop_
_symmetry_equiv_pos_site_id
_symmetry_equiv_pos_as_xyz
1 x,y,z
_cell_length_a                   32.614(8)
_cell_length_b                   18.976(4)
_cell_length_c                   17.570(4)
_cell_angle_alpha                90
_cell_angle_beta                 103.206(4)
_cell_angle_gamma                90
_cell_volume                     10586.2
loop_
_atom_site_label
_atom_site_type_symbol
_atom_site_fract_x
_atom_site_fract_y
_atom_site_fract_z
N9 N 0.15008(9) 0.16669(14) 0.65190(17)
N10 N 0.11903(8) 0.26878(14) 0.61820(16)
C83 C 0.16226(11) 0.04055(18) 0.6690(2)
H52 H 0.1387 0.0366 0.6920
C84 C 0.17403(10) 0.10529(18) 0.6450(2)
C85 C 0.20864(11) 0.11104(18) 0.6120(2)
H53 H 0.2168 0.1559 0.5967
C86 C 0.23133(11) 0.05166(18) 0.6014(2)
H54 H 0.2548 0.0561 0.5780
C87 C 0.12646(12) 0.18165(19) 0.7062(2)
H55 H 0.1238 0.1535 0.7496
C88 C 0.10797(11) 0.24429(19) 0.6848(2)
H56 H 0.0899 0.2682 0.7117
C89 C 0.14433(11) 0.22081(18) 0.6009(2)
H57 H 0.1571 0.2238 0.5575
Co4 Co 0.099000(13) 0.35351(2) 0.54063(3)
C7 C 0.04235(12) 0.3591(2) 0.1259(2)
H4 H 0.0268 0.3592 0.0731
C8 C 0.02053(11) 0.35741(17) 0.1876(2)
O5 O 0.06791(7) 0.41033(12) 0.43933(14)
O6 O 0.05137(7) 0.29915(12) 0.44968(14)
C50 C 0.04899(10) 0.35538(18) 0.4109(2)
C51 C 0.02359(10) 0.35695(17) 0.3279(2)
C52 C 0.04447(11) 0.35821(17) 0.2666(2)
C53 C 0.08949(11) 0.36066(19) 0.2806(2)
H33 H 0.1059 0.3619 0.3327
C54 C 0.10876(12) 0.3613(2) 0.2198(2)
H34 H 0.1386 0.3622 0.2298
C55 C 0.08497(12) 0.3606(2) 0.1417(2)
H35 H 0.0990 0.3611 0.0999
N7 N 0.13942(8) 0.43039(14) 0.60246(16)
N8 N 0.17792(8) 0.52525(14) 0.63505(16)
N11 N 0.48821(9) 0.89904(15) 0.62351(19)
N12 N 0.55122(9) 0.88412(15) 0.59912(18)
C66 C 0.15566(11) 0.43013(18) 0.6819(2)
H41 H 0.1509 0.3944 0.7169
C67 C 0.17932(11) 0.48817(18) 0.7027(2)
H42 H 0.1940 0.5009 0.7540
C68 C 0.15334(10) 0.48842(16) 0.57632(19)
H43 H 0.1469 0.5026 0.5230
C69 C 0.19725(10) 0.59226(17) 0.6302(2)
C70 C 0.23335(11) 0.61034(19) 0.6863(2)
H44 H 0.2457 0.5779 0.7261
C71 C 0.25075(11) 0.67631(18) 0.6829(2)
H45 H 0.2752 0.6891 0.7213
C72 C 0.23356(10) 0.72418(17) 0.6251(2)
C73 C 0.19761(10) 0.70497(17) 0.56933(19)
H46 H 0.1854 0.7371 0.5291
C74 C 0.17963(10) 0.63925(17) 0.57233(19)
H47 H 0.1550 0.6266 0.5343
C75 C 0.25267(10) 0.79486(17) 0.62240(19)
C76 C 0.29568(10) 0.80153(17) 0.62736(19)
H48 H 0.3129 0.7606 0.6338
C77 C 0.31379(10) 0.86750(17) 0.62306(19)
C78 C 0.28809(10) 0.92673(17) 0.61729(19)
H49 H 0.2999 0.9719 0.6133
C79 C 0.24537(10) 0.92158(17) 0.61715(19)
C80 C 0.22776(10) 0.85462(17) 0.6163(2)
H50 H 0.1983 0.8499 0.6115
C81 C 0.22021(10) 0.98527(17) 0.62439(19)
C82 C 0.18552(10) 0.98133(18) 0.6588(2)
H51 H 0.1777 0.9368 0.6757
C90 C 0.35949(10) 0.87463(17) 0.62532(19)
C91 C 0.37966(11) 0.93933(18) 0.6378(2)
H58 H 0.3640 0.9795 0.6468
C92 C 0.42158(10) 0.94719(18) 0.6377(2)
H59 H 0.4344 0.9923 0.6464
C93 C 0.44498(10) 0.88938(18) 0.6249(2)
C94 C 0.42599(11) 0.82395(18) 0.6127(2)
H60 H 0.4419 0.7839 0.6043
C95 C 0.38396(11) 0.81680(18) 0.6127(2)
H61 H 0.3712 0.7716 0.6040
C96 C 0.51147(14) 0.9584(3) 0.6489(4)
H62 H 0.5024 0.9988 0.6725
C97 C 0.54959(14) 0.9481(2) 0.6340(4)
H63 H 0.5723 0.9807 0.6459
C98 C 0.51371(10) 0.85586(17) 0.5949(2)
H64 H 0.5057 0.8104 0.5741
Co6 Co 0.599000(13) 0.85351(2) 0.54063(3)
O9 O 0.14376(7) 0.31929(12) 0.48092(13)
N16 N 0.05122(9) 0.38412(15) 0.59912(18)
N3 N 0.84992(9) 0.16669(14) 0.84810(17)
N4 N 0.88097(8) 0.26878(14) 0.88180(16)
C34 C 0.83774(11) 0.04055(18) 0.8310(2)
H20 H 0.8613 0.0366 0.8080
C35 C 0.82597(10) 0.10529(18) 0.8550(2)
C36 C 0.79136(11) 0.11104(18) 0.8880(2)
H21 H 0.7832 0.1559 0.9033
C37 C 0.76867(11) 0.05166(18) 0.8986(2)
H22 H 0.7452 0.0561 0.9220
C38 C 0.87354(12) 0.18165(19) 0.7938(2)
H23 H 0.8762 0.1535 0.7504
C39 C 0.89203(11) 0.24429(19) 0.8152(2)
H24 H 0.9101 0.2682 0.7883
C40 C 0.85567(11) 0.22081(18) 0.8991(2)
H25 H 0.8429 0.2238 0.9425
Co3 Co 0.901000(13) 0.35351(2) 0.95937(3)
O1 O 0.93209(7) 0.41033(12) 0.06067(14)
O2 O 0.94863(7) 0.29915(12) 0.05032(14)
O3 O 0.85624(7) 0.31929(12) 0.01908(13)
O4 O 0.81899(7) 0.40483(12) 0.05890(15)
C1 C 0.95101(10) 0.35538(18) 0.0891(2)
C2 C 0.97641(10) 0.35695(17) 0.1721(2)
C3 C 0.95553(11) 0.35821(17) 0.2334(2)
C4 C 0.91051(11) 0.36066(19) 0.2194(2)
H1 H 0.8941 0.3619 0.1673
C5 C 0.89124(12) 0.3613(2) 0.2802(2)
H2 H 0.8614 0.3622 0.2702
C6 C 0.91503(12) 0.3606(2) 0.3583(2)
H3 H 0.9010 0.3611 0.4001
C9 C 0.82310(10) 0.34531(17) 0.03328(19)
C10 C 0.78511(10) 0.29613(17) 0.01647(19)
C15 C 0.80705(11) 0.2434(2) 0.1485(2)
H8 H 0.8315 0.2721 0.1597
C16 C 0.77889(10) 0.24788(17) 0.0731(2)
C56 C 0.95765(12) 0.3591(2) 0.3741(2)
H36 H 0.9732 0.3592 0.4269
C57 C 0.97947(11) 0.35741(17) 0.3124(2)
C60 C 0.74311(10) 0.20171(17) 0.0563(2)
C61 C 0.73704(11) 0.15514(19) 0.1168(2)
H37 H 0.7136 0.1241 0.1067
C62 C 0.76374(13) 0.1542(2) 0.1876(2)
H38 H 0.7586 0.1234 0.2270
C63 C 0.79956(13) 0.1992(2) 0.2039(2)
H39 H 0.8183 0.1981 0.2540
Co7 Co 0.599000(13) 0.14649(2) 0.04063(3)
N1 N 0.86058(8) 0.43039(14) 0.89754(16)
N2 N 0.82208(8) 0.52525(14) 0.86495(16)
N5 N 0.51179(9) 0.89904(15) 0.87649(19)
N6 N 0.44878(9) 0.88412(15) 0.90088(18)
C11 C 0.75689(10) 0.29829(17) 0.9437(2)
C12 C 0.76296(11) 0.34486(19) 0.8832(2)
H5 H 0.7864 0.3759 0.8933
C13 C 0.73626(13) 0.3458(2) 0.8124(2)
H6 H 0.7414 0.3766 0.7730
C14 C 0.70044(13) 0.3008(2) 0.7961(2)
H7 H 0.6817 0.3019 0.7460
C17 C 0.84434(11) 0.43013(18) 0.8181(2)
H9 H 0.8491 0.3944 0.7831
C18 C 0.82068(11) 0.48817(18) 0.7973(2)
H10 H 0.8060 0.5009 0.7460
C19 C 0.84666(10) 0.48842(16) 0.92368(19)
H11 H 0.8531 0.5026 0.9770
C20 C 0.80275(10) 0.59226(17) 0.8698(2)
C21 C 0.76665(11) 0.61034(19) 0.8137(2)
H12 H 0.7543 0.5779 0.7739
C22 C 0.74925(11) 0.67631(18) 0.8171(2)
H13 H 0.7248 0.6891 0.7787
C23 C 0.76644(10) 0.72418(17) 0.8749(2)
C24 C 0.80239(10) 0.70497(17) 0.93067(19)
H14 H 0.8146 0.7371 0.9709
C25 C 0.82037(10) 0.63925(17) 0.92767(19)
H15 H 0.8450 0.6266 0.9657
C26 C 0.74733(10) 0.79486(17) 0.87760(19)
C27 C 0.70432(10) 0.80153(17) 0.87264(19)
H16 H 0.6871 0.7606 0.8662
C28 C 0.68621(10) 0.86750(17) 0.87694(19)
C29 C 0.71191(10) 0.92673(17) 0.88271(19)
H17 H 0.7001 0.9719 0.8867
C30 C 0.75463(10) 0.92158(17) 0.88285(19)
C31 C 0.77224(10) 0.85462(17) 0.8837(2)
H18 H 0.8017 0.8499 0.8885
C32 C 0.77979(10) 0.98527(17) 0.87561(19)
C33 C 0.81448(10) 0.98133(18) 0.8412(2)
H19 H 0.8223 0.9368 0.8243
C41 C 0.64051(10) 0.87463(17) 0.87468(19)
C42 C 0.62034(11) 0.93933(18) 0.8622(2)
H26 H 0.6360 0.9795 0.8532
C43 C 0.57842(10) 0.94719(18) 0.8623(2)
H27 H 0.5656 0.9923 0.8536
C44 C 0.55502(10) 0.88938(18) 0.8751(2)
C45 C 0.57401(11) 0.82395(18) 0.8873(2)
H28 H 0.5581 0.7839 0.8957
C46 C 0.61604(11) 0.81680(18) 0.8873(2)
H29 H 0.6288 0.7716 0.8960
C47 C 0.48853(14) 0.9584(3) 0.8511(4)
H30 H 0.4976 0.9988 0.8275
C48 C 0.45041(14) 0.9481(2) 0.8660(4)
H31 H 0.4277 0.9807 0.8541
C49 C 0.48629(10) 0.85586(17) 0.9051(2)
H32 H 0.4943 0.8104 0.9259
O7 O 0.64376(7) 0.18071(12) 0.98092(13)
O8 O 0.68101(7) 0.09517(12) 0.94110(15)
C58 C 0.67690(10) 0.15469(17) 0.96672(19)
C59 C 0.71489(10) 0.20387(17) 0.98353(19)
C64 C 0.69295(11) 0.2566(2) 0.8515(2)
H40 H 0.6685 0.2279 0.8403
C65 C 0.72111(10) 0.25212(17) 0.9269(2)
Co5 Co 0.401000(13) 0.85351(2) 0.95937(3)
N15 N 0.94878(9) 0.38412(15) 0.90088(18)
O4_2 O 0.18101(7) 0.40483(12) 0.44110(15)
C9_2 C 0.17690(10) 0.34531(17) 0.46672(19)
C10_2 C 0.21489(10) 0.29613(17) 0.48353(19)
C11_2 C 0.24311(10) 0.29829(17) 0.5563(2)
C12_2 C 0.23704(11) 0.34486(19) 0.6168(2)
H5_2 H 0.2136 0.3759 0.6067
C13_2 C 0.26374(13) 0.3458(2) 0.6876(2)
H6_2 H 0.2586 0.3766 0.7270
C14_2 C 0.29956(13) 0.3008(2) 0.7039(2)
H7_2 H 0.3183 0.3019 0.7540
C15_2 C 0.19295(11) 0.2434(2) 0.3515(2)
H8_2 H 0.1685 0.2721 0.3403
C16_2 C 0.22111(10) 0.24788(17) 0.4269(2)
O7_2 O 0.35624(7) 0.18071(12) 0.51908(13)
O8_2 O 0.31899(7) 0.09517(12) 0.55890(15)
C58_2 C 0.32310(10) 0.15469(17) 0.53328(19)
C59_2 C 0.28511(10) 0.20387(17) 0.51647(19)
C60_2 C 0.25689(10) 0.20171(17) 0.4437(2)
C61_2 C 0.26296(11) 0.15514(19) 0.3832(2)
H37_2 H 0.2864 0.1241 0.3933
C62_2 C 0.23626(13) 0.1542(2) 0.3124(2)
H38_2 H 0.2414 0.1234 0.2730
C63_2 C 0.20044(13) 0.1992(2) 0.2961(2)
H39_2 H 0.1817 0.1981 0.2460
C64_2 C 0.30705(11) 0.2566(2) 0.6485(2)
H40_2 H 0.3315 0.2279 0.6597
C65_2 C 0.27889(10) 0.25212(17) 0.5731(2)
Co7_2 Co 0.401000(13) 0.14649(2) 0.45937(3)
C96_2 C 0.01147(14) 0.4584(3) 0.6489(4)
H62_2 H 0.0024 0.4988 0.6725
C97_2 C 0.04959(14) 0.4481(2) 0.6340(4)
H63_2 H 0.0723 0.4807 0.6459
C98_2 C 0.01371(10) 0.35586(17) 0.5949(2)
H64_2 H 0.0057 0.3104 0.5741
N8_2 N 0.67792(8) 0.02525(14) 0.63505(16)
N9_2 N 0.65008(9) 0.66669(14) 0.65190(17)
N10_2 N 0.61903(8) 0.76878(14) 0.61820(16)
N11_2 N 0.98821(9) 0.39904(15) 0.62351(19)
H42_2 H 0.6940 0.0009 0.7540
H43_2 H 0.6469 0.0026 0.5230
C69_2 C 0.69725(10) 0.09226(17) 0.6302(2)
C70_2 C 0.73335(11) 0.11034(19) 0.6863(2)
H44_2 H 0.7457 0.0779 0.7261
C71_2 C 0.75075(11) 0.17631(18) 0.6829(2)
H45_2 H 0.7752 0.1891 0.7213
C72_2 C 0.73356(10) 0.22418(17) 0.6251(2)
C73_2 C 0.69761(10) 0.20497(17) 0.56933(19)
H46_2 H 0.6854 0.2371 0.5291
C74_2 C 0.67963(10) 0.13925(17) 0.57233(19)
H47_2 H 0.6550 0.1266 0.5343
C75_2 C 0.75267(10) 0.29486(17) 0.62240(19)
C76_2 C 0.79568(10) 0.30153(17) 0.62736(19)
H48_2 H 0.8129 0.2606 0.6338
C77_2 C 0.81379(10) 0.36750(17) 0.62306(19)
C78_2 C 0.78809(10) 0.42673(17) 0.61729(19)
H49_2 H 0.7999 0.4719 0.6133
C79_2 C 0.74537(10) 0.42158(17) 0.61715(19)
C80_2 C 0.72776(10) 0.35462(17) 0.6163(2)
H50_2 H 0.6983 0.3499 0.6115
C81_2 C 0.72021(10) 0.48527(17) 0.62439(19)
C82_2 C 0.68552(10) 0.48133(18) 0.6588(2)
H51_2 H 0.6777 0.4368 0.6757
C83_2 C 0.66226(11) 0.54055(18) 0.6690(2)
H52_2 H 0.6387 0.5366 0.6920
C84_2 C 0.67403(10) 0.60529(18) 0.6450(2)
C85_2 C 0.70864(11) 0.61104(18) 0.6120(2)
H53_2 H 0.7168 0.6559 0.5967
C86_2 C 0.73133(11) 0.55166(18) 0.6014(2)
H54_2 H 0.7548 0.5561 0.5780
C87_2 C 0.62646(12) 0.68165(19) 0.7062(2)
H55_2 H 0.6238 0.6535 0.7496
C88_2 C 0.60797(11) 0.74429(19) 0.6848(2)
H56_2 H 0.5899 0.7682 0.7117
C89_2 C 0.64433(11) 0.72081(18) 0.6009(2)
H57_2 H 0.6571 0.7238 0.5575
C90_2 C 0.85949(10) 0.37463(17) 0.62532(19)
C91_2 C 0.87966(11) 0.43933(18) 0.6378(2)
H58_2 H 0.8640 0.4795 0.6468
C92_2 C 0.92158(10) 0.44719(18) 0.6377(2)
H59_2 H 0.9344 0.4923 0.6464
C93_2 C 0.94498(10) 0.38938(18) 0.6249(2)
C94_2 C 0.92599(11) 0.32395(18) 0.6127(2)
H60_2 H 0.9419 0.2839 0.6043
C95_2 C 0.88396(11) 0.31680(18) 0.6127(2)
H61_2 H 0.8712 0.2716 0.6040
N2_2 N 0.32208(8) 0.02525(14) 0.86495(16)
N3_2 N 0.34992(9) 0.66669(14) 0.84810(17)
N4_2 N 0.38097(8) 0.76878(14) 0.88180(16)
N5_2 N 0.01179(9) 0.39904(15) 0.87649(19)
H10_2 H 0.3060 0.0009 0.7460
H11_2 H 0.3531 0.0026 0.9770
C20_2 C 0.30275(10) 0.09226(17) 0.8698(2)
C21_2 C 0.26665(11) 0.11034(19) 0.8137(2)
H12_2 H 0.2543 0.0779 0.7739
C22_2 C 0.24925(11) 0.17631(18) 0.8171(2)
H13_2 H 0.2248 0.1891 0.7787
C23_2 C 0.26644(10) 0.22418(17) 0.8749(2)
C24_2 C 0.30239(10) 0.20497(17) 0.93067(19)
H14_2 H 0.3146 0.2371 0.9709
C25_2 C 0.32037(10) 0.13925(17) 0.92767(19)
H15_2 H 0.3450 0.1266 0.9657
C26_2 C 0.24733(10) 0.29486(17) 0.87760(19)
C27_2 C 0.20432(10) 0.30153(17) 0.87264(19)
H16_2 H 0.1871 0.2606 0.8662
C28_2 C 0.18621(10) 0.36750(17) 0.87694(19)
C29_2 C 0.21191(10) 0.42673(17) 0.88271(19)
H17_2 H 0.2001 0.4719 0.8867
C30_2 C 0.25463(10) 0.42158(17) 0.88285(19)
C31_2 C 0.27224(10) 0.35462(17) 0.8837(2)
H18_2 H 0.3017 0.3499 0.8885
C32_2 C 0.27979(10) 0.48527(17) 0.87561(19)
C33_2 C 0.31448(10) 0.48133(18) 0.8412(2)
H19_2 H 0.3223 0.4368 0.8243
C34_2 C 0.33774(11) 0.54055(18) 0.8310(2)
H20_2 H 0.3613 0.5366 0.8080
C35_2 C 0.32597(10) 0.60529(18) 0.8550(2)
C36_2 C 0.29136(11) 0.61104(18) 0.8880(2)
H21_2 H 0.2832 0.6559 0.9033
C37_2 C 0.26867(11) 0.55166(18) 0.8986(2)
H22_2 H 0.2452 0.5561 0.9220
C38_2 C 0.37354(12) 0.68165(19) 0.7938(2)
H23_2 H 0.3762 0.6535 0.7504
C39_2 C 0.39203(11) 0.74429(19) 0.8152(2)
H24_2 H 0.4101 0.7682 0.7883
C40_2 C 0.35567(11) 0.72081(18) 0.8991(2)
H25_2 H 0.3429 0.7238 0.9425
C41_2 C 0.14051(10) 0.37463(17) 0.87468(19)
C42_2 C 0.12034(11) 0.43933(18) 0.8622(2)
H26_2 H 0.1360 0.4795 0.8532
C43_2 C 0.07842(10) 0.44719(18) 0.8623(2)
H27_2 H 0.0656 0.4923 0.8536
C44_2 C 0.05502(10) 0.38938(18) 0.8751(2)
C45_2 C 0.07401(11) 0.32395(18) 0.8873(2)
H28_2 H 0.0581 0.2839 0.8957
C46_2 C 0.11604(11) 0.31680(18) 0.8873(2)
H29_2 H 0.1288 0.2716 0.8960
O1_2 O 0.43209(7) 0.91033(12) 0.06067(14)
O2_2 O 0.44863(7) 0.79915(12) 0.05032(14)
O3_2 O 0.35624(7) 0.81929(12) 0.01908(13)
O4_3 O 0.31899(7) 0.90483(12) 0.05890(15)
C1_2 C 0.45101(10) 0.85538(18) 0.0891(2)
C2_2 C 0.47641(10) 0.85695(17) 0.1721(2)
C3_2 C 0.45553(11) 0.85821(17) 0.2334(2)
C4_2 C 0.41051(11) 0.86066(19) 0.2194(2)
H1_2 H 0.3941 0.8619 0.1673
C5_2 C 0.39124(12) 0.8613(2) 0.2802(2)
H2_2 H 0.3614 0.8622 0.2702
C6_2 C 0.41503(12) 0.8606(2) 0.3583(2)
H3_2 H 0.4010 0.8611 0.4001
C7_2 C 0.54235(12) 0.8591(2) 0.1259(2)
H4_2 H 0.5268 0.8592 0.0731
C8_2 C 0.52053(11) 0.85741(17) 0.1876(2)
C9_3 C 0.32310(10) 0.84531(17) 0.03328(19)
C10_3 C 0.28511(10) 0.79613(17) 0.01647(19)
C15_3 C 0.30705(11) 0.7434(2) 0.1485(2)
H8_3 H 0.3315 0.7721 0.1597
C16_3 C 0.27889(10) 0.74788(17) 0.0731(2)
O5_2 O 0.56791(7) 0.91033(12) 0.43933(14)
O6_2 O 0.55137(7) 0.79915(12) 0.44968(14)
C50_2 C 0.54899(10) 0.85538(18) 0.4109(2)
C51_2 C 0.52359(10) 0.85695(17) 0.3279(2)
C52_2 C 0.54447(11) 0.85821(17) 0.2666(2)
C53_2 C 0.58949(11) 0.86066(19) 0.2806(2)
H33_2 H 0.6059 0.8619 0.3327
C54_2 C 0.60876(12) 0.8613(2) 0.2198(2)
H34_2 H 0.6386 0.8622 0.2298
C55_2 C 0.58497(12) 0.8606(2) 0.1417(2)
H35_2 H 0.5990 0.8611 0.0999
C56_2 C 0.45765(12) 0.8591(2) 0.3741(2)
H36_2 H 0.4732 0.8592 0.4269
C57_2 C 0.47947(11) 0.85741(17) 0.3124(2)
C60_3 C 0.24311(10) 0.70171(17) 0.0563(2)
C61_3 C 0.23704(11) 0.65514(19) 0.1168(2)
H37_3 H 0.2136 0.6241 0.1067
C62_3 C 0.26374(13) 0.6542(2) 0.1876(2)
H38_3 H 0.2586 0.6234 0.2270
C63_3 C 0.29956(13) 0.6992(2) 0.2039(2)
H39_3 H 0.3183 0.6981 0.2540
N7_2 N 0.63942(8) 0.93039(14) 0.60246(16)
C66_2 C 0.65566(11) 0.93013(18) 0.6819(2)
H41_2 H 0.6509 0.8944 0.7169
C67_2 C 0.67932(11) 0.98817(18) 0.7027(2)
C68_2 C 0.65334(10) 0.98842(16) 0.57632(19)
Co7_3 Co 0.099000(13) 0.64649(2) 0.04063(3)
O9_2 O 0.64376(7) 0.81929(12) 0.48092(13)
N1_2 N 0.36058(8) 0.93039(14) 0.89754(16)
C11_3 C 0.25689(10) 0.79829(17) 0.9437(2)
C12_3 C 0.26296(11) 0.84486(19) 0.8832(2)
H5_3 H 0.2864 0.8759 0.8933
C13_3 C 0.23626(13) 0.8458(2) 0.8124(2)
H6_3 H 0.2414 0.8766 0.7730
C14_3 C 0.20044(13) 0.8008(2) 0.7961(2)
H7_3 H 0.1817 0.8019 0.7460
C17_2 C 0.34434(11) 0.93013(18) 0.8181(2)
H9_2 H 0.3491 0.8944 0.7831
C18_2 C 0.32068(11) 0.98817(18) 0.7973(2)
C19_2 C 0.34666(10) 0.98842(16) 0.92368(19)
O7_3 O 0.14376(7) 0.68071(12) 0.98092(13)
O8_3 O 0.18101(7) 0.59517(12) 0.94110(15)
C58_3 C 0.17690(10) 0.65469(17) 0.96672(19)
C59_3 C 0.21489(10) 0.70387(17) 0.98353(19)
C64_3 C 0.19295(11) 0.7566(2) 0.8515(2)
H40_3 H 0.1685 0.7279 0.8403
C65_3 C 0.22111(10) 0.75212(17) 0.9269(2)
C47_2 C 0.98853(14) 0.4584(3) 0.8511(4)
H30_2 H 0.9976 0.4988 0.8275
C48_2 C 0.95041(14) 0.4481(2) 0.8660(4)
H31_2 H 0.9277 0.4807 0.8541
C49_2 C 0.98629(10) 0.35586(17) 0.9051(2)
H32_2 H 0.9943 0.3104 0.9259
O4_4 O 0.68101(7) 0.90483(12) 0.44110(15)
C9_4 C 0.67690(10) 0.84531(17) 0.46672(19)
C10_4 C 0.71489(10) 0.79613(17) 0.48353(19)
C11_4 C 0.74311(10) 0.79829(17) 0.5563(2)
C12_4 C 0.73704(11) 0.84486(19) 0.6168(2)
H5_4 H 0.7136 0.8759 0.6067
C13_4 C 0.76374(13) 0.8458(2) 0.6876(2)
H6_4 H 0.7586 0.8766 0.7270
C14_4 C 0.79956(13) 0.8008(2) 0.7039(2)
H7_4 H 0.8183 0.8019 0.7540
C15_4 C 0.69295(11) 0.7434(2) 0.3515(2)
H8_4 H 0.6685 0.7721 0.3403
C16_4 C 0.72111(10) 0.74788(17) 0.4269(2)
O7_4 O 0.85624(7) 0.68071(12) 0.51908(13)
O8_4 O 0.81899(7) 0.59517(12) 0.55890(15)
C58_4 C 0.82310(10) 0.65469(17) 0.53328(19)
C59_4 C 0.78511(10) 0.70387(17) 0.51647(19)
C60_4 C 0.75689(10) 0.70171(17) 0.4437(2)
C61_4 C 0.76296(11) 0.65514(19) 0.3832(2)
H37_4 H 0.7864 0.6241 0.3933
C62_4 C 0.73626(13) 0.6542(2) 0.3124(2)
H38_4 H 0.7414 0.6234 0.2730
C63_4 C 0.70044(13) 0.6992(2) 0.2961(2)
H39_4 H 0.6817 0.6981 0.2460
C64_4 C 0.80705(11) 0.7566(2) 0.6485(2)
H40_4 H 0.8315 0.7279 0.6597
C65_4 C 0.77889(10) 0.75212(17) 0.5731(2)
Co7_4 Co 0.901000(13) 0.64649(2) 0.45937(3)
N1_3 N 0.13942(8) 0.56961(14) 0.10246(16)
N2_3 N 0.17792(8) 0.47475(14) 0.13505(16)
N5_3 N 0.48821(9) 0.10096(15) 0.12351(19)
N6_2 N 0.55122(9) 0.11588(15) 0.09912(18)
C17_3 C 0.15566(11) 0.56987(18) 0.1819(2)
H9_3 H 0.1509 0.6056 0.2169
C18_3 C 0.17932(11) 0.51183(18) 0.2027(2)
H10_3 H 0.1940 0.4991 0.2540
C19_3 C 0.15334(10) 0.51158(16) 0.07632(19)
H11_3 H 0.1469 0.4974 0.0230
C20_3 C 0.19725(10) 0.40774(17) 0.1302(2)
C21_3 C 0.23335(11) 0.38966(19) 0.1863(2)
H12_3 H 0.2457 0.4221 0.2261
C22_3 C 0.25075(11) 0.32369(18) 0.1829(2)
H13_3 H 0.2752 0.3109 0.2213
C23_3 C 0.23356(10) 0.27582(17) 0.1251(2)
C24_3 C 0.19761(10) 0.29503(17) 0.06933(19)
H14_3 H 0.1854 0.2629 0.0291
C25_3 C 0.17963(10) 0.36075(17) 0.07233(19)
H15_3 H 0.1550 0.3734 0.0343
C26_3 C 0.25267(10) 0.20514(17) 0.12240(19)
C27_3 C 0.29568(10) 0.19847(17) 0.12736(19)
H16_3 H 0.3129 0.2394 0.1338
C28_3 C 0.31379(10) 0.13250(17) 0.12306(19)
C29_3 C 0.28809(10) 0.07327(17) 0.11729(19)
H17_3 H 0.2999 0.0281 0.1133
C30_3 C 0.24537(10) 0.07842(17) 0.11715(19)
C31_3 C 0.22776(10) 0.14538(17) 0.1163(2)
H18_3 H 0.1983 0.1501 0.1115
C32_3 C 0.22021(10) 0.01473(17) 0.12439(19)
C33_3 C 0.18552(10) 0.01867(18) 0.1588(2)
H19_3 H 0.1777 0.0632 0.1757
C41_3 C 0.35949(10) 0.12537(17) 0.12532(19)
C42_3 C 0.37966(11) 0.06067(18) 0.1378(2)
H26_3 H 0.3640 0.0205 0.1468
C43_3 C 0.42158(10) 0.05281(18) 0.1377(2)
H27_3 H 0.4344 0.0077 0.1464
C44_3 C 0.44498(10) 0.11062(18) 0.1249(2)
C45_3 C 0.42599(11) 0.17605(18) 0.1127(2)
H28_3 H 0.4419 0.2161 0.1043
C46_3 C 0.38396(11) 0.18320(18) 0.1127(2)
H29_3 H 0.3712 0.2284 0.1040
C47_3 C 0.51147(14) 0.0416(3) 0.1489(4)
H30_3 H 0.5024 0.0012 0.1725
C48_3 C 0.54959(14) 0.0519(2) 0.1340(4)
H31_3 H 0.5723 0.0193 0.1459
C49_3 C 0.51371(10) 0.14414(17) 0.0949(2)
H32_3 H 0.5057 0.1896 0.0741
N13 N 0.11903(8) 0.73122(14) 0.11820(16)
N15_2 N 0.05122(9) 0.61588(15) 0.09912(18)
O1_3 O 0.06791(7) 0.58967(12) 0.93933(14)
O2_3 O 0.05137(7) 0.70085(12) 0.94968(14)
C1_3 C 0.04899(10) 0.64462(18) 0.9109(2)
C2_3 C 0.02359(10) 0.64305(17) 0.8279(2)
C3_3 C 0.04447(11) 0.64179(17) 0.7666(2)
C4_3 C 0.08949(11) 0.63934(19) 0.7806(2)
H1_3 H 0.1059 0.6381 0.8327
C5_3 C 0.10876(12) 0.6387(2) 0.7198(2)
H2_3 H 0.1386 0.6378 0.7298
C6_3 C 0.08497(12) 0.6394(2) 0.6417(2)
H3_3 H 0.0990 0.6389 0.5999
C56_3 C 0.04235(12) 0.6409(2) 0.6259(2)
H36_3 H 0.0268 0.6408 0.5731
C57_3 C 0.02053(11) 0.64259(17) 0.6876(2)
N3_3 N 0.15008(9) 0.83331(14) 0.15190(17)
C34_3 C 0.16226(11) 0.95945(18) 0.1690(2)
H20_3 H 0.1387 0.9634 0.1920
C35_3 C 0.17403(10) 0.89471(18) 0.1450(2)
C36_3 C 0.20864(11) 0.88896(18) 0.1120(2)
H21_3 H 0.2168 0.8441 0.0967
C37_3 C 0.23133(11) 0.94834(18) 0.1014(2)
H22_3 H 0.2548 0.9439 0.0780
C38_3 C 0.12646(12) 0.81835(19) 0.2062(2)
H23_3 H 0.1238 0.8465 0.2496
C39_3 C 0.10797(11) 0.75571(19) 0.1848(2)
H24_3 H 0.0899 0.7318 0.2117
C40_3 C 0.14433(11) 0.77919(18) 0.1009(2)
H25_3 H 0.1571 0.7762 0.0575
C7_3 C 0.95765(12) 0.6409(2) 0.8741(2)
H4_3 H 0.9732 0.6408 0.9269
C8_3 C 0.97947(11) 0.64259(17) 0.8124(2)
O5_3 O 0.93209(7) 0.58967(12) 0.56067(14)
O6_3 O 0.94863(7) 0.70085(12) 0.55032(14)
C50_3 C 0.95101(10) 0.64462(18) 0.5891(2)
C51_3 C 0.97641(10) 0.64305(17) 0.6721(2)
C52_3 C 0.95553(11) 0.64179(17) 0.7334(2)
C53_3 C 0.91051(11) 0.63934(19) 0.7194(2)
H33_3 H 0.8941 0.6381 0.6673
C54_3 C 0.89124(12) 0.6387(2) 0.7802(2)
H34_3 H 0.8614 0.6378 0.7702
C55_3 C 0.91503(12) 0.6394(2) 0.8583(2)
H35_3 H 0.9010 0.6389 0.9001
N7_3 N 0.86058(8) 0.56961(14) 0.39754(16)
N8_3 N 0.82208(8) 0.47475(14) 0.36495(16)
N11_3 N 0.51179(9) 0.10096(15) 0.37649(19)
N12_2 N 0.44878(9) 0.11588(15) 0.40088(18)
C66_3 C 0.84434(11) 0.56987(18) 0.3181(2)
H41_3 H 0.8491 0.6056 0.2831
C67_3 C 0.82068(11) 0.51183(18) 0.2973(2)
H42_3 H 0.8060 0.4991 0.2460
C68_3 C 0.84666(10) 0.51158(16) 0.42368(19)
H43_3 H 0.8531 0.4974 0.4770
C69_3 C 0.80275(10) 0.40774(17) 0.3698(2)
C70_3 C 0.76665(11) 0.38966(19) 0.3137(2)
H44_3 H 0.7543 0.4221 0.2739
C71_3 C 0.74925(11) 0.32369(18) 0.3171(2)
H45_3 H 0.7248 0.3109 0.2787
C72_3 C 0.76644(10) 0.27582(17) 0.3749(2)
C73_3 C 0.80239(10) 0.29503(17) 0.43067(19)
H46_3 H 0.8146 0.2629 0.4709
C74_3 C 0.82037(10) 0.36075(17) 0.42767(19)
H47_3 H 0.8450 0.3734 0.4657
C75_3 C 0.74733(10) 0.20514(17) 0.37760(19)
C76_3 C 0.70432(10) 0.19847(17) 0.37264(19)
H48_3 H 0.6871 0.2394 0.3662
C77_3 C 0.68621(10) 0.13250(17) 0.37694(19)
C78_3 C 0.71191(10) 0.07327(17) 0.38271(19)
H49_3 H 0.7001 0.0281 0.3867
C79_3 C 0.75463(10) 0.07842(17) 0.38285(19)
C80_3 C 0.77224(10) 0.14538(17) 0.3837(2)
H50_3 H 0.8017 0.1501 0.3885
C81_3 C 0.77979(10) 0.01473(17) 0.37561(19)
C82_3 C 0.81448(10) 0.01867(18) 0.3412(2)
H51_3 H 0.8223 0.0632 0.3243
C90_3 C 0.64051(10) 0.12537(17) 0.37468(19)
C91_3 C 0.62034(11) 0.06067(18) 0.3622(2)
H58_3 H 0.6360 0.0205 0.3532
C92_3 C 0.57842(10) 0.05281(18) 0.3623(2)
H59_3 H 0.5656 0.0077 0.3536
C93_3 C 0.55502(10) 0.11062(18) 0.3751(2)
C94_3 C 0.57401(11) 0.17605(18) 0.3873(2)
H60_3 H 0.5581 0.2161 0.3957
C95_3 C 0.61604(11) 0.18320(18) 0.3873(2)
H61_3 H 0.6288 0.2284 0.3960
C96_3 C 0.48853(14) 0.0416(3) 0.3511(4)
H62_3 H 0.4976 0.0012 0.3275
C97_3 C 0.45041(14) 0.0519(2) 0.3660(4)
H63_3 H 0.4277 0.0193 0.3541
C98_3 C 0.48629(10) 0.14414(17) 0.4051(2)
H64_3 H 0.4943 0.1896 0.4259
N14 N 0.88097(8) 0.73122(14) 0.38180(16)
N16_2 N 0.94878(9) 0.61588(15) 0.40088(18)
N9_3 N 0.84992(9) 0.83331(14) 0.34810(17)
C83_3 C 0.83774(11) 0.95945(18) 0.3310(2)
H52_3 H 0.8613 0.9634 0.3080
C84_3 C 0.82597(10) 0.89471(18) 0.3550(2)
C85_3 C 0.79136(11) 0.88896(18) 0.3880(2)
H53_3 H 0.7832 0.8441 0.4033
C86_3 C 0.76867(11) 0.94834(18) 0.3986(2)
H54_3 H 0.7452 0.9439 0.4220
C87_3 C 0.87354(12) 0.81835(19) 0.2938(2)
H55_3 H 0.8762 0.8465 0.2504
C88_3 C 0.89203(11) 0.75571(19) 0.3152(2)
H56_3 H 0.9101 0.7318 0.2883
C89_3 C 0.85567(11) 0.77919(18) 0.3991(2)
H57_3 H 0.8429 0.7762 0.4425
C47_4 C 0.01147(14) 0.5416(3) 0.1489(4)
H30_4 H 0.0024 0.5012 0.1725
C48_4 C 0.04959(14) 0.5519(2) 0.1340(4)
H31_4 H 0.0723 0.5193 0.1459
C49_4 C 0.01371(10) 0.64414(17) 0.0949(2)
H32_4 H 0.0057 0.6896 0.0741
N1_4 N 0.63942(8) 0.06961(14) 0.10246(16)
C17_4 C 0.65566(11) 0.06987(18) 0.1819(2)
H9_4 H 0.6509 0.1056 0.2169
C18_4 C 0.67932(11) 0.01183(18) 0.2027(2)
C19_4 C 0.65334(10) 0.01158(16) 0.07632(19)
N13_2 N 0.61903(8) 0.23122(14) 0.11820(16)
O1_4 O 0.56791(7) 0.08967(12) 0.93933(14)
O2_4 O 0.55137(7) 0.20085(12) 0.94968(14)
C1_4 C 0.54899(10) 0.14462(18) 0.9109(2)
C2_4 C 0.52359(10) 0.14305(17) 0.8279(2)
C3_4 C 0.54447(11) 0.14179(17) 0.7666(2)
C4_4 C 0.58949(11) 0.13934(19) 0.7806(2)
H1_4 H 0.6059 0.1381 0.8327
C5_4 C 0.60876(12) 0.1387(2) 0.7198(2)
H2_4 H 0.6386 0.1378 0.7298
C6_4 C 0.58497(12) 0.1394(2) 0.6417(2)
H3_4 H 0.5990 0.1389 0.5999
C7_4 C 0.45765(12) 0.1409(2) 0.8741(2)
H4_4 H 0.4732 0.1408 0.9269
C8_4 C 0.47947(11) 0.14259(17) 0.8124(2)
O5_4 O 0.43209(7) 0.08967(12) 0.56067(14)
O6_4 O 0.44863(7) 0.20085(12) 0.55032(14)
C50_4 C 0.45101(10) 0.14462(18) 0.5891(2)
C51_4 C 0.47641(10) 0.14305(17) 0.6721(2)
C52_4 C 0.45553(11) 0.14179(17) 0.7334(2)
C53_4 C 0.41051(11) 0.13934(19) 0.7194(2)
H33_4 H 0.3941 0.1381 0.6673
C54_4 C 0.39124(12) 0.1387(2) 0.7802(2)
H34_4 H 0.3614 0.1378 0.7702
C55_4 C 0.41503(12) 0.1394(2) 0.8583(2)
H35_4 H 0.4010 0.1389 0.9001
C56_4 C 0.54235(12) 0.1409(2) 0.6259(2)
H36_4 H 0.5268 0.1408 0.5731
C57_4 C 0.52053(11) 0.14259(17) 0.6876(2)
N7_4 N 0.36058(8) 0.06961(14) 0.39754(16)
C66_4 C 0.34434(11) 0.06987(18) 0.3181(2)
H41_4 H 0.3491 0.1056 0.2831
C67_4 C 0.32068(11) 0.01183(18) 0.2973(2)
C68_4 C 0.34666(10) 0.01158(16) 0.42368(19)
N14_2 N 0.38097(8) 0.23122(14) 0.38180(16)
N2_4 N 0.67792(8) 0.97475(14) 0.13505(16)
N3_4 N 0.65008(9) 0.33331(14) 0.15190(17)
N5_4 N 0.98821(9) 0.60096(15) 0.12351(19)
H10_4 H 0.6940 0.9991 0.2540
H11_4 H 0.6469 0.9974 0.0230
C20_4 C 0.69725(10) 0.90774(17) 0.1302(2)
C21_4 C 0.73335(11) 0.88966(19) 0.1863(2)
H12_4 H 0.7457 0.9221 0.2261
C22_4 C 0.75075(11) 0.82369(18) 0.1829(2)
H13_4 H 0.7752 0.8109 0.2213
C23_4 C 0.73356(10) 0.77582(17) 0.1251(2)
C24_4 C 0.69761(10) 0.79503(17) 0.06933(19)
H14_4 H 0.6854 0.7629 0.0291
C25_4 C 0.67963(10) 0.86075(17) 0.07233(19)
H15_4 H 0.6550 0.8734 0.0343
C26_4 C 0.75267(10) 0.70514(17) 0.12240(19)
C27_4 C 0.79568(10) 0.69847(17) 0.12736(19)
H16_4 H 0.8129 0.7394 0.1338
C28_4 C 0.81379(10) 0.63250(17) 0.12306(19)
C29_4 C 0.78809(10) 0.57327(17) 0.11729(19)
H17_4 H 0.7999 0.5281 0.1133
C30_4 C 0.74537(10) 0.57842(17) 0.11715(19)
C31_4 C 0.72776(10) 0.64538(17) 0.1163(2)
H18_4 H 0.6983 0.6501 0.1115
C32_4 C 0.72021(10) 0.51473(17) 0.12439(19)
C33_4 C 0.68552(10) 0.51867(18) 0.1588(2)
H19_4 H 0.6777 0.5632 0.1757
C34_4 C 0.66226(11) 0.45945(18) 0.1690(2)
H20_4 H 0.6387 0.4634 0.1920
C35_4 C 0.67403(10) 0.39471(18) 0.1450(2)
C36_4 C 0.70864(11) 0.38896(18) 0.1120(2)
H21_4 H 0.7168 0.3441 0.0967
C37_4 C 0.73133(11) 0.44834(18) 0.1014(2)
H22_4 H 0.7548 0.4439 0.0780
C38_4 C 0.62646(12) 0.31835(19) 0.2062(2)
H23_4 H 0.6238 0.3465 0.2496
C39_4 C 0.60797(11) 0.25571(19) 0.1848(2)
H24_4 H 0.5899 0.2318 0.2117
C40_4 C 0.64433(11) 0.27919(18) 0.1009(2)
H25_4 H 0.6571 0.2762 0.0575
C41_4 C 0.85949(10) 0.62537(17) 0.12532(19)
C42_4 C 0.87966(11) 0.56067(18) 0.1378(2)
H26_4 H 0.8640 0.5205 0.1468
C43_4 C 0.92158(10) 0.55281(18) 0.1377(2)
H27_4 H 0.9344 0.5077 0.1464
C44_4 C 0.94498(10) 0.61062(18) 0.1249(2)
C45_4 C 0.92599(11) 0.67605(18) 0.1127(2)
H28_4 H 0.9419 0.7161 0.1043
C46_4 C 0.88396(11) 0.68320(18) 0.1127(2)
H29_4 H 0.8712 0.7284 0.1040
N8_4 N 0.32208(8) 0.97475(14) 0.36495(16)
N9_4 N 0.34992(9) 0.33331(14) 0.34810(17)
N11_4 N 0.01179(9) 0.60096(15) 0.37649(19)
H42_4 H 0.3060 0.9991 0.2460
H43_4 H 0.3531 0.9974 0.4770
C69_4 C 0.30275(10) 0.90774(17) 0.3698(2)
C70_4 C 0.26665(11) 0.88966(19) 0.3137(2)
H44_4 H 0.2543 0.9221 0.2739
C71_4 C 0.24925(11) 0.82369(18) 0.3171(2)
H45_4 H 0.2248 0.8109 0.2787
C72_4 C 0.26644(10) 0.77582(17) 0.3749(2)
C73_4 C 0.30239(10) 0.79503(17) 0.43067(19)
H46_4 H 0.3146 0.7629 0.4709
C74_4 C 0.32037(10) 0.86075(17) 0.42767(19)
H47_4 H 0.3450 0.8734 0.4657
C75_4 C 0.24733(10) 0.70514(17) 0.37760(19)
C76_4 C 0.20432(10) 0.69847(17) 0.37264(19)
H48_4 H 0.1871 0.7394 0.3662
C77_4 C 0.18621(10) 0.63250(17) 0.37694(19)
C78_4 C 0.21191(10) 0.57327(17) 0.38271(19)
H49_4 H 0.2001 0.5281 0.3867
C79_4 C 0.25463(10) 0.57842(17) 0.38285(19)
C80_4 C 0.27224(10) 0.64538(17) 0.3837(2)
H50_4 H 0.3017 0.6501 0.3885
C81_4 C 0.27979(10) 0.51473(17) 0.37561(19)
C82_4 C 0.31448(10) 0.51867(18) 0.3412(2)
H51_4 H 0.3223 0.5632 0.3243
C83_4 C 0.33774(11) 0.45945(18) 0.3310(2)
H52_4 H 0.3613 0.4634 0.3080
C84_4 C 0.32597(10) 0.39471(18) 0.3550(2)
C85_4 C 0.29136(11) 0.38896(18) 0.3880(2)
H53_4 H 0.2832 0.3441 0.4033
C86_4 C 0.26867(11) 0.44834(18) 0.3986(2)
H54_4 H 0.2452 0.4439 0.4220
C87_4 C 0.37354(12) 0.31835(19) 0.2938(2)
H55_4 H 0.3762 0.3465 0.2504
C88_4 C 0.39203(11) 0.25571(19) 0.3152(2)
H56_4 H 0.4101 0.2318 0.2883
C89_4 C 0.35567(11) 0.27919(18) 0.3991(2)
H57_4 H 0.3429 0.2762 0.4425
C90_4 C 0.14051(10) 0.62537(17) 0.37468(19)
C91_4 C 0.12034(11) 0.56067(18) 0.3622(2)
H58_4 H 0.1360 0.5205 0.3532
C92_4 C 0.07842(10) 0.55281(18) 0.3623(2)
H59_4 H 0.0656 0.5077 0.3536
C93_4 C 0.05502(10) 0.61062(18) 0.3751(2)
C94_4 C 0.07401(11) 0.67605(18) 0.3873(2)
H60_4 H 0.0581 0.7161 0.3957
C95_4 C 0.11604(11) 0.68320(18) 0.3873(2)
H61_4 H 0.1288 0.7284 0.3960
C96_4 C 0.98853(14) 0.5416(3) 0.3511(4)
H62_4 H 0.9976 0.5012 0.3275
C97_4 C 0.95041(14) 0.5519(2) 0.3660(4)
H63_4 H 0.9277 0.5193 0.3541
C98_4 C 0.98629(10) 0.64414(17) 0.4051(2)
H64_4 H 0.9943 0.6896 0.4259
loop_
_geom_bond_atom_site_label_1
_geom_bond_atom_site_label_2
_geom_bond_site_symmetry_1
_geom_bond_site_symmetry_2
N9 C84 1_555 1_555
N10 C88 1_555 1_555
H52 C83 1_555 1_555
C84 C83 1_555 1_555
C85 C84 1_555 1_555
H53 C85 1_555 1_555
H54 C86 1_555 1_555
C87 N9 1_555 1_555
H55 C87 1_555 1_555
C88 C87 1_555 1_555
H56 C88 1_555 1_555
C89 N9 1_555 1_555
H57 C89 1_555 1_555
Co4 N10 1_555 1_555
N10 C89 1_555 1_555
C85 C86 1_555 1_555
C7 H4 1_555 1_555
O5 C50 1_555 1_555
O6 C50 1_555 1_555
C50 C51 1_555 1_555
C51 C52 1_555 1_555
C52 C8 1_555 1_555
C53 C52 1_555 1_555
H33 C53 1_555 1_555
C54 C53 1_555 1_555
H34 C54 1_555 1_555
C55 C7 1_555 1_555
H35 C55 1_555 1_555
Co4 O5 1_555 1_555
N7 Co4 1_555 1_555
N8 C67 1_555 1_555
N11 C93 1_555 1_555
N12 C97 1_555 1_555
C66 N7 1_555 1_555
H41 C66 1_555 1_555
C67 C66 1_555 1_555
H42 C67 1_555 1_555
C68 N7 1_555 1_555
H43 C68 1_555 1_555
C69 N8 1_555 1_555
C70 C69 1_555 1_555
H44 C70 1_555 1_555
C71 C70 1_555 1_555
H45 C71 1_555 1_555
C72 C71 1_555 1_555
C73 C72 1_555 1_555
H46 C73 1_555 1_555
C74 C69 1_555 1_555
H47 C74 1_555 1_555
C75 C72 1_555 1_555
C76 C75 1_555 1_555
H48 C76 1_555 1_555
C77 C76 1_555 1_555
C78 C77 1_555 1_555
H49 C78 1_555 1_555
C79 C78 1_555 1_555
C80 C75 1_555 1_555
H50 C80 1_555 1_555
C81 C79 1_555 1_555
C82 C81 1_555 1_555
H51 C82 1_555 1_555
C90 C77 1_555 1_555
C91 C90 1_555 1_555
H58 C91 1_555 1_555
C92 C91 1_555 1_555
H59 C92 1_555 1_555
C93 C92 1_555 1_555
C94 C93 1_555 1_555
H60 C94 1_555 1_555
C95 C90 1_555 1_555
H61 C95 1_555 1_555
C96 N11 1_555 1_555
H62 C96 1_555 1_555
C97 C96 1_555 1_555
H63 C97 1_555 1_555
C98 N11 1_555 1_555
H64 C98 1_555 1_555
Co6 N12 1_555 1_555
O9 Co4 1_555 1_555
N16 Co4 1_555 1_555
C7 C8 1_555 1_555
O6 Co4 1_555 1_555
C54 C55 1_555 1_555
N8 C68 1_555 1_555
N12 C98 1_555 1_555
C73 C74 1_555 1_555
C79 C80 1_555 1_555
C94 C95 1_555 1_555
N3 C35 1_555 1_555
N4 C39 1_555 1_555
H20 C34 1_555 1_555
C35 C34 1_555 1_555
C36 C35 1_555 1_555
H21 C36 1_555 1_555
H22 C37 1_555 1_555
C38 N3 1_555 1_555
H23 C38 1_555 1_555
C39 C38 1_555 1_555
H24 C39 1_555 1_555
C40 N3 1_555 1_555
H25 C40 1_555 1_555
Co3 N4 1_555 1_555
N4 C40 1_555 1_555
C36 C37 1_555 1_555
O1 C1 1_555 1_555
O4 C9 1_555 1_555
C1 O2 1_555 1_555
C2 C1 1_555 1_555
C3 C2 1_555 1_555
C4 C3 1_555 1_555
H1 C4 1_555 1_555
C5 C4 1_555 1_555
H2 C5 1_555 1_555
C6 C5 1_555 1_555
H3 C6 1_555 1_555
C9 O3 1_555 1_555
C10 C9 1_555 1_555
C15 H8 1_555 1_555
C16 C10 1_555 1_555
C56 C6 1_555 1_555
H36 C56 1_555 1_555
C57 C3 1_555 1_555
C60 C16 1_555 1_555
C61 C60 1_555 1_555
H37 C61 1_555 1_555
C62 C61 1_555 1_555
H38 C62 1_555 1_555
C63 C15 1_555 1_555
H39 C63 1_555 1_555
C15 C16 1_555 1_555
C56 C57 1_555 1_555
C62 C63 1_555 1_555
N1 Co3 1_555 1_555
N2 C18 1_555 1_555
N5 C44 1_555 1_555
N6 C48 1_555 1_555
C12 C11 1_555 1_555
H5 C12 1_555 1_555
C13 C12 1_555 1_555
H6 C13 1_555 1_555
C14 C13 1_555 1_555
H7 C14 1_555 1_555
C17 N1 1_555 1_555
H9 C17 1_555 1_555
C18 C17 1_555 1_555
H10 C18 1_555 1_555
C19 N1 1_555 1_555
H11 C19 1_555 1_555
C20 N2 1_555 1_555
C21 C20 1_555 1_555
H12 C21 1_555 1_555
C22 C21 1_555 1_555
H13 C22 1_555 1_555
C23 C22 1_555 1_555
C24 C23 1_555 1_555
H14 C24 1_555 1_555
C25 C20 1_555 1_555
H15 C25 1_555 1_555
C26 C23 1_555 1_555
C27 C26 1_555 1_555
H16 C27 1_555 1_555
C28 C27 1_555 1_555
C29 C28 1_555 1_555
H17 C29 1_555 1_555
C30 C29 1_555 1_555
C31 C26 1_555 1_555
H18 C31 1_555 1_555
C32 C30 1_555 1_555
C33 C32 1_555 1_555
H19 C33 1_555 1_555
C41 C28 1_555 1_555
C42 C41 1_555 1_555
H26 C42 1_555 1_555
C43 C42 1_555 1_555
H27 C43 1_555 1_555
C44 C43 1_555 1_555
C45 C44 1_555 1_555
H28 C45 1_555 1_555
C46 C41 1_555 1_555
H29 C46 1_555 1_555
C47 N5 1_555 1_555
H30 C47 1_555 1_555
C48 C47 1_555 1_555
H31 C48 1_555 1_555
C49 N5 1_555 1_555
H32 C49 1_555 1_555
O7 C58 1_555 1_555
O8 C58 1_555 1_555
C58 C59 1_555 1_555
C64 C14 1_555 1_555
H40 C64 1_555 1_555
C65 C11 1_555 1_555
Co5 N6 1_555 1_555
N15 Co3 1_555 1_555
N2 C19 1_555 1_555
N6 C49 1_555 1_555
C24 C25 1_555 1_555
C30 C31 1_555 1_555
C45 C46 1_555 1_555
C59 C65 1_555 1_555
C64 C65 1_555 1_555
O4_2 C9_2 1_555 1_555
C9_2 O9 1_555 1_555
C10_2 C9_2 1_555 1_555
C11_2 C10_2 1_555 1_555
C12_2 C11_2 1_555 1_555
H5_2 C12_2 1_555 1_555
C13_2 C12_2 1_555 1_555
H6_2 C13_2 1_555 1_555
C14_2 C13_2 1_555 1_555
H7_2 C14_2 1_555 1_555
C15_2 H8_2 1_555 1_555
C16_2 C10_2 1_555 1_555
O7_2 C58_2 1_555 1_555
O8_2 C58_2 1_555 1_555
C58_2 C59_2 1_555 1_555
C59_2 C60_2 1_555 1_555
C60_2 C16_2 1_555 1_555
C61_2 C60_2 1_555 1_555
H37_2 C61_2 1_555 1_555
C62_2 C61_2 1_555 1_555
H38_2 C62_2 1_555 1_555
C63_2 C15_2 1_555 1_555
H39_2 C63_2 1_555 1_555
C64_2 C14_2 1_555 1_555
H40_2 C64_2 1_555 1_555
C65_2 C11_2 1_555 1_555
Co7_2 O7_2 1_555 1_555
C15_2 C16_2 1_555 1_555
C59_2 C65_2 1_555 1_555
C62_2 C63_2 1_555 1_555
C64_2 C65_2 1_555 1_555
N16 C97_2 1_555 1_555
H62_2 C96_2 1_555 1_555
C97_2 C96_2 1_555 1_555
H63_2 C97_2 1_555 1_555
H64_2 C98_2 1_555 1_555
N16 C98_2 1_555 1_555
N9_2 C84_2 1_555 1_555
N10_2 C88_2 1_555 1_555
N11_2 C93_2 1_555 1_555
C69_2 N8_2 1_555 1_555
C70_2 C69_2 1_555 1_555
H44_2 C70_2 1_555 1_555
C71_2 C70_2 1_555 1_555
H45_2 C71_2 1_555 1_555
C72_2 C71_2 1_555 1_555
C73_2 C72_2 1_555 1_555
H46_2 C73_2 1_555 1_555
C74_2 C69_2 1_555 1_555
H47_2 C74_2 1_555 1_555
C75_2 C72_2 1_555 1_555
C76_2 C75_2 1_555 1_555
H48_2 C76_2 1_555 1_555
C77_2 C76_2 1_555 1_555
C78_2 C77_2 1_555 1_555
H49_2 C78_2 1_555 1_555
C79_2 C78_2 1_555 1_555
C80_2 C75_2 1_555 1_555
H50_2 C80_2 1_555 1_555
C81_2 C79_2 1_555 1_555
C82_2 C81_2 1_555 1_555
H51_2 C82_2 1_555 1_555
C83_2 C82_2 1_555 1_555
H52_2 C83_2 1_555 1_555
C84_2 C83_2 1_555 1_555
C85_2 C84_2 1_555 1_555
H53_2 C85_2 1_555 1_555
C86_2 C81_2 1_555 1_555
H54_2 C86_2 1_555 1_555
C87_2 N9_2 1_555 1_555
H55_2 C87_2 1_555 1_555
C88_2 C87_2 1_555 1_555
H56_2 C88_2 1_555 1_555
C89_2 N9_2 1_555 1_555
H57_2 C89_2 1_555 1_555
C90_2 C77_2 1_555 1_555
C91_2 C90_2 1_555 1_555
H58_2 C91_2 1_555 1_555
C92_2 C91_2 1_555 1_555
H59_2 C92_2 1_555 1_555
C93_2 C92_2 1_555 1_555
C94_2 C93_2 1_555 1_555
H60_2 C94_2 1_555 1_555
C95_2 C90_2 1_555 1_555
H61_2 C95_2 1_555 1_555
Co6 N10_2 1_555 1_555
N10_2 C89_2 1_555 1_555
C73_2 C74_2 1_555 1_555
C79_2 C80_2 1_555 1_555
C85_2 C86_2 1_555 1_555
C94_2 C95_2 1_555 1_555
N3_2 C35_2 1_555 1_555
N4_2 C39_2 1_555 1_555
N5_2 C44_2 1_555 1_555
C20_2 N2_2 1_555 1_555
C21_2 C20_2 1_555 1_555
H12_2 C21_2 1_555 1_555
C22_2 C21_2 1_555 1_555
H13_2 C22_2 1_555 1_555
C23_2 C22_2 1_555 1_555
C24_2 C23_2 1_555 1_555
H14_2 C24_2 1_555 1_555
C25_2 C20_2 1_555 1_555
H15_2 C25_2 1_555 1_555
C26_2 C23_2 1_555 1_555
C27_2 C26_2 1_555 1_555
H16_2 C27_2 1_555 1_555
C28_2 C27_2 1_555 1_555
C29_2 C28_2 1_555 1_555
H17_2 C29_2 1_555 1_555
C30_2 C29_2 1_555 1_555
C31_2 C26_2 1_555 1_555
H18_2 C31_2 1_555 1_555
C32_2 C30_2 1_555 1_555
C33_2 C32_2 1_555 1_555
H19_2 C33_2 1_555 1_555
C34_2 C33_2 1_555 1_555
H20_2 C34_2 1_555 1_555
C35_2 C34_2 1_555 1_555
C36_2 C35_2 1_555 1_555
H21_2 C36_2 1_555 1_555
C37_2 C32_2 1_555 1_555
H22_2 C37_2 1_555 1_555
C38_2 N3_2 1_555 1_555
H23_2 C38_2 1_555 1_555
C39_2 C38_2 1_555 1_555
H24_2 C39_2 1_555 1_555
C40_2 N3_2 1_555 1_555
H25_2 C40_2 1_555 1_555
C41_2 C28_2 1_555 1_555
C42_2 C41_2 1_555 1_555
H26_2 C42_2 1_555 1_555
C43_2 C42_2 1_555 1_555
H27_2 C43_2 1_555 1_555
C44_2 C43_2 1_555 1_555
C45_2 C44_2 1_555 1_555
H28_2 C45_2 1_555 1_555
C46_2 C41_2 1_555 1_555
H29_2 C46_2 1_555 1_555
Co5 N4_2 1_555 1_555
N4_2 C40_2 1_555 1_555
C24_2 C25_2 1_555 1_555
C30_2 C31_2 1_555 1_555
C36_2 C37_2 1_555 1_555
C45_2 C46_2 1_555 1_555
O1_2 C1_2 1_555 1_555
O4_3 C9_3 1_555 1_555
C1_2 O2_2 1_555 1_555
C2_2 C1_2 1_555 1_555
C3_2 C2_2 1_555 1_555
C4_2 C3_2 1_555 1_555
H1_2 C4_2 1_555 1_555
C5_2 C4_2 1_555 1_555
H2_2 C5_2 1_555 1_555
C6_2 C5_2 1_555 1_555
H3_2 C6_2 1_555 1_555
C7_2 H4_2 1_555 1_555
C8_2 C2_2 1_555 1_555
C9_3 O3_2 1_555 1_555
C10_3 C9_3 1_555 1_555
C15_3 H8_3 1_555 1_555
C16_3 C10_3 1_555 1_555
O5_2 C50_2 1_555 1_555
O6_2 C50_2 1_555 1_555
C50_2 C51_2 1_555 1_555
C51_2 C52_2 1_555 1_555
C52_2 C8_2 1_555 1_555
C53_2 C52_2 1_555 1_555
H33_2 C53_2 1_555 1_555
C54_2 C53_2 1_555 1_555
H34_2 C54_2 1_555 1_555
C55_2 C7_2 1_555 1_555
H35_2 C55_2 1_555 1_555
C56_2 C6_2 1_555 1_555
H36_2 C56_2 1_555 1_555
C57_2 C3_2 1_555 1_555
C60_3 C16_3 1_555 1_555
C61_3 C60_3 1_555 1_555
H37_3 C61_3 1_555 1_555
C62_3 C61_3 1_555 1_555
H38_3 C62_3 1_555 1_555
C63_3 C15_3 1_555 1_555
H39_3 C63_3 1_555 1_555
Co6 O5_2 1_555 1_555
N7_2 Co6 1_555 1_555
C66_2 N7_2 1_555 1_555
H41_2 C66_2 1_555 1_555
C67_2 C66_2 1_555 1_555
C68_2 N7_2 1_555 1_555
O9_2 Co6 1_555 1_555
C7_2 C8_2 1_555 1_555
C15_3 C16_3 1_555 1_555
O6_2 Co6 1_555 1_555
C51_2 C57_2 1_555 1_555
C54_2 C55_2 1_555 1_555
C56_2 C57_2 1_555 1_555
C62_3 C63_3 1_555 1_555
N1_2 Co5 1_555 1_555
C12_3 C11_3 1_555 1_555
H5_3 C12_3 1_555 1_555
C13_3 C12_3 1_555 1_555
H6_3 C13_3 1_555 1_555
C14_3 C13_3 1_555 1_555
H7_3 C14_3 1_555 1_555
C17_2 N1_2 1_555 1_555
H9_2 C17_2 1_555 1_555
C18_2 C17_2 1_555 1_555
C19_2 N1_2 1_555 1_555
O7_3 C58_3 1_555 1_555
O8_3 C58_3 1_555 1_555
C58_3 C59_3 1_555 1_555
C64_3 C14_3 1_555 1_555
H40_3 C64_3 1_555 1_555
C65_3 C11_3 1_555 1_555
C59_3 C65_3 1_555 1_555
C64_3 C65_3 1_555 1_555
N15 C48_2 1_555 1_555
H30_2 C47_2 1_555 1_555
C48_2 C47_2 1_555 1_555
H31_2 C48_2 1_555 1_555
H32_2 C49_2 1_555 1_555
N15 C49_2 1_555 1_555
O4_4 C9_4 1_555 1_555
C9_4 O9_2 1_555 1_555
C10_4 C9_4 1_555 1_555
C11_4 C10_4 1_555 1_555
C12_4 C11_4 1_555 1_555
H5_4 C12_4 1_555 1_555
C13_4 C12_4 1_555 1_555
H6_4 C13_4 1_555 1_555
C14_4 C13_4 1_555 1_555
H7_4 C14_4 1_555 1_555
C15_4 H8_4 1_555 1_555
C16_4 C10_4 1_555 1_555
O7_4 C58_4 1_555 1_555
O8_4 C58_4 1_555 1_555
C58_4 C59_4 1_555 1_555
C59_4 C60_4 1_555 1_555
C60_4 C16_4 1_555 1_555
C61_4 C60_4 1_555 1_555
H37_4 C61_4 1_555 1_555
C62_4 C61_4 1_555 1_555
H38_4 C62_4 1_555 1_555
C63_4 C15_4 1_555 1_555
H39_4 C63_4 1_555 1_555
C64_4 C14_4 1_555 1_555
H40_4 C64_4 1_555 1_555
C65_4 C11_4 1_555 1_555
Co7_4 O7_4 1_555 1_555
C15_4 C16_4 1_555 1_555
C59_4 C65_4 1_555 1_555
C62_4 C63_4 1_555 1_555
C64_4 C65_4 1_555 1_555
N1_3 Co7_3 1_555 1_555
N2_3 C18_3 1_555 1_555
N5_3 C44_3 1_555 1_555
N6_2 C48_3 1_555 1_555
C17_3 N1_3 1_555 1_555
H9_3 C17_3 1_555 1_555
C18_3 C17_3 1_555 1_555
H10_3 C18_3 1_555 1_555
C19_3 N1_3 1_555 1_555
H11_3 C19_3 1_555 1_555
C20_3 N2_3 1_555 1_555
C21_3 C20_3 1_555 1_555
H12_3 C21_3 1_555 1_555
C22_3 C21_3 1_555 1_555
H13_3 C22_3 1_555 1_555
C23_3 C22_3 1_555 1_555
C24_3 C23_3 1_555 1_555
H14_3 C24_3 1_555 1_555
C25_3 C20_3 1_555 1_555
H15_3 C25_3 1_555 1_555
C26_3 C23_3 1_555 1_555
C27_3 C26_3 1_555 1_555
H16_3 C27_3 1_555 1_555
C28_3 C27_3 1_555 1_555
C29_3 C28_3 1_555 1_555
H17_3 C29_3 1_555 1_555
C30_3 C29_3 1_555 1_555
C31_3 C26_3 1_555 1_555
H18_3 C31_3 1_555 1_555
C32_3 C30_3 1_555 1_555
C33_3 C32_3 1_555 1_555
H19_3 C33_3 1_555 1_555
C41_3 C28_3 1_555 1_555
C42_3 C41_3 1_555 1_555
H26_3 C42_3 1_555 1_555
C43_3 C42_3 1_555 1_555
H27_3 C43_3 1_555 1_555
C44_3 C43_3 1_555 1_555
C45_3 C44_3 1_555 1_555
H28_3 C45_3 1_555 1_555
C46_3 C41_3 1_555 1_555
H29_3 C46_3 1_555 1_555
C47_3 N5_3 1_555 1_555
H30_3 C47_3 1_555 1_555
C48_3 C47_3 1_555 1_555
H31_3 C48_3 1_555 1_555
C49_3 N5_3 1_555 1_555
H32_3 C49_3 1_555 1_555
Co7 N6_2 1_555 1_555
N13 Co7_3 1_555 1_555
N15_2 Co7_3 1_555 1_555
N2_3 C19_3 1_555 1_555
N6_2 C49_3 1_555 1_555
C24_3 C25_3 1_555 1_555
C30_3 C31_3 1_555 1_555
C45_3 C46_3 1_555 1_555
O1_3 C1_3 1_555 1_555
C1_3 O2_3 1_555 1_555
C2_3 C1_3 1_555 1_555
C3_3 C2_3 1_555 1_555
C4_3 C3_3 1_555 1_555
H1_3 C4_3 1_555 1_555
C5_3 C4_3 1_555 1_555
H2_3 C5_3 1_555 1_555
C6_3 C5_3 1_555 1_555
H3_3 C6_3 1_555 1_555
C56_3 C6_3 1_555 1_555
H36_3 C56_3 1_555 1_555
C57_3 C3_3 1_555 1_555
C56_3 C57_3 1_555 1_555
N3_3 C35_3 1_555 1_555
N13 C39_3 1_555 1_555
H20_3 C34_3 1_555 1_555
C35_3 C34_3 1_555 1_555
C36_3 C35_3 1_555 1_555
H21_3 C36_3 1_555 1_555
H22_3 C37_3 1_555 1_555
C38_3 N3_3 1_555 1_555
H23_3 C38_3 1_555 1_555
C39_3 C38_3 1_555 1_555
H24_3 C39_3 1_555 1_555
C40_3 N3_3 1_555 1_555
H25_3 C40_3 1_555 1_555
N13 C40_3 1_555 1_555
C36_3 C37_3 1_555 1_555
C7_3 H4_3 1_555 1_555
O5_3 C50_3 1_555 1_555
O6_3 C50_3 1_555 1_555
C50_3 C51_3 1_555 1_555
C51_3 C52_3 1_555 1_555
C52_3 C8_3 1_555 1_555
C53_3 C52_3 1_555 1_555
H33_3 C53_3 1_555 1_555
C54_3 C53_3 1_555 1_555
H34_3 C54_3 1_555 1_555
C55_3 C7_3 1_555 1_555
H35_3 C55_3 1_555 1_555
Co7_4 O5_3 1_555 1_555
N7_3 Co7_4 1_555 1_555
N8_3 C67_3 1_555 1_555
N11_3 C93_3 1_555 1_555
N12_2 C97_3 1_555 1_555
C66_3 N7_3 1_555 1_555
H41_3 C66_3 1_555 1_555
C67_3 C66_3 1_555 1_555
H42_3 C67_3 1_555 1_555
C68_3 N7_3 1_555 1_555
H43_3 C68_3 1_555 1_555
C69_3 N8_3 1_555 1_555
C70_3 C69_3 1_555 1_555
H44_3 C70_3 1_555 1_555
C71_3 C70_3 1_555 1_555
H45_3 C71_3 1_555 1_555
C72_3 C71_3 1_555 1_555
C73_3 C72_3 1_555 1_555
H46_3 C73_3 1_555 1_555
C74_3 C69_3 1_555 1_555
H47_3 C74_3 1_555 1_555
C75_3 C72_3 1_555 1_555
C76_3 C75_3 1_555 1_555
H48_3 C76_3 1_555 1_555
C77_3 C76_3 1_555 1_555
C78_3 C77_3 1_555 1_555
H49_3 C78_3 1_555 1_555
C79_3 C78_3 1_555 1_555
C80_3 C75_3 1_555 1_555
H50_3 C80_3 1_555 1_555
C81_3 C79_3 1_555 1_555
C82_3 C81_3 1_555 1_555
H51_3 C82_3 1_555 1_555
C90_3 C77_3 1_555 1_555
C91_3 C90_3 1_555 1_555
H58_3 C91_3 1_555 1_555
C92_3 C91_3 1_555 1_555
H59_3 C92_3 1_555 1_555
C93_3 C92_3 1_555 1_555
C94_3 C93_3 1_555 1_555
H60_3 C94_3 1_555 1_555
C95_3 C90_3 1_555 1_555
H61_3 C95_3 1_555 1_555
C96_3 N11_3 1_555 1_555
H62_3 C96_3 1_555 1_555
C97_3 C96_3 1_555 1_555
H63_3 C97_3 1_555 1_555
C98_3 N11_3 1_555 1_555
H64_3 C98_3 1_555 1_555
Co7_2 N12_2 1_555 1_555
N14 Co7_4 1_555 1_555
N16_2 Co7_4 1_555 1_555
C7_3 C8_3 1_555 1_555
O6_3 Co7_4 1_555 1_555
C54_3 C55_3 1_555 1_555
N8_3 C68_3 1_555 1_555
N12_2 C98_3 1_555 1_555
C73_3 C74_3 1_555 1_555
C79_3 C80_3 1_555 1_555
C94_3 C95_3 1_555 1_555
N9_3 C84_3 1_555 1_555
N14 C88_3 1_555 1_555
H52_3 C83_3 1_555 1_555
C84_3 C83_3 1_555 1_555
C85_3 C84_3 1_555 1_555
H53_3 C85_3 1_555 1_555
H54_3 C86_3 1_555 1_555
C87_3 N9_3 1_555 1_555
H55_3 C87_3 1_555 1_555
C88_3 C87_3 1_555 1_555
H56_3 C88_3 1_555 1_555
C89_3 N9_3 1_555 1_555
H57_3 C89_3 1_555 1_555
N14 C89_3 1_555 1_555
C85_3 C86_3 1_555 1_555
N15_2 C48_4 1_555 1_555
H30_4 C47_4 1_555 1_555
C48_4 C47_4 1_555 1_555
H31_4 C48_4 1_555 1_555
H32_4 C49_4 1_555 1_555
N15_2 C49_4 1_555 1_555
N1_4 Co7 1_555 1_555
C17_4 N1_4 1_555 1_555
H9_4 C17_4 1_555 1_555
C18_4 C17_4 1_555 1_555
C19_4 N1_4 1_555 1_555
N13_2 Co7 1_555 1_555
O1_4 C1_4 1_555 1_555
C1_4 O2_4 1_555 1_555
C2_4 C1_4 1_555 1_555
C3_4 C2_4 1_555 1_555
C4_4 C3_4 1_555 1_555
H1_4 C4_4 1_555 1_555
C5_4 C4_4 1_555 1_555
H2_4 C5_4 1_555 1_555
C6_4 C5_4 1_555 1_555
H3_4 C6_4 1_555 1_555
C7_4 H4_4 1_555 1_555
C8_4 C2_4 1_555 1_555
O5_4 C50_4 1_555 1_555
O6_4 C50_4 1_555 1_555
C50_4 C51_4 1_555 1_555
C51_4 C52_4 1_555 1_555
C52_4 C8_4 1_555 1_555
C53_4 C52_4 1_555 1_555
H33_4 C53_4 1_555 1_555
C54_4 C53_4 1_555 1_555
H34_4 C54_4 1_555 1_555
C55_4 C7_4 1_555 1_555
H35_4 C55_4 1_555 1_555
C56_4 C6_4 1_555 1_555
H36_4 C56_4 1_555 1_555
C57_4 C3_4 1_555 1_555
Co7_2 O5_4 1_555 1_555
N7_4 Co7_2 1_555 1_555
C66_4 N7_4 1_555 1_555
H41_4 C66_4 1_555 1_555
C67_4 C66_4 1_555 1_555
C68_4 N7_4 1_555 1_555
N14_2 Co7_2 1_555 1_555
C7_4 C8_4 1_555 1_555
O6_4 Co7_2 1_555 1_555
C51_4 C57_4 1_555 1_555
C54_4 C55_4 1_555 1_555
C56_4 C57_4 1_555 1_555
N3_4 C35_4 1_555 1_555
N13_2 C39_4 1_555 1_555
N5_4 C44_4 1_555 1_555
C20_4 N2_4 1_555 1_555
C21_4 C20_4 1_555 1_555
H12_4 C21_4 1_555 1_555
C22_4 C21_4 1_555 1_555
H13_4 C22_4 1_555 1_555
C23_4 C22_4 1_555 1_555
C24_4 C23_4 1_555 1_555
H14_4 C24_4 1_555 1_555
C25_4 C20_4 1_555 1_555
H15_4 C25_4 1_555 1_555
C26_4 C23_4 1_555 1_555
C27_4 C26_4 1_555 1_555
H16_4 C27_4 1_555 1_555
C28_4 C27_4 1_555 1_555
C29_4 C28_4 1_555 1_555
H17_4 C29_4 1_555 1_555
C30_4 C29_4 1_555 1_555
C31_4 C26_4 1_555 1_555
H18_4 C31_4 1_555 1_555
C32_4 C30_4 1_555 1_555
C33_4 C32_4 1_555 1_555
H19_4 C33_4 1_555 1_555
C34_4 C33_4 1_555 1_555
H20_4 C34_4 1_555 1_555
C35_4 C34_4 1_555 1_555
C36_4 C35_4 1_555 1_555
H21_4 C36_4 1_555 1_555
C37_4 C32_4 1_555 1_555
H22_4 C37_4 1_555 1_555
C38_4 N3_4 1_555 1_555
H23_4 C38_4 1_555 1_555
C39_4 C38_4 1_555 1_555
H24_4 C39_4 1_555 1_555
C40_4 N3_4 1_555 1_555
H25_4 C40_4 1_555 1_555
C41_4 C28_4 1_555 1_555
C42_4 C41_4 1_555 1_555
H26_4 C42_4 1_555 1_555
C43_4 C42_4 1_555 1_555
H27_4 C43_4 1_555 1_555
C44_4 C43_4 1_555 1_555
C45_4 C44_4 1_555 1_555
H28_4 C45_4 1_555 1_555
C46_4 C41_4 1_555 1_555
H29_4 C46_4 1_555 1_555
N13_2 C40_4 1_555 1_555
C24_4 C25_4 1_555 1_555
C30_4 C31_4 1_555 1_555
C36_4 C37_4 1_555 1_555
C45_4 C46_4 1_555 1_555
N9_4 C84_4 1_555 1_555
N14_2 C88_4 1_555 1_555
N11_4 C93_4 1_555 1_555
C69_4 N8_4 1_555 1_555
C70_4 C69_4 1_555 1_555
H44_4 C70_4 1_555 1_555
C71_4 C70_4 1_555 1_555
H45_4 C71_4 1_555 1_555
C72_4 C71_4 1_555 1_555
C73_4 C72_4 1_555 1_555
H46_4 C73_4 1_555 1_555
C74_4 C69_4 1_555 1_555
H47_4 C74_4 1_555 1_555
C75_4 C72_4 1_555 1_555
C76_4 C75_4 1_555 1_555
H48_4 C76_4 1_555 1_555
C77_4 C76_4 1_555 1_555
C78_4 C77_4 1_555 1_555
H49_4 C78_4 1_555 1_555
C79_4 C78_4 1_555 1_555
C80_4 C75_4 1_555 1_555
H50_4 C80_4 1_555 1_555
C81_4 C79_4 1_555 1_555
C82_4 C81_4 1_555 1_555
H51_4 C82_4 1_555 1_555
C83_4 C82_4 1_555 1_555
H52_4 C83_4 1_555 1_555
C84_4 C83_4 1_555 1_555
C85_4 C84_4 1_555 1_555
H53_4 C85_4 1_555 1_555
C86_4 C81_4 1_555 1_555
H54_4 C86_4 1_555 1_555
C87_4 N9_4 1_555 1_555
H55_4 C87_4 1_555 1_555
C88_4 C87_4 1_555 1_555
H56_4 C88_4 1_555 1_555
C89_4 N9_4 1_555 1_555
H57_4 C89_4 1_555 1_555
C90_4 C77_4 1_555 1_555
C91_4 C90_4 1_555 1_555
H58_4 C91_4 1_555 1_555
C92_4 C91_4 1_555 1_555
H59_4 C92_4 1_555 1_555
C93_4 C92_4 1_555 1_555
C94_4 C93_4 1_555 1_555
H60_4 C94_4 1_555 1_555
C95_4 C90_4 1_555 1_555
H61_4 C95_4 1_555 1_555
N14_2 C89_4 1_555 1_555
C73_4 C74_4 1_555 1_555
C79_4 C80_4 1_555 1_555
C85_4 C86_4 1_555 1_555
C94_4 C95_4 1_555 1_555
N16_2 C97_4 1_555 1_555
H62_4 C96_4 1_555 1_555
C97_4 C96_4 1_555 1_555
H63_4 C97_4 1_555 1_555
H64_4 C98_4 1_555 1_555
N16_2 C98_4 1_555 1_555

#END
