
###############################################################################
#
# This file contains modified crystal structure data generated from the
# MOF subset of the Cambridge Structural Database (CSD) v543 
# hosted by the Cambridge Crystallographic Data Centre (CCDC).
#
# This work is licensed under the Creative Commons
# Attribution-NonCommercial-ShareAlike 4.0 International License.
# To view a copy of this license, visit
# http://creativecommons.org/licenses/by-nc-sa/4.0/
# or send a letter to
# Creative Commons, PO Box 1866, Mountain View, CA 94042, USA.
#
# CIF created using the CSD Python API on 29 September 2022
# The structure has been converted into the P1 space group
# The structure has a 3D framework
# The original CSD entry KAVREG is in the orthorhombic crystal system
# The framework has been calculated to contain at least 10.0% void space
# The void calculation uses a probe of radius 1.32A, grid spacing 0.4
#
###############################################################################

data_KAVREG
_chemical_formula_moiety         '(C48 H48 Co29 O96)n'
_symmetry_cell_setting           triclinic
_symmetry_space_group_name_H-M   'P 1'
_symmetry_Int_Tables_number      1
_space_group_name_Hall           'P 1'
loop_
_symmetry_equiv_pos_site_id
_symmetry_equiv_pos_as_xyz
1 x,y,z
_cell_length_a                   9.8839(4)
_cell_length_b                   18.2370(8)
_cell_length_c                   18.0818(8)
_cell_angle_alpha                90
_cell_angle_beta                 90
_cell_angle_gamma                90
_cell_volume                     3259.29
loop_
_atom_site_label
_atom_site_type_symbol
_atom_site_fract_x
_atom_site_fract_y
_atom_site_fract_z
Co1 Co 0.57822(4) 0.17890(2) 0.06090(2)
Co3 Co 0.5000 0.18737(4) 0.2500
Co4 Co 0.5000 0.0000 0.0000
O3 O 0.7076(2) 0.00735(13) 0.00869(15)
O4 O 0.7553(2) 0.12687(13) 0.02214(13)
O5 O 0.4735(2) 0.08382(13) 0.08067(12)
O6 O 0.3897(2) 0.10832(15) 0.19332(14)
O7 O 0.6537(2) 0.18636(13) 0.16832(12)
O8 O 0.6981(2) 0.26963(12) 0.03194(12)
O10 O 0.4151(2) 0.25131(13) 0.07636(12)
O11 O 0.3885(2) 0.26846(14) 0.19789(14)
O12 O 0.8755(2) 0.20289(15) 0.14715(13)
C2 C 0.7871(3) 0.0600(2) 0.0123(2)
C3 C 0.3968(3) 0.0720(2) 0.1366(2)
C4 C 0.7765(3) 0.1921(2) 0.1883(2)
C6 C 0.3630(3) 0.2820(2) 0.1332(2)
H1 H 0.876(5) 0.045(3) 0.015(3)
H2 H 0.333(3) 0.034(2) 0.1322(18)
H3 H 0.795(3) 0.1883(18) 0.2391(19)
H5 H 0.288(3) 0.322(2) 0.121(2)
Co5 Co 0.42178(4) 0.17890(2) 0.43910(2)
Co8 Co 0.61238(4) 0.28329(2) 0.53512(2)
Co9 Co 0.88762(4) 0.21671(2) 0.03512(2)
Co10 Co 0.11238(4) 0.21671(2) 0.46488(2)
Co13 Co 0.5000 0.0000 0.5000
Co14 Co -0.0000 0.5000 0.0000
O14 O 0.5056(2) 0.18515(13) 0.54526(12)
O19 O 0.2447(2) 0.12687(13) 0.47786(13)
O20 O 0.7447(2) 0.37313(13) 0.52214(13)
O21 O 0.5265(2) 0.08382(13) 0.41933(12)
O23 O 0.6103(2) 0.10832(15) 0.30668(14)
O24 O 0.3463(2) 0.18636(13) 0.33168(12)
O26 O 0.3019(2) 0.26963(12) 0.46806(12)
O27 O 0.8019(2) 0.23037(12) 0.53194(12)
O28 O 0.0575(2) 0.15292(13) 0.02570(14)
O29 O 0.4425(2) 0.34708(13) 0.52570(14)
O30 O 0.5849(2) 0.25131(13) 0.42364(12)
O31 O 0.6115(2) 0.26846(14) 0.30211(14)
O32 O 0.1245(2) 0.20289(15) 0.35285(13)
O34 O 0.6245(2) 0.29711(15) 0.64715(13)
C9 C 0.6032(3) 0.0720(2) 0.3634(2)
C10 C 0.2235(3) 0.1921(2) 0.3117(2)
C11 C 0.1691(3) 0.17066(19) 0.0001(2)
C12 C 0.6370(3) 0.2820(2) 0.3668(2)
H8 H 0.667(3) 0.034(2) 0.3678(18)
H9 H 0.205(3) 0.1883(18) 0.2609(19)
H10 H 0.241(3) 0.1335(18) 0.0053(17)
H11 H 0.712(3) 0.322(2) 0.379(2)
Co2 Co 0.38762(4) 0.28329(2) 0.96488(2)
Co4_2 Co 0.5000 0.0000 1.0000
O1 O 0.4944(2) 0.18515(13) 0.95474(12)
O2 O 0.5005(3) 0.07185(13) 0.90972(14)
O9 O 0.5575(2) 0.34708(13) 0.97430(14)
C1 C 0.4842(4) 0.1386(2) 0.9036(2)
C5 C 0.6691(3) 0.32934(19) 0.9999(2)
H4 H 0.741(3) 0.3665(18) 0.9947(17)
H6 H 0.469(3) 0.154(2) 0.858(2)
Co6 Co 0.07822(4) 0.32110(2) 0.93910(2)
Co14_2 Co -0.0000 0.5000 1.0000
O16 O 0.2076(2) 0.49265(13) 0.99131(15)
O18 O 0.2553(2) 0.37313(13) 0.97786(13)
O25 O 0.1981(2) 0.23037(12) 0.96806(12)
O33 O 0.3755(2) 0.29711(15) 0.85285(13)
C8 C 0.2871(3) 0.4400(2) 0.9877(2)
H7 H 0.376(5) 0.455(3) 0.985(3)
Co4_3 Co 0.5000 1.0000 0.0000
Co12 Co 0.61238(4) 0.71671(2) 0.03512(2)
Co13_2 Co 0.5000 1.0000 0.5000
O13 O 0.5056(2) 0.81485(13) 0.04526(12)
O15 O 0.4995(3) 0.92815(13) 0.09028(14)
C7 C 0.5158(4) 0.8614(2) 0.0964(2)
H12 H 0.531(3) 0.846(2) 0.142(2)
Co4_4 Co 0.5000 1.0000 1.0000
Co7 Co 0.42178(4) 0.82110(2) 0.93910(2)
O17 O 0.2924(2) 0.99265(13) 0.99131(15)
O22 O 0.5265(2) 0.91618(13) 0.91933(12)
Co14_3 Co 1.0000 0.5000 0.0000
Co14_4 Co 1.0000 0.5000 1.0000
Co3_2 Co 0.0000 0.31263(4) 0.7500
Co4_5 Co -0.0000 0.5000 0.5000
O1_2 O 0.0056(2) 0.31485(13) 0.45474(12)
O5_2 O 0.0265(2) 0.41618(13) 0.58067(12)
O6_2 O 0.1103(2) 0.39168(15) 0.69332(14)
O10_2 O 0.0849(2) 0.24869(13) 0.57636(12)
O11_2 O 0.1115(2) 0.23154(14) 0.69789(14)
C1_2 C 0.0158(4) 0.3614(2) 0.4036(2)
C3_2 C 0.1032(3) 0.4280(2) 0.6366(2)
C6_2 C 0.1370(3) 0.2180(2) 0.6332(2)
H2_2 H 0.167(3) 0.466(2) 0.6322(18)
H5_2 H 0.212(3) 0.178(2) 0.621(2)
H6_2 H 0.031(3) 0.346(2) 0.358(2)
Co7_2 Co 0.07822(4) 0.67890(2) 0.43910(2)
O15_2 O 0.0005(3) 0.57185(13) 0.59028(14)
O16_2 O 0.2924(2) 0.00735(13) 0.49131(15)
O17_2 O 0.2076(2) 0.50735(13) 0.49131(15)
O24_2 O 0.1537(2) 0.31364(13) 0.83168(12)
C8_2 C 0.2129(3) 0.0600(2) 0.4877(2)
C10_2 C 0.2765(3) 0.3079(2) 0.8117(2)
C11_2 C 0.3309(3) 0.32934(19) 0.5001(2)
H7_2 H 0.124(5) 0.045(3) 0.485(3)
H9_2 H 0.295(3) 0.3117(18) 0.7609(19)
H10_2 H 0.259(3) 0.3665(18) 0.5053(17)
O14_2 O 0.9944(2) 0.31485(13) 0.04526(12)
Co1_2 Co 0.92178(4) 0.32110(2) 0.56090(2)
Co3_3 Co 1.0000 0.31263(4) 0.7500
Co4_6 Co 1.0000 0.5000 0.5000
O2_2 O 0.9995(3) 0.42815(13) 0.40972(14)
O3_2 O 0.7924(2) 0.49265(13) 0.50869(15)
O7_2 O 0.8463(2) 0.31364(13) 0.66832(12)
O9_2 O 0.9425(2) 0.15292(13) 0.47430(14)
C2_2 C 0.7129(3) 0.4400(2) 0.5123(2)
C4_2 C 0.7235(3) 0.3079(2) 0.6883(2)
C5_2 C 0.8309(3) 0.17066(19) 0.4999(2)
H1_2 H 0.624(5) 0.455(3) 0.515(3)
H3_2 H 0.705(3) 0.3117(18) 0.7391(19)
H4_2 H 0.759(3) 0.1335(18) 0.4947(17)
Co12_2 Co 0.88762(4) 0.78329(2) 0.53512(2)
O13_2 O 0.9944(2) 0.68515(13) 0.54526(12)
O21_2 O 0.9735(2) 0.41618(13) 0.91933(12)
O22_2 O 0.9735(2) 0.58382(13) 0.41933(12)
O23_2 O 0.8897(2) 0.39168(15) 0.80668(14)
O30_2 O 0.9151(2) 0.24869(13) 0.92364(12)
O31_2 O 0.8885(2) 0.23154(14) 0.80211(14)
C7_2 C 0.9842(4) 0.6386(2) 0.5964(2)
C9_2 C 0.8968(3) 0.4280(2) 0.8634(2)
C12_2 C 0.8630(3) 0.2180(2) 0.8668(2)
H8_2 H 0.833(3) 0.466(2) 0.8678(18)
H11_2 H 0.788(3) 0.178(2) 0.879(2)
H12_2 H 0.969(3) 0.654(2) 0.642(2)
O2_3 O 0.4995(3) 0.07185(13) 0.59028(14)
C1_3 C 0.5158(4) 0.1386(2) 0.5964(2)
H6_3 H 0.531(3) 0.154(2) 0.642(2)
Co7_3 Co 0.57822(4) 0.82110(2) 0.56090(2)
Co12_3 Co 0.38762(4) 0.71671(2) 0.46488(2)
O13_3 O 0.4944(2) 0.81485(13) 0.45474(12)
O15_3 O 0.5005(3) 0.92815(13) 0.40972(14)
O17_3 O 0.7076(2) 0.99265(13) 0.50869(15)
O22_3 O 0.4735(2) 0.91618(13) 0.58067(12)
C7_3 C 0.4842(4) 0.8614(2) 0.4036(2)
H12_3 H 0.469(3) 0.846(2) 0.358(2)
O2_4 O 0.0005(3) 0.42815(13) 0.09028(14)
O22_4 O 0.0265(2) 0.58382(13) 0.08067(12)
Co12_4 Co 0.11238(4) 0.78329(2) 0.96488(2)
O13_4 O 0.0056(2) 0.68515(13) 0.95474(12)
C7_4 C 0.0158(4) 0.6386(2) 0.9036(2)
H12_4 H 0.031(3) 0.654(2) 0.858(2)
C1_4 C 0.9842(4) 0.3614(2) 0.0964(2)
H6_4 H 0.969(3) 0.346(2) 0.142(2)
Co7_4 Co 0.92178(4) 0.67890(2) 0.06090(2)
O17_4 O 0.7924(2) 0.50735(13) 0.00869(15)
O15_4 O 0.9995(3) 0.57185(13) 0.90972(14)
O9_3 O 0.4425(2) 0.65292(13) 0.02570(14)
C5_3 C 0.3309(3) 0.67066(19) 0.0001(2)
H4_3 H 0.259(3) 0.6335(18) 0.0053(17)
O18_2 O 0.7447(2) 0.62687(13) 0.02214(13)
O25_2 O 0.8019(2) 0.76963(12) 0.03194(12)
O33_2 O 0.6245(2) 0.70289(15) 0.14715(13)
C8_3 C 0.7129(3) 0.5600(2) 0.0123(2)
H7_3 H 0.624(5) 0.545(3) 0.015(3)
Co3_4 Co 0.5000 0.81263(4) 0.7500
O4_2 O 0.2447(2) 0.87313(13) 0.97786(13)
O6_3 O 0.6103(2) 0.89168(15) 0.80668(14)
O7_3 O 0.3463(2) 0.81364(13) 0.83168(12)
O8_2 O 0.3019(2) 0.73037(12) 0.96806(12)
O10_3 O 0.5849(2) 0.74869(13) 0.92364(12)
O11_3 O 0.6115(2) 0.73154(14) 0.80211(14)
O12_2 O 0.1245(2) 0.79711(15) 0.85285(13)
C2_3 C 0.2129(3) 0.9400(2) 0.9877(2)
C3_3 C 0.6032(3) 0.9280(2) 0.8634(2)
C4_3 C 0.2235(3) 0.8079(2) 0.8117(2)
C6_3 C 0.6370(3) 0.7180(2) 0.8668(2)
H1_3 H 0.124(5) 0.955(3) 0.985(3)
H2_3 H 0.667(3) 0.966(2) 0.8678(18)
H3_3 H 0.205(3) 0.8117(18) 0.7609(19)
H5_3 H 0.712(3) 0.678(2) 0.879(2)
O19_2 O 0.7553(2) 0.87313(13) 0.52214(13)
O20_2 O 0.2553(2) 0.62687(13) 0.47786(13)
O23_3 O 0.3897(2) 0.89168(15) 0.69332(14)
O24_3 O 0.6537(2) 0.81364(13) 0.66832(12)
O26_2 O 0.6981(2) 0.73037(12) 0.53194(12)
O27_2 O 0.1981(2) 0.76963(12) 0.46806(12)
O28_2 O 0.9425(2) 0.84708(13) 0.97430(14)
O29_2 O 0.5575(2) 0.65292(13) 0.47430(14)
O30_3 O 0.4151(2) 0.74869(13) 0.57636(12)
O31_3 O 0.3885(2) 0.73154(14) 0.69789(14)
O32_2 O 0.8755(2) 0.79711(15) 0.64715(13)
O34_2 O 0.3755(2) 0.70289(15) 0.35285(13)
C9_3 C 0.3968(3) 0.9280(2) 0.6366(2)
C10_3 C 0.7765(3) 0.8079(2) 0.6883(2)
C11_3 C 0.8309(3) 0.82934(19) 0.9999(2)
C12_3 C 0.3630(3) 0.7180(2) 0.6332(2)
H8_3 H 0.333(3) 0.966(2) 0.6322(18)
H9_3 H 0.795(3) 0.8117(18) 0.7391(19)
H10_3 H 0.759(3) 0.8665(18) 0.9947(17)
H11_3 H 0.288(3) 0.678(2) 0.621(2)
Co3_5 Co -0.0000 0.68737(4) 0.2500
O7_4 O 0.1537(2) 0.68636(13) 0.33168(12)
O9_4 O 0.0575(2) 0.84708(13) 0.52570(14)
C2_4 C 0.2871(3) 0.5600(2) 0.4877(2)
C4_4 C 0.2765(3) 0.6921(2) 0.3117(2)
C5_4 C 0.1691(3) 0.82934(19) 0.5001(2)
H1_4 H 0.376(5) 0.545(3) 0.485(3)
H3_4 H 0.295(3) 0.6883(18) 0.2609(19)
H4_4 H 0.241(3) 0.8665(18) 0.5053(17)
O23_4 O 0.1103(2) 0.60832(15) 0.19332(14)
O30_4 O 0.0849(2) 0.75131(13) 0.07636(12)
O31_4 O 0.1115(2) 0.76846(14) 0.19789(14)
C9_4 C 0.1032(3) 0.5720(2) 0.1366(2)
C12_4 C 0.1370(3) 0.7820(2) 0.1332(2)
H8_4 H 0.167(3) 0.534(2) 0.1322(18)
H11_4 H 0.212(3) 0.822(2) 0.121(2)
Co3_6 Co 1.0000 0.68737(4) 0.2500
O6_4 O 0.8897(2) 0.60832(15) 0.30668(14)
O10_4 O 0.9151(2) 0.75131(13) 0.42364(12)
O11_4 O 0.8885(2) 0.76846(14) 0.30211(14)
C3_4 C 0.8968(3) 0.5720(2) 0.3634(2)
C6_4 C 0.8630(3) 0.7820(2) 0.3668(2)
H2_4 H 0.833(3) 0.534(2) 0.3678(18)
H5_4 H 0.788(3) 0.822(2) 0.379(2)
O24_4 O 0.8463(2) 0.68636(13) 0.16832(12)
C8_4 C 0.7871(3) 0.9400(2) 0.5123(2)
C10_4 C 0.7235(3) 0.6921(2) 0.1883(2)
C11_4 C 0.6691(3) 0.67066(19) 0.4999(2)
H7_4 H 0.876(5) 0.955(3) 0.515(3)
H9_4 H 0.705(3) 0.6883(18) 0.2391(19)
H10_4 H 0.741(3) 0.6335(18) 0.4947(17)
loop_
_geom_bond_atom_site_label_1
_geom_bond_atom_site_label_2
_geom_bond_site_symmetry_1
_geom_bond_site_symmetry_2
Co3 O6 1_555 1_555
O3 Co4 1_555 1_555
O4 Co1 1_555 1_555
O5 Co1 1_555 1_555
O6 C3 1_555 1_555
O7 Co1 1_555 1_555
O8 Co1 1_555 1_555
O10 Co1 1_555 1_555
O11 Co3 1_555 1_555
O12 C4 1_555 1_555
C2 O3 1_555 1_555
C3 O5 1_555 1_555
C4 O7 1_555 1_555
C6 O10 1_555 1_555
H1 C2 1_555 1_555
H2 C3 1_555 1_555
H3 C4 1_555 1_555
H5 C6 1_555 1_555
Co5 O14 1_555 1_555
Co8 O14 1_555 1_555
Co9 O4 1_555 1_555
Co10 O19 1_555 1_555
Co13 O21 1_555 1_555
O19 Co5 1_555 1_555
O20 Co8 1_555 1_555
O21 Co5 1_555 1_555
O23 Co3 1_555 1_555
O24 Co3 1_555 1_555
O26 Co5 1_555 1_555
O27 Co8 1_555 1_555
O28 C11 1_555 1_555
O29 Co8 1_555 1_555
O30 Co5 1_555 1_555
O31 Co3 1_555 1_555
O32 Co10 1_555 1_555
O34 Co8 1_555 1_555
C9 O21 1_555 1_555
C10 O24 1_555 1_555
C12 O30 1_555 1_555
H8 C9 1_555 1_555
H9 C10 1_555 1_555
H10 C11 1_555 1_555
H11 C12 1_555 1_555
Co3 O7 1_555 1_555
Co4 O5 1_555 1_555
O4 C2 1_555 1_555
O8 Co9 1_555 1_555
O11 C6 1_555 1_555
O12 Co9 1_555 1_555
Co5 O24 1_555 1_555
Co8 O30 1_555 1_555
Co10 O26 1_555 1_555
O23 C9 1_555 1_555
O31 C12 1_555 1_555
O32 C10 1_555 1_555
Co2 O1 1_555 1_555
Co4_2 O2 1_555 1_555
O1 C1 1_555 1_555
O2 C1 1_555 1_555
O9 Co2 1_555 1_555
C1 H6 1_555 1_555
H4 C5 1_555 1_555
Co6 O18 1_555 1_555
Co14_2 O16 1_555 1_555
O16 C8 1_555 1_555
O18 Co2 1_555 1_555
O25 Co2 1_555 1_555
O33 Co2 1_555 1_555
C8 O18 1_555 1_555
H7 C8 1_555 1_555
O9 C5 1_555 1_555
Co6 O25 1_555 1_555
Co12 O13 1_555 1_555
O13 C7 1_555 1_555
O15 Co4_3 1_555 1_555
C7 O15 1_555 1_555
H12 C7 1_555 1_555
O17 Co4_4 1_555 1_555
O22 Co4_4 1_555 1_555
Co7 O22 1_555 1_555
Co10 O1_2 1_555 1_555
Co3_2 O6_2 1_555 1_555
O1_2 C1_2 1_555 1_555
O6_2 C3_2 1_555 1_555
O11_2 Co3_2 1_555 1_555
C1_2 H6_2 1_555 1_555
C3_2 O5_2 1_555 1_555
C6_2 O10_2 1_555 1_555
H2_2 C3_2 1_555 1_555
H5_2 C6_2 1_555 1_555
Co13 O16_2 1_555 1_555
O15_2 Co4_5 1_555 1_555
O16_2 C8_2 1_555 1_555
O17_2 Co4_5 1_555 1_555
O24_2 Co3_2 1_555 1_555
O29 C11_2 1_555 1_555
C8_2 O19 1_555 1_555
C10_2 O24_2 1_555 1_555
C11_2 O26 1_555 1_555
H7_2 C8_2 1_555 1_555
H9_2 C10_2 1_555 1_555
H10_2 C11_2 1_555 1_555
Co10 O10_2 1_555 1_555
Co4_5 O5_2 1_555 1_555
O11_2 C6_2 1_555 1_555
Co6 O24_2 1_555 1_555
O33 C10_2 1_555 1_555
Co9 O14_2 1_555 1_555
Co4_6 O2_2 1_555 1_555
O3_2 Co4_6 1_555 1_555
O20 Co1_2 1_555 1_555
O7_2 Co1_2 1_555 1_555
O27 Co1_2 1_555 1_555
O34 C4_2 1_555 1_555
C2_2 O3_2 1_555 1_555
C4_2 O7_2 1_555 1_555
C5_2 O27 1_555 1_555
H1_2 C2_2 1_555 1_555
H3_2 C4_2 1_555 1_555
H4_2 C5_2 1_555 1_555
Co12_2 O13_2 1_555 1_555
Co14_4 O21_2 1_555 1_555
O13_2 C7_2 1_555 1_555
O22_2 Co4_6 1_555 1_555
O23_2 Co3_3 1_555 1_555
O31_2 Co3_3 1_555 1_555
C9_2 O21_2 1_555 1_555
C12_2 O30_2 1_555 1_555
H8_2 C9_2 1_555 1_555
H11_2 C12_2 1_555 1_555
H12_2 C7_2 1_555 1_555
Co3_3 O7_2 1_555 1_555
O20 C2_2 1_555 1_555
O9_2 C5_2 1_555 1_555
O23_2 C9_2 1_555 1_555
O31_2 C12_2 1_555 1_555
Co13 O2_3 1_555 1_555
O14 C1_3 1_555 1_555
O2_3 C1_3 1_555 1_555
C1_3 H6_3 1_555 1_555
Co7_3 O13_3 1_555 1_555
Co12_3 O13_3 1_555 1_555
O13_3 C7_3 1_555 1_555
O15_3 Co13_2 1_555 1_555
O17_3 Co13_2 1_555 1_555
O22_3 Co13_2 1_555 1_555
C7_3 O15_3 1_555 1_555
H12_3 C7_3 1_555 1_555
Co7_3 O22_3 1_555 1_555
Co14 O2_4 1_555 1_555
O22_4 Co14 1_555 1_555
Co12_4 O13_4 1_555 1_555
O13_4 C7_4 1_555 1_555
H12_4 C7_4 1_555 1_555
O14_2 C1_4 1_555 1_555
C1_4 H6_4 1_555 1_555
O17_4 Co14_3 1_555 1_555
O15_4 Co14_4 1_555 1_555
O9_3 Co12 1_555 1_555
H4_3 C5_3 1_555 1_555
Co7_4 O18_2 1_555 1_555
O17_4 C8_3 1_555 1_555
O18_2 Co12 1_555 1_555
O25_2 Co12 1_555 1_555
O33_2 Co12 1_555 1_555
C8_3 O18_2 1_555 1_555
H7_3 C8_3 1_555 1_555
O9_3 C5_3 1_555 1_555
Co7_4 O25_2 1_555 1_555
Co3_4 O6_3 1_555 1_555
O4_2 Co7 1_555 1_555
O6_3 C3_3 1_555 1_555
O7_3 Co7 1_555 1_555
O8_2 Co7 1_555 1_555
O10_3 Co7 1_555 1_555
O11_3 Co3_4 1_555 1_555
O12_2 C4_3 1_555 1_555
C2_3 O17 1_555 1_555
C3_3 O22 1_555 1_555
C4_3 O7_3 1_555 1_555
C6_3 O10_3 1_555 1_555
H1_3 C2_3 1_555 1_555
H2_3 C3_3 1_555 1_555
H3_3 C4_3 1_555 1_555
H5_3 C6_3 1_555 1_555
Co12_4 O4_2 1_555 1_555
Co12_2 O19_2 1_555 1_555
O19_2 Co7_3 1_555 1_555
O20_2 Co12_3 1_555 1_555
O23_3 Co3_4 1_555 1_555
O24_3 Co3_4 1_555 1_555
O26_2 Co7_3 1_555 1_555
O27_2 Co12_3 1_555 1_555
O28_2 C11_3 1_555 1_555
O29_2 Co12_3 1_555 1_555
O30_3 Co7_3 1_555 1_555
O31_3 Co3_4 1_555 1_555
O32_2 Co12_2 1_555 1_555
O34_2 Co12_3 1_555 1_555
C9_3 O22_3 1_555 1_555
C10_3 O24_3 1_555 1_555
C12_3 O30_3 1_555 1_555
H8_3 C9_3 1_555 1_555
H9_3 C10_3 1_555 1_555
H10_3 C11_3 1_555 1_555
H11_3 C12_3 1_555 1_555
Co3_4 O7_3 1_555 1_555
O4_2 C2_3 1_555 1_555
O8_2 Co12_4 1_555 1_555
O11_3 C6_3 1_555 1_555
O12_2 Co12_4 1_555 1_555
Co7_3 O24_3 1_555 1_555
Co12_3 O30_3 1_555 1_555
Co12_2 O26_2 1_555 1_555
O23_3 C9_3 1_555 1_555
O31_3 C12_3 1_555 1_555
O32_2 C10_3 1_555 1_555
O20_2 Co7_2 1_555 1_555
O7_4 Co7_2 1_555 1_555
O27_2 Co7_2 1_555 1_555
O34_2 C4_4 1_555 1_555
C2_4 O17_2 1_555 1_555
C4_4 O7_4 1_555 1_555
C5_4 O27_2 1_555 1_555
H1_4 C2_4 1_555 1_555
H3_4 C4_4 1_555 1_555
H4_4 C5_4 1_555 1_555
O23_4 Co3_5 1_555 1_555
O31_4 Co3_5 1_555 1_555
C9_4 O22_4 1_555 1_555
C12_4 O30_4 1_555 1_555
H8_4 C9_4 1_555 1_555
H11_4 C12_4 1_555 1_555
Co3_5 O7_4 1_555 1_555
O20_2 C2_4 1_555 1_555
O9_4 C5_4 1_555 1_555
O23_4 C9_4 1_555 1_555
O31_4 C12_4 1_555 1_555
Co3_6 O6_4 1_555 1_555
O6_4 C3_4 1_555 1_555
O11_4 Co3_6 1_555 1_555
C3_4 O22_2 1_555 1_555
C6_4 O10_4 1_555 1_555
H2_4 C3_4 1_555 1_555
H5_4 C6_4 1_555 1_555
O17_3 C8_4 1_555 1_555
O24_4 Co3_6 1_555 1_555
O29_2 C11_4 1_555 1_555
C8_4 O19_2 1_555 1_555
C10_4 O24_4 1_555 1_555
C11_4 O26_2 1_555 1_555
H7_4 C8_4 1_555 1_555
H9_4 C10_4 1_555 1_555
H10_4 C11_4 1_555 1_555
Co12_2 O10_4 1_555 1_555
O11_4 C6_4 1_555 1_555
Co7_4 O24_4 1_555 1_555
O33_2 C10_4 1_555 1_555

#END
