
###############################################################################
#
# This file contains modified crystal structure data generated from the
# MOF subset of the Cambridge Structural Database (CSD) v543 
# hosted by the Cambridge Crystallographic Data Centre (CCDC).
#
# This work is licensed under the Creative Commons
# Attribution-NonCommercial-ShareAlike 4.0 International License.
# To view a copy of this license, visit
# http://creativecommons.org/licenses/by-nc-sa/4.0/
# or send a letter to
# Creative Commons, PO Box 1866, Mountain View, CA 94042, USA.
#
# CIF created using the CSD Python API on 29 September 2022
# The structure has been converted into the P1 space group
# The structure has a 3D framework
# The original CSD entry KAVRIK is in the orthorhombic crystal system
# The framework has been calculated to contain at least 10.0% void space
# The void calculation uses a probe of radius 1.32A, grid spacing 0.4
#
###############################################################################

data_KAVRIK
_chemical_formula_moiety         '(C48 H48 Mg28 O94)n'
_symmetry_cell_setting           triclinic
_symmetry_space_group_name_H-M   'P 1'
_symmetry_Int_Tables_number      1
_space_group_name_Hall           'P 1'
loop_
_symmetry_equiv_pos_site_id
_symmetry_equiv_pos_as_xyz
1 x,y,z
_cell_length_a                   9.8715(9)
_cell_length_b                   18.2678(15)
_cell_length_c                   18.1613(16)
_cell_angle_alpha                90
_cell_angle_beta                 90
_cell_angle_gamma                90
_cell_volume                     3275.04
loop_
_atom_site_label
_atom_site_type_symbol
_atom_site_fract_x
_atom_site_fract_y
_atom_site_fract_z
Mg2 Mg 0.11130(9) 0.21687(5) 0.03545(5)
Mg4 Mg 0.0000 0.5000 0.0000
O7 O 0.0030(2) 0.42815(12) 0.08680(11)
O8 O 0.0054(2) 0.31346(10) 0.04506(11)
C4 C 0.0169(3) 0.36161(19) 0.09512(17)
H4 H 0.036(2) 0.3463(14) 0.1444(15)
Mg6 Mg 0.07905(10) 0.68008(5) 0.06053(5)
Mg7 Mg 0.42095(10) 0.18008(5) 0.06053(5)
Mg11 Mg 0.38870(9) 0.71687(5) 0.03545(5)
Mg14 Mg 0.5000 0.0000 0.0000
O15 O 0.1265(2) 0.20531(12) 0.14608(11)
O17 O 0.25585(19) 0.62900(11) 0.02240(11)
O19 O 0.24415(19) 0.12900(11) 0.02240(11)
O21 O 0.2063(2) 0.51031(11) 0.00802(12)
O22 O 0.2937(2) 0.01031(11) 0.00802(12)
O24 O 0.29986(19) 0.26977(11) 0.03133(11)
C8 C 0.2865(3) 0.56191(17) 0.01253(17)
C9 C 0.2135(3) 0.06191(17) 0.01253(17)
C10 C 0.3309(3) 0.32962(18) 0.00021(18)
H8 H 0.384(4) 0.5504(17) 0.0063(18)
H9 H 0.116(4) 0.0504(17) 0.0063(18)
Mg3 Mg -0.0000 0.31223(8) 0.7500
Mg4_2 Mg 0.0000 0.5000 1.0000
O9 O 0.08166(19) 0.24740(11) 0.92452(10)
O10 O 0.1074(2) 0.23245(12) 0.80313(11)
O11 O 0.0261(2) 0.41571(11) 0.92083(10)
O12 O 0.1037(2) 0.38970(12) 0.80814(11)
C5 C 0.1338(3) 0.21842(19) 0.86784(18)
C6 C 0.0999(3) 0.42702(19) 0.86431(17)
H5 H 0.208(4) 0.1779(18) 0.8799(18)
H6 H 0.158(3) 0.471(2) 0.8683(18)
Mg5 Mg 0.07905(10) 0.31992(5) 0.56053(5)
Mg8 Mg 0.38870(9) 0.28313(5) 0.53545(5)
Mg12 Mg 0.61130(9) 0.28313(5) 0.96455(5)
Mg13 Mg 0.0000 0.5000 0.5000
Mg14_2 Mg 0.5000 0.0000 1.0000
O13 O 0.15281(19) 0.31303(11) 0.66782(10)
O14 O 0.3735(2) 0.29469(12) 0.64608(11)
O18 O 0.25585(19) 0.37100(11) 0.52240(11)
O23 O 0.20014(19) 0.23023(11) 0.53133(11)
O26 O 0.0575(2) 0.15389(11) 0.47392(12)
O27 O 0.4425(2) 0.34611(11) 0.97392(12)
C7 C 0.2763(3) 0.30614(18) 0.68731(18)
H7 H 0.287(3) 0.3126(15) 0.7380(18)
H10 H 0.267(3) 0.3648(17) 0.9951(15)
Mg14_3 Mg 0.5000 1.0000 0.0000
Mg14_4 Mg 0.5000 1.0000 1.0000
Mg4_3 Mg 1.0000 0.5000 0.0000
O6 O 0.9425(2) 0.15389(11) 0.02608(12)
H3 H 0.767(3) 0.1352(17) 0.0049(15)
O33 O 0.9739(2) 0.58429(11) 0.07917(10)
Mg1 Mg 0.92095(10) 0.31992(5) 0.93947(5)
Mg3_2 Mg 1.0000 0.31223(8) 0.7500
Mg4_4 Mg 1.0000 0.5000 1.0000
O1 O 0.84719(19) 0.31303(11) 0.83218(10)
O2 O 0.6265(2) 0.29469(12) 0.85392(11)
O3 O 0.74415(19) 0.37100(11) 0.97760(11)
O4 O 0.7937(2) 0.48969(11) 0.99198(12)
O5 O 0.79986(19) 0.23023(11) 0.96867(11)
C1 C 0.7237(3) 0.30614(18) 0.81269(18)
C2 C 0.7135(3) 0.43809(17) 0.98747(17)
C3 C 0.8309(3) 0.17038(18) 0.99979(18)
H1 H 0.713(3) 0.3126(15) 0.7620(18)
H2 H 0.616(4) 0.4496(17) 0.9937(18)
Mg10 Mg 0.88870(9) 0.21687(5) 0.46455(5)
Mg13_2 Mg 1.0000 0.5000 0.5000
O16 O 0.8735(2) 0.20531(12) 0.35392(11)
O20 O 0.75585(19) 0.12900(11) 0.47760(11)
O25 O 0.70014(19) 0.26977(11) 0.46867(11)
O28 O 0.9970(2) 0.57185(12) 0.91320(11)
O29 O 0.9946(2) 0.31346(10) 0.45494(11)
O30 O 0.91834(19) 0.24740(11) 0.57548(10)
O31 O 0.8926(2) 0.23245(12) 0.69687(11)
O32 O 0.9739(2) 0.41571(11) 0.57917(10)
O34 O 0.8963(2) 0.38970(12) 0.69186(11)
C11 C 0.8662(3) 0.21842(19) 0.63216(18)
C12 C 0.9001(3) 0.42702(19) 0.63569(17)
H11 H 0.792(4) 0.1779(18) 0.6201(18)
H12 H 0.842(3) 0.471(2) 0.6317(18)
Mg1_2 Mg 0.57905(10) 0.18008(5) 0.43947(5)
Mg3_3 Mg 0.5000 0.18777(8) 0.2500
Mg4_5 Mg 0.5000 0.0000 0.5000
O1_2 O 0.65281(19) 0.18697(11) 0.33218(10)
O4_2 O 0.7063(2) 0.01031(11) 0.49198(12)
O6_2 O 0.5575(2) 0.34611(11) 0.52608(12)
O7_2 O 0.4970(2) 0.07185(12) 0.58680(11)
O8_2 O 0.4946(2) 0.18654(10) 0.54506(11)
O9_2 O 0.41834(19) 0.25260(11) 0.42452(10)
O10_2 O 0.3926(2) 0.26755(12) 0.30313(11)
O11_2 O 0.4739(2) 0.08429(11) 0.42083(10)
O12_2 O 0.3963(2) 0.11030(12) 0.30814(11)
C1_2 C 0.7763(3) 0.19386(18) 0.31269(18)
C2_2 C 0.7865(3) 0.06191(17) 0.48747(17)
C3_2 C 0.6691(3) 0.32962(18) 0.49979(18)
C4_2 C 0.4831(3) 0.13839(19) 0.59512(17)
C5_2 C 0.3662(3) 0.28158(19) 0.36784(18)
C6_2 C 0.4001(3) 0.07298(19) 0.36431(17)
H1_2 H 0.787(3) 0.1874(15) 0.2620(18)
H2_2 H 0.884(4) 0.0504(17) 0.4937(18)
H3_2 H 0.733(3) 0.3648(17) 0.5049(15)
H4_2 H 0.464(2) 0.1537(14) 0.6444(15)
H5_2 H 0.292(4) 0.3221(18) 0.3799(18)
H6_2 H 0.342(3) 0.029(2) 0.3683(18)
O13_2 O 0.34719(19) 0.18697(11) 0.16782(10)
O22_2 O 0.2063(2) 0.48969(11) 0.50802(12)
O30_2 O 0.58166(19) 0.25260(11) 0.07548(10)
O31_2 O 0.6074(2) 0.26755(12) 0.19687(11)
O32_2 O 0.5261(2) 0.08429(11) 0.07917(10)
O34_2 O 0.6037(2) 0.11030(12) 0.19186(11)
C7_2 C 0.2237(3) 0.19386(18) 0.18731(18)
C9_2 C 0.2865(3) 0.43809(17) 0.51253(17)
C10_2 C 0.1691(3) 0.17038(18) 0.50021(18)
C11_2 C 0.6338(3) 0.28158(19) 0.13216(18)
C12_2 C 0.5999(3) 0.07298(19) 0.13569(17)
H7_2 H 0.213(3) 0.1874(15) 0.2380(18)
H9_2 H 0.384(4) 0.4496(17) 0.5063(18)
H10_2 H 0.233(3) 0.1352(17) 0.4951(15)
H11_2 H 0.708(4) 0.3221(18) 0.1201(18)
H12_2 H 0.658(3) 0.029(2) 0.1317(18)
O29_2 O 0.5054(2) 0.18654(10) 0.95494(11)
Mg4_6 Mg 0.5000 1.0000 0.5000
Mg6_2 Mg 0.42095(10) 0.81992(5) 0.56053(5)
Mg11_2 Mg 0.11130(9) 0.78313(5) 0.53545(5)
O17_2 O 0.24415(19) 0.87100(11) 0.52240(11)
O21_2 O 0.2937(2) 0.98969(11) 0.50802(12)
O28_2 O 0.5030(2) 0.92815(12) 0.41320(11)
O33_2 O 0.5261(2) 0.91571(11) 0.57917(10)
C8_2 C 0.2135(3) 0.93809(17) 0.51253(17)
H8_2 H 0.116(4) 0.9496(17) 0.5063(18)
O28_3 O 0.0030(2) 0.57185(12) 0.58680(11)
O33_3 O 0.0261(2) 0.58429(11) 0.42083(10)
O7_3 O 0.9970(2) 0.42815(12) 0.41320(11)
C4_3 C 0.9831(3) 0.36161(19) 0.40488(17)
H4_3 H 0.964(2) 0.3463(14) 0.3556(15)
Mg6_3 Mg 0.92095(10) 0.68008(5) 0.43947(5)
Mg11_3 Mg 0.61130(9) 0.71687(5) 0.46455(5)
O17_3 O 0.74415(19) 0.62900(11) 0.47760(11)
O21_3 O 0.7937(2) 0.51031(11) 0.49198(12)
C8_3 C 0.7135(3) 0.56191(17) 0.48747(17)
H8_3 H 0.616(4) 0.5504(17) 0.4937(18)
O7_4 O 0.5030(2) 0.07185(12) 0.91320(11)
C4_4 C 0.5169(3) 0.13839(19) 0.90488(17)
H4_4 H 0.536(2) 0.1537(14) 0.8556(15)
O28_4 O 0.4970(2) 0.92815(12) 0.08680(11)
Mg6_4 Mg 0.57905(10) 0.81992(5) 0.93947(5)
Mg11_4 Mg 0.88870(9) 0.78313(5) 0.96455(5)
O17_4 O 0.75585(19) 0.87100(11) 0.97760(11)
O21_4 O 0.7063(2) 0.98969(11) 0.99198(12)
O33_4 O 0.4739(2) 0.91571(11) 0.92083(10)
C8_4 C 0.7865(3) 0.93809(17) 0.98747(17)
H8_4 H 0.884(4) 0.9496(17) 0.9937(18)
Mg3_4 Mg -0.0000 0.68777(8) 0.2500
O1_3 O 0.15281(19) 0.68697(11) 0.16782(10)
O2_2 O 0.3735(2) 0.70531(12) 0.14608(11)
O5_2 O 0.20014(19) 0.76977(11) 0.03133(11)
C1_3 C 0.2763(3) 0.69386(18) 0.18731(18)
C3_3 C 0.1691(3) 0.82962(18) 0.00021(18)
H1_3 H 0.287(3) 0.6874(15) 0.2380(18)
O16_2 O 0.1265(2) 0.79469(12) 0.64608(11)
O25_2 O 0.29986(19) 0.73023(11) 0.53133(11)
O29_3 O 0.0054(2) 0.68654(10) 0.54506(11)
O30_3 O 0.08166(19) 0.75260(11) 0.42452(10)
O31_3 O 0.1074(2) 0.76755(12) 0.30313(11)
O34_3 O 0.1037(2) 0.61030(12) 0.30814(11)
C11_3 C 0.1338(3) 0.78158(19) 0.36784(18)
C12_3 C 0.0999(3) 0.57298(19) 0.36431(17)
H11_3 H 0.208(4) 0.8221(18) 0.3799(18)
H12_3 H 0.158(3) 0.529(2) 0.3683(18)
O6_3 O 0.0575(2) 0.84611(11) 0.97392(12)
H3_3 H 0.233(3) 0.8648(17) 0.9951(15)
Mg3_5 Mg 1.0000 0.68777(8) 0.2500
O9_3 O 0.91834(19) 0.75260(11) 0.07548(10)
O10_3 O 0.8926(2) 0.76755(12) 0.19687(11)
O12_3 O 0.8963(2) 0.61030(12) 0.19186(11)
C5_3 C 0.8662(3) 0.78158(19) 0.13216(18)
C6_3 C 0.9001(3) 0.57298(19) 0.13569(17)
H5_3 H 0.792(4) 0.8221(18) 0.1201(18)
H6_3 H 0.842(3) 0.529(2) 0.1317(18)
O13_3 O 0.84719(19) 0.68697(11) 0.33218(10)
O14_2 O 0.6265(2) 0.70531(12) 0.35392(11)
O23_2 O 0.79986(19) 0.76977(11) 0.46867(11)
O26_2 O 0.9425(2) 0.84611(11) 0.52608(12)
O27_2 O 0.5575(2) 0.65389(11) 0.02608(12)
C7_3 C 0.7237(3) 0.69386(18) 0.31269(18)
H7_3 H 0.713(3) 0.6874(15) 0.2620(18)
H10_3 H 0.733(3) 0.6352(17) 0.0049(15)
O8_3 O 0.9946(2) 0.68654(10) 0.95494(11)
C4_5 C 0.9831(3) 0.63839(19) 0.90488(17)
H4_5 H 0.964(2) 0.6537(14) 0.8556(15)
O15_2 O 0.8735(2) 0.79469(12) 0.85392(11)
O24_2 O 0.70014(19) 0.73023(11) 0.96867(11)
C10_3 C 0.6691(3) 0.67038(18) 0.99979(18)
O29_4 O 0.4946(2) 0.81346(10) 0.04506(11)
Mg3_6 Mg 0.5000 0.81223(8) 0.7500
O1_4 O 0.34719(19) 0.81303(11) 0.66782(10)
O6_4 O 0.4425(2) 0.65389(11) 0.47392(12)
O8_4 O 0.5054(2) 0.81346(10) 0.45494(11)
O9_4 O 0.58166(19) 0.74740(11) 0.57548(10)
O10_4 O 0.6074(2) 0.73245(12) 0.69687(11)
O12_4 O 0.6037(2) 0.88970(12) 0.69186(11)
C1_4 C 0.2237(3) 0.80614(18) 0.68731(18)
C3_4 C 0.3309(3) 0.67038(18) 0.50021(18)
C4_6 C 0.5169(3) 0.86161(19) 0.40488(17)
C5_4 C 0.6338(3) 0.71842(19) 0.63216(18)
C6_4 C 0.5999(3) 0.92702(19) 0.63569(17)
H1_4 H 0.213(3) 0.8126(15) 0.7380(18)
H3_4 H 0.267(3) 0.6352(17) 0.4951(15)
H4_6 H 0.536(2) 0.8463(14) 0.3556(15)
H5_4 H 0.708(4) 0.6779(18) 0.6201(18)
H6_4 H 0.658(3) 0.971(2) 0.6317(18)
O13_4 O 0.65281(19) 0.81303(11) 0.83218(10)
O30_4 O 0.41834(19) 0.74740(11) 0.92452(10)
O31_4 O 0.3926(2) 0.73245(12) 0.80313(11)
O34_4 O 0.3963(2) 0.88970(12) 0.80814(11)
C7_4 C 0.7763(3) 0.80614(18) 0.81269(18)
C10_4 C 0.8309(3) 0.82962(18) 0.49979(18)
C11_4 C 0.3662(3) 0.71842(19) 0.86784(18)
C12_4 C 0.4001(3) 0.92702(19) 0.86431(17)
H7_4 H 0.787(3) 0.8126(15) 0.7620(18)
H10_4 H 0.767(3) 0.8648(17) 0.5049(15)
H11_4 H 0.292(4) 0.6779(18) 0.8799(18)
H12_4 H 0.342(3) 0.971(2) 0.8683(18)
C4_7 C 0.0169(3) 0.63839(19) 0.59512(17)
H4_7 H 0.036(2) 0.6537(14) 0.6444(15)
C4_8 C 0.4831(3) 0.86161(19) 0.09512(17)
H4_8 H 0.464(2) 0.8463(14) 0.1444(15)
loop_
_geom_bond_atom_site_label_1
_geom_bond_atom_site_label_2
_geom_bond_site_symmetry_1
_geom_bond_site_symmetry_2
O7 Mg4 1_555 1_555
C4 O7 1_555 1_555
H4 C4 1_555 1_555
Mg6 O17 1_555 1_555
Mg7 O19 1_555 1_555
Mg11 O17 1_555 1_555
Mg14 O22 1_555 1_555
O15 Mg2 1_555 1_555
O17 C8 1_555 1_555
O19 Mg2 1_555 1_555
O21 Mg4 1_555 1_555
O22 C9 1_555 1_555
O24 Mg2 1_555 1_555
C8 O21 1_555 1_555
C9 O19 1_555 1_555
C10 O24 1_555 1_555
H8 C8 1_555 1_555
H9 C9 1_555 1_555
Mg2 O8 1_555 1_555
O8 C4 1_555 1_555
Mg7 O24 1_555 1_555
O10 Mg3 1_555 1_555
O12 Mg3 1_555 1_555
C5 O9 1_555 1_555
C6 O11 1_555 1_555
H5 C5 1_555 1_555
H6 C6 1_555 1_555
Mg5 O13 1_555 1_555
Mg8 O14 1_555 1_555
Mg12 O27 1_555 1_555
O13 Mg3 1_555 1_555
O14 C7 1_555 1_555
O18 Mg5 1_555 1_555
O23 Mg5 1_555 1_555
C7 O13 1_555 1_555
H7 C7 1_555 1_555
Mg4_2 O11 1_555 1_555
O10 C5 1_555 1_555
O12 C6 1_555 1_555
Mg8 O18 1_555 1_555
Mg8 O23 1_555 1_555
O33 Mg4_3 1_555 1_555
Mg1 O1 1_555 1_555
Mg3_2 O1 1_555 1_555
Mg4_4 O4 1_555 1_555
O1 C1 1_555 1_555
O2 C1 1_555 1_555
O3 Mg1 1_555 1_555
O4 C2 1_555 1_555
O5 Mg1 1_555 1_555
C1 H1 1_555 1_555
C2 O3 1_555 1_555
C3 O5 1_555 1_555
H2 C2 1_555 1_555
Mg12 O2 1_555 1_555
Mg10 O16 1_555 1_555
Mg13_2 O32 1_555 1_555
O20 Mg10 1_555 1_555
O25 Mg10 1_555 1_555
O28 Mg4_4 1_555 1_555
O31 Mg3_2 1_555 1_555
O34 Mg3_2 1_555 1_555
C11 O30 1_555 1_555
C12 O32 1_555 1_555
H11 C11 1_555 1_555
H12 C12 1_555 1_555
O3 Mg12 1_555 1_555
O5 Mg12 1_555 1_555
Mg10 O29 1_555 1_555
Mg10 O30 1_555 1_555
O31 C11 1_555 1_555
O34 C12 1_555 1_555
Mg1_2 O1_2 1_555 1_555
Mg8 O6_2 1_555 1_555
Mg3_3 O1_2 1_555 1_555
Mg4_5 O4_2 1_555 1_555
O1_2 C1_2 1_555 1_555
O16 C1_2 1_555 1_555
O20 Mg1_2 1_555 1_555
O4_2 C2_2 1_555 1_555
O25 Mg1_2 1_555 1_555
O6_2 C3_2 1_555 1_555
O7_2 Mg4_5 1_555 1_555
O8_2 Mg1_2 1_555 1_555
O9_2 Mg1_2 1_555 1_555
O10_2 Mg3_3 1_555 1_555
O11_2 Mg1_2 1_555 1_555
O12_2 Mg3_3 1_555 1_555
C1_2 H1_2 1_555 1_555
C2_2 O20 1_555 1_555
C3_2 O25 1_555 1_555
C4_2 O7_2 1_555 1_555
C5_2 O9_2 1_555 1_555
C6_2 O11_2 1_555 1_555
H2_2 C2_2 1_555 1_555
H3_2 C3_2 1_555 1_555
H4_2 C4_2 1_555 1_555
H5_2 C5_2 1_555 1_555
H6_2 C6_2 1_555 1_555
Mg7 O13_2 1_555 1_555
Mg14 O32_2 1_555 1_555
Mg13 O22_2 1_555 1_555
O13_2 Mg3_3 1_555 1_555
O15 C7_2 1_555 1_555
O22_2 C9_2 1_555 1_555
O26 C10_2 1_555 1_555
O30_2 Mg7 1_555 1_555
O31_2 Mg3_3 1_555 1_555
O32_2 Mg7 1_555 1_555
O34_2 Mg3_3 1_555 1_555
C7_2 O13_2 1_555 1_555
C9_2 O18 1_555 1_555
C10_2 O23 1_555 1_555
C11_2 O30_2 1_555 1_555
C12_2 O32_2 1_555 1_555
H7_2 C7_2 1_555 1_555
H9_2 C9_2 1_555 1_555
H10_2 C10_2 1_555 1_555
H11_2 C11_2 1_555 1_555
H12_2 C12_2 1_555 1_555
Mg8 O8_2 1_555 1_555
Mg8 O9_2 1_555 1_555
Mg4_5 O11_2 1_555 1_555
O8_2 C4_2 1_555 1_555
O10_2 C5_2 1_555 1_555
O12_2 C6_2 1_555 1_555
O31_2 C11_2 1_555 1_555
O34_2 C12_2 1_555 1_555
Mg12 O29_2 1_555 1_555
Mg6_2 O17_2 1_555 1_555
Mg11_2 O17_2 1_555 1_555
O17_2 C8_2 1_555 1_555
O21_2 Mg4_6 1_555 1_555
O28_2 Mg4_6 1_555 1_555
O33_2 Mg4_6 1_555 1_555
C8_2 O21_2 1_555 1_555
H8_2 C8_2 1_555 1_555
Mg6_2 O33_2 1_555 1_555
O28_3 Mg13 1_555 1_555
O33_3 Mg13 1_555 1_555
O7_3 Mg13_2 1_555 1_555
C4_3 O7_3 1_555 1_555
H4_3 C4_3 1_555 1_555
Mg6_3 O17_3 1_555 1_555
Mg11_3 O17_3 1_555 1_555
O17_3 C8_3 1_555 1_555
O21_3 Mg13_2 1_555 1_555
C8_3 O21_3 1_555 1_555
H8_3 C8_3 1_555 1_555
O29 C4_3 1_555 1_555
O7_4 Mg14_2 1_555 1_555
C4_4 O7_4 1_555 1_555
H4_4 C4_4 1_555 1_555
O29_2 C4_4 1_555 1_555
O28_4 Mg14_3 1_555 1_555
Mg6_4 O17_4 1_555 1_555
Mg11_4 O17_4 1_555 1_555
O17_4 C8_4 1_555 1_555
O21_4 Mg14_4 1_555 1_555
O33_4 Mg14_4 1_555 1_555
C8_4 O21_4 1_555 1_555
H8_4 C8_4 1_555 1_555
Mg6_4 O33_4 1_555 1_555
Mg6 O1_3 1_555 1_555
Mg3_4 O1_3 1_555 1_555
O1_3 C1_3 1_555 1_555
O2_2 C1_3 1_555 1_555
O5_2 Mg6 1_555 1_555
C1_3 H1_3 1_555 1_555
C3_3 O5_2 1_555 1_555
Mg11 O2_2 1_555 1_555
Mg11_2 O16_2 1_555 1_555
O25_2 Mg11_2 1_555 1_555
O31_3 Mg3_4 1_555 1_555
O34_3 Mg3_4 1_555 1_555
C11_3 O30_3 1_555 1_555
C12_3 O33_3 1_555 1_555
H11_3 C11_3 1_555 1_555
H12_3 C12_3 1_555 1_555
O5_2 Mg11 1_555 1_555
Mg11_2 O29_3 1_555 1_555
Mg11_2 O30_3 1_555 1_555
O31_3 C11_3 1_555 1_555
O34_3 C12_3 1_555 1_555
O10_3 Mg3_5 1_555 1_555
O12_3 Mg3_5 1_555 1_555
C5_3 O9_3 1_555 1_555
C6_3 O33 1_555 1_555
H5_3 C5_3 1_555 1_555
H6_3 C6_3 1_555 1_555
Mg6_3 O13_3 1_555 1_555
Mg11_3 O14_2 1_555 1_555
Mg11 O27_2 1_555 1_555
O13_3 Mg3_5 1_555 1_555
O14_2 C7_3 1_555 1_555
O23_2 Mg6_3 1_555 1_555
C7_3 O13_3 1_555 1_555
H7_3 C7_3 1_555 1_555
O10_3 C5_3 1_555 1_555
O12_3 C6_3 1_555 1_555
Mg11_3 O23_2 1_555 1_555
C4_5 O28 1_555 1_555
H4_5 C4_5 1_555 1_555
O15_2 Mg11_4 1_555 1_555
O24_2 Mg11_4 1_555 1_555
C10_3 O24_2 1_555 1_555
Mg11_4 O8_3 1_555 1_555
O8_3 C4_5 1_555 1_555
Mg6_4 O24_2 1_555 1_555
Mg11 O29_4 1_555 1_555
Mg6_2 O1_4 1_555 1_555
Mg11_3 O6_4 1_555 1_555
Mg3_6 O1_4 1_555 1_555
O1_4 C1_4 1_555 1_555
O16_2 C1_4 1_555 1_555
O25_2 Mg6_2 1_555 1_555
O6_4 C3_4 1_555 1_555
O8_4 Mg6_2 1_555 1_555
O9_4 Mg6_2 1_555 1_555
O10_4 Mg3_6 1_555 1_555
O12_4 Mg3_6 1_555 1_555
C1_4 H1_4 1_555 1_555
C3_4 O25_2 1_555 1_555
C4_6 O28_2 1_555 1_555
C5_4 O9_4 1_555 1_555
C6_4 O33_2 1_555 1_555
H3_4 C3_4 1_555 1_555
H4_6 C4_6 1_555 1_555
H5_4 C5_4 1_555 1_555
H6_4 C6_4 1_555 1_555
Mg6_4 O13_4 1_555 1_555
O13_4 Mg3_6 1_555 1_555
O15_2 C7_4 1_555 1_555
O26_2 C10_4 1_555 1_555
O30_4 Mg6_4 1_555 1_555
O31_4 Mg3_6 1_555 1_555
O34_4 Mg3_6 1_555 1_555
C7_4 O13_4 1_555 1_555
C10_4 O23_2 1_555 1_555
C11_4 O30_4 1_555 1_555
C12_4 O33_4 1_555 1_555
H7_4 C7_4 1_555 1_555
H10_4 C10_4 1_555 1_555
H11_4 C11_4 1_555 1_555
H12_4 C12_4 1_555 1_555
Mg11_3 O8_4 1_555 1_555
Mg11_3 O9_4 1_555 1_555
O8_4 C4_6 1_555 1_555
O10_4 C5_4 1_555 1_555
O12_4 C6_4 1_555 1_555
O31_4 C11_4 1_555 1_555
O34_4 C12_4 1_555 1_555
C4_7 O28_3 1_555 1_555
H4_7 C4_7 1_555 1_555
O29_3 C4_7 1_555 1_555
C4_8 O28_4 1_555 1_555
H4_8 C4_8 1_555 1_555
O29_4 C4_8 1_555 1_555

#END
