
###############################################################################
#
# This file contains modified crystal structure data generated from the
# MOF subset of the Cambridge Structural Database (CSD) v543 
# hosted by the Cambridge Crystallographic Data Centre (CCDC).
#
# This work is licensed under the Creative Commons
# Attribution-NonCommercial-ShareAlike 4.0 International License.
# To view a copy of this license, visit
# http://creativecommons.org/licenses/by-nc-sa/4.0/
# or send a letter to
# Creative Commons, PO Box 1866, Mountain View, CA 94042, USA.
#
# CIF created using the CSD Python API on 29 September 2022
# The structure has been converted into the P1 space group
# The structure has a 3D framework
# The original CSD entry KAVROQ is in the orthorhombic crystal system
# The framework has been calculated to contain at least 10.0% void space
# The void calculation uses a probe of radius 1.32A, grid spacing 0.4
#
###############################################################################

data_KAVROQ
_chemical_formula_moiety         '(C48 H48 O96 Zn29)n'
_symmetry_cell_setting           triclinic
_symmetry_space_group_name_H-M   'P 1'
_symmetry_Int_Tables_number      1
_space_group_name_Hall           'P 1'
loop_
_symmetry_equiv_pos_site_id
_symmetry_equiv_pos_as_xyz
1 x,y,z
_cell_length_a                   9.8680(4)
_cell_length_b                   18.2476(8)
_cell_length_c                   18.1400(8)
_cell_angle_alpha                90
_cell_angle_beta                 90
_cell_angle_gamma                90
_cell_volume                     3266.42
loop_
_atom_site_label
_atom_site_type_symbol
_atom_site_fract_x
_atom_site_fract_y
_atom_site_fract_z
Zn1 Zn 0.07747(3) 0.321295(13) 0.062216(13)
Zn3 Zn 0.0000 0.31118(2) 0.2500
Zn4 Zn 0.0000 0.5000 0.0000
O7 O 0.19828(16) 0.23025(8) 0.03144(8)
O9 O 0.15457(17) 0.31316(9) 0.16831(8)
O10 O 0.20881(19) 0.49237(9) 0.00873(10)
O11 O 0.37702(17) 0.29592(10) 0.14752(9)
O12 O 0.25487(16) 0.37268(8) 0.02123(9)
C5 C 0.2778(3) 0.30618(13) 0.18821(12)
C6 C 0.2876(3) 0.43968(13) 0.01266(14)
H5 H 0.302(3) 0.3117(13) 0.2391(16)
H6 H 0.381(3) 0.4489(14) 0.0128(15)
Zn8 Zn 0.10991(3) 0.215225(13) 0.535846(14)
Zn9 Zn 0.39009(3) 0.284775(13) 0.035846(14)
Zn12 Zn 0.10991(3) 0.784775(13) 0.035846(14)
Zn13 Zn 0.0000 0.5000 0.5000
O13 O 0.02649(17) 0.41587(8) 0.41903(8)
O15 O 0.10819(19) 0.39092(10) 0.30680(9)
O16 O 0.08387(16) 0.24764(9) 0.42298(9)
O17 O 0.1102(2) 0.23017(10) 0.30204(9)
O18 O 0.00741(17) 0.68532(8) 0.04476(9)
O19 O 0.00741(17) 0.31468(8) 0.54476(9)
O20 O 0.0022(2) 0.57163(9) 0.08994(10)
O23 O 0.30172(16) 0.26975(8) 0.53144(8)
O31 O 0.12298(17) 0.20408(10) 0.64752(9)
O34 O 0.24513(16) 0.12732(8) 0.52123(9)
C7 C 0.1011(3) 0.42809(13) 0.36286(13)
C8 C 0.1360(3) 0.21677(13) 0.36714(14)
C9 C 0.0172(3) 0.63852(13) 0.09610(13)
H7 H 0.151(3) 0.4662(18) 0.3666(17)
H8 H 0.200(3) 0.1796(16) 0.3776(18)
H10 H 0.038(3) 0.6560(17) 0.1424(17)
Zn4_2 Zn 0.0000 0.5000 1.0000
O8 O 0.05919(18) 0.15222(9) 0.97337(10)
C4 C 0.1704(2) 0.17018(12) 0.99953(13)
H3 H 0.240(3) 0.1371(16) 0.9939(15)
O14 O 0.02649(17) 0.58413(8) 0.91903(8)
Zn3_2 Zn 1.0000 0.31118(2) 0.2500
Zn4_3 Zn 1.0000 0.5000 0.0000
O1 O 0.97351(17) 0.41587(8) 0.08097(8)
O2 O 0.89181(19) 0.39092(10) 0.19320(9)
O3 O 0.91613(16) 0.24764(9) 0.07702(9)
O4 O 0.8898(2) 0.23017(10) 0.19796(9)
C1 C 0.8989(3) 0.42809(13) 0.13714(13)
C2 C 0.8640(3) 0.21677(13) 0.13286(14)
H1 H 0.849(3) 0.4662(18) 0.1334(17)
H2 H 0.800(3) 0.1796(16) 0.1224(18)
Zn5 Zn 0.92253(3) 0.321295(13) 0.437784(13)
Zn10 Zn 0.60991(3) 0.284775(13) 0.464154(14)
Zn13_2 Zn 1.0000 0.5000 0.5000
Zn14 Zn 0.5000 0.0000 0.0000
O22 O 0.80172(16) 0.23025(8) 0.46856(8)
O24 O 0.55919(18) 0.34778(9) 0.02663(10)
O25 O 0.94081(18) 0.15222(9) 0.52663(10)
O26 O 0.84543(17) 0.31316(9) 0.33169(8)
O29 O 0.62298(17) 0.29592(10) 0.35248(9)
O33 O 0.74513(16) 0.37268(8) 0.47877(9)
C10 C 0.6704(2) 0.32982(12) 0.00047(13)
C11 C 0.7222(3) 0.30618(13) 0.31179(12)
H9 H 0.740(3) 0.3629(16) 0.0061(15)
H11 H 0.698(3) 0.3117(13) 0.2609(16)
Zn2 Zn 0.89009(3) 0.215225(13) 0.964154(14)
Zn4_4 Zn 1.0000 0.5000 1.0000
O5 O 0.99259(17) 0.31468(8) 0.95524(9)
O6 O 0.9978(2) 0.42837(9) 0.91006(10)
C3 C 0.9828(3) 0.36148(13) 0.90390(13)
H4 H 0.962(3) 0.3440(17) 0.8576(17)
Zn6 Zn 0.57747(3) 0.178705(13) 0.937784(13)
Zn7 Zn 0.92253(3) 0.678705(13) 0.937784(13)
Zn14_2 Zn 0.5000 0.0000 1.0000
O21 O 0.69828(16) 0.26975(8) 0.96856(8)
O27 O 0.70881(19) 0.00763(9) 0.99127(10)
O28 O 0.79119(19) 0.50763(9) 0.99127(10)
O30 O 0.87702(17) 0.20408(10) 0.85248(9)
O32 O 0.75487(16) 0.12732(8) 0.97877(9)
C12 C 0.7876(3) 0.06032(13) 0.98734(14)
H12 H 0.881(3) 0.0511(14) 0.9872(15)
Zn14_3 Zn 0.5000 1.0000 0.0000
Zn14_4 Zn 0.5000 1.0000 1.0000
O19_2 O 0.49259(17) 0.18532(8) 0.04476(9)
Zn1_2 Zn 0.42253(3) 0.178705(13) 0.562216(13)
Zn3_3 Zn 0.5000 0.18882(2) 0.7500
Zn4_5 Zn 0.5000 0.0000 0.5000
O1_2 O 0.52649(17) 0.08413(8) 0.58097(8)
O2_2 O 0.60819(19) 0.10908(10) 0.69320(9)
O3_2 O 0.58387(16) 0.25236(9) 0.57702(9)
O4_2 O 0.6102(2) 0.26983(10) 0.69796(9)
O5_2 O 0.50741(17) 0.18532(8) 0.45524(9)
O6_2 O 0.5022(2) 0.07163(9) 0.41006(10)
O8_2 O 0.44081(18) 0.34778(9) 0.47337(10)
O9_2 O 0.34543(17) 0.18684(9) 0.66831(8)
O10_2 O 0.29119(19) 0.00763(9) 0.50873(10)
C1_2 C 0.6011(3) 0.07191(13) 0.63714(13)
C2_2 C 0.6360(3) 0.28323(13) 0.63286(14)
C3_2 C 0.5172(3) 0.13852(13) 0.40390(13)
C4_2 C 0.3296(2) 0.32982(12) 0.49953(13)
C5_2 C 0.2222(3) 0.19382(13) 0.68821(12)
C6_2 C 0.2124(3) 0.06032(13) 0.51266(14)
H1_2 H 0.651(3) 0.0338(18) 0.6334(17)
H2_2 H 0.700(3) 0.3204(16) 0.6224(18)
H3_2 H 0.260(3) 0.3629(16) 0.4939(15)
H4_2 H 0.538(3) 0.1560(17) 0.3576(17)
H5_2 H 0.198(3) 0.1883(13) 0.7391(16)
H6_2 H 0.119(3) 0.0511(14) 0.5128(15)
O13_2 O 0.47351(17) 0.08413(8) 0.91903(8)
O15_2 O 0.39181(19) 0.10908(10) 0.80680(9)
O16_2 O 0.41613(16) 0.25236(9) 0.92298(9)
O17_2 O 0.3898(2) 0.26983(10) 0.80204(9)
O26_2 O 0.65457(17) 0.18684(9) 0.83169(8)
O27_2 O 0.79119(19) 0.49237(9) 0.49127(10)
C7_2 C 0.3989(3) 0.07191(13) 0.86286(13)
C8_2 C 0.3640(3) 0.28323(13) 0.86714(14)
C10_2 C 0.8296(2) 0.17018(12) 0.50047(13)
C11_2 C 0.7778(3) 0.19382(13) 0.81179(12)
C12_2 C 0.7124(3) 0.43968(13) 0.48734(14)
H7_2 H 0.349(3) 0.0338(18) 0.8666(17)
H8_2 H 0.300(3) 0.3204(16) 0.8776(18)
H9_2 H 0.760(3) 0.1371(16) 0.5061(15)
H11_2 H 0.802(3) 0.1883(13) 0.7609(16)
H12_2 H 0.619(3) 0.4489(14) 0.4872(15)
Zn4_6 Zn 0.5000 1.0000 0.5000
Zn7_2 Zn 0.57747(3) 0.821295(13) 0.437784(13)
Zn12_2 Zn 0.39009(3) 0.715225(13) 0.535846(14)
O14_2 O 0.47351(17) 0.91587(8) 0.41903(8)
O18_2 O 0.49259(17) 0.81468(8) 0.54476(9)
O20_2 O 0.4978(2) 0.92837(9) 0.58994(10)
O28_2 O 0.70881(19) 0.99237(9) 0.49127(10)
C9_2 C 0.4828(3) 0.86148(13) 0.59610(13)
H10_2 H 0.462(3) 0.8440(17) 0.6424(17)
O6_3 O 0.0022(2) 0.42837(9) 0.58994(10)
C3_3 C 0.0172(3) 0.36148(13) 0.59610(13)
H4_3 H 0.038(3) 0.3440(17) 0.6424(17)
Zn7_3 Zn 0.07747(3) 0.678705(13) 0.562216(13)
O28_3 O 0.20881(19) 0.50763(9) 0.50873(10)
Zn12_3 Zn 0.89009(3) 0.784775(13) 0.464154(14)
O14_3 O 0.97351(17) 0.58413(8) 0.58097(8)
O18_3 O 0.99259(17) 0.68532(8) 0.45524(9)
O20_3 O 0.9978(2) 0.57163(9) 0.41006(10)
C9_3 C 0.9828(3) 0.63852(13) 0.40390(13)
H10_3 H 0.962(3) 0.6560(17) 0.3576(17)
O6_4 O 0.4978(2) 0.07163(9) 0.08994(10)
C3_4 C 0.4828(3) 0.13852(13) 0.09610(13)
H4_4 H 0.462(3) 0.1560(17) 0.1424(17)
Zn7_4 Zn 0.42253(3) 0.821295(13) 0.062216(13)
O14_4 O 0.52649(17) 0.91587(8) 0.08097(8)
O28_4 O 0.29119(19) 0.99237(9) 0.00873(10)
Zn12_4 Zn 0.60991(3) 0.715225(13) 0.964154(14)
O18_4 O 0.50741(17) 0.81468(8) 0.95524(9)
O20_4 O 0.5022(2) 0.92837(9) 0.91006(10)
C9_4 C 0.5172(3) 0.86148(13) 0.90390(13)
H10_4 H 0.538(3) 0.8440(17) 0.8576(17)
O21_2 O 0.30172(16) 0.73025(8) 0.03144(8)
O30_2 O 0.12298(17) 0.79592(10) 0.14752(9)
O32_2 O 0.24513(16) 0.87268(8) 0.02123(9)
C12_3 C 0.2124(3) 0.93968(13) 0.01266(14)
H12_3 H 0.119(3) 0.9489(14) 0.0128(15)
Zn3_4 Zn 0.0000 0.68882(2) 0.7500
O2_3 O 0.10819(19) 0.60908(10) 0.80680(9)
O3_3 O 0.08387(16) 0.75236(9) 0.92298(9)
O4_3 O 0.1102(2) 0.76983(10) 0.80204(9)
C1_3 C 0.1011(3) 0.57191(13) 0.86286(13)
C2_3 C 0.1360(3) 0.78323(13) 0.86714(14)
H1_3 H 0.151(3) 0.5338(18) 0.8666(17)
H2_3 H 0.200(3) 0.8204(16) 0.8776(18)
O22_2 O 0.19828(16) 0.76975(8) 0.53144(8)
O24_2 O 0.44081(18) 0.65222(9) 0.97337(10)
O25_2 O 0.05919(18) 0.84778(9) 0.47337(10)
O26_3 O 0.15457(17) 0.68684(9) 0.66831(8)
O29_2 O 0.37702(17) 0.70408(10) 0.64752(9)
O33_2 O 0.25487(16) 0.62732(8) 0.52123(9)
C10_3 C 0.3296(2) 0.67018(12) 0.99953(13)
C11_3 C 0.2778(3) 0.69382(13) 0.68821(12)
H9_3 H 0.260(3) 0.6371(16) 0.9939(15)
H11_3 H 0.302(3) 0.6883(13) 0.7391(16)
O8_3 O 0.94081(18) 0.84778(9) 0.02663(10)
C4_3 C 0.8296(2) 0.82982(12) 0.00047(13)
H3_3 H 0.760(3) 0.8629(16) 0.0061(15)
Zn3_5 Zn 1.0000 0.68882(2) 0.7500
O7_2 O 0.80172(16) 0.76975(8) 0.96856(8)
O9_3 O 0.84543(17) 0.68684(9) 0.83169(8)
O11_2 O 0.62298(17) 0.70408(10) 0.85248(9)
O12_2 O 0.74513(16) 0.62732(8) 0.97877(9)
C5_3 C 0.7222(3) 0.69382(13) 0.81179(12)
C6_3 C 0.7124(3) 0.56032(13) 0.98734(14)
H5_3 H 0.698(3) 0.6883(13) 0.7609(16)
H6_3 H 0.619(3) 0.5511(14) 0.9872(15)
O15_3 O 0.89181(19) 0.60908(10) 0.69320(9)
O16_3 O 0.91613(16) 0.75236(9) 0.57702(9)
O17_3 O 0.8898(2) 0.76983(10) 0.69796(9)
O23_2 O 0.69828(16) 0.73025(8) 0.46856(8)
O31_2 O 0.87702(17) 0.79592(10) 0.35248(9)
O34_2 O 0.75487(16) 0.87268(8) 0.47877(9)
C7_3 C 0.8989(3) 0.57191(13) 0.63714(13)
C8_3 C 0.8640(3) 0.78323(13) 0.63286(14)
H7_3 H 0.849(3) 0.5338(18) 0.6334(17)
H8_3 H 0.800(3) 0.8204(16) 0.6224(18)
Zn3_6 Zn 0.5000 0.81118(2) 0.2500
O2_4 O 0.39181(19) 0.89092(10) 0.30680(9)
O3_4 O 0.41613(16) 0.74764(9) 0.42298(9)
O4_4 O 0.3898(2) 0.73017(10) 0.30204(9)
O8_4 O 0.55919(18) 0.65222(9) 0.52663(10)
O9_4 O 0.65457(17) 0.81316(9) 0.33169(8)
C1_4 C 0.3989(3) 0.92809(13) 0.36286(13)
C2_4 C 0.3640(3) 0.71677(13) 0.36714(14)
C4_4 C 0.6704(2) 0.67018(12) 0.50047(13)
C5_4 C 0.7778(3) 0.80618(13) 0.31179(12)
C6_4 C 0.7876(3) 0.93968(13) 0.48734(14)
H1_4 H 0.349(3) 0.9662(18) 0.3666(17)
H2_4 H 0.300(3) 0.6796(16) 0.3776(18)
H3_4 H 0.740(3) 0.6371(16) 0.5061(15)
H5_4 H 0.802(3) 0.8117(13) 0.2609(16)
H6_4 H 0.881(3) 0.9489(14) 0.4872(15)
O15_4 O 0.60819(19) 0.89092(10) 0.19320(9)
O16_4 O 0.58387(16) 0.74764(9) 0.07702(9)
O17_4 O 0.6102(2) 0.73017(10) 0.19796(9)
O26_4 O 0.34543(17) 0.81316(9) 0.16831(8)
C7_4 C 0.6011(3) 0.92809(13) 0.13714(13)
C8_4 C 0.6360(3) 0.71677(13) 0.13286(14)
C10_4 C 0.1704(2) 0.82982(12) 0.49953(13)
C11_4 C 0.2222(3) 0.80618(13) 0.18821(12)
C12_4 C 0.2876(3) 0.56032(13) 0.51266(14)
H7_4 H 0.651(3) 0.9662(18) 0.1334(17)
H8_4 H 0.700(3) 0.6796(16) 0.1224(18)
H9_4 H 0.240(3) 0.8629(16) 0.4939(15)
H11_4 H 0.198(3) 0.8117(13) 0.2391(16)
H12_4 H 0.381(3) 0.5511(14) 0.5128(15)
loop_
_geom_bond_atom_site_label_1
_geom_bond_atom_site_label_2
_geom_bond_site_symmetry_1
_geom_bond_site_symmetry_2
O7 Zn1 1_555 1_555
O9 Zn1 1_555 1_555
O10 Zn4 1_555 1_555
O11 C5 1_555 1_555
O12 Zn1 1_555 1_555
C5 O9 1_555 1_555
C6 O10 1_555 1_555
H5 C5 1_555 1_555
H6 C6 1_555 1_555
Zn8 O16 1_555 1_555
Zn9 O7 1_555 1_555
Zn12 O18 1_555 1_555
Zn13 O13 1_555 1_555
O13 C7 1_555 1_555
O15 Zn3 1_555 1_555
O17 Zn3 1_555 1_555
O20 Zn4 1_555 1_555
O23 Zn8 1_555 1_555
O31 Zn8 1_555 1_555
O34 Zn8 1_555 1_555
C7 O15 1_555 1_555
C8 O16 1_555 1_555
C9 O18 1_555 1_555
H7 C7 1_555 1_555
H8 C8 1_555 1_555
H10 C9 1_555 1_555
Zn3 O9 1_555 1_555
O11 Zn9 1_555 1_555
O12 C6 1_555 1_555
O12 Zn9 1_555 1_555
Zn8 O19 1_555 1_555
O17 C8 1_555 1_555
O20 C9 1_555 1_555
H3 C4 1_555 1_555
O14 Zn4_2 1_555 1_555
O8 C4 1_555 1_555
Zn3_2 O2 1_555 1_555
Zn4_3 O1 1_555 1_555
O1 C1 1_555 1_555
O2 C1 1_555 1_555
O4 Zn3_2 1_555 1_555
C1 H1 1_555 1_555
C2 O3 1_555 1_555
H2 C2 1_555 1_555
Zn10 O22 1_555 1_555
Zn9 O24 1_555 1_555
O22 Zn5 1_555 1_555
O24 C10 1_555 1_555
O26 Zn3_2 1_555 1_555
O29 Zn10 1_555 1_555
O33 Zn5 1_555 1_555
C11 O26 1_555 1_555
H9 C10 1_555 1_555
H11 C11 1_555 1_555
O4 C2 1_555 1_555
Zn5 O26 1_555 1_555
Zn10 O33 1_555 1_555
O29 C11 1_555 1_555
O6 Zn4_4 1_555 1_555
C3 O5 1_555 1_555
H4 C3 1_555 1_555
Zn6 O21 1_555 1_555
Zn14_2 O27 1_555 1_555
O21 Zn2 1_555 1_555
O27 C12 1_555 1_555
O28 Zn4_4 1_555 1_555
O30 Zn2 1_555 1_555
O32 Zn2 1_555 1_555
C12 O32 1_555 1_555
H12 C12 1_555 1_555
Zn2 O5 1_555 1_555
O6 C3 1_555 1_555
Zn6 O32 1_555 1_555
Zn9 O19_2 1_555 1_555
Zn1_2 O1_2 1_555 1_555
Zn10 O3_2 1_555 1_555
Zn3_3 O2_2 1_555 1_555
Zn4_5 O1_2 1_555 1_555
O1_2 C1_2 1_555 1_555
O2_2 C1_2 1_555 1_555
O3_2 Zn1_2 1_555 1_555
O4_2 Zn3_3 1_555 1_555
O5_2 Zn1_2 1_555 1_555
O6_2 Zn4_5 1_555 1_555
O23 Zn1_2 1_555 1_555
O8_2 Zn10 1_555 1_555
O9_2 Zn1_2 1_555 1_555
O10_2 Zn4_5 1_555 1_555
O31 C5_2 1_555 1_555
O34 Zn1_2 1_555 1_555
C1_2 H1_2 1_555 1_555
C2_2 O3_2 1_555 1_555
C3_2 O5_2 1_555 1_555
C4_2 O23 1_555 1_555
C5_2 O9_2 1_555 1_555
C6_2 O10_2 1_555 1_555
H2_2 C2_2 1_555 1_555
H3_2 C4_2 1_555 1_555
H4_2 C3_2 1_555 1_555
H5_2 C5_2 1_555 1_555
H6_2 C6_2 1_555 1_555
Zn6 O13_2 1_555 1_555
Zn14_2 O13_2 1_555 1_555
Zn13_2 O27_2 1_555 1_555
O13_2 C7_2 1_555 1_555
O15_2 Zn3_3 1_555 1_555
O16_2 Zn6 1_555 1_555
O17_2 Zn3_3 1_555 1_555
O25 C10_2 1_555 1_555
O26_2 Zn3_3 1_555 1_555
O27_2 C12_2 1_555 1_555
C7_2 O15_2 1_555 1_555
C8_2 O16_2 1_555 1_555
C10_2 O22 1_555 1_555
C11_2 O26_2 1_555 1_555
C12_2 O33 1_555 1_555
H7_2 C7_2 1_555 1_555
H8_2 C8_2 1_555 1_555
H9_2 C10_2 1_555 1_555
H11_2 C11_2 1_555 1_555
H12_2 C12_2 1_555 1_555
Zn10 O5_2 1_555 1_555
Zn3_3 O9_2 1_555 1_555
O4_2 C2_2 1_555 1_555
O6_2 C3_2 1_555 1_555
O8_2 C4_2 1_555 1_555
O34 C6_2 1_555 1_555
Zn6 O26_2 1_555 1_555
O17_2 C8_2 1_555 1_555
O30 C11_2 1_555 1_555
Zn7_2 O14_2 1_555 1_555
Zn12_2 O18_2 1_555 1_555
O14_2 Zn4_6 1_555 1_555
O18_2 Zn7_2 1_555 1_555
O20_2 Zn4_6 1_555 1_555
O28_2 Zn4_6 1_555 1_555
C9_2 O18_2 1_555 1_555
H10_2 C9_2 1_555 1_555
O20_2 C9_2 1_555 1_555
O6_3 Zn13 1_555 1_555
C3_3 O19 1_555 1_555
H4_3 C3_3 1_555 1_555
O28_3 Zn13 1_555 1_555
O6_3 C3_3 1_555 1_555
Zn12_3 O18_3 1_555 1_555
O14_3 Zn13_2 1_555 1_555
O20_3 Zn13_2 1_555 1_555
C9_3 O18_3 1_555 1_555
H10_3 C9_3 1_555 1_555
O20_3 C9_3 1_555 1_555
O6_4 Zn14 1_555 1_555
C3_4 O19_2 1_555 1_555
H4_4 C3_4 1_555 1_555
O6_4 C3_4 1_555 1_555
Zn7_4 O14_4 1_555 1_555
O14_4 Zn14_3 1_555 1_555
O28_4 Zn14_3 1_555 1_555
Zn12_4 O18_4 1_555 1_555
O20_4 Zn14_4 1_555 1_555
C9_4 O18_4 1_555 1_555
H10_4 C9_4 1_555 1_555
O20_4 C9_4 1_555 1_555
Zn7_4 O21_2 1_555 1_555
O21_2 Zn12 1_555 1_555
O28_4 C12_3 1_555 1_555
O30_2 Zn12 1_555 1_555
O32_2 Zn12 1_555 1_555
C12_3 O32_2 1_555 1_555
H12_3 C12_3 1_555 1_555
Zn7_4 O32_2 1_555 1_555
Zn3_4 O2_3 1_555 1_555
O14 C1_3 1_555 1_555
O2_3 C1_3 1_555 1_555
O4_3 Zn3_4 1_555 1_555
C1_3 H1_3 1_555 1_555
C2_3 O3_3 1_555 1_555
H2_3 C2_3 1_555 1_555
Zn12_2 O22_2 1_555 1_555
Zn12_4 O24_2 1_555 1_555
O22_2 Zn7_3 1_555 1_555
O24_2 C10_3 1_555 1_555
O26_3 Zn3_4 1_555 1_555
O29_2 Zn12_2 1_555 1_555
O33_2 Zn7_3 1_555 1_555
C11_3 O26_3 1_555 1_555
H9_3 C10_3 1_555 1_555
H11_3 C11_3 1_555 1_555
O4_3 C2_3 1_555 1_555
Zn7_3 O26_3 1_555 1_555
Zn12_2 O33_2 1_555 1_555
O29_2 C11_3 1_555 1_555
H3_3 C4_3 1_555 1_555
O8_3 C4_3 1_555 1_555
O7_2 Zn7 1_555 1_555
O9_3 Zn7 1_555 1_555
O11_2 C5_3 1_555 1_555
O12_2 Zn7 1_555 1_555
C5_3 O9_3 1_555 1_555
C6_3 O28 1_555 1_555
H5_3 C5_3 1_555 1_555
H6_3 C6_3 1_555 1_555
Zn12_3 O16_3 1_555 1_555
Zn12_4 O7_2 1_555 1_555
O14_3 C7_3 1_555 1_555
O15_3 Zn3_5 1_555 1_555
O17_3 Zn3_5 1_555 1_555
O23_2 Zn12_3 1_555 1_555
O31_2 Zn12_3 1_555 1_555
O34_2 Zn12_3 1_555 1_555
C7_3 O15_3 1_555 1_555
C8_3 O16_3 1_555 1_555
H7_3 C7_3 1_555 1_555
H8_3 C8_3 1_555 1_555
Zn3_5 O9_3 1_555 1_555
O11_2 Zn12_4 1_555 1_555
O12_2 C6_3 1_555 1_555
O12_2 Zn12_4 1_555 1_555
O17_3 C8_3 1_555 1_555
Zn12_2 O3_4 1_555 1_555
Zn3_6 O2_4 1_555 1_555
O14_2 C1_4 1_555 1_555
O2_4 C1_4 1_555 1_555
O3_4 Zn7_2 1_555 1_555
O4_4 Zn3_6 1_555 1_555
O23_2 Zn7_2 1_555 1_555
O8_4 Zn12_2 1_555 1_555
O9_4 Zn7_2 1_555 1_555
O31_2 C5_4 1_555 1_555
O34_2 Zn7_2 1_555 1_555
C1_4 H1_4 1_555 1_555
C2_4 O3_4 1_555 1_555
C4_4 O23_2 1_555 1_555
C5_4 O9_4 1_555 1_555
C6_4 O28_2 1_555 1_555
H2_4 C2_4 1_555 1_555
H3_4 C4_4 1_555 1_555
H5_4 C5_4 1_555 1_555
H6_4 C6_4 1_555 1_555
O14_4 C7_4 1_555 1_555
O15_4 Zn3_6 1_555 1_555
O16_4 Zn7_4 1_555 1_555
O17_4 Zn3_6 1_555 1_555
O25_2 C10_4 1_555 1_555
O26_4 Zn3_6 1_555 1_555
O28_3 C12_4 1_555 1_555
C7_4 O15_4 1_555 1_555
C8_4 O16_4 1_555 1_555
C10_4 O22_2 1_555 1_555
C11_4 O26_4 1_555 1_555
C12_4 O33_2 1_555 1_555
H7_4 C7_4 1_555 1_555
H8_4 C8_4 1_555 1_555
H9_4 C10_4 1_555 1_555
H11_4 C11_4 1_555 1_555
H12_4 C12_4 1_555 1_555
Zn3_6 O9_4 1_555 1_555
O4_4 C2_4 1_555 1_555
O8_4 C4_4 1_555 1_555
O34_2 C6_4 1_555 1_555
Zn7_4 O26_4 1_555 1_555
O17_4 C8_4 1_555 1_555
O30_2 C11_4 1_555 1_555

#END
