
###############################################################################
#
# This file contains modified crystal structure data generated from the
# MOF subset of the Cambridge Structural Database (CSD) v543 
# hosted by the Cambridge Crystallographic Data Centre (CCDC).
#
# This work is licensed under the Creative Commons
# Attribution-NonCommercial-ShareAlike 4.0 International License.
# To view a copy of this license, visit
# http://creativecommons.org/licenses/by-nc-sa/4.0/
# or send a letter to
# Creative Commons, PO Box 1866, Mountain View, CA 94042, USA.
#
# CIF created using the CSD Python API on 29 September 2022
# The structure has been converted into the P1 space group
# The structure has a 3D framework
# The original CSD entry KAVTEI is in the monoclinic crystal system
# The framework has been calculated to contain at least 10.0% void space
# The void calculation uses a probe of radius 1.32A, grid spacing 0.4
#
###############################################################################

data_KAVTEI
_chemical_formula_moiety         '(C200 H160 Cd14 N16 O48)n'
_symmetry_cell_setting           triclinic
_symmetry_space_group_name_H-M   'P 1'
_symmetry_Int_Tables_number      1
_space_group_name_Hall           'P 1'
loop_
_symmetry_equiv_pos_site_id
_symmetry_equiv_pos_as_xyz
1 x,y,z
_cell_length_a                   32.207(6)
_cell_length_b                   13.378(3)
_cell_length_c                   15.871(3)
_cell_angle_alpha                90
_cell_angle_beta                 91.05(3)
_cell_angle_gamma                90
_cell_volume                     6837.11
loop_
_atom_site_label
_atom_site_type_symbol
_atom_site_fract_x
_atom_site_fract_y
_atom_site_fract_z
O3 O 0.53108(14) 0.1165(3) 0.6672(3)
O4 O 0.59681(14) 0.1680(4) 0.6541(3)
C3 C 0.61085(19) 0.0251(5) 0.5283(4)
H2 H 0.6329 0.0697 0.5422
C4 C 0.57333(19) 0.0320(5) 0.5708(4)
C8 C 0.56661(19) 0.1130(5) 0.6364(4)
Cd4 Cd 0.606010(13) 0.30492(3) 0.73557(3)
Cd8 Cd 0.893990(13) 0.19508(3) 0.26443(3)
Cd9 Cd 0.5000 0.22503(4) 0.7500
N3 N 0.88301(18) 0.0566(4) 0.1785(3)
C38 C 0.8564(2) 0.0590(6) 0.1121(5)
H27 H 0.8436 0.1207 0.0973
Cd7 Cd 0.393990(13) 0.30492(3) 0.76443(3)
O9 O 0.46892(14) 0.1165(3) 0.8328(3)
O12 O 0.40319(14) 0.1680(4) 0.8459(3)
C28 C 0.38915(19) 0.0251(5) 0.9717(4)
H22 H 0.3671 0.0697 0.9578
C29 C 0.42667(19) 0.0320(5) 0.9292(4)
C33 C 0.43339(19) 0.1130(5) 0.8636(4)
Cd1 Cd 0.606010(13) 0.69508(3) 0.23557(3)
Cd2 Cd 0.5000 0.77497(4) 0.2500
O1 O 0.55887(13) 0.7705(3) 0.3423(3)
O2 O 0.62626(14) 0.8015(3) 0.3467(3)
O5 O 0.59067(13) 0.5867(3) 0.1230(3)
O6 O 0.53544(14) 0.6471(3) 0.1852(3)
N1 N 0.61699(18) 0.5566(4) 0.3215(3)
N2 N 0.82423(17) 0.1989(4) 0.3017(4)
C1 C 0.58404(19) 0.8900(5) 0.4434(4)
C2 C 0.6162(2) 0.9545(5) 0.4667(4)
H1 H 0.6422 0.9496 0.4395
C5 C 0.54208(19) 0.9649(5) 0.5502(4)
H3 H 0.5169 0.9667 0.5804
C6 C 0.54670(19) 0.8940(5) 0.4854(4)
H4 H 0.5246 0.8498 0.4707
C7 C 0.5902(2) 0.8161(4) 0.3730(4)
C9 C 0.52497(18) 0.5478(5) 0.0609(4)
C10 C 0.54218(19) 0.4831(5) 0.0040(4)
H5 H 0.5713 0.4712 0.0068
C11 C 0.48180(19) 0.5658(5) 0.0579(4)
H6 H 0.4693 0.6099 0.0968
C12 C 0.55159(18) 0.5971(4) 0.1263(4)
C13 C 0.6436(2) 0.5590(6) 0.3879(5)
H7 H 0.6564 0.6207 0.4027
C14 C 0.6532(2) 0.4741(6) 0.4358(5)
H8 H 0.6729 0.4783 0.4809
C15 C 0.6340(2) 0.3842(6) 0.4180(4)
C16 C 0.6057(3) 0.3833(6) 0.3525(5)
H9 H 0.5907 0.3240 0.3393
C17 C 0.5991(3) 0.4701(6) 0.3052(5)
H10 H 0.5804 0.4664 0.2583
C18 C 0.8053(3) 0.2870(7) 0.3038(6)
H11 H 0.8209 0.3460 0.2934
C19 C 0.7639(3) 0.2948(7) 0.3207(7)
H12 H 0.7508 0.3584 0.3185
C20 C 0.7406(2) 0.2104(7) 0.3413(6)
C21 C 0.7618(3) 0.1201(7) 0.3425(7)
H13 H 0.7480 0.0598 0.3567
C22 C 0.8027(2) 0.1195(6) 0.3230(6)
H14 H 0.8168 0.0571 0.3249
C23 C 0.6442(2) 0.2903(6) 0.4671(5)
H15 H 0.6251 0.2360 0.4491
H16 H 0.6402 0.3025 0.5279
C24 C 0.6894(2) 0.2578(7) 0.4526(5)
H17 H 0.7082 0.3151 0.4631
H18 H 0.6971 0.2040 0.4928
C25 C 0.6947(2) 0.2205(8) 0.3631(6)
H19 H 0.6811 0.2678 0.3233
H20 H 0.6810 0.1548 0.3566
Cd3 Cd 0.393990(13) 0.69508(3) 0.26443(3)
O7 O 0.44113(13) 0.7705(3) 0.1577(3)
O8 O 0.37374(14) 0.8015(3) 0.1533(3)
O10 O 0.46892(14) 0.8835(3) 0.3328(3)
O11 O 0.53108(14) 0.8835(3) 0.1672(3)
O13 O 0.59681(14) 0.8320(4) 0.1541(3)
O14 O 0.40319(14) 0.8320(4) 0.3459(3)
O16 O 0.40933(13) 0.5867(3) 0.3770(3)
O18 O 0.46456(14) 0.6471(3) 0.3148(3)
N4 N 0.38301(18) 0.5566(4) 0.1785(3)
N5 N 0.67577(17) 0.6989(4) 0.1983(4)
N6 N 0.32423(17) 0.6989(4) 0.3017(4)
C26 C 0.41596(19) 0.8900(5) 0.0566(4)
C27 C 0.3838(2) 0.9545(5) 0.0333(4)
H21 H 0.3578 0.9496 0.0605
C31 C 0.45330(19) 0.8940(5) 0.0146(4)
H24 H 0.4754 0.8498 0.0293
C32 C 0.4098(2) 0.8161(4) 0.1270(4)
C39 C 0.8468(2) 0.9741(6) 0.0642(5)
H28 H 0.8271 0.9783 0.0191
C40 C 0.8660(2) 0.8842(6) 0.0820(4)
C41 C 0.8943(3) 0.8833(6) 0.1475(5)
H29 H 0.9093 0.8240 0.1607
C42 C 0.9009(3) 0.9701(6) 0.1948(5)
H30 H 0.9196 0.9664 0.2417
C43 C 0.6947(3) 0.7870(7) 0.1962(6)
H31 H 0.6791 0.8460 0.2066
C44 C 0.7361(3) 0.7948(7) 0.1793(7)
H32 H 0.7492 0.8584 0.1815
C45 C 0.7594(2) 0.7104(7) 0.1587(6)
C46 C 0.7382(3) 0.6201(7) 0.1575(7)
H33 H 0.7520 0.5598 0.1433
C47 C 0.6973(2) 0.6195(6) 0.1770(6)
H34 H 0.6832 0.5571 0.1751
C48 C 0.8558(2) 0.7903(6) 0.0329(5)
H35 H 0.8749 0.7360 0.0509
C49 C 0.8106(2) 0.7578(7) 0.0474(5)
H37 H 0.7918 0.8151 0.0369
H38 H 0.8029 0.7040 0.0072
C50 C 0.8053(2) 0.7205(8) 0.1369(6)
H39 H 0.8189 0.7678 0.1767
H40 H 0.8190 0.6548 0.1434
O15 O 0.40933(13) 0.4133(3) 0.8770(3)
O17 O 0.46456(14) 0.3529(3) 0.8148(3)
C30 C 0.45792(19) 0.9649(5) 0.9498(4)
H23 H 0.4831 0.9667 0.9196
C34 C 0.47503(18) 0.4522(5) 0.9391(4)
C35 C 0.45782(19) 0.5169(5) 0.9960(4)
H25 H 0.4287 0.5288 0.9932
C36 C 0.51820(19) 0.4342(5) 0.9421(4)
H26 H 0.5307 0.3901 0.9032
C37 C 0.44841(18) 0.4029(4) 0.8737(4)
H36 H 0.8598 0.8025 0.9721
Cd8_2 Cd 0.106010(13) 0.19508(3) 0.23557(3)
N3_2 N 0.11699(18) 0.0566(4) 0.3215(3)
C38_2 C 0.1436(2) 0.0590(6) 0.3879(5)
H27_2 H 0.1564 0.1207 0.4027
N2_2 N 0.17577(17) 0.1989(4) 0.1983(4)
C9_2 C 0.47503(18) 0.5478(5) 0.4391(4)
C10_2 C 0.45782(19) 0.4831(5) 0.4960(4)
H5_2 H 0.4287 0.4712 0.4932
C11_2 C 0.51820(19) 0.5658(5) 0.4421(4)
H6_2 H 0.5307 0.6099 0.4032
C12_2 C 0.44841(18) 0.5971(4) 0.3737(4)
C13_2 C 0.3564(2) 0.5590(6) 0.1121(5)
H7_2 H 0.3436 0.6207 0.0973
C14_2 C 0.3468(2) 0.4741(6) 0.0642(5)
H8_2 H 0.3271 0.4783 0.0191
C15_2 C 0.3660(2) 0.3842(6) 0.0820(4)
C16_2 C 0.3943(3) 0.3833(6) 0.1475(5)
H9_2 H 0.4093 0.3240 0.1607
C17_2 C 0.4009(3) 0.4701(6) 0.1948(5)
H10_2 H 0.4196 0.4664 0.2417
C18_2 C 0.1947(3) 0.2870(7) 0.1962(6)
H11_2 H 0.1791 0.3460 0.2066
C19_2 C 0.2361(3) 0.2948(7) 0.1793(7)
H12_2 H 0.2492 0.3584 0.1815
C20_2 C 0.2594(2) 0.2104(7) 0.1587(6)
C21_2 C 0.2382(3) 0.1201(7) 0.1575(7)
H13_2 H 0.2520 0.0598 0.1433
C22_2 C 0.1973(2) 0.1195(6) 0.1770(6)
H14_2 H 0.1832 0.0571 0.1751
C23_2 C 0.3558(2) 0.2903(6) 0.0329(5)
H15_2 H 0.3749 0.2360 0.0509
C24_2 C 0.3106(2) 0.2578(7) 0.0474(5)
H17_2 H 0.2918 0.3151 0.0369
H18_2 H 0.3029 0.2040 0.0072
C25_2 C 0.3053(2) 0.2205(8) 0.1369(6)
H19_2 H 0.3189 0.2678 0.1767
H20_2 H 0.3190 0.1548 0.1434
O15_2 O 0.59067(13) 0.4133(3) 0.6230(3)
O17_2 O 0.53544(14) 0.3529(3) 0.6852(3)
C34_2 C 0.52497(18) 0.4522(5) 0.5609(4)
C35_2 C 0.54218(19) 0.5169(5) 0.5040(4)
H25_2 H 0.5713 0.5288 0.5068
C36_2 C 0.48180(19) 0.4342(5) 0.5579(4)
H26_2 H 0.4693 0.3901 0.5968
C37_2 C 0.55159(18) 0.4029(4) 0.6263(4)
C39_2 C 0.1532(2) 0.9741(6) 0.4358(5)
H28_2 H 0.1729 0.9783 0.4809
C40_2 C 0.1340(2) 0.8842(6) 0.4180(4)
C41_2 C 0.1057(3) 0.8833(6) 0.3525(5)
H29_2 H 0.0907 0.8240 0.3393
C42_2 C 0.0991(3) 0.9701(6) 0.3052(5)
H30_2 H 0.0804 0.9664 0.2583
C43_2 C 0.3053(3) 0.7870(7) 0.3038(6)
H31_2 H 0.3209 0.8460 0.2934
C44_2 C 0.2639(3) 0.7948(7) 0.3207(7)
H32_2 H 0.2508 0.8584 0.3185
C45_2 C 0.2406(2) 0.7104(7) 0.3413(6)
C46_2 C 0.2618(3) 0.6201(7) 0.3425(7)
H33_2 H 0.2480 0.5598 0.3567
C47_2 C 0.3027(2) 0.6195(6) 0.3230(6)
H34_2 H 0.3168 0.5571 0.3249
C48_2 C 0.1442(2) 0.7903(6) 0.4671(5)
H35_2 H 0.1251 0.7360 0.4491
H36_2 H 0.1402 0.8025 0.5279
C49_2 C 0.1894(2) 0.7578(7) 0.4526(5)
H37_2 H 0.2082 0.8151 0.4631
H38_2 H 0.1971 0.7040 0.4928
C50_2 C 0.1947(2) 0.7205(8) 0.3631(6)
H39_2 H 0.1811 0.7678 0.3233
H40_2 H 0.1810 0.6548 0.3566
H16_2 H 0.3598 0.3025 0.9721
Cd2_2 Cd 0.0000 0.27497(4) 0.2500
O1_2 O 0.05887(13) 0.2705(3) 0.3423(3)
O2_2 O 0.12626(14) 0.3015(3) 0.3467(3)
O3_2 O 0.03108(14) 0.6165(3) 0.6672(3)
O4_2 O 0.09681(14) 0.6680(4) 0.6541(3)
O5_2 O 0.09067(13) 0.0867(3) 0.1230(3)
O6_2 O 0.03544(14) 0.1471(3) 0.1852(3)
C1_2 C 0.08404(19) 0.3900(5) 0.4434(4)
C2_2 C 0.1162(2) 0.4545(5) 0.4667(4)
H1_2 H 0.1422 0.4496 0.4395
C3_2 C 0.11085(19) 0.5251(5) 0.5283(4)
H2_2 H 0.1329 0.5697 0.5422
C4_2 C 0.07333(19) 0.5320(5) 0.5708(4)
C5_2 C 0.04208(19) 0.4649(5) 0.5502(4)
H3_2 H 0.0169 0.4667 0.5804
C6_2 C 0.04670(19) 0.3940(5) 0.4854(4)
H4_2 H 0.0246 0.3498 0.4707
C7_2 C 0.0902(2) 0.3161(4) 0.3730(4)
C8_2 C 0.06661(19) 0.6130(5) 0.6364(4)
C9_3 C 0.02497(18) 0.0478(5) 0.0609(4)
C12_3 C 0.05159(18) 0.0971(4) 0.1263(4)
Cd4_2 Cd 0.106010(13) 0.80492(3) 0.73557(3)
Cd9_2 Cd 0.0000 0.72503(4) 0.7500
O11_2 O 0.03108(14) 0.3835(3) 0.1672(3)
O13_2 O 0.09681(14) 0.3320(4) 0.1541(3)
C10_3 C 0.04218(19) 0.9831(5) 0.0040(4)
H5_3 H 0.0713 0.9712 0.0068
C36_3 C 0.01820(19) 0.9342(5) 0.9421(4)
H26_3 H 0.0307 0.8901 0.9032
Cd2_3 Cd 1.0000 0.27497(4) 0.2500
C11_3 C 0.98180(19) 0.0658(5) 0.0579(4)
H6_3 H 0.9693 0.1099 0.0968
Cd9_3 Cd 1.0000 0.72503(4) 0.7500
O7_2 O 0.94113(13) 0.2705(3) 0.1577(3)
O8_2 O 0.87374(14) 0.3015(3) 0.1533(3)
O10_2 O 0.96892(14) 0.3835(3) 0.3328(3)
O14_2 O 0.90319(14) 0.3320(4) 0.3459(3)
O16_2 O 0.90933(13) 0.0867(3) 0.3770(3)
O18_2 O 0.96456(14) 0.1471(3) 0.3148(3)
C26_2 C 0.91596(19) 0.3900(5) 0.0566(4)
C27_2 C 0.8838(2) 0.4545(5) 0.0333(4)
H21_2 H 0.8578 0.4496 0.0605
C31_2 C 0.95330(19) 0.3940(5) 0.0146(4)
H24_2 H 0.9754 0.3498 0.0293
C32_2 C 0.9098(2) 0.3161(4) 0.1270(4)
Cd7_2 Cd 0.893990(13) 0.80492(3) 0.76443(3)
O9_2 O 0.96892(14) 0.6165(3) 0.8328(3)
O12_2 O 0.90319(14) 0.6680(4) 0.8459(3)
C28_2 C 0.88915(19) 0.5251(5) 0.9717(4)
H22_2 H 0.8671 0.5697 0.9578
C29_2 C 0.92667(19) 0.5320(5) 0.9292(4)
C30_2 C 0.95792(19) 0.4649(5) 0.9498(4)
H23_2 H 0.9831 0.4667 0.9196
C33_2 C 0.93339(19) 0.6130(5) 0.8636(4)
C35_3 C 0.95782(19) 0.0169(5) 0.9960(4)
H25_3 H 0.9287 0.0288 0.9932
O15_3 O 0.90933(13) 0.9133(3) 0.8770(3)
O17_3 O 0.96456(14) 0.8529(3) 0.8148(3)
C34_3 C 0.97503(18) 0.9522(5) 0.9391(4)
C37_3 C 0.94841(18) 0.9029(4) 0.8737(4)
C11_4 C 0.01820(19) 0.0658(5) 0.4421(4)
H6_4 H 0.0307 0.1099 0.4032
C35_4 C 0.04218(19) 0.0169(5) 0.5040(4)
H25_4 H 0.0713 0.0288 0.5068
O15_4 O 0.09067(13) 0.9133(3) 0.6230(3)
O17_4 O 0.03544(14) 0.8529(3) 0.6852(3)
C34_4 C 0.02497(18) 0.9522(5) 0.5609(4)
C37_4 C 0.05159(18) 0.9029(4) 0.6263(4)
C9_4 C 0.97503(18) 0.0478(5) 0.4391(4)
C12_4 C 0.94841(18) 0.0971(4) 0.3737(4)
C10_4 C 0.95782(19) 0.9831(5) 0.4960(4)
H5_4 H 0.9287 0.9712 0.4932
C36_4 C 0.98180(19) 0.9342(5) 0.5579(4)
H26_4 H 0.9693 0.8901 0.5968
C30_3 C 0.54208(19) 0.0351(5) 0.0502(4)
H23_3 H 0.5169 0.0333 0.0804
H36_3 H 0.1402 0.1975 0.0279
O1_3 O 0.44113(13) 0.2295(3) 0.6577(3)
O2_3 O 0.37374(14) 0.1985(3) 0.6533(3)
N1_2 N 0.38301(18) 0.4434(4) 0.6785(3)
N2_3 N 0.17577(17) 0.8011(4) 0.6983(4)
C1_3 C 0.41596(19) 0.1100(5) 0.5566(4)
C2_3 C 0.3838(2) 0.0455(5) 0.5333(4)
H1_3 H 0.3578 0.0504 0.5605
C5_3 C 0.45792(19) 0.0351(5) 0.4498(4)
H3_3 H 0.4831 0.0333 0.4196
C6_3 C 0.45330(19) 0.1060(5) 0.5146(4)
H4_3 H 0.4754 0.1502 0.5293
C7_3 C 0.4098(2) 0.1839(4) 0.6270(4)
C13_3 C 0.3564(2) 0.4410(6) 0.6121(5)
H7_3 H 0.3436 0.3793 0.5973
C14_3 C 0.3468(2) 0.5259(6) 0.5642(5)
H8_3 H 0.3271 0.5217 0.5191
C15_3 C 0.3660(2) 0.6158(6) 0.5820(4)
C16_3 C 0.3943(3) 0.6167(6) 0.6475(5)
H9_3 H 0.4093 0.6760 0.6607
C17_3 C 0.4009(3) 0.5299(6) 0.6948(5)
H10_3 H 0.4196 0.5336 0.7417
C18_3 C 0.1947(3) 0.7130(7) 0.6962(6)
H11_3 H 0.1791 0.6540 0.7066
C19_3 C 0.2361(3) 0.7052(7) 0.6793(7)
H12_3 H 0.2492 0.6416 0.6815
C20_3 C 0.2594(2) 0.7896(7) 0.6587(6)
C21_3 C 0.2382(3) 0.8799(7) 0.6575(7)
H13_3 H 0.2520 0.9402 0.6433
C22_3 C 0.1973(2) 0.8805(6) 0.6770(6)
H14_3 H 0.1832 0.9429 0.6751
C23_3 C 0.3558(2) 0.7097(6) 0.5329(5)
H15_3 H 0.3749 0.7640 0.5509
H16_3 H 0.3598 0.6975 0.4721
C24_3 C 0.3106(2) 0.7422(7) 0.5474(5)
H17_3 H 0.2918 0.6849 0.5369
H18_3 H 0.3029 0.7960 0.5072
C25_3 C 0.3053(2) 0.7795(8) 0.6369(6)
H19_3 H 0.3189 0.7322 0.6767
H20_3 H 0.3190 0.8452 0.6434
O7_3 O 0.55887(13) 0.2295(3) 0.8423(3)
O8_3 O 0.62626(14) 0.1985(3) 0.8467(3)
N4_2 N 0.61699(18) 0.4434(4) 0.8215(3)
N5_2 N 0.32423(17) 0.3011(4) 0.8017(4)
N6_2 N 0.67577(17) 0.3011(4) 0.6983(4)
C26_3 C 0.58404(19) 0.1100(5) 0.9434(4)
C27_3 C 0.6162(2) 0.0455(5) 0.9667(4)
H21_3 H 0.6422 0.0504 0.9395
C31_3 C 0.54670(19) 0.1060(5) 0.9854(4)
H24_3 H 0.5246 0.1502 0.9707
C32_3 C 0.5902(2) 0.1839(4) 0.8730(4)
C39_3 C 0.1532(2) 0.0259(6) 0.9358(5)
H28_3 H 0.1729 0.0217 0.9809
C40_3 C 0.1340(2) 0.1158(6) 0.9180(4)
C41_3 C 0.1057(3) 0.1167(6) 0.8525(5)
H29_3 H 0.0907 0.1760 0.8393
C42_3 C 0.0991(3) 0.0299(6) 0.8052(5)
H30_3 H 0.0804 0.0336 0.7583
C43_3 C 0.3053(3) 0.2130(7) 0.8038(6)
H31_3 H 0.3209 0.1540 0.7934
C44_3 C 0.2639(3) 0.2052(7) 0.8207(7)
H32_3 H 0.2508 0.1416 0.8185
C45_3 C 0.2406(2) 0.2896(7) 0.8413(6)
C46_3 C 0.2618(3) 0.3799(7) 0.8425(7)
H33_3 H 0.2480 0.4402 0.8567
C47_3 C 0.3027(2) 0.3805(6) 0.8230(6)
H34_3 H 0.3168 0.4429 0.8249
C48_3 C 0.1442(2) 0.2097(6) 0.9671(5)
H35_3 H 0.1251 0.2640 0.9491
C49_3 C 0.1894(2) 0.2422(7) 0.9526(5)
H37_3 H 0.2082 0.1849 0.9631
H38_3 H 0.1971 0.2960 0.9928
C50_3 C 0.1947(2) 0.2795(8) 0.8631(6)
H39_3 H 0.1811 0.2322 0.8233
H40_3 H 0.1810 0.3452 0.8566
C28_3 C 0.61085(19) 0.9749(5) 0.0283(4)
H22_3 H 0.6329 0.9303 0.0422
C29_3 C 0.57333(19) 0.9680(5) 0.0708(4)
C33_3 C 0.56661(19) 0.8870(5) 0.1364(4)
C3_3 C 0.38915(19) 0.9749(5) 0.4717(4)
H2_3 H 0.3671 0.9303 0.4578
C4_3 C 0.42667(19) 0.9680(5) 0.4292(4)
C8_3 C 0.43339(19) 0.8870(5) 0.3636(4)
N3_3 N 0.11699(18) 0.9434(4) 0.8215(3)
C38_3 C 0.1436(2) 0.9410(6) 0.8879(5)
H27_3 H 0.1564 0.8793 0.9027
H16_4 H 0.6402 0.6975 0.0279
N2_4 N 0.82423(17) 0.8011(4) 0.8017(4)
C13_4 C 0.6436(2) 0.4410(6) 0.8879(5)
H7_4 H 0.6564 0.3793 0.9027
C14_4 C 0.6532(2) 0.5259(6) 0.9358(5)
H8_4 H 0.6729 0.5217 0.9809
C15_4 C 0.6340(2) 0.6158(6) 0.9180(4)
C16_4 C 0.6057(3) 0.6167(6) 0.8525(5)
H9_4 H 0.5907 0.6760 0.8393
C17_4 C 0.5991(3) 0.5299(6) 0.8052(5)
H10_4 H 0.5804 0.5336 0.7583
C18_4 C 0.8053(3) 0.7130(7) 0.8038(6)
H11_4 H 0.8209 0.6540 0.7934
C19_4 C 0.7639(3) 0.7052(7) 0.8207(7)
H12_4 H 0.7508 0.6416 0.8185
C20_4 C 0.7406(2) 0.7896(7) 0.8413(6)
C21_4 C 0.7618(3) 0.8799(7) 0.8425(7)
H13_4 H 0.7480 0.9402 0.8567
C22_4 C 0.8027(2) 0.8805(6) 0.8230(6)
H14_4 H 0.8168 0.9429 0.8249
C23_4 C 0.6442(2) 0.7097(6) 0.9671(5)
H15_4 H 0.6251 0.7640 0.9491
C24_4 C 0.6894(2) 0.7422(7) 0.9526(5)
H17_4 H 0.7082 0.6849 0.9631
H18_4 H 0.6971 0.7960 0.9928
C25_4 C 0.6947(2) 0.7795(8) 0.8631(6)
H19_4 H 0.6811 0.7322 0.8233
H20_4 H 0.6810 0.8452 0.8566
C39_4 C 0.8468(2) 0.0259(6) 0.5642(5)
H28_4 H 0.8271 0.0217 0.5191
C40_4 C 0.8660(2) 0.1158(6) 0.5820(4)
C41_4 C 0.8943(3) 0.1167(6) 0.6475(5)
H29_4 H 0.9093 0.1760 0.6607
C42_4 C 0.9009(3) 0.0299(6) 0.6948(5)
H30_4 H 0.9196 0.0336 0.7417
C43_4 C 0.6947(3) 0.2130(7) 0.6962(6)
H31_4 H 0.6791 0.1540 0.7066
C44_4 C 0.7361(3) 0.2052(7) 0.6793(7)
H32_4 H 0.7492 0.1416 0.6815
C45_4 C 0.7594(2) 0.2896(7) 0.6587(6)
C46_4 C 0.7382(3) 0.3799(7) 0.6575(7)
H33_4 H 0.7520 0.4402 0.6433
C47_4 C 0.6973(2) 0.3805(6) 0.6770(6)
H34_4 H 0.6832 0.4429 0.6751
C48_4 C 0.8558(2) 0.2097(6) 0.5329(5)
H35_4 H 0.8749 0.2640 0.5509
H36_4 H 0.8598 0.1975 0.4721
C49_4 C 0.8106(2) 0.2422(7) 0.5474(5)
H37_4 H 0.7918 0.1849 0.5369
H38_4 H 0.8029 0.2960 0.5072
C50_4 C 0.8053(2) 0.2795(8) 0.6369(6)
H39_4 H 0.8189 0.2322 0.6767
H40_4 H 0.8190 0.3452 0.6434
N3_4 N 0.88301(18) 0.9434(4) 0.6785(3)
C38_4 C 0.8564(2) 0.9410(6) 0.6121(5)
H27_4 H 0.8436 0.8793 0.5973
C28_4 C 0.11085(19) 0.4749(5) 0.0283(4)
H22_4 H 0.1329 0.4303 0.0422
C29_4 C 0.07333(19) 0.4680(5) 0.0708(4)
C30_4 C 0.04208(19) 0.5351(5) 0.0502(4)
H23_4 H 0.0169 0.5333 0.0804
C33_4 C 0.06661(19) 0.3870(5) 0.1364(4)
O7_4 O 0.05887(13) 0.7295(3) 0.8423(3)
O8_4 O 0.12626(14) 0.6985(3) 0.8467(3)
C26_4 C 0.08404(19) 0.6100(5) 0.9434(4)
C27_4 C 0.1162(2) 0.5455(5) 0.9667(4)
H21_4 H 0.1422 0.5504 0.9395
C31_4 C 0.04670(19) 0.6060(5) 0.9854(4)
H24_4 H 0.0246 0.6502 0.9707
C32_4 C 0.0902(2) 0.6839(4) 0.8730(4)
O1_4 O 0.94113(13) 0.7295(3) 0.6577(3)
O2_4 O 0.87374(14) 0.6985(3) 0.6533(3)
C1_4 C 0.91596(19) 0.6100(5) 0.5566(4)
C2_4 C 0.8838(2) 0.5455(5) 0.5333(4)
H1_4 H 0.8578 0.5504 0.5605
C3_4 C 0.88915(19) 0.4749(5) 0.4717(4)
H2_4 H 0.8671 0.4303 0.4578
C4_4 C 0.92667(19) 0.4680(5) 0.4292(4)
C5_4 C 0.95792(19) 0.5351(5) 0.4498(4)
H3_4 H 0.9831 0.5333 0.4196
C6_4 C 0.95330(19) 0.6060(5) 0.5146(4)
H4_4 H 0.9754 0.6502 0.5293
C7_4 C 0.9098(2) 0.6839(4) 0.6270(4)
C8_4 C 0.93339(19) 0.3870(5) 0.3636(4)
loop_
_geom_bond_atom_site_label_1
_geom_bond_atom_site_label_2
_geom_bond_site_symmetry_1
_geom_bond_site_symmetry_2
O3 C8 1_555 1_555
O4 C8 1_555 1_555
H2 C3 1_555 1_555
C4 C3 1_555 1_555
C8 C4 1_555 1_555
Cd4 O4 1_555 1_555
Cd8 N3 1_555 1_555
Cd9 O3 1_555 1_555
N3 C38 1_555 1_555
C38 H27 1_555 1_555
Cd7 O12 1_555 1_555
Cd9 O9 1_555 1_555
O9 C33 1_555 1_555
O12 C33 1_555 1_555
H22 C28 1_555 1_555
C29 C28 1_555 1_555
C33 C29 1_555 1_555
Cd1 O2 1_555 1_555
Cd2 O1 1_555 1_555
O1 C7 1_555 1_555
O2 C7 1_555 1_555
O5 Cd1 1_555 1_555
O6 Cd1 1_555 1_555
N1 Cd1 1_555 1_555
N2 C18 1_555 1_555
C1 C2 1_555 1_555
C2 H1 1_555 1_555
H3 C5 1_555 1_555
C6 C1 1_555 1_555
H4 C6 1_555 1_555
C7 C1 1_555 1_555
C9 C10 1_555 1_555
C10 H5 1_555 1_555
C11 C9 1_555 1_555
H6 C11 1_555 1_555
C12 O5 1_555 1_555
C13 N1 1_555 1_555
H7 C13 1_555 1_555
C14 C13 1_555 1_555
H8 C14 1_555 1_555
C15 C14 1_555 1_555
C16 C15 1_555 1_555
H9 C16 1_555 1_555
C17 N1 1_555 1_555
H10 C17 1_555 1_555
C18 H11 1_555 1_555
C19 C18 1_555 1_555
H12 C19 1_555 1_555
C20 C19 1_555 1_555
C21 C20 1_555 1_555
H13 C21 1_555 1_555
C22 N2 1_555 1_555
H14 C22 1_555 1_555
C23 C15 1_555 1_555
H15 C23 1_555 1_555
H16 C23 1_555 1_555
C24 C23 1_555 1_555
H17 C24 1_555 1_555
H18 C24 1_555 1_555
C25 C20 1_555 1_555
H19 C25 1_555 1_555
H20 C25 1_555 1_555
Cd3 O8 1_555 1_555
Cd8 N2 1_555 1_555
O7 Cd2 1_555 1_555
O8 C32 1_555 1_555
O10 Cd2 1_555 1_555
O11 Cd2 1_555 1_555
O13 Cd1 1_555 1_555
O14 Cd3 1_555 1_555
O16 Cd3 1_555 1_555
O18 Cd2 1_555 1_555
N4 Cd3 1_555 1_555
N5 Cd1 1_555 1_555
N6 Cd3 1_555 1_555
C26 C27 1_555 1_555
C27 H21 1_555 1_555
C31 C26 1_555 1_555
H24 C31 1_555 1_555
C32 O7 1_555 1_555
H28 C39 1_555 1_555
C40 C39 1_555 1_555
C41 C40 1_555 1_555
H29 C41 1_555 1_555
H30 C42 1_555 1_555
C43 N5 1_555 1_555
H31 C43 1_555 1_555
C44 C43 1_555 1_555
H32 C44 1_555 1_555
C45 C44 1_555 1_555
C46 C45 1_555 1_555
H33 C46 1_555 1_555
C47 N5 1_555 1_555
H34 C47 1_555 1_555
C48 C40 1_555 1_555
H35 C48 1_555 1_555
C49 C48 1_555 1_555
H37 C49 1_555 1_555
H38 C49 1_555 1_555
C50 C45 1_555 1_555
H39 C50 1_555 1_555
H40 C50 1_555 1_555
Cd2 O6 1_555 1_555
O6 C12 1_555 1_555
C5 C6 1_555 1_555
C9 C12 1_555 1_555
C16 C17 1_555 1_555
C21 C22 1_555 1_555
C24 C25 1_555 1_555
Cd3 O18 1_555 1_555
C26 C32 1_555 1_555
C41 C42 1_555 1_555
C46 C47 1_555 1_555
C49 C50 1_555 1_555
Cd7 O15 1_555 1_555
Cd9 O17 1_555 1_555
O15 C37 1_555 1_555
O17 Cd7 1_555 1_555
H23 C30 1_555 1_555
C34 C35 1_555 1_555
H25 C35 1_555 1_555
H26 C36 1_555 1_555
C37 O17 1_555 1_555
C34 C36 1_555 1_555
C34 C37 1_555 1_555
Cd8_2 N3_2 1_555 1_555
N3_2 C38_2 1_555 1_555
C38_2 H27_2 1_555 1_555
N2_2 C18_2 1_555 1_555
C9_2 C10_2 1_555 1_555
C10_2 H5_2 1_555 1_555
C11_2 C9_2 1_555 1_555
H6_2 C11_2 1_555 1_555
C12_2 O16 1_555 1_555
C13_2 N4 1_555 1_555
H7_2 C13_2 1_555 1_555
C14_2 C13_2 1_555 1_555
H8_2 C14_2 1_555 1_555
C15_2 C14_2 1_555 1_555
C16_2 C15_2 1_555 1_555
H9_2 C16_2 1_555 1_555
C17_2 N4 1_555 1_555
H10_2 C17_2 1_555 1_555
C18_2 H11_2 1_555 1_555
C19_2 C18_2 1_555 1_555
H12_2 C19_2 1_555 1_555
C20_2 C19_2 1_555 1_555
C21_2 C20_2 1_555 1_555
H13_2 C21_2 1_555 1_555
C22_2 N2_2 1_555 1_555
H14_2 C22_2 1_555 1_555
C23_2 C15_2 1_555 1_555
H15_2 C23_2 1_555 1_555
C24_2 C23_2 1_555 1_555
H17_2 C24_2 1_555 1_555
H18_2 C24_2 1_555 1_555
C25_2 C20_2 1_555 1_555
H19_2 C25_2 1_555 1_555
H20_2 C25_2 1_555 1_555
Cd8_2 N2_2 1_555 1_555
Cd4 O15_2 1_555 1_555
Cd9 O17_2 1_555 1_555
O15_2 C37_2 1_555 1_555
O17_2 Cd4 1_555 1_555
C34_2 C35_2 1_555 1_555
C35_2 C11_2 1_555 1_555
H25_2 C35_2 1_555 1_555
C36_2 C10_2 1_555 1_555
H26_2 C36_2 1_555 1_555
C37_2 O17_2 1_555 1_555
H28_2 C39_2 1_555 1_555
C40_2 C39_2 1_555 1_555
C41_2 C40_2 1_555 1_555
H29_2 C41_2 1_555 1_555
H30_2 C42_2 1_555 1_555
C43_2 N6 1_555 1_555
H31_2 C43_2 1_555 1_555
C44_2 C43_2 1_555 1_555
H32_2 C44_2 1_555 1_555
C45_2 C44_2 1_555 1_555
C46_2 C45_2 1_555 1_555
H33_2 C46_2 1_555 1_555
C47_2 N6 1_555 1_555
H34_2 C47_2 1_555 1_555
C48_2 C40_2 1_555 1_555
H35_2 C48_2 1_555 1_555
H36_2 C48_2 1_555 1_555
C49_2 C48_2 1_555 1_555
H37_2 C49_2 1_555 1_555
H38_2 C49_2 1_555 1_555
C50_2 C45_2 1_555 1_555
H39_2 C50_2 1_555 1_555
H40_2 C50_2 1_555 1_555
O18 C12_2 1_555 1_555
C9_2 C12_2 1_555 1_555
C16_2 C17_2 1_555 1_555
C21_2 C22_2 1_555 1_555
C24_2 C25_2 1_555 1_555
C34_2 C36_2 1_555 1_555
C34_2 C37_2 1_555 1_555
C41_2 C42_2 1_555 1_555
C46_2 C47_2 1_555 1_555
C49_2 C50_2 1_555 1_555
Cd8_2 O2_2 1_555 1_555
Cd2_2 O1_2 1_555 1_555
O1_2 C7_2 1_555 1_555
O2_2 C7_2 1_555 1_555
O3_2 C8_2 1_555 1_555
O4_2 C8_2 1_555 1_555
O5_2 Cd8_2 1_555 1_555
O6_2 Cd8_2 1_555 1_555
C1_2 C2_2 1_555 1_555
C2_2 H1_2 1_555 1_555
C3_2 C2_2 1_555 1_555
H2_2 C3_2 1_555 1_555
C4_2 C3_2 1_555 1_555
C5_2 C4_2 1_555 1_555
H3_2 C5_2 1_555 1_555
C6_2 C1_2 1_555 1_555
H4_2 C6_2 1_555 1_555
C7_2 C1_2 1_555 1_555
C8_2 C4_2 1_555 1_555
C12_3 O5_2 1_555 1_555
Cd4_2 O4_2 1_555 1_555
Cd9_2 O3_2 1_555 1_555
O11_2 Cd2_2 1_555 1_555
O13_2 Cd8_2 1_555 1_555
Cd2_2 O6_2 1_555 1_555
O6_2 C12_3 1_555 1_555
C5_2 C6_2 1_555 1_555
C9_3 C12_3 1_555 1_555
C10_3 H5_3 1_555 1_555
H26_3 C36_3 1_555 1_555
H6_3 C11_3 1_555 1_555
Cd8 O8_2 1_555 1_555
O7_2 Cd2_3 1_555 1_555
O8_2 C32_2 1_555 1_555
O10_2 Cd2_3 1_555 1_555
O14_2 Cd8 1_555 1_555
O16_2 Cd8 1_555 1_555
O18_2 Cd2_3 1_555 1_555
C26_2 C27_2 1_555 1_555
C27_2 H21_2 1_555 1_555
C31_2 C26_2 1_555 1_555
H24_2 C31_2 1_555 1_555
C32_2 O7_2 1_555 1_555
Cd8 O18_2 1_555 1_555
C26_2 C32_2 1_555 1_555
Cd7_2 O12_2 1_555 1_555
Cd9_3 O9_2 1_555 1_555
O9_2 C33_2 1_555 1_555
O12_2 C33_2 1_555 1_555
H22_2 C28_2 1_555 1_555
C29_2 C28_2 1_555 1_555
C30_2 C29_2 1_555 1_555
H23_2 C30_2 1_555 1_555
C33_2 C29_2 1_555 1_555
H25_3 C35_3 1_555 1_555
Cd7_2 O15_3 1_555 1_555
Cd9_3 O17_3 1_555 1_555
O15_3 C37_3 1_555 1_555
O17_3 Cd7_2 1_555 1_555
C37_3 O17_3 1_555 1_555
C34_3 C37_3 1_555 1_555
H6_4 C11_4 1_555 1_555
C35_4 C11_4 1_555 1_555
H25_4 C35_4 1_555 1_555
Cd4_2 O15_4 1_555 1_555
Cd9_2 O17_4 1_555 1_555
O15_4 C37_4 1_555 1_555
O17_4 Cd4_2 1_555 1_555
C37_4 O17_4 1_555 1_555
C34_4 C37_4 1_555 1_555
C12_4 O16_2 1_555 1_555
O18_2 C12_4 1_555 1_555
C9_4 C12_4 1_555 1_555
C10_4 H5_4 1_555 1_555
C36_4 C10_4 1_555 1_555
H26_4 C36_4 1_555 1_555
H23_3 C30_3 1_555 1_555
Cd7 O2_3 1_555 1_555
Cd9 O1_3 1_555 1_555
O1_3 C7_3 1_555 1_555
O2_3 C7_3 1_555 1_555
N1_2 Cd7 1_555 1_555
N2_3 C18_3 1_555 1_555
C1_3 C2_3 1_555 1_555
C2_3 H1_3 1_555 1_555
H3_3 C5_3 1_555 1_555
C6_3 C1_3 1_555 1_555
H4_3 C6_3 1_555 1_555
C7_3 C1_3 1_555 1_555
C13_3 N1_2 1_555 1_555
H7_3 C13_3 1_555 1_555
C14_3 C13_3 1_555 1_555
H8_3 C14_3 1_555 1_555
C15_3 C14_3 1_555 1_555
C16_3 C15_3 1_555 1_555
H9_3 C16_3 1_555 1_555
C17_3 N1_2 1_555 1_555
H10_3 C17_3 1_555 1_555
C18_3 H11_3 1_555 1_555
C19_3 C18_3 1_555 1_555
H12_3 C19_3 1_555 1_555
C20_3 C19_3 1_555 1_555
C21_3 C20_3 1_555 1_555
H13_3 C21_3 1_555 1_555
C22_3 N2_3 1_555 1_555
H14_3 C22_3 1_555 1_555
C23_3 C15_3 1_555 1_555
H15_3 C23_3 1_555 1_555
H16_3 C23_3 1_555 1_555
C24_3 C23_3 1_555 1_555
H17_3 C24_3 1_555 1_555
H18_3 C24_3 1_555 1_555
C25_3 C20_3 1_555 1_555
H19_3 C25_3 1_555 1_555
H20_3 C25_3 1_555 1_555
Cd4 O8_3 1_555 1_555
Cd4_2 N2_3 1_555 1_555
O7_3 Cd9 1_555 1_555
O8_3 C32_3 1_555 1_555
N4_2 Cd4 1_555 1_555
N5_2 Cd7 1_555 1_555
N6_2 Cd4 1_555 1_555
C26_3 C27_3 1_555 1_555
C27_3 H21_3 1_555 1_555
C31_3 C26_3 1_555 1_555
H24_3 C31_3 1_555 1_555
C32_3 O7_3 1_555 1_555
H28_3 C39_3 1_555 1_555
C40_3 C39_3 1_555 1_555
C41_3 C40_3 1_555 1_555
H29_3 C41_3 1_555 1_555
H30_3 C42_3 1_555 1_555
C43_3 N5_2 1_555 1_555
H31_3 C43_3 1_555 1_555
C44_3 C43_3 1_555 1_555
H32_3 C44_3 1_555 1_555
C45_3 C44_3 1_555 1_555
C46_3 C45_3 1_555 1_555
H33_3 C46_3 1_555 1_555
C47_3 N5_2 1_555 1_555
H34_3 C47_3 1_555 1_555
C48_3 C40_3 1_555 1_555
H35_3 C48_3 1_555 1_555
C49_3 C48_3 1_555 1_555
H37_3 C49_3 1_555 1_555
H38_3 C49_3 1_555 1_555
C50_3 C45_3 1_555 1_555
H39_3 C50_3 1_555 1_555
H40_3 C50_3 1_555 1_555
C5_3 C6_3 1_555 1_555
C16_3 C17_3 1_555 1_555
C21_3 C22_3 1_555 1_555
C24_3 C25_3 1_555 1_555
C26_3 C32_3 1_555 1_555
C41_3 C42_3 1_555 1_555
C46_3 C47_3 1_555 1_555
C49_3 C50_3 1_555 1_555
O11 C33_3 1_555 1_555
O13 C33_3 1_555 1_555
H22_3 C28_3 1_555 1_555
C29_3 C28_3 1_555 1_555
C33_3 C29_3 1_555 1_555
O10 C8_3 1_555 1_555
O14 C8_3 1_555 1_555
H2_3 C3_3 1_555 1_555
C4_3 C3_3 1_555 1_555
C8_3 C4_3 1_555 1_555
Cd4_2 N3_3 1_555 1_555
N3_3 C38_3 1_555 1_555
C38_3 H27_3 1_555 1_555
N2_4 C18_4 1_555 1_555
C13_4 N4_2 1_555 1_555
H7_4 C13_4 1_555 1_555
C14_4 C13_4 1_555 1_555
H8_4 C14_4 1_555 1_555
C15_4 C14_4 1_555 1_555
C16_4 C15_4 1_555 1_555
H9_4 C16_4 1_555 1_555
C17_4 N4_2 1_555 1_555
H10_4 C17_4 1_555 1_555
C18_4 H11_4 1_555 1_555
C19_4 C18_4 1_555 1_555
H12_4 C19_4 1_555 1_555
C20_4 C19_4 1_555 1_555
C21_4 C20_4 1_555 1_555
H13_4 C21_4 1_555 1_555
C22_4 N2_4 1_555 1_555
H14_4 C22_4 1_555 1_555
C23_4 C15_4 1_555 1_555
H15_4 C23_4 1_555 1_555
C24_4 C23_4 1_555 1_555
H17_4 C24_4 1_555 1_555
H18_4 C24_4 1_555 1_555
C25_4 C20_4 1_555 1_555
H19_4 C25_4 1_555 1_555
H20_4 C25_4 1_555 1_555
Cd7_2 N2_4 1_555 1_555
H28_4 C39_4 1_555 1_555
C40_4 C39_4 1_555 1_555
C41_4 C40_4 1_555 1_555
H29_4 C41_4 1_555 1_555
H30_4 C42_4 1_555 1_555
C43_4 N6_2 1_555 1_555
H31_4 C43_4 1_555 1_555
C44_4 C43_4 1_555 1_555
H32_4 C44_4 1_555 1_555
C45_4 C44_4 1_555 1_555
C46_4 C45_4 1_555 1_555
H33_4 C46_4 1_555 1_555
C47_4 N6_2 1_555 1_555
H34_4 C47_4 1_555 1_555
C48_4 C40_4 1_555 1_555
H35_4 C48_4 1_555 1_555
H36_4 C48_4 1_555 1_555
C49_4 C48_4 1_555 1_555
H37_4 C49_4 1_555 1_555
H38_4 C49_4 1_555 1_555
C50_4 C45_4 1_555 1_555
H39_4 C50_4 1_555 1_555
H40_4 C50_4 1_555 1_555
C16_4 C17_4 1_555 1_555
C21_4 C22_4 1_555 1_555
C24_4 C25_4 1_555 1_555
C41_4 C42_4 1_555 1_555
C46_4 C47_4 1_555 1_555
C49_4 C50_4 1_555 1_555
Cd7_2 N3_4 1_555 1_555
N3_4 C38_4 1_555 1_555
C38_4 H27_4 1_555 1_555
O11_2 C33_4 1_555 1_555
O13_2 C33_4 1_555 1_555
H22_4 C28_4 1_555 1_555
C29_4 C28_4 1_555 1_555
C30_4 C29_4 1_555 1_555
H23_4 C30_4 1_555 1_555
C33_4 C29_4 1_555 1_555
Cd4_2 O8_4 1_555 1_555
O7_4 Cd9_2 1_555 1_555
O8_4 C32_4 1_555 1_555
C26_4 C27_4 1_555 1_555
C27_4 H21_4 1_555 1_555
C31_4 C26_4 1_555 1_555
H24_4 C31_4 1_555 1_555
C32_4 O7_4 1_555 1_555
C26_4 C32_4 1_555 1_555
Cd7_2 O2_4 1_555 1_555
Cd9_3 O1_4 1_555 1_555
O1_4 C7_4 1_555 1_555
O2_4 C7_4 1_555 1_555
O10_2 C8_4 1_555 1_555
O14_2 C8_4 1_555 1_555
C1_4 C2_4 1_555 1_555
C2_4 H1_4 1_555 1_555
C3_4 C2_4 1_555 1_555
H2_4 C3_4 1_555 1_555
C4_4 C3_4 1_555 1_555
C5_4 C4_4 1_555 1_555
H3_4 C5_4 1_555 1_555
C6_4 C1_4 1_555 1_555
H4_4 C6_4 1_555 1_555
C7_4 C1_4 1_555 1_555
C8_4 C4_4 1_555 1_555
C5_4 C6_4 1_555 1_555

#END
