
###############################################################################
#
# This file contains modified crystal structure data generated from the
# MOF subset of the Cambridge Structural Database (CSD) v543 
# hosted by the Cambridge Crystallographic Data Centre (CCDC).
#
# This work is licensed under the Creative Commons
# Attribution-NonCommercial-ShareAlike 4.0 International License.
# To view a copy of this license, visit
# http://creativecommons.org/licenses/by-nc-sa/4.0/
# or send a letter to
# Creative Commons, PO Box 1866, Mountain View, CA 94042, USA.
#
# CIF created using the CSD Python API on 29 September 2022
# The structure has been converted into the P1 space group
# The structure has a 3D framework
# The original CSD entry KAWHEY is in the orthorhombic crystal system
# The original CSD entry KAWHEY is in a Sohncke space group
# The framework has been calculated to contain at least 10.0% void space
# The void calculation uses a probe of radius 1.32A, grid spacing 0.4
# H atom positions have been added when not included in the experimental data
#
###############################################################################

data_KAWHEY
_chemical_formula_moiety         '(C528 H304 N144 O110 Zn24)n'
_symmetry_cell_setting           triclinic
_symmetry_space_group_name_H-M   'P 1'
_symmetry_Int_Tables_number      1
_space_group_name_Hall           'P 1'
loop_
_symmetry_equiv_pos_site_id
_symmetry_equiv_pos_as_xyz
1 x,y,z
_cell_length_a                   29.72(6)
_cell_length_b                   37.891(16)
_cell_length_c                   37.65(3)
_cell_angle_alpha                90
_cell_angle_beta                 90
_cell_angle_gamma                90
_cell_volume                     42398.4
loop_
_atom_site_label
_atom_site_type_symbol
_atom_site_fract_x
_atom_site_fract_y
_atom_site_fract_z
O2 O 0.3918(3) 0.3936(2) 0.2886(2)
O4 O 0.1159(3) 0.82980(19) 0.1578(2)
O12 O 0.4496(3) 0.3720(2) 0.25768(17)
O13 O 0.0887(4) 0.8011(2) 0.2046(2)
C8 C 0.4021(4) 0.6172(3) 0.0044(2)
H5 H 0.4234 0.6000 0.0096
C9 C 0.3698(4) 0.6290(3) 0.0265(2)
N2 N 0.3459(3) 0.6539(3) 0.0092(2)
C10 C 0.3558(3) 0.6177(2) 0.06061(17)
C11 C 0.3718(3) 0.5864(2) 0.0752(2)
H6 H 0.3914 0.5722 0.0623
C12 C 0.3586(3) 0.5764(2) 0.1092(2)
C13 C 0.3294(3) 0.5977(3) 0.12851(18)
H7 H 0.3206 0.5910 0.1512
C14 C 0.3133(3) 0.6289(2) 0.1139(2)
C15 C 0.3265(3) 0.6389(2) 0.0799(2)
H8 H 0.3158 0.6598 0.0701
C16 C 0.3740(4) 0.5409(3) 0.1240(2)
N4 N 0.4028(4) 0.5210(3) 0.1047(2)
N5 N 0.4163(3) 0.4936(3) 0.1251(2)
N6 N 0.3958(4) 0.4966(3) 0.1571(2)
C17 C 0.3696(4) 0.5258(3) 0.1564(2)
H9 H 0.3518 0.5340 0.1749
C18 C 0.4000(3) 0.4712(2) 0.18214(19)
C19 C 0.4376(3) 0.4493(2) 0.18188(19)
H10 H 0.4594 0.4520 0.1644
C20 C 0.4425(3) 0.4235(2) 0.2078(2)
H11 H 0.4677 0.4089 0.2076
C21 C 0.4100(3) 0.4195(2) 0.2340(2)
C22 C 0.3724(3) 0.4414(3) 0.2342(2)
H12 H 0.3506 0.4387 0.2518
C23 C 0.3674(3) 0.4672(2) 0.2083(2)
H13 H 0.3423 0.4818 0.2085
C24 C 0.4172(5) 0.3943(4) 0.2629(3)
C25 C 0.2826(4) 0.6510(3) 0.1350(3)
C26 C 0.2604(4) 0.6822(3) 0.1281(3)
H14 H 0.2631 0.6957 0.1076
N7 N 0.2334(4) 0.6897(3) 0.1569(3)
N8 N 0.2389(4) 0.6632(3) 0.1814(2)
N9 N 0.2693(4) 0.6393(3) 0.1680(3)
C27 C 0.2054(3) 0.7175(2) 0.1615(3)
C28 C 0.1808(4) 0.7185(2) 0.1929(2)
H15 H 0.1838 0.7005 0.2095
C29 C 0.1517(4) 0.7465(3) 0.1995(2)
H16 H 0.1353 0.7472 0.2205
C30 C 0.1472(3) 0.7734(2) 0.1747(3)
C31 C 0.1717(4) 0.7724(2) 0.1433(2)
H17 H 0.1687 0.7904 0.1267
C32 C 0.2008(3) 0.7444(3) 0.1367(2)
H18 H 0.2173 0.7437 0.1157
C33 C 0.1144(6) 0.8029(4) 0.1785(4)
O18 O 0.6129(4) 0.3742(2) 0.1026(2)
O21 O 0.6328(4) 0.4182(3) 0.0674(2)
C127 C 0.5331(3) 0.3337(2) 0.0204(3)
H69 H 0.5188 0.3119 0.0219
C128 C 0.5605(3) 0.3451(3) 0.0480(2)
H70 H 0.5647 0.3310 0.0679
C129 C 0.5818(3) 0.3777(3) 0.0458(2)
C130 C 0.5756(3) 0.3989(2) 0.0160(3)
H71 H 0.5898 0.4207 0.0145
C132 C 0.6083(6) 0.3912(5) 0.0751(4)
Zn7 Zn 0.46319(6) 0.33089(5) 0.28633(4)
Zn10 Zn 0.03681(6) 0.83089(5) 0.21367(4)
Zn12 Zn 0.39302(6) 0.38355(5) 0.34238(4)
Zn14 Zn 0.60698(6) 0.38355(5) 0.15762(4)
Zn18 Zn 0.10698(6) 0.88355(5) 0.15762(4)
Zn20 Zn 0.67757(8) 0.43596(5) 0.10180(5)
Zn1 Zn 0.53681(6) 0.66911(5) 0.78633(4)
Zn2 Zn 0.60698(6) 0.61645(5) 0.84238(4)
Zn3 Zn 0.67757(8) 0.56404(5) 0.89820(5)
O1 O 0.5000 0.6976(3) 0.7500
O3 O 0.5359(3) 0.6171(3) 0.8451(2)
O5 O 0.3871(4) 0.3742(2) 0.3974(2)
O6 O 0.8247(2) 0.1124(2) 0.6614(2)
O7 O 0.5012(3) 0.6657(2) 0.82881(15)
O8 O 0.3672(4) 0.4182(3) 0.4326(2)
O9 O 0.6002(4) 0.5625(3) 0.8517(2)
O10 O 0.6600(4) 0.5288(2) 0.8621(2)
O11 O 0.7150(5) 0.5315(3) 0.9300(3)
O14 O 0.7827(3) 0.1037(3) 0.6150(3)
C1 C 0.5074(6) 0.6412(4) 0.8512(3)
C2 C 0.4778(3) 0.6400(2) 0.88256(16)
C3 C 0.4496(3) 0.6680(2) 0.89092(19)
H1 H 0.4487 0.6878 0.8763
C4 C 0.4228(3) 0.6666(2) 0.9211(2)
H2 H 0.4040 0.6854 0.9267
C5 C 0.4242(3) 0.6370(3) 0.94301(17)
C6 C 0.4524(3) 0.6090(2) 0.9346(2)
H3 H 0.4534 0.5892 0.9493
C7 C 0.4792(3) 0.6104(2) 0.9044(2)
H4 H 0.4981 0.5916 0.8988
N1 N 0.3981(3) 0.6347(2) 0.97338(19)
N3 N 0.3633(3) 0.6573(3) 0.9764(2)
C34 C 0.6232(6) 0.5353(4) 0.8462(4)
C35 C 0.6106(4) 0.5099(3) 0.8181(2)
C36 C 0.6415(3) 0.4848(3) 0.8068(3)
H19 H 0.6693 0.4829 0.8180
C37 C 0.6309(4) 0.4625(3) 0.7786(3)
H20 H 0.6516 0.4457 0.7711
C38 C 0.5894(4) 0.4653(3) 0.7618(2)
C39 C 0.5585(3) 0.4905(3) 0.7732(3)
H21 H 0.5308 0.4924 0.7619
C40 C 0.5691(3) 0.5127(3) 0.8013(3)
H22 H 0.5484 0.5295 0.8089
N10 N 0.5793(4) 0.4408(3) 0.7351(2)
C41 C 0.5956(4) 0.4106(3) 0.7240(3)
H23 H 0.6192 0.3982 0.7342
C42 C 0.5727(4) 0.4010(3) 0.6959(3)
N11 N 0.5422(3) 0.4252(3) 0.6896(2)
N12 N 0.5462(3) 0.4499(2) 0.7139(3)
C43 C 0.5767(4) 0.3693(2) 0.6746(3)
C44 C 0.6034(4) 0.3413(3) 0.6856(2)
H24 H 0.6181 0.3423 0.7074
C45 C 0.6083(4) 0.3117(2) 0.6642(3)
C46 C 0.5863(4) 0.3101(2) 0.6316(3)
H25 H 0.5896 0.2903 0.6172
C47 C 0.5596(4) 0.3381(3) 0.6205(2)
C48 C 0.5547(3) 0.3677(2) 0.6420(3)
H26 H 0.5368 0.3864 0.6346
N13 N 0.6581(4) 0.2802(3) 0.7065(3)
N14 N 0.6856(4) 0.2514(3) 0.7072(3)
N15 N 0.6845(4) 0.2361(3) 0.6745(3)
C49 C 0.6565(5) 0.2554(3) 0.6535(3)
H27 H 0.6497 0.2508 0.6299
C50 C 0.6402(4) 0.2827(3) 0.6733(3)
C51 C 0.7047(2) 0.2035(2) 0.6680(2)
C52 C 0.7021(3) 0.1856(2) 0.6359(2)
H28 H 0.6804 0.1920 0.6192
C53 C 0.7317(3) 0.1582(3) 0.6286(2)
H29 H 0.7300 0.1462 0.6071
C54 C 0.7641(2) 0.1486(2) 0.6535(3)
C55 C 0.7667(3) 0.1666(2) 0.6857(2)
H30 H 0.7884 0.1602 0.7023
C56 C 0.7371(3) 0.1940(2) 0.6929(2)
H31 H 0.7388 0.2060 0.7144
C57 C 0.7885(5) 0.1159(5) 0.6453(4)
C58 C 0.5371(4) 0.3354(3) 0.5842(2)
C59 C 0.5126(4) 0.3577(3) 0.5675(3)
H32 H 0.5047 0.3801 0.5754
N16 N 0.5008(4) 0.3436(3) 0.5380(3)
N17 N 0.5179(4) 0.3126(3) 0.5365(3)
N18 N 0.5405(4) 0.3076(3) 0.5651(3)
C60 C 0.4731(3) 0.3548(3) 0.5094(2)
C61 C 0.4669(3) 0.3337(2) 0.4796(3)
H33 H 0.4812 0.3119 0.4781
C62 C 0.4395(3) 0.3451(3) 0.4520(2)
H34 H 0.4353 0.3310 0.4321
C63 C 0.4182(3) 0.3777(3) 0.4542(2)
C64 C 0.4244(3) 0.3989(2) 0.4840(3)
H35 H 0.4102 0.4207 0.4855
C65 C 0.4519(3) 0.3874(3) 0.5116(2)
H36 H 0.4560 0.4015 0.5315
C66 C 0.3917(6) 0.3912(5) 0.4249(4)
Zn4 Zn 0.46319(6) 0.66911(5) 0.71367(4)
Zn5 Zn 0.39302(6) 0.61645(5) 0.65762(4)
Zn6 Zn 0.32243(8) 0.56404(5) 0.60180(5)
O15 O 0.6082(3) 0.3936(2) 0.2114(2)
O16 O 0.4641(3) 0.6171(3) 0.6549(2)
O17 O 0.8841(3) 0.82980(19) 0.3422(2)
O19 O 0.1753(2) 0.1124(2) 0.8386(2)
O20 O 0.4988(3) 0.6657(2) 0.67119(15)
O22 O 0.3998(4) 0.5625(3) 0.6483(2)
O23 O 0.3400(4) 0.5288(2) 0.6379(2)
O24 O 0.2850(5) 0.5315(3) 0.5700(3)
O25 O 0.5504(3) 0.3720(2) 0.24232(17)
O26 O 0.9113(4) 0.8011(2) 0.2954(2)
O27 O 0.2173(3) 0.1037(3) 0.8850(3)
C67 C 0.4926(6) 0.6412(4) 0.6488(3)
C68 C 0.5222(3) 0.6400(2) 0.61744(16)
C69 C 0.5504(3) 0.6680(2) 0.60908(19)
H37 H 0.5513 0.6878 0.6237
C70 C 0.5772(3) 0.6666(2) 0.5789(2)
H38 H 0.5960 0.6854 0.5733
C71 C 0.5758(3) 0.6370(3) 0.55699(17)
C72 C 0.5476(3) 0.6090(2) 0.5654(2)
H39 H 0.5466 0.5892 0.5507
C73 C 0.5208(3) 0.6104(2) 0.5956(2)
H40 H 0.5019 0.5916 0.6012
N19 N 0.6019(3) 0.6347(2) 0.52662(19)
C74 C 0.5979(4) 0.6172(3) 0.4956(2)
H41 H 0.5766 0.6000 0.4904
C75 C 0.6302(4) 0.6290(3) 0.4735(2)
N20 N 0.6541(3) 0.6539(3) 0.4908(2)
N21 N 0.6367(3) 0.6573(3) 0.5236(2)
C76 C 0.6442(3) 0.6177(2) 0.43939(17)
C77 C 0.6282(3) 0.5864(2) 0.4248(2)
H42 H 0.6086 0.5722 0.4377
C78 C 0.6414(3) 0.5764(2) 0.3908(2)
C79 C 0.6706(3) 0.5977(3) 0.37149(18)
H43 H 0.6794 0.5910 0.3488
C80 C 0.6867(3) 0.6289(2) 0.3861(2)
C81 C 0.6735(3) 0.6389(2) 0.4201(2)
H44 H 0.6842 0.6598 0.4299
C82 C 0.6260(4) 0.5409(3) 0.3760(2)
N22 N 0.5972(4) 0.5210(3) 0.3953(2)
N23 N 0.5837(3) 0.4936(3) 0.3749(2)
N24 N 0.6042(4) 0.4966(3) 0.3429(2)
C83 C 0.6304(4) 0.5258(3) 0.3436(2)
H45 H 0.6482 0.5340 0.3251
C84 C 0.6000(3) 0.4712(2) 0.31786(19)
C85 C 0.5624(3) 0.4493(2) 0.31812(19)
H46 H 0.5406 0.4520 0.3356
C86 C 0.5575(3) 0.4235(2) 0.2922(2)
H47 H 0.5323 0.4089 0.2924
C87 C 0.5900(3) 0.4195(2) 0.2660(2)
C88 C 0.6276(3) 0.4414(3) 0.2658(2)
H48 H 0.6494 0.4387 0.2482
C89 C 0.6326(3) 0.4672(2) 0.2917(2)
H49 H 0.6577 0.4818 0.2915
C90 C 0.5828(5) 0.3943(4) 0.2371(3)
C91 C 0.7174(4) 0.6510(3) 0.3650(3)
C92 C 0.7396(4) 0.6822(3) 0.3719(3)
H50 H 0.7369 0.6957 0.3924
N25 N 0.7666(4) 0.6897(3) 0.3431(3)
N26 N 0.7611(4) 0.6632(3) 0.3186(2)
N27 N 0.7307(4) 0.6393(3) 0.3320(3)
C93 C 0.7946(3) 0.7175(2) 0.3385(3)
C94 C 0.8192(4) 0.7185(2) 0.3071(2)
H51 H 0.8162 0.7005 0.2905
C95 C 0.8483(4) 0.7465(3) 0.3005(2)
H52 H 0.8647 0.7472 0.2795
C96 C 0.8528(3) 0.7734(2) 0.3253(3)
C97 C 0.8283(4) 0.7724(2) 0.3567(2)
H53 H 0.8313 0.7904 0.3733
C98 C 0.7992(3) 0.7444(3) 0.3633(2)
H54 H 0.7827 0.7437 0.3843
C99 C 0.8856(6) 0.8029(4) 0.3215(4)
C100 C 0.3768(6) 0.5353(4) 0.6538(4)
C101 C 0.3894(4) 0.5099(3) 0.6819(2)
C102 C 0.3585(3) 0.4848(3) 0.6932(3)
H55 H 0.3307 0.4829 0.6820
C103 C 0.3691(4) 0.4625(3) 0.7214(3)
H56 H 0.3484 0.4457 0.7289
C104 C 0.4106(4) 0.4653(3) 0.7382(2)
C105 C 0.4415(3) 0.4905(3) 0.7268(3)
H57 H 0.4692 0.4924 0.7381
C106 C 0.4309(3) 0.5127(3) 0.6987(3)
H58 H 0.4516 0.5295 0.6911
N28 N 0.4207(4) 0.4408(3) 0.7649(2)
C107 C 0.4044(4) 0.4106(3) 0.7760(3)
H59 H 0.3808 0.3982 0.7658
C108 C 0.4273(4) 0.4010(3) 0.8041(3)
N29 N 0.4578(3) 0.4252(3) 0.8104(2)
N30 N 0.4538(3) 0.4499(2) 0.7861(3)
C109 C 0.4233(4) 0.3693(2) 0.8254(3)
C110 C 0.3966(4) 0.3413(3) 0.8144(2)
H60 H 0.3819 0.3423 0.7926
C111 C 0.3917(4) 0.3117(2) 0.8358(3)
C112 C 0.4137(4) 0.3101(2) 0.8684(3)
H61 H 0.4104 0.2903 0.8828
C113 C 0.4404(4) 0.3381(3) 0.8795(2)
C114 C 0.4453(3) 0.3677(2) 0.8580(3)
H62 H 0.4632 0.3864 0.8654
N31 N 0.3419(4) 0.2802(3) 0.7935(3)
N32 N 0.3144(4) 0.2514(3) 0.7928(3)
N33 N 0.3155(4) 0.2361(3) 0.8255(3)
C115 C 0.3435(5) 0.2554(3) 0.8465(3)
H63 H 0.3503 0.2508 0.8701
C116 C 0.3598(4) 0.2827(3) 0.8267(3)
C117 C 0.2953(2) 0.2035(2) 0.8320(2)
C118 C 0.2979(3) 0.1856(2) 0.8641(2)
H64 H 0.3196 0.1920 0.8808
C119 C 0.2683(3) 0.1582(3) 0.8714(2)
H65 H 0.2700 0.1462 0.8929
C120 C 0.2359(2) 0.1486(2) 0.8465(3)
C121 C 0.2333(3) 0.1666(2) 0.8143(2)
H66 H 0.2116 0.1602 0.7977
C122 C 0.2629(3) 0.1940(2) 0.8071(2)
H67 H 0.2612 0.2060 0.7856
C123 C 0.2115(5) 0.1159(5) 0.8547(4)
C124 C 0.4629(4) 0.3354(3) 0.9158(2)
C125 C 0.4874(4) 0.3577(3) 0.9325(3)
H68 H 0.4953 0.3801 0.9246
N34 N 0.4992(4) 0.3436(3) 0.9620(3)
N35 N 0.4821(4) 0.3126(3) 0.9635(3)
N36 N 0.4595(4) 0.3076(3) 0.9349(3)
C126 C 0.5269(3) 0.3548(3) 0.9906(2)
C131 C 0.5481(3) 0.3874(3) 0.9884(2)
H72 H 0.5440 0.4015 0.9685
Zn8 Zn 0.53681(6) 0.33089(5) 0.21367(4)
Zn9 Zn 0.96319(6) 0.83089(5) 0.28633(4)
Zn15 Zn 0.10698(6) 0.11645(5) 0.84238(4)
Zn16 Zn 0.89302(6) 0.88355(5) 0.34238(4)
Zn17 Zn 0.89302(6) 0.11645(5) 0.65762(4)
Zn19 Zn 0.32243(8) 0.43596(5) 0.39820(5)
Zn21 Zn 0.17757(8) 0.06404(5) 0.89820(5)
Zn22 Zn 0.82243(8) 0.06404(5) 0.60180(5)
O28 O 0.6082(3) 0.6064(2) 0.7886(2)
O29 O 0.3918(3) 0.6064(2) 0.7114(2)
O30 O 0.3841(3) 0.67020(19) 0.6578(2)
O31 O 0.6159(3) 0.67020(19) 0.8422(2)
O32 O 0.6129(4) 0.6258(2) 0.8974(2)
O33 O 0.3871(4) 0.6258(2) 0.6026(2)
O34 O 0.3247(2) 0.6124(2) 0.6614(2)
O35 O 0.6753(2) 0.6124(2) 0.8386(2)
O36 O 0.6328(4) 0.5818(3) 0.9326(2)
O37 O 0.3672(4) 0.5818(3) 0.5674(2)
O38 O 0.5504(3) 0.6280(2) 0.75768(17)
O39 O 0.4496(3) 0.6280(2) 0.74232(17)
O40 O 0.4113(4) 0.6989(2) 0.7046(2)
O41 O 0.5887(4) 0.6989(2) 0.7954(2)
O42 O 0.2827(3) 0.6037(3) 0.6150(3)
O43 O 0.7173(3) 0.6037(3) 0.8850(3)
H73 H 0.259648 0.521501 0.583924
H74 H 0.272941 0.545189 0.549624
H75 H 0.740352 0.521501 0.916076
H76 H 0.727059 0.545189 0.950376
O1_2 O 0.5000 0.3024(3) 0.2500
O3_2 O 0.4641(3) 0.3829(3) 0.3451(2)
O4_2 O 0.8841(3) 0.17020(19) 0.6578(2)
O6_2 O 0.1753(2) 0.8876(2) 0.1614(2)
O7_2 O 0.4988(3) 0.3343(2) 0.32881(15)
O9_2 O 0.3998(4) 0.4375(3) 0.3517(2)
O10_2 O 0.3400(4) 0.4712(2) 0.3621(2)
O11_2 O 0.2850(5) 0.4685(3) 0.4300(3)
O13_2 O 0.9113(4) 0.1989(2) 0.7046(2)
O14_2 O 0.2173(3) 0.8963(3) 0.1150(3)
C1_2 C 0.4926(6) 0.3588(4) 0.3512(3)
C2_2 C 0.5222(3) 0.3600(2) 0.38256(16)
C3_2 C 0.5504(3) 0.3320(2) 0.39092(19)
H1_2 H 0.5513 0.3122 0.3763
C4_2 C 0.5772(3) 0.3334(2) 0.4211(2)
H2_2 H 0.5960 0.3146 0.4267
C5_2 C 0.5758(3) 0.3630(3) 0.44301(17)
C6_2 C 0.5476(3) 0.3910(2) 0.4346(2)
H3_2 H 0.5466 0.4108 0.4493
C7_2 C 0.5208(3) 0.3896(2) 0.4044(2)
H4_2 H 0.5019 0.4084 0.3988
N1_2 N 0.6019(3) 0.3653(2) 0.47338(19)
C8_2 C 0.5979(4) 0.3828(3) 0.5044(2)
H5_2 H 0.5766 0.4000 0.5096
C9_2 C 0.6302(4) 0.3710(3) 0.5265(2)
N2_2 N 0.6541(3) 0.3461(3) 0.5092(2)
N3_2 N 0.6367(3) 0.3427(3) 0.4764(2)
C10_2 C 0.6442(3) 0.3823(2) 0.56061(17)
C11_2 C 0.6282(3) 0.4136(2) 0.5752(2)
H6_2 H 0.6086 0.4278 0.5623
C12_2 C 0.6414(3) 0.4236(2) 0.6092(2)
C13_2 C 0.6706(3) 0.4023(3) 0.62851(18)
H7_2 H 0.6794 0.4090 0.6512
C14_2 C 0.6867(3) 0.3711(2) 0.6139(2)
C15_2 C 0.6735(3) 0.3611(2) 0.5799(2)
H8_2 H 0.6842 0.3402 0.5701
C16_2 C 0.6260(4) 0.4591(3) 0.6240(2)
N4_2 N 0.5972(4) 0.4790(3) 0.6047(2)
N5_2 N 0.5837(3) 0.5064(3) 0.6251(2)
N6_2 N 0.6042(4) 0.5034(3) 0.6571(2)
C17_2 C 0.6304(4) 0.4742(3) 0.6564(2)
H9_2 H 0.6482 0.4660 0.6749
C18_2 C 0.6000(3) 0.5288(2) 0.68214(19)
C19_2 C 0.5624(3) 0.5507(2) 0.68188(19)
H10_2 H 0.5406 0.5480 0.6644
C20_2 C 0.5575(3) 0.5765(2) 0.7078(2)
H11_2 H 0.5323 0.5911 0.7076
C21_2 C 0.5900(3) 0.5805(2) 0.7340(2)
C22_2 C 0.6276(3) 0.5586(3) 0.7342(2)
H12_2 H 0.6494 0.5613 0.7518
C23_2 C 0.6326(3) 0.5328(2) 0.7083(2)
H13_2 H 0.6577 0.5182 0.7085
C24_2 C 0.5828(5) 0.6057(4) 0.7629(3)
C25_2 C 0.7174(4) 0.3490(3) 0.6350(3)
C26_2 C 0.7396(4) 0.3178(3) 0.6281(3)
H14_2 H 0.7369 0.3043 0.6076
N7_2 N 0.7666(4) 0.3103(3) 0.6569(3)
N8_2 N 0.7611(4) 0.3368(3) 0.6814(2)
N9_2 N 0.7307(4) 0.3607(3) 0.6680(3)
C27_2 C 0.7946(3) 0.2825(2) 0.6615(3)
C28_2 C 0.8192(4) 0.2815(2) 0.6929(2)
H15_2 H 0.8162 0.2995 0.7095
C29_2 C 0.8483(4) 0.2535(3) 0.6995(2)
H16_2 H 0.8647 0.2528 0.7205
C30_2 C 0.8528(3) 0.2266(2) 0.6747(3)
C31_2 C 0.8283(4) 0.2276(2) 0.6433(2)
H17_2 H 0.8313 0.2096 0.6267
C32_2 C 0.7992(3) 0.2556(3) 0.6367(2)
H18_2 H 0.7827 0.2563 0.6157
C33_2 C 0.8856(6) 0.1971(4) 0.6785(4)
C34_2 C 0.3768(6) 0.4647(4) 0.3462(4)
C35_2 C 0.3894(4) 0.4901(3) 0.3181(2)
C36_2 C 0.3585(3) 0.5152(3) 0.3068(3)
H19_2 H 0.3307 0.5171 0.3180
C37_2 C 0.3691(4) 0.5375(3) 0.2786(3)
H20_2 H 0.3484 0.5543 0.2711
C38_2 C 0.4106(4) 0.5347(3) 0.2618(2)
C39_2 C 0.4415(3) 0.5095(3) 0.2732(3)
H21_2 H 0.4692 0.5076 0.2619
C40_2 C 0.4309(3) 0.4873(3) 0.3013(3)
H22_2 H 0.4516 0.4705 0.3089
N10_2 N 0.4207(4) 0.5592(3) 0.2351(2)
C41_2 C 0.4044(4) 0.5894(3) 0.2240(3)
H23_2 H 0.3808 0.6018 0.2342
C42_2 C 0.4273(4) 0.5990(3) 0.1959(3)
N11_2 N 0.4578(3) 0.5748(3) 0.1896(2)
N12_2 N 0.4538(3) 0.5501(2) 0.2139(3)
C43_2 C 0.4233(4) 0.6307(2) 0.1746(3)
C44_2 C 0.3966(4) 0.6587(3) 0.1856(2)
H24_2 H 0.3819 0.6577 0.2074
C45_2 C 0.3917(4) 0.6883(2) 0.1642(3)
C46_2 C 0.4137(4) 0.6899(2) 0.1316(3)
H25_2 H 0.4104 0.7097 0.1172
C47_2 C 0.4404(4) 0.6619(3) 0.1205(2)
C48_2 C 0.4453(3) 0.6323(2) 0.1420(3)
H26_2 H 0.4632 0.6136 0.1346
N13_2 N 0.3419(4) 0.7198(3) 0.2065(3)
N14_2 N 0.3144(4) 0.7486(3) 0.2072(3)
N15_2 N 0.3155(4) 0.7639(3) 0.1745(3)
C49_2 C 0.3435(5) 0.7446(3) 0.1535(3)
H27_2 H 0.3503 0.7492 0.1299
C50_2 C 0.3598(4) 0.7173(3) 0.1733(3)
C51_2 C 0.2953(2) 0.7965(2) 0.1680(2)
C52_2 C 0.2979(3) 0.8144(2) 0.1359(2)
H28_2 H 0.3196 0.8080 0.1192
C53_2 C 0.2683(3) 0.8418(3) 0.1286(2)
H29_2 H 0.2700 0.8538 0.1071
C54_2 C 0.2359(2) 0.8514(2) 0.1535(3)
C55_2 C 0.2333(3) 0.8334(2) 0.1857(2)
H30_2 H 0.2116 0.8398 0.2023
C56_2 C 0.2629(3) 0.8060(2) 0.1929(2)
H31_2 H 0.2612 0.7940 0.2144
C57_2 C 0.2115(5) 0.8841(5) 0.1453(4)
C58_2 C 0.4629(4) 0.6646(3) 0.0842(2)
C59_2 C 0.4874(4) 0.6423(3) 0.0675(3)
H32_2 H 0.4953 0.6199 0.0754
N16_2 N 0.4992(4) 0.6564(3) 0.0380(3)
N17_2 N 0.4821(4) 0.6874(3) 0.0365(3)
N18_2 N 0.4595(4) 0.6924(3) 0.0651(3)
C60_2 C 0.5269(3) 0.6452(3) 0.0094(2)
C65_2 C 0.5481(3) 0.6126(3) 0.0116(2)
H36_2 H 0.5440 0.5985 0.0315
O16_2 O 0.5359(3) 0.3829(3) 0.1549(2)
O19_2 O 0.8247(2) 0.8876(2) 0.3386(2)
O20_2 O 0.5012(3) 0.3343(2) 0.17119(15)
O22_2 O 0.6002(4) 0.4375(3) 0.1483(2)
O23_2 O 0.6600(4) 0.4712(2) 0.1379(2)
O24_2 O 0.7150(5) 0.4685(3) 0.0700(3)
O27_2 O 0.7827(3) 0.8963(3) 0.3850(3)
C67_2 C 0.5074(6) 0.3588(4) 0.1488(3)
C68_2 C 0.4778(3) 0.3600(2) 0.11744(16)
C69_2 C 0.4496(3) 0.3320(2) 0.10908(19)
H37_2 H 0.4487 0.3122 0.1237
C70_2 C 0.4228(3) 0.3334(2) 0.0789(2)
H38_2 H 0.4040 0.3146 0.0733
C71_2 C 0.4242(3) 0.3630(3) 0.05699(17)
C72_2 C 0.4524(3) 0.3910(2) 0.0654(2)
H39_2 H 0.4534 0.4108 0.0507
C73_2 C 0.4792(3) 0.3896(2) 0.0956(2)
H40_2 H 0.4981 0.4084 0.1012
N19_2 N 0.3981(3) 0.3653(2) 0.02662(19)
N21_2 N 0.3633(3) 0.3427(3) 0.0236(2)
C100_2 C 0.6232(6) 0.4647(4) 0.1538(4)
C101_2 C 0.6106(4) 0.4901(3) 0.1819(2)
C102_2 C 0.6415(3) 0.5152(3) 0.1932(3)
H55_2 H 0.6693 0.5171 0.1820
C103_2 C 0.6309(4) 0.5375(3) 0.2214(3)
H56_2 H 0.6516 0.5543 0.2289
C104_2 C 0.5894(4) 0.5347(3) 0.2382(2)
C105_2 C 0.5585(3) 0.5095(3) 0.2268(3)
H57_2 H 0.5308 0.5076 0.2381
C106_2 C 0.5691(3) 0.4873(3) 0.1987(3)
H58_2 H 0.5484 0.4705 0.1911
N28_2 N 0.5793(4) 0.5592(3) 0.2649(2)
C107_2 C 0.5956(4) 0.5894(3) 0.2760(3)
H59_2 H 0.6192 0.6018 0.2658
C108_2 C 0.5727(4) 0.5990(3) 0.3041(3)
N29_2 N 0.5422(3) 0.5748(3) 0.3104(2)
N30_2 N 0.5462(3) 0.5501(2) 0.2861(3)
C109_2 C 0.5767(4) 0.6307(2) 0.3254(3)
C110_2 C 0.6034(4) 0.6587(3) 0.3144(2)
H60_2 H 0.6181 0.6577 0.2926
C111_2 C 0.6083(4) 0.6883(2) 0.3358(3)
C112_2 C 0.5863(4) 0.6899(2) 0.3684(3)
H61_2 H 0.5896 0.7097 0.3828
C113_2 C 0.5596(4) 0.6619(3) 0.3795(2)
C114_2 C 0.5547(3) 0.6323(2) 0.3580(3)
H62_2 H 0.5368 0.6136 0.3654
N31_2 N 0.6581(4) 0.7198(3) 0.2935(3)
N32_2 N 0.6856(4) 0.7486(3) 0.2928(3)
N33_2 N 0.6845(4) 0.7639(3) 0.3255(3)
C115_2 C 0.6565(5) 0.7446(3) 0.3465(3)
H63_2 H 0.6497 0.7492 0.3701
C116_2 C 0.6402(4) 0.7173(3) 0.3267(3)
C117_2 C 0.7047(2) 0.7965(2) 0.3320(2)
C118_2 C 0.7021(3) 0.8144(2) 0.3641(2)
H64_2 H 0.6804 0.8080 0.3808
C119_2 C 0.7317(3) 0.8418(3) 0.3714(2)
H65_2 H 0.7300 0.8538 0.3929
C120_2 C 0.7641(2) 0.8514(2) 0.3465(3)
C121_2 C 0.7667(3) 0.8334(2) 0.3143(2)
H66_2 H 0.7884 0.8398 0.2977
C122_2 C 0.7371(3) 0.8060(2) 0.3071(2)
H67_2 H 0.7388 0.7940 0.2856
C123_2 C 0.7885(5) 0.8841(5) 0.3547(4)
C124_2 C 0.5371(4) 0.6646(3) 0.4158(2)
C125_2 C 0.5126(4) 0.6423(3) 0.4325(3)
H68_2 H 0.5047 0.6199 0.4246
N34_2 N 0.5008(4) 0.6564(3) 0.4620(3)
N35_2 N 0.5179(4) 0.6874(3) 0.4635(3)
N36_2 N 0.5405(4) 0.6924(3) 0.4349(3)
C126_2 C 0.4731(3) 0.6452(3) 0.4906(2)
C127_2 C 0.4669(3) 0.6663(2) 0.5204(3)
H69_2 H 0.4812 0.6881 0.5219
C128_2 C 0.4395(3) 0.6549(3) 0.5480(2)
H70_2 H 0.4353 0.6690 0.5679
C129_2 C 0.4182(3) 0.6223(3) 0.5458(2)
C130_2 C 0.4244(3) 0.6011(2) 0.5160(3)
H71_2 H 0.4102 0.5793 0.5145
C131_2 C 0.4519(3) 0.6126(3) 0.4884(2)
H72_2 H 0.4560 0.5985 0.4685
C132_2 C 0.3917(6) 0.6088(5) 0.5751(4)
Zn10_2 Zn 0.96319(6) 0.16911(5) 0.71367(4)
Zn21_2 Zn 0.82243(8) 0.93596(5) 0.39820(5)
Zn22_2 Zn 0.17757(8) 0.93596(5) 0.10180(5)
O30_2 O 0.6159(3) 0.32980(19) 0.1578(2)
O31_2 O 0.3841(3) 0.32980(19) 0.3422(2)
O34_2 O 0.6753(2) 0.3876(2) 0.1614(2)
O35_2 O 0.3247(2) 0.3876(2) 0.3386(2)
O40_2 O 0.5887(4) 0.3011(2) 0.2046(2)
O41_2 O 0.4113(4) 0.3011(2) 0.2954(2)
O42_2 O 0.7173(3) 0.3963(3) 0.1150(3)
O43_2 O 0.2827(3) 0.3963(3) 0.3850(3)
H73_2 H 0.740352 0.478499 0.0839239
H74_2 H 0.727059 0.454811 0.0496235
H75_2 H 0.259648 0.478499 0.416076
H76_2 H 0.272941 0.454811 0.450376
C61_2 C 0.5331(3) 0.6663(2) 0.9796(3)
H33_2 H 0.5188 0.6881 0.9781
C62_2 C 0.5605(3) 0.6549(3) 0.9520(2)
H34_2 H 0.5647 0.6690 0.9321
C63_2 C 0.5818(3) 0.6223(3) 0.9542(2)
C64_2 C 0.5756(3) 0.6011(2) 0.9840(3)
H35_2 H 0.5898 0.5793 0.9855
C66_2 C 0.6083(6) 0.6088(5) 0.9249(4)
O17_2 O 0.1159(3) 0.17020(19) 0.8422(2)
O26_2 O 0.0887(4) 0.1989(2) 0.7954(2)
C74_2 C 0.4021(4) 0.3828(3) 0.9956(2)
H41_2 H 0.4234 0.4000 0.9904
C75_2 C 0.3698(4) 0.3710(3) 0.9735(2)
N20_2 N 0.3459(3) 0.3461(3) 0.9908(2)
C76_2 C 0.3558(3) 0.3823(2) 0.93939(17)
C77_2 C 0.3718(3) 0.4136(2) 0.9248(2)
H42_2 H 0.3914 0.4278 0.9377
C78_2 C 0.3586(3) 0.4236(2) 0.8908(2)
C79_2 C 0.3294(3) 0.4023(3) 0.87149(18)
H43_2 H 0.3206 0.4090 0.8488
C80_2 C 0.3133(3) 0.3711(2) 0.8861(2)
C81_2 C 0.3265(3) 0.3611(2) 0.9201(2)
H44_2 H 0.3158 0.3402 0.9299
C82_2 C 0.3740(4) 0.4591(3) 0.8760(2)
N22_2 N 0.4028(4) 0.4790(3) 0.8953(2)
N23_2 N 0.4163(3) 0.5064(3) 0.8749(2)
N24_2 N 0.3958(4) 0.5034(3) 0.8429(2)
C83_2 C 0.3696(4) 0.4742(3) 0.8436(2)
H45_2 H 0.3518 0.4660 0.8251
C84_2 C 0.4000(3) 0.5288(2) 0.81786(19)
C85_2 C 0.4376(3) 0.5507(2) 0.81812(19)
H46_2 H 0.4594 0.5480 0.8356
C86_2 C 0.4425(3) 0.5765(2) 0.7922(2)
H47_2 H 0.4677 0.5911 0.7924
C87_2 C 0.4100(3) 0.5805(2) 0.7660(2)
C88_2 C 0.3724(3) 0.5586(3) 0.7658(2)
H48_2 H 0.3506 0.5613 0.7482
C89_2 C 0.3674(3) 0.5328(2) 0.7917(2)
H49_2 H 0.3423 0.5182 0.7915
C90_2 C 0.4172(5) 0.6057(4) 0.7371(3)
C91_2 C 0.2826(4) 0.3490(3) 0.8650(3)
C92_2 C 0.2604(4) 0.3178(3) 0.8719(3)
H50_2 H 0.2631 0.3043 0.8924
N25_2 N 0.2334(4) 0.3103(3) 0.8431(3)
N26_2 N 0.2389(4) 0.3368(3) 0.8186(2)
N27_2 N 0.2693(4) 0.3607(3) 0.8320(3)
C93_2 C 0.2054(3) 0.2825(2) 0.8385(3)
C94_2 C 0.1808(4) 0.2815(2) 0.8071(2)
H51_2 H 0.1838 0.2995 0.7905
C95_2 C 0.1517(4) 0.2535(3) 0.8005(2)
H52_2 H 0.1353 0.2528 0.7795
C96_2 C 0.1472(3) 0.2266(2) 0.8253(3)
C97_2 C 0.1717(4) 0.2276(2) 0.8567(2)
H53_2 H 0.1687 0.2096 0.8733
C98_2 C 0.2008(3) 0.2556(3) 0.8633(2)
H54_2 H 0.2173 0.2563 0.8843
C99_2 C 0.1144(6) 0.1971(4) 0.8215(4)
Zn9_2 Zn 0.03681(6) 0.16911(5) 0.78633(4)
O1_3 O 0.0000 0.1976(3) 0.7500
O3_3 O 0.0359(3) 0.1171(3) 0.8451(2)
O7_3 O 0.0012(3) 0.1657(2) 0.82881(15)
O9_3 O 0.1002(4) 0.0625(3) 0.8517(2)
O10_3 O 0.1600(4) 0.0288(2) 0.8621(2)
O11_3 O 0.2150(5) 0.0315(3) 0.9300(3)
C1_3 C 0.0074(6) 0.1412(4) 0.8512(3)
C34_3 C 0.1232(6) 0.0353(4) 0.8462(4)
C35_3 C 0.1106(4) 0.0099(3) 0.8181(2)
C40_3 C 0.0691(3) 0.0127(3) 0.8013(3)
H22_3 H 0.0484 0.0295 0.8089
C68_3 C 0.0222(3) 0.1400(2) 0.61744(16)
C69_3 C 0.0504(3) 0.1680(2) 0.60908(19)
H37_3 H 0.0513 0.1878 0.6237
C70_3 C 0.0772(3) 0.1666(2) 0.5789(2)
H38_3 H 0.0960 0.1854 0.5733
C71_3 C 0.0758(3) 0.1370(3) 0.55699(17)
C72_3 C 0.0476(3) 0.1090(2) 0.5654(2)
H39_3 H 0.0466 0.0892 0.5507
C73_3 C 0.0208(3) 0.1104(2) 0.5956(2)
H40_3 H 0.0019 0.0916 0.6012
N19_3 N 0.1019(3) 0.1347(2) 0.52662(19)
C74_3 C 0.0979(4) 0.1172(3) 0.4956(2)
H41_3 H 0.0766 0.1000 0.4904
C75_3 C 0.1302(4) 0.1290(3) 0.4735(2)
N20_3 N 0.1541(3) 0.1539(3) 0.4908(2)
N21_3 N 0.1367(3) 0.1573(3) 0.5236(2)
C76_3 C 0.1442(3) 0.1177(2) 0.43939(17)
C77_3 C 0.1282(3) 0.0864(2) 0.4248(2)
H42_3 H 0.1086 0.0722 0.4377
C78_3 C 0.1414(3) 0.0764(2) 0.3908(2)
C79_3 C 0.1706(3) 0.0977(3) 0.37149(18)
H43_3 H 0.1794 0.0910 0.3488
C80_3 C 0.1867(3) 0.1289(2) 0.3861(2)
C81_3 C 0.1735(3) 0.1389(2) 0.4201(2)
H44_3 H 0.1842 0.1598 0.4299
C82_3 C 0.1260(4) 0.0409(3) 0.3760(2)
N22_3 N 0.0972(4) 0.0210(3) 0.3953(2)
C83_3 C 0.1304(4) 0.0258(3) 0.3436(2)
H45_3 H 0.1482 0.0340 0.3251
C91_3 C 0.2174(4) 0.1510(3) 0.3650(3)
C92_3 C 0.2396(4) 0.1822(3) 0.3719(3)
H50_3 H 0.2369 0.1957 0.3924
N25_3 N 0.2666(4) 0.1897(3) 0.3431(3)
N26_3 N 0.2611(4) 0.1632(3) 0.3186(2)
N27_3 N 0.2307(4) 0.1393(3) 0.3320(3)
C93_3 C 0.2946(3) 0.2175(2) 0.3385(3)
C94_3 C 0.3192(4) 0.2185(2) 0.3071(2)
H51_3 H 0.3162 0.2005 0.2905
C95_3 C 0.3483(4) 0.2465(3) 0.3005(2)
H52_3 H 0.3647 0.2472 0.2795
C96_3 C 0.3528(3) 0.2734(2) 0.3253(3)
C97_3 C 0.3283(4) 0.2724(2) 0.3567(2)
H53_3 H 0.3313 0.2904 0.3733
C98_3 C 0.2992(3) 0.2444(3) 0.3633(2)
H54_3 H 0.2827 0.2437 0.3843
C99_3 C 0.3856(6) 0.3029(4) 0.3215(4)
O28_2 O 0.1082(3) 0.1064(2) 0.7886(2)
O32_2 O 0.1129(4) 0.1258(2) 0.8974(2)
O36_2 O 0.1328(4) 0.0818(3) 0.9326(2)
O38_2 O 0.0504(3) 0.1280(2) 0.75768(17)
H75_3 H 0.240352 0.0215011 0.916076
H76_3 H 0.227059 0.0451894 0.950376
O18_2 O 0.1129(4) 0.8742(2) 0.1026(2)
O21_2 O 0.1328(4) 0.9182(3) 0.0674(2)
C127_3 C 0.0331(3) 0.8337(2) 0.0204(3)
H69_3 H 0.0188 0.8119 0.0219
C128_3 C 0.0605(3) 0.8451(3) 0.0480(2)
H70_3 H 0.0647 0.8310 0.0679
C129_3 C 0.0818(3) 0.8777(3) 0.0458(2)
C130_3 C 0.0756(3) 0.8989(2) 0.0160(3)
H71_3 H 0.0898 0.9207 0.0145
C132_3 C 0.1083(6) 0.8912(5) 0.0751(4)
C36_3 C 0.1415(3) 0.9848(3) 0.8068(3)
H19_3 H 0.1693 0.9829 0.8180
C37_3 C 0.1309(4) 0.9625(3) 0.7786(3)
H20_3 H 0.1516 0.9457 0.7711
C38_3 C 0.0894(4) 0.9653(3) 0.7618(2)
C39_3 C 0.0585(3) 0.9905(3) 0.7732(3)
H21_3 H 0.0308 0.9924 0.7619
N10_3 N 0.0793(4) 0.9408(3) 0.7351(2)
C41_3 C 0.0956(4) 0.9106(3) 0.7240(3)
H23_3 H 0.1192 0.8982 0.7342
C42_3 C 0.0727(4) 0.9010(3) 0.6959(3)
N11_3 N 0.0422(3) 0.9252(3) 0.6896(2)
N12_3 N 0.0462(3) 0.9499(2) 0.7139(3)
C43_3 C 0.0767(4) 0.8693(2) 0.6746(3)
C44_3 C 0.1034(4) 0.8413(3) 0.6856(2)
H24_3 H 0.1181 0.8423 0.7074
C45_3 C 0.1083(4) 0.8117(2) 0.6642(3)
C46_3 C 0.0863(4) 0.8101(2) 0.6316(3)
H25_3 H 0.0896 0.7903 0.6172
C47_3 C 0.0596(4) 0.8381(3) 0.6205(2)
C48_3 C 0.0547(3) 0.8677(2) 0.6420(3)
H26_3 H 0.0368 0.8864 0.6346
N13_3 N 0.1581(4) 0.7802(3) 0.7065(3)
N14_3 N 0.1856(4) 0.7514(3) 0.7072(3)
N15_3 N 0.1845(4) 0.7361(3) 0.6745(3)
C49_3 C 0.1565(5) 0.7554(3) 0.6535(3)
H27_3 H 0.1497 0.7508 0.6299
C50_3 C 0.1402(4) 0.7827(3) 0.6733(3)
C51_3 C 0.2047(2) 0.7035(2) 0.6680(2)
C52_3 C 0.2021(3) 0.6856(2) 0.6359(2)
H28_3 H 0.1804 0.6920 0.6192
C53_3 C 0.2317(3) 0.6582(3) 0.6286(2)
H29_3 H 0.2300 0.6462 0.6071
C54_3 C 0.2641(2) 0.6486(2) 0.6535(3)
C55_3 C 0.2667(3) 0.6666(2) 0.6857(2)
H30_3 H 0.2884 0.6602 0.7023
C56_3 C 0.2371(3) 0.6940(2) 0.6929(2)
H31_3 H 0.2388 0.7060 0.7144
C57_3 C 0.2885(5) 0.6159(5) 0.6453(4)
C58_3 C 0.0371(4) 0.8354(3) 0.5842(2)
C59_3 C 0.0126(4) 0.8577(3) 0.5675(3)
H32_3 H 0.0047 0.8801 0.5754
N16_3 N 0.0008(4) 0.8436(3) 0.5380(3)
N17_3 N 0.0179(4) 0.8126(3) 0.5365(3)
N18_3 N 0.0405(4) 0.8076(3) 0.5651(3)
O15_2 O 0.1082(3) 0.8936(2) 0.2114(2)
O25_2 O 0.0504(3) 0.8720(2) 0.24232(17)
N23_3 N 0.0837(3) 0.9936(3) 0.3749(2)
N24_3 N 0.1042(4) 0.9966(3) 0.3429(2)
C84_3 C 0.1000(3) 0.9712(2) 0.31786(19)
C85_3 C 0.0624(3) 0.9493(2) 0.31812(19)
H46_3 H 0.0406 0.9520 0.3356
C86_3 C 0.0575(3) 0.9235(2) 0.2922(2)
H47_3 H 0.0323 0.9089 0.2924
C87_3 C 0.0900(3) 0.9195(2) 0.2660(2)
C88_3 C 0.1276(3) 0.9414(3) 0.2658(2)
H48_3 H 0.1494 0.9387 0.2482
C89_3 C 0.1326(3) 0.9672(2) 0.2917(2)
H49_3 H 0.1577 0.9818 0.2915
C90_3 C 0.0828(5) 0.8943(4) 0.2371(3)
C126_3 C 0.0269(3) 0.8548(3) 0.9906(2)
C131_3 C 0.0481(3) 0.8874(3) 0.9884(2)
H72_3 H 0.0440 0.9015 0.9685
C8_3 C 0.9021(4) 0.1172(3) 0.0044(2)
H5_3 H 0.9234 0.1000 0.0096
C9_3 C 0.8698(4) 0.1290(3) 0.0265(2)
N2_3 N 0.8459(3) 0.1539(3) 0.0092(2)
C10_3 C 0.8558(3) 0.1177(2) 0.06061(17)
C11_3 C 0.8718(3) 0.0864(2) 0.0752(2)
H6_3 H 0.8914 0.0722 0.0623
C12_3 C 0.8586(3) 0.0764(2) 0.1092(2)
C13_3 C 0.8294(3) 0.0977(3) 0.12851(18)
H7_3 H 0.8206 0.0910 0.1512
C14_3 C 0.8133(3) 0.1289(2) 0.1139(2)
C15_3 C 0.8265(3) 0.1389(2) 0.0799(2)
H8_3 H 0.8158 0.1598 0.0701
C16_3 C 0.8740(4) 0.0409(3) 0.1240(2)
N4_3 N 0.9028(4) 0.0210(3) 0.1047(2)
C17_3 C 0.8696(4) 0.0258(3) 0.1564(2)
H9_3 H 0.8518 0.0340 0.1749
C25_3 C 0.7826(4) 0.1510(3) 0.1350(3)
C26_3 C 0.7604(4) 0.1822(3) 0.1281(3)
H14_3 H 0.7631 0.1957 0.1076
N7_3 N 0.7334(4) 0.1897(3) 0.1569(3)
N8_3 N 0.7389(4) 0.1632(3) 0.1814(2)
N9_3 N 0.7693(4) 0.1393(3) 0.1680(3)
C27_3 C 0.7054(3) 0.2175(2) 0.1615(3)
C28_3 C 0.6808(4) 0.2185(2) 0.1929(2)
H15_3 H 0.6838 0.2005 0.2095
C29_3 C 0.6517(4) 0.2465(3) 0.1995(2)
H16_3 H 0.6353 0.2472 0.2205
C30_3 C 0.6472(3) 0.2734(2) 0.1747(3)
C31_3 C 0.6717(4) 0.2724(2) 0.1433(2)
H17_3 H 0.6687 0.2904 0.1267
C32_3 C 0.7008(3) 0.2444(3) 0.1367(2)
H18_3 H 0.7173 0.2437 0.1157
C33_3 C 0.6144(6) 0.3029(4) 0.1785(4)
O1_4 O 1.0000 0.1976(3) 0.7500
C2_3 C 0.9778(3) 0.1400(2) 0.88256(16)
C3_3 C 0.9496(3) 0.1680(2) 0.89092(19)
H1_3 H 0.9487 0.1878 0.8763
C4_3 C 0.9228(3) 0.1666(2) 0.9211(2)
H2_3 H 0.9040 0.1854 0.9267
C5_3 C 0.9242(3) 0.1370(3) 0.94301(17)
C6_3 C 0.9524(3) 0.1090(2) 0.9346(2)
H3_3 H 0.9534 0.0892 0.9493
C7_3 C 0.9792(3) 0.1104(2) 0.9044(2)
H4_3 H 0.9981 0.0916 0.8988
N1_3 N 0.8981(3) 0.1347(2) 0.97338(19)
N3_3 N 0.8633(3) 0.1573(3) 0.9764(2)
O16_3 O 0.9641(3) 0.1171(3) 0.6549(2)
O20_3 O 0.9988(3) 0.1657(2) 0.67119(15)
O22_3 O 0.8998(4) 0.0625(3) 0.6483(2)
O23_3 O 0.8400(4) 0.0288(2) 0.6379(2)
O24_3 O 0.7850(5) 0.0315(3) 0.5700(3)
C67_3 C 0.9926(6) 0.1412(4) 0.6488(3)
C100_3 C 0.8768(6) 0.0353(4) 0.6538(4)
C101_3 C 0.8894(4) 0.0099(3) 0.6819(2)
C106_3 C 0.9309(3) 0.0127(3) 0.6987(3)
H58_3 H 0.9516 0.0295 0.6911
O29_2 O 0.8918(3) 0.1064(2) 0.7114(2)
O33_2 O 0.8871(4) 0.1258(2) 0.6026(2)
O37_2 O 0.8672(4) 0.0818(3) 0.5674(2)
O39_2 O 0.9496(3) 0.1280(2) 0.74232(17)
H73_3 H 0.759648 0.0215011 0.583924
H74_3 H 0.772941 0.0451894 0.549624
O2_2 O 0.8918(3) 0.8936(2) 0.2886(2)
O12_2 O 0.9496(3) 0.8720(2) 0.25768(17)
N5_3 N 0.9163(3) 0.9936(3) 0.1251(2)
N6_3 N 0.8958(4) 0.9966(3) 0.1571(2)
C18_3 C 0.9000(3) 0.9712(2) 0.18214(19)
C19_3 C 0.9376(3) 0.9493(2) 0.18188(19)
H10_3 H 0.9594 0.9520 0.1644
C20_3 C 0.9425(3) 0.9235(2) 0.2078(2)
H11_3 H 0.9677 0.9089 0.2076
C21_3 C 0.9100(3) 0.9195(2) 0.2340(2)
C22_3 C 0.8724(3) 0.9414(3) 0.2342(2)
H12_3 H 0.8506 0.9387 0.2518
C23_3 C 0.8674(3) 0.9672(2) 0.2083(2)
H13_3 H 0.8423 0.9818 0.2085
C24_3 C 0.9172(5) 0.8943(4) 0.2629(3)
O5_2 O 0.8871(4) 0.8742(2) 0.3974(2)
O8_2 O 0.8672(4) 0.9182(3) 0.4326(2)
C60_3 C 0.9731(3) 0.8548(3) 0.5094(2)
C61_3 C 0.9669(3) 0.8337(2) 0.4796(3)
H33_3 H 0.9812 0.8119 0.4781
C62_3 C 0.9395(3) 0.8451(3) 0.4520(2)
H34_3 H 0.9353 0.8310 0.4321
C63_3 C 0.9182(3) 0.8777(3) 0.4542(2)
C64_3 C 0.9244(3) 0.8989(2) 0.4840(3)
H35_3 H 0.9102 0.9207 0.4855
C65_3 C 0.9519(3) 0.8874(3) 0.5116(2)
H36_3 H 0.9560 0.9015 0.5315
C66_3 C 0.8917(6) 0.8912(5) 0.4249(4)
C102_3 C 0.8585(3) 0.9848(3) 0.6932(3)
H55_3 H 0.8307 0.9829 0.6820
C103_3 C 0.8691(4) 0.9625(3) 0.7214(3)
H56_3 H 0.8484 0.9457 0.7289
C104_3 C 0.9106(4) 0.9653(3) 0.7382(2)
C105_3 C 0.9415(3) 0.9905(3) 0.7268(3)
H57_3 H 0.9692 0.9924 0.7381
N28_3 N 0.9207(4) 0.9408(3) 0.7649(2)
C107_3 C 0.9044(4) 0.9106(3) 0.7760(3)
H59_3 H 0.8808 0.8982 0.7658
C108_3 C 0.9273(4) 0.9010(3) 0.8041(3)
N29_3 N 0.9578(3) 0.9252(3) 0.8104(2)
N30_3 N 0.9538(3) 0.9499(2) 0.7861(3)
C109_3 C 0.9233(4) 0.8693(2) 0.8254(3)
C110_3 C 0.8966(4) 0.8413(3) 0.8144(2)
H60_3 H 0.8819 0.8423 0.7926
C111_3 C 0.8917(4) 0.8117(2) 0.8358(3)
C112_3 C 0.9137(4) 0.8101(2) 0.8684(3)
H61_3 H 0.9104 0.7903 0.8828
C113_3 C 0.9404(4) 0.8381(3) 0.8795(2)
C114_3 C 0.9453(3) 0.8677(2) 0.8580(3)
H62_3 H 0.9632 0.8864 0.8654
N31_3 N 0.8419(4) 0.7802(3) 0.7935(3)
N32_3 N 0.8144(4) 0.7514(3) 0.7928(3)
N33_3 N 0.8155(4) 0.7361(3) 0.8255(3)
C115_3 C 0.8435(5) 0.7554(3) 0.8465(3)
H63_3 H 0.8503 0.7508 0.8701
C116_3 C 0.8598(4) 0.7827(3) 0.8267(3)
C117_3 C 0.7953(2) 0.7035(2) 0.8320(2)
C118_3 C 0.7979(3) 0.6856(2) 0.8641(2)
H64_3 H 0.8196 0.6920 0.8808
C119_3 C 0.7683(3) 0.6582(3) 0.8714(2)
H65_3 H 0.7700 0.6462 0.8929
C120_3 C 0.7359(2) 0.6486(2) 0.8465(3)
C121_3 C 0.7333(3) 0.6666(2) 0.8143(2)
H66_3 H 0.7116 0.6602 0.7977
C122_3 C 0.7629(3) 0.6940(2) 0.8071(2)
H67_3 H 0.7612 0.7060 0.7856
C123_3 C 0.7115(5) 0.6159(5) 0.8547(4)
C124_3 C 0.9629(4) 0.8354(3) 0.9158(2)
C125_3 C 0.9874(4) 0.8577(3) 0.9325(3)
H68_3 H 0.9953 0.8801 0.9246
N34_3 N 0.9992(4) 0.8436(3) 0.9620(3)
N35_3 N 0.9821(4) 0.8126(3) 0.9635(3)
N36_3 N 0.9595(4) 0.8076(3) 0.9349(3)
N5_4 N 0.0837(3) 0.0064(3) 0.6251(2)
N6_4 N 0.1042(4) 0.0034(3) 0.6571(2)
C18_4 C 0.1000(3) 0.0288(2) 0.68214(19)
C19_4 C 0.0624(3) 0.0507(2) 0.68188(19)
H10_4 H 0.0406 0.0480 0.6644
C20_4 C 0.0575(3) 0.0765(2) 0.7078(2)
H11_4 H 0.0323 0.0911 0.7076
C21_4 C 0.0900(3) 0.0805(2) 0.7340(2)
C22_4 C 0.1276(3) 0.0586(3) 0.7342(2)
H12_4 H 0.1494 0.0613 0.7518
C23_4 C 0.1326(3) 0.0328(2) 0.7083(2)
H13_4 H 0.1577 0.0182 0.7085
C24_4 C 0.0828(5) 0.1057(4) 0.7629(3)
C60_4 C 0.0269(3) 0.1452(3) 0.0094(2)
C65_4 C 0.0481(3) 0.1126(3) 0.0116(2)
H36_4 H 0.0440 0.0985 0.0315
C102_4 C 0.1415(3) 0.0152(3) 0.1932(3)
H55_4 H 0.1693 0.0171 0.1820
C103_4 C 0.1309(4) 0.0375(3) 0.2214(3)
H56_4 H 0.1516 0.0543 0.2289
C104_4 C 0.0894(4) 0.0347(3) 0.2382(2)
C105_4 C 0.0585(3) 0.0095(3) 0.2268(3)
H57_4 H 0.0308 0.0076 0.2381
N28_4 N 0.0793(4) 0.0592(3) 0.2649(2)
C107_4 C 0.0956(4) 0.0894(3) 0.2760(3)
H59_4 H 0.1192 0.1018 0.2658
C108_4 C 0.0727(4) 0.0990(3) 0.3041(3)
N29_4 N 0.0422(3) 0.0748(3) 0.3104(2)
N30_4 N 0.0462(3) 0.0501(2) 0.2861(3)
C109_4 C 0.0767(4) 0.1307(2) 0.3254(3)
C110_4 C 0.1034(4) 0.1587(3) 0.3144(2)
H60_4 H 0.1181 0.1577 0.2926
C111_4 C 0.1083(4) 0.1883(2) 0.3358(3)
C112_4 C 0.0863(4) 0.1899(2) 0.3684(3)
H61_4 H 0.0896 0.2097 0.3828
C113_4 C 0.0596(4) 0.1619(3) 0.3795(2)
C114_4 C 0.0547(3) 0.1323(2) 0.3580(3)
H62_4 H 0.0368 0.1136 0.3654
N31_4 N 0.1581(4) 0.2198(3) 0.2935(3)
N32_4 N 0.1856(4) 0.2486(3) 0.2928(3)
N33_4 N 0.1845(4) 0.2639(3) 0.3255(3)
C115_4 C 0.1565(5) 0.2446(3) 0.3465(3)
H63_4 H 0.1497 0.2492 0.3701
C116_4 C 0.1402(4) 0.2173(3) 0.3267(3)
C117_4 C 0.2047(2) 0.2965(2) 0.3320(2)
C118_4 C 0.2021(3) 0.3144(2) 0.3641(2)
H64_4 H 0.1804 0.3080 0.3808
C119_4 C 0.2317(3) 0.3418(3) 0.3714(2)
H65_4 H 0.2300 0.3538 0.3929
C120_4 C 0.2641(2) 0.3514(2) 0.3465(3)
C121_4 C 0.2667(3) 0.3334(2) 0.3143(2)
H66_4 H 0.2884 0.3398 0.2977
C122_4 C 0.2371(3) 0.3060(2) 0.3071(2)
H67_4 H 0.2388 0.2940 0.2856
C123_4 C 0.2885(5) 0.3841(5) 0.3547(4)
C124_4 C 0.0371(4) 0.1646(3) 0.4158(2)
C125_4 C 0.0126(4) 0.1423(3) 0.4325(3)
H68_4 H 0.0047 0.1199 0.4246
N34_4 N 0.0008(4) 0.1564(3) 0.4620(3)
N35_4 N 0.0179(4) 0.1874(3) 0.4635(3)
N36_4 N 0.0405(4) 0.1924(3) 0.4349(3)
C61_4 C 0.0331(3) 0.1663(2) 0.9796(3)
H33_4 H 0.0188 0.1881 0.9781
C62_4 C 0.0605(3) 0.1549(3) 0.9520(2)
H34_4 H 0.0647 0.1690 0.9321
C63_4 C 0.0818(3) 0.1223(3) 0.9542(2)
C64_4 C 0.0756(3) 0.1011(2) 0.9840(3)
H35_4 H 0.0898 0.0793 0.9855
C66_4 C 0.1083(6) 0.1088(5) 0.9249(4)
O1_5 O 0.0000 0.8024(3) 0.2500
C2_4 C 0.0222(3) 0.8600(2) 0.38256(16)
C3_4 C 0.0504(3) 0.8320(2) 0.39092(19)
H1_4 H 0.0513 0.8122 0.3763
C4_4 C 0.0772(3) 0.8334(2) 0.4211(2)
H2_4 H 0.0960 0.8146 0.4267
C5_4 C 0.0758(3) 0.8630(3) 0.44301(17)
C6_4 C 0.0476(3) 0.8910(2) 0.4346(2)
H3_4 H 0.0466 0.9108 0.4493
C7_4 C 0.0208(3) 0.8896(2) 0.4044(2)
H4_4 H 0.0019 0.9084 0.3988
N1_4 N 0.1019(3) 0.8653(2) 0.47338(19)
C8_4 C 0.0979(4) 0.8828(3) 0.5044(2)
H5_4 H 0.0766 0.9000 0.5096
C9_4 C 0.1302(4) 0.8710(3) 0.5265(2)
N2_4 N 0.1541(3) 0.8461(3) 0.5092(2)
N3_4 N 0.1367(3) 0.8427(3) 0.4764(2)
C10_4 C 0.1442(3) 0.8823(2) 0.56061(17)
C11_4 C 0.1282(3) 0.9136(2) 0.5752(2)
H6_4 H 0.1086 0.9278 0.5623
C12_4 C 0.1414(3) 0.9236(2) 0.6092(2)
C13_4 C 0.1706(3) 0.9023(3) 0.62851(18)
H7_4 H 0.1794 0.9090 0.6512
C14_4 C 0.1867(3) 0.8711(2) 0.6139(2)
C15_4 C 0.1735(3) 0.8611(2) 0.5799(2)
H8_4 H 0.1842 0.8402 0.5701
C16_4 C 0.1260(4) 0.9591(3) 0.6240(2)
N4_4 N 0.0972(4) 0.9790(3) 0.6047(2)
C17_4 C 0.1304(4) 0.9742(3) 0.6564(2)
H9_4 H 0.1482 0.9660 0.6749
C25_4 C 0.2174(4) 0.8490(3) 0.6350(3)
C26_4 C 0.2396(4) 0.8178(3) 0.6281(3)
H14_4 H 0.2369 0.8043 0.6076
N7_4 N 0.2666(4) 0.8103(3) 0.6569(3)
N8_4 N 0.2611(4) 0.8368(3) 0.6814(2)
N9_4 N 0.2307(4) 0.8607(3) 0.6680(3)
C27_4 C 0.2946(3) 0.7825(2) 0.6615(3)
C28_4 C 0.3192(4) 0.7815(2) 0.6929(2)
H15_4 H 0.3162 0.7995 0.7095
C29_4 C 0.3483(4) 0.7535(3) 0.6995(2)
H16_4 H 0.3647 0.7528 0.7205
C30_4 C 0.3528(3) 0.7266(2) 0.6747(3)
C31_4 C 0.3283(4) 0.7276(2) 0.6433(2)
H17_4 H 0.3313 0.7096 0.6267
C32_4 C 0.2992(3) 0.7556(3) 0.6367(2)
H18_4 H 0.2827 0.7563 0.6157
C33_4 C 0.3856(6) 0.6971(4) 0.6785(4)
O16_4 O 0.0359(3) 0.8829(3) 0.1549(2)
O20_4 O 0.0012(3) 0.8343(2) 0.17119(15)
O22_4 O 0.1002(4) 0.9375(3) 0.1483(2)
O23_4 O 0.1600(4) 0.9712(2) 0.1379(2)
O24_4 O 0.2150(5) 0.9685(3) 0.0700(3)
C67_4 C 0.0074(6) 0.8588(4) 0.1488(3)
C100_4 C 0.1232(6) 0.9647(4) 0.1538(4)
C101_4 C 0.1106(4) 0.9901(3) 0.1819(2)
C106_4 C 0.0691(3) 0.9873(3) 0.1987(3)
H58_4 H 0.0484 0.9705 0.1911
H73_4 H 0.240352 0.978499 0.0839239
H74_4 H 0.227059 0.954811 0.0496235
C36_4 C 0.8585(3) 0.0152(3) 0.3068(3)
H19_4 H 0.8307 0.0171 0.3180
C37_4 C 0.8691(4) 0.0375(3) 0.2786(3)
H20_4 H 0.8484 0.0543 0.2711
C38_4 C 0.9106(4) 0.0347(3) 0.2618(2)
C39_4 C 0.9415(3) 0.0095(3) 0.2732(3)
H21_4 H 0.9692 0.0076 0.2619
N10_4 N 0.9207(4) 0.0592(3) 0.2351(2)
C41_4 C 0.9044(4) 0.0894(3) 0.2240(3)
H23_4 H 0.8808 0.1018 0.2342
C42_4 C 0.9273(4) 0.0990(3) 0.1959(3)
N11_4 N 0.9578(3) 0.0748(3) 0.1896(2)
N12_4 N 0.9538(3) 0.0501(2) 0.2139(3)
C43_4 C 0.9233(4) 0.1307(2) 0.1746(3)
C44_4 C 0.8966(4) 0.1587(3) 0.1856(2)
H24_4 H 0.8819 0.1577 0.2074
C45_4 C 0.8917(4) 0.1883(2) 0.1642(3)
C46_4 C 0.9137(4) 0.1899(2) 0.1316(3)
H25_4 H 0.9104 0.2097 0.1172
C47_4 C 0.9404(4) 0.1619(3) 0.1205(2)
C48_4 C 0.9453(3) 0.1323(2) 0.1420(3)
H26_4 H 0.9632 0.1136 0.1346
N13_4 N 0.8419(4) 0.2198(3) 0.2065(3)
N14_4 N 0.8144(4) 0.2486(3) 0.2072(3)
N15_4 N 0.8155(4) 0.2639(3) 0.1745(3)
C49_4 C 0.8435(5) 0.2446(3) 0.1535(3)
H27_4 H 0.8503 0.2492 0.1299
C50_4 C 0.8598(4) 0.2173(3) 0.1733(3)
C51_4 C 0.7953(2) 0.2965(2) 0.1680(2)
C52_4 C 0.7979(3) 0.3144(2) 0.1359(2)
H28_4 H 0.8196 0.3080 0.1192
C53_4 C 0.7683(3) 0.3418(3) 0.1286(2)
H29_4 H 0.7700 0.3538 0.1071
C54_4 C 0.7359(2) 0.3514(2) 0.1535(3)
C55_4 C 0.7333(3) 0.3334(2) 0.1857(2)
H30_4 H 0.7116 0.3398 0.2023
C56_4 C 0.7629(3) 0.3060(2) 0.1929(2)
H31_4 H 0.7612 0.2940 0.2144
C57_4 C 0.7115(5) 0.3841(5) 0.1453(4)
C58_4 C 0.9629(4) 0.1646(3) 0.0842(2)
C59_4 C 0.9874(4) 0.1423(3) 0.0675(3)
H32_4 H 0.9953 0.1199 0.0754
N16_4 N 0.9992(4) 0.1564(3) 0.0380(3)
N17_4 N 0.9821(4) 0.1874(3) 0.0365(3)
N18_4 N 0.9595(4) 0.1924(3) 0.0651(3)
C126_4 C 0.9731(3) 0.1452(3) 0.4906(2)
C127_4 C 0.9669(3) 0.1663(2) 0.5204(3)
H69_4 H 0.9812 0.1881 0.5219
C128_4 C 0.9395(3) 0.1549(3) 0.5480(2)
H70_4 H 0.9353 0.1690 0.5679
C129_4 C 0.9182(3) 0.1223(3) 0.5458(2)
C130_4 C 0.9244(3) 0.1011(2) 0.5160(3)
H71_4 H 0.9102 0.0793 0.5145
C131_4 C 0.9519(3) 0.1126(3) 0.4884(2)
H72_4 H 0.9560 0.0985 0.4685
C132_4 C 0.8917(6) 0.1088(5) 0.5751(4)
N23_4 N 0.9163(3) 0.0064(3) 0.8749(2)
N24_4 N 0.8958(4) 0.0034(3) 0.8429(2)
C84_4 C 0.9000(3) 0.0288(2) 0.81786(19)
C85_4 C 0.9376(3) 0.0507(2) 0.81812(19)
H46_4 H 0.9594 0.0480 0.8356
C86_4 C 0.9425(3) 0.0765(2) 0.7922(2)
H47_4 H 0.9677 0.0911 0.7924
C87_4 C 0.9100(3) 0.0805(2) 0.7660(2)
C88_4 C 0.8724(3) 0.0586(3) 0.7658(2)
H48_4 H 0.8506 0.0613 0.7482
C89_4 C 0.8674(3) 0.0328(2) 0.7917(2)
H49_4 H 0.8423 0.0182 0.7915
C90_4 C 0.9172(5) 0.1057(4) 0.7371(3)
O1_6 O 1.0000 0.8024(3) 0.2500
O3_4 O 0.9641(3) 0.8829(3) 0.3451(2)
O7_4 O 0.9988(3) 0.8343(2) 0.32881(15)
O9_4 O 0.8998(4) 0.9375(3) 0.3517(2)
O10_4 O 0.8400(4) 0.9712(2) 0.3621(2)
O11_4 O 0.7850(5) 0.9685(3) 0.4300(3)
C1_4 C 0.9926(6) 0.8588(4) 0.3512(3)
C34_4 C 0.8768(6) 0.9647(4) 0.3462(4)
C35_4 C 0.8894(4) 0.9901(3) 0.3181(2)
C40_4 C 0.9309(3) 0.9873(3) 0.3013(3)
H22_4 H 0.9516 0.9705 0.3089
C68_4 C 0.9778(3) 0.8600(2) 0.11744(16)
C69_4 C 0.9496(3) 0.8320(2) 0.10908(19)
H37_4 H 0.9487 0.8122 0.1237
C70_4 C 0.9228(3) 0.8334(2) 0.0789(2)
H38_4 H 0.9040 0.8146 0.0733
C71_4 C 0.9242(3) 0.8630(3) 0.05699(17)
C72_4 C 0.9524(3) 0.8910(2) 0.0654(2)
H39_4 H 0.9534 0.9108 0.0507
C73_4 C 0.9792(3) 0.8896(2) 0.0956(2)
H40_4 H 0.9981 0.9084 0.1012
N19_4 N 0.8981(3) 0.8653(2) 0.02662(19)
N21_4 N 0.8633(3) 0.8427(3) 0.0236(2)
H75_4 H 0.759648 0.978499 0.416076
H76_4 H 0.772941 0.954811 0.450376
C74_4 C 0.9021(4) 0.8828(3) 0.9956(2)
H41_4 H 0.9234 0.9000 0.9904
C75_4 C 0.8698(4) 0.8710(3) 0.9735(2)
N20_4 N 0.8459(3) 0.8461(3) 0.9908(2)
C76_4 C 0.8558(3) 0.8823(2) 0.93939(17)
C77_4 C 0.8718(3) 0.9136(2) 0.9248(2)
H42_4 H 0.8914 0.9278 0.9377
C78_4 C 0.8586(3) 0.9236(2) 0.8908(2)
C79_4 C 0.8294(3) 0.9023(3) 0.87149(18)
H43_4 H 0.8206 0.9090 0.8488
C80_4 C 0.8133(3) 0.8711(2) 0.8861(2)
C81_4 C 0.8265(3) 0.8611(2) 0.9201(2)
H44_4 H 0.8158 0.8402 0.9299
C82_4 C 0.8740(4) 0.9591(3) 0.8760(2)
N22_4 N 0.9028(4) 0.9790(3) 0.8953(2)
C83_4 C 0.8696(4) 0.9742(3) 0.8436(2)
H45_4 H 0.8518 0.9660 0.8251
C91_4 C 0.7826(4) 0.8490(3) 0.8650(3)
C92_4 C 0.7604(4) 0.8178(3) 0.8719(3)
H50_4 H 0.7631 0.8043 0.8924
N25_4 N 0.7334(4) 0.8103(3) 0.8431(3)
N26_4 N 0.7389(4) 0.8368(3) 0.8186(2)
N27_4 N 0.7693(4) 0.8607(3) 0.8320(3)
C93_4 C 0.7054(3) 0.7825(2) 0.8385(3)
C94_4 C 0.6808(4) 0.7815(2) 0.8071(2)
H51_4 H 0.6838 0.7995 0.7905
C95_4 C 0.6517(4) 0.7535(3) 0.8005(2)
H52_4 H 0.6353 0.7528 0.7795
C96_4 C 0.6472(3) 0.7266(2) 0.8253(3)
C97_4 C 0.6717(4) 0.7276(2) 0.8567(2)
H53_4 H 0.6687 0.7096 0.8733
C98_4 C 0.7008(3) 0.7556(3) 0.8633(2)
H54_4 H 0.7173 0.7563 0.8843
C99_4 C 0.6144(6) 0.6971(4) 0.8215(4)
loop_
_geom_bond_atom_site_label_1
_geom_bond_atom_site_label_2
_geom_bond_site_symmetry_1
_geom_bond_site_symmetry_2
O2 C24 1_555 1_555
O4 C33 1_555 1_555
O12 C24 1_555 1_555
O13 C33 1_555 1_555
H5 C8 1_555 1_555
C9 C8 1_555 1_555
N2 C9 1_555 1_555
C10 C9 1_555 1_555
C11 C10 1_555 1_555
H6 C11 1_555 1_555
C12 C11 1_555 1_555
C13 C12 1_555 1_555
H7 C13 1_555 1_555
C14 C13 1_555 1_555
C15 C10 1_555 1_555
H8 C15 1_555 1_555
C16 C12 1_555 1_555
N4 C16 1_555 1_555
N5 N4 1_555 1_555
N6 N5 1_555 1_555
C17 C16 1_555 1_555
H9 C17 1_555 1_555
C18 N6 1_555 1_555
C19 C18 1_555 1_555
H10 C19 1_555 1_555
C20 C19 1_555 1_555
H11 C20 1_555 1_555
C21 C20 1_555 1_555
C22 C21 1_555 1_555
H12 C22 1_555 1_555
C23 C18 1_555 1_555
H13 C23 1_555 1_555
C24 C21 1_555 1_555
C25 C14 1_555 1_555
C26 C25 1_555 1_555
H14 C26 1_555 1_555
N7 C26 1_555 1_555
N8 N7 1_555 1_555
N9 C25 1_555 1_555
C27 N7 1_555 1_555
C28 C27 1_555 1_555
H15 C28 1_555 1_555
C29 C28 1_555 1_555
H16 C29 1_555 1_555
C30 C29 1_555 1_555
C31 C30 1_555 1_555
H17 C31 1_555 1_555
C32 C27 1_555 1_555
H18 C32 1_555 1_555
C33 C30 1_555 1_555
O18 C132 1_555 1_555
O21 C132 1_555 1_555
H69 C127 1_555 1_555
C128 C127 1_555 1_555
H70 C128 1_555 1_555
C129 C128 1_555 1_555
C130 C129 1_555 1_555
H71 C130 1_555 1_555
C132 C129 1_555 1_555
Zn7 O12 1_555 1_555
Zn10 O13 1_555 1_555
Zn12 O2 1_555 1_555
Zn14 O18 1_555 1_555
Zn18 O4 1_555 1_555
Zn20 O21 1_555 1_555
C14 C15 1_555 1_555
N6 C17 1_555 1_555
C22 C23 1_555 1_555
N8 N9 1_555 1_555
C31 C32 1_555 1_555
Zn1 O1 1_555 1_555
Zn2 O3 1_555 1_555
Zn3 O10 1_555 1_555
O1 Zn4 1_555 1_555
O3 C1 1_555 1_555
O5 C66 1_555 1_555
O6 C57 1_555 1_555
O7 Zn1 1_555 1_555
O8 C66 1_555 1_555
O9 Zn2 1_555 1_555
O10 C34 1_555 1_555
O11 Zn3 1_555 1_555
O14 C57 1_555 1_555
C1 O7 1_555 1_555
C2 C1 1_555 1_555
C3 C2 1_555 1_555
H1 C3 1_555 1_555
C4 C3 1_555 1_555
H2 C4 1_555 1_555
C5 C4 1_555 1_555
C6 C5 1_555 1_555
H3 C6 1_555 1_555
C7 C2 1_555 1_555
H4 C7 1_555 1_555
N1 C5 1_555 1_555
N3 N1 1_555 1_555
C34 O9 1_555 1_555
C35 C34 1_555 1_555
C36 C35 1_555 1_555
H19 C36 1_555 1_555
C37 C36 1_555 1_555
H20 C37 1_555 1_555
C38 C37 1_555 1_555
C39 C38 1_555 1_555
H21 C39 1_555 1_555
C40 C35 1_555 1_555
H22 C40 1_555 1_555
N10 C38 1_555 1_555
C41 N10 1_555 1_555
H23 C41 1_555 1_555
C42 C41 1_555 1_555
N11 C42 1_555 1_555
N12 N10 1_555 1_555
C43 C42 1_555 1_555
C44 C43 1_555 1_555
H24 C44 1_555 1_555
C45 C44 1_555 1_555
C46 C45 1_555 1_555
H25 C46 1_555 1_555
C47 C46 1_555 1_555
C48 C43 1_555 1_555
H26 C48 1_555 1_555
N13 N14 1_555 1_555
N14 N15 1_555 1_555
N15 C49 1_555 1_555
C49 H27 1_555 1_555
C50 C45 1_555 1_555
C51 N15 1_555 1_555
C52 C51 1_555 1_555
H28 C52 1_555 1_555
C53 C52 1_555 1_555
H29 C53 1_555 1_555
C54 C53 1_555 1_555
C55 C54 1_555 1_555
H30 C55 1_555 1_555
C56 C51 1_555 1_555
H31 C56 1_555 1_555
C57 C54 1_555 1_555
C58 C47 1_555 1_555
C59 C58 1_555 1_555
H32 C59 1_555 1_555
N16 C59 1_555 1_555
N17 N16 1_555 1_555
N18 C58 1_555 1_555
C60 N16 1_555 1_555
C61 C60 1_555 1_555
H33 C61 1_555 1_555
C62 C61 1_555 1_555
H34 C62 1_555 1_555
C63 C62 1_555 1_555
C64 C63 1_555 1_555
H35 C64 1_555 1_555
C65 C60 1_555 1_555
H36 C65 1_555 1_555
C66 C63 1_555 1_555
Zn4 O20 1_555 1_555
Zn5 O16 1_555 1_555
Zn6 O23 1_555 1_555
O15 C90 1_555 1_555
O16 C67 1_555 1_555
O17 C99 1_555 1_555
O19 C123 1_555 1_555
O20 C67 1_555 1_555
O22 Zn5 1_555 1_555
O23 C100 1_555 1_555
O24 Zn6 1_555 1_555
O25 C90 1_555 1_555
O26 C99 1_555 1_555
O27 C123 1_555 1_555
C67 C68 1_555 1_555
C68 C69 1_555 1_555
C69 H37 1_555 1_555
C70 C69 1_555 1_555
H38 C70 1_555 1_555
C71 C70 1_555 1_555
C72 C71 1_555 1_555
H39 C72 1_555 1_555
C73 C68 1_555 1_555
H40 C73 1_555 1_555
N19 C71 1_555 1_555
C74 N19 1_555 1_555
H41 C74 1_555 1_555
C75 C74 1_555 1_555
N20 C75 1_555 1_555
N21 N19 1_555 1_555
C76 C75 1_555 1_555
C77 C76 1_555 1_555
H42 C77 1_555 1_555
C78 C77 1_555 1_555
C79 C78 1_555 1_555
H43 C79 1_555 1_555
C80 C79 1_555 1_555
C81 C76 1_555 1_555
H44 C81 1_555 1_555
C82 C78 1_555 1_555
N22 C82 1_555 1_555
N23 N22 1_555 1_555
N24 N23 1_555 1_555
C83 C82 1_555 1_555
H45 C83 1_555 1_555
C84 N24 1_555 1_555
C85 C84 1_555 1_555
H46 C85 1_555 1_555
C86 C85 1_555 1_555
H47 C86 1_555 1_555
C87 C86 1_555 1_555
C88 C87 1_555 1_555
H48 C88 1_555 1_555
C89 C84 1_555 1_555
H49 C89 1_555 1_555
C90 C87 1_555 1_555
C91 C80 1_555 1_555
C92 C91 1_555 1_555
H50 C92 1_555 1_555
N25 C92 1_555 1_555
N26 N25 1_555 1_555
N27 C91 1_555 1_555
C93 N25 1_555 1_555
C94 C93 1_555 1_555
H51 C94 1_555 1_555
C95 C94 1_555 1_555
H52 C95 1_555 1_555
C96 C95 1_555 1_555
C97 C96 1_555 1_555
H53 C97 1_555 1_555
C98 C93 1_555 1_555
H54 C98 1_555 1_555
C99 C96 1_555 1_555
C100 O22 1_555 1_555
C101 C100 1_555 1_555
C102 C101 1_555 1_555
H55 C102 1_555 1_555
C103 C102 1_555 1_555
H56 C103 1_555 1_555
C104 C103 1_555 1_555
C105 C104 1_555 1_555
H57 C105 1_555 1_555
C106 C101 1_555 1_555
H58 C106 1_555 1_555
N28 C104 1_555 1_555
C107 N28 1_555 1_555
H59 C107 1_555 1_555
C108 C107 1_555 1_555
N29 C108 1_555 1_555
N30 N28 1_555 1_555
C109 C108 1_555 1_555
C110 C109 1_555 1_555
H60 C110 1_555 1_555
C111 C110 1_555 1_555
C112 C111 1_555 1_555
H61 C112 1_555 1_555
C113 C112 1_555 1_555
C114 C109 1_555 1_555
H62 C114 1_555 1_555
N31 N32 1_555 1_555
N32 N33 1_555 1_555
N33 C115 1_555 1_555
C115 H63 1_555 1_555
C116 C111 1_555 1_555
C117 N33 1_555 1_555
C118 C117 1_555 1_555
H64 C118 1_555 1_555
C119 C118 1_555 1_555
H65 C119 1_555 1_555
C120 C119 1_555 1_555
C121 C120 1_555 1_555
H66 C121 1_555 1_555
C122 C117 1_555 1_555
H67 C122 1_555 1_555
C123 C120 1_555 1_555
C124 C113 1_555 1_555
C125 C124 1_555 1_555
H68 C125 1_555 1_555
N34 C125 1_555 1_555
N35 N34 1_555 1_555
N36 C124 1_555 1_555
C126 N34 1_555 1_555
C131 C126 1_555 1_555
H72 C131 1_555 1_555
Zn8 O25 1_555 1_555
Zn9 O26 1_555 1_555
Zn12 O5 1_555 1_555
Zn14 O15 1_555 1_555
Zn15 O19 1_555 1_555
Zn16 O17 1_555 1_555
Zn17 O6 1_555 1_555
Zn19 O8 1_555 1_555
Zn21 O27 1_555 1_555
Zn22 O14 1_555 1_555
O28 Zn2 1_555 1_555
O29 Zn5 1_555 1_555
O30 Zn5 1_555 1_555
O31 Zn2 1_555 1_555
O32 Zn2 1_555 1_555
O33 Zn5 1_555 1_555
O34 Zn5 1_555 1_555
O35 Zn2 1_555 1_555
O36 Zn3 1_555 1_555
O37 Zn6 1_555 1_555
O38 Zn1 1_555 1_555
O39 Zn4 1_555 1_555
O40 Zn4 1_555 1_555
O41 Zn1 1_555 1_555
O42 Zn6 1_555 1_555
O43 Zn3 1_555 1_555
C6 C7 1_555 1_555
C39 C40 1_555 1_555
N11 N12 1_555 1_555
C47 C48 1_555 1_555
N13 C50 1_555 1_555
C49 C50 1_555 1_555
C55 C56 1_555 1_555
N17 N18 1_555 1_555
C64 C65 1_555 1_555
C72 C73 1_555 1_555
N20 N21 1_555 1_555
C80 C81 1_555 1_555
N24 C83 1_555 1_555
C88 C89 1_555 1_555
N26 N27 1_555 1_555
C97 C98 1_555 1_555
C105 C106 1_555 1_555
N29 N30 1_555 1_555
C113 C114 1_555 1_555
N31 C116 1_555 1_555
C115 C116 1_555 1_555
C121 C122 1_555 1_555
N35 N36 1_555 1_555
O24 H73 1_555 1_555
O24 H74 1_555 1_555
O11 H75 1_555 1_555
O11 H76 1_555 1_555
Zn7 O1_2 1_555 1_555
Zn12 O3_2 1_555 1_555
Zn19 O10_2 1_555 1_555
O1_2 Zn8 1_555 1_555
O28 C24_2 1_555 1_555
O3_2 C1_2 1_555 1_555
O4_2 C33_2 1_555 1_555
O6_2 C57_2 1_555 1_555
O7_2 Zn7 1_555 1_555
O9_2 Zn12 1_555 1_555
O10_2 C34_2 1_555 1_555
O11_2 Zn19 1_555 1_555
O38 C24_2 1_555 1_555
O13_2 C33_2 1_555 1_555
O14_2 C57_2 1_555 1_555
C1_2 O7_2 1_555 1_555
C2_2 C1_2 1_555 1_555
C3_2 C2_2 1_555 1_555
H1_2 C3_2 1_555 1_555
C4_2 C3_2 1_555 1_555
H2_2 C4_2 1_555 1_555
C5_2 C4_2 1_555 1_555
C6_2 C5_2 1_555 1_555
H3_2 C6_2 1_555 1_555
C7_2 C2_2 1_555 1_555
H4_2 C7_2 1_555 1_555
N1_2 C5_2 1_555 1_555
C8_2 N1_2 1_555 1_555
H5_2 C8_2 1_555 1_555
C9_2 C8_2 1_555 1_555
N2_2 C9_2 1_555 1_555
N3_2 N1_2 1_555 1_555
C10_2 C9_2 1_555 1_555
C11_2 C10_2 1_555 1_555
H6_2 C11_2 1_555 1_555
C12_2 C11_2 1_555 1_555
C13_2 C12_2 1_555 1_555
H7_2 C13_2 1_555 1_555
C14_2 C13_2 1_555 1_555
C15_2 C10_2 1_555 1_555
H8_2 C15_2 1_555 1_555
C16_2 C12_2 1_555 1_555
N4_2 C16_2 1_555 1_555
N5_2 N4_2 1_555 1_555
N6_2 N5_2 1_555 1_555
C17_2 C16_2 1_555 1_555
H9_2 C17_2 1_555 1_555
C18_2 N6_2 1_555 1_555
C19_2 C18_2 1_555 1_555
H10_2 C19_2 1_555 1_555
C20_2 C19_2 1_555 1_555
H11_2 C20_2 1_555 1_555
C21_2 C20_2 1_555 1_555
C22_2 C21_2 1_555 1_555
H12_2 C22_2 1_555 1_555
C23_2 C18_2 1_555 1_555
H13_2 C23_2 1_555 1_555
C24_2 C21_2 1_555 1_555
C25_2 C14_2 1_555 1_555
C26_2 C25_2 1_555 1_555
H14_2 C26_2 1_555 1_555
N7_2 C26_2 1_555 1_555
N8_2 N7_2 1_555 1_555
N9_2 C25_2 1_555 1_555
C27_2 N7_2 1_555 1_555
C28_2 C27_2 1_555 1_555
H15_2 C28_2 1_555 1_555
C29_2 C28_2 1_555 1_555
H16_2 C29_2 1_555 1_555
C30_2 C29_2 1_555 1_555
C31_2 C30_2 1_555 1_555
H17_2 C31_2 1_555 1_555
C32_2 C27_2 1_555 1_555
H18_2 C32_2 1_555 1_555
C33_2 C30_2 1_555 1_555
C34_2 O9_2 1_555 1_555
C35_2 C34_2 1_555 1_555
C36_2 C35_2 1_555 1_555
H19_2 C36_2 1_555 1_555
C37_2 C36_2 1_555 1_555
H20_2 C37_2 1_555 1_555
C38_2 C37_2 1_555 1_555
C39_2 C38_2 1_555 1_555
H21_2 C39_2 1_555 1_555
C40_2 C35_2 1_555 1_555
H22_2 C40_2 1_555 1_555
N10_2 C38_2 1_555 1_555
C41_2 N10_2 1_555 1_555
H23_2 C41_2 1_555 1_555
C42_2 C41_2 1_555 1_555
N11_2 C42_2 1_555 1_555
N12_2 N10_2 1_555 1_555
C43_2 C42_2 1_555 1_555
C44_2 C43_2 1_555 1_555
H24_2 C44_2 1_555 1_555
C45_2 C44_2 1_555 1_555
C46_2 C45_2 1_555 1_555
H25_2 C46_2 1_555 1_555
C47_2 C46_2 1_555 1_555
C48_2 C43_2 1_555 1_555
H26_2 C48_2 1_555 1_555
N13_2 N14_2 1_555 1_555
N14_2 N15_2 1_555 1_555
N15_2 C49_2 1_555 1_555
C49_2 H27_2 1_555 1_555
C50_2 C45_2 1_555 1_555
C51_2 N15_2 1_555 1_555
C52_2 C51_2 1_555 1_555
H28_2 C52_2 1_555 1_555
C53_2 C52_2 1_555 1_555
H29_2 C53_2 1_555 1_555
C54_2 C53_2 1_555 1_555
C55_2 C54_2 1_555 1_555
H30_2 C55_2 1_555 1_555
C56_2 C51_2 1_555 1_555
H31_2 C56_2 1_555 1_555
C57_2 C54_2 1_555 1_555
C58_2 C47_2 1_555 1_555
C59_2 C58_2 1_555 1_555
H32_2 C59_2 1_555 1_555
N16_2 C59_2 1_555 1_555
N17_2 N16_2 1_555 1_555
N18_2 C58_2 1_555 1_555
C60_2 N16_2 1_555 1_555
C65_2 C60_2 1_555 1_555
H36_2 C65_2 1_555 1_555
Zn8 O20_2 1_555 1_555
Zn14 O16_2 1_555 1_555
Zn20 O23_2 1_555 1_555
O16_2 C67_2 1_555 1_555
O33 C132_2 1_555 1_555
O19_2 C123_2 1_555 1_555
O20_2 C67_2 1_555 1_555
O37 C132_2 1_555 1_555
O22_2 Zn14 1_555 1_555
O23_2 C100_2 1_555 1_555
O24_2 Zn20 1_555 1_555
O27_2 C123_2 1_555 1_555
C67_2 C68_2 1_555 1_555
C68_2 C69_2 1_555 1_555
C69_2 H37_2 1_555 1_555
C70_2 C69_2 1_555 1_555
H38_2 C70_2 1_555 1_555
C71_2 C70_2 1_555 1_555
C72_2 C71_2 1_555 1_555
H39_2 C72_2 1_555 1_555
C73_2 C68_2 1_555 1_555
H40_2 C73_2 1_555 1_555
N19_2 C71_2 1_555 1_555
N21_2 N19_2 1_555 1_555
C100_2 O22_2 1_555 1_555
C101_2 C100_2 1_555 1_555
C102_2 C101_2 1_555 1_555
H55_2 C102_2 1_555 1_555
C103_2 C102_2 1_555 1_555
H56_2 C103_2 1_555 1_555
C104_2 C103_2 1_555 1_555
C105_2 C104_2 1_555 1_555
H57_2 C105_2 1_555 1_555
C106_2 C101_2 1_555 1_555
H58_2 C106_2 1_555 1_555
N28_2 C104_2 1_555 1_555
C107_2 N28_2 1_555 1_555
H59_2 C107_2 1_555 1_555
C108_2 C107_2 1_555 1_555
N29_2 C108_2 1_555 1_555
N30_2 N28_2 1_555 1_555
C109_2 C108_2 1_555 1_555
C110_2 C109_2 1_555 1_555
H60_2 C110_2 1_555 1_555
C111_2 C110_2 1_555 1_555
C112_2 C111_2 1_555 1_555
H61_2 C112_2 1_555 1_555
C113_2 C112_2 1_555 1_555
C114_2 C109_2 1_555 1_555
H62_2 C114_2 1_555 1_555
N31_2 N32_2 1_555 1_555
N32_2 N33_2 1_555 1_555
N33_2 C115_2 1_555 1_555
C115_2 H63_2 1_555 1_555
C116_2 C111_2 1_555 1_555
C117_2 N33_2 1_555 1_555
C118_2 C117_2 1_555 1_555
H64_2 C118_2 1_555 1_555
C119_2 C118_2 1_555 1_555
H65_2 C119_2 1_555 1_555
C120_2 C119_2 1_555 1_555
C121_2 C120_2 1_555 1_555
H66_2 C121_2 1_555 1_555
C122_2 C117_2 1_555 1_555
H67_2 C122_2 1_555 1_555
C123_2 C120_2 1_555 1_555
C124_2 C113_2 1_555 1_555
C125_2 C124_2 1_555 1_555
H68_2 C125_2 1_555 1_555
N34_2 C125_2 1_555 1_555
N35_2 N34_2 1_555 1_555
N36_2 C124_2 1_555 1_555
C126_2 N34_2 1_555 1_555
C127_2 C126_2 1_555 1_555
H69_2 C127_2 1_555 1_555
C128_2 C127_2 1_555 1_555
H70_2 C128_2 1_555 1_555
C129_2 C128_2 1_555 1_555
C130_2 C129_2 1_555 1_555
H71_2 C130_2 1_555 1_555
C131_2 C126_2 1_555 1_555
H72_2 C131_2 1_555 1_555
C132_2 C129_2 1_555 1_555
Zn10_2 O13_2 1_555 1_555
Zn16 O19_2 1_555 1_555
Zn18 O6_2 1_555 1_555
Zn17 O4_2 1_555 1_555
Zn21_2 O27_2 1_555 1_555
Zn22_2 O14_2 1_555 1_555
O30_2 Zn14 1_555 1_555
O31_2 Zn12 1_555 1_555
O34_2 Zn14 1_555 1_555
O35_2 Zn12 1_555 1_555
O40_2 Zn8 1_555 1_555
O41_2 Zn7 1_555 1_555
O42_2 Zn20 1_555 1_555
O43_2 Zn19 1_555 1_555
C6_2 C7_2 1_555 1_555
N2_2 N3_2 1_555 1_555
C14_2 C15_2 1_555 1_555
N6_2 C17_2 1_555 1_555
C22_2 C23_2 1_555 1_555
N8_2 N9_2 1_555 1_555
C31_2 C32_2 1_555 1_555
C39_2 C40_2 1_555 1_555
N11_2 N12_2 1_555 1_555
C47_2 C48_2 1_555 1_555
N13_2 C50_2 1_555 1_555
C49_2 C50_2 1_555 1_555
C55_2 C56_2 1_555 1_555
N17_2 N18_2 1_555 1_555
C72_2 C73_2 1_555 1_555
C105_2 C106_2 1_555 1_555
N29_2 N30_2 1_555 1_555
C113_2 C114_2 1_555 1_555
N31_2 C116_2 1_555 1_555
C115_2 C116_2 1_555 1_555
C121_2 C122_2 1_555 1_555
N35_2 N36_2 1_555 1_555
C130_2 C131_2 1_555 1_555
O24_2 H73_2 1_555 1_555
O24_2 H74_2 1_555 1_555
O11_2 H75_2 1_555 1_555
O11_2 H76_2 1_555 1_555
O32 C66_2 1_555 1_555
O36 C66_2 1_555 1_555
H33_2 C61_2 1_555 1_555
C62_2 C61_2 1_555 1_555
H34_2 C62_2 1_555 1_555
C63_2 C62_2 1_555 1_555
C64_2 C63_2 1_555 1_555
H35_2 C64_2 1_555 1_555
C66_2 C63_2 1_555 1_555
O29 C90_2 1_555 1_555
O17_2 C99_2 1_555 1_555
O39 C90_2 1_555 1_555
O26_2 C99_2 1_555 1_555
H41_2 C74_2 1_555 1_555
C75_2 C74_2 1_555 1_555
N20_2 C75_2 1_555 1_555
C76_2 C75_2 1_555 1_555
C77_2 C76_2 1_555 1_555
H42_2 C77_2 1_555 1_555
C78_2 C77_2 1_555 1_555
C79_2 C78_2 1_555 1_555
H43_2 C79_2 1_555 1_555
C80_2 C79_2 1_555 1_555
C81_2 C76_2 1_555 1_555
H44_2 C81_2 1_555 1_555
C82_2 C78_2 1_555 1_555
N22_2 C82_2 1_555 1_555
N23_2 N22_2 1_555 1_555
N24_2 N23_2 1_555 1_555
C83_2 C82_2 1_555 1_555
H45_2 C83_2 1_555 1_555
C84_2 N24_2 1_555 1_555
C85_2 C84_2 1_555 1_555
H46_2 C85_2 1_555 1_555
C86_2 C85_2 1_555 1_555
H47_2 C86_2 1_555 1_555
C87_2 C86_2 1_555 1_555
C88_2 C87_2 1_555 1_555
H48_2 C88_2 1_555 1_555
C89_2 C84_2 1_555 1_555
H49_2 C89_2 1_555 1_555
C90_2 C87_2 1_555 1_555
C91_2 C80_2 1_555 1_555
C92_2 C91_2 1_555 1_555
H50_2 C92_2 1_555 1_555
N25_2 C92_2 1_555 1_555
N26_2 N25_2 1_555 1_555
N27_2 C91_2 1_555 1_555
C93_2 N25_2 1_555 1_555
C94_2 C93_2 1_555 1_555
H51_2 C94_2 1_555 1_555
C95_2 C94_2 1_555 1_555
H52_2 C95_2 1_555 1_555
C96_2 C95_2 1_555 1_555
C97_2 C96_2 1_555 1_555
H53_2 C97_2 1_555 1_555
C98_2 C93_2 1_555 1_555
H54_2 C98_2 1_555 1_555
C99_2 C96_2 1_555 1_555
Zn9_2 O26_2 1_555 1_555
Zn15 O17_2 1_555 1_555
C80_2 C81_2 1_555 1_555
N24_2 C83_2 1_555 1_555
C88_2 C89_2 1_555 1_555
N26_2 N27_2 1_555 1_555
C97_2 C98_2 1_555 1_555
Zn9_2 O1_3 1_555 1_555
Zn15 O3_3 1_555 1_555
Zn21 O10_3 1_555 1_555
O3_3 C1_3 1_555 1_555
O7_3 Zn9_2 1_555 1_555
O9_3 Zn15 1_555 1_555
O10_3 C34_3 1_555 1_555
O11_3 Zn21 1_555 1_555
C1_3 O7_3 1_555 1_555
C34_3 O9_3 1_555 1_555
C35_3 C34_3 1_555 1_555
C40_3 C35_3 1_555 1_555
H22_3 C40_3 1_555 1_555
O31_2 C99_3 1_555 1_555
O41_2 C99_3 1_555 1_555
C68_3 C69_3 1_555 1_555
C69_3 H37_3 1_555 1_555
C70_3 C69_3 1_555 1_555
H38_3 C70_3 1_555 1_555
C71_3 C70_3 1_555 1_555
C72_3 C71_3 1_555 1_555
H39_3 C72_3 1_555 1_555
C73_3 C68_3 1_555 1_555
H40_3 C73_3 1_555 1_555
N19_3 C71_3 1_555 1_555
C74_3 N19_3 1_555 1_555
H41_3 C74_3 1_555 1_555
C75_3 C74_3 1_555 1_555
N20_3 C75_3 1_555 1_555
N21_3 N19_3 1_555 1_555
C76_3 C75_3 1_555 1_555
C77_3 C76_3 1_555 1_555
H42_3 C77_3 1_555 1_555
C78_3 C77_3 1_555 1_555
C79_3 C78_3 1_555 1_555
H43_3 C79_3 1_555 1_555
C80_3 C79_3 1_555 1_555
C81_3 C76_3 1_555 1_555
H44_3 C81_3 1_555 1_555
C82_3 C78_3 1_555 1_555
N22_3 C82_3 1_555 1_555
C83_3 C82_3 1_555 1_555
H45_3 C83_3 1_555 1_555
C91_3 C80_3 1_555 1_555
C92_3 C91_3 1_555 1_555
H50_3 C92_3 1_555 1_555
N25_3 C92_3 1_555 1_555
N26_3 N25_3 1_555 1_555
N27_3 C91_3 1_555 1_555
C93_3 N25_3 1_555 1_555
C94_3 C93_3 1_555 1_555
H51_3 C94_3 1_555 1_555
C95_3 C94_3 1_555 1_555
H52_3 C95_3 1_555 1_555
C96_3 C95_3 1_555 1_555
C97_3 C96_3 1_555 1_555
H53_3 C97_3 1_555 1_555
C98_3 C93_3 1_555 1_555
H54_3 C98_3 1_555 1_555
C99_3 C96_3 1_555 1_555
O28_2 Zn15 1_555 1_555
O32_2 Zn15 1_555 1_555
O36_2 Zn21 1_555 1_555
O38_2 Zn9_2 1_555 1_555
C72_3 C73_3 1_555 1_555
N20_3 N21_3 1_555 1_555
C80_3 C81_3 1_555 1_555
N26_3 N27_3 1_555 1_555
C97_3 C98_3 1_555 1_555
O11_3 H75_3 1_555 1_555
O11_3 H76_3 1_555 1_555
O18_2 C132_3 1_555 1_555
O21_2 C132_3 1_555 1_555
H69_3 C127_3 1_555 1_555
C128_3 C127_3 1_555 1_555
H70_3 C128_3 1_555 1_555
C129_3 C128_3 1_555 1_555
C130_3 C129_3 1_555 1_555
H71_3 C130_3 1_555 1_555
C132_3 C129_3 1_555 1_555
Zn18 O18_2 1_555 1_555
Zn22_2 O21_2 1_555 1_555
O34 C57_3 1_555 1_555
O42 C57_3 1_555 1_555
H19_3 C36_3 1_555 1_555
C37_3 C36_3 1_555 1_555
H20_3 C37_3 1_555 1_555
C38_3 C37_3 1_555 1_555
C39_3 C38_3 1_555 1_555
H21_3 C39_3 1_555 1_555
N10_3 C38_3 1_555 1_555
C41_3 N10_3 1_555 1_555
H23_3 C41_3 1_555 1_555
C42_3 C41_3 1_555 1_555
N11_3 C42_3 1_555 1_555
N12_3 N10_3 1_555 1_555
C43_3 C42_3 1_555 1_555
C44_3 C43_3 1_555 1_555
H24_3 C44_3 1_555 1_555
C45_3 C44_3 1_555 1_555
C46_3 C45_3 1_555 1_555
H25_3 C46_3 1_555 1_555
C47_3 C46_3 1_555 1_555
C48_3 C43_3 1_555 1_555
H26_3 C48_3 1_555 1_555
N13_3 N14_3 1_555 1_555
N14_3 N15_3 1_555 1_555
N15_3 C49_3 1_555 1_555
C49_3 H27_3 1_555 1_555
C50_3 C45_3 1_555 1_555
C51_3 N15_3 1_555 1_555
C52_3 C51_3 1_555 1_555
H28_3 C52_3 1_555 1_555
C53_3 C52_3 1_555 1_555
H29_3 C53_3 1_555 1_555
C54_3 C53_3 1_555 1_555
C55_3 C54_3 1_555 1_555
H30_3 C55_3 1_555 1_555
C56_3 C51_3 1_555 1_555
H31_3 C56_3 1_555 1_555
C57_3 C54_3 1_555 1_555
C58_3 C47_3 1_555 1_555
C59_3 C58_3 1_555 1_555
H32_3 C59_3 1_555 1_555
N16_3 C59_3 1_555 1_555
N17_3 N16_3 1_555 1_555
N18_3 C58_3 1_555 1_555
O15_2 C90_3 1_555 1_555
O25_2 C90_3 1_555 1_555
N24_3 N23_3 1_555 1_555
C84_3 N24_3 1_555 1_555
C85_3 C84_3 1_555 1_555
H46_3 C85_3 1_555 1_555
C86_3 C85_3 1_555 1_555
H47_3 C86_3 1_555 1_555
C87_3 C86_3 1_555 1_555
C88_3 C87_3 1_555 1_555
H48_3 C88_3 1_555 1_555
C89_3 C84_3 1_555 1_555
H49_3 C89_3 1_555 1_555
C90_3 C87_3 1_555 1_555
C131_3 C126_3 1_555 1_555
H72_3 C131_3 1_555 1_555
Zn10 O25_2 1_555 1_555
Zn18 O15_2 1_555 1_555
N11_3 N12_3 1_555 1_555
C47_3 C48_3 1_555 1_555
N13_3 C50_3 1_555 1_555
C49_3 C50_3 1_555 1_555
C55_3 C56_3 1_555 1_555
N17_3 N18_3 1_555 1_555
C88_3 C89_3 1_555 1_555
O30_2 C33_3 1_555 1_555
O40_2 C33_3 1_555 1_555
H5_3 C8_3 1_555 1_555
C9_3 C8_3 1_555 1_555
N2_3 C9_3 1_555 1_555
C10_3 C9_3 1_555 1_555
C11_3 C10_3 1_555 1_555
H6_3 C11_3 1_555 1_555
C12_3 C11_3 1_555 1_555
C13_3 C12_3 1_555 1_555
H7_3 C13_3 1_555 1_555
C14_3 C13_3 1_555 1_555
C15_3 C10_3 1_555 1_555
H8_3 C15_3 1_555 1_555
C16_3 C12_3 1_555 1_555
N4_3 C16_3 1_555 1_555
C17_3 C16_3 1_555 1_555
H9_3 C17_3 1_555 1_555
C25_3 C14_3 1_555 1_555
C26_3 C25_3 1_555 1_555
H14_3 C26_3 1_555 1_555
N7_3 C26_3 1_555 1_555
N8_3 N7_3 1_555 1_555
N9_3 C25_3 1_555 1_555
C27_3 N7_3 1_555 1_555
C28_3 C27_3 1_555 1_555
H15_3 C28_3 1_555 1_555
C29_3 C28_3 1_555 1_555
H16_3 C29_3 1_555 1_555
C30_3 C29_3 1_555 1_555
C31_3 C30_3 1_555 1_555
H17_3 C31_3 1_555 1_555
C32_3 C27_3 1_555 1_555
H18_3 C32_3 1_555 1_555
C33_3 C30_3 1_555 1_555
C14_3 C15_3 1_555 1_555
N8_3 N9_3 1_555 1_555
C31_3 C32_3 1_555 1_555
O1_4 Zn10_2 1_555 1_555
C3_3 C2_3 1_555 1_555
H1_3 C3_3 1_555 1_555
C4_3 C3_3 1_555 1_555
H2_3 C4_3 1_555 1_555
C5_3 C4_3 1_555 1_555
C6_3 C5_3 1_555 1_555
H3_3 C6_3 1_555 1_555
C7_3 C2_3 1_555 1_555
H4_3 C7_3 1_555 1_555
N1_3 C5_3 1_555 1_555
N3_3 N1_3 1_555 1_555
Zn10_2 O20_3 1_555 1_555
Zn17 O16_3 1_555 1_555
Zn22 O23_3 1_555 1_555
O16_3 C67_3 1_555 1_555
O20_3 C67_3 1_555 1_555
O22_3 Zn17 1_555 1_555
O23_3 C100_3 1_555 1_555
O24_3 Zn22 1_555 1_555
C100_3 O22_3 1_555 1_555
C101_3 C100_3 1_555 1_555
C106_3 C101_3 1_555 1_555
H58_3 C106_3 1_555 1_555
O29_2 Zn17 1_555 1_555
O33_2 Zn17 1_555 1_555
O37_2 Zn22 1_555 1_555
O39_2 Zn10_2 1_555 1_555
C6_3 C7_3 1_555 1_555
O24_3 H73_3 1_555 1_555
O24_3 H74_3 1_555 1_555
O2_2 C24_3 1_555 1_555
O12_2 C24_3 1_555 1_555
N6_3 N5_3 1_555 1_555
C18_3 N6_3 1_555 1_555
C19_3 C18_3 1_555 1_555
H10_3 C19_3 1_555 1_555
C20_3 C19_3 1_555 1_555
H11_3 C20_3 1_555 1_555
C21_3 C20_3 1_555 1_555
C22_3 C21_3 1_555 1_555
H12_3 C22_3 1_555 1_555
C23_3 C18_3 1_555 1_555
H13_3 C23_3 1_555 1_555
C24_3 C21_3 1_555 1_555
Zn9 O12_2 1_555 1_555
Zn16 O2_2 1_555 1_555
C22_3 C23_3 1_555 1_555
O5_2 C66_3 1_555 1_555
O8_2 C66_3 1_555 1_555
C61_3 C60_3 1_555 1_555
H33_3 C61_3 1_555 1_555
C62_3 C61_3 1_555 1_555
H34_3 C62_3 1_555 1_555
C63_3 C62_3 1_555 1_555
C64_3 C63_3 1_555 1_555
H35_3 C64_3 1_555 1_555
C65_3 C60_3 1_555 1_555
H36_3 C65_3 1_555 1_555
C66_3 C63_3 1_555 1_555
O35 C123_3 1_555 1_555
O43 C123_3 1_555 1_555
H55_3 C102_3 1_555 1_555
C103_3 C102_3 1_555 1_555
H56_3 C103_3 1_555 1_555
C104_3 C103_3 1_555 1_555
C105_3 C104_3 1_555 1_555
H57_3 C105_3 1_555 1_555
N28_3 C104_3 1_555 1_555
C107_3 N28_3 1_555 1_555
H59_3 C107_3 1_555 1_555
C108_3 C107_3 1_555 1_555
N29_3 C108_3 1_555 1_555
N30_3 N28_3 1_555 1_555
C109_3 C108_3 1_555 1_555
C110_3 C109_3 1_555 1_555
H60_3 C110_3 1_555 1_555
C111_3 C110_3 1_555 1_555
C112_3 C111_3 1_555 1_555
H61_3 C112_3 1_555 1_555
C113_3 C112_3 1_555 1_555
C114_3 C109_3 1_555 1_555
H62_3 C114_3 1_555 1_555
N31_3 N32_3 1_555 1_555
N32_3 N33_3 1_555 1_555
N33_3 C115_3 1_555 1_555
C115_3 H63_3 1_555 1_555
C116_3 C111_3 1_555 1_555
C117_3 N33_3 1_555 1_555
C118_3 C117_3 1_555 1_555
H64_3 C118_3 1_555 1_555
C119_3 C118_3 1_555 1_555
H65_3 C119_3 1_555 1_555
C120_3 C119_3 1_555 1_555
C121_3 C120_3 1_555 1_555
H66_3 C121_3 1_555 1_555
C122_3 C117_3 1_555 1_555
H67_3 C122_3 1_555 1_555
C123_3 C120_3 1_555 1_555
C124_3 C113_3 1_555 1_555
C125_3 C124_3 1_555 1_555
H68_3 C125_3 1_555 1_555
N34_3 C125_3 1_555 1_555
N35_3 N34_3 1_555 1_555
N36_3 C124_3 1_555 1_555
Zn16 O5_2 1_555 1_555
Zn21_2 O8_2 1_555 1_555
C64_3 C65_3 1_555 1_555
N29_3 N30_3 1_555 1_555
C113_3 C114_3 1_555 1_555
N31_3 C116_3 1_555 1_555
C115_3 C116_3 1_555 1_555
C121_3 C122_3 1_555 1_555
N35_3 N36_3 1_555 1_555
O28_2 C24_4 1_555 1_555
O38_2 C24_4 1_555 1_555
N6_4 N5_4 1_555 1_555
C18_4 N6_4 1_555 1_555
C19_4 C18_4 1_555 1_555
H10_4 C19_4 1_555 1_555
C20_4 C19_4 1_555 1_555
H11_4 C20_4 1_555 1_555
C21_4 C20_4 1_555 1_555
C22_4 C21_4 1_555 1_555
H12_4 C22_4 1_555 1_555
C23_4 C18_4 1_555 1_555
H13_4 C23_4 1_555 1_555
C24_4 C21_4 1_555 1_555
C65_4 C60_4 1_555 1_555
H36_4 C65_4 1_555 1_555
O35_2 C123_4 1_555 1_555
O43_2 C123_4 1_555 1_555
H55_4 C102_4 1_555 1_555
C103_4 C102_4 1_555 1_555
H56_4 C103_4 1_555 1_555
C104_4 C103_4 1_555 1_555
C105_4 C104_4 1_555 1_555
H57_4 C105_4 1_555 1_555
N28_4 C104_4 1_555 1_555
C107_4 N28_4 1_555 1_555
H59_4 C107_4 1_555 1_555
C108_4 C107_4 1_555 1_555
N29_4 C108_4 1_555 1_555
N30_4 N28_4 1_555 1_555
C109_4 C108_4 1_555 1_555
C110_4 C109_4 1_555 1_555
H60_4 C110_4 1_555 1_555
C111_4 C110_4 1_555 1_555
C112_4 C111_4 1_555 1_555
H61_4 C112_4 1_555 1_555
C113_4 C112_4 1_555 1_555
C114_4 C109_4 1_555 1_555
H62_4 C114_4 1_555 1_555
N31_4 N32_4 1_555 1_555
N32_4 N33_4 1_555 1_555
N33_4 C115_4 1_555 1_555
C115_4 H63_4 1_555 1_555
C116_4 C111_4 1_555 1_555
C117_4 N33_4 1_555 1_555
C118_4 C117_4 1_555 1_555
H64_4 C118_4 1_555 1_555
C119_4 C118_4 1_555 1_555
H65_4 C119_4 1_555 1_555
C120_4 C119_4 1_555 1_555
C121_4 C120_4 1_555 1_555
H66_4 C121_4 1_555 1_555
C122_4 C117_4 1_555 1_555
H67_4 C122_4 1_555 1_555
C123_4 C120_4 1_555 1_555
C124_4 C113_4 1_555 1_555
C125_4 C124_4 1_555 1_555
H68_4 C125_4 1_555 1_555
N34_4 C125_4 1_555 1_555
N35_4 N34_4 1_555 1_555
N36_4 C124_4 1_555 1_555
C22_4 C23_4 1_555 1_555
N29_4 N30_4 1_555 1_555
C113_4 C114_4 1_555 1_555
N31_4 C116_4 1_555 1_555
C115_4 C116_4 1_555 1_555
C121_4 C122_4 1_555 1_555
N35_4 N36_4 1_555 1_555
O32_2 C66_4 1_555 1_555
O36_2 C66_4 1_555 1_555
H33_4 C61_4 1_555 1_555
C62_4 C61_4 1_555 1_555
H34_4 C62_4 1_555 1_555
C63_4 C62_4 1_555 1_555
C64_4 C63_4 1_555 1_555
H35_4 C64_4 1_555 1_555
C66_4 C63_4 1_555 1_555
O1_5 Zn10 1_555 1_555
O30 C33_4 1_555 1_555
O40 C33_4 1_555 1_555
C3_4 C2_4 1_555 1_555
H1_4 C3_4 1_555 1_555
C4_4 C3_4 1_555 1_555
H2_4 C4_4 1_555 1_555
C5_4 C4_4 1_555 1_555
C6_4 C5_4 1_555 1_555
H3_4 C6_4 1_555 1_555
C7_4 C2_4 1_555 1_555
H4_4 C7_4 1_555 1_555
N1_4 C5_4 1_555 1_555
C8_4 N1_4 1_555 1_555
H5_4 C8_4 1_555 1_555
C9_4 C8_4 1_555 1_555
N2_4 C9_4 1_555 1_555
N3_4 N1_4 1_555 1_555
C10_4 C9_4 1_555 1_555
C11_4 C10_4 1_555 1_555
H6_4 C11_4 1_555 1_555
C12_4 C11_4 1_555 1_555
C13_4 C12_4 1_555 1_555
H7_4 C13_4 1_555 1_555
C14_4 C13_4 1_555 1_555
C15_4 C10_4 1_555 1_555
H8_4 C15_4 1_555 1_555
C16_4 C12_4 1_555 1_555
N4_4 C16_4 1_555 1_555
C17_4 C16_4 1_555 1_555
H9_4 C17_4 1_555 1_555
C25_4 C14_4 1_555 1_555
C26_4 C25_4 1_555 1_555
H14_4 C26_4 1_555 1_555
N7_4 C26_4 1_555 1_555
N8_4 N7_4 1_555 1_555
N9_4 C25_4 1_555 1_555
C27_4 N7_4 1_555 1_555
C28_4 C27_4 1_555 1_555
H15_4 C28_4 1_555 1_555
C29_4 C28_4 1_555 1_555
H16_4 C29_4 1_555 1_555
C30_4 C29_4 1_555 1_555
C31_4 C30_4 1_555 1_555
H17_4 C31_4 1_555 1_555
C32_4 C27_4 1_555 1_555
H18_4 C32_4 1_555 1_555
C33_4 C30_4 1_555 1_555
Zn10 O20_4 1_555 1_555
Zn18 O16_4 1_555 1_555
Zn22_2 O23_4 1_555 1_555
O16_4 C67_4 1_555 1_555
O20_4 C67_4 1_555 1_555
O22_4 Zn18 1_555 1_555
O23_4 C100_4 1_555 1_555
O24_4 Zn22_2 1_555 1_555
C100_4 O22_4 1_555 1_555
C101_4 C100_4 1_555 1_555
C106_4 C101_4 1_555 1_555
H58_4 C106_4 1_555 1_555
C6_4 C7_4 1_555 1_555
N2_4 N3_4 1_555 1_555
C14_4 C15_4 1_555 1_555
N8_4 N9_4 1_555 1_555
C31_4 C32_4 1_555 1_555
O24_4 H73_4 1_555 1_555
O24_4 H74_4 1_555 1_555
O34_2 C57_4 1_555 1_555
O42_2 C57_4 1_555 1_555
H19_4 C36_4 1_555 1_555
C37_4 C36_4 1_555 1_555
H20_4 C37_4 1_555 1_555
C38_4 C37_4 1_555 1_555
C39_4 C38_4 1_555 1_555
H21_4 C39_4 1_555 1_555
N10_4 C38_4 1_555 1_555
C41_4 N10_4 1_555 1_555
H23_4 C41_4 1_555 1_555
C42_4 C41_4 1_555 1_555
N11_4 C42_4 1_555 1_555
N12_4 N10_4 1_555 1_555
C43_4 C42_4 1_555 1_555
C44_4 C43_4 1_555 1_555
H24_4 C44_4 1_555 1_555
C45_4 C44_4 1_555 1_555
C46_4 C45_4 1_555 1_555
H25_4 C46_4 1_555 1_555
C47_4 C46_4 1_555 1_555
C48_4 C43_4 1_555 1_555
H26_4 C48_4 1_555 1_555
N13_4 N14_4 1_555 1_555
N14_4 N15_4 1_555 1_555
N15_4 C49_4 1_555 1_555
C49_4 H27_4 1_555 1_555
C50_4 C45_4 1_555 1_555
C51_4 N15_4 1_555 1_555
C52_4 C51_4 1_555 1_555
H28_4 C52_4 1_555 1_555
C53_4 C52_4 1_555 1_555
H29_4 C53_4 1_555 1_555
C54_4 C53_4 1_555 1_555
C55_4 C54_4 1_555 1_555
H30_4 C55_4 1_555 1_555
C56_4 C51_4 1_555 1_555
H31_4 C56_4 1_555 1_555
C57_4 C54_4 1_555 1_555
C58_4 C47_4 1_555 1_555
C59_4 C58_4 1_555 1_555
H32_4 C59_4 1_555 1_555
N16_4 C59_4 1_555 1_555
N17_4 N16_4 1_555 1_555
N18_4 C58_4 1_555 1_555
O33_2 C132_4 1_555 1_555
O37_2 C132_4 1_555 1_555
C127_4 C126_4 1_555 1_555
H69_4 C127_4 1_555 1_555
C128_4 C127_4 1_555 1_555
H70_4 C128_4 1_555 1_555
C129_4 C128_4 1_555 1_555
C130_4 C129_4 1_555 1_555
H71_4 C130_4 1_555 1_555
C131_4 C126_4 1_555 1_555
H72_4 C131_4 1_555 1_555
C132_4 C129_4 1_555 1_555
N11_4 N12_4 1_555 1_555
C47_4 C48_4 1_555 1_555
N13_4 C50_4 1_555 1_555
C49_4 C50_4 1_555 1_555
C55_4 C56_4 1_555 1_555
N17_4 N18_4 1_555 1_555
C130_4 C131_4 1_555 1_555
O29_2 C90_4 1_555 1_555
O39_2 C90_4 1_555 1_555
N24_4 N23_4 1_555 1_555
C84_4 N24_4 1_555 1_555
C85_4 C84_4 1_555 1_555
H46_4 C85_4 1_555 1_555
C86_4 C85_4 1_555 1_555
H47_4 C86_4 1_555 1_555
C87_4 C86_4 1_555 1_555
C88_4 C87_4 1_555 1_555
H48_4 C88_4 1_555 1_555
C89_4 C84_4 1_555 1_555
H49_4 C89_4 1_555 1_555
C90_4 C87_4 1_555 1_555
C88_4 C89_4 1_555 1_555
Zn9 O1_6 1_555 1_555
Zn16 O3_4 1_555 1_555
Zn21_2 O10_4 1_555 1_555
O3_4 C1_4 1_555 1_555
O7_4 Zn9 1_555 1_555
O9_4 Zn16 1_555 1_555
O10_4 C34_4 1_555 1_555
O11_4 Zn21_2 1_555 1_555
C1_4 O7_4 1_555 1_555
C34_4 O9_4 1_555 1_555
C35_4 C34_4 1_555 1_555
C40_4 C35_4 1_555 1_555
H22_4 C40_4 1_555 1_555
C68_4 C69_4 1_555 1_555
C69_4 H37_4 1_555 1_555
C70_4 C69_4 1_555 1_555
H38_4 C70_4 1_555 1_555
C71_4 C70_4 1_555 1_555
C72_4 C71_4 1_555 1_555
H39_4 C72_4 1_555 1_555
C73_4 C68_4 1_555 1_555
H40_4 C73_4 1_555 1_555
N19_4 C71_4 1_555 1_555
N21_4 N19_4 1_555 1_555
C72_4 C73_4 1_555 1_555
O11_4 H75_4 1_555 1_555
O11_4 H76_4 1_555 1_555
O31 C99_4 1_555 1_555
O41 C99_4 1_555 1_555
H41_4 C74_4 1_555 1_555
C75_4 C74_4 1_555 1_555
N20_4 C75_4 1_555 1_555
C76_4 C75_4 1_555 1_555
C77_4 C76_4 1_555 1_555
H42_4 C77_4 1_555 1_555
C78_4 C77_4 1_555 1_555
C79_4 C78_4 1_555 1_555
H43_4 C79_4 1_555 1_555
C80_4 C79_4 1_555 1_555
C81_4 C76_4 1_555 1_555
H44_4 C81_4 1_555 1_555
C82_4 C78_4 1_555 1_555
N22_4 C82_4 1_555 1_555
C83_4 C82_4 1_555 1_555
H45_4 C83_4 1_555 1_555
C91_4 C80_4 1_555 1_555
C92_4 C91_4 1_555 1_555
H50_4 C92_4 1_555 1_555
N25_4 C92_4 1_555 1_555
N26_4 N25_4 1_555 1_555
N27_4 C91_4 1_555 1_555
C93_4 N25_4 1_555 1_555
C94_4 C93_4 1_555 1_555
H51_4 C94_4 1_555 1_555
C95_4 C94_4 1_555 1_555
H52_4 C95_4 1_555 1_555
C96_4 C95_4 1_555 1_555
C97_4 C96_4 1_555 1_555
H53_4 C97_4 1_555 1_555
C98_4 C93_4 1_555 1_555
H54_4 C98_4 1_555 1_555
C99_4 C96_4 1_555 1_555
C80_4 C81_4 1_555 1_555
N26_4 N27_4 1_555 1_555
C97_4 C98_4 1_555 1_555

#END
