
###############################################################################
#
# This file contains modified crystal structure data generated from the
# MOF subset of the Cambridge Structural Database (CSD) v543 
# hosted by the Cambridge Crystallographic Data Centre (CCDC).
#
# This work is licensed under the Creative Commons
# Attribution-NonCommercial-ShareAlike 4.0 International License.
# To view a copy of this license, visit
# http://creativecommons.org/licenses/by-nc-sa/4.0/
# or send a letter to
# Creative Commons, PO Box 1866, Mountain View, CA 94042, USA.
#
# CIF created using the CSD Python API on 29 September 2022
# The structure has been converted into the P1 space group
# The structure has a 3D framework
# The original CSD entry KAWQOP is in the monoclinic crystal system
# The framework has been calculated to contain at least 10.0% void space
# The void calculation uses a probe of radius 1.32A, grid spacing 0.4
# H atom positions have been added when not included in the experimental data
#
###############################################################################

data_KAWQOP
_chemical_formula_moiety         '(C24 H46 Cu4 Fe6 N18)n'
_symmetry_cell_setting           triclinic
_symmetry_space_group_name_H-M   'P 1'
_symmetry_Int_Tables_number      1
_space_group_name_Hall           'P 1'
loop_
_symmetry_equiv_pos_site_id
_symmetry_equiv_pos_as_xyz
1 x,y,z
_cell_length_a                   7.634(2)
_cell_length_b                   10.658(2)
_cell_length_c                   12.973(3)
_cell_angle_alpha                90
_cell_angle_beta                 90.21(1)
_cell_angle_gamma                90
_cell_volume                     1055.52
loop_
_atom_site_label
_atom_site_type_symbol
_atom_site_fract_x
_atom_site_fract_y
_atom_site_fract_z
Fe1 Fe 0.0000 0.5000 0.0000
Cu2 Cu 0.49849(9) 0.27432(7) 0.18399(5)
Cu4 Cu 0.00151(9) 0.77432(7) 0.31601(5)
N6 N 0.2853(7) 0.3409(4) 0.1000(3)
N9 N 0.7170(7) 0.3287(5) 0.0991(3)
N11 N 0.4958(7) 0.4270(4) 0.2618(4)
H12 H 0.3831 0.4515 0.2581
H14 H 0.5540 0.4805 0.2205
N14 N 0.5015(6) 0.1714(5) 0.3080(3)
N16 N 0.5372(8) 0.1285(5) 0.0984(4)
H16 H 0.4635 0.1299 0.0441
H18 H 0.4841 0.0579 0.1327
C7 C 0.1754(7) 0.3988(5) 0.0639(4)
H25 H 0.664505 0.114782 0.0791169
H26 H 0.544702 0.419738 0.334416
Fe1_2 Fe 0.0000 0.5000 1.0000
N2 N 0.2830(7) 0.6713(5) 0.9009(3)
C2 C 0.1753(7) 0.6032(6) 0.9341(4)
Cu3 Cu 0.50151(9) 0.72568(7) 0.81601(5)
N12 N 0.0015(6) 0.3286(5) 0.8080(3)
C12 C 0.0184(8) 0.3890(5) 0.8782(4)
H13 H 0.0540 0.0195 0.7205
C9 C 0.0492(8) 0.0334(6) 0.8616(4)
H20 H 0.0915 0.1053 0.9003
Fe1_3 Fe 1.0000 0.5000 0.0000
N4 N 0.9985(6) 0.6714(5) 0.1920(3)
C6 C 0.9816(8) 0.6110(5) 0.1218(4)
C8 C 0.8247(7) 0.3968(6) 0.0659(4)
H24 H 0.2759 0.9307 0.0007
Fe1_4 Fe 1.0000 0.5000 1.0000
N1 N 0.7147(7) 0.6591(4) 0.9000(3)
N3 N 0.5042(7) 0.5730(4) 0.7382(4)
H1 H 0.6169 0.5485 0.7419
H2 H 0.4460 0.5195 0.7795
N5 N 0.0372(8) 0.3715(5) 0.5984(4)
C1 C 0.8246(7) 0.6012(5) 0.9361(4)
C3 C 0.4508(8) 0.5334(6) 0.6384(4)
H5 H 0.5506 0.4989 0.6021
H6 H 0.4085 0.6053 0.5997
C4 C 0.3148(8) 0.4404(5) 0.6438(4)
H7 H 0.2311 0.4793 0.6891
H8 H 0.3701 0.3737 0.6852
C5 C 0.2185(9) 0.3808(7) 0.5618(5)
H9 H 0.2659 0.2982 0.5476
H10 H 0.2241 0.4307 0.4993
Cu7 Cu 0.99849(9) 0.22568(7) 0.68399(5)
N13 N 0.4985(6) 0.8286(5) 0.6920(3)
N15 N 0.4628(8) 0.8715(5) 0.9016(4)
H15 H 0.5365 0.8701 0.9559
H17 H 0.5159 0.9421 0.8673
C10 C 0.1852(8) 0.9404(5) 0.8562(4)
H21 H 0.2689 0.9793 0.8109
H22 H 0.1299 0.8737 0.8148
C11 C 0.2815(9) 0.8808(7) 0.9382(5)
H23 H 0.2341 0.7982 0.9524
N10 N 0.9958(7) 0.0730(4) 0.7618(4)
H11 H 0.8831 0.0485 0.7581
H3 H 0.9635 0.3701 0.5441
H4 H 0.9841 0.4421 0.6327
H19 H 0.9494 0.9989 0.8979
N8 N 0.2170(7) 0.1713(5) 0.5991(3)
Fe1_5 Fe 0.5000 -0.0000 0.5000
N1_2 N 0.7853(7) 0.1591(4) 0.6000(3)
C1_2 C 0.6754(7) 0.1012(5) 0.5639(4)
C2_2 C 0.3247(7) 0.1032(6) 0.5659(4)
C6_2 C 0.5184(8) 0.1110(5) 0.3782(4)
Fe1_6 Fe 0.5000 1.0000 0.5000
N6_2 N 0.2147(7) 0.8409(4) 0.4000(3)
N7 N 0.7830(7) 0.8287(5) 0.4009(3)
N11_2 N 0.0042(7) 0.9270(4) 0.2382(4)
H12_2 H 0.1169 0.9515 0.2419
H16_2 H 0.0365 0.6299 0.4559
H18_2 H 0.0159 0.5579 0.3673
C7_2 C 0.3246(7) 0.8988(5) 0.4361(4)
C8_2 C 0.6753(7) 0.8968(6) 0.4341(4)
C12_2 C 0.4816(8) 0.8890(5) 0.6218(4)
H14_2 H 0.9460 0.9805 0.2795
N16_2 N 0.9628(8) 0.6285(5) 0.4016(4)
H25_2 H 0.835495 0.614782 0.420883
H26_2 H 0.955298 0.919738 0.165584
H19_2 H 0.0506 0.0011 0.1021
C3_2 C 0.5492(8) 0.4666(6) 0.3616(4)
H5_2 H 0.4494 0.5011 0.3979
H6_2 H 0.5915 0.3947 0.4003
C4_2 C 0.6852(8) 0.5596(5) 0.3562(4)
H7_2 H 0.7689 0.5207 0.3109
H8_2 H 0.6299 0.6263 0.3148
C5_2 C 0.7815(9) 0.6192(7) 0.4382(5)
H9_2 H 0.7341 0.7018 0.4524
H10_2 H 0.7759 0.5693 0.5007
C10_2 C 0.8148(8) 0.0596(5) 0.1438(4)
H21_2 H 0.7311 0.0207 0.1891
H22_2 H 0.8701 0.1263 0.1852
C11_2 C 0.7185(9) 0.1192(7) 0.0618(5)
H23_2 H 0.7659 0.2018 0.0476
H24_2 H 0.7241 0.0693 0.9993
C9_2 C 0.9508(8) 0.9666(6) 0.1384(4)
H20_2 H 0.9085 0.8947 0.0997
H25_3 H 0.335495 0.885218 0.920883
H26_3 H 0.455298 0.580262 0.665584
H25_4 H 0.164505 0.385218 0.579117
H26_4 H 0.044702 0.0802621 0.834416
loop_
_geom_bond_atom_site_label_1
_geom_bond_atom_site_label_2
_geom_bond_site_symmetry_1
_geom_bond_site_symmetry_2
Cu2 N6 1_555 1_555
N6 C7 1_555 1_555
N9 Cu2 1_555 1_555
N11 Cu2 1_555 1_555
H12 N11 1_555 1_555
H14 N11 1_555 1_555
N14 Cu2 1_555 1_555
N16 Cu2 1_555 1_555
H16 N16 1_555 1_555
H18 N16 1_555 1_555
C7 Fe1 1_555 1_555
N16 H25 1_555 1_555
N11 H26 1_555 1_555
N2 C2 1_555 1_555
C2 Fe1_2 1_555 1_555
Cu3 N2 1_555 1_555
N12 C12 1_555 1_555
C12 Fe1_2 1_555 1_555
H20 C9 1_555 1_555
N4 C6 1_555 1_555
C6 Fe1_3 1_555 1_555
N9 C8 1_555 1_555
C8 Fe1_3 1_555 1_555
Cu3 N1 1_555 1_555
Fe1_4 C1 1_555 1_555
N1 C1 1_555 1_555
N3 Cu3 1_555 1_555
H1 N3 1_555 1_555
H2 N3 1_555 1_555
C3 N3 1_555 1_555
H5 C3 1_555 1_555
H6 C3 1_555 1_555
C4 C3 1_555 1_555
H7 C4 1_555 1_555
H8 C4 1_555 1_555
C5 N5 1_555 1_555
H9 C5 1_555 1_555
H10 C5 1_555 1_555
N13 Cu3 1_555 1_555
N15 Cu3 1_555 1_555
H15 N15 1_555 1_555
H17 N15 1_555 1_555
H21 C10 1_555 1_555
H22 C10 1_555 1_555
C11 N15 1_555 1_555
H23 C11 1_555 1_555
C4 C5 1_555 1_555
C10 C11 1_555 1_555
Cu7 N10 1_555 1_555
N10 H11 1_555 1_555
Cu7 N1_2 1_555 1_555
Fe1_5 C1_2 1_555 1_555
N1_2 C1_2 1_555 1_555
N8 C2_2 1_555 1_555
N14 C6_2 1_555 1_555
C2_2 Fe1_5 1_555 1_555
C6_2 Fe1_5 1_555 1_555
Cu4 N6_2 1_555 1_555
N6_2 C7_2 1_555 1_555
N7 C8_2 1_555 1_555
N11_2 Cu4 1_555 1_555
H12_2 N11_2 1_555 1_555
N13 C12_2 1_555 1_555
C7_2 Fe1_6 1_555 1_555
C8_2 Fe1_6 1_555 1_555
C12_2 Fe1_6 1_555 1_555
N16_2 H25_2 1_555 1_555
C3_2 N11 1_555 1_555
H5_2 C3_2 1_555 1_555
H6_2 C3_2 1_555 1_555
C4_2 C3_2 1_555 1_555
H7_2 C4_2 1_555 1_555
H8_2 C4_2 1_555 1_555
C5_2 N16_2 1_555 1_555
H9_2 C5_2 1_555 1_555
H10_2 C5_2 1_555 1_555
H21_2 C10_2 1_555 1_555
H22_2 C10_2 1_555 1_555
C11_2 N16 1_555 1_555
H23_2 C11_2 1_555 1_555
C4_2 C5_2 1_555 1_555
C10_2 C11_2 1_555 1_555
H20_2 C9_2 1_555 1_555
N15 H25_3 1_555 1_555
N3 H26_3 1_555 1_555
N5 H25_4 1_555 1_555

#END
