
###############################################################################
#
# This file contains modified crystal structure data generated from the
# MOF subset of the Cambridge Structural Database (CSD) v543 
# hosted by the Cambridge Crystallographic Data Centre (CCDC).
#
# This work is licensed under the Creative Commons
# Attribution-NonCommercial-ShareAlike 4.0 International License.
# To view a copy of this license, visit
# http://creativecommons.org/licenses/by-nc-sa/4.0/
# or send a letter to
# Creative Commons, PO Box 1866, Mountain View, CA 94042, USA.
#
# CIF created using the CSD Python API on 29 September 2022
# The structure has been converted into the P1 space group
# The structure has a 3D framework
# The original CSD entry KAWXEO is in the cubic crystal system
# The original CSD entry KAWXEO is in a Sohncke space group
# The framework has been calculated to contain at least 10.0% void space
# The void calculation uses a probe of radius 1.32A, grid spacing 0.4
# The framework is charged, counterions have been retained in the structure
# H atom positions have been added when not included in the experimental data
#
###############################################################################

data_KAWXEO
_chemical_formula_moiety         '(C306 H210 Gd27 Mn6 N48 O160 6+)n'
_symmetry_cell_setting           triclinic
_symmetry_space_group_name_H-M   'P 1'
_symmetry_Int_Tables_number      1
_space_group_name_Hall           'P 1'
loop_
_symmetry_equiv_pos_site_id
_symmetry_equiv_pos_as_xyz
1 x,y,z
_cell_length_a                   23.9335(4)
_cell_length_b                   23.9335(4)
_cell_length_c                   23.9335(4)
_cell_angle_alpha                90
_cell_angle_beta                 90
_cell_angle_gamma                90
_cell_volume                     13709.4
loop_
_atom_site_label
_atom_site_type_symbol
_atom_site_fract_x
_atom_site_fract_y
_atom_site_fract_z
Mn1 Mn 0.02380(14) 0.02380(14) 0.02380(14)
Gd3 Gd 0.12496(4) 0.26626(5) 0.73951(4)
Gd4 Gd 0.27639(5) 0.22361(5) 0.77639(5)
O10 O 0.1782(7) 0.3218(7) 0.6782(7)
O11 O 0.2058(5) 0.2940(4) 0.7875(6)
O12 O 0.1357(7) 0.1953(7) 0.8025(6)
O13 O 0.0499(9) 0.3099(8) 0.6785(9)
H9 H 0.0626 0.3408 0.6481
H10 H 0.0265 0.2821 0.6517
C19 C 0.1644(10) 0.1097(9) 0.9284(10)
H14 H 0.2026 0.1132 0.9344
C20 C 0.1330(10) 0.0827(9) 0.9641(10)
H15 H 0.1514 0.0680 0.9950
N4 N 0.0769(7) 0.0732(7) 0.9620(8)
C21 C 0.0497(8) 0.0970(9) 0.9153(8)
C22 C 0.0771(9) 0.1280(10) 0.8750(10)
H16 H 0.0568 0.1444 0.8462
C23 C 0.1375(11) 0.1352(11) 0.8772(11)
C24 C 0.1684(11) 0.1647(11) 0.8406(11)
O15 O 0.2247(7) 0.1632(7) 0.8332(7)
O16 O 0.0440(13) 0.2607(14) 0.7978(13)
C25 C -0.0000 0.2500 0.8127(11)
Gd18 Gd 0.23951(4) 0.37504(4) 0.73374(5)
Gd19 Gd 0.23374(5) 0.26049(4) 0.62496(4)
Mn3 Mn 0.47620(14) 0.02380(14) 0.97620(14)
O52 O 0.2875(6) 0.2942(5) 0.7060(4)
O53 O 0.2060(4) 0.2125(6) 0.7058(5)
O56 O 0.0840(9) 0.1967(8) 0.6821(8)
O60 O 0.3332(7) 0.2753(7) 0.8368(7)
O61 O 0.3368(7) 0.1668(7) 0.7247(7)
O65 O 0.1069(7) 0.3566(8) 0.7763(7)
H50 H -5.93535e-17 0.25 0.858201
Gd1 Gd 0.26626(5) 0.73951(4) 0.12496(4)
Gd2 Gd 0.22361(5) 0.77639(5) 0.27639(5)
O1 O 0.3218(7) 0.6782(7) 0.1782(7)
O2 O 0.2940(4) 0.7875(6) 0.2058(5)
O3 O 0.1953(7) 0.8025(6) 0.1357(7)
O4 O 0.3099(8) 0.6785(9) 0.0499(9)
H1 H 0.3408 0.6481 0.0626
H2 H 0.2821 0.6517 0.0265
C6 C 0.1097(9) 0.9284(10) 0.1644(10)
H6 H 0.1132 0.9344 0.2026
C7 C 0.0827(9) 0.9641(10) 0.1330(10)
H7 H 0.0680 0.9950 0.1514
N2 N 0.0732(7) 0.9620(8) 0.0769(7)
C8 C 0.0970(9) 0.9153(8) 0.0497(8)
C9 C 0.1280(10) 0.8750(10) 0.0771(9)
H8 H 0.1444 0.8462 0.0568
C10 C 0.1352(11) 0.8772(11) 0.1375(11)
C11 C 0.1647(11) 0.8406(11) 0.1684(11)
O6 O 0.1632(7) 0.8332(7) 0.2247(7)
O7 O 0.2607(14) 0.7978(13) 0.0440(13)
C12 C 0.2500 0.8127(11) 0.0000
O36 O 0.4160(9) 0.8033(8) 0.1821(8)
C52 C 0.4153(6) 0.9084(5) 0.0076(4)
C53 C 0.3973(6) 0.8638(5) 0.0402(5)
H35 H 0.3756 0.8357 0.0244
C54 C 0.4118(6) 0.8613(5) 0.0964(5)
C55 C 0.4442(6) 0.9033(6) 0.1200(4)
H36 H 0.4539 0.9015 0.1576
C56 C 0.4622(5) 0.9479(5) 0.0874(5)
H37 H 0.4839 0.9760 0.1032
N9 N 0.4477(5) 0.9504(4) 0.0312(5)
O38 O 0.3566(8) 0.7763(7) 0.1069(7)
C63 C 0.3856(15) 0.8133(14) 0.1260(16)
Gd8 Gd 0.26049(4) 0.62496(4) 0.23374(5)
O39 O 0.2125(6) 0.7058(5) 0.2060(4)
O40 O 0.1975(6) 0.6357(7) 0.3047(7)
O41 O 0.3215(9) 0.5499(9) 0.1901(8)
H41 H 0.3519 0.5626 0.1592
H42 H 0.3483 0.5265 0.2179
O42 O 0.1967(8) 0.3179(8) 0.4160(9)
C64 C 0.0916(5) 0.4924(4) 0.4153(6)
C65 C 0.1362(5) 0.4598(5) 0.3973(6)
H43 H 0.1643 0.4756 0.3756
C66 C 0.1387(5) 0.4036(5) 0.4118(6)
C67 C 0.0967(6) 0.3800(4) 0.4442(6)
H44 H 0.0985 0.3424 0.4539
C68 C 0.0521(5) 0.4126(5) 0.4622(5)
H45 H 0.0240 0.3968 0.4839
N11 N 0.0496(4) 0.4688(5) 0.4477(5)
C69 C 0.0716(10) 0.6644(10) 0.3903(9)
H46 H 0.0656 0.7026 0.3868
C70 C 0.0359(10) 0.6330(10) 0.4173(9)
H47 H 0.0050 0.6514 0.4320
N12 N 0.0380(8) 0.5769(7) 0.4268(7)
C71 C 0.0847(8) 0.5497(8) 0.4030(9)
C72 C 0.1250(10) 0.5771(9) 0.3720(10)
H48 H 0.1538 0.5568 0.3556
C73 C 0.1228(11) 0.6375(11) 0.3648(11)
C74 C 0.1594(11) 0.6684(11) 0.3353(11)
O43 O 0.1668(7) 0.7247(7) 0.3368(7)
O44 O 0.2237(7) 0.3931(7) 0.3566(8)
C75 C 0.1867(14) 0.3740(16) 0.3856(15)
Gd9 Gd 0.26049(4) 0.37504(4) 0.26626(5)
Gd14 Gd 0.26626(5) 0.26049(4) 0.37504(4)
Gd16 Gd 0.37504(4) 0.73374(5) 0.23951(4)
O51 O 0.2942(5) 0.7060(4) 0.2875(6)
O54 O 0.1967(8) 0.6821(8) 0.0840(9)
O57 O 0.3179(8) 0.5840(9) 0.3033(8)
N13 N 0.0496(4) 0.5312(5) 0.0523(5)
N15 N 0.0380(8) 0.4231(7) 0.0732(7)
O59 O 0.2753(7) 0.8368(7) 0.3332(7)
O63 O 0.2022(13) 0.5440(13) 0.2393(14)
O64 O 0.2237(7) 0.6069(7) 0.1434(8)
H49 H 0.25 0.858201 0
O5 O 0.0840(9) 0.8033(8) 0.8179(8)
C1 C 0.0847(6) 0.9084(5) 0.9924(4)
C2 C 0.1027(6) 0.8638(5) 0.9598(5)
H3 H 0.1244 0.8357 0.9756
C3 C 0.0882(6) 0.8613(5) 0.9036(5)
C4 C 0.0558(6) 0.9033(6) 0.8800(4)
H4 H 0.0461 0.9015 0.8424
C5 C 0.0378(5) 0.9479(5) 0.9126(5)
H5 H 0.0161 0.9760 0.8968
N1 N 0.0523(5) 0.9504(4) 0.9688(5)
C12_2 C 0.2500 0.8127(11) 1.0000
O8 O 0.1434(8) 0.7763(7) 0.8931(7)
C13 C 0.1144(15) 0.8133(14) 0.8740(16)
O9 O 0.2393(14) 0.7978(13) 0.9560(13)
Gd7 Gd 0.23374(5) 0.73951(4) 0.87504(4)
O33 O 0.2060(4) 0.7875(6) 0.7942(5)
O34 O 0.3047(7) 0.8025(6) 0.8643(7)
O35 O 0.1901(8) 0.6785(9) 0.9501(9)
H33 H 0.1592 0.6481 0.9374
H34 H 0.2179 0.6517 0.9735
C57 C 0.3903(9) 0.9284(10) 0.8356(10)
H38 H 0.3868 0.9344 0.7974
C58 C 0.4173(9) 0.9641(10) 0.8670(10)
H39 H 0.4320 0.9950 0.8486
N10 N 0.4268(7) 0.9620(8) 0.9231(7)
C59 C 0.4030(9) 0.9153(8) 0.9503(8)
C60 C 0.3720(10) 0.8750(10) 0.9229(9)
H40 H 0.3556 0.8462 0.9432
C61 C 0.3648(11) 0.8772(11) 0.8625(11)
C62 C 0.3353(11) 0.8406(11) 0.8316(11)
O37 O 0.3368(7) 0.8332(7) 0.7753(7)
Gd10 Gd 0.12496(4) 0.73374(5) 0.76049(4)
Gd23 Gd 0.27639(5) 0.77639(5) 0.72361(5)
O46 O 0.1782(7) 0.6782(7) 0.8218(7)
O49 O 0.2875(6) 0.7058(5) 0.7940(4)
O58 O 0.3033(8) 0.6821(8) 0.9160(9)
N14 N 0.0312(5) 0.4477(5) 0.9504(4)
H49_2 H 0.25 0.858201 1
Gd5 Gd 0.73951(4) 0.12496(4) 0.26626(5)
O19 O 0.7875(6) 0.2058(5) 0.2940(4)
O20 O 0.8025(6) 0.1357(7) 0.1953(7)
O21 O 0.6785(9) 0.0499(9) 0.3099(8)
H17 H 0.6481 0.0626 0.3408
H18 H 0.6517 0.0265 0.2821
C32 C 0.9284(10) 0.1644(10) 0.1097(9)
H22 H 0.9344 0.2026 0.1132
C33 C 0.9641(10) 0.1330(10) 0.0827(9)
H23 H 0.9950 0.1514 0.0680
N6 N 0.9620(8) 0.0769(7) 0.0732(7)
C34 C 0.9153(8) 0.0497(8) 0.0970(9)
C35 C 0.8750(10) 0.0771(9) 0.1280(10)
H24 H 0.8462 0.0568 0.1444
C36 C 0.8772(11) 0.1375(11) 0.1352(11)
C37 C 0.8406(11) 0.1684(11) 0.1647(11)
O23 O 0.8332(7) 0.2247(7) 0.1632(7)
O24 O 0.7978(13) 0.0440(13) 0.2607(14)
C38 C 0.8127(11) -0.0000 0.2500
Gd21 Gd 0.73374(5) 0.23951(4) 0.37504(4)
Gd22 Gd 0.77639(5) 0.27639(5) 0.22361(5)
O45 O 0.6782(7) 0.1782(7) 0.3218(7)
O50 O 0.7058(5) 0.2060(4) 0.2125(6)
O55 O 0.6821(8) 0.0840(9) 0.1967(8)
O66 O 0.7763(7) 0.1069(7) 0.3566(8)
H51 H 0.858201 -1.11022e-16 0.25
O14 O 0.8179(8) 0.0840(9) 0.8033(8)
C14 C 0.9924(4) 0.0847(6) 0.9084(5)
C15 C 0.9598(5) 0.1027(6) 0.8638(5)
H11 H 0.9756 0.1244 0.8357
C16 C 0.9036(5) 0.0882(6) 0.8613(5)
C17 C 0.8800(4) 0.0558(6) 0.9033(6)
H12 H 0.8424 0.0461 0.9015
C18 C 0.9126(5) 0.0378(5) 0.9479(5)
H13 H 0.8968 0.0161 0.9760
N3 N 0.9688(5) 0.0523(5) 0.9504(4)
C25_2 C 1.0000 0.2500 0.8127(11)
O17 O 0.8931(7) 0.1434(8) 0.7763(7)
C26 C 0.8740(16) 0.1144(15) 0.8133(14)
O18 O 0.9560(13) 0.2393(14) 0.7978(13)
Gd11 Gd 0.76049(4) 0.12496(4) 0.73374(5)
Gd12 Gd 0.87504(4) 0.23374(5) 0.73951(4)
H50_2 H 1 0.25 0.858201
O22 O 0.8033(8) 0.8179(8) 0.0840(9)
C27 C 0.9084(5) 0.9924(4) 0.0847(6)
C28 C 0.8638(5) 0.9598(5) 0.1027(6)
H19 H 0.8357 0.9756 0.1244
C29 C 0.8613(5) 0.9036(5) 0.0882(6)
C30 C 0.9033(6) 0.8800(4) 0.0558(6)
H20 H 0.9015 0.8424 0.0461
C31 C 0.9479(5) 0.9126(5) 0.0378(5)
H21 H 0.9760 0.8968 0.0161
N5 N 0.9504(4) 0.9688(5) 0.0523(5)
C38_2 C 0.8127(11) 1.0000 0.2500
O25 O 0.7763(7) 0.8931(7) 0.1434(8)
C39 C 0.8133(14) 0.8740(16) 0.1144(15)
O26 O 0.7978(13) 0.9560(13) 0.2393(14)
Gd6 Gd 0.73374(5) 0.76049(4) 0.12496(4)
Mn2 Mn 0.97620(14) 0.47620(14) 0.02380(14)
O27 O 0.7060(4) 0.7125(6) 0.2058(5)
O28 O 0.8047(7) 0.6975(6) 0.1357(7)
O29 O 0.6901(8) 0.8215(9) 0.0499(9)
H25 H 0.6592 0.8519 0.0626
H26 H 0.7179 0.8483 0.0265
C45 C 0.8903(9) 0.5716(10) 0.1644(10)
H30 H 0.8868 0.5656 0.2026
C46 C 0.9173(9) 0.5359(10) 0.1330(10)
H31 H 0.9320 0.5050 0.1514
N8 N 0.9268(7) 0.5380(8) 0.0769(7)
C47 C 0.9030(9) 0.5847(8) 0.0497(8)
C48 C 0.8720(10) 0.6250(10) 0.0771(9)
H32 H 0.8556 0.6538 0.0568
C49 C 0.8648(11) 0.6228(11) 0.1375(11)
C50 C 0.8353(11) 0.6594(11) 0.1684(11)
O31 O 0.8368(7) 0.6668(7) 0.2247(7)
Gd13 Gd 0.73951(4) 0.87504(4) 0.23374(5)
Gd15 Gd 0.62496(4) 0.76626(5) 0.23951(4)
Gd24 Gd 0.77639(5) 0.72361(5) 0.27639(5)
Mn4 Mn 0.97620(14) 0.52380(14) 0.47620(14)
O47 O 0.6782(7) 0.8218(7) 0.1782(7)
O48 O 0.7875(6) 0.7942(5) 0.2060(4)
O62 O 0.7393(14) 0.7022(13) 0.0440(13)
O67 O 0.6434(8) 0.7237(7) 0.1069(7)
H51_2 H 0.858201 1 0.25
O30 O 0.9160(9) 0.6967(8) 0.8179(8)
C40 C 0.9153(6) 0.5916(5) 0.9924(4)
C41 C 0.8973(6) 0.6362(5) 0.9598(5)
H27 H 0.8756 0.6643 0.9756
C42 C 0.9118(6) 0.6387(5) 0.9036(5)
C43 C 0.9442(6) 0.5967(6) 0.8800(4)
H28 H 0.9539 0.5985 0.8424
C44 C 0.9622(5) 0.5521(5) 0.9126(5)
H29 H 0.9839 0.5240 0.8968
N7 N 0.9477(5) 0.5496(4) 0.9688(5)
O32 O 0.8566(8) 0.7237(7) 0.8931(7)
C51 C 0.8856(15) 0.6867(14) 0.8740(16)
Gd17 Gd 0.87504(4) 0.76626(5) 0.76049(4)
Gd20 Gd 0.76626(5) 0.76049(4) 0.87504(4)
N16 N 0.9231(7) 0.4268(7) 0.9620(8)
O36_2 O 0.1821(8) 0.4160(9) 0.8033(8)
C52_2 C 0.0076(4) 0.4153(6) 0.9084(5)
C53_2 C 0.0402(5) 0.3973(6) 0.8638(5)
H35_2 H 0.0244 0.3756 0.8357
C54_2 C 0.0964(5) 0.4118(6) 0.8613(5)
C55_2 C 0.1200(4) 0.4442(6) 0.9033(6)
H36_2 H 0.1576 0.4539 0.9015
C56_2 C 0.0874(5) 0.4622(5) 0.9479(5)
H37_2 H 0.1032 0.4839 0.9760
C63_2 C 0.1260(16) 0.3856(15) 0.8133(14)
O40_2 O 0.3047(7) 0.1975(6) 0.6357(7)
O41_2 O 0.1901(8) 0.3215(9) 0.5499(9)
H41_2 H 0.1592 0.3519 0.5626
H42_2 H 0.2179 0.3483 0.5265
O42_2 O 0.4160(9) 0.1967(8) 0.3179(8)
C64_2 C 0.4153(6) 0.0916(5) 0.4924(4)
C65_2 C 0.3973(6) 0.1362(5) 0.4598(5)
H43_2 H 0.3756 0.1643 0.4756
C66_2 C 0.4118(6) 0.1387(5) 0.4036(5)
C67_2 C 0.4442(6) 0.0967(6) 0.3800(4)
H44_2 H 0.4539 0.0985 0.3424
C68_2 C 0.4622(5) 0.0521(5) 0.4126(5)
H45_2 H 0.4839 0.0240 0.3968
N11_2 N 0.4477(5) 0.0496(4) 0.4688(5)
C69_2 C 0.3903(9) 0.0716(10) 0.6644(10)
H46_2 H 0.3868 0.0656 0.7026
C70_2 C 0.4173(9) 0.0359(10) 0.6330(10)
H47_2 H 0.4320 0.0050 0.6514
N12_2 N 0.4268(7) 0.0380(8) 0.5769(7)
C71_2 C 0.4030(9) 0.0847(8) 0.5497(8)
C72_2 C 0.3720(10) 0.1250(10) 0.5771(9)
H48_2 H 0.3556 0.1538 0.5568
C73_2 C 0.3648(11) 0.1228(11) 0.6375(11)
C74_2 C 0.3353(11) 0.1594(11) 0.6684(11)
O44_2 O 0.3566(8) 0.2237(7) 0.3931(7)
C75_2 C 0.3856(15) 0.1867(14) 0.3740(16)
Gd14_2 Gd 0.37504(4) 0.26626(5) 0.26049(4)
O57_2 O 0.3033(8) 0.3179(8) 0.5840(9)
N13_2 N 0.0523(5) 0.0496(4) 0.5312(5)
N15_2 N 0.0732(7) 0.0380(8) 0.4231(7)
O63_2 O 0.2393(14) 0.2022(13) 0.5440(13)
O64_2 O 0.1434(8) 0.2237(7) 0.6069(7)
Mn2_2 Mn 0.02380(14) 0.97620(14) 0.47620(14)
O27_2 O 0.2058(5) 0.7060(4) 0.7125(6)
O28_2 O 0.1357(7) 0.8047(7) 0.6975(6)
O29_2 O 0.0499(9) 0.6901(8) 0.8215(9)
H25_2 H 0.0626 0.6592 0.8519
H26_2 H 0.0265 0.7179 0.8483
C45_2 C 0.1644(10) 0.8903(9) 0.5716(10)
H30_2 H 0.2026 0.8868 0.5656
C46_2 C 0.1330(10) 0.9173(9) 0.5359(10)
H31_2 H 0.1514 0.9320 0.5050
N8_2 N 0.0769(7) 0.9268(7) 0.5380(8)
C47_2 C 0.0497(8) 0.9030(9) 0.5847(8)
C48_2 C 0.0771(9) 0.8720(10) 0.6250(10)
H32_2 H 0.0568 0.8556 0.6538
C49_2 C 0.1375(11) 0.8648(11) 0.6228(11)
C50_2 C 0.1684(11) 0.8353(11) 0.6594(11)
O31_2 O 0.2247(7) 0.8368(7) 0.6668(7)
Gd15_2 Gd 0.23951(4) 0.62496(4) 0.76626(5)
Mn4_2 Mn 0.47620(14) 0.97620(14) 0.52380(14)
O62_2 O 0.0440(13) 0.7393(14) 0.7022(13)
O67_2 O 0.1069(7) 0.6434(8) 0.7237(7)
Gd19_2 Gd 0.62496(4) 0.23374(5) 0.26049(4)
O52_2 O 0.7060(4) 0.2875(6) 0.2942(5)
O60_2 O 0.8368(7) 0.3332(7) 0.2753(7)
O61_2 O 0.7247(7) 0.3368(7) 0.1668(7)
O33_2 O 0.7942(5) 0.2060(4) 0.7875(6)
O34_2 O 0.8643(7) 0.3047(7) 0.8025(6)
O35_2 O 0.9501(9) 0.1901(8) 0.6785(9)
H33_2 H 0.9374 0.1592 0.6481
H34_2 H 0.9735 0.2179 0.6517
C57_2 C 0.8356(10) 0.3903(9) 0.9284(10)
H38_2 H 0.7974 0.3868 0.9344
C58_2 C 0.8670(10) 0.4173(9) 0.9641(10)
H39_2 H 0.8486 0.4320 0.9950
C59_2 C 0.9503(8) 0.4030(9) 0.9153(8)
C60_2 C 0.9229(9) 0.3720(10) 0.8750(10)
H40_2 H 0.9432 0.3556 0.8462
C61_2 C 0.8625(11) 0.3648(11) 0.8772(11)
C62_2 C 0.8316(11) 0.3353(11) 0.8406(11)
O37_2 O 0.7753(7) 0.3368(7) 0.8332(7)
Gd23_2 Gd 0.72361(5) 0.27639(5) 0.77639(5)
O46_2 O 0.8218(7) 0.1782(7) 0.6782(7)
O49_2 O 0.7940(4) 0.2875(6) 0.7058(5)
O58_2 O 0.9160(9) 0.3033(8) 0.6821(8)
N14_2 N 0.9504(4) 0.0312(5) 0.4477(5)
O30_2 O 0.8179(8) 0.9160(9) 0.6967(8)
C40_2 C 0.9924(4) 0.9153(6) 0.5916(5)
C41_2 C 0.9598(5) 0.8973(6) 0.6362(5)
H27_2 H 0.9756 0.8756 0.6643
C42_2 C 0.9036(5) 0.9118(6) 0.6387(5)
C43_2 C 0.8800(4) 0.9442(6) 0.5967(6)
H28_2 H 0.8424 0.9539 0.5985
C44_2 C 0.9126(5) 0.9622(5) 0.5521(5)
H29_2 H 0.8968 0.9839 0.5240
N7_2 N 0.9688(5) 0.9477(5) 0.5496(4)
O32_2 O 0.8931(7) 0.8566(8) 0.7237(7)
C51_2 C 0.8740(16) 0.8856(15) 0.6867(14)
Gd17_2 Gd 0.76049(4) 0.87504(4) 0.76626(5)
N16_2 N 0.9620(8) 0.9231(7) 0.4268(7)
O36_3 O 0.8033(8) 0.1821(8) 0.4160(9)
C52_3 C 0.9084(5) 0.0076(4) 0.4153(6)
C53_3 C 0.8638(5) 0.0402(5) 0.3973(6)
H35_3 H 0.8357 0.0244 0.3756
C54_3 C 0.8613(5) 0.0964(5) 0.4118(6)
C55_3 C 0.9033(6) 0.1200(4) 0.4442(6)
H36_3 H 0.9015 0.1576 0.4539
C56_3 C 0.9479(5) 0.0874(5) 0.4622(5)
H37_3 H 0.9760 0.1032 0.4839
C63_3 C 0.8133(14) 0.1260(16) 0.3856(15)
O40_3 O 0.6357(7) 0.3047(7) 0.1975(6)
O41_3 O 0.5499(9) 0.1901(8) 0.3215(9)
H41_3 H 0.5626 0.1592 0.3519
H42_3 H 0.5265 0.2179 0.3483
O42_3 O 0.3179(8) 0.4160(9) 0.1967(8)
C64_3 C 0.4924(4) 0.4153(6) 0.0916(5)
C65_3 C 0.4598(5) 0.3973(6) 0.1362(5)
H43_3 H 0.4756 0.3756 0.1643
C66_3 C 0.4036(5) 0.4118(6) 0.1387(5)
C67_3 C 0.3800(4) 0.4442(6) 0.0967(6)
H44_3 H 0.3424 0.4539 0.0985
C68_3 C 0.4126(5) 0.4622(5) 0.0521(5)
H45_3 H 0.3968 0.4839 0.0240
N11_3 N 0.4688(5) 0.4477(5) 0.0496(4)
C69_3 C 0.6644(10) 0.3903(9) 0.0716(10)
H46_3 H 0.7026 0.3868 0.0656
C70_3 C 0.6330(10) 0.4173(9) 0.0359(10)
H47_3 H 0.6514 0.4320 0.0050
N12_3 N 0.5769(7) 0.4268(7) 0.0380(8)
C71_3 C 0.5497(8) 0.4030(9) 0.0847(8)
C72_3 C 0.5771(9) 0.3720(10) 0.1250(10)
H48_3 H 0.5568 0.3556 0.1538
C73_3 C 0.6375(11) 0.3648(11) 0.1228(11)
C74_3 C 0.6684(11) 0.3353(11) 0.1594(11)
O44_3 O 0.3931(7) 0.3566(8) 0.2237(7)
C75_3 C 0.3740(16) 0.3856(15) 0.1867(14)
O57_3 O 0.5840(9) 0.3033(8) 0.3179(8)
N13_3 N 0.5312(5) 0.0523(5) 0.0496(4)
N15_3 N 0.4231(7) 0.0732(7) 0.0380(8)
O63_3 O 0.5440(13) 0.2393(14) 0.2022(13)
O64_3 O 0.6069(7) 0.1434(8) 0.2237(7)
O27_3 O 0.7125(6) 0.2058(5) 0.7060(4)
O28_3 O 0.6975(6) 0.1357(7) 0.8047(7)
O29_3 O 0.8215(9) 0.0499(9) 0.6901(8)
H25_3 H 0.8519 0.0626 0.6592
H26_3 H 0.8483 0.0265 0.7179
C45_3 C 0.5716(10) 0.1644(10) 0.8903(9)
H30_3 H 0.5656 0.2026 0.8868
C46_3 C 0.5359(10) 0.1330(10) 0.9173(9)
H31_3 H 0.5050 0.1514 0.9320
N8_3 N 0.5380(8) 0.0769(7) 0.9268(7)
C47_3 C 0.5847(8) 0.0497(8) 0.9030(9)
C48_3 C 0.6250(10) 0.0771(9) 0.8720(10)
H32_3 H 0.6538 0.0568 0.8556
C49_3 C 0.6228(11) 0.1375(11) 0.8648(11)
C50_3 C 0.6594(11) 0.1684(11) 0.8353(11)
O31_3 O 0.6668(7) 0.2247(7) 0.8368(7)
Gd15_3 Gd 0.76626(5) 0.23951(4) 0.62496(4)
Mn4_3 Mn 0.52380(14) 0.47620(14) 0.97620(14)
O62_3 O 0.7022(13) 0.0440(13) 0.7393(14)
O67_3 O 0.7237(7) 0.1069(7) 0.6434(8)
O34_3 O 0.8025(6) 0.8643(7) 0.3047(7)
O35_3 O 0.6785(9) 0.9501(9) 0.1901(8)
H33_3 H 0.6481 0.9374 0.1592
H34_3 H 0.6517 0.9735 0.2179
C57_3 C 0.9284(10) 0.8356(10) 0.3903(9)
H38_3 H 0.9344 0.7974 0.3868
C58_3 C 0.9641(10) 0.8670(10) 0.4173(9)
H39_3 H 0.9950 0.8486 0.4320
C59_3 C 0.9153(8) 0.9503(8) 0.4030(9)
C60_3 C 0.8750(10) 0.9229(9) 0.3720(10)
H40_3 H 0.8462 0.9432 0.3556
C61_3 C 0.8772(11) 0.8625(11) 0.3648(11)
C62_3 C 0.8406(11) 0.8316(11) 0.3353(11)
O37_3 O 0.8332(7) 0.7753(7) 0.3368(7)
O49_3 O 0.7058(5) 0.7940(4) 0.2875(6)
O58_3 O 0.6821(8) 0.9160(9) 0.3033(8)
O30_3 O 0.6967(8) 0.8179(8) 0.9160(9)
C40_3 C 0.5916(5) 0.9924(4) 0.9153(6)
C41_3 C 0.6362(5) 0.9598(5) 0.8973(6)
H27_3 H 0.6643 0.9756 0.8756
C42_3 C 0.6387(5) 0.9036(5) 0.9118(6)
C43_3 C 0.5967(6) 0.8800(4) 0.9442(6)
H28_3 H 0.5985 0.8424 0.9539
C44_3 C 0.5521(5) 0.9126(5) 0.9622(5)
H29_3 H 0.5240 0.8968 0.9839
N7_3 N 0.5496(4) 0.9688(5) 0.9477(5)
O32_3 O 0.7237(7) 0.8931(7) 0.8566(8)
C51_3 C 0.6867(14) 0.8740(16) 0.8856(15)
Gd2_2 Gd 0.22361(5) 0.22361(5) 0.22361(5)
O1_2 O 0.3218(7) 0.3218(7) 0.3218(7)
O2_2 O 0.2125(6) 0.2942(5) 0.2940(4)
O3_2 O 0.1975(6) 0.3643(7) 0.1953(7)
O4_2 O 0.3215(9) 0.4501(9) 0.3099(8)
H1_2 H 0.3519 0.4374 0.3408
H2_2 H 0.3483 0.4735 0.2821
C1_2 C 0.0916(5) 0.5076(4) 0.0847(6)
C2_2 C 0.1362(5) 0.5402(5) 0.1027(6)
H3_2 H 0.1643 0.5244 0.1244
C3_2 C 0.1387(5) 0.5964(5) 0.0882(6)
C4_2 C 0.0967(6) 0.6200(4) 0.0558(6)
H4_2 H 0.0985 0.6576 0.0461
C5_2 C 0.0521(5) 0.5874(5) 0.0378(5)
H5_2 H 0.0240 0.6032 0.0161
C6_2 C 0.0716(10) 0.3356(10) 0.1097(9)
H6_2 H 0.0656 0.2974 0.1132
C7_2 C 0.0359(10) 0.3670(10) 0.0827(9)
H7_2 H 0.0050 0.3486 0.0680
C8_2 C 0.0847(8) 0.4503(8) 0.0970(9)
C9_2 C 0.1250(10) 0.4229(9) 0.1280(10)
H8_2 H 0.1538 0.4432 0.1444
C10_2 C 0.1228(11) 0.3625(11) 0.1352(11)
C11_2 C 0.1594(11) 0.3316(11) 0.1647(11)
O6_2 O 0.1668(7) 0.2753(7) 0.1632(7)
O7_2 O 0.2022(13) 0.4560(13) 0.2607(14)
C12_3 C 0.1873(11) 0.5000 0.2500
C13_2 C 0.1867(14) 0.6260(16) 0.1144(15)
O39_2 O 0.2942(5) 0.2940(4) 0.2125(6)
O40_4 O 0.3643(7) 0.1953(7) 0.1975(6)
O41_4 O 0.4501(9) 0.3099(8) 0.3215(9)
H41_4 H 0.4374 0.3408 0.3519
H42_4 H 0.4735 0.2821 0.3483
C64_4 C 0.5076(4) 0.0847(6) 0.0916(5)
C65_4 C 0.5402(5) 0.1027(6) 0.1362(5)
H43_4 H 0.5244 0.1244 0.1643
C66_4 C 0.5964(5) 0.0882(6) 0.1387(5)
C67_4 C 0.6200(4) 0.0558(6) 0.0967(6)
H44_4 H 0.6576 0.0461 0.0985
C68_4 C 0.5874(5) 0.0378(5) 0.0521(5)
H45_4 H 0.6032 0.0161 0.0240
C69_4 C 0.3356(10) 0.1097(9) 0.0716(10)
H46_4 H 0.2974 0.1132 0.0656
C70_4 C 0.3670(10) 0.0827(9) 0.0359(10)
H47_4 H 0.3486 0.0680 0.0050
C71_4 C 0.4503(8) 0.0970(9) 0.0847(8)
C72_4 C 0.4229(9) 0.1280(10) 0.1250(10)
H48_4 H 0.4432 0.1444 0.1538
C73_4 C 0.3625(11) 0.1352(11) 0.1228(11)
C74_4 C 0.3316(11) 0.1647(11) 0.1594(11)
O43_2 O 0.2753(7) 0.1632(7) 0.1668(7)
C75_4 C 0.6260(16) 0.1144(15) 0.1867(14)
O51_2 O 0.2940(4) 0.2125(6) 0.2942(5)
N14_3 N 0.5523(5) 0.5496(4) 0.0312(5)
O59_2 O 0.1632(7) 0.1668(7) 0.2753(7)
O63_4 O 0.4560(13) 0.2607(14) 0.2022(13)
H49_3 H 0.141799 0.5 0.25
O28_4 O 0.3025(6) 0.3643(7) 0.8047(7)
O29_4 O 0.1785(9) 0.4501(9) 0.6901(8)
H25_4 H 0.1481 0.4374 0.6592
H26_4 H 0.1517 0.4735 0.7179
C40_4 C 0.4084(5) 0.5076(4) 0.9153(6)
C41_4 C 0.3638(5) 0.5402(5) 0.8973(6)
H27_4 H 0.3357 0.5244 0.8756
C42_4 C 0.3613(5) 0.5964(5) 0.9118(6)
C43_4 C 0.4033(6) 0.6200(4) 0.9442(6)
H28_4 H 0.4015 0.6576 0.9539
C44_4 C 0.4479(5) 0.5874(5) 0.9622(5)
H29_4 H 0.4760 0.6032 0.9839
N7_4 N 0.4504(4) 0.5312(5) 0.9477(5)
C45_4 C 0.4284(10) 0.3356(10) 0.8903(9)
H30_4 H 0.4344 0.2974 0.8868
C46_4 C 0.4641(10) 0.3670(10) 0.9173(9)
H31_4 H 0.4950 0.3486 0.9320
N8_4 N 0.4620(8) 0.4231(7) 0.9268(7)
C47_4 C 0.4153(8) 0.4503(8) 0.9030(9)
C48_4 C 0.3750(10) 0.4229(9) 0.8720(10)
H32_4 H 0.3462 0.4432 0.8556
C49_4 C 0.3772(11) 0.3625(11) 0.8648(11)
C50_4 C 0.3406(11) 0.3316(11) 0.8353(11)
O32_4 O 0.2763(7) 0.6069(7) 0.8566(8)
C51_4 C 0.3133(14) 0.6260(16) 0.8856(15)
N16_3 N 0.5732(7) 0.5380(8) 0.9231(7)
O62_4 O 0.2978(13) 0.4560(13) 0.7393(14)
O67_4 O 0.2763(7) 0.3931(7) 0.6434(8)
C25_3 C 0.7500 0.6873(11) -0.0000
O60_3 O 0.7247(7) 0.6632(7) 0.3332(7)
H50_3 H 0.75 0.641799 -5.93535e-17
C25_4 C 0.7500 0.6873(11) 1.0000
O18_2 O 0.7607(14) 0.7022(13) 0.9560(13)
H50_4 H 0.75 0.641799 1
O20_2 O 0.1953(7) 0.1975(6) 0.3643(7)
O21_2 O 0.3099(8) 0.3215(9) 0.4501(9)
H17_2 H 0.3408 0.3519 0.4374
H18_2 H 0.2821 0.3483 0.4735
C27_2 C 0.0847(6) 0.0916(5) 0.5076(4)
C28_2 C 0.1027(6) 0.1362(5) 0.5402(5)
H19_2 H 0.1244 0.1643 0.5244
C29_2 C 0.0882(6) 0.1387(5) 0.5964(5)
C30_2 C 0.0558(6) 0.0967(6) 0.6200(4)
H20_2 H 0.0461 0.0985 0.6576
C31_2 C 0.0378(5) 0.0521(5) 0.5874(5)
H21_2 H 0.0161 0.0240 0.6032
C32_2 C 0.1097(9) 0.0716(10) 0.3356(10)
H22_2 H 0.1132 0.0656 0.2974
C33_2 C 0.0827(9) 0.0359(10) 0.3670(10)
H23_2 H 0.0680 0.0050 0.3486
C34_2 C 0.0970(9) 0.0847(8) 0.4503(8)
C35_2 C 0.1280(10) 0.1250(10) 0.4229(9)
H24_2 H 0.1444 0.1538 0.4432
C36_2 C 0.1352(11) 0.1228(11) 0.3625(11)
C37_2 C 0.1647(11) 0.1594(11) 0.3316(11)
O24_2 O 0.2607(14) 0.2022(13) 0.4560(13)
C38_3 C 0.2500 0.1873(11) 0.5000
C39_2 C 0.1144(15) 0.1867(14) 0.6260(16)
H51_3 H 0.25 0.141799 0.5
C12_4 C 0.0000 0.7500 0.6873(11)
O36_4 O 0.1821(8) 0.5840(9) 0.6967(8)
C52_4 C 0.0076(4) 0.5847(6) 0.5916(5)
C53_4 C 0.0402(5) 0.6027(6) 0.6362(5)
H35_4 H 0.0244 0.6244 0.6643
C54_4 C 0.0964(5) 0.5882(6) 0.6387(5)
C55_4 C 0.1200(4) 0.5558(6) 0.5967(6)
H36_4 H 0.1576 0.5461 0.5985
C56_4 C 0.0874(5) 0.5378(5) 0.5521(5)
H37_4 H 0.1032 0.5161 0.5240
N9_2 N 0.0312(5) 0.5523(5) 0.5496(4)
C63_4 C 0.1260(16) 0.6144(15) 0.6867(14)
O59_3 O 0.3332(7) 0.7247(7) 0.6632(7)
H49_4 H 1.2326e-32 0.75 0.641799
C12_5 C 1.0000 0.7500 0.6873(11)
O9_2 O 0.9560(13) 0.7607(14) 0.7022(13)
O33_3 O 0.7942(5) 0.7940(4) 0.7125(6)
O34_4 O 0.8643(7) 0.6953(7) 0.6975(6)
O35_4 O 0.9501(9) 0.8099(8) 0.8215(9)
H33_4 H 0.9374 0.8408 0.8519
H34_4 H 0.9735 0.7821 0.8483
C57_4 C 0.8356(10) 0.6097(9) 0.5716(10)
H38_4 H 0.7974 0.6132 0.5656
C58_4 C 0.8670(10) 0.5827(9) 0.5359(10)
H39_4 H 0.8486 0.5680 0.5050
N10_2 N 0.9231(7) 0.5732(7) 0.5380(8)
C59_4 C 0.9503(8) 0.5970(9) 0.5847(8)
C60_4 C 0.9229(9) 0.6280(10) 0.6250(10)
H40_4 H 0.9432 0.6444 0.6538
C61_4 C 0.8625(11) 0.6352(11) 0.6228(11)
C62_4 C 0.8316(11) 0.6647(11) 0.6594(11)
O37_4 O 0.7753(7) 0.6632(7) 0.6668(7)
Gd23_3 Gd 0.72361(5) 0.72361(5) 0.72361(5)
O46_3 O 0.8218(7) 0.8218(7) 0.8218(7)
O49_4 O 0.7940(4) 0.7125(6) 0.7942(5)
H49_5 H 1 0.75 0.641799
C38_4 C 0.5000 0.2500 0.1873(11)
H51_4 H 0.5 0.25 0.141799
C12_6 C 0.6873(11) 0.0000 0.7500
O36_5 O 0.6967(8) 0.1821(8) 0.5840(9)
C52_5 C 0.5916(5) 0.0076(4) 0.5847(6)
C53_5 C 0.6362(5) 0.0402(5) 0.6027(6)
H35_5 H 0.6643 0.0244 0.6244
C54_5 C 0.6387(5) 0.0964(5) 0.5882(6)
C55_5 C 0.5967(6) 0.1200(4) 0.5558(6)
H36_5 H 0.5985 0.1576 0.5461
C56_5 C 0.5521(5) 0.0874(5) 0.5378(5)
H37_5 H 0.5240 0.1032 0.5161
N9_3 N 0.5496(4) 0.0312(5) 0.5523(5)
C63_5 C 0.6867(14) 0.1260(16) 0.6144(15)
O59_4 O 0.6632(7) 0.3332(7) 0.7247(7)
H49_6 H 0.641799 6.16298e-33 0.75
C12_7 C 0.6873(11) 1.0000 0.7500
O9_3 O 0.7022(13) 0.9560(13) 0.7607(14)
O33_4 O 0.7125(6) 0.7942(5) 0.7940(4)
O34_5 O 0.6975(6) 0.8643(7) 0.6953(7)
O35_5 O 0.8215(9) 0.9501(9) 0.8099(8)
H33_5 H 0.8519 0.9374 0.8408
H34_5 H 0.8483 0.9735 0.7821
C57_5 C 0.5716(10) 0.8356(10) 0.6097(9)
H38_5 H 0.5656 0.7974 0.6132
C58_5 C 0.5359(10) 0.8670(10) 0.5827(9)
H39_5 H 0.5050 0.8486 0.5680
N10_3 N 0.5380(8) 0.9231(7) 0.5732(7)
C59_5 C 0.5847(8) 0.9503(8) 0.5970(9)
C60_5 C 0.6250(10) 0.9229(9) 0.6280(10)
H40_5 H 0.6538 0.9432 0.6444
C61_5 C 0.6228(11) 0.8625(11) 0.6352(11)
C62_5 C 0.6594(11) 0.8316(11) 0.6647(11)
O37_5 O 0.6668(7) 0.7753(7) 0.6632(7)
H49_7 H 0.641799 1 0.75
O40_5 O 0.6953(7) 0.3025(6) 0.6357(7)
O41_5 O 0.8099(8) 0.1785(9) 0.5499(9)
H41_5 H 0.8408 0.1481 0.5626
H42_5 H 0.7821 0.1517 0.5265
C64_5 C 0.5847(6) 0.4084(5) 0.4924(4)
C65_5 C 0.6027(6) 0.3638(5) 0.4598(5)
H43_5 H 0.6244 0.3357 0.4756
C66_5 C 0.5882(6) 0.3613(5) 0.4036(5)
C67_5 C 0.5558(6) 0.4033(6) 0.3800(4)
H44_5 H 0.5461 0.4015 0.3424
C68_5 C 0.5378(5) 0.4479(5) 0.4126(5)
H45_5 H 0.5161 0.4760 0.3968
N11_4 N 0.5523(5) 0.4504(4) 0.4688(5)
C69_5 C 0.6097(9) 0.4284(10) 0.6644(10)
H46_5 H 0.6132 0.4344 0.7026
C70_5 C 0.5827(9) 0.4641(10) 0.6330(10)
H47_5 H 0.5680 0.4950 0.6514
N12_4 N 0.5732(7) 0.4620(8) 0.5769(7)
C71_5 C 0.5970(9) 0.4153(8) 0.5497(8)
C72_5 C 0.6280(10) 0.3750(10) 0.5771(9)
H48_5 H 0.6444 0.3462 0.5568
C73_5 C 0.6352(11) 0.3772(11) 0.6375(11)
C74_5 C 0.6647(11) 0.3406(11) 0.6684(11)
O44_4 O 0.6434(8) 0.2763(7) 0.3931(7)
C75_5 C 0.6144(15) 0.3133(14) 0.3740(16)
Mn4_4 Mn 0.52380(14) 0.52380(14) 0.52380(14)
N13_4 N 0.9477(5) 0.4504(4) 0.5312(5)
N15_4 N 0.9268(7) 0.4620(8) 0.4231(7)
O63_5 O 0.7607(14) 0.2978(13) 0.5440(13)
O64_4 O 0.8566(8) 0.2763(7) 0.6069(7)
O28_5 O 0.3643(7) 0.8047(7) 0.3025(6)
O29_5 O 0.4501(9) 0.6901(8) 0.1785(9)
H25_5 H 0.4374 0.6592 0.1481
H26_5 H 0.4735 0.7179 0.1517
C40_5 C 0.5076(4) 0.9153(6) 0.4084(5)
C41_5 C 0.5402(5) 0.8973(6) 0.3638(5)
H27_5 H 0.5244 0.8756 0.3357
C42_5 C 0.5964(5) 0.9118(6) 0.3613(5)
C43_5 C 0.6200(4) 0.9442(6) 0.4033(6)
H28_5 H 0.6576 0.9539 0.4015
C44_5 C 0.5874(5) 0.9622(5) 0.4479(5)
H29_5 H 0.6032 0.9839 0.4760
N7_5 N 0.5312(5) 0.9477(5) 0.4504(4)
C45_5 C 0.3356(10) 0.8903(9) 0.4284(10)
H30_5 H 0.2974 0.8868 0.4344
C46_5 C 0.3670(10) 0.9173(9) 0.4641(10)
H31_5 H 0.3486 0.9320 0.4950
N8_5 N 0.4231(7) 0.9268(7) 0.4620(8)
C47_5 C 0.4503(8) 0.9030(9) 0.4153(8)
C48_5 C 0.4229(9) 0.8720(10) 0.3750(10)
H32_5 H 0.4432 0.8556 0.3462
C49_5 C 0.3625(11) 0.8648(11) 0.3772(11)
C50_5 C 0.3316(11) 0.8353(11) 0.3406(11)
O32_5 O 0.6069(7) 0.8566(8) 0.2763(7)
C51_5 C 0.6260(16) 0.8856(15) 0.3133(14)
O62_5 O 0.4560(13) 0.7393(14) 0.2978(13)
O67_5 O 0.3931(7) 0.6434(8) 0.2763(7)
O40_6 O 0.6357(7) 0.6953(7) 0.3025(6)
O41_6 O 0.5499(9) 0.8099(8) 0.1785(9)
H41_6 H 0.5626 0.8408 0.1481
H42_6 H 0.5265 0.7821 0.1517
C64_6 C 0.4924(4) 0.5847(6) 0.4084(5)
C65_6 C 0.4598(5) 0.6027(6) 0.3638(5)
H43_6 H 0.4756 0.6244 0.3357
C66_6 C 0.4036(5) 0.5882(6) 0.3613(5)
C67_6 C 0.3800(4) 0.5558(6) 0.4033(6)
H44_6 H 0.3424 0.5461 0.4015
C68_6 C 0.4126(5) 0.5378(5) 0.4479(5)
H45_6 H 0.3968 0.5161 0.4760
N11_5 N 0.4688(5) 0.5523(5) 0.4504(4)
C69_6 C 0.6644(10) 0.6097(9) 0.4284(10)
H46_6 H 0.7026 0.6132 0.4344
C70_6 C 0.6330(10) 0.5827(9) 0.4641(10)
H47_6 H 0.6514 0.5680 0.4950
N12_5 N 0.5769(7) 0.5732(7) 0.4620(8)
C71_6 C 0.5497(8) 0.5970(9) 0.4153(8)
C72_6 C 0.5771(9) 0.6280(10) 0.3750(10)
H48_6 H 0.5568 0.6444 0.3462
C73_6 C 0.6375(11) 0.6352(11) 0.3772(11)
C74_6 C 0.6684(11) 0.6647(11) 0.3406(11)
C75_6 C 0.3740(16) 0.6144(15) 0.3133(14)
O57_4 O 0.5840(9) 0.6967(8) 0.1821(8)
O63_6 O 0.5440(13) 0.7607(14) 0.2978(13)
C52_6 C 0.5847(6) 0.5916(5) 0.0076(4)
C53_6 C 0.6027(6) 0.6362(5) 0.0402(5)
H35_6 H 0.6244 0.6643 0.0244
C54_6 C 0.5882(6) 0.6387(5) 0.0964(5)
C55_6 C 0.5558(6) 0.5967(6) 0.1200(4)
H36_6 H 0.5461 0.5985 0.1576
C56_6 C 0.5378(5) 0.5521(5) 0.0874(5)
H37_6 H 0.5161 0.5240 0.1032
C63_6 C 0.6144(15) 0.6867(14) 0.1260(16)
O34_6 O 0.6953(7) 0.6975(6) 0.8643(7)
O35_6 O 0.8099(8) 0.8215(9) 0.9501(9)
H33_6 H 0.8408 0.8519 0.9374
H34_6 H 0.7821 0.8483 0.9735
C57_6 C 0.6097(9) 0.5716(10) 0.8356(10)
H38_6 H 0.6132 0.5656 0.7974
C58_6 C 0.5827(9) 0.5359(10) 0.8670(10)
H39_6 H 0.5680 0.5050 0.8486
C59_6 C 0.5970(9) 0.5847(8) 0.9503(8)
C60_6 C 0.6280(10) 0.6250(10) 0.9229(9)
H40_6 H 0.6444 0.6538 0.9432
C61_6 C 0.6352(11) 0.6228(11) 0.8625(11)
C62_6 C 0.6647(11) 0.6594(11) 0.8316(11)
O37_6 O 0.6632(7) 0.6668(7) 0.7753(7)
O28_6 O 0.8047(7) 0.3025(6) 0.3643(7)
O29_6 O 0.6901(8) 0.1785(9) 0.4501(9)
H25_6 H 0.6592 0.1481 0.4374
H26_6 H 0.7179 0.1517 0.4735
C40_6 C 0.9153(6) 0.4084(5) 0.5076(4)
C41_6 C 0.8973(6) 0.3638(5) 0.5402(5)
H27_6 H 0.8756 0.3357 0.5244
C42_6 C 0.9118(6) 0.3613(5) 0.5964(5)
C43_6 C 0.9442(6) 0.4033(6) 0.6200(4)
H28_6 H 0.9539 0.4015 0.6576
C44_6 C 0.9622(5) 0.4479(5) 0.5874(5)
H29_6 H 0.9839 0.4760 0.6032
C45_6 C 0.8903(9) 0.4284(10) 0.3356(10)
H30_6 H 0.8868 0.4344 0.2974
C46_6 C 0.9173(9) 0.4641(10) 0.3670(10)
H31_6 H 0.9320 0.4950 0.3486
C47_6 C 0.9030(9) 0.4153(8) 0.4503(8)
C48_6 C 0.8720(10) 0.3750(10) 0.4229(9)
H32_6 H 0.8556 0.3462 0.4432
C49_6 C 0.8648(11) 0.3772(11) 0.3625(11)
C50_6 C 0.8353(11) 0.3406(11) 0.3316(11)
C51_6 C 0.8856(15) 0.3133(14) 0.6260(16)
O62_6 O 0.7393(14) 0.2978(13) 0.4560(13)
O40_7 O 0.3025(6) 0.6357(7) 0.6953(7)
O41_7 O 0.1785(9) 0.5499(9) 0.8099(8)
H41_7 H 0.1481 0.5626 0.8408
H42_7 H 0.1517 0.5265 0.7821
C64_7 C 0.4084(5) 0.4924(4) 0.5847(6)
C65_7 C 0.3638(5) 0.4598(5) 0.6027(6)
H43_7 H 0.3357 0.4756 0.6244
C66_7 C 0.3613(5) 0.4036(5) 0.5882(6)
C67_7 C 0.4033(6) 0.3800(4) 0.5558(6)
H44_7 H 0.4015 0.3424 0.5461
C68_7 C 0.4479(5) 0.4126(5) 0.5378(5)
H45_7 H 0.4760 0.3968 0.5161
N11_6 N 0.4504(4) 0.4688(5) 0.5523(5)
C69_7 C 0.4284(10) 0.6644(10) 0.6097(9)
H46_7 H 0.4344 0.7026 0.6132
C70_7 C 0.4641(10) 0.6330(10) 0.5827(9)
H47_7 H 0.4950 0.6514 0.5680
N12_6 N 0.4620(8) 0.5769(7) 0.5732(7)
C71_7 C 0.4153(8) 0.5497(8) 0.5970(9)
C72_7 C 0.3750(10) 0.5771(9) 0.6280(10)
H48_7 H 0.3462 0.5568 0.6444
C73_7 C 0.3772(11) 0.6375(11) 0.6352(11)
C74_7 C 0.3406(11) 0.6684(11) 0.6647(11)
C75_7 C 0.3133(14) 0.3740(16) 0.6144(15)
O63_7 O 0.2978(13) 0.5440(13) 0.7607(14)
C12_8 C 0.7500 0.3127(11) 0.5000
C25_5 C 0.5000 0.7500 0.3127(11)
C38_5 C 0.3127(11) 0.5000 0.7500
H49_8 H 0.75 0.358201 0.5
H50_5 H 0.5 0.75 0.358201
H51_5 H 0.358201 0.5 0.75
loop_
_geom_bond_atom_site_label_1
_geom_bond_atom_site_label_2
_geom_bond_site_symmetry_1
_geom_bond_site_symmetry_2
Gd3 O10 1_555 1_555
Gd4 O11 1_555 1_555
O10 Gd18 1_555 1_555
O11 Gd3 1_555 1_555
O12 Gd3 1_555 1_555
O13 Gd3 1_555 1_555
H9 O13 1_555 1_555
H10 O13 1_555 1_555
C19 H14 1_555 1_555
C20 C19 1_555 1_555
H15 C20 1_555 1_555
C22 C21 1_555 1_555
H16 C22 1_555 1_555
C23 C19 1_555 1_555
C24 O12 1_555 1_555
O15 Gd4 1_555 1_555
O16 Gd3 1_555 1_555
C25 O16 1_555 1_555
Gd18 O11 1_555 1_555
Gd19 O10 1_555 1_555
O52 Gd4 1_555 1_555
O53 Gd3 1_555 1_555
O56 Gd3 1_555 1_555
O60 Gd4 1_555 1_555
O61 Gd4 1_555 1_555
O65 Gd3 1_555 1_555
Gd4 O53 1_555 1_555
C20 N4 1_555 1_555
N4 C21 1_555 1_555
C22 C23 1_555 1_555
C23 C24 1_555 1_555
C24 O15 1_555 1_555
Gd18 O52 1_555 1_555
Gd19 O52 1_555 1_555
Gd19 O53 1_555 1_555
C25 H50 1_555 1_555
Gd1 O1 1_555 1_555
Gd2 O2 1_555 1_555
O1 Gd8 1_555 1_555
O2 Gd1 1_555 1_555
O3 Gd1 1_555 1_555
O4 Gd1 1_555 1_555
H1 O4 1_555 1_555
H2 O4 1_555 1_555
C6 H6 1_555 1_555
C7 C6 1_555 1_555
H7 C7 1_555 1_555
C9 C8 1_555 1_555
H8 C9 1_555 1_555
C10 C6 1_555 1_555
C11 O3 1_555 1_555
O6 Gd2 1_555 1_555
O7 Gd1 1_555 1_555
C12 O7 1_555 1_555
O36 C63 1_555 1_555
C52 C53 1_555 1_555
C53 H35 1_555 1_555
C54 C53 1_555 1_555
C55 C54 1_555 1_555
H36 C55 1_555 1_555
C56 C55 1_555 1_555
H37 C56 1_555 1_555
N9 C52 1_555 1_555
O38 Gd1 1_555 1_555
C63 C54 1_555 1_555
Gd8 O39 1_555 1_555
O39 Gd1 1_555 1_555
O40 Gd8 1_555 1_555
O41 Gd8 1_555 1_555
H41 O41 1_555 1_555
H42 O41 1_555 1_555
O42 C75 1_555 1_555
C64 C65 1_555 1_555
C65 H43 1_555 1_555
C66 C65 1_555 1_555
C67 C66 1_555 1_555
H44 C67 1_555 1_555
C68 C67 1_555 1_555
H45 C68 1_555 1_555
N11 C64 1_555 1_555
C69 H46 1_555 1_555
C70 C69 1_555 1_555
H47 C70 1_555 1_555
N12 C70 1_555 1_555
C71 C64 1_555 1_555
C72 C71 1_555 1_555
H48 C72 1_555 1_555
C73 C69 1_555 1_555
C74 O40 1_555 1_555
O43 Gd2 1_555 1_555
O44 C75 1_555 1_555
C75 C66 1_555 1_555
Gd9 O44 1_555 1_555
Gd14 O42 1_555 1_555
Gd16 O1 1_555 1_555
O51 Gd2 1_555 1_555
O54 Gd1 1_555 1_555
O57 Gd8 1_555 1_555
O59 Gd2 1_555 1_555
O63 Gd8 1_555 1_555
O64 Gd8 1_555 1_555
Gd2 O39 1_555 1_555
O2 Gd16 1_555 1_555
C7 N2 1_555 1_555
N2 C8 1_555 1_555
C9 C10 1_555 1_555
C10 C11 1_555 1_555
C11 O6 1_555 1_555
O36 Gd16 1_555 1_555
C56 N9 1_555 1_555
O38 C63 1_555 1_555
Gd8 O51 1_555 1_555
C68 N11 1_555 1_555
N12 C71 1_555 1_555
C72 C73 1_555 1_555
C73 C74 1_555 1_555
C74 O43 1_555 1_555
Gd16 O51 1_555 1_555
C12 H49 1_555 1_555
O5 C13 1_555 1_555
C1 C2 1_555 1_555
C2 H3 1_555 1_555
C3 C2 1_555 1_555
C4 C3 1_555 1_555
H4 C4 1_555 1_555
C5 C4 1_555 1_555
H5 C5 1_555 1_555
N1 C1 1_555 1_555
O8 C13 1_555 1_555
C13 C3 1_555 1_555
O9 C12_2 1_555 1_555
Gd7 O8 1_555 1_555
O33 Gd7 1_555 1_555
O34 Gd7 1_555 1_555
O35 Gd7 1_555 1_555
H33 O35 1_555 1_555
H34 O35 1_555 1_555
C57 H38 1_555 1_555
C58 C57 1_555 1_555
H39 C58 1_555 1_555
N10 C58 1_555 1_555
C60 C59 1_555 1_555
H40 C60 1_555 1_555
C61 C57 1_555 1_555
C62 O34 1_555 1_555
O37 C62 1_555 1_555
Gd10 O5 1_555 1_555
Gd23 O33 1_555 1_555
O46 Gd7 1_555 1_555
O49 Gd7 1_555 1_555
O58 Gd7 1_555 1_555
C5 N1 1_555 1_555
O9 Gd7 1_555 1_555
O33 Gd10 1_555 1_555
N10 C59 1_555 1_555
C60 C61 1_555 1_555
C61 C62 1_555 1_555
O37 Gd23 1_555 1_555
Gd10 O46 1_555 1_555
Gd23 O49 1_555 1_555
C12_2 H49_2 1_555 1_555
Gd5 O19 1_555 1_555
O19 Gd21 1_555 1_555
O20 Gd5 1_555 1_555
O21 Gd5 1_555 1_555
H17 O21 1_555 1_555
H18 O21 1_555 1_555
C32 H22 1_555 1_555
C33 C32 1_555 1_555
H23 C33 1_555 1_555
C35 C34 1_555 1_555
H24 C35 1_555 1_555
C36 C32 1_555 1_555
C37 O20 1_555 1_555
O23 C37 1_555 1_555
O24 Gd5 1_555 1_555
C38 O24 1_555 1_555
Gd21 O45 1_555 1_555
Gd22 O19 1_555 1_555
O45 Gd5 1_555 1_555
O50 Gd5 1_555 1_555
O55 Gd5 1_555 1_555
O66 Gd5 1_555 1_555
C33 N6 1_555 1_555
N6 C34 1_555 1_555
C35 C36 1_555 1_555
C36 C37 1_555 1_555
O23 Gd22 1_555 1_555
Gd22 O50 1_555 1_555
C38 H51 1_555 1_555
O14 C26 1_555 1_555
C14 C15 1_555 1_555
C15 H11 1_555 1_555
C16 C15 1_555 1_555
C17 C16 1_555 1_555
H12 C17 1_555 1_555
C18 C17 1_555 1_555
H13 C18 1_555 1_555
O17 C26 1_555 1_555
C26 C16 1_555 1_555
O18 C25_2 1_555 1_555
Gd11 O14 1_555 1_555
Gd12 O17 1_555 1_555
C14 N3 1_555 1_555
C18 N3 1_555 1_555
O18 Gd12 1_555 1_555
C25_2 H50_2 1_555 1_555
O22 C39 1_555 1_555
C27 C28 1_555 1_555
C28 H19 1_555 1_555
C29 C28 1_555 1_555
C30 C29 1_555 1_555
H20 C30 1_555 1_555
C31 C30 1_555 1_555
H21 C31 1_555 1_555
O25 C39 1_555 1_555
C39 C29 1_555 1_555
O26 C38_2 1_555 1_555
Gd6 O22 1_555 1_555
O27 Gd6 1_555 1_555
O28 Gd6 1_555 1_555
O29 Gd6 1_555 1_555
H25 O29 1_555 1_555
H26 O29 1_555 1_555
C45 H30 1_555 1_555
C46 C45 1_555 1_555
H31 C46 1_555 1_555
N8 Mn2 1_555 1_555
C48 C47 1_555 1_555
H32 C48 1_555 1_555
C49 C45 1_555 1_555
C50 O28 1_555 1_555
O31 C50 1_555 1_555
Gd13 O25 1_555 1_555
Gd15 O27 1_555 1_555
Gd24 O27 1_555 1_555
O47 Gd6 1_555 1_555
O48 Gd6 1_555 1_555
O62 Gd6 1_555 1_555
O67 Gd6 1_555 1_555
C27 N5 1_555 1_555
C31 N5 1_555 1_555
O26 Gd13 1_555 1_555
C46 N8 1_555 1_555
N8 C47 1_555 1_555
C48 C49 1_555 1_555
C49 C50 1_555 1_555
O31 Gd24 1_555 1_555
Gd13 O47 1_555 1_555
Gd13 O48 1_555 1_555
Gd15 O47 1_555 1_555
Gd24 O48 1_555 1_555
C38_2 H51_2 1_555 1_555
O30 C51 1_555 1_555
C40 C41 1_555 1_555
C41 H27 1_555 1_555
C42 C41 1_555 1_555
C43 C42 1_555 1_555
H28 C43 1_555 1_555
C44 C43 1_555 1_555
H29 C44 1_555 1_555
N7 C40 1_555 1_555
O32 C51 1_555 1_555
C51 C42 1_555 1_555
Gd17 O30 1_555 1_555
Gd20 O32 1_555 1_555
C44 N7 1_555 1_555
O36_2 C63_2 1_555 1_555
C52_2 C53_2 1_555 1_555
C53_2 H35_2 1_555 1_555
C54_2 C53_2 1_555 1_555
C55_2 C54_2 1_555 1_555
H36_2 C55_2 1_555 1_555
C56_2 C55_2 1_555 1_555
H37_2 C56_2 1_555 1_555
N14 C52_2 1_555 1_555
C63_2 C54_2 1_555 1_555
O40_2 Gd19 1_555 1_555
O41_2 Gd19 1_555 1_555
H41_2 O41_2 1_555 1_555
H42_2 O41_2 1_555 1_555
O42_2 C75_2 1_555 1_555
C64_2 C65_2 1_555 1_555
C65_2 H43_2 1_555 1_555
C66_2 C65_2 1_555 1_555
C67_2 C66_2 1_555 1_555
H44_2 C67_2 1_555 1_555
C68_2 C67_2 1_555 1_555
H45_2 C68_2 1_555 1_555
N11_2 C64_2 1_555 1_555
C69_2 H46_2 1_555 1_555
C70_2 C69_2 1_555 1_555
H47_2 C70_2 1_555 1_555
N12_2 C70_2 1_555 1_555
C71_2 C64_2 1_555 1_555
C72_2 C71_2 1_555 1_555
H48_2 C72_2 1_555 1_555
C73_2 C69_2 1_555 1_555
C74_2 O40_2 1_555 1_555
O44_2 C75_2 1_555 1_555
C75_2 C66_2 1_555 1_555
Gd14 O44_2 1_555 1_555
Gd14_2 O42_2 1_555 1_555
O57_2 Gd19 1_555 1_555
O63_2 Gd19 1_555 1_555
O64_2 Gd19 1_555 1_555
O36_2 Gd18 1_555 1_555
C56_2 N14 1_555 1_555
O65 C63_2 1_555 1_555
C68_2 N11_2 1_555 1_555
N12_2 C71_2 1_555 1_555
C72_2 C73_2 1_555 1_555
C73_2 C74_2 1_555 1_555
C74_2 O61 1_555 1_555
O27_2 Gd10 1_555 1_555
O28_2 Gd10 1_555 1_555
O29_2 Gd10 1_555 1_555
H25_2 O29_2 1_555 1_555
H26_2 O29_2 1_555 1_555
C45_2 H30_2 1_555 1_555
C46_2 C45_2 1_555 1_555
H31_2 C46_2 1_555 1_555
N8_2 Mn2_2 1_555 1_555
C48_2 C47_2 1_555 1_555
H32_2 C48_2 1_555 1_555
C49_2 C45_2 1_555 1_555
C50_2 O28_2 1_555 1_555
O31_2 C50_2 1_555 1_555
Gd15_2 O27_2 1_555 1_555
Gd23 O27_2 1_555 1_555
O62_2 Gd10 1_555 1_555
O67_2 Gd10 1_555 1_555
C46_2 N8_2 1_555 1_555
N8_2 C47_2 1_555 1_555
C48_2 C49_2 1_555 1_555
C49_2 C50_2 1_555 1_555
O31_2 Gd23 1_555 1_555
Gd15_2 O46 1_555 1_555
Gd19_2 O45 1_555 1_555
O52_2 Gd22 1_555 1_555
O60_2 Gd22 1_555 1_555
O61_2 Gd22 1_555 1_555
Gd21 O52_2 1_555 1_555
Gd19_2 O52_2 1_555 1_555
Gd19_2 O50 1_555 1_555
O33_2 Gd12 1_555 1_555
O34_2 Gd12 1_555 1_555
O35_2 Gd12 1_555 1_555
H33_2 O35_2 1_555 1_555
H34_2 O35_2 1_555 1_555
C57_2 H38_2 1_555 1_555
C58_2 C57_2 1_555 1_555
H39_2 C58_2 1_555 1_555
N16 C58_2 1_555 1_555
C60_2 C59_2 1_555 1_555
H40_2 C60_2 1_555 1_555
C61_2 C57_2 1_555 1_555
C62_2 O34_2 1_555 1_555
O37_2 C62_2 1_555 1_555
Gd23_2 O33_2 1_555 1_555
O46_2 Gd12 1_555 1_555
O49_2 Gd12 1_555 1_555
O58_2 Gd12 1_555 1_555
O33_2 Gd11 1_555 1_555
N16 C59_2 1_555 1_555
C60_2 C61_2 1_555 1_555
C61_2 C62_2 1_555 1_555
O37_2 Gd23_2 1_555 1_555
Gd11 O46_2 1_555 1_555
Gd23_2 O49_2 1_555 1_555
O30_2 C51_2 1_555 1_555
C40_2 C41_2 1_555 1_555
C41_2 H27_2 1_555 1_555
C42_2 C41_2 1_555 1_555
C43_2 C42_2 1_555 1_555
H28_2 C43_2 1_555 1_555
C44_2 C43_2 1_555 1_555
H29_2 C44_2 1_555 1_555
N7_2 C40_2 1_555 1_555
O32_2 C51_2 1_555 1_555
C51_2 C42_2 1_555 1_555
Gd17_2 O30_2 1_555 1_555
Gd17 O32_2 1_555 1_555
C44_2 N7_2 1_555 1_555
O36_3 C63_3 1_555 1_555
C52_3 C53_3 1_555 1_555
C53_3 H35_3 1_555 1_555
C54_3 C53_3 1_555 1_555
C55_3 C54_3 1_555 1_555
H36_3 C55_3 1_555 1_555
C56_3 C55_3 1_555 1_555
H37_3 C56_3 1_555 1_555
N14_2 C52_3 1_555 1_555
C63_3 C54_3 1_555 1_555
O40_3 Gd19_2 1_555 1_555
O41_3 Gd19_2 1_555 1_555
H41_3 O41_3 1_555 1_555
H42_3 O41_3 1_555 1_555
O42_3 C75_3 1_555 1_555
C64_3 C65_3 1_555 1_555
C65_3 H43_3 1_555 1_555
C66_3 C65_3 1_555 1_555
C67_3 C66_3 1_555 1_555
H44_3 C67_3 1_555 1_555
C68_3 C67_3 1_555 1_555
H45_3 C68_3 1_555 1_555
N11_3 C64_3 1_555 1_555
C69_3 H46_3 1_555 1_555
C70_3 C69_3 1_555 1_555
H47_3 C70_3 1_555 1_555
N12_3 C70_3 1_555 1_555
C71_3 C64_3 1_555 1_555
C72_3 C71_3 1_555 1_555
H48_3 C72_3 1_555 1_555
C73_3 C69_3 1_555 1_555
C74_3 O40_3 1_555 1_555
O44_3 C75_3 1_555 1_555
C75_3 C66_3 1_555 1_555
Gd14_2 O44_3 1_555 1_555
Gd9 O42_3 1_555 1_555
O57_3 Gd19_2 1_555 1_555
O63_3 Gd19_2 1_555 1_555
O64_3 Gd19_2 1_555 1_555
O36_3 Gd21 1_555 1_555
C56_3 N14_2 1_555 1_555
O66 C63_3 1_555 1_555
C68_3 N11_3 1_555 1_555
N12_3 C71_3 1_555 1_555
C72_3 C73_3 1_555 1_555
C73_3 C74_3 1_555 1_555
C74_3 O61_2 1_555 1_555
O27_3 Gd11 1_555 1_555
O28_3 Gd11 1_555 1_555
O29_3 Gd11 1_555 1_555
H25_3 O29_3 1_555 1_555
H26_3 O29_3 1_555 1_555
C45_3 H30_3 1_555 1_555
C46_3 C45_3 1_555 1_555
H31_3 C46_3 1_555 1_555
N8_3 Mn3 1_555 1_555
C48_3 C47_3 1_555 1_555
H32_3 C48_3 1_555 1_555
C49_3 C45_3 1_555 1_555
C50_3 O28_3 1_555 1_555
O31_3 C50_3 1_555 1_555
Gd15_3 O27_3 1_555 1_555
Gd23_2 O27_3 1_555 1_555
O62_3 Gd11 1_555 1_555
O67_3 Gd11 1_555 1_555
C46_3 N8_3 1_555 1_555
N8_3 C47_3 1_555 1_555
C48_3 C49_3 1_555 1_555
C49_3 C50_3 1_555 1_555
O31_3 Gd23_2 1_555 1_555
Gd15_3 O46_2 1_555 1_555
O34_3 Gd13 1_555 1_555
O35_3 Gd13 1_555 1_555
H33_3 O35_3 1_555 1_555
H34_3 O35_3 1_555 1_555
C57_3 H38_3 1_555 1_555
C58_3 C57_3 1_555 1_555
H39_3 C58_3 1_555 1_555
N16_2 C58_3 1_555 1_555
C60_3 C59_3 1_555 1_555
H40_3 C60_3 1_555 1_555
C61_3 C57_3 1_555 1_555
C62_3 O34_3 1_555 1_555
O37_3 C62_3 1_555 1_555
O49_3 Gd13 1_555 1_555
O58_3 Gd13 1_555 1_555
N16_2 C59_3 1_555 1_555
C60_3 C61_3 1_555 1_555
C61_3 C62_3 1_555 1_555
O37_3 Gd24 1_555 1_555
Gd24 O49_3 1_555 1_555
O30_3 C51_3 1_555 1_555
C40_3 C41_3 1_555 1_555
C41_3 H27_3 1_555 1_555
C42_3 C41_3 1_555 1_555
C43_3 C42_3 1_555 1_555
H28_3 C43_3 1_555 1_555
C44_3 C43_3 1_555 1_555
H29_3 C44_3 1_555 1_555
N7_3 C40_3 1_555 1_555
O32_3 C51_3 1_555 1_555
C51_3 C42_3 1_555 1_555
Gd20 O30_3 1_555 1_555
Gd17_2 O32_3 1_555 1_555
C44_3 N7_3 1_555 1_555
Gd9 O1_2 1_555 1_555
Gd2_2 O2_2 1_555 1_555
O1_2 Gd14_2 1_555 1_555
O2_2 Gd9 1_555 1_555
O3_2 Gd9 1_555 1_555
O4_2 Gd9 1_555 1_555
H1_2 O4_2 1_555 1_555
H2_2 O4_2 1_555 1_555
O54 C13_2 1_555 1_555
C1_2 C2_2 1_555 1_555
C2_2 H3_2 1_555 1_555
C3_2 C2_2 1_555 1_555
C4_2 C3_2 1_555 1_555
H4_2 C4_2 1_555 1_555
C5_2 C4_2 1_555 1_555
H5_2 C5_2 1_555 1_555
N13 C1_2 1_555 1_555
C6_2 H6_2 1_555 1_555
C7_2 C6_2 1_555 1_555
H7_2 C7_2 1_555 1_555
C8_2 C1_2 1_555 1_555
C9_2 C8_2 1_555 1_555
H8_2 C9_2 1_555 1_555
C10_2 C6_2 1_555 1_555
C11_2 O3_2 1_555 1_555
O6_2 Gd2_2 1_555 1_555
O7_2 Gd9 1_555 1_555
C12_3 O7_2 1_555 1_555
O64 C13_2 1_555 1_555
C13_2 C3_2 1_555 1_555
O63 C12_3 1_555 1_555
Gd14_2 O39_2 1_555 1_555
O39_2 Gd9 1_555 1_555
O40_4 Gd14_2 1_555 1_555
O41_4 Gd14_2 1_555 1_555
H41_4 O41_4 1_555 1_555
H42_4 O41_4 1_555 1_555
O55 C75_4 1_555 1_555
C64_4 C65_4 1_555 1_555
C65_4 H43_4 1_555 1_555
C66_4 C65_4 1_555 1_555
C67_4 C66_4 1_555 1_555
H44_4 C67_4 1_555 1_555
C68_4 C67_4 1_555 1_555
H45_4 C68_4 1_555 1_555
N13_3 C64_4 1_555 1_555
C69_4 H46_4 1_555 1_555
C70_4 C69_4 1_555 1_555
H47_4 C70_4 1_555 1_555
N15_3 C70_4 1_555 1_555
C71_4 C64_4 1_555 1_555
C72_4 C71_4 1_555 1_555
H48_4 C72_4 1_555 1_555
C73_4 C69_4 1_555 1_555
C74_4 O40_4 1_555 1_555
O43_2 Gd2_2 1_555 1_555
O64_3 C75_4 1_555 1_555
C75_4 C66_4 1_555 1_555
Gd14 O1_2 1_555 1_555
O51_2 Gd2_2 1_555 1_555
O59_2 Gd2_2 1_555 1_555
O63_4 Gd14_2 1_555 1_555
Gd2_2 O39_2 1_555 1_555
O2_2 Gd14 1_555 1_555
C5_2 N13 1_555 1_555
C7_2 N15 1_555 1_555
N15 C8_2 1_555 1_555
C9_2 C10_2 1_555 1_555
C10_2 C11_2 1_555 1_555
C11_2 O6_2 1_555 1_555
Gd14_2 O51_2 1_555 1_555
C68_4 N13_3 1_555 1_555
N15_3 C71_4 1_555 1_555
C72_4 C73_4 1_555 1_555
C73_4 C74_4 1_555 1_555
C74_4 O43_2 1_555 1_555
Gd14 O51_2 1_555 1_555
C12_3 H49_3 1_555 1_555
Mn4_3 N7_4 1_555 1_555
O28_4 Gd18 1_555 1_555
O29_4 Gd18 1_555 1_555
H25_4 O29_4 1_555 1_555
H26_4 O29_4 1_555 1_555
O58 C51_4 1_555 1_555
C40_4 C41_4 1_555 1_555
C41_4 H27_4 1_555 1_555
C42_4 C41_4 1_555 1_555
C43_4 C42_4 1_555 1_555
H28_4 C43_4 1_555 1_555
C44_4 C43_4 1_555 1_555
H29_4 C44_4 1_555 1_555
N7_4 C40_4 1_555 1_555
C45_4 H30_4 1_555 1_555
C46_4 C45_4 1_555 1_555
H31_4 C46_4 1_555 1_555
N8_4 Mn4_3 1_555 1_555
C47_4 C40_4 1_555 1_555
C48_4 C47_4 1_555 1_555
H32_4 C48_4 1_555 1_555
C49_4 C45_4 1_555 1_555
C50_4 O28_4 1_555 1_555
O60 C50_4 1_555 1_555
O32_4 C51_4 1_555 1_555
C51_4 C42_4 1_555 1_555
Gd15_2 O32_4 1_555 1_555
N16_3 Mn4_3 1_555 1_555
O62_4 Gd18 1_555 1_555
O67_4 Gd18 1_555 1_555
C44_4 N7_4 1_555 1_555
C46_4 N8_4 1_555 1_555
N8_4 C47_4 1_555 1_555
C48_4 C49_4 1_555 1_555
C49_4 C50_4 1_555 1_555
C25_3 O62 1_555 1_555
O60_3 Gd24 1_555 1_555
Gd15 O49_3 1_555 1_555
C25_3 H50_3 1_555 1_555
O18_2 C25_4 1_555 1_555
O18_2 Gd20 1_555 1_555
C25_4 H50_4 1_555 1_555
O20_2 Gd14 1_555 1_555
O21_2 Gd14 1_555 1_555
H17_2 O21_2 1_555 1_555
H18_2 O21_2 1_555 1_555
O56 C39_2 1_555 1_555
C27_2 C28_2 1_555 1_555
C28_2 H19_2 1_555 1_555
C29_2 C28_2 1_555 1_555
C30_2 C29_2 1_555 1_555
H20_2 C30_2 1_555 1_555
C31_2 C30_2 1_555 1_555
H21_2 C31_2 1_555 1_555
C32_2 H22_2 1_555 1_555
C33_2 C32_2 1_555 1_555
H23_2 C33_2 1_555 1_555
C34_2 C27_2 1_555 1_555
C35_2 C34_2 1_555 1_555
H24_2 C35_2 1_555 1_555
C36_2 C32_2 1_555 1_555
C37_2 O20_2 1_555 1_555
O59_2 C37_2 1_555 1_555
O24_2 Gd14 1_555 1_555
C38_3 O24_2 1_555 1_555
O64_2 C39_2 1_555 1_555
C39_2 C29_2 1_555 1_555
O63_2 C38_3 1_555 1_555
C27_2 N13_2 1_555 1_555
C31_2 N13_2 1_555 1_555
C33_2 N15_2 1_555 1_555
N15_2 C34_2 1_555 1_555
C35_2 C36_2 1_555 1_555
C36_2 C37_2 1_555 1_555
C38_3 H51_3 1_555 1_555
C12_4 O62_2 1_555 1_555
O36_4 C63_4 1_555 1_555
C52_4 C53_4 1_555 1_555
C53_4 H35_4 1_555 1_555
C54_4 C53_4 1_555 1_555
C55_4 C54_4 1_555 1_555
H36_4 C55_4 1_555 1_555
C56_4 C55_4 1_555 1_555
H37_4 C56_4 1_555 1_555
N9_2 C52_4 1_555 1_555
C63_4 C54_4 1_555 1_555
O59_3 Gd23 1_555 1_555
O36_4 Gd15_2 1_555 1_555
C56_4 N9_2 1_555 1_555
O67_2 C63_4 1_555 1_555
Gd15_2 O49 1_555 1_555
C12_4 H49_4 1_555 1_555
O9_2 C12_5 1_555 1_555
O33_3 Gd17 1_555 1_555
O34_4 Gd17 1_555 1_555
O35_4 Gd17 1_555 1_555
H33_4 O35_4 1_555 1_555
H34_4 O35_4 1_555 1_555
C57_4 H38_4 1_555 1_555
C58_4 C57_4 1_555 1_555
H39_4 C58_4 1_555 1_555
N10_2 C58_4 1_555 1_555
C60_4 C59_4 1_555 1_555
H40_4 C60_4 1_555 1_555
C61_4 C57_4 1_555 1_555
C62_4 O34_4 1_555 1_555
O37_4 C62_4 1_555 1_555
Gd23_3 O33_3 1_555 1_555
O46_3 Gd17 1_555 1_555
O49_4 Gd17 1_555 1_555
O9_2 Gd17 1_555 1_555
O33_3 Gd17_2 1_555 1_555
N10_2 C59_4 1_555 1_555
N10_2 Mn4 1_555 1_555
C60_4 C61_4 1_555 1_555
C61_4 C62_4 1_555 1_555
O37_4 Gd23_3 1_555 1_555
Gd17_2 O46_3 1_555 1_555
Gd23_3 O49_4 1_555 1_555
C12_5 H49_5 1_555 1_555
C38_4 O63_4 1_555 1_555
O63_3 C38_4 1_555 1_555
C38_4 H51_4 1_555 1_555
C12_6 O62_3 1_555 1_555
O36_5 C63_5 1_555 1_555
C52_5 C53_5 1_555 1_555
C53_5 H35_5 1_555 1_555
C54_5 C53_5 1_555 1_555
C55_5 C54_5 1_555 1_555
H36_5 C55_5 1_555 1_555
C56_5 C55_5 1_555 1_555
H37_5 C56_5 1_555 1_555
N9_3 C52_5 1_555 1_555
C63_5 C54_5 1_555 1_555
O59_4 Gd23_2 1_555 1_555
O36_5 Gd15_3 1_555 1_555
C56_5 N9_3 1_555 1_555
O67_3 C63_5 1_555 1_555
Gd15_3 O49_2 1_555 1_555
C12_6 H49_6 1_555 1_555
O9_3 C12_7 1_555 1_555
O33_4 Gd17_2 1_555 1_555
O34_5 Gd17_2 1_555 1_555
O35_5 Gd17_2 1_555 1_555
H33_5 O35_5 1_555 1_555
H34_5 O35_5 1_555 1_555
C57_5 H38_5 1_555 1_555
C58_5 C57_5 1_555 1_555
H39_5 C58_5 1_555 1_555
N10_3 C58_5 1_555 1_555
C60_5 C59_5 1_555 1_555
H40_5 C60_5 1_555 1_555
C61_5 C57_5 1_555 1_555
C62_5 O34_5 1_555 1_555
O37_5 C62_5 1_555 1_555
Gd23_3 O33_4 1_555 1_555
O9_3 Gd17_2 1_555 1_555
O33_4 Gd20 1_555 1_555
N10_3 C59_5 1_555 1_555
N10_3 Mn4_2 1_555 1_555
C60_5 C61_5 1_555 1_555
C61_5 C62_5 1_555 1_555
O37_5 Gd23_3 1_555 1_555
Gd20 O46_3 1_555 1_555
C12_7 H49_7 1_555 1_555
O40_5 Gd15_3 1_555 1_555
O41_5 Gd15_3 1_555 1_555
H41_5 O41_5 1_555 1_555
H42_5 O41_5 1_555 1_555
O57_3 C75_5 1_555 1_555
C64_5 C65_5 1_555 1_555
C65_5 H43_5 1_555 1_555
C66_5 C65_5 1_555 1_555
C67_5 C66_5 1_555 1_555
H44_5 C67_5 1_555 1_555
C68_5 C67_5 1_555 1_555
H45_5 C68_5 1_555 1_555
N11_4 C64_5 1_555 1_555
C69_5 H46_5 1_555 1_555
C70_5 C69_5 1_555 1_555
H47_5 C70_5 1_555 1_555
N12_4 C70_5 1_555 1_555
C71_5 C64_5 1_555 1_555
C72_5 C71_5 1_555 1_555
H48_5 C72_5 1_555 1_555
C73_5 C69_5 1_555 1_555
C74_5 O40_5 1_555 1_555
O44_4 C75_5 1_555 1_555
C75_5 C66_5 1_555 1_555
Gd21 O44_4 1_555 1_555
Mn4_4 N11_4 1_555 1_555
N13_4 Mn4 1_555 1_555
N15_4 Mn4 1_555 1_555
O63_5 Gd15_3 1_555 1_555
O64_4 Gd15_3 1_555 1_555
C68_5 N11_4 1_555 1_555
N12_4 C71_5 1_555 1_555
N12_4 Mn4_4 1_555 1_555
C72_5 C73_5 1_555 1_555
C73_5 C74_5 1_555 1_555
C74_5 O59_4 1_555 1_555
Gd20 O49_4 1_555 1_555
Mn4_2 N7_5 1_555 1_555
O28_5 Gd16 1_555 1_555
O29_5 Gd16 1_555 1_555
H25_5 O29_5 1_555 1_555
H26_5 O29_5 1_555 1_555
O58_3 C51_5 1_555 1_555
C40_5 C41_5 1_555 1_555
C41_5 H27_5 1_555 1_555
C42_5 C41_5 1_555 1_555
C43_5 C42_5 1_555 1_555
H28_5 C43_5 1_555 1_555
C44_5 C43_5 1_555 1_555
H29_5 C44_5 1_555 1_555
N7_5 C40_5 1_555 1_555
C45_5 H30_5 1_555 1_555
C46_5 C45_5 1_555 1_555
H31_5 C46_5 1_555 1_555
N8_5 Mn4_2 1_555 1_555
C47_5 C40_5 1_555 1_555
C48_5 C47_5 1_555 1_555
H32_5 C48_5 1_555 1_555
C49_5 C45_5 1_555 1_555
C50_5 O28_5 1_555 1_555
O59 C50_5 1_555 1_555
O32_5 C51_5 1_555 1_555
C51_5 C42_5 1_555 1_555
Gd15 O32_5 1_555 1_555
O62_5 Gd16 1_555 1_555
O67_5 Gd16 1_555 1_555
C44_5 N7_5 1_555 1_555
C46_5 N8_5 1_555 1_555
N8_5 C47_5 1_555 1_555
C48_5 C49_5 1_555 1_555
C49_5 C50_5 1_555 1_555
O40_6 Gd15 1_555 1_555
O41_6 Gd15 1_555 1_555
H41_6 O41_6 1_555 1_555
H42_6 O41_6 1_555 1_555
O57 C75_6 1_555 1_555
C64_6 C65_6 1_555 1_555
C65_6 H43_6 1_555 1_555
C66_6 C65_6 1_555 1_555
C67_6 C66_6 1_555 1_555
H44_6 C67_6 1_555 1_555
C68_6 C67_6 1_555 1_555
H45_6 C68_6 1_555 1_555
N11_5 C64_6 1_555 1_555
C69_6 H46_6 1_555 1_555
C70_6 C69_6 1_555 1_555
H47_6 C70_6 1_555 1_555
N12_5 C70_6 1_555 1_555
C71_6 C64_6 1_555 1_555
C72_6 C71_6 1_555 1_555
H48_6 C72_6 1_555 1_555
C73_6 C69_6 1_555 1_555
C74_6 O40_6 1_555 1_555
O67_5 C75_6 1_555 1_555
C75_6 C66_6 1_555 1_555
Mn4_4 N11_5 1_555 1_555
O57_4 Gd15 1_555 1_555
O63_6 Gd15 1_555 1_555
C68_6 N11_5 1_555 1_555
N12_5 C71_6 1_555 1_555
N12_5 Mn4_4 1_555 1_555
C72_6 C73_6 1_555 1_555
C73_6 C74_6 1_555 1_555
C74_6 O60_3 1_555 1_555
O57_4 C63_6 1_555 1_555
C52_6 C53_6 1_555 1_555
C53_6 H35_6 1_555 1_555
C54_6 C53_6 1_555 1_555
C55_6 C54_6 1_555 1_555
H36_6 C55_6 1_555 1_555
C56_6 C55_6 1_555 1_555
H37_6 C56_6 1_555 1_555
N14_3 C52_6 1_555 1_555
C63_6 C54_6 1_555 1_555
C56_6 N14_3 1_555 1_555
O67 C63_6 1_555 1_555
O34_6 Gd20 1_555 1_555
O35_6 Gd20 1_555 1_555
H33_6 O35_6 1_555 1_555
H34_6 O35_6 1_555 1_555
C57_6 H38_6 1_555 1_555
C58_6 C57_6 1_555 1_555
H39_6 C58_6 1_555 1_555
N16_3 C58_6 1_555 1_555
C60_6 C59_6 1_555 1_555
H40_6 C60_6 1_555 1_555
C61_6 C57_6 1_555 1_555
C62_6 O34_6 1_555 1_555
O37_6 C62_6 1_555 1_555
N16_3 C59_6 1_555 1_555
C60_6 C61_6 1_555 1_555
C61_6 C62_6 1_555 1_555
O37_6 Gd23_3 1_555 1_555
O28_6 Gd21 1_555 1_555
O29_6 Gd21 1_555 1_555
H25_6 O29_6 1_555 1_555
H26_6 O29_6 1_555 1_555
O58_2 C51_6 1_555 1_555
C40_6 C41_6 1_555 1_555
C41_6 H27_6 1_555 1_555
C42_6 C41_6 1_555 1_555
C43_6 C42_6 1_555 1_555
H28_6 C43_6 1_555 1_555
C44_6 C43_6 1_555 1_555
H29_6 C44_6 1_555 1_555
N13_4 C40_6 1_555 1_555
C45_6 H30_6 1_555 1_555
C46_6 C45_6 1_555 1_555
H31_6 C46_6 1_555 1_555
C47_6 C40_6 1_555 1_555
C48_6 C47_6 1_555 1_555
H32_6 C48_6 1_555 1_555
C49_6 C45_6 1_555 1_555
C50_6 O28_6 1_555 1_555
O60_2 C50_6 1_555 1_555
O64_4 C51_6 1_555 1_555
C51_6 C42_6 1_555 1_555
O62_6 Gd21 1_555 1_555
C44_6 N13_4 1_555 1_555
C46_6 N15_4 1_555 1_555
N15_4 C47_6 1_555 1_555
C48_6 C49_6 1_555 1_555
C49_6 C50_6 1_555 1_555
O40_7 Gd15_2 1_555 1_555
O41_7 Gd15_2 1_555 1_555
H41_7 O41_7 1_555 1_555
H42_7 O41_7 1_555 1_555
O57_2 C75_7 1_555 1_555
C64_7 C65_7 1_555 1_555
C65_7 H43_7 1_555 1_555
C66_7 C65_7 1_555 1_555
C67_7 C66_7 1_555 1_555
H44_7 C67_7 1_555 1_555
C68_7 C67_7 1_555 1_555
H45_7 C68_7 1_555 1_555
N11_6 C64_7 1_555 1_555
C69_7 H46_7 1_555 1_555
C70_7 C69_7 1_555 1_555
H47_7 C70_7 1_555 1_555
N12_6 C70_7 1_555 1_555
C71_7 C64_7 1_555 1_555
C72_7 C71_7 1_555 1_555
H48_7 C72_7 1_555 1_555
C73_7 C69_7 1_555 1_555
C74_7 O40_7 1_555 1_555
O67_4 C75_7 1_555 1_555
C75_7 C66_7 1_555 1_555
Mn4_4 N11_6 1_555 1_555
O63_7 Gd15_2 1_555 1_555
C68_7 N11_6 1_555 1_555
N12_6 C71_7 1_555 1_555
N12_6 Mn4_4 1_555 1_555
C72_7 C73_7 1_555 1_555
C73_7 C74_7 1_555 1_555
C74_7 O59_3 1_555 1_555
C12_8 O63_5 1_555 1_555
O62_6 C12_8 1_555 1_555
C25_5 O63_6 1_555 1_555
O62_5 C25_5 1_555 1_555
C38_5 O63_7 1_555 1_555
O62_4 C38_5 1_555 1_555
C12_8 H49_8 1_555 1_555
C25_5 H50_5 1_555 1_555
C38_5 H51_5 1_555 1_555

#END
