
###############################################################################
#
# This file contains modified crystal structure data generated from the
# MOF subset of the Cambridge Structural Database (CSD) v543 
# hosted by the Cambridge Crystallographic Data Centre (CCDC).
#
# This work is licensed under the Creative Commons
# Attribution-NonCommercial-ShareAlike 4.0 International License.
# To view a copy of this license, visit
# http://creativecommons.org/licenses/by-nc-sa/4.0/
# or send a letter to
# Creative Commons, PO Box 1866, Mountain View, CA 94042, USA.
#
# CIF created using the CSD Python API on 29 September 2022
# The structure has been converted into the P1 space group
# The structure has a 3D framework
# The original CSD entry KAWXOY is in the trigonal crystal system
# The original CSD entry KAWXOY is in a Sohncke space group
# The framework has been calculated to contain at least 10.0% void space
# The void calculation uses a probe of radius 1.32A, grid spacing 0.4
# The framework is charged, counterions have been retained in the structure
#
###############################################################################

data_KAWXOY
_chemical_formula_moiety         '(C108 H114 Co3 Gd18 N18 O73 18+)n'
_symmetry_cell_setting           triclinic
_symmetry_space_group_name_H-M   'P 1'
_symmetry_Int_Tables_number      1
_space_group_name_Hall           'P 1'
loop_
_symmetry_equiv_pos_site_id
_symmetry_equiv_pos_as_xyz
1 x,y,z
_cell_length_a                   18.0641(4)
_cell_length_b                   18.0641(4)
_cell_length_c                   21.2710(5)
_cell_angle_alpha                90
_cell_angle_beta                 90
_cell_angle_gamma                120
_cell_volume                     6011.06
loop_
_atom_site_label
_atom_site_type_symbol
_atom_site_fract_x
_atom_site_fract_y
_atom_site_fract_z
Gd13 Gd 0.18493(3) 0.18493(3) 0.0000
C19 C 0.0378(9) 0.2101(7) 0.9184(5)
O15 O 0.0626(6) 0.1623(4) 0.9434(4)
O16 O 0.0820(6) 0.2883(4) 0.9089(3)
Gd5 Gd 0.77411(4) 0.17170(3) 0.41242(2)
C25 C 0.7295(10) 0.0938(7) 0.7113(4)
H23 H 0.7773 0.1282 0.7357
C26 C 0.7331(9) 0.1062(7) 0.6453(4)
H24 H 0.7822 0.1496 0.6264
C27 C 0.6618(8) 0.0521(6) 0.6092(4)
C30 C 0.6692(8) 0.0645(6) 0.5394(4)
N5 N 0.6576(6) 0.0328(4) 0.7391(3)
O17 O 0.7324(6) 0.1294(5) 0.5184(3)
O18 O 0.6100(6) 0.0125(5) 0.5080(3)
O23 O 0.6781(3) 0.2271(2) 0.44540(16)
H33 H 0.6295 0.1986 0.4748
H34 H 0.6822 0.2812 0.4313
O24 O 0.8587(3) 0.3084(2) 0.46569(16)
H35 H 0.8631 0.3155 0.5053
H36 H 0.8885 0.3564 0.4476
O25 O 0.6424(4) 0.0747(3) 0.3663(2)
O26 O 0.7522(4) 0.0310(3) 0.4204(3)
Gd7 Gd 0.66696(3) 0.06551(3) 0.25492(2)
Gd12 Gd 0.22589(4) 0.39759(3) 0.92092(2)
Gd13_2 Gd 0.18493(3) 0.18493(3) 1.0000
Gd14 Gd 0.81507(3) -0.0000 0.3334
Co3 Co 0.64799(8) -0.0000 0.8334
O29 O 0.7860(5) 0.2723(7) 0.3402(3)
O35 O 0.7971(3) 0.1219(3) 0.3143(2)
O38 O 0.9180(6) 0.2063(4) 0.4245(3)
Co1 Co -0.0000 0.64799(8) 0.1667
C5 C 0.0154(5) 0.6037(5) 0.0354(4)
C7 C 0.0807(6) 0.5919(5) 0.0714(4)
C8 C 0.1315(6) 0.5632(6) 0.0436(4)
H4 H 0.1280 0.5524 0.0006
C9 C 0.1857(7) 0.5513(7) 0.0796(5)
C10 C 0.1934(7) 0.5704(7) 0.1440(5)
H5 H 0.2319 0.5639 0.1691
C11 C 0.1408(7) 0.5998(7) 0.1690(4)
H6 H 0.1442 0.6115 0.2118
C12 C 0.2327(7) 0.5099(6) 0.0484(5)
N2 N 0.0865(4) 0.6117(4) 0.1343(3)
O4 O 0.2893(2) 0.5044(2) 0.08212(16)
Gd6 Gd 0.33304(3) 0.39855(4) 0.07841(2)
N7 N 0.0328(4) 0.6576(6) 0.2609(3)
N9 N 0.0818(4) 0.7788(6) 0.1474(3)
Gd1 Gd 0.06551(3) 0.66696(3) 0.74508(2)
Gd3 Gd -0.0000 0.81507(3) 0.6667
C4 C 0.0082(6) 0.5976(6) 0.9703(4)
H3 H 0.0439 0.5854 0.9465
O3 O 0.2140(5) 0.4863(5) 0.9931(3)
O5 O 0.0687(2) 0.5364(2) 0.75132(16)
H10 H 0.0511 0.5017 0.7828
H11 H 0.0875 0.5166 0.7223
O6 O 0.1304(2) 0.7714(2) 0.83128(16)
H12 H 0.1046 0.7670 0.8742
H13 H 0.1874 0.8260 0.8300
O11 O 0.1219(3) 0.7971(3) 0.6857(2)
O12 O 0.0794(3) 0.9231(3) 0.7482(2)
H18 H 0.1270 0.9272 0.7739
H19 H 0.0691 0.9700 0.7610
Gd4 Gd 0.60145(4) 0.93449(3) 0.41175(2)
C28 C 0.5894(8) 0.9918(6) 0.6370(4)
H25 H 0.5415 0.9561 0.6132
C29 C 0.5883(7) 0.9846(5) 0.7021(4)
C31 C 0.5112(8) 0.9193(6) 0.7381(4)
C32 C 0.4317(8) 0.8685(6) 0.7103(4)
H26 H 0.4244 0.8720 0.6673
C33 C 0.3656(10) 0.8143(7) 0.7463(5)
C34 C 0.3770(10) 0.8066(7) 0.8107(5)
H27 H 0.3320 0.7681 0.8358
C35 C 0.4590(10) 0.8592(7) 0.8357(4)
H28 H 0.4673 0.8558 0.8785
C36 C 0.2772(9) 0.7673(7) 0.7151(5)
N6 N 0.5252(6) 0.9135(4) 0.8010(3)
O19 O 0.2723(7) 0.7860(5) 0.6598(3)
O20 O 0.2151(3) 0.7107(2) 0.74879(16)
O21 O 0.4677(3) 0.9313(2) 0.41799(16)
H29 H 0.4506 0.9489 0.4495
H30 H 0.4291 0.9125 0.3890
O22 O 0.6410(3) 0.8696(2) 0.49795(16)
H31 H 0.6624 0.8954 0.5409
H32 H 0.6386 0.8126 0.4967
O27 O 0.6752(4) 0.8781(3) 0.3524(2)
Gd9 Gd 0.60241(3) 0.82830(3) 0.25425(2)
Gd10 Gd 0.17170(3) 0.77411(4) 0.58758(2)
Gd14_2 Gd 0.81507(3) 1.0000 0.3334
Co3_2 Co 0.64799(8) 1.0000 0.8334
O31 O 0.4956(2) 0.7849(3) 0.41545(16)
O32 O 0.5677(3) 0.9253(3) 0.3004(2)
O33 O 0.0747(3) 0.6424(4) 0.6337(2)
O34 O 0.0310(3) 0.7522(4) 0.5796(3)
O37 O 0.0997(5) 0.9374(6) 0.6100(4)
C20 C 0.9474(8) 0.1636(6) 0.8936(4)
C21 C 0.8978(8) 0.2037(6) 0.8953(5)
H20 H 0.9215 0.2602 0.9084
C22 C 0.8139(8) 0.1579(6) 0.8773(5)
H21 H 0.7799 0.1826 0.8830
C23 C 0.8278(8) 0.0440(6) 0.8480(4)
C24 C 0.9096(8) 0.0823(6) 0.8696(4)
H22 H 0.9399 0.0532 0.8682
N4 N 0.7788(6) 0.0818(4) 0.8526(3)
Co1_2 Co 1.0000 0.64799(8) 0.1667
C1 C 0.9062(7) 0.6357(7) 0.0446(4)
H1 H 0.8718 0.6491 0.0690
N1 N 0.9672(4) 0.6248(5) 0.0724(3)
N8 N 0.9135(4) 0.5252(6) 0.1990(3)
N10 N 0.9182(4) 0.6970(4) 0.1859(3)
Gd2 Gd 0.82830(3) 0.60241(3) 0.74575(2)
Gd3_2 Gd 1.0000 0.81507(3) 0.6667
C2 C 0.8938(7) 0.6269(6) 0.9786(4)
H2 H 0.8504 0.6326 0.9597
C3 C 0.9479(6) 0.6097(6) 0.9425(4)
C6 C 0.9355(6) 0.6047(6) 0.8727(4)
C13 C 0.8277(6) 0.7899(7) 0.7483(5)
C14 C 0.7838(6) 0.8364(6) 0.7731(4)
C15 C 0.6941(6) 0.7963(6) 0.7714(5)
H7 H 0.6613 0.7398 0.7583
C16 C 0.6560(6) 0.8421(6) 0.7894(5)
H8 H 0.5973 0.8174 0.7837
C17 C 0.7838(6) 0.9560(6) 0.8187(4)
C18 C 0.8273(6) 0.9177(6) 0.7971(4)
H9 H 0.8867 0.9468 0.7985
N3 N 0.6970(4) 0.9182(4) 0.8141(3)
O1 O 0.8706(5) 0.6030(4) 0.8517(3)
O2 O 0.9875(5) 0.5975(4) 0.8413(3)
O7 O 0.7729(2) 0.4510(2) 0.77873(16)
H14 H 0.8014 0.4309 0.8081
H15 H 0.7188 0.4010 0.7646
O8 O 0.6916(2) 0.5503(2) 0.79902(16)
H16 H 0.6845 0.5476 0.8386
H17 H 0.6436 0.5321 0.7809
O9 O 0.9253(3) 0.5677(3) 0.6996(2)
O10 O 0.9690(3) 0.7212(3) 0.7537(3)
O13 O 0.9003(5) 0.8377(4) 0.7233(4)
O14 O 0.7937(4) 0.7117(4) 0.7578(3)
O28 O 0.9206(3) 0.8437(4) 0.5851(2)
H37 H 0.8730 0.8002 0.5594
H38 H 0.9309 0.9009 0.5723
Gd8 Gd 0.93449(3) 0.60145(4) 0.58825(2)
O30 O 0.7277(7) 0.5137(5) 0.6736(3)
O36 O 0.8781(3) 0.6752(4) 0.6476(2)
Gd2_2 Gd 0.39759(3) 0.22589(4) 0.07908(2)
Co1_3 Co 0.35201(8) 0.35201(8) 0.5000
C1_2 C 0.3643(7) 0.2705(10) 0.3779(4)
H1_2 H 0.3509 0.2227 0.4023
C2_2 C 0.3731(6) 0.2669(9) 0.3119(4)
H2_2 H 0.3674 0.2178 0.2930
C3_2 C 0.3903(6) 0.3382(8) 0.2758(4)
C4_2 C 0.4024(6) 0.4106(8) 0.3036(4)
H3_2 H 0.4146 0.4585 0.2798
C5_2 C 0.3963(5) 0.4117(7) 0.3687(4)
C6_2 C 0.3953(6) 0.3308(8) 0.2060(4)
C7_2 C 0.4081(5) 0.4888(8) 0.4047(4)
C8_2 C 0.4368(6) 0.5683(8) 0.3769(4)
H4_2 H 0.4476 0.5756 0.3339
C9_2 C 0.4487(7) 0.6344(10) 0.4129(5)
C10_2 C 0.4296(7) 0.6230(10) 0.4773(5)
H5_2 H 0.4361 0.6680 0.5024
C11_2 C 0.4002(7) 0.5410(10) 0.5023(4)
H6_2 H 0.3885 0.5327 0.5451
C12_2 C 0.4901(6) 0.7228(9) 0.3817(5)
C13_2 C 0.2101(7) 0.0378(9) 0.0816(5)
N1_2 N 0.3752(5) 0.3424(6) 0.4057(3)
N2_2 N 0.3883(4) 0.4748(6) 0.4676(3)
O1_2 O 0.3970(4) 0.2676(6) 0.1850(3)
O2_2 O 0.4025(4) 0.3900(6) 0.1746(3)
O3_2 O 0.5137(5) 0.7277(7) 0.3264(3)
O5_2 O 0.4636(2) 0.5323(3) 0.08465(16)
H10_2 H 0.4983 0.5494 0.1161
H11_2 H 0.4834 0.5709 0.0556
O6_2 O 0.2286(2) 0.3590(3) 0.16461(16)
H12_2 H 0.2330 0.3376 0.2075
H13_2 H 0.1740 0.3614 0.1633
O7_2 O 0.5490(2) 0.3219(3) 0.11206(16)
H14_2 H 0.5691 0.3705 0.1414
H15_2 H 0.5990 0.3178 0.0979
O8_2 O 0.4497(2) 0.1413(3) 0.13235(16)
H16_2 H 0.4524 0.1369 0.1719
H17_2 H 0.4679 0.1115 0.1142
O9_2 O 0.4323(3) 0.3576(4) 0.0329(2)
O10_2 O 0.2788(3) 0.2478(4) 0.0870(3)
O11_2 O 0.2029(3) 0.3248(4) 0.0190(2)
O12_2 O 0.0769(3) 0.1563(4) 0.0815(2)
H18_2 H 0.0728 0.1998 0.1072
H19_2 H 0.0300 0.0991 0.0943
O13_2 O 0.1623(4) 0.0626(6) 0.0566(4)
O14_2 O 0.2883(4) 0.0820(6) 0.0911(3)
N7_2 N 0.3424(6) 0.3752(7) 0.5943(3)
N8_2 N 0.4748(6) 0.3883(7) 0.5324(3)
N9_2 N 0.2212(6) 0.3030(7) 0.4808(3)
N10_2 N 0.3030(4) 0.2212(6) 0.5192(3)
O30_2 O 0.4863(5) 0.2140(9) 0.0069(3)
O28_2 O 0.1563(4) 0.0769(5) 0.9185(2)
H37_2 H 0.1998 0.0728 0.8928
H38_2 H 0.0991 0.0300 0.9057
Gd8_2 Gd 0.39855(4) 0.33304(5) 0.92159(2)
O33_2 O 0.3576(4) 0.4323(5) 0.9671(2)
O34_2 O 0.2478(4) 0.2788(5) 0.9130(3)
O36_2 O 0.3248(4) 0.2029(5) 0.9810(2)
C14_2 C 0.1636(6) 0.9474(8) 0.1064(4)
C15_2 C 0.2037(6) 0.8978(8) 0.1047(5)
H7_2 H 0.2602 0.9215 0.0916
C16_2 C 0.1579(6) 0.8139(8) 0.1227(5)
H8_2 H 0.1826 0.7799 0.1170
C17_2 C 0.0440(6) 0.8278(8) 0.1520(4)
C18_2 C 0.0823(6) 0.9096(8) 0.1304(4)
H9_2 H 0.0532 0.9399 0.1318
C19_2 C 0.7899(7) 0.8277(11) 0.2517(5)
C20_2 C 0.8364(6) 0.7838(10) 0.2269(4)
C21_2 C 0.7963(6) 0.6941(10) 0.2286(5)
H20_2 H 0.7398 0.6613 0.2417
C22_2 C 0.8421(6) 0.6560(10) 0.2106(5)
H21_2 H 0.8174 0.5973 0.2163
C23_2 C 0.9560(6) 0.7838(10) 0.1813(4)
C24_2 C 0.9177(6) 0.8273(10) 0.2029(4)
H22_2 H 0.9468 0.8867 0.2015
O15_2 O 0.8377(4) 0.9003(7) 0.2767(4)
O16_2 O 0.7117(4) 0.7937(7) 0.2422(3)
C14_3 C 0.0526(8) 0.2162(6) 0.4398(4)
C15_3 C 0.1022(8) 0.3059(6) 0.4381(5)
H7_3 H 0.0785 0.3387 0.4250
C16_3 C 0.1861(8) 0.3440(6) 0.4561(5)
H8_3 H 0.2201 0.4027 0.4504
C17_3 C 0.1722(8) 0.2162(6) 0.4854(4)
C18_3 C 0.0904(8) 0.1727(6) 0.4638(4)
H9_3 H 0.0601 0.1133 0.4652
C20_3 C 0.2162(10) 0.0526(8) 0.5602(4)
C21_3 C 0.3059(10) 0.1022(8) 0.5619(5)
H20_3 H 0.3387 0.0785 0.5750
C22_3 C 0.3440(10) 0.1861(8) 0.5439(5)
H21_3 H 0.4027 0.2201 0.5496
C23_3 C 0.2162(10) 0.1722(8) 0.5146(4)
C24_3 C 0.1727(10) 0.0904(8) 0.5362(4)
H22_3 H 0.1133 0.0601 0.5348
C19_3 C 0.1723(11) 0.9622(9) 0.5850(5)
O16_3 O 0.2063(7) 0.9180(6) 0.5755(3)
C13_3 C 0.9622(9) 0.1723(6) 0.4150(5)
O13_3 O 0.9374(6) 0.0997(5) 0.3900(4)
O28_3 O 0.9231(5) 0.0794(3) 0.2518(2)
H37_3 H 0.9272 0.1270 0.2261
H38_3 H 0.9700 0.0691 0.2390
N8_3 N 0.6117(7) 0.0865(4) 0.8657(3)
O12_3 O 0.8437(4) 0.9206(3) 0.4149(2)
H18_3 H 0.8002 0.8730 0.4406
H19_3 H 0.9009 0.9309 0.4277
N7_3 N 0.6248(7) 0.9672(4) 0.9276(3)
O34_3 O 0.7212(5) 0.9690(3) 0.2463(3)
C25_2 C 0.0938(7) 0.7295(10) 0.2887(4)
H23_2 H 0.1282 0.7773 0.2643
C26_2 C 0.1062(7) 0.7331(9) 0.3547(4)
H24_2 H 0.1496 0.7822 0.3736
C27_2 C 0.0521(6) 0.6618(8) 0.3908(4)
C30_2 C 0.0645(6) 0.6692(8) 0.4606(4)
O17_2 O 0.1294(5) 0.7324(6) 0.4816(3)
O18_2 O 0.0125(5) 0.6100(6) 0.4920(3)
O23_2 O 0.2271(2) 0.6781(3) 0.55460(16)
H33_2 H 0.1986 0.6295 0.5252
H34_2 H 0.2812 0.6822 0.5687
O24_2 O 0.3084(2) 0.8587(3) 0.53431(16)
H35_2 H 0.3155 0.8631 0.4947
H36_2 H 0.3564 0.8885 0.5524
C4_3 C 0.5976(6) 0.0082(6) 0.0297(4)
H3_3 H 0.5854 0.0439 0.0535
O5_3 O 0.5364(2) 0.0687(2) 0.24868(16)
H10_3 H 0.5017 0.0511 0.2172
H11_3 H 0.5166 0.0875 0.2777
O6_3 O 0.7714(2) 0.1304(2) 0.16872(16)
H12_3 H 0.7670 0.1046 0.1258
H13_3 H 0.8260 0.1874 0.1700
C28_2 C 0.9918(6) 0.5894(8) 0.3630(4)
H25_2 H 0.9561 0.5415 0.3868
C29_2 C 0.9846(5) 0.5883(7) 0.2979(4)
C31_2 C 0.9193(6) 0.5112(8) 0.2619(4)
C32_2 C 0.8685(6) 0.4317(8) 0.2897(4)
H26_2 H 0.8720 0.4244 0.3327
C33_2 C 0.8143(7) 0.3656(10) 0.2537(5)
C34_2 C 0.8066(7) 0.3770(10) 0.1893(5)
H27_2 H 0.7681 0.3320 0.1642
C35_2 C 0.8592(7) 0.4590(10) 0.1643(4)
H28_2 H 0.8558 0.4673 0.1215
C36_2 C 0.7673(7) 0.2772(9) 0.2849(5)
O20_2 O 0.7107(2) 0.2151(3) 0.25121(16)
O21_2 O 0.9313(2) 0.4677(3) 0.58201(16)
H29_2 H 0.9489 0.4506 0.5505
H30_2 H 0.9125 0.4291 0.6110
O22_2 O 0.8696(2) 0.6410(3) 0.50205(16)
H31_2 H 0.8954 0.6624 0.4591
H32_2 H 0.8126 0.6386 0.5033
O31_2 O 0.7849(3) 0.4956(2) 0.58455(16)
C5_3 C 0.6037(5) 0.0154(5) 0.9646(4)
C7_3 C 0.5919(5) 0.0807(6) 0.9286(4)
C8_3 C 0.5632(6) 0.1315(6) 0.9564(4)
H4_3 H 0.5524 0.1280 0.9994
C9_3 C 0.5513(7) 0.1857(7) 0.9204(5)
C10_3 C 0.5704(7) 0.1934(7) 0.8560(5)
H5_3 H 0.5639 0.2319 0.8309
C11_3 C 0.5998(7) 0.1408(7) 0.8310(4)
H6_3 H 0.6115 0.1442 0.7882
C12_3 C 0.5099(6) 0.2327(7) 0.9516(5)
O4_2 O 0.5044(2) 0.2893(2) 0.91788(16)
C2_3 C 0.6269(6) 0.8938(7) 0.0214(4)
H2_3 H 0.6326 0.8504 0.0403
C3_3 C 0.6097(6) 0.9479(6) 0.0575(4)
C6_3 C 0.6047(6) 0.9355(6) 0.1273(4)
O1_3 O 0.6030(4) 0.8706(5) 0.1483(3)
O2_3 O 0.5975(4) 0.9875(5) 0.1587(3)
O7_3 O 0.4510(2) 0.7729(2) 0.22127(16)
H14_3 H 0.4309 0.8014 0.1919
H15_3 H 0.4010 0.7188 0.2354
O8_3 O 0.5503(2) 0.6916(2) 0.20098(16)
H16_3 H 0.5476 0.6845 0.1614
H17_3 H 0.5321 0.6436 0.2191
C1_3 C 0.6357(7) 0.9062(7) 0.9554(4)
H1_3 H 0.6491 0.8718 0.9310
C25_3 C 0.2705(10) 0.3643(12) 0.6221(4)
H23_3 H 0.2227 0.3509 0.5977
C26_3 C 0.2669(9) 0.3731(11) 0.6881(4)
H24_3 H 0.2178 0.3674 0.7070
C27_3 C 0.3382(8) 0.3903(10) 0.7242(4)
C28_3 C 0.4106(8) 0.4024(10) 0.6964(4)
H25_3 H 0.4585 0.4146 0.7202
C29_3 C 0.4117(7) 0.3963(9) 0.6313(4)
C30_3 C 0.3308(8) 0.3953(10) 0.7940(4)
C31_3 C 0.4888(8) 0.4081(10) 0.5953(4)
C32_3 C 0.5683(8) 0.4368(10) 0.6231(4)
H26_3 H 0.5756 0.4476 0.6661
C33_3 C 0.6344(10) 0.4487(12) 0.5871(5)
C34_3 C 0.6230(10) 0.4296(12) 0.5227(5)
H27_3 H 0.6680 0.4361 0.4976
C35_3 C 0.5410(10) 0.4002(12) 0.4977(4)
H28_3 H 0.5327 0.3885 0.4549
C36_3 C 0.7228(9) 0.4901(11) 0.6183(5)
O17_3 O 0.2676(6) 0.3970(8) 0.8150(3)
O18_3 O 0.3900(6) 0.4025(8) 0.8254(3)
O21_3 O 0.5323(3) 0.4636(4) 0.91535(16)
H29_3 H 0.5494 0.4983 0.8839
H30_3 H 0.5709 0.4834 0.9444
O22_3 O 0.3590(3) 0.2286(4) 0.83539(16)
H31_3 H 0.3376 0.2330 0.7925
H32_3 H 0.3614 0.1740 0.8367
O23_3 O 0.3219(3) 0.5490(4) 0.88794(16)
H33_3 H 0.3705 0.5691 0.8586
H34_3 H 0.3178 0.5990 0.9021
O24_3 O 0.1413(3) 0.4497(4) 0.86765(16)
H35_3 H 0.1369 0.4524 0.8281
H36_3 H 0.1115 0.4679 0.8858
loop_
_geom_bond_atom_site_label_1
_geom_bond_atom_site_label_2
_geom_bond_site_symmetry_1
_geom_bond_site_symmetry_2
O15 C19 1_555 1_555
O16 C19 1_555 1_555
Gd5 O17 1_555 1_555
C25 H23 1_555 1_555
C26 C25 1_555 1_555
H24 C26 1_555 1_555
C27 C26 1_555 1_555
C30 C27 1_555 1_555
N5 C25 1_555 1_555
O17 C30 1_555 1_555
O18 C30 1_555 1_555
O23 Gd5 1_555 1_555
H33 O23 1_555 1_555
H34 O23 1_555 1_555
O24 Gd5 1_555 1_555
H35 O24 1_555 1_555
H36 O24 1_555 1_555
Gd7 O25 1_555 1_555
Gd12 O16 1_555 1_555
Gd13_2 O15 1_555 1_555
Gd14 O26 1_555 1_555
Co3 N5 1_555 1_555
O29 Gd5 1_555 1_555
O35 Gd5 1_555 1_555
O38 Gd5 1_555 1_555
Gd5 O25 1_555 1_555
Gd5 O26 1_555 1_555
Gd7 O35 1_555 1_555
Gd14 O35 1_555 1_555
C7 C5 1_555 1_555
C8 C7 1_555 1_555
H4 C8 1_555 1_555
C9 C8 1_555 1_555
C10 C9 1_555 1_555
H5 C10 1_555 1_555
C11 C10 1_555 1_555
H6 C11 1_555 1_555
C12 C9 1_555 1_555
N2 Co1 1_555 1_555
O4 C12 1_555 1_555
Gd6 O4 1_555 1_555
N7 Co1 1_555 1_555
N9 Co1 1_555 1_555
C7 N2 1_555 1_555
C11 N2 1_555 1_555
H3 C4 1_555 1_555
O5 Gd1 1_555 1_555
H10 O5 1_555 1_555
H11 O5 1_555 1_555
O6 Gd1 1_555 1_555
H12 O6 1_555 1_555
H13 O6 1_555 1_555
O11 Gd1 1_555 1_555
O12 Gd3 1_555 1_555
H18 O12 1_555 1_555
H19 O12 1_555 1_555
H25 C28 1_555 1_555
C29 C28 1_555 1_555
C31 C29 1_555 1_555
C32 C31 1_555 1_555
H26 C32 1_555 1_555
C33 C32 1_555 1_555
C34 C33 1_555 1_555
H27 C34 1_555 1_555
C35 C34 1_555 1_555
H28 C35 1_555 1_555
C36 C33 1_555 1_555
N6 C31 1_555 1_555
O19 C36 1_555 1_555
O20 Gd1 1_555 1_555
O21 Gd4 1_555 1_555
H29 O21 1_555 1_555
H30 O21 1_555 1_555
O22 Gd4 1_555 1_555
H31 O22 1_555 1_555
H32 O22 1_555 1_555
O27 Gd4 1_555 1_555
Gd9 O27 1_555 1_555
Gd10 O11 1_555 1_555
Gd12 O3 1_555 1_555
O31 Gd4 1_555 1_555
O32 Gd4 1_555 1_555
O33 Gd1 1_555 1_555
O34 Gd3 1_555 1_555
O37 Gd3 1_555 1_555
Gd3 O11 1_555 1_555
C35 N6 1_555 1_555
C36 O20 1_555 1_555
N6 Co3_2 1_555 1_555
O19 Gd10 1_555 1_555
O27 Gd14_2 1_555 1_555
Gd9 O32 1_555 1_555
Gd10 O33 1_555 1_555
Gd10 O34 1_555 1_555
C20 C21 1_555 1_555
C21 H20 1_555 1_555
C22 C21 1_555 1_555
H21 C22 1_555 1_555
C24 C20 1_555 1_555
H22 C24 1_555 1_555
N4 C22 1_555 1_555
C23 C24 1_555 1_555
C23 N4 1_555 1_555
N4 Co3 1_555 1_555
Co1_2 N1 1_555 1_555
C1 H1 1_555 1_555
N1 C1 1_555 1_555
N8 Co1_2 1_555 1_555
N10 Co1_2 1_555 1_555
Gd2 O1 1_555 1_555
Gd3_2 O10 1_555 1_555
H2 C2 1_555 1_555
C3 C2 1_555 1_555
C6 C3 1_555 1_555
C13 C14 1_555 1_555
C14 C15 1_555 1_555
C15 H7 1_555 1_555
C16 C15 1_555 1_555
H8 C16 1_555 1_555
C17 C18 1_555 1_555
C18 C14 1_555 1_555
H9 C18 1_555 1_555
N3 C16 1_555 1_555
O1 C6 1_555 1_555
O2 C6 1_555 1_555
O7 Gd2 1_555 1_555
H14 O7 1_555 1_555
H15 O7 1_555 1_555
O8 Gd2 1_555 1_555
H16 O8 1_555 1_555
H17 O8 1_555 1_555
O13 Gd3_2 1_555 1_555
O14 Gd2 1_555 1_555
O28 Gd3_2 1_555 1_555
H37 O28 1_555 1_555
H38 O28 1_555 1_555
Gd8 O9 1_555 1_555
Co3_2 N3 1_555 1_555
O30 Gd2 1_555 1_555
O36 Gd2 1_555 1_555
Gd2 O9 1_555 1_555
Gd2 O10 1_555 1_555
Gd3_2 O36 1_555 1_555
C13 O13 1_555 1_555
C13 O14 1_555 1_555
C17 N3 1_555 1_555
Gd8 O36 1_555 1_555
Gd6 O2_2 1_555 1_555
Gd2_2 O1_2 1_555 1_555
Gd13 O10_2 1_555 1_555
Co1_3 N1_2 1_555 1_555
C1_2 H1_2 1_555 1_555
C2_2 C1_2 1_555 1_555
H2_2 C2_2 1_555 1_555
C3_2 C2_2 1_555 1_555
C4_2 C3_2 1_555 1_555
H3_2 C4_2 1_555 1_555
C5_2 C4_2 1_555 1_555
C6_2 C3_2 1_555 1_555
C7_2 C5_2 1_555 1_555
C8_2 C7_2 1_555 1_555
H4_2 C8_2 1_555 1_555
C9_2 C8_2 1_555 1_555
C10_2 C9_2 1_555 1_555
H5_2 C10_2 1_555 1_555
C11_2 C10_2 1_555 1_555
H6_2 C11_2 1_555 1_555
C12_2 C9_2 1_555 1_555
N1_2 C1_2 1_555 1_555
N2_2 Co1_3 1_555 1_555
O1_2 C6_2 1_555 1_555
O2_2 C6_2 1_555 1_555
O3_2 C12_2 1_555 1_555
O31 C12_2 1_555 1_555
O5_2 Gd6 1_555 1_555
H10_2 O5_2 1_555 1_555
H11_2 O5_2 1_555 1_555
O6_2 Gd6 1_555 1_555
H12_2 O6_2 1_555 1_555
H13_2 O6_2 1_555 1_555
O7_2 Gd2_2 1_555 1_555
H14_2 O7_2 1_555 1_555
H15_2 O7_2 1_555 1_555
O8_2 Gd2_2 1_555 1_555
H16_2 O8_2 1_555 1_555
H17_2 O8_2 1_555 1_555
O9_2 Gd6 1_555 1_555
O10_2 Gd6 1_555 1_555
O11_2 Gd6 1_555 1_555
O12_2 Gd13 1_555 1_555
H18_2 O12_2 1_555 1_555
H19_2 O12_2 1_555 1_555
O13_2 Gd13 1_555 1_555
O14_2 Gd2_2 1_555 1_555
Gd9 O3_2 1_555 1_555
N7_2 Co1_3 1_555 1_555
N8_2 Co1_3 1_555 1_555
N9_2 Co1_3 1_555 1_555
N10_2 Co1_3 1_555 1_555
O30_2 Gd2_2 1_555 1_555
Gd2_2 O9_2 1_555 1_555
Gd2_2 O10_2 1_555 1_555
Gd13 O11_2 1_555 1_555
C5_2 N1_2 1_555 1_555
C7_2 N2_2 1_555 1_555
C11_2 N2_2 1_555 1_555
C13_2 O13_2 1_555 1_555
C13_2 O14_2 1_555 1_555
O28_2 Gd13_2 1_555 1_555
H37_2 O28_2 1_555 1_555
H38_2 O28_2 1_555 1_555
O34_2 Gd13_2 1_555 1_555
Gd13_2 O36_2 1_555 1_555
Gd8_2 O33_2 1_555 1_555
Gd8_2 O34_2 1_555 1_555
Gd8_2 O36_2 1_555 1_555
Gd12 O33_2 1_555 1_555
Gd12 O34_2 1_555 1_555
C14_2 C15_2 1_555 1_555
C15_2 H7_2 1_555 1_555
C16_2 C15_2 1_555 1_555
H8_2 C16_2 1_555 1_555
C17_2 C18_2 1_555 1_555
C18_2 C14_2 1_555 1_555
H9_2 C18_2 1_555 1_555
N9 C16_2 1_555 1_555
C17_2 N9 1_555 1_555
C19_2 C20_2 1_555 1_555
C20_2 C21_2 1_555 1_555
C21_2 H20_2 1_555 1_555
C22_2 C21_2 1_555 1_555
H21_2 C22_2 1_555 1_555
C24_2 C20_2 1_555 1_555
H22_2 C24_2 1_555 1_555
N10 C22_2 1_555 1_555
O15_2 C19_2 1_555 1_555
O16_2 C19_2 1_555 1_555
Gd9 O16_2 1_555 1_555
Gd14_2 O15_2 1_555 1_555
C23_2 C24_2 1_555 1_555
C23_2 N10 1_555 1_555
C14_3 C15_3 1_555 1_555
C15_3 H7_3 1_555 1_555
C16_3 C15_3 1_555 1_555
H8_3 C16_3 1_555 1_555
C17_3 C18_3 1_555 1_555
C18_3 C14_3 1_555 1_555
H9_3 C18_3 1_555 1_555
N9_2 C16_3 1_555 1_555
C20_3 C21_3 1_555 1_555
C21_3 H20_3 1_555 1_555
C22_3 C21_3 1_555 1_555
H21_3 C22_3 1_555 1_555
C23_3 C17_3 1_555 1_555
C24_3 C20_3 1_555 1_555
H22_3 C24_3 1_555 1_555
N10_2 C22_3 1_555 1_555
C17_3 N9_2 1_555 1_555
C23_3 C24_3 1_555 1_555
C23_3 N10_2 1_555 1_555
O37 C19_3 1_555 1_555
O16_3 C19_3 1_555 1_555
Gd10 O16_3 1_555 1_555
O13_3 Gd14 1_555 1_555
O28_3 Gd14 1_555 1_555
H37_3 O28_3 1_555 1_555
H38_3 O28_3 1_555 1_555
N8_3 Co3 1_555 1_555
C13_3 O13_3 1_555 1_555
C13_3 O38 1_555 1_555
O12_3 Gd14_2 1_555 1_555
H18_3 O12_3 1_555 1_555
H19_3 O12_3 1_555 1_555
N7_3 Co3_2 1_555 1_555
O34_3 Gd14_2 1_555 1_555
Gd9 O34_3 1_555 1_555
Gd10 O17_2 1_555 1_555
C25_2 H23_2 1_555 1_555
C26_2 C25_2 1_555 1_555
H24_2 C26_2 1_555 1_555
C27_2 C26_2 1_555 1_555
C30_2 C27_2 1_555 1_555
N7 C25_2 1_555 1_555
O17_2 C30_2 1_555 1_555
O18_2 C30_2 1_555 1_555
O23_2 Gd10 1_555 1_555
H33_2 O23_2 1_555 1_555
H34_2 O23_2 1_555 1_555
O24_2 Gd10 1_555 1_555
H35_2 O24_2 1_555 1_555
H36_2 O24_2 1_555 1_555
H3_3 C4_3 1_555 1_555
O5_3 Gd7 1_555 1_555
H10_3 O5_3 1_555 1_555
H11_3 O5_3 1_555 1_555
O6_3 Gd7 1_555 1_555
H12_3 O6_3 1_555 1_555
H13_3 O6_3 1_555 1_555
H25_2 C28_2 1_555 1_555
C29_2 C28_2 1_555 1_555
C31_2 C29_2 1_555 1_555
C32_2 C31_2 1_555 1_555
H26_2 C32_2 1_555 1_555
C33_2 C32_2 1_555 1_555
C34_2 C33_2 1_555 1_555
H27_2 C34_2 1_555 1_555
C35_2 C34_2 1_555 1_555
H28_2 C35_2 1_555 1_555
C36_2 C33_2 1_555 1_555
N8 C31_2 1_555 1_555
O29 C36_2 1_555 1_555
O20_2 Gd7 1_555 1_555
O21_2 Gd8 1_555 1_555
H29_2 O21_2 1_555 1_555
H30_2 O21_2 1_555 1_555
O22_2 Gd8 1_555 1_555
H31_2 O22_2 1_555 1_555
H32_2 O22_2 1_555 1_555
O31_2 Gd8 1_555 1_555
C35_2 N8 1_555 1_555
C36_2 O20_2 1_555 1_555
C7_3 C5_3 1_555 1_555
C8_3 C7_3 1_555 1_555
H4_3 C8_3 1_555 1_555
C9_3 C8_3 1_555 1_555
C10_3 C9_3 1_555 1_555
H5_3 C10_3 1_555 1_555
C11_3 C10_3 1_555 1_555
H6_3 C11_3 1_555 1_555
C12_3 C9_3 1_555 1_555
O4_2 C12_3 1_555 1_555
Gd8_2 O4_2 1_555 1_555
C7_3 N8_3 1_555 1_555
C11_3 N8_3 1_555 1_555
Gd9 O1_3 1_555 1_555
H2_3 C2_3 1_555 1_555
C3_3 C2_3 1_555 1_555
C6_3 C3_3 1_555 1_555
O1_3 C6_3 1_555 1_555
O2_3 C6_3 1_555 1_555
O7_3 Gd9 1_555 1_555
H14_3 O7_3 1_555 1_555
H15_3 O7_3 1_555 1_555
O8_3 Gd9 1_555 1_555
H16_3 O8_3 1_555 1_555
H17_3 O8_3 1_555 1_555
C1_3 H1_3 1_555 1_555
N7_3 C1_3 1_555 1_555
Gd8_2 O18_3 1_555 1_555
Gd12 O17_3 1_555 1_555
C25_3 H23_3 1_555 1_555
C26_3 C25_3 1_555 1_555
H24_3 C26_3 1_555 1_555
C27_3 C26_3 1_555 1_555
C28_3 C27_3 1_555 1_555
H25_3 C28_3 1_555 1_555
C29_3 C28_3 1_555 1_555
C30_3 C27_3 1_555 1_555
C31_3 C29_3 1_555 1_555
C32_3 C31_3 1_555 1_555
H26_3 C32_3 1_555 1_555
C33_3 C32_3 1_555 1_555
C34_3 C33_3 1_555 1_555
H27_3 C34_3 1_555 1_555
C35_3 C34_3 1_555 1_555
H28_3 C35_3 1_555 1_555
C36_3 C33_3 1_555 1_555
N7_2 C25_3 1_555 1_555
N8_2 C31_3 1_555 1_555
O17_3 C30_3 1_555 1_555
O18_3 C30_3 1_555 1_555
O30 C36_3 1_555 1_555
O21_3 Gd8_2 1_555 1_555
H29_3 O21_3 1_555 1_555
H30_3 O21_3 1_555 1_555
O22_3 Gd8_2 1_555 1_555
H31_3 O22_3 1_555 1_555
H32_3 O22_3 1_555 1_555
O23_3 Gd12 1_555 1_555
H33_3 O23_3 1_555 1_555
H34_3 O23_3 1_555 1_555
O24_3 Gd12 1_555 1_555
H35_3 O24_3 1_555 1_555
H36_3 O24_3 1_555 1_555
C29_3 N7_2 1_555 1_555
C35_3 N8_2 1_555 1_555
C36_3 O31_2 1_555 1_555

#END
