
###############################################################################
#
# This file contains modified crystal structure data generated from the
# MOF subset of the Cambridge Structural Database (CSD) v543 
# hosted by the Cambridge Crystallographic Data Centre (CCDC).
#
# This work is licensed under the Creative Commons
# Attribution-NonCommercial-ShareAlike 4.0 International License.
# To view a copy of this license, visit
# http://creativecommons.org/licenses/by-nc-sa/4.0/
# or send a letter to
# Creative Commons, PO Box 1866, Mountain View, CA 94042, USA.
#
# CIF created using the CSD Python API on 29 September 2022
# The structure has been converted into the P1 space group
# The structure has a 3D framework
# The original CSD entry KAWXUE is in the trigonal crystal system
# The original CSD entry KAWXUE is in a Sohncke space group
# The framework has been calculated to contain at least 10.0% void space
# The void calculation uses a probe of radius 1.32A, grid spacing 0.4
# The framework is charged, counterions have been retained in the structure
#
###############################################################################

data_KAWXUE
_chemical_formula_moiety         '(C108 H114 Gd18 N18 Ni5 O75 18+)n'
_symmetry_cell_setting           triclinic
_symmetry_space_group_name_H-M   'P 1'
_symmetry_Int_Tables_number      1
_space_group_name_Hall           'P 1'
loop_
_symmetry_equiv_pos_site_id
_symmetry_equiv_pos_as_xyz
1 x,y,z
_cell_length_a                   17.8908(5)
_cell_length_b                   17.8908(5)
_cell_length_c                   21.1843(6)
_cell_angle_alpha                90
_cell_angle_beta                 90
_cell_angle_gamma                120
_cell_volume                     5872.25
loop_
_atom_site_label
_atom_site_type_symbol
_atom_site_fract_x
_atom_site_fract_y
_atom_site_fract_z
Ni1 Ni -0.0000 0.34997(10) 0.1667
C2 C 0.0933(7) 0.3620(7) 0.0435(5)
H1 H 0.1266 0.3456 0.0669
N1 N 0.0339(6) 0.3735(6) 0.0731(4)
N8 N 0.0872(5) 0.4728(8) 0.1978(4)
N10 N 0.0824(6) 0.3024(6) 0.1865(4)
Gd2 Gd 0.17447(3) 0.40336(4) 0.74460(2)
Gd3 Gd -0.0000 0.18880(4) 0.6667
C3 C 0.1068(7) 0.3738(7) 0.9790(4)
H2 H 0.1505 0.3673 0.9606
C4 C 0.0593(8) 0.3939(8) 0.9430(5)
C12 C 0.0698(8) 0.4018(7) 0.8731(4)
O3 O 0.1358(5) 0.4042(5) 0.8511(3)
O4 O 0.0137(6) 0.4068(5) 0.8414(3)
C13 C 0.2165(8) 0.1660(8) 0.7727(5)
C14 C 0.1705(8) 0.0824(7) 0.7979(4)
H7 H 0.1105 0.0540 0.8002
C15 C 0.2143(8) 0.0433(7) 0.8191(4)
C16 C 0.3490(8) 0.1605(7) 0.7905(5)
H8 H 0.4087 0.1858 0.7884
C17 C 0.3089(9) 0.2061(8) 0.7690(5)
H9 H 0.3416 0.2615 0.7526
O5 O 0.0332(4) 0.2846(5) 0.7543(3)
C18 C 0.1719(9) 0.2116(9) 0.7493(6)
N3 N 0.3024(6) 0.0824(6) 0.8135(4)
O8 O 0.0998(6) 0.1635(6) 0.7231(4)
O9 O 0.2060(5) 0.2905(6) 0.7571(4)
O10 O 0.0763(4) 0.4383(5) 0.7003(3)
O11 O 0.2295(5) 0.5570(5) 0.7774(4)
H12 H 0.1921 0.5854 0.7903
H13 H 0.2951 0.6057 0.7804
O13 O 0.3146(5) 0.4557(6) 0.7949(4)
H16 H 0.3345 0.4192 0.8199
H17 H 0.3652 0.5183 0.7945
O28 O 0.0799(6) 0.1595(8) 0.5854(4)
H37 H 0.1236 0.2034 0.5551
H38 H 0.0755 0.1020 0.5763
Ni3 Ni 0.34997(10) -0.0000 0.8334
Gd9 Gd 0.06444(4) 0.40247(6) 0.58743(2)
O30 O 0.2734(8) 0.4937(6) 0.6713(3)
O35 O 0.1244(5) 0.3299(7) 0.6467(3)
C19 C 0.0505(11) 0.8340(8) 0.8940(5)
C20 C 0.0881(11) 0.9176(7) 0.8688(4)
H20 H 0.0565 0.9460 0.8665
C21 C 0.1710(11) 0.9567(7) 0.8476(4)
C22 C 0.1885(11) 0.8395(7) 0.8762(5)
H21 H 0.2229 0.8142 0.8783
C23 C 0.1028(12) 0.7939(8) 0.8977(5)
H22 H 0.0801 0.7385 0.9141
N4 N 0.2200(8) 0.9176(6) 0.8532(4)
Ni3_2 Ni 0.34997(10) 1.0000 0.8334
Ni1_2 Ni 1.0000 0.34997(10) 0.1667
C1 C 0.9843(7) 0.3945(7) 0.0372(4)
C6 C 0.9218(7) 0.4058(7) 0.0723(5)
C7 C 0.8666(7) 0.4343(7) 0.0456(5)
H4 H 0.8686 0.4450 0.0025
C8 C 0.8124(8) 0.4455(9) 0.0826(5)
C9 C 0.8038(9) 0.4234(8) 0.1469(6)
H5 H 0.7632 0.4271 0.1721
C10 C 0.8564(8) 0.3966(8) 0.1712(5)
H6 H 0.8536 0.3852 0.2142
C11 C 0.7597(8) 0.4825(8) 0.0521(6)
N2 N 0.9128(5) 0.3856(6) 0.1355(4)
O2 O 0.7044(5) 0.4899(5) 0.0863(3)
Gd7 Gd 0.66197(4) 0.59753(6) 0.07923(2)
N7 N 0.9661(6) 0.3396(8) 0.2602(4)
N9 N 0.9176(6) 0.2200(8) 0.1468(4)
Gd1 Gd 0.93556(4) 0.33803(4) 0.74590(2)
Gd3_2 Gd 1.0000 0.18880(4) 0.6667
C5 C 0.9948(7) 0.4046(7) 0.9719(5)
H3 H 0.9597 0.4182 0.9480
O1 O 0.7797(6) 0.5063(6) 0.9954(3)
O6 O 0.8756(5) 0.2055(5) 0.6866(3)
O7 O 0.9293(5) 0.4691(5) 0.7511(3)
H10 H 0.8805 0.4745 0.7416
H11 H 0.9753 0.5240 0.7632
O12 O 0.9201(6) 0.0796(6) 0.7479(4)
H14 H 0.8764 0.0798 0.7782
H15 H 0.9245 0.0265 0.7570
O14 O 0.8708(6) 0.2334(6) 0.8303(4)
H18 H 0.9047 0.2154 0.8657
H19 H 0.8012 0.1940 0.8420
Gd12 Gd 0.77111(5) 0.59664(4) 0.92207(2)
Gd13 Gd 0.82553(3) 0.22889(5) 0.58873(2)
O31 O 0.7855(7) 0.2956(5) 0.7530(3)
O33 O 0.9668(4) 0.2514(6) 0.5790(3)
O36 O 0.9002(6) 0.0637(8) 0.6102(4)
O38 O 0.9237(4) 0.3620(6) 0.6330(3)
Gd11 Gd 0.59664(4) 0.77111(5) 0.07793(2)
Gd14 Gd 0.81120(4) 0.81120(4) 0.0000
O34 O 0.7945(5) 0.6701(7) 0.0199(3)
O37 O 0.5617(5) 0.6380(6) 0.0336(3)
C24 C 0.9603(13) 0.7884(9) 0.9174(6)
O15 O 0.9363(8) 0.8365(6) 0.9436(4)
O16 O 0.9155(8) 0.7095(6) 0.9096(4)
Gd4 Gd 0.59753(6) 0.66197(4) 0.92077(2)
C25 C 0.5898(10) 0.6055(7) 0.6295(4)
C26 C 0.7313(10) 0.6380(7) 0.6232(5)
H23 H 0.7810 0.6544 0.5998
C27 C 0.7330(10) 0.6262(7) 0.6877(4)
H24 H 0.7832 0.6327 0.7061
C28 C 0.6654(11) 0.6061(8) 0.7237(5)
C29 C 0.5902(10) 0.5954(7) 0.6948(5)
H25 H 0.5415 0.5818 0.7187
C30 C 0.5160(10) 0.5942(7) 0.5944(5)
C31 C 0.4323(10) 0.5657(7) 0.6211(5)
H26 H 0.4236 0.5550 0.6642
C32 C 0.3669(12) 0.5545(9) 0.5841(5)
C33 C 0.3804(12) 0.5766(8) 0.5198(6)
H27 H 0.3361 0.5729 0.4946
C34 C 0.4598(11) 0.6034(8) 0.4955(5)
H28 H 0.4684 0.6148 0.4525
C35 C 0.2772(11) 0.5175(8) 0.6146(6)
C36 C 0.6680(11) 0.5982(7) 0.7936(4)
N5 N 0.6604(8) 0.6265(6) 0.5936(4)
N6 N 0.5272(8) 0.6144(6) 0.5312(4)
O18 O 0.2145(7) 0.5101(5) 0.5804(3)
O19 O 0.7316(7) 0.5958(5) 0.8156(3)
O20 O 0.6069(8) 0.5932(5) 0.8253(3)
O21 O 0.7486(6) 0.7154(5) 0.9124(3)
O22 O 0.6701(7) 0.7945(5) 0.9801(3)
O23 O 0.4602(7) 0.5309(5) 0.9156(3)
H29 H 0.4060 0.5255 0.9251
H30 H 0.4513 0.4760 0.9035
O24 O 0.6380(6) 0.5617(5) 0.9664(3)
O25 O 0.6725(7) 0.4430(5) 0.8893(4)
H31 H 0.6067 0.4146 0.8764
H32 H 0.6894 0.3943 0.8863
O26 O 0.8589(8) 0.5443(6) 0.8718(4)
H33 H 0.9153 0.5808 0.8468
H34 H 0.8469 0.4817 0.8722
O27 O 0.6374(8) 0.7666(6) 0.8364(4)
H35 H 0.6893 0.7846 0.8010
H36 H 0.6072 0.8060 0.8247
Ni2 Ni 0.65003(10) 0.65003(10) 0.5000
Gd14_2 Gd 0.81120(4) 0.81120(4) 1.0000
O32 O 0.4899(5) 0.7044(5) 0.9137(3)
C19_2 C 0.1660(8) 0.2165(14) 0.2273(5)
C20_2 C 0.0824(7) 0.1705(13) 0.2021(4)
H20_2 H 0.0540 0.1105 0.1998
C21_2 C 0.0433(7) 0.2143(13) 0.1809(4)
C22_2 C 0.1605(7) 0.3490(13) 0.2095(5)
H21_2 H 0.1858 0.4087 0.2116
C23_2 C 0.2061(8) 0.3089(14) 0.2310(5)
H22_2 H 0.2615 0.3416 0.2474
C24_2 C 0.2116(9) 0.1719(16) 0.2507(6)
O15_2 O 0.1635(6) 0.0998(10) 0.2769(4)
O16_2 O 0.2905(6) 0.2060(10) 0.2429(4)
Gd5 Gd 0.40336(4) 0.17447(6) 0.25540(2)
C27_2 C 0.3738(7) 0.1068(12) 0.0210(4)
H24_2 H 0.3673 0.1505 0.0394
C28_2 C 0.3939(8) 0.0593(14) 0.0570(5)
C36_2 C 0.4018(7) 0.0698(13) 0.1269(4)
O19_2 O 0.4042(5) 0.1358(9) 0.1489(3)
O20_2 O 0.4068(5) 0.0137(9) 0.1586(3)
O21_2 O 0.2846(5) 0.0332(8) 0.2457(3)
O24_2 O 0.4383(5) 0.0763(8) 0.2997(3)
O25_2 O 0.5570(5) 0.2295(9) 0.2226(4)
H31_2 H 0.5854 0.1921 0.2097
H32_2 H 0.6057 0.2951 0.2196
O26_2 O 0.4557(6) 0.3146(10) 0.2051(4)
H33_2 H 0.4192 0.3345 0.1801
H34_2 H 0.5183 0.3652 0.2055
Gd6 Gd 0.40247(6) 0.06444(7) 0.41257(2)
Gd14_3 Gd 0.18880(4) 0.00000(6) 0.3334
O29 O 0.4937(6) 0.2734(8) 0.3287(3)
O34_2 O 0.3299(7) 0.1244(9) 0.3533(3)
C26_2 C 0.3620(7) 0.0933(12) 0.9565(5)
H23_2 H 0.3456 0.1266 0.9331
N5_2 N 0.3735(6) 0.0339(10) 0.9269(4)
Gd4_2 Gd 0.33803(4) 0.93556(7) 0.25410(2)
C29_2 C 0.4046(7) 0.9948(12) 0.0281(5)
H25_2 H 0.4182 0.9597 0.0520
O17 O 0.5063(6) 0.7797(10) 0.0046(3)
O22_2 O 0.2055(5) 0.8756(9) 0.3134(3)
O23_2 O 0.4691(5) 0.9293(9) 0.2489(3)
H29_2 H 0.4745 0.8805 0.2584
H30_2 H 0.5240 0.9753 0.2368
O27_2 O 0.2334(6) 0.8708(10) 0.1697(4)
H35_2 H 0.2154 0.9047 0.1343
H36_2 H 0.1940 0.8012 0.1580
Gd11_2 Gd 0.22889(5) 0.82553(6) 0.41127(2)
Gd14_4 Gd 0.18880(4) 1.00000(6) 0.3334
O32_2 O 0.2956(5) 0.7855(7) 0.2470(3)
O37_2 O 0.3620(6) 0.9237(8) 0.3670(3)
C25_2 C 0.3945(7) 0.9843(12) 0.9628(4)
C30_2 C 0.4058(7) 0.9218(12) 0.9277(5)
C31_2 C 0.4343(7) 0.8666(12) 0.9544(5)
H26_2 H 0.4450 0.8686 0.9975
C32_2 C 0.4455(9) 0.8124(15) 0.9174(5)
C33_2 C 0.4234(8) 0.8038(14) 0.8531(6)
H27_2 H 0.4271 0.7632 0.8279
C34_2 C 0.3966(8) 0.8564(14) 0.8288(5)
H28_2 H 0.3852 0.8536 0.7858
C35_2 C 0.4825(8) 0.7597(14) 0.9479(6)
N6_2 N 0.3856(6) 0.9128(10) 0.8645(4)
C13_2 C 0.8340(8) 0.0505(11) 0.1060(5)
C14_2 C 0.9176(7) 0.0881(11) 0.1312(4)
H7_2 H 0.9460 0.0565 0.1335
C15_2 C 0.9567(7) 0.1710(11) 0.1524(4)
C16_2 C 0.8395(7) 0.1885(11) 0.1238(5)
H8_2 H 0.8142 0.2229 0.1217
C17_2 C 0.7939(8) 0.1028(12) 0.1023(5)
H9_2 H 0.7385 0.0801 0.0859
C1_2 C 0.6055(7) 0.5898(10) 0.3705(4)
C2_2 C 0.6380(7) 0.7313(10) 0.3768(5)
H1_2 H 0.6544 0.7810 0.4002
C3_2 C 0.6262(7) 0.7330(10) 0.3123(4)
H2_2 H 0.6327 0.7832 0.2939
C4_2 C 0.6061(8) 0.6654(11) 0.2763(5)
C5_2 C 0.5954(7) 0.5902(10) 0.3052(5)
H3_2 H 0.5818 0.5415 0.2813
C6_2 C 0.5942(7) 0.5160(10) 0.4056(5)
C7_2 C 0.5657(7) 0.4323(10) 0.3789(5)
H4_2 H 0.5550 0.4236 0.3358
C8_2 C 0.5545(9) 0.3669(12) 0.4159(5)
C9_2 C 0.5766(8) 0.3804(12) 0.4802(6)
H5_2 H 0.5729 0.3361 0.5054
C10_2 C 0.6034(8) 0.4598(11) 0.5045(5)
H6_2 H 0.6148 0.4684 0.5475
C11_2 C 0.5175(8) 0.2772(11) 0.3854(6)
C12_2 C 0.5982(7) 0.6680(11) 0.2064(4)
N1_2 N 0.6265(6) 0.6604(8) 0.4064(4)
N2_2 N 0.6144(6) 0.5272(8) 0.4688(4)
O2_2 O 0.5101(5) 0.2145(7) 0.4196(3)
O3_2 O 0.5958(5) 0.7316(7) 0.1844(3)
O4_2 O 0.5932(5) 0.6069(8) 0.1747(3)
O5_2 O 0.7154(5) 0.7486(6) 0.0876(3)
O7_2 O 0.5309(5) 0.4602(7) 0.0844(3)
H10_2 H 0.5255 0.4060 0.0749
H11_2 H 0.4760 0.4513 0.0965
C18_2 C 0.7884(9) 0.9603(13) 0.0826(6)
O8_2 O 0.8365(6) 0.9363(8) 0.0564(4)
O9_2 O 0.7095(6) 0.9155(8) 0.0904(4)
O11_2 O 0.4430(5) 0.6725(7) 0.1107(4)
H12_2 H 0.4146 0.6067 0.1236
H13_2 H 0.3943 0.6894 0.1137
O12_2 O 0.9204(6) 0.8405(8) 0.0812(4)
H14_2 H 0.9202 0.7966 0.1115
H15_2 H 0.9735 0.8980 0.0903
O13_2 O 0.5443(6) 0.8589(8) 0.1282(4)
H16_2 H 0.5808 0.9153 0.1532
H17_2 H 0.4817 0.8469 0.1278
O14_2 O 0.7666(6) 0.6374(8) 0.1636(4)
H18_2 H 0.7846 0.6893 0.1990
H19_2 H 0.8060 0.6072 0.1753
N9_2 N 0.7800(8) 0.6976(10) 0.4802(4)
N10_2 N 0.6976(6) 0.7800(8) 0.5198(4)
O28_2 O 0.8405(8) 0.9204(10) 0.9188(4)
H37_2 H 0.7966 0.9202 0.8885
H38_2 H 0.8980 0.9735 0.9097
C1_3 C 0.4102(10) 0.0157(7) 0.7039(4)
C5_3 C 0.4098(10) 0.0052(7) 0.6386(5)
H3_3 H 0.4585 0.0403 0.6147
C6_3 C 0.4840(10) 0.0782(7) 0.7390(5)
C7_3 C 0.5677(10) 0.1334(7) 0.7123(5)
H4_3 H 0.5764 0.1314 0.6692
C8_3 C 0.6331(12) 0.1876(8) 0.7493(5)
C9_3 C 0.6196(12) 0.1962(9) 0.8136(6)
H5_3 H 0.6639 0.2368 0.8388
C10_3 C 0.5402(11) 0.1436(8) 0.8379(5)
H6_3 H 0.5316 0.1464 0.8809
C11_3 C 0.7228(11) 0.2403(8) 0.7188(6)
N2_3 N 0.4728(8) 0.0872(5) 0.8022(4)
O1_2 O 0.7266(8) 0.2203(6) 0.6621(3)
O7_3 O 0.5398(7) 0.0707(5) 0.4178(3)
H10_3 H 0.5940 0.1195 0.4083
H11_3 H 0.5487 0.0247 0.4299
O12_3 O 0.1595(8) 0.0799(6) 0.4146(4)
H14_3 H 0.2034 0.1236 0.4449
H15_3 H 0.1020 0.0755 0.4237
O14_3 O 0.3626(8) 0.1292(6) 0.4970(4)
H18_3 H 0.3107 0.0953 0.5324
H19_3 H 0.3928 0.1988 0.5087
C25_3 C 0.0157(12) 0.4102(10) 0.2961(4)
C29_3 C 0.0052(12) 0.4098(10) 0.3614(5)
H25_3 H 0.0403 0.4585 0.3853
C30_3 C 0.0782(12) 0.4840(10) 0.2610(5)
C31_3 C 0.1334(12) 0.5677(10) 0.2877(5)
H26_3 H 0.1314 0.5764 0.3308
C32_3 C 0.1876(15) 0.6331(12) 0.2507(5)
C33_3 C 0.1962(14) 0.6196(12) 0.1864(6)
H27_3 H 0.2368 0.6639 0.1612
C34_3 C 0.1436(14) 0.5402(11) 0.1621(5)
H28_3 H 0.1464 0.5316 0.1191
C35_3 C 0.2403(14) 0.7228(11) 0.2812(6)
O17_2 O 0.2203(10) 0.7266(8) 0.3379(3)
O23_3 O 0.0707(9) 0.5398(7) 0.5822(3)
H29_3 H 0.1195 0.5940 0.5917
H30_3 H 0.0247 0.5487 0.5701
O27_3 O 0.1292(10) 0.3626(8) 0.5030(4)
H35_3 H 0.0953 0.3107 0.4676
H36_3 H 0.1988 0.3928 0.4913
C2_3 C 0.2687(10) 0.9067(7) 0.7102(5)
H1_3 H 0.2190 0.8734 0.7336
C3_3 C 0.2670(10) 0.8932(7) 0.6457(4)
H2_3 H 0.2168 0.8495 0.6273
C4_3 C 0.3346(11) 0.9407(8) 0.6097(5)
C12_3 C 0.3320(11) 0.9302(8) 0.5398(4)
N1_3 N 0.3396(8) 0.9661(6) 0.7398(4)
O3_3 O 0.2684(7) 0.8642(5) 0.5178(3)
O4_3 O 0.3931(8) 0.9863(6) 0.5081(3)
O5_3 O 0.2514(6) 0.9668(4) 0.4210(3)
C18_3 C 0.0397(13) 0.8281(9) 0.4160(6)
O8_3 O 0.0637(8) 0.9002(6) 0.3898(4)
O9_3 O 0.0845(8) 0.7940(5) 0.4238(4)
O11_3 O 0.3275(7) 0.7705(5) 0.4441(4)
H12_3 H 0.3933 0.8079 0.4570
H13_3 H 0.3106 0.7049 0.4471
O13_3 O 0.1411(8) 0.6854(5) 0.4616(4)
H16_3 H 0.0847 0.6655 0.4866
H17_3 H 0.1531 0.6348 0.4612
O28_3 O 0.0796(10) 0.9201(6) 0.2521(4)
H37_3 H 0.0798 0.8764 0.2218
H38_3 H 0.0265 0.9245 0.2430
C24_3 C 0.8281(16) 0.0397(13) 0.5840(6)
O16_3 O 0.7940(10) 0.0845(8) 0.5762(4)
C26_3 C 0.9067(12) 0.2687(10) 0.2898(5)
H23_3 H 0.8734 0.2190 0.2664
C27_3 C 0.8932(12) 0.2670(10) 0.3543(4)
H24_3 H 0.8495 0.2168 0.3727
C28_3 C 0.9407(14) 0.3346(11) 0.3903(5)
C36_3 C 0.9302(13) 0.3320(11) 0.4602(4)
O19_3 O 0.8642(9) 0.2684(7) 0.4822(3)
O20_3 O 0.9863(9) 0.3931(8) 0.4919(3)
O25_3 O 0.7705(9) 0.3275(7) 0.5559(4)
H31_3 H 0.8079 0.3933 0.5430
H32_3 H 0.7049 0.3106 0.5529
O26_3 O 0.6854(10) 0.1411(8) 0.5384(4)
H33_3 H 0.6655 0.0847 0.5134
H34_3 H 0.6348 0.1531 0.5388
C13_3 C 0.9495(11) 0.7835(8) 0.4394(5)
C14_3 C 0.9119(11) 0.8295(8) 0.4646(4)
H7_3 H 0.9435 0.8895 0.4669
C15_3 C 0.8290(11) 0.7857(8) 0.4858(4)
C16_3 C 0.8115(11) 0.6510(8) 0.4572(5)
H8_3 H 0.7771 0.5913 0.4551
C17_3 C 0.8972(12) 0.6911(9) 0.4357(5)
H9_3 H 0.9199 0.6584 0.4193
C19_3 C 0.7835(14) 0.9495(11) 0.5606(5)
C20_3 C 0.8295(13) 0.9119(11) 0.5354(4)
H20_3 H 0.8895 0.9435 0.5331
C21_3 C 0.7857(13) 0.8290(11) 0.5142(4)
C22_3 C 0.6510(13) 0.8115(11) 0.5428(5)
H21_3 H 0.5913 0.7771 0.5449
C23_3 C 0.6911(14) 0.8972(12) 0.5643(5)
H22_3 H 0.6584 0.9199 0.5807
loop_
_geom_bond_atom_site_label_1
_geom_bond_atom_site_label_2
_geom_bond_site_symmetry_1
_geom_bond_site_symmetry_2
Ni1 N1 1_555 1_555
C2 H1 1_555 1_555
N8 Ni1 1_555 1_555
N10 Ni1 1_555 1_555
C2 N1 1_555 1_555
Gd2 O3 1_555 1_555
Gd3 O5 1_555 1_555
H2 C3 1_555 1_555
C4 C3 1_555 1_555
C12 C4 1_555 1_555
O3 C12 1_555 1_555
O4 C12 1_555 1_555
C13 C14 1_555 1_555
C14 H7 1_555 1_555
C15 C14 1_555 1_555
C16 H8 1_555 1_555
C17 C13 1_555 1_555
H9 C17 1_555 1_555
C18 C13 1_555 1_555
N3 C15 1_555 1_555
O8 Gd3 1_555 1_555
O9 Gd2 1_555 1_555
O11 Gd2 1_555 1_555
H12 O11 1_555 1_555
H13 O11 1_555 1_555
O13 Gd2 1_555 1_555
H16 O13 1_555 1_555
H17 O13 1_555 1_555
O28 Gd3 1_555 1_555
H37 O28 1_555 1_555
H38 O28 1_555 1_555
Ni3 N3 1_555 1_555
Gd9 O10 1_555 1_555
O30 Gd2 1_555 1_555
O35 Gd2 1_555 1_555
Gd2 O5 1_555 1_555
Gd2 O10 1_555 1_555
Gd3 O35 1_555 1_555
C16 C17 1_555 1_555
C16 N3 1_555 1_555
C18 O8 1_555 1_555
C18 O9 1_555 1_555
Gd9 O35 1_555 1_555
C19 C20 1_555 1_555
C20 H20 1_555 1_555
C22 H21 1_555 1_555
C23 C19 1_555 1_555
H22 C23 1_555 1_555
N4 C21 1_555 1_555
C20 C21 1_555 1_555
C22 C23 1_555 1_555
C22 N4 1_555 1_555
N4 Ni3_2 1_555 1_555
C6 C1 1_555 1_555
C7 C6 1_555 1_555
H4 C7 1_555 1_555
C8 C7 1_555 1_555
C9 C8 1_555 1_555
H5 C9 1_555 1_555
C10 C9 1_555 1_555
H6 C10 1_555 1_555
C11 C8 1_555 1_555
N2 Ni1_2 1_555 1_555
O2 C11 1_555 1_555
Gd7 O2 1_555 1_555
N7 Ni1_2 1_555 1_555
N9 Ni1_2 1_555 1_555
C6 N2 1_555 1_555
C10 N2 1_555 1_555
H3 C5 1_555 1_555
O6 Gd1 1_555 1_555
O7 Gd1 1_555 1_555
H10 O7 1_555 1_555
H11 O7 1_555 1_555
O12 Gd3_2 1_555 1_555
H14 O12 1_555 1_555
H15 O12 1_555 1_555
O14 Gd1 1_555 1_555
H18 O14 1_555 1_555
H19 O14 1_555 1_555
Gd12 O1 1_555 1_555
Gd13 O6 1_555 1_555
O31 Gd1 1_555 1_555
O33 Gd3_2 1_555 1_555
O36 Gd3_2 1_555 1_555
O38 Gd1 1_555 1_555
Gd3_2 O6 1_555 1_555
Gd13 O33 1_555 1_555
Gd13 O38 1_555 1_555
Gd7 O34 1_555 1_555
Gd7 O37 1_555 1_555
Gd11 O37 1_555 1_555
Gd14 O34 1_555 1_555
O15 C24 1_555 1_555
O16 C24 1_555 1_555
Gd4 O20 1_555 1_555
Gd12 O16 1_555 1_555
C25 C29 1_555 1_555
C26 H23 1_555 1_555
C27 C26 1_555 1_555
H24 C27 1_555 1_555
C28 C27 1_555 1_555
C29 C28 1_555 1_555
H25 C29 1_555 1_555
C30 C25 1_555 1_555
C31 C30 1_555 1_555
H26 C31 1_555 1_555
C32 C31 1_555 1_555
C33 C32 1_555 1_555
H27 C33 1_555 1_555
C34 C33 1_555 1_555
H28 C34 1_555 1_555
C35 C32 1_555 1_555
C36 C28 1_555 1_555
N5 C25 1_555 1_555
N6 C30 1_555 1_555
O30 C35 1_555 1_555
O18 C35 1_555 1_555
O19 Gd12 1_555 1_555
O20 C36 1_555 1_555
O21 Gd4 1_555 1_555
O22 Gd4 1_555 1_555
O23 Gd4 1_555 1_555
H29 O23 1_555 1_555
H30 O23 1_555 1_555
O24 Gd4 1_555 1_555
O25 Gd12 1_555 1_555
H31 O25 1_555 1_555
H32 O25 1_555 1_555
O26 Gd12 1_555 1_555
H33 O26 1_555 1_555
H34 O26 1_555 1_555
O27 Gd4 1_555 1_555
H35 O27 1_555 1_555
H36 O27 1_555 1_555
Ni2 N5 1_555 1_555
Gd9 O18 1_555 1_555
Gd14_2 O15 1_555 1_555
O32 Gd4 1_555 1_555
Gd12 O21 1_555 1_555
Gd12 O24 1_555 1_555
C26 N5 1_555 1_555
C34 N6 1_555 1_555
C36 O19 1_555 1_555
N6 Ni2 1_555 1_555
O21 Gd14_2 1_555 1_555
O22 Gd14_2 1_555 1_555
C19_2 C20_2 1_555 1_555
C20_2 H20_2 1_555 1_555
C22_2 H21_2 1_555 1_555
C23_2 C19_2 1_555 1_555
H22_2 C23_2 1_555 1_555
C24_2 C19_2 1_555 1_555
N10 C21_2 1_555 1_555
O15_2 C24_2 1_555 1_555
O16_2 C24_2 1_555 1_555
Gd5 O16_2 1_555 1_555
H24_2 C27_2 1_555 1_555
C28_2 C27_2 1_555 1_555
C36_2 C28_2 1_555 1_555
O19_2 Gd5 1_555 1_555
O20_2 C36_2 1_555 1_555
O25_2 Gd5 1_555 1_555
H31_2 O25_2 1_555 1_555
H32_2 O25_2 1_555 1_555
O26_2 Gd5 1_555 1_555
H33_2 O26_2 1_555 1_555
H34_2 O26_2 1_555 1_555
Gd6 O24_2 1_555 1_555
Gd14_3 O15_2 1_555 1_555
O29 Gd5 1_555 1_555
O34_2 Gd5 1_555 1_555
C20_2 C21_2 1_555 1_555
C22_2 C23_2 1_555 1_555
C22_2 N10 1_555 1_555
Gd5 O21_2 1_555 1_555
Gd5 O24_2 1_555 1_555
C36_2 O19_2 1_555 1_555
O21_2 Gd14_3 1_555 1_555
Gd6 O34_2 1_555 1_555
Gd14_3 O34_2 1_555 1_555
C26_2 H23_2 1_555 1_555
Ni3 N5_2 1_555 1_555
C26_2 N5_2 1_555 1_555
H25_2 C29_2 1_555 1_555
O22_2 Gd4_2 1_555 1_555
O23_2 Gd4_2 1_555 1_555
H29_2 O23_2 1_555 1_555
H30_2 O23_2 1_555 1_555
O27_2 Gd4_2 1_555 1_555
H35_2 O27_2 1_555 1_555
H36_2 O27_2 1_555 1_555
Gd11 O17 1_555 1_555
Gd11_2 O22_2 1_555 1_555
O32_2 Gd4_2 1_555 1_555
O37_2 Gd4_2 1_555 1_555
O22_2 Gd14_4 1_555 1_555
Gd11_2 O37_2 1_555 1_555
C30_2 C25_2 1_555 1_555
C31_2 C30_2 1_555 1_555
H26_2 C31_2 1_555 1_555
C32_2 C31_2 1_555 1_555
C33_2 C32_2 1_555 1_555
H27_2 C33_2 1_555 1_555
C34_2 C33_2 1_555 1_555
H28_2 C34_2 1_555 1_555
C35_2 C32_2 1_555 1_555
N6_2 C30_2 1_555 1_555
O32 C35_2 1_555 1_555
C34_2 N6_2 1_555 1_555
N6_2 Ni3_2 1_555 1_555
C13_2 C14_2 1_555 1_555
C14_2 H7_2 1_555 1_555
C15_2 C14_2 1_555 1_555
C16_2 H8_2 1_555 1_555
C17_2 C13_2 1_555 1_555
H9_2 C17_2 1_555 1_555
N9 C15_2 1_555 1_555
C16_2 C17_2 1_555 1_555
C16_2 N9 1_555 1_555
Ni2 N1_2 1_555 1_555
Gd7 O4_2 1_555 1_555
Gd11 O3_2 1_555 1_555
Gd14 O5_2 1_555 1_555
C1_2 C5_2 1_555 1_555
C2_2 H1_2 1_555 1_555
C3_2 C2_2 1_555 1_555
H2_2 C3_2 1_555 1_555
C4_2 C3_2 1_555 1_555
C5_2 C4_2 1_555 1_555
H3_2 C5_2 1_555 1_555
C6_2 C1_2 1_555 1_555
C7_2 C6_2 1_555 1_555
H4_2 C7_2 1_555 1_555
C8_2 C7_2 1_555 1_555
C9_2 C8_2 1_555 1_555
H5_2 C9_2 1_555 1_555
C10_2 C9_2 1_555 1_555
H6_2 C10_2 1_555 1_555
C11_2 C8_2 1_555 1_555
C12_2 C4_2 1_555 1_555
N1_2 C1_2 1_555 1_555
N2_2 Ni2 1_555 1_555
O29 C11_2 1_555 1_555
O2_2 C11_2 1_555 1_555
O3_2 C12_2 1_555 1_555
O4_2 C12_2 1_555 1_555
O5_2 Gd7 1_555 1_555
O7_2 Gd7 1_555 1_555
H10_2 O7_2 1_555 1_555
H11_2 O7_2 1_555 1_555
O8_2 Gd14 1_555 1_555
O9_2 Gd11 1_555 1_555
O11_2 Gd11 1_555 1_555
H12_2 O11_2 1_555 1_555
H13_2 O11_2 1_555 1_555
O12_2 Gd14 1_555 1_555
H14_2 O12_2 1_555 1_555
H15_2 O12_2 1_555 1_555
O13_2 Gd11 1_555 1_555
H16_2 O13_2 1_555 1_555
H17_2 O13_2 1_555 1_555
O14_2 Gd7 1_555 1_555
H18_2 O14_2 1_555 1_555
H19_2 O14_2 1_555 1_555
Gd6 O2_2 1_555 1_555
N9_2 Ni2 1_555 1_555
N10_2 Ni2 1_555 1_555
Gd11 O5_2 1_555 1_555
C2_2 N1_2 1_555 1_555
C6_2 N2_2 1_555 1_555
C10_2 N2_2 1_555 1_555
C18_2 O8_2 1_555 1_555
C18_2 O9_2 1_555 1_555
O28_2 Gd14_2 1_555 1_555
H37_2 O28_2 1_555 1_555
H38_2 O28_2 1_555 1_555
C1_3 C5_3 1_555 1_555
H3_3 C5_3 1_555 1_555
C6_3 C1_3 1_555 1_555
C7_3 C6_3 1_555 1_555
H4_3 C7_3 1_555 1_555
C8_3 C7_3 1_555 1_555
C9_3 C8_3 1_555 1_555
H5_3 C9_3 1_555 1_555
C10_3 C9_3 1_555 1_555
H6_3 C10_3 1_555 1_555
C11_3 C8_3 1_555 1_555
N2_3 Ni3 1_555 1_555
O1_2 C11_3 1_555 1_555
O31 C11_3 1_555 1_555
O7_3 Gd6 1_555 1_555
H10_3 O7_3 1_555 1_555
H11_3 O7_3 1_555 1_555
O12_3 Gd14_3 1_555 1_555
H14_3 O12_3 1_555 1_555
H15_3 O12_3 1_555 1_555
O14_3 Gd6 1_555 1_555
H18_3 O14_3 1_555 1_555
H19_3 O14_3 1_555 1_555
C25_3 C29_3 1_555 1_555
H25_3 C29_3 1_555 1_555
C30_3 C25_3 1_555 1_555
C31_3 C30_3 1_555 1_555
H26_3 C31_3 1_555 1_555
C32_3 C31_3 1_555 1_555
C33_3 C32_3 1_555 1_555
H27_3 C33_3 1_555 1_555
C34_3 C33_3 1_555 1_555
H28_3 C34_3 1_555 1_555
C35_3 C32_3 1_555 1_555
N8 C30_3 1_555 1_555
O17_2 C35_3 1_555 1_555
O32_2 C35_3 1_555 1_555
O23_3 Gd9 1_555 1_555
H29_3 O23_3 1_555 1_555
H30_3 O23_3 1_555 1_555
O27_3 Gd9 1_555 1_555
H35_3 O27_3 1_555 1_555
H36_3 O27_3 1_555 1_555
Gd11_2 O17_2 1_555 1_555
Gd13 O1_2 1_555 1_555
C6_3 N2_3 1_555 1_555
C10_3 N2_3 1_555 1_555
C34_3 N8 1_555 1_555
Ni3_2 N1_3 1_555 1_555
Gd11_2 O3_3 1_555 1_555
Gd14_4 O5_3 1_555 1_555
C2_3 H1_3 1_555 1_555
C3_3 C2_3 1_555 1_555
H2_3 C3_3 1_555 1_555
C4_3 C3_3 1_555 1_555
C12_3 C4_3 1_555 1_555
O3_3 C12_3 1_555 1_555
O4_3 C12_3 1_555 1_555
O8_3 Gd14_4 1_555 1_555
O9_3 Gd11_2 1_555 1_555
O11_3 Gd11_2 1_555 1_555
H12_3 O11_3 1_555 1_555
H13_3 O11_3 1_555 1_555
O13_3 Gd11_2 1_555 1_555
H16_3 O13_3 1_555 1_555
H17_3 O13_3 1_555 1_555
O28_3 Gd14_4 1_555 1_555
H37_3 O28_3 1_555 1_555
H38_3 O28_3 1_555 1_555
Gd11_2 O5_3 1_555 1_555
C2_3 N1_3 1_555 1_555
C18_3 O8_3 1_555 1_555
C18_3 O9_3 1_555 1_555
O36 C24_3 1_555 1_555
O16_3 C24_3 1_555 1_555
Gd13 O16_3 1_555 1_555
C26_3 H23_3 1_555 1_555
C27_3 C26_3 1_555 1_555
H24_3 C27_3 1_555 1_555
C28_3 C27_3 1_555 1_555
C36_3 C28_3 1_555 1_555
O19_3 Gd13 1_555 1_555
O20_3 C36_3 1_555 1_555
O25_3 Gd13 1_555 1_555
H31_3 O25_3 1_555 1_555
H32_3 O25_3 1_555 1_555
O26_3 Gd13 1_555 1_555
H33_3 O26_3 1_555 1_555
H34_3 O26_3 1_555 1_555
C26_3 N7 1_555 1_555
C36_3 O19_3 1_555 1_555
C13_3 C14_3 1_555 1_555
C14_3 H7_3 1_555 1_555
C15_3 C14_3 1_555 1_555
C16_3 H8_3 1_555 1_555
C17_3 C13_3 1_555 1_555
H9_3 C17_3 1_555 1_555
N9_2 C15_3 1_555 1_555
C19_3 C20_3 1_555 1_555
C20_3 H20_3 1_555 1_555
C21_3 C15_3 1_555 1_555
C22_3 H21_3 1_555 1_555
C23_3 C19_3 1_555 1_555
H22_3 C23_3 1_555 1_555
N10_2 C21_3 1_555 1_555
C16_3 C17_3 1_555 1_555
C16_3 N9_2 1_555 1_555
C20_3 C21_3 1_555 1_555
C22_3 C23_3 1_555 1_555
C22_3 N10_2 1_555 1_555

#END
