
###############################################################################
#
# This file contains modified crystal structure data generated from the
# MOF subset of the Cambridge Structural Database (CSD) v543 
# hosted by the Cambridge Crystallographic Data Centre (CCDC).
#
# This work is licensed under the Creative Commons
# Attribution-NonCommercial-ShareAlike 4.0 International License.
# To view a copy of this license, visit
# http://creativecommons.org/licenses/by-nc-sa/4.0/
# or send a letter to
# Creative Commons, PO Box 1866, Mountain View, CA 94042, USA.
#
# CIF created using the CSD Python API on 29 September 2022
# The structure has been converted into the P1 space group
# The structure has a 3D framework
# The original CSD entry KAXQOR is in the monoclinic crystal system
# The framework has been calculated to contain at least 10.0% void space
# The void calculation uses a probe of radius 1.32A, grid spacing 0.4
#
###############################################################################

data_KAXQOR
_chemical_formula_moiety         '(C56 H32 O24 S4)n'
_symmetry_cell_setting           triclinic
_symmetry_space_group_name_H-M   'P 1'
_symmetry_Int_Tables_number      1
_space_group_name_Hall           'P 1'
loop_
_symmetry_equiv_pos_site_id
_symmetry_equiv_pos_as_xyz
1 x,y,z
_cell_length_a                   11.8783(5)
_cell_length_b                   5.5485(2)
_cell_length_c                   22.7982(8)
_cell_angle_alpha                90
_cell_angle_beta                 101.535(4)
_cell_angle_gamma                90
_cell_volume                     1472.21
loop_
_atom_site_label
_atom_site_type_symbol
_atom_site_fract_x
_atom_site_fract_y
_atom_site_fract_z
C1 C 0.15720(19) 0.2285(4) 0.46549(9)
C2 C 0.26541(19) 0.2885(4) 0.44383(10)
C3 C 0.3541(2) 0.1226(4) 0.45165(11)
C4 C 0.2785(2) 0.5081(4) 0.41688(12)
H2 H 0.2186 0.6189 0.4106
C5 C 0.4572(2) 0.1769(5) 0.43511(12)
H3 H 0.5169 0.0656 0.4409
C6 C 0.3806(2) 0.5630(4) 0.39929(12)
H4 H 0.3891 0.7088 0.3805
C7 C 0.46975(18) 0.3985(4) 0.40994(10)
C8 C 0.59822(19) 0.4051(4) 0.31770(10)
C9 C 0.6438(2) 0.1896(4) 0.30285(10)
H5 H 0.6747 0.0789 0.3323
C10 C 0.5509(2) 0.5710(4) 0.27457(11)
H6 H 0.5187 0.7131 0.2853
C11 C 0.6424(2) 0.1421(4) 0.24285(10)
C12 C 0.5521(2) 0.5222(4) 0.21490(11)
H8 H 0.5218 0.6336 0.1855
C13 C 0.59815(19) 0.3087(4) 0.19904(10)
C14 C 0.60598(19) 0.2616(4) 0.13440(10)
O1 O 0.13574(15) 0.0116(3) 0.47262(8)
O2 O 0.68850(13) 0.3225(3) 0.42994(7)
O3 O 0.61667(15) 0.7347(3) 0.39984(8)
O4 O 0.60486(16) 0.4416(3) 0.10211(8)
O5 O 0.61505(16) 0.0477(3) 0.11950(8)
S1 S 0.60435(5) 0.47838(10) 0.39360(2)
O6 O 0.09323(13) 0.4010(3) 0.47421(7)
O8 O 0.10486(16) 0.0584(3) 0.60211(8)
Ca2 Ca 0.89653(4) 0.27084(8) 0.456830(19)
Ca3 Ca 0.60347(4) 0.77084(8) 0.043170(19)
Ca6 Ca 0.10347(4) 0.72916(8) 0.543170(19)
H1 H 0.3444 0.9727 0.4682
H7 H 0.6716 0.9968 0.2320
O7 O 0.31150(13) 0.6775(3) 0.57006(7)
O9 O 0.11505(16) 0.4523(3) 0.61950(8)
O10 O 0.90677(13) 0.5990(3) 0.52579(7)
Ca6_2 Ca 0.39653(4) 0.22916(8) 0.956830(19)
C1_2 C 0.34280(19) 0.7285(4) 0.03451(9)
C2_2 C 0.23459(19) 0.7885(4) 0.05617(10)
C3_2 C 0.1459(2) 0.6226(4) 0.04835(11)
H1_2 H 0.1556 0.4727 0.0318
C5_2 C 0.0428(2) 0.6769(5) 0.06489(12)
C7_2 C 0.03025(18) 0.8985(4) 0.09006(10)
O1_2 O 0.36426(15) 0.5116(3) 0.02738(8)
O6_2 O 0.40677(13) 0.9010(3) 0.02579(7)
O7_2 O 0.18850(13) 0.1775(3) 0.92994(7)
O8_2 O 0.39514(16) 0.5584(3) 0.89789(8)
O10_2 O 0.59323(13) 0.0990(3) 0.97421(7)
O9_2 O 0.38495(16) 0.9523(3) 0.88050(8)
C10_2 C 0.9491(2) 0.0710(4) 0.22543(11)
H6_2 H 0.9813 0.2131 0.2147
C12_2 C 0.9479(2) 0.0222(4) 0.28510(11)
H8_2 H 0.9782 0.1336 0.3145
O3_2 O 0.88333(15) 0.2347(3) 0.10016(8)
H3_2 H 0.9831 0.5656 0.0591
C8_2 C 0.90178(19) 0.9051(4) 0.18230(10)
C9_2 C 0.8562(2) 0.6896(4) 0.19715(10)
H5_2 H 0.8253 0.5789 0.1677
C11_2 C 0.8576(2) 0.6421(4) 0.25715(10)
H7_2 H 0.8284 0.4968 0.2680
C13_2 C 0.90185(19) 0.8087(4) 0.30096(10)
C14_2 C 0.89402(19) 0.7616(4) 0.36560(10)
O2_2 O 0.81150(13) 0.8225(3) 0.07006(7)
O4_2 O 0.89514(16) 0.9416(3) 0.39789(8)
O5_2 O 0.88495(16) 0.5477(3) 0.38050(8)
S1_2 S 0.89565(5) 0.97838(10) 0.10640(2)
H1_3 H 0.6556 0.0273 0.5318
H7_3 H 0.3284 0.0032 0.7680
C1_3 C 0.84280(19) 0.7715(4) 0.53451(9)
C2_3 C 0.73459(19) 0.7115(4) 0.55617(10)
C3_3 C 0.6459(2) 0.8774(4) 0.54835(11)
C4_2 C 0.7215(2) 0.4919(4) 0.58312(12)
H2_2 H 0.7814 0.3811 0.5894
C5_3 C 0.5428(2) 0.8231(5) 0.56489(12)
H3_3 H 0.4831 0.9344 0.5591
C6_2 C 0.6194(2) 0.4370(4) 0.60071(12)
H4_2 H 0.6109 0.2912 0.6195
C7_3 C 0.53025(18) 0.6015(4) 0.59006(10)
C8_3 C 0.40178(19) 0.5949(4) 0.68230(10)
C9_3 C 0.3562(2) 0.8104(4) 0.69715(10)
H5_3 H 0.3253 0.9211 0.6677
C10_3 C 0.4491(2) 0.4290(4) 0.72543(11)
H6_3 H 0.4813 0.2869 0.7147
C11_3 C 0.3576(2) 0.8579(4) 0.75715(10)
C12_3 C 0.4479(2) 0.4778(4) 0.78510(11)
H8_3 H 0.4782 0.3664 0.8145
C13_3 C 0.40185(19) 0.6913(4) 0.80096(10)
C14_3 C 0.39402(19) 0.7384(4) 0.86560(10)
O1_3 O 0.86426(15) 0.9884(3) 0.52738(8)
O3_3 O 0.38333(15) 0.2653(3) 0.60016(8)
S1_3 S 0.39565(5) 0.52162(10) 0.60640(2)
H3_4 H 0.0169 0.4344 0.9409
C8_4 C 0.09822(19) 0.0949(4) 0.81770(10)
C9_4 C 0.1438(2) 0.3104(4) 0.80285(10)
H5_4 H 0.1747 0.4211 0.8323
C11_4 C 0.1424(2) 0.3579(4) 0.74285(10)
H7_4 H 0.1716 0.5032 0.7320
C13_4 C 0.09815(19) 0.1913(4) 0.69904(10)
C14_4 C 0.10598(19) 0.2384(4) 0.63440(10)
S1_4 S 0.10435(5) 0.02162(10) 0.89360(2)
C10_4 C 0.0509(2) 0.9290(4) 0.77457(11)
H6_4 H 0.0187 0.7869 0.7853
C12_4 C 0.0521(2) 0.9778(4) 0.71490(11)
H8_4 H 0.0218 0.8664 0.6855
O3_4 O 0.11667(15) 0.7653(3) 0.89984(8)
C1_4 C 0.65720(19) 0.2715(4) 0.96549(9)
C2_4 C 0.76541(19) 0.2115(4) 0.94383(10)
C3_4 C 0.8541(2) 0.3774(4) 0.95165(11)
H1_4 H 0.8444 0.5273 0.9682
C5_4 C 0.9572(2) 0.3231(5) 0.93511(12)
C7_4 C 0.96975(18) 0.1015(4) 0.90994(10)
O1_4 O 0.63574(15) 0.4884(3) 0.97262(8)
C4_3 C 0.2215(2) 0.0081(4) 0.08312(12)
H2_3 H 0.2814 0.1189 0.0894
C6_3 C 0.1194(2) 0.0630(4) 0.10071(12)
H4_3 H 0.1109 0.2088 0.1195
C4_4 C 0.7785(2) 0.9919(4) 0.91688(12)
H2_4 H 0.7186 0.8811 0.9106
C6_4 C 0.8806(2) 0.9370(4) 0.89929(12)
H4_4 H 0.8891 0.7912 0.8805
loop_
_geom_bond_atom_site_label_1
_geom_bond_atom_site_label_2
_geom_bond_site_symmetry_1
_geom_bond_site_symmetry_2
C1 C2 1_555 1_555
C2 C3 1_555 1_555
C4 C2 1_555 1_555
H2 C4 1_555 1_555
C5 C3 1_555 1_555
H3 C5 1_555 1_555
C6 C4 1_555 1_555
H4 C6 1_555 1_555
C7 C5 1_555 1_555
C8 C9 1_555 1_555
C9 H5 1_555 1_555
C10 C8 1_555 1_555
H6 C10 1_555 1_555
C11 C9 1_555 1_555
C12 C10 1_555 1_555
H8 C12 1_555 1_555
C13 C11 1_555 1_555
C14 C13 1_555 1_555
O1 C1 1_555 1_555
O2 S1 1_555 1_555
O3 S1 1_555 1_555
O4 C14 1_555 1_555
O5 C14 1_555 1_555
S1 C7 1_555 1_555
O6 C1 1_555 1_555
Ca2 O2 1_555 1_555
Ca3 O4 1_555 1_555
Ca6 O6 1_555 1_555
C6 C7 1_555 1_555
C8 S1 1_555 1_555
C12 C13 1_555 1_555
O7 Ca6 1_555 1_555
O9 Ca6 1_555 1_555
C1_2 C2_2 1_555 1_555
C2_2 C3_2 1_555 1_555
C3_2 H1_2 1_555 1_555
C5_2 C3_2 1_555 1_555
C7_2 C5_2 1_555 1_555
O1_2 C1_2 1_555 1_555
O6_2 C1_2 1_555 1_555
Ca3 O6_2 1_555 1_555
O7_2 Ca6_2 1_555 1_555
O8_2 Ca6_2 1_555 1_555
O10_2 Ca6_2 1_555 1_555
H6_2 C10_2 1_555 1_555
C12_2 C10_2 1_555 1_555
H8_2 C12_2 1_555 1_555
C8_2 C9_2 1_555 1_555
C9_2 H5_2 1_555 1_555
C11_2 C9_2 1_555 1_555
H7_2 C11_2 1_555 1_555
C13_2 C11_2 1_555 1_555
C14_2 C13_2 1_555 1_555
O2_2 S1_2 1_555 1_555
O4_2 C14_2 1_555 1_555
O5_2 C14_2 1_555 1_555
Ca3 O2_2 1_555 1_555
Ca2 O5_2 1_555 1_555
C8_2 S1_2 1_555 1_555
O10 Ca2 1_555 1_555
C1_3 C2_3 1_555 1_555
C2_3 C3_3 1_555 1_555
C4_2 C2_3 1_555 1_555
H2_2 C4_2 1_555 1_555
C5_3 C3_3 1_555 1_555
H3_3 C5_3 1_555 1_555
C6_2 C4_2 1_555 1_555
H4_2 C6_2 1_555 1_555
C7_3 C5_3 1_555 1_555
C8_3 C9_3 1_555 1_555
C9_3 H5_3 1_555 1_555
C10_3 C8_3 1_555 1_555
H6_3 C10_3 1_555 1_555
C11_3 C9_3 1_555 1_555
C12_3 C10_3 1_555 1_555
H8_3 C12_3 1_555 1_555
C13_3 C11_3 1_555 1_555
C14_3 C13_3 1_555 1_555
O1_3 C1_3 1_555 1_555
O7 S1_3 1_555 1_555
O3_3 S1_3 1_555 1_555
O8_2 C14_3 1_555 1_555
O9_2 C14_3 1_555 1_555
S1_3 C7_3 1_555 1_555
O10 C1_3 1_555 1_555
C6_2 C7_3 1_555 1_555
C8_3 S1_3 1_555 1_555
C12_3 C13_3 1_555 1_555
C8_4 C9_4 1_555 1_555
C9_4 H5_4 1_555 1_555
C11_4 C9_4 1_555 1_555
H7_4 C11_4 1_555 1_555
C13_4 C11_4 1_555 1_555
C14_4 C13_4 1_555 1_555
O7_2 S1_4 1_555 1_555
O8 C14_4 1_555 1_555
O9 C14_4 1_555 1_555
C8_4 S1_4 1_555 1_555
H6_4 C10_4 1_555 1_555
C12_4 C10_4 1_555 1_555
H8_4 C12_4 1_555 1_555
C1_4 C2_4 1_555 1_555
C2_4 C3_4 1_555 1_555
C3_4 H1_4 1_555 1_555
C5_4 C3_4 1_555 1_555
C7_4 C5_4 1_555 1_555
O1_4 C1_4 1_555 1_555
O10_2 C1_4 1_555 1_555
H2_3 C4_3 1_555 1_555
C6_3 C4_3 1_555 1_555
H4_3 C6_3 1_555 1_555
H2_4 C4_4 1_555 1_555
C6_4 C4_4 1_555 1_555
H4_4 C6_4 1_555 1_555

#END
