
###############################################################################
#
# This file contains modified crystal structure data generated from the
# MOF subset of the Cambridge Structural Database (CSD) v543 
# hosted by the Cambridge Crystallographic Data Centre (CCDC).
#
# This work is licensed under the Creative Commons
# Attribution-NonCommercial-ShareAlike 4.0 International License.
# To view a copy of this license, visit
# http://creativecommons.org/licenses/by-nc-sa/4.0/
# or send a letter to
# Creative Commons, PO Box 1866, Mountain View, CA 94042, USA.
#
# CIF created using the CSD Python API on 29 September 2022
# The structure has been converted into the P1 space group
# The structure has a 3D framework
# The original CSD entry KAYJUS is in the triclinic crystal system
# The framework has been calculated to contain at least 10.0% void space
# The void calculation uses a probe of radius 1.32A, grid spacing 0.4
#
###############################################################################

data_KAYJUS
_chemical_formula_moiety         '(C164 H96 F24 N8 O30 S8 Zn8)n'
_symmetry_cell_setting           triclinic
_symmetry_space_group_name_H-M   'P 1'
_symmetry_Int_Tables_number      1
_space_group_name_Hall           'P 1'
loop_
_symmetry_equiv_pos_site_id
_symmetry_equiv_pos_as_xyz
1 x,y,z
_cell_length_a                   10.920(4)
_cell_length_b                   21.693(6)
_cell_length_c                   23.699(6)
_cell_angle_alpha                67.91(2)
_cell_angle_beta                 79.76(2)
_cell_angle_gamma                76.563(18)
_cell_volume                     5033.99
loop_
_atom_site_label
_atom_site_type_symbol
_atom_site_fract_x
_atom_site_fract_y
_atom_site_fract_z
C38 C 0.0022(12) 0.0595(5) 0.6061(5)
H19 H 0.0699 0.0566 0.5753
S1 S 0.0214(3) 0.17854(18) 0.47858(14)
H27 H 0.0827 0.2571 0.3612
H28 H 0.0075 0.3288 0.3639
C6 C 0.2471(8) 0.4104(4) 0.8745(5)
C7 C 0.4962(9) 0.4212(4) 0.8736(5)
O8 O 0.6723(6) 0.4113(3) 0.9239(3)
O9 O 0.0502(7) 0.3792(3) 0.9263(3)
O11 O 0.7123(7) 0.9481(4) 0.8144(4)
O12 O 0.6974(6) 0.4407(3) 0.8215(3)
O13 O 0.0686(6) 0.8834(4) 0.9178(3)
O14 O 0.0877(7) 0.9227(4) 0.8161(3)
O15 O 0.6907(7) 0.9080(4) 0.9176(3)
O16 O 0.0674(6) 0.4288(4) 0.8238(3)
C12 C 0.6498(10) 0.9272(5) 0.8670(6)
C14 C 0.5168(9) 0.9220(5) 0.8651(5)
C15 C 0.2655(10) 0.9083(5) 0.8653(5)
C16 C 0.1290(10) 0.9041(5) 0.8660(5)
C19 C 0.6310(9) 0.4254(4) 0.8723(5)
C24 C 0.1124(8) 0.4041(4) 0.8755(5)
C30 C 0.3102(9) 0.4465(5) 0.8233(5)
H13 H 0.2674 0.4692 0.7875
C33 C 0.3268(11) 0.8760(6) 0.9202(5)
H14 H 0.2841 0.8504 0.9571
C34 C 0.3083(10) 0.3787(6) 0.9269(5)
H15 H 0.2644 0.3532 0.9634
C35 C 0.4352(11) 0.4522(5) 0.8206(5)
H16 H 0.4782 0.4768 0.7832
C36 C 0.4313(10) 0.3833(5) 0.9275(5)
H17 H 0.4720 0.3611 0.9640
C37 C 0.3287(12) 0.9474(6) 0.8161(6)
H18 H 0.2879 0.9701 0.7796
H21 H 0.0678 0.9712 0.6703
C51 C 0.4523(10) 0.8833(6) 0.9178(5)
H25 H 0.4950 0.8608 0.9537
C53 C 0.4500(11) 0.9562(7) 0.8158(6)
H26 H 0.4878 0.9868 0.7803
H35 H 0.0479 0.5367 0.5786
H36 H 0.0446 0.4555 0.6760
H42 H 0.0555 0.7343 0.3581
Zn5 Zn 0.88808(10) 0.44095(5) 0.80322(5)
Zn7 Zn 0.85818(10) 0.39060(5) 0.94064(5)
Zn10 Zn 0.87500(10) 0.88907(5) 0.93569(5)
Zn12 Zn 0.90460(11) 0.94274(5) 0.79802(5)
N1 N 0.8279(7) 0.3587(4) 0.0337(4)
C18 C 0.7829(9) 0.3223(5) 0.1608(4)
N2 N 0.9093(8) 0.0074(4) 0.7091(4)
C21 C 0.8045(9) 0.2740(6) 0.1335(5)
H9 H 0.8044 0.2278 0.1579
C23 C 0.7619(10) 0.3026(5) 0.2298(5)
C27 C 0.7892(10) 0.3885(5) 0.1240(5)
H10 H 0.7796 0.4226 0.1413
C28 C 0.8096(10) 0.4036(5) 0.0622(5)
H11 H 0.8109 0.4495 0.0373
C29 C 0.8264(9) 0.2936(5) 0.0702(5)
H12 H 0.8410 0.2600 0.0519
C31 C 0.6868(11) 0.3448(6) 0.3697(5)
C32 C 0.7180(13) 0.2436(7) 0.3416(5)
C39 C 0.7407(10) 0.3438(6) 0.2624(5)
H20 H 0.7419 0.3909 0.2443
C40 C 0.9993(12) 0.0085(6) 0.6634(6)
C41 C 0.9052(12) 0.1138(6) 0.5953(5)
C43 C 0.8144(10) 0.0619(5) 0.6977(5)
H22 H 0.7473 0.0634 0.7290
S2 S 0.7509(3) 0.22078(16) 0.27569(14)
C44 C 0.6635(11) 0.3765(5) 0.4575(5)
C45 C 0.7209(12) 0.3289(6) 0.4279(5)
C46 C 0.7164(10) 0.3104(5) 0.3263(5)
C47 C 0.8001(11) 0.2230(6) 0.5186(5)
H23 H 0.7246 0.2287 0.5446
C48 C 0.8104(11) 0.1162(6) 0.6419(5)
H24 H 0.7434 0.1542 0.6362
F1 F 0.4494(7) 0.4027(4) 0.4377(3)
F2 F 0.6125(7) 0.3495(3) 0.5153(3)
F3 F 0.5379(8) 0.4902(4) 0.4132(3)
F4 F 0.5090(7) 0.4239(4) 0.3220(3)
F5 F 0.7437(7) 0.4156(4) 0.4597(3)
C49 C 0.6017(13) 0.4144(6) 0.3543(6)
C50 C 0.9001(12) 0.1707(6) 0.5366(5)
C52 C 0.5593(13) 0.4260(7) 0.4154(5)
F6 F 0.6744(7) 0.4636(3) 0.3194(3)
C54 C 0.9989(12) 0.2835(6) 0.3675(5)
H29 H 0.9463 0.2872 0.3364
C55 C 0.9385(11) 0.2493(6) 0.4291(5)
C56 C 0.6940(15) 0.1874(7) 0.4033(5)
H30 H 0.7035 0.1444 0.3967
H31 H 0.6080 0.1988 0.4216
H32 H 0.7552 0.1830 0.4308
C57 C 0.8207(12) 0.2681(6) 0.4571(5)
O19 O 0.8821(8) 0.0238(3) 0.8255(3)
N6 N 0.8399(7) 0.8522(4) 0.0281(4)
C1 C 0.8709(9) 0.1136(5) 0.9277(5)
H1 H 0.8645 0.0780 0.9661
C2 C 0.8845(9) 0.6794(4) 0.9202(4)
H2 H 0.8878 0.6873 0.9566
O1 O 0.8588(7) 0.4884(3) 0.9249(3)
O2 O 0.8702(6) 0.3083(3) 0.9189(3)
O3 O 0.8941(7) 0.8086(3) 0.9110(3)
C3 C 0.8856(10) 0.1524(5) 0.8181(5)
H3 H 0.8895 0.1436 0.7814
O4 O 0.9119(7) 0.3414(3) 0.8167(4)
C4 C 0.8913(10) 0.2168(5) 0.8159(5)
H4 H 0.8995 0.2523 0.7777
C5 C 0.8835(10) 0.7195(5) 0.8098(5)
H5 H 0.8881 0.7551 0.7713
O6 O 0.8538(7) 0.5266(3) 0.8236(3)
O7 O 0.9122(8) 0.8457(3) 0.8086(3)
C8 C 0.8758(9) 0.6155(4) 0.9223(5)
H6 H 0.8761 0.5793 0.9605
C9 C 0.8767(9) 0.1771(4) 0.9251(4)
H7 H 0.8750 0.1851 0.9620
C10 C 0.8718(9) 0.6557(4) 0.8129(4)
H8 H 0.8675 0.6478 0.7766
C11 C 0.8895(9) 0.2981(4) 0.8680(5)
C13 C 0.8589(9) 0.5334(5) 0.8734(5)
C17 C 0.8996(9) 0.8013(5) 0.8605(5)
C20 C 0.8665(9) 0.6035(5) 0.8694(4)
C22 C 0.8737(9) 0.0308(5) 0.8762(5)
C25 C 0.8744(9) 0.1019(4) 0.8738(4)
C26 C 0.8885(8) 0.7311(4) 0.8639(4)
C42 C 0.8849(9) 0.2288(5) 0.8707(5)
S3 S 0.7361(3) 0.70369(18) 0.26632(14)
N4 N 0.8887(8) 0.4973(4) 0.7114(3)
C58 C 0.8063(9) 0.7647(5) 0.1248(5)
H33 H 0.8016 0.7183 0.1462
C59 C 0.7457(10) 0.7884(6) 0.2220(5)
C60 C 0.7837(10) 0.8762(5) 0.1207(5)
H34 H 0.7630 0.9094 0.1396
F7 F 0.4192(7) 0.8763(5) 0.4361(3)
C61 C 0.7825(10) 0.8083(6) 0.1563(5)
C62 C 0.9785(10) 0.5407(5) 0.6082(5)
C63 C 0.9771(12) 0.4932(5) 0.6672(5)
C64 C 0.7792(11) 0.5957(6) 0.6417(5)
H37 H 0.7067 0.6306 0.6346
C65 C 0.8792(10) 0.5933(6) 0.5934(5)
C66 C 0.7910(11) 0.5481(6) 0.6959(5)
H38 H 0.7236 0.5502 0.7269
S4 S 0.9925(3) 0.65471(19) 0.47554(13)
C67 C 0.7682(11) 0.6990(7) 0.5159(5)
H39 H 0.6925 0.7041 0.5419
C68 C 0.8685(12) 0.6481(7) 0.5326(5)
C69 C 0.8372(10) 0.7873(5) 0.0618(5)
H40 H 0.8573 0.7552 0.0417
C70 C 0.8152(10) 0.8955(6) 0.0574(5)
H41 H 0.8190 0.9417 0.0345
F8 F 0.4808(7) 0.9000(4) 0.3194(3)
F9 F 0.5879(8) 0.8269(5) 0.5128(3)
F10 F 0.6428(7) 0.9409(4) 0.3174(3)
F11 F 0.5069(8) 0.9648(5) 0.4123(4)
F12 F 0.7184(7) 0.8913(4) 0.4549(4)
C71 C 0.7899(11) 0.7444(7) 0.4544(5)
C72 C 0.9075(11) 0.7265(6) 0.4260(5)
C73 C 0.5756(13) 0.8920(8) 0.3525(5)
C74 C 0.6621(12) 0.8227(7) 0.3663(6)
C75 C 0.9712(11) 0.7607(7) 0.3634(5)
H43 H 0.9203 0.7638 0.3320
H44 H 0.9791 0.8063 0.3595
C76 C 0.6328(13) 0.8529(7) 0.4548(6)
C77 C 0.5352(14) 0.9022(9) 0.4157(7)
C78 C 0.7222(10) 0.8259(7) 0.2582(5)
H45 H 0.7251 0.8728 0.2426
C79 C 0.6924(12) 0.7232(7) 0.3332(5)
C80 C 0.6973(12) 0.8030(7) 0.4245(6)
C81 C 0.6615(14) 0.6665(7) 0.3926(6)
H46 H 0.6715 0.6245 0.3843
H47 H 0.7191 0.6601 0.4224
H48 H 0.5740 0.6784 0.4090
C82 C 0.6926(11) 0.7901(8) 0.3218(5)
O17 O 0.8630(7) 0.9859(3) 0.9278(3)
O5 O 0.1370(7) 0.0141(3) 0.0722(3)
Zn8 Zn 0.12500(10) 0.11093(5) 0.06431(5)
Zn11 Zn 0.09540(11) 0.05726(5) 0.20198(5)
Zn1 Zn 0.11192(10) 0.55905(5) 0.19678(5)
Zn2 Zn 0.14182(10) 0.60940(5) 0.05936(5)
C1_2 C 0.1291(9) 0.8864(5) 0.0723(5)
H1_2 H 0.1355 0.9220 0.0339
C2_2 C 0.1155(9) 0.3206(4) 0.0798(4)
H2_2 H 0.1122 0.3127 0.0434
O1_2 O 0.1412(7) 0.5116(3) 0.0751(3)
O2_2 O 0.1298(6) 0.6917(3) 0.0811(3)
O3_2 O 0.1059(7) 0.1914(3) 0.0890(3)
C3_2 C 0.1144(10) 0.8476(5) 0.1819(5)
H3_2 H 0.1105 0.8564 0.2186
O4_2 O 0.0881(7) 0.6586(3) 0.1833(4)
C4_2 C 0.1087(10) 0.7832(5) 0.1841(5)
H4_2 H 0.1005 0.7477 0.2223
C5_2 C 0.1165(10) 0.2805(5) 0.1902(5)
H5_2 H 0.1119 0.2449 0.2287
O6_2 O 0.1462(7) 0.4734(3) 0.1764(3)
O7_2 O 0.0878(8) 0.1543(3) 0.1914(3)
C8_2 C 0.1242(9) 0.3845(4) 0.0777(5)
H6_2 H 0.1239 0.4207 0.0395
C9_2 C 0.1233(9) 0.8229(4) 0.0749(4)
H7_2 H 0.1250 0.8149 0.0380
O10 O 0.1179(8) 0.9762(3) 0.1745(3)
C10_2 C 0.1282(9) 0.3443(4) 0.1871(4)
H8_2 H 0.1325 0.3522 0.2234
C11_2 C 0.1105(9) 0.7019(4) 0.1320(5)
C13_2 C 0.1411(9) 0.4666(5) 0.1266(5)
C17_2 C 0.1004(9) 0.1987(5) 0.1395(5)
C20_2 C 0.1335(9) 0.3965(5) 0.1306(4)
C22_2 C 0.1263(9) 0.9692(5) 0.1238(5)
C25_2 C 0.1256(9) 0.8981(4) 0.1262(4)
C26_2 C 0.1115(8) 0.2689(4) 0.1361(4)
C42_2 C 0.1151(9) 0.7712(5) 0.1293(5)
S3_2 S 0.2639(3) 0.29631(18) 0.73368(14)
N3 N 0.1601(7) 0.1478(4) 0.9719(4)
N4_2 N 0.1113(8) 0.5027(4) 0.2886(3)
C58_2 C 0.1937(9) 0.2353(5) 0.8752(5)
H33_2 H 0.1984 0.2817 0.8538
C59_2 C 0.2543(10) 0.2116(6) 0.7780(5)
C60_2 C 0.2163(10) 0.1238(5) 0.8793(5)
H34_2 H 0.2370 0.0906 0.8604
F7_2 F 0.5808(7) 0.1237(5) 0.5639(3)
C61_2 C 0.2175(10) 0.1917(6) 0.8437(5)
C62_2 C 0.0215(10) 0.4593(5) 0.3918(5)
C63_2 C 0.0229(12) 0.5068(5) 0.3328(5)
C64_2 C 0.2208(11) 0.4043(6) 0.3583(5)
H37_2 H 0.2933 0.3694 0.3654
C65_2 C 0.1208(10) 0.4067(6) 0.4066(5)
C66_2 C 0.2090(11) 0.4519(6) 0.3041(5)
H38_2 H 0.2764 0.4498 0.2731
S4_2 S 0.0075(3) 0.34529(19) 0.52446(13)
C67_2 C 0.2318(11) 0.3010(7) 0.4841(5)
H39_2 H 0.3075 0.2959 0.4581
C68_2 C 0.1315(12) 0.3519(7) 0.4674(5)
C69_2 C 0.1628(10) 0.2127(5) 0.9382(5)
H40_2 H 0.1427 0.2448 0.9583
C70_2 C 0.1848(10) 0.1045(6) 0.9426(5)
H41_2 H 0.1810 0.0583 0.9655
F8_2 F 0.5192(7) 0.1000(4) 0.6806(3)
F9_2 F 0.4121(8) 0.1731(5) 0.4872(3)
F10_2 F 0.3572(7) 0.0591(4) 0.6826(3)
F11_2 F 0.4931(8) 0.0352(5) 0.5877(4)
F12_2 F 0.2816(7) 0.1087(4) 0.5451(4)
C71_2 C 0.2101(11) 0.2556(7) 0.5456(5)
C72_2 C 0.0925(11) 0.2735(6) 0.5740(5)
C73_2 C 0.4244(13) 0.1080(8) 0.6475(5)
C74_2 C 0.3379(12) 0.1773(7) 0.6337(6)
C75_2 C 0.0288(11) 0.2393(7) 0.6366(5)
H43_2 H 0.0797 0.2362 0.6680
H44_2 H 0.0209 0.1937 0.6405
C76_2 C 0.3672(13) 0.1471(7) 0.5452(6)
C77_2 C 0.4648(14) 0.0978(9) 0.5843(7)
C78_2 C 0.2778(10) 0.1741(7) 0.7418(5)
H45_2 H 0.2749 0.1272 0.7574
C79_2 C 0.3076(12) 0.2768(7) 0.6668(5)
C80_2 C 0.3027(12) 0.1970(7) 0.5755(6)
C81_2 C 0.3385(14) 0.3335(7) 0.6074(6)
H46_2 H 0.3285 0.3755 0.6157
H47_2 H 0.2809 0.3399 0.5776
H48_2 H 0.4260 0.3216 0.5910
C82_2 C 0.3074(11) 0.2099(8) 0.6782(5)
O18 O 0.3277(6) 0.5887(3) 0.0761(3)
O20 O 0.2877(7) 0.0519(4) 0.1856(4)
O21 O 0.3026(6) 0.5593(3) 0.1785(3)
O22 O 0.3093(7) 0.0920(4) 0.0824(3)
N5 N 0.1721(7) 0.6413(4) 0.9663(4)
C18_2 C 0.2171(9) 0.6777(5) 0.8392(4)
N2_2 N 0.0907(8) 0.9926(4) 0.2909(4)
C21_2 C 0.1955(9) 0.7260(6) 0.8665(5)
H9_2 H 0.1956 0.7722 0.8421
C23_2 C 0.2381(10) 0.6974(5) 0.7702(5)
C27_2 C 0.2108(10) 0.6115(5) 0.8760(5)
H10_2 H 0.2204 0.5774 0.8587
C28_2 C 0.1904(10) 0.5964(5) 0.9378(5)
H11_2 H 0.1891 0.5505 0.9627
C29_2 C 0.1736(9) 0.7064(5) 0.9298(5)
H12_2 H 0.1590 0.7400 0.9481
C31_2 C 0.3132(11) 0.6552(6) 0.6303(5)
C32_2 C 0.2820(13) 0.7564(7) 0.6584(5)
C39_2 C 0.2593(10) 0.6562(6) 0.7376(5)
H20_2 H 0.2581 0.6091 0.7557
C40_2 C 0.0007(12) 0.9915(6) 0.3366(6)
C41_2 C 0.0948(12) 0.8862(6) 0.4047(5)
C43_2 C 0.1856(10) 0.9381(5) 0.3023(5)
H22_2 H 0.2527 0.9366 0.2710
S2_2 S 0.2491(3) 0.77922(16) 0.72431(14)
C44_2 C 0.3365(11) 0.6235(5) 0.5425(5)
C45_2 C 0.2791(12) 0.6711(6) 0.5721(5)
C46_2 C 0.2836(10) 0.6896(5) 0.6737(5)
C47_2 C 0.1999(11) 0.7770(6) 0.4814(5)
H23_2 H 0.2754 0.7713 0.4554
C48_2 C 0.1896(11) 0.8838(6) 0.3581(5)
H24_2 H 0.2566 0.8458 0.3638
F1_2 F 0.5506(7) 0.5973(4) 0.5623(3)
F2_2 F 0.3875(7) 0.6505(3) 0.4847(3)
F3_2 F 0.4621(8) 0.5098(4) 0.5868(3)
F4_2 F 0.4910(7) 0.5761(4) 0.6780(3)
F5_2 F 0.2563(7) 0.5844(4) 0.5403(3)
C49_2 C 0.3983(13) 0.5856(6) 0.6457(6)
C50_2 C 0.0999(12) 0.8293(6) 0.4634(5)
C52_2 C 0.4407(13) 0.5740(7) 0.5846(5)
F6_2 F 0.3256(7) 0.5364(3) 0.6806(3)
C54_2 C 0.0011(12) 0.7165(6) 0.6325(5)
H29_2 H 0.0537 0.7128 0.6636
C55_2 C 0.0615(11) 0.7507(6) 0.5709(5)
C56_2 C 0.3060(15) 0.8126(7) 0.5967(5)
H30_2 H 0.2965 0.8556 0.6033
H31_2 H 0.3920 0.8012 0.5784
H32_2 H 0.2448 0.8170 0.5692
C57_2 C 0.1793(12) 0.7319(6) 0.5429(5)
C6_2 C 0.7529(8) 0.5896(4) 0.1255(5)
C7_2 C 0.5038(9) 0.5788(4) 0.1264(5)
O9_2 O 0.9498(7) 0.6208(3) 0.0737(3)
O13_2 O 0.9314(6) 0.1166(4) 0.0822(3)
O14_2 O 0.9123(7) 0.0773(4) 0.1839(3)
O16_2 O 0.9326(6) 0.5712(4) 0.1762(3)
C12_2 C 0.3502(10) 0.0728(5) 0.1330(6)
C14_2 C 0.4832(9) 0.0780(5) 0.1349(5)
C15_2 C 0.7345(10) 0.0917(5) 0.1347(5)
C16_2 C 0.8710(10) 0.0959(5) 0.1340(5)
C19_2 C 0.3690(9) 0.5746(4) 0.1277(5)
C24_2 C 0.8876(8) 0.5959(4) 0.1245(5)
C30_2 C 0.6898(9) 0.5535(5) 0.1767(5)
H13_2 H 0.7326 0.5308 0.2125
C33_2 C 0.6732(11) 0.1240(6) 0.0798(5)
H14_2 H 0.7159 0.1496 0.0429
C34_2 C 0.6917(10) 0.6213(6) 0.0731(5)
H15_2 H 0.7356 0.6468 0.0366
C35_2 C 0.5648(11) 0.5478(5) 0.1794(5)
H16_2 H 0.5218 0.5232 0.2168
C36_2 C 0.5687(10) 0.6167(5) 0.0725(5)
H17_2 H 0.5280 0.6389 0.0360
C37_2 C 0.6713(12) 0.0526(6) 0.1839(6)
H18_2 H 0.7121 0.0299 0.2204
H21_2 H 0.9322 0.0288 0.3297
C51_2 C 0.5477(10) 0.1167(6) 0.0822(5)
H25_2 H 0.5050 0.1392 0.0463
C53_2 C 0.5500(11) 0.0438(7) 0.1842(6)
H26_2 H 0.5122 0.0132 0.2197
H35_2 H 0.9521 0.4633 0.4214
H36_2 H 0.9554 0.5445 0.3240
H42_2 H 0.9445 0.2657 0.6419
C38_2 C 0.9978(12) 0.9405(5) 0.3939(5)
H19_2 H 0.9301 0.9434 0.4247
S1_2 S 0.9786(3) 0.82146(18) 0.52142(14)
H27_2 H 0.9173 0.7429 0.6388
H28_2 H 0.9925 0.6712 0.6361
loop_
_geom_bond_atom_site_label_1
_geom_bond_atom_site_label_2
_geom_bond_site_symmetry_1
_geom_bond_site_symmetry_2
C38 H19 1_555 1_555
C6 C24 1_555 1_555
C7 C19 1_555 1_555
O8 C19 1_555 1_555
O11 C12 1_555 1_555
O12 C19 1_555 1_555
O15 C12 1_555 1_555
C12 C14 1_555 1_555
C14 C51 1_555 1_555
C15 C16 1_555 1_555
C16 O13 1_555 1_555
C24 O9 1_555 1_555
C30 C6 1_555 1_555
H13 C30 1_555 1_555
C33 C15 1_555 1_555
H14 C33 1_555 1_555
C34 C6 1_555 1_555
H15 C34 1_555 1_555
C35 C7 1_555 1_555
H16 C35 1_555 1_555
C36 C7 1_555 1_555
H17 C36 1_555 1_555
C37 C15 1_555 1_555
H18 C37 1_555 1_555
C51 C33 1_555 1_555
H25 C51 1_555 1_555
C53 C14 1_555 1_555
H26 C53 1_555 1_555
Zn5 O12 1_555 1_555
Zn7 O8 1_555 1_555
Zn10 O15 1_555 1_555
Zn12 O11 1_555 1_555
O14 C16 1_555 1_555
O16 C24 1_555 1_555
C30 C35 1_555 1_555
C34 C36 1_555 1_555
C37 C53 1_555 1_555
N1 C28 1_555 1_555
C18 C21 1_555 1_555
C21 H9 1_555 1_555
C23 C18 1_555 1_555
C27 C18 1_555 1_555
H10 C27 1_555 1_555
C28 C27 1_555 1_555
H11 C28 1_555 1_555
C29 N1 1_555 1_555
H12 C29 1_555 1_555
C31 C45 1_555 1_555
C32 S2 1_555 1_555
C39 C23 1_555 1_555
H20 C39 1_555 1_555
C40 N2 1_555 1_555
C43 N2 1_555 1_555
H22 C43 1_555 1_555
S2 C23 1_555 1_555
C44 C45 1_555 1_555
C45 C57 1_555 1_555
C46 C31 1_555 1_555
C47 H23 1_555 1_555
C48 C41 1_555 1_555
H24 C48 1_555 1_555
F1 C52 1_555 1_555
F2 C44 1_555 1_555
F3 C52 1_555 1_555
F4 C49 1_555 1_555
F5 C44 1_555 1_555
C49 C31 1_555 1_555
C50 C41 1_555 1_555
C52 C44 1_555 1_555
F6 C49 1_555 1_555
H29 C54 1_555 1_555
C56 C32 1_555 1_555
H30 C56 1_555 1_555
H31 C56 1_555 1_555
H32 C56 1_555 1_555
C57 C47 1_555 1_555
C21 C29 1_555 1_555
C32 C46 1_555 1_555
C39 C46 1_555 1_555
C43 C48 1_555 1_555
C47 C50 1_555 1_555
C49 C52 1_555 1_555
C54 C55 1_555 1_555
C55 C57 1_555 1_555
Zn5 O4 1_555 1_555
Zn7 O1 1_555 1_555
Zn10 O3 1_555 1_555
Zn12 O7 1_555 1_555
C1 H1 1_555 1_555
C2 H2 1_555 1_555
O1 C13 1_555 1_555
O2 Zn7 1_555 1_555
O3 C17 1_555 1_555
C3 H3 1_555 1_555
O4 C11 1_555 1_555
C4 C3 1_555 1_555
H4 C4 1_555 1_555
C5 H5 1_555 1_555
O6 Zn5 1_555 1_555
O7 C17 1_555 1_555
C8 C2 1_555 1_555
H6 C8 1_555 1_555
C9 C1 1_555 1_555
H7 C9 1_555 1_555
O19 C22 1_555 1_555
C10 C5 1_555 1_555
H8 C10 1_555 1_555
C11 O2 1_555 1_555
C13 O6 1_555 1_555
C17 C26 1_555 1_555
C20 C8 1_555 1_555
C22 C25 1_555 1_555
C25 C1 1_555 1_555
C26 C2 1_555 1_555
C42 C4 1_555 1_555
S3 C59 1_555 1_555
N6 C69 1_555 1_555
N4 Zn5 1_555 1_555
C58 H33 1_555 1_555
C59 C61 1_555 1_555
C60 H34 1_555 1_555
F7 C77 1_555 1_555
C61 C58 1_555 1_555
C63 N4 1_555 1_555
C64 H37 1_555 1_555
C65 C62 1_555 1_555
C66 N4 1_555 1_555
H38 C66 1_555 1_555
S4 C68 1_555 1_555
C67 H39 1_555 1_555
C68 C65 1_555 1_555
C69 C58 1_555 1_555
H40 C69 1_555 1_555
C70 N6 1_555 1_555
H41 C70 1_555 1_555
F8 C73 1_555 1_555
F9 C76 1_555 1_555
F10 C73 1_555 1_555
F11 C77 1_555 1_555
F12 C76 1_555 1_555
C71 C67 1_555 1_555
C72 S4 1_555 1_555
C73 C74 1_555 1_555
C74 C80 1_555 1_555
C75 C72 1_555 1_555
H43 C75 1_555 1_555
H44 C75 1_555 1_555
C76 C77 1_555 1_555
C77 C73 1_555 1_555
C78 C59 1_555 1_555
H45 C78 1_555 1_555
C79 S3 1_555 1_555
C80 C71 1_555 1_555
C81 C79 1_555 1_555
H46 C81 1_555 1_555
H47 C81 1_555 1_555
H48 C81 1_555 1_555
C82 C74 1_555 1_555
O17 Zn10 1_555 1_555
C3 C25 1_555 1_555
C5 C26 1_555 1_555
C9 C42 1_555 1_555
C10 C20 1_555 1_555
C11 C42 1_555 1_555
C13 C20 1_555 1_555
C60 C61 1_555 1_555
C60 C70 1_555 1_555
C62 C63 1_555 1_555
C64 C65 1_555 1_555
C64 C66 1_555 1_555
C67 C68 1_555 1_555
C71 C72 1_555 1_555
C76 C80 1_555 1_555
C78 C82 1_555 1_555
C79 C82 1_555 1_555
Zn8 O5 1_555 1_555
Zn1 O4_2 1_555 1_555
Zn2 O1_2 1_555 1_555
Zn8 O3_2 1_555 1_555
Zn11 O7_2 1_555 1_555
C1_2 H1_2 1_555 1_555
C2_2 H2_2 1_555 1_555
O1_2 C13_2 1_555 1_555
O2_2 Zn2 1_555 1_555
O3_2 C17_2 1_555 1_555
C3_2 H3_2 1_555 1_555
O4_2 C11_2 1_555 1_555
C4_2 C3_2 1_555 1_555
H4_2 C4_2 1_555 1_555
C5_2 H5_2 1_555 1_555
O6_2 Zn1 1_555 1_555
O7_2 C17_2 1_555 1_555
C8_2 C2_2 1_555 1_555
H6_2 C8_2 1_555 1_555
C9_2 C1_2 1_555 1_555
H7_2 C9_2 1_555 1_555
O10 C22_2 1_555 1_555
C10_2 C5_2 1_555 1_555
H8_2 C10_2 1_555 1_555
C11_2 O2_2 1_555 1_555
C13_2 O6_2 1_555 1_555
C17_2 C26_2 1_555 1_555
C20_2 C8_2 1_555 1_555
C22_2 C25_2 1_555 1_555
C25_2 C1_2 1_555 1_555
C26_2 C2_2 1_555 1_555
C42_2 C4_2 1_555 1_555
S3_2 C59_2 1_555 1_555
N3 C69_2 1_555 1_555
N4_2 Zn1 1_555 1_555
C58_2 H33_2 1_555 1_555
C59_2 C61_2 1_555 1_555
C60_2 H34_2 1_555 1_555
F7_2 C77_2 1_555 1_555
C61_2 C58_2 1_555 1_555
C63_2 N4_2 1_555 1_555
C64_2 H37_2 1_555 1_555
C65_2 C62_2 1_555 1_555
C66_2 N4_2 1_555 1_555
H38_2 C66_2 1_555 1_555
S4_2 C68_2 1_555 1_555
C67_2 H39_2 1_555 1_555
C68_2 C65_2 1_555 1_555
C69_2 C58_2 1_555 1_555
H40_2 C69_2 1_555 1_555
C70_2 N3 1_555 1_555
H41_2 C70_2 1_555 1_555
F8_2 C73_2 1_555 1_555
F9_2 C76_2 1_555 1_555
F10_2 C73_2 1_555 1_555
F11_2 C77_2 1_555 1_555
F12_2 C76_2 1_555 1_555
C71_2 C67_2 1_555 1_555
C72_2 S4_2 1_555 1_555
C73_2 C74_2 1_555 1_555
C74_2 C80_2 1_555 1_555
C75_2 C72_2 1_555 1_555
H43_2 C75_2 1_555 1_555
H44_2 C75_2 1_555 1_555
C76_2 C77_2 1_555 1_555
C77_2 C73_2 1_555 1_555
C78_2 C59_2 1_555 1_555
H45_2 C78_2 1_555 1_555
C79_2 S3_2 1_555 1_555
C80_2 C71_2 1_555 1_555
C81_2 C79_2 1_555 1_555
H46_2 C81_2 1_555 1_555
H47_2 C81_2 1_555 1_555
H48_2 C81_2 1_555 1_555
C82_2 C74_2 1_555 1_555
O18 Zn2 1_555 1_555
O20 Zn11 1_555 1_555
O21 Zn1 1_555 1_555
O22 Zn8 1_555 1_555
C3_2 C25_2 1_555 1_555
C5_2 C26_2 1_555 1_555
C9_2 C42_2 1_555 1_555
C10_2 C20_2 1_555 1_555
C11_2 C42_2 1_555 1_555
C13_2 C20_2 1_555 1_555
C60_2 C61_2 1_555 1_555
C60_2 C70_2 1_555 1_555
C62_2 C63_2 1_555 1_555
C64_2 C65_2 1_555 1_555
C64_2 C66_2 1_555 1_555
C67_2 C68_2 1_555 1_555
C71_2 C72_2 1_555 1_555
C76_2 C80_2 1_555 1_555
C78_2 C82_2 1_555 1_555
C79_2 C82_2 1_555 1_555
N5 C28_2 1_555 1_555
C18_2 C21_2 1_555 1_555
C21_2 H9_2 1_555 1_555
C23_2 C18_2 1_555 1_555
C27_2 C18_2 1_555 1_555
H10_2 C27_2 1_555 1_555
C28_2 C27_2 1_555 1_555
H11_2 C28_2 1_555 1_555
C29_2 N5 1_555 1_555
H12_2 C29_2 1_555 1_555
C31_2 C45_2 1_555 1_555
C32_2 S2_2 1_555 1_555
C39_2 C23_2 1_555 1_555
H20_2 C39_2 1_555 1_555
C40_2 N2_2 1_555 1_555
C43_2 N2_2 1_555 1_555
H22_2 C43_2 1_555 1_555
S2_2 C23_2 1_555 1_555
C44_2 C45_2 1_555 1_555
C45_2 C57_2 1_555 1_555
C46_2 C31_2 1_555 1_555
C47_2 H23_2 1_555 1_555
C48_2 C41_2 1_555 1_555
H24_2 C48_2 1_555 1_555
F1_2 C52_2 1_555 1_555
F2_2 C44_2 1_555 1_555
F3_2 C52_2 1_555 1_555
F4_2 C49_2 1_555 1_555
F5_2 C44_2 1_555 1_555
C49_2 C31_2 1_555 1_555
C50_2 C41_2 1_555 1_555
C52_2 C44_2 1_555 1_555
F6_2 C49_2 1_555 1_555
H29_2 C54_2 1_555 1_555
C56_2 C32_2 1_555 1_555
H30_2 C56_2 1_555 1_555
H31_2 C56_2 1_555 1_555
H32_2 C56_2 1_555 1_555
C57_2 C47_2 1_555 1_555
C21_2 C29_2 1_555 1_555
C32_2 C46_2 1_555 1_555
C39_2 C46_2 1_555 1_555
C43_2 C48_2 1_555 1_555
C47_2 C50_2 1_555 1_555
C49_2 C52_2 1_555 1_555
C54_2 C55_2 1_555 1_555
C55_2 C57_2 1_555 1_555
C6_2 C24_2 1_555 1_555
C7_2 C19_2 1_555 1_555
O18 C19_2 1_555 1_555
O20 C12_2 1_555 1_555
O21 C19_2 1_555 1_555
O22 C12_2 1_555 1_555
C12_2 C14_2 1_555 1_555
C14_2 C51_2 1_555 1_555
C15_2 C16_2 1_555 1_555
C16_2 O13_2 1_555 1_555
C24_2 O9_2 1_555 1_555
C30_2 C6_2 1_555 1_555
H13_2 C30_2 1_555 1_555
C33_2 C15_2 1_555 1_555
H14_2 C33_2 1_555 1_555
C34_2 C6_2 1_555 1_555
H15_2 C34_2 1_555 1_555
C35_2 C7_2 1_555 1_555
H16_2 C35_2 1_555 1_555
C36_2 C7_2 1_555 1_555
H17_2 C36_2 1_555 1_555
C37_2 C15_2 1_555 1_555
H18_2 C37_2 1_555 1_555
C51_2 C33_2 1_555 1_555
H25_2 C51_2 1_555 1_555
C53_2 C14_2 1_555 1_555
H26_2 C53_2 1_555 1_555
O14_2 C16_2 1_555 1_555
O16_2 C24_2 1_555 1_555
C30_2 C35_2 1_555 1_555
C34_2 C36_2 1_555 1_555
C37_2 C53_2 1_555 1_555
C38_2 H19_2 1_555 1_555

#END
