
###############################################################################
#
# This file contains modified crystal structure data generated from the
# MOF subset of the Cambridge Structural Database (CSD) v543 
# hosted by the Cambridge Crystallographic Data Centre (CCDC).
#
# This work is licensed under the Creative Commons
# Attribution-NonCommercial-ShareAlike 4.0 International License.
# To view a copy of this license, visit
# http://creativecommons.org/licenses/by-nc-sa/4.0/
# or send a letter to
# Creative Commons, PO Box 1866, Mountain View, CA 94042, USA.
#
# CIF created using the CSD Python API on 29 September 2022
# The structure has been converted into the P1 space group
# The structure has a 3D framework
# The original CSD entry KAZXEQ is in the cubic crystal system
# The framework has been calculated to contain at least 10.0% void space
# The void calculation uses a probe of radius 1.32A, grid spacing 0.4
# The framework is charged, counterions have been retained in the structure
# H atom positions have been added when not included in the experimental data
# Generated hydrogen atom positions removed from atoms on special positions
#
###############################################################################

data_KAZXEQ
_chemical_formula_moiety         '(C1056 H2400 N32 O716 Zn172 26+)n'
_symmetry_cell_setting           triclinic
_symmetry_space_group_name_H-M   'P 1'
_symmetry_Int_Tables_number      1
_space_group_name_Hall           'P 1'
loop_
_symmetry_equiv_pos_site_id
_symmetry_equiv_pos_as_xyz
1 x,y,z
_cell_length_a                   38.5910(8)
_cell_length_b                   38.5910(8)
_cell_length_c                   38.5910(8)
_cell_angle_alpha                90
_cell_angle_beta                 90
_cell_angle_gamma                90
_cell_volume                     57472.2
loop_
_atom_site_label
_atom_site_type_symbol
_atom_site_fract_x
_atom_site_fract_y
_atom_site_fract_z
O1 O 0.1767(4) 0.2138(3) 0.2138(3)
N1 N 0.1964(4) 0.1964(4) 0.1964(4)
O2 O 0.2138(3) 0.1767(4) 0.2138(3)
O3 O 0.2138(3) 0.2138(3) 0.1767(4)
O1_2 O 0.8233(4) 0.7862(3) 0.2138(3)
N1_2 N 0.8036(4) 0.8036(4) 0.1964(4)
O2_2 O 0.7862(3) 0.8233(4) 0.2138(3)
O3_2 O 0.7862(3) 0.7862(3) 0.1767(4)
O1_3 O 0.8233(4) 0.2138(3) 0.7862(3)
N1_3 N 0.8036(4) 0.1964(4) 0.8036(4)
O2_3 O 0.7862(3) 0.1767(4) 0.7862(3)
O3_3 O 0.7862(3) 0.2138(3) 0.8233(4)
O1_4 O 0.1767(4) 0.7862(3) 0.7862(3)
N1_4 N 0.1964(4) 0.8036(4) 0.8036(4)
O2_4 O 0.2138(3) 0.8233(4) 0.7862(3)
O3_4 O 0.2138(3) 0.7862(3) 0.8233(4)
O1_5 O 0.2138(3) 0.1767(4) 0.7862(3)
N1_5 N 0.1964(4) 0.1964(4) 0.8036(4)
O2_5 O 0.1767(4) 0.2138(3) 0.7862(3)
O3_5 O 0.2138(3) 0.2138(3) 0.8233(4)
O1_6 O 0.7862(3) 0.8233(4) 0.7862(3)
N1_6 N 0.8036(4) 0.8036(4) 0.8036(4)
O2_6 O 0.8233(4) 0.7862(3) 0.7862(3)
O3_6 O 0.7862(3) 0.7862(3) 0.8233(4)
O1_7 O 0.2138(3) 0.8233(4) 0.2138(3)
N1_7 N 0.1964(4) 0.8036(4) 0.1964(4)
O2_7 O 0.1767(4) 0.7862(3) 0.2138(3)
O3_7 O 0.2138(3) 0.7862(3) 0.1767(4)
O1_8 O 0.7862(3) 0.1767(4) 0.2138(3)
N1_8 N 0.8036(4) 0.1964(4) 0.1964(4)
O2_8 O 0.8233(4) 0.2138(3) 0.2138(3)
O3_8 O 0.7862(3) 0.2138(3) 0.1767(4)
O1_9 O 0.1767(4) 0.7138(3) 0.7138(3)
N1_9 N 0.1964(4) 0.6964(4) 0.6964(4)
O2_9 O 0.2138(3) 0.6767(4) 0.7138(3)
O3_9 O 0.2138(3) 0.7138(3) 0.6767(4)
O1_10 O 0.8233(4) 0.2862(3) 0.7138(3)
N1_10 N 0.8036(4) 0.3036(4) 0.6964(4)
O2_10 O 0.7862(3) 0.3233(4) 0.7138(3)
O3_10 O 0.7862(3) 0.2862(3) 0.6767(4)
O1_11 O 0.8233(4) 0.7138(3) 0.2862(3)
N1_11 N 0.8036(4) 0.6964(4) 0.3036(4)
O2_11 O 0.7862(3) 0.6767(4) 0.2862(3)
O3_11 O 0.7862(3) 0.7138(3) 0.3233(4)
O1_12 O 0.1767(4) 0.2862(3) 0.2862(3)
N1_12 N 0.1964(4) 0.3036(4) 0.3036(4)
O2_12 O 0.2138(3) 0.3233(4) 0.2862(3)
O3_12 O 0.2138(3) 0.2862(3) 0.3233(4)
O1_13 O 0.2138(3) 0.6767(4) 0.2862(3)
N1_13 N 0.1964(4) 0.6964(4) 0.3036(4)
O2_13 O 0.1767(4) 0.7138(3) 0.2862(3)
O3_13 O 0.2138(3) 0.7138(3) 0.3233(4)
O1_14 O 0.7862(3) 0.3233(4) 0.2862(3)
N1_14 N 0.8036(4) 0.3036(4) 0.3036(4)
O2_14 O 0.8233(4) 0.2862(3) 0.2862(3)
O3_14 O 0.7862(3) 0.2862(3) 0.3233(4)
O1_15 O 0.2138(3) 0.3233(4) 0.7138(3)
N1_15 N 0.1964(4) 0.3036(4) 0.6964(4)
O2_15 O 0.1767(4) 0.2862(3) 0.7138(3)
O3_15 O 0.2138(3) 0.2862(3) 0.6767(4)
O1_16 O 0.7862(3) 0.6767(4) 0.7138(3)
N1_16 N 0.8036(4) 0.6964(4) 0.6964(4)
O2_16 O 0.8233(4) 0.7138(3) 0.7138(3)
O3_16 O 0.7862(3) 0.7138(3) 0.6767(4)
O1_17 O 0.6767(4) 0.2138(3) 0.7138(3)
N1_17 N 0.6964(4) 0.1964(4) 0.6964(4)
O2_17 O 0.7138(3) 0.1767(4) 0.7138(3)
O3_17 O 0.7138(3) 0.2138(3) 0.6767(4)
O1_18 O 0.3233(4) 0.7862(3) 0.7138(3)
N1_18 N 0.3036(4) 0.8036(4) 0.6964(4)
O2_18 O 0.2862(3) 0.8233(4) 0.7138(3)
O3_18 O 0.2862(3) 0.7862(3) 0.6767(4)
O1_19 O 0.3233(4) 0.2138(3) 0.2862(3)
N1_19 N 0.3036(4) 0.1964(4) 0.3036(4)
O2_19 O 0.2862(3) 0.1767(4) 0.2862(3)
O3_19 O 0.2862(3) 0.2138(3) 0.3233(4)
O1_20 O 0.6767(4) 0.7862(3) 0.2862(3)
N1_20 N 0.6964(4) 0.8036(4) 0.3036(4)
O2_20 O 0.7138(3) 0.8233(4) 0.2862(3)
O3_20 O 0.7138(3) 0.7862(3) 0.3233(4)
O1_21 O 0.7138(3) 0.1767(4) 0.2862(3)
N1_21 N 0.6964(4) 0.1964(4) 0.3036(4)
O2_21 O 0.6767(4) 0.2138(3) 0.2862(3)
O3_21 O 0.7138(3) 0.2138(3) 0.3233(4)
O1_22 O 0.2862(3) 0.8233(4) 0.2862(3)
N1_22 N 0.3036(4) 0.8036(4) 0.3036(4)
O2_22 O 0.3233(4) 0.7862(3) 0.2862(3)
O3_22 O 0.2862(3) 0.7862(3) 0.3233(4)
O1_23 O 0.7138(3) 0.8233(4) 0.7138(3)
N1_23 N 0.6964(4) 0.8036(4) 0.6964(4)
O2_23 O 0.6767(4) 0.7862(3) 0.7138(3)
O3_23 O 0.7138(3) 0.7862(3) 0.6767(4)
O1_24 O 0.2862(3) 0.1767(4) 0.7138(3)
N1_24 N 0.3036(4) 0.1964(4) 0.6964(4)
O2_24 O 0.3233(4) 0.2138(3) 0.7138(3)
O3_24 O 0.2862(3) 0.2138(3) 0.6767(4)
O1_25 O 0.6767(4) 0.7138(3) 0.2138(3)
N1_25 N 0.6964(4) 0.6964(4) 0.1964(4)
O2_25 O 0.7138(3) 0.6767(4) 0.2138(3)
O3_25 O 0.7138(3) 0.7138(3) 0.1767(4)
O1_26 O 0.3233(4) 0.2862(3) 0.2138(3)
N1_26 N 0.3036(4) 0.3036(4) 0.1964(4)
O2_26 O 0.2862(3) 0.3233(4) 0.2138(3)
O3_26 O 0.2862(3) 0.2862(3) 0.1767(4)
O1_27 O 0.3233(4) 0.7138(3) 0.7862(3)
N1_27 N 0.3036(4) 0.6964(4) 0.8036(4)
O2_27 O 0.2862(3) 0.6767(4) 0.7862(3)
O3_27 O 0.2862(3) 0.7138(3) 0.8233(4)
O1_28 O 0.6767(4) 0.2862(3) 0.7862(3)
N1_28 N 0.6964(4) 0.3036(4) 0.8036(4)
O2_28 O 0.7138(3) 0.3233(4) 0.7862(3)
O3_28 O 0.7138(3) 0.2862(3) 0.8233(4)
O1_29 O 0.7138(3) 0.6767(4) 0.7862(3)
N1_29 N 0.6964(4) 0.6964(4) 0.8036(4)
O2_29 O 0.6767(4) 0.7138(3) 0.7862(3)
O3_29 O 0.7138(3) 0.7138(3) 0.8233(4)
O1_30 O 0.2862(3) 0.3233(4) 0.7862(3)
N1_30 N 0.3036(4) 0.3036(4) 0.8036(4)
O2_30 O 0.3233(4) 0.2862(3) 0.7862(3)
O3_30 O 0.2862(3) 0.2862(3) 0.8233(4)
O1_31 O 0.7138(3) 0.3233(4) 0.2138(3)
N1_31 N 0.6964(4) 0.3036(4) 0.1964(4)
O2_31 O 0.6767(4) 0.2862(3) 0.2138(3)
O3_31 O 0.7138(3) 0.2862(3) 0.1767(4)
O1_32 O 0.2862(3) 0.6767(4) 0.2138(3)
N1_32 N 0.3036(4) 0.6964(4) 0.1964(4)
O2_32 O 0.3233(4) 0.7138(3) 0.2138(3)
O3_32 O 0.2862(3) 0.7138(3) 0.1767(4)
Zn1 Zn 0.0000 0.5000 0.30468(5)
Zn2 Zn -0.0000 0.5000 0.22745(5)
Zn3 Zn 0.18065(3) 0.31935(3) 0.18065(3)
Zn4 Zn 0.12689(3) 0.37311(3) 0.12689(3)
C1 C 0.04675(16) 0.45325(16) 0.2662(4)
C2 C 0.07395(14) 0.42605(14) 0.2659(3)
C3 C 0.08647(16) 0.41353(16) 0.2339(2)
H1 H 0.0777 0.4223 0.2133
C4 C 0.11215(15) 0.38785(15) 0.2334(2)
C5 C 0.12497(15) 0.37503(15) 0.2646(3)
H2 H 0.1420 0.3580 0.2642
C6 C 0.11290(16) 0.38710(16) 0.2964(3)
C7 C 0.08680(14) 0.41320(14) 0.2950(3)
H3 H 0.0783 0.4217 0.3159
C8 C 0.12552(19) 0.37448(19) 0.2002(3)
C9 C 0.12715(15) 0.37285(15) 0.3287(2)
C10 C 0.1123(2) 0.34265(16) 0.34265(16)
C11 C 0.0812(3) 0.3266(2) 0.3266(2)
O4 O 0.03641(10) 0.46359(10) 0.2955(2)
O5 O 0.0000 0.5000 0.3557(3)
O6 O 0.03590(11) 0.46410(11) 0.2370(2)
O7 O 0.0000 0.5000 0.1710(7)
O8 O 0.14760(15) 0.35240(15) 0.2010(2)
O9 O 0.1619(3) 0.28289(14) 0.21711(14)
O10 O 0.11330(13) 0.38670(13) 0.1724(2)
O11 O 0.0964(2) 0.4036(2) 0.0964(2)
C12 C 0.04675(16) 0.2662(4) 0.45325(16)
C13 C 0.07395(14) 0.2659(3) 0.42605(14)
C14 C 0.08647(16) 0.2339(2) 0.41353(16)
H4 H 0.0777 0.2133 0.4223
C15 C 0.11215(15) 0.2334(2) 0.38785(15)
C16 C 0.12497(15) 0.2646(3) 0.37503(15)
H5 H 0.1420 0.2642 0.3580
C17 C 0.11290(16) 0.2964(3) 0.38710(16)
C18 C 0.08680(14) 0.2950(3) 0.41320(14)
H6 H 0.0783 0.3159 0.4217
C19 C 0.12552(19) 0.2002(3) 0.37448(19)
C20 C 0.12715(15) 0.3287(2) 0.37285(15)
C21 C 0.15735(16) 0.34265(16) 0.3877(2)
C22 C 0.1734(2) 0.3266(2) 0.4188(3)
O12 O 0.03641(10) 0.2955(2) 0.46359(10)
O13 O 0.03590(11) 0.2370(2) 0.46410(11)
O14 O 0.14760(15) 0.2010(2) 0.35240(15)
O15 O 0.11330(13) 0.1724(2) 0.38670(13)
C23 C 0.2338(4) 0.45325(16) 0.45325(16)
C24 C 0.2341(3) 0.42605(14) 0.42605(14)
C25 C 0.2661(2) 0.41353(16) 0.41353(16)
H7 H 0.2867 0.4223 0.4223
C26 C 0.2666(2) 0.38785(15) 0.38785(15)
C27 C 0.2354(3) 0.37503(15) 0.37503(15)
H8 H 0.2358 0.3580 0.3580
C28 C 0.2036(3) 0.38710(16) 0.38710(16)
C29 C 0.2050(3) 0.41320(14) 0.41320(14)
H9 H 0.1841 0.4217 0.4217
C30 C 0.2998(3) 0.37448(19) 0.37448(19)
C31 C 0.1713(2) 0.37285(15) 0.37285(15)
C32 C 0.15735(16) 0.3877(2) 0.34265(16)
C33 C 0.1734(2) 0.4188(3) 0.3266(2)
O16 O 0.2045(2) 0.46359(10) 0.46359(10)
O17 O 0.2630(2) 0.46410(11) 0.46410(11)
O18 O 0.2990(2) 0.35240(15) 0.35240(15)
O19 O 0.3276(2) 0.38670(13) 0.38670(13)
Zn7 Zn -0.0000 0.30468(5) 0.5000
Zn8 Zn -0.0000 0.22745(5) 0.5000
C67 C 0.04675(16) 0.2662(4) 0.54675(16)
C68 C 0.07395(14) 0.2659(3) 0.57395(14)
C69 C 0.08647(16) 0.2339(2) 0.58647(16)
H19 H 0.0777 0.2133 0.5777
C70 C 0.11215(15) 0.2334(2) 0.61215(15)
C71 C 0.12497(15) 0.2646(3) 0.62497(15)
H20 H 0.1420 0.2642 0.6420
C72 C 0.11290(16) 0.2964(3) 0.61290(16)
C73 C 0.08680(14) 0.2950(3) 0.58680(14)
H21 H 0.0783 0.3159 0.5783
C74 C 0.12552(19) 0.2002(3) 0.62552(19)
C75 C 0.12715(15) 0.3287(2) 0.62715(15)
C76 C 0.1123(2) 0.34265(16) 0.65735(16)
C77 C 0.0812(3) 0.3266(2) 0.6734(2)
O34 O 0.03641(10) 0.2955(2) 0.53641(10)
O35 O -0.0000 0.3557(3) 0.5000
O36 O 0.03590(11) 0.2370(2) 0.53590(11)
O37 O 0.0000 0.1710(7) 0.5000
O38 O 0.14760(15) 0.2010(2) 0.64760(15)
O39 O 0.11330(13) 0.1724(2) 0.61330(13)
C78 C 0.04675(16) 0.45325(16) 0.7338(4)
C79 C 0.07395(14) 0.42605(14) 0.7341(3)
C80 C 0.08647(16) 0.41353(16) 0.7661(2)
H22 H 0.0777 0.4223 0.7867
C81 C 0.11215(15) 0.38785(15) 0.7666(2)
C82 C 0.12497(15) 0.37503(15) 0.7354(3)
H23 H 0.1420 0.3580 0.7358
C83 C 0.11290(16) 0.38710(16) 0.7036(3)
C84 C 0.08680(14) 0.41320(14) 0.7050(3)
H24 H 0.0783 0.4217 0.6841
C85 C 0.12552(19) 0.37448(19) 0.7998(3)
C86 C 0.12715(15) 0.37285(15) 0.6713(2)
C87 C 0.15735(16) 0.3877(2) 0.65735(16)
C88 C 0.1734(2) 0.4188(3) 0.6734(2)
O40 O 0.03641(10) 0.46359(10) 0.7045(2)
O41 O 0.03590(11) 0.46410(11) 0.7630(2)
O42 O 0.14760(15) 0.35240(15) 0.7990(2)
O43 O 0.11330(13) 0.38670(13) 0.8276(2)
C89 C 0.2338(4) 0.45325(16) 0.54675(16)
C90 C 0.2341(3) 0.42605(14) 0.57395(14)
C91 C 0.2661(2) 0.41353(16) 0.58647(16)
H25 H 0.2867 0.4223 0.5777
C92 C 0.2666(2) 0.38785(15) 0.61215(15)
C93 C 0.2354(3) 0.37503(15) 0.62497(15)
H26 H 0.2358 0.3580 0.6420
C94 C 0.2036(3) 0.38710(16) 0.61290(16)
C95 C 0.2050(3) 0.41320(14) 0.58680(14)
H27 H 0.1841 0.4217 0.5783
C96 C 0.2998(3) 0.37448(19) 0.62552(19)
C97 C 0.1713(2) 0.37285(15) 0.62715(15)
C98 C 0.15735(16) 0.34265(16) 0.6123(2)
C99 C 0.1734(2) 0.3266(2) 0.5812(3)
O44 O 0.2045(2) 0.46359(10) 0.53641(10)
O45 O 0.2630(2) 0.46410(11) 0.53590(11)
O46 O 0.2990(2) 0.35240(15) 0.64760(15)
O47 O 0.3276(2) 0.38670(13) 0.61330(13)
Zn9 Zn 0.0000 0.69532(5) 0.5000
Zn10 Zn -0.0000 0.77255(5) 0.5000
O60 O 0.0000 0.6443(3) 0.5000
O61 O 0.0000 0.8290(7) 0.5000
Zn11 Zn 0.18065(3) 0.18065(3) 0.31935(3)
Zn12 Zn 0.12689(3) 0.12689(3) 0.37311(3)
O62 O 0.21711(14) 0.21711(14) 0.3381(3)
O63 O 0.0964(2) 0.0964(2) 0.4036(2)
Zn13 Zn 0.31935(3) 0.31935(3) 0.31935(3)
Zn14 Zn 0.37311(3) 0.37311(3) 0.37311(3)
O64 O 0.28289(14) 0.3381(3) 0.28289(14)
O65 O 0.4036(2) 0.4036(2) 0.4036(2)
O66 O 0.21711(14) 0.3381(3) 0.21711(14)
O67 O 0.21711(14) 0.28289(14) 0.1619(3)
O70 O 0.21711(14) 0.1619(3) 0.28289(14)
O71 O 0.1619(3) 0.21711(14) 0.28289(14)
O72 O 0.3381(3) 0.28289(14) 0.28289(14)
O73 O 0.28289(14) 0.28289(14) 0.3381(3)
Zn15 Zn 0.0000 0.5000 0.69532(5)
Zn17 Zn 0.19532(5) 0.5000 0.5000
Zn18 Zn -0.0000 0.5000 0.77255(5)
Zn20 Zn 0.27255(5) 0.5000 0.5000
Zn22 Zn 0.18065(3) 0.18065(3) 0.68065(3)
Zn24 Zn 0.18065(3) 0.31935(3) 0.81935(3)
Zn28 Zn 0.31935(3) 0.31935(3) 0.68065(3)
Zn30 Zn 0.12689(3) 0.12689(3) 0.62689(3)
Zn32 Zn 0.12689(3) 0.37311(3) 0.87311(3)
Zn36 Zn 0.37311(3) 0.37311(3) 0.62689(3)
O75 O 0.03641(10) 0.7045(2) 0.46359(10)
O77 O 0.03641(10) 0.7045(2) 0.53641(10)
O78 O 0.03641(10) 0.53641(10) 0.2955(2)
O80 O 0.03590(11) 0.7630(2) 0.46410(11)
O82 O 0.03590(11) 0.7630(2) 0.53590(11)
O83 O 0.03590(11) 0.53590(11) 0.2370(2)
O84 O 0.2010(2) 0.14760(15) 0.35240(15)
O85 O 0.14760(15) 0.14760(15) 0.2990(2)
O86 O 0.2010(2) 0.35240(15) 0.14760(15)
O88 O 0.35240(15) 0.2990(2) 0.35240(15)
O89 O 0.35240(15) 0.35240(15) 0.2990(2)
O91 O 0.14760(15) 0.2990(2) 0.14760(15)
O92 O 0.1724(2) 0.11330(13) 0.38670(13)
O93 O 0.11330(13) 0.11330(13) 0.3276(2)
O94 O 0.1724(2) 0.38670(13) 0.11330(13)
O96 O 0.38670(13) 0.3276(2) 0.38670(13)
O97 O 0.38670(13) 0.38670(13) 0.3276(2)
O99 O 0.11330(13) 0.3276(2) 0.11330(13)
H68 H 0.087051 0.319329 0.299969
H69 H 0.0738667 0.303612 0.341232
H70 H 0.0598885 0.345095 0.326835
H77 H 0.154905 0.440112 0.326835
H78 H 0.196388 0.426133 0.341232
H79 H 0.180671 0.412949 0.299969
H80 H 0.180671 0.299969 0.412949
H81 H 0.196388 0.341232 0.426133
H82 H 0.154905 0.326835 0.440112
H95 H 0.180671 0.412949 0.700031
H96 H 0.196388 0.426133 0.658768
H97 H 0.154905 0.440112 0.673165
H98 H 0.087051 0.299969 0.680671
H99 H 0.0738667 0.341232 0.696388
H100 H 0.0598885 0.326835 0.654905
H108 H 0.154905 0.326835 0.559888
H109 H 0.196388 0.341232 0.573867
H110 H 0.180671 0.299969 0.587051
Zn1_2 Zn 1.0000 0.5000 0.30468(5)
Zn2_2 Zn 1.0000 0.5000 0.22745(5)
O5_2 O 1.0000 0.5000 0.3557(3)
O7_2 O 1.0000 0.5000 0.1710(7)
Zn5 Zn 0.81935(3) 0.68065(3) 0.18065(3)
Zn6 Zn 0.87311(3) 0.62689(3) 0.12689(3)
C34 C 0.95325(16) 0.54675(16) 0.2662(4)
C35 C 0.92605(14) 0.57395(14) 0.2659(3)
C36 C 0.91353(16) 0.58647(16) 0.2339(2)
H10 H 0.9223 0.5777 0.2133
C37 C 0.88785(15) 0.61215(15) 0.2334(2)
C38 C 0.87503(15) 0.62497(15) 0.2646(3)
H11 H 0.8580 0.6420 0.2642
C39 C 0.88710(16) 0.61290(16) 0.2964(3)
C40 C 0.91320(14) 0.58680(14) 0.2950(3)
H12 H 0.9217 0.5783 0.3159
C41 C 0.87448(19) 0.62552(19) 0.2002(3)
C42 C 0.87285(15) 0.62715(15) 0.3287(2)
C43 C 0.8877(2) 0.65735(16) 0.34265(16)
C44 C 0.9188(3) 0.6734(2) 0.3266(2)
O20 O 0.96359(10) 0.53641(10) 0.2955(2)
O21 O 0.96410(11) 0.53590(11) 0.2370(2)
O22 O 0.85240(15) 0.64760(15) 0.2010(2)
O23 O 0.8381(3) 0.71711(14) 0.21711(14)
O24 O 0.88670(13) 0.61330(13) 0.1724(2)
O25 O 0.9036(2) 0.5964(2) 0.0964(2)
C45 C 0.95325(16) 0.7338(4) 0.45325(16)
C46 C 0.92605(14) 0.7341(3) 0.42605(14)
C47 C 0.91353(16) 0.7661(2) 0.41353(16)
H13 H 0.9223 0.7867 0.4223
C48 C 0.88785(15) 0.7666(2) 0.38785(15)
C49 C 0.87503(15) 0.7354(3) 0.37503(15)
H14 H 0.8580 0.7358 0.3580
C50 C 0.88710(16) 0.7036(3) 0.38710(16)
C51 C 0.91320(14) 0.7050(3) 0.41320(14)
H15 H 0.9217 0.6841 0.4217
C52 C 0.87448(19) 0.7998(3) 0.37448(19)
C53 C 0.87285(15) 0.6713(2) 0.37285(15)
C54 C 0.84265(16) 0.65735(16) 0.3877(2)
C55 C 0.8266(2) 0.6734(2) 0.4188(3)
O26 O 0.96359(10) 0.7045(2) 0.46359(10)
O27 O 0.96410(11) 0.7630(2) 0.46410(11)
O28 O 0.85240(15) 0.7990(2) 0.35240(15)
O29 O 0.88670(13) 0.8276(2) 0.38670(13)
C56 C 0.7662(4) 0.54675(16) 0.45325(16)
C57 C 0.7659(3) 0.57395(14) 0.42605(14)
C58 C 0.7339(2) 0.58647(16) 0.41353(16)
H16 H 0.7133 0.5777 0.4223
C59 C 0.7334(2) 0.61215(15) 0.38785(15)
C60 C 0.7646(3) 0.62497(15) 0.37503(15)
H17 H 0.7642 0.6420 0.3580
C61 C 0.7964(3) 0.61290(16) 0.38710(16)
C62 C 0.7950(3) 0.58680(14) 0.41320(14)
H18 H 0.8159 0.5783 0.4217
C63 C 0.7002(3) 0.62552(19) 0.37448(19)
C64 C 0.8287(2) 0.62715(15) 0.37285(15)
C65 C 0.84265(16) 0.6123(2) 0.34265(16)
C66 C 0.8266(2) 0.5812(3) 0.3266(2)
O30 O 0.7955(2) 0.53641(10) 0.46359(10)
O31 O 0.7370(2) 0.53590(11) 0.46410(11)
O32 O 0.7010(2) 0.64760(15) 0.35240(15)
O33 O 0.6724(2) 0.61330(13) 0.38670(13)
Zn7_2 Zn 1.0000 0.30468(5) 0.5000
Zn8_2 Zn 1.0000 0.22745(5) 0.5000
O35_2 O 1.0000 0.3557(3) 0.5000
O37_2 O 1.0000 0.1710(7) 0.5000
C100 C 0.95325(16) 0.2662(4) 0.45325(16)
C101 C 0.92605(14) 0.2659(3) 0.42605(14)
C102 C 0.91353(16) 0.2339(2) 0.41353(16)
H28 H 0.9223 0.2133 0.4223
C103 C 0.88785(15) 0.2334(2) 0.38785(15)
C104 C 0.87503(15) 0.2646(3) 0.37503(15)
H29 H 0.8580 0.2642 0.3580
C105 C 0.88710(16) 0.2964(3) 0.38710(16)
C106 C 0.91320(14) 0.2950(3) 0.41320(14)
H30 H 0.9217 0.3159 0.4217
C107 C 0.87448(19) 0.2002(3) 0.37448(19)
C108 C 0.87285(15) 0.3287(2) 0.37285(15)
C109 C 0.8877(2) 0.34265(16) 0.34265(16)
C110 C 0.9188(3) 0.3266(2) 0.3266(2)
O48 O 0.96359(10) 0.2955(2) 0.46359(10)
O49 O 0.96410(11) 0.2370(2) 0.46410(11)
O50 O 0.85240(15) 0.2010(2) 0.35240(15)
O51 O 0.88670(13) 0.1724(2) 0.38670(13)
C111 C 0.95325(16) 0.45325(16) 0.2662(4)
C112 C 0.92605(14) 0.42605(14) 0.2659(3)
C113 C 0.91353(16) 0.41353(16) 0.2339(2)
H31 H 0.9223 0.4223 0.2133
C114 C 0.88785(15) 0.38785(15) 0.2334(2)
C115 C 0.87503(15) 0.37503(15) 0.2646(3)
H32 H 0.8580 0.3580 0.2642
C116 C 0.88710(16) 0.38710(16) 0.2964(3)
C117 C 0.91320(14) 0.41320(14) 0.2950(3)
H33 H 0.9217 0.4217 0.3159
C118 C 0.87448(19) 0.37448(19) 0.2002(3)
C119 C 0.87285(15) 0.37285(15) 0.3287(2)
C120 C 0.84265(16) 0.3877(2) 0.34265(16)
C121 C 0.8266(2) 0.4188(3) 0.3266(2)
O52 O 0.96359(10) 0.46359(10) 0.2955(2)
O53 O 0.96410(11) 0.46410(11) 0.2370(2)
O54 O 0.85240(15) 0.35240(15) 0.2010(2)
O55 O 0.88670(13) 0.38670(13) 0.1724(2)
C122 C 0.7662(4) 0.45325(16) 0.45325(16)
C123 C 0.7659(3) 0.42605(14) 0.42605(14)
C124 C 0.7339(2) 0.41353(16) 0.41353(16)
H34 H 0.7133 0.4223 0.4223
C125 C 0.7334(2) 0.38785(15) 0.38785(15)
C126 C 0.7646(3) 0.37503(15) 0.37503(15)
H35 H 0.7642 0.3580 0.3580
C127 C 0.7964(3) 0.38710(16) 0.38710(16)
C128 C 0.7950(3) 0.41320(14) 0.41320(14)
H36 H 0.8159 0.4217 0.4217
C129 C 0.7002(3) 0.37448(19) 0.37448(19)
C130 C 0.8287(2) 0.37285(15) 0.37285(15)
C131 C 0.84265(16) 0.34265(16) 0.3877(2)
C132 C 0.8266(2) 0.3266(2) 0.4188(3)
O56 O 0.7955(2) 0.46359(10) 0.46359(10)
O57 O 0.7370(2) 0.46410(11) 0.46410(11)
O58 O 0.7010(2) 0.35240(15) 0.35240(15)
O59 O 0.6724(2) 0.38670(13) 0.38670(13)
Zn9_2 Zn 1.0000 0.69532(5) 0.5000
Zn10_2 Zn 1.0000 0.77255(5) 0.5000
O60_2 O 1.0000 0.6443(3) 0.5000
O61_2 O 1.0000 0.8290(7) 0.5000
O68 O 0.78289(14) 0.71711(14) 0.1619(3)
O69 O 0.78289(14) 0.6619(3) 0.21711(14)
Zn15_2 Zn 1.0000 0.5000 0.69532(5)
Zn16 Zn 0.80468(5) 0.5000 0.5000
Zn18_2 Zn 1.0000 0.5000 0.77255(5)
Zn19 Zn 0.72745(5) 0.5000 0.5000
Zn21 Zn 0.81935(3) 0.81935(3) 0.31935(3)
Zn23 Zn 0.81935(3) 0.18065(3) 0.31935(3)
Zn25 Zn 0.81935(3) 0.31935(3) 0.18065(3)
Zn26 Zn 0.68065(3) 0.68065(3) 0.31935(3)
Zn27 Zn 0.68065(3) 0.31935(3) 0.31935(3)
Zn29 Zn 0.87311(3) 0.87311(3) 0.37311(3)
Zn31 Zn 0.87311(3) 0.12689(3) 0.37311(3)
Zn33 Zn 0.87311(3) 0.37311(3) 0.12689(3)
Zn34 Zn 0.62689(3) 0.62689(3) 0.37311(3)
Zn35 Zn 0.62689(3) 0.37311(3) 0.37311(3)
O74 O 0.96359(10) 0.7045(2) 0.53641(10)
O76 O 0.96359(10) 0.2955(2) 0.53641(10)
O79 O 0.96410(11) 0.7630(2) 0.53590(11)
O81 O 0.96410(11) 0.2370(2) 0.53590(11)
O87 O 0.7990(2) 0.64760(15) 0.14760(15)
O90 O 0.85240(15) 0.7010(2) 0.14760(15)
O95 O 0.8276(2) 0.61330(13) 0.11330(13)
O98 O 0.88670(13) 0.6724(2) 0.11330(13)
H47 H 0.845095 0.326835 0.440112
H48 H 0.803612 0.341232 0.426133
H49 H 0.819329 0.299969 0.412949
H89 H 0.912949 0.680671 0.299969
H90 H 0.926133 0.696388 0.341232
H91 H 0.940112 0.654905 0.326835
H92 H 0.819329 0.700031 0.412949
H93 H 0.803612 0.658768 0.426133
H94 H 0.845095 0.673165 0.440112
H105 H 0.845095 0.559888 0.326835
H106 H 0.803612 0.573867 0.341232
H107 H 0.819329 0.587051 0.299969
H111 H 0.819329 0.412949 0.299969
H112 H 0.803612 0.426133 0.341232
H113 H 0.845095 0.440112 0.326835
H114 H 0.912949 0.299969 0.319329
H115 H 0.926133 0.341232 0.303612
H116 H 0.940112 0.326835 0.345095
C100_2 C 0.04675(16) 0.7338(4) 0.45325(16)
C101_2 C 0.07395(14) 0.7341(3) 0.42605(14)
C102_2 C 0.08647(16) 0.7661(2) 0.41353(16)
H28_2 H 0.0777 0.7867 0.4223
C103_2 C 0.11215(15) 0.7666(2) 0.38785(15)
C104_2 C 0.12497(15) 0.7354(3) 0.37503(15)
H29_2 H 0.1420 0.7358 0.3580
C105_2 C 0.11290(16) 0.7036(3) 0.38710(16)
C106_2 C 0.08680(14) 0.7050(3) 0.41320(14)
H30_2 H 0.0783 0.6841 0.4217
C107_2 C 0.12552(19) 0.7998(3) 0.37448(19)
C108_2 C 0.12715(15) 0.6713(2) 0.37285(15)
C109_2 C 0.1123(2) 0.65735(16) 0.34265(16)
C110_2 C 0.0812(3) 0.6734(2) 0.3266(2)
O50_2 O 0.14760(15) 0.7990(2) 0.35240(15)
O51_2 O 0.11330(13) 0.8276(2) 0.38670(13)
C111_2 C 0.04675(16) 0.54675(16) 0.2662(4)
C112_2 C 0.07395(14) 0.57395(14) 0.2659(3)
C113_2 C 0.08647(16) 0.58647(16) 0.2339(2)
H31_2 H 0.0777 0.5777 0.2133
C114_2 C 0.11215(15) 0.61215(15) 0.2334(2)
C115_2 C 0.12497(15) 0.62497(15) 0.2646(3)
H32_2 H 0.1420 0.6420 0.2642
C116_2 C 0.11290(16) 0.61290(16) 0.2964(3)
C117_2 C 0.08680(14) 0.58680(14) 0.2950(3)
H33_2 H 0.0783 0.5783 0.3159
C118_2 C 0.12552(19) 0.62552(19) 0.2002(3)
C119_2 C 0.12715(15) 0.62715(15) 0.3287(2)
C120_2 C 0.15735(16) 0.6123(2) 0.34265(16)
C121_2 C 0.1734(2) 0.5812(3) 0.3266(2)
O54_2 O 0.14760(15) 0.64760(15) 0.2010(2)
O55_2 O 0.11330(13) 0.61330(13) 0.1724(2)
C122_2 C 0.2338(4) 0.54675(16) 0.45325(16)
C123_2 C 0.2341(3) 0.57395(14) 0.42605(14)
C124_2 C 0.2661(2) 0.58647(16) 0.41353(16)
H34_2 H 0.2867 0.5777 0.4223
C125_2 C 0.2666(2) 0.61215(15) 0.38785(15)
C126_2 C 0.2354(3) 0.62497(15) 0.37503(15)
H35_2 H 0.2358 0.6420 0.3580
C127_2 C 0.2036(3) 0.61290(16) 0.38710(16)
C128_2 C 0.2050(3) 0.58680(14) 0.41320(14)
H36_2 H 0.1841 0.5783 0.4217
C129_2 C 0.2998(3) 0.62552(19) 0.37448(19)
C130_2 C 0.1713(2) 0.62715(15) 0.37285(15)
C131_2 C 0.15735(16) 0.65735(16) 0.3877(2)
C132_2 C 0.1734(2) 0.6734(2) 0.4188(3)
O56_2 O 0.2045(2) 0.53641(10) 0.46359(10)
O57_2 O 0.2630(2) 0.53590(11) 0.46410(11)
O58_2 O 0.2990(2) 0.64760(15) 0.35240(15)
O59_2 O 0.3276(2) 0.61330(13) 0.38670(13)
Zn23_2 Zn 0.18065(3) 0.81935(3) 0.31935(3)
Zn25_2 Zn 0.18065(3) 0.68065(3) 0.18065(3)
Zn27_2 Zn 0.31935(3) 0.68065(3) 0.31935(3)
Zn31_2 Zn 0.12689(3) 0.87311(3) 0.37311(3)
Zn33_2 Zn 0.12689(3) 0.62689(3) 0.12689(3)
Zn35_2 Zn 0.37311(3) 0.62689(3) 0.37311(3)
H47_2 H 0.154905 0.673165 0.440112
H48_2 H 0.196388 0.658768 0.426133
H49_2 H 0.180671 0.700031 0.412949
H111_2 H 0.180671 0.587051 0.299969
H112_2 H 0.196388 0.573867 0.341232
H113_2 H 0.154905 0.559888 0.326835
H114_2 H 0.087051 0.700031 0.319329
H115_2 H 0.0738667 0.658768 0.303612
H116_2 H 0.0598885 0.673165 0.345095
C67_2 C 0.95325(16) 0.7338(4) 0.54675(16)
C68_2 C 0.92605(14) 0.7341(3) 0.57395(14)
C69_2 C 0.91353(16) 0.7661(2) 0.58647(16)
H19_2 H 0.9223 0.7867 0.5777
C70_2 C 0.88785(15) 0.7666(2) 0.61215(15)
C71_2 C 0.87503(15) 0.7354(3) 0.62497(15)
H20_2 H 0.8580 0.7358 0.6420
C72_2 C 0.88710(16) 0.7036(3) 0.61290(16)
C73_2 C 0.91320(14) 0.7050(3) 0.58680(14)
H21_2 H 0.9217 0.6841 0.5783
C74_2 C 0.87448(19) 0.7998(3) 0.62552(19)
C75_2 C 0.87285(15) 0.6713(2) 0.62715(15)
C76_2 C 0.8877(2) 0.65735(16) 0.65735(16)
C77_2 C 0.9188(3) 0.6734(2) 0.6734(2)
O38_2 O 0.85240(15) 0.7990(2) 0.64760(15)
O39_2 O 0.88670(13) 0.8276(2) 0.61330(13)
C78_2 C 0.95325(16) 0.54675(16) 0.7338(4)
C79_2 C 0.92605(14) 0.57395(14) 0.7341(3)
C80_2 C 0.91353(16) 0.58647(16) 0.7661(2)
H22_2 H 0.9223 0.5777 0.7867
C81_2 C 0.88785(15) 0.61215(15) 0.7666(2)
C82_2 C 0.87503(15) 0.62497(15) 0.7354(3)
H23_2 H 0.8580 0.6420 0.7358
C83_2 C 0.88710(16) 0.61290(16) 0.7036(3)
C84_2 C 0.91320(14) 0.58680(14) 0.7050(3)
H24_2 H 0.9217 0.5783 0.6841
C85_2 C 0.87448(19) 0.62552(19) 0.7998(3)
C86_2 C 0.87285(15) 0.62715(15) 0.6713(2)
C87_2 C 0.84265(16) 0.6123(2) 0.65735(16)
C88_2 C 0.8266(2) 0.5812(3) 0.6734(2)
O40_2 O 0.96359(10) 0.53641(10) 0.7045(2)
O41_2 O 0.96410(11) 0.53590(11) 0.7630(2)
O42_2 O 0.85240(15) 0.64760(15) 0.7990(2)
O43_2 O 0.88670(13) 0.61330(13) 0.8276(2)
C89_2 C 0.7662(4) 0.54675(16) 0.54675(16)
C90_2 C 0.7659(3) 0.57395(14) 0.57395(14)
C91_2 C 0.7339(2) 0.58647(16) 0.58647(16)
H25_2 H 0.7133 0.5777 0.5777
C92_2 C 0.7334(2) 0.61215(15) 0.61215(15)
C93_2 C 0.7646(3) 0.62497(15) 0.62497(15)
H26_2 H 0.7642 0.6420 0.6420
C94_2 C 0.7964(3) 0.61290(16) 0.61290(16)
C95_2 C 0.7950(3) 0.58680(14) 0.58680(14)
H27_2 H 0.8159 0.5783 0.5783
C96_2 C 0.7002(3) 0.62552(19) 0.62552(19)
C97_2 C 0.8287(2) 0.62715(15) 0.62715(15)
C98_2 C 0.84265(16) 0.65735(16) 0.6123(2)
C99_2 C 0.8266(2) 0.6734(2) 0.5812(3)
O44_2 O 0.7955(2) 0.53641(10) 0.53641(10)
O45_2 O 0.7370(2) 0.53590(11) 0.53590(11)
O46_2 O 0.7010(2) 0.64760(15) 0.64760(15)
O47_2 O 0.6724(2) 0.61330(13) 0.61330(13)
O62_2 O 0.78289(14) 0.78289(14) 0.3381(3)
O63_2 O 0.9036(2) 0.9036(2) 0.4036(2)
O64_2 O 0.71711(14) 0.6619(3) 0.28289(14)
O65_2 O 0.5964(2) 0.5964(2) 0.4036(2)
O70_2 O 0.78289(14) 0.8381(3) 0.28289(14)
O71_2 O 0.8381(3) 0.78289(14) 0.28289(14)
O72_2 O 0.6619(3) 0.71711(14) 0.28289(14)
O73_2 O 0.71711(14) 0.71711(14) 0.3381(3)
Zn22_2 Zn 0.81935(3) 0.81935(3) 0.68065(3)
Zn24_2 Zn 0.81935(3) 0.68065(3) 0.81935(3)
Zn28_2 Zn 0.68065(3) 0.68065(3) 0.68065(3)
Zn30_2 Zn 0.87311(3) 0.87311(3) 0.62689(3)
Zn32_2 Zn 0.87311(3) 0.62689(3) 0.87311(3)
Zn36_2 Zn 0.62689(3) 0.62689(3) 0.62689(3)
O84_2 O 0.7990(2) 0.85240(15) 0.35240(15)
O85_2 O 0.85240(15) 0.85240(15) 0.2990(2)
O88_2 O 0.64760(15) 0.7010(2) 0.35240(15)
O89_2 O 0.64760(15) 0.64760(15) 0.2990(2)
O92_2 O 0.8276(2) 0.88670(13) 0.38670(13)
O93_2 O 0.88670(13) 0.88670(13) 0.3276(2)
O96_2 O 0.61330(13) 0.6724(2) 0.38670(13)
O97_2 O 0.61330(13) 0.61330(13) 0.3276(2)
H95_2 H 0.819329 0.587051 0.700031
H96_2 H 0.803612 0.573867 0.658768
H97_2 H 0.845095 0.559888 0.673165
H98_2 H 0.912949 0.700031 0.680671
H99_2 H 0.926133 0.658768 0.696388
H100_2 H 0.940112 0.673165 0.654905
H108_2 H 0.845095 0.673165 0.559888
H109_2 H 0.803612 0.658768 0.573867
H110_2 H 0.819329 0.700031 0.587051
O5_3 O 0.0000 0.5000 0.6443(3)
O7_3 O 0.0000 0.5000 0.8290(7)
Zn5_2 Zn 0.18065(3) 0.68065(3) 0.81935(3)
Zn6_2 Zn 0.12689(3) 0.62689(3) 0.87311(3)
C34_2 C 0.04675(16) 0.54675(16) 0.7338(4)
C35_2 C 0.07395(14) 0.57395(14) 0.7341(3)
C36_2 C 0.08647(16) 0.58647(16) 0.7661(2)
H10_2 H 0.0777 0.5777 0.7867
C37_2 C 0.11215(15) 0.61215(15) 0.7666(2)
C38_2 C 0.12497(15) 0.62497(15) 0.7354(3)
H11_2 H 0.1420 0.6420 0.7358
C39_2 C 0.11290(16) 0.61290(16) 0.7036(3)
C40_2 C 0.08680(14) 0.58680(14) 0.7050(3)
H12_2 H 0.0783 0.5783 0.6841
C41_2 C 0.12552(19) 0.62552(19) 0.7998(3)
C42_2 C 0.12715(15) 0.62715(15) 0.6713(2)
C43_2 C 0.1123(2) 0.65735(16) 0.65735(16)
C44_2 C 0.0812(3) 0.6734(2) 0.6734(2)
O20_2 O 0.03641(10) 0.53641(10) 0.7045(2)
O21_2 O 0.03590(11) 0.53590(11) 0.7630(2)
O22_2 O 0.14760(15) 0.64760(15) 0.7990(2)
O23_2 O 0.1619(3) 0.71711(14) 0.78289(14)
O24_2 O 0.11330(13) 0.61330(13) 0.8276(2)
O25_2 O 0.0964(2) 0.5964(2) 0.9036(2)
C45_2 C 0.04675(16) 0.7338(4) 0.54675(16)
C46_2 C 0.07395(14) 0.7341(3) 0.57395(14)
C47_2 C 0.08647(16) 0.7661(2) 0.58647(16)
H13_2 H 0.0777 0.7867 0.5777
C48_2 C 0.11215(15) 0.7666(2) 0.61215(15)
C49_2 C 0.12497(15) 0.7354(3) 0.62497(15)
H14_2 H 0.1420 0.7358 0.6420
C50_2 C 0.11290(16) 0.7036(3) 0.61290(16)
C51_2 C 0.08680(14) 0.7050(3) 0.58680(14)
H15_2 H 0.0783 0.6841 0.5783
C52_2 C 0.12552(19) 0.7998(3) 0.62552(19)
C53_2 C 0.12715(15) 0.6713(2) 0.62715(15)
C54_2 C 0.15735(16) 0.65735(16) 0.6123(2)
C55_2 C 0.1734(2) 0.6734(2) 0.5812(3)
O28_2 O 0.14760(15) 0.7990(2) 0.64760(15)
O29_2 O 0.11330(13) 0.8276(2) 0.61330(13)
C56_2 C 0.2338(4) 0.54675(16) 0.54675(16)
C57_2 C 0.2341(3) 0.57395(14) 0.57395(14)
C58_2 C 0.2661(2) 0.58647(16) 0.58647(16)
H16_2 H 0.2867 0.5777 0.5777
C59_2 C 0.2666(2) 0.61215(15) 0.61215(15)
C60_2 C 0.2354(3) 0.62497(15) 0.62497(15)
H17_2 H 0.2358 0.6420 0.6420
C61_2 C 0.2036(3) 0.61290(16) 0.61290(16)
C62_2 C 0.2050(3) 0.58680(14) 0.58680(14)
H18_2 H 0.1841 0.5783 0.5783
C63_2 C 0.2998(3) 0.62552(19) 0.62552(19)
C64_2 C 0.1713(2) 0.62715(15) 0.62715(15)
C65_2 C 0.15735(16) 0.6123(2) 0.65735(16)
C66_2 C 0.1734(2) 0.5812(3) 0.6734(2)
O30_2 O 0.2045(2) 0.53641(10) 0.53641(10)
O31_2 O 0.2630(2) 0.53590(11) 0.53590(11)
O32_2 O 0.2990(2) 0.64760(15) 0.64760(15)
O33_2 O 0.3276(2) 0.61330(13) 0.61330(13)
O68_2 O 0.21711(14) 0.71711(14) 0.8381(3)
O69_2 O 0.21711(14) 0.6619(3) 0.78289(14)
Zn21_2 Zn 0.18065(3) 0.81935(3) 0.68065(3)
Zn26_2 Zn 0.31935(3) 0.68065(3) 0.68065(3)
Zn29_2 Zn 0.12689(3) 0.87311(3) 0.62689(3)
Zn34_2 Zn 0.37311(3) 0.62689(3) 0.62689(3)
O87_2 O 0.2010(2) 0.64760(15) 0.85240(15)
O90_2 O 0.14760(15) 0.7010(2) 0.85240(15)
O95_2 O 0.1724(2) 0.61330(13) 0.88670(13)
O98_2 O 0.11330(13) 0.6724(2) 0.88670(13)
H89_2 H 0.087051 0.680671 0.700031
H90_2 H 0.0738667 0.696388 0.658768
H91_2 H 0.0598885 0.654905 0.673165
H92_2 H 0.180671 0.700031 0.587051
H93_2 H 0.196388 0.658768 0.573867
H94_2 H 0.154905 0.673165 0.559888
H105_2 H 0.154905 0.559888 0.673165
H106_2 H 0.196388 0.573867 0.658768
H107_2 H 0.180671 0.587051 0.700031
Zn3_2 Zn 0.81935(3) 0.31935(3) 0.81935(3)
Zn4_2 Zn 0.87311(3) 0.37311(3) 0.87311(3)
C1_2 C 0.95325(16) 0.45325(16) 0.7338(4)
C2_2 C 0.92605(14) 0.42605(14) 0.7341(3)
C3_2 C 0.91353(16) 0.41353(16) 0.7661(2)
H1_2 H 0.9223 0.4223 0.7867
C4_2 C 0.88785(15) 0.38785(15) 0.7666(2)
C5_2 C 0.87503(15) 0.37503(15) 0.7354(3)
H2_2 H 0.8580 0.3580 0.7358
C6_2 C 0.88710(16) 0.38710(16) 0.7036(3)
C7_2 C 0.91320(14) 0.41320(14) 0.7050(3)
H3_2 H 0.9217 0.4217 0.6841
C8_2 C 0.87448(19) 0.37448(19) 0.7998(3)
C9_2 C 0.87285(15) 0.37285(15) 0.6713(2)
C10_2 C 0.8877(2) 0.34265(16) 0.65735(16)
C11_2 C 0.9188(3) 0.3266(2) 0.6734(2)
O4_2 O 0.96359(10) 0.46359(10) 0.7045(2)
O5_4 O 1.0000 0.5000 0.6443(3)
O6_2 O 0.96410(11) 0.46410(11) 0.7630(2)
O7_4 O 1.0000 0.5000 0.8290(7)
O8_2 O 0.85240(15) 0.35240(15) 0.7990(2)
O9_2 O 0.8381(3) 0.28289(14) 0.78289(14)
O10_2 O 0.88670(13) 0.38670(13) 0.8276(2)
O11_2 O 0.9036(2) 0.4036(2) 0.9036(2)
C12_2 C 0.95325(16) 0.2662(4) 0.54675(16)
C13_2 C 0.92605(14) 0.2659(3) 0.57395(14)
C14_2 C 0.91353(16) 0.2339(2) 0.58647(16)
H4_2 H 0.9223 0.2133 0.5777
C15_2 C 0.88785(15) 0.2334(2) 0.61215(15)
C16_2 C 0.87503(15) 0.2646(3) 0.62497(15)
H5_2 H 0.8580 0.2642 0.6420
C17_2 C 0.88710(16) 0.2964(3) 0.61290(16)
C18_2 C 0.91320(14) 0.2950(3) 0.58680(14)
H6_2 H 0.9217 0.3159 0.5783
C19_2 C 0.87448(19) 0.2002(3) 0.62552(19)
C20_2 C 0.87285(15) 0.3287(2) 0.62715(15)
C21_2 C 0.84265(16) 0.34265(16) 0.6123(2)
C22_2 C 0.8266(2) 0.3266(2) 0.5812(3)
O14_2 O 0.85240(15) 0.2010(2) 0.64760(15)
O15_2 O 0.88670(13) 0.1724(2) 0.61330(13)
C23_2 C 0.7662(4) 0.45325(16) 0.54675(16)
C24_2 C 0.7659(3) 0.42605(14) 0.57395(14)
C25_2 C 0.7339(2) 0.41353(16) 0.58647(16)
H7_2 H 0.7133 0.4223 0.5777
C26_2 C 0.7334(2) 0.38785(15) 0.61215(15)
C27_2 C 0.7646(3) 0.37503(15) 0.62497(15)
H8_2 H 0.7642 0.3580 0.6420
C28_2 C 0.7964(3) 0.38710(16) 0.61290(16)
C29_2 C 0.7950(3) 0.41320(14) 0.58680(14)
H9_2 H 0.8159 0.4217 0.5783
C30_2 C 0.7002(3) 0.37448(19) 0.62552(19)
C31_2 C 0.8287(2) 0.37285(15) 0.62715(15)
C32_2 C 0.84265(16) 0.3877(2) 0.65735(16)
C33_2 C 0.8266(2) 0.4188(3) 0.6734(2)
O16_2 O 0.7955(2) 0.46359(10) 0.53641(10)
O17_2 O 0.7370(2) 0.46410(11) 0.53590(11)
O18_2 O 0.7010(2) 0.35240(15) 0.64760(15)
O19_2 O 0.6724(2) 0.38670(13) 0.61330(13)
Zn11_2 Zn 0.81935(3) 0.18065(3) 0.68065(3)
Zn12_2 Zn 0.87311(3) 0.12689(3) 0.62689(3)
O62_3 O 0.78289(14) 0.21711(14) 0.6619(3)
O63_3 O 0.9036(2) 0.0964(2) 0.5964(2)
Zn13_2 Zn 0.68065(3) 0.31935(3) 0.68065(3)
Zn14_2 Zn 0.62689(3) 0.37311(3) 0.62689(3)
O64_3 O 0.71711(14) 0.3381(3) 0.71711(14)
O65_3 O 0.5964(2) 0.4036(2) 0.5964(2)
O66_2 O 0.78289(14) 0.3381(3) 0.78289(14)
O67_2 O 0.78289(14) 0.28289(14) 0.8381(3)
O70_3 O 0.78289(14) 0.1619(3) 0.71711(14)
O71_3 O 0.8381(3) 0.21711(14) 0.71711(14)
O72_3 O 0.6619(3) 0.28289(14) 0.71711(14)
O73_3 O 0.71711(14) 0.28289(14) 0.6619(3)
O84_3 O 0.7990(2) 0.14760(15) 0.64760(15)
O85_3 O 0.85240(15) 0.14760(15) 0.7010(2)
O86_2 O 0.7990(2) 0.35240(15) 0.85240(15)
O88_3 O 0.64760(15) 0.2990(2) 0.64760(15)
O89_3 O 0.64760(15) 0.35240(15) 0.7010(2)
O91_2 O 0.85240(15) 0.2990(2) 0.85240(15)
O92_3 O 0.8276(2) 0.11330(13) 0.61330(13)
O93_3 O 0.88670(13) 0.11330(13) 0.6724(2)
O94_2 O 0.8276(2) 0.38670(13) 0.88670(13)
O96_3 O 0.61330(13) 0.3276(2) 0.61330(13)
O97_3 O 0.61330(13) 0.38670(13) 0.6724(2)
O99_2 O 0.88670(13) 0.3276(2) 0.88670(13)
H68_2 H 0.912949 0.319329 0.700031
H69_2 H 0.926133 0.303612 0.658768
H70_2 H 0.940112 0.345095 0.673165
H77_2 H 0.845095 0.440112 0.673165
H78_2 H 0.803612 0.426133 0.658768
H79_2 H 0.819329 0.412949 0.700031
H80_2 H 0.819329 0.299969 0.587051
H81_2 H 0.803612 0.341232 0.573867
H82_2 H 0.845095 0.326835 0.559888
O62_4 O 0.21711(14) 0.78289(14) 0.6619(3)
O63_4 O 0.0964(2) 0.9036(2) 0.5964(2)
O64_4 O 0.28289(14) 0.6619(3) 0.71711(14)
O65_4 O 0.4036(2) 0.5964(2) 0.5964(2)
O70_4 O 0.21711(14) 0.8381(3) 0.71711(14)
O71_4 O 0.1619(3) 0.78289(14) 0.71711(14)
O72_4 O 0.3381(3) 0.71711(14) 0.71711(14)
O73_4 O 0.28289(14) 0.71711(14) 0.6619(3)
O84_4 O 0.2010(2) 0.85240(15) 0.64760(15)
O85_4 O 0.14760(15) 0.85240(15) 0.7010(2)
O88_4 O 0.35240(15) 0.7010(2) 0.64760(15)
O89_4 O 0.35240(15) 0.64760(15) 0.7010(2)
O92_4 O 0.1724(2) 0.88670(13) 0.61330(13)
O93_4 O 0.11330(13) 0.88670(13) 0.6724(2)
O96_4 O 0.38670(13) 0.6724(2) 0.61330(13)
O97_4 O 0.38670(13) 0.61330(13) 0.6724(2)
Zn1_3 Zn 0.30468(5) 0.0000 0.5000
Zn2_3 Zn 0.22745(5) -0.0000 0.5000
C1_3 C 0.2662(4) 0.04675(16) 0.45325(16)
C2_3 C 0.2659(3) 0.07395(14) 0.42605(14)
C3_3 C 0.2339(2) 0.08647(16) 0.41353(16)
H1_3 H 0.2133 0.0777 0.4223
C4_3 C 0.2334(2) 0.11215(15) 0.38785(15)
C5_3 C 0.2646(3) 0.12497(15) 0.37503(15)
H2_3 H 0.2642 0.1420 0.3580
C6_3 C 0.2964(3) 0.11290(16) 0.38710(16)
C7_3 C 0.2950(3) 0.08680(14) 0.41320(14)
H3_3 H 0.3159 0.0783 0.4217
C8_3 C 0.2002(3) 0.12552(19) 0.37448(19)
C9_3 C 0.3287(2) 0.12715(15) 0.37285(15)
C10_3 C 0.34265(16) 0.1123(2) 0.34265(16)
C11_3 C 0.3266(2) 0.0812(3) 0.3266(2)
O4_3 O 0.2955(2) 0.03641(10) 0.46359(10)
O5_5 O 0.3557(3) 0.0000 0.5000
O6_3 O 0.2370(2) 0.03590(11) 0.46410(11)
O7_5 O 0.1710(7) 0.0000 0.5000
C12_3 C 0.45325(16) 0.04675(16) 0.2662(4)
C13_3 C 0.42605(14) 0.07395(14) 0.2659(3)
C14_3 C 0.41353(16) 0.08647(16) 0.2339(2)
H4_3 H 0.4223 0.0777 0.2133
C15_3 C 0.38785(15) 0.11215(15) 0.2334(2)
C16_3 C 0.37503(15) 0.12497(15) 0.2646(3)
H5_3 H 0.3580 0.1420 0.2642
C17_3 C 0.38710(16) 0.11290(16) 0.2964(3)
C18_3 C 0.41320(14) 0.08680(14) 0.2950(3)
H6_3 H 0.4217 0.0783 0.3159
C19_3 C 0.37448(19) 0.12552(19) 0.2002(3)
C20_3 C 0.37285(15) 0.12715(15) 0.3287(2)
C21_3 C 0.3877(2) 0.15735(16) 0.34265(16)
C22_3 C 0.4188(3) 0.1734(2) 0.3266(2)
O12_2 O 0.46359(10) 0.03641(10) 0.2955(2)
O13_2 O 0.46410(11) 0.03590(11) 0.2370(2)
O14_3 O 0.35240(15) 0.14760(15) 0.2010(2)
O15_3 O 0.38670(13) 0.11330(13) 0.1724(2)
C23_3 C 0.45325(16) 0.2338(4) 0.45325(16)
C24_3 C 0.42605(14) 0.2341(3) 0.42605(14)
C25_3 C 0.41353(16) 0.2661(2) 0.41353(16)
H7_3 H 0.4223 0.2867 0.4223
C26_3 C 0.38785(15) 0.2666(2) 0.38785(15)
C27_3 C 0.37503(15) 0.2354(3) 0.37503(15)
H8_3 H 0.3580 0.2358 0.3580
C28_3 C 0.38710(16) 0.2036(3) 0.38710(16)
C29_3 C 0.41320(14) 0.2050(3) 0.41320(14)
H9_3 H 0.4217 0.1841 0.4217
C30_3 C 0.37448(19) 0.2998(3) 0.37448(19)
C31_3 C 0.37285(15) 0.1713(2) 0.37285(15)
C32_3 C 0.34265(16) 0.15735(16) 0.3877(2)
C33_3 C 0.3266(2) 0.1734(2) 0.4188(3)
O16_3 O 0.46359(10) 0.2045(2) 0.46359(10)
O17_3 O 0.46410(11) 0.2630(2) 0.46410(11)
Zn7_3 Zn 0.5000 -0.0000 0.30468(5)
Zn8_3 Zn 0.5000 -0.0000 0.22745(5)
C67_3 C 0.54675(16) 0.04675(16) 0.2662(4)
C68_3 C 0.57395(14) 0.07395(14) 0.2659(3)
C69_3 C 0.58647(16) 0.08647(16) 0.2339(2)
H19_3 H 0.5777 0.0777 0.2133
C70_3 C 0.61215(15) 0.11215(15) 0.2334(2)
C71_3 C 0.62497(15) 0.12497(15) 0.2646(3)
H20_3 H 0.6420 0.1420 0.2642
C72_3 C 0.61290(16) 0.11290(16) 0.2964(3)
C73_3 C 0.58680(14) 0.08680(14) 0.2950(3)
H21_3 H 0.5783 0.0783 0.3159
C74_3 C 0.62552(19) 0.12552(19) 0.2002(3)
C75_3 C 0.62715(15) 0.12715(15) 0.3287(2)
C76_3 C 0.65735(16) 0.1123(2) 0.34265(16)
C77_3 C 0.6734(2) 0.0812(3) 0.3266(2)
O34_2 O 0.53641(10) 0.03641(10) 0.2955(2)
O35_3 O 0.5000 -0.0000 0.3557(3)
O36_2 O 0.53590(11) 0.03590(11) 0.2370(2)
O37_3 O 0.5000 0.0000 0.1710(7)
O38_3 O 0.64760(15) 0.14760(15) 0.2010(2)
O39_3 O 0.61330(13) 0.11330(13) 0.1724(2)
C78_3 C 0.7338(4) 0.04675(16) 0.45325(16)
C79_3 C 0.7341(3) 0.07395(14) 0.42605(14)
C80_3 C 0.7661(2) 0.08647(16) 0.41353(16)
H22_3 H 0.7867 0.0777 0.4223
C81_3 C 0.7666(2) 0.11215(15) 0.38785(15)
C82_3 C 0.7354(3) 0.12497(15) 0.37503(15)
H23_3 H 0.7358 0.1420 0.3580
C83_3 C 0.7036(3) 0.11290(16) 0.38710(16)
C84_3 C 0.7050(3) 0.08680(14) 0.41320(14)
H24_3 H 0.6841 0.0783 0.4217
C85_3 C 0.7998(3) 0.12552(19) 0.37448(19)
C86_3 C 0.6713(2) 0.12715(15) 0.37285(15)
C87_3 C 0.65735(16) 0.15735(16) 0.3877(2)
C88_3 C 0.6734(2) 0.1734(2) 0.4188(3)
O40_3 O 0.7045(2) 0.03641(10) 0.46359(10)
O41_3 O 0.7630(2) 0.03590(11) 0.46410(11)
O42_3 O 0.7990(2) 0.14760(15) 0.35240(15)
O43_3 O 0.8276(2) 0.11330(13) 0.38670(13)
C89_3 C 0.54675(16) 0.2338(4) 0.45325(16)
C90_3 C 0.57395(14) 0.2341(3) 0.42605(14)
C91_3 C 0.58647(16) 0.2661(2) 0.41353(16)
H25_3 H 0.5777 0.2867 0.4223
C92_3 C 0.61215(15) 0.2666(2) 0.38785(15)
C93_3 C 0.62497(15) 0.2354(3) 0.37503(15)
H26_3 H 0.6420 0.2358 0.3580
C94_3 C 0.61290(16) 0.2036(3) 0.38710(16)
C95_3 C 0.58680(14) 0.2050(3) 0.41320(14)
H27_3 H 0.5783 0.1841 0.4217
C96_3 C 0.62552(19) 0.2998(3) 0.37448(19)
C97_3 C 0.62715(15) 0.1713(2) 0.37285(15)
C98_3 C 0.6123(2) 0.15735(16) 0.34265(16)
C99_3 C 0.5812(3) 0.1734(2) 0.3266(2)
O44_3 O 0.53641(10) 0.2045(2) 0.46359(10)
O45_3 O 0.53590(11) 0.2630(2) 0.46410(11)
O46_3 O 0.64760(15) 0.2990(2) 0.35240(15)
O47_3 O 0.61330(13) 0.3276(2) 0.38670(13)
Zn9_3 Zn 0.5000 0.0000 0.69532(5)
Zn10_3 Zn 0.5000 -0.0000 0.77255(5)
O60_3 O 0.5000 0.0000 0.6443(3)
O61_3 O 0.5000 0.0000 0.8290(7)
Zn11_3 Zn 0.31935(3) 0.18065(3) 0.18065(3)
Zn12_3 Zn 0.37311(3) 0.12689(3) 0.12689(3)
O62_5 O 0.3381(3) 0.21711(14) 0.21711(14)
O63_5 O 0.4036(2) 0.0964(2) 0.0964(2)
O70_5 O 0.28289(14) 0.21711(14) 0.1619(3)
O71_5 O 0.28289(14) 0.1619(3) 0.21711(14)
Zn15_3 Zn 0.69532(5) 0.0000 0.5000
Zn17_2 Zn 0.5000 0.19532(5) 0.5000
Zn18_3 Zn 0.77255(5) -0.0000 0.5000
Zn20_2 Zn 0.5000 0.27255(5) 0.5000
Zn22_3 Zn 0.68065(3) 0.18065(3) 0.18065(3)
Zn30_3 Zn 0.62689(3) 0.12689(3) 0.12689(3)
O75_2 O 0.46359(10) 0.03641(10) 0.7045(2)
O77_2 O 0.53641(10) 0.03641(10) 0.7045(2)
O78_2 O 0.2955(2) 0.03641(10) 0.53641(10)
O80_2 O 0.46410(11) 0.03590(11) 0.7630(2)
O82_2 O 0.53590(11) 0.03590(11) 0.7630(2)
O83_2 O 0.2370(2) 0.03590(11) 0.53590(11)
O84_5 O 0.35240(15) 0.2010(2) 0.14760(15)
O85_5 O 0.2990(2) 0.14760(15) 0.14760(15)
O92_5 O 0.38670(13) 0.1724(2) 0.11330(13)
O93_5 O 0.3276(2) 0.11330(13) 0.11330(13)
H68_3 H 0.299969 0.087051 0.319329
H69_3 H 0.341232 0.0738667 0.303612
H70_3 H 0.326835 0.0598885 0.345095
H77_3 H 0.326835 0.154905 0.440112
H78_3 H 0.341232 0.196388 0.426133
H79_3 H 0.299969 0.180671 0.412949
H80_3 H 0.412949 0.180671 0.299969
H81_3 H 0.426133 0.196388 0.341232
H82_3 H 0.440112 0.154905 0.326835
H95_3 H 0.700031 0.180671 0.412949
H96_3 H 0.658768 0.196388 0.426133
H97_3 H 0.673165 0.154905 0.440112
H98_3 H 0.680671 0.087051 0.299969
H99_3 H 0.696388 0.0738667 0.341232
H100_3 H 0.654905 0.0598885 0.326835
H108_3 H 0.559888 0.154905 0.326835
H109_3 H 0.573867 0.196388 0.341232
H110_3 H 0.587051 0.180671 0.299969
Zn1_4 Zn 0.30468(5) 1.0000 0.5000
Zn2_4 Zn 0.22745(5) 1.0000 0.5000
O5_6 O 0.3557(3) 1.0000 0.5000
O7_6 O 0.1710(7) 1.0000 0.5000
C34_3 C 0.2662(4) 0.95325(16) 0.54675(16)
C35_3 C 0.2659(3) 0.92605(14) 0.57395(14)
C36_3 C 0.2339(2) 0.91353(16) 0.58647(16)
H10_3 H 0.2133 0.9223 0.5777
C37_3 C 0.2334(2) 0.88785(15) 0.61215(15)
C38_3 C 0.2646(3) 0.87503(15) 0.62497(15)
H11_3 H 0.2642 0.8580 0.6420
C39_3 C 0.2964(3) 0.88710(16) 0.61290(16)
C40_3 C 0.2950(3) 0.91320(14) 0.58680(14)
H12_3 H 0.3159 0.9217 0.5783
C41_3 C 0.2002(3) 0.87448(19) 0.62552(19)
C42_3 C 0.3287(2) 0.87285(15) 0.62715(15)
C43_3 C 0.34265(16) 0.8877(2) 0.65735(16)
C44_3 C 0.3266(2) 0.9188(3) 0.6734(2)
O20_3 O 0.2955(2) 0.96359(10) 0.53641(10)
O21_3 O 0.2370(2) 0.96410(11) 0.53590(11)
C45_3 C 0.45325(16) 0.95325(16) 0.7338(4)
C46_3 C 0.42605(14) 0.92605(14) 0.7341(3)
C47_3 C 0.41353(16) 0.91353(16) 0.7661(2)
H13_3 H 0.4223 0.9223 0.7867
C48_3 C 0.38785(15) 0.88785(15) 0.7666(2)
C49_3 C 0.37503(15) 0.87503(15) 0.7354(3)
H14_3 H 0.3580 0.8580 0.7358
C50_3 C 0.38710(16) 0.88710(16) 0.7036(3)
C51_3 C 0.41320(14) 0.91320(14) 0.7050(3)
H15_3 H 0.4217 0.9217 0.6841
C52_3 C 0.37448(19) 0.87448(19) 0.7998(3)
C53_3 C 0.37285(15) 0.87285(15) 0.6713(2)
C54_3 C 0.3877(2) 0.84265(16) 0.65735(16)
C55_3 C 0.4188(3) 0.8266(2) 0.6734(2)
O26_2 O 0.46359(10) 0.96359(10) 0.7045(2)
O27_2 O 0.46410(11) 0.96410(11) 0.7630(2)
O28_3 O 0.35240(15) 0.85240(15) 0.7990(2)
O29_3 O 0.38670(13) 0.88670(13) 0.8276(2)
C56_3 C 0.45325(16) 0.7662(4) 0.54675(16)
C57_3 C 0.42605(14) 0.7659(3) 0.57395(14)
C58_3 C 0.41353(16) 0.7339(2) 0.58647(16)
H16_3 H 0.4223 0.7133 0.5777
C59_3 C 0.38785(15) 0.7334(2) 0.61215(15)
C60_3 C 0.37503(15) 0.7646(3) 0.62497(15)
H17_3 H 0.3580 0.7642 0.6420
C61_3 C 0.38710(16) 0.7964(3) 0.61290(16)
C62_3 C 0.41320(14) 0.7950(3) 0.58680(14)
H18_3 H 0.4217 0.8159 0.5783
C63_3 C 0.37448(19) 0.7002(3) 0.62552(19)
C64_3 C 0.37285(15) 0.8287(2) 0.62715(15)
C65_3 C 0.34265(16) 0.84265(16) 0.6123(2)
C66_3 C 0.3266(2) 0.8266(2) 0.5812(3)
O30_3 O 0.46359(10) 0.7955(2) 0.53641(10)
O31_3 O 0.46410(11) 0.7370(2) 0.53590(11)
Zn7_4 Zn 0.5000 1.0000 0.30468(5)
Zn8_4 Zn 0.5000 1.0000 0.22745(5)
O35_4 O 0.5000 1.0000 0.3557(3)
O37_4 O 0.5000 1.0000 0.1710(7)
C100_3 C 0.45325(16) 0.95325(16) 0.2662(4)
C101_3 C 0.42605(14) 0.92605(14) 0.2659(3)
C102_3 C 0.41353(16) 0.91353(16) 0.2339(2)
H28_3 H 0.4223 0.9223 0.2133
C103_3 C 0.38785(15) 0.88785(15) 0.2334(2)
C104_3 C 0.37503(15) 0.87503(15) 0.2646(3)
H29_3 H 0.3580 0.8580 0.2642
C105_3 C 0.38710(16) 0.88710(16) 0.2964(3)
C106_3 C 0.41320(14) 0.91320(14) 0.2950(3)
H30_3 H 0.4217 0.9217 0.3159
C107_3 C 0.37448(19) 0.87448(19) 0.2002(3)
C108_3 C 0.37285(15) 0.87285(15) 0.3287(2)
C109_3 C 0.34265(16) 0.8877(2) 0.34265(16)
C110_3 C 0.3266(2) 0.9188(3) 0.3266(2)
O48_2 O 0.46359(10) 0.96359(10) 0.2955(2)
O49_2 O 0.46410(11) 0.96410(11) 0.2370(2)
O50_3 O 0.35240(15) 0.85240(15) 0.2010(2)
O51_3 O 0.38670(13) 0.88670(13) 0.1724(2)
C111_3 C 0.2662(4) 0.95325(16) 0.45325(16)
C112_3 C 0.2659(3) 0.92605(14) 0.42605(14)
C113_3 C 0.2339(2) 0.91353(16) 0.41353(16)
H31_3 H 0.2133 0.9223 0.4223
C114_3 C 0.2334(2) 0.88785(15) 0.38785(15)
C115_3 C 0.2646(3) 0.87503(15) 0.37503(15)
H32_3 H 0.2642 0.8580 0.3580
C116_3 C 0.2964(3) 0.88710(16) 0.38710(16)
C117_3 C 0.2950(3) 0.91320(14) 0.41320(14)
H33_3 H 0.3159 0.9217 0.4217
C118_3 C 0.2002(3) 0.87448(19) 0.37448(19)
C119_3 C 0.3287(2) 0.87285(15) 0.37285(15)
C120_3 C 0.34265(16) 0.84265(16) 0.3877(2)
C121_3 C 0.3266(2) 0.8266(2) 0.4188(3)
O52_2 O 0.2955(2) 0.96359(10) 0.46359(10)
O53_2 O 0.2370(2) 0.96410(11) 0.46410(11)
O54_3 O 0.2010(2) 0.85240(15) 0.35240(15)
O55_3 O 0.1724(2) 0.88670(13) 0.38670(13)
C122_3 C 0.45325(16) 0.7662(4) 0.45325(16)
C123_3 C 0.42605(14) 0.7659(3) 0.42605(14)
C124_3 C 0.41353(16) 0.7339(2) 0.41353(16)
H34_3 H 0.4223 0.7133 0.4223
C125_3 C 0.38785(15) 0.7334(2) 0.38785(15)
C126_3 C 0.37503(15) 0.7646(3) 0.37503(15)
H35_3 H 0.3580 0.7642 0.3580
C127_3 C 0.38710(16) 0.7964(3) 0.38710(16)
C128_3 C 0.41320(14) 0.7950(3) 0.41320(14)
H36_3 H 0.4217 0.8159 0.4217
C129_3 C 0.37448(19) 0.7002(3) 0.37448(19)
C130_3 C 0.37285(15) 0.8287(2) 0.37285(15)
C131_3 C 0.3877(2) 0.84265(16) 0.34265(16)
C132_3 C 0.4188(3) 0.8266(2) 0.3266(2)
O56_3 O 0.46359(10) 0.7955(2) 0.46359(10)
O57_3 O 0.46410(11) 0.7370(2) 0.46410(11)
O58_3 O 0.35240(15) 0.7010(2) 0.35240(15)
O59_3 O 0.38670(13) 0.6724(2) 0.38670(13)
Zn9_4 Zn 0.5000 1.0000 0.69532(5)
Zn10_4 Zn 0.5000 1.0000 0.77255(5)
O60_4 O 0.5000 1.0000 0.6443(3)
O61_4 O 0.5000 1.0000 0.8290(7)
Zn15_4 Zn 0.69532(5) 1.0000 0.5000
Zn16_2 Zn 0.5000 0.80468(5) 0.5000
Zn18_4 Zn 0.77255(5) 1.0000 0.5000
Zn19_2 Zn 0.5000 0.72745(5) 0.5000
Zn21_3 Zn 0.31935(3) 0.81935(3) 0.81935(3)
Zn23_3 Zn 0.31935(3) 0.81935(3) 0.18065(3)
Zn29_3 Zn 0.37311(3) 0.87311(3) 0.87311(3)
Zn31_3 Zn 0.37311(3) 0.87311(3) 0.12689(3)
O74_2 O 0.53641(10) 0.96359(10) 0.7045(2)
O76_2 O 0.53641(10) 0.96359(10) 0.2955(2)
O79_2 O 0.53590(11) 0.96410(11) 0.7630(2)
O81_2 O 0.53590(11) 0.96410(11) 0.2370(2)
H47_3 H 0.440112 0.845095 0.326835
H48_3 H 0.426133 0.803612 0.341232
H49_3 H 0.412949 0.819329 0.299969
H89_3 H 0.299969 0.912949 0.680671
H90_3 H 0.341232 0.926133 0.696388
H91_3 H 0.326835 0.940112 0.654905
H92_3 H 0.412949 0.819329 0.700031
H93_3 H 0.426133 0.803612 0.658768
H94_3 H 0.440112 0.845095 0.673165
H105_3 H 0.326835 0.845095 0.559888
H106_3 H 0.341232 0.803612 0.573867
H107_3 H 0.299969 0.819329 0.587051
H111_3 H 0.299969 0.819329 0.412949
H112_3 H 0.341232 0.803612 0.426133
H113_3 H 0.326835 0.845095 0.440112
H114_3 H 0.319329 0.912949 0.299969
H115_3 H 0.303612 0.926133 0.341232
H116_3 H 0.345095 0.940112 0.326835
C100_4 C 0.45325(16) 0.04675(16) 0.7338(4)
C101_4 C 0.42605(14) 0.07395(14) 0.7341(3)
C102_4 C 0.41353(16) 0.08647(16) 0.7661(2)
H28_4 H 0.4223 0.0777 0.7867
C103_4 C 0.38785(15) 0.11215(15) 0.7666(2)
C104_4 C 0.37503(15) 0.12497(15) 0.7354(3)
H29_4 H 0.3580 0.1420 0.7358
C105_4 C 0.38710(16) 0.11290(16) 0.7036(3)
C106_4 C 0.41320(14) 0.08680(14) 0.7050(3)
H30_4 H 0.4217 0.0783 0.6841
C107_4 C 0.37448(19) 0.12552(19) 0.7998(3)
C108_4 C 0.37285(15) 0.12715(15) 0.6713(2)
C109_4 C 0.34265(16) 0.1123(2) 0.65735(16)
C110_4 C 0.3266(2) 0.0812(3) 0.6734(2)
O50_4 O 0.35240(15) 0.14760(15) 0.7990(2)
O51_4 O 0.38670(13) 0.11330(13) 0.8276(2)
C111_4 C 0.2662(4) 0.04675(16) 0.54675(16)
C112_4 C 0.2659(3) 0.07395(14) 0.57395(14)
C113_4 C 0.2339(2) 0.08647(16) 0.58647(16)
H31_4 H 0.2133 0.0777 0.5777
C114_4 C 0.2334(2) 0.11215(15) 0.61215(15)
C115_4 C 0.2646(3) 0.12497(15) 0.62497(15)
H32_4 H 0.2642 0.1420 0.6420
C116_4 C 0.2964(3) 0.11290(16) 0.61290(16)
C117_4 C 0.2950(3) 0.08680(14) 0.58680(14)
H33_4 H 0.3159 0.0783 0.5783
C118_4 C 0.2002(3) 0.12552(19) 0.62552(19)
C119_4 C 0.3287(2) 0.12715(15) 0.62715(15)
C120_4 C 0.34265(16) 0.15735(16) 0.6123(2)
C121_4 C 0.3266(2) 0.1734(2) 0.5812(3)
O54_4 O 0.2010(2) 0.14760(15) 0.64760(15)
O55_4 O 0.1724(2) 0.11330(13) 0.61330(13)
C122_4 C 0.45325(16) 0.2338(4) 0.54675(16)
C123_4 C 0.42605(14) 0.2341(3) 0.57395(14)
C124_4 C 0.41353(16) 0.2661(2) 0.58647(16)
H34_4 H 0.4223 0.2867 0.5777
C125_4 C 0.38785(15) 0.2666(2) 0.61215(15)
C126_4 C 0.37503(15) 0.2354(3) 0.62497(15)
H35_4 H 0.3580 0.2358 0.6420
C127_4 C 0.38710(16) 0.2036(3) 0.61290(16)
C128_4 C 0.41320(14) 0.2050(3) 0.58680(14)
H36_4 H 0.4217 0.1841 0.5783
C129_4 C 0.37448(19) 0.2998(3) 0.62552(19)
C130_4 C 0.37285(15) 0.1713(2) 0.62715(15)
C131_4 C 0.3877(2) 0.15735(16) 0.65735(16)
C132_4 C 0.4188(3) 0.1734(2) 0.6734(2)
O56_4 O 0.46359(10) 0.2045(2) 0.53641(10)
O57_4 O 0.46410(11) 0.2630(2) 0.53590(11)
O58_4 O 0.35240(15) 0.2990(2) 0.64760(15)
O59_4 O 0.38670(13) 0.3276(2) 0.61330(13)
Zn23_4 Zn 0.31935(3) 0.18065(3) 0.81935(3)
Zn31_4 Zn 0.37311(3) 0.12689(3) 0.87311(3)
H47_4 H 0.440112 0.154905 0.673165
H48_4 H 0.426133 0.196388 0.658768
H49_4 H 0.412949 0.180671 0.700031
H111_4 H 0.299969 0.180671 0.587051
H112_4 H 0.341232 0.196388 0.573867
H113_4 H 0.326835 0.154905 0.559888
H114_4 H 0.319329 0.087051 0.700031
H115_4 H 0.303612 0.0738667 0.658768
H116_4 H 0.345095 0.0598885 0.673165
C67_4 C 0.54675(16) 0.95325(16) 0.7338(4)
C68_4 C 0.57395(14) 0.92605(14) 0.7341(3)
C69_4 C 0.58647(16) 0.91353(16) 0.7661(2)
H19_4 H 0.5777 0.9223 0.7867
C70_4 C 0.61215(15) 0.88785(15) 0.7666(2)
C71_4 C 0.62497(15) 0.87503(15) 0.7354(3)
H20_4 H 0.6420 0.8580 0.7358
C72_4 C 0.61290(16) 0.88710(16) 0.7036(3)
C73_4 C 0.58680(14) 0.91320(14) 0.7050(3)
H21_4 H 0.5783 0.9217 0.6841
C74_4 C 0.62552(19) 0.87448(19) 0.7998(3)
C75_4 C 0.62715(15) 0.87285(15) 0.6713(2)
C76_4 C 0.65735(16) 0.8877(2) 0.65735(16)
C77_4 C 0.6734(2) 0.9188(3) 0.6734(2)
O38_4 O 0.64760(15) 0.85240(15) 0.7990(2)
O39_4 O 0.61330(13) 0.88670(13) 0.8276(2)
C78_4 C 0.7338(4) 0.95325(16) 0.54675(16)
C79_4 C 0.7341(3) 0.92605(14) 0.57395(14)
C80_4 C 0.7661(2) 0.91353(16) 0.58647(16)
H22_4 H 0.7867 0.9223 0.5777
C81_4 C 0.7666(2) 0.88785(15) 0.61215(15)
C82_4 C 0.7354(3) 0.87503(15) 0.62497(15)
H23_4 H 0.7358 0.8580 0.6420
C83_4 C 0.7036(3) 0.88710(16) 0.61290(16)
C84_4 C 0.7050(3) 0.91320(14) 0.58680(14)
H24_4 H 0.6841 0.9217 0.5783
C85_4 C 0.7998(3) 0.87448(19) 0.62552(19)
C86_4 C 0.6713(2) 0.87285(15) 0.62715(15)
C87_4 C 0.65735(16) 0.84265(16) 0.6123(2)
C88_4 C 0.6734(2) 0.8266(2) 0.5812(3)
O40_4 O 0.7045(2) 0.96359(10) 0.53641(10)
O41_4 O 0.7630(2) 0.96410(11) 0.53590(11)
O42_4 O 0.7990(2) 0.85240(15) 0.64760(15)
O43_4 O 0.8276(2) 0.88670(13) 0.61330(13)
C89_4 C 0.54675(16) 0.7662(4) 0.54675(16)
C90_4 C 0.57395(14) 0.7659(3) 0.57395(14)
C91_4 C 0.58647(16) 0.7339(2) 0.58647(16)
H25_4 H 0.5777 0.7133 0.5777
C92_4 C 0.61215(15) 0.7334(2) 0.61215(15)
C93_4 C 0.62497(15) 0.7646(3) 0.62497(15)
H26_4 H 0.6420 0.7642 0.6420
C94_4 C 0.61290(16) 0.7964(3) 0.61290(16)
C95_4 C 0.58680(14) 0.7950(3) 0.58680(14)
H27_4 H 0.5783 0.8159 0.5783
C96_4 C 0.62552(19) 0.7002(3) 0.62552(19)
C97_4 C 0.62715(15) 0.8287(2) 0.62715(15)
C98_4 C 0.6123(2) 0.84265(16) 0.65735(16)
C99_4 C 0.5812(3) 0.8266(2) 0.6734(2)
O44_4 O 0.53641(10) 0.7955(2) 0.53641(10)
O45_4 O 0.53590(11) 0.7370(2) 0.53590(11)
O46_4 O 0.64760(15) 0.7010(2) 0.64760(15)
O47_4 O 0.61330(13) 0.6724(2) 0.61330(13)
O62_6 O 0.3381(3) 0.78289(14) 0.78289(14)
O63_6 O 0.4036(2) 0.9036(2) 0.9036(2)
O70_6 O 0.28289(14) 0.78289(14) 0.8381(3)
O71_6 O 0.28289(14) 0.8381(3) 0.78289(14)
Zn22_4 Zn 0.68065(3) 0.81935(3) 0.81935(3)
Zn30_4 Zn 0.62689(3) 0.87311(3) 0.87311(3)
O84_6 O 0.35240(15) 0.7990(2) 0.85240(15)
O85_6 O 0.2990(2) 0.85240(15) 0.85240(15)
O92_6 O 0.38670(13) 0.8276(2) 0.88670(13)
O93_6 O 0.3276(2) 0.88670(13) 0.88670(13)
H95_4 H 0.700031 0.819329 0.587051
H96_4 H 0.658768 0.803612 0.573867
H97_4 H 0.673165 0.845095 0.559888
H98_4 H 0.680671 0.912949 0.700031
H99_4 H 0.696388 0.926133 0.658768
H100_4 H 0.654905 0.940112 0.673165
H108_4 H 0.559888 0.845095 0.673165
H109_4 H 0.573867 0.803612 0.658768
H110_4 H 0.587051 0.819329 0.700031
O5_7 O 0.6443(3) 0.0000 0.5000
O7_7 O 0.8290(7) 0.0000 0.5000
C34_4 C 0.7338(4) 0.04675(16) 0.54675(16)
C35_4 C 0.7341(3) 0.07395(14) 0.57395(14)
C36_4 C 0.7661(2) 0.08647(16) 0.58647(16)
H10_4 H 0.7867 0.0777 0.5777
C37_4 C 0.7666(2) 0.11215(15) 0.61215(15)
C38_4 C 0.7354(3) 0.12497(15) 0.62497(15)
H11_4 H 0.7358 0.1420 0.6420
C39_4 C 0.7036(3) 0.11290(16) 0.61290(16)
C40_4 C 0.7050(3) 0.08680(14) 0.58680(14)
H12_4 H 0.6841 0.0783 0.5783
C41_4 C 0.7998(3) 0.12552(19) 0.62552(19)
C42_4 C 0.6713(2) 0.12715(15) 0.62715(15)
C43_4 C 0.65735(16) 0.1123(2) 0.65735(16)
C44_4 C 0.6734(2) 0.0812(3) 0.6734(2)
O20_4 O 0.7045(2) 0.03641(10) 0.53641(10)
O21_4 O 0.7630(2) 0.03590(11) 0.53590(11)
C45_4 C 0.54675(16) 0.04675(16) 0.7338(4)
C46_4 C 0.57395(14) 0.07395(14) 0.7341(3)
C47_4 C 0.58647(16) 0.08647(16) 0.7661(2)
H13_4 H 0.5777 0.0777 0.7867
C48_4 C 0.61215(15) 0.11215(15) 0.7666(2)
C49_4 C 0.62497(15) 0.12497(15) 0.7354(3)
H14_4 H 0.6420 0.1420 0.7358
C50_4 C 0.61290(16) 0.11290(16) 0.7036(3)
C51_4 C 0.58680(14) 0.08680(14) 0.7050(3)
H15_4 H 0.5783 0.0783 0.6841
C52_4 C 0.62552(19) 0.12552(19) 0.7998(3)
C53_4 C 0.62715(15) 0.12715(15) 0.6713(2)
C54_4 C 0.6123(2) 0.15735(16) 0.65735(16)
C55_4 C 0.5812(3) 0.1734(2) 0.6734(2)
O28_4 O 0.64760(15) 0.14760(15) 0.7990(2)
O29_4 O 0.61330(13) 0.11330(13) 0.8276(2)
C56_4 C 0.54675(16) 0.2338(4) 0.54675(16)
C57_4 C 0.57395(14) 0.2341(3) 0.57395(14)
C58_4 C 0.58647(16) 0.2661(2) 0.58647(16)
H16_4 H 0.5777 0.2867 0.5777
C59_4 C 0.61215(15) 0.2666(2) 0.61215(15)
C60_4 C 0.62497(15) 0.2354(3) 0.62497(15)
H17_4 H 0.6420 0.2358 0.6420
C61_4 C 0.61290(16) 0.2036(3) 0.61290(16)
C62_4 C 0.58680(14) 0.2050(3) 0.58680(14)
H18_4 H 0.5783 0.1841 0.5783
C63_4 C 0.62552(19) 0.2998(3) 0.62552(19)
C64_4 C 0.62715(15) 0.1713(2) 0.62715(15)
C65_4 C 0.65735(16) 0.15735(16) 0.6123(2)
C66_4 C 0.6734(2) 0.1734(2) 0.5812(3)
O30_4 O 0.53641(10) 0.2045(2) 0.53641(10)
O31_4 O 0.53590(11) 0.2630(2) 0.53590(11)
Zn21_4 Zn 0.68065(3) 0.18065(3) 0.81935(3)
Zn29_4 Zn 0.62689(3) 0.12689(3) 0.87311(3)
H89_4 H 0.700031 0.087051 0.680671
H90_4 H 0.658768 0.0738667 0.696388
H91_4 H 0.673165 0.0598885 0.654905
H92_4 H 0.587051 0.180671 0.700031
H93_4 H 0.573867 0.196388 0.658768
H94_4 H 0.559888 0.154905 0.673165
H105_4 H 0.673165 0.154905 0.559888
H106_4 H 0.658768 0.196388 0.573867
H107_4 H 0.700031 0.180671 0.587051
C1_4 C 0.7338(4) 0.95325(16) 0.45325(16)
C2_4 C 0.7341(3) 0.92605(14) 0.42605(14)
C3_4 C 0.7661(2) 0.91353(16) 0.41353(16)
H1_4 H 0.7867 0.9223 0.4223
C4_4 C 0.7666(2) 0.88785(15) 0.38785(15)
C5_4 C 0.7354(3) 0.87503(15) 0.37503(15)
H2_4 H 0.7358 0.8580 0.3580
C6_4 C 0.7036(3) 0.88710(16) 0.38710(16)
C7_4 C 0.7050(3) 0.91320(14) 0.41320(14)
H3_4 H 0.6841 0.9217 0.4217
C8_4 C 0.7998(3) 0.87448(19) 0.37448(19)
C9_4 C 0.6713(2) 0.87285(15) 0.37285(15)
C10_4 C 0.65735(16) 0.8877(2) 0.34265(16)
C11_4 C 0.6734(2) 0.9188(3) 0.3266(2)
O4_4 O 0.7045(2) 0.96359(10) 0.46359(10)
O5_8 O 0.6443(3) 1.0000 0.5000
O6_4 O 0.7630(2) 0.96410(11) 0.46410(11)
O7_8 O 0.8290(7) 1.0000 0.5000
C12_4 C 0.54675(16) 0.95325(16) 0.2662(4)
C13_4 C 0.57395(14) 0.92605(14) 0.2659(3)
C14_4 C 0.58647(16) 0.91353(16) 0.2339(2)
H4_4 H 0.5777 0.9223 0.2133
C15_4 C 0.61215(15) 0.88785(15) 0.2334(2)
C16_4 C 0.62497(15) 0.87503(15) 0.2646(3)
H5_4 H 0.6420 0.8580 0.2642
C17_4 C 0.61290(16) 0.88710(16) 0.2964(3)
C18_4 C 0.58680(14) 0.91320(14) 0.2950(3)
H6_4 H 0.5783 0.9217 0.3159
C19_4 C 0.62552(19) 0.87448(19) 0.2002(3)
C20_4 C 0.62715(15) 0.87285(15) 0.3287(2)
C21_4 C 0.6123(2) 0.84265(16) 0.34265(16)
C22_4 C 0.5812(3) 0.8266(2) 0.3266(2)
O14_4 O 0.64760(15) 0.85240(15) 0.2010(2)
O15_4 O 0.61330(13) 0.88670(13) 0.1724(2)
C23_4 C 0.54675(16) 0.7662(4) 0.45325(16)
C24_4 C 0.57395(14) 0.7659(3) 0.42605(14)
C25_4 C 0.58647(16) 0.7339(2) 0.41353(16)
H7_4 H 0.5777 0.7133 0.4223
C26_4 C 0.61215(15) 0.7334(2) 0.38785(15)
C27_4 C 0.62497(15) 0.7646(3) 0.37503(15)
H8_4 H 0.6420 0.7642 0.3580
C28_4 C 0.61290(16) 0.7964(3) 0.38710(16)
C29_4 C 0.58680(14) 0.7950(3) 0.41320(14)
H9_4 H 0.5783 0.8159 0.4217
C30_4 C 0.62552(19) 0.7002(3) 0.37448(19)
C31_4 C 0.62715(15) 0.8287(2) 0.37285(15)
C32_4 C 0.65735(16) 0.84265(16) 0.3877(2)
C33_4 C 0.6734(2) 0.8266(2) 0.4188(3)
O16_4 O 0.53641(10) 0.7955(2) 0.46359(10)
O17_4 O 0.53590(11) 0.7370(2) 0.46410(11)
Zn11_4 Zn 0.68065(3) 0.81935(3) 0.18065(3)
Zn12_4 Zn 0.62689(3) 0.87311(3) 0.12689(3)
O62_7 O 0.6619(3) 0.78289(14) 0.21711(14)
O63_7 O 0.5964(2) 0.9036(2) 0.0964(2)
O70_7 O 0.71711(14) 0.78289(14) 0.1619(3)
O71_7 O 0.71711(14) 0.8381(3) 0.21711(14)
O84_7 O 0.64760(15) 0.7990(2) 0.14760(15)
O85_7 O 0.7010(2) 0.85240(15) 0.14760(15)
O92_7 O 0.61330(13) 0.8276(2) 0.11330(13)
O93_7 O 0.6724(2) 0.88670(13) 0.11330(13)
H68_4 H 0.700031 0.912949 0.319329
H69_4 H 0.658768 0.926133 0.303612
H70_4 H 0.673165 0.940112 0.345095
H77_4 H 0.673165 0.845095 0.440112
H78_4 H 0.658768 0.803612 0.426133
H79_4 H 0.700031 0.819329 0.412949
H80_4 H 0.587051 0.819329 0.299969
H81_4 H 0.573867 0.803612 0.341232
H82_4 H 0.559888 0.845095 0.326835
O62_8 O 0.6619(3) 0.21711(14) 0.78289(14)
O63_8 O 0.5964(2) 0.0964(2) 0.9036(2)
O70_8 O 0.71711(14) 0.21711(14) 0.8381(3)
O71_8 O 0.71711(14) 0.1619(3) 0.78289(14)
O84_8 O 0.64760(15) 0.2010(2) 0.85240(15)
O85_8 O 0.7010(2) 0.14760(15) 0.85240(15)
O92_8 O 0.61330(13) 0.1724(2) 0.88670(13)
O93_8 O 0.6724(2) 0.11330(13) 0.88670(13)
Zn1_5 Zn 0.5000 0.30468(5) 0.0000
Zn2_5 Zn 0.5000 0.22745(5) -0.0000
C1_5 C 0.45325(16) 0.2662(4) 0.04675(16)
C2_5 C 0.42605(14) 0.2659(3) 0.07395(14)
C3_5 C 0.41353(16) 0.2339(2) 0.08647(16)
H1_5 H 0.4223 0.2133 0.0777
C4_5 C 0.38785(15) 0.2334(2) 0.11215(15)
C5_5 C 0.37503(15) 0.2646(3) 0.12497(15)
H2_5 H 0.3580 0.2642 0.1420
C6_5 C 0.38710(16) 0.2964(3) 0.11290(16)
C7_5 C 0.41320(14) 0.2950(3) 0.08680(14)
H3_5 H 0.4217 0.3159 0.0783
C8_5 C 0.37448(19) 0.2002(3) 0.12552(19)
C9_5 C 0.37285(15) 0.3287(2) 0.12715(15)
C10_5 C 0.34265(16) 0.34265(16) 0.1123(2)
C11_5 C 0.3266(2) 0.3266(2) 0.0812(3)
O4_5 O 0.46359(10) 0.2955(2) 0.03641(10)
O5_9 O 0.5000 0.3557(3) 0.0000
O6_5 O 0.46410(11) 0.2370(2) 0.03590(11)
O7_9 O 0.5000 0.1710(7) 0.0000
C12_5 C 0.2662(4) 0.45325(16) 0.04675(16)
C13_5 C 0.2659(3) 0.42605(14) 0.07395(14)
C14_5 C 0.2339(2) 0.41353(16) 0.08647(16)
H4_5 H 0.2133 0.4223 0.0777
C15_5 C 0.2334(2) 0.38785(15) 0.11215(15)
C16_5 C 0.2646(3) 0.37503(15) 0.12497(15)
H5_5 H 0.2642 0.3580 0.1420
C17_5 C 0.2964(3) 0.38710(16) 0.11290(16)
C18_5 C 0.2950(3) 0.41320(14) 0.08680(14)
H6_5 H 0.3159 0.4217 0.0783
C19_5 C 0.2002(3) 0.37448(19) 0.12552(19)
C20_5 C 0.3287(2) 0.37285(15) 0.12715(15)
C21_5 C 0.34265(16) 0.3877(2) 0.15735(16)
C22_5 C 0.3266(2) 0.4188(3) 0.1734(2)
O12_3 O 0.2955(2) 0.46359(10) 0.03641(10)
O13_3 O 0.2370(2) 0.46410(11) 0.03590(11)
C23_5 C 0.45325(16) 0.45325(16) 0.2338(4)
C24_5 C 0.42605(14) 0.42605(14) 0.2341(3)
C25_5 C 0.41353(16) 0.41353(16) 0.2661(2)
H7_5 H 0.4223 0.4223 0.2867
C26_5 C 0.38785(15) 0.38785(15) 0.2666(2)
C27_5 C 0.37503(15) 0.37503(15) 0.2354(3)
H8_5 H 0.3580 0.3580 0.2358
C28_5 C 0.38710(16) 0.38710(16) 0.2036(3)
C29_5 C 0.41320(14) 0.41320(14) 0.2050(3)
H9_5 H 0.4217 0.4217 0.1841
C30_5 C 0.37448(19) 0.37448(19) 0.2998(3)
C31_5 C 0.37285(15) 0.37285(15) 0.1713(2)
C32_5 C 0.3877(2) 0.34265(16) 0.15735(16)
C33_5 C 0.4188(3) 0.3266(2) 0.1734(2)
O16_5 O 0.46359(10) 0.46359(10) 0.2045(2)
O17_5 O 0.46410(11) 0.46410(11) 0.2630(2)
Zn7_5 Zn 0.30468(5) 0.5000 -0.0000
Zn8_5 Zn 0.22745(5) 0.5000 -0.0000
C67_5 C 0.2662(4) 0.54675(16) 0.04675(16)
C68_5 C 0.2659(3) 0.57395(14) 0.07395(14)
C69_5 C 0.2339(2) 0.58647(16) 0.08647(16)
H19_5 H 0.2133 0.5777 0.0777
C70_5 C 0.2334(2) 0.61215(15) 0.11215(15)
C71_5 C 0.2646(3) 0.62497(15) 0.12497(15)
H20_5 H 0.2642 0.6420 0.1420
C72_5 C 0.2964(3) 0.61290(16) 0.11290(16)
C73_5 C 0.2950(3) 0.58680(14) 0.08680(14)
H21_5 H 0.3159 0.5783 0.0783
C74_5 C 0.2002(3) 0.62552(19) 0.12552(19)
C75_5 C 0.3287(2) 0.62715(15) 0.12715(15)
C76_5 C 0.34265(16) 0.65735(16) 0.1123(2)
C77_5 C 0.3266(2) 0.6734(2) 0.0812(3)
O34_3 O 0.2955(2) 0.53641(10) 0.03641(10)
O35_5 O 0.3557(3) 0.5000 -0.0000
O36_3 O 0.2370(2) 0.53590(11) 0.03590(11)
O37_5 O 0.1710(7) 0.5000 0.0000
O38_5 O 0.2010(2) 0.64760(15) 0.14760(15)
O39_5 O 0.1724(2) 0.61330(13) 0.11330(13)
C78_5 C 0.45325(16) 0.7338(4) 0.04675(16)
C79_5 C 0.42605(14) 0.7341(3) 0.07395(14)
C80_5 C 0.41353(16) 0.7661(2) 0.08647(16)
H22_5 H 0.4223 0.7867 0.0777
C81_5 C 0.38785(15) 0.7666(2) 0.11215(15)
C82_5 C 0.37503(15) 0.7354(3) 0.12497(15)
H23_5 H 0.3580 0.7358 0.1420
C83_5 C 0.38710(16) 0.7036(3) 0.11290(16)
C84_5 C 0.41320(14) 0.7050(3) 0.08680(14)
H24_5 H 0.4217 0.6841 0.0783
C85_5 C 0.37448(19) 0.7998(3) 0.12552(19)
C86_5 C 0.37285(15) 0.6713(2) 0.12715(15)
C87_5 C 0.3877(2) 0.65735(16) 0.15735(16)
C88_5 C 0.4188(3) 0.6734(2) 0.1734(2)
O40_5 O 0.46359(10) 0.7045(2) 0.03641(10)
O41_5 O 0.46410(11) 0.7630(2) 0.03590(11)
O42_5 O 0.35240(15) 0.7990(2) 0.14760(15)
O43_5 O 0.38670(13) 0.8276(2) 0.11330(13)
C89_5 C 0.45325(16) 0.54675(16) 0.2338(4)
C90_5 C 0.42605(14) 0.57395(14) 0.2341(3)
C91_5 C 0.41353(16) 0.58647(16) 0.2661(2)
H25_5 H 0.4223 0.5777 0.2867
C92_5 C 0.38785(15) 0.61215(15) 0.2666(2)
C93_5 C 0.37503(15) 0.62497(15) 0.2354(3)
H26_5 H 0.3580 0.6420 0.2358
C94_5 C 0.38710(16) 0.61290(16) 0.2036(3)
C95_5 C 0.41320(14) 0.58680(14) 0.2050(3)
H27_5 H 0.4217 0.5783 0.1841
C96_5 C 0.37448(19) 0.62552(19) 0.2998(3)
C97_5 C 0.37285(15) 0.62715(15) 0.1713(2)
C98_5 C 0.34265(16) 0.6123(2) 0.15735(16)
C99_5 C 0.3266(2) 0.5812(3) 0.1734(2)
O44_5 O 0.46359(10) 0.53641(10) 0.2045(2)
O45_5 O 0.46410(11) 0.53590(11) 0.2630(2)
O46_5 O 0.35240(15) 0.64760(15) 0.2990(2)
O47_5 O 0.38670(13) 0.61330(13) 0.3276(2)
Zn9_5 Zn 0.69532(5) 0.5000 0.0000
Zn10_5 Zn 0.77255(5) 0.5000 -0.0000
O60_5 O 0.6443(3) 0.5000 0.0000
O61_5 O 0.8290(7) 0.5000 0.0000
Zn15_5 Zn 0.5000 0.69532(5) 0.0000
Zn17_3 Zn 0.5000 0.5000 0.19532(5)
Zn18_5 Zn 0.5000 0.77255(5) -0.0000
Zn20_3 Zn 0.5000 0.5000 0.27255(5)
O75_3 O 0.7045(2) 0.46359(10) 0.03641(10)
O77_3 O 0.7045(2) 0.53641(10) 0.03641(10)
O78_3 O 0.53641(10) 0.2955(2) 0.03641(10)
O80_3 O 0.7630(2) 0.46410(11) 0.03590(11)
O82_3 O 0.7630(2) 0.53590(11) 0.03590(11)
O83_3 O 0.53590(11) 0.2370(2) 0.03590(11)
H68_5 H 0.319329 0.299969 0.087051
H69_5 H 0.303612 0.341232 0.0738667
H70_5 H 0.345095 0.326835 0.0598885
H77_5 H 0.440112 0.326835 0.154905
H78_5 H 0.426133 0.341232 0.196388
H79_5 H 0.412949 0.299969 0.180671
H80_5 H 0.299969 0.412949 0.180671
H81_5 H 0.341232 0.426133 0.196388
H82_5 H 0.326835 0.440112 0.154905
H95_5 H 0.412949 0.700031 0.180671
H96_5 H 0.426133 0.658768 0.196388
H97_5 H 0.440112 0.673165 0.154905
H98_5 H 0.299969 0.680671 0.087051
H99_5 H 0.341232 0.696388 0.0738667
H100_5 H 0.326835 0.654905 0.0598885
H108_5 H 0.326835 0.559888 0.154905
H109_5 H 0.341232 0.573867 0.196388
H110_5 H 0.299969 0.587051 0.180671
Zn1_6 Zn 0.5000 0.30468(5) 1.0000
Zn2_6 Zn 0.5000 0.22745(5) 1.0000
O5_10 O 0.5000 0.3557(3) 1.0000
O7_10 O 0.5000 0.1710(7) 1.0000
C34_5 C 0.54675(16) 0.2662(4) 0.95325(16)
C35_5 C 0.57395(14) 0.2659(3) 0.92605(14)
C36_5 C 0.58647(16) 0.2339(2) 0.91353(16)
H10_5 H 0.5777 0.2133 0.9223
C37_5 C 0.61215(15) 0.2334(2) 0.88785(15)
C38_5 C 0.62497(15) 0.2646(3) 0.87503(15)
H11_5 H 0.6420 0.2642 0.8580
C39_5 C 0.61290(16) 0.2964(3) 0.88710(16)
C40_5 C 0.58680(14) 0.2950(3) 0.91320(14)
H12_5 H 0.5783 0.3159 0.9217
C41_5 C 0.62552(19) 0.2002(3) 0.87448(19)
C42_5 C 0.62715(15) 0.3287(2) 0.87285(15)
C43_5 C 0.65735(16) 0.34265(16) 0.8877(2)
C44_5 C 0.6734(2) 0.3266(2) 0.9188(3)
O20_5 O 0.53641(10) 0.2955(2) 0.96359(10)
O21_5 O 0.53590(11) 0.2370(2) 0.96410(11)
C45_5 C 0.7338(4) 0.45325(16) 0.95325(16)
C46_5 C 0.7341(3) 0.42605(14) 0.92605(14)
C47_5 C 0.7661(2) 0.41353(16) 0.91353(16)
H13_5 H 0.7867 0.4223 0.9223
C48_5 C 0.7666(2) 0.38785(15) 0.88785(15)
C49_5 C 0.7354(3) 0.37503(15) 0.87503(15)
H14_5 H 0.7358 0.3580 0.8580
C50_5 C 0.7036(3) 0.38710(16) 0.88710(16)
C51_5 C 0.7050(3) 0.41320(14) 0.91320(14)
H15_5 H 0.6841 0.4217 0.9217
C52_5 C 0.7998(3) 0.37448(19) 0.87448(19)
C53_5 C 0.6713(2) 0.37285(15) 0.87285(15)
C54_5 C 0.65735(16) 0.3877(2) 0.84265(16)
C55_5 C 0.6734(2) 0.4188(3) 0.8266(2)
O26_3 O 0.7045(2) 0.46359(10) 0.96359(10)
O27_3 O 0.7630(2) 0.46410(11) 0.96410(11)
C56_5 C 0.54675(16) 0.45325(16) 0.7662(4)
C57_5 C 0.57395(14) 0.42605(14) 0.7659(3)
C58_5 C 0.58647(16) 0.41353(16) 0.7339(2)
H16_5 H 0.5777 0.4223 0.7133
C59_5 C 0.61215(15) 0.38785(15) 0.7334(2)
C60_5 C 0.62497(15) 0.37503(15) 0.7646(3)
H17_5 H 0.6420 0.3580 0.7642
C61_5 C 0.61290(16) 0.38710(16) 0.7964(3)
C62_5 C 0.58680(14) 0.41320(14) 0.7950(3)
H18_5 H 0.5783 0.4217 0.8159
C63_5 C 0.62552(19) 0.37448(19) 0.7002(3)
C64_5 C 0.62715(15) 0.37285(15) 0.8287(2)
C65_5 C 0.6123(2) 0.34265(16) 0.84265(16)
C66_5 C 0.5812(3) 0.3266(2) 0.8266(2)
O30_5 O 0.53641(10) 0.46359(10) 0.7955(2)
O31_5 O 0.53590(11) 0.46410(11) 0.7370(2)
Zn7_6 Zn 0.30468(5) 0.5000 1.0000
Zn8_6 Zn 0.22745(5) 0.5000 1.0000
O35_6 O 0.3557(3) 0.5000 1.0000
O37_6 O 0.1710(7) 0.5000 1.0000
C100_5 C 0.2662(4) 0.45325(16) 0.95325(16)
C101_5 C 0.2659(3) 0.42605(14) 0.92605(14)
C102_5 C 0.2339(2) 0.41353(16) 0.91353(16)
H28_5 H 0.2133 0.4223 0.9223
C103_5 C 0.2334(2) 0.38785(15) 0.88785(15)
C104_5 C 0.2646(3) 0.37503(15) 0.87503(15)
H29_5 H 0.2642 0.3580 0.8580
C105_5 C 0.2964(3) 0.38710(16) 0.88710(16)
C106_5 C 0.2950(3) 0.41320(14) 0.91320(14)
H30_5 H 0.3159 0.4217 0.9217
C107_5 C 0.2002(3) 0.37448(19) 0.87448(19)
C108_5 C 0.3287(2) 0.37285(15) 0.87285(15)
C109_5 C 0.34265(16) 0.34265(16) 0.8877(2)
C110_5 C 0.3266(2) 0.3266(2) 0.9188(3)
O48_3 O 0.2955(2) 0.46359(10) 0.96359(10)
O49_3 O 0.2370(2) 0.46410(11) 0.96410(11)
O50_5 O 0.2010(2) 0.35240(15) 0.85240(15)
O51_5 O 0.1724(2) 0.38670(13) 0.88670(13)
C111_5 C 0.45325(16) 0.2662(4) 0.95325(16)
C112_5 C 0.42605(14) 0.2659(3) 0.92605(14)
C113_5 C 0.41353(16) 0.2339(2) 0.91353(16)
H31_5 H 0.4223 0.2133 0.9223
C114_5 C 0.38785(15) 0.2334(2) 0.88785(15)
C115_5 C 0.37503(15) 0.2646(3) 0.87503(15)
H32_5 H 0.3580 0.2642 0.8580
C116_5 C 0.38710(16) 0.2964(3) 0.88710(16)
C117_5 C 0.41320(14) 0.2950(3) 0.91320(14)
H33_5 H 0.4217 0.3159 0.9217
C118_5 C 0.37448(19) 0.2002(3) 0.87448(19)
C119_5 C 0.37285(15) 0.3287(2) 0.87285(15)
C120_5 C 0.3877(2) 0.34265(16) 0.84265(16)
C121_5 C 0.4188(3) 0.3266(2) 0.8266(2)
O52_3 O 0.46359(10) 0.2955(2) 0.96359(10)
O53_3 O 0.46410(11) 0.2370(2) 0.96410(11)
O54_5 O 0.35240(15) 0.2010(2) 0.85240(15)
O55_5 O 0.38670(13) 0.1724(2) 0.88670(13)
C122_5 C 0.45325(16) 0.45325(16) 0.7662(4)
C123_5 C 0.42605(14) 0.42605(14) 0.7659(3)
C124_5 C 0.41353(16) 0.41353(16) 0.7339(2)
H34_5 H 0.4223 0.4223 0.7133
C125_5 C 0.38785(15) 0.38785(15) 0.7334(2)
C126_5 C 0.37503(15) 0.37503(15) 0.7646(3)
H35_5 H 0.3580 0.3580 0.7642
C127_5 C 0.38710(16) 0.38710(16) 0.7964(3)
C128_5 C 0.41320(14) 0.41320(14) 0.7950(3)
H36_5 H 0.4217 0.4217 0.8159
C129_5 C 0.37448(19) 0.37448(19) 0.7002(3)
C130_5 C 0.37285(15) 0.37285(15) 0.8287(2)
C131_5 C 0.34265(16) 0.3877(2) 0.84265(16)
C132_5 C 0.3266(2) 0.4188(3) 0.8266(2)
O56_5 O 0.46359(10) 0.46359(10) 0.7955(2)
O57_5 O 0.46410(11) 0.46410(11) 0.7370(2)
O58_5 O 0.35240(15) 0.35240(15) 0.7010(2)
O59_5 O 0.38670(13) 0.38670(13) 0.6724(2)
Zn9_6 Zn 0.69532(5) 0.5000 1.0000
Zn10_6 Zn 0.77255(5) 0.5000 1.0000
O60_6 O 0.6443(3) 0.5000 1.0000
O61_6 O 0.8290(7) 0.5000 1.0000
Zn15_6 Zn 0.5000 0.69532(5) 1.0000
Zn16_3 Zn 0.5000 0.5000 0.80468(5)
Zn18_6 Zn 0.5000 0.77255(5) 1.0000
Zn19_3 Zn 0.5000 0.5000 0.72745(5)
O74_3 O 0.7045(2) 0.53641(10) 0.96359(10)
O76_3 O 0.2955(2) 0.53641(10) 0.96359(10)
O79_3 O 0.7630(2) 0.53590(11) 0.96410(11)
O81_3 O 0.2370(2) 0.53590(11) 0.96410(11)
H47_5 H 0.326835 0.440112 0.845095
H48_5 H 0.341232 0.426133 0.803612
H49_5 H 0.299969 0.412949 0.819329
H89_5 H 0.680671 0.299969 0.912949
H90_5 H 0.696388 0.341232 0.926133
H91_5 H 0.654905 0.326835 0.940112
H92_5 H 0.700031 0.412949 0.819329
H93_5 H 0.658768 0.426133 0.803612
H94_5 H 0.673165 0.440112 0.845095
H105_5 H 0.559888 0.326835 0.845095
H106_5 H 0.573867 0.341232 0.803612
H107_5 H 0.587051 0.299969 0.819329
H111_5 H 0.412949 0.299969 0.819329
H112_5 H 0.426133 0.341232 0.803612
H113_5 H 0.440112 0.326835 0.845095
H114_5 H 0.299969 0.319329 0.912949
H115_5 H 0.341232 0.303612 0.926133
H116_5 H 0.326835 0.345095 0.940112
C100_6 C 0.7338(4) 0.45325(16) 0.04675(16)
C101_6 C 0.7341(3) 0.42605(14) 0.07395(14)
C102_6 C 0.7661(2) 0.41353(16) 0.08647(16)
H28_6 H 0.7867 0.4223 0.0777
C103_6 C 0.7666(2) 0.38785(15) 0.11215(15)
C104_6 C 0.7354(3) 0.37503(15) 0.12497(15)
H29_6 H 0.7358 0.3580 0.1420
C105_6 C 0.7036(3) 0.38710(16) 0.11290(16)
C106_6 C 0.7050(3) 0.41320(14) 0.08680(14)
H30_6 H 0.6841 0.4217 0.0783
C107_6 C 0.7998(3) 0.37448(19) 0.12552(19)
C108_6 C 0.6713(2) 0.37285(15) 0.12715(15)
C109_6 C 0.65735(16) 0.34265(16) 0.1123(2)
C110_6 C 0.6734(2) 0.3266(2) 0.0812(3)
O50_6 O 0.7990(2) 0.35240(15) 0.14760(15)
O51_6 O 0.8276(2) 0.38670(13) 0.11330(13)
C111_6 C 0.54675(16) 0.2662(4) 0.04675(16)
C112_6 C 0.57395(14) 0.2659(3) 0.07395(14)
C113_6 C 0.58647(16) 0.2339(2) 0.08647(16)
H31_6 H 0.5777 0.2133 0.0777
C114_6 C 0.61215(15) 0.2334(2) 0.11215(15)
C115_6 C 0.62497(15) 0.2646(3) 0.12497(15)
H32_6 H 0.6420 0.2642 0.1420
C116_6 C 0.61290(16) 0.2964(3) 0.11290(16)
C117_6 C 0.58680(14) 0.2950(3) 0.08680(14)
H33_6 H 0.5783 0.3159 0.0783
C118_6 C 0.62552(19) 0.2002(3) 0.12552(19)
C119_6 C 0.62715(15) 0.3287(2) 0.12715(15)
C120_6 C 0.6123(2) 0.34265(16) 0.15735(16)
C121_6 C 0.5812(3) 0.3266(2) 0.1734(2)
O54_6 O 0.64760(15) 0.2010(2) 0.14760(15)
O55_6 O 0.61330(13) 0.1724(2) 0.11330(13)
C122_6 C 0.54675(16) 0.45325(16) 0.2338(4)
C123_6 C 0.57395(14) 0.42605(14) 0.2341(3)
C124_6 C 0.58647(16) 0.41353(16) 0.2661(2)
H34_6 H 0.5777 0.4223 0.2867
C125_6 C 0.61215(15) 0.38785(15) 0.2666(2)
C126_6 C 0.62497(15) 0.37503(15) 0.2354(3)
H35_6 H 0.6420 0.3580 0.2358
C127_6 C 0.61290(16) 0.38710(16) 0.2036(3)
C128_6 C 0.58680(14) 0.41320(14) 0.2050(3)
H36_6 H 0.5783 0.4217 0.1841
C129_6 C 0.62552(19) 0.37448(19) 0.2998(3)
C130_6 C 0.62715(15) 0.37285(15) 0.1713(2)
C131_6 C 0.65735(16) 0.3877(2) 0.15735(16)
C132_6 C 0.6734(2) 0.4188(3) 0.1734(2)
O56_6 O 0.53641(10) 0.46359(10) 0.2045(2)
O57_6 O 0.53590(11) 0.46410(11) 0.2630(2)
O58_6 O 0.64760(15) 0.35240(15) 0.2990(2)
O59_6 O 0.61330(13) 0.38670(13) 0.3276(2)
H47_6 H 0.673165 0.440112 0.154905
H48_6 H 0.658768 0.426133 0.196388
H49_6 H 0.700031 0.412949 0.180671
H111_6 H 0.587051 0.299969 0.180671
H112_6 H 0.573867 0.341232 0.196388
H113_6 H 0.559888 0.326835 0.154905
H114_6 H 0.700031 0.319329 0.087051
H115_6 H 0.658768 0.303612 0.0738667
H116_6 H 0.673165 0.345095 0.0598885
C67_6 C 0.7338(4) 0.54675(16) 0.95325(16)
C68_6 C 0.7341(3) 0.57395(14) 0.92605(14)
C69_6 C 0.7661(2) 0.58647(16) 0.91353(16)
H19_6 H 0.7867 0.5777 0.9223
C70_6 C 0.7666(2) 0.61215(15) 0.88785(15)
C71_6 C 0.7354(3) 0.62497(15) 0.87503(15)
H20_6 H 0.7358 0.6420 0.8580
C72_6 C 0.7036(3) 0.61290(16) 0.88710(16)
C73_6 C 0.7050(3) 0.58680(14) 0.91320(14)
H21_6 H 0.6841 0.5783 0.9217
C74_6 C 0.7998(3) 0.62552(19) 0.87448(19)
C75_6 C 0.6713(2) 0.62715(15) 0.87285(15)
C76_6 C 0.65735(16) 0.65735(16) 0.8877(2)
C77_6 C 0.6734(2) 0.6734(2) 0.9188(3)
O38_6 O 0.7990(2) 0.64760(15) 0.85240(15)
O39_6 O 0.8276(2) 0.61330(13) 0.88670(13)
C78_6 C 0.54675(16) 0.7338(4) 0.95325(16)
C79_6 C 0.57395(14) 0.7341(3) 0.92605(14)
C80_6 C 0.58647(16) 0.7661(2) 0.91353(16)
H22_6 H 0.5777 0.7867 0.9223
C81_6 C 0.61215(15) 0.7666(2) 0.88785(15)
C82_6 C 0.62497(15) 0.7354(3) 0.87503(15)
H23_6 H 0.6420 0.7358 0.8580
C83_6 C 0.61290(16) 0.7036(3) 0.88710(16)
C84_6 C 0.58680(14) 0.7050(3) 0.91320(14)
H24_6 H 0.5783 0.6841 0.9217
C85_6 C 0.62552(19) 0.7998(3) 0.87448(19)
C86_6 C 0.62715(15) 0.6713(2) 0.87285(15)
C87_6 C 0.6123(2) 0.65735(16) 0.84265(16)
C88_6 C 0.5812(3) 0.6734(2) 0.8266(2)
O40_6 O 0.53641(10) 0.7045(2) 0.96359(10)
O41_6 O 0.53590(11) 0.7630(2) 0.96410(11)
O42_6 O 0.64760(15) 0.7990(2) 0.85240(15)
O43_6 O 0.61330(13) 0.8276(2) 0.88670(13)
C89_6 C 0.54675(16) 0.54675(16) 0.7662(4)
C90_6 C 0.57395(14) 0.57395(14) 0.7659(3)
C91_6 C 0.58647(16) 0.58647(16) 0.7339(2)
H25_6 H 0.5777 0.5777 0.7133
C92_6 C 0.61215(15) 0.61215(15) 0.7334(2)
C93_6 C 0.62497(15) 0.62497(15) 0.7646(3)
H26_6 H 0.6420 0.6420 0.7642
C94_6 C 0.61290(16) 0.61290(16) 0.7964(3)
C95_6 C 0.58680(14) 0.58680(14) 0.7950(3)
H27_6 H 0.5783 0.5783 0.8159
C96_6 C 0.62552(19) 0.62552(19) 0.7002(3)
C97_6 C 0.62715(15) 0.62715(15) 0.8287(2)
C98_6 C 0.65735(16) 0.6123(2) 0.84265(16)
C99_6 C 0.6734(2) 0.5812(3) 0.8266(2)
O44_6 O 0.53641(10) 0.53641(10) 0.7955(2)
O45_6 O 0.53590(11) 0.53590(11) 0.7370(2)
O46_6 O 0.64760(15) 0.64760(15) 0.7010(2)
O47_6 O 0.61330(13) 0.61330(13) 0.6724(2)
H95_6 H 0.587051 0.700031 0.819329
H96_6 H 0.573867 0.658768 0.803612
H97_6 H 0.559888 0.673165 0.845095
H98_6 H 0.700031 0.680671 0.912949
H99_6 H 0.658768 0.696388 0.926133
H100_6 H 0.673165 0.654905 0.940112
H108_6 H 0.673165 0.559888 0.845095
H109_6 H 0.658768 0.573867 0.803612
H110_6 H 0.700031 0.587051 0.819329
O5_11 O 0.5000 0.6443(3) 0.0000
O7_11 O 0.5000 0.8290(7) -0.0000
C34_6 C 0.54675(16) 0.7338(4) 0.04675(16)
C35_6 C 0.57395(14) 0.7341(3) 0.07395(14)
C36_6 C 0.58647(16) 0.7661(2) 0.08647(16)
H10_6 H 0.5777 0.7867 0.0777
C37_6 C 0.61215(15) 0.7666(2) 0.11215(15)
C38_6 C 0.62497(15) 0.7354(3) 0.12497(15)
H11_6 H 0.6420 0.7358 0.1420
C39_6 C 0.61290(16) 0.7036(3) 0.11290(16)
C40_6 C 0.58680(14) 0.7050(3) 0.08680(14)
H12_6 H 0.5783 0.6841 0.0783
C41_6 C 0.62552(19) 0.7998(3) 0.12552(19)
C42_6 C 0.62715(15) 0.6713(2) 0.12715(15)
C43_6 C 0.65735(16) 0.65735(16) 0.1123(2)
C44_6 C 0.6734(2) 0.6734(2) 0.0812(3)
O20_6 O 0.53641(10) 0.7045(2) 0.03641(10)
O21_6 O 0.53590(11) 0.7630(2) 0.03590(11)
C45_6 C 0.7338(4) 0.54675(16) 0.04675(16)
C46_6 C 0.7341(3) 0.57395(14) 0.07395(14)
C47_6 C 0.7661(2) 0.58647(16) 0.08647(16)
H13_6 H 0.7867 0.5777 0.0777
C48_6 C 0.7666(2) 0.61215(15) 0.11215(15)
C49_6 C 0.7354(3) 0.62497(15) 0.12497(15)
H14_6 H 0.7358 0.6420 0.1420
C50_6 C 0.7036(3) 0.61290(16) 0.11290(16)
C51_6 C 0.7050(3) 0.58680(14) 0.08680(14)
H15_6 H 0.6841 0.5783 0.0783
C52_6 C 0.7998(3) 0.62552(19) 0.12552(19)
C53_6 C 0.6713(2) 0.62715(15) 0.12715(15)
C54_6 C 0.65735(16) 0.6123(2) 0.15735(16)
C55_6 C 0.6734(2) 0.5812(3) 0.1734(2)
C56_6 C 0.54675(16) 0.54675(16) 0.2338(4)
C57_6 C 0.57395(14) 0.57395(14) 0.2341(3)
C58_6 C 0.58647(16) 0.58647(16) 0.2661(2)
H16_6 H 0.5777 0.5777 0.2867
C59_6 C 0.61215(15) 0.61215(15) 0.2666(2)
C60_6 C 0.62497(15) 0.62497(15) 0.2354(3)
H17_6 H 0.6420 0.6420 0.2358
C61_6 C 0.61290(16) 0.61290(16) 0.2036(3)
C62_6 C 0.58680(14) 0.58680(14) 0.2050(3)
H18_6 H 0.5783 0.5783 0.1841
C63_6 C 0.62552(19) 0.62552(19) 0.2998(3)
C64_6 C 0.62715(15) 0.62715(15) 0.1713(2)
C65_6 C 0.6123(2) 0.65735(16) 0.15735(16)
C66_6 C 0.5812(3) 0.6734(2) 0.1734(2)
O30_6 O 0.53641(10) 0.53641(10) 0.2045(2)
O31_6 O 0.53590(11) 0.53590(11) 0.2630(2)
H89_6 H 0.680671 0.700031 0.087051
H90_6 H 0.696388 0.658768 0.0738667
H91_6 H 0.654905 0.673165 0.0598885
H92_6 H 0.700031 0.587051 0.180671
H93_6 H 0.658768 0.573867 0.196388
H94_6 H 0.673165 0.559888 0.154905
H105_6 H 0.559888 0.673165 0.154905
H106_6 H 0.573867 0.658768 0.196388
H107_6 H 0.587051 0.700031 0.180671
C1_6 C 0.45325(16) 0.7338(4) 0.95325(16)
C2_6 C 0.42605(14) 0.7341(3) 0.92605(14)
C3_6 C 0.41353(16) 0.7661(2) 0.91353(16)
H1_6 H 0.4223 0.7867 0.9223
C4_6 C 0.38785(15) 0.7666(2) 0.88785(15)
C5_6 C 0.37503(15) 0.7354(3) 0.87503(15)
H2_6 H 0.3580 0.7358 0.8580
C6_6 C 0.38710(16) 0.7036(3) 0.88710(16)
C7_6 C 0.41320(14) 0.7050(3) 0.91320(14)
H3_6 H 0.4217 0.6841 0.9217
C8_6 C 0.37448(19) 0.7998(3) 0.87448(19)
C9_6 C 0.37285(15) 0.6713(2) 0.87285(15)
C10_6 C 0.34265(16) 0.65735(16) 0.8877(2)
C11_6 C 0.3266(2) 0.6734(2) 0.9188(3)
O4_6 O 0.46359(10) 0.7045(2) 0.96359(10)
O5_12 O 0.5000 0.6443(3) 1.0000
O6_6 O 0.46410(11) 0.7630(2) 0.96410(11)
O7_12 O 0.5000 0.8290(7) 1.0000
C12_6 C 0.2662(4) 0.54675(16) 0.95325(16)
C13_6 C 0.2659(3) 0.57395(14) 0.92605(14)
C14_6 C 0.2339(2) 0.58647(16) 0.91353(16)
H4_6 H 0.2133 0.5777 0.9223
C15_6 C 0.2334(2) 0.61215(15) 0.88785(15)
C16_6 C 0.2646(3) 0.62497(15) 0.87503(15)
H5_6 H 0.2642 0.6420 0.8580
C17_6 C 0.2964(3) 0.61290(16) 0.88710(16)
C18_6 C 0.2950(3) 0.58680(14) 0.91320(14)
H6_6 H 0.3159 0.5783 0.9217
C19_6 C 0.2002(3) 0.62552(19) 0.87448(19)
C20_6 C 0.3287(2) 0.62715(15) 0.87285(15)
C21_6 C 0.34265(16) 0.6123(2) 0.84265(16)
C22_6 C 0.3266(2) 0.5812(3) 0.8266(2)
C23_6 C 0.45325(16) 0.54675(16) 0.7662(4)
C24_6 C 0.42605(14) 0.57395(14) 0.7659(3)
C25_6 C 0.41353(16) 0.58647(16) 0.7339(2)
H7_6 H 0.4223 0.5777 0.7133
C26_6 C 0.38785(15) 0.61215(15) 0.7334(2)
C27_6 C 0.37503(15) 0.62497(15) 0.7646(3)
H8_6 H 0.3580 0.6420 0.7642
C28_6 C 0.38710(16) 0.61290(16) 0.7964(3)
C29_6 C 0.41320(14) 0.58680(14) 0.7950(3)
H9_6 H 0.4217 0.5783 0.8159
C30_6 C 0.37448(19) 0.62552(19) 0.7002(3)
C31_6 C 0.37285(15) 0.62715(15) 0.8287(2)
C32_6 C 0.3877(2) 0.65735(16) 0.84265(16)
C33_6 C 0.4188(3) 0.6734(2) 0.8266(2)
O16_6 O 0.46359(10) 0.53641(10) 0.7955(2)
O17_6 O 0.46410(11) 0.53590(11) 0.7370(2)
H68_6 H 0.319329 0.700031 0.912949
H69_6 H 0.303612 0.658768 0.926133
H70_6 H 0.345095 0.673165 0.940112
H77_6 H 0.440112 0.673165 0.845095
H78_6 H 0.426133 0.658768 0.803612
H79_6 H 0.412949 0.700031 0.819329
H80_6 H 0.299969 0.587051 0.819329
H81_6 H 0.341232 0.573867 0.803612
H82_6 H 0.326835 0.559888 0.845095
O9_3 O 0.28289(14) 0.1619(3) 0.78289(14)
O11_3 O 0.4036(2) 0.0964(2) 0.9036(2)
O62_9 O 0.21711(14) 0.21711(14) 0.6619(3)
O63_9 O 0.0964(2) 0.0964(2) 0.5964(2)
O64_5 O 0.3381(3) 0.28289(14) 0.71711(14)
O65_5 O 0.4036(2) 0.4036(2) 0.5964(2)
O66_3 O 0.3381(3) 0.21711(14) 0.78289(14)
O67_3 O 0.28289(14) 0.21711(14) 0.8381(3)
O70_9 O 0.1619(3) 0.21711(14) 0.71711(14)
O71_9 O 0.21711(14) 0.1619(3) 0.71711(14)
O72_5 O 0.28289(14) 0.3381(3) 0.71711(14)
O73_5 O 0.28289(14) 0.28289(14) 0.6619(3)
O85_9 O 0.14760(15) 0.14760(15) 0.7010(2)
O91_3 O 0.2990(2) 0.14760(15) 0.85240(15)
O93_9 O 0.11330(13) 0.11330(13) 0.6724(2)
O99_3 O 0.3276(2) 0.11330(13) 0.88670(13)
O23_3 O 0.71711(14) 0.8381(3) 0.78289(14)
O25_3 O 0.5964(2) 0.9036(2) 0.9036(2)
O68_3 O 0.71711(14) 0.78289(14) 0.8381(3)
O69_3 O 0.6619(3) 0.78289(14) 0.78289(14)
O90_3 O 0.7010(2) 0.85240(15) 0.85240(15)
O98_3 O 0.6724(2) 0.88670(13) 0.88670(13)
O62_10 O 0.78289(14) 0.78289(14) 0.6619(3)
O63_10 O 0.9036(2) 0.9036(2) 0.5964(2)
O64_6 O 0.6619(3) 0.71711(14) 0.71711(14)
O65_6 O 0.5964(2) 0.5964(2) 0.5964(2)
O70_10 O 0.8381(3) 0.78289(14) 0.71711(14)
O71_10 O 0.78289(14) 0.8381(3) 0.71711(14)
O72_6 O 0.71711(14) 0.6619(3) 0.71711(14)
O73_6 O 0.71711(14) 0.71711(14) 0.6619(3)
O85_10 O 0.85240(15) 0.85240(15) 0.7010(2)
O93_10 O 0.88670(13) 0.88670(13) 0.6724(2)
O23_4 O 0.71711(14) 0.1619(3) 0.21711(14)
O25_4 O 0.5964(2) 0.0964(2) 0.0964(2)
O68_4 O 0.71711(14) 0.21711(14) 0.1619(3)
O69_4 O 0.6619(3) 0.21711(14) 0.21711(14)
O90_4 O 0.7010(2) 0.14760(15) 0.14760(15)
O98_4 O 0.6724(2) 0.11330(13) 0.11330(13)
O9_4 O 0.28289(14) 0.8381(3) 0.21711(14)
O11_4 O 0.4036(2) 0.9036(2) 0.0964(2)
O62_11 O 0.21711(14) 0.78289(14) 0.3381(3)
O63_11 O 0.0964(2) 0.9036(2) 0.4036(2)
O64_7 O 0.3381(3) 0.71711(14) 0.28289(14)
O65_7 O 0.4036(2) 0.5964(2) 0.4036(2)
O66_4 O 0.3381(3) 0.78289(14) 0.21711(14)
O67_4 O 0.28289(14) 0.78289(14) 0.1619(3)
O70_11 O 0.1619(3) 0.78289(14) 0.28289(14)
O71_11 O 0.21711(14) 0.8381(3) 0.28289(14)
O72_7 O 0.28289(14) 0.6619(3) 0.28289(14)
O73_7 O 0.28289(14) 0.71711(14) 0.3381(3)
O85_11 O 0.14760(15) 0.85240(15) 0.2990(2)
O91_4 O 0.2990(2) 0.85240(15) 0.14760(15)
O93_11 O 0.11330(13) 0.88670(13) 0.3276(2)
O99_4 O 0.3276(2) 0.88670(13) 0.11330(13)
O62_12 O 0.78289(14) 0.21711(14) 0.3381(3)
O63_12 O 0.9036(2) 0.0964(2) 0.4036(2)
O64_8 O 0.6619(3) 0.28289(14) 0.28289(14)
O65_8 O 0.5964(2) 0.4036(2) 0.4036(2)
O70_12 O 0.8381(3) 0.21711(14) 0.28289(14)
O71_12 O 0.78289(14) 0.1619(3) 0.28289(14)
O72_8 O 0.71711(14) 0.3381(3) 0.28289(14)
O73_8 O 0.71711(14) 0.28289(14) 0.3381(3)
O85_12 O 0.85240(15) 0.14760(15) 0.2990(2)
O93_12 O 0.88670(13) 0.11330(13) 0.3276(2)
O62_13 O 0.21711(14) 0.3381(3) 0.78289(14)
O63_13 O 0.0964(2) 0.4036(2) 0.9036(2)
O70_13 O 0.21711(14) 0.28289(14) 0.8381(3)
O71_13 O 0.1619(3) 0.28289(14) 0.78289(14)
O85_13 O 0.14760(15) 0.2990(2) 0.85240(15)
O93_13 O 0.11330(13) 0.3276(2) 0.88670(13)
O62_14 O 0.78289(14) 0.3381(3) 0.21711(14)
O63_14 O 0.9036(2) 0.4036(2) 0.0964(2)
O70_14 O 0.78289(14) 0.28289(14) 0.1619(3)
O71_14 O 0.8381(3) 0.28289(14) 0.21711(14)
O85_14 O 0.85240(15) 0.2990(2) 0.14760(15)
O93_14 O 0.88670(13) 0.3276(2) 0.11330(13)
O62_15 O 0.78289(14) 0.6619(3) 0.78289(14)
O63_15 O 0.9036(2) 0.5964(2) 0.9036(2)
O70_15 O 0.78289(14) 0.71711(14) 0.8381(3)
O71_15 O 0.8381(3) 0.71711(14) 0.78289(14)
O85_15 O 0.85240(15) 0.7010(2) 0.85240(15)
O93_15 O 0.88670(13) 0.6724(2) 0.88670(13)
O62_16 O 0.21711(14) 0.6619(3) 0.21711(14)
O63_16 O 0.0964(2) 0.5964(2) 0.0964(2)
O70_16 O 0.21711(14) 0.71711(14) 0.1619(3)
O71_16 O 0.1619(3) 0.71711(14) 0.21711(14)
O85_16 O 0.14760(15) 0.7010(2) 0.14760(15)
O93_16 O 0.11330(13) 0.6724(2) 0.11330(13)
Zn9_7 Zn 0.0000 0.19532(5) 0.0000
Zn10_7 Zn -0.0000 0.27255(5) 0.0000
O60_7 O 0.0000 0.1443(3) 0.0000
O61_7 O 0.0000 0.3290(7) 0.0000
Zn15_7 Zn 0.0000 -0.0000 0.19532(5)
Zn17_4 Zn 0.19532(5) -0.0000 0.0000
Zn18_7 Zn -0.0000 0.0000 0.27255(5)
Zn20_4 Zn 0.27255(5) -0.0000 0.0000
O77_4 O 0.03641(10) 0.2045(2) 0.03641(10)
O82_4 O 0.03590(11) 0.2630(2) 0.03590(11)
Zn1_7 Zn 0.0000 0.0000 0.80468(5)
Zn2_7 Zn 0.0000 0.0000 0.72745(5)
O5_13 O 0.0000 0.0000 0.8557(3)
O7_13 O 0.0000 0.0000 0.6710(7)
Zn9_8 Zn 0.0000 0.19532(5) 1.0000
Zn10_8 Zn -0.0000 0.27255(5) 1.0000
O60_8 O 0.0000 0.1443(3) 1.0000
O61_8 O 0.0000 0.3290(7) 1.0000
Zn17_5 Zn 0.19532(5) -0.0000 1.0000
Zn20_5 Zn 0.27255(5) -0.0000 1.0000
O75_4 O 0.03641(10) 0.2045(2) 0.96359(10)
O78_4 O 0.03641(10) 0.03641(10) 0.7955(2)
O80_4 O 0.03590(11) 0.2630(2) 0.96410(11)
O83_4 O 0.03590(11) 0.03590(11) 0.7370(2)
Zn7_7 Zn -0.0000 0.80468(5) 0.0000
Zn8_7 Zn 0.0000 0.72745(5) 0.0000
C67_7 C 0.04675(16) 0.7662(4) 0.04675(16)
C68_7 C 0.07395(14) 0.7659(3) 0.07395(14)
C69_7 C 0.08647(16) 0.7339(2) 0.08647(16)
H19_7 H 0.0777 0.7133 0.0777
C70_7 C 0.11215(15) 0.7334(2) 0.11215(15)
C71_7 C 0.12497(15) 0.7646(3) 0.12497(15)
H20_7 H 0.1420 0.7642 0.1420
C72_7 C 0.11290(16) 0.7964(3) 0.11290(16)
C73_7 C 0.08680(14) 0.7950(3) 0.08680(14)
H21_7 H 0.0783 0.8159 0.0783
C74_7 C 0.12552(19) 0.7002(3) 0.12552(19)
C75_7 C 0.12715(15) 0.8287(2) 0.12715(15)
C76_7 C 0.1123(2) 0.84265(16) 0.15735(16)
C77_7 C 0.0812(3) 0.8266(2) 0.1734(2)
O34_4 O 0.03641(10) 0.7955(2) 0.03641(10)
O35_7 O -0.0000 0.8557(3) 0.0000
O36_4 O 0.03590(11) 0.7370(2) 0.03590(11)
O37_7 O 0.0000 0.6710(7) 0.0000
C78_7 C 0.04675(16) 0.95325(16) 0.2338(4)
C79_7 C 0.07395(14) 0.92605(14) 0.2341(3)
C80_7 C 0.08647(16) 0.91353(16) 0.2661(2)
H22_7 H 0.0777 0.9223 0.2867
C81_7 C 0.11215(15) 0.88785(15) 0.2666(2)
C82_7 C 0.12497(15) 0.87503(15) 0.2354(3)
H23_7 H 0.1420 0.8580 0.2358
C83_7 C 0.11290(16) 0.88710(16) 0.2036(3)
C84_7 C 0.08680(14) 0.91320(14) 0.2050(3)
H24_7 H 0.0783 0.9217 0.1841
C85_7 C 0.12552(19) 0.87448(19) 0.2998(3)
C86_7 C 0.12715(15) 0.87285(15) 0.1713(2)
C87_7 C 0.15735(16) 0.8877(2) 0.15735(16)
C88_7 C 0.1734(2) 0.9188(3) 0.1734(2)
O40_7 O 0.03641(10) 0.96359(10) 0.2045(2)
O41_7 O 0.03590(11) 0.96410(11) 0.2630(2)
C89_7 C 0.2338(4) 0.95325(16) 0.04675(16)
C90_7 C 0.2341(3) 0.92605(14) 0.07395(14)
C91_7 C 0.2661(2) 0.91353(16) 0.08647(16)
H25_7 H 0.2867 0.9223 0.0777
C92_7 C 0.2666(2) 0.88785(15) 0.11215(15)
C93_7 C 0.2354(3) 0.87503(15) 0.12497(15)
H26_7 H 0.2358 0.8580 0.1420
C94_7 C 0.2036(3) 0.88710(16) 0.11290(16)
C95_7 C 0.2050(3) 0.91320(14) 0.08680(14)
H27_7 H 0.1841 0.9217 0.0783
C96_7 C 0.2998(3) 0.87448(19) 0.12552(19)
C97_7 C 0.1713(2) 0.87285(15) 0.12715(15)
C98_7 C 0.15735(16) 0.84265(16) 0.1123(2)
C99_7 C 0.1734(2) 0.8266(2) 0.0812(3)
O44_7 O 0.2045(2) 0.96359(10) 0.03641(10)
O45_7 O 0.2630(2) 0.96410(11) 0.03590(11)
Zn15_8 Zn 0.0000 1.0000 0.19532(5)
Zn17_6 Zn 0.19532(5) 1.0000 0.0000
Zn18_8 Zn -0.0000 1.0000 0.27255(5)
Zn20_6 Zn 0.27255(5) 1.0000 0.0000
H95_7 H 0.180671 0.912949 0.200031
H96_7 H 0.196388 0.926133 0.158768
H97_7 H 0.154905 0.940112 0.173165
H98_7 H 0.087051 0.799969 0.180671
H99_7 H 0.0738667 0.841232 0.196388
H100_7 H 0.0598885 0.826835 0.154905
H108_7 H 0.154905 0.826835 0.0598885
H109_7 H 0.196388 0.841232 0.0738667
H110_7 H 0.180671 0.799969 0.087051
Zn1_8 Zn 0.0000 1.0000 0.80468(5)
Zn2_8 Zn 0.0000 1.0000 0.72745(5)
C1_7 C 0.04675(16) 0.95325(16) 0.7662(4)
C2_7 C 0.07395(14) 0.92605(14) 0.7659(3)
C3_7 C 0.08647(16) 0.91353(16) 0.7339(2)
H1_7 H 0.0777 0.9223 0.7133
C4_7 C 0.11215(15) 0.88785(15) 0.7334(2)
C5_7 C 0.12497(15) 0.87503(15) 0.7646(3)
H2_7 H 0.1420 0.8580 0.7642
C6_7 C 0.11290(16) 0.88710(16) 0.7964(3)
C7_7 C 0.08680(14) 0.91320(14) 0.7950(3)
H3_7 H 0.0783 0.9217 0.8159
C8_7 C 0.12552(19) 0.87448(19) 0.7002(3)
C9_7 C 0.12715(15) 0.87285(15) 0.8287(2)
C10_7 C 0.1123(2) 0.84265(16) 0.84265(16)
C11_7 C 0.0812(3) 0.8266(2) 0.8266(2)
O4_7 O 0.03641(10) 0.96359(10) 0.7955(2)
O5_14 O 0.0000 1.0000 0.8557(3)
O6_7 O 0.03590(11) 0.96410(11) 0.7370(2)
O7_14 O 0.0000 1.0000 0.6710(7)
C12_7 C 0.04675(16) 0.7662(4) 0.95325(16)
C13_7 C 0.07395(14) 0.7659(3) 0.92605(14)
C14_7 C 0.08647(16) 0.7339(2) 0.91353(16)
H4_7 H 0.0777 0.7133 0.9223
C15_7 C 0.11215(15) 0.7334(2) 0.88785(15)
C16_7 C 0.12497(15) 0.7646(3) 0.87503(15)
H5_7 H 0.1420 0.7642 0.8580
C17_7 C 0.11290(16) 0.7964(3) 0.88710(16)
C18_7 C 0.08680(14) 0.7950(3) 0.91320(14)
H6_7 H 0.0783 0.8159 0.9217
C19_7 C 0.12552(19) 0.7002(3) 0.87448(19)
C20_7 C 0.12715(15) 0.8287(2) 0.87285(15)
C21_7 C 0.15735(16) 0.84265(16) 0.8877(2)
C22_7 C 0.1734(2) 0.8266(2) 0.9188(3)
O12_4 O 0.03641(10) 0.7955(2) 0.96359(10)
O13_4 O 0.03590(11) 0.7370(2) 0.96410(11)
C23_7 C 0.2338(4) 0.95325(16) 0.95325(16)
C24_7 C 0.2341(3) 0.92605(14) 0.92605(14)
C25_7 C 0.2661(2) 0.91353(16) 0.91353(16)
H7_7 H 0.2867 0.9223 0.9223
C26_7 C 0.2666(2) 0.88785(15) 0.88785(15)
C27_7 C 0.2354(3) 0.87503(15) 0.87503(15)
H8_7 H 0.2358 0.8580 0.8580
C28_7 C 0.2036(3) 0.88710(16) 0.88710(16)
C29_7 C 0.2050(3) 0.91320(14) 0.91320(14)
H9_7 H 0.1841 0.9217 0.9217
C30_7 C 0.2998(3) 0.87448(19) 0.87448(19)
C31_7 C 0.1713(2) 0.87285(15) 0.87285(15)
C32_7 C 0.15735(16) 0.8877(2) 0.84265(16)
C33_7 C 0.1734(2) 0.9188(3) 0.8266(2)
O16_7 O 0.2045(2) 0.96359(10) 0.96359(10)
O17_7 O 0.2630(2) 0.96410(11) 0.96410(11)
Zn7_8 Zn 0.0000 0.80468(5) 1.0000
Zn8_8 Zn 0.0000 0.72745(5) 1.0000
O35_8 O 0.0000 0.8557(3) 1.0000
O37_8 O -0.0000 0.6710(7) 1.0000
Zn17_7 Zn 0.19532(5) 1.0000 1.0000
Zn20_7 Zn 0.27255(5) 1.0000 1.0000
H68_7 H 0.087051 0.819329 0.799969
H69_7 H 0.0738667 0.803612 0.841232
H70_7 H 0.0598885 0.845095 0.826835
H77_7 H 0.154905 0.940112 0.826835
H78_7 H 0.196388 0.926133 0.841232
H79_7 H 0.180671 0.912949 0.799969
H80_7 H 0.180671 0.799969 0.912949
H81_7 H 0.196388 0.841232 0.926133
H82_7 H 0.154905 0.826835 0.940112
Zn9_9 Zn 1.0000 0.19532(5) 0.0000
Zn10_9 Zn 1.0000 0.27255(5) 0.0000
O60_9 O 1.0000 0.1443(3) 0.0000
O61_9 O 1.0000 0.3290(7) 0.0000
Zn15_9 Zn 1.0000 -0.0000 0.19532(5)
Zn16_4 Zn 0.80468(5) -0.0000 0.0000
Zn18_9 Zn 1.0000 0.0000 0.27255(5)
Zn19_4 Zn 0.72745(5) -0.0000 0.0000
O74_4 O 0.96359(10) 0.2045(2) 0.03641(10)
O79_4 O 0.96410(11) 0.2630(2) 0.03590(11)
Zn1_9 Zn 1.0000 0.0000 0.80468(5)
Zn2_9 Zn 1.0000 0.0000 0.72745(5)
O5_15 O 1.0000 0.0000 0.8557(3)
O7_15 O 1.0000 0.0000 0.6710(7)
C34_7 C 0.95325(16) 0.04675(16) 0.7662(4)
C35_7 C 0.92605(14) 0.07395(14) 0.7659(3)
C36_7 C 0.91353(16) 0.08647(16) 0.7339(2)
H10_7 H 0.9223 0.0777 0.7133
C37_7 C 0.88785(15) 0.11215(15) 0.7334(2)
C38_7 C 0.87503(15) 0.12497(15) 0.7646(3)
H11_7 H 0.8580 0.1420 0.7642
C39_7 C 0.88710(16) 0.11290(16) 0.7964(3)
C40_7 C 0.91320(14) 0.08680(14) 0.7950(3)
H12_7 H 0.9217 0.0783 0.8159
C41_7 C 0.87448(19) 0.12552(19) 0.7002(3)
C42_7 C 0.87285(15) 0.12715(15) 0.8287(2)
C43_7 C 0.8877(2) 0.15735(16) 0.84265(16)
C44_7 C 0.9188(3) 0.1734(2) 0.8266(2)
O20_7 O 0.96359(10) 0.03641(10) 0.7955(2)
O21_7 O 0.96410(11) 0.03590(11) 0.7370(2)
C45_7 C 0.95325(16) 0.2338(4) 0.95325(16)
C46_7 C 0.92605(14) 0.2341(3) 0.92605(14)
C47_7 C 0.91353(16) 0.2661(2) 0.91353(16)
H13_7 H 0.9223 0.2867 0.9223
C48_7 C 0.88785(15) 0.2666(2) 0.88785(15)
C49_7 C 0.87503(15) 0.2354(3) 0.87503(15)
H14_7 H 0.8580 0.2358 0.8580
C50_7 C 0.88710(16) 0.2036(3) 0.88710(16)
C51_7 C 0.91320(14) 0.2050(3) 0.91320(14)
H15_7 H 0.9217 0.1841 0.9217
C52_7 C 0.87448(19) 0.2998(3) 0.87448(19)
C53_7 C 0.87285(15) 0.1713(2) 0.87285(15)
C54_7 C 0.84265(16) 0.15735(16) 0.8877(2)
C55_7 C 0.8266(2) 0.1734(2) 0.9188(3)
O26_4 O 0.96359(10) 0.2045(2) 0.96359(10)
O27_4 O 0.96410(11) 0.2630(2) 0.96410(11)
C56_7 C 0.7662(4) 0.04675(16) 0.95325(16)
C57_7 C 0.7659(3) 0.07395(14) 0.92605(14)
C58_7 C 0.7339(2) 0.08647(16) 0.91353(16)
H16_7 H 0.7133 0.0777 0.9223
C59_7 C 0.7334(2) 0.11215(15) 0.88785(15)
C60_7 C 0.7646(3) 0.12497(15) 0.87503(15)
H17_7 H 0.7642 0.1420 0.8580
C61_7 C 0.7964(3) 0.11290(16) 0.88710(16)
C62_7 C 0.7950(3) 0.08680(14) 0.91320(14)
H18_7 H 0.8159 0.0783 0.9217
C63_7 C 0.7002(3) 0.12552(19) 0.87448(19)
C64_7 C 0.8287(2) 0.12715(15) 0.87285(15)
C65_7 C 0.84265(16) 0.1123(2) 0.84265(16)
C66_7 C 0.8266(2) 0.0812(3) 0.8266(2)
O30_7 O 0.7955(2) 0.03641(10) 0.96359(10)
O31_7 O 0.7370(2) 0.03590(11) 0.96410(11)
Zn9_10 Zn 1.0000 0.19532(5) 1.0000
Zn10_10 Zn 1.0000 0.27255(5) 1.0000
O60_10 O 1.0000 0.1443(3) 1.0000
O61_10 O 1.0000 0.3290(7) 1.0000
Zn16_5 Zn 0.80468(5) -0.0000 1.0000
Zn19_5 Zn 0.72745(5) -0.0000 1.0000
H89_7 H 0.912949 0.180671 0.799969
H90_7 H 0.926133 0.196388 0.841232
H91_7 H 0.940112 0.154905 0.826835
H92_7 H 0.819329 0.200031 0.912949
H93_7 H 0.803612 0.158768 0.926133
H94_7 H 0.845095 0.173165 0.940112
H105_7 H 0.845095 0.0598885 0.826835
H106_7 H 0.803612 0.0738667 0.841232
H107_7 H 0.819329 0.087051 0.799969
Zn7_9 Zn 1.0000 0.80468(5) 0.0000
Zn8_9 Zn 1.0000 0.72745(5) 0.0000
O35_9 O 1.0000 0.8557(3) 0.0000
O37_9 O 1.0000 0.6710(7) 0.0000
Zn15_10 Zn 1.0000 1.0000 0.19532(5)
Zn16_6 Zn 0.80468(5) 1.0000 0.0000
Zn18_10 Zn 1.0000 1.0000 0.27255(5)
Zn19_6 Zn 0.72745(5) 1.0000 0.0000
O76_4 O 0.96359(10) 0.7955(2) 0.03641(10)
O81_4 O 0.96410(11) 0.7370(2) 0.03590(11)
Zn1_10 Zn 1.0000 1.0000 0.80468(5)
Zn2_10 Zn 1.0000 1.0000 0.72745(5)
O5_16 O 1.0000 1.0000 0.8557(3)
O7_16 O 1.0000 1.0000 0.6710(7)
Zn7_10 Zn 1.0000 0.80468(5) 1.0000
Zn8_10 Zn 1.0000 0.72745(5) 1.0000
O35_10 O 1.0000 0.8557(3) 1.0000
O37_10 O 1.0000 0.6710(7) 1.0000
C100_7 C 0.95325(16) 0.7662(4) 0.95325(16)
C101_7 C 0.92605(14) 0.7659(3) 0.92605(14)
C102_7 C 0.91353(16) 0.7339(2) 0.91353(16)
H28_7 H 0.9223 0.7133 0.9223
C103_7 C 0.88785(15) 0.7334(2) 0.88785(15)
C104_7 C 0.87503(15) 0.7646(3) 0.87503(15)
H29_7 H 0.8580 0.7642 0.8580
C105_7 C 0.88710(16) 0.7964(3) 0.88710(16)
C106_7 C 0.91320(14) 0.7950(3) 0.91320(14)
H30_7 H 0.9217 0.8159 0.9217
C107_7 C 0.87448(19) 0.7002(3) 0.87448(19)
C108_7 C 0.87285(15) 0.8287(2) 0.87285(15)
C109_7 C 0.8877(2) 0.84265(16) 0.84265(16)
C110_7 C 0.9188(3) 0.8266(2) 0.8266(2)
O48_4 O 0.96359(10) 0.7955(2) 0.96359(10)
O49_4 O 0.96410(11) 0.7370(2) 0.96410(11)
C111_7 C 0.95325(16) 0.95325(16) 0.7662(4)
C112_7 C 0.92605(14) 0.92605(14) 0.7659(3)
C113_7 C 0.91353(16) 0.91353(16) 0.7339(2)
H31_7 H 0.9223 0.9223 0.7133
C114_7 C 0.88785(15) 0.88785(15) 0.7334(2)
C115_7 C 0.87503(15) 0.87503(15) 0.7646(3)
H32_7 H 0.8580 0.8580 0.7642
C116_7 C 0.88710(16) 0.88710(16) 0.7964(3)
C117_7 C 0.91320(14) 0.91320(14) 0.7950(3)
H33_7 H 0.9217 0.9217 0.8159
C118_7 C 0.87448(19) 0.87448(19) 0.7002(3)
C119_7 C 0.87285(15) 0.87285(15) 0.8287(2)
C120_7 C 0.84265(16) 0.8877(2) 0.84265(16)
C121_7 C 0.8266(2) 0.9188(3) 0.8266(2)
O52_4 O 0.96359(10) 0.96359(10) 0.7955(2)
O53_4 O 0.96410(11) 0.96410(11) 0.7370(2)
C122_7 C 0.7662(4) 0.95325(16) 0.95325(16)
C123_7 C 0.7659(3) 0.92605(14) 0.92605(14)
C124_7 C 0.7339(2) 0.91353(16) 0.91353(16)
H34_7 H 0.7133 0.9223 0.9223
C125_7 C 0.7334(2) 0.88785(15) 0.88785(15)
C126_7 C 0.7646(3) 0.87503(15) 0.87503(15)
H35_7 H 0.7642 0.8580 0.8580
C127_7 C 0.7964(3) 0.88710(16) 0.88710(16)
C128_7 C 0.7950(3) 0.91320(14) 0.91320(14)
H36_7 H 0.8159 0.9217 0.9217
C129_7 C 0.7002(3) 0.87448(19) 0.87448(19)
C130_7 C 0.8287(2) 0.87285(15) 0.87285(15)
C131_7 C 0.84265(16) 0.84265(16) 0.8877(2)
C132_7 C 0.8266(2) 0.8266(2) 0.9188(3)
O56_7 O 0.7955(2) 0.96359(10) 0.96359(10)
O57_7 O 0.7370(2) 0.96410(11) 0.96410(11)
Zn16_7 Zn 0.80468(5) 1.0000 1.0000
Zn19_7 Zn 0.72745(5) 1.0000 1.0000
H47_7 H 0.845095 0.826835 0.940112
H48_7 H 0.803612 0.841232 0.926133
H49_7 H 0.819329 0.799969 0.912949
H111_7 H 0.819329 0.912949 0.799969
H112_7 H 0.803612 0.926133 0.841232
H113_7 H 0.845095 0.940112 0.826835
H114_7 H 0.912949 0.799969 0.819329
H115_7 H 0.926133 0.841232 0.803612
H116_7 H 0.940112 0.826835 0.845095
C100_8 C 0.04675(16) 0.2338(4) 0.95325(16)
C101_8 C 0.07395(14) 0.2341(3) 0.92605(14)
C102_8 C 0.08647(16) 0.2661(2) 0.91353(16)
H28_8 H 0.0777 0.2867 0.9223
C103_8 C 0.11215(15) 0.2666(2) 0.88785(15)
C104_8 C 0.12497(15) 0.2354(3) 0.87503(15)
H29_8 H 0.1420 0.2358 0.8580
C105_8 C 0.11290(16) 0.2036(3) 0.88710(16)
C106_8 C 0.08680(14) 0.2050(3) 0.91320(14)
H30_8 H 0.0783 0.1841 0.9217
C107_8 C 0.12552(19) 0.2998(3) 0.87448(19)
C108_8 C 0.12715(15) 0.1713(2) 0.87285(15)
C109_8 C 0.1123(2) 0.15735(16) 0.84265(16)
C110_8 C 0.0812(3) 0.1734(2) 0.8266(2)
C111_8 C 0.04675(16) 0.04675(16) 0.7662(4)
C112_8 C 0.07395(14) 0.07395(14) 0.7659(3)
C113_8 C 0.08647(16) 0.08647(16) 0.7339(2)
H31_8 H 0.0777 0.0777 0.7133
C114_8 C 0.11215(15) 0.11215(15) 0.7334(2)
C115_8 C 0.12497(15) 0.12497(15) 0.7646(3)
H32_8 H 0.1420 0.1420 0.7642
C116_8 C 0.11290(16) 0.11290(16) 0.7964(3)
C117_8 C 0.08680(14) 0.08680(14) 0.7950(3)
H33_8 H 0.0783 0.0783 0.8159
C118_8 C 0.12552(19) 0.12552(19) 0.7002(3)
C119_8 C 0.12715(15) 0.12715(15) 0.8287(2)
C120_8 C 0.15735(16) 0.1123(2) 0.84265(16)
C121_8 C 0.1734(2) 0.0812(3) 0.8266(2)
C122_8 C 0.2338(4) 0.04675(16) 0.95325(16)
C123_8 C 0.2341(3) 0.07395(14) 0.92605(14)
C124_8 C 0.2661(2) 0.08647(16) 0.91353(16)
H34_8 H 0.2867 0.0777 0.9223
C125_8 C 0.2666(2) 0.11215(15) 0.88785(15)
C126_8 C 0.2354(3) 0.12497(15) 0.87503(15)
H35_8 H 0.2358 0.1420 0.8580
C127_8 C 0.2036(3) 0.11290(16) 0.88710(16)
C128_8 C 0.2050(3) 0.08680(14) 0.91320(14)
H36_8 H 0.1841 0.0783 0.9217
C129_8 C 0.2998(3) 0.12552(19) 0.87448(19)
C130_8 C 0.1713(2) 0.12715(15) 0.87285(15)
C131_8 C 0.15735(16) 0.15735(16) 0.8877(2)
C132_8 C 0.1734(2) 0.1734(2) 0.9188(3)
O56_8 O 0.2045(2) 0.03641(10) 0.96359(10)
O57_8 O 0.2630(2) 0.03590(11) 0.96410(11)
H47_8 H 0.154905 0.173165 0.940112
H48_8 H 0.196388 0.158768 0.926133
H49_8 H 0.180671 0.200031 0.912949
H111_8 H 0.180671 0.087051 0.799969
H112_8 H 0.196388 0.0738667 0.841232
H113_8 H 0.154905 0.0598885 0.826835
H114_8 H 0.087051 0.200031 0.819329
H115_8 H 0.0738667 0.158768 0.803612
H116_8 H 0.0598885 0.173165 0.845095
C67_8 C 0.95325(16) 0.2338(4) 0.04675(16)
C68_8 C 0.92605(14) 0.2341(3) 0.07395(14)
C69_8 C 0.91353(16) 0.2661(2) 0.08647(16)
H19_8 H 0.9223 0.2867 0.0777
C70_8 C 0.88785(15) 0.2666(2) 0.11215(15)
C71_8 C 0.87503(15) 0.2354(3) 0.12497(15)
H20_8 H 0.8580 0.2358 0.1420
C72_8 C 0.88710(16) 0.2036(3) 0.11290(16)
C73_8 C 0.91320(14) 0.2050(3) 0.08680(14)
H21_8 H 0.9217 0.1841 0.0783
C74_8 C 0.87448(19) 0.2998(3) 0.12552(19)
C75_8 C 0.87285(15) 0.1713(2) 0.12715(15)
C76_8 C 0.8877(2) 0.15735(16) 0.15735(16)
C77_8 C 0.9188(3) 0.1734(2) 0.1734(2)
C78_8 C 0.95325(16) 0.04675(16) 0.2338(4)
C79_8 C 0.92605(14) 0.07395(14) 0.2341(3)
C80_8 C 0.91353(16) 0.08647(16) 0.2661(2)
H22_8 H 0.9223 0.0777 0.2867
C81_8 C 0.88785(15) 0.11215(15) 0.2666(2)
C82_8 C 0.87503(15) 0.12497(15) 0.2354(3)
H23_8 H 0.8580 0.1420 0.2358
C83_8 C 0.88710(16) 0.11290(16) 0.2036(3)
C84_8 C 0.91320(14) 0.08680(14) 0.2050(3)
H24_8 H 0.9217 0.0783 0.1841
C85_8 C 0.87448(19) 0.12552(19) 0.2998(3)
C86_8 C 0.87285(15) 0.12715(15) 0.1713(2)
C87_8 C 0.84265(16) 0.1123(2) 0.15735(16)
C88_8 C 0.8266(2) 0.0812(3) 0.1734(2)
O40_8 O 0.96359(10) 0.03641(10) 0.2045(2)
O41_8 O 0.96410(11) 0.03590(11) 0.2630(2)
C89_8 C 0.7662(4) 0.04675(16) 0.04675(16)
C90_8 C 0.7659(3) 0.07395(14) 0.07395(14)
C91_8 C 0.7339(2) 0.08647(16) 0.08647(16)
H25_8 H 0.7133 0.0777 0.0777
C92_8 C 0.7334(2) 0.11215(15) 0.11215(15)
C93_8 C 0.7646(3) 0.12497(15) 0.12497(15)
H26_8 H 0.7642 0.1420 0.1420
C94_8 C 0.7964(3) 0.11290(16) 0.11290(16)
C95_8 C 0.7950(3) 0.08680(14) 0.08680(14)
H27_8 H 0.8159 0.0783 0.0783
C96_8 C 0.7002(3) 0.12552(19) 0.12552(19)
C97_8 C 0.8287(2) 0.12715(15) 0.12715(15)
C98_8 C 0.84265(16) 0.15735(16) 0.1123(2)
C99_8 C 0.8266(2) 0.1734(2) 0.0812(3)
O44_8 O 0.7955(2) 0.03641(10) 0.03641(10)
O45_8 O 0.7370(2) 0.03590(11) 0.03590(11)
H95_8 H 0.819329 0.087051 0.200031
H96_8 H 0.803612 0.0738667 0.158768
H97_8 H 0.845095 0.0598885 0.173165
H98_8 H 0.912949 0.200031 0.180671
H99_8 H 0.926133 0.158768 0.196388
H100_8 H 0.940112 0.173165 0.154905
H108_8 H 0.845095 0.173165 0.0598885
H109_8 H 0.803612 0.158768 0.0738667
H110_8 H 0.819329 0.200031 0.087051
O5_17 O 0.0000 0.0000 0.1443(3)
O7_17 O 0.0000 0.0000 0.3290(7)
C34_8 C 0.04675(16) 0.04675(16) 0.2338(4)
C35_8 C 0.07395(14) 0.07395(14) 0.2341(3)
C36_8 C 0.08647(16) 0.08647(16) 0.2661(2)
H10_8 H 0.0777 0.0777 0.2867
C37_8 C 0.11215(15) 0.11215(15) 0.2666(2)
C38_8 C 0.12497(15) 0.12497(15) 0.2354(3)
H11_8 H 0.1420 0.1420 0.2358
C39_8 C 0.11290(16) 0.11290(16) 0.2036(3)
C40_8 C 0.08680(14) 0.08680(14) 0.2050(3)
H12_8 H 0.0783 0.0783 0.1841
C41_8 C 0.12552(19) 0.12552(19) 0.2998(3)
C42_8 C 0.12715(15) 0.12715(15) 0.1713(2)
C43_8 C 0.1123(2) 0.15735(16) 0.15735(16)
C44_8 C 0.0812(3) 0.1734(2) 0.1734(2)
O20_8 O 0.03641(10) 0.03641(10) 0.2045(2)
O21_8 O 0.03590(11) 0.03590(11) 0.2630(2)
C45_8 C 0.04675(16) 0.2338(4) 0.04675(16)
C46_8 C 0.07395(14) 0.2341(3) 0.07395(14)
C47_8 C 0.08647(16) 0.2661(2) 0.08647(16)
H13_8 H 0.0777 0.2867 0.0777
C48_8 C 0.11215(15) 0.2666(2) 0.11215(15)
C49_8 C 0.12497(15) 0.2354(3) 0.12497(15)
H14_8 H 0.1420 0.2358 0.1420
C50_8 C 0.11290(16) 0.2036(3) 0.11290(16)
C51_8 C 0.08680(14) 0.2050(3) 0.08680(14)
H15_8 H 0.0783 0.1841 0.0783
C52_8 C 0.12552(19) 0.2998(3) 0.12552(19)
C53_8 C 0.12715(15) 0.1713(2) 0.12715(15)
C54_8 C 0.15735(16) 0.15735(16) 0.1123(2)
C55_8 C 0.1734(2) 0.1734(2) 0.0812(3)
C56_8 C 0.2338(4) 0.04675(16) 0.04675(16)
C57_8 C 0.2341(3) 0.07395(14) 0.07395(14)
C58_8 C 0.2661(2) 0.08647(16) 0.08647(16)
H16_8 H 0.2867 0.0777 0.0777
C59_8 C 0.2666(2) 0.11215(15) 0.11215(15)
C60_8 C 0.2354(3) 0.12497(15) 0.12497(15)
H17_8 H 0.2358 0.1420 0.1420
C61_8 C 0.2036(3) 0.11290(16) 0.11290(16)
C62_8 C 0.2050(3) 0.08680(14) 0.08680(14)
H18_8 H 0.1841 0.0783 0.0783
C63_8 C 0.2998(3) 0.12552(19) 0.12552(19)
C64_8 C 0.1713(2) 0.12715(15) 0.12715(15)
C65_8 C 0.15735(16) 0.1123(2) 0.15735(16)
C66_8 C 0.1734(2) 0.0812(3) 0.1734(2)
O30_8 O 0.2045(2) 0.03641(10) 0.03641(10)
O31_8 O 0.2630(2) 0.03590(11) 0.03590(11)
H89_8 H 0.087051 0.180671 0.200031
H90_8 H 0.0738667 0.196388 0.158768
H91_8 H 0.0598885 0.154905 0.173165
H92_8 H 0.180671 0.200031 0.087051
H93_8 H 0.196388 0.158768 0.0738667
H94_8 H 0.154905 0.173165 0.0598885
H105_8 H 0.154905 0.0598885 0.173165
H106_8 H 0.196388 0.0738667 0.158768
H107_8 H 0.180671 0.087051 0.200031
O5_18 O 0.0000 1.0000 0.1443(3)
O7_18 O 0.0000 1.0000 0.3290(7)
O5_19 O 1.0000 0.0000 0.1443(3)
O7_19 O 1.0000 0.0000 0.3290(7)
C1_8 C 0.95325(16) 0.95325(16) 0.2338(4)
C2_8 C 0.92605(14) 0.92605(14) 0.2341(3)
C3_8 C 0.91353(16) 0.91353(16) 0.2661(2)
H1_8 H 0.9223 0.9223 0.2867
C4_8 C 0.88785(15) 0.88785(15) 0.2666(2)
C5_8 C 0.87503(15) 0.87503(15) 0.2354(3)
H2_8 H 0.8580 0.8580 0.2358
C6_8 C 0.88710(16) 0.88710(16) 0.2036(3)
C7_8 C 0.91320(14) 0.91320(14) 0.2050(3)
H3_8 H 0.9217 0.9217 0.1841
C8_8 C 0.87448(19) 0.87448(19) 0.2998(3)
C9_8 C 0.87285(15) 0.87285(15) 0.1713(2)
C10_8 C 0.8877(2) 0.84265(16) 0.15735(16)
C11_8 C 0.9188(3) 0.8266(2) 0.1734(2)
O4_8 O 0.96359(10) 0.96359(10) 0.2045(2)
O5_20 O 1.0000 1.0000 0.1443(3)
O6_8 O 0.96410(11) 0.96410(11) 0.2630(2)
O7_20 O 1.0000 1.0000 0.3290(7)
C12_8 C 0.95325(16) 0.7662(4) 0.04675(16)
C13_8 C 0.92605(14) 0.7659(3) 0.07395(14)
C14_8 C 0.91353(16) 0.7339(2) 0.08647(16)
H4_8 H 0.9223 0.7133 0.0777
C15_8 C 0.88785(15) 0.7334(2) 0.11215(15)
C16_8 C 0.87503(15) 0.7646(3) 0.12497(15)
H5_8 H 0.8580 0.7642 0.1420
C17_8 C 0.88710(16) 0.7964(3) 0.11290(16)
C18_8 C 0.91320(14) 0.7950(3) 0.08680(14)
H6_8 H 0.9217 0.8159 0.0783
C19_8 C 0.87448(19) 0.7002(3) 0.12552(19)
C20_8 C 0.87285(15) 0.8287(2) 0.12715(15)
C21_8 C 0.84265(16) 0.84265(16) 0.1123(2)
C22_8 C 0.8266(2) 0.8266(2) 0.0812(3)
C23_8 C 0.7662(4) 0.95325(16) 0.04675(16)
C24_8 C 0.7659(3) 0.92605(14) 0.07395(14)
C25_8 C 0.7339(2) 0.91353(16) 0.08647(16)
H7_8 H 0.7133 0.9223 0.0777
C26_8 C 0.7334(2) 0.88785(15) 0.11215(15)
C27_8 C 0.7646(3) 0.87503(15) 0.12497(15)
H8_8 H 0.7642 0.8580 0.1420
C28_8 C 0.7964(3) 0.88710(16) 0.11290(16)
C29_8 C 0.7950(3) 0.91320(14) 0.08680(14)
H9_8 H 0.8159 0.9217 0.0783
C30_8 C 0.7002(3) 0.87448(19) 0.12552(19)
C31_8 C 0.8287(2) 0.87285(15) 0.12715(15)
C32_8 C 0.84265(16) 0.8877(2) 0.15735(16)
C33_8 C 0.8266(2) 0.9188(3) 0.1734(2)
O16_8 O 0.7955(2) 0.96359(10) 0.03641(10)
O17_8 O 0.7370(2) 0.96410(11) 0.03590(11)
H68_8 H 0.912949 0.819329 0.200031
H69_8 H 0.926133 0.803612 0.158768
H70_8 H 0.940112 0.845095 0.173165
H77_8 H 0.845095 0.940112 0.173165
H78_8 H 0.803612 0.926133 0.158768
H79_8 H 0.819329 0.912949 0.200031
H80_8 H 0.819329 0.799969 0.087051
H81_8 H 0.803612 0.841232 0.0738667
H82_8 H 0.845095 0.826835 0.0598885
O60_11 O 0.5000 0.5000 0.1443(3)
O61_11 O 0.5000 0.5000 0.3290(7)
H92_9 H 0.412949 0.319329 0.200031
H93_9 H 0.426133 0.303612 0.158768
H94_9 H 0.440112 0.345095 0.173165
H105_9 H 0.326835 0.345095 0.0598885
H106_9 H 0.341232 0.303612 0.0738667
H107_9 H 0.299969 0.319329 0.087051
O35_11 O 0.5000 0.5000 0.8557(3)
O37_11 O 0.5000 0.5000 0.6710(7)
H47_9 H 0.440112 0.345095 0.826835
H48_9 H 0.426133 0.303612 0.841232
H49_9 H 0.412949 0.319329 0.799969
H77_9 H 0.326835 0.654905 0.940112
H78_9 H 0.341232 0.696388 0.926133
H79_9 H 0.299969 0.680671 0.912949
H80_9 H 0.412949 0.680671 0.799969
H81_9 H 0.426133 0.696388 0.841232
H82_9 H 0.440112 0.654905 0.826835
H98_9 H 0.680671 0.587051 0.799969
H99_9 H 0.696388 0.573867 0.841232
H100_9 H 0.654905 0.559888 0.826835
H108_9 H 0.559888 0.654905 0.826835
H109_9 H 0.573867 0.696388 0.841232
H110_9 H 0.587051 0.680671 0.799969
H114_9 H 0.319329 0.412949 0.799969
H115_9 H 0.303612 0.426133 0.841232
H116_9 H 0.345095 0.440112 0.826835
H47_10 H 0.440112 0.654905 0.173165
H48_10 H 0.426133 0.696388 0.158768
H49_10 H 0.412949 0.680671 0.200031
H98_10 H 0.680671 0.412949 0.200031
H99_10 H 0.696388 0.426133 0.158768
H100_10 H 0.654905 0.440112 0.173165
H108_10 H 0.559888 0.345095 0.173165
H109_10 H 0.573867 0.303612 0.158768
H110_10 H 0.587051 0.319329 0.200031
H114_10 H 0.319329 0.587051 0.200031
H115_10 H 0.303612 0.573867 0.158768
H116_10 H 0.345095 0.559888 0.173165
H92_10 H 0.587051 0.680671 0.200031
H93_10 H 0.573867 0.696388 0.158768
H94_10 H 0.559888 0.654905 0.173165
H105_10 H 0.673165 0.654905 0.0598885
H106_10 H 0.658768 0.696388 0.0738667
H107_10 H 0.700031 0.680671 0.087051
H77_10 H 0.673165 0.345095 0.940112
H78_10 H 0.658768 0.303612 0.926133
H79_10 H 0.700031 0.319329 0.912949
H80_10 H 0.587051 0.319329 0.799969
H81_10 H 0.573867 0.303612 0.841232
H82_10 H 0.559888 0.345095 0.826835
H95_9 H 0.412949 0.200031 0.680671
H96_9 H 0.426133 0.158768 0.696388
H97_9 H 0.440112 0.173165 0.654905
H108_11 H 0.326835 0.0598885 0.654905
H109_11 H 0.341232 0.0738667 0.696388
H110_11 H 0.299969 0.087051 0.680671
O5_21 O 0.5000 0.8557(3) 0.5000
O7_21 O 0.5000 0.6710(7) 0.5000
H47_11 H 0.326835 0.940112 0.345095
H48_11 H 0.341232 0.926133 0.303612
H49_11 H 0.299969 0.912949 0.319329
H68_9 H 0.319329 0.799969 0.587051
H69_9 H 0.303612 0.841232 0.573867
H70_9 H 0.345095 0.826835 0.559888
H77_11 H 0.440112 0.826835 0.654905
H78_11 H 0.426133 0.841232 0.696388
H79_11 H 0.412949 0.799969 0.680671
H89_9 H 0.680671 0.799969 0.412949
H90_9 H 0.696388 0.841232 0.426133
H91_9 H 0.654905 0.826835 0.440112
H105_11 H 0.559888 0.826835 0.345095
H106_11 H 0.573867 0.841232 0.303612
H107_11 H 0.587051 0.799969 0.319329
H111_9 H 0.412949 0.799969 0.319329
H112_9 H 0.426133 0.841232 0.303612
H113_9 H 0.440112 0.826835 0.345095
H95_10 H 0.587051 0.200031 0.319329
H96_10 H 0.573867 0.158768 0.303612
H97_10 H 0.559888 0.173165 0.345095
H108_12 H 0.673165 0.0598885 0.345095
H109_12 H 0.658768 0.0738667 0.303612
H110_12 H 0.700031 0.087051 0.319329
H47_12 H 0.673165 0.940112 0.654905
H48_12 H 0.658768 0.926133 0.696388
H49_12 H 0.700031 0.912949 0.680671
H111_10 H 0.587051 0.799969 0.680671
H112_10 H 0.573867 0.841232 0.696388
H113_10 H 0.559888 0.826835 0.654905
O5_22 O 0.5000 0.1443(3) 0.5000
O7_22 O 0.5000 0.3290(7) 0.5000
H68_10 H 0.319329 0.200031 0.412949
H69_10 H 0.303612 0.158768 0.426133
H70_10 H 0.345095 0.173165 0.440112
H77_12 H 0.440112 0.173165 0.345095
H78_12 H 0.426133 0.158768 0.303612
H79_12 H 0.412949 0.200031 0.319329
H89_10 H 0.680671 0.200031 0.587051
H90_10 H 0.696388 0.158768 0.573867
H91_10 H 0.654905 0.173165 0.559888
H105_12 H 0.559888 0.173165 0.654905
H106_12 H 0.573867 0.158768 0.696388
H107_12 H 0.587051 0.200031 0.680671
H108_13 H 0.654905 0.326835 0.0598885
H109_13 H 0.696388 0.341232 0.0738667
H110_13 H 0.680671 0.299969 0.087051
H47_13 H 0.345095 0.326835 0.940112
H48_13 H 0.303612 0.341232 0.926133
H49_13 H 0.319329 0.299969 0.912949
H77_13 H 0.654905 0.440112 0.826835
H78_13 H 0.696388 0.426133 0.841232
H79_13 H 0.680671 0.412949 0.799969
H105_13 H 0.345095 0.559888 0.826835
H106_13 H 0.303612 0.573867 0.841232
H107_13 H 0.319329 0.587051 0.799969
H108_14 H 0.345095 0.673165 0.0598885
H109_14 H 0.303612 0.658768 0.0738667
H110_14 H 0.319329 0.700031 0.087051
H47_14 H 0.654905 0.673165 0.940112
H48_14 H 0.696388 0.658768 0.926133
H49_14 H 0.680671 0.700031 0.912949
H77_14 H 0.345095 0.440112 0.173165
H78_14 H 0.303612 0.426133 0.158768
H79_14 H 0.319329 0.412949 0.200031
H105_14 H 0.654905 0.559888 0.173165
H106_14 H 0.696388 0.573867 0.158768
H107_14 H 0.680671 0.587051 0.200031
H95_11 H 0.200031 0.180671 0.912949
H96_11 H 0.158768 0.196388 0.926133
H97_11 H 0.173165 0.154905 0.940112
H108_15 H 0.0598885 0.154905 0.826835
H109_15 H 0.0738667 0.196388 0.841232
H110_15 H 0.087051 0.180671 0.799969
O5_23 O 0.8557(3) 0.0000 0.0000
O7_23 O 0.6710(7) 0.0000 0.0000
O5_24 O 0.8557(3) 0.0000 1.0000
O7_24 O 0.6710(7) 0.0000 1.0000
H68_11 H 0.799969 0.087051 0.819329
H69_11 H 0.841232 0.0738667 0.803612
H70_11 H 0.826835 0.0598885 0.845095
H77_15 H 0.826835 0.154905 0.940112
H78_15 H 0.841232 0.196388 0.926133
H79_15 H 0.799969 0.180671 0.912949
O5_25 O 0.8557(3) 1.0000 0.0000
O7_25 O 0.6710(7) 1.0000 0.0000
H89_11 H 0.799969 0.912949 0.180671
H90_11 H 0.841232 0.926133 0.196388
H91_11 H 0.826835 0.940112 0.154905
H105_15 H 0.826835 0.845095 0.0598885
H106_15 H 0.841232 0.803612 0.0738667
H107_15 H 0.799969 0.819329 0.087051
O5_26 O 0.8557(3) 1.0000 1.0000
O7_26 O 0.6710(7) 1.0000 1.0000
H47_15 H 0.940112 0.845095 0.826835
H48_15 H 0.926133 0.803612 0.841232
H49_15 H 0.912949 0.819329 0.799969
H111_11 H 0.799969 0.819329 0.912949
H112_11 H 0.841232 0.803612 0.926133
H113_11 H 0.826835 0.845095 0.940112
H95_12 H 0.200031 0.819329 0.087051
H96_12 H 0.158768 0.803612 0.0738667
H97_12 H 0.173165 0.845095 0.0598885
H108_16 H 0.0598885 0.845095 0.173165
H109_16 H 0.0738667 0.803612 0.158768
H110_16 H 0.087051 0.819329 0.200031
H47_16 H 0.940112 0.154905 0.173165
H48_16 H 0.926133 0.196388 0.158768
H49_16 H 0.912949 0.180671 0.200031
H111_12 H 0.799969 0.180671 0.087051
H112_12 H 0.841232 0.196388 0.0738667
H113_12 H 0.826835 0.154905 0.0598885
O5_27 O 0.1443(3) 0.0000 0.0000
O7_27 O 0.3290(7) -0.0000 0.0000
H89_12 H 0.200031 0.087051 0.180671
H90_12 H 0.158768 0.0738667 0.196388
H91_12 H 0.173165 0.0598885 0.154905
H105_16 H 0.173165 0.154905 0.0598885
H106_16 H 0.158768 0.196388 0.0738667
H107_16 H 0.200031 0.180671 0.087051
O5_28 O 0.1443(3) 0.0000 1.0000
O7_28 O 0.3290(7) 0.0000 1.0000
O5_29 O 0.1443(3) 1.0000 0.0000
O7_29 O 0.3290(7) 1.0000 0.0000
O5_30 O 0.1443(3) 1.0000 1.0000
O7_30 O 0.3290(7) 1.0000 1.0000
H68_12 H 0.200031 0.912949 0.819329
H69_12 H 0.158768 0.926133 0.803612
H70_12 H 0.173165 0.940112 0.845095
H77_16 H 0.173165 0.845095 0.940112
H78_16 H 0.158768 0.803612 0.926133
H79_16 H 0.200031 0.819329 0.912949
O60_12 O 0.1443(3) 0.5000 0.5000
O61_12 O 0.3290(7) 0.5000 0.5000
H92_11 H 0.200031 0.412949 0.319329
H93_11 H 0.158768 0.426133 0.303612
H94_11 H 0.173165 0.440112 0.345095
H105_17 H 0.0598885 0.326835 0.345095
H106_17 H 0.0738667 0.341232 0.303612
H107_17 H 0.087051 0.299969 0.319329
O35_12 O 0.8557(3) 0.5000 0.5000
O37_12 O 0.6710(7) 0.5000 0.5000
H47_17 H 0.826835 0.440112 0.345095
H48_17 H 0.841232 0.426133 0.303612
H49_17 H 0.799969 0.412949 0.319329
H77_17 H 0.940112 0.326835 0.654905
H78_17 H 0.926133 0.341232 0.696388
H79_17 H 0.912949 0.299969 0.680671
H80_11 H 0.799969 0.412949 0.680671
H81_11 H 0.841232 0.426133 0.696388
H82_11 H 0.826835 0.440112 0.654905
H98_11 H 0.799969 0.680671 0.587051
H99_11 H 0.841232 0.696388 0.573867
H100_11 H 0.826835 0.654905 0.559888
H108_17 H 0.826835 0.559888 0.654905
H109_17 H 0.841232 0.573867 0.696388
H110_17 H 0.799969 0.587051 0.680671
H114_11 H 0.799969 0.319329 0.412949
H115_11 H 0.841232 0.303612 0.426133
H116_11 H 0.826835 0.345095 0.440112
H47_18 H 0.173165 0.440112 0.654905
H48_18 H 0.158768 0.426133 0.696388
H49_18 H 0.200031 0.412949 0.680671
H98_12 H 0.200031 0.680671 0.412949
H99_12 H 0.158768 0.696388 0.426133
H100_12 H 0.173165 0.654905 0.440112
H108_18 H 0.173165 0.559888 0.345095
H109_18 H 0.158768 0.573867 0.303612
H110_18 H 0.200031 0.587051 0.319329
H114_12 H 0.200031 0.319329 0.587051
H115_12 H 0.158768 0.303612 0.573867
H116_12 H 0.173165 0.345095 0.559888
H92_12 H 0.200031 0.587051 0.680671
H93_12 H 0.158768 0.573867 0.696388
H94_12 H 0.173165 0.559888 0.654905
H105_18 H 0.0598885 0.673165 0.654905
H106_18 H 0.0738667 0.658768 0.696388
H107_18 H 0.087051 0.700031 0.680671
H77_18 H 0.940112 0.673165 0.345095
H78_18 H 0.926133 0.658768 0.303612
H79_18 H 0.912949 0.700031 0.319329
H80_12 H 0.799969 0.587051 0.319329
H81_12 H 0.841232 0.573867 0.303612
H82_12 H 0.826835 0.559888 0.345095
H105_19 H 0.345095 0.0598885 0.326835
H106_19 H 0.303612 0.0738667 0.341232
H107_19 H 0.319329 0.087051 0.299969
H47_19 H 0.345095 0.826835 0.440112
H48_19 H 0.303612 0.841232 0.426133
H49_19 H 0.319329 0.799969 0.412949
H77_19 H 0.654905 0.940112 0.326835
H78_19 H 0.696388 0.926133 0.341232
H79_19 H 0.680671 0.912949 0.299969
H108_19 H 0.654905 0.826835 0.559888
H109_19 H 0.696388 0.841232 0.573867
H110_19 H 0.680671 0.799969 0.587051
H47_20 H 0.654905 0.173165 0.440112
H48_20 H 0.696388 0.158768 0.426133
H49_20 H 0.680671 0.200031 0.412949
H108_20 H 0.345095 0.173165 0.559888
H109_20 H 0.303612 0.158768 0.573867
H110_20 H 0.319329 0.200031 0.587051
H105_20 H 0.654905 0.0598885 0.673165
H106_20 H 0.696388 0.0738667 0.658768
H107_20 H 0.680671 0.087051 0.700031
H77_20 H 0.345095 0.940112 0.673165
H78_20 H 0.303612 0.926133 0.658768
H79_20 H 0.319329 0.912949 0.700031
H108_21 H 0.0598885 0.654905 0.326835
H109_21 H 0.0738667 0.696388 0.341232
H110_21 H 0.087051 0.680671 0.299969
H47_21 H 0.940112 0.345095 0.326835
H48_21 H 0.926133 0.303612 0.341232
H49_21 H 0.912949 0.319329 0.299969
H77_21 H 0.826835 0.654905 0.440112
H78_21 H 0.841232 0.696388 0.426133
H79_21 H 0.799969 0.680671 0.412949
H105_21 H 0.826835 0.345095 0.559888
H106_21 H 0.841232 0.303612 0.573867
H107_21 H 0.799969 0.319329 0.587051
H108_22 H 0.0598885 0.345095 0.673165
H109_22 H 0.0738667 0.303612 0.658768
H110_22 H 0.087051 0.319329 0.700031
H47_22 H 0.940112 0.654905 0.673165
H48_22 H 0.926133 0.696388 0.658768
H49_22 H 0.912949 0.680671 0.700031
H77_22 H 0.173165 0.345095 0.440112
H78_22 H 0.158768 0.303612 0.426133
H79_22 H 0.200031 0.319329 0.412949
H105_22 H 0.173165 0.654905 0.559888
H106_22 H 0.158768 0.696388 0.573867
H107_22 H 0.200031 0.680671 0.587051
H105_23 H 0.0598885 0.826835 0.845095
H106_23 H 0.0738667 0.841232 0.803612
H107_23 H 0.087051 0.799969 0.819329
H108_23 H 0.826835 0.0598885 0.154905
H109_23 H 0.841232 0.0738667 0.196388
H110_23 H 0.799969 0.087051 0.180671
H77_23 H 0.940112 0.826835 0.154905
H78_23 H 0.926133 0.841232 0.196388
H79_23 H 0.912949 0.799969 0.180671
H47_23 H 0.826835 0.940112 0.845095
H48_23 H 0.841232 0.926133 0.803612
H49_23 H 0.799969 0.912949 0.819329
H108_24 H 0.173165 0.0598885 0.845095
H109_24 H 0.158768 0.0738667 0.803612
H110_24 H 0.200031 0.087051 0.819329
H47_24 H 0.173165 0.940112 0.154905
H48_24 H 0.158768 0.926133 0.196388
H49_24 H 0.200031 0.912949 0.180671
H105_24 H 0.0598885 0.173165 0.154905
H106_24 H 0.0738667 0.158768 0.196388
H107_24 H 0.087051 0.200031 0.180671
H77_24 H 0.940112 0.173165 0.845095
H78_24 H 0.926133 0.158768 0.803612
H79_24 H 0.912949 0.200031 0.819329
loop_
_geom_bond_atom_site_label_1
_geom_bond_atom_site_label_2
_geom_bond_site_symmetry_1
_geom_bond_site_symmetry_2
O1 N1 1_555 1_555
N1 O2 1_555 1_555
O3 N1 1_555 1_555
O1_2 N1_2 1_555 1_555
N1_2 O2_2 1_555 1_555
O3_2 N1_2 1_555 1_555
O1_3 N1_3 1_555 1_555
N1_3 O2_3 1_555 1_555
O3_3 N1_3 1_555 1_555
O1_4 N1_4 1_555 1_555
N1_4 O2_4 1_555 1_555
O3_4 N1_4 1_555 1_555
O1_5 N1_5 1_555 1_555
N1_5 O2_5 1_555 1_555
O3_5 N1_5 1_555 1_555
O1_6 N1_6 1_555 1_555
N1_6 O2_6 1_555 1_555
O3_6 N1_6 1_555 1_555
O1_7 N1_7 1_555 1_555
N1_7 O2_7 1_555 1_555
O3_7 N1_7 1_555 1_555
O1_8 N1_8 1_555 1_555
N1_8 O2_8 1_555 1_555
O3_8 N1_8 1_555 1_555
O1_9 N1_9 1_555 1_555
N1_9 O2_9 1_555 1_555
O3_9 N1_9 1_555 1_555
O1_10 N1_10 1_555 1_555
N1_10 O2_10 1_555 1_555
O3_10 N1_10 1_555 1_555
O1_11 N1_11 1_555 1_555
N1_11 O2_11 1_555 1_555
O3_11 N1_11 1_555 1_555
O1_12 N1_12 1_555 1_555
N1_12 O2_12 1_555 1_555
O3_12 N1_12 1_555 1_555
O1_13 N1_13 1_555 1_555
N1_13 O2_13 1_555 1_555
O3_13 N1_13 1_555 1_555
O1_14 N1_14 1_555 1_555
N1_14 O2_14 1_555 1_555
O3_14 N1_14 1_555 1_555
O1_15 N1_15 1_555 1_555
N1_15 O2_15 1_555 1_555
O3_15 N1_15 1_555 1_555
O1_16 N1_16 1_555 1_555
N1_16 O2_16 1_555 1_555
O3_16 N1_16 1_555 1_555
O1_17 N1_17 1_555 1_555
N1_17 O2_17 1_555 1_555
O3_17 N1_17 1_555 1_555
O1_18 N1_18 1_555 1_555
N1_18 O2_18 1_555 1_555
O3_18 N1_18 1_555 1_555
O1_19 N1_19 1_555 1_555
N1_19 O2_19 1_555 1_555
O3_19 N1_19 1_555 1_555
O1_20 N1_20 1_555 1_555
N1_20 O2_20 1_555 1_555
O3_20 N1_20 1_555 1_555
O1_21 N1_21 1_555 1_555
N1_21 O2_21 1_555 1_555
O3_21 N1_21 1_555 1_555
O1_22 N1_22 1_555 1_555
N1_22 O2_22 1_555 1_555
O3_22 N1_22 1_555 1_555
O1_23 N1_23 1_555 1_555
N1_23 O2_23 1_555 1_555
O3_23 N1_23 1_555 1_555
O1_24 N1_24 1_555 1_555
N1_24 O2_24 1_555 1_555
O3_24 N1_24 1_555 1_555
O1_25 N1_25 1_555 1_555
N1_25 O2_25 1_555 1_555
O3_25 N1_25 1_555 1_555
O1_26 N1_26 1_555 1_555
N1_26 O2_26 1_555 1_555
O3_26 N1_26 1_555 1_555
O1_27 N1_27 1_555 1_555
N1_27 O2_27 1_555 1_555
O3_27 N1_27 1_555 1_555
O1_28 N1_28 1_555 1_555
N1_28 O2_28 1_555 1_555
O3_28 N1_28 1_555 1_555
O1_29 N1_29 1_555 1_555
N1_29 O2_29 1_555 1_555
O3_29 N1_29 1_555 1_555
O1_30 N1_30 1_555 1_555
N1_30 O2_30 1_555 1_555
O3_30 N1_30 1_555 1_555
O1_31 N1_31 1_555 1_555
N1_31 O2_31 1_555 1_555
O3_31 N1_31 1_555 1_555
O1_32 N1_32 1_555 1_555
N1_32 O2_32 1_555 1_555
O3_32 N1_32 1_555 1_555
Zn1 O4 1_555 1_555
Zn2 O6 1_555 1_555
Zn3 O8 1_555 1_555
Zn4 O10 1_555 1_555
C1 C2 1_555 1_555
C2 C3 1_555 1_555
C3 H1 1_555 1_555
C4 C3 1_555 1_555
C5 C4 1_555 1_555
H2 C5 1_555 1_555
C6 C5 1_555 1_555
C7 C2 1_555 1_555
H3 C7 1_555 1_555
C8 C4 1_555 1_555
C9 C6 1_555 1_555
C10 C9 1_555 1_555
C11 C10 1_555 1_555
O4 C1 1_555 1_555
O5 Zn1 1_555 1_555
O6 C1 1_555 1_555
O7 Zn2 1_555 1_555
O8 C8 1_555 1_555
O9 Zn3 1_555 1_555
O10 C8 1_555 1_555
O11 Zn4 1_555 1_555
C12 C13 1_555 1_555
C13 C14 1_555 1_555
C14 H4 1_555 1_555
C15 C14 1_555 1_555
C16 C15 1_555 1_555
H5 C16 1_555 1_555
C17 C16 1_555 1_555
C18 C13 1_555 1_555
H6 C18 1_555 1_555
C19 C15 1_555 1_555
C20 C10 1_555 1_555
C21 C20 1_555 1_555
C22 C21 1_555 1_555
O12 C12 1_555 1_555
O13 C12 1_555 1_555
O14 C19 1_555 1_555
O15 C19 1_555 1_555
C23 C24 1_555 1_555
C24 C25 1_555 1_555
C25 H7 1_555 1_555
C26 C25 1_555 1_555
C27 C26 1_555 1_555
H8 C27 1_555 1_555
C28 C27 1_555 1_555
C29 C24 1_555 1_555
H9 C29 1_555 1_555
C30 C26 1_555 1_555
C31 C21 1_555 1_555
C32 C9 1_555 1_555
C33 C32 1_555 1_555
O16 C23 1_555 1_555
O17 C23 1_555 1_555
O18 C30 1_555 1_555
O19 C30 1_555 1_555
Zn7 O12 1_555 1_555
Zn8 O13 1_555 1_555
C67 C68 1_555 1_555
C68 C69 1_555 1_555
C69 H19 1_555 1_555
C70 C69 1_555 1_555
C71 C70 1_555 1_555
H20 C71 1_555 1_555
C72 C71 1_555 1_555
C73 C68 1_555 1_555
H21 C73 1_555 1_555
C74 C70 1_555 1_555
C75 C72 1_555 1_555
C76 C75 1_555 1_555
C77 C76 1_555 1_555
O34 Zn7 1_555 1_555
O35 Zn7 1_555 1_555
O36 Zn8 1_555 1_555
O37 Zn8 1_555 1_555
O38 C74 1_555 1_555
O39 C74 1_555 1_555
C78 C79 1_555 1_555
C79 C80 1_555 1_555
C80 H22 1_555 1_555
C81 C80 1_555 1_555
C82 C81 1_555 1_555
H23 C82 1_555 1_555
C83 C82 1_555 1_555
C84 C79 1_555 1_555
H24 C84 1_555 1_555
C85 C81 1_555 1_555
C86 C76 1_555 1_555
C87 C86 1_555 1_555
C88 C87 1_555 1_555
O40 C78 1_555 1_555
O41 C78 1_555 1_555
O42 C85 1_555 1_555
O43 C85 1_555 1_555
C89 C90 1_555 1_555
C90 C91 1_555 1_555
C91 H25 1_555 1_555
C92 C91 1_555 1_555
C93 C92 1_555 1_555
H26 C93 1_555 1_555
C94 C93 1_555 1_555
C95 C90 1_555 1_555
H27 C95 1_555 1_555
C96 C92 1_555 1_555
C97 C87 1_555 1_555
C98 C75 1_555 1_555
C99 C98 1_555 1_555
O44 C89 1_555 1_555
O45 C89 1_555 1_555
O46 C96 1_555 1_555
O47 C96 1_555 1_555
O60 Zn9 1_555 1_555
O61 Zn10 1_555 1_555
Zn11 O14 1_555 1_555
Zn12 O15 1_555 1_555
O62 Zn11 1_555 1_555
O63 Zn12 1_555 1_555
Zn13 O18 1_555 1_555
Zn14 O19 1_555 1_555
O64 Zn13 1_555 1_555
O65 Zn14 1_555 1_555
O66 Zn3 1_555 1_555
O67 Zn3 1_555 1_555
O70 Zn11 1_555 1_555
O71 Zn11 1_555 1_555
O72 Zn13 1_555 1_555
O73 Zn13 1_555 1_555
Zn15 O40 1_555 1_555
Zn17 O16 1_555 1_555
Zn18 O41 1_555 1_555
Zn20 O17 1_555 1_555
Zn22 O38 1_555 1_555
Zn24 O42 1_555 1_555
Zn28 O46 1_555 1_555
Zn30 O39 1_555 1_555
Zn32 O43 1_555 1_555
Zn36 O47 1_555 1_555
O75 Zn9 1_555 1_555
O77 Zn9 1_555 1_555
O78 Zn1 1_555 1_555
O80 Zn10 1_555 1_555
O82 Zn10 1_555 1_555
O83 Zn2 1_555 1_555
O84 Zn11 1_555 1_555
O85 Zn11 1_555 1_555
O86 Zn3 1_555 1_555
O88 Zn13 1_555 1_555
O89 Zn13 1_555 1_555
O91 Zn3 1_555 1_555
O92 Zn12 1_555 1_555
O93 Zn12 1_555 1_555
O94 Zn4 1_555 1_555
O96 Zn14 1_555 1_555
O97 Zn14 1_555 1_555
O99 Zn4 1_555 1_555
C6 C7 1_555 1_555
C17 C18 1_555 1_555
C17 C20 1_555 1_555
C28 C29 1_555 1_555
C28 C31 1_555 1_555
C31 C32 1_555 1_555
C67 O34 1_555 1_555
C67 O36 1_555 1_555
C72 C73 1_555 1_555
C83 C84 1_555 1_555
C83 C86 1_555 1_555
C94 C95 1_555 1_555
C94 C97 1_555 1_555
C97 C98 1_555 1_555
O44 Zn17 1_555 1_555
O45 Zn20 1_555 1_555
C11 H68 1_555 1_555
C11 H69 1_555 1_555
C11 H70 1_555 1_555
C33 H77 1_555 1_555
C33 H78 1_555 1_555
C33 H79 1_555 1_555
C22 H80 1_555 1_555
C22 H81 1_555 1_555
C22 H82 1_555 1_555
C88 H95 1_555 1_555
C88 H96 1_555 1_555
C88 H97 1_555 1_555
C77 H98 1_555 1_555
C77 H99 1_555 1_555
C77 H100 1_555 1_555
C99 H108 1_555 1_555
C99 H109 1_555 1_555
C99 H110 1_555 1_555
O5_2 Zn1_2 1_555 1_555
O7_2 Zn2_2 1_555 1_555
Zn5 O22 1_555 1_555
Zn6 O24 1_555 1_555
C34 C35 1_555 1_555
C35 C36 1_555 1_555
C36 H10 1_555 1_555
C37 C36 1_555 1_555
C38 C37 1_555 1_555
H11 C38 1_555 1_555
C39 C38 1_555 1_555
C40 C35 1_555 1_555
H12 C40 1_555 1_555
C41 C37 1_555 1_555
C42 C39 1_555 1_555
C43 C42 1_555 1_555
C44 C43 1_555 1_555
O20 Zn1_2 1_555 1_555
O21 Zn2_2 1_555 1_555
O22 C41 1_555 1_555
O23 Zn5 1_555 1_555
O24 C41 1_555 1_555
O25 Zn6 1_555 1_555
C45 C46 1_555 1_555
C46 C47 1_555 1_555
C47 H13 1_555 1_555
C48 C47 1_555 1_555
C49 C48 1_555 1_555
H14 C49 1_555 1_555
C50 C49 1_555 1_555
C51 C46 1_555 1_555
H15 C51 1_555 1_555
C52 C48 1_555 1_555
C53 C43 1_555 1_555
C54 C53 1_555 1_555
C55 C54 1_555 1_555
O26 C45 1_555 1_555
O27 C45 1_555 1_555
O28 C52 1_555 1_555
O29 C52 1_555 1_555
C56 C57 1_555 1_555
C57 C58 1_555 1_555
C58 H16 1_555 1_555
C59 C58 1_555 1_555
C60 C59 1_555 1_555
H17 C60 1_555 1_555
C61 C60 1_555 1_555
C62 C57 1_555 1_555
H18 C62 1_555 1_555
C63 C59 1_555 1_555
C64 C54 1_555 1_555
C65 C42 1_555 1_555
C66 C65 1_555 1_555
O30 C56 1_555 1_555
O31 C56 1_555 1_555
O32 C63 1_555 1_555
O33 C63 1_555 1_555
O35_2 Zn7_2 1_555 1_555
O37_2 Zn8_2 1_555 1_555
C100 C101 1_555 1_555
C101 C102 1_555 1_555
C102 H28 1_555 1_555
C103 C102 1_555 1_555
C104 C103 1_555 1_555
H29 C104 1_555 1_555
C105 C104 1_555 1_555
C106 C101 1_555 1_555
H30 C106 1_555 1_555
C107 C103 1_555 1_555
C108 C105 1_555 1_555
C109 C108 1_555 1_555
C110 C109 1_555 1_555
O48 Zn7_2 1_555 1_555
O49 Zn8_2 1_555 1_555
O50 C107 1_555 1_555
O51 C107 1_555 1_555
C111 C112 1_555 1_555
C112 C113 1_555 1_555
C113 H31 1_555 1_555
C114 C113 1_555 1_555
C115 C114 1_555 1_555
H32 C115 1_555 1_555
C116 C115 1_555 1_555
C117 C112 1_555 1_555
H33 C117 1_555 1_555
C118 C114 1_555 1_555
C119 C109 1_555 1_555
C120 C119 1_555 1_555
C121 C120 1_555 1_555
O52 Zn1_2 1_555 1_555
O53 Zn2_2 1_555 1_555
O54 C118 1_555 1_555
O55 C118 1_555 1_555
C122 C123 1_555 1_555
C123 C124 1_555 1_555
C124 H34 1_555 1_555
C125 C124 1_555 1_555
C126 C125 1_555 1_555
H35 C126 1_555 1_555
C127 C126 1_555 1_555
C128 C123 1_555 1_555
H36 C128 1_555 1_555
C129 C125 1_555 1_555
C130 C120 1_555 1_555
C131 C108 1_555 1_555
C132 C131 1_555 1_555
O56 C122 1_555 1_555
O57 C122 1_555 1_555
O58 C129 1_555 1_555
O59 C129 1_555 1_555
Zn9_2 O26 1_555 1_555
Zn10_2 O27 1_555 1_555
O60_2 Zn9_2 1_555 1_555
O61_2 Zn10_2 1_555 1_555
O68 Zn5 1_555 1_555
O69 Zn5 1_555 1_555
Zn16 O30 1_555 1_555
Zn19 O31 1_555 1_555
Zn21 O28 1_555 1_555
Zn23 O50 1_555 1_555
Zn25 O54 1_555 1_555
Zn26 O32 1_555 1_555
Zn27 O58 1_555 1_555
Zn29 O29 1_555 1_555
Zn31 O51 1_555 1_555
Zn33 O55 1_555 1_555
Zn34 O33 1_555 1_555
Zn35 O59 1_555 1_555
O74 Zn9_2 1_555 1_555
O76 Zn7_2 1_555 1_555
O79 Zn10_2 1_555 1_555
O81 Zn8_2 1_555 1_555
O87 Zn5 1_555 1_555
O90 Zn5 1_555 1_555
O95 Zn6 1_555 1_555
O98 Zn6 1_555 1_555
C34 O20 1_555 1_555
C34 O21 1_555 1_555
C39 C40 1_555 1_555
C50 C51 1_555 1_555
C50 C53 1_555 1_555
C61 C62 1_555 1_555
C61 C64 1_555 1_555
C64 C65 1_555 1_555
C100 O48 1_555 1_555
C100 O49 1_555 1_555
C105 C106 1_555 1_555
C111 O52 1_555 1_555
C111 O53 1_555 1_555
C116 C117 1_555 1_555
C116 C119 1_555 1_555
C127 C128 1_555 1_555
C127 C130 1_555 1_555
C130 C131 1_555 1_555
O56 Zn16 1_555 1_555
O57 Zn19 1_555 1_555
C132 H47 1_555 1_555
C132 H48 1_555 1_555
C132 H49 1_555 1_555
C44 H89 1_555 1_555
C44 H90 1_555 1_555
C44 H91 1_555 1_555
C55 H92 1_555 1_555
C55 H93 1_555 1_555
C55 H94 1_555 1_555
C66 H105 1_555 1_555
C66 H106 1_555 1_555
C66 H107 1_555 1_555
C121 H111 1_555 1_555
C121 H112 1_555 1_555
C121 H113 1_555 1_555
C110 H114 1_555 1_555
C110 H115 1_555 1_555
C110 H116 1_555 1_555
C100_2 C101_2 1_555 1_555
C101_2 C102_2 1_555 1_555
C102_2 H28_2 1_555 1_555
C103_2 C102_2 1_555 1_555
C104_2 C103_2 1_555 1_555
H29_2 C104_2 1_555 1_555
C105_2 C104_2 1_555 1_555
C106_2 C101_2 1_555 1_555
H30_2 C106_2 1_555 1_555
C107_2 C103_2 1_555 1_555
C108_2 C105_2 1_555 1_555
C109_2 C108_2 1_555 1_555
C110_2 C109_2 1_555 1_555
O50_2 C107_2 1_555 1_555
O51_2 C107_2 1_555 1_555
C111_2 C112_2 1_555 1_555
C112_2 C113_2 1_555 1_555
C113_2 H31_2 1_555 1_555
C114_2 C113_2 1_555 1_555
C115_2 C114_2 1_555 1_555
H32_2 C115_2 1_555 1_555
C116_2 C115_2 1_555 1_555
C117_2 C112_2 1_555 1_555
H33_2 C117_2 1_555 1_555
C118_2 C114_2 1_555 1_555
C119_2 C109_2 1_555 1_555
C120_2 C119_2 1_555 1_555
C121_2 C120_2 1_555 1_555
O54_2 C118_2 1_555 1_555
O55_2 C118_2 1_555 1_555
C122_2 C123_2 1_555 1_555
C123_2 C124_2 1_555 1_555
C124_2 H34_2 1_555 1_555
C125_2 C124_2 1_555 1_555
C126_2 C125_2 1_555 1_555
H35_2 C126_2 1_555 1_555
C127_2 C126_2 1_555 1_555
C128_2 C123_2 1_555 1_555
H36_2 C128_2 1_555 1_555
C129_2 C125_2 1_555 1_555
C130_2 C120_2 1_555 1_555
C131_2 C108_2 1_555 1_555
C132_2 C131_2 1_555 1_555
O56_2 C122_2 1_555 1_555
O57_2 C122_2 1_555 1_555
O58_2 C129_2 1_555 1_555
O59_2 C129_2 1_555 1_555
Zn23_2 O50_2 1_555 1_555
Zn25_2 O54_2 1_555 1_555
Zn27_2 O58_2 1_555 1_555
Zn31_2 O51_2 1_555 1_555
Zn33_2 O55_2 1_555 1_555
Zn35_2 O59_2 1_555 1_555
C100_2 O75 1_555 1_555
C100_2 O80 1_555 1_555
C105_2 C106_2 1_555 1_555
C111_2 O78 1_555 1_555
C111_2 O83 1_555 1_555
C116_2 C117_2 1_555 1_555
C116_2 C119_2 1_555 1_555
C127_2 C128_2 1_555 1_555
C127_2 C130_2 1_555 1_555
C130_2 C131_2 1_555 1_555
O56_2 Zn17 1_555 1_555
O57_2 Zn20 1_555 1_555
C132_2 H47_2 1_555 1_555
C132_2 H48_2 1_555 1_555
C132_2 H49_2 1_555 1_555
C121_2 H111_2 1_555 1_555
C121_2 H112_2 1_555 1_555
C121_2 H113_2 1_555 1_555
C110_2 H114_2 1_555 1_555
C110_2 H115_2 1_555 1_555
C110_2 H116_2 1_555 1_555
C67_2 C68_2 1_555 1_555
C68_2 C69_2 1_555 1_555
C69_2 H19_2 1_555 1_555
C70_2 C69_2 1_555 1_555
C71_2 C70_2 1_555 1_555
H20_2 C71_2 1_555 1_555
C72_2 C71_2 1_555 1_555
C73_2 C68_2 1_555 1_555
H21_2 C73_2 1_555 1_555
C74_2 C70_2 1_555 1_555
C75_2 C72_2 1_555 1_555
C76_2 C75_2 1_555 1_555
C77_2 C76_2 1_555 1_555
O38_2 C74_2 1_555 1_555
O39_2 C74_2 1_555 1_555
C78_2 C79_2 1_555 1_555
C79_2 C80_2 1_555 1_555
C80_2 H22_2 1_555 1_555
C81_2 C80_2 1_555 1_555
C82_2 C81_2 1_555 1_555
H23_2 C82_2 1_555 1_555
C83_2 C82_2 1_555 1_555
C84_2 C79_2 1_555 1_555
H24_2 C84_2 1_555 1_555
C85_2 C81_2 1_555 1_555
C86_2 C76_2 1_555 1_555
C87_2 C86_2 1_555 1_555
C88_2 C87_2 1_555 1_555
O40_2 C78_2 1_555 1_555
O41_2 C78_2 1_555 1_555
O42_2 C85_2 1_555 1_555
O43_2 C85_2 1_555 1_555
C89_2 C90_2 1_555 1_555
C90_2 C91_2 1_555 1_555
C91_2 H25_2 1_555 1_555
C92_2 C91_2 1_555 1_555
C93_2 C92_2 1_555 1_555
H26_2 C93_2 1_555 1_555
C94_2 C93_2 1_555 1_555
C95_2 C90_2 1_555 1_555
H27_2 C95_2 1_555 1_555
C96_2 C92_2 1_555 1_555
C97_2 C87_2 1_555 1_555
C98_2 C75_2 1_555 1_555
C99_2 C98_2 1_555 1_555
O44_2 C89_2 1_555 1_555
O45_2 C89_2 1_555 1_555
O46_2 C96_2 1_555 1_555
O47_2 C96_2 1_555 1_555
O62_2 Zn21 1_555 1_555
O63_2 Zn29 1_555 1_555
O64_2 Zn26 1_555 1_555
O65_2 Zn34 1_555 1_555
O70_2 Zn21 1_555 1_555
O71_2 Zn21 1_555 1_555
O72_2 Zn26 1_555 1_555
O73_2 Zn26 1_555 1_555
Zn15_2 O40_2 1_555 1_555
Zn18_2 O41_2 1_555 1_555
Zn22_2 O38_2 1_555 1_555
Zn24_2 O42_2 1_555 1_555
Zn28_2 O46_2 1_555 1_555
Zn30_2 O39_2 1_555 1_555
Zn32_2 O43_2 1_555 1_555
Zn36_2 O47_2 1_555 1_555
O84_2 Zn21 1_555 1_555
O85_2 Zn21 1_555 1_555
O88_2 Zn26 1_555 1_555
O89_2 Zn26 1_555 1_555
O92_2 Zn29 1_555 1_555
O93_2 Zn29 1_555 1_555
O96_2 Zn34 1_555 1_555
O97_2 Zn34 1_555 1_555
C67_2 O74 1_555 1_555
C67_2 O79 1_555 1_555
C72_2 C73_2 1_555 1_555
C83_2 C84_2 1_555 1_555
C83_2 C86_2 1_555 1_555
C94_2 C95_2 1_555 1_555
C94_2 C97_2 1_555 1_555
C97_2 C98_2 1_555 1_555
O44_2 Zn16 1_555 1_555
O45_2 Zn19 1_555 1_555
C88_2 H95_2 1_555 1_555
C88_2 H96_2 1_555 1_555
C88_2 H97_2 1_555 1_555
C77_2 H98_2 1_555 1_555
C77_2 H99_2 1_555 1_555
C77_2 H100_2 1_555 1_555
C99_2 H108_2 1_555 1_555
C99_2 H109_2 1_555 1_555
C99_2 H110_2 1_555 1_555
O5_3 Zn15 1_555 1_555
O7_3 Zn18 1_555 1_555
Zn5_2 O22_2 1_555 1_555
Zn6_2 O24_2 1_555 1_555
C34_2 C35_2 1_555 1_555
C35_2 C36_2 1_555 1_555
C36_2 H10_2 1_555 1_555
C37_2 C36_2 1_555 1_555
C38_2 C37_2 1_555 1_555
H11_2 C38_2 1_555 1_555
C39_2 C38_2 1_555 1_555
C40_2 C35_2 1_555 1_555
H12_2 C40_2 1_555 1_555
C41_2 C37_2 1_555 1_555
C42_2 C39_2 1_555 1_555
C43_2 C42_2 1_555 1_555
C44_2 C43_2 1_555 1_555
O20_2 Zn15 1_555 1_555
O21_2 Zn18 1_555 1_555
O22_2 C41_2 1_555 1_555
O23_2 Zn5_2 1_555 1_555
O24_2 C41_2 1_555 1_555
O25_2 Zn6_2 1_555 1_555
C45_2 C46_2 1_555 1_555
C46_2 C47_2 1_555 1_555
C47_2 H13_2 1_555 1_555
C48_2 C47_2 1_555 1_555
C49_2 C48_2 1_555 1_555
H14_2 C49_2 1_555 1_555
C50_2 C49_2 1_555 1_555
C51_2 C46_2 1_555 1_555
H15_2 C51_2 1_555 1_555
C52_2 C48_2 1_555 1_555
C53_2 C43_2 1_555 1_555
C54_2 C53_2 1_555 1_555
C55_2 C54_2 1_555 1_555
O77 C45_2 1_555 1_555
O82 C45_2 1_555 1_555
O28_2 C52_2 1_555 1_555
O29_2 C52_2 1_555 1_555
C56_2 C57_2 1_555 1_555
C57_2 C58_2 1_555 1_555
C58_2 H16_2 1_555 1_555
C59_2 C58_2 1_555 1_555
C60_2 C59_2 1_555 1_555
H17_2 C60_2 1_555 1_555
C61_2 C60_2 1_555 1_555
C62_2 C57_2 1_555 1_555
H18_2 C62_2 1_555 1_555
C63_2 C59_2 1_555 1_555
C64_2 C54_2 1_555 1_555
C65_2 C42_2 1_555 1_555
C66_2 C65_2 1_555 1_555
O30_2 C56_2 1_555 1_555
O31_2 C56_2 1_555 1_555
O32_2 C63_2 1_555 1_555
O33_2 C63_2 1_555 1_555
O68_2 Zn5_2 1_555 1_555
O69_2 Zn5_2 1_555 1_555
Zn17 O30_2 1_555 1_555
Zn20 O31_2 1_555 1_555
Zn21_2 O28_2 1_555 1_555
Zn26_2 O32_2 1_555 1_555
Zn29_2 O29_2 1_555 1_555
Zn34_2 O33_2 1_555 1_555
O87_2 Zn5_2 1_555 1_555
O90_2 Zn5_2 1_555 1_555
O95_2 Zn6_2 1_555 1_555
O98_2 Zn6_2 1_555 1_555
C34_2 O20_2 1_555 1_555
C34_2 O21_2 1_555 1_555
C39_2 C40_2 1_555 1_555
C50_2 C51_2 1_555 1_555
C50_2 C53_2 1_555 1_555
C61_2 C62_2 1_555 1_555
C61_2 C64_2 1_555 1_555
C64_2 C65_2 1_555 1_555
C44_2 H89_2 1_555 1_555
C44_2 H90_2 1_555 1_555
C44_2 H91_2 1_555 1_555
C55_2 H92_2 1_555 1_555
C55_2 H93_2 1_555 1_555
C55_2 H94_2 1_555 1_555
C66_2 H105_2 1_555 1_555
C66_2 H106_2 1_555 1_555
C66_2 H107_2 1_555 1_555
Zn15_2 O4_2 1_555 1_555
Zn18_2 O6_2 1_555 1_555
Zn3_2 O8_2 1_555 1_555
Zn4_2 O10_2 1_555 1_555
C1_2 C2_2 1_555 1_555
C2_2 C3_2 1_555 1_555
C3_2 H1_2 1_555 1_555
C4_2 C3_2 1_555 1_555
C5_2 C4_2 1_555 1_555
H2_2 C5_2 1_555 1_555
C6_2 C5_2 1_555 1_555
C7_2 C2_2 1_555 1_555
H3_2 C7_2 1_555 1_555
C8_2 C4_2 1_555 1_555
C9_2 C6_2 1_555 1_555
C10_2 C9_2 1_555 1_555
C11_2 C10_2 1_555 1_555
O4_2 C1_2 1_555 1_555
O5_4 Zn15_2 1_555 1_555
O6_2 C1_2 1_555 1_555
O7_4 Zn18_2 1_555 1_555
O8_2 C8_2 1_555 1_555
O9_2 Zn3_2 1_555 1_555
O10_2 C8_2 1_555 1_555
O11_2 Zn4_2 1_555 1_555
C12_2 C13_2 1_555 1_555
C13_2 C14_2 1_555 1_555
C14_2 H4_2 1_555 1_555
C15_2 C14_2 1_555 1_555
C16_2 C15_2 1_555 1_555
H5_2 C16_2 1_555 1_555
C17_2 C16_2 1_555 1_555
C18_2 C13_2 1_555 1_555
H6_2 C18_2 1_555 1_555
C19_2 C15_2 1_555 1_555
C20_2 C10_2 1_555 1_555
C21_2 C20_2 1_555 1_555
C22_2 C21_2 1_555 1_555
O76 C12_2 1_555 1_555
O81 C12_2 1_555 1_555
O14_2 C19_2 1_555 1_555
O15_2 C19_2 1_555 1_555
C23_2 C24_2 1_555 1_555
C24_2 C25_2 1_555 1_555
C25_2 H7_2 1_555 1_555
C26_2 C25_2 1_555 1_555
C27_2 C26_2 1_555 1_555
H8_2 C27_2 1_555 1_555
C28_2 C27_2 1_555 1_555
C29_2 C24_2 1_555 1_555
H9_2 C29_2 1_555 1_555
C30_2 C26_2 1_555 1_555
C31_2 C21_2 1_555 1_555
C32_2 C9_2 1_555 1_555
C33_2 C32_2 1_555 1_555
O16_2 C23_2 1_555 1_555
O17_2 C23_2 1_555 1_555
O18_2 C30_2 1_555 1_555
O19_2 C30_2 1_555 1_555
Zn11_2 O14_2 1_555 1_555
Zn12_2 O15_2 1_555 1_555
O62_3 Zn11_2 1_555 1_555
O63_3 Zn12_2 1_555 1_555
Zn13_2 O18_2 1_555 1_555
Zn14_2 O19_2 1_555 1_555
O64_3 Zn13_2 1_555 1_555
O65_3 Zn14_2 1_555 1_555
O66_2 Zn3_2 1_555 1_555
O67_2 Zn3_2 1_555 1_555
O70_3 Zn11_2 1_555 1_555
O71_3 Zn11_2 1_555 1_555
O72_3 Zn13_2 1_555 1_555
O73_3 Zn13_2 1_555 1_555
Zn16 O16_2 1_555 1_555
Zn19 O17_2 1_555 1_555
O84_3 Zn11_2 1_555 1_555
O85_3 Zn11_2 1_555 1_555
O86_2 Zn3_2 1_555 1_555
O88_3 Zn13_2 1_555 1_555
O89_3 Zn13_2 1_555 1_555
O91_2 Zn3_2 1_555 1_555
O92_3 Zn12_2 1_555 1_555
O93_3 Zn12_2 1_555 1_555
O94_2 Zn4_2 1_555 1_555
O96_3 Zn14_2 1_555 1_555
O97_3 Zn14_2 1_555 1_555
O99_2 Zn4_2 1_555 1_555
C6_2 C7_2 1_555 1_555
C17_2 C18_2 1_555 1_555
C17_2 C20_2 1_555 1_555
C28_2 C29_2 1_555 1_555
C28_2 C31_2 1_555 1_555
C31_2 C32_2 1_555 1_555
C11_2 H68_2 1_555 1_555
C11_2 H69_2 1_555 1_555
C11_2 H70_2 1_555 1_555
C33_2 H77_2 1_555 1_555
C33_2 H78_2 1_555 1_555
C33_2 H79_2 1_555 1_555
C22_2 H80_2 1_555 1_555
C22_2 H81_2 1_555 1_555
C22_2 H82_2 1_555 1_555
O62_4 Zn21_2 1_555 1_555
O63_4 Zn29_2 1_555 1_555
O64_4 Zn26_2 1_555 1_555
O65_4 Zn34_2 1_555 1_555
O70_4 Zn21_2 1_555 1_555
O71_4 Zn21_2 1_555 1_555
O72_4 Zn26_2 1_555 1_555
O73_4 Zn26_2 1_555 1_555
O84_4 Zn21_2 1_555 1_555
O85_4 Zn21_2 1_555 1_555
O88_4 Zn26_2 1_555 1_555
O89_4 Zn26_2 1_555 1_555
O92_4 Zn29_2 1_555 1_555
O93_4 Zn29_2 1_555 1_555
O96_4 Zn34_2 1_555 1_555
O97_4 Zn34_2 1_555 1_555
Zn1_3 O4_3 1_555 1_555
Zn2_3 O6_3 1_555 1_555
C1_3 C2_3 1_555 1_555
C2_3 C3_3 1_555 1_555
C3_3 H1_3 1_555 1_555
C4_3 C3_3 1_555 1_555
C5_3 C4_3 1_555 1_555
H2_3 C5_3 1_555 1_555
C6_3 C5_3 1_555 1_555
C7_3 C2_3 1_555 1_555
H3_3 C7_3 1_555 1_555
C8_3 C4_3 1_555 1_555
C9_3 C6_3 1_555 1_555
C10_3 C9_3 1_555 1_555
C11_3 C10_3 1_555 1_555
O4_3 C1_3 1_555 1_555
O5_5 Zn1_3 1_555 1_555
O6_3 C1_3 1_555 1_555
O7_5 Zn2_3 1_555 1_555
O84 C8_3 1_555 1_555
O92 C8_3 1_555 1_555
C12_3 C13_3 1_555 1_555
C13_3 C14_3 1_555 1_555
C14_3 H4_3 1_555 1_555
C15_3 C14_3 1_555 1_555
C16_3 C15_3 1_555 1_555
H5_3 C16_3 1_555 1_555
C17_3 C16_3 1_555 1_555
C18_3 C13_3 1_555 1_555
H6_3 C18_3 1_555 1_555
C19_3 C15_3 1_555 1_555
C20_3 C10_3 1_555 1_555
C21_3 C20_3 1_555 1_555
C22_3 C21_3 1_555 1_555
O12_2 C12_3 1_555 1_555
O13_2 C12_3 1_555 1_555
O14_3 C19_3 1_555 1_555
O15_3 C19_3 1_555 1_555
C23_3 C24_3 1_555 1_555
C24_3 C25_3 1_555 1_555
C25_3 H7_3 1_555 1_555
C26_3 C25_3 1_555 1_555
C27_3 C26_3 1_555 1_555
H8_3 C27_3 1_555 1_555
C28_3 C27_3 1_555 1_555
C29_3 C24_3 1_555 1_555
H9_3 C29_3 1_555 1_555
C30_3 C26_3 1_555 1_555
C31_3 C21_3 1_555 1_555
C32_3 C9_3 1_555 1_555
C33_3 C32_3 1_555 1_555
O16_3 C23_3 1_555 1_555
O17_3 C23_3 1_555 1_555
O88 C30_3 1_555 1_555
O96 C30_3 1_555 1_555
Zn7_3 O12_2 1_555 1_555
Zn8_3 O13_2 1_555 1_555
C67_3 C68_3 1_555 1_555
C68_3 C69_3 1_555 1_555
C69_3 H19_3 1_555 1_555
C70_3 C69_3 1_555 1_555
C71_3 C70_3 1_555 1_555
H20_3 C71_3 1_555 1_555
C72_3 C71_3 1_555 1_555
C73_3 C68_3 1_555 1_555
H21_3 C73_3 1_555 1_555
C74_3 C70_3 1_555 1_555
C75_3 C72_3 1_555 1_555
C76_3 C75_3 1_555 1_555
C77_3 C76_3 1_555 1_555
O34_2 Zn7_3 1_555 1_555
O35_3 Zn7_3 1_555 1_555
O36_2 Zn8_3 1_555 1_555
O37_3 Zn8_3 1_555 1_555
O38_3 C74_3 1_555 1_555
O39_3 C74_3 1_555 1_555
C78_3 C79_3 1_555 1_555
C79_3 C80_3 1_555 1_555
C80_3 H22_3 1_555 1_555
C81_3 C80_3 1_555 1_555
C82_3 C81_3 1_555 1_555
H23_3 C82_3 1_555 1_555
C83_3 C82_3 1_555 1_555
C84_3 C79_3 1_555 1_555
H24_3 C84_3 1_555 1_555
C85_3 C81_3 1_555 1_555
C86_3 C76_3 1_555 1_555
C87_3 C86_3 1_555 1_555
C88_3 C87_3 1_555 1_555
O40_3 C78_3 1_555 1_555
O41_3 C78_3 1_555 1_555
O42_3 C85_3 1_555 1_555
O43_3 C85_3 1_555 1_555
C89_3 C90_3 1_555 1_555
C90_3 C91_3 1_555 1_555
C91_3 H25_3 1_555 1_555
C92_3 C91_3 1_555 1_555
C93_3 C92_3 1_555 1_555
H26_3 C93_3 1_555 1_555
C94_3 C93_3 1_555 1_555
C95_3 C90_3 1_555 1_555
H27_3 C95_3 1_555 1_555
C96_3 C92_3 1_555 1_555
C97_3 C87_3 1_555 1_555
C98_3 C75_3 1_555 1_555
C99_3 C98_3 1_555 1_555
O44_3 C89_3 1_555 1_555
O45_3 C89_3 1_555 1_555
O46_3 C96_3 1_555 1_555
O47_3 C96_3 1_555 1_555
O60_3 Zn9_3 1_555 1_555
O61_3 Zn10_3 1_555 1_555
Zn11_3 O14_3 1_555 1_555
Zn12_3 O15_3 1_555 1_555
O62_5 Zn11_3 1_555 1_555
O63_5 Zn12_3 1_555 1_555
O70_5 Zn11_3 1_555 1_555
O71_5 Zn11_3 1_555 1_555
Zn15_3 O40_3 1_555 1_555
Zn17_2 O16_3 1_555 1_555
Zn18_3 O41_3 1_555 1_555
Zn20_2 O17_3 1_555 1_555
Zn22_3 O38_3 1_555 1_555
Zn23 O42_3 1_555 1_555
Zn27 O46_3 1_555 1_555
Zn30_3 O39_3 1_555 1_555
Zn31 O43_3 1_555 1_555
Zn35 O47_3 1_555 1_555
O75_2 Zn9_3 1_555 1_555
O77_2 Zn9_3 1_555 1_555
O78_2 Zn1_3 1_555 1_555
O80_2 Zn10_3 1_555 1_555
O82_2 Zn10_3 1_555 1_555
O83_2 Zn2_3 1_555 1_555
O84_5 Zn11_3 1_555 1_555
O85_5 Zn11_3 1_555 1_555
O92_5 Zn12_3 1_555 1_555
O93_5 Zn12_3 1_555 1_555
C6_3 C7_3 1_555 1_555
C17_3 C18_3 1_555 1_555
C17_3 C20_3 1_555 1_555
C28_3 C29_3 1_555 1_555
C28_3 C31_3 1_555 1_555
C31_3 C32_3 1_555 1_555
C67_3 O34_2 1_555 1_555
C67_3 O36_2 1_555 1_555
C72_3 C73_3 1_555 1_555
C83_3 C84_3 1_555 1_555
C83_3 C86_3 1_555 1_555
C94_3 C95_3 1_555 1_555
C94_3 C97_3 1_555 1_555
C97_3 C98_3 1_555 1_555
O44_3 Zn17_2 1_555 1_555
O45_3 Zn20_2 1_555 1_555
C11_3 H68_3 1_555 1_555
C11_3 H69_3 1_555 1_555
C11_3 H70_3 1_555 1_555
C33_3 H77_3 1_555 1_555
C33_3 H78_3 1_555 1_555
C33_3 H79_3 1_555 1_555
C22_3 H80_3 1_555 1_555
C22_3 H81_3 1_555 1_555
C22_3 H82_3 1_555 1_555
C88_3 H95_3 1_555 1_555
C88_3 H96_3 1_555 1_555
C88_3 H97_3 1_555 1_555
C77_3 H98_3 1_555 1_555
C77_3 H99_3 1_555 1_555
C77_3 H100_3 1_555 1_555
C99_3 H108_3 1_555 1_555
C99_3 H109_3 1_555 1_555
C99_3 H110_3 1_555 1_555
O5_6 Zn1_4 1_555 1_555
O7_6 Zn2_4 1_555 1_555
C34_3 C35_3 1_555 1_555
C35_3 C36_3 1_555 1_555
C36_3 H10_3 1_555 1_555
C37_3 C36_3 1_555 1_555
C38_3 C37_3 1_555 1_555
H11_3 C38_3 1_555 1_555
C39_3 C38_3 1_555 1_555
C40_3 C35_3 1_555 1_555
H12_3 C40_3 1_555 1_555
C41_3 C37_3 1_555 1_555
C42_3 C39_3 1_555 1_555
C43_3 C42_3 1_555 1_555
C44_3 C43_3 1_555 1_555
O20_3 Zn1_4 1_555 1_555
O21_3 Zn2_4 1_555 1_555
O84_4 C41_3 1_555 1_555
O92_4 C41_3 1_555 1_555
C45_3 C46_3 1_555 1_555
C46_3 C47_3 1_555 1_555
C47_3 H13_3 1_555 1_555
C48_3 C47_3 1_555 1_555
C49_3 C48_3 1_555 1_555
H14_3 C49_3 1_555 1_555
C50_3 C49_3 1_555 1_555
C51_3 C46_3 1_555 1_555
H15_3 C51_3 1_555 1_555
C52_3 C48_3 1_555 1_555
C53_3 C43_3 1_555 1_555
C54_3 C53_3 1_555 1_555
C55_3 C54_3 1_555 1_555
O26_2 C45_3 1_555 1_555
O27_2 C45_3 1_555 1_555
O28_3 C52_3 1_555 1_555
O29_3 C52_3 1_555 1_555
C56_3 C57_3 1_555 1_555
C57_3 C58_3 1_555 1_555
C58_3 H16_3 1_555 1_555
C59_3 C58_3 1_555 1_555
C60_3 C59_3 1_555 1_555
H17_3 C60_3 1_555 1_555
C61_3 C60_3 1_555 1_555
C62_3 C57_3 1_555 1_555
H18_3 C62_3 1_555 1_555
C63_3 C59_3 1_555 1_555
C64_3 C54_3 1_555 1_555
C65_3 C42_3 1_555 1_555
C66_3 C65_3 1_555 1_555
O30_3 C56_3 1_555 1_555
O31_3 C56_3 1_555 1_555
O88_4 C63_3 1_555 1_555
O96_4 C63_3 1_555 1_555
O35_4 Zn7_4 1_555 1_555
O37_4 Zn8_4 1_555 1_555
C100_3 C101_3 1_555 1_555
C101_3 C102_3 1_555 1_555
C102_3 H28_3 1_555 1_555
C103_3 C102_3 1_555 1_555
C104_3 C103_3 1_555 1_555
H29_3 C104_3 1_555 1_555
C105_3 C104_3 1_555 1_555
C106_3 C101_3 1_555 1_555
H30_3 C106_3 1_555 1_555
C107_3 C103_3 1_555 1_555
C108_3 C105_3 1_555 1_555
C109_3 C108_3 1_555 1_555
C110_3 C109_3 1_555 1_555
O48_2 Zn7_4 1_555 1_555
O49_2 Zn8_4 1_555 1_555
O50_3 C107_3 1_555 1_555
O51_3 C107_3 1_555 1_555
C111_3 C112_3 1_555 1_555
C112_3 C113_3 1_555 1_555
C113_3 H31_3 1_555 1_555
C114_3 C113_3 1_555 1_555
C115_3 C114_3 1_555 1_555
H32_3 C115_3 1_555 1_555
C116_3 C115_3 1_555 1_555
C117_3 C112_3 1_555 1_555
H33_3 C117_3 1_555 1_555
C118_3 C114_3 1_555 1_555
C119_3 C109_3 1_555 1_555
C120_3 C119_3 1_555 1_555
C121_3 C120_3 1_555 1_555
O52_2 Zn1_4 1_555 1_555
O53_2 Zn2_4 1_555 1_555
O54_3 C118_3 1_555 1_555
O55_3 C118_3 1_555 1_555
C122_3 C123_3 1_555 1_555
C123_3 C124_3 1_555 1_555
C124_3 H34_3 1_555 1_555
C125_3 C124_3 1_555 1_555
C126_3 C125_3 1_555 1_555
H35_3 C126_3 1_555 1_555
C127_3 C126_3 1_555 1_555
C128_3 C123_3 1_555 1_555
H36_3 C128_3 1_555 1_555
C129_3 C125_3 1_555 1_555
C130_3 C120_3 1_555 1_555
C131_3 C108_3 1_555 1_555
C132_3 C131_3 1_555 1_555
O56_3 C122_3 1_555 1_555
O57_3 C122_3 1_555 1_555
O58_3 C129_3 1_555 1_555
O59_3 C129_3 1_555 1_555
Zn9_4 O26_2 1_555 1_555
Zn10_4 O27_2 1_555 1_555
O60_4 Zn9_4 1_555 1_555
O61_4 Zn10_4 1_555 1_555
Zn16_2 O30_3 1_555 1_555
Zn19_2 O31_3 1_555 1_555
Zn21_3 O28_3 1_555 1_555
Zn23_3 O50_3 1_555 1_555
Zn23_2 O54_3 1_555 1_555
Zn27_2 O58_3 1_555 1_555
Zn29_3 O29_3 1_555 1_555
Zn31_3 O51_3 1_555 1_555
Zn31_2 O55_3 1_555 1_555
Zn35_2 O59_3 1_555 1_555
O74_2 Zn9_4 1_555 1_555
O76_2 Zn7_4 1_555 1_555
O79_2 Zn10_4 1_555 1_555
O81_2 Zn8_4 1_555 1_555
C34_3 O20_3 1_555 1_555
C34_3 O21_3 1_555 1_555
C39_3 C40_3 1_555 1_555
C50_3 C51_3 1_555 1_555
C50_3 C53_3 1_555 1_555
C61_3 C62_3 1_555 1_555
C61_3 C64_3 1_555 1_555
C64_3 C65_3 1_555 1_555
C100_3 O48_2 1_555 1_555
C100_3 O49_2 1_555 1_555
C105_3 C106_3 1_555 1_555
C111_3 O52_2 1_555 1_555
C111_3 O53_2 1_555 1_555
C116_3 C117_3 1_555 1_555
C116_3 C119_3 1_555 1_555
C127_3 C128_3 1_555 1_555
C127_3 C130_3 1_555 1_555
C130_3 C131_3 1_555 1_555
O56_3 Zn16_2 1_555 1_555
O57_3 Zn19_2 1_555 1_555
C132_3 H47_3 1_555 1_555
C132_3 H48_3 1_555 1_555
C132_3 H49_3 1_555 1_555
C44_3 H89_3 1_555 1_555
C44_3 H90_3 1_555 1_555
C44_3 H91_3 1_555 1_555
C55_3 H92_3 1_555 1_555
C55_3 H93_3 1_555 1_555
C55_3 H94_3 1_555 1_555
C66_3 H105_3 1_555 1_555
C66_3 H106_3 1_555 1_555
C66_3 H107_3 1_555 1_555
C121_3 H111_3 1_555 1_555
C121_3 H112_3 1_555 1_555
C121_3 H113_3 1_555 1_555
C110_3 H114_3 1_555 1_555
C110_3 H115_3 1_555 1_555
C110_3 H116_3 1_555 1_555
C100_4 C101_4 1_555 1_555
C101_4 C102_4 1_555 1_555
C102_4 H28_4 1_555 1_555
C103_4 C102_4 1_555 1_555
C104_4 C103_4 1_555 1_555
H29_4 C104_4 1_555 1_555
C105_4 C104_4 1_555 1_555
C106_4 C101_4 1_555 1_555
H30_4 C106_4 1_555 1_555
C107_4 C103_4 1_555 1_555
C108_4 C105_4 1_555 1_555
C109_4 C108_4 1_555 1_555
C110_4 C109_4 1_555 1_555
O50_4 C107_4 1_555 1_555
O51_4 C107_4 1_555 1_555
C111_4 C112_4 1_555 1_555
C112_4 C113_4 1_555 1_555
C113_4 H31_4 1_555 1_555
C114_4 C113_4 1_555 1_555
C115_4 C114_4 1_555 1_555
H32_4 C115_4 1_555 1_555
C116_4 C115_4 1_555 1_555
C117_4 C112_4 1_555 1_555
H33_4 C117_4 1_555 1_555
C118_4 C114_4 1_555 1_555
C119_4 C109_4 1_555 1_555
C120_4 C119_4 1_555 1_555
C121_4 C120_4 1_555 1_555
O54_4 C118_4 1_555 1_555
O55_4 C118_4 1_555 1_555
C122_4 C123_4 1_555 1_555
C123_4 C124_4 1_555 1_555
C124_4 H34_4 1_555 1_555
C125_4 C124_4 1_555 1_555
C126_4 C125_4 1_555 1_555
H35_4 C126_4 1_555 1_555
C127_4 C126_4 1_555 1_555
C128_4 C123_4 1_555 1_555
H36_4 C128_4 1_555 1_555
C129_4 C125_4 1_555 1_555
C130_4 C120_4 1_555 1_555
C131_4 C108_4 1_555 1_555
C132_4 C131_4 1_555 1_555
O56_4 C122_4 1_555 1_555
O57_4 C122_4 1_555 1_555
O58_4 C129_4 1_555 1_555
O59_4 C129_4 1_555 1_555
Zn23_4 O50_4 1_555 1_555
Zn22 O54_4 1_555 1_555
Zn28 O58_4 1_555 1_555
Zn31_4 O51_4 1_555 1_555
Zn30 O55_4 1_555 1_555
Zn36 O59_4 1_555 1_555
C100_4 O75_2 1_555 1_555
C100_4 O80_2 1_555 1_555
C105_4 C106_4 1_555 1_555
C111_4 O78_2 1_555 1_555
C111_4 O83_2 1_555 1_555
C116_4 C117_4 1_555 1_555
C116_4 C119_4 1_555 1_555
C127_4 C128_4 1_555 1_555
C127_4 C130_4 1_555 1_555
C130_4 C131_4 1_555 1_555
O56_4 Zn17_2 1_555 1_555
O57_4 Zn20_2 1_555 1_555
C132_4 H47_4 1_555 1_555
C132_4 H48_4 1_555 1_555
C132_4 H49_4 1_555 1_555
C121_4 H111_4 1_555 1_555
C121_4 H112_4 1_555 1_555
C121_4 H113_4 1_555 1_555
C110_4 H114_4 1_555 1_555
C110_4 H115_4 1_555 1_555
C110_4 H116_4 1_555 1_555
C67_4 C68_4 1_555 1_555
C68_4 C69_4 1_555 1_555
C69_4 H19_4 1_555 1_555
C70_4 C69_4 1_555 1_555
C71_4 C70_4 1_555 1_555
H20_4 C71_4 1_555 1_555
C72_4 C71_4 1_555 1_555
C73_4 C68_4 1_555 1_555
H21_4 C73_4 1_555 1_555
C74_4 C70_4 1_555 1_555
C75_4 C72_4 1_555 1_555
C76_4 C75_4 1_555 1_555
C77_4 C76_4 1_555 1_555
O38_4 C74_4 1_555 1_555
O39_4 C74_4 1_555 1_555
C78_4 C79_4 1_555 1_555
C79_4 C80_4 1_555 1_555
C80_4 H22_4 1_555 1_555
C81_4 C80_4 1_555 1_555
C82_4 C81_4 1_555 1_555
H23_4 C82_4 1_555 1_555
C83_4 C82_4 1_555 1_555
C84_4 C79_4 1_555 1_555
H24_4 C84_4 1_555 1_555
C85_4 C81_4 1_555 1_555
C86_4 C76_4 1_555 1_555
C87_4 C86_4 1_555 1_555
C88_4 C87_4 1_555 1_555
O40_4 C78_4 1_555 1_555
O41_4 C78_4 1_555 1_555
O42_4 C85_4 1_555 1_555
O43_4 C85_4 1_555 1_555
C89_4 C90_4 1_555 1_555
C90_4 C91_4 1_555 1_555
C91_4 H25_4 1_555 1_555
C92_4 C91_4 1_555 1_555
C93_4 C92_4 1_555 1_555
H26_4 C93_4 1_555 1_555
C94_4 C93_4 1_555 1_555
C95_4 C90_4 1_555 1_555
H27_4 C95_4 1_555 1_555
C96_4 C92_4 1_555 1_555
C97_4 C87_4 1_555 1_555
C98_4 C75_4 1_555 1_555
C99_4 C98_4 1_555 1_555
O44_4 C89_4 1_555 1_555
O45_4 C89_4 1_555 1_555
O46_4 C96_4 1_555 1_555
O47_4 C96_4 1_555 1_555
O62_6 Zn21_3 1_555 1_555
O63_6 Zn29_3 1_555 1_555
O70_6 Zn21_3 1_555 1_555
O71_6 Zn21_3 1_555 1_555
Zn15_4 O40_4 1_555 1_555
Zn18_4 O41_4 1_555 1_555
Zn22_4 O38_4 1_555 1_555
Zn22_2 O42_4 1_555 1_555
Zn28_2 O46_4 1_555 1_555
Zn30_4 O39_4 1_555 1_555
Zn30_2 O43_4 1_555 1_555
Zn36_2 O47_4 1_555 1_555
O84_6 Zn21_3 1_555 1_555
O85_6 Zn21_3 1_555 1_555
O92_6 Zn29_3 1_555 1_555
O93_6 Zn29_3 1_555 1_555
C67_4 O74_2 1_555 1_555
C67_4 O79_2 1_555 1_555
C72_4 C73_4 1_555 1_555
C83_4 C84_4 1_555 1_555
C83_4 C86_4 1_555 1_555
C94_4 C95_4 1_555 1_555
C94_4 C97_4 1_555 1_555
C97_4 C98_4 1_555 1_555
O44_4 Zn16_2 1_555 1_555
O45_4 Zn19_2 1_555 1_555
C88_4 H95_4 1_555 1_555
C88_4 H96_4 1_555 1_555
C88_4 H97_4 1_555 1_555
C77_4 H98_4 1_555 1_555
C77_4 H99_4 1_555 1_555
C77_4 H100_4 1_555 1_555
C99_4 H108_4 1_555 1_555
C99_4 H109_4 1_555 1_555
C99_4 H110_4 1_555 1_555
O5_7 Zn15_3 1_555 1_555
O7_7 Zn18_3 1_555 1_555
C34_4 C35_4 1_555 1_555
C35_4 C36_4 1_555 1_555
C36_4 H10_4 1_555 1_555
C37_4 C36_4 1_555 1_555
C38_4 C37_4 1_555 1_555
H11_4 C38_4 1_555 1_555
C39_4 C38_4 1_555 1_555
C40_4 C35_4 1_555 1_555
H12_4 C40_4 1_555 1_555
C41_4 C37_4 1_555 1_555
C42_4 C39_4 1_555 1_555
C43_4 C42_4 1_555 1_555
C44_4 C43_4 1_555 1_555
O20_4 Zn15_3 1_555 1_555
O21_4 Zn18_3 1_555 1_555
O84_3 C41_4 1_555 1_555
O92_3 C41_4 1_555 1_555
C45_4 C46_4 1_555 1_555
C46_4 C47_4 1_555 1_555
C47_4 H13_4 1_555 1_555
C48_4 C47_4 1_555 1_555
C49_4 C48_4 1_555 1_555
H14_4 C49_4 1_555 1_555
C50_4 C49_4 1_555 1_555
C51_4 C46_4 1_555 1_555
H15_4 C51_4 1_555 1_555
C52_4 C48_4 1_555 1_555
C53_4 C43_4 1_555 1_555
C54_4 C53_4 1_555 1_555
C55_4 C54_4 1_555 1_555
O77_2 C45_4 1_555 1_555
O82_2 C45_4 1_555 1_555
O28_4 C52_4 1_555 1_555
O29_4 C52_4 1_555 1_555
C56_4 C57_4 1_555 1_555
C57_4 C58_4 1_555 1_555
C58_4 H16_4 1_555 1_555
C59_4 C58_4 1_555 1_555
C60_4 C59_4 1_555 1_555
H17_4 C60_4 1_555 1_555
C61_4 C60_4 1_555 1_555
C62_4 C57_4 1_555 1_555
H18_4 C62_4 1_555 1_555
C63_4 C59_4 1_555 1_555
C64_4 C54_4 1_555 1_555
C65_4 C42_4 1_555 1_555
C66_4 C65_4 1_555 1_555
O30_4 C56_4 1_555 1_555
O31_4 C56_4 1_555 1_555
O88_3 C63_4 1_555 1_555
O96_3 C63_4 1_555 1_555
Zn17_2 O30_4 1_555 1_555
Zn20_2 O31_4 1_555 1_555
Zn21_4 O28_4 1_555 1_555
Zn29_4 O29_4 1_555 1_555
C34_4 O20_4 1_555 1_555
C34_4 O21_4 1_555 1_555
C39_4 C40_4 1_555 1_555
C50_4 C51_4 1_555 1_555
C50_4 C53_4 1_555 1_555
C61_4 C62_4 1_555 1_555
C61_4 C64_4 1_555 1_555
C64_4 C65_4 1_555 1_555
C44_4 H89_4 1_555 1_555
C44_4 H90_4 1_555 1_555
C44_4 H91_4 1_555 1_555
C55_4 H92_4 1_555 1_555
C55_4 H93_4 1_555 1_555
C55_4 H94_4 1_555 1_555
C66_4 H105_4 1_555 1_555
C66_4 H106_4 1_555 1_555
C66_4 H107_4 1_555 1_555
Zn15_4 O4_4 1_555 1_555
Zn18_4 O6_4 1_555 1_555
C1_4 C2_4 1_555 1_555
C2_4 C3_4 1_555 1_555
C3_4 H1_4 1_555 1_555
C4_4 C3_4 1_555 1_555
C5_4 C4_4 1_555 1_555
H2_4 C5_4 1_555 1_555
C6_4 C5_4 1_555 1_555
C7_4 C2_4 1_555 1_555
H3_4 C7_4 1_555 1_555
C8_4 C4_4 1_555 1_555
C9_4 C6_4 1_555 1_555
C10_4 C9_4 1_555 1_555
C11_4 C10_4 1_555 1_555
O4_4 C1_4 1_555 1_555
O5_8 Zn15_4 1_555 1_555
O6_4 C1_4 1_555 1_555
O7_8 Zn18_4 1_555 1_555
O84_2 C8_4 1_555 1_555
O92_2 C8_4 1_555 1_555
C12_4 C13_4 1_555 1_555
C13_4 C14_4 1_555 1_555
C14_4 H4_4 1_555 1_555
C15_4 C14_4 1_555 1_555
C16_4 C15_4 1_555 1_555
H5_4 C16_4 1_555 1_555
C17_4 C16_4 1_555 1_555
C18_4 C13_4 1_555 1_555
H6_4 C18_4 1_555 1_555
C19_4 C15_4 1_555 1_555
C20_4 C10_4 1_555 1_555
C21_4 C20_4 1_555 1_555
C22_4 C21_4 1_555 1_555
O76_2 C12_4 1_555 1_555
O81_2 C12_4 1_555 1_555
O14_4 C19_4 1_555 1_555
O15_4 C19_4 1_555 1_555
C23_4 C24_4 1_555 1_555
C24_4 C25_4 1_555 1_555
C25_4 H7_4 1_555 1_555
C26_4 C25_4 1_555 1_555
C27_4 C26_4 1_555 1_555
H8_4 C27_4 1_555 1_555
C28_4 C27_4 1_555 1_555
C29_4 C24_4 1_555 1_555
H9_4 C29_4 1_555 1_555
C30_4 C26_4 1_555 1_555
C31_4 C21_4 1_555 1_555
C32_4 C9_4 1_555 1_555
C33_4 C32_4 1_555 1_555
O16_4 C23_4 1_555 1_555
O17_4 C23_4 1_555 1_555
O88_2 C30_4 1_555 1_555
O96_2 C30_4 1_555 1_555
Zn11_4 O14_4 1_555 1_555
Zn12_4 O15_4 1_555 1_555
O62_7 Zn11_4 1_555 1_555
O63_7 Zn12_4 1_555 1_555
O70_7 Zn11_4 1_555 1_555
O71_7 Zn11_4 1_555 1_555
Zn16_2 O16_4 1_555 1_555
Zn19_2 O17_4 1_555 1_555
O84_7 Zn11_4 1_555 1_555
O85_7 Zn11_4 1_555 1_555
O92_7 Zn12_4 1_555 1_555
O93_7 Zn12_4 1_555 1_555
C6_4 C7_4 1_555 1_555
C17_4 C18_4 1_555 1_555
C17_4 C20_4 1_555 1_555
C28_4 C29_4 1_555 1_555
C28_4 C31_4 1_555 1_555
C31_4 C32_4 1_555 1_555
C11_4 H68_4 1_555 1_555
C11_4 H69_4 1_555 1_555
C11_4 H70_4 1_555 1_555
C33_4 H77_4 1_555 1_555
C33_4 H78_4 1_555 1_555
C33_4 H79_4 1_555 1_555
C22_4 H80_4 1_555 1_555
C22_4 H81_4 1_555 1_555
C22_4 H82_4 1_555 1_555
O62_8 Zn21_4 1_555 1_555
O63_8 Zn29_4 1_555 1_555
O70_8 Zn21_4 1_555 1_555
O71_8 Zn21_4 1_555 1_555
O84_8 Zn21_4 1_555 1_555
O85_8 Zn21_4 1_555 1_555
O92_8 Zn29_4 1_555 1_555
O93_8 Zn29_4 1_555 1_555
Zn1_5 O4_5 1_555 1_555
Zn2_5 O6_5 1_555 1_555
C1_5 C2_5 1_555 1_555
C2_5 C3_5 1_555 1_555
C3_5 H1_5 1_555 1_555
C4_5 C3_5 1_555 1_555
C5_5 C4_5 1_555 1_555
H2_5 C5_5 1_555 1_555
C6_5 C5_5 1_555 1_555
C7_5 C2_5 1_555 1_555
H3_5 C7_5 1_555 1_555
C8_5 C4_5 1_555 1_555
C9_5 C6_5 1_555 1_555
C10_5 C9_5 1_555 1_555
C11_5 C10_5 1_555 1_555
O4_5 C1_5 1_555 1_555
O5_9 Zn1_5 1_555 1_555
O6_5 C1_5 1_555 1_555
O7_9 Zn2_5 1_555 1_555
O84_5 C8_5 1_555 1_555
O92_5 C8_5 1_555 1_555
C12_5 C13_5 1_555 1_555
C13_5 C14_5 1_555 1_555
C14_5 H4_5 1_555 1_555
C15_5 C14_5 1_555 1_555
C16_5 C15_5 1_555 1_555
H5_5 C16_5 1_555 1_555
C17_5 C16_5 1_555 1_555
C18_5 C13_5 1_555 1_555
H6_5 C18_5 1_555 1_555
C19_5 C15_5 1_555 1_555
C20_5 C10_5 1_555 1_555
C21_5 C20_5 1_555 1_555
C22_5 C21_5 1_555 1_555
O12_3 C12_5 1_555 1_555
O13_3 C12_5 1_555 1_555
O86 C19_5 1_555 1_555
O94 C19_5 1_555 1_555
C23_5 C24_5 1_555 1_555
C24_5 C25_5 1_555 1_555
C25_5 H7_5 1_555 1_555
C26_5 C25_5 1_555 1_555
C27_5 C26_5 1_555 1_555
H8_5 C27_5 1_555 1_555
C28_5 C27_5 1_555 1_555
C29_5 C24_5 1_555 1_555
H9_5 C29_5 1_555 1_555
C30_5 C26_5 1_555 1_555
C31_5 C21_5 1_555 1_555
C32_5 C9_5 1_555 1_555
C33_5 C32_5 1_555 1_555
O16_5 C23_5 1_555 1_555
O17_5 C23_5 1_555 1_555
O89 C30_5 1_555 1_555
O97 C30_5 1_555 1_555
Zn7_5 O12_3 1_555 1_555
Zn8_5 O13_3 1_555 1_555
C67_5 C68_5 1_555 1_555
C68_5 C69_5 1_555 1_555
C69_5 H19_5 1_555 1_555
C70_5 C69_5 1_555 1_555
C71_5 C70_5 1_555 1_555
H20_5 C71_5 1_555 1_555
C72_5 C71_5 1_555 1_555
C73_5 C68_5 1_555 1_555
H21_5 C73_5 1_555 1_555
C74_5 C70_5 1_555 1_555
C75_5 C72_5 1_555 1_555
C76_5 C75_5 1_555 1_555
C77_5 C76_5 1_555 1_555
O34_3 Zn7_5 1_555 1_555
O35_5 Zn7_5 1_555 1_555
O36_3 Zn8_5 1_555 1_555
O37_5 Zn8_5 1_555 1_555
O38_5 C74_5 1_555 1_555
O39_5 C74_5 1_555 1_555
C78_5 C79_5 1_555 1_555
C79_5 C80_5 1_555 1_555
C80_5 H22_5 1_555 1_555
C81_5 C80_5 1_555 1_555
C82_5 C81_5 1_555 1_555
H23_5 C82_5 1_555 1_555
C83_5 C82_5 1_555 1_555
C84_5 C79_5 1_555 1_555
H24_5 C84_5 1_555 1_555
C85_5 C81_5 1_555 1_555
C86_5 C76_5 1_555 1_555
C87_5 C86_5 1_555 1_555
C88_5 C87_5 1_555 1_555
O40_5 C78_5 1_555 1_555
O41_5 C78_5 1_555 1_555
O42_5 C85_5 1_555 1_555
O43_5 C85_5 1_555 1_555
C89_5 C90_5 1_555 1_555
C90_5 C91_5 1_555 1_555
C91_5 H25_5 1_555 1_555
C92_5 C91_5 1_555 1_555
C93_5 C92_5 1_555 1_555
H26_5 C93_5 1_555 1_555
C94_5 C93_5 1_555 1_555
C95_5 C90_5 1_555 1_555
H27_5 C95_5 1_555 1_555
C96_5 C92_5 1_555 1_555
C97_5 C87_5 1_555 1_555
C98_5 C75_5 1_555 1_555
C99_5 C98_5 1_555 1_555
O44_5 C89_5 1_555 1_555
O45_5 C89_5 1_555 1_555
O46_5 C96_5 1_555 1_555
O47_5 C96_5 1_555 1_555
O60_5 Zn9_5 1_555 1_555
O61_5 Zn10_5 1_555 1_555
Zn15_5 O40_5 1_555 1_555
Zn17_3 O16_5 1_555 1_555
Zn18_5 O41_5 1_555 1_555
Zn20_3 O17_5 1_555 1_555
Zn25_2 O38_5 1_555 1_555
Zn23_3 O42_5 1_555 1_555
Zn27_2 O46_5 1_555 1_555
Zn33_2 O39_5 1_555 1_555
Zn31_3 O43_5 1_555 1_555
Zn35_2 O47_5 1_555 1_555
O75_3 Zn9_5 1_555 1_555
O77_3 Zn9_5 1_555 1_555
O78_3 Zn1_5 1_555 1_555
O80_3 Zn10_5 1_555 1_555
O82_3 Zn10_5 1_555 1_555
O83_3 Zn2_5 1_555 1_555
C6_5 C7_5 1_555 1_555
C17_5 C18_5 1_555 1_555
C17_5 C20_5 1_555 1_555
C28_5 C29_5 1_555 1_555
C28_5 C31_5 1_555 1_555
C31_5 C32_5 1_555 1_555
C67_5 O34_3 1_555 1_555
C67_5 O36_3 1_555 1_555
C72_5 C73_5 1_555 1_555
C83_5 C84_5 1_555 1_555
C83_5 C86_5 1_555 1_555
C94_5 C95_5 1_555 1_555
C94_5 C97_5 1_555 1_555
C97_5 C98_5 1_555 1_555
O44_5 Zn17_3 1_555 1_555
O45_5 Zn20_3 1_555 1_555
C11_5 H68_5 1_555 1_555
C11_5 H69_5 1_555 1_555
C11_5 H70_5 1_555 1_555
C33_5 H77_5 1_555 1_555
C33_5 H78_5 1_555 1_555
C33_5 H79_5 1_555 1_555
C22_5 H80_5 1_555 1_555
C22_5 H81_5 1_555 1_555
C22_5 H82_5 1_555 1_555
C88_5 H95_5 1_555 1_555
C88_5 H96_5 1_555 1_555
C88_5 H97_5 1_555 1_555
C77_5 H98_5 1_555 1_555
C77_5 H99_5 1_555 1_555
C77_5 H100_5 1_555 1_555
C99_5 H108_5 1_555 1_555
C99_5 H109_5 1_555 1_555
C99_5 H110_5 1_555 1_555
O5_10 Zn1_6 1_555 1_555
O7_10 Zn2_6 1_555 1_555
C34_5 C35_5 1_555 1_555
C35_5 C36_5 1_555 1_555
C36_5 H10_5 1_555 1_555
C37_5 C36_5 1_555 1_555
C38_5 C37_5 1_555 1_555
H11_5 C38_5 1_555 1_555
C39_5 C38_5 1_555 1_555
C40_5 C35_5 1_555 1_555
H12_5 C40_5 1_555 1_555
C41_5 C37_5 1_555 1_555
C42_5 C39_5 1_555 1_555
C43_5 C42_5 1_555 1_555
C44_5 C43_5 1_555 1_555
O20_5 Zn1_6 1_555 1_555
O21_5 Zn2_6 1_555 1_555
O84_8 C41_5 1_555 1_555
O92_8 C41_5 1_555 1_555
C45_5 C46_5 1_555 1_555
C46_5 C47_5 1_555 1_555
C47_5 H13_5 1_555 1_555
C48_5 C47_5 1_555 1_555
C49_5 C48_5 1_555 1_555
H14_5 C49_5 1_555 1_555
C50_5 C49_5 1_555 1_555
C51_5 C46_5 1_555 1_555
H15_5 C51_5 1_555 1_555
C52_5 C48_5 1_555 1_555
C53_5 C43_5 1_555 1_555
C54_5 C53_5 1_555 1_555
C55_5 C54_5 1_555 1_555
O26_3 C45_5 1_555 1_555
O27_3 C45_5 1_555 1_555
O86_2 C52_5 1_555 1_555
O94_2 C52_5 1_555 1_555
C56_5 C57_5 1_555 1_555
C57_5 C58_5 1_555 1_555
C58_5 H16_5 1_555 1_555
C59_5 C58_5 1_555 1_555
C60_5 C59_5 1_555 1_555
H17_5 C60_5 1_555 1_555
C61_5 C60_5 1_555 1_555
C62_5 C57_5 1_555 1_555
H18_5 C62_5 1_555 1_555
C63_5 C59_5 1_555 1_555
C64_5 C54_5 1_555 1_555
C65_5 C42_5 1_555 1_555
C66_5 C65_5 1_555 1_555
O30_5 C56_5 1_555 1_555
O31_5 C56_5 1_555 1_555
O89_3 C63_5 1_555 1_555
O97_3 C63_5 1_555 1_555
O35_6 Zn7_6 1_555 1_555
O37_6 Zn8_6 1_555 1_555
C100_5 C101_5 1_555 1_555
C101_5 C102_5 1_555 1_555
C102_5 H28_5 1_555 1_555
C103_5 C102_5 1_555 1_555
C104_5 C103_5 1_555 1_555
H29_5 C104_5 1_555 1_555
C105_5 C104_5 1_555 1_555
C106_5 C101_5 1_555 1_555
H30_5 C106_5 1_555 1_555
C107_5 C103_5 1_555 1_555
C108_5 C105_5 1_555 1_555
C109_5 C108_5 1_555 1_555
C110_5 C109_5 1_555 1_555
O48_3 Zn7_6 1_555 1_555
O49_3 Zn8_6 1_555 1_555
O50_5 C107_5 1_555 1_555
O51_5 C107_5 1_555 1_555
C111_5 C112_5 1_555 1_555
C112_5 C113_5 1_555 1_555
C113_5 H31_5 1_555 1_555
C114_5 C113_5 1_555 1_555
C115_5 C114_5 1_555 1_555
H32_5 C115_5 1_555 1_555
C116_5 C115_5 1_555 1_555
C117_5 C112_5 1_555 1_555
H33_5 C117_5 1_555 1_555
C118_5 C114_5 1_555 1_555
C119_5 C109_5 1_555 1_555
C120_5 C119_5 1_555 1_555
C121_5 C120_5 1_555 1_555
O52_3 Zn1_6 1_555 1_555
O53_3 Zn2_6 1_555 1_555
O54_5 C118_5 1_555 1_555
O55_5 C118_5 1_555 1_555
C122_5 C123_5 1_555 1_555
C123_5 C124_5 1_555 1_555
C124_5 H34_5 1_555 1_555
C125_5 C124_5 1_555 1_555
C126_5 C125_5 1_555 1_555
H35_5 C126_5 1_555 1_555
C127_5 C126_5 1_555 1_555
C128_5 C123_5 1_555 1_555
H36_5 C128_5 1_555 1_555
C129_5 C125_5 1_555 1_555
C130_5 C120_5 1_555 1_555
C131_5 C108_5 1_555 1_555
C132_5 C131_5 1_555 1_555
O56_5 C122_5 1_555 1_555
O57_5 C122_5 1_555 1_555
O58_5 C129_5 1_555 1_555
O59_5 C129_5 1_555 1_555
Zn9_6 O26_3 1_555 1_555
Zn10_6 O27_3 1_555 1_555
O60_6 Zn9_6 1_555 1_555
O61_6 Zn10_6 1_555 1_555
Zn16_3 O30_5 1_555 1_555
Zn19_3 O31_5 1_555 1_555
Zn24 O50_5 1_555 1_555
Zn23_4 O54_5 1_555 1_555
Zn28 O58_5 1_555 1_555
Zn32 O51_5 1_555 1_555
Zn31_4 O55_5 1_555 1_555
Zn36 O59_5 1_555 1_555
O74_3 Zn9_6 1_555 1_555
O76_3 Zn7_6 1_555 1_555
O79_3 Zn10_6 1_555 1_555
O81_3 Zn8_6 1_555 1_555
C34_5 O20_5 1_555 1_555
C34_5 O21_5 1_555 1_555
C39_5 C40_5 1_555 1_555
C50_5 C51_5 1_555 1_555
C50_5 C53_5 1_555 1_555
C61_5 C62_5 1_555 1_555
C61_5 C64_5 1_555 1_555
C64_5 C65_5 1_555 1_555
C100_5 O48_3 1_555 1_555
C100_5 O49_3 1_555 1_555
C105_5 C106_5 1_555 1_555
C111_5 O52_3 1_555 1_555
C111_5 O53_3 1_555 1_555
C116_5 C117_5 1_555 1_555
C116_5 C119_5 1_555 1_555
C127_5 C128_5 1_555 1_555
C127_5 C130_5 1_555 1_555
C130_5 C131_5 1_555 1_555
O56_5 Zn16_3 1_555 1_555
O57_5 Zn19_3 1_555 1_555
C132_5 H47_5 1_555 1_555
C132_5 H48_5 1_555 1_555
C132_5 H49_5 1_555 1_555
C44_5 H89_5 1_555 1_555
C44_5 H90_5 1_555 1_555
C44_5 H91_5 1_555 1_555
C55_5 H92_5 1_555 1_555
C55_5 H93_5 1_555 1_555
C55_5 H94_5 1_555 1_555
C66_5 H105_5 1_555 1_555
C66_5 H106_5 1_555 1_555
C66_5 H107_5 1_555 1_555
C121_5 H111_5 1_555 1_555
C121_5 H112_5 1_555 1_555
C121_5 H113_5 1_555 1_555
C110_5 H114_5 1_555 1_555
C110_5 H115_5 1_555 1_555
C110_5 H116_5 1_555 1_555
C100_6 C101_6 1_555 1_555
C101_6 C102_6 1_555 1_555
C102_6 H28_6 1_555 1_555
C103_6 C102_6 1_555 1_555
C104_6 C103_6 1_555 1_555
H29_6 C104_6 1_555 1_555
C105_6 C104_6 1_555 1_555
C106_6 C101_6 1_555 1_555
H30_6 C106_6 1_555 1_555
C107_6 C103_6 1_555 1_555
C108_6 C105_6 1_555 1_555
C109_6 C108_6 1_555 1_555
C110_6 C109_6 1_555 1_555
O50_6 C107_6 1_555 1_555
O51_6 C107_6 1_555 1_555
C111_6 C112_6 1_555 1_555
C112_6 C113_6 1_555 1_555
C113_6 H31_6 1_555 1_555
C114_6 C113_6 1_555 1_555
C115_6 C114_6 1_555 1_555
H32_6 C115_6 1_555 1_555
C116_6 C115_6 1_555 1_555
C117_6 C112_6 1_555 1_555
H33_6 C117_6 1_555 1_555
C118_6 C114_6 1_555 1_555
C119_6 C109_6 1_555 1_555
C120_6 C119_6 1_555 1_555
C121_6 C120_6 1_555 1_555
O54_6 C118_6 1_555 1_555
O55_6 C118_6 1_555 1_555
C122_6 C123_6 1_555 1_555
C123_6 C124_6 1_555 1_555
C124_6 H34_6 1_555 1_555
C125_6 C124_6 1_555 1_555
C126_6 C125_6 1_555 1_555
H35_6 C126_6 1_555 1_555
C127_6 C126_6 1_555 1_555
C128_6 C123_6 1_555 1_555
H36_6 C128_6 1_555 1_555
C129_6 C125_6 1_555 1_555
C130_6 C120_6 1_555 1_555
C131_6 C108_6 1_555 1_555
C132_6 C131_6 1_555 1_555
O56_6 C122_6 1_555 1_555
O57_6 C122_6 1_555 1_555
O58_6 C129_6 1_555 1_555
O59_6 C129_6 1_555 1_555
Zn25 O50_6 1_555 1_555
Zn22_3 O54_6 1_555 1_555
Zn27 O58_6 1_555 1_555
Zn33 O51_6 1_555 1_555
Zn30_3 O55_6 1_555 1_555
Zn35 O59_6 1_555 1_555
C100_6 O75_3 1_555 1_555
C100_6 O80_3 1_555 1_555
C105_6 C106_6 1_555 1_555
C111_6 O78_3 1_555 1_555
C111_6 O83_3 1_555 1_555
C116_6 C117_6 1_555 1_555
C116_6 C119_6 1_555 1_555
C127_6 C128_6 1_555 1_555
C127_6 C130_6 1_555 1_555
C130_6 C131_6 1_555 1_555
O56_6 Zn17_3 1_555 1_555
O57_6 Zn20_3 1_555 1_555
C132_6 H47_6 1_555 1_555
C132_6 H48_6 1_555 1_555
C132_6 H49_6 1_555 1_555
C121_6 H111_6 1_555 1_555
C121_6 H112_6 1_555 1_555
C121_6 H113_6 1_555 1_555
C110_6 H114_6 1_555 1_555
C110_6 H115_6 1_555 1_555
C110_6 H116_6 1_555 1_555
C67_6 C68_6 1_555 1_555
C68_6 C69_6 1_555 1_555
C69_6 H19_6 1_555 1_555
C70_6 C69_6 1_555 1_555
C71_6 C70_6 1_555 1_555
H20_6 C71_6 1_555 1_555
C72_6 C71_6 1_555 1_555
C73_6 C68_6 1_555 1_555
H21_6 C73_6 1_555 1_555
C74_6 C70_6 1_555 1_555
C75_6 C72_6 1_555 1_555
C76_6 C75_6 1_555 1_555
C77_6 C76_6 1_555 1_555
O38_6 C74_6 1_555 1_555
O39_6 C74_6 1_555 1_555
C78_6 C79_6 1_555 1_555
C79_6 C80_6 1_555 1_555
C80_6 H22_6 1_555 1_555
C81_6 C80_6 1_555 1_555
C82_6 C81_6 1_555 1_555
H23_6 C82_6 1_555 1_555
C83_6 C82_6 1_555 1_555
C84_6 C79_6 1_555 1_555
H24_6 C84_6 1_555 1_555
C85_6 C81_6 1_555 1_555
C86_6 C76_6 1_555 1_555
C87_6 C86_6 1_555 1_555
C88_6 C87_6 1_555 1_555
O40_6 C78_6 1_555 1_555
O41_6 C78_6 1_555 1_555
O42_6 C85_6 1_555 1_555
O43_6 C85_6 1_555 1_555
C89_6 C90_6 1_555 1_555
C90_6 C91_6 1_555 1_555
C91_6 H25_6 1_555 1_555
C92_6 C91_6 1_555 1_555
C93_6 C92_6 1_555 1_555
H26_6 C93_6 1_555 1_555
C94_6 C93_6 1_555 1_555
C95_6 C90_6 1_555 1_555
H27_6 C95_6 1_555 1_555
C96_6 C92_6 1_555 1_555
C97_6 C87_6 1_555 1_555
C98_6 C75_6 1_555 1_555
C99_6 C98_6 1_555 1_555
O44_6 C89_6 1_555 1_555
O45_6 C89_6 1_555 1_555
O46_6 C96_6 1_555 1_555
O47_6 C96_6 1_555 1_555
Zn15_6 O40_6 1_555 1_555
Zn18_6 O41_6 1_555 1_555
Zn24_2 O38_6 1_555 1_555
Zn22_4 O42_6 1_555 1_555
Zn28_2 O46_6 1_555 1_555
Zn32_2 O39_6 1_555 1_555
Zn30_4 O43_6 1_555 1_555
Zn36_2 O47_6 1_555 1_555
C67_6 O74_3 1_555 1_555
C67_6 O79_3 1_555 1_555
C72_6 C73_6 1_555 1_555
C83_6 C84_6 1_555 1_555
C83_6 C86_6 1_555 1_555
C94_6 C95_6 1_555 1_555
C94_6 C97_6 1_555 1_555
C97_6 C98_6 1_555 1_555
O44_6 Zn16_3 1_555 1_555
O45_6 Zn19_3 1_555 1_555
C88_6 H95_6 1_555 1_555
C88_6 H96_6 1_555 1_555
C88_6 H97_6 1_555 1_555
C77_6 H98_6 1_555 1_555
C77_6 H99_6 1_555 1_555
C77_6 H100_6 1_555 1_555
C99_6 H108_6 1_555 1_555
C99_6 H109_6 1_555 1_555
C99_6 H110_6 1_555 1_555
O5_11 Zn15_5 1_555 1_555
O7_11 Zn18_5 1_555 1_555
C34_6 C35_6 1_555 1_555
C35_6 C36_6 1_555 1_555
C36_6 H10_6 1_555 1_555
C37_6 C36_6 1_555 1_555
C38_6 C37_6 1_555 1_555
H11_6 C38_6 1_555 1_555
C39_6 C38_6 1_555 1_555
C40_6 C35_6 1_555 1_555
H12_6 C40_6 1_555 1_555
C41_6 C37_6 1_555 1_555
C42_6 C39_6 1_555 1_555
C43_6 C42_6 1_555 1_555
C44_6 C43_6 1_555 1_555
O20_6 Zn15_5 1_555 1_555
O21_6 Zn18_5 1_555 1_555
O84_7 C41_6 1_555 1_555
O92_7 C41_6 1_555 1_555
C45_6 C46_6 1_555 1_555
C46_6 C47_6 1_555 1_555
C47_6 H13_6 1_555 1_555
C48_6 C47_6 1_555 1_555
C49_6 C48_6 1_555 1_555
H14_6 C49_6 1_555 1_555
C50_6 C49_6 1_555 1_555
C51_6 C46_6 1_555 1_555
H15_6 C51_6 1_555 1_555
C52_6 C48_6 1_555 1_555
C53_6 C43_6 1_555 1_555
C54_6 C53_6 1_555 1_555
C55_6 C54_6 1_555 1_555
O77_3 C45_6 1_555 1_555
O82_3 C45_6 1_555 1_555
O87 C52_6 1_555 1_555
O95 C52_6 1_555 1_555
C56_6 C57_6 1_555 1_555
C57_6 C58_6 1_555 1_555
C58_6 H16_6 1_555 1_555
C59_6 C58_6 1_555 1_555
C60_6 C59_6 1_555 1_555
H17_6 C60_6 1_555 1_555
C61_6 C60_6 1_555 1_555
C62_6 C57_6 1_555 1_555
H18_6 C62_6 1_555 1_555
C63_6 C59_6 1_555 1_555
C64_6 C54_6 1_555 1_555
C65_6 C42_6 1_555 1_555
C66_6 C65_6 1_555 1_555
O30_6 C56_6 1_555 1_555
O31_6 C56_6 1_555 1_555
O89_2 C63_6 1_555 1_555
O97_2 C63_6 1_555 1_555
Zn17_3 O30_6 1_555 1_555
Zn20_3 O31_6 1_555 1_555
C34_6 O20_6 1_555 1_555
C34_6 O21_6 1_555 1_555
C39_6 C40_6 1_555 1_555
C50_6 C51_6 1_555 1_555
C50_6 C53_6 1_555 1_555
C61_6 C62_6 1_555 1_555
C61_6 C64_6 1_555 1_555
C64_6 C65_6 1_555 1_555
C44_6 H89_6 1_555 1_555
C44_6 H90_6 1_555 1_555
C44_6 H91_6 1_555 1_555
C55_6 H92_6 1_555 1_555
C55_6 H93_6 1_555 1_555
C55_6 H94_6 1_555 1_555
C66_6 H105_6 1_555 1_555
C66_6 H106_6 1_555 1_555
C66_6 H107_6 1_555 1_555
Zn15_6 O4_6 1_555 1_555
Zn18_6 O6_6 1_555 1_555
C1_6 C2_6 1_555 1_555
C2_6 C3_6 1_555 1_555
C3_6 H1_6 1_555 1_555
C4_6 C3_6 1_555 1_555
C5_6 C4_6 1_555 1_555
H2_6 C5_6 1_555 1_555
C6_6 C5_6 1_555 1_555
C7_6 C2_6 1_555 1_555
H3_6 C7_6 1_555 1_555
C8_6 C4_6 1_555 1_555
C9_6 C6_6 1_555 1_555
C10_6 C9_6 1_555 1_555
C11_6 C10_6 1_555 1_555
O4_6 C1_6 1_555 1_555
O5_12 Zn15_6 1_555 1_555
O6_6 C1_6 1_555 1_555
O7_12 Zn18_6 1_555 1_555
O84_6 C8_6 1_555 1_555
O92_6 C8_6 1_555 1_555
C12_6 C13_6 1_555 1_555
C13_6 C14_6 1_555 1_555
C14_6 H4_6 1_555 1_555
C15_6 C14_6 1_555 1_555
C16_6 C15_6 1_555 1_555
H5_6 C16_6 1_555 1_555
C17_6 C16_6 1_555 1_555
C18_6 C13_6 1_555 1_555
H6_6 C18_6 1_555 1_555
C19_6 C15_6 1_555 1_555
C20_6 C10_6 1_555 1_555
C21_6 C20_6 1_555 1_555
C22_6 C21_6 1_555 1_555
O76_3 C12_6 1_555 1_555
O81_3 C12_6 1_555 1_555
O87_2 C19_6 1_555 1_555
O95_2 C19_6 1_555 1_555
C23_6 C24_6 1_555 1_555
C24_6 C25_6 1_555 1_555
C25_6 H7_6 1_555 1_555
C26_6 C25_6 1_555 1_555
C27_6 C26_6 1_555 1_555
H8_6 C27_6 1_555 1_555
C28_6 C27_6 1_555 1_555
C29_6 C24_6 1_555 1_555
H9_6 C29_6 1_555 1_555
C30_6 C26_6 1_555 1_555
C31_6 C21_6 1_555 1_555
C32_6 C9_6 1_555 1_555
C33_6 C32_6 1_555 1_555
O16_6 C23_6 1_555 1_555
O17_6 C23_6 1_555 1_555
O89_4 C30_6 1_555 1_555
O97_4 C30_6 1_555 1_555
Zn16_3 O16_6 1_555 1_555
Zn19_3 O17_6 1_555 1_555
C6_6 C7_6 1_555 1_555
C17_6 C18_6 1_555 1_555
C17_6 C20_6 1_555 1_555
C28_6 C29_6 1_555 1_555
C28_6 C31_6 1_555 1_555
C31_6 C32_6 1_555 1_555
C11_6 H68_6 1_555 1_555
C11_6 H69_6 1_555 1_555
C11_6 H70_6 1_555 1_555
C33_6 H77_6 1_555 1_555
C33_6 H78_6 1_555 1_555
C33_6 H79_6 1_555 1_555
C22_6 H80_6 1_555 1_555
C22_6 H81_6 1_555 1_555
C22_6 H82_6 1_555 1_555
O9_3 Zn23_4 1_555 1_555
O11_3 Zn31_4 1_555 1_555
O62_9 Zn22 1_555 1_555
O63_9 Zn30 1_555 1_555
O64_5 Zn28 1_555 1_555
O65_5 Zn36 1_555 1_555
O66_3 Zn23_4 1_555 1_555
O67_3 Zn23_4 1_555 1_555
O70_9 Zn22 1_555 1_555
O71_9 Zn22 1_555 1_555
O72_5 Zn28 1_555 1_555
O73_5 Zn28 1_555 1_555
O85_9 Zn22 1_555 1_555
O91_3 Zn23_4 1_555 1_555
O93_9 Zn30 1_555 1_555
O99_3 Zn31_4 1_555 1_555
O23_3 Zn22_4 1_555 1_555
O25_3 Zn30_4 1_555 1_555
O68_3 Zn22_4 1_555 1_555
O69_3 Zn22_4 1_555 1_555
O90_3 Zn22_4 1_555 1_555
O98_3 Zn30_4 1_555 1_555
O62_10 Zn22_2 1_555 1_555
O63_10 Zn30_2 1_555 1_555
O64_6 Zn28_2 1_555 1_555
O65_6 Zn36_2 1_555 1_555
O70_10 Zn22_2 1_555 1_555
O71_10 Zn22_2 1_555 1_555
O72_6 Zn28_2 1_555 1_555
O73_6 Zn28_2 1_555 1_555
O85_10 Zn22_2 1_555 1_555
O93_10 Zn30_2 1_555 1_555
O23_4 Zn22_3 1_555 1_555
O25_4 Zn30_3 1_555 1_555
O68_4 Zn22_3 1_555 1_555
O69_4 Zn22_3 1_555 1_555
O90_4 Zn22_3 1_555 1_555
O98_4 Zn30_3 1_555 1_555
O9_4 Zn23_3 1_555 1_555
O11_4 Zn31_3 1_555 1_555
O62_11 Zn23_2 1_555 1_555
O63_11 Zn31_2 1_555 1_555
O64_7 Zn27_2 1_555 1_555
O65_7 Zn35_2 1_555 1_555
O66_4 Zn23_3 1_555 1_555
O67_4 Zn23_3 1_555 1_555
O70_11 Zn23_2 1_555 1_555
O71_11 Zn23_2 1_555 1_555
O72_7 Zn27_2 1_555 1_555
O73_7 Zn27_2 1_555 1_555
O85_11 Zn23_2 1_555 1_555
O91_4 Zn23_3 1_555 1_555
O93_11 Zn31_2 1_555 1_555
O99_4 Zn31_3 1_555 1_555
O62_12 Zn23 1_555 1_555
O63_12 Zn31 1_555 1_555
O64_8 Zn27 1_555 1_555
O65_8 Zn35 1_555 1_555
O70_12 Zn23 1_555 1_555
O71_12 Zn23 1_555 1_555
O72_8 Zn27 1_555 1_555
O73_8 Zn27 1_555 1_555
O85_12 Zn23 1_555 1_555
O93_12 Zn31 1_555 1_555
O62_13 Zn24 1_555 1_555
O63_13 Zn32 1_555 1_555
O70_13 Zn24 1_555 1_555
O71_13 Zn24 1_555 1_555
O85_13 Zn24 1_555 1_555
O93_13 Zn32 1_555 1_555
O62_14 Zn25 1_555 1_555
O63_14 Zn33 1_555 1_555
O70_14 Zn25 1_555 1_555
O71_14 Zn25 1_555 1_555
O85_14 Zn25 1_555 1_555
O93_14 Zn33 1_555 1_555
O62_15 Zn24_2 1_555 1_555
O63_15 Zn32_2 1_555 1_555
O70_15 Zn24_2 1_555 1_555
O71_15 Zn24_2 1_555 1_555
O85_15 Zn24_2 1_555 1_555
O93_15 Zn32_2 1_555 1_555
O62_16 Zn25_2 1_555 1_555
O63_16 Zn33_2 1_555 1_555
O70_16 Zn25_2 1_555 1_555
O71_16 Zn25_2 1_555 1_555
O85_16 Zn25_2 1_555 1_555
O93_16 Zn33_2 1_555 1_555
O60_7 Zn9_7 1_555 1_555
O61_7 Zn10_7 1_555 1_555
O77_4 Zn9_7 1_555 1_555
O82_4 Zn10_7 1_555 1_555
O5_13 Zn1_7 1_555 1_555
O7_13 Zn2_7 1_555 1_555
O60_8 Zn9_8 1_555 1_555
O61_8 Zn10_8 1_555 1_555
O75_4 Zn9_8 1_555 1_555
O78_4 Zn1_7 1_555 1_555
O80_4 Zn10_8 1_555 1_555
O83_4 Zn2_7 1_555 1_555
C67_7 C68_7 1_555 1_555
C68_7 C69_7 1_555 1_555
C69_7 H19_7 1_555 1_555
C70_7 C69_7 1_555 1_555
C71_7 C70_7 1_555 1_555
H20_7 C71_7 1_555 1_555
C72_7 C71_7 1_555 1_555
C73_7 C68_7 1_555 1_555
H21_7 C73_7 1_555 1_555
C74_7 C70_7 1_555 1_555
C75_7 C72_7 1_555 1_555
C76_7 C75_7 1_555 1_555
C77_7 C76_7 1_555 1_555
O34_4 Zn7_7 1_555 1_555
O35_7 Zn7_7 1_555 1_555
O36_4 Zn8_7 1_555 1_555
O37_7 Zn8_7 1_555 1_555
O85_16 C74_7 1_555 1_555
O93_16 C74_7 1_555 1_555
C78_7 C79_7 1_555 1_555
C79_7 C80_7 1_555 1_555
C80_7 H22_7 1_555 1_555
C81_7 C80_7 1_555 1_555
C82_7 C81_7 1_555 1_555
H23_7 C82_7 1_555 1_555
C83_7 C82_7 1_555 1_555
C84_7 C79_7 1_555 1_555
H24_7 C84_7 1_555 1_555
C85_7 C81_7 1_555 1_555
C86_7 C76_7 1_555 1_555
C87_7 C86_7 1_555 1_555
C88_7 C87_7 1_555 1_555
O40_7 C78_7 1_555 1_555
O41_7 C78_7 1_555 1_555
O85_11 C85_7 1_555 1_555
O93_11 C85_7 1_555 1_555
C89_7 C90_7 1_555 1_555
C90_7 C91_7 1_555 1_555
C91_7 H25_7 1_555 1_555
C92_7 C91_7 1_555 1_555
C93_7 C92_7 1_555 1_555
H26_7 C93_7 1_555 1_555
C94_7 C93_7 1_555 1_555
C95_7 C90_7 1_555 1_555
H27_7 C95_7 1_555 1_555
C96_7 C92_7 1_555 1_555
C97_7 C87_7 1_555 1_555
C98_7 C75_7 1_555 1_555
C99_7 C98_7 1_555 1_555
O44_7 C89_7 1_555 1_555
O45_7 C89_7 1_555 1_555
O91_4 C96_7 1_555 1_555
O99_4 C96_7 1_555 1_555
Zn15_8 O40_7 1_555 1_555
Zn18_8 O41_7 1_555 1_555
C67_7 O34_4 1_555 1_555
C67_7 O36_4 1_555 1_555
C72_7 C73_7 1_555 1_555
C83_7 C84_7 1_555 1_555
C83_7 C86_7 1_555 1_555
C94_7 C95_7 1_555 1_555
C94_7 C97_7 1_555 1_555
C97_7 C98_7 1_555 1_555
O44_7 Zn17_6 1_555 1_555
O45_7 Zn20_6 1_555 1_555
C88_7 H95_7 1_555 1_555
C88_7 H96_7 1_555 1_555
C88_7 H97_7 1_555 1_555
C77_7 H98_7 1_555 1_555
C77_7 H99_7 1_555 1_555
C77_7 H100_7 1_555 1_555
C99_7 H108_7 1_555 1_555
C99_7 H109_7 1_555 1_555
C99_7 H110_7 1_555 1_555
Zn1_8 O4_7 1_555 1_555
Zn2_8 O6_7 1_555 1_555
C1_7 C2_7 1_555 1_555
C2_7 C3_7 1_555 1_555
C3_7 H1_7 1_555 1_555
C4_7 C3_7 1_555 1_555
C5_7 C4_7 1_555 1_555
H2_7 C5_7 1_555 1_555
C6_7 C5_7 1_555 1_555
C7_7 C2_7 1_555 1_555
H3_7 C7_7 1_555 1_555
C8_7 C4_7 1_555 1_555
C9_7 C6_7 1_555 1_555
C10_7 C9_7 1_555 1_555
C11_7 C10_7 1_555 1_555
O4_7 C1_7 1_555 1_555
O5_14 Zn1_8 1_555 1_555
O6_7 C1_7 1_555 1_555
O7_14 Zn2_8 1_555 1_555
O85_4 C8_7 1_555 1_555
O93_4 C8_7 1_555 1_555
C12_7 C13_7 1_555 1_555
C13_7 C14_7 1_555 1_555
C14_7 H4_7 1_555 1_555
C15_7 C14_7 1_555 1_555
C16_7 C15_7 1_555 1_555
H5_7 C16_7 1_555 1_555
C17_7 C16_7 1_555 1_555
C18_7 C13_7 1_555 1_555
H6_7 C18_7 1_555 1_555
C19_7 C15_7 1_555 1_555
C20_7 C10_7 1_555 1_555
C21_7 C20_7 1_555 1_555
C22_7 C21_7 1_555 1_555
O12_4 C12_7 1_555 1_555
O13_4 C12_7 1_555 1_555
O90_2 C19_7 1_555 1_555
O98_2 C19_7 1_555 1_555
C23_7 C24_7 1_555 1_555
C24_7 C25_7 1_555 1_555
C25_7 H7_7 1_555 1_555
C26_7 C25_7 1_555 1_555
C27_7 C26_7 1_555 1_555
H8_7 C27_7 1_555 1_555
C28_7 C27_7 1_555 1_555
C29_7 C24_7 1_555 1_555
H9_7 C29_7 1_555 1_555
C30_7 C26_7 1_555 1_555
C31_7 C21_7 1_555 1_555
C32_7 C9_7 1_555 1_555
C33_7 C32_7 1_555 1_555
O16_7 C23_7 1_555 1_555
O17_7 C23_7 1_555 1_555
O85_6 C30_7 1_555 1_555
O93_6 C30_7 1_555 1_555
Zn7_8 O12_4 1_555 1_555
Zn8_8 O13_4 1_555 1_555
O35_8 Zn7_8 1_555 1_555
O37_8 Zn8_8 1_555 1_555
Zn17_7 O16_7 1_555 1_555
Zn20_7 O17_7 1_555 1_555
C6_7 C7_7 1_555 1_555
C17_7 C18_7 1_555 1_555
C17_7 C20_7 1_555 1_555
C28_7 C29_7 1_555 1_555
C28_7 C31_7 1_555 1_555
C31_7 C32_7 1_555 1_555
C11_7 H68_7 1_555 1_555
C11_7 H69_7 1_555 1_555
C11_7 H70_7 1_555 1_555
C33_7 H77_7 1_555 1_555
C33_7 H78_7 1_555 1_555
C33_7 H79_7 1_555 1_555
C22_7 H80_7 1_555 1_555
C22_7 H81_7 1_555 1_555
C22_7 H82_7 1_555 1_555
O60_9 Zn9_9 1_555 1_555
O61_9 Zn10_9 1_555 1_555
O74_4 Zn9_9 1_555 1_555
O79_4 Zn10_9 1_555 1_555
O5_15 Zn1_9 1_555 1_555
O7_15 Zn2_9 1_555 1_555
C34_7 C35_7 1_555 1_555
C35_7 C36_7 1_555 1_555
C36_7 H10_7 1_555 1_555
C37_7 C36_7 1_555 1_555
C38_7 C37_7 1_555 1_555
H11_7 C38_7 1_555 1_555
C39_7 C38_7 1_555 1_555
C40_7 C35_7 1_555 1_555
H12_7 C40_7 1_555 1_555
C41_7 C37_7 1_555 1_555
C42_7 C39_7 1_555 1_555
C43_7 C42_7 1_555 1_555
C44_7 C43_7 1_555 1_555
O20_7 Zn1_9 1_555 1_555
O21_7 Zn2_9 1_555 1_555
O85_3 C41_7 1_555 1_555
O93_3 C41_7 1_555 1_555
C45_7 C46_7 1_555 1_555
C46_7 C47_7 1_555 1_555
C47_7 H13_7 1_555 1_555
C48_7 C47_7 1_555 1_555
C49_7 C48_7 1_555 1_555
H14_7 C49_7 1_555 1_555
C50_7 C49_7 1_555 1_555
C51_7 C46_7 1_555 1_555
H15_7 C51_7 1_555 1_555
C52_7 C48_7 1_555 1_555
C53_7 C43_7 1_555 1_555
C54_7 C53_7 1_555 1_555
C55_7 C54_7 1_555 1_555
O26_4 C45_7 1_555 1_555
O27_4 C45_7 1_555 1_555
O91_2 C52_7 1_555 1_555
O99_2 C52_7 1_555 1_555
C56_7 C57_7 1_555 1_555
C57_7 C58_7 1_555 1_555
C58_7 H16_7 1_555 1_555
C59_7 C58_7 1_555 1_555
C60_7 C59_7 1_555 1_555
H17_7 C60_7 1_555 1_555
C61_7 C60_7 1_555 1_555
C62_7 C57_7 1_555 1_555
H18_7 C62_7 1_555 1_555
C63_7 C59_7 1_555 1_555
C64_7 C54_7 1_555 1_555
C65_7 C42_7 1_555 1_555
C66_7 C65_7 1_555 1_555
O30_7 C56_7 1_555 1_555
O31_7 C56_7 1_555 1_555
O85_8 C63_7 1_555 1_555
O93_8 C63_7 1_555 1_555
Zn9_10 O26_4 1_555 1_555
Zn10_10 O27_4 1_555 1_555
O60_10 Zn9_10 1_555 1_555
O61_10 Zn10_10 1_555 1_555
Zn16_5 O30_7 1_555 1_555
Zn19_5 O31_7 1_555 1_555
C34_7 O20_7 1_555 1_555
C34_7 O21_7 1_555 1_555
C39_7 C40_7 1_555 1_555
C50_7 C51_7 1_555 1_555
C50_7 C53_7 1_555 1_555
C61_7 C62_7 1_555 1_555
C61_7 C64_7 1_555 1_555
C64_7 C65_7 1_555 1_555
C44_7 H89_7 1_555 1_555
C44_7 H90_7 1_555 1_555
C44_7 H91_7 1_555 1_555
C55_7 H92_7 1_555 1_555
C55_7 H93_7 1_555 1_555
C55_7 H94_7 1_555 1_555
C66_7 H105_7 1_555 1_555
C66_7 H106_7 1_555 1_555
C66_7 H107_7 1_555 1_555
O35_9 Zn7_9 1_555 1_555
O37_9 Zn8_9 1_555 1_555
O76_4 Zn7_9 1_555 1_555
O81_4 Zn8_9 1_555 1_555
O5_16 Zn1_10 1_555 1_555
O7_16 Zn2_10 1_555 1_555
O35_10 Zn7_10 1_555 1_555
O37_10 Zn8_10 1_555 1_555
C100_7 C101_7 1_555 1_555
C101_7 C102_7 1_555 1_555
C102_7 H28_7 1_555 1_555
C103_7 C102_7 1_555 1_555
C104_7 C103_7 1_555 1_555
H29_7 C104_7 1_555 1_555
C105_7 C104_7 1_555 1_555
C106_7 C101_7 1_555 1_555
H30_7 C106_7 1_555 1_555
C107_7 C103_7 1_555 1_555
C108_7 C105_7 1_555 1_555
C109_7 C108_7 1_555 1_555
C110_7 C109_7 1_555 1_555
O48_4 Zn7_10 1_555 1_555
O49_4 Zn8_10 1_555 1_555
O85_15 C107_7 1_555 1_555
O93_15 C107_7 1_555 1_555
C111_7 C112_7 1_555 1_555
C112_7 C113_7 1_555 1_555
C113_7 H31_7 1_555 1_555
C114_7 C113_7 1_555 1_555
C115_7 C114_7 1_555 1_555
H32_7 C115_7 1_555 1_555
C116_7 C115_7 1_555 1_555
C117_7 C112_7 1_555 1_555
H33_7 C117_7 1_555 1_555
C118_7 C114_7 1_555 1_555
C119_7 C109_7 1_555 1_555
C120_7 C119_7 1_555 1_555
C121_7 C120_7 1_555 1_555
O52_4 Zn1_10 1_555 1_555
O53_4 Zn2_10 1_555 1_555
O85_10 C118_7 1_555 1_555
O93_10 C118_7 1_555 1_555
C122_7 C123_7 1_555 1_555
C123_7 C124_7 1_555 1_555
C124_7 H34_7 1_555 1_555
C125_7 C124_7 1_555 1_555
C126_7 C125_7 1_555 1_555
H35_7 C126_7 1_555 1_555
C127_7 C126_7 1_555 1_555
C128_7 C123_7 1_555 1_555
H36_7 C128_7 1_555 1_555
C129_7 C125_7 1_555 1_555
C130_7 C120_7 1_555 1_555
C131_7 C108_7 1_555 1_555
C132_7 C131_7 1_555 1_555
O56_7 C122_7 1_555 1_555
O57_7 C122_7 1_555 1_555
O90_3 C129_7 1_555 1_555
O98_3 C129_7 1_555 1_555
C100_7 O48_4 1_555 1_555
C100_7 O49_4 1_555 1_555
C105_7 C106_7 1_555 1_555
C111_7 O52_4 1_555 1_555
C111_7 O53_4 1_555 1_555
C116_7 C117_7 1_555 1_555
C116_7 C119_7 1_555 1_555
C127_7 C128_7 1_555 1_555
C127_7 C130_7 1_555 1_555
C130_7 C131_7 1_555 1_555
O56_7 Zn16_7 1_555 1_555
O57_7 Zn19_7 1_555 1_555
C132_7 H47_7 1_555 1_555
C132_7 H48_7 1_555 1_555
C132_7 H49_7 1_555 1_555
C121_7 H111_7 1_555 1_555
C121_7 H112_7 1_555 1_555
C121_7 H113_7 1_555 1_555
C110_7 H114_7 1_555 1_555
C110_7 H115_7 1_555 1_555
C110_7 H116_7 1_555 1_555
C100_8 C101_8 1_555 1_555
C101_8 C102_8 1_555 1_555
C102_8 H28_8 1_555 1_555
C103_8 C102_8 1_555 1_555
C104_8 C103_8 1_555 1_555
H29_8 C104_8 1_555 1_555
C105_8 C104_8 1_555 1_555
C106_8 C101_8 1_555 1_555
H30_8 C106_8 1_555 1_555
C107_8 C103_8 1_555 1_555
C108_8 C105_8 1_555 1_555
C109_8 C108_8 1_555 1_555
C110_8 C109_8 1_555 1_555
O85_13 C107_8 1_555 1_555
O93_13 C107_8 1_555 1_555
C111_8 C112_8 1_555 1_555
C112_8 C113_8 1_555 1_555
C113_8 H31_8 1_555 1_555
C114_8 C113_8 1_555 1_555
C115_8 C114_8 1_555 1_555
H32_8 C115_8 1_555 1_555
C116_8 C115_8 1_555 1_555
C117_8 C112_8 1_555 1_555
H33_8 C117_8 1_555 1_555
C118_8 C114_8 1_555 1_555
C119_8 C109_8 1_555 1_555
C120_8 C119_8 1_555 1_555
C121_8 C120_8 1_555 1_555
O85_9 C118_8 1_555 1_555
O93_9 C118_8 1_555 1_555
C122_8 C123_8 1_555 1_555
C123_8 C124_8 1_555 1_555
C124_8 H34_8 1_555 1_555
C125_8 C124_8 1_555 1_555
C126_8 C125_8 1_555 1_555
H35_8 C126_8 1_555 1_555
C127_8 C126_8 1_555 1_555
C128_8 C123_8 1_555 1_555
H36_8 C128_8 1_555 1_555
C129_8 C125_8 1_555 1_555
C130_8 C120_8 1_555 1_555
C131_8 C108_8 1_555 1_555
C132_8 C131_8 1_555 1_555
O56_8 C122_8 1_555 1_555
O57_8 C122_8 1_555 1_555
O91_3 C129_8 1_555 1_555
O99_3 C129_8 1_555 1_555
C100_8 O75_4 1_555 1_555
C100_8 O80_4 1_555 1_555
C105_8 C106_8 1_555 1_555
C111_8 O78_4 1_555 1_555
C111_8 O83_4 1_555 1_555
C116_8 C117_8 1_555 1_555
C116_8 C119_8 1_555 1_555
C127_8 C128_8 1_555 1_555
C127_8 C130_8 1_555 1_555
C130_8 C131_8 1_555 1_555
O56_8 Zn17_5 1_555 1_555
O57_8 Zn20_5 1_555 1_555
C132_8 H47_8 1_555 1_555
C132_8 H48_8 1_555 1_555
C132_8 H49_8 1_555 1_555
C121_8 H111_8 1_555 1_555
C121_8 H112_8 1_555 1_555
C121_8 H113_8 1_555 1_555
C110_8 H114_8 1_555 1_555
C110_8 H115_8 1_555 1_555
C110_8 H116_8 1_555 1_555
C67_8 C68_8 1_555 1_555
C68_8 C69_8 1_555 1_555
C69_8 H19_8 1_555 1_555
C70_8 C69_8 1_555 1_555
C71_8 C70_8 1_555 1_555
H20_8 C71_8 1_555 1_555
C72_8 C71_8 1_555 1_555
C73_8 C68_8 1_555 1_555
H21_8 C73_8 1_555 1_555
C74_8 C70_8 1_555 1_555
C75_8 C72_8 1_555 1_555
C76_8 C75_8 1_555 1_555
C77_8 C76_8 1_555 1_555
O85_14 C74_8 1_555 1_555
O93_14 C74_8 1_555 1_555
C78_8 C79_8 1_555 1_555
C79_8 C80_8 1_555 1_555
C80_8 H22_8 1_555 1_555
C81_8 C80_8 1_555 1_555
C82_8 C81_8 1_555 1_555
H23_8 C82_8 1_555 1_555
C83_8 C82_8 1_555 1_555
C84_8 C79_8 1_555 1_555
H24_8 C84_8 1_555 1_555
C85_8 C81_8 1_555 1_555
C86_8 C76_8 1_555 1_555
C87_8 C86_8 1_555 1_555
C88_8 C87_8 1_555 1_555
O40_8 C78_8 1_555 1_555
O41_8 C78_8 1_555 1_555
O85_12 C85_8 1_555 1_555
O93_12 C85_8 1_555 1_555
C89_8 C90_8 1_555 1_555
C90_8 C91_8 1_555 1_555
C91_8 H25_8 1_555 1_555
C92_8 C91_8 1_555 1_555
C93_8 C92_8 1_555 1_555
H26_8 C93_8 1_555 1_555
C94_8 C93_8 1_555 1_555
C95_8 C90_8 1_555 1_555
H27_8 C95_8 1_555 1_555
C96_8 C92_8 1_555 1_555
C97_8 C87_8 1_555 1_555
C98_8 C75_8 1_555 1_555
C99_8 C98_8 1_555 1_555
O44_8 C89_8 1_555 1_555
O45_8 C89_8 1_555 1_555
O90_4 C96_8 1_555 1_555
O98_4 C96_8 1_555 1_555
Zn15_9 O40_8 1_555 1_555
Zn18_9 O41_8 1_555 1_555
C67_8 O74_4 1_555 1_555
C67_8 O79_4 1_555 1_555
C72_8 C73_8 1_555 1_555
C83_8 C84_8 1_555 1_555
C83_8 C86_8 1_555 1_555
C94_8 C95_8 1_555 1_555
C94_8 C97_8 1_555 1_555
C97_8 C98_8 1_555 1_555
O44_8 Zn16_4 1_555 1_555
O45_8 Zn19_4 1_555 1_555
C88_8 H95_8 1_555 1_555
C88_8 H96_8 1_555 1_555
C88_8 H97_8 1_555 1_555
C77_8 H98_8 1_555 1_555
C77_8 H99_8 1_555 1_555
C77_8 H100_8 1_555 1_555
C99_8 H108_8 1_555 1_555
C99_8 H109_8 1_555 1_555
C99_8 H110_8 1_555 1_555
O5_17 Zn15_7 1_555 1_555
O7_17 Zn18_7 1_555 1_555
C34_8 C35_8 1_555 1_555
C35_8 C36_8 1_555 1_555
C36_8 H10_8 1_555 1_555
C37_8 C36_8 1_555 1_555
C38_8 C37_8 1_555 1_555
H11_8 C38_8 1_555 1_555
C39_8 C38_8 1_555 1_555
C40_8 C35_8 1_555 1_555
H12_8 C40_8 1_555 1_555
C41_8 C37_8 1_555 1_555
C42_8 C39_8 1_555 1_555
C43_8 C42_8 1_555 1_555
C44_8 C43_8 1_555 1_555
O20_8 Zn15_7 1_555 1_555
O21_8 Zn18_7 1_555 1_555
O85 C41_8 1_555 1_555
O93 C41_8 1_555 1_555
C45_8 C46_8 1_555 1_555
C46_8 C47_8 1_555 1_555
C47_8 H13_8 1_555 1_555
C48_8 C47_8 1_555 1_555
C49_8 C48_8 1_555 1_555
H14_8 C49_8 1_555 1_555
C50_8 C49_8 1_555 1_555
C51_8 C46_8 1_555 1_555
H15_8 C51_8 1_555 1_555
C52_8 C48_8 1_555 1_555
C53_8 C43_8 1_555 1_555
C54_8 C53_8 1_555 1_555
C55_8 C54_8 1_555 1_555
O77_4 C45_8 1_555 1_555
O82_4 C45_8 1_555 1_555
O91 C52_8 1_555 1_555
O99 C52_8 1_555 1_555
C56_8 C57_8 1_555 1_555
C57_8 C58_8 1_555 1_555
C58_8 H16_8 1_555 1_555
C59_8 C58_8 1_555 1_555
C60_8 C59_8 1_555 1_555
H17_8 C60_8 1_555 1_555
C61_8 C60_8 1_555 1_555
C62_8 C57_8 1_555 1_555
H18_8 C62_8 1_555 1_555
C63_8 C59_8 1_555 1_555
C64_8 C54_8 1_555 1_555
C65_8 C42_8 1_555 1_555
C66_8 C65_8 1_555 1_555
O30_8 C56_8 1_555 1_555
O31_8 C56_8 1_555 1_555
O85_5 C63_8 1_555 1_555
O93_5 C63_8 1_555 1_555
Zn17_4 O30_8 1_555 1_555
Zn20_4 O31_8 1_555 1_555
C34_8 O20_8 1_555 1_555
C34_8 O21_8 1_555 1_555
C39_8 C40_8 1_555 1_555
C50_8 C51_8 1_555 1_555
C50_8 C53_8 1_555 1_555
C61_8 C62_8 1_555 1_555
C61_8 C64_8 1_555 1_555
C64_8 C65_8 1_555 1_555
C44_8 H89_8 1_555 1_555
C44_8 H90_8 1_555 1_555
C44_8 H91_8 1_555 1_555
C55_8 H92_8 1_555 1_555
C55_8 H93_8 1_555 1_555
C55_8 H94_8 1_555 1_555
C66_8 H105_8 1_555 1_555
C66_8 H106_8 1_555 1_555
C66_8 H107_8 1_555 1_555
O5_18 Zn15_8 1_555 1_555
O7_18 Zn18_8 1_555 1_555
O5_19 Zn15_9 1_555 1_555
O7_19 Zn18_9 1_555 1_555
Zn15_10 O4_8 1_555 1_555
Zn18_10 O6_8 1_555 1_555
C1_8 C2_8 1_555 1_555
C2_8 C3_8 1_555 1_555
C3_8 H1_8 1_555 1_555
C4_8 C3_8 1_555 1_555
C5_8 C4_8 1_555 1_555
H2_8 C5_8 1_555 1_555
C6_8 C5_8 1_555 1_555
C7_8 C2_8 1_555 1_555
H3_8 C7_8 1_555 1_555
C8_8 C4_8 1_555 1_555
C9_8 C6_8 1_555 1_555
C10_8 C9_8 1_555 1_555
C11_8 C10_8 1_555 1_555
O4_8 C1_8 1_555 1_555
O5_20 Zn15_10 1_555 1_555
O6_8 C1_8 1_555 1_555
O7_20 Zn18_10 1_555 1_555
O85_2 C8_8 1_555 1_555
O93_2 C8_8 1_555 1_555
C12_8 C13_8 1_555 1_555
C13_8 C14_8 1_555 1_555
C14_8 H4_8 1_555 1_555
C15_8 C14_8 1_555 1_555
C16_8 C15_8 1_555 1_555
H5_8 C16_8 1_555 1_555
C17_8 C16_8 1_555 1_555
C18_8 C13_8 1_555 1_555
H6_8 C18_8 1_555 1_555
C19_8 C15_8 1_555 1_555
C20_8 C10_8 1_555 1_555
C21_8 C20_8 1_555 1_555
C22_8 C21_8 1_555 1_555
O76_4 C12_8 1_555 1_555
O81_4 C12_8 1_555 1_555
O90 C19_8 1_555 1_555
O98 C19_8 1_555 1_555
C23_8 C24_8 1_555 1_555
C24_8 C25_8 1_555 1_555
C25_8 H7_8 1_555 1_555
C26_8 C25_8 1_555 1_555
C27_8 C26_8 1_555 1_555
H8_8 C27_8 1_555 1_555
C28_8 C27_8 1_555 1_555
C29_8 C24_8 1_555 1_555
H9_8 C29_8 1_555 1_555
C30_8 C26_8 1_555 1_555
C31_8 C21_8 1_555 1_555
C32_8 C9_8 1_555 1_555
C33_8 C32_8 1_555 1_555
O16_8 C23_8 1_555 1_555
O17_8 C23_8 1_555 1_555
O85_7 C30_8 1_555 1_555
O93_7 C30_8 1_555 1_555
Zn16_6 O16_8 1_555 1_555
Zn19_6 O17_8 1_555 1_555
C6_8 C7_8 1_555 1_555
C17_8 C18_8 1_555 1_555
C17_8 C20_8 1_555 1_555
C28_8 C29_8 1_555 1_555
C28_8 C31_8 1_555 1_555
C31_8 C32_8 1_555 1_555
C11_8 H68_8 1_555 1_555
C11_8 H69_8 1_555 1_555
C11_8 H70_8 1_555 1_555
C33_8 H77_8 1_555 1_555
C33_8 H78_8 1_555 1_555
C33_8 H79_8 1_555 1_555
C22_8 H80_8 1_555 1_555
C22_8 H81_8 1_555 1_555
C22_8 H82_8 1_555 1_555
O60_11 Zn17_3 1_555 1_555
O61_11 Zn20_3 1_555 1_555
C33_5 H92_9 1_555 1_555
C33_5 H93_9 1_555 1_555
C33_5 H94_9 1_555 1_555
C11_5 H105_9 1_555 1_555
C11_5 H106_9 1_555 1_555
C11_5 H107_9 1_555 1_555
O35_11 Zn16_3 1_555 1_555
O37_11 Zn19_3 1_555 1_555
C121_5 H47_9 1_555 1_555
C121_5 H48_9 1_555 1_555
C121_5 H49_9 1_555 1_555
C11_6 H77_9 1_555 1_555
C11_6 H78_9 1_555 1_555
C11_6 H79_9 1_555 1_555
C33_6 H80_9 1_555 1_555
C33_6 H81_9 1_555 1_555
C33_6 H82_9 1_555 1_555
C99_6 H98_9 1_555 1_555
C99_6 H99_9 1_555 1_555
C99_6 H100_9 1_555 1_555
C88_6 H108_9 1_555 1_555
C88_6 H109_9 1_555 1_555
C88_6 H110_9 1_555 1_555
C132_5 H114_9 1_555 1_555
C132_5 H115_9 1_555 1_555
C132_5 H116_9 1_555 1_555
C88_5 H47_10 1_555 1_555
C88_5 H48_10 1_555 1_555
C88_5 H49_10 1_555 1_555
C132_6 H98_10 1_555 1_555
C132_6 H99_10 1_555 1_555
C132_6 H100_10 1_555 1_555
C121_6 H108_10 1_555 1_555
C121_6 H109_10 1_555 1_555
C121_6 H110_10 1_555 1_555
C99_5 H114_10 1_555 1_555
C99_5 H115_10 1_555 1_555
C99_5 H116_10 1_555 1_555
C66_6 H92_10 1_555 1_555
C66_6 H93_10 1_555 1_555
C66_6 H94_10 1_555 1_555
C44_6 H105_10 1_555 1_555
C44_6 H106_10 1_555 1_555
C44_6 H107_10 1_555 1_555
C44_5 H77_10 1_555 1_555
C44_5 H78_10 1_555 1_555
C44_5 H79_10 1_555 1_555
C66_5 H80_10 1_555 1_555
C66_5 H81_10 1_555 1_555
C66_5 H82_10 1_555 1_555
C132_4 H95_9 1_555 1_555
C132_4 H96_9 1_555 1_555
C132_4 H97_9 1_555 1_555
C110_4 H108_11 1_555 1_555
C110_4 H109_11 1_555 1_555
C110_4 H110_11 1_555 1_555
O5_21 Zn16_2 1_555 1_555
O7_21 Zn19_2 1_555 1_555
C110_3 H47_11 1_555 1_555
C110_3 H48_11 1_555 1_555
C110_3 H49_11 1_555 1_555
C66_3 H68_9 1_555 1_555
C66_3 H69_9 1_555 1_555
C66_3 H70_9 1_555 1_555
C55_3 H77_11 1_555 1_555
C55_3 H78_11 1_555 1_555
C55_3 H79_11 1_555 1_555
C33_4 H89_9 1_555 1_555
C33_4 H90_9 1_555 1_555
C33_4 H91_9 1_555 1_555
C22_4 H105_11 1_555 1_555
C22_4 H106_11 1_555 1_555
C22_4 H107_11 1_555 1_555
C132_3 H111_9 1_555 1_555
C132_3 H112_9 1_555 1_555
C132_3 H113_9 1_555 1_555
C99_3 H95_10 1_555 1_555
C99_3 H96_10 1_555 1_555
C99_3 H97_10 1_555 1_555
C77_3 H108_12 1_555 1_555
C77_3 H109_12 1_555 1_555
C77_3 H110_12 1_555 1_555
C77_4 H47_12 1_555 1_555
C77_4 H48_12 1_555 1_555
C77_4 H49_12 1_555 1_555
C99_4 H111_10 1_555 1_555
C99_4 H112_10 1_555 1_555
C99_4 H113_10 1_555 1_555
O5_22 Zn17_2 1_555 1_555
O7_22 Zn20_2 1_555 1_555
C33_3 H68_10 1_555 1_555
C33_3 H69_10 1_555 1_555
C33_3 H70_10 1_555 1_555
C22_3 H77_12 1_555 1_555
C22_3 H78_12 1_555 1_555
C22_3 H79_12 1_555 1_555
C66_4 H89_10 1_555 1_555
C66_4 H90_10 1_555 1_555
C66_4 H91_10 1_555 1_555
C55_4 H105_12 1_555 1_555
C55_4 H106_12 1_555 1_555
C55_4 H107_12 1_555 1_555
C110_6 H108_13 1_555 1_555
C110_6 H109_13 1_555 1_555
C110_6 H110_13 1_555 1_555
C110_5 H47_13 1_555 1_555
C110_5 H48_13 1_555 1_555
C110_5 H49_13 1_555 1_555
C55_5 H77_13 1_555 1_555
C55_5 H78_13 1_555 1_555
C55_5 H79_13 1_555 1_555
C22_6 H105_13 1_555 1_555
C22_6 H106_13 1_555 1_555
C22_6 H107_13 1_555 1_555
C77_5 H108_14 1_555 1_555
C77_5 H109_14 1_555 1_555
C77_5 H110_14 1_555 1_555
C77_6 H47_14 1_555 1_555
C77_6 H48_14 1_555 1_555
C77_6 H49_14 1_555 1_555
C22_5 H77_14 1_555 1_555
C22_5 H78_14 1_555 1_555
C22_5 H79_14 1_555 1_555
C55_6 H105_14 1_555 1_555
C55_6 H106_14 1_555 1_555
C55_6 H107_14 1_555 1_555
C132_8 H95_11 1_555 1_555
C132_8 H96_11 1_555 1_555
C132_8 H97_11 1_555 1_555
C110_8 H108_15 1_555 1_555
C110_8 H109_15 1_555 1_555
C110_8 H110_15 1_555 1_555
O5_23 Zn16_4 1_555 1_555
O7_23 Zn19_4 1_555 1_555
O5_24 Zn16_5 1_555 1_555
O7_24 Zn19_5 1_555 1_555
C66_7 H68_11 1_555 1_555
C66_7 H69_11 1_555 1_555
C66_7 H70_11 1_555 1_555
C55_7 H77_15 1_555 1_555
C55_7 H78_15 1_555 1_555
C55_7 H79_15 1_555 1_555
O5_25 Zn16_6 1_555 1_555
O7_25 Zn19_6 1_555 1_555
C33_8 H89_11 1_555 1_555
C33_8 H90_11 1_555 1_555
C33_8 H91_11 1_555 1_555
C22_8 H105_15 1_555 1_555
C22_8 H106_15 1_555 1_555
C22_8 H107_15 1_555 1_555
O5_26 Zn16_7 1_555 1_555
O7_26 Zn19_7 1_555 1_555
C110_7 H47_15 1_555 1_555
C110_7 H48_15 1_555 1_555
C110_7 H49_15 1_555 1_555
C132_7 H111_11 1_555 1_555
C132_7 H112_11 1_555 1_555
C132_7 H113_11 1_555 1_555
C99_7 H95_12 1_555 1_555
C99_7 H96_12 1_555 1_555
C99_7 H97_12 1_555 1_555
C77_7 H108_16 1_555 1_555
C77_7 H109_16 1_555 1_555
C77_7 H110_16 1_555 1_555
C77_8 H47_16 1_555 1_555
C77_8 H48_16 1_555 1_555
C77_8 H49_16 1_555 1_555
C99_8 H111_12 1_555 1_555
C99_8 H112_12 1_555 1_555
C99_8 H113_12 1_555 1_555
O5_27 Zn17_4 1_555 1_555
O7_27 Zn20_4 1_555 1_555
C66_8 H89_12 1_555 1_555
C66_8 H90_12 1_555 1_555
C66_8 H91_12 1_555 1_555
C55_8 H105_16 1_555 1_555
C55_8 H106_16 1_555 1_555
C55_8 H107_16 1_555 1_555
O5_28 Zn17_5 1_555 1_555
O7_28 Zn20_5 1_555 1_555
O5_29 Zn17_6 1_555 1_555
O7_29 Zn20_6 1_555 1_555
O5_30 Zn17_7 1_555 1_555
O7_30 Zn20_7 1_555 1_555
C33_7 H68_12 1_555 1_555
C33_7 H69_12 1_555 1_555
C33_7 H70_12 1_555 1_555
C22_7 H77_16 1_555 1_555
C22_7 H78_16 1_555 1_555
C22_7 H79_16 1_555 1_555
O60_12 Zn17 1_555 1_555
O61_12 Zn20 1_555 1_555
C33 H92_11 1_555 1_555
C33 H93_11 1_555 1_555
C33 H94_11 1_555 1_555
C11 H105_17 1_555 1_555
C11 H106_17 1_555 1_555
C11 H107_17 1_555 1_555
O35_12 Zn16 1_555 1_555
O37_12 Zn19 1_555 1_555
C121 H47_17 1_555 1_555
C121 H48_17 1_555 1_555
C121 H49_17 1_555 1_555
C11_2 H77_17 1_555 1_555
C11_2 H78_17 1_555 1_555
C11_2 H79_17 1_555 1_555
C33_2 H80_11 1_555 1_555
C33_2 H81_11 1_555 1_555
C33_2 H82_11 1_555 1_555
C99_2 H98_11 1_555 1_555
C99_2 H99_11 1_555 1_555
C99_2 H100_11 1_555 1_555
C88_2 H108_17 1_555 1_555
C88_2 H109_17 1_555 1_555
C88_2 H110_17 1_555 1_555
C132 H114_11 1_555 1_555
C132 H115_11 1_555 1_555
C132 H116_11 1_555 1_555
C88 H47_18 1_555 1_555
C88 H48_18 1_555 1_555
C88 H49_18 1_555 1_555
C132_2 H98_12 1_555 1_555
C132_2 H99_12 1_555 1_555
C132_2 H100_12 1_555 1_555
C121_2 H108_18 1_555 1_555
C121_2 H109_18 1_555 1_555
C121_2 H110_18 1_555 1_555
C99 H114_12 1_555 1_555
C99 H115_12 1_555 1_555
C99 H116_12 1_555 1_555
C66_2 H92_12 1_555 1_555
C66_2 H93_12 1_555 1_555
C66_2 H94_12 1_555 1_555
C44_2 H105_18 1_555 1_555
C44_2 H106_18 1_555 1_555
C44_2 H107_18 1_555 1_555
C44 H77_18 1_555 1_555
C44 H78_18 1_555 1_555
C44 H79_18 1_555 1_555
C66 H80_12 1_555 1_555
C66 H81_12 1_555 1_555
C66 H82_12 1_555 1_555
C11_3 H105_19 1_555 1_555
C11_3 H106_19 1_555 1_555
C11_3 H107_19 1_555 1_555
C121_3 H47_19 1_555 1_555
C121_3 H48_19 1_555 1_555
C121_3 H49_19 1_555 1_555
C11_4 H77_19 1_555 1_555
C11_4 H78_19 1_555 1_555
C11_4 H79_19 1_555 1_555
C88_4 H108_19 1_555 1_555
C88_4 H109_19 1_555 1_555
C88_4 H110_19 1_555 1_555
C88_3 H47_20 1_555 1_555
C88_3 H48_20 1_555 1_555
C88_3 H49_20 1_555 1_555
C121_4 H108_20 1_555 1_555
C121_4 H109_20 1_555 1_555
C121_4 H110_20 1_555 1_555
C44_4 H105_20 1_555 1_555
C44_4 H106_20 1_555 1_555
C44_4 H107_20 1_555 1_555
C44_3 H77_20 1_555 1_555
C44_3 H78_20 1_555 1_555
C44_3 H79_20 1_555 1_555
C110_2 H108_21 1_555 1_555
C110_2 H109_21 1_555 1_555
C110_2 H110_21 1_555 1_555
C110 H47_21 1_555 1_555
C110 H48_21 1_555 1_555
C110 H49_21 1_555 1_555
C55 H77_21 1_555 1_555
C55 H78_21 1_555 1_555
C55 H79_21 1_555 1_555
C22_2 H105_21 1_555 1_555
C22_2 H106_21 1_555 1_555
C22_2 H107_21 1_555 1_555
C77 H108_22 1_555 1_555
C77 H109_22 1_555 1_555
C77 H110_22 1_555 1_555
C77_2 H47_22 1_555 1_555
C77_2 H48_22 1_555 1_555
C77_2 H49_22 1_555 1_555
C22 H77_22 1_555 1_555
C22 H78_22 1_555 1_555
C22 H79_22 1_555 1_555
C55_2 H105_22 1_555 1_555
C55_2 H106_22 1_555 1_555
C55_2 H107_22 1_555 1_555
C11_7 H105_23 1_555 1_555
C11_7 H106_23 1_555 1_555
C11_7 H107_23 1_555 1_555
C88_8 H108_23 1_555 1_555
C88_8 H109_23 1_555 1_555
C88_8 H110_23 1_555 1_555
C11_8 H77_23 1_555 1_555
C11_8 H78_23 1_555 1_555
C11_8 H79_23 1_555 1_555
C121_7 H47_23 1_555 1_555
C121_7 H48_23 1_555 1_555
C121_7 H49_23 1_555 1_555
C121_8 H108_24 1_555 1_555
C121_8 H109_24 1_555 1_555
C121_8 H110_24 1_555 1_555
C88_7 H47_24 1_555 1_555
C88_7 H48_24 1_555 1_555
C88_7 H49_24 1_555 1_555
C44_8 H105_24 1_555 1_555
C44_8 H106_24 1_555 1_555
C44_8 H107_24 1_555 1_555
C44_7 H77_24 1_555 1_555
C44_7 H78_24 1_555 1_555
C44_7 H79_24 1_555 1_555

#END
