
###############################################################################
#
# This file contains modified crystal structure data generated from the
# MOF subset of the Cambridge Structural Database (CSD) v543 
# hosted by the Cambridge Crystallographic Data Centre (CCDC).
#
# This work is licensed under the Creative Commons
# Attribution-NonCommercial-ShareAlike 4.0 International License.
# To view a copy of this license, visit
# http://creativecommons.org/licenses/by-nc-sa/4.0/
# or send a letter to
# Creative Commons, PO Box 1866, Mountain View, CA 94042, USA.
#
# CIF created using the CSD Python API on 29 September 2022
# The structure has been converted into the P1 space group
# The structure has a 3D framework
# The original CSD entry KEBKEJ is in the monoclinic crystal system
# The framework has been calculated to contain at least 10.0% void space
# The void calculation uses a probe of radius 1.32A, grid spacing 0.4
#
###############################################################################

data_KEBKEJ
_chemical_formula_moiety         '(C168 H96 Co12 N8 O56)n'
_symmetry_cell_setting           triclinic
_symmetry_space_group_name_H-M   'P 1'
_symmetry_Int_Tables_number      1
_space_group_name_Hall           'P 1'
loop_
_symmetry_equiv_pos_site_id
_symmetry_equiv_pos_as_xyz
1 x,y,z
_cell_length_a                   10.220(2)
_cell_length_b                   23.211(3)
_cell_length_c                   17.646(5)
_cell_angle_alpha                90
_cell_angle_beta                 90.688(5)
_cell_angle_gamma                90
_cell_volume                     4185.62
loop_
_atom_site_label
_atom_site_type_symbol
_atom_site_fract_x
_atom_site_fract_y
_atom_site_fract_z
O7 O 0.0064(3) 0.20567(14) 0.80096(17)
H7 H 0.0305 0.1290 0.9180
Co7 Co 0.17656(6) 0.24058(3) 0.74201(3)
Co10 Co 0.02232(6) 0.34952(3) 0.84914(3)
Co1 Co 0.48611(6) 0.37425(3) 0.25333(3)
Co2 Co 0.67656(6) 0.25942(3) 0.24201(3)
O1 O 0.4676(3) 0.37210(15) 0.14074(18)
O2 O 0.6447(3) 0.31692(14) 0.15138(17)
O8 O 0.3553(3) 0.43557(14) 0.28585(17)
O9 O 0.2668(3) 0.35482(14) 0.24726(18)
O14 O 0.0575(3) 0.64404(15) 0.25487(18)
C1 C 0.5457(4) 0.3349(2) 0.1149(3)
C2 C 0.5156(4) 0.31080(19) 0.0379(2)
C3 C 0.3943(4) 0.3208(2) 0.0051(2)
H1 H 0.3335 0.3433 0.0304
C8 C 0.6070(4) 0.2770(2) 0.0007(3)
H3 H 0.6881 0.2693 0.0229
C11 C 0.7624(5) 0.1010(2) 0.0051(3)
H5 H 0.7270 0.0760 0.0405
H6 H 0.9409 0.0647 0.0038
C16 C 0.2533(4) 0.4046(2) 0.2733(3)
C17 C 0.1213(4) 0.42758(19) 0.2925(2)
C18 C 0.0113(4) 0.3925(2) 0.2853(3)
H8 H 0.0200 0.3547 0.2687
C23 C 0.1101(4) 0.4837(2) 0.3187(2)
H10 H 0.1833 0.5073 0.3227
C24 C 0.0663(4) 0.5872(2) 0.4062(2)
C25 C 0.1326(5) 0.5624(2) 0.4664(3)
H11 H 0.1196 0.5239 0.4785
C26 C 0.2194(5) 0.5961(2) 0.5085(3)
H12 H 0.2657 0.5801 0.5489
C27 C 0.2367(5) 0.6540(2) 0.4901(3)
H13 H 0.2946 0.6765 0.5183
C28 C 0.1678(5) 0.6780(2) 0.4297(3)
H14 H 0.1776 0.7169 0.4183
C29 C 0.0846(4) 0.64411(19) 0.3864(3)
C30 C 0.0195(4) 0.6665(2) 0.3152(3)
O15 O 0.8404(4) 0.22990(17) 0.18967(19)
H23 H 0.863(9) 0.1948(13) 0.184(4)
H24 H 0.858(5) 0.244(2) 0.1467(17)
O16 O 0.7040(3) 0.20050(13) 0.33230(16)
O18 O 0.5064(3) 0.29433(14) 0.30096(17)
O19 O 0.7828(3) 0.32454(13) 0.29060(17)
O20 O 0.6591(3) 0.40473(13) 0.28853(17)
O21 O 0.5633(3) 0.20530(15) 0.17824(18)
O3 O 0.1457(3) 0.33217(14) 0.94363(17)
O4 O 0.2040(3) 0.29950(13) 0.83230(16)
O5 O 0.6659(3) 0.22476(14) 0.88719(17)
O6 O 0.9214(3) 0.27512(14) 0.87437(18)
N2 N 0.1255(4) 0.42893(17) 0.8458(2)
C4 C 0.3621(4) 0.2975(2) 0.9346(2)
C5 C 0.2297(4) 0.30910(19) 0.9020(2)
C6 C 0.4541(4) 0.26436(19) 0.8960(3)
H2 H 0.4347 0.2489 0.8485
C7 C 0.5753(4) 0.2551(2) 0.9303(3)
C9 C 0.7403(4) 0.1831(2) 0.9240(3)
C10 C 0.6847(5) 0.1446(2) 0.9737(3)
H4 H 0.5968 0.1477 0.9862
C12 C 0.8905(5) 0.0947(2) 0.9841(3)
C13 C 0.9442(5) 0.1336(2) 0.9330(3)
C14 C 0.8718(4) 0.1790(2) 0.9044(2)
C15 C 0.9364(4) 0.2231(2) 0.8558(3)
C36 C 0.0286(7) 0.5747(2) 0.9093(3)
H19 H 0.0636 0.6113 0.9161
C37 C 0.1107(6) 0.5287(2) 0.8818(3)
C38 C 0.2413(6) 0.5369(3) 0.8632(3)
H20 H 0.2805 0.5729 0.8690
C39 C 0.3112(5) 0.4910(2) 0.8362(3)
H21 H 0.3988 0.4953 0.8239
C40 C 0.2499(5) 0.4378(2) 0.8273(3)
H22 H 0.2976 0.4073 0.8077
C41 C 0.0560(5) 0.4737(2) 0.8737(3)
Co4 Co 0.98611(6) 0.12575(3) 0.75333(3)
O12 O 0.9661(3) 0.55892(14) 0.36647(18)
O13 O 0.9367(3) 0.70530(15) 0.32176(18)
C19 C 0.8874(4) 0.41428(19) 0.3031(2)
C20 C 0.7680(4) 0.3780(2) 0.2933(2)
C21 C 0.8767(4) 0.47071(19) 0.3288(2)
H9 H 0.7948 0.4860 0.3394
C22 C 0.9875(4) 0.50399(19) 0.3387(2)
Co9 Co 0.82344(6) 0.75942(3) 0.25799(3)
Co11 Co 0.97768(6) 0.65048(3) 0.15086(3)
N1 N 0.8792(4) 0.40785(17) 0.8897(2)
C31 C 0.7572(5) 0.3974(2) 0.9077(3)
H15 H 0.7267 0.3597 0.9053
C32 C 0.6712(6) 0.4408(3) 0.9304(3)
H16 H 0.5852 0.4318 0.9423
C33 C 0.7137(6) 0.4960(3) 0.9349(3)
H17 H 0.6564 0.5252 0.9487
C34 C 0.8441(6) 0.5088(2) 0.9187(3)
C35 C 0.9011(7) 0.5650(2) 0.9255(3)
H18 H 0.8493 0.5956 0.9414
C42 C 0.9232(5) 0.4630(2) 0.8937(3)
O22 O 0.9425(3) 0.35596(15) 0.74513(18)
Co5 Co 0.01389(6) 0.87425(3) 0.24667(3)
O12_2 O 0.5339(3) 0.05892(14) 0.13353(18)
O14_2 O 0.4425(3) 0.14404(15) 0.24513(18)
C22_2 C 0.5125(4) 0.00399(19) 0.1613(2)
H10_2 H 0.3167 0.0073 0.1773
C24_2 C 0.4337(4) 0.0872(2) 0.0938(2)
C25_2 C 0.3674(5) 0.0624(2) 0.0336(3)
H11_2 H 0.3804 0.0239 0.0215
C27_2 C 0.2633(5) 0.1540(2) 0.0099(3)
C28_2 C 0.3322(5) 0.1780(2) 0.0703(3)
H14_2 H 0.3224 0.2169 0.0817
C29_2 C 0.4154(4) 0.14411(19) 0.1136(3)
C30_2 C 0.4805(4) 0.1665(2) 0.1848(3)
H17_2 H 0.8436 0.0252 0.5513
C34_2 C 0.6559(6) 0.0088(2) 0.5813(3)
C35_2 C 0.5989(7) 0.0650(2) 0.5745(3)
H18_2 H 0.6507 0.0956 0.5586
C36_2 C 0.4714(7) 0.0747(2) 0.5907(3)
H19_2 H 0.4364 0.1113 0.5839
C37_2 C 0.3893(6) 0.0287(2) 0.6182(3)
C38_2 C 0.2587(6) 0.0369(3) 0.6368(3)
H20_2 H 0.2195 0.0729 0.6310
Co11_2 Co 0.52232(6) 0.15048(3) 0.34914(3)
Co3 Co 0.47768(6) 0.84952(3) 0.65086(3)
O1_2 O 0.0324(3) 0.87210(15) 0.35926(18)
O3_2 O 0.3543(3) 0.83217(14) 0.55637(17)
O4_2 O 0.2960(3) 0.79950(13) 0.66770(16)
O8_2 O 0.1447(3) 0.93557(14) 0.21415(17)
O9_2 O 0.2332(3) 0.85482(14) 0.25274(18)
O10 O 0.7172(3) 0.82454(13) 0.20940(17)
O11 O 0.8409(3) 0.90473(13) 0.21147(17)
N1_2 N 0.6208(4) 0.90785(17) 0.6103(2)
N2_2 N 0.3745(4) 0.92893(17) 0.6542(2)
C3_2 C 0.1057(4) 0.8208(2) 0.4949(2)
H1_2 H 0.1665 0.8433 0.4696
C4_2 C 0.1379(4) 0.7975(2) 0.5654(2)
C5_2 C 0.2703(4) 0.80910(19) 0.5980(2)
C6_2 C 0.0459(4) 0.76436(19) 0.6040(3)
H2_2 H 0.0653 0.7489 0.6515
C16_2 C 0.2467(4) 0.9046(2) 0.2267(3)
C17_2 C 0.3787(4) 0.92758(19) 0.2075(2)
C18_2 C 0.4887(4) 0.8925(2) 0.2147(3)
H8_2 H 0.4800 0.8547 0.2313
C19_2 C 0.6126(4) 0.91428(19) 0.1969(2)
C20_2 C 0.7320(4) 0.8780(2) 0.2067(2)
C21_2 C 0.6233(4) 0.97071(19) 0.1712(2)
H9_2 H 0.7052 0.9860 0.1606
C23_2 C 0.3899(4) 0.9837(2) 0.1813(2)
C31_2 C 0.7428(5) 0.8974(2) 0.5923(3)
H15_2 H 0.7733 0.8597 0.5947
C32_2 C 0.8288(6) 0.9408(3) 0.5696(3)
H16_2 H 0.9148 0.9318 0.5577
C33_2 C 0.7863(6) 0.9960(3) 0.5651(3)
C39_2 C 0.1888(5) 0.9910(2) 0.6638(3)
H21_2 H 0.1012 0.9953 0.6761
C40_2 C 0.2501(5) 0.9378(2) 0.6727(3)
H22_2 H 0.2024 0.9073 0.6923
C41_2 C 0.4440(5) 0.9737(2) 0.6263(3)
C42_2 C 0.5768(5) 0.9630(2) 0.6063(3)
Co6 Co 0.32344(6) 0.74058(3) 0.75799(3)
O17 O 0.5786(3) 0.77512(14) 0.62563(18)
O22_2 O 0.5575(3) 0.85596(15) 0.75487(18)
O2_2 O 0.8553(3) 0.81692(14) 0.34862(17)
O5_2 O 0.8341(3) 0.72476(14) 0.61281(17)
O7_2 O 0.4936(3) 0.70567(14) 0.69904(17)
C1_2 C 0.9543(4) 0.8349(2) 0.3851(3)
C2_2 C 0.9844(4) 0.81080(19) 0.4621(2)
C7_2 C 0.9247(4) 0.7551(2) 0.5697(3)
C8_2 C 0.8930(4) 0.7770(2) 0.4993(3)
H3_2 H 0.8119 0.7693 0.4771
C9_2 C 0.7597(4) 0.6831(2) 0.5760(3)
C10_2 C 0.8153(5) 0.6446(2) 0.5263(3)
H4_2 H 0.9032 0.6477 0.5138
C11_2 C 0.7376(5) 0.6010(2) 0.4949(3)
H5_2 H 0.7730 0.5760 0.4595
C12_2 C 0.6095(5) 0.5947(2) 0.5159(3)
H6_2 H 0.5591 0.5647 0.4962
C13_2 C 0.5558(5) 0.6336(2) 0.5670(3)
H7_2 H 0.4695 0.6290 0.5820
C14_2 C 0.6282(4) 0.6790(2) 0.5956(2)
C15_2 C 0.5636(4) 0.7231(2) 0.6442(3)
O15_2 O 0.6596(4) 0.72990(17) 0.31033(19)
H23_2 H 0.637(9) 0.6948(13) 0.316(4)
H24_2 H 0.642(5) 0.744(2) 0.3533(17)
Co4_2 Co 0.51389(6) 0.62575(3) 0.74667(3)
O16_2 O 0.7960(3) 0.70050(13) 0.16770(16)
O18_2 O 0.9936(3) 0.79433(14) 0.19904(17)
N1_3 N 0.1208(4) 0.59215(17) 0.1103(2)
C31_3 C 0.2428(5) 0.6026(2) 0.0923(3)
H15_3 H 0.2733 0.6403 0.0947
C32_3 C 0.3288(6) 0.5592(3) 0.0696(3)
H16_3 H 0.4148 0.5682 0.0577
C33_3 C 0.2863(6) 0.5040(3) 0.0651(3)
H17_3 H 0.3436 0.4748 0.0513
C34_3 C 0.1559(6) 0.4912(2) 0.0813(3)
C35_3 C 0.0989(7) 0.4350(2) 0.0745(3)
H18_3 H 0.1507 0.4044 0.0586
C42_3 C 0.0768(5) 0.5370(2) 0.1063(3)
O17_2 O 0.0786(3) 0.72488(14) 0.12563(18)
O10_2 O 0.2172(3) 0.67546(13) 0.70940(17)
O11_2 O 0.3409(3) 0.59527(13) 0.71147(17)
O12_3 O 0.0339(3) 0.44108(14) 0.63353(18)
O13_2 O 0.0633(3) 0.29470(15) 0.67824(18)
C19_3 C 0.1126(4) 0.58572(19) 0.6969(2)
C20_3 C 0.2320(4) 0.6220(2) 0.7067(2)
C21_3 C 0.1233(4) 0.52929(19) 0.6712(2)
H9_3 H 0.2052 0.5140 0.6606
C22_3 C 0.0125(4) 0.49601(19) 0.6613(2)
O3_3 O 0.8543(3) 0.66783(14) 0.05637(17)
O5_3 O 0.3341(3) 0.77524(14) 0.11281(17)
N2_3 N 0.8745(4) 0.57107(17) 0.1542(2)
C4_3 C 0.6379(4) 0.7025(2) 0.0654(2)
C5_3 C 0.7703(4) 0.69090(19) 0.0980(2)
C6_3 C 0.5459(4) 0.73564(19) 0.1040(3)
H2_3 H 0.5653 0.7511 0.1515
C7_3 C 0.4247(4) 0.7449(2) 0.0697(3)
C9_3 C 0.2597(4) 0.8169(2) 0.0760(3)
C10_3 C 0.3153(5) 0.8554(2) 0.0263(3)
H4_3 H 0.4032 0.8523 0.0138
C12_3 C 0.1095(5) 0.9053(2) 0.0159(3)
C13_3 C 0.0558(5) 0.8664(2) 0.0670(3)
C14_3 C 0.1282(4) 0.8210(2) 0.0956(2)
C15_3 C 0.0636(4) 0.7769(2) 0.1442(3)
C36_3 C 0.9714(7) 0.4253(2) 0.0907(3)
H19_3 H 0.9364 0.3887 0.0839
C37_3 C 0.8893(6) 0.4713(2) 0.1182(3)
C38_3 C 0.7587(6) 0.4631(3) 0.1368(3)
H20_3 H 0.7195 0.4271 0.1310
C39_3 C 0.6888(5) 0.5090(2) 0.1638(3)
H21_3 H 0.6012 0.5047 0.1761
C40_3 C 0.7501(5) 0.5622(2) 0.1727(3)
H22_3 H 0.7024 0.5927 0.1923
C41_3 C 0.9440(5) 0.5263(2) 0.1263(3)
O1_3 O 0.5324(3) 0.62790(15) 0.85926(18)
O2_3 O 0.3553(3) 0.68308(14) 0.84862(17)
O8_3 O 0.6447(3) 0.56443(14) 0.71415(17)
O9_3 O 0.7332(3) 0.64518(14) 0.75274(18)
C1_3 C 0.4543(4) 0.6651(2) 0.8851(3)
C2_3 C 0.4844(4) 0.68920(19) 0.9621(2)
C3_3 C 0.6057(4) 0.6792(2) 0.9949(2)
H1_3 H 0.6665 0.6567 0.9696
C8_3 C 0.3930(4) 0.7230(2) 0.9993(3)
H3_3 H 0.3119 0.7307 0.9771
C11_3 C 0.2376(5) 0.8990(2) 0.9949(3)
H5_3 H 0.2730 0.9240 0.9595
H6_3 H 0.0591 0.9353 0.9962
C16_3 C 0.7467(4) 0.5954(2) 0.7267(3)
C17_3 C 0.8787(4) 0.57242(19) 0.7075(2)
C18_3 C 0.9887(4) 0.6075(2) 0.7147(3)
H8_3 H 0.9800 0.6453 0.7313
C23_3 C 0.8899(4) 0.5163(2) 0.6813(2)
H10_3 H 0.8167 0.4927 0.6773
C24_3 C 0.9337(4) 0.4128(2) 0.5938(2)
C25_3 C 0.8674(5) 0.4376(2) 0.5336(3)
H11_3 H 0.8804 0.4761 0.5215
C26_2 C 0.7806(5) 0.4039(2) 0.4915(3)
H12_2 H 0.7343 0.4199 0.4511
C27_3 C 0.7633(5) 0.3460(2) 0.5099(3)
H13_2 H 0.7054 0.3235 0.4817
C28_3 C 0.8322(5) 0.3220(2) 0.5703(3)
H14_3 H 0.8224 0.2831 0.5817
C29_3 C 0.9154(4) 0.35589(19) 0.6136(3)
C30_3 C 0.9805(4) 0.3335(2) 0.6848(3)
O15_3 O 0.1596(4) 0.77010(17) 0.81033(19)
H23_3 H 0.137(9) 0.8052(13) 0.816(4)
H24_3 H 0.142(5) 0.756(2) 0.8533(17)
O21_2 O 0.4367(3) 0.79470(15) 0.82176(18)
H7_3 H 0.9695 0.8710 0.0820
O2_4 O 0.1447(3) 0.18308(14) 0.65138(17)
O5_4 O 0.1659(3) 0.27524(14) 0.38719(17)
O6_2 O 0.4214(3) 0.22488(14) 0.37437(18)
C1_4 C 0.0457(4) 0.1651(2) 0.6149(3)
C2_4 C 0.0156(4) 0.18920(19) 0.5379(2)
C7_4 C 0.0753(4) 0.2449(2) 0.4303(3)
C8_4 C 0.1070(4) 0.2230(2) 0.5007(3)
H3_4 H 0.1881 0.2307 0.5229
C9_4 C 0.2403(4) 0.3169(2) 0.4240(3)
C10_4 C 0.1847(5) 0.3554(2) 0.4737(3)
H4_4 H 0.0968 0.3523 0.4862
C11_4 C 0.2624(5) 0.3990(2) 0.5051(3)
H5_4 H 0.2270 0.4240 0.5405
C12_4 C 0.3905(5) 0.4053(2) 0.4841(3)
H6_4 H 0.4409 0.4353 0.5038
C13_4 C 0.4442(5) 0.3664(2) 0.4330(3)
H7_4 H 0.5305 0.3710 0.4180
C14_4 C 0.3718(4) 0.3210(2) 0.4044(2)
C15_4 C 0.4364(4) 0.2769(2) 0.3558(3)
O15_4 O 0.3404(4) 0.27010(17) 0.68967(19)
H23_4 H 0.363(9) 0.3052(13) 0.684(4)
H24_4 H 0.358(5) 0.256(2) 0.6467(17)
O19_2 O 0.2828(3) 0.17546(13) 0.79060(17)
O20_2 O 0.1591(3) 0.09527(13) 0.78853(17)
O1_4 O 0.9676(3) 0.12790(15) 0.64074(18)
O3_4 O 0.6457(3) 0.16783(14) 0.44363(17)
O8_4 O 0.8553(3) 0.06443(14) 0.78585(17)
O9_4 O 0.7668(3) 0.14518(14) 0.74726(18)
N1_4 N 0.3792(4) 0.09215(17) 0.3897(2)
N2_4 N 0.6255(4) 0.07107(17) 0.3458(2)
C3_4 C 0.8943(4) 0.1792(2) 0.5051(2)
H1_4 H 0.8335 0.1567 0.5304
C4_4 C 0.8621(4) 0.2025(2) 0.4346(2)
C5_4 C 0.7297(4) 0.19090(19) 0.4020(2)
C6_4 C 0.9541(4) 0.23564(19) 0.3960(3)
H2_4 H 0.9347 0.2511 0.3485
C16_4 C 0.7533(4) 0.0954(2) 0.7733(3)
C17_4 C 0.6213(4) 0.07242(19) 0.7925(2)
C18_4 C 0.5113(4) 0.1075(2) 0.7853(3)
H8_4 H 0.5200 0.1453 0.7687
C19_4 C 0.3874(4) 0.08572(19) 0.8031(2)
C20_4 C 0.2680(4) 0.1220(2) 0.7933(2)
C21_4 C 0.3767(4) 0.02929(19) 0.8288(2)
H9_4 H 0.2948 0.0140 0.8394
C23_4 C 0.6101(4) 0.0163(2) 0.8187(2)
C31_4 C 0.2572(5) 0.1026(2) 0.4077(3)
H15_4 H 0.2267 0.1403 0.4053
C32_4 C 0.1712(6) 0.0592(3) 0.4304(3)
H16_4 H 0.0852 0.0682 0.4423
C33_4 C 0.2137(6) 0.0040(3) 0.4349(3)
C39_4 C 0.8112(5) 0.0090(2) 0.3362(3)
H21_4 H 0.8988 0.0047 0.3239
C40_4 C 0.7499(5) 0.0622(2) 0.3273(3)
H22_4 H 0.7976 0.0927 0.3077
C41_4 C 0.5560(5) 0.0263(2) 0.3737(3)
C42_4 C 0.4232(5) 0.0370(2) 0.3937(3)
O12_4 O 0.4661(3) 0.94108(14) 0.86647(18)
C22_4 C 0.4875(4) 0.99601(19) 0.8387(2)
H10_4 H 0.6833 0.9927 0.8227
C24_4 C 0.5663(4) 0.9128(2) 0.9062(2)
C25_4 C 0.6326(5) 0.9376(2) 0.9664(3)
H11_4 H 0.6196 0.9761 0.9785
C27_4 C 0.7367(5) 0.8460(2) 0.9901(3)
C28_4 C 0.6678(5) 0.8220(2) 0.9297(3)
H14_4 H 0.6776 0.7831 0.9183
C29_4 C 0.5846(4) 0.85589(19) 0.8864(3)
C30_4 C 0.5195(4) 0.8335(2) 0.8152(3)
H17_4 H 0.1564 0.9748 0.4487
C34_4 C 0.3441(6) 0.9912(2) 0.4187(3)
C35_4 C 0.4011(7) 0.9350(2) 0.4255(3)
H18_4 H 0.3493 0.9044 0.4414
C36_4 C 0.5286(7) 0.9253(2) 0.4093(3)
H19_4 H 0.5636 0.8887 0.4161
C37_4 C 0.6107(6) 0.9713(2) 0.3818(3)
C38_4 C 0.7413(6) 0.9631(3) 0.3632(3)
H20_4 H 0.7805 0.9271 0.3690
C26_3 C 0.2806(5) 0.0961(2) 0.9915(3)
H12_3 H 0.2343 0.0801 0.9511
H13_3 H 0.2054 0.1765 0.9817
C26_4 C 0.7194(5) 0.9039(2) 0.0085(3)
H12_4 H 0.7657 0.9199 0.0489
H13_4 H 0.7946 0.8235 0.0183
loop_
_geom_bond_atom_site_label_1
_geom_bond_atom_site_label_2
_geom_bond_site_symmetry_1
_geom_bond_site_symmetry_2
Co7 O7 1_555 1_555
Co1 O1 1_555 1_555
Co2 O2 1_555 1_555
O1 C1 1_555 1_555
O2 C1 1_555 1_555
O8 Co1 1_555 1_555
O9 Co1 1_555 1_555
O14 C30 1_555 1_555
C1 C2 1_555 1_555
C2 C3 1_555 1_555
C3 H1 1_555 1_555
C8 C2 1_555 1_555
H3 C8 1_555 1_555
H5 C11 1_555 1_555
C16 O8 1_555 1_555
C17 C16 1_555 1_555
C18 C17 1_555 1_555
H8 C18 1_555 1_555
C23 C17 1_555 1_555
H10 C23 1_555 1_555
C25 C24 1_555 1_555
H11 C25 1_555 1_555
C26 C25 1_555 1_555
H12 C26 1_555 1_555
C27 C26 1_555 1_555
H13 C27 1_555 1_555
C28 C27 1_555 1_555
H14 C28 1_555 1_555
C29 C24 1_555 1_555
C30 C29 1_555 1_555
O15 Co2 1_555 1_555
H23 O15 1_555 1_555
H24 O15 1_555 1_555
O16 Co2 1_555 1_555
O18 Co1 1_555 1_555
O19 Co2 1_555 1_555
O20 Co1 1_555 1_555
O21 Co2 1_555 1_555
Co2 O18 1_555 1_555
O9 C16 1_555 1_555
C28 C29 1_555 1_555
Co10 O3 1_555 1_555
O3 C5 1_555 1_555
O4 Co10 1_555 1_555
O5 C7 1_555 1_555
O6 C15 1_555 1_555
N2 Co10 1_555 1_555
C5 O4 1_555 1_555
C6 C4 1_555 1_555
H2 C6 1_555 1_555
C7 C6 1_555 1_555
C9 O5 1_555 1_555
C10 C9 1_555 1_555
H4 C10 1_555 1_555
C13 C12 1_555 1_555
C14 C9 1_555 1_555
C15 C14 1_555 1_555
H19 C36 1_555 1_555
C37 C36 1_555 1_555
C38 C37 1_555 1_555
H20 C38 1_555 1_555
C39 C38 1_555 1_555
H21 C39 1_555 1_555
C40 N2 1_555 1_555
H22 C40 1_555 1_555
C41 N2 1_555 1_555
Co7 O4 1_555 1_555
C4 C5 1_555 1_555
C13 C14 1_555 1_555
C37 C41 1_555 1_555
C39 C40 1_555 1_555
O19 C20 1_555 1_555
O20 C20 1_555 1_555
O12 C22 1_555 1_555
C20 C19 1_555 1_555
C21 C19 1_555 1_555
H9 C21 1_555 1_555
C22 C21 1_555 1_555
Co9 O13 1_555 1_555
C31 N1 1_555 1_555
H15 C31 1_555 1_555
C32 C31 1_555 1_555
H16 C32 1_555 1_555
C33 C32 1_555 1_555
H17 C33 1_555 1_555
C34 C33 1_555 1_555
C35 C34 1_555 1_555
H18 C35 1_555 1_555
C42 N1 1_555 1_555
C34 C42 1_555 1_555
O12_2 C22_2 1_555 1_555
O21 C30_2 1_555 1_555
O14_2 C30_2 1_555 1_555
C24_2 O12_2 1_555 1_555
C25_2 C24_2 1_555 1_555
H11_2 C25_2 1_555 1_555
C28_2 C27_2 1_555 1_555
H14_2 C28_2 1_555 1_555
C29_2 C24_2 1_555 1_555
C30_2 C29_2 1_555 1_555
C35_2 C34_2 1_555 1_555
H18_2 C35_2 1_555 1_555
C36_2 C35_2 1_555 1_555
H19_2 C36_2 1_555 1_555
C37_2 C36_2 1_555 1_555
C38_2 C37_2 1_555 1_555
H20_2 C38_2 1_555 1_555
Co11_2 O14_2 1_555 1_555
C28_2 C29_2 1_555 1_555
Co5 O1_2 1_555 1_555
Co3 O3_2 1_555 1_555
O3_2 C5_2 1_555 1_555
O4_2 Co3 1_555 1_555
O8_2 Co5 1_555 1_555
O9_2 Co5 1_555 1_555
O10 C20_2 1_555 1_555
O11 C20_2 1_555 1_555
N1_2 Co3 1_555 1_555
N2_2 Co3 1_555 1_555
C3_2 H1_2 1_555 1_555
C4_2 C3_2 1_555 1_555
C5_2 O4_2 1_555 1_555
C6_2 C4_2 1_555 1_555
H2_2 C6_2 1_555 1_555
C16_2 O8_2 1_555 1_555
C17_2 C16_2 1_555 1_555
C18_2 C17_2 1_555 1_555
H8_2 C18_2 1_555 1_555
C19_2 C18_2 1_555 1_555
C20_2 C19_2 1_555 1_555
C21_2 C19_2 1_555 1_555
H9_2 C21_2 1_555 1_555
C23_2 C17_2 1_555 1_555
C31_2 N1_2 1_555 1_555
H15_2 C31_2 1_555 1_555
C32_2 C31_2 1_555 1_555
H16_2 C32_2 1_555 1_555
C33_2 C32_2 1_555 1_555
H21_2 C39_2 1_555 1_555
C40_2 N2_2 1_555 1_555
H22_2 C40_2 1_555 1_555
C41_2 N2_2 1_555 1_555
C42_2 N1_2 1_555 1_555
Co6 O4_2 1_555 1_555
Co9 O10 1_555 1_555
O17 Co3 1_555 1_555
O22_2 Co3 1_555 1_555
O9_2 C16_2 1_555 1_555
C4_2 C5_2 1_555 1_555
C39_2 C40_2 1_555 1_555
C41_2 C42_2 1_555 1_555
Co9 O2_2 1_555 1_555
O2_2 C1_2 1_555 1_555
O5_2 C7_2 1_555 1_555
O17 C15_2 1_555 1_555
O7_2 C15_2 1_555 1_555
C1_2 C2_2 1_555 1_555
C8_2 C2_2 1_555 1_555
H3_2 C8_2 1_555 1_555
C9_2 O5_2 1_555 1_555
C10_2 C9_2 1_555 1_555
H4_2 C10_2 1_555 1_555
C11_2 C10_2 1_555 1_555
H5_2 C11_2 1_555 1_555
C12_2 C11_2 1_555 1_555
H6_2 C12_2 1_555 1_555
C13_2 C12_2 1_555 1_555
H7_2 C13_2 1_555 1_555
C14_2 C9_2 1_555 1_555
C15_2 C14_2 1_555 1_555
O15_2 Co9 1_555 1_555
H23_2 O15_2 1_555 1_555
H24_2 O15_2 1_555 1_555
Co4_2 O7_2 1_555 1_555
Co6 O7_2 1_555 1_555
O16_2 Co9 1_555 1_555
Co9 O18_2 1_555 1_555
C7_2 C8_2 1_555 1_555
C13_2 C14_2 1_555 1_555
C31_3 N1_3 1_555 1_555
H15_3 C31_3 1_555 1_555
C32_3 C31_3 1_555 1_555
H16_3 C32_3 1_555 1_555
C33_3 C32_3 1_555 1_555
H17_3 C33_3 1_555 1_555
C34_3 C33_3 1_555 1_555
C35_3 C34_3 1_555 1_555
H18_3 C35_3 1_555 1_555
C42_3 N1_3 1_555 1_555
C34_3 C42_3 1_555 1_555
O10_2 C20_3 1_555 1_555
O11_2 C20_3 1_555 1_555
O12_3 C22_3 1_555 1_555
C20_3 C19_3 1_555 1_555
C21_3 C19_3 1_555 1_555
H9_3 C21_3 1_555 1_555
C22_3 C21_3 1_555 1_555
Co4_2 O11_2 1_555 1_555
Co6 O10_2 1_555 1_555
Co7 O13_2 1_555 1_555
Co11 O3_3 1_555 1_555
O3_3 C5_3 1_555 1_555
O16_2 Co11 1_555 1_555
O5_3 C7_3 1_555 1_555
O17_2 C15_3 1_555 1_555
N2_3 Co11 1_555 1_555
C5_3 O16_2 1_555 1_555
C6_3 C4_3 1_555 1_555
H2_3 C6_3 1_555 1_555
C7_3 C6_3 1_555 1_555
C9_3 O5_3 1_555 1_555
C10_3 C9_3 1_555 1_555
H4_3 C10_3 1_555 1_555
C13_3 C12_3 1_555 1_555
C14_3 C9_3 1_555 1_555
C15_3 C14_3 1_555 1_555
H19_3 C36_3 1_555 1_555
C37_3 C36_3 1_555 1_555
C38_3 C37_3 1_555 1_555
H20_3 C38_3 1_555 1_555
C39_3 C38_3 1_555 1_555
H21_3 C39_3 1_555 1_555
C40_3 N2_3 1_555 1_555
H22_3 C40_3 1_555 1_555
C41_3 N2_3 1_555 1_555
C4_3 C5_3 1_555 1_555
C13_3 C14_3 1_555 1_555
C37_3 C41_3 1_555 1_555
C39_3 C40_3 1_555 1_555
Co4_2 O1_3 1_555 1_555
Co6 O2_3 1_555 1_555
O1_3 C1_3 1_555 1_555
O2_3 C1_3 1_555 1_555
O8_3 Co4_2 1_555 1_555
O9_3 Co4_2 1_555 1_555
O22 C30_3 1_555 1_555
C1_3 C2_3 1_555 1_555
C2_3 C3_3 1_555 1_555
C3_3 H1_3 1_555 1_555
C8_3 C2_3 1_555 1_555
H3_3 C8_3 1_555 1_555
H5_3 C11_3 1_555 1_555
C16_3 O8_3 1_555 1_555
C17_3 C16_3 1_555 1_555
C18_3 C17_3 1_555 1_555
H8_3 C18_3 1_555 1_555
C23_3 C17_3 1_555 1_555
H10_3 C23_3 1_555 1_555
C25_3 C24_3 1_555 1_555
H11_3 C25_3 1_555 1_555
C26_2 C25_3 1_555 1_555
H12_2 C26_2 1_555 1_555
C27_3 C26_2 1_555 1_555
H13_2 C27_3 1_555 1_555
C28_3 C27_3 1_555 1_555
H14_3 C28_3 1_555 1_555
C29_3 C24_3 1_555 1_555
C30_3 C29_3 1_555 1_555
O15_3 Co6 1_555 1_555
H23_3 O15_3 1_555 1_555
H24_3 O15_3 1_555 1_555
O21_2 Co6 1_555 1_555
O9_3 C16_3 1_555 1_555
C28_3 C29_3 1_555 1_555
Co7 O2_4 1_555 1_555
O2_4 C1_4 1_555 1_555
O5_4 C7_4 1_555 1_555
O6_2 C15_4 1_555 1_555
O18 C15_4 1_555 1_555
C1_4 C2_4 1_555 1_555
C8_4 C2_4 1_555 1_555
H3_4 C8_4 1_555 1_555
C9_4 O5_4 1_555 1_555
C10_4 C9_4 1_555 1_555
H4_4 C10_4 1_555 1_555
C11_4 C10_4 1_555 1_555
H5_4 C11_4 1_555 1_555
C12_4 C11_4 1_555 1_555
H6_4 C12_4 1_555 1_555
C13_4 C12_4 1_555 1_555
H7_4 C13_4 1_555 1_555
C14_4 C9_4 1_555 1_555
C15_4 C14_4 1_555 1_555
O15_4 Co7 1_555 1_555
H23_4 O15_4 1_555 1_555
H24_4 O15_4 1_555 1_555
Co11_2 O6_2 1_555 1_555
O19_2 Co7 1_555 1_555
C7_4 C8_4 1_555 1_555
C13_4 C14_4 1_555 1_555
Co4 O1_4 1_555 1_555
Co11_2 O3_4 1_555 1_555
O3_4 C5_4 1_555 1_555
O16 Co11_2 1_555 1_555
O8_4 Co4 1_555 1_555
O9_4 Co4 1_555 1_555
O19_2 C20_4 1_555 1_555
O20_2 C20_4 1_555 1_555
N1_4 Co11_2 1_555 1_555
N2_4 Co11_2 1_555 1_555
C3_4 H1_4 1_555 1_555
C4_4 C3_4 1_555 1_555
C5_4 O16 1_555 1_555
C6_4 C4_4 1_555 1_555
H2_4 C6_4 1_555 1_555
C16_4 O8_4 1_555 1_555
C17_4 C16_4 1_555 1_555
C18_4 C17_4 1_555 1_555
H8_4 C18_4 1_555 1_555
C19_4 C18_4 1_555 1_555
C20_4 C19_4 1_555 1_555
C21_4 C19_4 1_555 1_555
H9_4 C21_4 1_555 1_555
C23_4 C17_4 1_555 1_555
C31_4 N1_4 1_555 1_555
H15_4 C31_4 1_555 1_555
C32_4 C31_4 1_555 1_555
H16_4 C32_4 1_555 1_555
C33_4 C32_4 1_555 1_555
H21_4 C39_4 1_555 1_555
C40_4 N2_4 1_555 1_555
H22_4 C40_4 1_555 1_555
C41_4 N2_4 1_555 1_555
C42_4 N1_4 1_555 1_555
O9_4 C16_4 1_555 1_555
C4_4 C5_4 1_555 1_555
C39_4 C40_4 1_555 1_555
C41_4 C42_4 1_555 1_555
O12_4 C22_4 1_555 1_555
O21_2 C30_4 1_555 1_555
O22_2 C30_4 1_555 1_555
C24_4 O12_4 1_555 1_555
C25_4 C24_4 1_555 1_555
H11_4 C25_4 1_555 1_555
C28_4 C27_4 1_555 1_555
H14_4 C28_4 1_555 1_555
C29_4 C24_4 1_555 1_555
C30_4 C29_4 1_555 1_555
C35_4 C34_4 1_555 1_555
H18_4 C35_4 1_555 1_555
C36_4 C35_4 1_555 1_555
H19_4 C36_4 1_555 1_555
C37_4 C36_4 1_555 1_555
C38_4 C37_4 1_555 1_555
H20_4 C38_4 1_555 1_555
C28_4 C29_4 1_555 1_555
H12_3 C26_3 1_555 1_555
H12_4 C26_4 1_555 1_555

#END
