
###############################################################################
#
# This file contains modified crystal structure data generated from the
# MOF subset of the Cambridge Structural Database (CSD) v543 
# hosted by the Cambridge Crystallographic Data Centre (CCDC).
#
# This work is licensed under the Creative Commons
# Attribution-NonCommercial-ShareAlike 4.0 International License.
# To view a copy of this license, visit
# http://creativecommons.org/licenses/by-nc-sa/4.0/
# or send a letter to
# Creative Commons, PO Box 1866, Mountain View, CA 94042, USA.
#
# CIF created using the CSD Python API on 29 September 2022
# The structure has been converted into the P1 space group
# The structure has a 3D framework
# The original CSD entry KEBRAK is in the cubic crystal system
# The framework has been calculated to contain at least 10.0% void space
# The void calculation uses a probe of radius 1.32A, grid spacing 0.4
#
###############################################################################

data_KEBRAK
_chemical_formula_moiety         '(C240 H384 Cu48 I18 N48 Rh16 S96)n'
_symmetry_cell_setting           triclinic
_symmetry_space_group_name_H-M   'P 1'
_symmetry_Int_Tables_number      1
_space_group_name_Hall           'P 1'
loop_
_symmetry_equiv_pos_site_id
_symmetry_equiv_pos_as_xyz
1 x,y,z
_cell_length_a                   23.71(1)
_cell_length_b                   23.71(1)
_cell_length_c                   23.71(1)
_cell_angle_alpha                90
_cell_angle_beta                 90
_cell_angle_gamma                90
_cell_volume                     13328.9
loop_
_atom_site_label
_atom_site_type_symbol
_atom_site_fract_x
_atom_site_fract_y
_atom_site_fract_z
Cu1 Cu 0.0230(4) 0.0183(3) 0.1972(3)
Rh1 Rh 0.0760(2) 0.0760(2) 0.0760(2)
S1 S 0.1147(7) 0.0395(7) 0.1601(7)
I2 I 0.0055(2) 0.0864(2) 0.2804(2)
S3 S 0.1601(7) 0.1147(7) 0.0395(7)
S4 S 0.0395(7) 0.1601(7) 0.1147(7)
Cu3 Cu 0.1972(3) 0.0230(4) 0.0183(3)
Cu4 Cu 0.0183(3) 0.1972(3) 0.0230(4)
I4 I 0.2804(2) 0.0055(2) 0.0864(2)
I6 I 0.0864(2) 0.2804(2) 0.0055(2)
C1 C 0.130(2) 0.020(2) 0.375(2)
N1 N 0.157(2) 0.063(2) 0.353(2)
C2 C 0.159(2) 0.116(3) 0.383(3)
C3 C 0.168(3) 0.158(3) 0.334(3)
C4 C 0.198(3) 0.122(3) 0.288(3)
C5 C 0.172(2) 0.058(3) 0.290(3)
H1 H 0.124 0.127 0.404
H2 H 0.188 0.121 0.410
H3 H 0.130 0.170 0.321
H4 H 0.187 0.191 0.345
H5 H 0.190 0.143 0.251
H6 H 0.237 0.126 0.294
H7 H 0.141 0.053 0.265
H8 H 0.200 0.031 0.282
S5 S 0.1088(7) 0.0163(7) 0.4465(7)
S6 S 0.4465(7) 0.1088(7) 0.0163(7)
C7 C 0.375(2) 0.130(2) 0.020(2)
N3 N 0.353(2) 0.157(2) 0.063(2)
C10 C 0.383(3) 0.159(2) 0.116(3)
C11 C 0.290(3) 0.172(2) 0.058(3)
C14 C 0.334(3) 0.168(3) 0.158(3)
H13 H 0.404 0.124 0.127
H14 H 0.410 0.188 0.121
C15 C 0.288(3) 0.198(3) 0.122(3)
H15 H 0.265 0.141 0.053
H16 H 0.282 0.200 0.031
H21 H 0.321 0.130 0.170
H22 H 0.345 0.187 0.191
H23 H 0.251 0.190 0.143
H24 H 0.294 0.237 0.126
S2 S 0.0163(7) 0.4465(7) 0.1088(7)
C6 C 0.020(2) 0.375(2) 0.130(2)
N2 N 0.063(2) 0.353(2) 0.157(2)
C8 C 0.116(3) 0.383(3) 0.159(2)
C9 C 0.058(3) 0.290(3) 0.172(2)
C12 C 0.158(3) 0.334(3) 0.168(3)
H9 H 0.127 0.404 0.124
H10 H 0.121 0.410 0.188
C13 C 0.122(3) 0.288(3) 0.198(3)
H11 H 0.053 0.265 0.141
H12 H 0.031 0.282 0.200
H17 H 0.170 0.321 0.130
H18 H 0.191 0.345 0.187
H19 H 0.143 0.251 0.190
H20 H 0.126 0.294 0.237
S6_2 S 0.0535(7) 0.1088(7) 0.9837(7)
C7_2 C 0.125(2) 0.130(2) 0.980(2)
I3 I 0.2196(2) 0.0055(2) 0.9136(2)
Cu5 Cu 0.3028(3) 0.0230(4) 0.9817(3)
N3_2 N 0.147(2) 0.157(2) 0.937(2)
C10_2 C 0.117(3) 0.159(2) 0.884(3)
C11_2 C 0.210(3) 0.172(2) 0.942(3)
C14_2 C 0.166(3) 0.168(3) 0.842(3)
H13_2 H 0.096 0.124 0.873
H14_2 H 0.090 0.188 0.879
C15_2 C 0.212(3) 0.198(3) 0.878(3)
H15_2 H 0.235 0.141 0.947
H16_2 H 0.218 0.200 0.969
H21_2 H 0.179 0.130 0.830
H22_2 H 0.155 0.187 0.809
H23_2 H 0.249 0.190 0.857
H24_2 H 0.206 0.237 0.874
I1 I 0.0055(2) 0.9136(2) 0.2196(2)
C1_2 C 0.130(2) 0.980(2) 0.125(2)
N1_2 N 0.157(2) 0.937(2) 0.147(2)
C2_2 C 0.159(2) 0.884(3) 0.117(3)
C3_2 C 0.168(3) 0.842(3) 0.166(3)
C4_2 C 0.198(3) 0.878(3) 0.212(3)
C5_2 C 0.172(2) 0.942(3) 0.210(3)
H1_2 H 0.124 0.873 0.096
H2_2 H 0.188 0.879 0.090
H3_2 H 0.130 0.830 0.179
H4_2 H 0.187 0.809 0.155
H5_2 H 0.190 0.857 0.249
H6_2 H 0.237 0.874 0.206
H7_2 H 0.141 0.947 0.235
H8_2 H 0.200 0.969 0.218
Cu2 Cu 0.0230(4) 0.9817(3) 0.3028(3)
S5_2 S 0.1088(7) 0.9837(7) 0.0535(7)
S2_2 S 0.9837(7) 0.0535(7) 0.1088(7)
C6_2 C 0.980(2) 0.125(2) 0.130(2)
N2_2 N 0.937(2) 0.147(2) 0.157(2)
I5 I 0.9136(2) 0.2196(2) 0.0055(2)
Cu6 Cu 0.9817(3) 0.3028(3) 0.0230(4)
C8_2 C 0.884(3) 0.117(3) 0.159(2)
C9_2 C 0.942(3) 0.210(3) 0.172(2)
C12_2 C 0.842(3) 0.166(3) 0.168(3)
H9_2 H 0.873 0.096 0.124
H10_2 H 0.879 0.090 0.188
C13_2 C 0.878(3) 0.212(3) 0.198(3)
H11_2 H 0.947 0.235 0.141
H12_2 H 0.969 0.218 0.200
H17_2 H 0.830 0.179 0.130
H18_2 H 0.809 0.155 0.187
H19_2 H 0.857 0.249 0.190
H20_2 H 0.874 0.206 0.237
I1_2 I 0.5055(2) 0.4136(2) 0.7196(2)
Cu1_2 Cu 0.5230(4) 0.5183(3) 0.6972(3)
Rh1_2 Rh 0.5760(2) 0.5760(2) 0.5760(2)
S1_2 S 0.6147(7) 0.5395(7) 0.6601(7)
S2_3 S 0.4837(7) 0.5535(7) 0.6088(7)
C1_3 C 0.630(2) 0.480(2) 0.625(2)
N1_3 N 0.657(2) 0.437(2) 0.647(2)
C2_3 C 0.659(2) 0.384(3) 0.617(3)
C3_3 C 0.668(3) 0.342(3) 0.666(3)
C4_3 C 0.698(3) 0.378(3) 0.712(3)
C5_3 C 0.672(2) 0.442(3) 0.710(3)
H1_3 H 0.624 0.373 0.596
H2_3 H 0.688 0.379 0.590
H3_3 H 0.630 0.330 0.679
H4_3 H 0.687 0.309 0.655
H5_3 H 0.690 0.357 0.749
H6_3 H 0.737 0.374 0.706
H7_3 H 0.641 0.447 0.735
H8_3 H 0.700 0.469 0.718
Cu2_2 Cu 0.5230(4) 0.4817(3) 0.8028(3)
I2_2 I 0.5055(2) 0.5864(2) 0.7804(2)
S3_2 S 0.6601(7) 0.6147(7) 0.5395(7)
S4_2 S 0.5395(7) 0.6601(7) 0.6147(7)
S5_3 S 0.6088(7) 0.4837(7) 0.5535(7)
S6_3 S 0.5535(7) 0.6088(7) 0.4837(7)
C6_3 C 0.480(2) 0.625(2) 0.630(2)
Cu3_2 Cu 0.6972(3) 0.5230(4) 0.5183(3)
C7_3 C 0.625(2) 0.630(2) 0.480(2)
Cu4_2 Cu 0.5183(3) 0.6972(3) 0.5230(4)
N2_3 N 0.437(2) 0.647(2) 0.657(2)
I3_2 I 0.7196(2) 0.5055(2) 0.4136(2)
I4_2 I 0.7804(2) 0.5055(2) 0.5864(2)
Cu5_2 Cu 0.8028(3) 0.5230(4) 0.4817(3)
N3_3 N 0.647(2) 0.657(2) 0.437(2)
I5_2 I 0.4136(2) 0.7196(2) 0.5055(2)
I6_2 I 0.5864(2) 0.7804(2) 0.5055(2)
Cu6_2 Cu 0.4817(3) 0.8028(3) 0.5230(4)
C8_3 C 0.384(3) 0.617(3) 0.659(2)
C9_3 C 0.442(3) 0.710(3) 0.672(2)
C10_3 C 0.617(3) 0.659(2) 0.384(3)
C11_3 C 0.710(3) 0.672(2) 0.442(3)
C12_3 C 0.342(3) 0.666(3) 0.668(3)
H9_3 H 0.373 0.596 0.624
H10_3 H 0.379 0.590 0.688
C13_3 C 0.378(3) 0.712(3) 0.698(3)
H11_3 H 0.447 0.735 0.641
H12_3 H 0.469 0.718 0.700
C14_3 C 0.666(3) 0.668(3) 0.342(3)
H13_3 H 0.596 0.624 0.373
H14_3 H 0.590 0.688 0.379
C15_3 C 0.712(3) 0.698(3) 0.378(3)
H15_3 H 0.735 0.641 0.447
H16_3 H 0.718 0.700 0.469
H17_3 H 0.330 0.679 0.630
H18_3 H 0.309 0.655 0.687
H19_3 H 0.357 0.749 0.690
H20_3 H 0.374 0.706 0.737
H21_3 H 0.679 0.630 0.330
H22_3 H 0.655 0.687 0.309
H23_3 H 0.749 0.690 0.357
H24_3 H 0.706 0.737 0.374
S6_4 S 0.5535(7) 0.3912(7) 0.0163(7)
C7_4 C 0.625(2) 0.370(2) 0.020(2)
I3_3 I 0.7196(2) 0.4945(2) 0.0864(2)
Cu5_3 Cu 0.8028(3) 0.4770(4) 0.0183(3)
N3_4 N 0.647(2) 0.343(2) 0.063(2)
C10_4 C 0.617(3) 0.341(2) 0.116(3)
C11_4 C 0.710(3) 0.328(2) 0.058(3)
C14_4 C 0.666(3) 0.332(3) 0.158(3)
H13_4 H 0.596 0.376 0.127
H14_4 H 0.590 0.312 0.121
C15_4 C 0.712(3) 0.302(3) 0.122(3)
H15_4 H 0.735 0.359 0.053
H16_4 H 0.718 0.300 0.031
H21_4 H 0.679 0.370 0.170
H22_4 H 0.655 0.313 0.191
H23_4 H 0.749 0.310 0.143
H24_4 H 0.706 0.263 0.126
Rh1_3 Rh 0.5760(2) 0.4240(2) 0.9240(2)
S1_3 S 0.6147(7) 0.4605(7) 0.8399(7)
S2_4 S 0.4837(7) 0.4465(7) 0.8912(7)
C1_4 C 0.630(2) 0.520(2) 0.875(2)
N1_4 N 0.657(2) 0.563(2) 0.853(2)
C2_4 C 0.659(2) 0.616(3) 0.883(3)
C3_4 C 0.668(3) 0.658(3) 0.834(3)
C4_4 C 0.698(3) 0.622(3) 0.788(3)
C5_4 C 0.672(2) 0.558(3) 0.790(3)
H1_4 H 0.624 0.627 0.904
H2_4 H 0.688 0.621 0.910
H3_4 H 0.630 0.670 0.821
H4_4 H 0.687 0.691 0.845
H5_4 H 0.690 0.643 0.751
H6_4 H 0.737 0.626 0.794
H7_4 H 0.641 0.553 0.765
H8_4 H 0.700 0.531 0.782
S3_3 S 0.6601(7) 0.3853(7) 0.9605(7)
S4_3 S 0.5395(7) 0.3399(7) 0.8853(7)
S5_4 S 0.6088(7) 0.5163(7) 0.9465(7)
C6_4 C 0.480(2) 0.375(2) 0.870(2)
Cu3_3 Cu 0.6972(3) 0.4770(4) 0.9817(3)
Cu4_3 Cu 0.5183(3) 0.3028(3) 0.9770(4)
N2_4 N 0.437(2) 0.353(2) 0.843(2)
I4_3 I 0.7804(2) 0.4945(2) 0.9136(2)
I5_3 I 0.4136(2) 0.2804(2) 0.9945(2)
I6_3 I 0.5864(2) 0.2196(2) 0.9945(2)
Cu6_3 Cu 0.4817(3) 0.1972(3) 0.9770(4)
C8_4 C 0.384(3) 0.383(3) 0.841(2)
C9_4 C 0.442(3) 0.290(3) 0.828(2)
C12_4 C 0.342(3) 0.334(3) 0.832(3)
H9_4 H 0.373 0.404 0.876
H10_4 H 0.379 0.410 0.812
C13_4 C 0.378(3) 0.288(3) 0.802(3)
H11_4 H 0.447 0.265 0.859
H12_4 H 0.469 0.282 0.800
H17_4 H 0.330 0.321 0.870
H18_4 H 0.309 0.345 0.813
H19_4 H 0.357 0.251 0.810
H20_4 H 0.374 0.294 0.763
Rh1_4 Rh 0.0760(2) 0.9240(2) 0.4240(2)
S1_4 S 0.1147(7) 0.9605(7) 0.3399(7)
S3_4 S 0.1601(7) 0.8853(7) 0.4605(7)
S4_4 S 0.0395(7) 0.8399(7) 0.3853(7)
S6_5 S 0.0535(7) 0.8912(7) 0.5163(7)
Cu3_4 Cu 0.1972(3) 0.9770(4) 0.4817(3)
C7_5 C 0.125(2) 0.870(2) 0.520(2)
Cu4_4 Cu 0.0183(3) 0.8028(3) 0.4770(4)
I3_4 I 0.2196(2) 0.9945(2) 0.5864(2)
I4_4 I 0.2804(2) 0.9945(2) 0.4136(2)
Cu5_4 Cu 0.3028(3) 0.9770(4) 0.5183(3)
N3_5 N 0.147(2) 0.843(2) 0.563(2)
I6_4 I 0.0864(2) 0.7196(2) 0.4945(2)
C10_5 C 0.117(3) 0.841(2) 0.616(3)
C11_5 C 0.210(3) 0.828(2) 0.558(3)
C14_5 C 0.166(3) 0.832(3) 0.658(3)
H13_5 H 0.096 0.876 0.627
H14_5 H 0.090 0.812 0.621
C15_5 C 0.212(3) 0.802(3) 0.622(3)
H15_5 H 0.235 0.859 0.553
H16_5 H 0.218 0.800 0.531
H21_5 H 0.179 0.870 0.670
H22_5 H 0.155 0.813 0.691
H23_5 H 0.249 0.810 0.643
H24_5 H 0.206 0.763 0.626
S2_5 S 0.9837(7) 0.9465(7) 0.3912(7)
C6_5 C 0.980(2) 0.875(2) 0.370(2)
N2_5 N 0.937(2) 0.853(2) 0.343(2)
I5_4 I 0.9136(2) 0.7804(2) 0.4945(2)
Cu6_4 Cu 0.9817(3) 0.6972(3) 0.4770(4)
C8_5 C 0.884(3) 0.883(3) 0.341(2)
C9_5 C 0.942(3) 0.790(3) 0.328(2)
C12_5 C 0.842(3) 0.834(3) 0.332(3)
H9_5 H 0.873 0.904 0.376
H10_5 H 0.879 0.910 0.312
C13_5 C 0.878(3) 0.788(3) 0.302(3)
H11_5 H 0.947 0.765 0.359
H12_5 H 0.969 0.782 0.300
H17_5 H 0.830 0.821 0.370
H18_5 H 0.809 0.845 0.313
H19_5 H 0.857 0.751 0.310
H20_5 H 0.874 0.794 0.263
S2_6 S 0.0163(7) 0.5535(7) 0.3912(7)
C6_6 C 0.020(2) 0.625(2) 0.370(2)
N2_6 N 0.063(2) 0.647(2) 0.343(2)
C8_6 C 0.116(3) 0.617(3) 0.341(2)
C9_6 C 0.058(3) 0.710(3) 0.328(2)
C12_6 C 0.158(3) 0.666(3) 0.332(3)
H9_6 H 0.127 0.596 0.376
H10_6 H 0.121 0.590 0.312
C13_6 C 0.122(3) 0.712(3) 0.302(3)
H11_6 H 0.053 0.735 0.359
H12_6 H 0.031 0.718 0.300
H17_6 H 0.170 0.679 0.370
H18_6 H 0.191 0.655 0.313
H19_6 H 0.143 0.749 0.310
H20_6 H 0.126 0.706 0.263
I1_3 I 0.9945(2) 0.4136(2) 0.2804(2)
Cu1_3 Cu 0.9770(4) 0.5183(3) 0.3028(3)
Rh1_5 Rh 0.9240(2) 0.5760(2) 0.4240(2)
S1_5 S 0.8853(7) 0.5395(7) 0.3399(7)
C1_5 C 0.870(2) 0.480(2) 0.375(2)
N1_5 N 0.843(2) 0.437(2) 0.353(2)
C2_5 C 0.841(2) 0.384(3) 0.383(3)
C3_5 C 0.832(3) 0.342(3) 0.334(3)
C4_5 C 0.802(3) 0.378(3) 0.288(3)
C5_5 C 0.828(2) 0.442(3) 0.290(3)
H1_5 H 0.876 0.373 0.404
H2_5 H 0.812 0.379 0.410
H3_5 H 0.870 0.330 0.321
H4_5 H 0.813 0.309 0.345
H5_5 H 0.810 0.357 0.251
H6_5 H 0.763 0.374 0.294
H7_5 H 0.859 0.447 0.265
H8_5 H 0.800 0.469 0.282
Cu2_3 Cu 0.9770(4) 0.4817(3) 0.1972(3)
I2_3 I 0.9945(2) 0.5864(2) 0.2196(2)
S3_5 S 0.8399(7) 0.6147(7) 0.4605(7)
S4_5 S 0.9605(7) 0.6601(7) 0.3853(7)
S5_5 S 0.8912(7) 0.4837(7) 0.4465(7)
S6_6 S 0.9465(7) 0.6088(7) 0.5163(7)
C7_6 C 0.875(2) 0.630(2) 0.520(2)
N3_6 N 0.853(2) 0.657(2) 0.563(2)
C10_6 C 0.883(3) 0.659(2) 0.616(3)
C11_6 C 0.790(3) 0.672(2) 0.558(3)
C14_6 C 0.834(3) 0.668(3) 0.658(3)
H13_6 H 0.904 0.624 0.627
H14_6 H 0.910 0.688 0.621
C15_6 C 0.788(3) 0.698(3) 0.622(3)
H15_6 H 0.765 0.641 0.553
H16_6 H 0.782 0.700 0.531
H21_6 H 0.821 0.630 0.670
H22_6 H 0.845 0.687 0.691
H23_6 H 0.751 0.690 0.643
H24_6 H 0.794 0.737 0.626
Cu1_4 Cu 0.4770(4) 0.0183(3) 0.8028(3)
Rh1_6 Rh 0.4240(2) 0.0760(2) 0.9240(2)
S1_6 S 0.3853(7) 0.0395(7) 0.8399(7)
S2_7 S 0.5163(7) 0.0535(7) 0.8912(7)
I2_4 I 0.4945(2) 0.0864(2) 0.7196(2)
S3_6 S 0.3399(7) 0.1147(7) 0.9605(7)
S4_6 S 0.4605(7) 0.1601(7) 0.8853(7)
C6_7 C 0.520(2) 0.125(2) 0.870(2)
N2_7 N 0.563(2) 0.147(2) 0.843(2)
C8_7 C 0.616(3) 0.117(3) 0.841(2)
C9_7 C 0.558(3) 0.210(3) 0.828(2)
C12_7 C 0.658(3) 0.166(3) 0.832(3)
H9_7 H 0.627 0.096 0.876
H10_7 H 0.621 0.090 0.812
C13_7 C 0.622(3) 0.212(3) 0.802(3)
H11_7 H 0.553 0.235 0.859
H12_7 H 0.531 0.218 0.800
H17_7 H 0.670 0.179 0.870
H18_7 H 0.691 0.155 0.813
H19_7 H 0.643 0.249 0.810
H20_7 H 0.626 0.206 0.763
I1_4 I 0.4945(2) 0.9136(2) 0.7804(2)
C1_6 C 0.370(2) 0.980(2) 0.875(2)
N1_6 N 0.343(2) 0.937(2) 0.853(2)
C2_6 C 0.341(2) 0.884(3) 0.883(3)
C3_6 C 0.332(3) 0.842(3) 0.834(3)
C4_6 C 0.302(3) 0.878(3) 0.788(3)
C5_6 C 0.328(2) 0.942(3) 0.790(3)
H1_6 H 0.376 0.873 0.904
H2_6 H 0.312 0.879 0.910
H3_6 H 0.370 0.830 0.821
H4_6 H 0.313 0.809 0.845
H5_6 H 0.310 0.857 0.751
H6_6 H 0.263 0.874 0.794
H7_6 H 0.359 0.947 0.765
H8_6 H 0.300 0.969 0.782
Cu2_4 Cu 0.4770(4) 0.9817(3) 0.6972(3)
S5_6 S 0.3912(7) 0.9837(7) 0.9465(7)
C1_7 C 0.370(2) 0.020(2) 0.625(2)
N1_7 N 0.343(2) 0.063(2) 0.647(2)
C2_7 C 0.341(2) 0.116(3) 0.617(3)
C3_7 C 0.332(3) 0.158(3) 0.666(3)
C4_7 C 0.302(3) 0.122(3) 0.712(3)
C5_7 C 0.328(2) 0.058(3) 0.710(3)
H1_7 H 0.376 0.127 0.596
H2_7 H 0.312 0.121 0.590
H3_7 H 0.370 0.170 0.679
H4_7 H 0.313 0.191 0.655
H5_7 H 0.310 0.143 0.749
H6_7 H 0.263 0.126 0.706
H7_7 H 0.359 0.053 0.735
H8_7 H 0.300 0.031 0.718
S5_7 S 0.3912(7) 0.0163(7) 0.5535(7)
Rh1_7 Rh 0.4240(2) 0.9240(2) 0.5760(2)
S1_7 S 0.3853(7) 0.9605(7) 0.6601(7)
S2_8 S 0.5163(7) 0.9465(7) 0.6088(7)
S3_7 S 0.3399(7) 0.8853(7) 0.5395(7)
S4_7 S 0.4605(7) 0.8399(7) 0.6147(7)
S6_7 S 0.4465(7) 0.8912(7) 0.4837(7)
C6_8 C 0.520(2) 0.875(2) 0.630(2)
C7_7 C 0.375(2) 0.870(2) 0.480(2)
N2_8 N 0.563(2) 0.853(2) 0.657(2)
N3_7 N 0.353(2) 0.843(2) 0.437(2)
C8_8 C 0.616(3) 0.883(3) 0.659(2)
C9_8 C 0.558(3) 0.790(3) 0.672(2)
C10_7 C 0.383(3) 0.841(2) 0.384(3)
C11_7 C 0.290(3) 0.828(2) 0.442(3)
C12_8 C 0.658(3) 0.834(3) 0.668(3)
H9_8 H 0.627 0.904 0.624
H10_8 H 0.621 0.910 0.688
C13_8 C 0.622(3) 0.788(3) 0.698(3)
H11_8 H 0.553 0.765 0.641
H12_8 H 0.531 0.782 0.700
C14_7 C 0.334(3) 0.832(3) 0.342(3)
H13_7 H 0.404 0.876 0.373
H14_7 H 0.410 0.812 0.379
C15_7 C 0.288(3) 0.802(3) 0.378(3)
H15_7 H 0.265 0.859 0.447
H16_7 H 0.282 0.800 0.469
H17_8 H 0.670 0.821 0.630
H18_8 H 0.691 0.845 0.687
H19_8 H 0.643 0.751 0.690
H20_8 H 0.626 0.794 0.737
H21_7 H 0.321 0.870 0.330
H22_7 H 0.345 0.813 0.309
H23_7 H 0.251 0.810 0.357
H24_7 H 0.294 0.763 0.374
Rh1_8 Rh 0.9240(2) 0.4240(2) 0.0760(2)
S1_8 S 0.8853(7) 0.4605(7) 0.1601(7)
C1_8 C 0.870(2) 0.520(2) 0.125(2)
N1_8 N 0.843(2) 0.563(2) 0.147(2)
C2_8 C 0.841(2) 0.616(3) 0.117(3)
C3_8 C 0.832(3) 0.658(3) 0.166(3)
C4_8 C 0.802(3) 0.622(3) 0.212(3)
C5_8 C 0.828(2) 0.558(3) 0.210(3)
H1_8 H 0.876 0.627 0.096
H2_8 H 0.812 0.621 0.090
H3_8 H 0.870 0.670 0.179
H4_8 H 0.813 0.691 0.155
H5_8 H 0.810 0.643 0.249
H6_8 H 0.763 0.626 0.206
H7_8 H 0.859 0.553 0.235
H8_8 H 0.800 0.531 0.218
S3_8 S 0.8399(7) 0.3853(7) 0.0395(7)
S4_8 S 0.9605(7) 0.3399(7) 0.1147(7)
S5_8 S 0.8912(7) 0.5163(7) 0.0535(7)
S6_8 S 0.9465(7) 0.3912(7) 0.9837(7)
C7_8 C 0.875(2) 0.370(2) 0.980(2)
N3_8 N 0.853(2) 0.343(2) 0.937(2)
C10_8 C 0.883(3) 0.341(2) 0.884(3)
C11_8 C 0.790(3) 0.328(2) 0.942(3)
C14_8 C 0.834(3) 0.332(3) 0.842(3)
H13_8 H 0.904 0.376 0.873
H14_8 H 0.910 0.312 0.879
C15_8 C 0.788(3) 0.302(3) 0.878(3)
H15_8 H 0.765 0.359 0.947
H16_8 H 0.782 0.300 0.969
H21_8 H 0.821 0.370 0.830
H22_8 H 0.845 0.313 0.809
H23_8 H 0.751 0.310 0.857
H24_8 H 0.794 0.263 0.874
I1_5 I 0.1636(2) 0.2555(2) 0.4696(2)
Cu1_5 Cu 0.2683(3) 0.2730(4) 0.4472(3)
Rh1_9 Rh 0.3260(2) 0.3260(2) 0.3260(2)
S1_9 S 0.2895(7) 0.3647(7) 0.4101(7)
S2_9 S 0.3035(7) 0.2337(7) 0.3588(7)
C1_9 C 0.230(2) 0.380(2) 0.375(2)
N1_9 N 0.187(2) 0.407(2) 0.397(2)
C2_9 C 0.134(3) 0.409(2) 0.367(3)
C3_9 C 0.092(3) 0.418(3) 0.416(3)
C4_9 C 0.128(3) 0.448(3) 0.462(3)
C5_9 C 0.192(3) 0.422(2) 0.460(3)
H1_9 H 0.123 0.374 0.346
H2_9 H 0.129 0.438 0.340
H3_9 H 0.080 0.380 0.429
H4_9 H 0.059 0.437 0.405
H5_9 H 0.107 0.440 0.499
H6_9 H 0.124 0.487 0.456
H7_9 H 0.197 0.391 0.485
H8_9 H 0.219 0.450 0.468
Cu2_5 Cu 0.2317(3) 0.2730(4) 0.5528(3)
I2_5 I 0.3364(2) 0.2555(2) 0.5304(2)
S3_9 S 0.3647(7) 0.4101(7) 0.2895(7)
S4_9 S 0.4101(7) 0.2895(7) 0.3647(7)
S5_9 S 0.2337(7) 0.3588(7) 0.3035(7)
S6_9 S 0.3588(7) 0.3035(7) 0.2337(7)
C6_9 C 0.375(2) 0.230(2) 0.380(2)
Cu3_5 Cu 0.2730(4) 0.4472(3) 0.2683(3)
C7_9 C 0.380(2) 0.375(2) 0.230(2)
Cu4_5 Cu 0.4472(3) 0.2683(3) 0.2730(4)
N2_9 N 0.397(2) 0.187(2) 0.407(2)
I3_5 I 0.2555(2) 0.4696(2) 0.1636(2)
I4_5 I 0.2555(2) 0.5304(2) 0.3364(2)
Cu5_5 Cu 0.2730(4) 0.5528(3) 0.2317(3)
N3_9 N 0.407(2) 0.397(2) 0.187(2)
I5_5 I 0.4696(2) 0.1636(2) 0.2555(2)
I6_5 I 0.5304(2) 0.3364(2) 0.2555(2)
Cu6_5 Cu 0.5528(3) 0.2317(3) 0.2730(4)
C8_9 C 0.367(3) 0.134(3) 0.409(2)
C9_9 C 0.460(3) 0.192(3) 0.422(2)
C10_9 C 0.409(2) 0.367(3) 0.134(3)
C11_9 C 0.422(2) 0.460(3) 0.192(3)
C12_9 C 0.416(3) 0.092(3) 0.418(3)
H9_9 H 0.346 0.123 0.374
H10_9 H 0.340 0.129 0.438
C13_9 C 0.462(3) 0.128(3) 0.448(3)
H11_9 H 0.485 0.197 0.391
H12_9 H 0.468 0.219 0.450
C14_9 C 0.418(3) 0.416(3) 0.092(3)
H13_9 H 0.374 0.346 0.123
H14_9 H 0.438 0.340 0.129
C15_9 C 0.448(3) 0.462(3) 0.128(3)
H15_9 H 0.391 0.485 0.197
H16_9 H 0.450 0.468 0.219
H17_9 H 0.429 0.080 0.380
H18_9 H 0.405 0.059 0.437
H19_9 H 0.499 0.107 0.440
H20_9 H 0.456 0.124 0.487
H21_9 H 0.380 0.429 0.080
H22_9 H 0.437 0.405 0.059
H23_9 H 0.440 0.499 0.107
H24_9 H 0.487 0.456 0.124
I6_6 I 0.0304(2) 0.8364(2) 0.7555(2)
Cu6_6 Cu 0.0528(3) 0.7317(3) 0.7730(4)
I4_6 I 0.7555(2) 0.0304(2) 0.8364(2)
Cu5_6 Cu 0.7730(4) 0.0528(3) 0.7317(3)
Cu2_6 Cu 0.7317(3) 0.7730(4) 0.0528(3)
I2_6 I 0.8364(2) 0.7555(2) 0.0304(2)
I4_7 I 0.7445(2) 0.0304(2) 0.1636(2)
Cu5_7 Cu 0.7270(4) 0.0528(3) 0.2683(3)
Rh1_10 Rh 0.6740(2) 0.8260(2) 0.1740(2)
S1_10 S 0.7105(7) 0.8647(7) 0.0899(7)
S2_10 S 0.6965(7) 0.7337(7) 0.1412(7)
C1_10 C 0.770(2) 0.880(2) 0.125(2)
N1_10 N 0.813(2) 0.907(2) 0.103(2)
C2_10 C 0.866(3) 0.909(2) 0.133(3)
C3_10 C 0.908(3) 0.918(3) 0.084(3)
C4_10 C 0.872(3) 0.948(3) 0.038(3)
C5_10 C 0.808(3) 0.922(2) 0.040(3)
H1_10 H 0.877 0.874 0.154
H2_10 H 0.871 0.938 0.160
H3_10 H 0.920 0.880 0.071
H4_10 H 0.941 0.937 0.095
H5_10 H 0.893 0.940 0.001
H6_10 H 0.876 0.987 0.044
H7_10 H 0.803 0.891 0.015
H8_10 H 0.781 0.950 0.032
S3_10 S 0.6353(7) 0.9101(7) 0.2105(7)
S4_10 S 0.5899(7) 0.7895(7) 0.1353(7)
S5_10 S 0.7663(7) 0.8588(7) 0.1965(7)
S6_10 S 0.6412(7) 0.8035(7) 0.2663(7)
C6_10 C 0.625(2) 0.730(2) 0.120(2)
Cu3_6 Cu 0.7270(4) 0.9472(3) 0.2317(3)
C7_10 C 0.620(2) 0.875(2) 0.270(2)
Cu4_6 Cu 0.5528(3) 0.7683(3) 0.2270(4)
N2_10 N 0.603(2) 0.687(2) 0.093(2)
I3_6 I 0.7445(2) 0.9696(2) 0.3364(2)
N3_10 N 0.593(2) 0.897(2) 0.313(2)
I5_6 I 0.5304(2) 0.6636(2) 0.2445(2)
I6_7 I 0.4696(2) 0.8364(2) 0.2445(2)
Cu6_7 Cu 0.4472(3) 0.7317(3) 0.2270(4)
C8_10 C 0.633(3) 0.634(3) 0.091(2)
C9_10 C 0.540(3) 0.692(3) 0.078(2)
C10_10 C 0.591(2) 0.867(3) 0.366(3)
C11_10 C 0.578(2) 0.960(3) 0.308(3)
C12_10 C 0.584(3) 0.592(3) 0.082(3)
H9_10 H 0.654 0.623 0.126
H10_10 H 0.660 0.629 0.062
C13_10 C 0.538(3) 0.628(3) 0.052(3)
H11_10 H 0.515 0.697 0.109
H12_10 H 0.532 0.719 0.050
C14_10 C 0.582(3) 0.916(3) 0.408(3)
H13_10 H 0.626 0.846 0.377
H14_10 H 0.562 0.840 0.371
C15_10 C 0.552(3) 0.962(3) 0.372(3)
H15_10 H 0.609 0.985 0.303
H16_10 H 0.550 0.968 0.281
H17_10 H 0.571 0.580 0.120
H18_10 H 0.595 0.559 0.063
H19_10 H 0.501 0.607 0.060
H20_10 H 0.544 0.624 0.013
H21_10 H 0.620 0.929 0.420
H22_10 H 0.563 0.905 0.441
H23_10 H 0.560 0.999 0.393
H24_10 H 0.513 0.956 0.376
Rh1_11 Rh 0.1740(2) 0.3260(2) 0.6740(2)
S1_11 S 0.2105(7) 0.3647(7) 0.5899(7)
S2_11 S 0.1965(7) 0.2337(7) 0.6412(7)
C1_11 C 0.270(2) 0.380(2) 0.625(2)
N1_11 N 0.313(2) 0.407(2) 0.603(2)
C2_11 C 0.366(3) 0.409(2) 0.633(3)
C3_11 C 0.408(3) 0.418(3) 0.584(3)
C4_11 C 0.372(3) 0.448(3) 0.538(3)
C5_11 C 0.308(3) 0.422(2) 0.540(3)
H1_11 H 0.377 0.374 0.654
H2_11 H 0.371 0.438 0.660
H3_11 H 0.420 0.380 0.571
H4_11 H 0.441 0.437 0.595
H5_11 H 0.393 0.440 0.501
H6_11 H 0.376 0.487 0.544
H7_11 H 0.303 0.391 0.515
H8_11 H 0.281 0.450 0.532
S3_11 S 0.1353(7) 0.4101(7) 0.7105(7)
S4_11 S 0.0899(7) 0.2895(7) 0.6353(7)
S5_11 S 0.2663(7) 0.3588(7) 0.6965(7)
S6_11 S 0.1412(7) 0.3035(7) 0.7663(7)
C6_11 C 0.125(2) 0.230(2) 0.620(2)
Cu3_7 Cu 0.2270(4) 0.4472(3) 0.7317(3)
C7_11 C 0.120(2) 0.375(2) 0.770(2)
Cu4_7 Cu 0.0528(3) 0.2683(3) 0.7270(4)
N2_11 N 0.103(2) 0.187(2) 0.593(2)
I3_7 I 0.2445(2) 0.4696(2) 0.8364(2)
I4_8 I 0.2445(2) 0.5304(2) 0.6636(2)
Cu5_8 Cu 0.2270(4) 0.5528(3) 0.7683(3)
N3_11 N 0.093(2) 0.397(2) 0.813(2)
I5_7 I 0.0304(2) 0.1636(2) 0.7445(2)
C8_11 C 0.133(3) 0.134(3) 0.591(2)
C9_11 C 0.040(3) 0.192(3) 0.578(2)
C10_11 C 0.091(2) 0.367(3) 0.866(3)
C11_11 C 0.078(2) 0.460(3) 0.808(3)
C12_11 C 0.084(3) 0.092(3) 0.582(3)
H9_11 H 0.154 0.123 0.626
H10_11 H 0.160 0.129 0.562
C13_11 C 0.038(3) 0.128(3) 0.552(3)
H11_11 H 0.015 0.197 0.609
H12_11 H 0.032 0.219 0.550
C14_11 C 0.082(3) 0.416(3) 0.908(3)
H13_11 H 0.126 0.346 0.877
H14_11 H 0.062 0.340 0.871
C15_11 C 0.052(3) 0.462(3) 0.872(3)
H15_11 H 0.109 0.485 0.803
H16_11 H 0.050 0.468 0.781
H17_11 H 0.071 0.080 0.620
H18_11 H 0.095 0.059 0.563
H19_11 H 0.001 0.107 0.560
H20_11 H 0.044 0.124 0.513
H21_11 H 0.120 0.429 0.920
H22_11 H 0.063 0.405 0.941
H23_11 H 0.060 0.499 0.893
H24_11 H 0.013 0.456 0.876
I6_8 I 0.9696(2) 0.3364(2) 0.7445(2)
Cu6_8 Cu 0.9472(3) 0.2317(3) 0.7270(4)
I1_6 I 0.6636(2) 0.2445(2) 0.5304(2)
Cu1_6 Cu 0.7683(3) 0.2270(4) 0.5528(3)
Rh1_12 Rh 0.8260(2) 0.1740(2) 0.6740(2)
S1_12 S 0.7895(7) 0.1353(7) 0.5899(7)
S2_12 S 0.8035(7) 0.2663(7) 0.6412(7)
C1_12 C 0.730(2) 0.120(2) 0.625(2)
N1_12 N 0.687(2) 0.093(2) 0.603(2)
C2_12 C 0.634(3) 0.091(2) 0.633(3)
C3_12 C 0.592(3) 0.082(3) 0.584(3)
C4_12 C 0.628(3) 0.052(3) 0.538(3)
C5_12 C 0.692(3) 0.078(2) 0.540(3)
H1_12 H 0.623 0.126 0.654
H2_12 H 0.629 0.062 0.660
H3_12 H 0.580 0.120 0.571
H4_12 H 0.559 0.063 0.595
H5_12 H 0.607 0.060 0.501
H6_12 H 0.624 0.013 0.544
H7_12 H 0.697 0.109 0.515
H8_12 H 0.719 0.050 0.532
Cu2_7 Cu 0.7317(3) 0.2270(4) 0.4472(3)
I2_7 I 0.8364(2) 0.2445(2) 0.4696(2)
S3_12 S 0.8647(7) 0.0899(7) 0.7105(7)
S4_12 S 0.9101(7) 0.2105(7) 0.6353(7)
S5_12 S 0.7337(7) 0.1412(7) 0.6965(7)
S6_12 S 0.8588(7) 0.1965(7) 0.7663(7)
C6_12 C 0.875(2) 0.270(2) 0.620(2)
C7_12 C 0.880(2) 0.125(2) 0.770(2)
N2_12 N 0.897(2) 0.313(2) 0.593(2)
N3_12 N 0.907(2) 0.103(2) 0.813(2)
C8_12 C 0.867(3) 0.366(3) 0.591(2)
C9_12 C 0.960(3) 0.308(3) 0.578(2)
C10_12 C 0.909(2) 0.133(3) 0.866(3)
C11_12 C 0.922(2) 0.040(3) 0.808(3)
C12_12 C 0.916(3) 0.408(3) 0.582(3)
H9_12 H 0.846 0.377 0.626
H10_12 H 0.840 0.371 0.562
C13_12 C 0.962(3) 0.372(3) 0.552(3)
H11_12 H 0.985 0.303 0.609
H12_12 H 0.968 0.281 0.550
C14_12 C 0.918(3) 0.084(3) 0.908(3)
H13_12 H 0.874 0.154 0.877
H14_12 H 0.938 0.160 0.871
C15_12 C 0.948(3) 0.038(3) 0.872(3)
H15_12 H 0.891 0.015 0.803
H16_12 H 0.950 0.032 0.781
H17_12 H 0.929 0.420 0.620
H18_12 H 0.905 0.441 0.563
H19_12 H 0.999 0.393 0.560
H20_12 H 0.956 0.376 0.513
H21_12 H 0.880 0.071 0.920
H22_12 H 0.937 0.095 0.941
H23_12 H 0.940 0.001 0.893
H24_12 H 0.987 0.044 0.876
I1_7 I 0.1636(2) 0.7445(2) 0.0304(2)
Cu1_7 Cu 0.2683(3) 0.7270(4) 0.0528(3)
Rh1_13 Rh 0.3260(2) 0.6740(2) 0.1740(2)
S1_13 S 0.2895(7) 0.6353(7) 0.0899(7)
S2_13 S 0.3035(7) 0.7663(7) 0.1412(7)
C1_13 C 0.230(2) 0.620(2) 0.125(2)
N1_13 N 0.187(2) 0.593(2) 0.103(2)
C2_13 C 0.134(3) 0.591(2) 0.133(3)
C3_13 C 0.092(3) 0.582(3) 0.084(3)
C4_13 C 0.128(3) 0.552(3) 0.038(3)
C5_13 C 0.192(3) 0.578(2) 0.040(3)
H1_13 H 0.123 0.626 0.154
H2_13 H 0.129 0.562 0.160
H3_13 H 0.080 0.620 0.071
H4_13 H 0.059 0.563 0.095
H5_13 H 0.107 0.560 0.001
H6_13 H 0.124 0.513 0.044
H7_13 H 0.197 0.609 0.015
H8_13 H 0.219 0.550 0.032
S3_13 S 0.3647(7) 0.5899(7) 0.2105(7)
S4_13 S 0.4101(7) 0.7105(7) 0.1353(7)
S5_13 S 0.2337(7) 0.6412(7) 0.1965(7)
S6_13 S 0.3588(7) 0.6965(7) 0.2663(7)
C6_13 C 0.375(2) 0.770(2) 0.120(2)
C7_13 C 0.380(2) 0.625(2) 0.270(2)
N2_13 N 0.397(2) 0.813(2) 0.093(2)
N3_13 N 0.407(2) 0.603(2) 0.313(2)
C8_13 C 0.367(3) 0.866(3) 0.091(2)
C9_13 C 0.460(3) 0.808(3) 0.078(2)
C10_13 C 0.409(2) 0.633(3) 0.366(3)
C11_13 C 0.422(2) 0.540(3) 0.308(3)
C12_13 C 0.416(3) 0.908(3) 0.082(3)
H9_13 H 0.346 0.877 0.126
H10_13 H 0.340 0.871 0.062
C13_13 C 0.462(3) 0.872(3) 0.052(3)
H11_13 H 0.485 0.803 0.109
H12_13 H 0.468 0.781 0.050
C14_13 C 0.418(3) 0.584(3) 0.408(3)
H13_13 H 0.374 0.654 0.377
H14_13 H 0.438 0.660 0.371
C15_13 C 0.448(3) 0.538(3) 0.372(3)
H15_13 H 0.391 0.515 0.303
H16_13 H 0.450 0.532 0.281
H17_13 H 0.429 0.920 0.120
H18_13 H 0.405 0.941 0.063
H19_13 H 0.499 0.893 0.060
H20_13 H 0.456 0.876 0.013
H21_13 H 0.380 0.571 0.420
H22_13 H 0.437 0.595 0.441
H23_13 H 0.440 0.501 0.393
H24_13 H 0.487 0.544 0.376
Cu2_8 Cu 0.2317(3) 0.7270(4) 0.9472(3)
I2_8 I 0.3364(2) 0.7445(2) 0.9696(2)
Rh1_14 Rh 0.1740(2) 0.6740(2) 0.8260(2)
S1_14 S 0.2105(7) 0.6353(7) 0.9101(7)
S2_14 S 0.1965(7) 0.7663(7) 0.8588(7)
C1_14 C 0.270(2) 0.620(2) 0.875(2)
N1_14 N 0.313(2) 0.593(2) 0.897(2)
C2_14 C 0.366(3) 0.591(2) 0.867(3)
C3_14 C 0.408(3) 0.582(3) 0.916(3)
C4_14 C 0.372(3) 0.552(3) 0.962(3)
C5_14 C 0.308(3) 0.578(2) 0.960(3)
H1_14 H 0.377 0.626 0.846
H2_14 H 0.371 0.562 0.840
H3_14 H 0.420 0.620 0.929
H4_14 H 0.441 0.563 0.905
H5_14 H 0.393 0.560 0.999
H6_14 H 0.376 0.513 0.956
H7_14 H 0.303 0.609 0.985
H8_14 H 0.281 0.550 0.968
S3_14 S 0.1353(7) 0.5899(7) 0.7895(7)
S4_14 S 0.0899(7) 0.7105(7) 0.8647(7)
S5_14 S 0.2663(7) 0.6412(7) 0.8035(7)
S6_14 S 0.1412(7) 0.6965(7) 0.7337(7)
C6_14 C 0.125(2) 0.770(2) 0.880(2)
C7_14 C 0.120(2) 0.625(2) 0.730(2)
N2_14 N 0.103(2) 0.813(2) 0.907(2)
N3_14 N 0.093(2) 0.603(2) 0.687(2)
C8_14 C 0.133(3) 0.866(3) 0.909(2)
C9_14 C 0.040(3) 0.808(3) 0.922(2)
C10_14 C 0.091(2) 0.633(3) 0.634(3)
C11_14 C 0.078(2) 0.540(3) 0.692(3)
C12_14 C 0.084(3) 0.908(3) 0.918(3)
H9_14 H 0.154 0.877 0.874
H10_14 H 0.160 0.871 0.938
C13_14 C 0.038(3) 0.872(3) 0.948(3)
H11_14 H 0.015 0.803 0.891
H12_14 H 0.032 0.781 0.950
C14_14 C 0.082(3) 0.584(3) 0.592(3)
H13_14 H 0.126 0.654 0.623
H14_14 H 0.062 0.660 0.629
C15_14 C 0.052(3) 0.538(3) 0.628(3)
H15_14 H 0.109 0.515 0.697
H16_14 H 0.050 0.532 0.719
H17_14 H 0.071 0.920 0.880
H18_14 H 0.095 0.941 0.937
H19_14 H 0.001 0.893 0.940
H20_14 H 0.044 0.876 0.987
H21_14 H 0.120 0.571 0.580
H22_14 H 0.063 0.595 0.559
H23_14 H 0.060 0.501 0.607
H24_14 H 0.013 0.544 0.624
Rh1_15 Rh 0.6740(2) 0.1740(2) 0.3260(2)
S1_15 S 0.7105(7) 0.1353(7) 0.4101(7)
S2_15 S 0.6965(7) 0.2663(7) 0.3588(7)
C1_15 C 0.770(2) 0.120(2) 0.375(2)
N1_15 N 0.813(2) 0.093(2) 0.397(2)
C2_15 C 0.866(3) 0.091(2) 0.367(3)
C3_15 C 0.908(3) 0.082(3) 0.416(3)
C4_15 C 0.872(3) 0.052(3) 0.462(3)
C5_15 C 0.808(3) 0.078(2) 0.460(3)
H1_15 H 0.877 0.126 0.346
H2_15 H 0.871 0.062 0.340
H3_15 H 0.920 0.120 0.429
H4_15 H 0.941 0.063 0.405
H5_15 H 0.893 0.060 0.499
H6_15 H 0.876 0.013 0.456
H7_15 H 0.803 0.109 0.485
H8_15 H 0.781 0.050 0.468
S3_15 S 0.6353(7) 0.0899(7) 0.2895(7)
S4_15 S 0.5899(7) 0.2105(7) 0.3647(7)
S5_15 S 0.7663(7) 0.1412(7) 0.3035(7)
S6_15 S 0.6412(7) 0.1965(7) 0.2337(7)
C6_15 C 0.625(2) 0.270(2) 0.380(2)
C7_15 C 0.620(2) 0.125(2) 0.230(2)
N2_15 N 0.603(2) 0.313(2) 0.407(2)
N3_15 N 0.593(2) 0.103(2) 0.187(2)
C8_15 C 0.633(3) 0.366(3) 0.409(2)
C9_15 C 0.540(3) 0.308(3) 0.422(2)
C10_15 C 0.591(2) 0.133(3) 0.134(3)
C11_15 C 0.578(2) 0.040(3) 0.192(3)
C12_15 C 0.584(3) 0.408(3) 0.418(3)
H9_15 H 0.654 0.377 0.374
H10_15 H 0.660 0.371 0.438
C13_15 C 0.538(3) 0.372(3) 0.448(3)
H11_15 H 0.515 0.303 0.391
H12_15 H 0.532 0.281 0.450
C14_15 C 0.582(3) 0.084(3) 0.092(3)
H13_15 H 0.626 0.154 0.123
H14_15 H 0.562 0.160 0.129
C15_15 C 0.552(3) 0.038(3) 0.128(3)
H15_15 H 0.609 0.015 0.197
H16_15 H 0.550 0.032 0.219
H17_15 H 0.571 0.420 0.380
H18_15 H 0.595 0.441 0.437
H19_15 H 0.501 0.393 0.440
H20_15 H 0.544 0.376 0.487
H21_15 H 0.620 0.071 0.080
H22_15 H 0.563 0.095 0.059
H23_15 H 0.560 0.001 0.107
H24_15 H 0.513 0.044 0.124
I1_8 I 0.6636(2) 0.7555(2) 0.9696(2)
Cu1_8 Cu 0.7683(3) 0.7730(4) 0.9472(3)
Rh1_16 Rh 0.8260(2) 0.8260(2) 0.8260(2)
S1_16 S 0.7895(7) 0.8647(7) 0.9101(7)
S2_16 S 0.8035(7) 0.7337(7) 0.8588(7)
C1_16 C 0.730(2) 0.880(2) 0.875(2)
N1_16 N 0.687(2) 0.907(2) 0.897(2)
C2_16 C 0.634(3) 0.909(2) 0.867(3)
C3_16 C 0.592(3) 0.918(3) 0.916(3)
C4_16 C 0.628(3) 0.948(3) 0.962(3)
C5_16 C 0.692(3) 0.922(2) 0.960(3)
H1_16 H 0.623 0.874 0.846
H2_16 H 0.629 0.938 0.840
H3_16 H 0.580 0.880 0.929
H4_16 H 0.559 0.937 0.905
H5_16 H 0.607 0.940 0.999
H6_16 H 0.624 0.987 0.956
H7_16 H 0.697 0.891 0.985
H8_16 H 0.719 0.950 0.968
S3_16 S 0.8647(7) 0.9101(7) 0.7895(7)
S4_16 S 0.9101(7) 0.7895(7) 0.8647(7)
S5_16 S 0.7337(7) 0.8588(7) 0.8035(7)
S6_16 S 0.8588(7) 0.8035(7) 0.7337(7)
C6_16 C 0.875(2) 0.730(2) 0.880(2)
Cu3_8 Cu 0.7730(4) 0.9472(3) 0.7683(3)
C7_16 C 0.880(2) 0.875(2) 0.730(2)
Cu4_8 Cu 0.9472(3) 0.7683(3) 0.7730(4)
N2_16 N 0.897(2) 0.687(2) 0.907(2)
I3_8 I 0.7555(2) 0.9696(2) 0.6636(2)
N3_16 N 0.907(2) 0.897(2) 0.687(2)
I5_8 I 0.9696(2) 0.6636(2) 0.7555(2)
C8_16 C 0.867(3) 0.634(3) 0.909(2)
C9_16 C 0.960(3) 0.692(3) 0.922(2)
C10_16 C 0.909(2) 0.867(3) 0.634(3)
C11_16 C 0.922(2) 0.960(3) 0.692(3)
C12_16 C 0.916(3) 0.592(3) 0.918(3)
H9_16 H 0.846 0.623 0.874
H10_16 H 0.840 0.629 0.938
C13_16 C 0.962(3) 0.628(3) 0.948(3)
H11_16 H 0.985 0.697 0.891
H12_16 H 0.968 0.719 0.950
C14_16 C 0.918(3) 0.916(3) 0.592(3)
H13_16 H 0.874 0.846 0.623
H14_16 H 0.938 0.840 0.629
C15_16 C 0.948(3) 0.962(3) 0.628(3)
H15_16 H 0.891 0.985 0.697
H16_16 H 0.950 0.968 0.719
H17_16 H 0.929 0.580 0.880
H18_16 H 0.905 0.559 0.937
H19_16 H 0.999 0.607 0.940
H20_16 H 0.956 0.624 0.987
H21_16 H 0.880 0.929 0.580
H22_16 H 0.937 0.905 0.559
H23_16 H 0.940 0.999 0.607
H24_16 H 0.987 0.956 0.624
loop_
_geom_bond_atom_site_label_1
_geom_bond_atom_site_label_2
_geom_bond_site_symmetry_1
_geom_bond_site_symmetry_2
Cu1 S1 1_555 1_555
Rh1 S1 1_555 1_555
I2 Cu1 1_555 1_555
S3 Rh1 1_555 1_555
S4 Rh1 1_555 1_555
Cu3 S3 1_555 1_555
Cu4 S4 1_555 1_555
I4 Cu3 1_555 1_555
I6 Cu4 1_555 1_555
C1 N1 1_555 1_555
N1 C2 1_555 1_555
C2 C3 1_555 1_555
C3 C4 1_555 1_555
C4 C5 1_555 1_555
C5 N1 1_555 1_555
H1 C2 1_555 1_555
H2 C2 1_555 1_555
H3 C3 1_555 1_555
H4 C3 1_555 1_555
H5 C4 1_555 1_555
H6 C4 1_555 1_555
H7 C5 1_555 1_555
H8 C5 1_555 1_555
C1 S5 1_555 1_555
N3 C7 1_555 1_555
C10 N3 1_555 1_555
C11 N3 1_555 1_555
C14 C10 1_555 1_555
H13 C10 1_555 1_555
H14 C10 1_555 1_555
C15 C11 1_555 1_555
H15 C11 1_555 1_555
H16 C11 1_555 1_555
H21 C14 1_555 1_555
H22 C14 1_555 1_555
H23 C15 1_555 1_555
H24 C15 1_555 1_555
S6 C7 1_555 1_555
C14 C15 1_555 1_555
C6 S2 1_555 1_555
N2 C6 1_555 1_555
C8 N2 1_555 1_555
C9 N2 1_555 1_555
C12 C8 1_555 1_555
H9 C8 1_555 1_555
H10 C8 1_555 1_555
C13 C9 1_555 1_555
H11 C9 1_555 1_555
H12 C9 1_555 1_555
H17 C12 1_555 1_555
H18 C12 1_555 1_555
H19 C13 1_555 1_555
H20 C13 1_555 1_555
C12 C13 1_555 1_555
N3_2 C7_2 1_555 1_555
C10_2 N3_2 1_555 1_555
C11_2 N3_2 1_555 1_555
C14_2 C10_2 1_555 1_555
H13_2 C10_2 1_555 1_555
H14_2 C10_2 1_555 1_555
C15_2 C11_2 1_555 1_555
H15_2 C11_2 1_555 1_555
H16_2 C11_2 1_555 1_555
H21_2 C14_2 1_555 1_555
H22_2 C14_2 1_555 1_555
H23_2 C15_2 1_555 1_555
H24_2 C15_2 1_555 1_555
S6_2 C7_2 1_555 1_555
I3 Cu5 1_555 1_555
C14_2 C15_2 1_555 1_555
C1_2 N1_2 1_555 1_555
N1_2 C2_2 1_555 1_555
C2_2 C3_2 1_555 1_555
C3_2 C4_2 1_555 1_555
C4_2 C5_2 1_555 1_555
C5_2 N1_2 1_555 1_555
H1_2 C2_2 1_555 1_555
H2_2 C2_2 1_555 1_555
H3_2 C3_2 1_555 1_555
H4_2 C3_2 1_555 1_555
H5_2 C4_2 1_555 1_555
H6_2 C4_2 1_555 1_555
H7_2 C5_2 1_555 1_555
H8_2 C5_2 1_555 1_555
Cu2 I1 1_555 1_555
C1_2 S5_2 1_555 1_555
C6_2 S2_2 1_555 1_555
N2_2 C6_2 1_555 1_555
C8_2 N2_2 1_555 1_555
C9_2 N2_2 1_555 1_555
C12_2 C8_2 1_555 1_555
H9_2 C8_2 1_555 1_555
H10_2 C8_2 1_555 1_555
C13_2 C9_2 1_555 1_555
H11_2 C9_2 1_555 1_555
H12_2 C9_2 1_555 1_555
H17_2 C12_2 1_555 1_555
H18_2 C12_2 1_555 1_555
H19_2 C13_2 1_555 1_555
H20_2 C13_2 1_555 1_555
I5 Cu6 1_555 1_555
C12_2 C13_2 1_555 1_555
I1_2 Cu1_2 1_555 1_555
Cu1_2 S1_2 1_555 1_555
Rh1_2 S1_2 1_555 1_555
S1_2 C1_3 1_555 1_555
S2_3 Cu1_2 1_555 1_555
C1_3 N1_3 1_555 1_555
N1_3 C2_3 1_555 1_555
C2_3 C3_3 1_555 1_555
C3_3 C4_3 1_555 1_555
C4_3 C5_3 1_555 1_555
C5_3 N1_3 1_555 1_555
H1_3 C2_3 1_555 1_555
H2_3 C2_3 1_555 1_555
H3_3 C3_3 1_555 1_555
H4_3 C3_3 1_555 1_555
H5_3 C4_3 1_555 1_555
H6_3 C4_3 1_555 1_555
H7_3 C5_3 1_555 1_555
H8_3 C5_3 1_555 1_555
Cu2_2 I1_2 1_555 1_555
I2_2 Cu1_2 1_555 1_555
S3_2 Rh1_2 1_555 1_555
S4_2 Rh1_2 1_555 1_555
S5_3 Rh1_2 1_555 1_555
S6_3 Rh1_2 1_555 1_555
C6_3 S2_3 1_555 1_555
Cu3_2 S3_2 1_555 1_555
C7_3 S3_2 1_555 1_555
Cu4_2 S4_2 1_555 1_555
N2_3 C6_3 1_555 1_555
I3_2 Cu3_2 1_555 1_555
I4_2 Cu3_2 1_555 1_555
Cu5_2 Cu3_2 1_555 1_555
N3_3 C7_3 1_555 1_555
I5_2 Cu4_2 1_555 1_555
I6_2 Cu4_2 1_555 1_555
Cu6_2 Cu4_2 1_555 1_555
C8_3 N2_3 1_555 1_555
C9_3 N2_3 1_555 1_555
C10_3 N3_3 1_555 1_555
C11_3 N3_3 1_555 1_555
C12_3 C8_3 1_555 1_555
H9_3 C8_3 1_555 1_555
H10_3 C8_3 1_555 1_555
C13_3 C9_3 1_555 1_555
H11_3 C9_3 1_555 1_555
H12_3 C9_3 1_555 1_555
C14_3 C10_3 1_555 1_555
H13_3 C10_3 1_555 1_555
H14_3 C10_3 1_555 1_555
C15_3 C11_3 1_555 1_555
H15_3 C11_3 1_555 1_555
H16_3 C11_3 1_555 1_555
H17_3 C12_3 1_555 1_555
H18_3 C12_3 1_555 1_555
H19_3 C13_3 1_555 1_555
H20_3 C13_3 1_555 1_555
H21_3 C14_3 1_555 1_555
H22_3 C14_3 1_555 1_555
H23_3 C15_3 1_555 1_555
H24_3 C15_3 1_555 1_555
Cu1_2 Cu2_2 1_555 1_555
Rh1_2 S2_3 1_555 1_555
C1_3 S5_3 1_555 1_555
Cu2_2 I2_2 1_555 1_555
S4_2 C6_3 1_555 1_555
S5_3 Cu3_2 1_555 1_555
S6_3 C7_3 1_555 1_555
S6_3 Cu4_2 1_555 1_555
I3_2 Cu5_2 1_555 1_555
I4_2 Cu5_2 1_555 1_555
I5_2 Cu6_2 1_555 1_555
I6_2 Cu6_2 1_555 1_555
C12_3 C13_3 1_555 1_555
C14_3 C15_3 1_555 1_555
N3_4 C7_4 1_555 1_555
C10_4 N3_4 1_555 1_555
C11_4 N3_4 1_555 1_555
C14_4 C10_4 1_555 1_555
H13_4 C10_4 1_555 1_555
H14_4 C10_4 1_555 1_555
C15_4 C11_4 1_555 1_555
H15_4 C11_4 1_555 1_555
H16_4 C11_4 1_555 1_555
H21_4 C14_4 1_555 1_555
H22_4 C14_4 1_555 1_555
H23_4 C15_4 1_555 1_555
H24_4 C15_4 1_555 1_555
S6_4 C7_4 1_555 1_555
I3_3 Cu5_3 1_555 1_555
C14_4 C15_4 1_555 1_555
Cu2_2 S1_3 1_555 1_555
Rh1_3 S1_3 1_555 1_555
S1_3 C1_4 1_555 1_555
S2_4 Cu2_2 1_555 1_555
C1_4 N1_4 1_555 1_555
N1_4 C2_4 1_555 1_555
C2_4 C3_4 1_555 1_555
C3_4 C4_4 1_555 1_555
C4_4 C5_4 1_555 1_555
C5_4 N1_4 1_555 1_555
H1_4 C2_4 1_555 1_555
H2_4 C2_4 1_555 1_555
H3_4 C3_4 1_555 1_555
H4_4 C3_4 1_555 1_555
H5_4 C4_4 1_555 1_555
H6_4 C4_4 1_555 1_555
H7_4 C5_4 1_555 1_555
H8_4 C5_4 1_555 1_555
S3_3 Rh1_3 1_555 1_555
S4_3 Rh1_3 1_555 1_555
S5_4 Rh1_3 1_555 1_555
C6_4 S2_4 1_555 1_555
Cu3_3 S3_3 1_555 1_555
Cu4_3 S4_3 1_555 1_555
N2_4 C6_4 1_555 1_555
I4_3 Cu3_3 1_555 1_555
I5_3 Cu4_3 1_555 1_555
I6_3 Cu4_3 1_555 1_555
Cu6_3 Cu4_3 1_555 1_555
C8_4 N2_4 1_555 1_555
C9_4 N2_4 1_555 1_555
C12_4 C8_4 1_555 1_555
H9_4 C8_4 1_555 1_555
H10_4 C8_4 1_555 1_555
C13_4 C9_4 1_555 1_555
H11_4 C9_4 1_555 1_555
H12_4 C9_4 1_555 1_555
H17_4 C12_4 1_555 1_555
H18_4 C12_4 1_555 1_555
H19_4 C13_4 1_555 1_555
H20_4 C13_4 1_555 1_555
Rh1_3 S2_4 1_555 1_555
C1_4 S5_4 1_555 1_555
S4_3 C6_4 1_555 1_555
S5_4 Cu3_3 1_555 1_555
I5_3 Cu6_3 1_555 1_555
I6_3 Cu6_3 1_555 1_555
C12_4 C13_4 1_555 1_555
Cu2 S1_4 1_555 1_555
Rh1_4 S1_4 1_555 1_555
S3_4 Rh1_4 1_555 1_555
S4_4 Rh1_4 1_555 1_555
S6_5 Rh1_4 1_555 1_555
Cu3_4 S3_4 1_555 1_555
C7_5 S3_4 1_555 1_555
Cu4_4 S4_4 1_555 1_555
I3_4 Cu3_4 1_555 1_555
I4_4 Cu3_4 1_555 1_555
Cu5_4 Cu3_4 1_555 1_555
N3_5 C7_5 1_555 1_555
I6_4 Cu4_4 1_555 1_555
C10_5 N3_5 1_555 1_555
C11_5 N3_5 1_555 1_555
C14_5 C10_5 1_555 1_555
H13_5 C10_5 1_555 1_555
H14_5 C10_5 1_555 1_555
C15_5 C11_5 1_555 1_555
H15_5 C11_5 1_555 1_555
H16_5 C11_5 1_555 1_555
H21_5 C14_5 1_555 1_555
H22_5 C14_5 1_555 1_555
H23_5 C15_5 1_555 1_555
H24_5 C15_5 1_555 1_555
S6_5 C7_5 1_555 1_555
S6_5 Cu4_4 1_555 1_555
I3_4 Cu5_4 1_555 1_555
I4_4 Cu5_4 1_555 1_555
C14_5 C15_5 1_555 1_555
C6_5 S2_5 1_555 1_555
N2_5 C6_5 1_555 1_555
C8_5 N2_5 1_555 1_555
C9_5 N2_5 1_555 1_555
C12_5 C8_5 1_555 1_555
H9_5 C8_5 1_555 1_555
H10_5 C8_5 1_555 1_555
C13_5 C9_5 1_555 1_555
H11_5 C9_5 1_555 1_555
H12_5 C9_5 1_555 1_555
H17_5 C12_5 1_555 1_555
H18_5 C12_5 1_555 1_555
H19_5 C13_5 1_555 1_555
H20_5 C13_5 1_555 1_555
I5_4 Cu6_4 1_555 1_555
C12_5 C13_5 1_555 1_555
C6_6 S2_6 1_555 1_555
N2_6 C6_6 1_555 1_555
C8_6 N2_6 1_555 1_555
C9_6 N2_6 1_555 1_555
C12_6 C8_6 1_555 1_555
H9_6 C8_6 1_555 1_555
H10_6 C8_6 1_555 1_555
C13_6 C9_6 1_555 1_555
H11_6 C9_6 1_555 1_555
H12_6 C9_6 1_555 1_555
H17_6 C12_6 1_555 1_555
H18_6 C12_6 1_555 1_555
H19_6 C13_6 1_555 1_555
H20_6 C13_6 1_555 1_555
C12_6 C13_6 1_555 1_555
I1_3 Cu1_3 1_555 1_555
Cu1_3 S1_5 1_555 1_555
Rh1_5 S1_5 1_555 1_555
S1_5 C1_5 1_555 1_555
C1_5 N1_5 1_555 1_555
N1_5 C2_5 1_555 1_555
C2_5 C3_5 1_555 1_555
C3_5 C4_5 1_555 1_555
C4_5 C5_5 1_555 1_555
C5_5 N1_5 1_555 1_555
H1_5 C2_5 1_555 1_555
H2_5 C2_5 1_555 1_555
H3_5 C3_5 1_555 1_555
H4_5 C3_5 1_555 1_555
H5_5 C4_5 1_555 1_555
H6_5 C4_5 1_555 1_555
H7_5 C5_5 1_555 1_555
H8_5 C5_5 1_555 1_555
Cu2_3 I1_3 1_555 1_555
I2_3 Cu1_3 1_555 1_555
S3_5 Rh1_5 1_555 1_555
S4_5 Rh1_5 1_555 1_555
S5_5 Rh1_5 1_555 1_555
S6_6 Rh1_5 1_555 1_555
Cu5_2 S3_5 1_555 1_555
C7_6 S3_5 1_555 1_555
Cu6_4 S4_5 1_555 1_555
N3_6 C7_6 1_555 1_555
C10_6 N3_6 1_555 1_555
C11_6 N3_6 1_555 1_555
C14_6 C10_6 1_555 1_555
H13_6 C10_6 1_555 1_555
H14_6 C10_6 1_555 1_555
C15_6 C11_6 1_555 1_555
H15_6 C11_6 1_555 1_555
H16_6 C11_6 1_555 1_555
H21_6 C14_6 1_555 1_555
H22_6 C14_6 1_555 1_555
H23_6 C15_6 1_555 1_555
H24_6 C15_6 1_555 1_555
Cu1_3 Cu2_3 1_555 1_555
C1_5 S5_5 1_555 1_555
Cu2_3 I2_3 1_555 1_555
S5_5 Cu5_2 1_555 1_555
S6_6 C7_6 1_555 1_555
S6_6 Cu6_4 1_555 1_555
C14_6 C15_6 1_555 1_555
Cu1_4 S1_6 1_555 1_555
Rh1_6 S1_6 1_555 1_555
S2_7 Cu1_4 1_555 1_555
I2_4 Cu1_4 1_555 1_555
S3_6 Rh1_6 1_555 1_555
S4_6 Rh1_6 1_555 1_555
C6_7 S2_7 1_555 1_555
Cu5 S3_6 1_555 1_555
Cu6_3 S4_6 1_555 1_555
N2_7 C6_7 1_555 1_555
C8_7 N2_7 1_555 1_555
C9_7 N2_7 1_555 1_555
C12_7 C8_7 1_555 1_555
H9_7 C8_7 1_555 1_555
H10_7 C8_7 1_555 1_555
C13_7 C9_7 1_555 1_555
H11_7 C9_7 1_555 1_555
H12_7 C9_7 1_555 1_555
H17_7 C12_7 1_555 1_555
H18_7 C12_7 1_555 1_555
H19_7 C13_7 1_555 1_555
H20_7 C13_7 1_555 1_555
Rh1_6 S2_7 1_555 1_555
S4_6 C6_7 1_555 1_555
C12_7 C13_7 1_555 1_555
C1_6 N1_6 1_555 1_555
N1_6 C2_6 1_555 1_555
C2_6 C3_6 1_555 1_555
C3_6 C4_6 1_555 1_555
C4_6 C5_6 1_555 1_555
C5_6 N1_6 1_555 1_555
H1_6 C2_6 1_555 1_555
H2_6 C2_6 1_555 1_555
H3_6 C3_6 1_555 1_555
H4_6 C3_6 1_555 1_555
H5_6 C4_6 1_555 1_555
H6_6 C4_6 1_555 1_555
H7_6 C5_6 1_555 1_555
H8_6 C5_6 1_555 1_555
Cu2_4 I1_4 1_555 1_555
C1_6 S5_6 1_555 1_555
C1_7 N1_7 1_555 1_555
N1_7 C2_7 1_555 1_555
C2_7 C3_7 1_555 1_555
C3_7 C4_7 1_555 1_555
C4_7 C5_7 1_555 1_555
C5_7 N1_7 1_555 1_555
H1_7 C2_7 1_555 1_555
H2_7 C2_7 1_555 1_555
H3_7 C3_7 1_555 1_555
H4_7 C3_7 1_555 1_555
H5_7 C4_7 1_555 1_555
H6_7 C4_7 1_555 1_555
H7_7 C5_7 1_555 1_555
H8_7 C5_7 1_555 1_555
C1_7 S5_7 1_555 1_555
Cu2_4 S1_7 1_555 1_555
Rh1_7 S1_7 1_555 1_555
S2_8 Cu2_4 1_555 1_555
S3_7 Rh1_7 1_555 1_555
S4_7 Rh1_7 1_555 1_555
S6_7 Rh1_7 1_555 1_555
C6_8 S2_8 1_555 1_555
Cu5_4 S3_7 1_555 1_555
C7_7 S3_7 1_555 1_555
Cu6_2 S4_7 1_555 1_555
N2_8 C6_8 1_555 1_555
N3_7 C7_7 1_555 1_555
C8_8 N2_8 1_555 1_555
C9_8 N2_8 1_555 1_555
C10_7 N3_7 1_555 1_555
C11_7 N3_7 1_555 1_555
C12_8 C8_8 1_555 1_555
H9_8 C8_8 1_555 1_555
H10_8 C8_8 1_555 1_555
C13_8 C9_8 1_555 1_555
H11_8 C9_8 1_555 1_555
H12_8 C9_8 1_555 1_555
C14_7 C10_7 1_555 1_555
H13_7 C10_7 1_555 1_555
H14_7 C10_7 1_555 1_555
C15_7 C11_7 1_555 1_555
H15_7 C11_7 1_555 1_555
H16_7 C11_7 1_555 1_555
H17_8 C12_8 1_555 1_555
H18_8 C12_8 1_555 1_555
H19_8 C13_8 1_555 1_555
H20_8 C13_8 1_555 1_555
H21_7 C14_7 1_555 1_555
H22_7 C14_7 1_555 1_555
H23_7 C15_7 1_555 1_555
H24_7 C15_7 1_555 1_555
Rh1_7 S2_8 1_555 1_555
S4_7 C6_8 1_555 1_555
S6_7 C7_7 1_555 1_555
S6_7 Cu6_2 1_555 1_555
C12_8 C13_8 1_555 1_555
C14_7 C15_7 1_555 1_555
Cu2_3 S1_8 1_555 1_555
Rh1_8 S1_8 1_555 1_555
S1_8 C1_8 1_555 1_555
C1_8 N1_8 1_555 1_555
N1_8 C2_8 1_555 1_555
C2_8 C3_8 1_555 1_555
C3_8 C4_8 1_555 1_555
C4_8 C5_8 1_555 1_555
C5_8 N1_8 1_555 1_555
H1_8 C2_8 1_555 1_555
H2_8 C2_8 1_555 1_555
H3_8 C3_8 1_555 1_555
H4_8 C3_8 1_555 1_555
H5_8 C4_8 1_555 1_555
H6_8 C4_8 1_555 1_555
H7_8 C5_8 1_555 1_555
H8_8 C5_8 1_555 1_555
S3_8 Rh1_8 1_555 1_555
S4_8 Rh1_8 1_555 1_555
S5_8 Rh1_8 1_555 1_555
Cu5_3 S3_8 1_555 1_555
Cu6 S4_8 1_555 1_555
C1_8 S5_8 1_555 1_555
S5_8 Cu5_3 1_555 1_555
N3_8 C7_8 1_555 1_555
C10_8 N3_8 1_555 1_555
C11_8 N3_8 1_555 1_555
C14_8 C10_8 1_555 1_555
H13_8 C10_8 1_555 1_555
H14_8 C10_8 1_555 1_555
C15_8 C11_8 1_555 1_555
H15_8 C11_8 1_555 1_555
H16_8 C11_8 1_555 1_555
H21_8 C14_8 1_555 1_555
H22_8 C14_8 1_555 1_555
H23_8 C15_8 1_555 1_555
H24_8 C15_8 1_555 1_555
S6_8 C7_8 1_555 1_555
C14_8 C15_8 1_555 1_555
I1_5 Cu1_5 1_555 1_555
Cu1_5 S1_9 1_555 1_555
Rh1_9 S1_9 1_555 1_555
S1_9 C1_9 1_555 1_555
S2_9 Cu1_5 1_555 1_555
C1_9 N1_9 1_555 1_555
N1_9 C2_9 1_555 1_555
C2_9 C3_9 1_555 1_555
C3_9 C4_9 1_555 1_555
C4_9 C5_9 1_555 1_555
C5_9 N1_9 1_555 1_555
H1_9 C2_9 1_555 1_555
H2_9 C2_9 1_555 1_555
H3_9 C3_9 1_555 1_555
H4_9 C3_9 1_555 1_555
H5_9 C4_9 1_555 1_555
H6_9 C4_9 1_555 1_555
H7_9 C5_9 1_555 1_555
H8_9 C5_9 1_555 1_555
Cu2_5 I1_5 1_555 1_555
I2_5 Cu1_5 1_555 1_555
S3_9 Rh1_9 1_555 1_555
S4_9 Rh1_9 1_555 1_555
S5_9 Rh1_9 1_555 1_555
S6_9 Rh1_9 1_555 1_555
C6_9 S2_9 1_555 1_555
Cu3_5 S3_9 1_555 1_555
C7_9 S3_9 1_555 1_555
Cu4_5 S4_9 1_555 1_555
N2_9 C6_9 1_555 1_555
I3_5 Cu3_5 1_555 1_555
I4_5 Cu3_5 1_555 1_555
Cu5_5 Cu3_5 1_555 1_555
N3_9 C7_9 1_555 1_555
I5_5 Cu4_5 1_555 1_555
I6_5 Cu4_5 1_555 1_555
Cu6_5 Cu4_5 1_555 1_555
C8_9 N2_9 1_555 1_555
C9_9 N2_9 1_555 1_555
C10_9 N3_9 1_555 1_555
C11_9 N3_9 1_555 1_555
C12_9 C8_9 1_555 1_555
H9_9 C8_9 1_555 1_555
H10_9 C8_9 1_555 1_555
C13_9 C9_9 1_555 1_555
H11_9 C9_9 1_555 1_555
H12_9 C9_9 1_555 1_555
C14_9 C10_9 1_555 1_555
H13_9 C10_9 1_555 1_555
H14_9 C10_9 1_555 1_555
C15_9 C11_9 1_555 1_555
H15_9 C11_9 1_555 1_555
H16_9 C11_9 1_555 1_555
H17_9 C12_9 1_555 1_555
H18_9 C12_9 1_555 1_555
H19_9 C13_9 1_555 1_555
H20_9 C13_9 1_555 1_555
H21_9 C14_9 1_555 1_555
H22_9 C14_9 1_555 1_555
H23_9 C15_9 1_555 1_555
H24_9 C15_9 1_555 1_555
Cu1_5 Cu2_5 1_555 1_555
Rh1_9 S2_9 1_555 1_555
C1_9 S5_9 1_555 1_555
Cu2_5 I2_5 1_555 1_555
S4_9 C6_9 1_555 1_555
S5_9 Cu3_5 1_555 1_555
S6_9 C7_9 1_555 1_555
S6_9 Cu4_5 1_555 1_555
I3_5 Cu5_5 1_555 1_555
I4_5 Cu5_5 1_555 1_555
I5_5 Cu6_5 1_555 1_555
I6_5 Cu6_5 1_555 1_555
C12_9 C13_9 1_555 1_555
C14_9 C15_9 1_555 1_555
I6_6 Cu6_6 1_555 1_555
I4_6 Cu5_6 1_555 1_555
Cu2_6 I2_6 1_555 1_555
I4_7 Cu5_7 1_555 1_555
Cu2_6 S1_10 1_555 1_555
Rh1_10 S1_10 1_555 1_555
S1_10 C1_10 1_555 1_555
S2_10 Cu2_6 1_555 1_555
C1_10 N1_10 1_555 1_555
N1_10 C2_10 1_555 1_555
C2_10 C3_10 1_555 1_555
C3_10 C4_10 1_555 1_555
C4_10 C5_10 1_555 1_555
C5_10 N1_10 1_555 1_555
H1_10 C2_10 1_555 1_555
H2_10 C2_10 1_555 1_555
H3_10 C3_10 1_555 1_555
H4_10 C3_10 1_555 1_555
H5_10 C4_10 1_555 1_555
H6_10 C4_10 1_555 1_555
H7_10 C5_10 1_555 1_555
H8_10 C5_10 1_555 1_555
S3_10 Rh1_10 1_555 1_555
S4_10 Rh1_10 1_555 1_555
S5_10 Rh1_10 1_555 1_555
S6_10 Rh1_10 1_555 1_555
C6_10 S2_10 1_555 1_555
Cu3_6 S3_10 1_555 1_555
C7_10 S3_10 1_555 1_555
Cu4_6 S4_10 1_555 1_555
N2_10 C6_10 1_555 1_555
I3_6 Cu3_6 1_555 1_555
N3_10 C7_10 1_555 1_555
I5_6 Cu4_6 1_555 1_555
I6_7 Cu4_6 1_555 1_555
Cu6_7 Cu4_6 1_555 1_555
C8_10 N2_10 1_555 1_555
C9_10 N2_10 1_555 1_555
C10_10 N3_10 1_555 1_555
C11_10 N3_10 1_555 1_555
C12_10 C8_10 1_555 1_555
H9_10 C8_10 1_555 1_555
H10_10 C8_10 1_555 1_555
C13_10 C9_10 1_555 1_555
H11_10 C9_10 1_555 1_555
H12_10 C9_10 1_555 1_555
C14_10 C10_10 1_555 1_555
H13_10 C10_10 1_555 1_555
H14_10 C10_10 1_555 1_555
C15_10 C11_10 1_555 1_555
H15_10 C11_10 1_555 1_555
H16_10 C11_10 1_555 1_555
H17_10 C12_10 1_555 1_555
H18_10 C12_10 1_555 1_555
H19_10 C13_10 1_555 1_555
H20_10 C13_10 1_555 1_555
H21_10 C14_10 1_555 1_555
H22_10 C14_10 1_555 1_555
H23_10 C15_10 1_555 1_555
H24_10 C15_10 1_555 1_555
Rh1_10 S2_10 1_555 1_555
C1_10 S5_10 1_555 1_555
S4_10 C6_10 1_555 1_555
S5_10 Cu3_6 1_555 1_555
S6_10 C7_10 1_555 1_555
S6_10 Cu4_6 1_555 1_555
I5_6 Cu6_7 1_555 1_555
I6_7 Cu6_7 1_555 1_555
C12_10 C13_10 1_555 1_555
C14_10 C15_10 1_555 1_555
Cu2_5 S1_11 1_555 1_555
Rh1_11 S1_11 1_555 1_555
S1_11 C1_11 1_555 1_555
S2_11 Cu2_5 1_555 1_555
C1_11 N1_11 1_555 1_555
N1_11 C2_11 1_555 1_555
C2_11 C3_11 1_555 1_555
C3_11 C4_11 1_555 1_555
C4_11 C5_11 1_555 1_555
C5_11 N1_11 1_555 1_555
H1_11 C2_11 1_555 1_555
H2_11 C2_11 1_555 1_555
H3_11 C3_11 1_555 1_555
H4_11 C3_11 1_555 1_555
H5_11 C4_11 1_555 1_555
H6_11 C4_11 1_555 1_555
H7_11 C5_11 1_555 1_555
H8_11 C5_11 1_555 1_555
S3_11 Rh1_11 1_555 1_555
S4_11 Rh1_11 1_555 1_555
S5_11 Rh1_11 1_555 1_555
S6_11 Rh1_11 1_555 1_555
C6_11 S2_11 1_555 1_555
Cu3_7 S3_11 1_555 1_555
C7_11 S3_11 1_555 1_555
Cu4_7 S4_11 1_555 1_555
N2_11 C6_11 1_555 1_555
I3_7 Cu3_7 1_555 1_555
I4_8 Cu3_7 1_555 1_555
Cu5_8 Cu3_7 1_555 1_555
N3_11 C7_11 1_555 1_555
I5_7 Cu4_7 1_555 1_555
C8_11 N2_11 1_555 1_555
C9_11 N2_11 1_555 1_555
C10_11 N3_11 1_555 1_555
C11_11 N3_11 1_555 1_555
C12_11 C8_11 1_555 1_555
H9_11 C8_11 1_555 1_555
H10_11 C8_11 1_555 1_555
C13_11 C9_11 1_555 1_555
H11_11 C9_11 1_555 1_555
H12_11 C9_11 1_555 1_555
C14_11 C10_11 1_555 1_555
H13_11 C10_11 1_555 1_555
H14_11 C10_11 1_555 1_555
C15_11 C11_11 1_555 1_555
H15_11 C11_11 1_555 1_555
H16_11 C11_11 1_555 1_555
H17_11 C12_11 1_555 1_555
H18_11 C12_11 1_555 1_555
H19_11 C13_11 1_555 1_555
H20_11 C13_11 1_555 1_555
H21_11 C14_11 1_555 1_555
H22_11 C14_11 1_555 1_555
H23_11 C15_11 1_555 1_555
H24_11 C15_11 1_555 1_555
Rh1_11 S2_11 1_555 1_555
C1_11 S5_11 1_555 1_555
S4_11 C6_11 1_555 1_555
S5_11 Cu3_7 1_555 1_555
S6_11 C7_11 1_555 1_555
S6_11 Cu4_7 1_555 1_555
I3_7 Cu5_8 1_555 1_555
I4_8 Cu5_8 1_555 1_555
C12_11 C13_11 1_555 1_555
C14_11 C15_11 1_555 1_555
I6_8 Cu6_8 1_555 1_555
I1_6 Cu1_6 1_555 1_555
Cu1_6 S1_12 1_555 1_555
Rh1_12 S1_12 1_555 1_555
S1_12 C1_12 1_555 1_555
S2_12 Cu1_6 1_555 1_555
C1_12 N1_12 1_555 1_555
N1_12 C2_12 1_555 1_555
C2_12 C3_12 1_555 1_555
C3_12 C4_12 1_555 1_555
C4_12 C5_12 1_555 1_555
C5_12 N1_12 1_555 1_555
H1_12 C2_12 1_555 1_555
H2_12 C2_12 1_555 1_555
H3_12 C3_12 1_555 1_555
H4_12 C3_12 1_555 1_555
H5_12 C4_12 1_555 1_555
H6_12 C4_12 1_555 1_555
H7_12 C5_12 1_555 1_555
H8_12 C5_12 1_555 1_555
Cu2_7 I1_6 1_555 1_555
I2_7 Cu1_6 1_555 1_555
S3_12 Rh1_12 1_555 1_555
S4_12 Rh1_12 1_555 1_555
S5_12 Rh1_12 1_555 1_555
S6_12 Rh1_12 1_555 1_555
C6_12 S2_12 1_555 1_555
Cu5_6 S3_12 1_555 1_555
C7_12 S3_12 1_555 1_555
Cu6_8 S4_12 1_555 1_555
N2_12 C6_12 1_555 1_555
N3_12 C7_12 1_555 1_555
C8_12 N2_12 1_555 1_555
C9_12 N2_12 1_555 1_555
C10_12 N3_12 1_555 1_555
C11_12 N3_12 1_555 1_555
C12_12 C8_12 1_555 1_555
H9_12 C8_12 1_555 1_555
H10_12 C8_12 1_555 1_555
C13_12 C9_12 1_555 1_555
H11_12 C9_12 1_555 1_555
H12_12 C9_12 1_555 1_555
C14_12 C10_12 1_555 1_555
H13_12 C10_12 1_555 1_555
H14_12 C10_12 1_555 1_555
C15_12 C11_12 1_555 1_555
H15_12 C11_12 1_555 1_555
H16_12 C11_12 1_555 1_555
H17_12 C12_12 1_555 1_555
H18_12 C12_12 1_555 1_555
H19_12 C13_12 1_555 1_555
H20_12 C13_12 1_555 1_555
H21_12 C14_12 1_555 1_555
H22_12 C14_12 1_555 1_555
H23_12 C15_12 1_555 1_555
H24_12 C15_12 1_555 1_555
Cu1_6 Cu2_7 1_555 1_555
Rh1_12 S2_12 1_555 1_555
C1_12 S5_12 1_555 1_555
Cu2_7 I2_7 1_555 1_555
S4_12 C6_12 1_555 1_555
S5_12 Cu5_6 1_555 1_555
S6_12 C7_12 1_555 1_555
S6_12 Cu6_8 1_555 1_555
C12_12 C13_12 1_555 1_555
C14_12 C15_12 1_555 1_555
I1_7 Cu1_7 1_555 1_555
Cu1_7 S1_13 1_555 1_555
Rh1_13 S1_13 1_555 1_555
S1_13 C1_13 1_555 1_555
S2_13 Cu1_7 1_555 1_555
C1_13 N1_13 1_555 1_555
N1_13 C2_13 1_555 1_555
C2_13 C3_13 1_555 1_555
C3_13 C4_13 1_555 1_555
C4_13 C5_13 1_555 1_555
C5_13 N1_13 1_555 1_555
H1_13 C2_13 1_555 1_555
H2_13 C2_13 1_555 1_555
H3_13 C3_13 1_555 1_555
H4_13 C3_13 1_555 1_555
H5_13 C4_13 1_555 1_555
H6_13 C4_13 1_555 1_555
H7_13 C5_13 1_555 1_555
H8_13 C5_13 1_555 1_555
S3_13 Rh1_13 1_555 1_555
S4_13 Rh1_13 1_555 1_555
S5_13 Rh1_13 1_555 1_555
S6_13 Rh1_13 1_555 1_555
C6_13 S2_13 1_555 1_555
Cu5_5 S3_13 1_555 1_555
C7_13 S3_13 1_555 1_555
Cu6_7 S4_13 1_555 1_555
N2_13 C6_13 1_555 1_555
N3_13 C7_13 1_555 1_555
C8_13 N2_13 1_555 1_555
C9_13 N2_13 1_555 1_555
C10_13 N3_13 1_555 1_555
C11_13 N3_13 1_555 1_555
C12_13 C8_13 1_555 1_555
H9_13 C8_13 1_555 1_555
H10_13 C8_13 1_555 1_555
C13_13 C9_13 1_555 1_555
H11_13 C9_13 1_555 1_555
H12_13 C9_13 1_555 1_555
C14_13 C10_13 1_555 1_555
H13_13 C10_13 1_555 1_555
H14_13 C10_13 1_555 1_555
C15_13 C11_13 1_555 1_555
H15_13 C11_13 1_555 1_555
H16_13 C11_13 1_555 1_555
H17_13 C12_13 1_555 1_555
H18_13 C12_13 1_555 1_555
H19_13 C13_13 1_555 1_555
H20_13 C13_13 1_555 1_555
H21_13 C14_13 1_555 1_555
H22_13 C14_13 1_555 1_555
H23_13 C15_13 1_555 1_555
H24_13 C15_13 1_555 1_555
Rh1_13 S2_13 1_555 1_555
C1_13 S5_13 1_555 1_555
S4_13 C6_13 1_555 1_555
S5_13 Cu5_5 1_555 1_555
S6_13 C7_13 1_555 1_555
S6_13 Cu6_7 1_555 1_555
C12_13 C13_13 1_555 1_555
C14_13 C15_13 1_555 1_555
Cu2_8 I2_8 1_555 1_555
Cu2_8 S1_14 1_555 1_555
Rh1_14 S1_14 1_555 1_555
S1_14 C1_14 1_555 1_555
S2_14 Cu2_8 1_555 1_555
C1_14 N1_14 1_555 1_555
N1_14 C2_14 1_555 1_555
C2_14 C3_14 1_555 1_555
C3_14 C4_14 1_555 1_555
C4_14 C5_14 1_555 1_555
C5_14 N1_14 1_555 1_555
H1_14 C2_14 1_555 1_555
H2_14 C2_14 1_555 1_555
H3_14 C3_14 1_555 1_555
H4_14 C3_14 1_555 1_555
H5_14 C4_14 1_555 1_555
H6_14 C4_14 1_555 1_555
H7_14 C5_14 1_555 1_555
H8_14 C5_14 1_555 1_555
S3_14 Rh1_14 1_555 1_555
S4_14 Rh1_14 1_555 1_555
S5_14 Rh1_14 1_555 1_555
S6_14 Rh1_14 1_555 1_555
C6_14 S2_14 1_555 1_555
Cu5_8 S3_14 1_555 1_555
C7_14 S3_14 1_555 1_555
Cu6_6 S4_14 1_555 1_555
N2_14 C6_14 1_555 1_555
N3_14 C7_14 1_555 1_555
C8_14 N2_14 1_555 1_555
C9_14 N2_14 1_555 1_555
C10_14 N3_14 1_555 1_555
C11_14 N3_14 1_555 1_555
C12_14 C8_14 1_555 1_555
H9_14 C8_14 1_555 1_555
H10_14 C8_14 1_555 1_555
C13_14 C9_14 1_555 1_555
H11_14 C9_14 1_555 1_555
H12_14 C9_14 1_555 1_555
C14_14 C10_14 1_555 1_555
H13_14 C10_14 1_555 1_555
H14_14 C10_14 1_555 1_555
C15_14 C11_14 1_555 1_555
H15_14 C11_14 1_555 1_555
H16_14 C11_14 1_555 1_555
H17_14 C12_14 1_555 1_555
H18_14 C12_14 1_555 1_555
H19_14 C13_14 1_555 1_555
H20_14 C13_14 1_555 1_555
H21_14 C14_14 1_555 1_555
H22_14 C14_14 1_555 1_555
H23_14 C15_14 1_555 1_555
H24_14 C15_14 1_555 1_555
Rh1_14 S2_14 1_555 1_555
C1_14 S5_14 1_555 1_555
S4_14 C6_14 1_555 1_555
S5_14 Cu5_8 1_555 1_555
S6_14 C7_14 1_555 1_555
S6_14 Cu6_6 1_555 1_555
C12_14 C13_14 1_555 1_555
C14_14 C15_14 1_555 1_555
Cu2_7 S1_15 1_555 1_555
Rh1_15 S1_15 1_555 1_555
S1_15 C1_15 1_555 1_555
S2_15 Cu2_7 1_555 1_555
C1_15 N1_15 1_555 1_555
N1_15 C2_15 1_555 1_555
C2_15 C3_15 1_555 1_555
C3_15 C4_15 1_555 1_555
C4_15 C5_15 1_555 1_555
C5_15 N1_15 1_555 1_555
H1_15 C2_15 1_555 1_555
H2_15 C2_15 1_555 1_555
H3_15 C3_15 1_555 1_555
H4_15 C3_15 1_555 1_555
H5_15 C4_15 1_555 1_555
H6_15 C4_15 1_555 1_555
H7_15 C5_15 1_555 1_555
H8_15 C5_15 1_555 1_555
S3_15 Rh1_15 1_555 1_555
S4_15 Rh1_15 1_555 1_555
S5_15 Rh1_15 1_555 1_555
S6_15 Rh1_15 1_555 1_555
C6_15 S2_15 1_555 1_555
Cu5_7 S3_15 1_555 1_555
C7_15 S3_15 1_555 1_555
Cu6_5 S4_15 1_555 1_555
N2_15 C6_15 1_555 1_555
N3_15 C7_15 1_555 1_555
C8_15 N2_15 1_555 1_555
C9_15 N2_15 1_555 1_555
C10_15 N3_15 1_555 1_555
C11_15 N3_15 1_555 1_555
C12_15 C8_15 1_555 1_555
H9_15 C8_15 1_555 1_555
H10_15 C8_15 1_555 1_555
C13_15 C9_15 1_555 1_555
H11_15 C9_15 1_555 1_555
H12_15 C9_15 1_555 1_555
C14_15 C10_15 1_555 1_555
H13_15 C10_15 1_555 1_555
H14_15 C10_15 1_555 1_555
C15_15 C11_15 1_555 1_555
H15_15 C11_15 1_555 1_555
H16_15 C11_15 1_555 1_555
H17_15 C12_15 1_555 1_555
H18_15 C12_15 1_555 1_555
H19_15 C13_15 1_555 1_555
H20_15 C13_15 1_555 1_555
H21_15 C14_15 1_555 1_555
H22_15 C14_15 1_555 1_555
H23_15 C15_15 1_555 1_555
H24_15 C15_15 1_555 1_555
Rh1_15 S2_15 1_555 1_555
C1_15 S5_15 1_555 1_555
S4_15 C6_15 1_555 1_555
S5_15 Cu5_7 1_555 1_555
S6_15 C7_15 1_555 1_555
S6_15 Cu6_5 1_555 1_555
C12_15 C13_15 1_555 1_555
C14_15 C15_15 1_555 1_555
I1_8 Cu1_8 1_555 1_555
Cu1_8 S1_16 1_555 1_555
Rh1_16 S1_16 1_555 1_555
S1_16 C1_16 1_555 1_555
S2_16 Cu1_8 1_555 1_555
C1_16 N1_16 1_555 1_555
N1_16 C2_16 1_555 1_555
C2_16 C3_16 1_555 1_555
C3_16 C4_16 1_555 1_555
C4_16 C5_16 1_555 1_555
C5_16 N1_16 1_555 1_555
H1_16 C2_16 1_555 1_555
H2_16 C2_16 1_555 1_555
H3_16 C3_16 1_555 1_555
H4_16 C3_16 1_555 1_555
H5_16 C4_16 1_555 1_555
H6_16 C4_16 1_555 1_555
H7_16 C5_16 1_555 1_555
H8_16 C5_16 1_555 1_555
S3_16 Rh1_16 1_555 1_555
S4_16 Rh1_16 1_555 1_555
S5_16 Rh1_16 1_555 1_555
S6_16 Rh1_16 1_555 1_555
C6_16 S2_16 1_555 1_555
Cu3_8 S3_16 1_555 1_555
C7_16 S3_16 1_555 1_555
Cu4_8 S4_16 1_555 1_555
N2_16 C6_16 1_555 1_555
I3_8 Cu3_8 1_555 1_555
N3_16 C7_16 1_555 1_555
I5_8 Cu4_8 1_555 1_555
C8_16 N2_16 1_555 1_555
C9_16 N2_16 1_555 1_555
C10_16 N3_16 1_555 1_555
C11_16 N3_16 1_555 1_555
C12_16 C8_16 1_555 1_555
H9_16 C8_16 1_555 1_555
H10_16 C8_16 1_555 1_555
C13_16 C9_16 1_555 1_555
H11_16 C9_16 1_555 1_555
H12_16 C9_16 1_555 1_555
C14_16 C10_16 1_555 1_555
H13_16 C10_16 1_555 1_555
H14_16 C10_16 1_555 1_555
C15_16 C11_16 1_555 1_555
H15_16 C11_16 1_555 1_555
H16_16 C11_16 1_555 1_555
H17_16 C12_16 1_555 1_555
H18_16 C12_16 1_555 1_555
H19_16 C13_16 1_555 1_555
H20_16 C13_16 1_555 1_555
H21_16 C14_16 1_555 1_555
H22_16 C14_16 1_555 1_555
H23_16 C15_16 1_555 1_555
H24_16 C15_16 1_555 1_555
Rh1_16 S2_16 1_555 1_555
C1_16 S5_16 1_555 1_555
S4_16 C6_16 1_555 1_555
S5_16 Cu3_8 1_555 1_555
S6_16 C7_16 1_555 1_555
S6_16 Cu4_8 1_555 1_555
C12_16 C13_16 1_555 1_555
C14_16 C15_16 1_555 1_555

#END
