
###############################################################################
#
# This file contains modified crystal structure data generated from the
# MOF subset of the Cambridge Structural Database (CSD) v543 
# hosted by the Cambridge Crystallographic Data Centre (CCDC).
#
# This work is licensed under the Creative Commons
# Attribution-NonCommercial-ShareAlike 4.0 International License.
# To view a copy of this license, visit
# http://creativecommons.org/licenses/by-nc-sa/4.0/
# or send a letter to
# Creative Commons, PO Box 1866, Mountain View, CA 94042, USA.
#
# CIF created using the CSD Python API on 29 September 2022
# The structure has been converted into the P1 space group
# The structure has a 3D framework
# The original CSD entry KECROD is in the monoclinic crystal system
# The framework has been calculated to contain at least 10.0% void space
# The void calculation uses a probe of radius 1.32A, grid spacing 0.4
# The framework is charged, counterions have been retained in the structure
# H atom positions have been added when not included in the experimental data
# Generated hydrogen atom positions removed from atoms on special positions
#
###############################################################################

data_KECROD
_chemical_formula_moiety         '(C304 H336 Cu38 N16 O162)n'
_symmetry_cell_setting           triclinic
_symmetry_space_group_name_H-M   'P 1'
_symmetry_Int_Tables_number      1
_space_group_name_Hall           'P 1'
loop_
_symmetry_equiv_pos_site_id
_symmetry_equiv_pos_as_xyz
1 x,y,z
_cell_length_a                   25.731(5)
_cell_length_b                   26.455(5)
_cell_length_c                   26.552(5)
_cell_angle_alpha                90
_cell_angle_beta                 113.93(3)
_cell_angle_gamma                90
_cell_volume                     16520.7
loop_
_atom_site_label
_atom_site_type_symbol
_atom_site_fract_x
_atom_site_fract_y
_atom_site_fract_z
Cu1 Cu 0.22277(18) 0.500000 0.68472(15)
Cu2 Cu 0.32488(18) 0.500000 0.76586(16)
Cu3 Cu 0.2022(2) 0.500000 0.22153(19)
Cu4 Cu 0.48577(15) 0.23529(15) 0.33451(13)
Cu6 Cu 0.500000 0.2487(5) 0.000000
O1 O 0.2526(6) 0.4502(5) 0.6516(5)
O2 O 0.3395(6) 0.4481(5) 0.7175(6)
O3 O 0.4656(8) 0.3030(7) 0.7019(8)
O4 O 0.4502(8) 0.2740(7) 0.6256(7)
O5 O 0.2334(7) 0.4498(7) 0.2736(6)
O6 O 0.3204(7) 0.4460(6) 0.2764(6)
O7 O 0.4307(8) 0.2428(7) 0.4021(7)
O8 O 0.4334(6) 0.2848(6) 0.3340(6)
O9 O 0.4240(7) 0.1910(6) 0.2934(7)
O10 O 0.4218(7) 0.2342(7) 0.2196(7)
O11 O 0.2926(6) 0.0541(5) 0.2703(5)
O12 O 0.2053(6) 0.0515(5) 0.2014(5)
O16 O 0.4313(12) 0.2163(12) 0.0278(13)
O17 O 0.1370(9) 0.500000 0.6176(8)
O18 O 0.4063(10) 0.500000 0.8300(9)
O19 O 0.1180(14) 0.500000 0.2203(13)
O20 O 0.5426(12) 0.1743(11) 0.3444(12)
N1 N 0.2652(7) 0.3093(7) 0.4697(7)
H1 H 0.304768 0.296331 0.480703
N2 N 0.2484(8) 0.1889(8) 0.0318(8)
H2 H 0.289247 0.197398 0.054056
C1 C 0.3016(10) 0.4347(7) 0.6723(8)
C2 C 0.3203(9) 0.4023(8) 0.6362(8)
C3 C 0.2901(9) 0.3969(8) 0.5803(9)
H3 H 0.256412 0.416254 0.562674
C4 C 0.3057(9) 0.3666(8) 0.5506(8)
C5 C 0.3553(9) 0.3371(8) 0.5719(9)
H4 H 0.365978 0.317011 0.547963
C6 C 0.3875(9) 0.3375(9) 0.6261(10)
C7 C 0.4348(11) 0.3002(10) 0.6528(16)
C8 C 0.3709(10) 0.3730(9) 0.6587(9)
H5 H 0.394835 0.376774 0.696689
C9 C 0.2711(9) 0.3600(8) 0.4892(8)
H6 H 0.232622 0.374068 0.479943
H7 H 0.289000 0.380144 0.469177
C10 C 0.2382(8) 0.2751(6) 0.4951(9)
H8 H 0.241670 0.289823 0.530561
H9 H 0.197204 0.272802 0.470867
C11 C 0.2375(9) 0.3038(8) 0.4095(8)
H10 H 0.201426 0.323132 0.394989
H11 H 0.228509 0.267797 0.399796
C12 C 0.2769(12) 0.4280(6) 0.2892(8)
C13 C 0.3615(5) 0.3118(5) 0.3655(6)
C14 C 0.3486(6) 0.3554(6) 0.3334(5)
H12 H 0.372846 0.366159 0.316402
C15 C 0.3003(7) 0.3832(4) 0.3263(5)
C16 C 0.2648(5) 0.3674(6) 0.3512(6)
H13 H 0.231797 0.386403 0.346302
C17 C 0.2777(6) 0.3239(6) 0.3832(6)
C18 C 0.3261(6) 0.2961(4) 0.3904(5)
H14 H 0.334885 0.266326 0.412275
C19 C 0.4104(7) 0.2780(8) 0.3711(11)
C20 C 0.4028(9) 0.1984(11) 0.2423(13)
C21 C 0.3461(8) 0.1747(9) 0.2089(9)
C22 C 0.3100(10) 0.1929(9) 0.1566(10)
H15 H 0.323321 0.220010 0.141486
C23 C 0.2567(10) 0.1741(9) 0.1259(10)
C24 C 0.2418(9) 0.1316(9) 0.1503(8)
H16 H 0.207082 0.114875 0.129143
C25 C 0.2743(9) 0.1123(7) 0.2033(8)
C26 C 0.2509(9) 0.0695(7) 0.2249(8)
C27 C 0.3260(9) 0.1328(8) 0.2281(8)
H17 H 0.351252 0.117752 0.261584
C28 C 0.2215(11) 0.1931(10) 0.0735(11)
H18 H 0.212905 0.229096 0.077215
H19 H 0.185081 0.174351 0.059408
C30 C 0.2506(11) 0.1369(11) 0.0143(10)
H23 H 0.266440 0.114812 0.047110
H24 H 0.346939 0.182385 0.029552
O23 O 0.2474(6) 0.0498(5) 0.3484(5)
O24 O 0.1605(6) 0.0519(5) 0.2825(6)
O25 O 0.0344(8) 0.1970(7) 0.2981(8)
O26 O 0.0498(8) 0.2260(7) 0.3744(7)
O27 O 0.2666(7) 0.0502(7) 0.7264(6)
O28 O 0.1796(7) 0.0540(6) 0.7236(6)
O29 O 0.0693(8) 0.2572(7) 0.5979(7)
O30 O 0.0666(6) 0.2152(6) 0.6660(6)
N3 N 0.2348(7) 0.1907(7) 0.5303(7)
H27 H 0.195232 0.203669 0.519297
C39 C 0.1984(10) 0.0653(7) 0.3277(8)
C40 C 0.1797(9) 0.0977(8) 0.3638(8)
C41 C 0.2099(9) 0.1031(8) 0.4197(9)
H28 H 0.243588 0.083746 0.437326
C42 C 0.1943(9) 0.1334(8) 0.4494(8)
C43 C 0.1447(9) 0.1629(8) 0.4281(9)
H29 H 0.134022 0.182989 0.452037
C44 C 0.1125(9) 0.1625(9) 0.3739(10)
C45 C 0.0652(11) 0.1998(10) 0.3472(16)
C46 C 0.1291(10) 0.1270(9) 0.3413(9)
H30 H 0.105165 0.123226 0.303311
C47 C 0.2289(9) 0.1400(8) 0.5108(8)
H31 H 0.267378 0.125932 0.520057
H32 H 0.211000 0.119856 0.530823
C48 C 0.2618(8) 0.2249(6) 0.5049(9)
H33 H 0.258330 0.210177 0.469439
H34 H 0.302796 0.227198 0.529133
C49 C 0.2625(9) 0.1962(8) 0.5905(8)
H35 H 0.298574 0.176868 0.605011
H36 H 0.271491 0.232203 0.600204
C50 C 0.2231(12) 0.0720(6) 0.7108(8)
C51 C 0.1385(5) 0.1882(5) 0.6345(6)
C52 C 0.1514(6) 0.1446(6) 0.6666(5)
H37 H 0.127154 0.133841 0.683598
C53 C 0.1997(7) 0.1168(4) 0.6737(5)
C54 C 0.2352(5) 0.1326(6) 0.6488(6)
H38 H 0.268203 0.113597 0.653698
C55 C 0.2223(6) 0.1761(6) 0.6168(6)
C56 C 0.1739(6) 0.2039(4) 0.6096(5)
H39 H 0.165115 0.233674 0.587725
C57 C 0.0896(7) 0.2220(8) 0.6289(11)
O35 O 0.2712(7) 0.4479(6) 0.1645(6)
O36 O 0.1853(7) 0.4489(7) 0.1633(7)
O37 O 0.0643(12) 0.3061(10) 0.0533(12)
C67 C 0.2700(10) 0.2719(9) 0.0103(11)
H46 H 0.309239 0.261186 0.017675
H47 H 0.269375 0.285007 0.045008
H48 H 0.288390 0.374846 0.008695
C69 C 0.2194(12) 0.4338(8) 0.1446(7)
C70 C 0.0823(7) 0.3054(7) 0.0166(17)
C71 C 0.1643(9) 0.3390(6) 0.0018(6)
C72 C 0.1310(7) 0.3419(7) 0.0320(9)
C73 C 0.1474(9) 0.3732(8) 0.0779(8)
H51 H 0.124700 0.375152 0.098522
C74 C 0.1970(10) 0.4015(6) 0.0937(6)
C75 C 0.2302(7) 0.3986(7) 0.0636(9)
H52 H 0.264124 0.417919 0.074383
C76 C 0.2139(8) 0.3673(8) 0.0176(8)
O39 O 0.5576(18) 0.3126(16) 0.0583(19)
Cu7 Cu 0.51423(15) 0.23529(15) 0.66549(13)
O40 O 0.4574(12) 0.1743(11) 0.6556(12)
Cu9 Cu 0.27723(18) -0.000000 0.31528(15)
Cu11 Cu 0.17512(18) 0.000000 0.23414(16)
Cu13 Cu 0.2978(2) -0.000000 0.77847(19)
Cu15 Cu 0.01423(15) 0.26471(15) 0.66549(13)
Cu17 Cu 0.1951(2) -0.000000 0.77908(18)
Cu18 Cu 0.3049(2) 0.500000 0.22092(18)
Cu19 Cu -0.000000 0.2513(5) 0.000000
O41 O 0.2526(6) 0.5498(5) 0.6516(5)
O42 O 0.3395(6) 0.5519(5) 0.7175(6)
O43 O 0.5344(8) 0.3030(7) 0.2981(8)
O44 O 0.5498(8) 0.2740(7) 0.3744(7)
O45 O 0.2334(7) 0.5502(7) 0.2736(6)
O48 O 0.5693(8) 0.2428(7) 0.5979(7)
O49 O 0.5666(6) 0.2848(6) 0.6660(6)
O50 O 0.5760(7) 0.1910(6) 0.7066(7)
O51 O 0.2074(6) 0.5541(5) 0.7297(5)
O52 O 0.2074(6) 0.4459(5) 0.7297(5)
O53 O 0.2947(6) 0.5515(5) 0.7986(5)
O54 O 0.2947(6) 0.4485(5) 0.7986(5)
O56 O 0.1853(7) 0.5511(7) 0.1633(7)
O57 O 0.5643(12) 0.1939(10) 0.0533(12)
Cu6_2 Cu 0.500000 0.2487(5) 1.000000
O13 O 0.2288(7) 0.0521(6) 0.8355(6)
O14 O 0.3147(7) 0.0511(7) 0.8367(7)
O15 O 0.4357(12) 0.1939(10) 0.9467(12)
O21 O 0.4424(18) 0.3126(16) 0.9417(19)
O22 O 0.1076(12) 0.000000 0.7757(11)
C29 C 0.2300(10) 0.2281(9) 0.9897(11)
H20 H 0.190761 0.238814 0.982325
H21 H 0.230625 0.214993 0.954992
H22 H 0.211610 0.125154 0.991305
C31 C 0.2806(12) 0.0662(8) 0.8554(7)
C32 C 0.4177(7) 0.1946(7) 0.9834(17)
C33 C 0.3357(9) 0.1610(6) 0.9982(6)
C34 C 0.3690(7) 0.1581(7) 0.9680(9)
C35 C 0.3526(9) 0.1268(8) 0.9221(8)
H25 H 0.375300 0.124848 0.901478
C36 C 0.3030(10) 0.0985(6) 0.9063(6)
C37 C 0.2698(7) 0.1014(7) 0.9364(9)
H26 H 0.235876 0.082081 0.925617
C38 C 0.2861(8) 0.1327(8) 0.9824(8)
O31 O 0.0760(7) 0.3090(6) 0.7066(7)
O32 O 0.0782(7) 0.2658(7) 0.7804(7)
O38 O 0.0687(12) 0.2837(12) 0.9722(13)
N4 N 0.2516(8) 0.3111(8) 0.9682(8)
H40 H 0.210753 0.302602 0.945944
C58 C 0.0972(9) 0.3016(11) 0.7577(13)
C59 C 0.1539(8) 0.3253(9) 0.7911(9)
C60 C 0.1900(10) 0.3071(9) 0.8434(10)
H41 H 0.176679 0.279990 0.858514
C61 C 0.2433(10) 0.3259(9) 0.8741(10)
C62 C 0.2582(9) 0.3684(9) 0.8497(8)
H42 H 0.292918 0.385125 0.870857
C63 C 0.2257(9) 0.3877(7) 0.7967(8)
C64 C 0.2491(9) 0.4305(7) 0.7751(8)
C65 C 0.1740(9) 0.3672(8) 0.7719(8)
H43 H 0.148748 0.382248 0.738416
C66 C 0.2785(11) 0.3069(10) 0.9265(11)
H44 H 0.287095 0.270904 0.922785
H45 H 0.314919 0.325649 0.940592
C68 C 0.2494(11) 0.3631(11) 0.9857(10)
H49 H 0.233560 0.385188 0.952890
H50 H 0.153061 0.317615 0.970448
Cu19_2 Cu 0.000000 0.2513(5) 1.000000
O58 O 0.5687(12) 0.2163(12) 0.9722(13)
H65 H 0.0906042 0.0341166 0.764952
Cu9_2 Cu 0.27723(18) 1.000000 0.31528(15)
Cu11_2 Cu 0.17512(18) 1.000000 0.23414(16)
Cu13_2 Cu 0.2978(2) 1.000000 0.77847(19)
Cu17_2 Cu 0.1951(2) 1.000000 0.77908(18)
O22_2 O 0.1076(12) 1.000000 0.7757(11)
O46 O 0.1796(7) 0.9460(6) 0.7236(6)
O55 O 0.2288(7) 0.9479(6) 0.8355(6)
H66 H 0.0841515 0.974798 0.748132
Cu16 Cu 0.98577(15) 0.26471(15) 0.33451(13)
Cu19_3 Cu 1.000000 0.2513(5) 0.000000
Cu19_4 Cu 1.000000 0.2513(5) 1.000000
Cu5 Cu 0.8049(2) 0.000000 0.22092(18)
O13_2 O 0.7712(7) 0.0521(6) 0.1645(6)
O14_2 O 0.6853(7) 0.0511(7) 0.1633(7)
O22_3 O 0.8924(12) 0.000000 0.2243(11)
C29_2 C 0.7700(10) 0.2281(9) 0.0103(11)
H20_2 H 0.809239 0.238814 0.017675
H21_2 H 0.769375 0.214993 0.045008
H22_2 H 0.788390 0.125154 0.008695
C31_2 C 0.7194(12) 0.0662(8) 0.1446(7)
C32_2 C 0.5823(7) 0.1946(7) 0.0166(17)
C33_2 C 0.6643(9) 0.1610(6) 0.0018(6)
C34_2 C 0.6310(7) 0.1581(7) 0.0320(9)
C35_2 C 0.6474(9) 0.1268(8) 0.0779(8)
H25_2 H 0.624700 0.124848 0.098522
C36_2 C 0.6970(10) 0.0985(6) 0.0937(6)
C37_2 C 0.7302(7) 0.1014(7) 0.0636(9)
H26_2 H 0.764124 0.082081 0.074383
C38_2 C 0.7139(8) 0.1327(8) 0.0176(8)
O31_2 O 0.9240(7) 0.3090(6) 0.2934(7)
O32_2 O 0.9218(7) 0.2658(7) 0.2196(7)
O33 O 0.7926(6) 0.4459(5) 0.2703(5)
O34 O 0.7053(6) 0.4485(5) 0.2014(5)
O38_2 O 0.9313(12) 0.2837(12) 0.0278(13)
N4_2 N 0.7484(8) 0.3111(8) 0.0318(8)
H40_2 H 0.789247 0.302602 0.054056
C58_2 C 0.9028(9) 0.3016(11) 0.2423(13)
C59_2 C 0.8461(8) 0.3253(9) 0.2089(9)
C60_2 C 0.8100(10) 0.3071(9) 0.1566(10)
H41_2 H 0.823321 0.279990 0.141486
C61_2 C 0.7567(10) 0.3259(9) 0.1259(10)
C62_2 C 0.7418(9) 0.3684(9) 0.1503(8)
H42_2 H 0.707082 0.385125 0.129143
C63_2 C 0.7743(9) 0.3877(7) 0.2033(8)
C64_2 C 0.7509(9) 0.4305(7) 0.2249(8)
C65_2 C 0.8260(9) 0.3672(8) 0.2281(8)
H43_2 H 0.851252 0.382248 0.261584
C66_2 C 0.7215(11) 0.3069(10) 0.0735(11)
H44_2 H 0.712905 0.270904 0.077215
H45_2 H 0.685081 0.325649 0.059408
C68_2 C 0.7506(11) 0.3631(11) 0.0143(10)
H49_2 H 0.766440 0.385188 0.047110
H50_2 H 0.846939 0.317615 0.029552
Cu8 Cu 0.77723(18) 0.500000 0.31528(15)
Cu10 Cu 0.67512(18) 0.500000 0.23414(16)
Cu12 Cu 0.7022(2) 0.000000 0.22153(19)
O47 O 0.8204(7) 0.0540(6) 0.2764(6)
H65_2 H 0.909396 0.0341166 0.235048
Cu3_2 Cu 0.7978(2) 0.500000 0.77847(19)
O1_2 O 0.7474(6) 0.4502(5) 0.3484(5)
O2_2 O 0.6605(6) 0.4481(5) 0.2825(6)
O5_2 O 0.7666(7) 0.4498(7) 0.7264(6)
O6_2 O 0.6796(7) 0.4460(6) 0.7236(6)
O10_2 O 0.5782(7) 0.2342(7) 0.7804(7)
O11_2 O 0.7074(6) 0.0541(5) 0.7297(5)
O12_2 O 0.7947(6) 0.0515(5) 0.7986(5)
O17_2 O 0.8630(9) 0.500000 0.3824(8)
O18_2 O 0.5937(10) 0.500000 0.1700(9)
O19_2 O 0.8820(14) 0.500000 0.7797(13)
N1_2 N 0.7348(7) 0.3093(7) 0.5303(7)
H1_2 H 0.695232 0.296331 0.519297
N2_2 N 0.7516(8) 0.1889(8) 0.9682(8)
H2_2 H 0.710753 0.197398 0.945944
C1_2 C 0.6984(10) 0.4347(7) 0.3277(8)
C2_2 C 0.6797(9) 0.4023(8) 0.3638(8)
C3_2 C 0.7099(9) 0.3969(8) 0.4197(9)
H3_2 H 0.743588 0.416254 0.437326
C4_2 C 0.6943(9) 0.3666(8) 0.4494(8)
C5_2 C 0.6447(9) 0.3371(8) 0.4281(9)
H4_2 H 0.634022 0.317011 0.452037
C6_2 C 0.6125(9) 0.3375(9) 0.3739(10)
C7_2 C 0.5652(11) 0.3002(10) 0.3472(16)
C8_2 C 0.6291(10) 0.3730(9) 0.3413(9)
H5_2 H 0.605165 0.376774 0.303311
C9_2 C 0.7289(9) 0.3600(8) 0.5108(8)
H6_2 H 0.767378 0.374068 0.520057
H7_2 H 0.711000 0.380144 0.530823
C10_2 C 0.7618(8) 0.2751(6) 0.5049(9)
H8_2 H 0.758330 0.289823 0.469439
H9_2 H 0.802796 0.272802 0.529133
C11_2 C 0.7625(9) 0.3038(8) 0.5905(8)
H10_2 H 0.798574 0.323132 0.605011
H11_2 H 0.771491 0.267797 0.600204
C12_2 C 0.7231(12) 0.4280(6) 0.7108(8)
C13_2 C 0.6385(5) 0.3118(5) 0.6345(6)
C14_2 C 0.6514(6) 0.3554(6) 0.6666(5)
H12_2 H 0.627154 0.366159 0.683598
C15_2 C 0.6997(7) 0.3832(4) 0.6737(5)
C16_2 C 0.7352(5) 0.3674(6) 0.6488(6)
H13_2 H 0.768203 0.386403 0.653698
C17_2 C 0.7223(6) 0.3239(6) 0.6168(6)
C18_2 C 0.6739(6) 0.2961(4) 0.6096(5)
H14_2 H 0.665115 0.266326 0.587725
C19_2 C 0.5896(7) 0.2780(8) 0.6289(11)
C20_2 C 0.5972(9) 0.1984(11) 0.7577(13)
C21_2 C 0.6539(8) 0.1747(9) 0.7911(9)
C22_2 C 0.6900(10) 0.1929(9) 0.8434(10)
H15_2 H 0.676679 0.220010 0.858514
C23_2 C 0.7433(10) 0.1741(9) 0.8741(10)
C24_2 C 0.7582(9) 0.1316(9) 0.8497(8)
H16_2 H 0.792918 0.114875 0.870857
C25_2 C 0.7257(9) 0.1123(7) 0.7967(8)
C26_2 C 0.7491(9) 0.0695(7) 0.7751(8)
C27_2 C 0.6740(9) 0.1328(8) 0.7719(8)
H17_2 H 0.648748 0.117752 0.738416
C28_2 C 0.7785(11) 0.1931(10) 0.9265(11)
H18_2 H 0.787095 0.229096 0.922785
H19_2 H 0.814919 0.174351 0.940592
C30_2 C 0.7494(11) 0.1369(11) 0.9857(10)
H23_2 H 0.733560 0.114812 0.952890
H24_2 H 0.653061 0.182385 0.970448
O23_2 O 0.7526(6) 0.0498(5) 0.6516(5)
O24_2 O 0.8395(6) 0.0519(5) 0.7175(6)
O25_2 O 0.9656(8) 0.1970(7) 0.7019(8)
O26_2 O 0.9502(8) 0.2260(7) 0.6256(7)
O27_2 O 0.7334(7) 0.0502(7) 0.2736(6)
O29_2 O 0.9307(8) 0.2572(7) 0.4021(7)
O30_2 O 0.9334(6) 0.2152(6) 0.3340(6)
N3_2 N 0.7652(7) 0.1907(7) 0.4697(7)
H27_2 H 0.804768 0.203669 0.480703
C39_2 C 0.8016(10) 0.0653(7) 0.6723(8)
C40_2 C 0.8203(9) 0.0977(8) 0.6362(8)
C41_2 C 0.7901(9) 0.1031(8) 0.5803(9)
H28_2 H 0.756412 0.083746 0.562674
C42_2 C 0.8057(9) 0.1334(8) 0.5506(8)
C43_2 C 0.8553(9) 0.1629(8) 0.5719(9)
H29_2 H 0.865978 0.182989 0.547963
C44_2 C 0.8875(9) 0.1625(9) 0.6261(10)
C45_2 C 0.9348(11) 0.1998(10) 0.6528(16)
C46_2 C 0.8709(10) 0.1270(9) 0.6587(9)
H30_2 H 0.894835 0.123226 0.696689
C47_2 C 0.7711(9) 0.1400(8) 0.4892(8)
H31_2 H 0.732622 0.125932 0.479943
H32_2 H 0.789000 0.119856 0.469177
C48_2 C 0.7382(8) 0.2249(6) 0.4951(9)
H33_2 H 0.741670 0.210177 0.530561
H34_2 H 0.697204 0.227198 0.470867
C49_2 C 0.7375(9) 0.1962(8) 0.4095(8)
H35_2 H 0.701426 0.176868 0.394989
H36_2 H 0.728509 0.232203 0.399796
C50_2 C 0.7769(12) 0.0720(6) 0.2892(8)
C51_2 C 0.8615(5) 0.1882(5) 0.3655(6)
C52_2 C 0.8486(6) 0.1446(6) 0.3334(5)
H37_2 H 0.872846 0.133841 0.316402
C53_2 C 0.8003(7) 0.1168(4) 0.3263(5)
C54_2 C 0.7648(5) 0.1326(6) 0.3512(6)
H38_2 H 0.731797 0.113597 0.346302
C55_2 C 0.7777(6) 0.1761(6) 0.3832(6)
C56_2 C 0.8261(6) 0.2039(4) 0.3904(5)
H39_2 H 0.834885 0.233674 0.412275
C57_2 C 0.9104(7) 0.2220(8) 0.3711(11)
O35_2 O 0.7288(7) 0.4479(6) 0.8355(6)
O36_2 O 0.8147(7) 0.4489(7) 0.8367(7)
O37_2 O 0.9357(12) 0.3061(10) 0.9467(12)
C67_2 C 0.7300(10) 0.2719(9) 0.9897(11)
H46_2 H 0.690761 0.261186 0.982325
H47_2 H 0.730625 0.285007 0.954992
H48_2 H 0.711610 0.374846 0.991305
C69_2 C 0.7806(12) 0.4338(8) 0.8554(7)
C70_2 C 0.9177(7) 0.3054(7) 0.9834(17)
C71_2 C 0.8357(9) 0.3390(6) 0.9982(6)
C72_2 C 0.8690(7) 0.3419(7) 0.9680(9)
C73_2 C 0.8526(9) 0.3732(8) 0.9221(8)
H51_2 H 0.875300 0.375152 0.901478
C74_2 C 0.8030(10) 0.4015(6) 0.9063(6)
C75_2 C 0.7698(7) 0.3986(7) 0.9364(9)
H52_2 H 0.735876 0.417919 0.925617
C76_2 C 0.7861(8) 0.3673(8) 0.9824(8)
Cu9_3 Cu 0.72277(18) 0.000000 0.68472(15)
Cu11_3 Cu 0.82488(18) -0.000000 0.76586(16)
Cu18_2 Cu 0.6951(2) 0.500000 0.77908(18)
O41_2 O 0.7474(6) 0.5498(5) 0.3484(5)
O42_2 O 0.6605(6) 0.5519(5) 0.2825(6)
O45_2 O 0.7666(7) 0.5502(7) 0.7264(6)
O51_2 O 0.7926(6) 0.5541(5) 0.2703(5)
O53_2 O 0.7053(6) 0.5515(5) 0.2014(5)
O56_2 O 0.8147(7) 0.5511(7) 0.8367(7)
Cu5_2 Cu 0.8049(2) 1.000000 0.22092(18)
O22_4 O 0.8924(12) 1.000000 0.2243(11)
Cu12_2 Cu 0.7022(2) 1.000000 0.22153(19)
O46_2 O 0.8204(7) 0.9460(6) 0.2764(6)
O55_2 O 0.7712(7) 0.9479(6) 0.1645(6)
H66_2 H 0.915848 0.974798 0.251868
Cu9_4 Cu 0.72277(18) 1.000000 0.68472(15)
Cu11_4 Cu 0.82488(18) 1.000000 0.76586(16)
Cu6_3 Cu -0.000000 0.7487(5) 0.000000
O20_2 O 0.0426(12) 0.6743(11) 0.3444(12)
O39_2 O 0.0576(18) 0.8126(16) 0.0583(19)
Cu7_2 Cu 0.01423(15) 0.73529(15) 0.66549(13)
O43_2 O 0.0344(8) 0.8030(7) 0.2981(8)
O44_2 O 0.0498(8) 0.7740(7) 0.3744(7)
O48_2 O 0.0693(8) 0.7428(7) 0.5979(7)
O49_2 O 0.0666(6) 0.7848(6) 0.6660(6)
O50_2 O 0.0760(7) 0.6910(6) 0.7066(7)
O57_2 O 0.0643(12) 0.6939(10) 0.0533(12)
Cu6_4 Cu 0.000000 0.7487(5) 1.000000
O58_2 O 0.0687(12) 0.7163(12) 0.9722(13)
O17_3 O 0.6370(9) 0.000000 0.6176(8)
O18_3 O 0.9063(10) -0.000000 0.8300(9)
O19_3 O 0.6180(14) -0.000000 0.2203(13)
H57 H 0.934681 0.0101136 0.815366
H58 H 0.907383 0.0243126 0.858902
H60 H 0.612558 0.0245073 0.626259
H67 H 0.620266 0.00826107 0.257617
H68 H 0.594292 0.0256703 0.19356
Cu4_2 Cu 0.98577(15) 0.73529(15) 0.33451(13)
Cu6_5 Cu 1.000000 0.7487(5) 0.000000
O1_3 O 0.7526(6) 0.9502(5) 0.6516(5)
O2_3 O 0.8395(6) 0.9481(5) 0.7175(6)
O3_2 O 0.9656(8) 0.8030(7) 0.7019(8)
O4_2 O 0.9502(8) 0.7740(7) 0.6256(7)
O5_3 O 0.7334(7) 0.9498(7) 0.2736(6)
O7_2 O 0.9307(8) 0.7428(7) 0.4021(7)
O8_2 O 0.9334(6) 0.7848(6) 0.3340(6)
O9_2 O 0.9240(7) 0.6910(6) 0.2934(7)
O10_3 O 0.9218(7) 0.7342(7) 0.2196(7)
O16_2 O 0.9313(12) 0.7163(12) 0.0278(13)
O17_4 O 0.6370(9) 1.000000 0.6176(8)
O18_4 O 0.9063(10) 1.000000 0.8300(9)
O19_4 O 0.6180(14) 1.000000 0.2203(13)
N1_3 N 0.7652(7) 0.8093(7) 0.4697(7)
H1_3 H 0.804768 0.796331 0.480703
N2_3 N 0.7484(8) 0.6889(8) 0.0318(8)
H2_3 H 0.789247 0.697398 0.054056
C1_3 C 0.8016(10) 0.9347(7) 0.6723(8)
C2_3 C 0.8203(9) 0.9023(8) 0.6362(8)
C3_3 C 0.7901(9) 0.8969(8) 0.5803(9)
H3_3 H 0.756412 0.916254 0.562674
C4_3 C 0.8057(9) 0.8666(8) 0.5506(8)
C5_3 C 0.8553(9) 0.8371(8) 0.5719(9)
H4_3 H 0.865978 0.817011 0.547963
C6_3 C 0.8875(9) 0.8375(9) 0.6261(10)
C7_3 C 0.9348(11) 0.8002(10) 0.6528(16)
C8_3 C 0.8709(10) 0.8730(9) 0.6587(9)
H5_3 H 0.894835 0.876774 0.696689
C9_3 C 0.7711(9) 0.8600(8) 0.4892(8)
H6_3 H 0.732622 0.874068 0.479943
H7_3 H 0.789000 0.880144 0.469177
C10_3 C 0.7382(8) 0.7751(6) 0.4951(9)
H8_3 H 0.741670 0.789823 0.530561
H9_3 H 0.697204 0.772802 0.470867
C11_3 C 0.7375(9) 0.8038(8) 0.4095(8)
H10_3 H 0.701426 0.823132 0.394989
H11_3 H 0.728509 0.767797 0.399796
C12_3 C 0.7769(12) 0.9280(6) 0.2892(8)
C13_3 C 0.8615(5) 0.8118(5) 0.3655(6)
C14_3 C 0.8486(6) 0.8554(6) 0.3334(5)
H12_3 H 0.872846 0.866159 0.316402
C15_3 C 0.8003(7) 0.8832(4) 0.3263(5)
C16_3 C 0.7648(5) 0.8674(6) 0.3512(6)
H13_3 H 0.731797 0.886403 0.346302
C17_3 C 0.7777(6) 0.8239(6) 0.3832(6)
C18_3 C 0.8261(6) 0.7961(4) 0.3904(5)
H14_3 H 0.834885 0.766326 0.412275
C19_3 C 0.9104(7) 0.7780(8) 0.3711(11)
C20_3 C 0.9028(9) 0.6984(11) 0.2423(13)
C21_3 C 0.8461(8) 0.6747(9) 0.2089(9)
C22_3 C 0.8100(10) 0.6929(9) 0.1566(10)
H15_3 H 0.823321 0.720010 0.141486
C23_3 C 0.7567(10) 0.6741(9) 0.1259(10)
C24_3 C 0.7418(9) 0.6316(9) 0.1503(8)
H16_3 H 0.707082 0.614875 0.129143
C25_3 C 0.7743(9) 0.6123(7) 0.2033(8)
C26_3 C 0.7509(9) 0.5695(7) 0.2249(8)
C27_3 C 0.8260(9) 0.6328(8) 0.2281(8)
H17_3 H 0.851252 0.617752 0.261584
C28_3 C 0.7215(11) 0.6931(10) 0.0735(11)
H18_3 H 0.712905 0.729096 0.077215
H19_3 H 0.685081 0.674351 0.059408
C30_3 C 0.7506(11) 0.6369(11) 0.0143(10)
H23_3 H 0.766440 0.614812 0.047110
H24_3 H 0.846939 0.682385 0.029552
O25_3 O 0.5344(8) 0.6970(7) 0.2981(8)
O26_3 O 0.5498(8) 0.7260(7) 0.3744(7)
O28_2 O 0.6796(7) 0.5540(6) 0.7236(6)
O29_3 O 0.5693(8) 0.7572(7) 0.5979(7)
O30_3 O 0.5666(6) 0.7152(6) 0.6660(6)
N3_3 N 0.7348(7) 0.6907(7) 0.5303(7)
H27_3 H 0.695232 0.703669 0.519297
C39_3 C 0.6984(10) 0.5653(7) 0.3277(8)
C40_3 C 0.6797(9) 0.5977(8) 0.3638(8)
C41_3 C 0.7099(9) 0.6031(8) 0.4197(9)
H28_3 H 0.743588 0.583746 0.437326
C42_3 C 0.6943(9) 0.6334(8) 0.4494(8)
C43_3 C 0.6447(9) 0.6629(8) 0.4281(9)
H29_3 H 0.634022 0.682989 0.452037
C44_3 C 0.6125(9) 0.6625(9) 0.3739(10)
C45_3 C 0.5652(11) 0.6998(10) 0.3472(16)
C46_3 C 0.6291(10) 0.6270(9) 0.3413(9)
H30_3 H 0.605165 0.623226 0.303311
C47_3 C 0.7289(9) 0.6400(8) 0.5108(8)
H31_3 H 0.767378 0.625932 0.520057
H32_3 H 0.711000 0.619856 0.530823
C48_3 C 0.7618(8) 0.7249(6) 0.5049(9)
H33_3 H 0.758330 0.710177 0.469439
H34_3 H 0.802796 0.727198 0.529133
C49_3 C 0.7625(9) 0.6962(8) 0.5905(8)
H35_3 H 0.798574 0.676868 0.605011
H36_3 H 0.771491 0.732203 0.600204
C50_3 C 0.7231(12) 0.5720(6) 0.7108(8)
C51_3 C 0.6385(5) 0.6882(5) 0.6345(6)
C52_3 C 0.6514(6) 0.6446(6) 0.6666(5)
H37_3 H 0.627154 0.633841 0.683598
C53_3 C 0.6997(7) 0.6168(4) 0.6737(5)
C54_3 C 0.7352(5) 0.6326(6) 0.6488(6)
H38_3 H 0.768203 0.613597 0.653698
C55_3 C 0.7223(6) 0.6761(6) 0.6168(6)
C56_3 C 0.6739(6) 0.7039(4) 0.6096(5)
H39_3 H 0.665115 0.733674 0.587725
C57_3 C 0.5896(7) 0.7220(8) 0.6289(11)
O36_3 O 0.6853(7) 0.9489(7) 0.1633(7)
O37_3 O 0.5643(12) 0.8061(10) 0.0533(12)
C67_3 C 0.7700(10) 0.7719(9) 0.0103(11)
H46_3 H 0.809239 0.761186 0.017675
H47_3 H 0.769375 0.785007 0.045008
H48_3 H 0.788390 0.874846 0.008695
C69_3 C 0.7194(12) 0.9338(8) 0.1446(7)
C70_3 C 0.5823(7) 0.8054(7) 0.0166(17)
C71_3 C 0.6643(9) 0.8390(6) 0.0018(6)
C72_3 C 0.6310(7) 0.8419(7) 0.0320(9)
C73_3 C 0.6474(9) 0.8732(8) 0.0779(8)
H51_3 H 0.624700 0.875152 0.098522
C74_3 C 0.6970(10) 0.9015(6) 0.0937(6)
C75_3 C 0.7302(7) 0.8986(7) 0.0636(9)
H52_3 H 0.764124 0.917919 0.074383
C76_3 C 0.7139(8) 0.8673(8) 0.0176(8)
O40_2 O 0.9574(12) 0.6743(11) 0.6556(12)
Cu15_2 Cu 0.51423(15) 0.76471(15) 0.66549(13)
Cu16_2 Cu 0.48577(15) 0.76471(15) 0.33451(13)
Cu19_5 Cu 0.500000 0.7513(5) 0.000000
O52_2 O 0.7074(6) 0.9459(5) 0.7297(5)
O54_2 O 0.7947(6) 0.9485(5) 0.7986(5)
H59 H 0.620287 0.965637 0.613728
Cu6_6 Cu 1.000000 0.7487(5) 1.000000
O13_3 O 0.7288(7) 0.5521(6) 0.8355(6)
O15_2 O 0.9357(12) 0.6939(10) 0.9467(12)
O21_2 O 0.9424(18) 0.8126(16) 0.9417(19)
O22_5 O 0.6076(12) 0.500000 0.7757(11)
C29_3 C 0.7300(10) 0.7281(9) 0.9897(11)
H20_3 H 0.690761 0.738814 0.982325
H21_3 H 0.730625 0.714993 0.954992
H22_3 H 0.711610 0.625154 0.991305
C31_3 C 0.7806(12) 0.5662(8) 0.8554(7)
C32_3 C 0.9177(7) 0.6946(7) 0.9834(17)
C33_3 C 0.8357(9) 0.6610(6) 0.9982(6)
C34_3 C 0.8690(7) 0.6581(7) 0.9680(9)
C35_3 C 0.8526(9) 0.6268(8) 0.9221(8)
H25_3 H 0.875300 0.624848 0.901478
C36_3 C 0.8030(10) 0.5985(6) 0.9063(6)
C37_3 C 0.7698(7) 0.6014(7) 0.9364(9)
H26_3 H 0.735876 0.582081 0.925617
C38_3 C 0.7861(8) 0.6327(8) 0.9824(8)
O31_3 O 0.5760(7) 0.8090(6) 0.7066(7)
O32_3 O 0.5782(7) 0.7658(7) 0.7804(7)
O38_3 O 0.5687(12) 0.7837(12) 0.9722(13)
N4_3 N 0.7516(8) 0.8111(8) 0.9682(8)
H40_3 H 0.710753 0.802602 0.945944
C58_3 C 0.5972(9) 0.8016(11) 0.7577(13)
C59_3 C 0.6539(8) 0.8253(9) 0.7911(9)
C60_3 C 0.6900(10) 0.8071(9) 0.8434(10)
H41_3 H 0.676679 0.779990 0.858514
C61_3 C 0.7433(10) 0.8259(9) 0.8741(10)
C62_3 C 0.7582(9) 0.8684(9) 0.8497(8)
H42_3 H 0.792918 0.885125 0.870857
C63_3 C 0.7257(9) 0.8877(7) 0.7967(8)
C64_3 C 0.7491(9) 0.9305(7) 0.7751(8)
C65_3 C 0.6740(9) 0.8672(8) 0.7719(8)
H43_3 H 0.648748 0.882248 0.738416
C66_3 C 0.7785(11) 0.8069(10) 0.9265(11)
H44_3 H 0.787095 0.770904 0.922785
H45_3 H 0.814919 0.825649 0.940592
C68_3 C 0.7494(11) 0.8631(11) 0.9857(10)
H49_3 H 0.733560 0.885188 0.952890
H50_3 H 0.653061 0.817615 0.970448
Cu19_6 Cu 0.500000 0.7513(5) 1.000000
O17_5 O 0.3630(9) 0.000000 0.3824(8)
O18_5 O 0.0937(10) 0.000000 0.1700(9)
O19_5 O 0.3820(14) -0.000000 0.7797(13)
H57_2 H 0.0653191 0.0101136 0.184634
H58_2 H 0.0926175 0.0243126 0.141098
H60_2 H 0.387442 0.0245073 0.373741
H67_2 H 0.379734 0.00826107 0.742383
H68_2 H 0.405708 0.0256703 0.80644
O13_4 O 0.2712(7) 0.5521(6) 0.1645(6)
O22_6 O 0.3924(12) 0.500000 0.2243(11)
C29_4 C 0.2700(10) 0.7281(9) 0.0103(11)
H20_4 H 0.309239 0.738814 0.017675
H21_4 H 0.269375 0.714993 0.045008
H22_4 H 0.288390 0.625154 0.008695
C31_4 C 0.2194(12) 0.5662(8) 0.1446(7)
C32_4 C 0.0823(7) 0.6946(7) 0.0166(17)
C33_4 C 0.1643(9) 0.6610(6) 0.0018(6)
C34_4 C 0.1310(7) 0.6581(7) 0.0320(9)
C35_4 C 0.1474(9) 0.6268(8) 0.0779(8)
H25_4 H 0.124700 0.624848 0.098522
C36_4 C 0.1970(10) 0.5985(6) 0.0937(6)
C37_4 C 0.2302(7) 0.6014(7) 0.0636(9)
H26_4 H 0.264124 0.582081 0.074383
C38_4 C 0.2139(8) 0.6327(8) 0.0176(8)
O31_4 O 0.4240(7) 0.8090(6) 0.2934(7)
O32_4 O 0.4218(7) 0.7658(7) 0.2196(7)
O33_2 O 0.2926(6) 0.9459(5) 0.2703(5)
O34_2 O 0.2053(6) 0.9485(5) 0.2014(5)
O38_4 O 0.4313(12) 0.7837(12) 0.0278(13)
N4_4 N 0.2484(8) 0.8111(8) 0.0318(8)
H40_4 H 0.289247 0.802602 0.054056
C58_4 C 0.4028(9) 0.8016(11) 0.2423(13)
C59_4 C 0.3461(8) 0.8253(9) 0.2089(9)
C60_4 C 0.3100(10) 0.8071(9) 0.1566(10)
H41_4 H 0.323321 0.779990 0.141486
C61_4 C 0.2567(10) 0.8259(9) 0.1259(10)
C62_4 C 0.2418(9) 0.8684(9) 0.1503(8)
H42_4 H 0.207082 0.885125 0.129143
C63_4 C 0.2743(9) 0.8877(7) 0.2033(8)
C64_4 C 0.2509(9) 0.9305(7) 0.2249(8)
C65_4 C 0.3260(9) 0.8672(8) 0.2281(8)
H43_4 H 0.351252 0.882248 0.261584
C66_4 C 0.2215(11) 0.8069(10) 0.0735(11)
H44_4 H 0.212905 0.770904 0.077215
H45_4 H 0.185081 0.825649 0.059408
C68_4 C 0.2506(11) 0.8631(11) 0.0143(10)
H49_4 H 0.266440 0.885188 0.047110
H50_4 H 0.346939 0.817615 0.029552
O47_2 O 0.3204(7) 0.5540(6) 0.2764(6)
O1_4 O 0.2474(6) 0.9502(5) 0.3484(5)
O2_4 O 0.1605(6) 0.9481(5) 0.2825(6)
O5_4 O 0.2666(7) 0.9498(7) 0.7264(6)
O10_4 O 0.0782(7) 0.7342(7) 0.7804(7)
O17_6 O 0.3630(9) 1.000000 0.3824(8)
O18_6 O 0.0937(10) 1.000000 0.1700(9)
O19_6 O 0.3820(14) 1.000000 0.7797(13)
N1_4 N 0.2348(7) 0.8093(7) 0.5303(7)
H1_4 H 0.195232 0.796331 0.519297
N2_4 N 0.2516(8) 0.6889(8) 0.9682(8)
H2_4 H 0.210753 0.697398 0.945944
C1_4 C 0.1984(10) 0.9347(7) 0.3277(8)
C2_4 C 0.1797(9) 0.9023(8) 0.3638(8)
C3_4 C 0.2099(9) 0.8969(8) 0.4197(9)
H3_4 H 0.243588 0.916254 0.437326
C4_4 C 0.1943(9) 0.8666(8) 0.4494(8)
C5_4 C 0.1447(9) 0.8371(8) 0.4281(9)
H4_4 H 0.134022 0.817011 0.452037
C6_4 C 0.1125(9) 0.8375(9) 0.3739(10)
C7_4 C 0.0652(11) 0.8002(10) 0.3472(16)
C8_4 C 0.1291(10) 0.8730(9) 0.3413(9)
H5_4 H 0.105165 0.876774 0.303311
C9_4 C 0.2289(9) 0.8600(8) 0.5108(8)
H6_4 H 0.267378 0.874068 0.520057
H7_4 H 0.211000 0.880144 0.530823
C10_4 C 0.2618(8) 0.7751(6) 0.5049(9)
H8_4 H 0.258330 0.789823 0.469439
H9_4 H 0.302796 0.772802 0.529133
C11_4 C 0.2625(9) 0.8038(8) 0.5905(8)
H10_4 H 0.298574 0.823132 0.605011
H11_4 H 0.271491 0.767797 0.600204
C12_4 C 0.2231(12) 0.9280(6) 0.7108(8)
C13_4 C 0.1385(5) 0.8118(5) 0.6345(6)
C14_4 C 0.1514(6) 0.8554(6) 0.6666(5)
H12_4 H 0.127154 0.866159 0.683598
C15_4 C 0.1997(7) 0.8832(4) 0.6737(5)
C16_4 C 0.2352(5) 0.8674(6) 0.6488(6)
H13_4 H 0.268203 0.886403 0.653698
C17_4 C 0.2223(6) 0.8239(6) 0.6168(6)
C18_4 C 0.1739(6) 0.7961(4) 0.6096(5)
H14_4 H 0.165115 0.766326 0.587725
C19_4 C 0.0896(7) 0.7780(8) 0.6289(11)
C20_4 C 0.0972(9) 0.6984(11) 0.7577(13)
C21_4 C 0.1539(8) 0.6747(9) 0.7911(9)
C22_4 C 0.1900(10) 0.6929(9) 0.8434(10)
H15_4 H 0.176679 0.720010 0.858514
C23_4 C 0.2433(10) 0.6741(9) 0.8741(10)
C24_4 C 0.2582(9) 0.6316(9) 0.8497(8)
H16_4 H 0.292918 0.614875 0.870857
C25_4 C 0.2257(9) 0.6123(7) 0.7967(8)
C26_4 C 0.2491(9) 0.5695(7) 0.7751(8)
C27_4 C 0.1740(9) 0.6328(8) 0.7719(8)
H17_4 H 0.148748 0.617752 0.738416
C28_4 C 0.2785(11) 0.6931(10) 0.9265(11)
H18_4 H 0.287095 0.729096 0.922785
H19_4 H 0.314919 0.674351 0.940592
C30_4 C 0.2494(11) 0.6369(11) 0.9857(10)
H23_4 H 0.233560 0.614812 0.952890
H24_4 H 0.153061 0.682385 0.970448
O25_4 O 0.4656(8) 0.6970(7) 0.7019(8)
O26_4 O 0.4502(8) 0.7260(7) 0.6256(7)
O29_4 O 0.4307(8) 0.7572(7) 0.4021(7)
O30_4 O 0.4334(6) 0.7152(6) 0.3340(6)
N3_4 N 0.2652(7) 0.6907(7) 0.4697(7)
H27_4 H 0.304768 0.703669 0.480703
C39_4 C 0.3016(10) 0.5653(7) 0.6723(8)
C40_4 C 0.3203(9) 0.5977(8) 0.6362(8)
C41_4 C 0.2901(9) 0.6031(8) 0.5803(9)
H28_4 H 0.256412 0.583746 0.562674
C42_4 C 0.3057(9) 0.6334(8) 0.5506(8)
C43_4 C 0.3553(9) 0.6629(8) 0.5719(9)
H29_4 H 0.365978 0.682989 0.547963
C44_4 C 0.3875(9) 0.6625(9) 0.6261(10)
C45_4 C 0.4348(11) 0.6998(10) 0.6528(16)
C46_4 C 0.3709(10) 0.6270(9) 0.6587(9)
H30_4 H 0.394835 0.623226 0.696689
C47_4 C 0.2711(9) 0.6400(8) 0.4892(8)
H31_4 H 0.232622 0.625932 0.479943
H32_4 H 0.289000 0.619856 0.469177
C48_4 C 0.2382(8) 0.7249(6) 0.4951(9)
H33_4 H 0.241670 0.710177 0.530561
H34_4 H 0.197204 0.727198 0.470867
C49_4 C 0.2375(9) 0.6962(8) 0.4095(8)
H35_4 H 0.201426 0.676868 0.394989
H36_4 H 0.228509 0.732203 0.399796
C50_4 C 0.2769(12) 0.5720(6) 0.2892(8)
C51_4 C 0.3615(5) 0.6882(5) 0.3655(6)
C52_4 C 0.3486(6) 0.6446(6) 0.3334(5)
H37_4 H 0.372846 0.633841 0.316402
C53_4 C 0.3003(7) 0.6168(4) 0.3263(5)
C54_4 C 0.2648(5) 0.6326(6) 0.3512(6)
H38_4 H 0.231797 0.613597 0.346302
C55_4 C 0.2777(6) 0.6761(6) 0.3832(6)
C56_4 C 0.3261(6) 0.7039(4) 0.3904(5)
H39_4 H 0.334885 0.733674 0.412275
C57_4 C 0.4104(7) 0.7220(8) 0.3711(11)
O36_4 O 0.3147(7) 0.9489(7) 0.8367(7)
O37_4 O 0.4357(12) 0.8061(10) 0.9467(12)
C67_4 C 0.2300(10) 0.7719(9) 0.9897(11)
H46_4 H 0.190761 0.761186 0.982325
H47_4 H 0.230625 0.785007 0.954992
H48_4 H 0.211610 0.874846 0.991305
C69_4 C 0.2806(12) 0.9338(8) 0.8554(7)
C70_4 C 0.4177(7) 0.8054(7) 0.9834(17)
C71_4 C 0.3357(9) 0.8390(6) 0.9982(6)
C72_4 C 0.3690(7) 0.8419(7) 0.9680(9)
C73_4 C 0.3526(9) 0.8732(8) 0.9221(8)
H51_4 H 0.375300 0.875152 0.901478
C74_4 C 0.3030(10) 0.9015(6) 0.9063(6)
C75_4 C 0.2698(7) 0.8986(7) 0.9364(9)
H52_4 H 0.235876 0.917919 0.925617
C76_4 C 0.2861(8) 0.8673(8) 0.9824(8)
H59_2 H 0.379713 0.965637 0.386272
H66_3 H 0.915848 0.0252018 0.251868
O21_3 O 0.5576(18) 0.6874(16) 0.0583(19)
H65_3 H 0.909396 0.965883 0.235048
O20_3 O 0.4574(12) 0.8257(11) 0.6556(12)
O39_3 O 0.4424(18) 0.6874(16) 0.9417(19)
O40_3 O 0.5426(12) 0.8257(11) 0.3444(12)
H66_4 H 0.0841515 0.0252018 0.748132
H65_4 H 0.0906042 0.965883 0.764952
O21_4 O 0.0576(18) 0.1874(16) 0.0583(19)
O40_4 O 0.0426(12) 0.3257(11) 0.3444(12)
H59_3 H 0.379713 0.0343629 0.386272
H57_3 H 0.0653191 0.989886 0.184634
H58_3 H 0.0926175 0.975687 0.141098
H60_3 H 0.387442 0.975493 0.373741
H67_3 H 0.379734 0.991739 0.742383
H68_3 H 0.405708 0.97433 0.80644
O20_4 O 0.9574(12) 0.3257(11) 0.6556(12)
O39_4 O 0.9424(18) 0.1874(16) 0.9417(19)
H59_4 H 0.620287 0.0343629 0.613728
H57_4 H 0.934681 0.989886 0.815366
H58_4 H 0.907383 0.975687 0.858902
H60_4 H 0.612558 0.975493 0.626259
H67_4 H 0.620266 0.991739 0.257617
H68_4 H 0.594292 0.97433 0.19356
loop_
_geom_bond_atom_site_label_1
_geom_bond_atom_site_label_2
_geom_bond_site_symmetry_1
_geom_bond_site_symmetry_2
Cu1 O1 1_555 1_555
Cu2 O2 1_555 1_555
Cu3 O5 1_555 1_555
Cu4 O7 1_555 1_555
O1 C1 1_555 1_555
O2 C1 1_555 1_555
O3 C7 1_555 1_555
O4 C7 1_555 1_555
O5 C12 1_555 1_555
O6 C12 1_555 1_555
O7 C19 1_555 1_555
O8 Cu4 1_555 1_555
O9 Cu4 1_555 1_555
O10 C20 1_555 1_555
O11 C26 1_555 1_555
O12 C26 1_555 1_555
O16 Cu6 1_555 1_555
O17 Cu1 1_555 1_555
O18 Cu2 1_555 1_555
O19 Cu3 1_555 1_555
O20 Cu4 1_555 1_555
N1 H1 1_555 1_555
N2 H2 1_555 1_555
C1 C2 1_555 1_555
C2 C3 1_555 1_555
C3 H3 1_555 1_555
C4 C3 1_555 1_555
C5 C4 1_555 1_555
H4 C5 1_555 1_555
C6 C5 1_555 1_555
C7 C6 1_555 1_555
C8 C2 1_555 1_555
H5 C8 1_555 1_555
C9 N1 1_555 1_555
H6 C9 1_555 1_555
H7 C9 1_555 1_555
C10 N1 1_555 1_555
H8 C10 1_555 1_555
H9 C10 1_555 1_555
C11 N1 1_555 1_555
H10 C11 1_555 1_555
H11 C11 1_555 1_555
C12 C15 1_555 1_555
C13 C14 1_555 1_555
C14 H12 1_555 1_555
C15 C14 1_555 1_555
C16 C15 1_555 1_555
H13 C16 1_555 1_555
C17 C11 1_555 1_555
C18 C13 1_555 1_555
H14 C18 1_555 1_555
C19 O8 1_555 1_555
C20 O9 1_555 1_555
C21 C20 1_555 1_555
C22 C21 1_555 1_555
H15 C22 1_555 1_555
C23 C22 1_555 1_555
C24 C23 1_555 1_555
H16 C24 1_555 1_555
C25 C24 1_555 1_555
C26 C25 1_555 1_555
C27 C21 1_555 1_555
H17 C27 1_555 1_555
C28 N2 1_555 1_555
H18 C28 1_555 1_555
H19 C28 1_555 1_555
C30 N2 1_555 1_555
H23 C30 1_555 1_555
O23 C39 1_555 1_555
O24 C39 1_555 1_555
O25 C45 1_555 1_555
O26 C45 1_555 1_555
O27 C50 1_555 1_555
O28 C50 1_555 1_555
O29 C57 1_555 1_555
O30 C57 1_555 1_555
N3 H27 1_555 1_555
C39 C40 1_555 1_555
C40 C41 1_555 1_555
C41 H28 1_555 1_555
C42 C41 1_555 1_555
C43 C42 1_555 1_555
H29 C43 1_555 1_555
C44 C43 1_555 1_555
C45 C44 1_555 1_555
C46 C40 1_555 1_555
H30 C46 1_555 1_555
C47 N3 1_555 1_555
H31 C47 1_555 1_555
H32 C47 1_555 1_555
C48 C10 1_555 1_555
H33 C48 1_555 1_555
H34 C48 1_555 1_555
C49 N3 1_555 1_555
H35 C49 1_555 1_555
H36 C49 1_555 1_555
C50 C53 1_555 1_555
C51 C52 1_555 1_555
C52 H37 1_555 1_555
C53 C52 1_555 1_555
C54 C53 1_555 1_555
H38 C54 1_555 1_555
C55 C49 1_555 1_555
C56 C51 1_555 1_555
H39 C56 1_555 1_555
C57 C51 1_555 1_555
O35 C69 1_555 1_555
O36 Cu3 1_555 1_555
O37 C70 1_555 1_555
H46 C67 1_555 1_555
H47 C67 1_555 1_555
C69 O36 1_555 1_555
C70 C72 1_555 1_555
C72 C71 1_555 1_555
C73 C72 1_555 1_555
H51 C73 1_555 1_555
C74 C69 1_555 1_555
C75 C74 1_555 1_555
H52 C75 1_555 1_555
O39 Cu6 1_555 1_555
Cu7 O3 1_555 1_555
O40 Cu7 1_555 1_555
Cu9 O11 1_555 1_555
Cu11 O12 1_555 1_555
Cu13 O27 1_555 1_555
Cu15 O29 1_555 1_555
Cu17 O28 1_555 1_555
Cu18 O6 1_555 1_555
Cu19 O37 1_555 1_555
O41 Cu1 1_555 1_555
O42 Cu2 1_555 1_555
O43 Cu4 1_555 1_555
O44 Cu4 1_555 1_555
O45 Cu3 1_555 1_555
O48 Cu7 1_555 1_555
O49 Cu7 1_555 1_555
O50 Cu7 1_555 1_555
O51 Cu1 1_555 1_555
O52 Cu1 1_555 1_555
O53 Cu2 1_555 1_555
O54 Cu2 1_555 1_555
O56 Cu3 1_555 1_555
O57 Cu6 1_555 1_555
O4 Cu7 1_555 1_555
C4 C9 1_555 1_555
C6 C8 1_555 1_555
C13 C19 1_555 1_555
C16 C17 1_555 1_555
C17 C18 1_555 1_555
C23 C28 1_555 1_555
C25 C27 1_555 1_555
O23 Cu9 1_555 1_555
O24 Cu11 1_555 1_555
O30 Cu15 1_555 1_555
N3 C48 1_555 1_555
C42 C47 1_555 1_555
C44 C46 1_555 1_555
C54 C55 1_555 1_555
C55 C56 1_555 1_555
O35 Cu18 1_555 1_555
C71 C76 1_555 1_555
C73 C74 1_555 1_555
C75 C76 1_555 1_555
Cu17 O13 1_555 1_555
Cu6_2 O15 1_555 1_555
O13 C31 1_555 1_555
O14 C31 1_555 1_555
O15 C32 1_555 1_555
O21 Cu6_2 1_555 1_555
O22 Cu17 1_555 1_555
H20 C29 1_555 1_555
H21 C29 1_555 1_555
C31 C36 1_555 1_555
C34 C32 1_555 1_555
C35 C34 1_555 1_555
H25 C35 1_555 1_555
C36 C35 1_555 1_555
C37 C36 1_555 1_555
H26 C37 1_555 1_555
O31 C58 1_555 1_555
O32 C58 1_555 1_555
O52 C64 1_555 1_555
O54 C64 1_555 1_555
N4 H40 1_555 1_555
C58 C59 1_555 1_555
C59 C60 1_555 1_555
C60 H41 1_555 1_555
C61 C60 1_555 1_555
C62 C61 1_555 1_555
H42 C62 1_555 1_555
C63 C62 1_555 1_555
C64 C63 1_555 1_555
C65 C59 1_555 1_555
H43 C65 1_555 1_555
C66 N4 1_555 1_555
H44 C66 1_555 1_555
H45 C66 1_555 1_555
C68 N4 1_555 1_555
H49 C68 1_555 1_555
Cu13 O14 1_555 1_555
Cu15 O31 1_555 1_555
O58 Cu6_2 1_555 1_555
C33 C34 1_555 1_555
C33 C38 1_555 1_555
C37 C38 1_555 1_555
O38 Cu19_2 1_555 1_555
C61 C66 1_555 1_555
C63 C65 1_555 1_555
O22 H65 1_555 1_555
O22_2 Cu17_2 1_555 1_555
O46 Cu17_2 1_555 1_555
O55 Cu17_2 1_555 1_555
O22_2 H66 1_555 1_555
Cu5 O13_2 1_555 1_555
O13_2 C31_2 1_555 1_555
O14_2 C31_2 1_555 1_555
O57 C32_2 1_555 1_555
O22_3 Cu5 1_555 1_555
H20_2 C29_2 1_555 1_555
H21_2 C29_2 1_555 1_555
C31_2 C36_2 1_555 1_555
C34_2 C32_2 1_555 1_555
C35_2 C34_2 1_555 1_555
H25_2 C35_2 1_555 1_555
C36_2 C35_2 1_555 1_555
C37_2 C36_2 1_555 1_555
H26_2 C37_2 1_555 1_555
O31_2 C58_2 1_555 1_555
O32_2 C58_2 1_555 1_555
O33 C64_2 1_555 1_555
O34 C64_2 1_555 1_555
N4_2 H40_2 1_555 1_555
C58_2 C59_2 1_555 1_555
C59_2 C60_2 1_555 1_555
C60_2 H41_2 1_555 1_555
C61_2 C60_2 1_555 1_555
C62_2 C61_2 1_555 1_555
H42_2 C62_2 1_555 1_555
C63_2 C62_2 1_555 1_555
C64_2 C63_2 1_555 1_555
C65_2 C59_2 1_555 1_555
H43_2 C65_2 1_555 1_555
C66_2 N4_2 1_555 1_555
H44_2 C66_2 1_555 1_555
H45_2 C66_2 1_555 1_555
C68_2 N4_2 1_555 1_555
H49_2 C68_2 1_555 1_555
Cu8 O33 1_555 1_555
Cu10 O34 1_555 1_555
Cu12 O14_2 1_555 1_555
Cu16 O31_2 1_555 1_555
O47 Cu5 1_555 1_555
C33_2 C34_2 1_555 1_555
C33_2 C38_2 1_555 1_555
C37_2 C38_2 1_555 1_555
O38_2 Cu19_3 1_555 1_555
C61_2 C66_2 1_555 1_555
C63_2 C65_2 1_555 1_555
O22_3 H65_2 1_555 1_555
Cu8 O1_2 1_555 1_555
Cu10 O2_2 1_555 1_555
Cu3_2 O5_2 1_555 1_555
O1_2 C1_2 1_555 1_555
O2_2 C1_2 1_555 1_555
O43 C7_2 1_555 1_555
O44 C7_2 1_555 1_555
O5_2 C12_2 1_555 1_555
O6_2 C12_2 1_555 1_555
O48 C19_2 1_555 1_555
O10_2 C20_2 1_555 1_555
O11_2 C26_2 1_555 1_555
O12_2 C26_2 1_555 1_555
O17_2 Cu8 1_555 1_555
O18_2 Cu10 1_555 1_555
O19_2 Cu3_2 1_555 1_555
N1_2 H1_2 1_555 1_555
N2_2 H2_2 1_555 1_555
C1_2 C2_2 1_555 1_555
C2_2 C3_2 1_555 1_555
C3_2 H3_2 1_555 1_555
C4_2 C3_2 1_555 1_555
C5_2 C4_2 1_555 1_555
H4_2 C5_2 1_555 1_555
C6_2 C5_2 1_555 1_555
C7_2 C6_2 1_555 1_555
C8_2 C2_2 1_555 1_555
H5_2 C8_2 1_555 1_555
C9_2 N1_2 1_555 1_555
H6_2 C9_2 1_555 1_555
H7_2 C9_2 1_555 1_555
C10_2 N1_2 1_555 1_555
H8_2 C10_2 1_555 1_555
H9_2 C10_2 1_555 1_555
C11_2 N1_2 1_555 1_555
H10_2 C11_2 1_555 1_555
H11_2 C11_2 1_555 1_555
C12_2 C15_2 1_555 1_555
C13_2 C14_2 1_555 1_555
C14_2 H12_2 1_555 1_555
C15_2 C14_2 1_555 1_555
C16_2 C15_2 1_555 1_555
H13_2 C16_2 1_555 1_555
C17_2 C11_2 1_555 1_555
C18_2 C13_2 1_555 1_555
H14_2 C18_2 1_555 1_555
C19_2 O49 1_555 1_555
C20_2 O50 1_555 1_555
C21_2 C20_2 1_555 1_555
C22_2 C21_2 1_555 1_555
H15_2 C22_2 1_555 1_555
C23_2 C22_2 1_555 1_555
C24_2 C23_2 1_555 1_555
H16_2 C24_2 1_555 1_555
C25_2 C24_2 1_555 1_555
C26_2 C25_2 1_555 1_555
C27_2 C21_2 1_555 1_555
H17_2 C27_2 1_555 1_555
C28_2 N2_2 1_555 1_555
H18_2 C28_2 1_555 1_555
H19_2 C28_2 1_555 1_555
C30_2 N2_2 1_555 1_555
H23_2 C30_2 1_555 1_555
O23_2 C39_2 1_555 1_555
O24_2 C39_2 1_555 1_555
O25_2 C45_2 1_555 1_555
O26_2 C45_2 1_555 1_555
O27_2 C50_2 1_555 1_555
O47 C50_2 1_555 1_555
O29_2 C57_2 1_555 1_555
O30_2 C57_2 1_555 1_555
N3_2 H27_2 1_555 1_555
C39_2 C40_2 1_555 1_555
C40_2 C41_2 1_555 1_555
C41_2 H28_2 1_555 1_555
C42_2 C41_2 1_555 1_555
C43_2 C42_2 1_555 1_555
H29_2 C43_2 1_555 1_555
C44_2 C43_2 1_555 1_555
C45_2 C44_2 1_555 1_555
C46_2 C40_2 1_555 1_555
H30_2 C46_2 1_555 1_555
C47_2 N3_2 1_555 1_555
H31_2 C47_2 1_555 1_555
H32_2 C47_2 1_555 1_555
C48_2 C10_2 1_555 1_555
H33_2 C48_2 1_555 1_555
H34_2 C48_2 1_555 1_555
C49_2 N3_2 1_555 1_555
H35_2 C49_2 1_555 1_555
H36_2 C49_2 1_555 1_555
C50_2 C53_2 1_555 1_555
C51_2 C52_2 1_555 1_555
C52_2 H37_2 1_555 1_555
C53_2 C52_2 1_555 1_555
C54_2 C53_2 1_555 1_555
H38_2 C54_2 1_555 1_555
C55_2 C49_2 1_555 1_555
C56_2 C51_2 1_555 1_555
H39_2 C56_2 1_555 1_555
C57_2 C51_2 1_555 1_555
O35_2 C69_2 1_555 1_555
O36_2 Cu3_2 1_555 1_555
O37_2 C70_2 1_555 1_555
H46_2 C67_2 1_555 1_555
H47_2 C67_2 1_555 1_555
C69_2 O36_2 1_555 1_555
C70_2 C72_2 1_555 1_555
C72_2 C71_2 1_555 1_555
C73_2 C72_2 1_555 1_555
H51_2 C73_2 1_555 1_555
C74_2 C69_2 1_555 1_555
C75_2 C74_2 1_555 1_555
H52_2 C75_2 1_555 1_555
Cu9_3 O11_2 1_555 1_555
Cu11_3 O12_2 1_555 1_555
Cu12 O27_2 1_555 1_555
Cu16 O29_2 1_555 1_555
Cu18_2 O6_2 1_555 1_555
Cu19_4 O37_2 1_555 1_555
O41_2 Cu8 1_555 1_555
O42_2 Cu10 1_555 1_555
O45_2 Cu3_2 1_555 1_555
O51_2 Cu8 1_555 1_555
O53_2 Cu10 1_555 1_555
O56_2 Cu3_2 1_555 1_555
C4_2 C9_2 1_555 1_555
C6_2 C8_2 1_555 1_555
C13_2 C19_2 1_555 1_555
C16_2 C17_2 1_555 1_555
C17_2 C18_2 1_555 1_555
C23_2 C28_2 1_555 1_555
C25_2 C27_2 1_555 1_555
O23_2 Cu9_3 1_555 1_555
O24_2 Cu11_3 1_555 1_555
O30_2 Cu16 1_555 1_555
N3_2 C48_2 1_555 1_555
C42_2 C47_2 1_555 1_555
C44_2 C46_2 1_555 1_555
C54_2 C55_2 1_555 1_555
C55_2 C56_2 1_555 1_555
O35_2 Cu18_2 1_555 1_555
C71_2 C76_2 1_555 1_555
C73_2 C74_2 1_555 1_555
C75_2 C76_2 1_555 1_555
O22_4 Cu5_2 1_555 1_555
O46_2 Cu5_2 1_555 1_555
O55_2 Cu5_2 1_555 1_555
O22_4 H66_2 1_555 1_555
O39_2 Cu6_3 1_555 1_555
O48_2 Cu7_2 1_555 1_555
O49_2 Cu7_2 1_555 1_555
O50_2 Cu7_2 1_555 1_555
O57_2 Cu6_3 1_555 1_555
O58_2 Cu6_4 1_555 1_555
O17_3 Cu9_3 1_555 1_555
O18_3 Cu11_3 1_555 1_555
O19_3 Cu12 1_555 1_555
O18_3 H57 1_555 1_555
O18_3 H58 1_555 1_555
O17_3 H60 1_555 1_555
O19_3 H67 1_555 1_555
O19_3 H68 1_555 1_555
Cu9_4 O1_3 1_555 1_555
Cu11_4 O2_3 1_555 1_555
Cu12_2 O5_3 1_555 1_555
Cu4_2 O7_2 1_555 1_555
O1_3 C1_3 1_555 1_555
O2_3 C1_3 1_555 1_555
O3_2 C7_3 1_555 1_555
O4_2 C7_3 1_555 1_555
O5_3 C12_3 1_555 1_555
O46_2 C12_3 1_555 1_555
O7_2 C19_3 1_555 1_555
O8_2 Cu4_2 1_555 1_555
O9_2 Cu4_2 1_555 1_555
O10_3 C20_3 1_555 1_555
O51_2 C26_3 1_555 1_555
O53_2 C26_3 1_555 1_555
O16_2 Cu6_5 1_555 1_555
O17_4 Cu9_4 1_555 1_555
O18_4 Cu11_4 1_555 1_555
O19_4 Cu12_2 1_555 1_555
N1_3 H1_3 1_555 1_555
N2_3 H2_3 1_555 1_555
C1_3 C2_3 1_555 1_555
C2_3 C3_3 1_555 1_555
C3_3 H3_3 1_555 1_555
C4_3 C3_3 1_555 1_555
C5_3 C4_3 1_555 1_555
H4_3 C5_3 1_555 1_555
C6_3 C5_3 1_555 1_555
C7_3 C6_3 1_555 1_555
C8_3 C2_3 1_555 1_555
H5_3 C8_3 1_555 1_555
C9_3 N1_3 1_555 1_555
H6_3 C9_3 1_555 1_555
H7_3 C9_3 1_555 1_555
C10_3 N1_3 1_555 1_555
H8_3 C10_3 1_555 1_555
H9_3 C10_3 1_555 1_555
C11_3 N1_3 1_555 1_555
H10_3 C11_3 1_555 1_555
H11_3 C11_3 1_555 1_555
C12_3 C15_3 1_555 1_555
C13_3 C14_3 1_555 1_555
C14_3 H12_3 1_555 1_555
C15_3 C14_3 1_555 1_555
C16_3 C15_3 1_555 1_555
H13_3 C16_3 1_555 1_555
C17_3 C11_3 1_555 1_555
C18_3 C13_3 1_555 1_555
H14_3 C18_3 1_555 1_555
C19_3 O8_2 1_555 1_555
C20_3 O9_2 1_555 1_555
C21_3 C20_3 1_555 1_555
C22_3 C21_3 1_555 1_555
H15_3 C22_3 1_555 1_555
C23_3 C22_3 1_555 1_555
C24_3 C23_3 1_555 1_555
H16_3 C24_3 1_555 1_555
C25_3 C24_3 1_555 1_555
C26_3 C25_3 1_555 1_555
C27_3 C21_3 1_555 1_555
H17_3 C27_3 1_555 1_555
C28_3 N2_3 1_555 1_555
H18_3 C28_3 1_555 1_555
H19_3 C28_3 1_555 1_555
C30_3 N2_3 1_555 1_555
H23_3 C30_3 1_555 1_555
O41_2 C39_3 1_555 1_555
O42_2 C39_3 1_555 1_555
O25_3 C45_3 1_555 1_555
O26_3 C45_3 1_555 1_555
O45_2 C50_3 1_555 1_555
O28_2 C50_3 1_555 1_555
O29_3 C57_3 1_555 1_555
O30_3 C57_3 1_555 1_555
N3_3 H27_3 1_555 1_555
C39_3 C40_3 1_555 1_555
C40_3 C41_3 1_555 1_555
C41_3 H28_3 1_555 1_555
C42_3 C41_3 1_555 1_555
C43_3 C42_3 1_555 1_555
H29_3 C43_3 1_555 1_555
C44_3 C43_3 1_555 1_555
C45_3 C44_3 1_555 1_555
C46_3 C40_3 1_555 1_555
H30_3 C46_3 1_555 1_555
C47_3 N3_3 1_555 1_555
H31_3 C47_3 1_555 1_555
H32_3 C47_3 1_555 1_555
C48_3 C10_3 1_555 1_555
H33_3 C48_3 1_555 1_555
H34_3 C48_3 1_555 1_555
C49_3 N3_3 1_555 1_555
H35_3 C49_3 1_555 1_555
H36_3 C49_3 1_555 1_555
C50_3 C53_3 1_555 1_555
C51_3 C52_3 1_555 1_555
C52_3 H37_3 1_555 1_555
C53_3 C52_3 1_555 1_555
C54_3 C53_3 1_555 1_555
H38_3 C54_3 1_555 1_555
C55_3 C49_3 1_555 1_555
C56_3 C51_3 1_555 1_555
H39_3 C56_3 1_555 1_555
C57_3 C51_3 1_555 1_555
O55_2 C69_3 1_555 1_555
O36_3 Cu12_2 1_555 1_555
O37_3 C70_3 1_555 1_555
H46_3 C67_3 1_555 1_555
H47_3 C67_3 1_555 1_555
C69_3 O36_3 1_555 1_555
C70_3 C72_3 1_555 1_555
C72_3 C71_3 1_555 1_555
C73_3 C72_3 1_555 1_555
H51_3 C73_3 1_555 1_555
C74_3 C69_3 1_555 1_555
C75_3 C74_3 1_555 1_555
H52_3 C75_3 1_555 1_555
Cu15_2 O29_3 1_555 1_555
Cu16_2 O25_3 1_555 1_555
Cu18_2 O28_2 1_555 1_555
Cu19_5 O37_3 1_555 1_555
O52_2 Cu9_4 1_555 1_555
O54_2 Cu11_4 1_555 1_555
C4_3 C9_3 1_555 1_555
C6_3 C8_3 1_555 1_555
C13_3 C19_3 1_555 1_555
C16_3 C17_3 1_555 1_555
C17_3 C18_3 1_555 1_555
C23_3 C28_3 1_555 1_555
C25_3 C27_3 1_555 1_555
O26_3 Cu16_2 1_555 1_555
O30_3 Cu15_2 1_555 1_555
N3_3 C48_3 1_555 1_555
C42_3 C47_3 1_555 1_555
C44_3 C46_3 1_555 1_555
C54_3 C55_3 1_555 1_555
C55_3 C56_3 1_555 1_555
C71_3 C76_3 1_555 1_555
C73_3 C74_3 1_555 1_555
C75_3 C76_3 1_555 1_555
O17_4 H59 1_555 1_555
Cu18_2 O13_3 1_555 1_555
Cu6_6 O15_2 1_555 1_555
O13_3 C31_3 1_555 1_555
O56_2 C31_3 1_555 1_555
O15_2 C32_3 1_555 1_555
O21_2 Cu6_6 1_555 1_555
O22_5 Cu18_2 1_555 1_555
H20_3 C29_3 1_555 1_555
H21_3 C29_3 1_555 1_555
C31_3 C36_3 1_555 1_555
C34_3 C32_3 1_555 1_555
C35_3 C34_3 1_555 1_555
H25_3 C35_3 1_555 1_555
C36_3 C35_3 1_555 1_555
C37_3 C36_3 1_555 1_555
H26_3 C37_3 1_555 1_555
O31_3 C58_3 1_555 1_555
O32_3 C58_3 1_555 1_555
O52_2 C64_3 1_555 1_555
O54_2 C64_3 1_555 1_555
N4_3 H40_3 1_555 1_555
C58_3 C59_3 1_555 1_555
C59_3 C60_3 1_555 1_555
C60_3 H41_3 1_555 1_555
C61_3 C60_3 1_555 1_555
C62_3 C61_3 1_555 1_555
H42_3 C62_3 1_555 1_555
C63_3 C62_3 1_555 1_555
C64_3 C63_3 1_555 1_555
C65_3 C59_3 1_555 1_555
H43_3 C65_3 1_555 1_555
C66_3 N4_3 1_555 1_555
H44_3 C66_3 1_555 1_555
H45_3 C66_3 1_555 1_555
C68_3 N4_3 1_555 1_555
H49_3 C68_3 1_555 1_555
Cu15_2 O31_3 1_555 1_555
C33_3 C34_3 1_555 1_555
C33_3 C38_3 1_555 1_555
C37_3 C38_3 1_555 1_555
O38_3 Cu19_6 1_555 1_555
C61_3 C66_3 1_555 1_555
C63_3 C65_3 1_555 1_555
O17_5 Cu9 1_555 1_555
O18_5 Cu11 1_555 1_555
O19_5 Cu13 1_555 1_555
O18_5 H57_2 1_555 1_555
O18_5 H58_2 1_555 1_555
O17_5 H60_2 1_555 1_555
O19_5 H67_2 1_555 1_555
O19_5 H68_2 1_555 1_555
Cu18 O13_4 1_555 1_555
O13_4 C31_4 1_555 1_555
O56 C31_4 1_555 1_555
O57_2 C32_4 1_555 1_555
O22_6 Cu18 1_555 1_555
H20_4 C29_4 1_555 1_555
H21_4 C29_4 1_555 1_555
C31_4 C36_4 1_555 1_555
C34_4 C32_4 1_555 1_555
C35_4 C34_4 1_555 1_555
H25_4 C35_4 1_555 1_555
C36_4 C35_4 1_555 1_555
C37_4 C36_4 1_555 1_555
H26_4 C37_4 1_555 1_555
O31_4 C58_4 1_555 1_555
O32_4 C58_4 1_555 1_555
O33_2 C64_4 1_555 1_555
O34_2 C64_4 1_555 1_555
N4_4 H40_4 1_555 1_555
C58_4 C59_4 1_555 1_555
C59_4 C60_4 1_555 1_555
C60_4 H41_4 1_555 1_555
C61_4 C60_4 1_555 1_555
C62_4 C61_4 1_555 1_555
H42_4 C62_4 1_555 1_555
C63_4 C62_4 1_555 1_555
C64_4 C63_4 1_555 1_555
C65_4 C59_4 1_555 1_555
H43_4 C65_4 1_555 1_555
C66_4 N4_4 1_555 1_555
H44_4 C66_4 1_555 1_555
H45_4 C66_4 1_555 1_555
C68_4 N4_4 1_555 1_555
H49_4 C68_4 1_555 1_555
Cu9_2 O33_2 1_555 1_555
Cu11_2 O34_2 1_555 1_555
Cu16_2 O31_4 1_555 1_555
O47_2 Cu18 1_555 1_555
C33_4 C34_4 1_555 1_555
C33_4 C38_4 1_555 1_555
C37_4 C38_4 1_555 1_555
O38_4 Cu19_5 1_555 1_555
C61_4 C66_4 1_555 1_555
C63_4 C65_4 1_555 1_555
Cu9_2 O1_4 1_555 1_555
Cu11_2 O2_4 1_555 1_555
Cu13_2 O5_4 1_555 1_555
O1_4 C1_4 1_555 1_555
O2_4 C1_4 1_555 1_555
O43_2 C7_4 1_555 1_555
O44_2 C7_4 1_555 1_555
O5_4 C12_4 1_555 1_555
O46 C12_4 1_555 1_555
O48_2 C19_4 1_555 1_555
O10_4 C20_4 1_555 1_555
O51 C26_4 1_555 1_555
O53 C26_4 1_555 1_555
O17_6 Cu9_2 1_555 1_555
O18_6 Cu11_2 1_555 1_555
O19_6 Cu13_2 1_555 1_555
N1_4 H1_4 1_555 1_555
N2_4 H2_4 1_555 1_555
C1_4 C2_4 1_555 1_555
C2_4 C3_4 1_555 1_555
C3_4 H3_4 1_555 1_555
C4_4 C3_4 1_555 1_555
C5_4 C4_4 1_555 1_555
H4_4 C5_4 1_555 1_555
C6_4 C5_4 1_555 1_555
C7_4 C6_4 1_555 1_555
C8_4 C2_4 1_555 1_555
H5_4 C8_4 1_555 1_555
C9_4 N1_4 1_555 1_555
H6_4 C9_4 1_555 1_555
H7_4 C9_4 1_555 1_555
C10_4 N1_4 1_555 1_555
H8_4 C10_4 1_555 1_555
H9_4 C10_4 1_555 1_555
C11_4 N1_4 1_555 1_555
H10_4 C11_4 1_555 1_555
H11_4 C11_4 1_555 1_555
C12_4 C15_4 1_555 1_555
C13_4 C14_4 1_555 1_555
C14_4 H12_4 1_555 1_555
C15_4 C14_4 1_555 1_555
C16_4 C15_4 1_555 1_555
H13_4 C16_4 1_555 1_555
C17_4 C11_4 1_555 1_555
C18_4 C13_4 1_555 1_555
H14_4 C18_4 1_555 1_555
C19_4 O49_2 1_555 1_555
C20_4 O50_2 1_555 1_555
C21_4 C20_4 1_555 1_555
C22_4 C21_4 1_555 1_555
H15_4 C22_4 1_555 1_555
C23_4 C22_4 1_555 1_555
C24_4 C23_4 1_555 1_555
H16_4 C24_4 1_555 1_555
C25_4 C24_4 1_555 1_555
C26_4 C25_4 1_555 1_555
C27_4 C21_4 1_555 1_555
H17_4 C27_4 1_555 1_555
C28_4 N2_4 1_555 1_555
H18_4 C28_4 1_555 1_555
H19_4 C28_4 1_555 1_555
C30_4 N2_4 1_555 1_555
H23_4 C30_4 1_555 1_555
O41 C39_4 1_555 1_555
O42 C39_4 1_555 1_555
O25_4 C45_4 1_555 1_555
O26_4 C45_4 1_555 1_555
O45 C50_4 1_555 1_555
O47_2 C50_4 1_555 1_555
O29_4 C57_4 1_555 1_555
O30_4 C57_4 1_555 1_555
N3_4 H27_4 1_555 1_555
C39_4 C40_4 1_555 1_555
C40_4 C41_4 1_555 1_555
C41_4 H28_4 1_555 1_555
C42_4 C41_4 1_555 1_555
C43_4 C42_4 1_555 1_555
H29_4 C43_4 1_555 1_555
C44_4 C43_4 1_555 1_555
C45_4 C44_4 1_555 1_555
C46_4 C40_4 1_555 1_555
H30_4 C46_4 1_555 1_555
C47_4 N3_4 1_555 1_555
H31_4 C47_4 1_555 1_555
H32_4 C47_4 1_555 1_555
C48_4 C10_4 1_555 1_555
H33_4 C48_4 1_555 1_555
H34_4 C48_4 1_555 1_555
C49_4 N3_4 1_555 1_555
H35_4 C49_4 1_555 1_555
H36_4 C49_4 1_555 1_555
C50_4 C53_4 1_555 1_555
C51_4 C52_4 1_555 1_555
C52_4 H37_4 1_555 1_555
C53_4 C52_4 1_555 1_555
C54_4 C53_4 1_555 1_555
H38_4 C54_4 1_555 1_555
C55_4 C49_4 1_555 1_555
C56_4 C51_4 1_555 1_555
H39_4 C56_4 1_555 1_555
C57_4 C51_4 1_555 1_555
O55 C69_4 1_555 1_555
O36_4 Cu13_2 1_555 1_555
O37_4 C70_4 1_555 1_555
H46_4 C67_4 1_555 1_555
H47_4 C67_4 1_555 1_555
C69_4 O36_4 1_555 1_555
C70_4 C72_4 1_555 1_555
C72_4 C71_4 1_555 1_555
C73_4 C72_4 1_555 1_555
H51_4 C73_4 1_555 1_555
C74_4 C69_4 1_555 1_555
C75_4 C74_4 1_555 1_555
H52_4 C75_4 1_555 1_555
Cu16_2 O29_4 1_555 1_555
Cu15_2 O25_4 1_555 1_555
Cu19_6 O37_4 1_555 1_555
C4_4 C9_4 1_555 1_555
C6_4 C8_4 1_555 1_555
C13_4 C19_4 1_555 1_555
C16_4 C17_4 1_555 1_555
C17_4 C18_4 1_555 1_555
C23_4 C28_4 1_555 1_555
C25_4 C27_4 1_555 1_555
O26_4 Cu15_2 1_555 1_555
O30_4 Cu16_2 1_555 1_555
N3_4 C48_4 1_555 1_555
C42_4 C47_4 1_555 1_555
C44_4 C46_4 1_555 1_555
C54_4 C55_4 1_555 1_555
C55_4 C56_4 1_555 1_555
C71_4 C76_4 1_555 1_555
C73_4 C74_4 1_555 1_555
C75_4 C76_4 1_555 1_555
O17_6 H59_2 1_555 1_555
O22_3 H66_3 1_555 1_555
O21_3 Cu19_5 1_555 1_555
O22_4 H65_3 1_555 1_555
O20_3 Cu15_2 1_555 1_555
O39_3 Cu19_6 1_555 1_555
O40_3 Cu16_2 1_555 1_555
O22 H66_4 1_555 1_555
O22_2 H65_4 1_555 1_555
O21_4 Cu19 1_555 1_555
O17_5 H59_3 1_555 1_555
O18_6 H57_3 1_555 1_555
O18_6 H58_3 1_555 1_555
O17_6 H60_3 1_555 1_555
O19_6 H67_3 1_555 1_555
O19_6 H68_3 1_555 1_555
O39_4 Cu19_4 1_555 1_555
O17_3 H59_4 1_555 1_555
O18_4 H57_4 1_555 1_555
O18_4 H58_4 1_555 1_555
O17_4 H60_4 1_555 1_555
O19_4 H67_4 1_555 1_555
O19_4 H68_4 1_555 1_555

#END
