
###############################################################################
#
# This file contains modified crystal structure data generated from the
# MOF subset of the Cambridge Structural Database (CSD) v543 
# hosted by the Cambridge Crystallographic Data Centre (CCDC).
#
# This work is licensed under the Creative Commons
# Attribution-NonCommercial-ShareAlike 4.0 International License.
# To view a copy of this license, visit
# http://creativecommons.org/licenses/by-nc-sa/4.0/
# or send a letter to
# Creative Commons, PO Box 1866, Mountain View, CA 94042, USA.
#
# CIF created using the CSD Python API on 29 September 2022
# The structure has been converted into the P1 space group
# The structure has a 3D framework
# The original CSD entry KECRUJ is in the orthorhombic crystal system
# The framework has been calculated to contain at least 10.0% void space
# The void calculation uses a probe of radius 1.32A, grid spacing 0.4
# The framework is charged, counterions have been retained in the structure
# H atom positions have been added when not included in the experimental data
# Generated hydrogen atom positions removed from atoms on special positions
#
###############################################################################

data_KECRUJ
_chemical_formula_moiety         '(C168 H176 Cl5 Cu28 N12 O86 5-)n'
_symmetry_cell_setting           triclinic
_symmetry_space_group_name_H-M   'P 1'
_symmetry_Int_Tables_number      1
_space_group_name_Hall           'P 1'
loop_
_symmetry_equiv_pos_site_id
_symmetry_equiv_pos_as_xyz
1 x,y,z
_cell_length_a                   20.934(4)
_cell_length_b                   31.398(6)
_cell_length_c                   13.458(3)
_cell_angle_alpha                90
_cell_angle_beta                 90
_cell_angle_gamma                90
_cell_volume                     8845.75
loop_
_atom_site_label
_atom_site_type_symbol
_atom_site_fract_x
_atom_site_fract_y
_atom_site_fract_z
Cu1 Cu 0.500000 0.42395(2) 0.500000
Cu2 Cu 0.500000 0.34029(2) 0.500000
Cu3 Cu 0.18885(2) 0.26153(2) 0.000000
Cl1 Cl 0.500000 0.500000 0.500000
O1 O 0.43404(11) 0.41788(5) 0.39892(18)
O2 O 0.43365(8) 0.34704(5) 0.39659(13)
O3 O 0.21590(8) 0.30350(6) 0.09952(14)
O4 O 0.31872(8) 0.28335(6) 0.10110(14)
O5 O 0.09028(13) 0.28050(13) 0.000000
O6 O 0.500000 0.27171(14) 0.500000
N1 N 0.26874(13) 0.500000 0.1906(2)
C1 C 0.2581(2) 0.500000 0.000000
H2 H 0.230920 0.525031 0.000001
C2 C 0.30060(16) 0.500000 0.0935(2)
H3 H 0.328029 0.475136 0.090412
C3 C 0.23023(12) 0.46141(6) 0.20880(19)
H4 H 0.200508 0.457593 0.154234
H5 H 0.205474 0.465354 0.269031
C4 C 0.27050(12) 0.42171(6) 0.21920(18)
C5 C 0.32286(12) 0.42080(7) 0.28342(18)
H6 H 0.334298 0.445416 0.317474
C6 C 0.35838(11) 0.38367(7) 0.29753(17)
C7 C 0.41318(12) 0.38262(7) 0.36956(18)
C8 C 0.34238(12) 0.34665(7) 0.24548(17)
H7 H 0.366315 0.321931 0.253403
C9 C 0.29034(12) 0.34735(7) 0.18189(18)
C10 C 0.27331(12) 0.30797(7) 0.12387(19)
C11 C 0.25412(12) 0.38455(6) 0.16921(18)
H8 H 0.218915 0.384339 0.127065
H9 H 0.230920 0.474969 -0.000001
O15 O 0.43404(11) 0.58212(5) 0.39892(18)
O16 O 0.43365(8) 0.65296(5) 0.39659(13)
O17 O 0.21590(8) 0.69650(6) 0.09952(14)
O18 O 0.31872(8) 0.71665(6) 0.10110(14)
H22 H 0.328029 0.524864 0.090412
C31 C 0.23023(12) 0.53859(6) 0.20880(19)
H23 H 0.200508 0.542407 0.154234
H24 H 0.205474 0.534646 0.269031
C32 C 0.27050(12) 0.57829(6) 0.21920(18)
C33 C 0.32286(12) 0.57920(7) 0.28342(18)
H25 H 0.334298 0.554584 0.317474
C34 C 0.35838(11) 0.61633(7) 0.29753(17)
C35 C 0.41318(12) 0.61738(7) 0.36956(18)
C36 C 0.34238(12) 0.65335(7) 0.24548(17)
H26 H 0.366315 0.678069 0.253403
C37 C 0.29034(12) 0.65265(7) 0.18189(18)
C38 C 0.27331(12) 0.69203(7) 0.12387(19)
C39 C 0.25412(12) 0.61545(6) 0.16921(18)
H27 H 0.218915 0.615661 0.127065
H28 H 0.083725 0.296754 0.046579
Cu4 Cu 0.500000 0.57605(2) 0.500000
Cu5 Cu 0.500000 0.65971(2) 0.500000
Cu6 Cu 0.81115(2) 0.73847(2) 0.000000
O19 O 0.56596(11) 0.58212(5) 0.39892(18)
O20 O 0.56635(8) 0.65296(5) 0.39659(13)
O21 O 0.78410(8) 0.69650(6) 0.09952(14)
O22 O 0.68128(8) 0.71665(6) 0.10110(14)
O23 O 0.90972(13) 0.71950(13) 0.000000
O24 O 0.500000 0.72829(14) 0.500000
N3 N 0.73126(13) 0.500000 0.1906(2)
C40 C 0.7419(2) 0.500000 0.000000
H30 H 0.769080 0.474969 0.000001
C41 C 0.69940(16) 0.500000 0.0935(2)
H31 H 0.671971 0.524864 0.090412
C42 C 0.76977(12) 0.53859(6) 0.20880(19)
H32 H 0.799492 0.542407 0.154234
H33 H 0.794526 0.534646 0.269031
C43 C 0.72950(12) 0.57829(6) 0.21920(18)
C44 C 0.67714(12) 0.57920(7) 0.28342(18)
H34 H 0.665702 0.554584 0.317474
C45 C 0.64162(11) 0.61633(7) 0.29753(17)
C46 C 0.58682(12) 0.61738(7) 0.36956(18)
C47 C 0.65762(12) 0.65335(7) 0.24548(17)
H35 H 0.633685 0.678069 0.253403
C48 C 0.70966(12) 0.65265(7) 0.18189(18)
C49 C 0.72669(12) 0.69203(7) 0.12387(19)
C50 C 0.74588(12) 0.61545(6) 0.16921(18)
H36 H 0.781085 0.615661 0.127065
H37 H 0.769080 0.525031 -0.000001
O33 O 0.56596(11) 0.41788(5) 0.39892(18)
O34 O 0.56635(8) 0.34704(5) 0.39659(13)
O35 O 0.78410(8) 0.30350(6) 0.09952(14)
O36 O 0.68128(8) 0.28335(6) 0.10110(14)
H50 H 0.671971 0.475136 0.090412
C70 C 0.76977(12) 0.46141(6) 0.20880(19)
H51 H 0.799492 0.457593 0.154234
H52 H 0.794526 0.465354 0.269031
C71 C 0.72950(12) 0.42171(6) 0.21920(18)
C72 C 0.67714(12) 0.42080(7) 0.28342(18)
H53 H 0.665702 0.445416 0.317474
C73 C 0.64162(11) 0.38367(7) 0.29753(17)
C74 C 0.58682(12) 0.38262(7) 0.36956(18)
C75 C 0.65762(12) 0.34665(7) 0.24548(17)
H54 H 0.633685 0.321931 0.253403
C76 C 0.70966(12) 0.34735(7) 0.18189(18)
C77 C 0.72669(12) 0.30797(7) 0.12387(19)
C78 C 0.74588(12) 0.38455(6) 0.16921(18)
H55 H 0.781085 0.384339 0.127065
H56 H 0.916275 0.703246 0.046579
Cu7 Cu 0.81115(2) 0.26153(2) 0.000000
O37 O 0.90972(13) 0.28050(13) 0.000000
H57 H 0.916275 0.296754 0.046579
Cu8 Cu 0.18885(2) 0.73847(2) 0.000000
O38 O 0.09028(13) 0.71950(13) 0.000000
H59 H 0.083725 0.703246 0.046579
Cu13 Cu 0.68885(2) 0.76153(2) 0.000000
Cu14 Cu 0.31115(2) 0.23847(2) 0.000000
Cu15 Cu 0.31115(2) 0.76153(2) 0.000000
Cu16 Cu 0.68885(2) 0.23847(2) 0.000000
O39 O 0.56596(11) 0.41788(5) 0.60108(18)
O40 O 0.43404(11) 0.58212(5) 0.60108(18)
O41 O 0.56596(11) 0.58212(5) 0.60108(18)
O42 O 0.43404(11) 0.41788(5) 0.60108(18)
O43 O 0.56635(8) 0.34704(5) 0.60341(13)
O44 O 0.43365(8) 0.65296(5) 0.60341(13)
O45 O 0.56635(8) 0.65296(5) 0.60341(13)
O46 O 0.43365(8) 0.34704(5) 0.60341(13)
O47 O 0.81872(8) 0.78335(6) 0.10110(14)
O48 O 0.18128(8) 0.21665(6) 0.10110(14)
O53 O 0.81872(8) 0.21665(6) 0.10110(14)
O54 O 0.18128(8) 0.78335(6) 0.10110(14)
Cu3_2 Cu 0.18885(2) 0.26153(2) 1.000000
O5_2 O 0.09028(13) 0.28050(13) 1.000000
H1 H 0.083725 0.296754 0.953421
C1_2 C 0.2581(2) 0.500000 1.000000
H2_2 H 0.230920 0.525031 1.000001
O9 O 0.21590(8) 0.69650(6) 0.90048(14)
O10 O 0.31872(8) 0.71665(6) 0.89890(14)
N2 N 0.26874(13) 0.500000 0.8094(2)
H9_2 H 0.230920 0.474969 0.999999
C12 C 0.30060(16) 0.500000 0.9065(2)
H10 H 0.328029 0.524864 0.909588
C13 C 0.23023(12) 0.53859(6) 0.79120(19)
H11 H 0.200508 0.542407 0.845766
H12 H 0.205474 0.534646 0.730969
C14 C 0.27050(12) 0.57829(6) 0.78080(18)
C15 C 0.32286(12) 0.57920(7) 0.71658(18)
H13 H 0.334298 0.554584 0.682526
C16 C 0.35838(11) 0.61633(7) 0.70247(17)
C17 C 0.41318(12) 0.61738(7) 0.63044(18)
C18 C 0.34238(12) 0.65335(7) 0.75452(17)
H14 H 0.366315 0.678069 0.746597
C19 C 0.29034(12) 0.65265(7) 0.81811(18)
C20 C 0.27331(12) 0.69203(7) 0.87613(19)
C21 C 0.25412(12) 0.61545(6) 0.83079(18)
H15 H 0.218915 0.615661 0.872935
O13 O 0.21590(8) 0.30350(6) 0.90048(14)
O14 O 0.31872(8) 0.28335(6) 0.89890(14)
H16 H 0.328029 0.475136 0.909588
C22 C 0.23023(12) 0.46141(6) 0.79120(19)
H17 H 0.200508 0.457593 0.845766
H18 H 0.205474 0.465354 0.730969
C23 C 0.27050(12) 0.42171(6) 0.78080(18)
C24 C 0.32286(12) 0.42080(7) 0.71658(18)
H19 H 0.334298 0.445416 0.682526
C25 C 0.35838(11) 0.38367(7) 0.70247(17)
C26 C 0.41318(12) 0.38262(7) 0.63044(18)
C27 C 0.34238(12) 0.34665(7) 0.75452(17)
H20 H 0.366315 0.321931 0.746597
C28 C 0.29034(12) 0.34735(7) 0.81811(18)
C29 C 0.27331(12) 0.30797(7) 0.87613(19)
C30 C 0.25412(12) 0.38455(6) 0.83079(18)
H21 H 0.218915 0.384339 0.872935
Cu6_2 Cu 0.81115(2) 0.73847(2) 1.000000
O23_2 O 0.90972(13) 0.71950(13) 1.000000
H29 H 0.916275 0.703246 0.953421
C40_2 C 0.7419(2) 0.500000 1.000000
H30_2 H 0.769080 0.474969 1.000001
O27 O 0.78410(8) 0.30350(6) 0.90048(14)
O28 O 0.68128(8) 0.28335(6) 0.89890(14)
N4 N 0.73126(13) 0.500000 0.8094(2)
H37_2 H 0.769080 0.525031 0.999999
C51 C 0.69940(16) 0.500000 0.9065(2)
H38 H 0.671971 0.475136 0.909588
C52 C 0.76977(12) 0.46141(6) 0.79120(19)
H39 H 0.799492 0.457593 0.845766
H40 H 0.794526 0.465354 0.730969
C53 C 0.72950(12) 0.42171(6) 0.78080(18)
C54 C 0.67714(12) 0.42080(7) 0.71658(18)
H41 H 0.665702 0.445416 0.682526
C55 C 0.64162(11) 0.38367(7) 0.70247(17)
C56 C 0.58682(12) 0.38262(7) 0.63044(18)
C57 C 0.65762(12) 0.34665(7) 0.75452(17)
H42 H 0.633685 0.321931 0.746597
C58 C 0.70966(12) 0.34735(7) 0.81811(18)
C59 C 0.72669(12) 0.30797(7) 0.87613(19)
C60 C 0.74588(12) 0.38455(6) 0.83079(18)
H43 H 0.781085 0.384339 0.872935
O31 O 0.78410(8) 0.69650(6) 0.90048(14)
O32 O 0.68128(8) 0.71665(6) 0.89890(14)
H44 H 0.671971 0.524864 0.909588
C61 C 0.76977(12) 0.53859(6) 0.79120(19)
H45 H 0.799492 0.542407 0.845766
H46 H 0.794526 0.534646 0.730969
C62 C 0.72950(12) 0.57829(6) 0.78080(18)
C63 C 0.67714(12) 0.57920(7) 0.71658(18)
H47 H 0.665702 0.554584 0.682526
C64 C 0.64162(11) 0.61633(7) 0.70247(17)
C65 C 0.58682(12) 0.61738(7) 0.63044(18)
C66 C 0.65762(12) 0.65335(7) 0.75452(17)
H48 H 0.633685 0.678069 0.746597
C67 C 0.70966(12) 0.65265(7) 0.81811(18)
C68 C 0.72669(12) 0.69203(7) 0.87613(19)
C69 C 0.74588(12) 0.61545(6) 0.83079(18)
H49 H 0.781085 0.615661 0.872935
Cu7_2 Cu 0.81115(2) 0.26153(2) 1.000000
O37_2 O 0.90972(13) 0.28050(13) 1.000000
H58 H 0.916275 0.296754 0.953421
Cu8_2 Cu 0.18885(2) 0.73847(2) 1.000000
O38_2 O 0.09028(13) 0.71950(13) 1.000000
H60 H 0.083725 0.703246 0.953421
Cu13_2 Cu 0.68885(2) 0.76153(2) 1.000000
Cu14_2 Cu 0.31115(2) 0.23847(2) 1.000000
Cu15_2 Cu 0.31115(2) 0.76153(2) 1.000000
Cu16_2 Cu 0.68885(2) 0.23847(2) 1.000000
O49 O 0.18128(8) 0.78335(6) 0.89890(14)
O50 O 0.81872(8) 0.21665(6) 0.89890(14)
O51 O 0.18128(8) 0.21665(6) 0.89890(14)
O52 O 0.81872(8) 0.78335(6) 0.89890(14)
Cl1_2 Cl 0.000000 0.000000 0.500000
Cu4_2 Cu 0.000000 0.07605(2) 0.500000
Cu5_2 Cu 0.000000 0.15971(2) 0.500000
O19_2 O 0.06596(11) 0.08212(5) 0.39892(18)
O20_2 O 0.06635(8) 0.15296(5) 0.39659(13)
O21_2 O 0.28410(8) 0.19650(6) 0.09952(14)
O23_3 O 0.40972(13) 0.21950(13) 0.000000
O24_2 O 0.000000 0.22829(14) 0.500000
N3_2 N 0.23126(13) 0.000000 0.1906(2)
C40_3 C 0.2419(2) 0.000000 0.000000
C41_2 C 0.19940(16) 0.000000 0.0935(2)
H31_2 H 0.171971 0.024864 0.090412
C42_2 C 0.26977(12) 0.03859(6) 0.20880(19)
H32_2 H 0.299492 0.042407 0.154234
H33_2 H 0.294526 0.034646 0.269031
C43_2 C 0.22950(12) 0.07829(6) 0.21920(18)
C44_2 C 0.17714(12) 0.07920(7) 0.28342(18)
H34_2 H 0.165702 0.054584 0.317474
C45_2 C 0.14162(11) 0.11633(7) 0.29753(17)
C46_2 C 0.08682(12) 0.11738(7) 0.36956(18)
C47_2 C 0.15762(12) 0.15335(7) 0.24548(17)
H35_2 H 0.133685 0.178069 0.253403
C48_2 C 0.20966(12) 0.15265(7) 0.18189(18)
C49_2 C 0.22669(12) 0.19203(7) 0.12387(19)
C50_2 C 0.24588(12) 0.11545(6) 0.16921(18)
H36_2 H 0.281085 0.115661 0.127065
H37_3 H 0.269080 0.025031 -0.000001
H56_2 H 0.416275 0.203246 0.046579
O41_2 O 0.06596(11) 0.08212(5) 0.60108(18)
O45_2 O 0.06635(8) 0.15296(5) 0.60341(13)
O23_4 O 0.40972(13) 0.21950(13) 1.000000
H29_2 H 0.416275 0.203246 0.953421
C40_4 C 0.2419(2) 0.000000 1.000000
N4_2 N 0.23126(13) 0.000000 0.8094(2)
H37_4 H 0.269080 0.025031 0.999999
C51_2 C 0.19940(16) 0.000000 0.9065(2)
O31_2 O 0.28410(8) 0.19650(6) 0.90048(14)
H44_2 H 0.171971 0.024864 0.909588
C61_2 C 0.26977(12) 0.03859(6) 0.79120(19)
H45_2 H 0.299492 0.042407 0.845766
H46_2 H 0.294526 0.034646 0.730969
C62_2 C 0.22950(12) 0.07829(6) 0.78080(18)
C63_2 C 0.17714(12) 0.07920(7) 0.71658(18)
H47_2 H 0.165702 0.054584 0.682526
C64_2 C 0.14162(11) 0.11633(7) 0.70247(17)
C65_2 C 0.08682(12) 0.11738(7) 0.63044(18)
C66_2 C 0.15762(12) 0.15335(7) 0.75452(17)
H48_2 H 0.133685 0.178069 0.746597
C67_2 C 0.20966(12) 0.15265(7) 0.81811(18)
C68_2 C 0.22669(12) 0.19203(7) 0.87613(19)
C69_2 C 0.24588(12) 0.11545(6) 0.83079(18)
H49_2 H 0.281085 0.115661 0.872935
Cu1_2 Cu -0.000000 0.92395(2) 0.500000
Cu2_2 Cu -0.000000 0.84029(2) 0.500000
Cl1_3 Cl 0.000000 1.000000 0.500000
O6_2 O -0.000000 0.77171(14) 0.500000
N3_3 N 0.23126(13) 1.000000 0.1906(2)
C40_5 C 0.2419(2) 1.000000 0.000000
H30_3 H 0.269080 0.974969 0.000001
C41_3 C 0.19940(16) 1.000000 0.0935(2)
O33_2 O 0.06596(11) 0.91788(5) 0.39892(18)
O34_2 O 0.06635(8) 0.84704(5) 0.39659(13)
O35_2 O 0.28410(8) 0.80350(6) 0.09952(14)
H50_2 H 0.171971 0.975136 0.090412
C70_2 C 0.26977(12) 0.96141(6) 0.20880(19)
H51_2 H 0.299492 0.957593 0.154234
H52_2 H 0.294526 0.965354 0.269031
C71_2 C 0.22950(12) 0.92171(6) 0.21920(18)
C72_2 C 0.17714(12) 0.92080(7) 0.28342(18)
H53_2 H 0.165702 0.945416 0.317474
C73_2 C 0.14162(11) 0.88367(7) 0.29753(17)
C74_2 C 0.08682(12) 0.88262(7) 0.36956(18)
C75_2 C 0.15762(12) 0.84665(7) 0.24548(17)
H54_2 H 0.133685 0.821931 0.253403
C76_2 C 0.20966(12) 0.84735(7) 0.18189(18)
C77_2 C 0.22669(12) 0.80797(7) 0.12387(19)
C78_2 C 0.24588(12) 0.88455(6) 0.16921(18)
H55_2 H 0.281085 0.884339 0.127065
O37_3 O 0.40972(13) 0.78050(13) 0.000000
H57_2 H 0.416275 0.796754 0.046579
O39_2 O 0.06596(11) 0.91788(5) 0.60108(18)
O43_2 O 0.06635(8) 0.84704(5) 0.60341(13)
C40_6 C 0.2419(2) 1.000000 1.000000
H30_4 H 0.269080 0.974969 1.000001
O27_2 O 0.28410(8) 0.80350(6) 0.90048(14)
N4_3 N 0.23126(13) 1.000000 0.8094(2)
C51_3 C 0.19940(16) 1.000000 0.9065(2)
H38_2 H 0.171971 0.975136 0.909588
C52_2 C 0.26977(12) 0.96141(6) 0.79120(19)
H39_2 H 0.299492 0.957593 0.845766
H40_2 H 0.294526 0.965354 0.730969
C53_2 C 0.22950(12) 0.92171(6) 0.78080(18)
C54_2 C 0.17714(12) 0.92080(7) 0.71658(18)
H41_2 H 0.165702 0.945416 0.682526
C55_2 C 0.14162(11) 0.88367(7) 0.70247(17)
C56_2 C 0.08682(12) 0.88262(7) 0.63044(18)
C57_2 C 0.15762(12) 0.84665(7) 0.75452(17)
H42_2 H 0.133685 0.821931 0.746597
C58_2 C 0.20966(12) 0.84735(7) 0.81811(18)
C59_2 C 0.22669(12) 0.80797(7) 0.87613(19)
C60_2 C 0.24588(12) 0.88455(6) 0.83079(18)
H43_2 H 0.281085 0.884339 0.872935
O37_4 O 0.40972(13) 0.78050(13) 1.000000
H58_2 H 0.416275 0.796754 0.953421
Cl1_4 Cl 1.000000 0.000000 0.500000
N1_2 N 0.76874(13) 0.000000 0.1906(2)
C1_3 C 0.7581(2) 0.000000 0.000000
H2_3 H 0.730920 0.025031 0.000001
C2_2 C 0.80060(16) 0.000000 0.0935(2)
O15_2 O 0.93404(11) 0.08212(5) 0.39892(18)
O16_2 O 0.93365(8) 0.15296(5) 0.39659(13)
O17_2 O 0.71590(8) 0.19650(6) 0.09952(14)
H22_2 H 0.828029 0.024864 0.090412
C31_2 C 0.73023(12) 0.03859(6) 0.20880(19)
H23_2 H 0.700508 0.042407 0.154234
H24_2 H 0.705474 0.034646 0.269031
C32_2 C 0.77050(12) 0.07829(6) 0.21920(18)
C33_2 C 0.82286(12) 0.07920(7) 0.28342(18)
H25_2 H 0.834298 0.054584 0.317474
C34_2 C 0.85838(11) 0.11633(7) 0.29753(17)
C35_2 C 0.91318(12) 0.11738(7) 0.36956(18)
C36_2 C 0.84238(12) 0.15335(7) 0.24548(17)
H26_2 H 0.866315 0.178069 0.253403
C37_2 C 0.79034(12) 0.15265(7) 0.18189(18)
C38_2 C 0.77331(12) 0.19203(7) 0.12387(19)
C39_2 C 0.75412(12) 0.11545(6) 0.16921(18)
H27_2 H 0.718915 0.115661 0.127065
Cu4_3 Cu 1.000000 0.07605(2) 0.500000
Cu5_3 Cu 1.000000 0.15971(2) 0.500000
O24_3 O 1.000000 0.22829(14) 0.500000
O38_3 O 0.59028(13) 0.21950(13) 0.000000
H59_2 H 0.583725 0.203246 0.046579
O40_2 O 0.93404(11) 0.08212(5) 0.60108(18)
O44_2 O 0.93365(8) 0.15296(5) 0.60341(13)
C1_4 C 0.7581(2) 0.000000 1.000000
H2_4 H 0.730920 0.025031 1.000001
O9_2 O 0.71590(8) 0.19650(6) 0.90048(14)
N2_2 N 0.76874(13) 0.000000 0.8094(2)
C12_2 C 0.80060(16) 0.000000 0.9065(2)
H10_2 H 0.828029 0.024864 0.909588
C13_2 C 0.73023(12) 0.03859(6) 0.79120(19)
H11_2 H 0.700508 0.042407 0.845766
H12_2 H 0.705474 0.034646 0.730969
C14_2 C 0.77050(12) 0.07829(6) 0.78080(18)
C15_2 C 0.82286(12) 0.07920(7) 0.71658(18)
H13_2 H 0.834298 0.054584 0.682526
C16_2 C 0.85838(11) 0.11633(7) 0.70247(17)
C17_2 C 0.91318(12) 0.11738(7) 0.63044(18)
C18_2 C 0.84238(12) 0.15335(7) 0.75452(17)
H14_2 H 0.866315 0.178069 0.746597
C19_2 C 0.79034(12) 0.15265(7) 0.81811(18)
C20_2 C 0.77331(12) 0.19203(7) 0.87613(19)
C21_2 C 0.75412(12) 0.11545(6) 0.83079(18)
H15_2 H 0.718915 0.115661 0.872935
O38_4 O 0.59028(13) 0.21950(13) 1.000000
H60_2 H 0.583725 0.203246 0.953421
Cu1_3 Cu 1.000000 0.92395(2) 0.500000
Cu2_3 Cu 1.000000 0.84029(2) 0.500000
Cl1_5 Cl 1.000000 1.000000 0.500000
O1_2 O 0.93404(11) 0.91788(5) 0.39892(18)
O2_2 O 0.93365(8) 0.84704(5) 0.39659(13)
O3_2 O 0.71590(8) 0.80350(6) 0.09952(14)
O5_3 O 0.59028(13) 0.78050(13) 0.000000
O6_3 O 1.000000 0.77171(14) 0.500000
N1_3 N 0.76874(13) 1.000000 0.1906(2)
C1_5 C 0.7581(2) 1.000000 0.000000
C2_3 C 0.80060(16) 1.000000 0.0935(2)
H3_2 H 0.828029 0.975136 0.090412
C3_2 C 0.73023(12) 0.96141(6) 0.20880(19)
H4_2 H 0.700508 0.957593 0.154234
H5_2 H 0.705474 0.965354 0.269031
C4_2 C 0.77050(12) 0.92171(6) 0.21920(18)
C5_2 C 0.82286(12) 0.92080(7) 0.28342(18)
H6_2 H 0.834298 0.945416 0.317474
C6_2 C 0.85838(11) 0.88367(7) 0.29753(17)
C7_2 C 0.91318(12) 0.88262(7) 0.36956(18)
C8_2 C 0.84238(12) 0.84665(7) 0.24548(17)
H7_2 H 0.866315 0.821931 0.253403
C9_2 C 0.79034(12) 0.84735(7) 0.18189(18)
C10_2 C 0.77331(12) 0.80797(7) 0.12387(19)
C11_2 C 0.75412(12) 0.88455(6) 0.16921(18)
H8_2 H 0.718915 0.884339 0.127065
H9_3 H 0.730920 0.974969 -0.000001
H28_2 H 0.583725 0.796754 0.046579
O42_2 O 0.93404(11) 0.91788(5) 0.60108(18)
O46_2 O 0.93365(8) 0.84704(5) 0.60341(13)
O5_4 O 0.59028(13) 0.78050(13) 1.000000
H1_2 H 0.583725 0.796754 0.953421
C1_6 C 0.7581(2) 1.000000 1.000000
N2_3 N 0.76874(13) 1.000000 0.8094(2)
H9_4 H 0.730920 0.974969 0.999999
C12_3 C 0.80060(16) 1.000000 0.9065(2)
O13_2 O 0.71590(8) 0.80350(6) 0.90048(14)
H16_2 H 0.828029 0.975136 0.909588
C22_2 C 0.73023(12) 0.96141(6) 0.79120(19)
H17_2 H 0.700508 0.957593 0.845766
H18_2 H 0.705474 0.965354 0.730969
C23_2 C 0.77050(12) 0.92171(6) 0.78080(18)
C24_2 C 0.82286(12) 0.92080(7) 0.71658(18)
H19_2 H 0.834298 0.945416 0.682526
C25_2 C 0.85838(11) 0.88367(7) 0.70247(17)
C26_2 C 0.91318(12) 0.88262(7) 0.63044(18)
C27_2 C 0.84238(12) 0.84665(7) 0.75452(17)
H20_2 H 0.866315 0.821931 0.746597
C28_2 C 0.79034(12) 0.84735(7) 0.81811(18)
C29_2 C 0.77331(12) 0.80797(7) 0.87613(19)
C30_2 C 0.75412(12) 0.88455(6) 0.83079(18)
H21_2 H 0.718915 0.884339 0.872935
loop_
_geom_bond_atom_site_label_1
_geom_bond_atom_site_label_2
_geom_bond_site_symmetry_1
_geom_bond_site_symmetry_2
Cu1 Cl1 1_555 1_555
Cu2 O2 1_555 1_555
Cu3 O3 1_555 1_555
Cl1 Cu4 1_555 1_555
O1 Cu1 1_555 1_555
O2 C7 1_555 1_555
O3 C10 1_555 1_555
O4 C10 1_555 1_555
O5 Cu3 1_555 1_555
O6 Cu2 1_555 1_555
N1 C2 1_555 1_555
C1 H2 1_555 1_555
C2 C1 1_555 1_555
H3 C2 1_555 1_555
C3 N1 1_555 1_555
H4 C3 1_555 1_555
H5 C3 1_555 1_555
C4 C3 1_555 1_555
C5 C4 1_555 1_555
H6 C5 1_555 1_555
C6 C5 1_555 1_555
C7 O1 1_555 1_555
C8 C6 1_555 1_555
H7 C8 1_555 1_555
C9 C8 1_555 1_555
C10 C9 1_555 1_555
C11 C4 1_555 1_555
H8 C11 1_555 1_555
H9 C1 1_555 1_555
O15 C35 1_555 1_555
O16 C35 1_555 1_555
O17 C38 1_555 1_555
O18 C38 1_555 1_555
H22 C2 1_555 1_555
C31 N1 1_555 1_555
H23 C31 1_555 1_555
H24 C31 1_555 1_555
C32 C31 1_555 1_555
C33 C32 1_555 1_555
H25 C33 1_555 1_555
C34 C33 1_555 1_555
C35 C34 1_555 1_555
C36 C34 1_555 1_555
H26 C36 1_555 1_555
C37 C36 1_555 1_555
C38 C37 1_555 1_555
C39 C32 1_555 1_555
H27 C39 1_555 1_555
H28 O5 1_555 1_555
Cu4 O15 1_555 1_555
Cu5 O16 1_555 1_555
Cu6 O21 1_555 1_555
O19 Cu4 1_555 1_555
O20 Cu5 1_555 1_555
O21 C49 1_555 1_555
O22 C49 1_555 1_555
O23 Cu6 1_555 1_555
O24 Cu5 1_555 1_555
N3 C41 1_555 1_555
C40 H30 1_555 1_555
C41 C40 1_555 1_555
H31 C41 1_555 1_555
C42 N3 1_555 1_555
H32 C42 1_555 1_555
H33 C42 1_555 1_555
C43 C42 1_555 1_555
C44 C43 1_555 1_555
H34 C44 1_555 1_555
C45 C44 1_555 1_555
C46 O19 1_555 1_555
C47 C45 1_555 1_555
H35 C47 1_555 1_555
C48 C47 1_555 1_555
C49 C48 1_555 1_555
C50 C43 1_555 1_555
H36 C50 1_555 1_555
H37 C40 1_555 1_555
O33 Cu1 1_555 1_555
O34 Cu2 1_555 1_555
O35 C77 1_555 1_555
O36 C77 1_555 1_555
H50 C41 1_555 1_555
C70 N3 1_555 1_555
H51 C70 1_555 1_555
H52 C70 1_555 1_555
C71 C70 1_555 1_555
C72 C71 1_555 1_555
H53 C72 1_555 1_555
C73 C72 1_555 1_555
C74 O33 1_555 1_555
C75 C73 1_555 1_555
H54 C75 1_555 1_555
C76 C75 1_555 1_555
C77 C76 1_555 1_555
C78 C71 1_555 1_555
H55 C78 1_555 1_555
H56 O23 1_555 1_555
O37 Cu7 1_555 1_555
H57 O37 1_555 1_555
O38 Cu8 1_555 1_555
H59 O38 1_555 1_555
Cu13 O22 1_555 1_555
Cu14 O4 1_555 1_555
O39 Cu1 1_555 1_555
O40 Cu4 1_555 1_555
O41 Cu4 1_555 1_555
O42 Cu1 1_555 1_555
O43 Cu2 1_555 1_555
O44 Cu5 1_555 1_555
O45 Cu5 1_555 1_555
O46 Cu2 1_555 1_555
O47 Cu6 1_555 1_555
O48 Cu3 1_555 1_555
O53 Cu7 1_555 1_555
O54 Cu8 1_555 1_555
C6 C7 1_555 1_555
C9 C11 1_555 1_555
O17 Cu8 1_555 1_555
O18 Cu15 1_555 1_555
C37 C39 1_555 1_555
O20 C46 1_555 1_555
C45 C46 1_555 1_555
C48 C50 1_555 1_555
O34 C74 1_555 1_555
O35 Cu7 1_555 1_555
O36 Cu16 1_555 1_555
C73 C74 1_555 1_555
C76 C78 1_555 1_555
O5_2 Cu3_2 1_555 1_555
H1 O5_2 1_555 1_555
C1_2 H2_2 1_555 1_555
O40 C17 1_555 1_555
O44 C17 1_555 1_555
O9 C20 1_555 1_555
O10 C20 1_555 1_555
N2 C12 1_555 1_555
H9_2 C1_2 1_555 1_555
C12 C1_2 1_555 1_555
H10 C12 1_555 1_555
C13 N2 1_555 1_555
H11 C13 1_555 1_555
H12 C13 1_555 1_555
C14 C13 1_555 1_555
C15 C14 1_555 1_555
H13 C15 1_555 1_555
C16 C15 1_555 1_555
C17 C16 1_555 1_555
C18 C16 1_555 1_555
H14 C18 1_555 1_555
C19 C18 1_555 1_555
C20 C19 1_555 1_555
C21 C14 1_555 1_555
H15 C21 1_555 1_555
O42 C26 1_555 1_555
O46 C26 1_555 1_555
O13 Cu3_2 1_555 1_555
O14 C29 1_555 1_555
H16 C12 1_555 1_555
C22 N2 1_555 1_555
H17 C22 1_555 1_555
H18 C22 1_555 1_555
C23 C22 1_555 1_555
C24 C23 1_555 1_555
H19 C24 1_555 1_555
C25 C24 1_555 1_555
C26 C25 1_555 1_555
C27 C25 1_555 1_555
H20 C27 1_555 1_555
C28 C27 1_555 1_555
C29 O13 1_555 1_555
C30 C23 1_555 1_555
H21 C30 1_555 1_555
O23_2 Cu6_2 1_555 1_555
H29 O23_2 1_555 1_555
C40_2 H30_2 1_555 1_555
O39 C56 1_555 1_555
O43 C56 1_555 1_555
O27 C59 1_555 1_555
O28 C59 1_555 1_555
N4 C51 1_555 1_555
H37_2 C40_2 1_555 1_555
C51 C40_2 1_555 1_555
H38 C51 1_555 1_555
C52 N4 1_555 1_555
H39 C52 1_555 1_555
H40 C52 1_555 1_555
C53 C52 1_555 1_555
C54 C53 1_555 1_555
H41 C54 1_555 1_555
C55 C54 1_555 1_555
C56 C55 1_555 1_555
C57 C55 1_555 1_555
H42 C57 1_555 1_555
C58 C57 1_555 1_555
C59 C58 1_555 1_555
C60 C53 1_555 1_555
H43 C60 1_555 1_555
O41 C65 1_555 1_555
O45 C65 1_555 1_555
O31 Cu6_2 1_555 1_555
O32 C68 1_555 1_555
H44 C51 1_555 1_555
C61 N4 1_555 1_555
H45 C61 1_555 1_555
H46 C61 1_555 1_555
C62 C61 1_555 1_555
C63 C62 1_555 1_555
H47 C63 1_555 1_555
C64 C63 1_555 1_555
C65 C64 1_555 1_555
C66 C64 1_555 1_555
H48 C66 1_555 1_555
C67 C66 1_555 1_555
C68 O31 1_555 1_555
C69 C62 1_555 1_555
H49 C69 1_555 1_555
Cu7_2 O27 1_555 1_555
O37_2 Cu7_2 1_555 1_555
H58 O37_2 1_555 1_555
Cu8_2 O9 1_555 1_555
O38_2 Cu8_2 1_555 1_555
H60 O38_2 1_555 1_555
Cu15_2 O10 1_555 1_555
Cu16_2 O28 1_555 1_555
O49 Cu8_2 1_555 1_555
O50 Cu7_2 1_555 1_555
O51 Cu3_2 1_555 1_555
O52 Cu6_2 1_555 1_555
C19 C21 1_555 1_555
O14 Cu14_2 1_555 1_555
C28 C29 1_555 1_555
C28 C30 1_555 1_555
C58 C60 1_555 1_555
O32 Cu13_2 1_555 1_555
C67 C68 1_555 1_555
C67 C69 1_555 1_555
Cl1_2 Cu4_2 1_555 1_555
Cu14 O21_2 1_555 1_555
O19_2 Cu4_2 1_555 1_555
O20_2 Cu5_2 1_555 1_555
O21_2 C49_2 1_555 1_555
O48 C49_2 1_555 1_555
O23_3 Cu14 1_555 1_555
O24_2 Cu5_2 1_555 1_555
N3_2 C41_2 1_555 1_555
C41_2 C40_3 1_555 1_555
H31_2 C41_2 1_555 1_555
C42_2 N3_2 1_555 1_555
H32_2 C42_2 1_555 1_555
H33_2 C42_2 1_555 1_555
C43_2 C42_2 1_555 1_555
C44_2 C43_2 1_555 1_555
H34_2 C44_2 1_555 1_555
C45_2 C44_2 1_555 1_555
C46_2 O19_2 1_555 1_555
C47_2 C45_2 1_555 1_555
H35_2 C47_2 1_555 1_555
C48_2 C47_2 1_555 1_555
C49_2 C48_2 1_555 1_555
C50_2 C43_2 1_555 1_555
H36_2 C50_2 1_555 1_555
H37_3 C40_3 1_555 1_555
H56_2 O23_3 1_555 1_555
O41_2 Cu4_2 1_555 1_555
O45_2 Cu5_2 1_555 1_555
O20_2 C46_2 1_555 1_555
C45_2 C46_2 1_555 1_555
C48_2 C50_2 1_555 1_555
O23_4 Cu14_2 1_555 1_555
H29_2 O23_4 1_555 1_555
N4_2 C51_2 1_555 1_555
H37_4 C40_4 1_555 1_555
C51_2 C40_4 1_555 1_555
O41_2 C65_2 1_555 1_555
O45_2 C65_2 1_555 1_555
O31_2 Cu14_2 1_555 1_555
O51 C68_2 1_555 1_555
H44_2 C51_2 1_555 1_555
C61_2 N4_2 1_555 1_555
H45_2 C61_2 1_555 1_555
H46_2 C61_2 1_555 1_555
C62_2 C61_2 1_555 1_555
C63_2 C62_2 1_555 1_555
H47_2 C63_2 1_555 1_555
C64_2 C63_2 1_555 1_555
C65_2 C64_2 1_555 1_555
C66_2 C64_2 1_555 1_555
H48_2 C66_2 1_555 1_555
C67_2 C66_2 1_555 1_555
C68_2 O31_2 1_555 1_555
C69_2 C62_2 1_555 1_555
H49_2 C69_2 1_555 1_555
C67_2 C68_2 1_555 1_555
C67_2 C69_2 1_555 1_555
Cu1_2 Cl1_3 1_555 1_555
O6_2 Cu2_2 1_555 1_555
N3_3 C41_3 1_555 1_555
C40_5 H30_3 1_555 1_555
C41_3 C40_5 1_555 1_555
O33_2 Cu1_2 1_555 1_555
O34_2 Cu2_2 1_555 1_555
O35_2 C77_2 1_555 1_555
O54 C77_2 1_555 1_555
H50_2 C41_3 1_555 1_555
C70_2 N3_3 1_555 1_555
H51_2 C70_2 1_555 1_555
H52_2 C70_2 1_555 1_555
C71_2 C70_2 1_555 1_555
C72_2 C71_2 1_555 1_555
H53_2 C72_2 1_555 1_555
C73_2 C72_2 1_555 1_555
C74_2 O33_2 1_555 1_555
C75_2 C73_2 1_555 1_555
H54_2 C75_2 1_555 1_555
C76_2 C75_2 1_555 1_555
C77_2 C76_2 1_555 1_555
C78_2 C71_2 1_555 1_555
H55_2 C78_2 1_555 1_555
O37_3 Cu15 1_555 1_555
H57_2 O37_3 1_555 1_555
O39_2 Cu1_2 1_555 1_555
O43_2 Cu2_2 1_555 1_555
O34_2 C74_2 1_555 1_555
O35_2 Cu15 1_555 1_555
C73_2 C74_2 1_555 1_555
C76_2 C78_2 1_555 1_555
C40_6 H30_4 1_555 1_555
O39_2 C56_2 1_555 1_555
O43_2 C56_2 1_555 1_555
O27_2 C59_2 1_555 1_555
O49 C59_2 1_555 1_555
N4_3 C51_3 1_555 1_555
C51_3 C40_6 1_555 1_555
H38_2 C51_3 1_555 1_555
C52_2 N4_3 1_555 1_555
H39_2 C52_2 1_555 1_555
H40_2 C52_2 1_555 1_555
C53_2 C52_2 1_555 1_555
C54_2 C53_2 1_555 1_555
H41_2 C54_2 1_555 1_555
C55_2 C54_2 1_555 1_555
C56_2 C55_2 1_555 1_555
C57_2 C55_2 1_555 1_555
H42_2 C57_2 1_555 1_555
C58_2 C57_2 1_555 1_555
C59_2 C58_2 1_555 1_555
C60_2 C53_2 1_555 1_555
H43_2 C60_2 1_555 1_555
Cu15_2 O27_2 1_555 1_555
O37_4 Cu15_2 1_555 1_555
H58_2 O37_4 1_555 1_555
C58_2 C60_2 1_555 1_555
Cl1_4 Cu4_3 1_555 1_555
N1_2 C2_2 1_555 1_555
C1_3 H2_3 1_555 1_555
C2_2 C1_3 1_555 1_555
O15_2 C35_2 1_555 1_555
O16_2 C35_2 1_555 1_555
O17_2 C38_2 1_555 1_555
O53 C38_2 1_555 1_555
H22_2 C2_2 1_555 1_555
C31_2 N1_2 1_555 1_555
H23_2 C31_2 1_555 1_555
H24_2 C31_2 1_555 1_555
C32_2 C31_2 1_555 1_555
C33_2 C32_2 1_555 1_555
H25_2 C33_2 1_555 1_555
C34_2 C33_2 1_555 1_555
C35_2 C34_2 1_555 1_555
C36_2 C34_2 1_555 1_555
H26_2 C36_2 1_555 1_555
C37_2 C36_2 1_555 1_555
C38_2 C37_2 1_555 1_555
C39_2 C32_2 1_555 1_555
H27_2 C39_2 1_555 1_555
Cu4_3 O15_2 1_555 1_555
Cu5_3 O16_2 1_555 1_555
O24_3 Cu5_3 1_555 1_555
O38_3 Cu16 1_555 1_555
H59_2 O38_3 1_555 1_555
O40_2 Cu4_3 1_555 1_555
O44_2 Cu5_3 1_555 1_555
O17_2 Cu16 1_555 1_555
C37_2 C39_2 1_555 1_555
C1_4 H2_4 1_555 1_555
O40_2 C17_2 1_555 1_555
O44_2 C17_2 1_555 1_555
O9_2 C20_2 1_555 1_555
O50 C20_2 1_555 1_555
N2_2 C12_2 1_555 1_555
C12_2 C1_4 1_555 1_555
H10_2 C12_2 1_555 1_555
C13_2 N2_2 1_555 1_555
H11_2 C13_2 1_555 1_555
H12_2 C13_2 1_555 1_555
C14_2 C13_2 1_555 1_555
C15_2 C14_2 1_555 1_555
H13_2 C15_2 1_555 1_555
C16_2 C15_2 1_555 1_555
C17_2 C16_2 1_555 1_555
C18_2 C16_2 1_555 1_555
H14_2 C18_2 1_555 1_555
C19_2 C18_2 1_555 1_555
C20_2 C19_2 1_555 1_555
C21_2 C14_2 1_555 1_555
H15_2 C21_2 1_555 1_555
Cu16_2 O9_2 1_555 1_555
O38_4 Cu16_2 1_555 1_555
H60_2 O38_4 1_555 1_555
C19_2 C21_2 1_555 1_555
Cu1_3 Cl1_5 1_555 1_555
Cu2_3 O2_2 1_555 1_555
Cu13 O3_2 1_555 1_555
O1_2 Cu1_3 1_555 1_555
O2_2 C7_2 1_555 1_555
O3_2 C10_2 1_555 1_555
O47 C10_2 1_555 1_555
O5_3 Cu13 1_555 1_555
O6_3 Cu2_3 1_555 1_555
N1_3 C2_3 1_555 1_555
C2_3 C1_5 1_555 1_555
H3_2 C2_3 1_555 1_555
C3_2 N1_3 1_555 1_555
H4_2 C3_2 1_555 1_555
H5_2 C3_2 1_555 1_555
C4_2 C3_2 1_555 1_555
C5_2 C4_2 1_555 1_555
H6_2 C5_2 1_555 1_555
C6_2 C5_2 1_555 1_555
C7_2 O1_2 1_555 1_555
C8_2 C6_2 1_555 1_555
H7_2 C8_2 1_555 1_555
C9_2 C8_2 1_555 1_555
C10_2 C9_2 1_555 1_555
C11_2 C4_2 1_555 1_555
H8_2 C11_2 1_555 1_555
H9_3 C1_5 1_555 1_555
H28_2 O5_3 1_555 1_555
O42_2 Cu1_3 1_555 1_555
O46_2 Cu2_3 1_555 1_555
C6_2 C7_2 1_555 1_555
C9_2 C11_2 1_555 1_555
O5_4 Cu13_2 1_555 1_555
H1_2 O5_4 1_555 1_555
N2_3 C12_3 1_555 1_555
H9_4 C1_6 1_555 1_555
C12_3 C1_6 1_555 1_555
O42_2 C26_2 1_555 1_555
O46_2 C26_2 1_555 1_555
O13_2 Cu13_2 1_555 1_555
O52 C29_2 1_555 1_555
H16_2 C12_3 1_555 1_555
C22_2 N2_3 1_555 1_555
H17_2 C22_2 1_555 1_555
H18_2 C22_2 1_555 1_555
C23_2 C22_2 1_555 1_555
C24_2 C23_2 1_555 1_555
H19_2 C24_2 1_555 1_555
C25_2 C24_2 1_555 1_555
C26_2 C25_2 1_555 1_555
C27_2 C25_2 1_555 1_555
H20_2 C27_2 1_555 1_555
C28_2 C27_2 1_555 1_555
C29_2 O13_2 1_555 1_555
C30_2 C23_2 1_555 1_555
H21_2 C30_2 1_555 1_555
C28_2 C29_2 1_555 1_555
C28_2 C30_2 1_555 1_555

#END
