
###############################################################################
#
# This file contains modified crystal structure data generated from the
# MOF subset of the Cambridge Structural Database (CSD) v543 
# hosted by the Cambridge Crystallographic Data Centre (CCDC).
#
# This work is licensed under the Creative Commons
# Attribution-NonCommercial-ShareAlike 4.0 International License.
# To view a copy of this license, visit
# http://creativecommons.org/licenses/by-nc-sa/4.0/
# or send a letter to
# Creative Commons, PO Box 1866, Mountain View, CA 94042, USA.
#
# CIF created using the CSD Python API on 29 September 2022
# The structure has been converted into the P1 space group
# The structure has a 3D framework
# The original CSD entry KECSUK is in the orthorhombic crystal system
# The framework has been calculated to contain at least 10.0% void space
# The void calculation uses a probe of radius 1.32A, grid spacing 0.4
# The framework is charged, counterions have been retained in the structure
#
###############################################################################

data_KECSUK
_chemical_formula_moiety         '(C320 H280 Cd20 N24 O132 6+)n'
_symmetry_cell_setting           triclinic
_symmetry_space_group_name_H-M   'P 1'
_symmetry_Int_Tables_number      1
_space_group_name_Hall           'P 1'
loop_
_symmetry_equiv_pos_site_id
_symmetry_equiv_pos_as_xyz
1 x,y,z
_cell_length_a                   16.868(3)
_cell_length_b                   25.914(5)
_cell_length_c                   28.838(6)
_cell_angle_alpha                90
_cell_angle_beta                 90
_cell_angle_gamma                90
_cell_volume                     12605.6
loop_
_atom_site_label
_atom_site_type_symbol
_atom_site_fract_x
_atom_site_fract_y
_atom_site_fract_z
N1 N 0.8906(3) 0.8997(2) 0.6787(2)
H1 H 0.920704 0.878538 0.695457
H2 H 0.892541 0.930648 0.692061
C1 C 0.9274(8) 0.9041(3) 0.6289(3)
H3 H 0.982626 0.912683 0.631320
H4 H 0.900376 0.930611 0.611800
H5 H 0.921771 0.871756 0.613002
C2 C 0.8076(5) 0.8809(3) 0.6808(4)
H6 H 0.801870 0.851459 0.660826
H7 H 0.772421 0.907761 0.670763
H8 H 0.794960 0.871233 0.712041
N1_2 N 0.1094(3) 0.1003(2) 0.6787(2)
H1_2 H 0.079296 0.121462 0.695457
H2_2 H 0.107459 0.069352 0.692061
C1_2 C 0.0726(8) 0.0959(3) 0.6289(3)
H3_2 H 0.017374 0.087317 0.631320
H4_2 H 0.099624 0.069389 0.611800
H5_2 H 0.078229 0.128244 0.613002
C2_2 C 0.1924(5) 0.1191(3) 0.6808(4)
H6_2 H 0.198130 0.148541 0.660826
H7_2 H 0.227579 0.092239 0.670763
H8_2 H 0.205040 0.128767 0.712041
N1_3 N 0.3906(3) 0.6003(2) 0.6787(2)
H1_3 H 0.420704 0.621462 0.695457
H2_3 H 0.392541 0.569352 0.692061
C1_3 C 0.4274(8) 0.5959(3) 0.6289(3)
H3_3 H 0.482626 0.587317 0.631320
H4_3 H 0.400376 0.569389 0.611800
H5_3 H 0.421771 0.628244 0.613002
C2_3 C 0.3076(5) 0.6191(3) 0.6808(4)
H6_3 H 0.301870 0.648541 0.660826
H7_3 H 0.272421 0.592239 0.670763
H8_3 H 0.294960 0.628767 0.712041
N1_4 N 0.6094(3) 0.3997(2) 0.6787(2)
H1_4 H 0.579296 0.378538 0.695457
H2_4 H 0.607459 0.430648 0.692061
C1_4 C 0.5726(8) 0.4041(3) 0.6289(3)
H3_4 H 0.517374 0.412683 0.631320
H4_4 H 0.599624 0.430611 0.611800
H5_4 H 0.578229 0.371756 0.613002
C2_4 C 0.6924(5) 0.3809(3) 0.6808(4)
H6_4 H 0.698130 0.351459 0.660826
H7_4 H 0.727579 0.407761 0.670763
H8_4 H 0.705040 0.371233 0.712041
N1_5 N 0.8906(3) 0.3997(2) 0.1787(2)
H1_5 H 0.920704 0.378538 0.195457
H2_5 H 0.892541 0.430648 0.192061
C1_5 C 0.9274(8) 0.4041(3) 0.1289(3)
H3_5 H 0.982626 0.412683 0.131320
H4_5 H 0.900376 0.430611 0.111800
H5_5 H 0.921771 0.371756 0.113002
C2_5 C 0.8076(5) 0.3809(3) 0.1808(4)
H6_5 H 0.801870 0.351459 0.160826
H7_5 H 0.772421 0.407761 0.170763
H8_5 H 0.794960 0.371233 0.212041
N1_6 N 0.1094(3) 0.6003(2) 0.1787(2)
H1_6 H 0.079296 0.621462 0.195457
H2_6 H 0.107459 0.569352 0.192061
C1_6 C 0.0726(8) 0.5959(3) 0.1289(3)
H3_6 H 0.017374 0.587317 0.131320
H4_6 H 0.099624 0.569389 0.111800
H5_6 H 0.078229 0.628244 0.113002
C2_6 C 0.1924(5) 0.6191(3) 0.1808(4)
H6_6 H 0.198130 0.648541 0.160826
H7_6 H 0.227579 0.592239 0.170763
H8_6 H 0.205040 0.628767 0.212041
N1_7 N 0.3906(3) 0.1003(2) 0.1787(2)
H1_7 H 0.420704 0.121462 0.195457
H2_7 H 0.392541 0.069352 0.192061
C1_7 C 0.4274(8) 0.0959(3) 0.1289(3)
H3_7 H 0.482626 0.087317 0.131320
H4_7 H 0.400376 0.069389 0.111800
H5_7 H 0.421771 0.128244 0.113002
C2_7 C 0.3076(5) 0.1191(3) 0.1808(4)
H6_7 H 0.301870 0.148541 0.160826
H7_7 H 0.272421 0.092239 0.170763
H8_7 H 0.294960 0.128767 0.212041
N1_8 N 0.6094(3) 0.8997(2) 0.1787(2)
H1_8 H 0.579296 0.878538 0.195457
H2_8 H 0.607459 0.930648 0.192061
C1_8 C 0.5726(8) 0.9041(3) 0.1289(3)
H3_8 H 0.517374 0.912683 0.131320
H4_8 H 0.599624 0.930611 0.111800
H5_8 H 0.578229 0.871756 0.113002
C2_8 C 0.6924(5) 0.8809(3) 0.1808(4)
H6_8 H 0.698130 0.851459 0.160826
H7_8 H 0.727579 0.907761 0.170763
H8_8 H 0.705040 0.871233 0.212041
Cd2 Cd 0.000000 0.500000 0.27601(8)
O13 O 0.0957(2) 0.79135(14) 0.72030(15)
O15 O 0.1909(2) 0.67135(14) 0.59003(16)
O16 O 0.1047(2) 0.64565(12) 0.53737(16)
C6 C 0.0145(3) 0.76010(18) 0.6577(2)
C7 C 0.0757(3) 0.73168(18) 0.63663(19)
H16 H 0.125998 0.730683 0.649810
C8 C 0.0596(3) 0.70465(18) 0.59512(19)
C10 C 0.0281(3) 0.7894(2) 0.7016(2)
C11 C 0.1243(3) 0.67198(18) 0.57266(19)
Cd7 Cd 0.22853(10) 0.60576(4) 0.53226(10)
Cd17 Cd 0.04165(2) 0.85496(2) 0.77582(8)
O37 O 0.0850(3) 0.4727(2) 0.33085(17)
O38 O 0.0952(2) 0.49803(15) 0.21865(16)
O50 O 0.07529(19) 0.59017(13) 0.29176(2)
Cd10 Cd 0.500000 0.000000 0.27601(8)
Cd1 Cd 0.77147(10) 0.39424(4) 0.53226(10)
Cd2_2 Cd 1.000000 0.500000 0.27601(8)
Cd3 Cd 0.45835(2) 0.85496(2) 0.27582(8)
O1 O 0.4755(3) 0.8076(2) 0.33748(18)
O2 O 0.3519(3) 0.7750(2) 0.33661(19)
O3 O 0.2673(2) 0.66747(19) 0.47288(18)
O4 O 0.3576(2) 0.64101(13) 0.52372(15)
O5 O 0.8582(2) 0.59934(16) 0.30253(16)
O6 O 0.9150(3) 0.5273(2) 0.33085(17)
O7 O 0.8042(4) 0.44882(17) 0.47297(18)
O8 O 0.6918(3) 0.4809(2) 0.50289(19)
O9 O 0.7757(4) 0.44555(18) 0.59312(18)
O10 O 0.8663(3) 0.5006(2) 0.5648(2)
O11 O 0.5952(2) 0.50197(15) 0.71865(16)
O12 O 0.5528(2) 0.58313(16) 0.71353(16)
O14 O 0.9684(2) 0.81299(15) 0.71915(15)
O17 O 0.57529(19) 0.90983(13) 0.29176(2)
H9 H 0.5876(8) 0.909(2) 0.26318(11)
H10 H 0.6168(3) 0.9026(8) 0.3072(3)
N2 N 0.8001(3) 0.68903(16) 0.57942(17)
H11 H 0.833660 0.661577 0.566693
N3 N 0.6628(3) 0.68140(16) 0.47621(17)
H12 H 0.631335 0.654494 0.491435
C3 C 0.8417(3) 0.73833(19) 0.5751(2)
H13 H 0.811069 0.765037 0.590481
H14 H 0.846012 0.747422 0.542611
C4 C 0.9239(3) 0.73606(18) 0.59636(19)
C5 C 0.9396(3) 0.76183(18) 0.63741(19)
H15 H 0.899453 0.780598 0.651685
C9 C 0.9846(3) 0.70834(18) 0.57552(18)
H17 H 0.974686 0.691691 0.547545
C12 C 0.7826(3) 0.6775(2) 0.6279(2)
H18 H 0.742(4) 0.702(3) 0.644(2)
H19 H 0.832(4) 0.684(3) 0.643(2)
C13 C 0.7546(3) 0.62279(18) 0.63497(19)
C14 C 0.7917(3) 0.5825(2) 0.6108(2)
H20 H 0.833603 0.589568 0.590787
C15 C 0.7660(4) 0.5323(2) 0.6167(2)
C16 C 0.7060(3) 0.5212(2) 0.6481(2)
H21 H 0.691189 0.487046 0.653098
C17 C 0.6676(3) 0.5607(2) 0.67208(19)
C18 C 0.6921(3) 0.61187(19) 0.66434(19)
H22 H 0.665810 0.638746 0.679201
C19 C 0.8069(4) 0.4893(2) 0.5888(2)
C20 C 0.6002(3) 0.5492(2) 0.7034(2)
C21 C 0.7250(3) 0.6910(2) 0.5530(2)
H23 H 0.697878 0.723063 0.560070
H24 H 0.691220 0.662811 0.562880
C22 C 0.7376(3) 0.6874(2) 0.5009(2)
H25 H 0.764038 0.718412 0.490106
H26 H 0.771637 0.658230 0.494086
C23 C 0.6184(3) 0.7309(2) 0.4779(2)
H27 H 0.647880 0.756749 0.460807
H28 H 0.615054 0.742191 0.509889
C24 C 0.5360(3) 0.72764(19) 0.45826(18)
C25 C 0.4767(3) 0.70005(19) 0.48094(19)
H29 H 0.488420 0.682896 0.508418
C26 C 0.4006(3) 0.69778(19) 0.46317(18)
C27 C 0.3809(3) 0.7240(2) 0.4228(2)
H30 H 0.329218 0.723081 0.411559
C28 C 0.4397(3) 0.7518(2) 0.3990(2)
C29 C 0.5162(4) 0.7535(2) 0.4169(2)
H31 H 0.555051 0.772128 0.401290
C30 C 0.3363(3) 0.66656(19) 0.4874(2)
C31 C 0.4198(4) 0.7800(2) 0.3541(2)
C32 C 0.6766(3) 0.6666(2) 0.4278(2)
H32 H 0.706566 0.693819 0.412820
H33 H 0.625823 0.664114 0.412259
C33 C 0.7210(3) 0.6157(2) 0.42113(19)
C34 C 0.7131(3) 0.5736(2) 0.4508(2)
H34 H 0.678991 0.575634 0.476048
C35 C 0.7561(4) 0.5283(2) 0.4429(2)
C36 C 0.8052(3) 0.5249(2) 0.4050(2)
H35 H 0.834441 0.494995 0.399871
C37 C 0.8114(3) 0.5662(2) 0.3741(2)
C38 C 0.7706(3) 0.6126(2) 0.3833(2)
H36 H 0.777131 0.640983 0.363940
C39 C 0.8664(3) 0.5639(2) 0.3328(2)
C40 C 0.7494(4) 0.4832(2) 0.4755(2)
Cd5 Cd 0.54165(2) 0.14504(2) 0.27582(8)
O18 O 0.5245(3) 0.1924(2) 0.33748(18)
O19 O 0.6481(3) 0.2250(2) 0.33661(19)
O20 O 0.7327(2) 0.33253(19) 0.47288(18)
O21 O 0.6424(2) 0.35899(13) 0.52372(15)
O22 O 0.1418(2) 0.40066(16) 0.30253(16)
O24 O 0.1958(4) 0.55118(17) 0.47297(18)
O25 O 0.3082(3) 0.5191(2) 0.50289(19)
O26 O 0.2243(4) 0.55445(18) 0.59312(18)
O27 O 0.1337(3) 0.4994(2) 0.5648(2)
O28 O 0.4048(2) 0.49803(15) 0.71865(16)
O29 O 0.4472(2) 0.41687(16) 0.71353(16)
O31 O 0.0316(2) 0.18701(15) 0.71915(15)
O34 O 0.42471(19) 0.09017(13) 0.29176(2)
H37 H 0.4124(8) 0.091(2) 0.26318(11)
H38 H 0.3832(3) 0.0974(8) 0.3072(3)
N4 N 0.1999(3) 0.31097(16) 0.57942(17)
H39 H 0.166340 0.338423 0.566693
N5 N 0.3372(3) 0.31860(16) 0.47621(17)
H40 H 0.368665 0.345506 0.491435
C41 C 0.1583(3) 0.26167(19) 0.5751(2)
H41 H 0.188931 0.234963 0.590481
H42 H 0.153988 0.252578 0.542611
C42 C 0.0761(3) 0.26394(18) 0.59636(19)
C43 C 0.0604(3) 0.23817(18) 0.63741(19)
H43 H 0.100547 0.219402 0.651685
C47 C 0.0154(3) 0.29166(18) 0.57552(18)
H45 H 0.025314 0.308309 0.547545
C50 C 0.2174(3) 0.3225(2) 0.6279(2)
H46 H 0.258(4) 0.298(3) 0.644(2)
H47 H 0.168(4) 0.316(3) 0.643(2)
C51 C 0.2454(3) 0.37721(18) 0.63497(19)
C52 C 0.2083(3) 0.4175(2) 0.6108(2)
H48 H 0.166397 0.410432 0.590787
C53 C 0.2340(4) 0.4677(2) 0.6167(2)
C54 C 0.2940(3) 0.4788(2) 0.6481(2)
H49 H 0.308811 0.512954 0.653098
C55 C 0.3324(3) 0.4393(2) 0.67208(19)
C56 C 0.3079(3) 0.38813(19) 0.66434(19)
H50 H 0.334190 0.361254 0.679201
C57 C 0.1931(4) 0.5107(2) 0.5888(2)
C58 C 0.3998(3) 0.4508(2) 0.7034(2)
C59 C 0.2750(3) 0.3090(2) 0.5530(2)
H51 H 0.302122 0.276937 0.560070
H52 H 0.308780 0.337189 0.562880
C60 C 0.2624(3) 0.3126(2) 0.5009(2)
H53 H 0.235962 0.281588 0.490106
H54 H 0.228363 0.341770 0.494086
C61 C 0.3816(3) 0.2691(2) 0.4779(2)
H55 H 0.352120 0.243251 0.460807
H56 H 0.384946 0.257809 0.509889
C62 C 0.4640(3) 0.27236(19) 0.45826(18)
C63 C 0.5233(3) 0.29995(19) 0.48094(19)
H57 H 0.511580 0.317104 0.508418
C64 C 0.5994(3) 0.30222(19) 0.46317(18)
C65 C 0.6191(3) 0.2760(2) 0.4228(2)
H58 H 0.670782 0.276919 0.411559
C66 C 0.5603(3) 0.2482(2) 0.3990(2)
C67 C 0.4838(4) 0.2465(2) 0.4169(2)
H59 H 0.444949 0.227872 0.401290
C68 C 0.6637(3) 0.33344(19) 0.4874(2)
C69 C 0.5802(4) 0.2200(2) 0.3541(2)
C70 C 0.3234(3) 0.3334(2) 0.4278(2)
H60 H 0.293434 0.306181 0.412820
H61 H 0.374177 0.335886 0.412259
C71 C 0.2790(3) 0.3843(2) 0.42113(19)
C72 C 0.2869(3) 0.4264(2) 0.4508(2)
H62 H 0.321009 0.424366 0.476048
C73 C 0.2439(4) 0.4717(2) 0.4429(2)
C74 C 0.1948(3) 0.4751(2) 0.4050(2)
H63 H 0.165559 0.505005 0.399871
C75 C 0.1886(3) 0.4338(2) 0.3741(2)
C76 C 0.2294(3) 0.3874(2) 0.3833(2)
H64 H 0.222869 0.359017 0.363940
C77 C 0.1336(3) 0.4361(2) 0.3328(2)
C78 C 0.2506(4) 0.5168(2) 0.4755(2)
Cd10_2 Cd 0.500000 1.000000 0.27601(8)
Cd11 Cd 0.500000 0.500000 0.77601(8)
Cd12 Cd 0.95835(2) 0.64504(2) 0.27582(8)
Cd13 Cd 0.04165(2) 0.35496(2) 0.27582(8)
Cd14 Cd 0.45835(2) 0.35496(2) 0.77582(8)
Cd15 Cd 0.54165(2) 0.64504(2) 0.77582(8)
O35 O 0.3582(2) 0.90066(16) 0.30253(16)
O36 O 0.6418(2) 0.09934(16) 0.30253(16)
O39 O 0.9048(2) 0.50197(15) 0.21865(16)
O40 O 0.5528(2) 0.08313(16) 0.21353(16)
O41 O 0.4472(2) 0.91687(16) 0.21353(16)
O42 O 0.5957(2) 0.20865(14) 0.22030(15)
O43 O 0.4043(2) 0.79135(14) 0.22030(15)
O44 O 0.4684(2) 0.18701(15) 0.21915(15)
O45 O 0.5316(2) 0.81299(15) 0.21915(15)
O47 O 0.8091(2) 0.32865(14) 0.59003(16)
O49 O 0.8953(2) 0.35435(12) 0.53737(16)
O51 O 0.92471(19) 0.40983(13) 0.29176(2)
O30 O 0.9043(2) 0.20865(14) 0.72030(15)
C44 C 0.9855(3) 0.23990(18) 0.6577(2)
C45 C 0.9243(3) 0.26832(18) 0.63663(19)
H44 H 0.874002 0.269317 0.649810
C46 C 0.9404(3) 0.29535(18) 0.59512(19)
C48 C 0.9719(3) 0.2106(2) 0.7016(2)
C49 C 0.8757(3) 0.32802(18) 0.57266(19)
Cd16 Cd 0.95835(2) 0.14504(2) 0.77582(8)
Cd1_2 Cd 0.27147(10) 0.10576(4) 0.53226(10)
O7_2 O 0.3042(4) 0.05118(17) 0.47297(18)
O8_2 O 0.1918(3) 0.0191(2) 0.50289(19)
O9_2 O 0.2757(4) 0.05445(18) 0.59312(18)
H21_2 H 0.191189 0.012954 0.653098
C19_2 C 0.3069(4) 0.0107(2) 0.5888(2)
H35_2 H 0.334441 0.005005 0.399871
C40_2 C 0.2494(4) 0.0168(2) 0.4755(2)
O18_2 O 0.0245(3) 0.3076(2) 0.33748(18)
O19_2 O 0.1481(3) 0.2750(2) 0.33661(19)
O20_2 O 0.2327(2) 0.16747(19) 0.47288(18)
O21_2 O 0.1424(2) 0.14101(13) 0.52372(15)
C63_2 C 0.0233(3) 0.20005(19) 0.48094(19)
H57_2 H 0.011580 0.182896 0.508418
C64_2 C 0.0994(3) 0.19778(19) 0.46317(18)
C65_2 C 0.1191(3) 0.2240(2) 0.4228(2)
H58_2 H 0.170782 0.223081 0.411559
C66_2 C 0.0603(3) 0.2518(2) 0.3990(2)
C68_2 C 0.1637(3) 0.16656(19) 0.4874(2)
C69_2 C 0.0802(4) 0.2800(2) 0.3541(2)
Cd11_2 Cd 0.000000 -0.000000 0.77601(8)
O37_2 O 0.5850(3) 0.0273(2) 0.33085(17)
O38_2 O 0.5952(2) 0.00197(15) 0.21865(16)
O40_2 O 0.0528(2) 0.41687(16) 0.21353(16)
O42_2 O 0.0957(2) 0.29135(14) 0.22030(15)
O47_2 O 0.3091(2) 0.17135(14) 0.59003(16)
O49_2 O 0.3953(2) 0.14565(12) 0.53737(16)
O6_2 O 0.4150(3) 0.9727(2) 0.33085(17)
O10_2 O 0.3663(3) 0.9994(2) 0.5648(2)
O11_2 O 0.0952(2) 0.99803(15) 0.71865(16)
O12_2 O 0.0528(2) 0.91687(16) 0.71353(16)
O13_2 O 0.5957(2) 0.70865(14) 0.72030(15)
O14_2 O 0.4684(2) 0.68701(15) 0.71915(15)
O15_2 O 0.6909(2) 0.82865(14) 0.59003(16)
O16_2 O 0.6047(2) 0.85435(12) 0.53737(16)
H9_2 H 0.0876(8) 0.591(2) 0.26318(11)
H10_2 H 0.1168(3) 0.5974(8) 0.3072(3)
N2_2 N 0.3001(3) 0.81097(16) 0.57942(17)
H11_2 H 0.333660 0.838423 0.566693
N3_2 N 0.1628(3) 0.81860(16) 0.47621(17)
H12_2 H 0.131335 0.845506 0.491435
C3_2 C 0.3417(3) 0.76167(19) 0.5751(2)
H13_2 H 0.311069 0.734963 0.590481
H14_2 H 0.346012 0.752578 0.542611
C4_2 C 0.4239(3) 0.76394(18) 0.59636(19)
C5_2 C 0.4396(3) 0.73817(18) 0.63741(19)
H15_2 H 0.399453 0.719402 0.651685
C6_2 C 0.5145(3) 0.73990(18) 0.6577(2)
C7_2 C 0.5757(3) 0.76832(18) 0.63663(19)
H16_2 H 0.625998 0.769317 0.649810
C8_2 C 0.5596(3) 0.79535(18) 0.59512(19)
C9_2 C 0.4846(3) 0.79166(18) 0.57552(18)
H17_2 H 0.474686 0.808309 0.547545
C10_2 C 0.5281(3) 0.7106(2) 0.7016(2)
C11_2 C 0.6243(3) 0.82802(18) 0.57266(19)
C12_2 C 0.2826(3) 0.8225(2) 0.6279(2)
H18_2 H 0.242(4) 0.798(3) 0.644(2)
H19_2 H 0.332(4) 0.816(3) 0.643(2)
C13_2 C 0.2546(3) 0.87721(18) 0.63497(19)
C14_2 C 0.2917(3) 0.9175(2) 0.6108(2)
H20_2 H 0.333603 0.910432 0.590787
C15_2 C 0.2660(4) 0.9677(2) 0.6167(2)
C16_2 C 0.2060(3) 0.9788(2) 0.6481(2)
C17_2 C 0.1676(3) 0.9393(2) 0.67208(19)
C18_2 C 0.1921(3) 0.88813(19) 0.66434(19)
H22_2 H 0.165810 0.861254 0.679201
C20_2 C 0.1002(3) 0.9508(2) 0.7034(2)
C21_2 C 0.2250(3) 0.8090(2) 0.5530(2)
H23_2 H 0.197878 0.776937 0.560070
H24_2 H 0.191220 0.837189 0.562880
C22_2 C 0.2376(3) 0.8126(2) 0.5009(2)
H25_2 H 0.264038 0.781588 0.490106
H26_2 H 0.271637 0.841770 0.494086
C23_2 C 0.1184(3) 0.7691(2) 0.4779(2)
H27_2 H 0.147880 0.743251 0.460807
H28_2 H 0.115054 0.757809 0.509889
C24_2 C 0.0360(3) 0.77236(19) 0.45826(18)
C29_2 C 0.0162(4) 0.7465(2) 0.4169(2)
H31_2 H 0.055051 0.727872 0.401290
C32_2 C 0.1766(3) 0.8334(2) 0.4278(2)
H32_2 H 0.206566 0.806181 0.412820
H33_2 H 0.125823 0.835886 0.412259
C33_2 C 0.2210(3) 0.8843(2) 0.42113(19)
C34_2 C 0.2131(3) 0.9264(2) 0.4508(2)
H34_2 H 0.178991 0.924366 0.476048
C35_2 C 0.2561(4) 0.9717(2) 0.4429(2)
C36_2 C 0.3052(3) 0.9751(2) 0.4050(2)
C37_2 C 0.3114(3) 0.9338(2) 0.3741(2)
C38_2 C 0.2706(3) 0.8874(2) 0.3833(2)
H36_2 H 0.277131 0.859017 0.363940
C39_2 C 0.3664(3) 0.9361(2) 0.3328(2)
Cd7_2 Cd 0.72853(10) 0.89424(4) 0.53226(10)
Cd11_3 Cd 0.000000 1.000000 0.77601(8)
O39_2 O 0.4048(2) 0.99803(15) 0.21865(16)
O45_2 O 0.0316(2) 0.68701(15) 0.21915(15)
O27_2 O 0.6337(3) 0.0006(2) 0.5648(2)
O28_2 O 0.9048(2) 0.00197(15) 0.71865(16)
O29_2 O 0.9472(2) 0.08313(16) 0.71353(16)
O30_2 O 0.4043(2) 0.29135(14) 0.72030(15)
O31_2 O 0.5316(2) 0.31299(15) 0.71915(15)
H37_2 H 0.9124(8) 0.409(2) 0.26318(11)
H38_2 H 0.8832(3) 0.4026(8) 0.3072(3)
N4_2 N 0.6999(3) 0.18903(16) 0.57942(17)
H39_2 H 0.666340 0.161577 0.566693
N5_2 N 0.8372(3) 0.18140(16) 0.47621(17)
H40_2 H 0.868665 0.154494 0.491435
C41_2 C 0.6583(3) 0.23833(19) 0.5751(2)
H41_2 H 0.688931 0.265037 0.590481
H42_2 H 0.653988 0.247422 0.542611
C42_2 C 0.5761(3) 0.23606(18) 0.59636(19)
C43_2 C 0.5604(3) 0.26183(18) 0.63741(19)
H43_2 H 0.600547 0.280598 0.651685
C44_2 C 0.4855(3) 0.26010(18) 0.6577(2)
C45_2 C 0.4243(3) 0.23168(18) 0.63663(19)
H44_2 H 0.374002 0.230683 0.649810
C46_2 C 0.4404(3) 0.20465(18) 0.59512(19)
C47_2 C 0.5154(3) 0.20834(18) 0.57552(18)
H45_2 H 0.525314 0.191691 0.547545
C48_2 C 0.4719(3) 0.2894(2) 0.7016(2)
C49_2 C 0.3757(3) 0.17198(18) 0.57266(19)
C50_2 C 0.7174(3) 0.1775(2) 0.6279(2)
H46_2 H 0.758(4) 0.202(3) 0.644(2)
H47_2 H 0.668(4) 0.184(3) 0.643(2)
C51_2 C 0.7454(3) 0.12279(18) 0.63497(19)
C52_2 C 0.7083(3) 0.0825(2) 0.6108(2)
H48_2 H 0.666397 0.089568 0.590787
C53_2 C 0.7340(4) 0.0323(2) 0.6167(2)
C54_2 C 0.7940(3) 0.0212(2) 0.6481(2)
C55_2 C 0.8324(3) 0.0607(2) 0.67208(19)
C56_2 C 0.8079(3) 0.11187(19) 0.66434(19)
H50_2 H 0.834190 0.138746 0.679201
C58_2 C 0.8998(3) 0.0492(2) 0.7034(2)
C59_2 C 0.7750(3) 0.1910(2) 0.5530(2)
H51_2 H 0.802122 0.223063 0.560070
H52_2 H 0.808780 0.162811 0.562880
C60_2 C 0.7624(3) 0.1874(2) 0.5009(2)
H53_2 H 0.735962 0.218412 0.490106
H54_2 H 0.728363 0.158230 0.494086
C61_2 C 0.8816(3) 0.2309(2) 0.4779(2)
H55_2 H 0.852120 0.256749 0.460807
H56_2 H 0.884946 0.242191 0.509889
C62_2 C 0.9640(3) 0.22764(19) 0.45826(18)
C67_2 C 0.9838(4) 0.2535(2) 0.4169(2)
H59_2 H 0.944949 0.272128 0.401290
C70_2 C 0.8234(3) 0.1666(2) 0.4278(2)
H60_2 H 0.793434 0.193819 0.412820
H61_2 H 0.874177 0.164114 0.412259
C71_2 C 0.7790(3) 0.1157(2) 0.42113(19)
C72_2 C 0.7869(3) 0.0736(2) 0.4508(2)
H62_2 H 0.821009 0.075634 0.476048
C73_2 C 0.7439(4) 0.0283(2) 0.4429(2)
C74_2 C 0.6948(3) 0.0249(2) 0.4050(2)
C75_2 C 0.6886(3) 0.0662(2) 0.3741(2)
C76_2 C 0.7294(3) 0.1126(2) 0.3833(2)
H64_2 H 0.722869 0.140983 0.363940
C77_2 C 0.6336(3) 0.0639(2) 0.3328(2)
Cd11_4 Cd 1.000000 -0.000000 0.77601(8)
O44_2 O 0.9684(2) 0.31299(15) 0.21915(15)
O1_2 O 0.9755(3) 0.6924(2) 0.33748(18)
O2_2 O 0.8519(3) 0.7250(2) 0.33661(19)
O3_2 O 0.7673(2) 0.83253(19) 0.47288(18)
O4_2 O 0.8576(2) 0.85899(13) 0.52372(15)
C25_2 C 0.9767(3) 0.79995(19) 0.48094(19)
H29_2 H 0.988420 0.817104 0.508418
C26_2 C 0.9006(3) 0.80222(19) 0.46317(18)
C27_2 C 0.8809(3) 0.7760(2) 0.4228(2)
H30_2 H 0.829218 0.776919 0.411559
C28_2 C 0.9397(3) 0.7482(2) 0.3990(2)
C30_2 C 0.8363(3) 0.83344(19) 0.4874(2)
C31_2 C 0.9198(4) 0.7200(2) 0.3541(2)
O24_2 O 0.6958(4) 0.94882(17) 0.47297(18)
O25_2 O 0.8082(3) 0.9809(2) 0.50289(19)
O26_2 O 0.7243(4) 0.94555(18) 0.59312(18)
H49_2 H 0.808811 0.987046 0.653098
C57_2 C 0.6931(4) 0.9893(2) 0.5888(2)
H63_2 H 0.665559 0.994995 0.399871
C78_2 C 0.7506(4) 0.9832(2) 0.4755(2)
Cd11_5 Cd 1.000000 1.000000 0.77601(8)
O41_2 O 0.9472(2) 0.58313(16) 0.21353(16)
O43_2 O 0.9043(2) 0.70865(14) 0.22030(15)
O15_3 O 0.1909(2) 0.17135(14) 0.09003(16)
O16_3 O 0.1047(2) 0.14565(12) 0.03737(16)
C6_3 C 0.0145(3) 0.26010(18) 0.1577(2)
C7_3 C 0.0757(3) 0.23168(18) 0.13663(19)
H16_3 H 0.125998 0.230683 0.149810
C8_3 C 0.0596(3) 0.20465(18) 0.09512(19)
C10_3 C 0.0281(3) 0.2894(2) 0.2016(2)
C11_3 C 0.1243(3) 0.17198(18) 0.07266(19)
Cd7_3 Cd 0.22853(10) 0.10576(4) 0.03226(10)
O50_2 O 0.07529(19) 0.09017(13) 0.79176(2)
O37_3 O 0.0850(3) 0.9727(2) 0.83085(17)
O4_3 O 0.3576(2) 0.14101(13) 0.02372(15)
O10_3 O 0.8663(3) 0.0006(2) 0.0648(2)
N2_3 N 0.8001(3) 0.18903(16) 0.07942(17)
H11_3 H 0.833660 0.161577 0.066693
C3_3 C 0.8417(3) 0.23833(19) 0.0751(2)
H13_3 H 0.811069 0.265037 0.090481
H14_3 H 0.846012 0.247422 0.042611
C4_3 C 0.9239(3) 0.23606(18) 0.09636(19)
C5_3 C 0.9396(3) 0.26183(18) 0.13741(19)
H15_3 H 0.899453 0.280598 0.151685
C9_3 C 0.9846(3) 0.20834(18) 0.07552(18)
H17_3 H 0.974686 0.191691 0.047545
C12_3 C 0.7826(3) 0.1775(2) 0.1279(2)
H18_3 H 0.742(4) 0.202(3) 0.144(2)
H19_3 H 0.832(4) 0.184(3) 0.143(2)
C13_3 C 0.7546(3) 0.12279(18) 0.13497(19)
C14_3 C 0.7917(3) 0.0825(2) 0.1108(2)
H20_3 H 0.833603 0.089568 0.090787
C15_3 C 0.7660(4) 0.0323(2) 0.1167(2)
C16_3 C 0.7060(3) 0.0212(2) 0.1481(2)
C17_3 C 0.6676(3) 0.0607(2) 0.17208(19)
C18_3 C 0.6921(3) 0.11187(19) 0.16434(19)
H22_3 H 0.665810 0.138746 0.179201
C20_3 C 0.6002(3) 0.0492(2) 0.2034(2)
C21_3 C 0.7250(3) 0.1910(2) 0.0530(2)
H23_3 H 0.697878 0.223063 0.060070
H24_3 H 0.691220 0.162811 0.062880
C22_3 C 0.7376(3) 0.1874(2) 0.0009(2)
H28_3 H 0.615054 0.242191 0.009889
H29_3 H 0.488420 0.182896 0.008418
O25_3 O 0.3082(3) 0.0191(2) 0.00289(19)
O26_3 O 0.2243(4) 0.05445(18) 0.09312(18)
H49_3 H 0.308811 0.012954 0.153098
C57_3 C 0.1931(4) 0.0107(2) 0.0888(2)
O1_3 O 0.4755(3) 0.3076(2) 0.83748(18)
O2_3 O 0.3519(3) 0.2750(2) 0.83661(19)
O3_3 O 0.2673(2) 0.16747(19) 0.97288(18)
O5_2 O 0.8582(2) 0.09934(16) 0.80253(16)
O6_3 O 0.9150(3) 0.0273(2) 0.83085(17)
O17_2 O 0.57529(19) 0.40983(13) 0.79176(2)
H9_3 H 0.5876(8) 0.409(2) 0.76318(11)
H10_3 H 0.6168(3) 0.4026(8) 0.8072(3)
N3_3 N 0.6628(3) 0.18140(16) 0.97621(17)
H12_3 H 0.631335 0.154494 0.991435
H25_3 H 0.764038 0.218412 0.990106
H26_3 H 0.771637 0.158230 0.994086
C23_3 C 0.6184(3) 0.2309(2) 0.9779(2)
H27_3 H 0.647880 0.256749 0.960807
C24_3 C 0.5360(3) 0.22764(19) 0.95826(18)
C25_3 C 0.4767(3) 0.20005(19) 0.98094(19)
C26_3 C 0.4006(3) 0.19778(19) 0.96317(18)
C27_3 C 0.3809(3) 0.2240(2) 0.9228(2)
H30_3 H 0.329218 0.223081 0.911559
C28_3 C 0.4397(3) 0.2518(2) 0.8990(2)
C29_3 C 0.5162(4) 0.2535(2) 0.9169(2)
H31_3 H 0.555051 0.272128 0.901290
C30_3 C 0.3363(3) 0.16656(19) 0.9874(2)
C31_3 C 0.4198(4) 0.2800(2) 0.8541(2)
C32_3 C 0.6766(3) 0.1666(2) 0.9278(2)
H32_3 H 0.706566 0.193819 0.912820
H33_3 H 0.625823 0.164114 0.912259
C33_3 C 0.7210(3) 0.1157(2) 0.92113(19)
C34_3 C 0.7131(3) 0.0736(2) 0.9508(2)
H34_3 H 0.678991 0.075634 0.976048
C35_3 C 0.7561(4) 0.0283(2) 0.9429(2)
C36_3 C 0.8052(3) 0.0249(2) 0.9050(2)
C37_3 C 0.8114(3) 0.0662(2) 0.8741(2)
C38_3 C 0.7706(3) 0.1126(2) 0.8833(2)
H36_3 H 0.777131 0.140983 0.863940
C39_3 C 0.8664(3) 0.0639(2) 0.8328(2)
O24_3 O 0.1958(4) 0.05118(17) 0.97297(18)
H63_3 H 0.165559 0.005005 0.899871
C78_3 C 0.2506(4) 0.0168(2) 0.9755(2)
O35_2 O 0.3582(2) 0.40066(16) 0.80253(16)
Cd1_3 Cd 0.77147(10) 0.89424(4) 0.03226(10)
O8_3 O 0.6918(3) 0.9809(2) 0.00289(19)
O9_3 O 0.7757(4) 0.94555(18) 0.09312(18)
H21_3 H 0.691189 0.987046 0.153098
C19_3 C 0.8069(4) 0.9893(2) 0.0888(2)
O21_3 O 0.6424(2) 0.85899(13) 0.02372(15)
O27_3 O 0.1337(3) 0.9994(2) 0.0648(2)
N4_3 N 0.1999(3) 0.81097(16) 0.07942(17)
H39_3 H 0.166340 0.838423 0.066693
C41_3 C 0.1583(3) 0.76167(19) 0.0751(2)
H41_3 H 0.188931 0.734963 0.090481
H42_3 H 0.153988 0.752578 0.042611
C42_3 C 0.0761(3) 0.76394(18) 0.09636(19)
C43_3 C 0.0604(3) 0.73817(18) 0.13741(19)
H43_3 H 0.100547 0.719402 0.151685
C47_3 C 0.0154(3) 0.79166(18) 0.07552(18)
H45_3 H 0.025314 0.808309 0.047545
C50_3 C 0.2174(3) 0.8225(2) 0.1279(2)
H46_3 H 0.258(4) 0.798(3) 0.144(2)
H47_3 H 0.168(4) 0.816(3) 0.143(2)
C51_3 C 0.2454(3) 0.87721(18) 0.13497(19)
C52_3 C 0.2083(3) 0.9175(2) 0.1108(2)
H48_3 H 0.166397 0.910432 0.090787
C53_3 C 0.2340(4) 0.9677(2) 0.1167(2)
C54_3 C 0.2940(3) 0.9788(2) 0.1481(2)
C55_3 C 0.3324(3) 0.9393(2) 0.17208(19)
C56_3 C 0.3079(3) 0.88813(19) 0.16434(19)
H50_3 H 0.334190 0.861254 0.179201
C58_3 C 0.3998(3) 0.9508(2) 0.2034(2)
C59_3 C 0.2750(3) 0.8090(2) 0.0530(2)
H51_3 H 0.302122 0.776937 0.060070
H52_3 H 0.308780 0.837189 0.062880
C60_3 C 0.2624(3) 0.8126(2) 0.0009(2)
H56_3 H 0.384946 0.757809 0.009889
H57_3 H 0.511580 0.817104 0.008418
O47_3 O 0.8091(2) 0.82865(14) 0.09003(16)
O49_3 O 0.8953(2) 0.85435(12) 0.03737(16)
O7_3 O 0.8042(4) 0.94882(17) 0.97297(18)
H35_3 H 0.834441 0.994995 0.899871
C40_3 C 0.7494(4) 0.9832(2) 0.9755(2)
O18_3 O 0.5245(3) 0.6924(2) 0.83748(18)
O19_3 O 0.6481(3) 0.7250(2) 0.83661(19)
O20_3 O 0.7327(2) 0.83253(19) 0.97288(18)
O22_2 O 0.1418(2) 0.90066(16) 0.80253(16)
O34_2 O 0.42471(19) 0.59017(13) 0.79176(2)
H37_3 H 0.4124(8) 0.591(2) 0.76318(11)
H38_3 H 0.3832(3) 0.5974(8) 0.8072(3)
N5_3 N 0.3372(3) 0.81860(16) 0.97621(17)
H40_3 H 0.368665 0.845506 0.991435
H53_3 H 0.235962 0.781588 0.990106
H54_3 H 0.228363 0.841770 0.994086
C61_3 C 0.3816(3) 0.7691(2) 0.9779(2)
H55_3 H 0.352120 0.743251 0.960807
C62_3 C 0.4640(3) 0.77236(19) 0.95826(18)
C63_3 C 0.5233(3) 0.79995(19) 0.98094(19)
C64_3 C 0.5994(3) 0.80222(19) 0.96317(18)
C65_3 C 0.6191(3) 0.7760(2) 0.9228(2)
H58_3 H 0.670782 0.776919 0.911559
C66_3 C 0.5603(3) 0.7482(2) 0.8990(2)
C67_3 C 0.4838(4) 0.7465(2) 0.9169(2)
H59_3 H 0.444949 0.727872 0.901290
C68_3 C 0.6637(3) 0.83344(19) 0.9874(2)
C69_3 C 0.5802(4) 0.7200(2) 0.8541(2)
C70_3 C 0.3234(3) 0.8334(2) 0.9278(2)
H60_3 H 0.293434 0.806181 0.912820
H61_3 H 0.374177 0.835886 0.912259
C71_3 C 0.2790(3) 0.8843(2) 0.92113(19)
C72_3 C 0.2869(3) 0.9264(2) 0.9508(2)
H62_3 H 0.321009 0.924366 0.976048
C73_3 C 0.2439(4) 0.9717(2) 0.9429(2)
C74_3 C 0.1948(3) 0.9751(2) 0.9050(2)
C75_3 C 0.1886(3) 0.9338(2) 0.8741(2)
C76_3 C 0.2294(3) 0.8874(2) 0.8833(2)
H64_3 H 0.222869 0.859017 0.863940
C77_3 C 0.1336(3) 0.9361(2) 0.8328(2)
O36_2 O 0.6418(2) 0.59934(16) 0.80253(16)
O51_2 O 0.92471(19) 0.90983(13) 0.79176(2)
C44_3 C 0.9855(3) 0.73990(18) 0.1577(2)
C45_3 C 0.9243(3) 0.76832(18) 0.13663(19)
H44_3 H 0.874002 0.769317 0.149810
C46_3 C 0.9404(3) 0.79535(18) 0.09512(19)
C48_3 C 0.9719(3) 0.7106(2) 0.2016(2)
C49_3 C 0.8757(3) 0.82802(18) 0.07266(19)
Cd1_4 Cd 0.27147(10) 0.60576(4) 0.03226(10)
O8_4 O 0.1918(3) 0.5191(2) 0.00289(19)
O9_4 O 0.2757(4) 0.55445(18) 0.09312(18)
O10_4 O 0.3663(3) 0.4994(2) 0.0648(2)
O15_4 O 0.6909(2) 0.32865(14) 0.09003(16)
O16_4 O 0.6047(2) 0.35435(12) 0.03737(16)
N2_4 N 0.3001(3) 0.31097(16) 0.07942(17)
H11_4 H 0.333660 0.338423 0.066693
C3_4 C 0.3417(3) 0.26167(19) 0.0751(2)
H13_4 H 0.311069 0.234963 0.090481
H14_4 H 0.346012 0.252578 0.042611
C4_4 C 0.4239(3) 0.26394(18) 0.09636(19)
C5_4 C 0.4396(3) 0.23817(18) 0.13741(19)
H15_4 H 0.399453 0.219402 0.151685
C6_4 C 0.5145(3) 0.23990(18) 0.1577(2)
C7_4 C 0.5757(3) 0.26832(18) 0.13663(19)
H16_4 H 0.625998 0.269317 0.149810
C8_4 C 0.5596(3) 0.29535(18) 0.09512(19)
C9_4 C 0.4846(3) 0.29166(18) 0.07552(18)
H17_4 H 0.474686 0.308309 0.047545
C10_4 C 0.5281(3) 0.2106(2) 0.2016(2)
C11_4 C 0.6243(3) 0.32802(18) 0.07266(19)
C12_4 C 0.2826(3) 0.3225(2) 0.1279(2)
H18_4 H 0.242(4) 0.298(3) 0.144(2)
H19_4 H 0.332(4) 0.316(3) 0.143(2)
C13_4 C 0.2546(3) 0.37721(18) 0.13497(19)
C14_4 C 0.2917(3) 0.4175(2) 0.1108(2)
H20_4 H 0.333603 0.410432 0.090787
C15_4 C 0.2660(4) 0.4677(2) 0.1167(2)
C16_4 C 0.2060(3) 0.4788(2) 0.1481(2)
H21_4 H 0.191189 0.512954 0.153098
C17_4 C 0.1676(3) 0.4393(2) 0.17208(19)
C18_4 C 0.1921(3) 0.38813(19) 0.16434(19)
H22_4 H 0.165810 0.361254 0.179201
C19_4 C 0.3069(4) 0.5107(2) 0.0888(2)
C20_4 C 0.1002(3) 0.4508(2) 0.2034(2)
C21_4 C 0.2250(3) 0.3090(2) 0.0530(2)
H23_4 H 0.197878 0.276937 0.060070
H24_4 H 0.191220 0.337189 0.062880
C22_4 C 0.2376(3) 0.3126(2) 0.0009(2)
H28_4 H 0.115054 0.257809 0.009889
O21_4 O 0.1424(2) 0.64101(13) 0.02372(15)
H57_4 H 0.011580 0.682896 0.008418
Cd7_4 Cd 0.72853(10) 0.39424(4) 0.03226(10)
O47_4 O 0.3091(2) 0.67135(14) 0.09003(16)
O49_4 O 0.3953(2) 0.64565(12) 0.03737(16)
O6_4 O 0.4150(3) 0.4727(2) 0.83085(17)
O7_4 O 0.3042(4) 0.55118(17) 0.97297(18)
H9_4 H 0.0876(8) 0.091(2) 0.76318(11)
H10_4 H 0.1168(3) 0.0974(8) 0.8072(3)
N3_4 N 0.1628(3) 0.31860(16) 0.97621(17)
H12_4 H 0.131335 0.345506 0.991435
H25_4 H 0.264038 0.281588 0.990106
H26_4 H 0.271637 0.341770 0.994086
C23_4 C 0.1184(3) 0.2691(2) 0.9779(2)
H27_4 H 0.147880 0.243251 0.960807
C24_4 C 0.0360(3) 0.27236(19) 0.95826(18)
C29_4 C 0.0162(4) 0.2465(2) 0.9169(2)
H31_4 H 0.055051 0.227872 0.901290
C32_4 C 0.1766(3) 0.3334(2) 0.9278(2)
H32_4 H 0.206566 0.306181 0.912820
H33_4 H 0.125823 0.335886 0.912259
C33_4 C 0.2210(3) 0.3843(2) 0.92113(19)
C34_4 C 0.2131(3) 0.4264(2) 0.9508(2)
H34_4 H 0.178991 0.424366 0.976048
C35_4 C 0.2561(4) 0.4717(2) 0.9429(2)
C36_4 C 0.3052(3) 0.4751(2) 0.9050(2)
H35_4 H 0.334441 0.505005 0.899871
C37_4 C 0.3114(3) 0.4338(2) 0.8741(2)
C38_4 C 0.2706(3) 0.3874(2) 0.8833(2)
H36_4 H 0.277131 0.359017 0.863940
C39_4 C 0.3664(3) 0.4361(2) 0.8328(2)
C40_4 C 0.2494(4) 0.5168(2) 0.9755(2)
O18_4 O 0.0245(3) 0.8076(2) 0.83748(18)
O19_4 O 0.1481(3) 0.7750(2) 0.83661(19)
O20_4 O 0.2327(2) 0.66747(19) 0.97288(18)
C63_4 C 0.0233(3) 0.70005(19) 0.98094(19)
C64_4 C 0.0994(3) 0.69778(19) 0.96317(18)
C65_4 C 0.1191(3) 0.7240(2) 0.9228(2)
H58_4 H 0.170782 0.723081 0.911559
C66_4 C 0.0603(3) 0.7518(2) 0.8990(2)
C68_4 C 0.1637(3) 0.66656(19) 0.9874(2)
C69_4 C 0.0802(4) 0.7800(2) 0.8541(2)
O37_4 O 0.5850(3) 0.5273(2) 0.83085(17)
O4_4 O 0.8576(2) 0.35899(13) 0.02372(15)
H29_4 H 0.988420 0.317104 0.008418
O25_4 O 0.8082(3) 0.4809(2) 0.00289(19)
O26_4 O 0.7243(4) 0.44555(18) 0.09312(18)
O27_4 O 0.6337(3) 0.5006(2) 0.0648(2)
N4_4 N 0.6999(3) 0.68903(16) 0.07942(17)
H39_4 H 0.666340 0.661577 0.066693
C41_4 C 0.6583(3) 0.73833(19) 0.0751(2)
H41_4 H 0.688931 0.765037 0.090481
H42_4 H 0.653988 0.747422 0.042611
C42_4 C 0.5761(3) 0.73606(18) 0.09636(19)
C43_4 C 0.5604(3) 0.76183(18) 0.13741(19)
H43_4 H 0.600547 0.780598 0.151685
C44_4 C 0.4855(3) 0.76010(18) 0.1577(2)
C45_4 C 0.4243(3) 0.73168(18) 0.13663(19)
H44_4 H 0.374002 0.730683 0.149810
C46_4 C 0.4404(3) 0.70465(18) 0.09512(19)
C47_4 C 0.5154(3) 0.70834(18) 0.07552(18)
H45_4 H 0.525314 0.691691 0.047545
C48_4 C 0.4719(3) 0.7894(2) 0.2016(2)
C49_4 C 0.3757(3) 0.67198(18) 0.07266(19)
C50_4 C 0.7174(3) 0.6775(2) 0.1279(2)
H46_4 H 0.758(4) 0.702(3) 0.144(2)
H47_4 H 0.668(4) 0.684(3) 0.143(2)
C51_4 C 0.7454(3) 0.62279(18) 0.13497(19)
C52_4 C 0.7083(3) 0.5825(2) 0.1108(2)
H48_4 H 0.666397 0.589568 0.090787
C53_4 C 0.7340(4) 0.5323(2) 0.1167(2)
C54_4 C 0.7940(3) 0.5212(2) 0.1481(2)
H49_4 H 0.808811 0.487046 0.153098
C55_4 C 0.8324(3) 0.5607(2) 0.17208(19)
C56_4 C 0.8079(3) 0.61187(19) 0.16434(19)
H50_4 H 0.834190 0.638746 0.179201
C57_4 C 0.6931(4) 0.4893(2) 0.0888(2)
C58_4 C 0.8998(3) 0.5492(2) 0.2034(2)
C59_4 C 0.7750(3) 0.6910(2) 0.0530(2)
H51_4 H 0.802122 0.723063 0.060070
H52_4 H 0.808780 0.662811 0.062880
C60_4 C 0.7624(3) 0.6874(2) 0.0009(2)
H56_4 H 0.884946 0.742191 0.009889
O1_4 O 0.9755(3) 0.1924(2) 0.83748(18)
O2_4 O 0.8519(3) 0.2250(2) 0.83661(19)
O3_4 O 0.7673(2) 0.33253(19) 0.97288(18)
C25_4 C 0.9767(3) 0.29995(19) 0.98094(19)
C26_4 C 0.9006(3) 0.30222(19) 0.96317(18)
C27_4 C 0.8809(3) 0.2760(2) 0.9228(2)
H30_4 H 0.829218 0.276919 0.911559
C28_4 C 0.9397(3) 0.2482(2) 0.8990(2)
C30_4 C 0.8363(3) 0.33344(19) 0.9874(2)
C31_4 C 0.9198(4) 0.2200(2) 0.8541(2)
O24_4 O 0.6958(4) 0.44882(17) 0.97297(18)
H37_4 H 0.9124(8) 0.909(2) 0.76318(11)
H38_4 H 0.8832(3) 0.9026(8) 0.8072(3)
N5_4 N 0.8372(3) 0.68140(16) 0.97621(17)
H40_4 H 0.868665 0.654494 0.991435
H53_4 H 0.735962 0.718412 0.990106
H54_4 H 0.728363 0.658230 0.994086
C61_4 C 0.8816(3) 0.7309(2) 0.9779(2)
H55_4 H 0.852120 0.756749 0.960807
C62_4 C 0.9640(3) 0.72764(19) 0.95826(18)
C67_4 C 0.9838(4) 0.7535(2) 0.9169(2)
H59_4 H 0.944949 0.772128 0.901290
C70_4 C 0.8234(3) 0.6666(2) 0.9278(2)
H60_4 H 0.793434 0.693819 0.912820
H61_4 H 0.874177 0.664114 0.912259
C71_4 C 0.7790(3) 0.6157(2) 0.92113(19)
C72_4 C 0.7869(3) 0.5736(2) 0.9508(2)
H62_4 H 0.821009 0.575634 0.976048
C73_4 C 0.7439(4) 0.5283(2) 0.9429(2)
C74_4 C 0.6948(3) 0.5249(2) 0.9050(2)
H63_4 H 0.665559 0.494995 0.899871
C75_4 C 0.6886(3) 0.5662(2) 0.8741(2)
C76_4 C 0.7294(3) 0.6126(2) 0.8833(2)
H64_4 H 0.722869 0.640983 0.863940
C77_4 C 0.6336(3) 0.5639(2) 0.8328(2)
C78_4 C 0.7506(4) 0.4832(2) 0.9755(2)
loop_
_geom_bond_atom_site_label_1
_geom_bond_atom_site_label_2
_geom_bond_site_symmetry_1
_geom_bond_site_symmetry_2
N1 H1 1_555 1_555
H2 N1 1_555 1_555
C1 N1 1_555 1_555
H3 C1 1_555 1_555
H4 C1 1_555 1_555
H5 C1 1_555 1_555
C2 N1 1_555 1_555
H6 C2 1_555 1_555
H7 C2 1_555 1_555
H8 C2 1_555 1_555
N1_2 H1_2 1_555 1_555
H2_2 N1_2 1_555 1_555
C1_2 N1_2 1_555 1_555
H3_2 C1_2 1_555 1_555
H4_2 C1_2 1_555 1_555
H5_2 C1_2 1_555 1_555
C2_2 N1_2 1_555 1_555
H6_2 C2_2 1_555 1_555
H7_2 C2_2 1_555 1_555
H8_2 C2_2 1_555 1_555
N1_3 H1_3 1_555 1_555
H2_3 N1_3 1_555 1_555
C1_3 N1_3 1_555 1_555
H3_3 C1_3 1_555 1_555
H4_3 C1_3 1_555 1_555
H5_3 C1_3 1_555 1_555
C2_3 N1_3 1_555 1_555
H6_3 C2_3 1_555 1_555
H7_3 C2_3 1_555 1_555
H8_3 C2_3 1_555 1_555
N1_4 H1_4 1_555 1_555
H2_4 N1_4 1_555 1_555
C1_4 N1_4 1_555 1_555
H3_4 C1_4 1_555 1_555
H4_4 C1_4 1_555 1_555
H5_4 C1_4 1_555 1_555
C2_4 N1_4 1_555 1_555
H6_4 C2_4 1_555 1_555
H7_4 C2_4 1_555 1_555
H8_4 C2_4 1_555 1_555
N1_5 H1_5 1_555 1_555
H2_5 N1_5 1_555 1_555
C1_5 N1_5 1_555 1_555
H3_5 C1_5 1_555 1_555
H4_5 C1_5 1_555 1_555
H5_5 C1_5 1_555 1_555
C2_5 N1_5 1_555 1_555
H6_5 C2_5 1_555 1_555
H7_5 C2_5 1_555 1_555
H8_5 C2_5 1_555 1_555
N1_6 H1_6 1_555 1_555
H2_6 N1_6 1_555 1_555
C1_6 N1_6 1_555 1_555
H3_6 C1_6 1_555 1_555
H4_6 C1_6 1_555 1_555
H5_6 C1_6 1_555 1_555
C2_6 N1_6 1_555 1_555
H6_6 C2_6 1_555 1_555
H7_6 C2_6 1_555 1_555
H8_6 C2_6 1_555 1_555
N1_7 H1_7 1_555 1_555
H2_7 N1_7 1_555 1_555
C1_7 N1_7 1_555 1_555
H3_7 C1_7 1_555 1_555
H4_7 C1_7 1_555 1_555
H5_7 C1_7 1_555 1_555
C2_7 N1_7 1_555 1_555
H6_7 C2_7 1_555 1_555
H7_7 C2_7 1_555 1_555
H8_7 C2_7 1_555 1_555
N1_8 H1_8 1_555 1_555
H2_8 N1_8 1_555 1_555
C1_8 N1_8 1_555 1_555
H3_8 C1_8 1_555 1_555
H4_8 C1_8 1_555 1_555
H5_8 C1_8 1_555 1_555
C2_8 N1_8 1_555 1_555
H6_8 C2_8 1_555 1_555
H7_8 C2_8 1_555 1_555
H8_8 C2_8 1_555 1_555
O13 C10 1_555 1_555
O15 C11 1_555 1_555
O16 C11 1_555 1_555
C7 C6 1_555 1_555
H16 C7 1_555 1_555
C8 C7 1_555 1_555
C10 C6 1_555 1_555
C11 C8 1_555 1_555
Cd7 O15 1_555 1_555
Cd17 O13 1_555 1_555
O37 Cd2 1_555 1_555
O38 Cd2 1_555 1_555
O50 Cd2 1_555 1_555
O16 Cd7 1_555 1_555
Cd1 O7 1_555 1_555
Cd2_2 O6 1_555 1_555
Cd3 O1 1_555 1_555
O1 C31 1_555 1_555
O2 C31 1_555 1_555
O3 C30 1_555 1_555
O4 C30 1_555 1_555
O5 C39 1_555 1_555
O6 C39 1_555 1_555
O7 C40 1_555 1_555
O8 Cd1 1_555 1_555
O9 Cd1 1_555 1_555
O10 C19 1_555 1_555
O11 C20 1_555 1_555
O12 C20 1_555 1_555
O17 Cd3 1_555 1_555
H9 O17 1_555 1_555
H10 O17 1_555 1_555
N2 H11 1_555 1_555
N3 H12 1_555 1_555
C3 N2 1_555 1_555
H13 C3 1_555 1_555
H14 C3 1_555 1_555
C4 C3 1_555 1_555
C5 C4 1_555 1_555
H15 C5 1_555 1_555
C9 C4 1_555 1_555
H17 C9 1_555 1_555
C12 N2 1_555 1_555
H18 C12 1_555 1_555
H19 C12 1_555 1_555
C13 C12 1_555 1_555
C14 C13 1_555 1_555
H20 C14 1_555 1_555
C15 C14 1_555 1_555
C16 C15 1_555 1_555
H21 C16 1_555 1_555
C17 C16 1_555 1_555
C18 C13 1_555 1_555
H22 C18 1_555 1_555
C19 O9 1_555 1_555
C20 C17 1_555 1_555
C21 N2 1_555 1_555
H23 C21 1_555 1_555
H24 C21 1_555 1_555
C22 N3 1_555 1_555
H25 C22 1_555 1_555
H26 C22 1_555 1_555
C23 N3 1_555 1_555
H27 C23 1_555 1_555
H28 C23 1_555 1_555
C24 C23 1_555 1_555
C25 C24 1_555 1_555
H29 C25 1_555 1_555
C26 C25 1_555 1_555
C27 C26 1_555 1_555
H30 C27 1_555 1_555
C28 C27 1_555 1_555
C29 C24 1_555 1_555
H31 C29 1_555 1_555
C30 C26 1_555 1_555
C31 C28 1_555 1_555
C32 N3 1_555 1_555
H32 C32 1_555 1_555
H33 C32 1_555 1_555
C33 C32 1_555 1_555
C34 C33 1_555 1_555
H34 C34 1_555 1_555
C35 C34 1_555 1_555
C36 C35 1_555 1_555
H35 C36 1_555 1_555
C37 C36 1_555 1_555
C38 C33 1_555 1_555
H36 C38 1_555 1_555
C39 C37 1_555 1_555
C40 O8 1_555 1_555
Cd7 O3 1_555 1_555
Cd5 O18 1_555 1_555
O18 C69 1_555 1_555
O19 C69 1_555 1_555
O20 Cd1 1_555 1_555
O21 Cd1 1_555 1_555
O22 C77 1_555 1_555
O37 C77 1_555 1_555
O24 Cd7 1_555 1_555
O25 Cd7 1_555 1_555
O26 Cd7 1_555 1_555
O27 C57 1_555 1_555
O28 C58 1_555 1_555
O29 C58 1_555 1_555
O34 Cd5 1_555 1_555
H37 O34 1_555 1_555
H38 O34 1_555 1_555
N4 H39 1_555 1_555
N5 H40 1_555 1_555
C41 N4 1_555 1_555
H41 C41 1_555 1_555
H42 C41 1_555 1_555
C42 C41 1_555 1_555
C43 C42 1_555 1_555
H43 C43 1_555 1_555
C47 C42 1_555 1_555
H45 C47 1_555 1_555
C50 N4 1_555 1_555
H46 C50 1_555 1_555
H47 C50 1_555 1_555
C51 C50 1_555 1_555
C52 C51 1_555 1_555
H48 C52 1_555 1_555
C53 C52 1_555 1_555
C54 C53 1_555 1_555
H49 C54 1_555 1_555
C55 C54 1_555 1_555
C56 C51 1_555 1_555
H50 C56 1_555 1_555
C57 O26 1_555 1_555
C58 C55 1_555 1_555
C59 N4 1_555 1_555
H51 C59 1_555 1_555
H52 C59 1_555 1_555
C60 N5 1_555 1_555
H53 C60 1_555 1_555
H54 C60 1_555 1_555
C61 N5 1_555 1_555
H55 C61 1_555 1_555
H56 C61 1_555 1_555
C62 C61 1_555 1_555
C63 C62 1_555 1_555
H57 C63 1_555 1_555
C64 C63 1_555 1_555
C65 C64 1_555 1_555
H58 C65 1_555 1_555
C66 C65 1_555 1_555
C67 C62 1_555 1_555
H59 C67 1_555 1_555
C68 O20 1_555 1_555
C69 C66 1_555 1_555
C70 N5 1_555 1_555
H60 C70 1_555 1_555
H61 C70 1_555 1_555
C71 C70 1_555 1_555
C72 C71 1_555 1_555
H62 C72 1_555 1_555
C73 C72 1_555 1_555
C74 C73 1_555 1_555
H63 C74 1_555 1_555
C75 C74 1_555 1_555
C76 C71 1_555 1_555
H64 C76 1_555 1_555
C77 C75 1_555 1_555
C78 O24 1_555 1_555
Cd10 O34 1_555 1_555
Cd10_2 O17 1_555 1_555
Cd11 O11 1_555 1_555
Cd12 O5 1_555 1_555
Cd13 O22 1_555 1_555
Cd14 O29 1_555 1_555
Cd15 O12 1_555 1_555
O35 Cd3 1_555 1_555
O36 Cd5 1_555 1_555
O39 Cd2_2 1_555 1_555
O40 Cd5 1_555 1_555
O41 Cd3 1_555 1_555
O42 Cd5 1_555 1_555
O43 Cd3 1_555 1_555
O44 Cd5 1_555 1_555
O45 Cd3 1_555 1_555
O47 Cd1 1_555 1_555
O49 Cd1 1_555 1_555
O51 Cd2_2 1_555 1_555
O4 Cd7 1_555 1_555
C15 C19 1_555 1_555
C17 C18 1_555 1_555
C21 C22 1_555 1_555
C28 C29 1_555 1_555
C35 C40 1_555 1_555
C37 C38 1_555 1_555
O21 C68 1_555 1_555
O25 C78 1_555 1_555
O28 Cd11 1_555 1_555
C53 C57 1_555 1_555
C55 C56 1_555 1_555
C59 C60 1_555 1_555
C64 C68 1_555 1_555
C66 C67 1_555 1_555
C73 C78 1_555 1_555
C75 C76 1_555 1_555
O30 C48 1_555 1_555
O47 C49 1_555 1_555
O49 C49 1_555 1_555
C45 C44 1_555 1_555
H44 C45 1_555 1_555
C46 C45 1_555 1_555
C48 C44 1_555 1_555
C49 C46 1_555 1_555
Cd16 O30 1_555 1_555
Cd1_2 O7_2 1_555 1_555
O7_2 C40_2 1_555 1_555
O8_2 Cd1_2 1_555 1_555
O9_2 Cd1_2 1_555 1_555
C19_2 O9_2 1_555 1_555
C40_2 O8_2 1_555 1_555
Cd13 O18_2 1_555 1_555
O18_2 C69_2 1_555 1_555
O19_2 C69_2 1_555 1_555
O20_2 Cd1_2 1_555 1_555
O21_2 Cd1_2 1_555 1_555
H57_2 C63_2 1_555 1_555
C64_2 C63_2 1_555 1_555
C65_2 C64_2 1_555 1_555
H58_2 C65_2 1_555 1_555
C66_2 C65_2 1_555 1_555
C68_2 O20_2 1_555 1_555
C69_2 C66_2 1_555 1_555
O37_2 Cd10 1_555 1_555
O38_2 Cd10 1_555 1_555
O40_2 Cd13 1_555 1_555
O42_2 Cd13 1_555 1_555
O47_2 Cd1_2 1_555 1_555
O49_2 Cd1_2 1_555 1_555
O21_2 C68_2 1_555 1_555
C64_2 C68_2 1_555 1_555
Cd10_2 O6_2 1_555 1_555
O35 C39_2 1_555 1_555
O6_2 C39_2 1_555 1_555
O11_2 C20_2 1_555 1_555
O12_2 C20_2 1_555 1_555
O13_2 C10_2 1_555 1_555
O14_2 C10_2 1_555 1_555
O15_2 C11_2 1_555 1_555
O16_2 C11_2 1_555 1_555
H9_2 O50 1_555 1_555
H10_2 O50 1_555 1_555
N2_2 H11_2 1_555 1_555
N3_2 H12_2 1_555 1_555
C3_2 N2_2 1_555 1_555
H13_2 C3_2 1_555 1_555
H14_2 C3_2 1_555 1_555
C4_2 C3_2 1_555 1_555
C5_2 C4_2 1_555 1_555
H15_2 C5_2 1_555 1_555
C6_2 C5_2 1_555 1_555
C7_2 C6_2 1_555 1_555
H16_2 C7_2 1_555 1_555
C8_2 C7_2 1_555 1_555
C9_2 C4_2 1_555 1_555
H17_2 C9_2 1_555 1_555
C10_2 C6_2 1_555 1_555
C11_2 C8_2 1_555 1_555
C12_2 N2_2 1_555 1_555
H18_2 C12_2 1_555 1_555
H19_2 C12_2 1_555 1_555
C13_2 C12_2 1_555 1_555
C14_2 C13_2 1_555 1_555
H20_2 C14_2 1_555 1_555
C15_2 C14_2 1_555 1_555
C16_2 C15_2 1_555 1_555
C17_2 C16_2 1_555 1_555
C18_2 C13_2 1_555 1_555
H22_2 C18_2 1_555 1_555
C20_2 C17_2 1_555 1_555
C21_2 N2_2 1_555 1_555
H23_2 C21_2 1_555 1_555
H24_2 C21_2 1_555 1_555
C22_2 N3_2 1_555 1_555
H25_2 C22_2 1_555 1_555
H26_2 C22_2 1_555 1_555
C23_2 N3_2 1_555 1_555
H27_2 C23_2 1_555 1_555
H28_2 C23_2 1_555 1_555
C24_2 C23_2 1_555 1_555
C29_2 C24_2 1_555 1_555
H31_2 C29_2 1_555 1_555
C32_2 N3_2 1_555 1_555
H32_2 C32_2 1_555 1_555
H33_2 C32_2 1_555 1_555
C33_2 C32_2 1_555 1_555
C34_2 C33_2 1_555 1_555
H34_2 C34_2 1_555 1_555
C35_2 C34_2 1_555 1_555
C36_2 C35_2 1_555 1_555
C37_2 C36_2 1_555 1_555
C38_2 C33_2 1_555 1_555
H36_2 C38_2 1_555 1_555
C39_2 C37_2 1_555 1_555
Cd7_2 O15_2 1_555 1_555
Cd11_3 O11_2 1_555 1_555
Cd17 O12_2 1_555 1_555
Cd15 O13_2 1_555 1_555
O39_2 Cd10_2 1_555 1_555
O14_2 Cd15 1_555 1_555
O16_2 Cd7_2 1_555 1_555
C8_2 C9_2 1_555 1_555
C17_2 C18_2 1_555 1_555
C21_2 C22_2 1_555 1_555
C37_2 C38_2 1_555 1_555
O36 C77_2 1_555 1_555
O37_2 C77_2 1_555 1_555
O28_2 C58_2 1_555 1_555
O29_2 C58_2 1_555 1_555
O30_2 C48_2 1_555 1_555
O31_2 C48_2 1_555 1_555
O47_2 C49_2 1_555 1_555
O49_2 C49_2 1_555 1_555
H37_2 O51 1_555 1_555
H38_2 O51 1_555 1_555
N4_2 H39_2 1_555 1_555
N5_2 H40_2 1_555 1_555
C41_2 N4_2 1_555 1_555
H41_2 C41_2 1_555 1_555
H42_2 C41_2 1_555 1_555
C42_2 C41_2 1_555 1_555
C43_2 C42_2 1_555 1_555
H43_2 C43_2 1_555 1_555
C44_2 C43_2 1_555 1_555
C45_2 C44_2 1_555 1_555
H44_2 C45_2 1_555 1_555
C46_2 C45_2 1_555 1_555
C47_2 C42_2 1_555 1_555
H45_2 C47_2 1_555 1_555
C48_2 C44_2 1_555 1_555
C49_2 C46_2 1_555 1_555
C50_2 N4_2 1_555 1_555
H46_2 C50_2 1_555 1_555
H47_2 C50_2 1_555 1_555
C51_2 C50_2 1_555 1_555
C52_2 C51_2 1_555 1_555
H48_2 C52_2 1_555 1_555
C53_2 C52_2 1_555 1_555
C54_2 C53_2 1_555 1_555
C55_2 C54_2 1_555 1_555
C56_2 C51_2 1_555 1_555
H50_2 C56_2 1_555 1_555
C58_2 C55_2 1_555 1_555
C59_2 N4_2 1_555 1_555
H51_2 C59_2 1_555 1_555
H52_2 C59_2 1_555 1_555
C60_2 N5_2 1_555 1_555
H53_2 C60_2 1_555 1_555
H54_2 C60_2 1_555 1_555
C61_2 N5_2 1_555 1_555
H55_2 C61_2 1_555 1_555
H56_2 C61_2 1_555 1_555
C62_2 C61_2 1_555 1_555
C67_2 C62_2 1_555 1_555
H59_2 C67_2 1_555 1_555
C70_2 N5_2 1_555 1_555
H60_2 C70_2 1_555 1_555
H61_2 C70_2 1_555 1_555
C71_2 C70_2 1_555 1_555
C72_2 C71_2 1_555 1_555
H62_2 C72_2 1_555 1_555
C73_2 C72_2 1_555 1_555
C74_2 C73_2 1_555 1_555
C75_2 C74_2 1_555 1_555
C76_2 C71_2 1_555 1_555
H64_2 C76_2 1_555 1_555
C77_2 C75_2 1_555 1_555
Cd16 O29_2 1_555 1_555
Cd14 O30_2 1_555 1_555
O28_2 Cd11_4 1_555 1_555
O31_2 Cd14 1_555 1_555
C46_2 C47_2 1_555 1_555
C55_2 C56_2 1_555 1_555
C59_2 C60_2 1_555 1_555
C75_2 C76_2 1_555 1_555
Cd12 O1_2 1_555 1_555
O1_2 C31_2 1_555 1_555
O2_2 C31_2 1_555 1_555
O3_2 C30_2 1_555 1_555
O4_2 C30_2 1_555 1_555
H29_2 C25_2 1_555 1_555
C26_2 C25_2 1_555 1_555
C27_2 C26_2 1_555 1_555
H30_2 C27_2 1_555 1_555
C28_2 C27_2 1_555 1_555
C30_2 C26_2 1_555 1_555
C31_2 C28_2 1_555 1_555
Cd7_2 O3_2 1_555 1_555
O24_2 Cd7_2 1_555 1_555
O25_2 Cd7_2 1_555 1_555
O26_2 Cd7_2 1_555 1_555
C57_2 O26_2 1_555 1_555
C78_2 O24_2 1_555 1_555
O41_2 Cd12 1_555 1_555
O43_2 Cd12 1_555 1_555
O4_2 Cd7_2 1_555 1_555
O25_2 C78_2 1_555 1_555
O42_2 C10_3 1_555 1_555
O15_3 C11_3 1_555 1_555
O16_3 C11_3 1_555 1_555
C7_3 C6_3 1_555 1_555
H16_3 C7_3 1_555 1_555
C8_3 C7_3 1_555 1_555
C10_3 C6_3 1_555 1_555
C11_3 C8_3 1_555 1_555
Cd7_3 O15_3 1_555 1_555
O16_3 Cd7_3 1_555 1_555
O50_2 Cd11_2 1_555 1_555
O37_3 Cd11_3 1_555 1_555
O38_2 C20_3 1_555 1_555
O40 C20_3 1_555 1_555
N2_3 H11_3 1_555 1_555
C3_3 N2_3 1_555 1_555
H13_3 C3_3 1_555 1_555
H14_3 C3_3 1_555 1_555
C4_3 C3_3 1_555 1_555
C5_3 C4_3 1_555 1_555
H15_3 C5_3 1_555 1_555
C9_3 C4_3 1_555 1_555
H17_3 C9_3 1_555 1_555
C12_3 N2_3 1_555 1_555
H18_3 C12_3 1_555 1_555
H19_3 C12_3 1_555 1_555
C13_3 C12_3 1_555 1_555
C14_3 C13_3 1_555 1_555
H20_3 C14_3 1_555 1_555
C15_3 C14_3 1_555 1_555
C16_3 C15_3 1_555 1_555
C17_3 C16_3 1_555 1_555
C18_3 C13_3 1_555 1_555
H22_3 C18_3 1_555 1_555
C20_3 C17_3 1_555 1_555
C21_3 N2_3 1_555 1_555
H23_3 C21_3 1_555 1_555
H24_3 C21_3 1_555 1_555
O25_3 Cd7_3 1_555 1_555
O26_3 Cd7_3 1_555 1_555
C57_3 O26_3 1_555 1_555
O4_3 Cd7_3 1_555 1_555
C17_3 C18_3 1_555 1_555
C21_3 C22_3 1_555 1_555
Cd11_4 O6_3 1_555 1_555
Cd14 O1_3 1_555 1_555
O1_3 C31_3 1_555 1_555
O2_3 C31_3 1_555 1_555
O3_3 C30_3 1_555 1_555
O5_2 C39_3 1_555 1_555
O6_3 C39_3 1_555 1_555
O17_2 Cd14 1_555 1_555
H9_3 O17_2 1_555 1_555
H10_3 O17_2 1_555 1_555
N3_3 H12_3 1_555 1_555
C23_3 N3_3 1_555 1_555
H27_3 C23_3 1_555 1_555
C24_3 C23_3 1_555 1_555
C25_3 C24_3 1_555 1_555
C26_3 C25_3 1_555 1_555
C27_3 C26_3 1_555 1_555
H30_3 C27_3 1_555 1_555
C28_3 C27_3 1_555 1_555
C29_3 C24_3 1_555 1_555
H31_3 C29_3 1_555 1_555
C30_3 C26_3 1_555 1_555
C31_3 C28_3 1_555 1_555
C32_3 N3_3 1_555 1_555
H32_3 C32_3 1_555 1_555
H33_3 C32_3 1_555 1_555
C33_3 C32_3 1_555 1_555
C34_3 C33_3 1_555 1_555
H34_3 C34_3 1_555 1_555
C35_3 C34_3 1_555 1_555
C36_3 C35_3 1_555 1_555
C37_3 C36_3 1_555 1_555
C38_3 C33_3 1_555 1_555
H36_3 C38_3 1_555 1_555
C39_3 C37_3 1_555 1_555
C78_3 O24_3 1_555 1_555
Cd11 O17_2 1_555 1_555
Cd16 O5_2 1_555 1_555
O35_2 Cd14 1_555 1_555
C28_3 C29_3 1_555 1_555
C37_3 C38_3 1_555 1_555
O8_3 Cd1_3 1_555 1_555
O9_3 Cd1_3 1_555 1_555
C19_3 O9_3 1_555 1_555
O21_3 Cd1_3 1_555 1_555
O39_2 C58_3 1_555 1_555
O41 C58_3 1_555 1_555
N4_3 H39_3 1_555 1_555
C41_3 N4_3 1_555 1_555
H41_3 C41_3 1_555 1_555
H42_3 C41_3 1_555 1_555
C42_3 C41_3 1_555 1_555
C43_3 C42_3 1_555 1_555
H43_3 C43_3 1_555 1_555
C47_3 C42_3 1_555 1_555
H45_3 C47_3 1_555 1_555
C50_3 N4_3 1_555 1_555
H46_3 C50_3 1_555 1_555
H47_3 C50_3 1_555 1_555
C51_3 C50_3 1_555 1_555
C52_3 C51_3 1_555 1_555
H48_3 C52_3 1_555 1_555
C53_3 C52_3 1_555 1_555
C54_3 C53_3 1_555 1_555
C55_3 C54_3 1_555 1_555
C56_3 C51_3 1_555 1_555
H50_3 C56_3 1_555 1_555
C58_3 C55_3 1_555 1_555
C59_3 N4_3 1_555 1_555
H51_3 C59_3 1_555 1_555
H52_3 C59_3 1_555 1_555
O47_3 Cd1_3 1_555 1_555
O49_3 Cd1_3 1_555 1_555
C55_3 C56_3 1_555 1_555
C59_3 C60_3 1_555 1_555
O7_3 C40_3 1_555 1_555
Cd15 O18_3 1_555 1_555
O18_3 C69_3 1_555 1_555
O19_3 C69_3 1_555 1_555
O22_2 C77_3 1_555 1_555
O37_3 C77_3 1_555 1_555
O34_2 Cd15 1_555 1_555
H37_3 O34_2 1_555 1_555
H38_3 O34_2 1_555 1_555
N5_3 H40_3 1_555 1_555
C61_3 N5_3 1_555 1_555
H55_3 C61_3 1_555 1_555
C62_3 C61_3 1_555 1_555
C63_3 C62_3 1_555 1_555
C64_3 C63_3 1_555 1_555
C65_3 C64_3 1_555 1_555
H58_3 C65_3 1_555 1_555
C66_3 C65_3 1_555 1_555
C67_3 C62_3 1_555 1_555
H59_3 C67_3 1_555 1_555
C68_3 O20_3 1_555 1_555
C69_3 C66_3 1_555 1_555
C70_3 N5_3 1_555 1_555
H60_3 C70_3 1_555 1_555
H61_3 C70_3 1_555 1_555
C71_3 C70_3 1_555 1_555
C72_3 C71_3 1_555 1_555
H62_3 C72_3 1_555 1_555
C73_3 C72_3 1_555 1_555
C74_3 C73_3 1_555 1_555
C75_3 C74_3 1_555 1_555
C76_3 C71_3 1_555 1_555
H64_3 C76_3 1_555 1_555
C77_3 C75_3 1_555 1_555
Cd11 O34_2 1_555 1_555
Cd17 O22_2 1_555 1_555
O36_2 Cd15 1_555 1_555
O51_2 Cd11_5 1_555 1_555
C64_3 C68_3 1_555 1_555
C66_3 C67_3 1_555 1_555
C75_3 C76_3 1_555 1_555
O43_2 C48_3 1_555 1_555
O47_3 C49_3 1_555 1_555
O49_3 C49_3 1_555 1_555
C45_3 C44_3 1_555 1_555
H44_3 C45_3 1_555 1_555
C46_3 C45_3 1_555 1_555
C48_3 C44_3 1_555 1_555
C49_3 C46_3 1_555 1_555
O8_4 Cd1_4 1_555 1_555
O9_4 Cd1_4 1_555 1_555
O10_4 C19_4 1_555 1_555
O38 C20_4 1_555 1_555
O40_2 C20_4 1_555 1_555
O42 C10_4 1_555 1_555
O44 C10_4 1_555 1_555
O15_4 C11_4 1_555 1_555
O16_4 C11_4 1_555 1_555
N2_4 H11_4 1_555 1_555
C3_4 N2_4 1_555 1_555
H13_4 C3_4 1_555 1_555
H14_4 C3_4 1_555 1_555
C4_4 C3_4 1_555 1_555
C5_4 C4_4 1_555 1_555
H15_4 C5_4 1_555 1_555
C6_4 C5_4 1_555 1_555
C7_4 C6_4 1_555 1_555
H16_4 C7_4 1_555 1_555
C8_4 C7_4 1_555 1_555
C9_4 C4_4 1_555 1_555
H17_4 C9_4 1_555 1_555
C10_4 C6_4 1_555 1_555
C11_4 C8_4 1_555 1_555
C12_4 N2_4 1_555 1_555
H18_4 C12_4 1_555 1_555
H19_4 C12_4 1_555 1_555
C13_4 C12_4 1_555 1_555
C14_4 C13_4 1_555 1_555
H20_4 C14_4 1_555 1_555
C15_4 C14_4 1_555 1_555
C16_4 C15_4 1_555 1_555
H21_4 C16_4 1_555 1_555
C17_4 C16_4 1_555 1_555
C18_4 C13_4 1_555 1_555
H22_4 C18_4 1_555 1_555
C19_4 O9_4 1_555 1_555
C20_4 C17_4 1_555 1_555
C21_4 N2_4 1_555 1_555
H23_4 C21_4 1_555 1_555
H24_4 C21_4 1_555 1_555
O21_4 Cd1_4 1_555 1_555
Cd7_4 O15_4 1_555 1_555
O47_4 Cd1_4 1_555 1_555
O49_4 Cd1_4 1_555 1_555
O16_4 Cd7_4 1_555 1_555
C8_4 C9_4 1_555 1_555
C15_4 C19_4 1_555 1_555
C17_4 C18_4 1_555 1_555
C21_4 C22_4 1_555 1_555
Cd11 O6_4 1_555 1_555
O35_2 C39_4 1_555 1_555
O6_4 C39_4 1_555 1_555
O7_4 C40_4 1_555 1_555
H9_4 O50_2 1_555 1_555
H10_4 O50_2 1_555 1_555
N3_4 H12_4 1_555 1_555
C23_4 N3_4 1_555 1_555
H27_4 C23_4 1_555 1_555
C24_4 C23_4 1_555 1_555
C29_4 C24_4 1_555 1_555
H31_4 C29_4 1_555 1_555
C32_4 N3_4 1_555 1_555
H32_4 C32_4 1_555 1_555
H33_4 C32_4 1_555 1_555
C33_4 C32_4 1_555 1_555
C34_4 C33_4 1_555 1_555
H34_4 C34_4 1_555 1_555
C35_4 C34_4 1_555 1_555
C36_4 C35_4 1_555 1_555
H35_4 C36_4 1_555 1_555
C37_4 C36_4 1_555 1_555
C38_4 C33_4 1_555 1_555
H36_4 C38_4 1_555 1_555
C39_4 C37_4 1_555 1_555
Cd17 O18_4 1_555 1_555
O18_4 C69_4 1_555 1_555
O19_4 C69_4 1_555 1_555
C64_4 C63_4 1_555 1_555
C65_4 C64_4 1_555 1_555
H58_4 C65_4 1_555 1_555
C66_4 C65_4 1_555 1_555
C68_4 O20_4 1_555 1_555
C69_4 C66_4 1_555 1_555
O37_4 Cd11 1_555 1_555
C35_4 C40_4 1_555 1_555
C37_4 C38_4 1_555 1_555
C64_4 C68_4 1_555 1_555
O25_4 Cd7_4 1_555 1_555
O26_4 Cd7_4 1_555 1_555
O27_4 C57_4 1_555 1_555
O39 C58_4 1_555 1_555
O41_2 C58_4 1_555 1_555
O43 C48_4 1_555 1_555
O45 C48_4 1_555 1_555
O47_4 C49_4 1_555 1_555
O49_4 C49_4 1_555 1_555
N4_4 H39_4 1_555 1_555
C41_4 N4_4 1_555 1_555
H41_4 C41_4 1_555 1_555
H42_4 C41_4 1_555 1_555
C42_4 C41_4 1_555 1_555
C43_4 C42_4 1_555 1_555
H43_4 C43_4 1_555 1_555
C44_4 C43_4 1_555 1_555
C45_4 C44_4 1_555 1_555
H44_4 C45_4 1_555 1_555
C46_4 C45_4 1_555 1_555
C47_4 C42_4 1_555 1_555
H45_4 C47_4 1_555 1_555
C48_4 C44_4 1_555 1_555
C49_4 C46_4 1_555 1_555
C50_4 N4_4 1_555 1_555
H46_4 C50_4 1_555 1_555
H47_4 C50_4 1_555 1_555
C51_4 C50_4 1_555 1_555
C52_4 C51_4 1_555 1_555
H48_4 C52_4 1_555 1_555
C53_4 C52_4 1_555 1_555
C54_4 C53_4 1_555 1_555
H49_4 C54_4 1_555 1_555
C55_4 C54_4 1_555 1_555
C56_4 C51_4 1_555 1_555
H50_4 C56_4 1_555 1_555
C57_4 O26_4 1_555 1_555
C58_4 C55_4 1_555 1_555
C59_4 N4_4 1_555 1_555
H51_4 C59_4 1_555 1_555
H52_4 C59_4 1_555 1_555
O4_4 Cd7_4 1_555 1_555
C46_4 C47_4 1_555 1_555
C53_4 C57_4 1_555 1_555
C55_4 C56_4 1_555 1_555
C59_4 C60_4 1_555 1_555
Cd16 O1_4 1_555 1_555
O1_4 C31_4 1_555 1_555
O2_4 C31_4 1_555 1_555
O3_4 C30_4 1_555 1_555
C26_4 C25_4 1_555 1_555
C27_4 C26_4 1_555 1_555
H30_4 C27_4 1_555 1_555
C28_4 C27_4 1_555 1_555
C30_4 C26_4 1_555 1_555
C31_4 C28_4 1_555 1_555
O36_2 C77_4 1_555 1_555
O37_4 C77_4 1_555 1_555
H37_4 O51_2 1_555 1_555
H38_4 O51_2 1_555 1_555
N5_4 H40_4 1_555 1_555
C61_4 N5_4 1_555 1_555
H55_4 C61_4 1_555 1_555
C62_4 C61_4 1_555 1_555
C67_4 C62_4 1_555 1_555
H59_4 C67_4 1_555 1_555
C70_4 N5_4 1_555 1_555
H60_4 C70_4 1_555 1_555
H61_4 C70_4 1_555 1_555
C71_4 C70_4 1_555 1_555
C72_4 C71_4 1_555 1_555
H62_4 C72_4 1_555 1_555
C73_4 C72_4 1_555 1_555
C74_4 C73_4 1_555 1_555
H63_4 C74_4 1_555 1_555
C75_4 C74_4 1_555 1_555
C76_4 C71_4 1_555 1_555
H64_4 C76_4 1_555 1_555
C77_4 C75_4 1_555 1_555
C78_4 O24_4 1_555 1_555
C73_4 C78_4 1_555 1_555
C75_4 C76_4 1_555 1_555

#END
