
###############################################################################
#
# This file contains modified crystal structure data generated from the
# MOF subset of the Cambridge Structural Database (CSD) v543 
# hosted by the Cambridge Crystallographic Data Centre (CCDC).
#
# This work is licensed under the Creative Commons
# Attribution-NonCommercial-ShareAlike 4.0 International License.
# To view a copy of this license, visit
# http://creativecommons.org/licenses/by-nc-sa/4.0/
# or send a letter to
# Creative Commons, PO Box 1866, Mountain View, CA 94042, USA.
#
# CIF created using the CSD Python API on 29 September 2022
# The structure has been converted into the P1 space group
# The structure has a 3D framework
# The original CSD entry KECSIY is in the triclinic crystal system
# The framework has been calculated to contain at least 10.0% void space
# The void calculation uses a probe of radius 1.32A, grid spacing 0.4
#
###############################################################################

data_KECSIY
_chemical_formula_moiety         '(C88 H88 Cu6 N6 O38)n'
_symmetry_cell_setting           triclinic
_symmetry_space_group_name_H-M   'P 1'
_symmetry_Int_Tables_number      1
_space_group_name_Hall           'P 1'
loop_
_symmetry_equiv_pos_site_id
_symmetry_equiv_pos_as_xyz
1 x,y,z
_cell_length_a                   14.6827(9)
_cell_length_b                   18.5378(5)
_cell_length_c                   21.3961(5)
_cell_angle_alpha                73.768(2)
_cell_angle_beta                 71.193(4)
_cell_angle_gamma                87.559(4)
_cell_volume                     5285.78
loop_
_atom_site_label
_atom_site_type_symbol
_atom_site_fract_x
_atom_site_fract_y
_atom_site_fract_z
_atom_site_U_iso_or_equiv
_atom_site_thermal_displace_type
Cu4 Cu 0.02248(8) 0.29330(6) 0.35761(6) 0.0663 Uani
C44 C 0.1047(8) 0.0250(5) 0.5335(7) 0.1006 Uani
H40 H 0.049531 0.045847 0.521593 0.1510 Uiso
H41 H 0.141283 0.000386 0.500056 0.1510 Uiso
H42 H 0.144240 0.064627 0.534038 0.1510 Uiso
O45 O 0.1571(4) 0.3329(3) 0.3155(3) 0.0729 Uani
O47 O 0.1161(4) 0.3653(3) 0.4134(3) 0.0778 Uani
O58 O 0.0579(3) 0.2022(3) 0.4124(3) 0.0655 Uani
Cu3 Cu 0.00482(7) 0.87896(5) 0.59957(5) 0.0579 Uani
N3 N 0.0725(5) 0.9697(4) 0.6026(4) 0.0702 Uani
H6 H 0.024396 0.993853 0.632874 0.0840 Uiso
C43 C 0.1525(8) 0.9507(7) 0.6325(7) 0.0970 Uani
H37 H 0.203525 0.930122 0.602537 0.1450 Uiso
H38 H 0.128754 0.914375 0.676783 0.1450 Uiso
H39 H 0.176490 0.995405 0.637552 0.1450 Uiso
O54 O 0.1288(4) 0.8536(3) 0.5424(3) 0.0769 Uani
Cu14 Cu 0.42061(7) 0.02311(5) 0.98629(4) 0.0494 Uani
C12 C 0.5757(7) 0.5243(4) 0.0221(3) 0.0702 Uani
H15 H 0.612016 0.563900 0.026657 0.0840 Uiso
H16 H 0.598209 0.476389 0.042675 0.0840 Uiso
O21 O 0.5077(5) 0.8783(3) 0.0516(3) 0.0710 Uani
O22 O 0.3730(5) 0.9183(3) 0.0285(3) 0.0744 Uani
O25 O 0.3822(4) 0.4499(3) 0.4774(2) 0.0574 Uani
O26 O 0.5177(3) 0.4994(3) 0.3928(2) 0.0553 Uani
N4 N 0.4445(6) 0.5240(3) 0.1342(3) 0.0692 Uani
C45 C 0.4247(6) 0.8692(4) 0.0509(3) 0.0605 Uani
C46 C 0.3825(7) 0.7889(4) 0.0795(4) 0.0660 Uani
C47 C 0.2884(8) 0.7736(5) 0.0871(6) 0.0891 Uani
H46 H 0.250554 0.812259 0.073089 0.1080 Uiso
C48 C 0.2485(9) 0.6978(6) 0.1165(8) 0.1216 Uani
C49 C 0.1414(11) 0.6854(6) 0.1259(10) 0.1551 Uani
C50 C 0.3049(9) 0.6424(5) 0.1336(5) 0.0921 Uani
H47 H 0.278911 0.593139 0.151321 0.1110 Uiso
C51 C 0.4048(8) 0.6561(4) 0.1254(4) 0.0774 Uani
C52 C 0.4408(7) 0.7314(4) 0.0974(3) 0.0683 Uani
H48 H 0.504964 0.742811 0.090747 0.0820 Uiso
C53 C 0.4696(8) 0.5955(4) 0.1432(4) 0.0750 Uani
H49 H 0.466267 0.587641 0.190655 0.0900 Uiso
H50 H 0.535425 0.611528 0.114358 0.0900 Uiso
C54 C 0.4678(7) 0.5281(4) 0.0608(3) 0.0715 Uani
H51 H 0.447779 0.576942 0.038488 0.0850 Uiso
C55 C 0.4064(7) 0.4672(4) 0.0537(3) 0.0710 Uani
H52 H 0.338667 0.472461 0.076318 0.0850 Uiso
H53 H 0.423453 0.417632 0.075492 0.0850 Uiso
C57 C 0.4886(6) 0.4608(3) 0.1727(3) 0.0634 Uani
H56 H 0.490085 0.417196 0.155805 0.0760 Uiso
H57 H 0.553948 0.475234 0.167382 0.0760 Uiso
C58 C 0.4271(6) 0.4432(4) 0.2466(3) 0.0613 Uani
C59 C 0.3338(6) 0.4120(4) 0.2688(3) 0.0580 Uani
H58 H 0.310744 0.400685 0.236785 0.0690 Uiso
C60 C 0.2736(5) 0.3969(4) 0.3361(3) 0.0567 Uani
C61 C 0.1745(6) 0.3635(4) 0.3594(4) 0.0660 Uani
C62 C 0.3081(5) 0.4134(3) 0.3846(3) 0.0503 Uani
H59 H 0.269206 0.402606 0.430359 0.0600 Uiso
C63 C 0.4010(5) 0.4462(3) 0.3645(3) 0.0502 Uani
C64 C 0.4370(5) 0.4666(3) 0.4150(3) 0.0470 Uani
C65 C 0.4601(5) 0.4607(3) 0.2954(3) 0.0516 Uani
H60 H 0.521890 0.482282 0.281954 0.0620 Uiso
O27 O 0.0901(14) 0.7368(12) 0.0985(11) 0.1460 Uani
O28 O 0.1106(13) 0.6190(7) 0.1642(9) 0.1334 Uani
H61 H 0.0322(16) 0.727(5) 0.118(8) 0.1370 Uiso
Cu10 Cu 0.41884(6) 0.47101(4) 0.54992(4) 0.0391 Uani
Cu12 Cu 0.58116(6) 0.52899(4) 0.45008(4) 0.0391 Uani
Cu16 Cu 0.57939(7) 0.97689(5) 0.01371(4) 0.0494 Uani
O56 O 0.3790(4) 0.0398(3) 0.0777(2) 0.0631 Uani
O1 O 0.4923(5) 0.1217(3) 0.9484(3) 0.0710 Uani
O2 O 0.6270(5) 0.0817(3) 0.9715(3) 0.0744 Uani
O3 O 0.8429(4) 0.6671(3) 0.6845(3) 0.0729 Uani
O4 O 0.8839(4) 0.6347(3) 0.5866(3) 0.0778 Uani
O5 O 0.6178(4) 0.5501(3) 0.5226(2) 0.0574 Uani
O6 O 0.4823(3) 0.5006(3) 0.6072(2) 0.0553 Uani
O7 O 0.6220(3) 0.4262(2) 0.4749(3) 0.0579 Uani
O8 O 0.4854(3) 0.3761(2) 0.5593(2) 0.0575 Uani
O9 O 0.8877(4) 0.2716(3) 0.4156(4) 0.0795 Uani
O10 O 0.8712(4) 0.1464(3) 0.4576(3) 0.0769 Uani
O15 O 0.2891(4) 0.4262(3) 0.6320(3) 0.0675 Uani
H1 H 0.240148 0.401082 0.630959 0.1020 Uiso
H2 H 0.272086 0.428794 0.675029 0.1020 Uiso
O17 O 0.2946(5) 0.0623(4) 0.9593(3) 0.0866 Uani
H4 H 0.264854 0.113004 0.957528 0.1310 Uiso
H5 H 0.249602 0.034474 0.945470 0.1310 Uiso
N1 N 0.5555(6) 0.4760(3) 0.8658(3) 0.0692 Uani
N2 N 0.5554(4) 0.0266(2) 0.6091(2) 0.0412 Uani
C1 C 0.5753(6) 0.1308(4) 0.9491(3) 0.0605 Uani
C2 C 0.6175(7) 0.2111(4) 0.9205(4) 0.0660 Uani
C3 C 0.7116(8) 0.2264(5) 0.9129(6) 0.0891 Uani
H7 H 0.749446 0.187741 0.926911 0.1080 Uiso
C4 C 0.7515(9) 0.3022(6) 0.8835(8) 0.1216 Uani
C5 C 0.8586(11) 0.3146(6) 0.8741(10) 0.1551 Uani
C6 C 0.6951(9) 0.3576(5) 0.8664(5) 0.0921 Uani
H8 H 0.721089 0.406861 0.848679 0.1110 Uiso
C7 C 0.5952(8) 0.3439(4) 0.8746(4) 0.0774 Uani
C8 C 0.5592(7) 0.2686(4) 0.9026(3) 0.0683 Uani
H9 H 0.495036 0.257189 0.909253 0.0820 Uiso
C9 C 0.5304(8) 0.4045(4) 0.8568(4) 0.0750 Uani
H10 H 0.533733 0.412359 0.809345 0.0900 Uiso
H11 H 0.464575 0.388472 0.885642 0.0900 Uiso
C10 C 0.5322(7) 0.4719(4) 0.9392(3) 0.0715 Uani
H12 H 0.552221 0.423058 0.961512 0.0850 Uiso
C11 C 0.5936(7) 0.5328(4) 0.9463(3) 0.0710 Uani
H13 H 0.661333 0.527539 0.923682 0.0850 Uiso
H14 H 0.576547 0.582368 0.924508 0.0850 Uiso
C13 C 0.5114(6) 0.5392(3) 0.8273(3) 0.0634 Uani
H17 H 0.509915 0.582804 0.844195 0.0760 Uiso
H18 H 0.446052 0.524766 0.832618 0.0760 Uiso
C14 C 0.5729(6) 0.5568(4) 0.7534(3) 0.0613 Uani
C15 C 0.6662(6) 0.5880(4) 0.7312(3) 0.0580 Uani
H19 H 0.689256 0.599315 0.763215 0.0690 Uiso
C16 C 0.7264(5) 0.6031(4) 0.6639(3) 0.0567 Uani
C17 C 0.8255(6) 0.6365(4) 0.6406(4) 0.0660 Uani
C18 C 0.6919(5) 0.5866(3) 0.6154(3) 0.0503 Uani
H20 H 0.730794 0.597394 0.569641 0.0600 Uiso
C19 C 0.5990(5) 0.5538(3) 0.6355(3) 0.0502 Uani
C20 C 0.5630(5) 0.5334(3) 0.5850(3) 0.0470 Uani
C21 C 0.5399(5) 0.5393(3) 0.7046(3) 0.0516 Uani
H21 H 0.478110 0.517718 0.718046 0.0620 Uiso
C22 C 0.5687(5) 0.3727(3) 0.5215(3) 0.0463 Uani
C23 C 0.6103(4) 0.2963(3) 0.5302(3) 0.0453 Uani
C24 C 0.7043(5) 0.2895(3) 0.4906(4) 0.0518 Uani
H22 H 0.741853 0.331867 0.460061 0.0620 Uiso
C25 C 0.7421(5) 0.2172(3) 0.4974(4) 0.0571 Uani
C26 C 0.8412(5) 0.2115(3) 0.4524(4) 0.0613 Uani
C27 C 0.6850(5) 0.1557(3) 0.5429(3) 0.0503 Uani
H23 H 0.710058 0.108254 0.547442 0.0600 Uiso
C28 C 0.5912(4) 0.1624(3) 0.5821(3) 0.0423 Uani
C29 C 0.5534(4) 0.2329(3) 0.5753(3) 0.0431 Uani
H24 H 0.490086 0.237872 0.600810 0.0510 Uiso
C30 C 0.5292(4) 0.0944(3) 0.6321(3) 0.0434 Uani
H25 H 0.536559 0.086534 0.676957 0.0520 Uiso
H26 H 0.462092 0.103359 0.636703 0.0520 Uiso
C31 C 0.5299(4) 0.0285(3) 0.5473(3) 0.0418 Uani
H27 H 0.546070 0.079898 0.516942 0.0500 Uiso
H31 H 0.596169 0.038611 0.411350 0.0530 Uiso
O18 O 0.9099(14) 0.2632(12) 0.9015(11) 0.1460 Uani
O19 O 0.8894(13) 0.3810(7) 0.8358(9) 0.1334 Uani
H43 H 0.9678(16) 0.273(5) 0.882(8) 0.1370 Uiso
O20 O 0.976(3) 0.3852(19) 0.310(2) 0.1320 Uani
H44 H 0.945953 0.420030 0.326499 0.1990 Uiso
H45 H 0.982953 0.400339 0.267089 0.1990 Uiso
C56 C 0.4243(7) 0.4757(4) 0.9779(3) 0.0702 Uani
H54 H 0.387984 0.436100 0.973343 0.0840 Uiso
H55 H 0.401791 0.523611 0.957325 0.0840 Uiso
O33 O 0.1223(4) 0.0856(3) 0.3599(3) 0.0653 Uani
O34 O 0.1076(5) 0.1068(5) 0.2594(4) 0.0924 Uani
O36 O 0.5142(4) 0.0030(3) 0.1000(2) 0.0575 Uani
C76 C 0.4067(4) 0.0224(3) 0.4912(3) 0.0430 Uani
H68 H 0.421529 0.074393 0.463746 0.0520 Uiso
H69 H 0.339581 0.010201 0.499172 0.0520 Uiso
C77 C 0.4232(4) 0.0124(3) 0.5597(3) 0.0446 Uani
H70 H 0.384569 0.046607 0.583266 0.0530 Uiso
C78 C 0.4770(4) 0.0417(3) 0.3334(3) 0.0428 Uani
H72 H 0.472540 0.085221 0.350849 0.0510 Uiso
H73 H 0.543769 0.038425 0.306973 0.0510 Uiso
C79 C 0.4143(5) 0.0501(3) 0.2881(3) 0.0456 Uani
C80 C 0.3181(5) 0.0652(3) 0.3130(3) 0.0498 Uani
H74 H 0.293449 0.071725 0.356781 0.0600 Uiso
C81 C 0.2584(5) 0.0707(4) 0.2738(3) 0.0566 Uani
C82 C 0.1539(6) 0.0883(6) 0.2986(4) 0.0731 Uani
C83 C 0.2956(5) 0.0596(4) 0.2069(3) 0.0549 Uani
H75 H 0.256582 0.063255 0.179578 0.0660 Uiso
C84 C 0.3932(5) 0.0430(3) 0.1834(3) 0.0496 Uani
C85 C 0.4317(5) 0.0274(3) 0.1147(3) 0.0455 Uani
C86 C 0.4508(5) 0.0383(3) 0.2238(3) 0.0436 Uani
H76 H 0.514971 0.027019 0.207624 0.0520 Uiso
H79 H 0.036810 0.201467 0.460424 0.0980 Uiso
Cu18 Cu 0.99518(7) 0.12104(5) 0.40043(5) 0.0579 Uani
Cu22 Cu 0.97752(8) 0.70670(6) 0.64239(6) 0.0663 Uani
O52 O 0.3780(3) 0.5738(2) 0.5251(3) 0.0579 Uani
O11 O 0.8777(4) 0.9144(3) 0.6401(3) 0.0653 Uani
O12 O 0.8924(5) 0.8932(5) 0.7406(4) 0.0924 Uani
O13 O 0.6210(4) 0.9602(3) 0.9223(2) 0.0631 Uani
O14 O 0.4858(4) 0.9970(3) 0.9000(2) 0.0575 Uani
O16 O 0.9421(3) 0.7978(3) 0.5876(3) 0.0655 Uani
H3 H 0.963190 0.798533 0.539576 0.0980 Uiso
C32 C 0.5933(4) 0.9776(3) 0.5088(3) 0.0430 Uani
H28 H 0.578471 0.925607 0.536254 0.0520 Uiso
H29 H 0.660419 0.989799 0.500828 0.0520 Uiso
C33 C 0.5768(4) 0.9876(3) 0.4403(3) 0.0446 Uani
H30 H 0.615431 0.953393 0.416734 0.0530 Uiso
C34 C 0.5230(4) 0.9583(3) 0.6666(3) 0.0428 Uani
H32 H 0.527460 0.914779 0.649151 0.0510 Uiso
H33 H 0.456231 0.961575 0.693027 0.0510 Uiso
C35 C 0.5857(5) 0.9499(3) 0.7119(3) 0.0456 Uani
C36 C 0.6819(5) 0.9348(3) 0.6870(3) 0.0498 Uani
H34 H 0.706551 0.928275 0.643219 0.0600 Uiso
C37 C 0.7416(5) 0.9293(4) 0.7262(3) 0.0566 Uani
C38 C 0.8461(6) 0.9117(6) 0.7014(4) 0.0731 Uani
C39 C 0.7044(5) 0.9404(4) 0.7931(3) 0.0549 Uani
H35 H 0.743418 0.936745 0.820422 0.0660 Uiso
C40 C 0.6068(5) 0.9570(3) 0.8166(3) 0.0496 Uani
C41 C 0.5683(5) 0.9726(3) 0.8853(3) 0.0455 Uani
C42 C 0.5492(5) 0.9617(3) 0.7762(3) 0.0436 Uani
H36 H 0.485029 0.972981 0.792376 0.0520 Uiso
O30 O 0.5146(3) 0.6239(2) 0.4407(2) 0.0575 Uani
O31 O 0.1123(4) 0.7284(3) 0.5844(4) 0.0795 Uani
N5 N 0.4446(4) 0.9734(2) 0.3909(2) 0.0412 Uani
C66 C 0.4313(5) 0.6273(3) 0.4785(3) 0.0463 Uani
C67 C 0.3897(4) 0.7037(3) 0.4698(3) 0.0453 Uani
C68 C 0.2957(5) 0.7105(3) 0.5094(4) 0.0518 Uani
H62 H 0.258147 0.668133 0.539939 0.0620 Uiso
C69 C 0.2579(5) 0.7828(3) 0.5026(4) 0.0571 Uani
C70 C 0.1588(5) 0.7885(3) 0.5476(4) 0.0613 Uani
C71 C 0.3150(5) 0.8443(3) 0.4571(3) 0.0503 Uani
H63 H 0.289942 0.891746 0.452558 0.0600 Uiso
C72 C 0.4088(4) 0.8376(3) 0.4179(3) 0.0423 Uani
C73 C 0.4466(4) 0.7671(3) 0.4247(3) 0.0431 Uani
H64 H 0.509914 0.762128 0.399190 0.0510 Uiso
C74 C 0.4708(4) 0.9056(3) 0.3679(3) 0.0434 Uani
H65 H 0.463441 0.913466 0.323043 0.0520 Uiso
H66 H 0.537908 0.896641 0.363297 0.0520 Uiso
C75 C 0.4701(4) 0.9715(3) 0.4527(3) 0.0418 Uani
H67 H 0.453930 0.920102 0.483058 0.0500 Uiso
H71 H 0.403831 0.961389 0.588650 0.0530 Uiso
O37 O 0.7109(4) 0.5738(3) 0.3680(3) 0.0675 Uani
H77 H 0.759852 0.598918 0.369041 0.1020 Uiso
H78 H 0.727914 0.571206 0.324971 0.1020 Uiso
O39 O 0.7054(5) 0.9377(4) 0.0407(3) 0.0866 Uani
H80 H 0.735146 0.886996 0.042472 0.1310 Uiso
H81 H 0.750398 0.965526 0.054530 0.1310 Uiso
O40 O 0.024(3) 0.6148(19) 0.690(2) 0.1320 Uani
H89 H 0.054047 0.579970 0.673501 0.1990 Uiso
H90 H 0.017047 0.599661 0.732911 0.1990 Uiso
N6 N 0.9275(5) 0.0303(4) 0.3974(4) 0.0702 Uani
H82 H 0.975604 0.006147 0.367126 0.0840 Uiso
C87 C 0.8475(8) 0.0493(7) 0.3675(7) 0.0970 Uani
H83 H 0.796475 0.069878 0.397463 0.1450 Uiso
H84 H 0.871246 0.085625 0.323217 0.1450 Uiso
H85 H 0.823510 0.004595 0.362448 0.1450 Uiso
C88 C 0.8953(8) 0.9750(5) 0.4665(7) 0.1006 Uani
H86 H 0.950469 0.954153 0.478407 0.1510 Uiso
H87 H 0.858717 0.999614 0.499944 0.1510 Uiso
H88 H 0.855760 0.935373 0.465962 0.1510 Uiso
loop_
_atom_site_aniso_label
_atom_site_aniso_U_11
_atom_site_aniso_U_22
_atom_site_aniso_U_33
_atom_site_aniso_U_23
_atom_site_aniso_U_13
_atom_site_aniso_U_12
Cu4 0.0664 0.0456 0.0804 -0.0149 -0.017 -0.0024
C44 0.1 0.047 0.141 -0.009 -0.034 -0.009
O45 0.074 0.075 0.065 -0.024 -0.009 -0.025
O47 0.077 0.074 0.078 -0.032 -0.008 -0.014
O58 0.053 0.057 0.086 -0.029 -0.014 0.002
Cu3 0.0561 0.0435 0.0675 -0.0181 -0.0097 0.0079
N3 0.065 0.056 0.08 -0.023 -0.007 0.001
C43 0.088 0.098 0.117 -0.034 -0.045 -0.002
O54 0.06 0.037 0.109 -0.018 0.002 0.0138
Cu14 0.0792 0.0407 0.028 -0.0124 -0.0146 0.0019
C12 0.11 0.058 0.042 -0.009 -0.024 -0.029
O21 0.105 0.041 0.07 -0.012 -0.035 0.002
O22 0.097 0.053 0.065 -0.006 -0.024 0
O25 0.069 0.068 0.038 -0.0154 -0.019 -0.009
O26 0.065 0.062 0.041 -0.0185 -0.0148 -0.011
N4 0.129 0.043 0.039 -0.009 -0.032 -0.012
C45 0.094 0.043 0.036 -0.013 -0.007 -0.004
C46 0.1 0.046 0.049 -0.021 -0.013 0
C47 0.094 0.05 0.108 -0.018 -0.015 -0.003
C48 0.108 0.054 0.164 -0.028 0.007 -0.01
C49 0.129 0.085 0.211 0.004 -0.034 -0.046
C50 0.143 0.05 0.074 -0.013 -0.024 -0.014
C51 0.131 0.046 0.043 -0.016 -0.006 -0.018
C52 0.109 0.049 0.045 -0.017 -0.017 -0.013
C53 0.141 0.04 0.053 -0.007 -0.046 -0.015
C54 0.132 0.047 0.036 -0.004 -0.03 -0.031
C55 0.107 0.059 0.039 -0.009 -0.013 -0.028
C57 0.102 0.037 0.047 -0.009 -0.019 -0.013
C58 0.096 0.041 0.044 -0.008 -0.021 -0.007
C59 0.087 0.048 0.047 -0.011 -0.033 -0.008
C60 0.071 0.047 0.053 -0.015 -0.02 -0.001
C61 0.076 0.054 0.066 -0.017 -0.019 -0.005
C62 0.065 0.037 0.047 -0.011 -0.016 -0.001
C63 0.075 0.036 0.043 -0.013 -0.022 0.002
C64 0.073 0.035 0.04 -0.013 -0.026 0.008
C65 0.07 0.045 0.044 -0.015 -0.021 -0.004
O27 0.146 0.146 0.146 -0.0411 -0.047 0.0074
O28 0.133 0.133 0.134 -0.0374 -0.043 0.0065
Cu10 0.0529 0.0272 0.04 -0.0116 -0.0175 0.0072
Cu12 0.0529 0.0272 0.04 -0.0116 -0.0175 0.0072
Cu16 0.0792 0.0407 0.028 -0.0124 -0.0146 0.0019
O56 0.083 0.076 0.034 -0.022 -0.02 0.018
O1 0.105 0.041 0.07 -0.012 -0.035 0.002
O2 0.097 0.053 0.065 -0.006 -0.024 0
O3 0.074 0.075 0.065 -0.024 -0.009 -0.025
O4 0.077 0.074 0.078 -0.032 -0.008 -0.014
O5 0.069 0.068 0.038 -0.0154 -0.019 -0.009
O6 0.065 0.062 0.041 -0.0185 -0.0148 -0.011
O7 0.063 0.0355 0.069 -0.0128 -0.016 0.0144
O8 0.063 0.035 0.064 -0.011 -0.011 0.0166
O9 0.051 0.045 0.117 -0.015 0 0.005
O10 0.06 0.037 0.109 -0.018 0.002 0.0138
O15 0.062 0.073 0.059 -0.019 -0.007 -0.003
O17 0.096 0.102 0.074 -0.028 -0.042 0.015
N1 0.129 0.043 0.039 -0.009 -0.032 -0.012
N2 0.059 0.0292 0.04 -0.015 -0.0182 0.0054
C1 0.094 0.043 0.036 -0.013 -0.007 -0.004
C2 0.1 0.046 0.049 -0.021 -0.013 0
C3 0.094 0.05 0.108 -0.018 -0.015 -0.003
C4 0.108 0.054 0.164 -0.028 0.007 -0.01
C5 0.129 0.085 0.211 0.004 -0.034 -0.046
C6 0.143 0.05 0.074 -0.013 -0.024 -0.014
C7 0.131 0.046 0.043 -0.016 -0.006 -0.018
C8 0.109 0.049 0.045 -0.017 -0.017 -0.013
C9 0.141 0.04 0.053 -0.007 -0.046 -0.015
C10 0.132 0.047 0.036 -0.004 -0.03 -0.031
C11 0.107 0.059 0.039 -0.009 -0.013 -0.028
C13 0.102 0.037 0.047 -0.009 -0.019 -0.013
C14 0.096 0.041 0.044 -0.008 -0.021 -0.007
C15 0.087 0.048 0.047 -0.011 -0.033 -0.008
C16 0.071 0.047 0.053 -0.015 -0.02 -0.001
C17 0.076 0.054 0.066 -0.017 -0.019 -0.005
C18 0.065 0.037 0.047 -0.011 -0.016 -0.001
C19 0.075 0.036 0.043 -0.013 -0.022 0.002
C20 0.073 0.035 0.04 -0.013 -0.026 0.008
C21 0.07 0.045 0.044 -0.015 -0.021 -0.004
C22 0.064 0.031 0.053 -0.015 -0.029 0.008
C23 0.057 0.027 0.062 -0.018 -0.029 0.009
C24 0.057 0.032 0.071 -0.021 -0.022 0.009
C25 0.052 0.041 0.077 -0.021 -0.016 0.006
C26 0.058 0.032 0.089 -0.023 -0.013 0.008
C27 0.066 0.028 0.062 -0.017 -0.025 0.013
C28 0.056 0.029 0.049 -0.015 -0.024 0.009
C29 0.059 0.028 0.046 -0.0137 -0.02 0.008
C30 0.062 0.032 0.041 -0.018 -0.017 0.008
C31 0.054 0.037 0.034 -0.0115 -0.013 0.007
O18 0.146 0.146 0.146 -0.0411 -0.047 0.0074
O19 0.133 0.133 0.134 -0.0374 -0.043 0.0065
O20 0.132 0.132 0.132 -0.037 -0.043 0.0069
C56 0.11 0.058 0.042 -0.009 -0.024 -0.029
O33 0.057 0.073 0.062 -0.027 -0.009 0.017
O34 0.098 0.11 0.086 -0.039 -0.045 0.028
O36 0.071 0.07 0.035 -0.0211 -0.0175 0.013
C76 0.049 0.04 0.044 -0.019 -0.015 0.01
C77 0.054 0.043 0.039 -0.015 -0.016 0.009
C78 0.065 0.034 0.035 -0.0138 -0.02 0.003
C79 0.073 0.035 0.033 -0.013 -0.02 0.005
C80 0.069 0.047 0.033 -0.011 -0.017 0.011
C81 0.067 0.067 0.038 -0.023 -0.015 0.019
C82 0.069 0.1 0.055 -0.028 -0.024 0.028
C83 0.067 0.064 0.038 -0.017 -0.021 0.007
C84 0.073 0.045 0.03 -0.013 -0.014 0.007
C85 0.074 0.041 0.025 -0.0114 -0.019 0.004
C86 0.064 0.036 0.029 -0.0071 -0.015 0.007
Cu18 0.0561 0.0435 0.0675 -0.0181 -0.0097 0.0079
Cu22 0.0664 0.0456 0.0804 -0.0149 -0.017 -0.0024
O52 0.063 0.0355 0.069 -0.0128 -0.016 0.0144
O11 0.057 0.073 0.062 -0.027 -0.009 0.017
O12 0.098 0.11 0.086 -0.039 -0.045 0.028
O13 0.083 0.076 0.034 -0.022 -0.02 0.018
O14 0.071 0.07 0.035 -0.0211 -0.0175 0.013
O16 0.053 0.057 0.086 -0.029 -0.014 0.002
C32 0.049 0.04 0.044 -0.019 -0.015 0.01
C33 0.054 0.043 0.039 -0.015 -0.016 0.009
C34 0.065 0.034 0.035 -0.0138 -0.02 0.003
C35 0.073 0.035 0.033 -0.013 -0.02 0.005
C36 0.069 0.047 0.033 -0.011 -0.017 0.011
C37 0.067 0.067 0.038 -0.023 -0.015 0.019
C38 0.069 0.1 0.055 -0.028 -0.024 0.028
C39 0.067 0.064 0.038 -0.017 -0.021 0.007
C40 0.073 0.045 0.03 -0.013 -0.014 0.007
C41 0.074 0.041 0.025 -0.0114 -0.019 0.004
C42 0.064 0.036 0.029 -0.0071 -0.015 0.007
O30 0.063 0.035 0.064 -0.011 -0.011 0.0166
O31 0.051 0.045 0.117 -0.015 0 0.005
N5 0.059 0.0292 0.04 -0.015 -0.0182 0.0054
C66 0.064 0.031 0.053 -0.015 -0.029 0.008
C67 0.057 0.027 0.062 -0.018 -0.029 0.009
C68 0.057 0.032 0.071 -0.021 -0.022 0.009
C69 0.052 0.041 0.077 -0.021 -0.016 0.006
C70 0.058 0.032 0.089 -0.023 -0.013 0.008
C71 0.066 0.028 0.062 -0.017 -0.025 0.013
C72 0.056 0.029 0.049 -0.015 -0.024 0.009
C73 0.059 0.028 0.046 -0.0137 -0.02 0.008
C74 0.062 0.032 0.041 -0.018 -0.017 0.008
C75 0.054 0.037 0.034 -0.0115 -0.013 0.007
O37 0.062 0.073 0.059 -0.019 -0.007 -0.003
O39 0.096 0.102 0.074 -0.028 -0.042 0.015
O40 0.132 0.132 0.132 -0.037 -0.043 0.0069
N6 0.065 0.056 0.08 -0.023 -0.007 0.001
C87 0.088 0.098 0.117 -0.034 -0.045 -0.002
C88 0.1 0.047 0.141 -0.009 -0.034 -0.009
loop_
_geom_bond_atom_site_label_1
_geom_bond_atom_site_label_2
_geom_bond_site_symmetry_1
_geom_bond_site_symmetry_2
H40 C44 1_555 1_555
H41 C44 1_555 1_555
H42 C44 1_555 1_555
O45 Cu4 1_555 1_555
O47 Cu4 1_555 1_555
O58 Cu4 1_555 1_555
N3 Cu3 1_555 1_555
H6 N3 1_555 1_555
C43 N3 1_555 1_555
H37 C43 1_555 1_555
H38 C43 1_555 1_555
H39 C43 1_555 1_555
O54 Cu3 1_555 1_555
H15 C12 1_555 1_555
H16 C12 1_555 1_555
O21 C45 1_555 1_555
O22 C45 1_555 1_555
O45 C61 1_555 1_555
O47 C61 1_555 1_555
O25 C64 1_555 1_555
O26 C64 1_555 1_555
N4 C53 1_555 1_555
C45 C46 1_555 1_555
C46 C47 1_555 1_555
C47 H46 1_555 1_555
C48 C47 1_555 1_555
C49 C48 1_555 1_555
C50 C48 1_555 1_555
H47 C50 1_555 1_555
C51 C50 1_555 1_555
C52 C46 1_555 1_555
H48 C52 1_555 1_555
C53 C51 1_555 1_555
H49 C53 1_555 1_555
H50 C53 1_555 1_555
C54 C12 1_555 1_555
H51 C54 1_555 1_555
C55 C54 1_555 1_555
H52 C55 1_555 1_555
H53 C55 1_555 1_555
C57 N4 1_555 1_555
H56 C57 1_555 1_555
H57 C57 1_555 1_555
C58 C57 1_555 1_555
C59 C58 1_555 1_555
H58 C59 1_555 1_555
C60 C59 1_555 1_555
C61 C60 1_555 1_555
C62 C60 1_555 1_555
H59 C62 1_555 1_555
C63 C62 1_555 1_555
C64 C63 1_555 1_555
C65 C58 1_555 1_555
H60 C65 1_555 1_555
O27 C49 1_555 1_555
O28 C49 1_555 1_555
H61 O27 1_555 1_555
Cu10 O25 1_555 1_555
Cu12 O26 1_555 1_555
Cu16 O21 1_555 1_555
N4 C54 1_555 1_555
C51 C52 1_555 1_555
C63 C65 1_555 1_555
Cu10 O6 1_555 1_555
Cu14 O1 1_555 1_555
O1 C1 1_555 1_555
O2 C1 1_555 1_555
O3 C17 1_555 1_555
O4 C17 1_555 1_555
O5 C20 1_555 1_555
O6 C20 1_555 1_555
O7 C22 1_555 1_555
O8 Cu10 1_555 1_555
O9 C26 1_555 1_555
O10 C26 1_555 1_555
O15 Cu10 1_555 1_555
H1 O15 1_555 1_555
H2 O15 1_555 1_555
O17 Cu14 1_555 1_555
H4 O17 1_555 1_555
H5 O17 1_555 1_555
N1 C9 1_555 1_555
N2 C30 1_555 1_555
C1 C2 1_555 1_555
C2 C3 1_555 1_555
C3 H7 1_555 1_555
C4 C3 1_555 1_555
C5 C4 1_555 1_555
C6 C4 1_555 1_555
H8 C6 1_555 1_555
C7 C6 1_555 1_555
C8 C2 1_555 1_555
H9 C8 1_555 1_555
C9 C7 1_555 1_555
H10 C9 1_555 1_555
H11 C9 1_555 1_555
C10 N1 1_555 1_555
H12 C10 1_555 1_555
C11 C10 1_555 1_555
H13 C11 1_555 1_555
H14 C11 1_555 1_555
C13 N1 1_555 1_555
H17 C13 1_555 1_555
H18 C13 1_555 1_555
C14 C13 1_555 1_555
C15 C14 1_555 1_555
H19 C15 1_555 1_555
C16 C15 1_555 1_555
C17 C16 1_555 1_555
C18 C16 1_555 1_555
H20 C18 1_555 1_555
C19 C18 1_555 1_555
C20 C19 1_555 1_555
C21 C14 1_555 1_555
H21 C21 1_555 1_555
C22 O8 1_555 1_555
C23 C22 1_555 1_555
C24 C23 1_555 1_555
H22 C24 1_555 1_555
C25 C24 1_555 1_555
C26 C25 1_555 1_555
C27 C25 1_555 1_555
H23 C27 1_555 1_555
C28 C27 1_555 1_555
C29 C23 1_555 1_555
H24 C29 1_555 1_555
C30 C28 1_555 1_555
H25 C30 1_555 1_555
H26 C30 1_555 1_555
C31 N2 1_555 1_555
H27 C31 1_555 1_555
O18 C5 1_555 1_555
O19 C5 1_555 1_555
H43 O18 1_555 1_555
H44 O20 1_555 1_555
H45 O20 1_555 1_555
C56 C10 1_555 1_555
H54 C56 1_555 1_555
H55 C56 1_555 1_555
O33 C82 1_555 1_555
O34 C82 1_555 1_555
O56 C85 1_555 1_555
O36 C85 1_555 1_555
H68 C76 1_555 1_555
H69 C76 1_555 1_555
C77 C31 1_555 1_555
H70 C77 1_555 1_555
H72 C78 1_555 1_555
H73 C78 1_555 1_555
C79 C78 1_555 1_555
C80 C79 1_555 1_555
H74 C80 1_555 1_555
C81 C80 1_555 1_555
C82 C81 1_555 1_555
C83 C81 1_555 1_555
H75 C83 1_555 1_555
C84 C83 1_555 1_555
C85 C84 1_555 1_555
C86 C79 1_555 1_555
H76 C86 1_555 1_555
H79 O58 1_555 1_555
Cu12 O5 1_555 1_555
Cu18 O10 1_555 1_555
Cu22 O3 1_555 1_555
O52 Cu10 1_555 1_555
O4 Cu22 1_555 1_555
O7 Cu12 1_555 1_555
C7 C8 1_555 1_555
C19 C21 1_555 1_555
C28 C29 1_555 1_555
C76 C77 1_555 1_555
C84 C86 1_555 1_555
O11 C38 1_555 1_555
O12 C38 1_555 1_555
O13 C41 1_555 1_555
H3 O16 1_555 1_555
H28 C32 1_555 1_555
H29 C32 1_555 1_555
C33 C32 1_555 1_555
H30 C33 1_555 1_555
H32 C34 1_555 1_555
H33 C34 1_555 1_555
C35 C34 1_555 1_555
C36 C35 1_555 1_555
H34 C36 1_555 1_555
C37 C36 1_555 1_555
C38 C37 1_555 1_555
C39 C37 1_555 1_555
H35 C39 1_555 1_555
C40 C39 1_555 1_555
C41 O14 1_555 1_555
C42 C35 1_555 1_555
H36 C42 1_555 1_555
O52 C66 1_555 1_555
O30 C66 1_555 1_555
O31 C70 1_555 1_555
O54 C70 1_555 1_555
N5 C74 1_555 1_555
C66 C67 1_555 1_555
C67 C68 1_555 1_555
C68 H62 1_555 1_555
C69 C68 1_555 1_555
C70 C69 1_555 1_555
C71 C69 1_555 1_555
H63 C71 1_555 1_555
C72 C71 1_555 1_555
C73 C67 1_555 1_555
H64 C73 1_555 1_555
C74 C72 1_555 1_555
H65 C74 1_555 1_555
H66 C74 1_555 1_555
C75 C33 1_555 1_555
H67 C75 1_555 1_555
Cu12 O30 1_555 1_555
O37 Cu12 1_555 1_555
H77 O37 1_555 1_555
H78 O37 1_555 1_555
O39 Cu16 1_555 1_555
H80 O39 1_555 1_555
H81 O39 1_555 1_555
H89 O40 1_555 1_555
H90 O40 1_555 1_555
Cu22 O16 1_555 1_555
C40 C41 1_555 1_555
C40 C42 1_555 1_555
N5 C75 1_555 1_555
C72 C73 1_555 1_555
N6 Cu18 1_555 1_555
H82 N6 1_555 1_555
C87 N6 1_555 1_555
H83 C87 1_555 1_555
H84 C87 1_555 1_555
H85 C87 1_555 1_555
H86 C88 1_555 1_555
H87 C88 1_555 1_555
H88 C88 1_555 1_555

#END
