
###############################################################################
#
# This file contains modified crystal structure data generated from the
# MOF subset of the Cambridge Structural Database (CSD) v543 
# hosted by the Cambridge Crystallographic Data Centre (CCDC).
#
# This work is licensed under the Creative Commons
# Attribution-NonCommercial-ShareAlike 4.0 International License.
# To view a copy of this license, visit
# http://creativecommons.org/licenses/by-nc-sa/4.0/
# or send a letter to
# Creative Commons, PO Box 1866, Mountain View, CA 94042, USA.
#
# CIF created using the CSD Python API on 29 September 2022
# The structure has been converted into the P1 space group
# The structure has a 3D framework
# The original CSD entry KEDLAJ06 is in the orthorhombic crystal system
# The original CSD entry KEDLAJ06 is in a Sohncke space group
# The framework has been calculated to contain at least 10.0% void space
# The void calculation uses a probe of radius 1.32A, grid spacing 0.4
#
###############################################################################

data_KEDLAJ06
_chemical_formula_moiety         '(C144 H88 Co8 N56 O47)n'
_symmetry_cell_setting           triclinic
_symmetry_space_group_name_H-M   'P 1'
_symmetry_Int_Tables_number      1
_space_group_name_Hall           'P 1'
loop_
_symmetry_equiv_pos_site_id
_symmetry_equiv_pos_as_xyz
1 x,y,z
_cell_length_a                   10.0463(18)
_cell_length_b                   19.637(4)
_cell_length_c                   20.374(4)
_cell_angle_alpha                90
_cell_angle_beta                 90
_cell_angle_gamma                90
_cell_volume                     4019.37
loop_
_atom_site_label
_atom_site_type_symbol
_atom_site_fract_x
_atom_site_fract_y
_atom_site_fract_z
C31 C 0.0533(7) 0.0079(3) 0.5780(3)
H20 H 0.0448 0.0546 0.5688
C36 C 0.2973(7) 0.0241(3) 0.5695(4)
O9 O 0.2901(5) 0.0855(2) 0.5808(3)
Co3 Co 0.57587(10) 0.04396(4) 0.55884(5)
C32 C 0.1788(7) 0.9794(3) 0.5820(3)
C33 C 0.1926(8) 0.9113(3) 0.5984(3)
H21 H 0.2770 0.8907 0.6003
C34 C 0.0778(8) 0.8744(3) 0.6118(3)
O10 O 0.4041(5) 0.9935(2) 0.5482(2)
O11 O 0.1979(7) 0.7764(3) 0.6323(4)
N14 N 0.0909(8) 0.8034(3) 0.6343(3)
Co7 Co 0.41768(10) 0.94466(4) 0.43812(5)
Co2 Co 0.58232(10) 0.44466(4) 0.06188(5)
C19 C 0.6436(7) 0.2952(3) 0.0260(4)
H15 H 0.7065 0.2903 0.0599
C21 C 0.2996(7) 0.4642(3) 0.0717(4)
C22 C 0.1831(7) 0.5102(3) 0.0827(3)
C23 C 0.0534(7) 0.4852(3) 0.0786(3)
H17 H 0.0399 0.4388 0.0695
C26 C 0.0923(7) 0.6185(3) 0.1080(3)
C27 C 0.1993(7) 0.5781(3) 0.0977(4)
H19 H 0.2854 0.5965 0.1007
O1 O 0.4080(5) 0.49254(19) 0.0532(2)
O2 O 0.2843(5) 0.4024(2) 0.0822(3)
O5 O 0.0204(6) 0.7297(3) 0.1219(3)
O6 O 0.2240(6) 0.7063(3) 0.1442(3)
N12 N 0.5638(6) 0.3520(2) 0.0167(3)
N13 N 0.1114(7) 0.6901(3) 0.1261(3)
O14 O 0.7941(5) 0.4364(2) 0.0661(3)
O15 O 0.7072(5) 0.5355(2) 0.0872(3)
N15 N 0.5743(7) 0.4168(3) 0.1615(3)
C1 C 0.4801(7) 0.1562(3) 0.4670(3)
H1 H 0.4069 0.1306 0.4523
C2 C 0.6535(8) 0.1882(3) 0.5195(4)
H2 H 0.7252 0.1884 0.5492
C3 C 0.6244(8) 0.2388(3) 0.4780(4)
H3 H 0.6707 0.2801 0.4730
C4 C 0.4560(8) 0.2492(3) 0.3887(4)
C5 C 0.5239(8) 0.2971(3) 0.3527(3)
H4 H 0.6082 0.3131 0.3654
C6 C 0.4606(8) 0.3204(3) 0.2964(4)
C7 C 0.2843(9) 0.2526(4) 0.3175(4)
H5 H 0.2000 0.2364 0.3049
C8 C 0.6351(8) 0.4048(3) 0.2665(4)
H6 H 0.6801 0.4090 0.3067
C9 C 0.6669(8) 0.4348(4) 0.2101(3)
H7 H 0.7404 0.4637 0.2038
C10 C 0.4905(7) 0.3754(3) 0.1900(3)
H8 H 0.4176 0.3548 0.1691
C11 C 0.4985(7) 0.1212(3) 0.6835(3)
H9 H 0.4342 0.1466 0.6606
C12 C 0.6530(8) 0.0492(3) 0.7077(3)
H10 H 0.7164 0.0143 0.7031
C13 C 0.6302(7) 0.0841(4) 0.7629(4)
H11 H 0.6730 0.0783 0.8035
C14 C 0.4745(7) 0.1812(3) 0.7888(3)
C15 C 0.5336(7) 0.1980(3) 0.8479(3)
H12 H 0.6103 0.1763 0.8641
C16 C 0.4684(7) 0.2502(3) 0.8809(3)
C17 C 0.3159(9) 0.2588(4) 0.8025(4)
H13 H 0.2390 0.2802 0.7862
C18 C 0.4910(7) 0.3381(3) 0.9658(3)
H14 H 0.4261 0.3675 0.9484
C20 C 0.6186(8) 0.2483(4) 0.9800(3)
H16 H 0.6594 0.2055 0.9753
C29 C 0.8067(8) 0.0002(3) 0.5775(3)
O7 O 0.7972(5) 0.0630(2) 0.5676(3)
N1 N 0.5637(6) 0.1362(3) 0.5125(3)
N2 N 0.5129(6) 0.2181(2) 0.4441(3)
N3 N 0.3350(6) 0.2264(3) 0.3728(3)
N4 N 0.3401(6) 0.2993(3) 0.2782(3)
N5 N 0.5232(6) 0.3663(3) 0.2544(3)
N7 N 0.5691(7) 0.0722(3) 0.6578(3)
N8 N 0.5302(6) 0.1310(3) 0.7481(3)
N9 N 0.3668(6) 0.2108(3) 0.7652(3)
N10 N 0.3594(6) 0.2807(3) 0.8603(3)
N11 N 0.5202(5) 0.2761(2) 0.9407(3)
Co4 Co 0.42413(10) 0.54396(4) 0.94116(5)
O17 O 0.5959(5) 0.4935(2) 0.9518(2)
C30 C 0.9398(7) 0.9691(3) 0.5873(3)
C35 C 0.9511(7) 0.9010(3) 0.6052(3)
H22 H 0.8753 0.8740 0.6125
O8 O 0.7034(5) 0.9623(2) 0.5775(2)
O12 O 0.9922(6) 0.7764(3) 0.6570(3)
O13 O 0.5920(5) 0.99254(19) 0.4468(2)
C24 C 0.9441(7) 0.5270(3) 0.0876(3)
C25 C 0.9628(7) 0.5950(3) 0.1017(3)
H18 H 0.8899 0.6245 0.1070
C28 C 0.8079(8) 0.4981(4) 0.0796(4)
C24_2 C 0.0559(7) 0.0270(3) 0.4124(3)
C25_2 C 0.0372(7) 0.0950(3) 0.3983(3)
H18_2 H 0.1101 0.1245 0.3930
O4 O 0.2928(5) 0.0355(2) 0.4128(3)
C28_2 C 0.1921(8) 0.9981(4) 0.4204(4)
O3 O 0.2059(5) 0.9364(2) 0.4339(3)
C22_2 C 0.8169(7) 0.0102(3) 0.4173(3)
C26_2 C 0.9077(7) 0.1185(3) 0.3920(3)
C27_2 C 0.8007(7) 0.0781(3) 0.4023(4)
H19_2 H 0.7146 0.0965 0.3993
O5_2 O 0.9796(6) 0.2297(3) 0.3781(3)
O6_2 O 0.7760(6) 0.2063(3) 0.3558(3)
N13_2 N 0.8886(7) 0.1901(3) 0.3739(3)
C1_2 C 0.5199(7) 0.6562(3) 0.0330(3)
H1_2 H 0.5931 0.6306 0.0477
C3_2 C 0.3756(8) 0.7388(3) 0.0220(4)
H3_2 H 0.3293 0.7801 0.0270
C4_2 C 0.5440(8) 0.7492(3) 0.1113(4)
C5_2 C 0.4761(8) 0.7971(3) 0.1473(3)
H4_2 H 0.3918 0.8131 0.1346
C6_2 C 0.5394(8) 0.8204(3) 0.2036(4)
C7_2 C 0.7157(9) 0.7526(4) 0.1825(4)
H5_2 H 0.8000 0.7364 0.1951
C8_2 C 0.3649(8) 0.9048(3) 0.2335(4)
H6_2 H 0.3199 0.9090 0.1933
C9_2 C 0.3331(8) 0.9348(4) 0.2899(3)
H7_2 H 0.2596 0.9637 0.2962
C10_2 C 0.5095(7) 0.8754(3) 0.3100(3)
H8_2 H 0.5824 0.8548 0.3309
N2_2 N 0.4871(6) 0.7181(2) 0.0559(3)
N3_2 N 0.6650(6) 0.7264(3) 0.1272(3)
N4_2 N 0.6599(6) 0.7993(3) 0.2218(3)
N5_2 N 0.4768(6) 0.8663(3) 0.2456(3)
N6 N 0.4257(7) 0.9168(3) 0.3385(3)
C2_2 C 0.3465(8) 0.6882(3) 0.9805(4)
H2_2 H 0.2748 0.6884 0.9508
C11_2 C 0.5015(7) 0.6212(3) 0.8165(3)
H9_2 H 0.5658 0.6466 0.8394
C12_2 C 0.3470(8) 0.5492(3) 0.7923(3)
H10_2 H 0.2836 0.5143 0.7969
C13_2 C 0.3698(7) 0.5841(4) 0.7371(4)
H11_2 H 0.3270 0.5783 0.6965
C14_2 C 0.5255(7) 0.6812(3) 0.7112(3)
C15_2 C 0.4664(7) 0.6980(3) 0.6521(3)
H12_2 H 0.3897 0.6763 0.6359
C16_2 C 0.5316(7) 0.7502(3) 0.6191(3)
C17_2 C 0.6841(9) 0.7588(4) 0.6975(4)
H13_2 H 0.7610 0.7802 0.7138
C18_2 C 0.5090(7) 0.8381(3) 0.5342(3)
H14_2 H 0.5739 0.8675 0.5516
C19_2 C 0.3564(7) 0.7952(3) 0.4740(4)
H15_2 H 0.2935 0.7903 0.4401
C20_2 C 0.3814(8) 0.7483(4) 0.5200(3)
H16_2 H 0.3406 0.7055 0.5247
C21_2 C 0.7004(7) 0.9642(3) 0.4283(4)
C23_2 C 0.9466(7) 0.9852(3) 0.4214(3)
H17_2 H 0.9601 0.9388 0.4305
C29_2 C 0.1933(8) 0.5002(3) 0.9225(3)
C30_2 C 0.0602(7) 0.4691(3) 0.9127(3)
C35_2 C 0.0489(7) 0.4010(3) 0.8948(3)
H22_2 H 0.1247 0.3740 0.8875
O2_2 O 0.7157(5) 0.9024(2) 0.4178(3)
O7_2 O 0.2028(5) 0.5630(2) 0.9324(3)
O8_2 O 0.2966(5) 0.4623(2) 0.9225(2)
O12_2 O 0.0078(6) 0.2764(3) 0.8430(3)
N1_2 N 0.4363(6) 0.6362(3) 0.9875(3)
N7_2 N 0.4309(7) 0.5722(3) 0.8422(3)
N8_2 N 0.4698(6) 0.6310(3) 0.7519(3)
N9_2 N 0.6332(6) 0.7108(3) 0.7348(3)
N10_2 N 0.6406(6) 0.7807(3) 0.6397(3)
N11_2 N 0.4798(5) 0.7761(2) 0.5593(3)
N12_2 N 0.4362(6) 0.8520(2) 0.4833(3)
C31_2 C 0.9467(7) 0.5079(3) 0.9220(3)
H20_2 H 0.9552 0.5546 0.9312
C32_2 C 0.8212(7) 0.4794(3) 0.9180(3)
C33_2 C 0.8074(8) 0.4113(3) 0.9016(3)
H21_2 H 0.7230 0.3907 0.8997
C34_2 C 0.9222(8) 0.3744(3) 0.8882(3)
C36_2 C 0.7027(7) 0.5241(3) 0.9305(4)
O9_2 O 0.7099(5) 0.5855(2) 0.9192(3)
O11_2 O 0.8021(7) 0.2764(3) 0.8677(4)
N14_2 N 0.9091(8) 0.3034(3) 0.8657(3)
O16 O 0.0959(5) 0.0065(2) 0.0482(2)
C11_3 C 0.0015(7) 0.8788(3) 0.1835(3)
H9_3 H 0.0658 0.8534 0.1606
C14_3 C 0.0255(7) 0.8188(3) 0.2888(3)
C16_3 C 0.0316(7) 0.7498(3) 0.3809(3)
C17_3 C 0.1841(9) 0.7412(4) 0.3025(4)
H13_3 H 0.2610 0.7198 0.2862
C18_3 C 0.0090(7) 0.6619(3) 0.4658(3)
H14_3 H 0.0739 0.6325 0.4484
C21_3 C 0.2004(7) 0.5358(3) 0.5717(4)
C22_3 C 0.3169(7) 0.4898(3) 0.5827(3)
C23_3 C 0.4466(7) 0.5148(3) 0.5786(3)
H17_3 H 0.4601 0.5612 0.5695
C24_3 C 0.5559(7) 0.4730(3) 0.5876(3)
C25_3 C 0.5372(7) 0.4050(3) 0.6017(3)
H18_3 H 0.6101 0.3755 0.6070
C26_3 C 0.4077(7) 0.3815(3) 0.6080(3)
C27_3 C 0.3007(7) 0.4219(3) 0.5977(4)
H19_3 H 0.2146 0.4035 0.6007
C28_3 C 0.6921(8) 0.5019(4) 0.5796(4)
O1_2 O 0.0920(5) 0.50746(19) 0.5532(2)
O2_3 O 0.2157(5) 0.5976(2) 0.5822(3)
O3_2 O 0.7059(5) 0.5636(2) 0.5661(3)
O4_2 O 0.7928(5) 0.4645(2) 0.5872(3)
O5_3 O 0.4796(6) 0.2703(3) 0.6219(3)
O6_3 O 0.2760(6) 0.2937(3) 0.6442(3)
N9_3 N 0.1332(6) 0.7892(3) 0.2652(3)
N10_3 N 0.1406(6) 0.7193(3) 0.3603(3)
N13_3 N 0.3886(7) 0.3099(3) 0.6261(3)
Co4_2 Co 0.07587(10) 0.45604(4) 0.44116(5)
Co5 Co 0.91768(10) 0.55534(4) 0.56188(5)
C30_3 C 0.5602(7) 0.0309(3) 0.0873(3)
C32_3 C 0.3212(7) 0.0206(3) 0.0820(3)
C33_3 C 0.3074(8) 0.0887(3) 0.0984(3)
H21_3 H 0.2230 0.1093 0.1003
C34_3 C 0.4222(8) 0.1256(3) 0.1118(3)
C35_3 C 0.5489(7) 0.0990(3) 0.1052(3)
H22_3 H 0.6247 0.1260 0.1125
O8_3 O 0.7966(5) 0.0377(2) 0.0775(2)
O11_3 O 0.3021(7) 0.2236(3) 0.1323(4)
O12_3 O 0.5078(6) 0.2236(3) 0.1570(3)
N14_3 N 0.4091(8) 0.1966(3) 0.1343(3)
Co7_2 Co 0.08232(10) 0.05534(4) 0.93812(5)
O13_2 O 0.9080(5) 0.00746(19) 0.9468(2)
Co1 Co 0.92413(10) 0.95604(4) 0.05884(5)
C2_3 C 0.8465(8) 0.8118(3) 0.0195(4)
H2_3 H 0.7748 0.8116 0.0492
C12_3 C 0.8470(8) 0.9508(3) 0.2077(3)
H10_3 H 0.7836 0.9857 0.2031
C13_3 C 0.8698(7) 0.9159(4) 0.2629(4)
H11_3 H 0.8270 0.9217 0.3035
C15_3 C 0.9664(7) 0.8020(3) 0.3479(3)
H12_3 H 0.8897 0.8237 0.3641
C19_3 C 0.8564(7) 0.7048(3) 0.5260(4)
H15_3 H 0.7935 0.7097 0.5599
C20_3 C 0.8814(8) 0.7517(4) 0.4800(3)
H16_3 H 0.8406 0.7945 0.4753
C29_3 C 0.6933(8) 0.9998(3) 0.0775(3)
C31_3 C 0.4467(7) 0.9921(3) 0.0780(3)
H20_3 H 0.4552 0.9454 0.0688
C36_3 C 0.2027(7) 0.9759(3) 0.0695(4)
O7_3 O 0.7028(5) 0.9370(2) 0.0676(3)
O9_3 O 0.2099(5) 0.9145(2) 0.0808(3)
N1_3 N 0.9363(6) 0.8638(3) 0.0125(3)
N7_3 N 0.9309(7) 0.9278(3) 0.1578(3)
N8_3 N 0.9698(6) 0.8690(3) 0.2481(3)
N11_3 N 0.9798(5) 0.7239(2) 0.4407(3)
N12_3 N 0.9362(6) 0.6480(2) 0.5167(3)
O17_2 O 0.9041(5) 0.5065(2) 0.4518(2)
N15_2 N 0.9257(7) 0.5832(3) 0.6615(3)
C3_3 C 0.8756(8) 0.7612(3) 0.9780(4)
H3_3 H 0.8293 0.7199 0.9730
C5_3 C 0.9761(8) 0.7029(3) 0.8527(3)
H4_3 H 0.8918 0.6869 0.8654
C8_3 C 0.8649(8) 0.5952(3) 0.7665(4)
H6_3 H 0.8199 0.5910 0.8067
C9_3 C 0.8331(8) 0.5652(4) 0.7101(3)
H7_3 H 0.7596 0.5363 0.7038
N2_3 N 0.9871(6) 0.7819(2) 0.9441(3)
N5_3 N 0.9768(6) 0.6337(3) 0.7544(3)
C2_4 C 0.1535(8) 0.3118(3) 0.4805(4)
H2_4 H 0.2252 0.3116 0.4508
C3_4 C 0.1244(8) 0.2612(3) 0.5220(4)
H3_4 H 0.1707 0.2199 0.5270
C5_4 C 0.0239(8) 0.2029(3) 0.6473(3)
H4_4 H 0.1082 0.1869 0.6346
C8_4 C 0.1351(8) 0.0952(3) 0.7335(4)
H6_4 H 0.1801 0.0910 0.6933
C9_4 C 0.1669(8) 0.0652(4) 0.7899(3)
H7_4 H 0.2404 0.0363 0.7962
C12_4 C 0.1530(8) 0.4508(3) 0.2923(3)
H10_4 H 0.2164 0.4857 0.2969
C13_4 C 0.1302(7) 0.4159(4) 0.2371(4)
H11_4 H 0.1730 0.4217 0.1965
C15_4 C 0.0336(7) 0.3020(3) 0.1521(3)
H12_4 H 0.1103 0.3237 0.1359
C20_4 C 0.1186(8) 0.2517(4) 0.0200(3)
H16_4 H 0.1594 0.2945 0.0247
C29_4 C 0.3067(8) 0.4998(3) 0.4225(3)
C30_4 C 0.4398(7) 0.5309(3) 0.4127(3)
C31_4 C 0.5533(7) 0.4921(3) 0.4220(3)
H20_4 H 0.5448 0.4454 0.4312
C32_4 C 0.6788(7) 0.5206(3) 0.4180(3)
C33_4 C 0.6926(8) 0.5887(3) 0.4016(3)
H21_4 H 0.7770 0.6093 0.3997
C34_4 C 0.5778(8) 0.6256(3) 0.3882(3)
C35_4 C 0.4511(7) 0.5990(3) 0.3948(3)
H22_4 H 0.3753 0.6260 0.3875
C36_4 C 0.7973(7) 0.4759(3) 0.4305(4)
O7_4 O 0.2972(5) 0.4370(2) 0.4324(3)
O8_4 O 0.2034(5) 0.5377(2) 0.4225(2)
O9_4 O 0.7901(5) 0.4145(2) 0.4192(3)
O11_4 O 0.6979(7) 0.7236(3) 0.3677(4)
O12_4 O 0.4922(6) 0.7236(3) 0.3430(3)
N1_4 N 0.0637(6) 0.3638(3) 0.4875(3)
N2_4 N 0.0129(6) 0.2819(2) 0.5559(3)
N5_4 N 0.0232(6) 0.1337(3) 0.7456(3)
N6_2 N 0.0743(7) 0.0832(3) 0.8385(3)
N7_4 N 0.0691(7) 0.4278(3) 0.3422(3)
N8_4 N 0.0302(6) 0.3690(3) 0.2519(3)
N11_4 N 0.0202(5) 0.2239(2) 0.0593(3)
N14_4 N 0.5909(8) 0.6966(3) 0.3657(3)
C19_4 C 0.1436(7) 0.2048(3) 0.9740(4)
H15_4 H 0.2065 0.2097 0.9401
N12_4 N 0.0638(6) 0.1480(2) 0.9833(3)
O14_2 O 0.2941(5) 0.0636(2) 0.9339(3)
C1_3 C 0.9801(7) 0.3438(3) 0.5330(3)
H1_3 H 0.9069 0.3694 0.5477
C4_3 C 0.9560(8) 0.2508(3) 0.6113(4)
C6_3 C 0.9606(8) 0.1796(3) 0.7036(4)
C7_3 C 0.7843(9) 0.2474(4) 0.6825(4)
H5_3 H 0.7000 0.2636 0.6951
C10_3 C 0.9905(7) 0.1246(3) 0.8100(3)
H8_3 H 0.9176 0.1452 0.8309
C11_4 C 0.9985(7) 0.3788(3) 0.3165(3)
H9_4 H 0.9342 0.3534 0.3394
C14_4 C 0.9745(7) 0.3188(3) 0.2112(3)
C16_4 C 0.9684(7) 0.2498(3) 0.1191(3)
C17_4 C 0.8159(9) 0.2412(4) 0.1975(4)
H13_4 H 0.7390 0.2198 0.2138
C18_4 C 0.9910(7) 0.1619(3) 0.0342(3)
H14_4 H 0.9261 0.1325 0.0516
N3_3 N 0.8350(6) 0.2736(3) 0.6272(3)
N4_3 N 0.8401(6) 0.2007(3) 0.7218(3)
N9_4 N 0.8668(6) 0.2892(3) 0.2348(3)
N10_4 N 0.8594(6) 0.2193(3) 0.1397(3)
C21_4 C 0.7996(7) 0.0358(3) 0.9283(4)
C23_4 C 0.5534(7) 0.0148(3) 0.9214(3)
H17_4 H 0.5399 0.0612 0.9305
C28_4 C 0.3079(8) 0.0019(4) 0.9204(4)
O2_4 O 0.7843(5) 0.0976(2) 0.9178(3)
C1_4 C 0.0199(7) 0.8438(3) 0.9670(3)
H1_4 H 0.0931 0.8694 0.9523
C4_4 C 0.0440(8) 0.7508(3) 0.8887(4)
C6_4 C 0.0394(8) 0.6796(3) 0.7964(4)
C7_4 C 0.2157(9) 0.7474(4) 0.8175(4)
H5_4 H 0.3000 0.7636 0.8049
C10_4 C 0.0095(7) 0.6246(3) 0.6900(3)
H8_4 H 0.0824 0.6452 0.6691
N3_4 N 0.1650(6) 0.7736(3) 0.8728(3)
N4_4 N 0.1599(6) 0.7007(3) 0.7782(3)
O15_2 O 0.2072(5) 0.9645(2) 0.9128(3)
C22_4 C 0.6831(7) 0.9898(3) 0.9173(3)
C24_4 C 0.4441(7) 0.9730(3) 0.9124(3)
C25_4 C 0.4628(7) 0.9050(3) 0.8983(3)
H18_4 H 0.3899 0.8755 0.8930
C26_4 C 0.5923(7) 0.8815(3) 0.8920(3)
C27_4 C 0.6993(7) 0.9219(3) 0.9023(4)
H19_4 H 0.7854 0.9035 0.8993
O5_4 O 0.5204(6) 0.7703(3) 0.8781(3)
O6_4 O 0.7240(6) 0.7937(3) 0.8558(3)
N13_4 N 0.6114(7) 0.8099(3) 0.8739(3)
loop_
_geom_bond_atom_site_label_1
_geom_bond_atom_site_label_2
_geom_bond_site_symmetry_1
_geom_bond_site_symmetry_2
C31 H20 1_555 1_555
O9 C36 1_555 1_555
C33 C32 1_555 1_555
H21 C33 1_555 1_555
C34 C33 1_555 1_555
O11 N14 1_555 1_555
N14 C34 1_555 1_555
Co7 O10 1_555 1_555
Co2 O1 1_555 1_555
C19 H15 1_555 1_555
C21 C22 1_555 1_555
C22 C23 1_555 1_555
C23 H17 1_555 1_555
C27 C22 1_555 1_555
H19 C27 1_555 1_555
O1 C21 1_555 1_555
O2 C21 1_555 1_555
O5 N13 1_555 1_555
O6 N13 1_555 1_555
N12 Co2 1_555 1_555
N13 C26 1_555 1_555
O14 Co2 1_555 1_555
O15 Co2 1_555 1_555
N15 Co2 1_555 1_555
C19 N12 1_555 1_555
C26 C27 1_555 1_555
Co3 O7 1_555 1_555
C1 H1 1_555 1_555
C2 H2 1_555 1_555
C3 C2 1_555 1_555
H3 C3 1_555 1_555
C4 C5 1_555 1_555
C5 H4 1_555 1_555
C6 C5 1_555 1_555
C7 H5 1_555 1_555
C8 H6 1_555 1_555
C9 C8 1_555 1_555
H7 C9 1_555 1_555
C10 H8 1_555 1_555
C11 H9 1_555 1_555
C12 H10 1_555 1_555
C13 C12 1_555 1_555
H11 C13 1_555 1_555
C14 C15 1_555 1_555
C15 H12 1_555 1_555
C16 C15 1_555 1_555
C17 H13 1_555 1_555
C18 H14 1_555 1_555
H16 C20 1_555 1_555
O7 C29 1_555 1_555
N1 Co3 1_555 1_555
N2 C1 1_555 1_555
N3 C4 1_555 1_555
N4 C6 1_555 1_555
N5 C6 1_555 1_555
N15 C9 1_555 1_555
N7 Co3 1_555 1_555
N8 C11 1_555 1_555
N9 C14 1_555 1_555
N10 C16 1_555 1_555
N11 C16 1_555 1_555
C1 N1 1_555 1_555
C2 N1 1_555 1_555
C3 N2 1_555 1_555
C4 N2 1_555 1_555
C7 N3 1_555 1_555
C7 N4 1_555 1_555
C8 N5 1_555 1_555
C10 N5 1_555 1_555
C10 N15 1_555 1_555
C11 N7 1_555 1_555
C12 N7 1_555 1_555
C13 N8 1_555 1_555
C14 N8 1_555 1_555
C17 N9 1_555 1_555
C17 N10 1_555 1_555
C18 N11 1_555 1_555
C20 N11 1_555 1_555
Co4 O17 1_555 1_555
C35 C30 1_555 1_555
H22 C35 1_555 1_555
C25 C24 1_555 1_555
H18 C25 1_555 1_555
C28 C24 1_555 1_555
O14 C28 1_555 1_555
O15 C28 1_555 1_555
C25_2 C24_2 1_555 1_555
H18_2 C25_2 1_555 1_555
O3 C28_2 1_555 1_555
Co7 O3 1_555 1_555
C27_2 C22_2 1_555 1_555
H19_2 C27_2 1_555 1_555
O5_2 N13_2 1_555 1_555
O6_2 N13_2 1_555 1_555
N13_2 C26_2 1_555 1_555
C26_2 C27_2 1_555 1_555
C1_2 H1_2 1_555 1_555
H3_2 C3_2 1_555 1_555
C4_2 C5_2 1_555 1_555
C5_2 H4_2 1_555 1_555
C6_2 C5_2 1_555 1_555
C7_2 H5_2 1_555 1_555
C8_2 H6_2 1_555 1_555
C9_2 C8_2 1_555 1_555
H7_2 C9_2 1_555 1_555
C10_2 H8_2 1_555 1_555
N2_2 C1_2 1_555 1_555
N3_2 C4_2 1_555 1_555
N4_2 C6_2 1_555 1_555
N5_2 C6_2 1_555 1_555
N6 C9_2 1_555 1_555
Co7 N6 1_555 1_555
C3_2 N2_2 1_555 1_555
C4_2 N2_2 1_555 1_555
C7_2 N3_2 1_555 1_555
C7_2 N4_2 1_555 1_555
C8_2 N5_2 1_555 1_555
C10_2 N5_2 1_555 1_555
C10_2 N6 1_555 1_555
Co4 O7_2 1_555 1_555
Co7 O13 1_555 1_555
C2_2 H2_2 1_555 1_555
C11_2 H9_2 1_555 1_555
C12_2 H10_2 1_555 1_555
C13_2 C12_2 1_555 1_555
H11_2 C13_2 1_555 1_555
C14_2 C15_2 1_555 1_555
C15_2 H12_2 1_555 1_555
C16_2 C15_2 1_555 1_555
C17_2 H13_2 1_555 1_555
C18_2 H14_2 1_555 1_555
C19_2 H15_2 1_555 1_555
C20_2 C19_2 1_555 1_555
H16_2 C20_2 1_555 1_555
C23_2 H17_2 1_555 1_555
C29_2 C30_2 1_555 1_555
C35_2 C30_2 1_555 1_555
H22_2 C35_2 1_555 1_555
O13 C21_2 1_555 1_555
O2_2 C21_2 1_555 1_555
O7_2 C29_2 1_555 1_555
O8_2 Co4 1_555 1_555
N1_2 Co4 1_555 1_555
N7_2 Co4 1_555 1_555
N8_2 C11_2 1_555 1_555
N9_2 C14_2 1_555 1_555
N10_2 C16_2 1_555 1_555
N11_2 C16_2 1_555 1_555
N12_2 Co7 1_555 1_555
C2_2 N1_2 1_555 1_555
C11_2 N7_2 1_555 1_555
C12_2 N7_2 1_555 1_555
C13_2 N8_2 1_555 1_555
C14_2 N8_2 1_555 1_555
C17_2 N9_2 1_555 1_555
C17_2 N10_2 1_555 1_555
C18_2 N11_2 1_555 1_555
C18_2 N12_2 1_555 1_555
C19_2 N12_2 1_555 1_555
C20_2 N11_2 1_555 1_555
C29_2 O8_2 1_555 1_555
C31_2 H20_2 1_555 1_555
C32_2 C31_2 1_555 1_555
C33_2 C32_2 1_555 1_555
H21_2 C33_2 1_555 1_555
C34_2 C33_2 1_555 1_555
C36_2 C32_2 1_555 1_555
O9_2 C36_2 1_555 1_555
O17 C36_2 1_555 1_555
O11_2 N14_2 1_555 1_555
N14_2 C34_2 1_555 1_555
C11_3 H9_3 1_555 1_555
C17_3 H13_3 1_555 1_555
C18_3 H14_3 1_555 1_555
C21_3 C22_3 1_555 1_555
C22_3 C23_3 1_555 1_555
C23_3 H17_3 1_555 1_555
C24_3 C23_3 1_555 1_555
C25_3 C24_3 1_555 1_555
H18_3 C25_3 1_555 1_555
C26_3 C25_3 1_555 1_555
C27_3 C22_3 1_555 1_555
H19_3 C27_3 1_555 1_555
C28_3 C24_3 1_555 1_555
O1_2 C21_3 1_555 1_555
O2_3 C21_3 1_555 1_555
O3_2 C28_3 1_555 1_555
O4_2 C28_3 1_555 1_555
O5_3 N13_3 1_555 1_555
O6_3 N13_3 1_555 1_555
N9_3 C14_3 1_555 1_555
N10_3 C16_3 1_555 1_555
N13_3 C26_3 1_555 1_555
Co4_2 O1_2 1_555 1_555
Co5 O3_2 1_555 1_555
C17_3 N9_3 1_555 1_555
C17_3 N10_3 1_555 1_555
C26_3 C27_3 1_555 1_555
O4_2 Co5 1_555 1_555
C33_3 C32_3 1_555 1_555
H21_3 C33_3 1_555 1_555
C34_3 C33_3 1_555 1_555
C35_3 C30_3 1_555 1_555
H22_3 C35_3 1_555 1_555
O11_3 N14_3 1_555 1_555
O12_3 N14_3 1_555 1_555
N14_3 C34_3 1_555 1_555
C34_3 C35_3 1_555 1_555
Co1 O7_3 1_555 1_555
C2_3 H2_3 1_555 1_555
C12_3 H10_3 1_555 1_555
C13_3 C12_3 1_555 1_555
H11_3 C13_3 1_555 1_555
C15_3 H12_3 1_555 1_555
C19_3 H15_3 1_555 1_555
C20_3 C19_3 1_555 1_555
H16_3 C20_3 1_555 1_555
C31_3 H20_3 1_555 1_555
O7_3 C29_3 1_555 1_555
O9_3 C36_3 1_555 1_555
N1_3 Co1 1_555 1_555
N7_3 Co1 1_555 1_555
N12_3 Co5 1_555 1_555
O17_2 Co5 1_555 1_555
N15_2 Co5 1_555 1_555
C2_3 N1_3 1_555 1_555
C12_3 N7_3 1_555 1_555
C13_3 N8_3 1_555 1_555
C19_3 N12_3 1_555 1_555
C20_3 N11_3 1_555 1_555
H3_3 C3_3 1_555 1_555
C5_3 H4_3 1_555 1_555
C8_3 H6_3 1_555 1_555
C9_3 C8_3 1_555 1_555
H7_3 C9_3 1_555 1_555
N15_2 C9_3 1_555 1_555
C3_3 N2_3 1_555 1_555
C8_3 N5_3 1_555 1_555
Co4_2 O7_4 1_555 1_555
C2_4 H2_4 1_555 1_555
C3_4 C2_4 1_555 1_555
H3_4 C3_4 1_555 1_555
C5_4 H4_4 1_555 1_555
C8_4 H6_4 1_555 1_555
C9_4 C8_4 1_555 1_555
H7_4 C9_4 1_555 1_555
C12_4 H10_4 1_555 1_555
C13_4 C12_4 1_555 1_555
H11_4 C13_4 1_555 1_555
C15_4 H12_4 1_555 1_555
H16_4 C20_4 1_555 1_555
C29_4 C30_4 1_555 1_555
C30_4 C31_4 1_555 1_555
C31_4 H20_4 1_555 1_555
C32_4 C31_4 1_555 1_555
C33_4 C32_4 1_555 1_555
H21_4 C33_4 1_555 1_555
C34_4 C33_4 1_555 1_555
C35_4 C30_4 1_555 1_555
H22_4 C35_4 1_555 1_555
C36_4 C32_4 1_555 1_555
O7_4 C29_4 1_555 1_555
O8_4 Co4_2 1_555 1_555
O9_4 C36_4 1_555 1_555
O17_2 C36_4 1_555 1_555
O11_4 N14_4 1_555 1_555
O12_4 N14_4 1_555 1_555
N1_4 Co4_2 1_555 1_555
N6_2 C9_4 1_555 1_555
N7_4 Co4_2 1_555 1_555
N14_4 C34_4 1_555 1_555
Co7_2 N6_2 1_555 1_555
C2_4 N1_4 1_555 1_555
C3_4 N2_4 1_555 1_555
C8_4 N5_4 1_555 1_555
C12_4 N7_4 1_555 1_555
C13_4 N8_4 1_555 1_555
C20_4 N11_4 1_555 1_555
C29_4 O8_4 1_555 1_555
C34_4 C35_4 1_555 1_555
C19_4 H15_4 1_555 1_555
N12_4 Co7_2 1_555 1_555
O14_2 Co7_2 1_555 1_555
C19_4 N12_4 1_555 1_555
C1_3 H1_3 1_555 1_555
C7_3 H5_3 1_555 1_555
C10_3 H8_3 1_555 1_555
C11_4 H9_4 1_555 1_555
C17_4 H13_4 1_555 1_555
C18_4 H14_4 1_555 1_555
N3_3 C4_3 1_555 1_555
N4_3 C6_3 1_555 1_555
N9_4 C14_4 1_555 1_555
N10_4 C16_4 1_555 1_555
C7_3 N3_3 1_555 1_555
C7_3 N4_3 1_555 1_555
C17_4 N9_4 1_555 1_555
C17_4 N10_4 1_555 1_555
C23_4 H17_4 1_555 1_555
O13_2 C21_4 1_555 1_555
O2_4 C21_4 1_555 1_555
O14_2 C28_4 1_555 1_555
C1_4 H1_4 1_555 1_555
C7_4 H5_4 1_555 1_555
C10_4 H8_4 1_555 1_555
N3_4 C4_4 1_555 1_555
N4_4 C6_4 1_555 1_555
C7_4 N3_4 1_555 1_555
C7_4 N4_4 1_555 1_555
C25_4 C24_4 1_555 1_555
H18_4 C25_4 1_555 1_555
C26_4 C25_4 1_555 1_555
C27_4 C22_4 1_555 1_555
H19_4 C27_4 1_555 1_555
O5_4 N13_4 1_555 1_555
O6_4 N13_4 1_555 1_555
N13_4 C26_4 1_555 1_555
C26_4 C27_4 1_555 1_555

#END
