
###############################################################################
#
# This file contains modified crystal structure data generated from the
# MOF subset of the Cambridge Structural Database (CSD) v543 
# hosted by the Cambridge Crystallographic Data Centre (CCDC).
#
# This work is licensed under the Creative Commons
# Attribution-NonCommercial-ShareAlike 4.0 International License.
# To view a copy of this license, visit
# http://creativecommons.org/licenses/by-nc-sa/4.0/
# or send a letter to
# Creative Commons, PO Box 1866, Mountain View, CA 94042, USA.
#
# CIF created using the CSD Python API on 29 September 2022
# The structure has been converted into the P1 space group
# The structure has a 3D framework
# The original CSD entry KEDLAJ10 is in the orthorhombic crystal system
# The framework has been calculated to contain at least 10.0% void space
# The void calculation uses a probe of radius 1.32A, grid spacing 0.4
#
###############################################################################

data_KEDLAJ10
_chemical_formula_moiety         '(C144 H88 Co8 N56 O48)n'
_symmetry_cell_setting           triclinic
_symmetry_space_group_name_H-M   'P 1'
_symmetry_Int_Tables_number      1
_space_group_name_Hall           'P 1'
loop_
_symmetry_equiv_pos_site_id
_symmetry_equiv_pos_as_xyz
1 x,y,z
_cell_length_a                   10.088(2)
_cell_length_b                   19.229(4)
_cell_length_c                   20.815(4)
_cell_angle_alpha                90
_cell_angle_beta                 90
_cell_angle_gamma                90
_cell_volume                     4037.74
loop_
_atom_site_label
_atom_site_type_symbol
_atom_site_fract_x
_atom_site_fract_y
_atom_site_fract_z
Co1 Co 0.07761(4) 0.44694(2) 0.43737(2)
N1 N 0.0195(3) 0.27727(15) 0.55972(14)
N2 N 0.0720(3) 0.07893(16) 0.84019(14)
N3 N 0.0659(3) 0.35542(15) 0.48610(13)
N5 N 0.0270(3) 0.13226(17) 0.74915(14)
C12 C 0.0298(3) 0.20021(19) 0.65136(17)
H6 H 0.1094 0.1806 0.6380
C15 C 0.1507(4) 0.2994(2) 0.48030(18)
H8 H 0.2171 0.2954 0.4495
C16 C 0.1243(4) 0.25219(19) 0.52477(19)
H9 H 0.1682 0.2102 0.5311
C17 C 0.1327(4) 0.0882(2) 0.73686(18)
H10 H 0.1767 0.0821 0.6980
C18 C 0.1580(4) 0.0564(2) 0.79250(18)
H11 H 0.2245 0.0235 0.7985
Co4 Co 0.07761(4) 0.05306(2) 0.93737(2)
O7 O 0.0929(2) 0.50250(13) 0.55314(11)
O8 O 0.2079(2) 0.53070(13) 0.42218(12)
O9 O 0.2989(2) 0.42786(14) 0.43023(13)
N8 N 0.0720(3) 0.42107(16) 0.34019(14)
O1 O 0.9071(2) 0.49750(13) 0.44686(11)
C1 C 0.5547(3) 0.48355(19) 0.42362(15)
H1 H 0.5449 0.4365 0.4329
O4 O 0.7902(2) 0.40339(13) 0.41904(12)
C2 C 0.4428(3) 0.52392(19) 0.41464(15)
C3 C 0.7996(3) 0.4663(2) 0.42934(17)
C4 C 0.3095(3) 0.4922(2) 0.42307(16)
N4 N 0.8493(3) 0.27700(17) 0.63373(15)
C5 C 0.6809(3) 0.51148(18) 0.41917(15)
C6 C 0.5821(3) 0.61920(19) 0.39229(17)
C7 C 0.6944(3) 0.58076(19) 0.40387(16)
H2 H 0.7779 0.6011 0.4014
C8 C 0.4561(3) 0.5931(2) 0.39878(17)
H3 H 0.3822 0.6212 0.3927
O5 O 0.7070(3) 0.71380(17) 0.36068(17)
N6 N 0.5965(4) 0.69246(19) 0.37208(17)
C9 C 0.9882(3) 0.34089(19) 0.53392(17)
H4 H 0.9205 0.3696 0.5487
N7 N 0.8549(3) 0.20669(18) 0.72714(15)
C10 C 0.9952(3) 0.12404(19) 0.81209(17)
H5 H 0.9269 0.1477 0.8326
C11 C 0.9649(3) 0.25032(19) 0.61644(17)
C13 C 0.8012(4) 0.2541(2) 0.6892(2)
H7 H 0.7214 0.2734 0.7027
C14 C 0.9685(3) 0.18139(19) 0.70740(18)
O6 O 0.4982(3) 0.72552(17) 0.3626(2)
Co3 Co 0.92239(4) 0.55306(2) 0.56263(2)
O1_2 O 0.0929(2) 0.99750(13) 0.05314(11)
C1_2 C 0.4453(3) 0.98355(19) 0.07638(15)
H1_2 H 0.4551 0.9365 0.0671
O3 O 0.7011(2) 0.92786(14) 0.06977(13)
O4_2 O 0.2098(2) 0.90339(13) 0.08096(12)
C3_2 C 0.2004(3) 0.9663(2) 0.07066(17)
C4_2 C 0.6905(3) 0.9922(2) 0.07693(16)
Co2 Co 0.92239(4) 0.94694(2) 0.06263(2)
O7_2 O 0.9071(2) 0.00250(13) 0.94686(11)
N3_2 N 0.9341(3) 0.85542(15) 0.01390(13)
C15_2 C 0.8493(4) 0.7994(2) 0.01970(18)
H8_2 H 0.7829 0.7954 0.0505
N8_2 N 0.9280(3) 0.92107(16) 0.15981(14)
N1_2 N 0.9805(3) 0.77727(15) 0.94028(14)
N2_2 N 0.9280(3) 0.57893(16) 0.65981(14)
N5_2 N 0.9730(3) 0.63226(17) 0.75085(14)
C12_2 C 0.9702(3) 0.70021(19) 0.84864(17)
H6_2 H 0.8906 0.6806 0.8620
C16_2 C 0.8757(4) 0.75219(19) 0.97523(19)
H9_2 H 0.8318 0.7102 0.9689
C17_2 C 0.8673(4) 0.5882(2) 0.76314(18)
H10_2 H 0.8233 0.5821 0.8020
C18_2 C 0.8420(4) 0.5564(2) 0.70750(18)
H11_2 H 0.7755 0.5235 0.7015
C1_3 C 0.4453(3) 0.51645(19) 0.57638(15)
H1_3 H 0.4551 0.5635 0.5671
O2 O 0.7921(2) 0.46930(13) 0.57782(12)
O3_2 O 0.7011(2) 0.57214(14) 0.56977(13)
O4_3 O 0.2098(2) 0.59661(13) 0.58096(12)
C2_2 C 0.5572(3) 0.47608(19) 0.58536(15)
C3_3 C 0.2004(3) 0.5337(2) 0.57066(17)
C4_3 C 0.6905(3) 0.5078(2) 0.57693(16)
N4_2 N 0.1507(3) 0.72300(17) 0.36627(15)
C5_2 C 0.3191(3) 0.48852(18) 0.58083(15)
C6_2 C 0.4179(3) 0.38080(19) 0.60771(17)
C7_2 C 0.3056(3) 0.41924(19) 0.59613(16)
H2_2 H 0.2221 0.3989 0.5986
C8_2 C 0.5439(3) 0.4069(2) 0.60122(17)
H3_2 H 0.6178 0.3788 0.6073
O5_2 O 0.2930(3) 0.28620(17) 0.63932(17)
N6_2 N 0.4035(4) 0.30754(19) 0.62792(17)
C9_2 C 0.0118(3) 0.65911(19) 0.46608(17)
H4_2 H 0.0795 0.6304 0.4513
N7_2 N 0.1451(3) 0.79331(18) 0.27286(15)
C10_2 C 0.0048(3) 0.87596(19) 0.18791(17)
H5_2 H 0.0731 0.8523 0.1674
C11_2 C 0.0351(3) 0.74968(19) 0.38356(17)
C13_2 C 0.1988(4) 0.7459(2) 0.3108(2)
H7_2 H 0.2786 0.7266 0.2973
C14_2 C 0.0315(3) 0.81861(19) 0.29260(18)
O6_2 O 0.5018(3) 0.27448(17) 0.6374(2)
N1_3 N 0.9805(3) 0.72273(15) 0.44028(14)
N3_3 N 0.9341(3) 0.64458(15) 0.51390(13)
N5_3 N 0.9730(3) 0.86774(17) 0.25085(14)
C12_3 C 0.9702(3) 0.79979(19) 0.34864(17)
H6_3 H 0.8906 0.8194 0.3620
C15_3 C 0.8493(4) 0.7006(2) 0.51970(18)
H8_3 H 0.7829 0.7046 0.5505
C16_3 C 0.8757(4) 0.74781(19) 0.47523(19)
H9_3 H 0.8318 0.7898 0.4689
C17_3 C 0.8673(4) 0.9118(2) 0.26314(18)
H10_3 H 0.8233 0.9179 0.3020
C18_3 C 0.8420(4) 0.9436(2) 0.20750(18)
H11_3 H 0.7755 0.9765 0.2015
N1_4 N 0.0195(3) 0.22273(15) 0.05972(14)
N5_4 N 0.0270(3) 0.36774(17) 0.24915(14)
C12_4 C 0.0298(3) 0.29979(19) 0.15136(17)
H6_4 H 0.1094 0.3194 0.1380
C16_4 C 0.1243(4) 0.24781(19) 0.02477(19)
H9_4 H 0.1682 0.2898 0.0311
C17_4 C 0.1327(4) 0.4118(2) 0.23686(18)
H10_4 H 0.1767 0.4179 0.1980
C18_4 C 0.1580(4) 0.4436(2) 0.29250(18)
H11_4 H 0.2245 0.4765 0.2985
N3_4 N 0.0659(3) 0.14458(15) 0.98610(13)
C15_4 C 0.1507(4) 0.2006(2) 0.98030(18)
H8_4 H 0.2171 0.2046 0.9495
O9_2 O 0.2989(2) 0.07214(14) 0.93023(13)
C1_4 C 0.5547(3) 0.01645(19) 0.92362(15)
H1_4 H 0.5449 0.0635 0.9329
O4_4 O 0.7902(2) 0.09661(13) 0.91904(12)
C3_4 C 0.7996(3) 0.0337(2) 0.92934(17)
C4_4 C 0.3095(3) 0.0078(2) 0.92307(16)
O2_2 O 0.2921(2) 0.46930(13) 0.92218(12)
O3_3 O 0.2011(2) 0.57214(14) 0.93023(13)
C2_3 C 0.0572(3) 0.47608(19) 0.91464(15)
C4_5 C 0.1905(3) 0.5078(2) 0.92307(16)
C8_3 C 0.0439(3) 0.4069(2) 0.89878(17)
H3_3 H 0.1178 0.3788 0.8927
O6_3 O 0.0018(3) 0.27448(17) 0.8626(2)
Co2_2 Co 0.42239(4) 0.55306(2) 0.93737(2)
N1_5 N 0.4805(3) 0.72273(15) 0.05972(14)
N2_3 N 0.4280(3) 0.92107(16) 0.34019(14)
N4_3 N 0.6507(3) 0.72300(17) 0.13373(15)
N5_5 N 0.4730(3) 0.86774(17) 0.24915(14)
C9_3 C 0.5118(3) 0.65911(19) 0.03392(17)
H4_3 H 0.5795 0.6304 0.0487
N7_3 N 0.6451(3) 0.79331(18) 0.22714(15)
C10_3 C 0.5048(3) 0.87596(19) 0.31209(17)
H5_3 H 0.5731 0.8523 0.3326
C11_3 C 0.5351(3) 0.74968(19) 0.11644(17)
C12_5 C 0.4702(3) 0.79979(19) 0.15136(17)
H6_5 H 0.3906 0.8194 0.1380
C13_3 C 0.6988(4) 0.7459(2) 0.1892(2)
H7_3 H 0.7786 0.7266 0.2027
C14_3 C 0.5315(3) 0.81861(19) 0.20740(18)
C16_5 C 0.3757(4) 0.74781(19) 0.02477(19)
H9_5 H 0.3318 0.7898 0.0311
C17_5 C 0.3673(4) 0.9118(2) 0.23686(18)
H10_5 H 0.3233 0.9179 0.1980
C18_5 C 0.3420(4) 0.9436(2) 0.29250(18)
H11_5 H 0.2755 0.9765 0.2985
Co3_2 Co 0.57761(4) 0.44694(2) 0.06263(2)
Co4_2 Co 0.42239(4) 0.94694(2) 0.43737(2)
O7_3 O 0.4071(2) 0.49750(13) 0.05314(11)
O1_3 O 0.5929(2) 0.50250(13) 0.94686(11)
C1_5 C 0.9453(3) 0.51645(19) 0.92362(15)
H1_5 H 0.9551 0.5635 0.9329
O4_5 O 0.7098(2) 0.59661(13) 0.91904(12)
C3_5 C 0.7004(3) 0.5337(2) 0.92934(17)
N3_5 N 0.4341(3) 0.64458(15) 0.98610(13)
C5_3 C 0.8191(3) 0.48852(18) 0.91917(15)
C6_3 C 0.9179(3) 0.38080(19) 0.89229(17)
C7_3 C 0.8056(3) 0.41924(19) 0.90387(16)
H2_3 H 0.7221 0.3989 0.9014
O5_3 O 0.7930(3) 0.28620(17) 0.86068(17)
N6_3 N 0.9035(4) 0.30754(19) 0.87208(17)
C15_5 C 0.3493(4) 0.7006(2) 0.98030(18)
H8_5 H 0.2829 0.7046 0.9495
N8_3 N 0.4280(3) 0.57893(16) 0.84019(14)
Co1_2 Co 0.57761(4) 0.05306(2) 0.56263(2)
O1_4 O 0.4071(2) 0.00250(13) 0.55314(11)
C1_6 C 0.0547(3) 0.01645(19) 0.57638(15)
H1_6 H 0.0449 0.0635 0.5671
N1_6 N 0.5195(3) 0.22273(15) 0.44028(14)
O4_6 O 0.2902(2) 0.09661(13) 0.58096(12)
N2_4 N 0.5720(3) 0.42107(16) 0.15981(14)
C3_6 C 0.2996(3) 0.0337(2) 0.57066(17)
N3_6 N 0.5659(3) 0.14458(15) 0.51390(13)
N4_4 N 0.3493(3) 0.22300(17) 0.36627(15)
N5_6 N 0.5270(3) 0.36774(17) 0.25085(14)
C9_4 C 0.4882(3) 0.15911(19) 0.46608(17)
H4_4 H 0.4205 0.1304 0.4513
N7_4 N 0.3549(3) 0.29331(18) 0.27286(15)
C10_4 C 0.4952(3) 0.37596(19) 0.18791(17)
H5_4 H 0.4269 0.3523 0.1674
C11_4 C 0.4649(3) 0.24968(19) 0.38356(17)
C12_6 C 0.5298(3) 0.29979(19) 0.34864(17)
H6_6 H 0.6094 0.3194 0.3620
C13_4 C 0.3012(4) 0.2459(2) 0.3108(2)
H7_4 H 0.2214 0.2266 0.2973
C14_4 C 0.4685(3) 0.31861(19) 0.29260(18)
C15_6 C 0.6507(4) 0.2006(2) 0.51970(18)
H8_6 H 0.7171 0.2046 0.5505
C16_6 C 0.6243(4) 0.24781(19) 0.47523(19)
H9_6 H 0.6682 0.2898 0.4689
C17_6 C 0.6327(4) 0.4118(2) 0.26314(18)
H10_6 H 0.6767 0.4179 0.3020
C18_6 C 0.6580(4) 0.4436(2) 0.20750(18)
H11_6 H 0.7245 0.4765 0.2015
O9_3 O 0.7989(2) 0.07214(14) 0.56977(13)
N8_4 N 0.5720(3) 0.07893(16) 0.65981(14)
C5_4 C 0.1809(3) 0.98852(18) 0.58083(15)
C6_4 C 0.0821(3) 0.88080(19) 0.60771(17)
C7_4 C 0.1944(3) 0.91924(19) 0.59613(16)
H2_4 H 0.2779 0.8989 0.5986
O5_4 O 0.2070(3) 0.78620(17) 0.63932(17)
N6_4 N 0.0965(4) 0.80754(19) 0.62792(17)
O7_4 O 0.5929(2) 0.99750(13) 0.44686(11)
O8_2 O 0.7079(2) 0.96930(13) 0.57782(12)
C4_6 C 0.8095(3) 0.0078(2) 0.57693(16)
C2_4 C 0.9428(3) 0.97608(19) 0.58536(15)
C8_4 C 0.9561(3) 0.9069(2) 0.60122(17)
H3_4 H 0.8822 0.8788 0.6073
O6_4 O 0.9982(3) 0.77448(17) 0.6374(2)
C1_7 C 0.0547(3) 0.48355(19) 0.07638(15)
H1_7 H 0.0449 0.4365 0.0671
O4_7 O 0.2902(2) 0.40339(13) 0.08096(12)
C3_7 C 0.2996(3) 0.4663(2) 0.07066(17)
N3_7 N 0.5659(3) 0.35542(15) 0.01390(13)
C5_5 C 0.1809(3) 0.51148(18) 0.08083(15)
C6_5 C 0.0821(3) 0.61920(19) 0.10771(17)
C7_5 C 0.1944(3) 0.58076(19) 0.09613(16)
H2_5 H 0.2779 0.6011 0.0986
O5_5 O 0.2070(3) 0.71380(17) 0.13932(17)
N6_5 N 0.0965(4) 0.69246(19) 0.12792(17)
C15_7 C 0.6507(4) 0.2994(2) 0.01970(18)
H8_7 H 0.7171 0.2954 0.0505
O8_3 O 0.7079(2) 0.53070(13) 0.07782(12)
O9_4 O 0.7989(2) 0.42786(14) 0.06977(13)
N1_7 N 0.5195(3) 0.27727(15) 0.94028(14)
N4_5 N 0.3493(3) 0.27700(17) 0.86627(15)
N5_7 N 0.5270(3) 0.13226(17) 0.75085(14)
C9_5 C 0.4882(3) 0.34089(19) 0.96608(17)
H4_5 H 0.4205 0.3696 0.9513
N7_5 N 0.3549(3) 0.20669(18) 0.77286(15)
C10_5 C 0.4952(3) 0.12404(19) 0.68791(17)
H5_5 H 0.4269 0.1477 0.6674
C11_5 C 0.4649(3) 0.25032(19) 0.88356(17)
C12_7 C 0.5298(3) 0.20021(19) 0.84864(17)
H6_7 H 0.6094 0.1806 0.8620
C13_5 C 0.3012(4) 0.2541(2) 0.8108(2)
H7_5 H 0.2214 0.2734 0.7973
C14_5 C 0.4685(3) 0.18139(19) 0.79260(18)
C16_7 C 0.6243(4) 0.25219(19) 0.97523(19)
H9_7 H 0.6682 0.2102 0.9689
C17_7 C 0.6327(4) 0.0882(2) 0.76314(18)
H10_7 H 0.6767 0.0821 0.8020
C18_7 C 0.6580(4) 0.0564(2) 0.70750(18)
H11_7 H 0.7245 0.0235 0.7015
C2_5 C 0.9428(3) 0.52392(19) 0.08536(15)
C4_7 C 0.8095(3) 0.4922(2) 0.07693(16)
C8_5 C 0.9561(3) 0.5931(2) 0.10122(17)
H3_5 H 0.8822 0.6212 0.1073
O6_5 O 0.9982(3) 0.72552(17) 0.1374(2)
O2_3 O 0.2921(2) 0.03070(13) 0.42218(12)
C2_6 C 0.0572(3) 0.02392(19) 0.41464(15)
C8_6 C 0.0439(3) 0.0931(2) 0.39878(17)
H3_6 H 0.1178 0.1212 0.3927
O6_6 O 0.0018(3) 0.22552(17) 0.3626(2)
O3_4 O 0.2011(2) 0.92786(14) 0.43023(13)
C4_8 C 0.1905(3) 0.9922(2) 0.42307(16)
C5_6 C 0.8191(3) 0.01148(18) 0.41917(15)
C6_6 C 0.9179(3) 0.11920(19) 0.39229(17)
C7_6 C 0.8056(3) 0.08076(19) 0.40387(16)
H2_6 H 0.7221 0.1011 0.4014
O5_6 O 0.7930(3) 0.21380(17) 0.36068(17)
N6_6 N 0.9035(4) 0.19246(19) 0.37208(17)
C1_8 C 0.9453(3) 0.98355(19) 0.42362(15)
H1_8 H 0.9551 0.9365 0.4329
N1_8 N 0.4805(3) 0.77727(15) 0.55972(14)
O4_8 O 0.7098(2) 0.90339(13) 0.41904(12)
C3_8 C 0.7004(3) 0.9663(2) 0.42934(17)
N3_8 N 0.4341(3) 0.85542(15) 0.48610(13)
N4_6 N 0.6507(3) 0.77700(17) 0.63373(15)
N5_8 N 0.4730(3) 0.63226(17) 0.74915(14)
C9_6 C 0.5118(3) 0.84089(19) 0.53392(17)
H4_6 H 0.5795 0.8696 0.5487
N7_6 N 0.6451(3) 0.70669(18) 0.72714(15)
C10_6 C 0.5048(3) 0.62404(19) 0.81209(17)
H5_6 H 0.5731 0.6477 0.8326
C11_6 C 0.5351(3) 0.75032(19) 0.61644(17)
C12_8 C 0.4702(3) 0.70021(19) 0.65136(17)
H6_8 H 0.3906 0.6806 0.6380
C13_6 C 0.6988(4) 0.7541(2) 0.6892(2)
H7_6 H 0.7786 0.7734 0.7027
C14_6 C 0.5315(3) 0.68139(19) 0.70740(18)
C15_8 C 0.3493(4) 0.7994(2) 0.48030(18)
H8_8 H 0.2829 0.7954 0.4495
C16_8 C 0.3757(4) 0.75219(19) 0.52477(19)
H9_8 H 0.3318 0.7102 0.5311
C17_8 C 0.3673(4) 0.5882(2) 0.73686(18)
H10_8 H 0.3233 0.5821 0.6980
C18_8 C 0.3420(4) 0.5564(2) 0.79250(18)
H11_8 H 0.2755 0.5235 0.7985
O2_4 O 0.7921(2) 0.03070(13) 0.07782(12)
C2_7 C 0.5572(3) 0.02392(19) 0.08536(15)
C5_7 C 0.3191(3) 0.01148(18) 0.08083(15)
C6_7 C 0.4179(3) 0.11920(19) 0.10771(17)
C7_7 C 0.3056(3) 0.08076(19) 0.09613(16)
H2_7 H 0.2221 0.1011 0.0986
C8_7 C 0.5439(3) 0.0931(2) 0.10122(17)
H3_7 H 0.6178 0.1212 0.1073
O5_7 O 0.2930(3) 0.21380(17) 0.13932(17)
N6_7 N 0.4035(4) 0.19246(19) 0.12792(17)
O6_7 O 0.5018(3) 0.22552(17) 0.1374(2)
N4_7 N 0.1507(3) 0.77700(17) 0.86627(15)
C9_7 C 0.0118(3) 0.84089(19) 0.96608(17)
H4_7 H 0.0795 0.8696 0.9513
N7_7 N 0.1451(3) 0.70669(18) 0.77286(15)
C10_7 C 0.0048(3) 0.62404(19) 0.68791(17)
H5_7 H 0.0731 0.6477 0.6674
C11_7 C 0.0351(3) 0.75032(19) 0.88356(17)
C13_7 C 0.1988(4) 0.7541(2) 0.8108(2)
H7_7 H 0.2786 0.7734 0.7973
C14_7 C 0.0315(3) 0.68139(19) 0.79260(18)
O8_4 O 0.2079(2) 0.96930(13) 0.92218(12)
C2_8 C 0.4428(3) 0.97608(19) 0.91464(15)
C5_8 C 0.6809(3) 0.98852(18) 0.91917(15)
C6_8 C 0.5821(3) 0.88080(19) 0.89229(17)
C7_8 C 0.6944(3) 0.91924(19) 0.90387(16)
H2_8 H 0.7779 0.8989 0.9014
C8_8 C 0.4561(3) 0.9069(2) 0.89878(17)
H3_8 H 0.3822 0.8788 0.8927
O5_8 O 0.7070(3) 0.78620(17) 0.86068(17)
N6_8 N 0.5965(4) 0.80754(19) 0.87208(17)
O6_8 O 0.4982(3) 0.77448(17) 0.8626(2)
N4_8 N 0.8493(3) 0.22300(17) 0.13373(15)
C9_8 C 0.9882(3) 0.15911(19) 0.03392(17)
H4_8 H 0.9205 0.1304 0.0487
N7_8 N 0.8549(3) 0.29331(18) 0.22714(15)
C10_8 C 0.9952(3) 0.37596(19) 0.31209(17)
H5_8 H 0.9269 0.3523 0.3326
C11_8 C 0.9649(3) 0.24968(19) 0.11644(17)
C13_8 C 0.8012(4) 0.2459(2) 0.1892(2)
H7_8 H 0.7214 0.2266 0.2027
C14_8 C 0.9685(3) 0.31861(19) 0.20740(18)
loop_
_geom_bond_atom_site_label_1
_geom_bond_atom_site_label_2
_geom_bond_site_symmetry_1
_geom_bond_site_symmetry_2
N3 Co1 1_555 1_555
H6 C12 1_555 1_555
C15 N3 1_555 1_555
H8 C15 1_555 1_555
C16 N1 1_555 1_555
H9 C16 1_555 1_555
C17 N5 1_555 1_555
H10 C17 1_555 1_555
C18 N2 1_555 1_555
H11 C18 1_555 1_555
Co4 N2 1_555 1_555
O7 Co1 1_555 1_555
O8 Co1 1_555 1_555
O9 Co1 1_555 1_555
N8 Co1 1_555 1_555
C15 C16 1_555 1_555
C17 C18 1_555 1_555
O1 C3 1_555 1_555
C1 H1 1_555 1_555
O8 C4 1_555 1_555
O9 C4 1_555 1_555
O4 C3 1_555 1_555
C2 C1 1_555 1_555
C3 C5 1_555 1_555
C4 C2 1_555 1_555
N4 C11 1_555 1_555
C5 C1 1_555 1_555
C6 C7 1_555 1_555
C7 C5 1_555 1_555
H2 C7 1_555 1_555
C8 C2 1_555 1_555
H3 C8 1_555 1_555
O5 N6 1_555 1_555
N6 C6 1_555 1_555
H4 C9 1_555 1_555
N7 C13 1_555 1_555
C10 H5 1_555 1_555
C13 N4 1_555 1_555
H7 C13 1_555 1_555
O6 N6 1_555 1_555
Co3 O1 1_555 1_555
C6 C8 1_555 1_555
N7 C14 1_555 1_555
O1_2 C3_2 1_555 1_555
C1_2 H1_2 1_555 1_555
O3 C4_2 1_555 1_555
O4_2 C3_2 1_555 1_555
O3 Co2 1_555 1_555
N3_2 Co2 1_555 1_555
C15_2 N3_2 1_555 1_555
H8_2 C15_2 1_555 1_555
N8_2 Co2 1_555 1_555
H6_2 C12_2 1_555 1_555
C16_2 N1_2 1_555 1_555
H9_2 C16_2 1_555 1_555
C17_2 N5_2 1_555 1_555
H10_2 C17_2 1_555 1_555
C18_2 N2_2 1_555 1_555
H11_2 C18_2 1_555 1_555
Co3 N2_2 1_555 1_555
C17_2 C18_2 1_555 1_555
O7 C3_3 1_555 1_555
C1_3 H1_3 1_555 1_555
O2 C4_3 1_555 1_555
O3_2 C4_3 1_555 1_555
O4_3 C3_3 1_555 1_555
C2_2 C1_3 1_555 1_555
C3_3 C5_2 1_555 1_555
C4_3 C2_2 1_555 1_555
N4_2 C11_2 1_555 1_555
C5_2 C1_3 1_555 1_555
C6_2 C7_2 1_555 1_555
C7_2 C5_2 1_555 1_555
H2_2 C7_2 1_555 1_555
C8_2 C2_2 1_555 1_555
H3_2 C8_2 1_555 1_555
O5_2 N6_2 1_555 1_555
N6_2 C6_2 1_555 1_555
H4_2 C9_2 1_555 1_555
N7_2 C13_2 1_555 1_555
C10_2 H5_2 1_555 1_555
C13_2 N4_2 1_555 1_555
H7_2 C13_2 1_555 1_555
O6_2 N6_2 1_555 1_555
Co3 O2 1_555 1_555
O3_2 Co3 1_555 1_555
C6_2 C8_2 1_555 1_555
N7_2 C14_2 1_555 1_555
N3_3 Co3 1_555 1_555
H6_3 C12_3 1_555 1_555
C15_3 N3_3 1_555 1_555
H8_3 C15_3 1_555 1_555
C16_3 N1_3 1_555 1_555
H9_3 C16_3 1_555 1_555
C17_3 N5_3 1_555 1_555
H10_3 C17_3 1_555 1_555
C18_3 N8_2 1_555 1_555
H11_3 C18_3 1_555 1_555
C15_3 C16_3 1_555 1_555
C17_3 C18_3 1_555 1_555
H6_4 C12_4 1_555 1_555
C16_4 N1_4 1_555 1_555
H9_4 C16_4 1_555 1_555
C17_4 N5_4 1_555 1_555
H10_4 C17_4 1_555 1_555
C18_4 N8 1_555 1_555
H11_4 C18_4 1_555 1_555
C17_4 C18_4 1_555 1_555
N3_4 Co4 1_555 1_555
C15_4 N3_4 1_555 1_555
H8_4 C15_4 1_555 1_555
O9_2 Co4 1_555 1_555
O7_2 C3_4 1_555 1_555
C1_4 H1_4 1_555 1_555
O9_2 C4_4 1_555 1_555
O4_4 C3_4 1_555 1_555
O2_2 C4_5 1_555 1_555
O3_3 C4_5 1_555 1_555
C4_5 C2_3 1_555 1_555
C8_3 C2_3 1_555 1_555
H3_3 C8_3 1_555 1_555
Co2_2 O2_2 1_555 1_555
O3_3 Co2_2 1_555 1_555
N1_5 C9_3 1_555 1_555
N2_3 C10_3 1_555 1_555
N4_3 C11_3 1_555 1_555
N5_5 C10_3 1_555 1_555
H4_3 C9_3 1_555 1_555
N7_3 C13_3 1_555 1_555
C10_3 H5_3 1_555 1_555
C11_3 N1_5 1_555 1_555
C12_5 C11_3 1_555 1_555
H6_5 C12_5 1_555 1_555
C13_3 N4_3 1_555 1_555
H7_3 C13_3 1_555 1_555
C14_3 N5_5 1_555 1_555
C16_5 N1_5 1_555 1_555
H9_5 C16_5 1_555 1_555
C17_5 N5_5 1_555 1_555
H10_5 C17_5 1_555 1_555
C18_5 N2_3 1_555 1_555
H11_5 C18_5 1_555 1_555
Co4_2 N2_3 1_555 1_555
N7_3 C14_3 1_555 1_555
C12_5 C14_3 1_555 1_555
C17_5 C18_5 1_555 1_555
Co3_2 O7_3 1_555 1_555
Co2_2 O1_3 1_555 1_555
O1_3 C3_5 1_555 1_555
C1_5 H1_5 1_555 1_555
O4_5 C3_5 1_555 1_555
C3_5 C5_3 1_555 1_555
N3_5 Co2_2 1_555 1_555
C5_3 C1_5 1_555 1_555
C6_3 C7_3 1_555 1_555
C7_3 C5_3 1_555 1_555
H2_3 C7_3 1_555 1_555
O5_3 N6_3 1_555 1_555
N6_3 C6_3 1_555 1_555
C15_5 N3_5 1_555 1_555
H8_5 C15_5 1_555 1_555
N8_3 Co2_2 1_555 1_555
Co1_2 O1_4 1_555 1_555
O1_4 C3_6 1_555 1_555
C1_6 H1_6 1_555 1_555
N1_6 C9_4 1_555 1_555
O4_6 C3_6 1_555 1_555
N2_4 C10_4 1_555 1_555
N3_6 Co1_2 1_555 1_555
N4_4 C11_4 1_555 1_555
N5_6 C10_4 1_555 1_555
C9_4 N3_6 1_555 1_555
H4_4 C9_4 1_555 1_555
N7_4 C13_4 1_555 1_555
C10_4 H5_4 1_555 1_555
C11_4 N1_6 1_555 1_555
C12_6 C11_4 1_555 1_555
H6_6 C12_6 1_555 1_555
C13_4 N4_4 1_555 1_555
H7_4 C13_4 1_555 1_555
C14_4 N5_6 1_555 1_555
C15_6 N3_6 1_555 1_555
H8_6 C15_6 1_555 1_555
C16_6 N1_6 1_555 1_555
H9_6 C16_6 1_555 1_555
C17_6 N5_6 1_555 1_555
H10_6 C17_6 1_555 1_555
C18_6 N2_4 1_555 1_555
H11_6 C18_6 1_555 1_555
Co3_2 N2_4 1_555 1_555
O9_3 Co1_2 1_555 1_555
N8_4 Co1_2 1_555 1_555
N7_4 C14_4 1_555 1_555
C12_6 C14_4 1_555 1_555
C15_6 C16_6 1_555 1_555
C17_6 C18_6 1_555 1_555
C6_4 C7_4 1_555 1_555
C7_4 C5_4 1_555 1_555
H2_4 C7_4 1_555 1_555
O5_4 N6_4 1_555 1_555
N6_4 C6_4 1_555 1_555
Co4_2 O7_4 1_555 1_555
O9_3 C4_6 1_555 1_555
C8_4 C2_4 1_555 1_555
H3_4 C8_4 1_555 1_555
O7_3 C3_7 1_555 1_555
C1_7 H1_7 1_555 1_555
O4_7 C3_7 1_555 1_555
C3_7 C5_5 1_555 1_555
N3_7 Co3_2 1_555 1_555
C5_5 C1_7 1_555 1_555
C6_5 C7_5 1_555 1_555
C7_5 C5_5 1_555 1_555
H2_5 C7_5 1_555 1_555
O5_5 N6_5 1_555 1_555
N6_5 C6_5 1_555 1_555
C15_7 N3_7 1_555 1_555
H8_7 C15_7 1_555 1_555
O8_3 Co3_2 1_555 1_555
O9_4 Co3_2 1_555 1_555
N1_7 C9_5 1_555 1_555
N8_4 C10_5 1_555 1_555
N4_5 C11_5 1_555 1_555
N5_7 C10_5 1_555 1_555
H4_5 C9_5 1_555 1_555
N7_5 C13_5 1_555 1_555
C10_5 H5_5 1_555 1_555
C11_5 N1_7 1_555 1_555
C12_7 C11_5 1_555 1_555
H6_7 C12_7 1_555 1_555
C13_5 N4_5 1_555 1_555
H7_5 C13_5 1_555 1_555
C14_5 N5_7 1_555 1_555
C16_7 N1_7 1_555 1_555
H9_7 C16_7 1_555 1_555
C17_7 N5_7 1_555 1_555
H10_7 C17_7 1_555 1_555
C18_7 N8_4 1_555 1_555
H11_7 C18_7 1_555 1_555
N7_5 C14_5 1_555 1_555
C12_7 C14_5 1_555 1_555
C17_7 C18_7 1_555 1_555
O8_3 C4_7 1_555 1_555
O9_4 C4_7 1_555 1_555
C4_7 C2_5 1_555 1_555
C8_5 C2_5 1_555 1_555
H3_5 C8_5 1_555 1_555
C8_6 C2_6 1_555 1_555
H3_6 C8_6 1_555 1_555
O3_4 C4_8 1_555 1_555
O3_4 Co4_2 1_555 1_555
C6_6 C7_6 1_555 1_555
C7_6 C5_6 1_555 1_555
H2_6 C7_6 1_555 1_555
O5_6 N6_6 1_555 1_555
N6_6 C6_6 1_555 1_555
O7_4 C3_8 1_555 1_555
C1_8 H1_8 1_555 1_555
N1_8 C9_6 1_555 1_555
O4_8 C3_8 1_555 1_555
N8_3 C10_6 1_555 1_555
N3_8 Co4_2 1_555 1_555
N4_6 C11_6 1_555 1_555
N5_8 C10_6 1_555 1_555
C9_6 N3_8 1_555 1_555
H4_6 C9_6 1_555 1_555
N7_6 C13_6 1_555 1_555
C10_6 H5_6 1_555 1_555
C11_6 N1_8 1_555 1_555
C12_8 C11_6 1_555 1_555
H6_8 C12_8 1_555 1_555
C13_6 N4_6 1_555 1_555
H7_6 C13_6 1_555 1_555
C14_6 N5_8 1_555 1_555
C15_8 N3_8 1_555 1_555
H8_8 C15_8 1_555 1_555
C16_8 N1_8 1_555 1_555
H9_8 C16_8 1_555 1_555
C17_8 N5_8 1_555 1_555
H10_8 C17_8 1_555 1_555
C18_8 N8_3 1_555 1_555
H11_8 C18_8 1_555 1_555
N7_6 C14_6 1_555 1_555
C12_8 C14_6 1_555 1_555
C15_8 C16_8 1_555 1_555
C17_8 C18_8 1_555 1_555
C6_7 C7_7 1_555 1_555
C7_7 C5_7 1_555 1_555
H2_7 C7_7 1_555 1_555
C8_7 C2_7 1_555 1_555
H3_7 C8_7 1_555 1_555
O5_7 N6_7 1_555 1_555
N6_7 C6_7 1_555 1_555
O6_7 N6_7 1_555 1_555
C6_7 C8_7 1_555 1_555
N4_7 C11_7 1_555 1_555
H4_7 C9_7 1_555 1_555
N7_7 C13_7 1_555 1_555
C10_7 H5_7 1_555 1_555
C13_7 N4_7 1_555 1_555
H7_7 C13_7 1_555 1_555
N7_7 C14_7 1_555 1_555
C6_8 C7_8 1_555 1_555
C7_8 C5_8 1_555 1_555
H2_8 C7_8 1_555 1_555
C8_8 C2_8 1_555 1_555
H3_8 C8_8 1_555 1_555
O5_8 N6_8 1_555 1_555
N6_8 C6_8 1_555 1_555
O6_8 N6_8 1_555 1_555
C6_8 C8_8 1_555 1_555
N4_8 C11_8 1_555 1_555
H4_8 C9_8 1_555 1_555
N7_8 C13_8 1_555 1_555
C10_8 H5_8 1_555 1_555
C13_8 N4_8 1_555 1_555
H7_8 C13_8 1_555 1_555
N7_8 C14_8 1_555 1_555

#END
