
###############################################################################
#
# This file contains modified crystal structure data generated from the
# MOF subset of the Cambridge Structural Database (CSD) v543 
# hosted by the Cambridge Crystallographic Data Centre (CCDC).
#
# This work is licensed under the Creative Commons
# Attribution-NonCommercial-ShareAlike 4.0 International License.
# To view a copy of this license, visit
# http://creativecommons.org/licenses/by-nc-sa/4.0/
# or send a letter to
# Creative Commons, PO Box 1866, Mountain View, CA 94042, USA.
#
# CIF created using the CSD Python API on 29 September 2022
# The structure has been converted into the P1 space group
# The structure has a 3D framework
# The original CSD entry KEDLAJ09 is in the orthorhombic crystal system
# The framework has been calculated to contain at least 10.0% void space
# The void calculation uses a probe of radius 1.32A, grid spacing 0.4
#
###############################################################################

data_KEDLAJ09
_chemical_formula_moiety         '(C144 H88 Co8 N56 O48)n'
_symmetry_cell_setting           triclinic
_symmetry_space_group_name_H-M   'P 1'
_symmetry_Int_Tables_number      1
_space_group_name_Hall           'P 1'
loop_
_symmetry_equiv_pos_site_id
_symmetry_equiv_pos_as_xyz
1 x,y,z
_cell_length_a                   10.093(2)
_cell_length_b                   19.313(4)
_cell_length_c                   20.787(4)
_cell_angle_alpha                90
_cell_angle_beta                 90
_cell_angle_gamma                90
_cell_volume                     4051.93
loop_
_atom_site_label
_atom_site_type_symbol
_atom_site_fract_x
_atom_site_fract_y
_atom_site_fract_z
Co1 Co 0.07813(5) 0.44767(2) 0.43797(2)
N1 N 0.0187(3) 0.27731(15) 0.55929(15)
N2 N 0.0721(3) 0.07855(16) 0.84017(15)
N3 N 0.0654(3) 0.35564(16) 0.48634(14)
N5 N 0.0274(3) 0.13196(16) 0.74932(15)
C12 C 0.0291(4) 0.19994(19) 0.65112(18)
H6 H 0.1086 0.1805 0.6375
C15 C 0.1511(4) 0.3006(2) 0.4801(2)
H8 H 0.2179 0.2975 0.4494
C16 C 0.1246(4) 0.2520(2) 0.5245(2)
H9 H 0.1685 0.2101 0.5305
C17 C 0.1329(4) 0.0880(2) 0.73666(19)
H10 H 0.1768 0.0822 0.6977
C18 C 0.1582(4) 0.0559(2) 0.79241(19)
H11 H 0.2243 0.0230 0.7983
Co4 Co 0.07813(5) 0.05233(2) 0.93797(2)
O7 O 0.0933(2) 0.50219(13) 0.55243(13)
O8 O 0.2074(2) 0.53146(15) 0.42148(13)
O9 O 0.2985(3) 0.42940(15) 0.43109(14)
N8 N 0.0721(3) 0.42145(16) 0.34017(15)
O1 O 0.9067(2) 0.49781(13) 0.44757(13)
C1 C 0.5547(3) 0.48466(19) 0.42360(16)
H1 H 0.5450 0.4379 0.4332
O4 O 0.7894(3) 0.40394(14) 0.41904(14)
C2 C 0.4425(3) 0.5244(2) 0.41422(17)
C3 C 0.7996(4) 0.4665(2) 0.42930(17)
C4 C 0.3089(3) 0.4935(2) 0.42288(17)
N4 N 0.8491(3) 0.27746(18) 0.63388(17)
C5 C 0.6808(3) 0.51212(19) 0.41922(17)
C6 C 0.5830(4) 0.61994(19) 0.39199(19)
C7 C 0.6952(4) 0.5816(2) 0.40361(17)
H2 H 0.7787 0.6017 0.4011
C8 C 0.4565(4) 0.5940(2) 0.39832(18)
H3 H 0.3828 0.6221 0.3922
O5 O 0.7088(3) 0.71346(19) 0.3600(2)
N6 N 0.5981(4) 0.6922(2) 0.3712(2)
C9 C 0.9878(4) 0.34057(19) 0.53406(18)
H4 H 0.9202 0.3690 0.5491
N7 N 0.8537(3) 0.20621(19) 0.72737(17)
C10 C 0.9955(4) 0.12369(19) 0.81253(18)
H5 H 0.9276 0.1474 0.8333
C11 C 0.9645(4) 0.24983(19) 0.61643(18)
C13 C 0.8007(4) 0.2534(2) 0.6889(2)
H7 H 0.7200 0.2719 0.7021
C14 C 0.9684(4) 0.1805(2) 0.70748(19)
O6 O 0.5002(4) 0.72645(18) 0.3627(3)
Co3 Co 0.92187(5) 0.55233(2) 0.56203(2)
O1_2 O 0.0933(2) 0.99781(13) 0.05243(13)
C1_2 C 0.4453(3) 0.98466(19) 0.07640(16)
H1_2 H 0.4550 0.9379 0.0668
O3 O 0.7015(3) 0.92940(15) 0.06891(14)
O4_2 O 0.2106(3) 0.90394(14) 0.08096(14)
C3_2 C 0.2004(4) 0.9665(2) 0.07070(17)
C4_2 C 0.6911(3) 0.9935(2) 0.07712(17)
Co2 Co 0.92187(5) 0.94767(2) 0.06203(2)
O7_2 O 0.9067(2) 0.00219(13) 0.94757(13)
N3_2 N 0.9346(3) 0.85564(16) 0.01366(14)
C15_2 C 0.8489(4) 0.8006(2) 0.0199(2)
H8_2 H 0.7821 0.7975 0.0506
N8_2 N 0.9279(3) 0.92145(16) 0.15983(15)
N1_2 N 0.9813(3) 0.77731(15) 0.94071(15)
N2_2 N 0.9279(3) 0.57855(16) 0.65983(15)
N5_2 N 0.9726(3) 0.63196(16) 0.75068(15)
C12_2 C 0.9709(4) 0.69994(19) 0.84888(18)
H6_2 H 0.8914 0.6805 0.8625
C16_2 C 0.8754(4) 0.7520(2) 0.9755(2)
H9_2 H 0.8315 0.7101 0.9695
C17_2 C 0.8671(4) 0.5880(2) 0.76334(19)
H10_2 H 0.8232 0.5822 0.8023
C18_2 C 0.8418(4) 0.5559(2) 0.70759(19)
H11_2 H 0.7757 0.5230 0.7017
C1_3 C 0.4453(3) 0.51534(19) 0.57640(16)
H1_3 H 0.4550 0.5621 0.5668
O2 O 0.7926(2) 0.46854(15) 0.57852(13)
O3_2 O 0.7015(3) 0.57060(15) 0.56891(14)
O4_3 O 0.2106(3) 0.59606(14) 0.58096(14)
C2_2 C 0.5575(3) 0.4756(2) 0.58578(17)
C3_3 C 0.2004(4) 0.5335(2) 0.57070(17)
C4_3 C 0.6911(3) 0.5065(2) 0.57712(17)
N4_2 N 0.1509(3) 0.72254(18) 0.36612(17)
C5_2 C 0.3192(3) 0.48788(19) 0.58078(17)
C6_2 C 0.4170(4) 0.38006(19) 0.60801(19)
C7_2 C 0.3048(4) 0.4184(2) 0.59639(17)
H2_2 H 0.2213 0.3983 0.5989
C8_2 C 0.5435(4) 0.4060(2) 0.60168(18)
H3_2 H 0.6172 0.3779 0.6078
O5_2 O 0.2912(3) 0.28654(19) 0.6400(2)
N6_2 N 0.4019(4) 0.3078(2) 0.6288(2)
C9_2 C 0.0122(4) 0.65943(19) 0.46594(18)
H4_2 H 0.0798 0.6310 0.4509
N7_2 N 0.1463(3) 0.79379(19) 0.27263(17)
C10_2 C 0.0045(4) 0.87631(19) 0.18747(18)
H5_2 H 0.0724 0.8526 0.1667
C11_2 C 0.0355(4) 0.75017(19) 0.38357(18)
C13_2 C 0.1993(4) 0.7466(2) 0.3111(2)
H7_2 H 0.2800 0.7281 0.2979
C14_2 C 0.0316(4) 0.8195(2) 0.29252(19)
O6_2 O 0.4998(4) 0.27355(18) 0.6373(3)
N1_3 N 0.9813(3) 0.72269(15) 0.44071(15)
N3_3 N 0.9346(3) 0.64436(16) 0.51366(14)
N5_3 N 0.9726(3) 0.86804(16) 0.25068(15)
C12_3 C 0.9709(4) 0.80006(19) 0.34888(18)
H6_3 H 0.8914 0.8195 0.3625
C15_3 C 0.8489(4) 0.6994(2) 0.5199(2)
H8_3 H 0.7821 0.7025 0.5506
C16_3 C 0.8754(4) 0.7480(2) 0.4755(2)
H9_3 H 0.8315 0.7899 0.4695
C17_3 C 0.8671(4) 0.9120(2) 0.26334(19)
H10_3 H 0.8232 0.9178 0.3023
C18_3 C 0.8418(4) 0.9441(2) 0.20759(19)
H11_3 H 0.7757 0.9770 0.2017
N1_4 N 0.0187(3) 0.22269(15) 0.05929(15)
N5_4 N 0.0274(3) 0.36804(16) 0.24932(15)
C12_4 C 0.0291(4) 0.30006(19) 0.15112(18)
H6_4 H 0.1086 0.3195 0.1375
C16_4 C 0.1246(4) 0.2480(2) 0.0245(2)
H9_4 H 0.1685 0.2899 0.0305
C17_4 C 0.1329(4) 0.4120(2) 0.23666(19)
H10_4 H 0.1768 0.4178 0.1977
C18_4 C 0.1582(4) 0.4441(2) 0.29241(19)
H11_4 H 0.2243 0.4770 0.2983
N3_4 N 0.0654(3) 0.14436(16) 0.98634(14)
C15_4 C 0.1511(4) 0.1994(2) 0.9801(2)
H8_4 H 0.2179 0.2025 0.9494
O9_2 O 0.2985(3) 0.07060(15) 0.93109(14)
C1_4 C 0.5547(3) 0.01534(19) 0.92360(16)
H1_4 H 0.5450 0.0621 0.9332
O4_4 O 0.7894(3) 0.09606(14) 0.91904(14)
C3_4 C 0.7996(4) 0.0335(2) 0.92930(17)
C4_4 C 0.3089(3) 0.0065(2) 0.92288(17)
O2_2 O 0.2926(2) 0.46854(15) 0.92148(13)
O3_3 O 0.2015(3) 0.57060(15) 0.93109(14)
C2_3 C 0.0575(3) 0.4756(2) 0.91422(17)
C4_5 C 0.1911(3) 0.5065(2) 0.92288(17)
C8_3 C 0.0435(4) 0.4060(2) 0.89832(18)
H3_3 H 0.1172 0.3779 0.8922
Co2_2 Co 0.42187(5) 0.55233(2) 0.93797(2)
N1_5 N 0.4813(3) 0.72269(15) 0.05929(15)
N2_3 N 0.4279(3) 0.92145(16) 0.34017(15)
N4_3 N 0.6509(3) 0.72254(18) 0.13388(17)
N5_5 N 0.4726(3) 0.86804(16) 0.24932(15)
C9_3 C 0.5122(4) 0.65943(19) 0.03406(18)
H4_3 H 0.5798 0.6310 0.0491
N7_3 N 0.6463(3) 0.79379(19) 0.22737(17)
C10_3 C 0.5045(4) 0.87631(19) 0.31253(18)
H5_3 H 0.5724 0.8526 0.3333
C11_3 C 0.5355(4) 0.75017(19) 0.11643(18)
C12_5 C 0.4709(4) 0.80006(19) 0.15112(18)
H6_5 H 0.3914 0.8195 0.1375
C13_3 C 0.6993(4) 0.7466(2) 0.1889(2)
H7_3 H 0.7800 0.7281 0.2021
C14_3 C 0.5316(4) 0.8195(2) 0.20748(19)
C16_5 C 0.3754(4) 0.7480(2) 0.0245(2)
H9_5 H 0.3315 0.7899 0.0305
C17_5 C 0.3671(4) 0.9120(2) 0.23666(19)
H10_5 H 0.3232 0.9178 0.1977
C18_5 C 0.3418(4) 0.9441(2) 0.29241(19)
H11_5 H 0.2757 0.9770 0.2983
Co3_2 Co 0.57813(5) 0.44767(2) 0.06203(2)
Co4_2 Co 0.42187(5) 0.94767(2) 0.43797(2)
O7_3 O 0.4067(2) 0.49781(13) 0.05243(13)
O1_3 O 0.5933(2) 0.50219(13) 0.94757(13)
C1_5 C 0.9453(3) 0.51534(19) 0.92360(16)
H1_5 H 0.9550 0.5621 0.9332
O4_5 O 0.7106(3) 0.59606(14) 0.91904(14)
C3_5 C 0.7004(4) 0.5335(2) 0.92930(17)
N3_5 N 0.4346(3) 0.64436(16) 0.98634(14)
C5_3 C 0.8192(3) 0.48788(19) 0.91922(17)
C6_3 C 0.9170(4) 0.38006(19) 0.89199(19)
C7_3 C 0.8048(4) 0.4184(2) 0.90361(17)
H2_3 H 0.7213 0.3983 0.9011
O5_3 O 0.7912(3) 0.28654(19) 0.8600(2)
N6_3 N 0.9019(4) 0.3078(2) 0.8712(2)
C15_5 C 0.3489(4) 0.6994(2) 0.9801(2)
H8_5 H 0.2821 0.7025 0.9494
O6_3 O 0.9998(4) 0.27355(18) 0.8627(3)
N8_3 N 0.4279(3) 0.57855(16) 0.84017(15)
Co1_2 Co 0.57813(5) 0.05233(2) 0.56203(2)
O1_4 O 0.4067(2) 0.00219(13) 0.55243(13)
C1_6 C 0.0547(3) 0.01534(19) 0.57640(16)
H1_6 H 0.0450 0.0621 0.5668
N1_6 N 0.5187(3) 0.22269(15) 0.44071(15)
O4_6 O 0.2894(3) 0.09606(14) 0.58096(14)
N2_4 N 0.5721(3) 0.42145(16) 0.15983(15)
C3_6 C 0.2996(4) 0.0335(2) 0.57070(17)
N3_6 N 0.5654(3) 0.14436(16) 0.51366(14)
N4_4 N 0.3491(3) 0.22254(18) 0.36612(17)
N5_6 N 0.5274(3) 0.36804(16) 0.25068(15)
C9_4 C 0.4878(4) 0.15943(19) 0.46594(18)
H4_4 H 0.4202 0.1310 0.4509
N7_4 N 0.3537(3) 0.29379(19) 0.27263(17)
C10_4 C 0.4955(4) 0.37631(19) 0.18747(18)
H5_4 H 0.4276 0.3526 0.1667
C11_4 C 0.4645(4) 0.25017(19) 0.38357(18)
C12_6 C 0.5291(4) 0.30006(19) 0.34888(18)
H6_6 H 0.6086 0.3195 0.3625
C13_4 C 0.3007(4) 0.2466(2) 0.3111(2)
H7_4 H 0.2200 0.2281 0.2979
C14_4 C 0.4684(4) 0.3195(2) 0.29252(19)
C15_6 C 0.6511(4) 0.1994(2) 0.5199(2)
H8_6 H 0.7179 0.2025 0.5506
C16_6 C 0.6246(4) 0.2480(2) 0.4755(2)
H9_6 H 0.6685 0.2899 0.4695
C17_6 C 0.6329(4) 0.4120(2) 0.26334(19)
H10_6 H 0.6768 0.4178 0.3023
C18_6 C 0.6582(4) 0.4441(2) 0.20759(19)
H11_6 H 0.7243 0.4770 0.2017
O9_3 O 0.7985(3) 0.07060(15) 0.56891(14)
N8_4 N 0.5721(3) 0.07855(16) 0.65983(15)
C5_4 C 0.1808(3) 0.98788(19) 0.58078(17)
C6_4 C 0.0830(4) 0.88006(19) 0.60801(19)
C7_4 C 0.1952(4) 0.9184(2) 0.59639(17)
H2_4 H 0.2787 0.8983 0.5989
O5_4 O 0.2088(3) 0.78654(19) 0.6400(2)
N6_4 N 0.0981(4) 0.8078(2) 0.6288(2)
O6_4 O 0.0002(4) 0.77355(18) 0.6373(3)
O7_4 O 0.5933(2) 0.99781(13) 0.44757(13)
O8_2 O 0.7074(2) 0.96854(15) 0.57852(13)
C4_6 C 0.8089(3) 0.0065(2) 0.57712(17)
C2_4 C 0.9425(3) 0.9756(2) 0.58578(17)
C8_4 C 0.9565(4) 0.9060(2) 0.60168(18)
H3_4 H 0.8828 0.8779 0.6078
C1_7 C 0.0547(3) 0.48466(19) 0.07640(16)
H1_7 H 0.0450 0.4379 0.0668
O4_7 O 0.2894(3) 0.40394(14) 0.08096(14)
C3_7 C 0.2996(4) 0.4665(2) 0.07070(17)
N3_7 N 0.5654(3) 0.35564(16) 0.01366(14)
C5_5 C 0.1808(3) 0.51212(19) 0.08078(17)
C6_5 C 0.0830(4) 0.61994(19) 0.10801(19)
C7_5 C 0.1952(4) 0.5816(2) 0.09639(17)
H2_5 H 0.2787 0.6017 0.0989
O5_5 O 0.2088(3) 0.71346(19) 0.1400(2)
N6_5 N 0.0981(4) 0.6922(2) 0.1288(2)
C15_7 C 0.6511(4) 0.3006(2) 0.0199(2)
H8_7 H 0.7179 0.2975 0.0506
O6_5 O 0.0002(4) 0.72645(18) 0.1373(3)
O8_3 O 0.7074(2) 0.53146(15) 0.07852(13)
O9_4 O 0.7985(3) 0.42940(15) 0.06891(14)
N1_7 N 0.5187(3) 0.27731(15) 0.94071(15)
N4_5 N 0.3491(3) 0.27746(18) 0.86612(17)
N5_7 N 0.5274(3) 0.13196(16) 0.75068(15)
C9_5 C 0.4878(4) 0.34057(19) 0.96594(18)
H4_5 H 0.4202 0.3690 0.9509
N7_5 N 0.3537(3) 0.20621(19) 0.77263(17)
C10_5 C 0.4955(4) 0.12369(19) 0.68747(18)
H5_5 H 0.4276 0.1474 0.6667
C11_5 C 0.4645(4) 0.24983(19) 0.88357(18)
C12_7 C 0.5291(4) 0.19994(19) 0.84888(18)
H6_7 H 0.6086 0.1805 0.8625
C13_5 C 0.3007(4) 0.2534(2) 0.8111(2)
H7_5 H 0.2200 0.2719 0.7979
C14_5 C 0.4684(4) 0.1805(2) 0.79252(19)
C16_7 C 0.6246(4) 0.2520(2) 0.9755(2)
H9_7 H 0.6685 0.2101 0.9695
C17_7 C 0.6329(4) 0.0880(2) 0.76334(19)
H10_7 H 0.6768 0.0822 0.8023
C18_7 C 0.6582(4) 0.0559(2) 0.70759(19)
H11_7 H 0.7243 0.0230 0.7017
C2_5 C 0.9425(3) 0.5244(2) 0.08578(17)
C4_7 C 0.8089(3) 0.4935(2) 0.07712(17)
C8_5 C 0.9565(4) 0.5940(2) 0.10168(18)
H3_5 H 0.8828 0.6221 0.1078
O2_3 O 0.2926(2) 0.03146(15) 0.42148(13)
C2_6 C 0.0575(3) 0.0244(2) 0.41422(17)
C8_6 C 0.0435(4) 0.0940(2) 0.39832(18)
H3_6 H 0.1172 0.1221 0.3922
O3_4 O 0.2015(3) 0.92940(15) 0.43109(14)
C4_8 C 0.1911(3) 0.9935(2) 0.42288(17)
C5_6 C 0.8192(3) 0.01212(19) 0.41922(17)
C6_6 C 0.9170(4) 0.11994(19) 0.39199(19)
C7_6 C 0.8048(4) 0.0816(2) 0.40361(17)
H2_6 H 0.7213 0.1017 0.4011
O5_6 O 0.7912(3) 0.21346(19) 0.3600(2)
N6_6 N 0.9019(4) 0.1922(2) 0.3712(2)
O6_6 O 0.9998(4) 0.22645(18) 0.3627(3)
C1_8 C 0.9453(3) 0.98466(19) 0.42360(16)
H1_8 H 0.9550 0.9379 0.4332
N1_8 N 0.4813(3) 0.77731(15) 0.55929(15)
O4_8 O 0.7106(3) 0.90394(14) 0.41904(14)
C3_8 C 0.7004(4) 0.9665(2) 0.42930(17)
N3_8 N 0.4346(3) 0.85564(16) 0.48634(14)
N4_6 N 0.6509(3) 0.77746(18) 0.63388(17)
N5_8 N 0.4726(3) 0.63196(16) 0.74932(15)
C9_6 C 0.5122(4) 0.84057(19) 0.53406(18)
H4_6 H 0.5798 0.8690 0.5491
N7_6 N 0.6463(3) 0.70621(19) 0.72737(17)
C10_6 C 0.5045(4) 0.62369(19) 0.81253(18)
H5_6 H 0.5724 0.6474 0.8333
C11_6 C 0.5355(4) 0.74983(19) 0.61643(18)
C12_8 C 0.4709(4) 0.69994(19) 0.65112(18)
H6_8 H 0.3914 0.6805 0.6375
C13_6 C 0.6993(4) 0.7534(2) 0.6889(2)
H7_6 H 0.7800 0.7719 0.7021
C14_6 C 0.5316(4) 0.6805(2) 0.70748(19)
C15_8 C 0.3489(4) 0.8006(2) 0.4801(2)
H8_8 H 0.2821 0.7975 0.4494
C16_8 C 0.3754(4) 0.7520(2) 0.5245(2)
H9_8 H 0.3315 0.7101 0.5305
C17_8 C 0.3671(4) 0.5880(2) 0.73666(19)
H10_8 H 0.3232 0.5822 0.6977
C18_8 C 0.3418(4) 0.5559(2) 0.79241(19)
H11_8 H 0.2757 0.5230 0.7983
O2_4 O 0.7926(2) 0.03146(15) 0.07852(13)
C2_7 C 0.5575(3) 0.0244(2) 0.08578(17)
C5_7 C 0.3192(3) 0.01212(19) 0.08078(17)
C6_7 C 0.4170(4) 0.11994(19) 0.10801(19)
C7_7 C 0.3048(4) 0.0816(2) 0.09639(17)
H2_7 H 0.2213 0.1017 0.0989
C8_7 C 0.5435(4) 0.0940(2) 0.10168(18)
H3_7 H 0.6172 0.1221 0.1078
O5_7 O 0.2912(3) 0.21346(19) 0.1400(2)
N6_7 N 0.4019(4) 0.1922(2) 0.1288(2)
O6_7 O 0.4998(4) 0.22645(18) 0.1373(3)
N4_7 N 0.1509(3) 0.77746(18) 0.86612(17)
C9_7 C 0.0122(4) 0.84057(19) 0.96594(18)
H4_7 H 0.0798 0.8690 0.9509
N7_7 N 0.1463(3) 0.70621(19) 0.77263(17)
C10_7 C 0.0045(4) 0.62369(19) 0.68747(18)
H5_7 H 0.0724 0.6474 0.6667
C11_7 C 0.0355(4) 0.74983(19) 0.88357(18)
C13_7 C 0.1993(4) 0.7534(2) 0.8111(2)
H7_7 H 0.2800 0.7719 0.7979
C14_7 C 0.0316(4) 0.6805(2) 0.79252(19)
O8_4 O 0.2074(2) 0.96854(15) 0.92148(13)
C2_8 C 0.4425(3) 0.9756(2) 0.91422(17)
C5_8 C 0.6808(3) 0.98788(19) 0.91922(17)
C6_8 C 0.5830(4) 0.88006(19) 0.89199(19)
C7_8 C 0.6952(4) 0.9184(2) 0.90361(17)
H2_8 H 0.7787 0.8983 0.9011
C8_8 C 0.4565(4) 0.9060(2) 0.89832(18)
H3_8 H 0.3828 0.8779 0.8922
O5_8 O 0.7088(3) 0.78654(19) 0.8600(2)
N6_8 N 0.5981(4) 0.8078(2) 0.8712(2)
O6_8 O 0.5002(4) 0.77355(18) 0.8627(3)
N4_8 N 0.8491(3) 0.22254(18) 0.13388(17)
C9_8 C 0.9878(4) 0.15943(19) 0.03406(18)
H4_8 H 0.9202 0.1310 0.0491
N7_8 N 0.8537(3) 0.29379(19) 0.22737(17)
C10_8 C 0.9955(4) 0.37631(19) 0.31253(18)
H5_8 H 0.9276 0.3526 0.3333
C11_8 C 0.9645(4) 0.25017(19) 0.11643(18)
C13_8 C 0.8007(4) 0.2466(2) 0.1889(2)
H7_8 H 0.7200 0.2281 0.2021
C14_8 C 0.9684(4) 0.3195(2) 0.20748(19)
loop_
_geom_bond_atom_site_label_1
_geom_bond_atom_site_label_2
_geom_bond_site_symmetry_1
_geom_bond_site_symmetry_2
N3 Co1 1_555 1_555
H6 C12 1_555 1_555
C15 N3 1_555 1_555
H8 C15 1_555 1_555
C16 N1 1_555 1_555
H9 C16 1_555 1_555
C17 N5 1_555 1_555
H10 C17 1_555 1_555
C18 N2 1_555 1_555
H11 C18 1_555 1_555
Co4 N2 1_555 1_555
O7 Co1 1_555 1_555
O8 Co1 1_555 1_555
O9 Co1 1_555 1_555
N8 Co1 1_555 1_555
C15 C16 1_555 1_555
C17 C18 1_555 1_555
O1 C3 1_555 1_555
C1 H1 1_555 1_555
O8 C4 1_555 1_555
O9 C4 1_555 1_555
O4 C3 1_555 1_555
C2 C1 1_555 1_555
C3 C5 1_555 1_555
C4 C2 1_555 1_555
N4 C11 1_555 1_555
C5 C1 1_555 1_555
C6 C7 1_555 1_555
C7 C5 1_555 1_555
H2 C7 1_555 1_555
C8 C2 1_555 1_555
H3 C8 1_555 1_555
O5 N6 1_555 1_555
N6 C6 1_555 1_555
H4 C9 1_555 1_555
N7 C13 1_555 1_555
C10 H5 1_555 1_555
C13 N4 1_555 1_555
H7 C13 1_555 1_555
O6 N6 1_555 1_555
Co3 O1 1_555 1_555
C6 C8 1_555 1_555
N7 C14 1_555 1_555
O1_2 C3_2 1_555 1_555
C1_2 H1_2 1_555 1_555
O3 C4_2 1_555 1_555
O4_2 C3_2 1_555 1_555
O3 Co2 1_555 1_555
N3_2 Co2 1_555 1_555
C15_2 N3_2 1_555 1_555
H8_2 C15_2 1_555 1_555
N8_2 Co2 1_555 1_555
H6_2 C12_2 1_555 1_555
C16_2 N1_2 1_555 1_555
H9_2 C16_2 1_555 1_555
C17_2 N5_2 1_555 1_555
H10_2 C17_2 1_555 1_555
C18_2 N2_2 1_555 1_555
H11_2 C18_2 1_555 1_555
Co3 N2_2 1_555 1_555
C17_2 C18_2 1_555 1_555
O7 C3_3 1_555 1_555
C1_3 H1_3 1_555 1_555
O2 C4_3 1_555 1_555
O3_2 C4_3 1_555 1_555
O4_3 C3_3 1_555 1_555
C2_2 C1_3 1_555 1_555
C3_3 C5_2 1_555 1_555
C4_3 C2_2 1_555 1_555
N4_2 C11_2 1_555 1_555
C5_2 C1_3 1_555 1_555
C6_2 C7_2 1_555 1_555
C7_2 C5_2 1_555 1_555
H2_2 C7_2 1_555 1_555
C8_2 C2_2 1_555 1_555
H3_2 C8_2 1_555 1_555
O5_2 N6_2 1_555 1_555
N6_2 C6_2 1_555 1_555
H4_2 C9_2 1_555 1_555
N7_2 C13_2 1_555 1_555
C10_2 H5_2 1_555 1_555
C13_2 N4_2 1_555 1_555
H7_2 C13_2 1_555 1_555
O6_2 N6_2 1_555 1_555
Co3 O2 1_555 1_555
O3_2 Co3 1_555 1_555
C6_2 C8_2 1_555 1_555
N7_2 C14_2 1_555 1_555
N3_3 Co3 1_555 1_555
H6_3 C12_3 1_555 1_555
C15_3 N3_3 1_555 1_555
H8_3 C15_3 1_555 1_555
C16_3 N1_3 1_555 1_555
H9_3 C16_3 1_555 1_555
C17_3 N5_3 1_555 1_555
H10_3 C17_3 1_555 1_555
C18_3 N8_2 1_555 1_555
H11_3 C18_3 1_555 1_555
C15_3 C16_3 1_555 1_555
C17_3 C18_3 1_555 1_555
H6_4 C12_4 1_555 1_555
C16_4 N1_4 1_555 1_555
H9_4 C16_4 1_555 1_555
C17_4 N5_4 1_555 1_555
H10_4 C17_4 1_555 1_555
C18_4 N8 1_555 1_555
H11_4 C18_4 1_555 1_555
C17_4 C18_4 1_555 1_555
N3_4 Co4 1_555 1_555
C15_4 N3_4 1_555 1_555
H8_4 C15_4 1_555 1_555
O9_2 Co4 1_555 1_555
O7_2 C3_4 1_555 1_555
C1_4 H1_4 1_555 1_555
O9_2 C4_4 1_555 1_555
O4_4 C3_4 1_555 1_555
O2_2 C4_5 1_555 1_555
O3_3 C4_5 1_555 1_555
C4_5 C2_3 1_555 1_555
C8_3 C2_3 1_555 1_555
H3_3 C8_3 1_555 1_555
Co2_2 O2_2 1_555 1_555
O3_3 Co2_2 1_555 1_555
N1_5 C9_3 1_555 1_555
N2_3 C10_3 1_555 1_555
N4_3 C11_3 1_555 1_555
N5_5 C10_3 1_555 1_555
H4_3 C9_3 1_555 1_555
N7_3 C13_3 1_555 1_555
C10_3 H5_3 1_555 1_555
C11_3 N1_5 1_555 1_555
C12_5 C11_3 1_555 1_555
H6_5 C12_5 1_555 1_555
C13_3 N4_3 1_555 1_555
H7_3 C13_3 1_555 1_555
C14_3 N5_5 1_555 1_555
C16_5 N1_5 1_555 1_555
H9_5 C16_5 1_555 1_555
C17_5 N5_5 1_555 1_555
H10_5 C17_5 1_555 1_555
C18_5 N2_3 1_555 1_555
H11_5 C18_5 1_555 1_555
Co4_2 N2_3 1_555 1_555
N7_3 C14_3 1_555 1_555
C12_5 C14_3 1_555 1_555
C17_5 C18_5 1_555 1_555
Co3_2 O7_3 1_555 1_555
Co2_2 O1_3 1_555 1_555
O1_3 C3_5 1_555 1_555
C1_5 H1_5 1_555 1_555
O4_5 C3_5 1_555 1_555
C3_5 C5_3 1_555 1_555
N3_5 Co2_2 1_555 1_555
C5_3 C1_5 1_555 1_555
C6_3 C7_3 1_555 1_555
C7_3 C5_3 1_555 1_555
H2_3 C7_3 1_555 1_555
O5_3 N6_3 1_555 1_555
N6_3 C6_3 1_555 1_555
C15_5 N3_5 1_555 1_555
H8_5 C15_5 1_555 1_555
O6_3 N6_3 1_555 1_555
N8_3 Co2_2 1_555 1_555
Co1_2 O1_4 1_555 1_555
O1_4 C3_6 1_555 1_555
C1_6 H1_6 1_555 1_555
N1_6 C9_4 1_555 1_555
O4_6 C3_6 1_555 1_555
N2_4 C10_4 1_555 1_555
N3_6 Co1_2 1_555 1_555
N4_4 C11_4 1_555 1_555
N5_6 C10_4 1_555 1_555
C9_4 N3_6 1_555 1_555
H4_4 C9_4 1_555 1_555
N7_4 C13_4 1_555 1_555
C10_4 H5_4 1_555 1_555
C11_4 N1_6 1_555 1_555
C12_6 C11_4 1_555 1_555
H6_6 C12_6 1_555 1_555
C13_4 N4_4 1_555 1_555
H7_4 C13_4 1_555 1_555
C14_4 N5_6 1_555 1_555
C15_6 N3_6 1_555 1_555
H8_6 C15_6 1_555 1_555
C16_6 N1_6 1_555 1_555
H9_6 C16_6 1_555 1_555
C17_6 N5_6 1_555 1_555
H10_6 C17_6 1_555 1_555
C18_6 N2_4 1_555 1_555
H11_6 C18_6 1_555 1_555
Co3_2 N2_4 1_555 1_555
O9_3 Co1_2 1_555 1_555
N8_4 Co1_2 1_555 1_555
N7_4 C14_4 1_555 1_555
C12_6 C14_4 1_555 1_555
C15_6 C16_6 1_555 1_555
C17_6 C18_6 1_555 1_555
C6_4 C7_4 1_555 1_555
C7_4 C5_4 1_555 1_555
H2_4 C7_4 1_555 1_555
O5_4 N6_4 1_555 1_555
N6_4 C6_4 1_555 1_555
O6_4 N6_4 1_555 1_555
Co4_2 O7_4 1_555 1_555
O9_3 C4_6 1_555 1_555
C8_4 C2_4 1_555 1_555
H3_4 C8_4 1_555 1_555
O7_3 C3_7 1_555 1_555
C1_7 H1_7 1_555 1_555
O4_7 C3_7 1_555 1_555
C3_7 C5_5 1_555 1_555
N3_7 Co3_2 1_555 1_555
C5_5 C1_7 1_555 1_555
C6_5 C7_5 1_555 1_555
C7_5 C5_5 1_555 1_555
H2_5 C7_5 1_555 1_555
O5_5 N6_5 1_555 1_555
N6_5 C6_5 1_555 1_555
C15_7 N3_7 1_555 1_555
H8_7 C15_7 1_555 1_555
O6_5 N6_5 1_555 1_555
O8_3 Co3_2 1_555 1_555
O9_4 Co3_2 1_555 1_555
N1_7 C9_5 1_555 1_555
N8_4 C10_5 1_555 1_555
N4_5 C11_5 1_555 1_555
N5_7 C10_5 1_555 1_555
H4_5 C9_5 1_555 1_555
N7_5 C13_5 1_555 1_555
C10_5 H5_5 1_555 1_555
C11_5 N1_7 1_555 1_555
C12_7 C11_5 1_555 1_555
H6_7 C12_7 1_555 1_555
C13_5 N4_5 1_555 1_555
H7_5 C13_5 1_555 1_555
C14_5 N5_7 1_555 1_555
C16_7 N1_7 1_555 1_555
H9_7 C16_7 1_555 1_555
C17_7 N5_7 1_555 1_555
H10_7 C17_7 1_555 1_555
C18_7 N8_4 1_555 1_555
H11_7 C18_7 1_555 1_555
N7_5 C14_5 1_555 1_555
C12_7 C14_5 1_555 1_555
C17_7 C18_7 1_555 1_555
O8_3 C4_7 1_555 1_555
O9_4 C4_7 1_555 1_555
C4_7 C2_5 1_555 1_555
C8_5 C2_5 1_555 1_555
H3_5 C8_5 1_555 1_555
C8_6 C2_6 1_555 1_555
H3_6 C8_6 1_555 1_555
O3_4 C4_8 1_555 1_555
O3_4 Co4_2 1_555 1_555
C6_6 C7_6 1_555 1_555
C7_6 C5_6 1_555 1_555
H2_6 C7_6 1_555 1_555
O5_6 N6_6 1_555 1_555
N6_6 C6_6 1_555 1_555
O6_6 N6_6 1_555 1_555
O7_4 C3_8 1_555 1_555
C1_8 H1_8 1_555 1_555
N1_8 C9_6 1_555 1_555
O4_8 C3_8 1_555 1_555
N8_3 C10_6 1_555 1_555
N3_8 Co4_2 1_555 1_555
N4_6 C11_6 1_555 1_555
N5_8 C10_6 1_555 1_555
C9_6 N3_8 1_555 1_555
H4_6 C9_6 1_555 1_555
N7_6 C13_6 1_555 1_555
C10_6 H5_6 1_555 1_555
C11_6 N1_8 1_555 1_555
C12_8 C11_6 1_555 1_555
H6_8 C12_8 1_555 1_555
C13_6 N4_6 1_555 1_555
H7_6 C13_6 1_555 1_555
C14_6 N5_8 1_555 1_555
C15_8 N3_8 1_555 1_555
H8_8 C15_8 1_555 1_555
C16_8 N1_8 1_555 1_555
H9_8 C16_8 1_555 1_555
C17_8 N5_8 1_555 1_555
H10_8 C17_8 1_555 1_555
C18_8 N8_3 1_555 1_555
H11_8 C18_8 1_555 1_555
N7_6 C14_6 1_555 1_555
C12_8 C14_6 1_555 1_555
C15_8 C16_8 1_555 1_555
C17_8 C18_8 1_555 1_555
C6_7 C7_7 1_555 1_555
C7_7 C5_7 1_555 1_555
H2_7 C7_7 1_555 1_555
C8_7 C2_7 1_555 1_555
H3_7 C8_7 1_555 1_555
O5_7 N6_7 1_555 1_555
N6_7 C6_7 1_555 1_555
O6_7 N6_7 1_555 1_555
C6_7 C8_7 1_555 1_555
N4_7 C11_7 1_555 1_555
H4_7 C9_7 1_555 1_555
N7_7 C13_7 1_555 1_555
C10_7 H5_7 1_555 1_555
C13_7 N4_7 1_555 1_555
H7_7 C13_7 1_555 1_555
N7_7 C14_7 1_555 1_555
C6_8 C7_8 1_555 1_555
C7_8 C5_8 1_555 1_555
H2_8 C7_8 1_555 1_555
C8_8 C2_8 1_555 1_555
H3_8 C8_8 1_555 1_555
O5_8 N6_8 1_555 1_555
N6_8 C6_8 1_555 1_555
O6_8 N6_8 1_555 1_555
C6_8 C8_8 1_555 1_555
N4_8 C11_8 1_555 1_555
H4_8 C9_8 1_555 1_555
N7_8 C13_8 1_555 1_555
C10_8 H5_8 1_555 1_555
C13_8 N4_8 1_555 1_555
H7_8 C13_8 1_555 1_555
N7_8 C14_8 1_555 1_555

#END
