
###############################################################################
#
# This file contains modified crystal structure data generated from the
# MOF subset of the Cambridge Structural Database (CSD) v543 
# hosted by the Cambridge Crystallographic Data Centre (CCDC).
#
# This work is licensed under the Creative Commons
# Attribution-NonCommercial-ShareAlike 4.0 International License.
# To view a copy of this license, visit
# http://creativecommons.org/licenses/by-nc-sa/4.0/
# or send a letter to
# Creative Commons, PO Box 1866, Mountain View, CA 94042, USA.
#
# CIF created using the CSD Python API on 29 September 2022
# The structure has been converted into the P1 space group
# The structure has a 3D framework
# The original CSD entry KEDLAJ04 is in the orthorhombic crystal system
# The original CSD entry KEDLAJ04 is in a Sohncke space group
# The framework has been calculated to contain at least 10.0% void space
# The void calculation uses a probe of radius 1.32A, grid spacing 0.4
#
###############################################################################

data_KEDLAJ04
_chemical_formula_moiety         '(C144 H88 Co8 N56 O47)n'
_symmetry_cell_setting           triclinic
_symmetry_space_group_name_H-M   'P 1'
_symmetry_Int_Tables_number      1
_space_group_name_Hall           'P 1'
loop_
_symmetry_equiv_pos_site_id
_symmetry_equiv_pos_as_xyz
1 x,y,z
_cell_length_a                   10.0414(18)
_cell_length_b                   19.702(4)
_cell_length_c                   20.261(4)
_cell_angle_alpha                90
_cell_angle_beta                 90
_cell_angle_gamma                90
_cell_volume                     4008.35
loop_
_atom_site_label
_atom_site_type_symbol
_atom_site_fract_x
_atom_site_fract_y
_atom_site_fract_z
C31 C 0.0541(6) 0.0057(3) 0.5781(3)
H20 H 0.0457 0.0526 0.5680
C36 C 0.2980(6) 0.0219(3) 0.5694(3)
O9 O 0.2888(4) 0.0831(2) 0.5808(2)
Co3 Co 0.57641(8) 0.04212(3) 0.55805(4)
C32 C 0.1794(6) 0.9773(3) 0.5827(3)
C33 C 0.1919(7) 0.9094(3) 0.5992(3)
H21 H 0.2770 0.8885 0.6017
C34 C 0.0770(7) 0.8728(3) 0.6120(3)
O10 O 0.4035(4) 0.99177(18) 0.54715(19)
O11 O 0.1965(5) 0.7739(3) 0.6305(3)
N14 N 0.0884(7) 0.8020(3) 0.6350(3)
Co7 Co 0.41720(9) 0.94466(3) 0.43831(4)
Co2 Co 0.58280(9) 0.44466(3) 0.06169(4)
C19 C 0.6419(7) 0.2946(3) 0.0272(3)
H15 H 0.7047 0.2895 0.0620
C21 C 0.2995(6) 0.4639(3) 0.0719(3)
C22 C 0.1818(6) 0.5104(3) 0.0830(3)
C23 C 0.0527(6) 0.4854(3) 0.0790(3)
H17 H 0.0388 0.4386 0.0699
C26 C 0.0927(7) 0.6191(3) 0.1084(3)
C27 C 0.2007(6) 0.5784(3) 0.0979(3)
H19 H 0.2882 0.5965 0.1006
O1 O 0.4076(4) 0.49247(17) 0.05305(19)
O2 O 0.2838(4) 0.40246(19) 0.0827(2)
O5 O 0.0229(5) 0.7299(2) 0.1206(3)
O6 O 0.2272(5) 0.7062(2) 0.1450(3)
N12 N 0.5623(5) 0.3516(2) 0.0175(2)
N13 N 0.1146(6) 0.6905(3) 0.1261(3)
O14 O 0.7949(4) 0.4372(2) 0.0660(2)
O15 O 0.7063(4) 0.5364(2) 0.0882(2)
N15 N 0.5753(6) 0.4170(2) 0.1618(2)
C1 C 0.4790(6) 0.1548(3) 0.4676(3)
H1 H 0.4045 0.1292 0.4529
C2 C 0.6534(7) 0.1864(3) 0.5201(3)
H2 H 0.7258 0.1861 0.5503
C3 C 0.6250(7) 0.2374(3) 0.4792(3)
H3 H 0.6724 0.2789 0.4746
C4 C 0.4552(6) 0.2489(3) 0.3893(3)
C5 C 0.5234(7) 0.2970(3) 0.3534(3)
H4 H 0.6087 0.3131 0.3663
C6 C 0.4599(7) 0.3203(3) 0.2973(3)
C7 C 0.2823(7) 0.2534(3) 0.3184(3)
H5 H 0.1963 0.2379 0.3059
C8 C 0.6343(7) 0.4045(3) 0.2682(3)
H6 H 0.6793 0.4084 0.3093
C9 C 0.6671(7) 0.4350(3) 0.2109(3)
H7 H 0.7411 0.4644 0.2048
C10 C 0.4909(6) 0.3756(3) 0.1900(3)
H8 H 0.4177 0.3548 0.1683
C11 C 0.4999(6) 0.1203(3) 0.6827(3)
H9 H 0.4351 0.1458 0.6592
C12 C 0.6522(7) 0.0486(3) 0.7082(3)
H10 H 0.7147 0.0126 0.7042
C13 C 0.6312(7) 0.0843(3) 0.7635(3)
H11 H 0.6749 0.0791 0.8048
C14 C 0.4752(7) 0.1809(3) 0.7882(3)
C15 C 0.5340(6) 0.1985(3) 0.8481(3)
H12 H 0.6117 0.1769 0.8648
C16 C 0.4691(6) 0.2500(3) 0.8808(3)
C17 C 0.3166(7) 0.2588(3) 0.8014(3)
H13 H 0.2392 0.2806 0.7847
C18 C 0.4912(6) 0.3379(3) 0.9650(3)
H14 H 0.4274 0.3678 0.9463
C20 C 0.6174(7) 0.2479(3) 0.9805(3)
H16 H 0.6584 0.2047 0.9758
O7 O 0.7970(4) 0.06080(19) 0.5670(2)
N1 N 0.5638(5) 0.1346(2) 0.5126(2)
N2 N 0.5123(5) 0.2175(2) 0.4447(3)
N3 N 0.3338(5) 0.2267(3) 0.3735(3)
N4 N 0.3389(5) 0.2994(3) 0.2792(3)
N5 N 0.5223(5) 0.3663(3) 0.2552(2)
N7 N 0.5699(6) 0.0713(2) 0.6574(2)
N8 N 0.5317(5) 0.1306(2) 0.7476(2)
N9 N 0.3680(5) 0.2105(3) 0.7639(3)
N10 N 0.3602(5) 0.2807(3) 0.8597(3)
N11 N 0.5203(5) 0.2758(2) 0.9410(3)
Co4 Co 0.42359(8) 0.54212(3) 0.94195(4)
O17 O 0.5965(4) 0.49177(18) 0.95285(19)
C29 C 0.8080(7) 0.9981(3) 0.5777(3)
C30 C 0.9409(6) 0.9675(3) 0.5878(3)
C35 C 0.9507(6) 0.8994(3) 0.6054(3)
H22 H 0.8737 0.8723 0.6126
O8 O 0.7040(4) 0.96056(19) 0.5778(2)
O12 O 0.9912(5) 0.7759(2) 0.6599(3)
O13 O 0.5924(4) 0.99247(17) 0.44695(19)
C24 C 0.9432(6) 0.5280(3) 0.0881(3)
C25 C 0.9634(6) 0.5957(3) 0.1022(3)
H18 H 0.8900 0.6256 0.1076
C28 C 0.8065(7) 0.4988(3) 0.0800(3)
C24_2 C 0.0568(6) 0.0280(3) 0.4119(3)
C25_2 C 0.0366(6) 0.0957(3) 0.3978(3)
H18_2 H 0.1100 0.1256 0.3924
O4 O 0.2937(4) 0.0364(2) 0.4118(2)
C28_2 C 0.1935(7) 0.9988(3) 0.4200(3)
O3 O 0.2051(4) 0.9372(2) 0.4340(2)
C22_2 C 0.8182(6) 0.0104(3) 0.4170(3)
C26_2 C 0.9073(7) 0.1191(3) 0.3916(3)
C27_2 C 0.7993(6) 0.0784(3) 0.4021(3)
H19_2 H 0.7118 0.0965 0.3994
O5_2 O 0.9771(5) 0.2299(2) 0.3794(3)
O6_2 O 0.7728(5) 0.2062(2) 0.3550(3)
N13_2 N 0.8854(6) 0.1905(3) 0.3739(3)
C1_2 C 0.5210(6) 0.6548(3) 0.0324(3)
H1_2 H 0.5955 0.6292 0.0471
C3_2 C 0.3750(7) 0.7374(3) 0.0208(3)
H3_2 H 0.3276 0.7789 0.0254
C4_2 C 0.5448(6) 0.7489(3) 0.1107(3)
C5_2 C 0.4766(7) 0.7970(3) 0.1466(3)
H4_2 H 0.3913 0.8131 0.1337
C6_2 C 0.5401(7) 0.8203(3) 0.2027(3)
C7_2 C 0.7177(7) 0.7534(3) 0.1816(3)
H5_2 H 0.8037 0.7379 0.1941
C8_2 C 0.3657(7) 0.9045(3) 0.2318(3)
H6_2 H 0.3207 0.9084 0.1907
C9_2 C 0.3329(7) 0.9350(3) 0.2891(3)
H7_2 H 0.2589 0.9644 0.2952
C10_2 C 0.5091(6) 0.8756(3) 0.3100(3)
H8_2 H 0.5823 0.8548 0.3317
N2_2 N 0.4877(5) 0.7175(2) 0.0553(3)
N3_2 N 0.6662(5) 0.7267(3) 0.1265(3)
N4_2 N 0.6611(5) 0.7994(3) 0.2208(3)
N5_2 N 0.4777(5) 0.8663(3) 0.2448(2)
N6 N 0.4247(6) 0.9170(2) 0.3382(2)
C2_2 C 0.3466(7) 0.6864(3) 0.9799(3)
H2_2 H 0.2742 0.6861 0.9497
C11_2 C 0.5001(6) 0.6203(3) 0.8173(3)
H9_2 H 0.5649 0.6458 0.8408
C12_2 C 0.3478(7) 0.5486(3) 0.7918(3)
H10_2 H 0.2853 0.5126 0.7958
C13_2 C 0.3688(7) 0.5843(3) 0.7365(3)
H11_2 H 0.3251 0.5791 0.6952
C14_2 C 0.5248(7) 0.6809(3) 0.7118(3)
C15_2 C 0.4660(6) 0.6985(3) 0.6519(3)
H12_2 H 0.3883 0.6769 0.6352
C16_2 C 0.5309(6) 0.7500(3) 0.6192(3)
C17_2 C 0.6834(7) 0.7588(3) 0.6986(3)
H13_2 H 0.7608 0.7806 0.7153
C18_2 C 0.5088(6) 0.8379(3) 0.5350(3)
H14_2 H 0.5726 0.8678 0.5537
C19_2 C 0.3581(7) 0.7946(3) 0.4728(3)
H15_2 H 0.2953 0.7895 0.4380
C20_2 C 0.3826(7) 0.7479(3) 0.5195(3)
H16_2 H 0.3416 0.7047 0.5242
C21_2 C 0.7005(6) 0.9639(3) 0.4281(3)
C23_2 C 0.9473(6) 0.9854(3) 0.4210(3)
H17_2 H 0.9612 0.9386 0.4301
C29_2 C 0.1920(7) 0.4981(3) 0.9223(3)
C30_2 C 0.0591(6) 0.4675(3) 0.9122(3)
C35_2 C 0.0493(6) 0.3994(3) 0.8946(3)
H22_2 H 0.1263 0.3723 0.8874
O2_2 O 0.7162(4) 0.90246(19) 0.4173(2)
O7_2 O 0.2030(4) 0.56080(19) 0.9330(2)
O8_2 O 0.2960(4) 0.46056(19) 0.9222(2)
O12_2 O 0.0088(5) 0.2759(2) 0.8401(3)
N1_2 N 0.4362(5) 0.6346(2) 0.9874(2)
N7_2 N 0.4301(6) 0.5713(2) 0.8426(2)
N8_2 N 0.4683(5) 0.6306(2) 0.7524(2)
N9_2 N 0.6320(5) 0.7105(3) 0.7361(3)
N10_2 N 0.6398(5) 0.7807(3) 0.6403(3)
N11_2 N 0.4797(5) 0.7758(2) 0.5590(3)
N12_2 N 0.4377(5) 0.8516(2) 0.4825(2)
C31_2 C 0.9459(6) 0.5057(3) 0.9219(3)
H20_2 H 0.9543 0.5526 0.9320
C32_2 C 0.8206(6) 0.4773(3) 0.9173(3)
C33_2 C 0.8081(7) 0.4094(3) 0.9008(3)
H21_2 H 0.7230 0.3885 0.8983
C34_2 C 0.9230(7) 0.3728(3) 0.8880(3)
C36_2 C 0.7020(6) 0.5219(3) 0.9306(3)
O9_2 O 0.7112(4) 0.5831(2) 0.9192(2)
O11_2 O 0.8035(5) 0.2739(3) 0.8695(3)
N14_2 N 0.9116(7) 0.3020(3) 0.8650(3)
O16 O 0.0965(4) 0.00823(18) 0.04715(19)
C11_3 C 0.0001(6) 0.8797(3) 0.1827(3)
H9_3 H 0.0649 0.8542 0.1592
C14_3 C 0.0248(7) 0.8191(3) 0.2882(3)
C16_3 C 0.0309(6) 0.7500(3) 0.3808(3)
C17_3 C 0.1834(7) 0.7412(3) 0.3014(3)
H13_3 H 0.2608 0.7194 0.2847
C18_3 C 0.0088(6) 0.6621(3) 0.4650(3)
H14_3 H 0.0726 0.6322 0.4463
C21_3 C 0.2005(6) 0.5361(3) 0.5719(3)
C22_3 C 0.3182(6) 0.4896(3) 0.5830(3)
C23_3 C 0.4473(6) 0.5146(3) 0.5790(3)
H17_3 H 0.4612 0.5614 0.5699
C24_3 C 0.5568(6) 0.4720(3) 0.5881(3)
C25_3 C 0.5366(6) 0.4043(3) 0.6022(3)
H18_3 H 0.6100 0.3744 0.6076
C26_3 C 0.4073(7) 0.3809(3) 0.6084(3)
C27_3 C 0.2993(6) 0.4216(3) 0.5979(3)
H19_3 H 0.2118 0.4035 0.6006
C28_3 C 0.6935(7) 0.5012(3) 0.5800(3)
O1_2 O 0.0924(4) 0.50753(17) 0.55305(19)
O2_3 O 0.2162(4) 0.59754(19) 0.5827(2)
O3_2 O 0.7051(4) 0.5628(2) 0.5660(2)
O4_2 O 0.7937(4) 0.4636(2) 0.5882(2)
O5_3 O 0.4771(5) 0.2701(2) 0.6206(3)
O6_3 O 0.2728(5) 0.2938(2) 0.6450(3)
N9_3 N 0.1320(5) 0.7895(3) 0.2639(3)
N10_3 N 0.1398(5) 0.7193(3) 0.3597(3)
N13_3 N 0.3854(6) 0.3095(3) 0.6261(3)
Co4_2 Co 0.07641(8) 0.45788(3) 0.44195(4)
Co5 Co 0.91720(9) 0.55534(3) 0.56169(4)
C29_3 C 0.6920(7) 0.0019(3) 0.0777(3)
C30_3 C 0.5591(6) 0.0325(3) 0.0878(3)
C32_3 C 0.3206(6) 0.0227(3) 0.0827(3)
C33_3 C 0.3081(7) 0.0906(3) 0.0992(3)
H21_3 H 0.2230 0.1115 0.1017
C34_3 C 0.4230(7) 0.1272(3) 0.1120(3)
C35_3 C 0.5493(6) 0.1006(3) 0.1054(3)
H22_3 H 0.6263 0.1277 0.1126
O8_3 O 0.7960(4) 0.03944(19) 0.0778(2)
O11_3 O 0.3035(5) 0.2261(3) 0.1305(3)
O12_3 O 0.5088(5) 0.2241(2) 0.1599(3)
N14_3 N 0.4116(7) 0.1980(3) 0.1350(3)
Co7_2 Co 0.08280(9) 0.05534(3) 0.93831(4)
O13_2 O 0.9076(4) 0.00753(17) 0.94695(19)
Co1 Co 0.92359(8) 0.95788(3) 0.05805(4)
C2_3 C 0.8466(7) 0.8136(3) 0.0201(3)
H2_3 H 0.7742 0.8139 0.0503
C12_3 C 0.8478(7) 0.9514(3) 0.2082(3)
H10_3 H 0.7853 0.9874 0.2042
C13_3 C 0.8688(7) 0.9157(3) 0.2635(3)
H11_3 H 0.8251 0.9209 0.3048
C15_3 C 0.9660(6) 0.8015(3) 0.3481(3)
H12_3 H 0.8883 0.8231 0.3648
C19_3 C 0.8581(7) 0.7054(3) 0.5272(3)
H15_3 H 0.7953 0.7105 0.5620
C20_3 C 0.8826(7) 0.7521(3) 0.4805(3)
H16_3 H 0.8416 0.7953 0.4758
C31_3 C 0.4459(6) 0.9943(3) 0.0781(3)
H20_3 H 0.4543 0.9474 0.0680
C36_3 C 0.2020(6) 0.9781(3) 0.0694(3)
O7_3 O 0.7030(4) 0.93920(19) 0.0670(2)
O9_3 O 0.2112(4) 0.9169(2) 0.0808(2)
N1_3 N 0.9362(5) 0.8654(2) 0.0126(2)
N7_3 N 0.9301(6) 0.9287(2) 0.1574(2)
N8_3 N 0.9683(5) 0.8694(2) 0.2476(2)
N11_3 N 0.9797(5) 0.7242(2) 0.4410(3)
N12_3 N 0.9377(5) 0.6484(2) 0.5175(2)
O17_2 O 0.9035(4) 0.50823(18) 0.45285(19)
N15_2 N 0.9247(6) 0.5830(2) 0.6618(2)
C3_3 C 0.8750(7) 0.7626(3) 0.9792(3)
H3_3 H 0.8276 0.7211 0.9746
C5_3 C 0.9766(7) 0.7030(3) 0.8534(3)
H4_3 H 0.8913 0.6869 0.8663
C8_3 C 0.8657(7) 0.5955(3) 0.7682(3)
H6_3 H 0.8207 0.5916 0.8093
C9_3 C 0.8329(7) 0.5650(3) 0.7109(3)
H7_3 H 0.7589 0.5356 0.7048
N2_3 N 0.9877(5) 0.7825(2) 0.9447(3)
N5_3 N 0.9777(5) 0.6337(3) 0.7552(2)
C2_4 C 0.1534(7) 0.3136(3) 0.4799(3)
H2_4 H 0.2258 0.3139 0.4497
C3_4 C 0.1250(7) 0.2626(3) 0.5208(3)
H3_4 H 0.1724 0.2211 0.5254
C5_4 C 0.0234(7) 0.2030(3) 0.6466(3)
H4_4 H 0.1087 0.1869 0.6337
C8_4 C 0.1343(7) 0.0955(3) 0.7318(3)
H6_4 H 0.1793 0.0916 0.6907
C9_4 C 0.1671(7) 0.0650(3) 0.7891(3)
H7_4 H 0.2411 0.0356 0.7952
C12_4 C 0.1522(7) 0.4514(3) 0.2918(3)
H10_4 H 0.2147 0.4874 0.2958
C13_4 C 0.1312(7) 0.4157(3) 0.2365(3)
H11_4 H 0.1749 0.4209 0.1952
C15_4 C 0.0340(6) 0.3015(3) 0.1519(3)
H12_4 H 0.1117 0.3231 0.1352
C20_4 C 0.1174(7) 0.2521(3) 0.0195(3)
H16_4 H 0.1584 0.2953 0.0242
C29_4 C 0.3080(7) 0.5019(3) 0.4223(3)
C30_4 C 0.4409(6) 0.5325(3) 0.4122(3)
C31_4 C 0.5541(6) 0.4943(3) 0.4219(3)
H20_4 H 0.5457 0.4474 0.4320
C32_4 C 0.6794(6) 0.5227(3) 0.4173(3)
C33_4 C 0.6919(7) 0.5906(3) 0.4008(3)
H21_4 H 0.7770 0.6115 0.3983
C34_4 C 0.5770(7) 0.6272(3) 0.3880(3)
C35_4 C 0.4507(6) 0.6006(3) 0.3946(3)
H22_4 H 0.3737 0.6277 0.3874
C36_4 C 0.7980(6) 0.4781(3) 0.4306(3)
O7_4 O 0.2970(4) 0.43920(19) 0.4330(2)
O8_4 O 0.2040(4) 0.53944(19) 0.4222(2)
O9_4 O 0.7888(4) 0.4169(2) 0.4192(2)
O11_4 O 0.6965(5) 0.7261(3) 0.3695(3)
O12_4 O 0.4912(5) 0.7241(2) 0.3401(3)
N1_4 N 0.0638(5) 0.3654(2) 0.4874(2)
N2_4 N 0.0123(5) 0.2825(2) 0.5553(3)
N5_4 N 0.0223(5) 0.1337(3) 0.7448(2)
N6_2 N 0.0753(6) 0.0830(2) 0.8382(2)
N7_4 N 0.0699(6) 0.4287(2) 0.3426(2)
N8_4 N 0.0317(5) 0.3694(2) 0.2524(2)
N11_4 N 0.0203(5) 0.2242(2) 0.0590(3)
N14_4 N 0.5884(7) 0.6980(3) 0.3650(3)
C19_4 C 0.1419(7) 0.2054(3) 0.9728(3)
H15_4 H 0.2047 0.2105 0.9380
N12_4 N 0.0623(5) 0.1484(2) 0.9825(2)
O14_2 O 0.2949(4) 0.0628(2) 0.9340(2)
C1_3 C 0.9790(6) 0.3452(3) 0.5324(3)
H1_3 H 0.9045 0.3708 0.5471
C4_3 C 0.9552(6) 0.2511(3) 0.6107(3)
C6_3 C 0.9599(7) 0.1797(3) 0.7027(3)
C7_3 C 0.7823(7) 0.2466(3) 0.6816(3)
H5_3 H 0.6963 0.2621 0.6941
C10_3 C 0.9909(6) 0.1244(3) 0.8100(3)
H8_3 H 0.9177 0.1452 0.8317
C11_4 C 0.9999(6) 0.3797(3) 0.3173(3)
H9_4 H 0.9351 0.3542 0.3408
C14_4 C 0.9752(7) 0.3191(3) 0.2118(3)
C16_4 C 0.9691(6) 0.2500(3) 0.1192(3)
C17_4 C 0.8166(7) 0.2412(3) 0.1986(3)
H13_4 H 0.7392 0.2194 0.2153
C18_4 C 0.9912(6) 0.1621(3) 0.0350(3)
H14_4 H 0.9274 0.1322 0.0537
N3_3 N 0.8338(5) 0.2733(3) 0.6265(3)
N4_3 N 0.8389(5) 0.2006(3) 0.7208(3)
N9_4 N 0.8680(5) 0.2895(3) 0.2361(3)
N10_4 N 0.8602(5) 0.2193(3) 0.1403(3)
C21_4 C 0.7995(6) 0.0361(3) 0.9281(3)
C23_4 C 0.5527(6) 0.0146(3) 0.9210(3)
H17_4 H 0.5388 0.0614 0.9301
C28_4 C 0.3065(7) 0.0012(3) 0.9200(3)
O2_4 O 0.7838(4) 0.09754(19) 0.9173(2)
C1_4 C 0.0210(6) 0.8452(3) 0.9676(3)
H1_4 H 0.0955 0.8708 0.9529
C4_4 C 0.0448(6) 0.7511(3) 0.8893(3)
C6_4 C 0.0401(7) 0.6797(3) 0.7973(3)
C7_4 C 0.2177(7) 0.7466(3) 0.8184(3)
H5_4 H 0.3037 0.7621 0.8059
C10_4 C 0.0091(6) 0.6244(3) 0.6900(3)
H8_4 H 0.0823 0.6452 0.6683
N3_4 N 0.1662(5) 0.7733(3) 0.8735(3)
N4_4 N 0.1611(5) 0.7006(3) 0.7792(3)
O15_2 O 0.2063(4) 0.9636(2) 0.9118(2)
C22_4 C 0.6818(6) 0.9896(3) 0.9170(3)
C24_4 C 0.4432(6) 0.9720(3) 0.9119(3)
C25_4 C 0.4634(6) 0.9043(3) 0.8978(3)
H18_4 H 0.3900 0.8744 0.8924
C26_4 C 0.5927(7) 0.8809(3) 0.8916(3)
C27_4 C 0.7007(6) 0.9216(3) 0.9021(3)
H19_4 H 0.7882 0.9035 0.8994
O5_4 O 0.5229(5) 0.7701(2) 0.8794(3)
O6_4 O 0.7272(5) 0.7938(2) 0.8550(3)
N13_4 N 0.6146(6) 0.8095(3) 0.8739(3)
loop_
_geom_bond_atom_site_label_1
_geom_bond_atom_site_label_2
_geom_bond_site_symmetry_1
_geom_bond_site_symmetry_2
C31 H20 1_555 1_555
O9 C36 1_555 1_555
C33 C32 1_555 1_555
H21 C33 1_555 1_555
C34 C33 1_555 1_555
O11 N14 1_555 1_555
N14 C34 1_555 1_555
Co7 O10 1_555 1_555
Co2 O1 1_555 1_555
C19 H15 1_555 1_555
C21 C22 1_555 1_555
C22 C23 1_555 1_555
C23 H17 1_555 1_555
C27 C22 1_555 1_555
H19 C27 1_555 1_555
O1 C21 1_555 1_555
O2 C21 1_555 1_555
O5 N13 1_555 1_555
O6 N13 1_555 1_555
N12 Co2 1_555 1_555
N13 C26 1_555 1_555
O14 Co2 1_555 1_555
O15 Co2 1_555 1_555
N15 Co2 1_555 1_555
C19 N12 1_555 1_555
C26 C27 1_555 1_555
Co3 O7 1_555 1_555
C1 H1 1_555 1_555
C2 H2 1_555 1_555
C3 C2 1_555 1_555
H3 C3 1_555 1_555
C4 C5 1_555 1_555
C5 H4 1_555 1_555
C6 C5 1_555 1_555
C7 H5 1_555 1_555
C8 H6 1_555 1_555
C9 C8 1_555 1_555
H7 C9 1_555 1_555
C10 H8 1_555 1_555
C11 H9 1_555 1_555
C12 H10 1_555 1_555
C13 C12 1_555 1_555
H11 C13 1_555 1_555
C14 C15 1_555 1_555
C15 H12 1_555 1_555
C16 C15 1_555 1_555
C17 H13 1_555 1_555
C18 H14 1_555 1_555
H16 C20 1_555 1_555
N1 Co3 1_555 1_555
N2 C1 1_555 1_555
N3 C4 1_555 1_555
N4 C6 1_555 1_555
N5 C6 1_555 1_555
N15 C9 1_555 1_555
N7 Co3 1_555 1_555
N8 C11 1_555 1_555
N9 C14 1_555 1_555
N10 C16 1_555 1_555
N11 C16 1_555 1_555
C1 N1 1_555 1_555
C2 N1 1_555 1_555
C3 N2 1_555 1_555
C4 N2 1_555 1_555
C7 N3 1_555 1_555
C7 N4 1_555 1_555
C8 N5 1_555 1_555
C10 N5 1_555 1_555
C10 N15 1_555 1_555
C11 N7 1_555 1_555
C12 N7 1_555 1_555
C13 N8 1_555 1_555
C14 N8 1_555 1_555
C17 N9 1_555 1_555
C17 N10 1_555 1_555
C18 N11 1_555 1_555
C20 N11 1_555 1_555
Co4 O17 1_555 1_555
C29 C30 1_555 1_555
C35 C30 1_555 1_555
H22 C35 1_555 1_555
C29 O8 1_555 1_555
C25 C24 1_555 1_555
H18 C25 1_555 1_555
C28 C24 1_555 1_555
O14 C28 1_555 1_555
O15 C28 1_555 1_555
C25_2 C24_2 1_555 1_555
H18_2 C25_2 1_555 1_555
O3 C28_2 1_555 1_555
Co7 O3 1_555 1_555
C27_2 C22_2 1_555 1_555
H19_2 C27_2 1_555 1_555
O5_2 N13_2 1_555 1_555
O6_2 N13_2 1_555 1_555
N13_2 C26_2 1_555 1_555
C26_2 C27_2 1_555 1_555
C1_2 H1_2 1_555 1_555
H3_2 C3_2 1_555 1_555
C4_2 C5_2 1_555 1_555
C5_2 H4_2 1_555 1_555
C6_2 C5_2 1_555 1_555
C7_2 H5_2 1_555 1_555
C8_2 H6_2 1_555 1_555
C9_2 C8_2 1_555 1_555
H7_2 C9_2 1_555 1_555
C10_2 H8_2 1_555 1_555
N2_2 C1_2 1_555 1_555
N3_2 C4_2 1_555 1_555
N4_2 C6_2 1_555 1_555
N5_2 C6_2 1_555 1_555
N6 C9_2 1_555 1_555
Co7 N6 1_555 1_555
C3_2 N2_2 1_555 1_555
C4_2 N2_2 1_555 1_555
C7_2 N3_2 1_555 1_555
C7_2 N4_2 1_555 1_555
C8_2 N5_2 1_555 1_555
C10_2 N5_2 1_555 1_555
C10_2 N6 1_555 1_555
Co4 O7_2 1_555 1_555
Co7 O13 1_555 1_555
C2_2 H2_2 1_555 1_555
C11_2 H9_2 1_555 1_555
C12_2 H10_2 1_555 1_555
C13_2 C12_2 1_555 1_555
H11_2 C13_2 1_555 1_555
C14_2 C15_2 1_555 1_555
C15_2 H12_2 1_555 1_555
C16_2 C15_2 1_555 1_555
C17_2 H13_2 1_555 1_555
C18_2 H14_2 1_555 1_555
C19_2 H15_2 1_555 1_555
C20_2 C19_2 1_555 1_555
H16_2 C20_2 1_555 1_555
C23_2 H17_2 1_555 1_555
C29_2 C30_2 1_555 1_555
C35_2 C30_2 1_555 1_555
H22_2 C35_2 1_555 1_555
O13 C21_2 1_555 1_555
O2_2 C21_2 1_555 1_555
O7_2 C29_2 1_555 1_555
O8_2 Co4 1_555 1_555
N1_2 Co4 1_555 1_555
N7_2 Co4 1_555 1_555
N8_2 C11_2 1_555 1_555
N9_2 C14_2 1_555 1_555
N10_2 C16_2 1_555 1_555
N11_2 C16_2 1_555 1_555
N12_2 Co7 1_555 1_555
C2_2 N1_2 1_555 1_555
C11_2 N7_2 1_555 1_555
C12_2 N7_2 1_555 1_555
C13_2 N8_2 1_555 1_555
C14_2 N8_2 1_555 1_555
C17_2 N9_2 1_555 1_555
C17_2 N10_2 1_555 1_555
C18_2 N11_2 1_555 1_555
C18_2 N12_2 1_555 1_555
C19_2 N12_2 1_555 1_555
C20_2 N11_2 1_555 1_555
C29_2 O8_2 1_555 1_555
C31_2 H20_2 1_555 1_555
C32_2 C31_2 1_555 1_555
C33_2 C32_2 1_555 1_555
H21_2 C33_2 1_555 1_555
C34_2 C33_2 1_555 1_555
C36_2 C32_2 1_555 1_555
O9_2 C36_2 1_555 1_555
O17 C36_2 1_555 1_555
O11_2 N14_2 1_555 1_555
N14_2 C34_2 1_555 1_555
C11_3 H9_3 1_555 1_555
C17_3 H13_3 1_555 1_555
C18_3 H14_3 1_555 1_555
C21_3 C22_3 1_555 1_555
C22_3 C23_3 1_555 1_555
C23_3 H17_3 1_555 1_555
C24_3 C23_3 1_555 1_555
C25_3 C24_3 1_555 1_555
H18_3 C25_3 1_555 1_555
C26_3 C25_3 1_555 1_555
C27_3 C22_3 1_555 1_555
H19_3 C27_3 1_555 1_555
C28_3 C24_3 1_555 1_555
O1_2 C21_3 1_555 1_555
O2_3 C21_3 1_555 1_555
O3_2 C28_3 1_555 1_555
O4_2 C28_3 1_555 1_555
O5_3 N13_3 1_555 1_555
O6_3 N13_3 1_555 1_555
N9_3 C14_3 1_555 1_555
N10_3 C16_3 1_555 1_555
N13_3 C26_3 1_555 1_555
Co4_2 O1_2 1_555 1_555
Co5 O3_2 1_555 1_555
C17_3 N9_3 1_555 1_555
C17_3 N10_3 1_555 1_555
C26_3 C27_3 1_555 1_555
O4_2 Co5 1_555 1_555
C29_3 C30_3 1_555 1_555
C33_3 C32_3 1_555 1_555
H21_3 C33_3 1_555 1_555
C34_3 C33_3 1_555 1_555
C35_3 C30_3 1_555 1_555
H22_3 C35_3 1_555 1_555
O11_3 N14_3 1_555 1_555
O12_3 N14_3 1_555 1_555
N14_3 C34_3 1_555 1_555
C29_3 O8_3 1_555 1_555
C34_3 C35_3 1_555 1_555
Co1 O7_3 1_555 1_555
C2_3 H2_3 1_555 1_555
C12_3 H10_3 1_555 1_555
C13_3 C12_3 1_555 1_555
H11_3 C13_3 1_555 1_555
C15_3 H12_3 1_555 1_555
C19_3 H15_3 1_555 1_555
C20_3 C19_3 1_555 1_555
H16_3 C20_3 1_555 1_555
C31_3 H20_3 1_555 1_555
O9_3 C36_3 1_555 1_555
N1_3 Co1 1_555 1_555
N7_3 Co1 1_555 1_555
N12_3 Co5 1_555 1_555
O17_2 Co5 1_555 1_555
N15_2 Co5 1_555 1_555
C2_3 N1_3 1_555 1_555
C12_3 N7_3 1_555 1_555
C13_3 N8_3 1_555 1_555
C19_3 N12_3 1_555 1_555
C20_3 N11_3 1_555 1_555
H3_3 C3_3 1_555 1_555
C5_3 H4_3 1_555 1_555
C8_3 H6_3 1_555 1_555
C9_3 C8_3 1_555 1_555
H7_3 C9_3 1_555 1_555
N15_2 C9_3 1_555 1_555
C3_3 N2_3 1_555 1_555
C8_3 N5_3 1_555 1_555
Co4_2 O7_4 1_555 1_555
C2_4 H2_4 1_555 1_555
C3_4 C2_4 1_555 1_555
H3_4 C3_4 1_555 1_555
C5_4 H4_4 1_555 1_555
C8_4 H6_4 1_555 1_555
C9_4 C8_4 1_555 1_555
H7_4 C9_4 1_555 1_555
C12_4 H10_4 1_555 1_555
C13_4 C12_4 1_555 1_555
H11_4 C13_4 1_555 1_555
C15_4 H12_4 1_555 1_555
H16_4 C20_4 1_555 1_555
C29_4 C30_4 1_555 1_555
C30_4 C31_4 1_555 1_555
C31_4 H20_4 1_555 1_555
C32_4 C31_4 1_555 1_555
C33_4 C32_4 1_555 1_555
H21_4 C33_4 1_555 1_555
C34_4 C33_4 1_555 1_555
C35_4 C30_4 1_555 1_555
H22_4 C35_4 1_555 1_555
C36_4 C32_4 1_555 1_555
O7_4 C29_4 1_555 1_555
O8_4 Co4_2 1_555 1_555
O9_4 C36_4 1_555 1_555
O17_2 C36_4 1_555 1_555
O11_4 N14_4 1_555 1_555
O12_4 N14_4 1_555 1_555
N1_4 Co4_2 1_555 1_555
N6_2 C9_4 1_555 1_555
N7_4 Co4_2 1_555 1_555
N14_4 C34_4 1_555 1_555
Co7_2 N6_2 1_555 1_555
C2_4 N1_4 1_555 1_555
C3_4 N2_4 1_555 1_555
C8_4 N5_4 1_555 1_555
C12_4 N7_4 1_555 1_555
C13_4 N8_4 1_555 1_555
C20_4 N11_4 1_555 1_555
C29_4 O8_4 1_555 1_555
C34_4 C35_4 1_555 1_555
C19_4 H15_4 1_555 1_555
N12_4 Co7_2 1_555 1_555
O14_2 Co7_2 1_555 1_555
C19_4 N12_4 1_555 1_555
C1_3 H1_3 1_555 1_555
C7_3 H5_3 1_555 1_555
C10_3 H8_3 1_555 1_555
C11_4 H9_4 1_555 1_555
C17_4 H13_4 1_555 1_555
C18_4 H14_4 1_555 1_555
N3_3 C4_3 1_555 1_555
N4_3 C6_3 1_555 1_555
N9_4 C14_4 1_555 1_555
N10_4 C16_4 1_555 1_555
C7_3 N3_3 1_555 1_555
C7_3 N4_3 1_555 1_555
C17_4 N9_4 1_555 1_555
C17_4 N10_4 1_555 1_555
C23_4 H17_4 1_555 1_555
O13_2 C21_4 1_555 1_555
O2_4 C21_4 1_555 1_555
O14_2 C28_4 1_555 1_555
C1_4 H1_4 1_555 1_555
C7_4 H5_4 1_555 1_555
C10_4 H8_4 1_555 1_555
N3_4 C4_4 1_555 1_555
N4_4 C6_4 1_555 1_555
C7_4 N3_4 1_555 1_555
C7_4 N4_4 1_555 1_555
C25_4 C24_4 1_555 1_555
H18_4 C25_4 1_555 1_555
C26_4 C25_4 1_555 1_555
C27_4 C22_4 1_555 1_555
H19_4 C27_4 1_555 1_555
O5_4 N13_4 1_555 1_555
O6_4 N13_4 1_555 1_555
N13_4 C26_4 1_555 1_555
C26_4 C27_4 1_555 1_555

#END
