
###############################################################################
#
# This file contains modified crystal structure data generated from the
# MOF subset of the Cambridge Structural Database (CSD) v543 
# hosted by the Cambridge Crystallographic Data Centre (CCDC).
#
# This work is licensed under the Creative Commons
# Attribution-NonCommercial-ShareAlike 4.0 International License.
# To view a copy of this license, visit
# http://creativecommons.org/licenses/by-nc-sa/4.0/
# or send a letter to
# Creative Commons, PO Box 1866, Mountain View, CA 94042, USA.
#
# CIF created using the CSD Python API on 29 September 2022
# The structure has been converted into the P1 space group
# The structure has a 3D framework
# The original CSD entry KEDLAJ03 is in the orthorhombic crystal system
# The original CSD entry KEDLAJ03 is in a Sohncke space group
# The framework has been calculated to contain at least 10.0% void space
# The void calculation uses a probe of radius 1.32A, grid spacing 0.4
#
###############################################################################

data_KEDLAJ03
_chemical_formula_moiety         '(C144 H88 Co8 N56 O47)n'
_symmetry_cell_setting           triclinic
_symmetry_space_group_name_H-M   'P 1'
_symmetry_Int_Tables_number      1
_space_group_name_Hall           'P 1'
loop_
_symmetry_equiv_pos_site_id
_symmetry_equiv_pos_as_xyz
1 x,y,z
_cell_length_a                   10.0383(18)
_cell_length_b                   19.709(4)
_cell_length_c                   20.212(4)
_cell_angle_alpha                90
_cell_angle_beta                 90
_cell_angle_gamma                90
_cell_volume                     3998.84
loop_
_atom_site_label
_atom_site_type_symbol
_atom_site_fract_x
_atom_site_fract_y
_atom_site_fract_z
C31 C 0.0529(6) 0.0053(3) 0.5781(3)
H20 H 0.0444 0.0512 0.5684
C36 C 0.2970(6) 0.0214(3) 0.5695(3)
O9 O 0.2885(4) 0.0823(2) 0.5808(2)
Co3 Co 0.57660(8) 0.04143(3) 0.55774(4)
C32 C 0.1791(6) 0.9768(3) 0.5824(3)
C33 C 0.1920(7) 0.9088(3) 0.5988(3)
H21 H 0.2754 0.8882 0.6005
C34 C 0.0770(7) 0.8722(3) 0.6126(3)
O10 O 0.4036(4) 0.99124(18) 0.54733(19)
O11 O 0.1963(5) 0.7735(2) 0.6300(3)
N14 N 0.0882(6) 0.8015(2) 0.6355(3)
Co7 Co 0.41673(8) 0.94473(3) 0.43847(4)
Co2 Co 0.58327(8) 0.44473(3) 0.06153(4)
C19 C 0.6420(7) 0.2947(3) 0.0283(3)
H15 H 0.7029 0.2899 0.0626
C21 C 0.2994(6) 0.4638(3) 0.0722(3)
C22 C 0.1821(6) 0.5100(3) 0.0834(3)
C23 C 0.0532(6) 0.4857(3) 0.0791(3)
H17 H 0.0394 0.4400 0.0701
C26 C 0.0931(7) 0.6190(3) 0.1086(3)
C27 C 0.2007(6) 0.5783(3) 0.0980(3)
H19 H 0.2863 0.5961 0.1006
O1 O 0.4072(4) 0.49260(18) 0.0528(2)
O2 O 0.2837(4) 0.40257(19) 0.0827(2)
O5 O 0.0236(5) 0.7301(2) 0.1206(3)
O6 O 0.2274(5) 0.7058(2) 0.1450(3)
N12 N 0.5625(5) 0.3513(2) 0.0175(2)
N13 N 0.1149(6) 0.6904(3) 0.1260(3)
O14 O 0.7948(4) 0.4375(2) 0.0657(2)
O15 O 0.7058(4) 0.5365(2) 0.0882(2)
N15 N 0.5752(6) 0.4170(2) 0.1621(2)
C1 C 0.4789(6) 0.1547(3) 0.4674(3)
H1 H 0.4063 0.1297 0.4526
C2 C 0.6534(7) 0.1857(3) 0.5203(3)
H2 H 0.7243 0.1852 0.5499
C3 C 0.6259(6) 0.2367(3) 0.4794(3)
H3 H 0.6730 0.2771 0.4747
C4 C 0.4545(6) 0.2490(3) 0.3897(3)
C5 C 0.5234(6) 0.2970(3) 0.3541(3)
H4 H 0.6068 0.3127 0.3669
C6 C 0.4597(6) 0.3205(3) 0.2975(3)
C7 C 0.2821(7) 0.2536(3) 0.3190(3)
H5 H 0.1975 0.2386 0.3072
C8 C 0.6348(6) 0.4050(3) 0.2685(3)
H6 H 0.6786 0.4094 0.3088
C9 C 0.6669(7) 0.4345(3) 0.2112(3)
H7 H 0.7401 0.4627 0.2049
C10 C 0.4912(6) 0.3758(3) 0.1905(3)
H8 H 0.4194 0.3554 0.1693
C11 C 0.4991(6) 0.1199(3) 0.6825(3)
H9 H 0.4351 0.1446 0.6595
C12 C 0.6529(6) 0.0480(3) 0.7077(3)
H10 H 0.7145 0.0130 0.7035
C13 C 0.6322(6) 0.0837(3) 0.7629(3)
H11 H 0.6753 0.0786 0.8033
C14 C 0.4759(6) 0.1806(3) 0.7880(3)
C15 C 0.5337(6) 0.1982(3) 0.8482(3)
H12 H 0.6088 0.1766 0.8651
C16 C 0.4697(6) 0.2502(3) 0.8805(3)
C17 C 0.3166(7) 0.2588(3) 0.8009(3)
H13 H 0.2411 0.2801 0.7842
C18 C 0.4910(6) 0.3379(3) 0.9653(3)
H14 H 0.4283 0.3673 0.9471
C20 C 0.6175(6) 0.2482(3) 0.9813(3)
H16 H 0.6578 0.2060 0.9768
O7 O 0.7972(4) 0.06029(19) 0.5669(2)
N1 N 0.5640(5) 0.1343(2) 0.5130(2)
N2 N 0.5120(5) 0.2171(2) 0.4452(3)
N3 N 0.3344(5) 0.2265(2) 0.3742(3)
N4 N 0.3379(5) 0.2998(3) 0.2792(3)
N5 N 0.5231(5) 0.3667(2) 0.2552(2)
N7 N 0.5694(5) 0.0706(2) 0.6573(2)
N8 N 0.5323(5) 0.1304(2) 0.7474(2)
N9 N 0.3680(5) 0.2103(3) 0.7638(3)
N10 N 0.3598(5) 0.2807(3) 0.8592(3)
N11 N 0.5200(5) 0.2759(2) 0.9411(2)
Co4 Co 0.42340(8) 0.54143(3) 0.94226(4)
O17 O 0.5964(4) 0.49124(18) 0.95267(19)
C29 C 0.8063(7) 0.9975(3) 0.5778(3)
C30 C 0.9401(6) 0.9667(3) 0.5879(3)
C35 C 0.9509(6) 0.8987(3) 0.6060(3)
H22 H 0.8757 0.8723 0.6134
O8 O 0.7037(4) 0.96004(19) 0.5780(2)
O12 O 0.9912(5) 0.7756(2) 0.6608(3)
O13 O 0.5928(4) 0.99260(18) 0.4472(2)
C24 C 0.9434(6) 0.5280(3) 0.0879(3)
C25 C 0.9630(6) 0.5956(3) 0.1020(3)
H18 H 0.8911 0.6249 0.1070
C28 C 0.8075(7) 0.4991(3) 0.0799(3)
C24_2 C 0.0566(6) 0.0280(3) 0.4121(3)
C25_2 C 0.0370(6) 0.0956(3) 0.3980(3)
H18_2 H 0.1089 0.1249 0.3930
O4 O 0.2942(4) 0.0365(2) 0.4118(2)
C28_2 C 0.1925(7) 0.9991(3) 0.4201(3)
O3 O 0.2052(4) 0.9375(2) 0.4343(2)
C22_2 C 0.8179(6) 0.0100(3) 0.4166(3)
C26_2 C 0.9069(7) 0.1190(3) 0.3914(3)
C27_2 C 0.7993(6) 0.0783(3) 0.4020(3)
H19_2 H 0.7137 0.0961 0.3994
O5_2 O 0.9764(5) 0.2301(2) 0.3794(3)
O6_2 O 0.7726(5) 0.2058(2) 0.3550(3)
N13_2 N 0.8851(6) 0.1904(3) 0.3740(3)
C1_2 C 0.5211(6) 0.6547(3) 0.0326(3)
H1_2 H 0.5937 0.6297 0.0474
C3_2 C 0.3741(6) 0.7367(3) 0.0206(3)
H3_2 H 0.3270 0.7771 0.0253
C4_2 C 0.5455(6) 0.7490(3) 0.1103(3)
C5_2 C 0.4766(6) 0.7970(3) 0.1459(3)
H4_2 H 0.3932 0.8127 0.1331
C6_2 C 0.5403(6) 0.8205(3) 0.2025(3)
C7_2 C 0.7179(7) 0.7536(3) 0.1810(3)
H5_2 H 0.8025 0.7386 0.1928
C8_2 C 0.3652(6) 0.9050(3) 0.2315(3)
H6_2 H 0.3214 0.9094 0.1912
C9_2 C 0.3331(7) 0.9345(3) 0.2888(3)
H7_2 H 0.2599 0.9627 0.2951
C10_2 C 0.5088(6) 0.8758(3) 0.3095(3)
H8_2 H 0.5806 0.8554 0.3307
N2_2 N 0.4880(5) 0.7171(2) 0.0548(3)
N3_2 N 0.6656(5) 0.7265(2) 0.1258(3)
N4_2 N 0.6621(5) 0.7998(3) 0.2208(3)
N5_2 N 0.4769(5) 0.8667(2) 0.2448(2)
N6 N 0.4248(6) 0.9170(2) 0.3379(2)
C2_2 C 0.3466(7) 0.6857(3) 0.9797(3)
H2_2 H 0.2757 0.6852 0.9501
C11_2 C 0.5009(6) 0.6199(3) 0.8175(3)
H9_2 H 0.5649 0.6446 0.8405
C12_2 C 0.3471(6) 0.5480(3) 0.7923(3)
H10_2 H 0.2855 0.5130 0.7965
C13_2 C 0.3678(6) 0.5837(3) 0.7371(3)
H11_2 H 0.3247 0.5786 0.6967
C14_2 C 0.5241(6) 0.6806(3) 0.7120(3)
C15_2 C 0.4663(6) 0.6982(3) 0.6518(3)
H12_2 H 0.3912 0.6766 0.6349
C16_2 C 0.5303(6) 0.7502(3) 0.6195(3)
C17_2 C 0.6834(7) 0.7588(3) 0.6991(3)
H13_2 H 0.7589 0.7801 0.7158
C18_2 C 0.5090(6) 0.8379(3) 0.5347(3)
H14_2 H 0.5717 0.8673 0.5529
C19_2 C 0.3580(7) 0.7947(3) 0.4717(3)
H15_2 H 0.2971 0.7899 0.4374
C20_2 C 0.3825(6) 0.7482(3) 0.5187(3)
H16_2 H 0.3422 0.7060 0.5232
C21_2 C 0.7006(6) 0.9638(3) 0.4278(3)
C23_2 C 0.9468(6) 0.9857(3) 0.4209(3)
H17_2 H 0.9606 0.9400 0.4299
C29_2 C 0.1937(7) 0.4975(3) 0.9222(3)
C30_2 C 0.0599(6) 0.4667(3) 0.9121(3)
C35_2 C 0.0491(6) 0.3987(3) 0.8940(3)
H22_2 H 0.1243 0.3723 0.8866
O2_2 O 0.7163(4) 0.90257(19) 0.4173(2)
O7_2 O 0.2028(4) 0.56029(19) 0.9331(2)
O8_2 O 0.2963(4) 0.46004(19) 0.9220(2)
O12_2 O 0.0088(5) 0.2756(2) 0.8392(3)
N1_2 N 0.4360(5) 0.6343(2) 0.9870(2)
N7_2 N 0.4306(5) 0.5706(2) 0.8427(2)
N8_2 N 0.4677(5) 0.6304(2) 0.7526(2)
N9_2 N 0.6320(5) 0.7103(3) 0.7362(3)
N10_2 N 0.6402(5) 0.7807(3) 0.6408(3)
N11_2 N 0.4800(5) 0.7759(2) 0.5589(2)
N12_2 N 0.4375(5) 0.8513(2) 0.4825(2)
C31_2 C 0.9471(6) 0.5053(3) 0.9219(3)
H20_2 H 0.9556 0.5512 0.9316
C32_2 C 0.8209(6) 0.4768(3) 0.9176(3)
C33_2 C 0.8080(7) 0.4088(3) 0.9012(3)
H21_2 H 0.7246 0.3882 0.8995
C34_2 C 0.9230(7) 0.3722(3) 0.8874(3)
C36_2 C 0.7030(6) 0.5214(3) 0.9305(3)
O9_2 O 0.7115(4) 0.5823(2) 0.9192(2)
O11_2 O 0.8037(5) 0.2735(2) 0.8700(3)
N14_2 N 0.9118(6) 0.3015(2) 0.8645(3)
O16 O 0.0964(4) 0.00876(18) 0.04733(19)
C11_3 C 0.0009(6) 0.8801(3) 0.1825(3)
H9_3 H 0.0649 0.8554 0.1595
C14_3 C 0.0241(6) 0.8194(3) 0.2880(3)
C16_3 C 0.0303(6) 0.7498(3) 0.3805(3)
C17_3 C 0.1834(7) 0.7412(3) 0.3009(3)
H13_3 H 0.2589 0.7199 0.2842
C18_3 C 0.0090(6) 0.6621(3) 0.4653(3)
H14_3 H 0.0717 0.6327 0.4471
C21_3 C 0.2006(6) 0.5362(3) 0.5722(3)
C22_3 C 0.3179(6) 0.4900(3) 0.5834(3)
C23_3 C 0.4468(6) 0.5143(3) 0.5791(3)
H17_3 H 0.4606 0.5600 0.5701
C24_3 C 0.5566(6) 0.4720(3) 0.5879(3)
C25_3 C 0.5370(6) 0.4044(3) 0.6020(3)
H18_3 H 0.6089 0.3751 0.6070
C26_3 C 0.4069(7) 0.3810(3) 0.6086(3)
C27_3 C 0.2993(6) 0.4217(3) 0.5980(3)
H19_3 H 0.2137 0.4039 0.6006
C28_3 C 0.6925(7) 0.5009(3) 0.5799(3)
O1_2 O 0.0928(4) 0.50740(18) 0.5528(2)
O2_3 O 0.2163(4) 0.59743(19) 0.5827(2)
O3_2 O 0.7052(4) 0.5625(2) 0.5657(2)
O4_2 O 0.7942(4) 0.4635(2) 0.5882(2)
O5_3 O 0.4764(5) 0.2699(2) 0.6206(3)
O6_3 O 0.2726(5) 0.2942(2) 0.6450(3)
N9_3 N 0.1320(5) 0.7897(3) 0.2638(3)
N10_3 N 0.1402(5) 0.7193(3) 0.3592(3)
N13_3 N 0.3851(6) 0.3096(3) 0.6260(3)
Co4_2 Co 0.07660(8) 0.45857(3) 0.44226(4)
Co5 Co 0.91673(8) 0.55527(3) 0.56153(4)
C29_3 C 0.6937(7) 0.0025(3) 0.0778(3)
C30_3 C 0.5599(6) 0.0333(3) 0.0879(3)
C32_3 C 0.3209(6) 0.0232(3) 0.0824(3)
C33_3 C 0.3080(7) 0.0912(3) 0.0988(3)
H21_3 H 0.2246 0.1118 0.1005
C34_3 C 0.4230(7) 0.1278(3) 0.1126(3)
C35_3 C 0.5491(6) 0.1013(3) 0.1060(3)
H22_3 H 0.6243 0.1277 0.1134
O8_3 O 0.7963(4) 0.03996(19) 0.0780(2)
O11_3 O 0.3037(5) 0.2265(2) 0.1300(3)
O12_3 O 0.5088(5) 0.2244(2) 0.1608(3)
N14_3 N 0.4118(6) 0.1985(2) 0.1355(3)
Co7_2 Co 0.08327(8) 0.05527(3) 0.93847(4)
O13_2 O 0.9072(4) 0.00740(18) 0.9472(2)
Co1 Co 0.92340(8) 0.95857(3) 0.05774(4)
C2_3 C 0.8466(7) 0.8143(3) 0.0203(3)
H2_3 H 0.7757 0.8148 0.0499
C12_3 C 0.8471(6) 0.9520(3) 0.2077(3)
H10_3 H 0.7855 0.9870 0.2035
C13_3 C 0.8678(6) 0.9163(3) 0.2629(3)
H11_3 H 0.8247 0.9214 0.3033
C15_3 C 0.9663(6) 0.8018(3) 0.3482(3)
H12_3 H 0.8912 0.8234 0.3651
C19_3 C 0.8580(7) 0.7053(3) 0.5283(3)
H15_3 H 0.7971 0.7101 0.5626
C20_3 C 0.8825(6) 0.7518(3) 0.4813(3)
H16_3 H 0.8422 0.7940 0.4768
C31_3 C 0.4471(6) 0.9947(3) 0.0781(3)
H20_3 H 0.4556 0.9488 0.0684
C36_3 C 0.2030(6) 0.9786(3) 0.0695(3)
O7_3 O 0.7028(4) 0.93971(19) 0.0669(2)
O9_3 O 0.2115(4) 0.9177(2) 0.0808(2)
N1_3 N 0.9360(5) 0.8657(2) 0.0130(2)
N7_3 N 0.9306(5) 0.9294(2) 0.1573(2)
N8_3 N 0.9677(5) 0.8696(2) 0.2474(2)
N11_3 N 0.9800(5) 0.7241(2) 0.4411(2)
N12_3 N 0.9375(5) 0.6487(2) 0.5175(2)
O17_2 O 0.9036(4) 0.50876(18) 0.45267(19)
N15_2 N 0.9248(6) 0.5830(2) 0.6621(2)
C3_3 C 0.8741(6) 0.7633(3) 0.9794(3)
H3_3 H 0.8270 0.7229 0.9747
C5_3 C 0.9766(6) 0.7030(3) 0.8541(3)
H4_3 H 0.8932 0.6873 0.8669
C8_3 C 0.8652(6) 0.5950(3) 0.7685(3)
H6_3 H 0.8214 0.5906 0.8088
C9_3 C 0.8331(7) 0.5655(3) 0.7112(3)
H7_3 H 0.7599 0.5373 0.7049
N2_3 N 0.9880(5) 0.7829(2) 0.9452(3)
N5_3 N 0.9769(5) 0.6333(2) 0.7552(2)
C2_4 C 0.1534(7) 0.3143(3) 0.4797(3)
H2_4 H 0.2243 0.3148 0.4501
C3_4 C 0.1259(6) 0.2633(3) 0.5206(3)
H3_4 H 0.1730 0.2229 0.5253
C5_4 C 0.0234(6) 0.2030(3) 0.6459(3)
H4_4 H 0.1068 0.1873 0.6331
C8_4 C 0.1348(6) 0.0950(3) 0.7315(3)
H6_4 H 0.1786 0.0906 0.6912
C9_4 C 0.1669(7) 0.0655(3) 0.7888(3)
H7_4 H 0.2401 0.0373 0.7951
C12_4 C 0.1529(6) 0.4520(3) 0.2923(3)
H10_4 H 0.2145 0.4870 0.2965
C13_4 C 0.1322(6) 0.4163(3) 0.2371(3)
H11_4 H 0.1753 0.4214 0.1967
C15_4 C 0.0337(6) 0.3018(3) 0.1518(3)
H12_4 H 0.1088 0.3234 0.1349
C20_4 C 0.1175(6) 0.2518(3) 0.0187(3)
H16_4 H 0.1578 0.2940 0.0232
C29_4 C 0.3063(7) 0.5025(3) 0.4222(3)
C30_4 C 0.4401(6) 0.5333(3) 0.4121(3)
C31_4 C 0.5529(6) 0.4947(3) 0.4219(3)
H20_4 H 0.5444 0.4488 0.4316
C32_4 C 0.6791(6) 0.5232(3) 0.4176(3)
C33_4 C 0.6920(7) 0.5912(3) 0.4012(3)
H21_4 H 0.7754 0.6118 0.3995
C34_4 C 0.5770(7) 0.6278(3) 0.3874(3)
C35_4 C 0.4509(6) 0.6013(3) 0.3940(3)
H22_4 H 0.3757 0.6277 0.3866
C36_4 C 0.7970(6) 0.4786(3) 0.4305(3)
O7_4 O 0.2972(4) 0.43971(19) 0.4331(2)
O8_4 O 0.2037(4) 0.53996(19) 0.4220(2)
O9_4 O 0.7885(4) 0.4177(2) 0.4192(2)
O11_4 O 0.6963(5) 0.7265(2) 0.3700(3)
O12_4 O 0.4912(5) 0.7244(2) 0.3392(3)
N1_4 N 0.0640(5) 0.3657(2) 0.4870(2)
N2_4 N 0.0120(5) 0.2829(2) 0.5548(3)
N5_4 N 0.0231(5) 0.1333(2) 0.7448(2)
N6_2 N 0.0752(6) 0.0830(2) 0.8379(2)
N7_4 N 0.0694(5) 0.4294(2) 0.3427(2)
N8_4 N 0.0323(5) 0.3696(2) 0.2526(2)
N11_4 N 0.0200(5) 0.2241(2) 0.0589(2)
N14_4 N 0.5882(6) 0.6985(2) 0.3645(3)
C19_4 C 0.1420(7) 0.2053(3) 0.9717(3)
H15_4 H 0.2029 0.2101 0.9374
N12_4 N 0.0625(5) 0.1487(2) 0.9825(2)
O14_2 O 0.2948(4) 0.0625(2) 0.9343(2)
C1_3 C 0.9789(6) 0.3453(3) 0.5326(3)
H1_3 H 0.9063 0.3703 0.5474
C4_3 C 0.9545(6) 0.2510(3) 0.6103(3)
C6_3 C 0.9597(6) 0.1795(3) 0.7025(3)
C7_3 C 0.7821(7) 0.2464(3) 0.6810(3)
H5_3 H 0.6975 0.2614 0.6928
C10_3 C 0.9912(6) 0.1242(3) 0.8095(3)
H8_3 H 0.9194 0.1446 0.8307
C11_4 C 0.9991(6) 0.3801(3) 0.3175(3)
H9_4 H 0.9351 0.3554 0.3405
C14_4 C 0.9759(6) 0.3194(3) 0.2120(3)
C16_4 C 0.9697(6) 0.2498(3) 0.1195(3)
C17_4 C 0.8166(7) 0.2412(3) 0.1991(3)
H13_4 H 0.7411 0.2199 0.2158
C18_4 C 0.9910(6) 0.1621(3) 0.0347(3)
H14_4 H 0.9283 0.1327 0.0529
N3_3 N 0.8344(5) 0.2735(2) 0.6258(3)
N4_3 N 0.8379(5) 0.2002(3) 0.7208(3)
N9_4 N 0.8680(5) 0.2897(3) 0.2362(3)
N10_4 N 0.8598(5) 0.2193(3) 0.1408(3)
C21_4 C 0.7994(6) 0.0362(3) 0.9278(3)
C23_4 C 0.5532(6) 0.0143(3) 0.9209(3)
H17_4 H 0.5394 0.0600 0.9299
C28_4 C 0.3075(7) 0.0009(3) 0.9201(3)
O2_4 O 0.7837(4) 0.09743(19) 0.9173(2)
C1_4 C 0.0211(6) 0.8453(3) 0.9674(3)
H1_4 H 0.0937 0.8703 0.9526
C4_4 C 0.0455(6) 0.7510(3) 0.8897(3)
C6_4 C 0.0403(6) 0.6795(3) 0.7975(3)
C7_4 C 0.2179(7) 0.7464(3) 0.8190(3)
H5_4 H 0.3025 0.7614 0.8072
C10_4 C 0.0088(6) 0.6242(3) 0.6905(3)
H8_4 H 0.0806 0.6446 0.6693
N3_4 N 0.1656(5) 0.7735(2) 0.8742(3)
N4_4 N 0.1621(5) 0.7002(3) 0.7792(3)
O15_2 O 0.2058(4) 0.9635(2) 0.9118(2)
C22_4 C 0.6821(6) 0.9900(3) 0.9166(3)
C24_4 C 0.4434(6) 0.9720(3) 0.9121(3)
C25_4 C 0.4630(6) 0.9044(3) 0.8980(3)
H18_4 H 0.3911 0.8751 0.8930
C26_4 C 0.5931(7) 0.8810(3) 0.8914(3)
C27_4 C 0.7007(6) 0.9217(3) 0.9020(3)
H19_4 H 0.7863 0.9039 0.8994
O5_4 O 0.5236(5) 0.7699(2) 0.8794(3)
O6_4 O 0.7274(5) 0.7942(2) 0.8550(3)
N13_4 N 0.6149(6) 0.8096(3) 0.8740(3)
loop_
_geom_bond_atom_site_label_1
_geom_bond_atom_site_label_2
_geom_bond_site_symmetry_1
_geom_bond_site_symmetry_2
C31 H20 1_555 1_555
O9 C36 1_555 1_555
C33 C32 1_555 1_555
H21 C33 1_555 1_555
C34 C33 1_555 1_555
O11 N14 1_555 1_555
N14 C34 1_555 1_555
Co7 O10 1_555 1_555
Co2 O1 1_555 1_555
C19 H15 1_555 1_555
C21 C22 1_555 1_555
C22 C23 1_555 1_555
C23 H17 1_555 1_555
C27 C22 1_555 1_555
H19 C27 1_555 1_555
O1 C21 1_555 1_555
O2 C21 1_555 1_555
O5 N13 1_555 1_555
O6 N13 1_555 1_555
N12 Co2 1_555 1_555
N13 C26 1_555 1_555
O14 Co2 1_555 1_555
O15 Co2 1_555 1_555
N15 Co2 1_555 1_555
C19 N12 1_555 1_555
C26 C27 1_555 1_555
Co3 O7 1_555 1_555
C1 H1 1_555 1_555
C2 H2 1_555 1_555
C3 C2 1_555 1_555
H3 C3 1_555 1_555
C4 C5 1_555 1_555
C5 H4 1_555 1_555
C6 C5 1_555 1_555
C7 H5 1_555 1_555
C8 H6 1_555 1_555
C9 C8 1_555 1_555
H7 C9 1_555 1_555
C10 H8 1_555 1_555
C11 H9 1_555 1_555
C12 H10 1_555 1_555
C13 C12 1_555 1_555
H11 C13 1_555 1_555
C14 C15 1_555 1_555
C15 H12 1_555 1_555
C16 C15 1_555 1_555
C17 H13 1_555 1_555
C18 H14 1_555 1_555
H16 C20 1_555 1_555
N1 Co3 1_555 1_555
N2 C1 1_555 1_555
N3 C4 1_555 1_555
N4 C6 1_555 1_555
N5 C6 1_555 1_555
N15 C9 1_555 1_555
N7 Co3 1_555 1_555
N8 C11 1_555 1_555
N9 C14 1_555 1_555
N10 C16 1_555 1_555
N11 C16 1_555 1_555
C1 N1 1_555 1_555
C2 N1 1_555 1_555
C3 N2 1_555 1_555
C4 N2 1_555 1_555
C7 N3 1_555 1_555
C7 N4 1_555 1_555
C8 N5 1_555 1_555
C10 N5 1_555 1_555
C10 N15 1_555 1_555
C11 N7 1_555 1_555
C12 N7 1_555 1_555
C13 N8 1_555 1_555
C14 N8 1_555 1_555
C17 N9 1_555 1_555
C17 N10 1_555 1_555
C18 N11 1_555 1_555
C20 N11 1_555 1_555
Co4 O17 1_555 1_555
C29 C30 1_555 1_555
C35 C30 1_555 1_555
H22 C35 1_555 1_555
C29 O8 1_555 1_555
C25 C24 1_555 1_555
H18 C25 1_555 1_555
C28 C24 1_555 1_555
O14 C28 1_555 1_555
O15 C28 1_555 1_555
C25_2 C24_2 1_555 1_555
H18_2 C25_2 1_555 1_555
O3 C28_2 1_555 1_555
Co7 O3 1_555 1_555
C27_2 C22_2 1_555 1_555
H19_2 C27_2 1_555 1_555
O5_2 N13_2 1_555 1_555
O6_2 N13_2 1_555 1_555
N13_2 C26_2 1_555 1_555
C26_2 C27_2 1_555 1_555
C1_2 H1_2 1_555 1_555
H3_2 C3_2 1_555 1_555
C4_2 C5_2 1_555 1_555
C5_2 H4_2 1_555 1_555
C6_2 C5_2 1_555 1_555
C7_2 H5_2 1_555 1_555
C8_2 H6_2 1_555 1_555
C9_2 C8_2 1_555 1_555
H7_2 C9_2 1_555 1_555
C10_2 H8_2 1_555 1_555
N2_2 C1_2 1_555 1_555
N3_2 C4_2 1_555 1_555
N4_2 C6_2 1_555 1_555
N5_2 C6_2 1_555 1_555
N6 C9_2 1_555 1_555
Co7 N6 1_555 1_555
C3_2 N2_2 1_555 1_555
C4_2 N2_2 1_555 1_555
C7_2 N3_2 1_555 1_555
C7_2 N4_2 1_555 1_555
C8_2 N5_2 1_555 1_555
C10_2 N5_2 1_555 1_555
C10_2 N6 1_555 1_555
Co4 O7_2 1_555 1_555
Co7 O13 1_555 1_555
C2_2 H2_2 1_555 1_555
C11_2 H9_2 1_555 1_555
C12_2 H10_2 1_555 1_555
C13_2 C12_2 1_555 1_555
H11_2 C13_2 1_555 1_555
C14_2 C15_2 1_555 1_555
C15_2 H12_2 1_555 1_555
C16_2 C15_2 1_555 1_555
C17_2 H13_2 1_555 1_555
C18_2 H14_2 1_555 1_555
C19_2 H15_2 1_555 1_555
C20_2 C19_2 1_555 1_555
H16_2 C20_2 1_555 1_555
C23_2 H17_2 1_555 1_555
C29_2 C30_2 1_555 1_555
C35_2 C30_2 1_555 1_555
H22_2 C35_2 1_555 1_555
O13 C21_2 1_555 1_555
O2_2 C21_2 1_555 1_555
O7_2 C29_2 1_555 1_555
O8_2 Co4 1_555 1_555
N1_2 Co4 1_555 1_555
N7_2 Co4 1_555 1_555
N8_2 C11_2 1_555 1_555
N9_2 C14_2 1_555 1_555
N10_2 C16_2 1_555 1_555
N11_2 C16_2 1_555 1_555
N12_2 Co7 1_555 1_555
C2_2 N1_2 1_555 1_555
C11_2 N7_2 1_555 1_555
C12_2 N7_2 1_555 1_555
C13_2 N8_2 1_555 1_555
C14_2 N8_2 1_555 1_555
C17_2 N9_2 1_555 1_555
C17_2 N10_2 1_555 1_555
C18_2 N11_2 1_555 1_555
C18_2 N12_2 1_555 1_555
C19_2 N12_2 1_555 1_555
C20_2 N11_2 1_555 1_555
C29_2 O8_2 1_555 1_555
C31_2 H20_2 1_555 1_555
C32_2 C31_2 1_555 1_555
C33_2 C32_2 1_555 1_555
H21_2 C33_2 1_555 1_555
C34_2 C33_2 1_555 1_555
C36_2 C32_2 1_555 1_555
O9_2 C36_2 1_555 1_555
O17 C36_2 1_555 1_555
O11_2 N14_2 1_555 1_555
N14_2 C34_2 1_555 1_555
C11_3 H9_3 1_555 1_555
C17_3 H13_3 1_555 1_555
C18_3 H14_3 1_555 1_555
C21_3 C22_3 1_555 1_555
C22_3 C23_3 1_555 1_555
C23_3 H17_3 1_555 1_555
C24_3 C23_3 1_555 1_555
C25_3 C24_3 1_555 1_555
H18_3 C25_3 1_555 1_555
C26_3 C25_3 1_555 1_555
C27_3 C22_3 1_555 1_555
H19_3 C27_3 1_555 1_555
C28_3 C24_3 1_555 1_555
O1_2 C21_3 1_555 1_555
O2_3 C21_3 1_555 1_555
O3_2 C28_3 1_555 1_555
O4_2 C28_3 1_555 1_555
O5_3 N13_3 1_555 1_555
O6_3 N13_3 1_555 1_555
N9_3 C14_3 1_555 1_555
N10_3 C16_3 1_555 1_555
N13_3 C26_3 1_555 1_555
Co4_2 O1_2 1_555 1_555
Co5 O3_2 1_555 1_555
C17_3 N9_3 1_555 1_555
C17_3 N10_3 1_555 1_555
C26_3 C27_3 1_555 1_555
O4_2 Co5 1_555 1_555
C29_3 C30_3 1_555 1_555
C33_3 C32_3 1_555 1_555
H21_3 C33_3 1_555 1_555
C34_3 C33_3 1_555 1_555
C35_3 C30_3 1_555 1_555
H22_3 C35_3 1_555 1_555
O11_3 N14_3 1_555 1_555
O12_3 N14_3 1_555 1_555
N14_3 C34_3 1_555 1_555
C29_3 O8_3 1_555 1_555
C34_3 C35_3 1_555 1_555
Co1 O7_3 1_555 1_555
C2_3 H2_3 1_555 1_555
C12_3 H10_3 1_555 1_555
C13_3 C12_3 1_555 1_555
H11_3 C13_3 1_555 1_555
C15_3 H12_3 1_555 1_555
C19_3 H15_3 1_555 1_555
C20_3 C19_3 1_555 1_555
H16_3 C20_3 1_555 1_555
C31_3 H20_3 1_555 1_555
O9_3 C36_3 1_555 1_555
N1_3 Co1 1_555 1_555
N7_3 Co1 1_555 1_555
N12_3 Co5 1_555 1_555
O17_2 Co5 1_555 1_555
N15_2 Co5 1_555 1_555
C2_3 N1_3 1_555 1_555
C12_3 N7_3 1_555 1_555
C13_3 N8_3 1_555 1_555
C19_3 N12_3 1_555 1_555
C20_3 N11_3 1_555 1_555
H3_3 C3_3 1_555 1_555
C5_3 H4_3 1_555 1_555
C8_3 H6_3 1_555 1_555
C9_3 C8_3 1_555 1_555
H7_3 C9_3 1_555 1_555
N15_2 C9_3 1_555 1_555
C3_3 N2_3 1_555 1_555
C8_3 N5_3 1_555 1_555
Co4_2 O7_4 1_555 1_555
C2_4 H2_4 1_555 1_555
C3_4 C2_4 1_555 1_555
H3_4 C3_4 1_555 1_555
C5_4 H4_4 1_555 1_555
C8_4 H6_4 1_555 1_555
C9_4 C8_4 1_555 1_555
H7_4 C9_4 1_555 1_555
C12_4 H10_4 1_555 1_555
C13_4 C12_4 1_555 1_555
H11_4 C13_4 1_555 1_555
C15_4 H12_4 1_555 1_555
H16_4 C20_4 1_555 1_555
C29_4 C30_4 1_555 1_555
C30_4 C31_4 1_555 1_555
C31_4 H20_4 1_555 1_555
C32_4 C31_4 1_555 1_555
C33_4 C32_4 1_555 1_555
H21_4 C33_4 1_555 1_555
C34_4 C33_4 1_555 1_555
C35_4 C30_4 1_555 1_555
H22_4 C35_4 1_555 1_555
C36_4 C32_4 1_555 1_555
O7_4 C29_4 1_555 1_555
O8_4 Co4_2 1_555 1_555
O9_4 C36_4 1_555 1_555
O17_2 C36_4 1_555 1_555
O11_4 N14_4 1_555 1_555
O12_4 N14_4 1_555 1_555
N1_4 Co4_2 1_555 1_555
N6_2 C9_4 1_555 1_555
N7_4 Co4_2 1_555 1_555
N14_4 C34_4 1_555 1_555
Co7_2 N6_2 1_555 1_555
C2_4 N1_4 1_555 1_555
C3_4 N2_4 1_555 1_555
C8_4 N5_4 1_555 1_555
C12_4 N7_4 1_555 1_555
C13_4 N8_4 1_555 1_555
C20_4 N11_4 1_555 1_555
C29_4 O8_4 1_555 1_555
C34_4 C35_4 1_555 1_555
C19_4 H15_4 1_555 1_555
N12_4 Co7_2 1_555 1_555
O14_2 Co7_2 1_555 1_555
C19_4 N12_4 1_555 1_555
C1_3 H1_3 1_555 1_555
C7_3 H5_3 1_555 1_555
C10_3 H8_3 1_555 1_555
C11_4 H9_4 1_555 1_555
C17_4 H13_4 1_555 1_555
C18_4 H14_4 1_555 1_555
N3_3 C4_3 1_555 1_555
N4_3 C6_3 1_555 1_555
N9_4 C14_4 1_555 1_555
N10_4 C16_4 1_555 1_555
C7_3 N3_3 1_555 1_555
C7_3 N4_3 1_555 1_555
C17_4 N9_4 1_555 1_555
C17_4 N10_4 1_555 1_555
C23_4 H17_4 1_555 1_555
O13_2 C21_4 1_555 1_555
O2_4 C21_4 1_555 1_555
O14_2 C28_4 1_555 1_555
C1_4 H1_4 1_555 1_555
C7_4 H5_4 1_555 1_555
C10_4 H8_4 1_555 1_555
N3_4 C4_4 1_555 1_555
N4_4 C6_4 1_555 1_555
C7_4 N3_4 1_555 1_555
C7_4 N4_4 1_555 1_555
C25_4 C24_4 1_555 1_555
H18_4 C25_4 1_555 1_555
C26_4 C25_4 1_555 1_555
C27_4 C22_4 1_555 1_555
H19_4 C27_4 1_555 1_555
O5_4 N13_4 1_555 1_555
O6_4 N13_4 1_555 1_555
N13_4 C26_4 1_555 1_555
C26_4 C27_4 1_555 1_555

#END
