
###############################################################################
#
# This file contains modified crystal structure data generated from the
# MOF subset of the Cambridge Structural Database (CSD) v543 
# hosted by the Cambridge Crystallographic Data Centre (CCDC).
#
# This work is licensed under the Creative Commons
# Attribution-NonCommercial-ShareAlike 4.0 International License.
# To view a copy of this license, visit
# http://creativecommons.org/licenses/by-nc-sa/4.0/
# or send a letter to
# Creative Commons, PO Box 1866, Mountain View, CA 94042, USA.
#
# CIF created using the CSD Python API on 29 September 2022
# The structure has been converted into the P1 space group
# The structure has a 3D framework
# The original CSD entry KEDLAJ07 is in the orthorhombic crystal system
# The framework has been calculated to contain at least 10.0% void space
# The void calculation uses a probe of radius 1.32A, grid spacing 0.4
#
###############################################################################

data_KEDLAJ07
_chemical_formula_moiety         '(C144 H88 Co8 N56 O48)n'
_symmetry_cell_setting           triclinic
_symmetry_space_group_name_H-M   'P 1'
_symmetry_Int_Tables_number      1
_space_group_name_Hall           'P 1'
loop_
_symmetry_equiv_pos_site_id
_symmetry_equiv_pos_as_xyz
1 x,y,z
_cell_length_a                   10.0581(19)
_cell_length_b                   19.595(4)
_cell_length_c                   20.491(4)
_cell_angle_alpha                90
_cell_angle_beta                 90
_cell_angle_gamma                90
_cell_volume                     4038.54
loop_
_atom_site_label
_atom_site_type_symbol
_atom_site_fract_x
_atom_site_fract_y
_atom_site_fract_z
Co1 Co 0.07880(9) 0.44975(5) 0.43932(4)
N1 N 0.0172(6) 0.2782(3) 0.5580(3)
N2 N 0.0721(6) 0.0782(3) 0.8405(3)
N3 N 0.0638(6) 0.3576(3) 0.4855(3)
N5 N 0.0270(5) 0.1322(3) 0.7489(3)
C12 C 0.0277(7) 0.2001(3) 0.6497(3)
H6 H 0.1077 0.1806 0.6350
C15 C 0.1488(8) 0.3028(4) 0.4778(4)
H8 H 0.2160 0.3003 0.4460
C16 C 0.1229(8) 0.2534(4) 0.5216(4)
H9 H 0.1668 0.2114 0.5264
C17 C 0.1339(8) 0.0897(4) 0.7356(3)
H10 H 0.1790 0.0848 0.6957
C18 C 0.1590(8) 0.0573(4) 0.7914(4)
H11 H 0.2264 0.0246 0.7970
Co4 Co 0.07880(9) 0.05025(5) 0.93932(4)
O7 O 0.0953(4) 0.5007(3) 0.5508(2)
O8 O 0.2059(4) 0.5357(2) 0.4182(2)
O9 O 0.2963(5) 0.4347(3) 0.4324(3)
N8 N 0.0721(6) 0.4218(3) 0.3405(3)
O1 O 0.9047(4) 0.4993(3) 0.4492(2)
C1 C 0.5532(6) 0.4871(4) 0.4222(3)
H1 H 0.5418 0.4404 0.4314
O4 O 0.7865(5) 0.4071(3) 0.4189(2)
C2 C 0.4424(6) 0.5286(3) 0.4132(3)
C3 C 0.7995(6) 0.4704(4) 0.4290(3)
C4 C 0.3074(6) 0.4985(3) 0.4219(3)
N4 N 0.8462(7) 0.2769(3) 0.6337(3)
C5 C 0.6803(6) 0.5141(3) 0.4177(3)
C6 C 0.5843(7) 0.6217(3) 0.3910(3)
C7 C 0.6962(7) 0.5821(3) 0.4024(3)
H2 H 0.7816 0.6013 0.3997
C8 C 0.4568(6) 0.5970(3) 0.3964(3)
H3 H 0.3825 0.6251 0.3891
O5 O 0.7120(7) 0.7143(4) 0.3608(4)
N6 N 0.6012(7) 0.6926(3) 0.3698(4)
C9 C 0.9865(6) 0.3406(3) 0.5334(3)
H4 H 0.9172 0.3682 0.5492
N7 N 0.8534(7) 0.2057(3) 0.7282(3)
C10 C 0.9948(7) 0.1233(3) 0.8130(3)
H5 H 0.9259 0.1467 0.8345
C11 C 0.9618(7) 0.2502(3) 0.6156(3)
C13 C 0.8004(8) 0.2529(5) 0.6897(5)
H7 H 0.7196 0.2717 0.7041
C14 C 0.9674(7) 0.1807(4) 0.7070(3)
O6 O 0.5050(8) 0.7269(4) 0.3609(6)
Co3 Co 0.92120(9) 0.55025(5) 0.56068(4)
O1_2 O 0.0953(4) 0.9993(3) 0.0508(2)
C1_2 C 0.4468(6) 0.9871(4) 0.0778(3)
H1_2 H 0.4582 0.9404 0.0686
O3 O 0.7037(5) 0.9347(3) 0.0676(3)
O4_2 O 0.2135(5) 0.9071(3) 0.0811(2)
C3_2 C 0.2005(6) 0.9704(4) 0.0710(3)
C4_2 C 0.6926(6) 0.9985(3) 0.0781(3)
Co2 Co 0.92120(9) 0.94975(5) 0.06068(4)
O7_2 O 0.9047(4) 0.0007(3) 0.9492(2)
N3_2 N 0.9362(6) 0.8576(3) 0.0145(3)
C15_2 C 0.8512(8) 0.8028(4) 0.0222(4)
H8_2 H 0.7840 0.8003 0.0540
N8_2 N 0.9279(6) 0.9218(3) 0.1595(3)
N1_2 N 0.9828(6) 0.7782(3) 0.9420(3)
N2_2 N 0.9279(6) 0.5782(3) 0.6595(3)
N5_2 N 0.9730(5) 0.6322(3) 0.7511(3)
C12_2 C 0.9723(7) 0.7001(3) 0.8503(3)
H6_2 H 0.8923 0.6806 0.8650
C16_2 C 0.8771(8) 0.7534(4) 0.9784(4)
H9_2 H 0.8332 0.7114 0.9736
C17_2 C 0.8661(8) 0.5897(4) 0.7644(3)
H10_2 H 0.8210 0.5848 0.8043
C18_2 C 0.8410(8) 0.5573(4) 0.7086(4)
H11_2 H 0.7736 0.5246 0.7030
C1_3 C 0.4468(6) 0.5129(4) 0.5778(3)
H1_3 H 0.4582 0.5596 0.5686
O2 O 0.7941(4) 0.4643(2) 0.5818(2)
O3_2 O 0.7037(5) 0.5653(3) 0.5676(3)
O4_3 O 0.2135(5) 0.5929(3) 0.5811(2)
C2_2 C 0.5576(6) 0.4714(3) 0.5868(3)
C3_3 C 0.2005(6) 0.5296(4) 0.5710(3)
C4_3 C 0.6926(6) 0.5015(3) 0.5781(3)
N4_2 N 0.1538(7) 0.7231(3) 0.3663(3)
C5_2 C 0.3197(6) 0.4859(3) 0.5823(3)
C6_2 C 0.4157(7) 0.3783(3) 0.6090(3)
C7_2 C 0.3038(7) 0.4179(3) 0.5976(3)
H2_2 H 0.2184 0.3987 0.6003
C8_2 C 0.5432(6) 0.4030(3) 0.6036(3)
H3_2 H 0.6175 0.3749 0.6109
O5_2 O 0.2880(7) 0.2857(4) 0.6392(4)
N6_2 N 0.3988(7) 0.3074(3) 0.6302(4)
C9_2 C 0.0135(6) 0.6594(3) 0.4666(3)
H4_2 H 0.0828 0.6318 0.4508
N7_2 N 0.1466(7) 0.7943(3) 0.2718(3)
C10_2 C 0.0052(7) 0.8767(3) 0.1870(3)
H5_2 H 0.0741 0.8533 0.1655
C11_2 C 0.0382(7) 0.7498(3) 0.3844(3)
C13_2 C 0.1996(8) 0.7471(5) 0.3103(5)
H7_2 H 0.2804 0.7283 0.2959
C14_2 C 0.0326(7) 0.8193(4) 0.2930(3)
O6_2 O 0.4950(8) 0.2731(4) 0.6391(6)
N1_3 N 0.9828(6) 0.7218(3) 0.4420(3)
N3_3 N 0.9362(6) 0.6424(3) 0.5145(3)
N5_3 N 0.9730(5) 0.8678(3) 0.2511(3)
C12_3 C 0.9723(7) 0.7999(3) 0.3503(3)
H6_3 H 0.8923 0.8194 0.3650
C15_3 C 0.8512(8) 0.6972(4) 0.5222(4)
H8_3 H 0.7840 0.6997 0.5540
C16_3 C 0.8771(8) 0.7466(4) 0.4784(4)
H9_3 H 0.8332 0.7886 0.4736
C17_3 C 0.8661(8) 0.9103(4) 0.2644(3)
H10_3 H 0.8210 0.9152 0.3043
C18_3 C 0.8410(8) 0.9427(4) 0.2086(4)
H11_3 H 0.7736 0.9754 0.2030
N1_4 N 0.0172(6) 0.2218(3) 0.0580(3)
N5_4 N 0.0270(5) 0.3678(3) 0.2489(3)
C12_4 C 0.0277(7) 0.2999(3) 0.1497(3)
H6_4 H 0.1077 0.3194 0.1350
C16_4 C 0.1229(8) 0.2466(4) 0.0216(4)
H9_4 H 0.1668 0.2886 0.0264
C17_4 C 0.1339(8) 0.4103(4) 0.2356(3)
H10_4 H 0.1790 0.4152 0.1957
C18_4 C 0.1590(8) 0.4427(4) 0.2914(4)
H11_4 H 0.2264 0.4754 0.2970
N3_4 N 0.0638(6) 0.1424(3) 0.9855(3)
C15_4 C 0.1488(8) 0.1972(4) 0.9778(4)
H8_4 H 0.2160 0.1997 0.9460
O9_2 O 0.2963(5) 0.0653(3) 0.9324(3)
C1_4 C 0.5532(6) 0.0129(4) 0.9222(3)
H1_4 H 0.5418 0.0596 0.9314
O4_4 O 0.7865(5) 0.0929(3) 0.9189(2)
C3_4 C 0.7995(6) 0.0296(4) 0.9290(3)
C4_4 C 0.3074(6) 0.0015(3) 0.9219(3)
O2_2 O 0.2941(4) 0.4643(2) 0.9182(2)
O3_3 O 0.2037(5) 0.5653(3) 0.9324(3)
C2_3 C 0.0576(6) 0.4714(3) 0.9132(3)
C4_5 C 0.1926(6) 0.5015(3) 0.9219(3)
C8_3 C 0.0432(6) 0.4030(3) 0.8964(3)
H3_3 H 0.1175 0.3749 0.8891
Co2_2 Co 0.42120(9) 0.55025(5) 0.93932(4)
N1_5 N 0.4828(6) 0.7218(3) 0.0580(3)
N2_3 N 0.4279(6) 0.9218(3) 0.3405(3)
N4_3 N 0.6538(7) 0.7231(3) 0.1337(3)
N5_5 N 0.4730(5) 0.8678(3) 0.2489(3)
C9_3 C 0.5135(6) 0.6594(3) 0.0334(3)
H4_3 H 0.5828 0.6318 0.0492
N7_3 N 0.6466(7) 0.7943(3) 0.2282(3)
C10_3 C 0.5052(7) 0.8767(3) 0.3130(3)
H5_3 H 0.5741 0.8533 0.3345
C11_3 C 0.5382(7) 0.7498(3) 0.1156(3)
C12_5 C 0.4723(7) 0.7999(3) 0.1497(3)
H6_5 H 0.3923 0.8194 0.1350
C13_3 C 0.6996(8) 0.7471(5) 0.1897(5)
H7_3 H 0.7804 0.7283 0.2041
C14_3 C 0.5326(7) 0.8193(4) 0.2070(3)
C16_5 C 0.3771(8) 0.7466(4) 0.0216(4)
H9_5 H 0.3332 0.7886 0.0264
C17_5 C 0.3661(8) 0.9103(4) 0.2356(3)
H10_5 H 0.3210 0.9152 0.1957
C18_5 C 0.3410(8) 0.9427(4) 0.2914(4)
H11_5 H 0.2736 0.9754 0.2970
Co3_2 Co 0.57880(9) 0.44975(5) 0.06068(4)
Co4_2 Co 0.42120(9) 0.94975(5) 0.43932(4)
O7_3 O 0.4047(4) 0.4993(3) 0.0508(2)
O1_3 O 0.5953(4) 0.5007(3) 0.9492(2)
C1_5 C 0.9468(6) 0.5129(4) 0.9222(3)
H1_5 H 0.9582 0.5596 0.9314
O4_5 O 0.7135(5) 0.5929(3) 0.9189(2)
C3_5 C 0.7005(6) 0.5296(4) 0.9290(3)
N3_5 N 0.4362(6) 0.6424(3) 0.9855(3)
C5_3 C 0.8197(6) 0.4859(3) 0.9177(3)
C6_3 C 0.9157(7) 0.3783(3) 0.8910(3)
C7_3 C 0.8038(7) 0.4179(3) 0.9024(3)
H2_3 H 0.7184 0.3987 0.8997
O5_3 O 0.7880(7) 0.2857(4) 0.8608(4)
N6_3 N 0.8988(7) 0.3074(3) 0.8698(4)
C15_5 C 0.3512(8) 0.6972(4) 0.9778(4)
H8_5 H 0.2840 0.6997 0.9460
O6_3 O 0.9950(8) 0.2731(4) 0.8609(6)
N8_3 N 0.4279(6) 0.5782(3) 0.8405(3)
Co1_2 Co 0.57880(9) 0.05025(5) 0.56068(4)
O1_4 O 0.4047(4) 0.0007(3) 0.5508(2)
C1_6 C 0.0532(6) 0.0129(4) 0.5778(3)
H1_6 H 0.0418 0.0596 0.5686
N1_6 N 0.5172(6) 0.2218(3) 0.4420(3)
O4_6 O 0.2865(5) 0.0929(3) 0.5811(2)
N2_4 N 0.5721(6) 0.4218(3) 0.1595(3)
C3_6 C 0.2995(6) 0.0296(4) 0.5710(3)
N3_6 N 0.5638(6) 0.1424(3) 0.5145(3)
N4_4 N 0.3462(7) 0.2231(3) 0.3663(3)
N5_6 N 0.5270(5) 0.3678(3) 0.2511(3)
C9_4 C 0.4865(6) 0.1594(3) 0.4666(3)
H4_4 H 0.4172 0.1318 0.4508
N7_4 N 0.3534(7) 0.2943(3) 0.2718(3)
C10_4 C 0.4948(7) 0.3767(3) 0.1870(3)
H5_4 H 0.4259 0.3533 0.1655
C11_4 C 0.4618(7) 0.2498(3) 0.3844(3)
C12_6 C 0.5277(7) 0.2999(3) 0.3503(3)
H6_6 H 0.6077 0.3194 0.3650
C13_4 C 0.3004(8) 0.2471(5) 0.3103(5)
H7_4 H 0.2196 0.2283 0.2959
C14_4 C 0.4674(7) 0.3193(4) 0.2930(3)
C15_6 C 0.6488(8) 0.1972(4) 0.5222(4)
H8_6 H 0.7160 0.1997 0.5540
C16_6 C 0.6229(8) 0.2466(4) 0.4784(4)
H9_6 H 0.6668 0.2886 0.4736
C17_6 C 0.6339(8) 0.4103(4) 0.2644(3)
H10_6 H 0.6790 0.4152 0.3043
C18_6 C 0.6590(8) 0.4427(4) 0.2086(4)
H11_6 H 0.7264 0.4754 0.2030
O9_3 O 0.7963(5) 0.0653(3) 0.5676(3)
N8_4 N 0.5721(6) 0.0782(3) 0.6595(3)
C5_4 C 0.1803(6) 0.9859(3) 0.5823(3)
C6_4 C 0.0843(7) 0.8783(3) 0.6090(3)
C7_4 C 0.1962(7) 0.9179(3) 0.5976(3)
H2_4 H 0.2816 0.8987 0.6003
O5_4 O 0.2120(7) 0.7857(4) 0.6392(4)
N6_4 N 0.1012(7) 0.8074(3) 0.6302(4)
O6_4 O 0.0050(8) 0.7731(4) 0.6391(6)
O7_4 O 0.5953(4) 0.9993(3) 0.4492(2)
O8_2 O 0.7059(4) 0.9643(2) 0.5818(2)
C4_6 C 0.8074(6) 0.0015(3) 0.5781(3)
C2_4 C 0.9424(6) 0.9714(3) 0.5868(3)
C8_4 C 0.9568(6) 0.9030(3) 0.6036(3)
H3_4 H 0.8825 0.8749 0.6109
C1_7 C 0.0532(6) 0.4871(4) 0.0778(3)
H1_7 H 0.0418 0.4404 0.0686
O4_7 O 0.2865(5) 0.4071(3) 0.0811(2)
C3_7 C 0.2995(6) 0.4704(4) 0.0710(3)
N3_7 N 0.5638(6) 0.3576(3) 0.0145(3)
C5_5 C 0.1803(6) 0.5141(3) 0.0823(3)
C6_5 C 0.0843(7) 0.6217(3) 0.1090(3)
C7_5 C 0.1962(7) 0.5821(3) 0.0976(3)
H2_5 H 0.2816 0.6013 0.1003
O5_5 O 0.2120(7) 0.7143(4) 0.1392(4)
N6_5 N 0.1012(7) 0.6926(3) 0.1302(4)
C15_7 C 0.6488(8) 0.3028(4) 0.0222(4)
H8_7 H 0.7160 0.3003 0.0540
O6_5 O 0.0050(8) 0.7269(4) 0.1391(6)
O8_3 O 0.7059(4) 0.5357(2) 0.0818(2)
O9_4 O 0.7963(5) 0.4347(3) 0.0676(3)
N1_7 N 0.5172(6) 0.2782(3) 0.9420(3)
N4_5 N 0.3462(7) 0.2769(3) 0.8663(3)
N5_7 N 0.5270(5) 0.1322(3) 0.7511(3)
C9_5 C 0.4865(6) 0.3406(3) 0.9666(3)
H4_5 H 0.4172 0.3682 0.9508
N7_5 N 0.3534(7) 0.2057(3) 0.7718(3)
C10_5 C 0.4948(7) 0.1233(3) 0.6870(3)
H5_5 H 0.4259 0.1467 0.6655
C11_5 C 0.4618(7) 0.2502(3) 0.8844(3)
C12_7 C 0.5277(7) 0.2001(3) 0.8503(3)
H6_7 H 0.6077 0.1806 0.8650
C13_5 C 0.3004(8) 0.2529(5) 0.8103(5)
H7_5 H 0.2196 0.2717 0.7959
C14_5 C 0.4674(7) 0.1807(4) 0.7930(3)
C16_7 C 0.6229(8) 0.2534(4) 0.9784(4)
H9_7 H 0.6668 0.2114 0.9736
C17_7 C 0.6339(8) 0.0897(4) 0.7644(3)
H10_7 H 0.6790 0.0848 0.8043
C18_7 C 0.6590(8) 0.0573(4) 0.7086(4)
H11_7 H 0.7264 0.0246 0.7030
C2_5 C 0.9424(6) 0.5286(3) 0.0868(3)
C4_7 C 0.8074(6) 0.4985(3) 0.0781(3)
C8_5 C 0.9568(6) 0.5970(3) 0.1036(3)
H3_5 H 0.8825 0.6251 0.1109
O2_3 O 0.2941(4) 0.0357(2) 0.4182(2)
C2_6 C 0.0576(6) 0.0286(3) 0.4132(3)
C8_6 C 0.0432(6) 0.0970(3) 0.3964(3)
H3_6 H 0.1175 0.1251 0.3891
O3_4 O 0.2037(5) 0.9347(3) 0.4324(3)
C4_8 C 0.1926(6) 0.9985(3) 0.4219(3)
C5_6 C 0.8197(6) 0.0141(3) 0.4177(3)
C6_6 C 0.9157(7) 0.1217(3) 0.3910(3)
C7_6 C 0.8038(7) 0.0821(3) 0.4024(3)
H2_6 H 0.7184 0.1013 0.3997
O5_6 O 0.7880(7) 0.2143(4) 0.3608(4)
N6_6 N 0.8988(7) 0.1926(3) 0.3698(4)
O6_6 O 0.9950(8) 0.2269(4) 0.3609(6)
C1_8 C 0.9468(6) 0.9871(4) 0.4222(3)
H1_8 H 0.9582 0.9404 0.4314
N1_8 N 0.4828(6) 0.7782(3) 0.5580(3)
O4_8 O 0.7135(5) 0.9071(3) 0.4189(2)
C3_8 C 0.7005(6) 0.9704(4) 0.4290(3)
N3_8 N 0.4362(6) 0.8576(3) 0.4855(3)
N4_6 N 0.6538(7) 0.7769(3) 0.6337(3)
N5_8 N 0.4730(5) 0.6322(3) 0.7489(3)
C9_6 C 0.5135(6) 0.8406(3) 0.5334(3)
H4_6 H 0.5828 0.8682 0.5492
N7_6 N 0.6466(7) 0.7057(3) 0.7282(3)
C10_6 C 0.5052(7) 0.6233(3) 0.8130(3)
H5_6 H 0.5741 0.6467 0.8345
C11_6 C 0.5382(7) 0.7502(3) 0.6156(3)
C12_8 C 0.4723(7) 0.7001(3) 0.6497(3)
H6_8 H 0.3923 0.6806 0.6350
C13_6 C 0.6996(8) 0.7529(5) 0.6897(5)
H7_6 H 0.7804 0.7717 0.7041
C14_6 C 0.5326(7) 0.6807(4) 0.7070(3)
C15_8 C 0.3512(8) 0.8028(4) 0.4778(4)
H8_8 H 0.2840 0.8003 0.4460
C16_8 C 0.3771(8) 0.7534(4) 0.5216(4)
H9_8 H 0.3332 0.7114 0.5264
C17_8 C 0.3661(8) 0.5897(4) 0.7356(3)
H10_8 H 0.3210 0.5848 0.6957
C18_8 C 0.3410(8) 0.5573(4) 0.7914(4)
H11_8 H 0.2736 0.5246 0.7970
O2_4 O 0.7941(4) 0.0357(2) 0.0818(2)
C2_7 C 0.5576(6) 0.0286(3) 0.0868(3)
C5_7 C 0.3197(6) 0.0141(3) 0.0823(3)
C6_7 C 0.4157(7) 0.1217(3) 0.1090(3)
C7_7 C 0.3038(7) 0.0821(3) 0.0976(3)
H2_7 H 0.2184 0.1013 0.1003
C8_7 C 0.5432(6) 0.0970(3) 0.1036(3)
H3_7 H 0.6175 0.1251 0.1109
O5_7 O 0.2880(7) 0.2143(4) 0.1392(4)
N6_7 N 0.3988(7) 0.1926(3) 0.1302(4)
O6_7 O 0.4950(8) 0.2269(4) 0.1391(6)
N4_7 N 0.1538(7) 0.7769(3) 0.8663(3)
C9_7 C 0.0135(6) 0.8406(3) 0.9666(3)
H4_7 H 0.0828 0.8682 0.9508
N7_7 N 0.1466(7) 0.7057(3) 0.7718(3)
C10_7 C 0.0052(7) 0.6233(3) 0.6870(3)
H5_7 H 0.0741 0.6467 0.6655
C11_7 C 0.0382(7) 0.7502(3) 0.8844(3)
C13_7 C 0.1996(8) 0.7529(5) 0.8103(5)
H7_7 H 0.2804 0.7717 0.7959
C14_7 C 0.0326(7) 0.6807(4) 0.7930(3)
O8_4 O 0.2059(4) 0.9643(2) 0.9182(2)
C2_8 C 0.4424(6) 0.9714(3) 0.9132(3)
C5_8 C 0.6803(6) 0.9859(3) 0.9177(3)
C6_8 C 0.5843(7) 0.8783(3) 0.8910(3)
C7_8 C 0.6962(7) 0.9179(3) 0.9024(3)
H2_8 H 0.7816 0.8987 0.8997
C8_8 C 0.4568(6) 0.9030(3) 0.8964(3)
H3_8 H 0.3825 0.8749 0.8891
O5_8 O 0.7120(7) 0.7857(4) 0.8608(4)
N6_8 N 0.6012(7) 0.8074(3) 0.8698(4)
O6_8 O 0.5050(8) 0.7731(4) 0.8609(6)
N4_8 N 0.8462(7) 0.2231(3) 0.1337(3)
C9_8 C 0.9865(6) 0.1594(3) 0.0334(3)
H4_8 H 0.9172 0.1318 0.0492
N7_8 N 0.8534(7) 0.2943(3) 0.2282(3)
C10_8 C 0.9948(7) 0.3767(3) 0.3130(3)
H5_8 H 0.9259 0.3533 0.3345
C11_8 C 0.9618(7) 0.2498(3) 0.1156(3)
C13_8 C 0.8004(8) 0.2471(5) 0.1897(5)
H7_8 H 0.7196 0.2283 0.2041
C14_8 C 0.9674(7) 0.3193(4) 0.2070(3)
loop_
_geom_bond_atom_site_label_1
_geom_bond_atom_site_label_2
_geom_bond_site_symmetry_1
_geom_bond_site_symmetry_2
N3 Co1 1_555 1_555
H6 C12 1_555 1_555
C15 N3 1_555 1_555
H8 C15 1_555 1_555
C16 N1 1_555 1_555
H9 C16 1_555 1_555
C17 N5 1_555 1_555
H10 C17 1_555 1_555
C18 N2 1_555 1_555
H11 C18 1_555 1_555
Co4 N2 1_555 1_555
O7 Co1 1_555 1_555
O8 Co1 1_555 1_555
O9 Co1 1_555 1_555
N8 Co1 1_555 1_555
C15 C16 1_555 1_555
C17 C18 1_555 1_555
O1 C3 1_555 1_555
C1 H1 1_555 1_555
O8 C4 1_555 1_555
O9 C4 1_555 1_555
O4 C3 1_555 1_555
C2 C1 1_555 1_555
C3 C5 1_555 1_555
C4 C2 1_555 1_555
N4 C11 1_555 1_555
C5 C1 1_555 1_555
C6 C7 1_555 1_555
C7 C5 1_555 1_555
H2 C7 1_555 1_555
C8 C2 1_555 1_555
H3 C8 1_555 1_555
O5 N6 1_555 1_555
N6 C6 1_555 1_555
H4 C9 1_555 1_555
N7 C13 1_555 1_555
C10 H5 1_555 1_555
C13 N4 1_555 1_555
H7 C13 1_555 1_555
O6 N6 1_555 1_555
Co3 O1 1_555 1_555
C6 C8 1_555 1_555
N7 C14 1_555 1_555
O1_2 C3_2 1_555 1_555
C1_2 H1_2 1_555 1_555
O3 C4_2 1_555 1_555
O4_2 C3_2 1_555 1_555
O3 Co2 1_555 1_555
N3_2 Co2 1_555 1_555
C15_2 N3_2 1_555 1_555
H8_2 C15_2 1_555 1_555
N8_2 Co2 1_555 1_555
H6_2 C12_2 1_555 1_555
C16_2 N1_2 1_555 1_555
H9_2 C16_2 1_555 1_555
C17_2 N5_2 1_555 1_555
H10_2 C17_2 1_555 1_555
C18_2 N2_2 1_555 1_555
H11_2 C18_2 1_555 1_555
Co3 N2_2 1_555 1_555
C17_2 C18_2 1_555 1_555
O7 C3_3 1_555 1_555
C1_3 H1_3 1_555 1_555
O2 C4_3 1_555 1_555
O3_2 C4_3 1_555 1_555
O4_3 C3_3 1_555 1_555
C2_2 C1_3 1_555 1_555
C3_3 C5_2 1_555 1_555
C4_3 C2_2 1_555 1_555
N4_2 C11_2 1_555 1_555
C5_2 C1_3 1_555 1_555
C6_2 C7_2 1_555 1_555
C7_2 C5_2 1_555 1_555
H2_2 C7_2 1_555 1_555
C8_2 C2_2 1_555 1_555
H3_2 C8_2 1_555 1_555
O5_2 N6_2 1_555 1_555
N6_2 C6_2 1_555 1_555
H4_2 C9_2 1_555 1_555
N7_2 C13_2 1_555 1_555
C10_2 H5_2 1_555 1_555
C13_2 N4_2 1_555 1_555
H7_2 C13_2 1_555 1_555
O6_2 N6_2 1_555 1_555
Co3 O2 1_555 1_555
O3_2 Co3 1_555 1_555
C6_2 C8_2 1_555 1_555
N7_2 C14_2 1_555 1_555
N3_3 Co3 1_555 1_555
H6_3 C12_3 1_555 1_555
C15_3 N3_3 1_555 1_555
H8_3 C15_3 1_555 1_555
C16_3 N1_3 1_555 1_555
H9_3 C16_3 1_555 1_555
C17_3 N5_3 1_555 1_555
H10_3 C17_3 1_555 1_555
C18_3 N8_2 1_555 1_555
H11_3 C18_3 1_555 1_555
C15_3 C16_3 1_555 1_555
C17_3 C18_3 1_555 1_555
H6_4 C12_4 1_555 1_555
C16_4 N1_4 1_555 1_555
H9_4 C16_4 1_555 1_555
C17_4 N5_4 1_555 1_555
H10_4 C17_4 1_555 1_555
C18_4 N8 1_555 1_555
H11_4 C18_4 1_555 1_555
C17_4 C18_4 1_555 1_555
N3_4 Co4 1_555 1_555
C15_4 N3_4 1_555 1_555
H8_4 C15_4 1_555 1_555
O9_2 Co4 1_555 1_555
O7_2 C3_4 1_555 1_555
C1_4 H1_4 1_555 1_555
O9_2 C4_4 1_555 1_555
O4_4 C3_4 1_555 1_555
O2_2 C4_5 1_555 1_555
O3_3 C4_5 1_555 1_555
C4_5 C2_3 1_555 1_555
C8_3 C2_3 1_555 1_555
H3_3 C8_3 1_555 1_555
Co2_2 O2_2 1_555 1_555
O3_3 Co2_2 1_555 1_555
N1_5 C9_3 1_555 1_555
N2_3 C10_3 1_555 1_555
N4_3 C11_3 1_555 1_555
N5_5 C10_3 1_555 1_555
H4_3 C9_3 1_555 1_555
N7_3 C13_3 1_555 1_555
C10_3 H5_3 1_555 1_555
C11_3 N1_5 1_555 1_555
C12_5 C11_3 1_555 1_555
H6_5 C12_5 1_555 1_555
C13_3 N4_3 1_555 1_555
H7_3 C13_3 1_555 1_555
C14_3 N5_5 1_555 1_555
C16_5 N1_5 1_555 1_555
H9_5 C16_5 1_555 1_555
C17_5 N5_5 1_555 1_555
H10_5 C17_5 1_555 1_555
C18_5 N2_3 1_555 1_555
H11_5 C18_5 1_555 1_555
Co4_2 N2_3 1_555 1_555
N7_3 C14_3 1_555 1_555
C12_5 C14_3 1_555 1_555
C17_5 C18_5 1_555 1_555
Co3_2 O7_3 1_555 1_555
Co2_2 O1_3 1_555 1_555
O1_3 C3_5 1_555 1_555
C1_5 H1_5 1_555 1_555
O4_5 C3_5 1_555 1_555
C3_5 C5_3 1_555 1_555
N3_5 Co2_2 1_555 1_555
C5_3 C1_5 1_555 1_555
C6_3 C7_3 1_555 1_555
C7_3 C5_3 1_555 1_555
H2_3 C7_3 1_555 1_555
O5_3 N6_3 1_555 1_555
N6_3 C6_3 1_555 1_555
C15_5 N3_5 1_555 1_555
H8_5 C15_5 1_555 1_555
O6_3 N6_3 1_555 1_555
N8_3 Co2_2 1_555 1_555
Co1_2 O1_4 1_555 1_555
O1_4 C3_6 1_555 1_555
C1_6 H1_6 1_555 1_555
N1_6 C9_4 1_555 1_555
O4_6 C3_6 1_555 1_555
N2_4 C10_4 1_555 1_555
N3_6 Co1_2 1_555 1_555
N4_4 C11_4 1_555 1_555
N5_6 C10_4 1_555 1_555
C9_4 N3_6 1_555 1_555
H4_4 C9_4 1_555 1_555
N7_4 C13_4 1_555 1_555
C10_4 H5_4 1_555 1_555
C11_4 N1_6 1_555 1_555
C12_6 C11_4 1_555 1_555
H6_6 C12_6 1_555 1_555
C13_4 N4_4 1_555 1_555
H7_4 C13_4 1_555 1_555
C14_4 N5_6 1_555 1_555
C15_6 N3_6 1_555 1_555
H8_6 C15_6 1_555 1_555
C16_6 N1_6 1_555 1_555
H9_6 C16_6 1_555 1_555
C17_6 N5_6 1_555 1_555
H10_6 C17_6 1_555 1_555
C18_6 N2_4 1_555 1_555
H11_6 C18_6 1_555 1_555
Co3_2 N2_4 1_555 1_555
O9_3 Co1_2 1_555 1_555
N8_4 Co1_2 1_555 1_555
N7_4 C14_4 1_555 1_555
C12_6 C14_4 1_555 1_555
C15_6 C16_6 1_555 1_555
C17_6 C18_6 1_555 1_555
C6_4 C7_4 1_555 1_555
C7_4 C5_4 1_555 1_555
H2_4 C7_4 1_555 1_555
O5_4 N6_4 1_555 1_555
N6_4 C6_4 1_555 1_555
O6_4 N6_4 1_555 1_555
Co4_2 O7_4 1_555 1_555
O9_3 C4_6 1_555 1_555
C8_4 C2_4 1_555 1_555
H3_4 C8_4 1_555 1_555
O7_3 C3_7 1_555 1_555
C1_7 H1_7 1_555 1_555
O4_7 C3_7 1_555 1_555
C3_7 C5_5 1_555 1_555
N3_7 Co3_2 1_555 1_555
C5_5 C1_7 1_555 1_555
C6_5 C7_5 1_555 1_555
C7_5 C5_5 1_555 1_555
H2_5 C7_5 1_555 1_555
O5_5 N6_5 1_555 1_555
N6_5 C6_5 1_555 1_555
C15_7 N3_7 1_555 1_555
H8_7 C15_7 1_555 1_555
O6_5 N6_5 1_555 1_555
O8_3 Co3_2 1_555 1_555
O9_4 Co3_2 1_555 1_555
N1_7 C9_5 1_555 1_555
N8_4 C10_5 1_555 1_555
N4_5 C11_5 1_555 1_555
N5_7 C10_5 1_555 1_555
H4_5 C9_5 1_555 1_555
N7_5 C13_5 1_555 1_555
C10_5 H5_5 1_555 1_555
C11_5 N1_7 1_555 1_555
C12_7 C11_5 1_555 1_555
H6_7 C12_7 1_555 1_555
C13_5 N4_5 1_555 1_555
H7_5 C13_5 1_555 1_555
C14_5 N5_7 1_555 1_555
C16_7 N1_7 1_555 1_555
H9_7 C16_7 1_555 1_555
C17_7 N5_7 1_555 1_555
H10_7 C17_7 1_555 1_555
C18_7 N8_4 1_555 1_555
H11_7 C18_7 1_555 1_555
N7_5 C14_5 1_555 1_555
C12_7 C14_5 1_555 1_555
C17_7 C18_7 1_555 1_555
O8_3 C4_7 1_555 1_555
O9_4 C4_7 1_555 1_555
C4_7 C2_5 1_555 1_555
C8_5 C2_5 1_555 1_555
H3_5 C8_5 1_555 1_555
C8_6 C2_6 1_555 1_555
H3_6 C8_6 1_555 1_555
O3_4 C4_8 1_555 1_555
O3_4 Co4_2 1_555 1_555
C6_6 C7_6 1_555 1_555
C7_6 C5_6 1_555 1_555
H2_6 C7_6 1_555 1_555
O5_6 N6_6 1_555 1_555
N6_6 C6_6 1_555 1_555
O6_6 N6_6 1_555 1_555
O7_4 C3_8 1_555 1_555
C1_8 H1_8 1_555 1_555
N1_8 C9_6 1_555 1_555
O4_8 C3_8 1_555 1_555
N8_3 C10_6 1_555 1_555
N3_8 Co4_2 1_555 1_555
N4_6 C11_6 1_555 1_555
N5_8 C10_6 1_555 1_555
C9_6 N3_8 1_555 1_555
H4_6 C9_6 1_555 1_555
N7_6 C13_6 1_555 1_555
C10_6 H5_6 1_555 1_555
C11_6 N1_8 1_555 1_555
C12_8 C11_6 1_555 1_555
H6_8 C12_8 1_555 1_555
C13_6 N4_6 1_555 1_555
H7_6 C13_6 1_555 1_555
C14_6 N5_8 1_555 1_555
C15_8 N3_8 1_555 1_555
H8_8 C15_8 1_555 1_555
C16_8 N1_8 1_555 1_555
H9_8 C16_8 1_555 1_555
C17_8 N5_8 1_555 1_555
H10_8 C17_8 1_555 1_555
C18_8 N8_3 1_555 1_555
H11_8 C18_8 1_555 1_555
N7_6 C14_6 1_555 1_555
C12_8 C14_6 1_555 1_555
C15_8 C16_8 1_555 1_555
C17_8 C18_8 1_555 1_555
C6_7 C7_7 1_555 1_555
C7_7 C5_7 1_555 1_555
H2_7 C7_7 1_555 1_555
C8_7 C2_7 1_555 1_555
H3_7 C8_7 1_555 1_555
O5_7 N6_7 1_555 1_555
N6_7 C6_7 1_555 1_555
O6_7 N6_7 1_555 1_555
C6_7 C8_7 1_555 1_555
N4_7 C11_7 1_555 1_555
H4_7 C9_7 1_555 1_555
N7_7 C13_7 1_555 1_555
C10_7 H5_7 1_555 1_555
C13_7 N4_7 1_555 1_555
H7_7 C13_7 1_555 1_555
N7_7 C14_7 1_555 1_555
C6_8 C7_8 1_555 1_555
C7_8 C5_8 1_555 1_555
H2_8 C7_8 1_555 1_555
C8_8 C2_8 1_555 1_555
H3_8 C8_8 1_555 1_555
O5_8 N6_8 1_555 1_555
N6_8 C6_8 1_555 1_555
O6_8 N6_8 1_555 1_555
C6_8 C8_8 1_555 1_555
N4_8 C11_8 1_555 1_555
H4_8 C9_8 1_555 1_555
N7_8 C13_8 1_555 1_555
C10_8 H5_8 1_555 1_555
C13_8 N4_8 1_555 1_555
H7_8 C13_8 1_555 1_555
N7_8 C14_8 1_555 1_555

#END
