
###############################################################################
#
# This file contains modified crystal structure data generated from the
# MOF subset of the Cambridge Structural Database (CSD) v543 
# hosted by the Cambridge Crystallographic Data Centre (CCDC).
#
# This work is licensed under the Creative Commons
# Attribution-NonCommercial-ShareAlike 4.0 International License.
# To view a copy of this license, visit
# http://creativecommons.org/licenses/by-nc-sa/4.0/
# or send a letter to
# Creative Commons, PO Box 1866, Mountain View, CA 94042, USA.
#
# CIF created using the CSD Python API on 29 September 2022
# The structure has been converted into the P1 space group
# The structure has a 3D framework
# The original CSD entry KEDLAJ02 is in the orthorhombic crystal system
# The original CSD entry KEDLAJ02 is in a Sohncke space group
# The framework has been calculated to contain at least 10.0% void space
# The void calculation uses a probe of radius 1.32A, grid spacing 0.4
#
###############################################################################

data_KEDLAJ02
_chemical_formula_moiety         '(C144 H88 Co8 N56 O47)n'
_symmetry_cell_setting           triclinic
_symmetry_space_group_name_H-M   'P 1'
_symmetry_Int_Tables_number      1
_space_group_name_Hall           'P 1'
loop_
_symmetry_equiv_pos_site_id
_symmetry_equiv_pos_as_xyz
1 x,y,z
_cell_length_a                   10.0364(17)
_cell_length_b                   19.714(3)
_cell_length_c                   20.177(3)
_cell_angle_alpha                90
_cell_angle_beta                 90
_cell_angle_gamma                90
_cell_volume                     3992.17
loop_
_atom_site_label
_atom_site_type_symbol
_atom_site_fract_x
_atom_site_fract_y
_atom_site_fract_z
C31 C 0.0545(6) 0.0042(3) 0.5785(3)
H20 H 0.0462 0.0512 0.5689
C36 C 0.2977(6) 0.0208(3) 0.5693(3)
O9 O 0.2886(4) 0.08201(19) 0.5810(2)
Co3 Co 0.57690(8) 0.04098(3) 0.55747(4)
C32 C 0.1796(6) 0.9762(3) 0.5826(3)
C33 C 0.1924(6) 0.9082(3) 0.5992(3)
H21 H 0.2775 0.8872 0.6016
C34 C 0.0770(7) 0.8718(3) 0.6124(3)
O10 O 0.4035(4) 0.99075(17) 0.54687(18)
O11 O 0.1959(5) 0.7722(2) 0.6300(3)
N14 N 0.0886(6) 0.8008(2) 0.6354(3)
Co7 Co 0.41656(8) 0.94494(3) 0.43864(4)
Co2 Co 0.58344(8) 0.44494(3) 0.06136(4)
C19 C 0.6423(6) 0.2948(3) 0.0282(3)
H15 H 0.7049 0.2899 0.0632
C21 C 0.2993(6) 0.4639(3) 0.0722(3)
C22 C 0.1826(6) 0.5105(3) 0.0835(3)
C23 C 0.0528(6) 0.4856(3) 0.0793(3)
H17 H 0.0387 0.4388 0.0701
C26 C 0.0928(6) 0.6192(3) 0.1086(3)
C27 C 0.2008(6) 0.5785(3) 0.0986(3)
H19 H 0.2882 0.5967 0.1019
O1 O 0.4075(4) 0.49236(16) 0.05259(18)
O2 O 0.2836(4) 0.40249(18) 0.0826(2)
O5 O 0.0237(5) 0.7302(2) 0.1203(3)
O6 O 0.2276(4) 0.7064(2) 0.1447(2)
N12 N 0.5627(5) 0.3514(2) 0.0177(2)
N13 N 0.1155(6) 0.6905(3) 0.1261(3)
O14 O 0.7952(4) 0.43757(19) 0.0659(2)
O15 O 0.7062(4) 0.5368(2) 0.0884(2)
N15 N 0.5745(5) 0.4174(2) 0.1621(2)
C1 C 0.4781(6) 0.1549(3) 0.4675(3)
H1 H 0.4033 0.1297 0.4523
C2 C 0.6540(6) 0.1853(3) 0.5205(3)
H2 H 0.7269 0.1843 0.5505
C3 C 0.6253(6) 0.2368(3) 0.4801(3)
H3 H 0.6726 0.2783 0.4759
C4 C 0.4545(6) 0.2490(3) 0.3898(3)
C5 C 0.5231(6) 0.2976(3) 0.3542(3)
H4 H 0.6081 0.3140 0.3674
C6 C 0.4586(6) 0.3205(3) 0.2980(3)
C7 C 0.2817(6) 0.2540(3) 0.3186(3)
H5 H 0.1955 0.2388 0.3061
C8 C 0.6341(6) 0.4052(3) 0.2686(3)
H6 H 0.6790 0.4092 0.3099
C9 C 0.6662(7) 0.4352(3) 0.2117(3)
H7 H 0.7405 0.4644 0.2055
C10 C 0.4903(6) 0.3762(3) 0.1904(3)
H8 H 0.4169 0.3555 0.1686
C11 C 0.5002(6) 0.1193(3) 0.6822(3)
H9 H 0.4355 0.1445 0.6583
C12 C 0.6532(6) 0.0476(3) 0.7078(3)
H10 H 0.7161 0.0118 0.7038
C13 C 0.6319(6) 0.0838(3) 0.7628(3)
H11 H 0.6760 0.0788 0.8042
C14 C 0.4761(6) 0.1803(3) 0.7879(3)
C15 C 0.5341(6) 0.1980(3) 0.8481(3)
H12 H 0.6114 0.1763 0.8651
C16 C 0.4692(6) 0.2497(3) 0.8807(3)
C17 C 0.3176(7) 0.2588(3) 0.8005(3)
H13 H 0.2413 0.2812 0.7833
C18 C 0.4917(6) 0.3381(3) 0.9654(3)
H14 H 0.4281 0.3681 0.9465
C20 C 0.6176(6) 0.2480(3) 0.9814(3)
H16 H 0.6587 0.2048 0.9769
O7 O 0.7968(4) 0.05968(18) 0.5668(2)
N1 N 0.5628(5) 0.1338(2) 0.5125(2)
N2 N 0.5120(5) 0.2173(2) 0.4454(2)
N3 N 0.3330(5) 0.2265(2) 0.3740(3)
N4 N 0.3383(5) 0.2999(2) 0.2795(3)
N5 N 0.5218(5) 0.3669(2) 0.2553(2)
N7 N 0.5702(6) 0.0699(2) 0.6572(2)
N8 N 0.5317(5) 0.1302(2) 0.7473(2)
N9 N 0.3677(5) 0.2100(3) 0.7633(2)
N10 N 0.3605(5) 0.2804(2) 0.8592(2)
N11 N 0.5208(5) 0.2755(2) 0.9415(2)
Co4 Co 0.42310(8) 0.54098(3) 0.94253(4)
O17 O 0.5965(4) 0.49075(17) 0.95313(18)
C29 C 0.8067(6) 0.9974(3) 0.5771(3)
C30 C 0.9393(6) 0.9661(3) 0.5882(3)
C35 C 0.9507(6) 0.8983(3) 0.6063(3)
H22 H 0.8740 0.8713 0.6143
O8 O 0.7038(4) 0.95934(18) 0.5783(2)
O12 O 0.9913(4) 0.7755(2) 0.6615(2)
O13 O 0.5925(4) 0.99236(16) 0.44741(18)
C24 C 0.9444(6) 0.5280(3) 0.0882(3)
C25 C 0.9638(6) 0.5960(3) 0.1021(3)
H18 H 0.8903 0.6259 0.1070
C28 C 0.8066(6) 0.4994(3) 0.0801(3)
C24_2 C 0.0556(6) 0.0280(3) 0.4118(3)
C25_2 C 0.0362(6) 0.0960(3) 0.3979(3)
H18_2 H 0.1097 0.1259 0.3930
O4 O 0.2938(4) 0.0368(2) 0.4116(2)
C28_2 C 0.1934(6) 0.9994(3) 0.4199(3)
O3 O 0.2048(4) 0.93757(19) 0.4341(2)
C22_2 C 0.8174(6) 0.0105(3) 0.4165(3)
C26_2 C 0.9072(6) 0.1192(3) 0.3914(3)
C27_2 C 0.7992(6) 0.0785(3) 0.4014(3)
H19_2 H 0.7118 0.0967 0.3981
O5_2 O 0.9763(5) 0.2302(2) 0.3797(3)
O6_2 O 0.7724(4) 0.2064(2) 0.3553(2)
N13_2 N 0.8845(6) 0.1905(3) 0.3739(3)
C1_2 C 0.5219(6) 0.6549(3) 0.0325(3)
H1_2 H 0.5967 0.6297 0.0477
C3_2 C 0.3747(6) 0.7368(3) 0.0199(3)
H3_2 H 0.3274 0.7783 0.0241
C4_2 C 0.5455(6) 0.7490(3) 0.1102(3)
C5_2 C 0.4769(6) 0.7976(3) 0.1458(3)
H4_2 H 0.3919 0.8140 0.1326
C6_2 C 0.5414(6) 0.8205(3) 0.2020(3)
C7_2 C 0.7183(6) 0.7540(3) 0.1814(3)
H5_2 H 0.8045 0.7388 0.1939
C8_2 C 0.3659(6) 0.9052(3) 0.2314(3)
H6_2 H 0.3210 0.9092 0.1901
C9_2 C 0.3338(7) 0.9352(3) 0.2883(3)
H7_2 H 0.2595 0.9644 0.2945
C10_2 C 0.5097(6) 0.8762(3) 0.3096(3)
H8_2 H 0.5831 0.8555 0.3314
N2_2 N 0.4880(5) 0.7173(2) 0.0546(2)
N3_2 N 0.6670(5) 0.7265(2) 0.1260(3)
N4_2 N 0.6617(5) 0.7999(2) 0.2205(3)
N5_2 N 0.4782(5) 0.8669(2) 0.2447(2)
N6 N 0.4255(5) 0.9174(2) 0.3379(2)
C2_2 C 0.3460(6) 0.6853(3) 0.9795(3)
H2_2 H 0.2731 0.6843 0.9495
C11_2 C 0.4998(6) 0.6193(3) 0.8178(3)
H9_2 H 0.5645 0.6445 0.8417
C12_2 C 0.3468(6) 0.5476(3) 0.7922(3)
H10_2 H 0.2839 0.5118 0.7962
C13_2 C 0.3681(6) 0.5838(3) 0.7372(3)
H11_2 H 0.3240 0.5788 0.6958
C14_2 C 0.5239(6) 0.6803(3) 0.7121(3)
C15_2 C 0.4659(6) 0.6980(3) 0.6519(3)
H12_2 H 0.3886 0.6763 0.6349
C16_2 C 0.5308(6) 0.7497(3) 0.6193(3)
C17_2 C 0.6824(7) 0.7588(3) 0.6995(3)
H13_2 H 0.7587 0.7812 0.7167
C18_2 C 0.5083(6) 0.8381(3) 0.5346(3)
H14_2 H 0.5719 0.8681 0.5535
C19_2 C 0.3577(6) 0.7948(3) 0.4718(3)
H15_2 H 0.2951 0.7899 0.4368
C20_2 C 0.3824(6) 0.7480(3) 0.5186(3)
H16_2 H 0.3413 0.7048 0.5231
C21_2 C 0.7007(6) 0.9639(3) 0.4278(3)
C23_2 C 0.9472(6) 0.9856(3) 0.4207(3)
H17_2 H 0.9613 0.9388 0.4299
C29_2 C 0.1933(6) 0.4974(3) 0.9229(3)
C30_2 C 0.0607(6) 0.4661(3) 0.9118(3)
C35_2 C 0.0493(6) 0.3983(3) 0.8937(3)
H22_2 H 0.1260 0.3713 0.8857
O2_2 O 0.7164(4) 0.90249(18) 0.4174(2)
O7_2 O 0.2032(4) 0.55968(18) 0.9332(2)
O8_2 O 0.2962(4) 0.45934(18) 0.9217(2)
O12_2 O 0.0087(4) 0.2755(2) 0.8385(2)
N1_2 N 0.4372(5) 0.6338(2) 0.9875(2)
N7_2 N 0.4298(6) 0.5699(2) 0.8428(2)
N8_2 N 0.4683(5) 0.6302(2) 0.7527(2)
N9_2 N 0.6323(5) 0.7100(3) 0.7367(2)
N10_2 N 0.6395(5) 0.7804(2) 0.6408(2)
N11_2 N 0.4792(5) 0.7755(2) 0.5585(2)
N12_2 N 0.4373(5) 0.8514(2) 0.4823(2)
C31_2 C 0.9455(6) 0.5042(3) 0.9215(3)
H20_2 H 0.9538 0.5512 0.9311
C32_2 C 0.8204(6) 0.4762(3) 0.9174(3)
C33_2 C 0.8076(6) 0.4082(3) 0.9008(3)
H21_2 H 0.7225 0.3872 0.8984
C34_2 C 0.9230(7) 0.3718(3) 0.8876(3)
C36_2 C 0.7023(6) 0.5208(3) 0.9307(3)
O9_2 O 0.7114(4) 0.58201(19) 0.9190(2)
O11_2 O 0.8041(5) 0.2722(2) 0.8700(3)
N14_2 N 0.9114(6) 0.3008(2) 0.8646(3)
O16 O 0.0965(4) 0.00925(17) 0.04687(18)
H9_3 H 0.0645 0.8555 0.1583
C14_3 C 0.0239(6) 0.8197(3) 0.2879(3)
C16_3 C 0.0308(6) 0.7503(3) 0.3807(3)
C17_3 C 0.1824(7) 0.7412(3) 0.3005(3)
H13_3 H 0.2587 0.7188 0.2833
C18_3 C 0.0083(6) 0.6619(3) 0.4654(3)
H14_3 H 0.0719 0.6319 0.4465
C21_3 C 0.2007(6) 0.5361(3) 0.5722(3)
C22_3 C 0.3174(6) 0.4895(3) 0.5835(3)
C23_3 C 0.4472(6) 0.5144(3) 0.5793(3)
H17_3 H 0.4613 0.5612 0.5701
C24_3 C 0.5556(6) 0.4720(3) 0.5882(3)
C25_3 C 0.5362(6) 0.4040(3) 0.6021(3)
H18_3 H 0.6097 0.3741 0.6070
C26_3 C 0.4072(6) 0.3808(3) 0.6086(3)
C27_3 C 0.2992(6) 0.4215(3) 0.5986(3)
H19_3 H 0.2118 0.4033 0.6019
C28_3 C 0.6934(6) 0.5006(3) 0.5801(3)
O1_2 O 0.0925(4) 0.50764(16) 0.55259(18)
O2_3 O 0.2164(4) 0.59751(18) 0.5826(2)
O3_2 O 0.7048(4) 0.56243(19) 0.5659(2)
O4_2 O 0.7938(4) 0.4632(2) 0.5884(2)
O5_3 O 0.4763(5) 0.2698(2) 0.6203(3)
O6_3 O 0.2724(4) 0.2936(2) 0.6447(2)
N9_3 N 0.1323(5) 0.7900(3) 0.2633(2)
N10_3 N 0.1395(5) 0.7196(2) 0.3592(2)
N13_3 N 0.3845(6) 0.3095(3) 0.6261(3)
Co4_2 Co 0.07690(8) 0.45902(3) 0.44253(4)
Co5 Co 0.91656(8) 0.55506(3) 0.56136(4)
C29_3 C 0.6933(6) 0.0026(3) 0.0771(3)
C30_3 C 0.5607(6) 0.0339(3) 0.0882(3)
C32_3 C 0.3204(6) 0.0238(3) 0.0826(3)
C33_3 C 0.3076(6) 0.0918(3) 0.0992(3)
H21_3 H 0.2225 0.1128 0.1016
C34_3 C 0.4230(7) 0.1282(3) 0.1124(3)
C35_3 C 0.5493(6) 0.1017(3) 0.1063(3)
H22_3 H 0.6260 0.1287 0.1143
O8_3 O 0.7962(4) 0.04066(18) 0.0783(2)
O11_3 O 0.3041(5) 0.2278(2) 0.1300(3)
O12_3 O 0.5087(4) 0.2245(2) 0.1615(2)
N14_3 N 0.4114(6) 0.1992(2) 0.1354(3)
Co7_2 Co 0.08344(8) 0.05506(3) 0.93864(4)
O13_2 O 0.9075(4) 0.00764(16) 0.94741(18)
Co1 Co 0.92310(8) 0.95902(3) 0.05747(4)
C2_3 C 0.8460(6) 0.8147(3) 0.0205(3)
H2_3 H 0.7731 0.8157 0.0505
C11_3 C 0.9998(6) 0.8807(3) 0.1822(3)
C12_3 C 0.8468(6) 0.9524(3) 0.2078(3)
H10_3 H 0.7839 0.9882 0.2038
C13_3 C 0.8681(6) 0.9162(3) 0.2628(3)
H11_3 H 0.8240 0.9212 0.3042
C15_3 C 0.9659(6) 0.8020(3) 0.3481(3)
H12_3 H 0.8886 0.8237 0.3651
C19_3 C 0.8577(6) 0.7052(3) 0.5282(3)
H15_3 H 0.7951 0.7101 0.5632
C20_3 C 0.8824(6) 0.7520(3) 0.4814(3)
H16_3 H 0.8413 0.7952 0.4769
C31_3 C 0.4455(6) 0.9958(3) 0.0785(3)
H20_3 H 0.4538 0.9488 0.0689
C36_3 C 0.2023(6) 0.9792(3) 0.0693(3)
O7_3 O 0.7032(4) 0.94032(18) 0.0668(2)
O9_3 O 0.2114(4) 0.91799(19) 0.0810(2)
N1_3 N 0.9372(5) 0.8662(2) 0.0125(2)
N7_3 N 0.9298(6) 0.9301(2) 0.1572(2)
N8_3 N 0.9683(5) 0.8698(2) 0.2473(2)
N11_3 N 0.9792(5) 0.7245(2) 0.4415(2)
N12_3 N 0.9373(5) 0.6486(2) 0.5177(2)
O17_2 O 0.9035(4) 0.50925(17) 0.45313(18)
N15_2 N 0.9255(5) 0.5826(2) 0.6621(2)
C3_3 C 0.8747(6) 0.7632(3) 0.9801(3)
H3_3 H 0.8274 0.7217 0.9759
C5_3 C 0.9769(6) 0.7024(3) 0.8542(3)
H4_3 H 0.8919 0.6860 0.8674
C8_3 C 0.8659(6) 0.5948(3) 0.7686(3)
H6_3 H 0.8210 0.5908 0.8099
C9_3 C 0.8338(7) 0.5648(3) 0.7117(3)
H7_3 H 0.7595 0.5356 0.7055
N2_3 N 0.9880(5) 0.7827(2) 0.9454(2)
N5_3 N 0.9782(5) 0.6331(2) 0.7553(2)
C2_4 C 0.1540(6) 0.3147(3) 0.4795(3)
H2_4 H 0.2269 0.3157 0.4495
C3_4 C 0.1253(6) 0.2632(3) 0.5199(3)
H3_4 H 0.1726 0.2217 0.5241
C5_4 C 0.0231(6) 0.2024(3) 0.6458(3)
H4_4 H 0.1081 0.1860 0.6326
C8_4 C 0.1341(6) 0.0948(3) 0.7314(3)
H6_4 H 0.1790 0.0908 0.6901
C9_4 C 0.1662(7) 0.0648(3) 0.7883(3)
H7_4 H 0.2405 0.0356 0.7945
C11_4 C 0.0002(6) 0.3807(3) 0.3178(3)
C12_4 C 0.1532(6) 0.4524(3) 0.2922(3)
H10_4 H 0.2161 0.4882 0.2962
C13_4 C 0.1319(6) 0.4162(3) 0.2372(3)
H11_4 H 0.1760 0.4212 0.1958
C15_4 C 0.0341(6) 0.3020(3) 0.1519(3)
H12_4 H 0.1114 0.3237 0.1349
C20_4 C 0.1176(6) 0.2520(3) 0.0186(3)
H16_4 H 0.1587 0.2952 0.0231
C29_4 C 0.3067(6) 0.5026(3) 0.4229(3)
C30_4 C 0.4393(6) 0.5339(3) 0.4118(3)
C31_4 C 0.5545(6) 0.4958(3) 0.4215(3)
H20_4 H 0.5462 0.4488 0.4311
C32_4 C 0.6796(6) 0.5238(3) 0.4174(3)
C33_4 C 0.6924(6) 0.5918(3) 0.4008(3)
H21_4 H 0.7775 0.6128 0.3984
C34_4 C 0.5770(7) 0.6282(3) 0.3876(3)
C35_4 C 0.4507(6) 0.6017(3) 0.3937(3)
H22_4 H 0.3740 0.6287 0.3857
C36_4 C 0.7977(6) 0.4792(3) 0.4307(3)
O7_4 O 0.2968(4) 0.44032(18) 0.4332(2)
O8_4 O 0.2038(4) 0.54066(18) 0.4217(2)
O9_4 O 0.7886(4) 0.41799(19) 0.4190(2)
O11_4 O 0.6959(5) 0.7278(2) 0.3700(3)
O12_4 O 0.4913(4) 0.7245(2) 0.3385(2)
N1_4 N 0.0628(5) 0.3662(2) 0.4875(2)
N2_4 N 0.0120(5) 0.2827(2) 0.5546(2)
N5_4 N 0.0218(5) 0.1331(2) 0.7447(2)
N6_2 N 0.0745(5) 0.0826(2) 0.8379(2)
N7_4 N 0.0702(6) 0.4301(2) 0.3428(2)
N8_4 N 0.0317(5) 0.3698(2) 0.2527(2)
N11_4 N 0.0208(5) 0.2245(2) 0.0585(2)
N14_4 N 0.5886(6) 0.6992(2) 0.3646(3)
C19_4 C 0.1423(6) 0.2052(3) 0.9718(3)
H15_4 H 0.2049 0.2101 0.9368
N12_4 N 0.0627(5) 0.1486(2) 0.9823(2)
O14_2 O 0.2952(4) 0.06243(19) 0.9341(2)
C1_3 C 0.9781(6) 0.3451(3) 0.5325(3)
H1_3 H 0.9033 0.3703 0.5477
C4_3 C 0.9545(6) 0.2510(3) 0.6102(3)
C6_3 C 0.9586(6) 0.1795(3) 0.7020(3)
C7_3 C 0.7817(6) 0.2460(3) 0.6814(3)
H5_3 H 0.6955 0.2612 0.6939
C10_3 C 0.9903(6) 0.1238(3) 0.8096(3)
H8_3 H 0.9169 0.1445 0.8314
H9_4 H 0.9355 0.3555 0.3417
C14_4 C 0.9761(6) 0.3197(3) 0.2121(3)
C16_4 C 0.9692(6) 0.2503(3) 0.1193(3)
C17_4 C 0.8176(7) 0.2412(3) 0.1995(3)
H13_4 H 0.7413 0.2188 0.2167
C18_4 C 0.9917(6) 0.1619(3) 0.0346(3)
H14_4 H 0.9281 0.1319 0.0535
N3_3 N 0.8330(5) 0.2735(2) 0.6260(3)
N4_3 N 0.8383(5) 0.2001(2) 0.7205(3)
N9_4 N 0.8677(5) 0.2900(3) 0.2367(2)
N10_4 N 0.8605(5) 0.2196(2) 0.1408(2)
C21_4 C 0.7993(6) 0.0361(3) 0.9278(3)
C23_4 C 0.5528(6) 0.0144(3) 0.9207(3)
H17_4 H 0.5387 0.0612 0.9299
C28_4 C 0.3066(6) 0.0006(3) 0.9199(3)
O2_4 O 0.7836(4) 0.09751(18) 0.9174(2)
C1_4 C 0.0219(6) 0.8451(3) 0.9675(3)
H1_4 H 0.0967 0.8703 0.9523
C4_4 C 0.0455(6) 0.7510(3) 0.8898(3)
C6_4 C 0.0414(6) 0.6795(3) 0.7980(3)
C7_4 C 0.2183(6) 0.7460(3) 0.8186(3)
H5_4 H 0.3045 0.7612 0.8061
C10_4 C 0.0097(6) 0.6238(3) 0.6904(3)
H8_4 H 0.0831 0.6445 0.6686
N3_4 N 0.1670(5) 0.7735(2) 0.8740(3)
N4_4 N 0.1617(5) 0.7001(2) 0.7795(3)
O15_2 O 0.2062(4) 0.9632(2) 0.9116(2)
C22_4 C 0.6826(6) 0.9895(3) 0.9165(3)
C24_4 C 0.4444(6) 0.9720(3) 0.9118(3)
C25_4 C 0.4638(6) 0.9040(3) 0.8979(3)
H18_4 H 0.3903 0.8741 0.8930
C26_4 C 0.5928(6) 0.8808(3) 0.8914(3)
C27_4 C 0.7008(6) 0.9215(3) 0.9014(3)
H19_4 H 0.7882 0.9033 0.8981
O5_4 O 0.5237(5) 0.7698(2) 0.8797(3)
O6_4 O 0.7276(4) 0.7936(2) 0.8553(2)
N13_4 N 0.6155(6) 0.8095(3) 0.8739(3)
loop_
_geom_bond_atom_site_label_1
_geom_bond_atom_site_label_2
_geom_bond_site_symmetry_1
_geom_bond_site_symmetry_2
C31 H20 1_555 1_555
O9 C36 1_555 1_555
C33 C32 1_555 1_555
H21 C33 1_555 1_555
C34 C33 1_555 1_555
O11 N14 1_555 1_555
N14 C34 1_555 1_555
Co7 O10 1_555 1_555
Co2 O1 1_555 1_555
C19 H15 1_555 1_555
C21 C22 1_555 1_555
C22 C23 1_555 1_555
C23 H17 1_555 1_555
C27 C22 1_555 1_555
H19 C27 1_555 1_555
O1 C21 1_555 1_555
O2 C21 1_555 1_555
O5 N13 1_555 1_555
O6 N13 1_555 1_555
N12 Co2 1_555 1_555
N13 C26 1_555 1_555
O14 Co2 1_555 1_555
O15 Co2 1_555 1_555
N15 Co2 1_555 1_555
C19 N12 1_555 1_555
C26 C27 1_555 1_555
Co3 O7 1_555 1_555
C1 H1 1_555 1_555
C2 H2 1_555 1_555
C3 C2 1_555 1_555
H3 C3 1_555 1_555
C4 C5 1_555 1_555
C5 H4 1_555 1_555
C6 C5 1_555 1_555
C7 H5 1_555 1_555
C8 H6 1_555 1_555
C9 C8 1_555 1_555
H7 C9 1_555 1_555
C10 H8 1_555 1_555
C11 H9 1_555 1_555
C12 H10 1_555 1_555
C13 C12 1_555 1_555
H11 C13 1_555 1_555
C14 C15 1_555 1_555
C15 H12 1_555 1_555
C16 C15 1_555 1_555
C17 H13 1_555 1_555
C18 H14 1_555 1_555
H16 C20 1_555 1_555
N1 Co3 1_555 1_555
N2 C1 1_555 1_555
N3 C4 1_555 1_555
N4 C6 1_555 1_555
N5 C6 1_555 1_555
N15 C9 1_555 1_555
N7 Co3 1_555 1_555
N8 C11 1_555 1_555
N9 C14 1_555 1_555
N10 C16 1_555 1_555
N11 C16 1_555 1_555
C1 N1 1_555 1_555
C2 N1 1_555 1_555
C3 N2 1_555 1_555
C4 N2 1_555 1_555
C7 N3 1_555 1_555
C7 N4 1_555 1_555
C8 N5 1_555 1_555
C10 N5 1_555 1_555
C10 N15 1_555 1_555
C11 N7 1_555 1_555
C12 N7 1_555 1_555
C13 N8 1_555 1_555
C14 N8 1_555 1_555
C17 N9 1_555 1_555
C17 N10 1_555 1_555
C18 N11 1_555 1_555
C20 N11 1_555 1_555
Co4 O17 1_555 1_555
C29 C30 1_555 1_555
C35 C30 1_555 1_555
H22 C35 1_555 1_555
C29 O8 1_555 1_555
C25 C24 1_555 1_555
H18 C25 1_555 1_555
C28 C24 1_555 1_555
O14 C28 1_555 1_555
O15 C28 1_555 1_555
C25_2 C24_2 1_555 1_555
H18_2 C25_2 1_555 1_555
O3 C28_2 1_555 1_555
Co7 O3 1_555 1_555
C27_2 C22_2 1_555 1_555
H19_2 C27_2 1_555 1_555
O5_2 N13_2 1_555 1_555
O6_2 N13_2 1_555 1_555
N13_2 C26_2 1_555 1_555
C26_2 C27_2 1_555 1_555
C1_2 H1_2 1_555 1_555
H3_2 C3_2 1_555 1_555
C4_2 C5_2 1_555 1_555
C5_2 H4_2 1_555 1_555
C6_2 C5_2 1_555 1_555
C7_2 H5_2 1_555 1_555
C8_2 H6_2 1_555 1_555
C9_2 C8_2 1_555 1_555
H7_2 C9_2 1_555 1_555
C10_2 H8_2 1_555 1_555
N2_2 C1_2 1_555 1_555
N3_2 C4_2 1_555 1_555
N4_2 C6_2 1_555 1_555
N5_2 C6_2 1_555 1_555
N6 C9_2 1_555 1_555
Co7 N6 1_555 1_555
C3_2 N2_2 1_555 1_555
C4_2 N2_2 1_555 1_555
C7_2 N3_2 1_555 1_555
C7_2 N4_2 1_555 1_555
C8_2 N5_2 1_555 1_555
C10_2 N5_2 1_555 1_555
C10_2 N6 1_555 1_555
Co4 O7_2 1_555 1_555
Co7 O13 1_555 1_555
C2_2 H2_2 1_555 1_555
C11_2 H9_2 1_555 1_555
C12_2 H10_2 1_555 1_555
C13_2 C12_2 1_555 1_555
H11_2 C13_2 1_555 1_555
C14_2 C15_2 1_555 1_555
C15_2 H12_2 1_555 1_555
C16_2 C15_2 1_555 1_555
C17_2 H13_2 1_555 1_555
C18_2 H14_2 1_555 1_555
C19_2 H15_2 1_555 1_555
C20_2 C19_2 1_555 1_555
H16_2 C20_2 1_555 1_555
C23_2 H17_2 1_555 1_555
C29_2 C30_2 1_555 1_555
C35_2 C30_2 1_555 1_555
H22_2 C35_2 1_555 1_555
O13 C21_2 1_555 1_555
O2_2 C21_2 1_555 1_555
O7_2 C29_2 1_555 1_555
O8_2 Co4 1_555 1_555
N1_2 Co4 1_555 1_555
N7_2 Co4 1_555 1_555
N8_2 C11_2 1_555 1_555
N9_2 C14_2 1_555 1_555
N10_2 C16_2 1_555 1_555
N11_2 C16_2 1_555 1_555
N12_2 Co7 1_555 1_555
C2_2 N1_2 1_555 1_555
C11_2 N7_2 1_555 1_555
C12_2 N7_2 1_555 1_555
C13_2 N8_2 1_555 1_555
C14_2 N8_2 1_555 1_555
C17_2 N9_2 1_555 1_555
C17_2 N10_2 1_555 1_555
C18_2 N11_2 1_555 1_555
C18_2 N12_2 1_555 1_555
C19_2 N12_2 1_555 1_555
C20_2 N11_2 1_555 1_555
C29_2 O8_2 1_555 1_555
C31_2 H20_2 1_555 1_555
C32_2 C31_2 1_555 1_555
C33_2 C32_2 1_555 1_555
H21_2 C33_2 1_555 1_555
C34_2 C33_2 1_555 1_555
C36_2 C32_2 1_555 1_555
O9_2 C36_2 1_555 1_555
O17 C36_2 1_555 1_555
O11_2 N14_2 1_555 1_555
N14_2 C34_2 1_555 1_555
C17_3 H13_3 1_555 1_555
C18_3 H14_3 1_555 1_555
C21_3 C22_3 1_555 1_555
C22_3 C23_3 1_555 1_555
C23_3 H17_3 1_555 1_555
C24_3 C23_3 1_555 1_555
C25_3 C24_3 1_555 1_555
H18_3 C25_3 1_555 1_555
C26_3 C25_3 1_555 1_555
C27_3 C22_3 1_555 1_555
H19_3 C27_3 1_555 1_555
C28_3 C24_3 1_555 1_555
O1_2 C21_3 1_555 1_555
O2_3 C21_3 1_555 1_555
O3_2 C28_3 1_555 1_555
O4_2 C28_3 1_555 1_555
O5_3 N13_3 1_555 1_555
O6_3 N13_3 1_555 1_555
N9_3 C14_3 1_555 1_555
N10_3 C16_3 1_555 1_555
N13_3 C26_3 1_555 1_555
Co4_2 O1_2 1_555 1_555
Co5 O3_2 1_555 1_555
C17_3 N9_3 1_555 1_555
C17_3 N10_3 1_555 1_555
C26_3 C27_3 1_555 1_555
O4_2 Co5 1_555 1_555
C29_3 C30_3 1_555 1_555
C33_3 C32_3 1_555 1_555
H21_3 C33_3 1_555 1_555
C34_3 C33_3 1_555 1_555
C35_3 C30_3 1_555 1_555
H22_3 C35_3 1_555 1_555
O11_3 N14_3 1_555 1_555
O12_3 N14_3 1_555 1_555
N14_3 C34_3 1_555 1_555
C29_3 O8_3 1_555 1_555
C34_3 C35_3 1_555 1_555
Co1 O7_3 1_555 1_555
C2_3 H2_3 1_555 1_555
C12_3 H10_3 1_555 1_555
C13_3 C12_3 1_555 1_555
H11_3 C13_3 1_555 1_555
C15_3 H12_3 1_555 1_555
C19_3 H15_3 1_555 1_555
C20_3 C19_3 1_555 1_555
H16_3 C20_3 1_555 1_555
C31_3 H20_3 1_555 1_555
O9_3 C36_3 1_555 1_555
N1_3 Co1 1_555 1_555
N7_3 Co1 1_555 1_555
N8_3 C11_3 1_555 1_555
N12_3 Co5 1_555 1_555
O17_2 Co5 1_555 1_555
N15_2 Co5 1_555 1_555
C2_3 N1_3 1_555 1_555
C11_3 N7_3 1_555 1_555
C12_3 N7_3 1_555 1_555
C13_3 N8_3 1_555 1_555
C19_3 N12_3 1_555 1_555
C20_3 N11_3 1_555 1_555
H3_3 C3_3 1_555 1_555
C5_3 H4_3 1_555 1_555
C8_3 H6_3 1_555 1_555
C9_3 C8_3 1_555 1_555
H7_3 C9_3 1_555 1_555
N15_2 C9_3 1_555 1_555
C3_3 N2_3 1_555 1_555
C8_3 N5_3 1_555 1_555
Co4_2 O7_4 1_555 1_555
C2_4 H2_4 1_555 1_555
C3_4 C2_4 1_555 1_555
H3_4 C3_4 1_555 1_555
C5_4 H4_4 1_555 1_555
C8_4 H6_4 1_555 1_555
C9_4 C8_4 1_555 1_555
H7_4 C9_4 1_555 1_555
C12_4 H10_4 1_555 1_555
C13_4 C12_4 1_555 1_555
H11_4 C13_4 1_555 1_555
C15_4 H12_4 1_555 1_555
H16_4 C20_4 1_555 1_555
C29_4 C30_4 1_555 1_555
C30_4 C31_4 1_555 1_555
C31_4 H20_4 1_555 1_555
C32_4 C31_4 1_555 1_555
C33_4 C32_4 1_555 1_555
H21_4 C33_4 1_555 1_555
C34_4 C33_4 1_555 1_555
C35_4 C30_4 1_555 1_555
H22_4 C35_4 1_555 1_555
C36_4 C32_4 1_555 1_555
O7_4 C29_4 1_555 1_555
O8_4 Co4_2 1_555 1_555
O9_4 C36_4 1_555 1_555
O17_2 C36_4 1_555 1_555
O11_4 N14_4 1_555 1_555
O12_4 N14_4 1_555 1_555
N1_4 Co4_2 1_555 1_555
N6_2 C9_4 1_555 1_555
N7_4 Co4_2 1_555 1_555
N8_4 C11_4 1_555 1_555
N14_4 C34_4 1_555 1_555
Co7_2 N6_2 1_555 1_555
C2_4 N1_4 1_555 1_555
C3_4 N2_4 1_555 1_555
C8_4 N5_4 1_555 1_555
C11_4 N7_4 1_555 1_555
C12_4 N7_4 1_555 1_555
C13_4 N8_4 1_555 1_555
C20_4 N11_4 1_555 1_555
C29_4 O8_4 1_555 1_555
C34_4 C35_4 1_555 1_555
C19_4 H15_4 1_555 1_555
N12_4 Co7_2 1_555 1_555
O14_2 Co7_2 1_555 1_555
C19_4 N12_4 1_555 1_555
C1_3 H1_3 1_555 1_555
C7_3 H5_3 1_555 1_555
C10_3 H8_3 1_555 1_555
C17_4 H13_4 1_555 1_555
C18_4 H14_4 1_555 1_555
N3_3 C4_3 1_555 1_555
N4_3 C6_3 1_555 1_555
N9_4 C14_4 1_555 1_555
N10_4 C16_4 1_555 1_555
C7_3 N3_3 1_555 1_555
C7_3 N4_3 1_555 1_555
C17_4 N9_4 1_555 1_555
C17_4 N10_4 1_555 1_555
C23_4 H17_4 1_555 1_555
O13_2 C21_4 1_555 1_555
O2_4 C21_4 1_555 1_555
O14_2 C28_4 1_555 1_555
C1_4 H1_4 1_555 1_555
C7_4 H5_4 1_555 1_555
C10_4 H8_4 1_555 1_555
N3_4 C4_4 1_555 1_555
N4_4 C6_4 1_555 1_555
C7_4 N3_4 1_555 1_555
C7_4 N4_4 1_555 1_555
C25_4 C24_4 1_555 1_555
H18_4 C25_4 1_555 1_555
C26_4 C25_4 1_555 1_555
C27_4 C22_4 1_555 1_555
H19_4 C27_4 1_555 1_555
O5_4 N13_4 1_555 1_555
O6_4 N13_4 1_555 1_555
N13_4 C26_4 1_555 1_555
C26_4 C27_4 1_555 1_555

#END
