
###############################################################################
#
# This file contains modified crystal structure data generated from the
# MOF subset of the Cambridge Structural Database (CSD) v543 
# hosted by the Cambridge Crystallographic Data Centre (CCDC).
#
# This work is licensed under the Creative Commons
# Attribution-NonCommercial-ShareAlike 4.0 International License.
# To view a copy of this license, visit
# http://creativecommons.org/licenses/by-nc-sa/4.0/
# or send a letter to
# Creative Commons, PO Box 1866, Mountain View, CA 94042, USA.
#
# CIF created using the CSD Python API on 29 September 2022
# The structure has been converted into the P1 space group
# The structure has a 3D framework
# The original CSD entry KEDLAJ08 is in the orthorhombic crystal system
# The framework has been calculated to contain at least 10.0% void space
# The void calculation uses a probe of radius 1.32A, grid spacing 0.4
#
###############################################################################

data_KEDLAJ08
_chemical_formula_moiety         '(C144 H88 Co8 N56 O48)n'
_symmetry_cell_setting           triclinic
_symmetry_space_group_name_H-M   'P 1'
_symmetry_Int_Tables_number      1
_space_group_name_Hall           'P 1'
loop_
_symmetry_equiv_pos_site_id
_symmetry_equiv_pos_as_xyz
1 x,y,z
_cell_length_a                   10.060(2)
_cell_length_b                   19.342(4)
_cell_length_c                   20.587(4)
_cell_angle_alpha                90
_cell_angle_beta                 90
_cell_angle_gamma                90
_cell_volume                     4005.83
loop_
_atom_site_label
_atom_site_type_symbol
_atom_site_fract_x
_atom_site_fract_y
_atom_site_fract_z
Co1 Co 0.07860(5) 0.44858(3) 0.43870(2)
N1 N 0.0179(3) 0.27761(16) 0.55893(16)
N2 N 0.0724(3) 0.07851(17) 0.84047(15)
N3 N 0.0648(3) 0.35631(17) 0.48611(15)
N5 N 0.0272(3) 0.13195(16) 0.74905(16)
C12 C 0.0292(4) 0.19999(19) 0.6506(2)
H6 H 0.1093 0.1811 0.6367
C15 C 0.1510(5) 0.3015(2) 0.4791(2)
H8 H 0.2184 0.2989 0.4483
C16 C 0.1240(5) 0.2523(2) 0.5231(2)
H9 H 0.1673 0.2102 0.5285
C17 C 0.1331(4) 0.0887(2) 0.7365(2)
H10 H 0.1774 0.0831 0.6972
C18 C 0.1590(4) 0.0565(2) 0.7923(2)
H11 H 0.2258 0.0238 0.7982
Co4 Co 0.07860(5) 0.05142(3) 0.93870(2)
O7 O 0.0944(2) 0.50179(14) 0.55163(13)
O8 O 0.2072(3) 0.53333(15) 0.42031(14)
O9 O 0.2974(3) 0.43197(15) 0.43212(14)
N8 N 0.0724(3) 0.42149(17) 0.34047(15)
O1 O 0.9056(2) 0.49821(14) 0.44837(13)
C1 C 0.5540(4) 0.4857(2) 0.42312(17)
H1 H 0.5434 0.4390 0.4324
O4 O 0.7887(3) 0.40509(14) 0.41875(14)
C2 C 0.4426(3) 0.5264(2) 0.41412(18)
C3 C 0.7996(4) 0.4679(2) 0.42924(18)
C4 C 0.3083(4) 0.4953(2) 0.42255(17)
N4 N 0.8481(4) 0.27679(19) 0.63375(17)
C5 C 0.6806(3) 0.51293(19) 0.41867(18)
C6 C 0.5831(4) 0.6206(2) 0.3914(2)
C7 C 0.6955(4) 0.5819(2) 0.40269(19)
H2 H 0.7796 0.6017 0.3996
C8 C 0.4567(4) 0.5955(2) 0.39763(19)
H3 H 0.3830 0.6237 0.3911
O5 O 0.7113(4) 0.71358(19) 0.3599(2)
N6 N 0.5999(4) 0.6924(2) 0.3703(2)
C9 C 0.9868(4) 0.34062(19) 0.53374(18)
H4 H 0.9184 0.3687 0.5488
N7 N 0.8531(4) 0.20585(19) 0.72783(18)
C10 C 0.9949(4) 0.12330(19) 0.81288(18)
H5 H 0.9262 0.1465 0.8339
C11 C 0.9632(4) 0.2497(2) 0.61603(19)
C13 C 0.8002(5) 0.2533(3) 0.6896(2)
H7 H 0.7203 0.2725 0.7035
C14 C 0.9682(4) 0.1800(2) 0.70762(19)
O6 O 0.5019(4) 0.72652(19) 0.3622(3)
Co3 Co 0.92140(5) 0.55142(3) 0.56130(2)
O1_2 O 0.0944(2) 0.99821(14) 0.05163(13)
C1_2 C 0.4460(4) 0.9857(2) 0.07688(17)
H1_2 H 0.4566 0.9390 0.0676
O3 O 0.7026(3) 0.93197(15) 0.06788(14)
O4_2 O 0.2113(3) 0.90509(14) 0.08125(14)
C3_2 C 0.2004(4) 0.9679(2) 0.07076(18)
C4_2 C 0.6917(4) 0.9953(2) 0.07745(17)
Co2 Co 0.92140(5) 0.94858(3) 0.06130(2)
O7_2 O 0.9056(2) 0.00179(14) 0.94837(13)
N3_2 N 0.9352(3) 0.85631(17) 0.01389(15)
C15_2 C 0.8490(5) 0.8015(2) 0.0209(2)
H8_2 H 0.7816 0.7989 0.0517
N8_2 N 0.9276(3) 0.92149(17) 0.15953(15)
N1_2 N 0.9821(3) 0.77761(16) 0.94107(16)
N2_2 N 0.9276(3) 0.57851(17) 0.65953(15)
N5_2 N 0.9728(3) 0.63195(16) 0.75095(16)
C12_2 C 0.9708(4) 0.69999(19) 0.8494(2)
H6_2 H 0.8907 0.6811 0.8633
C16_2 C 0.8760(5) 0.7523(2) 0.9769(2)
H9_2 H 0.8327 0.7102 0.9715
C17_2 C 0.8669(4) 0.5887(2) 0.7635(2)
H10_2 H 0.8226 0.5831 0.8028
C18_2 C 0.8410(4) 0.5565(2) 0.7077(2)
H11_2 H 0.7742 0.5238 0.7018
C1_3 C 0.4460(4) 0.5143(2) 0.57688(17)
H1_3 H 0.4566 0.5610 0.5676
O2 O 0.7928(3) 0.46667(15) 0.57969(14)
O3_2 O 0.7026(3) 0.56803(15) 0.56788(14)
O4_3 O 0.2113(3) 0.59491(14) 0.58125(14)
C2_2 C 0.5574(3) 0.4736(2) 0.58588(18)
C3_3 C 0.2004(4) 0.5321(2) 0.57076(18)
C4_3 C 0.6917(4) 0.5047(2) 0.57745(17)
N4_2 N 0.1519(4) 0.72321(19) 0.36625(17)
C5_2 C 0.3194(3) 0.48707(19) 0.58133(18)
C6_2 C 0.4169(4) 0.3794(2) 0.6086(2)
C7_2 C 0.3045(4) 0.4181(2) 0.59731(19)
H2_2 H 0.2204 0.3983 0.6004
C8_2 C 0.5433(4) 0.4045(2) 0.60237(19)
H3_2 H 0.6170 0.3763 0.6089
O5_2 O 0.2887(4) 0.28642(19) 0.6401(2)
N6_2 N 0.4001(4) 0.3076(2) 0.6297(2)
C9_2 C 0.0132(4) 0.65938(19) 0.46626(18)
H4_2 H 0.0816 0.6313 0.4512
N7_2 N 0.1469(4) 0.79415(19) 0.27217(18)
C10_2 C 0.0051(4) 0.87670(19) 0.18712(18)
H5_2 H 0.0738 0.8535 0.1661
C11_2 C 0.0368(4) 0.7503(2) 0.38397(19)
C13_2 C 0.1998(5) 0.7467(3) 0.3104(2)
H7_2 H 0.2797 0.7275 0.2965
C14_2 C 0.0318(4) 0.8200(2) 0.29238(19)
O6_2 O 0.4981(4) 0.27348(19) 0.6378(3)
N1_3 N 0.9821(3) 0.72239(16) 0.44107(16)
N3_3 N 0.9352(3) 0.64369(17) 0.51389(15)
N5_3 N 0.9728(3) 0.86805(16) 0.25095(16)
C12_3 C 0.9708(4) 0.80001(19) 0.3494(2)
H6_3 H 0.8907 0.8189 0.3633
C15_3 C 0.8490(5) 0.6985(2) 0.5209(2)
H8_3 H 0.7816 0.7011 0.5517
C16_3 C 0.8760(5) 0.7477(2) 0.4769(2)
H9_3 H 0.8327 0.7898 0.4715
C17_3 C 0.8669(4) 0.9113(2) 0.2635(2)
H10_3 H 0.8226 0.9169 0.3028
C18_3 C 0.8410(4) 0.9435(2) 0.2077(2)
H11_3 H 0.7742 0.9762 0.2018
N1_4 N 0.0179(3) 0.22239(16) 0.05893(16)
N5_4 N 0.0272(3) 0.36805(16) 0.24905(16)
C12_4 C 0.0292(4) 0.30001(19) 0.1506(2)
H6_4 H 0.1093 0.3189 0.1367
C16_4 C 0.1240(5) 0.2477(2) 0.0231(2)
H9_4 H 0.1673 0.2898 0.0285
C17_4 C 0.1331(4) 0.4113(2) 0.2365(2)
H10_4 H 0.1774 0.4169 0.1972
C18_4 C 0.1590(4) 0.4435(2) 0.2923(2)
H11_4 H 0.2258 0.4762 0.2982
N3_4 N 0.0648(3) 0.14369(17) 0.98611(15)
C15_4 C 0.1510(5) 0.1985(2) 0.9791(2)
H8_4 H 0.2184 0.2011 0.9483
O9_2 O 0.2974(3) 0.06803(15) 0.93212(14)
C1_4 C 0.5540(4) 0.0143(2) 0.92312(17)
H1_4 H 0.5434 0.0610 0.9324
O4_4 O 0.7887(3) 0.09491(14) 0.91875(14)
C3_4 C 0.7996(4) 0.0321(2) 0.92924(18)
C4_4 C 0.3083(4) 0.0047(2) 0.92255(17)
O2_2 O 0.2928(3) 0.46667(15) 0.92031(14)
O3_3 O 0.2026(3) 0.56803(15) 0.93212(14)
C2_3 C 0.0574(3) 0.4736(2) 0.91412(18)
C4_5 C 0.1917(4) 0.5047(2) 0.92255(17)
C8_3 C 0.0433(4) 0.4045(2) 0.89763(19)
H3_3 H 0.1170 0.3763 0.8911
Co2_2 Co 0.42140(5) 0.55142(3) 0.93870(2)
N1_5 N 0.4821(3) 0.72239(16) 0.05893(16)
N2_3 N 0.4276(3) 0.92149(17) 0.34047(15)
N4_3 N 0.6519(4) 0.72321(19) 0.13375(17)
N5_5 N 0.4728(3) 0.86805(16) 0.24905(16)
C9_3 C 0.5132(4) 0.65938(19) 0.03374(18)
H4_3 H 0.5816 0.6313 0.0488
N7_3 N 0.6469(4) 0.79415(19) 0.22783(18)
C10_3 C 0.5051(4) 0.87670(19) 0.31288(18)
H5_3 H 0.5738 0.8535 0.3339
C11_3 C 0.5368(4) 0.7503(2) 0.11603(19)
C12_5 C 0.4708(4) 0.80001(19) 0.1506(2)
H6_5 H 0.3907 0.8189 0.1367
C13_3 C 0.6998(5) 0.7467(3) 0.1896(2)
H7_3 H 0.7797 0.7275 0.2035
C14_3 C 0.5318(4) 0.8200(2) 0.20762(19)
C16_5 C 0.3760(5) 0.7477(2) 0.0231(2)
H9_5 H 0.3327 0.7898 0.0285
C17_5 C 0.3669(4) 0.9113(2) 0.2365(2)
H10_5 H 0.3226 0.9169 0.1972
C18_5 C 0.3410(4) 0.9435(2) 0.2923(2)
H11_5 H 0.2742 0.9762 0.2982
Co3_2 Co 0.57860(5) 0.44858(3) 0.06130(2)
Co4_2 Co 0.42140(5) 0.94858(3) 0.43870(2)
O7_3 O 0.4056(2) 0.49821(14) 0.05163(13)
O1_3 O 0.5944(2) 0.50179(14) 0.94837(13)
C1_5 C 0.9460(4) 0.5143(2) 0.92312(17)
H1_5 H 0.9566 0.5610 0.9324
O4_5 O 0.7113(3) 0.59491(14) 0.91875(14)
C3_5 C 0.7004(4) 0.5321(2) 0.92924(18)
N3_5 N 0.4352(3) 0.64369(17) 0.98611(15)
C5_3 C 0.8194(3) 0.48707(19) 0.91867(18)
C6_3 C 0.9169(4) 0.3794(2) 0.8914(2)
C7_3 C 0.8045(4) 0.4181(2) 0.90269(19)
H2_3 H 0.7204 0.3983 0.8996
O5_3 O 0.7887(4) 0.28642(19) 0.8599(2)
N6_3 N 0.9001(4) 0.3076(2) 0.8703(2)
C15_5 C 0.3490(5) 0.6985(2) 0.9791(2)
H8_5 H 0.2816 0.7011 0.9483
O6_3 O 0.9981(4) 0.27348(19) 0.8622(3)
N8_3 N 0.4276(3) 0.57851(17) 0.84047(15)
Co1_2 Co 0.57860(5) 0.05142(3) 0.56130(2)
O1_4 O 0.4056(2) 0.00179(14) 0.55163(13)
C1_6 C 0.0540(4) 0.0143(2) 0.57688(17)
H1_6 H 0.0434 0.0610 0.5676
N1_6 N 0.5179(3) 0.22239(16) 0.44107(16)
O4_6 O 0.2887(3) 0.09491(14) 0.58125(14)
N2_4 N 0.5724(3) 0.42149(17) 0.15953(15)
C3_6 C 0.2996(4) 0.0321(2) 0.57076(18)
N3_6 N 0.5648(3) 0.14369(17) 0.51389(15)
N4_4 N 0.3481(4) 0.22321(19) 0.36625(17)
N5_6 N 0.5272(3) 0.36805(16) 0.25095(16)
C9_4 C 0.4868(4) 0.15938(19) 0.46626(18)
H4_4 H 0.4184 0.1313 0.4512
N7_4 N 0.3531(4) 0.29415(19) 0.27217(18)
C10_4 C 0.4949(4) 0.37670(19) 0.18712(18)
H5_4 H 0.4262 0.3535 0.1661
C11_4 C 0.4632(4) 0.2503(2) 0.38397(19)
C12_6 C 0.5292(4) 0.30001(19) 0.3494(2)
H6_6 H 0.6093 0.3189 0.3633
C13_4 C 0.3002(5) 0.2467(3) 0.3104(2)
H7_4 H 0.2203 0.2275 0.2965
C14_4 C 0.4682(4) 0.3200(2) 0.29238(19)
C15_6 C 0.6510(5) 0.1985(2) 0.5209(2)
H8_6 H 0.7184 0.2011 0.5517
C16_6 C 0.6240(5) 0.2477(2) 0.4769(2)
H9_6 H 0.6673 0.2898 0.4715
C17_6 C 0.6331(4) 0.4113(2) 0.2635(2)
H10_6 H 0.6774 0.4169 0.3028
C18_6 C 0.6590(4) 0.4435(2) 0.2077(2)
H11_6 H 0.7258 0.4762 0.2018
O9_3 O 0.7974(3) 0.06803(15) 0.56788(14)
N8_4 N 0.5724(3) 0.07851(17) 0.65953(15)
C5_4 C 0.1806(3) 0.98707(19) 0.58133(18)
C6_4 C 0.0831(4) 0.8794(2) 0.6086(2)
C7_4 C 0.1955(4) 0.9181(2) 0.59731(19)
H2_4 H 0.2796 0.8983 0.6004
O5_4 O 0.2113(4) 0.78642(19) 0.6401(2)
N6_4 N 0.0999(4) 0.8076(2) 0.6297(2)
O6_4 O 0.0019(4) 0.77348(19) 0.6378(3)
O7_4 O 0.5944(2) 0.99821(14) 0.44837(13)
O8_2 O 0.7072(3) 0.96667(15) 0.57969(14)
C4_6 C 0.8083(4) 0.0047(2) 0.57745(17)
C2_4 C 0.9426(3) 0.9736(2) 0.58588(18)
C8_4 C 0.9567(4) 0.9045(2) 0.60237(19)
H3_4 H 0.8830 0.8763 0.6089
C1_7 C 0.0540(4) 0.4857(2) 0.07688(17)
H1_7 H 0.0434 0.4390 0.0676
O4_7 O 0.2887(3) 0.40509(14) 0.08125(14)
C3_7 C 0.2996(4) 0.4679(2) 0.07076(18)
N3_7 N 0.5648(3) 0.35631(17) 0.01389(15)
C5_5 C 0.1806(3) 0.51293(19) 0.08133(18)
C6_5 C 0.0831(4) 0.6206(2) 0.1086(2)
C7_5 C 0.1955(4) 0.5819(2) 0.09731(19)
H2_5 H 0.2796 0.6017 0.1004
O5_5 O 0.2113(4) 0.71358(19) 0.1401(2)
N6_5 N 0.0999(4) 0.6924(2) 0.1297(2)
C15_7 C 0.6510(5) 0.3015(2) 0.0209(2)
H8_7 H 0.7184 0.2989 0.0517
O6_5 O 0.0019(4) 0.72652(19) 0.1378(3)
O8_3 O 0.7072(3) 0.53333(15) 0.07969(14)
O9_4 O 0.7974(3) 0.43197(15) 0.06788(14)
N1_7 N 0.5179(3) 0.27761(16) 0.94107(16)
N4_5 N 0.3481(4) 0.27679(19) 0.86625(17)
N5_7 N 0.5272(3) 0.13195(16) 0.75095(16)
C9_5 C 0.4868(4) 0.34062(19) 0.96626(18)
H4_5 H 0.4184 0.3687 0.9512
N7_5 N 0.3531(4) 0.20585(19) 0.77217(18)
C10_5 C 0.4949(4) 0.12330(19) 0.68712(18)
H5_5 H 0.4262 0.1465 0.6661
C11_5 C 0.4632(4) 0.2497(2) 0.88397(19)
C12_7 C 0.5292(4) 0.19999(19) 0.8494(2)
H6_7 H 0.6093 0.1811 0.8633
C13_5 C 0.3002(5) 0.2533(3) 0.8104(2)
H7_5 H 0.2203 0.2725 0.7965
C14_5 C 0.4682(4) 0.1800(2) 0.79238(19)
C16_7 C 0.6240(5) 0.2523(2) 0.9769(2)
H9_7 H 0.6673 0.2102 0.9715
C17_7 C 0.6331(4) 0.0887(2) 0.7635(2)
H10_7 H 0.6774 0.0831 0.8028
C18_7 C 0.6590(4) 0.0565(2) 0.7077(2)
H11_7 H 0.7258 0.0238 0.7018
C2_5 C 0.9426(3) 0.5264(2) 0.08588(18)
C4_7 C 0.8083(4) 0.4953(2) 0.07745(17)
C8_5 C 0.9567(4) 0.5955(2) 0.10237(19)
H3_5 H 0.8830 0.6237 0.1089
O2_3 O 0.2928(3) 0.03333(15) 0.42031(14)
C2_6 C 0.0574(3) 0.0264(2) 0.41412(18)
C8_6 C 0.0433(4) 0.0955(2) 0.39763(19)
H3_6 H 0.1170 0.1237 0.3911
O3_4 O 0.2026(3) 0.93197(15) 0.43212(14)
C4_8 C 0.1917(4) 0.9953(2) 0.42255(17)
C5_6 C 0.8194(3) 0.01293(19) 0.41867(18)
C6_6 C 0.9169(4) 0.1206(2) 0.3914(2)
C7_6 C 0.8045(4) 0.0819(2) 0.40269(19)
H2_6 H 0.7204 0.1017 0.3996
O5_6 O 0.7887(4) 0.21358(19) 0.3599(2)
N6_6 N 0.9001(4) 0.1924(2) 0.3703(2)
O6_6 O 0.9981(4) 0.22652(19) 0.3622(3)
C1_8 C 0.9460(4) 0.9857(2) 0.42312(17)
H1_8 H 0.9566 0.9390 0.4324
N1_8 N 0.4821(3) 0.77761(16) 0.55893(16)
O4_8 O 0.7113(3) 0.90509(14) 0.41875(14)
C3_8 C 0.7004(4) 0.9679(2) 0.42924(18)
N3_8 N 0.4352(3) 0.85631(17) 0.48611(15)
N4_6 N 0.6519(4) 0.77679(19) 0.63375(17)
N5_8 N 0.4728(3) 0.63195(16) 0.74905(16)
C9_6 C 0.5132(4) 0.84062(19) 0.53374(18)
H4_6 H 0.5816 0.8687 0.5488
N7_6 N 0.6469(4) 0.70585(19) 0.72783(18)
C10_6 C 0.5051(4) 0.62330(19) 0.81288(18)
H5_6 H 0.5738 0.6465 0.8339
C11_6 C 0.5368(4) 0.7497(2) 0.61603(19)
C12_8 C 0.4708(4) 0.69999(19) 0.6506(2)
H6_8 H 0.3907 0.6811 0.6367
C13_6 C 0.6998(5) 0.7533(3) 0.6896(2)
H7_6 H 0.7797 0.7725 0.7035
C14_6 C 0.5318(4) 0.6800(2) 0.70762(19)
C15_8 C 0.3490(5) 0.8015(2) 0.4791(2)
H8_8 H 0.2816 0.7989 0.4483
C16_8 C 0.3760(5) 0.7523(2) 0.5231(2)
H9_8 H 0.3327 0.7102 0.5285
C17_8 C 0.3669(4) 0.5887(2) 0.7365(2)
H10_8 H 0.3226 0.5831 0.6972
C18_8 C 0.3410(4) 0.5565(2) 0.7923(2)
H11_8 H 0.2742 0.5238 0.7982
O2_4 O 0.7928(3) 0.03333(15) 0.07969(14)
C2_7 C 0.5574(3) 0.0264(2) 0.08588(18)
C5_7 C 0.3194(3) 0.01293(19) 0.08133(18)
C6_7 C 0.4169(4) 0.1206(2) 0.1086(2)
C7_7 C 0.3045(4) 0.0819(2) 0.09731(19)
H2_7 H 0.2204 0.1017 0.1004
C8_7 C 0.5433(4) 0.0955(2) 0.10237(19)
H3_7 H 0.6170 0.1237 0.1089
O5_7 O 0.2887(4) 0.21358(19) 0.1401(2)
N6_7 N 0.4001(4) 0.1924(2) 0.1297(2)
O6_7 O 0.4981(4) 0.22652(19) 0.1378(3)
N4_7 N 0.1519(4) 0.77679(19) 0.86625(17)
C9_7 C 0.0132(4) 0.84062(19) 0.96626(18)
H4_7 H 0.0816 0.8687 0.9512
N7_7 N 0.1469(4) 0.70585(19) 0.77217(18)
C10_7 C 0.0051(4) 0.62330(19) 0.68712(18)
H5_7 H 0.0738 0.6465 0.6661
C11_7 C 0.0368(4) 0.7497(2) 0.88397(19)
C13_7 C 0.1998(5) 0.7533(3) 0.8104(2)
H7_7 H 0.2797 0.7725 0.7965
C14_7 C 0.0318(4) 0.6800(2) 0.79238(19)
O8_4 O 0.2072(3) 0.96667(15) 0.92031(14)
C2_8 C 0.4426(3) 0.9736(2) 0.91412(18)
C5_8 C 0.6806(3) 0.98707(19) 0.91867(18)
C6_8 C 0.5831(4) 0.8794(2) 0.8914(2)
C7_8 C 0.6955(4) 0.9181(2) 0.90269(19)
H2_8 H 0.7796 0.8983 0.8996
C8_8 C 0.4567(4) 0.9045(2) 0.89763(19)
H3_8 H 0.3830 0.8763 0.8911
O5_8 O 0.7113(4) 0.78642(19) 0.8599(2)
N6_8 N 0.5999(4) 0.8076(2) 0.8703(2)
O6_8 O 0.5019(4) 0.77348(19) 0.8622(3)
N4_8 N 0.8481(4) 0.22321(19) 0.13375(17)
C9_8 C 0.9868(4) 0.15938(19) 0.03374(18)
H4_8 H 0.9184 0.1313 0.0488
N7_8 N 0.8531(4) 0.29415(19) 0.22783(18)
C10_8 C 0.9949(4) 0.37670(19) 0.31288(18)
H5_8 H 0.9262 0.3535 0.3339
C11_8 C 0.9632(4) 0.2503(2) 0.11603(19)
C13_8 C 0.8002(5) 0.2467(3) 0.1896(2)
H7_8 H 0.7203 0.2275 0.2035
C14_8 C 0.9682(4) 0.3200(2) 0.20762(19)
loop_
_geom_bond_atom_site_label_1
_geom_bond_atom_site_label_2
_geom_bond_site_symmetry_1
_geom_bond_site_symmetry_2
N3 Co1 1_555 1_555
H6 C12 1_555 1_555
C15 N3 1_555 1_555
H8 C15 1_555 1_555
C16 N1 1_555 1_555
H9 C16 1_555 1_555
C17 N5 1_555 1_555
H10 C17 1_555 1_555
C18 N2 1_555 1_555
H11 C18 1_555 1_555
Co4 N2 1_555 1_555
O7 Co1 1_555 1_555
O8 Co1 1_555 1_555
O9 Co1 1_555 1_555
N8 Co1 1_555 1_555
C15 C16 1_555 1_555
C17 C18 1_555 1_555
O1 C3 1_555 1_555
C1 H1 1_555 1_555
O8 C4 1_555 1_555
O9 C4 1_555 1_555
O4 C3 1_555 1_555
C2 C1 1_555 1_555
C3 C5 1_555 1_555
C4 C2 1_555 1_555
N4 C11 1_555 1_555
C5 C1 1_555 1_555
C6 C7 1_555 1_555
C7 C5 1_555 1_555
H2 C7 1_555 1_555
C8 C2 1_555 1_555
H3 C8 1_555 1_555
O5 N6 1_555 1_555
N6 C6 1_555 1_555
H4 C9 1_555 1_555
N7 C13 1_555 1_555
C10 H5 1_555 1_555
C13 N4 1_555 1_555
H7 C13 1_555 1_555
O6 N6 1_555 1_555
Co3 O1 1_555 1_555
C6 C8 1_555 1_555
N7 C14 1_555 1_555
O1_2 C3_2 1_555 1_555
C1_2 H1_2 1_555 1_555
O3 C4_2 1_555 1_555
O4_2 C3_2 1_555 1_555
O3 Co2 1_555 1_555
N3_2 Co2 1_555 1_555
C15_2 N3_2 1_555 1_555
H8_2 C15_2 1_555 1_555
N8_2 Co2 1_555 1_555
H6_2 C12_2 1_555 1_555
C16_2 N1_2 1_555 1_555
H9_2 C16_2 1_555 1_555
C17_2 N5_2 1_555 1_555
H10_2 C17_2 1_555 1_555
C18_2 N2_2 1_555 1_555
H11_2 C18_2 1_555 1_555
Co3 N2_2 1_555 1_555
C17_2 C18_2 1_555 1_555
O7 C3_3 1_555 1_555
C1_3 H1_3 1_555 1_555
O2 C4_3 1_555 1_555
O3_2 C4_3 1_555 1_555
O4_3 C3_3 1_555 1_555
C2_2 C1_3 1_555 1_555
C3_3 C5_2 1_555 1_555
C4_3 C2_2 1_555 1_555
N4_2 C11_2 1_555 1_555
C5_2 C1_3 1_555 1_555
C6_2 C7_2 1_555 1_555
C7_2 C5_2 1_555 1_555
H2_2 C7_2 1_555 1_555
C8_2 C2_2 1_555 1_555
H3_2 C8_2 1_555 1_555
O5_2 N6_2 1_555 1_555
N6_2 C6_2 1_555 1_555
H4_2 C9_2 1_555 1_555
N7_2 C13_2 1_555 1_555
C10_2 H5_2 1_555 1_555
C13_2 N4_2 1_555 1_555
H7_2 C13_2 1_555 1_555
O6_2 N6_2 1_555 1_555
Co3 O2 1_555 1_555
O3_2 Co3 1_555 1_555
C6_2 C8_2 1_555 1_555
N7_2 C14_2 1_555 1_555
N3_3 Co3 1_555 1_555
H6_3 C12_3 1_555 1_555
C15_3 N3_3 1_555 1_555
H8_3 C15_3 1_555 1_555
C16_3 N1_3 1_555 1_555
H9_3 C16_3 1_555 1_555
C17_3 N5_3 1_555 1_555
H10_3 C17_3 1_555 1_555
C18_3 N8_2 1_555 1_555
H11_3 C18_3 1_555 1_555
C15_3 C16_3 1_555 1_555
C17_3 C18_3 1_555 1_555
H6_4 C12_4 1_555 1_555
C16_4 N1_4 1_555 1_555
H9_4 C16_4 1_555 1_555
C17_4 N5_4 1_555 1_555
H10_4 C17_4 1_555 1_555
C18_4 N8 1_555 1_555
H11_4 C18_4 1_555 1_555
C17_4 C18_4 1_555 1_555
N3_4 Co4 1_555 1_555
C15_4 N3_4 1_555 1_555
H8_4 C15_4 1_555 1_555
O9_2 Co4 1_555 1_555
O7_2 C3_4 1_555 1_555
C1_4 H1_4 1_555 1_555
O9_2 C4_4 1_555 1_555
O4_4 C3_4 1_555 1_555
O2_2 C4_5 1_555 1_555
O3_3 C4_5 1_555 1_555
C4_5 C2_3 1_555 1_555
C8_3 C2_3 1_555 1_555
H3_3 C8_3 1_555 1_555
Co2_2 O2_2 1_555 1_555
O3_3 Co2_2 1_555 1_555
N1_5 C9_3 1_555 1_555
N2_3 C10_3 1_555 1_555
N4_3 C11_3 1_555 1_555
N5_5 C10_3 1_555 1_555
H4_3 C9_3 1_555 1_555
N7_3 C13_3 1_555 1_555
C10_3 H5_3 1_555 1_555
C11_3 N1_5 1_555 1_555
C12_5 C11_3 1_555 1_555
H6_5 C12_5 1_555 1_555
C13_3 N4_3 1_555 1_555
H7_3 C13_3 1_555 1_555
C14_3 N5_5 1_555 1_555
C16_5 N1_5 1_555 1_555
H9_5 C16_5 1_555 1_555
C17_5 N5_5 1_555 1_555
H10_5 C17_5 1_555 1_555
C18_5 N2_3 1_555 1_555
H11_5 C18_5 1_555 1_555
Co4_2 N2_3 1_555 1_555
N7_3 C14_3 1_555 1_555
C12_5 C14_3 1_555 1_555
C17_5 C18_5 1_555 1_555
Co3_2 O7_3 1_555 1_555
Co2_2 O1_3 1_555 1_555
O1_3 C3_5 1_555 1_555
C1_5 H1_5 1_555 1_555
O4_5 C3_5 1_555 1_555
C3_5 C5_3 1_555 1_555
N3_5 Co2_2 1_555 1_555
C5_3 C1_5 1_555 1_555
C6_3 C7_3 1_555 1_555
C7_3 C5_3 1_555 1_555
H2_3 C7_3 1_555 1_555
O5_3 N6_3 1_555 1_555
N6_3 C6_3 1_555 1_555
C15_5 N3_5 1_555 1_555
H8_5 C15_5 1_555 1_555
O6_3 N6_3 1_555 1_555
N8_3 Co2_2 1_555 1_555
Co1_2 O1_4 1_555 1_555
O1_4 C3_6 1_555 1_555
C1_6 H1_6 1_555 1_555
N1_6 C9_4 1_555 1_555
O4_6 C3_6 1_555 1_555
N2_4 C10_4 1_555 1_555
N3_6 Co1_2 1_555 1_555
N4_4 C11_4 1_555 1_555
N5_6 C10_4 1_555 1_555
C9_4 N3_6 1_555 1_555
H4_4 C9_4 1_555 1_555
N7_4 C13_4 1_555 1_555
C10_4 H5_4 1_555 1_555
C11_4 N1_6 1_555 1_555
C12_6 C11_4 1_555 1_555
H6_6 C12_6 1_555 1_555
C13_4 N4_4 1_555 1_555
H7_4 C13_4 1_555 1_555
C14_4 N5_6 1_555 1_555
C15_6 N3_6 1_555 1_555
H8_6 C15_6 1_555 1_555
C16_6 N1_6 1_555 1_555
H9_6 C16_6 1_555 1_555
C17_6 N5_6 1_555 1_555
H10_6 C17_6 1_555 1_555
C18_6 N2_4 1_555 1_555
H11_6 C18_6 1_555 1_555
Co3_2 N2_4 1_555 1_555
O9_3 Co1_2 1_555 1_555
N8_4 Co1_2 1_555 1_555
N7_4 C14_4 1_555 1_555
C12_6 C14_4 1_555 1_555
C15_6 C16_6 1_555 1_555
C17_6 C18_6 1_555 1_555
C6_4 C7_4 1_555 1_555
C7_4 C5_4 1_555 1_555
H2_4 C7_4 1_555 1_555
O5_4 N6_4 1_555 1_555
N6_4 C6_4 1_555 1_555
O6_4 N6_4 1_555 1_555
Co4_2 O7_4 1_555 1_555
O9_3 C4_6 1_555 1_555
C8_4 C2_4 1_555 1_555
H3_4 C8_4 1_555 1_555
O7_3 C3_7 1_555 1_555
C1_7 H1_7 1_555 1_555
O4_7 C3_7 1_555 1_555
C3_7 C5_5 1_555 1_555
N3_7 Co3_2 1_555 1_555
C5_5 C1_7 1_555 1_555
C6_5 C7_5 1_555 1_555
C7_5 C5_5 1_555 1_555
H2_5 C7_5 1_555 1_555
O5_5 N6_5 1_555 1_555
N6_5 C6_5 1_555 1_555
C15_7 N3_7 1_555 1_555
H8_7 C15_7 1_555 1_555
O6_5 N6_5 1_555 1_555
O8_3 Co3_2 1_555 1_555
O9_4 Co3_2 1_555 1_555
N1_7 C9_5 1_555 1_555
N8_4 C10_5 1_555 1_555
N4_5 C11_5 1_555 1_555
N5_7 C10_5 1_555 1_555
H4_5 C9_5 1_555 1_555
N7_5 C13_5 1_555 1_555
C10_5 H5_5 1_555 1_555
C11_5 N1_7 1_555 1_555
C12_7 C11_5 1_555 1_555
H6_7 C12_7 1_555 1_555
C13_5 N4_5 1_555 1_555
H7_5 C13_5 1_555 1_555
C14_5 N5_7 1_555 1_555
C16_7 N1_7 1_555 1_555
H9_7 C16_7 1_555 1_555
C17_7 N5_7 1_555 1_555
H10_7 C17_7 1_555 1_555
C18_7 N8_4 1_555 1_555
H11_7 C18_7 1_555 1_555
N7_5 C14_5 1_555 1_555
C12_7 C14_5 1_555 1_555
C17_7 C18_7 1_555 1_555
O8_3 C4_7 1_555 1_555
O9_4 C4_7 1_555 1_555
C4_7 C2_5 1_555 1_555
C8_5 C2_5 1_555 1_555
H3_5 C8_5 1_555 1_555
C8_6 C2_6 1_555 1_555
H3_6 C8_6 1_555 1_555
O3_4 C4_8 1_555 1_555
O3_4 Co4_2 1_555 1_555
C6_6 C7_6 1_555 1_555
C7_6 C5_6 1_555 1_555
H2_6 C7_6 1_555 1_555
O5_6 N6_6 1_555 1_555
N6_6 C6_6 1_555 1_555
O6_6 N6_6 1_555 1_555
O7_4 C3_8 1_555 1_555
C1_8 H1_8 1_555 1_555
N1_8 C9_6 1_555 1_555
O4_8 C3_8 1_555 1_555
N8_3 C10_6 1_555 1_555
N3_8 Co4_2 1_555 1_555
N4_6 C11_6 1_555 1_555
N5_8 C10_6 1_555 1_555
C9_6 N3_8 1_555 1_555
H4_6 C9_6 1_555 1_555
N7_6 C13_6 1_555 1_555
C10_6 H5_6 1_555 1_555
C11_6 N1_8 1_555 1_555
C12_8 C11_6 1_555 1_555
H6_8 C12_8 1_555 1_555
C13_6 N4_6 1_555 1_555
H7_6 C13_6 1_555 1_555
C14_6 N5_8 1_555 1_555
C15_8 N3_8 1_555 1_555
H8_8 C15_8 1_555 1_555
C16_8 N1_8 1_555 1_555
H9_8 C16_8 1_555 1_555
C17_8 N5_8 1_555 1_555
H10_8 C17_8 1_555 1_555
C18_8 N8_3 1_555 1_555
H11_8 C18_8 1_555 1_555
N7_6 C14_6 1_555 1_555
C12_8 C14_6 1_555 1_555
C15_8 C16_8 1_555 1_555
C17_8 C18_8 1_555 1_555
C6_7 C7_7 1_555 1_555
C7_7 C5_7 1_555 1_555
H2_7 C7_7 1_555 1_555
C8_7 C2_7 1_555 1_555
H3_7 C8_7 1_555 1_555
O5_7 N6_7 1_555 1_555
N6_7 C6_7 1_555 1_555
O6_7 N6_7 1_555 1_555
C6_7 C8_7 1_555 1_555
N4_7 C11_7 1_555 1_555
H4_7 C9_7 1_555 1_555
N7_7 C13_7 1_555 1_555
C10_7 H5_7 1_555 1_555
C13_7 N4_7 1_555 1_555
H7_7 C13_7 1_555 1_555
N7_7 C14_7 1_555 1_555
C6_8 C7_8 1_555 1_555
C7_8 C5_8 1_555 1_555
H2_8 C7_8 1_555 1_555
C8_8 C2_8 1_555 1_555
H3_8 C8_8 1_555 1_555
O5_8 N6_8 1_555 1_555
N6_8 C6_8 1_555 1_555
O6_8 N6_8 1_555 1_555
C6_8 C8_8 1_555 1_555
N4_8 C11_8 1_555 1_555
H4_8 C9_8 1_555 1_555
N7_8 C13_8 1_555 1_555
C10_8 H5_8 1_555 1_555
C13_8 N4_8 1_555 1_555
H7_8 C13_8 1_555 1_555
N7_8 C14_8 1_555 1_555

#END
