
###############################################################################
#
# This file contains modified crystal structure data generated from the
# MOF subset of the Cambridge Structural Database (CSD) v543 
# hosted by the Cambridge Crystallographic Data Centre (CCDC).
#
# This work is licensed under the Creative Commons
# Attribution-NonCommercial-ShareAlike 4.0 International License.
# To view a copy of this license, visit
# http://creativecommons.org/licenses/by-nc-sa/4.0/
# or send a letter to
# Creative Commons, PO Box 1866, Mountain View, CA 94042, USA.
#
# CIF created using the CSD Python API on 29 September 2022
# The structure has been converted into the P1 space group
# The structure has a 3D framework
# The original CSD entry KEDLAJ01 is in the orthorhombic crystal system
# The original CSD entry KEDLAJ01 is in a Sohncke space group
# The framework has been calculated to contain at least 10.0% void space
# The void calculation uses a probe of radius 1.32A, grid spacing 0.4
#
###############################################################################

data_KEDLAJ01
_chemical_formula_moiety         '(C144 H88 Co8 N56 O47)n'
_symmetry_cell_setting           triclinic
_symmetry_space_group_name_H-M   'P 1'
_symmetry_Int_Tables_number      1
_space_group_name_Hall           'P 1'
loop_
_symmetry_equiv_pos_site_id
_symmetry_equiv_pos_as_xyz
1 x,y,z
_cell_length_a                   10.0392(17)
_cell_length_b                   19.727(3)
_cell_length_c                   20.156(3)
_cell_angle_alpha                90
_cell_angle_beta                 90
_cell_angle_gamma                90
_cell_volume                     3991.76
loop_
_atom_site_label
_atom_site_type_symbol
_atom_site_fract_x
_atom_site_fract_y
_atom_site_fract_z
C31 C 0.0531(6) 0.0043(3) 0.5783(3)
H20 H 0.0444 0.0512 0.5688
C36 C 0.2972(6) 0.0206(3) 0.5691(3)
O9 O 0.2883(4) 0.08145(19) 0.5811(2)
Co3 Co 0.57700(8) 0.04055(3) 0.55726(4)
C32 C 0.1794(6) 0.9758(3) 0.5823(3)
C33 C 0.1923(6) 0.9082(3) 0.5995(3)
H21 H 0.2775 0.8875 0.6022
C34 C 0.0774(6) 0.8715(2) 0.6128(3)
O10 O 0.4025(4) 0.99066(17) 0.54667(18)
O11 O 0.1963(5) 0.7718(2) 0.6296(3)
N14 N 0.0898(6) 0.8005(2) 0.6361(2)
Co7 Co 0.41622(8) 0.94506(3) 0.43867(4)
Co2 Co 0.58378(8) 0.44506(3) 0.06133(4)
C19 C 0.6421(6) 0.2945(3) 0.0286(3)
H15 H 0.7045 0.2895 0.0637
C21 C 0.2992(6) 0.4640(3) 0.0723(3)
C22 C 0.1824(6) 0.5105(3) 0.0835(3)
C23 C 0.0532(6) 0.4858(3) 0.0792(3)
H17 H 0.0390 0.4391 0.0699
C26 C 0.0931(6) 0.6193(3) 0.1086(3)
C27 C 0.2014(6) 0.5784(3) 0.0981(3)
H19 H 0.2889 0.5965 0.1008
O1 O 0.4077(4) 0.49230(16) 0.05256(18)
O2 O 0.2831(4) 0.40290(18) 0.08295(19)
O5 O 0.0237(4) 0.7305(2) 0.1204(2)
O6 O 0.2278(4) 0.7062(2) 0.1449(2)
N12 N 0.5629(5) 0.3513(2) 0.0183(2)
N13 N 0.1154(5) 0.6908(2) 0.1259(2)
O14 O 0.7949(4) 0.43783(19) 0.0658(2)
O15 O 0.7070(4) 0.53688(19) 0.0885(2)
N15 N 0.5755(5) 0.4174(2) 0.1621(2)
C1 C 0.4787(6) 0.1546(3) 0.4674(3)
H1 H 0.4044 0.1293 0.4519
C2 C 0.6537(6) 0.1850(3) 0.5205(3)
H2 H 0.7265 0.1839 0.5506
C3 C 0.6258(6) 0.2370(3) 0.4798(3)
H3 H 0.6734 0.2783 0.4752
C4 C 0.4542(6) 0.2490(3) 0.3900(3)
C5 C 0.5224(6) 0.2972(3) 0.3545(3)
H4 H 0.6075 0.3132 0.3678
C6 C 0.4597(6) 0.3209(3) 0.2981(3)
C7 C 0.2813(6) 0.2542(3) 0.3189(3)
H5 H 0.1947 0.2393 0.3067
C8 C 0.6345(6) 0.4050(3) 0.2690(3)
H6 H 0.6793 0.4090 0.3104
C9 C 0.6667(6) 0.4352(3) 0.2120(3)
H7 H 0.7408 0.4646 0.2060
C10 C 0.4906(6) 0.3762(3) 0.1905(3)
H8 H 0.4170 0.3558 0.1686
C11 C 0.5001(6) 0.1190(3) 0.6822(3)
H9 H 0.4350 0.1442 0.6584
C12 C 0.6533(6) 0.0473(3) 0.7077(3)
H10 H 0.7159 0.0114 0.7037
C13 C 0.6328(6) 0.0837(3) 0.7631(3)
H11 H 0.6773 0.0790 0.8044
C14 C 0.4764(6) 0.1805(3) 0.7880(3)
C15 C 0.5350(6) 0.1981(3) 0.8484(3)
H12 H 0.6124 0.1766 0.8655
C16 C 0.4695(6) 0.2498(3) 0.8807(3)
C17 C 0.3177(6) 0.2586(3) 0.8008(3)
H13 H 0.2406 0.2804 0.7837
C18 C 0.4914(6) 0.3376(3) 0.9655(3)
H14 H 0.4276 0.3675 0.9466
C20 C 0.6177(6) 0.2478(3) 0.9819(3)
H16 H 0.6587 0.2046 0.9774
O7 O 0.7966(4) 0.05924(17) 0.5667(2)
N1 N 0.5626(5) 0.1337(2) 0.5127(2)
N2 N 0.5122(5) 0.2171(2) 0.4456(2)
N3 N 0.3332(5) 0.2267(2) 0.3742(2)
N4 N 0.3379(5) 0.2999(2) 0.2794(2)
N5 N 0.5220(5) 0.3667(2) 0.2554(2)
N7 N 0.5700(5) 0.0696(2) 0.6569(2)
N8 N 0.5324(5) 0.1299(2) 0.7474(2)
N9 N 0.3688(5) 0.2099(2) 0.7632(2)
N10 N 0.3606(5) 0.2806(2) 0.8592(2)
N11 N 0.5207(4) 0.27544(19) 0.9416(2)
Co4 Co 0.42300(8) 0.54055(3) 0.94274(4)
O17 O 0.5975(4) 0.49066(17) 0.95333(18)
C29 C 0.8063(6) 0.9966(3) 0.5773(3)
C30 C 0.9399(6) 0.9656(3) 0.5881(3)
C35 C 0.9508(6) 0.8976(3) 0.6058(3)
H22 H 0.8741 0.8703 0.6128
O8 O 0.7030(4) 0.95878(17) 0.57828(19)
O12 O 0.9921(4) 0.7749(2) 0.6622(2)
O13 O 0.5923(4) 0.99230(16) 0.44744(18)
C24 C 0.9443(5) 0.5282(3) 0.0881(3)
C25 C 0.9641(6) 0.5961(3) 0.1023(3)
H18 H 0.8906 0.6260 0.1076
C28 C 0.8071(6) 0.4999(3) 0.0802(3)
C24_2 C 0.0557(5) 0.0282(3) 0.4119(3)
C25_2 C 0.0359(6) 0.0961(3) 0.3977(3)
H18_2 H 0.1094 0.1260 0.3924
O4 O 0.2930(4) 0.03688(19) 0.4115(2)
C28_2 C 0.1929(6) 0.9999(3) 0.4198(3)
O3 O 0.2051(4) 0.93783(19) 0.4342(2)
C22_2 C 0.8176(6) 0.0105(3) 0.4165(3)
C26_2 C 0.9069(6) 0.1193(3) 0.3914(3)
C27_2 C 0.7986(6) 0.0784(3) 0.4019(3)
H19_2 H 0.7111 0.0965 0.3992
O5_2 O 0.9763(4) 0.2305(2) 0.3796(2)
O6_2 O 0.7722(4) 0.2062(2) 0.3551(2)
N13_2 N 0.8846(5) 0.1908(2) 0.3741(2)
C1_2 C 0.5213(6) 0.6546(3) 0.0326(3)
H1_2 H 0.5956 0.6293 0.0481
C3_2 C 0.3742(6) 0.7370(3) 0.0202(3)
H3_2 H 0.3266 0.7783 0.0248
C4_2 C 0.5458(6) 0.7490(3) 0.1100(3)
C5_2 C 0.4776(6) 0.7972(3) 0.1455(3)
H4_2 H 0.3925 0.8132 0.1322
C6_2 C 0.5403(6) 0.8209(3) 0.2019(3)
C7_2 C 0.7187(6) 0.7542(3) 0.1811(3)
H5_2 H 0.8053 0.7393 0.1933
C8_2 C 0.3655(6) 0.9050(3) 0.2310(3)
H6_2 H 0.3207 0.9090 0.1896
C9_2 C 0.3333(6) 0.9352(3) 0.2880(3)
H7_2 H 0.2592 0.9646 0.2940
C10_2 C 0.5094(6) 0.8762(3) 0.3095(3)
H8_2 H 0.5830 0.8558 0.3314
N2_2 N 0.4878(5) 0.7171(2) 0.0544(2)
N3_2 N 0.6668(5) 0.7267(2) 0.1258(2)
N4_2 N 0.6621(5) 0.7999(2) 0.2206(2)
N5_2 N 0.4780(5) 0.8667(2) 0.2446(2)
N6 N 0.4245(5) 0.9174(2) 0.3379(2)
C2_2 C 0.3463(6) 0.6850(3) 0.9795(3)
H2_2 H 0.2735 0.6839 0.9494
C11_2 C 0.4999(6) 0.6190(3) 0.8178(3)
H9_2 H 0.5650 0.6442 0.8416
C12_2 C 0.3467(6) 0.5473(3) 0.7923(3)
H10_2 H 0.2841 0.5114 0.7963
C13_2 C 0.3672(6) 0.5837(3) 0.7369(3)
H11_2 H 0.3227 0.5790 0.6956
C14_2 C 0.5236(6) 0.6805(3) 0.7120(3)
C15_2 C 0.4650(6) 0.6981(3) 0.6516(3)
H12_2 H 0.3876 0.6766 0.6345
C16_2 C 0.5305(6) 0.7498(3) 0.6193(3)
C17_2 C 0.6823(6) 0.7586(3) 0.6992(3)
H13_2 H 0.7594 0.7804 0.7163
C18_2 C 0.5086(6) 0.8376(3) 0.5345(3)
H14_2 H 0.5724 0.8675 0.5534
C19_2 C 0.3579(6) 0.7945(3) 0.4714(3)
H15_2 H 0.2955 0.7895 0.4363
C20_2 C 0.3823(6) 0.7478(3) 0.5181(3)
H16_2 H 0.3413 0.7046 0.5226
C21_2 C 0.7008(6) 0.9640(3) 0.4277(3)
C23_2 C 0.9468(6) 0.9858(3) 0.4208(3)
H17_2 H 0.9610 0.9391 0.4301
C29_2 C 0.1937(6) 0.4966(3) 0.9227(3)
C30_2 C 0.0601(6) 0.4656(3) 0.9119(3)
C35_2 C 0.0492(6) 0.3976(3) 0.8942(3)
H22_2 H 0.1259 0.3703 0.8872
O2_2 O 0.7169(4) 0.90290(18) 0.41705(19)
O7_2 O 0.2034(4) 0.55924(17) 0.9333(2)
O8_2 O 0.2970(4) 0.45878(17) 0.92172(19)
O12_2 O 0.0079(4) 0.2749(2) 0.8378(2)
N1_2 N 0.4374(5) 0.6337(2) 0.9873(2)
N7_2 N 0.4300(5) 0.5696(2) 0.8431(2)
N8_2 N 0.4676(5) 0.6299(2) 0.7526(2)
N9_2 N 0.6312(5) 0.7099(2) 0.7368(2)
N10_2 N 0.6394(5) 0.7806(2) 0.6408(2)
N11_2 N 0.4793(4) 0.77544(19) 0.5584(2)
N12_2 N 0.4371(5) 0.8513(2) 0.4817(2)
C31_2 C 0.9469(6) 0.5043(3) 0.9217(3)
H20_2 H 0.9556 0.5512 0.9312
C32_2 C 0.8206(6) 0.4758(3) 0.9177(3)
C33_2 C 0.8077(6) 0.4082(3) 0.9005(3)
H21_2 H 0.7225 0.3875 0.8978
C34_2 C 0.9226(6) 0.3715(2) 0.8872(3)
C36_2 C 0.7028(6) 0.5206(3) 0.9309(3)
O9_2 O 0.7117(4) 0.58145(19) 0.9189(2)
O11_2 O 0.8037(5) 0.2718(2) 0.8704(3)
N14_2 N 0.9102(6) 0.3005(2) 0.8639(2)
O16 O 0.0975(4) 0.00934(17) 0.04667(18)
H9_3 H 0.0650 0.8558 0.1584
C14_3 C 0.0236(6) 0.8195(3) 0.2880(3)
C16_3 C 0.0305(6) 0.7502(3) 0.3807(3)
C17_3 C 0.1823(6) 0.7414(3) 0.3008(3)
H13_3 H 0.2594 0.7196 0.2837
C18_3 C 0.0086(6) 0.6624(3) 0.4655(3)
H14_3 H 0.0724 0.6325 0.4466
C21_3 C 0.2008(6) 0.5360(3) 0.5723(3)
C22_3 C 0.3176(6) 0.4895(3) 0.5835(3)
C23_3 C 0.4468(6) 0.5142(3) 0.5792(3)
H17_3 H 0.4610 0.5609 0.5699
C24_3 C 0.5557(5) 0.4718(3) 0.5881(3)
C25_3 C 0.5359(6) 0.4039(3) 0.6023(3)
H18_3 H 0.6094 0.3740 0.6076
C26_3 C 0.4069(6) 0.3807(3) 0.6086(3)
C27_3 C 0.2986(6) 0.4216(3) 0.5981(3)
H19_3 H 0.2111 0.4035 0.6008
C28_3 C 0.6929(6) 0.5001(3) 0.5802(3)
O1_2 O 0.0923(4) 0.50770(16) 0.55256(18)
O2_3 O 0.2169(4) 0.59710(18) 0.58295(19)
O3_2 O 0.7051(4) 0.56217(19) 0.5658(2)
O4_2 O 0.7930(4) 0.46312(19) 0.5885(2)
O5_3 O 0.4763(4) 0.2695(2) 0.6204(2)
O6_3 O 0.2722(4) 0.2938(2) 0.6449(2)
N9_3 N 0.1312(5) 0.7901(2) 0.2632(2)
N10_3 N 0.1394(5) 0.7194(2) 0.3592(2)
N13_3 N 0.3846(5) 0.3092(2) 0.6259(2)
Co4_2 Co 0.07700(8) 0.45945(3) 0.44274(4)
Co5 Co 0.91622(8) 0.55494(3) 0.56133(4)
C29_3 C 0.6937(6) 0.0034(3) 0.0773(3)
C30_3 C 0.5601(6) 0.0344(3) 0.0881(3)
C32_3 C 0.3206(6) 0.0242(3) 0.0823(3)
C33_3 C 0.3077(6) 0.0918(3) 0.0995(3)
H21_3 H 0.2225 0.1125 0.1022
C34_3 C 0.4226(6) 0.1285(2) 0.1128(3)
C35_3 C 0.5492(6) 0.1024(3) 0.1058(3)
H22_3 H 0.6259 0.1297 0.1128
O8_3 O 0.7970(4) 0.04122(17) 0.07828(19)
O11_3 O 0.3037(5) 0.2282(2) 0.1296(3)
O12_3 O 0.5079(4) 0.2251(2) 0.1622(2)
N14_3 N 0.4102(6) 0.1995(2) 0.1361(2)
Co7_2 Co 0.08378(8) 0.05494(3) 0.93867(4)
O13_2 O 0.9077(4) 0.00770(16) 0.94744(18)
Co1 Co 0.92300(8) 0.95945(3) 0.05726(4)
C2_3 C 0.8463(6) 0.8150(3) 0.0205(3)
H2_3 H 0.7735 0.8161 0.0506
C11_3 C 0.9999(6) 0.8810(3) 0.1822(3)
C12_3 C 0.8467(6) 0.9527(3) 0.2077(3)
H10_3 H 0.7841 0.9886 0.2037
C13_3 C 0.8672(6) 0.9163(3) 0.2631(3)
H11_3 H 0.8227 0.9210 0.3044
C15_3 C 0.9650(6) 0.8019(3) 0.3484(3)
H12_3 H 0.8876 0.8234 0.3655
C19_3 C 0.8579(6) 0.7055(3) 0.5286(3)
H15_3 H 0.7955 0.7105 0.5637
C20_3 C 0.8823(6) 0.7522(3) 0.4819(3)
H16_3 H 0.8413 0.7954 0.4774
C31_3 C 0.4469(6) 0.9957(3) 0.0783(3)
H20_3 H 0.4556 0.9488 0.0688
C36_3 C 0.2028(6) 0.9794(3) 0.0691(3)
O7_3 O 0.7034(4) 0.94076(17) 0.0667(2)
O9_3 O 0.2117(4) 0.91855(19) 0.0811(2)
N1_3 N 0.9374(5) 0.8663(2) 0.0127(2)
N7_3 N 0.9300(5) 0.9304(2) 0.1569(2)
N8_3 N 0.9676(5) 0.8701(2) 0.2474(2)
N11_3 N 0.9793(4) 0.72456(19) 0.4416(2)
N12_3 N 0.9371(5) 0.6487(2) 0.5183(2)
O17_2 O 0.9025(4) 0.50934(17) 0.45333(18)
N15_2 N 0.9245(5) 0.5826(2) 0.6621(2)
C3_3 C 0.8742(6) 0.7630(3) 0.9798(3)
H3_3 H 0.8266 0.7217 0.9752
C5_3 C 0.9776(6) 0.7028(3) 0.8545(3)
H4_3 H 0.8925 0.6868 0.8678
C8_3 C 0.8655(6) 0.5950(3) 0.7690(3)
H6_3 H 0.8207 0.5910 0.8104
C9_3 C 0.8333(6) 0.5648(3) 0.7120(3)
H7_3 H 0.7592 0.5354 0.7060
N2_3 N 0.9878(5) 0.7829(2) 0.9456(2)
N5_3 N 0.9780(5) 0.6333(2) 0.7554(2)
C2_4 C 0.1537(6) 0.3150(3) 0.4795(3)
H2_4 H 0.2265 0.3161 0.4494
C3_4 C 0.1258(6) 0.2630(3) 0.5202(3)
H3_4 H 0.1734 0.2217 0.5248
C5_4 C 0.0224(6) 0.2028(3) 0.6455(3)
H4_4 H 0.1075 0.1868 0.6322
C8_4 C 0.1345(6) 0.0950(3) 0.7310(3)
H6_4 H 0.1793 0.0910 0.6896
C9_4 C 0.1667(6) 0.0648(3) 0.7880(3)
H7_4 H 0.2408 0.0354 0.7940
C11_4 C 0.0001(6) 0.3810(3) 0.3178(3)
C12_4 C 0.1533(6) 0.4527(3) 0.2923(3)
H10_4 H 0.2159 0.4886 0.2963
C13_4 C 0.1328(6) 0.4163(3) 0.2369(3)
H11_4 H 0.1773 0.4210 0.1956
C15_4 C 0.0350(6) 0.3019(3) 0.1516(3)
H12_4 H 0.1124 0.3234 0.1345
C20_4 C 0.1177(6) 0.2522(3) 0.0181(3)
H16_4 H 0.1587 0.2954 0.0226
C29_4 C 0.3063(6) 0.5034(3) 0.4227(3)
C30_4 C 0.4399(6) 0.5344(3) 0.4119(3)
C31_4 C 0.5531(6) 0.4957(3) 0.4217(3)
H20_4 H 0.5444 0.4488 0.4312
C32_4 C 0.6794(6) 0.5242(3) 0.4177(3)
C33_4 C 0.6923(6) 0.5918(3) 0.4005(3)
H21_4 H 0.7775 0.6125 0.3978
C34_4 C 0.5774(6) 0.6285(2) 0.3872(3)
C35_4 C 0.4508(6) 0.6024(3) 0.3942(3)
H22_4 H 0.3741 0.6297 0.3872
C36_4 C 0.7972(6) 0.4794(3) 0.4309(3)
O7_4 O 0.2966(4) 0.44076(17) 0.4333(2)
O8_4 O 0.2030(4) 0.54122(17) 0.42172(19)
O9_4 O 0.7883(4) 0.41855(19) 0.4189(2)
O11_4 O 0.6963(5) 0.7282(2) 0.3704(3)
O12_4 O 0.4921(4) 0.7251(2) 0.3378(2)
N1_4 N 0.0626(5) 0.3663(2) 0.4873(2)
N2_4 N 0.0122(5) 0.2829(2) 0.5544(2)
N5_4 N 0.0220(5) 0.1333(2) 0.7446(2)
N6_2 N 0.0755(5) 0.0826(2) 0.8379(2)
N7_4 N 0.0700(5) 0.4304(2) 0.3431(2)
N8_4 N 0.0324(5) 0.3701(2) 0.2526(2)
N11_4 N 0.0207(4) 0.22456(19) 0.0584(2)
N14_4 N 0.5898(6) 0.6995(2) 0.3639(2)
C19_4 C 0.1421(6) 0.2055(3) 0.9714(3)
H15_4 H 0.2045 0.2105 0.9363
N12_4 N 0.0629(5) 0.1487(2) 0.9817(2)
O14_2 O 0.2949(4) 0.06217(19) 0.9342(2)
C1_3 C 0.9787(6) 0.3454(3) 0.5326(3)
H1_3 H 0.9044 0.3707 0.5481
C4_3 C 0.9542(6) 0.2510(3) 0.6100(3)
C6_3 C 0.9597(6) 0.1791(3) 0.7019(3)
C7_3 C 0.7813(6) 0.2458(3) 0.6811(3)
H5_3 H 0.6947 0.2607 0.6933
C10_3 C 0.9906(6) 0.1238(3) 0.8095(3)
H8_3 H 0.9170 0.1442 0.8314
H9_4 H 0.9350 0.3558 0.3416
C14_4 C 0.9764(6) 0.3195(3) 0.2120(3)
C16_4 C 0.9695(6) 0.2502(3) 0.1193(3)
C17_4 C 0.8177(6) 0.2414(3) 0.1992(3)
H13_4 H 0.7406 0.2196 0.2163
C18_4 C 0.9914(6) 0.1624(3) 0.0345(3)
H14_4 H 0.9276 0.1325 0.0534
N3_3 N 0.8332(5) 0.2733(2) 0.6258(2)
N4_3 N 0.8379(5) 0.2001(2) 0.7206(2)
N9_4 N 0.8688(5) 0.2901(2) 0.2368(2)
N10_4 N 0.8606(5) 0.2194(2) 0.1408(2)
C21_4 C 0.7992(6) 0.0360(3) 0.9277(3)
C23_4 C 0.5532(6) 0.0142(3) 0.9208(3)
H17_4 H 0.5390 0.0609 0.9301
C28_4 C 0.3071(6) 0.0001(3) 0.9198(3)
O2_4 O 0.7831(4) 0.09710(18) 0.91705(19)
C1_4 C 0.0213(6) 0.8454(3) 0.9674(3)
H1_4 H 0.0956 0.8707 0.9519
C4_4 C 0.0458(6) 0.7510(3) 0.8900(3)
C6_4 C 0.0403(6) 0.6791(3) 0.7981(3)
C7_4 C 0.2187(6) 0.7458(3) 0.8189(3)
H5_4 H 0.3053 0.7607 0.8067
C10_4 C 0.0094(6) 0.6238(3) 0.6905(3)
H8_4 H 0.0830 0.6442 0.6686
N3_4 N 0.1668(5) 0.7733(2) 0.8742(2)
N4_4 N 0.1621(5) 0.7001(2) 0.7794(2)
O15_2 O 0.2070(4) 0.96312(19) 0.9115(2)
C22_4 C 0.6824(6) 0.9895(3) 0.9165(3)
C24_4 C 0.4443(5) 0.9718(3) 0.9119(3)
C25_4 C 0.4641(6) 0.9039(3) 0.8977(3)
H18_4 H 0.3906 0.8740 0.8924
C26_4 C 0.5931(6) 0.8807(3) 0.8914(3)
C27_4 C 0.7014(6) 0.9216(3) 0.9019(3)
H19_4 H 0.7889 0.9035 0.8992
O5_4 O 0.5237(4) 0.7695(2) 0.8796(2)
O6_4 O 0.7278(4) 0.7938(2) 0.8551(2)
N13_4 N 0.6154(5) 0.8092(2) 0.8741(2)
loop_
_geom_bond_atom_site_label_1
_geom_bond_atom_site_label_2
_geom_bond_site_symmetry_1
_geom_bond_site_symmetry_2
C31 H20 1_555 1_555
O9 C36 1_555 1_555
C33 C32 1_555 1_555
H21 C33 1_555 1_555
C34 C33 1_555 1_555
O11 N14 1_555 1_555
N14 C34 1_555 1_555
Co7 O10 1_555 1_555
Co2 O1 1_555 1_555
C19 H15 1_555 1_555
C21 C22 1_555 1_555
C22 C23 1_555 1_555
C23 H17 1_555 1_555
C27 C22 1_555 1_555
H19 C27 1_555 1_555
O1 C21 1_555 1_555
O2 C21 1_555 1_555
O5 N13 1_555 1_555
O6 N13 1_555 1_555
N12 Co2 1_555 1_555
N13 C26 1_555 1_555
O14 Co2 1_555 1_555
O15 Co2 1_555 1_555
N15 Co2 1_555 1_555
C19 N12 1_555 1_555
C26 C27 1_555 1_555
Co3 O7 1_555 1_555
C1 H1 1_555 1_555
C2 H2 1_555 1_555
C3 C2 1_555 1_555
H3 C3 1_555 1_555
C4 C5 1_555 1_555
C5 H4 1_555 1_555
C6 C5 1_555 1_555
C7 H5 1_555 1_555
C8 H6 1_555 1_555
C9 C8 1_555 1_555
H7 C9 1_555 1_555
C10 H8 1_555 1_555
C11 H9 1_555 1_555
C12 H10 1_555 1_555
C13 C12 1_555 1_555
H11 C13 1_555 1_555
C14 C15 1_555 1_555
C15 H12 1_555 1_555
C16 C15 1_555 1_555
C17 H13 1_555 1_555
C18 H14 1_555 1_555
H16 C20 1_555 1_555
N1 Co3 1_555 1_555
N2 C1 1_555 1_555
N3 C4 1_555 1_555
N4 C6 1_555 1_555
N5 C6 1_555 1_555
N15 C9 1_555 1_555
N7 Co3 1_555 1_555
N8 C11 1_555 1_555
N9 C14 1_555 1_555
N10 C16 1_555 1_555
N11 C16 1_555 1_555
C1 N1 1_555 1_555
C2 N1 1_555 1_555
C3 N2 1_555 1_555
C4 N2 1_555 1_555
C7 N3 1_555 1_555
C7 N4 1_555 1_555
C8 N5 1_555 1_555
C10 N5 1_555 1_555
C10 N15 1_555 1_555
C11 N7 1_555 1_555
C12 N7 1_555 1_555
C13 N8 1_555 1_555
C14 N8 1_555 1_555
C17 N9 1_555 1_555
C17 N10 1_555 1_555
C18 N11 1_555 1_555
C20 N11 1_555 1_555
Co4 O17 1_555 1_555
C29 C30 1_555 1_555
C35 C30 1_555 1_555
H22 C35 1_555 1_555
C29 O8 1_555 1_555
C25 C24 1_555 1_555
H18 C25 1_555 1_555
C28 C24 1_555 1_555
O14 C28 1_555 1_555
O15 C28 1_555 1_555
C25_2 C24_2 1_555 1_555
H18_2 C25_2 1_555 1_555
O3 C28_2 1_555 1_555
Co7 O3 1_555 1_555
C27_2 C22_2 1_555 1_555
H19_2 C27_2 1_555 1_555
O5_2 N13_2 1_555 1_555
O6_2 N13_2 1_555 1_555
N13_2 C26_2 1_555 1_555
C26_2 C27_2 1_555 1_555
C1_2 H1_2 1_555 1_555
H3_2 C3_2 1_555 1_555
C4_2 C5_2 1_555 1_555
C5_2 H4_2 1_555 1_555
C6_2 C5_2 1_555 1_555
C7_2 H5_2 1_555 1_555
C8_2 H6_2 1_555 1_555
C9_2 C8_2 1_555 1_555
H7_2 C9_2 1_555 1_555
C10_2 H8_2 1_555 1_555
N2_2 C1_2 1_555 1_555
N3_2 C4_2 1_555 1_555
N4_2 C6_2 1_555 1_555
N5_2 C6_2 1_555 1_555
N6 C9_2 1_555 1_555
Co7 N6 1_555 1_555
C3_2 N2_2 1_555 1_555
C4_2 N2_2 1_555 1_555
C7_2 N3_2 1_555 1_555
C7_2 N4_2 1_555 1_555
C8_2 N5_2 1_555 1_555
C10_2 N5_2 1_555 1_555
C10_2 N6 1_555 1_555
Co4 O7_2 1_555 1_555
Co7 O13 1_555 1_555
C2_2 H2_2 1_555 1_555
C11_2 H9_2 1_555 1_555
C12_2 H10_2 1_555 1_555
C13_2 C12_2 1_555 1_555
H11_2 C13_2 1_555 1_555
C14_2 C15_2 1_555 1_555
C15_2 H12_2 1_555 1_555
C16_2 C15_2 1_555 1_555
C17_2 H13_2 1_555 1_555
C18_2 H14_2 1_555 1_555
C19_2 H15_2 1_555 1_555
C20_2 C19_2 1_555 1_555
H16_2 C20_2 1_555 1_555
C23_2 H17_2 1_555 1_555
C29_2 C30_2 1_555 1_555
C35_2 C30_2 1_555 1_555
H22_2 C35_2 1_555 1_555
O13 C21_2 1_555 1_555
O2_2 C21_2 1_555 1_555
O7_2 C29_2 1_555 1_555
O8_2 Co4 1_555 1_555
N1_2 Co4 1_555 1_555
N7_2 Co4 1_555 1_555
N8_2 C11_2 1_555 1_555
N9_2 C14_2 1_555 1_555
N10_2 C16_2 1_555 1_555
N11_2 C16_2 1_555 1_555
N12_2 Co7 1_555 1_555
C2_2 N1_2 1_555 1_555
C11_2 N7_2 1_555 1_555
C12_2 N7_2 1_555 1_555
C13_2 N8_2 1_555 1_555
C14_2 N8_2 1_555 1_555
C17_2 N9_2 1_555 1_555
C17_2 N10_2 1_555 1_555
C18_2 N11_2 1_555 1_555
C18_2 N12_2 1_555 1_555
C19_2 N12_2 1_555 1_555
C20_2 N11_2 1_555 1_555
C29_2 O8_2 1_555 1_555
C31_2 H20_2 1_555 1_555
C32_2 C31_2 1_555 1_555
C33_2 C32_2 1_555 1_555
H21_2 C33_2 1_555 1_555
C34_2 C33_2 1_555 1_555
C36_2 C32_2 1_555 1_555
O9_2 C36_2 1_555 1_555
O17 C36_2 1_555 1_555
O11_2 N14_2 1_555 1_555
N14_2 C34_2 1_555 1_555
C17_3 H13_3 1_555 1_555
C18_3 H14_3 1_555 1_555
C21_3 C22_3 1_555 1_555
C22_3 C23_3 1_555 1_555
C23_3 H17_3 1_555 1_555
C24_3 C23_3 1_555 1_555
C25_3 C24_3 1_555 1_555
H18_3 C25_3 1_555 1_555
C26_3 C25_3 1_555 1_555
C27_3 C22_3 1_555 1_555
H19_3 C27_3 1_555 1_555
C28_3 C24_3 1_555 1_555
O1_2 C21_3 1_555 1_555
O2_3 C21_3 1_555 1_555
O3_2 C28_3 1_555 1_555
O4_2 C28_3 1_555 1_555
O5_3 N13_3 1_555 1_555
O6_3 N13_3 1_555 1_555
N9_3 C14_3 1_555 1_555
N10_3 C16_3 1_555 1_555
N13_3 C26_3 1_555 1_555
Co4_2 O1_2 1_555 1_555
Co5 O3_2 1_555 1_555
C17_3 N9_3 1_555 1_555
C17_3 N10_3 1_555 1_555
C26_3 C27_3 1_555 1_555
O4_2 Co5 1_555 1_555
C29_3 C30_3 1_555 1_555
C33_3 C32_3 1_555 1_555
H21_3 C33_3 1_555 1_555
C34_3 C33_3 1_555 1_555
C35_3 C30_3 1_555 1_555
H22_3 C35_3 1_555 1_555
O11_3 N14_3 1_555 1_555
O12_3 N14_3 1_555 1_555
N14_3 C34_3 1_555 1_555
C29_3 O8_3 1_555 1_555
C34_3 C35_3 1_555 1_555
Co1 O7_3 1_555 1_555
C2_3 H2_3 1_555 1_555
C12_3 H10_3 1_555 1_555
C13_3 C12_3 1_555 1_555
H11_3 C13_3 1_555 1_555
C15_3 H12_3 1_555 1_555
C19_3 H15_3 1_555 1_555
C20_3 C19_3 1_555 1_555
H16_3 C20_3 1_555 1_555
C31_3 H20_3 1_555 1_555
O9_3 C36_3 1_555 1_555
N1_3 Co1 1_555 1_555
N7_3 Co1 1_555 1_555
N8_3 C11_3 1_555 1_555
N12_3 Co5 1_555 1_555
O17_2 Co5 1_555 1_555
N15_2 Co5 1_555 1_555
C2_3 N1_3 1_555 1_555
C11_3 N7_3 1_555 1_555
C12_3 N7_3 1_555 1_555
C13_3 N8_3 1_555 1_555
C19_3 N12_3 1_555 1_555
C20_3 N11_3 1_555 1_555
H3_3 C3_3 1_555 1_555
C5_3 H4_3 1_555 1_555
C8_3 H6_3 1_555 1_555
C9_3 C8_3 1_555 1_555
H7_3 C9_3 1_555 1_555
N15_2 C9_3 1_555 1_555
C3_3 N2_3 1_555 1_555
C8_3 N5_3 1_555 1_555
Co4_2 O7_4 1_555 1_555
C2_4 H2_4 1_555 1_555
C3_4 C2_4 1_555 1_555
H3_4 C3_4 1_555 1_555
C5_4 H4_4 1_555 1_555
C8_4 H6_4 1_555 1_555
C9_4 C8_4 1_555 1_555
H7_4 C9_4 1_555 1_555
C12_4 H10_4 1_555 1_555
C13_4 C12_4 1_555 1_555
H11_4 C13_4 1_555 1_555
C15_4 H12_4 1_555 1_555
H16_4 C20_4 1_555 1_555
C29_4 C30_4 1_555 1_555
C30_4 C31_4 1_555 1_555
C31_4 H20_4 1_555 1_555
C32_4 C31_4 1_555 1_555
C33_4 C32_4 1_555 1_555
H21_4 C33_4 1_555 1_555
C34_4 C33_4 1_555 1_555
C35_4 C30_4 1_555 1_555
H22_4 C35_4 1_555 1_555
C36_4 C32_4 1_555 1_555
O7_4 C29_4 1_555 1_555
O8_4 Co4_2 1_555 1_555
O9_4 C36_4 1_555 1_555
O17_2 C36_4 1_555 1_555
O11_4 N14_4 1_555 1_555
O12_4 N14_4 1_555 1_555
N1_4 Co4_2 1_555 1_555
N6_2 C9_4 1_555 1_555
N7_4 Co4_2 1_555 1_555
N8_4 C11_4 1_555 1_555
N14_4 C34_4 1_555 1_555
Co7_2 N6_2 1_555 1_555
C2_4 N1_4 1_555 1_555
C3_4 N2_4 1_555 1_555
C8_4 N5_4 1_555 1_555
C11_4 N7_4 1_555 1_555
C12_4 N7_4 1_555 1_555
C13_4 N8_4 1_555 1_555
C20_4 N11_4 1_555 1_555
C29_4 O8_4 1_555 1_555
C34_4 C35_4 1_555 1_555
C19_4 H15_4 1_555 1_555
N12_4 Co7_2 1_555 1_555
O14_2 Co7_2 1_555 1_555
C19_4 N12_4 1_555 1_555
C1_3 H1_3 1_555 1_555
C7_3 H5_3 1_555 1_555
C10_3 H8_3 1_555 1_555
C17_4 H13_4 1_555 1_555
C18_4 H14_4 1_555 1_555
N3_3 C4_3 1_555 1_555
N4_3 C6_3 1_555 1_555
N9_4 C14_4 1_555 1_555
N10_4 C16_4 1_555 1_555
C7_3 N3_3 1_555 1_555
C7_3 N4_3 1_555 1_555
C17_4 N9_4 1_555 1_555
C17_4 N10_4 1_555 1_555
C23_4 H17_4 1_555 1_555
O13_2 C21_4 1_555 1_555
O2_4 C21_4 1_555 1_555
O14_2 C28_4 1_555 1_555
C1_4 H1_4 1_555 1_555
C7_4 H5_4 1_555 1_555
C10_4 H8_4 1_555 1_555
N3_4 C4_4 1_555 1_555
N4_4 C6_4 1_555 1_555
C7_4 N3_4 1_555 1_555
C7_4 N4_4 1_555 1_555
C25_4 C24_4 1_555 1_555
H18_4 C25_4 1_555 1_555
C26_4 C25_4 1_555 1_555
C27_4 C22_4 1_555 1_555
H19_4 C27_4 1_555 1_555
O5_4 N13_4 1_555 1_555
O6_4 N13_4 1_555 1_555
N13_4 C26_4 1_555 1_555
C26_4 C27_4 1_555 1_555

#END
