
###############################################################################
#
# This file contains modified crystal structure data generated from the
# MOF subset of the Cambridge Structural Database (CSD) v543 
# hosted by the Cambridge Crystallographic Data Centre (CCDC).
#
# This work is licensed under the Creative Commons
# Attribution-NonCommercial-ShareAlike 4.0 International License.
# To view a copy of this license, visit
# http://creativecommons.org/licenses/by-nc-sa/4.0/
# or send a letter to
# Creative Commons, PO Box 1866, Mountain View, CA 94042, USA.
#
# CIF created using the CSD Python API on 29 September 2022
# The structure has been converted into the P1 space group
# The structure has a 3D framework
# The original CSD entry KEDLAJ05 is in the orthorhombic crystal system
# The original CSD entry KEDLAJ05 is in a Sohncke space group
# The framework has been calculated to contain at least 10.0% void space
# The void calculation uses a probe of radius 1.32A, grid spacing 0.4
#
###############################################################################

data_KEDLAJ05
_chemical_formula_moiety         '(C144 H88 Co8 N56 O47)n'
_symmetry_cell_setting           triclinic
_symmetry_space_group_name_H-M   'P 1'
_symmetry_Int_Tables_number      1
_space_group_name_Hall           'P 1'
loop_
_symmetry_equiv_pos_site_id
_symmetry_equiv_pos_as_xyz
1 x,y,z
_cell_length_a                   10.0417(18)
_cell_length_b                   19.674(4)
_cell_length_c                   20.304(4)
_cell_angle_alpha                90
_cell_angle_beta                 90
_cell_angle_gamma                90
_cell_volume                     4011.27
loop_
_atom_site_label
_atom_site_type_symbol
_atom_site_fract_x
_atom_site_fract_y
_atom_site_fract_z
C31 C 0.0538(6) 0.0065(3) 0.5780(3)
H20 H 0.0450 0.0535 0.5683
C36 C 0.2978(7) 0.0226(3) 0.5697(3)
O9 O 0.2893(5) 0.0838(2) 0.5806(2)
Co3 Co 0.57623(9) 0.04289(4) 0.55843(4)
C32 C 0.1786(6) 0.9786(3) 0.5823(3)
C33 C 0.1916(7) 0.9104(3) 0.5989(3)
H21 H 0.2769 0.8896 0.6013
C34 C 0.0770(7) 0.8734(3) 0.6118(3)
O10 O 0.4031(4) 0.99230(19) 0.5475(2)
O11 O 0.1964(6) 0.7747(3) 0.6308(3)
N14 N 0.0902(7) 0.8027(3) 0.6347(3)
Co7 Co 0.41745(9) 0.94456(4) 0.43822(4)
Co2 Co 0.58255(9) 0.44456(4) 0.06178(4)
C19 C 0.6420(7) 0.2945(3) 0.0271(3)
H15 H 0.7039 0.2890 0.0620
C21 C 0.2993(6) 0.4639(3) 0.0717(3)
C22 C 0.1831(7) 0.5099(3) 0.0833(3)
C23 C 0.0530(6) 0.4856(3) 0.0790(3)
H17 H 0.0389 0.4388 0.0698
C26 C 0.0934(7) 0.6185(3) 0.1081(3)
C27 C 0.2010(7) 0.5776(3) 0.0980(3)
H19 H 0.2884 0.5958 0.1012
O1 O 0.4082(4) 0.49238(18) 0.0533(2)
O2 O 0.2845(4) 0.4025(2) 0.0826(2)
O5 O 0.0221(6) 0.7299(2) 0.1213(3)
O6 O 0.2259(5) 0.7061(3) 0.1448(3)
N12 N 0.5636(6) 0.3518(2) 0.0170(2)
N13 N 0.1134(6) 0.6904(3) 0.1264(3)
O14 O 0.7947(4) 0.4368(2) 0.0660(2)
O15 O 0.7068(5) 0.5361(2) 0.0878(2)
N15 N 0.5755(6) 0.4165(2) 0.1621(2)
C1 C 0.4794(6) 0.1559(3) 0.4674(3)
H1 H 0.4049 0.1304 0.4526
C2 C 0.6533(7) 0.1870(3) 0.5195(3)
H2 H 0.7261 0.1863 0.5494
C3 C 0.6260(7) 0.2383(3) 0.4788(3)
H3 H 0.6734 0.2798 0.4742
C4 C 0.4556(7) 0.2493(3) 0.3887(3)
C5 C 0.5231(7) 0.2973(3) 0.3531(3)
H4 H 0.6080 0.3137 0.3663
C6 C 0.4601(7) 0.3202(3) 0.2971(3)
C7 C 0.2840(8) 0.2533(3) 0.3181(3)
H5 H 0.1986 0.2374 0.3052
C8 C 0.6355(7) 0.4044(3) 0.2675(4)
H6 H 0.6815 0.4082 0.3082
C9 C 0.6661(7) 0.4349(3) 0.2107(3)
H7 H 0.7393 0.4648 0.2044
C10 C 0.4911(7) 0.3756(3) 0.1901(3)
H8 H 0.4175 0.3550 0.1685
C11 C 0.4994(6) 0.1206(3) 0.6832(3)
H9 H 0.4347 0.1463 0.6599
C12 C 0.6528(7) 0.0486(3) 0.7078(3)
H10 H 0.7163 0.0132 0.7033
C13 C 0.6307(7) 0.0842(3) 0.7633(3)
H11 H 0.6742 0.0788 0.8045
C14 C 0.4749(7) 0.1812(3) 0.7886(3)
C15 C 0.5345(7) 0.1985(3) 0.8482(3)
H12 H 0.6122 0.1769 0.8648
C16 C 0.4692(7) 0.2504(3) 0.8809(3)
C17 C 0.3166(8) 0.2593(3) 0.8020(3)
H13 H 0.2399 0.2818 0.7853
C18 C 0.4919(6) 0.3382(3) 0.9649(3)
H14 H 0.4280 0.3683 0.9465
C20 C 0.6177(7) 0.2483(3) 0.9804(3)
H16 H 0.6590 0.2052 0.9755
O7 O 0.7969(4) 0.0618(2) 0.5673(2)
N1 N 0.5628(6) 0.1354(2) 0.5127(2)
N2 N 0.5131(5) 0.2180(2) 0.4446(3)
N3 N 0.3340(6) 0.2266(3) 0.3731(3)
N4 N 0.3395(6) 0.2998(3) 0.2789(3)
N5 N 0.5229(6) 0.3664(3) 0.2546(3)
N7 N 0.5688(6) 0.0714(2) 0.6577(2)
N8 N 0.5312(5) 0.1306(3) 0.7478(2)
N9 N 0.3668(6) 0.2104(3) 0.7643(3)
N10 N 0.3602(6) 0.2807(3) 0.8600(3)
N11 N 0.5198(5) 0.2762(2) 0.9405(3)
Co4 Co 0.42377(9) 0.54289(4) 0.94157(4)
O17 O 0.5969(4) 0.49230(19) 0.9525(2)
C29 C 0.8075(7) 0.9995(3) 0.5773(3)
C30 C 0.9406(7) 0.9679(3) 0.5876(3)
C35 C 0.9508(7) 0.8999(3) 0.6053(3)
H22 H 0.8739 0.8728 0.6127
O8 O 0.7037(4) 0.9615(2) 0.5778(2)
O12 O 0.9920(5) 0.7765(2) 0.6591(3)
O13 O 0.5918(4) 0.99238(18) 0.4467(2)
C24 C 0.9432(7) 0.5276(3) 0.0877(3)
C25 C 0.9632(6) 0.5954(3) 0.1021(3)
H18 H 0.8900 0.6254 0.1078
C28 C 0.8058(7) 0.4984(3) 0.0799(3)
C24_2 C 0.0568(7) 0.0276(3) 0.4123(3)
C25_2 C 0.0368(6) 0.0954(3) 0.3979(3)
H18_2 H 0.1100 0.1254 0.3922
O4 O 0.2932(5) 0.0361(2) 0.4122(2)
C28_2 C 0.1942(7) 0.9984(3) 0.4201(3)
O3 O 0.2053(4) 0.9368(2) 0.4340(2)
C22_2 C 0.8169(7) 0.0099(3) 0.4167(3)
C26_2 C 0.9066(7) 0.1185(3) 0.3919(3)
C27_2 C 0.7990(7) 0.0776(3) 0.4020(3)
H19_2 H 0.7116 0.0958 0.3988
O5_2 O 0.9779(6) 0.2299(2) 0.3787(3)
O6_2 O 0.7741(5) 0.2061(3) 0.3552(3)
N13_2 N 0.8866(6) 0.1904(3) 0.3736(3)
C1_2 C 0.5206(6) 0.6559(3) 0.0326(3)
H1_2 H 0.5951 0.6304 0.0474
C3_2 C 0.3740(7) 0.7383(3) 0.0212(3)
H3_2 H 0.3266 0.7798 0.0258
C4_2 C 0.5444(7) 0.7493(3) 0.1113(3)
C5_2 C 0.4769(7) 0.7973(3) 0.1469(3)
H4_2 H 0.3920 0.8137 0.1337
C6_2 C 0.5399(7) 0.8202(3) 0.2029(3)
C7_2 C 0.7160(8) 0.7533(3) 0.1819(3)
H5_2 H 0.8014 0.7374 0.1948
C8_2 C 0.3645(7) 0.9044(3) 0.2325(4)
H6_2 H 0.3185 0.9082 0.1918
C9_2 C 0.3339(7) 0.9349(3) 0.2893(3)
H7_2 H 0.2607 0.9648 0.2956
C10_2 C 0.5089(7) 0.8756(3) 0.3099(3)
H8_2 H 0.5825 0.8550 0.3315
N2_2 N 0.4869(5) 0.7180(2) 0.0554(3)
N3_2 N 0.6660(6) 0.7266(3) 0.1269(3)
N4_2 N 0.6605(6) 0.7998(3) 0.2211(3)
N5_2 N 0.4771(6) 0.8664(3) 0.2454(3)
N6 N 0.4245(6) 0.9165(2) 0.3379(2)
C2_2 C 0.3467(7) 0.6870(3) 0.9805(3)
H2_2 H 0.2739 0.6863 0.9506
C11_2 C 0.5006(6) 0.6206(3) 0.8168(3)
H9_2 H 0.5653 0.6463 0.8401
C12_2 C 0.3472(7) 0.5486(3) 0.7922(3)
H10_2 H 0.2837 0.5132 0.7967
C13_2 C 0.3693(7) 0.5842(3) 0.7367(3)
H11_2 H 0.3258 0.5788 0.6955
C14_2 C 0.5251(7) 0.6812(3) 0.7114(3)
C15_2 C 0.4655(7) 0.6985(3) 0.6518(3)
H12_2 H 0.3878 0.6769 0.6352
C16_2 C 0.5308(7) 0.7504(3) 0.6191(3)
C17_2 C 0.6834(8) 0.7593(3) 0.6980(3)
H13_2 H 0.7601 0.7818 0.7147
C18_2 C 0.5081(6) 0.8382(3) 0.5351(3)
H14_2 H 0.5720 0.8683 0.5535
C19_2 C 0.3580(7) 0.7945(3) 0.4729(3)
H15_2 H 0.2961 0.7890 0.4380
C20_2 C 0.3823(7) 0.7483(3) 0.5196(3)
H16_2 H 0.3410 0.7052 0.5245
C21_2 C 0.7007(6) 0.9639(3) 0.4283(3)
C23_2 C 0.9470(6) 0.9856(3) 0.4210(3)
H17_2 H 0.9611 0.9388 0.4302
C29_2 C 0.1925(7) 0.4995(3) 0.9227(3)
C30_2 C 0.0594(7) 0.4679(3) 0.9124(3)
C35_2 C 0.0492(7) 0.3999(3) 0.8947(3)
H22_2 H 0.1261 0.3728 0.8873
O2_2 O 0.7155(4) 0.9025(2) 0.4174(2)
O7_2 O 0.2031(4) 0.5618(2) 0.9327(2)
O8_2 O 0.2963(4) 0.4615(2) 0.9222(2)
O12_2 O 0.0080(5) 0.2765(2) 0.8409(3)
N1_2 N 0.4372(6) 0.6354(2) 0.9873(2)
N7_2 N 0.4312(6) 0.5714(2) 0.8423(2)
N8_2 N 0.4688(5) 0.6306(3) 0.7522(2)
N9_2 N 0.6332(6) 0.7104(3) 0.7357(3)
N10_2 N 0.6398(6) 0.7807(3) 0.6400(3)
N11_2 N 0.4802(5) 0.7762(2) 0.5595(3)
N12_2 N 0.4364(6) 0.8518(2) 0.4830(2)
C31_2 C 0.9462(6) 0.5065(3) 0.9220(3)
H20_2 H 0.9550 0.5535 0.9317
C32_2 C 0.8214(6) 0.4786(3) 0.9177(3)
C33_2 C 0.8084(7) 0.4104(3) 0.9011(3)
H21_2 H 0.7231 0.3896 0.8987
C34_2 C 0.9230(7) 0.3734(3) 0.8882(3)
C36_2 C 0.7022(7) 0.5226(3) 0.9303(3)
O9_2 O 0.7107(5) 0.5838(2) 0.9194(2)
O11_2 O 0.8036(6) 0.2747(3) 0.8692(3)
N14_2 N 0.9098(7) 0.3027(3) 0.8653(3)
O16 O 0.0969(4) 0.00770(19) 0.0475(2)
C11_3 C 0.0006(6) 0.8794(3) 0.1832(3)
H9_3 H 0.0653 0.8537 0.1599
C14_3 C 0.0251(7) 0.8188(3) 0.2886(3)
C16_3 C 0.0308(7) 0.7496(3) 0.3809(3)
C17_3 C 0.1834(8) 0.7407(3) 0.3020(3)
H13_3 H 0.2601 0.7182 0.2853
C18_3 C 0.0081(6) 0.6618(3) 0.4649(3)
H14_3 H 0.0720 0.6317 0.4465
C21_3 C 0.2007(6) 0.5361(3) 0.5717(3)
C22_3 C 0.3169(7) 0.4901(3) 0.5833(3)
C23_3 C 0.4470(6) 0.5144(3) 0.5790(3)
H17_3 H 0.4611 0.5612 0.5698
C24_3 C 0.5568(7) 0.4724(3) 0.5877(3)
C25_3 C 0.5368(6) 0.4046(3) 0.6021(3)
H18_3 H 0.6100 0.3746 0.6078
C26_3 C 0.4066(7) 0.3815(3) 0.6081(3)
C27_3 C 0.2990(7) 0.4224(3) 0.5980(3)
H19_3 H 0.2116 0.4042 0.6012
C28_3 C 0.6942(7) 0.5016(3) 0.5799(3)
O1_2 O 0.0918(4) 0.50762(18) 0.5533(2)
O2_3 O 0.2155(4) 0.5975(2) 0.5826(2)
O3_2 O 0.7053(4) 0.5632(2) 0.5660(2)
O4_2 O 0.7932(5) 0.4639(2) 0.5878(2)
O5_3 O 0.4779(6) 0.2701(2) 0.6213(3)
O6_3 O 0.2741(5) 0.2939(3) 0.6448(3)
N9_3 N 0.1332(6) 0.7896(3) 0.2643(3)
N10_3 N 0.1398(6) 0.7193(3) 0.3600(3)
N13_3 N 0.3866(6) 0.3096(3) 0.6264(3)
Co4_2 Co 0.07623(9) 0.45711(4) 0.44157(4)
Co5 Co 0.91745(9) 0.55544(4) 0.56178(4)
C29_3 C 0.6925(7) 0.0005(3) 0.0773(3)
C30_3 C 0.5594(7) 0.0321(3) 0.0876(3)
C32_3 C 0.3214(6) 0.0214(3) 0.0823(3)
C33_3 C 0.3084(7) 0.0896(3) 0.0989(3)
H21_3 H 0.2231 0.1104 0.1013
C34_3 C 0.4230(7) 0.1266(3) 0.1118(3)
C35_3 C 0.5492(7) 0.1001(3) 0.1053(3)
H22_3 H 0.6261 0.1272 0.1127
O8_3 O 0.7963(4) 0.0385(2) 0.0778(2)
O11_3 O 0.3036(6) 0.2253(3) 0.1308(3)
O12_3 O 0.5080(5) 0.2235(2) 0.1591(3)
N14_3 N 0.4098(7) 0.1973(3) 0.1347(3)
Co7_2 Co 0.08255(9) 0.05544(4) 0.93822(4)
O13_2 O 0.9082(4) 0.00762(18) 0.9467(2)
Co1 Co 0.92377(9) 0.95711(4) 0.05843(4)
C2_3 C 0.8467(7) 0.8130(3) 0.0195(3)
H2_3 H 0.7739 0.8137 0.0494
C12_3 C 0.8472(7) 0.9514(3) 0.2078(3)
H10_3 H 0.7837 0.9868 0.2033
C13_3 C 0.8693(7) 0.9158(3) 0.2633(3)
H11_3 H 0.8258 0.9212 0.3045
C15_3 C 0.9655(7) 0.8015(3) 0.3482(3)
H12_3 H 0.8878 0.8231 0.3648
C19_3 C 0.8580(7) 0.7055(3) 0.5271(3)
H15_3 H 0.7961 0.7110 0.5620
C20_3 C 0.8823(7) 0.7517(3) 0.4804(3)
H16_3 H 0.8410 0.7948 0.4755
C31_3 C 0.4462(6) 0.9935(3) 0.0780(3)
H20_3 H 0.4550 0.9465 0.0683
C36_3 C 0.2022(7) 0.9774(3) 0.0697(3)
O7_3 O 0.7031(4) 0.9382(2) 0.0673(2)
O9_3 O 0.2107(5) 0.9162(2) 0.0806(2)
N1_3 N 0.9372(6) 0.8646(2) 0.0127(2)
N7_3 N 0.9312(6) 0.9286(2) 0.1577(2)
N8_3 N 0.9688(5) 0.8694(3) 0.2478(2)
N11_3 N 0.9802(5) 0.7238(2) 0.4405(3)
N12_3 N 0.9364(6) 0.6482(2) 0.5170(2)
O17_2 O 0.9031(4) 0.50770(19) 0.4525(2)
N15_2 N 0.9245(6) 0.5835(2) 0.6621(2)
C3_3 C 0.8740(7) 0.7617(3) 0.9788(3)
H3_3 H 0.8266 0.7202 0.9742
C5_3 C 0.9769(7) 0.7027(3) 0.8531(3)
H4_3 H 0.8920 0.6863 0.8663
C8_3 C 0.8645(7) 0.5956(3) 0.7675(4)
H6_3 H 0.8185 0.5918 0.8082
C9_3 C 0.8339(7) 0.5651(3) 0.7107(3)
H7_3 H 0.7607 0.5352 0.7044
N2_3 N 0.9869(5) 0.7820(2) 0.9446(3)
N5_3 N 0.9771(6) 0.6336(3) 0.7546(3)
C2_4 C 0.1533(7) 0.3130(3) 0.4805(3)
H2_4 H 0.2261 0.3137 0.4506
C3_4 C 0.1260(7) 0.2617(3) 0.5212(3)
H3_4 H 0.1734 0.2202 0.5258
C5_4 C 0.0231(7) 0.2027(3) 0.6469(3)
H4_4 H 0.1080 0.1863 0.6337
C8_4 C 0.1355(7) 0.0956(3) 0.7325(4)
H6_4 H 0.1815 0.0918 0.6918
C9_4 C 0.1661(7) 0.0651(3) 0.7893(3)
H7_4 H 0.2393 0.0352 0.7956
C12_4 C 0.1528(7) 0.4514(3) 0.2922(3)
H10_4 H 0.2163 0.4868 0.2967
C13_4 C 0.1307(7) 0.4158(3) 0.2367(3)
H11_4 H 0.1742 0.4212 0.1955
C15_4 C 0.0345(7) 0.3015(3) 0.1518(3)
H12_4 H 0.1122 0.3231 0.1352
C20_4 C 0.1177(7) 0.2517(3) 0.0196(3)
H16_4 H 0.1590 0.2948 0.0245
C29_4 C 0.3075(7) 0.5005(3) 0.4227(3)
C30_4 C 0.4406(7) 0.5321(3) 0.4124(3)
C31_4 C 0.5538(6) 0.4935(3) 0.4220(3)
H20_4 H 0.5450 0.4465 0.4317
C32_4 C 0.6786(6) 0.5214(3) 0.4177(3)
C33_4 C 0.6916(7) 0.5896(3) 0.4011(3)
H21_4 H 0.7769 0.6104 0.3987
C34_4 C 0.5770(7) 0.6266(3) 0.3882(3)
C35_4 C 0.4508(7) 0.6001(3) 0.3947(3)
H22_4 H 0.3739 0.6272 0.3873
C36_4 C 0.7978(7) 0.4774(3) 0.4303(3)
O7_4 O 0.2969(4) 0.4382(2) 0.4327(2)
O8_4 O 0.2037(4) 0.5385(2) 0.4222(2)
O9_4 O 0.7893(5) 0.4162(2) 0.4194(2)
O11_4 O 0.6964(6) 0.7253(3) 0.3692(3)
O12_4 O 0.4920(5) 0.7235(2) 0.3409(3)
N1_4 N 0.0628(6) 0.3646(2) 0.4873(2)
N2_4 N 0.0131(5) 0.2820(2) 0.5554(3)
N5_4 N 0.0229(6) 0.1336(3) 0.7454(3)
N6_2 N 0.0755(6) 0.0835(2) 0.8379(2)
N7_4 N 0.0688(6) 0.4286(2) 0.3423(2)
N8_4 N 0.0312(5) 0.3694(3) 0.2522(2)
N11_4 N 0.0198(5) 0.2238(2) 0.0595(3)
N14_4 N 0.5902(7) 0.6973(3) 0.3653(3)
C19_4 C 0.1420(7) 0.2055(3) 0.9729(3)
H15_4 H 0.2039 0.2110 0.9380
N12_4 N 0.0636(6) 0.1482(2) 0.9830(2)
O14_2 O 0.2947(4) 0.0632(2) 0.9340(2)
C1_3 C 0.9794(6) 0.3441(3) 0.5326(3)
H1_3 H 0.9049 0.3696 0.5474
C4_3 C 0.9556(7) 0.2507(3) 0.6113(3)
C6_3 C 0.9601(7) 0.1798(3) 0.7029(3)
C7_3 C 0.7840(8) 0.2467(3) 0.6819(3)
H5_3 H 0.6986 0.2626 0.6948
C10_3 C 0.9911(7) 0.1244(3) 0.8099(3)
H8_3 H 0.9175 0.1450 0.8315
C11_4 C 0.9994(6) 0.3794(3) 0.3168(3)
H9_4 H 0.9347 0.3537 0.3401
C14_4 C 0.9749(7) 0.3188(3) 0.2114(3)
C16_4 C 0.9692(7) 0.2496(3) 0.1191(3)
C17_4 C 0.8166(8) 0.2407(3) 0.1980(3)
H13_4 H 0.7399 0.2182 0.2147
C18_4 C 0.9919(6) 0.1618(3) 0.0351(3)
H14_4 H 0.9280 0.1317 0.0535
N3_3 N 0.8340(6) 0.2734(3) 0.6269(3)
N4_3 N 0.8395(6) 0.2002(3) 0.7211(3)
N9_4 N 0.8668(6) 0.2896(3) 0.2357(3)
N10_4 N 0.8602(6) 0.2193(3) 0.1400(3)
C21_4 C 0.7993(6) 0.0361(3) 0.9283(3)
C23_4 C 0.5530(6) 0.0144(3) 0.9210(3)
H17_4 H 0.5389 0.0612 0.9302
C28_4 C 0.3058(7) 0.0016(3) 0.9201(3)
O2_4 O 0.7845(4) 0.0975(2) 0.9174(2)
C1_4 C 0.0206(6) 0.8441(3) 0.9674(3)
H1_4 H 0.0951 0.8696 0.9526
C4_4 C 0.0444(7) 0.7507(3) 0.8887(3)
C6_4 C 0.0399(7) 0.6798(3) 0.7971(3)
C7_4 C 0.2160(8) 0.7467(3) 0.8181(3)
H5_4 H 0.3014 0.7626 0.8052
C10_4 C 0.0089(7) 0.6244(3) 0.6901(3)
H8_4 H 0.0825 0.6450 0.6685
N3_4 N 0.1660(6) 0.7734(3) 0.8731(3)
N4_4 N 0.1605(6) 0.7002(3) 0.7789(3)
O15_2 O 0.2068(5) 0.9639(2) 0.9122(2)
C22_4 C 0.6831(7) 0.9901(3) 0.9167(3)
C24_4 C 0.4432(7) 0.9724(3) 0.9123(3)
C25_4 C 0.4632(6) 0.9046(3) 0.8979(3)
H18_4 H 0.3900 0.8746 0.8922
C26_4 C 0.5934(7) 0.8815(3) 0.8919(3)
C27_4 C 0.7010(7) 0.9224(3) 0.9020(3)
H19_4 H 0.7884 0.9042 0.8988
O5_4 O 0.5221(6) 0.7701(2) 0.8787(3)
O6_4 O 0.7259(5) 0.7939(3) 0.8552(3)
N13_4 N 0.6134(6) 0.8096(3) 0.8736(3)
loop_
_geom_bond_atom_site_label_1
_geom_bond_atom_site_label_2
_geom_bond_site_symmetry_1
_geom_bond_site_symmetry_2
C31 H20 1_555 1_555
O9 C36 1_555 1_555
C33 C32 1_555 1_555
H21 C33 1_555 1_555
C34 C33 1_555 1_555
O11 N14 1_555 1_555
N14 C34 1_555 1_555
Co7 O10 1_555 1_555
Co2 O1 1_555 1_555
C19 H15 1_555 1_555
C21 C22 1_555 1_555
C22 C23 1_555 1_555
C23 H17 1_555 1_555
C27 C22 1_555 1_555
H19 C27 1_555 1_555
O1 C21 1_555 1_555
O2 C21 1_555 1_555
O5 N13 1_555 1_555
O6 N13 1_555 1_555
N12 Co2 1_555 1_555
N13 C26 1_555 1_555
O14 Co2 1_555 1_555
O15 Co2 1_555 1_555
N15 Co2 1_555 1_555
C19 N12 1_555 1_555
C26 C27 1_555 1_555
Co3 O7 1_555 1_555
C1 H1 1_555 1_555
C2 H2 1_555 1_555
C3 C2 1_555 1_555
H3 C3 1_555 1_555
C4 C5 1_555 1_555
C5 H4 1_555 1_555
C6 C5 1_555 1_555
C7 H5 1_555 1_555
C8 H6 1_555 1_555
C9 C8 1_555 1_555
H7 C9 1_555 1_555
C10 H8 1_555 1_555
C11 H9 1_555 1_555
C12 H10 1_555 1_555
C13 C12 1_555 1_555
H11 C13 1_555 1_555
C14 C15 1_555 1_555
C15 H12 1_555 1_555
C16 C15 1_555 1_555
C17 H13 1_555 1_555
C18 H14 1_555 1_555
H16 C20 1_555 1_555
N1 Co3 1_555 1_555
N2 C1 1_555 1_555
N3 C4 1_555 1_555
N4 C6 1_555 1_555
N5 C6 1_555 1_555
N15 C9 1_555 1_555
N7 Co3 1_555 1_555
N8 C11 1_555 1_555
N9 C14 1_555 1_555
N10 C16 1_555 1_555
N11 C16 1_555 1_555
C1 N1 1_555 1_555
C2 N1 1_555 1_555
C3 N2 1_555 1_555
C4 N2 1_555 1_555
C7 N3 1_555 1_555
C7 N4 1_555 1_555
C8 N5 1_555 1_555
C10 N5 1_555 1_555
C10 N15 1_555 1_555
C11 N7 1_555 1_555
C12 N7 1_555 1_555
C13 N8 1_555 1_555
C14 N8 1_555 1_555
C17 N9 1_555 1_555
C17 N10 1_555 1_555
C18 N11 1_555 1_555
C20 N11 1_555 1_555
Co4 O17 1_555 1_555
C29 C30 1_555 1_555
C35 C30 1_555 1_555
H22 C35 1_555 1_555
C29 O8 1_555 1_555
C25 C24 1_555 1_555
H18 C25 1_555 1_555
C28 C24 1_555 1_555
O14 C28 1_555 1_555
O15 C28 1_555 1_555
C25_2 C24_2 1_555 1_555
H18_2 C25_2 1_555 1_555
O3 C28_2 1_555 1_555
Co7 O3 1_555 1_555
C27_2 C22_2 1_555 1_555
H19_2 C27_2 1_555 1_555
O5_2 N13_2 1_555 1_555
O6_2 N13_2 1_555 1_555
N13_2 C26_2 1_555 1_555
C26_2 C27_2 1_555 1_555
C1_2 H1_2 1_555 1_555
H3_2 C3_2 1_555 1_555
C4_2 C5_2 1_555 1_555
C5_2 H4_2 1_555 1_555
C6_2 C5_2 1_555 1_555
C7_2 H5_2 1_555 1_555
C8_2 H6_2 1_555 1_555
C9_2 C8_2 1_555 1_555
H7_2 C9_2 1_555 1_555
C10_2 H8_2 1_555 1_555
N2_2 C1_2 1_555 1_555
N3_2 C4_2 1_555 1_555
N4_2 C6_2 1_555 1_555
N5_2 C6_2 1_555 1_555
N6 C9_2 1_555 1_555
Co7 N6 1_555 1_555
C3_2 N2_2 1_555 1_555
C4_2 N2_2 1_555 1_555
C7_2 N3_2 1_555 1_555
C7_2 N4_2 1_555 1_555
C8_2 N5_2 1_555 1_555
C10_2 N5_2 1_555 1_555
C10_2 N6 1_555 1_555
Co4 O7_2 1_555 1_555
Co7 O13 1_555 1_555
C2_2 H2_2 1_555 1_555
C11_2 H9_2 1_555 1_555
C12_2 H10_2 1_555 1_555
C13_2 C12_2 1_555 1_555
H11_2 C13_2 1_555 1_555
C14_2 C15_2 1_555 1_555
C15_2 H12_2 1_555 1_555
C16_2 C15_2 1_555 1_555
C17_2 H13_2 1_555 1_555
C18_2 H14_2 1_555 1_555
C19_2 H15_2 1_555 1_555
C20_2 C19_2 1_555 1_555
H16_2 C20_2 1_555 1_555
C23_2 H17_2 1_555 1_555
C29_2 C30_2 1_555 1_555
C35_2 C30_2 1_555 1_555
H22_2 C35_2 1_555 1_555
O13 C21_2 1_555 1_555
O2_2 C21_2 1_555 1_555
O7_2 C29_2 1_555 1_555
O8_2 Co4 1_555 1_555
N1_2 Co4 1_555 1_555
N7_2 Co4 1_555 1_555
N8_2 C11_2 1_555 1_555
N9_2 C14_2 1_555 1_555
N10_2 C16_2 1_555 1_555
N11_2 C16_2 1_555 1_555
N12_2 Co7 1_555 1_555
C2_2 N1_2 1_555 1_555
C11_2 N7_2 1_555 1_555
C12_2 N7_2 1_555 1_555
C13_2 N8_2 1_555 1_555
C14_2 N8_2 1_555 1_555
C17_2 N9_2 1_555 1_555
C17_2 N10_2 1_555 1_555
C18_2 N11_2 1_555 1_555
C18_2 N12_2 1_555 1_555
C19_2 N12_2 1_555 1_555
C20_2 N11_2 1_555 1_555
C29_2 O8_2 1_555 1_555
C31_2 H20_2 1_555 1_555
C32_2 C31_2 1_555 1_555
C33_2 C32_2 1_555 1_555
H21_2 C33_2 1_555 1_555
C34_2 C33_2 1_555 1_555
C36_2 C32_2 1_555 1_555
O9_2 C36_2 1_555 1_555
O17 C36_2 1_555 1_555
O11_2 N14_2 1_555 1_555
N14_2 C34_2 1_555 1_555
C11_3 H9_3 1_555 1_555
C17_3 H13_3 1_555 1_555
C18_3 H14_3 1_555 1_555
C21_3 C22_3 1_555 1_555
C22_3 C23_3 1_555 1_555
C23_3 H17_3 1_555 1_555
C24_3 C23_3 1_555 1_555
C25_3 C24_3 1_555 1_555
H18_3 C25_3 1_555 1_555
C26_3 C25_3 1_555 1_555
C27_3 C22_3 1_555 1_555
H19_3 C27_3 1_555 1_555
C28_3 C24_3 1_555 1_555
O1_2 C21_3 1_555 1_555
O2_3 C21_3 1_555 1_555
O3_2 C28_3 1_555 1_555
O4_2 C28_3 1_555 1_555
O5_3 N13_3 1_555 1_555
O6_3 N13_3 1_555 1_555
N9_3 C14_3 1_555 1_555
N10_3 C16_3 1_555 1_555
N13_3 C26_3 1_555 1_555
Co4_2 O1_2 1_555 1_555
Co5 O3_2 1_555 1_555
C17_3 N9_3 1_555 1_555
C17_3 N10_3 1_555 1_555
C26_3 C27_3 1_555 1_555
O4_2 Co5 1_555 1_555
C29_3 C30_3 1_555 1_555
C33_3 C32_3 1_555 1_555
H21_3 C33_3 1_555 1_555
C34_3 C33_3 1_555 1_555
C35_3 C30_3 1_555 1_555
H22_3 C35_3 1_555 1_555
O11_3 N14_3 1_555 1_555
O12_3 N14_3 1_555 1_555
N14_3 C34_3 1_555 1_555
C29_3 O8_3 1_555 1_555
C34_3 C35_3 1_555 1_555
Co1 O7_3 1_555 1_555
C2_3 H2_3 1_555 1_555
C12_3 H10_3 1_555 1_555
C13_3 C12_3 1_555 1_555
H11_3 C13_3 1_555 1_555
C15_3 H12_3 1_555 1_555
C19_3 H15_3 1_555 1_555
C20_3 C19_3 1_555 1_555
H16_3 C20_3 1_555 1_555
C31_3 H20_3 1_555 1_555
O9_3 C36_3 1_555 1_555
N1_3 Co1 1_555 1_555
N7_3 Co1 1_555 1_555
N12_3 Co5 1_555 1_555
O17_2 Co5 1_555 1_555
N15_2 Co5 1_555 1_555
C2_3 N1_3 1_555 1_555
C12_3 N7_3 1_555 1_555
C13_3 N8_3 1_555 1_555
C19_3 N12_3 1_555 1_555
C20_3 N11_3 1_555 1_555
H3_3 C3_3 1_555 1_555
C5_3 H4_3 1_555 1_555
C8_3 H6_3 1_555 1_555
C9_3 C8_3 1_555 1_555
H7_3 C9_3 1_555 1_555
N15_2 C9_3 1_555 1_555
C3_3 N2_3 1_555 1_555
C8_3 N5_3 1_555 1_555
Co4_2 O7_4 1_555 1_555
C2_4 H2_4 1_555 1_555
C3_4 C2_4 1_555 1_555
H3_4 C3_4 1_555 1_555
C5_4 H4_4 1_555 1_555
C8_4 H6_4 1_555 1_555
C9_4 C8_4 1_555 1_555
H7_4 C9_4 1_555 1_555
C12_4 H10_4 1_555 1_555
C13_4 C12_4 1_555 1_555
H11_4 C13_4 1_555 1_555
C15_4 H12_4 1_555 1_555
H16_4 C20_4 1_555 1_555
C29_4 C30_4 1_555 1_555
C30_4 C31_4 1_555 1_555
C31_4 H20_4 1_555 1_555
C32_4 C31_4 1_555 1_555
C33_4 C32_4 1_555 1_555
H21_4 C33_4 1_555 1_555
C34_4 C33_4 1_555 1_555
C35_4 C30_4 1_555 1_555
H22_4 C35_4 1_555 1_555
C36_4 C32_4 1_555 1_555
O7_4 C29_4 1_555 1_555
O8_4 Co4_2 1_555 1_555
O9_4 C36_4 1_555 1_555
O17_2 C36_4 1_555 1_555
O11_4 N14_4 1_555 1_555
O12_4 N14_4 1_555 1_555
N1_4 Co4_2 1_555 1_555
N6_2 C9_4 1_555 1_555
N7_4 Co4_2 1_555 1_555
N14_4 C34_4 1_555 1_555
Co7_2 N6_2 1_555 1_555
C2_4 N1_4 1_555 1_555
C3_4 N2_4 1_555 1_555
C8_4 N5_4 1_555 1_555
C12_4 N7_4 1_555 1_555
C13_4 N8_4 1_555 1_555
C20_4 N11_4 1_555 1_555
C29_4 O8_4 1_555 1_555
C34_4 C35_4 1_555 1_555
C19_4 H15_4 1_555 1_555
N12_4 Co7_2 1_555 1_555
O14_2 Co7_2 1_555 1_555
C19_4 N12_4 1_555 1_555
C1_3 H1_3 1_555 1_555
C7_3 H5_3 1_555 1_555
C10_3 H8_3 1_555 1_555
C11_4 H9_4 1_555 1_555
C17_4 H13_4 1_555 1_555
C18_4 H14_4 1_555 1_555
N3_3 C4_3 1_555 1_555
N4_3 C6_3 1_555 1_555
N9_4 C14_4 1_555 1_555
N10_4 C16_4 1_555 1_555
C7_3 N3_3 1_555 1_555
C7_3 N4_3 1_555 1_555
C17_4 N9_4 1_555 1_555
C17_4 N10_4 1_555 1_555
C23_4 H17_4 1_555 1_555
O13_2 C21_4 1_555 1_555
O2_4 C21_4 1_555 1_555
O14_2 C28_4 1_555 1_555
C1_4 H1_4 1_555 1_555
C7_4 H5_4 1_555 1_555
C10_4 H8_4 1_555 1_555
N3_4 C4_4 1_555 1_555
N4_4 C6_4 1_555 1_555
C7_4 N3_4 1_555 1_555
C7_4 N4_4 1_555 1_555
C25_4 C24_4 1_555 1_555
H18_4 C25_4 1_555 1_555
C26_4 C25_4 1_555 1_555
C27_4 C22_4 1_555 1_555
H19_4 C27_4 1_555 1_555
O5_4 N13_4 1_555 1_555
O6_4 N13_4 1_555 1_555
N13_4 C26_4 1_555 1_555
C26_4 C27_4 1_555 1_555

#END
