
###############################################################################
#
# This file contains modified crystal structure data generated from the
# MOF subset of the Cambridge Structural Database (CSD) v543 
# hosted by the Cambridge Crystallographic Data Centre (CCDC).
#
# This work is licensed under the Creative Commons
# Attribution-NonCommercial-ShareAlike 4.0 International License.
# To view a copy of this license, visit
# http://creativecommons.org/licenses/by-nc-sa/4.0/
# or send a letter to
# Creative Commons, PO Box 1866, Mountain View, CA 94042, USA.
#
# CIF created using the CSD Python API on 29 September 2022
# The structure has been converted into the P1 space group
# The structure has a 3D framework
# The original CSD entry KEDLAJ is in the orthorhombic crystal system
# The original CSD entry KEDLAJ is in a Sohncke space group
# The framework has been calculated to contain at least 10.0% void space
# The void calculation uses a probe of radius 1.32A, grid spacing 0.4
#
###############################################################################

data_KEDLAJ
_chemical_formula_moiety         '(C146 H88 Co8 N56 O47)n'
_symmetry_cell_setting           triclinic
_symmetry_space_group_name_H-M   'P 1'
_symmetry_Int_Tables_number      1
_space_group_name_Hall           'P 1'
loop_
_symmetry_equiv_pos_site_id
_symmetry_equiv_pos_as_xyz
1 x,y,z
_cell_length_a                   10.0389(16)
_cell_length_b                   19.730(3)
_cell_length_c                   20.131(3)
_cell_angle_alpha                90
_cell_angle_beta                 90
_cell_angle_gamma                90
_cell_volume                     3987.3
loop_
_atom_site_label
_atom_site_type_symbol
_atom_site_fract_x
_atom_site_fract_y
_atom_site_fract_z
C31 C 0.0531(5) 0.0039(2) 0.5784(2)
H20 H 0.0444 0.0507 0.5684
C36 C 0.2971(5) 0.0204(3) 0.5692(3)
O9 O 0.2882(4) 0.08134(18) 0.58106(19)
Co3 Co 0.57720(7) 0.04013(3) 0.55703(3)
C32 C 0.1789(5) 0.9755(3) 0.5828(3)
C33 C 0.1921(6) 0.9079(3) 0.5995(3)
H21 H 0.2774 0.8871 0.6020
C34 C 0.0769(6) 0.8711(2) 0.6126(3)
O10 O 0.4027(4) 0.99034(17) 0.54656(17)
O11 O 0.1954(5) 0.7715(2) 0.6297(2)
N14 N 0.0895(6) 0.8006(2) 0.6359(2)
Co7 Co 0.41597(8) 0.94523(3) 0.43886(4)
Co2 Co 0.58403(8) 0.44523(3) 0.06114(4)
C19 C 0.6412(6) 0.2944(3) 0.0288(3)
H15 H 0.7029 0.2892 0.0642
C21 C 0.2988(5) 0.4643(3) 0.0719(3)
C22 C 0.1826(6) 0.5107(3) 0.0839(3)
C23 C 0.0529(5) 0.4861(3) 0.0796(3)
H17 H 0.0386 0.4395 0.0705
C26 C 0.0935(6) 0.6192(2) 0.1087(2)
C27 C 0.2024(6) 0.5789(3) 0.0984(3)
H19 H 0.2898 0.5971 0.1012
O1 O 0.4081(4) 0.49252(16) 0.05217(17)
O2 O 0.2836(4) 0.40294(17) 0.08289(19)
O5 O 0.0240(4) 0.7308(2) 0.1201(2)
O6 O 0.2288(4) 0.7066(2) 0.1450(2)
N12 N 0.5627(5) 0.3513(2) 0.0182(2)
N13 N 0.1162(5) 0.6914(2) 0.1262(2)
O14 O 0.7950(4) 0.43798(17) 0.06627(19)
O15 O 0.7061(4) 0.53711(18) 0.0883(2)
N15 N 0.5750(5) 0.4179(2) 0.1622(2)
C1 C 0.4779(6) 0.1545(3) 0.4676(3)
H1 H 0.4032 0.1293 0.4525
C2 C 0.6543(6) 0.1848(3) 0.5204(3)
H2 H 0.7277 0.1838 0.5502
C3 C 0.6251(6) 0.2361(3) 0.4801(3)
H3 H 0.6727 0.2775 0.4757
C4 C 0.4543(6) 0.2493(2) 0.3902(3)
C5 C 0.5225(6) 0.2974(3) 0.3545(3)
H4 H 0.6079 0.3133 0.3676
C6 C 0.4581(6) 0.3212(2) 0.2981(3)
C7 C 0.2815(6) 0.2538(3) 0.3190(3)
H5 H 0.1956 0.2383 0.3064
C8 C 0.6343(6) 0.4051(3) 0.2692(3)
H6 H 0.6796 0.4088 0.3105
C9 C 0.6662(6) 0.4359(3) 0.2118(3)
H7 H 0.7398 0.4656 0.2058
C10 C 0.4909(5) 0.3764(3) 0.1906(3)
H8 H 0.4178 0.3557 0.1686
C11 C 0.5000(6) 0.1189(3) 0.6820(3)
H9 H 0.4354 0.1442 0.6580
C12 C 0.6537(6) 0.0470(3) 0.7078(3)
H10 H 0.7166 0.0113 0.7039
C13 C 0.6324(6) 0.0837(3) 0.7632(3)
H11 H 0.6765 0.0790 0.8047
C14 C 0.4760(6) 0.1803(3) 0.7880(3)
C15 C 0.5342(6) 0.1981(3) 0.8480(3)
H12 H 0.6118 0.1766 0.8649
C16 C 0.4690(6) 0.2497(3) 0.8810(3)
C17 C 0.3181(6) 0.2583(3) 0.8001(3)
H13 H 0.2417 0.2805 0.7827
C18 C 0.4907(6) 0.3381(3) 0.9657(3)
H14 H 0.4266 0.3680 0.9471
C20 C 0.6174(5) 0.2479(3) 0.9819(3)
H16 H 0.6587 0.2048 0.9773
O7 O 0.7968(4) 0.05864(16) 0.56629(19)
N1 N 0.5628(5) 0.1333(2) 0.5128(2)
N2 N 0.5116(4) 0.2171(2) 0.4456(2)
N3 N 0.3332(5) 0.2266(2) 0.3745(2)
N4 N 0.3376(5) 0.3004(2) 0.2797(2)
N5 N 0.5217(5) 0.3669(2) 0.2557(2)
N7 N 0.5699(5) 0.0691(2) 0.6572(2)
N8 N 0.5327(4) 0.1298(2) 0.7474(2)
N9 N 0.3681(5) 0.2097(2) 0.7629(2)
N10 N 0.3604(5) 0.2804(2) 0.8590(2)
N11 N 0.5206(4) 0.27541(19) 0.9416(2)
Co4 Co 0.42280(7) 0.54013(3) 0.94297(3)
O17 O 0.5973(4) 0.49034(17) 0.95344(17)
C29 C 0.8060(6) 0.9962(3) 0.5774(3)
C30 C 0.9402(6) 0.9654(3) 0.5884(3)
C35 C 0.9508(6) 0.8976(3) 0.6061(3)
H22 H 0.8740 0.8705 0.6134
O8 O 0.7037(4) 0.95838(17) 0.57829(19)
O12 O 0.9915(4) 0.7750(2) 0.6629(2)
O13 O 0.5919(4) 0.99252(16) 0.44783(17)
C24 C 0.9446(5) 0.5285(3) 0.0884(2)
C25 C 0.9637(5) 0.5963(3) 0.1026(2)
H18 H 0.8903 0.6262 0.1081
C28 C 0.8069(6) 0.4996(3) 0.0802(3)
C24_2 C 0.0554(5) 0.0285(3) 0.4116(2)
C25_2 C 0.0363(5) 0.0963(3) 0.3974(2)
H18_2 H 0.1097 0.1262 0.3919
O4 O 0.2939(4) 0.03711(18) 0.4117(2)
C28_2 C 0.1931(6) 0.9996(3) 0.4198(3)
O3 O 0.2050(4) 0.93798(17) 0.43373(19)
C22_2 C 0.8174(6) 0.0107(3) 0.4161(3)
C26_2 C 0.9065(6) 0.1192(2) 0.3913(2)
C27_2 C 0.7976(6) 0.0789(3) 0.4016(3)
H19_2 H 0.7102 0.0971 0.3988
O5_2 O 0.9760(4) 0.2308(2) 0.3799(2)
O6_2 O 0.7712(4) 0.2066(2) 0.3550(2)
N13_2 N 0.8838(5) 0.1914(2) 0.3738(2)
C1_2 C 0.5221(6) 0.6545(3) 0.0324(3)
H1_2 H 0.5968 0.6293 0.0475
C3_2 C 0.3749(6) 0.7361(3) 0.0199(3)
H3_2 H 0.3273 0.7775 0.0243
C4_2 C 0.5457(6) 0.7493(2) 0.1098(3)
C5_2 C 0.4775(6) 0.7974(3) 0.1455(3)
H4_2 H 0.3921 0.8133 0.1324
C6_2 C 0.5419(6) 0.8212(2) 0.2019(3)
C7_2 C 0.7185(6) 0.7538(3) 0.1810(3)
H5_2 H 0.8044 0.7383 0.1936
C8_2 C 0.3657(6) 0.9051(3) 0.2308(3)
H6_2 H 0.3204 0.9088 0.1895
C9_2 C 0.3338(6) 0.9359(3) 0.2882(3)
H7_2 H 0.2602 0.9656 0.2942
C10_2 C 0.5091(5) 0.8764(3) 0.3094(3)
H8_2 H 0.5822 0.8557 0.3314
N2_2 N 0.4884(4) 0.7171(2) 0.0544(2)
N3_2 N 0.6668(5) 0.7266(2) 0.1255(2)
N4_2 N 0.6624(5) 0.8004(2) 0.2203(2)
N5_2 N 0.4783(5) 0.8669(2) 0.2443(2)
N6 N 0.4250(5) 0.9179(2) 0.3378(2)
C2_2 C 0.3457(6) 0.6848(3) 0.9796(3)
H2_2 H 0.2723 0.6838 0.9498
C11_2 C 0.5000(6) 0.6189(3) 0.8180(3)
H9_2 H 0.5646 0.6442 0.8420
C12_2 C 0.3463(6) 0.5470(3) 0.7922(3)
H10_2 H 0.2834 0.5113 0.7961
C13_2 C 0.3676(6) 0.5837(3) 0.7368(3)
H11_2 H 0.3235 0.5790 0.6953
C14_2 C 0.5240(6) 0.6803(3) 0.7120(3)
C15_2 C 0.4658(6) 0.6981(3) 0.6520(3)
H12_2 H 0.3882 0.6766 0.6351
C16_2 C 0.5310(6) 0.7497(3) 0.6190(3)
C17_2 C 0.6819(6) 0.7583(3) 0.6999(3)
H13_2 H 0.7583 0.7805 0.7173
C18_2 C 0.5093(6) 0.8381(3) 0.5343(3)
H14_2 H 0.5734 0.8680 0.5529
C19_2 C 0.3588(6) 0.7944(3) 0.4712(3)
H15_2 H 0.2971 0.7892 0.4358
C20_2 C 0.3826(5) 0.7479(3) 0.5181(3)
H16_2 H 0.3413 0.7048 0.5227
C21_2 C 0.7012(5) 0.9643(3) 0.4281(3)
C23_2 C 0.9471(5) 0.9861(3) 0.4204(3)
H17_2 H 0.9614 0.9395 0.4295
C29_2 C 0.1940(6) 0.4962(3) 0.9226(3)
C30_2 C 0.0598(6) 0.4654(3) 0.9116(3)
C35_2 C 0.0492(6) 0.3976(3) 0.8939(3)
H22_2 H 0.1260 0.3705 0.8866
O2_2 O 0.7164(4) 0.90294(17) 0.41711(19)
O7_2 O 0.2032(4) 0.55864(16) 0.93371(19)
O8_2 O 0.2963(4) 0.45838(17) 0.92171(19)
O12_2 O 0.0085(4) 0.2750(2) 0.8371(2)
N1_2 N 0.4372(5) 0.6333(2) 0.9872(2)
N7_2 N 0.4301(5) 0.5691(2) 0.8428(2)
N8_2 N 0.4673(4) 0.6298(2) 0.7526(2)
N9_2 N 0.6319(5) 0.7097(2) 0.7371(2)
N10_2 N 0.6396(5) 0.7804(2) 0.6410(2)
N11_2 N 0.4794(4) 0.77541(19) 0.5584(2)
N12_2 N 0.4373(5) 0.8513(2) 0.4818(2)
C31_2 C 0.9469(5) 0.5039(2) 0.9216(2)
H20_2 H 0.9556 0.5507 0.9316
C32_2 C 0.8211(5) 0.4755(3) 0.9172(3)
C33_2 C 0.8079(6) 0.4079(3) 0.9005(3)
H21_2 H 0.7226 0.3871 0.8980
C34_2 C 0.9231(6) 0.3711(2) 0.8874(3)
C36_2 C 0.7029(5) 0.5204(3) 0.9308(3)
O9_2 O 0.7118(4) 0.58134(18) 0.91894(19)
O11_2 O 0.8046(5) 0.2715(2) 0.8703(2)
N14_2 N 0.9105(6) 0.3006(2) 0.8641(2)
O16 O 0.0973(4) 0.00966(17) 0.04656(17)
C11_3 C -0.0000(6) 0.8811(3) 0.1820(3)
H9_3 H 0.0646 0.8558 0.1580
C14_3 C 0.0240(6) 0.8197(3) 0.2880(3)
C16_3 C 0.0310(6) 0.7503(3) 0.3810(3)
C17_3 C 0.1819(6) 0.7417(3) 0.3001(3)
H13_3 H 0.2583 0.7195 0.2827
C18_3 C 0.0093(6) 0.6619(3) 0.4657(3)
H14_3 H 0.0734 0.6320 0.4471
C21_3 C 0.2012(5) 0.5357(3) 0.5719(3)
C22_3 C 0.3174(6) 0.4893(3) 0.5839(3)
C23_3 C 0.4471(5) 0.5139(3) 0.5796(3)
H17_3 H 0.4614 0.5605 0.5705
C24_3 C 0.5554(5) 0.4715(3) 0.5884(2)
C25_3 C 0.5363(5) 0.4037(3) 0.6026(2)
H18_3 H 0.6097 0.3738 0.6081
C26_3 C 0.4065(6) 0.3808(2) 0.6087(2)
C27_3 C 0.2976(6) 0.4211(3) 0.5984(3)
H19_3 H 0.2102 0.4029 0.6012
C28_3 C 0.6931(6) 0.5004(3) 0.5802(3)
O1_2 O 0.0919(4) 0.50748(16) 0.55217(17)
O2_3 O 0.2164(4) 0.59706(17) 0.58289(19)
O3_2 O 0.7050(4) 0.56202(17) 0.56627(19)
O4_2 O 0.7939(4) 0.46289(18) 0.5883(2)
O5_3 O 0.4760(4) 0.2692(2) 0.6201(2)
O6_3 O 0.2712(4) 0.2934(2) 0.6450(2)
N9_3 N 0.1319(5) 0.7903(2) 0.2629(2)
N10_3 N 0.1396(5) 0.7196(2) 0.3590(2)
N13_3 N 0.3838(5) 0.3086(2) 0.6262(2)
Co4_2 Co 0.07720(7) 0.45987(3) 0.44297(3)
Co5 Co 0.91597(8) 0.55477(3) 0.56114(4)
C29_3 C 0.6940(6) 0.0038(3) 0.0774(3)
C30_3 C 0.5598(6) 0.0346(3) 0.0884(3)
C32_3 C 0.3211(5) 0.0245(3) 0.0828(3)
C33_3 C 0.3079(6) 0.0921(3) 0.0995(3)
H21_3 H 0.2226 0.1129 0.1020
C34_3 C 0.4231(6) 0.1289(2) 0.1126(3)
C35_3 C 0.5492(6) 0.1024(3) 0.1061(3)
H22_3 H 0.6260 0.1295 0.1134
O8_3 O 0.7963(4) 0.04162(17) 0.07829(19)
O11_3 O 0.3046(5) 0.2285(2) 0.1297(2)
O12_3 O 0.5085(4) 0.2250(2) 0.1629(2)
N14_3 N 0.4105(6) 0.1994(2) 0.1359(2)
Co7_2 Co 0.08403(8) 0.05477(3) 0.93886(4)
O13_2 O 0.9081(4) 0.00748(16) 0.94783(17)
Co1 Co 0.92280(7) 0.95987(3) 0.05703(3)
C2_3 C 0.8457(6) 0.8152(3) 0.0204(3)
H2_3 H 0.7723 0.8162 0.0502
C11_4 C 1.0000(6) 0.8811(3) 0.1820(3)
C12_3 C 0.8463(6) 0.9530(3) 0.2078(3)
H10_3 H 0.7834 0.9887 0.2039
C13_3 C 0.8676(6) 0.9163(3) 0.2632(3)
H11_3 H 0.8235 0.9210 0.3047
C15_3 C 0.9658(6) 0.8019(3) 0.3480(3)
H12_3 H 0.8882 0.8234 0.3649
C19_3 C 0.8588(6) 0.7056(3) 0.5288(3)
H15_3 H 0.7971 0.7108 0.5642
C20_3 C 0.8826(5) 0.7521(3) 0.4819(3)
H16_3 H 0.8413 0.7952 0.4773
C31_3 C 0.4469(5) 0.9961(2) 0.0784(2)
H20_3 H 0.4556 0.9493 0.0684
C36_3 C 0.2029(5) 0.9796(3) 0.0692(3)
O7_3 O 0.7032(4) 0.94136(16) 0.06629(19)
O9_3 O 0.2118(4) 0.91866(18) 0.08106(19)
N1_3 N 0.9372(5) 0.8667(2) 0.0128(2)
N7_3 N 0.9301(5) 0.9309(2) 0.1572(2)
N8_3 N 0.9673(4) 0.8702(2) 0.2474(2)
N11_3 N 0.9794(4) 0.72459(19) 0.4416(2)
N12_3 N 0.9373(5) 0.6487(2) 0.5182(2)
O17_2 O 0.9027(4) 0.50966(17) 0.45344(17)
N15_2 N 0.9250(5) 0.5821(2) 0.6622(2)
C3_3 C 0.8749(6) 0.7639(3) 0.9801(3)
H3_3 H 0.8273 0.7225 0.9757
C5_3 C 0.9775(6) 0.7026(3) 0.8545(3)
H4_3 H 0.8921 0.6867 0.8676
C8_3 C 0.8657(6) 0.5949(3) 0.7692(3)
H6_3 H 0.8204 0.5912 0.8105
C9_3 C 0.8338(6) 0.5641(3) 0.7118(3)
H7_3 H 0.7602 0.5344 0.7058
N2_3 N 0.9884(4) 0.7829(2) 0.9456(2)
N5_3 N 0.9783(5) 0.6331(2) 0.7557(2)
C2_4 C 0.1543(6) 0.3152(3) 0.4796(3)
H2_4 H 0.2277 0.3162 0.4498
C3_4 C 0.1251(6) 0.2639(3) 0.5199(3)
H3_4 H 0.1727 0.2225 0.5243
C5_4 C 0.0225(6) 0.2026(3) 0.6455(3)
H4_4 H 0.1079 0.1867 0.6324
C8_4 C 0.1343(6) 0.0949(3) 0.7308(3)
H6_4 H 0.1796 0.0912 0.6895
C9_4 C 0.1662(6) 0.0641(3) 0.7882(3)
H7_4 H 0.2398 0.0344 0.7942
C11_5 C -0.0000(6) 0.3811(3) 0.3180(3)
C12_4 C 0.1537(6) 0.4530(3) 0.2922(3)
H10_4 H 0.2166 0.4887 0.2961
C13_4 C 0.1324(6) 0.4163(3) 0.2368(3)
H11_4 H 0.1765 0.4210 0.1953
C15_4 C 0.0342(6) 0.3019(3) 0.1520(3)
H12_4 H 0.1118 0.3234 0.1351
C20_4 C 0.1174(5) 0.2521(3) 0.0181(3)
H16_4 H 0.1587 0.2952 0.0227
C29_4 C 0.3060(6) 0.5038(3) 0.4226(3)
C30_4 C 0.4402(6) 0.5346(3) 0.4116(3)
C31_4 C 0.5531(5) 0.4961(2) 0.4216(2)
H20_4 H 0.5444 0.4493 0.4316
C32_4 C 0.6789(5) 0.5245(3) 0.4172(3)
C33_4 C 0.6921(6) 0.5921(3) 0.4005(3)
H21_4 H 0.7774 0.6129 0.3980
C34_4 C 0.5769(6) 0.6289(2) 0.3874(3)
C35_4 C 0.4508(6) 0.6024(3) 0.3939(3)
H22_4 H 0.3740 0.6295 0.3866
C36_4 C 0.7971(5) 0.4796(3) 0.4308(3)
O7_4 O 0.2968(4) 0.44136(16) 0.43371(19)
O8_4 O 0.2037(4) 0.54162(17) 0.42171(19)
O9_4 O 0.7882(4) 0.41866(18) 0.41894(19)
O11_4 O 0.6954(5) 0.7285(2) 0.3703(2)
O12_4 O 0.4915(4) 0.7250(2) 0.3371(2)
N1_4 N 0.0628(5) 0.3667(2) 0.4872(2)
N2_4 N 0.0116(4) 0.2829(2) 0.5544(2)
N5_4 N 0.0217(5) 0.1331(2) 0.7443(2)
N6_2 N 0.0750(5) 0.0821(2) 0.8378(2)
N7_4 N 0.0699(5) 0.4309(2) 0.3428(2)
N8_4 N 0.0327(4) 0.3702(2) 0.2526(2)
N11_4 N 0.0206(4) 0.22459(19) 0.0584(2)
N14_4 N 0.5895(6) 0.6994(2) 0.3641(2)
C19_4 C 0.1412(6) 0.2056(3) 0.9712(3)
H15_4 H 0.2029 0.2108 0.9358
N12_4 N 0.0627(5) 0.1487(2) 0.9818(2)
O14_2 O 0.2950(4) 0.06202(17) 0.93373(19)
C1_3 C 0.9779(6) 0.3455(3) 0.5324(3)
H1_3 H 0.9032 0.3707 0.5475
C4_3 C 0.9543(6) 0.2507(2) 0.6098(3)
C6_3 C 0.9581(6) 0.1788(2) 0.7019(3)
C7_3 C 0.7815(6) 0.2462(3) 0.6810(3)
H5_3 H 0.6956 0.2617 0.6936
C10_3 C 0.9909(5) 0.1236(3) 0.8094(3)
H8_3 H 0.9178 0.1443 0.8314
C11_6 C 1.0000(6) 0.3811(3) 0.3180(3)
H9_4 H 0.9354 0.3558 0.3420
C14_4 C 0.9760(6) 0.3197(3) 0.2120(3)
C16_4 C 0.9690(6) 0.2503(3) 0.1190(3)
C17_4 C 0.8181(6) 0.2417(3) 0.1999(3)
H13_4 H 0.7417 0.2195 0.2173
C18_4 C 0.9907(6) 0.1619(3) 0.0343(3)
H14_4 H 0.9266 0.1320 0.0529
N3_3 N 0.8332(5) 0.2734(2) 0.6255(2)
N4_3 N 0.8376(5) 0.1996(2) 0.7203(2)
N9_4 N 0.8681(5) 0.2903(2) 0.2371(2)
N10_4 N 0.8604(5) 0.2196(2) 0.1410(2)
C21_4 C 0.7988(5) 0.0357(3) 0.9281(3)
C23_4 C 0.5529(5) 0.0139(3) 0.9204(3)
H17_4 H 0.5386 0.0605 0.9295
C28_4 C 0.3069(6) 0.0004(3) 0.9198(3)
O2_4 O 0.7836(4) 0.09706(17) 0.91711(19)
C1_4 C 0.0221(6) 0.8455(3) 0.9676(3)
H1_4 H 0.0968 0.8707 0.9525
C4_4 C 0.0457(6) 0.7507(2) 0.8902(3)
C6_4 C 0.0419(6) 0.6788(2) 0.7981(3)
C7_4 C 0.2185(6) 0.7462(3) 0.8190(3)
H5_4 H 0.3044 0.7617 0.8064
C10_4 C 0.0091(5) 0.6236(3) 0.6906(3)
H8_4 H 0.0822 0.6443 0.6686
N3_4 N 0.1668(5) 0.7734(2) 0.8745(2)
N4_4 N 0.1624(5) 0.6996(2) 0.7797(2)
O15_2 O 0.2061(4) 0.96289(18) 0.9117(2)
C22_4 C 0.6826(6) 0.9893(3) 0.9161(3)
C24_4 C 0.4446(5) 0.9715(3) 0.9116(2)
C25_4 C 0.4637(5) 0.9037(3) 0.8974(2)
H18_4 H 0.3903 0.8738 0.8919
C26_4 C 0.5935(6) 0.8808(2) 0.8913(2)
C27_4 C 0.7024(6) 0.9211(3) 0.9016(3)
H19_4 H 0.7898 0.9029 0.8988
O5_4 O 0.5240(4) 0.7692(2) 0.8799(2)
O6_4 O 0.7288(4) 0.7934(2) 0.8550(2)
N13_4 N 0.6162(5) 0.8086(2) 0.8738(2)
loop_
_geom_bond_atom_site_label_1
_geom_bond_atom_site_label_2
_geom_bond_site_symmetry_1
_geom_bond_site_symmetry_2
C31 H20 1_555 1_555
O9 C36 1_555 1_555
C33 C32 1_555 1_555
H21 C33 1_555 1_555
C34 C33 1_555 1_555
O11 N14 1_555 1_555
N14 C34 1_555 1_555
Co7 O10 1_555 1_555
Co2 O1 1_555 1_555
C19 H15 1_555 1_555
C21 C22 1_555 1_555
C22 C23 1_555 1_555
C23 H17 1_555 1_555
C27 C22 1_555 1_555
H19 C27 1_555 1_555
O1 C21 1_555 1_555
O2 C21 1_555 1_555
O5 N13 1_555 1_555
O6 N13 1_555 1_555
N12 Co2 1_555 1_555
N13 C26 1_555 1_555
O14 Co2 1_555 1_555
O15 Co2 1_555 1_555
N15 Co2 1_555 1_555
C19 N12 1_555 1_555
C26 C27 1_555 1_555
Co3 O7 1_555 1_555
C1 H1 1_555 1_555
C2 H2 1_555 1_555
C3 C2 1_555 1_555
H3 C3 1_555 1_555
C4 C5 1_555 1_555
C5 H4 1_555 1_555
C6 C5 1_555 1_555
C7 H5 1_555 1_555
C8 H6 1_555 1_555
C9 C8 1_555 1_555
H7 C9 1_555 1_555
C10 H8 1_555 1_555
C11 H9 1_555 1_555
C12 H10 1_555 1_555
C13 C12 1_555 1_555
H11 C13 1_555 1_555
C14 C15 1_555 1_555
C15 H12 1_555 1_555
C16 C15 1_555 1_555
C17 H13 1_555 1_555
C18 H14 1_555 1_555
H16 C20 1_555 1_555
N1 Co3 1_555 1_555
N2 C1 1_555 1_555
N3 C4 1_555 1_555
N4 C6 1_555 1_555
N5 C6 1_555 1_555
N15 C9 1_555 1_555
N7 Co3 1_555 1_555
N8 C11 1_555 1_555
N9 C14 1_555 1_555
N10 C16 1_555 1_555
N11 C16 1_555 1_555
C1 N1 1_555 1_555
C2 N1 1_555 1_555
C3 N2 1_555 1_555
C4 N2 1_555 1_555
C7 N3 1_555 1_555
C7 N4 1_555 1_555
C8 N5 1_555 1_555
C10 N5 1_555 1_555
C10 N15 1_555 1_555
C11 N7 1_555 1_555
C12 N7 1_555 1_555
C13 N8 1_555 1_555
C14 N8 1_555 1_555
C17 N9 1_555 1_555
C17 N10 1_555 1_555
C18 N11 1_555 1_555
C20 N11 1_555 1_555
Co4 O17 1_555 1_555
C29 C30 1_555 1_555
C35 C30 1_555 1_555
H22 C35 1_555 1_555
C29 O8 1_555 1_555
C25 C24 1_555 1_555
H18 C25 1_555 1_555
C28 C24 1_555 1_555
O14 C28 1_555 1_555
O15 C28 1_555 1_555
C25_2 C24_2 1_555 1_555
H18_2 C25_2 1_555 1_555
O3 C28_2 1_555 1_555
Co7 O3 1_555 1_555
C27_2 C22_2 1_555 1_555
H19_2 C27_2 1_555 1_555
O5_2 N13_2 1_555 1_555
O6_2 N13_2 1_555 1_555
N13_2 C26_2 1_555 1_555
C26_2 C27_2 1_555 1_555
C1_2 H1_2 1_555 1_555
H3_2 C3_2 1_555 1_555
C4_2 C5_2 1_555 1_555
C5_2 H4_2 1_555 1_555
C6_2 C5_2 1_555 1_555
C7_2 H5_2 1_555 1_555
C8_2 H6_2 1_555 1_555
C9_2 C8_2 1_555 1_555
H7_2 C9_2 1_555 1_555
C10_2 H8_2 1_555 1_555
N2_2 C1_2 1_555 1_555
N3_2 C4_2 1_555 1_555
N4_2 C6_2 1_555 1_555
N5_2 C6_2 1_555 1_555
N6 C9_2 1_555 1_555
Co7 N6 1_555 1_555
C3_2 N2_2 1_555 1_555
C4_2 N2_2 1_555 1_555
C7_2 N3_2 1_555 1_555
C7_2 N4_2 1_555 1_555
C8_2 N5_2 1_555 1_555
C10_2 N5_2 1_555 1_555
C10_2 N6 1_555 1_555
Co4 O7_2 1_555 1_555
Co7 O13 1_555 1_555
C2_2 H2_2 1_555 1_555
C11_2 H9_2 1_555 1_555
C12_2 H10_2 1_555 1_555
C13_2 C12_2 1_555 1_555
H11_2 C13_2 1_555 1_555
C14_2 C15_2 1_555 1_555
C15_2 H12_2 1_555 1_555
C16_2 C15_2 1_555 1_555
C17_2 H13_2 1_555 1_555
C18_2 H14_2 1_555 1_555
C19_2 H15_2 1_555 1_555
C20_2 C19_2 1_555 1_555
H16_2 C20_2 1_555 1_555
C23_2 H17_2 1_555 1_555
C29_2 C30_2 1_555 1_555
C35_2 C30_2 1_555 1_555
H22_2 C35_2 1_555 1_555
O13 C21_2 1_555 1_555
O2_2 C21_2 1_555 1_555
O7_2 C29_2 1_555 1_555
O8_2 Co4 1_555 1_555
N1_2 Co4 1_555 1_555
N7_2 Co4 1_555 1_555
N8_2 C11_2 1_555 1_555
N9_2 C14_2 1_555 1_555
N10_2 C16_2 1_555 1_555
N11_2 C16_2 1_555 1_555
N12_2 Co7 1_555 1_555
C2_2 N1_2 1_555 1_555
C11_2 N7_2 1_555 1_555
C12_2 N7_2 1_555 1_555
C13_2 N8_2 1_555 1_555
C14_2 N8_2 1_555 1_555
C17_2 N9_2 1_555 1_555
C17_2 N10_2 1_555 1_555
C18_2 N11_2 1_555 1_555
C18_2 N12_2 1_555 1_555
C19_2 N12_2 1_555 1_555
C20_2 N11_2 1_555 1_555
C29_2 O8_2 1_555 1_555
C31_2 H20_2 1_555 1_555
C32_2 C31_2 1_555 1_555
C33_2 C32_2 1_555 1_555
H21_2 C33_2 1_555 1_555
C34_2 C33_2 1_555 1_555
C36_2 C32_2 1_555 1_555
O9_2 C36_2 1_555 1_555
O17 C36_2 1_555 1_555
O11_2 N14_2 1_555 1_555
N14_2 C34_2 1_555 1_555
C11_3 H9_3 1_555 1_555
C17_3 H13_3 1_555 1_555
C18_3 H14_3 1_555 1_555
C21_3 C22_3 1_555 1_555
C22_3 C23_3 1_555 1_555
C23_3 H17_3 1_555 1_555
C24_3 C23_3 1_555 1_555
C25_3 C24_3 1_555 1_555
H18_3 C25_3 1_555 1_555
C26_3 C25_3 1_555 1_555
C27_3 C22_3 1_555 1_555
H19_3 C27_3 1_555 1_555
C28_3 C24_3 1_555 1_555
O1_2 C21_3 1_555 1_555
O2_3 C21_3 1_555 1_555
O3_2 C28_3 1_555 1_555
O4_2 C28_3 1_555 1_555
O5_3 N13_3 1_555 1_555
O6_3 N13_3 1_555 1_555
N9_3 C14_3 1_555 1_555
N10_3 C16_3 1_555 1_555
N13_3 C26_3 1_555 1_555
Co4_2 O1_2 1_555 1_555
Co5 O3_2 1_555 1_555
C17_3 N9_3 1_555 1_555
C17_3 N10_3 1_555 1_555
C26_3 C27_3 1_555 1_555
O4_2 Co5 1_555 1_555
C29_3 C30_3 1_555 1_555
C33_3 C32_3 1_555 1_555
H21_3 C33_3 1_555 1_555
C34_3 C33_3 1_555 1_555
C35_3 C30_3 1_555 1_555
H22_3 C35_3 1_555 1_555
O11_3 N14_3 1_555 1_555
O12_3 N14_3 1_555 1_555
N14_3 C34_3 1_555 1_555
C29_3 O8_3 1_555 1_555
C34_3 C35_3 1_555 1_555
Co1 O7_3 1_555 1_555
C2_3 H2_3 1_555 1_555
C12_3 H10_3 1_555 1_555
C13_3 C12_3 1_555 1_555
H11_3 C13_3 1_555 1_555
C15_3 H12_3 1_555 1_555
C19_3 H15_3 1_555 1_555
C20_3 C19_3 1_555 1_555
H16_3 C20_3 1_555 1_555
C31_3 H20_3 1_555 1_555
O9_3 C36_3 1_555 1_555
N1_3 Co1 1_555 1_555
N7_3 Co1 1_555 1_555
N8_3 C11_4 1_555 1_555
N12_3 Co5 1_555 1_555
O17_2 Co5 1_555 1_555
N15_2 Co5 1_555 1_555
C2_3 N1_3 1_555 1_555
C11_4 N7_3 1_555 1_555
C12_3 N7_3 1_555 1_555
C13_3 N8_3 1_555 1_555
C19_3 N12_3 1_555 1_555
C20_3 N11_3 1_555 1_555
H3_3 C3_3 1_555 1_555
C5_3 H4_3 1_555 1_555
C8_3 H6_3 1_555 1_555
C9_3 C8_3 1_555 1_555
H7_3 C9_3 1_555 1_555
N15_2 C9_3 1_555 1_555
C3_3 N2_3 1_555 1_555
C8_3 N5_3 1_555 1_555
Co4_2 O7_4 1_555 1_555
C2_4 H2_4 1_555 1_555
C3_4 C2_4 1_555 1_555
H3_4 C3_4 1_555 1_555
C5_4 H4_4 1_555 1_555
C8_4 H6_4 1_555 1_555
C9_4 C8_4 1_555 1_555
H7_4 C9_4 1_555 1_555
C12_4 H10_4 1_555 1_555
C13_4 C12_4 1_555 1_555
H11_4 C13_4 1_555 1_555
C15_4 H12_4 1_555 1_555
H16_4 C20_4 1_555 1_555
C29_4 C30_4 1_555 1_555
C30_4 C31_4 1_555 1_555
C31_4 H20_4 1_555 1_555
C32_4 C31_4 1_555 1_555
C33_4 C32_4 1_555 1_555
H21_4 C33_4 1_555 1_555
C34_4 C33_4 1_555 1_555
C35_4 C30_4 1_555 1_555
H22_4 C35_4 1_555 1_555
C36_4 C32_4 1_555 1_555
O7_4 C29_4 1_555 1_555
O8_4 Co4_2 1_555 1_555
O9_4 C36_4 1_555 1_555
O17_2 C36_4 1_555 1_555
O11_4 N14_4 1_555 1_555
O12_4 N14_4 1_555 1_555
N1_4 Co4_2 1_555 1_555
N6_2 C9_4 1_555 1_555
N7_4 Co4_2 1_555 1_555
N8_4 C11_5 1_555 1_555
N14_4 C34_4 1_555 1_555
Co7_2 N6_2 1_555 1_555
C2_4 N1_4 1_555 1_555
C3_4 N2_4 1_555 1_555
C8_4 N5_4 1_555 1_555
C11_5 N7_4 1_555 1_555
C12_4 N7_4 1_555 1_555
C13_4 N8_4 1_555 1_555
C20_4 N11_4 1_555 1_555
C29_4 O8_4 1_555 1_555
C34_4 C35_4 1_555 1_555
C19_4 H15_4 1_555 1_555
N12_4 Co7_2 1_555 1_555
O14_2 Co7_2 1_555 1_555
C19_4 N12_4 1_555 1_555
C1_3 H1_3 1_555 1_555
C7_3 H5_3 1_555 1_555
C10_3 H8_3 1_555 1_555
C11_6 H9_4 1_555 1_555
C17_4 H13_4 1_555 1_555
C18_4 H14_4 1_555 1_555
N3_3 C4_3 1_555 1_555
N4_3 C6_3 1_555 1_555
N9_4 C14_4 1_555 1_555
N10_4 C16_4 1_555 1_555
C7_3 N3_3 1_555 1_555
C7_3 N4_3 1_555 1_555
C17_4 N9_4 1_555 1_555
C17_4 N10_4 1_555 1_555
C23_4 H17_4 1_555 1_555
O13_2 C21_4 1_555 1_555
O2_4 C21_4 1_555 1_555
O14_2 C28_4 1_555 1_555
C1_4 H1_4 1_555 1_555
C7_4 H5_4 1_555 1_555
C10_4 H8_4 1_555 1_555
N3_4 C4_4 1_555 1_555
N4_4 C6_4 1_555 1_555
C7_4 N3_4 1_555 1_555
C7_4 N4_4 1_555 1_555
C25_4 C24_4 1_555 1_555
H18_4 C25_4 1_555 1_555
C26_4 C25_4 1_555 1_555
C27_4 C22_4 1_555 1_555
H19_4 C27_4 1_555 1_555
O5_4 N13_4 1_555 1_555
O6_4 N13_4 1_555 1_555
N13_4 C26_4 1_555 1_555
C26_4 C27_4 1_555 1_555

#END
