
###############################################################################
#
# This file contains modified crystal structure data generated from the
# MOF subset of the Cambridge Structural Database (CSD) v543 
# hosted by the Cambridge Crystallographic Data Centre (CCDC).
#
# This work is licensed under the Creative Commons
# Attribution-NonCommercial-ShareAlike 4.0 International License.
# To view a copy of this license, visit
# http://creativecommons.org/licenses/by-nc-sa/4.0/
# or send a letter to
# Creative Commons, PO Box 1866, Mountain View, CA 94042, USA.
#
# CIF created using the CSD Python API on 29 September 2022
# The structure has been converted into the P1 space group
# The structure has a 3D framework
# The original CSD entry KEDNOY is in the cubic crystal system
# The original CSD entry KEDNOY is in a Sohncke space group
# The framework has been calculated to contain at least 10.0% void space
# The void calculation uses a probe of radius 1.32A, grid spacing 0.4
#
###############################################################################

data_KEDNOY
_chemical_formula_moiety         '(C72 H72 Ag4 Al4 F24 N12 O24 P4)n'
_symmetry_cell_setting           triclinic
_symmetry_space_group_name_H-M   'P 1'
_symmetry_Int_Tables_number      1
_space_group_name_Hall           'P 1'
loop_
_symmetry_equiv_pos_site_id
_symmetry_equiv_pos_as_xyz
1 x,y,z
_cell_length_a                   14.0563(4)
_cell_length_b                   14.0563(4)
_cell_length_c                   14.0563(4)
_cell_angle_alpha                90
_cell_angle_beta                 90
_cell_angle_gamma                90
_cell_volume                     2777.24
loop_
_atom_site_label
_atom_site_type_symbol
_atom_site_fract_x
_atom_site_fract_y
_atom_site_fract_z
Ag1 Ag 0.125904(14) 0.374096(14) 0.625904(14)
C5 C 0.0632(2) 0.2678(2) 0.2813(2)
H4 H 0.1001 0.2685 0.3404
H5 H 0.0796 0.3237 0.2430
H6 H 0.0780 0.2099 0.2453
N1 N 0.04734(18) 0.2634(2) 0.53684(19)
Al3 Al 0.22936(6) 0.77064(6) 0.27064(6)
O4 O 0.22794(13) 0.63753(13) 0.26405(13)
O8 O 0.22276(14) 0.76548(14) 0.40284(13)
C7 C 0.0263(2) 0.7006(2) 0.7339(2)
C8 C 0.2339(2) 0.4737(2) 0.2994(2)
H7 H 0.0625 0.6627 0.6881
H8 H 0.1881 0.4375 0.3373
H9 H 0.0525 0.6912 0.7978
H10 H 0.2978 0.4475 0.3088
H11 H 0.0305 0.7681 0.7168
H12 H 0.2168 0.4695 0.2319
C10 C 0.23259(19) 0.57564(19) 0.3299(2)
C12 C 0.2364(2) 0.60069(19) 0.4269(2)
C14 C 0.23027(19) 0.6957(2) 0.45929(19)
C16 C 0.2322(2) 0.7187(2) 0.5632(2)
H14 H 0.2315 0.6596 0.6001
H16 H 0.1763 0.7570 0.5796
H18 H 0.2901 0.7547 0.5780
C18 C 0.2374(2) 0.5255(2) 0.4949(2)
N2 N 0.03684(19) 0.45266(18) 0.7366(2)
N3 N 0.2366(2) 0.46316(19) 0.54734(18)
Al1 Al 0.77064(6) 0.27064(6) 0.22936(6)
O1 O 0.76405(13) 0.27206(13) 0.36247(13)
O2 O 0.90284(13) 0.27724(14) 0.23452(14)
C1 C 0.7994(2) 0.2661(2) 0.5263(2)
H1 H 0.8373 0.3119 0.5625
H2 H 0.8088 0.2022 0.5525
H3 H 0.7319 0.2832 0.5305
C2 C 0.8299(2) 0.26741(19) 0.42436(19)
C3 C 0.9269(2) 0.2636(2) 0.39931(19)
C4 C 0.95929(19) 0.26973(19) 0.3043(2)
C6 C 0.9949(2) 0.2626(2) 0.4745(2)
Al2 Al 0.72936(6) 0.72936(6) 0.72936(6)
O3 O 0.86247(13) 0.73595(13) 0.72794(13)
O5 O 0.63753(13) 0.26405(13) 0.22794(13)
O6 O 0.77206(13) 0.13753(13) 0.23595(13)
O7 O 0.73452(14) 0.59716(13) 0.72276(14)
O9 O 0.76548(14) 0.40284(13) 0.22276(14)
O10 O 0.77724(14) 0.26548(14) 0.09716(13)
C9 C 0.92436(19) 0.6701(2) 0.73259(19)
C11 C 0.89931(19) 0.5731(2) 0.7364(2)
C13 C 0.8043(2) 0.54071(19) 0.73027(19)
C15 C 0.7813(2) 0.4368(2) 0.7322(2)
H13 H 0.8404 0.3999 0.7315
H15 H 0.7430 0.4204 0.6763
H17 H 0.7453 0.4220 0.7901
C17 C 0.9745(2) 0.5051(2) 0.7374(2)
Ag1_2 Ag 0.374096(14) 0.625904(14) 0.125904(14)
C1_2 C 0.7006(2) 0.7339(2) 0.0263(2)
H1_2 H 0.6627 0.6881 0.0625
H2_2 H 0.6912 0.7978 0.0525
H3_2 H 0.7681 0.7168 0.0305
N1_2 N 0.45266(18) 0.7366(2) 0.03684(19)
C7_2 C 0.4737(2) 0.2994(2) 0.2339(2)
H7_2 H 0.4375 0.3373 0.1881
H9_2 H 0.4475 0.3088 0.2978
H11_2 H 0.4695 0.2319 0.2168
C9_2 C 0.57564(19) 0.3299(2) 0.23259(19)
C11_2 C 0.60069(19) 0.4269(2) 0.2364(2)
C13_2 C 0.6957(2) 0.45929(19) 0.23027(19)
C15_2 C 0.7187(2) 0.5632(2) 0.2322(2)
C16_2 C 0.2678(2) 0.2813(2) 0.0632(2)
H13_2 H 0.6596 0.6001 0.2315
H14_2 H 0.2685 0.3404 0.1001
H15_2 H 0.7570 0.5796 0.1763
H16_2 H 0.3237 0.2430 0.0796
H17_2 H 0.7547 0.5780 0.2901
H18_2 H 0.2099 0.2453 0.0780
C17_2 C 0.5255(2) 0.4949(2) 0.2374(2)
N2_2 N 0.46316(19) 0.54734(18) 0.2366(2)
N3_2 N 0.2634(2) 0.53684(19) 0.04734(18)
O1_2 O 0.73595(13) 0.72794(13) 0.86247(13)
O2_2 O 0.59716(13) 0.72276(14) 0.73452(14)
C2_2 C 0.6701(2) 0.73259(19) 0.92436(19)
C3_2 C 0.5731(2) 0.7364(2) 0.89931(19)
C4_2 C 0.54071(19) 0.73027(19) 0.8043(2)
C5_2 C 0.4368(2) 0.7322(2) 0.7813(2)
H4_2 H 0.3999 0.7315 0.8404
H5_2 H 0.4204 0.6763 0.7430
H6_2 H 0.4220 0.7901 0.7453
C6_2 C 0.5051(2) 0.7374(2) 0.9745(2)
Al3_2 Al 0.27064(6) 0.22936(6) 0.77064(6)
O4_2 O 0.27206(13) 0.36247(13) 0.76405(13)
O6_2 O 0.72794(13) 0.86247(13) 0.73595(13)
O8_2 O 0.27724(14) 0.23452(14) 0.90284(13)
O10_2 O 0.72276(14) 0.73452(14) 0.59716(13)
C8_2 C 0.2661(2) 0.5263(2) 0.7994(2)
H8_2 H 0.3119 0.5625 0.8373
H10_2 H 0.2022 0.5525 0.8088
H12_2 H 0.2832 0.5305 0.7319
C10_2 C 0.26741(19) 0.42436(19) 0.8299(2)
C12_2 C 0.2636(2) 0.39931(19) 0.9269(2)
C14_2 C 0.26973(19) 0.3043(2) 0.95929(19)
C18_2 C 0.2626(2) 0.4745(2) 0.9949(2)
O3_2 O 0.13753(13) 0.23595(13) 0.77206(13)
O7_2 O 0.26548(14) 0.09716(13) 0.77724(14)
C9_3 C 0.07564(19) 0.1701(2) 0.76741(19)
C11_3 C 0.10069(19) 0.0731(2) 0.7636(2)
C13_3 C 0.1957(2) 0.04071(19) 0.76973(19)
C17_3 C 0.0255(2) 0.0051(2) 0.7626(2)
O1_3 O 0.23595(13) 0.77206(13) 0.13753(13)
O2_3 O 0.09716(13) 0.77724(14) 0.26548(14)
C2_3 C 0.1701(2) 0.76741(19) 0.07564(19)
C3_3 C 0.0731(2) 0.7636(2) 0.10069(19)
C4_3 C 0.04071(19) 0.76973(19) 0.1957(2)
C6_3 C 0.0051(2) 0.7626(2) 0.0255(2)
O5_2 O 0.36247(13) 0.76405(13) 0.27206(13)
O9_2 O 0.23452(14) 0.90284(13) 0.27724(14)
C10_3 C 0.76741(19) 0.07564(19) 0.1701(2)
C12_3 C 0.7636(2) 0.10069(19) 0.0731(2)
C14_3 C 0.76973(19) 0.1957(2) 0.04071(19)
C18_3 C 0.7626(2) 0.0255(2) 0.0051(2)
Ag1_3 Ag 0.625904(14) 0.125904(14) 0.374096(14)
O1_4 O 0.26405(13) 0.22794(13) 0.63753(13)
O2_4 O 0.40284(13) 0.22276(14) 0.76548(14)
C1_3 C 0.2994(2) 0.2339(2) 0.4737(2)
H1_3 H 0.3373 0.1881 0.4375
H2_3 H 0.3088 0.2978 0.4475
H3_3 H 0.2319 0.2168 0.4695
C2_4 C 0.3299(2) 0.23259(19) 0.57564(19)
C3_4 C 0.4269(2) 0.2364(2) 0.60069(19)
C4_4 C 0.45929(19) 0.23027(19) 0.6957(2)
C5_3 C 0.5632(2) 0.2322(2) 0.7187(2)
H4_3 H 0.6001 0.2315 0.6596
H5_3 H 0.5796 0.1763 0.7570
H6_3 H 0.5780 0.2901 0.7547
C6_4 C 0.4949(2) 0.2374(2) 0.5255(2)
N1_3 N 0.54734(18) 0.2366(2) 0.46316(19)
C8_3 C 0.7339(2) 0.0263(2) 0.7006(2)
H8_3 H 0.6881 0.0625 0.6627
H10_3 H 0.7978 0.0525 0.6912
H12_3 H 0.7168 0.0305 0.7681
C15_3 C 0.2813(2) 0.0632(2) 0.2678(2)
H13_3 H 0.3404 0.1001 0.2685
H15_3 H 0.2430 0.0796 0.3237
H17_3 H 0.2453 0.0780 0.2099
N2_3 N 0.53684(19) 0.04734(18) 0.2634(2)
N3_3 N 0.7366(2) 0.03684(19) 0.45266(18)
C7_3 C 0.5263(2) 0.7994(2) 0.2661(2)
H7_3 H 0.5625 0.8373 0.3119
H9_3 H 0.5525 0.8088 0.2022
H11_3 H 0.5305 0.7319 0.2832
C9_4 C 0.42436(19) 0.8299(2) 0.26741(19)
C10_4 C 0.73259(19) 0.92436(19) 0.6701(2)
C11_4 C 0.39931(19) 0.9269(2) 0.2636(2)
C12_4 C 0.7364(2) 0.89931(19) 0.5731(2)
C13_4 C 0.3043(2) 0.95929(19) 0.26973(19)
C14_4 C 0.73027(19) 0.8043(2) 0.54071(19)
C16_3 C 0.7322(2) 0.7813(2) 0.4368(2)
H14_3 H 0.7315 0.8404 0.3999
H16_3 H 0.6763 0.7430 0.4204
H18_3 H 0.7901 0.7453 0.4220
C17_4 C 0.4745(2) 0.9949(2) 0.2626(2)
C18_4 C 0.7374(2) 0.9745(2) 0.5051(2)
C1_4 C 0.2006(2) 0.7661(2) 0.9737(2)
H1_4 H 0.1627 0.8119 0.9375
H2_4 H 0.1912 0.7022 0.9475
H3_4 H 0.2681 0.7832 0.9695
C15_4 C 0.2187(2) 0.9368(2) 0.7678(2)
H13_4 H 0.1596 0.8999 0.7685
H15_4 H 0.2570 0.9204 0.8237
H17_4 H 0.2547 0.9220 0.7099
C7_4 C 0.9737(2) 0.2006(2) 0.7661(2)
H7_4 H 0.9375 0.1627 0.8119
H9_4 H 0.9475 0.1912 0.7022
H11_4 H 0.9695 0.2681 0.7832
C16_4 C 0.7678(2) 0.2187(2) 0.9368(2)
H14_4 H 0.7685 0.1596 0.8999
H16_4 H 0.8237 0.2570 0.9204
H18_4 H 0.7099 0.2547 0.9220
C5_4 C 0.9368(2) 0.7678(2) 0.2187(2)
H4_4 H 0.8999 0.7685 0.1596
H5_4 H 0.9204 0.8237 0.2570
H6_4 H 0.9220 0.7099 0.2547
C8_4 C 0.7661(2) 0.9737(2) 0.2006(2)
H8_4 H 0.8119 0.9375 0.1627
H10_4 H 0.7022 0.9475 0.1912
H12_4 H 0.7832 0.9695 0.2681
Ag1_4 Ag 0.874096(14) 0.874096(14) 0.874096(14)
N1_4 N 0.95266(18) 0.7634(2) 0.96316(19)
N2_4 N 0.96316(19) 0.95266(18) 0.7634(2)
N3_4 N 0.7634(2) 0.96316(19) 0.95266(18)
F3 F 0.03174(18) 0.58117(18) 0.53175(17)
F4 F 0.03175(17) 0.46826(18) 0.41883(18)
P1 P 0.95606(6) 0.54394(6) 0.45606(6)
F1 F 0.91883(18) 0.46825(17) 0.53174(18)
F2 F 0.8819(2) 0.5012(3) 0.3827(2)
F5 F 0.8827(2) 0.6181(2) 0.4988(3)
F6 F 0.9988(3) 0.6173(2) 0.3819(2)
F1_2 F 0.58117(18) 0.53175(17) 0.03174(18)
F3_2 F 0.46826(18) 0.41883(18) 0.03175(17)
P1_2 P 0.54394(6) 0.45606(6) 0.95606(6)
F2_2 F 0.6181(2) 0.4988(3) 0.8827(2)
F4_2 F 0.46825(17) 0.53174(18) 0.91883(18)
F5_2 F 0.6173(2) 0.3819(2) 0.9988(3)
F6_2 F 0.5012(3) 0.3827(2) 0.8819(2)
P1_3 P 0.04394(6) 0.04394(6) 0.04394(6)
F2_3 F 0.1181(2) 0.0012(3) 0.1173(2)
F5_3 F 0.1173(2) 0.1181(2) 0.0012(3)
F6_3 F 0.0012(3) 0.1173(2) 0.1181(2)
F1_3 F 0.08117(18) 0.96825(17) 0.96826(18)
F3_3 F 0.96826(18) 0.08117(18) 0.96825(17)
F4_3 F 0.96825(17) 0.96826(18) 0.08117(18)
F1_4 F 0.41883(18) 0.03175(17) 0.46826(18)
F4_4 F 0.53175(17) 0.03174(18) 0.58117(18)
P1_4 P 0.45606(6) 0.95606(6) 0.54394(6)
F2_4 F 0.3819(2) 0.9988(3) 0.6173(2)
F3_4 F 0.53174(18) 0.91883(18) 0.46825(17)
F5_4 F 0.3827(2) 0.8819(2) 0.5012(3)
F6_4 F 0.4988(3) 0.8827(2) 0.6181(2)
loop_
_geom_bond_atom_site_label_1
_geom_bond_atom_site_label_2
_geom_bond_site_symmetry_1
_geom_bond_site_symmetry_2
Ag1 N1 1_555 1_555
H4 C5 1_555 1_555
H5 C5 1_555 1_555
H6 C5 1_555 1_555
Al3 O4 1_555 1_555
O4 C10 1_555 1_555
O8 Al3 1_555 1_555
C7 H7 1_555 1_555
C8 H8 1_555 1_555
H9 C7 1_555 1_555
H10 C8 1_555 1_555
H11 C7 1_555 1_555
H12 C8 1_555 1_555
C10 C8 1_555 1_555
C12 C10 1_555 1_555
C14 O8 1_555 1_555
C16 C14 1_555 1_555
H14 C16 1_555 1_555
H16 C16 1_555 1_555
H18 C16 1_555 1_555
C18 C12 1_555 1_555
N2 Ag1 1_555 1_555
N3 Ag1 1_555 1_555
C12 C14 1_555 1_555
C18 N3 1_555 1_555
Al1 O1 1_555 1_555
O1 C2 1_555 1_555
O2 Al1 1_555 1_555
C1 H1 1_555 1_555
H2 C1 1_555 1_555
H3 C1 1_555 1_555
C2 C1 1_555 1_555
C3 C2 1_555 1_555
C4 O2 1_555 1_555
C6 C3 1_555 1_555
Al2 O3 1_555 1_555
O3 C9 1_555 1_555
O5 Al1 1_555 1_555
O6 Al1 1_555 1_555
O7 Al2 1_555 1_555
O9 Al1 1_555 1_555
O10 Al1 1_555 1_555
C11 C9 1_555 1_555
C13 O7 1_555 1_555
C15 C13 1_555 1_555
H13 C15 1_555 1_555
H15 C15 1_555 1_555
H17 C15 1_555 1_555
C17 C11 1_555 1_555
C3 C4 1_555 1_555
C11 C13 1_555 1_555
Ag1_2 N1_2 1_555 1_555
C1_2 H1_2 1_555 1_555
H2_2 C1_2 1_555 1_555
H3_2 C1_2 1_555 1_555
O5 C9_2 1_555 1_555
C7_2 H7_2 1_555 1_555
H9_2 C7_2 1_555 1_555
H11_2 C7_2 1_555 1_555
C9_2 C7_2 1_555 1_555
C11_2 C9_2 1_555 1_555
C13_2 O9 1_555 1_555
C15_2 C13_2 1_555 1_555
H13_2 C15_2 1_555 1_555
H14_2 C16_2 1_555 1_555
H15_2 C15_2 1_555 1_555
H16_2 C16_2 1_555 1_555
H17_2 C15_2 1_555 1_555
H18_2 C16_2 1_555 1_555
C17_2 C11_2 1_555 1_555
N2_2 Ag1_2 1_555 1_555
N3_2 Ag1_2 1_555 1_555
C11_2 C13_2 1_555 1_555
C17_2 N2_2 1_555 1_555
Al2 O1_2 1_555 1_555
O1_2 C2_2 1_555 1_555
O2_2 Al2 1_555 1_555
C3_2 C2_2 1_555 1_555
C4_2 O2_2 1_555 1_555
C5_2 C4_2 1_555 1_555
H4_2 C5_2 1_555 1_555
H5_2 C5_2 1_555 1_555
H6_2 C5_2 1_555 1_555
C6_2 C3_2 1_555 1_555
Al3_2 O4_2 1_555 1_555
O4_2 C10_2 1_555 1_555
O6_2 Al2 1_555 1_555
O8_2 Al3_2 1_555 1_555
O10_2 Al2 1_555 1_555
C8_2 H8_2 1_555 1_555
H10_2 C8_2 1_555 1_555
H12_2 C8_2 1_555 1_555
C10_2 C8_2 1_555 1_555
C12_2 C10_2 1_555 1_555
C14_2 O8_2 1_555 1_555
C18_2 C12_2 1_555 1_555
C3_2 C4_2 1_555 1_555
C12_2 C14_2 1_555 1_555
Al3_2 O3_2 1_555 1_555
O3_2 C9_3 1_555 1_555
O7_2 Al3_2 1_555 1_555
C11_3 C9_3 1_555 1_555
C13_3 O7_2 1_555 1_555
C17_3 C11_3 1_555 1_555
C11_3 C13_3 1_555 1_555
Al3 O1_3 1_555 1_555
O1_3 C2_3 1_555 1_555
O2_3 Al3 1_555 1_555
C3_3 C2_3 1_555 1_555
C4_3 O2_3 1_555 1_555
C6_3 C3_3 1_555 1_555
O5_2 Al3 1_555 1_555
O9_2 Al3 1_555 1_555
C3_3 C4_3 1_555 1_555
O6 C10_3 1_555 1_555
C12_3 C10_3 1_555 1_555
C14_3 O10 1_555 1_555
C18_3 C12_3 1_555 1_555
C12_3 C14_3 1_555 1_555
Ag1_3 N1_3 1_555 1_555
Al3_2 O1_4 1_555 1_555
O1_4 C2_4 1_555 1_555
O2_4 Al3_2 1_555 1_555
C1_3 H1_3 1_555 1_555
H2_3 C1_3 1_555 1_555
H3_3 C1_3 1_555 1_555
C2_4 C1_3 1_555 1_555
C3_4 C2_4 1_555 1_555
C4_4 O2_4 1_555 1_555
C5_3 C4_4 1_555 1_555
H4_3 C5_3 1_555 1_555
H5_3 C5_3 1_555 1_555
H6_3 C5_3 1_555 1_555
C6_4 C3_4 1_555 1_555
N1_3 C6_4 1_555 1_555
C8_3 H8_3 1_555 1_555
H10_3 C8_3 1_555 1_555
H12_3 C8_3 1_555 1_555
H13_3 C15_3 1_555 1_555
H15_3 C15_3 1_555 1_555
H17_3 C15_3 1_555 1_555
N2_3 Ag1_3 1_555 1_555
N3_3 Ag1_3 1_555 1_555
C3_4 C4_4 1_555 1_555
O5_2 C9_4 1_555 1_555
O6_2 C10_4 1_555 1_555
C7_3 H7_3 1_555 1_555
H9_3 C7_3 1_555 1_555
H11_3 C7_3 1_555 1_555
C9_4 C7_3 1_555 1_555
C11_4 C9_4 1_555 1_555
C12_4 C10_4 1_555 1_555
C13_4 O9_2 1_555 1_555
C14_4 O10_2 1_555 1_555
C16_3 C14_4 1_555 1_555
H14_3 C16_3 1_555 1_555
H16_3 C16_3 1_555 1_555
H18_3 C16_3 1_555 1_555
C17_4 C11_4 1_555 1_555
C18_4 C12_4 1_555 1_555
C11_4 C13_4 1_555 1_555
C12_4 C14_4 1_555 1_555
C1_4 H1_4 1_555 1_555
H2_4 C1_4 1_555 1_555
H3_4 C1_4 1_555 1_555
H13_4 C15_4 1_555 1_555
H15_4 C15_4 1_555 1_555
H17_4 C15_4 1_555 1_555
C7_4 H7_4 1_555 1_555
H9_4 C7_4 1_555 1_555
H11_4 C7_4 1_555 1_555
H14_4 C16_4 1_555 1_555
H16_4 C16_4 1_555 1_555
H18_4 C16_4 1_555 1_555
H4_4 C5_4 1_555 1_555
H5_4 C5_4 1_555 1_555
H6_4 C5_4 1_555 1_555
C8_4 H8_4 1_555 1_555
H10_4 C8_4 1_555 1_555
H12_4 C8_4 1_555 1_555
Ag1_4 N1_4 1_555 1_555
N2_4 Ag1_4 1_555 1_555
N3_4 Ag1_4 1_555 1_555
P1 F1 1_555 1_555
F2 P1 1_555 1_555
F5 P1 1_555 1_555
F6 P1 1_555 1_555
F2_2 P1_2 1_555 1_555
F4_2 P1_2 1_555 1_555
F5_2 P1_2 1_555 1_555
F6_2 P1_2 1_555 1_555
F2_3 P1_3 1_555 1_555
F5_3 P1_3 1_555 1_555
F6_3 P1_3 1_555 1_555
F2_4 P1_4 1_555 1_555
F3_4 P1_4 1_555 1_555
F5_4 P1_4 1_555 1_555
F6_4 P1_4 1_555 1_555

#END
