
###############################################################################
#
# This file contains modified crystal structure data generated from the
# MOF subset of the Cambridge Structural Database (CSD) v543 
# hosted by the Cambridge Crystallographic Data Centre (CCDC).
#
# This work is licensed under the Creative Commons
# Attribution-NonCommercial-ShareAlike 4.0 International License.
# To view a copy of this license, visit
# http://creativecommons.org/licenses/by-nc-sa/4.0/
# or send a letter to
# Creative Commons, PO Box 1866, Mountain View, CA 94042, USA.
#
# CIF created using the CSD Python API on 29 September 2022
# The structure has been converted into the P1 space group
# The structure has a 3D framework
# The original CSD entry KEDQAN is in the orthorhombic crystal system
# The framework has been calculated to contain at least 10.0% void space
# The void calculation uses a probe of radius 1.32A, grid spacing 0.4
# H atom positions have been added when not included in the experimental data
# Generated hydrogen atom positions removed from atoms on special positions
#
###############################################################################

data_KEDQAN
_chemical_formula_moiety         '(C166 H102 N6 O26 Zn5)n'
_symmetry_cell_setting           triclinic
_symmetry_space_group_name_H-M   'P 1'
_symmetry_Int_Tables_number      1
_space_group_name_Hall           'P 1'
loop_
_symmetry_equiv_pos_site_id
_symmetry_equiv_pos_as_xyz
1 x,y,z
_cell_length_a                   11.980(2)
_cell_length_b                   18.625(4)
_cell_length_c                   17.982(4)
_cell_angle_alpha                90
_cell_angle_beta                 90
_cell_angle_gamma                90
_cell_volume                     4012.28
loop_
_atom_site_label
_atom_site_type_symbol
_atom_site_fract_x
_atom_site_fract_y
_atom_site_fract_z
Zn4 Zn 0.11010(2) 0.490870(17) 0.802650(16)
O12 O 0.00559(17) 0.52645(12) 0.63234(11)
C1 C 0.6155(3) 0.72120(18) 0.20708(17)
H2 H 0.6255 0.7072 0.2563
C3 C 0.5000 0.8950(2) 0.2500
C4 C 0.5509(3) 0.78018(15) 0.19116(15)
N1 N 0.5000 0.81933(17) 0.2500
C11 C 0.7146(3) 0.66224(16) 0.01772(16)
C12 C 0.6531(3) 0.70164(16) 0.07693(16)
C14 C 0.6658(3) 0.68247(16) 0.15068(16)
H7 H 0.7091 0.6427 0.1626
C15 C 0.5857(3) 0.93340(16) 0.2170(2)
H8 H 0.6447 0.9090 0.1949
C16 C 0.8189(3) 0.63278(18) 0.03282(16)
H9 H 0.8488 0.6372 0.0803
C17 C 0.5342(3) 0.79874(18) 0.11744(18)
H10 H 0.4891 0.8378 0.1057
C18 C 0.5844(3) 0.7595(2) 0.06079(18)
H11 H 0.5717 0.7723 0.0115
C23 C 0.3845(3) 0.72120(18) 0.29292(17)
H15 H 0.3745 0.7072 0.2437
C25 C 0.4491(3) 0.78018(15) 0.30884(15)
C26 C 0.3274(3) 0.6546(2) 0.55418(17)
H17 H 0.3969 0.6738 0.5658
C28 C 0.2854(3) 0.66224(16) 0.48228(16)
C29 C 0.3469(3) 0.70164(16) 0.42307(16)
C31 C 0.3342(3) 0.68247(16) 0.34932(16)
H20 H 0.2909 0.6427 0.3374
C32 C 0.4143(3) 0.93340(16) 0.2830(2)
H21 H 0.3553 0.9090 0.3051
C33 C 0.1811(3) 0.63278(18) 0.46718(16)
H22 H 0.1512 0.6372 0.4197
C34 C 0.4658(3) 0.79874(18) 0.38256(18)
H23 H 0.5109 0.8378 0.3943
C35 C 0.4156(3) 0.7595(2) 0.43921(18)
H24 H 0.4283 0.7723 0.4885
O8 O 0.13960(17) 0.54850(12) 0.71489(11)
C36 C 0.1631(2) 0.59018(15) 0.59275(15)
C37 C 0.1207(2) 0.59696(18) 0.52173(18)
H25 H 0.0513 0.5774 0.5103
C38 C 0.2674(3) 0.6188(2) 0.60836(18)
H26 H 0.2972 0.6138 0.6558
C39 C 0.0980(2) 0.55230(15) 0.65069(16)
O1 O 0.7500 0.5000 0.64746(16)
C8 C 0.6726(3) 0.6546(2) 0.94582(17)
H4 H 0.6031 0.6738 0.9342
O3 O 0.86040(17) 0.54850(12) 0.78511(11)
O4 O 0.99441(17) 0.52645(12) 0.86766(11)
C19 C 0.8369(2) 0.59018(15) 0.90725(15)
C20 C 0.8793(2) 0.59696(18) 0.97827(18)
H12 H 0.9487 0.5774 0.9897
C21 C 0.7326(3) 0.6188(2) 0.89164(18)
H13 H 0.7028 0.6138 0.8442
C22 C 0.9020(2) 0.55230(15) 0.84931(16)
Zn3 Zn 0.88990(2) 0.490870(17) 0.697350(16)
Zn7 Zn 0.61010(2) 0.509130(17) 0.697350(16)
O7 O 0.92306(17) 0.38932(10) 0.71561(12)
C3_2 C -0.0000 0.1050(2) 0.2500
N1_2 N -0.0000 0.18067(17) 0.2500
H10_2 H 0.0109 0.1622 0.1057
Zn5 Zn 0.38990(2) 0.509130(17) 0.802650(16)
C23_2 C 0.1155(3) 0.27880(18) 0.29292(17)
H15_2 H 0.1255 0.2928 0.2437
C25_2 C 0.0509(3) 0.21982(15) 0.30884(15)
C26_2 C 0.1726(3) 0.3454(2) 0.55418(17)
H17_2 H 0.1031 0.3262 0.5658
C28_2 C 0.2146(3) 0.33776(16) 0.48228(16)
C29_2 C 0.1531(3) 0.29836(16) 0.42307(16)
C31_2 C 0.1658(3) 0.31753(16) 0.34932(16)
H20_2 H 0.2091 0.3573 0.3374
C32_2 C 0.0857(3) 0.06660(16) 0.2830(2)
H21_2 H 0.1447 0.0910 0.3051
C33_2 C 0.3189(3) 0.36722(18) 0.46718(16)
H22_2 H 0.3488 0.3628 0.4197
C34_2 C 0.0342(3) 0.20126(18) 0.38256(18)
C35_2 C 0.0844(3) 0.2405(2) 0.43921(18)
H24_2 H 0.0717 0.2277 0.4885
O8_2 O 0.36040(17) 0.45150(12) 0.71489(11)
O10 O 0.49441(17) 0.47355(12) 0.63234(11)
C36_2 C 0.3369(2) 0.40982(15) 0.59275(15)
C37_2 C 0.3793(2) 0.40304(18) 0.52173(18)
H25_2 H 0.4487 0.4226 0.5103
C38_2 C 0.2326(3) 0.3812(2) 0.60836(18)
H26_2 H 0.2028 0.3862 0.6558
C39_2 C 0.4020(2) 0.44770(15) 0.65069(16)
C8_2 C 0.8274(3) 0.3454(2) 0.94582(17)
H4_2 H 0.8969 0.3262 0.9342
O3_2 O 0.63960(17) 0.45150(12) 0.78511(11)
O4_2 O 0.50559(17) 0.47355(12) 0.86766(11)
C19_2 C 0.6631(2) 0.40982(15) 0.90725(15)
C20_2 C 0.6207(2) 0.40304(18) 0.97827(18)
H12_2 H 0.5513 0.4226 0.9897
C21_2 C 0.7674(3) 0.3812(2) 0.89164(18)
H13_2 H 0.7972 0.3862 0.8442
C22_2 C 0.5980(2) 0.44770(15) 0.84931(16)
O7_2 O 0.57694(17) 0.61068(10) 0.71561(12)
O1_2 O 0.2500 0.5000 0.85254(16)
O7_3 O 0.07694(17) 0.38932(10) 0.78439(12)
O7_4 O 0.42306(17) 0.61068(10) 0.78439(12)
C2 C 0.4316(3) 0.76041(16) 0.79769(18)
H3 H 0.3843 0.7358 0.8299
C5 C 0.5000 0.8735(2) 0.7500
C6 C 0.5000 0.64155(19) 0.7500
C7 C 0.5000 0.72215(19) 0.7500
C9 C 0.4325(3) 0.83443(17) 0.79817(19)
H5 H 0.3869 0.8588 0.8315
C10 C 0.5000 0.9531(2) 0.7500
C13 C 0.4153(3) 0.99253(16) 0.7834(2)
H6 H 0.3574 0.9682 0.8069
C24 C 0.5684(3) 0.76041(16) 0.70231(18)
H16 H 0.6157 0.7358 0.6701
C27 C 0.5675(3) 0.83443(17) 0.70183(19)
H18 H 0.6131 0.8588 0.6685
C30 C 0.5847(3) 0.99253(16) 0.7166(2)
H19 H 0.6426 0.9682 0.6931
C2_2 C 0.0684(3) 0.23959(16) 0.79769(18)
H3_2 H 0.1157 0.2642 0.8299
C5_2 C -0.0000 0.1265(2) 0.7500
C6_2 C -0.0000 0.35845(19) 0.7500
C7_2 C -0.0000 0.27785(19) 0.7500
C9_2 C 0.0675(3) 0.16557(17) 0.79817(19)
H5_2 H 0.1131 0.1412 0.8315
C10_2 C -0.0000 0.0469(2) 0.7500
C13_2 C 0.0847(3) 0.00747(16) 0.7834(2)
H6_2 H 0.1426 0.0318 0.8069
C5_3 C 1.0000 0.1265(2) 0.7500
C6_3 C 1.0000 0.35845(19) 0.7500
C7_3 C 1.0000 0.27785(19) 0.7500
C10_3 C 1.0000 0.0469(2) 0.7500
C24_2 C 0.9316(3) 0.23959(16) 0.70231(18)
H16_2 H 0.8843 0.2642 0.6701
C27_2 C 0.9325(3) 0.16557(17) 0.70183(19)
H18_2 H 0.8869 0.1412 0.6685
C30_2 C 0.9153(3) 0.00747(16) 0.7166(2)
H19_2 H 0.8574 0.0318 0.6931
Zn1 Zn 0.61010(2) 0.490870(17) 0.197350(16)
O2 O 0.57694(17) 0.38932(10) 0.21561(12)
C2_3 C 0.5684(3) 0.23959(16) 0.20231(18)
H3_3 H 0.6157 0.2642 0.1701
C5_4 C 0.5000 0.1265(2) 0.2500
C6_4 C 0.5000 0.35845(19) 0.2500
C7_4 C 0.5000 0.27785(19) 0.2500
C9_3 C 0.5675(3) 0.16557(17) 0.20183(19)
H5_3 H 0.6131 0.1412 0.1685
C10_4 C 0.5000 0.0469(2) 0.2500
C13_3 C 0.5847(3) 0.00747(16) 0.2166(2)
H6_3 H 0.6426 0.0318 0.1931
Zn2 Zn 0.38990(2) 0.490870(17) 0.302650(16)
O5 O 0.7500 0.5000 0.14746(16)
O6 O 0.42306(17) 0.38932(10) 0.28439(12)
C24_3 C 0.4316(3) 0.23959(16) 0.29769(18)
H16_3 H 0.3843 0.2642 0.3299
C27_3 C 0.4325(3) 0.16557(17) 0.29817(19)
H18_3 H 0.3869 0.1412 0.3315
C30_3 C 0.4153(3) 0.00747(16) 0.2834(2)
H19_3 H 0.3574 0.0318 0.3069
O9 O 0.63960(17) 0.54850(12) 0.28511(11)
O11 O 0.49441(17) 0.52645(12) 0.13234(11)
C5_5 C 0.0000 0.8735(2) 0.2500
C6_5 C 0.0000 0.64155(19) 0.2500
C7_5 C 0.0000 0.72215(19) 0.2500
C10_5 C 0.0000 0.9531(2) 0.2500
Zn2_2 Zn 0.11010(2) 0.509130(17) 0.302650(16)
O6_2 O 0.07694(17) 0.61068(10) 0.28439(12)
C24_4 C 0.0684(3) 0.76041(16) 0.29769(18)
H16_4 H 0.1157 0.7358 0.3299
C27_4 C 0.0675(3) 0.83443(17) 0.29817(19)
H18_4 H 0.1131 0.8588 0.3315
C30_4 C 0.0847(3) 0.99253(16) 0.2834(2)
H19_4 H 0.1426 0.9682 0.3069
O11_2 O 0.00559(17) 0.47355(12) 0.13234(11)
Zn1_2 Zn 0.88990(2) 0.509130(17) 0.197350(16)
O2_2 O 0.92306(17) 0.61068(10) 0.21561(12)
C2_4 C 0.9316(3) 0.76041(16) 0.20231(18)
H3_4 H 0.8843 0.7358 0.1701
C5_6 C 1.0000 0.8735(2) 0.2500
C6_6 C 1.0000 0.64155(19) 0.2500
C7_6 C 1.0000 0.72215(19) 0.2500
C9_4 C 0.9325(3) 0.83443(17) 0.20183(19)
H5_4 H 0.8869 0.8588 0.1685
C10_6 C 1.0000 0.9531(2) 0.2500
C13_4 C 0.9153(3) 0.99253(16) 0.2166(2)
H6_4 H 0.8574 0.9682 0.1931
O9_2 O 0.86040(17) 0.45150(12) 0.28511(11)
O5_2 O 0.2500 0.5000 0.35254(16)
O9_3 O 0.36040(17) 0.54850(12) 0.21489(11)
O11_3 O 0.50559(17) 0.52645(12) 0.36766(11)
O9_4 O 0.13960(17) 0.45150(12) 0.21489(11)
O11_4 O 0.99441(17) 0.47355(12) 0.36766(11)
C8_3 C 0.3274(3) 0.3454(2) 0.05418(17)
H4_3 H 0.3969 0.3262 0.0658
C19_3 C 0.1631(2) 0.40982(15) 0.09275(15)
C20_3 C 0.1207(2) 0.40304(18) 0.02173(18)
H12_3 H 0.0513 0.4226 0.0103
C21_3 C 0.2674(3) 0.3812(2) 0.10836(18)
H13_3 H 0.2972 0.3862 0.1558
C22_3 C 0.0980(2) 0.44770(15) 0.15069(16)
C1_2 C 0.3845(3) 0.27880(18) 0.79292(17)
H2_2 H 0.3745 0.2928 0.7437
C3_3 C 0.5000 0.1050(2) 0.7500
C4_2 C 0.4491(3) 0.21982(15) 0.80884(15)
N1_3 N 0.5000 0.18067(17) 0.7500
C11_2 C 0.2854(3) 0.33776(16) 0.98228(16)
C12_2 C 0.3469(3) 0.29836(16) 0.92307(16)
C14_2 C 0.3342(3) 0.31753(16) 0.84932(16)
H7_2 H 0.2909 0.3573 0.8374
C15_2 C 0.4143(3) 0.06660(16) 0.7830(2)
H8_2 H 0.3553 0.0910 0.8051
C16_2 C 0.1811(3) 0.36722(18) 0.96718(16)
H9_2 H 0.1512 0.3628 0.9197
C17_2 C 0.4658(3) 0.20126(18) 0.88256(18)
H10_3 H 0.5109 0.1622 0.8943
C18_2 C 0.4156(3) 0.2405(2) 0.93921(18)
H11_2 H 0.4283 0.2277 0.9885
C23_3 C 0.6155(3) 0.27880(18) 0.70708(17)
H15_3 H 0.6255 0.2928 0.7563
C25_3 C 0.5509(3) 0.21982(15) 0.69116(15)
C26_3 C 0.6726(3) 0.3454(2) 0.44582(17)
H17_3 H 0.6031 0.3262 0.4342
C28_3 C 0.7146(3) 0.33776(16) 0.51772(16)
C29_3 C 0.6531(3) 0.29836(16) 0.57693(16)
C31_3 C 0.6658(3) 0.31753(16) 0.65068(16)
H20_3 H 0.7091 0.3573 0.6626
C32_3 C 0.5857(3) 0.06660(16) 0.7170(2)
H21_3 H 0.6447 0.0910 0.6949
C33_3 C 0.8189(3) 0.36722(18) 0.53282(16)
H22_3 H 0.8488 0.3628 0.5803
C34_3 C 0.5342(3) 0.20126(18) 0.61744(18)
H23_2 H 0.4891 0.1622 0.6057
C35_3 C 0.5844(3) 0.2405(2) 0.56079(18)
H24_3 H 0.5717 0.2277 0.5115
C36_3 C 0.8369(2) 0.40982(15) 0.40725(15)
C37_3 C 0.8793(2) 0.40304(18) 0.47827(18)
H25_3 H 0.9487 0.4226 0.4897
C38_3 C 0.7326(3) 0.3812(2) 0.39164(18)
H26_3 H 0.7028 0.3862 0.3442
C39_3 C 0.9020(2) 0.44770(15) 0.34931(16)
C8_4 C 0.1726(3) 0.6546(2) 0.05418(17)
H4_4 H 0.1031 0.6738 0.0658
C19_4 C 0.3369(2) 0.59018(15) 0.09275(15)
C20_4 C 0.3793(2) 0.59696(18) 0.02173(18)
H12_4 H 0.4487 0.5774 0.0103
C21_4 C 0.2326(3) 0.6188(2) 0.10836(18)
H13_4 H 0.2028 0.6138 0.1558
C22_4 C 0.4020(2) 0.55230(15) 0.15069(16)
C3_4 C 1.0000 0.8950(2) 0.7500
N1_4 N 1.0000 0.81933(17) 0.7500
H10_4 H 0.9891 0.8378 0.8943
C23_4 C 0.8845(3) 0.72120(18) 0.70708(17)
H15_4 H 0.8745 0.7072 0.7563
C25_4 C 0.9491(3) 0.78018(15) 0.69116(15)
C26_4 C 0.8274(3) 0.6546(2) 0.44582(17)
H17_4 H 0.8969 0.6738 0.4342
C28_4 C 0.7854(3) 0.66224(16) 0.51772(16)
C29_4 C 0.8469(3) 0.70164(16) 0.57693(16)
C31_4 C 0.8342(3) 0.68247(16) 0.65068(16)
H20_4 H 0.7909 0.6427 0.6626
C32_4 C 0.9143(3) 0.93340(16) 0.7170(2)
H21_4 H 0.8553 0.9090 0.6949
C33_4 C 0.6811(3) 0.63278(18) 0.53282(16)
H22_4 H 0.6512 0.6372 0.5803
C34_4 C 0.9658(3) 0.79874(18) 0.61744(18)
C35_4 C 0.9156(3) 0.7595(2) 0.56079(18)
H24_4 H 0.9283 0.7723 0.5115
C36_4 C 0.6631(2) 0.59018(15) 0.40725(15)
C37_4 C 0.6207(2) 0.59696(18) 0.47827(18)
H25_4 H 0.5513 0.5774 0.4897
C38_4 C 0.7674(3) 0.6188(2) 0.39164(18)
H26_4 H 0.7972 0.6138 0.3442
C39_4 C 0.5980(2) 0.55230(15) 0.34931(16)
C1_3 C 0.8845(3) 0.27880(18) 0.20708(17)
H2_3 H 0.8745 0.2928 0.2563
C3_5 C 1.0000 0.1050(2) 0.2500
C4_3 C 0.9491(3) 0.21982(15) 0.19116(15)
N1_5 N 1.0000 0.18067(17) 0.2500
C11_3 C 0.7854(3) 0.33776(16) 0.01772(16)
C12_3 C 0.8469(3) 0.29836(16) 0.07693(16)
C14_3 C 0.8342(3) 0.31753(16) 0.15068(16)
H7_3 H 0.7909 0.3573 0.1626
C15_3 C 0.9143(3) 0.06660(16) 0.2170(2)
H8_3 H 0.8553 0.0910 0.1949
C16_3 C 0.6811(3) 0.36722(18) 0.03282(16)
H9_3 H 0.6512 0.3628 0.0803
C17_3 C 0.9658(3) 0.20126(18) 0.11744(18)
C18_3 C 0.9156(3) 0.2405(2) 0.06079(18)
H11_3 H 0.9283 0.2277 0.0115
H23_3 H 0.9891 0.1622 0.3943
C1_4 C 0.1155(3) 0.72120(18) 0.79292(17)
H2_4 H 0.1255 0.7072 0.7437
C3_6 C -0.0000 0.8950(2) 0.7500
C4_4 C 0.0509(3) 0.78018(15) 0.80884(15)
N1_6 N -0.0000 0.81933(17) 0.7500
C11_4 C 0.2146(3) 0.66224(16) 0.98228(16)
C12_4 C 0.1531(3) 0.70164(16) 0.92307(16)
C14_4 C 0.1658(3) 0.68247(16) 0.84932(16)
H7_4 H 0.2091 0.6427 0.8374
C15_4 C 0.0857(3) 0.93340(16) 0.7830(2)
H8_4 H 0.1447 0.9090 0.8051
C16_4 C 0.3189(3) 0.63278(18) 0.96718(16)
H9_4 H 0.3488 0.6372 0.9197
C17_4 C 0.0342(3) 0.79874(18) 0.88256(18)
C18_4 C 0.0844(3) 0.7595(2) 0.93921(18)
H11_4 H 0.0717 0.7723 0.9885
H23_4 H 0.0109 0.8378 0.6057
loop_
_geom_bond_atom_site_label_1
_geom_bond_atom_site_label_2
_geom_bond_site_symmetry_1
_geom_bond_site_symmetry_2
C1 H2 1_555 1_555
C3 N1 1_555 1_555
C4 C1 1_555 1_555
N1 C4 1_555 1_555
C12 C11 1_555 1_555
C14 C1 1_555 1_555
H7 C14 1_555 1_555
C15 C3 1_555 1_555
H8 C15 1_555 1_555
C16 C11 1_555 1_555
H9 C16 1_555 1_555
C17 C4 1_555 1_555
H10 C17 1_555 1_555
C18 C12 1_555 1_555
H11 C18 1_555 1_555
Zn4 O8 1_555 1_555
C23 H15 1_555 1_555
C25 N1 1_555 1_555
C26 H17 1_555 1_555
C28 C26 1_555 1_555
C29 C28 1_555 1_555
C31 C23 1_555 1_555
H20 C31 1_555 1_555
C32 C3 1_555 1_555
H21 C32 1_555 1_555
C33 C28 1_555 1_555
H22 C33 1_555 1_555
C34 C25 1_555 1_555
H23 C34 1_555 1_555
C35 C29 1_555 1_555
H24 C35 1_555 1_555
O8 C39 1_555 1_555
O12 C39 1_555 1_555
C36 C37 1_555 1_555
C37 C33 1_555 1_555
H25 C37 1_555 1_555
C38 C26 1_555 1_555
H26 C38 1_555 1_555
C39 C36 1_555 1_555
C12 C14 1_555 1_555
C17 C18 1_555 1_555
C23 C25 1_555 1_555
C29 C31 1_555 1_555
C34 C35 1_555 1_555
C36 C38 1_555 1_555
C8 H4 1_555 1_555
O3 C22 1_555 1_555
O4 C22 1_555 1_555
C19 C20 1_555 1_555
H12 C20 1_555 1_555
C21 C8 1_555 1_555
H13 C21 1_555 1_555
C22 C19 1_555 1_555
Zn3 O1 1_555 1_555
Zn7 O1 1_555 1_555
O7 Zn3 1_555 1_555
O3 Zn3 1_555 1_555
C19 C21 1_555 1_555
C3_2 N1_2 1_555 1_555
Zn5 O8_2 1_555 1_555
Zn7 O10 1_555 1_555
C23_2 H15_2 1_555 1_555
C25_2 N1_2 1_555 1_555
C26_2 H17_2 1_555 1_555
C28_2 C26_2 1_555 1_555
C29_2 C28_2 1_555 1_555
C31_2 C23_2 1_555 1_555
H20_2 C31_2 1_555 1_555
C32_2 C3_2 1_555 1_555
H21_2 C32_2 1_555 1_555
C33_2 C28_2 1_555 1_555
H22_2 C33_2 1_555 1_555
C34_2 C25_2 1_555 1_555
C35_2 C29_2 1_555 1_555
H24_2 C35_2 1_555 1_555
O8_2 C39_2 1_555 1_555
O10 C39_2 1_555 1_555
C36_2 C37_2 1_555 1_555
C37_2 C33_2 1_555 1_555
H25_2 C37_2 1_555 1_555
C38_2 C26_2 1_555 1_555
H26_2 C38_2 1_555 1_555
C39_2 C36_2 1_555 1_555
C23_2 C25_2 1_555 1_555
C29_2 C31_2 1_555 1_555
C34_2 C35_2 1_555 1_555
C36_2 C38_2 1_555 1_555
C8_2 H4_2 1_555 1_555
O3_2 C22_2 1_555 1_555
O4_2 C22_2 1_555 1_555
C19_2 C20_2 1_555 1_555
H12_2 C20_2 1_555 1_555
C21_2 C8_2 1_555 1_555
H13_2 C21_2 1_555 1_555
C22_2 C19_2 1_555 1_555
Zn5 O4_2 1_555 1_555
O7_2 Zn7 1_555 1_555
O3_2 Zn7 1_555 1_555
C19_2 C21_2 1_555 1_555
Zn4 O1_2 1_555 1_555
Zn5 O1_2 1_555 1_555
O7_3 Zn4 1_555 1_555
O7_4 Zn5 1_555 1_555
O7_4 C6 1_555 1_555
C2 H3 1_555 1_555
C5 C9 1_555 1_555
C6 C7 1_555 1_555
C7 C2 1_555 1_555
C9 C2 1_555 1_555
H5 C9 1_555 1_555
C10 C5 1_555 1_555
C13 C10 1_555 1_555
H6 C13 1_555 1_555
O7_2 C6 1_555 1_555
C24 C7 1_555 1_555
H16 C24 1_555 1_555
C27 C5 1_555 1_555
H18 C27 1_555 1_555
C30 C10 1_555 1_555
H19 C30 1_555 1_555
C24 C27 1_555 1_555
O7_3 C6_2 1_555 1_555
C2_2 H3_2 1_555 1_555
C5_2 C9_2 1_555 1_555
C6_2 C7_2 1_555 1_555
C7_2 C2_2 1_555 1_555
C9_2 C2_2 1_555 1_555
H5_2 C9_2 1_555 1_555
C10_2 C5_2 1_555 1_555
C13_2 C10_2 1_555 1_555
H6_2 C13_2 1_555 1_555
C6_3 C7_3 1_555 1_555
C10_3 C5_3 1_555 1_555
O7 C6_3 1_555 1_555
C24_2 C7_3 1_555 1_555
H16_2 C24_2 1_555 1_555
C27_2 C5_3 1_555 1_555
H18_2 C27_2 1_555 1_555
C30_2 C10_3 1_555 1_555
H19_2 C30_2 1_555 1_555
C24_2 C27_2 1_555 1_555
Zn1 O2 1_555 1_555
O2 C6_4 1_555 1_555
C2_3 H3_3 1_555 1_555
C5_4 C9_3 1_555 1_555
C6_4 C7_4 1_555 1_555
C7_4 C2_3 1_555 1_555
C9_3 C2_3 1_555 1_555
H5_3 C9_3 1_555 1_555
C10_4 C5_4 1_555 1_555
C13_3 C10_4 1_555 1_555
H6_3 C13_3 1_555 1_555
Zn2 O6 1_555 1_555
O5 Zn1 1_555 1_555
O6 C6_4 1_555 1_555
C24_3 C7_4 1_555 1_555
H16_3 C24_3 1_555 1_555
C27_3 C5_4 1_555 1_555
H18_3 C27_3 1_555 1_555
C30_3 C10_4 1_555 1_555
H19_3 C30_3 1_555 1_555
O9 Zn1 1_555 1_555
O11 Zn1 1_555 1_555
C24_3 C27_3 1_555 1_555
C6_5 C7_5 1_555 1_555
C10_5 C5_5 1_555 1_555
Zn2_2 O6_2 1_555 1_555
O6_2 C6_5 1_555 1_555
C24_4 C7_5 1_555 1_555
H16_4 C24_4 1_555 1_555
C27_4 C5_5 1_555 1_555
H18_4 C27_4 1_555 1_555
C30_4 C10_5 1_555 1_555
H19_4 C30_4 1_555 1_555
C24_4 C27_4 1_555 1_555
Zn1_2 O2_2 1_555 1_555
O2_2 C6_6 1_555 1_555
C2_4 H3_4 1_555 1_555
C5_6 C9_4 1_555 1_555
C6_6 C7_6 1_555 1_555
C7_6 C2_4 1_555 1_555
C9_4 C2_4 1_555 1_555
H5_4 C9_4 1_555 1_555
C10_6 C5_6 1_555 1_555
C13_4 C10_6 1_555 1_555
H6_4 C13_4 1_555 1_555
O5 Zn1_2 1_555 1_555
O9_2 Zn1_2 1_555 1_555
O5_2 Zn2 1_555 1_555
O9_3 Zn2 1_555 1_555
O11_3 Zn2 1_555 1_555
O5_2 Zn2_2 1_555 1_555
O9_4 Zn2_2 1_555 1_555
C8_3 H4_3 1_555 1_555
O9_4 C22_3 1_555 1_555
O11_2 C22_3 1_555 1_555
C19_3 C20_3 1_555 1_555
H12_3 C20_3 1_555 1_555
C21_3 C8_3 1_555 1_555
H13_3 C21_3 1_555 1_555
C22_3 C19_3 1_555 1_555
C19_3 C21_3 1_555 1_555
C1_2 H2_2 1_555 1_555
C3_3 N1_3 1_555 1_555
C4_2 C1_2 1_555 1_555
N1_3 C4_2 1_555 1_555
C12_2 C11_2 1_555 1_555
C14_2 C1_2 1_555 1_555
H7_2 C14_2 1_555 1_555
C15_2 C3_3 1_555 1_555
H8_2 C15_2 1_555 1_555
C16_2 C11_2 1_555 1_555
H9_2 C16_2 1_555 1_555
C17_2 C4_2 1_555 1_555
H10_3 C17_2 1_555 1_555
C18_2 C12_2 1_555 1_555
H11_2 C18_2 1_555 1_555
C23_3 H15_3 1_555 1_555
C25_3 N1_3 1_555 1_555
C26_3 H17_3 1_555 1_555
C28_3 C26_3 1_555 1_555
C29_3 C28_3 1_555 1_555
C31_3 C23_3 1_555 1_555
H20_3 C31_3 1_555 1_555
C32_3 C3_3 1_555 1_555
H21_3 C32_3 1_555 1_555
C33_3 C28_3 1_555 1_555
H22_3 C33_3 1_555 1_555
C34_3 C25_3 1_555 1_555
H23_2 C34_3 1_555 1_555
C35_3 C29_3 1_555 1_555
H24_3 C35_3 1_555 1_555
O9_2 C39_3 1_555 1_555
O11_4 C39_3 1_555 1_555
C36_3 C37_3 1_555 1_555
C37_3 C33_3 1_555 1_555
H25_3 C37_3 1_555 1_555
C38_3 C26_3 1_555 1_555
H26_3 C38_3 1_555 1_555
C39_3 C36_3 1_555 1_555
C12_2 C14_2 1_555 1_555
C17_2 C18_2 1_555 1_555
C23_3 C25_3 1_555 1_555
C29_3 C31_3 1_555 1_555
C34_3 C35_3 1_555 1_555
C36_3 C38_3 1_555 1_555
C8_4 H4_4 1_555 1_555
O9_3 C22_4 1_555 1_555
O11 C22_4 1_555 1_555
C19_4 C20_4 1_555 1_555
H12_4 C20_4 1_555 1_555
C21_4 C8_4 1_555 1_555
H13_4 C21_4 1_555 1_555
C22_4 C19_4 1_555 1_555
C19_4 C21_4 1_555 1_555
C3_4 N1_4 1_555 1_555
C23_4 H15_4 1_555 1_555
C25_4 N1_4 1_555 1_555
C26_4 H17_4 1_555 1_555
C28_4 C26_4 1_555 1_555
C29_4 C28_4 1_555 1_555
C31_4 C23_4 1_555 1_555
H20_4 C31_4 1_555 1_555
C32_4 C3_4 1_555 1_555
H21_4 C32_4 1_555 1_555
C33_4 C28_4 1_555 1_555
H22_4 C33_4 1_555 1_555
C34_4 C25_4 1_555 1_555
C35_4 C29_4 1_555 1_555
H24_4 C35_4 1_555 1_555
O9 C39_4 1_555 1_555
O11_3 C39_4 1_555 1_555
C36_4 C37_4 1_555 1_555
C37_4 C33_4 1_555 1_555
H25_4 C37_4 1_555 1_555
C38_4 C26_4 1_555 1_555
H26_4 C38_4 1_555 1_555
C39_4 C36_4 1_555 1_555
C23_4 C25_4 1_555 1_555
C29_4 C31_4 1_555 1_555
C34_4 C35_4 1_555 1_555
C36_4 C38_4 1_555 1_555
C1_3 H2_3 1_555 1_555
C3_5 N1_5 1_555 1_555
C4_3 C1_3 1_555 1_555
N1_5 C4_3 1_555 1_555
C12_3 C11_3 1_555 1_555
C14_3 C1_3 1_555 1_555
H7_3 C14_3 1_555 1_555
C15_3 C3_5 1_555 1_555
H8_3 C15_3 1_555 1_555
C16_3 C11_3 1_555 1_555
H9_3 C16_3 1_555 1_555
C17_3 C4_3 1_555 1_555
C18_3 C12_3 1_555 1_555
H11_3 C18_3 1_555 1_555
C12_3 C14_3 1_555 1_555
C17_3 C18_3 1_555 1_555
C1_4 H2_4 1_555 1_555
C3_6 N1_6 1_555 1_555
C4_4 C1_4 1_555 1_555
N1_6 C4_4 1_555 1_555
C12_4 C11_4 1_555 1_555
C14_4 C1_4 1_555 1_555
H7_4 C14_4 1_555 1_555
C15_4 C3_6 1_555 1_555
H8_4 C15_4 1_555 1_555
C16_4 C11_4 1_555 1_555
H9_4 C16_4 1_555 1_555
C17_4 C4_4 1_555 1_555
C18_4 C12_4 1_555 1_555
H11_4 C18_4 1_555 1_555
C12_4 C14_4 1_555 1_555
C17_4 C18_4 1_555 1_555

#END
