
###############################################################################
#
# This file contains modified crystal structure data generated from the
# MOF subset of the Cambridge Structural Database (CSD) v543 
# hosted by the Cambridge Crystallographic Data Centre (CCDC).
#
# This work is licensed under the Creative Commons
# Attribution-NonCommercial-ShareAlike 4.0 International License.
# To view a copy of this license, visit
# http://creativecommons.org/licenses/by-nc-sa/4.0/
# or send a letter to
# Creative Commons, PO Box 1866, Mountain View, CA 94042, USA.
#
# CIF created using the CSD Python API on 29 September 2022
# The structure has been converted into the P1 space group
# The structure has a 3D framework
# The original CSD entry KEFBOO is in the rhombohedral crystal system
# The framework has been calculated to contain at least 10.0% void space
# The void calculation uses a probe of radius 1.32A, grid spacing 0.4
# H atom positions have been added when not included in the experimental data
# Generated hydrogen atom positions removed from atoms on special positions
#
###############################################################################

data_KEFBOO
_chemical_formula_moiety         '(C204 H140 O82 Zn18)n'
_symmetry_cell_setting           triclinic
_symmetry_space_group_name_H-M   'P 1'
_symmetry_Int_Tables_number      1
_space_group_name_Hall           'P 1'
loop_
_symmetry_equiv_pos_site_id
_symmetry_equiv_pos_as_xyz
1 x,y,z
_cell_length_a                   23.8339(9)
_cell_length_b                   23.8339(9)
_cell_length_c                   20.2720(17)
_cell_angle_alpha                90
_cell_angle_beta                 90
_cell_angle_gamma                120
_cell_volume                     9972.81
loop_
_atom_site_label
_atom_site_type_symbol
_atom_site_fract_x
_atom_site_fract_y
_atom_site_fract_z
C4 C 0.36838(14) 0.03505(14) 0.3333
H2 H 0.4074 0.0741 0.3333
O2 O 0.46399(8) 0.04741(7) 0.41904(9)
C7 C 0.31716(11) 0.02835(11) 0.29521(14)
C15 C 0.32486(12) 0.08420(11) 0.25334(15)
O4 O 0.27563(8) 0.07758(8) 0.22409(9)
O8 O 0.27563(8) 0.19806(11) 0.22409(9)
O9 O 0.38074(7) 0.13066(8) 0.24763(9)
O14 O 0.28592(7) 0.08325(11) 0.08571(9)
O15 O 0.28592(7) 0.20268(8) 0.08571(9)
O16 O 0.16661(11) 0.08331(6) 0.14929(14)
Zn2 Zn 0.262365(18) 0.131183(9) 0.15417(2)
Zn3 Zn 0.535484(20) 0.070968(18) 0.48750(2)
Zn4 Zn 0.404301(18) 0.202151(20) 0.17917(2)
C1 C 0.36168(11) 0.98383(11) 0.37146(14)
C2 C 0.30443(11) 0.92478(12) 0.37159(13)
H1 H 0.3002 0.8899 0.3961
C3 C 0.25310(16) 0.91977(16) 0.3333
C5 C 0.41753(11) 0.99153(12) 0.41333(15)
C6 C 0.19069(14) 0.85736(14) 0.3333
O1 O 0.41091(8) 0.94230(8) 0.44258(9)
O3 O 0.41664(6) 0.83328(11) 0.51738(14)
Zn1 Zn 0.464516(9) 0.929032(18) 0.51250(2)
C8 C 0.01617(11) 0.63832(11) 0.37146(14)
C10 C 0.25811(12) 0.97110(11) 0.29508(13)
C11 C 0.07522(12) 0.69557(11) 0.37159(13)
C12 C 0.02890(11) 0.74189(12) 0.29508(13)
H3 H 0.2232 0.9669 0.2706
H4 H 0.0331 0.7768 0.2706
H5 H 0.1101 0.6998 0.3961
C13 C 0.08023(16) 0.74690(16) 0.3333
C17 C 0.00847(12) 0.58247(11) 0.41333(15)
C18 C 0.14264(14) 0.80931(14) 0.3333
O6 O 0.05770(8) 0.58909(8) 0.44258(9)
O7 O 0.53139(11) 0.94230(8) 0.44258(9)
O12 O 0.41658(11) 0.95259(7) 0.58096(9)
O13 O 0.53601(8) 0.95259(7) 0.58096(9)
Zn7 Zn 0.070968(18) 0.535484(20) 0.51250(2)
C9 C 0.97165(11) 0.68284(11) 0.29521(14)
C14 C 0.96495(14) 0.63162(14) 0.3333
H6 H 0.9259 0.5926 0.3333
C16 C 0.91580(11) 0.67514(12) 0.25334(15)
O5 O 0.92242(8) 0.72437(8) 0.22409(9)
O10 O 0.86934(8) 0.61926(7) 0.24763(9)
O11 O 0.95259(7) 0.53601(8) 0.41904(9)
Zn5 Zn 0.868817(20) 0.737635(18) 0.15417(2)
Zn6 Zn 0.797849(9) 0.595699(18) 0.17917(2)
Zn8 Zn 0.929032(18) 0.464516(9) 0.48750(2)
C1_2 C 0.01617(11) 0.37785(16) 0.37146(14)
C2_2 C 0.07522(12) 0.37965(16) 0.37159(13)
H1_2 H 0.1101 0.4103 0.3961
C3_2 C 0.08023(16) 0.33333(23) 0.3333
C5_2 C 0.00847(12) 0.42600(16) 0.41333(15)
C6_2 C 0.14264(14) 0.33333(20) 0.3333
O1_2 O 0.05770(8) 0.46861(11) 0.44258(9)
O3_2 O 0.16672(11) 0.58336(13) 0.51738(14)
C8_2 C 0.36168(11) 0.37785(16) 0.37146(14)
C9_2 C 0.31716(11) 0.28882(16) 0.29521(14)
C10_2 C 0.02890(11) 0.28702(16) 0.29508(13)
C11_2 C 0.30443(11) 0.37965(16) 0.37159(13)
C12_2 C 0.25811(12) 0.28702(16) 0.29508(13)
H3_2 H 0.0331 0.2564 0.2706
H4_2 H 0.2232 0.2564 0.2706
H5_2 H 0.3002 0.4103 0.3961
C13_2 C 0.25310(16) 0.33333(23) 0.3333
C14_2 C 0.36838(14) 0.33333(20) 0.3333
H6_2 H 0.4074 0.3333 0.3333
C16_2 C 0.32486(12) 0.24067(16) 0.25334(15)
C17_2 C 0.41753(11) 0.42600(16) 0.41333(15)
C18_2 C 0.19069(14) 0.33333(20) 0.3333
O6_2 O 0.41091(8) 0.46861(11) 0.44258(9)
O10_2 O 0.38074(7) 0.25009(11) 0.24763(9)
O11_2 O 0.46399(8) 0.41658(11) 0.41904(9)
O12_2 O 0.04741(7) 0.46399(13) 0.58096(9)
O13_2 O 0.04741(7) 0.58342(11) 0.58096(9)
Zn7_2 Zn 0.464516(20) 0.535484(27) 0.51250(2)
Zn8_2 Zn 0.535484(9) 0.464516(20) 0.48750(2)
C4_2 C 0.96495(14) 0.33333(20) 0.3333
H2_2 H 0.9259 0.3333 0.3333
O2_2 O 0.95259(7) 0.41658(11) 0.41904(9)
C7_2 C 0.97165(11) 0.28882(16) 0.29521(14)
C15_2 C 0.91580(11) 0.24067(16) 0.25334(15)
O4_2 O 0.92242(8) 0.19806(11) 0.22409(9)
O8_2 O 0.80194(11) 0.07758(14) 0.22409(9)
O9_2 O 0.86934(8) 0.25009(11) 0.24763(9)
O14_2 O 0.91675(11) 0.20268(13) 0.08571(9)
O15_2 O 0.79732(8) 0.08325(11) 0.08571(9)
O16_2 O 0.91669(6) 0.08331(13) 0.14929(14)
Zn2_2 Zn 0.868817(9) 0.131183(20) 0.15417(2)
Zn4_2 Zn 0.797849(20) 0.202151(27) 0.17917(2)
C9_3 C 0.71118(16) 0.02835(11) 0.29521(14)
C14_3 C 0.66667(20) 0.03505(14) 0.3333
H6_3 H 0.6667 0.0741 0.3333
C16_3 C 0.75933(16) 0.08420(11) 0.25334(15)
O10_3 O 0.74991(11) 0.13066(8) 0.24763(9)
O11_3 O 0.58342(11) 0.04741(7) 0.41904(9)
C1_3 C 0.62215(16) 0.63832(11) 0.37146(14)
C2_3 C 0.62035(16) 0.69557(11) 0.37159(13)
H1_3 H 0.5897 0.6998 0.3961
C3_3 C 0.66667(23) 0.74690(16) 0.3333
C4_3 C 0.66667(20) 0.63162(14) 0.3333
H2_3 H 0.6667 0.5926 0.3333
C5_3 C 0.57400(16) 0.58247(11) 0.41333(15)
C6_3 C 0.66667(20) 0.80931(14) 0.3333
O1_3 O 0.53139(11) 0.58909(8) 0.44258(9)
O2_3 O 0.58342(11) 0.53601(8) 0.41904(9)
O3_3 O 0.41664(13) 0.58336(6) 0.51738(14)
C7_3 C 0.71118(16) 0.68284(11) 0.29521(14)
C8_3 C 0.62215(16) 0.98383(11) 0.37146(14)
C10_3 C 0.71298(16) 0.74189(12) 0.29508(13)
C11_3 C 0.62035(16) 0.92478(12) 0.37159(13)
C12_3 C 0.71298(16) 0.97110(11) 0.29508(13)
H3_3 H 0.7436 0.7768 0.2706
H4_3 H 0.7436 0.9669 0.2706
H5_3 H 0.5897 0.8899 0.3961
C13_3 C 0.66667(23) 0.91977(16) 0.3333
C15_3 C 0.75933(16) 0.67514(12) 0.25334(15)
C17_3 C 0.57400(16) 0.99153(12) 0.41333(15)
C18_3 C 0.66667(20) 0.85736(14) 0.3333
O4_3 O 0.80194(11) 0.72437(8) 0.22409(9)
O9_3 O 0.74991(11) 0.61926(7) 0.24763(9)
O12_3 O 0.53601(13) 0.58342(11) 0.58096(9)
O13_3 O 0.41658(11) 0.46399(8) 0.58096(9)
O14_3 O 0.79732(13) 0.71408(7) 0.08571(9)
O15_3 O 0.91675(11) 0.71408(7) 0.08571(9)
O16_3 O 0.91669(13) 0.83339(11) 0.14929(14)
C4_4 C 0.03505(14) 0.36838(14) 0.6667
H2_4 H 0.0741 0.4074 0.6667
C7_4 C 0.02835(11) 0.31716(11) 0.70479(14)
C15_4 C 0.08420(11) 0.32486(12) 0.74666(15)
O4_4 O 0.07758(8) 0.27563(8) 0.77591(9)
O8_3 O 0.19806(11) 0.27563(8) 0.77591(9)
O9_4 O 0.13066(8) 0.38074(7) 0.75237(9)
O14_4 O 0.08325(11) 0.28592(7) 0.91429(9)
O15_4 O 0.20268(8) 0.28592(7) 0.91429(9)
O16_4 O 0.08331(6) 0.16661(11) 0.85071(14)
Zn2_3 Zn 0.131183(9) 0.262365(18) 0.84583(2)
Zn4_3 Zn 0.202151(20) 0.404301(18) 0.82083(2)
C1_4 C 0.98383(11) 0.36168(11) 0.62854(14)
C2_4 C 0.92478(12) 0.30443(11) 0.62841(13)
H1_4 H 0.8899 0.3002 0.6039
C3_4 C 0.91977(16) 0.25310(16) 0.6667
C5_4 C 0.99153(12) 0.41753(11) 0.58667(15)
C6_4 C 0.85736(14) 0.19069(14) 0.6667
O1_4 O 0.94230(8) 0.41091(8) 0.55742(9)
O3_4 O 0.83328(11) 0.41664(6) 0.48262(14)
C8_4 C 0.63832(11) 0.01617(11) 0.62854(14)
C10_4 C 0.97110(11) 0.25811(12) 0.70492(13)
C11_4 C 0.69557(11) 0.07522(12) 0.62841(13)
C12_4 C 0.74189(12) 0.02890(11) 0.70492(13)
H3_4 H 0.9669 0.2232 0.7294
H4_4 H 0.7768 0.0331 0.7294
H5_4 H 0.6998 0.1101 0.6039
C13_4 C 0.74690(16) 0.08023(16) 0.6667
C17_4 C 0.58247(11) 0.00847(12) 0.58667(15)
C18_4 C 0.80931(14) 0.14264(14) 0.6667
O6_3 O 0.58909(8) 0.05770(8) 0.55742(9)
O7_2 O 0.94230(8) 0.53139(11) 0.55742(9)
C9_4 C 0.68284(11) 0.97165(11) 0.70479(14)
C14_4 C 0.63162(14) 0.96495(14) 0.6667
H6_4 H 0.5926 0.9259 0.6667
C16_4 C 0.67514(12) 0.91580(11) 0.74666(15)
O5_2 O 0.72437(8) 0.92242(8) 0.77591(9)
O10_4 O 0.61926(7) 0.86934(8) 0.75237(9)
Zn5_2 Zn 0.737635(18) 0.868817(20) 0.84583(2)
Zn6_2 Zn 0.595699(18) 0.797849(9) 0.82083(2)
C1_5 C 0.37785(16) 0.01617(11) 0.62854(14)
C2_5 C 0.37965(16) 0.07522(12) 0.62841(13)
H1_5 H 0.4103 0.1101 0.6039
C3_5 C 0.33333(23) 0.08023(16) 0.6667
C5_5 C 0.42600(16) 0.00847(12) 0.58667(15)
C6_5 C 0.33333(20) 0.14264(14) 0.6667
O1_5 O 0.46861(11) 0.05770(8) 0.55742(9)
O3_5 O 0.58336(13) 0.16672(11) 0.48262(14)
C8_5 C 0.37785(16) 0.36168(11) 0.62854(14)
C9_5 C 0.28882(16) 0.31716(11) 0.70479(14)
C10_5 C 0.28702(16) 0.02890(11) 0.70492(13)
C11_5 C 0.37965(16) 0.30443(11) 0.62841(13)
C12_5 C 0.28702(16) 0.25811(12) 0.70492(13)
H3_5 H 0.2564 0.0331 0.7294
H4_5 H 0.2564 0.2232 0.7294
H5_5 H 0.4103 0.3002 0.6039
C13_5 C 0.33333(23) 0.25310(16) 0.6667
C14_5 C 0.33333(20) 0.36838(14) 0.6667
H6_5 H 0.3333 0.4074 0.6667
C16_5 C 0.24067(16) 0.32486(12) 0.74666(15)
C17_5 C 0.42600(16) 0.41753(11) 0.58667(15)
C18_5 C 0.33333(20) 0.19069(14) 0.6667
O6_4 O 0.46861(11) 0.41091(8) 0.55742(9)
O10_5 O 0.25009(11) 0.38074(7) 0.75237(9)
C4_5 C 0.33333(20) 0.96495(14) 0.6667
H2_5 H 0.3333 0.9259 0.6667
C7_5 C 0.28882(16) 0.97165(11) 0.70479(14)
C15_5 C 0.24067(16) 0.91580(11) 0.74666(15)
O4_5 O 0.19806(11) 0.92242(8) 0.77591(9)
O8_4 O 0.07758(14) 0.80194(11) 0.77591(9)
O9_5 O 0.25009(11) 0.86934(8) 0.75237(9)
O14_5 O 0.20268(13) 0.91675(11) 0.91429(9)
O15_5 O 0.08325(11) 0.79732(8) 0.91429(9)
O16_5 O 0.08331(13) 0.91669(6) 0.85071(14)
Zn2_4 Zn 0.131183(20) 0.868817(9) 0.84583(2)
Zn4_4 Zn 0.202151(27) 0.797849(20) 0.82083(2)
C9_6 C 0.02835(11) 0.71118(16) 0.70479(14)
C14_6 C 0.03505(14) 0.66667(20) 0.6667
H6_6 H 0.0741 0.6667 0.6667
C16_6 C 0.08420(11) 0.75933(16) 0.74666(15)
O10_6 O 0.13066(8) 0.74991(11) 0.75237(9)
C1_6 C 0.63832(11) 0.62215(16) 0.62854(14)
C2_6 C 0.69557(11) 0.62035(16) 0.62841(13)
H1_6 H 0.6998 0.5897 0.6039
C3_6 C 0.74690(16) 0.66667(23) 0.6667
C4_6 C 0.63162(14) 0.66667(20) 0.6667
H2_6 H 0.5926 0.6667 0.6667
C5_6 C 0.58247(11) 0.57400(16) 0.58667(15)
C6_6 C 0.80931(14) 0.66667(20) 0.6667
O1_6 O 0.58909(8) 0.53139(11) 0.55742(9)
O3_6 O 0.58336(6) 0.41664(13) 0.48262(14)
C7_6 C 0.68284(11) 0.71118(16) 0.70479(14)
C8_6 C 0.98383(11) 0.62215(16) 0.62854(14)
C10_6 C 0.74189(12) 0.71298(16) 0.70492(13)
C11_6 C 0.92478(12) 0.62035(16) 0.62841(13)
C12_6 C 0.97110(11) 0.71298(16) 0.70492(13)
H3_6 H 0.7768 0.7436 0.7294
H4_6 H 0.9669 0.7436 0.7294
H5_6 H 0.8899 0.5897 0.6039
C13_6 C 0.91977(16) 0.66667(23) 0.6667
C15_6 C 0.67514(12) 0.75933(16) 0.74666(15)
C17_6 C 0.99153(12) 0.57400(16) 0.58667(15)
C18_6 C 0.85736(14) 0.66667(20) 0.6667
O4_6 O 0.72437(8) 0.80194(11) 0.77591(9)
O9_6 O 0.61926(7) 0.74991(11) 0.75237(9)
O14_6 O 0.71408(7) 0.79732(13) 0.91429(9)
O15_6 O 0.71408(7) 0.91675(11) 0.91429(9)
O16_6 O 0.83339(11) 0.91669(13) 0.85071(14)
C3_7 C 0.58644(16) 0.58643(16) 0.0000
C4_7 C 0.70172(14) 0.70171(14) 0.0000
H2_7 H 0.7408 0.7407 0.0000
C6_7 C 0.52403(14) 0.52402(14) 0.0000
C7_7 C 0.69501(11) 0.65050(11) 0.03813(14)
C9_7 C 0.34950(11) 0.30499(11) 0.03813(14)
C10_7 C 0.63776(11) 0.59145(12) 0.03826(13)
C12_7 C 0.40855(12) 0.36224(11) 0.03826(13)
H3_7 H 0.6335 0.5566 0.0628
H4_7 H 0.4434 0.3665 0.0628
C13_7 C 0.41357(16) 0.41356(16) 0.0000
C14_7 C 0.29829(14) 0.29828(14) 0.0000
H6_7 H 0.2593 0.2592 0.0000
C15_7 C 0.75086(11) 0.65820(12) 0.08000(15)
C16_7 C 0.34180(12) 0.24914(11) 0.08000(15)
C18_7 C 0.47598(14) 0.47597(14) 0.0000
O4_7 O 0.74424(8) 0.60897(8) 0.10925(9)
O5_3 O 0.39103(8) 0.25576(8) 0.10925(9)
O8_5 O 0.86472(11) 0.60897(8) 0.10925(9)
O16_7 O 0.74997(6) 0.49995(11) 0.18405(14)
C1_7 C 0.65050(11) 0.69501(11) 0.96187(14)
C2_7 C 0.59145(12) 0.63776(11) 0.96174(13)
H1_7 H 0.5566 0.6335 0.9372
C3_8 C 0.58644(16) 0.58643(16) 1.0000
C4_8 C 0.70172(14) 0.70171(14) 1.0000
H2_8 H 0.7408 0.7407 1.0000
C5_7 C 0.65820(12) 0.75086(11) 0.92000(15)
C6_8 C 0.52403(14) 0.52402(14) 1.0000
O1_7 O 0.60897(8) 0.74424(8) 0.89075(9)
O3_7 O 0.49995(11) 0.74997(6) 0.81595(14)
C8_7 C 0.30499(11) 0.34950(11) 0.96187(14)
C11_7 C 0.36224(11) 0.40855(12) 0.96174(13)
H5_7 H 0.3665 0.4434 0.9372
C13_8 C 0.41357(16) 0.41356(16) 1.0000
C14_8 C 0.29829(14) 0.29828(14) 1.0000
H6_8 H 0.2593 0.2592 1.0000
C17_7 C 0.24914(11) 0.34180(12) 0.92000(15)
C18_8 C 0.47598(14) 0.47597(14) 1.0000
O6_5 O 0.25576(8) 0.39103(8) 0.89075(9)
O7_3 O 0.60897(8) 0.86472(11) 0.89075(9)
C1_8 C 0.04452(16) 0.34950(11) 0.96187(14)
C2_8 C 0.04632(16) 0.40855(12) 0.96174(13)
H1_8 H 0.0770 0.4434 0.9372
C3_9 C -0.00000(23) 0.41356(16) 1.0000
C4_9 C -0.00000(20) 0.29828(14) 1.0000
H2_9 H -0.0000 0.2592 1.0000
C5_8 C 0.09267(16) 0.34180(12) 0.92000(15)
C6_9 C -0.00000(20) 0.47597(14) 1.0000
O1_8 O 0.13528(11) 0.39103(8) 0.89075(9)
O3_8 O 0.25003(13) 0.50005(11) 0.81595(14)
C8_8 C 0.04452(16) 0.69501(11) 0.96187(14)
C11_8 C 0.04632(16) 0.63776(11) 0.96174(13)
H5_8 H 0.0770 0.6335 0.9372
C13_9 C -0.00000(23) 0.58643(16) 1.0000
C14_9 C -0.00000(20) 0.70171(14) 1.0000
H6_9 H -0.0000 0.7407 1.0000
C17_8 C 0.09267(16) 0.75086(11) 0.92000(15)
C18_9 C -0.00000(20) 0.52402(14) 1.0000
O6_6 O 0.13528(11) 0.74424(8) 0.89075(9)
C3_10 C 1.00000(23) 0.41356(16) 0.0000
C4_10 C 1.00000(20) 0.29828(14) 0.0000
H2_10 H 1.0000 0.2592 0.0000
C6_10 C 1.00000(20) 0.47597(14) 0.0000
C7_8 C 0.95548(16) 0.30499(11) 0.03813(14)
C9_8 C 0.95548(16) 0.65050(11) 0.03813(14)
C10_8 C 0.95368(16) 0.36224(11) 0.03826(13)
C12_8 C 0.95368(16) 0.59145(12) 0.03826(13)
H3_8 H 0.9230 0.3665 0.0628
H4_8 H 0.9230 0.5566 0.0628
C13_10 C 1.00000(23) 0.58643(16) 0.0000
C14_10 C 1.00000(20) 0.70171(14) 0.0000
H6_10 H 1.0000 0.7407 0.0000
C15_8 C 0.90733(16) 0.24914(11) 0.08000(15)
C16_8 C 0.90733(16) 0.65820(12) 0.08000(15)
C18_10 C 1.00000(20) 0.52402(14) 0.0000
O4_8 O 0.86472(11) 0.25576(8) 0.10925(9)
O8_6 O 0.74424(14) 0.13528(11) 0.10925(9)
O16_8 O 0.74997(13) 0.25003(6) 0.18405(14)
C3_11 C 0.41357(16) 0.00000(23) 0.0000
C4_11 C 0.29829(14) 0.00000(20) 0.0000
H2_11 H 0.2593 0.0000 0.0000
C6_11 C 0.47598(14) 0.00000(20) 0.0000
C7_9 C 0.34950(11) 0.04452(16) 0.03813(14)
C9_9 C 0.69501(11) 0.04452(16) 0.03813(14)
C10_9 C 0.40855(12) 0.04632(16) 0.03826(13)
C12_9 C 0.63776(11) 0.04632(16) 0.03826(13)
H3_9 H 0.4434 0.0770 0.0628
H4_9 H 0.6335 0.0770 0.0628
C13_11 C 0.58644(16) 0.00000(23) 0.0000
C14_11 C 0.70172(14) 0.00000(20) 0.0000
H6_11 H 0.7408 0.0000 0.0000
C15_9 C 0.34180(12) 0.09267(16) 0.08000(15)
C16_9 C 0.75086(11) 0.09267(16) 0.08000(15)
C18_11 C 0.52403(14) 0.00000(20) 0.0000
O4_9 O 0.39103(8) 0.13528(11) 0.10925(9)
O16_9 O 0.50005(11) 0.25003(13) 0.18405(14)
C1_9 C 0.30499(11) 0.95548(16) 0.96187(14)
C2_9 C 0.36224(11) 0.95368(16) 0.96174(13)
H1_9 H 0.3665 0.9230 0.9372
C3_12 C 0.41357(16) 1.00000(23) 1.0000
C4_12 C 0.29829(14) 1.00000(20) 1.0000
H2_12 H 0.2593 1.0000 1.0000
C5_9 C 0.24914(11) 0.90733(16) 0.92000(15)
C6_12 C 0.47598(14) 1.00000(20) 1.0000
O1_9 O 0.25576(8) 0.86472(11) 0.89075(9)
O3_9 O 0.25003(6) 0.74997(13) 0.81595(14)
C8_9 C 0.65050(11) 0.95548(16) 0.96187(14)
C11_9 C 0.59145(12) 0.95368(16) 0.96174(13)
H5_9 H 0.5566 0.9230 0.9372
C13_12 C 0.58644(16) 1.00000(23) 1.0000
C14_12 C 0.70172(14) 1.00000(20) 1.0000
H6_12 H 0.7408 1.0000 1.0000
C17_9 C 0.65820(12) 0.90733(16) 0.92000(15)
C18_12 C 0.52403(14) 1.00000(20) 1.0000
C3_13 C -0.00000(23) 0.41356(16) 0.0000
C4_13 C -0.00000(20) 0.29828(14) 0.0000
H2_13 H -0.0000 0.2592 0.0000
C6_13 C -0.00000(20) 0.47597(14) 0.0000
C13_13 C -0.00000(23) 0.58643(16) 0.0000
C14_13 C -0.00000(20) 0.70171(14) 0.0000
H6_13 H -0.0000 0.7407 0.0000
C18_13 C -0.00000(20) 0.52402(14) 0.0000
C3_14 C 1.00000(23) 0.41356(16) 1.0000
C4_14 C 1.00000(20) 0.29828(14) 1.0000
H2_14 H 1.0000 0.2592 1.0000
C6_14 C 1.00000(20) 0.47597(14) 1.0000
C13_14 C 1.00000(23) 0.58643(16) 1.0000
C14_14 C 1.00000(20) 0.70171(14) 1.0000
H6_14 H 1.0000 0.7407 1.0000
C18_14 C 1.00000(20) 0.52402(14) 1.0000
C3_15 C 0.41357(16) 0.00000(23) 1.0000
C4_15 C 0.29829(14) 0.00000(20) 1.0000
H2_15 H 0.2593 0.0000 1.0000
C6_15 C 0.47598(14) 0.00000(20) 1.0000
C13_15 C 0.58644(16) 0.00000(23) 1.0000
C14_15 C 0.70172(14) 0.00000(20) 1.0000
H6_15 H 0.7408 0.0000 1.0000
C18_15 C 0.52403(14) 0.00000(20) 1.0000
C3_16 C 0.41357(16) 1.00000(23) 0.0000
C4_16 C 0.29829(14) 1.00000(20) 0.0000
H2_16 H 0.2593 1.0000 0.0000
C6_16 C 0.47598(14) 1.00000(20) 0.0000
C13_16 C 0.58644(16) 1.00000(23) 0.0000
C14_16 C 0.70172(14) 1.00000(20) 0.0000
H6_16 H 0.7408 1.0000 0.0000
C18_16 C 0.52403(14) 1.00000(20) 0.0000
loop_
_geom_bond_atom_site_label_1
_geom_bond_atom_site_label_2
_geom_bond_site_symmetry_1
_geom_bond_site_symmetry_2
H2 C4 1_555 1_555
C7 C4 1_555 1_555
C15 C7 1_555 1_555
O4 C15 1_555 1_555
O8 Zn2 1_555 1_555
O9 C15 1_555 1_555
O14 Zn2 1_555 1_555
O15 Zn2 1_555 1_555
O16 Zn2 1_555 1_555
Zn2 O4 1_555 1_555
Zn3 O2 1_555 1_555
Zn4 O9 1_555 1_555
C1 C2 1_555 1_555
C2 H1 1_555 1_555
C3 C2 1_555 1_555
C5 C1 1_555 1_555
C6 C3 1_555 1_555
O1 C5 1_555 1_555
O3 Zn1 1_555 1_555
Zn1 O1 1_555 1_555
C8 C11 1_555 1_555
C10 C3 1_555 1_555
C11 H5 1_555 1_555
C12 H4 1_555 1_555
H3 C10 1_555 1_555
C13 C11 1_555 1_555
C17 C8 1_555 1_555
C18 C6 1_555 1_555
O6 C17 1_555 1_555
O7 Zn1 1_555 1_555
O12 Zn1 1_555 1_555
O13 Zn1 1_555 1_555
Zn7 O6 1_555 1_555
C12 C13 1_555 1_555
C13 C18 1_555 1_555
H6 C14 1_555 1_555
C16 C9 1_555 1_555
O5 C16 1_555 1_555
O10 C16 1_555 1_555
Zn5 O5 1_555 1_555
Zn6 O10 1_555 1_555
Zn8 O11 1_555 1_555
C9 C14 1_555 1_555
C1_2 C2_2 1_555 1_555
C2_2 H1_2 1_555 1_555
C3_2 C2_2 1_555 1_555
C5_2 C1_2 1_555 1_555
C6_2 C3_2 1_555 1_555
O1_2 C5_2 1_555 1_555
O3_2 Zn7 1_555 1_555
Zn7 O1_2 1_555 1_555
C8_2 C11_2 1_555 1_555
C9_2 C12_2 1_555 1_555
C10_2 C3_2 1_555 1_555
C11_2 H5_2 1_555 1_555
C12_2 H4_2 1_555 1_555
H3_2 C10_2 1_555 1_555
C13_2 C11_2 1_555 1_555
C14_2 C8_2 1_555 1_555
H6_2 C14_2 1_555 1_555
C16_2 C9_2 1_555 1_555
C17_2 C8_2 1_555 1_555
C18_2 C6_2 1_555 1_555
O8 C16_2 1_555 1_555
O6_2 C17_2 1_555 1_555
O10_2 C16_2 1_555 1_555
O11_2 C17_2 1_555 1_555
O12_2 Zn7 1_555 1_555
O13_2 Zn7 1_555 1_555
Zn4 O10_2 1_555 1_555
Zn7_2 O6_2 1_555 1_555
Zn8_2 O11_2 1_555 1_555
C9_2 C14_2 1_555 1_555
C12_2 C13_2 1_555 1_555
C13_2 C18_2 1_555 1_555
H2_2 C4_2 1_555 1_555
C7_2 C4_2 1_555 1_555
C15_2 C7_2 1_555 1_555
O4_2 C15_2 1_555 1_555
O8_2 Zn2_2 1_555 1_555
O9_2 C15_2 1_555 1_555
O14_2 Zn2_2 1_555 1_555
O15_2 Zn2_2 1_555 1_555
O16_2 Zn2_2 1_555 1_555
Zn2_2 O4_2 1_555 1_555
Zn8 O2_2 1_555 1_555
Zn4_2 O9_2 1_555 1_555
H6_3 C14_3 1_555 1_555
C16_3 C9_3 1_555 1_555
O8_2 C16_3 1_555 1_555
O10_3 C16_3 1_555 1_555
Zn4_2 O10_3 1_555 1_555
Zn3 O11_3 1_555 1_555
C9_3 C14_3 1_555 1_555
C1_3 C2_3 1_555 1_555
C2_3 H1_3 1_555 1_555
C3_3 C2_3 1_555 1_555
C4_3 C1_3 1_555 1_555
H2_3 C4_3 1_555 1_555
C5_3 C1_3 1_555 1_555
C6_3 C3_3 1_555 1_555
O1_3 C5_3 1_555 1_555
O2_3 C5_3 1_555 1_555
O3_3 Zn7_2 1_555 1_555
Zn7_2 O1_3 1_555 1_555
C7_3 C4_3 1_555 1_555
C8_3 C11_3 1_555 1_555
C10_3 C3_3 1_555 1_555
C11_3 H5_3 1_555 1_555
C12_3 H4_3 1_555 1_555
H3_3 C10_3 1_555 1_555
C13_3 C11_3 1_555 1_555
C15_3 C7_3 1_555 1_555
C17_3 C8_3 1_555 1_555
C18_3 C6_3 1_555 1_555
O4_3 C15_3 1_555 1_555
O7 C17_3 1_555 1_555
O9_3 C15_3 1_555 1_555
O12_3 Zn7_2 1_555 1_555
O13_3 Zn7_2 1_555 1_555
O14_3 Zn5 1_555 1_555
O15_3 Zn5 1_555 1_555
O16_3 Zn5 1_555 1_555
Zn5 O4_3 1_555 1_555
Zn8_2 O2_3 1_555 1_555
Zn6 O9_3 1_555 1_555
C7_3 C10_3 1_555 1_555
C12_3 C13_3 1_555 1_555
C13_3 C18_3 1_555 1_555
H2_4 C4_4 1_555 1_555
C7_4 C4_4 1_555 1_555
C15_4 C7_4 1_555 1_555
O4_4 C15_4 1_555 1_555
O8_3 Zn2_3 1_555 1_555
O9_4 C15_4 1_555 1_555
O14_4 Zn2_3 1_555 1_555
O15_4 Zn2_3 1_555 1_555
O16_4 Zn2_3 1_555 1_555
Zn2_3 O4_4 1_555 1_555
Zn4_3 O9_4 1_555 1_555
C1_4 C2_4 1_555 1_555
C2_4 H1_4 1_555 1_555
C3_4 C2_4 1_555 1_555
C5_4 C1_4 1_555 1_555
C6_4 C3_4 1_555 1_555
O1_4 C5_4 1_555 1_555
O3_4 Zn8 1_555 1_555
Zn8 O1_4 1_555 1_555
C8_4 C11_4 1_555 1_555
C10_4 C3_4 1_555 1_555
C11_4 H5_4 1_555 1_555
C12_4 H4_4 1_555 1_555
H3_4 C10_4 1_555 1_555
C13_4 C11_4 1_555 1_555
C17_4 C8_4 1_555 1_555
C18_4 C6_4 1_555 1_555
O6_3 C17_4 1_555 1_555
O7_2 Zn8 1_555 1_555
Zn3 O6_3 1_555 1_555
C12_4 C13_4 1_555 1_555
C13_4 C18_4 1_555 1_555
H6_4 C14_4 1_555 1_555
C16_4 C9_4 1_555 1_555
O5_2 C16_4 1_555 1_555
O10_4 C16_4 1_555 1_555
Zn5_2 O5_2 1_555 1_555
Zn6_2 O10_4 1_555 1_555
C9_4 C14_4 1_555 1_555
C1_5 C2_5 1_555 1_555
C2_5 H1_5 1_555 1_555
C3_5 C2_5 1_555 1_555
C5_5 C1_5 1_555 1_555
C6_5 C3_5 1_555 1_555
O1_5 C5_5 1_555 1_555
O3_5 Zn3 1_555 1_555
Zn3 O1_5 1_555 1_555
C8_5 C11_5 1_555 1_555
C9_5 C12_5 1_555 1_555
C10_5 C3_5 1_555 1_555
C11_5 H5_5 1_555 1_555
C12_5 H4_5 1_555 1_555
H3_5 C10_5 1_555 1_555
C13_5 C11_5 1_555 1_555
C14_5 C8_5 1_555 1_555
H6_5 C14_5 1_555 1_555
C16_5 C9_5 1_555 1_555
C17_5 C8_5 1_555 1_555
C18_5 C6_5 1_555 1_555
O8_3 C16_5 1_555 1_555
O6_4 C17_5 1_555 1_555
O10_5 C16_5 1_555 1_555
O13_3 C17_5 1_555 1_555
Zn4_3 O10_5 1_555 1_555
Zn8_2 O6_4 1_555 1_555
C9_5 C14_5 1_555 1_555
C12_5 C13_5 1_555 1_555
C13_5 C18_5 1_555 1_555
H2_5 C4_5 1_555 1_555
C7_5 C4_5 1_555 1_555
C15_5 C7_5 1_555 1_555
O4_5 C15_5 1_555 1_555
O8_4 Zn2_4 1_555 1_555
O9_5 C15_5 1_555 1_555
O14_5 Zn2_4 1_555 1_555
O15_5 Zn2_4 1_555 1_555
O16_5 Zn2_4 1_555 1_555
Zn2_4 O4_5 1_555 1_555
Zn4_4 O9_5 1_555 1_555
H6_6 C14_6 1_555 1_555
C16_6 C9_6 1_555 1_555
O8_4 C16_6 1_555 1_555
O10_6 C16_6 1_555 1_555
Zn4_4 O10_6 1_555 1_555
C9_6 C14_6 1_555 1_555
C1_6 C2_6 1_555 1_555
C2_6 H1_6 1_555 1_555
C3_6 C2_6 1_555 1_555
C4_6 C1_6 1_555 1_555
H2_6 C4_6 1_555 1_555
C5_6 C1_6 1_555 1_555
C6_6 C3_6 1_555 1_555
O1_6 C5_6 1_555 1_555
O12_3 C5_6 1_555 1_555
O3_6 Zn8_2 1_555 1_555
Zn8_2 O1_6 1_555 1_555
C7_6 C4_6 1_555 1_555
C8_6 C11_6 1_555 1_555
C10_6 C3_6 1_555 1_555
C11_6 H5_6 1_555 1_555
C12_6 H4_6 1_555 1_555
H3_6 C10_6 1_555 1_555
C13_6 C11_6 1_555 1_555
C15_6 C7_6 1_555 1_555
C17_6 C8_6 1_555 1_555
C18_6 C6_6 1_555 1_555
O4_6 C15_6 1_555 1_555
O7_2 C17_6 1_555 1_555
O9_6 C15_6 1_555 1_555
O14_6 Zn5_2 1_555 1_555
O15_6 Zn5_2 1_555 1_555
O16_6 Zn5_2 1_555 1_555
Zn5_2 O4_6 1_555 1_555
Zn6_2 O9_6 1_555 1_555
C7_6 C10_6 1_555 1_555
C12_6 C13_6 1_555 1_555
C13_6 C18_6 1_555 1_555
H2_7 C4_7 1_555 1_555
C6_7 C3_7 1_555 1_555
C7_7 C4_7 1_555 1_555
C9_7 C12_7 1_555 1_555
C10_7 C3_7 1_555 1_555
C12_7 H4_7 1_555 1_555
H3_7 C10_7 1_555 1_555
H6_7 C14_7 1_555 1_555
C15_7 C7_7 1_555 1_555
C16_7 C9_7 1_555 1_555
C18_7 C6_7 1_555 1_555
O4_7 C15_7 1_555 1_555
O5_3 C16_7 1_555 1_555
O8_5 Zn6 1_555 1_555
O14_3 C15_7 1_555 1_555
O15 C16_7 1_555 1_555
O16_7 Zn6 1_555 1_555
Zn6 O4_7 1_555 1_555
Zn4 O5_3 1_555 1_555
C7_7 C10_7 1_555 1_555
C9_7 C14_7 1_555 1_555
C12_7 C13_7 1_555 1_555
C13_7 C18_7 1_555 1_555
C1_7 C2_7 1_555 1_555
C2_7 H1_7 1_555 1_555
C3_8 C2_7 1_555 1_555
C4_8 C1_7 1_555 1_555
H2_8 C4_8 1_555 1_555
C5_7 C1_7 1_555 1_555
C6_8 C3_8 1_555 1_555
O1_7 C5_7 1_555 1_555
O14_6 C5_7 1_555 1_555
O3_7 Zn6_2 1_555 1_555
Zn6_2 O1_7 1_555 1_555
C8_7 C11_7 1_555 1_555
C11_7 H5_7 1_555 1_555
C13_8 C11_7 1_555 1_555
C14_8 C8_7 1_555 1_555
H6_8 C14_8 1_555 1_555
C17_7 C8_7 1_555 1_555
C18_8 C6_8 1_555 1_555
O6_5 C17_7 1_555 1_555
O7_3 Zn6_2 1_555 1_555
O15_4 C17_7 1_555 1_555
Zn4_3 O6_5 1_555 1_555
C13_8 C18_8 1_555 1_555
C1_8 C2_8 1_555 1_555
C2_8 H1_8 1_555 1_555
C3_9 C2_8 1_555 1_555
C4_9 C1_8 1_555 1_555
H2_9 C4_9 1_555 1_555
C5_8 C1_8 1_555 1_555
C6_9 C3_9 1_555 1_555
O1_8 C5_8 1_555 1_555
O14_4 C5_8 1_555 1_555
O3_8 Zn4_3 1_555 1_555
Zn4_3 O1_8 1_555 1_555
C8_8 C11_8 1_555 1_555
C11_8 H5_8 1_555 1_555
C13_9 C11_8 1_555 1_555
C14_9 C8_8 1_555 1_555
H6_9 C14_9 1_555 1_555
C17_8 C8_8 1_555 1_555
C18_9 C6_9 1_555 1_555
O6_6 C17_8 1_555 1_555
O15_5 C17_8 1_555 1_555
Zn4_4 O6_6 1_555 1_555
C13_9 C18_9 1_555 1_555
H2_10 C4_10 1_555 1_555
C6_10 C3_10 1_555 1_555
C7_8 C4_10 1_555 1_555
C9_8 C12_8 1_555 1_555
C10_8 C3_10 1_555 1_555
C12_8 H4_8 1_555 1_555
H3_8 C10_8 1_555 1_555
H6_10 C14_10 1_555 1_555
C15_8 C7_8 1_555 1_555
C16_8 C9_8 1_555 1_555
C18_10 C6_10 1_555 1_555
O4_8 C15_8 1_555 1_555
O8_5 C16_8 1_555 1_555
O8_6 Zn4_2 1_555 1_555
O14_2 C15_8 1_555 1_555
O15_3 C16_8 1_555 1_555
O16_8 Zn4_2 1_555 1_555
Zn4_2 O4_8 1_555 1_555
C7_8 C10_8 1_555 1_555
C9_8 C14_10 1_555 1_555
C12_8 C13_10 1_555 1_555
C13_10 C18_10 1_555 1_555
H2_11 C4_11 1_555 1_555
C6_11 C3_11 1_555 1_555
C7_9 C4_11 1_555 1_555
C9_9 C12_9 1_555 1_555
C10_9 C3_11 1_555 1_555
C12_9 H4_9 1_555 1_555
H3_9 C10_9 1_555 1_555
H6_11 C14_11 1_555 1_555
C15_9 C7_9 1_555 1_555
C16_9 C9_9 1_555 1_555
C18_11 C6_11 1_555 1_555
O4_9 C15_9 1_555 1_555
O8_6 C16_9 1_555 1_555
O14 C15_9 1_555 1_555
O15_2 C16_9 1_555 1_555
O16_9 Zn4 1_555 1_555
Zn4 O4_9 1_555 1_555
C7_9 C10_9 1_555 1_555
C9_9 C14_11 1_555 1_555
C12_9 C13_11 1_555 1_555
C13_11 C18_11 1_555 1_555
C1_9 C2_9 1_555 1_555
C2_9 H1_9 1_555 1_555
C3_12 C2_9 1_555 1_555
C4_12 C1_9 1_555 1_555
H2_12 C4_12 1_555 1_555
C5_9 C1_9 1_555 1_555
C6_12 C3_12 1_555 1_555
O1_9 C5_9 1_555 1_555
O14_5 C5_9 1_555 1_555
O3_9 Zn4_4 1_555 1_555
Zn4_4 O1_9 1_555 1_555
C8_9 C11_9 1_555 1_555
C11_9 H5_9 1_555 1_555
C13_12 C11_9 1_555 1_555
C14_12 C8_9 1_555 1_555
H6_12 C14_12 1_555 1_555
C17_9 C8_9 1_555 1_555
C18_12 C6_12 1_555 1_555
O7_3 C17_9 1_555 1_555
O15_6 C17_9 1_555 1_555
C13_12 C18_12 1_555 1_555
H2_13 C4_13 1_555 1_555
C6_13 C3_13 1_555 1_555
H6_13 C14_13 1_555 1_555
C18_13 C6_13 1_555 1_555
C13_13 C18_13 1_555 1_555
H2_14 C4_14 1_555 1_555
C6_14 C3_14 1_555 1_555
H6_14 C14_14 1_555 1_555
C18_14 C6_14 1_555 1_555
C13_14 C18_14 1_555 1_555
H2_15 C4_15 1_555 1_555
C6_15 C3_15 1_555 1_555
H6_15 C14_15 1_555 1_555
C18_15 C6_15 1_555 1_555
C13_15 C18_15 1_555 1_555
H2_16 C4_16 1_555 1_555
C6_16 C3_16 1_555 1_555
H6_16 C14_16 1_555 1_555
C18_16 C6_16 1_555 1_555
C13_16 C18_16 1_555 1_555

#END
