
###############################################################################
#
# This file contains modified crystal structure data generated from the
# MOF subset of the Cambridge Structural Database (CSD) v543 
# hosted by the Cambridge Crystallographic Data Centre (CCDC).
#
# This work is licensed under the Creative Commons
# Attribution-NonCommercial-ShareAlike 4.0 International License.
# To view a copy of this license, visit
# http://creativecommons.org/licenses/by-nc-sa/4.0/
# or send a letter to
# Creative Commons, PO Box 1866, Mountain View, CA 94042, USA.
#
# CIF created using the CSD Python API on 29 September 2022
# The structure has been converted into the P1 space group
# The structure has a 3D framework
# The original CSD entry KEFBEE is in the rhombohedral crystal system
# The framework has been calculated to contain at least 10.0% void space
# The void calculation uses a probe of radius 1.32A, grid spacing 0.4
# H atom positions have been added when not included in the experimental data
# Generated hydrogen atom positions removed from atoms on special positions
#
###############################################################################

data_KEFBEE
_chemical_formula_moiety         '(C162 H198 O84 Zn18)n'
_symmetry_cell_setting           triclinic
_symmetry_space_group_name_H-M   'P 1'
_symmetry_Int_Tables_number      1
_space_group_name_Hall           'P 1'
loop_
_symmetry_equiv_pos_site_id
_symmetry_equiv_pos_as_xyz
1 x,y,z
_cell_length_a                   19.0504(8)
_cell_length_b                   19.0504(8)
_cell_length_c                   32.392(3)
_cell_angle_alpha                90
_cell_angle_beta                 90
_cell_angle_gamma                120
_cell_volume                     10180.7
loop_
_atom_site_label
_atom_site_type_symbol
_atom_site_fract_x
_atom_site_fract_y
_atom_site_fract_z
Zn3 Zn 0.04997(3) 0.524987(13) 0.038243(13)
Zn5 Zn 0.191650(33) 0.808346(13) 0.295090(13)
Zn6 Zn 0.141684(33) 0.858320(13) 0.371576(13)
C8 C 0.02624(27) 0.7887(2) 0.30300(10)
O5 O 0.07443(21) 0.77731(16) 0.28290(7)
O12 O 0.03695(20) 0.81735(14) 0.33884(7)
O7 O 0.03622(14) 0.44398(16) 0.94957(7)
O8 O 0.03622(14) 0.59224(21) 0.94957(7)
C1 C 0.90417(18) 0.5446(2) 0.03033(10)
C2 C 0.84591(19) 0.5656(2) 0.05026(10)
C3 C 0.8626(2) 0.5994(2) 0.08978(10)
H1 H 0.9099 0.6097 0.1033
C4 C 0.80876(16) 0.6175(3) 0.10883(16)
C5 C 0.82639(18) 0.6528(4) 0.15043(16)
C6 C 0.77454(15) 0.5491(3) 0.03044(14)
H2 H 0.7635 0.5270 0.0040
O1 O 0.96378(14) 0.55602(16) 0.05043(7)
Zn4 Zn 0.475017(33) 0.524987(13) 0.038243(13)
Zn7 Zn 0.61670(3) 0.808346(13) 0.295090(13)
Zn8 Zn 0.71664(3) 0.858320(13) 0.371576(13)
C7 C 0.64043(27) 0.5446(2) 0.03033(10)
C9 C 0.76250(18) 0.7887(2) 0.30300(10)
C10 C 0.71969(28) 0.5656(2) 0.05026(10)
C11 C 0.94698(28) 0.7677(2) 0.28307(10)
C12 C 0.82076(19) 0.7677(2) 0.28307(10)
C13 C 0.7368(3) 0.5994(2) 0.08978(10)
C14 C 0.9299(3) 0.7339(2) 0.24355(10)
C15 C 0.8041(2) 0.7339(2) 0.24355(10)
H3 H 0.6998 0.6097 0.1033
H4 H 0.7568 0.7236 0.2300
H5 H 0.9669 0.7236 0.2300
C16 C 0.85793(34) 0.7158(3) 0.22450(16)
C17 C 0.84026(44) 0.6805(4) 0.18290(16)
C18 C 0.89211(34) 0.7842(3) 0.30289(14)
H6 H 0.9032 0.8063 0.3293
O4 O 0.59224(21) 0.55602(16) 0.05043(7)
O6 O 0.70289(14) 0.77731(16) 0.28290(7)
O13 O 0.78041(14) 0.81735(14) 0.33884(7)
Zn1 Zn 0.95003(3) 0.475013(13) 0.961757(13)
O2 O 0.88626(14) 0.51598(14) 0.99449(7)
O3 O 0.8916(2) 0.44578(11) 0.90854(10)
Zn2 Zn 0.524983(33) 0.475013(13) 0.961757(13)
O9 O 0.40776(21) 0.44398(16) 0.94957(7)
O10 O 0.55602(16) 0.59224(21) 0.94957(7)
O11 O 0.62972(20) 0.51598(14) 0.99449(7)
O14 O 0.88626(14) 0.37028(20) 0.99449(7)
O15 O 0.48402(14) 0.37028(20) 0.99449(7)
O16 O 0.55418(23) 0.44578(11) 0.90854(10)
C1_2 C 0.4554(2) 0.35957(27) 0.03033(10)
C2_2 C 0.4344(2) 0.28031(28) 0.05026(10)
C3_2 C 0.4006(2) 0.2632(3) 0.08978(10)
H1_2 H 0.3903 0.3002 0.1033
C4_2 C 0.3825(3) 0.19126(34) 0.10883(16)
C5_2 C 0.3472(4) 0.17359(44) 0.15043(16)
C6_2 C 0.4509(3) 0.22544(34) 0.03044(14)
H2_2 H 0.4730 0.2365 0.0040
O1_2 O 0.44398(16) 0.40776(21) 0.05043(7)
Zn5_2 Zn 0.191654(13) 0.383303(35) 0.295090(13)
Zn6_2 Zn 0.141680(13) 0.283363(35) 0.371576(13)
C7_2 C 0.4554(2) 0.09583(34) 0.03033(10)
C8_2 C 0.2113(2) 0.23750(34) 0.30300(10)
C10_2 C 0.4344(2) 0.15409(34) 0.05026(10)
C11_2 C 0.2323(2) 0.17924(34) 0.28307(10)
C12_2 C 0.2323(2) 0.05302(28) 0.28307(10)
C13_2 C 0.4006(2) 0.1374(4) 0.08978(10)
C14_2 C 0.2661(2) 0.1959(4) 0.24355(10)
C15_2 C 0.2661(2) 0.0701(3) 0.24355(10)
H3_2 H 0.3903 0.0901 0.1033
H4_2 H 0.2764 0.0331 0.2300
H5_2 H 0.2764 0.2432 0.2300
C16_2 C 0.2842(3) 0.14209(45) 0.22450(16)
C17_2 C 0.3195(4) 0.15972(59) 0.18290(16)
C18_2 C 0.2158(3) 0.10787(45) 0.30289(14)
H6_2 H 0.1937 0.0968 0.3293
O4_2 O 0.44398(16) 0.03622(26) 0.05043(7)
O5_2 O 0.22269(16) 0.29711(26) 0.28290(7)
O12_2 O 0.18265(14) 0.21959(24) 0.33884(7)
Zn2_2 Zn 0.524987(13) 0.049970(35) 0.961757(13)
O11_2 O 0.48402(14) 0.11374(24) 0.99449(7)
O15_2 O 0.62972(20) 0.11374(24) 0.99449(7)
O16_2 O 0.55422(11) 0.10840(25) 0.90854(10)
Zn4_2 Zn 0.475013(13) 0.950030(35) 0.038243(13)
C9_2 C 0.2113(2) 0.97376(27) 0.30300(10)
O6_2 O 0.22269(16) 0.92557(21) 0.28290(7)
O13_2 O 0.18265(14) 0.96305(20) 0.33884(7)
O9_2 O 0.55602(16) 0.96378(26) 0.94957(7)
O10_2 O 0.40776(21) 0.96378(26) 0.94957(7)
C9_3 C 0.02624(27) 0.23750(18) 0.30300(10)
O6_3 O 0.07443(21) 0.29711(14) 0.28290(7)
O13_3 O 0.03695(20) 0.21959(14) 0.33884(7)
C1_3 C 0.64043(27) 0.09583(18) 0.03033(10)
C2_3 C 0.71969(28) 0.15409(19) 0.05026(10)
C3_3 C 0.7368(3) 0.1374(2) 0.08978(10)
H1_3 H 0.6998 0.0901 0.1033
C4_3 C 0.80874(34) 0.19124(16) 0.10883(16)
C5_3 C 0.82641(44) 0.17361(18) 0.15043(16)
C6_3 C 0.77456(34) 0.22546(15) 0.03044(14)
H2_3 H 0.7635 0.2365 0.0040
O1_3 O 0.59224(21) 0.03622(14) 0.05043(7)
C7_3 C 0.90417(34) 0.35957(27) 0.03033(10)
C10_3 C 0.84591(34) 0.28031(28) 0.05026(10)
C11_3 C 0.82076(34) 0.05302(28) 0.28307(10)
C12_3 C 0.94698(28) 0.17924(19) 0.28307(10)
C13_3 C 0.8626(4) 0.2632(3) 0.08978(10)
C14_3 C 0.8041(4) 0.0701(3) 0.24355(10)
C15_3 C 0.9299(3) 0.1959(2) 0.24355(10)
H3_3 H 0.9099 0.3002 0.1033
H4_3 H 0.9669 0.2432 0.2300
H5_3 H 0.7568 0.0331 0.2300
C16_3 C 0.85791(45) 0.14207(34) 0.22450(16)
C17_3 C 0.84028(59) 0.15974(44) 0.18290(16)
C18_3 C 0.89213(45) 0.10789(34) 0.30289(14)
H6_3 H 0.9032 0.0968 0.3293
O4_3 O 0.96378(26) 0.40776(21) 0.05043(7)
C8_3 C 0.76250(34) 0.97376(27) 0.30300(10)
O5_3 O 0.70289(26) 0.92557(21) 0.28290(7)
O12_3 O 0.78041(24) 0.96305(20) 0.33884(7)
Zn5_3 Zn 0.808346(13) 0.191650(33) 0.704910(13)
Zn6_3 Zn 0.858320(13) 0.141684(33) 0.628424(13)
C8_4 C 0.7887(2) 0.02624(27) 0.69700(10)
O5_4 O 0.77731(16) 0.07443(21) 0.71710(7)
O12_4 O 0.81735(14) 0.03695(20) 0.66116(7)
O2_2 O 0.51598(14) 0.88626(14) 0.00551(7)
O3_2 O 0.44578(11) 0.8916(2) 0.09146(10)
O11_3 O 0.51598(14) 0.62972(20) 0.00551(7)
O14_2 O 0.37028(20) 0.88626(14) 0.00551(7)
O15_3 O 0.37028(20) 0.48402(14) 0.00551(7)
O16_3 O 0.44578(11) 0.55418(23) 0.09146(10)
C1_4 C 0.5446(2) 0.90417(18) 0.96967(10)
C2_4 C 0.5656(2) 0.84591(19) 0.94974(10)
C3_4 C 0.5994(2) 0.8626(2) 0.91022(10)
H1_4 H 0.6097 0.9099 0.8967
C4_4 C 0.6175(3) 0.80876(16) 0.89117(16)
C5_4 C 0.6528(4) 0.82639(18) 0.84957(16)
C6_4 C 0.5491(3) 0.77454(15) 0.96956(14)
H2_4 H 0.5270 0.7635 0.9960
Zn7_2 Zn 0.808346(13) 0.61670(3) 0.704910(13)
Zn8_2 Zn 0.858320(13) 0.71664(3) 0.628424(13)
C7_4 C 0.5446(2) 0.64043(27) 0.96967(10)
C9_4 C 0.7887(2) 0.76250(18) 0.69700(10)
C10_4 C 0.5656(2) 0.71969(28) 0.94974(10)
C11_4 C 0.7677(2) 0.94698(28) 0.71693(10)
C12_4 C 0.7677(2) 0.82076(19) 0.71693(10)
C13_4 C 0.5994(2) 0.7368(3) 0.91022(10)
C14_4 C 0.7339(2) 0.9299(3) 0.75645(10)
C15_4 C 0.7339(2) 0.8041(2) 0.75645(10)
H3_4 H 0.6097 0.6998 0.8967
H4_4 H 0.7236 0.7568 0.7700
H5_4 H 0.7236 0.9669 0.7700
C16_4 C 0.7158(3) 0.85793(34) 0.77550(16)
C17_4 C 0.6805(4) 0.84026(44) 0.81710(16)
C18_4 C 0.7842(3) 0.89211(34) 0.69711(14)
H6_4 H 0.8063 0.9032 0.6707
O6_4 O 0.77731(16) 0.70289(14) 0.71710(7)
O13_4 O 0.81735(14) 0.78041(14) 0.66116(7)
O11_4 O 0.11374(24) 0.48402(14) 0.00551(7)
O15_4 O 0.11374(24) 0.62972(20) 0.00551(7)
O16_4 O 0.10840(25) 0.55422(11) 0.09146(10)
C1_5 C 0.35957(27) 0.4554(2) 0.96967(10)
C2_5 C 0.28031(28) 0.4344(2) 0.94974(10)
C3_5 C 0.2632(3) 0.4006(2) 0.91022(10)
H1_5 H 0.3002 0.3903 0.8967
C4_5 C 0.19126(34) 0.3825(3) 0.89117(16)
C5_5 C 0.17359(44) 0.3472(4) 0.84957(16)
C6_5 C 0.22544(34) 0.4509(3) 0.96956(14)
H2_5 H 0.2365 0.4730 0.9960
Zn5_4 Zn 0.383303(35) 0.191654(13) 0.704910(13)
Zn6_4 Zn 0.283363(35) 0.141680(13) 0.628424(13)
C7_5 C 0.09583(34) 0.4554(2) 0.96967(10)
C8_5 C 0.23750(34) 0.2113(2) 0.69700(10)
C10_5 C 0.15409(34) 0.4344(2) 0.94974(10)
C11_5 C 0.17924(34) 0.2323(2) 0.71693(10)
C12_5 C 0.05302(28) 0.2323(2) 0.71693(10)
C13_5 C 0.1374(4) 0.4006(2) 0.91022(10)
C14_5 C 0.1959(4) 0.2661(2) 0.75645(10)
C15_5 C 0.0701(3) 0.2661(2) 0.75645(10)
H3_5 H 0.0901 0.3903 0.8967
H4_5 H 0.0331 0.2764 0.7700
H5_5 H 0.2432 0.2764 0.7700
C16_5 C 0.14209(45) 0.2842(3) 0.77550(16)
C17_5 C 0.15972(59) 0.3195(4) 0.81710(16)
C18_5 C 0.10787(45) 0.2158(3) 0.69711(14)
H6_5 H 0.0968 0.1937 0.6707
O5_5 O 0.29711(26) 0.22269(16) 0.71710(7)
O12_5 O 0.21959(24) 0.18265(14) 0.66116(7)
C9_5 C 0.97376(27) 0.2113(2) 0.69700(10)
O6_5 O 0.92557(21) 0.22269(16) 0.71710(7)
O13_5 O 0.96305(20) 0.18265(14) 0.66116(7)
C9_6 C 0.23750(18) 0.02624(27) 0.69700(10)
O6_6 O 0.29711(14) 0.07443(21) 0.71710(7)
O13_6 O 0.21959(14) 0.03695(20) 0.66116(7)
C1_6 C 0.09583(18) 0.64043(27) 0.96967(10)
C2_6 C 0.15409(19) 0.71969(28) 0.94974(10)
C3_6 C 0.1374(2) 0.7368(3) 0.91022(10)
H1_6 H 0.0901 0.6998 0.8967
C4_6 C 0.19124(16) 0.80874(34) 0.89117(16)
C5_6 C 0.17361(18) 0.82641(44) 0.84957(16)
C6_6 C 0.22546(15) 0.77456(34) 0.96956(14)
H2_6 H 0.2365 0.7635 0.9960
C7_6 C 0.35957(27) 0.90417(34) 0.96967(10)
C10_6 C 0.28031(28) 0.84591(34) 0.94974(10)
C11_6 C 0.05302(28) 0.82076(34) 0.71693(10)
C12_6 C 0.17924(19) 0.94698(28) 0.71693(10)
C13_6 C 0.2632(3) 0.8626(4) 0.91022(10)
C14_6 C 0.0701(3) 0.8041(4) 0.75645(10)
C15_6 C 0.1959(2) 0.9299(3) 0.75645(10)
H3_6 H 0.3002 0.9099 0.8967
H4_6 H 0.2432 0.9669 0.7700
H5_6 H 0.0331 0.7568 0.7700
C16_6 C 0.14207(34) 0.85791(45) 0.77550(16)
C17_6 C 0.15974(44) 0.84028(59) 0.81710(16)
C18_6 C 0.10789(34) 0.89213(45) 0.69711(14)
H6_6 H 0.0968 0.9032 0.6707
C8_6 C 0.97376(27) 0.76250(34) 0.69700(10)
O5_6 O 0.92557(21) 0.70289(26) 0.71710(7)
O12_6 O 0.96305(20) 0.78041(24) 0.66116(7)
C8_7 C 0.69290(27) 0.1221(2) 0.63634(10)
C9_7 C 0.42916(18) 0.1221(2) 0.63634(10)
C11_7 C 0.61364(28) 0.1011(2) 0.61641(10)
C12_7 C 0.48742(19) 0.1011(2) 0.61641(10)
C14_7 C 0.5965(3) 0.0673(2) 0.57689(10)
C15_7 C 0.4707(2) 0.0673(2) 0.57689(10)
H4_7 H 0.4234 0.0570 0.5634
H5_7 H 0.6335 0.0570 0.5634
C16_7 C 0.52459(34) 0.0492(3) 0.55784(16)
C17_7 C 0.50692(44) 0.0139(4) 0.51624(16)
C18_7 C 0.55877(34) 0.1176(3) 0.63623(14)
H6_7 H 0.5698 0.1397 0.6627
O5_7 O 0.74109(21) 0.11065(16) 0.61624(7)
O6_7 O 0.36955(14) 0.11065(16) 0.61624(7)
O12_7 O 0.70361(20) 0.15069(14) 0.67218(7)
O13_7 O 0.44707(14) 0.15069(14) 0.67218(7)
C1_7 C 0.57084(18) 0.8779(2) 0.36366(10)
C2_7 C 0.51258(19) 0.8989(2) 0.38359(10)
C3_7 C 0.5293(2) 0.9327(2) 0.42311(10)
H1_7 H 0.5766 0.9430 0.4366
C4_7 C 0.47543(16) 0.9508(3) 0.44216(16)
C5_7 C 0.49306(18) 0.9861(4) 0.48376(16)
C6_7 C 0.44121(15) 0.8824(3) 0.36377(14)
H2_7 H 0.4302 0.8603 0.3373
O1_4 O 0.63045(14) 0.88935(16) 0.38376(7)
O2_3 O 0.55293(14) 0.84931(14) 0.32782(7)
O3_3 O 0.5583(2) 0.77911(11) 0.24187(10)
C7_7 C 0.30710(27) 0.8779(2) 0.36366(10)
C10_7 C 0.38636(28) 0.8989(2) 0.38359(10)
C13_7 C 0.4035(3) 0.9327(2) 0.42311(10)
H3_7 H 0.3665 0.9430 0.4366
O4_4 O 0.25891(21) 0.88935(16) 0.38376(7)
O11_5 O 0.29639(20) 0.84931(14) 0.32782(7)
O14_3 O 0.55293(14) 0.70361(20) 0.32782(7)
O15_5 O 0.15069(14) 0.70361(20) 0.32782(7)
O16_5 O 0.22085(23) 0.77911(11) 0.24187(10)
C1_8 C 0.1221(2) 0.69290(27) 0.36366(10)
C2_8 C 0.1011(2) 0.61364(28) 0.38359(10)
C3_8 C 0.0673(2) 0.5965(3) 0.42311(10)
H1_8 H 0.0570 0.6335 0.4366
C4_8 C 0.0492(3) 0.52459(34) 0.44216(16)
C5_8 C 0.0139(4) 0.50692(44) 0.48376(16)
C6_8 C 0.1176(3) 0.55877(34) 0.36377(14)
H2_8 H 0.1397 0.5698 0.3373
O1_5 O 0.11065(16) 0.74109(21) 0.38376(7)
C7_8 C 0.1221(2) 0.42916(34) 0.36366(10)
C10_8 C 0.1011(2) 0.48742(34) 0.38359(10)
C13_8 C 0.0673(2) 0.4707(4) 0.42311(10)
H3_8 H 0.0570 0.4234 0.4366
O4_5 O 0.11065(16) 0.36955(26) 0.38376(7)
O11_6 O 0.15069(14) 0.44707(24) 0.32782(7)
O15_6 O 0.29639(20) 0.44707(24) 0.32782(7)
O16_6 O 0.22089(11) 0.44173(25) 0.24187(10)
C8_8 C 0.8779(2) 0.57084(34) 0.63634(10)
C9_8 C 0.8779(2) 0.30710(27) 0.63634(10)
C11_8 C 0.8989(2) 0.51258(34) 0.61641(10)
C12_8 C 0.8989(2) 0.38636(28) 0.61641(10)
C14_8 C 0.9327(2) 0.5293(4) 0.57689(10)
C15_8 C 0.9327(2) 0.4035(3) 0.57689(10)
H4_8 H 0.9430 0.3665 0.5634
H5_8 H 0.9430 0.5766 0.5634
C16_8 C 0.9508(3) 0.47543(45) 0.55784(16)
C17_8 C 0.9861(4) 0.49306(59) 0.51624(16)
C18_8 C 0.8824(3) 0.44121(45) 0.63623(14)
H6_8 H 0.8603 0.4302 0.6627
O5_8 O 0.88935(16) 0.63045(26) 0.61624(7)
O6_8 O 0.88935(16) 0.25891(21) 0.61624(7)
O12_8 O 0.84931(14) 0.55293(24) 0.67218(7)
O13_8 O 0.84931(14) 0.29639(20) 0.67218(7)
C1_9 C 0.30710(27) 0.42916(18) 0.36366(10)
C2_9 C 0.38636(28) 0.48742(19) 0.38359(10)
C3_9 C 0.4035(3) 0.4707(2) 0.42311(10)
H1_9 H 0.3665 0.4234 0.4366
C4_9 C 0.47541(34) 0.52457(16) 0.44216(16)
C5_9 C 0.49308(44) 0.50694(18) 0.48376(16)
C6_9 C 0.44123(34) 0.55879(15) 0.36377(14)
H2_9 H 0.4302 0.5698 0.3373
O1_6 O 0.25891(21) 0.36955(14) 0.38376(7)
C7_9 C 0.57084(34) 0.69290(27) 0.36366(10)
C8_9 C 0.42916(34) 0.30710(27) 0.63634(10)
C9_9 C 0.69290(27) 0.57084(18) 0.63634(10)
C10_9 C 0.51258(34) 0.61364(28) 0.38359(10)
C11_9 C 0.48742(34) 0.38636(28) 0.61641(10)
C12_9 C 0.61364(28) 0.51258(19) 0.61641(10)
C13_9 C 0.5293(4) 0.5965(3) 0.42311(10)
C14_9 C 0.4707(4) 0.4035(3) 0.57689(10)
C15_9 C 0.5965(3) 0.5293(2) 0.57689(10)
H3_9 H 0.5766 0.6335 0.4366
H4_9 H 0.6335 0.5766 0.5634
H5_9 H 0.4234 0.3665 0.5634
C16_9 C 0.52457(45) 0.47541(34) 0.55784(16)
C17_9 C 0.50694(59) 0.49308(44) 0.51624(16)
C18_9 C 0.55879(45) 0.44123(34) 0.63623(14)
H6_9 H 0.5698 0.4302 0.6627
O4_6 O 0.63045(26) 0.74109(21) 0.38376(7)
O5_9 O 0.36955(26) 0.25891(21) 0.61624(7)
O6_9 O 0.74109(21) 0.63045(14) 0.61624(7)
O12_9 O 0.44707(24) 0.29639(20) 0.67218(7)
O13_9 O 0.70361(20) 0.55293(14) 0.67218(7)
O3_4 O 0.11245(11) 0.2249(2) 0.42479(10)
O16_7 O 0.11245(11) 0.88751(23) 0.42479(10)
O16_8 O 0.77507(25) 0.88755(11) 0.42479(10)
O3_5 O 0.2249(2) 0.11245(11) 0.57521(10)
O16_9 O 0.88751(23) 0.11245(11) 0.57521(10)
O16_10 O 0.88755(11) 0.77507(25) 0.57521(10)
O3_6 O 0.77911(11) 0.5583(2) 0.75813(10)
O16_11 O 0.77911(11) 0.22085(23) 0.75813(10)
O16_12 O 0.44173(25) 0.22089(11) 0.75813(10)
loop_
_geom_bond_atom_site_label_1
_geom_bond_atom_site_label_2
_geom_bond_site_symmetry_1
_geom_bond_site_symmetry_2
Zn5 O5 1_555 1_555
Zn6 O12 1_555 1_555
O5 C8 1_555 1_555
O12 C8 1_555 1_555
C1 C2 1_555 1_555
C2 C3 1_555 1_555
C3 H1 1_555 1_555
C4 C3 1_555 1_555
C5 C4 1_555 1_555
C6 C2 1_555 1_555
H2 C6 1_555 1_555
O1 C1 1_555 1_555
Zn4 O4 1_555 1_555
Zn7 O6 1_555 1_555
Zn8 O13 1_555 1_555
C7 C10 1_555 1_555
C9 C12 1_555 1_555
C10 C6 1_555 1_555
C11 C14 1_555 1_555
C12 C15 1_555 1_555
C13 C4 1_555 1_555
C14 H5 1_555 1_555
C15 H4 1_555 1_555
H3 C13 1_555 1_555
C16 C14 1_555 1_555
C17 C5 1_555 1_555
C18 C11 1_555 1_555
H6 C18 1_555 1_555
O4 C7 1_555 1_555
O6 C9 1_555 1_555
O13 C9 1_555 1_555
C10 C13 1_555 1_555
C12 C18 1_555 1_555
C15 C16 1_555 1_555
C16 C17 1_555 1_555
Zn1 O2 1_555 1_555
O3 Zn1 1_555 1_555
Zn2 O9 1_555 1_555
O10 Zn2 1_555 1_555
O11 Zn2 1_555 1_555
O14 Zn1 1_555 1_555
O15 Zn2 1_555 1_555
O16 Zn2 1_555 1_555
C1_2 C2_2 1_555 1_555
C2_2 C3_2 1_555 1_555
C3_2 H1_2 1_555 1_555
C4_2 C3_2 1_555 1_555
C5_2 C4_2 1_555 1_555
C6_2 C2_2 1_555 1_555
H2_2 C6_2 1_555 1_555
O1_2 C1_2 1_555 1_555
Zn4 O1_2 1_555 1_555
Zn5_2 O5_2 1_555 1_555
Zn6_2 O12_2 1_555 1_555
C7_2 C10_2 1_555 1_555
C8_2 C11_2 1_555 1_555
C10_2 C6_2 1_555 1_555
C11_2 C14_2 1_555 1_555
C12_2 C15_2 1_555 1_555
C13_2 C4_2 1_555 1_555
C14_2 H5_2 1_555 1_555
C15_2 H4_2 1_555 1_555
H3_2 C13_2 1_555 1_555
C16_2 C14_2 1_555 1_555
C17_2 C5_2 1_555 1_555
C18_2 C11_2 1_555 1_555
H6_2 C18_2 1_555 1_555
O4_2 C7_2 1_555 1_555
O5_2 C8_2 1_555 1_555
O12_2 C8_2 1_555 1_555
C10_2 C13_2 1_555 1_555
C12_2 C18_2 1_555 1_555
C15_2 C16_2 1_555 1_555
C16_2 C17_2 1_555 1_555
O11_2 Zn2_2 1_555 1_555
O15_2 Zn2_2 1_555 1_555
O16_2 Zn2_2 1_555 1_555
Zn5 O6_2 1_555 1_555
Zn6 O13_2 1_555 1_555
O6_2 C9_2 1_555 1_555
O13_2 C9_2 1_555 1_555
Zn5_2 O6_3 1_555 1_555
Zn6_2 O13_3 1_555 1_555
O6_3 C9_3 1_555 1_555
O13_3 C9_3 1_555 1_555
C1_3 C2_3 1_555 1_555
C2_3 C3_3 1_555 1_555
C3_3 H1_3 1_555 1_555
C4_3 C3_3 1_555 1_555
C5_3 C4_3 1_555 1_555
C6_3 C2_3 1_555 1_555
H2_3 C6_3 1_555 1_555
O1_3 C1_3 1_555 1_555
C7_3 C10_3 1_555 1_555
C10_3 C6_3 1_555 1_555
C11_3 C14_3 1_555 1_555
C12_3 C15_3 1_555 1_555
C13_3 C4_3 1_555 1_555
C14_3 H5_3 1_555 1_555
C15_3 H4_3 1_555 1_555
H3_3 C13_3 1_555 1_555
C16_3 C14_3 1_555 1_555
C17_3 C5_3 1_555 1_555
C18_3 C11_3 1_555 1_555
H6_3 C18_3 1_555 1_555
O4_3 C7_3 1_555 1_555
C10_3 C13_3 1_555 1_555
C12_3 C18_3 1_555 1_555
C15_3 C16_3 1_555 1_555
C16_3 C17_3 1_555 1_555
Zn7 O5_3 1_555 1_555
Zn8 O12_3 1_555 1_555
O5_3 C8_3 1_555 1_555
O12_3 C8_3 1_555 1_555
Zn5_3 O5_4 1_555 1_555
Zn6_3 O12_4 1_555 1_555
O5_4 C8_4 1_555 1_555
O12_4 C8_4 1_555 1_555
Zn4_2 O2_2 1_555 1_555
O3_2 Zn4_2 1_555 1_555
O11_3 Zn4 1_555 1_555
O14_2 Zn4_2 1_555 1_555
O15_3 Zn4 1_555 1_555
O16_3 Zn4 1_555 1_555
C1_4 C2_4 1_555 1_555
C2_4 C3_4 1_555 1_555
C3_4 H1_4 1_555 1_555
C4_4 C3_4 1_555 1_555
C5_4 C4_4 1_555 1_555
C6_4 C2_4 1_555 1_555
H2_4 C6_4 1_555 1_555
O9_2 C1_4 1_555 1_555
Zn7_2 O6_4 1_555 1_555
Zn8_2 O13_4 1_555 1_555
C7_4 C10_4 1_555 1_555
C9_4 C12_4 1_555 1_555
C10_4 C6_4 1_555 1_555
C11_4 C14_4 1_555 1_555
C12_4 C15_4 1_555 1_555
C13_4 C4_4 1_555 1_555
C14_4 H5_4 1_555 1_555
C15_4 H4_4 1_555 1_555
H3_4 C13_4 1_555 1_555
C16_4 C14_4 1_555 1_555
C17_4 C5_4 1_555 1_555
C18_4 C11_4 1_555 1_555
H6_4 C18_4 1_555 1_555
O10 C7_4 1_555 1_555
O6_4 C9_4 1_555 1_555
O13_4 C9_4 1_555 1_555
C10_4 C13_4 1_555 1_555
C12_4 C18_4 1_555 1_555
C15_4 C16_4 1_555 1_555
C16_4 C17_4 1_555 1_555
O11_4 Zn3 1_555 1_555
O15_4 Zn3 1_555 1_555
O16_4 Zn3 1_555 1_555
C1_5 C2_5 1_555 1_555
C2_5 C3_5 1_555 1_555
C3_5 H1_5 1_555 1_555
C4_5 C3_5 1_555 1_555
C5_5 C4_5 1_555 1_555
C6_5 C2_5 1_555 1_555
H2_5 C6_5 1_555 1_555
O9 C1_5 1_555 1_555
Zn5_4 O5_5 1_555 1_555
Zn6_4 O12_5 1_555 1_555
C7_5 C10_5 1_555 1_555
C8_5 C11_5 1_555 1_555
C10_5 C6_5 1_555 1_555
C11_5 C14_5 1_555 1_555
C12_5 C15_5 1_555 1_555
C13_5 C4_5 1_555 1_555
C14_5 H5_5 1_555 1_555
C15_5 H4_5 1_555 1_555
H3_5 C13_5 1_555 1_555
C16_5 C14_5 1_555 1_555
C17_5 C5_5 1_555 1_555
C18_5 C11_5 1_555 1_555
H6_5 C18_5 1_555 1_555
O7 C7_5 1_555 1_555
O5_5 C8_5 1_555 1_555
O12_5 C8_5 1_555 1_555
C10_5 C13_5 1_555 1_555
C12_5 C18_5 1_555 1_555
C15_5 C16_5 1_555 1_555
C16_5 C17_5 1_555 1_555
Zn5_3 O6_5 1_555 1_555
Zn6_3 O13_5 1_555 1_555
O6_5 C9_5 1_555 1_555
O13_5 C9_5 1_555 1_555
Zn5_4 O6_6 1_555 1_555
Zn6_4 O13_6 1_555 1_555
O6_6 C9_6 1_555 1_555
O13_6 C9_6 1_555 1_555
C1_6 C2_6 1_555 1_555
C2_6 C3_6 1_555 1_555
C3_6 H1_6 1_555 1_555
C4_6 C3_6 1_555 1_555
C5_6 C4_6 1_555 1_555
C6_6 C2_6 1_555 1_555
H2_6 C6_6 1_555 1_555
O8 C1_6 1_555 1_555
C7_6 C10_6 1_555 1_555
C10_6 C6_6 1_555 1_555
C11_6 C14_6 1_555 1_555
C12_6 C15_6 1_555 1_555
C13_6 C4_6 1_555 1_555
C14_6 H5_6 1_555 1_555
C15_6 H4_6 1_555 1_555
H3_6 C13_6 1_555 1_555
C16_6 C14_6 1_555 1_555
C17_6 C5_6 1_555 1_555
C18_6 C11_6 1_555 1_555
H6_6 C18_6 1_555 1_555
O10_2 C7_6 1_555 1_555
C10_6 C13_6 1_555 1_555
C12_6 C18_6 1_555 1_555
C15_6 C16_6 1_555 1_555
C16_6 C17_6 1_555 1_555
Zn7_2 O5_6 1_555 1_555
Zn8_2 O12_6 1_555 1_555
O5_6 C8_6 1_555 1_555
O12_6 C8_6 1_555 1_555
Zn6_3 O5_7 1_555 1_555
Zn5_3 O12_7 1_555 1_555
Zn6_4 O6_7 1_555 1_555
Zn5_4 O13_7 1_555 1_555
C8_7 C11_7 1_555 1_555
C9_7 C12_7 1_555 1_555
C11_7 C14_7 1_555 1_555
C12_7 C15_7 1_555 1_555
C14_7 H5_7 1_555 1_555
C15_7 H4_7 1_555 1_555
C16_7 C14_7 1_555 1_555
C18_7 C11_7 1_555 1_555
H6_7 C18_7 1_555 1_555
O5_7 C8_7 1_555 1_555
O6_7 C9_7 1_555 1_555
O12_7 C8_7 1_555 1_555
O13_7 C9_7 1_555 1_555
C12_7 C18_7 1_555 1_555
C15_7 C16_7 1_555 1_555
C16_7 C17_7 1_555 1_555
Zn7 O2_3 1_555 1_555
C1_7 C2_7 1_555 1_555
C2_7 C3_7 1_555 1_555
C3_7 H1_7 1_555 1_555
C4_7 C3_7 1_555 1_555
C5_7 C4_7 1_555 1_555
C6_7 C2_7 1_555 1_555
H2_7 C6_7 1_555 1_555
O1_4 C1_7 1_555 1_555
O2_3 C1_7 1_555 1_555
O3_3 Zn7 1_555 1_555
Zn8 O1_4 1_555 1_555
Zn6 O4_4 1_555 1_555
C7_7 C10_7 1_555 1_555
C10_7 C6_7 1_555 1_555
C13_7 C4_7 1_555 1_555
H3_7 C13_7 1_555 1_555
O4_4 C7_7 1_555 1_555
O11_5 Zn5 1_555 1_555
O14_3 Zn7 1_555 1_555
O15_5 Zn5 1_555 1_555
O16_5 Zn5 1_555 1_555
C7_7 O11_5 1_555 1_555
C10_7 C13_7 1_555 1_555
C1_8 C2_8 1_555 1_555
C2_8 C3_8 1_555 1_555
C3_8 H1_8 1_555 1_555
C4_8 C3_8 1_555 1_555
C5_8 C4_8 1_555 1_555
C6_8 C2_8 1_555 1_555
H2_8 C6_8 1_555 1_555
O1_5 C1_8 1_555 1_555
O15_5 C1_8 1_555 1_555
Zn6 O1_5 1_555 1_555
Zn6_2 O4_5 1_555 1_555
C7_8 C10_8 1_555 1_555
C10_8 C6_8 1_555 1_555
C13_8 C4_8 1_555 1_555
H3_8 C13_8 1_555 1_555
O4_5 C7_8 1_555 1_555
O11_6 Zn5_2 1_555 1_555
O15_6 Zn5_2 1_555 1_555
O16_6 Zn5_2 1_555 1_555
C7_8 O11_6 1_555 1_555
C10_8 C13_8 1_555 1_555
Zn8_2 O5_8 1_555 1_555
Zn7_2 O12_8 1_555 1_555
Zn6_3 O6_8 1_555 1_555
Zn5_3 O13_8 1_555 1_555
C8_8 C11_8 1_555 1_555
C9_8 C12_8 1_555 1_555
C11_8 C14_8 1_555 1_555
C12_8 C15_8 1_555 1_555
C14_8 H5_8 1_555 1_555
C15_8 H4_8 1_555 1_555
C16_8 C14_8 1_555 1_555
C18_8 C11_8 1_555 1_555
H6_8 C18_8 1_555 1_555
O5_8 C8_8 1_555 1_555
O6_8 C9_8 1_555 1_555
O12_8 C8_8 1_555 1_555
O13_8 C9_8 1_555 1_555
C12_8 C18_8 1_555 1_555
C15_8 C16_8 1_555 1_555
C16_8 C17_8 1_555 1_555
C1_9 C2_9 1_555 1_555
C2_9 C3_9 1_555 1_555
C3_9 H1_9 1_555 1_555
C4_9 C3_9 1_555 1_555
C5_9 C4_9 1_555 1_555
C6_9 C2_9 1_555 1_555
H2_9 C6_9 1_555 1_555
O1_6 C1_9 1_555 1_555
O15_6 C1_9 1_555 1_555
Zn6_2 O1_6 1_555 1_555
Zn8 O4_6 1_555 1_555
Zn6_4 O5_9 1_555 1_555
Zn5_4 O12_9 1_555 1_555
Zn8_2 O6_9 1_555 1_555
Zn7_2 O13_9 1_555 1_555
C7_9 C10_9 1_555 1_555
C8_9 C11_9 1_555 1_555
C9_9 C12_9 1_555 1_555
C10_9 C6_9 1_555 1_555
C11_9 C14_9 1_555 1_555
C12_9 C15_9 1_555 1_555
C13_9 C4_9 1_555 1_555
C14_9 H5_9 1_555 1_555
C15_9 H4_9 1_555 1_555
H3_9 C13_9 1_555 1_555
C16_9 C14_9 1_555 1_555
C17_9 C5_9 1_555 1_555
C18_9 C11_9 1_555 1_555
H6_9 C18_9 1_555 1_555
O4_6 C7_9 1_555 1_555
O5_9 C8_9 1_555 1_555
O6_9 C9_9 1_555 1_555
O12_9 C8_9 1_555 1_555
O13_9 C9_9 1_555 1_555
C7_9 O14_3 1_555 1_555
C10_9 C13_9 1_555 1_555
C12_9 C18_9 1_555 1_555
C15_9 C16_9 1_555 1_555
C16_9 C17_9 1_555 1_555
O3_4 Zn6_2 1_555 1_555
O16_7 Zn6 1_555 1_555
O16_8 Zn8 1_555 1_555
O3_5 Zn6_4 1_555 1_555
O16_9 Zn6_3 1_555 1_555
O16_10 Zn8_2 1_555 1_555
O3_6 Zn7_2 1_555 1_555
O16_11 Zn5_3 1_555 1_555
O16_12 Zn5_4 1_555 1_555

#END
