
###############################################################################
#
# This file contains modified crystal structure data generated from the
# MOF subset of the Cambridge Structural Database (CSD) v543 
# hosted by the Cambridge Crystallographic Data Centre (CCDC).
#
# This work is licensed under the Creative Commons
# Attribution-NonCommercial-ShareAlike 4.0 International License.
# To view a copy of this license, visit
# http://creativecommons.org/licenses/by-nc-sa/4.0/
# or send a letter to
# Creative Commons, PO Box 1866, Mountain View, CA 94042, USA.
#
# CIF created using the CSD Python API on 29 September 2022
# The structure has been converted into the P1 space group
# The structure has a 3D framework
# The original CSD entry KEFBII is in the tetragonal crystal system
# The framework has been calculated to contain at least 10.0% void space
# The void calculation uses a probe of radius 1.32A, grid spacing 0.4
# H atom positions have been added when not included in the experimental data
# Generated hydrogen atom positions removed from atoms on special positions
#
###############################################################################

data_KEFBII
_chemical_formula_moiety         '(C144 H112 O76 Zn16)n'
_symmetry_cell_setting           triclinic
_symmetry_space_group_name_H-M   'P 1'
_symmetry_Int_Tables_number      1
_space_group_name_Hall           'P 1'
loop_
_symmetry_equiv_pos_site_id
_symmetry_equiv_pos_as_xyz
1 x,y,z
_cell_length_a                   17.2089(12)
_cell_length_b                   17.2089(12)
_cell_length_c                   28.523(4)
_cell_angle_alpha                90
_cell_angle_beta                 90
_cell_angle_gamma                90
_cell_volume                     8446.98
loop_
_atom_site_label
_atom_site_type_symbol
_atom_site_fract_x
_atom_site_fract_y
_atom_site_fract_z
Zn1 Zn 0.16369(3) 0.2500 0.2500
C2 C 0.32022(17) 0.04158(17) 0.35907(11)
H1 H 0.3623 0.0466 0.3377
C3 C 0.25563(18) 0.08925(18) 0.35337(11)
C4 C 0.19003(19) 0.08299(18) 0.38325(11)
H2 H 0.1433 0.1137 0.3778
C5 C 0.19281(17) 0.02917(18) 0.41976(11)
C7 C 0.2548(2) 0.1472(2) 0.31474(13)
C8 C 0.12320(18) 0.02358(18) 0.45146(11)
O1 O 0.19084(12) 0.18011(11) 0.30550(7)
O2 O 0.31786(12) 0.15854(12) 0.29274(7)
O3 O 0.06116(11) 0.05486(12) 0.43827(8)
O5 O 0.0491(2) 0.2500 0.2500
Zn3 Zn 0.33631(3) 0.2500 0.2500
O8 O 0.19084(12) 0.31989(11) 0.19450(7)
O10 O 0.18214(12) 0.34146(12) 0.29274(7)
O11 O 0.18214(12) 0.15854(12) 0.20726(7)
C1 C 0.32166(18) 0.98499(18) 0.39600(12)
C6 C 0.25739(18) 0.98047(19) 0.42710(11)
H3 H 0.2581 0.9454 0.4536
C9 C 0.38317(19) 0.93236(18) 0.39967(12)
O4 O 0.13232(12) 0.98377(13) 0.48835(8)
Zn4 Zn 0.7500 0.66369(3) 0.2500
Zn5 Zn 0.7500 0.83631(3) 0.2500
Zn6 Zn 0.046610(17) 0.953390(17) 0.533999(16)
Zn7 Zn 0.546610(17) 0.453390(17) 0.466001(16)
Zn8 Zn 0.453390(17) 0.546610(17) 0.533999(16)
C10 C 0.48499(18) 0.82166(18) 0.39600(12)
C11 C 0.54158(17) 0.82022(17) 0.35907(11)
H4 H 0.5466 0.8623 0.3377
C12 C 0.58925(18) 0.75563(18) 0.35337(11)
C13 C 0.58299(18) 0.69003(19) 0.38325(11)
H5 H 0.6137 0.6433 0.3778
C14 C 0.52917(18) 0.69281(17) 0.41976(11)
C15 C 0.48047(19) 0.75739(18) 0.42710(11)
H6 H 0.4454 0.7581 0.4536
C16 C 0.6472(2) 0.7548(2) 0.31474(13)
C17 C 0.52358(18) 0.62320(18) 0.45146(11)
C18 C 0.43236(18) 0.88317(19) 0.39967(12)
O7 O 0.68011(11) 0.69084(12) 0.30550(7)
O9 O 0.65854(12) 0.81786(12) 0.29274(7)
O12 O 0.55486(12) 0.56116(11) 0.43827(8)
O14 O 0.48377(13) 0.63232(12) 0.48835(8)
Zn2 Zn 0.953390(17) 0.046610(17) 0.466001(16)
O6 O 0.89265(13) 0.10735(13) 0.41917(12)
O15 O 0.98377(13) 0.13232(12) 0.51165(8)
O16 O 0.86768(12) 0.01623(13) 0.51165(8)
O13 O 0.94514(12) 0.93884(11) 0.43827(8)
C1_2 C 0.17834(18) 0.51501(18) 0.39600(12)
C2_2 C 0.17978(17) 0.45842(17) 0.35907(11)
H1_2 H 0.1377 0.4534 0.3377
C3_2 C 0.24437(18) 0.41075(18) 0.35337(11)
C4_2 C 0.30997(19) 0.41701(18) 0.38325(11)
H2_2 H 0.3567 0.3863 0.3778
C5_2 C 0.30719(17) 0.47083(18) 0.41976(11)
C6_2 C 0.24261(18) 0.51953(19) 0.42710(11)
H3_2 H 0.2419 0.5546 0.4536
C7_2 C 0.2452(2) 0.3528(2) 0.31474(13)
C8_2 C 0.37680(18) 0.47642(18) 0.45146(11)
C9_2 C 0.11683(19) 0.56764(18) 0.39967(12)
O1_2 O 0.30916(12) 0.31989(11) 0.30550(7)
O3_2 O 0.43884(11) 0.44514(12) 0.43827(8)
O4_2 O 0.36768(12) 0.51623(13) 0.48835(8)
O5_2 O 0.4509(2) 0.2500 0.2500
O6_2 O 0.60735(13) 0.39265(13) 0.41917(12)
C10_2 C 0.01501(18) 0.67834(18) 0.39600(12)
C15_2 C 0.01953(19) 0.74261(18) 0.42710(11)
H6_2 H 0.0546 0.7419 0.4536
C18_2 C 0.06764(18) 0.61683(19) 0.39967(12)
O8_2 O 0.30916(12) 0.18011(11) 0.19450(7)
O11_2 O 0.31786(12) 0.34146(12) 0.20726(7)
O14_2 O 0.01623(13) 0.86768(12) 0.48835(8)
O15_2 O 0.51623(13) 0.36768(12) 0.51165(8)
O16_2 O 0.63232(12) 0.48377(13) 0.51165(8)
C11_2 C 0.95842(17) 0.67978(17) 0.35907(11)
H4_2 H 0.9534 0.6377 0.3377
C12_2 C 0.91075(18) 0.74437(18) 0.35337(11)
C13_2 C 0.91701(18) 0.80997(19) 0.38325(11)
H5_2 H 0.8863 0.8567 0.3778
C14_2 C 0.97083(18) 0.80719(17) 0.41976(11)
C16_2 C 0.8528(2) 0.7452(2) 0.31474(13)
C17_2 C 0.97642(18) 0.87680(18) 0.45146(11)
O7_2 O 0.81989(11) 0.80916(12) 0.30550(7)
O9_2 O 0.84146(12) 0.68214(12) 0.29274(7)
Zn7_2 Zn 0.046610(17) 0.546610(17) 0.966001(16)
Zn6_2 Zn 0.546610(17) 0.046610(17) 0.033999(16)
Zn8_2 Zn 0.953390(17) 0.453390(17) 0.033999(16)
Zn1_2 Zn 0.2500 0.16369(3) 0.7500
C1_3 C 0.51501(18) 0.32166(18) 0.89600(12)
C2_3 C 0.45842(17) 0.32022(17) 0.85907(11)
H1_3 H 0.4534 0.3623 0.8377
C3_3 C 0.41075(18) 0.25563(18) 0.85337(11)
C4_3 C 0.41701(18) 0.19003(19) 0.88325(11)
H2_3 H 0.3863 0.1433 0.8778
C5_3 C 0.47083(18) 0.19281(17) 0.91976(11)
C6_3 C 0.51953(19) 0.25739(18) 0.92710(11)
H3_3 H 0.5546 0.2581 0.9536
C7_3 C 0.3528(2) 0.2548(2) 0.81474(13)
C8_3 C 0.47642(18) 0.12320(18) 0.95146(11)
C9_3 C 0.56764(18) 0.38317(19) 0.89967(12)
O1_3 O 0.31989(11) 0.19084(12) 0.80550(7)
O2_2 O 0.34146(12) 0.31786(12) 0.79274(7)
O3_3 O 0.44514(12) 0.06116(11) 0.93827(8)
O4_3 O 0.51623(13) 0.13232(12) 0.98835(8)
O5_3 O 0.2500 0.0491(2) 0.7500
Zn3_2 Zn 0.2500 0.33631(3) 0.7500
Zn4_2 Zn 0.83631(3) 0.7500 0.7500
Zn5_2 Zn 0.66369(3) 0.7500 0.7500
C10_3 C 0.67834(18) 0.48499(18) 0.89600(12)
C11_3 C 0.67978(17) 0.54158(17) 0.85907(11)
H4_3 H 0.6377 0.5466 0.8377
C12_3 C 0.74437(18) 0.58925(18) 0.85337(11)
C13_3 C 0.80997(19) 0.58299(18) 0.88325(11)
H5_3 H 0.8567 0.6137 0.8778
C14_3 C 0.80719(17) 0.52917(18) 0.91976(11)
C15_3 C 0.74261(18) 0.48047(19) 0.92710(11)
H6_3 H 0.7419 0.4454 0.9536
C16_3 C 0.7452(2) 0.6472(2) 0.81474(13)
C17_3 C 0.87680(18) 0.52358(18) 0.95146(11)
C18_3 C 0.61683(19) 0.43236(18) 0.89967(12)
O7_3 O 0.80916(12) 0.68011(11) 0.80550(7)
O8_3 O 0.18011(11) 0.19084(12) 0.69450(7)
O9_3 O 0.68214(12) 0.65854(12) 0.79274(7)
O10_2 O 0.15854(12) 0.18214(12) 0.79274(7)
O11_3 O 0.34146(12) 0.18214(12) 0.70726(7)
O12_2 O 0.93884(11) 0.55486(12) 0.93827(8)
O14_3 O 0.86768(12) 0.48377(13) 0.98835(8)
O15_3 O 0.36768(12) 0.98377(13) 0.01165(8)
O16_3 O 0.48377(13) 0.86768(12) 0.01165(8)
Zn2_2 Zn 0.453390(17) 0.953390(17) 0.966001(16)
O6_3 O 0.39265(13) 0.89265(13) 0.91917(12)
O13_2 O 0.56116(11) 0.94514(12) 0.93827(8)
O15_4 O 0.13232(12) 0.51623(13) 0.01165(8)
O16_4 O 0.01623(13) 0.63232(12) 0.01165(8)
C2_4 C 0.04158(17) 0.17978(17) 0.85907(11)
H1_4 H 0.0466 0.1377 0.8377
C3_4 C 0.08925(18) 0.24437(18) 0.85337(11)
C4_4 C 0.08299(18) 0.30997(19) 0.88325(11)
H2_4 H 0.1137 0.3567 0.8778
C5_4 C 0.02917(18) 0.30719(17) 0.91976(11)
C7_4 C 0.1472(2) 0.2452(2) 0.81474(13)
C8_4 C 0.02358(18) 0.37680(18) 0.95146(11)
O1_4 O 0.18011(11) 0.30916(12) 0.80550(7)
O3_4 O 0.05486(12) 0.43884(11) 0.93827(8)
O5_4 O 0.2500 0.4509(2) 0.7500
O6_4 O 0.10735(13) 0.60735(13) 0.91917(12)
O8_4 O 0.31989(11) 0.30916(12) 0.69450(7)
O11_4 O 0.15854(12) 0.31786(12) 0.70726(7)
C1_4 C 0.98499(18) 0.17834(18) 0.89600(12)
C6_4 C 0.98047(19) 0.24261(18) 0.92710(11)
H3_4 H 0.9454 0.2419 0.9536
C9_4 C 0.93236(18) 0.11683(19) 0.89967(12)
O4_4 O 0.98377(13) 0.36768(12) 0.98835(8)
C10_4 C 0.82166(18) 0.01501(18) 0.89600(12)
C15_4 C 0.75739(18) 0.01953(19) 0.92710(11)
H6_4 H 0.7581 0.0546 0.9536
C18_4 C 0.88317(19) 0.06764(18) 0.89967(12)
O14_4 O 0.63232(12) 0.01623(13) 0.98835(8)
C11_4 C 0.82022(17) 0.95842(17) 0.85907(11)
H4_4 H 0.8623 0.9534 0.8377
C12_4 C 0.75563(18) 0.91075(18) 0.85337(11)
C13_4 C 0.69003(19) 0.91701(18) 0.88325(11)
H5_4 H 0.6433 0.8863 0.8778
C14_4 C 0.69281(17) 0.97083(18) 0.91976(11)
C16_4 C 0.7548(2) 0.8528(2) 0.81474(13)
C17_4 C 0.62320(18) 0.97642(18) 0.95146(11)
O7_4 O 0.69084(12) 0.81989(11) 0.80550(7)
O9_4 O 0.81786(12) 0.84146(12) 0.79274(7)
C2_5 C 0.17978(17) 0.04158(17) 0.14093(11)
H1_5 H 0.1377 0.0466 0.1623
C3_5 C 0.24437(18) 0.08925(18) 0.14663(11)
C4_5 C 0.30997(19) 0.08299(18) 0.11675(11)
H2_5 H 0.3567 0.1137 0.1222
C5_5 C 0.30719(17) 0.02917(18) 0.08024(11)
C7_5 C 0.2452(2) 0.1472(2) 0.18526(13)
C8_5 C 0.37680(18) 0.02358(18) 0.04854(11)
O3_5 O 0.43884(11) 0.05486(12) 0.06173(8)
O6_5 O 0.60735(13) 0.10735(13) 0.08083(12)
C1_5 C 0.17834(18) 0.98499(18) 0.10400(12)
C6_5 C 0.24261(18) 0.98047(19) 0.07290(11)
H3_5 H 0.2419 0.9454 0.0464
C9_5 C 0.11683(19) 0.93236(18) 0.10033(12)
C10_5 C 0.01501(18) 0.82166(18) 0.10400(12)
C15_5 C 0.01953(19) 0.75739(18) 0.07290(11)
H6_5 H 0.0546 0.7581 0.0464
C18_5 C 0.06764(18) 0.88317(19) 0.10033(12)
O13_3 O 0.55486(12) 0.93884(11) 0.06173(8)
C11_5 C 0.95842(17) 0.82022(17) 0.14093(11)
H4_5 H 0.9534 0.8623 0.1623
C12_5 C 0.91075(18) 0.75563(18) 0.14663(11)
C13_5 C 0.91701(18) 0.69003(19) 0.11675(11)
H5_5 H 0.8863 0.6433 0.1222
C14_5 C 0.97083(18) 0.69281(17) 0.08024(11)
C16_5 C 0.8528(2) 0.7548(2) 0.18526(13)
C17_5 C 0.97642(18) 0.62320(18) 0.04854(11)
O7_5 O 0.81989(11) 0.69084(12) 0.19450(7)
O9_5 O 0.84146(12) 0.81786(12) 0.20726(7)
O12_3 O 0.94514(12) 0.56116(11) 0.06173(8)
C1_6 C 0.32166(18) 0.51501(18) 0.10400(12)
C2_6 C 0.32022(17) 0.45842(17) 0.14093(11)
H1_6 H 0.3623 0.4534 0.1623
C3_6 C 0.25563(18) 0.41075(18) 0.14663(11)
C4_6 C 0.19003(19) 0.41701(18) 0.11675(11)
H2_6 H 0.1433 0.3863 0.1222
C5_6 C 0.19281(17) 0.47083(18) 0.08024(11)
C6_6 C 0.25739(18) 0.51953(19) 0.07290(11)
H3_6 H 0.2581 0.5546 0.0464
C7_6 C 0.2548(2) 0.3528(2) 0.18526(13)
C8_6 C 0.12320(18) 0.47642(18) 0.04854(11)
C9_6 C 0.38317(19) 0.56764(18) 0.10033(12)
O3_6 O 0.06116(11) 0.44514(12) 0.06173(8)
C10_6 C 0.48499(18) 0.67834(18) 0.10400(12)
C11_6 C 0.54158(17) 0.67978(17) 0.14093(11)
H4_6 H 0.5466 0.6377 0.1623
C12_6 C 0.58925(18) 0.74437(18) 0.14663(11)
C13_6 C 0.58299(18) 0.80997(19) 0.11675(11)
H5_6 H 0.6137 0.8567 0.1222
C14_6 C 0.52917(18) 0.80719(17) 0.08024(11)
C15_6 C 0.48047(19) 0.74261(18) 0.07290(11)
H6_6 H 0.4454 0.7419 0.0464
C16_6 C 0.6472(2) 0.7452(2) 0.18526(13)
C17_6 C 0.52358(18) 0.87680(18) 0.04854(11)
C18_6 C 0.43236(18) 0.61683(19) 0.10033(12)
O7_6 O 0.68011(11) 0.80916(12) 0.19450(7)
O9_6 O 0.65854(12) 0.68214(12) 0.20726(7)
O6_6 O 0.89265(13) 0.39265(13) 0.08083(12)
C2_7 C 0.04158(17) 0.32022(17) 0.64093(11)
H1_7 H 0.0466 0.3623 0.6623
C3_7 C 0.08925(18) 0.25563(18) 0.64663(11)
C4_7 C 0.08299(18) 0.19003(19) 0.61675(11)
H2_7 H 0.1137 0.1433 0.6222
C5_7 C 0.02917(18) 0.19281(17) 0.58024(11)
C7_7 C 0.1472(2) 0.2548(2) 0.68526(13)
C8_7 C 0.02358(18) 0.12320(18) 0.54854(11)
O3_7 O 0.05486(12) 0.06116(11) 0.56173(8)
O6_7 O 0.10735(13) 0.89265(13) 0.58083(12)
C1_7 C 0.98499(18) 0.32166(18) 0.60400(12)
C6_7 C 0.98047(19) 0.25739(18) 0.57290(11)
H3_7 H 0.9454 0.2581 0.5464
C9_7 C 0.93236(18) 0.38317(19) 0.60033(12)
C10_7 C 0.82166(18) 0.48499(18) 0.60400(12)
C11_7 C 0.82022(17) 0.54158(17) 0.64093(11)
H4_7 H 0.8623 0.5466 0.6623
C12_7 C 0.75563(18) 0.58925(18) 0.64663(11)
C13_7 C 0.69003(19) 0.58299(18) 0.61675(11)
H5_7 H 0.6433 0.6137 0.6222
C14_7 C 0.69281(17) 0.52917(18) 0.58024(11)
C15_7 C 0.75739(18) 0.48047(19) 0.57290(11)
H6_7 H 0.7581 0.4454 0.5464
C16_7 C 0.7548(2) 0.6472(2) 0.68526(13)
C17_7 C 0.62320(18) 0.52358(18) 0.54854(11)
C18_7 C 0.88317(19) 0.43236(18) 0.60033(12)
O7_7 O 0.69084(12) 0.68011(11) 0.69450(7)
O9_7 O 0.81786(12) 0.65854(12) 0.70726(7)
O12_4 O 0.56116(11) 0.55486(12) 0.56173(8)
O13_4 O 0.93884(11) 0.94514(12) 0.56173(8)
C1_8 C 0.51501(18) 0.17834(18) 0.60400(12)
C2_8 C 0.45842(17) 0.17978(17) 0.64093(11)
H1_8 H 0.4534 0.1377 0.6623
C3_8 C 0.41075(18) 0.24437(18) 0.64663(11)
C4_8 C 0.41701(18) 0.30997(19) 0.61675(11)
H2_8 H 0.3863 0.3567 0.6222
C5_8 C 0.47083(18) 0.30719(17) 0.58024(11)
C6_8 C 0.51953(19) 0.24261(18) 0.57290(11)
H3_8 H 0.5546 0.2419 0.5464
C7_8 C 0.3528(2) 0.2452(2) 0.68526(13)
C8_8 C 0.47642(18) 0.37680(18) 0.54854(11)
C9_8 C 0.56764(18) 0.11683(19) 0.60033(12)
O3_8 O 0.44514(12) 0.43884(11) 0.56173(8)
O6_8 O 0.39265(13) 0.60735(13) 0.58083(12)
C10_8 C 0.67834(18) 0.01501(18) 0.60400(12)
C15_8 C 0.74261(18) 0.01953(19) 0.57290(11)
H6_8 H 0.7419 0.0546 0.5464
C18_8 C 0.61683(19) 0.06764(18) 0.60033(12)
C11_8 C 0.67978(17) 0.95842(17) 0.64093(11)
H4_8 H 0.6377 0.9534 0.6623
C12_8 C 0.74437(18) 0.91075(18) 0.64663(11)
C13_8 C 0.80997(19) 0.91701(18) 0.61675(11)
H5_8 H 0.8567 0.8863 0.6222
C14_8 C 0.80719(17) 0.97083(18) 0.58024(11)
C16_8 C 0.7452(2) 0.8528(2) 0.68526(13)
C17_8 C 0.87680(18) 0.97642(18) 0.54854(11)
O7_8 O 0.80916(12) 0.81989(11) 0.69450(7)
O9_8 O 0.68214(12) 0.84146(12) 0.70726(7)
O5_5 O 0.9509(2) 0.7500 0.7500
O5_6 O 0.5491(2) 0.7500 0.7500
O5_7 O 0.7500 0.9509(2) 0.2500
O5_8 O 0.7500 0.5491(2) 0.2500
loop_
_geom_bond_atom_site_label_1
_geom_bond_atom_site_label_2
_geom_bond_site_symmetry_1
_geom_bond_site_symmetry_2
Zn1 O1 1_555 1_555
C2 H1 1_555 1_555
C3 C2 1_555 1_555
C4 C3 1_555 1_555
H2 C4 1_555 1_555
C5 C4 1_555 1_555
C7 C3 1_555 1_555
C8 C5 1_555 1_555
O1 C7 1_555 1_555
O2 C7 1_555 1_555
O3 C8 1_555 1_555
O5 Zn1 1_555 1_555
Zn3 O2 1_555 1_555
O8 Zn1 1_555 1_555
O10 Zn1 1_555 1_555
O11 Zn1 1_555 1_555
C6 C1 1_555 1_555
H3 C6 1_555 1_555
C9 C1 1_555 1_555
Zn4 O7 1_555 1_555
Zn5 O9 1_555 1_555
Zn6 O4 1_555 1_555
Zn7 O12 1_555 1_555
Zn8 O14 1_555 1_555
C10 C11 1_555 1_555
C11 H4 1_555 1_555
C12 C11 1_555 1_555
C13 C12 1_555 1_555
H5 C13 1_555 1_555
C14 C13 1_555 1_555
C15 C10 1_555 1_555
H6 C15 1_555 1_555
C16 C12 1_555 1_555
C17 C14 1_555 1_555
C18 C9 1_555 1_555
O7 C16 1_555 1_555
O9 C16 1_555 1_555
O12 C17 1_555 1_555
O14 C17 1_555 1_555
C10 C18 1_555 1_555
C14 C15 1_555 1_555
O6 Zn2 1_555 1_555
O15 Zn2 1_555 1_555
O16 Zn2 1_555 1_555
Zn3 O1_2 1_555 1_555
Zn7 O3_2 1_555 1_555
C1_2 C2_2 1_555 1_555
C2_2 H1_2 1_555 1_555
C3_2 C2_2 1_555 1_555
C4_2 C3_2 1_555 1_555
H2_2 C4_2 1_555 1_555
C5_2 C4_2 1_555 1_555
C6_2 C1_2 1_555 1_555
H3_2 C6_2 1_555 1_555
C7_2 C3_2 1_555 1_555
C8_2 C5_2 1_555 1_555
C9_2 C1_2 1_555 1_555
O1_2 C7_2 1_555 1_555
O10 C7_2 1_555 1_555
O3_2 C8_2 1_555 1_555
O4_2 C8_2 1_555 1_555
O5_2 Zn3 1_555 1_555
O6_2 Zn7 1_555 1_555
Zn8 O4_2 1_555 1_555
Zn6 O14_2 1_555 1_555
C15_2 C10_2 1_555 1_555
H6_2 C15_2 1_555 1_555
C18_2 C9_2 1_555 1_555
O8_2 Zn3 1_555 1_555
O11_2 Zn3 1_555 1_555
O15_2 Zn7 1_555 1_555
O16_2 Zn7 1_555 1_555
C5_2 C6_2 1_555 1_555
C10_2 C18_2 1_555 1_555
Zn5 O7_2 1_555 1_555
Zn4 O9_2 1_555 1_555
C11_2 H4_2 1_555 1_555
C12_2 C11_2 1_555 1_555
C13_2 C12_2 1_555 1_555
H5_2 C13_2 1_555 1_555
C14_2 C13_2 1_555 1_555
C16_2 C12_2 1_555 1_555
C17_2 C14_2 1_555 1_555
O7_2 C16_2 1_555 1_555
O9_2 C16_2 1_555 1_555
O13 C17_2 1_555 1_555
Zn1_2 O1_3 1_555 1_555
C1_3 C2_3 1_555 1_555
C2_3 H1_3 1_555 1_555
C3_3 C2_3 1_555 1_555
C4_3 C3_3 1_555 1_555
H2_3 C4_3 1_555 1_555
C5_3 C4_3 1_555 1_555
C6_3 C1_3 1_555 1_555
H3_3 C6_3 1_555 1_555
C7_3 C3_3 1_555 1_555
C8_3 C5_3 1_555 1_555
C9_3 C1_3 1_555 1_555
O1_3 C7_3 1_555 1_555
O2_2 C7_3 1_555 1_555
O3_3 C8_3 1_555 1_555
O4_3 C8_3 1_555 1_555
O5_3 Zn1_2 1_555 1_555
Zn3_2 O2_2 1_555 1_555
Zn4_2 O7_3 1_555 1_555
Zn5_2 O9_3 1_555 1_555
C10_3 C11_3 1_555 1_555
C11_3 H4_3 1_555 1_555
C12_3 C11_3 1_555 1_555
C13_3 C12_3 1_555 1_555
H5_3 C13_3 1_555 1_555
C14_3 C13_3 1_555 1_555
C15_3 C10_3 1_555 1_555
H6_3 C15_3 1_555 1_555
C16_3 C12_3 1_555 1_555
C17_3 C14_3 1_555 1_555
C18_3 C9_3 1_555 1_555
O7_3 C16_3 1_555 1_555
O8_3 Zn1_2 1_555 1_555
O9_3 C16_3 1_555 1_555
O10_2 Zn1_2 1_555 1_555
O11_3 Zn1_2 1_555 1_555
O12_2 C17_3 1_555 1_555
O14_3 C17_3 1_555 1_555
C5_3 C6_3 1_555 1_555
C10_3 C18_3 1_555 1_555
C14_3 C15_3 1_555 1_555
O6_3 Zn2_2 1_555 1_555
O13_2 Zn2_2 1_555 1_555
Zn3_2 O1_4 1_555 1_555
Zn7_2 O3_4 1_555 1_555
C2_4 H1_4 1_555 1_555
C3_4 C2_4 1_555 1_555
C4_4 C3_4 1_555 1_555
H2_4 C4_4 1_555 1_555
C5_4 C4_4 1_555 1_555
C7_4 C3_4 1_555 1_555
C8_4 C5_4 1_555 1_555
O1_4 C7_4 1_555 1_555
O10_2 C7_4 1_555 1_555
O3_4 C8_4 1_555 1_555
O5_4 Zn3_2 1_555 1_555
O6_4 Zn7_2 1_555 1_555
O8_4 Zn3_2 1_555 1_555
O11_4 Zn3_2 1_555 1_555
C6_4 C1_4 1_555 1_555
H3_4 C6_4 1_555 1_555
C9_4 C1_4 1_555 1_555
C15_4 C10_4 1_555 1_555
H6_4 C15_4 1_555 1_555
C18_4 C9_4 1_555 1_555
C10_4 C18_4 1_555 1_555
Zn5_2 O7_4 1_555 1_555
Zn4_2 O9_4 1_555 1_555
C11_4 H4_4 1_555 1_555
C12_4 C11_4 1_555 1_555
C13_4 C12_4 1_555 1_555
H5_4 C13_4 1_555 1_555
C14_4 C13_4 1_555 1_555
C16_4 C12_4 1_555 1_555
C17_4 C14_4 1_555 1_555
O7_4 C16_4 1_555 1_555
O9_4 C16_4 1_555 1_555
O13_2 C17_4 1_555 1_555
Zn6_2 O3_5 1_555 1_555
C2_5 H1_5 1_555 1_555
C3_5 C2_5 1_555 1_555
C4_5 C3_5 1_555 1_555
H2_5 C4_5 1_555 1_555
C5_5 C4_5 1_555 1_555
C7_5 C3_5 1_555 1_555
C8_5 C5_5 1_555 1_555
O8_2 C7_5 1_555 1_555
O11 C7_5 1_555 1_555
O3_5 C8_5 1_555 1_555
O6_5 Zn6_2 1_555 1_555
C6_5 C1_5 1_555 1_555
H3_5 C6_5 1_555 1_555
C9_5 C1_5 1_555 1_555
C15_5 C10_5 1_555 1_555
H6_5 C15_5 1_555 1_555
C18_5 C9_5 1_555 1_555
C10_5 C18_5 1_555 1_555
Zn4 O7_5 1_555 1_555
Zn5 O9_5 1_555 1_555
Zn8_2 O12_3 1_555 1_555
C11_5 H4_5 1_555 1_555
C12_5 C11_5 1_555 1_555
C13_5 C12_5 1_555 1_555
H5_5 C13_5 1_555 1_555
C14_5 C13_5 1_555 1_555
C16_5 C12_5 1_555 1_555
C17_5 C14_5 1_555 1_555
O7_5 C16_5 1_555 1_555
O9_5 C16_5 1_555 1_555
O12_3 C17_5 1_555 1_555
C1_6 C2_6 1_555 1_555
C2_6 H1_6 1_555 1_555
C3_6 C2_6 1_555 1_555
C4_6 C3_6 1_555 1_555
H2_6 C4_6 1_555 1_555
C5_6 C4_6 1_555 1_555
C6_6 C1_6 1_555 1_555
H3_6 C6_6 1_555 1_555
C7_6 C3_6 1_555 1_555
C8_6 C5_6 1_555 1_555
C9_6 C1_6 1_555 1_555
O8 C7_6 1_555 1_555
O11_2 C7_6 1_555 1_555
O3_6 C8_6 1_555 1_555
O15_4 C8_6 1_555 1_555
Zn5 O7_6 1_555 1_555
Zn4 O9_6 1_555 1_555
C10_6 C11_6 1_555 1_555
C11_6 H4_6 1_555 1_555
C12_6 C11_6 1_555 1_555
C13_6 C12_6 1_555 1_555
H5_6 C13_6 1_555 1_555
C14_6 C13_6 1_555 1_555
C15_6 C10_6 1_555 1_555
H6_6 C15_6 1_555 1_555
C16_6 C12_6 1_555 1_555
C17_6 C14_6 1_555 1_555
C18_6 C9_6 1_555 1_555
O7_6 C16_6 1_555 1_555
O9_6 C16_6 1_555 1_555
O13_3 C17_6 1_555 1_555
O16_3 C17_6 1_555 1_555
C5_6 C6_6 1_555 1_555
C10_6 C18_6 1_555 1_555
C14_6 C15_6 1_555 1_555
O6_6 Zn8_2 1_555 1_555
C2_7 H1_7 1_555 1_555
C3_7 C2_7 1_555 1_555
C4_7 C3_7 1_555 1_555
H2_7 C4_7 1_555 1_555
C5_7 C4_7 1_555 1_555
C7_7 C3_7 1_555 1_555
C8_7 C5_7 1_555 1_555
O8_3 C7_7 1_555 1_555
O11_4 C7_7 1_555 1_555
O3_7 C8_7 1_555 1_555
O6_7 Zn6 1_555 1_555
C6_7 C1_7 1_555 1_555
H3_7 C6_7 1_555 1_555
C9_7 C1_7 1_555 1_555
Zn5_2 O7_7 1_555 1_555
Zn4_2 O9_7 1_555 1_555
Zn8 O12_4 1_555 1_555
C10_7 C11_7 1_555 1_555
C11_7 H4_7 1_555 1_555
C12_7 C11_7 1_555 1_555
C13_7 C12_7 1_555 1_555
H5_7 C13_7 1_555 1_555
C14_7 C13_7 1_555 1_555
C15_7 C10_7 1_555 1_555
H6_7 C15_7 1_555 1_555
C16_7 C12_7 1_555 1_555
C17_7 C14_7 1_555 1_555
C18_7 C9_7 1_555 1_555
O7_7 C16_7 1_555 1_555
O9_7 C16_7 1_555 1_555
O12_4 C17_7 1_555 1_555
O16_2 C17_7 1_555 1_555
C10_7 C18_7 1_555 1_555
C14_7 C15_7 1_555 1_555
Zn8 O3_8 1_555 1_555
C1_8 C2_8 1_555 1_555
C2_8 H1_8 1_555 1_555
C3_8 C2_8 1_555 1_555
C4_8 C3_8 1_555 1_555
H2_8 C4_8 1_555 1_555
C5_8 C4_8 1_555 1_555
C6_8 C1_8 1_555 1_555
H3_8 C6_8 1_555 1_555
C7_8 C3_8 1_555 1_555
C8_8 C5_8 1_555 1_555
C9_8 C1_8 1_555 1_555
O8_4 C7_8 1_555 1_555
O11_3 C7_8 1_555 1_555
O3_8 C8_8 1_555 1_555
O15_2 C8_8 1_555 1_555
O6_8 Zn8 1_555 1_555
C15_8 C10_8 1_555 1_555
H6_8 C15_8 1_555 1_555
C18_8 C9_8 1_555 1_555
C5_8 C6_8 1_555 1_555
C10_8 C18_8 1_555 1_555
Zn4_2 O7_8 1_555 1_555
Zn5_2 O9_8 1_555 1_555
C11_8 H4_8 1_555 1_555
C12_8 C11_8 1_555 1_555
C13_8 C12_8 1_555 1_555
H5_8 C13_8 1_555 1_555
C14_8 C13_8 1_555 1_555
C16_8 C12_8 1_555 1_555
C17_8 C14_8 1_555 1_555
O7_8 C16_8 1_555 1_555
O9_8 C16_8 1_555 1_555
O13_4 C17_8 1_555 1_555
O5_5 Zn4_2 1_555 1_555
O5_6 Zn5_2 1_555 1_555
O5_7 Zn5 1_555 1_555
O5_8 Zn4 1_555 1_555

#END
