
###############################################################################
#
# This file contains modified crystal structure data generated from the
# MOF subset of the Cambridge Structural Database (CSD) v543 
# hosted by the Cambridge Crystallographic Data Centre (CCDC).
#
# This work is licensed under the Creative Commons
# Attribution-NonCommercial-ShareAlike 4.0 International License.
# To view a copy of this license, visit
# http://creativecommons.org/licenses/by-nc-sa/4.0/
# or send a letter to
# Creative Commons, PO Box 1866, Mountain View, CA 94042, USA.
#
# CIF created using the CSD Python API on 29 September 2022
# The structure has been converted into the P1 space group
# The structure has a 3D framework
# The original CSD entry KEFWOJ is in the triclinic crystal system
# The framework has been calculated to contain at least 10.0% void space
# The void calculation uses a probe of radius 1.32A, grid spacing 0.4
#
###############################################################################

data_KEFWOJ
_chemical_formula_moiety         '(C28 H20 Co4 Dy2 O21)n'
_symmetry_cell_setting           triclinic
_symmetry_space_group_name_H-M   'P 1'
_symmetry_Int_Tables_number      1
_space_group_name_Hall           'P 1'
loop_
_symmetry_equiv_pos_site_id
_symmetry_equiv_pos_as_xyz
1 x,y,z
_cell_length_a                   9.2134(15)
_cell_length_b                   10.1780(8)
_cell_length_c                   11.5556(8)
_cell_angle_alpha                74.073(7)
_cell_angle_beta                 79.441(10)
_cell_angle_gamma                83.594(10)
_cell_volume                     1022.22
loop_
_atom_site_label
_atom_site_type_symbol
_atom_site_fract_x
_atom_site_fract_y
_atom_site_fract_z
Co4 Co -0.0000 0.0000 0.0000
Co4_2 Co -0.0000 -0.0000 1.0000
O9 O 0.0207(7) 0.2473(6) 0.4650(6)
Dy8 Dy 0.09799(5) 0.09611(4) 0.63586(4)
Co4_3 Co -0.0000 1.0000 0.0000
O17 O 0.0572(6) 0.0195(5) 0.1683(5)
C16 C 0.1742(3) 0.0033(2) 0.2169(2)
Co4_4 Co -0.0000 1.0000 1.0000
O25 O 0.0627(7) 0.2036(6) 0.9170(5)
O14 O 0.1674(7) 0.9374(6) 0.3305(5)
O22 O 0.2027(7) 0.9151(6) 0.9523(6)
Co4_5 Co 1.0000 0.0000 0.0000
Co4_6 Co 1.0000 -0.0000 1.0000
O3 O 0.4363(7) 0.0144(6) 0.1972(5)
O5 O 0.7973(7) 0.0849(6) 0.0477(6)
O6 O 0.9373(7) 0.7964(6) 0.0830(5)
O7 O 0.9960(7) 0.7333(6) 0.2721(5)
O8 O 0.9140(8) 0.1170(6) 0.3821(5)
O10 O 0.9616(7) 0.4728(5) 0.2938(5)
C2 C 0.3075(3) 0.0593(2) 0.1491(2)
C3 C 0.3384(3) 0.1553(2) 0.0411(2)
C4 C 0.4927(3) 0.1675(2) 0.0205(2)
C5 C 0.5467(3) 0.0806(2) 0.1161(2)
C6 C 0.6997(3) 0.0443(2) 0.1379(2)
C7 C 0.9570(3) 0.7100(2) 0.1801(2)
C8 C 0.9565(3) 0.2289(2) 0.3855(2)
C9 C 0.9276(3) 0.3482(2) 0.2859(2)
C10 C 0.8744(3) 0.3658(2) 0.1788(2)
H5 H 0.8430 0.2979 0.1511
C11 C 0.8763(3) 0.5046(2) 0.1196(2)
H6 H 0.8462 0.5467 0.0448
C12 C 0.9293(3) 0.5663(2) 0.1897(2)
Dy5 Dy 0.90201(5) 0.90389(4) 0.36414(4)
Co4_7 Co 1.0000 1.0000 0.0000
H3 H 0.2713 0.2032 0.9910
H4 H 0.5470 0.2247 0.9534
Co4_8 Co 1.0000 1.0000 1.0000
O13 O 0.8326(7) 0.0626(6) 0.6695(5)
O20 O 0.2792(8) 0.0235(7) 0.7573(6)
O28 O 0.0040(7) 0.2667(6) 0.7279(5)
O34 O 0.2929(7) 0.0494(6) 0.4783(5)
O35 O 0.2772(8) 0.2700(7) 0.5674(6)
H11 H 0.2880 0.3487 0.5684
H12 H 0.2629 0.0117 0.4306
C29 C 0.3914(3) 0.1523(2) 0.4121(2)
H17 H 0.4836 0.1120 0.3771
H18 H 0.3474 0.2168 0.3471
C30 C 0.4167(3) 0.2212(2) 0.5042(2)
H19 H 0.4771 0.2982 0.4641
H20 H 0.4704 0.1575 0.5634
O4 O 0.7208(8) 0.9765(7) 0.2427(6)
O11 O 0.7071(7) 0.9506(6) 0.5217(5)
O12 O 0.7228(8) 0.7300(7) 0.4326(6)
H1 H 0.7120 0.6513 0.4316
H2 H 0.7371 0.9883 0.5694
C13 C 0.6086(3) 0.8477(2) 0.5879(2)
H7 H 0.5164 0.8880 0.6229
H8 H 0.6526 0.7832 0.6529
C14 C 0.5833(3) 0.7788(2) 0.4958(2)
H9 H 0.5229 0.7018 0.5359
H10 H 0.5296 0.8425 0.4366
O32 O 0.9793(7) 0.7527(6) 0.5350(6)
H13 H 0.7287 0.7968 0.0090
H14 H 0.4530 0.7753 0.0466
O16 O 0.9428(6) 0.9805(5) 0.8317(5)
O19 O 0.5637(7) 0.9856(6) 0.8028(5)
O29 O 0.0860(8) 0.8830(6) 0.6179(5)
O33 O 0.0384(7) 0.5272(5) 0.7062(5)
C15 C 0.8258(3) 0.9967(2) 0.7831(2)
C18 C 0.6925(3) 0.9407(2) 0.8509(2)
C19 C 0.6616(3) 0.8447(2) 0.9589(2)
C20 C 0.5073(3) 0.8325(2) 0.9795(2)
C21 C 0.4533(3) 0.9194(2) 0.8839(2)
C22 C 0.3003(3) 0.9557(2) 0.8621(2)
C23 C 0.0430(3) 0.2900(2) 0.8199(2)
C24 C 0.0435(3) 0.7711(2) 0.6145(2)
C25 C 0.0724(3) 0.6518(2) 0.7141(2)
C26 C 0.1256(3) 0.6342(2) 0.8212(2)
H15 H 0.1570 0.7021 0.8489
C27 C 0.1237(3) 0.4954(2) 0.8804(2)
H16 H 0.1538 0.4533 0.9552
C28 C 0.0707(3) 0.4337(2) 0.8103(2)
loop_
_geom_bond_atom_site_label_1
_geom_bond_atom_site_label_2
_geom_bond_site_symmetry_1
_geom_bond_site_symmetry_2
Dy8 O9 1_555 1_555
Co4 O17 1_555 1_555
O17 C16 1_555 1_555
O25 Co4_2 1_555 1_555
O22 Co4_4 1_555 1_555
Co4_5 O5 1_555 1_555
O3 C2 1_555 1_555
O5 C6 1_555 1_555
O6 C7 1_555 1_555
O7 C7 1_555 1_555
O10 C9 1_555 1_555
C16 C2 1_555 1_555
C2 C3 1_555 1_555
C4 C3 1_555 1_555
C5 O3 1_555 1_555
C6 C5 1_555 1_555
C7 C12 1_555 1_555
C8 O8 1_555 1_555
C9 C8 1_555 1_555
C10 C9 1_555 1_555
H5 C10 1_555 1_555
C11 C10 1_555 1_555
H6 C11 1_555 1_555
C12 O10 1_555 1_555
Dy5 O7 1_555 1_555
Co4_7 O6 1_555 1_555
C4 C5 1_555 1_555
C11 C12 1_555 1_555
O20 Dy8 1_555 1_555
O28 Dy8 1_555 1_555
O34 Dy8 1_555 1_555
O35 Dy8 1_555 1_555
H11 O35 1_555 1_555
H12 O34 1_555 1_555
C29 O34 1_555 1_555
H17 C29 1_555 1_555
H18 C29 1_555 1_555
C30 O35 1_555 1_555
H19 C30 1_555 1_555
H20 C30 1_555 1_555
C29 C30 1_555 1_555
Dy5 O4 1_555 1_555
O11 Dy5 1_555 1_555
O12 Dy5 1_555 1_555
H1 O12 1_555 1_555
H2 O11 1_555 1_555
C13 O11 1_555 1_555
H7 C13 1_555 1_555
H8 C13 1_555 1_555
C14 O12 1_555 1_555
H9 C14 1_555 1_555
H10 C14 1_555 1_555
O32 Dy5 1_555 1_555
C13 C14 1_555 1_555
O16 Co4_8 1_555 1_555
O19 C18 1_555 1_555
O25 C23 1_555 1_555
O28 C23 1_555 1_555
O33 C25 1_555 1_555
C15 O16 1_555 1_555
C18 C15 1_555 1_555
C19 C18 1_555 1_555
C20 C19 1_555 1_555
C21 O19 1_555 1_555
C23 C28 1_555 1_555
C24 O29 1_555 1_555
C25 C24 1_555 1_555
C26 C25 1_555 1_555
H15 C26 1_555 1_555
C27 C26 1_555 1_555
H16 C27 1_555 1_555
C28 O33 1_555 1_555
O22 C22 1_555 1_555
C20 C21 1_555 1_555
C21 C22 1_555 1_555
C27 C28 1_555 1_555

#END
