
###############################################################################
#
# This file contains modified crystal structure data generated from the
# MOF subset of the Cambridge Structural Database (CSD) v543 
# hosted by the Cambridge Crystallographic Data Centre (CCDC).
#
# This work is licensed under the Creative Commons
# Attribution-NonCommercial-ShareAlike 4.0 International License.
# To view a copy of this license, visit
# http://creativecommons.org/licenses/by-nc-sa/4.0/
# or send a letter to
# Creative Commons, PO Box 1866, Mountain View, CA 94042, USA.
#
# CIF created using the CSD Python API on 29 September 2022
# The structure has been converted into the P1 space group
# The structure has a 3D framework
# The original CSD entry KEFWEZ is in the monoclinic crystal system
# The framework has been calculated to contain at least 10.0% void space
# The void calculation uses a probe of radius 1.32A, grid spacing 0.4
# The framework is charged, counterions have been retained in the structure
#
###############################################################################

data_KEFWEZ
_chemical_formula_moiety         '(C56 H48 Co8 N4 O38)n'
_symmetry_cell_setting           triclinic
_symmetry_space_group_name_H-M   'P 1'
_symmetry_Int_Tables_number      1
_space_group_name_Hall           'P 1'
loop_
_symmetry_equiv_pos_site_id
_symmetry_equiv_pos_as_xyz
1 x,y,z
_cell_length_a                   9.2915(4)
_cell_length_b                   15.0734(7)
_cell_length_c                   17.8179(7)
_cell_angle_alpha                90
_cell_angle_beta                 97.323(4)
_cell_angle_gamma                90
_cell_volume                     2475.12
loop_
_atom_site_label
_atom_site_type_symbol
_atom_site_fract_x
_atom_site_fract_y
_atom_site_fract_z
Co4 Co 0.5000 -0.0000 0.5000
Co8 Co 0.42287(9) 0.11256(6) 0.33636(5)
O14 O 0.2281(5) 0.0717(3) 0.3597(3)
C18 C 0.2057(7) 0.0096(5) 0.4015(4)
Co4_2 Co 0.5000 1.0000 0.5000
O17 O 0.2979(5) 0.9663(4) 0.4456(3)
C13 C 0.0530(7) 0.9816(5) 0.4040(4)
H5 H 0.0460 0.8597 0.4543
O6 O 0.4098(5) 0.2913(3) 0.5885(2)
O7 O 0.4458(5) 0.1397(3) 0.5087(3)
O8 O 0.4422(6) 0.2191(3) 0.4023(2)
O9 O 0.3952(5) 0.3241(4) 0.7354(3)
O10 O 0.3782(7) 0.4669(4) 0.7180(3)
C2 C 0.0045(7) 0.0917(5) 0.5679(4)
C3 C 0.1586(7) 0.0799(5) 0.5789(4)
H2 H 0.2282 0.1198 0.5665
C7 C 0.4131(8) 0.2945(5) 0.5125(4)
C8 C 0.3864(8) 0.3772(5) 0.6104(4)
C9 C 0.3777(10) 0.4323(6) 0.5514(4)
H3 H 0.3642 0.4934 0.5519
C10 C 0.3931(11) 0.3784(6) 0.4877(5)
H4 H 0.3900 0.3975 0.4379
C11 C 0.4369(7) 0.2099(5) 0.4725(4)
C12 C 0.3848(8) 0.3910(6) 0.6925(4)
Co7 Co 0.42287(9) 0.38744(6) 0.83636(5)
O11 O 0.9471(5) 0.0395(3) 0.3763(2)
O12 O 0.6827(5) 0.1194(4) 0.3279(3)
O13 O 0.5652(5) 0.0190(3) 0.3863(2)
O18 O 0.7021(5) 0.0337(4) 0.5544(3)
O25 O 0.3952(5) 0.1759(4) 0.2354(3)
O28 O 0.3782(7) 0.0331(4) 0.2180(3)
C16 C 0.8172(7) 0.0006(5) 0.3892(4)
C17 C 0.6851(7) 0.0521(5) 0.3656(3)
Co2 Co 0.57713(9) 0.88744(6) 0.66364(5)
O1 O 0.0529(5) 0.9605(3) 0.6237(2)
O2 O 0.3173(5) 0.8806(4) 0.6721(3)
O3 O 0.4348(5) 0.9810(3) 0.6137(2)
C4 C 0.1828(7) 0.9994(5) 0.6108(4)
C5 C 0.3149(7) 0.9479(5) 0.6344(3)
Co9 Co 0.57713(9) 0.61256(6) 0.16364(5)
O15 O 0.7719(5) 0.9283(3) 0.6403(3)
O20 O 0.5902(5) 0.7087(3) 0.4115(2)
O21 O 0.5542(5) 0.8603(3) 0.4913(3)
O22 O 0.5578(6) 0.7809(3) 0.5977(2)
O23 O 0.6048(5) 0.6759(4) 0.2646(3)
O24 O 0.6048(5) 0.8241(4) 0.7646(3)
O26 O 0.6218(7) 0.5331(4) 0.2820(3)
O27 O 0.6218(7) 0.9669(4) 0.7820(3)
C14 C 0.9955(7) 0.9083(5) 0.4321(4)
C15 C 0.8414(7) 0.9201(5) 0.4211(4)
H6 H 0.7718 0.8802 0.4335
C19 C 0.5869(8) 0.7055(5) 0.4875(4)
C20 C 0.6136(8) 0.6228(5) 0.3896(4)
C21 C 0.6223(10) 0.5677(6) 0.4486(4)
H7 H 0.6358 0.5066 0.4481
C22 C 0.6069(11) 0.6216(6) 0.5123(5)
H8 H 0.6100 0.6025 0.5621
C23 C 0.5631(7) 0.7901(5) 0.5275(4)
C24 C 0.6152(8) 0.6090(6) 0.3075(4)
C1 C 0.9470(7) 0.0184(5) 0.5960(4)
H1 H 0.9540 0.1403 0.5457
C6 C 0.7943(7) 0.9904(5) 0.5985(4)
Co3 Co 0.5000 0.5000 0.0000
O4 O 0.2281(5) 0.4283(3) 0.8597(3)
O5 O 0.2979(5) 0.5337(4) 0.9456(3)
C1_2 C 0.0530(7) 0.5184(5) 0.9040(4)
H1_2 H 0.0460 0.6403 0.9543
C6_2 C 0.2057(7) 0.4904(5) 0.9015(4)
Co3_2 Co 0.5000 0.5000 1.0000
O8_2 O 0.5578(6) 0.7191(3) 0.0977(2)
C10_2 C 0.6069(11) 0.8784(6) 0.0123(5)
H4_2 H 0.6100 0.8975 0.0621
C11_2 C 0.5631(7) 0.7099(5) 0.0275(4)
O11_2 O 0.0529(5) 0.5395(3) 0.1237(2)
O12_2 O 0.3173(5) 0.6194(4) 0.1721(3)
O13_2 O 0.4348(5) 0.5190(3) 0.1137(2)
O16 O 0.7719(5) 0.5717(3) 0.1403(3)
O19 O 0.7021(5) 0.4663(4) 0.0544(3)
O20_2 O 0.4098(5) 0.2087(3) 0.0885(2)
O21_2 O 0.4458(5) 0.3603(3) 0.0087(3)
C14_2 C 0.0045(7) 0.4083(5) 0.0679(4)
C15_2 C 0.1586(7) 0.4201(5) 0.0789(4)
H6_2 H 0.2282 0.3802 0.0665
C16_2 C 0.1828(7) 0.5006(5) 0.1108(4)
C17_2 C 0.3149(7) 0.5521(5) 0.1344(3)
C19_2 C 0.4131(8) 0.2055(5) 0.0125(4)
C20_2 C 0.3864(8) 0.1228(5) 0.1104(4)
C21_2 C 0.3777(10) 0.0677(6) 0.0514(4)
H7_2 H 0.3642 0.0066 0.0519
C24_2 C 0.3848(8) 0.1090(6) 0.1925(4)
O1_2 O 0.9471(5) 0.4605(3) 0.8763(2)
O2_2 O 0.6827(5) 0.3806(4) 0.8279(3)
O3_2 O 0.5652(5) 0.4810(3) 0.8863(2)
O6_2 O 0.5902(5) 0.7913(3) 0.9115(2)
O7_2 O 0.5542(5) 0.6397(3) 0.9913(3)
C2_2 C 0.9955(7) 0.5917(5) 0.9321(4)
C3_2 C 0.8414(7) 0.5799(5) 0.9211(4)
H2_2 H 0.7718 0.6198 0.9335
C4_2 C 0.8172(7) 0.4994(5) 0.8892(4)
C5_2 C 0.6851(7) 0.4479(5) 0.8656(3)
C7_2 C 0.5869(8) 0.7945(5) 0.9875(4)
C8_2 C 0.6136(8) 0.8772(5) 0.8896(4)
C9_2 C 0.6223(10) 0.9323(6) 0.9486(4)
H3_2 H 0.6358 0.9934 0.9481
C12_2 C 0.6152(8) 0.8910(6) 0.8075(4)
O22_2 O 0.4422(6) 0.2809(3) 0.9023(2)
C22_2 C 0.3931(11) 0.1216(6) 0.9877(5)
H8_2 H 0.3900 0.1025 0.9379
C23_2 C 0.4369(7) 0.2901(5) 0.9725(4)
C13_2 C 0.9470(7) 0.4816(5) 0.0960(4)
H5_2 H 0.9540 0.3597 0.0457
C18_2 C 0.7943(7) 0.5096(5) 0.0985(4)
N1 N 0.5464(13) 0.3379(9) 0.2662(7)
H9 H 0.5386 0.2800 0.2774
H10 H 0.5960 0.3638 0.3071
C25 C 0.4031(13) 0.3740(8) 0.2580(7)
H11 H 0.3702 0.3836 0.2053
H12 H 0.4038 0.4294 0.2846
H13 H 0.3389 0.3333 0.2785
C26 C 0.6356(14) 0.3434(8) 0.2065(7)
H14 H 0.5754 0.3525 0.1592
H15 H 0.6892 0.2893 0.2043
H16 H 0.7018 0.3922 0.2159
N1_2 N 0.4536(13) 0.8379(9) 0.2338(7)
H9_2 H 0.4614 0.7800 0.2226
H10_2 H 0.4040 0.8638 0.1929
C25_2 C 0.5969(13) 0.8740(8) 0.2420(7)
H11_2 H 0.6298 0.8836 0.2947
H12_2 H 0.5962 0.9294 0.2154
H13_2 H 0.6611 0.8333 0.2215
C26_2 C 0.3644(14) 0.8434(8) 0.2935(7)
H14_2 H 0.4246 0.8525 0.3408
H15_2 H 0.3108 0.7893 0.2957
H16_2 H 0.2982 0.8922 0.2841
N1_3 N 0.4536(13) 0.6621(9) 0.7338(7)
H9_3 H 0.4614 0.7200 0.7226
H10_3 H 0.4040 0.6362 0.6929
C25_3 C 0.5969(13) 0.6260(8) 0.7420(7)
H11_3 H 0.6298 0.6164 0.7947
H12_3 H 0.5962 0.5706 0.7154
H13_3 H 0.6611 0.6667 0.7215
C26_3 C 0.3644(14) 0.6566(8) 0.7935(7)
H14_3 H 0.4246 0.6475 0.8408
H15_3 H 0.3108 0.7107 0.7957
H16_3 H 0.2982 0.6078 0.7841
N1_4 N 0.5464(13) 0.1621(9) 0.7662(7)
H9_4 H 0.5386 0.2200 0.7774
H10_4 H 0.5960 0.1362 0.8071
C25_4 C 0.4031(13) 0.1260(8) 0.7580(7)
H11_4 H 0.3702 0.1164 0.7053
H12_4 H 0.4038 0.0706 0.7846
H13_4 H 0.3389 0.1667 0.7785
C26_4 C 0.6356(14) 0.1566(8) 0.7065(7)
H14_4 H 0.5754 0.1475 0.6592
H15_4 H 0.6892 0.2107 0.7043
H16_4 H 0.7018 0.1078 0.7159
loop_
_geom_bond_atom_site_label_1
_geom_bond_atom_site_label_2
_geom_bond_site_symmetry_1
_geom_bond_site_symmetry_2
Co8 O14 1_555 1_555
O14 C18 1_555 1_555
Co4_2 O17 1_555 1_555
O6 C7 1_555 1_555
O7 Co4 1_555 1_555
O8 C11 1_555 1_555
O9 C12 1_555 1_555
O10 C12 1_555 1_555
C3 C2 1_555 1_555
H2 C3 1_555 1_555
C7 C10 1_555 1_555
C8 O6 1_555 1_555
C9 C8 1_555 1_555
H3 C9 1_555 1_555
C10 C9 1_555 1_555
H4 C10 1_555 1_555
C11 O7 1_555 1_555
C12 C8 1_555 1_555
Co8 O8 1_555 1_555
Co7 O9 1_555 1_555
O12 Co8 1_555 1_555
O13 Co4 1_555 1_555
O18 Co4 1_555 1_555
O25 Co8 1_555 1_555
O28 Co8 1_555 1_555
C16 O11 1_555 1_555
C17 O12 1_555 1_555
O10 Co7 1_555 1_555
C7 C11 1_555 1_555
Co8 O13 1_555 1_555
O13 C17 1_555 1_555
C16 C17 1_555 1_555
Co4_2 O3 1_555 1_555
Co2 O2 1_555 1_555
O2 C5 1_555 1_555
O3 Co2 1_555 1_555
C4 O1 1_555 1_555
C5 O3 1_555 1_555
Co9 O23 1_555 1_555
O15 Co2 1_555 1_555
O20 C19 1_555 1_555
O21 Co4_2 1_555 1_555
O22 Co2 1_555 1_555
O23 C24 1_555 1_555
O24 Co2 1_555 1_555
O26 Co9 1_555 1_555
O27 Co2 1_555 1_555
C15 C14 1_555 1_555
H6 C15 1_555 1_555
C19 C22 1_555 1_555
C20 O20 1_555 1_555
C21 C20 1_555 1_555
H7 C21 1_555 1_555
C22 C21 1_555 1_555
H8 C22 1_555 1_555
C23 O21 1_555 1_555
C24 O26 1_555 1_555
C4 C5 1_555 1_555
O22 C23 1_555 1_555
C19 C23 1_555 1_555
C20 C24 1_555 1_555
O15 C6 1_555 1_555
O4 C6_2 1_555 1_555
O5 C6_2 1_555 1_555
C6_2 C1_2 1_555 1_555
Co3_2 O5 1_555 1_555
Co7 O4 1_555 1_555
O8_2 C11_2 1_555 1_555
H4_2 C10_2 1_555 1_555
Co9 O8_2 1_555 1_555
O12_2 Co9 1_555 1_555
O13_2 Co3 1_555 1_555
O16 Co9 1_555 1_555
O19 Co3 1_555 1_555
O20_2 C19_2 1_555 1_555
O21_2 Co3 1_555 1_555
O25 C24_2 1_555 1_555
C15_2 C14_2 1_555 1_555
H6_2 C15_2 1_555 1_555
C16_2 O11_2 1_555 1_555
C17_2 O12_2 1_555 1_555
C20_2 O20_2 1_555 1_555
C21_2 C20_2 1_555 1_555
H7_2 C21_2 1_555 1_555
C24_2 O28 1_555 1_555
Co9 O13_2 1_555 1_555
O13_2 C17_2 1_555 1_555
C15_2 C16_2 1_555 1_555
C16_2 C17_2 1_555 1_555
C20_2 C24_2 1_555 1_555
Co3_2 O3_2 1_555 1_555
Co7 O2_2 1_555 1_555
O2_2 C5_2 1_555 1_555
O3_2 Co7 1_555 1_555
O6_2 C7_2 1_555 1_555
O7_2 Co3_2 1_555 1_555
O24 C12_2 1_555 1_555
O27 C12_2 1_555 1_555
C3_2 C2_2 1_555 1_555
H2_2 C3_2 1_555 1_555
C4_2 O1_2 1_555 1_555
C5_2 O3_2 1_555 1_555
C8_2 O6_2 1_555 1_555
C9_2 C8_2 1_555 1_555
H3_2 C9_2 1_555 1_555
C12_2 C8_2 1_555 1_555
O22_2 Co7 1_555 1_555
H8_2 C22_2 1_555 1_555
C3_2 C4_2 1_555 1_555
C4_2 C5_2 1_555 1_555
O22_2 C23_2 1_555 1_555
O16 C18_2 1_555 1_555
O19 C18_2 1_555 1_555
C18_2 C13_2 1_555 1_555
N1 H9 1_555 1_555
H10 N1 1_555 1_555
C25 N1 1_555 1_555
H11 C25 1_555 1_555
H12 C25 1_555 1_555
H13 C25 1_555 1_555
C26 N1 1_555 1_555
H14 C26 1_555 1_555
H15 C26 1_555 1_555
H16 C26 1_555 1_555
N1_2 H9_2 1_555 1_555
H10_2 N1_2 1_555 1_555
C25_2 N1_2 1_555 1_555
H11_2 C25_2 1_555 1_555
H12_2 C25_2 1_555 1_555
H13_2 C25_2 1_555 1_555
C26_2 N1_2 1_555 1_555
H14_2 C26_2 1_555 1_555
H15_2 C26_2 1_555 1_555
H16_2 C26_2 1_555 1_555
N1_3 H9_3 1_555 1_555
H10_3 N1_3 1_555 1_555
C25_3 N1_3 1_555 1_555
H11_3 C25_3 1_555 1_555
H12_3 C25_3 1_555 1_555
H13_3 C25_3 1_555 1_555
C26_3 N1_3 1_555 1_555
H14_3 C26_3 1_555 1_555
H15_3 C26_3 1_555 1_555
H16_3 C26_3 1_555 1_555
N1_4 H9_4 1_555 1_555
H10_4 N1_4 1_555 1_555
C25_4 N1_4 1_555 1_555
H11_4 C25_4 1_555 1_555
H12_4 C25_4 1_555 1_555
H13_4 C25_4 1_555 1_555
C26_4 N1_4 1_555 1_555
H14_4 C26_4 1_555 1_555
H15_4 C26_4 1_555 1_555
H16_4 C26_4 1_555 1_555

#END
