
###############################################################################
#
# This file contains modified crystal structure data generated from the
# MOF subset of the Cambridge Structural Database (CSD) v543 
# hosted by the Cambridge Crystallographic Data Centre (CCDC).
#
# This work is licensed under the Creative Commons
# Attribution-NonCommercial-ShareAlike 4.0 International License.
# To view a copy of this license, visit
# http://creativecommons.org/licenses/by-nc-sa/4.0/
# or send a letter to
# Creative Commons, PO Box 1866, Mountain View, CA 94042, USA.
#
# CIF created using the CSD Python API on 29 September 2022
# The structure has been converted into the P1 space group
# The structure has a 3D framework
# The original CSD entry KEGBIK is in the monoclinic crystal system
# The framework has been calculated to contain at least 10.0% void space
# The void calculation uses a probe of radius 1.32A, grid spacing 0.4
# The framework is charged, counterions have been retained in the structure
# H atom positions have been added when not included in the experimental data
# Generated hydrogen atom positions removed from atoms on special positions
#
###############################################################################

data_KEGBIK
_chemical_formula_moiety         '(C592 H504 N38 O318 P38 Pb36 8-)n'
_symmetry_cell_setting           triclinic
_symmetry_space_group_name_H-M   'P 1'
_symmetry_Int_Tables_number      1
_space_group_name_Hall           'P 1'
loop_
_symmetry_equiv_pos_site_id
_symmetry_equiv_pos_as_xyz
1 x,y,z
_cell_length_a                   31.5688(7)
_cell_length_b                   30.9664(6)
_cell_length_c                   22.7830(4)
_cell_angle_alpha                90
_cell_angle_beta                 98.981(2)
_cell_angle_gamma                90
_cell_volume                     21999
loop_
_atom_site_label
_atom_site_type_symbol
_atom_site_fract_x
_atom_site_fract_y
_atom_site_fract_z
Pb24 Pb -0.0000 0.234170(18) 0.2500
Pb28 Pb 0.01973(2) 0.13478(2) 0.38474(3)
O17 O 0.7200(3) 0.0406(2) 0.2156(4)
O18 O 0.7498(3) 0.0522(3) 0.3291(4)
O19 O 0.8540(2) 0.1939(2) 0.2441(4)
O20 O 0.8452(3) 0.1856(3) 0.3371(4)
O22 O 0.8828(3) 0.0452(3) 0.3844(3)
O23 O 0.9600(2) 0.1683(3) 0.2952(3)
O24 O 0.9412(2) 0.1606(3) 0.1992(3)
H10 H 0.5754 0.0120 0.1395
H18 H 0.8917 0.0216 0.0755
C33 C 0.7482(5) 0.0738(4) 0.2330(6)
C34 C 0.7621(4) 0.0820(4) 0.2919(5)
C35 C 0.7906(5) 0.1166(4) 0.3091(7)
H25 H 0.8002 0.1220 0.3491
C36 C 0.8037(3) 0.1420(3) 0.2664(5)
C37 C 0.7882(4) 0.1334(4) 0.2044(5)
H26 H 0.7965 0.1512 0.1754
C38 C 0.7617(5) 0.0993(4) 0.1879(6)
H27 H 0.7527 0.0931 0.1480
C39 C 0.8363(5) 0.1763(4) 0.2822(6)
C40 C 0.7663(5) 0.0556(4) 0.3872(6)
H28 H 0.7546 0.0333 0.4090
H29 H 0.7590 0.0833 0.4017
H30 H 0.7969 0.0528 0.3921
C41 C 0.8704(3) 0.0341(3) 0.2806(4)
C42 C 0.8895(3) 0.0601(3) 0.3298(4)
C43 C 0.9110(3) 0.0963(3) 0.3193(4)
H31 H 0.9228 0.1135 0.3512
C44 C 0.9161(3) 0.1086(3) 0.2618(4)
C45 C 0.8967(4) 0.0841(3) 0.2140(4)
H32 H 0.8994 0.0923 0.1755
C46 C 0.8733(4) 0.0474(4) 0.2231(5)
H33 H 0.8596 0.0318 0.1908
C47 C 0.9407(3) 0.1479(3) 0.2516(4)
C48 C 0.8951(7) 0.0729(5) 0.4316(6)
H34 H 0.8891 0.0598 0.4676
H35 H 0.8794 0.0995 0.4249
H36 H 0.9252 0.0787 0.4351
Pb13 Pb 0.885455(18) 0.21302(2) 0.14296(2)
Pb17 Pb 0.908279(11) 0.229546(11) 0.346408(15)
Pb19 Pb 0.807138(12) 0.225382(13) 0.425023(17)
Pb24_2 Pb 1.0000 0.234170(18) 0.2500
Pb26 Pb 0.98027(2) 0.13478(2) 0.11526(3)
O69 O 0.2800(3) 0.0406(2) 0.2844(4)
O70 O 0.2502(3) 0.0522(3) 0.1709(4)
O71 O 0.1460(2) 0.1939(2) 0.2559(4)
O72 O 0.1548(3) 0.1856(3) 0.1629(4)
O74 O 0.1172(3) 0.0452(3) 0.1156(3)
O75 O 0.0400(2) 0.1683(3) 0.2048(3)
O76 O 0.0588(2) 0.1606(3) 0.3008(3)
H85 H 0.4246 0.0120 0.3605
H93 H 0.1083 0.0216 0.4245
C131 C 0.2518(5) 0.0738(4) 0.2670(6)
C132 C 0.2379(4) 0.0820(4) 0.2081(5)
C133 C 0.2094(5) 0.1166(4) 0.1909(7)
H100 H 0.1998 0.1220 0.1509
C134 C 0.1963(3) 0.1420(3) 0.2336(5)
C135 C 0.2118(4) 0.1334(4) 0.2956(5)
H101 H 0.2035 0.1512 0.3246
C136 C 0.2383(5) 0.0993(4) 0.3121(6)
H102 H 0.2473 0.0931 0.3520
C137 C 0.1637(5) 0.1763(4) 0.2178(6)
C138 C 0.2337(5) 0.0556(4) 0.1128(6)
H103 H 0.2454 0.0333 0.0910
H104 H 0.2410 0.0833 0.0983
H105 H 0.2031 0.0528 0.1079
C139 C 0.1296(3) 0.0341(3) 0.2194(4)
C140 C 0.1105(3) 0.0601(3) 0.1702(4)
C141 C 0.0890(3) 0.0963(3) 0.1807(4)
H106 H 0.0772 0.1135 0.1488
C142 C 0.0839(3) 0.1086(3) 0.2382(4)
C143 C 0.1033(4) 0.0841(3) 0.2860(4)
H107 H 0.1006 0.0923 0.3245
C144 C 0.1267(4) 0.0474(4) 0.2769(5)
H108 H 0.1404 0.0318 0.3092
C145 C 0.0593(3) 0.1479(3) 0.2484(4)
C146 C 0.1049(7) 0.0729(5) 0.0684(6)
H109 H 0.1109 0.0598 0.0324
H110 H 0.1206 0.0995 0.0751
H111 H 0.0748 0.0787 0.0649
Pb12 Pb 0.114545(18) 0.21302(2) 0.35704(2)
Pb16 Pb 0.091721(11) 0.229546(11) 0.153592(15)
Pb18 Pb 0.192862(12) 0.225382(13) 0.074977(17)
Pb1 Pb 0.614545(18) 0.71302(2) 0.35704(2)
Pb2 Pb 0.591721(11) 0.729546(11) 0.153592(15)
Pb4 Pb 0.5000 0.734170(18) 0.2500
Pb5 Pb 0.48027(2) 0.63478(2) 0.11526(3)
P1 P 0.75573(8) 0.93326(8) 0.30539(12)
P2 P 0.73623(9) 0.99185(8) 0.21451(13)
P3 P 0.81974(9) 0.96683(8) 0.25198(12)
O1 O 0.7410(2) 0.8849(2) 0.3013(4)
O2 O 0.7365(2) 0.8015(2) 0.2959(4)
O3 O 0.5455(2) 0.8252(3) 0.2731(5)
O4 O 0.5780(3) 0.7633(3) 0.2741(5)
O5 O 0.7064(3) 0.9784(3) 0.1543(4)
O6 O 0.6253(5) 0.9754(4) 0.1462(8)
O7 O 0.5834(3) 0.8178(3) 0.1388(4)
O8 O 0.6448(3) 0.7834(2) 0.1391(4)
O9 O 0.8549(3) 0.9471(3) 0.2166(4)
O10 O 0.8554(6) 0.9791(6) 0.1079(8)
O11 O 0.7991(3) 0.8022(2) 0.0238(4)
O13 O 0.7553(3) 0.9469(3) 0.3720(4)
O14 O 0.7367(6) 0.8823(6) 0.4361(7)
O15 O 0.8636(9) 0.8432(7) 0.5776(11)
O16 O 0.9158(7) 0.8897(8) 0.5558(11)
O21 O 0.8498(3) 0.9986(2) 0.2955(3)
O27 O 0.5011(3) 0.7644(3) 0.1363(3)
O28 O 0.4515(3) 0.7151(3) 0.1045(4)
O37 O 0.4839(13) 0.5625(13) 0.1481(18)
O38 O 0.4956(13) 0.5674(13) 0.0567(18)
O39 O 0.6309(13) 0.7722(8) 0.4347(12)
N1 N 0.7228(3) 0.9644(3) 0.2670(4)
N2 N 0.7855(3) 0.9924(3) 0.2073(4)
N3 N 0.8033(3) 0.9314(3) 0.2920(4)
C1 C 0.7002(3) 0.8667(3) 0.3001(5)
C2 C 0.6979(3) 0.8222(3) 0.2933(5)
C3 C 0.6584(3) 0.8023(3) 0.2872(5)
H1 H 0.6568 0.7724 0.2824
C4 C 0.6214(3) 0.8254(3) 0.2882(5)
C5 C 0.6231(4) 0.8701(3) 0.2951(6)
H2 H 0.5981 0.8861 0.2947
C6 C 0.6636(4) 0.8907(3) 0.3028(6)
H3 H 0.6656 0.9203 0.3097
C7 C 0.5784(3) 0.8030(4) 0.2782(5)
C8 C 0.7347(5) 0.7558(3) 0.2946(10)
H4 H 0.7631 0.7443 0.2964
H5 H 0.7172 0.7464 0.2586
H6 H 0.7225 0.7456 0.3281
C9 C 0.6873(4) 0.9382(4) 0.1475(5)
C10 C 0.6428(5) 0.9375(4) 0.1435(8)
C11 C 0.6230(4) 0.8979(4) 0.1370(7)
H7 H 0.5932 0.8967 0.1304
C12 C 0.6464(3) 0.8592(3) 0.1400(5)
C13 C 0.6903(4) 0.8607(4) 0.1408(7)
H8 H 0.7057 0.8355 0.1369
C14 C 0.7115(4) 0.9005(4) 0.1475(7)
H9 H 0.7412 0.9018 0.1519
C15 C 0.6228(3) 0.8167(3) 0.1386(4)
C16 C 0.582(3) 0.982(3) 0.139(3)
H11 H 0.5702 0.9678 0.1710
H12 H 0.5684 0.9695 0.1019
C17 C 0.8423(4) 0.9206(4) 0.1678(6)
C18 C 0.8426(10) 0.9366(9) 0.1101(13)
C19 C 0.8306(8) 0.9122(5) 0.0619(7)
H13 H 0.8292 0.9240 0.0241
C20 C 0.8203(3) 0.8693(3) 0.0685(5)
C21 C 0.8162(5) 0.8537(4) 0.1239(6)
H14 H 0.8044 0.8266 0.1281
C22 C 0.8299(5) 0.8790(4) 0.1731(5)
H15 H 0.8306 0.8673 0.2108
C23 C 0.8101(9) 0.8402(8) 0.0173(11)
C24 C 0.8906(8) 0.9908(9) 0.0790(12)
H16 H 0.8871 0.9780 0.0402
H17 H 0.9168 0.9806 0.1019
C25 C 0.7853(3) 0.9287(4) 0.4163(5)
C26 C 0.7744(3) 0.8941(4) 0.4499(6)
C27 C 0.8051(4) 0.8758(4) 0.4931(6)
H19 H 0.7978 0.8527 0.5156
C28 C 0.8466(4) 0.8920(4) 0.5028(6)
C29 C 0.8575(3) 0.9266(4) 0.4692(6)
H20 H 0.8853 0.9375 0.4756
C30 C 0.8268(4) 0.9449(4) 0.4259(5)
H21 H 0.8341 0.9681 0.4035
C31 C 0.8786(6) 0.8744(10) 0.5522(12)
C32 C 0.7221(19) 0.8405(18) 0.450(6)
H22 H 0.6919 0.8381 0.4357
H23 H 0.7275 0.8362 0.4920
H24 H 0.7372 0.8190 0.4308
C49 C 0.4835(3) 0.7526(3) 0.0332(4)
C50 C 0.5164(3) 0.7804(3) 0.0207(4)
H37 H 0.5340 0.7945 0.0513
C55 C 0.4787(3) 0.7448(3) 0.0947(5)
H41 H 0.6025 0.8011 0.0071
H42 H 0.5764 0.8429 0.0169
C73 C 0.5008(12) 0.5476(14) 0.1056(18)
C74 C 0.5259(18) 0.5066(17) 0.123(2)
H55 H 0.5150 0.4836 0.0970
H56 H 0.5230 0.4990 0.1633
H57 H 0.5557 0.5113 0.1207
O51 O 0.5999(3) 0.7170(3) 0.0510(3)
O52 O 0.5496(3) 0.6714(3) 0.0707(3)
C97 C 0.5713(3) 0.6872(4) 0.0345(4)
Pb11 Pb 0.385455(18) 0.71302(2) 0.14296(2)
Pb14 Pb 0.885455(18) 0.78698(2) 0.64296(2)
Pb20 Pb 0.692862(12) 0.725382(13) 0.074977(17)
Pb30 Pb 0.98027(2) 0.86522(2) 0.61526(3)
O81 O 0.4220(3) 0.7633(3) 0.2259(5)
O84 O 0.6364(9) 0.6568(7) 0.4224(11)
O87 O 0.4158(7) 0.6103(8) 0.0558(11)
O89 O 0.6460(2) 0.6939(2) 0.2559(4)
O91 O 0.6548(3) 0.6856(3) 0.1629(4)
O95 O 0.4600(2) 0.6683(3) 0.2952(3)
O96 O 0.5400(2) 0.6683(3) 0.2048(3)
O98 O 0.4412(2) 0.6606(3) 0.1992(3)
O100 O 0.5588(2) 0.6606(3) 0.3008(3)
O101 O 0.4989(3) 0.7644(3) 0.3637(3)
O103 O 0.5485(3) 0.7151(3) 0.3955(4)
H115 H 0.603696 0.785876 0.441772
H116 H 0.645792 0.759509 0.472369
Pb3 Pb 0.807138(12) 0.774618(13) 0.925023(17)
P4 P 0.47730(8) 0.76046(11) 0.79718(10)
P5 P 0.5000 0.68326(16) 0.7500
O12 O 0.8137(4) 0.8556(3) 0.9646(4)
O25 O 0.5023(2) 0.7754(3) 0.8593(3)
O26 O 0.5534(3) 0.8113(3) 0.9435(3)
O29 O 0.4314(2) 0.7809(3) 0.8010(3)
O30 O 0.3750(3) 0.7202(4) 0.8223(4)
O31 O 0.2519(3) 0.7346(3) 0.6483(5)
O32 O 0.2706(3) 0.7899(3) 0.5960(4)
O33 O 0.4709(3) 0.6494(3) 0.7100(3)
O34 O 0.5140(4) 0.6107(4) 0.6320(5)
O35 O 0.4001(3) 0.7170(3) 0.4490(3)
O36 O 0.4504(3) 0.6714(3) 0.4293(3)
O40 O 0.7901(5) 0.7048(4) 0.9791(6)
N4 N 0.4722(3) 0.7110(4) 0.7897(4)
N5 N 0.5000 0.7857(6) 0.7500
C51 C 0.5220(3) 0.7867(3) 0.9607(4)
C52 C 0.4936(3) 0.7664(4) 0.9157(4)
C53 C 0.4620(3) 0.7408(5) 0.9282(4)
H38 H 0.4439 0.7273 0.8974
C54 C 0.4561(4) 0.7342(4) 0.9862(5)
H39 H 0.4333 0.7172 0.9940
C56 C 0.5878(5) 0.8257(7) 0.9880(7)
H40 H 0.6076 0.8427 0.9696
C57 C 0.3964(4) 0.7717(4) 0.7571(5)
C58 C 0.3661(3) 0.7412(5) 0.7700(5)
C59 C 0.3287(3) 0.7385(5) 0.7284(5)
H43 H 0.3076 0.7191 0.7356
C60 C 0.3213(3) 0.7631(5) 0.6768(5)
C61 C 0.3525(4) 0.7925(6) 0.6651(6)
H44 H 0.3479 0.8099 0.6315
C62 C 0.3912(4) 0.7952(5) 0.7058(6)
H45 H 0.4133 0.8130 0.6975
C63 C 0.2790(4) 0.7625(5) 0.6385(5)
C64 C 0.3492(7) 0.6837(8) 0.8296(10)
H46 H 0.3584 0.6712 0.8681
H47 H 0.3521 0.6628 0.7994
H48 H 0.3198 0.6924 0.8264
C65 C 0.4589(4) 0.6580(4) 0.6499(4)
C66 C 0.4825(5) 0.6387(5) 0.6093(5)
C67 C 0.4715(4) 0.6480(4) 0.5501(5)
H49 H 0.4868 0.6355 0.5229
C68 C 0.4384(4) 0.6754(4) 0.5302(4)
C69 C 0.4149(3) 0.6956(5) 0.5711(5)
H50 H 0.3928 0.7148 0.5580
C70 C 0.4258(4) 0.6858(6) 0.6311(5)
H51 H 0.4106 0.6981 0.6586
C71 C 0.4287(3) 0.6872(4) 0.4655(4)
C72 C 0.5506(17) 0.6056(18) 0.616(2)
H52 H 0.5667 0.5842 0.6403
H53 H 0.5660 0.6325 0.6195
H54 H 0.5468 0.5963 0.5750
P6 P 0.52270(8) 0.76046(11) 0.70282(10)
O41 O 0.4977(2) 0.7754(3) 0.6407(3)
O42 O 0.4466(3) 0.8113(3) 0.5565(3)
O45 O 0.5686(2) 0.7809(3) 0.6990(3)
O46 O 0.6250(3) 0.7202(4) 0.6777(4)
O47 O 0.7481(3) 0.7346(3) 0.8517(5)
O48 O 0.7294(3) 0.7899(3) 0.9040(4)
O49 O 0.5291(3) 0.6494(3) 0.7900(3)
O50 O 0.4860(4) 0.6107(4) 0.8680(5)
N6 N 0.5278(3) 0.7110(4) 0.7103(4)
C75 C 0.5165(3) 0.7526(3) 0.4668(4)
C76 C 0.4836(3) 0.7804(3) 0.4793(4)
H58 H 0.4660 0.7945 0.4487
C77 C 0.4780(3) 0.7867(3) 0.5393(4)
C78 C 0.5064(3) 0.7664(4) 0.5843(4)
C79 C 0.5380(3) 0.7408(5) 0.5718(4)
H59 H 0.5561 0.7273 0.6026
C80 C 0.5439(4) 0.7342(4) 0.5138(5)
H60 H 0.5667 0.7172 0.5060
C81 C 0.5213(3) 0.7448(3) 0.4053(5)
C82 C 0.4122(5) 0.8257(7) 0.5120(7)
H61 H 0.3924 0.8427 0.5304
H62 H 0.3975 0.8011 0.4929
H63 H 0.4236 0.8429 0.4831
C83 C 0.6036(4) 0.7717(4) 0.7429(5)
C84 C 0.6339(3) 0.7412(5) 0.7300(5)
C85 C 0.6713(3) 0.7385(5) 0.7716(5)
H64 H 0.6924 0.7191 0.7644
C86 C 0.6787(3) 0.7631(5) 0.8232(5)
C87 C 0.6475(4) 0.7925(6) 0.8349(6)
H65 H 0.6521 0.8099 0.8685
C88 C 0.6088(4) 0.7952(5) 0.7942(6)
H66 H 0.5867 0.8130 0.8025
C89 C 0.7210(4) 0.7625(5) 0.8615(5)
C90 C 0.6508(7) 0.6837(8) 0.6704(10)
H67 H 0.6416 0.6712 0.6319
H68 H 0.6479 0.6628 0.7006
H69 H 0.6802 0.6924 0.6736
C91 C 0.5411(4) 0.6580(4) 0.8501(4)
C92 C 0.5175(5) 0.6387(5) 0.8907(5)
C93 C 0.5285(4) 0.6480(4) 0.9499(5)
H70 H 0.5132 0.6355 0.9771
C94 C 0.5616(4) 0.6754(4) 0.9698(4)
C95 C 0.5851(3) 0.6956(5) 0.9289(5)
H71 H 0.6072 0.7148 0.9420
C96 C 0.5742(4) 0.6858(6) 0.8689(5)
H72 H 0.5894 0.6981 0.8414
C98 C 0.4494(17) 0.6056(18) 0.884(2)
H73 H 0.4333 0.5842 0.8597
H74 H 0.4340 0.6325 0.8805
H75 H 0.4532 0.5963 0.9250
Pb7 Pb 0.408279(11) 0.729546(11) 0.346408(15)
Pb8 Pb 0.192862(12) 0.774618(13) 0.574977(17)
Pb9 Pb 0.51973(2) 0.63478(2) 0.38474(3)
P7 P 0.24427(8) 0.93326(8) 0.19461(12)
P8 P 0.26377(9) 0.99185(8) 0.28549(13)
P9 P 0.18026(9) 0.96683(8) 0.24802(12)
O53 O 0.2590(2) 0.8849(2) 0.1987(4)
O54 O 0.2635(2) 0.8015(2) 0.2041(4)
O55 O 0.4545(2) 0.8252(3) 0.2269(5)
O57 O 0.2936(3) 0.9784(3) 0.3457(4)
O58 O 0.3747(5) 0.9754(4) 0.3538(8)
O59 O 0.4166(3) 0.8178(3) 0.3612(4)
O60 O 0.3552(3) 0.7834(2) 0.3609(4)
O61 O 0.1451(3) 0.9471(3) 0.2834(4)
O62 O 0.1446(6) 0.9791(6) 0.3921(8)
O63 O 0.2009(3) 0.8022(2) 0.4762(4)
O64 O 0.1863(4) 0.8556(3) 0.5354(4)
O65 O 0.2447(3) 0.9469(3) 0.1280(4)
O66 O 0.2633(6) 0.8823(6) 0.0639(7)
O73 O 0.1502(3) 0.9986(2) 0.2045(3)
O77 O 0.5161(13) 0.5625(13) 0.3519(18)
O78 O 0.5044(13) 0.5674(13) 0.4433(18)
O79 O 0.3691(13) 0.7722(8) 0.0653(12)
O80 O 0.2099(5) 0.7048(4) 0.5209(6)
N7 N 0.2772(3) 0.9644(3) 0.2330(4)
N8 N 0.2145(3) 0.9924(3) 0.2927(4)
N9 N 0.1967(3) 0.9314(3) 0.2080(4)
C99 C 0.2998(3) 0.8667(3) 0.1999(5)
C100 C 0.3021(3) 0.8222(3) 0.2067(5)
C101 C 0.3416(3) 0.8023(3) 0.2128(5)
H76 H 0.3432 0.7724 0.2176
C102 C 0.3786(3) 0.8254(3) 0.2118(5)
C103 C 0.3769(4) 0.8701(3) 0.2049(6)
H77 H 0.4019 0.8861 0.2053
C104 C 0.3364(4) 0.8907(3) 0.1972(6)
H78 H 0.3344 0.9203 0.1903
C105 C 0.4216(3) 0.8030(4) 0.2218(5)
C106 C 0.2653(5) 0.7558(3) 0.2054(10)
H79 H 0.2369 0.7443 0.2036
H80 H 0.2828 0.7464 0.2414
H81 H 0.2775 0.7456 0.1719
C107 C 0.3127(4) 0.9382(4) 0.3525(5)
C108 C 0.3572(5) 0.9375(4) 0.3565(8)
C109 C 0.3770(4) 0.8979(4) 0.3630(7)
H82 H 0.4068 0.8967 0.3696
C110 C 0.3536(3) 0.8592(3) 0.3600(5)
C111 C 0.3097(4) 0.8607(4) 0.3592(7)
H83 H 0.2943 0.8355 0.3631
C112 C 0.2885(4) 0.9005(4) 0.3525(7)
H84 H 0.2588 0.9018 0.3481
C113 C 0.3772(3) 0.8167(3) 0.3614(4)
C114 C 0.418(3) 0.982(3) 0.361(3)
H86 H 0.4298 0.9678 0.3290
H87 H 0.4316 0.9695 0.3981
C115 C 0.1577(4) 0.9206(4) 0.3322(6)
C116 C 0.1574(10) 0.9366(9) 0.3899(13)
C117 C 0.1694(8) 0.9122(5) 0.4381(7)
H88 H 0.1708 0.9240 0.4759
C118 C 0.1797(3) 0.8693(3) 0.4315(5)
C119 C 0.1838(5) 0.8537(4) 0.3761(6)
H89 H 0.1956 0.8266 0.3719
C120 C 0.1701(5) 0.8790(4) 0.3269(5)
H90 H 0.1694 0.8673 0.2892
C121 C 0.1899(9) 0.8402(8) 0.4827(11)
C122 C 0.1094(8) 0.9908(9) 0.4210(12)
H91 H 0.1129 0.9780 0.4598
H92 H 0.0832 0.9806 0.3981
C123 C 0.2147(3) 0.9287(4) 0.0837(5)
C124 C 0.2256(3) 0.8941(4) 0.0501(6)
C125 C 0.1949(4) 0.8758(4) 0.0069(6)
C127 C 0.1425(3) 0.9266(4) 0.0308(6)
H95 H 0.1147 0.9375 0.0244
C128 C 0.1732(4) 0.9449(4) 0.0741(5)
H96 H 0.1659 0.9681 0.0965
C130 C 0.2779(19) 0.8405(18) 0.050(6)
H97 H 0.3081 0.8381 0.0643
H98 H 0.2725 0.8362 0.0080
H99 H 0.2628 0.8190 0.0692
C147 C 0.4992(12) 0.5476(14) 0.3944(18)
C148 C 0.4741(18) 0.5066(17) 0.377(2)
H112 H 0.4850 0.4836 0.4030
H113 H 0.4770 0.4990 0.3367
H114 H 0.4443 0.5113 0.3793
Pb21 Pb 0.307138(12) 0.725382(13) 0.425023(17)
O82 O 0.8552(3) 0.7166(2) 0.8609(4)
O83 O 0.1448(3) 0.7166(2) 0.6391(4)
O85 O 0.3636(9) 0.6568(7) 0.0776(11)
O86 O 0.5842(7) 0.6103(8) 0.4442(11)
O88 O 0.3540(2) 0.6939(2) 0.2441(4)
O90 O 0.3452(3) 0.6856(3) 0.3371(4)
O92 O 0.1548(3) 0.8144(3) 0.6629(4)
O93 O 0.8452(3) 0.8144(3) 0.8371(4)
O104 O 0.0999(3) 0.7830(3) 0.5510(3)
O105 O 0.9001(3) 0.7830(3) 0.9490(3)
H119 H 0.396304 0.785876 0.0582282
H120 H 0.354208 0.759509 0.0276308
O67 O 0.1364(9) 0.8432(7) 0.9224(11)
O68 O 0.0842(7) 0.8897(8) 0.9442(11)
H94 H 0.2022 0.8527 0.9844
C126 C 0.1534(4) 0.8920(4) 0.9972(6)
C129 C 0.1214(6) 0.8744(10) 0.9478(12)
Pb15 Pb 0.114545(18) 0.78698(2) 0.85704(2)
Pb29 Pb 0.01973(2) 0.86522(2) 0.88474(3)
H122 H 0.808157 0.703607 0.0188704
P1_2 P 0.25573(8) 0.43326(8) 0.30539(12)
P2_2 P 0.23623(9) 0.49185(8) 0.21451(13)
P3_2 P 0.31974(9) 0.46683(8) 0.25198(12)
O1_2 O 0.2410(2) 0.3849(2) 0.3013(4)
O2_2 O 0.2365(2) 0.3015(2) 0.2959(4)
O3_2 O 0.0455(2) 0.3252(3) 0.2731(5)
O4_2 O 0.0780(3) 0.2633(3) 0.2741(5)
O5_2 O 0.2064(3) 0.4784(3) 0.1543(4)
O6_2 O 0.1253(5) 0.4754(4) 0.1462(8)
O7_2 O 0.0834(3) 0.3178(3) 0.1388(4)
O8_2 O 0.1448(3) 0.2834(2) 0.1391(4)
O9_2 O 0.3549(3) 0.4471(3) 0.2166(4)
O10_2 O 0.3554(6) 0.4791(6) 0.1079(8)
O11_2 O 0.2991(3) 0.3022(2) 0.0238(4)
O13_2 O 0.2553(3) 0.4469(3) 0.3720(4)
O14_2 O 0.2367(6) 0.3823(6) 0.4361(7)
O15_2 O 0.3636(9) 0.3432(7) 0.5776(11)
O16_2 O 0.4158(7) 0.3897(8) 0.5558(11)
O17_2 O 0.2200(3) 0.5406(2) 0.2156(4)
O18_2 O 0.2498(3) 0.5522(3) 0.3291(4)
O21_2 O 0.3498(3) 0.4986(2) 0.2955(3)
O22_2 O 0.3828(3) 0.5452(3) 0.3844(3)
O27_2 O 0.0011(3) 0.2644(3) 0.1363(3)
O39_2 O 0.1309(13) 0.2722(8) 0.4347(12)
N1_2 N 0.2228(3) 0.4644(3) 0.2670(4)
N2_2 N 0.2855(3) 0.4924(3) 0.2073(4)
N3_2 N 0.3033(3) 0.4314(3) 0.2920(4)
C1_2 C 0.2002(3) 0.3667(3) 0.3001(5)
C2_2 C 0.1979(3) 0.3222(3) 0.2933(5)
C3_2 C 0.1584(3) 0.3023(3) 0.2872(5)
H1_2 H 0.1568 0.2724 0.2824
C4_2 C 0.1214(3) 0.3254(3) 0.2882(5)
C5_2 C 0.1231(4) 0.3701(3) 0.2951(6)
H2_2 H 0.0981 0.3861 0.2947
C6_2 C 0.1636(4) 0.3907(3) 0.3028(6)
H3_2 H 0.1656 0.4203 0.3097
C7_2 C 0.0784(3) 0.3030(4) 0.2782(5)
C8_2 C 0.2347(5) 0.2558(3) 0.2946(10)
H4_2 H 0.2631 0.2443 0.2964
H5_2 H 0.2172 0.2464 0.2586
H6_2 H 0.2225 0.2456 0.3281
C9_2 C 0.1873(4) 0.4382(4) 0.1475(5)
C10_2 C 0.1428(5) 0.4375(4) 0.1435(8)
C11_2 C 0.1230(4) 0.3979(4) 0.1370(7)
H7_2 H 0.0932 0.3967 0.1304
C12_2 C 0.1464(3) 0.3592(3) 0.1400(5)
C13_2 C 0.1903(4) 0.3607(4) 0.1408(7)
H8_2 H 0.2057 0.3355 0.1369
C14_2 C 0.2115(4) 0.4005(4) 0.1475(7)
H9_2 H 0.2412 0.4018 0.1519
C15_2 C 0.1228(3) 0.3167(3) 0.1386(4)
C16_2 C 0.082(3) 0.482(3) 0.139(3)
H10_2 H 0.0754 0.5120 0.1395
H11_2 H 0.0702 0.4678 0.1710
H12_2 H 0.0684 0.4695 0.1019
C17_2 C 0.3423(4) 0.4206(4) 0.1678(6)
C18_2 C 0.3426(10) 0.4366(9) 0.1101(13)
C19_2 C 0.3306(8) 0.4122(5) 0.0619(7)
H13_2 H 0.3292 0.4240 0.0241
C20_2 C 0.3203(3) 0.3693(3) 0.0685(5)
C21_2 C 0.3162(5) 0.3537(4) 0.1239(6)
H14_2 H 0.3044 0.3266 0.1281
C22_2 C 0.3299(5) 0.3790(4) 0.1731(5)
H15_2 H 0.3306 0.3673 0.2108
C23_2 C 0.3101(9) 0.3402(8) 0.0173(11)
C24_2 C 0.3906(8) 0.4908(9) 0.0790(12)
H16_2 H 0.3871 0.4780 0.0402
H17_2 H 0.4168 0.4806 0.1019
H18_2 H 0.3917 0.5216 0.0755
C25_2 C 0.2853(3) 0.4287(4) 0.4163(5)
C26_2 C 0.2744(3) 0.3941(4) 0.4499(6)
C27_2 C 0.3051(4) 0.3758(4) 0.4931(6)
H19_2 H 0.2978 0.3527 0.5156
C28_2 C 0.3466(4) 0.3920(4) 0.5028(6)
C29_2 C 0.3575(3) 0.4266(4) 0.4692(6)
H20_2 H 0.3853 0.4375 0.4756
C30_2 C 0.3268(4) 0.4449(4) 0.4259(5)
H21_2 H 0.3341 0.4681 0.4035
C31_2 C 0.3786(6) 0.3744(10) 0.5522(12)
C32_2 C 0.2221(19) 0.3405(18) 0.450(6)
H22_2 H 0.1919 0.3381 0.4357
H23_2 H 0.2275 0.3362 0.4920
H24_2 H 0.2372 0.3190 0.4308
C33_2 C 0.2482(5) 0.5738(4) 0.2330(6)
C34_2 C 0.2621(4) 0.5820(4) 0.2919(5)
C35_2 C 0.2906(5) 0.6166(4) 0.3091(7)
H25_2 H 0.3002 0.6220 0.3491
C36_2 C 0.3037(3) 0.6420(3) 0.2664(5)
C37_2 C 0.2882(4) 0.6334(4) 0.2044(5)
H26_2 H 0.2965 0.6512 0.1754
C38_2 C 0.2617(5) 0.5993(4) 0.1879(6)
H27_2 H 0.2527 0.5931 0.1480
C39_2 C 0.3363(5) 0.6763(4) 0.2822(6)
C40_2 C 0.2663(5) 0.5556(4) 0.3872(6)
H28_2 H 0.2546 0.5333 0.4090
H29_2 H 0.2590 0.5833 0.4017
H30_2 H 0.2969 0.5528 0.3921
C41_2 C 0.3704(3) 0.5341(3) 0.2806(4)
C42_2 C 0.3895(3) 0.5601(3) 0.3298(4)
C43_2 C 0.4110(3) 0.5963(3) 0.3193(4)
H31_2 H 0.4228 0.6135 0.3512
C44_2 C 0.4161(3) 0.6086(3) 0.2618(4)
C45_2 C 0.3967(4) 0.5841(3) 0.2140(4)
H32_2 H 0.3994 0.5923 0.1755
C46_2 C 0.3733(4) 0.5474(4) 0.2231(5)
H33_2 H 0.3596 0.5318 0.1908
C47_2 C 0.4407(3) 0.6479(3) 0.2516(4)
C48_2 C 0.3951(7) 0.5729(5) 0.4316(6)
H34_2 H 0.3891 0.5598 0.4676
H35_2 H 0.3794 0.5995 0.4249
H36_2 H 0.4252 0.5787 0.4351
C50_2 C 0.0164(3) 0.2804(3) 0.0207(4)
H37_2 H 0.0340 0.2945 0.0513
H41_2 H 0.1025 0.3011 0.0071
H42_2 H 0.0764 0.3429 0.0169
C73_2 C 0.0008(12) 0.0476(14) 0.1056(18)
C74_2 C 0.0259(18) 0.0066(17) 0.123(2)
H57_2 H 0.0557 0.0113 0.1207
O51_2 O 0.0999(3) 0.2170(3) 0.0510(3)
O52_2 O 0.0496(3) 0.1714(3) 0.0707(3)
C97_2 C 0.0713(3) 0.1872(4) 0.0345(4)
Pb14_2 Pb 0.385455(18) 0.28698(2) 0.64296(2)
Pb30_2 Pb 0.48027(2) 0.36522(2) 0.61526(3)
O84_2 O 0.1364(9) 0.1568(7) 0.4224(11)
O103_2 O 0.0485(3) 0.2151(3) 0.3955(4)
H115_2 H 0.103696 0.285876 0.441772
H116_2 H 0.145792 0.259509 0.472369
Pb3_2 Pb 0.307138(12) 0.274618(13) 0.925023(17)
P5_2 P 0.0000 0.18326(16) 0.7500
O12_2 O 0.3137(4) 0.3556(3) 0.9646(4)
O25_2 O 0.0023(2) 0.2754(3) 0.8593(3)
O26_2 O 0.0534(3) 0.3113(3) 0.9435(3)
O34_2 O 0.0140(4) 0.1107(4) 0.6320(5)
O40_2 O 0.2901(5) 0.2048(4) 0.9791(6)
N5_2 N 0.0000 0.2857(6) 0.7500
C51_2 C 0.0220(3) 0.2867(3) 0.9607(4)
C56_2 C 0.0878(5) 0.3257(7) 0.9880(7)
H40_2 H 0.1076 0.3427 0.9696
C72_2 C 0.0506(17) 0.1056(18) 0.616(2)
H52_2 H 0.0667 0.0842 0.6403
H53_2 H 0.0660 0.1325 0.6195
H54_2 H 0.0468 0.0963 0.5750
P6_2 P 0.02270(8) 0.26046(11) 0.70282(10)
O45_2 O 0.0686(2) 0.2809(3) 0.6990(3)
O46_2 O 0.1250(3) 0.2202(4) 0.6777(4)
O47_2 O 0.2481(3) 0.2346(3) 0.8517(5)
O48_2 O 0.2294(3) 0.2899(3) 0.9040(4)
O49_2 O 0.0291(3) 0.1494(3) 0.7900(3)
N6_2 N 0.0278(3) 0.2110(4) 0.7103(4)
C75_2 C 0.0165(3) 0.2526(3) 0.4668(4)
C78_2 C 0.0064(3) 0.2664(4) 0.5843(4)
C79_2 C 0.0380(3) 0.2408(5) 0.5718(4)
H59_2 H 0.0561 0.2273 0.6026
C80_2 C 0.0439(4) 0.2342(4) 0.5138(5)
H60_2 H 0.0667 0.2172 0.5060
C81_2 C 0.0213(3) 0.2448(3) 0.4053(5)
C83_2 C 0.1036(4) 0.2717(4) 0.7429(5)
C84_2 C 0.1339(3) 0.2412(5) 0.7300(5)
C85_2 C 0.1713(3) 0.2385(5) 0.7716(5)
H64_2 H 0.1924 0.2191 0.7644
C86_2 C 0.1787(3) 0.2631(5) 0.8232(5)
C87_2 C 0.1475(4) 0.2925(6) 0.8349(6)
H65_2 H 0.1521 0.3099 0.8685
C88_2 C 0.1088(4) 0.2952(5) 0.7942(6)
H66_2 H 0.0867 0.3130 0.8025
C89_2 C 0.2210(4) 0.2625(5) 0.8615(5)
C90_2 C 0.1508(7) 0.1837(8) 0.6704(10)
H67_2 H 0.1416 0.1712 0.6319
H68_2 H 0.1479 0.1628 0.7006
H69_2 H 0.1802 0.1924 0.6736
C91_2 C 0.0411(4) 0.1580(4) 0.8501(4)
C92_2 C 0.0175(5) 0.1387(5) 0.8907(5)
C93_2 C 0.0285(4) 0.1480(4) 0.9499(5)
H70_2 H 0.0132 0.1355 0.9771
C94_2 C 0.0616(4) 0.1754(4) 0.9698(4)
C95_2 C 0.0851(3) 0.1956(5) 0.9289(5)
H71_2 H 0.1072 0.2148 0.9420
C96_2 C 0.0742(4) 0.1858(6) 0.8689(5)
H72_2 H 0.0894 0.1981 0.8414
O77_2 O 0.0161(13) 0.0625(13) 0.3519(18)
O78_2 O 0.0044(13) 0.0674(13) 0.4433(18)
O82_2 O 0.3552(3) 0.2166(2) 0.8609(4)
O86_2 O 0.0842(7) 0.1103(8) 0.4442(11)
O93_2 O 0.3452(3) 0.3144(3) 0.8371(4)
O105_2 O 0.4001(3) 0.2830(3) 0.9490(3)
O28_2 O 0.9515(3) 0.2151(3) 0.1045(4)
O37_2 O 0.9839(13) 0.0625(13) 0.1481(18)
O38_2 O 0.9956(13) 0.0674(13) 0.0567(18)
C49_2 C 0.9835(3) 0.2526(3) 0.0332(4)
C55_2 C 0.9787(3) 0.2448(3) 0.0947(5)
O81_2 O 0.9220(3) 0.2633(3) 0.2259(5)
O87_2 O 0.9158(7) 0.1103(8) 0.0558(11)
O101_2 O 0.9989(3) 0.2644(3) 0.3637(3)
P4_2 P 0.97730(8) 0.26046(11) 0.79718(10)
P5_3 P 1.0000 0.18326(16) 0.7500
O29_2 O 0.9314(2) 0.2809(3) 0.8010(3)
O30_2 O 0.8750(3) 0.2202(4) 0.8223(4)
O31_2 O 0.7519(3) 0.2346(3) 0.6483(5)
O32_2 O 0.7706(3) 0.2899(3) 0.5960(4)
O33_2 O 0.9709(3) 0.1494(3) 0.7100(3)
O35_2 O 0.9001(3) 0.2170(3) 0.4490(3)
O36_2 O 0.9504(3) 0.1714(3) 0.4293(3)
N4_2 N 0.9722(3) 0.2110(4) 0.7897(4)
N5_3 N 1.0000 0.2857(6) 0.7500
C52_2 C 0.9936(3) 0.2664(4) 0.9157(4)
C53_2 C 0.9620(3) 0.2408(5) 0.9282(4)
H38_2 H 0.9439 0.2273 0.8974
C54_2 C 0.9561(4) 0.2342(4) 0.9862(5)
H39_2 H 0.9333 0.2172 0.9940
C57_2 C 0.8964(4) 0.2717(4) 0.7571(5)
C58_2 C 0.8661(3) 0.2412(5) 0.7700(5)
C59_2 C 0.8287(3) 0.2385(5) 0.7284(5)
H43_2 H 0.8076 0.2191 0.7356
C60_2 C 0.8213(3) 0.2631(5) 0.6768(5)
C61_2 C 0.8525(4) 0.2925(6) 0.6651(6)
H44_2 H 0.8479 0.3099 0.6315
C62_2 C 0.8912(4) 0.2952(5) 0.7058(6)
H45_2 H 0.9133 0.3130 0.6975
C63_2 C 0.7790(4) 0.2625(5) 0.6385(5)
C64_2 C 0.8492(7) 0.1837(8) 0.8296(10)
H46_2 H 0.8584 0.1712 0.8681
H47_2 H 0.8521 0.1628 0.7994
H48_2 H 0.8198 0.1924 0.8264
C65_2 C 0.9589(4) 0.1580(4) 0.6499(4)
C66_2 C 0.9825(5) 0.1387(5) 0.6093(5)
C67_2 C 0.9715(4) 0.1480(4) 0.5501(5)
H49_2 H 0.9868 0.1355 0.5229
C68_2 C 0.9384(4) 0.1754(4) 0.5302(4)
C69_2 C 0.9149(3) 0.1956(5) 0.5711(5)
H50_2 H 0.8928 0.2148 0.5580
C70_2 C 0.9258(4) 0.1858(6) 0.6311(5)
H51_2 H 0.9106 0.1981 0.6586
C71_2 C 0.9287(3) 0.1872(4) 0.4655(4)
O41_2 O 0.9977(2) 0.2754(3) 0.6407(3)
O42_2 O 0.9466(3) 0.3113(3) 0.5565(3)
O50_2 O 0.9860(4) 0.1107(4) 0.8680(5)
C76_2 C 0.9836(3) 0.2804(3) 0.4793(4)
H58_2 H 0.9660 0.2945 0.4487
C77_2 C 0.9780(3) 0.2867(3) 0.5393(4)
C82_2 C 0.9122(5) 0.3257(7) 0.5120(7)
H61_2 H 0.8924 0.3427 0.5304
H62_2 H 0.8975 0.3011 0.4929
H63_2 H 0.9236 0.3429 0.4831
C98_2 C 0.9494(17) 0.1056(18) 0.884(2)
H73_2 H 0.9333 0.0842 0.8597
H74_2 H 0.9340 0.1325 0.8805
H75_2 H 0.9532 0.0963 0.9250
Pb8_2 Pb 0.692862(12) 0.274618(13) 0.574977(17)
P7_2 P 0.74427(8) 0.43326(8) 0.19461(12)
P8_2 P 0.76377(9) 0.49185(8) 0.28549(13)
P9_2 P 0.68026(9) 0.46683(8) 0.24802(12)
O53_2 O 0.7590(2) 0.3849(2) 0.1987(4)
O54_2 O 0.7635(2) 0.3015(2) 0.2041(4)
O55_2 O 0.9545(2) 0.3252(3) 0.2269(5)
O57_2 O 0.7936(3) 0.4784(3) 0.3457(4)
O58_2 O 0.8747(5) 0.4754(4) 0.3538(8)
O59_2 O 0.9166(3) 0.3178(3) 0.3612(4)
O60_2 O 0.8552(3) 0.2834(2) 0.3609(4)
O61_2 O 0.6451(3) 0.4471(3) 0.2834(4)
O62_2 O 0.6446(6) 0.4791(6) 0.3921(8)
O63_2 O 0.7009(3) 0.3022(2) 0.4762(4)
O64_2 O 0.6863(4) 0.3556(3) 0.5354(4)
O65_2 O 0.7447(3) 0.4469(3) 0.1280(4)
O66_2 O 0.7633(6) 0.3823(6) 0.0639(7)
O69_2 O 0.7800(3) 0.5406(2) 0.2844(4)
O70_2 O 0.7502(3) 0.5522(3) 0.1709(4)
O73_2 O 0.6502(3) 0.4986(2) 0.2045(3)
O74_2 O 0.6172(3) 0.5452(3) 0.1156(3)
O79_2 O 0.8691(13) 0.2722(8) 0.0653(12)
O80_2 O 0.7099(5) 0.2048(4) 0.5209(6)
N7_2 N 0.7772(3) 0.4644(3) 0.2330(4)
N8_2 N 0.7145(3) 0.4924(3) 0.2927(4)
N9_2 N 0.6967(3) 0.4314(3) 0.2080(4)
C99_2 C 0.7998(3) 0.3667(3) 0.1999(5)
C100_2 C 0.8021(3) 0.3222(3) 0.2067(5)
C101_2 C 0.8416(3) 0.3023(3) 0.2128(5)
H76_2 H 0.8432 0.2724 0.2176
C102_2 C 0.8786(3) 0.3254(3) 0.2118(5)
C103_2 C 0.8769(4) 0.3701(3) 0.2049(6)
H77_2 H 0.9019 0.3861 0.2053
C104_2 C 0.8364(4) 0.3907(3) 0.1972(6)
H78_2 H 0.8344 0.4203 0.1903
C105_2 C 0.9216(3) 0.3030(4) 0.2218(5)
C106_2 C 0.7653(5) 0.2558(3) 0.2054(10)
H79_2 H 0.7369 0.2443 0.2036
H80_2 H 0.7828 0.2464 0.2414
H81_2 H 0.7775 0.2456 0.1719
C107_2 C 0.8127(4) 0.4382(4) 0.3525(5)
C108_2 C 0.8572(5) 0.4375(4) 0.3565(8)
C109_2 C 0.8770(4) 0.3979(4) 0.3630(7)
H82_2 H 0.9068 0.3967 0.3696
C110_2 C 0.8536(3) 0.3592(3) 0.3600(5)
C111_2 C 0.8097(4) 0.3607(4) 0.3592(7)
H83_2 H 0.7943 0.3355 0.3631
C112_2 C 0.7885(4) 0.4005(4) 0.3525(7)
H84_2 H 0.7588 0.4018 0.3481
C113_2 C 0.8772(3) 0.3167(3) 0.3614(4)
C114_2 C 0.918(3) 0.482(3) 0.361(3)
H85_2 H 0.9246 0.5120 0.3605
H86_2 H 0.9298 0.4678 0.3290
H87_2 H 0.9316 0.4695 0.3981
C115_2 C 0.6577(4) 0.4206(4) 0.3322(6)
C116_2 C 0.6574(10) 0.4366(9) 0.3899(13)
C117_2 C 0.6694(8) 0.4122(5) 0.4381(7)
H88_2 H 0.6708 0.4240 0.4759
C118_2 C 0.6797(3) 0.3693(3) 0.4315(5)
C119_2 C 0.6838(5) 0.3537(4) 0.3761(6)
H89_2 H 0.6956 0.3266 0.3719
C120_2 C 0.6701(5) 0.3790(4) 0.3269(5)
H90_2 H 0.6694 0.3673 0.2892
C121_2 C 0.6899(9) 0.3402(8) 0.4827(11)
C122_2 C 0.6094(8) 0.4908(9) 0.4210(12)
H91_2 H 0.6129 0.4780 0.4598
H92_2 H 0.5832 0.4806 0.3981
H93_2 H 0.6083 0.5216 0.4245
C123_2 C 0.7147(3) 0.4287(4) 0.0837(5)
C124_2 C 0.7256(3) 0.3941(4) 0.0501(6)
C125_2 C 0.6949(4) 0.3758(4) 0.0069(6)
C127_2 C 0.6425(3) 0.4266(4) 0.0308(6)
H95_2 H 0.6147 0.4375 0.0244
C128_2 C 0.6732(4) 0.4449(4) 0.0741(5)
H96_2 H 0.6659 0.4681 0.0965
C130_2 C 0.7779(19) 0.3405(18) 0.050(6)
H97_2 H 0.8081 0.3381 0.0643
H98_2 H 0.7725 0.3362 0.0080
H99_2 H 0.7628 0.3190 0.0692
C131_2 C 0.7518(5) 0.5738(4) 0.2670(6)
C132_2 C 0.7379(4) 0.5820(4) 0.2081(5)
C133_2 C 0.7094(5) 0.6166(4) 0.1909(7)
H100_2 H 0.6998 0.6220 0.1509
C134_2 C 0.6963(3) 0.6420(3) 0.2336(5)
C135_2 C 0.7118(4) 0.6334(4) 0.2956(5)
H101_2 H 0.7035 0.6512 0.3246
C136_2 C 0.7383(5) 0.5993(4) 0.3121(6)
H102_2 H 0.7473 0.5931 0.3520
C137_2 C 0.6637(5) 0.6763(4) 0.2178(6)
C138_2 C 0.7337(5) 0.5556(4) 0.1128(6)
H103_2 H 0.7454 0.5333 0.0910
H104_2 H 0.7410 0.5833 0.0983
H105_2 H 0.7031 0.5528 0.1079
C139_2 C 0.6296(3) 0.5341(3) 0.2194(4)
C140_2 C 0.6105(3) 0.5601(3) 0.1702(4)
C141_2 C 0.5890(3) 0.5963(3) 0.1807(4)
H106_2 H 0.5772 0.6135 0.1488
C142_2 C 0.5839(3) 0.6086(3) 0.2382(4)
C143_2 C 0.6033(4) 0.5841(3) 0.2860(4)
H107_2 H 0.6006 0.5923 0.3245
C144_2 C 0.6267(4) 0.5474(4) 0.2769(5)
H108_2 H 0.6404 0.5318 0.3092
C145_2 C 0.5593(3) 0.6479(3) 0.2484(4)
C146_2 C 0.6049(7) 0.5729(5) 0.0684(6)
H109_2 H 0.6109 0.5598 0.0324
H110_2 H 0.6206 0.5995 0.0751
H111_2 H 0.5748 0.5787 0.0649
C147_2 C 0.9992(12) 0.0476(14) 0.3944(18)
C148_2 C 0.9741(18) 0.0066(17) 0.377(2)
H114_2 H 0.9443 0.0113 0.3793
O83_2 O 0.6448(3) 0.2166(2) 0.6391(4)
O85_2 O 0.8636(9) 0.1568(7) 0.0776(11)
O92_2 O 0.6548(3) 0.3144(3) 0.6629(4)
O104_2 O 0.5999(3) 0.2830(3) 0.5510(3)
H119_2 H 0.896304 0.285876 0.0582282
H120_2 H 0.854208 0.259509 0.0276308
O67_2 O 0.6364(9) 0.3432(7) 0.9224(11)
O68_2 O 0.5842(7) 0.3897(8) 0.9442(11)
H94_2 H 0.7022 0.3527 0.9844
C126_2 C 0.6534(4) 0.3920(4) 0.9972(6)
C129_2 C 0.6214(6) 0.3744(10) 0.9478(12)
Pb15_2 Pb 0.614545(18) 0.28698(2) 0.85704(2)
Pb29_2 Pb 0.51973(2) 0.36522(2) 0.88474(3)
H122_2 H 0.308157 0.203607 0.0188704
Pb23 Pb -0.0000 0.765830(18) 0.7500
H94_3 H 0.7978 0.1473 0.0156
C126_3 C 0.8466(4) 0.1080(4) 0.0028(6)
C129_3 C 0.8786(6) 0.1256(10) 0.0522(12)
P4_3 P 0.52270(8) 0.23954(11) 0.20282(10)
P5_4 P 0.5000 0.31674(16) 0.2500
O12_3 O 0.1863(4) 0.1444(3) 0.0354(4)
O25_3 O 0.4977(2) 0.2246(3) 0.1407(3)
O26_3 O 0.4466(3) 0.1887(3) 0.0565(3)
O29_3 O 0.5686(2) 0.2191(3) 0.1990(3)
O30_3 O 0.6250(3) 0.2798(4) 0.1777(4)
O31_3 O 0.7481(3) 0.2654(3) 0.3517(5)
O32_3 O 0.7294(3) 0.2101(3) 0.4040(4)
O33_3 O 0.5291(3) 0.3506(3) 0.2900(3)
O34_3 O 0.4860(4) 0.3893(4) 0.3680(5)
O36_3 O 0.5496(3) 0.3286(3) 0.5707(3)
O40_3 O 0.2099(5) 0.2952(4) 0.0209(6)
N4_3 N 0.5278(3) 0.2890(4) 0.2103(4)
N5_4 N 0.5000 0.2143(6) 0.2500
C51_3 C 0.4780(3) 0.2133(3) 0.0393(4)
C52_3 C 0.5064(3) 0.2336(4) 0.0843(4)
C53_3 C 0.5380(3) 0.2592(5) 0.0718(4)
H38_3 H 0.5561 0.2727 0.1026
C54_3 C 0.5439(4) 0.2658(4) 0.0138(5)
H39_3 H 0.5667 0.2828 0.0060
C56_3 C 0.4122(5) 0.1743(7) 0.0120(7)
H40_3 H 0.3924 0.1573 0.0304
C57_3 C 0.6036(4) 0.2283(4) 0.2429(5)
C58_3 C 0.6339(3) 0.2588(5) 0.2300(5)
C59_3 C 0.6713(3) 0.2615(5) 0.2716(5)
H43_3 H 0.6924 0.2809 0.2644
C60_3 C 0.6787(3) 0.2369(5) 0.3232(5)
C61_3 C 0.6475(4) 0.2075(6) 0.3349(6)
H44_3 H 0.6521 0.1901 0.3685
C62_3 C 0.6088(4) 0.2048(5) 0.2942(6)
H45_3 H 0.5867 0.1870 0.3025
C63_3 C 0.7210(4) 0.2375(5) 0.3615(5)
C64_3 C 0.6508(7) 0.3163(8) 0.1704(10)
H46_3 H 0.6416 0.3288 0.1319
H47_3 H 0.6479 0.3372 0.2006
H48_3 H 0.6802 0.3076 0.1736
C65_3 C 0.5411(4) 0.3420(4) 0.3501(4)
C66_3 C 0.5175(5) 0.3613(5) 0.3907(5)
C67_3 C 0.5285(4) 0.3520(4) 0.4499(5)
H49_3 H 0.5132 0.3645 0.4771
C68_3 C 0.5616(4) 0.3246(4) 0.4698(4)
C69_3 C 0.5851(3) 0.3044(5) 0.4289(5)
H50_3 H 0.6072 0.2852 0.4420
C70_3 C 0.5742(4) 0.3142(6) 0.3689(5)
H51_3 H 0.5894 0.3019 0.3414
C71_3 C 0.5713(3) 0.3128(4) 0.5345(4)
C72_3 C 0.4494(17) 0.3944(18) 0.384(2)
H52_3 H 0.4333 0.4158 0.3597
H53_3 H 0.4340 0.3675 0.3805
H54_3 H 0.4532 0.4037 0.4250
P6_3 P 0.47730(8) 0.23954(11) 0.29718(10)
O41_3 O 0.5023(2) 0.2246(3) 0.3593(3)
O42_3 O 0.5534(3) 0.1887(3) 0.4435(3)
O43 O 0.5011(3) 0.2356(3) 0.6363(3)
O44 O 0.4515(3) 0.2849(3) 0.6045(4)
O45_3 O 0.4314(2) 0.2191(3) 0.3010(3)
O46_3 O 0.3750(3) 0.2798(4) 0.3223(4)
O47_3 O 0.2519(3) 0.2654(3) 0.1483(5)
O48_3 O 0.2706(3) 0.2101(3) 0.0960(4)
O49_3 O 0.4709(3) 0.3506(3) 0.2100(3)
O50_3 O 0.5140(4) 0.3893(4) 0.1320(5)
N6_3 N 0.4722(3) 0.2890(4) 0.2897(4)
C75_3 C 0.4835(3) 0.2474(3) 0.5332(4)
C76_3 C 0.5164(3) 0.2196(3) 0.5207(4)
H58_3 H 0.5340 0.2055 0.5513
C77_3 C 0.5220(3) 0.2133(3) 0.4607(4)
C78_3 C 0.4936(3) 0.2336(4) 0.4157(4)
C79_3 C 0.4620(3) 0.2592(5) 0.4282(4)
H59_3 H 0.4439 0.2727 0.3974
C80_3 C 0.4561(4) 0.2658(4) 0.4862(5)
H60_3 H 0.4333 0.2828 0.4940
C81_3 C 0.4787(3) 0.2552(3) 0.5947(5)
C82_3 C 0.5878(5) 0.1743(7) 0.4880(7)
H61_3 H 0.6076 0.1573 0.4696
H62_3 H 0.6025 0.1989 0.5071
H63_3 H 0.5764 0.1571 0.5169
C83_3 C 0.3964(4) 0.2283(4) 0.2571(5)
C84_3 C 0.3661(3) 0.2588(5) 0.2700(5)
C85_3 C 0.3287(3) 0.2615(5) 0.2284(5)
H64_3 H 0.3076 0.2809 0.2356
C86_3 C 0.3213(3) 0.2369(5) 0.1768(5)
C87_3 C 0.3525(4) 0.2075(6) 0.1651(6)
H65_3 H 0.3479 0.1901 0.1315
C88_3 C 0.3912(4) 0.2048(5) 0.2058(6)
H66_3 H 0.4133 0.1870 0.1975
C89_3 C 0.2790(4) 0.2375(5) 0.1385(5)
C90_3 C 0.3492(7) 0.3163(8) 0.3296(10)
H67_3 H 0.3584 0.3288 0.3681
H68_3 H 0.3521 0.3372 0.2994
H69_3 H 0.3198 0.3076 0.3264
C91_3 C 0.4589(4) 0.3420(4) 0.1499(4)
C92_3 C 0.4825(5) 0.3613(5) 0.1093(5)
C93_3 C 0.4715(4) 0.3520(4) 0.0501(5)
H70_3 H 0.4868 0.3645 0.0229
C94_3 C 0.4384(4) 0.3246(4) 0.0302(4)
C95_3 C 0.4149(3) 0.3044(5) 0.0711(5)
H71_3 H 0.3928 0.2852 0.0580
C96_3 C 0.4258(4) 0.3142(6) 0.1311(5)
H72_3 H 0.4106 0.3019 0.1586
C98_3 C 0.5506(17) 0.3944(18) 0.116(2)
H73_3 H 0.5667 0.4158 0.1403
H74_3 H 0.5660 0.3675 0.1195
H75_3 H 0.5468 0.4037 0.0750
Pb7_2 Pb 0.591721(11) 0.270454(11) 0.653592(15)
P7_3 P 0.75573(8) 0.06674(8) 0.80539(12)
P8_3 P 0.73623(9) 0.00815(8) 0.71451(13)
P9_3 P 0.81974(9) 0.03317(8) 0.75198(12)
O53_3 O 0.7410(2) 0.1151(2) 0.8013(4)
O54_3 O 0.7365(2) 0.1985(2) 0.7959(4)
O55_3 O 0.5455(2) 0.1748(3) 0.7731(5)
O56 O 0.5780(3) 0.2367(3) 0.7741(5)
O57_3 O 0.7064(3) 0.0216(3) 0.6543(4)
O58_3 O 0.6253(5) 0.0246(4) 0.6462(8)
O59_3 O 0.5834(3) 0.1822(3) 0.6388(4)
O61_3 O 0.8549(3) 0.0529(3) 0.7166(4)
O62_3 O 0.8554(6) 0.0209(6) 0.6079(8)
O63_3 O 0.7991(3) 0.1978(2) 0.5238(4)
O64_3 O 0.8137(4) 0.1444(3) 0.4646(4)
O65_3 O 0.7553(3) 0.0531(3) 0.8720(4)
O66_3 O 0.7367(6) 0.1177(6) 0.9361(7)
O73_3 O 0.8498(3) 0.0014(2) 0.7955(3)
O77_3 O 0.4839(13) 0.4375(13) 0.6481(18)
O78_3 O 0.4956(13) 0.4326(13) 0.5567(18)
O79_3 O 0.6309(13) 0.2278(8) 0.9347(12)
O80_3 O 0.7901(5) 0.2952(4) 0.4791(6)
N7_3 N 0.7228(3) 0.0356(3) 0.7670(4)
N8_3 N 0.7855(3) 0.0076(3) 0.7073(4)
N9_3 N 0.8033(3) 0.0686(3) 0.7920(4)
C99_3 C 0.7002(3) 0.1333(3) 0.8001(5)
C100_3 C 0.6979(3) 0.1778(3) 0.7933(5)
C101_3 C 0.6584(3) 0.1977(3) 0.7872(5)
H76_3 H 0.6568 0.2276 0.7824
C102_3 C 0.6214(3) 0.1746(3) 0.7882(5)
C103_3 C 0.6231(4) 0.1299(3) 0.7951(6)
H77_3 H 0.5981 0.1139 0.7947
C104_3 C 0.6636(4) 0.1093(3) 0.8028(6)
H78_3 H 0.6656 0.0797 0.8097
C105_3 C 0.5784(3) 0.1970(4) 0.7782(5)
C106_3 C 0.7347(5) 0.2442(3) 0.7946(10)
H79_3 H 0.7631 0.2557 0.7964
H80_3 H 0.7172 0.2536 0.7586
H81_3 H 0.7225 0.2544 0.8281
C107_3 C 0.6873(4) 0.0618(4) 0.6475(5)
C108_3 C 0.6428(5) 0.0625(4) 0.6435(8)
C109_3 C 0.6230(4) 0.1021(4) 0.6370(7)
H82_3 H 0.5932 0.1033 0.6304
C110_3 C 0.6464(3) 0.1408(3) 0.6400(5)
C111_3 C 0.6903(4) 0.1393(4) 0.6408(7)
H83_3 H 0.7057 0.1645 0.6369
C112_3 C 0.7115(4) 0.0995(4) 0.6475(7)
H84_3 H 0.7412 0.0982 0.6519
C113_3 C 0.6228(3) 0.1833(3) 0.6386(4)
C114_3 C 0.582(3) 0.018(3) 0.639(3)
H86_3 H 0.5702 0.0322 0.6710
H87_3 H 0.5684 0.0305 0.6019
C115_3 C 0.8423(4) 0.0794(4) 0.6678(6)
C116_3 C 0.8426(10) 0.0634(9) 0.6101(13)
C117_3 C 0.8306(8) 0.0878(5) 0.5619(7)
H88_3 H 0.8292 0.0760 0.5241
C118_3 C 0.8203(3) 0.1307(3) 0.5685(5)
C119_3 C 0.8162(5) 0.1463(4) 0.6239(6)
H89_3 H 0.8044 0.1734 0.6281
C120_3 C 0.8299(5) 0.1210(4) 0.6731(5)
H90_3 H 0.8306 0.1327 0.7108
C121_3 C 0.8101(9) 0.1598(8) 0.5173(11)
C122_3 C 0.8906(8) 0.0092(9) 0.5790(12)
H91_3 H 0.8871 0.0220 0.5402
H92_3 H 0.9168 0.0194 0.6019
C123_3 C 0.7853(3) 0.0713(4) 0.9163(5)
C124_3 C 0.7744(3) 0.1059(4) 0.9499(6)
C125_3 C 0.8051(4) 0.1242(4) 0.9931(6)
C127_3 C 0.8575(3) 0.0734(4) 0.9692(6)
H95_3 H 0.8853 0.0625 0.9756
C128_3 C 0.8268(4) 0.0551(4) 0.9259(5)
H96_3 H 0.8341 0.0319 0.9035
C130_3 C 0.7221(19) 0.1595(18) 0.950(6)
H97_3 H 0.6919 0.1619 0.9357
H98_3 H 0.7275 0.1638 0.9920
H99_3 H 0.7372 0.1810 0.9308
C147_3 C 0.5008(12) 0.4524(14) 0.6056(18)
C148_3 C 0.5259(18) 0.4934(17) 0.623(2)
H112_2 H 0.5150 0.5164 0.5970
H113_2 H 0.5230 0.5010 0.6633
H114_3 H 0.5557 0.4887 0.6207
Pb22 Pb 0.5000 0.265830(18) 0.7500
O88_2 O 0.6460(2) 0.3061(2) 0.7559(4)
O94 O 0.5400(2) 0.3317(3) 0.7048(3)
O97 O 0.5588(2) 0.3394(3) 0.8008(3)
O99 O 0.4412(2) 0.3394(3) 0.6992(3)
O102 O 0.5485(3) 0.2849(3) 0.8955(4)
H119_3 H 0.603696 0.214124 0.941772
H120_3 H 0.645792 0.240491 0.972369
Pb2_2 Pb 0.408279(11) 0.270454(11) 0.846408(15)
P1_3 P 0.24427(8) 0.06674(8) 0.69461(12)
P2_3 P 0.26377(9) 0.00815(8) 0.78549(13)
P3_3 P 0.18026(9) 0.03317(8) 0.74802(12)
O1_3 O 0.2590(2) 0.1151(2) 0.6987(4)
O2_3 O 0.2635(2) 0.1985(2) 0.7041(4)
O3_3 O 0.4545(2) 0.1748(3) 0.7269(5)
O4_3 O 0.4220(3) 0.2367(3) 0.7259(5)
O5_3 O 0.2936(3) 0.0216(3) 0.8457(4)
O6_3 O 0.3747(5) 0.0246(4) 0.8538(8)
O7_3 O 0.4166(3) 0.1822(3) 0.8612(4)
O9_3 O 0.1451(3) 0.0529(3) 0.7834(4)
O10_3 O 0.1446(6) 0.0209(6) 0.8921(8)
O11_3 O 0.2009(3) 0.1978(2) 0.9762(4)
O13_3 O 0.2447(3) 0.0531(3) 0.6280(4)
O14_3 O 0.2633(6) 0.1177(6) 0.5639(7)
O21_3 O 0.1502(3) 0.0014(2) 0.7045(3)
O27_3 O 0.4989(3) 0.2356(3) 0.8637(3)
O37_3 O 0.5161(13) 0.4375(13) 0.8519(18)
O38_3 O 0.5044(13) 0.4326(13) 0.9433(18)
O39_3 O 0.3691(13) 0.2278(8) 0.5653(12)
N1_3 N 0.2772(3) 0.0356(3) 0.7330(4)
N2_3 N 0.2145(3) 0.0076(3) 0.7927(4)
N3_3 N 0.1967(3) 0.0686(3) 0.7080(4)
C1_3 C 0.2998(3) 0.1333(3) 0.6999(5)
C2_3 C 0.3021(3) 0.1778(3) 0.7067(5)
C3_3 C 0.3416(3) 0.1977(3) 0.7128(5)
H1_3 H 0.3432 0.2276 0.7176
C4_3 C 0.3786(3) 0.1746(3) 0.7118(5)
C5_3 C 0.3769(4) 0.1299(3) 0.7049(6)
H2_3 H 0.4019 0.1139 0.7053
C6_3 C 0.3364(4) 0.1093(3) 0.6972(6)
H3_3 H 0.3344 0.0797 0.6903
C7_3 C 0.4216(3) 0.1970(4) 0.7218(5)
C8_3 C 0.2653(5) 0.2442(3) 0.7054(10)
H4_3 H 0.2369 0.2557 0.7036
H5_3 H 0.2828 0.2536 0.7414
H6_3 H 0.2775 0.2544 0.6719
C9_3 C 0.3127(4) 0.0618(4) 0.8525(5)
C10_3 C 0.3572(5) 0.0625(4) 0.8565(8)
C11_3 C 0.3770(4) 0.1021(4) 0.8630(7)
H7_3 H 0.4068 0.1033 0.8696
C12_3 C 0.3536(3) 0.1408(3) 0.8600(5)
C13_3 C 0.3097(4) 0.1393(4) 0.8592(7)
H8_3 H 0.2943 0.1645 0.8631
C14_3 C 0.2885(4) 0.0995(4) 0.8525(7)
H9_3 H 0.2588 0.0982 0.8481
C15_3 C 0.3772(3) 0.1833(3) 0.8614(4)
C16_3 C 0.418(3) 0.018(3) 0.861(3)
H11_3 H 0.4298 0.0322 0.8290
H12_3 H 0.4316 0.0305 0.8981
C17_3 C 0.1577(4) 0.0794(4) 0.8322(6)
C18_3 C 0.1574(10) 0.0634(9) 0.8899(13)
C19_3 C 0.1694(8) 0.0878(5) 0.9381(7)
H13_3 H 0.1708 0.0760 0.9759
C20_3 C 0.1797(3) 0.1307(3) 0.9315(5)
C21_3 C 0.1838(5) 0.1463(4) 0.8761(6)
H14_3 H 0.1956 0.1734 0.8719
C22_3 C 0.1701(5) 0.1210(4) 0.8269(5)
H15_3 H 0.1694 0.1327 0.7892
C23_3 C 0.1899(9) 0.1598(8) 0.9827(11)
C24_3 C 0.1094(8) 0.0092(9) 0.9210(12)
H16_3 H 0.1129 0.0220 0.9598
H17_3 H 0.0832 0.0194 0.8981
C25_3 C 0.2147(3) 0.0713(4) 0.5837(5)
C26_3 C 0.2256(3) 0.1059(4) 0.5501(6)
C27_3 C 0.1949(4) 0.1242(4) 0.5069(6)
H19_3 H 0.2022 0.1473 0.4844
C28_3 C 0.1534(4) 0.1080(4) 0.4972(6)
C29_3 C 0.1425(3) 0.0734(4) 0.5308(6)
H20_3 H 0.1147 0.0625 0.5244
C30_3 C 0.1732(4) 0.0551(4) 0.5741(5)
H21_3 H 0.1659 0.0319 0.5965
C31_3 C 0.1214(6) 0.1256(10) 0.4478(12)
C32_3 C 0.2779(19) 0.1595(18) 0.550(6)
H22_3 H 0.3081 0.1619 0.5643
H23_3 H 0.2725 0.1638 0.5080
H24_3 H 0.2628 0.1810 0.5692
C49_3 C 0.5165(3) 0.2474(3) 0.9668(4)
C50_3 C 0.4836(3) 0.2196(3) 0.9793(4)
H37_3 H 0.4660 0.2055 0.9487
C55_3 C 0.5213(3) 0.2552(3) 0.9053(5)
H41_3 H 0.3975 0.1989 0.9929
H42_3 H 0.4236 0.1571 0.9831
C73_3 C 0.4992(12) 0.4524(14) 0.8944(18)
C74_3 C 0.4741(18) 0.4934(17) 0.877(2)
H55_2 H 0.4850 0.5164 0.9030
H56_2 H 0.4770 0.5010 0.8367
H57_3 H 0.4443 0.4887 0.8793
O52_3 O 0.4504(3) 0.3286(3) 0.9293(3)
C97_3 C 0.4287(3) 0.3128(4) 0.9655(4)
O89_2 O 0.3540(2) 0.3061(2) 0.7441(4)
O96_2 O 0.4600(2) 0.3317(3) 0.7952(3)
H115_3 H 0.396304 0.214124 0.558228
H116_3 H 0.354208 0.240491 0.527631
O69_3 O 0.7200(3) 0.9594(2) 0.7156(4)
O70_3 O 0.7498(3) 0.9478(3) 0.8291(4)
O71_2 O 0.8540(2) 0.8061(2) 0.7441(4)
O74_3 O 0.8828(3) 0.9548(3) 0.8844(3)
O75_2 O 0.9600(2) 0.8317(3) 0.7952(3)
O76_2 O 0.9412(2) 0.8394(3) 0.6992(3)
H85_3 H 0.5754 0.9880 0.6395
H93_3 H 0.8917 0.9784 0.5755
C131_3 C 0.7482(5) 0.9262(4) 0.7330(6)
C132_3 C 0.7621(4) 0.9180(4) 0.7919(5)
C133_3 C 0.7906(5) 0.8834(4) 0.8091(7)
H100_3 H 0.8002 0.8780 0.8491
C134_3 C 0.8037(3) 0.8580(3) 0.7664(5)
C135_3 C 0.7882(4) 0.8666(4) 0.7044(5)
H101_3 H 0.7965 0.8488 0.6754
C136_3 C 0.7617(5) 0.9007(4) 0.6879(6)
H102_3 H 0.7527 0.9069 0.6480
C137_3 C 0.8363(5) 0.8237(4) 0.7822(6)
C138_3 C 0.7663(5) 0.9444(4) 0.8872(6)
H103_3 H 0.7546 0.9667 0.9090
H104_3 H 0.7590 0.9167 0.9017
H105_3 H 0.7969 0.9472 0.8921
C139_3 C 0.8704(3) 0.9659(3) 0.7806(4)
C140_3 C 0.8895(3) 0.9399(3) 0.8298(4)
C141_3 C 0.9110(3) 0.9037(3) 0.8193(4)
H106_3 H 0.9228 0.8865 0.8512
C142_3 C 0.9161(3) 0.8914(3) 0.7618(4)
C143_3 C 0.8967(4) 0.9159(3) 0.7140(4)
H107_3 H 0.8994 0.9077 0.6755
C144_3 C 0.8733(4) 0.9526(4) 0.7231(5)
H108_3 H 0.8596 0.9682 0.6908
C145_3 C 0.9407(3) 0.8521(3) 0.7516(4)
C146_3 C 0.8951(7) 0.9271(5) 0.9316(6)
H109_3 H 0.8891 0.9402 0.9676
H110_3 H 0.8794 0.9005 0.9249
H111_3 H 0.9252 0.9213 0.9351
Pb16_2 Pb 0.908279(11) 0.770454(11) 0.846408(15)
Pb23_2 Pb 1.0000 0.765830(18) 0.7500
O17_3 O 0.2800(3) 0.9594(2) 0.7844(4)
O18_3 O 0.2502(3) 0.9478(3) 0.6709(4)
O19_2 O 0.1460(2) 0.8061(2) 0.7559(4)
O22_3 O 0.1172(3) 0.9548(3) 0.6156(3)
O23_2 O 0.0400(2) 0.8317(3) 0.7048(3)
O24_2 O 0.0588(2) 0.8394(3) 0.8008(3)
H10_3 H 0.4246 0.9880 0.8605
H18_3 H 0.1083 0.9784 0.9245
C33_3 C 0.2518(5) 0.9262(4) 0.7670(6)
C34_3 C 0.2379(4) 0.9180(4) 0.7081(5)
C35_3 C 0.2094(5) 0.8834(4) 0.6909(7)
H25_3 H 0.1998 0.8780 0.6509
C36_3 C 0.1963(3) 0.8580(3) 0.7336(5)
C37_3 C 0.2118(4) 0.8666(4) 0.7956(5)
H26_3 H 0.2035 0.8488 0.8246
C38_3 C 0.2383(5) 0.9007(4) 0.8121(6)
H27_3 H 0.2473 0.9069 0.8520
C39_3 C 0.1637(5) 0.8237(4) 0.7178(6)
C40_3 C 0.2337(5) 0.9444(4) 0.6128(6)
H28_3 H 0.2454 0.9667 0.5910
H29_3 H 0.2410 0.9167 0.5983
H30_3 H 0.2031 0.9472 0.6079
C41_3 C 0.1296(3) 0.9659(3) 0.7194(4)
C42_3 C 0.1105(3) 0.9399(3) 0.6702(4)
C43_3 C 0.0890(3) 0.9037(3) 0.6807(4)
H31_3 H 0.0772 0.8865 0.6488
C44_3 C 0.0839(3) 0.8914(3) 0.7382(4)
C45_3 C 0.1033(4) 0.9159(3) 0.7860(4)
H32_3 H 0.1006 0.9077 0.8245
C46_3 C 0.1267(4) 0.9526(4) 0.7769(5)
H33_3 H 0.1404 0.9682 0.8092
C47_3 C 0.0593(3) 0.8521(3) 0.7484(4)
C48_3 C 0.1049(7) 0.9271(5) 0.5684(6)
H34_3 H 0.1109 0.9402 0.5324
H35_3 H 0.1206 0.9005 0.5751
H36_3 H 0.0748 0.9213 0.5649
Pb17_2 Pb 0.091721(11) 0.770454(11) 0.653592(15)
H122_3 H 0.191843 0.296393 0.98113
H94_4 H 0.2978 0.6473 0.0156
C126_4 C 0.3466(4) 0.6080(4) 0.0028(6)
C129_4 C 0.3786(6) 0.6256(10) 0.0522(12)
P4_4 P 0.02270(8) 0.73954(11) 0.20282(10)
P5_5 P -0.0000 0.81674(16) 0.2500
O29_4 O 0.0686(2) 0.7191(3) 0.1990(3)
O30_4 O 0.1250(3) 0.7798(4) 0.1777(4)
O31_4 O 0.2481(3) 0.7654(3) 0.3517(5)
O32_4 O 0.2294(3) 0.7101(3) 0.4040(4)
O33_4 O 0.0291(3) 0.8506(3) 0.2900(3)
O36_4 O 0.0496(3) 0.8286(3) 0.5707(3)
N4_4 N 0.0278(3) 0.7890(4) 0.2103(4)
N5_5 N -0.0000 0.7143(6) 0.2500
C52_4 C 0.0064(3) 0.7336(4) 0.0843(4)
C53_4 C 0.0380(3) 0.7592(5) 0.0718(4)
H38_4 H 0.0561 0.7727 0.1026
C54_4 C 0.0439(4) 0.7658(4) 0.0138(5)
H39_4 H 0.0667 0.7828 0.0060
C57_4 C 0.1036(4) 0.7283(4) 0.2429(5)
C58_4 C 0.1339(3) 0.7588(5) 0.2300(5)
C59_4 C 0.1713(3) 0.7615(5) 0.2716(5)
H43_4 H 0.1924 0.7809 0.2644
C60_4 C 0.1787(3) 0.7369(5) 0.3232(5)
C61_4 C 0.1475(4) 0.7075(6) 0.3349(6)
H44_4 H 0.1521 0.6901 0.3685
C62_4 C 0.1088(4) 0.7048(5) 0.2942(6)
H45_4 H 0.0867 0.6870 0.3025
C63_4 C 0.2210(4) 0.7375(5) 0.3615(5)
C64_4 C 0.1508(7) 0.8163(8) 0.1704(10)
H46_4 H 0.1416 0.8288 0.1319
H47_4 H 0.1479 0.8372 0.2006
H48_4 H 0.1802 0.8076 0.1736
C65_4 C 0.0411(4) 0.8420(4) 0.3501(4)
C66_4 C 0.0175(5) 0.8613(5) 0.3907(5)
C67_4 C 0.0285(4) 0.8520(4) 0.4499(5)
H49_4 H 0.0132 0.8645 0.4771
C68_4 C 0.0616(4) 0.8246(4) 0.4698(4)
C69_4 C 0.0851(3) 0.8044(5) 0.4289(5)
H50_4 H 0.1072 0.7852 0.4420
C70_4 C 0.0742(4) 0.8142(6) 0.3689(5)
H51_4 H 0.0894 0.8019 0.3414
C71_4 C 0.0713(3) 0.8128(4) 0.5345(4)
O41_4 O 0.0023(2) 0.7246(3) 0.3593(3)
O42_4 O 0.0534(3) 0.6887(3) 0.4435(3)
O43_2 O 0.0011(3) 0.7356(3) 0.6363(3)
O50_4 O 0.0140(4) 0.8893(4) 0.1320(5)
C76_4 C 0.0164(3) 0.7196(3) 0.5207(4)
H58_4 H 0.0340 0.7055 0.5513
C77_4 C 0.0220(3) 0.7133(3) 0.4607(4)
C82_4 C 0.0878(5) 0.6743(7) 0.4880(7)
H61_4 H 0.1076 0.6573 0.4696
H62_4 H 0.1025 0.6989 0.5071
H63_4 H 0.0764 0.6571 0.5169
C98_4 C 0.0506(17) 0.8944(18) 0.116(2)
H73_4 H 0.0667 0.9158 0.1403
H74_4 H 0.0660 0.8675 0.1195
H75_4 H 0.0468 0.9037 0.0750
P7_4 P 0.25573(8) 0.56674(8) 0.80539(12)
P8_4 P 0.23623(9) 0.50815(8) 0.71451(13)
P9_4 P 0.31974(9) 0.53317(8) 0.75198(12)
O53_4 O 0.2410(2) 0.6151(2) 0.8013(4)
O54_4 O 0.2365(2) 0.6985(2) 0.7959(4)
O55_4 O 0.0455(2) 0.6748(3) 0.7731(5)
O56_2 O 0.0780(3) 0.7367(3) 0.7741(5)
O57_4 O 0.2064(3) 0.5216(3) 0.6543(4)
O58_4 O 0.1253(5) 0.5246(4) 0.6462(8)
O59_4 O 0.0834(3) 0.6822(3) 0.6388(4)
O61_4 O 0.3549(3) 0.5529(3) 0.7166(4)
O62_4 O 0.3554(6) 0.5209(6) 0.6079(8)
O63_4 O 0.2991(3) 0.6978(2) 0.5238(4)
O64_4 O 0.3137(4) 0.6444(3) 0.4646(4)
O65_4 O 0.2553(3) 0.5531(3) 0.8720(4)
O66_4 O 0.2367(6) 0.6177(6) 0.9361(7)
O69_4 O 0.2200(3) 0.4594(2) 0.7156(4)
O70_4 O 0.2498(3) 0.4478(3) 0.8291(4)
O73_4 O 0.3498(3) 0.5014(2) 0.7955(3)
O74_4 O 0.3828(3) 0.4548(3) 0.8844(3)
O79_4 O 0.1309(13) 0.7278(8) 0.9347(12)
O80_4 O 0.2901(5) 0.7952(4) 0.4791(6)
N7_4 N 0.2228(3) 0.5356(3) 0.7670(4)
N8_4 N 0.2855(3) 0.5076(3) 0.7073(4)
N9_4 N 0.3033(3) 0.5686(3) 0.7920(4)
C99_4 C 0.2002(3) 0.6333(3) 0.8001(5)
C100_4 C 0.1979(3) 0.6778(3) 0.7933(5)
C101_4 C 0.1584(3) 0.6977(3) 0.7872(5)
H76_4 H 0.1568 0.7276 0.7824
C102_4 C 0.1214(3) 0.6746(3) 0.7882(5)
C103_4 C 0.1231(4) 0.6299(3) 0.7951(6)
H77_4 H 0.0981 0.6139 0.7947
C104_4 C 0.1636(4) 0.6093(3) 0.8028(6)
H78_4 H 0.1656 0.5797 0.8097
C105_4 C 0.0784(3) 0.6970(4) 0.7782(5)
C106_4 C 0.2347(5) 0.7442(3) 0.7946(10)
H79_4 H 0.2631 0.7557 0.7964
H80_4 H 0.2172 0.7536 0.7586
H81_4 H 0.2225 0.7544 0.8281
C107_4 C 0.1873(4) 0.5618(4) 0.6475(5)
C108_4 C 0.1428(5) 0.5625(4) 0.6435(8)
C109_4 C 0.1230(4) 0.6021(4) 0.6370(7)
H82_4 H 0.0932 0.6033 0.6304
C110_4 C 0.1464(3) 0.6408(3) 0.6400(5)
C111_4 C 0.1903(4) 0.6393(4) 0.6408(7)
H83_4 H 0.2057 0.6645 0.6369
C112_4 C 0.2115(4) 0.5995(4) 0.6475(7)
H84_4 H 0.2412 0.5982 0.6519
C113_4 C 0.1228(3) 0.6833(3) 0.6386(4)
C114_4 C 0.082(3) 0.518(3) 0.639(3)
H85_4 H 0.0754 0.4880 0.6395
H86_4 H 0.0702 0.5322 0.6710
H87_4 H 0.0684 0.5305 0.6019
C115_4 C 0.3423(4) 0.5794(4) 0.6678(6)
C116_4 C 0.3426(10) 0.5634(9) 0.6101(13)
C117_4 C 0.3306(8) 0.5878(5) 0.5619(7)
H88_4 H 0.3292 0.5760 0.5241
C118_4 C 0.3203(3) 0.6307(3) 0.5685(5)
C119_4 C 0.3162(5) 0.6463(4) 0.6239(6)
H89_4 H 0.3044 0.6734 0.6281
C120_4 C 0.3299(5) 0.6210(4) 0.6731(5)
H90_4 H 0.3306 0.6327 0.7108
C121_4 C 0.3101(9) 0.6598(8) 0.5173(11)
C122_4 C 0.3906(8) 0.5092(9) 0.5790(12)
H91_4 H 0.3871 0.5220 0.5402
H92_4 H 0.4168 0.5194 0.6019
H93_4 H 0.3917 0.4784 0.5755
C123_4 C 0.2853(3) 0.5713(4) 0.9163(5)
C124_4 C 0.2744(3) 0.6059(4) 0.9499(6)
C125_4 C 0.3051(4) 0.6242(4) 0.9931(6)
C127_4 C 0.3575(3) 0.5734(4) 0.9692(6)
H95_4 H 0.3853 0.5625 0.9756
C128_4 C 0.3268(4) 0.5551(4) 0.9259(5)
H96_4 H 0.3341 0.5319 0.9035
C130_4 C 0.2221(19) 0.6595(18) 0.950(6)
H97_4 H 0.1919 0.6619 0.9357
H98_4 H 0.2275 0.6638 0.9920
H99_4 H 0.2372 0.6810 0.9308
C131_4 C 0.2482(5) 0.4262(4) 0.7330(6)
C132_4 C 0.2621(4) 0.4180(4) 0.7919(5)
C133_4 C 0.2906(5) 0.3834(4) 0.8091(7)
H100_4 H 0.3002 0.3780 0.8491
C134_4 C 0.3037(3) 0.3580(3) 0.7664(5)
C135_4 C 0.2882(4) 0.3666(4) 0.7044(5)
H101_4 H 0.2965 0.3488 0.6754
C136_4 C 0.2617(5) 0.4007(4) 0.6879(6)
H102_4 H 0.2527 0.4069 0.6480
C137_4 C 0.3363(5) 0.3237(4) 0.7822(6)
C138_4 C 0.2663(5) 0.4444(4) 0.8872(6)
H103_4 H 0.2546 0.4667 0.9090
H104_4 H 0.2590 0.4167 0.9017
H105_4 H 0.2969 0.4472 0.8921
C139_4 C 0.3704(3) 0.4659(3) 0.7806(4)
C140_4 C 0.3895(3) 0.4399(3) 0.8298(4)
C141_4 C 0.4110(3) 0.4037(3) 0.8193(4)
H106_4 H 0.4228 0.3865 0.8512
C142_4 C 0.4161(3) 0.3914(3) 0.7618(4)
C143_4 C 0.3967(4) 0.4159(3) 0.7140(4)
H107_4 H 0.3994 0.4077 0.6755
C144_4 C 0.3733(4) 0.4526(4) 0.7231(5)
H108_4 H 0.3596 0.4682 0.6908
C145_4 C 0.4407(3) 0.3521(3) 0.7516(4)
C146_4 C 0.3951(7) 0.4271(5) 0.9316(6)
H109_4 H 0.3891 0.4402 0.9676
H110_4 H 0.3794 0.4005 0.9249
H111_4 H 0.4252 0.4213 0.9351
C147_4 C 0.0008(12) 0.9524(14) 0.6056(18)
C148_4 C 0.0259(18) 0.9934(17) 0.623(2)
H114_4 H 0.0557 0.9887 0.6207
O102_2 O 0.0485(3) 0.7849(3) 0.8955(4)
H119_4 H 0.103696 0.714124 0.941772
H120_4 H 0.145792 0.740491 0.972369
O37_4 O 0.0161(13) 0.9375(13) 0.8519(18)
O38_4 O 0.0044(13) 0.9326(13) 0.9433(18)
C49_4 C 0.0165(3) 0.7474(3) 0.9668(4)
C55_4 C 0.0213(3) 0.7552(3) 0.9053(5)
P5_6 P 1.0000 0.81674(16) 0.2500
O12_4 O 0.6863(4) 0.6444(3) 0.0354(4)
O25_4 O 0.9977(2) 0.7246(3) 0.1407(3)
O26_4 O 0.9466(3) 0.6887(3) 0.0565(3)
O34_4 O 0.9860(4) 0.8893(4) 0.3680(5)
O40_4 O 0.7099(5) 0.7952(4) 0.0209(6)
N5_6 N 1.0000 0.7143(6) 0.2500
C51_4 C 0.9780(3) 0.7133(3) 0.0393(4)
C56_4 C 0.9122(5) 0.6743(7) 0.0120(7)
H40_4 H 0.8924 0.6573 0.0304
C72_4 C 0.9494(17) 0.8944(18) 0.384(2)
H52_4 H 0.9333 0.9158 0.3597
H53_4 H 0.9340 0.8675 0.3805
H54_4 H 0.9532 0.9037 0.4250
P6_4 P 0.97730(8) 0.73954(11) 0.29718(10)
O44_2 O 0.9515(3) 0.7849(3) 0.6045(4)
O45_4 O 0.9314(2) 0.7191(3) 0.3010(3)
O46_4 O 0.8750(3) 0.7798(4) 0.3223(4)
O47_4 O 0.7519(3) 0.7654(3) 0.1483(5)
O48_4 O 0.7706(3) 0.7101(3) 0.0960(4)
O49_4 O 0.9709(3) 0.8506(3) 0.2100(3)
N6_4 N 0.9722(3) 0.7890(4) 0.2897(4)
C75_4 C 0.9835(3) 0.7474(3) 0.5332(4)
C78_4 C 0.9936(3) 0.7336(4) 0.4157(4)
C79_4 C 0.9620(3) 0.7592(5) 0.4282(4)
H59_4 H 0.9439 0.7727 0.3974
C80_4 C 0.9561(4) 0.7658(4) 0.4862(5)
H60_4 H 0.9333 0.7828 0.4940
C81_4 C 0.9787(3) 0.7552(3) 0.5947(5)
C83_4 C 0.8964(4) 0.7283(4) 0.2571(5)
C84_4 C 0.8661(3) 0.7588(5) 0.2700(5)
C85_4 C 0.8287(3) 0.7615(5) 0.2284(5)
H64_4 H 0.8076 0.7809 0.2356
C86_4 C 0.8213(3) 0.7369(5) 0.1768(5)
C87_4 C 0.8525(4) 0.7075(6) 0.1651(6)
H65_4 H 0.8479 0.6901 0.1315
C88_4 C 0.8912(4) 0.7048(5) 0.2058(6)
H66_4 H 0.9133 0.6870 0.1975
C89_4 C 0.7790(4) 0.7375(5) 0.1385(5)
C90_4 C 0.8492(7) 0.8163(8) 0.3296(10)
H67_4 H 0.8584 0.8288 0.3681
H68_4 H 0.8521 0.8372 0.2994
H69_4 H 0.8198 0.8076 0.3264
C91_4 C 0.9589(4) 0.8420(4) 0.1499(4)
C92_4 C 0.9825(5) 0.8613(5) 0.1093(5)
C93_4 C 0.9715(4) 0.8520(4) 0.0501(5)
H70_4 H 0.9868 0.8645 0.0229
C94_4 C 0.9384(4) 0.8246(4) 0.0302(4)
C95_4 C 0.9149(3) 0.8044(5) 0.0711(5)
H71_4 H 0.8928 0.7852 0.0580
C96_4 C 0.9258(4) 0.8142(6) 0.1311(5)
H72_4 H 0.9106 0.8019 0.1586
O77_4 O 0.9839(13) 0.9375(13) 0.6481(18)
O78_4 O 0.9956(13) 0.9326(13) 0.5567(18)
P1_4 P 0.74427(8) 0.56674(8) 0.69461(12)
P2_4 P 0.76377(9) 0.50815(8) 0.78549(13)
P3_4 P 0.68026(9) 0.53317(8) 0.74802(12)
O1_4 O 0.7590(2) 0.6151(2) 0.6987(4)
O2_4 O 0.7635(2) 0.6985(2) 0.7041(4)
O3_4 O 0.9545(2) 0.6748(3) 0.7269(5)
O4_4 O 0.9220(3) 0.7367(3) 0.7259(5)
O5_4 O 0.7936(3) 0.5216(3) 0.8457(4)
O6_4 O 0.8747(5) 0.5246(4) 0.8538(8)
O7_4 O 0.9166(3) 0.6822(3) 0.8612(4)
O9_4 O 0.6451(3) 0.5529(3) 0.7834(4)
O10_4 O 0.6446(6) 0.5209(6) 0.8921(8)
O11_4 O 0.7009(3) 0.6978(2) 0.9762(4)
O13_4 O 0.7447(3) 0.5531(3) 0.6280(4)
O14_4 O 0.7633(6) 0.6177(6) 0.5639(7)
O17_4 O 0.7800(3) 0.4594(2) 0.7844(4)
O18_4 O 0.7502(3) 0.4478(3) 0.6709(4)
O21_4 O 0.6502(3) 0.5014(2) 0.7045(3)
O22_4 O 0.6172(3) 0.4548(3) 0.6156(3)
O27_4 O 0.9989(3) 0.7356(3) 0.8637(3)
O39_4 O 0.8691(13) 0.7278(8) 0.5653(12)
N1_4 N 0.7772(3) 0.5356(3) 0.7330(4)
N2_4 N 0.7145(3) 0.5076(3) 0.7927(4)
N3_4 N 0.6967(3) 0.5686(3) 0.7080(4)
C1_4 C 0.7998(3) 0.6333(3) 0.6999(5)
C2_4 C 0.8021(3) 0.6778(3) 0.7067(5)
C3_4 C 0.8416(3) 0.6977(3) 0.7128(5)
H1_4 H 0.8432 0.7276 0.7176
C4_4 C 0.8786(3) 0.6746(3) 0.7118(5)
C5_4 C 0.8769(4) 0.6299(3) 0.7049(6)
H2_4 H 0.9019 0.6139 0.7053
C6_4 C 0.8364(4) 0.6093(3) 0.6972(6)
H3_4 H 0.8344 0.5797 0.6903
C7_4 C 0.9216(3) 0.6970(4) 0.7218(5)
C8_4 C 0.7653(5) 0.7442(3) 0.7054(10)
H4_4 H 0.7369 0.7557 0.7036
H5_4 H 0.7828 0.7536 0.7414
H6_4 H 0.7775 0.7544 0.6719
C9_4 C 0.8127(4) 0.5618(4) 0.8525(5)
C10_4 C 0.8572(5) 0.5625(4) 0.8565(8)
C11_4 C 0.8770(4) 0.6021(4) 0.8630(7)
H7_4 H 0.9068 0.6033 0.8696
C12_4 C 0.8536(3) 0.6408(3) 0.8600(5)
C13_4 C 0.8097(4) 0.6393(4) 0.8592(7)
H8_4 H 0.7943 0.6645 0.8631
C14_4 C 0.7885(4) 0.5995(4) 0.8525(7)
H9_4 H 0.7588 0.5982 0.8481
C15_4 C 0.8772(3) 0.6833(3) 0.8614(4)
C16_4 C 0.918(3) 0.518(3) 0.861(3)
H10_4 H 0.9246 0.4880 0.8605
H11_4 H 0.9298 0.5322 0.8290
H12_4 H 0.9316 0.5305 0.8981
C17_4 C 0.6577(4) 0.5794(4) 0.8322(6)
C18_4 C 0.6574(10) 0.5634(9) 0.8899(13)
C19_4 C 0.6694(8) 0.5878(5) 0.9381(7)
H13_4 H 0.6708 0.5760 0.9759
C20_4 C 0.6797(3) 0.6307(3) 0.9315(5)
C21_4 C 0.6838(5) 0.6463(4) 0.8761(6)
H14_4 H 0.6956 0.6734 0.8719
C22_4 C 0.6701(5) 0.6210(4) 0.8269(5)
H15_4 H 0.6694 0.6327 0.7892
C23_4 C 0.6899(9) 0.6598(8) 0.9827(11)
C24_4 C 0.6094(8) 0.5092(9) 0.9210(12)
H16_4 H 0.6129 0.5220 0.9598
H17_4 H 0.5832 0.5194 0.8981
H18_4 H 0.6083 0.4784 0.9245
C25_4 C 0.7147(3) 0.5713(4) 0.5837(5)
C26_4 C 0.7256(3) 0.6059(4) 0.5501(6)
C27_4 C 0.6949(4) 0.6242(4) 0.5069(6)
H19_4 H 0.7022 0.6473 0.4844
C28_4 C 0.6534(4) 0.6080(4) 0.4972(6)
C29_4 C 0.6425(3) 0.5734(4) 0.5308(6)
H20_4 H 0.6147 0.5625 0.5244
C30_4 C 0.6732(4) 0.5551(4) 0.5741(5)
H21_4 H 0.6659 0.5319 0.5965
C31_4 C 0.6214(6) 0.6256(10) 0.4478(12)
C32_4 C 0.7779(19) 0.6595(18) 0.550(6)
H22_4 H 0.8081 0.6619 0.5643
H23_4 H 0.7725 0.6638 0.5080
H24_4 H 0.7628 0.6810 0.5692
C33_4 C 0.7518(5) 0.4262(4) 0.7670(6)
C34_4 C 0.7379(4) 0.4180(4) 0.7081(5)
C35_4 C 0.7094(5) 0.3834(4) 0.6909(7)
H25_4 H 0.6998 0.3780 0.6509
C36_4 C 0.6963(3) 0.3580(3) 0.7336(5)
C37_4 C 0.7118(4) 0.3666(4) 0.7956(5)
H26_4 H 0.7035 0.3488 0.8246
C38_4 C 0.7383(5) 0.4007(4) 0.8121(6)
H27_4 H 0.7473 0.4069 0.8520
C39_4 C 0.6637(5) 0.3237(4) 0.7178(6)
C40_4 C 0.7337(5) 0.4444(4) 0.6128(6)
H28_4 H 0.7454 0.4667 0.5910
H29_4 H 0.7410 0.4167 0.5983
H30_4 H 0.7031 0.4472 0.6079
C41_4 C 0.6296(3) 0.4659(3) 0.7194(4)
C42_4 C 0.6105(3) 0.4399(3) 0.6702(4)
C43_4 C 0.5890(3) 0.4037(3) 0.6807(4)
H31_4 H 0.5772 0.3865 0.6488
C44_4 C 0.5839(3) 0.3914(3) 0.7382(4)
C45_4 C 0.6033(4) 0.4159(3) 0.7860(4)
H32_4 H 0.6006 0.4077 0.8245
C46_4 C 0.6267(4) 0.4526(4) 0.7769(5)
H33_4 H 0.6404 0.4682 0.8092
C47_4 C 0.5593(3) 0.3521(3) 0.7484(4)
C48_4 C 0.6049(7) 0.4271(5) 0.5684(6)
H34_4 H 0.6109 0.4402 0.5324
H35_4 H 0.6206 0.4005 0.5751
H36_4 H 0.5748 0.4213 0.5649
C50_4 C 0.9836(3) 0.7196(3) 0.9793(4)
H37_4 H 0.9660 0.7055 0.9487
H41_4 H 0.8975 0.6989 0.9929
H42_4 H 0.9236 0.6571 0.9831
C73_4 C 0.9992(12) 0.9524(14) 0.8944(18)
C74_4 C 0.9741(18) 0.9934(17) 0.877(2)
H57_4 H 0.9443 0.9887 0.8793
O52_4 O 0.9504(3) 0.8286(3) 0.9293(3)
C97_4 C 0.9287(3) 0.8128(4) 0.9655(4)
H115_4 H 0.896304 0.714124 0.558228
H116_4 H 0.854208 0.740491 0.527631
H122_4 H 0.691843 0.796393 0.98113
H55_3 H 0.0150 0.9836 0.0970
H56_3 H 0.0230 0.9990 0.1633
H112_3 H 0.9850 0.9836 0.4030
H113_3 H 0.9770 0.9990 0.3367
H112_4 H 0.0150 0.0164 0.5970
H113_4 H 0.0230 0.0010 0.6633
H55_4 H 0.9850 0.0164 0.9030
H56_4 H 0.9770 0.0010 0.8367
loop_
_geom_bond_atom_site_label_1
_geom_bond_atom_site_label_2
_geom_bond_site_symmetry_1
_geom_bond_site_symmetry_2
O18 C34 1_555 1_555
O19 C39 1_555 1_555
O20 C39 1_555 1_555
O22 C42 1_555 1_555
O23 C47 1_555 1_555
O24 C47 1_555 1_555
C33 O17 1_555 1_555
C34 C33 1_555 1_555
C35 C34 1_555 1_555
H25 C35 1_555 1_555
C36 C35 1_555 1_555
C37 C36 1_555 1_555
H26 C37 1_555 1_555
C38 C33 1_555 1_555
H27 C38 1_555 1_555
C39 C36 1_555 1_555
C40 O18 1_555 1_555
H28 C40 1_555 1_555
H29 C40 1_555 1_555
H30 C40 1_555 1_555
C42 C41 1_555 1_555
C43 C42 1_555 1_555
H31 C43 1_555 1_555
C44 C43 1_555 1_555
C45 C44 1_555 1_555
H32 C45 1_555 1_555
C46 C41 1_555 1_555
H33 C46 1_555 1_555
C47 C44 1_555 1_555
C48 O22 1_555 1_555
H34 C48 1_555 1_555
H35 C48 1_555 1_555
H36 C48 1_555 1_555
Pb13 O19 1_555 1_555
Pb17 O19 1_555 1_555
Pb19 O20 1_555 1_555
Pb24_2 O23 1_555 1_555
Pb26 O24 1_555 1_555
O20 Pb17 1_555 1_555
O23 Pb17 1_555 1_555
O24 Pb13 1_555 1_555
C37 C38 1_555 1_555
C45 C46 1_555 1_555
O70 C132 1_555 1_555
O71 C137 1_555 1_555
O72 C137 1_555 1_555
O74 C140 1_555 1_555
O75 C145 1_555 1_555
O76 C145 1_555 1_555
C131 O69 1_555 1_555
C132 C131 1_555 1_555
C133 C132 1_555 1_555
H100 C133 1_555 1_555
C134 C133 1_555 1_555
C135 C134 1_555 1_555
H101 C135 1_555 1_555
C136 C131 1_555 1_555
H102 C136 1_555 1_555
C137 C134 1_555 1_555
C138 O70 1_555 1_555
H103 C138 1_555 1_555
H104 C138 1_555 1_555
H105 C138 1_555 1_555
C140 C139 1_555 1_555
C141 C140 1_555 1_555
H106 C141 1_555 1_555
C142 C141 1_555 1_555
C143 C142 1_555 1_555
H107 C143 1_555 1_555
C144 C139 1_555 1_555
H108 C144 1_555 1_555
C145 C142 1_555 1_555
C146 O74 1_555 1_555
H109 C146 1_555 1_555
H110 C146 1_555 1_555
H111 C146 1_555 1_555
Pb12 O71 1_555 1_555
Pb16 O71 1_555 1_555
Pb18 O72 1_555 1_555
Pb24 O75 1_555 1_555
Pb28 O76 1_555 1_555
O72 Pb16 1_555 1_555
O75 Pb16 1_555 1_555
O76 Pb12 1_555 1_555
C135 C136 1_555 1_555
C143 C144 1_555 1_555
Pb1 O4 1_555 1_555
Pb2 O7 1_555 1_555
Pb4 O4 1_555 1_555
Pb5 O28 1_555 1_555
P1 O1 1_555 1_555
P2 O5 1_555 1_555
P3 O9 1_555 1_555
O1 C1 1_555 1_555
O2 C2 1_555 1_555
O3 C7 1_555 1_555
O4 C7 1_555 1_555
O5 C9 1_555 1_555
O6 C10 1_555 1_555
O7 C15 1_555 1_555
O8 Pb2 1_555 1_555
O9 C17 1_555 1_555
O10 C18 1_555 1_555
O11 C23 1_555 1_555
O13 P1 1_555 1_555
O14 C26 1_555 1_555
O15 C31 1_555 1_555
O16 C31 1_555 1_555
O21 P3 1_555 1_555
O27 Pb4 1_555 1_555
O28 C55 1_555 1_555
O37 Pb5 1_555 1_555
O38 Pb5 1_555 1_555
O39 Pb1 1_555 1_555
N1 P1 1_555 1_555
N2 P2 1_555 1_555
N3 P1 1_555 1_555
C1 C2 1_555 1_555
C2 C3 1_555 1_555
C3 H1 1_555 1_555
C4 C3 1_555 1_555
C5 C4 1_555 1_555
H2 C5 1_555 1_555
C6 C1 1_555 1_555
H3 C6 1_555 1_555
C7 C4 1_555 1_555
C8 O2 1_555 1_555
H4 C8 1_555 1_555
H5 C8 1_555 1_555
H6 C8 1_555 1_555
C9 C10 1_555 1_555
C10 C11 1_555 1_555
C11 H7 1_555 1_555
C12 C11 1_555 1_555
C13 C12 1_555 1_555
H8 C13 1_555 1_555
C14 C9 1_555 1_555
H9 C14 1_555 1_555
C15 O8 1_555 1_555
C16 O6 1_555 1_555
H11 C16 1_555 1_555
H12 C16 1_555 1_555
C17 C18 1_555 1_555
C18 C19 1_555 1_555
C19 H13 1_555 1_555
C20 C19 1_555 1_555
C21 C20 1_555 1_555
H14 C21 1_555 1_555
C22 C17 1_555 1_555
H15 C22 1_555 1_555
C24 O10 1_555 1_555
H16 C24 1_555 1_555
H17 C24 1_555 1_555
C25 O13 1_555 1_555
C26 C25 1_555 1_555
C27 C26 1_555 1_555
H19 C27 1_555 1_555
C28 C27 1_555 1_555
C29 C28 1_555 1_555
H20 C29 1_555 1_555
C30 C25 1_555 1_555
H21 C30 1_555 1_555
C31 C28 1_555 1_555
C32 O14 1_555 1_555
H22 C32 1_555 1_555
H23 C32 1_555 1_555
H24 C32 1_555 1_555
C49 C50 1_555 1_555
C50 H37 1_555 1_555
C55 O27 1_555 1_555
C73 O37 1_555 1_555
C74 C73 1_555 1_555
H55 C74 1_555 1_555
H56 C74 1_555 1_555
H57 C74 1_555 1_555
O51 Pb2 1_555 1_555
O52 Pb2 1_555 1_555
C97 O51 1_555 1_555
Pb11 O28 1_555 1_555
Pb14 O15 1_555 1_555
Pb20 O8 1_555 1_555
Pb30 O16 1_555 1_555
O81 Pb4 1_555 1_555
O84 Pb1 1_555 1_555
O87 Pb5 1_555 1_555
O89 Pb1 1_555 1_555
O91 Pb2 1_555 1_555
O95 Pb4 1_555 1_555
O96 Pb2 1_555 1_555
O98 Pb5 1_555 1_555
O100 Pb1 1_555 1_555
O101 Pb4 1_555 1_555
O103 Pb1 1_555 1_555
Pb2 O89 1_555 1_555
Pb4 O96 1_555 1_555
Pb5 O52 1_555 1_555
Pb5 O96 1_555 1_555
P2 N1 1_555 1_555
P3 N2 1_555 1_555
P3 N3 1_555 1_555
O38 C73 1_555 1_555
C5 C6 1_555 1_555
C12 C15 1_555 1_555
C13 C14 1_555 1_555
C20 C23 1_555 1_555
C21 C22 1_555 1_555
C29 C30 1_555 1_555
C49 C55 1_555 1_555
O51 Pb20 1_555 1_555
O52 C97 1_555 1_555
Pb11 O81 1_555 1_555
Pb11 O98 1_555 1_555
Pb20 O91 1_555 1_555
O39 H115 1_555 1_555
O39 H116 1_555 1_555
P4 O25 1_555 1_555
P5 O33 1_555 1_555
O12 Pb3 1_555 1_555
O25 C52 1_555 1_555
O26 C51 1_555 1_555
O29 P4 1_555 1_555
O30 C58 1_555 1_555
O31 C63 1_555 1_555
O32 C63 1_555 1_555
O33 C65 1_555 1_555
O34 C66 1_555 1_555
O35 C71 1_555 1_555
O36 C71 1_555 1_555
O40 Pb3 1_555 1_555
N4 P4 1_555 1_555
N5 P4 1_555 1_555
C52 C51 1_555 1_555
C53 C52 1_555 1_555
H38 C53 1_555 1_555
H39 C54 1_555 1_555
C56 O26 1_555 1_555
H40 C56 1_555 1_555
C57 O29 1_555 1_555
C58 C57 1_555 1_555
C59 C58 1_555 1_555
H43 C59 1_555 1_555
C60 C59 1_555 1_555
C61 C60 1_555 1_555
H44 C61 1_555 1_555
C62 C57 1_555 1_555
H45 C62 1_555 1_555
C63 C60 1_555 1_555
C64 O30 1_555 1_555
H46 C64 1_555 1_555
H47 C64 1_555 1_555
H48 C64 1_555 1_555
C65 C66 1_555 1_555
C66 C67 1_555 1_555
C67 H49 1_555 1_555
C68 C67 1_555 1_555
C69 C68 1_555 1_555
H50 C69 1_555 1_555
C70 C65 1_555 1_555
H51 C70 1_555 1_555
C71 C68 1_555 1_555
C72 O34 1_555 1_555
H52 C72 1_555 1_555
H53 C72 1_555 1_555
H54 C72 1_555 1_555
P6 N5 1_555 1_555
O41 P6 1_555 1_555
O42 C77 1_555 1_555
O101 C81 1_555 1_555
O103 C81 1_555 1_555
O45 P6 1_555 1_555
O46 C84 1_555 1_555
O47 Pb3 1_555 1_555
O48 Pb3 1_555 1_555
O49 P5 1_555 1_555
O50 C92 1_555 1_555
N6 P5 1_555 1_555
C75 C76 1_555 1_555
C76 H58 1_555 1_555
C77 C76 1_555 1_555
C78 O41 1_555 1_555
C79 C78 1_555 1_555
H59 C79 1_555 1_555
C80 C75 1_555 1_555
H60 C80 1_555 1_555
C81 C75 1_555 1_555
C82 O42 1_555 1_555
H61 C82 1_555 1_555
H62 C82 1_555 1_555
H63 C82 1_555 1_555
C83 O45 1_555 1_555
C84 C83 1_555 1_555
C85 C84 1_555 1_555
H64 C85 1_555 1_555
C86 C85 1_555 1_555
C87 C86 1_555 1_555
H65 C87 1_555 1_555
C88 C83 1_555 1_555
H66 C88 1_555 1_555
C89 O47 1_555 1_555
C90 O46 1_555 1_555
H67 C90 1_555 1_555
H68 C90 1_555 1_555
H69 C90 1_555 1_555
C91 O49 1_555 1_555
C92 C91 1_555 1_555
C93 C92 1_555 1_555
H70 C93 1_555 1_555
C94 C93 1_555 1_555
C95 C94 1_555 1_555
H71 C95 1_555 1_555
C96 C91 1_555 1_555
H72 C96 1_555 1_555
C98 O50 1_555 1_555
H73 C98 1_555 1_555
H74 C98 1_555 1_555
H75 C98 1_555 1_555
Pb7 O35 1_555 1_555
Pb8 O31 1_555 1_555
Pb9 O36 1_555 1_555
P7 O53 1_555 1_555
P8 O57 1_555 1_555
P9 O61 1_555 1_555
O53 C99 1_555 1_555
O54 C100 1_555 1_555
O55 C105 1_555 1_555
O81 C105 1_555 1_555
O57 C107 1_555 1_555
O58 C108 1_555 1_555
O59 Pb7 1_555 1_555
O60 Pb7 1_555 1_555
O61 C115 1_555 1_555
O62 C116 1_555 1_555
O63 Pb8 1_555 1_555
O64 Pb8 1_555 1_555
O65 P7 1_555 1_555
O66 C124 1_555 1_555
O73 P9 1_555 1_555
O77 Pb9 1_555 1_555
O78 Pb9 1_555 1_555
O79 Pb11 1_555 1_555
O80 Pb8 1_555 1_555
N7 P7 1_555 1_555
N8 P8 1_555 1_555
N9 P7 1_555 1_555
C99 C100 1_555 1_555
C100 C101 1_555 1_555
C101 H76 1_555 1_555
C102 C101 1_555 1_555
C103 C102 1_555 1_555
H77 C103 1_555 1_555
C104 C99 1_555 1_555
H78 C104 1_555 1_555
C105 C102 1_555 1_555
C106 O54 1_555 1_555
H79 C106 1_555 1_555
H80 C106 1_555 1_555
H81 C106 1_555 1_555
C107 C108 1_555 1_555
C108 C109 1_555 1_555
C109 H82 1_555 1_555
C110 C109 1_555 1_555
C111 C110 1_555 1_555
H83 C111 1_555 1_555
C112 C107 1_555 1_555
H84 C112 1_555 1_555
C113 O59 1_555 1_555
C114 O58 1_555 1_555
H86 C114 1_555 1_555
H87 C114 1_555 1_555
C115 C116 1_555 1_555
C116 C117 1_555 1_555
C117 H88 1_555 1_555
C118 C117 1_555 1_555
C119 C118 1_555 1_555
H89 C119 1_555 1_555
C120 C115 1_555 1_555
H90 C120 1_555 1_555
C121 O63 1_555 1_555
C122 O62 1_555 1_555
H91 C122 1_555 1_555
H92 C122 1_555 1_555
C123 O65 1_555 1_555
C124 C123 1_555 1_555
C125 C124 1_555 1_555
H95 C127 1_555 1_555
C128 C123 1_555 1_555
H96 C128 1_555 1_555
C130 O66 1_555 1_555
H97 C130 1_555 1_555
H98 C130 1_555 1_555
H99 C130 1_555 1_555
C147 O77 1_555 1_555
C148 C147 1_555 1_555
H112 C148 1_555 1_555
H113 C148 1_555 1_555
H114 C148 1_555 1_555
Pb21 O35 1_555 1_555
O82 Pb3 1_555 1_555
O83 Pb8 1_555 1_555
O85 Pb11 1_555 1_555
O86 Pb9 1_555 1_555
O88 Pb11 1_555 1_555
O90 Pb7 1_555 1_555
O92 Pb8 1_555 1_555
O93 Pb3 1_555 1_555
O95 Pb7 1_555 1_555
O100 Pb9 1_555 1_555
O104 Pb8 1_555 1_555
O105 Pb3 1_555 1_555
P5 N4 1_555 1_555
O32 Pb8 1_555 1_555
O36 Pb7 1_555 1_555
C53 C54 1_555 1_555
C61 C62 1_555 1_555
C69 C70 1_555 1_555
P6 N6 1_555 1_555
O103 Pb9 1_555 1_555
O48 C89 1_555 1_555
C77 C78 1_555 1_555
C79 C80 1_555 1_555
C86 C89 1_555 1_555
C87 C88 1_555 1_555
C95 C96 1_555 1_555
Pb7 O88 1_555 1_555
Pb9 O95 1_555 1_555
P8 N7 1_555 1_555
P9 N8 1_555 1_555
P9 N9 1_555 1_555
O60 C113 1_555 1_555
O60 Pb21 1_555 1_555
O64 C121 1_555 1_555
O78 C147 1_555 1_555
C103 C104 1_555 1_555
C110 C113 1_555 1_555
C111 C112 1_555 1_555
C118 C121 1_555 1_555
C119 C120 1_555 1_555
C127 C128 1_555 1_555
Pb21 O90 1_555 1_555
O79 H119 1_555 1_555
O79 H120 1_555 1_555
O67 C129 1_555 1_555
O68 C129 1_555 1_555
C129 C126 1_555 1_555
Pb15 O67 1_555 1_555
Pb29 O68 1_555 1_555
Pb12 O4_2 1_555 1_555
Pb16 O7_2 1_555 1_555
Pb24 O4_2 1_555 1_555
P1_2 O1_2 1_555 1_555
P2_2 O5_2 1_555 1_555
P3_2 O9_2 1_555 1_555
O1_2 C1_2 1_555 1_555
O2_2 C2_2 1_555 1_555
O3_2 C7_2 1_555 1_555
O4_2 C7_2 1_555 1_555
O5_2 C9_2 1_555 1_555
O6_2 C10_2 1_555 1_555
O7_2 C15_2 1_555 1_555
O8_2 Pb16 1_555 1_555
O9_2 C17_2 1_555 1_555
O10_2 C18_2 1_555 1_555
O11_2 C23_2 1_555 1_555
O13_2 P1_2 1_555 1_555
O14_2 C26_2 1_555 1_555
O15_2 C31_2 1_555 1_555
O16_2 C31_2 1_555 1_555
O17_2 P2_2 1_555 1_555
O18_2 C34_2 1_555 1_555
O88 C39_2 1_555 1_555
O90 C39_2 1_555 1_555
O21_2 P3_2 1_555 1_555
O22_2 C42_2 1_555 1_555
O95 C47_2 1_555 1_555
O98 C47_2 1_555 1_555
O27_2 Pb24 1_555 1_555
O39_2 Pb12 1_555 1_555
N1_2 P1_2 1_555 1_555
N2_2 P2_2 1_555 1_555
N3_2 P1_2 1_555 1_555
C1_2 C2_2 1_555 1_555
C2_2 C3_2 1_555 1_555
C3_2 H1_2 1_555 1_555
C4_2 C3_2 1_555 1_555
C5_2 C4_2 1_555 1_555
H2_2 C5_2 1_555 1_555
C6_2 C1_2 1_555 1_555
H3_2 C6_2 1_555 1_555
C7_2 C4_2 1_555 1_555
C8_2 O2_2 1_555 1_555
H4_2 C8_2 1_555 1_555
H5_2 C8_2 1_555 1_555
H6_2 C8_2 1_555 1_555
C9_2 C10_2 1_555 1_555
C10_2 C11_2 1_555 1_555
C11_2 H7_2 1_555 1_555
C12_2 C11_2 1_555 1_555
C13_2 C12_2 1_555 1_555
H8_2 C13_2 1_555 1_555
C14_2 C9_2 1_555 1_555
H9_2 C14_2 1_555 1_555
C15_2 O8_2 1_555 1_555
C16_2 O6_2 1_555 1_555
H10_2 C16_2 1_555 1_555
H11_2 C16_2 1_555 1_555
H12_2 C16_2 1_555 1_555
C17_2 C18_2 1_555 1_555
C18_2 C19_2 1_555 1_555
C19_2 H13_2 1_555 1_555
C20_2 C19_2 1_555 1_555
C21_2 C20_2 1_555 1_555
H14_2 C21_2 1_555 1_555
C22_2 C17_2 1_555 1_555
H15_2 C22_2 1_555 1_555
C24_2 O10_2 1_555 1_555
H16_2 C24_2 1_555 1_555
H17_2 C24_2 1_555 1_555
H18_2 C24_2 1_555 1_555
C25_2 O13_2 1_555 1_555
C26_2 C25_2 1_555 1_555
C27_2 C26_2 1_555 1_555
H19_2 C27_2 1_555 1_555
C28_2 C27_2 1_555 1_555
C29_2 C28_2 1_555 1_555
H20_2 C29_2 1_555 1_555
C30_2 C25_2 1_555 1_555
H21_2 C30_2 1_555 1_555
C31_2 C28_2 1_555 1_555
C32_2 O14_2 1_555 1_555
H22_2 C32_2 1_555 1_555
H23_2 C32_2 1_555 1_555
H24_2 C32_2 1_555 1_555
C33_2 O17_2 1_555 1_555
C34_2 C33_2 1_555 1_555
C35_2 C34_2 1_555 1_555
H25_2 C35_2 1_555 1_555
C36_2 C35_2 1_555 1_555
C37_2 C36_2 1_555 1_555
H26_2 C37_2 1_555 1_555
C38_2 C33_2 1_555 1_555
H27_2 C38_2 1_555 1_555
C39_2 C36_2 1_555 1_555
C40_2 O18_2 1_555 1_555
H28_2 C40_2 1_555 1_555
H29_2 C40_2 1_555 1_555
H30_2 C40_2 1_555 1_555
C41_2 O21_2 1_555 1_555
C42_2 C41_2 1_555 1_555
C43_2 C42_2 1_555 1_555
H31_2 C43_2 1_555 1_555
C44_2 C43_2 1_555 1_555
C45_2 C44_2 1_555 1_555
H32_2 C45_2 1_555 1_555
C46_2 C41_2 1_555 1_555
H33_2 C46_2 1_555 1_555
C47_2 C44_2 1_555 1_555
C48_2 O22_2 1_555 1_555
H34_2 C48_2 1_555 1_555
H35_2 C48_2 1_555 1_555
H36_2 C48_2 1_555 1_555
C50_2 H37_2 1_555 1_555
C74_2 C73_2 1_555 1_555
H57_2 C74_2 1_555 1_555
O51_2 Pb16 1_555 1_555
O52_2 Pb16 1_555 1_555
C97_2 O51_2 1_555 1_555
Pb14_2 O15_2 1_555 1_555
Pb18 O8_2 1_555 1_555
Pb30_2 O16_2 1_555 1_555
O84_2 Pb12 1_555 1_555
O103_2 Pb12 1_555 1_555
P2_2 N1_2 1_555 1_555
P3_2 N2_2 1_555 1_555
P3_2 N3_2 1_555 1_555
C5_2 C6_2 1_555 1_555
C12_2 C15_2 1_555 1_555
C13_2 C14_2 1_555 1_555
C20_2 C23_2 1_555 1_555
C21_2 C22_2 1_555 1_555
C29_2 C30_2 1_555 1_555
C37_2 C38_2 1_555 1_555
C45_2 C46_2 1_555 1_555
O51_2 Pb18 1_555 1_555
O52_2 C97_2 1_555 1_555
O39_2 H115_2 1_555 1_555
O39_2 H116_2 1_555 1_555
O12_2 Pb3_2 1_555 1_555
O26_2 C51_2 1_555 1_555
O40_2 Pb3_2 1_555 1_555
C56_2 O26_2 1_555 1_555
H40_2 C56_2 1_555 1_555
C72_2 O34_2 1_555 1_555
H52_2 C72_2 1_555 1_555
H53_2 C72_2 1_555 1_555
H54_2 C72_2 1_555 1_555
P6_2 N5_2 1_555 1_555
O103_2 C81_2 1_555 1_555
O45_2 P6_2 1_555 1_555
O46_2 C84_2 1_555 1_555
O47_2 Pb3_2 1_555 1_555
O48_2 Pb3_2 1_555 1_555
O49_2 P5_2 1_555 1_555
N6_2 P5_2 1_555 1_555
C79_2 C78_2 1_555 1_555
H59_2 C79_2 1_555 1_555
C80_2 C75_2 1_555 1_555
H60_2 C80_2 1_555 1_555
C81_2 C75_2 1_555 1_555
C83_2 O45_2 1_555 1_555
C84_2 C83_2 1_555 1_555
C85_2 C84_2 1_555 1_555
H64_2 C85_2 1_555 1_555
C86_2 C85_2 1_555 1_555
C87_2 C86_2 1_555 1_555
H65_2 C87_2 1_555 1_555
C88_2 C83_2 1_555 1_555
H66_2 C88_2 1_555 1_555
C89_2 O47_2 1_555 1_555
C90_2 O46_2 1_555 1_555
H67_2 C90_2 1_555 1_555
H68_2 C90_2 1_555 1_555
H69_2 C90_2 1_555 1_555
C91_2 O49_2 1_555 1_555
C92_2 C91_2 1_555 1_555
C93_2 C92_2 1_555 1_555
H70_2 C93_2 1_555 1_555
C94_2 C93_2 1_555 1_555
C95_2 C94_2 1_555 1_555
H71_2 C95_2 1_555 1_555
C96_2 C91_2 1_555 1_555
H72_2 C96_2 1_555 1_555
O77_2 Pb28 1_555 1_555
O78_2 Pb28 1_555 1_555
O82_2 Pb3_2 1_555 1_555
O86_2 Pb28 1_555 1_555
O93_2 Pb3_2 1_555 1_555
O105_2 Pb3_2 1_555 1_555
P6_2 N6_2 1_555 1_555
O103_2 Pb28 1_555 1_555
O48_2 C89_2 1_555 1_555
C79_2 C80_2 1_555 1_555
C86_2 C89_2 1_555 1_555
C87_2 C88_2 1_555 1_555
C95_2 C96_2 1_555 1_555
Pb26 O28_2 1_555 1_555
O28_2 C55_2 1_555 1_555
O37_2 Pb26 1_555 1_555
O38_2 Pb26 1_555 1_555
Pb13 O28_2 1_555 1_555
O81_2 Pb24_2 1_555 1_555
O87_2 Pb26 1_555 1_555
O101_2 Pb24_2 1_555 1_555
C49_2 C55_2 1_555 1_555
Pb13 O81_2 1_555 1_555
P5_3 O33_2 1_555 1_555
O29_2 P4_2 1_555 1_555
O30_2 C58_2 1_555 1_555
O31_2 C63_2 1_555 1_555
O32_2 C63_2 1_555 1_555
O33_2 C65_2 1_555 1_555
O35_2 C71_2 1_555 1_555
O36_2 C71_2 1_555 1_555
N4_2 P4_2 1_555 1_555
N5_3 P4_2 1_555 1_555
C53_2 C52_2 1_555 1_555
H38_2 C53_2 1_555 1_555
H39_2 C54_2 1_555 1_555
C57_2 O29_2 1_555 1_555
C58_2 C57_2 1_555 1_555
C59_2 C58_2 1_555 1_555
H43_2 C59_2 1_555 1_555
C60_2 C59_2 1_555 1_555
C61_2 C60_2 1_555 1_555
H44_2 C61_2 1_555 1_555
C62_2 C57_2 1_555 1_555
H45_2 C62_2 1_555 1_555
C63_2 C60_2 1_555 1_555
C64_2 O30_2 1_555 1_555
H46_2 C64_2 1_555 1_555
H47_2 C64_2 1_555 1_555
H48_2 C64_2 1_555 1_555
C65_2 C66_2 1_555 1_555
C66_2 C67_2 1_555 1_555
C67_2 H49_2 1_555 1_555
C68_2 C67_2 1_555 1_555
C69_2 C68_2 1_555 1_555
H50_2 C69_2 1_555 1_555
C70_2 C65_2 1_555 1_555
H51_2 C70_2 1_555 1_555
C71_2 C68_2 1_555 1_555
O42_2 C77_2 1_555 1_555
C76_2 H58_2 1_555 1_555
C77_2 C76_2 1_555 1_555
C82_2 O42_2 1_555 1_555
H61_2 C82_2 1_555 1_555
H62_2 C82_2 1_555 1_555
H63_2 C82_2 1_555 1_555
C98_2 O50_2 1_555 1_555
H73_2 C98_2 1_555 1_555
H74_2 C98_2 1_555 1_555
H75_2 C98_2 1_555 1_555
Pb17 O35_2 1_555 1_555
Pb8_2 O31_2 1_555 1_555
P7_2 O53_2 1_555 1_555
P8_2 O57_2 1_555 1_555
P9_2 O61_2 1_555 1_555
O53_2 C99_2 1_555 1_555
O54_2 C100_2 1_555 1_555
O55_2 C105_2 1_555 1_555
O81_2 C105_2 1_555 1_555
O57_2 C107_2 1_555 1_555
O58_2 C108_2 1_555 1_555
O59_2 Pb17 1_555 1_555
O60_2 Pb17 1_555 1_555
O61_2 C115_2 1_555 1_555
O62_2 C116_2 1_555 1_555
O63_2 Pb8_2 1_555 1_555
O64_2 Pb8_2 1_555 1_555
O65_2 P7_2 1_555 1_555
O66_2 C124_2 1_555 1_555
O69_2 P8_2 1_555 1_555
O70_2 C132_2 1_555 1_555
O89 C137_2 1_555 1_555
O91 C137_2 1_555 1_555
O73_2 P9_2 1_555 1_555
O74_2 C140_2 1_555 1_555
O96 C145_2 1_555 1_555
O100 C145_2 1_555 1_555
O79_2 Pb13 1_555 1_555
O80_2 Pb8_2 1_555 1_555
N7_2 P7_2 1_555 1_555
N8_2 P8_2 1_555 1_555
N9_2 P7_2 1_555 1_555
C99_2 C100_2 1_555 1_555
C100_2 C101_2 1_555 1_555
C101_2 H76_2 1_555 1_555
C102_2 C101_2 1_555 1_555
C103_2 C102_2 1_555 1_555
H77_2 C103_2 1_555 1_555
C104_2 C99_2 1_555 1_555
H78_2 C104_2 1_555 1_555
C105_2 C102_2 1_555 1_555
C106_2 O54_2 1_555 1_555
H79_2 C106_2 1_555 1_555
H80_2 C106_2 1_555 1_555
H81_2 C106_2 1_555 1_555
C107_2 C108_2 1_555 1_555
C108_2 C109_2 1_555 1_555
C109_2 H82_2 1_555 1_555
C110_2 C109_2 1_555 1_555
C111_2 C110_2 1_555 1_555
H83_2 C111_2 1_555 1_555
C112_2 C107_2 1_555 1_555
H84_2 C112_2 1_555 1_555
C113_2 O59_2 1_555 1_555
C114_2 O58_2 1_555 1_555
H85_2 C114_2 1_555 1_555
H86_2 C114_2 1_555 1_555
H87_2 C114_2 1_555 1_555
C115_2 C116_2 1_555 1_555
C116_2 C117_2 1_555 1_555
C117_2 H88_2 1_555 1_555
C118_2 C117_2 1_555 1_555
C119_2 C118_2 1_555 1_555
H89_2 C119_2 1_555 1_555
C120_2 C115_2 1_555 1_555
H90_2 C120_2 1_555 1_555
C121_2 O63_2 1_555 1_555
C122_2 O62_2 1_555 1_555
H91_2 C122_2 1_555 1_555
H92_2 C122_2 1_555 1_555
H93_2 C122_2 1_555 1_555
C123_2 O65_2 1_555 1_555
C124_2 C123_2 1_555 1_555
C125_2 C124_2 1_555 1_555
H95_2 C127_2 1_555 1_555
C128_2 C123_2 1_555 1_555
H96_2 C128_2 1_555 1_555
C130_2 O66_2 1_555 1_555
H97_2 C130_2 1_555 1_555
H98_2 C130_2 1_555 1_555
H99_2 C130_2 1_555 1_555
C131_2 O69_2 1_555 1_555
C132_2 C131_2 1_555 1_555
C133_2 C132_2 1_555 1_555
H100_2 C133_2 1_555 1_555
C134_2 C133_2 1_555 1_555
C135_2 C134_2 1_555 1_555
H101_2 C135_2 1_555 1_555
C136_2 C131_2 1_555 1_555
H102_2 C136_2 1_555 1_555
C137_2 C134_2 1_555 1_555
C138_2 O70_2 1_555 1_555
H103_2 C138_2 1_555 1_555
H104_2 C138_2 1_555 1_555
H105_2 C138_2 1_555 1_555
C139_2 O73_2 1_555 1_555
C140_2 C139_2 1_555 1_555
C141_2 C140_2 1_555 1_555
H106_2 C141_2 1_555 1_555
C142_2 C141_2 1_555 1_555
C143_2 C142_2 1_555 1_555
H107_2 C143_2 1_555 1_555
C144_2 C139_2 1_555 1_555
H108_2 C144_2 1_555 1_555
C145_2 C142_2 1_555 1_555
C146_2 O74_2 1_555 1_555
H109_2 C146_2 1_555 1_555
H110_2 C146_2 1_555 1_555
H111_2 C146_2 1_555 1_555
C148_2 C147_2 1_555 1_555
H114_2 C148_2 1_555 1_555
Pb19 O35_2 1_555 1_555
O83_2 Pb8_2 1_555 1_555
O85_2 Pb13 1_555 1_555
O92_2 Pb8_2 1_555 1_555
O104_2 Pb8_2 1_555 1_555
P5_3 N4_2 1_555 1_555
O32_2 Pb8_2 1_555 1_555
O36_2 Pb17 1_555 1_555
C53_2 C54_2 1_555 1_555
C61_2 C62_2 1_555 1_555
C69_2 C70_2 1_555 1_555
P8_2 N7_2 1_555 1_555
P9_2 N8_2 1_555 1_555
P9_2 N9_2 1_555 1_555
O60_2 C113_2 1_555 1_555
O60_2 Pb19 1_555 1_555
O64_2 C121_2 1_555 1_555
C103_2 C104_2 1_555 1_555
C110_2 C113_2 1_555 1_555
C111_2 C112_2 1_555 1_555
C118_2 C121_2 1_555 1_555
C119_2 C120_2 1_555 1_555
C127_2 C128_2 1_555 1_555
C135_2 C136_2 1_555 1_555
C143_2 C144_2 1_555 1_555
O79_2 H119_2 1_555 1_555
O79_2 H120_2 1_555 1_555
O67_2 C129_2 1_555 1_555
O68_2 C129_2 1_555 1_555
C129_2 C126_2 1_555 1_555
Pb15_2 O67_2 1_555 1_555
Pb29_2 O68_2 1_555 1_555
O85_2 C129_3 1_555 1_555
O87_2 C129_3 1_555 1_555
C129_3 C126_3 1_555 1_555
P4_3 O25_3 1_555 1_555
P5_4 O33_3 1_555 1_555
O12_3 Pb18 1_555 1_555
O25_3 C52_3 1_555 1_555
O26_3 C51_3 1_555 1_555
O29_3 P4_3 1_555 1_555
O30_3 C58_3 1_555 1_555
O31_3 C63_3 1_555 1_555
O32_3 C63_3 1_555 1_555
O33_3 C65_3 1_555 1_555
O34_3 C66_3 1_555 1_555
O104_2 C71_3 1_555 1_555
O36_3 C71_3 1_555 1_555
O40_3 Pb18 1_555 1_555
N4_3 P4_3 1_555 1_555
N5_4 P4_3 1_555 1_555
C52_3 C51_3 1_555 1_555
C53_3 C52_3 1_555 1_555
H38_3 C53_3 1_555 1_555
H39_3 C54_3 1_555 1_555
C56_3 O26_3 1_555 1_555
H40_3 C56_3 1_555 1_555
C57_3 O29_3 1_555 1_555
C58_3 C57_3 1_555 1_555
C59_3 C58_3 1_555 1_555
H43_3 C59_3 1_555 1_555
C60_3 C59_3 1_555 1_555
C61_3 C60_3 1_555 1_555
H44_3 C61_3 1_555 1_555
C62_3 C57_3 1_555 1_555
H45_3 C62_3 1_555 1_555
C63_3 C60_3 1_555 1_555
C64_3 O30_3 1_555 1_555
H46_3 C64_3 1_555 1_555
H47_3 C64_3 1_555 1_555
H48_3 C64_3 1_555 1_555
C65_3 C66_3 1_555 1_555
C66_3 C67_3 1_555 1_555
C67_3 H49_3 1_555 1_555
C68_3 C67_3 1_555 1_555
C69_3 C68_3 1_555 1_555
H50_3 C69_3 1_555 1_555
C70_3 C65_3 1_555 1_555
H51_3 C70_3 1_555 1_555
C71_3 C68_3 1_555 1_555
C72_3 O34_3 1_555 1_555
H52_3 C72_3 1_555 1_555
H53_3 C72_3 1_555 1_555
H54_3 C72_3 1_555 1_555
P6_3 N5_4 1_555 1_555
O41_3 P6_3 1_555 1_555
O42_3 C77_3 1_555 1_555
O43 C81_3 1_555 1_555
O44 C81_3 1_555 1_555
O45_3 P6_3 1_555 1_555
O46_3 C84_3 1_555 1_555
O47_3 Pb18 1_555 1_555
O48_3 Pb18 1_555 1_555
O49_3 P5_4 1_555 1_555
O50_3 C92_3 1_555 1_555
N6_3 P5_4 1_555 1_555
C75_3 C76_3 1_555 1_555
C76_3 H58_3 1_555 1_555
C77_3 C76_3 1_555 1_555
C78_3 O41_3 1_555 1_555
C79_3 C78_3 1_555 1_555
H59_3 C79_3 1_555 1_555
C80_3 C75_3 1_555 1_555
H60_3 C80_3 1_555 1_555
C81_3 C75_3 1_555 1_555
C82_3 O42_3 1_555 1_555
H61_3 C82_3 1_555 1_555
H62_3 C82_3 1_555 1_555
H63_3 C82_3 1_555 1_555
C83_3 O45_3 1_555 1_555
C84_3 C83_3 1_555 1_555
C85_3 C84_3 1_555 1_555
H64_3 C85_3 1_555 1_555
C86_3 C85_3 1_555 1_555
C87_3 C86_3 1_555 1_555
H65_3 C87_3 1_555 1_555
C88_3 C83_3 1_555 1_555
H66_3 C88_3 1_555 1_555
C89_3 O47_3 1_555 1_555
C90_3 O46_3 1_555 1_555
H67_3 C90_3 1_555 1_555
H68_3 C90_3 1_555 1_555
H69_3 C90_3 1_555 1_555
C91_3 O49_3 1_555 1_555
C92_3 C91_3 1_555 1_555
C93_3 C92_3 1_555 1_555
H70_3 C93_3 1_555 1_555
C94_3 C93_3 1_555 1_555
C95_3 C94_3 1_555 1_555
H71_3 C95_3 1_555 1_555
C96_3 C91_3 1_555 1_555
H72_3 C96_3 1_555 1_555
C98_3 O50_3 1_555 1_555
H73_3 C98_3 1_555 1_555
H74_3 C98_3 1_555 1_555
H75_3 C98_3 1_555 1_555
Pb15_2 O56 1_555 1_555
Pb7_2 O104_2 1_555 1_555
Pb19 O31_3 1_555 1_555
Pb30_2 O36_3 1_555 1_555
P7_3 O53_3 1_555 1_555
P8_3 O57_3 1_555 1_555
P9_3 O61_3 1_555 1_555
O53_3 C99_3 1_555 1_555
O54_3 C100_3 1_555 1_555
O55_3 C105_3 1_555 1_555
O56 C105_3 1_555 1_555
O57_3 C107_3 1_555 1_555
O58_3 C108_3 1_555 1_555
O59_3 Pb7_2 1_555 1_555
O83_2 Pb7_2 1_555 1_555
O61_3 C115_3 1_555 1_555
O62_3 C116_3 1_555 1_555
O63_3 Pb19 1_555 1_555
O64_3 Pb19 1_555 1_555
O65_3 P7_3 1_555 1_555
O66_3 C124_3 1_555 1_555
O73_3 P9_3 1_555 1_555
O77_3 Pb30_2 1_555 1_555
O78_3 Pb30_2 1_555 1_555
O79_3 Pb15_2 1_555 1_555
O80_3 Pb19 1_555 1_555
N7_3 P7_3 1_555 1_555
N8_3 P8_3 1_555 1_555
N9_3 P7_3 1_555 1_555
C99_3 C100_3 1_555 1_555
C100_3 C101_3 1_555 1_555
C101_3 H76_3 1_555 1_555
C102_3 C101_3 1_555 1_555
C103_3 C102_3 1_555 1_555
H77_3 C103_3 1_555 1_555
C104_3 C99_3 1_555 1_555
H78_3 C104_3 1_555 1_555
C105_3 C102_3 1_555 1_555
C106_3 O54_3 1_555 1_555
H79_3 C106_3 1_555 1_555
H80_3 C106_3 1_555 1_555
H81_3 C106_3 1_555 1_555
C107_3 C108_3 1_555 1_555
C108_3 C109_3 1_555 1_555
C109_3 H82_3 1_555 1_555
C110_3 C109_3 1_555 1_555
C111_3 C110_3 1_555 1_555
H83_3 C111_3 1_555 1_555
C112_3 C107_3 1_555 1_555
H84_3 C112_3 1_555 1_555
C113_3 O59_3 1_555 1_555
C114_3 O58_3 1_555 1_555
H86_3 C114_3 1_555 1_555
H87_3 C114_3 1_555 1_555
C115_3 C116_3 1_555 1_555
C116_3 C117_3 1_555 1_555
C117_3 H88_3 1_555 1_555
C118_3 C117_3 1_555 1_555
C119_3 C118_3 1_555 1_555
H89_3 C119_3 1_555 1_555
C120_3 C115_3 1_555 1_555
H90_3 C120_3 1_555 1_555
C121_3 O63_3 1_555 1_555
C122_3 O62_3 1_555 1_555
H91_3 C122_3 1_555 1_555
H92_3 C122_3 1_555 1_555
C123_3 O65_3 1_555 1_555
C124_3 C123_3 1_555 1_555
C125_3 C124_3 1_555 1_555
H95_3 C127_3 1_555 1_555
C128_3 C123_3 1_555 1_555
H96_3 C128_3 1_555 1_555
C130_3 O66_3 1_555 1_555
H97_3 C130_3 1_555 1_555
H98_3 C130_3 1_555 1_555
H99_3 C130_3 1_555 1_555
C147_3 O77_3 1_555 1_555
C148_3 C147_3 1_555 1_555
H112_2 C148_3 1_555 1_555
H113_2 C148_3 1_555 1_555
H114_3 C148_3 1_555 1_555
Pb14_2 O44 1_555 1_555
Pb22 O43 1_555 1_555
O88_2 Pb15_2 1_555 1_555
O92_2 Pb7_2 1_555 1_555
O94 Pb7_2 1_555 1_555
O97 Pb15_2 1_555 1_555
O99 Pb30_2 1_555 1_555
O102 Pb15_2 1_555 1_555
P5_4 N4_3 1_555 1_555
O32_3 Pb19 1_555 1_555
O36_3 Pb7_2 1_555 1_555
C53_3 C54_3 1_555 1_555
C61_3 C62_3 1_555 1_555
C69_3 C70_3 1_555 1_555
P6_3 N6_3 1_555 1_555
O44 Pb30_2 1_555 1_555
O48_3 C89_3 1_555 1_555
C77_3 C78_3 1_555 1_555
C79_3 C80_3 1_555 1_555
C86_3 C89_3 1_555 1_555
C87_3 C88_3 1_555 1_555
C95_3 C96_3 1_555 1_555
Pb7_2 O88_2 1_555 1_555
Pb30_2 O94 1_555 1_555
P8_3 N7_3 1_555 1_555
P9_3 N8_3 1_555 1_555
P9_3 N9_3 1_555 1_555
O56 Pb22 1_555 1_555
O83_2 C113_3 1_555 1_555
O64_3 C121_3 1_555 1_555
O78_3 C147_3 1_555 1_555
C103_3 C104_3 1_555 1_555
C110_3 C113_3 1_555 1_555
C111_3 C112_3 1_555 1_555
C118_3 C121_3 1_555 1_555
C119_3 C120_3 1_555 1_555
C127_3 C128_3 1_555 1_555
Pb14_2 O99 1_555 1_555
Pb22 O94 1_555 1_555
O79_3 H119_3 1_555 1_555
O79_3 H120_3 1_555 1_555
Pb14_2 O4_3 1_555 1_555
Pb2_2 O7_3 1_555 1_555
Pb22 O4_3 1_555 1_555
Pb29_2 O102 1_555 1_555
P1_3 O1_3 1_555 1_555
P2_3 O5_3 1_555 1_555
P3_3 O9_3 1_555 1_555
O1_3 C1_3 1_555 1_555
O2_3 C2_3 1_555 1_555
O3_3 C7_3 1_555 1_555
O4_3 C7_3 1_555 1_555
O5_3 C9_3 1_555 1_555
O6_3 C10_3 1_555 1_555
O7_3 C15_3 1_555 1_555
O82_2 Pb2_2 1_555 1_555
O9_3 C17_3 1_555 1_555
O10_3 C18_3 1_555 1_555
O11_3 C23_3 1_555 1_555
O13_3 P1_3 1_555 1_555
O14_3 C26_3 1_555 1_555
O84_2 C31_3 1_555 1_555
O86_2 C31_3 1_555 1_555
O21_3 P3_3 1_555 1_555
O27_3 Pb22 1_555 1_555
O102 C55_3 1_555 1_555
O37_3 Pb29_2 1_555 1_555
O38_3 Pb29_2 1_555 1_555
O39_3 Pb14_2 1_555 1_555
N1_3 P1_3 1_555 1_555
N2_3 P2_3 1_555 1_555
N3_3 P1_3 1_555 1_555
C1_3 C2_3 1_555 1_555
C2_3 C3_3 1_555 1_555
C3_3 H1_3 1_555 1_555
C4_3 C3_3 1_555 1_555
C5_3 C4_3 1_555 1_555
H2_3 C5_3 1_555 1_555
C6_3 C1_3 1_555 1_555
H3_3 C6_3 1_555 1_555
C7_3 C4_3 1_555 1_555
C8_3 O2_3 1_555 1_555
H4_3 C8_3 1_555 1_555
H5_3 C8_3 1_555 1_555
H6_3 C8_3 1_555 1_555
C9_3 C10_3 1_555 1_555
C10_3 C11_3 1_555 1_555
C11_3 H7_3 1_555 1_555
C12_3 C11_3 1_555 1_555
C13_3 C12_3 1_555 1_555
H8_3 C13_3 1_555 1_555
C14_3 C9_3 1_555 1_555
H9_3 C14_3 1_555 1_555
C15_3 O82_2 1_555 1_555
C16_3 O6_3 1_555 1_555
H11_3 C16_3 1_555 1_555
H12_3 C16_3 1_555 1_555
C17_3 C18_3 1_555 1_555
C18_3 C19_3 1_555 1_555
C19_3 H13_3 1_555 1_555
C20_3 C19_3 1_555 1_555
C21_3 C20_3 1_555 1_555
H14_3 C21_3 1_555 1_555
C22_3 C17_3 1_555 1_555
H15_3 C22_3 1_555 1_555
C24_3 O10_3 1_555 1_555
H16_3 C24_3 1_555 1_555
H17_3 C24_3 1_555 1_555
C25_3 O13_3 1_555 1_555
C26_3 C25_3 1_555 1_555
C27_3 C26_3 1_555 1_555
H19_3 C27_3 1_555 1_555
C28_3 C27_3 1_555 1_555
C29_3 C28_3 1_555 1_555
H20_3 C29_3 1_555 1_555
C30_3 C25_3 1_555 1_555
H21_3 C30_3 1_555 1_555
C31_3 C28_3 1_555 1_555
C32_3 O14_3 1_555 1_555
H22_3 C32_3 1_555 1_555
H23_3 C32_3 1_555 1_555
H24_3 C32_3 1_555 1_555
C49_3 C50_3 1_555 1_555
C50_3 H37_3 1_555 1_555
C55_3 O27_3 1_555 1_555
C73_3 O37_3 1_555 1_555
C74_3 C73_3 1_555 1_555
H55_2 C74_3 1_555 1_555
H56_2 C74_3 1_555 1_555
H57_3 C74_3 1_555 1_555
O105_2 Pb2_2 1_555 1_555
O52_3 Pb2_2 1_555 1_555
C97_3 O105_2 1_555 1_555
O89_2 Pb14_2 1_555 1_555
O93_2 Pb2_2 1_555 1_555
O96_2 Pb2_2 1_555 1_555
O97 Pb29_2 1_555 1_555
Pb2_2 O89_2 1_555 1_555
Pb22 O96_2 1_555 1_555
Pb29_2 O52_3 1_555 1_555
Pb29_2 O96_2 1_555 1_555
P2_3 N1_3 1_555 1_555
P3_3 N2_3 1_555 1_555
P3_3 N3_3 1_555 1_555
O38_3 C73_3 1_555 1_555
C5_3 C6_3 1_555 1_555
C12_3 C15_3 1_555 1_555
C13_3 C14_3 1_555 1_555
C20_3 C23_3 1_555 1_555
C21_3 C22_3 1_555 1_555
C29_3 C30_3 1_555 1_555
C49_3 C55_3 1_555 1_555
O52_3 C97_3 1_555 1_555
O39_3 H115_3 1_555 1_555
O39_3 H116_3 1_555 1_555
O70_3 C132_3 1_555 1_555
O71_2 C137_3 1_555 1_555
O93 C137_3 1_555 1_555
O74_3 C140_3 1_555 1_555
O75_2 C145_3 1_555 1_555
O76_2 C145_3 1_555 1_555
C131_3 O69_3 1_555 1_555
C132_3 C131_3 1_555 1_555
C133_3 C132_3 1_555 1_555
H100_3 C133_3 1_555 1_555
C134_3 C133_3 1_555 1_555
C135_3 C134_3 1_555 1_555
H101_3 C135_3 1_555 1_555
C136_3 C131_3 1_555 1_555
H102_3 C136_3 1_555 1_555
C137_3 C134_3 1_555 1_555
C138_3 O70_3 1_555 1_555
H103_3 C138_3 1_555 1_555
H104_3 C138_3 1_555 1_555
H105_3 C138_3 1_555 1_555
C140_3 C139_3 1_555 1_555
C141_3 C140_3 1_555 1_555
H106_3 C141_3 1_555 1_555
C142_3 C141_3 1_555 1_555
C143_3 C142_3 1_555 1_555
H107_3 C143_3 1_555 1_555
C144_3 C139_3 1_555 1_555
H108_3 C144_3 1_555 1_555
C145_3 C142_3 1_555 1_555
C146_3 O74_3 1_555 1_555
H109_3 C146_3 1_555 1_555
H110_3 C146_3 1_555 1_555
H111_3 C146_3 1_555 1_555
Pb14 O71_2 1_555 1_555
Pb16_2 O71_2 1_555 1_555
Pb23_2 O75_2 1_555 1_555
Pb30 O76_2 1_555 1_555
O93 Pb16_2 1_555 1_555
O75_2 Pb16_2 1_555 1_555
O76_2 Pb14 1_555 1_555
C135_3 C136_3 1_555 1_555
C143_3 C144_3 1_555 1_555
O18_3 C34_3 1_555 1_555
O19_2 C39_3 1_555 1_555
O92 C39_3 1_555 1_555
O22_3 C42_3 1_555 1_555
O23_2 C47_3 1_555 1_555
O24_2 C47_3 1_555 1_555
C33_3 O17_3 1_555 1_555
C34_3 C33_3 1_555 1_555
C35_3 C34_3 1_555 1_555
H25_3 C35_3 1_555 1_555
C36_3 C35_3 1_555 1_555
C37_3 C36_3 1_555 1_555
H26_3 C37_3 1_555 1_555
C38_3 C33_3 1_555 1_555
H27_3 C38_3 1_555 1_555
C39_3 C36_3 1_555 1_555
C40_3 O18_3 1_555 1_555
H28_3 C40_3 1_555 1_555
H29_3 C40_3 1_555 1_555
H30_3 C40_3 1_555 1_555
C42_3 C41_3 1_555 1_555
C43_3 C42_3 1_555 1_555
H31_3 C43_3 1_555 1_555
C44_3 C43_3 1_555 1_555
C45_3 C44_3 1_555 1_555
H32_3 C45_3 1_555 1_555
C46_3 C41_3 1_555 1_555
H33_3 C46_3 1_555 1_555
C47_3 C44_3 1_555 1_555
C48_3 O22_3 1_555 1_555
H34_3 C48_3 1_555 1_555
H35_3 C48_3 1_555 1_555
H36_3 C48_3 1_555 1_555
Pb15 O19_2 1_555 1_555
Pb17_2 O19_2 1_555 1_555
Pb23 O23_2 1_555 1_555
Pb29 O24_2 1_555 1_555
O92 Pb17_2 1_555 1_555
O23_2 Pb17_2 1_555 1_555
O24_2 Pb15 1_555 1_555
C37_3 C38_3 1_555 1_555
C45_3 C46_3 1_555 1_555
O85 C129_4 1_555 1_555
O87 C129_4 1_555 1_555
C129_4 C126_4 1_555 1_555
P5_5 O33_4 1_555 1_555
O29_4 P4_4 1_555 1_555
O30_4 C58_4 1_555 1_555
O31_4 C63_4 1_555 1_555
O32_4 C63_4 1_555 1_555
O33_4 C65_4 1_555 1_555
O104 C71_4 1_555 1_555
O36_4 C71_4 1_555 1_555
N4_4 P4_4 1_555 1_555
N5_5 P4_4 1_555 1_555
C53_4 C52_4 1_555 1_555
H38_4 C53_4 1_555 1_555
H39_4 C54_4 1_555 1_555
C57_4 O29_4 1_555 1_555
C58_4 C57_4 1_555 1_555
C59_4 C58_4 1_555 1_555
H43_4 C59_4 1_555 1_555
C60_4 C59_4 1_555 1_555
C61_4 C60_4 1_555 1_555
H44_4 C61_4 1_555 1_555
C62_4 C57_4 1_555 1_555
H45_4 C62_4 1_555 1_555
C63_4 C60_4 1_555 1_555
C64_4 O30_4 1_555 1_555
H46_4 C64_4 1_555 1_555
H47_4 C64_4 1_555 1_555
H48_4 C64_4 1_555 1_555
C65_4 C66_4 1_555 1_555
C66_4 C67_4 1_555 1_555
C67_4 H49_4 1_555 1_555
C68_4 C67_4 1_555 1_555
C69_4 C68_4 1_555 1_555
H50_4 C69_4 1_555 1_555
C70_4 C65_4 1_555 1_555
H51_4 C70_4 1_555 1_555
C71_4 C68_4 1_555 1_555
O42_4 C77_4 1_555 1_555
C76_4 H58_4 1_555 1_555
C77_4 C76_4 1_555 1_555
C82_4 O42_4 1_555 1_555
H61_4 C82_4 1_555 1_555
H62_4 C82_4 1_555 1_555
H63_4 C82_4 1_555 1_555
C98_4 O50_4 1_555 1_555
H73_4 C98_4 1_555 1_555
H74_4 C98_4 1_555 1_555
H75_4 C98_4 1_555 1_555
Pb15 O56_2 1_555 1_555
Pb17_2 O104 1_555 1_555
Pb21 O31_4 1_555 1_555
P7_4 O53_4 1_555 1_555
P8_4 O57_4 1_555 1_555
P9_4 O61_4 1_555 1_555
O53_4 C99_4 1_555 1_555
O54_4 C100_4 1_555 1_555
O55_4 C105_4 1_555 1_555
O56_2 C105_4 1_555 1_555
O57_4 C107_4 1_555 1_555
O58_4 C108_4 1_555 1_555
O59_4 Pb17_2 1_555 1_555
O83 Pb17_2 1_555 1_555
O61_4 C115_4 1_555 1_555
O62_4 C116_4 1_555 1_555
O63_4 Pb21 1_555 1_555
O64_4 Pb21 1_555 1_555
O65_4 P7_4 1_555 1_555
O66_4 C124_4 1_555 1_555
O69_4 P8_4 1_555 1_555
O70_4 C132_4 1_555 1_555
O89_2 C137_4 1_555 1_555
O93_2 C137_4 1_555 1_555
O73_4 P9_4 1_555 1_555
O74_4 C140_4 1_555 1_555
O96_2 C145_4 1_555 1_555
O99 C145_4 1_555 1_555
O79_4 Pb15 1_555 1_555
O80_4 Pb21 1_555 1_555
N7_4 P7_4 1_555 1_555
N8_4 P8_4 1_555 1_555
N9_4 P7_4 1_555 1_555
C99_4 C100_4 1_555 1_555
C100_4 C101_4 1_555 1_555
C101_4 H76_4 1_555 1_555
C102_4 C101_4 1_555 1_555
C103_4 C102_4 1_555 1_555
H77_4 C103_4 1_555 1_555
C104_4 C99_4 1_555 1_555
H78_4 C104_4 1_555 1_555
C105_4 C102_4 1_555 1_555
C106_4 O54_4 1_555 1_555
H79_4 C106_4 1_555 1_555
H80_4 C106_4 1_555 1_555
H81_4 C106_4 1_555 1_555
C107_4 C108_4 1_555 1_555
C108_4 C109_4 1_555 1_555
C109_4 H82_4 1_555 1_555
C110_4 C109_4 1_555 1_555
C111_4 C110_4 1_555 1_555
H83_4 C111_4 1_555 1_555
C112_4 C107_4 1_555 1_555
H84_4 C112_4 1_555 1_555
C113_4 O59_4 1_555 1_555
C114_4 O58_4 1_555 1_555
H85_4 C114_4 1_555 1_555
H86_4 C114_4 1_555 1_555
H87_4 C114_4 1_555 1_555
C115_4 C116_4 1_555 1_555
C116_4 C117_4 1_555 1_555
C117_4 H88_4 1_555 1_555
C118_4 C117_4 1_555 1_555
C119_4 C118_4 1_555 1_555
H89_4 C119_4 1_555 1_555
C120_4 C115_4 1_555 1_555
H90_4 C120_4 1_555 1_555
C121_4 O63_4 1_555 1_555
C122_4 O62_4 1_555 1_555
H91_4 C122_4 1_555 1_555
H92_4 C122_4 1_555 1_555
H93_4 C122_4 1_555 1_555
C123_4 O65_4 1_555 1_555
C124_4 C123_4 1_555 1_555
C125_4 C124_4 1_555 1_555
H95_4 C127_4 1_555 1_555
C128_4 C123_4 1_555 1_555
H96_4 C128_4 1_555 1_555
C130_4 O66_4 1_555 1_555
H97_4 C130_4 1_555 1_555
H98_4 C130_4 1_555 1_555
H99_4 C130_4 1_555 1_555
C131_4 O69_4 1_555 1_555
C132_4 C131_4 1_555 1_555
C133_4 C132_4 1_555 1_555
H100_4 C133_4 1_555 1_555
C134_4 C133_4 1_555 1_555
C135_4 C134_4 1_555 1_555
H101_4 C135_4 1_555 1_555
C136_4 C131_4 1_555 1_555
H102_4 C136_4 1_555 1_555
C137_4 C134_4 1_555 1_555
C138_4 O70_4 1_555 1_555
H103_4 C138_4 1_555 1_555
H104_4 C138_4 1_555 1_555
H105_4 C138_4 1_555 1_555
C139_4 O73_4 1_555 1_555
C140_4 C139_4 1_555 1_555
C141_4 C140_4 1_555 1_555
H106_4 C141_4 1_555 1_555
C142_4 C141_4 1_555 1_555
C143_4 C142_4 1_555 1_555
H107_4 C143_4 1_555 1_555
C144_4 C139_4 1_555 1_555
H108_4 C144_4 1_555 1_555
C145_4 C142_4 1_555 1_555
C146_4 O74_4 1_555 1_555
H109_4 C146_4 1_555 1_555
H110_4 C146_4 1_555 1_555
H111_4 C146_4 1_555 1_555
C148_4 C147_4 1_555 1_555
H114_4 C148_4 1_555 1_555
Pb23 O43_2 1_555 1_555
O102_2 Pb15 1_555 1_555
P5_5 N4_4 1_555 1_555
O32_4 Pb21 1_555 1_555
O36_4 Pb17_2 1_555 1_555
C53_4 C54_4 1_555 1_555
C61_4 C62_4 1_555 1_555
C69_4 C70_4 1_555 1_555
P8_4 N7_4 1_555 1_555
P9_4 N8_4 1_555 1_555
P9_4 N9_4 1_555 1_555
O56_2 Pb23 1_555 1_555
O83 C113_4 1_555 1_555
O64_4 C121_4 1_555 1_555
C103_4 C104_4 1_555 1_555
C110_4 C113_4 1_555 1_555
C111_4 C112_4 1_555 1_555
C118_4 C121_4 1_555 1_555
C119_4 C120_4 1_555 1_555
C127_4 C128_4 1_555 1_555
C135_4 C136_4 1_555 1_555
C143_4 C144_4 1_555 1_555
O79_4 H119_4 1_555 1_555
O79_4 H120_4 1_555 1_555
Pb29 O102_2 1_555 1_555
O102_2 C55_4 1_555 1_555
O37_4 Pb29 1_555 1_555
O38_4 Pb29 1_555 1_555
C49_4 C55_4 1_555 1_555
O12_4 Pb20 1_555 1_555
O26_4 C51_4 1_555 1_555
O40_4 Pb20 1_555 1_555
C56_4 O26_4 1_555 1_555
H40_4 C56_4 1_555 1_555
C72_4 O34_4 1_555 1_555
H52_4 C72_4 1_555 1_555
H53_4 C72_4 1_555 1_555
H54_4 C72_4 1_555 1_555
P6_4 N5_6 1_555 1_555
O44_2 C81_4 1_555 1_555
O45_4 P6_4 1_555 1_555
O46_4 C84_4 1_555 1_555
O47_4 Pb20 1_555 1_555
O48_4 Pb20 1_555 1_555
O49_4 P5_6 1_555 1_555
N6_4 P5_6 1_555 1_555
C79_4 C78_4 1_555 1_555
H59_4 C79_4 1_555 1_555
C80_4 C75_4 1_555 1_555
H60_4 C80_4 1_555 1_555
C81_4 C75_4 1_555 1_555
C83_4 O45_4 1_555 1_555
C84_4 C83_4 1_555 1_555
C85_4 C84_4 1_555 1_555
H64_4 C85_4 1_555 1_555
C86_4 C85_4 1_555 1_555
C87_4 C86_4 1_555 1_555
H65_4 C87_4 1_555 1_555
C88_4 C83_4 1_555 1_555
H66_4 C88_4 1_555 1_555
C89_4 O47_4 1_555 1_555
C90_4 O46_4 1_555 1_555
H67_4 C90_4 1_555 1_555
H68_4 C90_4 1_555 1_555
H69_4 C90_4 1_555 1_555
C91_4 O49_4 1_555 1_555
C92_4 C91_4 1_555 1_555
C93_4 C92_4 1_555 1_555
H70_4 C93_4 1_555 1_555
C94_4 C93_4 1_555 1_555
C95_4 C94_4 1_555 1_555
H71_4 C95_4 1_555 1_555
C96_4 C91_4 1_555 1_555
H72_4 C96_4 1_555 1_555
O77_4 Pb30 1_555 1_555
O78_4 Pb30 1_555 1_555
Pb14 O44_2 1_555 1_555
P6_4 N6_4 1_555 1_555
O44_2 Pb30 1_555 1_555
O48_4 C89_4 1_555 1_555
C79_4 C80_4 1_555 1_555
C86_4 C89_4 1_555 1_555
C87_4 C88_4 1_555 1_555
C95_4 C96_4 1_555 1_555
Pb14 O4_4 1_555 1_555
Pb16_2 O7_4 1_555 1_555
Pb23_2 O4_4 1_555 1_555
P1_4 O1_4 1_555 1_555
P2_4 O5_4 1_555 1_555
P3_4 O9_4 1_555 1_555
O1_4 C1_4 1_555 1_555
O2_4 C2_4 1_555 1_555
O3_4 C7_4 1_555 1_555
O4_4 C7_4 1_555 1_555
O5_4 C9_4 1_555 1_555
O6_4 C10_4 1_555 1_555
O7_4 C15_4 1_555 1_555
O82 Pb16_2 1_555 1_555
O9_4 C17_4 1_555 1_555
O10_4 C18_4 1_555 1_555
O11_4 C23_4 1_555 1_555
O13_4 P1_4 1_555 1_555
O14_4 C26_4 1_555 1_555
O84 C31_4 1_555 1_555
O86 C31_4 1_555 1_555
O17_4 P2_4 1_555 1_555
O18_4 C34_4 1_555 1_555
O88_2 C39_4 1_555 1_555
O92_2 C39_4 1_555 1_555
O21_4 P3_4 1_555 1_555
O22_4 C42_4 1_555 1_555
O94 C47_4 1_555 1_555
O97 C47_4 1_555 1_555
O27_4 Pb23_2 1_555 1_555
O39_4 Pb14 1_555 1_555
N1_4 P1_4 1_555 1_555
N2_4 P2_4 1_555 1_555
N3_4 P1_4 1_555 1_555
C1_4 C2_4 1_555 1_555
C2_4 C3_4 1_555 1_555
C3_4 H1_4 1_555 1_555
C4_4 C3_4 1_555 1_555
C5_4 C4_4 1_555 1_555
H2_4 C5_4 1_555 1_555
C6_4 C1_4 1_555 1_555
H3_4 C6_4 1_555 1_555
C7_4 C4_4 1_555 1_555
C8_4 O2_4 1_555 1_555
H4_4 C8_4 1_555 1_555
H5_4 C8_4 1_555 1_555
H6_4 C8_4 1_555 1_555
C9_4 C10_4 1_555 1_555
C10_4 C11_4 1_555 1_555
C11_4 H7_4 1_555 1_555
C12_4 C11_4 1_555 1_555
C13_4 C12_4 1_555 1_555
H8_4 C13_4 1_555 1_555
C14_4 C9_4 1_555 1_555
H9_4 C14_4 1_555 1_555
C15_4 O82 1_555 1_555
C16_4 O6_4 1_555 1_555
H10_4 C16_4 1_555 1_555
H11_4 C16_4 1_555 1_555
H12_4 C16_4 1_555 1_555
C17_4 C18_4 1_555 1_555
C18_4 C19_4 1_555 1_555
C19_4 H13_4 1_555 1_555
C20_4 C19_4 1_555 1_555
C21_4 C20_4 1_555 1_555
H14_4 C21_4 1_555 1_555
C22_4 C17_4 1_555 1_555
H15_4 C22_4 1_555 1_555
C24_4 O10_4 1_555 1_555
H16_4 C24_4 1_555 1_555
H17_4 C24_4 1_555 1_555
H18_4 C24_4 1_555 1_555
C25_4 O13_4 1_555 1_555
C26_4 C25_4 1_555 1_555
C27_4 C26_4 1_555 1_555
H19_4 C27_4 1_555 1_555
C28_4 C27_4 1_555 1_555
C29_4 C28_4 1_555 1_555
H20_4 C29_4 1_555 1_555
C30_4 C25_4 1_555 1_555
H21_4 C30_4 1_555 1_555
C31_4 C28_4 1_555 1_555
C32_4 O14_4 1_555 1_555
H22_4 C32_4 1_555 1_555
H23_4 C32_4 1_555 1_555
H24_4 C32_4 1_555 1_555
C33_4 O17_4 1_555 1_555
C34_4 C33_4 1_555 1_555
C35_4 C34_4 1_555 1_555
H25_4 C35_4 1_555 1_555
C36_4 C35_4 1_555 1_555
C37_4 C36_4 1_555 1_555
H26_4 C37_4 1_555 1_555
C38_4 C33_4 1_555 1_555
H27_4 C38_4 1_555 1_555
C39_4 C36_4 1_555 1_555
C40_4 O18_4 1_555 1_555
H28_4 C40_4 1_555 1_555
H29_4 C40_4 1_555 1_555
H30_4 C40_4 1_555 1_555
C41_4 O21_4 1_555 1_555
C42_4 C41_4 1_555 1_555
C43_4 C42_4 1_555 1_555
H31_4 C43_4 1_555 1_555
C44_4 C43_4 1_555 1_555
C45_4 C44_4 1_555 1_555
H32_4 C45_4 1_555 1_555
C46_4 C41_4 1_555 1_555
H33_4 C46_4 1_555 1_555
C47_4 C44_4 1_555 1_555
C48_4 O22_4 1_555 1_555
H34_4 C48_4 1_555 1_555
H35_4 C48_4 1_555 1_555
H36_4 C48_4 1_555 1_555
C50_4 H37_4 1_555 1_555
C74_4 C73_4 1_555 1_555
H57_4 C74_4 1_555 1_555
O105 Pb16_2 1_555 1_555
O52_4 Pb16_2 1_555 1_555
C97_4 O105 1_555 1_555
P2_4 N1_4 1_555 1_555
P3_4 N2_4 1_555 1_555
P3_4 N3_4 1_555 1_555
C5_4 C6_4 1_555 1_555
C12_4 C15_4 1_555 1_555
C13_4 C14_4 1_555 1_555
C20_4 C23_4 1_555 1_555
C21_4 C22_4 1_555 1_555
C29_4 C30_4 1_555 1_555
C37_4 C38_4 1_555 1_555
C45_4 C46_4 1_555 1_555
O52_4 C97_4 1_555 1_555
O39_4 H115_4 1_555 1_555
O39_4 H116_4 1_555 1_555

#END
