
###############################################################################
#
# This file contains modified crystal structure data generated from the
# MOF subset of the Cambridge Structural Database (CSD) v543 
# hosted by the Cambridge Crystallographic Data Centre (CCDC).
#
# This work is licensed under the Creative Commons
# Attribution-NonCommercial-ShareAlike 4.0 International License.
# To view a copy of this license, visit
# http://creativecommons.org/licenses/by-nc-sa/4.0/
# or send a letter to
# Creative Commons, PO Box 1866, Mountain View, CA 94042, USA.
#
# CIF created using the CSD Python API on 29 September 2022
# The structure has been converted into the P1 space group
# The structure has a 3D framework
# The original CSD entry KEGWOM is in the monoclinic crystal system
# The framework has been calculated to contain at least 10.0% void space
# The void calculation uses a probe of radius 1.32A, grid spacing 0.4
# The framework is charged, counterions have been retained in the structure
#
###############################################################################

data_KEGWOM
_chemical_formula_moiety         '(C208 H156 N20 O42 Sr8 4+)n'
_symmetry_cell_setting           triclinic
_symmetry_space_group_name_H-M   'P 1'
_symmetry_Int_Tables_number      1
_space_group_name_Hall           'P 1'
loop_
_symmetry_equiv_pos_site_id
_symmetry_equiv_pos_as_xyz
1 x,y,z
_cell_length_a                   7.67080(4)
_cell_length_b                   26.58541(16)
_cell_length_c                   29.55061(17)
_cell_angle_alpha                90
_cell_angle_beta                 96.5378(5)
_cell_angle_gamma                90
_cell_volume                     5987.11
loop_
_atom_site_label
_atom_site_type_symbol
_atom_site_fract_x
_atom_site_fract_y
_atom_site_fract_z
O3 O 0.6558(2) 0.64831(7) 0.26683(6)
N2 N 0.0279(2) 0.47980(8) 0.43286(6)
H1 H 0.019232 0.487378 0.460807
O6 O 0.8864(2) 0.60608(8) 0.29772(7)
N3 N 0.2170(3) 0.54406(8) 0.50140(7)
O9 O 0.0595(3) 0.20490(12) 0.36531(9)
C4 C 0.1517(3) 0.49844(9) 0.40740(8)
C5 C 0.3990(3) 0.55075(9) 0.38778(8)
C6 C 0.6127(3) 0.59152(9) 0.32644(8)
C10 C 0.2843(3) 0.53273(9) 0.42219(8)
C11 C 0.7266(3) 0.61667(9) 0.29486(8)
C14 C 0.1200(3) 0.47627(10) 0.36310(8)
H7 H 0.184550 0.482106 0.338823
C21 C 0.2845(3) 0.57445(9) 0.53657(8)
C25 C 0.3258(3) 0.57825(10) 0.35031(9)
H10 H 0.205010 0.582975 0.345526
C27 C 0.3122(3) 0.55373(9) 0.46579(8)
C29 C 0.5793(3) 0.54245(10) 0.39343(9)
H12 H 0.629293 0.523429 0.417967
C31 C 0.6852(3) 0.56230(10) 0.36278(9)
H13 H 0.805250 0.556015 0.366582
C33 C 0.4318(3) 0.59865(11) 0.32006(9)
H14 H 0.381615 0.617273 0.295282
C40 C 0.4419(4) 0.59220(12) 0.47891(10)
H19 H 0.521302 0.605807 0.460733
C42 C 0.4256(4) 0.60454(12) 0.52248(10)
H21 H 0.492546 0.628008 0.540154
O17 O 0.5989(2) 0.76258(7) 0.69410(7)
C75 C 0.0800(3) 0.55281(9) 0.59309(8)
O19 O 0.8020(3) 0.70439(9) 0.70914(11)
C76 C 0.2240(3) 0.57830(9) 0.57952(8)
C80 C 0.5337(3) 0.67912(10) 0.66821(9)
C84 C 0.3266(3) 0.61174(9) 0.61325(8)
C85 C 0.3572(3) 0.68840(10) 0.65722(10)
H47 H 0.307211 0.717167 0.668177
C87 C 0.0205(3) 0.55472(10) 0.63732(8)
H48 H 0.069587 0.573805 0.661906
C89 C 0.2533(3) 0.65486(10) 0.62975(10)
H50 H 0.134326 0.661373 0.622419
C94 C 0.6530(3) 0.71758(10) 0.69276(10)
C95 C 0.6049(4) 0.63465(10) 0.65437(11)
H54 H 0.722097 0.627131 0.663430
C98 C 0.5016(4) 0.60127(10) 0.62698(10)
H57 H 0.550355 0.571493 0.617723
Sr6 Sr 0.94812(2) 0.66887(2) 0.23275(2)
Sr7 Sr 0.44812(2) 0.83113(2) 0.73275(2)
Sr10 Sr 0.07322(2) 0.20913(2) 0.26996(2)
Sr12 Sr 0.42678(2) 0.70913(2) 0.23004(2)
Sr14 Sr 0.92678(2) 0.79087(2) 0.73004(2)
Sr9 Sr 0.05188(2) 0.33113(2) 0.76725(2)
Sr1 Sr 0.55188(2) 0.16887(2) 0.26725(2)
O1 O 0.2762(2) 0.20851(7) 0.20754(6)
O4 O 0.4011(2) 0.23742(7) 0.30590(7)
O5 O 0.8178(2) 0.19493(8) 0.32005(6)
N4 N 0.1949(3) 0.44796(7) 0.00237(7)
H2 H 0.112288 0.469898 0.001735
O8 O 0.5437(2) 0.23787(9) 0.20716(9)
C1 C 0.9200(3) 0.44719(9) 0.40691(8)
O10 O 0.1980(3) 0.29561(9) 0.29086(11)
C2 C 0.7760(3) 0.42170(9) 0.42048(8)
C9 C 0.4663(3) 0.32088(10) 0.33179(9)
C16 C 0.3162(3) 0.28065(10) 0.16194(9)
C18 C 0.6734(3) 0.38826(9) 0.38675(8)
C19 C 0.6428(3) 0.31160(10) 0.34278(10)
H8 H 0.692789 0.282833 0.331823
C22 C 0.3831(3) 0.23960(10) 0.19464(9)
C24 C 0.9795(3) 0.44528(10) 0.36268(8)
H9 H 0.930413 0.426195 0.338094
C26 C 0.7467(3) 0.34514(10) 0.37025(10)
H11 H 0.865674 0.338627 0.377581
C28 C 0.1938(3) 0.35649(10) 0.10072(9)
C30 C 0.1302(3) 0.39815(9) 0.06902(8)
C32 C 0.2277(3) 0.40962(9) 0.03282(8)
C34 C 0.3470(3) 0.28242(10) 0.30724(10)
C35 C 0.8980(4) 0.19671(12) 0.35898(9)
C37 C 0.3951(4) 0.36535(10) 0.34563(11)
H16 H 0.277903 0.372869 0.336570
C38 C 0.1543(4) 0.27666(11) 0.13685(11)
H17 H 0.084335 0.248717 0.140559
C39 C 0.0942(4) 0.31405(11) 0.10597(11)
C44 C 0.3554(4) 0.36047(11) 0.12671(11)
H23 H 0.423287 0.389068 0.124030
C46 C 0.4178(4) 0.32280(12) 0.15659(12)
H25 H 0.528062 0.325801 0.173078
C48 C 0.3794(4) 0.38104(11) 0.02246(10)
H27 H 0.428368 0.353255 0.038262
C49 C 0.4984(4) 0.39873(10) 0.37302(10)
H28 H 0.449645 0.428507 0.382277
C50 C 0.7956(6) 0.1886(2) 0.39848(13)
H29 H 0.701705 0.212573 0.397276
H30 H 0.871444 0.192768 0.426390
H31 H 0.747991 0.155142 0.397151
O16 O 0.3442(2) 0.35169(7) 0.73317(6)
N7 N 0.9721(2) 0.52020(8) 0.56714(6)
H45 H 0.980768 0.512622 0.539193
O18 O 0.1136(2) 0.39392(8) 0.70228(7)
N8 N 0.7830(3) 0.45594(8) 0.49860(7)
C77 C 0.8483(3) 0.50156(9) 0.59260(8)
C78 C 0.6010(3) 0.44925(9) 0.61222(8)
C79 C 0.3873(3) 0.40848(9) 0.67356(8)
C81 C 0.7157(3) 0.46727(9) 0.57781(8)
C82 C 0.2734(3) 0.38333(9) 0.70514(8)
C83 C 0.8800(3) 0.52373(10) 0.63690(8)
H46 H 0.815450 0.517894 0.661177
C86 C 0.7155(3) 0.42555(9) 0.46343(8)
C88 C 0.6742(3) 0.42175(10) 0.64969(9)
H49 H 0.794990 0.417025 0.654474
C90 C 0.6878(3) 0.44627(9) 0.53421(8)
C91 C 0.4207(3) 0.45755(10) 0.60657(9)
H51 H 0.370707 0.476571 0.582033
C92 C 0.3148(3) 0.43770(10) 0.63722(9)
H52 H 0.194750 0.443985 0.633418
C93 C 0.5682(3) 0.40135(11) 0.67994(9)
H53 H 0.618385 0.382727 0.704718
C96 C 0.5581(4) 0.40780(12) 0.52109(10)
H55 H 0.478698 0.394193 0.539267
C97 C 0.5744(4) 0.39546(12) 0.47752(10)
H56 H 0.507454 0.371992 0.459846
Sr16 Sr 0.57322(2) 0.29087(2) 0.76996(2)
O23 O 0.2574(2) 0.13030(6) 0.28513(6)
O26 O 0.8442(2) 0.14831(7) 0.23317(6)
O32 O 0.6136(2) 0.10608(8) 0.20228(7)
O34 O 0.4870(2) 0.10158(9) 0.32951(8)
C23 C 0.3198(3) 0.44444(9) 0.97313(8)
C43 C 0.4349(4) 0.40244(11) 0.98581(10)
H22 H 0.529948 0.392227 0.971157
O13 O 0.7574(2) 0.36970(6) 0.78513(6)
N5 N 0.0938(3) 0.53504(8) 0.94424(7)
O14 O 0.9870(2) 0.39842(9) 0.82951(8)
C51 C 0.2308(3) 0.51723(9) 0.92273(8)
C52 C 0.8251(3) 0.39563(9) 0.81872(8)
C53 C 0.5221(3) 0.42024(10) 0.83387(8)
H33 H 0.479510 0.406068 0.806015
C54 C 0.4059(3) 0.43917(10) 0.86211(8)
H34 H 0.285860 0.437504 0.853106
C55 C 0.3363(3) 0.47559(9) 0.93542(8)
C56 C 0.7015(3) 0.42222(9) 0.84678(8)
C58 C 0.4668(3) 0.46066(9) 0.90384(8)
C59 C 0.0187(3) 0.57596(10) 0.92096(8)
C65 C 0.6472(3) 0.46508(11) 0.91571(9)
H35 H 0.689855 0.480907 0.942787
H37 H 0.014200 0.689585 0.911311
C68 C 0.2446(4) 0.54938(11) 0.88461(9)
H38 H 0.327085 0.546509 0.864000
C71 C 0.7637(3) 0.44598(11) 0.88734(9)
H41 H 0.883941 0.449108 0.895518
C73 C 0.1179(4) 0.58457(11) 0.88353(9)
H43 H 0.098301 0.610139 0.862077
O22 O 0.1267(3) 0.72867(10) 0.77400(12)
H58 H 0.229603 0.740977 0.778867
H59 H 0.138516 0.702929 0.757500
O28 O 0.1558(2) 0.85169(7) 0.76683(6)
O31 O 0.1822(2) 0.80507(8) 0.67995(6)
O2 O 0.2426(2) 0.63030(6) 0.21487(6)
N1 N 0.9062(3) 0.46496(8) 0.05576(7)
O7 O 0.0130(2) 0.60158(9) 0.17049(8)
C3 C 0.7692(3) 0.48277(9) 0.07727(8)
O11 O 0.8733(3) 0.27133(10) 0.22600(12)
H3 H 0.770397 0.259023 0.221133
H4 H 0.861484 0.297071 0.242500
C7 C 0.1749(3) 0.60437(9) 0.18128(8)
C8 C 0.4779(3) 0.57976(10) 0.16613(8)
H5 H 0.520490 0.593932 0.193985
C12 C 0.5941(3) 0.56083(10) 0.13789(8)
H6 H 0.714140 0.562496 0.146894
C13 C 0.6637(3) 0.52441(9) 0.06458(8)
C15 C 0.2985(3) 0.57778(9) 0.15322(8)
C17 C 0.5332(3) 0.53934(9) 0.09616(8)
C20 C 0.9813(3) 0.42404(10) 0.07904(8)
C36 C 0.3528(3) 0.53492(11) 0.08429(9)
H15 H 0.310145 0.519093 0.057213
H18 H 0.985800 0.310415 0.088689
C41 C 0.7554(4) 0.45062(11) 0.11539(9)
H20 H 0.672915 0.453491 0.136000
C45 C 0.2363(3) 0.55402(11) 0.11266(9)
H24 H 0.116059 0.550892 0.104482
C47 C 0.8821(4) 0.41543(11) 0.11647(9)
H26 H 0.901699 0.389861 0.137923
C61 C 0.6802(3) 0.55556(9) 0.02687(8)
C69 C 0.5651(4) 0.59756(11) 0.01419(10)
H39 H 0.470052 0.607773 0.028843
O12 O 0.7238(2) 0.79149(7) 0.79246(6)
N6 N 0.8051(3) 0.55204(7) 0.99763(7)
H32 H 0.887712 0.530102 0.998265
O15 O 0.4563(2) 0.76213(9) 0.79284(9)
C57 C 0.6838(3) 0.71935(10) 0.83806(9)
C60 C 0.6169(3) 0.76040(10) 0.80536(9)
C62 C 0.8062(3) 0.64351(10) 0.89928(9)
C63 C 0.8698(3) 0.60185(9) 0.93098(8)
C64 C 0.7723(3) 0.59038(9) 0.96718(8)
C66 C 0.8457(4) 0.72334(11) 0.86315(11)
H36 H 0.915665 0.751283 0.859441
C67 C 0.9058(4) 0.68595(11) 0.89403(11)
C70 C 0.6446(4) 0.63953(11) 0.87329(11)
H40 H 0.576713 0.610932 0.875970
C72 C 0.5822(4) 0.67720(12) 0.84341(12)
H42 H 0.471938 0.674199 0.826922
C74 C 0.6206(4) 0.61896(11) 0.97754(10)
H44 H 0.571632 0.646745 0.961738
C99 C 0.1020(4) 0.80329(12) 0.64102(9)
C100 C 0.2044(6) 0.8114(2) 0.60152(13)
H60 H 0.298295 0.787427 0.602724
H61 H 0.128556 0.807232 0.573610
H62 H 0.252009 0.844858 0.602849
O24 O 0.7426(2) 0.86970(6) 0.71487(6)
O33 O 0.3864(2) 0.89392(8) 0.79772(7)
O35 O 0.5130(2) 0.89842(9) 0.67049(8)
O37 O 0.9405(3) 0.79510(12) 0.63469(9)
C7_2 C 0.3251(3) 0.10437(9) 0.31872(8)
C8_2 C 0.0221(3) 0.07976(10) 0.33387(8)
C15_2 C 0.2015(3) 0.07778(9) 0.34678(8)
C36_2 C 0.1472(3) 0.03492(11) 0.41571(9)
H15_2 H 0.189855 0.019093 0.442787
C45_2 C 0.2637(3) 0.05402(11) 0.38734(9)
H24_2 H 0.383941 0.050892 0.395518
O15_2 O 0.0437(2) 0.26213(9) 0.70716(9)
H39_2 H 0.029948 0.107773 0.471157
H42_2 H 0.028062 0.174199 0.673078
O20 O 0.3178(2) 0.30507(8) 0.82005(6)
O21 O 0.5595(3) 0.29510(12) 0.86531(9)
C99_2 C 0.3980(4) 0.30329(12) 0.85898(9)
C100_2 C 0.2956(6) 0.3114(2) 0.89848(13)
H60_2 H 0.201705 0.287427 0.897276
H61_2 H 0.371444 0.307232 0.926390
H62_2 H 0.247991 0.344858 0.897151
H5_2 H 0.979510 0.093932 0.306015
C12_2 C 0.9059(3) 0.06083(10) 0.36211(8)
H6_2 H 0.785860 0.062496 0.353106
C13_2 C 0.8363(3) 0.02441(9) 0.43542(8)
C17_2 C 0.9668(3) 0.03934(9) 0.40384(8)
O12_2 O 0.7762(2) 0.29149(7) 0.70754(6)
N5_2 N 0.4062(3) 0.03504(8) 0.55576(7)
N6_2 N 0.6949(3) 0.05204(7) 0.50237(7)
H32_2 H 0.612288 0.030102 0.501735
C51_2 C 0.2692(3) 0.01723(9) 0.57727(8)
C57_2 C 0.8162(3) 0.21935(10) 0.66194(9)
C59_2 C 0.4813(3) 0.07596(10) 0.57904(8)
C60_2 C 0.8831(3) 0.26040(10) 0.69464(9)
C61_2 C 0.8198(3) 0.05556(9) 0.47313(8)
C62_2 C 0.6938(3) 0.14351(10) 0.60072(9)
C63_2 C 0.6302(3) 0.10185(9) 0.56902(8)
C64_2 C 0.7277(3) 0.09038(9) 0.53282(8)
C66_2 C 0.6543(4) 0.22334(11) 0.63685(11)
H36_2 H 0.584335 0.251283 0.640559
C67_2 C 0.5942(4) 0.18595(11) 0.60597(11)
H37_2 H 0.485800 0.189585 0.588689
C68_2 C 0.2554(4) 0.04938(11) 0.61539(9)
H38_2 H 0.172915 0.046509 0.636000
C69_2 C 0.9349(4) 0.09756(11) 0.48581(10)
C70_2 C 0.8554(4) 0.13953(11) 0.62671(11)
H40_2 H 0.923287 0.110932 0.624030
C72_2 C 0.9178(4) 0.17720(12) 0.65659(12)
C73_2 C 0.3821(4) 0.08457(11) 0.61647(9)
H43_2 H 0.401699 0.110139 0.637923
C74_2 C 0.8794(4) 0.11896(11) 0.52246(10)
H44_2 H 0.928368 0.146745 0.538262
O22_2 O 0.3733(3) 0.22867(10) 0.72600(12)
H58_2 H 0.270397 0.240977 0.721133
H59_2 H 0.361484 0.202929 0.742500
O29 O 0.9011(2) 0.26258(7) 0.80590(7)
O38 O 0.6980(3) 0.20439(9) 0.79086(11)
O1_2 O 0.2238(2) 0.70851(7) 0.29246(6)
O4_2 O 0.0989(2) 0.73742(7) 0.19410(7)
N1_2 N 0.5938(3) 0.96496(8) 0.44424(7)
N4_2 N 0.3051(3) 0.94796(7) 0.49763(7)
H2_2 H 0.387712 0.969898 0.498265
O10_2 O 0.3020(3) 0.79561(9) 0.20914(11)
C3_2 C 0.7308(3) 0.98277(9) 0.42273(8)
O11_2 O 0.6267(3) 0.77133(10) 0.27400(12)
H3_2 H 0.729603 0.759023 0.278867
H4_2 H 0.638516 0.797071 0.257500
C9_2 C 0.0337(3) 0.82088(10) 0.16821(9)
C16_2 C 0.1838(3) 0.78065(10) 0.33806(9)
C20_2 C 0.5187(3) 0.92404(10) 0.42096(8)
C22_2 C 0.1169(3) 0.73960(10) 0.30536(9)
C23_2 C 0.1802(3) 0.94444(9) 0.52687(8)
C28_2 C 0.3062(3) 0.85649(10) 0.39928(9)
C30_2 C 0.3698(3) 0.89815(9) 0.43098(8)
C32_2 C 0.2723(3) 0.90962(9) 0.46718(8)
C34_2 C 0.1530(3) 0.78242(10) 0.19276(10)
C37_2 C 0.1049(4) 0.86535(10) 0.15437(11)
H16_2 H 0.222097 0.872869 0.163430
C38_2 C 0.3457(4) 0.77666(11) 0.36315(11)
H17_2 H 0.415665 0.748717 0.359441
C39_2 C 0.4058(4) 0.81405(11) 0.39403(11)
H18_2 H 0.514200 0.810415 0.411311
C41_2 C 0.7446(4) 0.95062(11) 0.38461(9)
H20_2 H 0.827085 0.953491 0.364000
C43_2 C 0.0651(4) 0.90244(11) 0.51419(10)
C44_2 C 0.1446(4) 0.86047(11) 0.37329(11)
H23_2 H 0.076713 0.889068 0.375970
C46_2 C 0.0822(4) 0.82280(12) 0.34341(12)
C47_2 C 0.6179(4) 0.91543(11) 0.38353(9)
H26_2 H 0.598301 0.889861 0.362077
C48_2 C 0.1206(4) 0.88104(11) 0.47754(10)
H27_2 H 0.071632 0.853255 0.461738
C49_2 C 0.0016(4) 0.89873(10) 0.12698(10)
H28_2 H 0.050355 0.928507 0.117723
H33_2 H 0.020490 0.906068 0.693985
C54_2 C 0.0941(3) 0.93917(10) 0.63789(8)
H34_2 H 0.214140 0.937504 0.646894
C55_2 C 0.1637(3) 0.97559(9) 0.56458(8)
C58_2 C 0.0332(3) 0.96066(9) 0.59616(8)
O30 O 0.6822(2) 0.69493(8) 0.17995(6)
O36 O 0.4405(3) 0.70490(12) 0.13469(9)
C79_2 C 0.1127(3) 0.90848(9) 0.82644(8)
C82_2 C 0.2266(3) 0.88333(9) 0.79486(8)
C91_2 C 0.0793(3) 0.95755(10) 0.89343(9)
H51_2 H 0.129293 0.976571 0.917967
C92_2 C 0.1852(3) 0.93770(10) 0.86278(9)
H52_2 H 0.305250 0.943985 0.866582
H55_2 H 0.021302 0.894193 0.960733
C5_2 C 0.1010(3) 0.05075(9) 0.11222(8)
C10_2 C 0.2157(3) 0.03273(9) 0.07781(8)
C25_2 C 0.1742(3) 0.07825(10) 0.14969(9)
H10_2 H 0.294990 0.082975 0.154474
C27_2 C 0.1878(3) 0.05373(9) 0.03421(8)
C33_2 C 0.0682(3) 0.09865(11) 0.17994(9)
H14_2 H 0.118385 0.117273 0.204718
C40_2 C 0.0581(4) 0.09220(12) 0.02109(10)
N3_2 N 0.2830(3) 0.04406(8) 0.99860(7)
C21_2 C 0.2155(3) 0.07445(9) 0.96343(8)
C42_2 C 0.0744(4) 0.10454(12) 0.97752(10)
H21_2 H 0.007454 0.128008 0.959846
N7_2 N 0.5279(2) 0.02020(8) 0.93286(6)
H45_2 H 0.519232 0.012622 0.960807
C75_2 C 0.4200(3) 0.05281(9) 0.90691(8)
C76_2 C 0.2760(3) 0.07830(9) 0.92048(8)
C77_2 C 0.6517(3) 0.00156(9) 0.90740(8)
C83_2 C 0.6200(3) 0.02373(10) 0.86310(8)
H46_2 H 0.684550 0.017894 0.838823
C84_2 C 0.1734(3) 0.11174(9) 0.88675(8)
C85_2 C 0.1428(3) 0.18840(10) 0.84278(10)
H47_2 H 0.192789 0.217167 0.831823
C87_2 C 0.4795(3) 0.05472(10) 0.86268(8)
H48_2 H 0.430413 0.073805 0.838094
C89_2 C 0.2467(3) 0.15486(10) 0.87025(10)
H50_2 H 0.365674 0.161373 0.877581
N2_2 N 0.4721(2) 0.97980(8) 0.06714(6)
H1_2 H 0.480768 0.987378 0.039193
O8_2 O 0.9563(2) 0.73787(9) 0.29284(9)
C1_2 C 0.5800(3) 0.94719(9) 0.09309(8)
C2_2 C 0.7240(3) 0.92170(9) 0.07952(8)
C4_2 C 0.3483(3) 0.99844(9) 0.09260(8)
C14_2 C 0.3800(3) 0.97627(10) 0.13690(8)
H7_2 H 0.315450 0.982106 0.161177
C18_2 C 0.8266(3) 0.88826(9) 0.11325(8)
C19_2 C 0.8572(3) 0.81160(10) 0.15722(10)
H8_2 H 0.807211 0.782833 0.168177
C24_2 C 0.5205(3) 0.94528(10) 0.13732(8)
H9_2 H 0.569587 0.926195 0.161906
C26_2 C 0.7533(3) 0.84514(10) 0.12975(10)
H11_2 H 0.634326 0.838627 0.122419
C35_2 C 0.6020(4) 0.69671(12) 0.14102(9)
H22_2 H 0.970052 0.892227 0.528843
H25_2 H 0.971938 0.825801 0.326922
C50_2 C 0.7044(6) 0.6886(2) 0.10152(13)
H29_2 H 0.798295 0.712573 0.102724
H30_2 H 0.628556 0.692768 0.073610
H31_2 H 0.752009 0.655142 0.102849
C52_2 C 0.6749(3) 0.89563(9) 0.68128(8)
C53_2 C 0.9779(3) 0.92024(10) 0.66613(8)
C56_2 C 0.7985(3) 0.92222(9) 0.65322(8)
C65_2 C 0.8528(3) 0.96508(11) 0.58429(9)
H35_2 H 0.810145 0.980907 0.557213
C71_2 C 0.7363(3) 0.94598(11) 0.61266(9)
H41_2 H 0.616059 0.949108 0.604482
N8_2 N 0.7170(3) 0.95594(8) 0.00140(7)
C86_2 C 0.7845(3) 0.92555(9) 0.03657(8)
C97_2 C 0.9256(4) 0.89546(12) 0.02248(10)
H56_2 H 0.992546 0.871992 0.040154
C78_2 C 0.8990(3) 0.94925(9) 0.88778(8)
C81_2 C 0.7843(3) 0.96727(9) 0.92219(8)
C88_2 C 0.8258(3) 0.92175(10) 0.85031(9)
H49_2 H 0.705010 0.917025 0.845526
C90_2 C 0.8122(3) 0.94627(9) 0.96579(8)
C93_2 C 0.9318(3) 0.90135(11) 0.82006(9)
H53_2 H 0.881615 0.882727 0.795282
C96_2 C 0.9419(4) 0.90780(12) 0.97891(10)
C6_2 C 0.8873(3) 0.09152(9) 0.17356(8)
C11_2 C 0.7734(3) 0.11667(9) 0.20514(8)
C29_2 C 0.9207(3) 0.04245(10) 0.10657(9)
H12_2 H 0.870707 0.023429 0.082033
C31_2 C 0.8148(3) 0.06230(10) 0.13722(9)
H13_2 H 0.694750 0.056015 0.133418
H19_2 H 0.978698 0.105807 0.039267
C80_2 C 0.9663(3) 0.17912(10) 0.83179(9)
C94_2 C 0.8470(3) 0.21758(10) 0.80724(10)
C95_2 C 0.8951(4) 0.13465(10) 0.84563(11)
H54_2 H 0.777903 0.127131 0.836570
C98_2 C 0.9984(4) 0.10127(10) 0.87302(10)
H57_2 H 0.949645 0.071493 0.882277
N9 N 0.2699(5) 0.21394(16) 0.44362(12)
H63 H 0.187987 0.206629 0.420770
H64 H 0.216005 0.222012 0.467730
C101 C 0.3812(7) 0.1691(2) 0.4545(2)
H65 H 0.419548 0.155947 0.427049
H66 H 0.314729 0.143879 0.468287
H67 H 0.481528 0.178312 0.475292
C102 C 0.3723(9) 0.2571(3) 0.4309(3)
H68 H 0.425350 0.249178 0.403837
H69 H 0.462211 0.264715 0.455212
H70 H 0.296470 0.285664 0.425171
N9_2 N 0.2301(5) 0.71394(16) 0.05638(12)
H63_2 H 0.312013 0.706629 0.079230
H64_2 H 0.283995 0.722012 0.032270
C101_2 C 0.1188(7) 0.6691(2) 0.0455(2)
H65_2 H 0.080452 0.655947 0.072951
H66_2 H 0.185271 0.643879 0.031713
H67_2 H 0.018472 0.678312 0.024708
C102_2 C 0.1277(9) 0.7571(3) 0.0691(3)
H68_2 H 0.074650 0.749178 0.096163
H69_2 H 0.037789 0.764715 0.044788
H70_2 H 0.203530 0.785664 0.074829
N9_3 N 0.7301(5) 0.78606(16) 0.55638(12)
H63_3 H 0.812013 0.793371 0.579230
H64_3 H 0.783995 0.777988 0.532270
C101_3 C 0.6188(7) 0.8309(2) 0.5455(2)
H65_3 H 0.580452 0.844053 0.572951
H66_3 H 0.685271 0.856121 0.531713
H67_3 H 0.518472 0.821688 0.524708
C102_3 C 0.6277(9) 0.7429(3) 0.5691(3)
H68_3 H 0.574650 0.750822 0.596163
H69_3 H 0.537789 0.735285 0.544788
H70_3 H 0.703530 0.714336 0.574829
N9_4 N 0.7699(5) 0.28606(16) 0.94362(12)
H63_4 H 0.687987 0.293371 0.920770
H64_4 H 0.716005 0.277988 0.967730
C101_4 C 0.8812(7) 0.3309(2) 0.9545(2)
H65_4 H 0.919548 0.344053 0.927049
H66_4 H 0.814729 0.356121 0.968287
H67_4 H 0.981528 0.321688 0.975292
C102_4 C 0.8723(9) 0.2429(3) 0.9309(3)
H68_4 H 0.925350 0.250822 0.903837
H69_4 H 0.962211 0.235285 0.955212
H70_4 H 0.796470 0.214336 0.925171
loop_
_geom_bond_atom_site_label_1
_geom_bond_atom_site_label_2
_geom_bond_site_symmetry_1
_geom_bond_site_symmetry_2
O3 C11 1_555 1_555
N2 H1 1_555 1_555
O6 C11 1_555 1_555
N3 C21 1_555 1_555
C4 N2 1_555 1_555
C5 C10 1_555 1_555
C6 C11 1_555 1_555
C10 C4 1_555 1_555
C14 C4 1_555 1_555
H7 C14 1_555 1_555
C21 C42 1_555 1_555
C25 C5 1_555 1_555
H10 C25 1_555 1_555
C27 N3 1_555 1_555
C29 C5 1_555 1_555
H12 C29 1_555 1_555
C31 C6 1_555 1_555
H13 C31 1_555 1_555
C33 C6 1_555 1_555
H14 C33 1_555 1_555
C40 C27 1_555 1_555
H19 C40 1_555 1_555
C42 C40 1_555 1_555
H21 C42 1_555 1_555
O17 C94 1_555 1_555
O19 C94 1_555 1_555
C76 C21 1_555 1_555
C80 C85 1_555 1_555
C84 C76 1_555 1_555
C85 H47 1_555 1_555
C87 C75 1_555 1_555
H48 C87 1_555 1_555
C89 C84 1_555 1_555
H50 C89 1_555 1_555
C94 C80 1_555 1_555
C95 C80 1_555 1_555
H54 C95 1_555 1_555
C98 C84 1_555 1_555
H57 C98 1_555 1_555
Sr6 O3 1_555 1_555
Sr7 O17 1_555 1_555
Sr12 O3 1_555 1_555
Sr14 O17 1_555 1_555
O6 Sr6 1_555 1_555
O9 Sr10 1_555 1_555
C10 C27 1_555 1_555
C25 C33 1_555 1_555
C29 C31 1_555 1_555
C75 C76 1_555 1_555
O19 Sr14 1_555 1_555
C85 C89 1_555 1_555
C95 C98 1_555 1_555
Sr1 O1 1_555 1_555
Sr10 O1 1_555 1_555
O1 C22 1_555 1_555
O4 Sr1 1_555 1_555
O5 Sr1 1_555 1_555
N4 H2 1_555 1_555
O8 Sr1 1_555 1_555
O10 Sr10 1_555 1_555
C2 C1 1_555 1_555
C9 C19 1_555 1_555
C16 C22 1_555 1_555
C18 C2 1_555 1_555
C19 H8 1_555 1_555
C22 O8 1_555 1_555
C24 C1 1_555 1_555
H9 C24 1_555 1_555
C26 C18 1_555 1_555
H11 C26 1_555 1_555
C28 C30 1_555 1_555
C32 N4 1_555 1_555
C34 O4 1_555 1_555
C35 O5 1_555 1_555
C37 C9 1_555 1_555
H16 C37 1_555 1_555
C38 C16 1_555 1_555
H17 C38 1_555 1_555
C39 C28 1_555 1_555
C44 C28 1_555 1_555
H23 C44 1_555 1_555
C46 C16 1_555 1_555
H25 C46 1_555 1_555
C48 C32 1_555 1_555
H27 C48 1_555 1_555
C49 C18 1_555 1_555
H28 C49 1_555 1_555
C50 C35 1_555 1_555
H29 C50 1_555 1_555
H30 C50 1_555 1_555
H31 C50 1_555 1_555
O16 C82 1_555 1_555
N7 H45 1_555 1_555
O18 C82 1_555 1_555
N8 C86 1_555 1_555
C77 N7 1_555 1_555
C78 C81 1_555 1_555
C79 C82 1_555 1_555
C81 C77 1_555 1_555
C83 C77 1_555 1_555
H46 C83 1_555 1_555
C86 C2 1_555 1_555
C88 C78 1_555 1_555
H49 C88 1_555 1_555
C90 N8 1_555 1_555
C91 C78 1_555 1_555
H51 C91 1_555 1_555
C92 C79 1_555 1_555
H52 C92 1_555 1_555
C93 C79 1_555 1_555
H53 C93 1_555 1_555
C96 C90 1_555 1_555
H55 C96 1_555 1_555
C97 C86 1_555 1_555
H56 C97 1_555 1_555
Sr9 O16 1_555 1_555
Sr16 O16 1_555 1_555
O23 Sr1 1_555 1_555
O26 Sr1 1_555 1_555
O32 Sr1 1_555 1_555
O34 Sr1 1_555 1_555
Sr10 O4 1_555 1_555
Sr10 O23 1_555 1_555
O10 C34 1_555 1_555
C9 C34 1_555 1_555
C19 C26 1_555 1_555
C30 C32 1_555 1_555
C37 C49 1_555 1_555
C38 C39 1_555 1_555
C44 C46 1_555 1_555
O18 Sr9 1_555 1_555
C81 C90 1_555 1_555
C88 C93 1_555 1_555
C91 C92 1_555 1_555
C96 C97 1_555 1_555
C43 C23 1_555 1_555
H22 C43 1_555 1_555
O13 C52 1_555 1_555
N5 C51 1_555 1_555
O14 C52 1_555 1_555
C51 C55 1_555 1_555
C52 C56 1_555 1_555
C53 H33 1_555 1_555
C54 C53 1_555 1_555
H34 C54 1_555 1_555
C55 C23 1_555 1_555
C56 C53 1_555 1_555
C58 C54 1_555 1_555
C59 N5 1_555 1_555
C65 C58 1_555 1_555
H35 C65 1_555 1_555
C68 C51 1_555 1_555
H38 C68 1_555 1_555
C71 C56 1_555 1_555
H41 C71 1_555 1_555
C73 C59 1_555 1_555
H43 C73 1_555 1_555
H58 O22 1_555 1_555
H59 O22 1_555 1_555
Sr16 O13 1_555 1_555
C55 C58 1_555 1_555
C65 C71 1_555 1_555
C68 C73 1_555 1_555
O2 C7 1_555 1_555
N1 C3 1_555 1_555
O7 C7 1_555 1_555
C3 C13 1_555 1_555
H3 O11 1_555 1_555
H4 O11 1_555 1_555
C7 C15 1_555 1_555
C8 H5 1_555 1_555
C12 C8 1_555 1_555
H6 C12 1_555 1_555
C13 C17 1_555 1_555
C15 C8 1_555 1_555
C17 C12 1_555 1_555
C20 N1 1_555 1_555
C36 C17 1_555 1_555
H15 C36 1_555 1_555
C41 C3 1_555 1_555
H20 C41 1_555 1_555
C45 C15 1_555 1_555
H24 C45 1_555 1_555
C47 C20 1_555 1_555
H26 C47 1_555 1_555
C61 C13 1_555 1_555
C69 C61 1_555 1_555
H39 C69 1_555 1_555
Sr12 O2 1_555 1_555
C36 C45 1_555 1_555
C41 C47 1_555 1_555
O12 C60 1_555 1_555
N6 H32 1_555 1_555
O15 C60 1_555 1_555
C57 C60 1_555 1_555
C62 C63 1_555 1_555
C64 N6 1_555 1_555
C66 C57 1_555 1_555
H36 C66 1_555 1_555
C67 C62 1_555 1_555
C70 C62 1_555 1_555
H40 C70 1_555 1_555
C72 C57 1_555 1_555
H42 C72 1_555 1_555
C74 C64 1_555 1_555
H44 C74 1_555 1_555
Sr7 O12 1_555 1_555
Sr14 O12 1_555 1_555
O31 Sr7 1_555 1_555
C99 O31 1_555 1_555
C100 C99 1_555 1_555
H60 C100 1_555 1_555
H61 C100 1_555 1_555
H62 C100 1_555 1_555
O24 Sr7 1_555 1_555
O28 Sr7 1_555 1_555
O33 Sr7 1_555 1_555
O35 Sr7 1_555 1_555
O37 Sr14 1_555 1_555
O15 Sr7 1_555 1_555
C63 C64 1_555 1_555
C66 C67 1_555 1_555
C70 C72 1_555 1_555
Sr14 O24 1_555 1_555
O23 C7_2 1_555 1_555
O34 C7_2 1_555 1_555
C7_2 C15_2 1_555 1_555
C15_2 C8_2 1_555 1_555
H15_2 C36_2 1_555 1_555
C45_2 C15_2 1_555 1_555
H24_2 C45_2 1_555 1_555
O20 Sr9 1_555 1_555
O21 C99_2 1_555 1_555
C99_2 O20 1_555 1_555
C100_2 C99_2 1_555 1_555
H60_2 C100_2 1_555 1_555
H61_2 C100_2 1_555 1_555
H62_2 C100_2 1_555 1_555
Sr16 O20 1_555 1_555
C36_2 C45_2 1_555 1_555
O15_2 Sr9 1_555 1_555
O21 Sr16 1_555 1_555
H6_2 C12_2 1_555 1_555
C13_2 C17_2 1_555 1_555
C17_2 C12_2 1_555 1_555
O12_2 C60_2 1_555 1_555
N5_2 C51_2 1_555 1_555
N6_2 H32_2 1_555 1_555
C57_2 C60_2 1_555 1_555
C59_2 N5_2 1_555 1_555
C61_2 C13_2 1_555 1_555
C62_2 C63_2 1_555 1_555
C63_2 C59_2 1_555 1_555
C64_2 N6_2 1_555 1_555
C66_2 C57_2 1_555 1_555
H36_2 C66_2 1_555 1_555
C67_2 C62_2 1_555 1_555
H37_2 C67_2 1_555 1_555
C68_2 C51_2 1_555 1_555
H38_2 C68_2 1_555 1_555
C69_2 C61_2 1_555 1_555
C70_2 C62_2 1_555 1_555
H40_2 C70_2 1_555 1_555
C72_2 C57_2 1_555 1_555
C73_2 C59_2 1_555 1_555
H43_2 C73_2 1_555 1_555
C74_2 C64_2 1_555 1_555
H44_2 C74_2 1_555 1_555
Sr16 O12_2 1_555 1_555
O22_2 Sr16 1_555 1_555
H58_2 O22_2 1_555 1_555
H59_2 O22_2 1_555 1_555
O38 Sr16 1_555 1_555
N6_2 C61_2 1_555 1_555
C63_2 C64_2 1_555 1_555
C66_2 C67_2 1_555 1_555
C68_2 C73_2 1_555 1_555
C69_2 C74_2 1_555 1_555
C70_2 C72_2 1_555 1_555
Sr16 O29 1_555 1_555
Sr12 O1_2 1_555 1_555
O1_2 C22_2 1_555 1_555
N1_2 C3_2 1_555 1_555
N4_2 H2_2 1_555 1_555
O10_2 Sr12 1_555 1_555
O11_2 Sr12 1_555 1_555
H3_2 O11_2 1_555 1_555
H4_2 O11_2 1_555 1_555
C16_2 C22_2 1_555 1_555
C20_2 N1_2 1_555 1_555
C23_2 N4_2 1_555 1_555
C28_2 C30_2 1_555 1_555
C30_2 C20_2 1_555 1_555
C32_2 N4_2 1_555 1_555
C34_2 O4_2 1_555 1_555
C37_2 C9_2 1_555 1_555
H16_2 C37_2 1_555 1_555
C38_2 C16_2 1_555 1_555
H17_2 C38_2 1_555 1_555
C39_2 C28_2 1_555 1_555
H18_2 C39_2 1_555 1_555
C41_2 C3_2 1_555 1_555
H20_2 C41_2 1_555 1_555
C43_2 C23_2 1_555 1_555
C44_2 C28_2 1_555 1_555
H23_2 C44_2 1_555 1_555
C46_2 C16_2 1_555 1_555
C47_2 C20_2 1_555 1_555
H26_2 C47_2 1_555 1_555
C48_2 C32_2 1_555 1_555
H27_2 C48_2 1_555 1_555
H28_2 C49_2 1_555 1_555
H34_2 C54_2 1_555 1_555
C55_2 C23_2 1_555 1_555
C58_2 C54_2 1_555 1_555
O30 Sr12 1_555 1_555
O36 Sr12 1_555 1_555
Sr12 O4_2 1_555 1_555
O10_2 C34_2 1_555 1_555
C9_2 C34_2 1_555 1_555
C30_2 C32_2 1_555 1_555
C37_2 C49_2 1_555 1_555
C38_2 C39_2 1_555 1_555
C41_2 C47_2 1_555 1_555
C43_2 C48_2 1_555 1_555
C44_2 C46_2 1_555 1_555
C55_2 C58_2 1_555 1_555
O28 C82_2 1_555 1_555
O33 C82_2 1_555 1_555
C79_2 C82_2 1_555 1_555
H51_2 C91_2 1_555 1_555
C92_2 C79_2 1_555 1_555
H52_2 C92_2 1_555 1_555
C91_2 C92_2 1_555 1_555
C5_2 C10_2 1_555 1_555
C25_2 C5_2 1_555 1_555
H10_2 C25_2 1_555 1_555
H14_2 C33_2 1_555 1_555
C40_2 C27_2 1_555 1_555
C10_2 C27_2 1_555 1_555
C25_2 C33_2 1_555 1_555
N3_2 C21_2 1_555 1_555
C21_2 C42_2 1_555 1_555
H21_2 C42_2 1_555 1_555
N7_2 H45_2 1_555 1_555
C75_2 N7_2 1_555 1_555
C76_2 C21_2 1_555 1_555
C77_2 N7_2 1_555 1_555
C83_2 C77_2 1_555 1_555
H46_2 C83_2 1_555 1_555
C84_2 C76_2 1_555 1_555
C85_2 H47_2 1_555 1_555
C87_2 C75_2 1_555 1_555
H48_2 C87_2 1_555 1_555
C89_2 C84_2 1_555 1_555
H50_2 C89_2 1_555 1_555
C75_2 C76_2 1_555 1_555
C83_2 C87_2 1_555 1_555
C85_2 C89_2 1_555 1_555
O30 Sr6 1_555 1_555
N2_2 H1_2 1_555 1_555
O8_2 Sr6 1_555 1_555
O36 C35_2 1_555 1_555
C1_2 N2_2 1_555 1_555
C2_2 C1_2 1_555 1_555
C4_2 N2_2 1_555 1_555
C14_2 C4_2 1_555 1_555
H7_2 C14_2 1_555 1_555
C18_2 C2_2 1_555 1_555
C19_2 H8_2 1_555 1_555
C24_2 C1_2 1_555 1_555
H9_2 C24_2 1_555 1_555
C26_2 C18_2 1_555 1_555
H11_2 C26_2 1_555 1_555
C35_2 O30 1_555 1_555
C50_2 C35_2 1_555 1_555
H29_2 C50_2 1_555 1_555
H30_2 C50_2 1_555 1_555
H31_2 C50_2 1_555 1_555
O24 C52_2 1_555 1_555
O35 C52_2 1_555 1_555
C52_2 C56_2 1_555 1_555
C56_2 C53_2 1_555 1_555
H35_2 C65_2 1_555 1_555
C71_2 C56_2 1_555 1_555
H41_2 C71_2 1_555 1_555
N8_2 C86_2 1_555 1_555
C86_2 C2_2 1_555 1_555
C97_2 C86_2 1_555 1_555
H56_2 C97_2 1_555 1_555
C14_2 C24_2 1_555 1_555
C19_2 C26_2 1_555 1_555
C65_2 C71_2 1_555 1_555
C78_2 C81_2 1_555 1_555
C88_2 C78_2 1_555 1_555
H49_2 C88_2 1_555 1_555
H53_2 C93_2 1_555 1_555
C96_2 C90_2 1_555 1_555
C81_2 C90_2 1_555 1_555
C88_2 C93_2 1_555 1_555
O26 C11_2 1_555 1_555
O32 C11_2 1_555 1_555
C6_2 C11_2 1_555 1_555
H12_2 C29_2 1_555 1_555
C31_2 C6_2 1_555 1_555
H13_2 C31_2 1_555 1_555
C29_2 C31_2 1_555 1_555
O29 C94_2 1_555 1_555
O38 C94_2 1_555 1_555
C94_2 C80_2 1_555 1_555
C95_2 C80_2 1_555 1_555
H54_2 C95_2 1_555 1_555
H57_2 C98_2 1_555 1_555
C95_2 C98_2 1_555 1_555
N9 H63 1_555 1_555
H64 N9 1_555 1_555
C101 N9 1_555 1_555
H65 C101 1_555 1_555
H66 C101 1_555 1_555
H67 C101 1_555 1_555
C102 N9 1_555 1_555
H68 C102 1_555 1_555
H69 C102 1_555 1_555
H70 C102 1_555 1_555
N9_2 H63_2 1_555 1_555
H64_2 N9_2 1_555 1_555
C101_2 N9_2 1_555 1_555
H65_2 C101_2 1_555 1_555
H66_2 C101_2 1_555 1_555
H67_2 C101_2 1_555 1_555
C102_2 N9_2 1_555 1_555
H68_2 C102_2 1_555 1_555
H69_2 C102_2 1_555 1_555
H70_2 C102_2 1_555 1_555
N9_3 H63_3 1_555 1_555
H64_3 N9_3 1_555 1_555
C101_3 N9_3 1_555 1_555
H65_3 C101_3 1_555 1_555
H66_3 C101_3 1_555 1_555
H67_3 C101_3 1_555 1_555
C102_3 N9_3 1_555 1_555
H68_3 C102_3 1_555 1_555
H69_3 C102_3 1_555 1_555
H70_3 C102_3 1_555 1_555
N9_4 H63_4 1_555 1_555
H64_4 N9_4 1_555 1_555
C101_4 N9_4 1_555 1_555
H65_4 C101_4 1_555 1_555
H66_4 C101_4 1_555 1_555
H67_4 C101_4 1_555 1_555
C102_4 N9_4 1_555 1_555
H68_4 C102_4 1_555 1_555
H69_4 C102_4 1_555 1_555
H70_4 C102_4 1_555 1_555

#END
