
###############################################################################
#
# This file contains modified crystal structure data generated from the
# MOF subset of the Cambridge Structural Database (CSD) v543 
# hosted by the Cambridge Crystallographic Data Centre (CCDC).
#
# This work is licensed under the Creative Commons
# Attribution-NonCommercial-ShareAlike 4.0 International License.
# To view a copy of this license, visit
# http://creativecommons.org/licenses/by-nc-sa/4.0/
# or send a letter to
# Creative Commons, PO Box 1866, Mountain View, CA 94042, USA.
#
# CIF created using the CSD Python API on 29 September 2022
# The structure has been converted into the P1 space group
# The structure has a 3D framework
# The original CSD entry KEHBEI is in the monoclinic crystal system
# The framework has been calculated to contain at least 10.0% void space
# The void calculation uses a probe of radius 1.32A, grid spacing 0.4
#
###############################################################################

data_KEHBEI
_chemical_formula_moiety         '(C144 H104 Cu62 F72 O144 S24)n'
_symmetry_cell_setting           triclinic
_symmetry_space_group_name_H-M   'P 1'
_symmetry_Int_Tables_number      1
_space_group_name_Hall           'P 1'
loop_
_symmetry_equiv_pos_site_id
_symmetry_equiv_pos_as_xyz
1 x,y,z
_cell_length_a                   17.0045(3)
_cell_length_b                   19.5007(4)
_cell_length_c                   24.9159(6)
_cell_angle_alpha                90
_cell_angle_beta                 91.855(2)
_cell_angle_gamma                90
_cell_volume                     8257.77
loop_
_atom_site_label
_atom_site_type_symbol
_atom_site_fract_x
_atom_site_fract_y
_atom_site_fract_z
H4 H 0.015109 0.646790 0.584034
H6 H 0.008404 0.512618 0.368986
H8 H 0.008211 0.336344 0.572305
Cu1 Cu 0.79837(5) 0.58541(4) 0.46958(4)
Cu2 Cu 0.79918(5) 0.42032(4) 0.46431(4)
Cu3 Cu 0.80396(5) 0.49925(4) 0.57704(4)
Cu4 Cu 0.68683(5) 0.27781(4) 0.47550(4)
Cu5 Cu 0.50770(5) 0.22140(5) 0.49530(4)
Cu6 Cu 0.61746(5) 0.26975(4) 0.59585(4)
Cu7 Cu 0.31881(5) 0.35556(4) 0.63548(4)
Cu8 Cu 0.61042(5) 0.51109(5) 0.29939(4)
Cu9 Cu 0.50207(5) 0.64949(4) 0.31446(4)
Cu10 Cu 0.61461(6) 0.71971(6) 0.61089(5)
Cu11 Cu 0.88875(6) 0.24756(6) 0.48057(4)
Cu12 Cu 0.54862(5) 0.17817(5) 0.71663(4)
Cu13 Cu 0.89720(5) 0.61378(5) 0.68873(4)
Cu14 Cu 0.88646(5) 0.67011(5) 0.33377(4)
S1 S 0.94158(8) 0.57512(8) 0.30286(6)
S2 S 0.94384(8) 0.23290(8) 0.56014(7)
S3 S 0.46187(8) 0.09969(8) 0.69419(7)
S4 S 0.79668(8) 0.35005(8) 0.68720(7)
S5 S 0.94447(9) 0.70340(8) 0.64925(7)
S6 S 0.38740(12) 0.74489(10) 0.76797(8)
F1 F 0.7627(4) 0.3547(5) 0.3118(2)
F2 F 0.8024(5) 0.2538(4) 0.2997(2)
F3 F 0.8834(3) 0.3347(4) 0.3110(2)
F4 F 0.7038(3) 0.0979(3) 0.3616(3)
F5 F 0.5816(3) 0.0756(3) 0.3614(2)
F6 F 0.6554(4) 0.0350(3) 0.4246(3)
F7 F 0.7622(3) 0.7769(3) 0.5062(2)
F8 F 0.7868(3) 0.8436(2) 0.4405(2)
F9 F 0.8808(3) 0.8025(3) 0.4911(2)
F10 F 0.6007(5) 0.6201(4) 0.1363(3)
F11 F 0.4759(4) 0.6342(3) 0.1296(2)
F12 F 0.5258(4) 0.5342(3) 0.1270(2)
F13 F 0.6536(4) 0.9106(3) 0.5104(3)
F14 F 0.5551(4) 0.9611(3) 0.5386(3)
F15 F 0.6616(5) 0.9741(4) 0.5808(3)
O1 O 0.8776(2) 0.5611(2) 0.41809(19)
O2 O 0.8718(2) 0.4467(2) 0.40841(19)
O3 O 0.8751(2) 0.3666(2) 0.50844(19)
O4 O 0.8779(2) 0.4213(2) 0.58773(18)
O5 O 0.8865(2) 0.5693(2) 0.58622(18)
O6 O 0.8712(2) 0.6389(2) 0.51533(18)
O7 O 0.7649(2) 0.3258(2) 0.41465(19)
O8 O 0.8714(3) 0.2592(2) 0.4049(2)
O9 O 0.6823(3) 0.1969(2) 0.4294(2)
O10 O 0.5652(3) 0.1549(3) 0.4500(2)
O11 O 0.4864(3) 0.1556(3) 0.5518(2)
O12 O 0.5715(2) 0.1833(2) 0.61923(19)
O13 O 0.7268(2) 0.2403(2) 0.60708(18)
O14 O 0.7723(2) 0.2421(2) 0.52325(18)
O15 O 0.7709(2) 0.6137(2) 0.32074(18)
O16 O 0.7208(3) 0.5239(3) 0.2767(2)
O17 O 0.5664(4) 0.5377(3) 0.2292(2)
O18 O 0.4981(3) 0.6352(2) 0.2363(2)
O19 O 0.4555(2) 0.2550(2) 0.68891(18)
O20 O 0.3280(2) 0.2627(2) 0.66417(19)
O21 O 0.7625(2) 0.6843(2) 0.42895(18)
O22 O 0.8737(2) 0.7296(2) 0.39854(19)
O23 O 0.6430(3) 0.2231(2) 0.7408(2)
O24 O 0.6281(2) 0.3136(2) 0.68596(18)
O25 O 0.7886(2) 0.4977(2) 0.66825(18)
O26 O 0.8916(2) 0.5263(2) 0.72237(19)
O27 O 0.7771(2) 0.6520(2) 0.66061(19)
O28 O 0.7190(3) 0.7482(3) 0.6296(3)
O29 O 0.5728(4) 0.7193(3) 0.6876(3)
O30 O 0.5132(5) 0.8146(4) 0.7059(3)
O31 O 0.3864(3) 0.5939(3) 0.7351(2)
O32 O 0.2934(3) 0.5721(3) 0.7948(2)
H1 H 0.283038 0.533263 0.781721
O33 O 0.5912(3) 0.8099(3) 0.5655(3)
O34 O 0.5875(4) 0.8814(4) 0.6396(3)
H2 H 0.550549 0.848132 0.662640
C1 C 0.9019(3) 0.6221(3) 0.5603(3)
C2 C 0.9637(4) 0.6707(4) 0.5827(3)
H3 H 0.968025 0.709969 0.557793
C3 C 0.8959(3) 0.5054(3) 0.3964(3)
C4 C 0.9552(4) 0.5077(3) 0.3521(3)
H5 H 0.953612 0.463117 0.333099
C5 C 0.8968(3) 0.3730(3) 0.5569(3)
C6 C 0.9545(4) 0.3212(3) 0.5808(3)
H7 H 0.950604 0.322928 0.620388
C7 C 0.8166(3) 0.2971(3) 0.3887(3)
C8 C 0.8147(4) 0.3086(5) 0.3272(3)
C9 C 0.6284(4) 0.1548(4) 0.4280(3)
C10 C 0.6434(5) 0.0915(4) 0.3930(4)
C11 C 0.5194(4) 0.1466(3) 0.5966(3)
C12 C 0.4943(4) 0.0821(3) 0.6261(3)
H9 H 0.538982 0.049626 0.628078
H10 H 0.450774 0.059890 0.605211
C13 C 0.7792(3) 0.2327(3) 0.5739(3)
C14 C 0.8580(4) 0.2067(4) 0.5962(3)
H11 H 0.856332 0.155932 0.596744
H12 H 0.864630 0.222421 0.633821
C15 C 0.7763(4) 0.5625(3) 0.2908(3)
C16 C 0.8552(4) 0.5468(4) 0.2660(3)
H13 H 0.855272 0.567864 0.229909
H14 H 0.859019 0.496508 0.261172
C17 C 0.5315(4) 0.5900(4) 0.2143(3)
C18 C 0.5314(6) 0.5943(5) 0.1505(4)
C19 C 0.3883(3) 0.2301(3) 0.6775(3)
C20 C 0.3762(3) 0.1525(3) 0.6803(3)
H15 H 0.351994 0.137446 0.645629
H16 H 0.337708 0.143192 0.708367
C21 C 0.8166(3) 0.7276(3) 0.4278(3)
C22 C 0.8107(4) 0.7885(4) 0.4669(3)
C23 C 0.6668(3) 0.2763(3) 0.7186(3)
C24 C 0.7508(4) 0.2964(4) 0.7361(3)
H17 H 0.782631 0.254375 0.741645
H18 H 0.749613 0.321138 0.770747
C25 C 0.8475(4) 0.4134(3) 0.7286(3)
H19 H 0.824371 0.414157 0.764576
H20 H 0.903544 0.400302 0.733224
C26 C 0.8419(3) 0.4846(3) 0.7040(3)
C27 C 0.7775(4) 0.7129(4) 0.6432(3)
C28 C 0.8550(4) 0.7500(4) 0.6363(3)
H21 H 0.855561 0.790613 0.660154
H22 H 0.855636 0.767172 0.598914
C29 C 0.5290(4) 0.7501(4) 0.7166(3)
C30 C 0.4947(5) 0.7201(5) 0.7638(4)
H23 H 0.523877 0.736146 0.796456
H24 H 0.499215 0.669555 0.762193
C31 C 0.3545(6) 0.6752(4) 0.8050(4)
H25 H 0.390780 0.668458 0.836386
H26 H 0.302030 0.686390 0.818686
C32 C 0.3485(6) 0.6093(4) 0.7745(3)
C33 C 0.5975(6) 0.8652(5) 0.5899(4)
C34 C 0.6201(6) 0.9286(5) 0.5542(4)
Cu15 Cu 0.68614(5) 0.41755(5) 0.67059(4)
Cu16 Cu 0.68886(5) 0.58499(5) 0.66714(4)
F16 F 0.6605(7) 0.4558(3) 0.8503(2)
F17 F 0.7245(5) 0.5519(4) 0.8490(2)
F18 F 0.6024(5) 0.5536(4) 0.8400(3)
O35 O 0.6702(3) 0.4528(2) 0.74609(18)
O36 O 0.6781(3) 0.5691(3) 0.74377(19)
C35 C 0.6723(4) 0.5115(4) 0.7653(3)
C36 C 0.6665(8) 0.5170(5) 0.8274(4)
Cu17 Cu 0.49230(5) 0.77860(5) 0.50470(4)
Cu18 Cu 0.68119(5) 0.64444(4) 0.36452(4)
Cu19 Cu 0.38958(5) 0.48891(5) 0.70061(4)
Cu20 Cu 0.49793(5) 0.35051(4) 0.68554(4)
Cu21 Cu 0.95138(5) 0.67817(5) 0.78337(4)
Cu22 Cu 0.60280(5) 0.11378(5) 0.81127(4)
Cu23 Cu 0.38646(5) 0.82989(5) 0.83377(4)
S7 S 0.88740(12) 0.75511(10) 0.26797(8)
O37 O 0.2291(2) 0.3863(2) 0.67926(18)
O38 O 0.5445(2) 0.7450(2) 0.31109(18)
O39 O 0.2375(2) 0.3157(2) 0.57105(18)
O40 O 0.3719(2) 0.6864(2) 0.31404(18)
O41 O 0.6136(3) 0.4061(3) 0.2649(2)
O42 O 0.4088(3) 0.1901(3) 0.4345(3)
F11_2 F 0.0241(4) 0.1342(3) 0.3704(2)
O18_2 O 0.0019(3) 0.1352(2) 0.2637(2)
O40_2 O 0.1281(2) 0.1864(2) 0.18596(18)
S6_2 S 0.11260(12) 0.24489(10) 0.73203(8)
O31_2 O 0.1136(3) 0.0939(3) 0.7649(2)
O32_2 O 0.2066(3) 0.0721(3) 0.7052(2)
H1_2 H 0.216962 0.033263 0.718279
C30_2 C 0.0053(5) 0.2201(5) 0.7362(4)
H24_2 H 0.000785 0.169555 0.737807
C31_2 C 0.1455(6) 0.1752(4) 0.6950(4)
H25_2 H 0.109220 0.168458 0.663614
H26_2 H 0.197970 0.186390 0.681314
C32_2 C 0.1515(6) 0.1093(4) 0.7255(3)
Cu17_2 Cu 0.00770(5) 0.27860(5) 0.99530(4)
Cu23_2 Cu 0.11354(5) 0.32989(5) 0.66623(4)
O42_2 O 0.0912(3) 0.6901(3) 0.0655(3)
Cu7_2 Cu 0.18119(5) 0.85556(4) 0.86452(4)
S3_2 S 0.03813(8) 0.59969(8) 0.80581(7)
O11_2 O 0.0136(3) 0.6556(3) 0.9482(2)
O19_2 O 0.0445(2) 0.7550(2) 0.81109(18)
O20_2 O 0.1720(2) 0.7627(2) 0.83583(19)
C12_2 C 0.0057(4) 0.5821(3) 0.8739(3)
H10_2 H 0.049226 0.559890 0.894789
C19_2 C 0.1117(3) 0.7301(3) 0.8225(3)
C20_2 C 0.1238(3) 0.6525(3) 0.8197(3)
H15_2 H 0.148006 0.637446 0.854371
H16_2 H 0.162292 0.643192 0.791633
Cu19_2 Cu 0.11042(5) 0.98891(5) 0.79939(4)
Cu20_2 Cu 0.00207(5) 0.85051(4) 0.81446(4)
O37_2 O 0.2709(2) 0.8863(2) 0.82074(18)
O39_2 O 0.2625(2) 0.8157(2) 0.92895(18)
Cu1_2 Cu 0.70163(5) 0.08541(4) 0.03042(4)
Cu8_2 Cu 0.88958(5) 0.01109(5) 0.20061(4)
Cu9_2 Cu 0.99793(5) 0.14949(4) 0.18554(4)
Cu14_2 Cu 0.61354(5) 0.17011(5) 0.16623(4)
S1_2 S 0.55842(8) 0.07512(8) 0.19714(6)
F8_2 F 0.7132(3) 0.3436(2) 0.0595(2)
F9_2 F 0.6192(3) 0.3025(3) 0.0089(2)
F10_2 F 0.8993(5) 0.1201(4) 0.3637(3)
F12_2 F 0.9742(4) 0.0342(3) 0.3730(2)
O1_2 O 0.6224(2) 0.0611(2) 0.08191(19)
O15_2 O 0.7291(2) 0.1137(2) 0.17926(18)
O16_2 O 0.7792(3) 0.0239(3) 0.2233(2)
O17_2 O 0.9336(4) 0.0377(3) 0.2708(2)
O21_2 O 0.7375(2) 0.1843(2) 0.07105(18)
O22_2 O 0.6263(2) 0.2296(2) 0.10146(19)
C3_2 C 0.6041(3) 0.0054(3) 0.1036(3)
C4_2 C 0.5448(4) 0.0077(3) 0.1479(3)
H6_2 H 0.491596 0.012618 0.131014
C15_2 C 0.7237(4) 0.0625(3) 0.2092(3)
C16_2 C 0.6448(4) 0.0468(4) 0.2340(3)
H13_2 H 0.644728 0.067864 0.270091
C17_2 C 0.9685(4) 0.0900(4) 0.2857(3)
C18_2 C 0.9686(6) 0.0943(5) 0.3495(4)
C21_2 C 0.6834(3) 0.2276(3) 0.0722(3)
C22_2 C 0.6893(4) 0.2885(4) 0.0331(3)
Cu18_2 Cu 0.81881(5) 0.14444(4) 0.13548(4)
S7_2 S 0.61260(12) 0.25511(10) 0.23203(8)
O38_2 O 0.9555(2) 0.2450(2) 0.18891(18)
Cu10_2 Cu 0.88539(6) 0.21971(6) 0.88911(5)
S5_2 S 0.55553(9) 0.20340(8) 0.85075(7)
F7_2 F 0.7378(3) 0.2769(3) 0.9938(2)
F13_2 F 0.8464(4) 0.4106(3) 0.9896(3)
F14_2 F 0.9449(4) 0.4611(3) 0.9614(3)
F15_2 F 0.8384(5) 0.4741(4) 0.9192(3)
O5_2 O 0.6135(2) 0.0693(2) 0.91378(18)
O6_2 O 0.6288(2) 0.1389(2) 0.98467(18)
O26_2 O 0.6084(2) 0.0263(2) 0.77763(19)
O27_2 O 0.7229(2) 0.1520(2) 0.83939(19)
O28_2 O 0.7810(3) 0.2482(3) 0.8704(3)
O29_2 O 0.9272(4) 0.2193(3) 0.8124(3)
O30_2 O 0.9868(5) 0.3146(4) 0.7941(3)
O33_2 O 0.9088(3) 0.3099(3) 0.9345(3)
O34_2 O 0.9125(4) 0.3814(4) 0.8604(3)
H2_2 H 0.949451 0.348132 0.837360
C1_2 C 0.5981(3) 0.1221(3) 0.9397(3)
C2_2 C 0.5363(4) 0.1707(4) 0.9173(3)
H3_2 H 0.531975 0.209969 0.942207
H4_2 H 0.484891 0.146790 0.915966
C27_2 C 0.7225(4) 0.2129(4) 0.8568(3)
C28_2 C 0.6450(4) 0.2500(4) 0.8637(3)
H21_2 H 0.644439 0.290613 0.839846
H22_2 H 0.644364 0.267172 0.901086
C29_2 C 0.9710(4) 0.2501(4) 0.7834(3)
H23_2 H 0.976123 0.236146 0.703544
C33_2 C 0.9025(6) 0.3652(5) 0.9101(4)
C34_2 C 0.8799(6) 0.4286(5) 0.9458(4)
Cu16_2 Cu 0.81114(5) 0.08499(5) 0.83286(4)
F17_2 F 0.7755(5) 0.0519(4) 0.6510(2)
F18_2 F 0.8976(5) 0.0536(4) 0.6600(3)
O36_2 O 0.8219(3) 0.0691(3) 0.75623(19)
C35_2 C 0.8277(4) 0.0115(4) 0.7347(3)
C36_2 C 0.8335(8) 0.0170(5) 0.6726(4)
Cu2_2 Cu 0.70082(5) 0.92032(4) 0.03569(4)
Cu4_2 Cu 0.81317(5) 0.77781(4) 0.02450(4)
Cu5_2 Cu 0.99230(5) 0.72140(5) 0.00470(4)
Cu11_2 Cu 0.61125(6) 0.74756(6) 0.01943(4)
F1_2 F 0.7373(4) 0.8547(5) 0.1882(2)
F2_2 F 0.6976(5) 0.7538(4) 0.2003(2)
F3_2 F 0.6166(3) 0.8347(4) 0.1890(2)
F4_2 F 0.7962(3) 0.5979(3) 0.1384(3)
F5_2 F 0.9184(3) 0.5756(3) 0.1386(2)
F6_2 F 0.8446(4) 0.5350(3) 0.0754(3)
O2_2 O 0.6282(2) 0.9467(2) 0.09159(19)
O7_2 O 0.7351(2) 0.8258(2) 0.08535(19)
O8_2 O 0.6286(3) 0.7592(2) 0.0951(2)
O9_2 O 0.8177(3) 0.6969(2) 0.0706(2)
O10_2 O 0.9348(3) 0.6549(3) 0.0500(2)
H5_2 H 0.546388 0.963117 0.166901
C7_2 C 0.6834(3) 0.7971(3) 0.1113(3)
C8_2 C 0.6853(4) 0.8086(5) 0.1728(3)
C9_2 C 0.8716(4) 0.6548(4) 0.0720(3)
C10_2 C 0.8566(5) 0.5915(4) 0.1070(4)
H14_2 H 0.640981 0.996508 0.238828
O41_2 O 0.8864(3) 0.9061(3) 0.2351(2)
Cu3_2 Cu 0.69604(5) 0.99925(4) 0.92296(4)
Cu6_2 Cu 0.88254(5) 0.76975(4) 0.90415(4)
S2_2 S 0.55616(8) 0.73290(8) 0.93986(7)
S4_2 S 0.70332(8) 0.85005(8) 0.81280(7)
O3_2 O 0.6249(2) 0.8666(2) 0.99156(19)
O4_2 O 0.6221(2) 0.9213(2) 0.91227(18)
O12_2 O 0.9285(2) 0.6833(2) 0.88077(19)
O13_2 O 0.7732(2) 0.7403(2) 0.89292(18)
O14_2 O 0.7277(2) 0.7421(2) 0.97675(18)
O23_2 O 0.8570(3) 0.7231(2) 0.7592(2)
O24_2 O 0.8719(2) 0.8136(2) 0.81404(18)
O25_2 O 0.7114(2) 0.9977(2) 0.83175(18)
C5_2 C 0.6032(3) 0.8730(3) 0.9431(3)
C6_2 C 0.5455(4) 0.8212(3) 0.9192(3)
H7_2 H 0.549396 0.822928 0.879612
H8_2 H 0.491789 0.836344 0.927695
C11_2 C 0.9806(4) 0.6466(3) 0.9034(3)
H9_2 H 0.961018 0.549626 0.871922
C13_2 C 0.7208(3) 0.7327(3) 0.9261(3)
C14_2 C 0.6420(4) 0.7067(4) 0.9038(3)
H11_2 H 0.643668 0.655932 0.903256
H12_2 H 0.635370 0.722421 0.866179
C23_2 C 0.8332(3) 0.7763(3) 0.7814(3)
C24_2 C 0.7492(4) 0.7964(4) 0.7639(3)
H17_2 H 0.717369 0.754375 0.758355
H18_2 H 0.750387 0.821138 0.729253
C25_2 C 0.6525(4) 0.9134(3) 0.7714(3)
H19_2 H 0.675629 0.914157 0.735424
H20_2 H 0.596456 0.900302 0.766776
C26_2 C 0.6581(3) 0.9846(3) 0.7960(3)
Cu15_2 Cu 0.81386(5) 0.91755(5) 0.82941(4)
F16_2 F 0.8395(7) 0.9558(3) 0.6497(2)
O35_2 O 0.8298(3) 0.9528(2) 0.75391(18)
Cu1_3 Cu 0.20163(5) 0.41459(4) 0.53042(4)
Cu2_3 Cu 0.20082(5) 0.57968(4) 0.53569(4)
Cu3_3 Cu 0.19604(5) 0.50075(4) 0.42296(4)
Cu4_3 Cu 0.31317(5) 0.72219(4) 0.52450(4)
Cu6_3 Cu 0.38254(5) 0.73025(4) 0.40415(4)
Cu10_3 Cu 0.38539(6) 0.28029(6) 0.38911(5)
Cu11_3 Cu 0.11125(6) 0.75244(6) 0.51943(4)
Cu12_2 Cu 0.45138(5) 0.82183(5) 0.28337(4)
Cu13_2 Cu 0.10280(5) 0.38622(5) 0.31127(4)
S1_3 S 0.05842(8) 0.42488(8) 0.69714(6)
S2_3 S 0.05616(8) 0.76710(8) 0.43986(7)
S3_3 S 0.53813(8) 0.90031(8) 0.30581(7)
S4_3 S 0.20332(8) 0.64995(8) 0.31280(7)
S5_3 S 0.05553(9) 0.29660(8) 0.35075(7)
F1_3 F 0.2373(4) 0.6453(5) 0.6882(2)
F2_3 F 0.1976(5) 0.7462(4) 0.7003(2)
F3_3 F 0.1166(3) 0.6653(4) 0.6890(2)
F4_3 F 0.2962(3) 0.9021(3) 0.6384(3)
F5_3 F 0.4184(3) 0.9244(3) 0.6386(2)
F6_3 F 0.3446(4) 0.9650(3) 0.5754(3)
F7_3 F 0.2378(3) 0.2231(3) 0.4938(2)
F8_3 F 0.2132(3) 0.1564(2) 0.5595(2)
F9_3 F 0.1192(3) 0.1975(3) 0.5089(2)
F10_3 F 0.3993(5) 0.3799(4) 0.8637(3)
F11_3 F 0.5241(4) 0.3658(3) 0.8704(2)
F12_3 F 0.4742(4) 0.4658(3) 0.8730(2)
F13_3 F 0.3464(4) 0.0894(3) 0.4896(3)
F14_3 F 0.4449(4) 0.0389(3) 0.4614(3)
F15_3 F 0.3384(5) 0.0259(4) 0.4192(3)
O1_3 O 0.1224(2) 0.4389(2) 0.58191(19)
O2_3 O 0.1282(2) 0.5533(2) 0.59159(19)
O3_3 O 0.1249(2) 0.6334(2) 0.49156(19)
O4_3 O 0.1221(2) 0.5787(2) 0.41227(18)
O5_3 O 0.1135(2) 0.4307(2) 0.41378(18)
O6_3 O 0.1288(2) 0.3611(2) 0.48467(18)
O7_3 O 0.2351(2) 0.6742(2) 0.58535(19)
O8_3 O 0.1286(3) 0.7408(2) 0.5951(2)
O9_3 O 0.3177(3) 0.8031(2) 0.5706(2)
O10_3 O 0.4348(3) 0.8451(3) 0.5500(2)
O11_3 O 0.5136(3) 0.8444(3) 0.4482(2)
O12_3 O 0.4285(2) 0.8167(2) 0.38077(19)
O13_3 O 0.2732(2) 0.7597(2) 0.39292(18)
O14_3 O 0.2277(2) 0.7579(2) 0.47675(18)
O16_3 O 0.2792(3) 0.4761(3) 0.7233(2)
O17_3 O 0.4336(4) 0.4623(3) 0.7708(2)
O18_3 O 0.5019(3) 0.3648(2) 0.7637(2)
O20_3 O 0.6720(2) 0.7373(2) 0.33583(19)
O22_3 O 0.1263(2) 0.2704(2) 0.60146(19)
O23_3 O 0.3570(3) 0.7769(2) 0.2592(2)
O25_3 O 0.2114(2) 0.5023(2) 0.33175(18)
O26_3 O 0.1084(2) 0.4737(2) 0.27763(19)
O27_3 O 0.2229(2) 0.3480(2) 0.33939(19)
O28_3 O 0.2810(3) 0.2518(3) 0.3704(3)
O29_3 O 0.4272(4) 0.2807(3) 0.3124(3)
O30_3 O 0.4868(5) 0.1854(4) 0.2941(3)
O32_3 O 0.7066(3) 0.4279(3) 0.2052(2)
H1_3 H 0.716962 0.466737 0.218279
O34_3 O 0.4125(4) 0.1186(4) 0.3604(3)
H2_3 H 0.449451 0.151868 0.337360
C1_3 C 0.0981(3) 0.3779(3) 0.4397(3)
C2_3 C 0.0363(4) 0.3293(4) 0.4173(3)
H3_3 H 0.031975 0.290031 0.442207
C3_3 C 0.1041(3) 0.4946(3) 0.6036(3)
C4_3 C 0.0448(4) 0.4923(3) 0.6479(3)
H5_3 H 0.046388 0.536883 0.666901
C5_3 C 0.1032(3) 0.6270(3) 0.4431(3)
C6_3 C 0.0455(4) 0.6788(3) 0.4192(3)
H7_3 H 0.049396 0.677072 0.379612
C7_3 C 0.1834(3) 0.7029(3) 0.6113(3)
C8_3 C 0.1853(4) 0.6914(5) 0.6728(3)
C9_3 C 0.3716(4) 0.8452(4) 0.5720(3)
C10_3 C 0.3566(5) 0.9085(4) 0.6070(4)
C11_3 C 0.4806(4) 0.8534(3) 0.4034(3)
C12_3 C 0.5057(4) 0.9179(3) 0.3739(3)
H9_3 H 0.461018 0.950374 0.371922
H10_3 H 0.549226 0.940110 0.394789
C13_3 C 0.2208(3) 0.7673(3) 0.4261(3)
C14_3 C 0.1420(4) 0.7933(4) 0.4038(3)
H11_3 H 0.143668 0.844068 0.403256
H12_3 H 0.135370 0.777579 0.366179
C15_3 C 0.2237(4) 0.4375(3) 0.7092(3)
C16_3 C 0.1448(4) 0.4532(4) 0.7340(3)
H13_3 H 0.144728 0.432136 0.770091
H14_3 H 0.140981 0.503492 0.738828
C17_3 C 0.4685(4) 0.4100(4) 0.7857(3)
C18_3 C 0.4686(6) 0.4057(5) 0.8495(4)
C19_3 C 0.6117(3) 0.7699(3) 0.3225(3)
C20_3 C 0.6238(3) 0.8475(3) 0.3197(3)
H15_3 H 0.648006 0.862554 0.354371
H16_3 H 0.662292 0.856808 0.291633
C21_3 C 0.1834(3) 0.2724(3) 0.5722(3)
C22_3 C 0.1893(4) 0.2115(4) 0.5331(3)
C23_3 C 0.3332(3) 0.7237(3) 0.2814(3)
C24_3 C 0.2492(4) 0.7036(4) 0.2639(3)
H17_3 H 0.217369 0.745625 0.258355
H18_3 H 0.250387 0.678862 0.229253
C25_3 C 0.1525(4) 0.5866(3) 0.2714(3)
H19_3 H 0.175629 0.585843 0.235424
H20_3 H 0.096456 0.599698 0.266776
C26_3 C 0.1581(3) 0.5154(3) 0.2960(3)
C27_3 C 0.2225(4) 0.2871(4) 0.3568(3)
C28_3 C 0.1450(4) 0.2500(4) 0.3637(3)
H21_3 H 0.144439 0.209387 0.339846
H22_3 H 0.144364 0.232828 0.401086
C29_3 C 0.4710(4) 0.2499(4) 0.2834(3)
C30_3 C 0.5053(5) 0.2799(5) 0.2362(4)
H23_3 H 0.476123 0.263854 0.203544
H24_3 H 0.500785 0.330445 0.237807
C31_3 C 0.6455(6) 0.3248(4) 0.1950(4)
H25_3 H 0.609220 0.331542 0.163614
H26_3 H 0.697970 0.313610 0.181314
C32_3 C 0.6515(6) 0.3907(4) 0.2255(3)
C33_3 C 0.4025(6) 0.1348(5) 0.4101(4)
C34_3 C 0.3799(6) 0.0714(5) 0.4458(4)
Cu15_3 Cu 0.31386(5) 0.58245(5) 0.32941(4)
Cu16_3 Cu 0.31114(5) 0.41501(5) 0.33286(4)
F16_3 F 0.3395(7) 0.5442(3) 0.1497(2)
F17_3 F 0.2755(5) 0.4481(4) 0.1510(2)
F18_3 F 0.3976(5) 0.4464(4) 0.1600(3)
O35_3 O 0.3298(3) 0.5472(2) 0.25391(18)
O36_3 O 0.3219(3) 0.4309(3) 0.25623(19)
C35_3 C 0.3277(4) 0.4885(4) 0.2347(3)
C36_3 C 0.3335(8) 0.4830(5) 0.1726(4)
Cu21_2 Cu 0.04862(5) 0.32183(5) 0.21663(4)
Cu22_2 Cu 0.39720(5) 0.88622(5) 0.18873(4)
Cu3_4 Cu 0.30396(5) 0.00075(4) 0.07704(4)
Cu6_4 Cu 0.11746(5) 0.23025(4) 0.09585(4)
S2_4 S 0.44384(8) 0.26710(8) 0.06014(7)
S4_4 S 0.29668(8) 0.14995(8) 0.18720(7)
O3_4 O 0.3751(2) 0.1334(2) 0.00844(19)
O4_4 O 0.3779(2) 0.0787(2) 0.08773(18)
O12_4 O 0.0715(2) 0.3167(2) 0.11923(19)
O13_4 O 0.2268(2) 0.2597(2) 0.10708(18)
O14_4 O 0.2723(2) 0.2579(2) 0.02325(18)
O23_4 O 0.1430(3) 0.2769(2) 0.2408(2)
O25_4 O 0.2886(2) 0.0023(2) 0.16825(18)
C5_4 C 0.3968(3) 0.1270(3) 0.0569(3)
C6_4 C 0.4545(4) 0.1788(3) 0.0808(3)
H7_4 H 0.450604 0.177072 0.120388
H8_3 H 0.508211 0.163656 0.072305
C11_4 C 0.0194(4) 0.3534(3) 0.0966(3)
H9_4 H 0.038982 0.450374 0.128078
C13_4 C 0.2792(3) 0.2673(3) 0.0739(3)
C14_4 C 0.3580(4) 0.2933(4) 0.0962(3)
H11_4 H 0.356332 0.344068 0.096744
H12_4 H 0.364630 0.277579 0.133821
C23_4 C 0.1668(3) 0.2237(3) 0.2186(3)
C24_4 C 0.2508(4) 0.2036(4) 0.2361(3)
H17_4 H 0.282631 0.245625 0.241645
H18_4 H 0.249613 0.178862 0.270747
C25_4 C 0.3475(4) 0.0866(3) 0.2286(3)
H19_4 H 0.324371 0.085843 0.264576
H20_4 H 0.403544 0.099698 0.233224
C26_4 C 0.3419(3) 0.0154(3) 0.2040(3)
Cu15_4 Cu 0.18614(5) 0.08245(5) 0.17059(4)
F16_4 F 0.1605(7) 0.0442(3) 0.3503(2)
O35_4 O 0.1702(3) 0.0472(2) 0.24609(18)
Cu2_4 Cu 0.29918(5) 0.07968(4) 0.96431(4)
Cu4_4 Cu 0.18683(5) 0.22219(4) 0.97550(4)
Cu11_4 Cu 0.38875(6) 0.25244(6) 0.98057(4)
F1_4 F 0.2627(4) 0.1453(5) 0.8118(2)
F2_4 F 0.3024(5) 0.2462(4) 0.7997(2)
F3_4 F 0.3834(3) 0.1653(4) 0.8110(2)
F4_4 F 0.2038(3) 0.4021(3) 0.8616(3)
F5_4 F 0.0816(3) 0.4244(3) 0.8614(2)
F6_4 F 0.1554(4) 0.4650(3) 0.9246(3)
O2_4 O 0.3718(2) 0.0533(2) 0.90841(19)
O7_4 O 0.2649(2) 0.1742(2) 0.91465(19)
O8_4 O 0.3714(3) 0.2408(2) 0.9049(2)
O9_4 O 0.1823(3) 0.3031(2) 0.9294(2)
O10_4 O 0.0652(3) 0.3451(3) 0.9500(2)
H5_4 H 0.453612 0.036883 0.833099
C7_4 C 0.3166(3) 0.2029(3) 0.8887(3)
C8_4 C 0.3147(4) 0.1914(5) 0.8272(3)
C9_4 C 0.1284(4) 0.3452(4) 0.9280(3)
C10_4 C 0.1434(5) 0.4085(4) 0.8930(4)
H14_4 H 0.359019 0.003492 0.761172
Cu10_4 Cu 0.11461(6) 0.78029(6) 0.11089(5)
S5_4 S 0.44447(9) 0.79660(8) 0.14925(7)
F7_4 F 0.2622(3) 0.7231(3) 0.0062(2)
F13_4 F 0.1536(4) 0.5894(3) 0.0104(3)
F14_4 F 0.0551(4) 0.5389(3) 0.0386(3)
F15_4 F 0.1616(5) 0.5259(4) 0.0808(3)
O5_4 O 0.3865(2) 0.9307(2) 0.08622(18)
O6_4 O 0.3712(2) 0.8611(2) 0.01533(18)
O26_4 O 0.3916(2) 0.9737(2) 0.22237(19)
O27_4 O 0.2771(2) 0.8480(2) 0.16061(19)
O28_4 O 0.2190(3) 0.7518(3) 0.1296(3)
O29_4 O 0.0728(4) 0.7807(3) 0.1876(3)
O30_4 O 0.0132(5) 0.6854(4) 0.2059(3)
O34_4 O 0.0875(4) 0.6186(4) 0.1396(3)
H2_4 H 0.050549 0.651868 0.162640
C1_4 C 0.4019(3) 0.8779(3) 0.0603(3)
C2_4 C 0.4637(4) 0.8293(4) 0.0827(3)
H3_4 H 0.468025 0.790031 0.057793
H4_3 H 0.515109 0.853210 0.084034
C27_4 C 0.2775(4) 0.7871(4) 0.1432(3)
C28_4 C 0.3550(4) 0.7500(4) 0.1363(3)
H21_4 H 0.355561 0.709387 0.160154
H22_4 H 0.355636 0.732828 0.098914
C29_4 C 0.0290(4) 0.7499(4) 0.2166(3)
H23_4 H 0.023877 0.763854 0.296456
C33_4 C 0.0975(6) 0.6348(5) 0.0899(4)
C34_4 C 0.1201(6) 0.5714(5) 0.0542(4)
Cu16_4 Cu 0.18886(5) 0.91501(5) 0.16714(4)
F17_4 F 0.2245(5) 0.9481(4) 0.3490(2)
F18_4 F 0.1024(5) 0.9464(4) 0.3400(3)
O36_4 O 0.1781(3) 0.9309(3) 0.24377(19)
C35_4 C 0.1723(4) 0.9885(4) 0.2653(3)
C36_4 C 0.1665(8) 0.9830(5) 0.3274(4)
Cu1_4 Cu 0.29837(5) 0.91459(4) 0.96958(4)
S1_4 S 0.44158(8) 0.92488(8) 0.80286(6)
F8_4 F 0.2868(3) 0.6564(2) 0.9405(2)
F9_4 F 0.3808(3) 0.6975(3) 0.9911(2)
F10_4 F 0.1007(5) 0.8799(4) 0.6363(3)
F12_4 F 0.0258(4) 0.9658(3) 0.6270(2)
O1_4 O 0.3776(2) 0.9389(2) 0.91809(19)
O16_4 O 0.2208(3) 0.9761(3) 0.7767(2)
O17_4 O 0.0664(4) 0.9623(3) 0.7292(2)
O22_4 O 0.3737(2) 0.7704(2) 0.89854(19)
C3_4 C 0.3959(3) 0.9946(3) 0.8964(3)
C4_4 C 0.4552(4) 0.9923(3) 0.8521(3)
H6_3 H 0.508404 0.987382 0.868986
C15_4 C 0.2763(4) 0.9375(3) 0.7908(3)
C16_4 C 0.3552(4) 0.9532(4) 0.7660(3)
H13_4 H 0.355272 0.932136 0.729909
C17_4 C 0.0315(4) 0.9100(4) 0.7143(3)
C18_4 C 0.0314(6) 0.9057(5) 0.6505(4)
C21_4 C 0.3166(3) 0.7724(3) 0.9278(3)
C22_4 C 0.3107(4) 0.7115(4) 0.9669(3)
S3_4 S 0.96187(8) 0.40031(8) 0.19419(7)
O11_4 O 0.9864(3) 0.3444(3) 0.0518(2)
O20_4 O 0.8280(2) 0.2373(2) 0.16417(19)
C12_4 C 0.9943(4) 0.4179(3) 0.1261(3)
H10_4 H 0.950774 0.440110 0.105211
C19_4 C 0.8883(3) 0.2699(3) 0.1775(3)
C20_4 C 0.8762(3) 0.3475(3) 0.1803(3)
H15_4 H 0.851994 0.362554 0.145629
H16_4 H 0.837708 0.356808 0.208367
O32_4 O 0.7934(3) 0.9279(3) 0.2948(2)
H1_4 H 0.783038 0.966737 0.281721
C30_4 C 0.9947(5) 0.7799(5) 0.2638(4)
H24_4 H 0.999215 0.830445 0.262193
C31_4 C 0.8545(6) 0.8248(4) 0.3050(4)
H25_4 H 0.890780 0.831542 0.336386
H26_4 H 0.802030 0.813610 0.318686
C32_4 C 0.8485(6) 0.8907(4) 0.2745(3)
F11_4 F 0.9759(4) 0.8658(3) 0.6296(2)
O18_4 O 0.9981(3) 0.8648(2) 0.7363(2)
H4_4 H 0.984891 0.353210 0.415966
H6_4 H 0.991596 0.487382 0.631014
H8_4 H 0.991789 0.663656 0.427695
loop_
_geom_bond_atom_site_label_1
_geom_bond_atom_site_label_2
_geom_bond_site_symmetry_1
_geom_bond_site_symmetry_2
Cu1 O1 1_555 1_555
Cu2 O2 1_555 1_555
Cu3 O4 1_555 1_555
Cu4 O7 1_555 1_555
Cu5 O10 1_555 1_555
Cu6 O12 1_555 1_555
Cu7 O20 1_555 1_555
Cu8 O16 1_555 1_555
Cu9 O18 1_555 1_555
Cu10 O28 1_555 1_555
Cu11 S2 1_555 1_555
Cu12 S3 1_555 1_555
Cu13 S5 1_555 1_555
Cu14 S1 1_555 1_555
S1 C4 1_555 1_555
S2 C6 1_555 1_555
S3 C12 1_555 1_555
S4 C24 1_555 1_555
S5 C2 1_555 1_555
S6 C30 1_555 1_555
F1 C8 1_555 1_555
F2 C8 1_555 1_555
F3 C8 1_555 1_555
F4 C10 1_555 1_555
F5 C10 1_555 1_555
F6 C10 1_555 1_555
F7 C22 1_555 1_555
F8 C22 1_555 1_555
F9 C22 1_555 1_555
F10 C18 1_555 1_555
F11 C18 1_555 1_555
F12 C18 1_555 1_555
F13 C34 1_555 1_555
F14 C34 1_555 1_555
F15 C34 1_555 1_555
O1 C3 1_555 1_555
O2 C3 1_555 1_555
O3 Cu2 1_555 1_555
O4 C5 1_555 1_555
O5 Cu3 1_555 1_555
O6 Cu1 1_555 1_555
O7 Cu2 1_555 1_555
O8 Cu11 1_555 1_555
O9 Cu4 1_555 1_555
O10 C9 1_555 1_555
O11 Cu5 1_555 1_555
O12 Cu12 1_555 1_555
O13 Cu6 1_555 1_555
O14 Cu4 1_555 1_555
O15 Cu14 1_555 1_555
O16 C15 1_555 1_555
O17 Cu8 1_555 1_555
O18 C17 1_555 1_555
O19 Cu12 1_555 1_555
O20 C19 1_555 1_555
O21 Cu1 1_555 1_555
O22 Cu14 1_555 1_555
O23 Cu12 1_555 1_555
O24 Cu6 1_555 1_555
O25 Cu3 1_555 1_555
O26 Cu13 1_555 1_555
O27 Cu13 1_555 1_555
O28 C27 1_555 1_555
O29 Cu10 1_555 1_555
O30 C29 1_555 1_555
O31 C32 1_555 1_555
O32 H1 1_555 1_555
O33 Cu10 1_555 1_555
O34 H2 1_555 1_555
C1 O5 1_555 1_555
C2 C1 1_555 1_555
H3 C2 1_555 1_555
C3 C4 1_555 1_555
C4 H5 1_555 1_555
C5 O3 1_555 1_555
C6 C5 1_555 1_555
H7 C6 1_555 1_555
C7 O7 1_555 1_555
C8 C7 1_555 1_555
C9 O9 1_555 1_555
C10 C9 1_555 1_555
C11 O11 1_555 1_555
C12 C11 1_555 1_555
H9 C12 1_555 1_555
H10 C12 1_555 1_555
C13 O13 1_555 1_555
C14 S2 1_555 1_555
H11 C14 1_555 1_555
H12 C14 1_555 1_555
C15 O15 1_555 1_555
C16 S1 1_555 1_555
H13 C16 1_555 1_555
H14 C16 1_555 1_555
C17 O17 1_555 1_555
C18 C17 1_555 1_555
C19 O19 1_555 1_555
C20 S3 1_555 1_555
H15 C20 1_555 1_555
H16 C20 1_555 1_555
C21 O21 1_555 1_555
C22 C21 1_555 1_555
C23 O23 1_555 1_555
C24 C23 1_555 1_555
H17 C24 1_555 1_555
H18 C24 1_555 1_555
C25 S4 1_555 1_555
H19 C25 1_555 1_555
H20 C25 1_555 1_555
C26 O25 1_555 1_555
C27 O27 1_555 1_555
C28 S5 1_555 1_555
H21 C28 1_555 1_555
H22 C28 1_555 1_555
C29 O29 1_555 1_555
C30 C29 1_555 1_555
H23 C30 1_555 1_555
H24 C30 1_555 1_555
C31 S6 1_555 1_555
H25 C31 1_555 1_555
H26 C31 1_555 1_555
C32 O32 1_555 1_555
C33 O33 1_555 1_555
C34 C33 1_555 1_555
Cu15 S4 1_555 1_555
Cu16 O25 1_555 1_555
F16 C36 1_555 1_555
F17 C36 1_555 1_555
F18 C36 1_555 1_555
O35 Cu15 1_555 1_555
O36 Cu16 1_555 1_555
C35 O35 1_555 1_555
C36 C35 1_555 1_555
Cu17 O33 1_555 1_555
Cu18 O15 1_555 1_555
Cu19 O31 1_555 1_555
Cu20 O19 1_555 1_555
Cu21 Cu13 1_555 1_555
Cu22 Cu12 1_555 1_555
Cu23 S6 1_555 1_555
S7 Cu14 1_555 1_555
O37 Cu7 1_555 1_555
O38 Cu9 1_555 1_555
O39 Cu7 1_555 1_555
O40 Cu9 1_555 1_555
O41 Cu8 1_555 1_555
O42 Cu5 1_555 1_555
Cu11 O3 1_555 1_555
Cu11 O14 1_555 1_555
Cu13 O5 1_555 1_555
O6 C1 1_555 1_555
O8 C7 1_555 1_555
O12 C11 1_555 1_555
O14 C13 1_555 1_555
O21 Cu18 1_555 1_555
O22 C21 1_555 1_555
O24 C23 1_555 1_555
O24 Cu15 1_555 1_555
O24 Cu20 1_555 1_555
O25 Cu15 1_555 1_555
O26 C26 1_555 1_555
O27 Cu16 1_555 1_555
O34 C33 1_555 1_555
C13 C14 1_555 1_555
C15 C16 1_555 1_555
C19 C20 1_555 1_555
C25 C26 1_555 1_555
C27 C28 1_555 1_555
C31 C32 1_555 1_555
O36 C35 1_555 1_555
S6_2 C30_2 1_555 1_555
O31_2 C32_2 1_555 1_555
O32_2 H1_2 1_555 1_555
H24_2 C30_2 1_555 1_555
C31_2 S6_2 1_555 1_555
H25_2 C31_2 1_555 1_555
H26_2 C31_2 1_555 1_555
C32_2 O32_2 1_555 1_555
Cu23_2 S6_2 1_555 1_555
C31_2 C32_2 1_555 1_555
Cu7_2 O20_2 1_555 1_555
S3_2 C12_2 1_555 1_555
O20_2 C19_2 1_555 1_555
H10_2 C12_2 1_555 1_555
C19_2 O19_2 1_555 1_555
C20_2 S3_2 1_555 1_555
H15_2 C20_2 1_555 1_555
H16_2 C20_2 1_555 1_555
Cu20_2 O19_2 1_555 1_555
O37_2 Cu7_2 1_555 1_555
O39_2 Cu7_2 1_555 1_555
C19_2 C20_2 1_555 1_555
Cu1_2 O1_2 1_555 1_555
Cu8_2 O16_2 1_555 1_555
Cu14_2 S1_2 1_555 1_555
S1_2 C4_2 1_555 1_555
F8_2 C22_2 1_555 1_555
F9_2 C22_2 1_555 1_555
F10_2 C18_2 1_555 1_555
F12_2 C18_2 1_555 1_555
O1_2 C3_2 1_555 1_555
O15_2 Cu14_2 1_555 1_555
O16_2 C15_2 1_555 1_555
O17_2 Cu8_2 1_555 1_555
O21_2 Cu1_2 1_555 1_555
O22_2 Cu14_2 1_555 1_555
C3_2 C4_2 1_555 1_555
H6_2 C4_2 1_555 1_555
C15_2 O15_2 1_555 1_555
C16_2 S1_2 1_555 1_555
H13_2 C16_2 1_555 1_555
C17_2 O17_2 1_555 1_555
C18_2 C17_2 1_555 1_555
C21_2 O21_2 1_555 1_555
C22_2 C21_2 1_555 1_555
Cu18_2 O15_2 1_555 1_555
S7_2 Cu14_2 1_555 1_555
O38_2 Cu9_2 1_555 1_555
O21_2 Cu18_2 1_555 1_555
O22_2 C21_2 1_555 1_555
C15_2 C16_2 1_555 1_555
Cu10_2 O28_2 1_555 1_555
Cu22 S5_2 1_555 1_555
S5_2 C2_2 1_555 1_555
F13_2 C34_2 1_555 1_555
F14_2 C34_2 1_555 1_555
F15_2 C34_2 1_555 1_555
O26_2 Cu22 1_555 1_555
O27_2 Cu22 1_555 1_555
O28_2 C27_2 1_555 1_555
O29_2 Cu10_2 1_555 1_555
O30_2 C29_2 1_555 1_555
O33_2 Cu10_2 1_555 1_555
O34_2 H2_2 1_555 1_555
C1_2 O5_2 1_555 1_555
C2_2 C1_2 1_555 1_555
H3_2 C2_2 1_555 1_555
H4_2 C2_2 1_555 1_555
C27_2 O27_2 1_555 1_555
C28_2 S5_2 1_555 1_555
H21_2 C28_2 1_555 1_555
H22_2 C28_2 1_555 1_555
C29_2 O29_2 1_555 1_555
C33_2 O33_2 1_555 1_555
C34_2 C33_2 1_555 1_555
F17_2 C36_2 1_555 1_555
F18_2 C36_2 1_555 1_555
O36_2 Cu16_2 1_555 1_555
C36_2 C35_2 1_555 1_555
Cu22 O5_2 1_555 1_555
O6_2 C1_2 1_555 1_555
O27_2 Cu16_2 1_555 1_555
O34_2 C33_2 1_555 1_555
C27_2 C28_2 1_555 1_555
O36_2 C35_2 1_555 1_555
Cu2_2 O2_2 1_555 1_555
Cu4_2 O7_2 1_555 1_555
Cu5_2 O10_2 1_555 1_555
F1_2 C8_2 1_555 1_555
F2_2 C8_2 1_555 1_555
F3_2 C8_2 1_555 1_555
F4_2 C10_2 1_555 1_555
F5_2 C10_2 1_555 1_555
F6_2 C10_2 1_555 1_555
O7_2 Cu2_2 1_555 1_555
O8_2 Cu11_2 1_555 1_555
O9_2 Cu4_2 1_555 1_555
O10_2 C9_2 1_555 1_555
C7_2 O7_2 1_555 1_555
C8_2 C7_2 1_555 1_555
C9_2 O9_2 1_555 1_555
C10_2 C9_2 1_555 1_555
O8_2 C7_2 1_555 1_555
Cu3_2 O4_2 1_555 1_555
Cu6_2 O12_2 1_555 1_555
S2_2 C6_2 1_555 1_555
S4_2 C24_2 1_555 1_555
O4_2 C5_2 1_555 1_555
O12_2 Cu21 1_555 1_555
O13_2 Cu6_2 1_555 1_555
O23_2 Cu21 1_555 1_555
O24_2 Cu6_2 1_555 1_555
O25_2 Cu3_2 1_555 1_555
C5_2 O3_2 1_555 1_555
C6_2 C5_2 1_555 1_555
H7_2 C6_2 1_555 1_555
H8_2 C6_2 1_555 1_555
C13_2 O13_2 1_555 1_555
C14_2 S2_2 1_555 1_555
H11_2 C14_2 1_555 1_555
H12_2 C14_2 1_555 1_555
C23_2 O23_2 1_555 1_555
C24_2 C23_2 1_555 1_555
H17_2 C24_2 1_555 1_555
H18_2 C24_2 1_555 1_555
C25_2 S4_2 1_555 1_555
H19_2 C25_2 1_555 1_555
H20_2 C25_2 1_555 1_555
C26_2 O25_2 1_555 1_555
Cu15_2 S4_2 1_555 1_555
O35_2 Cu15_2 1_555 1_555
O12_2 C11_2 1_555 1_555
O14_2 C13_2 1_555 1_555
O24_2 C23_2 1_555 1_555
O24_2 Cu15_2 1_555 1_555
O25_2 Cu15_2 1_555 1_555
C13_2 C14_2 1_555 1_555
C25_2 C26_2 1_555 1_555
Cu1_3 O1_3 1_555 1_555
Cu2_3 O2_3 1_555 1_555
Cu3_3 O4_3 1_555 1_555
Cu4_3 O7_3 1_555 1_555
Cu17 O10_3 1_555 1_555
Cu6_3 O12_3 1_555 1_555
Cu18 O20_3 1_555 1_555
Cu19 O16_3 1_555 1_555
Cu20 O18_3 1_555 1_555
Cu10_3 O28_3 1_555 1_555
Cu11_3 S2_3 1_555 1_555
Cu12_2 S3_3 1_555 1_555
Cu13_2 S5_3 1_555 1_555
Cu23_2 S1_3 1_555 1_555
S1_3 C4_3 1_555 1_555
S2_3 C6_3 1_555 1_555
S3_3 C12_3 1_555 1_555
S4_3 C24_3 1_555 1_555
S5_3 C2_3 1_555 1_555
S7_2 C30_3 1_555 1_555
F1_3 C8_3 1_555 1_555
F2_3 C8_3 1_555 1_555
F3_3 C8_3 1_555 1_555
F4_3 C10_3 1_555 1_555
F5_3 C10_3 1_555 1_555
F6_3 C10_3 1_555 1_555
F7_3 C22_3 1_555 1_555
F8_3 C22_3 1_555 1_555
F9_3 C22_3 1_555 1_555
F10_3 C18_3 1_555 1_555
F11_3 C18_3 1_555 1_555
F12_3 C18_3 1_555 1_555
F13_3 C34_3 1_555 1_555
F14_3 C34_3 1_555 1_555
F15_3 C34_3 1_555 1_555
O1_3 C3_3 1_555 1_555
O2_3 C3_3 1_555 1_555
O3_3 Cu2_3 1_555 1_555
O4_3 C5_3 1_555 1_555
O5_3 Cu3_3 1_555 1_555
O6_3 Cu1_3 1_555 1_555
O7_3 Cu2_3 1_555 1_555
O8_3 Cu11_3 1_555 1_555
O9_3 Cu4_3 1_555 1_555
O10_3 C9_3 1_555 1_555
O11_3 Cu17 1_555 1_555
O12_3 Cu12_2 1_555 1_555
O13_3 Cu6_3 1_555 1_555
O14_3 Cu4_3 1_555 1_555
O37 Cu23_2 1_555 1_555
O16_3 C15_3 1_555 1_555
O17_3 Cu19 1_555 1_555
O18_3 C17_3 1_555 1_555
O38 Cu12_2 1_555 1_555
O20_3 C19_3 1_555 1_555
O39 Cu1_3 1_555 1_555
O22_3 Cu23_2 1_555 1_555
O23_3 Cu12_2 1_555 1_555
O40 Cu6_3 1_555 1_555
O25_3 Cu3_3 1_555 1_555
O26_3 Cu13_2 1_555 1_555
O27_3 Cu13_2 1_555 1_555
O28_3 C27_3 1_555 1_555
O29_3 Cu10_3 1_555 1_555
O30_3 C29_3 1_555 1_555
O41 C32_3 1_555 1_555
O32_3 H1_3 1_555 1_555
O42 Cu10_3 1_555 1_555
O34_3 H2_3 1_555 1_555
C1_3 O5_3 1_555 1_555
C2_3 C1_3 1_555 1_555
H3_3 C2_3 1_555 1_555
C3_3 C4_3 1_555 1_555
C4_3 H5_3 1_555 1_555
C5_3 O3_3 1_555 1_555
C6_3 C5_3 1_555 1_555
H7_3 C6_3 1_555 1_555
C7_3 O7_3 1_555 1_555
C8_3 C7_3 1_555 1_555
C9_3 O9_3 1_555 1_555
C10_3 C9_3 1_555 1_555
C11_3 O11_3 1_555 1_555
C12_3 C11_3 1_555 1_555
H9_3 C12_3 1_555 1_555
H10_3 C12_3 1_555 1_555
C13_3 O13_3 1_555 1_555
C14_3 S2_3 1_555 1_555
H11_3 C14_3 1_555 1_555
H12_3 C14_3 1_555 1_555
C15_3 O37 1_555 1_555
C16_3 S1_3 1_555 1_555
H13_3 C16_3 1_555 1_555
H14_3 C16_3 1_555 1_555
C17_3 O17_3 1_555 1_555
C18_3 C17_3 1_555 1_555
C19_3 O38 1_555 1_555
C20_3 S3_3 1_555 1_555
H15_3 C20_3 1_555 1_555
H16_3 C20_3 1_555 1_555
C21_3 O39 1_555 1_555
C22_3 C21_3 1_555 1_555
C23_3 O23_3 1_555 1_555
C24_3 C23_3 1_555 1_555
H17_3 C24_3 1_555 1_555
H18_3 C24_3 1_555 1_555
C25_3 S4_3 1_555 1_555
H19_3 C25_3 1_555 1_555
H20_3 C25_3 1_555 1_555
C26_3 O25_3 1_555 1_555
C27_3 O27_3 1_555 1_555
C28_3 S5_3 1_555 1_555
H21_3 C28_3 1_555 1_555
H22_3 C28_3 1_555 1_555
C29_3 O29_3 1_555 1_555
C30_3 C29_3 1_555 1_555
H23_3 C30_3 1_555 1_555
H24_3 C30_3 1_555 1_555
C31_3 S7_2 1_555 1_555
H25_3 C31_3 1_555 1_555
H26_3 C31_3 1_555 1_555
C32_3 O32_3 1_555 1_555
C33_3 O42 1_555 1_555
C34_3 C33_3 1_555 1_555
Cu15_3 S4_3 1_555 1_555
Cu16_3 O25_3 1_555 1_555
F16_3 C36_3 1_555 1_555
F17_3 C36_3 1_555 1_555
F18_3 C36_3 1_555 1_555
O35_3 Cu15_3 1_555 1_555
O36_3 Cu16_3 1_555 1_555
C35_3 O35_3 1_555 1_555
C36_3 C35_3 1_555 1_555
Cu21_2 Cu13_2 1_555 1_555
Cu22_2 Cu12_2 1_555 1_555
Cu11_3 O3_3 1_555 1_555
Cu11_3 O14_3 1_555 1_555
Cu13_2 O5_3 1_555 1_555
O6_3 C1_3 1_555 1_555
O8_3 C7_3 1_555 1_555
O12_3 C11_3 1_555 1_555
O14_3 C13_3 1_555 1_555
O22_3 C21_3 1_555 1_555
O40 C23_3 1_555 1_555
O40 Cu15_3 1_555 1_555
O25_3 Cu15_3 1_555 1_555
O26_3 C26_3 1_555 1_555
O27_3 Cu16_3 1_555 1_555
O34_3 C33_3 1_555 1_555
C13_3 C14_3 1_555 1_555
C15_3 C16_3 1_555 1_555
C19_3 C20_3 1_555 1_555
C25_3 C26_3 1_555 1_555
C27_3 C28_3 1_555 1_555
C31_3 C32_3 1_555 1_555
O36_3 C35_3 1_555 1_555
Cu3_4 O4_4 1_555 1_555
Cu6_4 O12_4 1_555 1_555
S2_4 C6_4 1_555 1_555
S4_4 C24_4 1_555 1_555
O4_4 C5_4 1_555 1_555
O12_4 Cu21_2 1_555 1_555
O13_4 Cu6_4 1_555 1_555
O23_4 Cu21_2 1_555 1_555
O40_2 Cu6_4 1_555 1_555
O25_4 Cu3_4 1_555 1_555
C5_4 O3_4 1_555 1_555
C6_4 C5_4 1_555 1_555
H7_4 C6_4 1_555 1_555
H8_3 C6_4 1_555 1_555
C13_4 O13_4 1_555 1_555
C14_4 S2_4 1_555 1_555
H11_4 C14_4 1_555 1_555
H12_4 C14_4 1_555 1_555
C23_4 O23_4 1_555 1_555
C24_4 C23_4 1_555 1_555
H17_4 C24_4 1_555 1_555
H18_4 C24_4 1_555 1_555
C25_4 S4_4 1_555 1_555
H19_4 C25_4 1_555 1_555
H20_4 C25_4 1_555 1_555
C26_4 O25_4 1_555 1_555
Cu15_4 S4_4 1_555 1_555
O35_4 Cu15_4 1_555 1_555
O12_4 C11_4 1_555 1_555
O14_4 C13_4 1_555 1_555
O40_2 C23_4 1_555 1_555
O40_2 Cu15_4 1_555 1_555
O25_4 Cu15_4 1_555 1_555
C13_4 C14_4 1_555 1_555
C25_4 C26_4 1_555 1_555
Cu2_4 O2_4 1_555 1_555
Cu4_4 O7_4 1_555 1_555
Cu17_2 O10_4 1_555 1_555
F1_4 C8_4 1_555 1_555
F2_4 C8_4 1_555 1_555
F3_4 C8_4 1_555 1_555
F4_4 C10_4 1_555 1_555
F5_4 C10_4 1_555 1_555
F6_4 C10_4 1_555 1_555
O7_4 Cu2_4 1_555 1_555
O8_4 Cu11_4 1_555 1_555
O9_4 Cu4_4 1_555 1_555
O10_4 C9_4 1_555 1_555
C7_4 O7_4 1_555 1_555
C8_4 C7_4 1_555 1_555
C9_4 O9_4 1_555 1_555
C10_4 C9_4 1_555 1_555
O8_4 C7_4 1_555 1_555
Cu10_4 O28_4 1_555 1_555
Cu22_2 S5_4 1_555 1_555
S5_4 C2_4 1_555 1_555
F13_4 C34_4 1_555 1_555
F14_4 C34_4 1_555 1_555
F15_4 C34_4 1_555 1_555
O26_4 Cu22_2 1_555 1_555
O27_4 Cu22_2 1_555 1_555
O28_4 C27_4 1_555 1_555
O29_4 Cu10_4 1_555 1_555
O30_4 C29_4 1_555 1_555
O42_2 Cu10_4 1_555 1_555
O34_4 H2_4 1_555 1_555
C1_4 O5_4 1_555 1_555
C2_4 C1_4 1_555 1_555
H3_4 C2_4 1_555 1_555
H4_3 C2_4 1_555 1_555
C27_4 O27_4 1_555 1_555
C28_4 S5_4 1_555 1_555
H21_4 C28_4 1_555 1_555
H22_4 C28_4 1_555 1_555
C29_4 O29_4 1_555 1_555
C33_4 O42_2 1_555 1_555
C34_4 C33_4 1_555 1_555
F17_4 C36_4 1_555 1_555
F18_4 C36_4 1_555 1_555
O36_4 Cu16_4 1_555 1_555
C36_4 C35_4 1_555 1_555
Cu22_2 O5_4 1_555 1_555
O6_4 C1_4 1_555 1_555
O27_4 Cu16_4 1_555 1_555
O34_4 C33_4 1_555 1_555
C27_4 C28_4 1_555 1_555
O36_4 C35_4 1_555 1_555
Cu1_4 O1_4 1_555 1_555
Cu19_2 O16_4 1_555 1_555
Cu23 S1_4 1_555 1_555
S1_4 C4_4 1_555 1_555
F8_4 C22_4 1_555 1_555
F9_4 C22_4 1_555 1_555
F10_4 C18_4 1_555 1_555
F12_4 C18_4 1_555 1_555
O1_4 C3_4 1_555 1_555
O37_2 Cu23 1_555 1_555
O16_4 C15_4 1_555 1_555
O17_4 Cu19_2 1_555 1_555
O39_2 Cu1_4 1_555 1_555
O22_4 Cu23 1_555 1_555
C3_4 C4_4 1_555 1_555
H6_3 C4_4 1_555 1_555
C15_4 O37_2 1_555 1_555
C16_4 S1_4 1_555 1_555
H13_4 C16_4 1_555 1_555
C17_4 O17_4 1_555 1_555
C18_4 C17_4 1_555 1_555
C21_4 O39_2 1_555 1_555
C22_4 C21_4 1_555 1_555
O22_4 C21_4 1_555 1_555
C15_4 C16_4 1_555 1_555
Cu18_2 O20_4 1_555 1_555
S3_4 C12_4 1_555 1_555
O20_4 C19_4 1_555 1_555
H10_4 C12_4 1_555 1_555
C19_4 O38_2 1_555 1_555
C20_4 S3_4 1_555 1_555
H15_4 C20_4 1_555 1_555
H16_4 C20_4 1_555 1_555
C19_4 C20_4 1_555 1_555
S7 C30_4 1_555 1_555
O41_2 C32_4 1_555 1_555
O32_4 H1_4 1_555 1_555
H24_4 C30_4 1_555 1_555
C31_4 S7 1_555 1_555
H25_4 C31_4 1_555 1_555
H26_4 C31_4 1_555 1_555
C32_4 O32_4 1_555 1_555
C31_4 C32_4 1_555 1_555

#END
