
###############################################################################
#
# This file contains modified crystal structure data generated from the
# MOF subset of the Cambridge Structural Database (CSD) v543 
# hosted by the Cambridge Crystallographic Data Centre (CCDC).
#
# This work is licensed under the Creative Commons
# Attribution-NonCommercial-ShareAlike 4.0 International License.
# To view a copy of this license, visit
# http://creativecommons.org/licenses/by-nc-sa/4.0/
# or send a letter to
# Creative Commons, PO Box 1866, Mountain View, CA 94042, USA.
#
# CIF created using the CSD Python API on 29 September 2022
# The structure has been converted into the P1 space group
# The structure has a 3D framework
# The original CSD entry KEHDUA is in the orthorhombic crystal system
# The framework has been calculated to contain at least 10.0% void space
# The void calculation uses a probe of radius 1.32A, grid spacing 0.4
# The framework is charged, counterions have been retained in the structure
# H atom positions have been added when not included in the experimental data
# Generated hydrogen atom positions removed from atoms on special positions
#
###############################################################################

data_KEHDUA
_chemical_formula_moiety         '(C216 H136 Co12 O48)n'
_symmetry_cell_setting           triclinic
_symmetry_space_group_name_H-M   'P 1'
_symmetry_Int_Tables_number      1
_space_group_name_Hall           'P 1'
loop_
_symmetry_equiv_pos_site_id
_symmetry_equiv_pos_as_xyz
1 x,y,z
_cell_length_a                   17.3572(16)
_cell_length_b                   25.035(2)
_cell_length_c                   22.166(2)
_cell_angle_alpha                90
_cell_angle_beta                 90
_cell_angle_gamma                90
_cell_volume                     9631.96
loop_
_atom_site_label
_atom_site_type_symbol
_atom_site_fract_x
_atom_site_fract_y
_atom_site_fract_z
Co7 Co 0.00319(2) 0.67867(2) 0.57709(2)
Co10 Co 0.00319(2) 0.82133(2) 0.57709(2)
Co1 Co 0.61367(3) 0.250000 0.16499(2)
O2 O 0.56501(13) 0.30940(9) 0.21870(10)
O3 O 0.70860(19) 0.250000 0.22562(17)
O4 O 0.82882(13) 0.69198(10) 0.61603(11)
O5 O 0.49533(14) 0.36128(10) 0.15752(11)
O6 O 0.90223(13) 0.65561(11) 0.54544(12)
C1 C 0.52754(19) 0.35036(14) 0.20659(15)
C2 C 0.52064(18) 0.39133(14) 0.25612(16)
C3 C 0.83947(19) 0.66339(14) 0.57131(16)
C4 C 0.76913(18) 0.63714(14) 0.54499(16)
O7 O 0.1235(2) 0.68148(14) 0.56788(18)
C5 C 0.50964(18) 0.46884(15) 0.34708(17)
C6 C 0.56603(18) 0.56846(16) 0.46601(17)
C7 C 0.49326(18) 0.58745(16) 0.48251(18)
H1 H 0.489688 0.614362 0.511295
C8 C 0.56547(19) 0.38782(15) 0.30720(16)
H2 H 0.599241 0.359271 0.311794
C9 C 0.34924(19) 0.58646(16) 0.47863(17)
C10 C 0.42690(18) 0.56747(16) 0.45739(18)
C11 C 0.56075(19) 0.42651(15) 0.35189(17)
H3 H 0.592396 0.423983 0.385629
C12 C 0.70010(19) 0.63675(16) 0.57540(18)
H4 H 0.697001 0.652720 0.613206
C13 C 0.56976(18) 0.52948(15) 0.42197(17)
H5 H 0.617621 0.516245 0.410480
C14 C 0.4697(2) 0.43368(15) 0.25132(19)
H6 H 0.439244 0.437069 0.217037
O8 O 0.07168(19) 0.61334(17) 0.53007(16)
C15 C 0.63679(18) 0.59120(15) 0.49401(17)
C16 C 0.4639(2) 0.47073(16) 0.29675(18)
H7 H 0.427807 0.497984 0.293249
C17 C 0.50421(17) 0.50965(15) 0.39453(19)
C18 C 0.43305(18) 0.52950(16) 0.41296(18)
H8 H 0.388504 0.516682 0.394685
C19 C 0.6361(2) 0.61348(17) 0.55138(19)
H9 H 0.590979 0.612498 0.573930
C20 C 0.2058(2) 0.6203(2) 0.51844(19)
C21 C 0.77204(19) 0.61285(16) 0.48977(18)
H10 H 0.818549 0.610968 0.469047
C22 C 0.7062(2) 0.59105(17) 0.46448(19)
H11 H 0.709141 0.575830 0.426281
C23 C 0.2665(3) 0.65418(19) 0.5191(2)
H12 H 0.260028 0.688813 0.533436
C24 C 0.2167(2) 0.5696(2) 0.4975(2)
H13 H 0.174945 0.546388 0.495872
C25 C 0.2877(2) 0.55196(18) 0.4789(2)
H14 H 0.294107 0.516744 0.466549
C26 C 0.3387(2) 0.63778(18) 0.4986(2)
H15 H 0.379724 0.661674 0.498536
C27 C 0.1277(3) 0.6412(2) 0.5399(2)
O9 O 0.56501(13) 0.19060(9) 0.21870(10)
O11 O 0.49533(14) 0.13872(10) 0.15752(11)
C28 C 0.52754(19) 0.14964(14) 0.20659(15)
C29 C 0.52064(18) 0.10867(14) 0.25612(16)
C32 C 0.50964(18) 0.03116(15) 0.34708(17)
C35 C 0.56547(19) 0.11218(15) 0.30720(16)
H17 H 0.599241 0.140729 0.311794
C38 C 0.56075(19) 0.07349(15) 0.35189(17)
H18 H 0.592396 0.076017 0.385629
C41 C 0.4697(2) 0.06632(15) 0.25132(19)
H21 H 0.439244 0.062931 0.217037
C43 C 0.4639(2) 0.02927(16) 0.29675(18)
H22 H 0.427807 0.002016 0.293249
Co6 Co 0.88633(3) 0.750000 0.66499(2)
Co8 Co 0.49681(2) 0.32133(2) 0.07709(2)
Co11 Co 0.49681(2) 0.17867(2) 0.07709(2)
O16 O 0.51006(14) 0.250000 0.11527(13)
O17 O 0.67118(13) 0.30802(10) 0.11603(11)
O18 O 0.67118(13) 0.19198(10) 0.11603(11)
O19 O 0.00467(14) 0.63872(10) 0.65752(11)
O10 O 0.82882(13) 0.80802(10) 0.61603(11)
O12 O 0.90223(13) 0.84439(11) 0.54544(12)
C30 C 0.83947(19) 0.83661(14) 0.57131(16)
C31 C 0.76913(18) 0.86286(14) 0.54499(16)
O13 O 0.1235(2) 0.81852(14) 0.56788(18)
C33 C 0.56603(18) 0.93154(16) 0.46601(17)
C34 C 0.49326(18) 0.91255(16) 0.48251(18)
H16 H 0.489688 0.885638 0.511295
C36 C 0.34924(19) 0.91354(16) 0.47863(17)
C37 C 0.42690(18) 0.93253(16) 0.45739(18)
C39 C 0.70010(19) 0.86325(16) 0.57540(18)
H19 H 0.697001 0.847280 0.613206
C40 C 0.56976(18) 0.97052(15) 0.42197(17)
H20 H 0.617621 0.983755 0.410480
O14 O 0.07168(19) 0.88666(17) 0.53007(16)
C42 C 0.63679(18) 0.90880(15) 0.49401(17)
C44 C 0.50421(17) 0.99035(15) 0.39453(19)
C45 C 0.43305(18) 0.97050(16) 0.41296(18)
H23 H 0.388504 0.983318 0.394685
C46 C 0.6361(2) 0.88652(17) 0.55138(19)
H24 H 0.590979 0.887502 0.573930
C47 C 0.2058(2) 0.8797(2) 0.51844(19)
C48 C 0.77204(19) 0.88715(16) 0.48977(18)
H25 H 0.818549 0.889032 0.469047
C49 C 0.7062(2) 0.90895(17) 0.46448(19)
H26 H 0.709141 0.924170 0.426281
C50 C 0.2665(3) 0.84582(19) 0.5191(2)
H27 H 0.260028 0.811187 0.533436
C51 C 0.2167(2) 0.9304(2) 0.4975(2)
H28 H 0.174945 0.953612 0.495872
C52 C 0.2877(2) 0.94804(18) 0.4789(2)
H29 H 0.294107 0.983256 0.466549
C53 C 0.3387(2) 0.86222(18) 0.4986(2)
H30 H 0.379724 0.838326 0.498536
C54 C 0.1277(3) 0.8588(2) 0.5399(2)
O20 O 0.00467(14) 0.86128(10) 0.65752(11)
O1 O 0.98994(14) 0.750000 0.61527(13)
O13_2 O 0.3765(2) 0.18148(14) 0.06788(18)
H16_2 H 0.010312 0.114362 0.011295
O14_2 O 0.42832(19) 0.11334(17) 0.03007(16)
C47_2 C 0.2942(2) 0.1203(2) 0.01844(19)
C50_2 C 0.2335(3) 0.15418(19) 0.0191(2)
H27_2 H 0.239972 0.188813 0.033436
C54_2 C 0.3723(3) 0.1412(2) 0.0399(2)
O22 O 0.59777(13) 0.15561(11) 0.04544(12)
O7_2 O 0.3765(2) 0.31852(14) 0.06788(18)
H1_2 H 0.010312 0.385638 0.011295
O8_2 O 0.42832(19) 0.38666(17) 0.03007(16)
C20_2 C 0.2942(2) 0.3797(2) 0.01844(19)
C23_2 C 0.2335(3) 0.34582(19) 0.0191(2)
H12_2 H 0.239972 0.311187 0.033436
C27_2 C 0.3723(3) 0.3588(2) 0.0399(2)
O21 O 0.59777(13) 0.34439(11) 0.04544(12)
C7_2 C 0.00674(18) 0.41255(16) 0.98251(18)
C9_2 C 0.15076(19) 0.41354(16) 0.97863(17)
C10_2 C 0.07310(18) 0.43253(16) 0.95739(18)
C14_2 C 0.0303(2) 0.56632(15) 0.75132(19)
H6_2 H 0.060756 0.562931 0.717037
C16_2 C 0.0361(2) 0.52927(16) 0.79675(18)
H7_2 H 0.072193 0.502016 0.793249
C18_2 C 0.06695(18) 0.47050(16) 0.91296(18)
H8_2 H 0.111496 0.483318 0.894685
C24_2 C 0.2833(2) 0.4304(2) 0.9975(2)
H13_2 H 0.325055 0.453612 0.995872
C25_2 C 0.2123(2) 0.44804(18) 0.9789(2)
H14_2 H 0.205893 0.483256 0.966549
C26_2 C 0.1613(2) 0.36222(18) 0.9986(2)
H15_2 H 0.120276 0.338326 0.998536
C41_2 C 0.0303(2) 0.93368(15) 0.75132(19)
H21_2 H 0.060756 0.937069 0.717037
C43_2 C 0.0361(2) 0.97073(16) 0.79675(18)
H22_2 H 0.072193 0.997984 0.793249
C30_2 C 0.66053(19) 0.16339(14) 0.07131(16)
C31_2 C 0.73087(18) 0.13714(14) 0.04499(16)
C39_2 C 0.79990(19) 0.13675(16) 0.07540(18)
H19_2 H 0.802999 0.152720 0.113206
C46_2 C 0.8639(2) 0.11348(17) 0.05138(19)
H24_2 H 0.909021 0.112498 0.073930
C3_2 C 0.66053(19) 0.33661(14) 0.07131(16)
C4_2 C 0.73087(18) 0.36286(14) 0.04499(16)
C12_2 C 0.79990(19) 0.36325(16) 0.07540(18)
H4_2 H 0.802999 0.347280 0.113206
C19_2 C 0.8639(2) 0.38652(17) 0.05138(19)
H9_2 H 0.909021 0.387502 0.073930
O2_2 O 0.93499(13) 0.69060(9) 0.71870(10)
O3_2 O 0.79140(19) 0.750000 0.72562(17)
C1_2 C 0.97246(19) 0.64964(14) 0.70659(15)
C2_2 C 0.97936(18) 0.60867(14) 0.75612(16)
C5_2 C 0.99036(18) 0.53116(15) 0.84708(17)
C6_2 C 0.93397(18) 0.43154(16) 0.96601(17)
C8_2 C 0.93453(19) 0.61218(15) 0.80720(16)
H2_2 H 0.900759 0.640729 0.811794
C11_2 C 0.93925(19) 0.57349(15) 0.85189(17)
H3_2 H 0.907604 0.576017 0.885629
C13_2 C 0.93024(18) 0.47052(15) 0.92197(17)
H5_2 H 0.882379 0.483755 0.910480
C15_2 C 0.86321(18) 0.40880(15) 0.99401(17)
C17_2 C 0.99579(17) 0.49035(15) 0.89453(19)
C21_2 C 0.72796(19) 0.38715(16) 0.98977(18)
H10_2 H 0.681451 0.389032 0.969047
C22_2 C 0.7938(2) 0.40895(17) 0.96448(19)
H11_2 H 0.790859 0.424170 0.926281
O9_2 O 0.93499(13) 0.80940(9) 0.71870(10)
C28_2 C 0.97246(19) 0.85036(14) 0.70659(15)
C29_2 C 0.97936(18) 0.89133(14) 0.75612(16)
C32_2 C 0.99036(18) 0.96884(15) 0.84708(17)
C35_2 C 0.93453(19) 0.88782(15) 0.80720(16)
H17_2 H 0.900759 0.859271 0.811794
C38_2 C 0.93925(19) 0.92651(15) 0.85189(17)
H18_2 H 0.907604 0.923983 0.885629
C34_2 C 0.00674(18) 0.08745(16) 0.98251(18)
C36_2 C 0.15076(19) 0.08646(16) 0.97863(17)
C37_2 C 0.07310(18) 0.06747(16) 0.95739(18)
C45_2 C 0.06695(18) 0.02950(16) 0.91296(18)
H23_2 H 0.111496 0.016682 0.894685
C51_2 C 0.2833(2) 0.0696(2) 0.9975(2)
H28_2 H 0.325055 0.046388 0.995872
C52_2 C 0.2123(2) 0.05196(18) 0.9789(2)
H29_2 H 0.205893 0.016744 0.966549
C53_2 C 0.1613(2) 0.13778(18) 0.9986(2)
H30_2 H 0.120276 0.161674 0.998536
C33_2 C 0.93397(18) 0.06846(16) 0.96601(17)
C40_2 C 0.93024(18) 0.02948(15) 0.92197(17)
H20_2 H 0.882379 0.016245 0.910480
C42_2 C 0.86321(18) 0.09120(15) 0.99401(17)
C44_2 C 0.99579(17) 0.00965(15) 0.89453(19)
C48_2 C 0.72796(19) 0.11285(16) 0.98977(18)
H25_2 H 0.681451 0.110968 0.969047
C49_2 C 0.7938(2) 0.09105(17) 0.96448(19)
H26_2 H 0.790859 0.075830 0.926281
O1_2 O 0.01006(14) 0.250000 0.38473(13)
Co4 Co 0.11367(3) 0.250000 0.33501(2)
O21_2 O 0.09777(13) 0.15561(11) 0.45456(12)
O22_2 O 0.09777(13) 0.34439(11) 0.45456(12)
Co2 Co 0.99681(2) 0.17867(2) 0.42291(2)
O4_2 O 0.17118(13) 0.19198(10) 0.38397(11)
C3_3 C 0.16053(19) 0.16339(14) 0.42869(16)
C4_3 C 0.23087(18) 0.13714(14) 0.45501(16)
O7_3 O 0.8765(2) 0.18148(14) 0.43212(18)
C6_3 C 0.43397(18) 0.06846(16) 0.53399(17)
C7_3 C 0.50674(18) 0.08745(16) 0.51749(18)
H1_3 H 0.510312 0.114362 0.488705
C9_3 C 0.65076(19) 0.08646(16) 0.52137(17)
C10_3 C 0.57310(18) 0.06747(16) 0.54261(18)
C12_3 C 0.29990(19) 0.13675(16) 0.42460(18)
H4_3 H 0.302999 0.152720 0.386794
C13_3 C 0.43024(18) 0.02948(15) 0.57803(17)
H5_3 H 0.382379 0.016245 0.589520
O8_3 O 0.92832(19) 0.11334(17) 0.46993(16)
C15_3 C 0.36321(18) 0.09120(15) 0.50599(17)
C17_3 C 0.49579(17) 0.00965(15) 0.60547(19)
C18_3 C 0.56695(18) 0.02950(16) 0.58704(18)
H8_3 H 0.611496 0.016682 0.605315
C19_3 C 0.3639(2) 0.11348(17) 0.44862(19)
H9_3 H 0.409021 0.112498 0.426070
C20_3 C 0.7942(2) 0.1203(2) 0.48156(19)
C21_3 C 0.22796(19) 0.11285(16) 0.51023(18)
H10_3 H 0.181451 0.110968 0.530953
C22_3 C 0.2938(2) 0.09105(17) 0.53552(19)
H11_3 H 0.290859 0.075830 0.573719
C23_3 C 0.7335(3) 0.15418(19) 0.4809(2)
H12_3 H 0.739972 0.188813 0.466564
C24_3 C 0.7833(2) 0.0696(2) 0.5025(2)
H13_3 H 0.825055 0.046388 0.504128
C25_3 C 0.7123(2) 0.05196(18) 0.5211(2)
H14_3 H 0.705893 0.016744 0.533451
C26_3 C 0.6613(2) 0.13778(18) 0.5014(2)
H15_3 H 0.620276 0.161674 0.501464
C27_3 C 0.8723(3) 0.1412(2) 0.4601(2)
Co9 Co 0.99681(2) 0.32133(2) 0.42291(2)
O19_2 O 0.99533(14) 0.13872(10) 0.34248(11)
Co1_2 Co 0.38633(3) 0.750000 0.83501(2)
O2_3 O 0.43499(13) 0.80940(9) 0.78130(10)
O3_3 O 0.29140(19) 0.750000 0.77438(17)
O5_2 O 0.50467(14) 0.86128(10) 0.84248(11)
C1_3 C 0.47246(19) 0.85036(14) 0.79341(15)
C2_3 C 0.47936(18) 0.89133(14) 0.74388(16)
C5_3 C 0.49036(18) 0.96884(15) 0.65292(17)
C8_3 C 0.43453(19) 0.88782(15) 0.69280(16)
H2_3 H 0.400759 0.859271 0.688206
C11_3 C 0.43925(19) 0.92651(15) 0.64811(17)
H3_3 H 0.407604 0.923983 0.614371
C14_3 C 0.5303(2) 0.93368(15) 0.74868(19)
H6_3 H 0.560756 0.937069 0.782963
C16_3 C 0.5361(2) 0.97073(16) 0.70325(18)
H7_3 H 0.572193 0.997984 0.706751
O9_3 O 0.43499(13) 0.69060(9) 0.78130(10)
O10_2 O 0.17118(13) 0.30802(10) 0.38397(11)
O11_2 O 0.50467(14) 0.63872(10) 0.84248(11)
C28_3 C 0.47246(19) 0.64964(14) 0.79341(15)
C29_3 C 0.47936(18) 0.60867(14) 0.74388(16)
C30_3 C 0.16053(19) 0.33661(14) 0.42869(16)
C31_3 C 0.23087(18) 0.36286(14) 0.45501(16)
O13_3 O 0.8765(2) 0.31852(14) 0.43212(18)
C32_3 C 0.49036(18) 0.53116(15) 0.65292(17)
C33_3 C 0.43397(18) 0.43154(16) 0.53399(17)
C34_3 C 0.50674(18) 0.41255(16) 0.51749(18)
H16_3 H 0.510312 0.385638 0.488705
C35_3 C 0.43453(19) 0.61218(15) 0.69280(16)
H17_3 H 0.400759 0.640729 0.688206
C36_3 C 0.65076(19) 0.41354(16) 0.52137(17)
C37_3 C 0.57310(18) 0.43253(16) 0.54261(18)
C38_3 C 0.43925(19) 0.57349(15) 0.64811(17)
H18_3 H 0.407604 0.576017 0.614371
C39_3 C 0.29990(19) 0.36325(16) 0.42460(18)
H19_3 H 0.302999 0.347280 0.386794
C40_3 C 0.43024(18) 0.47052(15) 0.57803(17)
H20_3 H 0.382379 0.483755 0.589520
C41_3 C 0.5303(2) 0.56632(15) 0.74868(19)
H21_3 H 0.560756 0.562931 0.782963
O14_3 O 0.92832(19) 0.38666(17) 0.46993(16)
C42_3 C 0.36321(18) 0.40880(15) 0.50599(17)
C43_3 C 0.5361(2) 0.52927(16) 0.70325(18)
H22_3 H 0.572193 0.502016 0.706751
C44_3 C 0.49579(17) 0.49035(15) 0.60547(19)
C45_3 C 0.56695(18) 0.47050(16) 0.58704(18)
H23_3 H 0.611496 0.483318 0.605315
C46_3 C 0.3639(2) 0.38652(17) 0.44862(19)
H24_3 H 0.409021 0.387502 0.426070
C47_3 C 0.7942(2) 0.3797(2) 0.48156(19)
C48_3 C 0.22796(19) 0.38715(16) 0.51023(18)
H25_3 H 0.181451 0.389032 0.530953
C49_3 C 0.2938(2) 0.40895(17) 0.53552(19)
H26_3 H 0.290859 0.424170 0.573719
C50_3 C 0.7335(3) 0.34582(19) 0.4809(2)
H27_3 H 0.739972 0.311187 0.466564
C51_3 C 0.7833(2) 0.4304(2) 0.5025(2)
H28_3 H 0.825055 0.453612 0.504128
C52_3 C 0.7123(2) 0.44804(18) 0.5211(2)
H29_3 H 0.705893 0.483256 0.533451
C53_3 C 0.6613(2) 0.36222(18) 0.5014(2)
H30_3 H 0.620276 0.338326 0.501464
C54_3 C 0.8723(3) 0.3588(2) 0.4601(2)
Co8_2 Co 0.50319(2) 0.82133(2) 0.92291(2)
Co11_2 Co 0.50319(2) 0.67867(2) 0.92291(2)
O16_2 O 0.48994(14) 0.750000 0.88473(13)
O17_2 O 0.32882(13) 0.80802(10) 0.88397(11)
O18_2 O 0.32882(13) 0.69198(10) 0.88397(11)
O20_2 O 0.99533(14) 0.36128(10) 0.34248(11)
O2_4 O 0.06501(13) 0.19060(9) 0.28130(10)
O3_4 O 0.20860(19) 0.250000 0.27438(17)
C1_4 C 0.02754(19) 0.14964(14) 0.29341(15)
C2_4 C 0.02064(18) 0.10867(14) 0.24388(16)
C5_4 C 0.00964(18) 0.03116(15) 0.15292(17)
C8_4 C 0.06547(19) 0.11218(15) 0.19280(16)
H2_4 H 0.099241 0.140729 0.188206
C11_4 C 0.06075(19) 0.07349(15) 0.14811(17)
H3_4 H 0.092396 0.076017 0.114371
O9_4 O 0.06501(13) 0.30940(9) 0.28130(10)
C28_4 C 0.02754(19) 0.35036(14) 0.29341(15)
C29_4 C 0.02064(18) 0.39133(14) 0.24388(16)
C32_4 C 0.00964(18) 0.46884(15) 0.15292(17)
C33_4 C 0.06603(18) 0.56846(16) 0.03399(17)
C35_4 C 0.06547(19) 0.38782(15) 0.19280(16)
H17_4 H 0.099241 0.359271 0.188206
C38_4 C 0.06075(19) 0.42651(15) 0.14811(17)
H18_4 H 0.092396 0.423983 0.114371
C40_4 C 0.06976(18) 0.52948(15) 0.07803(17)
H20_4 H 0.117621 0.516245 0.089520
C42_4 C 0.13679(18) 0.59120(15) 0.00599(17)
C44_4 C 0.00421(17) 0.50965(15) 0.10547(19)
C48_4 C 0.27204(19) 0.61285(16) 0.01023(18)
H25_4 H 0.318549 0.610968 0.030953
C49_4 C 0.2062(2) 0.59105(17) 0.03552(19)
H26_4 H 0.209141 0.575830 0.073719
O12_2 O 0.40223(13) 0.65561(11) 0.95456(12)
C30_4 C 0.33947(19) 0.66339(14) 0.92869(16)
C31_4 C 0.26913(18) 0.63714(14) 0.95501(16)
C39_4 C 0.20010(19) 0.63675(16) 0.92460(18)
H19_4 H 0.197001 0.652720 0.886794
C46_4 C 0.1361(2) 0.61348(17) 0.94862(19)
H24_4 H 0.090979 0.612498 0.926070
O6_2 O 0.40223(13) 0.84439(11) 0.95456(12)
C3_4 C 0.33947(19) 0.83661(14) 0.92869(16)
C4_4 C 0.26913(18) 0.86286(14) 0.95501(16)
C12_4 C 0.20010(19) 0.86325(16) 0.92460(18)
H4_4 H 0.197001 0.847280 0.886794
C19_4 C 0.1361(2) 0.88652(17) 0.94862(19)
H9_4 H 0.090979 0.887502 0.926070
C14_4 C 0.9697(2) 0.06632(15) 0.24868(19)
H6_4 H 0.939244 0.062931 0.282963
C16_4 C 0.9639(2) 0.02927(16) 0.20325(18)
H7_4 H 0.927807 0.002016 0.206751
C34_4 C 0.99326(18) 0.58745(16) 0.01749(18)
C36_4 C 0.84924(19) 0.58646(16) 0.02137(17)
C37_4 C 0.92690(18) 0.56747(16) 0.04261(18)
C41_4 C 0.9697(2) 0.43368(15) 0.24868(19)
H21_4 H 0.939244 0.437069 0.282963
C43_4 C 0.9639(2) 0.47073(16) 0.20325(18)
H22_4 H 0.927807 0.497984 0.206751
C45_4 C 0.93305(18) 0.52950(16) 0.08704(18)
H23_4 H 0.888504 0.516682 0.105315
C51_4 C 0.7167(2) 0.5696(2) 0.0025(2)
H28_4 H 0.674945 0.546388 0.004128
C52_4 C 0.7877(2) 0.55196(18) 0.0211(2)
H29_4 H 0.794107 0.516744 0.033451
C53_4 C 0.8387(2) 0.63778(18) 0.0014(2)
H30_4 H 0.879724 0.661674 0.001464
O13_4 O 0.6235(2) 0.68148(14) 0.93212(18)
H16_4 H 0.989688 0.614362 0.988705
O14_4 O 0.57168(19) 0.61334(17) 0.96993(16)
C47_4 C 0.7058(2) 0.6203(2) 0.98156(19)
C50_4 C 0.7665(3) 0.65418(19) 0.9809(2)
H27_4 H 0.760028 0.688813 0.966564
C54_4 C 0.6277(3) 0.6412(2) 0.9601(2)
O7_4 O 0.6235(2) 0.81852(14) 0.93212(18)
H1_4 H 0.989688 0.885638 0.988705
O8_4 O 0.57168(19) 0.88666(17) 0.96993(16)
C20_4 C 0.7058(2) 0.8797(2) 0.98156(19)
C23_4 C 0.7665(3) 0.84582(19) 0.9809(2)
H12_4 H 0.760028 0.811187 0.966564
C27_4 C 0.6277(3) 0.8588(2) 0.9601(2)
C6_4 C 0.06603(18) 0.93154(16) 0.03399(17)
C13_4 C 0.06976(18) 0.97052(15) 0.07803(17)
H5_4 H 0.117621 0.983755 0.089520
C15_4 C 0.13679(18) 0.90880(15) 0.00599(17)
C17_4 C 0.00421(17) 0.99035(15) 0.10547(19)
C21_4 C 0.27204(19) 0.88715(16) 0.01023(18)
H10_4 H 0.318549 0.889032 0.030953
C22_4 C 0.2062(2) 0.90895(17) 0.03552(19)
H11_4 H 0.209141 0.924170 0.073719
C7_4 C 0.99326(18) 0.91255(16) 0.01749(18)
C9_4 C 0.84924(19) 0.91354(16) 0.02137(17)
C10_4 C 0.92690(18) 0.93253(16) 0.04261(18)
C18_4 C 0.93305(18) 0.97050(16) 0.08704(18)
H8_4 H 0.888504 0.983318 0.105315
C24_4 C 0.7167(2) 0.9304(2) 0.0025(2)
H13_4 H 0.674945 0.953612 0.004128
C25_4 C 0.7877(2) 0.94804(18) 0.0211(2)
H14_4 H 0.794107 0.983256 0.033451
C26_4 C 0.8387(2) 0.86222(18) 0.0014(2)
H15_4 H 0.879724 0.838326 0.001464
loop_
_geom_bond_atom_site_label_1
_geom_bond_atom_site_label_2
_geom_bond_site_symmetry_1
_geom_bond_site_symmetry_2
Co1 O2 1_555 1_555
O2 C1 1_555 1_555
O3 Co1 1_555 1_555
O4 C3 1_555 1_555
O5 C1 1_555 1_555
O6 C3 1_555 1_555
C1 C2 1_555 1_555
C2 C8 1_555 1_555
C3 C4 1_555 1_555
C4 C12 1_555 1_555
O7 Co7 1_555 1_555
C5 C11 1_555 1_555
C6 C7 1_555 1_555
C7 H1 1_555 1_555
C8 H2 1_555 1_555
C9 C10 1_555 1_555
C10 C7 1_555 1_555
C11 C8 1_555 1_555
H3 C11 1_555 1_555
C12 H4 1_555 1_555
C13 C6 1_555 1_555
H5 C13 1_555 1_555
C14 C2 1_555 1_555
H6 C14 1_555 1_555
O8 Co7 1_555 1_555
C15 C6 1_555 1_555
C16 C5 1_555 1_555
H7 C16 1_555 1_555
C17 C5 1_555 1_555
C18 C10 1_555 1_555
H8 C18 1_555 1_555
C19 C12 1_555 1_555
H9 C19 1_555 1_555
C20 C23 1_555 1_555
C21 C4 1_555 1_555
H10 C21 1_555 1_555
C22 C15 1_555 1_555
H11 C22 1_555 1_555
C23 H12 1_555 1_555
C24 C20 1_555 1_555
H13 C24 1_555 1_555
C25 C9 1_555 1_555
H14 C25 1_555 1_555
C26 C9 1_555 1_555
H15 C26 1_555 1_555
C27 O7 1_555 1_555
O9 Co1 1_555 1_555
O11 C28 1_555 1_555
C28 O9 1_555 1_555
C29 C28 1_555 1_555
C32 C38 1_555 1_555
C35 C29 1_555 1_555
H17 C35 1_555 1_555
C38 C35 1_555 1_555
H18 C38 1_555 1_555
C41 C29 1_555 1_555
H21 C41 1_555 1_555
C43 C32 1_555 1_555
H22 C43 1_555 1_555
Co6 O4 1_555 1_555
Co8 O5 1_555 1_555
Co11 O11 1_555 1_555
O16 Co1 1_555 1_555
O17 Co1 1_555 1_555
O18 Co1 1_555 1_555
O19 Co7 1_555 1_555
C13 C17 1_555 1_555
C14 C16 1_555 1_555
O8 C27 1_555 1_555
C15 C19 1_555 1_555
C17 C18 1_555 1_555
C20 C27 1_555 1_555
C21 C22 1_555 1_555
C23 C26 1_555 1_555
C24 C25 1_555 1_555
C41 C43 1_555 1_555
Co8 O16 1_555 1_555
Co11 O16 1_555 1_555
Co10 O13 1_555 1_555
O10 C30 1_555 1_555
O12 C30 1_555 1_555
C30 C31 1_555 1_555
C31 C39 1_555 1_555
O13 C54 1_555 1_555
C33 C34 1_555 1_555
C34 H16 1_555 1_555
C36 C37 1_555 1_555
C37 C34 1_555 1_555
C39 H19 1_555 1_555
C40 C33 1_555 1_555
H20 C40 1_555 1_555
O14 Co10 1_555 1_555
C42 C33 1_555 1_555
C45 C37 1_555 1_555
H23 C45 1_555 1_555
C46 C39 1_555 1_555
H24 C46 1_555 1_555
C47 C50 1_555 1_555
C48 C31 1_555 1_555
H25 C48 1_555 1_555
C49 C42 1_555 1_555
H26 C49 1_555 1_555
C50 H27 1_555 1_555
C51 C47 1_555 1_555
H28 C51 1_555 1_555
C52 C36 1_555 1_555
H29 C52 1_555 1_555
C53 C36 1_555 1_555
H30 C53 1_555 1_555
C54 O14 1_555 1_555
Co6 O10 1_555 1_555
O20 Co10 1_555 1_555
C40 C44 1_555 1_555
C42 C46 1_555 1_555
C44 C45 1_555 1_555
C47 C54 1_555 1_555
C48 C49 1_555 1_555
C50 C53 1_555 1_555
C51 C52 1_555 1_555
O1 Co6 1_555 1_555
Co11 O13_2 1_555 1_555
O13_2 C54_2 1_555 1_555
O14_2 Co11 1_555 1_555
C47_2 C50_2 1_555 1_555
C50_2 H27_2 1_555 1_555
C54_2 O14_2 1_555 1_555
O22 Co11 1_555 1_555
C47_2 C54_2 1_555 1_555
O7_2 Co8 1_555 1_555
O8_2 Co8 1_555 1_555
C20_2 C23_2 1_555 1_555
C23_2 H12_2 1_555 1_555
C27_2 O7_2 1_555 1_555
O21 Co8 1_555 1_555
O8_2 C27_2 1_555 1_555
C20_2 C27_2 1_555 1_555
C9_2 C10_2 1_555 1_555
C10_2 C7_2 1_555 1_555
H6_2 C14_2 1_555 1_555
H7_2 C16_2 1_555 1_555
C18_2 C10_2 1_555 1_555
H8_2 C18_2 1_555 1_555
H13_2 C24_2 1_555 1_555
C25_2 C9_2 1_555 1_555
H14_2 C25_2 1_555 1_555
C26_2 C9_2 1_555 1_555
H15_2 C26_2 1_555 1_555
H21_2 C41_2 1_555 1_555
H22_2 C43_2 1_555 1_555
C14_2 C16_2 1_555 1_555
C24_2 C25_2 1_555 1_555
C41_2 C43_2 1_555 1_555
O18 C30_2 1_555 1_555
O22 C30_2 1_555 1_555
C30_2 C31_2 1_555 1_555
C31_2 C39_2 1_555 1_555
C39_2 H19_2 1_555 1_555
C46_2 C39_2 1_555 1_555
H24_2 C46_2 1_555 1_555
O17 C3_2 1_555 1_555
O21 C3_2 1_555 1_555
C3_2 C4_2 1_555 1_555
C4_2 C12_2 1_555 1_555
C12_2 H4_2 1_555 1_555
C19_2 C12_2 1_555 1_555
H9_2 C19_2 1_555 1_555
Co6 O2_2 1_555 1_555
O2_2 C1_2 1_555 1_555
O3_2 Co6 1_555 1_555
C1_2 C2_2 1_555 1_555
C2_2 C8_2 1_555 1_555
C5_2 C11_2 1_555 1_555
C8_2 H2_2 1_555 1_555
C11_2 C8_2 1_555 1_555
H3_2 C11_2 1_555 1_555
C13_2 C6_2 1_555 1_555
H5_2 C13_2 1_555 1_555
C15_2 C6_2 1_555 1_555
C17_2 C5_2 1_555 1_555
H10_2 C21_2 1_555 1_555
C22_2 C15_2 1_555 1_555
H11_2 C22_2 1_555 1_555
O9_2 Co6 1_555 1_555
C28_2 O9_2 1_555 1_555
C29_2 C28_2 1_555 1_555
C32_2 C38_2 1_555 1_555
C35_2 C29_2 1_555 1_555
H17_2 C35_2 1_555 1_555
C38_2 C35_2 1_555 1_555
H18_2 C38_2 1_555 1_555
C13_2 C17_2 1_555 1_555
C21_2 C22_2 1_555 1_555
C36_2 C37_2 1_555 1_555
C37_2 C34_2 1_555 1_555
C45_2 C37_2 1_555 1_555
H23_2 C45_2 1_555 1_555
H28_2 C51_2 1_555 1_555
C52_2 C36_2 1_555 1_555
H29_2 C52_2 1_555 1_555
C53_2 C36_2 1_555 1_555
H30_2 C53_2 1_555 1_555
C51_2 C52_2 1_555 1_555
C40_2 C33_2 1_555 1_555
H20_2 C40_2 1_555 1_555
C42_2 C33_2 1_555 1_555
H25_2 C48_2 1_555 1_555
C49_2 C42_2 1_555 1_555
H26_2 C49_2 1_555 1_555
C40_2 C44_2 1_555 1_555
C48_2 C49_2 1_555 1_555
O1_2 Co4 1_555 1_555
O4_2 C3_3 1_555 1_555
O21_2 C3_3 1_555 1_555
C3_3 C4_3 1_555 1_555
C4_3 C12_3 1_555 1_555
O7_3 Co2 1_555 1_555
C6_3 C7_3 1_555 1_555
C7_3 H1_3 1_555 1_555
C9_3 C10_3 1_555 1_555
C10_3 C7_3 1_555 1_555
C12_3 H4_3 1_555 1_555
C13_3 C6_3 1_555 1_555
H5_3 C13_3 1_555 1_555
O8_3 Co2 1_555 1_555
C15_3 C6_3 1_555 1_555
C18_3 C10_3 1_555 1_555
H8_3 C18_3 1_555 1_555
C19_3 C12_3 1_555 1_555
H9_3 C19_3 1_555 1_555
C20_3 C23_3 1_555 1_555
C21_3 C4_3 1_555 1_555
H10_3 C21_3 1_555 1_555
C22_3 C15_3 1_555 1_555
H11_3 C22_3 1_555 1_555
C23_3 H12_3 1_555 1_555
C24_3 C20_3 1_555 1_555
H13_3 C24_3 1_555 1_555
C25_3 C9_3 1_555 1_555
H14_3 C25_3 1_555 1_555
C26_3 C9_3 1_555 1_555
H15_3 C26_3 1_555 1_555
C27_3 O7_3 1_555 1_555
Co4 O4_2 1_555 1_555
O19_2 Co2 1_555 1_555
C13_3 C17_3 1_555 1_555
O8_3 C27_3 1_555 1_555
C15_3 C19_3 1_555 1_555
C17_3 C18_3 1_555 1_555
C20_3 C27_3 1_555 1_555
C21_3 C22_3 1_555 1_555
C23_3 C26_3 1_555 1_555
C24_3 C25_3 1_555 1_555
Co1_2 O2_3 1_555 1_555
O2_3 C1_3 1_555 1_555
O3_3 Co1_2 1_555 1_555
O5_2 C1_3 1_555 1_555
C1_3 C2_3 1_555 1_555
C2_3 C8_3 1_555 1_555
C5_3 C11_3 1_555 1_555
C8_3 H2_3 1_555 1_555
C11_3 C8_3 1_555 1_555
H3_3 C11_3 1_555 1_555
C14_3 C2_3 1_555 1_555
H6_3 C14_3 1_555 1_555
C16_3 C5_3 1_555 1_555
H7_3 C16_3 1_555 1_555
Co9 O13_3 1_555 1_555
O9_3 Co1_2 1_555 1_555
O10_2 C30_3 1_555 1_555
O11_2 C28_3 1_555 1_555
O22_2 C30_3 1_555 1_555
C28_3 O9_3 1_555 1_555
C29_3 C28_3 1_555 1_555
C30_3 C31_3 1_555 1_555
C31_3 C39_3 1_555 1_555
O13_3 C54_3 1_555 1_555
C32_3 C38_3 1_555 1_555
C33_3 C34_3 1_555 1_555
C34_3 H16_3 1_555 1_555
C35_3 C29_3 1_555 1_555
H17_3 C35_3 1_555 1_555
C36_3 C37_3 1_555 1_555
C37_3 C34_3 1_555 1_555
C38_3 C35_3 1_555 1_555
H18_3 C38_3 1_555 1_555
C39_3 H19_3 1_555 1_555
C40_3 C33_3 1_555 1_555
H20_3 C40_3 1_555 1_555
C41_3 C29_3 1_555 1_555
H21_3 C41_3 1_555 1_555
O14_3 Co9 1_555 1_555
C42_3 C33_3 1_555 1_555
C43_3 C32_3 1_555 1_555
H22_3 C43_3 1_555 1_555
C44_3 C32_3 1_555 1_555
C45_3 C37_3 1_555 1_555
H23_3 C45_3 1_555 1_555
C46_3 C39_3 1_555 1_555
H24_3 C46_3 1_555 1_555
C47_3 C50_3 1_555 1_555
C48_3 C31_3 1_555 1_555
H25_3 C48_3 1_555 1_555
C49_3 C42_3 1_555 1_555
H26_3 C49_3 1_555 1_555
C50_3 H27_3 1_555 1_555
C51_3 C47_3 1_555 1_555
H28_3 C51_3 1_555 1_555
C52_3 C36_3 1_555 1_555
H29_3 C52_3 1_555 1_555
C53_3 C36_3 1_555 1_555
H30_3 C53_3 1_555 1_555
C54_3 O14_3 1_555 1_555
Co4 O10_2 1_555 1_555
Co8_2 O5_2 1_555 1_555
Co11_2 O11_2 1_555 1_555
O16_2 Co1_2 1_555 1_555
O17_2 Co1_2 1_555 1_555
O18_2 Co1_2 1_555 1_555
O20_2 Co9 1_555 1_555
C14_3 C16_3 1_555 1_555
C40_3 C44_3 1_555 1_555
C41_3 C43_3 1_555 1_555
C42_3 C46_3 1_555 1_555
C44_3 C45_3 1_555 1_555
C47_3 C54_3 1_555 1_555
C48_3 C49_3 1_555 1_555
C50_3 C53_3 1_555 1_555
C51_3 C52_3 1_555 1_555
Co8_2 O16_2 1_555 1_555
Co11_2 O16_2 1_555 1_555
Co4 O2_4 1_555 1_555
O2_4 C1_4 1_555 1_555
O3_4 Co4 1_555 1_555
C1_4 C2_4 1_555 1_555
C2_4 C8_4 1_555 1_555
C5_4 C11_4 1_555 1_555
C8_4 H2_4 1_555 1_555
C11_4 C8_4 1_555 1_555
H3_4 C11_4 1_555 1_555
O9_4 Co4 1_555 1_555
C28_4 O9_4 1_555 1_555
C29_4 C28_4 1_555 1_555
C32_4 C38_4 1_555 1_555
C35_4 C29_4 1_555 1_555
H17_4 C35_4 1_555 1_555
C38_4 C35_4 1_555 1_555
H18_4 C38_4 1_555 1_555
C40_4 C33_4 1_555 1_555
H20_4 C40_4 1_555 1_555
C42_4 C33_4 1_555 1_555
C44_4 C32_4 1_555 1_555
H25_4 C48_4 1_555 1_555
C49_4 C42_4 1_555 1_555
H26_4 C49_4 1_555 1_555
C40_4 C44_4 1_555 1_555
C48_4 C49_4 1_555 1_555
O18_2 C30_4 1_555 1_555
O12_2 C30_4 1_555 1_555
C30_4 C31_4 1_555 1_555
C31_4 C39_4 1_555 1_555
C39_4 H19_4 1_555 1_555
C46_4 C39_4 1_555 1_555
H24_4 C46_4 1_555 1_555
Co11_2 O12_2 1_555 1_555
O17_2 C3_4 1_555 1_555
O6_2 C3_4 1_555 1_555
C3_4 C4_4 1_555 1_555
C4_4 C12_4 1_555 1_555
C12_4 H4_4 1_555 1_555
C19_4 C12_4 1_555 1_555
H9_4 C19_4 1_555 1_555
Co8_2 O6_2 1_555 1_555
H6_4 C14_4 1_555 1_555
H7_4 C16_4 1_555 1_555
C36_4 C37_4 1_555 1_555
C37_4 C34_4 1_555 1_555
H21_4 C41_4 1_555 1_555
H22_4 C43_4 1_555 1_555
C45_4 C37_4 1_555 1_555
H23_4 C45_4 1_555 1_555
H28_4 C51_4 1_555 1_555
C52_4 C36_4 1_555 1_555
H29_4 C52_4 1_555 1_555
C53_4 C36_4 1_555 1_555
H30_4 C53_4 1_555 1_555
C14_4 C16_4 1_555 1_555
C41_4 C43_4 1_555 1_555
C51_4 C52_4 1_555 1_555
Co11_2 O13_4 1_555 1_555
O13_4 C54_4 1_555 1_555
O14_4 Co11_2 1_555 1_555
C47_4 C50_4 1_555 1_555
C50_4 H27_4 1_555 1_555
C54_4 O14_4 1_555 1_555
C47_4 C54_4 1_555 1_555
O7_4 Co8_2 1_555 1_555
O8_4 Co8_2 1_555 1_555
C20_4 C23_4 1_555 1_555
C23_4 H12_4 1_555 1_555
C27_4 O7_4 1_555 1_555
O8_4 C27_4 1_555 1_555
C20_4 C27_4 1_555 1_555
C13_4 C6_4 1_555 1_555
H5_4 C13_4 1_555 1_555
C15_4 C6_4 1_555 1_555
H10_4 C21_4 1_555 1_555
C22_4 C15_4 1_555 1_555
H11_4 C22_4 1_555 1_555
C13_4 C17_4 1_555 1_555
C21_4 C22_4 1_555 1_555
C9_4 C10_4 1_555 1_555
C10_4 C7_4 1_555 1_555
C18_4 C10_4 1_555 1_555
H8_4 C18_4 1_555 1_555
H13_4 C24_4 1_555 1_555
C25_4 C9_4 1_555 1_555
H14_4 C25_4 1_555 1_555
C26_4 C9_4 1_555 1_555
H15_4 C26_4 1_555 1_555
C24_4 C25_4 1_555 1_555

#END
