
###############################################################################
#
# This file contains modified crystal structure data generated from the
# MOF subset of the Cambridge Structural Database (CSD) v543 
# hosted by the Cambridge Crystallographic Data Centre (CCDC).
#
# This work is licensed under the Creative Commons
# Attribution-NonCommercial-ShareAlike 4.0 International License.
# To view a copy of this license, visit
# http://creativecommons.org/licenses/by-nc-sa/4.0/
# or send a letter to
# Creative Commons, PO Box 1866, Mountain View, CA 94042, USA.
#
# CIF created using the CSD Python API on 29 September 2022
# The structure has been converted into the P1 space group
# The structure has a 3D framework
# The original CSD entry KEHFUA is in the monoclinic crystal system
# The framework has been calculated to contain at least 10.0% void space
# The void calculation uses a probe of radius 1.32A, grid spacing 0.4
# The framework is charged, counterions have been retained in the structure
#
###############################################################################

data_KEHFUA
_chemical_formula_moiety         '(C120 H168 Cu8 N80 O44 S8)n'
_symmetry_cell_setting           triclinic
_symmetry_space_group_name_H-M   'P 1'
_symmetry_Int_Tables_number      1
_space_group_name_Hall           'P 1'
loop_
_symmetry_equiv_pos_site_id
_symmetry_equiv_pos_as_xyz
1 x,y,z
_cell_length_a                   21.8567(15)
_cell_length_b                   11.5525(9)
_cell_length_c                   21.4604(14)
_cell_angle_alpha                90
_cell_angle_beta                 117.611(4)
_cell_angle_gamma                90
_cell_volume                     4801.63
loop_
_atom_site_label
_atom_site_type_symbol
_atom_site_fract_x
_atom_site_fract_y
_atom_site_fract_z
N7 N 0.14259(13) 0.81029(19) 0.82263(14)
N8 N 0.09019(15) 0.8199(3) 0.84177(16)
N9 N 0.04440(13) 0.82214(19) 0.72592(14)
C11 C 0.02636(16) 0.8271(2) 0.60304(17)
H19 H 0.0551 0.8967 0.6131
H20 H 0.0562 0.7593 0.6121
C14 C 0.11368(16) 0.8115(2) 0.75369(17)
H23 H 0.1379 0.8058 0.7272
C15 C 0.03266(19) 0.8267(3) 0.78314(19)
Cu6 Cu 0.243226(18) 0.80125(3) 0.897527(19)
N4 N 0.79626(13) 0.20053(18) 0.49529(13)
N5 N 0.78872(13) 0.18071(17) 0.55490(13)
N6 N 0.84942(13) 0.03911(17) 0.54394(13)
H12 H 0.9750 0.0029 0.6477
H18 H 0.9568 0.0015 0.5213
C12 C 0.82089(16) 0.0838(2) 0.58321(16)
H21 H 0.8238 0.0503 0.6244
C13 C 0.83244(16) 0.1153(2) 0.48987(16)
H22 H 0.8451 0.1073 0.4538
Cu3 Cu 0.744931(19) 0.32630(2) 0.419404(19)
Cu5 Cu 0.756774(18) 0.30125(3) 0.602473(19)
O1 O 0.70961(12) 0.20357(16) 0.34650(12)
H1 H 0.6995 0.1361 0.3546
H2 H 0.6836 0.2197 0.3035
O2 O 0.84929(13) 0.31764(18) 0.40978(13)
H3 H 0.8495 0.3555 0.3759
H4 H 0.8840 0.3386 0.4476
O3 O 0.72845(12) 0.16619(16) 0.66363(12)
H5 H 0.6973 0.1881 0.6742
H6 H 0.7619 0.1390 0.7004
N1 N 0.79112(14) 0.45610(18) 0.48675(13)
N2 N 0.78699(15) 0.46706(19) 0.54803(14)
N3 N 0.84907(14) 0.61079(18) 0.53973(14)
N10 N 0.97355(14) 0.82778(19) 0.52902(14)
N11 N 0.65948(13) 0.29143(19) 0.45152(13)
N12 N 0.66216(13) 0.29370(18) 0.51753(13)
N13 N 0.55565(13) 0.25648(17) 0.43952(13)
N15 N 0.36167(18) 0.0056(2) 0.14051(18)
N16 N 0.36462(13) 0.06625(18) 0.23905(13)
N17 N 0.27328(14) 0.57805(19) 0.35149(13)
N18 N 0.24677(15) 0.5636(2) 0.27962(14)
N19 N 0.32019(14) 0.42311(19) 0.33558(14)
N20 N 0.38853(14) 0.13222(19) 0.42148(14)
C1 C 0.82733(17) 0.5422(2) 0.48172(17)
H7 H 0.8369 0.5549 0.4439
C2 C 0.82225(19) 0.5606(2) 0.57948(19)
H8 H 0.8282 0.5888 0.6230
C3 C 0.89245(16) 0.7169(2) 0.55734(16)
C4 C 0.84571(15) 0.8248(2) 0.54238(16)
H9 H 0.8106 0.8259 0.4929
H10 H 0.8223 0.8236 0.5718
C5 C 0.89246(16) 0.9326(2) 0.55935(16)
C6 C 0.94637(15) 0.9331(2) 0.63702(16)
H11 H 0.9234 0.9326 0.6669
C7 C 0.99190(15) 0.8238(2) 0.65130(16)
C8 C 0.94693(16) 0.7136(2) 0.63556(16)
H13 H 0.9758 0.6443 0.6450
H14 H 0.9241 0.7113 0.6655
C9 C 0.93025(17) 0.7226(2) 0.51170(17)
H15 H 0.9593 0.6538 0.5203
H16 H 0.8963 0.7237 0.4618
C10 C 0.92880(17) 0.9314(2) 0.51279(17)
H17 H 0.8943 0.9303 0.4631
H24 H 0.9887 0.8338 0.7806
C16 C 0.59554(16) 0.2688(2) 0.40606(17)
H25 H 0.5792 0.2619 0.3573
C17 C 0.59944(16) 0.2734(2) 0.50877(16)
H26 H 0.5868 0.2710 0.5451
C18 C 0.48039(15) 0.2321(2) 0.40544(15)
C19 C 0.46091(15) 0.1627(2) 0.33755(16)
H27 H 0.4706 0.2085 0.3047
H28 H 0.4881 0.0913 0.3484
C20 C 0.38378(15) 0.1340(2) 0.30450(16)
C21 C 0.34073(16) 0.2460(2) 0.28464(16)
H29 H 0.2914 0.2276 0.2628
H30 H 0.3498 0.2913 0.2512
C22 C 0.36200(16) 0.3152(2) 0.35307(16)
C23 C 0.43916(16) 0.3463(2) 0.38785(16)
H31 H 0.4517 0.3911 0.4309
H32 H 0.4494 0.3930 0.3557
C24 C 0.46286(16) 0.1592(2) 0.45544(16)
H33 H 0.4896 0.0872 0.4675
H34 H 0.4754 0.2024 0.4990
C25 C 0.36852(17) 0.0637(2) 0.35641(17)
H35 H 0.3192 0.0450 0.3350
C26 C 0.34738(16) 0.2405(2) 0.40444(17)
H37 H 0.3593 0.2842 0.4477
H38 H 0.2981 0.2216 0.3830
C28 C 0.3918(2) 0.0762(3) 0.1939(2)
H40 H 0.4277 0.1272 0.2002
C29 C 0.31715(16) 0.4951(2) 0.38386(17)
H41 H 0.3426 0.4867 0.4329
C30 C 0.27617(19) 0.4696(3) 0.27235(18)
H42 H 0.2678 0.4380 0.2287
Cu7 Cu 0.243226(18) 0.69875(3) 0.397527(19)
N23 N 0.85741(13) 0.31029(19) 0.67737(14)
N24 N 0.68762(14) 0.44719(18) 0.34890(14)
N25 N 0.72672(14) 0.42195(19) 0.64851(13)
N14 N 0.31238(14) 0.94719(18) 0.15110(14)
H36 H 0.3945 0.9910 0.3678
C27 C 0.31495(16) 0.9849(2) 0.20956(16)
H39 H 0.2863 0.9590 0.2285
Cu4 Cu 0.255069(19) 0.82630(2) 0.080596(19)
N4_2 N 0.20374(13) 0.70053(18) 0.00471(13)
N17_2 N 0.72672(14) 0.07805(19) 0.14851(13)
N18_2 N 0.75323(15) 0.0636(2) 0.22038(14)
C1_2 C 0.17267(17) 0.0422(2) 0.01828(17)
H7_2 H 0.1631 0.0549 0.0561
H9_2 H 0.1894 0.3259 0.0071
H16_2 H 0.1037 0.2237 0.0382
H17_2 H 0.1057 0.4303 0.0369
C13_2 C 0.16756(16) 0.6153(2) 0.01013(16)
H22_2 H 0.1549 0.6073 0.0462
Cu7_2 Cu 0.756774(18) 0.19875(3) 0.102473(19)
N3_2 N 0.15093(14) 0.11079(18) 0.96027(14)
N5_2 N 0.21128(13) 0.68071(17) 0.94510(13)
N6_2 N 0.15058(13) 0.53911(17) 0.95606(13)
N10_2 N 0.02645(14) 0.32778(19) 0.97098(14)
C2_2 C 0.17775(19) 0.0606(2) 0.92052(19)
H8_2 H 0.1718 0.0888 0.8770
C3_2 C 0.10755(16) 0.2169(2) 0.94266(16)
C4_2 C 0.15429(15) 0.3248(2) 0.95762(16)
H10_2 H 0.1777 0.3236 0.9282
C5_2 C 0.10754(16) 0.4326(2) 0.94065(16)
C6_2 C 0.05363(15) 0.4331(2) 0.86298(16)
H11_2 H 0.0766 0.4326 0.8331
H12_2 H 0.0250 0.5029 0.8523
C7_2 C 0.00810(15) 0.3238(2) 0.84870(16)
C8_2 C 0.05307(16) 0.2136(2) 0.86444(16)
H13_2 H 0.0242 0.1443 0.8550
H14_2 H 0.0759 0.2113 0.8345
C9_2 C 0.06975(17) 0.2226(2) 0.98830(17)
H15_2 H 0.0407 0.1538 0.9797
C10_2 C 0.07120(17) 0.4314(2) 0.98721(17)
H18_2 H 0.0432 0.5015 0.9787
C12_2 C 0.17911(16) 0.5838(2) 0.91679(16)
H21_2 H 0.1762 0.5503 0.8756
H24_2 H 0.0113 0.3338 0.7194
O1_2 O 0.29039(12) 0.70357(16) 0.15350(12)
H1_2 H 0.3005 0.6361 0.1454
H2_2 H 0.3164 0.7197 0.1965
O2_2 O 0.15071(13) 0.81764(18) 0.09022(13)
H3_2 H 0.1505 0.8555 0.1241
H4_2 H 0.1160 0.8386 0.0524
N1_2 N 0.20888(14) 0.95610(18) 0.01325(13)
N11_2 N 0.34052(13) 0.79143(19) 0.04848(13)
N13_2 N 0.44435(13) 0.75648(17) 0.06048(13)
N15_2 N 0.63833(18) 0.5056(2) 0.35949(18)
N16_2 N 0.63538(13) 0.56625(18) 0.26095(13)
N19_2 N 0.67981(14) 0.92311(19) 0.16442(14)
N20_2 N 0.61147(14) 0.63222(19) 0.07852(14)
C16_2 C 0.40446(16) 0.7688(2) 0.09394(17)
H25_2 H 0.4208 0.7619 0.1427
C18_2 C 0.51961(15) 0.7321(2) 0.09456(15)
C19_2 C 0.53909(15) 0.6627(2) 0.16245(16)
H27_2 H 0.5294 0.7085 0.1953
H28_2 H 0.5119 0.5913 0.1516
C20_2 C 0.61622(15) 0.6340(2) 0.19550(16)
C21_2 C 0.65927(16) 0.7460(2) 0.21536(16)
H29_2 H 0.7086 0.7276 0.2372
H30_2 H 0.6502 0.7913 0.2488
C22_2 C 0.63800(16) 0.8152(2) 0.14693(16)
C23_2 C 0.56084(16) 0.8463(2) 0.11215(16)
H31_2 H 0.5483 0.8911 0.0691
H32_2 H 0.5506 0.8930 0.1443
C24_2 C 0.53714(16) 0.6592(2) 0.04456(16)
H33_2 H 0.5104 0.5872 0.0325
H34_2 H 0.5246 0.7024 0.0010
C25_2 C 0.63148(17) 0.5637(2) 0.14359(17)
H35_2 H 0.6808 0.5450 0.1650
H36_2 H 0.6055 0.4910 0.1322
C26_2 C 0.65262(16) 0.7405(2) 0.09556(17)
H37_2 H 0.6407 0.7842 0.0523
H38_2 H 0.7019 0.7216 0.1170
C27_2 C 0.68505(16) 0.4849(2) 0.29044(16)
H39_2 H 0.7137 0.4590 0.2715
C28_2 C 0.6082(2) 0.5762(3) 0.3061(2)
H40_2 H 0.5723 0.6272 0.2998
C29_2 C 0.68285(16) 0.9951(2) 0.11614(17)
H41_2 H 0.6574 0.9867 0.0671
C30_2 C 0.72383(19) 0.9696(3) 0.22765(18)
H42_2 H 0.7322 0.9380 0.2713
O3_2 O 0.27155(12) 0.66619(16) 0.83637(12)
H5_2 H 0.3027 0.6881 0.8258
H6_2 H 0.2381 0.6390 0.7996
N2_2 N 0.21301(15) 0.96706(19) 0.95197(14)
N12_2 N 0.33784(13) 0.79370(18) 0.98247(13)
C17_2 C 0.40056(16) 0.7734(2) 0.99123(16)
H26_2 H 0.4132 0.7710 0.9549
N25_2 N 0.27328(14) 0.92195(19) 0.85149(13)
N8_2 N 0.90981(15) 0.3199(3) 0.65823(16)
N9_2 N 0.95560(13) 0.32214(19) 0.77408(14)
C11_2 C 0.97364(16) 0.3271(2) 0.89696(17)
H19_2 H 0.9449 0.3967 0.8869
H20_2 H 0.9438 0.2593 0.8879
C14_2 C 0.88632(16) 0.3115(2) 0.74631(17)
H23_2 H 0.8621 0.3058 0.7728
C15_2 C 0.96734(19) 0.3267(3) 0.71686(19)
N14_2 N 0.68762(14) 0.05281(18) 0.84890(14)
H36_3 H 0.6055 0.0090 0.6322
C27_3 C 0.68505(16) 0.0151(2) 0.79044(16)
H39_3 H 0.7137 0.0410 0.7715
Cu4_2 Cu 0.744931(19) 0.17370(2) 0.919404(19)
Cu1 Cu 0.255069(19) 0.67370(2) 0.580596(19)
O1_3 O 0.29039(12) 0.79643(16) 0.65350(12)
H1_3 H 0.3005 0.8639 0.6454
H2_3 H 0.3164 0.7803 0.6965
O2_3 O 0.15071(13) 0.68236(18) 0.59022(13)
H3_3 H 0.1505 0.6445 0.6241
H4_3 H 0.1160 0.6614 0.5524
O3_3 O 0.27155(12) 0.83381(16) 0.33637(12)
H5_3 H 0.3027 0.8119 0.3258
H6_3 H 0.2381 0.8610 0.2996
N1_3 N 0.20888(14) 0.54390(18) 0.51325(13)
N2_3 N 0.21301(15) 0.53294(19) 0.45197(14)
N3_3 N 0.15093(14) 0.38921(18) 0.46027(14)
N10_3 N 0.02645(14) 0.17222(19) 0.47098(14)
N11_3 N 0.34052(13) 0.70857(19) 0.54848(13)
N12_3 N 0.33784(13) 0.70630(18) 0.48247(13)
N13_3 N 0.44435(13) 0.74352(17) 0.56048(13)
N15_3 N 0.63833(18) 0.9944(2) 0.85949(18)
N16_3 N 0.63538(13) 0.93375(18) 0.76095(13)
N18_3 N 0.75323(15) 0.4364(2) 0.72038(14)
N19_3 N 0.67981(14) 0.57689(19) 0.66442(14)
N20_3 N 0.61147(14) 0.86778(19) 0.57852(14)
C1_3 C 0.17267(17) 0.4578(2) 0.51828(17)
H7_3 H 0.1631 0.4451 0.5561
C2_3 C 0.17775(19) 0.4394(2) 0.42052(19)
H8_3 H 0.1718 0.4112 0.3770
C3_3 C 0.10755(16) 0.2831(2) 0.44266(16)
C4_3 C 0.15429(15) 0.1752(2) 0.45762(16)
H9_3 H 0.1894 0.1741 0.5071
H10_3 H 0.1777 0.1764 0.4282
C5_3 C 0.10754(16) 0.0674(2) 0.44065(16)
C6_3 C 0.05363(15) 0.0669(2) 0.36298(16)
H11_3 H 0.0766 0.0674 0.3331
C7_3 C 0.00810(15) 0.1762(2) 0.34870(16)
C8_3 C 0.05307(16) 0.2864(2) 0.36444(16)
H13_3 H 0.0242 0.3557 0.3550
H14_3 H 0.0759 0.2887 0.3345
C9_3 C 0.06975(17) 0.2774(2) 0.48830(17)
H15_3 H 0.0407 0.3462 0.4797
H16_3 H 0.1037 0.2763 0.5382
C10_3 C 0.07120(17) 0.0686(2) 0.48721(17)
H17_3 H 0.1057 0.0697 0.5369
H24_3 H 0.0113 0.1662 0.2194
C16_3 C 0.40446(16) 0.7312(2) 0.59394(17)
H25_3 H 0.4208 0.7381 0.6427
C17_3 C 0.40056(16) 0.7266(2) 0.49123(16)
H26_3 H 0.4132 0.7290 0.4549
C18_3 C 0.51961(15) 0.7679(2) 0.59456(15)
C19_3 C 0.53909(15) 0.8373(2) 0.66245(16)
H27_3 H 0.5294 0.7915 0.6953
H28_3 H 0.5119 0.9087 0.6516
C20_3 C 0.61622(15) 0.8660(2) 0.69550(16)
C21_3 C 0.65927(16) 0.7540(2) 0.71536(16)
H29_3 H 0.7086 0.7724 0.7372
H30_3 H 0.6502 0.7087 0.7488
C22_3 C 0.63800(16) 0.6848(2) 0.64693(16)
C23_3 C 0.56084(16) 0.6537(2) 0.61215(16)
H31_3 H 0.5483 0.6089 0.5691
H32_3 H 0.5506 0.6070 0.6443
C24_3 C 0.53714(16) 0.8408(2) 0.54456(16)
H33_3 H 0.5104 0.9128 0.5325
H34_3 H 0.5246 0.7976 0.5010
C25_3 C 0.63148(17) 0.9363(2) 0.64359(17)
H35_3 H 0.6808 0.9550 0.6650
C26_3 C 0.65262(16) 0.7595(2) 0.59556(17)
H37_3 H 0.6407 0.7158 0.5523
H38_3 H 0.7019 0.7784 0.6170
C28_3 C 0.6082(2) 0.9238(3) 0.8061(2)
H40_3 H 0.5723 0.8728 0.7998
C29_3 C 0.68285(16) 0.5049(2) 0.61614(17)
H41_3 H 0.6574 0.5133 0.5671
C30_3 C 0.72383(19) 0.5304(3) 0.72765(18)
H42_3 H 0.7322 0.5620 0.7713
N21 N 0.20374(13) 0.79947(18) 0.50471(13)
N22 N 0.21128(13) 0.81929(17) 0.44510(13)
N23_2 N 0.14259(13) 0.68971(19) 0.32263(14)
N24_2 N 0.31238(14) 0.55281(18) 0.65110(14)
N6_3 N 0.15058(13) 0.96089(17) 0.45606(13)
H12_3 H 0.0250 0.9971 0.3523
H18_3 H 0.0432 0.9985 0.4787
C12_3 C 0.17911(16) 0.9162(2) 0.41679(16)
H21_3 H 0.1762 0.9497 0.3756
C13_3 C 0.16756(16) 0.8847(2) 0.51013(16)
H22_3 H 0.1549 0.8927 0.5462
N7_2 N 0.85741(13) 0.18971(19) 0.17737(14)
N8_3 N 0.90981(15) 0.1801(3) 0.15823(16)
N9_3 N 0.95560(13) 0.17786(19) 0.27408(14)
C11_3 C 0.97364(16) 0.1729(2) 0.39696(17)
H19_3 H 0.9449 0.1033 0.3869
H20_3 H 0.9438 0.2407 0.3879
C14_3 C 0.88632(16) 0.1885(2) 0.24631(17)
H23_3 H 0.8621 0.1942 0.2728
C15_3 C 0.96734(19) 0.1733(3) 0.21686(19)
N8_4 N 0.09019(15) 0.6801(3) 0.34177(16)
N9_4 N 0.04440(13) 0.67786(19) 0.22592(14)
C11_4 C 0.02636(16) 0.6729(2) 0.10304(17)
H19_4 H 0.0551 0.6033 0.1131
H20_4 H 0.0562 0.7407 0.1121
C14_4 C 0.11368(16) 0.6885(2) 0.25369(17)
H23_4 H 0.1379 0.6942 0.2272
C15_4 C 0.03266(19) 0.6733(3) 0.28314(19)
O3_4 O 0.72845(12) 0.33381(16) 0.16363(12)
H5_4 H 0.6973 0.3119 0.1742
H6_4 H 0.7619 0.3610 0.2004
N2_4 N 0.78699(15) 0.03294(19) 0.04803(14)
N12_4 N 0.66216(13) 0.20630(18) 0.01753(13)
C17_4 C 0.59944(16) 0.2266(2) 0.00877(16)
H26_4 H 0.5868 0.2290 0.0451
N22_2 N 0.78872(13) 0.31929(17) 0.05490(13)
O1_4 O 0.70961(12) 0.29643(16) 0.84650(12)
H1_4 H 0.6995 0.3639 0.8546
H2_4 H 0.6836 0.2803 0.8035
O2_4 O 0.84929(13) 0.18236(18) 0.90978(13)
H3_4 H 0.8495 0.1445 0.8759
H4_4 H 0.8840 0.1614 0.9476
N1_4 N 0.79112(14) 0.04390(18) 0.98675(13)
N11_4 N 0.65948(13) 0.20857(19) 0.95152(13)
N13_4 N 0.55565(13) 0.24352(17) 0.93952(13)
N15_4 N 0.36167(18) 0.4944(2) 0.64051(18)
N16_4 N 0.36462(13) 0.43375(18) 0.73905(13)
N19_4 N 0.32019(14) 0.07689(19) 0.83558(14)
N20_4 N 0.38853(14) 0.36778(19) 0.92148(14)
C16_4 C 0.59554(16) 0.2312(2) 0.90606(17)
H25_4 H 0.5792 0.2381 0.8573
C18_4 C 0.48039(15) 0.2679(2) 0.90544(15)
C19_4 C 0.46091(15) 0.3373(2) 0.83755(16)
H27_4 H 0.4706 0.2915 0.8047
H28_4 H 0.4881 0.4087 0.8484
C20_4 C 0.38378(15) 0.3660(2) 0.80450(16)
C21_4 C 0.34073(16) 0.2540(2) 0.78464(16)
H29_4 H 0.2914 0.2724 0.7628
H30_4 H 0.3498 0.2087 0.7512
C22_4 C 0.36200(16) 0.1848(2) 0.85307(16)
C23_4 C 0.43916(16) 0.1537(2) 0.88785(16)
H31_4 H 0.4517 0.1089 0.9309
H32_4 H 0.4494 0.1070 0.8557
C24_4 C 0.46286(16) 0.3408(2) 0.95544(16)
H33_4 H 0.4896 0.4128 0.9675
H34_4 H 0.4754 0.2976 0.9990
C25_4 C 0.36852(17) 0.4363(2) 0.85641(17)
H35_4 H 0.3192 0.4550 0.8350
H36_4 H 0.3945 0.5090 0.8678
C26_4 C 0.34738(16) 0.2595(2) 0.90444(17)
H37_4 H 0.3593 0.2158 0.9477
H38_4 H 0.2981 0.2784 0.8830
C27_4 C 0.31495(16) 0.5151(2) 0.70956(16)
H39_4 H 0.2863 0.5410 0.7285
C28_4 C 0.3918(2) 0.4238(3) 0.6939(2)
H40_4 H 0.4277 0.3728 0.7002
C29_4 C 0.31715(16) 0.0049(2) 0.88386(17)
H41_4 H 0.3426 0.0133 0.9329
C30_4 C 0.27617(19) 0.0304(3) 0.77235(18)
H42_4 H 0.2678 0.0620 0.7287
N21_2 N 0.79626(13) 0.29947(18) 0.99529(13)
N3_4 N 0.84907(14) 0.88921(18) 0.03973(14)
N6_4 N 0.84942(13) 0.46089(17) 0.04394(13)
N10_4 N 0.97355(14) 0.67222(19) 0.02902(14)
C2_4 C 0.82225(19) 0.9394(2) 0.07948(19)
H8_4 H 0.8282 0.9112 0.1230
C3_4 C 0.89245(16) 0.7831(2) 0.05734(16)
C4_4 C 0.84571(15) 0.6752(2) 0.04238(16)
H10_4 H 0.8223 0.6764 0.0718
C5_4 C 0.89246(16) 0.5674(2) 0.05935(16)
C6_4 C 0.94637(15) 0.5669(2) 0.13702(16)
H11_4 H 0.9234 0.5674 0.1669
H12_4 H 0.9750 0.4971 0.1477
C7_4 C 0.99190(15) 0.6762(2) 0.15130(16)
C8_4 C 0.94693(16) 0.7864(2) 0.13556(16)
H13_4 H 0.9758 0.8557 0.1450
H14_4 H 0.9241 0.7887 0.1655
C9_4 C 0.93025(17) 0.7774(2) 0.01170(17)
H15_4 H 0.9593 0.8462 0.0203
C10_4 C 0.92880(17) 0.5686(2) 0.01279(17)
H18_4 H 0.9568 0.4985 0.0213
C12_4 C 0.82089(16) 0.4162(2) 0.08321(16)
H21_4 H 0.8238 0.4497 0.1244
H24_4 H 0.9887 0.6662 0.2806
N18_4 N 0.24677(15) 0.9364(2) 0.77962(14)
C1_4 C 0.82733(17) 0.9578(2) 0.98172(17)
H7_4 H 0.8369 0.9451 0.9439
H9_4 H 0.8106 0.6741 0.9929
H16_4 H 0.8963 0.7763 0.9618
H17_4 H 0.8943 0.5697 0.9631
C13_4 C 0.83244(16) 0.3847(2) 0.98987(16)
H22_4 H 0.8451 0.3927 0.9538
S1 S 0.55444(4) 0.24923(6) 0.17969(4)
O4 O 0.51965(17) 0.3632(2) 0.16707(18)
O5 O 0.53869(15) 0.1807(2) 0.22832(14)
O6 O 0.53120(16) 0.1883(2) 0.11164(15)
O7 O 0.63078(13) 0.2657(2) 0.21155(13)
S1_2 S 0.44556(4) 0.74923(6) 0.32031(4)
O4_2 O 0.48035(17) 0.8632(2) 0.33293(18)
O5_2 O 0.46131(15) 0.6807(2) 0.27168(14)
O6_2 O 0.46880(16) 0.6883(2) 0.38836(15)
O7_2 O 0.36922(13) 0.7657(2) 0.28845(13)
S1_3 S 0.44556(4) 0.75077(6) 0.82031(4)
O4_3 O 0.48035(17) 0.6368(2) 0.83293(18)
O5_3 O 0.46131(15) 0.8193(2) 0.77168(14)
O6_3 O 0.46880(16) 0.8117(2) 0.88836(15)
O7_3 O 0.36922(13) 0.7343(2) 0.78845(13)
S1_4 S 0.55444(4) 0.25077(6) 0.67969(4)
O4_4 O 0.51965(17) 0.1368(2) 0.66707(18)
O5_4 O 0.53869(15) 0.3193(2) 0.72832(14)
O6_4 O 0.53120(16) 0.3117(2) 0.61164(15)
O7_4 O 0.63078(13) 0.2343(2) 0.71155(13)
S2 S 0.86735(5) 0.52906(7) 0.29735(5)
O8 O 0.8409(2) 0.6119(2) 0.33122(18)
O9 O 0.83058(15) 0.4174(2) 0.28849(14)
O10 O 0.8523(3) 0.5711(3) 0.2268(2)
O11 O 0.9413(2) 0.5084(3) 0.3433(3)
S2_2 S 0.13265(5) 0.02906(7) 0.20265(5)
O8_2 O 0.1591(2) 0.1119(2) 0.16878(18)
O10_2 O 0.1477(3) 0.0711(3) 0.2732(2)
O11_2 O 0.0587(2) 0.0084(3) 0.1567(3)
O9_2 O 0.16942(15) 0.9174(2) 0.21151(14)
S2_3 S 0.13265(5) 0.47094(7) 0.70265(5)
O8_3 O 0.1591(2) 0.3881(2) 0.66878(18)
O9_3 O 0.16942(15) 0.5826(2) 0.71151(14)
O10_3 O 0.1477(3) 0.4289(3) 0.7732(2)
O11_3 O 0.0587(2) 0.4916(3) 0.6567(3)
O9_4 O 0.83058(15) 0.0826(2) 0.78849(14)
S2_4 S 0.86735(5) 0.97094(7) 0.79735(5)
O8_4 O 0.8409(2) 0.8881(2) 0.83122(18)
O10_4 O 0.8523(3) 0.9289(3) 0.7268(2)
O11_4 O 0.9413(2) 0.9916(3) 0.8433(3)
loop_
_geom_bond_atom_site_label_1
_geom_bond_atom_site_label_2
_geom_bond_site_symmetry_1
_geom_bond_site_symmetry_2
N7 N8 1_555 1_555
N8 C15 1_555 1_555
H19 C11 1_555 1_555
H20 C11 1_555 1_555
C14 N7 1_555 1_555
H23 C14 1_555 1_555
C15 N9 1_555 1_555
Cu6 N7 1_555 1_555
N9 C14 1_555 1_555
N4 N5 1_555 1_555
N5 C12 1_555 1_555
C12 N6 1_555 1_555
H21 C12 1_555 1_555
C13 N4 1_555 1_555
H22 C13 1_555 1_555
Cu3 N4 1_555 1_555
Cu5 N5 1_555 1_555
N6 C13 1_555 1_555
Cu3 O1 1_555 1_555
Cu5 O3 1_555 1_555
O1 H1 1_555 1_555
H2 O1 1_555 1_555
O2 Cu3 1_555 1_555
H3 O2 1_555 1_555
H4 O2 1_555 1_555
O3 H5 1_555 1_555
H6 O3 1_555 1_555
N1 Cu3 1_555 1_555
N2 Cu5 1_555 1_555
N3 C1 1_555 1_555
N10 C9 1_555 1_555
N11 Cu3 1_555 1_555
N12 Cu5 1_555 1_555
N13 C16 1_555 1_555
N15 C28 1_555 1_555
N16 C20 1_555 1_555
N17 N18 1_555 1_555
N18 C30 1_555 1_555
N19 C22 1_555 1_555
N20 C24 1_555 1_555
C1 N1 1_555 1_555
H7 C1 1_555 1_555
C2 N2 1_555 1_555
H8 C2 1_555 1_555
C3 N3 1_555 1_555
C4 C3 1_555 1_555
H9 C4 1_555 1_555
H10 C4 1_555 1_555
C5 C4 1_555 1_555
C6 C5 1_555 1_555
H11 C6 1_555 1_555
C7 C6 1_555 1_555
C8 C3 1_555 1_555
H13 C8 1_555 1_555
H14 C8 1_555 1_555
C9 C3 1_555 1_555
H15 C9 1_555 1_555
H16 C9 1_555 1_555
C10 N10 1_555 1_555
H17 C10 1_555 1_555
C16 N11 1_555 1_555
H25 C16 1_555 1_555
C17 N12 1_555 1_555
H26 C17 1_555 1_555
C18 N13 1_555 1_555
C19 C18 1_555 1_555
H27 C19 1_555 1_555
H28 C19 1_555 1_555
C20 C19 1_555 1_555
C21 C20 1_555 1_555
H29 C21 1_555 1_555
H30 C21 1_555 1_555
C22 C21 1_555 1_555
C23 C18 1_555 1_555
H31 C23 1_555 1_555
H32 C23 1_555 1_555
C24 C18 1_555 1_555
H33 C24 1_555 1_555
H34 C24 1_555 1_555
C25 N20 1_555 1_555
H35 C25 1_555 1_555
C26 N20 1_555 1_555
H37 C26 1_555 1_555
H38 C26 1_555 1_555
C28 N16 1_555 1_555
H40 C28 1_555 1_555
C29 N17 1_555 1_555
H41 C29 1_555 1_555
C30 N19 1_555 1_555
H42 C30 1_555 1_555
Cu7 N17 1_555 1_555
N23 Cu5 1_555 1_555
N24 Cu3 1_555 1_555
N25 Cu5 1_555 1_555
N1 N2 1_555 1_555
N3 C2 1_555 1_555
N11 N12 1_555 1_555
N13 C17 1_555 1_555
N19 C29 1_555 1_555
C5 C10 1_555 1_555
C7 C8 1_555 1_555
C20 C25 1_555 1_555
C22 C23 1_555 1_555
C22 C26 1_555 1_555
C27 N14 1_555 1_555
H39 C27 1_555 1_555
Cu4 N14 1_555 1_555
N17_2 N18_2 1_555 1_555
H7_2 C1_2 1_555 1_555
C13_2 N4_2 1_555 1_555
H22_2 C13_2 1_555 1_555
Cu4 N4_2 1_555 1_555
Cu7_2 N17_2 1_555 1_555
N5_2 C12_2 1_555 1_555
N6_2 C5_2 1_555 1_555
N10_2 C9_2 1_555 1_555
H8_2 C2_2 1_555 1_555
C3_2 N3_2 1_555 1_555
C4_2 C3_2 1_555 1_555
H10_2 C4_2 1_555 1_555
C5_2 C4_2 1_555 1_555
C6_2 C5_2 1_555 1_555
H11_2 C6_2 1_555 1_555
H12_2 C6_2 1_555 1_555
C7_2 C6_2 1_555 1_555
C8_2 C3_2 1_555 1_555
H13_2 C8_2 1_555 1_555
H14_2 C8_2 1_555 1_555
C9_2 C3_2 1_555 1_555
H15_2 C9_2 1_555 1_555
C10_2 N10_2 1_555 1_555
H18_2 C10_2 1_555 1_555
C12_2 N6_2 1_555 1_555
H21_2 C12_2 1_555 1_555
Cu6 N5_2 1_555 1_555
N3_2 C2_2 1_555 1_555
C5_2 C10_2 1_555 1_555
C7_2 C8_2 1_555 1_555
Cu4 O1_2 1_555 1_555
O1_2 H1_2 1_555 1_555
H2_2 O1_2 1_555 1_555
O2_2 Cu4 1_555 1_555
H3_2 O2_2 1_555 1_555
H4_2 O2_2 1_555 1_555
N1_2 Cu4 1_555 1_555
N11_2 Cu4 1_555 1_555
N13_2 C16_2 1_555 1_555
N24 N15_2 1_555 1_555
N15_2 C28_2 1_555 1_555
N16_2 C20_2 1_555 1_555
N19_2 C22_2 1_555 1_555
N20_2 C24_2 1_555 1_555
C16_2 N11_2 1_555 1_555
H25_2 C16_2 1_555 1_555
C18_2 N13_2 1_555 1_555
C19_2 C18_2 1_555 1_555
H27_2 C19_2 1_555 1_555
H28_2 C19_2 1_555 1_555
C20_2 C19_2 1_555 1_555
C21_2 C20_2 1_555 1_555
H29_2 C21_2 1_555 1_555
H30_2 C21_2 1_555 1_555
C22_2 C21_2 1_555 1_555
C23_2 C18_2 1_555 1_555
H31_2 C23_2 1_555 1_555
H32_2 C23_2 1_555 1_555
C24_2 C18_2 1_555 1_555
H33_2 C24_2 1_555 1_555
H34_2 C24_2 1_555 1_555
C25_2 N20_2 1_555 1_555
H35_2 C25_2 1_555 1_555
H36_2 C25_2 1_555 1_555
C26_2 N20_2 1_555 1_555
H37_2 C26_2 1_555 1_555
H38_2 C26_2 1_555 1_555
C27_2 N24 1_555 1_555
H39_2 C27_2 1_555 1_555
C28_2 N16_2 1_555 1_555
H40_2 C28_2 1_555 1_555
H41_2 C29_2 1_555 1_555
C30_2 N19_2 1_555 1_555
H42_2 C30_2 1_555 1_555
N16_2 C27_2 1_555 1_555
N19_2 C29_2 1_555 1_555
C20_2 C25_2 1_555 1_555
C22_2 C23_2 1_555 1_555
C22_2 C26_2 1_555 1_555
Cu6 O3_2 1_555 1_555
O3_2 H5_2 1_555 1_555
H6_2 O3_2 1_555 1_555
N2_2 Cu6 1_555 1_555
N12_2 Cu6 1_555 1_555
C17_2 N12_2 1_555 1_555
H26_2 C17_2 1_555 1_555
N25_2 Cu6 1_555 1_555
N23 N8_2 1_555 1_555
N8_2 C15_2 1_555 1_555
H19_2 C11_2 1_555 1_555
H20_2 C11_2 1_555 1_555
C14_2 N23 1_555 1_555
H23_2 C14_2 1_555 1_555
C15_2 N9_2 1_555 1_555
N9_2 C14_2 1_555 1_555
C27_3 N14_2 1_555 1_555
H39_3 C27_3 1_555 1_555
Cu4_2 N14_2 1_555 1_555
Cu1 O1_3 1_555 1_555
Cu7 O3_3 1_555 1_555
O1_3 H1_3 1_555 1_555
H2_3 O1_3 1_555 1_555
O2_3 Cu1 1_555 1_555
H3_3 O2_3 1_555 1_555
H4_3 O2_3 1_555 1_555
O3_3 H5_3 1_555 1_555
H6_3 O3_3 1_555 1_555
N1_3 Cu1 1_555 1_555
N2_3 Cu7 1_555 1_555
N3_3 C1_3 1_555 1_555
N10_3 C9_3 1_555 1_555
N11_3 Cu1 1_555 1_555
N12_3 Cu7 1_555 1_555
N13_3 C16_3 1_555 1_555
N15_3 C28_3 1_555 1_555
N16_3 C20_3 1_555 1_555
N25 N18_3 1_555 1_555
N18_3 C30_3 1_555 1_555
N19_3 C22_3 1_555 1_555
N20_3 C24_3 1_555 1_555
C1_3 N1_3 1_555 1_555
H7_3 C1_3 1_555 1_555
C2_3 N2_3 1_555 1_555
H8_3 C2_3 1_555 1_555
C3_3 N3_3 1_555 1_555
C4_3 C3_3 1_555 1_555
H9_3 C4_3 1_555 1_555
H10_3 C4_3 1_555 1_555
C5_3 C4_3 1_555 1_555
C6_3 C5_3 1_555 1_555
H11_3 C6_3 1_555 1_555
C7_3 C6_3 1_555 1_555
C8_3 C3_3 1_555 1_555
H13_3 C8_3 1_555 1_555
H14_3 C8_3 1_555 1_555
C9_3 C3_3 1_555 1_555
H15_3 C9_3 1_555 1_555
H16_3 C9_3 1_555 1_555
C10_3 N10_3 1_555 1_555
H17_3 C10_3 1_555 1_555
C16_3 N11_3 1_555 1_555
H25_3 C16_3 1_555 1_555
C17_3 N12_3 1_555 1_555
H26_3 C17_3 1_555 1_555
C18_3 N13_3 1_555 1_555
C19_3 C18_3 1_555 1_555
H27_3 C19_3 1_555 1_555
H28_3 C19_3 1_555 1_555
C20_3 C19_3 1_555 1_555
C21_3 C20_3 1_555 1_555
H29_3 C21_3 1_555 1_555
H30_3 C21_3 1_555 1_555
C22_3 C21_3 1_555 1_555
C23_3 C18_3 1_555 1_555
H31_3 C23_3 1_555 1_555
H32_3 C23_3 1_555 1_555
C24_3 C18_3 1_555 1_555
H33_3 C24_3 1_555 1_555
H34_3 C24_3 1_555 1_555
C25_3 N20_3 1_555 1_555
H35_3 C25_3 1_555 1_555
C26_3 N20_3 1_555 1_555
H37_3 C26_3 1_555 1_555
H38_3 C26_3 1_555 1_555
C28_3 N16_3 1_555 1_555
H40_3 C28_3 1_555 1_555
C29_3 N25 1_555 1_555
H41_3 C29_3 1_555 1_555
C30_3 N19_3 1_555 1_555
H42_3 C30_3 1_555 1_555
N21 Cu1 1_555 1_555
N22 Cu7 1_555 1_555
N23_2 Cu7 1_555 1_555
N24_2 Cu1 1_555 1_555
N1_3 N2_3 1_555 1_555
N3_3 C2_3 1_555 1_555
N11_3 N12_3 1_555 1_555
N13_3 C17_3 1_555 1_555
N19_3 C29_3 1_555 1_555
C5_3 C10_3 1_555 1_555
C7_3 C8_3 1_555 1_555
C20_3 C25_3 1_555 1_555
C22_3 C23_3 1_555 1_555
C22_3 C26_3 1_555 1_555
N21 N22 1_555 1_555
N22 C12_3 1_555 1_555
C12_3 N6_3 1_555 1_555
H21_3 C12_3 1_555 1_555
C13_3 N21 1_555 1_555
H22_3 C13_3 1_555 1_555
N6_3 C13_3 1_555 1_555
N7_2 N8_3 1_555 1_555
N8_3 C15_3 1_555 1_555
H19_3 C11_3 1_555 1_555
H20_3 C11_3 1_555 1_555
C14_3 N7_2 1_555 1_555
H23_3 C14_3 1_555 1_555
C15_3 N9_3 1_555 1_555
Cu7_2 N7_2 1_555 1_555
N9_3 C14_3 1_555 1_555
N23_2 N8_4 1_555 1_555
N8_4 C15_4 1_555 1_555
H19_4 C11_4 1_555 1_555
H20_4 C11_4 1_555 1_555
C14_4 N23_2 1_555 1_555
H23_4 C14_4 1_555 1_555
C15_4 N9_4 1_555 1_555
N9_4 C14_4 1_555 1_555
Cu7_2 O3_4 1_555 1_555
O3_4 H5_4 1_555 1_555
H6_4 O3_4 1_555 1_555
N2_4 Cu7_2 1_555 1_555
N12_4 Cu7_2 1_555 1_555
C17_4 N12_4 1_555 1_555
H26_4 C17_4 1_555 1_555
N22_2 Cu7_2 1_555 1_555
Cu4_2 O1_4 1_555 1_555
O1_4 H1_4 1_555 1_555
H2_4 O1_4 1_555 1_555
O2_4 Cu4_2 1_555 1_555
H3_4 O2_4 1_555 1_555
H4_4 O2_4 1_555 1_555
N1_4 Cu4_2 1_555 1_555
N11_4 Cu4_2 1_555 1_555
N13_4 C16_4 1_555 1_555
N24_2 N15_4 1_555 1_555
N15_4 C28_4 1_555 1_555
N16_4 C20_4 1_555 1_555
N19_4 C22_4 1_555 1_555
N20_4 C24_4 1_555 1_555
C16_4 N11_4 1_555 1_555
H25_4 C16_4 1_555 1_555
C18_4 N13_4 1_555 1_555
C19_4 C18_4 1_555 1_555
H27_4 C19_4 1_555 1_555
H28_4 C19_4 1_555 1_555
C20_4 C19_4 1_555 1_555
C21_4 C20_4 1_555 1_555
H29_4 C21_4 1_555 1_555
H30_4 C21_4 1_555 1_555
C22_4 C21_4 1_555 1_555
C23_4 C18_4 1_555 1_555
H31_4 C23_4 1_555 1_555
H32_4 C23_4 1_555 1_555
C24_4 C18_4 1_555 1_555
H33_4 C24_4 1_555 1_555
H34_4 C24_4 1_555 1_555
C25_4 N20_4 1_555 1_555
H35_4 C25_4 1_555 1_555
H36_4 C25_4 1_555 1_555
C26_4 N20_4 1_555 1_555
H37_4 C26_4 1_555 1_555
H38_4 C26_4 1_555 1_555
C27_4 N24_2 1_555 1_555
H39_4 C27_4 1_555 1_555
C28_4 N16_4 1_555 1_555
H40_4 C28_4 1_555 1_555
H41_4 C29_4 1_555 1_555
C30_4 N19_4 1_555 1_555
H42_4 C30_4 1_555 1_555
N21_2 Cu4_2 1_555 1_555
N16_4 C27_4 1_555 1_555
N19_4 C29_4 1_555 1_555
C20_4 C25_4 1_555 1_555
C22_4 C23_4 1_555 1_555
C22_4 C26_4 1_555 1_555
N22_2 C12_4 1_555 1_555
N6_4 C5_4 1_555 1_555
N10_4 C9_4 1_555 1_555
H8_4 C2_4 1_555 1_555
C3_4 N3_4 1_555 1_555
C4_4 C3_4 1_555 1_555
H10_4 C4_4 1_555 1_555
C5_4 C4_4 1_555 1_555
C6_4 C5_4 1_555 1_555
H11_4 C6_4 1_555 1_555
H12_4 C6_4 1_555 1_555
C7_4 C6_4 1_555 1_555
C8_4 C3_4 1_555 1_555
H13_4 C8_4 1_555 1_555
H14_4 C8_4 1_555 1_555
C9_4 C3_4 1_555 1_555
H15_4 C9_4 1_555 1_555
C10_4 N10_4 1_555 1_555
H18_4 C10_4 1_555 1_555
C12_4 N6_4 1_555 1_555
H21_4 C12_4 1_555 1_555
N3_4 C2_4 1_555 1_555
C5_4 C10_4 1_555 1_555
C7_4 C8_4 1_555 1_555
N25_2 N18_4 1_555 1_555
H7_4 C1_4 1_555 1_555
C13_4 N21_2 1_555 1_555
H22_4 C13_4 1_555 1_555
S1 O4 1_555 1_555
O5 S1 1_555 1_555
O6 S1 1_555 1_555
O7 S1 1_555 1_555
S1_2 O4_2 1_555 1_555
O5_2 S1_2 1_555 1_555
O6_2 S1_2 1_555 1_555
O7_2 S1_2 1_555 1_555
S1_3 O4_3 1_555 1_555
O5_3 S1_3 1_555 1_555
O6_3 S1_3 1_555 1_555
O7_3 S1_3 1_555 1_555
S1_4 O4_4 1_555 1_555
O5_4 S1_4 1_555 1_555
O6_4 S1_4 1_555 1_555
O7_4 S1_4 1_555 1_555
S2 O8 1_555 1_555
O9 S2 1_555 1_555
O10 S2 1_555 1_555
O11 S2 1_555 1_555
S2_2 O8_2 1_555 1_555
O10_2 S2_2 1_555 1_555
O11_2 S2_2 1_555 1_555
S2_3 O8_3 1_555 1_555
O9_3 S2_3 1_555 1_555
O10_3 S2_3 1_555 1_555
O11_3 S2_3 1_555 1_555
S2_4 O8_4 1_555 1_555
O10_4 S2_4 1_555 1_555
O11_4 S2_4 1_555 1_555

#END
