
###############################################################################
#
# This file contains modified crystal structure data generated from the
# MOF subset of the Cambridge Structural Database (CSD) v543 
# hosted by the Cambridge Crystallographic Data Centre (CCDC).
#
# This work is licensed under the Creative Commons
# Attribution-NonCommercial-ShareAlike 4.0 International License.
# To view a copy of this license, visit
# http://creativecommons.org/licenses/by-nc-sa/4.0/
# or send a letter to
# Creative Commons, PO Box 1866, Mountain View, CA 94042, USA.
#
# CIF created using the CSD Python API on 29 September 2022
# The structure has been converted into the P1 space group
# The structure has a 3D framework
# The original CSD entry KEHGAH is in the hexagonal crystal system
# The framework has been calculated to contain at least 10.0% void space
# The void calculation uses a probe of radius 1.32A, grid spacing 0.4
# The framework is charged, counterions have been retained in the structure
#
###############################################################################

data_KEHGAH
_chemical_formula_moiety         '(C90 H108 Cd4 Cl2 N60 6+)n'
_symmetry_cell_setting           triclinic
_symmetry_space_group_name_H-M   'P 1'
_symmetry_Int_Tables_number      1
_space_group_name_Hall           'P 1'
loop_
_symmetry_equiv_pos_site_id
_symmetry_equiv_pos_as_xyz
1 x,y,z
_cell_length_a                   18.5633(17)
_cell_length_b                   18.5633(17)
_cell_length_c                   14.3967(13)
_cell_angle_alpha                90
_cell_angle_beta                 90
_cell_angle_gamma                120
_cell_volume                     4296.39
loop_
_atom_site_label
_atom_site_type_symbol
_atom_site_fract_x
_atom_site_fract_y
_atom_site_fract_z
Cd5 Cd 0.3333 0.6666 0.39646(4)
Cd6 Cd 0.3333 0.6666 0.10354(4)
N23 N 0.2275(3) 0.5715(4) 0.2974(3)
N24 N 0.2275(3) 0.5715(4) 0.2026(3)
N33 N 0.1102(4) 0.4692(6) 0.2500
C21 C 0.1571(4) 0.5090(6) 0.3221(4)
C22 C 0.1571(4) 0.5090(6) 0.1779(4)
H22 H 0.1410 0.4935 0.3849
H23 H 0.1410 0.4935 0.1151
H27 H 0.0111 0.3941 0.3926
H28 H 0.0111 0.3941 0.1074
C35 C 0.0268(5) 0.3924(8) 0.2500
C44 C 0.0368(6) 0.3158(8) 0.2500
H51 H 0.0682 0.3162 0.1942
H52 H 0.0682 0.3162 0.3058
Cd1 Cd 0.6667 0.3333 0.60354(4)
N1 N 0.5546(3) 0.2353(3) 0.5188(3)
N2 N 0.4862(4) 0.1756(3) 0.5705(3)
N3 N 0.4581(3) 0.1473(3) 0.4204(3)
N6 N 0.2869(6) 0.0466(6) 0.2500
C1 C 0.5360(5) 0.2182(4) 0.4312(4)
H1 H 0.5710 0.2499 0.3813
C2 C 0.4326(5) 0.1266(5) 0.5098(4)
H2 H 0.3802 0.0804 0.5262
C4 C 0.4169(4) 0.1035(4) 0.3362(4)
C5 C 0.4123(4) 0.0205(3) 0.3362(3)
H5 H 0.4690 0.0282 0.3362
C7 C 0.3299(5) 0.0932(5) 0.3338(4)
H6 H 0.2983 0.0628 0.3898
H7 H 0.3340 0.1485 0.3332
C8 C 0.4680(6) 0.1579(5) 0.2500
H8 H 0.4705 0.2125 0.2500
H9 H 0.5254 0.1672 0.2500
N8 N 0.7647(3) 0.3193(4) 0.5188(3)
N10 N 0.6807(4) 0.4454(3) 0.5188(3)
N13 N 0.8244(3) 0.3106(5) 0.5705(3)
N15 N 0.6894(5) 0.5138(4) 0.5705(3)
N17 N 0.4581(3) 0.1473(3) 0.0796(3)
N18 N 0.8527(3) 0.3108(4) 0.4204(3)
N19 N 0.8527(3) 0.3108(4) 0.0796(3)
N20 N 0.6892(4) 0.5419(3) 0.4204(3)
N21 N 0.6892(4) 0.5419(3) 0.0796(3)
N25 N 0.4285(4) 0.6560(3) 0.2974(3)
N26 N 0.4285(4) 0.6560(3) 0.2026(3)
N27 N 0.6560(3) 0.2275(3) 0.7026(3)
N28 N 0.7725(3) 0.4285(4) 0.7026(3)
N29 N 0.5715(4) 0.3440(3) 0.7026(3)
N34 N 0.5308(6) 0.6410(5) 0.2500
N35 N 0.9534(6) 0.2403(8) 0.2500
N36 N 0.7597(8) 0.7131(6) 0.2500
C10 C 0.5360(5) 0.2182(4) 0.0688(4)
C11 C 0.7818(4) 0.3178(6) 0.4312(4)
C12 C 0.7818(4) 0.3178(6) 0.0688(4)
C13 C 0.6822(6) 0.4640(5) 0.4312(4)
C14 C 0.6822(6) 0.4640(5) 0.0688(4)
H11 H 0.5710 0.2499 0.1187
H12 H 0.7501 0.3211 0.3813
H13 H 0.7501 0.3211 0.1187
H14 H 0.6789 0.4290 0.3813
H15 H 0.6789 0.4290 0.1187
C16 C 0.8734(5) 0.3060(7) 0.5098(4)
C18 C 0.6940(7) 0.5674(5) 0.5098(4)
H17 H 0.9196 0.2998 0.5262
H19 H 0.7002 0.6198 0.5262
C23 C 0.4910(6) 0.6481(4) 0.3221(4)
C24 C 0.4910(6) 0.6481(4) 0.1779(4)
H24 H 0.5065 0.6475 0.3849
H25 H 0.5065 0.6475 0.1151
C25 C 0.4169(4) 0.1035(4) 0.1638(4)
C26 C 0.8965(4) 0.3134(6) 0.3362(4)
C27 C 0.8965(4) 0.3134(6) 0.1638(4)
C28 C 0.6866(6) 0.5831(4) 0.3362(4)
C29 C 0.6866(6) 0.5831(4) 0.1638(4)
C30 C 0.4123(4) 0.0205(3) 0.1638(3)
C31 C 0.9795(3) 0.3918(5) 0.3362(3)
C32 C 0.9795(3) 0.3918(5) 0.1638(3)
C33 C 0.6082(5) 0.5877(4) 0.3362(3)
C34 C 0.6082(5) 0.5877(4) 0.1638(3)
H29 H 0.6059 0.6170 0.3926
H30 H 0.6059 0.6170 0.1074
H31 H 0.4690 0.0282 0.1638
H32 H 0.9718 0.4408 0.3362
H33 H 0.9718 0.4408 0.1638
H34 H 0.5592 0.5310 0.3362
H35 H 0.5592 0.5310 0.1638
C36 C 0.6076(8) 0.6344(6) 0.2500
C37 C 0.3299(5) 0.0932(5) 0.1662(4)
C38 C 0.9068(5) 0.2367(7) 0.3338(4)
C39 C 0.9068(5) 0.2367(7) 0.1662(4)
C40 C 0.7633(7) 0.6701(5) 0.3338(4)
C41 C 0.7633(7) 0.6701(5) 0.1662(4)
H36 H 0.2983 0.0628 0.1102
H37 H 0.9372 0.2355 0.3898
H38 H 0.9372 0.2355 0.1102
H39 H 0.7645 0.7017 0.3898
H40 H 0.7645 0.7017 0.1102
H41 H 0.3340 0.1485 0.1668
H42 H 0.8515 0.1855 0.3332
H43 H 0.8515 0.1855 0.1668
H44 H 0.8145 0.6660 0.3332
H45 H 0.8145 0.6660 0.1668
C42 C 0.8421(5) 0.3101(8) 0.2500
C43 C 0.6899(8) 0.5320(6) 0.2500
H46 H 0.7875 0.2580 0.2500
H47 H 0.7420 0.5295 0.2500
H48 H 0.8328 0.3582 0.2500
H49 H 0.6418 0.4746 0.2500
C45 C 0.6842(8) 0.7210(6) 0.2500
H53 H 0.6838 0.7520 0.1942
H54 H 0.6838 0.7520 0.3058
Cd2 Cd 0.6667 0.3333 0.89646(4)
N7 N 0.5546(3) 0.2353(3) 0.9812(3)
N9 N 0.7647(3) 0.3193(4) 0.9812(3)
N11 N 0.6807(4) 0.4454(3) 0.9812(3)
N12 N 0.4862(4) 0.1756(3) 0.9295(3)
N14 N 0.8244(3) 0.3106(5) 0.9295(3)
N16 N 0.6894(5) 0.5138(4) 0.9295(3)
N30 N 0.6560(3) 0.2275(3) 0.7974(3)
N31 N 0.7725(3) 0.4285(4) 0.7974(3)
N32 N 0.5715(4) 0.3440(3) 0.7974(3)
C15 C 0.4326(5) 0.1266(5) 0.9902(4)
C17 C 0.8734(5) 0.3060(7) 0.9902(4)
C19 C 0.6940(7) 0.5674(5) 0.9902(4)
H16 H 0.3802 0.0804 0.9738
H18 H 0.9196 0.2998 0.9738
H20 H 0.7002 0.6198 0.9738
N4 N 0.3440(3) 0.7725(3) 0.2974(3)
N5 N 0.3590(5) 0.8898(4) 0.2500
C3 C 0.3519(4) 0.8429(4) 0.3221(4)
H3 H 0.3525 0.8590 0.3849
H4 H 0.3830 0.9889 0.3926
C6 C 0.3656(6) 0.9732(5) 0.2500
C9 C 0.2790(6) 0.9632(6) 0.2500
H10 H 0.2480 0.9318 0.1942
N22 N 0.3440(3) 0.7725(3) 0.2026(3)
C20 C 0.3519(4) 0.8429(4) 0.1779(4)
H21 H 0.3525 0.8590 0.1151
H26 H 0.3830 0.9889 0.1074
H50 H 0.2480 0.9318 0.3058
N5_2 N 0.6410(5) 0.1102(4) 0.7500
C3_2 C 0.6481(4) 0.1571(4) 0.8221(4)
H3_2 H 0.6475 0.1410 0.8849
H4_2 H 0.6170 0.0111 0.8926
C6_2 C 0.6344(6) 0.0268(5) 0.7500
C9_2 C 0.7210(6) 0.0368(6) 0.7500
H10_2 H 0.7520 0.0682 0.6942
C20_2 C 0.6481(4) 0.1571(4) 0.6779(4)
H21_2 H 0.6475 0.1410 0.6151
H26_2 H 0.6170 0.0111 0.6074
H50_2 H 0.7520 0.0682 0.8058
N1_2 N 0.4454(3) 0.7647(3) 0.0188(3)
N2_2 N 0.5138(4) 0.8244(3) 0.0705(3)
C2_2 C 0.5674(5) 0.8734(5) 0.0098(4)
H2_2 H 0.6198 0.9196 0.0262
N8_2 N 0.2353(3) 0.6807(4) 0.0188(3)
N10_2 N 0.3193(4) 0.5546(3) 0.0188(3)
N13_2 N 0.1756(3) 0.6894(5) 0.0705(3)
N15_2 N 0.3106(5) 0.4862(4) 0.0705(3)
C16_2 C 0.1266(5) 0.6940(7) 0.0098(4)
C18_2 C 0.3060(7) 0.4326(5) 0.0098(4)
H17_2 H 0.0804 0.7002 0.0262
H19_2 H 0.2998 0.3802 0.0262
N3_2 N 0.5419(3) 0.8527(3) 0.9204(3)
N6_2 N 0.7131(6) 0.9534(6) 0.7500
C1_2 C 0.4640(5) 0.7818(4) 0.9312(4)
H1_2 H 0.4290 0.7501 0.8813
C4_2 C 0.5831(4) 0.8965(4) 0.8362(4)
C5_2 C 0.5877(4) 0.9795(3) 0.8362(3)
H5_2 H 0.5310 0.9718 0.8362
C7_2 C 0.6701(5) 0.9068(5) 0.8338(4)
H6_2 H 0.7017 0.9372 0.8898
H7_2 H 0.6660 0.8515 0.8332
C8_2 C 0.5320(6) 0.8421(5) 0.7500
H8_2 H 0.5295 0.7875 0.7500
H9_2 H 0.4746 0.8328 0.7500
N7_2 N 0.4454(3) 0.7647(3) 0.4812(3)
N9_2 N 0.2353(3) 0.6807(4) 0.4812(3)
N11_2 N 0.3193(4) 0.5546(3) 0.4812(3)
N12_2 N 0.5138(4) 0.8244(3) 0.4295(3)
N14_2 N 0.1756(3) 0.6894(5) 0.4295(3)
N16_2 N 0.3106(5) 0.4862(4) 0.4295(3)
N17_2 N 0.5419(3) 0.8527(3) 0.5796(3)
N18_2 N 0.1473(3) 0.6892(4) 0.9204(3)
N19_2 N 0.1473(3) 0.6892(4) 0.5796(3)
N20_2 N 0.3108(4) 0.4581(3) 0.9204(3)
N21_2 N 0.3108(4) 0.4581(3) 0.5796(3)
N34_2 N 0.4692(6) 0.3590(5) 0.7500
N35_2 N 0.0466(6) 0.7597(8) 0.7500
N36_2 N 0.2403(8) 0.2869(6) 0.7500
C10_2 C 0.4640(5) 0.7818(4) 0.5688(4)
C11_2 C 0.2182(4) 0.6822(6) 0.9312(4)
C12_2 C 0.2182(4) 0.6822(6) 0.5688(4)
C13_2 C 0.3178(6) 0.5360(5) 0.9312(4)
C14_2 C 0.3178(6) 0.5360(5) 0.5688(4)
H11_2 H 0.4290 0.7501 0.6187
H12_2 H 0.2499 0.6789 0.8813
H13_2 H 0.2499 0.6789 0.6187
H14_2 H 0.3211 0.5710 0.8813
H15_2 H 0.3211 0.5710 0.6187
C15_2 C 0.5674(5) 0.8734(5) 0.4902(4)
C17_2 C 0.1266(5) 0.6940(7) 0.4902(4)
C19_2 C 0.3060(7) 0.4326(5) 0.4902(4)
H16_2 H 0.6198 0.9196 0.4738
H18_2 H 0.0804 0.7002 0.4738
H20_2 H 0.2998 0.3802 0.4738
C23_2 C 0.5090(6) 0.3519(4) 0.8221(4)
C24_2 C 0.5090(6) 0.3519(4) 0.6779(4)
H24_2 H 0.4935 0.3525 0.8849
H25_2 H 0.4935 0.3525 0.6151
C25_2 C 0.5831(4) 0.8965(4) 0.6638(4)
C26_2 C 0.1035(4) 0.6866(6) 0.8362(4)
C27_2 C 0.1035(4) 0.6866(6) 0.6638(4)
C28_2 C 0.3134(6) 0.4169(4) 0.8362(4)
C29_2 C 0.3134(6) 0.4169(4) 0.6638(4)
C30_2 C 0.5877(4) 0.9795(3) 0.6638(3)
C31_2 C 0.0205(3) 0.6082(5) 0.8362(3)
C32_2 C 0.0205(3) 0.6082(5) 0.6638(3)
C33_2 C 0.3918(5) 0.4123(4) 0.8362(3)
C34_2 C 0.3918(5) 0.4123(4) 0.6638(3)
H29_2 H 0.3941 0.3830 0.8926
H30_2 H 0.3941 0.3830 0.6074
H31_2 H 0.5310 0.9718 0.6638
H32_2 H 0.0282 0.5592 0.8362
H33_2 H 0.0282 0.5592 0.6638
H34_2 H 0.4408 0.4690 0.8362
H35_2 H 0.4408 0.4690 0.6638
C36_2 C 0.3924(8) 0.3656(6) 0.7500
C37_2 C 0.6701(5) 0.9068(5) 0.6662(4)
C38_2 C 0.0932(5) 0.7633(7) 0.8338(4)
C39_2 C 0.0932(5) 0.7633(7) 0.6662(4)
C40_2 C 0.2367(7) 0.3299(5) 0.8338(4)
C41_2 C 0.2367(7) 0.3299(5) 0.6662(4)
H36_2 H 0.7017 0.9372 0.6102
H37_2 H 0.0628 0.7645 0.8898
H38_2 H 0.0628 0.7645 0.6102
H39_2 H 0.2355 0.2983 0.8898
H40_2 H 0.2355 0.2983 0.6102
H41_2 H 0.6660 0.8515 0.6668
H42_2 H 0.1485 0.8145 0.8332
H43_2 H 0.1485 0.8145 0.6668
H44_2 H 0.1855 0.3340 0.8332
H45_2 H 0.1855 0.3340 0.6668
C42_2 C 0.1579(5) 0.6899(8) 0.7500
C43_2 C 0.3101(8) 0.4680(6) 0.7500
H46_2 H 0.2125 0.7420 0.7500
H47_2 H 0.2580 0.4705 0.7500
H48_2 H 0.1672 0.6418 0.7500
H49_2 H 0.3582 0.5254 0.7500
C45_2 C 0.3158(8) 0.2790(6) 0.7500
H53_2 H 0.3162 0.2480 0.6942
H54_2 H 0.3162 0.2480 0.8058
N33_2 N 0.8898(4) 0.5308(6) 0.7500
C21_2 C 0.8429(4) 0.4910(6) 0.8221(4)
C22_2 C 0.8429(4) 0.4910(6) 0.6779(4)
H22_2 H 0.8590 0.5065 0.8849
H23_2 H 0.8590 0.5065 0.6151
H27_2 H 0.9889 0.6059 0.8926
H28_2 H 0.9889 0.6059 0.6074
C35_2 C 0.9732(5) 0.6076(8) 0.7500
C44_2 C 0.9632(6) 0.6842(8) 0.7500
H51_2 H 0.9318 0.6838 0.6942
H52_2 H 0.9318 0.6838 0.8058
Cl1 Cl 0.6667 0.3333 0.2500
Cl1_2 Cl 0.3333 0.6667 0.7500
loop_
_geom_bond_atom_site_label_1
_geom_bond_atom_site_label_2
_geom_bond_site_symmetry_1
_geom_bond_site_symmetry_2
Cd5 N23 1_555 1_555
Cd6 N24 1_555 1_555
N23 N24 1_555 1_555
N24 C22 1_555 1_555
N33 C21 1_555 1_555
C21 N23 1_555 1_555
C22 N33 1_555 1_555
H22 C21 1_555 1_555
H23 C22 1_555 1_555
C35 N33 1_555 1_555
H51 C44 1_555 1_555
H52 C44 1_555 1_555
C35 C44 1_555 1_555
Cd1 N1 1_555 1_555
N1 N2 1_555 1_555
N2 C2 1_555 1_555
N3 C1 1_555 1_555
N6 C7 1_555 1_555
C1 N1 1_555 1_555
H1 C1 1_555 1_555
C2 N3 1_555 1_555
H2 C2 1_555 1_555
C4 N3 1_555 1_555
C5 C4 1_555 1_555
H5 C5 1_555 1_555
C7 C4 1_555 1_555
H6 C7 1_555 1_555
H7 C7 1_555 1_555
C8 C4 1_555 1_555
H8 C8 1_555 1_555
H9 C8 1_555 1_555
Cd5 N25 1_555 1_555
Cd6 N26 1_555 1_555
N8 Cd1 1_555 1_555
N10 Cd1 1_555 1_555
N13 N8 1_555 1_555
N15 N10 1_555 1_555
N17 C10 1_555 1_555
N18 C11 1_555 1_555
N19 C12 1_555 1_555
N20 C13 1_555 1_555
N21 C14 1_555 1_555
N25 N26 1_555 1_555
N26 C24 1_555 1_555
N27 Cd1 1_555 1_555
N28 Cd1 1_555 1_555
N29 Cd1 1_555 1_555
N34 C23 1_555 1_555
N35 C38 1_555 1_555
N36 C40 1_555 1_555
C11 N8 1_555 1_555
C13 N10 1_555 1_555
H11 C10 1_555 1_555
H12 C11 1_555 1_555
H13 C12 1_555 1_555
H14 C13 1_555 1_555
H15 C14 1_555 1_555
C16 N13 1_555 1_555
C18 N15 1_555 1_555
H17 C16 1_555 1_555
H19 C18 1_555 1_555
C23 N25 1_555 1_555
C24 N34 1_555 1_555
H24 C23 1_555 1_555
H25 C24 1_555 1_555
C25 C8 1_555 1_555
C26 N18 1_555 1_555
C27 N19 1_555 1_555
C28 N20 1_555 1_555
C29 N21 1_555 1_555
C31 C26 1_555 1_555
C32 C27 1_555 1_555
C33 C28 1_555 1_555
C34 C29 1_555 1_555
H29 C33 1_555 1_555
H30 C34 1_555 1_555
H31 C30 1_555 1_555
H32 C31 1_555 1_555
H33 C32 1_555 1_555
H34 C33 1_555 1_555
H35 C34 1_555 1_555
C36 N34 1_555 1_555
C37 N6 1_555 1_555
C38 C26 1_555 1_555
C39 N35 1_555 1_555
C40 C28 1_555 1_555
C41 N36 1_555 1_555
H36 C37 1_555 1_555
H37 C38 1_555 1_555
H38 C39 1_555 1_555
H39 C40 1_555 1_555
H40 C41 1_555 1_555
H41 C37 1_555 1_555
H42 C38 1_555 1_555
H43 C39 1_555 1_555
H44 C40 1_555 1_555
H45 C41 1_555 1_555
C42 C26 1_555 1_555
C43 C28 1_555 1_555
H46 C42 1_555 1_555
H47 C43 1_555 1_555
H48 C42 1_555 1_555
H49 C43 1_555 1_555
C45 N36 1_555 1_555
H53 C45 1_555 1_555
H54 C45 1_555 1_555
N17 C25 1_555 1_555
N18 C16 1_555 1_555
N20 C18 1_555 1_555
C25 C30 1_555 1_555
C25 C37 1_555 1_555
C27 C39 1_555 1_555
C27 C42 1_555 1_555
C29 C41 1_555 1_555
C29 C43 1_555 1_555
C33 C36 1_555 1_555
C34 C36 1_555 1_555
C36 C45 1_555 1_555
Cd2 N7 1_555 1_555
N7 N12 1_555 1_555
N9 Cd2 1_555 1_555
N11 Cd2 1_555 1_555
N12 C15 1_555 1_555
N14 N9 1_555 1_555
N16 N11 1_555 1_555
N30 Cd2 1_555 1_555
N31 Cd2 1_555 1_555
N32 Cd2 1_555 1_555
C17 N14 1_555 1_555
C19 N16 1_555 1_555
H16 C15 1_555 1_555
H18 C17 1_555 1_555
H20 C19 1_555 1_555
N4 C3 1_555 1_555
N5 C3 1_555 1_555
C3 H3 1_555 1_555
C6 N5 1_555 1_555
H10 C9 1_555 1_555
Cd5 N4 1_555 1_555
Cd6 N22 1_555 1_555
N22 N4 1_555 1_555
C20 N5 1_555 1_555
H21 C20 1_555 1_555
H50 C9 1_555 1_555
C6 C9 1_555 1_555
N22 C20 1_555 1_555
N30 C3_2 1_555 1_555
N5_2 C3_2 1_555 1_555
C3_2 H3_2 1_555 1_555
C6_2 N5_2 1_555 1_555
H10_2 C9_2 1_555 1_555
N27 N30 1_555 1_555
C20_2 N5_2 1_555 1_555
H21_2 C20_2 1_555 1_555
H50_2 C9_2 1_555 1_555
C6_2 C9_2 1_555 1_555
N27 C20_2 1_555 1_555
Cd6 N1_2 1_555 1_555
N1_2 N2_2 1_555 1_555
N2_2 C2_2 1_555 1_555
H2_2 C2_2 1_555 1_555
N8_2 Cd6 1_555 1_555
N10_2 Cd6 1_555 1_555
N13_2 N8_2 1_555 1_555
N15_2 N10_2 1_555 1_555
C16_2 N13_2 1_555 1_555
C18_2 N15_2 1_555 1_555
H17_2 C16_2 1_555 1_555
H19_2 C18_2 1_555 1_555
N3_2 C1_2 1_555 1_555
N6_2 C7_2 1_555 1_555
H1_2 C1_2 1_555 1_555
C4_2 N3_2 1_555 1_555
C5_2 C4_2 1_555 1_555
H5_2 C5_2 1_555 1_555
C7_2 C4_2 1_555 1_555
H6_2 C7_2 1_555 1_555
H7_2 C7_2 1_555 1_555
C8_2 C4_2 1_555 1_555
H8_2 C8_2 1_555 1_555
H9_2 C8_2 1_555 1_555
Cd5 N7_2 1_555 1_555
N7_2 N12_2 1_555 1_555
N9_2 Cd5 1_555 1_555
N11_2 Cd5 1_555 1_555
N12_2 C15_2 1_555 1_555
N14_2 N9_2 1_555 1_555
N16_2 N11_2 1_555 1_555
N17_2 C10_2 1_555 1_555
N18_2 C11_2 1_555 1_555
N19_2 C12_2 1_555 1_555
N20_2 C13_2 1_555 1_555
N21_2 C14_2 1_555 1_555
N32 N29 1_555 1_555
N29 C24_2 1_555 1_555
N34_2 C23_2 1_555 1_555
N35_2 C38_2 1_555 1_555
N36_2 C40_2 1_555 1_555
C10_2 N7_2 1_555 1_555
C12_2 N9_2 1_555 1_555
C14_2 N11_2 1_555 1_555
H11_2 C10_2 1_555 1_555
H12_2 C11_2 1_555 1_555
H13_2 C12_2 1_555 1_555
H14_2 C13_2 1_555 1_555
H15_2 C14_2 1_555 1_555
C15_2 N17_2 1_555 1_555
C17_2 N14_2 1_555 1_555
C19_2 N16_2 1_555 1_555
H16_2 C15_2 1_555 1_555
H18_2 C17_2 1_555 1_555
H20_2 C19_2 1_555 1_555
C23_2 N32 1_555 1_555
C24_2 N34_2 1_555 1_555
H24_2 C23_2 1_555 1_555
H25_2 C24_2 1_555 1_555
C25_2 C8_2 1_555 1_555
C26_2 N18_2 1_555 1_555
C27_2 N19_2 1_555 1_555
C28_2 N20_2 1_555 1_555
C29_2 N21_2 1_555 1_555
C31_2 C26_2 1_555 1_555
C32_2 C27_2 1_555 1_555
C33_2 C28_2 1_555 1_555
C34_2 C29_2 1_555 1_555
H29_2 C33_2 1_555 1_555
H30_2 C34_2 1_555 1_555
H31_2 C30_2 1_555 1_555
H32_2 C31_2 1_555 1_555
H33_2 C32_2 1_555 1_555
H34_2 C33_2 1_555 1_555
H35_2 C34_2 1_555 1_555
C36_2 N34_2 1_555 1_555
C37_2 N6_2 1_555 1_555
C38_2 C26_2 1_555 1_555
C39_2 N35_2 1_555 1_555
C40_2 C28_2 1_555 1_555
C41_2 N36_2 1_555 1_555
H36_2 C37_2 1_555 1_555
H37_2 C38_2 1_555 1_555
H38_2 C39_2 1_555 1_555
H39_2 C40_2 1_555 1_555
H40_2 C41_2 1_555 1_555
H41_2 C37_2 1_555 1_555
H42_2 C38_2 1_555 1_555
H43_2 C39_2 1_555 1_555
H44_2 C40_2 1_555 1_555
H45_2 C41_2 1_555 1_555
C42_2 C26_2 1_555 1_555
C43_2 C28_2 1_555 1_555
H46_2 C42_2 1_555 1_555
H47_2 C43_2 1_555 1_555
H48_2 C42_2 1_555 1_555
H49_2 C43_2 1_555 1_555
C45_2 N36_2 1_555 1_555
H53_2 C45_2 1_555 1_555
H54_2 C45_2 1_555 1_555
N17_2 C25_2 1_555 1_555
N19_2 C17_2 1_555 1_555
N21_2 C19_2 1_555 1_555
C25_2 C30_2 1_555 1_555
C25_2 C37_2 1_555 1_555
C27_2 C39_2 1_555 1_555
C27_2 C42_2 1_555 1_555
C29_2 C41_2 1_555 1_555
C29_2 C43_2 1_555 1_555
C33_2 C36_2 1_555 1_555
C34_2 C36_2 1_555 1_555
C36_2 C45_2 1_555 1_555
N31 N28 1_555 1_555
N28 C22_2 1_555 1_555
N33_2 C21_2 1_555 1_555
C21_2 N31 1_555 1_555
C22_2 N33_2 1_555 1_555
H22_2 C21_2 1_555 1_555
H23_2 C22_2 1_555 1_555
C35_2 N33_2 1_555 1_555
H51_2 C44_2 1_555 1_555
H52_2 C44_2 1_555 1_555
C35_2 C44_2 1_555 1_555

#END
