
###############################################################################
#
# This file contains modified crystal structure data generated from the
# MOF subset of the Cambridge Structural Database (CSD) v543 
# hosted by the Cambridge Crystallographic Data Centre (CCDC).
#
# This work is licensed under the Creative Commons
# Attribution-NonCommercial-ShareAlike 4.0 International License.
# To view a copy of this license, visit
# http://creativecommons.org/licenses/by-nc-sa/4.0/
# or send a letter to
# Creative Commons, PO Box 1866, Mountain View, CA 94042, USA.
#
# CIF created using the CSD Python API on 29 September 2022
# The structure has been converted into the P1 space group
# The structure has a 3D framework
# The original CSD entry KEHGIP is in the orthorhombic crystal system
# The framework has been calculated to contain at least 10.0% void space
# The void calculation uses a probe of radius 1.32A, grid spacing 0.4
# The framework is charged, counterions have been retained in the structure
#
###############################################################################

data_KEHGIP
_chemical_formula_moiety         '(C72 H88 Cl8 Cu4 N48 O36)n'
_symmetry_cell_setting           triclinic
_symmetry_space_group_name_H-M   'P 1'
_symmetry_Int_Tables_number      1
_space_group_name_Hall           'P 1'
loop_
_symmetry_equiv_pos_site_id
_symmetry_equiv_pos_as_xyz
1 x,y,z
_cell_length_a                   17.1623(13)
_cell_length_b                   13.1560(8)
_cell_length_c                   12.8631(8)
_cell_angle_alpha                90
_cell_angle_beta                 90
_cell_angle_gamma                90
_cell_volume                     2904.32
loop_
_atom_site_label
_atom_site_type_symbol
_atom_site_fract_x
_atom_site_fract_y
_atom_site_fract_z
Cu1 Cu 0.06616(5) 0.7500 0.83615(6)
N1 N 0.0752(3) 0.5975(4) 0.8310(3)
N2 N 0.0513(5) 0.5415(5) 0.9129(4)
N3 N 0.0845(3) 0.4385(4) 0.7870(3)
N6 N 0.0024(4) 0.2500 0.4746(4)
N7 N 0.3774(4) 0.2500 0.4719(4)
N8 N 0.4061(4) 0.2500 0.5722(5)
N9 N 0.2775(4) 0.2500 0.5774(4)
C1 C 0.0932(3) 0.5344(5) 0.7563(3)
H2 H 0.1100 0.5541 0.6898
C2 C 0.0572(6) 0.4458(6) 0.8850(5)
H3 H 0.0442 0.3901 0.9275
C3 C 0.0216(5) 0.2500 0.3718(5)
H4 H 0.0725 0.2500 0.3447
C5 C 0.3014(5) 0.2500 0.4775(5)
H6 H 0.2679 0.2500 0.4197
C6 C 0.3439(5) 0.2500 0.6328(5)
H7 H 0.3458 0.2500 0.7058
C7 C 0.0989(3) 0.3450(4) 0.7235(3)
C8 C 0.0414(3) 0.3458(4) 0.6310(3)
H9 H 0.0493 0.4069 0.5887
C9 C 0.0570(4) 0.2500 0.5658(5)
C10 C 0.1402(4) 0.2500 0.5246(4)
H10 H 0.1491 0.3104 0.4817
C11 C 0.1968(4) 0.2500 0.6182(5)
C12 C 0.1835(3) 0.3462(4) 0.6837(3)
H11 H 0.1926 0.4069 0.6412
H12 H 0.2198 0.3475 0.7425
C13 C 0.0858(4) 0.2500 0.7898(5)
H13 H 0.1220 0.2500 0.8487
H14 H 0.0325 0.2500 0.8173
Cu3 Cu 0.43384(5) 0.2500 0.33615(6)
N11 N 0.0752(3) 0.9025(4) 0.8310(3)
N13 N 0.0845(3) 0.0615(4) 0.7870(3)
N14 N 0.0438(4) 0.7500 0.6838(4)
N15 N 0.1226(4) 0.7500 0.9719(4)
C15 C 0.0572(6) 0.0542(6) 0.8850(5)
H17 H 0.0442 0.1099 0.9275
C16 C 0.0989(3) 0.1550(4) 0.7235(3)
C17 C 0.0414(3) 0.1542(4) 0.6310(3)
H19 H 0.0493 0.0931 0.5887
H20 H 0.1491 0.1896 0.4817
C18 C 0.1835(3) 0.1538(4) 0.6837(3)
H21 H 0.1926 0.0931 0.6412
H22 H 0.2198 0.1525 0.7425
N12 N 0.0513(5) 0.9585(5) 0.9129(4)
C14 C 0.0932(3) 0.9656(5) 0.7563(3)
H16 H 0.1100 0.9459 0.6898
O1 O 0.9467(5) 0.7500 0.8985(6)
H1 H 0.9178 0.8023 0.8944
N4 N 0.9562(4) 0.2500 0.3162(4)
N5 N 0.8941(5) 0.2500 0.3835(5)
C4 C 0.9232(5) 0.2500 0.4743(6)
H5 H 0.8929 0.2500 0.5352
H8 H 0.9876 0.3458 0.6564
Cu2 Cu 0.93384(5) 0.2500 0.16385(6)
H15 H 0.9178 0.6977 0.8944
H18 H 0.9876 0.1542 0.6564
N10 N 0.4248(3) 0.0975(4) 0.3310(3)
N12_2 N 0.4487(5) 0.0415(5) 0.4129(4)
C14_2 C 0.4068(3) 0.0344(5) 0.2563(3)
H16_2 H 0.3900 0.0541 0.1898
O1_2 O 0.5533(5) 0.2500 0.3985(6)
H1_2 H 0.5822 0.1977 0.3944
N1_2 N 0.4248(3) 0.4025(4) 0.3310(3)
N2_2 N 0.4487(5) 0.4585(5) 0.4129(4)
N3_2 N 0.4155(3) 0.5615(4) 0.2870(3)
N8_2 N 0.0939(4) 0.7500 0.0722(5)
N9_2 N 0.2225(4) 0.7500 0.0774(4)
C1_2 C 0.4068(3) 0.4656(5) 0.2563(3)
H2_2 H 0.3900 0.4459 0.1898
C2_2 C 0.4428(6) 0.5542(6) 0.3850(5)
H3_2 H 0.4558 0.6099 0.4275
H5_2 H 0.6071 0.7500 0.0352
C6_2 C 0.1561(5) 0.7500 0.1328(5)
H7_2 H 0.1542 0.7500 0.2058
C7_2 C 0.4011(3) 0.6550(4) 0.2235(3)
C8_2 C 0.4586(3) 0.6542(4) 0.1310(3)
H8_2 H 0.5124 0.6542 0.1564
H9_2 H 0.4507 0.5931 0.0887
C9_2 C 0.4430(4) 0.7500 0.0658(5)
C10_2 C 0.3598(4) 0.7500 0.0246(4)
C11_2 C 0.3032(4) 0.7500 0.1182(5)
C12_2 C 0.3165(3) 0.6538(4) 0.1837(3)
H11_2 H 0.3074 0.5931 0.1412
H12_2 H 0.2802 0.6525 0.2425
C13_2 C 0.4142(4) 0.7500 0.2898(5)
H13_2 H 0.3780 0.7500 0.3487
H14_2 H 0.4675 0.7500 0.3173
H15_2 H 0.5822 0.3023 0.3944
N13_2 N 0.4155(3) 0.9385(4) 0.2870(3)
N14_2 N 0.4562(4) 0.2500 0.1838(4)
C15_2 C 0.4428(6) 0.9458(6) 0.3850(5)
H17_2 H 0.4558 0.8901 0.4275
C16_2 C 0.4011(3) 0.8450(4) 0.2235(3)
C17_2 C 0.4586(3) 0.8458(4) 0.1310(3)
H18_2 H 0.5124 0.8458 0.1564
H19_2 H 0.4507 0.9069 0.0887
C18_2 C 0.3165(3) 0.8462(4) 0.1837(3)
H21_2 H 0.3074 0.9069 0.1412
H22_2 H 0.2802 0.8475 0.2425
N4_2 N 0.5438(4) 0.7500 0.8162(4)
N5_2 N 0.6059(5) 0.7500 0.8835(5)
N6_2 N 0.4976(4) 0.7500 0.9746(4)
C3_2 C 0.4784(5) 0.7500 0.8718(5)
H4_2 H 0.4275 0.7500 0.8447
C4_2 C 0.5768(5) 0.7500 0.9743(6)
C5_2 C 0.1986(5) 0.7500 0.9775(5)
H6_2 H 0.2321 0.7500 0.9197
H10_2 H 0.3509 0.6896 0.9817
Cu2_2 Cu 0.56616(5) 0.7500 0.66385(6)
H20_2 H 0.3509 0.8104 0.9817
N5_3 N 0.3941(5) 0.2500 0.1165(5)
N6_3 N 0.5024(4) 0.2500 0.0254(4)
N7_2 N 0.8774(4) 0.2500 0.0281(4)
C3_3 C 0.5216(5) 0.2500 0.1282(5)
H4_3 H 0.5725 0.2500 0.1553
C4_3 C 0.4232(5) 0.2500 0.0257(6)
C5_3 C 0.8014(5) 0.2500 0.0225(5)
H6_3 H 0.7679 0.2500 0.0803
H10_3 H 0.6491 0.1896 0.0183
H20_3 H 0.6491 0.3104 0.0183
N3_3 N 0.5845(3) 0.0615(4) 0.7130(3)
N8_3 N 0.9061(4) 0.2500 0.9278(5)
N9_3 N 0.7775(4) 0.2500 0.9226(4)
C2_3 C 0.5572(6) 0.0542(6) 0.6150(5)
H3_3 H 0.5442 0.1099 0.5725
H5_3 H 0.3929 0.2500 0.9648
C6_3 C 0.8439(5) 0.2500 0.8672(5)
H7_3 H 0.8458 0.2500 0.7942
C7_3 C 0.5989(3) 0.1550(4) 0.7765(3)
C8_3 C 0.5414(3) 0.1542(4) 0.8690(3)
H8_3 H 0.4876 0.1542 0.8436
H9_3 H 0.5493 0.0931 0.9113
C9_3 C 0.5570(4) 0.2500 0.9342(5)
C10_3 C 0.6402(4) 0.2500 0.9754(4)
C11_3 C 0.6968(4) 0.2500 0.8818(5)
C12_3 C 0.6835(3) 0.1538(4) 0.8163(3)
H11_3 H 0.6926 0.0931 0.8588
H12_3 H 0.7198 0.1525 0.7575
C13_3 C 0.5858(4) 0.2500 0.7102(5)
H13_3 H 0.6220 0.2500 0.6513
H14_3 H 0.5325 0.2500 0.6827
N10_2 N 0.5752(3) 0.5975(4) 0.6690(3)
N12_3 N 0.5513(5) 0.5415(5) 0.5871(4)
N13_3 N 0.5845(3) 0.4385(4) 0.7130(3)
C14_3 C 0.5932(3) 0.5344(5) 0.7437(3)
H16_3 H 0.6100 0.5541 0.8102
C15_3 C 0.5572(6) 0.4458(6) 0.6150(5)
H17_3 H 0.5442 0.3901 0.5725
C16_3 C 0.5989(3) 0.3450(4) 0.7765(3)
C17_3 C 0.5414(3) 0.3458(4) 0.8690(3)
H18_3 H 0.4876 0.3458 0.8436
H19_3 H 0.5493 0.4069 0.9113
C18_3 C 0.6835(3) 0.3462(4) 0.8163(3)
H21_3 H 0.6926 0.4069 0.8588
H22_3 H 0.7198 0.3475 0.7575
O1_3 O 0.4467(5) 0.7500 0.6015(6)
H1_3 H 0.4178 0.6977 0.6056
N1_3 N 0.5752(3) 0.9025(4) 0.6690(3)
N2_3 N 0.5513(5) 0.9585(5) 0.5871(4)
C1_3 C 0.5932(3) 0.9656(5) 0.7437(3)
H2_3 H 0.6100 0.9459 0.8102
H15_3 H 0.4178 0.8023 0.6056
N15_2 N 0.6226(4) 0.7500 0.5281(4)
O1_4 O 0.0533(5) 0.2500 0.1015(6)
H1_4 H 0.0822 0.3023 0.1056
H15_4 H 0.0822 0.1977 0.1056
N5_4 N 0.1059(5) 0.7500 0.6165(5)
C4_4 C 0.0768(5) 0.7500 0.5257(6)
H5_4 H 0.1071 0.7500 0.4648
H8_4 H 0.0124 0.8458 0.3436
H18_4 H 0.0124 0.6542 0.3436
N1_4 N 0.9248(3) 0.0975(4) 0.1690(3)
N2_4 N 0.9487(5) 0.0415(5) 0.0871(4)
C1_4 C 0.9068(3) 0.0344(5) 0.2437(3)
H2_4 H 0.8900 0.0541 0.3102
N11_2 N 0.9248(3) 0.4025(4) 0.1690(3)
N3_4 N 0.9155(3) 0.9385(4) 0.2130(3)
N6_4 N 0.9976(4) 0.7500 0.5254(4)
N8_4 N 0.5939(4) 0.7500 0.4278(5)
N9_4 N 0.7225(4) 0.7500 0.4226(4)
C2_4 C 0.9428(6) 0.9458(6) 0.1150(5)
H3_4 H 0.9558 0.8901 0.0725
C3_4 C 0.9784(5) 0.7500 0.6282(5)
H4_4 H 0.9275 0.7500 0.6553
C5_4 C 0.6986(5) 0.7500 0.5225(5)
H6_4 H 0.7321 0.7500 0.5803
C6_4 C 0.6561(5) 0.7500 0.3672(5)
H7_4 H 0.6542 0.7500 0.2942
C7_4 C 0.9011(3) 0.8450(4) 0.2765(3)
C8_4 C 0.9586(3) 0.8458(4) 0.3690(3)
H9_4 H 0.9507 0.9069 0.4113
C9_4 C 0.9430(4) 0.7500 0.4342(5)
C10_4 C 0.8598(4) 0.7500 0.4754(4)
H10_4 H 0.8509 0.8104 0.5183
C11_4 C 0.8032(4) 0.7500 0.3818(5)
C12_4 C 0.8165(3) 0.8462(4) 0.3163(3)
H11_4 H 0.8074 0.9069 0.3588
H12_4 H 0.7802 0.8475 0.2575
C13_4 C 0.9142(4) 0.7500 0.2102(5)
H13_4 H 0.8780 0.7500 0.1513
H14_4 H 0.9675 0.7500 0.1827
N12_4 N 0.9487(5) 0.4585(5) 0.0871(4)
N13_4 N 0.9155(3) 0.5615(4) 0.2130(3)
C14_4 C 0.9068(3) 0.4656(5) 0.2437(3)
H16_4 H 0.8900 0.4459 0.3102
C15_4 C 0.9428(6) 0.5542(6) 0.1150(5)
H17_4 H 0.9558 0.6099 0.0725
C16_4 C 0.9011(3) 0.6550(4) 0.2765(3)
C17_4 C 0.9586(3) 0.6542(4) 0.3690(3)
H19_4 H 0.9507 0.5931 0.4113
H20_4 H 0.8509 0.6896 0.5183
C18_4 C 0.8165(3) 0.6538(4) 0.3163(3)
H21_4 H 0.8074 0.5931 0.3588
H22_4 H 0.7802 0.6525 0.2575
O3 O 0.1117(11) 0.0328(13) 0.3320(13)
O5 O 0.2390(8) 0.0185(13) 0.3870(14)
O2 O 0.1365(7) 0.9718(7) 0.4940(6)
Cl1 Cl 0.1648(5) 0.9737(6) 0.3902(6)
O4 O 0.1672(8) 0.8745(7) 0.3509(9)
O2_2 O 0.3635(7) 0.0282(7) 0.9940(6)
Cl1_2 Cl 0.3352(5) 0.0263(6) 0.8902(6)
O4_2 O 0.3328(8) 0.1255(7) 0.8509(9)
O3_2 O 0.3883(11) 0.9672(13) 0.8320(13)
O5_2 O 0.2610(8) 0.9815(13) 0.8870(14)
O2_3 O 0.6365(7) 0.5282(7) 0.0060(6)
Cl1_3 Cl 0.6648(5) 0.5263(6) 0.1098(6)
O3_3 O 0.6117(11) 0.4672(13) 0.1680(13)
O4_3 O 0.6672(8) 0.6255(7) 0.1491(9)
O5_3 O 0.7390(8) 0.4815(13) 0.1130(14)
O2_4 O 0.8635(7) 0.4718(7) 0.5060(6)
Cl1_4 Cl 0.8352(5) 0.4737(6) 0.6098(6)
O3_4 O 0.8883(11) 0.5328(13) 0.6680(13)
O4_4 O 0.8328(8) 0.3745(7) 0.6491(9)
O5_4 O 0.7610(8) 0.5185(13) 0.6130(14)
O2_5 O 0.8635(7) 0.0282(7) 0.5060(6)
Cl1_5 Cl 0.8352(5) 0.0263(6) 0.6098(6)
O4_5 O 0.8328(8) 0.1255(7) 0.6491(9)
O3_5 O 0.8883(11) 0.9672(13) 0.6680(13)
O5_5 O 0.7610(8) 0.9815(13) 0.6130(14)
O3_6 O 0.6117(11) 0.0328(13) 0.1680(13)
O5_6 O 0.7390(8) 0.0185(13) 0.1130(14)
O2_6 O 0.6365(7) 0.9718(7) 0.0060(6)
Cl1_6 Cl 0.6648(5) 0.9737(6) 0.1098(6)
O4_6 O 0.6672(8) 0.8745(7) 0.1491(9)
O2_7 O 0.3635(7) 0.4718(7) 0.9940(6)
Cl1_7 Cl 0.3352(5) 0.4737(6) 0.8902(6)
O3_7 O 0.3883(11) 0.5328(13) 0.8320(13)
O4_7 O 0.3328(8) 0.3745(7) 0.8509(9)
O5_7 O 0.2610(8) 0.5185(13) 0.8870(14)
O2_8 O 0.1365(7) 0.5282(7) 0.4940(6)
Cl1_8 Cl 0.1648(5) 0.5263(6) 0.3902(6)
O3_8 O 0.1117(11) 0.4672(13) 0.3320(13)
O4_8 O 0.1672(8) 0.6255(7) 0.3509(9)
O5_8 O 0.2390(8) 0.4815(13) 0.3870(14)
loop_
_geom_bond_atom_site_label_1
_geom_bond_atom_site_label_2
_geom_bond_site_symmetry_1
_geom_bond_site_symmetry_2
N1 Cu1 1_555 1_555
N2 N1 1_555 1_555
N3 C1 1_555 1_555
N6 C3 1_555 1_555
N7 N8 1_555 1_555
N8 C6 1_555 1_555
N9 C5 1_555 1_555
C1 N1 1_555 1_555
H2 C1 1_555 1_555
C2 N2 1_555 1_555
H3 C2 1_555 1_555
H4 C3 1_555 1_555
C5 N7 1_555 1_555
H6 C5 1_555 1_555
C6 N9 1_555 1_555
H7 C6 1_555 1_555
C7 N3 1_555 1_555
C8 C7 1_555 1_555
H9 C8 1_555 1_555
C9 N6 1_555 1_555
C10 C9 1_555 1_555
H10 C10 1_555 1_555
C11 N9 1_555 1_555
C12 C7 1_555 1_555
H11 C12 1_555 1_555
H12 C12 1_555 1_555
C13 C7 1_555 1_555
H13 C13 1_555 1_555
H14 C13 1_555 1_555
Cu3 N7 1_555 1_555
N11 Cu1 1_555 1_555
N14 Cu1 1_555 1_555
N15 Cu1 1_555 1_555
C15 N13 1_555 1_555
H17 C15 1_555 1_555
C16 C13 1_555 1_555
C17 C9 1_555 1_555
H19 C17 1_555 1_555
H20 C10 1_555 1_555
C18 C11 1_555 1_555
H21 C18 1_555 1_555
H22 C18 1_555 1_555
N3 C2 1_555 1_555
C8 C9 1_555 1_555
C10 C11 1_555 1_555
C11 C12 1_555 1_555
N13 C16 1_555 1_555
C16 C17 1_555 1_555
C16 C18 1_555 1_555
N11 N12 1_555 1_555
C14 N11 1_555 1_555
H16 C14 1_555 1_555
O1 H1 1_555 1_555
N4 N5 1_555 1_555
N5 C4 1_555 1_555
H5 C4 1_555 1_555
Cu2 N4 1_555 1_555
H15 O1 1_555 1_555
Cu3 N10 1_555 1_555
N10 N12_2 1_555 1_555
C14_2 N10 1_555 1_555
H16_2 C14_2 1_555 1_555
Cu3 O1_2 1_555 1_555
O1_2 H1_2 1_555 1_555
N1_2 Cu3 1_555 1_555
N2_2 N1_2 1_555 1_555
N3_2 C1_2 1_555 1_555
N8_2 C6_2 1_555 1_555
C1_2 N1_2 1_555 1_555
H2_2 C1_2 1_555 1_555
C2_2 N2_2 1_555 1_555
H3_2 C2_2 1_555 1_555
C6_2 N9_2 1_555 1_555
H7_2 C6_2 1_555 1_555
C7_2 N3_2 1_555 1_555
C8_2 C7_2 1_555 1_555
H8_2 C8_2 1_555 1_555
H9_2 C8_2 1_555 1_555
C10_2 C9_2 1_555 1_555
C11_2 N9_2 1_555 1_555
C12_2 C7_2 1_555 1_555
H11_2 C12_2 1_555 1_555
H12_2 C12_2 1_555 1_555
C13_2 C7_2 1_555 1_555
H13_2 C13_2 1_555 1_555
H14_2 C13_2 1_555 1_555
H15_2 O1_2 1_555 1_555
N14_2 Cu3 1_555 1_555
C15_2 N13_2 1_555 1_555
H17_2 C15_2 1_555 1_555
C16_2 C13_2 1_555 1_555
C17_2 C9_2 1_555 1_555
H18_2 C17_2 1_555 1_555
H19_2 C17_2 1_555 1_555
C18_2 C11_2 1_555 1_555
H21_2 C18_2 1_555 1_555
H22_2 C18_2 1_555 1_555
N3_2 C2_2 1_555 1_555
C8_2 C9_2 1_555 1_555
C10_2 C11_2 1_555 1_555
C11_2 C12_2 1_555 1_555
N13_2 C16_2 1_555 1_555
C16_2 C17_2 1_555 1_555
C16_2 C18_2 1_555 1_555
N4_2 N5_2 1_555 1_555
N5_2 C4_2 1_555 1_555
N6_2 C3_2 1_555 1_555
C3_2 N4_2 1_555 1_555
H4_2 C3_2 1_555 1_555
C4_2 N6_2 1_555 1_555
C5_2 N15 1_555 1_555
H6_2 C5_2 1_555 1_555
Cu2_2 N4_2 1_555 1_555
N14_2 N5_3 1_555 1_555
N5_3 C4_3 1_555 1_555
N6_3 C3_3 1_555 1_555
C3_3 N14_2 1_555 1_555
H4_3 C3_3 1_555 1_555
C4_3 N6_3 1_555 1_555
C5_3 N7_2 1_555 1_555
H6_3 C5_3 1_555 1_555
Cu2 N7_2 1_555 1_555
N8_3 C6_3 1_555 1_555
H3_3 C2_3 1_555 1_555
C6_3 N9_3 1_555 1_555
H7_3 C6_3 1_555 1_555
C7_3 N3_3 1_555 1_555
C8_3 C7_3 1_555 1_555
H8_3 C8_3 1_555 1_555
H9_3 C8_3 1_555 1_555
C10_3 C9_3 1_555 1_555
C11_3 N9_3 1_555 1_555
C12_3 C7_3 1_555 1_555
H11_3 C12_3 1_555 1_555
H12_3 C12_3 1_555 1_555
C13_3 C7_3 1_555 1_555
H13_3 C13_3 1_555 1_555
H14_3 C13_3 1_555 1_555
Cu2_2 N10_2 1_555 1_555
N10_2 N12_3 1_555 1_555
N12_3 C15_3 1_555 1_555
N13_3 C14_3 1_555 1_555
C14_3 N10_2 1_555 1_555
H16_3 C14_3 1_555 1_555
C15_3 N13_3 1_555 1_555
H17_3 C15_3 1_555 1_555
C16_3 C13_3 1_555 1_555
C17_3 C9_3 1_555 1_555
H18_3 C17_3 1_555 1_555
H19_3 C17_3 1_555 1_555
C18_3 C11_3 1_555 1_555
H21_3 C18_3 1_555 1_555
H22_3 C18_3 1_555 1_555
N3_3 C2_3 1_555 1_555
C8_3 C9_3 1_555 1_555
C10_3 C11_3 1_555 1_555
C11_3 C12_3 1_555 1_555
N13_3 C16_3 1_555 1_555
C16_3 C17_3 1_555 1_555
C16_3 C18_3 1_555 1_555
Cu2_2 O1_3 1_555 1_555
O1_3 H1_3 1_555 1_555
N1_3 Cu2_2 1_555 1_555
N2_3 N1_3 1_555 1_555
C1_3 N1_3 1_555 1_555
H2_3 C1_3 1_555 1_555
H15_3 O1_3 1_555 1_555
N15_2 Cu2_2 1_555 1_555
O1_4 H1_4 1_555 1_555
H15_4 O1_4 1_555 1_555
N14 N5_4 1_555 1_555
N5_4 C4_4 1_555 1_555
H5_4 C4_4 1_555 1_555
N1_4 Cu2 1_555 1_555
N2_4 N1_4 1_555 1_555
C1_4 N1_4 1_555 1_555
H2_4 C1_4 1_555 1_555
N11_2 Cu2 1_555 1_555
N6_4 C3_4 1_555 1_555
N15_2 N8_4 1_555 1_555
N8_4 C6_4 1_555 1_555
N9_4 C5_4 1_555 1_555
H3_4 C2_4 1_555 1_555
H4_4 C3_4 1_555 1_555
C5_4 N15_2 1_555 1_555
H6_4 C5_4 1_555 1_555
C6_4 N9_4 1_555 1_555
H7_4 C6_4 1_555 1_555
C7_4 N3_4 1_555 1_555
C8_4 C7_4 1_555 1_555
H9_4 C8_4 1_555 1_555
C9_4 N6_4 1_555 1_555
C10_4 C9_4 1_555 1_555
H10_4 C10_4 1_555 1_555
C11_4 N9_4 1_555 1_555
C12_4 C7_4 1_555 1_555
H11_4 C12_4 1_555 1_555
H12_4 C12_4 1_555 1_555
C13_4 C7_4 1_555 1_555
H13_4 C13_4 1_555 1_555
H14_4 C13_4 1_555 1_555
N11_2 N12_4 1_555 1_555
N12_4 C15_4 1_555 1_555
N13_4 C14_4 1_555 1_555
C14_4 N11_2 1_555 1_555
H16_4 C14_4 1_555 1_555
C15_4 N13_4 1_555 1_555
H17_4 C15_4 1_555 1_555
C16_4 C13_4 1_555 1_555
C17_4 C9_4 1_555 1_555
H19_4 C17_4 1_555 1_555
H20_4 C10_4 1_555 1_555
C18_4 C11_4 1_555 1_555
H21_4 C18_4 1_555 1_555
H22_4 C18_4 1_555 1_555
N3_4 C2_4 1_555 1_555
C8_4 C9_4 1_555 1_555
C10_4 C11_4 1_555 1_555
C11_4 C12_4 1_555 1_555
N13_4 C16_4 1_555 1_555
C16_4 C17_4 1_555 1_555
C16_4 C18_4 1_555 1_555
O2 Cl1 1_555 1_555
O4 Cl1 1_555 1_555
O2_2 Cl1_2 1_555 1_555
O4_2 Cl1_2 1_555 1_555
O2_3 Cl1_3 1_555 1_555
Cl1_3 O3_3 1_555 1_555
O4_3 Cl1_3 1_555 1_555
O5_3 Cl1_3 1_555 1_555
O2_4 Cl1_4 1_555 1_555
Cl1_4 O3_4 1_555 1_555
O4_4 Cl1_4 1_555 1_555
O5_4 Cl1_4 1_555 1_555
O2_5 Cl1_5 1_555 1_555
O4_5 Cl1_5 1_555 1_555
O2_6 Cl1_6 1_555 1_555
O4_6 Cl1_6 1_555 1_555
O2_7 Cl1_7 1_555 1_555
Cl1_7 O3_7 1_555 1_555
O4_7 Cl1_7 1_555 1_555
O5_7 Cl1_7 1_555 1_555
O2_8 Cl1_8 1_555 1_555
Cl1_8 O3_8 1_555 1_555
O4_8 Cl1_8 1_555 1_555
O5_8 Cl1_8 1_555 1_555

#END
