
###############################################################################
#
# This file contains modified crystal structure data generated from the
# MOF subset of the Cambridge Structural Database (CSD) v543 
# hosted by the Cambridge Crystallographic Data Centre (CCDC).
#
# This work is licensed under the Creative Commons
# Attribution-NonCommercial-ShareAlike 4.0 International License.
# To view a copy of this license, visit
# http://creativecommons.org/licenses/by-nc-sa/4.0/
# or send a letter to
# Creative Commons, PO Box 1866, Mountain View, CA 94042, USA.
#
# CIF created using the CSD Python API on 29 September 2022
# The structure has been converted into the P1 space group
# The structure has a 3D framework
# The original CSD entry KEJHIQ is in the orthorhombic crystal system
# The framework has been calculated to contain at least 10.0% void space
# The void calculation uses a probe of radius 1.32A, grid spacing 0.4
# H atom positions have been added when not included in the experimental data
#
###############################################################################

data_KEJHIQ
_chemical_formula_moiety         '(C96 H80 Cd8 N16 O40)n'
_symmetry_cell_setting           triclinic
_symmetry_space_group_name_H-M   'P 1'
_symmetry_Int_Tables_number      1
_space_group_name_Hall           'P 1'
loop_
_symmetry_equiv_pos_site_id
_symmetry_equiv_pos_as_xyz
1 x,y,z
_cell_length_a                   12.081(1)
_cell_length_b                   15.323(2)
_cell_length_c                   19.705(3)
_cell_angle_alpha                90
_cell_angle_beta                 90
_cell_angle_gamma                90
_cell_volume                     3647.73
loop_
_atom_site_label
_atom_site_type_symbol
_atom_site_fract_x
_atom_site_fract_y
_atom_site_fract_z
Cd1 Cd 0.31115(1) 0.72775(1) 0.32128
O1 O 0.4891(2) 0.66404(13) 0.26934(14)
O2 O 0.35242(19) 0.58214(14) 0.30579(13)
O3 O 0.68465(17) 0.67734(16) 0.61400(12)
O4 O 0.6553(2) 0.81937(16) 0.61698(12)
O5 O 0.2080(3) 0.72326(19) 0.22121(15)
N1 N 0.6115(2) 0.35744(14) 0.21636(13)
N2 N 0.4110(2) 0.72758(16) 0.42633(15)
C1 C 0.4450(2) 0.59143(17) 0.27864(15)
C2 C 0.5063(2) 0.50997(16) 0.25773(15)
C3 C 0.5846(3) 0.51173(17) 0.20663(16)
C4 C 0.6342(3) 0.43448(19) 0.18764(16)
C5 C 0.5371(3) 0.35655(18) 0.26683(16)
C6 C 0.4821(3) 0.43115(18) 0.28869(17)
C7 C 0.6350(2) 0.7444(2) 0.59493(15)
C8 C 0.5501(3) 0.73597(18) 0.53941(16)
C9 C 0.5477(3) 0.6631(2) 0.49865(18)
C10 C 0.4780(3) 0.6613(2) 0.44265(19)
C11 C 0.4110(3) 0.7971(2) 0.46793(19)
C12 C 0.4788(3) 0.8035(2) 0.52369(18)
Cd2 Cd 0.68885(1) 0.22775(1) 0.17872
O6 O 0.18465(17) 0.82266(16) 0.38600(12)
O7 O 0.1553(2) 0.68063(16) 0.38302(12)
N3 N 0.3885(2) 0.85744(14) 0.28364(13)
Cd3 Cd 0.81115(1) 0.77225(1) 0.67872
H1 H 0.203015 0.66206 0.204922
H2 H 0.132422 0.746094 0.229994
H3 H 0.606657 0.572851 0.181884
H4 H 0.518959 0.294766 0.291775
H5 H 0.476342 0.86166 0.555416
H6 H 0.695249 0.436277 0.147003
H7 H 0.421211 0.427636 0.32935
H8 H 0.600103 0.607224 0.51023
H9 H 0.354713 0.850782 0.456941
H10 H 0.477856 0.6034 0.410602
O3_2 O 0.81535(17) 0.32266(16) 0.11400(12)
O4_2 O 0.8447(2) 0.18063(16) 0.11698(12)
C7_2 C 0.8650(2) 0.2556(2) 0.09493(15)
C8_2 C 0.9499(3) 0.26403(18) 0.03941(16)
H8_2 H 0.899897 0.392776 0.0102302
N1_2 N 0.8885(2) 0.64256(14) 0.71636(13)
C2_2 C 0.9937(2) 0.49003(16) 0.75773(15)
C3_2 C 0.9154(3) 0.48827(17) 0.70663(16)
C4_2 C 0.8658(3) 0.56552(19) 0.68764(16)
C5_2 C 0.9629(3) 0.64345(18) 0.76683(16)
C9_2 C 0.9523(3) 0.3369(2) 0.99865(18)
H3_2 H 0.893343 0.427149 0.681884
H4_2 H 0.981041 0.705234 0.791775
H6_2 H 0.804751 0.563723 0.647003
C2_3 C 0.0063(2) 0.99003(16) 0.74227(15)
C3_3 C 0.0846(3) 0.98827(17) 0.79337(16)
C7_3 C 0.1350(2) 0.7556(2) 0.40507(15)
C8_3 C 0.0501(3) 0.76403(18) 0.46059(16)
C9_3 C 0.0477(3) 0.8369(2) 0.50135(18)
H3_3 H 0.106657 0.927149 0.818116
H8_3 H 0.100103 0.892776 0.48977
O1_2 O 0.9891(2) 0.83596(13) 0.73066(14)
O2_2 O 0.85242(19) 0.91786(14) 0.69421(13)
O5_2 O 0.7080(3) 0.77674(19) 0.77879(15)
N2_2 N 0.9110(2) 0.77242(16) 0.57367(15)
C1_2 C 0.9450(2) 0.90857(17) 0.72136(15)
C10_2 C 0.9780(3) 0.8387(2) 0.55735(19)
C11_2 C 0.9110(3) 0.7029(2) 0.53207(19)
C12_2 C 0.9788(3) 0.6965(2) 0.47631(18)
H1_2 H 0.703015 0.83794 0.795078
H2_2 H 0.632422 0.753906 0.770006
H5_2 H 0.976342 0.63834 0.444584
H9_2 H 0.854713 0.649218 0.543059
H10_2 H 0.977856 0.8966 0.589398
O1_3 O 0.5109(2) 0.16404(13) 0.23066(14)
O2_3 O 0.64758(19) 0.08214(14) 0.19421(13)
O5_3 O 0.7920(3) 0.22326(19) 0.27879(15)
N2_3 N 0.5890(2) 0.22758(16) 0.07367(15)
C1_3 C 0.5550(2) 0.09143(17) 0.22136(15)
C2_4 C 0.4937(2) 0.00997(16) 0.24227(15)
C3_4 C 0.4154(3) 0.01173(17) 0.29337(16)
C9_4 C 0.4523(3) 0.1631(2) 0.00135(18)
C10_3 C 0.5220(3) 0.1613(2) 0.05735(19)
C11_3 C 0.5890(3) 0.2971(2) 0.03207(19)
H1_3 H 0.796985 0.16206 0.295078
H2_3 H 0.867578 0.246094 0.270006
H3_4 H 0.393343 0.0728511 0.318116
H9_3 H 0.645287 0.350782 0.0430593
H10_3 H 0.522144 0.1034 0.0893981
C4_3 C 0.3658(3) 0.93448(19) 0.31236(16)
C5_3 C 0.4629(3) 0.85655(18) 0.23317(16)
C6_2 C 0.5179(3) 0.93115(18) 0.21131(17)
H4_3 H 0.481041 0.794766 0.208225
H6_3 H 0.304751 0.936277 0.352997
H7_2 H 0.578789 0.927636 0.17065
C12_3 C 0.0212(3) 0.1965(2) 0.02369(18)
H5_3 H 0.0236582 0.13834 0.0554158
Cd1_2 Cd 0.18885(1) 0.27225(1) 0.82128
O1_4 O 0.0109(2) 0.33596(13) 0.76934(14)
O2_4 O 0.14758(19) 0.41786(14) 0.80579(13)
O5_4 O 0.2920(3) 0.27674(19) 0.72121(15)
N2_4 N 0.0890(2) 0.27242(16) 0.92633(15)
C1_4 C 0.0550(2) 0.40857(17) 0.77864(15)
C6_3 C 0.0179(3) 0.56885(18) 0.78869(17)
C10_4 C 0.0220(3) 0.3387(2) 0.94265(19)
C11_4 C 0.0890(3) 0.2029(2) 0.96793(19)
O6_2 O 0.31535(17) 0.17734(16) 0.88600(12)
O7_2 O 0.3447(2) 0.31937(16) 0.88302(12)
N3_2 N 0.1115(2) 0.14256(14) 0.78364(13)
H1_4 H 0.296985 0.33794 0.704922
H2_4 H 0.367578 0.253906 0.729994
H7_3 H 0.078789 0.572364 0.82935
H9_4 H 0.145287 0.149218 0.956941
H10_4 H 0.0221442 0.3966 0.910602
C4_4 C 0.1342(3) 0.06552(19) 0.81236(16)
C5_4 C 0.0371(3) 0.14345(18) 0.73317(16)
H4_4 H 0.0189587 0.205234 0.708225
H6_4 H 0.195249 0.0637232 0.852997
C7_4 C 0.3650(2) 0.2444(2) 0.90507(15)
C8_4 C 0.4499(3) 0.23597(18) 0.96059(16)
C12_4 C 0.5212(3) 0.3035(2) 0.97631(18)
H5_4 H 0.523658 0.36166 0.944584
H8_4 H 0.399897 0.107224 0.98977
C6_4 C 0.9821(3) 0.06885(18) 0.71131(17)
H7_4 H 0.921211 0.0723636 0.67065
Cd1_3 Cd 0.68885(1) 0.27225(1) 0.67872
O1_5 O 0.5109(2) 0.33596(13) 0.73066(14)
O2_5 O 0.64758(19) 0.41786(14) 0.69421(13)
O3_3 O 0.31535(17) 0.32266(16) 0.38600(12)
O4_3 O 0.3447(2) 0.18063(16) 0.38302(12)
O5_5 O 0.7920(3) 0.27674(19) 0.77879(15)
N1_3 N 0.3885(2) 0.64256(14) 0.78364(13)
N2_5 N 0.5890(2) 0.27242(16) 0.57367(15)
C1_5 C 0.5550(2) 0.40857(17) 0.72136(15)
C2_5 C 0.4937(2) 0.49003(16) 0.74227(15)
C3_5 C 0.4154(3) 0.48827(17) 0.79337(16)
C4_5 C 0.3658(3) 0.56552(19) 0.81236(16)
C5_5 C 0.4629(3) 0.64345(18) 0.73317(16)
C6_5 C 0.5179(3) 0.56885(18) 0.71131(17)
C7_5 C 0.3650(2) 0.2556(2) 0.40507(15)
C8_5 C 0.4499(3) 0.26403(18) 0.46059(16)
C9_5 C 0.4523(3) 0.3369(2) 0.50135(18)
C10_5 C 0.5220(3) 0.3387(2) 0.55735(19)
C11_5 C 0.5890(3) 0.2029(2) 0.53207(19)
C12_5 C 0.5212(3) 0.1965(2) 0.47631(18)
Cd2_2 Cd 0.31115(1) 0.77225(1) 0.82128
O6_3 O 0.81535(17) 0.17734(16) 0.61400(12)
O7_3 O 0.8447(2) 0.31937(16) 0.61698(12)
N3_3 N 0.6115(2) 0.14256(14) 0.71636(13)
Cd3_2 Cd 0.18885(1) 0.22775(1) 0.32128
H1_5 H 0.796985 0.33794 0.795078
H2_5 H 0.867578 0.253906 0.770006
H3_5 H 0.393343 0.427149 0.818116
H4_5 H 0.481041 0.705234 0.708225
H5_5 H 0.523658 0.13834 0.444584
H6_5 H 0.304751 0.563723 0.852997
H7_5 H 0.578789 0.572364 0.67065
H8_5 H 0.399897 0.392776 0.48977
H9_5 H 0.645287 0.149218 0.543059
H10_5 H 0.522144 0.3966 0.589398
N1_4 N 0.1115(2) 0.35744(14) 0.28364(13)
C2_6 C 0.0063(2) 0.50997(16) 0.24227(15)
C3_6 C 0.0846(3) 0.51173(17) 0.29337(16)
C4_6 C 0.1342(3) 0.43448(19) 0.31236(16)
C5_6 C 0.0371(3) 0.35655(18) 0.23317(16)
C9_6 C 0.0477(3) 0.6631(2) 0.00135(18)
H3_6 H 0.106657 0.572851 0.318116
H4_6 H 0.0189587 0.294766 0.208225
H6_6 H 0.195249 0.436277 0.352997
O3_4 O 0.18465(17) 0.67734(16) 0.88600(12)
O4_4 O 0.1553(2) 0.81937(16) 0.88302(12)
C7_6 C 0.1350(2) 0.7444(2) 0.90507(15)
C8_6 C 0.0501(3) 0.73597(18) 0.96059(16)
H8_6 H 0.100103 0.607224 0.98977
O1_6 O 0.0109(2) 0.16404(13) 0.26934(14)
O2_6 O 0.14758(19) 0.08214(14) 0.30579(13)
O5_6 O 0.2920(3) 0.22326(19) 0.22121(15)
N2_6 N 0.0890(2) 0.22758(16) 0.42633(15)
C1_6 C 0.0550(2) 0.09143(17) 0.27864(15)
C10_6 C 0.0220(3) 0.1613(2) 0.44265(19)
C11_6 C 0.0890(3) 0.2971(2) 0.46793(19)
C12_6 C 0.0212(3) 0.3035(2) 0.52369(18)
H1_6 H 0.296985 0.16206 0.204922
H2_6 H 0.367578 0.246094 0.229994
H5_6 H 0.0236582 0.36166 0.555416
H9_6 H 0.145287 0.350782 0.456941
H10_6 H 0.0221442 0.1034 0.410602
C2_7 C 0.9937(2) 0.00997(16) 0.25773(15)
C3_7 C 0.9154(3) 0.01173(17) 0.20663(16)
C7_7 C 0.8650(2) 0.2444(2) 0.59493(15)
C8_7 C 0.9499(3) 0.23597(18) 0.53941(16)
C9_7 C 0.9523(3) 0.1631(2) 0.49865(18)
H3_7 H 0.893343 0.0728511 0.181884
H8_7 H 0.899897 0.107224 0.51023
C4_7 C 0.6342(3) 0.06552(19) 0.68764(16)
C5_7 C 0.5371(3) 0.14345(18) 0.76683(16)
C6_6 C 0.4821(3) 0.06885(18) 0.78869(17)
H4_7 H 0.518959 0.205234 0.791775
H6_7 H 0.695249 0.0637232 0.647003
H7_6 H 0.421211 0.0723636 0.82935
O1_7 O 0.4891(2) 0.83596(13) 0.76934(14)
O2_7 O 0.35242(19) 0.91786(14) 0.80579(13)
O5_7 O 0.2080(3) 0.77674(19) 0.72121(15)
N2_7 N 0.4110(2) 0.77242(16) 0.92633(15)
C1_7 C 0.4450(2) 0.90857(17) 0.77864(15)
C2_8 C 0.5063(2) 0.99003(16) 0.75773(15)
C3_8 C 0.5846(3) 0.98827(17) 0.70663(16)
C9_8 C 0.5477(3) 0.8369(2) 0.99865(18)
C10_7 C 0.4780(3) 0.8387(2) 0.94265(19)
C11_7 C 0.4110(3) 0.7029(2) 0.96793(19)
H1_7 H 0.203015 0.83794 0.704922
H2_7 H 0.132422 0.753906 0.729994
H3_8 H 0.606657 0.927149 0.681884
H9_7 H 0.354713 0.649218 0.956941
H10_7 H 0.477856 0.8966 0.910602
Cd1_4 Cd 0.81115(1) 0.72775(1) 0.17872
O1_8 O 0.9891(2) 0.66404(13) 0.23066(14)
O2_8 O 0.85242(19) 0.58214(14) 0.19421(13)
O5_8 O 0.7080(3) 0.72326(19) 0.27879(15)
N2_8 N 0.9110(2) 0.72758(16) 0.07367(15)
C1_8 C 0.9450(2) 0.59143(17) 0.22136(15)
C6_7 C 0.9821(3) 0.43115(18) 0.21131(17)
C10_8 C 0.9780(3) 0.6613(2) 0.05735(19)
C11_8 C 0.9110(3) 0.7971(2) 0.03207(19)
O6_4 O 0.68465(17) 0.82266(16) 0.11400(12)
O7_4 O 0.6553(2) 0.68063(16) 0.11698(12)
N3_4 N 0.8885(2) 0.85744(14) 0.21636(13)
H1_8 H 0.703015 0.66206 0.295078
H2_8 H 0.632422 0.746094 0.270006
H7_7 H 0.921211 0.427636 0.17065
H9_8 H 0.854713 0.850782 0.0430593
H10_8 H 0.977856 0.6034 0.0893981
C4_8 C 0.8658(3) 0.93448(19) 0.18764(16)
C5_8 C 0.9629(3) 0.85655(18) 0.26683(16)
H4_8 H 0.981041 0.794766 0.291775
H6_8 H 0.804751 0.936277 0.147003
C7_8 C 0.6350(2) 0.7556(2) 0.09493(15)
C8_8 C 0.5501(3) 0.76403(18) 0.03941(16)
C12_7 C 0.4788(3) 0.6965(2) 0.02369(18)
H5_7 H 0.476342 0.63834 0.0554158
H8_8 H 0.600103 0.892776 0.0102302
C12_8 C 0.9788(3) 0.8035(2) 0.97631(18)
H5_8 H 0.976342 0.86166 0.944584
C6_8 C 0.0179(3) 0.93115(18) 0.28869(17)
H7_8 H 0.078789 0.927636 0.32935
loop_
_geom_bond_atom_site_label_1
_geom_bond_atom_site_label_2
_geom_bond_site_symmetry_1
_geom_bond_site_symmetry_2
Cd1 O1 1_555 1_555
O1 C1 1_555 1_555
O2 Cd1 1_555 1_555
O3 C7 1_555 1_555
O4 C7 1_555 1_555
O5 Cd1 1_555 1_555
N1 C4 1_555 1_555
N2 Cd1 1_555 1_555
C1 O2 1_555 1_555
C2 C1 1_555 1_555
C3 C2 1_555 1_555
C4 C3 1_555 1_555
C5 N1 1_555 1_555
C6 C2 1_555 1_555
C7 C8 1_555 1_555
C8 C9 1_555 1_555
C9 C10 1_555 1_555
C10 N2 1_555 1_555
C11 N2 1_555 1_555
C12 C8 1_555 1_555
Cd2 N1 1_555 1_555
O6 Cd1 1_555 1_555
O7 Cd1 1_555 1_555
N3 Cd1 1_555 1_555
Cd3 O3 1_555 1_555
O4 Cd3 1_555 1_555
C5 C6 1_555 1_555
C11 C12 1_555 1_555
O5 H1 1_555 1_555
O5 H2 1_555 1_555
C3 H3 1_555 1_555
C5 H4 1_555 1_555
C12 H5 1_555 1_555
C4 H6 1_555 1_555
C6 H7 1_555 1_555
C9 H8 1_555 1_555
C11 H9 1_555 1_555
C10 H10 1_555 1_555
O3_2 C7_2 1_555 1_555
O4_2 C7_2 1_555 1_555
C7_2 C8_2 1_555 1_555
Cd2 O3_2 1_555 1_555
O4_2 Cd2 1_555 1_555
N1_2 C4_2 1_555 1_555
C3_2 C2_2 1_555 1_555
C4_2 C3_2 1_555 1_555
C5_2 N1_2 1_555 1_555
Cd3 N1_2 1_555 1_555
C3_2 H3_2 1_555 1_555
C5_2 H4_2 1_555 1_555
C4_2 H6_2 1_555 1_555
O6 C7_3 1_555 1_555
O7 C7_3 1_555 1_555
C3_3 C2_3 1_555 1_555
C7_3 C8_3 1_555 1_555
C8_3 C9_3 1_555 1_555
C3_3 H3_3 1_555 1_555
C9_3 H8_3 1_555 1_555
Cd3 O1_2 1_555 1_555
O1_2 C1_2 1_555 1_555
O2_2 Cd3 1_555 1_555
O5_2 Cd3 1_555 1_555
N2_2 Cd3 1_555 1_555
C1_2 O2_2 1_555 1_555
C10_2 N2_2 1_555 1_555
C11_2 N2_2 1_555 1_555
C11_2 C12_2 1_555 1_555
O5_2 H1_2 1_555 1_555
O5_2 H2_2 1_555 1_555
C12_2 H5_2 1_555 1_555
C11_2 H9_2 1_555 1_555
C10_2 H10_2 1_555 1_555
Cd2 O1_3 1_555 1_555
O1_3 C1_3 1_555 1_555
O2_3 Cd2 1_555 1_555
O5_3 Cd2 1_555 1_555
N2_3 Cd2 1_555 1_555
C1_3 O2_3 1_555 1_555
C2_4 C1_3 1_555 1_555
C3_4 C2_4 1_555 1_555
C9_4 C10_3 1_555 1_555
C10_3 N2_3 1_555 1_555
C11_3 N2_3 1_555 1_555
O5_3 H1_3 1_555 1_555
O5_3 H2_3 1_555 1_555
C3_4 H3_4 1_555 1_555
C11_3 H9_3 1_555 1_555
C10_3 H10_3 1_555 1_555
N3 C4_3 1_555 1_555
C5_3 N3 1_555 1_555
C5_3 C6_2 1_555 1_555
C5_3 H4_3 1_555 1_555
C4_3 H6_3 1_555 1_555
C6_2 H7_2 1_555 1_555
C12_3 H5_3 1_555 1_555
Cd1_2 O1_4 1_555 1_555
O1_4 C1_4 1_555 1_555
O2_4 Cd1_2 1_555 1_555
O5_4 Cd1_2 1_555 1_555
N2_4 Cd1_2 1_555 1_555
C1_4 O2_4 1_555 1_555
C10_4 N2_4 1_555 1_555
C11_4 N2_4 1_555 1_555
O6_2 Cd1_2 1_555 1_555
O7_2 Cd1_2 1_555 1_555
N3_2 Cd1_2 1_555 1_555
O5_4 H1_4 1_555 1_555
O5_4 H2_4 1_555 1_555
C6_3 H7_3 1_555 1_555
C11_4 H9_4 1_555 1_555
C10_4 H10_4 1_555 1_555
N3_2 C4_4 1_555 1_555
C5_4 N3_2 1_555 1_555
C5_4 H4_4 1_555 1_555
C4_4 H6_4 1_555 1_555
O6_2 C7_4 1_555 1_555
O7_2 C7_4 1_555 1_555
C7_4 C8_4 1_555 1_555
C12_4 C8_4 1_555 1_555
C12_4 H5_4 1_555 1_555
C6_4 H7_4 1_555 1_555
Cd1_3 O1_5 1_555 1_555
O1_5 C1_5 1_555 1_555
O2_5 Cd1_3 1_555 1_555
O3_3 C7_5 1_555 1_555
O4_3 C7_5 1_555 1_555
O5_5 Cd1_3 1_555 1_555
N1_3 C4_5 1_555 1_555
N2_5 Cd1_3 1_555 1_555
C1_5 O2_5 1_555 1_555
C2_5 C1_5 1_555 1_555
C3_5 C2_5 1_555 1_555
C4_5 C3_5 1_555 1_555
C5_5 N1_3 1_555 1_555
C6_5 C2_5 1_555 1_555
C7_5 C8_5 1_555 1_555
C8_5 C9_5 1_555 1_555
C9_5 C10_5 1_555 1_555
C10_5 N2_5 1_555 1_555
C11_5 N2_5 1_555 1_555
C12_5 C8_5 1_555 1_555
Cd2_2 N1_3 1_555 1_555
O6_3 Cd1_3 1_555 1_555
O7_3 Cd1_3 1_555 1_555
N3_3 Cd1_3 1_555 1_555
Cd3_2 O3_3 1_555 1_555
O4_3 Cd3_2 1_555 1_555
C5_5 C6_5 1_555 1_555
C11_5 C12_5 1_555 1_555
O5_5 H1_5 1_555 1_555
O5_5 H2_5 1_555 1_555
C3_5 H3_5 1_555 1_555
C5_5 H4_5 1_555 1_555
C12_5 H5_5 1_555 1_555
C4_5 H6_5 1_555 1_555
C6_5 H7_5 1_555 1_555
C9_5 H8_5 1_555 1_555
C11_5 H9_5 1_555 1_555
C10_5 H10_5 1_555 1_555
N1_4 C4_6 1_555 1_555
C3_6 C2_6 1_555 1_555
C4_6 C3_6 1_555 1_555
C5_6 N1_4 1_555 1_555
Cd3_2 N1_4 1_555 1_555
C3_6 H3_6 1_555 1_555
C5_6 H4_6 1_555 1_555
C4_6 H6_6 1_555 1_555
O3_4 C7_6 1_555 1_555
O4_4 C7_6 1_555 1_555
C7_6 C8_6 1_555 1_555
Cd2_2 O3_4 1_555 1_555
O4_4 Cd2_2 1_555 1_555
Cd3_2 O1_6 1_555 1_555
O1_6 C1_6 1_555 1_555
O2_6 Cd3_2 1_555 1_555
O5_6 Cd3_2 1_555 1_555
N2_6 Cd3_2 1_555 1_555
C1_6 O2_6 1_555 1_555
C10_6 N2_6 1_555 1_555
C11_6 N2_6 1_555 1_555
C11_6 C12_6 1_555 1_555
O5_6 H1_6 1_555 1_555
O5_6 H2_6 1_555 1_555
C12_6 H5_6 1_555 1_555
C11_6 H9_6 1_555 1_555
C10_6 H10_6 1_555 1_555
O6_3 C7_7 1_555 1_555
O7_3 C7_7 1_555 1_555
C3_7 C2_7 1_555 1_555
C7_7 C8_7 1_555 1_555
C8_7 C9_7 1_555 1_555
C3_7 H3_7 1_555 1_555
C9_7 H8_7 1_555 1_555
N3_3 C4_7 1_555 1_555
C5_7 N3_3 1_555 1_555
C5_7 C6_6 1_555 1_555
C5_7 H4_7 1_555 1_555
C4_7 H6_7 1_555 1_555
C6_6 H7_6 1_555 1_555
Cd2_2 O1_7 1_555 1_555
O1_7 C1_7 1_555 1_555
O2_7 Cd2_2 1_555 1_555
O5_7 Cd2_2 1_555 1_555
N2_7 Cd2_2 1_555 1_555
C1_7 O2_7 1_555 1_555
C2_8 C1_7 1_555 1_555
C3_8 C2_8 1_555 1_555
C9_8 C10_7 1_555 1_555
C10_7 N2_7 1_555 1_555
C11_7 N2_7 1_555 1_555
O5_7 H1_7 1_555 1_555
O5_7 H2_7 1_555 1_555
C3_8 H3_8 1_555 1_555
C11_7 H9_7 1_555 1_555
C10_7 H10_7 1_555 1_555
Cd1_4 O1_8 1_555 1_555
O1_8 C1_8 1_555 1_555
O2_8 Cd1_4 1_555 1_555
O5_8 Cd1_4 1_555 1_555
N2_8 Cd1_4 1_555 1_555
C1_8 O2_8 1_555 1_555
C10_8 N2_8 1_555 1_555
C11_8 N2_8 1_555 1_555
O6_4 Cd1_4 1_555 1_555
O7_4 Cd1_4 1_555 1_555
N3_4 Cd1_4 1_555 1_555
O5_8 H1_8 1_555 1_555
O5_8 H2_8 1_555 1_555
C6_7 H7_7 1_555 1_555
C11_8 H9_8 1_555 1_555
C10_8 H10_8 1_555 1_555
N3_4 C4_8 1_555 1_555
C5_8 N3_4 1_555 1_555
C5_8 H4_8 1_555 1_555
C4_8 H6_8 1_555 1_555
O6_4 C7_8 1_555 1_555
O7_4 C7_8 1_555 1_555
C7_8 C8_8 1_555 1_555
C12_7 C8_8 1_555 1_555
C12_7 H5_7 1_555 1_555
C12_8 H5_8 1_555 1_555
C6_8 H7_8 1_555 1_555

#END
