
###############################################################################
#
# This file contains modified crystal structure data generated from the
# MOF subset of the Cambridge Structural Database (CSD) v543 
# hosted by the Cambridge Crystallographic Data Centre (CCDC).
#
# This work is licensed under the Creative Commons
# Attribution-NonCommercial-ShareAlike 4.0 International License.
# To view a copy of this license, visit
# http://creativecommons.org/licenses/by-nc-sa/4.0/
# or send a letter to
# Creative Commons, PO Box 1866, Mountain View, CA 94042, USA.
#
# CIF created using the CSD Python API on 29 September 2022
# The structure has been converted into the P1 space group
# The structure has a 3D framework
# The original CSD entry KEJKES is in the monoclinic crystal system
# The framework has been calculated to contain at least 10.0% void space
# The void calculation uses a probe of radius 1.32A, grid spacing 0.4
#
###############################################################################

data_KEJKES
_chemical_formula_moiety         '(C128 H80 Br6 Cu8 N24 O22)n'
_symmetry_cell_setting           triclinic
_symmetry_space_group_name_H-M   'P 1'
_symmetry_Int_Tables_number      1
_space_group_name_Hall           'P 1'
loop_
_symmetry_equiv_pos_site_id
_symmetry_equiv_pos_as_xyz
1 x,y,z
_cell_length_a                   22.6373(15)
_cell_length_b                   16.3743(12)
_cell_length_c                   11.5237(7)
_cell_angle_alpha                90
_cell_angle_beta                 116.401(2)
_cell_angle_gamma                90
_cell_volume                     3825.99
loop_
_atom_site_label
_atom_site_type_symbol
_atom_site_fract_x
_atom_site_fract_y
_atom_site_fract_z
O4 O 0.59002(18) 0.1620(2) 0.1492(3)
N4 N 0.8432(2) 0.5571(3) 0.1260(4)
C19 C 0.6255(3) 0.2246(4) 0.1810(5)
C22 C 0.7036(3) 0.3607(3) 0.0239(5)
C23 C 0.7504(3) 0.4313(4) 0.0575(5)
O5 O 0.6485(3) 0.2560(3) 0.2886(4)
C24 C 0.6429(3) 0.2620(3) 0.0794(5)
C26 C 0.6835(3) 0.3297(4) 0.1120(5)
H14 H 0.6973 0.3542 0.1927
C30 C 0.7623(4) 0.4826(5) 0.1587(8)
H18 H 0.7387 0.4764 0.2067
C31 C 0.8322(3) 0.5061(4) 0.0274(6)
C32 C 0.8087(4) 0.5432(5) 0.1903(7)
H20 H 0.8161 0.5763 0.2611
Cu4 Cu 0.57912(3) 0.13471(4) 0.31167(5)
Cu5 Cu 0.92088(3) 0.63471(4) 0.18833(5)
Cu1 Cu 0.42088(3) 0.13471(4) 0.18833(5)
Br1 Br 0.5000 0.00497(6) 0.2500
O1 O 0.5000 0.2000(3) 0.2500
N2 N 0.3986(2) 0.1661(3) 0.0001(4)
C17 C 0.6457(3) 0.2629(3) 0.8737(5)
N5 N 0.6014(2) 0.1661(3) 0.4999(4)
N6 N 0.6862(2) 0.3276(3) 0.9082(4)
C18 C 0.6225(3) 0.2281(4) 0.9578(5)
H11 H 0.5943 0.1834 0.9320
C20 C 0.6290(3) 0.2289(3) 0.7439(5)
C21 C 0.5664(3) 0.1437(4) 0.5613(5)
H12 H 0.5314 0.1077 0.5202
C25 C 0.5795(3) 0.1717(4) 0.6838(5)
H13 H 0.5553 0.1522 0.7254
C27 C 0.6652(3) 0.2512(4) 0.6787(5)
H15 H 0.6996 0.2883 0.7163
C28 C 0.6507(3) 0.2190(4) 0.5596(5)
H16 H 0.6762 0.2345 0.5185
C29 C 0.7870(3) 0.4440(4) 0.9911(6)
H17 H 0.7813 0.4105 0.9217
H19 H 0.8565 0.5134 0.9811
O6 O 0.40998(18) 0.1620(2) 0.3508(3)
N7 N 0.6568(2) 0.0571(3) 0.3740(4)
N8 N 0.3432(2) 0.0571(3) 0.1260(4)
O8 O 0.3515(3) 0.2560(3) 0.2114(4)
N1 N 0.1568(2) 0.5571(3) 0.3740(4)
C1 C 0.3543(3) 0.2629(3) 0.6263(5)
N3 N 0.3138(2) 0.3276(3) 0.5918(4)
C2 C 0.3775(3) 0.2281(4) 0.5422(5)
H1 H 0.4057 0.1834 0.5680
C3 C 0.3745(3) 0.2246(4) 0.3190(5)
C4 C 0.3710(3) 0.2289(3) 0.7561(5)
C5 C 0.4336(3) 0.1437(4) 0.9387(5)
H2 H 0.4686 0.1077 0.9798
C6 C 0.2964(3) 0.3607(3) 0.4761(5)
C7 C 0.2496(3) 0.4313(4) 0.4425(5)
C8 C 0.3571(3) 0.2620(3) 0.4206(5)
C9 C 0.4205(3) 0.1717(4) 0.8162(5)
H3 H 0.4447 0.1522 0.7746
C10 C 0.3165(3) 0.3297(4) 0.3880(5)
H4 H 0.3027 0.3542 0.3073
C11 C 0.3348(3) 0.2512(4) 0.8213(5)
H5 H 0.3004 0.2883 0.7837
C12 C 0.3493(3) 0.2190(4) 0.9404(5)
H6 H 0.3238 0.2345 0.9815
C13 C 0.2130(3) 0.4440(4) 0.5089(6)
H7 H 0.2187 0.4105 0.5783
C14 C 0.2377(4) 0.4826(5) 0.3413(8)
H8 H 0.2613 0.4764 0.2933
C15 C 0.1678(3) 0.5061(4) 0.4726(6)
H9 H 0.1435 0.5134 0.5189
C16 C 0.1913(4) 0.5432(5) 0.3097(7)
H10 H 0.1839 0.5763 0.2389
Cu6 Cu 0.07912(3) 0.63471(4) 0.31167(5)
C31_2 C 0.3322(3) 0.0061(4) 0.0274(6)
C32_2 C 0.3087(4) 0.0432(5) 0.1903(7)
H20_2 H 0.3161 0.0763 0.2611
O4_2 O 0.09002(18) 0.6620(2) 0.1492(3)
C19_2 C 0.1255(3) 0.7246(4) 0.1810(5)
C22_2 C 0.2036(3) 0.8607(3) 0.0239(5)
C23_2 C 0.2504(3) 0.9313(4) 0.0575(5)
O5_2 O 0.1485(3) 0.7560(3) 0.2886(4)
C24_2 C 0.1429(3) 0.7620(3) 0.0794(5)
C26_2 C 0.1835(3) 0.8297(4) 0.1120(5)
H14_2 H 0.1973 0.8542 0.1927
C30_2 C 0.2623(4) 0.9826(5) 0.1587(8)
H18_2 H 0.2387 0.9764 0.2067
Br1_2 Br -0.0000 0.50497(6) 0.2500
O1_2 O -0.0000 0.7000(3) 0.2500
C17_2 C 0.1457(3) 0.7629(3) 0.8737(5)
N5_2 N 0.1014(2) 0.6661(3) 0.4999(4)
N6_2 N 0.1862(2) 0.8276(3) 0.9082(4)
C18_2 C 0.1225(3) 0.7281(4) 0.9578(5)
H11_2 H 0.0943 0.6834 0.9320
C20_2 C 0.1290(3) 0.7289(3) 0.7439(5)
C21_2 C 0.0664(3) 0.6437(4) 0.5613(5)
H12_2 H 0.0314 0.6077 0.5202
C25_2 C 0.0795(3) 0.6717(4) 0.6838(5)
H13_2 H 0.0553 0.6522 0.7254
C27_2 C 0.1652(3) 0.7512(4) 0.6787(5)
H15_2 H 0.1996 0.7883 0.7163
C28_2 C 0.1507(3) 0.7190(4) 0.5596(5)
H16_2 H 0.1762 0.7345 0.5185
C29_2 C 0.2870(3) 0.9440(4) 0.9911(6)
H17_2 H 0.2813 0.9105 0.9217
C15_2 C 0.6678(3) 0.0061(4) 0.4726(6)
H9_2 H 0.6435 0.0134 0.5189
C16_2 C 0.6913(4) 0.0432(5) 0.3097(7)
H10_2 H 0.6839 0.0763 0.2389
Br1_3 Br 1.0000 0.50497(6) 0.2500
O1_3 O 1.0000 0.7000(3) 0.2500
N2_2 N 0.8986(2) 0.6661(3) 0.0001(4)
O6_2 O 0.90998(18) 0.6620(2) 0.3508(3)
O8_2 O 0.8515(3) 0.7560(3) 0.2114(4)
C1_2 C 0.8543(3) 0.7629(3) 0.6263(5)
N3_2 N 0.8138(2) 0.8276(3) 0.5918(4)
C2_2 C 0.8775(3) 0.7281(4) 0.5422(5)
H1_2 H 0.9057 0.6834 0.5680
C3_2 C 0.8745(3) 0.7246(4) 0.3190(5)
C4_2 C 0.8710(3) 0.7289(3) 0.7561(5)
C5_2 C 0.9336(3) 0.6437(4) 0.9387(5)
H2_2 H 0.9686 0.6077 0.9798
C6_2 C 0.7964(3) 0.8607(3) 0.4761(5)
C7_2 C 0.7496(3) 0.9313(4) 0.4425(5)
C8_2 C 0.8571(3) 0.7620(3) 0.4206(5)
C9_2 C 0.9205(3) 0.6717(4) 0.8162(5)
H3_2 H 0.9447 0.6522 0.7746
C10_2 C 0.8165(3) 0.8297(4) 0.3880(5)
H4_2 H 0.8027 0.8542 0.3073
C11_2 C 0.8348(3) 0.7512(4) 0.8213(5)
H5_2 H 0.8004 0.7883 0.7837
C12_2 C 0.8493(3) 0.7190(4) 0.9404(5)
H6_2 H 0.8238 0.7345 0.9815
C13_2 C 0.7130(3) 0.9440(4) 0.5089(6)
H7_2 H 0.7187 0.9105 0.5783
C14_2 C 0.7377(4) 0.9826(5) 0.3413(8)
H8_2 H 0.7613 0.9764 0.2933
H19_2 H 0.3565 0.0134 0.9811
O2 O 0.59002(18) 0.8380(2) 0.6492(3)
N1_2 N 0.8432(2) 0.4429(3) 0.6260(4)
C1_3 C 0.6457(3) 0.7371(3) 0.3737(5)
N3_3 N 0.6862(2) 0.6724(3) 0.4082(4)
C2_3 C 0.6225(3) 0.7719(4) 0.4578(5)
H1_3 H 0.5943 0.8166 0.4320
C3_3 C 0.6255(3) 0.7754(4) 0.6810(5)
C4_3 C 0.6290(3) 0.7711(3) 0.2439(5)
C5_3 C 0.5664(3) 0.8563(4) 0.0613(5)
H2_3 H 0.5314 0.8923 0.0202
C6_3 C 0.7036(3) 0.6393(3) 0.5239(5)
C7_3 C 0.7504(3) 0.5687(4) 0.5575(5)
O3 O 0.6485(3) 0.7440(3) 0.7886(4)
C8_3 C 0.6429(3) 0.7380(3) 0.5794(5)
C9_3 C 0.5795(3) 0.8283(4) 0.1838(5)
H3_3 H 0.5553 0.8478 0.2254
C10_3 C 0.6835(3) 0.6703(4) 0.6120(5)
H4_3 H 0.6973 0.6458 0.6927
C11_3 C 0.6652(3) 0.7488(4) 0.1787(5)
H5_3 H 0.6996 0.7117 0.2163
C12_3 C 0.6507(3) 0.7810(4) 0.0596(5)
H6_3 H 0.6762 0.7655 0.0185
C13_3 C 0.7870(3) 0.5560(4) 0.4911(6)
H7_3 H 0.7813 0.5895 0.4217
C14_3 C 0.7623(4) 0.5174(5) 0.6587(8)
H8_3 H 0.7387 0.5236 0.7067
C15_3 C 0.8322(3) 0.4939(4) 0.5274(6)
H9_3 H 0.8565 0.4866 0.4811
C16_3 C 0.8087(4) 0.4568(5) 0.6903(7)
H10_3 H 0.8161 0.4237 0.7611
Cu3 Cu 0.57912(3) 0.86529(4) 0.81167(5)
Cu6_2 Cu 0.92088(3) 0.36529(4) 0.68833(5)
Br1_4 Br 0.5000 0.99503(6) 0.7500
O1_4 O 0.5000 0.8000(3) 0.7500
N2_3 N 0.6014(2) 0.8339(3) 0.9999(4)
Cu2 Cu 0.42088(3) 0.86529(4) 0.68833(5)
C17_3 C 0.3543(3) 0.7371(3) 0.1263(5)
N5_3 N 0.3986(2) 0.8339(3) 0.5001(4)
N6_3 N 0.3138(2) 0.6724(3) 0.0918(4)
C18_3 C 0.3775(3) 0.7719(4) 0.0422(5)
H11_3 H 0.4057 0.8166 0.0680
C20_3 C 0.3710(3) 0.7711(3) 0.2561(5)
C21_3 C 0.4336(3) 0.8563(4) 0.4387(5)
H12_3 H 0.4686 0.8923 0.4798
C25_3 C 0.4205(3) 0.8283(4) 0.3162(5)
H13_3 H 0.4447 0.8478 0.2746
C27_3 C 0.3348(3) 0.7488(4) 0.3213(5)
H15_3 H 0.3004 0.7117 0.2837
C28_3 C 0.3493(3) 0.7810(4) 0.4404(5)
H16_3 H 0.3238 0.7655 0.4815
C29_3 C 0.2130(3) 0.5560(4) 0.0089(6)
H17_3 H 0.2187 0.5895 0.0783
H19_3 H 0.1435 0.4866 0.0189
O7 O 0.40998(18) 0.8380(2) 0.8508(3)
N7_2 N 0.3432(2) 0.9429(3) 0.6260(4)
N8_2 N 0.6568(2) 0.9429(3) 0.8740(4)
O9 O 0.3515(3) 0.7440(3) 0.7114(4)
N4_2 N 0.1568(2) 0.4429(3) 0.8740(4)
C19_3 C 0.3745(3) 0.7754(4) 0.8190(5)
C22_3 C 0.2964(3) 0.6393(3) 0.9761(5)
C23_3 C 0.2496(3) 0.5687(4) 0.9425(5)
C24_3 C 0.3571(3) 0.7380(3) 0.9206(5)
C26_3 C 0.3165(3) 0.6703(4) 0.8880(5)
H14_3 H 0.3027 0.6458 0.8073
C30_3 C 0.2377(4) 0.5174(5) 0.8413(8)
H18_3 H 0.2613 0.5236 0.7933
C31_3 C 0.1678(3) 0.4939(4) 0.9726(6)
C32_3 C 0.1913(4) 0.4568(5) 0.8097(7)
H20_3 H 0.1839 0.4237 0.7389
Cu5_2 Cu 0.07912(3) 0.36529(4) 0.81167(5)
O2_2 O 0.09002(18) 0.3380(2) 0.6492(3)
C1_4 C 0.1457(3) 0.2371(3) 0.3737(5)
N3_4 N 0.1862(2) 0.1724(3) 0.4082(4)
C2_4 C 0.1225(3) 0.2719(4) 0.4578(5)
H1_4 H 0.0943 0.3166 0.4320
C3_4 C 0.1255(3) 0.2754(4) 0.6810(5)
C4_4 C 0.1290(3) 0.2711(3) 0.2439(5)
C5_4 C 0.0664(3) 0.3563(4) 0.0613(5)
H2_4 H 0.0314 0.3923 0.0202
C6_4 C 0.2036(3) 0.1393(3) 0.5239(5)
C7_4 C 0.2504(3) 0.0687(4) 0.5575(5)
O3_2 O 0.1485(3) 0.2440(3) 0.7886(4)
C8_4 C 0.1429(3) 0.2380(3) 0.5794(5)
C9_4 C 0.0795(3) 0.3283(4) 0.1838(5)
H3_4 H 0.0553 0.3478 0.2254
C10_4 C 0.1835(3) 0.1703(4) 0.6120(5)
H4_4 H 0.1973 0.1458 0.6927
C11_4 C 0.1652(3) 0.2488(4) 0.1787(5)
H5_4 H 0.1996 0.2117 0.2163
C12_4 C 0.1507(3) 0.2810(4) 0.0596(5)
H6_4 H 0.1762 0.2655 0.0185
C13_4 C 0.2870(3) 0.0560(4) 0.4911(6)
H7_4 H 0.2813 0.0895 0.4217
C14_4 C 0.2623(4) 0.0174(5) 0.6587(8)
H8_4 H 0.2387 0.0236 0.7067
Br1_5 Br -0.0000 0.49503(6) 0.7500
O1_5 O 0.0000 0.3000(3) 0.7500
N2_4 N 0.1014(2) 0.3339(3) 0.9999(4)
C15_4 C 0.3322(3) 0.9939(4) 0.5274(6)
H9_4 H 0.3565 0.9866 0.4811
C16_4 C 0.3087(4) 0.9568(5) 0.6903(7)
H10_4 H 0.3161 0.9237 0.7611
Br1_6 Br 1.0000 0.49503(6) 0.7500
O1_6 O 1.0000 0.3000(3) 0.7500
C17_4 C 0.8543(3) 0.2371(3) 0.1263(5)
N5_4 N 0.8986(2) 0.3339(3) 0.5001(4)
N6_4 N 0.8138(2) 0.1724(3) 0.0918(4)
C18_4 C 0.8775(3) 0.2719(4) 0.0422(5)
H11_4 H 0.9057 0.3166 0.0680
C20_4 C 0.8710(3) 0.2711(3) 0.2561(5)
C21_4 C 0.9336(3) 0.3563(4) 0.4387(5)
H12_4 H 0.9686 0.3923 0.4798
C25_4 C 0.9205(3) 0.3283(4) 0.3162(5)
H13_4 H 0.9447 0.3478 0.2746
C27_4 C 0.8348(3) 0.2488(4) 0.3213(5)
H15_4 H 0.8004 0.2117 0.2837
C28_4 C 0.8493(3) 0.2810(4) 0.4404(5)
H16_4 H 0.8238 0.2655 0.4815
C29_4 C 0.7130(3) 0.0560(4) 0.0089(6)
H17_4 H 0.7187 0.0895 0.0783
O7_2 O 0.90998(18) 0.3380(2) 0.8508(3)
O9_2 O 0.8515(3) 0.2440(3) 0.7114(4)
C19_4 C 0.8745(3) 0.2754(4) 0.8190(5)
C22_4 C 0.7964(3) 0.1393(3) 0.9761(5)
C23_4 C 0.7496(3) 0.0687(4) 0.9425(5)
C24_4 C 0.8571(3) 0.2380(3) 0.9206(5)
C26_4 C 0.8165(3) 0.1703(4) 0.8880(5)
H14_4 H 0.8027 0.1458 0.8073
C30_4 C 0.7377(4) 0.0174(5) 0.8413(8)
H18_4 H 0.7613 0.0236 0.7933
C31_4 C 0.6678(3) 0.9939(4) 0.9726(6)
C32_4 C 0.6913(4) 0.9568(5) 0.8097(7)
H20_4 H 0.6839 0.9237 0.7389
H19_4 H 0.6435 0.9866 0.0189
loop_
_geom_bond_atom_site_label_1
_geom_bond_atom_site_label_2
_geom_bond_site_symmetry_1
_geom_bond_site_symmetry_2
O4 C19 1_555 1_555
N4 C31 1_555 1_555
C19 O5 1_555 1_555
C22 C23 1_555 1_555
O5 Cu4 1_555 1_555
C26 C22 1_555 1_555
H14 C26 1_555 1_555
C30 C23 1_555 1_555
H18 C30 1_555 1_555
C32 N4 1_555 1_555
H20 C32 1_555 1_555
Cu4 O4 1_555 1_555
Cu5 N4 1_555 1_555
C19 C24 1_555 1_555
C24 C26 1_555 1_555
C30 C32 1_555 1_555
Cu1 Br1 1_555 1_555
Br1 Cu4 1_555 1_555
O1 Cu1 1_555 1_555
N2 Cu1 1_555 1_555
Cu4 O1 1_555 1_555
C17 N6 1_555 1_555
N5 Cu4 1_555 1_555
C18 C17 1_555 1_555
H11 C18 1_555 1_555
C20 C17 1_555 1_555
C21 N5 1_555 1_555
H12 C21 1_555 1_555
C25 C20 1_555 1_555
H13 C25 1_555 1_555
C27 C20 1_555 1_555
H15 C27 1_555 1_555
C28 N5 1_555 1_555
H16 C28 1_555 1_555
C29 H17 1_555 1_555
O6 Cu1 1_555 1_555
N7 Cu4 1_555 1_555
N8 Cu1 1_555 1_555
O8 Cu1 1_555 1_555
C21 C25 1_555 1_555
C27 C28 1_555 1_555
O6 C3 1_555 1_555
N1 C15 1_555 1_555
C1 N3 1_555 1_555
N3 C6 1_555 1_555
C2 C1 1_555 1_555
H1 C2 1_555 1_555
C3 O8 1_555 1_555
C4 C1 1_555 1_555
H2 C5 1_555 1_555
C6 C7 1_555 1_555
C7 C13 1_555 1_555
C8 C2 1_555 1_555
C9 C4 1_555 1_555
H3 C9 1_555 1_555
C10 C6 1_555 1_555
H4 C10 1_555 1_555
C11 C4 1_555 1_555
H5 C11 1_555 1_555
H6 C12 1_555 1_555
C13 H7 1_555 1_555
C14 C7 1_555 1_555
H8 C14 1_555 1_555
C15 C13 1_555 1_555
H9 C15 1_555 1_555
C16 N1 1_555 1_555
H10 C16 1_555 1_555
Cu6 N1 1_555 1_555
C3 C8 1_555 1_555
C5 C9 1_555 1_555
C8 C10 1_555 1_555
C11 C12 1_555 1_555
C14 C16 1_555 1_555
N8 C31_2 1_555 1_555
C32_2 N8 1_555 1_555
H20_2 C32_2 1_555 1_555
O4_2 C19_2 1_555 1_555
C19_2 O5_2 1_555 1_555
C22_2 C23_2 1_555 1_555
O5_2 Cu6 1_555 1_555
C26_2 C22_2 1_555 1_555
H14_2 C26_2 1_555 1_555
C30_2 C23_2 1_555 1_555
H18_2 C30_2 1_555 1_555
Cu6 O4_2 1_555 1_555
C19_2 C24_2 1_555 1_555
C24_2 C26_2 1_555 1_555
Br1_2 Cu6 1_555 1_555
Cu6 O1_2 1_555 1_555
C17_2 N6_2 1_555 1_555
N5_2 Cu6 1_555 1_555
C18_2 C17_2 1_555 1_555
H11_2 C18_2 1_555 1_555
C20_2 C17_2 1_555 1_555
C21_2 N5_2 1_555 1_555
H12_2 C21_2 1_555 1_555
C25_2 C20_2 1_555 1_555
H13_2 C25_2 1_555 1_555
C27_2 C20_2 1_555 1_555
H15_2 C27_2 1_555 1_555
C28_2 N5_2 1_555 1_555
H16_2 C28_2 1_555 1_555
C29_2 H17_2 1_555 1_555
C21_2 C25_2 1_555 1_555
C27_2 C28_2 1_555 1_555
N7 C15_2 1_555 1_555
H9_2 C15_2 1_555 1_555
C16_2 N7 1_555 1_555
H10_2 C16_2 1_555 1_555
Cu5 Br1_3 1_555 1_555
O1_3 Cu5 1_555 1_555
N2_2 Cu5 1_555 1_555
O6_2 Cu5 1_555 1_555
O8_2 Cu5 1_555 1_555
O6_2 C3_2 1_555 1_555
C1_2 N3_2 1_555 1_555
N3_2 C6_2 1_555 1_555
C2_2 C1_2 1_555 1_555
H1_2 C2_2 1_555 1_555
C3_2 O8_2 1_555 1_555
C4_2 C1_2 1_555 1_555
H2_2 C5_2 1_555 1_555
C6_2 C7_2 1_555 1_555
C7_2 C13_2 1_555 1_555
C8_2 C2_2 1_555 1_555
C9_2 C4_2 1_555 1_555
H3_2 C9_2 1_555 1_555
C10_2 C6_2 1_555 1_555
H4_2 C10_2 1_555 1_555
C11_2 C4_2 1_555 1_555
H5_2 C11_2 1_555 1_555
H6_2 C12_2 1_555 1_555
C13_2 H7_2 1_555 1_555
C14_2 C7_2 1_555 1_555
H8_2 C14_2 1_555 1_555
C3_2 C8_2 1_555 1_555
C5_2 C9_2 1_555 1_555
C8_2 C10_2 1_555 1_555
C11_2 C12_2 1_555 1_555
O2 C3_3 1_555 1_555
N1_2 C15_3 1_555 1_555
C1_3 N3_3 1_555 1_555
N3_3 C6_3 1_555 1_555
C2_3 C1_3 1_555 1_555
H1_3 C2_3 1_555 1_555
C3_3 O3 1_555 1_555
C4_3 C1_3 1_555 1_555
H2_3 C5_3 1_555 1_555
C6_3 C7_3 1_555 1_555
C7_3 C13_3 1_555 1_555
O3 Cu3 1_555 1_555
C8_3 C2_3 1_555 1_555
C9_3 C4_3 1_555 1_555
H3_3 C9_3 1_555 1_555
C10_3 C6_3 1_555 1_555
H4_3 C10_3 1_555 1_555
C11_3 C4_3 1_555 1_555
H5_3 C11_3 1_555 1_555
H6_3 C12_3 1_555 1_555
C13_3 H7_3 1_555 1_555
C14_3 C7_3 1_555 1_555
H8_3 C14_3 1_555 1_555
C15_3 C13_3 1_555 1_555
H9_3 C15_3 1_555 1_555
C16_3 N1_2 1_555 1_555
H10_3 C16_3 1_555 1_555
Cu3 O2 1_555 1_555
Cu6_2 N1_2 1_555 1_555
C3_3 C8_3 1_555 1_555
C5_3 C9_3 1_555 1_555
C8_3 C10_3 1_555 1_555
C11_3 C12_3 1_555 1_555
C14_3 C16_3 1_555 1_555
Cu3 Br1_4 1_555 1_555
Br1_4 Cu2 1_555 1_555
O1_4 Cu3 1_555 1_555
N2_3 Cu3 1_555 1_555
Cu2 O1_4 1_555 1_555
C17_3 N6_3 1_555 1_555
N5_3 Cu2 1_555 1_555
C18_3 C17_3 1_555 1_555
H11_3 C18_3 1_555 1_555
C20_3 C17_3 1_555 1_555
C21_3 N5_3 1_555 1_555
H12_3 C21_3 1_555 1_555
C25_3 C20_3 1_555 1_555
H13_3 C25_3 1_555 1_555
C27_3 C20_3 1_555 1_555
H15_3 C27_3 1_555 1_555
C28_3 N5_3 1_555 1_555
H16_3 C28_3 1_555 1_555
C29_3 H17_3 1_555 1_555
O7 Cu2 1_555 1_555
N7_2 Cu2 1_555 1_555
N8_2 Cu3 1_555 1_555
O9 Cu2 1_555 1_555
C21_3 C25_3 1_555 1_555
C27_3 C28_3 1_555 1_555
O7 C19_3 1_555 1_555
N4_2 C31_3 1_555 1_555
C19_3 O9 1_555 1_555
C22_3 C23_3 1_555 1_555
C26_3 C22_3 1_555 1_555
H14_3 C26_3 1_555 1_555
C30_3 C23_3 1_555 1_555
H18_3 C30_3 1_555 1_555
C32_3 N4_2 1_555 1_555
H20_3 C32_3 1_555 1_555
Cu5_2 N4_2 1_555 1_555
C19_3 C24_3 1_555 1_555
C24_3 C26_3 1_555 1_555
C30_3 C32_3 1_555 1_555
O2_2 C3_4 1_555 1_555
C1_4 N3_4 1_555 1_555
N3_4 C6_4 1_555 1_555
C2_4 C1_4 1_555 1_555
H1_4 C2_4 1_555 1_555
C3_4 O3_2 1_555 1_555
C4_4 C1_4 1_555 1_555
H2_4 C5_4 1_555 1_555
C6_4 C7_4 1_555 1_555
C7_4 C13_4 1_555 1_555
O3_2 Cu5_2 1_555 1_555
C8_4 C2_4 1_555 1_555
C9_4 C4_4 1_555 1_555
H3_4 C9_4 1_555 1_555
C10_4 C6_4 1_555 1_555
H4_4 C10_4 1_555 1_555
C11_4 C4_4 1_555 1_555
H5_4 C11_4 1_555 1_555
H6_4 C12_4 1_555 1_555
C13_4 H7_4 1_555 1_555
C14_4 C7_4 1_555 1_555
H8_4 C14_4 1_555 1_555
Cu5_2 O2_2 1_555 1_555
C3_4 C8_4 1_555 1_555
C5_4 C9_4 1_555 1_555
C8_4 C10_4 1_555 1_555
C11_4 C12_4 1_555 1_555
Cu5_2 Br1_5 1_555 1_555
O1_5 Cu5_2 1_555 1_555
N2_4 Cu5_2 1_555 1_555
N7_2 C15_4 1_555 1_555
H9_4 C15_4 1_555 1_555
C16_4 N7_2 1_555 1_555
H10_4 C16_4 1_555 1_555
Br1_6 Cu6_2 1_555 1_555
Cu6_2 O1_6 1_555 1_555
C17_4 N6_4 1_555 1_555
N5_4 Cu6_2 1_555 1_555
C18_4 C17_4 1_555 1_555
H11_4 C18_4 1_555 1_555
C20_4 C17_4 1_555 1_555
C21_4 N5_4 1_555 1_555
H12_4 C21_4 1_555 1_555
C25_4 C20_4 1_555 1_555
H13_4 C25_4 1_555 1_555
C27_4 C20_4 1_555 1_555
H15_4 C27_4 1_555 1_555
C28_4 N5_4 1_555 1_555
H16_4 C28_4 1_555 1_555
C29_4 H17_4 1_555 1_555
O7_2 Cu6_2 1_555 1_555
O9_2 Cu6_2 1_555 1_555
C21_4 C25_4 1_555 1_555
C27_4 C28_4 1_555 1_555
O7_2 C19_4 1_555 1_555
C19_4 O9_2 1_555 1_555
C22_4 C23_4 1_555 1_555
C26_4 C22_4 1_555 1_555
H14_4 C26_4 1_555 1_555
C30_4 C23_4 1_555 1_555
H18_4 C30_4 1_555 1_555
C19_4 C24_4 1_555 1_555
C24_4 C26_4 1_555 1_555
N8_2 C31_4 1_555 1_555
C32_4 N8_2 1_555 1_555
H20_4 C32_4 1_555 1_555

#END
