
###############################################################################
#
# This file contains modified crystal structure data generated from the
# MOF subset of the Cambridge Structural Database (CSD) v543 
# hosted by the Cambridge Crystallographic Data Centre (CCDC).
#
# This work is licensed under the Creative Commons
# Attribution-NonCommercial-ShareAlike 4.0 International License.
# To view a copy of this license, visit
# http://creativecommons.org/licenses/by-nc-sa/4.0/
# or send a letter to
# Creative Commons, PO Box 1866, Mountain View, CA 94042, USA.
#
# CIF created using the CSD Python API on 29 September 2022
# The structure has been converted into the P1 space group
# The structure has a 3D framework
# The original CSD entry KEJKAO is in the monoclinic crystal system
# The framework has been calculated to contain at least 10.0% void space
# The void calculation uses a probe of radius 1.32A, grid spacing 0.4
#
###############################################################################

data_KEJKAO
_chemical_formula_moiety         '(C128 H80 Cl6 Cu8 N20 O22)n'
_symmetry_cell_setting           triclinic
_symmetry_space_group_name_H-M   'P 1'
_symmetry_Int_Tables_number      1
_space_group_name_Hall           'P 1'
loop_
_symmetry_equiv_pos_site_id
_symmetry_equiv_pos_as_xyz
1 x,y,z
_cell_length_a                   22.7003(12)
_cell_length_b                   16.1285(7)
_cell_length_c                   11.5653(4)
_cell_angle_alpha                90
_cell_angle_beta                 116.890(3)
_cell_angle_gamma                90
_cell_volume                     3776.48
loop_
_atom_site_label
_atom_site_type_symbol
_atom_site_fract_x
_atom_site_fract_y
_atom_site_fract_z
N1 N 0.90038(14) 0.83814(17) 0.0021(2)
Cu6 Cu 0.92252(2) 0.86711(3) 0.19027(4)
Cu1 Cu 0.57748(2) 0.36711(3) 0.30973(4)
Cl1 Cl 0.5000 0.49073(7) 0.2500
O1 O 0.91430(11) 0.84109(15) 0.3557(2)
O2 O 0.5000 0.2961(2) 0.2500
O3 O 0.85331(13) 0.74599(17) 0.2124(2)
N2 N 0.65510(14) 0.44672(18) 0.3705(3)
N3 N 0.81651(14) 0.67516(18) 0.5935(3)
C1 C 0.92290(17) 0.8339(2) 0.8193(3)
H1 H 0.9477 0.8532 0.7793
C2 C 0.86010(17) 0.7403(2) 0.4233(3)
C3 C 0.75072(17) 0.5710(2) 0.4420(3)
C4 C 0.79730(17) 0.6412(2) 0.4762(3)
C5 C 0.88098(17) 0.7739(2) 0.5454(3)
H2 H 0.9103 0.8183 0.5723
C6 C 0.93491(17) 0.8632(2) 0.9400(3)
H3 H 0.9684 0.9021 0.9801
C7 C 0.87804(16) 0.7780(2) 0.3231(3)
C8 C 0.85221(18) 0.7825(2) 0.9425(3)
H4 H 0.8276 0.7651 0.9841
C9 C 0.81803(18) 0.6728(2) 0.3880(3)
H5 H 0.8037 0.6487 0.3066
C10 C 0.85732(17) 0.7399(2) 0.6284(3)
C11 C 0.87352(17) 0.7755(2) 0.7578(3)
C12 C 0.83761(19) 0.7500(2) 0.8235(3)
H6 H 0.8040 0.7111 0.7861
C13 C 0.6649(2) 0.4991(2) 0.4667(3)
H7 H 0.6388 0.4940 0.5092
C14 C 0.7390(2) 0.5176(3) 0.3414(4)
H8 H 0.7630 0.5227 0.2946
C15 C 0.7122(2) 0.5604(2) 0.5057(3)
H9 H 0.7182 0.5947 0.5749
C16 C 0.6921(2) 0.4568(3) 0.3096(4)
H10 H 0.6858 0.4209 0.2420
Cu2 Cu 0.42252(2) 0.36711(3) 0.19027(4)
O4 O 0.08570(11) 0.84109(15) 0.1443(2)
O5 O 0.14669(13) 0.74599(17) 0.2876(2)
N5 N 0.34490(14) 0.44672(18) 0.1295(3)
C18 C 0.13990(17) 0.7403(2) 0.0767(3)
C19 C 0.24928(17) 0.5710(2) 0.0580(3)
C20 C 0.20270(17) 0.6412(2) 0.0238(3)
C23 C 0.12196(16) 0.7780(2) 0.1769(3)
C25 C 0.18197(18) 0.6728(2) 0.1120(3)
H15 H 0.1963 0.6487 0.1934
C29 C 0.3351(2) 0.4991(2) 0.0333(3)
C30 C 0.2610(2) 0.5176(3) 0.1586(4)
H18 H 0.2370 0.5227 0.2054
C32 C 0.3079(2) 0.4568(3) 0.1904(4)
H20 H 0.3142 0.4209 0.2580
Cu4 Cu 0.07748(2) 0.86711(3) 0.30973(4)
O6 O 0.41430(11) 0.34109(15) 0.3557(2)
O7 O 0.58570(11) 0.34109(15) 0.1443(2)
O8 O 0.35331(13) 0.24599(17) 0.2124(2)
O9 O 0.64669(13) 0.24599(17) 0.2876(2)
N7 N 0.40038(14) 0.33814(17) 0.0021(2)
N8 N 0.59962(14) 0.33814(17) 0.4979(2)
N4 N 0.09962(14) 0.83814(17) 0.4979(2)
N6 N 0.18349(14) 0.67516(18) 0.9065(3)
C17 C 0.07710(17) 0.8339(2) 0.6807(3)
H11 H 0.0523 0.8532 0.7207
C21 C 0.11902(17) 0.7739(2) 0.9546(3)
H12 H 0.0897 0.8183 0.9277
C22 C 0.06509(17) 0.8632(2) 0.5600(3)
H13 H 0.0316 0.9021 0.5199
C24 C 0.14779(18) 0.7825(2) 0.5575(3)
H14 H 0.1724 0.7651 0.5159
C26 C 0.14268(17) 0.7399(2) 0.8716(3)
C27 C 0.12648(17) 0.7755(2) 0.7422(3)
C28 C 0.16239(19) 0.7500(2) 0.6765(3)
H16 H 0.1960 0.7111 0.7139
H17 H 0.3612 0.4940 0.9908
C31 C 0.2878(2) 0.5604(2) 0.9943(3)
H19 H 0.2818 0.5947 0.9251
N3_2 N 0.31651(14) 0.17516(18) 0.5935(3)
C1_2 C 0.42290(17) 0.3339(2) 0.8193(3)
H1_2 H 0.4477 0.3532 0.7793
C2_2 C 0.36010(17) 0.2403(2) 0.4233(3)
C3_2 C 0.25072(17) 0.0710(2) 0.4420(3)
C4_2 C 0.29730(17) 0.1412(2) 0.4762(3)
C5_2 C 0.38098(17) 0.2739(2) 0.5454(3)
H2_2 H 0.4103 0.3183 0.5723
C6_2 C 0.43491(17) 0.3632(2) 0.9400(3)
H3_2 H 0.4684 0.4021 0.9801
C7_2 C 0.37804(16) 0.2780(2) 0.3231(3)
C8_2 C 0.35221(18) 0.2825(2) 0.9425(3)
H4_2 H 0.3276 0.2651 0.9841
C9_2 C 0.31803(18) 0.1728(2) 0.3880(3)
H5_2 H 0.3037 0.1487 0.3066
C10_2 C 0.35732(17) 0.2399(2) 0.6284(3)
C11_2 C 0.37352(17) 0.2755(2) 0.7578(3)
C12_2 C 0.33761(19) 0.2500(2) 0.8235(3)
H6_2 H 0.3040 0.2111 0.7861
C14_2 C 0.2390(2) 0.0176(3) 0.3414(4)
H8_2 H 0.2630 0.0227 0.2946
C15_2 C 0.2122(2) 0.0604(2) 0.5057(3)
H9_2 H 0.2182 0.0947 0.5749
Cl1_2 Cl 0.0000 0.99073(7) 0.2500
O2_2 O 0.0000 0.7961(2) 0.2500
N2_2 N 0.15510(14) 0.94672(18) 0.3705(3)
C13_2 C 0.1649(2) 0.9991(2) 0.4667(3)
H7_2 H 0.1388 0.9940 0.5092
C16_2 C 0.1921(2) 0.9568(3) 0.3096(4)
H10_2 H 0.1858 0.9209 0.2420
C18_2 C 0.63990(17) 0.2403(2) 0.0767(3)
C19_2 C 0.74928(17) 0.0710(2) 0.0580(3)
C20_2 C 0.70270(17) 0.1412(2) 0.0238(3)
C23_2 C 0.62196(16) 0.2780(2) 0.1769(3)
C25_2 C 0.68197(18) 0.1728(2) 0.1120(3)
H15_2 H 0.6963 0.1487 0.1934
C30_2 C 0.7610(2) 0.0176(3) 0.1586(4)
H18_2 H 0.7370 0.0227 0.2054
N6_2 N 0.68349(14) 0.17516(18) 0.9065(3)
C17_2 C 0.57710(17) 0.3339(2) 0.6807(3)
H11_2 H 0.5523 0.3532 0.7207
C21_2 C 0.61902(17) 0.2739(2) 0.9546(3)
H12_2 H 0.5897 0.3183 0.9277
C22_2 C 0.56509(17) 0.3632(2) 0.5600(3)
H13_2 H 0.5316 0.4021 0.5199
C24_2 C 0.64779(18) 0.2825(2) 0.5575(3)
H14_2 H 0.6724 0.2651 0.5159
C26_2 C 0.64268(17) 0.2399(2) 0.8716(3)
C27_2 C 0.62648(17) 0.2755(2) 0.7422(3)
C28_2 C 0.66239(19) 0.2500(2) 0.6765(3)
H16_2 H 0.6960 0.2111 0.7139
C31_2 C 0.7878(2) 0.0604(2) 0.9943(3)
H19_2 H 0.7818 0.0947 0.9251
Cl1_3 Cl 1.0000 0.99073(7) 0.2500
O2_3 O 1.0000 0.7961(2) 0.2500
N5_2 N 0.84490(14) 0.94672(18) 0.1295(3)
C29_2 C 0.8351(2) 0.9991(2) 0.0333(3)
C32_2 C 0.8079(2) 0.9568(3) 0.1904(4)
H20_2 H 0.8142 0.9209 0.2580
H17_2 H 0.8612 0.9940 0.9908
N4_2 N 0.90038(14) 0.16186(17) 0.5021(2)
N6_3 N 0.81651(14) 0.32484(18) 0.0935(3)
C17_3 C 0.92290(17) 0.1661(2) 0.3193(3)
H11_3 H 0.9477 0.1468 0.2793
C21_3 C 0.88098(17) 0.2261(2) 0.0454(3)
H12_3 H 0.9103 0.1817 0.0723
C22_3 C 0.93491(17) 0.1368(2) 0.4400(3)
H13_3 H 0.9684 0.0979 0.4801
C24_3 C 0.85221(18) 0.2175(2) 0.4425(3)
H14_3 H 0.8276 0.2349 0.4841
C26_3 C 0.85732(17) 0.2601(2) 0.1284(3)
C27_3 C 0.87352(17) 0.2245(2) 0.2578(3)
C28_3 C 0.83761(19) 0.2500(2) 0.3235(3)
H16_3 H 0.8040 0.2889 0.2861
H17_3 H 0.6388 0.5060 0.0092
C31_3 C 0.7122(2) 0.4396(2) 0.0057(3)
H19_3 H 0.7182 0.4053 0.0749
Cu3 Cu 0.92252(2) 0.13289(3) 0.69027(4)
Cu1_2 Cu 0.42252(2) 0.63289(3) 0.69027(4)
Cl1_4 Cl 0.5000 0.50927(7) 0.7500
O1_2 O 0.08570(11) 0.15891(15) 0.6443(2)
O2_4 O 0.5000 0.7039(2) 0.7500
O3_2 O 0.14669(13) 0.25401(17) 0.7876(2)
N2_3 N 0.34490(14) 0.55328(18) 0.6295(3)
N3_3 N 0.18349(14) 0.32484(18) 0.4065(3)
C1_3 C 0.07710(17) 0.1661(2) 0.1807(3)
H1_3 H 0.0523 0.1468 0.2207
C2_3 C 0.13990(17) 0.2597(2) 0.5767(3)
C3_3 C 0.24928(17) 0.4290(2) 0.5580(3)
C4_3 C 0.20270(17) 0.3588(2) 0.5238(3)
C5_3 C 0.11902(17) 0.2261(2) 0.4546(3)
H2_3 H 0.0897 0.1817 0.4277
C6_3 C 0.06509(17) 0.1368(2) 0.0600(3)
H3_3 H 0.0316 0.0979 0.0199
C7_3 C 0.12196(16) 0.2220(2) 0.6769(3)
C8_3 C 0.14779(18) 0.2175(2) 0.0575(3)
H4_3 H 0.1724 0.2349 0.0159
C9_3 C 0.18197(18) 0.3272(2) 0.6120(3)
H5_3 H 0.1963 0.3513 0.6934
C10_3 C 0.14268(17) 0.2601(2) 0.3716(3)
C11_3 C 0.12648(17) 0.2245(2) 0.2422(3)
C12_3 C 0.16239(19) 0.2500(2) 0.1765(3)
H6_3 H 0.1960 0.2889 0.2139
C13_3 C 0.3351(2) 0.5009(2) 0.5333(3)
H7_3 H 0.3612 0.5060 0.4908
C14_3 C 0.2610(2) 0.4824(3) 0.6586(4)
H8_3 H 0.2370 0.4773 0.7054
C15_3 C 0.2878(2) 0.4396(2) 0.4943(3)
H9_3 H 0.2818 0.4053 0.4251
C16_3 C 0.3079(2) 0.5432(3) 0.6904(4)
H10_3 H 0.3142 0.5791 0.7580
Cu2_2 Cu 0.57748(2) 0.63289(3) 0.80973(4)
O4_2 O 0.91430(11) 0.15891(15) 0.8557(2)
O5_2 O 0.85331(13) 0.25401(17) 0.7124(2)
N5_3 N 0.65510(14) 0.55328(18) 0.8705(3)
C18_3 C 0.86010(17) 0.2597(2) 0.9233(3)
C19_3 C 0.75072(17) 0.4290(2) 0.9420(3)
C20_3 C 0.79730(17) 0.3588(2) 0.9762(3)
C23_3 C 0.87804(16) 0.2220(2) 0.8231(3)
C25_3 C 0.81803(18) 0.3272(2) 0.8880(3)
H15_3 H 0.8037 0.3513 0.8066
C29_3 C 0.6649(2) 0.5009(2) 0.9667(3)
C30_3 C 0.7390(2) 0.4824(3) 0.8414(4)
H18_3 H 0.7630 0.4773 0.7946
C32_3 C 0.6921(2) 0.5432(3) 0.8096(4)
H20_3 H 0.6858 0.5791 0.7420
Cu5 Cu 0.07748(2) 0.13289(3) 0.80973(4)
O6_2 O 0.58570(11) 0.65891(15) 0.6443(2)
O7_2 O 0.41430(11) 0.65891(15) 0.8557(2)
O8_2 O 0.64669(13) 0.75401(17) 0.7876(2)
O9_2 O 0.35331(13) 0.75401(17) 0.7124(2)
N7_2 N 0.59962(14) 0.66186(17) 0.9979(2)
N8_2 N 0.40038(14) 0.66186(17) 0.5021(2)
N1_2 N 0.09962(14) 0.16186(17) 0.9979(2)
Cl1_5 Cl -0.0000 0.00927(7) 0.7500
O2_5 O 0.0000 0.2039(2) 0.7500
N5_4 N 0.15510(14) 0.05328(18) 0.8705(3)
C29_4 C 0.1649(2) 0.0009(2) 0.9667(3)
C32_4 C 0.1921(2) 0.0432(3) 0.8096(4)
H20_4 H 0.1858 0.0791 0.7420
N6_4 N 0.31651(14) 0.82484(18) 0.0935(3)
C17_4 C 0.42290(17) 0.6661(2) 0.3193(3)
H11_4 H 0.4477 0.6468 0.2793
C21_4 C 0.38098(17) 0.7261(2) 0.0454(3)
H12_4 H 0.4103 0.6817 0.0723
C22_4 C 0.43491(17) 0.6368(2) 0.4400(3)
H13_4 H 0.4684 0.5979 0.4801
C24_4 C 0.35221(18) 0.7175(2) 0.4425(3)
H14_4 H 0.3276 0.7349 0.4841
C26_4 C 0.35732(17) 0.7601(2) 0.1284(3)
C27_4 C 0.37352(17) 0.7245(2) 0.2578(3)
C28_4 C 0.33761(19) 0.7500(2) 0.3235(3)
H16_4 H 0.3040 0.7889 0.2861
C31_4 C 0.2122(2) 0.9396(2) 0.0057(3)
H19_4 H 0.2182 0.9053 0.0749
C18_4 C 0.36010(17) 0.7597(2) 0.9233(3)
C19_4 C 0.25072(17) 0.9290(2) 0.9420(3)
C20_4 C 0.29730(17) 0.8588(2) 0.9762(3)
C23_4 C 0.37804(16) 0.7220(2) 0.8231(3)
C25_4 C 0.31803(18) 0.8272(2) 0.8880(3)
H15_4 H 0.3037 0.8513 0.8066
C30_4 C 0.2390(2) 0.9824(3) 0.8414(4)
H18_4 H 0.2630 0.9773 0.7946
Cl1_6 Cl 1.0000 0.00927(7) 0.7500
O2_6 O 1.0000 0.2039(2) 0.7500
N2_4 N 0.84490(14) 0.05328(18) 0.6295(3)
C13_4 C 0.8351(2) 0.0009(2) 0.5333(3)
H7_4 H 0.8612 0.0060 0.4908
C16_4 C 0.8079(2) 0.0432(3) 0.6904(4)
H10_4 H 0.8142 0.0791 0.7580
N3_4 N 0.68349(14) 0.82484(18) 0.4065(3)
C1_4 C 0.57710(17) 0.6661(2) 0.1807(3)
H1_4 H 0.5523 0.6468 0.2207
C2_4 C 0.63990(17) 0.7597(2) 0.5767(3)
C3_4 C 0.74928(17) 0.9290(2) 0.5580(3)
C4_4 C 0.70270(17) 0.8588(2) 0.5238(3)
C5_4 C 0.61902(17) 0.7261(2) 0.4546(3)
H2_4 H 0.5897 0.6817 0.4277
C6_4 C 0.56509(17) 0.6368(2) 0.0600(3)
H3_4 H 0.5316 0.5979 0.0199
C7_4 C 0.62196(16) 0.7220(2) 0.6769(3)
C8_4 C 0.64779(18) 0.7175(2) 0.0575(3)
H4_4 H 0.6724 0.7349 0.0159
C9_4 C 0.68197(18) 0.8272(2) 0.6120(3)
H5_4 H 0.6963 0.8513 0.6934
C10_4 C 0.64268(17) 0.7601(2) 0.3716(3)
C11_4 C 0.62648(17) 0.7245(2) 0.2422(3)
C12_4 C 0.66239(19) 0.7500(2) 0.1765(3)
H6_4 H 0.6960 0.7889 0.2139
C14_4 C 0.7610(2) 0.9824(3) 0.6586(4)
H8_4 H 0.7370 0.9773 0.7054
C15_4 C 0.7878(2) 0.9396(2) 0.4943(3)
H9_4 H 0.7818 0.9053 0.4251
H17_4 H 0.1388 0.0060 0.0092
loop_
_geom_bond_atom_site_label_1
_geom_bond_atom_site_label_2
_geom_bond_site_symmetry_1
_geom_bond_site_symmetry_2
Cu6 N1 1_555 1_555
Cu1 Cl1 1_555 1_555
Cl1 Cu2 1_555 1_555
O1 C7 1_555 1_555
O2 Cu1 1_555 1_555
O3 C7 1_555 1_555
N2 Cu1 1_555 1_555
N3 C4 1_555 1_555
C1 H1 1_555 1_555
C2 C5 1_555 1_555
C3 C4 1_555 1_555
C4 C9 1_555 1_555
C5 H2 1_555 1_555
C6 C1 1_555 1_555
H3 C6 1_555 1_555
C7 C2 1_555 1_555
H4 C8 1_555 1_555
C9 C2 1_555 1_555
H5 C9 1_555 1_555
C10 N3 1_555 1_555
C11 C1 1_555 1_555
C12 C8 1_555 1_555
H6 C12 1_555 1_555
C13 N2 1_555 1_555
H7 C13 1_555 1_555
C14 C3 1_555 1_555
H8 C14 1_555 1_555
C15 C3 1_555 1_555
H9 C15 1_555 1_555
C16 N2 1_555 1_555
H10 C16 1_555 1_555
Cu2 O2 1_555 1_555
O4 C23 1_555 1_555
O5 C23 1_555 1_555
N5 Cu2 1_555 1_555
C19 C20 1_555 1_555
C20 C25 1_555 1_555
C23 C18 1_555 1_555
C25 C18 1_555 1_555
H15 C25 1_555 1_555
C29 N5 1_555 1_555
C30 C19 1_555 1_555
H18 C30 1_555 1_555
C32 N5 1_555 1_555
H20 C32 1_555 1_555
Cu4 O4 1_555 1_555
Cu6 O1 1_555 1_555
O6 Cu2 1_555 1_555
O7 Cu1 1_555 1_555
O8 Cu2 1_555 1_555
O9 Cu1 1_555 1_555
N7 Cu2 1_555 1_555
N8 Cu1 1_555 1_555
O3 Cu6 1_555 1_555
C5 C10 1_555 1_555
C10 C11 1_555 1_555
C11 C12 1_555 1_555
C13 C15 1_555 1_555
C14 C16 1_555 1_555
O5 Cu4 1_555 1_555
C30 C32 1_555 1_555
N4 C22 1_555 1_555
C17 H11 1_555 1_555
C21 H12 1_555 1_555
C22 C17 1_555 1_555
H13 C22 1_555 1_555
C24 N4 1_555 1_555
H14 C24 1_555 1_555
C26 N6 1_555 1_555
C27 C17 1_555 1_555
C28 C24 1_555 1_555
H16 C28 1_555 1_555
H19 C31 1_555 1_555
Cu4 N4 1_555 1_555
C21 C26 1_555 1_555
C26 C27 1_555 1_555
C27 C28 1_555 1_555
O6 C7_2 1_555 1_555
O8 C7_2 1_555 1_555
N3_2 C4_2 1_555 1_555
C1_2 H1_2 1_555 1_555
C2_2 C5_2 1_555 1_555
C3_2 C4_2 1_555 1_555
C4_2 C9_2 1_555 1_555
C5_2 H2_2 1_555 1_555
C6_2 C1_2 1_555 1_555
H3_2 C6_2 1_555 1_555
C7_2 C2_2 1_555 1_555
H4_2 C8_2 1_555 1_555
C9_2 C2_2 1_555 1_555
H5_2 C9_2 1_555 1_555
C10_2 N3_2 1_555 1_555
C11_2 C1_2 1_555 1_555
C12_2 C8_2 1_555 1_555
H6_2 C12_2 1_555 1_555
C14_2 C3_2 1_555 1_555
H8_2 C14_2 1_555 1_555
C15_2 C3_2 1_555 1_555
H9_2 C15_2 1_555 1_555
C5_2 C10_2 1_555 1_555
C10_2 C11_2 1_555 1_555
C11_2 C12_2 1_555 1_555
Cu4 Cl1_2 1_555 1_555
O2_2 Cu4 1_555 1_555
N2_2 Cu4 1_555 1_555
C13_2 N2_2 1_555 1_555
H7_2 C13_2 1_555 1_555
C16_2 N2_2 1_555 1_555
H10_2 C16_2 1_555 1_555
O7 C23_2 1_555 1_555
O9 C23_2 1_555 1_555
C19_2 C20_2 1_555 1_555
C20_2 C25_2 1_555 1_555
C23_2 C18_2 1_555 1_555
C25_2 C18_2 1_555 1_555
H15_2 C25_2 1_555 1_555
C30_2 C19_2 1_555 1_555
H18_2 C30_2 1_555 1_555
N8 C22_2 1_555 1_555
C17_2 H11_2 1_555 1_555
C21_2 H12_2 1_555 1_555
C22_2 C17_2 1_555 1_555
H13_2 C22_2 1_555 1_555
C24_2 N8 1_555 1_555
H14_2 C24_2 1_555 1_555
C26_2 N6_2 1_555 1_555
C27_2 C17_2 1_555 1_555
C28_2 C24_2 1_555 1_555
H16_2 C28_2 1_555 1_555
H19_2 C31_2 1_555 1_555
C21_2 C26_2 1_555 1_555
C26_2 C27_2 1_555 1_555
C27_2 C28_2 1_555 1_555
Cl1_3 Cu6 1_555 1_555
Cu6 O2_3 1_555 1_555
N5_2 Cu6 1_555 1_555
C29_2 N5_2 1_555 1_555
C32_2 N5_2 1_555 1_555
H20_2 C32_2 1_555 1_555
N4_2 C22_3 1_555 1_555
C17_3 H11_3 1_555 1_555
C21_3 H12_3 1_555 1_555
C22_3 C17_3 1_555 1_555
H13_3 C22_3 1_555 1_555
C24_3 N4_2 1_555 1_555
H14_3 C24_3 1_555 1_555
C26_3 N6_3 1_555 1_555
C27_3 C17_3 1_555 1_555
C28_3 C24_3 1_555 1_555
H16_3 C28_3 1_555 1_555
H19_3 C31_3 1_555 1_555
Cu3 N4_2 1_555 1_555
C21_3 C26_3 1_555 1_555
C26_3 C27_3 1_555 1_555
C27_3 C28_3 1_555 1_555
Cu1_2 Cl1_4 1_555 1_555
Cl1_4 Cu2_2 1_555 1_555
O1_2 C7_3 1_555 1_555
O2_4 Cu1_2 1_555 1_555
O3_2 C7_3 1_555 1_555
N2_3 Cu1_2 1_555 1_555
N3_3 C4_3 1_555 1_555
C1_3 H1_3 1_555 1_555
C2_3 C5_3 1_555 1_555
C3_3 C4_3 1_555 1_555
C4_3 C9_3 1_555 1_555
C5_3 H2_3 1_555 1_555
C6_3 C1_3 1_555 1_555
H3_3 C6_3 1_555 1_555
C7_3 C2_3 1_555 1_555
H4_3 C8_3 1_555 1_555
C9_3 C2_3 1_555 1_555
H5_3 C9_3 1_555 1_555
C10_3 N3_3 1_555 1_555
C11_3 C1_3 1_555 1_555
C12_3 C8_3 1_555 1_555
H6_3 C12_3 1_555 1_555
C13_3 N2_3 1_555 1_555
H7_3 C13_3 1_555 1_555
C14_3 C3_3 1_555 1_555
H8_3 C14_3 1_555 1_555
C15_3 C3_3 1_555 1_555
H9_3 C15_3 1_555 1_555
C16_3 N2_3 1_555 1_555
H10_3 C16_3 1_555 1_555
Cu2_2 O2_4 1_555 1_555
O4_2 C23_3 1_555 1_555
O5_2 C23_3 1_555 1_555
N5_3 Cu2_2 1_555 1_555
C19_3 C20_3 1_555 1_555
C20_3 C25_3 1_555 1_555
C23_3 C18_3 1_555 1_555
C25_3 C18_3 1_555 1_555
H15_3 C25_3 1_555 1_555
C29_3 N5_3 1_555 1_555
C30_3 C19_3 1_555 1_555
H18_3 C30_3 1_555 1_555
C32_3 N5_3 1_555 1_555
H20_3 C32_3 1_555 1_555
Cu3 O4_2 1_555 1_555
Cu5 O1_2 1_555 1_555
O6_2 Cu2_2 1_555 1_555
O7_2 Cu1_2 1_555 1_555
O8_2 Cu2_2 1_555 1_555
O9_2 Cu1_2 1_555 1_555
N7_2 Cu2_2 1_555 1_555
N8_2 Cu1_2 1_555 1_555
O3_2 Cu5 1_555 1_555
C5_3 C10_3 1_555 1_555
C10_3 C11_3 1_555 1_555
C11_3 C12_3 1_555 1_555
C13_3 C15_3 1_555 1_555
C14_3 C16_3 1_555 1_555
O5_2 Cu3 1_555 1_555
C30_3 C32_3 1_555 1_555
Cu5 N1_2 1_555 1_555
Cl1_5 Cu5 1_555 1_555
Cu5 O2_5 1_555 1_555
N5_4 Cu5 1_555 1_555
C29_4 N5_4 1_555 1_555
C32_4 N5_4 1_555 1_555
H20_4 C32_4 1_555 1_555
N8_2 C22_4 1_555 1_555
C17_4 H11_4 1_555 1_555
C21_4 H12_4 1_555 1_555
C22_4 C17_4 1_555 1_555
H13_4 C22_4 1_555 1_555
C24_4 N8_2 1_555 1_555
H14_4 C24_4 1_555 1_555
C26_4 N6_4 1_555 1_555
C27_4 C17_4 1_555 1_555
C28_4 C24_4 1_555 1_555
H16_4 C28_4 1_555 1_555
H19_4 C31_4 1_555 1_555
C21_4 C26_4 1_555 1_555
C26_4 C27_4 1_555 1_555
C27_4 C28_4 1_555 1_555
O7_2 C23_4 1_555 1_555
O9_2 C23_4 1_555 1_555
C19_4 C20_4 1_555 1_555
C20_4 C25_4 1_555 1_555
C23_4 C18_4 1_555 1_555
C25_4 C18_4 1_555 1_555
H15_4 C25_4 1_555 1_555
C30_4 C19_4 1_555 1_555
H18_4 C30_4 1_555 1_555
Cu3 Cl1_6 1_555 1_555
O2_6 Cu3 1_555 1_555
N2_4 Cu3 1_555 1_555
C13_4 N2_4 1_555 1_555
H7_4 C13_4 1_555 1_555
C16_4 N2_4 1_555 1_555
H10_4 C16_4 1_555 1_555
O6_2 C7_4 1_555 1_555
O8_2 C7_4 1_555 1_555
N3_4 C4_4 1_555 1_555
C1_4 H1_4 1_555 1_555
C2_4 C5_4 1_555 1_555
C3_4 C4_4 1_555 1_555
C4_4 C9_4 1_555 1_555
C5_4 H2_4 1_555 1_555
C6_4 C1_4 1_555 1_555
H3_4 C6_4 1_555 1_555
C7_4 C2_4 1_555 1_555
H4_4 C8_4 1_555 1_555
C9_4 C2_4 1_555 1_555
H5_4 C9_4 1_555 1_555
C10_4 N3_4 1_555 1_555
C11_4 C1_4 1_555 1_555
C12_4 C8_4 1_555 1_555
H6_4 C12_4 1_555 1_555
C14_4 C3_4 1_555 1_555
H8_4 C14_4 1_555 1_555
C15_4 C3_4 1_555 1_555
H9_4 C15_4 1_555 1_555
C5_4 C10_4 1_555 1_555
C10_4 C11_4 1_555 1_555
C11_4 C12_4 1_555 1_555

#END
