
###############################################################################
#
# This file contains modified crystal structure data generated from the
# MOF subset of the Cambridge Structural Database (CSD) v543 
# hosted by the Cambridge Crystallographic Data Centre (CCDC).
#
# This work is licensed under the Creative Commons
# Attribution-NonCommercial-ShareAlike 4.0 International License.
# To view a copy of this license, visit
# http://creativecommons.org/licenses/by-nc-sa/4.0/
# or send a letter to
# Creative Commons, PO Box 1866, Mountain View, CA 94042, USA.
#
# CIF created using the CSD Python API on 29 September 2022
# The structure has been converted into the P1 space group
# The structure has a 3D framework
# The original CSD entry KEKPOI is in the orthorhombic crystal system
# The original CSD entry KEKPOI is in a Sohncke space group
# The framework has been calculated to contain at least 10.0% void space
# The void calculation uses a probe of radius 1.32A, grid spacing 0.4
#
###############################################################################

data_KEKPOI
_chemical_formula_moiety         '(C244 H252 Cd8 N20 Ni4 O50)n'
_symmetry_cell_setting           triclinic
_symmetry_space_group_name_H-M   'P 1'
_symmetry_Int_Tables_number      1
_space_group_name_Hall           'P 1'
loop_
_symmetry_equiv_pos_site_id
_symmetry_equiv_pos_as_xyz
1 x,y,z
_cell_length_a                   12.0167(5)
_cell_length_b                   15.5049(6)
_cell_length_c                   43.5389(15)
_cell_angle_alpha                90
_cell_angle_beta                 90
_cell_angle_gamma                90
_cell_volume                     8112.07
loop_
_atom_site_label
_atom_site_type_symbol
_atom_site_fract_x
_atom_site_fract_y
_atom_site_fract_z
O13 O 0.0262(5) 0.0240(4) 0.53745(17)
H48 H 0.412785 0.033256 0.652971
C57 C 0.152(2) 0.027(3) 0.6583(4)
H49 H 0.162308 0.028691 0.680207
H50 H 0.138193 0.083928 0.650793
Cd4 Cd 0.36980(4) 0.00277(3) 0.49225(2)
O18 O 0.2848(4) 0.0586(3) 0.53483(11)
Cd6 Cd 0.32664(5) 0.05791(4) 0.04846(2)
Cd1 Cd 0.63020(4) 0.50277(3) 0.00775(2)
Ni1 Ni 0.13234(11) 0.75848(9) 0.24158(3)
O2 O 0.5282(5) 0.5534(3) 0.04879(13)
O3 O 0.1616(6) 0.8819(4) 0.50150(12)
O4 O 0.2630(5) 0.9261(4) 0.46176(12)
O6 O 0.4805(5) 0.5986(4) 0.00329(12)
O7 O 0.2209(4) 0.7610(4) 0.27626(12)
O8 O 0.2630(5) 0.7496(5) 0.21996(13)
N1 N 0.0033(5) 0.7539(4) 0.26339(14)
N2 N 0.0434(6) 0.7695(5) 0.20751(15)
C1 C 0.4079(7) 0.6748(5) 0.04637(18)
C2 C 0.2412(7) 0.7699(5) 0.35830(18)
H1 H 0.295776 0.773853 0.373391
C3 C 0.1360(7) 0.8165(5) 0.45261(17)
C4 C 0.3954(7) 0.6784(5) 0.07800(17)
H2 H 0.429062 0.636462 0.090121
C5 C 0.1313(7) 0.7643(5) 0.36809(18)
C6 C 0.1939(7) 0.7627(5) 0.30483(16)
C7 C 0.0789(7) 0.7588(5) 0.31436(18)
C8 C 0.1573(6) 0.8186(5) 0.42210(18)
H3 H 0.209436 0.857634 0.414649
C9 C 0.0781(8) 0.7739(6) 0.17921(19)
H4 H 0.024856 0.784898 0.164210
C10 C 0.4764(7) 0.6042(5) 0.03141(19)
C11 C 0.3152(8) 0.7443(5) 0.12567(19)
C12 C 0.3989(7) 0.7240(6) 0.14651(19)
H5 H 0.467392 0.707856 0.138412
C13 C 0.1918(8) 0.7634(6) 0.16898(18)
C16 C 0.2760(6) 0.7701(5) 0.32848(18)
C18 C 0.2489(6) 0.8721(5) 0.02143(17)
C19 C 0.2775(7) 0.7457(7) 0.19042(19)
C20 C 0.1943(8) 0.8795(5) 0.47361(18)
C21 C 0.0508(7) 0.7589(5) 0.34556(17)
C22 C 0.3897(8) 0.7254(7) 0.17774(19)
C23 C 0.2107(8) 0.7627(6) 0.13723(19)
H10 H 0.152528 0.774734 0.123819
O10 O 0.2152(4) 0.9414(3) 0.03483(11)
C24 C 0.0571(6) 0.7579(5) 0.46471(17)
H11 H 0.042819 0.755781 0.485694
C25 C 0.3334(8) 0.7434(5) 0.09209(17)
C26 C 0.1020(7) 0.7624(5) 0.40098(17)
C27 C 0.0215(7) 0.7063(5) 0.41338(19)
C28 C 0.0018(6) 0.7038(5) 0.44462(17)
C29 C 0.3993(7) 0.7764(7) 0.32046(19)
C30 C 0.4746(7) 0.7830(8) 0.3493(2)
H13 H 0.462943 0.733481 0.362109
H14 H 0.551183 0.785249 0.343045
H15 H 0.456316 0.834358 0.360510
C31 C 0.4192(8) 0.8546(7) 0.3008(2)
H16 H 0.394760 0.905210 0.311586
H17 H 0.497220 0.859430 0.296388
H18 H 0.378412 0.849081 0.281979
C32 C 0.4540(9) 0.6235(9) 0.2189(2)
H19 H 0.439019 0.576442 0.205143
H20 H 0.516247 0.609095 0.231731
H21 H 0.389812 0.633997 0.231447
C33 C 0.5908(9) 0.6828(9) 0.1819(2)
H22 H 0.577238 0.634906 0.168476
H23 H 0.613096 0.732018 0.170064
H24 H 0.648854 0.668090 0.196155
C34 C 0.5051(10) 0.7795(9) 0.2209(2)
H25 H 0.563682 0.764297 0.234920
H26 H 0.527747 0.828221 0.208846
H27 H 0.439291 0.793881 0.232316
C35 C 0.4812(8) 0.7047(7) 0.2002(2)
C38 C 0.4392(8) 0.6978(7) 0.3025(2)
H28 H 0.427472 0.646752 0.314582
H29 H 0.398294 0.693411 0.283671
H30 H 0.517102 0.703760 0.298080
H32 H 0.025149 0.935513 0.220427
C50 C 0.3571(6) 0.7364(5) 0.02771(17)
H41 H 0.363322 0.732966 0.006458
C51 C 0.2971(7) 0.8028(5) 0.04116(16)
C52 C 0.2852(8) 0.8068(5) 0.07290(19)
H42 H 0.244953 0.851824 0.081629
Cd2 Cd 0.17336(5) 0.94209(4) 0.54846(2)
O11 O 0.1680(6) 0.9874(4) 0.59818(12)
O12 O 0.0852(6) 0.8199(4) 0.56483(16)
N3 N 0.0914(8) 0.6772(6) 0.5762(3)
C53 C 0.1350(10) 0.7556(6) 0.5736(3)
H43 H 0.209595 0.762090 0.578833
N5 N 0.2575(14) 0.9908(16) 0.6432(2)
C55 C 0.2550(12) 0.9846(8) 0.6128(2)
H45 H 0.321673 0.977947 0.602225
C56 C 0.3658(17) 0.9870(13) 0.6598(4)
H46 H 0.353028 0.992394 0.681479
H47 H 0.401464 0.932809 0.655643
H51 H 0.090112 0.990251 0.653524
C61 C 0.1460(17) 0.6046(11) 0.5900(5)
H61 H 0.097755 0.555303 0.589223
H62 H 0.213430 0.592362 0.579074
H63 H 0.163213 0.617662 0.611061
O14 O 0.7391(5) 0.6389(4) 0.00646(13)
O15 O 0.7370(5) 0.4261(4) 0.03824(12)
O16 O 0.3381(5) 0.8800(4) 0.55936(12)
O1 O 0.2391(5) 0.8611(4) 0.99354(13)
Cd5 Cd 0.13020(4) 0.99723(3) 0.99225(2)
O17 O 0.5600(5) 0.3874(4) 0.98434(12)
O19 O 0.7152(4) 0.5586(3) 0.96517(11)
O5 O 0.8381(5) 0.6200(4) 0.44064(12)
O9 O 0.9400(5) 0.6126(4) 0.48434(12)
C14 C 0.9235(7) 0.7804(5) 0.21280(18)
H6 H 0.882918 0.747541 0.197180
C15 C 0.8977(7) 0.7421(6) 0.24426(18)
H7 H 0.839057 0.777338 0.253629
C17 C 0.9907(7) 0.7522(5) 0.29222(16)
H8 H 0.918577 0.746087 0.299676
H9 H 0.976313 0.755200 0.351230
H12 H 0.981026 0.670560 0.400366
C36 C 0.8860(7) 0.8734(5) 0.2114(2)
C37 C 0.8568(8) 0.6515(6) 0.2431(2)
C39 C 0.9054(15) 0.5907(7) 0.2246(3)
H31 H 0.963898 0.606316 0.211742
C40 C 0.9495(10) 0.9439(6) 0.2170(3)
C41 C 0.7663(9) 0.6265(8) 0.2604(3)
H33 H 0.730812 0.667383 0.272593
C42 C 0.7748(8) 0.8890(7) 0.2084(3)
H34 H 0.726227 0.842912 0.205647
C43 C 0.7329(11) 0.9717(7) 0.2093(4)
H35 H 0.656751 0.979972 0.206940
C44 C 0.9209(6) 0.6387(5) 0.45801(18)
C47 C 0.7802(16) 0.4838(12) 0.2431(5)
H38 H 0.757009 0.426618 0.243708
C48 C 0.868(2) 0.5064(9) 0.2249(4)
H39 H 0.902501 0.465085 0.212664
C49 C 0.7267(15) 0.5432(10) 0.2602(5)
H40 H 0.664419 0.528215 0.271727
C60 C 0.9758(10) 0.6662(8) 0.5666(3)
H58 H 0.953918 0.607206 0.569597
H59 H 0.928811 0.703126 0.578631
H60 H 0.968793 0.680891 0.545285
Cd3 Cd 0.86980(4) 0.49723(3) 0.50775(2)
Cd7 Cd 0.67336(5) 0.55791(4) 0.45154(2)
O3_2 O 0.3384(6) 0.1181(4) 0.00150(12)
O11_2 O 0.3320(6) 0.0126(4) 0.09818(12)
O12_2 O 0.4148(6) 0.1801(4) 0.06483(16)
N3_2 N 0.4086(8) 0.3228(6) 0.0762(3)
C53_2 C 0.3650(10) 0.2444(6) 0.0736(3)
H43_2 H 0.290405 0.237910 0.078833
N5_2 N 0.2425(14) 0.0092(16) 0.1432(2)
C55_2 C 0.2450(12) 0.0154(8) 0.1128(2)
H45_2 H 0.178327 0.022053 0.102225
C56_2 C 0.1342(17) 0.0130(13) 0.1598(4)
H46_2 H 0.146972 0.007606 0.181479
H47_2 H 0.098536 0.067191 0.155643
H51_2 H 0.409888 0.009749 0.153524
C60_2 C 0.5242(10) 0.3338(8) 0.0666(3)
H58_2 H 0.546082 0.392794 0.069597
H59_2 H 0.571189 0.296874 0.078631
H60_2 H 0.531207 0.319109 0.045285
C61_2 C 0.3540(17) 0.3954(11) 0.0900(5)
H61_2 H 0.402245 0.444697 0.089223
H62_2 H 0.286570 0.407638 0.079074
H63_2 H 0.336787 0.382338 0.111061
O16_2 O 0.1619(5) 0.1200(4) 0.05936(12)
Ni1_2 Ni 0.36766(11) 0.24152(9) 0.74158(3)
O1_2 O 0.2609(5) 0.1389(4) 0.49354(13)
O4_2 O 0.2370(5) 0.0739(4) 0.96176(12)
O5_2 O 0.6619(5) 0.3800(4) 0.94064(12)
O6_2 O 0.0195(5) 0.4014(4) 0.50329(12)
O7_2 O 0.2791(4) 0.2390(4) 0.77626(12)
O8_2 O 0.2370(5) 0.2504(5) 0.71996(13)
N1_2 N 0.4967(5) 0.2461(4) 0.76339(14)
N2_2 N 0.4566(6) 0.2305(5) 0.70751(15)
C1_2 C 0.0921(7) 0.3252(5) 0.54637(18)
C2_2 C 0.2588(7) 0.2301(5) 0.85830(18)
H1_2 H 0.204224 0.226147 0.873391
C3_2 C 0.3640(7) 0.1835(5) 0.95261(17)
C4_2 C 0.1046(7) 0.3216(5) 0.57800(17)
H2_2 H 0.070938 0.363538 0.590121
C5_2 C 0.3687(7) 0.2357(5) 0.86809(18)
C6_2 C 0.3061(7) 0.2373(5) 0.80483(16)
C7_2 C 0.4211(7) 0.2412(5) 0.81436(18)
C8_2 C 0.3427(6) 0.1814(5) 0.92210(18)
H3_2 H 0.290564 0.142366 0.914649
C9_2 C 0.4219(8) 0.2261(6) 0.67921(19)
H4_2 H 0.475144 0.215102 0.664210
C10_2 C 0.0236(7) 0.3958(5) 0.53141(19)
C11_2 C 0.1848(8) 0.2557(5) 0.62567(19)
C12_2 C 0.1011(7) 0.2760(6) 0.64651(19)
H5_2 H 0.032608 0.292144 0.638412
C13_2 C 0.3082(8) 0.2366(6) 0.66898(18)
C14_2 C 0.5765(7) 0.2196(5) 0.71280(18)
H6_2 H 0.617082 0.252459 0.697180
C15_2 C 0.6023(7) 0.2579(6) 0.74426(18)
H7_2 H 0.660943 0.222662 0.753629
C16_2 C 0.2240(6) 0.2299(5) 0.82848(18)
C17_2 C 0.5093(7) 0.2478(5) 0.79222(16)
H8_2 H 0.581423 0.253913 0.799676
C18_2 C 0.2511(6) 0.1279(5) 0.52143(17)
C19_2 C 0.2225(7) 0.2543(7) 0.69042(19)
C20_2 C 0.3057(8) 0.1205(5) 0.97361(18)
C21_2 C 0.4492(7) 0.2411(5) 0.84556(17)
H9_2 H 0.523687 0.244800 0.851230
C22_2 C 0.1103(8) 0.2746(7) 0.67774(19)
C23_2 C 0.2893(8) 0.2373(6) 0.63723(19)
H10_2 H 0.347472 0.225266 0.623819
C24_2 C 0.4429(6) 0.2421(5) 0.96471(17)
H11_2 H 0.457181 0.244219 0.985694
C25_2 C 0.1666(8) 0.2566(5) 0.59209(17)
C26_2 C 0.3980(7) 0.2376(5) 0.90098(17)
C27_2 C 0.4785(7) 0.2937(5) 0.91338(19)
H12_2 H 0.518974 0.329440 0.900366
C28_2 C 0.4982(6) 0.2962(5) 0.94462(17)
C29_2 C 0.1007(7) 0.2236(7) 0.82046(19)
C30_2 C 0.0254(7) 0.2170(8) 0.8493(2)
H13_2 H 0.037057 0.266519 0.862109
H15_2 H 0.043684 0.165642 0.860510
C31_2 C 0.0808(8) 0.1454(7) 0.8008(2)
H16_2 H 0.105240 0.094790 0.811586
H17_2 H 0.002780 0.140570 0.796388
H18_2 H 0.121588 0.150919 0.781979
C32_2 C 0.0460(9) 0.3765(9) 0.7189(2)
H19_2 H 0.060981 0.423558 0.705143
H21_2 H 0.110188 0.366003 0.731447
H27_2 H 0.060709 0.206119 0.732316
C35_2 C 0.0188(8) 0.2953(7) 0.7002(2)
C36_2 C 0.6140(7) 0.1266(5) 0.7114(2)
C37_2 C 0.6432(8) 0.3485(6) 0.7431(2)
C38_2 C 0.0608(8) 0.3022(7) 0.8025(2)
H28_2 H 0.072528 0.353248 0.814582
H29_2 H 0.101706 0.306589 0.783671
C39_2 C 0.5946(15) 0.4093(7) 0.7246(3)
H31_2 H 0.536102 0.393684 0.711742
C40_2 C 0.5505(10) 0.0561(6) 0.7170(3)
H32_2 H 0.474851 0.064487 0.720427
C41_2 C 0.7337(9) 0.3735(8) 0.7604(3)
H33_2 H 0.769188 0.332617 0.772593
C42_2 C 0.7252(8) 0.1110(7) 0.7084(3)
H34_2 H 0.773773 0.157088 0.705647
C43_2 C 0.7671(11) 0.0283(7) 0.7093(4)
H35_2 H 0.843249 0.020028 0.706940
C44_2 C 0.5791(6) 0.3613(5) 0.95801(18)
C47_2 C 0.7198(16) 0.5162(12) 0.7431(5)
H38_2 H 0.742991 0.573382 0.743708
C48_2 C 0.632(2) 0.4936(9) 0.7249(4)
H39_2 H 0.597499 0.534915 0.712664
C49_2 C 0.7733(15) 0.4568(10) 0.7602(5)
H40_2 H 0.835581 0.471785 0.771727
C50_2 C 0.1429(6) 0.2636(5) 0.52771(17)
H41_2 H 0.136678 0.267034 0.506458
C51_2 C 0.2029(7) 0.1972(5) 0.54116(16)
C52_2 C 0.2148(8) 0.1932(5) 0.57290(19)
H42_2 H 0.255047 0.148176 0.581629
Cd7_2 Cd 0.82664(5) 0.44209(4) 0.95154(2)
O13_2 O 0.4738(5) 0.9760(4) 0.03745(17)
N4 N 0.5980(10) 0.8667(7) 0.0407(3)
C54 C 0.5221(10) 0.9196(8) 0.0526(4)
H44 H 0.504485 0.914035 0.073263
H48_2 H 0.087215 0.966744 0.152971
C57_2 C 0.348(2) 0.973(3) 0.1583(4)
H49_2 H 0.337692 0.971309 0.180207
H50_2 H 0.361807 0.916072 0.150793
C58 C 0.6397(15) 0.8738(14) 0.0102(4)
H52 H 0.693372 0.829071 0.006597
H54 H 0.674459 0.929072 0.007594
C59 C 0.6499(14) 0.7996(11) 0.0604(5)
H55 H 0.702419 0.766947 0.048545
H56 H 0.687573 0.826728 0.077293
H57 H 0.593267 0.761725 0.068177
C45 C 0.6994(10) 0.9574(7) 0.7135(5)
H36 H 0.727899 0.901637 0.713219
C46 C 0.5905(11) 0.9723(6) 0.7181(4)
H37 H 0.542225 0.926652 0.721891
H53 H 0.579467 0.868089 0.995870
O2_2 O 0.9718(5) 0.4466(3) 0.54879(13)
H14_2 H 0.948817 0.214751 0.843045
H20_2 H 0.983753 0.390905 0.731731
C33_2 C 0.9092(9) 0.3172(9) 0.6819(2)
H22_2 H 0.922762 0.365094 0.668476
H23_2 H 0.886904 0.267982 0.670064
H24_2 H 0.851146 0.331910 0.696155
C34_2 C 0.9949(10) 0.2205(9) 0.7209(2)
H25_2 H 0.936318 0.235703 0.734920
H26_2 H 0.972253 0.171779 0.708846
H30_2 H 0.982898 0.296240 0.798080
O14_2 O 0.7609(5) 0.3611(4) 0.50646(13)
O15_2 O 0.7630(5) 0.5739(4) 0.53824(12)
O19_2 O 0.7848(4) 0.4414(3) 0.46517(11)
O9_2 O 0.0600(5) 0.1126(4) 0.01566(12)
C14_3 C 0.0765(7) 0.2804(5) 0.28720(18)
H6_3 H 0.117082 0.247541 0.302820
C15_3 C 0.1023(7) 0.2421(6) 0.25574(18)
H7_3 H 0.160943 0.277338 0.246371
C17_3 C 0.0093(7) 0.2522(5) 0.20778(16)
H8_3 H 0.081423 0.246087 0.200324
H9_3 H 0.023687 0.255200 0.148770
H12_3 H 0.018974 0.170560 0.099634
C36_3 C 0.1140(7) 0.3734(5) 0.2886(2)
C37_3 C 0.1432(8) 0.1515(6) 0.2569(2)
C39_3 C 0.0946(15) 0.0907(7) 0.2754(3)
H31_3 H 0.036102 0.106316 0.288258
C40_3 C 0.0505(10) 0.4439(6) 0.2830(3)
C41_3 C 0.2337(9) 0.1265(8) 0.2396(3)
H33_3 H 0.269188 0.167383 0.227407
C42_3 C 0.2252(8) 0.3890(7) 0.2916(3)
H34_3 H 0.273773 0.342912 0.294353
C43_3 C 0.2671(11) 0.4717(7) 0.2907(4)
H35_3 H 0.343249 0.479972 0.293060
C44_3 C 0.0791(6) 0.1387(5) 0.04199(18)
C45_2 C 0.1994(10) 0.5426(7) 0.2865(5)
H36_2 H 0.227899 0.598363 0.286781
C46_2 C 0.0905(11) 0.5277(6) 0.2819(4)
H37_2 H 0.042225 0.573348 0.278109
C48_3 C 0.132(2) 0.0064(9) 0.2751(4)
C49_3 C 0.2733(15) 0.0432(10) 0.2398(5)
H40_3 H 0.335581 0.028215 0.228273
H53_2 H 0.079467 0.631911 0.004130
Ni1_3 Ni 0.86766(11) 0.25848(9) 0.25842(3)
O2_3 O 0.4718(5) 0.0534(3) 0.45121(13)
O6_3 O 0.5195(5) 0.0986(4) 0.49671(12)
O7_3 O 0.7791(4) 0.2610(4) 0.22374(12)
O8_3 O 0.7370(5) 0.2496(5) 0.28004(13)
N1_3 N 0.9967(5) 0.2539(4) 0.23661(14)
N2_3 N 0.9566(6) 0.2695(5) 0.29249(15)
C1_3 C 0.5921(7) 0.1748(5) 0.45363(18)
C2_3 C 0.7588(7) 0.2699(5) 0.14170(18)
H1_3 H 0.704224 0.273853 0.126609
C3_3 C 0.8640(7) 0.3165(5) 0.04739(17)
C4_3 C 0.6046(7) 0.1784(5) 0.42200(17)
H2_3 H 0.570938 0.136462 0.409879
C5_3 C 0.8687(7) 0.2643(5) 0.13191(18)
C6_3 C 0.8061(7) 0.2627(5) 0.19517(16)
C7_3 C 0.9211(7) 0.2588(5) 0.18564(18)
C8_3 C 0.8427(6) 0.3186(5) 0.07790(18)
H3_3 H 0.790564 0.357634 0.085351
C9_3 C 0.9219(8) 0.2739(6) 0.32079(19)
H4_3 H 0.975144 0.284898 0.335790
C10_3 C 0.5236(7) 0.1042(5) 0.46859(19)
C11_3 C 0.6848(8) 0.2443(5) 0.37433(19)
C12_3 C 0.6011(7) 0.2240(6) 0.35349(19)
H5_3 H 0.532608 0.207856 0.361588
C13_3 C 0.8082(8) 0.2634(6) 0.33102(18)
C16_3 C 0.7240(6) 0.2701(5) 0.17152(18)
C18_3 C 0.7511(6) 0.3721(5) 0.47857(17)
C19_3 C 0.7225(7) 0.2457(7) 0.30958(19)
C20_3 C 0.8057(8) 0.3795(5) 0.02639(18)
C21_3 C 0.9492(7) 0.2589(5) 0.15444(17)
C22_3 C 0.6103(8) 0.2254(7) 0.32226(19)
C23_3 C 0.7893(8) 0.2627(6) 0.36277(19)
H10_3 H 0.847472 0.274734 0.376181
C24_3 C 0.9429(6) 0.2579(5) 0.03529(17)
H11_3 H 0.957181 0.255781 0.014306
C25_3 C 0.6666(8) 0.2434(5) 0.40791(17)
C26_3 C 0.8980(7) 0.2624(5) 0.09902(17)
C27_3 C 0.9785(7) 0.2063(5) 0.08662(19)
C28_3 C 0.9982(6) 0.2038(5) 0.05538(17)
C29_3 C 0.6007(7) 0.2764(7) 0.17954(19)
C30_3 C 0.5254(7) 0.2830(8) 0.1507(2)
H13_3 H 0.537057 0.233481 0.137891
H14_3 H 0.448817 0.285249 0.156955
H15_3 H 0.543684 0.334358 0.139490
C31_3 C 0.5808(8) 0.3546(7) 0.1992(2)
H16_3 H 0.605240 0.405210 0.188414
H17_3 H 0.502780 0.359430 0.203612
H18_3 H 0.621588 0.349081 0.218021
C32_3 C 0.5460(9) 0.1235(9) 0.2811(2)
H19_3 H 0.560981 0.076442 0.294857
H20_3 H 0.483753 0.109095 0.268269
H21_3 H 0.610188 0.133997 0.268553
C33_3 C 0.4092(9) 0.1828(9) 0.3181(2)
H22_3 H 0.422762 0.134906 0.331524
H23_3 H 0.386904 0.232018 0.329936
H24_3 H 0.351146 0.168090 0.303845
C34_3 C 0.4949(10) 0.2795(9) 0.2791(2)
H25_3 H 0.436318 0.264297 0.265080
H26_3 H 0.472253 0.328221 0.291154
H27_3 H 0.560709 0.293881 0.267684
C35_3 C 0.5188(8) 0.2047(7) 0.2998(2)
C38_3 C 0.5608(8) 0.1978(7) 0.1975(2)
H28_3 H 0.572528 0.146752 0.185418
H29_3 H 0.601706 0.193411 0.216329
H30_3 H 0.482898 0.203760 0.201920
H32_3 H 0.974851 0.435513 0.279573
C50_3 C 0.6429(6) 0.2364(5) 0.47229(17)
H41_3 H 0.636678 0.232966 0.493542
C51_3 C 0.7029(7) 0.3028(5) 0.45884(16)
C52_3 C 0.7148(8) 0.3068(5) 0.42710(19)
H42_3 H 0.755047 0.351824 0.418371
O3_3 O 0.8384(6) 0.3819(4) 0.99850(12)
O11_3 O 0.8320(6) 0.4874(4) 0.90182(12)
O12_3 O 0.9148(6) 0.3199(4) 0.93517(16)
O13_3 O 0.9738(5) 0.5240(4) 0.96255(17)
N3_3 N 0.9086(8) 0.1772(6) 0.9238(3)
C53_3 C 0.8650(10) 0.2556(6) 0.9264(3)
H43_3 H 0.790405 0.262090 0.921167
N5_3 N 0.7425(14) 0.4908(16) 0.8568(2)
C55_3 C 0.7450(12) 0.4846(8) 0.8872(2)
H45_3 H 0.678327 0.477947 0.897775
C56_3 C 0.6342(17) 0.4870(13) 0.8402(4)
H46_3 H 0.646972 0.492394 0.818521
H47_3 H 0.598536 0.432809 0.844357
H48_3 H 0.587215 0.533256 0.847029
C57_3 C 0.848(2) 0.527(3) 0.8417(4)
H49_3 H 0.837692 0.528691 0.819793
H50_3 H 0.861807 0.583928 0.849207
H51_3 H 0.909888 0.490251 0.846476
C61_3 C 0.8540(17) 0.1046(11) 0.9100(5)
H61_3 H 0.902245 0.055303 0.910777
H62_3 H 0.786570 0.092362 0.920926
H63_3 H 0.836787 0.117662 0.888939
O17_2 O 0.4400(5) 0.8874(4) 0.51566(12)
O2_4 O 0.0282(5) 0.9466(3) 0.95121(13)
H14_4 H 0.051183 0.714751 0.656955
H20_4 H 0.016247 0.890905 0.768269
C33_4 C 0.0908(9) 0.8172(9) 0.8181(2)
H22_4 H 0.077238 0.865094 0.831524
H23_4 H 0.113096 0.767982 0.829936
H24_4 H 0.148854 0.831910 0.803845
C34_4 C 0.0051(10) 0.7205(9) 0.7791(2)
H25_4 H 0.063682 0.735703 0.765080
H26_4 H 0.027747 0.671779 0.791154
H30_4 H 0.017102 0.796240 0.701920
C47_3 C 0.2802(16) 0.0162(12) 0.7569(5)
H38_3 H 0.257009 0.073382 0.756292
H39_3 H 0.402501 0.034915 0.787336
Ni1_4 Ni 0.63234(11) 0.74152(9) 0.75842(3)
O3_4 O 0.6616(6) 0.6181(4) 0.49850(12)
O6_4 O 0.9805(5) 0.9014(4) 0.99671(12)
O7_4 O 0.7209(4) 0.7390(4) 0.72374(12)
O8_4 O 0.7630(5) 0.7504(5) 0.78004(13)
N1_4 N 0.5033(5) 0.7461(4) 0.73661(14)
N2_4 N 0.5434(6) 0.7305(5) 0.79249(15)
C1_4 C 0.9079(7) 0.8252(5) 0.95363(18)
C2_4 C 0.7412(7) 0.7301(5) 0.64170(18)
H1_4 H 0.795776 0.726147 0.626609
C3_4 C 0.6360(7) 0.6835(5) 0.54739(17)
C4_4 C 0.8954(7) 0.8216(5) 0.92200(17)
H2_4 H 0.929062 0.863538 0.909879
C5_4 C 0.6313(7) 0.7357(5) 0.63191(18)
C6_4 C 0.6939(7) 0.7373(5) 0.69517(16)
C7_4 C 0.5789(7) 0.7412(5) 0.68564(18)
C8_4 C 0.6573(6) 0.6814(5) 0.57790(18)
H3_4 H 0.709436 0.642366 0.585351
C9_4 C 0.5781(8) 0.7261(6) 0.82079(19)
H4_4 H 0.524856 0.715102 0.835790
C10_4 C 0.9764(7) 0.8958(5) 0.96859(19)
C11_4 C 0.8152(8) 0.7557(5) 0.87433(19)
C12_4 C 0.8989(7) 0.7760(6) 0.85349(19)
H5_4 H 0.967392 0.792144 0.861588
C13_4 C 0.6918(8) 0.7366(6) 0.83102(18)
C14_4 C 0.4235(7) 0.7196(5) 0.78720(18)
H6_4 H 0.382918 0.752459 0.802820
C15_4 C 0.3977(7) 0.7579(6) 0.75574(18)
H7_4 H 0.339057 0.722662 0.746371
C16_4 C 0.7760(6) 0.7299(5) 0.67152(18)
C17_4 C 0.4907(7) 0.7478(5) 0.70778(16)
H8_4 H 0.418577 0.753913 0.700324
C18_4 C 0.7489(6) 0.6279(5) 0.97857(17)
C19_4 C 0.7775(7) 0.7543(7) 0.80958(19)
C20_4 C 0.6943(8) 0.6205(5) 0.52639(18)
C21_4 C 0.5508(7) 0.7411(5) 0.65444(17)
H9_4 H 0.476313 0.744800 0.648770
C22_4 C 0.8897(8) 0.7746(7) 0.82226(19)
C23_4 C 0.7107(8) 0.7373(6) 0.86277(19)
H10_4 H 0.652528 0.725266 0.876181
C24_4 C 0.5571(6) 0.7421(5) 0.53529(17)
H11_4 H 0.542819 0.744219 0.514306
C25_4 C 0.8334(8) 0.7566(5) 0.90791(17)
C26_4 C 0.6020(7) 0.7376(5) 0.59902(17)
C27_4 C 0.5215(7) 0.7937(5) 0.58662(19)
H12_4 H 0.481026 0.829440 0.599634
C28_4 C 0.5018(6) 0.7962(5) 0.55538(17)
C29_4 C 0.8993(7) 0.7236(7) 0.67954(19)
C30_4 C 0.9746(7) 0.7170(8) 0.6507(2)
H13_4 H 0.962943 0.766519 0.637891
H15_4 H 0.956316 0.665642 0.639490
C31_4 C 0.9192(8) 0.6454(7) 0.6992(2)
H16_4 H 0.894760 0.594790 0.688414
H17_4 H 0.997220 0.640570 0.703612
H18_4 H 0.878412 0.650919 0.718021
C32_4 C 0.9540(9) 0.8765(9) 0.7811(2)
H19_4 H 0.939019 0.923558 0.794857
H21_4 H 0.889812 0.866003 0.768553
H27_4 H 0.939291 0.706119 0.767684
C35_4 C 0.9812(8) 0.7953(7) 0.7998(2)
C36_4 C 0.3860(7) 0.6266(5) 0.7886(2)
C37_4 C 0.3568(8) 0.8485(6) 0.7569(2)
C38_4 C 0.9392(8) 0.8022(7) 0.6975(2)
H28_4 H 0.927472 0.853248 0.685418
H29_4 H 0.898294 0.806589 0.716329
C39_4 C 0.4054(15) 0.9093(7) 0.7754(3)
H31_4 H 0.463898 0.893684 0.788258
C40_4 C 0.4495(10) 0.5561(6) 0.7830(3)
H32_4 H 0.525149 0.564487 0.779573
C41_4 C 0.2663(9) 0.8735(8) 0.7396(3)
H33_4 H 0.230812 0.832617 0.727407
C42_4 C 0.2748(8) 0.6110(7) 0.7916(3)
H34_4 H 0.226227 0.657088 0.794353
C43_4 C 0.2329(11) 0.5283(7) 0.7907(4)
H35_4 H 0.156751 0.520028 0.793060
C44_4 C 0.4209(6) 0.8613(5) 0.54199(18)
C45_3 C 0.3006(10) 0.4574(7) 0.7865(5)
H36_3 H 0.272101 0.401637 0.786781
C46_3 C 0.4095(11) 0.4723(6) 0.7819(4)
H37_3 H 0.457775 0.426652 0.778109
C48_4 C 0.368(2) 0.9936(9) 0.7751(4)
C49_4 C 0.2267(15) 0.9568(10) 0.7398(5)
H40_4 H 0.164419 0.971785 0.728273
C50_4 C 0.8571(6) 0.7636(5) 0.97229(17)
H41_4 H 0.863322 0.767034 0.993542
C51_4 C 0.7971(7) 0.6972(5) 0.95884(16)
C52_4 C 0.7852(8) 0.6932(5) 0.92710(19)
H42_4 H 0.744953 0.648176 0.918371
O11_4 O 0.6680(6) 0.5126(4) 0.40182(12)
O12_4 O 0.5852(6) 0.6801(4) 0.43517(16)
O13_4 O 0.5262(5) 0.4760(4) 0.46255(17)
N3_4 N 0.5914(8) 0.8228(6) 0.4238(3)
N4_2 N 0.4020(10) 0.3667(7) 0.4593(3)
C53_4 C 0.6350(10) 0.7444(6) 0.4264(3)
H43_4 H 0.709595 0.737910 0.421167
C54_2 C 0.4779(10) 0.4196(8) 0.4474(4)
H44_2 H 0.495515 0.414035 0.426737
N5_4 N 0.7575(14) 0.5092(16) 0.3568(2)
C55_4 C 0.7550(12) 0.5154(8) 0.3872(2)
H45_4 H 0.821673 0.522053 0.397775
C56_4 C 0.8658(17) 0.5130(13) 0.3402(4)
H46_4 H 0.853028 0.507606 0.318521
H47_4 H 0.901464 0.567191 0.344357
H48_4 H 0.912785 0.466744 0.347029
C57_4 C 0.652(2) 0.473(3) 0.3417(4)
H49_4 H 0.662308 0.471309 0.319793
H50_4 H 0.638193 0.416072 0.349207
H51_4 H 0.590112 0.509749 0.346476
C58_2 C 0.3603(15) 0.3738(14) 0.4898(4)
H52_2 H 0.306628 0.329071 0.493403
H53_3 H 0.420533 0.368089 0.504130
H54_2 H 0.325541 0.429072 0.492406
C59_2 C 0.3501(14) 0.2996(11) 0.4396(5)
H55_2 H 0.297581 0.266947 0.451455
H56_2 H 0.312427 0.326728 0.422707
H57_2 H 0.406733 0.261725 0.431823
C60_3 C 0.4758(10) 0.8338(8) 0.4334(3)
H58_3 H 0.453918 0.892794 0.430403
H59_3 H 0.428811 0.796874 0.421369
H60_3 H 0.468793 0.819109 0.454715
C61_4 C 0.6460(17) 0.8954(11) 0.4100(5)
H61_4 H 0.597755 0.944697 0.410777
H62_4 H 0.713430 0.907638 0.420926
H63_4 H 0.663213 0.882338 0.388939
C45_4 C 0.8006(10) 0.0426(7) 0.2135(5)
H36_4 H 0.772101 0.098363 0.213219
C46_4 C 0.9095(11) 0.0277(6) 0.2181(4)
H37_4 H 0.957775 0.073348 0.221891
N4_3 N 0.9020(10) 0.1333(7) 0.5407(3)
C54_3 C 0.9779(10) 0.0804(8) 0.5526(4)
H44_3 H 0.995515 0.085965 0.573263
C58_3 C 0.8603(15) 0.1262(14) 0.5102(4)
H52_3 H 0.806628 0.170929 0.506597
H53_4 H 0.920533 0.131911 0.495870
H54_3 H 0.825541 0.070928 0.507594
C59_3 C 0.8501(14) 0.2004(11) 0.5604(5)
H55_3 H 0.797581 0.233053 0.548545
H56_3 H 0.812427 0.173272 0.577293
H57_3 H 0.906733 0.238275 0.568177
N4_4 N 0.0980(10) 0.6333(7) 0.9593(3)
C54_4 C 0.0221(10) 0.5804(8) 0.9474(4)
H44_4 H 0.004485 0.585965 0.926737
C58_4 C 0.1397(15) 0.6262(14) 0.9898(4)
H52_4 H 0.193372 0.670929 0.993403
H54_4 H 0.174459 0.570928 0.992406
C59_4 C 0.1499(14) 0.7004(11) 0.9396(5)
H55_4 H 0.202419 0.733053 0.951455
H56_4 H 0.187573 0.673272 0.922707
H57_4 H 0.093267 0.738275 0.931823
C60_4 C 0.0242(10) 0.1662(8) 0.9334(3)
H58_4 H 0.046082 0.107206 0.930403
H59_4 H 0.071189 0.203126 0.921369
H60_4 H 0.031207 0.180891 0.954715
C47_4 C 0.2198(16) 0.9838(12) 0.2569(5)
H38_4 H 0.242991 0.926618 0.256292
H39_4 H 0.097499 0.965085 0.287336
loop_
_geom_bond_atom_site_label_1
_geom_bond_atom_site_label_2
_geom_bond_site_symmetry_1
_geom_bond_site_symmetry_2
H49 C57 1_555 1_555
H50 C57 1_555 1_555
Cd4 O18 1_555 1_555
Cd1 O2 1_555 1_555
Ni1 O7 1_555 1_555
O2 C10 1_555 1_555
O3 C20 1_555 1_555
O4 C20 1_555 1_555
O6 Cd1 1_555 1_555
O7 C6 1_555 1_555
O8 Ni1 1_555 1_555
N1 Ni1 1_555 1_555
N2 Ni1 1_555 1_555
C1 C4 1_555 1_555
C2 H1 1_555 1_555
C3 C8 1_555 1_555
C4 H2 1_555 1_555
C5 C2 1_555 1_555
C6 C7 1_555 1_555
C8 H3 1_555 1_555
C9 N2 1_555 1_555
H4 C9 1_555 1_555
C10 O6 1_555 1_555
C11 C12 1_555 1_555
C12 H5 1_555 1_555
C13 C9 1_555 1_555
C16 C2 1_555 1_555
C18 O10 1_555 1_555
C19 O8 1_555 1_555
C20 C3 1_555 1_555
C21 C5 1_555 1_555
C22 C12 1_555 1_555
C23 C11 1_555 1_555
H10 C23 1_555 1_555
C24 C3 1_555 1_555
H11 C24 1_555 1_555
C25 C4 1_555 1_555
C26 C5 1_555 1_555
C27 C26 1_555 1_555
C28 C24 1_555 1_555
C29 C16 1_555 1_555
C30 C29 1_555 1_555
H13 C30 1_555 1_555
H14 C30 1_555 1_555
H15 C30 1_555 1_555
C31 C29 1_555 1_555
H16 C31 1_555 1_555
H17 C31 1_555 1_555
H18 C31 1_555 1_555
C32 H19 1_555 1_555
H20 C32 1_555 1_555
H21 C32 1_555 1_555
C33 H22 1_555 1_555
H23 C33 1_555 1_555
H24 C33 1_555 1_555
C34 H25 1_555 1_555
H26 C34 1_555 1_555
H27 C34 1_555 1_555
C35 C22 1_555 1_555
C38 C29 1_555 1_555
H28 C38 1_555 1_555
H29 C38 1_555 1_555
H30 C38 1_555 1_555
C50 C1 1_555 1_555
H41 C50 1_555 1_555
C51 C18 1_555 1_555
C52 C25 1_555 1_555
H42 C52 1_555 1_555
Cd2 O3 1_555 1_555
O11 Cd2 1_555 1_555
O12 Cd2 1_555 1_555
N3 C53 1_555 1_555
C53 O12 1_555 1_555
H43 C53 1_555 1_555
N5 C55 1_555 1_555
C55 O11 1_555 1_555
H45 C55 1_555 1_555
C56 N5 1_555 1_555
H46 C56 1_555 1_555
H47 C56 1_555 1_555
C61 N3 1_555 1_555
H61 C61 1_555 1_555
H62 C61 1_555 1_555
H63 C61 1_555 1_555
O14 Cd1 1_555 1_555
O15 Cd1 1_555 1_555
O16 Cd2 1_555 1_555
C1 C10 1_555 1_555
C6 C16 1_555 1_555
C7 C21 1_555 1_555
C8 C26 1_555 1_555
C11 C25 1_555 1_555
C13 C19 1_555 1_555
C13 C23 1_555 1_555
C19 C22 1_555 1_555
C27 C28 1_555 1_555
C32 C35 1_555 1_555
C33 C35 1_555 1_555
C34 C35 1_555 1_555
C50 C51 1_555 1_555
C51 C52 1_555 1_555
Cd5 O1 1_555 1_555
O5 C44 1_555 1_555
O9 C44 1_555 1_555
H6 C14 1_555 1_555
H7 C15 1_555 1_555
H8 C17 1_555 1_555
C36 C14 1_555 1_555
C37 C15 1_555 1_555
C39 C37 1_555 1_555
H31 C39 1_555 1_555
C40 C36 1_555 1_555
C41 C37 1_555 1_555
H33 C41 1_555 1_555
C42 C36 1_555 1_555
H34 C42 1_555 1_555
C43 C42 1_555 1_555
H35 C43 1_555 1_555
C47 H38 1_555 1_555
C48 C39 1_555 1_555
H39 C48 1_555 1_555
C49 C41 1_555 1_555
H40 C49 1_555 1_555
H58 C60 1_555 1_555
H59 C60 1_555 1_555
H60 C60 1_555 1_555
Cd3 O9 1_555 1_555
Cd7 O5 1_555 1_555
C14 C15 1_555 1_555
C47 C48 1_555 1_555
C47 C49 1_555 1_555
Cd6 O3_2 1_555 1_555
O11_2 Cd6 1_555 1_555
O12_2 Cd6 1_555 1_555
N3_2 C53_2 1_555 1_555
C53_2 O12_2 1_555 1_555
H43_2 C53_2 1_555 1_555
N5_2 C55_2 1_555 1_555
C55_2 O11_2 1_555 1_555
H45_2 C55_2 1_555 1_555
C56_2 N5_2 1_555 1_555
H46_2 C56_2 1_555 1_555
H47_2 C56_2 1_555 1_555
C60_2 N3_2 1_555 1_555
H58_2 C60_2 1_555 1_555
H59_2 C60_2 1_555 1_555
H60_2 C60_2 1_555 1_555
C61_2 N3_2 1_555 1_555
H61_2 C61_2 1_555 1_555
H62_2 C61_2 1_555 1_555
H63_2 C61_2 1_555 1_555
O16_2 Cd6 1_555 1_555
Ni1_2 O7_2 1_555 1_555
O1_2 C18_2 1_555 1_555
O4_2 C20_2 1_555 1_555
O5_2 C44_2 1_555 1_555
O7_2 C6_2 1_555 1_555
O8_2 Ni1_2 1_555 1_555
N1_2 Ni1_2 1_555 1_555
N2_2 Ni1_2 1_555 1_555
O17 C44_2 1_555 1_555
C1_2 C4_2 1_555 1_555
C2_2 H1_2 1_555 1_555
C3_2 C8_2 1_555 1_555
C4_2 H2_2 1_555 1_555
C5_2 C2_2 1_555 1_555
C6_2 C7_2 1_555 1_555
C7_2 C17_2 1_555 1_555
C8_2 H3_2 1_555 1_555
C9_2 N2_2 1_555 1_555
H4_2 C9_2 1_555 1_555
C10_2 O6_2 1_555 1_555
C11_2 C12_2 1_555 1_555
C12_2 H5_2 1_555 1_555
C13_2 C9_2 1_555 1_555
C14_2 N2_2 1_555 1_555
H6_2 C14_2 1_555 1_555
C15_2 N1_2 1_555 1_555
H7_2 C15_2 1_555 1_555
C16_2 C2_2 1_555 1_555
C17_2 N1_2 1_555 1_555
H8_2 C17_2 1_555 1_555
C18_2 O18 1_555 1_555
C19_2 O8_2 1_555 1_555
C20_2 C3_2 1_555 1_555
C21_2 C5_2 1_555 1_555
H9_2 C21_2 1_555 1_555
C22_2 C12_2 1_555 1_555
C23_2 C11_2 1_555 1_555
H10_2 C23_2 1_555 1_555
C24_2 C3_2 1_555 1_555
H11_2 C24_2 1_555 1_555
C25_2 C4_2 1_555 1_555
C26_2 C5_2 1_555 1_555
C27_2 C26_2 1_555 1_555
H12_2 C27_2 1_555 1_555
C28_2 C24_2 1_555 1_555
C29_2 C16_2 1_555 1_555
C30_2 C29_2 1_555 1_555
H13_2 C30_2 1_555 1_555
H15_2 C30_2 1_555 1_555
C31_2 C29_2 1_555 1_555
H16_2 C31_2 1_555 1_555
H17_2 C31_2 1_555 1_555
H18_2 C31_2 1_555 1_555
C32_2 H19_2 1_555 1_555
H21_2 C32_2 1_555 1_555
C35_2 C22_2 1_555 1_555
C36_2 C14_2 1_555 1_555
C37_2 C15_2 1_555 1_555
C38_2 C29_2 1_555 1_555
H28_2 C38_2 1_555 1_555
H29_2 C38_2 1_555 1_555
C39_2 C37_2 1_555 1_555
H31_2 C39_2 1_555 1_555
C40_2 C36_2 1_555 1_555
H32_2 C40_2 1_555 1_555
C41_2 C37_2 1_555 1_555
H33_2 C41_2 1_555 1_555
C42_2 C36_2 1_555 1_555
H34_2 C42_2 1_555 1_555
C43_2 C42_2 1_555 1_555
H35_2 C43_2 1_555 1_555
C44_2 C28_2 1_555 1_555
C47_2 H38_2 1_555 1_555
C48_2 C39_2 1_555 1_555
H39_2 C48_2 1_555 1_555
C49_2 C41_2 1_555 1_555
H40_2 C49_2 1_555 1_555
C50_2 C1_2 1_555 1_555
H41_2 C50_2 1_555 1_555
C51_2 C18_2 1_555 1_555
C52_2 C25_2 1_555 1_555
H42_2 C52_2 1_555 1_555
Cd4 O1_2 1_555 1_555
Cd7_2 O5_2 1_555 1_555
C1_2 C10_2 1_555 1_555
C6_2 C16_2 1_555 1_555
C7_2 C21_2 1_555 1_555
C8_2 C26_2 1_555 1_555
C11_2 C25_2 1_555 1_555
C13_2 C19_2 1_555 1_555
C13_2 C23_2 1_555 1_555
C14_2 C15_2 1_555 1_555
C19_2 C22_2 1_555 1_555
C27_2 C28_2 1_555 1_555
C32_2 C35_2 1_555 1_555
C47_2 C48_2 1_555 1_555
C47_2 C49_2 1_555 1_555
C50_2 C51_2 1_555 1_555
C51_2 C52_2 1_555 1_555
N4 C54 1_555 1_555
C54 O13_2 1_555 1_555
H44 C54 1_555 1_555
H49_2 C57_2 1_555 1_555
H50_2 C57_2 1_555 1_555
C58 N4 1_555 1_555
H52 C58 1_555 1_555
H54 C58 1_555 1_555
C59 N4 1_555 1_555
H55 C59 1_555 1_555
H56 C59 1_555 1_555
H57 C59 1_555 1_555
H36 C45 1_555 1_555
H37 C46 1_555 1_555
C45 C46 1_555 1_555
Cd3 O2_2 1_555 1_555
C33_2 H22_2 1_555 1_555
H23_2 C33_2 1_555 1_555
H24_2 C33_2 1_555 1_555
C34_2 H25_2 1_555 1_555
H26_2 C34_2 1_555 1_555
O14_2 Cd3 1_555 1_555
O15_2 Cd3 1_555 1_555
O19_2 Cd3 1_555 1_555
O16_2 C44_3 1_555 1_555
O9_2 C44_3 1_555 1_555
H6_3 C14_3 1_555 1_555
H7_3 C15_3 1_555 1_555
H8_3 C17_3 1_555 1_555
C36_3 C14_3 1_555 1_555
C37_3 C15_3 1_555 1_555
C39_3 C37_3 1_555 1_555
H31_3 C39_3 1_555 1_555
C40_3 C36_3 1_555 1_555
C41_3 C37_3 1_555 1_555
H33_3 C41_3 1_555 1_555
C42_3 C36_3 1_555 1_555
H34_3 C42_3 1_555 1_555
C43_3 C42_3 1_555 1_555
H35_3 C43_3 1_555 1_555
C45_2 C43_3 1_555 1_555
H36_2 C45_2 1_555 1_555
C46_2 C40_3 1_555 1_555
H37_2 C46_2 1_555 1_555
C48_3 C39_3 1_555 1_555
C49_3 C41_3 1_555 1_555
H40_3 C49_3 1_555 1_555
C14_3 C15_3 1_555 1_555
C45_2 C46_2 1_555 1_555
Cd4 O2_3 1_555 1_555
Ni1_3 O7_3 1_555 1_555
O14_2 C18_3 1_555 1_555
O2_3 C10_3 1_555 1_555
O15 C20_3 1_555 1_555
O6_3 Cd4 1_555 1_555
O7_3 C6_3 1_555 1_555
O8_3 Ni1_3 1_555 1_555
N1_3 Ni1_3 1_555 1_555
N2_3 Ni1_3 1_555 1_555
C1_3 C4_3 1_555 1_555
C2_3 H1_3 1_555 1_555
C3_3 C8_3 1_555 1_555
C4_3 H2_3 1_555 1_555
C5_3 C2_3 1_555 1_555
C6_3 C7_3 1_555 1_555
C8_3 H3_3 1_555 1_555
C9_3 N2_3 1_555 1_555
H4_3 C9_3 1_555 1_555
C10_3 O6_3 1_555 1_555
C11_3 C12_3 1_555 1_555
C12_3 H5_3 1_555 1_555
C13_3 C9_3 1_555 1_555
C16_3 C2_3 1_555 1_555
C18_3 O19_2 1_555 1_555
C19_3 O8_3 1_555 1_555
C20_3 C3_3 1_555 1_555
C21_3 C5_3 1_555 1_555
C22_3 C12_3 1_555 1_555
C23_3 C11_3 1_555 1_555
H10_3 C23_3 1_555 1_555
C24_3 C3_3 1_555 1_555
H11_3 C24_3 1_555 1_555
C25_3 C4_3 1_555 1_555
C26_3 C5_3 1_555 1_555
C27_3 C26_3 1_555 1_555
C28_3 C24_3 1_555 1_555
C29_3 C16_3 1_555 1_555
C30_3 C29_3 1_555 1_555
H13_3 C30_3 1_555 1_555
H14_3 C30_3 1_555 1_555
H15_3 C30_3 1_555 1_555
C31_3 C29_3 1_555 1_555
H16_3 C31_3 1_555 1_555
H17_3 C31_3 1_555 1_555
H18_3 C31_3 1_555 1_555
C32_3 H19_3 1_555 1_555
H20_3 C32_3 1_555 1_555
H21_3 C32_3 1_555 1_555
C33_3 H22_3 1_555 1_555
H23_3 C33_3 1_555 1_555
H24_3 C33_3 1_555 1_555
C34_3 H25_3 1_555 1_555
H26_3 C34_3 1_555 1_555
H27_3 C34_3 1_555 1_555
C35_3 C22_3 1_555 1_555
C38_3 C29_3 1_555 1_555
H28_3 C38_3 1_555 1_555
H29_3 C38_3 1_555 1_555
H30_3 C38_3 1_555 1_555
C50_3 C1_3 1_555 1_555
H41_3 C50_3 1_555 1_555
C51_3 C18_3 1_555 1_555
C52_3 C25_3 1_555 1_555
H42_3 C52_3 1_555 1_555
Cd7 O19_2 1_555 1_555
C1_3 C10_3 1_555 1_555
C6_3 C16_3 1_555 1_555
C7_3 C21_3 1_555 1_555
C8_3 C26_3 1_555 1_555
C11_3 C25_3 1_555 1_555
C13_3 C19_3 1_555 1_555
C13_3 C23_3 1_555 1_555
C19_3 C22_3 1_555 1_555
C27_3 C28_3 1_555 1_555
C32_3 C35_3 1_555 1_555
C33_3 C35_3 1_555 1_555
C34_3 C35_3 1_555 1_555
C50_3 C51_3 1_555 1_555
C51_3 C52_3 1_555 1_555
Cd7_2 O3_3 1_555 1_555
O11_3 Cd7_2 1_555 1_555
O12_3 Cd7_2 1_555 1_555
O13_3 Cd7_2 1_555 1_555
N3_3 C53_3 1_555 1_555
C53_3 O12_3 1_555 1_555
H43_3 C53_3 1_555 1_555
N5_3 C55_3 1_555 1_555
C55_3 O11_3 1_555 1_555
H45_3 C55_3 1_555 1_555
C56_3 N5_3 1_555 1_555
H46_3 C56_3 1_555 1_555
H47_3 C56_3 1_555 1_555
H48_3 C56_3 1_555 1_555
C57_3 N5_3 1_555 1_555
H49_3 C57_3 1_555 1_555
H50_3 C57_3 1_555 1_555
H51_3 C57_3 1_555 1_555
C61_3 N3_3 1_555 1_555
H61_3 C61_3 1_555 1_555
H62_3 C61_3 1_555 1_555
H63_3 C61_3 1_555 1_555
O19 Cd7_2 1_555 1_555
Cd5 O2_4 1_555 1_555
C33_4 H22_4 1_555 1_555
H23_4 C33_4 1_555 1_555
H24_4 C33_4 1_555 1_555
C34_4 H25_4 1_555 1_555
H26_4 C34_4 1_555 1_555
C47_3 H38_3 1_555 1_555
Ni1_4 O7_4 1_555 1_555
O3_4 C20_4 1_555 1_555
O15_2 C20_4 1_555 1_555
O16 C44_4 1_555 1_555
O7_4 C6_4 1_555 1_555
O8_4 Ni1_4 1_555 1_555
N1_4 Ni1_4 1_555 1_555
N2_4 Ni1_4 1_555 1_555
O17_2 C44_4 1_555 1_555
C1_4 C4_4 1_555 1_555
C2_4 H1_4 1_555 1_555
C3_4 C8_4 1_555 1_555
C4_4 H2_4 1_555 1_555
C5_4 C2_4 1_555 1_555
C6_4 C7_4 1_555 1_555
C7_4 C17_4 1_555 1_555
C8_4 H3_4 1_555 1_555
C9_4 N2_4 1_555 1_555
H4_4 C9_4 1_555 1_555
C10_4 O6_4 1_555 1_555
C11_4 C12_4 1_555 1_555
C12_4 H5_4 1_555 1_555
C13_4 C9_4 1_555 1_555
C14_4 N2_4 1_555 1_555
H6_4 C14_4 1_555 1_555
C15_4 N1_4 1_555 1_555
H7_4 C15_4 1_555 1_555
C16_4 C2_4 1_555 1_555
C17_4 N1_4 1_555 1_555
H8_4 C17_4 1_555 1_555
C18_4 O19 1_555 1_555
C19_4 O8_4 1_555 1_555
C20_4 C3_4 1_555 1_555
C21_4 C5_4 1_555 1_555
H9_4 C21_4 1_555 1_555
C22_4 C12_4 1_555 1_555
C23_4 C11_4 1_555 1_555
H10_4 C23_4 1_555 1_555
C24_4 C3_4 1_555 1_555
H11_4 C24_4 1_555 1_555
C25_4 C4_4 1_555 1_555
C26_4 C5_4 1_555 1_555
C27_4 C26_4 1_555 1_555
H12_4 C27_4 1_555 1_555
C28_4 C24_4 1_555 1_555
C29_4 C16_4 1_555 1_555
C30_4 C29_4 1_555 1_555
H13_4 C30_4 1_555 1_555
H15_4 C30_4 1_555 1_555
C31_4 C29_4 1_555 1_555
H16_4 C31_4 1_555 1_555
H17_4 C31_4 1_555 1_555
H18_4 C31_4 1_555 1_555
C32_4 H19_4 1_555 1_555
H21_4 C32_4 1_555 1_555
C35_4 C22_4 1_555 1_555
C36_4 C14_4 1_555 1_555
C37_4 C15_4 1_555 1_555
C38_4 C29_4 1_555 1_555
H28_4 C38_4 1_555 1_555
H29_4 C38_4 1_555 1_555
C39_4 C37_4 1_555 1_555
H31_4 C39_4 1_555 1_555
C40_4 C36_4 1_555 1_555
H32_4 C40_4 1_555 1_555
C41_4 C37_4 1_555 1_555
H33_4 C41_4 1_555 1_555
C42_4 C36_4 1_555 1_555
H34_4 C42_4 1_555 1_555
C43_4 C42_4 1_555 1_555
H35_4 C43_4 1_555 1_555
C44_4 C28_4 1_555 1_555
C45_3 C43_4 1_555 1_555
H36_3 C45_3 1_555 1_555
C46_3 C40_4 1_555 1_555
H37_3 C46_3 1_555 1_555
C48_4 C39_4 1_555 1_555
C49_4 C41_4 1_555 1_555
H40_4 C49_4 1_555 1_555
C50_4 C1_4 1_555 1_555
H41_4 C50_4 1_555 1_555
C51_4 C18_4 1_555 1_555
C52_4 C25_4 1_555 1_555
H42_4 C52_4 1_555 1_555
Cd7 O3_4 1_555 1_555
O11_4 Cd7 1_555 1_555
O12_4 Cd7 1_555 1_555
O13_4 Cd7 1_555 1_555
N3_4 C53_4 1_555 1_555
N4_2 C54_2 1_555 1_555
C53_4 O12_4 1_555 1_555
H43_4 C53_4 1_555 1_555
C54_2 O13_4 1_555 1_555
H44_2 C54_2 1_555 1_555
N5_4 C55_4 1_555 1_555
C55_4 O11_4 1_555 1_555
H45_4 C55_4 1_555 1_555
C56_4 N5_4 1_555 1_555
H46_4 C56_4 1_555 1_555
H47_4 C56_4 1_555 1_555
H48_4 C56_4 1_555 1_555
C57_4 N5_4 1_555 1_555
H49_4 C57_4 1_555 1_555
H50_4 C57_4 1_555 1_555
H51_4 C57_4 1_555 1_555
C58_2 N4_2 1_555 1_555
H52_2 C58_2 1_555 1_555
H53_3 C58_2 1_555 1_555
H54_2 C58_2 1_555 1_555
C59_2 N4_2 1_555 1_555
H55_2 C59_2 1_555 1_555
H56_2 C59_2 1_555 1_555
H57_2 C59_2 1_555 1_555
C60_3 N3_4 1_555 1_555
H58_3 C60_3 1_555 1_555
H59_3 C60_3 1_555 1_555
H60_3 C60_3 1_555 1_555
C61_4 N3_4 1_555 1_555
H61_4 C61_4 1_555 1_555
H62_4 C61_4 1_555 1_555
H63_4 C61_4 1_555 1_555
C1_4 C10_4 1_555 1_555
C6_4 C16_4 1_555 1_555
C7_4 C21_4 1_555 1_555
C8_4 C26_4 1_555 1_555
C11_4 C25_4 1_555 1_555
C13_4 C19_4 1_555 1_555
C13_4 C23_4 1_555 1_555
C14_4 C15_4 1_555 1_555
C19_4 C22_4 1_555 1_555
C27_4 C28_4 1_555 1_555
C32_4 C35_4 1_555 1_555
C45_3 C46_3 1_555 1_555
C50_4 C51_4 1_555 1_555
C51_4 C52_4 1_555 1_555
H36_4 C45_4 1_555 1_555
H37_4 C46_4 1_555 1_555
N4_3 C54_3 1_555 1_555
H44_3 C54_3 1_555 1_555
C58_3 N4_3 1_555 1_555
H52_3 C58_3 1_555 1_555
H53_4 C58_3 1_555 1_555
H54_3 C58_3 1_555 1_555
C59_3 N4_3 1_555 1_555
H55_3 C59_3 1_555 1_555
H56_3 C59_3 1_555 1_555
H57_3 C59_3 1_555 1_555
C45_4 C46_4 1_555 1_555
N4_4 C54_4 1_555 1_555
H44_4 C54_4 1_555 1_555
C58_4 N4_4 1_555 1_555
H52_4 C58_4 1_555 1_555
H54_4 C58_4 1_555 1_555
C59_4 N4_4 1_555 1_555
H55_4 C59_4 1_555 1_555
H56_4 C59_4 1_555 1_555
H57_4 C59_4 1_555 1_555
H58_4 C60_4 1_555 1_555
H59_4 C60_4 1_555 1_555
H60_4 C60_4 1_555 1_555
C47_4 H38_4 1_555 1_555

#END
