
###############################################################################
#
# This file contains modified crystal structure data generated from the
# MOF subset of the Cambridge Structural Database (CSD) v543 
# hosted by the Cambridge Crystallographic Data Centre (CCDC).
#
# This work is licensed under the Creative Commons
# Attribution-NonCommercial-ShareAlike 4.0 International License.
# To view a copy of this license, visit
# http://creativecommons.org/licenses/by-nc-sa/4.0/
# or send a letter to
# Creative Commons, PO Box 1866, Mountain View, CA 94042, USA.
#
# CIF created using the CSD Python API on 29 September 2022
# The structure has been converted into the P1 space group
# The structure has a 3D framework
# The original CSD entry KELJER is in the cubic crystal system
# The framework has been calculated to contain at least 10.0% void space
# The void calculation uses a probe of radius 1.32A, grid spacing 0.4
# The framework is charged, counterions have been retained in the structure
#
###############################################################################

data_KELJER
_chemical_formula_moiety         '(Br111 Cu64 35-)n'
_symmetry_cell_setting           triclinic
_symmetry_space_group_name_H-M   'P 1'
_symmetry_Int_Tables_number      1
_space_group_name_Hall           'P 1'
loop_
_symmetry_equiv_pos_site_id
_symmetry_equiv_pos_as_xyz
1 x,y,z
_cell_length_a                   24.5326(6)
_cell_length_b                   24.5326(6)
_cell_length_c                   24.5326(6)
_cell_angle_alpha                90
_cell_angle_beta                 90
_cell_angle_gamma                90
_cell_volume                     14764.9
loop_
_atom_site_label
_atom_site_type_symbol
_atom_site_fract_x
_atom_site_fract_y
_atom_site_fract_z
Br1 Br 0.7500 0.7500 0.0000
Br2 Br 0.74356(12) 0.6250 0.1250
Cu1 Cu 0.6954(5) 0.6954(5) 0.0546(5)
Br3 Br 0.6250 0.74356(12) 0.1250
Br4 Br 0.6250 0.6250 0.00644(12)
Cu3 Cu 0.6954(5) 0.5546(5) 0.1954(5)
Cu4 Cu 0.5546(5) 0.6954(5) 0.1954(5)
Cu5 Cu 0.5546(5) 0.5546(5) 0.0546(5)
Br1_2 Br -0.0000 0.7500 0.7500
Br2_2 Br 0.1250 0.74356(12) 0.6250
Cu1_2 Cu 0.0546(5) 0.6954(5) 0.6954(5)
Br3_2 Br 0.1250 0.6250 0.74356(12)
Br4_2 Br 0.00644(12) 0.6250 0.6250
Cu3_2 Cu 0.1954(5) 0.6954(5) 0.5546(5)
Cu4_2 Cu 0.1954(5) 0.5546(5) 0.6954(5)
Cu5_2 Cu 0.0546(5) 0.5546(5) 0.5546(5)
Br1_3 Br 0.7500 -0.0000 0.7500
Br2_3 Br 0.6250 0.1250 0.74356(12)
Cu1_3 Cu 0.6954(5) 0.0546(5) 0.6954(5)
Br3_3 Br 0.74356(12) 0.1250 0.6250
Br4_3 Br 0.6250 0.00644(12) 0.6250
Cu3_3 Cu 0.5546(5) 0.1954(5) 0.6954(5)
Cu4_3 Cu 0.6954(5) 0.1954(5) 0.5546(5)
Cu5_3 Cu 0.5546(5) 0.0546(5) 0.5546(5)
Br1_4 Br 0.7500 0.2500 0.5000
Br3_4 Br 0.6250 0.24356(12) 0.6250
Br4_4 Br 0.6250 0.1250 0.50644(12)
Br5 Br 0.8750 0.3750 0.49356(12)
Br6 Br 0.75644(12) 0.3750 0.3750
Br7 Br 0.8750 0.25644(12) 0.3750
Cu2 Cu 0.8046(5) 0.3046(5) 0.4454(5)
Br1_5 Br 0.5000 0.5000 0.0000
Br2_4 Br 0.50644(12) 0.6250 0.1250
Br3_5 Br 0.6250 0.50644(12) 0.1250
Br1_6 Br 0.5000 0.5000 1.0000
Br5_2 Br 0.3750 0.3750 0.99356(12)
Br6_2 Br 0.49356(12) 0.3750 0.8750
Br7_2 Br 0.3750 0.49356(12) 0.8750
Cu2_2 Cu 0.4454(5) 0.4454(5) 0.9454(5)
Br1_7 Br 1.0000 0.2500 0.2500
Br5_3 Br 0.99356(12) 0.3750 0.3750
Br7_3 Br 0.8750 0.3750 0.25644(12)
Cu2_3 Cu 0.9454(5) 0.3046(5) 0.3046(5)
Br1_8 Br 0.2500 0.5000 0.7500
Br2_5 Br 0.1250 0.50644(12) 0.6250
Br4_5 Br 0.24356(12) 0.6250 0.6250
Br5_4 Br 0.25644(12) 0.3750 0.8750
Br7_4 Br 0.3750 0.3750 0.75644(12)
Cu2_4 Cu 0.3046(5) 0.4454(5) 0.8046(5)
Br1_9 Br 0.7500 0.5000 0.2500
Br2_6 Br 0.6250 0.6250 0.24356(12)
Br5_5 Br 0.8750 0.49356(12) 0.3750
Cu2_5 Cu 0.8046(5) 0.4454(5) 0.3046(5)
Br1_10 Br 0.5000 0.2500 0.7500
Br3_6 Br 0.50644(12) 0.1250 0.6250
Br5_6 Br 0.3750 0.25644(12) 0.8750
Cu2_6 Cu 0.4454(5) 0.3046(5) 0.8046(5)
Br1_11 Br 0.2500 0.7500 0.5000
Br4_6 Br 0.1250 0.6250 0.50644(12)
Br5_7 Br 0.3750 0.8750 0.49356(12)
Br6_3 Br 0.25644(12) 0.8750 0.3750
Br7_5 Br 0.3750 0.75644(12) 0.3750
Cu2_7 Cu 0.3046(5) 0.8046(5) 0.4454(5)
Br1_12 Br 0.5000 0.7500 0.2500
Br5_8 Br 0.49356(12) 0.8750 0.3750
Br7_6 Br 0.3750 0.8750 0.25644(12)
Cu2_8 Cu 0.4454(5) 0.8046(5) 0.3046(5)
Br1_13 Br -0.0000 0.5000 0.5000
Br1_14 Br 1.0000 0.5000 0.5000
Cu2_9 Cu 0.9454(5) 0.4454(5) 0.4454(5)
Br1_15 Br 0.2500 1.0000 0.2500
Br5_9 Br 0.3750 0.99356(12) 0.3750
Cu2_10 Cu 0.3046(5) 0.9454(5) 0.3046(5)
Br1_16 Br 0.2500 0.2500 1.0000
Cu2_11 Cu 0.3046(5) 0.3046(5) 0.9454(5)
Br1_17 Br 0.5000 -0.0000 0.5000
Br1_18 Br 0.5000 1.0000 0.5000
Cu2_12 Cu 0.4454(5) 0.9454(5) 0.4454(5)
Br1_19 Br 0.7500 0.7500 1.0000
Br5_10 Br 0.8750 0.8750 0.99356(12)
Br6_4 Br 0.75644(12) 0.8750 0.8750
Br7_7 Br 0.8750 0.75644(12) 0.8750
Cu2_13 Cu 0.8046(5) 0.8046(5) 0.9454(5)
Br1_20 Br 1.0000 0.7500 0.7500
Br5_11 Br 0.99356(12) 0.8750 0.8750
Br7_8 Br 0.8750 0.8750 0.75644(12)
Cu2_14 Cu 0.9454(5) 0.8046(5) 0.8046(5)
Br1_21 Br 0.7500 1.0000 0.7500
Br5_12 Br 0.8750 0.99356(12) 0.8750
Cu2_15 Cu 0.8046(5) 0.9454(5) 0.8046(5)
Br1_22 Br 1.0000 1.0000 1.0000
Cu2_16 Cu 0.9454(5) 0.9454(5) 0.9454(5)
Br1_23 Br 0.5000 0.0000 0.0000
Br5_13 Br 0.6250 0.1250 0.00644(12)
Br6_5 Br 0.6250 0.00644(12) 0.1250
Br7_9 Br 0.50644(12) 0.1250 0.1250
Cu2_17 Cu 0.5546(5) 0.0546(5) 0.0546(5)
Br1_24 Br 0.5000 1.0000 1.0000
Br2_7 Br 0.3750 0.99356(12) 0.8750
Cu1_4 Cu 0.4454(5) 0.9454(5) 0.9454(5)
Br3_7 Br 0.49356(12) 0.8750 0.8750
Br4_7 Br 0.3750 0.8750 0.99356(12)
Cu3_4 Cu 0.3046(5) 0.9454(5) 0.8046(5)
Cu4_4 Cu 0.4454(5) 0.8046(5) 0.8046(5)
Cu5_4 Cu 0.3046(5) 0.8046(5) 0.9454(5)
Br1_25 Br -0.0000 0.2500 0.7500
Br5_14 Br 0.1250 0.1250 0.74356(12)
Br6_6 Br 0.1250 0.24356(12) 0.6250
Br7_10 Br 0.00644(12) 0.1250 0.6250
Cu2_18 Cu 0.0546(5) 0.1954(5) 0.6954(5)
Br1_26 Br 1.0000 0.2500 0.7500
Br2_8 Br 0.8750 0.25644(12) 0.8750
Cu1_5 Cu 0.9454(5) 0.3046(5) 0.8046(5)
Br3_8 Br 0.99356(12) 0.3750 0.8750
Br4_8 Br 0.8750 0.3750 0.75644(12)
Cu3_5 Cu 0.8046(5) 0.3046(5) 0.9454(5)
Cu4_5 Cu 0.9454(5) 0.4454(5) 0.9454(5)
Cu5_5 Cu 0.8046(5) 0.4454(5) 0.8046(5)
Br1_27 Br 0.2500 0.5000 0.2500
Br2_9 Br 0.3750 0.49356(12) 0.3750
Cu1_6 Cu 0.3046(5) 0.4454(5) 0.3046(5)
Br3_9 Br 0.25644(12) 0.3750 0.3750
Br4_9 Br 0.3750 0.3750 0.25644(12)
Br5_15 Br 0.1250 0.6250 0.24356(12)
Br6_7 Br 0.1250 0.50644(12) 0.1250
Br7_11 Br 0.24356(12) 0.6250 0.1250
Cu2_19 Cu 0.1954(5) 0.5546(5) 0.1954(5)
Cu3_6 Cu 0.4454(5) 0.4454(5) 0.4454(5)
Cu4_6 Cu 0.3046(5) 0.3046(5) 0.4454(5)
Cu5_6 Cu 0.4454(5) 0.3046(5) 0.3046(5)
Br1_28 Br 0.5000 0.2500 0.2500
Br2_10 Br 0.49356(12) 0.3750 0.3750
Br4_10 Br 0.3750 0.25644(12) 0.3750
Br5_16 Br 0.6250 0.24356(12) 0.1250
Br7_12 Br 0.6250 0.1250 0.24356(12)
Cu2_20 Cu 0.5546(5) 0.1954(5) 0.1954(5)
Br1_29 Br 0.2500 0.7500 0.0000
Br5_17 Br 0.1250 0.74356(12) 0.1250
Br7_13 Br 0.1250 0.6250 0.00644(12)
Cu2_21 Cu 0.1954(5) 0.6954(5) 0.0546(5)
Br1_30 Br 0.2500 0.7500 1.0000
Br2_11 Br 0.25644(12) 0.8750 0.8750
Br4_11 Br 0.3750 0.75644(12) 0.8750
Br1_31 Br -0.0000 -0.0000 0.5000
Br5_18 Br 0.1250 0.00644(12) 0.6250
Br7_14 Br 0.1250 0.1250 0.50644(12)
Cu2_22 Cu 0.0546(5) 0.0546(5) 0.5546(5)
Br1_32 Br 1.0000 1.0000 0.5000
Br2_12 Br 0.99356(12) 0.8750 0.3750
Cu1_7 Cu 0.9454(5) 0.9454(5) 0.4454(5)
Br3_10 Br 0.8750 0.8750 0.49356(12)
Br4_12 Br 0.8750 0.99356(12) 0.3750
Cu3_7 Cu 0.9454(5) 0.8046(5) 0.3046(5)
Cu4_7 Cu 0.8046(5) 0.8046(5) 0.4454(5)
Cu5_7 Cu 0.8046(5) 0.9454(5) 0.3046(5)
Br1_33 Br 0.7500 -0.0000 0.2500
Br5_19 Br 0.74356(12) 0.1250 0.1250
Cu2_23 Cu 0.6954(5) 0.0546(5) 0.1954(5)
Br1_34 Br 0.7500 1.0000 0.2500
Br2_13 Br 0.8750 0.8750 0.25644(12)
Br4_13 Br 0.75644(12) 0.8750 0.3750
Br1_35 Br 0.2500 0.2500 0.5000
Br2_14 Br 0.3750 0.3750 0.49356(12)
Br5_20 Br 0.24356(12) 0.1250 0.6250
Cu2_24 Cu 0.1954(5) 0.1954(5) 0.5546(5)
Br1_36 Br -0.0000 0.5000 0.0000
Br5_21 Br 0.00644(12) 0.6250 0.1250
Cu2_25 Cu 0.0546(5) 0.5546(5) 0.0546(5)
Br1_37 Br 1.0000 0.5000 1.0000
Br2_15 Br 0.8750 0.3750 0.99356(12)
Br3_11 Br 0.8750 0.49356(12) 0.8750
Br1_38 Br -0.0000 0.7500 0.2500
Cu2_26 Cu 0.0546(5) 0.6954(5) 0.1954(5)
Br1_39 Br 1.0000 0.7500 0.2500
Br2_16 Br 0.8750 0.75644(12) 0.3750
Br1_40 Br 0.2500 -0.0000 0.7500
Cu2_27 Cu 0.1954(5) 0.0546(5) 0.6954(5)
Br1_41 Br 0.2500 1.0000 0.7500
Br4_14 Br 0.3750 0.8750 0.75644(12)
Br1_42 Br 0.7500 0.2500 0.0000
Cu2_28 Cu 0.6954(5) 0.1954(5) 0.0546(5)
Br1_43 Br 0.7500 0.2500 1.0000
Br4_15 Br 0.75644(12) 0.3750 0.8750
Br1_44 Br 0.7500 0.7500 0.5000
Br5_22 Br 0.6250 0.6250 0.50644(12)
Br6_8 Br 0.6250 0.74356(12) 0.6250
Br7_15 Br 0.74356(12) 0.6250 0.6250
Cu2_29 Cu 0.6954(5) 0.6954(5) 0.5546(5)
Br1_45 Br 0.7500 0.5000 0.7500
Br5_23 Br 0.6250 0.50644(12) 0.6250
Br7_16 Br 0.6250 0.6250 0.74356(12)
Cu2_30 Cu 0.6954(5) 0.5546(5) 0.6954(5)
Br1_46 Br 0.5000 0.7500 0.7500
Br5_24 Br 0.50644(12) 0.6250 0.6250
Cu2_31 Cu 0.5546(5) 0.6954(5) 0.6954(5)
Br1_47 Br 0.5000 0.5000 0.5000
Cu2_32 Cu 0.5546(5) 0.5546(5) 0.5546(5)
Br1_48 Br 0.5000 -0.0000 1.0000
Br1_49 Br 0.5000 1.0000 0.0000
Br1_50 Br -0.0000 1.0000 0.5000
Br1_51 Br 1.0000 -0.0000 0.5000
Br1_52 Br -0.0000 0.5000 1.0000
Br1_53 Br 1.0000 0.5000 0.0000
Br1_54 Br -0.0000 0.2500 0.2500
Br2_17 Br 0.1250 0.24356(12) 0.1250
Cu1_8 Cu 0.0546(5) 0.1954(5) 0.1954(5)
Br3_12 Br 0.1250 0.1250 0.24356(12)
Br4_16 Br 0.00644(12) 0.1250 0.1250
Cu3_8 Cu 0.1954(5) 0.1954(5) 0.0546(5)
Cu4_8 Cu 0.1954(5) 0.0546(5) 0.1954(5)
Cu5_8 Cu 0.0546(5) 0.0546(5) 0.0546(5)
Br1_55 Br 0.2500 -0.0000 0.2500
Br3_13 Br 0.24356(12) 0.1250 0.1250
Br4_17 Br 0.1250 0.00644(12) 0.1250
Br1_56 Br 0.2500 0.2500 0.0000
Br4_18 Br 0.1250 0.1250 0.00644(12)
Br1_57 Br 0.0000 0.0000 0.0000
Br1_58 Br -0.0000 -0.0000 1.0000
Br1_59 Br -0.0000 1.0000 0.0000
Br1_60 Br -0.0000 1.0000 1.0000
Br1_61 Br 1.0000 0.0000 0.0000
Br1_62 Br 1.0000 -0.0000 1.0000
Br1_63 Br 1.0000 1.0000 0.0000
loop_
_geom_bond_atom_site_label_1
_geom_bond_atom_site_label_2
_geom_bond_site_symmetry_1
_geom_bond_site_symmetry_2
Br1 Cu1 1_555 1_555
Br2 Cu1 1_555 1_555
Cu1 Br3 1_555 1_555
Br3 Cu4 1_555 1_555
Br4 Cu1 1_555 1_555
Cu3 Br2 1_555 1_555
Cu5 Br4 1_555 1_555
Br1_2 Cu1_2 1_555 1_555
Br2_2 Cu1_2 1_555 1_555
Cu1_2 Br3_2 1_555 1_555
Br3_2 Cu4_2 1_555 1_555
Br4_2 Cu1_2 1_555 1_555
Cu3_2 Br2_2 1_555 1_555
Cu5_2 Br4_2 1_555 1_555
Br1_3 Cu1_3 1_555 1_555
Br2_3 Cu1_3 1_555 1_555
Cu1_3 Br3_3 1_555 1_555
Br3_3 Cu4_3 1_555 1_555
Br4_3 Cu1_3 1_555 1_555
Cu3_3 Br2_3 1_555 1_555
Cu5_3 Br4_3 1_555 1_555
Br1_4 Cu4_3 1_555 1_555
Cu4_3 Br3_4 1_555 1_555
Br3_4 Cu3_3 1_555 1_555
Br4_4 Cu4_3 1_555 1_555
Br5 Cu2 1_555 1_555
Br6 Cu2 1_555 1_555
Br7 Cu2 1_555 1_555
Cu2 Br1_4 1_555 1_555
Cu5_3 Br4_4 1_555 1_555
Br1_5 Cu5 1_555 1_555
Br2_4 Cu5 1_555 1_555
Cu5 Br3_5 1_555 1_555
Br3_5 Cu3 1_555 1_555
Cu4 Br2_4 1_555 1_555
Br5_2 Cu2_2 1_555 1_555
Br6_2 Cu2_2 1_555 1_555
Br7_2 Cu2_2 1_555 1_555
Cu2_2 Br1_6 1_555 1_555
Br5_3 Cu2_3 1_555 1_555
Br7 Cu2_3 1_555 1_555
Br7_3 Cu2_3 1_555 1_555
Cu2_3 Br1_7 1_555 1_555
Br1_8 Cu4_2 1_555 1_555
Br2_5 Cu4_2 1_555 1_555
Br4_5 Cu4_2 1_555 1_555
Br5_4 Cu2_4 1_555 1_555
Br7_2 Cu2_4 1_555 1_555
Br7_4 Cu2_4 1_555 1_555
Cu2_4 Br1_8 1_555 1_555
Cu5_2 Br2_5 1_555 1_555
Cu3_2 Br4_5 1_555 1_555
Br1_9 Cu3 1_555 1_555
Br2_6 Cu3 1_555 1_555
Br5_5 Cu2_5 1_555 1_555
Br7_3 Cu2_5 1_555 1_555
Br6 Cu2_5 1_555 1_555
Cu2_5 Br1_9 1_555 1_555
Cu4 Br2_6 1_555 1_555
Br1_10 Cu3_3 1_555 1_555
Cu3_3 Br3_6 1_555 1_555
Br3_6 Cu5_3 1_555 1_555
Br5_6 Cu2_6 1_555 1_555
Br7_4 Cu2_6 1_555 1_555
Br6_2 Cu2_6 1_555 1_555
Cu2_6 Br1_10 1_555 1_555
Br1_11 Cu3_2 1_555 1_555
Br4_6 Cu3_2 1_555 1_555
Br5_7 Cu2_7 1_555 1_555
Br6_3 Cu2_7 1_555 1_555
Br7_5 Cu2_7 1_555 1_555
Cu2_7 Br1_11 1_555 1_555
Cu5_2 Br4_6 1_555 1_555
Br1_12 Cu4 1_555 1_555
Br5_8 Cu2_8 1_555 1_555
Br7_5 Cu2_8 1_555 1_555
Br7_6 Cu2_8 1_555 1_555
Cu2_8 Br1_12 1_555 1_555
Br1_13 Cu5_2 1_555 1_555
Br5_3 Cu2_9 1_555 1_555
Br5_5 Cu2_9 1_555 1_555
Br5 Cu2_9 1_555 1_555
Cu2_9 Br1_14 1_555 1_555
Br5_9 Cu2_10 1_555 1_555
Br7_6 Cu2_10 1_555 1_555
Br6_3 Cu2_10 1_555 1_555
Cu2_10 Br1_15 1_555 1_555
Br5_2 Cu2_11 1_555 1_555
Br5_4 Cu2_11 1_555 1_555
Br5_6 Cu2_11 1_555 1_555
Cu2_11 Br1_16 1_555 1_555
Br1_17 Cu5_3 1_555 1_555
Br5_9 Cu2_12 1_555 1_555
Br5_7 Cu2_12 1_555 1_555
Br5_8 Cu2_12 1_555 1_555
Cu2_12 Br1_18 1_555 1_555
Br5_10 Cu2_13 1_555 1_555
Br6_4 Cu2_13 1_555 1_555
Br7_7 Cu2_13 1_555 1_555
Cu2_13 Br1_19 1_555 1_555
Br5_11 Cu2_14 1_555 1_555
Br7_7 Cu2_14 1_555 1_555
Br7_8 Cu2_14 1_555 1_555
Cu2_14 Br1_20 1_555 1_555
Br5_12 Cu2_15 1_555 1_555
Br7_8 Cu2_15 1_555 1_555
Br6_4 Cu2_15 1_555 1_555
Cu2_15 Br1_21 1_555 1_555
Br5_12 Cu2_16 1_555 1_555
Br5_10 Cu2_16 1_555 1_555
Br5_11 Cu2_16 1_555 1_555
Cu2_16 Br1_22 1_555 1_555
Br5_13 Cu2_17 1_555 1_555
Br6_5 Cu2_17 1_555 1_555
Br7_9 Cu2_17 1_555 1_555
Cu2_17 Br1_23 1_555 1_555
Br1_24 Cu1_4 1_555 1_555
Br2_7 Cu1_4 1_555 1_555
Cu1_4 Br3_7 1_555 1_555
Br3_7 Cu4_4 1_555 1_555
Br4_7 Cu1_4 1_555 1_555
Cu3_4 Br2_7 1_555 1_555
Cu5_4 Br4_7 1_555 1_555
Br5_14 Cu2_18 1_555 1_555
Br6_6 Cu2_18 1_555 1_555
Br7_10 Cu2_18 1_555 1_555
Cu2_18 Br1_25 1_555 1_555
Br1_26 Cu1_5 1_555 1_555
Br2_8 Cu1_5 1_555 1_555
Cu1_5 Br3_8 1_555 1_555
Br3_8 Cu4_5 1_555 1_555
Br4_8 Cu1_5 1_555 1_555
Cu3_5 Br2_8 1_555 1_555
Cu5_5 Br4_8 1_555 1_555
Br1_27 Cu1_6 1_555 1_555
Br2_9 Cu1_6 1_555 1_555
Cu1_6 Br3_9 1_555 1_555
Br3_9 Cu4_6 1_555 1_555
Br4_9 Cu1_6 1_555 1_555
Br5_15 Cu2_19 1_555 1_555
Br6_7 Cu2_19 1_555 1_555
Br7_11 Cu2_19 1_555 1_555
Cu2_19 Br1_27 1_555 1_555
Cu3_6 Br2_9 1_555 1_555
Cu5_6 Br4_9 1_555 1_555
Br1_28 Cu5_6 1_555 1_555
Br2_10 Cu5_6 1_555 1_555
Br4_10 Cu5_6 1_555 1_555
Br5_16 Cu2_20 1_555 1_555
Br7_9 Cu2_20 1_555 1_555
Br7_12 Cu2_20 1_555 1_555
Cu2_20 Br1_28 1_555 1_555
Cu3_6 Br2_10 1_555 1_555
Cu4_6 Br4_10 1_555 1_555
Br5_17 Cu2_21 1_555 1_555
Br7_11 Cu2_21 1_555 1_555
Br7_13 Cu2_21 1_555 1_555
Cu2_21 Br1_29 1_555 1_555
Br1_30 Cu5_4 1_555 1_555
Br2_11 Cu5_4 1_555 1_555
Br4_11 Cu5_4 1_555 1_555
Cu3_4 Br2_11 1_555 1_555
Cu4_4 Br4_11 1_555 1_555
Br5_18 Cu2_22 1_555 1_555
Br7_10 Cu2_22 1_555 1_555
Br7_14 Cu2_22 1_555 1_555
Cu2_22 Br1_31 1_555 1_555
Br1_32 Cu1_7 1_555 1_555
Br2_12 Cu1_7 1_555 1_555
Cu1_7 Br3_10 1_555 1_555
Br3_10 Cu4_7 1_555 1_555
Br4_12 Cu1_7 1_555 1_555
Cu3_7 Br2_12 1_555 1_555
Cu5_7 Br4_12 1_555 1_555
Br5_19 Cu2_23 1_555 1_555
Br7_12 Cu2_23 1_555 1_555
Br6_5 Cu2_23 1_555 1_555
Cu2_23 Br1_33 1_555 1_555
Br1_34 Cu5_7 1_555 1_555
Br2_13 Cu5_7 1_555 1_555
Br4_13 Cu5_7 1_555 1_555
Cu3_7 Br2_13 1_555 1_555
Cu4_7 Br4_13 1_555 1_555
Br1_35 Cu4_6 1_555 1_555
Br2_14 Cu4_6 1_555 1_555
Br5_20 Cu2_24 1_555 1_555
Br7_14 Cu2_24 1_555 1_555
Br6_6 Cu2_24 1_555 1_555
Cu2_24 Br1_35 1_555 1_555
Cu3_6 Br2_14 1_555 1_555
Br5_21 Cu2_25 1_555 1_555
Br7_13 Cu2_25 1_555 1_555
Br6_7 Cu2_25 1_555 1_555
Cu2_25 Br1_36 1_555 1_555
Br1_37 Cu4_5 1_555 1_555
Br2_15 Cu4_5 1_555 1_555
Cu4_5 Br3_11 1_555 1_555
Br3_11 Cu5_5 1_555 1_555
Cu3_5 Br2_15 1_555 1_555
Br5_15 Cu2_26 1_555 1_555
Br5_17 Cu2_26 1_555 1_555
Br5_21 Cu2_26 1_555 1_555
Cu2_26 Br1_38 1_555 1_555
Br1_39 Cu3_7 1_555 1_555
Br2_16 Cu3_7 1_555 1_555
Cu4_7 Br2_16 1_555 1_555
Br5_14 Cu2_27 1_555 1_555
Br5_18 Cu2_27 1_555 1_555
Br5_20 Cu2_27 1_555 1_555
Cu2_27 Br1_40 1_555 1_555
Br1_41 Cu3_4 1_555 1_555
Br4_14 Cu3_4 1_555 1_555
Cu4_4 Br4_14 1_555 1_555
Br5_19 Cu2_28 1_555 1_555
Br5_13 Cu2_28 1_555 1_555
Br5_16 Cu2_28 1_555 1_555
Cu2_28 Br1_42 1_555 1_555
Br1_43 Cu3_5 1_555 1_555
Br4_15 Cu3_5 1_555 1_555
Cu5_5 Br4_15 1_555 1_555
Br1_44 Cu4_7 1_555 1_555
Br5_22 Cu2_29 1_555 1_555
Br6_8 Cu2_29 1_555 1_555
Br7_15 Cu2_29 1_555 1_555
Cu2_29 Br1_44 1_555 1_555
Br1_45 Cu5_5 1_555 1_555
Br5_23 Cu2_30 1_555 1_555
Br7_15 Cu2_30 1_555 1_555
Br7_16 Cu2_30 1_555 1_555
Cu2_30 Br1_45 1_555 1_555
Br1_46 Cu4_4 1_555 1_555
Br5_24 Cu2_31 1_555 1_555
Br7_16 Cu2_31 1_555 1_555
Br6_8 Cu2_31 1_555 1_555
Cu2_31 Br1_46 1_555 1_555
Br1_47 Cu3_6 1_555 1_555
Br5_22 Cu2_32 1_555 1_555
Br5_23 Cu2_32 1_555 1_555
Br5_24 Cu2_32 1_555 1_555
Cu2_32 Br1_47 1_555 1_555
Br1_54 Cu1_8 1_555 1_555
Br2_17 Cu1_8 1_555 1_555
Cu1_8 Br3_12 1_555 1_555
Br3_12 Cu4_8 1_555 1_555
Br4_16 Cu1_8 1_555 1_555
Cu3_8 Br2_17 1_555 1_555
Cu5_8 Br4_16 1_555 1_555
Br1_55 Cu4_8 1_555 1_555
Cu4_8 Br3_13 1_555 1_555
Br3_13 Cu3_8 1_555 1_555
Br4_17 Cu4_8 1_555 1_555
Cu5_8 Br4_17 1_555 1_555
Br1_56 Cu3_8 1_555 1_555
Br4_18 Cu3_8 1_555 1_555
Cu5_8 Br4_18 1_555 1_555
Br1_57 Cu5_8 1_555 1_555

#END
