
###############################################################################
#
# This file contains modified crystal structure data generated from the
# MOF subset of the Cambridge Structural Database (CSD) v543 
# hosted by the Cambridge Crystallographic Data Centre (CCDC).
#
# This work is licensed under the Creative Commons
# Attribution-NonCommercial-ShareAlike 4.0 International License.
# To view a copy of this license, visit
# http://creativecommons.org/licenses/by-nc-sa/4.0/
# or send a letter to
# Creative Commons, PO Box 1866, Mountain View, CA 94042, USA.
#
# CIF created using the CSD Python API on 29 September 2022
# The structure has been converted into the P1 space group
# The structure has a 3D framework
# The original CSD entry KENJEU is in the monoclinic crystal system
# The framework has been calculated to contain at least 10.0% void space
# The void calculation uses a probe of radius 1.32A, grid spacing 0.4
#
###############################################################################

data_KENJEU
_chemical_formula_moiety         '(C216 H216 N48 O48 Zn12)n'
_symmetry_cell_setting           triclinic
_symmetry_space_group_name_H-M   'P 1'
_symmetry_Int_Tables_number      1
_space_group_name_Hall           'P 1'
loop_
_symmetry_equiv_pos_site_id
_symmetry_equiv_pos_as_xyz
1 x,y,z
_cell_length_a                   24.972(2)
_cell_length_b                   13.6883(11)
_cell_length_c                   18.2727(14)
_cell_angle_alpha                90
_cell_angle_beta                 101.0970(10)
_cell_angle_gamma                90
_cell_volume                     6129.27
loop_
_atom_site_label
_atom_site_type_symbol
_atom_site_fract_x
_atom_site_fract_y
_atom_site_fract_z
Zn2 Zn 0.03840(2) 0.10535(4) 0.22728(3)
H53 H 0.1688 0.0296 0.0805
H54 H 0.1825 0.0197 0.0005
C54 C 0.0569(2) 0.0109(5) 0.1142(3)
O11 O 0.07201(16) 0.0952(3) 0.1243(3)
Zn4 Zn 0.03840(2) 0.39465(4) 0.72728(3)
O14 O 0.08995(15) 0.1937(3) 0.2939(2)
C47 C 0.1788(2) 0.8892(4) 0.0513(3)
H45 H 0.1703 0.8529 0.0043
C48 C 0.14521(19) 0.8442(4) 0.1040(4)
H46 H 0.1519 0.8799 0.1508
H47 H 0.1566 0.7771 0.1145
C49 C 0.0856(2) 0.8467(4) 0.0712(4)
H48 H 0.0785 0.8043 0.0278
H49 H 0.0654 0.8215 0.1074
C50 C 0.0656(2) 0.9490(4) 0.0484(3)
H50 H 0.0295 0.9409 0.0166
C51 C 0.1006(2) 0.9976(5) 0.0005(3)
C52 C 0.1614(2) 0.9917(4) 0.0348(4)
C53 C 0.2398(2) 0.8789(4) 0.0809(4)
O9 O 0.26606(14) 0.8395(3) 0.0376(2)
O10 O 0.26113(15) 0.9095(3) 0.1441(3)
O12 O 0.03069(17) 0.9742(3) 0.1580(2)
Zn7 Zn 0.33866(2) 0.78730(4) 0.07078(3)
C1 C 0.83042(17) 0.0390(3) 0.4807(3)
C2 C 0.86114(17) 0.0152(3) 0.4288(3)
C3 C 0.91489(18) 0.0427(3) 0.4397(3)
C4 C 0.93889(17) 0.0961(3) 0.5018(3)
H2 H 0.9756 0.1133 0.5097
C5 C 0.90647(17) 0.1229(3) 0.5513(2)
C6 C 0.85282(18) 0.0946(3) 0.5425(3)
H3 H 0.8319 0.1124 0.5773
H5 H 0.6523 0.0129 0.4700
C9 C 0.73195(18) 0.0536(4) 0.4916(3)
H6 H 0.7330 0.1107 0.5195
C10 C 0.98251(17) 0.0736(3) 0.3592(3)
H7 H 0.9965 0.1314 0.3819
C13 C 0.97068(18) 0.2470(3) 0.6210(3)
H10 H 0.9912 0.2571 0.5843
C14 C 0.9405(2) 0.2550(5) 0.7223(3)
H11 H 0.9364 0.2733 0.7699
C15 C 0.9102(2) 0.1876(5) 0.6798(3)
H12 H 0.8819 0.1514 0.6925
H31 H 0.4120 0.0089 0.3651
H32 H 0.4216 0.0013 0.4522
N2 N 0.77505(14) 0.0076(3) 0.4697(2)
N3 N 0.99688(15) 0.0370(3) 0.2998(2)
N4 N 0.94508(14) 0.0182(3) 0.3837(2)
N5 N 0.97887(15) 0.2932(3) 0.6842(2)
N6 N 0.92887(15) 0.1823(3) 0.6147(2)
N13 N 0.97887(15) 0.2068(3) 0.1842(2)
O13 O 0.65460(14) 0.2653(3) 0.0273(2)
Zn1 Zn 0.65231(2) 0.81465(4) 0.37182(3)
Zn3 Zn 0.66134(2) 0.21270(4) 0.92922(3)
H1 H 0.8456 0.9805 0.3862
C7 C 0.75512(18) 0.9278(4) 0.4311(3)
H4 H 0.7762 0.8836 0.4102
C8 C 0.68764(18) 0.9989(4) 0.4642(3)
C11 C 0.9667(2) 0.9529(4) 0.2849(3)
H8 H 0.9682 0.9107 0.2454
C12 C 0.9352(2) 0.9404(4) 0.3350(3)
H9 H 0.9110 0.8891 0.3368
C16 C 0.61445(18) 0.5563(3) 0.5821(3)
C17 C 0.64559(18) 0.5060(3) 0.6422(3)
H13 H 0.6829 0.4976 0.6452
C18 C 0.62033(18) 0.4692(3) 0.6967(3)
C19 C 0.56482(18) 0.4823(3) 0.6934(3)
H14 H 0.5479 0.4585 0.7309
C20 C 0.53524(18) 0.5318(3) 0.6329(3)
C21 C 0.55921(18) 0.5658(3) 0.5760(3)
H15 H 0.5382 0.5949 0.5341
C22 C 0.62539(19) 0.6794(4) 0.4873(3)
H16 H 0.5950 0.7168 0.4912
C23 C 0.69860(19) 0.6269(4) 0.4543(3)
H17 H 0.7281 0.6225 0.4303
C24 C 0.68805(19) 0.5643(4) 0.5060(3)
H18 H 0.7084 0.5095 0.5239
C25 C 0.63180(19) 0.3621(4) 0.8078(3)
H19 H 0.5954 0.3626 0.8128
C26 C 0.70642(19) 0.3955(4) 0.7687(3)
H20 H 0.7315 0.4214 0.7424
C27 C 0.7166(2) 0.3319(4) 0.8251(3)
H21 H 0.7509 0.3065 0.8450
C28 C 0.44849(18) 0.6238(4) 0.6006(3)
H22 H 0.4625 0.6762 0.5779
C29 C 0.39411(19) 0.5307(4) 0.6446(3)
H23 H 0.3625 0.5066 0.6578
C30 C 0.44278(19) 0.4860(4) 0.6579(3)
H24 H 0.4510 0.4263 0.6818
C31 C 0.48628(19) 0.8679(4) 0.3447(3)
H25 H 0.4740 0.9043 0.2983
C32 C 0.4478(2) 0.7801(4) 0.3442(4)
H26 H 0.4506 0.7380 0.3024
H27 H 0.4590 0.7427 0.3897
C33 C 0.3903(2) 0.8108(5) 0.3384(4)
H28 H 0.3679 0.7532 0.3397
H29 H 0.3781 0.8428 0.2908
C34 C 0.3823(2) 0.8792(4) 0.4002(3)
H30 H 0.3457 0.9071 0.3859
C35 C 0.4231(3) 0.9651(4) 0.4070(4)
C36 C 0.4799(2) 0.9341(5) 0.4087(4)
H33 H 0.4932 0.9003 0.4553
H34 H 0.5023 0.9917 0.4076
C37 C 0.5447(3) 0.8340(5) 0.3453(5)
C38 C 0.3840(2) 0.8230(4) 0.4743(4)
C39 C 0.73801(19) 0.7639(4) 0.2032(3)
H35 H 0.7113 0.7916 0.1621
C40 C 0.7915(2) 0.8180(4) 0.2078(3)
H36 H 0.8172 0.7958 0.2514
H37 H 0.7855 0.8873 0.2136
C41 C 0.8158(2) 0.8018(5) 0.1388(3)
H38 H 0.7920 0.8304 0.0959
H39 H 0.8508 0.8346 0.1450
C42 C 0.8234(2) 0.6944(5) 0.1243(3)
H40 H 0.8341 0.6890 0.0756
C43 C 0.7697(2) 0.6408(5) 0.1189(3)
H41 H 0.7756 0.5715 0.1127
H42 H 0.7443 0.6636 0.0752
C44 C 0.7451(2) 0.6564(4) 0.1874(3)
H43 H 0.7685 0.6267 0.2301
H44 H 0.7098 0.6243 0.1804
C45 C 0.7160(2) 0.7734(4) 0.2741(3)
C46 C 0.8694(3) 0.6453(6) 0.1828(3)
N1 N 0.70230(14) 0.9198(3) 0.4265(2)
N7 N 0.65938(15) 0.6988(3) 0.4420(2)
N8 N 0.64115(15) 0.5967(3) 0.5278(2)
N9 N 0.66975(15) 0.3097(3) 0.8495(2)
N10 N 0.65145(14) 0.4152(3) 0.7571(2)
N11 N 0.39811(15) 0.6169(3) 0.6085(2)
N12 N 0.47806(15) 0.5454(3) 0.6295(2)
O1 O 0.58191(15) 0.8776(3) 0.3751(3)
O2 O 0.55177(17) 0.7540(4) 0.3141(3)
O3 O 0.34540(14) 0.7653(3) 0.4727(2)
O4 O 0.41990(16) 0.8368(3) 0.5301(2)
O5 O 0.66809(13) 0.8045(3) 0.27088(19)
O6 O 0.74509(14) 0.7504(3) 0.3349(2)
O7 O 0.86425(17) 0.5574(4) 0.2015(3)
O8 O 0.91005(15) 0.6937(3) 0.2061(2)
Zn5 Zn 0.96160(2) 0.60535(4) 0.27272(3)
Zn6 Zn 0.33866(2) 0.71270(4) 0.57078(3)
N14 N 0.60189(15) 0.1169(3) 0.8915(2)
O15 O 0.73394(14) 0.1605(3) 0.9624(2)
Zn1_2 Zn 0.34769(2) 0.31465(4) 0.12818(3)
C1_2 C 0.16958(17) 0.5390(3) 0.0193(3)
C2_2 C 0.13886(17) 0.5152(3) 0.0712(3)
H1_2 H 0.1544 0.4805 0.1138
C3_2 C 0.08511(18) 0.5427(3) 0.0603(3)
C7_2 C 0.24488(18) 0.4278(4) 0.0689(3)
H4_2 H 0.2238 0.3836 0.0898
C8_2 C 0.31236(18) 0.4989(4) 0.0358(3)
H5_2 H 0.3477 0.5129 0.0300
C9_2 C 0.26805(18) 0.5536(4) 0.0084(3)
C10_2 C 0.01749(17) 0.5736(3) 0.1408(3)
H7_2 H 0.0035 0.6314 0.1181
C11_2 C 0.0333(2) 0.4529(4) 0.2151(3)
H8_2 H 0.0318 0.4107 0.2546
C12_2 C 0.0648(2) 0.4404(4) 0.1650(3)
H9_2 H 0.0890 0.3891 0.1632
C22_2 C 0.37461(19) 0.1794(4) 0.0127(3)
H16_2 H 0.4050 0.2168 0.0088
C23_2 C 0.30140(19) 0.1269(4) 0.0457(3)
H17_2 H 0.2719 0.1225 0.0697
C31_2 C 0.51372(19) 0.3679(4) 0.1553(3)
H25_2 H 0.5260 0.4043 0.2017
C32_2 C 0.5522(2) 0.2801(4) 0.1558(4)
H26_2 H 0.5494 0.2380 0.1976
H27_2 H 0.5410 0.2427 0.1103
C33_2 C 0.6097(2) 0.3108(5) 0.1616(4)
H28_2 H 0.6321 0.2532 0.1603
H29_2 H 0.6219 0.3428 0.2092
C34_2 C 0.6177(2) 0.3792(4) 0.0998(3)
H30_2 H 0.6543 0.4071 0.1141
C35_2 C 0.5769(3) 0.4651(4) 0.0930(4)
H31_2 H 0.5880 0.5089 0.1349
H32_2 H 0.5784 0.5013 0.0478
C36_2 C 0.5201(2) 0.4341(5) 0.0913(4)
H33_2 H 0.5068 0.4003 0.0447
H34_2 H 0.4977 0.4917 0.0924
C37_2 C 0.4553(3) 0.3340(5) 0.1547(5)
C38_2 C 0.6160(2) 0.3230(4) 0.0257(4)
C39_2 C 0.26199(19) 0.2639(4) 0.2968(3)
H35_2 H 0.2887 0.2916 0.3379
C40_2 C 0.2085(2) 0.3180(4) 0.2922(3)
H36_2 H 0.1828 0.2958 0.2486
H37_2 H 0.2145 0.3873 0.2864
C41_2 C 0.1842(2) 0.3018(5) 0.3612(3)
H38_2 H 0.2080 0.3304 0.4041
H39_2 H 0.1492 0.3346 0.3550
C42_2 C 0.1766(2) 0.1944(5) 0.3757(3)
H40_2 H 0.1659 0.1890 0.4244
C43_2 C 0.2303(2) 0.1408(5) 0.3811(3)
H41_2 H 0.2244 0.0715 0.3873
H42_2 H 0.2557 0.1636 0.4248
C44_2 C 0.2549(2) 0.1564(4) 0.3126(3)
H43_2 H 0.2315 0.1267 0.2699
H44_2 H 0.2902 0.1243 0.3196
C45_2 C 0.2840(2) 0.2734(4) 0.2259(3)
C46_2 C 0.1306(3) 0.1453(6) 0.3172(3)
N1_2 N 0.29770(14) 0.4198(3) 0.0735(2)
N2_2 N 0.22495(14) 0.5076(3) 0.0303(2)
N3_2 N 0.00312(15) 0.5370(3) 0.2002(2)
N4_2 N 0.05492(14) 0.5182(3) 0.1163(2)
N7_2 N 0.34062(15) 0.1988(3) 0.0580(2)
O1_2 O 0.41809(15) 0.3776(3) 0.1249(3)
O2_2 O 0.44823(17) 0.2540(4) 0.1859(3)
O5_2 O 0.33191(13) 0.3045(3) 0.22912(19)
O6_2 O 0.25491(14) 0.2504(3) 0.1651(2)
O7_2 O 0.13575(17) 0.0574(4) 0.2985(3)
N13_2 N 0.02113(15) 0.7068(3) 0.3158(2)
C4_2 C 0.06111(17) 0.5961(3) 0.9982(3)
H2_2 H 0.0244 0.6133 0.9903
C5_2 C 0.09353(17) 0.6229(3) 0.9487(2)
C6_2 C 0.14718(18) 0.5946(3) 0.9575(3)
H3_2 H 0.1681 0.6124 0.9227
H6_2 H 0.2670 0.6107 0.9805
C13_2 C 0.02932(18) 0.7470(3) 0.8790(3)
H10_2 H 0.0088 0.7571 0.9157
C14_2 C 0.0595(2) 0.7550(5) 0.7777(3)
H11_2 H 0.0636 0.7733 0.7301
C15_2 C 0.0898(2) 0.6876(5) 0.8202(3)
H12_2 H 0.1181 0.6514 0.8075
C16_2 C 0.38555(18) 0.0563(3) 0.9179(3)
C17_2 C 0.35441(18) 0.0060(3) 0.8578(3)
C20_2 C 0.46476(18) 0.0318(3) 0.8671(3)
C21_2 C 0.44079(18) 0.0658(3) 0.9240(3)
H15_2 H 0.4618 0.0949 0.9659
C24_2 C 0.31195(19) 0.0643(4) 0.9940(3)
H18_2 H 0.2916 0.0095 0.9761
C28_2 C 0.55151(18) 0.1238(4) 0.8994(3)
H22_2 H 0.5375 0.1762 0.9221
C29_2 C 0.60589(19) 0.0307(4) 0.8554(3)
H23_2 H 0.6375 0.0066 0.8422
N5_2 N 0.02113(15) 0.7932(3) 0.8158(2)
N6_2 N 0.07113(15) 0.6823(3) 0.8853(2)
N8_2 N 0.35885(15) 0.0967(3) 0.9722(2)
N12_2 N 0.52194(15) 0.0454(3) 0.8705(2)
O4_2 O 0.58010(16) 0.3368(3) 0.9699(2)
H13_2 H 0.3171 0.9976 0.8548
C18_2 C 0.37967(18) 0.9692(3) 0.8033(3)
C19_2 C 0.43518(18) 0.9823(3) 0.8066(3)
H14_2 H 0.4521 0.9585 0.7691
C25_2 C 0.36820(19) 0.8621(4) 0.6922(3)
H19_2 H 0.4046 0.8626 0.6872
C26_2 C 0.29358(19) 0.8955(4) 0.7313(3)
H20_2 H 0.2685 0.9214 0.7576
C27_2 C 0.2834(2) 0.8319(4) 0.6749(3)
H21_2 H 0.2491 0.8065 0.6550
C30_2 C 0.55722(19) 0.9860(4) 0.8421(3)
H24_2 H 0.5490 0.9263 0.8182
N9_2 N 0.33025(15) 0.8097(3) 0.6505(2)
N10_2 N 0.34855(14) 0.9152(3) 0.7429(2)
O15_2 O 0.26606(14) 0.6605(3) 0.5376(2)
C47_2 C 0.8212(2) 0.3892(4) 0.4487(3)
H45_2 H 0.8297 0.3529 0.4957
C48_2 C 0.85479(19) 0.3442(4) 0.3960(4)
H46_2 H 0.8481 0.3799 0.3492
H47_2 H 0.8434 0.2771 0.3855
C49_2 C 0.9144(2) 0.3467(4) 0.4288(4)
H48_2 H 0.9215 0.3043 0.4722
H49_2 H 0.9346 0.3215 0.3926
C50_2 C 0.9344(2) 0.4490(4) 0.4516(3)
H50_2 H 0.9705 0.4409 0.4834
C51_2 C 0.8994(2) 0.4976(5) 0.4995(3)
H51 H 0.9057 0.4665 0.5481
H52 H 0.9099 0.5656 0.5065
C52_2 C 0.8386(2) 0.4917(4) 0.4652(4)
H53_2 H 0.8312 0.5296 0.4195
H54_2 H 0.8175 0.5197 0.4995
C53_2 C 0.7602(2) 0.3789(4) 0.4191(4)
C54_2 C 0.9431(2) 0.5109(5) 0.3858(3)
O9_2 O 0.73394(14) 0.3395(3) 0.4624(2)
O10_2 O 0.73887(15) 0.4095(3) 0.3559(3)
O11_2 O 0.92799(16) 0.5952(3) 0.3757(3)
O12_2 O 0.96931(17) 0.4742(3) 0.3420(2)
Zn7_2 Zn 0.66134(2) 0.28730(4) 0.42922(3)
Zn4_2 Zn 0.96160(2) 0.89465(4) 0.77272(3)
Zn1_3 Zn 0.34769(2) 0.18535(4) 0.62818(3)
H1_3 H 0.1544 0.0195 0.6138
C7_3 C 0.24488(18) 0.0722(4) 0.5689(3)
H4_3 H 0.2238 0.1164 0.5898
C8_3 C 0.31236(18) 0.0011(4) 0.5358(3)
C11_3 C 0.0333(2) 0.0471(4) 0.7151(3)
H8_3 H 0.0318 0.0893 0.7546
C12_3 C 0.0648(2) 0.0596(4) 0.6650(3)
H9_3 H 0.0890 0.1109 0.6632
C16_3 C 0.38555(18) 0.4437(3) 0.4179(3)
C17_3 C 0.35441(18) 0.4940(3) 0.3578(3)
H13_3 H 0.3171 0.5024 0.3548
C18_3 C 0.37967(18) 0.5308(3) 0.3033(3)
C19_3 C 0.43518(18) 0.5177(3) 0.3066(3)
H14_3 H 0.4521 0.5415 0.2691
C20_3 C 0.46476(18) 0.4682(3) 0.3671(3)
C21_3 C 0.44079(18) 0.4342(3) 0.4240(3)
H15_3 H 0.4618 0.4051 0.4659
C22_3 C 0.37461(19) 0.3206(4) 0.5127(3)
H16_3 H 0.4050 0.2832 0.5088
C23_3 C 0.30140(19) 0.3731(4) 0.5457(3)
H17_3 H 0.2719 0.3775 0.5697
C24_3 C 0.31195(19) 0.4357(4) 0.4940(3)
H18_3 H 0.2916 0.4905 0.4761
C25_3 C 0.36820(19) 0.6379(4) 0.1922(3)
H19_3 H 0.4046 0.6374 0.1872
C26_3 C 0.29358(19) 0.6045(4) 0.2313(3)
H20_3 H 0.2685 0.5786 0.2576
C27_3 C 0.2834(2) 0.6681(4) 0.1749(3)
H21_3 H 0.2491 0.6935 0.1550
C28_3 C 0.55151(18) 0.3762(4) 0.3994(3)
H22_3 H 0.5375 0.3238 0.4221
C29_3 C 0.60589(19) 0.4693(4) 0.3554(3)
H23_3 H 0.6375 0.4934 0.3422
C30_3 C 0.55722(19) 0.5140(4) 0.3421(3)
H24_3 H 0.5490 0.5737 0.3182
C31_3 C 0.51372(19) 0.1321(4) 0.6553(3)
H25_3 H 0.5260 0.0957 0.7017
C32_3 C 0.5522(2) 0.2199(4) 0.6558(4)
H26_3 H 0.5494 0.2620 0.6976
H27_3 H 0.5410 0.2573 0.6103
C33_3 C 0.6097(2) 0.1892(5) 0.6616(4)
H28_3 H 0.6321 0.2468 0.6603
H29_3 H 0.6219 0.1572 0.7092
C34_3 C 0.6177(2) 0.1208(4) 0.5998(3)
H30_3 H 0.6543 0.0929 0.6141
C35_3 C 0.5769(3) 0.0349(4) 0.5930(4)
C36_3 C 0.5201(2) 0.0659(5) 0.5913(4)
H33_3 H 0.5068 0.0997 0.5447
H34_3 H 0.4977 0.0083 0.5924
C37_3 C 0.4553(3) 0.1660(5) 0.6547(5)
C38_3 C 0.6160(2) 0.1770(4) 0.5257(4)
C39_3 C 0.26199(19) 0.2361(4) 0.7968(3)
H35_3 H 0.2887 0.2084 0.8379
C40_3 C 0.2085(2) 0.1820(4) 0.7922(3)
H36_3 H 0.1828 0.2042 0.7486
H37_3 H 0.2145 0.1127 0.7864
C41_3 C 0.1842(2) 0.1982(5) 0.8612(3)
H38_3 H 0.2080 0.1696 0.9041
H39_3 H 0.1492 0.1654 0.8550
C42_3 C 0.1766(2) 0.3056(5) 0.8757(3)
H40_3 H 0.1659 0.3110 0.9244
C43_3 C 0.2303(2) 0.3592(5) 0.8811(3)
H41_3 H 0.2244 0.4285 0.8873
H42_3 H 0.2557 0.3364 0.9248
C44_3 C 0.2549(2) 0.3436(4) 0.8126(3)
H43_3 H 0.2315 0.3733 0.7699
H44_3 H 0.2902 0.3757 0.8196
C45_3 C 0.2840(2) 0.2266(4) 0.7259(3)
C46_3 C 0.1306(3) 0.3547(6) 0.8172(3)
N1_3 N 0.29770(14) 0.0802(3) 0.5735(2)
N7_3 N 0.34062(15) 0.3012(3) 0.5580(2)
N8_3 N 0.35885(15) 0.4033(3) 0.4722(2)
N9_3 N 0.33025(15) 0.6903(3) 0.1505(2)
N10_3 N 0.34855(14) 0.5848(3) 0.2429(2)
N11_2 N 0.60189(15) 0.3831(3) 0.3915(2)
N12_3 N 0.52194(15) 0.4546(3) 0.3705(2)
O1_3 O 0.41809(15) 0.1224(3) 0.6249(3)
O2_3 O 0.44823(17) 0.2460(4) 0.6859(3)
O3_2 O 0.65460(14) 0.2347(3) 0.5273(2)
O4_3 O 0.58010(16) 0.1632(3) 0.4699(2)
O5_3 O 0.33191(13) 0.1955(3) 0.72912(19)
O6_3 O 0.25491(14) 0.2496(3) 0.6651(2)
O7_3 O 0.13575(17) 0.4426(4) 0.7985(3)
O8_2 O 0.08995(15) 0.3063(3) 0.7939(2)
N14_2 N 0.39811(15) 0.8831(3) 0.1085(2)
O13_2 O 0.34540(14) 0.7347(3) 0.9727(2)
C1_3 C 0.16958(17) 0.9610(3) 0.5193(3)
C2_3 C 0.13886(17) 0.9848(3) 0.5712(3)
C3_3 C 0.08511(18) 0.9573(3) 0.5603(3)
C4_3 C 0.06111(17) 0.9039(3) 0.4982(3)
H2_3 H 0.0244 0.8867 0.4903
C5_3 C 0.09353(17) 0.8771(3) 0.4487(2)
C6_3 C 0.14718(18) 0.9054(3) 0.4575(3)
H3_3 H 0.1681 0.8876 0.4227
H5_3 H 0.3477 0.9871 0.5300
C9_3 C 0.26805(18) 0.9464(4) 0.5084(3)
H6_3 H 0.2670 0.8893 0.4805
C10_3 C 0.01749(17) 0.9264(3) 0.6408(3)
H7_3 H 0.0035 0.8686 0.6181
C13_3 C 0.02932(18) 0.7530(3) 0.3790(3)
H10_3 H 0.0088 0.7429 0.4157
C14_3 C 0.0595(2) 0.7450(5) 0.2777(3)
H11_3 H 0.0636 0.7267 0.2301
C15_3 C 0.0898(2) 0.8124(5) 0.3202(3)
H12_3 H 0.1181 0.8486 0.3075
H31_3 H 0.5880 0.9911 0.6349
H32_3 H 0.5784 0.9987 0.5478
N2_3 N 0.22495(14) 0.9924(3) 0.5303(2)
N3_3 N 0.00312(15) 0.9630(3) 0.7002(2)
N4_3 N 0.05492(14) 0.9818(3) 0.6163(2)
N6_3 N 0.07113(15) 0.8177(3) 0.3853(2)
C47_3 C 0.8212(2) 0.1108(4) 0.9487(3)
H45_3 H 0.8297 0.1471 0.9957
C48_3 C 0.85479(19) 0.1558(4) 0.8960(4)
H46_3 H 0.8481 0.1201 0.8492
H47_3 H 0.8434 0.2229 0.8855
C49_3 C 0.9144(2) 0.1533(4) 0.9288(4)
H48_3 H 0.9215 0.1957 0.9722
H49_3 H 0.9346 0.1785 0.8926
C50_3 C 0.9344(2) 0.0510(4) 0.9516(3)
H50_3 H 0.9705 0.0591 0.9834
C51_3 C 0.8994(2) 0.0024(5) 0.9995(3)
C52_3 C 0.8386(2) 0.0083(4) 0.9652(4)
C53_3 C 0.7602(2) 0.1211(4) 0.9191(4)
O10_3 O 0.73887(15) 0.0905(3) 0.8559(3)
O12_3 O 0.96931(17) 0.0258(3) 0.8420(2)
H53_3 H 0.8312 0.9704 0.9195
H54_3 H 0.8175 0.9803 0.9995
C54_3 C 0.9431(2) 0.9891(5) 0.8858(3)
O11_3 O 0.92799(16) 0.9048(3) 0.8757(3)
O14_2 O 0.91005(15) 0.8063(3) 0.7061(2)
C47_4 C 0.1788(2) 0.6108(4) 0.5513(3)
H45_4 H 0.1703 0.6471 0.5043
C48_4 C 0.14521(19) 0.6558(4) 0.6040(4)
H46_4 H 0.1519 0.6201 0.6508
H47_4 H 0.1566 0.7229 0.6145
C49_4 C 0.0856(2) 0.6533(4) 0.5712(4)
H48_4 H 0.0785 0.6957 0.5278
H49_4 H 0.0654 0.6785 0.6074
C50_4 C 0.0656(2) 0.5510(4) 0.5484(3)
H50_4 H 0.0295 0.5591 0.5166
C51_4 C 0.1006(2) 0.5024(5) 0.5005(3)
H51_2 H 0.0943 0.5335 0.4519
H52_2 H 0.0901 0.4344 0.4935
C52_4 C 0.1614(2) 0.5083(4) 0.5348(4)
H53_4 H 0.1688 0.4704 0.5805
H54_4 H 0.1825 0.4803 0.5005
C53_4 C 0.2398(2) 0.6211(4) 0.5809(4)
C54_4 C 0.0569(2) 0.4891(5) 0.6142(3)
O10_4 O 0.26113(15) 0.5905(3) 0.6441(3)
O11_4 O 0.07201(16) 0.4048(3) 0.6243(3)
O12_4 O 0.03069(17) 0.5258(3) 0.6580(2)
H13_4 H 0.6829 0.0024 0.1452
C18_4 C 0.62033(18) 0.0308(3) 0.1967(3)
C19_4 C 0.56482(18) 0.0177(3) 0.1934(3)
H14_4 H 0.5479 0.0415 0.2309
C25_4 C 0.63180(19) 0.1379(4) 0.3078(3)
H19_4 H 0.5954 0.1374 0.3128
C26_4 C 0.70642(19) 0.1045(4) 0.2687(3)
H20_4 H 0.7315 0.0786 0.2424
C27_4 C 0.7166(2) 0.1681(4) 0.3251(3)
H21_4 H 0.7509 0.1935 0.3450
C30_4 C 0.44278(19) 0.0140(4) 0.1579(3)
H24_4 H 0.4510 0.0737 0.1818
N9_4 N 0.66975(15) 0.1903(3) 0.3495(2)
N10_4 N 0.65145(14) 0.0848(3) 0.2571(2)
C4_4 C 0.93889(17) 0.4039(3) 0.0018(3)
H2_4 H 0.9756 0.3867 0.0097
C5_4 C 0.90647(17) 0.3771(3) 0.0513(2)
C6_4 C 0.85282(18) 0.4054(3) 0.0425(3)
H3_4 H 0.8319 0.3876 0.0773
H6_4 H 0.7330 0.3893 0.0195
C13_4 C 0.97068(18) 0.2530(3) 0.1210(3)
H10_4 H 0.9912 0.2429 0.0843
C14_4 C 0.9405(2) 0.2450(5) 0.2223(3)
H11_4 H 0.9364 0.2267 0.2699
C15_4 C 0.9102(2) 0.3124(5) 0.1798(3)
H12_4 H 0.8819 0.3486 0.1925
C16_4 C 0.61445(18) 0.9437(3) 0.0821(3)
C17_4 C 0.64559(18) 0.9940(3) 0.1422(3)
C20_4 C 0.53524(18) 0.9682(3) 0.1329(3)
C21_4 C 0.55921(18) 0.9342(3) 0.0760(3)
H15_4 H 0.5382 0.9051 0.0341
C24_4 C 0.68805(19) 0.9357(4) 0.0060(3)
H18_4 H 0.7084 0.9905 0.0239
C28_4 C 0.44849(18) 0.8762(4) 0.1006(3)
H22_4 H 0.4625 0.8238 0.0779
C29_4 C 0.39411(19) 0.9693(4) 0.1446(3)
H23_4 H 0.3625 0.9934 0.1578
N6_4 N 0.92887(15) 0.3177(3) 0.1147(2)
N8_4 N 0.64115(15) 0.9033(3) 0.0278(2)
N12_4 N 0.47806(15) 0.9546(3) 0.1295(2)
O4_4 O 0.41990(16) 0.6632(3) 0.0301(2)
Zn1_4 Zn 0.65231(2) 0.68535(4) 0.87182(3)
C1_4 C 0.83042(17) 0.4610(3) 0.9807(3)
C2_4 C 0.86114(17) 0.4848(3) 0.9288(3)
H1_4 H 0.8456 0.5195 0.8862
C3_4 C 0.91489(18) 0.4573(3) 0.9397(3)
C7_4 C 0.75512(18) 0.5722(4) 0.9311(3)
H4_4 H 0.7762 0.6164 0.9102
C8_4 C 0.68764(18) 0.5011(4) 0.9642(3)
H5_4 H 0.6523 0.4871 0.9700
C9_4 C 0.73195(18) 0.4464(4) 0.9916(3)
C10_4 C 0.98251(17) 0.4264(3) 0.8592(3)
H7_4 H 0.9965 0.3686 0.8819
C11_4 C 0.9667(2) 0.5471(4) 0.7849(3)
H8_4 H 0.9682 0.5893 0.7454
C12_4 C 0.9352(2) 0.5596(4) 0.8350(3)
H9_4 H 0.9110 0.6109 0.8368
C22_4 C 0.62539(19) 0.8206(4) 0.9873(3)
H16_4 H 0.5950 0.7832 0.9912
C23_4 C 0.69860(19) 0.8731(4) 0.9543(3)
H17_4 H 0.7281 0.8775 0.9303
C31_4 C 0.48628(19) 0.6321(4) 0.8447(3)
H25_4 H 0.4740 0.5957 0.7983
C32_4 C 0.4478(2) 0.7199(4) 0.8442(4)
H26_4 H 0.4506 0.7620 0.8024
H27_4 H 0.4590 0.7573 0.8897
C33_4 C 0.3903(2) 0.6892(5) 0.8384(4)
H28_4 H 0.3679 0.7468 0.8397
H29_4 H 0.3781 0.6572 0.7908
C34_4 C 0.3823(2) 0.6208(4) 0.9002(3)
H30_4 H 0.3457 0.5929 0.8859
C35_4 C 0.4231(3) 0.5349(4) 0.9070(4)
H31_4 H 0.4120 0.4911 0.8651
H32_4 H 0.4216 0.4987 0.9522
C36_4 C 0.4799(2) 0.5659(5) 0.9087(4)
H33_4 H 0.4932 0.5997 0.9553
H34_4 H 0.5023 0.5083 0.9076
C37_4 C 0.5447(3) 0.6660(5) 0.8453(5)
C38_4 C 0.3840(2) 0.6770(4) 0.9743(4)
C39_4 C 0.73801(19) 0.7361(4) 0.7032(3)
H35_4 H 0.7113 0.7084 0.6621
C40_4 C 0.7915(2) 0.6820(4) 0.7078(3)
H36_4 H 0.8172 0.7042 0.7514
H37_4 H 0.7855 0.6127 0.7136
C41_4 C 0.8158(2) 0.6982(5) 0.6388(3)
H38_4 H 0.7920 0.6696 0.5959
H39_4 H 0.8508 0.6654 0.6450
C42_4 C 0.8234(2) 0.8056(5) 0.6243(3)
H40_4 H 0.8341 0.8110 0.5756
C43_4 C 0.7697(2) 0.8592(5) 0.6189(3)
H41_4 H 0.7756 0.9285 0.6127
H42_4 H 0.7443 0.8364 0.5752
C44_4 C 0.7451(2) 0.8436(4) 0.6874(3)
H43_4 H 0.7685 0.8733 0.7301
H44_4 H 0.7098 0.8757 0.6804
C45_4 C 0.7160(2) 0.7266(4) 0.7741(3)
C46_4 C 0.8694(3) 0.8547(6) 0.6828(3)
N1_4 N 0.70230(14) 0.5802(3) 0.9265(2)
N2_4 N 0.77505(14) 0.4924(3) 0.9697(2)
N3_4 N 0.99688(15) 0.4630(3) 0.7998(2)
N4_4 N 0.94508(14) 0.4818(3) 0.8837(2)
N7_4 N 0.65938(15) 0.8012(3) 0.9420(2)
O1_4 O 0.58191(15) 0.6224(3) 0.8751(3)
O2_4 O 0.55177(17) 0.7460(4) 0.8141(3)
O5_4 O 0.66809(13) 0.6955(3) 0.77088(19)
O6_4 O 0.74509(14) 0.7496(3) 0.8349(2)
O7_4 O 0.86425(17) 0.9426(4) 0.7015(3)
H52_3 H 0.0901 0.0656 0.9935
H51_3 H 0.0943 0.9665 0.9519
H51_4 H 0.9057 0.0335 0.0481
H52_4 H 0.9099 0.9344 0.0065
loop_
_geom_bond_atom_site_label_1
_geom_bond_atom_site_label_2
_geom_bond_site_symmetry_1
_geom_bond_site_symmetry_2
O11 Zn2 1_555 1_555
O14 Zn2 1_555 1_555
C54 O11 1_555 1_555
C47 H45 1_555 1_555
C48 C47 1_555 1_555
H46 C48 1_555 1_555
H47 C48 1_555 1_555
C49 C48 1_555 1_555
H48 C49 1_555 1_555
H49 C49 1_555 1_555
C50 C49 1_555 1_555
H50 C50 1_555 1_555
C51 C50 1_555 1_555
C52 C47 1_555 1_555
C53 C47 1_555 1_555
O9 C53 1_555 1_555
O10 C53 1_555 1_555
Zn7 O9 1_555 1_555
C51 C52 1_555 1_555
C1 C2 1_555 1_555
C3 C2 1_555 1_555
C4 C3 1_555 1_555
H2 C4 1_555 1_555
C5 C4 1_555 1_555
C6 C1 1_555 1_555
H3 C6 1_555 1_555
H6 C9 1_555 1_555
C10 H7 1_555 1_555
C13 H10 1_555 1_555
C14 H11 1_555 1_555
C15 C14 1_555 1_555
H12 C15 1_555 1_555
N2 C1 1_555 1_555
N3 C10 1_555 1_555
N4 C3 1_555 1_555
N5 C13 1_555 1_555
N6 C5 1_555 1_555
C5 C6 1_555 1_555
C9 N2 1_555 1_555
C10 N4 1_555 1_555
C13 N6 1_555 1_555
C14 N5 1_555 1_555
C15 N6 1_555 1_555
Zn1 N1 1_555 1_555
Zn3 N9 1_555 1_555
C7 H4 1_555 1_555
C11 H8 1_555 1_555
C12 C11 1_555 1_555
H9 C12 1_555 1_555
C16 C17 1_555 1_555
C17 H13 1_555 1_555
C18 C17 1_555 1_555
C19 C18 1_555 1_555
H14 C19 1_555 1_555
C20 C19 1_555 1_555
C21 C16 1_555 1_555
H15 C21 1_555 1_555
C22 H16 1_555 1_555
C23 H17 1_555 1_555
C24 C23 1_555 1_555
H18 C24 1_555 1_555
C25 H19 1_555 1_555
C26 H20 1_555 1_555
C27 C26 1_555 1_555
H21 C27 1_555 1_555
C28 H22 1_555 1_555
C29 H23 1_555 1_555
C30 C29 1_555 1_555
H24 C30 1_555 1_555
C31 H25 1_555 1_555
C32 C31 1_555 1_555
H26 C32 1_555 1_555
H27 C32 1_555 1_555
C33 C32 1_555 1_555
H28 C33 1_555 1_555
H29 C33 1_555 1_555
C34 C33 1_555 1_555
H30 C34 1_555 1_555
C35 C34 1_555 1_555
C36 C31 1_555 1_555
H33 C36 1_555 1_555
H34 C36 1_555 1_555
C37 C31 1_555 1_555
C38 C34 1_555 1_555
C39 H35 1_555 1_555
C40 C39 1_555 1_555
H36 C40 1_555 1_555
H37 C40 1_555 1_555
C41 C40 1_555 1_555
H38 C41 1_555 1_555
H39 C41 1_555 1_555
C42 C41 1_555 1_555
H40 C42 1_555 1_555
C43 C42 1_555 1_555
H41 C43 1_555 1_555
H42 C43 1_555 1_555
C44 C39 1_555 1_555
H43 C44 1_555 1_555
H44 C44 1_555 1_555
C45 C39 1_555 1_555
C46 C42 1_555 1_555
N1 C7 1_555 1_555
N7 Zn1 1_555 1_555
N8 C16 1_555 1_555
N9 C25 1_555 1_555
N10 C18 1_555 1_555
N11 C28 1_555 1_555
N12 C20 1_555 1_555
O1 Zn1 1_555 1_555
O2 C37 1_555 1_555
O3 C38 1_555 1_555
O4 C38 1_555 1_555
O5 Zn1 1_555 1_555
O6 C45 1_555 1_555
O7 C46 1_555 1_555
O8 C46 1_555 1_555
Zn5 O8 1_555 1_555
Zn6 N11 1_555 1_555
N14 Zn3 1_555 1_555
O15 Zn3 1_555 1_555
C8 N1 1_555 1_555
C20 C21 1_555 1_555
C22 N7 1_555 1_555
C22 N8 1_555 1_555
C23 N7 1_555 1_555
C24 N8 1_555 1_555
C25 N10 1_555 1_555
C26 N10 1_555 1_555
C27 N9 1_555 1_555
C28 N12 1_555 1_555
C29 N11 1_555 1_555
C30 N12 1_555 1_555
C35 C36 1_555 1_555
C37 O1 1_555 1_555
C43 C44 1_555 1_555
C45 O5 1_555 1_555
O3 Zn6 1_555 1_555
Zn1_2 N1_2 1_555 1_555
C1_2 C2_2 1_555 1_555
C2_2 H1_2 1_555 1_555
C3_2 C2_2 1_555 1_555
C7_2 H4_2 1_555 1_555
C8_2 H5_2 1_555 1_555
C9_2 C8_2 1_555 1_555
C10_2 H7_2 1_555 1_555
C11_2 H8_2 1_555 1_555
C12_2 C11_2 1_555 1_555
H9_2 C12_2 1_555 1_555
C22_2 H16_2 1_555 1_555
C23_2 H17_2 1_555 1_555
C31_2 H25_2 1_555 1_555
C32_2 C31_2 1_555 1_555
H26_2 C32_2 1_555 1_555
H27_2 C32_2 1_555 1_555
C33_2 C32_2 1_555 1_555
H28_2 C33_2 1_555 1_555
H29_2 C33_2 1_555 1_555
C34_2 C33_2 1_555 1_555
H30_2 C34_2 1_555 1_555
C35_2 C34_2 1_555 1_555
H31_2 C35_2 1_555 1_555
H32_2 C35_2 1_555 1_555
C36_2 C31_2 1_555 1_555
H33_2 C36_2 1_555 1_555
H34_2 C36_2 1_555 1_555
C37_2 C31_2 1_555 1_555
C38_2 C34_2 1_555 1_555
C39_2 H35_2 1_555 1_555
C40_2 C39_2 1_555 1_555
H36_2 C40_2 1_555 1_555
H37_2 C40_2 1_555 1_555
C41_2 C40_2 1_555 1_555
H38_2 C41_2 1_555 1_555
H39_2 C41_2 1_555 1_555
C42_2 C41_2 1_555 1_555
H40_2 C42_2 1_555 1_555
C43_2 C42_2 1_555 1_555
H41_2 C43_2 1_555 1_555
H42_2 C43_2 1_555 1_555
C44_2 C39_2 1_555 1_555
H43_2 C44_2 1_555 1_555
H44_2 C44_2 1_555 1_555
C45_2 C39_2 1_555 1_555
C46_2 C42_2 1_555 1_555
N1_2 C7_2 1_555 1_555
N2_2 C1_2 1_555 1_555
N3_2 C10_2 1_555 1_555
N4_2 C3_2 1_555 1_555
N7_2 Zn1_2 1_555 1_555
O1_2 Zn1_2 1_555 1_555
O2_2 C37_2 1_555 1_555
O13 C38_2 1_555 1_555
O5_2 Zn1_2 1_555 1_555
O6_2 C45_2 1_555 1_555
O7_2 C46_2 1_555 1_555
O14 C46_2 1_555 1_555
C7_2 N2_2 1_555 1_555
C8_2 N1_2 1_555 1_555
C9_2 N2_2 1_555 1_555
C10_2 N4_2 1_555 1_555
C11_2 N3_2 1_555 1_555
C12_2 N4_2 1_555 1_555
C22_2 N7_2 1_555 1_555
C23_2 N7_2 1_555 1_555
C35_2 C36_2 1_555 1_555
C37_2 O1_2 1_555 1_555
C43_2 C44_2 1_555 1_555
C45_2 O5_2 1_555 1_555
H2_2 C4_2 1_555 1_555
C5_2 C4_2 1_555 1_555
H3_2 C6_2 1_555 1_555
C13_2 H10_2 1_555 1_555
C14_2 H11_2 1_555 1_555
C15_2 C14_2 1_555 1_555
H12_2 C15_2 1_555 1_555
C16_2 C17_2 1_555 1_555
C21_2 C16_2 1_555 1_555
H15_2 C21_2 1_555 1_555
H18_2 C24_2 1_555 1_555
C28_2 H22_2 1_555 1_555
C29_2 H23_2 1_555 1_555
N5_2 C13_2 1_555 1_555
N6_2 C5_2 1_555 1_555
N8_2 C16_2 1_555 1_555
N14 C28_2 1_555 1_555
N12_2 C20_2 1_555 1_555
C5_2 C6_2 1_555 1_555
C13_2 N6_2 1_555 1_555
C14_2 N5_2 1_555 1_555
C15_2 N6_2 1_555 1_555
C20_2 C21_2 1_555 1_555
C24_2 N8_2 1_555 1_555
C28_2 N12_2 1_555 1_555
C29_2 N14 1_555 1_555
Zn6 N9_2 1_555 1_555
C19_2 C18_2 1_555 1_555
H14_2 C19_2 1_555 1_555
C25_2 H19_2 1_555 1_555
C26_2 H20_2 1_555 1_555
C27_2 C26_2 1_555 1_555
H21_2 C27_2 1_555 1_555
H24_2 C30_2 1_555 1_555
N9_2 C25_2 1_555 1_555
N10_2 C18_2 1_555 1_555
O15_2 Zn6 1_555 1_555
C25_2 N10_2 1_555 1_555
C26_2 N10_2 1_555 1_555
C27_2 N9_2 1_555 1_555
C47_2 H45_2 1_555 1_555
C48_2 C47_2 1_555 1_555
H46_2 C48_2 1_555 1_555
H47_2 C48_2 1_555 1_555
C49_2 C48_2 1_555 1_555
H48_2 C49_2 1_555 1_555
H49_2 C49_2 1_555 1_555
C50_2 C49_2 1_555 1_555
H50_2 C50_2 1_555 1_555
C51_2 C50_2 1_555 1_555
H51 C51_2 1_555 1_555
H52 C51_2 1_555 1_555
C52_2 C47_2 1_555 1_555
H53_2 C52_2 1_555 1_555
H54_2 C52_2 1_555 1_555
C53_2 C47_2 1_555 1_555
C54_2 C50_2 1_555 1_555
O9_2 C53_2 1_555 1_555
O10_2 C53_2 1_555 1_555
O11_2 Zn5 1_555 1_555
O12_2 Zn5 1_555 1_555
Zn7_2 O9_2 1_555 1_555
C51_2 C52_2 1_555 1_555
C54_2 O11_2 1_555 1_555
C54_2 O12_2 1_555 1_555
Zn1_3 N1_3 1_555 1_555
Zn7 N9_3 1_555 1_555
C7_3 H4_3 1_555 1_555
C11_3 H8_3 1_555 1_555
C12_3 C11_3 1_555 1_555
H9_3 C12_3 1_555 1_555
C16_3 C17_3 1_555 1_555
C17_3 H13_3 1_555 1_555
C18_3 C17_3 1_555 1_555
C19_3 C18_3 1_555 1_555
H14_3 C19_3 1_555 1_555
C20_3 C19_3 1_555 1_555
C21_3 C16_3 1_555 1_555
H15_3 C21_3 1_555 1_555
C22_3 H16_3 1_555 1_555
C23_3 H17_3 1_555 1_555
C24_3 C23_3 1_555 1_555
H18_3 C24_3 1_555 1_555
C25_3 H19_3 1_555 1_555
C26_3 H20_3 1_555 1_555
C27_3 C26_3 1_555 1_555
H21_3 C27_3 1_555 1_555
C28_3 H22_3 1_555 1_555
C29_3 H23_3 1_555 1_555
C30_3 C29_3 1_555 1_555
H24_3 C30_3 1_555 1_555
C31_3 H25_3 1_555 1_555
C32_3 C31_3 1_555 1_555
H26_3 C32_3 1_555 1_555
H27_3 C32_3 1_555 1_555
C33_3 C32_3 1_555 1_555
H28_3 C33_3 1_555 1_555
H29_3 C33_3 1_555 1_555
C34_3 C33_3 1_555 1_555
H30_3 C34_3 1_555 1_555
C35_3 C34_3 1_555 1_555
C36_3 C31_3 1_555 1_555
H33_3 C36_3 1_555 1_555
H34_3 C36_3 1_555 1_555
C37_3 C31_3 1_555 1_555
C38_3 C34_3 1_555 1_555
C39_3 H35_3 1_555 1_555
C40_3 C39_3 1_555 1_555
H36_3 C40_3 1_555 1_555
H37_3 C40_3 1_555 1_555
C41_3 C40_3 1_555 1_555
H38_3 C41_3 1_555 1_555
H39_3 C41_3 1_555 1_555
C42_3 C41_3 1_555 1_555
H40_3 C42_3 1_555 1_555
C43_3 C42_3 1_555 1_555
H41_3 C43_3 1_555 1_555
H42_3 C43_3 1_555 1_555
C44_3 C39_3 1_555 1_555
H43_3 C44_3 1_555 1_555
H44_3 C44_3 1_555 1_555
C45_3 C39_3 1_555 1_555
C46_3 C42_3 1_555 1_555
N1_3 C7_3 1_555 1_555
N7_3 Zn1_3 1_555 1_555
N8_3 C16_3 1_555 1_555
N9_3 C25_3 1_555 1_555
N10_3 C18_3 1_555 1_555
N11_2 C28_3 1_555 1_555
N12_3 C20_3 1_555 1_555
O1_3 Zn1_3 1_555 1_555
O2_3 C37_3 1_555 1_555
O3_2 C38_3 1_555 1_555
O4_3 C38_3 1_555 1_555
O5_3 Zn1_3 1_555 1_555
O6_3 C45_3 1_555 1_555
O7_3 C46_3 1_555 1_555
O8_2 C46_3 1_555 1_555
Zn4 O8_2 1_555 1_555
Zn7_2 N11_2 1_555 1_555
N14_2 Zn7 1_555 1_555
C8_3 N1_3 1_555 1_555
C20_3 C21_3 1_555 1_555
C22_3 N7_3 1_555 1_555
C22_3 N8_3 1_555 1_555
C23_3 N7_3 1_555 1_555
C24_3 N8_3 1_555 1_555
C25_3 N10_3 1_555 1_555
C26_3 N10_3 1_555 1_555
C27_3 N9_3 1_555 1_555
C28_3 N12_3 1_555 1_555
C29_3 N11_2 1_555 1_555
C30_3 N12_3 1_555 1_555
C35_3 C36_3 1_555 1_555
C37_3 O1_3 1_555 1_555
C43_3 C44_3 1_555 1_555
C45_3 O5_3 1_555 1_555
O3_2 Zn7_2 1_555 1_555
C1_3 C2_3 1_555 1_555
C3_3 C2_3 1_555 1_555
C4_3 C3_3 1_555 1_555
H2_3 C4_3 1_555 1_555
C5_3 C4_3 1_555 1_555
C6_3 C1_3 1_555 1_555
H3_3 C6_3 1_555 1_555
H6_3 C9_3 1_555 1_555
C10_3 H7_3 1_555 1_555
C13_3 H10_3 1_555 1_555
C14_3 H11_3 1_555 1_555
C15_3 C14_3 1_555 1_555
H12_3 C15_3 1_555 1_555
N2_3 C1_3 1_555 1_555
N3_3 C10_3 1_555 1_555
N4_3 C3_3 1_555 1_555
N13_2 C13_3 1_555 1_555
N6_3 C5_3 1_555 1_555
C5_3 C6_3 1_555 1_555
C9_3 N2_3 1_555 1_555
C10_3 N4_3 1_555 1_555
C13_3 N6_3 1_555 1_555
C14_3 N13_2 1_555 1_555
C15_3 N6_3 1_555 1_555
C47_3 H45_3 1_555 1_555
C48_3 C47_3 1_555 1_555
H46_3 C48_3 1_555 1_555
H47_3 C48_3 1_555 1_555
C49_3 C48_3 1_555 1_555
H48_3 C49_3 1_555 1_555
H49_3 C49_3 1_555 1_555
C50_3 C49_3 1_555 1_555
H50_3 C50_3 1_555 1_555
C51_3 C50_3 1_555 1_555
C52_3 C47_3 1_555 1_555
C53_3 C47_3 1_555 1_555
O15 C53_3 1_555 1_555
O10_3 C53_3 1_555 1_555
C51_3 C52_3 1_555 1_555
O11_3 Zn4_2 1_555 1_555
O14_2 Zn4_2 1_555 1_555
C54_3 O11_3 1_555 1_555
C47_4 H45_4 1_555 1_555
C48_4 C47_4 1_555 1_555
H46_4 C48_4 1_555 1_555
H47_4 C48_4 1_555 1_555
C49_4 C48_4 1_555 1_555
H48_4 C49_4 1_555 1_555
H49_4 C49_4 1_555 1_555
C50_4 C49_4 1_555 1_555
H50_4 C50_4 1_555 1_555
C51_4 C50_4 1_555 1_555
H51_2 C51_4 1_555 1_555
H52_2 C51_4 1_555 1_555
C52_4 C47_4 1_555 1_555
H53_4 C52_4 1_555 1_555
H54_4 C52_4 1_555 1_555
C53_4 C47_4 1_555 1_555
C54_4 C50_4 1_555 1_555
O15_2 C53_4 1_555 1_555
O10_4 C53_4 1_555 1_555
O11_4 Zn4 1_555 1_555
O12_4 Zn4 1_555 1_555
C51_4 C52_4 1_555 1_555
C54_4 O11_4 1_555 1_555
C54_4 O12_4 1_555 1_555
Zn7_2 N9_4 1_555 1_555
C19_4 C18_4 1_555 1_555
H14_4 C19_4 1_555 1_555
C25_4 H19_4 1_555 1_555
C26_4 H20_4 1_555 1_555
C27_4 C26_4 1_555 1_555
H21_4 C27_4 1_555 1_555
H24_4 C30_4 1_555 1_555
N9_4 C25_4 1_555 1_555
N10_4 C18_4 1_555 1_555
C25_4 N10_4 1_555 1_555
C26_4 N10_4 1_555 1_555
C27_4 N9_4 1_555 1_555
H2_4 C4_4 1_555 1_555
C5_4 C4_4 1_555 1_555
H3_4 C6_4 1_555 1_555
C13_4 H10_4 1_555 1_555
C14_4 H11_4 1_555 1_555
C15_4 C14_4 1_555 1_555
H12_4 C15_4 1_555 1_555
C16_4 C17_4 1_555 1_555
C21_4 C16_4 1_555 1_555
H15_4 C21_4 1_555 1_555
H18_4 C24_4 1_555 1_555
C28_4 H22_4 1_555 1_555
C29_4 H23_4 1_555 1_555
N13 C13_4 1_555 1_555
N6_4 C5_4 1_555 1_555
N8_4 C16_4 1_555 1_555
N14_2 C28_4 1_555 1_555
N12_4 C20_4 1_555 1_555
C5_4 C6_4 1_555 1_555
C13_4 N6_4 1_555 1_555
C14_4 N13 1_555 1_555
C15_4 N6_4 1_555 1_555
C20_4 C21_4 1_555 1_555
C24_4 N8_4 1_555 1_555
C28_4 N12_4 1_555 1_555
C29_4 N14_2 1_555 1_555
Zn1_4 N1_4 1_555 1_555
C1_4 C2_4 1_555 1_555
C2_4 H1_4 1_555 1_555
C3_4 C2_4 1_555 1_555
C7_4 H4_4 1_555 1_555
C8_4 H5_4 1_555 1_555
C9_4 C8_4 1_555 1_555
C10_4 H7_4 1_555 1_555
C11_4 H8_4 1_555 1_555
C12_4 C11_4 1_555 1_555
H9_4 C12_4 1_555 1_555
C22_4 H16_4 1_555 1_555
C23_4 H17_4 1_555 1_555
C31_4 H25_4 1_555 1_555
C32_4 C31_4 1_555 1_555
H26_4 C32_4 1_555 1_555
H27_4 C32_4 1_555 1_555
C33_4 C32_4 1_555 1_555
H28_4 C33_4 1_555 1_555
H29_4 C33_4 1_555 1_555
C34_4 C33_4 1_555 1_555
H30_4 C34_4 1_555 1_555
C35_4 C34_4 1_555 1_555
H31_4 C35_4 1_555 1_555
H32_4 C35_4 1_555 1_555
C36_4 C31_4 1_555 1_555
H33_4 C36_4 1_555 1_555
H34_4 C36_4 1_555 1_555
C37_4 C31_4 1_555 1_555
C38_4 C34_4 1_555 1_555
C39_4 H35_4 1_555 1_555
C40_4 C39_4 1_555 1_555
H36_4 C40_4 1_555 1_555
H37_4 C40_4 1_555 1_555
C41_4 C40_4 1_555 1_555
H38_4 C41_4 1_555 1_555
H39_4 C41_4 1_555 1_555
C42_4 C41_4 1_555 1_555
H40_4 C42_4 1_555 1_555
C43_4 C42_4 1_555 1_555
H41_4 C43_4 1_555 1_555
H42_4 C43_4 1_555 1_555
C44_4 C39_4 1_555 1_555
H43_4 C44_4 1_555 1_555
H44_4 C44_4 1_555 1_555
C45_4 C39_4 1_555 1_555
C46_4 C42_4 1_555 1_555
N1_4 C7_4 1_555 1_555
N2_4 C1_4 1_555 1_555
N3_4 C10_4 1_555 1_555
N4_4 C3_4 1_555 1_555
N7_4 Zn1_4 1_555 1_555
O1_4 Zn1_4 1_555 1_555
O2_4 C37_4 1_555 1_555
O13_2 C38_4 1_555 1_555
O5_4 Zn1_4 1_555 1_555
O6_4 C45_4 1_555 1_555
O7_4 C46_4 1_555 1_555
O14_2 C46_4 1_555 1_555
C7_4 N2_4 1_555 1_555
C8_4 N1_4 1_555 1_555
C9_4 N2_4 1_555 1_555
C10_4 N4_4 1_555 1_555
C11_4 N3_4 1_555 1_555
C12_4 N4_4 1_555 1_555
C22_4 N7_4 1_555 1_555
C23_4 N7_4 1_555 1_555
C35_4 C36_4 1_555 1_555
C37_4 O1_4 1_555 1_555
C43_4 C44_4 1_555 1_555
C45_4 O5_4 1_555 1_555

#END
