
###############################################################################
#
# This file contains modified crystal structure data generated from the
# MOF subset of the Cambridge Structural Database (CSD) v543 
# hosted by the Cambridge Crystallographic Data Centre (CCDC).
#
# This work is licensed under the Creative Commons
# Attribution-NonCommercial-ShareAlike 4.0 International License.
# To view a copy of this license, visit
# http://creativecommons.org/licenses/by-nc-sa/4.0/
# or send a letter to
# Creative Commons, PO Box 1866, Mountain View, CA 94042, USA.
#
# CIF created using the CSD Python API on 29 September 2022
# The structure has been converted into the P1 space group
# The structure has a 3D framework
# The original CSD entry KENSEE02 is in the cubic crystal system
# The original CSD entry KENSEE02 is in a Sohncke space group
# The framework has been calculated to contain at least 10.0% void space
# The void calculation uses a probe of radius 1.32A, grid spacing 0.4
# The framework is charged, counterions have been retained in the structure
#
###############################################################################

data_KENSEE02
_chemical_formula_moiety         '(C288 H216 Ag14 Cl42 N80 O48 2+)n'
_symmetry_cell_setting           triclinic
_symmetry_space_group_name_H-M   'P 1'
_symmetry_Int_Tables_number      1
_space_group_name_Hall           'P 1'
loop_
_symmetry_equiv_pos_site_id
_symmetry_equiv_pos_as_xyz
1 x,y,z
_cell_length_a                   21.3154(4)
_cell_length_b                   21.3154(4)
_cell_length_c                   21.3154(4)
_cell_angle_alpha                90
_cell_angle_beta                 90
_cell_angle_gamma                90
_cell_volume                     9684.57
loop_
_atom_site_label
_atom_site_type_symbol
_atom_site_fract_x
_atom_site_fract_y
_atom_site_fract_z
Ag1 Ag 0.7500 0.71124(3) 0.0000
C1 C 0.5777(2) 0.5035(3) 0.0044(3)
C2 C 0.5854(3) 0.5684(3) 0.0076(3)
C3 C 0.6393(3) 0.5934(3) 0.0339(3)
H2 H 0.6447 0.6372 0.0353
C4 C 0.6851(2) 0.5548(3) 0.0581(3)
C5 C 0.6768(2) 0.4905(3) 0.0550(3)
H3 H 0.7078 0.4639 0.0715
C6 C 0.6242(3) 0.4650(3) 0.0282(3)
H4 H 0.6197 0.4212 0.0260
C7 C 0.7423(3) 0.5784(3) 0.0886(3)
H5 H 0.7656 0.5505 0.1136
C8 C 0.8451(3) 0.7035(3) 0.1091(3)
C9 C 0.8916(3) 0.7208(3) 0.1527(3)
H6 H 0.9003 0.6959 0.1881
C10 C 0.9237(3) 0.7756(3) 0.1414(3)
H7 H 0.9545 0.7892 0.1699
C11 C 0.9115(3) 0.8101(3) 0.0901(4)
H8 H 0.9344 0.8468 0.0814
C12 C 0.8652(4) 0.7903(3) 0.0511(3)
N2 N 0.7617(2) 0.6341(2) 0.0830(2)
N3 N 0.8135(2) 0.6491(2) 0.1179(2)
H9 H 0.8264 0.6230 0.1466
N4 N 0.8320(2) 0.7389(2) 0.0588(2)
C13 C 0.4956(3) 0.4223(2) 0.0035(3)
C14 C 0.4924(3) 0.4146(3) 0.0684(3)
H10 H 0.5081 0.4460 0.0951
C15 C 0.4661(3) 0.3607(3) 0.0934(3)
H11 H 0.4647 0.3553 0.1372
C16 C 0.4419(3) 0.3149(2) 0.0548(3)
C19 C 0.4114(3) 0.2577(3) 0.0784(3)
H14 H 0.3864 0.2344 0.0505
C20 C 0.3909(3) 0.1549(3) 0.2035(3)
C21 C 0.3473(3) 0.1084(3) 0.2208(3)
H15 H 0.3119 0.0997 0.1959
C22 C 0.3586(3) 0.0763(3) 0.2756(3)
H16 H 0.3301 0.0455 0.2892
C23 C 0.4099(4) 0.0885(3) 0.3101(3)
H17 H 0.4186 0.0656 0.3468
C24 C 0.4489(3) 0.1348(4) 0.2903(3)
Cl2 Cl 0.51448(12) 0.15439(14) 0.33410(11)
N5 N 0.4170(2) 0.2383(2) 0.1341(2)
N6 N 0.3821(2) 0.1865(2) 0.1491(2)
H18 H 0.3534 0.1736 0.1230
N7 N 0.4412(2) 0.1680(2) 0.2389(2)
Ag2 Ag 0.5000 0.2500 0.21124(3)
C41 C 0.3232(2) 0.0095(3) 0.0550(3)
H30 H 0.2922 0.0361 0.0715
C42 C 0.3758(3) 0.0350(3) 0.0282(3)
H31 H 0.3803 0.0788 0.0260
C49 C 0.5044(3) 0.0777(2) 0.0035(3)
C50 C 0.5076(3) 0.0854(3) 0.0684(3)
H37 H 0.4919 0.0540 0.0951
C51 C 0.5339(3) 0.1393(3) 0.0934(3)
H38 H 0.5353 0.1447 0.1372
C52 C 0.5581(3) 0.1851(2) 0.0548(3)
C55 C 0.5886(3) 0.2423(3) 0.0784(3)
H41 H 0.6136 0.2656 0.0505
C56 C 0.6091(3) 0.3451(3) 0.2035(3)
C57 C 0.6527(3) 0.3916(3) 0.2208(3)
H42 H 0.6881 0.4003 0.1959
C58 C 0.6414(3) 0.4237(3) 0.2756(3)
H43 H 0.6699 0.4545 0.2892
C59 C 0.5901(4) 0.4115(3) 0.3101(3)
H44 H 0.5814 0.4344 0.3468
C60 C 0.5511(3) 0.3652(4) 0.2903(3)
Cl5 Cl 0.48552(12) 0.34561(14) 0.33410(11)
N15 N 0.5830(2) 0.2617(2) 0.1341(2)
N16 N 0.6179(2) 0.3135(2) 0.1491(2)
H45 H 0.6466 0.3264 0.1230
N17 N 0.5588(2) 0.3320(2) 0.2389(2)
Ag1_2 Ag 0.7500 0.71124(3) 1.0000
H1 H 0.5540 0.5951 0.9919
Cl1 Cl 0.84561(14) 0.83410(11) 0.98552(12)
N1 N 0.5220(2) 0.4780(2) 0.9780(2)
C17 C 0.4450(3) 0.3232(2) 0.9905(3)
H12 H 0.4285 0.2922 0.9639
C18 C 0.4718(3) 0.3758(3) 0.9650(3)
H13 H 0.4740 0.3803 0.9212
C25 C 0.4965(3) 0.5044(3) 0.9223(2)
C26 C 0.4316(3) 0.5076(3) 0.9146(3)
H19 H 0.4049 0.4919 0.9460
C27 C 0.4066(3) 0.5339(3) 0.8607(3)
H20 H 0.3628 0.5353 0.8553
C28 C 0.4452(3) 0.5581(3) 0.8149(2)
C29 C 0.5095(3) 0.5550(3) 0.8232(2)
H21 H 0.5361 0.5715 0.7922
C30 C 0.5350(3) 0.5282(3) 0.8758(3)
H22 H 0.5788 0.5260 0.8803
C31 C 0.4216(3) 0.5886(3) 0.7577(3)
H23 H 0.4495 0.6136 0.7344
C32 C 0.2965(3) 0.6091(3) 0.6549(3)
C33 C 0.2792(3) 0.6527(3) 0.6084(3)
H24 H 0.3041 0.6881 0.5997
C34 C 0.2244(3) 0.6414(3) 0.5763(3)
H25 H 0.2108 0.6699 0.5455
C35 C 0.1899(3) 0.5901(4) 0.5885(3)
H26 H 0.1532 0.5814 0.5656
C36 C 0.2097(3) 0.5511(3) 0.6348(4)
Cl3 Cl 0.16590(11) 0.48552(12) 0.65439(14)
N8 N 0.3659(2) 0.5830(2) 0.7383(2)
N9 N 0.3509(2) 0.6179(2) 0.6865(2)
H27 H 0.3770 0.6466 0.6736
N10 N 0.2611(2) 0.5588(2) 0.6680(2)
Ag3 Ag 0.28876(3) 0.5000 0.7500
N11 N 0.4780(2) 0.0220(2) 0.9780(2)
C53 C 0.5550(3) 0.1768(2) 0.9905(3)
H39 H 0.5715 0.2078 0.9639
C54 C 0.5282(3) 0.1242(3) 0.9650(3)
H40 H 0.5260 0.1197 0.9212
H46 H 0.5951 0.0081 0.9460
Cl6 Cl 0.83410(11) 0.01448(12) 0.65439(14)
Ag5 Ag 0.71124(3) 0.0000 0.7500
N21 N 0.7383(2) 0.6341(2) 0.9170(2)
N22 N 0.3659(2) 0.4170(2) 0.7617(2)
N23 N 0.6680(2) 0.7389(2) 0.9412(2)
N24 N 0.2611(2) 0.4412(2) 0.8320(2)
C37 C 0.4223(2) 0.9965(3) 0.0044(3)
C38 C 0.4146(3) 0.9316(3) 0.0076(3)
C39 C 0.3607(3) 0.9066(3) 0.0339(3)
H29 H 0.3553 0.8628 0.0353
C40 C 0.3149(2) 0.9452(3) 0.0581(3)
C43 C 0.2577(3) 0.9216(3) 0.0886(3)
H32 H 0.2344 0.9495 0.1136
C44 C 0.1549(3) 0.7965(3) 0.1091(3)
C45 C 0.1084(3) 0.7792(3) 0.1527(3)
H33 H 0.0997 0.8041 0.1881
C46 C 0.0763(3) 0.7244(3) 0.1414(3)
H34 H 0.0455 0.7108 0.1699
C47 C 0.0885(3) 0.6899(3) 0.0901(4)
H35 H 0.0656 0.6532 0.0814
C48 C 0.1348(4) 0.7097(3) 0.0511(3)
N12 N 0.2383(2) 0.8659(2) 0.0830(2)
N13 N 0.1865(2) 0.8509(2) 0.1179(2)
H36 H 0.1736 0.8770 0.1466
N14 N 0.1680(2) 0.7611(2) 0.0588(2)
Ag4 Ag 0.2500 0.78876(3) 0.0000
H28 H 0.4460 0.9049 0.9919
Cl4 Cl 0.15439(14) 0.66590(11) 0.98552(12)
C61 C 0.5035(3) 0.9956(3) 0.9223(2)
C62 C 0.5684(3) 0.9924(3) 0.9146(3)
C63 C 0.5934(3) 0.9661(3) 0.8607(3)
H47 H 0.6372 0.9647 0.8553
C64 C 0.5548(3) 0.9419(3) 0.8149(2)
C65 C 0.4905(3) 0.9450(3) 0.8232(2)
H48 H 0.4639 0.9285 0.7922
C66 C 0.4650(3) 0.9718(3) 0.8758(3)
H49 H 0.4212 0.9740 0.8803
C67 C 0.5784(3) 0.9114(3) 0.7577(3)
H50 H 0.5505 0.8864 0.7344
C68 C 0.7035(3) 0.8909(3) 0.6549(3)
C69 C 0.7208(3) 0.8473(3) 0.6084(3)
H51 H 0.6959 0.8119 0.5997
C70 C 0.7756(3) 0.8586(3) 0.5763(3)
H52 H 0.7892 0.8301 0.5455
C71 C 0.8101(3) 0.9099(4) 0.5885(3)
H53 H 0.8468 0.9186 0.5656
C72 C 0.7903(3) 0.9489(3) 0.6348(4)
N18 N 0.6341(2) 0.9170(2) 0.7383(2)
N19 N 0.6491(2) 0.8821(2) 0.6865(2)
H54 H 0.6230 0.8534 0.6736
N20 N 0.7389(2) 0.9412(2) 0.6680(2)
Ag4_2 Ag 0.2500 0.78876(3) 1.0000
Ag5_2 Ag 0.71124(3) 1.0000 0.7500
C37_2 C 0.0777(2) 0.0035(3) 0.5044(3)
C38_2 C 0.0854(3) 0.0684(3) 0.5076(3)
H28_2 H 0.0540 0.0951 0.4919
C39_2 C 0.1393(3) 0.0934(3) 0.5339(3)
H29_2 H 0.1447 0.1372 0.5353
C40_2 C 0.1851(2) 0.0548(3) 0.5581(3)
C43_2 C 0.2423(3) 0.0784(3) 0.5886(3)
H32_2 H 0.2656 0.0505 0.6136
C44_2 C 0.3451(3) 0.2035(3) 0.6091(3)
C45_2 C 0.3916(3) 0.2208(3) 0.6527(3)
H33_2 H 0.4003 0.1959 0.6881
C46_2 C 0.4237(3) 0.2756(3) 0.6414(3)
H34_2 H 0.4545 0.2892 0.6699
C47_2 C 0.4115(3) 0.3101(3) 0.5901(4)
H35_2 H 0.4344 0.3468 0.5814
C48_2 C 0.3652(4) 0.2903(3) 0.5511(3)
Cl4_2 Cl 0.34561(14) 0.33410(11) 0.48552(12)
N12_2 N 0.2617(2) 0.1341(2) 0.5830(2)
N13_2 N 0.3135(2) 0.1491(2) 0.6179(2)
H36_2 H 0.3264 0.1230 0.6466
N14_2 N 0.3320(2) 0.2389(2) 0.5588(2)
C65_2 C 0.0095(3) 0.0550(3) 0.3232(2)
H48_2 H 0.0361 0.0715 0.2922
C66_2 C 0.0350(3) 0.0282(3) 0.3758(3)
H49_2 H 0.0788 0.0260 0.3803
Ag4_3 Ag 0.2500 0.21124(3) 0.5000
C13_2 C 0.0044(3) 0.5777(2) 0.5035(3)
C14_2 C 0.0076(3) 0.5854(3) 0.5684(3)
C15_2 C 0.0339(3) 0.6393(3) 0.5934(3)
H11_2 H 0.0353 0.6447 0.6372
C16_2 C 0.0581(3) 0.6851(2) 0.5548(3)
C17_2 C 0.0550(3) 0.6768(2) 0.4905(3)
H12_2 H 0.0715 0.7078 0.4639
C18_2 C 0.0282(3) 0.6242(3) 0.4650(3)
H13_2 H 0.0260 0.6197 0.4212
C19_2 C 0.0886(3) 0.7423(3) 0.5784(3)
H14_2 H 0.1136 0.7656 0.5505
C20_2 C 0.1091(3) 0.8451(3) 0.7035(3)
C21_2 C 0.1527(3) 0.8916(3) 0.7208(3)
H15_2 H 0.1881 0.9003 0.6959
C22_2 C 0.1414(3) 0.9237(3) 0.7756(3)
H16_2 H 0.1699 0.9545 0.7892
C23_2 C 0.0901(4) 0.9115(3) 0.8101(3)
H17_2 H 0.0814 0.9344 0.8468
C24_2 C 0.0511(3) 0.8652(4) 0.7903(3)
N5_2 N 0.0830(2) 0.7617(2) 0.6341(2)
N6_2 N 0.1179(2) 0.8135(2) 0.6491(2)
H18_2 H 0.1466 0.8264 0.6230
N7_2 N 0.0588(2) 0.8320(2) 0.7389(2)
C25_2 C 0.0035(3) 0.4956(3) 0.4223(2)
C26_2 C 0.0684(3) 0.4924(3) 0.4146(3)
H19_2 H 0.0951 0.5081 0.4460
C27_2 C 0.0934(3) 0.4661(3) 0.3607(3)
H20_2 H 0.1372 0.4647 0.3553
C28_2 C 0.0548(3) 0.4419(3) 0.3149(2)
C31_2 C 0.0784(3) 0.4114(3) 0.2577(3)
H23_2 H 0.0505 0.3864 0.2344
C32_2 C 0.2035(3) 0.3909(3) 0.1549(3)
C33_2 C 0.2208(3) 0.3473(3) 0.1084(3)
H24_2 H 0.1959 0.3119 0.0997
C34_2 C 0.2756(3) 0.3586(3) 0.0763(3)
H25_2 H 0.2892 0.3301 0.0455
C35_2 C 0.3101(3) 0.4099(4) 0.0885(3)
H26_2 H 0.3468 0.4186 0.0656
C36_2 C 0.2903(3) 0.4489(3) 0.1348(4)
Cl3_2 Cl 0.33410(11) 0.51448(12) 0.15439(14)
N8_2 N 0.1341(2) 0.4170(2) 0.2383(2)
N9_2 N 0.1491(2) 0.3821(2) 0.1865(2)
H27_2 H 0.1230 0.3534 0.1736
N10_2 N 0.2389(2) 0.4412(2) 0.1680(2)
Ag2_2 Ag 0.0000 0.7500 0.71124(3)
Ag3_2 Ag 0.21124(3) 0.5000 0.2500
C41_2 C 0.1768(2) 0.9905(3) 0.5550(3)
H30_2 H 0.2078 0.9639 0.5715
C42_2 C 0.1242(3) 0.9650(3) 0.5282(3)
H31_2 H 0.1197 0.9212 0.5260
N11_2 N 0.0220(2) 0.9780(2) 0.4780(2)
H37_2 H 0.0081 0.9460 0.5951
Cl5_2 Cl 0.01448(12) 0.65439(14) 0.83410(11)
N22_2 N 0.1341(2) 0.5830(2) 0.2617(2)
N24_2 N 0.2389(2) 0.5588(2) 0.3320(2)
C61_2 C 0.9965(3) 0.0044(3) 0.4223(2)
C62_2 C 0.9316(3) 0.0076(3) 0.4146(3)
C63_2 C 0.9066(3) 0.0339(3) 0.3607(3)
H47_2 H 0.8628 0.0353 0.3553
C64_2 C 0.9452(3) 0.0581(3) 0.3149(2)
C67_2 C 0.9216(3) 0.0886(3) 0.2577(3)
H50_2 H 0.9495 0.1136 0.2344
C68_2 C 0.7965(3) 0.1091(3) 0.1549(3)
C69_2 C 0.7792(3) 0.1527(3) 0.1084(3)
H51_2 H 0.8041 0.1881 0.0997
C70_2 C 0.7244(3) 0.1414(3) 0.0763(3)
H52_2 H 0.7108 0.1699 0.0455
C71_2 C 0.6899(3) 0.0901(4) 0.0885(3)
H53_2 H 0.6532 0.0814 0.0656
C72_2 C 0.7097(3) 0.0511(3) 0.1348(4)
N18_2 N 0.8659(2) 0.0830(2) 0.2383(2)
N19_2 N 0.8509(2) 0.1179(2) 0.1865(2)
H54_2 H 0.8770 0.1466 0.1736
N20_2 N 0.7611(2) 0.0588(2) 0.1680(2)
Ag5_3 Ag 0.78876(3) 0.0000 0.2500
Ag1_3 Ag 0.7500 0.28876(3) 0.5000
C1_2 C 0.9223(2) 0.4965(3) 0.5044(3)
C2_2 C 0.9146(3) 0.4316(3) 0.5076(3)
H1_2 H 0.9460 0.4049 0.4919
C3_2 C 0.8607(3) 0.4066(3) 0.5339(3)
H2_2 H 0.8553 0.3628 0.5353
C4_2 C 0.8149(2) 0.4452(3) 0.5581(3)
C5_2 C 0.8232(2) 0.5095(3) 0.5550(3)
H3_2 H 0.7922 0.5361 0.5715
C6_2 C 0.8758(3) 0.5350(3) 0.5282(3)
H4_2 H 0.8803 0.5788 0.5260
C7_2 C 0.7577(3) 0.4216(3) 0.5886(3)
H5_2 H 0.7344 0.4495 0.6136
C8_2 C 0.6549(3) 0.2965(3) 0.6091(3)
C9_2 C 0.6084(3) 0.2792(3) 0.6527(3)
H6_2 H 0.5997 0.3041 0.6881
C10_2 C 0.5763(3) 0.2244(3) 0.6414(3)
H7_2 H 0.5455 0.2108 0.6699
C11_2 C 0.5885(3) 0.1899(3) 0.5901(4)
H8_2 H 0.5656 0.1532 0.5814
C12_2 C 0.6348(4) 0.2097(3) 0.5511(3)
Cl1_2 Cl 0.65439(14) 0.16590(11) 0.48552(12)
N1_2 N 0.9780(2) 0.5220(2) 0.4780(2)
N2_2 N 0.7383(2) 0.3659(2) 0.5830(2)
N3_2 N 0.6865(2) 0.3509(2) 0.6179(2)
H9_2 H 0.6736 0.3770 0.6466
N4_2 N 0.6680(2) 0.2611(2) 0.5588(2)
H10_2 H 0.9919 0.5540 0.5951
Cl2_2 Cl 0.98552(12) 0.84561(14) 0.83410(11)
C29_2 C 0.9905(3) 0.4450(3) 0.3232(2)
H21_2 H 0.9639 0.4285 0.2922
C30_2 C 0.9650(3) 0.4718(3) 0.3758(3)
H22_2 H 0.9212 0.4740 0.3803
Ag2_3 Ag 1.0000 0.7500 0.71124(3)
C49_2 C 0.9956(3) 0.9223(2) 0.5035(3)
C50_2 C 0.9924(3) 0.9146(3) 0.5684(3)
C51_2 C 0.9661(3) 0.8607(3) 0.5934(3)
H38_2 H 0.9647 0.8553 0.6372
C52_2 C 0.9419(3) 0.8149(2) 0.5548(3)
C53_2 C 0.9450(3) 0.8232(2) 0.4905(3)
H39_2 H 0.9285 0.7922 0.4639
C54_2 C 0.9718(3) 0.8758(3) 0.4650(3)
H40_2 H 0.9740 0.8803 0.4212
C55_2 C 0.9114(3) 0.7577(3) 0.5784(3)
H41_2 H 0.8864 0.7344 0.5505
C56_2 C 0.8909(3) 0.6549(3) 0.7035(3)
C57_2 C 0.8473(3) 0.6084(3) 0.7208(3)
H42_2 H 0.8119 0.5997 0.6959
C58_2 C 0.8586(3) 0.5763(3) 0.7756(3)
H43_2 H 0.8301 0.5455 0.7892
C59_2 C 0.9099(4) 0.5885(3) 0.8101(3)
H44_2 H 0.9186 0.5656 0.8468
C60_2 C 0.9489(3) 0.6348(4) 0.7903(3)
N15_2 N 0.9170(2) 0.7383(2) 0.6341(2)
N16_2 N 0.8821(2) 0.6865(2) 0.6491(2)
H45_2 H 0.8534 0.6736 0.6230
N17_2 N 0.9412(2) 0.6680(2) 0.7389(2)
H46_2 H 0.9049 0.9919 0.4460
Cl6_2 Cl 0.66590(11) 0.98552(12) 0.15439(14)
Ag5_4 Ag 0.78876(3) 1.0000 0.2500
N21_2 N 0.7617(2) 0.3659(2) 0.4170(2)
N23_2 N 0.8320(2) 0.2611(2) 0.4412(2)
C1_3 C 0.4223(2) 0.0035(3) 0.4956(3)
C2_3 C 0.4146(3) 0.0684(3) 0.4924(3)
H1_3 H 0.4460 0.0951 0.5081
C3_3 C 0.3607(3) 0.0934(3) 0.4661(3)
H2_3 H 0.3553 0.1372 0.4647
C4_3 C 0.3149(2) 0.0548(3) 0.4419(3)
C7_3 C 0.2577(3) 0.0784(3) 0.4114(3)
H5_3 H 0.2344 0.0505 0.3864
C8_3 C 0.1549(3) 0.2035(3) 0.3909(3)
C9_3 C 0.1084(3) 0.2208(3) 0.3473(3)
H6_3 H 0.0997 0.1959 0.3119
C10_3 C 0.0763(3) 0.2756(3) 0.3586(3)
H7_3 H 0.0455 0.2892 0.3301
C11_3 C 0.0885(3) 0.3101(3) 0.4099(4)
H8_3 H 0.0656 0.3468 0.4186
C12_3 C 0.1348(4) 0.2903(3) 0.4489(3)
Cl1_3 Cl 0.15439(14) 0.33410(11) 0.51448(12)
N2_3 N 0.2383(2) 0.1341(2) 0.4170(2)
N3_3 N 0.1865(2) 0.1491(2) 0.3821(2)
H9_3 H 0.1736 0.1230 0.3534
N4_3 N 0.1680(2) 0.2389(2) 0.4412(2)
C25_3 C 0.5035(3) 0.0044(3) 0.5777(2)
C26_3 C 0.5684(3) 0.0076(3) 0.5854(3)
C27_3 C 0.5934(3) 0.0339(3) 0.6393(3)
H20_3 H 0.6372 0.0353 0.6447
C28_3 C 0.5548(3) 0.0581(3) 0.6851(2)
C29_3 C 0.4905(3) 0.0550(3) 0.6768(2)
H21_3 H 0.4639 0.0715 0.7078
C30_3 C 0.4650(3) 0.0282(3) 0.6242(3)
H22_3 H 0.4212 0.0260 0.6197
C31_3 C 0.5784(3) 0.0886(3) 0.7423(3)
H23_3 H 0.5505 0.1136 0.7656
C32_3 C 0.7035(3) 0.1091(3) 0.8451(3)
C33_3 C 0.7208(3) 0.1527(3) 0.8916(3)
H24_3 H 0.6959 0.1881 0.9003
C34_3 C 0.7756(3) 0.1414(3) 0.9237(3)
H25_3 H 0.7892 0.1699 0.9545
C35_3 C 0.8101(3) 0.0901(4) 0.9115(3)
H26_3 H 0.8468 0.0814 0.9344
C36_3 C 0.7903(3) 0.0511(3) 0.8652(4)
N8_3 N 0.6341(2) 0.0830(2) 0.7617(2)
N9_3 N 0.6491(2) 0.1179(2) 0.8135(2)
H27_3 H 0.6230 0.1466 0.8264
N10_3 N 0.7389(2) 0.0588(2) 0.8320(2)
C5_3 C 0.3232(2) 0.9905(3) 0.4450(3)
H3_3 H 0.2922 0.9639 0.4285
C6_3 C 0.3758(3) 0.9650(3) 0.4718(3)
H4_3 H 0.3803 0.9212 0.4740
N1_3 N 0.4780(2) 0.9780(2) 0.5220(2)
C13_3 C 0.5044(3) 0.9223(2) 0.4965(3)
C14_3 C 0.5076(3) 0.9146(3) 0.4316(3)
H10_3 H 0.4919 0.9460 0.4049
C15_3 C 0.5339(3) 0.8607(3) 0.4066(3)
H11_3 H 0.5353 0.8553 0.3628
C16_3 C 0.5581(3) 0.8149(2) 0.4452(3)
C17_3 C 0.5550(3) 0.8232(2) 0.5095(3)
H12_3 H 0.5715 0.7922 0.5361
C18_3 C 0.5282(3) 0.8758(3) 0.5350(3)
H13_3 H 0.5260 0.8803 0.5788
C19_3 C 0.5886(3) 0.7577(3) 0.4216(3)
H14_3 H 0.6136 0.7344 0.4495
C20_3 C 0.6091(3) 0.6549(3) 0.2965(3)
C21_3 C 0.6527(3) 0.6084(3) 0.2792(3)
H15_3 H 0.6881 0.5997 0.3041
C22_3 C 0.6414(3) 0.5763(3) 0.2244(3)
H16_3 H 0.6699 0.5455 0.2108
C23_3 C 0.5901(4) 0.5885(3) 0.1899(3)
H17_3 H 0.5814 0.5656 0.1532
C24_3 C 0.5511(3) 0.6348(4) 0.2097(3)
Cl2_3 Cl 0.48552(12) 0.65439(14) 0.16590(11)
N5_3 N 0.5830(2) 0.7383(2) 0.3659(2)
N6_3 N 0.6179(2) 0.6865(2) 0.3509(2)
H18_3 H 0.6466 0.6736 0.3770
N7_3 N 0.5588(2) 0.6680(2) 0.2611(2)
H19_3 H 0.5951 0.9919 0.5540
Cl3_3 Cl 0.83410(11) 0.98552(12) 0.84561(14)
Ag2_4 Ag 0.5000 0.7500 0.28876(3)
C37_3 C 0.5777(2) 0.4965(3) 0.4956(3)
C38_3 C 0.5854(3) 0.4316(3) 0.4924(3)
H28_3 H 0.5540 0.4049 0.5081
C39_3 C 0.6393(3) 0.4066(3) 0.4661(3)
H29_3 H 0.6447 0.3628 0.4647
C40_3 C 0.6851(2) 0.4452(3) 0.4419(3)
C41_3 C 0.6768(2) 0.5095(3) 0.4450(3)
H30_3 H 0.7078 0.5361 0.4285
C42_3 C 0.6242(3) 0.5350(3) 0.4718(3)
H31_3 H 0.6197 0.5788 0.4740
C43_3 C 0.7423(3) 0.4216(3) 0.4114(3)
H32_3 H 0.7656 0.4495 0.3864
C44_3 C 0.8451(3) 0.2965(3) 0.3909(3)
C45_3 C 0.8916(3) 0.2792(3) 0.3473(3)
H33_3 H 0.9003 0.3041 0.3119
C46_3 C 0.9237(3) 0.2244(3) 0.3586(3)
H34_3 H 0.9545 0.2108 0.3301
C47_3 C 0.9115(3) 0.1899(3) 0.4099(4)
H35_3 H 0.9344 0.1532 0.4186
C48_3 C 0.8652(4) 0.2097(3) 0.4489(3)
Cl4_3 Cl 0.84561(14) 0.16590(11) 0.51448(12)
N11_3 N 0.5220(2) 0.5220(2) 0.5220(2)
N13_3 N 0.8135(2) 0.3509(2) 0.3821(2)
H36_3 H 0.8264 0.3770 0.3534
C49_3 C 0.4956(3) 0.5777(2) 0.4965(3)
C50_3 C 0.4924(3) 0.5854(3) 0.4316(3)
H37_3 H 0.5081 0.5540 0.4049
C51_3 C 0.4661(3) 0.6393(3) 0.4066(3)
H38_3 H 0.4647 0.6447 0.3628
C52_3 C 0.4419(3) 0.6851(2) 0.4452(3)
C53_3 C 0.4450(3) 0.6768(2) 0.5095(3)
H39_3 H 0.4285 0.7078 0.5361
C54_3 C 0.4718(3) 0.6242(3) 0.5350(3)
H40_3 H 0.4740 0.6197 0.5788
C55_3 C 0.4114(3) 0.7423(3) 0.4216(3)
H41_3 H 0.3864 0.7656 0.4495
C56_3 C 0.3909(3) 0.8451(3) 0.2965(3)
C57_3 C 0.3473(3) 0.8916(3) 0.2792(3)
H42_3 H 0.3119 0.9003 0.3041
C58_3 C 0.3586(3) 0.9237(3) 0.2244(3)
H43_3 H 0.3301 0.9545 0.2108
C59_3 C 0.4099(4) 0.9115(3) 0.1899(3)
H44_3 H 0.4186 0.9344 0.1532
C60_3 C 0.4489(3) 0.8652(4) 0.2097(3)
Cl5_3 Cl 0.51448(12) 0.84561(14) 0.16590(11)
N15_3 N 0.4170(2) 0.7617(2) 0.3659(2)
N16_3 N 0.3821(2) 0.8135(2) 0.3509(2)
H45_3 H 0.3534 0.8264 0.3770
N17_3 N 0.4412(2) 0.8320(2) 0.2611(2)
C61_3 C 0.4965(3) 0.4956(3) 0.5777(2)
C62_3 C 0.4316(3) 0.4924(3) 0.5854(3)
H46_3 H 0.4049 0.5081 0.5540
C63_3 C 0.4066(3) 0.4661(3) 0.6393(3)
H47_3 H 0.3628 0.4647 0.6447
C64_3 C 0.4452(3) 0.4419(3) 0.6851(2)
C65_3 C 0.5095(3) 0.4450(3) 0.6768(2)
H48_3 H 0.5361 0.4285 0.7078
C66_3 C 0.5350(3) 0.4718(3) 0.6242(3)
H49_3 H 0.5788 0.4740 0.6197
C67_3 C 0.4216(3) 0.4114(3) 0.7423(3)
H50_3 H 0.4495 0.3864 0.7656
C68_3 C 0.2965(3) 0.3909(3) 0.8451(3)
C69_3 C 0.2792(3) 0.3473(3) 0.8916(3)
H51_3 H 0.3041 0.3119 0.9003
C70_3 C 0.2244(3) 0.3586(3) 0.9237(3)
H52_3 H 0.2108 0.3301 0.9545
C71_3 C 0.1899(3) 0.4099(4) 0.9115(3)
H53_3 H 0.1532 0.4186 0.9344
C72_3 C 0.2097(3) 0.4489(3) 0.8652(4)
Cl6_3 Cl 0.16590(11) 0.51448(12) 0.84561(14)
N19_3 N 0.3509(2) 0.3821(2) 0.8135(2)
H54_3 H 0.3770 0.3534 0.8264
N1_4 N 0.0220(2) 0.0220(2) 0.0220(2)
C53_4 C 0.0550(3) 0.3232(2) 0.0095(3)
H39_4 H 0.0715 0.2922 0.0361
C54_4 C 0.0282(3) 0.3758(3) 0.0350(3)
H40_4 H 0.0260 0.3803 0.0788
C61_4 C 0.0035(3) 0.5044(3) 0.0777(2)
C62_4 C 0.0684(3) 0.5076(3) 0.0854(3)
H46_4 H 0.0951 0.4919 0.0540
C63_4 C 0.0934(3) 0.5339(3) 0.1393(3)
H47_4 H 0.1372 0.5353 0.1447
C64_4 C 0.0548(3) 0.5581(3) 0.1851(2)
C67_4 C 0.0784(3) 0.5886(3) 0.2423(3)
H50_4 H 0.0505 0.6136 0.2656
C68_4 C 0.2035(3) 0.6091(3) 0.3451(3)
C69_4 C 0.2208(3) 0.6527(3) 0.3916(3)
H51_4 H 0.1959 0.6881 0.4003
C70_4 C 0.2756(3) 0.6414(3) 0.4237(3)
H52_4 H 0.2892 0.6699 0.4545
C71_4 C 0.3101(3) 0.5901(4) 0.4115(3)
H53_4 H 0.3468 0.5814 0.4344
C72_4 C 0.2903(3) 0.5511(3) 0.3652(4)
Cl6_4 Cl 0.33410(11) 0.48552(12) 0.34561(14)
N19_4 N 0.1491(2) 0.6179(2) 0.3135(2)
H54_4 H 0.1230 0.6466 0.3264
C5_4 C 0.1768(2) 0.0095(3) 0.9450(3)
H3_4 H 0.2078 0.0361 0.9285
C6_4 C 0.1242(3) 0.0350(3) 0.9718(3)
H4_4 H 0.1197 0.0788 0.9740
H10_4 H 0.0081 0.0540 0.9049
Cl2_4 Cl 0.01448(12) 0.34561(14) 0.66590(11)
Ag2_5 Ag -0.0000 0.2500 0.78876(3)
C49_4 C 0.0044(3) 0.4223(2) 0.9965(3)
C50_4 C 0.0076(3) 0.4146(3) 0.9316(3)
C51_4 C 0.0339(3) 0.3607(3) 0.9066(3)
H38_4 H 0.0353 0.3553 0.8628
C52_4 C 0.0581(3) 0.3149(2) 0.9452(3)
C55_4 C 0.0886(3) 0.2577(3) 0.9216(3)
H41_4 H 0.1136 0.2344 0.9495
C56_4 C 0.1091(3) 0.1549(3) 0.7965(3)
C57_4 C 0.1527(3) 0.1084(3) 0.7792(3)
H42_4 H 0.1881 0.0997 0.8041
C58_4 C 0.1414(3) 0.0763(3) 0.7244(3)
H43_4 H 0.1699 0.0455 0.7108
C59_4 C 0.0901(4) 0.0885(3) 0.6899(3)
H44_4 H 0.0814 0.0656 0.6532
C60_4 C 0.0511(3) 0.1348(4) 0.7097(3)
N15_4 N 0.0830(2) 0.2383(2) 0.8659(2)
N16_4 N 0.1179(2) 0.1865(2) 0.8509(2)
H45_4 H 0.1466 0.1736 0.8770
N17_4 N 0.0588(2) 0.1680(2) 0.7611(2)
H1_4 H 0.0540 0.9049 0.0081
Cl1_4 Cl 0.34561(14) 0.66590(11) 0.01448(12)
C29_4 C 0.0095(3) 0.9450(3) 0.1768(2)
H21_4 H 0.0361 0.9285 0.2078
C30_4 C 0.0350(3) 0.9718(3) 0.1242(3)
H22_4 H 0.0788 0.9740 0.1197
C1_4 C 0.0777(2) 0.9965(3) 0.9956(3)
C2_4 C 0.0854(3) 0.9316(3) 0.9924(3)
C3_4 C 0.1393(3) 0.9066(3) 0.9661(3)
H2_4 H 0.1447 0.8628 0.9647
C4_4 C 0.1851(2) 0.9452(3) 0.9419(3)
C7_4 C 0.2423(3) 0.9216(3) 0.9114(3)
H5_4 H 0.2656 0.9495 0.8864
C8_4 C 0.3451(3) 0.7965(3) 0.8909(3)
C9_4 C 0.3916(3) 0.7792(3) 0.8473(3)
H6_4 H 0.4003 0.8041 0.8119
C10_4 C 0.4237(3) 0.7244(3) 0.8586(3)
H7_4 H 0.4545 0.7108 0.8301
C11_4 C 0.4115(3) 0.6899(3) 0.9099(4)
H8_4 H 0.4344 0.6532 0.9186
C12_4 C 0.3652(4) 0.7097(3) 0.9489(3)
N2_4 N 0.2617(2) 0.8659(2) 0.9170(2)
N3_4 N 0.3135(2) 0.8509(2) 0.8821(2)
H9_4 H 0.3264 0.8770 0.8534
N4_4 N 0.3320(2) 0.7611(2) 0.9412(2)
C17_4 C 0.9450(3) 0.1768(2) 0.0095(3)
H12_4 H 0.9285 0.2078 0.0361
C18_4 C 0.9718(3) 0.1242(3) 0.0350(3)
H13_4 H 0.9740 0.1197 0.0788
H19_4 H 0.9049 0.0081 0.0540
Cl3_4 Cl 0.66590(11) 0.01448(12) 0.34561(14)
H28_4 H 0.9460 0.5951 0.0081
Cl4_4 Cl 0.65439(14) 0.83410(11) 0.01448(12)
N11_4 N 0.9780(2) 0.4780(2) 0.0220(2)
C65_4 C 0.9905(3) 0.5550(3) 0.1768(2)
H48_4 H 0.9639 0.5715 0.2078
C66_4 C 0.9650(3) 0.5282(3) 0.1242(3)
H49_4 H 0.9212 0.5260 0.1197
C13_4 C 0.9956(3) 0.0777(2) 0.9965(3)
C14_4 C 0.9924(3) 0.0854(3) 0.9316(3)
C15_4 C 0.9661(3) 0.1393(3) 0.9066(3)
H11_4 H 0.9647 0.1447 0.8628
C16_4 C 0.9419(3) 0.1851(2) 0.9452(3)
C19_4 C 0.9114(3) 0.2423(3) 0.9216(3)
H14_4 H 0.8864 0.2656 0.9495
C20_4 C 0.8909(3) 0.3451(3) 0.7965(3)
C21_4 C 0.8473(3) 0.3916(3) 0.7792(3)
H15_4 H 0.8119 0.4003 0.8041
C22_4 C 0.8586(3) 0.4237(3) 0.7244(3)
H16_4 H 0.8301 0.4545 0.7108
C23_4 C 0.9099(4) 0.4115(3) 0.6899(3)
H17_4 H 0.9186 0.4344 0.6532
C24_4 C 0.9489(3) 0.3652(4) 0.7097(3)
N5_4 N 0.9170(2) 0.2617(2) 0.8659(2)
N6_4 N 0.8821(2) 0.3135(2) 0.8509(2)
H18_4 H 0.8534 0.3264 0.8770
N7_4 N 0.9412(2) 0.3320(2) 0.7611(2)
Ag2_6 Ag 1.0000 0.2500 0.78876(3)
C37_4 C 0.9223(2) 0.5035(3) 0.9956(3)
C38_4 C 0.9146(3) 0.5684(3) 0.9924(3)
C39_4 C 0.8607(3) 0.5934(3) 0.9661(3)
H29_4 H 0.8553 0.6372 0.9647
C40_4 C 0.8149(2) 0.5548(3) 0.9419(3)
C41_4 C 0.8232(2) 0.4905(3) 0.9450(3)
H30_4 H 0.7922 0.4639 0.9285
C42_4 C 0.8758(3) 0.4650(3) 0.9718(3)
H31_4 H 0.8803 0.4212 0.9740
C43_4 C 0.7577(3) 0.5784(3) 0.9114(3)
H32_4 H 0.7344 0.5505 0.8864
C44_4 C 0.6549(3) 0.7035(3) 0.8909(3)
C45_4 C 0.6084(3) 0.7208(3) 0.8473(3)
H33_4 H 0.5997 0.6959 0.8119
C46_4 C 0.5763(3) 0.7756(3) 0.8586(3)
H34_4 H 0.5455 0.7892 0.8301
C47_4 C 0.5885(3) 0.8101(3) 0.9099(4)
H35_4 H 0.5656 0.8468 0.9186
C48_4 C 0.6348(4) 0.7903(3) 0.9489(3)
N13_4 N 0.6865(2) 0.6491(2) 0.8821(2)
H36_4 H 0.6736 0.6230 0.8534
H37_4 H 0.9919 0.4460 0.9049
Cl5_4 Cl 0.98552(12) 0.15439(14) 0.66590(11)
C25_4 C 0.9965(3) 0.9956(3) 0.0777(2)
C26_4 C 0.9316(3) 0.9924(3) 0.0854(3)
C27_4 C 0.9066(3) 0.9661(3) 0.1393(3)
H20_4 H 0.8628 0.9647 0.1447
C28_4 C 0.9452(3) 0.9419(3) 0.1851(2)
C31_4 C 0.9216(3) 0.9114(3) 0.2423(3)
H23_4 H 0.9495 0.8864 0.2656
C32_4 C 0.7965(3) 0.8909(3) 0.3451(3)
C33_4 C 0.7792(3) 0.8473(3) 0.3916(3)
H24_4 H 0.8041 0.8119 0.4003
C34_4 C 0.7244(3) 0.8586(3) 0.4237(3)
H25_4 H 0.7108 0.8301 0.4545
C35_4 C 0.6899(3) 0.9099(4) 0.4115(3)
H26_4 H 0.6532 0.9186 0.4344
C36_4 C 0.7097(3) 0.9489(3) 0.3652(4)
N8_4 N 0.8659(2) 0.9170(2) 0.2617(2)
N9_4 N 0.8509(2) 0.8821(2) 0.3135(2)
H27_4 H 0.8770 0.8534 0.3264
N10_4 N 0.7611(2) 0.9412(2) 0.3320(2)
Cl7 Cl 0.0000 0.7500 0.31230(9)
O1 O 0.0239(2) 0.7994(2) 0.2744(2)
O2 O 0.0500(3) 0.7259(2) 0.3491(2)
Cl7_2 Cl 1.0000 0.7500 0.31230(9)
O3 O 0.9761(2) 0.7006(2) 0.2744(2)
O4 O 0.9500(3) 0.7741(2) 0.3491(2)
Cl7_3 Cl 0.5000 0.2500 0.81230(9)
O1_2 O 0.4761(2) 0.2006(2) 0.7744(2)
O2_2 O 0.4500(3) 0.2741(2) 0.8491(2)
O3_2 O 0.5239(2) 0.2994(2) 0.7744(2)
O4_2 O 0.5500(3) 0.2259(2) 0.8491(2)
Cl7_4 Cl 0.0000 0.2500 0.18770(9)
O3_3 O 0.0239(2) 0.2006(2) 0.2256(2)
O4_3 O 0.0500(3) 0.2741(2) 0.1509(2)
Cl7_5 Cl 1.0000 0.2500 0.18770(9)
O1_3 O 0.9761(2) 0.2994(2) 0.2256(2)
O2_3 O 0.9500(3) 0.2259(2) 0.1509(2)
Cl7_6 Cl 0.5000 0.7500 0.68770(9)
O1_4 O 0.5239(2) 0.7006(2) 0.7256(2)
O2_4 O 0.5500(3) 0.7741(2) 0.6509(2)
O3_4 O 0.4761(2) 0.7994(2) 0.7256(2)
O4_4 O 0.4500(3) 0.7259(2) 0.6509(2)
Cl7_7 Cl 0.31230(9) 0.0000 0.7500
O1_5 O 0.2744(2) 0.0239(2) 0.7994(2)
O2_5 O 0.3491(2) 0.0500(3) 0.7259(2)
Cl7_8 Cl 0.31230(9) 1.0000 0.7500
O3_5 O 0.2744(2) 0.9761(2) 0.7006(2)
O4_5 O 0.3491(2) 0.9500(3) 0.7741(2)
Cl7_9 Cl 0.81230(9) 0.5000 0.2500
O1_6 O 0.7744(2) 0.4761(2) 0.2006(2)
O2_6 O 0.8491(2) 0.4500(3) 0.2741(2)
O3_6 O 0.7744(2) 0.5239(2) 0.2994(2)
O4_6 O 0.8491(2) 0.5500(3) 0.2259(2)
Cl7_10 Cl 0.18770(9) -0.0000 0.2500
O3_7 O 0.2256(2) 0.0239(2) 0.2006(2)
O4_7 O 0.1509(2) 0.0500(3) 0.2741(2)
Cl7_11 Cl 0.18770(9) 1.0000 0.2500
O1_7 O 0.2256(2) 0.9761(2) 0.2994(2)
O2_7 O 0.1509(2) 0.9500(3) 0.2259(2)
Cl7_12 Cl 0.68770(9) 0.5000 0.7500
O1_8 O 0.7256(2) 0.5239(2) 0.7006(2)
O2_8 O 0.6509(2) 0.5500(3) 0.7741(2)
O3_8 O 0.7256(2) 0.4761(2) 0.7994(2)
O4_8 O 0.6509(2) 0.4500(3) 0.7259(2)
Cl7_13 Cl 0.7500 0.31230(9) 0.0000
O1_9 O 0.7994(2) 0.2744(2) 0.0239(2)
O2_9 O 0.7259(2) 0.3491(2) 0.0500(3)
Cl7_14 Cl 0.7500 0.31230(9) 1.0000
O3_9 O 0.7006(2) 0.2744(2) 0.9761(2)
O4_9 O 0.7741(2) 0.3491(2) 0.9500(3)
Cl7_15 Cl 0.2500 0.81230(9) 0.5000
O1_10 O 0.2006(2) 0.7744(2) 0.4761(2)
O2_10 O 0.2741(2) 0.8491(2) 0.4500(3)
O3_10 O 0.2994(2) 0.7744(2) 0.5239(2)
O4_10 O 0.2259(2) 0.8491(2) 0.5500(3)
Cl7_16 Cl 0.2500 0.18770(9) -0.0000
O3_11 O 0.2006(2) 0.2256(2) 0.0239(2)
O4_11 O 0.2741(2) 0.1509(2) 0.0500(3)
Cl7_17 Cl 0.2500 0.18770(9) 1.0000
O1_11 O 0.2994(2) 0.2256(2) 0.9761(2)
O2_11 O 0.2259(2) 0.1509(2) 0.9500(3)
Cl7_18 Cl 0.7500 0.68770(9) 0.5000
O1_12 O 0.7006(2) 0.7256(2) 0.5239(2)
O2_12 O 0.7741(2) 0.6509(2) 0.5500(3)
O3_12 O 0.7994(2) 0.7256(2) 0.4761(2)
O4_12 O 0.7259(2) 0.6509(2) 0.4500(3)
loop_
_geom_bond_atom_site_label_1
_geom_bond_atom_site_label_2
_geom_bond_site_symmetry_1
_geom_bond_site_symmetry_2
Ag1 N2 1_555 1_555
C1 C2 1_555 1_555
C3 C2 1_555 1_555
H2 C3 1_555 1_555
C4 C3 1_555 1_555
C5 C4 1_555 1_555
H3 C5 1_555 1_555
C6 C1 1_555 1_555
H4 C6 1_555 1_555
C7 C4 1_555 1_555
H5 C7 1_555 1_555
C8 C9 1_555 1_555
C9 H6 1_555 1_555
C10 C9 1_555 1_555
H7 C10 1_555 1_555
C11 C10 1_555 1_555
H8 C11 1_555 1_555
C12 C11 1_555 1_555
N2 C7 1_555 1_555
N3 C8 1_555 1_555
H9 N3 1_555 1_555
N4 Ag1 1_555 1_555
C14 C13 1_555 1_555
H10 C14 1_555 1_555
C15 C14 1_555 1_555
H11 C15 1_555 1_555
C16 C15 1_555 1_555
C19 C16 1_555 1_555
H14 C19 1_555 1_555
C20 C21 1_555 1_555
C21 H15 1_555 1_555
C22 C21 1_555 1_555
H16 C22 1_555 1_555
C23 C22 1_555 1_555
H17 C23 1_555 1_555
C24 C23 1_555 1_555
Cl2 C24 1_555 1_555
N5 C19 1_555 1_555
N6 C20 1_555 1_555
H18 N6 1_555 1_555
N7 C20 1_555 1_555
Ag2 N5 1_555 1_555
H30 C41 1_555 1_555
H31 C42 1_555 1_555
C50 C49 1_555 1_555
H37 C50 1_555 1_555
C51 C50 1_555 1_555
H38 C51 1_555 1_555
C52 C51 1_555 1_555
C55 C52 1_555 1_555
H41 C55 1_555 1_555
C56 C57 1_555 1_555
C57 H42 1_555 1_555
C58 C57 1_555 1_555
H43 C58 1_555 1_555
C59 C58 1_555 1_555
H44 C59 1_555 1_555
C60 C59 1_555 1_555
Cl5 C60 1_555 1_555
N15 Ag2 1_555 1_555
N16 C56 1_555 1_555
H45 N16 1_555 1_555
N17 Ag2 1_555 1_555
C5 C6 1_555 1_555
C8 N4 1_555 1_555
C12 N4 1_555 1_555
N2 N3 1_555 1_555
C24 N7 1_555 1_555
N5 N6 1_555 1_555
N7 Ag2 1_555 1_555
C41 C42 1_555 1_555
C55 N15 1_555 1_555
C56 N17 1_555 1_555
C60 N17 1_555 1_555
N15 N16 1_555 1_555
H12 C17 1_555 1_555
H13 C18 1_555 1_555
C25 N1 1_555 1_555
C26 C25 1_555 1_555
H19 C26 1_555 1_555
C27 C26 1_555 1_555
H20 C27 1_555 1_555
C28 C27 1_555 1_555
C29 C28 1_555 1_555
H21 C29 1_555 1_555
C30 C25 1_555 1_555
H22 C30 1_555 1_555
C31 C28 1_555 1_555
H23 C31 1_555 1_555
C32 C33 1_555 1_555
C33 H24 1_555 1_555
C34 C33 1_555 1_555
H25 C34 1_555 1_555
C35 C34 1_555 1_555
H26 C35 1_555 1_555
C36 C35 1_555 1_555
Cl3 C36 1_555 1_555
N8 C31 1_555 1_555
N9 C32 1_555 1_555
H27 N9 1_555 1_555
N10 C32 1_555 1_555
Ag3 N8 1_555 1_555
H39 C53 1_555 1_555
H40 C54 1_555 1_555
N21 Ag1_2 1_555 1_555
N22 Ag3 1_555 1_555
N23 Ag1_2 1_555 1_555
N24 Ag3 1_555 1_555
C17 C18 1_555 1_555
C29 C30 1_555 1_555
C36 N10 1_555 1_555
N8 N9 1_555 1_555
N10 Ag3 1_555 1_555
C53 C54 1_555 1_555
C37 C38 1_555 1_555
C39 C38 1_555 1_555
H29 C39 1_555 1_555
C40 C39 1_555 1_555
C43 C40 1_555 1_555
H32 C43 1_555 1_555
C44 C45 1_555 1_555
C45 H33 1_555 1_555
C46 C45 1_555 1_555
H34 C46 1_555 1_555
C47 C46 1_555 1_555
H35 C47 1_555 1_555
C48 C47 1_555 1_555
N12 C43 1_555 1_555
N13 C44 1_555 1_555
H36 N13 1_555 1_555
N14 C44 1_555 1_555
Ag4 N12 1_555 1_555
C48 N14 1_555 1_555
N12 N13 1_555 1_555
N14 Ag4 1_555 1_555
C62 C61 1_555 1_555
C63 C62 1_555 1_555
H47 C63 1_555 1_555
C64 C63 1_555 1_555
C65 C64 1_555 1_555
H48 C65 1_555 1_555
C66 C61 1_555 1_555
H49 C66 1_555 1_555
C67 C64 1_555 1_555
H50 C67 1_555 1_555
C68 C69 1_555 1_555
C69 H51 1_555 1_555
C70 C69 1_555 1_555
H52 C70 1_555 1_555
C71 C70 1_555 1_555
H53 C71 1_555 1_555
C72 C71 1_555 1_555
N18 C67 1_555 1_555
N19 C68 1_555 1_555
H54 N19 1_555 1_555
N20 C68 1_555 1_555
Ag5_2 N18 1_555 1_555
C65 C66 1_555 1_555
C72 N20 1_555 1_555
N18 N19 1_555 1_555
N20 Ag5_2 1_555 1_555
C37_2 C38_2 1_555 1_555
C38_2 H28_2 1_555 1_555
C39_2 C38_2 1_555 1_555
H29_2 C39_2 1_555 1_555
C40_2 C39_2 1_555 1_555
C43_2 C40_2 1_555 1_555
H32_2 C43_2 1_555 1_555
C44_2 C45_2 1_555 1_555
C45_2 H33_2 1_555 1_555
C46_2 C45_2 1_555 1_555
H34_2 C46_2 1_555 1_555
C47_2 C46_2 1_555 1_555
H35_2 C47_2 1_555 1_555
C48_2 C47_2 1_555 1_555
Cl4_2 C48_2 1_555 1_555
N12_2 C43_2 1_555 1_555
N13_2 C44_2 1_555 1_555
H36_2 N13_2 1_555 1_555
N14_2 C44_2 1_555 1_555
H48_2 C65_2 1_555 1_555
H49_2 C66_2 1_555 1_555
Ag4_3 N12_2 1_555 1_555
C48_2 N14_2 1_555 1_555
N12_2 N13_2 1_555 1_555
N14_2 Ag4_3 1_555 1_555
C65_2 C66_2 1_555 1_555
C14_2 C13_2 1_555 1_555
C15_2 C14_2 1_555 1_555
H11_2 C15_2 1_555 1_555
C16_2 C15_2 1_555 1_555
C17_2 C16_2 1_555 1_555
H12_2 C17_2 1_555 1_555
C18_2 C13_2 1_555 1_555
H13_2 C18_2 1_555 1_555
C19_2 C16_2 1_555 1_555
H14_2 C19_2 1_555 1_555
C20_2 C21_2 1_555 1_555
C21_2 H15_2 1_555 1_555
C22_2 C21_2 1_555 1_555
H16_2 C22_2 1_555 1_555
C23_2 C22_2 1_555 1_555
H17_2 C23_2 1_555 1_555
C24_2 C23_2 1_555 1_555
N5_2 C19_2 1_555 1_555
N6_2 C20_2 1_555 1_555
H18_2 N6_2 1_555 1_555
N7_2 C20_2 1_555 1_555
C26_2 C25_2 1_555 1_555
H19_2 C26_2 1_555 1_555
C27_2 C26_2 1_555 1_555
H20_2 C27_2 1_555 1_555
C28_2 C27_2 1_555 1_555
C31_2 C28_2 1_555 1_555
H23_2 C31_2 1_555 1_555
C32_2 C33_2 1_555 1_555
C33_2 H24_2 1_555 1_555
C34_2 C33_2 1_555 1_555
H25_2 C34_2 1_555 1_555
C35_2 C34_2 1_555 1_555
H26_2 C35_2 1_555 1_555
C36_2 C35_2 1_555 1_555
Cl3_2 C36_2 1_555 1_555
N8_2 C31_2 1_555 1_555
N9_2 C32_2 1_555 1_555
H27_2 N9_2 1_555 1_555
N10_2 C32_2 1_555 1_555
Ag2_2 N5_2 1_555 1_555
Ag3_2 N8_2 1_555 1_555
H30_2 C41_2 1_555 1_555
H31_2 C42_2 1_555 1_555
N22_2 Ag3_2 1_555 1_555
N24_2 Ag3_2 1_555 1_555
C17_2 C18_2 1_555 1_555
C24_2 N7_2 1_555 1_555
N5_2 N6_2 1_555 1_555
N7_2 Ag2_2 1_555 1_555
C36_2 N10_2 1_555 1_555
N8_2 N9_2 1_555 1_555
N10_2 Ag3_2 1_555 1_555
C41_2 C42_2 1_555 1_555
C62_2 C61_2 1_555 1_555
C63_2 C62_2 1_555 1_555
H47_2 C63_2 1_555 1_555
C64_2 C63_2 1_555 1_555
C67_2 C64_2 1_555 1_555
H50_2 C67_2 1_555 1_555
C68_2 C69_2 1_555 1_555
C69_2 H51_2 1_555 1_555
C70_2 C69_2 1_555 1_555
H52_2 C70_2 1_555 1_555
C71_2 C70_2 1_555 1_555
H53_2 C71_2 1_555 1_555
C72_2 C71_2 1_555 1_555
N18_2 C67_2 1_555 1_555
N19_2 C68_2 1_555 1_555
H54_2 N19_2 1_555 1_555
N20_2 C68_2 1_555 1_555
Ag5_3 N18_2 1_555 1_555
C72_2 N20_2 1_555 1_555
N18_2 N19_2 1_555 1_555
N20_2 Ag5_3 1_555 1_555
Ag1_3 N2_2 1_555 1_555
C1_2 C2_2 1_555 1_555
C2_2 H1_2 1_555 1_555
C3_2 C2_2 1_555 1_555
H2_2 C3_2 1_555 1_555
C4_2 C3_2 1_555 1_555
C5_2 C4_2 1_555 1_555
H3_2 C5_2 1_555 1_555
C6_2 C1_2 1_555 1_555
H4_2 C6_2 1_555 1_555
C7_2 C4_2 1_555 1_555
H5_2 C7_2 1_555 1_555
C8_2 C9_2 1_555 1_555
C9_2 H6_2 1_555 1_555
C10_2 C9_2 1_555 1_555
H7_2 C10_2 1_555 1_555
C11_2 C10_2 1_555 1_555
H8_2 C11_2 1_555 1_555
C12_2 C11_2 1_555 1_555
Cl1_2 C12_2 1_555 1_555
N1_2 C1_2 1_555 1_555
N2_2 C7_2 1_555 1_555
N3_2 C8_2 1_555 1_555
H9_2 N3_2 1_555 1_555
N4_2 Ag1_3 1_555 1_555
H21_2 C29_2 1_555 1_555
H22_2 C30_2 1_555 1_555
C50_2 C49_2 1_555 1_555
C51_2 C50_2 1_555 1_555
H38_2 C51_2 1_555 1_555
C52_2 C51_2 1_555 1_555
C53_2 C52_2 1_555 1_555
H39_2 C53_2 1_555 1_555
C54_2 C49_2 1_555 1_555
H40_2 C54_2 1_555 1_555
C55_2 C52_2 1_555 1_555
H41_2 C55_2 1_555 1_555
C56_2 C57_2 1_555 1_555
C57_2 H42_2 1_555 1_555
C58_2 C57_2 1_555 1_555
H43_2 C58_2 1_555 1_555
C59_2 C58_2 1_555 1_555
H44_2 C59_2 1_555 1_555
C60_2 C59_2 1_555 1_555
N15_2 Ag2_3 1_555 1_555
N16_2 C56_2 1_555 1_555
H45_2 N16_2 1_555 1_555
N17_2 Ag2_3 1_555 1_555
N21_2 Ag1_3 1_555 1_555
N23_2 Ag1_3 1_555 1_555
C5_2 C6_2 1_555 1_555
C8_2 N4_2 1_555 1_555
C12_2 N4_2 1_555 1_555
N2_2 N3_2 1_555 1_555
C29_2 C30_2 1_555 1_555
C53_2 C54_2 1_555 1_555
C55_2 N15_2 1_555 1_555
C56_2 N17_2 1_555 1_555
C60_2 N17_2 1_555 1_555
N15_2 N16_2 1_555 1_555
Ag4_3 N2_3 1_555 1_555
C1_3 C2_3 1_555 1_555
C2_3 H1_3 1_555 1_555
C3_3 C2_3 1_555 1_555
H2_3 C3_3 1_555 1_555
C4_3 C3_3 1_555 1_555
C7_3 C4_3 1_555 1_555
H5_3 C7_3 1_555 1_555
C8_3 C9_3 1_555 1_555
C9_3 H6_3 1_555 1_555
C10_3 C9_3 1_555 1_555
H7_3 C10_3 1_555 1_555
C11_3 C10_3 1_555 1_555
H8_3 C11_3 1_555 1_555
C12_3 C11_3 1_555 1_555
Cl1_3 C12_3 1_555 1_555
N2_3 C7_3 1_555 1_555
N3_3 C8_3 1_555 1_555
H9_3 N3_3 1_555 1_555
N4_3 Ag4_3 1_555 1_555
C26_3 C25_3 1_555 1_555
C27_3 C26_3 1_555 1_555
H20_3 C27_3 1_555 1_555
C28_3 C27_3 1_555 1_555
C29_3 C28_3 1_555 1_555
H21_3 C29_3 1_555 1_555
C30_3 C25_3 1_555 1_555
H22_3 C30_3 1_555 1_555
C31_3 C28_3 1_555 1_555
H23_3 C31_3 1_555 1_555
C32_3 C33_3 1_555 1_555
C33_3 H24_3 1_555 1_555
C34_3 C33_3 1_555 1_555
H25_3 C34_3 1_555 1_555
C35_3 C34_3 1_555 1_555
H26_3 C35_3 1_555 1_555
C36_3 C35_3 1_555 1_555
N8_3 C31_3 1_555 1_555
N9_3 C32_3 1_555 1_555
H27_3 N9_3 1_555 1_555
N10_3 C32_3 1_555 1_555
Ag5 N8_3 1_555 1_555
C8_3 N4_3 1_555 1_555
C12_3 N4_3 1_555 1_555
N2_3 N3_3 1_555 1_555
C29_3 C30_3 1_555 1_555
C36_3 N10_3 1_555 1_555
N8_3 N9_3 1_555 1_555
N10_3 Ag5 1_555 1_555
H3_3 C5_3 1_555 1_555
H4_3 C6_3 1_555 1_555
C13_3 N1_3 1_555 1_555
C14_3 C13_3 1_555 1_555
H10_3 C14_3 1_555 1_555
C15_3 C14_3 1_555 1_555
H11_3 C15_3 1_555 1_555
C16_3 C15_3 1_555 1_555
C17_3 C16_3 1_555 1_555
H12_3 C17_3 1_555 1_555
C18_3 C13_3 1_555 1_555
H13_3 C18_3 1_555 1_555
C19_3 C16_3 1_555 1_555
H14_3 C19_3 1_555 1_555
C20_3 C21_3 1_555 1_555
C21_3 H15_3 1_555 1_555
C22_3 C21_3 1_555 1_555
H16_3 C22_3 1_555 1_555
C23_3 C22_3 1_555 1_555
H17_3 C23_3 1_555 1_555
C24_3 C23_3 1_555 1_555
Cl2_3 C24_3 1_555 1_555
N5_3 C19_3 1_555 1_555
N6_3 C20_3 1_555 1_555
H18_3 N6_3 1_555 1_555
N7_3 C20_3 1_555 1_555
Ag2_4 N5_3 1_555 1_555
C37_3 C38_3 1_555 1_555
C38_3 H28_3 1_555 1_555
C39_3 C38_3 1_555 1_555
H29_3 C39_3 1_555 1_555
C40_3 C39_3 1_555 1_555
C41_3 C40_3 1_555 1_555
H30_3 C41_3 1_555 1_555
C42_3 C37_3 1_555 1_555
H31_3 C42_3 1_555 1_555
C43_3 C40_3 1_555 1_555
H32_3 C43_3 1_555 1_555
C44_3 C45_3 1_555 1_555
C45_3 H33_3 1_555 1_555
C46_3 C45_3 1_555 1_555
H34_3 C46_3 1_555 1_555
C47_3 C46_3 1_555 1_555
H35_3 C47_3 1_555 1_555
C48_3 C47_3 1_555 1_555
Cl4_3 C48_3 1_555 1_555
N11_3 C37_3 1_555 1_555
N21_2 C43_3 1_555 1_555
N13_3 C44_3 1_555 1_555
H36_3 N13_3 1_555 1_555
N23_2 C44_3 1_555 1_555
C49_3 N11_3 1_555 1_555
C50_3 C49_3 1_555 1_555
H37_3 C50_3 1_555 1_555
C51_3 C50_3 1_555 1_555
H38_3 C51_3 1_555 1_555
C52_3 C51_3 1_555 1_555
C53_3 C52_3 1_555 1_555
H39_3 C53_3 1_555 1_555
C54_3 C49_3 1_555 1_555
H40_3 C54_3 1_555 1_555
C55_3 C52_3 1_555 1_555
H41_3 C55_3 1_555 1_555
C56_3 C57_3 1_555 1_555
C57_3 H42_3 1_555 1_555
C58_3 C57_3 1_555 1_555
H43_3 C58_3 1_555 1_555
C59_3 C58_3 1_555 1_555
H44_3 C59_3 1_555 1_555
C60_3 C59_3 1_555 1_555
Cl5_3 C60_3 1_555 1_555
N15_3 Ag2_4 1_555 1_555
N16_3 C56_3 1_555 1_555
H45_3 N16_3 1_555 1_555
N17_3 Ag2_4 1_555 1_555
C61_3 N11_3 1_555 1_555
C62_3 C61_3 1_555 1_555
H46_3 C62_3 1_555 1_555
C63_3 C62_3 1_555 1_555
H47_3 C63_3 1_555 1_555
C64_3 C63_3 1_555 1_555
C65_3 C64_3 1_555 1_555
H48_3 C65_3 1_555 1_555
C66_3 C61_3 1_555 1_555
H49_3 C66_3 1_555 1_555
C67_3 C64_3 1_555 1_555
H50_3 C67_3 1_555 1_555
C68_3 C69_3 1_555 1_555
C69_3 H51_3 1_555 1_555
C70_3 C69_3 1_555 1_555
H52_3 C70_3 1_555 1_555
C71_3 C70_3 1_555 1_555
H53_3 C71_3 1_555 1_555
C72_3 C71_3 1_555 1_555
Cl6_3 C72_3 1_555 1_555
N22 C67_3 1_555 1_555
N19_3 C68_3 1_555 1_555
H54_3 N19_3 1_555 1_555
N24 C68_3 1_555 1_555
C5_3 C6_3 1_555 1_555
C17_3 C18_3 1_555 1_555
C24_3 N7_3 1_555 1_555
N5_3 N6_3 1_555 1_555
N7_3 Ag2_4 1_555 1_555
C41_3 C42_3 1_555 1_555
C48_3 N23_2 1_555 1_555
N21_2 N13_3 1_555 1_555
C53_3 C54_3 1_555 1_555
C55_3 N15_3 1_555 1_555
C56_3 N17_3 1_555 1_555
C60_3 N17_3 1_555 1_555
N15_3 N16_3 1_555 1_555
C65_3 C66_3 1_555 1_555
C72_3 N24 1_555 1_555
N22 N19_3 1_555 1_555
H39_4 C53_4 1_555 1_555
H40_4 C54_4 1_555 1_555
C62_4 C61_4 1_555 1_555
H46_4 C62_4 1_555 1_555
C63_4 C62_4 1_555 1_555
H47_4 C63_4 1_555 1_555
C64_4 C63_4 1_555 1_555
C67_4 C64_4 1_555 1_555
H50_4 C67_4 1_555 1_555
C68_4 C69_4 1_555 1_555
C69_4 H51_4 1_555 1_555
C70_4 C69_4 1_555 1_555
H52_4 C70_4 1_555 1_555
C71_4 C70_4 1_555 1_555
H53_4 C71_4 1_555 1_555
C72_4 C71_4 1_555 1_555
Cl6_4 C72_4 1_555 1_555
N22_2 C67_4 1_555 1_555
N19_4 C68_4 1_555 1_555
H54_4 N19_4 1_555 1_555
N24_2 C68_4 1_555 1_555
C53_4 C54_4 1_555 1_555
C72_4 N24_2 1_555 1_555
N22_2 N19_4 1_555 1_555
H3_4 C5_4 1_555 1_555
H4_4 C6_4 1_555 1_555
C50_4 C49_4 1_555 1_555
C51_4 C50_4 1_555 1_555
H38_4 C51_4 1_555 1_555
C52_4 C51_4 1_555 1_555
C55_4 C52_4 1_555 1_555
H41_4 C55_4 1_555 1_555
C56_4 C57_4 1_555 1_555
C57_4 H42_4 1_555 1_555
C58_4 C57_4 1_555 1_555
H43_4 C58_4 1_555 1_555
C59_4 C58_4 1_555 1_555
H44_4 C59_4 1_555 1_555
C60_4 C59_4 1_555 1_555
N15_4 Ag2_5 1_555 1_555
N16_4 C56_4 1_555 1_555
H45_4 N16_4 1_555 1_555
N17_4 Ag2_5 1_555 1_555
C5_4 C6_4 1_555 1_555
C55_4 N15_4 1_555 1_555
C56_4 N17_4 1_555 1_555
C60_4 N17_4 1_555 1_555
N15_4 N16_4 1_555 1_555
H21_4 C29_4 1_555 1_555
H22_4 C30_4 1_555 1_555
C29_4 C30_4 1_555 1_555
Ag4_2 N2_4 1_555 1_555
C1_4 C2_4 1_555 1_555
C3_4 C2_4 1_555 1_555
H2_4 C3_4 1_555 1_555
C4_4 C3_4 1_555 1_555
C7_4 C4_4 1_555 1_555
H5_4 C7_4 1_555 1_555
C8_4 C9_4 1_555 1_555
C9_4 H6_4 1_555 1_555
C10_4 C9_4 1_555 1_555
H7_4 C10_4 1_555 1_555
C11_4 C10_4 1_555 1_555
H8_4 C11_4 1_555 1_555
C12_4 C11_4 1_555 1_555
N2_4 C7_4 1_555 1_555
N3_4 C8_4 1_555 1_555
H9_4 N3_4 1_555 1_555
N4_4 Ag4_2 1_555 1_555
C8_4 N4_4 1_555 1_555
C12_4 N4_4 1_555 1_555
N2_4 N3_4 1_555 1_555
H12_4 C17_4 1_555 1_555
H13_4 C18_4 1_555 1_555
H48_4 C65_4 1_555 1_555
H49_4 C66_4 1_555 1_555
C17_4 C18_4 1_555 1_555
C65_4 C66_4 1_555 1_555
C14_4 C13_4 1_555 1_555
C15_4 C14_4 1_555 1_555
H11_4 C15_4 1_555 1_555
C16_4 C15_4 1_555 1_555
C19_4 C16_4 1_555 1_555
H14_4 C19_4 1_555 1_555
C20_4 C21_4 1_555 1_555
C21_4 H15_4 1_555 1_555
C22_4 C21_4 1_555 1_555
H16_4 C22_4 1_555 1_555
C23_4 C22_4 1_555 1_555
H17_4 C23_4 1_555 1_555
C24_4 C23_4 1_555 1_555
N5_4 C19_4 1_555 1_555
N6_4 C20_4 1_555 1_555
H18_4 N6_4 1_555 1_555
N7_4 C20_4 1_555 1_555
Ag2_6 N5_4 1_555 1_555
C37_4 C38_4 1_555 1_555
C39_4 C38_4 1_555 1_555
H29_4 C39_4 1_555 1_555
C40_4 C39_4 1_555 1_555
C41_4 C40_4 1_555 1_555
H30_4 C41_4 1_555 1_555
C42_4 C37_4 1_555 1_555
H31_4 C42_4 1_555 1_555
C43_4 C40_4 1_555 1_555
H32_4 C43_4 1_555 1_555
C44_4 C45_4 1_555 1_555
C45_4 H33_4 1_555 1_555
C46_4 C45_4 1_555 1_555
H34_4 C46_4 1_555 1_555
C47_4 C46_4 1_555 1_555
H35_4 C47_4 1_555 1_555
C48_4 C47_4 1_555 1_555
N21 C43_4 1_555 1_555
N13_4 C44_4 1_555 1_555
H36_4 N13_4 1_555 1_555
N23 C44_4 1_555 1_555
C24_4 N7_4 1_555 1_555
N5_4 N6_4 1_555 1_555
N7_4 Ag2_6 1_555 1_555
C41_4 C42_4 1_555 1_555
C48_4 N23 1_555 1_555
N21 N13_4 1_555 1_555
C26_4 C25_4 1_555 1_555
C27_4 C26_4 1_555 1_555
H20_4 C27_4 1_555 1_555
C28_4 C27_4 1_555 1_555
C31_4 C28_4 1_555 1_555
H23_4 C31_4 1_555 1_555
C32_4 C33_4 1_555 1_555
C33_4 H24_4 1_555 1_555
C34_4 C33_4 1_555 1_555
H25_4 C34_4 1_555 1_555
C35_4 C34_4 1_555 1_555
H26_4 C35_4 1_555 1_555
C36_4 C35_4 1_555 1_555
N8_4 C31_4 1_555 1_555
N9_4 C32_4 1_555 1_555
H27_4 N9_4 1_555 1_555
N10_4 C32_4 1_555 1_555
Ag5_4 N8_4 1_555 1_555
C36_4 N10_4 1_555 1_555
N8_4 N9_4 1_555 1_555
N10_4 Ag5_4 1_555 1_555
Cl7 O1 1_555 1_555
O2 Cl7 1_555 1_555
O3 Cl7_2 1_555 1_555
O4 Cl7_2 1_555 1_555
Cl7_3 O1_2 1_555 1_555
O2_2 Cl7_3 1_555 1_555
O3_2 Cl7_3 1_555 1_555
O4_2 Cl7_3 1_555 1_555
O3_3 Cl7_4 1_555 1_555
O4_3 Cl7_4 1_555 1_555
Cl7_5 O1_3 1_555 1_555
O2_3 Cl7_5 1_555 1_555
Cl7_6 O1_4 1_555 1_555
O2_4 Cl7_6 1_555 1_555
O3_4 Cl7_6 1_555 1_555
O4_4 Cl7_6 1_555 1_555
Cl7_7 O1_5 1_555 1_555
O2_5 Cl7_7 1_555 1_555
O3_5 Cl7_8 1_555 1_555
O4_5 Cl7_8 1_555 1_555
Cl7_9 O1_6 1_555 1_555
O2_6 Cl7_9 1_555 1_555
O3_6 Cl7_9 1_555 1_555
O4_6 Cl7_9 1_555 1_555
O3_7 Cl7_10 1_555 1_555
O4_7 Cl7_10 1_555 1_555
Cl7_11 O1_7 1_555 1_555
O2_7 Cl7_11 1_555 1_555
Cl7_12 O1_8 1_555 1_555
O2_8 Cl7_12 1_555 1_555
O3_8 Cl7_12 1_555 1_555
O4_8 Cl7_12 1_555 1_555
Cl7_13 O1_9 1_555 1_555
O2_9 Cl7_13 1_555 1_555
O3_9 Cl7_14 1_555 1_555
O4_9 Cl7_14 1_555 1_555
Cl7_15 O1_10 1_555 1_555
O2_10 Cl7_15 1_555 1_555
O3_10 Cl7_15 1_555 1_555
O4_10 Cl7_15 1_555 1_555
O3_11 Cl7_16 1_555 1_555
O4_11 Cl7_16 1_555 1_555
Cl7_17 O1_11 1_555 1_555
O2_11 Cl7_17 1_555 1_555
Cl7_18 O1_12 1_555 1_555
O2_12 Cl7_18 1_555 1_555
O3_12 Cl7_18 1_555 1_555
O4_12 Cl7_18 1_555 1_555

#END
