
###############################################################################
#
# This file contains modified crystal structure data generated from the
# MOF subset of the Cambridge Structural Database (CSD) v543 
# hosted by the Cambridge Crystallographic Data Centre (CCDC).
#
# This work is licensed under the Creative Commons
# Attribution-NonCommercial-ShareAlike 4.0 International License.
# To view a copy of this license, visit
# http://creativecommons.org/licenses/by-nc-sa/4.0/
# or send a letter to
# Creative Commons, PO Box 1866, Mountain View, CA 94042, USA.
#
# CIF created using the CSD Python API on 29 September 2022
# The structure has been converted into the P1 space group
# The structure has a 3D framework
# The original CSD entry KENSEE is in the cubic crystal system
# The original CSD entry KENSEE is in a Sohncke space group
# The framework has been calculated to contain at least 10.0% void space
# The void calculation uses a probe of radius 1.32A, grid spacing 0.4
# The framework is charged, counterions have been retained in the structure
#
###############################################################################

data_KENSEE
_chemical_formula_moiety         '(C288 H216 Ag14 Cl42 N80 O48 2+)n'
_symmetry_cell_setting           triclinic
_symmetry_space_group_name_H-M   'P 1'
_symmetry_Int_Tables_number      1
_space_group_name_Hall           'P 1'
loop_
_symmetry_equiv_pos_site_id
_symmetry_equiv_pos_as_xyz
1 x,y,z
_cell_length_a                   21.3432(3)
_cell_length_b                   21.3432(3)
_cell_length_c                   21.3432(3)
_cell_angle_alpha                90
_cell_angle_beta                 90
_cell_angle_gamma                90
_cell_volume                     9722.51
loop_
_atom_site_label
_atom_site_type_symbol
_atom_site_fract_x
_atom_site_fract_y
_atom_site_fract_z
N1 N 0.0223(3) 0.0223(3) 0.0223(3)
C38 C 0.0283(3) 0.3752(3) 0.0357(3)
H28 H 0.0268 0.3795 0.0796
C39 C 0.0547(3) 0.3233(3) 0.0091(3)
H29 H 0.0711 0.2921 0.0356
C49 C 0.0028(3) 0.5036(3) 0.0782(3)
C52 C 0.0542(3) 0.5582(3) 0.1853(3)
C53 C 0.0927(3) 0.5338(3) 0.1391(3)
H39 H 0.1365 0.5351 0.1442
C54 C 0.0673(3) 0.5074(3) 0.0856(3)
H40 H 0.0939 0.4919 0.0540
C55 C 0.0781(3) 0.5882(3) 0.2422(3)
H41 H 0.0502 0.6128 0.2659
C56 C 0.2031(3) 0.6095(3) 0.3444(3)
C57 C 0.2200(4) 0.6529(4) 0.3916(4)
H42 H 0.1948 0.6878 0.4009
C58 C 0.2749(4) 0.6418(4) 0.4233(4)
H43 H 0.2884 0.6704 0.4539
C59 C 0.3102(4) 0.5898(4) 0.4111(4)
H44 H 0.3472 0.5812 0.4335
C60 C 0.2895(4) 0.5512(4) 0.3654(4)
Cl5 Cl 0.33329(13) 0.48582(14) 0.34520(17)
N15 N 0.1337(2) 0.5831(2) 0.2613(2)
N16 N 0.1488(3) 0.6175(3) 0.3131(3)
H45 H 0.1224 0.6457 0.3263
N17 N 0.2386(3) 0.5588(3) 0.3317(3)
Ag4 Ag 0.21051(4) 0.5000 0.2500
Ag1 Ag -0.0000 0.2500 0.78949(4)
H4 H 0.0081 0.0540 0.9061
Cl1 Cl 0.01418(14) 0.34520(17) 0.66671(13)
C26 C 0.1248(3) 0.0357(3) 0.9717(3)
H19 H 0.1205 0.0796 0.9732
C27 C 0.1767(3) 0.0091(3) 0.9453(3)
H20 H 0.2079 0.0356 0.9289
C37 C 0.0036(3) 0.4218(3) 0.9972(3)
C40 C 0.0582(3) 0.3147(3) 0.9458(3)
C41 C 0.0338(3) 0.3609(3) 0.9073(3)
H30 H 0.0351 0.3558 0.8635
C42 C 0.0074(3) 0.4144(3) 0.9327(3)
C43 C 0.0882(3) 0.2578(3) 0.9219(3)
H32 H 0.1128 0.2341 0.9498
C44 C 0.1095(3) 0.1556(3) 0.7969(3)
C45 C 0.1529(4) 0.1084(4) 0.7800(4)
H33 H 0.1878 0.0991 0.8052
C46 C 0.1418(4) 0.0767(4) 0.7251(4)
H34 H 0.1704 0.0461 0.7116
C47 C 0.0898(4) 0.0889(4) 0.6898(4)
H35 H 0.0812 0.0665 0.6528
C48 C 0.0512(4) 0.1346(4) 0.7105(4)
N12 N 0.0831(2) 0.2387(2) 0.8663(2)
N13 N 0.1175(3) 0.1869(3) 0.8512(3)
H36 H 0.1457 0.1737 0.8776
N14 N 0.0588(3) 0.1683(3) 0.7614(3)
C14 C 0.0357(3) 0.9717(3) 0.1248(3)
H10 H 0.0796 0.9732 0.1205
C15 C 0.0091(3) 0.9453(3) 0.1767(3)
H11 H 0.0356 0.9289 0.2079
H22 H 0.0540 0.9061 0.0081
Cl3 Cl 0.34520(17) 0.66671(13) 0.01418(14)
Ag3 Ag 0.2500 0.78949(4) -0.0000
N22 N 0.2387(2) 0.8663(2) 0.0831(2)
N24 N 0.1683(3) 0.7614(3) 0.0588(3)
C25 C 0.0782(3) 0.9972(3) 0.9964(3)
C28 C 0.1853(3) 0.9458(3) 0.9418(3)
C29 C 0.1391(3) 0.9073(3) 0.9662(3)
H21 H 0.1442 0.8635 0.9649
C30 C 0.0856(3) 0.9327(3) 0.9926(3)
C31 C 0.2422(3) 0.9219(3) 0.9118(3)
H23 H 0.2659 0.9498 0.8872
C32 C 0.3444(3) 0.7969(3) 0.8905(3)
C33 C 0.3916(4) 0.7800(4) 0.8471(4)
H24 H 0.4009 0.8052 0.8122
C34 C 0.4233(4) 0.7251(4) 0.8582(4)
H25 H 0.4539 0.7116 0.8296
C35 C 0.4111(4) 0.6898(4) 0.9102(4)
H26 H 0.4335 0.6528 0.9188
C36 C 0.3654(4) 0.7105(4) 0.9488(4)
N8 N 0.2613(2) 0.8663(2) 0.9169(2)
N9 N 0.3131(3) 0.8512(3) 0.8825(3)
H27 H 0.3263 0.8776 0.8543
N10 N 0.3317(3) 0.7614(3) 0.9412(3)
Ag3_2 Ag 0.2500 0.78949(4) 1.0000
C2 C 0.9717(3) 0.1248(3) 0.0357(3)
H1 H 0.9732 0.1205 0.0796
C3 C 0.9453(3) 0.1767(3) 0.0091(3)
H2 H 0.9289 0.2079 0.0356
H13 H 0.9061 0.0081 0.0540
Cl2 Cl 0.66671(13) 0.01418(14) 0.34520(17)
Ag2 Ag 0.78949(4) 0.0000 0.2500
N11 N 0.9777(3) 0.4777(3) 0.0223(3)
C50 C 0.9643(3) 0.5283(3) 0.1248(3)
H37 H 0.9204 0.5268 0.1205
C51 C 0.9909(3) 0.5547(3) 0.1767(3)
H38 H 0.9644 0.5711 0.2079
H49 H 0.9460 0.5939 0.0081
Cl6 Cl 0.65480(17) 0.83329(13) 0.01418(14)
Ag5 Ag 0.7500 0.71051(4) -0.0000
N21 N 0.8663(2) 0.0831(2) 0.2387(2)
N23 N 0.7614(3) 0.0588(3) 0.1683(3)
Ag1_2 Ag 1.0000 0.2500 0.78949(4)
C1 C 0.9964(3) 0.0782(3) 0.9972(3)
C4 C 0.9418(3) 0.1853(3) 0.9458(3)
C5 C 0.9662(3) 0.1391(3) 0.9073(3)
H3 H 0.9649 0.1442 0.8635
C6 C 0.9926(3) 0.0856(3) 0.9327(3)
C7 C 0.9118(3) 0.2422(3) 0.9219(3)
H5 H 0.8872 0.2659 0.9498
C8 C 0.8905(3) 0.3444(3) 0.7969(3)
C9 C 0.8471(4) 0.3916(4) 0.7800(4)
H6 H 0.8122 0.4009 0.8052
C10 C 0.8582(4) 0.4233(4) 0.7251(4)
H7 H 0.8296 0.4539 0.7116
C11 C 0.9102(4) 0.4111(4) 0.6898(4)
H8 H 0.9188 0.4335 0.6528
C12 C 0.9488(4) 0.3654(4) 0.7105(4)
N2 N 0.9169(2) 0.2613(2) 0.8663(2)
N3 N 0.8825(3) 0.3131(3) 0.8512(3)
H9 H 0.8543 0.3263 0.8776
N4 N 0.9412(3) 0.3317(3) 0.7614(3)
H31 H 0.9919 0.4460 0.9061
Cl4 Cl 0.98582(14) 0.15480(17) 0.66671(13)
C61 C 0.9218(3) 0.5028(3) 0.9964(3)
C62 C 0.8752(3) 0.4643(3) 0.9717(3)
H46 H 0.8795 0.4204 0.9732
C63 C 0.8233(3) 0.4909(3) 0.9453(3)
H47 H 0.7921 0.4644 0.9289
C64 C 0.8147(3) 0.5542(3) 0.9418(3)
C65 C 0.8609(3) 0.5927(3) 0.9662(3)
H48 H 0.8558 0.6365 0.9649
C66 C 0.9144(3) 0.5673(3) 0.9926(3)
C67 C 0.7578(3) 0.5781(3) 0.9118(3)
H50 H 0.7341 0.5502 0.8872
C68 C 0.6556(3) 0.7031(3) 0.8905(3)
C69 C 0.6084(4) 0.7200(4) 0.8471(4)
H51 H 0.5991 0.6948 0.8122
C70 C 0.5767(4) 0.7749(4) 0.8582(4)
H52 H 0.5461 0.7884 0.8296
C71 C 0.5889(4) 0.8102(4) 0.9102(4)
H53 H 0.5665 0.8472 0.9188
C72 C 0.6346(4) 0.7895(4) 0.9488(4)
N18 N 0.7387(2) 0.6337(2) 0.9169(2)
N19 N 0.6869(3) 0.6488(3) 0.8825(3)
H54 H 0.6737 0.6224 0.8543
N20 N 0.6683(3) 0.7386(3) 0.9412(3)
Ag5_2 Ag 0.7500 0.71051(4) 1.0000
C13 C 0.9972(3) 0.9964(3) 0.0782(3)
C16 C 0.9458(3) 0.9418(3) 0.1853(3)
C17 C 0.9073(3) 0.9662(3) 0.1391(3)
H12 H 0.8635 0.9649 0.1442
C18 C 0.9327(3) 0.9926(3) 0.0856(3)
C19 C 0.9219(3) 0.9118(3) 0.2422(3)
H14 H 0.9498 0.8872 0.2659
C20 C 0.7969(3) 0.8905(3) 0.3444(3)
C21 C 0.7800(4) 0.8471(4) 0.3916(4)
H15 H 0.8052 0.8122 0.4009
C22 C 0.7251(4) 0.8582(4) 0.4233(4)
H16 H 0.7116 0.8296 0.4539
C23 C 0.6898(4) 0.9102(4) 0.4111(4)
H17 H 0.6528 0.9188 0.4335
C24 C 0.7105(4) 0.9488(4) 0.3654(4)
N5 N 0.8663(2) 0.9169(2) 0.2613(2)
N6 N 0.8512(3) 0.8825(3) 0.3131(3)
H18 H 0.8776 0.8543 0.3263
N7 N 0.7614(3) 0.9412(3) 0.3317(3)
Ag2_2 Ag 0.78949(4) 1.0000 0.2500
C13_2 C 0.5028(3) 0.0036(3) 0.5782(3)
C14_2 C 0.4643(3) 0.0283(3) 0.6248(3)
H10_2 H 0.4204 0.0268 0.6205
C15_2 C 0.4909(3) 0.0547(3) 0.6767(3)
H11_2 H 0.4644 0.0711 0.7079
C16_2 C 0.5542(3) 0.0582(3) 0.6853(3)
C17_2 C 0.5927(3) 0.0338(3) 0.6391(3)
H12_2 H 0.6365 0.0351 0.6442
C18_2 C 0.5673(3) 0.0074(3) 0.5856(3)
C19_2 C 0.5781(3) 0.0882(3) 0.7422(3)
H14_2 H 0.5502 0.1128 0.7659
C20_2 C 0.7031(3) 0.1095(3) 0.8444(3)
C21_2 C 0.7200(4) 0.1529(4) 0.8916(4)
H15_2 H 0.6948 0.1878 0.9009
C22_2 C 0.7749(4) 0.1418(4) 0.9233(4)
H16_2 H 0.7884 0.1704 0.9539
C23_2 C 0.8102(4) 0.0898(4) 0.9111(4)
H17_2 H 0.8472 0.0812 0.9335
C24_2 C 0.7895(4) 0.0512(4) 0.8654(4)
N5_2 N 0.6337(2) 0.0831(2) 0.7613(2)
N6_2 N 0.6488(3) 0.1175(3) 0.8131(3)
H18_2 H 0.6224 0.1457 0.8263
N7_2 N 0.7386(3) 0.0588(3) 0.8317(3)
C25_2 C 0.4218(3) 0.0028(3) 0.4964(3)
C28_2 C 0.3147(3) 0.0542(3) 0.4418(3)
C29_2 C 0.3609(3) 0.0927(3) 0.4662(3)
H21_2 H 0.3558 0.1365 0.4649
C30_2 C 0.4144(3) 0.0673(3) 0.4926(3)
H22_2 H 0.4460 0.0939 0.5081
C31_2 C 0.2578(3) 0.0781(3) 0.4118(3)
H23_2 H 0.2341 0.0502 0.3872
C32_2 C 0.1556(3) 0.2031(3) 0.3905(3)
C33_2 C 0.1084(4) 0.2200(4) 0.3471(4)
H24_2 H 0.0991 0.1948 0.3122
C34_2 C 0.0767(4) 0.2749(4) 0.3582(4)
H25_2 H 0.0461 0.2884 0.3296
C35_2 C 0.0889(4) 0.3102(4) 0.4102(4)
H26_2 H 0.0665 0.3472 0.4188
C36_2 C 0.1346(4) 0.2895(4) 0.4488(4)
Cl3_2 Cl 0.15480(17) 0.33329(13) 0.51418(14)
N8_2 N 0.2387(2) 0.1337(2) 0.4169(2)
N9_2 N 0.1869(3) 0.1488(3) 0.3825(3)
H27_2 H 0.1737 0.1224 0.3543
N10_2 N 0.1683(3) 0.2386(3) 0.4412(3)
Ag2_3 Ag 0.71051(4) -0.0000 0.7500
Ag3_3 Ag 0.2500 0.21051(4) 0.5000
N22_2 N 0.2613(2) 0.1337(2) 0.5831(2)
N24_2 N 0.3317(3) 0.2386(3) 0.5588(3)
Ag1_3 Ag 0.5000 0.7500 0.28949(4)
C1_2 C 0.5036(3) 0.9218(3) 0.4972(3)
C2_2 C 0.5283(3) 0.8752(3) 0.5357(3)
H1_2 H 0.5268 0.8795 0.5796
C3_2 C 0.5547(3) 0.8233(3) 0.5091(3)
H2_2 H 0.5711 0.7921 0.5356
C4_2 C 0.5582(3) 0.8147(3) 0.4458(3)
C5_2 C 0.5338(3) 0.8609(3) 0.4073(3)
H3_2 H 0.5351 0.8558 0.3635
C6_2 C 0.5074(3) 0.9144(3) 0.4327(3)
H4_2 H 0.4919 0.9460 0.4061
C7_2 C 0.5882(3) 0.7578(3) 0.4219(3)
H5_2 H 0.6128 0.7341 0.4498
C8_2 C 0.6095(3) 0.6556(3) 0.2969(3)
C9_2 C 0.6529(4) 0.6084(4) 0.2800(4)
H6_2 H 0.6878 0.5991 0.3052
C10_2 C 0.6418(4) 0.5767(4) 0.2251(4)
H7_2 H 0.6704 0.5461 0.2116
C11_2 C 0.5898(4) 0.5889(4) 0.1898(4)
H8_2 H 0.5812 0.5665 0.1528
C12_2 C 0.5512(4) 0.6346(4) 0.2105(4)
Cl1_2 Cl 0.48582(14) 0.65480(17) 0.16671(13)
N1_2 N 0.4777(3) 0.9777(3) 0.5223(3)
N2_2 N 0.5831(2) 0.7387(2) 0.3663(2)
N3_2 N 0.6175(3) 0.6869(3) 0.3512(3)
H9_2 H 0.6457 0.6737 0.3776
N4_2 N 0.5588(3) 0.6683(3) 0.2614(3)
H13_2 H 0.5939 0.9919 0.5540
Cl2_2 Cl 0.83329(13) 0.98582(14) 0.84520(17)
C26_2 C 0.3752(3) 0.9643(3) 0.4717(3)
H19_2 H 0.3795 0.9204 0.4732
C27_2 C 0.3233(3) 0.9909(3) 0.4453(3)
H20_2 H 0.2921 0.9644 0.4289
Ag2_4 Ag 0.71051(4) 1.0000 0.7500
C37_2 C 0.4964(3) 0.5782(3) 0.4972(3)
C38_2 C 0.4717(3) 0.6248(3) 0.5357(3)
H28_2 H 0.4732 0.6205 0.5796
C39_2 C 0.4453(3) 0.6767(3) 0.5091(3)
H29_2 H 0.4289 0.7079 0.5356
C40_2 C 0.4418(3) 0.6853(3) 0.4458(3)
C41_2 C 0.4662(3) 0.6391(3) 0.4073(3)
H30_2 H 0.4649 0.6442 0.3635
C42_2 C 0.4926(3) 0.5856(3) 0.4327(3)
H31_2 H 0.5081 0.5540 0.4061
C43_2 C 0.4118(3) 0.7422(3) 0.4219(3)
H32_2 H 0.3872 0.7659 0.4498
C44_2 C 0.3905(3) 0.8444(3) 0.2969(3)
C45_2 C 0.3471(4) 0.8916(4) 0.2800(4)
H33_2 H 0.3122 0.9009 0.3052
C46_2 C 0.3582(4) 0.9233(4) 0.2251(4)
H34_2 H 0.3296 0.9539 0.2116
C47_2 C 0.4102(4) 0.9111(4) 0.1898(4)
H35_2 H 0.4188 0.9335 0.1528
C48_2 C 0.4488(4) 0.8654(4) 0.2105(4)
Cl4_2 Cl 0.51418(14) 0.84520(17) 0.16671(13)
N11_2 N 0.5223(3) 0.5223(3) 0.5223(3)
N12_2 N 0.4169(2) 0.7613(2) 0.3663(2)
N13_2 N 0.3825(3) 0.8131(3) 0.3512(3)
H36_2 H 0.3543 0.8263 0.3776
N14_2 N 0.4412(3) 0.8317(3) 0.2614(3)
C49_2 C 0.4972(3) 0.4964(3) 0.5782(3)
C50_2 C 0.5357(3) 0.4717(3) 0.6248(3)
H37_2 H 0.5796 0.4732 0.6205
C51_2 C 0.5091(3) 0.4453(3) 0.6767(3)
H38_2 H 0.5356 0.4289 0.7079
C52_2 C 0.4458(3) 0.4418(3) 0.6853(3)
C53_2 C 0.4073(3) 0.4662(3) 0.6391(3)
H39_2 H 0.3635 0.4649 0.6442
C54_2 C 0.4327(3) 0.4926(3) 0.5856(3)
H40_2 H 0.4061 0.5081 0.5540
C55_2 C 0.4219(3) 0.4118(3) 0.7422(3)
H41_2 H 0.4498 0.3872 0.7659
C56_2 C 0.2969(3) 0.3905(3) 0.8444(3)
C57_2 C 0.2800(4) 0.3471(4) 0.8916(4)
H42_2 H 0.3052 0.3122 0.9009
C58_2 C 0.2251(4) 0.3582(4) 0.9233(4)
H43_2 H 0.2116 0.3296 0.9539
C59_2 C 0.1898(4) 0.4102(4) 0.9111(4)
H44_2 H 0.1528 0.4188 0.9335
C60_2 C 0.2105(4) 0.4488(4) 0.8654(4)
Cl5_2 Cl 0.16671(13) 0.51418(14) 0.84520(17)
N15_2 N 0.3663(2) 0.4169(2) 0.7613(2)
N16_2 N 0.3512(3) 0.3825(3) 0.8131(3)
H45_2 H 0.3776 0.3543 0.8263
N17_2 N 0.2614(3) 0.4412(3) 0.8317(3)
C61_2 C 0.5782(3) 0.4972(3) 0.4964(3)
C62_2 C 0.6248(3) 0.5357(3) 0.4717(3)
H46_2 H 0.6205 0.5796 0.4732
C63_2 C 0.6767(3) 0.5091(3) 0.4453(3)
H47_2 H 0.7079 0.5356 0.4289
C64_2 C 0.6853(3) 0.4458(3) 0.4418(3)
C65_2 C 0.6391(3) 0.4073(3) 0.4662(3)
H48_2 H 0.6442 0.3635 0.4649
C66_2 C 0.5856(3) 0.4327(3) 0.4926(3)
H49_2 H 0.5540 0.4061 0.5081
C67_2 C 0.7422(3) 0.4219(3) 0.4118(3)
H50_2 H 0.7659 0.4498 0.3872
C68_2 C 0.8444(3) 0.2969(3) 0.3905(3)
C69_2 C 0.8916(4) 0.2800(4) 0.3471(4)
H51_2 H 0.9009 0.3052 0.3122
C70_2 C 0.9233(4) 0.2251(4) 0.3582(4)
H52_2 H 0.9539 0.2116 0.3296
C71_2 C 0.9111(4) 0.1898(4) 0.4102(4)
H53_2 H 0.9335 0.1528 0.4188
C72_2 C 0.8654(4) 0.2105(4) 0.4488(4)
Cl6_2 Cl 0.84520(17) 0.16671(13) 0.51418(14)
N18_2 N 0.7613(2) 0.3663(2) 0.4169(2)
N19_2 N 0.8131(3) 0.3512(3) 0.3825(3)
H54_2 H 0.8263 0.3776 0.3543
N20_2 N 0.8317(3) 0.2614(3) 0.4412(3)
Ag4_2 Ag 0.28949(4) 0.5000 0.7500
Ag5_3 Ag 0.7500 0.28949(4) 0.5000
N21_2 N 0.6337(2) 0.9169(2) 0.7387(2)
N23_2 N 0.7386(3) 0.9412(3) 0.6683(3)
C50_3 C 0.0357(3) 0.0283(3) 0.3752(3)
H37_3 H 0.0796 0.0268 0.3795
C51_3 C 0.0091(3) 0.0547(3) 0.3233(3)
H38_3 H 0.0356 0.0711 0.2921
C61_3 C 0.0782(3) 0.0028(3) 0.5036(3)
C64_3 C 0.1853(3) 0.0542(3) 0.5582(3)
C65_3 C 0.1391(3) 0.0927(3) 0.5338(3)
H48_3 H 0.1442 0.1365 0.5351
C66_3 C 0.0856(3) 0.0673(3) 0.5074(3)
H49_3 H 0.0540 0.0939 0.4919
C67_3 C 0.2422(3) 0.0781(3) 0.5882(3)
H50_3 H 0.2659 0.0502 0.6128
C68_3 C 0.3444(3) 0.2031(3) 0.6095(3)
C69_3 C 0.3916(4) 0.2200(4) 0.6529(4)
H51_3 H 0.4009 0.1948 0.6878
C70_3 C 0.4233(4) 0.2749(4) 0.6418(4)
H52_3 H 0.4539 0.2884 0.6704
C71_3 C 0.4111(4) 0.3102(4) 0.5898(4)
H53_3 H 0.4335 0.3472 0.5812
C72_3 C 0.3654(4) 0.2895(4) 0.5512(4)
Cl6_3 Cl 0.34520(17) 0.33329(13) 0.48582(14)
N19_3 N 0.3131(3) 0.1488(3) 0.6175(3)
H54_3 H 0.3263 0.1224 0.6457
Ag1_4 Ag 0.0000 0.7500 0.71051(4)
C1_3 C 0.0036(3) 0.5782(3) 0.5028(3)
C2_3 C 0.0283(3) 0.6248(3) 0.4643(3)
H1_3 H 0.0268 0.6205 0.4204
C3_3 C 0.0547(3) 0.6767(3) 0.4909(3)
H2_3 H 0.0711 0.7079 0.4644
C4_3 C 0.0582(3) 0.6853(3) 0.5542(3)
C5_3 C 0.0338(3) 0.6391(3) 0.5927(3)
H3_3 H 0.0351 0.6442 0.6365
C6_3 C 0.0074(3) 0.5856(3) 0.5673(3)
C7_3 C 0.0882(3) 0.7422(3) 0.5781(3)
H5_3 H 0.1128 0.7659 0.5502
C8_3 C 0.1095(3) 0.8444(3) 0.7031(3)
C9_3 C 0.1529(4) 0.8916(4) 0.7200(4)
H6_3 H 0.1878 0.9009 0.6948
C10_3 C 0.1418(4) 0.9233(4) 0.7749(4)
H7_3 H 0.1704 0.9539 0.7884
C11_3 C 0.0898(4) 0.9111(4) 0.8102(4)
H8_3 H 0.0812 0.9335 0.8472
C12_3 C 0.0512(4) 0.8654(4) 0.7895(4)
N2_3 N 0.0831(2) 0.7613(2) 0.6337(2)
N3_3 N 0.1175(3) 0.8131(3) 0.6488(3)
H9_3 H 0.1457 0.8263 0.6224
N4_3 N 0.0588(3) 0.8317(3) 0.7386(3)
C13_3 C 0.0028(3) 0.4964(3) 0.4218(3)
C16_3 C 0.0542(3) 0.4418(3) 0.3147(3)
C17_3 C 0.0927(3) 0.4662(3) 0.3609(3)
H12_3 H 0.1365 0.4649 0.3558
C18_3 C 0.0673(3) 0.4926(3) 0.4144(3)
H13_3 H 0.0939 0.5081 0.4460
C19_3 C 0.0781(3) 0.4118(3) 0.2578(3)
H14_3 H 0.0502 0.3872 0.2341
C20_3 C 0.2031(3) 0.3905(3) 0.1556(3)
C21_3 C 0.2200(4) 0.3471(4) 0.1084(4)
H15_3 H 0.1948 0.3122 0.0991
C22_3 C 0.2749(4) 0.3582(4) 0.0767(4)
H16_3 H 0.2884 0.3296 0.0461
C23_3 C 0.3102(4) 0.4102(4) 0.0889(4)
H17_3 H 0.3472 0.4188 0.0665
C24_3 C 0.2895(4) 0.4488(4) 0.1346(4)
Cl2_3 Cl 0.33329(13) 0.51418(14) 0.15480(17)
N5_3 N 0.1337(2) 0.4169(2) 0.2387(2)
N6_3 N 0.1488(3) 0.3825(3) 0.1869(3)
H18_3 H 0.1224 0.3543 0.1737
N7_3 N 0.2386(3) 0.4412(3) 0.1683(3)
H31_3 H 0.0081 0.9460 0.5939
Cl4_3 Cl 0.01418(14) 0.65480(17) 0.83329(13)
N11_3 N 0.0223(3) 0.9777(3) 0.4777(3)
C62_3 C 0.1248(3) 0.9643(3) 0.5283(3)
H46_3 H 0.1205 0.9204 0.5268
C63_3 C 0.1767(3) 0.9909(3) 0.5547(3)
H47_3 H 0.2079 0.9644 0.5711
C49_3 C 0.9972(3) 0.0036(3) 0.4218(3)
C52_3 C 0.9458(3) 0.0582(3) 0.3147(3)
C53_3 C 0.9073(3) 0.0338(3) 0.3609(3)
H39_3 H 0.8635 0.0351 0.3558
C54_3 C 0.9327(3) 0.0074(3) 0.4144(3)
C55_3 C 0.9219(3) 0.0882(3) 0.2578(3)
H41_3 H 0.9498 0.1128 0.2341
C56_3 C 0.7969(3) 0.1095(3) 0.1556(3)
C57_3 C 0.7800(4) 0.1529(4) 0.1084(4)
H42_3 H 0.8052 0.1878 0.0991
C58_3 C 0.7251(4) 0.1418(4) 0.0767(4)
H43_3 H 0.7116 0.1704 0.0461
C59_3 C 0.6898(4) 0.0898(4) 0.0889(4)
H44_3 H 0.6528 0.0812 0.0665
C60_3 C 0.7105(4) 0.0512(4) 0.1346(4)
N16_3 N 0.8512(3) 0.1175(3) 0.1869(3)
H45_3 H 0.8776 0.1457 0.1737
Ag1_5 Ag 1.0000 0.7500 0.71051(4)
H4_3 H 0.9919 0.5540 0.5939
Cl1_3 Cl 0.98582(14) 0.84520(17) 0.83329(13)
N1_3 N 0.9777(3) 0.5223(3) 0.4777(3)
C14_3 C 0.9643(3) 0.4717(3) 0.3752(3)
H10_3 H 0.9204 0.4732 0.3795
C15_3 C 0.9909(3) 0.4453(3) 0.3233(3)
H11_3 H 0.9644 0.4289 0.2921
C25_3 C 0.9218(3) 0.4972(3) 0.5036(3)
C26_3 C 0.8752(3) 0.5357(3) 0.5283(3)
H19_3 H 0.8795 0.5796 0.5268
C27_3 C 0.8233(3) 0.5091(3) 0.5547(3)
H20_3 H 0.7921 0.5356 0.5711
C28_3 C 0.8147(3) 0.4458(3) 0.5582(3)
C29_3 C 0.8609(3) 0.4073(3) 0.5338(3)
H21_3 H 0.8558 0.3635 0.5351
C30_3 C 0.9144(3) 0.4327(3) 0.5074(3)
H22_3 H 0.9460 0.4061 0.4919
C31_3 C 0.7578(3) 0.4219(3) 0.5882(3)
H23_3 H 0.7341 0.4498 0.6128
C32_3 C 0.6556(3) 0.2969(3) 0.6095(3)
C33_3 C 0.6084(4) 0.2800(4) 0.6529(4)
H24_3 H 0.5991 0.3052 0.6878
C34_3 C 0.5767(4) 0.2251(4) 0.6418(4)
H25_3 H 0.5461 0.2116 0.6704
C35_3 C 0.5889(4) 0.1898(4) 0.5898(4)
H26_3 H 0.5665 0.1528 0.5812
C36_3 C 0.6346(4) 0.2105(4) 0.5512(4)
Cl3_3 Cl 0.65480(17) 0.16671(13) 0.48582(14)
N8_3 N 0.7387(2) 0.3663(2) 0.5831(2)
N9_3 N 0.6869(3) 0.3512(3) 0.6175(3)
H27_3 H 0.6737 0.3776 0.6457
N10_3 N 0.6683(3) 0.2614(3) 0.5588(3)
C37_3 C 0.9964(3) 0.9218(3) 0.5028(3)
C38_3 C 0.9717(3) 0.8752(3) 0.4643(3)
H28_3 H 0.9732 0.8795 0.4204
C39_3 C 0.9453(3) 0.8233(3) 0.4909(3)
H29_3 H 0.9289 0.7921 0.4644
C40_3 C 0.9418(3) 0.8147(3) 0.5542(3)
C41_3 C 0.9662(3) 0.8609(3) 0.5927(3)
H30_3 H 0.9649 0.8558 0.6365
C42_3 C 0.9926(3) 0.9144(3) 0.5673(3)
C43_3 C 0.9118(3) 0.7578(3) 0.5781(3)
H32_3 H 0.8872 0.7341 0.5502
C44_3 C 0.8905(3) 0.6556(3) 0.7031(3)
C45_3 C 0.8471(4) 0.6084(4) 0.7200(4)
H33_3 H 0.8122 0.5991 0.6948
C46_3 C 0.8582(4) 0.5767(4) 0.7749(4)
H34_3 H 0.8296 0.5461 0.7884
C47_3 C 0.9102(4) 0.5889(4) 0.8102(4)
H35_3 H 0.9188 0.5665 0.8472
C48_3 C 0.9488(4) 0.6346(4) 0.7895(4)
N12_3 N 0.9169(2) 0.7387(2) 0.6337(2)
N13_3 N 0.8825(3) 0.6869(3) 0.6488(3)
H36_3 H 0.8543 0.6737 0.6224
N14_3 N 0.9412(3) 0.6683(3) 0.7386(3)
H40_3 H 0.9061 0.9919 0.4460
Cl5_3 Cl 0.66671(13) 0.98582(14) 0.15480(17)
Ag1_6 Ag 0.5000 0.2500 0.21051(4)
C1_4 C 0.4964(3) 0.4218(3) 0.0028(3)
C4_4 C 0.4418(3) 0.3147(3) 0.0542(3)
C5_4 C 0.4662(3) 0.3609(3) 0.0927(3)
H3_4 H 0.4649 0.3558 0.1365
C6_4 C 0.4926(3) 0.4144(3) 0.0673(3)
H4_4 H 0.5081 0.4460 0.0939
C7_4 C 0.4118(3) 0.2578(3) 0.0781(3)
H5_4 H 0.3872 0.2341 0.0502
C8_4 C 0.3905(3) 0.1556(3) 0.2031(3)
C9_4 C 0.3471(4) 0.1084(4) 0.2200(4)
H6_4 H 0.3122 0.0991 0.1948
C10_4 C 0.3582(4) 0.0767(4) 0.2749(4)
H7_4 H 0.3296 0.0461 0.2884
C11_4 C 0.4102(4) 0.0889(4) 0.3102(4)
H8_4 H 0.4188 0.0665 0.3472
C12_4 C 0.4488(4) 0.1346(4) 0.2895(4)
Cl1_4 Cl 0.51418(14) 0.15480(17) 0.33329(13)
N2_4 N 0.4169(2) 0.2387(2) 0.1337(2)
N3_4 N 0.3825(3) 0.1869(3) 0.1488(3)
H9_4 H 0.3543 0.1737 0.1224
N4_4 N 0.4412(3) 0.1683(3) 0.2386(3)
C25_4 C 0.5782(3) 0.5028(3) 0.0036(3)
C26_4 C 0.6248(3) 0.4643(3) 0.0283(3)
H19_4 H 0.6205 0.4204 0.0268
C27_4 C 0.6767(3) 0.4909(3) 0.0547(3)
H20_4 H 0.7079 0.4644 0.0711
C28_4 C 0.6853(3) 0.5542(3) 0.0582(3)
C29_4 C 0.6391(3) 0.5927(3) 0.0338(3)
H21_4 H 0.6442 0.6365 0.0351
C30_4 C 0.5856(3) 0.5673(3) 0.0074(3)
C31_4 C 0.7422(3) 0.5781(3) 0.0882(3)
H23_4 H 0.7659 0.5502 0.1128
C32_4 C 0.8444(3) 0.7031(3) 0.1095(3)
C33_4 C 0.8916(4) 0.7200(4) 0.1529(4)
H24_4 H 0.9009 0.6948 0.1878
C34_4 C 0.9233(4) 0.7749(4) 0.1418(4)
H25_4 H 0.9539 0.7884 0.1704
C35_4 C 0.9111(4) 0.8102(4) 0.0898(4)
H26_4 H 0.9335 0.8472 0.0812
C36_4 C 0.8654(4) 0.7895(4) 0.0512(4)
N8_4 N 0.7613(2) 0.6337(2) 0.0831(2)
N9_4 N 0.8131(3) 0.6488(3) 0.1175(3)
H27_4 H 0.8263 0.6224 0.1457
N10_4 N 0.8317(3) 0.7386(3) 0.0588(3)
C37_4 C 0.5036(3) 0.0782(3) 0.0028(3)
C40_4 C 0.5582(3) 0.1853(3) 0.0542(3)
C41_4 C 0.5338(3) 0.1391(3) 0.0927(3)
H30_4 H 0.5351 0.1442 0.1365
C42_4 C 0.5074(3) 0.0856(3) 0.0673(3)
H31_4 H 0.4919 0.0540 0.0939
C43_4 C 0.5882(3) 0.2422(3) 0.0781(3)
H32_4 H 0.6128 0.2659 0.0502
C44_4 C 0.6095(3) 0.3444(3) 0.2031(3)
C45_4 C 0.6529(4) 0.3916(4) 0.2200(4)
H33_4 H 0.6878 0.4009 0.1948
C46_4 C 0.6418(4) 0.4233(4) 0.2749(4)
H34_4 H 0.6704 0.4539 0.2884
C47_4 C 0.5898(4) 0.4111(4) 0.3102(4)
H35_4 H 0.5812 0.4335 0.3472
C48_4 C 0.5512(4) 0.3654(4) 0.2895(4)
Cl4_4 Cl 0.48582(14) 0.34520(17) 0.33329(13)
N12_4 N 0.5831(2) 0.2613(2) 0.1337(2)
N13_4 N 0.6175(3) 0.3131(3) 0.1488(3)
H36_4 H 0.6457 0.3263 0.1224
N14_4 N 0.5588(3) 0.3317(3) 0.2386(3)
C62_4 C 0.3752(3) 0.0357(3) 0.0283(3)
H46_4 H 0.3795 0.0796 0.0268
C63_4 C 0.3233(3) 0.0091(3) 0.0547(3)
H47_4 H 0.2921 0.0356 0.0711
C2_4 C 0.4717(3) 0.3752(3) 0.9643(3)
H1_4 H 0.4732 0.3795 0.9204
C3_4 C 0.4453(3) 0.3233(3) 0.9909(3)
H2_4 H 0.4289 0.2921 0.9644
N1_4 N 0.5223(3) 0.4777(3) 0.9777(3)
C13_4 C 0.4972(3) 0.5036(3) 0.9218(3)
C14_4 C 0.5357(3) 0.5283(3) 0.8752(3)
H10_4 H 0.5796 0.5268 0.8795
C15_4 C 0.5091(3) 0.5547(3) 0.8233(3)
H11_4 H 0.5356 0.5711 0.7921
C16_4 C 0.4458(3) 0.5582(3) 0.8147(3)
C17_4 C 0.4073(3) 0.5338(3) 0.8609(3)
H12_4 H 0.3635 0.5351 0.8558
C18_4 C 0.4327(3) 0.5074(3) 0.9144(3)
H13_4 H 0.4061 0.4919 0.9460
C19_4 C 0.4219(3) 0.5882(3) 0.7578(3)
H14_4 H 0.4498 0.6128 0.7341
C20_4 C 0.2969(3) 0.6095(3) 0.6556(3)
C21_4 C 0.2800(4) 0.6529(4) 0.6084(4)
H15_4 H 0.3052 0.6878 0.5991
C22_4 C 0.2251(4) 0.6418(4) 0.5767(4)
H16_4 H 0.2116 0.6704 0.5461
C23_4 C 0.1898(4) 0.5898(4) 0.5889(4)
H17_4 H 0.1528 0.5812 0.5665
C24_4 C 0.2105(4) 0.5512(4) 0.6346(4)
Cl2_4 Cl 0.16671(13) 0.48582(14) 0.65480(17)
N5_4 N 0.3663(2) 0.5831(2) 0.7387(2)
N6_4 N 0.3512(3) 0.6175(3) 0.6869(3)
H18_4 H 0.3776 0.6457 0.6737
N7_4 N 0.2614(3) 0.5588(3) 0.6683(3)
H22_4 H 0.5540 0.5939 0.9919
Cl3_4 Cl 0.84520(17) 0.83329(13) 0.98582(14)
C38_4 C 0.5283(3) 0.1248(3) 0.9643(3)
H28_4 H 0.5268 0.1205 0.9204
C39_4 C 0.5547(3) 0.1767(3) 0.9909(3)
H29_4 H 0.5711 0.2079 0.9644
N11_4 N 0.4777(3) 0.0223(3) 0.9777(3)
H40_4 H 0.5939 0.0081 0.9460
Cl5_4 Cl 0.83329(13) 0.01418(14) 0.65480(17)
C61_4 C 0.4218(3) 0.9972(3) 0.0036(3)
C64_4 C 0.3147(3) 0.9458(3) 0.0582(3)
C65_4 C 0.3609(3) 0.9073(3) 0.0338(3)
H48_4 H 0.3558 0.8635 0.0351
C66_4 C 0.4144(3) 0.9327(3) 0.0074(3)
C67_4 C 0.2578(3) 0.9219(3) 0.0882(3)
H50_4 H 0.2341 0.9498 0.1128
C68_4 C 0.1556(3) 0.7969(3) 0.1095(3)
C69_4 C 0.1084(4) 0.7800(4) 0.1529(4)
H51_4 H 0.0991 0.8052 0.1878
C70_4 C 0.0767(4) 0.7251(4) 0.1418(4)
H52_4 H 0.0461 0.7116 0.1704
C71_4 C 0.0889(4) 0.6898(4) 0.0898(4)
H53_4 H 0.0665 0.6528 0.0812
C72_4 C 0.1346(4) 0.7105(4) 0.0512(4)
N19_4 N 0.1869(3) 0.8512(3) 0.1175(3)
H54_4 H 0.1737 0.8776 0.1457
C49_4 C 0.5028(3) 0.9964(3) 0.9218(3)
C50_4 C 0.4643(3) 0.9717(3) 0.8752(3)
H37_4 H 0.4204 0.9732 0.8795
C51_4 C 0.4909(3) 0.9453(3) 0.8233(3)
H38_4 H 0.4644 0.9289 0.7921
C52_4 C 0.5542(3) 0.9418(3) 0.8147(3)
C53_4 C 0.5927(3) 0.9662(3) 0.8609(3)
H39_4 H 0.6365 0.9649 0.8558
C54_4 C 0.5673(3) 0.9926(3) 0.9144(3)
C55_4 C 0.5781(3) 0.9118(3) 0.7578(3)
H41_4 H 0.5502 0.8872 0.7341
C56_4 C 0.7031(3) 0.8905(3) 0.6556(3)
C57_4 C 0.7200(4) 0.8471(4) 0.6084(4)
H42_4 H 0.6948 0.8122 0.5991
C58_4 C 0.7749(4) 0.8582(4) 0.5767(4)
H43_4 H 0.7884 0.8296 0.5461
C59_4 C 0.8102(4) 0.9102(4) 0.5889(4)
H44_4 H 0.8472 0.9188 0.5665
C60_4 C 0.7895(4) 0.9488(4) 0.6346(4)
N16_4 N 0.6488(3) 0.8825(3) 0.6869(3)
H45_4 H 0.6224 0.8543 0.6737
H49_4 H 0.4460 0.9061 0.9919
Cl6_4 Cl 0.15480(17) 0.66671(13) 0.98582(14)
Cl7 Cl 0.68804(10) 0.5000 0.7500
O1 O 0.7260(3) 0.4761(3) 0.7996(2)
O2 O 0.6513(3) 0.4505(3) 0.7256(3)
O3 O 0.7260(3) 0.5239(3) 0.7004(2)
O4 O 0.6513(3) 0.5495(3) 0.7744(3)
Cl7_2 Cl 0.81196(10) 0.5000 0.2500
O1_2 O 0.7740(3) 0.5239(3) 0.2996(2)
O2_2 O 0.8487(3) 0.5495(3) 0.2256(3)
O3_2 O 0.7740(3) 0.4761(3) 0.2004(2)
O4_2 O 0.8487(3) 0.4505(3) 0.2744(3)
Cl7_3 Cl 0.31196(10) -0.0000 0.7500
O3_3 O 0.2740(3) 0.0239(3) 0.7996(2)
O4_3 O 0.3487(3) 0.0495(3) 0.7256(3)
Cl7_4 Cl 0.31196(10) 1.0000 0.7500
O1_3 O 0.2740(3) 0.9761(3) 0.7004(2)
O2_3 O 0.3487(3) 0.9505(3) 0.7744(3)
Cl7_5 Cl 0.18804(10) 0.0000 0.2500
O1_4 O 0.2260(3) 0.0239(3) 0.2004(2)
O2_4 O 0.1513(3) 0.0495(3) 0.2744(3)
Cl7_6 Cl 0.18804(10) 1.0000 0.2500
O3_4 O 0.2260(3) 0.9761(3) 0.2996(2)
O4_4 O 0.1513(3) 0.9505(3) 0.2256(3)
Cl7_7 Cl 0.7500 0.68804(10) 0.5000
O1_5 O 0.7996(2) 0.7260(3) 0.4761(3)
O2_5 O 0.7256(3) 0.6513(3) 0.4505(3)
O3_5 O 0.7004(2) 0.7260(3) 0.5239(3)
O4_5 O 0.7744(3) 0.6513(3) 0.5495(3)
Cl7_8 Cl 0.2500 0.81196(10) 0.5000
O1_6 O 0.2996(2) 0.7740(3) 0.5239(3)
O2_6 O 0.2256(3) 0.8487(3) 0.5495(3)
O3_6 O 0.2004(2) 0.7740(3) 0.4761(3)
O4_6 O 0.2744(3) 0.8487(3) 0.4505(3)
Cl7_9 Cl 0.7500 0.31196(10) -0.0000
O3_7 O 0.7996(2) 0.2740(3) 0.0239(3)
O4_7 O 0.7256(3) 0.3487(3) 0.0495(3)
Cl7_10 Cl 0.7500 0.31196(10) 1.0000
O1_7 O 0.7004(2) 0.2740(3) 0.9761(3)
O2_7 O 0.7744(3) 0.3487(3) 0.9505(3)
Cl7_11 Cl 0.2500 0.18804(10) 0.0000
O1_8 O 0.2004(2) 0.2260(3) 0.0239(3)
O2_8 O 0.2744(3) 0.1513(3) 0.0495(3)
Cl7_12 Cl 0.2500 0.18804(10) 1.0000
O3_8 O 0.2996(2) 0.2260(3) 0.9761(3)
O4_8 O 0.2256(3) 0.1513(3) 0.9505(3)
Cl7_13 Cl 0.5000 0.7500 0.68804(10)
O1_9 O 0.4761(3) 0.7996(2) 0.7260(3)
O2_9 O 0.4505(3) 0.7256(3) 0.6513(3)
O3_9 O 0.5239(3) 0.7004(2) 0.7260(3)
O4_9 O 0.5495(3) 0.7744(3) 0.6513(3)
Cl7_14 Cl 0.5000 0.2500 0.81196(10)
O1_10 O 0.5239(3) 0.2996(2) 0.7740(3)
O2_10 O 0.5495(3) 0.2256(3) 0.8487(3)
O3_10 O 0.4761(3) 0.2004(2) 0.7740(3)
O4_10 O 0.4505(3) 0.2744(3) 0.8487(3)
Cl7_15 Cl -0.0000 0.7500 0.31196(10)
O3_11 O 0.0239(3) 0.7996(2) 0.2740(3)
O4_11 O 0.0495(3) 0.7256(3) 0.3487(3)
Cl7_16 Cl 1.0000 0.7500 0.31196(10)
O1_11 O 0.9761(3) 0.7004(2) 0.2740(3)
O2_11 O 0.9505(3) 0.7744(3) 0.3487(3)
Cl7_17 Cl 0.0000 0.2500 0.18804(10)
O1_12 O 0.0239(3) 0.2004(2) 0.2260(3)
O2_12 O 0.0495(3) 0.2744(3) 0.1513(3)
Cl7_18 Cl 1.0000 0.2500 0.18804(10)
O3_12 O 0.9761(3) 0.2996(2) 0.2260(3)
O4_12 O 0.9505(3) 0.2256(3) 0.1513(3)
loop_
_geom_bond_atom_site_label_1
_geom_bond_atom_site_label_2
_geom_bond_site_symmetry_1
_geom_bond_site_symmetry_2
C38 H28 1_555 1_555
C39 C38 1_555 1_555
H29 C39 1_555 1_555
C53 C52 1_555 1_555
H39 C53 1_555 1_555
C54 C49 1_555 1_555
H40 C54 1_555 1_555
C55 C52 1_555 1_555
H41 C55 1_555 1_555
C56 C57 1_555 1_555
C57 H42 1_555 1_555
C58 C57 1_555 1_555
H43 C58 1_555 1_555
C59 C58 1_555 1_555
H44 C59 1_555 1_555
C60 C59 1_555 1_555
Cl5 C60 1_555 1_555
N15 C55 1_555 1_555
N16 C56 1_555 1_555
H45 N16 1_555 1_555
N17 C56 1_555 1_555
Ag4 N15 1_555 1_555
C53 C54 1_555 1_555
C60 N17 1_555 1_555
N15 N16 1_555 1_555
N17 Ag4 1_555 1_555
H19 C26 1_555 1_555
C27 C26 1_555 1_555
H20 C27 1_555 1_555
C41 C40 1_555 1_555
H30 C41 1_555 1_555
C42 C37 1_555 1_555
C43 C40 1_555 1_555
H32 C43 1_555 1_555
C44 C45 1_555 1_555
C45 H33 1_555 1_555
C46 C45 1_555 1_555
H34 C46 1_555 1_555
C47 C46 1_555 1_555
H35 C47 1_555 1_555
C48 C47 1_555 1_555
N12 Ag1 1_555 1_555
N13 C44 1_555 1_555
H36 N13 1_555 1_555
N14 Ag1 1_555 1_555
C41 C42 1_555 1_555
C43 N12 1_555 1_555
C44 N14 1_555 1_555
C48 N14 1_555 1_555
N12 N13 1_555 1_555
H10 C14 1_555 1_555
C15 C14 1_555 1_555
H11 C15 1_555 1_555
N22 Ag3 1_555 1_555
N24 Ag3 1_555 1_555
C29 C28 1_555 1_555
H21 C29 1_555 1_555
C30 C25 1_555 1_555
C31 C28 1_555 1_555
H23 C31 1_555 1_555
C32 C33 1_555 1_555
C33 H24 1_555 1_555
C34 C33 1_555 1_555
H25 C34 1_555 1_555
C35 C34 1_555 1_555
H26 C35 1_555 1_555
C36 C35 1_555 1_555
N8 C31 1_555 1_555
N9 C32 1_555 1_555
H27 N9 1_555 1_555
N10 C32 1_555 1_555
Ag3_2 N8 1_555 1_555
C29 C30 1_555 1_555
C36 N10 1_555 1_555
N8 N9 1_555 1_555
N10 Ag3_2 1_555 1_555
C2 H1 1_555 1_555
C3 C2 1_555 1_555
H2 C3 1_555 1_555
H37 C50 1_555 1_555
C51 C50 1_555 1_555
H38 C51 1_555 1_555
N21 Ag2 1_555 1_555
N23 Ag2 1_555 1_555
Ag1_2 N2 1_555 1_555
C5 C4 1_555 1_555
H3 C5 1_555 1_555
C6 C1 1_555 1_555
C7 C4 1_555 1_555
H5 C7 1_555 1_555
C8 C9 1_555 1_555
C9 H6 1_555 1_555
C10 C9 1_555 1_555
H7 C10 1_555 1_555
C11 C10 1_555 1_555
H8 C11 1_555 1_555
C12 C11 1_555 1_555
N2 C7 1_555 1_555
N3 C8 1_555 1_555
H9 N3 1_555 1_555
N4 Ag1_2 1_555 1_555
C62 C61 1_555 1_555
H46 C62 1_555 1_555
C63 C62 1_555 1_555
H47 C63 1_555 1_555
C64 C63 1_555 1_555
C65 C64 1_555 1_555
H48 C65 1_555 1_555
C66 C61 1_555 1_555
C67 C64 1_555 1_555
H50 C67 1_555 1_555
C68 C69 1_555 1_555
C69 H51 1_555 1_555
C70 C69 1_555 1_555
H52 C70 1_555 1_555
C71 C70 1_555 1_555
H53 C71 1_555 1_555
C72 C71 1_555 1_555
N18 C67 1_555 1_555
N19 C68 1_555 1_555
H54 N19 1_555 1_555
N20 C68 1_555 1_555
Ag5_2 N18 1_555 1_555
C5 C6 1_555 1_555
C8 N4 1_555 1_555
C12 N4 1_555 1_555
N2 N3 1_555 1_555
C65 C66 1_555 1_555
C72 N20 1_555 1_555
N18 N19 1_555 1_555
N20 Ag5_2 1_555 1_555
C17 C16 1_555 1_555
H12 C17 1_555 1_555
C18 C13 1_555 1_555
C19 C16 1_555 1_555
H14 C19 1_555 1_555
C20 C21 1_555 1_555
C21 H15 1_555 1_555
C22 C21 1_555 1_555
H16 C22 1_555 1_555
C23 C22 1_555 1_555
H17 C23 1_555 1_555
C24 C23 1_555 1_555
N5 C19 1_555 1_555
N6 C20 1_555 1_555
H18 N6 1_555 1_555
N7 C20 1_555 1_555
Ag2_2 N5 1_555 1_555
C17 C18 1_555 1_555
C24 N7 1_555 1_555
N5 N6 1_555 1_555
N7 Ag2_2 1_555 1_555
C14_2 C13_2 1_555 1_555
H10_2 C14_2 1_555 1_555
C15_2 C14_2 1_555 1_555
H11_2 C15_2 1_555 1_555
C16_2 C15_2 1_555 1_555
C17_2 C16_2 1_555 1_555
H12_2 C17_2 1_555 1_555
C18_2 C13_2 1_555 1_555
C19_2 C16_2 1_555 1_555
H14_2 C19_2 1_555 1_555
C20_2 C21_2 1_555 1_555
C21_2 H15_2 1_555 1_555
C22_2 C21_2 1_555 1_555
H16_2 C22_2 1_555 1_555
C23_2 C22_2 1_555 1_555
H17_2 C23_2 1_555 1_555
C24_2 C23_2 1_555 1_555
N5_2 C19_2 1_555 1_555
N6_2 C20_2 1_555 1_555
H18_2 N6_2 1_555 1_555
N7_2 C20_2 1_555 1_555
C29_2 C28_2 1_555 1_555
H21_2 C29_2 1_555 1_555
C30_2 C25_2 1_555 1_555
H22_2 C30_2 1_555 1_555
C31_2 C28_2 1_555 1_555
H23_2 C31_2 1_555 1_555
C32_2 C33_2 1_555 1_555
C33_2 H24_2 1_555 1_555
C34_2 C33_2 1_555 1_555
H25_2 C34_2 1_555 1_555
C35_2 C34_2 1_555 1_555
H26_2 C35_2 1_555 1_555
C36_2 C35_2 1_555 1_555
Cl3_2 C36_2 1_555 1_555
N8_2 C31_2 1_555 1_555
N9_2 C32_2 1_555 1_555
H27_2 N9_2 1_555 1_555
N10_2 C32_2 1_555 1_555
Ag2_3 N5_2 1_555 1_555
Ag3_3 N8_2 1_555 1_555
N22_2 Ag3_3 1_555 1_555
N24_2 Ag3_3 1_555 1_555
C17_2 C18_2 1_555 1_555
C24_2 N7_2 1_555 1_555
N5_2 N6_2 1_555 1_555
N7_2 Ag2_3 1_555 1_555
C29_2 C30_2 1_555 1_555
C36_2 N10_2 1_555 1_555
N8_2 N9_2 1_555 1_555
N10_2 Ag3_3 1_555 1_555
Ag1_3 N2_2 1_555 1_555
C1_2 C2_2 1_555 1_555
C2_2 H1_2 1_555 1_555
C3_2 C2_2 1_555 1_555
H2_2 C3_2 1_555 1_555
C4_2 C3_2 1_555 1_555
C5_2 C4_2 1_555 1_555
H3_2 C5_2 1_555 1_555
C6_2 C1_2 1_555 1_555
H4_2 C6_2 1_555 1_555
C7_2 C4_2 1_555 1_555
H5_2 C7_2 1_555 1_555
C8_2 C9_2 1_555 1_555
C9_2 H6_2 1_555 1_555
C10_2 C9_2 1_555 1_555
H7_2 C10_2 1_555 1_555
C11_2 C10_2 1_555 1_555
H8_2 C11_2 1_555 1_555
C12_2 C11_2 1_555 1_555
Cl1_2 C12_2 1_555 1_555
N1_2 C1_2 1_555 1_555
N2_2 C7_2 1_555 1_555
N3_2 C8_2 1_555 1_555
H9_2 N3_2 1_555 1_555
N4_2 Ag1_3 1_555 1_555
H19_2 C26_2 1_555 1_555
C27_2 C26_2 1_555 1_555
H20_2 C27_2 1_555 1_555
C37_2 C38_2 1_555 1_555
C38_2 H28_2 1_555 1_555
C39_2 C38_2 1_555 1_555
H29_2 C39_2 1_555 1_555
C40_2 C39_2 1_555 1_555
C41_2 C40_2 1_555 1_555
H30_2 C41_2 1_555 1_555
C42_2 C37_2 1_555 1_555
H31_2 C42_2 1_555 1_555
C43_2 C40_2 1_555 1_555
H32_2 C43_2 1_555 1_555
C44_2 C45_2 1_555 1_555
C45_2 H33_2 1_555 1_555
C46_2 C45_2 1_555 1_555
H34_2 C46_2 1_555 1_555
C47_2 C46_2 1_555 1_555
H35_2 C47_2 1_555 1_555
C48_2 C47_2 1_555 1_555
Cl4_2 C48_2 1_555 1_555
N11_2 C37_2 1_555 1_555
N12_2 Ag1_3 1_555 1_555
N13_2 C44_2 1_555 1_555
H36_2 N13_2 1_555 1_555
N14_2 Ag1_3 1_555 1_555
C49_2 N11_2 1_555 1_555
C50_2 C49_2 1_555 1_555
H37_2 C50_2 1_555 1_555
C51_2 C50_2 1_555 1_555
H38_2 C51_2 1_555 1_555
C52_2 C51_2 1_555 1_555
C53_2 C52_2 1_555 1_555
H39_2 C53_2 1_555 1_555
C54_2 C49_2 1_555 1_555
H40_2 C54_2 1_555 1_555
C55_2 C52_2 1_555 1_555
H41_2 C55_2 1_555 1_555
C56_2 C57_2 1_555 1_555
C57_2 H42_2 1_555 1_555
C58_2 C57_2 1_555 1_555
H43_2 C58_2 1_555 1_555
C59_2 C58_2 1_555 1_555
H44_2 C59_2 1_555 1_555
C60_2 C59_2 1_555 1_555
Cl5_2 C60_2 1_555 1_555
N15_2 C55_2 1_555 1_555
N16_2 C56_2 1_555 1_555
H45_2 N16_2 1_555 1_555
N17_2 C56_2 1_555 1_555
C61_2 N11_2 1_555 1_555
C62_2 C61_2 1_555 1_555
H46_2 C62_2 1_555 1_555
C63_2 C62_2 1_555 1_555
H47_2 C63_2 1_555 1_555
C64_2 C63_2 1_555 1_555
C65_2 C64_2 1_555 1_555
H48_2 C65_2 1_555 1_555
C66_2 C61_2 1_555 1_555
H49_2 C66_2 1_555 1_555
C67_2 C64_2 1_555 1_555
H50_2 C67_2 1_555 1_555
C68_2 C69_2 1_555 1_555
C69_2 H51_2 1_555 1_555
C70_2 C69_2 1_555 1_555
H52_2 C70_2 1_555 1_555
C71_2 C70_2 1_555 1_555
H53_2 C71_2 1_555 1_555
C72_2 C71_2 1_555 1_555
Cl6_2 C72_2 1_555 1_555
N18_2 C67_2 1_555 1_555
N19_2 C68_2 1_555 1_555
H54_2 N19_2 1_555 1_555
N20_2 C68_2 1_555 1_555
Ag4_2 N15_2 1_555 1_555
Ag5_3 N18_2 1_555 1_555
N21_2 Ag2_4 1_555 1_555
N23_2 Ag2_4 1_555 1_555
C5_2 C6_2 1_555 1_555
C8_2 N4_2 1_555 1_555
C12_2 N4_2 1_555 1_555
N2_2 N3_2 1_555 1_555
C41_2 C42_2 1_555 1_555
C43_2 N12_2 1_555 1_555
C44_2 N14_2 1_555 1_555
C48_2 N14_2 1_555 1_555
N12_2 N13_2 1_555 1_555
C53_2 C54_2 1_555 1_555
C60_2 N17_2 1_555 1_555
N15_2 N16_2 1_555 1_555
N17_2 Ag4_2 1_555 1_555
C65_2 C66_2 1_555 1_555
C72_2 N20_2 1_555 1_555
N18_2 N19_2 1_555 1_555
N20_2 Ag5_3 1_555 1_555
H37_3 C50_3 1_555 1_555
C51_3 C50_3 1_555 1_555
H38_3 C51_3 1_555 1_555
C65_3 C64_3 1_555 1_555
H48_3 C65_3 1_555 1_555
C66_3 C61_3 1_555 1_555
H49_3 C66_3 1_555 1_555
C67_3 C64_3 1_555 1_555
H50_3 C67_3 1_555 1_555
C68_3 C69_3 1_555 1_555
C69_3 H51_3 1_555 1_555
C70_3 C69_3 1_555 1_555
H52_3 C70_3 1_555 1_555
C71_3 C70_3 1_555 1_555
H53_3 C71_3 1_555 1_555
C72_3 C71_3 1_555 1_555
Cl6_3 C72_3 1_555 1_555
N22_2 C67_3 1_555 1_555
N19_3 C68_3 1_555 1_555
H54_3 N19_3 1_555 1_555
N24_2 C68_3 1_555 1_555
C65_3 C66_3 1_555 1_555
C72_3 N24_2 1_555 1_555
N22_2 N19_3 1_555 1_555
Ag1_4 N2_3 1_555 1_555
C1_3 C2_3 1_555 1_555
C2_3 H1_3 1_555 1_555
C3_3 C2_3 1_555 1_555
H2_3 C3_3 1_555 1_555
C4_3 C3_3 1_555 1_555
C5_3 C4_3 1_555 1_555
H3_3 C5_3 1_555 1_555
C6_3 C1_3 1_555 1_555
C7_3 C4_3 1_555 1_555
H5_3 C7_3 1_555 1_555
C8_3 C9_3 1_555 1_555
C9_3 H6_3 1_555 1_555
C10_3 C9_3 1_555 1_555
H7_3 C10_3 1_555 1_555
C11_3 C10_3 1_555 1_555
H8_3 C11_3 1_555 1_555
C12_3 C11_3 1_555 1_555
N2_3 C7_3 1_555 1_555
N3_3 C8_3 1_555 1_555
H9_3 N3_3 1_555 1_555
N4_3 Ag1_4 1_555 1_555
C17_3 C16_3 1_555 1_555
H12_3 C17_3 1_555 1_555
C18_3 C13_3 1_555 1_555
H13_3 C18_3 1_555 1_555
C19_3 C16_3 1_555 1_555
H14_3 C19_3 1_555 1_555
C20_3 C21_3 1_555 1_555
C21_3 H15_3 1_555 1_555
C22_3 C21_3 1_555 1_555
H16_3 C22_3 1_555 1_555
C23_3 C22_3 1_555 1_555
H17_3 C23_3 1_555 1_555
C24_3 C23_3 1_555 1_555
Cl2_3 C24_3 1_555 1_555
N5_3 C19_3 1_555 1_555
N6_3 C20_3 1_555 1_555
H18_3 N6_3 1_555 1_555
N7_3 C20_3 1_555 1_555
Ag4 N5_3 1_555 1_555
H46_3 C62_3 1_555 1_555
C63_3 C62_3 1_555 1_555
H47_3 C63_3 1_555 1_555
C5_3 C6_3 1_555 1_555
C8_3 N4_3 1_555 1_555
C12_3 N4_3 1_555 1_555
N2_3 N3_3 1_555 1_555
C17_3 C18_3 1_555 1_555
C24_3 N7_3 1_555 1_555
N5_3 N6_3 1_555 1_555
N7_3 Ag4 1_555 1_555
C53_3 C52_3 1_555 1_555
H39_3 C53_3 1_555 1_555
C54_3 C49_3 1_555 1_555
C55_3 C52_3 1_555 1_555
H41_3 C55_3 1_555 1_555
C56_3 C57_3 1_555 1_555
C57_3 H42_3 1_555 1_555
C58_3 C57_3 1_555 1_555
H43_3 C58_3 1_555 1_555
C59_3 C58_3 1_555 1_555
H44_3 C59_3 1_555 1_555
C60_3 C59_3 1_555 1_555
N21 C55_3 1_555 1_555
N16_3 C56_3 1_555 1_555
H45_3 N16_3 1_555 1_555
N23 C56_3 1_555 1_555
C53_3 C54_3 1_555 1_555
C60_3 N23 1_555 1_555
N21 N16_3 1_555 1_555
H10_3 C14_3 1_555 1_555
C15_3 C14_3 1_555 1_555
H11_3 C15_3 1_555 1_555
C25_3 N1_3 1_555 1_555
C26_3 C25_3 1_555 1_555
H19_3 C26_3 1_555 1_555
C27_3 C26_3 1_555 1_555
H20_3 C27_3 1_555 1_555
C28_3 C27_3 1_555 1_555
C29_3 C28_3 1_555 1_555
H21_3 C29_3 1_555 1_555
C30_3 C25_3 1_555 1_555
H22_3 C30_3 1_555 1_555
C31_3 C28_3 1_555 1_555
H23_3 C31_3 1_555 1_555
C32_3 C33_3 1_555 1_555
C33_3 H24_3 1_555 1_555
C34_3 C33_3 1_555 1_555
H25_3 C34_3 1_555 1_555
C35_3 C34_3 1_555 1_555
H26_3 C35_3 1_555 1_555
C36_3 C35_3 1_555 1_555
Cl3_3 C36_3 1_555 1_555
N8_3 C31_3 1_555 1_555
N9_3 C32_3 1_555 1_555
H27_3 N9_3 1_555 1_555
N10_3 C32_3 1_555 1_555
Ag5_3 N8_3 1_555 1_555
C37_3 C38_3 1_555 1_555
C38_3 H28_3 1_555 1_555
C39_3 C38_3 1_555 1_555
H29_3 C39_3 1_555 1_555
C40_3 C39_3 1_555 1_555
C41_3 C40_3 1_555 1_555
H30_3 C41_3 1_555 1_555
C42_3 C37_3 1_555 1_555
C43_3 C40_3 1_555 1_555
H32_3 C43_3 1_555 1_555
C44_3 C45_3 1_555 1_555
C45_3 H33_3 1_555 1_555
C46_3 C45_3 1_555 1_555
H34_3 C46_3 1_555 1_555
C47_3 C46_3 1_555 1_555
H35_3 C47_3 1_555 1_555
C48_3 C47_3 1_555 1_555
N12_3 Ag1_5 1_555 1_555
N13_3 C44_3 1_555 1_555
H36_3 N13_3 1_555 1_555
N14_3 Ag1_5 1_555 1_555
C29_3 C30_3 1_555 1_555
C36_3 N10_3 1_555 1_555
N8_3 N9_3 1_555 1_555
N10_3 Ag5_3 1_555 1_555
C41_3 C42_3 1_555 1_555
C43_3 N12_3 1_555 1_555
C44_3 N14_3 1_555 1_555
C48_3 N14_3 1_555 1_555
N12_3 N13_3 1_555 1_555
Ag1_6 N2_4 1_555 1_555
C5_4 C4_4 1_555 1_555
H3_4 C5_4 1_555 1_555
C6_4 C1_4 1_555 1_555
H4_4 C6_4 1_555 1_555
C7_4 C4_4 1_555 1_555
H5_4 C7_4 1_555 1_555
C8_4 C9_4 1_555 1_555
C9_4 H6_4 1_555 1_555
C10_4 C9_4 1_555 1_555
H7_4 C10_4 1_555 1_555
C11_4 C10_4 1_555 1_555
H8_4 C11_4 1_555 1_555
C12_4 C11_4 1_555 1_555
Cl1_4 C12_4 1_555 1_555
N2_4 C7_4 1_555 1_555
N3_4 C8_4 1_555 1_555
H9_4 N3_4 1_555 1_555
N4_4 Ag1_6 1_555 1_555
C26_4 C25_4 1_555 1_555
H19_4 C26_4 1_555 1_555
C27_4 C26_4 1_555 1_555
H20_4 C27_4 1_555 1_555
C28_4 C27_4 1_555 1_555
C29_4 C28_4 1_555 1_555
H21_4 C29_4 1_555 1_555
C30_4 C25_4 1_555 1_555
C31_4 C28_4 1_555 1_555
H23_4 C31_4 1_555 1_555
C32_4 C33_4 1_555 1_555
C33_4 H24_4 1_555 1_555
C34_4 C33_4 1_555 1_555
H25_4 C34_4 1_555 1_555
C35_4 C34_4 1_555 1_555
H26_4 C35_4 1_555 1_555
C36_4 C35_4 1_555 1_555
N8_4 C31_4 1_555 1_555
N9_4 C32_4 1_555 1_555
H27_4 N9_4 1_555 1_555
N10_4 C32_4 1_555 1_555
Ag5 N8_4 1_555 1_555
C41_4 C40_4 1_555 1_555
H30_4 C41_4 1_555 1_555
C42_4 C37_4 1_555 1_555
H31_4 C42_4 1_555 1_555
C43_4 C40_4 1_555 1_555
H32_4 C43_4 1_555 1_555
C44_4 C45_4 1_555 1_555
C45_4 H33_4 1_555 1_555
C46_4 C45_4 1_555 1_555
H34_4 C46_4 1_555 1_555
C47_4 C46_4 1_555 1_555
H35_4 C47_4 1_555 1_555
C48_4 C47_4 1_555 1_555
Cl4_4 C48_4 1_555 1_555
N12_4 Ag1_6 1_555 1_555
N13_4 C44_4 1_555 1_555
H36_4 N13_4 1_555 1_555
N14_4 Ag1_6 1_555 1_555
H46_4 C62_4 1_555 1_555
C63_4 C62_4 1_555 1_555
H47_4 C63_4 1_555 1_555
C5_4 C6_4 1_555 1_555
C8_4 N4_4 1_555 1_555
C12_4 N4_4 1_555 1_555
N2_4 N3_4 1_555 1_555
C29_4 C30_4 1_555 1_555
C36_4 N10_4 1_555 1_555
N8_4 N9_4 1_555 1_555
N10_4 Ag5 1_555 1_555
C41_4 C42_4 1_555 1_555
C43_4 N12_4 1_555 1_555
C44_4 N14_4 1_555 1_555
C48_4 N14_4 1_555 1_555
N12_4 N13_4 1_555 1_555
C2_4 H1_4 1_555 1_555
C3_4 C2_4 1_555 1_555
H2_4 C3_4 1_555 1_555
C13_4 N1_4 1_555 1_555
C14_4 C13_4 1_555 1_555
H10_4 C14_4 1_555 1_555
C15_4 C14_4 1_555 1_555
H11_4 C15_4 1_555 1_555
C16_4 C15_4 1_555 1_555
C17_4 C16_4 1_555 1_555
H12_4 C17_4 1_555 1_555
C18_4 C13_4 1_555 1_555
H13_4 C18_4 1_555 1_555
C19_4 C16_4 1_555 1_555
H14_4 C19_4 1_555 1_555
C20_4 C21_4 1_555 1_555
C21_4 H15_4 1_555 1_555
C22_4 C21_4 1_555 1_555
H16_4 C22_4 1_555 1_555
C23_4 C22_4 1_555 1_555
H17_4 C23_4 1_555 1_555
C24_4 C23_4 1_555 1_555
Cl2_4 C24_4 1_555 1_555
N5_4 C19_4 1_555 1_555
N6_4 C20_4 1_555 1_555
H18_4 N6_4 1_555 1_555
N7_4 C20_4 1_555 1_555
Ag4_2 N5_4 1_555 1_555
C38_4 H28_4 1_555 1_555
C39_4 C38_4 1_555 1_555
H29_4 C39_4 1_555 1_555
C17_4 C18_4 1_555 1_555
C24_4 N7_4 1_555 1_555
N5_4 N6_4 1_555 1_555
N7_4 Ag4_2 1_555 1_555
C65_4 C64_4 1_555 1_555
H48_4 C65_4 1_555 1_555
C66_4 C61_4 1_555 1_555
C67_4 C64_4 1_555 1_555
H50_4 C67_4 1_555 1_555
C68_4 C69_4 1_555 1_555
C69_4 H51_4 1_555 1_555
C70_4 C69_4 1_555 1_555
H52_4 C70_4 1_555 1_555
C71_4 C70_4 1_555 1_555
H53_4 C71_4 1_555 1_555
C72_4 C71_4 1_555 1_555
N22 C67_4 1_555 1_555
N19_4 C68_4 1_555 1_555
H54_4 N19_4 1_555 1_555
N24 C68_4 1_555 1_555
C65_4 C66_4 1_555 1_555
C72_4 N24 1_555 1_555
N22 N19_4 1_555 1_555
C50_4 C49_4 1_555 1_555
H37_4 C50_4 1_555 1_555
C51_4 C50_4 1_555 1_555
H38_4 C51_4 1_555 1_555
C52_4 C51_4 1_555 1_555
C53_4 C52_4 1_555 1_555
H39_4 C53_4 1_555 1_555
C54_4 C49_4 1_555 1_555
C55_4 C52_4 1_555 1_555
H41_4 C55_4 1_555 1_555
C56_4 C57_4 1_555 1_555
C57_4 H42_4 1_555 1_555
C58_4 C57_4 1_555 1_555
H43_4 C58_4 1_555 1_555
C59_4 C58_4 1_555 1_555
H44_4 C59_4 1_555 1_555
C60_4 C59_4 1_555 1_555
N21_2 C55_4 1_555 1_555
N16_4 C56_4 1_555 1_555
H45_4 N16_4 1_555 1_555
N23_2 C56_4 1_555 1_555
C53_4 C54_4 1_555 1_555
C60_4 N23_2 1_555 1_555
N21_2 N16_4 1_555 1_555
Cl7 O1 1_555 1_555
O2 Cl7 1_555 1_555
O3 Cl7 1_555 1_555
O4 Cl7 1_555 1_555
Cl7_2 O1_2 1_555 1_555
O2_2 Cl7_2 1_555 1_555
O3_2 Cl7_2 1_555 1_555
O4_2 Cl7_2 1_555 1_555
O3_3 Cl7_3 1_555 1_555
O4_3 Cl7_3 1_555 1_555
Cl7_4 O1_3 1_555 1_555
O2_3 Cl7_4 1_555 1_555
Cl7_5 O1_4 1_555 1_555
O2_4 Cl7_5 1_555 1_555
O3_4 Cl7_6 1_555 1_555
O4_4 Cl7_6 1_555 1_555
Cl7_7 O1_5 1_555 1_555
O2_5 Cl7_7 1_555 1_555
O3_5 Cl7_7 1_555 1_555
O4_5 Cl7_7 1_555 1_555
Cl7_8 O1_6 1_555 1_555
O2_6 Cl7_8 1_555 1_555
O3_6 Cl7_8 1_555 1_555
O4_6 Cl7_8 1_555 1_555
O3_7 Cl7_9 1_555 1_555
O4_7 Cl7_9 1_555 1_555
Cl7_10 O1_7 1_555 1_555
O2_7 Cl7_10 1_555 1_555
Cl7_11 O1_8 1_555 1_555
O2_8 Cl7_11 1_555 1_555
O3_8 Cl7_12 1_555 1_555
O4_8 Cl7_12 1_555 1_555
Cl7_13 O1_9 1_555 1_555
O2_9 Cl7_13 1_555 1_555
O3_9 Cl7_13 1_555 1_555
O4_9 Cl7_13 1_555 1_555
Cl7_14 O1_10 1_555 1_555
O2_10 Cl7_14 1_555 1_555
O3_10 Cl7_14 1_555 1_555
O4_10 Cl7_14 1_555 1_555
O3_11 Cl7_15 1_555 1_555
O4_11 Cl7_15 1_555 1_555
Cl7_16 O1_11 1_555 1_555
O2_11 Cl7_16 1_555 1_555
Cl7_17 O1_12 1_555 1_555
O2_12 Cl7_17 1_555 1_555
O3_12 Cl7_18 1_555 1_555
O4_12 Cl7_18 1_555 1_555

#END
