
###############################################################################
#
# This file contains modified crystal structure data generated from the
# MOF subset of the Cambridge Structural Database (CSD) v543 
# hosted by the Cambridge Crystallographic Data Centre (CCDC).
#
# This work is licensed under the Creative Commons
# Attribution-NonCommercial-ShareAlike 4.0 International License.
# To view a copy of this license, visit
# http://creativecommons.org/licenses/by-nc-sa/4.0/
# or send a letter to
# Creative Commons, PO Box 1866, Mountain View, CA 94042, USA.
#
# CIF created using the CSD Python API on 29 September 2022
# The structure has been converted into the P1 space group
# The structure has a 3D framework
# The original CSD entry KENSEE04 is in the cubic crystal system
# The original CSD entry KENSEE04 is in a Sohncke space group
# The framework has been calculated to contain at least 10.0% void space
# The void calculation uses a probe of radius 1.32A, grid spacing 0.4
# The framework is charged, counterions have been retained in the structure
#
###############################################################################

data_KENSEE04
_chemical_formula_moiety         '(C288 H216 Ag14 Cl42 N80 O48 2+)n'
_symmetry_cell_setting           triclinic
_symmetry_space_group_name_H-M   'P 1'
_symmetry_Int_Tables_number      1
_space_group_name_Hall           'P 1'
loop_
_symmetry_equiv_pos_site_id
_symmetry_equiv_pos_as_xyz
1 x,y,z
_cell_length_a                   21.3018(4)
_cell_length_b                   21.3018(4)
_cell_length_c                   21.3018(4)
_cell_angle_alpha                90
_cell_angle_beta                 90
_cell_angle_gamma                90
_cell_volume                     9666.05
loop_
_atom_site_label
_atom_site_type_symbol
_atom_site_fract_x
_atom_site_fract_y
_atom_site_fract_z
C13 C 0.0037(3) 0.0044(3) 0.9224(3)
C14 C 0.0681(3) 0.0078(3) 0.9152(3)
C15 C 0.0939(3) 0.0342(3) 0.8608(3)
H11 H 0.1377 0.0356 0.8555
C16 C 0.0545(3) 0.0584(3) 0.8148(3)
C19 C 0.0786(3) 0.0882(3) 0.7578(3)
H14 H 0.0506 0.1128 0.7341
C20 C 0.2039(3) 0.1094(3) 0.6552(3)
C21 C 0.2208(3) 0.1527(3) 0.6079(3)
H15 H 0.1957 0.1878 0.5985
C22 C 0.2755(4) 0.1412(4) 0.5762(3)
H16 H 0.2890 0.1698 0.5454
C23 C 0.3105(4) 0.0900(4) 0.5882(3)
H17 H 0.3474 0.0817 0.5655
C24 C 0.2907(3) 0.0507(3) 0.6342(4)
N5 N 0.1342(2) 0.0832(2) 0.7382(2)
N6 N 0.1496(2) 0.1177(2) 0.6863(2)
H18 H 0.1233 0.1460 0.6730
N7 N 0.2390(3) 0.0586(2) 0.6674(3)
Ag2 Ag 0.21153(3) -0.0000 0.7500
Ag1 Ag 0.0000 0.7500 0.21153(3)
C1 C 0.0044(3) 0.9224(3) 0.0037(3)
C2 C 0.0078(3) 0.9152(3) 0.0681(3)
C3 C 0.0342(3) 0.8608(3) 0.0939(3)
H2 H 0.0356 0.8555 0.1377
C4 C 0.0584(3) 0.8148(3) 0.0545(3)
C7 C 0.0882(3) 0.7578(3) 0.0786(3)
H5 H 0.1128 0.7341 0.0506
C8 C 0.1094(3) 0.6552(3) 0.2039(3)
C9 C 0.1527(3) 0.6079(3) 0.2208(3)
H6 H 0.1878 0.5985 0.1957
C10 C 0.1412(4) 0.5762(3) 0.2755(4)
H7 H 0.1698 0.5454 0.2890
C11 C 0.0900(4) 0.5882(3) 0.3105(4)
H8 H 0.0817 0.5655 0.3474
C12 C 0.0507(3) 0.6342(4) 0.2907(3)
N2 N 0.0832(2) 0.7382(2) 0.1342(2)
N3 N 0.1177(2) 0.6863(2) 0.1496(2)
H9 H 0.1460 0.6730 0.1233
N4 N 0.0586(2) 0.6674(3) 0.2390(3)
H28 H 0.0077 0.5531 0.0946
Cl4 Cl 0.01451(12) 0.84571(15) 0.33428(11)
C61 C 0.0776(3) 0.4963(3) 0.0044(3)
C62 C 0.0848(3) 0.4319(3) 0.0078(3)
C63 C 0.1392(3) 0.4061(3) 0.0342(3)
H47 H 0.1445 0.3623 0.0356
C64 C 0.1852(3) 0.4455(3) 0.0584(3)
C65 C 0.1766(3) 0.5092(3) 0.0552(3)
H48 H 0.2075 0.5359 0.0719
C66 C 0.1244(3) 0.5349(3) 0.0285(3)
H49 H 0.1200 0.5787 0.0263
C67 C 0.2422(3) 0.4214(3) 0.0882(3)
H50 H 0.2659 0.4494 0.1128
C68 C 0.3448(3) 0.2961(3) 0.1094(3)
C69 C 0.3921(3) 0.2792(3) 0.1527(3)
H51 H 0.4015 0.3043 0.1878
C70 C 0.4238(3) 0.2245(4) 0.1412(4)
H52 H 0.4546 0.2110 0.1698
C71 C 0.4118(3) 0.1895(4) 0.0900(4)
H53 H 0.4345 0.1526 0.0817
C72 C 0.3658(4) 0.2093(3) 0.0507(3)
N18 N 0.2618(2) 0.3658(2) 0.0832(2)
N19 N 0.3137(2) 0.3504(2) 0.1177(2)
H54 H 0.3270 0.3767 0.1460
N20 N 0.3326(3) 0.2610(3) 0.0586(2)
Ag5 Ag 0.2500 0.28847(3) 0.0000
C5 C 0.0552(3) 0.8234(3) 0.9908(3)
H3 H 0.0719 0.7925 0.9641
C6 C 0.0285(3) 0.8756(3) 0.9651(3)
H4 H 0.0263 0.8800 0.9213
H10 H 0.0946 0.9923 0.9469
Cl2 Cl 0.33428(11) 0.98549(12) 0.65429(15)
Ag2_2 Ag 0.21153(3) 1.0000 0.7500
N11 N 0.0216(2) 0.5216(2) 0.9784(2)
C53 C 0.0092(3) 0.4448(3) 0.8234(3)
H39 H 0.0359 0.4281 0.7925
C54 C 0.0349(3) 0.4715(3) 0.8756(3)
H40 H 0.0787 0.4737 0.8800
H46 H 0.0531 0.4054 0.9923
Cl6 Cl 0.34571(15) 0.16572(11) 0.98549(12)
Ag5_2 Ag 0.2500 0.28847(3) 1.0000
N21 N 0.1342(2) 0.9168(2) 0.7618(2)
N23 N 0.2390(3) 0.9414(2) 0.8326(3)
C25 C 0.9224(3) 0.0037(3) 0.0044(3)
C26 C 0.9152(3) 0.0681(3) 0.0078(3)
C27 C 0.8608(3) 0.0939(3) 0.0342(3)
H20 H 0.8555 0.1377 0.0356
C28 C 0.8148(3) 0.0545(3) 0.0584(3)
C31 C 0.7578(3) 0.0786(3) 0.0882(3)
H23 H 0.7341 0.0506 0.1128
C32 C 0.6552(3) 0.2039(3) 0.1094(3)
C33 C 0.6079(3) 0.2208(3) 0.1527(3)
H24 H 0.5985 0.1957 0.1878
C34 C 0.5762(3) 0.2755(4) 0.1412(4)
H25 H 0.5454 0.2890 0.1698
C35 C 0.5882(3) 0.3105(4) 0.0900(4)
H26 H 0.5655 0.3474 0.0817
C36 C 0.6342(4) 0.2907(3) 0.0507(3)
N8 N 0.7382(2) 0.1342(2) 0.0832(2)
N9 N 0.6863(2) 0.1496(2) 0.1177(2)
H27 H 0.6730 0.1233 0.1460
N10 N 0.6674(3) 0.2390(3) 0.0586(2)
Ag3 Ag 0.7500 0.21153(3) 0.0000
C17 C 0.9908(3) 0.0552(3) 0.8234(3)
H12 H 0.9641 0.0719 0.7925
C18 C 0.9651(3) 0.0285(3) 0.8756(3)
H13 H 0.9213 0.0263 0.8800
H19 H 0.9469 0.0946 0.9923
Cl3 Cl 0.65429(15) 0.33428(11) 0.98549(12)
Ag3_2 Ag 0.7500 0.21153(3) 1.0000
N22 N 0.7618(2) 0.1342(2) 0.9168(2)
N24 N 0.8326(3) 0.2390(3) 0.9414(2)
Ag1_2 Ag 1.0000 0.7500 0.21153(3)
H1 H 0.9923 0.9469 0.0946
Cl1 Cl 0.98549(12) 0.65429(15) 0.33428(11)
C29 C 0.8234(3) 0.9908(3) 0.0552(3)
H21 H 0.7925 0.9641 0.0719
C30 C 0.8756(3) 0.9651(3) 0.0285(3)
H22 H 0.8800 0.9213 0.0263
C37 C 0.9956(3) 0.5776(3) 0.0037(3)
C38 C 0.9922(3) 0.5848(3) 0.0681(3)
C39 C 0.9658(3) 0.6392(3) 0.0939(3)
H29 H 0.9644 0.6445 0.1377
C40 C 0.9416(3) 0.6852(3) 0.0545(3)
C43 C 0.9118(3) 0.7422(3) 0.0786(3)
H32 H 0.8872 0.7659 0.0506
C44 C 0.8906(3) 0.8448(3) 0.2039(3)
C45 C 0.8473(3) 0.8921(3) 0.2208(3)
H33 H 0.8122 0.9015 0.1957
C46 C 0.8588(4) 0.9238(3) 0.2755(4)
H34 H 0.8302 0.9546 0.2890
C47 C 0.9100(4) 0.9118(3) 0.3105(4)
H35 H 0.9183 0.9345 0.3474
C48 C 0.9493(3) 0.8658(4) 0.2907(3)
N12 N 0.9168(2) 0.7618(2) 0.1342(2)
N13 N 0.8823(2) 0.8137(2) 0.1496(2)
H36 H 0.8540 0.8270 0.1233
N14 N 0.9414(2) 0.8326(3) 0.2390(3)
N1 N 0.9784(2) 0.9784(2) 0.9784(2)
C41 C 0.9448(3) 0.6766(3) 0.9908(3)
H30 H 0.9281 0.7075 0.9641
C42 C 0.9715(3) 0.6244(3) 0.9651(3)
H31 H 0.9737 0.6200 0.9213
C49 C 0.9963(3) 0.4956(3) 0.9224(3)
C50 C 0.9319(3) 0.4922(3) 0.9152(3)
H37 H 0.9054 0.5077 0.9469
C51 C 0.9061(3) 0.4658(3) 0.8608(3)
H38 H 0.8623 0.4644 0.8555
C52 C 0.9455(3) 0.4416(3) 0.8148(3)
C55 C 0.9214(3) 0.4118(3) 0.7578(3)
H41 H 0.9494 0.3872 0.7341
C56 C 0.7961(3) 0.3906(3) 0.6552(3)
C57 C 0.7792(3) 0.3473(3) 0.6079(3)
H42 H 0.8043 0.3122 0.5985
C58 C 0.7245(4) 0.3588(4) 0.5762(3)
H43 H 0.7110 0.3302 0.5454
C59 C 0.6895(4) 0.4100(4) 0.5882(3)
H44 H 0.6526 0.4183 0.5655
C60 C 0.7093(3) 0.4493(3) 0.6342(4)
Cl5 Cl 0.66572(11) 0.51451(12) 0.65429(15)
N15 N 0.8658(2) 0.4168(2) 0.7382(2)
N16 N 0.8504(2) 0.3823(2) 0.6863(2)
H45 H 0.8767 0.3540 0.6730
N17 N 0.7610(3) 0.4414(2) 0.6674(3)
Ag4 Ag 0.78847(3) 0.5000 0.7500
Ag1_3 Ag 0.5000 0.2500 0.71153(3)
C1_2 C 0.4956(3) 0.0776(3) 0.5037(3)
C2_2 C 0.4922(3) 0.0848(3) 0.5681(3)
H1_2 H 0.5077 0.0531 0.5946
C3_2 C 0.4658(3) 0.1392(3) 0.5939(3)
H2_2 H 0.4644 0.1445 0.6377
C4_2 C 0.4416(3) 0.1852(3) 0.5545(3)
C5_2 C 0.4448(3) 0.1766(3) 0.4908(3)
H3_2 H 0.4281 0.2075 0.4641
C6_2 C 0.4715(3) 0.1244(3) 0.4651(3)
H4_2 H 0.4737 0.1200 0.4213
C7_2 C 0.4118(3) 0.2422(3) 0.5786(3)
H5_2 H 0.3872 0.2659 0.5506
C8_2 C 0.3906(3) 0.3448(3) 0.7039(3)
C9_2 C 0.3473(3) 0.3921(3) 0.7208(3)
H6_2 H 0.3122 0.4015 0.6957
C10_2 C 0.3588(4) 0.4238(3) 0.7755(4)
H7_2 H 0.3302 0.4546 0.7890
C11_2 C 0.4100(4) 0.4118(3) 0.8105(4)
H8_2 H 0.4183 0.4345 0.8474
C12_2 C 0.4493(3) 0.3658(4) 0.7907(3)
Cl1_2 Cl 0.51451(12) 0.34571(15) 0.83428(11)
N1_2 N 0.5216(2) 0.0216(2) 0.4784(2)
N2_2 N 0.4168(2) 0.2618(2) 0.6342(2)
N3_2 N 0.3823(2) 0.3137(2) 0.6496(2)
H9_2 H 0.3540 0.3270 0.6233
N4_2 N 0.4414(2) 0.3326(3) 0.7390(3)
H10_2 H 0.4054 0.0077 0.4469
Cl2_2 Cl 0.16572(11) 0.01451(12) 0.15429(15)
C29_2 C 0.6766(3) 0.0092(3) 0.5552(3)
H21_2 H 0.7075 0.0359 0.5719
C30_2 C 0.6244(3) 0.0349(3) 0.5285(3)
H22_2 H 0.6200 0.0787 0.5263
Ag2_3 Ag 0.28847(3) 0.0000 0.2500
C37_2 C 0.5044(3) 0.4224(3) 0.5037(3)
C38_2 C 0.5078(3) 0.4152(3) 0.5681(3)
H28_2 H 0.4923 0.4469 0.5946
C39_2 C 0.5342(3) 0.3608(3) 0.5939(3)
H29_2 H 0.5356 0.3555 0.6377
C40_2 C 0.5584(3) 0.3148(3) 0.5545(3)
C41_2 C 0.5552(3) 0.3234(3) 0.4908(3)
H30_2 H 0.5719 0.2925 0.4641
C42_2 C 0.5285(3) 0.3756(3) 0.4651(3)
H31_2 H 0.5263 0.3800 0.4213
C43_2 C 0.5882(3) 0.2578(3) 0.5786(3)
H32_2 H 0.6128 0.2341 0.5506
C44_2 C 0.6094(3) 0.1552(3) 0.7039(3)
C45_2 C 0.6527(3) 0.1079(3) 0.7208(3)
H33_2 H 0.6878 0.0985 0.6957
C46_2 C 0.6412(4) 0.0762(3) 0.7755(4)
H34_2 H 0.6698 0.0454 0.7890
C47_2 C 0.5900(4) 0.0882(3) 0.8105(4)
H35_2 H 0.5817 0.0655 0.8474
C48_2 C 0.5507(3) 0.1342(4) 0.7907(3)
Cl4_2 Cl 0.48549(12) 0.15429(15) 0.83428(11)
N11_2 N 0.4784(2) 0.4784(2) 0.4784(2)
N12_2 N 0.5832(2) 0.2382(2) 0.6342(2)
N13_2 N 0.6177(2) 0.1863(2) 0.6496(2)
H36_2 H 0.6460 0.1730 0.6233
N14_2 N 0.5586(2) 0.1674(3) 0.7390(3)
C49_2 C 0.5037(3) 0.5044(3) 0.4224(3)
C50_2 C 0.5681(3) 0.5078(3) 0.4152(3)
H37_2 H 0.5946 0.4923 0.4469
C51_2 C 0.5939(3) 0.5342(3) 0.3608(3)
H38_2 H 0.6377 0.5356 0.3555
C52_2 C 0.5545(3) 0.5584(3) 0.3148(3)
C53_2 C 0.4908(3) 0.5552(3) 0.3234(3)
H39_2 H 0.4641 0.5719 0.2925
C54_2 C 0.4651(3) 0.5285(3) 0.3756(3)
H40_2 H 0.4213 0.5263 0.3800
C55_2 C 0.5786(3) 0.5882(3) 0.2578(3)
H41_2 H 0.5506 0.6128 0.2341
C56_2 C 0.7039(3) 0.6094(3) 0.1552(3)
C57_2 C 0.7208(3) 0.6527(3) 0.1079(3)
H42_2 H 0.6957 0.6878 0.0985
C58_2 C 0.7755(4) 0.6412(4) 0.0762(3)
H43_2 H 0.7890 0.6698 0.0454
C59_2 C 0.8105(4) 0.5900(4) 0.0882(3)
H44_2 H 0.8474 0.5817 0.0655
C60_2 C 0.7907(3) 0.5507(3) 0.1342(4)
Cl5_2 Cl 0.83428(11) 0.48549(12) 0.15429(15)
N15_2 N 0.6342(2) 0.5832(2) 0.2382(2)
N16_2 N 0.6496(2) 0.6177(2) 0.1863(2)
H45_2 H 0.6233 0.6460 0.1730
N17_2 N 0.7390(3) 0.5586(2) 0.1674(3)
C61_2 C 0.4224(3) 0.5037(3) 0.5044(3)
C62_2 C 0.4152(3) 0.5681(3) 0.5078(3)
H46_2 H 0.4469 0.5946 0.4923
C63_2 C 0.3608(3) 0.5939(3) 0.5342(3)
H47_2 H 0.3555 0.6377 0.5356
C64_2 C 0.3148(3) 0.5545(3) 0.5584(3)
C65_2 C 0.3234(3) 0.4908(3) 0.5552(3)
H48_2 H 0.2925 0.4641 0.5719
C66_2 C 0.3756(3) 0.4651(3) 0.5285(3)
H49_2 H 0.3800 0.4213 0.5263
C67_2 C 0.2578(3) 0.5786(3) 0.5882(3)
H50_2 H 0.2341 0.5506 0.6128
C68_2 C 0.1552(3) 0.7039(3) 0.6094(3)
C69_2 C 0.1079(3) 0.7208(3) 0.6527(3)
H51_2 H 0.0985 0.6957 0.6878
C70_2 C 0.0762(3) 0.7755(4) 0.6412(4)
H52_2 H 0.0454 0.7890 0.6698
C71_2 C 0.0882(3) 0.8105(4) 0.5900(4)
H53_2 H 0.0655 0.8474 0.5817
C72_2 C 0.1342(4) 0.7907(3) 0.5507(3)
Cl6_2 Cl 0.15429(15) 0.83428(11) 0.48549(12)
N18_2 N 0.2382(2) 0.6342(2) 0.5832(2)
N19_2 N 0.1863(2) 0.6496(2) 0.6177(2)
H54_2 H 0.1730 0.6233 0.6460
N20_2 N 0.1674(3) 0.7390(3) 0.5586(2)
Ag4_2 Ag 0.71153(3) 0.5000 0.2500
Ag5_3 Ag 0.2500 0.71153(3) 0.5000
N21_2 N 0.3658(2) 0.0832(2) 0.2618(2)
N23_2 N 0.2610(3) 0.0586(2) 0.3326(3)
C13_2 C 0.4963(3) 0.9956(3) 0.4224(3)
C14_2 C 0.4319(3) 0.9922(3) 0.4152(3)
C15_2 C 0.4061(3) 0.9658(3) 0.3608(3)
H11_2 H 0.3623 0.9644 0.3555
C16_2 C 0.4455(3) 0.9416(3) 0.3148(3)
C17_2 C 0.5092(3) 0.9448(3) 0.3234(3)
H12_2 H 0.5359 0.9281 0.2925
C18_2 C 0.5349(3) 0.9715(3) 0.3756(3)
H13_2 H 0.5787 0.9737 0.3800
C19_2 C 0.4214(3) 0.9118(3) 0.2578(3)
H14_2 H 0.4494 0.8872 0.2341
C20_2 C 0.2961(3) 0.8906(3) 0.1552(3)
C21_2 C 0.2792(3) 0.8473(3) 0.1079(3)
H15_2 H 0.3043 0.8122 0.0985
C22_2 C 0.2245(4) 0.8588(4) 0.0762(3)
H16_2 H 0.2110 0.8302 0.0454
C23_2 C 0.1895(4) 0.9100(4) 0.0882(3)
H17_2 H 0.1526 0.9183 0.0655
C24_2 C 0.2093(3) 0.9493(3) 0.1342(4)
N5_2 N 0.3658(2) 0.9168(2) 0.2382(2)
N6_2 N 0.3504(2) 0.8823(2) 0.1863(2)
H18_2 H 0.3767 0.8540 0.1730
N7_2 N 0.2610(3) 0.9414(2) 0.1674(3)
C25_2 C 0.5776(3) 0.9963(3) 0.5044(3)
C26_2 C 0.5848(3) 0.9319(3) 0.5078(3)
H19_2 H 0.5531 0.9054 0.4923
C27_2 C 0.6392(3) 0.9061(3) 0.5342(3)
H20_2 H 0.6445 0.8623 0.5356
C28_2 C 0.6852(3) 0.9455(3) 0.5584(3)
C31_2 C 0.7422(3) 0.9214(3) 0.5882(3)
H23_2 H 0.7659 0.9494 0.6128
C32_2 C 0.8448(3) 0.7961(3) 0.6094(3)
C33_2 C 0.8921(3) 0.7792(3) 0.6527(3)
H24_2 H 0.9015 0.8043 0.6878
C34_2 C 0.9238(3) 0.7245(4) 0.6412(4)
H25_2 H 0.9546 0.7110 0.6698
C35_2 C 0.9118(3) 0.6895(4) 0.5900(4)
H26_2 H 0.9345 0.6526 0.5817
C36_2 C 0.8658(4) 0.7093(3) 0.5507(3)
Cl3_2 Cl 0.84571(15) 0.66572(11) 0.48549(12)
N8_2 N 0.7618(2) 0.8658(2) 0.5832(2)
N9_2 N 0.8137(2) 0.8504(2) 0.6177(2)
H27_2 H 0.8270 0.8767 0.6460
N10_2 N 0.8326(3) 0.7610(3) 0.5586(2)
Ag2_4 Ag 0.28847(3) 1.0000 0.2500
Ag3_3 Ag 0.7500 0.78847(3) 0.5000
N22_2 N 0.7382(2) 0.8658(2) 0.4168(2)
N24_2 N 0.6674(3) 0.7610(3) 0.4414(2)
Ag1_4 Ag 0.0000 0.2500 0.28847(3)
H1_3 H 0.0077 0.4469 0.4054
Cl1_3 Cl 0.01451(12) 0.15429(15) 0.16572(11)
N1_3 N 0.0216(2) 0.4784(2) 0.5216(2)
C17_3 C 0.0092(3) 0.5552(3) 0.6766(3)
H12_3 H 0.0359 0.5719 0.7075
C18_3 C 0.0349(3) 0.5285(3) 0.6244(3)
H13_3 H 0.0787 0.5263 0.6200
C25_3 C 0.0776(3) 0.5037(3) 0.4956(3)
C26_3 C 0.0848(3) 0.5681(3) 0.4922(3)
H19_3 H 0.0531 0.5946 0.5077
C27_3 C 0.1392(3) 0.5939(3) 0.4658(3)
H20_3 H 0.1445 0.6377 0.4644
C28_3 C 0.1852(3) 0.5545(3) 0.4416(3)
C29_3 C 0.1766(3) 0.4908(3) 0.4448(3)
H21_3 H 0.2075 0.4641 0.4281
C30_3 C 0.1244(3) 0.4651(3) 0.4715(3)
H22_3 H 0.1200 0.4213 0.4737
C31_3 C 0.2422(3) 0.5786(3) 0.4118(3)
H23_3 H 0.2659 0.5506 0.3872
C32_3 C 0.3448(3) 0.7039(3) 0.3906(3)
C33_3 C 0.3921(3) 0.7208(3) 0.3473(3)
H24_3 H 0.4015 0.6957 0.3122
C34_3 C 0.4238(3) 0.7755(4) 0.3588(4)
H25_3 H 0.4546 0.7890 0.3302
C35_3 C 0.4118(3) 0.8105(4) 0.4100(4)
H26_3 H 0.4345 0.8474 0.4183
C36_3 C 0.3658(4) 0.7907(3) 0.4493(3)
Cl3_3 Cl 0.34571(15) 0.83428(11) 0.51451(12)
N8_3 N 0.2618(2) 0.6342(2) 0.4168(2)
N9_3 N 0.3137(2) 0.6496(2) 0.3823(2)
H27_3 H 0.3270 0.6233 0.3540
N10_3 N 0.3326(3) 0.7390(3) 0.4414(2)
C37_3 C 0.0044(3) 0.0776(3) 0.4963(3)
C38_3 C 0.0078(3) 0.0848(3) 0.4319(3)
C39_3 C 0.0342(3) 0.1392(3) 0.4061(3)
H29_3 H 0.0356 0.1445 0.3623
C40_3 C 0.0584(3) 0.1852(3) 0.4455(3)
C41_3 C 0.0552(3) 0.1766(3) 0.5092(3)
H30_3 H 0.0719 0.2075 0.5359
C42_3 C 0.0285(3) 0.1244(3) 0.5349(3)
H31_3 H 0.0263 0.1200 0.5787
C43_3 C 0.0882(3) 0.2422(3) 0.4214(3)
H32_3 H 0.1128 0.2659 0.4494
C44_3 C 0.1094(3) 0.3448(3) 0.2961(3)
C45_3 C 0.1527(3) 0.3921(3) 0.2792(3)
H33_3 H 0.1878 0.4015 0.3043
C46_3 C 0.1412(4) 0.4238(3) 0.2245(4)
H34_3 H 0.1698 0.4546 0.2110
C47_3 C 0.0900(4) 0.4118(3) 0.1895(4)
H35_3 H 0.0817 0.4345 0.1526
C48_3 C 0.0507(3) 0.3658(4) 0.2093(3)
N12_3 N 0.0832(2) 0.2618(2) 0.3658(2)
N13_3 N 0.1177(2) 0.3137(2) 0.3504(2)
H36_3 H 0.1460 0.3270 0.3767
N14_3 N 0.0586(2) 0.3326(3) 0.2610(3)
H37_3 H 0.0946 0.0077 0.5531
Cl5_3 Cl 0.33428(11) 0.01451(12) 0.84571(15)
C49_3 C 0.0037(3) 0.9956(3) 0.5776(3)
C50_3 C 0.0681(3) 0.9922(3) 0.5848(3)
C51_3 C 0.0939(3) 0.9658(3) 0.6392(3)
H38_3 H 0.1377 0.9644 0.6445
C52_3 C 0.0545(3) 0.9416(3) 0.6852(3)
C55_3 C 0.0786(3) 0.9118(3) 0.7422(3)
H41_3 H 0.0506 0.8872 0.7659
C56_3 C 0.2039(3) 0.8906(3) 0.8448(3)
C57_3 C 0.2208(3) 0.8473(3) 0.8921(3)
H42_3 H 0.1957 0.8122 0.9015
C58_3 C 0.2755(4) 0.8588(4) 0.9238(3)
H43_3 H 0.2890 0.8302 0.9546
C59_3 C 0.3105(4) 0.9100(4) 0.9118(3)
H44_3 H 0.3474 0.9183 0.9345
C60_3 C 0.2907(3) 0.9493(3) 0.8658(4)
N16_3 N 0.1496(2) 0.8823(2) 0.8137(2)
H45_3 H 0.1233 0.8540 0.8270
Ag1_5 Ag 1.0000 0.2500 0.28847(3)
C1_3 C 0.9956(3) 0.4224(3) 0.4963(3)
C2_3 C 0.9922(3) 0.4152(3) 0.4319(3)
C3_3 C 0.9658(3) 0.3608(3) 0.4061(3)
H2_3 H 0.9644 0.3555 0.3623
C4_3 C 0.9416(3) 0.3148(3) 0.4455(3)
C5_3 C 0.9448(3) 0.3234(3) 0.5092(3)
H3_3 H 0.9281 0.2925 0.5359
C6_3 C 0.9715(3) 0.3756(3) 0.5349(3)
H4_3 H 0.9737 0.3800 0.5787
C7_3 C 0.9118(3) 0.2578(3) 0.4214(3)
H5_3 H 0.8872 0.2341 0.4494
C8_3 C 0.8906(3) 0.1552(3) 0.2961(3)
C9_3 C 0.8473(3) 0.1079(3) 0.2792(3)
H6_3 H 0.8122 0.0985 0.3043
C10_3 C 0.8588(4) 0.0762(3) 0.2245(4)
H7_3 H 0.8302 0.0454 0.2110
C11_3 C 0.9100(4) 0.0882(3) 0.1895(4)
H8_3 H 0.9183 0.0655 0.1526
C12_3 C 0.9493(3) 0.1342(4) 0.2093(3)
N2_3 N 0.9168(2) 0.2382(2) 0.3658(2)
N3_3 N 0.8823(2) 0.1863(2) 0.3504(2)
H9_3 H 0.8540 0.1730 0.3767
N4_3 N 0.9414(2) 0.1674(3) 0.2610(3)
C13_3 C 0.9963(3) 0.5044(3) 0.5776(3)
C14_3 C 0.9319(3) 0.5078(3) 0.5848(3)
H10_3 H 0.9054 0.4923 0.5531
C15_3 C 0.9061(3) 0.5342(3) 0.6392(3)
H11_3 H 0.8623 0.5356 0.6445
C16_3 C 0.9455(3) 0.5584(3) 0.6852(3)
C19_3 C 0.9214(3) 0.5882(3) 0.7422(3)
H14_3 H 0.9494 0.6128 0.7659
C20_3 C 0.7961(3) 0.6094(3) 0.8448(3)
C21_3 C 0.7792(3) 0.6527(3) 0.8921(3)
H15_3 H 0.8043 0.6878 0.9015
C22_3 C 0.7245(4) 0.6412(4) 0.9238(3)
H16_3 H 0.7110 0.6698 0.9546
C23_3 C 0.6895(4) 0.5900(4) 0.9118(3)
H17_3 H 0.6526 0.5817 0.9345
C24_3 C 0.7093(3) 0.5507(3) 0.8658(4)
Cl2_3 Cl 0.66572(11) 0.48549(12) 0.84571(15)
N5_3 N 0.8658(2) 0.5832(2) 0.7618(2)
N6_3 N 0.8504(2) 0.6177(2) 0.8137(2)
H18_3 H 0.8767 0.6460 0.8270
N7_3 N 0.7610(3) 0.5586(2) 0.8326(3)
H28_3 H 0.9923 0.0531 0.4054
Cl4_3 Cl 0.98549(12) 0.34571(15) 0.16572(11)
N11_3 N 0.9784(2) 0.0216(2) 0.5216(2)
C65_3 C 0.8234(3) 0.0092(3) 0.4448(3)
H48_3 H 0.7925 0.0359 0.4281
C66_3 C 0.8756(3) 0.0349(3) 0.4715(3)
H49_3 H 0.8800 0.0787 0.4737
C53_3 C 0.9908(3) 0.9448(3) 0.6766(3)
H39_3 H 0.9641 0.9281 0.7075
C54_3 C 0.9651(3) 0.9715(3) 0.6244(3)
H40_3 H 0.9213 0.9737 0.6200
C61_3 C 0.9224(3) 0.9963(3) 0.4956(3)
C62_3 C 0.9152(3) 0.9319(3) 0.4922(3)
H46_3 H 0.9469 0.9054 0.5077
C63_3 C 0.8608(3) 0.9061(3) 0.4658(3)
H47_3 H 0.8555 0.8623 0.4644
C64_3 C 0.8148(3) 0.9455(3) 0.4416(3)
C67_3 C 0.7578(3) 0.9214(3) 0.4118(3)
H50_3 H 0.7341 0.9494 0.3872
C68_3 C 0.6552(3) 0.7961(3) 0.3906(3)
C69_3 C 0.6079(3) 0.7792(3) 0.3473(3)
H51_3 H 0.5985 0.8043 0.3122
C70_3 C 0.5762(3) 0.7245(4) 0.3588(4)
H52_3 H 0.5454 0.7110 0.3302
C71_3 C 0.5882(3) 0.6895(4) 0.4100(4)
H53_3 H 0.5655 0.6526 0.4183
C72_3 C 0.6342(4) 0.7093(3) 0.4493(3)
Cl6_3 Cl 0.65429(15) 0.66572(11) 0.51451(12)
N19_3 N 0.6863(2) 0.8504(2) 0.3823(2)
H54_3 H 0.6730 0.8767 0.3540
C49_4 C 0.4963(3) 0.0044(3) 0.0776(3)
C50_4 C 0.4319(3) 0.0078(3) 0.0848(3)
C51_4 C 0.4061(3) 0.0342(3) 0.1392(3)
H38_4 H 0.3623 0.0356 0.1445
C52_4 C 0.4455(3) 0.0584(3) 0.1852(3)
C53_4 C 0.5092(3) 0.0552(3) 0.1766(3)
H39_4 H 0.5359 0.0719 0.2075
C54_4 C 0.5349(3) 0.0285(3) 0.1244(3)
H40_4 H 0.5787 0.0263 0.1200
C55_4 C 0.4214(3) 0.0882(3) 0.2422(3)
H41_4 H 0.4494 0.1128 0.2659
C56_4 C 0.2961(3) 0.1094(3) 0.3448(3)
C57_4 C 0.2792(3) 0.1527(3) 0.3921(3)
H42_4 H 0.3043 0.1878 0.4015
C58_4 C 0.2245(4) 0.1412(4) 0.4238(3)
H43_4 H 0.2110 0.1698 0.4546
C59_4 C 0.1895(4) 0.0900(4) 0.4118(3)
H44_4 H 0.1526 0.0817 0.4345
C60_4 C 0.2093(3) 0.0507(3) 0.3658(4)
N16_4 N 0.3504(2) 0.1177(2) 0.3137(2)
H45_4 H 0.3767 0.1460 0.3270
H46_4 H 0.5531 0.0946 0.0077
Cl6_4 Cl 0.84571(15) 0.33428(11) 0.01451(12)
C61_4 C 0.5776(3) 0.0037(3) 0.9956(3)
C62_4 C 0.5848(3) 0.0681(3) 0.9922(3)
C63_4 C 0.6392(3) 0.0939(3) 0.9658(3)
H47_4 H 0.6445 0.1377 0.9644
C64_4 C 0.6852(3) 0.0545(3) 0.9416(3)
C67_4 C 0.7422(3) 0.0786(3) 0.9118(3)
H50_4 H 0.7659 0.0506 0.8872
C68_4 C 0.8448(3) 0.2039(3) 0.8906(3)
C69_4 C 0.8921(3) 0.2208(3) 0.8473(3)
H51_4 H 0.9015 0.1957 0.8122
C70_4 C 0.9238(3) 0.2755(4) 0.8588(4)
H52_4 H 0.9546 0.2890 0.8302
C71_4 C 0.9118(3) 0.3105(4) 0.9100(4)
H53_4 H 0.9345 0.3474 0.9183
C72_4 C 0.8658(4) 0.2907(3) 0.9493(3)
N19_4 N 0.8137(2) 0.1496(2) 0.8823(2)
H54_4 H 0.8270 0.1233 0.8540
C5_4 C 0.5552(3) 0.6766(3) 0.0092(3)
H3_4 H 0.5719 0.7075 0.0359
C6_4 C 0.5285(3) 0.6244(3) 0.0349(3)
H4_4 H 0.5263 0.6200 0.0787
N1_4 N 0.4784(2) 0.5216(2) 0.0216(2)
C13_4 C 0.5037(3) 0.4956(3) 0.0776(3)
C14_4 C 0.5681(3) 0.4922(3) 0.0848(3)
H10_4 H 0.5946 0.5077 0.0531
C15_4 C 0.5939(3) 0.4658(3) 0.1392(3)
H11_4 H 0.6377 0.4644 0.1445
C16_4 C 0.5545(3) 0.4416(3) 0.1852(3)
C17_4 C 0.4908(3) 0.4448(3) 0.1766(3)
H12_4 H 0.4641 0.4281 0.2075
C18_4 C 0.4651(3) 0.4715(3) 0.1244(3)
H13_4 H 0.4213 0.4737 0.1200
C19_4 C 0.5786(3) 0.4118(3) 0.2422(3)
H14_4 H 0.5506 0.3872 0.2659
C20_4 C 0.7039(3) 0.3906(3) 0.3448(3)
C21_4 C 0.7208(3) 0.3473(3) 0.3921(3)
H15_4 H 0.6957 0.3122 0.4015
C22_4 C 0.7755(4) 0.3588(4) 0.4238(3)
H16_4 H 0.7890 0.3302 0.4546
C23_4 C 0.8105(4) 0.4100(4) 0.4118(3)
H17_4 H 0.8474 0.4183 0.4345
C24_4 C 0.7907(3) 0.4493(3) 0.3658(4)
Cl2_4 Cl 0.83428(11) 0.51451(12) 0.34571(15)
N5_4 N 0.6342(2) 0.4168(2) 0.2618(2)
N6_4 N 0.6496(2) 0.3823(2) 0.3137(2)
H18_4 H 0.6233 0.3540 0.3270
N7_4 N 0.7390(3) 0.4414(2) 0.3326(3)
H19_4 H 0.4469 0.4054 0.0077
Cl3_4 Cl 0.15429(15) 0.16572(11) 0.01451(12)
C41_4 C 0.4448(3) 0.8234(3) 0.0092(3)
H30_4 H 0.4281 0.7925 0.0359
C42_4 C 0.4715(3) 0.8756(3) 0.0349(3)
H31_4 H 0.4737 0.8800 0.0787
N11_4 N 0.5216(2) 0.9784(2) 0.0216(2)
H37_4 H 0.4054 0.9923 0.0531
Cl5_4 Cl 0.16572(11) 0.98549(12) 0.34571(15)
Ag1_6 Ag 0.5000 0.7500 0.78847(3)
C1_4 C 0.5044(3) 0.5776(3) 0.9963(3)
C2_4 C 0.5078(3) 0.5848(3) 0.9319(3)
H1_4 H 0.4923 0.5531 0.9054
C3_4 C 0.5342(3) 0.6392(3) 0.9061(3)
H2_4 H 0.5356 0.6445 0.8623
C4_4 C 0.5584(3) 0.6852(3) 0.9455(3)
C7_4 C 0.5882(3) 0.7422(3) 0.9214(3)
H5_4 H 0.6128 0.7659 0.9494
C8_4 C 0.6094(3) 0.8448(3) 0.7961(3)
C9_4 C 0.6527(3) 0.8921(3) 0.7792(3)
H6_4 H 0.6878 0.9015 0.8043
C10_4 C 0.6412(4) 0.9238(3) 0.7245(4)
H7_4 H 0.6698 0.9546 0.7110
C11_4 C 0.5900(4) 0.9118(3) 0.6895(4)
H8_4 H 0.5817 0.9345 0.6526
C12_4 C 0.5507(3) 0.8658(4) 0.7093(3)
Cl1_4 Cl 0.48549(12) 0.84571(15) 0.66572(11)
N2_4 N 0.5832(2) 0.7618(2) 0.8658(2)
N3_4 N 0.6177(2) 0.8137(2) 0.8504(2)
H9_4 H 0.6460 0.8270 0.8767
N4_4 N 0.5586(2) 0.8326(3) 0.7610(3)
C25_4 C 0.4224(3) 0.4963(3) 0.9956(3)
C26_4 C 0.4152(3) 0.4319(3) 0.9922(3)
C27_4 C 0.3608(3) 0.4061(3) 0.9658(3)
H20_4 H 0.3555 0.3623 0.9644
C28_4 C 0.3148(3) 0.4455(3) 0.9416(3)
C29_4 C 0.3234(3) 0.5092(3) 0.9448(3)
H21_4 H 0.2925 0.5359 0.9281
C30_4 C 0.3756(3) 0.5349(3) 0.9715(3)
H22_4 H 0.3800 0.5787 0.9737
C31_4 C 0.2578(3) 0.4214(3) 0.9118(3)
H23_4 H 0.2341 0.4494 0.8872
C32_4 C 0.1552(3) 0.2961(3) 0.8906(3)
C33_4 C 0.1079(3) 0.2792(3) 0.8473(3)
H24_4 H 0.0985 0.3043 0.8122
C34_4 C 0.0762(3) 0.2245(4) 0.8588(4)
H25_4 H 0.0454 0.2110 0.8302
C35_4 C 0.0882(3) 0.1895(4) 0.9100(4)
H26_4 H 0.0655 0.1526 0.9183
C36_4 C 0.1342(4) 0.2093(3) 0.9493(3)
N8_4 N 0.2382(2) 0.3658(2) 0.9168(2)
N9_4 N 0.1863(2) 0.3504(2) 0.8823(2)
H27_4 H 0.1730 0.3767 0.8540
N10_4 N 0.1674(3) 0.2610(3) 0.9414(2)
C37_4 C 0.4956(3) 0.9224(3) 0.9963(3)
C38_4 C 0.4922(3) 0.9152(3) 0.9319(3)
H28_4 H 0.5077 0.9469 0.9054
C39_4 C 0.4658(3) 0.8608(3) 0.9061(3)
H29_4 H 0.4644 0.8555 0.8623
C40_4 C 0.4416(3) 0.8148(3) 0.9455(3)
C43_4 C 0.4118(3) 0.7578(3) 0.9214(3)
H32_4 H 0.3872 0.7341 0.9494
C44_4 C 0.3906(3) 0.6552(3) 0.7961(3)
C45_4 C 0.3473(3) 0.6079(3) 0.7792(3)
H33_4 H 0.3122 0.5985 0.8043
C46_4 C 0.3588(4) 0.5762(3) 0.7245(4)
H34_4 H 0.3302 0.5454 0.7110
C47_4 C 0.4100(4) 0.5882(3) 0.6895(4)
H35_4 H 0.4183 0.5655 0.6526
C48_4 C 0.4493(3) 0.6342(4) 0.7093(3)
Cl4_4 Cl 0.51451(12) 0.65429(15) 0.66572(11)
N12_4 N 0.4168(2) 0.7382(2) 0.8658(2)
N13_4 N 0.3823(2) 0.6863(2) 0.8504(2)
H36_4 H 0.3540 0.6730 0.8767
N14_4 N 0.4414(2) 0.6674(3) 0.7610(3)
C65_4 C 0.6766(3) 0.9908(3) 0.9448(3)
H48_4 H 0.7075 0.9641 0.9281
C66_4 C 0.6244(3) 0.9651(3) 0.9715(3)
H49_4 H 0.6200 0.9213 0.9737
Cl7 Cl 0.31234(9) 0.5000 0.2500
O1 O 0.2742(2) 0.5240(2) 0.2006(2)
O2 O 0.3491(2) 0.5499(3) 0.2743(3)
O3 O 0.2742(2) 0.4760(2) 0.2994(2)
O4 O 0.3491(2) 0.4501(3) 0.2257(3)
Cl7_2 Cl 0.18766(9) 0.5000 0.7500
O1_2 O 0.2258(2) 0.4760(2) 0.7006(2)
O2_2 O 0.1509(2) 0.4501(3) 0.7743(3)
O3_2 O 0.2258(2) 0.5240(2) 0.7994(2)
O4_2 O 0.1509(2) 0.5499(3) 0.7257(3)
Cl7_3 Cl 0.68766(9) -0.0000 0.2500
O1_3 O 0.7258(2) 0.0240(2) 0.2994(2)
O2_3 O 0.6509(2) 0.0499(3) 0.2257(3)
Cl7_4 Cl 0.68766(9) 1.0000 0.2500
O3_3 O 0.7258(2) 0.9760(2) 0.2006(2)
O4_3 O 0.6509(2) 0.9501(3) 0.2743(3)
Cl7_5 Cl 0.81234(9) 0.0000 0.7500
O3_4 O 0.7742(2) 0.0240(2) 0.7006(2)
O4_4 O 0.8491(2) 0.0499(3) 0.7743(3)
Cl7_6 Cl 0.81234(9) 1.0000 0.7500
O1_4 O 0.7742(2) 0.9760(2) 0.7994(2)
O2_4 O 0.8491(2) 0.9501(3) 0.7257(3)
Cl7_7 Cl 0.2500 0.31234(9) 0.5000
O1_5 O 0.2006(2) 0.2742(2) 0.5240(2)
O2_5 O 0.2743(3) 0.3491(2) 0.5499(3)
O3_5 O 0.2994(2) 0.2742(2) 0.4760(2)
O4_5 O 0.2257(3) 0.3491(2) 0.4501(3)
Cl7_8 Cl 0.7500 0.18766(9) 0.5000
O1_6 O 0.7006(2) 0.2258(2) 0.4760(2)
O2_6 O 0.7743(3) 0.1509(2) 0.4501(3)
O3_6 O 0.7994(2) 0.2258(2) 0.5240(2)
O4_6 O 0.7257(3) 0.1509(2) 0.5499(3)
Cl7_9 Cl 0.2500 0.68766(9) -0.0000
O1_7 O 0.2994(2) 0.7258(2) 0.0240(2)
O2_7 O 0.2257(3) 0.6509(2) 0.0499(3)
Cl7_10 Cl 0.2500 0.68766(9) 1.0000
O3_7 O 0.2006(2) 0.7258(2) 0.9760(2)
O4_7 O 0.2743(3) 0.6509(2) 0.9501(3)
Cl7_11 Cl 0.7500 0.81234(9) 0.0000
O3_8 O 0.7006(2) 0.7742(2) 0.0240(2)
O4_8 O 0.7743(3) 0.8491(2) 0.0499(3)
Cl7_12 Cl 0.7500 0.81234(9) 1.0000
O1_8 O 0.7994(2) 0.7742(2) 0.9760(2)
O2_8 O 0.7257(3) 0.8491(2) 0.9501(3)
Cl7_13 Cl 0.5000 0.2500 0.31234(9)
O1_9 O 0.5240(2) 0.2006(2) 0.2742(2)
O2_9 O 0.5499(3) 0.2743(3) 0.3491(2)
O3_9 O 0.4760(2) 0.2994(2) 0.2742(2)
O4_9 O 0.4501(3) 0.2257(3) 0.3491(2)
Cl7_14 Cl 0.5000 0.7500 0.18766(9)
O1_10 O 0.4760(2) 0.7006(2) 0.2258(2)
O2_10 O 0.4501(3) 0.7743(3) 0.1509(2)
O3_10 O 0.5240(2) 0.7994(2) 0.2258(2)
O4_10 O 0.5499(3) 0.7257(3) 0.1509(2)
Cl7_15 Cl -0.0000 0.2500 0.68766(9)
O1_11 O 0.0240(2) 0.2994(2) 0.7258(2)
O2_11 O 0.0499(3) 0.2257(3) 0.6509(2)
Cl7_16 Cl 1.0000 0.2500 0.68766(9)
O3_11 O 0.9760(2) 0.2006(2) 0.7258(2)
O4_11 O 0.9501(3) 0.2743(3) 0.6509(2)
Cl7_17 Cl 0.0000 0.7500 0.81234(9)
O3_12 O 0.0240(2) 0.7006(2) 0.7742(2)
O4_12 O 0.0499(3) 0.7743(3) 0.8491(2)
Cl7_18 Cl 1.0000 0.7500 0.81234(9)
O1_12 O 0.9760(2) 0.7994(2) 0.7742(2)
O2_12 O 0.9501(3) 0.7257(3) 0.8491(2)
loop_
_geom_bond_atom_site_label_1
_geom_bond_atom_site_label_2
_geom_bond_site_symmetry_1
_geom_bond_site_symmetry_2
C14 C13 1_555 1_555
C15 C14 1_555 1_555
H11 C15 1_555 1_555
C16 C15 1_555 1_555
C19 C16 1_555 1_555
H14 C19 1_555 1_555
C20 C21 1_555 1_555
C21 H15 1_555 1_555
C22 C21 1_555 1_555
H16 C22 1_555 1_555
C23 C22 1_555 1_555
H17 C23 1_555 1_555
C24 C23 1_555 1_555
N5 C19 1_555 1_555
N6 C20 1_555 1_555
H18 N6 1_555 1_555
N7 C20 1_555 1_555
Ag2 N5 1_555 1_555
C24 N7 1_555 1_555
N5 N6 1_555 1_555
N7 Ag2 1_555 1_555
Ag1 N2 1_555 1_555
C1 C2 1_555 1_555
C3 C2 1_555 1_555
H2 C3 1_555 1_555
C4 C3 1_555 1_555
C7 C4 1_555 1_555
H5 C7 1_555 1_555
C8 C9 1_555 1_555
C9 H6 1_555 1_555
C10 C9 1_555 1_555
H7 C10 1_555 1_555
C11 C10 1_555 1_555
H8 C11 1_555 1_555
C12 C11 1_555 1_555
N2 C7 1_555 1_555
N3 C8 1_555 1_555
H9 N3 1_555 1_555
N4 Ag1 1_555 1_555
C62 C61 1_555 1_555
C63 C62 1_555 1_555
H47 C63 1_555 1_555
C64 C63 1_555 1_555
C65 C64 1_555 1_555
H48 C65 1_555 1_555
C66 C61 1_555 1_555
H49 C66 1_555 1_555
C67 C64 1_555 1_555
H50 C67 1_555 1_555
C68 C69 1_555 1_555
C69 H51 1_555 1_555
C70 C69 1_555 1_555
H52 C70 1_555 1_555
C71 C70 1_555 1_555
H53 C71 1_555 1_555
C72 C71 1_555 1_555
N18 C67 1_555 1_555
N19 C68 1_555 1_555
H54 N19 1_555 1_555
N20 C68 1_555 1_555
Ag5 N18 1_555 1_555
C8 N4 1_555 1_555
C12 N4 1_555 1_555
N2 N3 1_555 1_555
C65 C66 1_555 1_555
C72 N20 1_555 1_555
N18 N19 1_555 1_555
N20 Ag5 1_555 1_555
H3 C5 1_555 1_555
H4 C6 1_555 1_555
H39 C53 1_555 1_555
H40 C54 1_555 1_555
N21 Ag2_2 1_555 1_555
N23 Ag2_2 1_555 1_555
C5 C6 1_555 1_555
C53 C54 1_555 1_555
C26 C25 1_555 1_555
C27 C26 1_555 1_555
H20 C27 1_555 1_555
C28 C27 1_555 1_555
C31 C28 1_555 1_555
H23 C31 1_555 1_555
C32 C33 1_555 1_555
C33 H24 1_555 1_555
C34 C33 1_555 1_555
H25 C34 1_555 1_555
C35 C34 1_555 1_555
H26 C35 1_555 1_555
C36 C35 1_555 1_555
N8 C31 1_555 1_555
N9 C32 1_555 1_555
H27 N9 1_555 1_555
N10 C32 1_555 1_555
Ag3 N8 1_555 1_555
C36 N10 1_555 1_555
N8 N9 1_555 1_555
N10 Ag3 1_555 1_555
H12 C17 1_555 1_555
H13 C18 1_555 1_555
N22 Ag3_2 1_555 1_555
N24 Ag3_2 1_555 1_555
C17 C18 1_555 1_555
H21 C29 1_555 1_555
H22 C30 1_555 1_555
C37 C38 1_555 1_555
C39 C38 1_555 1_555
H29 C39 1_555 1_555
C40 C39 1_555 1_555
C43 C40 1_555 1_555
H32 C43 1_555 1_555
C44 C45 1_555 1_555
C45 H33 1_555 1_555
C46 C45 1_555 1_555
H34 C46 1_555 1_555
C47 C46 1_555 1_555
H35 C47 1_555 1_555
C48 C47 1_555 1_555
N12 Ag1_2 1_555 1_555
N13 C44 1_555 1_555
H36 N13 1_555 1_555
N14 Ag1_2 1_555 1_555
C29 C30 1_555 1_555
C43 N12 1_555 1_555
C44 N14 1_555 1_555
C48 N14 1_555 1_555
N12 N13 1_555 1_555
H30 C41 1_555 1_555
H31 C42 1_555 1_555
C50 C49 1_555 1_555
H37 C50 1_555 1_555
C51 C50 1_555 1_555
H38 C51 1_555 1_555
C52 C51 1_555 1_555
C55 C52 1_555 1_555
H41 C55 1_555 1_555
C56 C57 1_555 1_555
C57 H42 1_555 1_555
C58 C57 1_555 1_555
H43 C58 1_555 1_555
C59 C58 1_555 1_555
H44 C59 1_555 1_555
C60 C59 1_555 1_555
Cl5 C60 1_555 1_555
N15 C55 1_555 1_555
N16 C56 1_555 1_555
H45 N16 1_555 1_555
N17 C56 1_555 1_555
Ag4 N15 1_555 1_555
C41 C42 1_555 1_555
C60 N17 1_555 1_555
N15 N16 1_555 1_555
N17 Ag4 1_555 1_555
Ag1_3 N2_2 1_555 1_555
C1_2 C2_2 1_555 1_555
C2_2 H1_2 1_555 1_555
C3_2 C2_2 1_555 1_555
H2_2 C3_2 1_555 1_555
C4_2 C3_2 1_555 1_555
C5_2 C4_2 1_555 1_555
H3_2 C5_2 1_555 1_555
C6_2 C1_2 1_555 1_555
H4_2 C6_2 1_555 1_555
C7_2 C4_2 1_555 1_555
H5_2 C7_2 1_555 1_555
C8_2 C9_2 1_555 1_555
C9_2 H6_2 1_555 1_555
C10_2 C9_2 1_555 1_555
H7_2 C10_2 1_555 1_555
C11_2 C10_2 1_555 1_555
H8_2 C11_2 1_555 1_555
C12_2 C11_2 1_555 1_555
Cl1_2 C12_2 1_555 1_555
N1_2 C1_2 1_555 1_555
N2_2 C7_2 1_555 1_555
N3_2 C8_2 1_555 1_555
H9_2 N3_2 1_555 1_555
N4_2 Ag1_3 1_555 1_555
H21_2 C29_2 1_555 1_555
H22_2 C30_2 1_555 1_555
C37_2 C38_2 1_555 1_555
C38_2 H28_2 1_555 1_555
C39_2 C38_2 1_555 1_555
H29_2 C39_2 1_555 1_555
C40_2 C39_2 1_555 1_555
C41_2 C40_2 1_555 1_555
H30_2 C41_2 1_555 1_555
C42_2 C37_2 1_555 1_555
H31_2 C42_2 1_555 1_555
C43_2 C40_2 1_555 1_555
H32_2 C43_2 1_555 1_555
C44_2 C45_2 1_555 1_555
C45_2 H33_2 1_555 1_555
C46_2 C45_2 1_555 1_555
H34_2 C46_2 1_555 1_555
C47_2 C46_2 1_555 1_555
H35_2 C47_2 1_555 1_555
C48_2 C47_2 1_555 1_555
Cl4_2 C48_2 1_555 1_555
N11_2 C37_2 1_555 1_555
N12_2 Ag1_3 1_555 1_555
N13_2 C44_2 1_555 1_555
H36_2 N13_2 1_555 1_555
N14_2 Ag1_3 1_555 1_555
C49_2 N11_2 1_555 1_555
C50_2 C49_2 1_555 1_555
H37_2 C50_2 1_555 1_555
C51_2 C50_2 1_555 1_555
H38_2 C51_2 1_555 1_555
C52_2 C51_2 1_555 1_555
C53_2 C52_2 1_555 1_555
H39_2 C53_2 1_555 1_555
C54_2 C49_2 1_555 1_555
H40_2 C54_2 1_555 1_555
C55_2 C52_2 1_555 1_555
H41_2 C55_2 1_555 1_555
C56_2 C57_2 1_555 1_555
C57_2 H42_2 1_555 1_555
C58_2 C57_2 1_555 1_555
H43_2 C58_2 1_555 1_555
C59_2 C58_2 1_555 1_555
H44_2 C59_2 1_555 1_555
C60_2 C59_2 1_555 1_555
Cl5_2 C60_2 1_555 1_555
N15_2 C55_2 1_555 1_555
N16_2 C56_2 1_555 1_555
H45_2 N16_2 1_555 1_555
N17_2 C56_2 1_555 1_555
C61_2 N11_2 1_555 1_555
C62_2 C61_2 1_555 1_555
H46_2 C62_2 1_555 1_555
C63_2 C62_2 1_555 1_555
H47_2 C63_2 1_555 1_555
C64_2 C63_2 1_555 1_555
C65_2 C64_2 1_555 1_555
H48_2 C65_2 1_555 1_555
C66_2 C61_2 1_555 1_555
H49_2 C66_2 1_555 1_555
C67_2 C64_2 1_555 1_555
H50_2 C67_2 1_555 1_555
C68_2 C69_2 1_555 1_555
C69_2 H51_2 1_555 1_555
C70_2 C69_2 1_555 1_555
H52_2 C70_2 1_555 1_555
C71_2 C70_2 1_555 1_555
H53_2 C71_2 1_555 1_555
C72_2 C71_2 1_555 1_555
Cl6_2 C72_2 1_555 1_555
N18_2 C67_2 1_555 1_555
N19_2 C68_2 1_555 1_555
H54_2 N19_2 1_555 1_555
N20_2 C68_2 1_555 1_555
Ag4_2 N15_2 1_555 1_555
Ag5_3 N18_2 1_555 1_555
N21_2 Ag2_3 1_555 1_555
N23_2 Ag2_3 1_555 1_555
C5_2 C6_2 1_555 1_555
C8_2 N4_2 1_555 1_555
C12_2 N4_2 1_555 1_555
N2_2 N3_2 1_555 1_555
C29_2 C30_2 1_555 1_555
C41_2 C42_2 1_555 1_555
C43_2 N12_2 1_555 1_555
C44_2 N14_2 1_555 1_555
C48_2 N14_2 1_555 1_555
N12_2 N13_2 1_555 1_555
C53_2 C54_2 1_555 1_555
C60_2 N17_2 1_555 1_555
N15_2 N16_2 1_555 1_555
N17_2 Ag4_2 1_555 1_555
C65_2 C66_2 1_555 1_555
C72_2 N20_2 1_555 1_555
N18_2 N19_2 1_555 1_555
N20_2 Ag5_3 1_555 1_555
C14_2 C13_2 1_555 1_555
C15_2 C14_2 1_555 1_555
H11_2 C15_2 1_555 1_555
C16_2 C15_2 1_555 1_555
C17_2 C16_2 1_555 1_555
H12_2 C17_2 1_555 1_555
C18_2 C13_2 1_555 1_555
H13_2 C18_2 1_555 1_555
C19_2 C16_2 1_555 1_555
H14_2 C19_2 1_555 1_555
C20_2 C21_2 1_555 1_555
C21_2 H15_2 1_555 1_555
C22_2 C21_2 1_555 1_555
H16_2 C22_2 1_555 1_555
C23_2 C22_2 1_555 1_555
H17_2 C23_2 1_555 1_555
C24_2 C23_2 1_555 1_555
N5_2 C19_2 1_555 1_555
N6_2 C20_2 1_555 1_555
H18_2 N6_2 1_555 1_555
N7_2 C20_2 1_555 1_555
C26_2 C25_2 1_555 1_555
H19_2 C26_2 1_555 1_555
C27_2 C26_2 1_555 1_555
H20_2 C27_2 1_555 1_555
C28_2 C27_2 1_555 1_555
C31_2 C28_2 1_555 1_555
H23_2 C31_2 1_555 1_555
C32_2 C33_2 1_555 1_555
C33_2 H24_2 1_555 1_555
C34_2 C33_2 1_555 1_555
H25_2 C34_2 1_555 1_555
C35_2 C34_2 1_555 1_555
H26_2 C35_2 1_555 1_555
C36_2 C35_2 1_555 1_555
Cl3_2 C36_2 1_555 1_555
N8_2 C31_2 1_555 1_555
N9_2 C32_2 1_555 1_555
H27_2 N9_2 1_555 1_555
N10_2 C32_2 1_555 1_555
Ag2_4 N5_2 1_555 1_555
Ag3_3 N8_2 1_555 1_555
N22_2 Ag3_3 1_555 1_555
N24_2 Ag3_3 1_555 1_555
C17_2 C18_2 1_555 1_555
C24_2 N7_2 1_555 1_555
N5_2 N6_2 1_555 1_555
N7_2 Ag2_4 1_555 1_555
C36_2 N10_2 1_555 1_555
N8_2 N9_2 1_555 1_555
N10_2 Ag3_3 1_555 1_555
H12_3 C17_3 1_555 1_555
H13_3 C18_3 1_555 1_555
C25_3 N1_3 1_555 1_555
C26_3 C25_3 1_555 1_555
H19_3 C26_3 1_555 1_555
C27_3 C26_3 1_555 1_555
H20_3 C27_3 1_555 1_555
C28_3 C27_3 1_555 1_555
C29_3 C28_3 1_555 1_555
H21_3 C29_3 1_555 1_555
C30_3 C25_3 1_555 1_555
H22_3 C30_3 1_555 1_555
C31_3 C28_3 1_555 1_555
H23_3 C31_3 1_555 1_555
C32_3 C33_3 1_555 1_555
C33_3 H24_3 1_555 1_555
C34_3 C33_3 1_555 1_555
H25_3 C34_3 1_555 1_555
C35_3 C34_3 1_555 1_555
H26_3 C35_3 1_555 1_555
C36_3 C35_3 1_555 1_555
Cl3_3 C36_3 1_555 1_555
N8_3 C31_3 1_555 1_555
N9_3 C32_3 1_555 1_555
H27_3 N9_3 1_555 1_555
N10_3 C32_3 1_555 1_555
Ag5_3 N8_3 1_555 1_555
C37_3 C38_3 1_555 1_555
C39_3 C38_3 1_555 1_555
H29_3 C39_3 1_555 1_555
C40_3 C39_3 1_555 1_555
C41_3 C40_3 1_555 1_555
H30_3 C41_3 1_555 1_555
C42_3 C37_3 1_555 1_555
H31_3 C42_3 1_555 1_555
C43_3 C40_3 1_555 1_555
H32_3 C43_3 1_555 1_555
C44_3 C45_3 1_555 1_555
C45_3 H33_3 1_555 1_555
C46_3 C45_3 1_555 1_555
H34_3 C46_3 1_555 1_555
C47_3 C46_3 1_555 1_555
H35_3 C47_3 1_555 1_555
C48_3 C47_3 1_555 1_555
N12_3 Ag1_4 1_555 1_555
N13_3 C44_3 1_555 1_555
H36_3 N13_3 1_555 1_555
N14_3 Ag1_4 1_555 1_555
C17_3 C18_3 1_555 1_555
C29_3 C30_3 1_555 1_555
C36_3 N10_3 1_555 1_555
N8_3 N9_3 1_555 1_555
N10_3 Ag5_3 1_555 1_555
C41_3 C42_3 1_555 1_555
C43_3 N12_3 1_555 1_555
C44_3 N14_3 1_555 1_555
C48_3 N14_3 1_555 1_555
N12_3 N13_3 1_555 1_555
C50_3 C49_3 1_555 1_555
C51_3 C50_3 1_555 1_555
H38_3 C51_3 1_555 1_555
C52_3 C51_3 1_555 1_555
C55_3 C52_3 1_555 1_555
H41_3 C55_3 1_555 1_555
C56_3 C57_3 1_555 1_555
C57_3 H42_3 1_555 1_555
C58_3 C57_3 1_555 1_555
H43_3 C58_3 1_555 1_555
C59_3 C58_3 1_555 1_555
H44_3 C59_3 1_555 1_555
C60_3 C59_3 1_555 1_555
N21 C55_3 1_555 1_555
N16_3 C56_3 1_555 1_555
H45_3 N16_3 1_555 1_555
N23 C56_3 1_555 1_555
C60_3 N23 1_555 1_555
N21 N16_3 1_555 1_555
Ag1_5 N2_3 1_555 1_555
C1_3 C2_3 1_555 1_555
C3_3 C2_3 1_555 1_555
H2_3 C3_3 1_555 1_555
C4_3 C3_3 1_555 1_555
C5_3 C4_3 1_555 1_555
H3_3 C5_3 1_555 1_555
C6_3 C1_3 1_555 1_555
H4_3 C6_3 1_555 1_555
C7_3 C4_3 1_555 1_555
H5_3 C7_3 1_555 1_555
C8_3 C9_3 1_555 1_555
C9_3 H6_3 1_555 1_555
C10_3 C9_3 1_555 1_555
H7_3 C10_3 1_555 1_555
C11_3 C10_3 1_555 1_555
H8_3 C11_3 1_555 1_555
C12_3 C11_3 1_555 1_555
N2_3 C7_3 1_555 1_555
N3_3 C8_3 1_555 1_555
H9_3 N3_3 1_555 1_555
N4_3 Ag1_5 1_555 1_555
C14_3 C13_3 1_555 1_555
H10_3 C14_3 1_555 1_555
C15_3 C14_3 1_555 1_555
H11_3 C15_3 1_555 1_555
C16_3 C15_3 1_555 1_555
C19_3 C16_3 1_555 1_555
H14_3 C19_3 1_555 1_555
C20_3 C21_3 1_555 1_555
C21_3 H15_3 1_555 1_555
C22_3 C21_3 1_555 1_555
H16_3 C22_3 1_555 1_555
C23_3 C22_3 1_555 1_555
H17_3 C23_3 1_555 1_555
C24_3 C23_3 1_555 1_555
Cl2_3 C24_3 1_555 1_555
N5_3 C19_3 1_555 1_555
N6_3 C20_3 1_555 1_555
H18_3 N6_3 1_555 1_555
N7_3 C20_3 1_555 1_555
Ag4 N5_3 1_555 1_555
H48_3 C65_3 1_555 1_555
H49_3 C66_3 1_555 1_555
C5_3 C6_3 1_555 1_555
C8_3 N4_3 1_555 1_555
C12_3 N4_3 1_555 1_555
N2_3 N3_3 1_555 1_555
C24_3 N7_3 1_555 1_555
N5_3 N6_3 1_555 1_555
N7_3 Ag4 1_555 1_555
C65_3 C66_3 1_555 1_555
H39_3 C53_3 1_555 1_555
H40_3 C54_3 1_555 1_555
C62_3 C61_3 1_555 1_555
H46_3 C62_3 1_555 1_555
C63_3 C62_3 1_555 1_555
H47_3 C63_3 1_555 1_555
C64_3 C63_3 1_555 1_555
C67_3 C64_3 1_555 1_555
H50_3 C67_3 1_555 1_555
C68_3 C69_3 1_555 1_555
C69_3 H51_3 1_555 1_555
C70_3 C69_3 1_555 1_555
H52_3 C70_3 1_555 1_555
C71_3 C70_3 1_555 1_555
H53_3 C71_3 1_555 1_555
C72_3 C71_3 1_555 1_555
Cl6_3 C72_3 1_555 1_555
N22_2 C67_3 1_555 1_555
N19_3 C68_3 1_555 1_555
H54_3 N19_3 1_555 1_555
N24_2 C68_3 1_555 1_555
C53_3 C54_3 1_555 1_555
C72_3 N24_2 1_555 1_555
N22_2 N19_3 1_555 1_555
C50_4 C49_4 1_555 1_555
C51_4 C50_4 1_555 1_555
H38_4 C51_4 1_555 1_555
C52_4 C51_4 1_555 1_555
C53_4 C52_4 1_555 1_555
H39_4 C53_4 1_555 1_555
C54_4 C49_4 1_555 1_555
H40_4 C54_4 1_555 1_555
C55_4 C52_4 1_555 1_555
H41_4 C55_4 1_555 1_555
C56_4 C57_4 1_555 1_555
C57_4 H42_4 1_555 1_555
C58_4 C57_4 1_555 1_555
H43_4 C58_4 1_555 1_555
C59_4 C58_4 1_555 1_555
H44_4 C59_4 1_555 1_555
C60_4 C59_4 1_555 1_555
N21_2 C55_4 1_555 1_555
N16_4 C56_4 1_555 1_555
H45_4 N16_4 1_555 1_555
N23_2 C56_4 1_555 1_555
C53_4 C54_4 1_555 1_555
C60_4 N23_2 1_555 1_555
N21_2 N16_4 1_555 1_555
C62_4 C61_4 1_555 1_555
C63_4 C62_4 1_555 1_555
H47_4 C63_4 1_555 1_555
C64_4 C63_4 1_555 1_555
C67_4 C64_4 1_555 1_555
H50_4 C67_4 1_555 1_555
C68_4 C69_4 1_555 1_555
C69_4 H51_4 1_555 1_555
C70_4 C69_4 1_555 1_555
H52_4 C70_4 1_555 1_555
C71_4 C70_4 1_555 1_555
H53_4 C71_4 1_555 1_555
C72_4 C71_4 1_555 1_555
N22 C67_4 1_555 1_555
N19_4 C68_4 1_555 1_555
H54_4 N19_4 1_555 1_555
N24 C68_4 1_555 1_555
C72_4 N24 1_555 1_555
N22 N19_4 1_555 1_555
H3_4 C5_4 1_555 1_555
H4_4 C6_4 1_555 1_555
C13_4 N1_4 1_555 1_555
C14_4 C13_4 1_555 1_555
H10_4 C14_4 1_555 1_555
C15_4 C14_4 1_555 1_555
H11_4 C15_4 1_555 1_555
C16_4 C15_4 1_555 1_555
C17_4 C16_4 1_555 1_555
H12_4 C17_4 1_555 1_555
C18_4 C13_4 1_555 1_555
H13_4 C18_4 1_555 1_555
C19_4 C16_4 1_555 1_555
H14_4 C19_4 1_555 1_555
C20_4 C21_4 1_555 1_555
C21_4 H15_4 1_555 1_555
C22_4 C21_4 1_555 1_555
H16_4 C22_4 1_555 1_555
C23_4 C22_4 1_555 1_555
H17_4 C23_4 1_555 1_555
C24_4 C23_4 1_555 1_555
Cl2_4 C24_4 1_555 1_555
N5_4 C19_4 1_555 1_555
N6_4 C20_4 1_555 1_555
H18_4 N6_4 1_555 1_555
N7_4 C20_4 1_555 1_555
Ag4_2 N5_4 1_555 1_555
H30_4 C41_4 1_555 1_555
H31_4 C42_4 1_555 1_555
C5_4 C6_4 1_555 1_555
C17_4 C18_4 1_555 1_555
C24_4 N7_4 1_555 1_555
N5_4 N6_4 1_555 1_555
N7_4 Ag4_2 1_555 1_555
C41_4 C42_4 1_555 1_555
Ag1_6 N2_4 1_555 1_555
C1_4 C2_4 1_555 1_555
C2_4 H1_4 1_555 1_555
C3_4 C2_4 1_555 1_555
H2_4 C3_4 1_555 1_555
C4_4 C3_4 1_555 1_555
C7_4 C4_4 1_555 1_555
H5_4 C7_4 1_555 1_555
C8_4 C9_4 1_555 1_555
C9_4 H6_4 1_555 1_555
C10_4 C9_4 1_555 1_555
H7_4 C10_4 1_555 1_555
C11_4 C10_4 1_555 1_555
H8_4 C11_4 1_555 1_555
C12_4 C11_4 1_555 1_555
Cl1_4 C12_4 1_555 1_555
N2_4 C7_4 1_555 1_555
N3_4 C8_4 1_555 1_555
H9_4 N3_4 1_555 1_555
N4_4 Ag1_6 1_555 1_555
C26_4 C25_4 1_555 1_555
C27_4 C26_4 1_555 1_555
H20_4 C27_4 1_555 1_555
C28_4 C27_4 1_555 1_555
C29_4 C28_4 1_555 1_555
H21_4 C29_4 1_555 1_555
C30_4 C25_4 1_555 1_555
H22_4 C30_4 1_555 1_555
C31_4 C28_4 1_555 1_555
H23_4 C31_4 1_555 1_555
C32_4 C33_4 1_555 1_555
C33_4 H24_4 1_555 1_555
C34_4 C33_4 1_555 1_555
H25_4 C34_4 1_555 1_555
C35_4 C34_4 1_555 1_555
H26_4 C35_4 1_555 1_555
C36_4 C35_4 1_555 1_555
N8_4 C31_4 1_555 1_555
N9_4 C32_4 1_555 1_555
H27_4 N9_4 1_555 1_555
N10_4 C32_4 1_555 1_555
Ag5_2 N8_4 1_555 1_555
C37_4 C38_4 1_555 1_555
C38_4 H28_4 1_555 1_555
C39_4 C38_4 1_555 1_555
H29_4 C39_4 1_555 1_555
C40_4 C39_4 1_555 1_555
C43_4 C40_4 1_555 1_555
H32_4 C43_4 1_555 1_555
C44_4 C45_4 1_555 1_555
C45_4 H33_4 1_555 1_555
C46_4 C45_4 1_555 1_555
H34_4 C46_4 1_555 1_555
C47_4 C46_4 1_555 1_555
H35_4 C47_4 1_555 1_555
C48_4 C47_4 1_555 1_555
Cl4_4 C48_4 1_555 1_555
N12_4 Ag1_6 1_555 1_555
N13_4 C44_4 1_555 1_555
H36_4 N13_4 1_555 1_555
N14_4 Ag1_6 1_555 1_555
H48_4 C65_4 1_555 1_555
H49_4 C66_4 1_555 1_555
C8_4 N4_4 1_555 1_555
C12_4 N4_4 1_555 1_555
N2_4 N3_4 1_555 1_555
C29_4 C30_4 1_555 1_555
C36_4 N10_4 1_555 1_555
N8_4 N9_4 1_555 1_555
N10_4 Ag5_2 1_555 1_555
C43_4 N12_4 1_555 1_555
C44_4 N14_4 1_555 1_555
C48_4 N14_4 1_555 1_555
N12_4 N13_4 1_555 1_555
C65_4 C66_4 1_555 1_555
Cl7 O1 1_555 1_555
O2 Cl7 1_555 1_555
O3 Cl7 1_555 1_555
O4 Cl7 1_555 1_555
Cl7_2 O1_2 1_555 1_555
O2_2 Cl7_2 1_555 1_555
O3_2 Cl7_2 1_555 1_555
O4_2 Cl7_2 1_555 1_555
Cl7_3 O1_3 1_555 1_555
O2_3 Cl7_3 1_555 1_555
O3_3 Cl7_4 1_555 1_555
O4_3 Cl7_4 1_555 1_555
O3_4 Cl7_5 1_555 1_555
O4_4 Cl7_5 1_555 1_555
Cl7_6 O1_4 1_555 1_555
O2_4 Cl7_6 1_555 1_555
Cl7_7 O1_5 1_555 1_555
O2_5 Cl7_7 1_555 1_555
O3_5 Cl7_7 1_555 1_555
O4_5 Cl7_7 1_555 1_555
Cl7_8 O1_6 1_555 1_555
O2_6 Cl7_8 1_555 1_555
O3_6 Cl7_8 1_555 1_555
O4_6 Cl7_8 1_555 1_555
Cl7_9 O1_7 1_555 1_555
O2_7 Cl7_9 1_555 1_555
O3_7 Cl7_10 1_555 1_555
O4_7 Cl7_10 1_555 1_555
O3_8 Cl7_11 1_555 1_555
O4_8 Cl7_11 1_555 1_555
Cl7_12 O1_8 1_555 1_555
O2_8 Cl7_12 1_555 1_555
Cl7_13 O1_9 1_555 1_555
O2_9 Cl7_13 1_555 1_555
O3_9 Cl7_13 1_555 1_555
O4_9 Cl7_13 1_555 1_555
Cl7_14 O1_10 1_555 1_555
O2_10 Cl7_14 1_555 1_555
O3_10 Cl7_14 1_555 1_555
O4_10 Cl7_14 1_555 1_555
Cl7_15 O1_11 1_555 1_555
O2_11 Cl7_15 1_555 1_555
O3_11 Cl7_16 1_555 1_555
O4_11 Cl7_16 1_555 1_555
O3_12 Cl7_17 1_555 1_555
O4_12 Cl7_17 1_555 1_555
Cl7_18 O1_12 1_555 1_555
O2_12 Cl7_18 1_555 1_555

#END
