
###############################################################################
#
# This file contains modified crystal structure data generated from the
# MOF subset of the Cambridge Structural Database (CSD) v543 
# hosted by the Cambridge Crystallographic Data Centre (CCDC).
#
# This work is licensed under the Creative Commons
# Attribution-NonCommercial-ShareAlike 4.0 International License.
# To view a copy of this license, visit
# http://creativecommons.org/licenses/by-nc-sa/4.0/
# or send a letter to
# Creative Commons, PO Box 1866, Mountain View, CA 94042, USA.
#
# CIF created using the CSD Python API on 29 September 2022
# The structure has been converted into the P1 space group
# The structure has a 3D framework
# The original CSD entry KENSEE03 is in the cubic crystal system
# The original CSD entry KENSEE03 is in a Sohncke space group
# The framework has been calculated to contain at least 10.0% void space
# The void calculation uses a probe of radius 1.32A, grid spacing 0.4
# The framework is charged, counterions have been retained in the structure
#
###############################################################################

data_KENSEE03
_chemical_formula_moiety         '(C288 H216 Ag14 Cl42 N80 O48 2+)n'
_symmetry_cell_setting           triclinic
_symmetry_space_group_name_H-M   'P 1'
_symmetry_Int_Tables_number      1
_space_group_name_Hall           'P 1'
loop_
_symmetry_equiv_pos_site_id
_symmetry_equiv_pos_as_xyz
1 x,y,z
_cell_length_a                   21.3288(4)
_cell_length_b                   21.3288(4)
_cell_length_c                   21.3288(4)
_cell_angle_alpha                90
_cell_angle_beta                 90
_cell_angle_gamma                90
_cell_volume                     9702.85
loop_
_atom_site_label
_atom_site_type_symbol
_atom_site_fract_x
_atom_site_fract_y
_atom_site_fract_z
C70 C 0.0253(3) 0.6742(3) 0.6085(3)
H52 H 0.0383 0.7052 0.5800
C71 C 0.0606(3) 0.6615(3) 0.6600(3)
H53 H 0.0977 0.6838 0.6684
C72 C 0.0402(3) 0.6154(3) 0.6990(3)
Cl6 Cl 0.08427(10) 0.59562(13) 0.76444(10)
Ag1 Ag 0.2500 0.46136(3) 0.0000
H5 H 0.1363 0.3012 0.0158
C8 C 0.1404(2) 0.4539(2) 0.0954(2)
C9 C 0.0978(3) 0.4710(3) 0.1421(3)
H6 H 0.0629 0.4458 0.1512
C10 C 0.1085(3) 0.5253(3) 0.1742(3)
H7 H 0.0800 0.5383 0.2052
C11 C 0.1600(3) 0.5606(3) 0.1615(3)
H8 H 0.1684 0.5977 0.1838
C12 C 0.1990(3) 0.5402(3) 0.1154(3)
Cl1 Cl 0.26444(10) 0.58427(10) 0.09562(13)
N2 N 0.16679(18) 0.38441(19) 0.0114(2)
N3 N 0.1320(2) 0.3992(2) 0.0635(2)
H9 H 0.1038 0.3728 0.0765
N4 N 0.1914(2) 0.4890(2) 0.0822(2)
H32 H 0.8637 0.1988 0.0158
C44 C 0.8596(2) 0.0461(2) 0.0954(2)
C45 C 0.9022(3) 0.0290(3) 0.1421(3)
H33 H 0.9371 0.0542 0.1512
N12 N 0.83321(18) 0.11559(19) 0.0114(2)
N13 N 0.8680(2) 0.1008(2) 0.0635(2)
H36 H 0.8962 0.1272 0.0765
N14 N 0.8086(2) 0.0110(2) 0.0822(2)
Ag4 Ag 0.7500 0.03864(3) 0.0000
Ag1_2 Ag 0.2500 0.46136(3) 1.0000
C1 C 0.2456(2) 0.2537(2) 0.8275(2)
C2 C 0.2422(2) 0.3184(2) 0.8353(2)
H1 H 0.2576 0.3451 0.8039
C3 C 0.2160(2) 0.3436(2) 0.8893(2)
H2 H 0.2146 0.3873 0.8945
C4 C 0.1918(2) 0.3049(2) 0.9356(2)
C5 C 0.1951(2) 0.2409(2) 0.9267(2)
H3 H 0.1785 0.2143 0.9576
C6 C 0.2216(2) 0.2150(2) 0.8745(2)
H4 H 0.2236 0.1712 0.8702
C7 C 0.1613(2) 0.3289(2) 0.9923(2)
N1 N 0.2719(2) 0.2281(2) 0.7719(2)
C13 C 0.3275(2) 0.2544(2) 0.7463(2)
C14 C 0.3353(2) 0.2578(2) 0.6816(2)
H10 H 0.3039 0.2424 0.6549
C15 C 0.3893(2) 0.2840(2) 0.6564(2)
H11 H 0.3945 0.2854 0.6127
C16 C 0.4356(2) 0.3082(2) 0.6951(2)
C17 C 0.4267(2) 0.3049(2) 0.7591(2)
H12 H 0.4576 0.3215 0.7857
C18 C 0.3745(2) 0.2784(2) 0.7850(2)
H13 H 0.3702 0.2764 0.8288
C19 C 0.4923(2) 0.3387(2) 0.6711(2)
H14 H 0.5158 0.3637 0.6988
C20 C 0.5954(2) 0.3596(2) 0.5461(2)
C21 C 0.6421(3) 0.4022(3) 0.5290(3)
H15 H 0.6512 0.4371 0.5542
C22 C 0.6742(3) 0.3915(3) 0.4747(3)
H16 H 0.7052 0.4200 0.4617
C23 C 0.6615(3) 0.3400(3) 0.4394(3)
H17 H 0.6838 0.3316 0.4023
C24 C 0.6154(3) 0.3010(3) 0.4598(3)
Cl2 Cl 0.59562(13) 0.23556(10) 0.41573(10)
N5 N 0.5114(2) 0.33321(18) 0.61559(19)
N6 N 0.5635(2) 0.3680(2) 0.6008(2)
H18 H 0.5765 0.3962 0.6272
N7 N 0.5822(2) 0.3086(2) 0.5110(2)
C25 C 0.2463(2) 0.1725(2) 0.7456(2)
C26 C 0.1816(2) 0.1647(2) 0.7422(2)
H19 H 0.1549 0.1961 0.7576
C27 C 0.1564(2) 0.1107(2) 0.7160(2)
H20 H 0.1127 0.1055 0.7146
C28 C 0.1951(2) 0.0644(2) 0.6918(2)
C29 C 0.2591(2) 0.0733(2) 0.6951(2)
H21 H 0.2857 0.0424 0.6785
C30 C 0.2850(2) 0.1255(2) 0.7216(2)
H22 H 0.3288 0.1298 0.7236
C31 C 0.1711(2) 0.0077(2) 0.6613(2)
Ag2 Ag 0.5000 0.2500 0.53864(3)
Ag3 Ag 0.03864(3) 0.0000 0.7500
C37 C 0.7544(2) 0.2463(2) 0.8275(2)
C38 C 0.7578(2) 0.1816(2) 0.8353(2)
H28 H 0.7424 0.1549 0.8039
C39 C 0.7840(2) 0.1564(2) 0.8893(2)
H29 H 0.7854 0.1127 0.8945
C40 C 0.8082(2) 0.1951(2) 0.9356(2)
C41 C 0.8049(2) 0.2591(2) 0.9267(2)
H30 H 0.8215 0.2857 0.9576
C42 C 0.7784(2) 0.2850(2) 0.8745(2)
H31 H 0.7764 0.3288 0.8702
C43 C 0.8387(2) 0.1711(2) 0.9923(2)
N11 N 0.7281(2) 0.2719(2) 0.7719(2)
C49 C 0.6725(2) 0.2456(2) 0.7463(2)
C50 C 0.6647(2) 0.2422(2) 0.6816(2)
H37 H 0.6961 0.2576 0.6549
C51 C 0.6107(2) 0.2160(2) 0.6564(2)
H38 H 0.6055 0.2146 0.6127
C52 C 0.5644(2) 0.1918(2) 0.6951(2)
C53 C 0.5733(2) 0.1951(2) 0.7591(2)
H39 H 0.5424 0.1785 0.7857
C54 C 0.6255(2) 0.2216(2) 0.7850(2)
H40 H 0.6298 0.2236 0.8288
C55 C 0.5077(2) 0.1613(2) 0.6711(2)
H41 H 0.4842 0.1363 0.6988
C56 C 0.4046(2) 0.1404(2) 0.5461(2)
C57 C 0.3579(3) 0.0978(3) 0.5290(3)
H42 H 0.3488 0.0629 0.5542
C58 C 0.3258(3) 0.1085(3) 0.4747(3)
H43 H 0.2948 0.0800 0.4617
C59 C 0.3385(3) 0.1600(3) 0.4394(3)
H44 H 0.3162 0.1684 0.4023
C60 C 0.3846(3) 0.1990(3) 0.4598(3)
Cl5 Cl 0.40438(13) 0.26444(10) 0.41573(10)
N15 N 0.4886(2) 0.16679(18) 0.61559(19)
N16 N 0.4365(2) 0.1320(2) 0.6008(2)
H45 H 0.4235 0.1038 0.6272
N17 N 0.4178(2) 0.1914(2) 0.5110(2)
C61 C 0.7537(2) 0.3275(2) 0.7456(2)
C62 C 0.8184(2) 0.3353(2) 0.7422(2)
H46 H 0.8451 0.3039 0.7576
C63 C 0.8436(2) 0.3893(2) 0.7160(2)
H47 H 0.8873 0.3945 0.7146
C64 C 0.8049(2) 0.4356(2) 0.6918(2)
C65 C 0.7409(2) 0.4267(2) 0.6951(2)
H48 H 0.7143 0.4576 0.6785
C66 C 0.7150(2) 0.3745(2) 0.7216(2)
H49 H 0.6712 0.3702 0.7236
C67 C 0.8289(2) 0.4923(2) 0.6613(2)
H50 H 0.8012 0.5158 0.6363
C68 C 0.9539(2) 0.5954(2) 0.6404(2)
C69 C 0.9710(3) 0.6421(3) 0.5978(3)
H51 H 0.9458 0.6512 0.5629
N18 N 0.88441(19) 0.5114(2) 0.66679(18)
N19 N 0.8992(2) 0.5635(2) 0.6320(2)
H54 H 0.8728 0.5765 0.6038
N20 N 0.9890(2) 0.5822(2) 0.6914(2)
Ag4_2 Ag 0.7500 0.03864(3) 1.0000
Ag5 Ag 0.96136(3) 0.5000 0.7500
N21 N 0.33321(18) 0.38441(19) 0.9886(2)
N22 N 0.11559(19) 0.0114(2) 0.83321(18)
N23 N 0.3086(2) 0.4890(2) 0.9178(2)
N24 N 0.0110(2) 0.0822(2) 0.8086(2)
H23 H 0.1988 0.9842 0.6363
C32 C 0.0461(2) 0.9046(2) 0.6404(2)
C33 C 0.0290(3) 0.8579(3) 0.5978(3)
H24 H 0.0542 0.8488 0.5629
N8 N 0.11559(19) 0.9886(2) 0.66679(18)
N9 N 0.1008(2) 0.9365(2) 0.6320(2)
H27 H 0.1272 0.9235 0.6038
N10 N 0.0110(2) 0.9178(2) 0.6914(2)
Ag3_2 Ag 0.03864(3) 1.0000 0.7500
H23_2 H 0.3012 0.0158 0.1363
C32_2 C 0.4539(2) 0.0954(2) 0.1404(2)
C33_2 C 0.4710(3) 0.1421(3) 0.0978(3)
H24_2 H 0.4458 0.1512 0.0629
C34 C 0.5253(3) 0.1742(3) 0.1085(3)
H25 H 0.5383 0.2052 0.0800
C35 C 0.5606(3) 0.1615(3) 0.1600(3)
H26 H 0.5977 0.1838 0.1684
C36 C 0.5402(3) 0.1154(3) 0.1990(3)
Cl3 Cl 0.58427(10) 0.09562(13) 0.26444(10)
N8_2 N 0.38441(19) 0.0114(2) 0.16679(18)
N9_2 N 0.3992(2) 0.0635(2) 0.1320(2)
H27_2 H 0.3728 0.0765 0.1038
N10_2 N 0.4890(2) 0.0822(2) 0.1914(2)
Ag3_3 Ag 0.46136(3) 0.0000 0.2500
Ag1_3 Ag 0.2500 0.53864(3) 0.5000
C1_2 C 0.2544(2) 0.7463(2) 0.3275(2)
C2_2 C 0.2578(2) 0.6816(2) 0.3353(2)
H1_2 H 0.2424 0.6549 0.3039
C3_2 C 0.2840(2) 0.6564(2) 0.3893(2)
H2_2 H 0.2854 0.6127 0.3945
C4_2 C 0.3082(2) 0.6951(2) 0.4356(2)
C5_2 C 0.3049(2) 0.7591(2) 0.4267(2)
H3_2 H 0.3215 0.7857 0.4576
C6_2 C 0.2784(2) 0.7850(2) 0.3745(2)
H4_2 H 0.2764 0.8288 0.3702
C7_2 C 0.3387(2) 0.6711(2) 0.4923(2)
H5_2 H 0.3637 0.6988 0.5158
C8_2 C 0.3596(2) 0.5461(2) 0.5954(2)
C9_2 C 0.4022(3) 0.5290(3) 0.6421(3)
H6_2 H 0.4371 0.5542 0.6512
C10_2 C 0.3915(3) 0.4747(3) 0.6742(3)
H7_2 H 0.4200 0.4617 0.7052
C11_2 C 0.3400(3) 0.4394(3) 0.6615(3)
H8_2 H 0.3316 0.4023 0.6838
C12_2 C 0.3010(3) 0.4598(3) 0.6154(3)
Cl1_2 Cl 0.23556(10) 0.41573(10) 0.59562(13)
N1_2 N 0.2281(2) 0.7719(2) 0.2719(2)
N2_2 N 0.33321(18) 0.61559(19) 0.5114(2)
N3_2 N 0.3680(2) 0.6008(2) 0.5635(2)
H9_2 H 0.3962 0.6272 0.5765
N4_2 N 0.3086(2) 0.5110(2) 0.5822(2)
C13_2 C 0.1725(2) 0.7456(2) 0.2463(2)
C14_2 C 0.1647(2) 0.7422(2) 0.1816(2)
H10_2 H 0.1961 0.7576 0.1549
C15_2 C 0.1107(2) 0.7160(2) 0.1564(2)
H11_2 H 0.1055 0.7146 0.1127
C16_2 C 0.0644(2) 0.6918(2) 0.1951(2)
C17_2 C 0.0733(2) 0.6951(2) 0.2591(2)
H12_2 H 0.0424 0.6785 0.2857
C18_2 C 0.1255(2) 0.7216(2) 0.2850(2)
H13_2 H 0.1298 0.7236 0.3288
C19_2 C 0.0077(2) 0.6613(2) 0.1711(2)
C25_2 C 0.2537(2) 0.8275(2) 0.2456(2)
C26_2 C 0.3184(2) 0.8353(2) 0.2422(2)
H19_2 H 0.3451 0.8039 0.2576
C27_2 C 0.3436(2) 0.8893(2) 0.2160(2)
H20_2 H 0.3873 0.8945 0.2146
C28_2 C 0.3049(2) 0.9356(2) 0.1918(2)
C29_2 C 0.2409(2) 0.9267(2) 0.1951(2)
H21_2 H 0.2143 0.9576 0.1785
C30_2 C 0.2150(2) 0.8745(2) 0.2216(2)
H22_2 H 0.1712 0.8702 0.2236
C31_2 C 0.3289(2) 0.9923(2) 0.1613(2)
Ag2_2 Ag 0.0000 0.7500 0.03864(3)
Ag3_4 Ag 0.46136(3) 1.0000 0.2500
H41_2 H 0.0158 0.8637 0.1988
C56_2 C 0.0954(2) 0.8596(2) 0.0461(2)
C57_2 C 0.1421(3) 0.9022(3) 0.0290(3)
H42_2 H 0.1512 0.9371 0.0542
N15_2 N 0.0114(2) 0.83321(18) 0.11559(19)
N16_2 N 0.0635(2) 0.8680(2) 0.1008(2)
H45_2 H 0.0765 0.8962 0.1272
N17_2 N 0.0822(2) 0.8086(2) 0.0110(2)
N21_2 N 0.16679(18) 0.61559(19) 0.4886(2)
N22_2 N 0.38441(19) 0.9886(2) 0.33321(18)
N23_2 N 0.1914(2) 0.5110(2) 0.4178(2)
N24_2 N 0.4890(2) 0.9178(2) 0.3086(2)
C46 C 0.6085(3) 0.0253(3) 0.6742(3)
H34 H 0.5800 0.0383 0.7052
C47 C 0.6600(3) 0.0606(3) 0.6615(3)
H35 H 0.6684 0.0977 0.6838
C48 C 0.6990(3) 0.0402(3) 0.6154(3)
Cl4 Cl 0.76444(10) 0.08427(10) 0.59562(13)
H14_2 H 0.9842 0.6363 0.1988
C20_2 C 0.9046(2) 0.6404(2) 0.0461(2)
C21_2 C 0.8579(3) 0.5978(3) 0.0290(3)
H15_2 H 0.8488 0.5629 0.0542
N5_2 N 0.9886(2) 0.66679(18) 0.11559(19)
N6_2 N 0.9365(2) 0.6320(2) 0.1008(2)
H18_2 H 0.9235 0.6038 0.1272
N7_2 N 0.9178(2) 0.6914(2) 0.0110(2)
Ag2_3 Ag 1.0000 0.7500 0.03864(3)
C37_2 C 0.7456(2) 0.7537(2) 0.3275(2)
C38_2 C 0.7422(2) 0.8184(2) 0.3353(2)
H28_2 H 0.7576 0.8451 0.3039
C39_2 C 0.7160(2) 0.8436(2) 0.3893(2)
H29_2 H 0.7146 0.8873 0.3945
C40_2 C 0.6918(2) 0.8049(2) 0.4356(2)
C41_2 C 0.6951(2) 0.7409(2) 0.4267(2)
H30_2 H 0.6785 0.7143 0.4576
C42_2 C 0.7216(2) 0.7150(2) 0.3745(2)
H31_2 H 0.7236 0.6712 0.3702
C43_2 C 0.6613(2) 0.8289(2) 0.4923(2)
H32_2 H 0.6363 0.8012 0.5158
C44_2 C 0.6404(2) 0.9539(2) 0.5954(2)
C45_2 C 0.5978(3) 0.9710(3) 0.6421(3)
H33_2 H 0.5629 0.9458 0.6512
N11_2 N 0.7719(2) 0.7281(2) 0.2719(2)
N12_2 N 0.66679(18) 0.88441(19) 0.5114(2)
N13_2 N 0.6320(2) 0.8992(2) 0.5635(2)
H36_2 H 0.6038 0.8728 0.5765
N14_2 N 0.6914(2) 0.9890(2) 0.5822(2)
C49_2 C 0.8275(2) 0.7544(2) 0.2463(2)
C50_2 C 0.8353(2) 0.7578(2) 0.1816(2)
H37_2 H 0.8039 0.7424 0.1549
C51_2 C 0.8893(2) 0.7840(2) 0.1564(2)
H38_2 H 0.8945 0.7854 0.1127
C52_2 C 0.9356(2) 0.8082(2) 0.1951(2)
C53_2 C 0.9267(2) 0.8049(2) 0.2591(2)
H39_2 H 0.9576 0.8215 0.2857
C54_2 C 0.8745(2) 0.7784(2) 0.2850(2)
H40_2 H 0.8702 0.7764 0.3288
C55_2 C 0.9923(2) 0.8387(2) 0.1711(2)
C61_2 C 0.7463(2) 0.6725(2) 0.2456(2)
C62_2 C 0.6816(2) 0.6647(2) 0.2422(2)
H46_2 H 0.6549 0.6961 0.2576
C63_2 C 0.6564(2) 0.6107(2) 0.2160(2)
H47_2 H 0.6127 0.6055 0.2146
C64_2 C 0.6951(2) 0.5644(2) 0.1918(2)
C65_2 C 0.7591(2) 0.5733(2) 0.1951(2)
H48_2 H 0.7857 0.5424 0.1785
C66_2 C 0.7850(2) 0.6255(2) 0.2216(2)
H49_2 H 0.8288 0.6298 0.2236
C67_2 C 0.6711(2) 0.5077(2) 0.1613(2)
H50_2 H 0.6988 0.4842 0.1363
C68_2 C 0.5461(2) 0.4046(2) 0.1404(2)
C69_2 C 0.5290(3) 0.3579(3) 0.0978(3)
H51_2 H 0.5542 0.3488 0.0629
C70_2 C 0.4747(3) 0.3258(3) 0.1085(3)
H52_2 H 0.4617 0.2948 0.0800
C71_2 C 0.4394(3) 0.3385(3) 0.1600(3)
H53_2 H 0.4023 0.3162 0.1684
C72_2 C 0.4598(3) 0.3846(3) 0.1990(3)
Cl6_2 Cl 0.41573(10) 0.40438(13) 0.26444(10)
N18_2 N 0.61559(19) 0.4886(2) 0.16679(18)
N19_2 N 0.6008(2) 0.4365(2) 0.1320(2)
H54_2 H 0.6272 0.4235 0.1038
N20_2 N 0.5110(2) 0.4178(2) 0.1914(2)
Ag4_3 Ag 0.7500 0.96136(3) 0.5000
Ag5_2 Ag 0.53864(3) 0.5000 0.2500
C34_2 C 0.0253(3) 0.3258(3) 0.8915(3)
H25_2 H 0.0383 0.2948 0.9200
C35_2 C 0.0606(3) 0.3385(3) 0.8400(3)
H26_2 H 0.0977 0.3162 0.8316
C36_2 C 0.0402(3) 0.3846(3) 0.8010(3)
Cl3_2 Cl 0.08427(10) 0.40438(13) 0.73556(10)
C10_3 C 0.8915(3) 0.0253(3) 0.3258(3)
H7_3 H 0.9200 0.0383 0.2948
C11_3 C 0.8400(3) 0.0606(3) 0.3385(3)
H8_3 H 0.8316 0.0977 0.3162
C12_3 C 0.8010(3) 0.0402(3) 0.3846(3)
Cl1_3 Cl 0.73556(10) 0.08427(10) 0.40438(13)
H50_3 H 0.1988 0.0158 0.8637
C68_3 C 0.0461(2) 0.0954(2) 0.8596(2)
C69_3 C 0.0290(3) 0.1421(3) 0.9022(3)
H51_3 H 0.0542 0.1512 0.9371
N19_3 N 0.1008(2) 0.0635(2) 0.8680(2)
H54_3 H 0.1272 0.0765 0.8962
C22_2 C 0.3258(3) 0.8915(3) 0.0253(3)
H16_2 H 0.2948 0.9200 0.0383
C23_2 C 0.3385(3) 0.8400(3) 0.0606(3)
H17_2 H 0.3162 0.8316 0.0977
C24_2 C 0.3846(3) 0.8010(3) 0.0402(3)
Cl2_2 Cl 0.40438(13) 0.73556(10) 0.08427(10)
C58_2 C 0.6742(3) 0.6085(3) 0.0253(3)
H43_2 H 0.7052 0.5800 0.0383
C59_2 C 0.6615(3) 0.6600(3) 0.0606(3)
H44_2 H 0.6838 0.6684 0.0977
C60_2 C 0.6154(3) 0.6990(3) 0.0402(3)
Cl5_2 Cl 0.59562(13) 0.76444(10) 0.08427(10)
C1_3 C 0.7544(2) 0.7537(2) 0.6725(2)
C2_3 C 0.7578(2) 0.8184(2) 0.6647(2)
H1_3 H 0.7424 0.8451 0.6961
C3_3 C 0.7840(2) 0.8436(2) 0.6107(2)
H2_3 H 0.7854 0.8873 0.6055
C4_3 C 0.8082(2) 0.8049(2) 0.5644(2)
C5_3 C 0.8049(2) 0.7409(2) 0.5733(2)
H3_3 H 0.8215 0.7143 0.5424
C6_3 C 0.7784(2) 0.7150(2) 0.6255(2)
H4_3 H 0.7764 0.6712 0.6298
C7_3 C 0.8387(2) 0.8289(2) 0.5077(2)
H5_3 H 0.8637 0.8012 0.4842
C8_3 C 0.8596(2) 0.9539(2) 0.4046(2)
C9_3 C 0.9022(3) 0.9710(3) 0.3579(3)
H6_3 H 0.9371 0.9458 0.3488
N1_3 N 0.7281(2) 0.7281(2) 0.7281(2)
N2_3 N 0.83321(18) 0.88441(19) 0.4886(2)
N3_3 N 0.8680(2) 0.8992(2) 0.4365(2)
H9_3 H 0.8962 0.8728 0.4235
N4_3 N 0.8086(2) 0.9890(2) 0.4178(2)
C13_3 C 0.6725(2) 0.7544(2) 0.7537(2)
C14_3 C 0.6647(2) 0.7578(2) 0.8184(2)
H10_3 H 0.6961 0.7424 0.8451
C15_3 C 0.6107(2) 0.7840(2) 0.8436(2)
H11_3 H 0.6055 0.7854 0.8873
C16_3 C 0.5644(2) 0.8082(2) 0.8049(2)
C17_3 C 0.5733(2) 0.8049(2) 0.7409(2)
H12_3 H 0.5424 0.8215 0.7143
C18_3 C 0.6255(2) 0.7784(2) 0.7150(2)
H13_3 H 0.6298 0.7764 0.6712
C19_3 C 0.5077(2) 0.8387(2) 0.8289(2)
H14_3 H 0.4842 0.8637 0.8012
C20_3 C 0.4046(2) 0.8596(2) 0.9539(2)
C21_3 C 0.3579(3) 0.9022(3) 0.9710(3)
H15_3 H 0.3488 0.9371 0.9458
N5_3 N 0.4886(2) 0.83321(18) 0.88441(19)
N6_3 N 0.4365(2) 0.8680(2) 0.8992(2)
H18_3 H 0.4235 0.8962 0.8728
N7_3 N 0.4178(2) 0.8086(2) 0.9890(2)
C25_3 C 0.7537(2) 0.6725(2) 0.7544(2)
C26_3 C 0.8184(2) 0.6647(2) 0.7578(2)
H19_3 H 0.8451 0.6961 0.7424
C27_3 C 0.8436(2) 0.6107(2) 0.7840(2)
H20_3 H 0.8873 0.6055 0.7854
C28_3 C 0.8049(2) 0.5644(2) 0.8082(2)
C29_3 C 0.7409(2) 0.5733(2) 0.8049(2)
H21_3 H 0.7143 0.5424 0.8215
C30_3 C 0.7150(2) 0.6255(2) 0.7784(2)
H22_3 H 0.6712 0.6298 0.7764
C31_3 C 0.8289(2) 0.5077(2) 0.8387(2)
H23_3 H 0.8012 0.4842 0.8637
C32_3 C 0.9539(2) 0.4046(2) 0.8596(2)
C33_3 C 0.9710(3) 0.3579(3) 0.9022(3)
H24_3 H 0.9458 0.3488 0.9371
N8_3 N 0.88441(19) 0.4886(2) 0.83321(18)
N9_3 N 0.8992(2) 0.4365(2) 0.8680(2)
H27_3 H 0.8728 0.4235 0.8962
N10_3 N 0.9890(2) 0.4178(2) 0.8086(2)
Ag2_4 Ag 0.5000 0.7500 0.96136(3)
C37_3 C 0.2456(2) 0.7463(2) 0.6725(2)
C38_3 C 0.2422(2) 0.6816(2) 0.6647(2)
H28_3 H 0.2576 0.6549 0.6961
C39_3 C 0.2160(2) 0.6564(2) 0.6107(2)
H29_3 H 0.2146 0.6127 0.6055
C40_3 C 0.1918(2) 0.6951(2) 0.5644(2)
C41_3 C 0.1951(2) 0.7591(2) 0.5733(2)
H30_3 H 0.1785 0.7857 0.5424
C42_3 C 0.2216(2) 0.7850(2) 0.6255(2)
H31_3 H 0.2236 0.8288 0.6298
C43_3 C 0.1613(2) 0.6711(2) 0.5077(2)
H32_3 H 0.1363 0.6988 0.4842
C44_3 C 0.1404(2) 0.5461(2) 0.4046(2)
C45_3 C 0.0978(3) 0.5290(3) 0.3579(3)
H33_3 H 0.0629 0.5542 0.3488
C46_2 C 0.1085(3) 0.4747(3) 0.3258(3)
H34_2 H 0.0800 0.4617 0.2948
C47_2 C 0.1600(3) 0.4394(3) 0.3385(3)
H35_2 H 0.1684 0.4023 0.3162
C48_2 C 0.1990(3) 0.4598(3) 0.3846(3)
Cl4_2 Cl 0.26444(10) 0.41573(10) 0.40438(13)
N11_3 N 0.2719(2) 0.7719(2) 0.7281(2)
N13_3 N 0.1320(2) 0.6008(2) 0.4365(2)
H36_3 H 0.1038 0.6272 0.4235
C49_3 C 0.3275(2) 0.7456(2) 0.7537(2)
C50_3 C 0.3353(2) 0.7422(2) 0.8184(2)
H37_3 H 0.3039 0.7576 0.8451
C51_3 C 0.3893(2) 0.7160(2) 0.8436(2)
H38_3 H 0.3945 0.7146 0.8873
C52_3 C 0.4356(2) 0.6918(2) 0.8049(2)
C53_3 C 0.4267(2) 0.6951(2) 0.7409(2)
H39_3 H 0.4576 0.6785 0.7143
C54_3 C 0.3745(2) 0.7216(2) 0.7150(2)
H40_3 H 0.3702 0.7236 0.6712
C55_3 C 0.4923(2) 0.6613(2) 0.8289(2)
H41_3 H 0.5158 0.6363 0.8012
C56_3 C 0.5954(2) 0.6404(2) 0.9539(2)
C57_3 C 0.6421(3) 0.5978(3) 0.9710(3)
H42_3 H 0.6512 0.5629 0.9458
N15_3 N 0.5114(2) 0.66679(18) 0.88441(19)
N16_3 N 0.5635(2) 0.6320(2) 0.8992(2)
H45_3 H 0.5765 0.6038 0.8728
N17_3 N 0.5822(2) 0.6914(2) 0.9890(2)
C61_3 C 0.2463(2) 0.8275(2) 0.7544(2)
C62_3 C 0.1816(2) 0.8353(2) 0.7578(2)
H46_3 H 0.1549 0.8039 0.7424
C63_3 C 0.1564(2) 0.8893(2) 0.7840(2)
H47_3 H 0.1127 0.8945 0.7854
C64_3 C 0.1951(2) 0.9356(2) 0.8082(2)
C65_3 C 0.2591(2) 0.9267(2) 0.8049(2)
H48_3 H 0.2857 0.9576 0.8215
C66_3 C 0.2850(2) 0.8745(2) 0.7784(2)
H49_3 H 0.3288 0.8702 0.7764
C67_3 C 0.1711(2) 0.9923(2) 0.8387(2)
H14_4 H 0.0158 0.1363 0.3012
C20_4 C 0.0954(2) 0.1404(2) 0.4539(2)
C21_4 C 0.1421(3) 0.0978(3) 0.4710(3)
H15_4 H 0.1512 0.0629 0.4458
C22_3 C 0.1742(3) 0.1085(3) 0.5253(3)
H16_3 H 0.2052 0.0800 0.5383
C23_3 C 0.1615(3) 0.1600(3) 0.5606(3)
H17_3 H 0.1838 0.1684 0.5977
C24_3 C 0.1154(3) 0.1990(3) 0.5402(3)
Cl2_3 Cl 0.09562(13) 0.26444(10) 0.58427(10)
N5_4 N 0.0114(2) 0.16679(18) 0.38441(19)
N6_4 N 0.0635(2) 0.1320(2) 0.3992(2)
H18_4 H 0.0765 0.1038 0.3728
N7_4 N 0.0822(2) 0.1914(2) 0.4890(2)
Ag2_5 Ag -0.0000 0.2500 0.46136(3)
C37_4 C 0.2544(2) 0.2537(2) 0.1725(2)
C38_4 C 0.2578(2) 0.3184(2) 0.1647(2)
H28_4 H 0.2424 0.3451 0.1961
C39_4 C 0.2840(2) 0.3436(2) 0.1107(2)
H29_4 H 0.2854 0.3873 0.1055
C40_4 C 0.3082(2) 0.3049(2) 0.0644(2)
C41_4 C 0.3049(2) 0.2409(2) 0.0733(2)
H30_4 H 0.3215 0.2143 0.0424
C42_4 C 0.2784(2) 0.2150(2) 0.1255(2)
H31_4 H 0.2764 0.1712 0.1298
C43_4 C 0.3387(2) 0.3289(2) 0.0077(2)
N11_4 N 0.2281(2) 0.2281(2) 0.2281(2)
C49_4 C 0.1725(2) 0.2544(2) 0.2537(2)
C50_4 C 0.1647(2) 0.2578(2) 0.3184(2)
H37_4 H 0.1961 0.2424 0.3451
C51_4 C 0.1107(2) 0.2840(2) 0.3436(2)
H38_4 H 0.1055 0.2854 0.3873
C52_4 C 0.0644(2) 0.3082(2) 0.3049(2)
C53_4 C 0.0733(2) 0.3049(2) 0.2409(2)
H39_4 H 0.0424 0.3215 0.2143
C54_4 C 0.1255(2) 0.2784(2) 0.2150(2)
H40_4 H 0.1298 0.2764 0.1712
C55_4 C 0.0077(2) 0.3387(2) 0.3289(2)
C61_4 C 0.2537(2) 0.1725(2) 0.2544(2)
C62_4 C 0.3184(2) 0.1647(2) 0.2578(2)
H46_4 H 0.3451 0.1961 0.2424
C63_4 C 0.3436(2) 0.1107(2) 0.2840(2)
H47_4 H 0.3873 0.1055 0.2854
C64_4 C 0.3049(2) 0.0644(2) 0.3082(2)
C65_4 C 0.2409(2) 0.0733(2) 0.3049(2)
H48_4 H 0.2143 0.0424 0.3215
C66_4 C 0.2150(2) 0.1255(2) 0.2784(2)
H49_4 H 0.1712 0.1298 0.2764
C67_4 C 0.3289(2) 0.0077(2) 0.3387(2)
H32_4 H 0.3637 0.3012 0.9842
C44_4 C 0.3596(2) 0.4539(2) 0.9046(2)
C45_4 C 0.4022(3) 0.4710(3) 0.8579(3)
H33_4 H 0.4371 0.4458 0.8488
C46_3 C 0.3915(3) 0.5253(3) 0.8258(3)
H34_3 H 0.4200 0.5383 0.7948
C47_3 C 0.3400(3) 0.5606(3) 0.8385(3)
H35_3 H 0.3316 0.5977 0.8162
C48_3 C 0.3010(3) 0.5402(3) 0.8846(3)
Cl4_3 Cl 0.23556(10) 0.58427(10) 0.90438(13)
N13_4 N 0.3680(2) 0.3992(2) 0.9365(2)
H36_4 H 0.3962 0.3728 0.9235
H50_4 H 0.3012 0.9842 0.3637
C68_4 C 0.4539(2) 0.9046(2) 0.3596(2)
C69_4 C 0.4710(3) 0.8579(3) 0.4022(3)
H51_4 H 0.4458 0.8488 0.4371
C70_3 C 0.5253(3) 0.8258(3) 0.3915(3)
H52_3 H 0.5383 0.7948 0.4200
C71_3 C 0.5606(3) 0.8385(3) 0.3400(3)
H53_3 H 0.5977 0.8162 0.3316
C72_3 C 0.5402(3) 0.8846(3) 0.3010(3)
Cl6_3 Cl 0.58427(10) 0.90438(13) 0.23556(10)
N19_4 N 0.3992(2) 0.9365(2) 0.3680(2)
H54_4 H 0.3728 0.9235 0.3962
C1_4 C 0.7456(2) 0.2463(2) 0.1725(2)
C2_4 C 0.7422(2) 0.1816(2) 0.1647(2)
H1_4 H 0.7576 0.1549 0.1961
C3_4 C 0.7160(2) 0.1564(2) 0.1107(2)
H2_4 H 0.7146 0.1127 0.1055
C4_4 C 0.6918(2) 0.1951(2) 0.0644(2)
C5_4 C 0.6951(2) 0.2591(2) 0.0733(2)
H3_4 H 0.6785 0.2857 0.0424
C6_4 C 0.7216(2) 0.2850(2) 0.1255(2)
H4_4 H 0.7236 0.3288 0.1298
C7_4 C 0.6613(2) 0.1711(2) 0.0077(2)
N1_4 N 0.7719(2) 0.2719(2) 0.2281(2)
C13_4 C 0.8275(2) 0.2456(2) 0.2537(2)
C14_4 C 0.8353(2) 0.2422(2) 0.3184(2)
H10_4 H 0.8039 0.2576 0.3451
C15_4 C 0.8893(2) 0.2160(2) 0.3436(2)
H11_4 H 0.8945 0.2146 0.3873
C16_4 C 0.9356(2) 0.1918(2) 0.3049(2)
C17_4 C 0.9267(2) 0.1951(2) 0.2409(2)
H12_4 H 0.9576 0.1785 0.2143
C18_4 C 0.8745(2) 0.2216(2) 0.2150(2)
H13_4 H 0.8702 0.2236 0.1712
C19_4 C 0.9923(2) 0.1613(2) 0.3289(2)
C25_4 C 0.7463(2) 0.3275(2) 0.2544(2)
C26_4 C 0.6816(2) 0.3353(2) 0.2578(2)
H19_4 H 0.6549 0.3039 0.2424
C27_4 C 0.6564(2) 0.3893(2) 0.2840(2)
H20_4 H 0.6127 0.3945 0.2854
C28_4 C 0.6951(2) 0.4356(2) 0.3082(2)
C29_4 C 0.7591(2) 0.4267(2) 0.3049(2)
H21_4 H 0.7857 0.4576 0.3215
C30_4 C 0.7850(2) 0.3745(2) 0.2784(2)
H22_4 H 0.8288 0.3702 0.2764
C31_4 C 0.6711(2) 0.4923(2) 0.3387(2)
H23_4 H 0.6988 0.5158 0.3637
C32_4 C 0.5461(2) 0.5954(2) 0.3596(2)
C33_4 C 0.5290(3) 0.6421(3) 0.4022(3)
H24_4 H 0.5542 0.6512 0.4371
C34_3 C 0.4747(3) 0.6742(3) 0.3915(3)
H25_3 H 0.4617 0.7052 0.4200
C35_3 C 0.4394(3) 0.6615(3) 0.3400(3)
H26_3 H 0.4023 0.6838 0.3316
C36_3 C 0.4598(3) 0.6154(3) 0.3010(3)
Cl3_3 Cl 0.41573(10) 0.59562(13) 0.23556(10)
N8_4 N 0.61559(19) 0.5114(2) 0.33321(18)
N9_4 N 0.6008(2) 0.5635(2) 0.3680(2)
H27_4 H 0.6272 0.5765 0.3962
N10_4 N 0.5110(2) 0.5822(2) 0.3086(2)
Ag2_6 Ag 1.0000 0.2500 0.46136(3)
H41_4 H 0.9842 0.3637 0.3012
C56_4 C 0.9046(2) 0.3596(2) 0.4539(2)
C57_4 C 0.8579(3) 0.4022(3) 0.4710(3)
H42_4 H 0.8488 0.4371 0.4458
C58_3 C 0.8258(3) 0.3915(3) 0.5253(3)
H43_3 H 0.7948 0.4200 0.5383
C59_3 C 0.8385(3) 0.3400(3) 0.5606(3)
H44_3 H 0.8162 0.3316 0.5977
C60_3 C 0.8846(3) 0.3010(3) 0.5402(3)
Cl5_3 Cl 0.90438(13) 0.23556(10) 0.58427(10)
N15_4 N 0.9886(2) 0.33321(18) 0.38441(19)
N16_4 N 0.9365(2) 0.3680(2) 0.3992(2)
H45_4 H 0.9235 0.3962 0.3728
N17_4 N 0.9178(2) 0.3086(2) 0.4890(2)
H5_4 H 0.6363 0.1988 0.9842
C8_4 C 0.6404(2) 0.0461(2) 0.9046(2)
C9_4 C 0.5978(3) 0.0290(3) 0.8579(3)
H6_4 H 0.5629 0.0542 0.8488
N2_4 N 0.66679(18) 0.11559(19) 0.9886(2)
N3_4 N 0.6320(2) 0.1008(2) 0.9365(2)
H9_4 H 0.6038 0.1272 0.9235
N4_4 N 0.6914(2) 0.0110(2) 0.9178(2)
C46_4 C 0.8915(3) 0.9747(3) 0.1742(3)
H34_4 H 0.9200 0.9617 0.2052
C47_4 C 0.8400(3) 0.9394(3) 0.1615(3)
H35_4 H 0.8316 0.9023 0.1838
C48_4 C 0.8010(3) 0.9598(3) 0.1154(3)
Cl4_4 Cl 0.73556(10) 0.91573(10) 0.09562(13)
C34_4 C 0.9747(3) 0.8258(3) 0.6085(3)
H25_4 H 0.9617 0.7948 0.5800
C35_4 C 0.9394(3) 0.8385(3) 0.6600(3)
H26_4 H 0.9023 0.8162 0.6684
C36_4 C 0.9598(3) 0.8846(3) 0.6990(3)
Cl3_4 Cl 0.91573(10) 0.90438(13) 0.76444(10)
C58_4 C 0.1742(3) 0.8915(3) 0.9747(3)
H43_4 H 0.2052 0.9200 0.9617
C59_4 C 0.1615(3) 0.8400(3) 0.9394(3)
H44_4 H 0.1838 0.8316 0.9023
C60_4 C 0.1154(3) 0.8010(3) 0.9598(3)
Cl5_4 Cl 0.09562(13) 0.73556(10) 0.91573(10)
C22_4 C 0.8258(3) 0.6085(3) 0.9747(3)
H16_4 H 0.7948 0.5800 0.9617
C23_4 C 0.8385(3) 0.6600(3) 0.9394(3)
H17_4 H 0.8162 0.6684 0.9023
C24_4 C 0.8846(3) 0.6990(3) 0.9598(3)
Cl2_4 Cl 0.90438(13) 0.76444(10) 0.91573(10)
C70_4 C 0.9747(3) 0.1742(3) 0.8915(3)
H52_4 H 0.9617 0.2052 0.9200
C71_4 C 0.9394(3) 0.1615(3) 0.8400(3)
H53_4 H 0.9023 0.1838 0.8316
C72_4 C 0.9598(3) 0.1154(3) 0.8010(3)
Cl6_4 Cl 0.91573(10) 0.09562(13) 0.73556(10)
C10_4 C 0.6085(3) 0.9747(3) 0.8258(3)
H7_4 H 0.5800 0.9617 0.7948
C11_4 C 0.6600(3) 0.9394(3) 0.8385(3)
H8_4 H 0.6684 0.9023 0.8162
C12_4 C 0.6990(3) 0.9598(3) 0.8846(3)
Cl1_4 Cl 0.76444(10) 0.91573(10) 0.90438(13)
Cl7 Cl 0.93774(8) 0.5000 0.2500
O1 O 0.9010(2) 0.4759(2) 0.2997(3)
O2 O 0.9759(2) 0.4508(2) 0.2259(2)
O3 O 0.9010(2) 0.5241(2) 0.2003(3)
O4 O 0.9759(2) 0.5492(2) 0.2741(2)
Cl7_2 Cl 0.56226(8) 0.5000 0.7500
O1_2 O 0.5990(2) 0.5241(2) 0.7997(3)
O2_2 O 0.5241(2) 0.5492(2) 0.7259(2)
O3_2 O 0.5990(2) 0.4759(2) 0.7003(3)
O4_2 O 0.5241(2) 0.4508(2) 0.7741(2)
Cl7_3 Cl 0.06226(8) -0.0000 0.2500
O3_3 O 0.0990(2) 0.0241(2) 0.2997(3)
O4_3 O 0.0241(2) 0.0492(2) 0.2259(2)
Cl7_4 Cl 0.06226(8) 1.0000 0.2500
O1_3 O 0.0990(2) 0.9759(2) 0.2003(3)
O2_3 O 0.0241(2) 0.9508(2) 0.2741(2)
Cl7_5 Cl 0.43774(8) 0.0000 0.7500
O1_4 O 0.4010(2) 0.0241(2) 0.7003(3)
O2_4 O 0.4759(2) 0.0492(2) 0.7741(2)
Cl7_6 Cl 0.43774(8) 1.0000 0.7500
O3_4 O 0.4010(2) 0.9759(2) 0.7997(3)
O4_4 O 0.4759(2) 0.9508(2) 0.7259(2)
Cl7_7 Cl 0.2500 0.93774(8) 0.5000
O1_5 O 0.2997(3) 0.9010(2) 0.4759(2)
O2_5 O 0.2259(2) 0.9759(2) 0.4508(2)
O3_5 O 0.2003(3) 0.9010(2) 0.5241(2)
O4_5 O 0.2741(2) 0.9759(2) 0.5492(2)
Cl7_8 Cl 0.7500 0.56226(8) 0.5000
O1_6 O 0.7997(3) 0.5990(2) 0.5241(2)
O2_6 O 0.7259(2) 0.5241(2) 0.5492(2)
O3_6 O 0.7003(3) 0.5990(2) 0.4759(2)
O4_6 O 0.7741(2) 0.5241(2) 0.4508(2)
Cl7_9 Cl 0.2500 0.06226(8) -0.0000
O3_7 O 0.2997(3) 0.0990(2) 0.0241(2)
O4_7 O 0.2259(2) 0.0241(2) 0.0492(2)
Cl7_10 Cl 0.2500 0.06226(8) 1.0000
O1_7 O 0.2003(3) 0.0990(2) 0.9759(2)
O2_7 O 0.2741(2) 0.0241(2) 0.9508(2)
Cl7_11 Cl 0.7500 0.43774(8) 0.0000
O1_8 O 0.7003(3) 0.4010(2) 0.0241(2)
O2_8 O 0.7741(2) 0.4759(2) 0.0492(2)
Cl7_12 Cl 0.7500 0.43774(8) 1.0000
O3_8 O 0.7997(3) 0.4010(2) 0.9759(2)
O4_8 O 0.7259(2) 0.4759(2) 0.9508(2)
Cl7_13 Cl 0.5000 0.2500 0.93774(8)
O1_9 O 0.4759(2) 0.2997(3) 0.9010(2)
O2_9 O 0.4508(2) 0.2259(2) 0.9759(2)
O3_9 O 0.5241(2) 0.2003(3) 0.9010(2)
O4_9 O 0.5492(2) 0.2741(2) 0.9759(2)
Cl7_14 Cl 0.5000 0.7500 0.56226(8)
O1_10 O 0.5241(2) 0.7997(3) 0.5990(2)
O2_10 O 0.5492(2) 0.7259(2) 0.5241(2)
O3_10 O 0.4759(2) 0.7003(3) 0.5990(2)
O4_10 O 0.4508(2) 0.7741(2) 0.5241(2)
Cl7_15 Cl -0.0000 0.2500 0.06226(8)
O3_11 O 0.0241(2) 0.2997(3) 0.0990(2)
O4_11 O 0.0492(2) 0.2259(2) 0.0241(2)
Cl7_16 Cl 1.0000 0.2500 0.06226(8)
O1_11 O 0.9759(2) 0.2003(3) 0.0990(2)
O2_11 O 0.9508(2) 0.2741(2) 0.0241(2)
Cl7_17 Cl 0.0000 0.7500 0.43774(8)
O1_12 O 0.0241(2) 0.7003(3) 0.4010(2)
O2_12 O 0.0492(2) 0.7741(2) 0.4759(2)
Cl7_18 Cl 1.0000 0.7500 0.43774(8)
O3_12 O 0.9759(2) 0.7997(3) 0.4010(2)
O4_12 O 0.9508(2) 0.7259(2) 0.4759(2)
loop_
_geom_bond_atom_site_label_1
_geom_bond_atom_site_label_2
_geom_bond_site_symmetry_1
_geom_bond_site_symmetry_2
H52 C70 1_555 1_555
C71 C70 1_555 1_555
H53 C71 1_555 1_555
C72 C71 1_555 1_555
Cl6 C72 1_555 1_555
Ag1 N2 1_555 1_555
C8 C9 1_555 1_555
C9 H6 1_555 1_555
C10 C9 1_555 1_555
H7 C10 1_555 1_555
C11 C10 1_555 1_555
H8 C11 1_555 1_555
C12 C11 1_555 1_555
Cl1 C12 1_555 1_555
N3 C8 1_555 1_555
H9 N3 1_555 1_555
N4 Ag1 1_555 1_555
C44 C45 1_555 1_555
C45 H33 1_555 1_555
N13 C44 1_555 1_555
H36 N13 1_555 1_555
N14 C44 1_555 1_555
Ag4 N12 1_555 1_555
C8 N4 1_555 1_555
C12 N4 1_555 1_555
N2 N3 1_555 1_555
N12 N13 1_555 1_555
N14 Ag4 1_555 1_555
C1 C2 1_555 1_555
C2 H1 1_555 1_555
C3 C2 1_555 1_555
H2 C3 1_555 1_555
C4 C3 1_555 1_555
C5 C4 1_555 1_555
H3 C5 1_555 1_555
C6 C1 1_555 1_555
H4 C6 1_555 1_555
C7 C4 1_555 1_555
N1 C1 1_555 1_555
C13 N1 1_555 1_555
C14 C13 1_555 1_555
H10 C14 1_555 1_555
C15 C14 1_555 1_555
H11 C15 1_555 1_555
C16 C15 1_555 1_555
C17 C16 1_555 1_555
H12 C17 1_555 1_555
C18 C13 1_555 1_555
H13 C18 1_555 1_555
C19 C16 1_555 1_555
H14 C19 1_555 1_555
C20 C21 1_555 1_555
C21 H15 1_555 1_555
C22 C21 1_555 1_555
H16 C22 1_555 1_555
C23 C22 1_555 1_555
H17 C23 1_555 1_555
C24 C23 1_555 1_555
Cl2 C24 1_555 1_555
N5 C19 1_555 1_555
N6 C20 1_555 1_555
H18 N6 1_555 1_555
N7 C20 1_555 1_555
C25 N1 1_555 1_555
C26 C25 1_555 1_555
H19 C26 1_555 1_555
C27 C26 1_555 1_555
H20 C27 1_555 1_555
C28 C27 1_555 1_555
C29 C28 1_555 1_555
H21 C29 1_555 1_555
C30 C25 1_555 1_555
H22 C30 1_555 1_555
C31 C28 1_555 1_555
Ag2 N5 1_555 1_555
C37 C38 1_555 1_555
C38 H28 1_555 1_555
C39 C38 1_555 1_555
H29 C39 1_555 1_555
C40 C39 1_555 1_555
C41 C40 1_555 1_555
H30 C41 1_555 1_555
C42 C37 1_555 1_555
H31 C42 1_555 1_555
C43 C40 1_555 1_555
N11 C37 1_555 1_555
C49 N11 1_555 1_555
C50 C49 1_555 1_555
H37 C50 1_555 1_555
C51 C50 1_555 1_555
H38 C51 1_555 1_555
C52 C51 1_555 1_555
C53 C52 1_555 1_555
H39 C53 1_555 1_555
C54 C49 1_555 1_555
H40 C54 1_555 1_555
C55 C52 1_555 1_555
H41 C55 1_555 1_555
C56 C57 1_555 1_555
C57 H42 1_555 1_555
C58 C57 1_555 1_555
H43 C58 1_555 1_555
C59 C58 1_555 1_555
H44 C59 1_555 1_555
C60 C59 1_555 1_555
Cl5 C60 1_555 1_555
N15 Ag2 1_555 1_555
N16 C56 1_555 1_555
H45 N16 1_555 1_555
N17 Ag2 1_555 1_555
C61 N11 1_555 1_555
C62 C61 1_555 1_555
H46 C62 1_555 1_555
C63 C62 1_555 1_555
H47 C63 1_555 1_555
C64 C63 1_555 1_555
C65 C64 1_555 1_555
H48 C65 1_555 1_555
C66 C61 1_555 1_555
H49 C66 1_555 1_555
C67 C64 1_555 1_555
H50 C67 1_555 1_555
C68 C69 1_555 1_555
C69 H51 1_555 1_555
N18 C67 1_555 1_555
N19 C68 1_555 1_555
H54 N19 1_555 1_555
N20 C68 1_555 1_555
Ag5 N18 1_555 1_555
N21 Ag1_2 1_555 1_555
N22 Ag3 1_555 1_555
N23 Ag1_2 1_555 1_555
N24 Ag3 1_555 1_555
C5 C6 1_555 1_555
C17 C18 1_555 1_555
C24 N7 1_555 1_555
N5 N6 1_555 1_555
N7 Ag2 1_555 1_555
C29 C30 1_555 1_555
C41 C42 1_555 1_555
C53 C54 1_555 1_555
C55 N15 1_555 1_555
C56 N17 1_555 1_555
C60 N17 1_555 1_555
N15 N16 1_555 1_555
C65 C66 1_555 1_555
N18 N19 1_555 1_555
N20 Ag5 1_555 1_555
C32 C33 1_555 1_555
C33 H24 1_555 1_555
N9 C32 1_555 1_555
H27 N9 1_555 1_555
N10 C32 1_555 1_555
Ag3_2 N8 1_555 1_555
N8 N9 1_555 1_555
N10 Ag3_2 1_555 1_555
C32_2 C33_2 1_555 1_555
C33_2 H24_2 1_555 1_555
C34 C33_2 1_555 1_555
H25 C34 1_555 1_555
C35 C34 1_555 1_555
H26 C35 1_555 1_555
C36 C35 1_555 1_555
Cl3 C36 1_555 1_555
N9_2 C32_2 1_555 1_555
H27_2 N9_2 1_555 1_555
N10_2 C32_2 1_555 1_555
Ag3_3 N8_2 1_555 1_555
C36 N10_2 1_555 1_555
N8_2 N9_2 1_555 1_555
N10_2 Ag3_3 1_555 1_555
Ag1_3 N2_2 1_555 1_555
C1_2 C2_2 1_555 1_555
C2_2 H1_2 1_555 1_555
C3_2 C2_2 1_555 1_555
H2_2 C3_2 1_555 1_555
C4_2 C3_2 1_555 1_555
C5_2 C4_2 1_555 1_555
H3_2 C5_2 1_555 1_555
C6_2 C1_2 1_555 1_555
H4_2 C6_2 1_555 1_555
C7_2 C4_2 1_555 1_555
H5_2 C7_2 1_555 1_555
C8_2 C9_2 1_555 1_555
C9_2 H6_2 1_555 1_555
C10_2 C9_2 1_555 1_555
H7_2 C10_2 1_555 1_555
C11_2 C10_2 1_555 1_555
H8_2 C11_2 1_555 1_555
C12_2 C11_2 1_555 1_555
Cl1_2 C12_2 1_555 1_555
N1_2 C1_2 1_555 1_555
N2_2 C7_2 1_555 1_555
N3_2 C8_2 1_555 1_555
H9_2 N3_2 1_555 1_555
N4_2 Ag1_3 1_555 1_555
C13_2 N1_2 1_555 1_555
C14_2 C13_2 1_555 1_555
H10_2 C14_2 1_555 1_555
C15_2 C14_2 1_555 1_555
H11_2 C15_2 1_555 1_555
C16_2 C15_2 1_555 1_555
C17_2 C16_2 1_555 1_555
H12_2 C17_2 1_555 1_555
C18_2 C13_2 1_555 1_555
H13_2 C18_2 1_555 1_555
C19_2 C16_2 1_555 1_555
C25_2 N1_2 1_555 1_555
C26_2 C25_2 1_555 1_555
H19_2 C26_2 1_555 1_555
C27_2 C26_2 1_555 1_555
H20_2 C27_2 1_555 1_555
C28_2 C27_2 1_555 1_555
C29_2 C28_2 1_555 1_555
H21_2 C29_2 1_555 1_555
C30_2 C25_2 1_555 1_555
H22_2 C30_2 1_555 1_555
C31_2 C28_2 1_555 1_555
C56_2 C57_2 1_555 1_555
C57_2 H42_2 1_555 1_555
N15_2 Ag2_2 1_555 1_555
N16_2 C56_2 1_555 1_555
H45_2 N16_2 1_555 1_555
N17_2 Ag2_2 1_555 1_555
N21_2 Ag1_3 1_555 1_555
N22_2 Ag3_4 1_555 1_555
N23_2 Ag1_3 1_555 1_555
N24_2 Ag3_4 1_555 1_555
C5_2 C6_2 1_555 1_555
C8_2 N4_2 1_555 1_555
C12_2 N4_2 1_555 1_555
N2_2 N3_2 1_555 1_555
C17_2 C18_2 1_555 1_555
C29_2 C30_2 1_555 1_555
C56_2 N17_2 1_555 1_555
N15_2 N16_2 1_555 1_555
H34 C46 1_555 1_555
C47 C46 1_555 1_555
H35 C47 1_555 1_555
C48 C47 1_555 1_555
Cl4 C48 1_555 1_555
C20_2 C21_2 1_555 1_555
C21_2 H15_2 1_555 1_555
N6_2 C20_2 1_555 1_555
H18_2 N6_2 1_555 1_555
N7_2 C20_2 1_555 1_555
Ag2_3 N5_2 1_555 1_555
C37_2 C38_2 1_555 1_555
C38_2 H28_2 1_555 1_555
C39_2 C38_2 1_555 1_555
H29_2 C39_2 1_555 1_555
C40_2 C39_2 1_555 1_555
C41_2 C40_2 1_555 1_555
H30_2 C41_2 1_555 1_555
C42_2 C37_2 1_555 1_555
H31_2 C42_2 1_555 1_555
C43_2 C40_2 1_555 1_555
H32_2 C43_2 1_555 1_555
C44_2 C45_2 1_555 1_555
C45_2 H33_2 1_555 1_555
N11_2 C37_2 1_555 1_555
N12_2 C43_2 1_555 1_555
N13_2 C44_2 1_555 1_555
H36_2 N13_2 1_555 1_555
N14_2 C44_2 1_555 1_555
C49_2 N11_2 1_555 1_555
C50_2 C49_2 1_555 1_555
H37_2 C50_2 1_555 1_555
C51_2 C50_2 1_555 1_555
H38_2 C51_2 1_555 1_555
C52_2 C51_2 1_555 1_555
C53_2 C52_2 1_555 1_555
H39_2 C53_2 1_555 1_555
C54_2 C49_2 1_555 1_555
H40_2 C54_2 1_555 1_555
C55_2 C52_2 1_555 1_555
C61_2 N11_2 1_555 1_555
C62_2 C61_2 1_555 1_555
H46_2 C62_2 1_555 1_555
C63_2 C62_2 1_555 1_555
H47_2 C63_2 1_555 1_555
C64_2 C63_2 1_555 1_555
C65_2 C64_2 1_555 1_555
H48_2 C65_2 1_555 1_555
C66_2 C61_2 1_555 1_555
H49_2 C66_2 1_555 1_555
C67_2 C64_2 1_555 1_555
H50_2 C67_2 1_555 1_555
C68_2 C69_2 1_555 1_555
C69_2 H51_2 1_555 1_555
C70_2 C69_2 1_555 1_555
H52_2 C70_2 1_555 1_555
C71_2 C70_2 1_555 1_555
H53_2 C71_2 1_555 1_555
C72_2 C71_2 1_555 1_555
Cl6_2 C72_2 1_555 1_555
N18_2 C67_2 1_555 1_555
N19_2 C68_2 1_555 1_555
H54_2 N19_2 1_555 1_555
N20_2 C68_2 1_555 1_555
Ag4_3 N12_2 1_555 1_555
Ag5_2 N18_2 1_555 1_555
N5_2 N6_2 1_555 1_555
N7_2 Ag2_3 1_555 1_555
C41_2 C42_2 1_555 1_555
N12_2 N13_2 1_555 1_555
N14_2 Ag4_3 1_555 1_555
C53_2 C54_2 1_555 1_555
C65_2 C66_2 1_555 1_555
C72_2 N20_2 1_555 1_555
N18_2 N19_2 1_555 1_555
N20_2 Ag5_2 1_555 1_555
H25_2 C34_2 1_555 1_555
C35_2 C34_2 1_555 1_555
H26_2 C35_2 1_555 1_555
C36_2 C35_2 1_555 1_555
Cl3_2 C36_2 1_555 1_555
H7_3 C10_3 1_555 1_555
C11_3 C10_3 1_555 1_555
H8_3 C11_3 1_555 1_555
C12_3 C11_3 1_555 1_555
Cl1_3 C12_3 1_555 1_555
C68_3 C69_3 1_555 1_555
C69_3 H51_3 1_555 1_555
N19_3 C68_3 1_555 1_555
H54_3 N19_3 1_555 1_555
N24 C68_3 1_555 1_555
N22 N19_3 1_555 1_555
H16_2 C22_2 1_555 1_555
C23_2 C22_2 1_555 1_555
H17_2 C23_2 1_555 1_555
C24_2 C23_2 1_555 1_555
Cl2_2 C24_2 1_555 1_555
H43_2 C58_2 1_555 1_555
C59_2 C58_2 1_555 1_555
H44_2 C59_2 1_555 1_555
C60_2 C59_2 1_555 1_555
Cl5_2 C60_2 1_555 1_555
Ag4_3 N2_3 1_555 1_555
C1_3 C2_3 1_555 1_555
C2_3 H1_3 1_555 1_555
C3_3 C2_3 1_555 1_555
H2_3 C3_3 1_555 1_555
C4_3 C3_3 1_555 1_555
C5_3 C4_3 1_555 1_555
H3_3 C5_3 1_555 1_555
C6_3 C1_3 1_555 1_555
H4_3 C6_3 1_555 1_555
C7_3 C4_3 1_555 1_555
H5_3 C7_3 1_555 1_555
C8_3 C9_3 1_555 1_555
C9_3 H6_3 1_555 1_555
N1_3 C1_3 1_555 1_555
N2_3 C7_3 1_555 1_555
N3_3 C8_3 1_555 1_555
H9_3 N3_3 1_555 1_555
N4_3 Ag4_3 1_555 1_555
C13_3 N1_3 1_555 1_555
C14_3 C13_3 1_555 1_555
H10_3 C14_3 1_555 1_555
C15_3 C14_3 1_555 1_555
H11_3 C15_3 1_555 1_555
C16_3 C15_3 1_555 1_555
C17_3 C16_3 1_555 1_555
H12_3 C17_3 1_555 1_555
C18_3 C13_3 1_555 1_555
H13_3 C18_3 1_555 1_555
C19_3 C16_3 1_555 1_555
H14_3 C19_3 1_555 1_555
C20_3 C21_3 1_555 1_555
C21_3 H15_3 1_555 1_555
N5_3 C19_3 1_555 1_555
N6_3 C20_3 1_555 1_555
H18_3 N6_3 1_555 1_555
N7_3 C20_3 1_555 1_555
C25_3 N1_3 1_555 1_555
C26_3 C25_3 1_555 1_555
H19_3 C26_3 1_555 1_555
C27_3 C26_3 1_555 1_555
H20_3 C27_3 1_555 1_555
C28_3 C27_3 1_555 1_555
C29_3 C28_3 1_555 1_555
H21_3 C29_3 1_555 1_555
C30_3 C25_3 1_555 1_555
H22_3 C30_3 1_555 1_555
C31_3 C28_3 1_555 1_555
H23_3 C31_3 1_555 1_555
C32_3 C33_3 1_555 1_555
C33_3 H24_3 1_555 1_555
N8_3 C31_3 1_555 1_555
N9_3 C32_3 1_555 1_555
H27_3 N9_3 1_555 1_555
N10_3 C32_3 1_555 1_555
Ag2_4 N5_3 1_555 1_555
Ag5 N8_3 1_555 1_555
C37_3 C38_3 1_555 1_555
C38_3 H28_3 1_555 1_555
C39_3 C38_3 1_555 1_555
H29_3 C39_3 1_555 1_555
C40_3 C39_3 1_555 1_555
C41_3 C40_3 1_555 1_555
H30_3 C41_3 1_555 1_555
C42_3 C37_3 1_555 1_555
H31_3 C42_3 1_555 1_555
C43_3 C40_3 1_555 1_555
H32_3 C43_3 1_555 1_555
C44_3 C45_3 1_555 1_555
C45_3 H33_3 1_555 1_555
C46_2 C45_3 1_555 1_555
H34_2 C46_2 1_555 1_555
C47_2 C46_2 1_555 1_555
H35_2 C47_2 1_555 1_555
C48_2 C47_2 1_555 1_555
Cl4_2 C48_2 1_555 1_555
N11_3 C37_3 1_555 1_555
N21_2 C43_3 1_555 1_555
N13_3 C44_3 1_555 1_555
H36_3 N13_3 1_555 1_555
N23_2 C44_3 1_555 1_555
C49_3 N11_3 1_555 1_555
C50_3 C49_3 1_555 1_555
H37_3 C50_3 1_555 1_555
C51_3 C50_3 1_555 1_555
H38_3 C51_3 1_555 1_555
C52_3 C51_3 1_555 1_555
C53_3 C52_3 1_555 1_555
H39_3 C53_3 1_555 1_555
C54_3 C49_3 1_555 1_555
H40_3 C54_3 1_555 1_555
C55_3 C52_3 1_555 1_555
H41_3 C55_3 1_555 1_555
C56_3 C57_3 1_555 1_555
C57_3 H42_3 1_555 1_555
N15_3 Ag2_4 1_555 1_555
N16_3 C56_3 1_555 1_555
H45_3 N16_3 1_555 1_555
N17_3 Ag2_4 1_555 1_555
C61_3 N11_3 1_555 1_555
C62_3 C61_3 1_555 1_555
H46_3 C62_3 1_555 1_555
C63_3 C62_3 1_555 1_555
H47_3 C63_3 1_555 1_555
C64_3 C63_3 1_555 1_555
C65_3 C64_3 1_555 1_555
H48_3 C65_3 1_555 1_555
C66_3 C61_3 1_555 1_555
H49_3 C66_3 1_555 1_555
C67_3 C64_3 1_555 1_555
C5_3 C6_3 1_555 1_555
C8_3 N4_3 1_555 1_555
N2_3 N3_3 1_555 1_555
C17_3 C18_3 1_555 1_555
N5_3 N6_3 1_555 1_555
N7_3 Ag2_4 1_555 1_555
C29_3 C30_3 1_555 1_555
N8_3 N9_3 1_555 1_555
N10_3 Ag5 1_555 1_555
C41_3 C42_3 1_555 1_555
C48_2 N23_2 1_555 1_555
N21_2 N13_3 1_555 1_555
C53_3 C54_3 1_555 1_555
C55_3 N15_3 1_555 1_555
C56_3 N17_3 1_555 1_555
N15_3 N16_3 1_555 1_555
C65_3 C66_3 1_555 1_555
C20_4 C21_4 1_555 1_555
C21_4 H15_4 1_555 1_555
C22_3 C21_4 1_555 1_555
H16_3 C22_3 1_555 1_555
C23_3 C22_3 1_555 1_555
H17_3 C23_3 1_555 1_555
C24_3 C23_3 1_555 1_555
Cl2_3 C24_3 1_555 1_555
N6_4 C20_4 1_555 1_555
H18_4 N6_4 1_555 1_555
N7_4 C20_4 1_555 1_555
Ag2_5 N5_4 1_555 1_555
C37_4 C38_4 1_555 1_555
C38_4 H28_4 1_555 1_555
C39_4 C38_4 1_555 1_555
H29_4 C39_4 1_555 1_555
C40_4 C39_4 1_555 1_555
C41_4 C40_4 1_555 1_555
H30_4 C41_4 1_555 1_555
C42_4 C37_4 1_555 1_555
H31_4 C42_4 1_555 1_555
C43_4 C40_4 1_555 1_555
N11_4 C37_4 1_555 1_555
C49_4 N11_4 1_555 1_555
C50_4 C49_4 1_555 1_555
H37_4 C50_4 1_555 1_555
C51_4 C50_4 1_555 1_555
H38_4 C51_4 1_555 1_555
C52_4 C51_4 1_555 1_555
C53_4 C52_4 1_555 1_555
H39_4 C53_4 1_555 1_555
C54_4 C49_4 1_555 1_555
H40_4 C54_4 1_555 1_555
C55_4 C52_4 1_555 1_555
C61_4 N11_4 1_555 1_555
C62_4 C61_4 1_555 1_555
H46_4 C62_4 1_555 1_555
C63_4 C62_4 1_555 1_555
H47_4 C63_4 1_555 1_555
C64_4 C63_4 1_555 1_555
C65_4 C64_4 1_555 1_555
H48_4 C65_4 1_555 1_555
C66_4 C61_4 1_555 1_555
H49_4 C66_4 1_555 1_555
C67_4 C64_4 1_555 1_555
C24_3 N7_4 1_555 1_555
N5_4 N6_4 1_555 1_555
N7_4 Ag2_5 1_555 1_555
C41_4 C42_4 1_555 1_555
C53_4 C54_4 1_555 1_555
C65_4 C66_4 1_555 1_555
C44_4 C45_4 1_555 1_555
C45_4 H33_4 1_555 1_555
C46_3 C45_4 1_555 1_555
H34_3 C46_3 1_555 1_555
C47_3 C46_3 1_555 1_555
H35_3 C47_3 1_555 1_555
C48_3 C47_3 1_555 1_555
Cl4_3 C48_3 1_555 1_555
N13_4 C44_4 1_555 1_555
H36_4 N13_4 1_555 1_555
N23 C44_4 1_555 1_555
C48_3 N23 1_555 1_555
N21 N13_4 1_555 1_555
C68_4 C69_4 1_555 1_555
C69_4 H51_4 1_555 1_555
C70_3 C69_4 1_555 1_555
H52_3 C70_3 1_555 1_555
C71_3 C70_3 1_555 1_555
H53_3 C71_3 1_555 1_555
C72_3 C71_3 1_555 1_555
Cl6_3 C72_3 1_555 1_555
N19_4 C68_4 1_555 1_555
H54_4 N19_4 1_555 1_555
N24_2 C68_4 1_555 1_555
C72_3 N24_2 1_555 1_555
N22_2 N19_4 1_555 1_555
C1_4 C2_4 1_555 1_555
C2_4 H1_4 1_555 1_555
C3_4 C2_4 1_555 1_555
H2_4 C3_4 1_555 1_555
C4_4 C3_4 1_555 1_555
C5_4 C4_4 1_555 1_555
H3_4 C5_4 1_555 1_555
C6_4 C1_4 1_555 1_555
H4_4 C6_4 1_555 1_555
C7_4 C4_4 1_555 1_555
N1_4 C1_4 1_555 1_555
C13_4 N1_4 1_555 1_555
C14_4 C13_4 1_555 1_555
H10_4 C14_4 1_555 1_555
C15_4 C14_4 1_555 1_555
H11_4 C15_4 1_555 1_555
C16_4 C15_4 1_555 1_555
C17_4 C16_4 1_555 1_555
H12_4 C17_4 1_555 1_555
C18_4 C13_4 1_555 1_555
H13_4 C18_4 1_555 1_555
C19_4 C16_4 1_555 1_555
C25_4 N1_4 1_555 1_555
C26_4 C25_4 1_555 1_555
H19_4 C26_4 1_555 1_555
C27_4 C26_4 1_555 1_555
H20_4 C27_4 1_555 1_555
C28_4 C27_4 1_555 1_555
C29_4 C28_4 1_555 1_555
H21_4 C29_4 1_555 1_555
C30_4 C25_4 1_555 1_555
H22_4 C30_4 1_555 1_555
C31_4 C28_4 1_555 1_555
H23_4 C31_4 1_555 1_555
C32_4 C33_4 1_555 1_555
C33_4 H24_4 1_555 1_555
C34_3 C33_4 1_555 1_555
H25_3 C34_3 1_555 1_555
C35_3 C34_3 1_555 1_555
H26_3 C35_3 1_555 1_555
C36_3 C35_3 1_555 1_555
Cl3_3 C36_3 1_555 1_555
N8_4 C31_4 1_555 1_555
N9_4 C32_4 1_555 1_555
H27_4 N9_4 1_555 1_555
N10_4 C32_4 1_555 1_555
Ag5_2 N8_4 1_555 1_555
C56_4 C57_4 1_555 1_555
C57_4 H42_4 1_555 1_555
C58_3 C57_4 1_555 1_555
H43_3 C58_3 1_555 1_555
C59_3 C58_3 1_555 1_555
H44_3 C59_3 1_555 1_555
C60_3 C59_3 1_555 1_555
Cl5_3 C60_3 1_555 1_555
N15_4 Ag2_6 1_555 1_555
N16_4 C56_4 1_555 1_555
H45_4 N16_4 1_555 1_555
N17_4 Ag2_6 1_555 1_555
C5_4 C6_4 1_555 1_555
C17_4 C18_4 1_555 1_555
C29_4 C30_4 1_555 1_555
C36_3 N10_4 1_555 1_555
N8_4 N9_4 1_555 1_555
N10_4 Ag5_2 1_555 1_555
C56_4 N17_4 1_555 1_555
C60_3 N17_4 1_555 1_555
N15_4 N16_4 1_555 1_555
Ag4_2 N2_4 1_555 1_555
C8_4 C9_4 1_555 1_555
C9_4 H6_4 1_555 1_555
N3_4 C8_4 1_555 1_555
H9_4 N3_4 1_555 1_555
N4_4 Ag4_2 1_555 1_555
C8_4 N4_4 1_555 1_555
N2_4 N3_4 1_555 1_555
H34_4 C46_4 1_555 1_555
C47_4 C46_4 1_555 1_555
H35_4 C47_4 1_555 1_555
C48_4 C47_4 1_555 1_555
Cl4_4 C48_4 1_555 1_555
H25_4 C34_4 1_555 1_555
C35_4 C34_4 1_555 1_555
H26_4 C35_4 1_555 1_555
C36_4 C35_4 1_555 1_555
Cl3_4 C36_4 1_555 1_555
H43_4 C58_4 1_555 1_555
C59_4 C58_4 1_555 1_555
H44_4 C59_4 1_555 1_555
C60_4 C59_4 1_555 1_555
Cl5_4 C60_4 1_555 1_555
H16_4 C22_4 1_555 1_555
C23_4 C22_4 1_555 1_555
H17_4 C23_4 1_555 1_555
C24_4 C23_4 1_555 1_555
Cl2_4 C24_4 1_555 1_555
H52_4 C70_4 1_555 1_555
C71_4 C70_4 1_555 1_555
H53_4 C71_4 1_555 1_555
C72_4 C71_4 1_555 1_555
Cl6_4 C72_4 1_555 1_555
H7_4 C10_4 1_555 1_555
C11_4 C10_4 1_555 1_555
H8_4 C11_4 1_555 1_555
C12_4 C11_4 1_555 1_555
Cl1_4 C12_4 1_555 1_555
Cl7 O1 1_555 1_555
O2 Cl7 1_555 1_555
O3 Cl7 1_555 1_555
O4 Cl7 1_555 1_555
Cl7_2 O1_2 1_555 1_555
O2_2 Cl7_2 1_555 1_555
O3_2 Cl7_2 1_555 1_555
O4_2 Cl7_2 1_555 1_555
O3_3 Cl7_3 1_555 1_555
O4_3 Cl7_3 1_555 1_555
Cl7_4 O1_3 1_555 1_555
O2_3 Cl7_4 1_555 1_555
Cl7_5 O1_4 1_555 1_555
O2_4 Cl7_5 1_555 1_555
O3_4 Cl7_6 1_555 1_555
O4_4 Cl7_6 1_555 1_555
Cl7_7 O1_5 1_555 1_555
O2_5 Cl7_7 1_555 1_555
O3_5 Cl7_7 1_555 1_555
O4_5 Cl7_7 1_555 1_555
Cl7_8 O1_6 1_555 1_555
O2_6 Cl7_8 1_555 1_555
O3_6 Cl7_8 1_555 1_555
O4_6 Cl7_8 1_555 1_555
O3_7 Cl7_9 1_555 1_555
O4_7 Cl7_9 1_555 1_555
Cl7_10 O1_7 1_555 1_555
O2_7 Cl7_10 1_555 1_555
Cl7_11 O1_8 1_555 1_555
O2_8 Cl7_11 1_555 1_555
O3_8 Cl7_12 1_555 1_555
O4_8 Cl7_12 1_555 1_555
Cl7_13 O1_9 1_555 1_555
O2_9 Cl7_13 1_555 1_555
O3_9 Cl7_13 1_555 1_555
O4_9 Cl7_13 1_555 1_555
Cl7_14 O1_10 1_555 1_555
O2_10 Cl7_14 1_555 1_555
O3_10 Cl7_14 1_555 1_555
O4_10 Cl7_14 1_555 1_555
O3_11 Cl7_15 1_555 1_555
O4_11 Cl7_15 1_555 1_555
Cl7_16 O1_11 1_555 1_555
O2_11 Cl7_16 1_555 1_555
Cl7_17 O1_12 1_555 1_555
O2_12 Cl7_17 1_555 1_555
O3_12 Cl7_18 1_555 1_555
O4_12 Cl7_18 1_555 1_555

#END
