
###############################################################################
#
# This file contains modified crystal structure data generated from the
# MOF subset of the Cambridge Structural Database (CSD) v543 
# hosted by the Cambridge Crystallographic Data Centre (CCDC).
#
# This work is licensed under the Creative Commons
# Attribution-NonCommercial-ShareAlike 4.0 International License.
# To view a copy of this license, visit
# http://creativecommons.org/licenses/by-nc-sa/4.0/
# or send a letter to
# Creative Commons, PO Box 1866, Mountain View, CA 94042, USA.
#
# CIF created using the CSD Python API on 29 September 2022
# The structure has been converted into the P1 space group
# The structure has a 3D framework
# The original CSD entry KENTEF05 is in the cubic crystal system
# The original CSD entry KENTEF05 is in a Sohncke space group
# The framework has been calculated to contain at least 10.0% void space
# The void calculation uses a probe of radius 1.32A, grid spacing 0.4
# The framework is charged, counterions have been retained in the structure
#
###############################################################################

data_KENTEF05
_chemical_formula_moiety         '(C288 H216 Ag14 Br24 Cl18 N80 O48 2+)n'
_symmetry_cell_setting           triclinic
_symmetry_space_group_name_H-M   'P 1'
_symmetry_Int_Tables_number      1
_space_group_name_Hall           'P 1'
loop_
_symmetry_equiv_pos_site_id
_symmetry_equiv_pos_as_xyz
1 x,y,z
_cell_length_a                   21.3139(3)
_cell_length_b                   21.3139(3)
_cell_length_c                   21.3139(3)
_cell_angle_alpha                90
_cell_angle_beta                 90
_cell_angle_gamma                90
_cell_volume                     9682.53
loop_
_atom_site_label
_atom_site_type_symbol
_atom_site_fract_x
_atom_site_fract_y
_atom_site_fract_z
Ag1 Ag 0.7500 0.71275(3) 0.0000
C1 C 0.5767(2) 0.5049(2) 0.0054(2)
C2 C 0.6238(2) 0.4664(2) 0.0285(2)
H1 H 0.6196 0.4227 0.0251
C3 C 0.6757(2) 0.4908(2) 0.0559(2)
H2 H 0.7059 0.4638 0.0734
C4 C 0.6847(2) 0.5554(2) 0.0585(2)
C5 C 0.6389(2) 0.5942(2) 0.0338(2)
H3 H 0.6447 0.6379 0.0346
C6 C 0.5845(2) 0.5696(2) 0.0078(2)
C7 C 0.7424(2) 0.5790(2) 0.0882(2)
H5 H 0.7663 0.5509 0.1125
C8 C 0.8455(2) 0.7042(2) 0.1086(2)
C9 C 0.8920(3) 0.7211(3) 0.1527(3)
H6 H 0.8996 0.6964 0.1884
C10 C 0.9253(3) 0.7744(3) 0.1418(3)
H7 H 0.9569 0.7865 0.1701
C11 C 0.9134(3) 0.8108(3) 0.0898(3)
H8 H 0.9368 0.8473 0.0816
C12 C 0.8666(3) 0.7920(3) 0.0507(3)
N2 N 0.76165(19) 0.63475(18) 0.08306(18)
N3 N 0.8143(2) 0.6494(2) 0.1178(2)
H9 H 0.8277 0.6231 0.1460
N4 N 0.8327(2) 0.7393(2) 0.0587(2)
Br2 Br 0.51991(4) 0.15420(5) 0.34033(4)
C13 C 0.4946(2) 0.4233(2) 0.0049(2)
C16 C 0.4415(2) 0.3153(2) 0.0554(2)
C17 C 0.4662(2) 0.3611(2) 0.0942(2)
H12 H 0.4654 0.3553 0.1379
C18 C 0.4922(2) 0.4155(2) 0.0696(2)
H13 H 0.5079 0.4468 0.0965
C19 C 0.4118(2) 0.2576(2) 0.0790(2)
H14 H 0.3875 0.2337 0.0509
C20 C 0.3914(2) 0.1545(2) 0.2042(2)
C21 C 0.3473(3) 0.1080(3) 0.2211(3)
H15 H 0.3116 0.1004 0.1964
C22 C 0.3582(3) 0.0747(3) 0.2744(3)
H16 H 0.3299 0.0431 0.2865
C23 C 0.4102(3) 0.0866(3) 0.3108(3)
H17 H 0.4184 0.0632 0.3473
C24 C 0.4493(3) 0.1334(3) 0.2920(3)
N5 N 0.41694(18) 0.23835(19) 0.13475(18)
N6 N 0.3822(2) 0.1857(2) 0.1494(2)
H18 H 0.3540 0.1723 0.1231
N7 N 0.4413(2) 0.1673(2) 0.2393(2)
Ag2 Ag 0.5000 0.2500 0.21275(3)
C38 C 0.3762(2) 0.0336(2) 0.0285(2)
H28 H 0.3804 0.0773 0.0251
C39 C 0.3243(2) 0.0092(2) 0.0559(2)
H29 H 0.2941 0.0362 0.0734
Br5 Br 0.48009(4) 0.34580(5) 0.34033(4)
C49 C 0.5054(2) 0.0767(2) 0.0049(2)
C52 C 0.5585(2) 0.1847(2) 0.0554(2)
C53 C 0.5338(2) 0.1389(2) 0.0942(2)
H39 H 0.5346 0.1447 0.1379
C54 C 0.5078(2) 0.0845(2) 0.0696(2)
H40 H 0.4921 0.0532 0.0965
C55 C 0.5882(2) 0.2424(2) 0.0790(2)
H41 H 0.6125 0.2663 0.0509
C56 C 0.6086(2) 0.3455(2) 0.2042(2)
C57 C 0.6527(3) 0.3920(3) 0.2211(3)
H42 H 0.6884 0.3996 0.1964
C58 C 0.6418(3) 0.4253(3) 0.2744(3)
H43 H 0.6701 0.4569 0.2865
C59 C 0.5898(3) 0.4134(3) 0.3108(3)
H44 H 0.5816 0.4368 0.3473
C60 C 0.5507(3) 0.3666(3) 0.2920(3)
N15 N 0.58306(18) 0.26165(19) 0.13475(18)
N16 N 0.6178(2) 0.3143(2) 0.1494(2)
H45 H 0.6460 0.3277 0.1231
N17 N 0.5587(2) 0.3327(2) 0.2393(2)
Ag1_2 Ag 0.7500 0.71275(3) 1.0000
Br1 Br 0.84580(5) 0.84033(4) 0.98009(4)
H4 H 0.5532 0.5965 0.9921
N1 N 0.5207(2) 0.4793(2) 0.9793(2)
C14 C 0.4715(2) 0.3762(2) 0.9664(2)
H10 H 0.4749 0.3804 0.9227
C15 C 0.4441(2) 0.3243(2) 0.9908(2)
H11 H 0.4266 0.2941 0.9638
Br3 Br 0.15967(4) 0.48009(4) 0.65420(5)
C25 C 0.4951(2) 0.5054(2) 0.9233(2)
C26 C 0.5336(2) 0.5285(2) 0.8762(2)
H19 H 0.5773 0.5251 0.8804
C27 C 0.5092(2) 0.5559(2) 0.8243(2)
H20 H 0.5362 0.5734 0.7941
C28 C 0.4446(2) 0.5585(2) 0.8153(2)
C29 C 0.4058(2) 0.5338(2) 0.8611(2)
H21 H 0.3621 0.5346 0.8553
C30 C 0.4304(2) 0.5078(2) 0.9155(2)
H22 H 0.4035 0.4921 0.9468
C31 C 0.4210(2) 0.5882(2) 0.7576(2)
H23 H 0.4491 0.6125 0.7337
C32 C 0.2958(2) 0.6086(2) 0.6545(2)
C33 C 0.2789(3) 0.6527(3) 0.6080(3)
H24 H 0.3036 0.6884 0.6004
C34 C 0.2256(3) 0.6418(3) 0.5747(3)
H25 H 0.2135 0.6701 0.5431
C35 C 0.1892(3) 0.5898(3) 0.5866(3)
H26 H 0.1527 0.5816 0.5632
C36 C 0.2080(3) 0.5507(3) 0.6334(3)
N8 N 0.36525(18) 0.58306(18) 0.73835(19)
N9 N 0.3506(2) 0.6178(2) 0.6857(2)
H27 H 0.3769 0.6460 0.6723
N10 N 0.2607(2) 0.5587(2) 0.6673(2)
Ag3 Ag 0.28725(3) 0.5000 0.7500
N11 N 0.4793(2) 0.0207(2) 0.9793(2)
C50 C 0.5285(2) 0.1238(2) 0.9664(2)
H37 H 0.5251 0.1196 0.9227
C51 C 0.5559(2) 0.1757(2) 0.9908(2)
H38 H 0.5734 0.2059 0.9638
Br6 Br 0.84033(4) 0.01991(4) 0.65420(5)
H49 H 0.5965 0.0079 0.9468
Ag5 Ag 0.71275(3) 0.0000 0.7500
N21 N 0.73835(19) 0.63475(18) 0.91694(18)
N22 N 0.36525(18) 0.41694(18) 0.76165(19)
N23 N 0.6673(2) 0.7393(2) 0.9413(2)
N24 N 0.2607(2) 0.4413(2) 0.8327(2)
C37 C 0.4233(2) 0.9951(2) 0.0054(2)
C40 C 0.3153(2) 0.9446(2) 0.0585(2)
C41 C 0.3611(2) 0.9058(2) 0.0338(2)
H30 H 0.3553 0.8621 0.0346
C42 C 0.4155(2) 0.9304(2) 0.0078(2)
C43 C 0.2576(2) 0.9210(2) 0.0882(2)
H32 H 0.2337 0.9491 0.1125
C44 C 0.1545(2) 0.7958(2) 0.1086(2)
C45 C 0.1080(3) 0.7789(3) 0.1527(3)
H33 H 0.1004 0.8036 0.1884
C46 C 0.0747(3) 0.7256(3) 0.1418(3)
H34 H 0.0431 0.7135 0.1701
C47 C 0.0866(3) 0.6892(3) 0.0898(3)
H35 H 0.0632 0.6527 0.0816
C48 C 0.1334(3) 0.7080(3) 0.0507(3)
N12 N 0.23835(19) 0.86525(18) 0.08306(18)
N13 N 0.1857(2) 0.8506(2) 0.1178(2)
H36 H 0.1723 0.8769 0.1460
N14 N 0.1673(2) 0.7607(2) 0.0587(2)
Ag4 Ag 0.2500 0.78725(3) 0.0000
Br4 Br 0.15420(5) 0.65967(4) 0.98009(4)
H31 H 0.4468 0.9035 0.9921
C61 C 0.5049(2) 0.9946(2) 0.9233(2)
C62 C 0.4664(2) 0.9715(2) 0.8762(2)
H46 H 0.4227 0.9749 0.8804
C63 C 0.4908(2) 0.9441(2) 0.8243(2)
H47 H 0.4638 0.9266 0.7941
C64 C 0.5554(2) 0.9415(2) 0.8153(2)
C65 C 0.5942(2) 0.9662(2) 0.8611(2)
H48 H 0.6379 0.9654 0.8553
C66 C 0.5696(2) 0.9922(2) 0.9155(2)
C67 C 0.5790(2) 0.9118(2) 0.7576(2)
H50 H 0.5509 0.8875 0.7337
C68 C 0.7042(2) 0.8914(2) 0.6545(2)
C69 C 0.7211(3) 0.8473(3) 0.6080(3)
H51 H 0.6964 0.8116 0.6004
C70 C 0.7744(3) 0.8582(3) 0.5747(3)
H52 H 0.7865 0.8299 0.5431
C71 C 0.8108(3) 0.9102(3) 0.5866(3)
H53 H 0.8473 0.9184 0.5632
C72 C 0.7920(3) 0.9493(3) 0.6334(3)
N18 N 0.63475(18) 0.91694(18) 0.73835(19)
N19 N 0.6494(2) 0.8822(2) 0.6857(2)
H54 H 0.6231 0.8540 0.6723
N20 N 0.7393(2) 0.9413(2) 0.6673(2)
Ag4_2 Ag 0.2500 0.78725(3) 1.0000
Ag5_2 Ag 0.71275(3) 1.0000 0.7500
Br4_2 Br 0.34580(5) 0.34033(4) 0.48009(4)
C37_2 C 0.0767(2) 0.0049(2) 0.5054(2)
C40_2 C 0.1847(2) 0.0554(2) 0.5585(2)
C41_2 C 0.1389(2) 0.0942(2) 0.5338(2)
H30_2 H 0.1447 0.1379 0.5346
C42_2 C 0.0845(2) 0.0696(2) 0.5078(2)
H31_2 H 0.0532 0.0965 0.4921
C43_2 C 0.2424(2) 0.0790(2) 0.5882(2)
H32_2 H 0.2663 0.0509 0.6125
C44_2 C 0.3455(2) 0.2042(2) 0.6086(2)
C45_2 C 0.3920(3) 0.2211(3) 0.6527(3)
H33_2 H 0.3996 0.1964 0.6884
C46_2 C 0.4253(3) 0.2744(3) 0.6418(3)
H34_2 H 0.4569 0.2865 0.6701
C47_2 C 0.4134(3) 0.3108(3) 0.5898(3)
H35_2 H 0.4368 0.3473 0.5816
C48_2 C 0.3666(3) 0.2920(3) 0.5507(3)
N12_2 N 0.26165(19) 0.13475(18) 0.58306(18)
N13_2 N 0.3143(2) 0.1494(2) 0.6178(2)
H36_2 H 0.3277 0.1231 0.6460
N14_2 N 0.3327(2) 0.2393(2) 0.5587(2)
C62_2 C 0.0336(2) 0.0285(2) 0.3762(2)
H46_2 H 0.0773 0.0251 0.3804
C63_2 C 0.0092(2) 0.0559(2) 0.3243(2)
H47_2 H 0.0362 0.0734 0.2941
Ag4_3 Ag 0.2500 0.21275(3) 0.5000
C13_2 C 0.0054(2) 0.5767(2) 0.5049(2)
C14_2 C 0.0285(2) 0.6238(2) 0.4664(2)
H10_2 H 0.0251 0.6196 0.4227
C15_2 C 0.0559(2) 0.6757(2) 0.4908(2)
H11_2 H 0.0734 0.7059 0.4638
C16_2 C 0.0585(2) 0.6847(2) 0.5554(2)
C17_2 C 0.0338(2) 0.6389(2) 0.5942(2)
H12_2 H 0.0346 0.6447 0.6379
C18_2 C 0.0078(2) 0.5845(2) 0.5696(2)
C19_2 C 0.0882(2) 0.7424(2) 0.5790(2)
H14_2 H 0.1125 0.7663 0.5509
C20_2 C 0.1086(2) 0.8455(2) 0.7042(2)
C21_2 C 0.1527(3) 0.8920(3) 0.7211(3)
H15_2 H 0.1884 0.8996 0.6964
C22_2 C 0.1418(3) 0.9253(3) 0.7744(3)
H16_2 H 0.1701 0.9569 0.7865
C23_2 C 0.0898(3) 0.9134(3) 0.8108(3)
H17_2 H 0.0816 0.9368 0.8473
C24_2 C 0.0507(3) 0.8666(3) 0.7920(3)
N5_2 N 0.08306(18) 0.76165(19) 0.63475(18)
N6_2 N 0.1178(2) 0.8143(2) 0.6494(2)
H18_2 H 0.1460 0.8277 0.6231
N7_2 N 0.0587(2) 0.8327(2) 0.7393(2)
Br3_2 Br 0.34033(4) 0.51991(4) 0.15420(5)
C25_2 C 0.0049(2) 0.4946(2) 0.4233(2)
C28_2 C 0.0554(2) 0.4415(2) 0.3153(2)
C29_2 C 0.0942(2) 0.4662(2) 0.3611(2)
H21_2 H 0.1379 0.4654 0.3553
C30_2 C 0.0696(2) 0.4922(2) 0.4155(2)
H22_2 H 0.0965 0.5079 0.4468
C31_2 C 0.0790(2) 0.4118(2) 0.2576(2)
H23_2 H 0.0509 0.3875 0.2337
C32_2 C 0.2042(2) 0.3914(2) 0.1545(2)
C33_2 C 0.2211(3) 0.3473(3) 0.1080(3)
H24_2 H 0.1964 0.3116 0.1004
C34_2 C 0.2744(3) 0.3582(3) 0.0747(3)
H25_2 H 0.2865 0.3299 0.0431
C35_2 C 0.3108(3) 0.4102(3) 0.0866(3)
H26_2 H 0.3473 0.4184 0.0632
C36_2 C 0.2920(3) 0.4493(3) 0.1334(3)
N8_2 N 0.13475(18) 0.41694(18) 0.23835(19)
N9_2 N 0.1494(2) 0.3822(2) 0.1857(2)
H27_2 H 0.1231 0.3540 0.1723
N10_2 N 0.2393(2) 0.4413(2) 0.1673(2)
Ag2_2 Ag -0.0000 0.7500 0.71275(3)
Ag3_2 Ag 0.21275(3) 0.5000 0.2500
C38_2 C 0.1238(2) 0.9664(2) 0.5285(2)
H28_2 H 0.1196 0.9227 0.5251
C39_2 C 0.1757(2) 0.9908(2) 0.5559(2)
H29_2 H 0.2059 0.9638 0.5734
N11_2 N 0.0207(2) 0.9793(2) 0.4793(2)
Br5_2 Br 0.01991(4) 0.65420(5) 0.84033(4)
H40_2 H 0.0079 0.9468 0.5965
N22_2 N 0.13475(18) 0.58306(18) 0.26165(19)
N24_2 N 0.2393(2) 0.5587(2) 0.3327(2)
C61_2 C 0.9951(2) 0.0054(2) 0.4233(2)
C64_2 C 0.9446(2) 0.0585(2) 0.3153(2)
C65_2 C 0.9058(2) 0.0338(2) 0.3611(2)
H48_2 H 0.8621 0.0346 0.3553
C66_2 C 0.9304(2) 0.0078(2) 0.4155(2)
C67_2 C 0.9210(2) 0.0882(2) 0.2576(2)
H50_2 H 0.9491 0.1125 0.2337
C68_2 C 0.7958(2) 0.1086(2) 0.1545(2)
C69_2 C 0.7789(3) 0.1527(3) 0.1080(3)
H51_2 H 0.8036 0.1884 0.1004
C70_2 C 0.7256(3) 0.1418(3) 0.0747(3)
H52_2 H 0.7135 0.1701 0.0431
C71_2 C 0.6892(3) 0.0898(3) 0.0866(3)
H53_2 H 0.6527 0.0816 0.0632
C72_2 C 0.7080(3) 0.0507(3) 0.1334(3)
N18_2 N 0.86525(18) 0.08306(18) 0.23835(19)
N19_2 N 0.8506(2) 0.1178(2) 0.1857(2)
H54_2 H 0.8769 0.1460 0.1723
N20_2 N 0.7607(2) 0.0587(2) 0.1673(2)
Ag5_3 Ag 0.78725(3) 0.0000 0.2500
Ag1_3 Ag 0.7500 0.28725(3) 0.5000
Br1_2 Br 0.65420(5) 0.15967(4) 0.48009(4)
C1_2 C 0.9233(2) 0.4951(2) 0.5054(2)
C2_2 C 0.8762(2) 0.5336(2) 0.5285(2)
H1_2 H 0.8804 0.5773 0.5251
C3_2 C 0.8243(2) 0.5092(2) 0.5559(2)
H2_2 H 0.7941 0.5362 0.5734
C4_2 C 0.8153(2) 0.4446(2) 0.5585(2)
C5_2 C 0.8611(2) 0.4058(2) 0.5338(2)
H3_2 H 0.8553 0.3621 0.5346
C6_2 C 0.9155(2) 0.4304(2) 0.5078(2)
H4_2 H 0.9468 0.4035 0.4921
C7_2 C 0.7576(2) 0.4210(2) 0.5882(2)
H5_2 H 0.7337 0.4491 0.6125
C8_2 C 0.6545(2) 0.2958(2) 0.6086(2)
C9_2 C 0.6080(3) 0.2789(3) 0.6527(3)
H6_2 H 0.6004 0.3036 0.6884
C10_2 C 0.5747(3) 0.2256(3) 0.6418(3)
H7_2 H 0.5431 0.2135 0.6701
C11_2 C 0.5866(3) 0.1892(3) 0.5898(3)
H8_2 H 0.5632 0.1527 0.5816
C12_2 C 0.6334(3) 0.2080(3) 0.5507(3)
N1_2 N 0.9793(2) 0.5207(2) 0.4793(2)
N2_2 N 0.73835(19) 0.36525(18) 0.58306(18)
N3_2 N 0.6857(2) 0.3506(2) 0.6178(2)
H9_2 H 0.6723 0.3769 0.6460
N4_2 N 0.6673(2) 0.2607(2) 0.5587(2)
Br2_2 Br 0.98009(4) 0.84580(5) 0.84033(4)
H13_2 H 0.9921 0.5532 0.5965
C26_2 C 0.9664(2) 0.4715(2) 0.3762(2)
H19_2 H 0.9227 0.4749 0.3804
C27_2 C 0.9908(2) 0.4441(2) 0.3243(2)
H20_2 H 0.9638 0.4266 0.2941
Ag2_3 Ag 1.0000 0.7500 0.71275(3)
C49_2 C 0.9946(2) 0.9233(2) 0.5049(2)
C50_2 C 0.9715(2) 0.8762(2) 0.4664(2)
H37_2 H 0.9749 0.8804 0.4227
C51_2 C 0.9441(2) 0.8243(2) 0.4908(2)
H38_2 H 0.9266 0.7941 0.4638
C52_2 C 0.9415(2) 0.8153(2) 0.5554(2)
C53_2 C 0.9662(2) 0.8611(2) 0.5942(2)
H39_2 H 0.9654 0.8553 0.6379
C54_2 C 0.9922(2) 0.9155(2) 0.5696(2)
C55_2 C 0.9118(2) 0.7576(2) 0.5790(2)
H41_2 H 0.8875 0.7337 0.5509
C56_2 C 0.8914(2) 0.6545(2) 0.7042(2)
C57_2 C 0.8473(3) 0.6080(3) 0.7211(3)
H42_2 H 0.8116 0.6004 0.6964
C58_2 C 0.8582(3) 0.5747(3) 0.7744(3)
H43_2 H 0.8299 0.5431 0.7865
C59_2 C 0.9102(3) 0.5866(3) 0.8108(3)
H44_2 H 0.9184 0.5632 0.8473
C60_2 C 0.9493(3) 0.6334(3) 0.7920(3)
N15_2 N 0.91694(18) 0.73835(19) 0.63475(18)
N16_2 N 0.8822(2) 0.6857(2) 0.6494(2)
H45_2 H 0.8540 0.6723 0.6231
N17_2 N 0.9413(2) 0.6673(2) 0.7393(2)
Br6_2 Br 0.65967(4) 0.98009(4) 0.15420(5)
H49_2 H 0.9035 0.9921 0.4468
Ag5_4 Ag 0.78725(3) 1.0000 0.2500
N21_2 N 0.76165(19) 0.36525(18) 0.41694(18)
N23_2 N 0.8327(2) 0.2607(2) 0.4413(2)
Br1_3 Br 0.15420(5) 0.34033(4) 0.51991(4)
C1_3 C 0.4233(2) 0.0049(2) 0.4946(2)
C4_3 C 0.3153(2) 0.0554(2) 0.4415(2)
C5_3 C 0.3611(2) 0.0942(2) 0.4662(2)
H3_3 H 0.3553 0.1379 0.4654
C6_3 C 0.4155(2) 0.0696(2) 0.4922(2)
H4_3 H 0.4468 0.0965 0.5079
C7_3 C 0.2576(2) 0.0790(2) 0.4118(2)
H5_3 H 0.2337 0.0509 0.3875
C8_3 C 0.1545(2) 0.2042(2) 0.3914(2)
C9_3 C 0.1080(3) 0.2211(3) 0.3473(3)
H6_3 H 0.1004 0.1964 0.3116
C10_3 C 0.0747(3) 0.2744(3) 0.3582(3)
H7_3 H 0.0431 0.2865 0.3299
C11_3 C 0.0866(3) 0.3108(3) 0.4102(3)
H8_3 H 0.0632 0.3473 0.4184
C12_3 C 0.1334(3) 0.2920(3) 0.4493(3)
N2_3 N 0.23835(19) 0.13475(18) 0.41694(18)
N3_3 N 0.1857(2) 0.1494(2) 0.3822(2)
H9_3 H 0.1723 0.1231 0.3540
N4_3 N 0.1673(2) 0.2393(2) 0.4413(2)
C25_3 C 0.5049(2) 0.0054(2) 0.5767(2)
C26_3 C 0.4664(2) 0.0285(2) 0.6238(2)
H19_3 H 0.4227 0.0251 0.6196
C27_3 C 0.4908(2) 0.0559(2) 0.6757(2)
H20_3 H 0.4638 0.0734 0.7059
C28_3 C 0.5554(2) 0.0585(2) 0.6847(2)
C29_3 C 0.5942(2) 0.0338(2) 0.6389(2)
H21_3 H 0.6379 0.0346 0.6447
C30_3 C 0.5696(2) 0.0078(2) 0.5845(2)
C31_3 C 0.5790(2) 0.0882(2) 0.7424(2)
H23_3 H 0.5509 0.1125 0.7663
C32_3 C 0.7042(2) 0.1086(2) 0.8455(2)
C33_3 C 0.7211(3) 0.1527(3) 0.8920(3)
H24_3 H 0.6964 0.1884 0.8996
C34_3 C 0.7744(3) 0.1418(3) 0.9253(3)
H25_3 H 0.7865 0.1701 0.9569
C35_3 C 0.8108(3) 0.0898(3) 0.9134(3)
H26_3 H 0.8473 0.0816 0.9368
C36_3 C 0.7920(3) 0.0507(3) 0.8666(3)
N8_3 N 0.63475(18) 0.08306(18) 0.76165(19)
N9_3 N 0.6494(2) 0.1178(2) 0.8143(2)
H27_3 H 0.6231 0.1460 0.8277
N10_3 N 0.7393(2) 0.0587(2) 0.8327(2)
C2_3 C 0.3762(2) 0.9664(2) 0.4715(2)
H1_3 H 0.3804 0.9227 0.4749
C3_3 C 0.3243(2) 0.9908(2) 0.4441(2)
H2_3 H 0.2941 0.9638 0.4266
N1_3 N 0.4793(2) 0.9793(2) 0.5207(2)
Br2_3 Br 0.48009(4) 0.65420(5) 0.15967(4)
C13_3 C 0.5054(2) 0.9233(2) 0.4951(2)
C14_3 C 0.5285(2) 0.8762(2) 0.5336(2)
H10_3 H 0.5251 0.8804 0.5773
C15_3 C 0.5559(2) 0.8243(2) 0.5092(2)
H11_3 H 0.5734 0.7941 0.5362
C16_3 C 0.5585(2) 0.8153(2) 0.4446(2)
C17_3 C 0.5338(2) 0.8611(2) 0.4058(2)
H12_3 H 0.5346 0.8553 0.3621
C18_3 C 0.5078(2) 0.9155(2) 0.4304(2)
H13_3 H 0.4921 0.9468 0.4035
C19_3 C 0.5882(2) 0.7576(2) 0.4210(2)
H14_3 H 0.6125 0.7337 0.4491
C20_3 C 0.6086(2) 0.6545(2) 0.2958(2)
C21_3 C 0.6527(3) 0.6080(3) 0.2789(3)
H15_3 H 0.6884 0.6004 0.3036
C22_3 C 0.6418(3) 0.5747(3) 0.2256(3)
H16_3 H 0.6701 0.5431 0.2135
C23_3 C 0.5898(3) 0.5866(3) 0.1892(3)
H17_3 H 0.5816 0.5632 0.1527
C24_3 C 0.5507(3) 0.6334(3) 0.2080(3)
N5_3 N 0.58306(18) 0.73835(19) 0.36525(18)
N6_3 N 0.6178(2) 0.6857(2) 0.3506(2)
H18_3 H 0.6460 0.6723 0.3769
N7_3 N 0.5587(2) 0.6673(2) 0.2607(2)
Br3_3 Br 0.84033(4) 0.98009(4) 0.84580(5)
H22_3 H 0.5965 0.9921 0.5532
Ag2_4 Ag 0.5000 0.7500 0.28725(3)
Br4_3 Br 0.84580(5) 0.15967(4) 0.51991(4)
C37_3 C 0.5767(2) 0.4951(2) 0.4946(2)
C38_3 C 0.6238(2) 0.5336(2) 0.4715(2)
H28_3 H 0.6196 0.5773 0.4749
C39_3 C 0.6757(2) 0.5092(2) 0.4441(2)
H29_3 H 0.7059 0.5362 0.4266
C40_3 C 0.6847(2) 0.4446(2) 0.4415(2)
C41_3 C 0.6389(2) 0.4058(2) 0.4662(2)
H30_3 H 0.6447 0.3621 0.4654
C42_3 C 0.5845(2) 0.4304(2) 0.4922(2)
H31_3 H 0.5532 0.4035 0.5079
C43_3 C 0.7424(2) 0.4210(2) 0.4118(2)
H32_3 H 0.7663 0.4491 0.3875
C44_3 C 0.8455(2) 0.2958(2) 0.3914(2)
C45_3 C 0.8920(3) 0.2789(3) 0.3473(3)
H33_3 H 0.8996 0.3036 0.3116
C46_3 C 0.9253(3) 0.2256(3) 0.3582(3)
H34_3 H 0.9569 0.2135 0.3299
C47_3 C 0.9134(3) 0.1892(3) 0.4102(3)
H35_3 H 0.9368 0.1527 0.4184
C48_3 C 0.8666(3) 0.2080(3) 0.4493(3)
N11_3 N 0.5207(2) 0.5207(2) 0.5207(2)
N13_3 N 0.8143(2) 0.3506(2) 0.3822(2)
H36_3 H 0.8277 0.3769 0.3540
Br5_3 Br 0.51991(4) 0.84580(5) 0.15967(4)
C49_3 C 0.4946(2) 0.5767(2) 0.4951(2)
C50_3 C 0.4715(2) 0.6238(2) 0.5336(2)
H37_3 H 0.4749 0.6196 0.5773
C51_3 C 0.4441(2) 0.6757(2) 0.5092(2)
H38_3 H 0.4266 0.7059 0.5362
C52_3 C 0.4415(2) 0.6847(2) 0.4446(2)
C53_3 C 0.4662(2) 0.6389(2) 0.4058(2)
H39_3 H 0.4654 0.6447 0.3621
C54_3 C 0.4922(2) 0.5845(2) 0.4304(2)
H40_3 H 0.5079 0.5532 0.4035
C55_3 C 0.4118(2) 0.7424(2) 0.4210(2)
H41_3 H 0.3875 0.7663 0.4491
C56_3 C 0.3914(2) 0.8455(2) 0.2958(2)
C57_3 C 0.3473(3) 0.8920(3) 0.2789(3)
H42_3 H 0.3116 0.8996 0.3036
C58_3 C 0.3582(3) 0.9253(3) 0.2256(3)
H43_3 H 0.3299 0.9569 0.2135
C59_3 C 0.4102(3) 0.9134(3) 0.1892(3)
H44_3 H 0.4184 0.9368 0.1527
C60_3 C 0.4493(3) 0.8666(3) 0.2080(3)
N15_3 N 0.41694(18) 0.76165(19) 0.36525(18)
N16_3 N 0.3822(2) 0.8143(2) 0.3506(2)
H45_3 H 0.3540 0.8277 0.3769
N17_3 N 0.4413(2) 0.8327(2) 0.2607(2)
Br6_3 Br 0.15967(4) 0.51991(4) 0.84580(5)
C61_3 C 0.4951(2) 0.4946(2) 0.5767(2)
C62_3 C 0.5336(2) 0.4715(2) 0.6238(2)
H46_3 H 0.5773 0.4749 0.6196
C63_3 C 0.5092(2) 0.4441(2) 0.6757(2)
H47_3 H 0.5362 0.4266 0.7059
C64_3 C 0.4446(2) 0.4415(2) 0.6847(2)
C65_3 C 0.4058(2) 0.4662(2) 0.6389(2)
H48_3 H 0.3621 0.4654 0.6447
C66_3 C 0.4304(2) 0.4922(2) 0.5845(2)
H49_3 H 0.4035 0.5079 0.5532
C67_3 C 0.4210(2) 0.4118(2) 0.7424(2)
H50_3 H 0.4491 0.3875 0.7663
C68_3 C 0.2958(2) 0.3914(2) 0.8455(2)
C69_3 C 0.2789(3) 0.3473(3) 0.8920(3)
H51_3 H 0.3036 0.3116 0.8996
C70_3 C 0.2256(3) 0.3582(3) 0.9253(3)
H52_3 H 0.2135 0.3299 0.9569
C71_3 C 0.1892(3) 0.4102(3) 0.9134(3)
H53_3 H 0.1527 0.4184 0.9368
C72_3 C 0.2080(3) 0.4493(3) 0.8666(3)
N19_3 N 0.3506(2) 0.3822(2) 0.8143(2)
H54_3 H 0.3769 0.3540 0.8277
N1_4 N 0.0207(2) 0.0207(2) 0.0207(2)
C50_4 C 0.0285(2) 0.3762(2) 0.0336(2)
H37_4 H 0.0251 0.3804 0.0773
C51_4 C 0.0559(2) 0.3243(2) 0.0092(2)
H38_4 H 0.0734 0.2941 0.0362
Br6_4 Br 0.34033(4) 0.48009(4) 0.34580(5)
C61_4 C 0.0049(2) 0.5054(2) 0.0767(2)
C64_4 C 0.0554(2) 0.5585(2) 0.1847(2)
C65_4 C 0.0942(2) 0.5338(2) 0.1389(2)
H48_4 H 0.1379 0.5346 0.1447
C66_4 C 0.0696(2) 0.5078(2) 0.0845(2)
H49_4 H 0.0965 0.4921 0.0532
C67_4 C 0.0790(2) 0.5882(2) 0.2424(2)
H50_4 H 0.0509 0.6125 0.2663
C68_4 C 0.2042(2) 0.6086(2) 0.3455(2)
C69_4 C 0.2211(3) 0.6527(3) 0.3920(3)
H51_4 H 0.1964 0.6884 0.3996
C70_4 C 0.2744(3) 0.6418(3) 0.4253(3)
H52_4 H 0.2865 0.6701 0.4569
C71_4 C 0.3108(3) 0.5898(3) 0.4134(3)
H53_4 H 0.3473 0.5816 0.4368
C72_4 C 0.2920(3) 0.5507(3) 0.3666(3)
N19_4 N 0.1494(2) 0.6178(2) 0.3143(2)
H54_4 H 0.1231 0.6460 0.3277
C2_4 C 0.1238(2) 0.0336(2) 0.9715(2)
H1_4 H 0.1196 0.0773 0.9749
C3_4 C 0.1757(2) 0.0092(2) 0.9441(2)
H2_4 H 0.2059 0.0362 0.9266
Br2_4 Br 0.01991(4) 0.34580(5) 0.65967(4)
H13_4 H 0.0079 0.0532 0.9035
Ag2_5 Ag 0.0000 0.2500 0.78725(3)
C49_4 C 0.0054(2) 0.4233(2) 0.9951(2)
C52_4 C 0.0585(2) 0.3153(2) 0.9446(2)
C53_4 C 0.0338(2) 0.3611(2) 0.9058(2)
H39_4 H 0.0346 0.3553 0.8621
C54_4 C 0.0078(2) 0.4155(2) 0.9304(2)
C55_4 C 0.0882(2) 0.2576(2) 0.9210(2)
H41_4 H 0.1125 0.2337 0.9491
C56_4 C 0.1086(2) 0.1545(2) 0.7958(2)
C57_4 C 0.1527(3) 0.1080(3) 0.7789(3)
H42_4 H 0.1884 0.1004 0.8036
C58_4 C 0.1418(3) 0.0747(3) 0.7256(3)
H43_4 H 0.1701 0.0431 0.7135
C59_4 C 0.0898(3) 0.0866(3) 0.6892(3)
H44_4 H 0.0816 0.0632 0.6527
C60_4 C 0.0507(3) 0.1334(3) 0.7080(3)
N15_4 N 0.08306(18) 0.23835(19) 0.86525(18)
N16_4 N 0.1178(2) 0.1857(2) 0.8506(2)
H45_4 H 0.1460 0.1723 0.8769
N17_4 N 0.0587(2) 0.1673(2) 0.7607(2)
Br1_4 Br 0.34580(5) 0.65967(4) 0.01991(4)
H4_4 H 0.0532 0.9035 0.0079
C26_4 C 0.0336(2) 0.9715(2) 0.1238(2)
H19_4 H 0.0773 0.9749 0.1196
C27_4 C 0.0092(2) 0.9441(2) 0.1757(2)
H20_4 H 0.0362 0.9266 0.2059
C1_4 C 0.0767(2) 0.9951(2) 0.9946(2)
C4_4 C 0.1847(2) 0.9446(2) 0.9415(2)
C5_4 C 0.1389(2) 0.9058(2) 0.9662(2)
H3_4 H 0.1447 0.8621 0.9654
C6_4 C 0.0845(2) 0.9304(2) 0.9922(2)
C7_4 C 0.2424(2) 0.9210(2) 0.9118(2)
H5_4 H 0.2663 0.9491 0.8875
C8_4 C 0.3455(2) 0.7958(2) 0.8914(2)
C9_4 C 0.3920(3) 0.7789(3) 0.8473(3)
H6_4 H 0.3996 0.8036 0.8116
C10_4 C 0.4253(3) 0.7256(3) 0.8582(3)
H7_4 H 0.4569 0.7135 0.8299
C11_4 C 0.4134(3) 0.6892(3) 0.9102(3)
H8_4 H 0.4368 0.6527 0.9184
C12_4 C 0.3666(3) 0.7080(3) 0.9493(3)
N2_4 N 0.26165(19) 0.86525(18) 0.91694(18)
N3_4 N 0.3143(2) 0.8506(2) 0.8822(2)
H9_4 H 0.3277 0.8769 0.8540
N4_4 N 0.3327(2) 0.7607(2) 0.9413(2)
C14_4 C 0.9715(2) 0.1238(2) 0.0336(2)
H10_4 H 0.9749 0.1196 0.0773
C15_4 C 0.9441(2) 0.1757(2) 0.0092(2)
H11_4 H 0.9266 0.2059 0.0362
Br3_4 Br 0.65967(4) 0.01991(4) 0.34580(5)
H22_4 H 0.9035 0.0079 0.0532
Br4_4 Br 0.65420(5) 0.84033(4) 0.01991(4)
H31_4 H 0.9468 0.5965 0.0079
N11_4 N 0.9793(2) 0.4793(2) 0.0207(2)
C62_4 C 0.9664(2) 0.5285(2) 0.1238(2)
H46_4 H 0.9227 0.5251 0.1196
C63_4 C 0.9908(2) 0.5559(2) 0.1757(2)
H47_4 H 0.9638 0.5734 0.2059
C13_4 C 0.9946(2) 0.0767(2) 0.9951(2)
C16_4 C 0.9415(2) 0.1847(2) 0.9446(2)
C17_4 C 0.9662(2) 0.1389(2) 0.9058(2)
H12_4 H 0.9654 0.1447 0.8621
C18_4 C 0.9922(2) 0.0845(2) 0.9304(2)
C19_4 C 0.9118(2) 0.2424(2) 0.9210(2)
H14_4 H 0.8875 0.2663 0.9491
C20_4 C 0.8914(2) 0.3455(2) 0.7958(2)
C21_4 C 0.8473(3) 0.3920(3) 0.7789(3)
H15_4 H 0.8116 0.3996 0.8036
C22_4 C 0.8582(3) 0.4253(3) 0.7256(3)
H16_4 H 0.8299 0.4569 0.7135
C23_4 C 0.9102(3) 0.4134(3) 0.6892(3)
H17_4 H 0.9184 0.4368 0.6527
C24_4 C 0.9493(3) 0.3666(3) 0.7080(3)
N5_4 N 0.91694(18) 0.26165(19) 0.86525(18)
N6_4 N 0.8822(2) 0.3143(2) 0.8506(2)
H18_4 H 0.8540 0.3277 0.8769
N7_4 N 0.9413(2) 0.3327(2) 0.7607(2)
Ag2_6 Ag 1.0000 0.2500 0.78725(3)
C37_4 C 0.9233(2) 0.5049(2) 0.9946(2)
C38_4 C 0.8762(2) 0.4664(2) 0.9715(2)
H28_4 H 0.8804 0.4227 0.9749
C39_4 C 0.8243(2) 0.4908(2) 0.9441(2)
H29_4 H 0.7941 0.4638 0.9266
C40_4 C 0.8153(2) 0.5554(2) 0.9415(2)
C41_4 C 0.8611(2) 0.5942(2) 0.9662(2)
H30_4 H 0.8553 0.6379 0.9654
C42_4 C 0.9155(2) 0.5696(2) 0.9922(2)
C43_4 C 0.7576(2) 0.5790(2) 0.9118(2)
H32_4 H 0.7337 0.5509 0.8875
C44_4 C 0.6545(2) 0.7042(2) 0.8914(2)
C45_4 C 0.6080(3) 0.7211(3) 0.8473(3)
H33_4 H 0.6004 0.6964 0.8116
C46_4 C 0.5747(3) 0.7744(3) 0.8582(3)
H34_4 H 0.5431 0.7865 0.8299
C47_4 C 0.5866(3) 0.8108(3) 0.9102(3)
H35_4 H 0.5632 0.8473 0.9184
C48_4 C 0.6334(3) 0.7920(3) 0.9493(3)
N13_4 N 0.6857(2) 0.6494(2) 0.8822(2)
H36_4 H 0.6723 0.6231 0.8540
Br5_4 Br 0.98009(4) 0.15420(5) 0.65967(4)
H40_4 H 0.9921 0.4468 0.9035
C25_4 C 0.9951(2) 0.9946(2) 0.0767(2)
C28_4 C 0.9446(2) 0.9415(2) 0.1847(2)
C29_4 C 0.9058(2) 0.9662(2) 0.1389(2)
H21_4 H 0.8621 0.9654 0.1447
C30_4 C 0.9304(2) 0.9922(2) 0.0845(2)
C31_4 C 0.9210(2) 0.9118(2) 0.2424(2)
H23_4 H 0.9491 0.8875 0.2663
C32_4 C 0.7958(2) 0.8914(2) 0.3455(2)
C33_4 C 0.7789(3) 0.8473(3) 0.3920(3)
H24_4 H 0.8036 0.8116 0.3996
C34_4 C 0.7256(3) 0.8582(3) 0.4253(3)
H25_4 H 0.7135 0.8299 0.4569
C35_4 C 0.6892(3) 0.9102(3) 0.4134(3)
H26_4 H 0.6527 0.9184 0.4368
C36_4 C 0.7080(3) 0.9493(3) 0.3666(3)
N8_4 N 0.86525(18) 0.91694(18) 0.26165(19)
N9_4 N 0.8506(2) 0.8822(2) 0.3143(2)
H27_4 H 0.8769 0.8540 0.3277
N10_4 N 0.7607(2) 0.9413(2) 0.3327(2)
Cl1 Cl 0.0000 0.7500 0.31316(7)
O3 O 0.0239(2) 0.7993(2) 0.2749(2)
O4 O 0.0508(3) 0.7253(2) 0.3498(3)
Cl1_2 Cl 1.0000 0.7500 0.31316(7)
O1 O 0.9761(2) 0.7007(2) 0.2749(2)
O2 O 0.9492(3) 0.7747(2) 0.3498(3)
Cl1_3 Cl 0.5000 0.2500 0.81316(7)
O1_2 O 0.5239(2) 0.2993(2) 0.7749(2)
O2_2 O 0.5508(3) 0.2253(2) 0.8498(3)
O3_2 O 0.4761(2) 0.2007(2) 0.7749(2)
O4_2 O 0.4492(3) 0.2747(2) 0.8498(3)
Cl1_4 Cl 0.0000 0.2500 0.18684(7)
O1_3 O 0.0239(2) 0.2007(2) 0.2251(2)
O2_3 O 0.0508(3) 0.2747(2) 0.1502(3)
Cl1_5 Cl 1.0000 0.2500 0.18684(7)
O3_3 O 0.9761(2) 0.2993(2) 0.2251(2)
O4_3 O 0.9492(3) 0.2253(2) 0.1502(3)
Cl1_6 Cl 0.5000 0.7500 0.68684(7)
O1_4 O 0.4761(2) 0.7993(2) 0.7251(2)
O2_4 O 0.4492(3) 0.7253(2) 0.6502(3)
O3_4 O 0.5239(2) 0.7007(2) 0.7251(2)
O4_4 O 0.5508(3) 0.7747(2) 0.6502(3)
Cl1_7 Cl 0.31316(7) 0.0000 0.7500
O3_5 O 0.2749(2) 0.0239(2) 0.7993(2)
O4_5 O 0.3498(3) 0.0508(3) 0.7253(2)
Cl1_8 Cl 0.31316(7) 1.0000 0.7500
O1_5 O 0.2749(2) 0.9761(2) 0.7007(2)
O2_5 O 0.3498(3) 0.9492(3) 0.7747(2)
Cl1_9 Cl 0.81316(7) 0.5000 0.2500
O1_6 O 0.7749(2) 0.5239(2) 0.2993(2)
O2_6 O 0.8498(3) 0.5508(3) 0.2253(2)
O3_6 O 0.7749(2) 0.4761(2) 0.2007(2)
O4_6 O 0.8498(3) 0.4492(3) 0.2747(2)
Cl1_10 Cl 0.18684(7) 0.0000 0.2500
O1_7 O 0.2251(2) 0.0239(2) 0.2007(2)
O2_7 O 0.1502(3) 0.0508(3) 0.2747(2)
Cl1_11 Cl 0.18684(7) 1.0000 0.2500
O3_7 O 0.2251(2) 0.9761(2) 0.2993(2)
O4_7 O 0.1502(3) 0.9492(3) 0.2253(2)
Cl1_12 Cl 0.68684(7) 0.5000 0.7500
O1_8 O 0.7251(2) 0.4761(2) 0.7993(2)
O2_8 O 0.6502(3) 0.4492(3) 0.7253(2)
O3_8 O 0.7251(2) 0.5239(2) 0.7007(2)
O4_8 O 0.6502(3) 0.5508(3) 0.7747(2)
Cl1_13 Cl 0.7500 0.31316(7) 0.0000
O3_9 O 0.7993(2) 0.2749(2) 0.0239(2)
O4_9 O 0.7253(2) 0.3498(3) 0.0508(3)
Cl1_14 Cl 0.7500 0.31316(7) 1.0000
O1_9 O 0.7007(2) 0.2749(2) 0.9761(2)
O2_9 O 0.7747(2) 0.3498(3) 0.9492(3)
Cl1_15 Cl 0.2500 0.81316(7) 0.5000
O1_10 O 0.2993(2) 0.7749(2) 0.5239(2)
O2_10 O 0.2253(2) 0.8498(3) 0.5508(3)
O3_10 O 0.2007(2) 0.7749(2) 0.4761(2)
O4_10 O 0.2747(2) 0.8498(3) 0.4492(3)
Cl1_16 Cl 0.2500 0.18684(7) 0.0000
O1_11 O 0.2007(2) 0.2251(2) 0.0239(2)
O2_11 O 0.2747(2) 0.1502(3) 0.0508(3)
Cl1_17 Cl 0.2500 0.18684(7) 1.0000
O3_11 O 0.2993(2) 0.2251(2) 0.9761(2)
O4_11 O 0.2253(2) 0.1502(3) 0.9492(3)
Cl1_18 Cl 0.7500 0.68684(7) 0.5000
O1_12 O 0.7993(2) 0.7251(2) 0.4761(2)
O2_12 O 0.7253(2) 0.6502(3) 0.4492(3)
O3_12 O 0.7007(2) 0.7251(2) 0.5239(2)
O4_12 O 0.7747(2) 0.6502(3) 0.5508(3)
loop_
_geom_bond_atom_site_label_1
_geom_bond_atom_site_label_2
_geom_bond_site_symmetry_1
_geom_bond_site_symmetry_2
Ag1 N2 1_555 1_555
C1 C2 1_555 1_555
C2 H1 1_555 1_555
C3 C2 1_555 1_555
H2 C3 1_555 1_555
C4 C3 1_555 1_555
C5 C4 1_555 1_555
H3 C5 1_555 1_555
C6 C1 1_555 1_555
C7 C4 1_555 1_555
H5 C7 1_555 1_555
C8 C9 1_555 1_555
C9 H6 1_555 1_555
C10 C9 1_555 1_555
H7 C10 1_555 1_555
C11 C10 1_555 1_555
H8 C11 1_555 1_555
C12 C11 1_555 1_555
N2 C7 1_555 1_555
N3 C8 1_555 1_555
H9 N3 1_555 1_555
N4 Ag1 1_555 1_555
Br2 C24 1_555 1_555
C17 C16 1_555 1_555
H12 C17 1_555 1_555
C18 C13 1_555 1_555
H13 C18 1_555 1_555
C19 C16 1_555 1_555
H14 C19 1_555 1_555
C20 C21 1_555 1_555
C21 H15 1_555 1_555
C22 C21 1_555 1_555
H16 C22 1_555 1_555
C23 C22 1_555 1_555
H17 C23 1_555 1_555
C24 C23 1_555 1_555
N5 C19 1_555 1_555
N6 C20 1_555 1_555
H18 N6 1_555 1_555
N7 C20 1_555 1_555
Ag2 N5 1_555 1_555
C38 H28 1_555 1_555
C39 C38 1_555 1_555
H29 C39 1_555 1_555
Br5 C60 1_555 1_555
C53 C52 1_555 1_555
H39 C53 1_555 1_555
C54 C49 1_555 1_555
H40 C54 1_555 1_555
C55 C52 1_555 1_555
H41 C55 1_555 1_555
C56 C57 1_555 1_555
C57 H42 1_555 1_555
C58 C57 1_555 1_555
H43 C58 1_555 1_555
C59 C58 1_555 1_555
H44 C59 1_555 1_555
C60 C59 1_555 1_555
N15 Ag2 1_555 1_555
N16 C56 1_555 1_555
H45 N16 1_555 1_555
N17 Ag2 1_555 1_555
C5 C6 1_555 1_555
C8 N4 1_555 1_555
C12 N4 1_555 1_555
N2 N3 1_555 1_555
C17 C18 1_555 1_555
C24 N7 1_555 1_555
N5 N6 1_555 1_555
N7 Ag2 1_555 1_555
C53 C54 1_555 1_555
C55 N15 1_555 1_555
C56 N17 1_555 1_555
C60 N17 1_555 1_555
N15 N16 1_555 1_555
H10 C14 1_555 1_555
C15 C14 1_555 1_555
H11 C15 1_555 1_555
Br3 C36 1_555 1_555
C25 N1 1_555 1_555
C26 C25 1_555 1_555
H19 C26 1_555 1_555
C27 C26 1_555 1_555
H20 C27 1_555 1_555
C28 C27 1_555 1_555
C29 C28 1_555 1_555
H21 C29 1_555 1_555
C30 C25 1_555 1_555
H22 C30 1_555 1_555
C31 C28 1_555 1_555
H23 C31 1_555 1_555
C32 C33 1_555 1_555
C33 H24 1_555 1_555
C34 C33 1_555 1_555
H25 C34 1_555 1_555
C35 C34 1_555 1_555
H26 C35 1_555 1_555
C36 C35 1_555 1_555
N8 C31 1_555 1_555
N9 C32 1_555 1_555
H27 N9 1_555 1_555
N10 C32 1_555 1_555
Ag3 N8 1_555 1_555
H37 C50 1_555 1_555
C51 C50 1_555 1_555
H38 C51 1_555 1_555
N21 Ag1_2 1_555 1_555
N22 Ag3 1_555 1_555
N23 Ag1_2 1_555 1_555
N24 Ag3 1_555 1_555
C29 C30 1_555 1_555
C36 N10 1_555 1_555
N8 N9 1_555 1_555
N10 Ag3 1_555 1_555
C41 C40 1_555 1_555
H30 C41 1_555 1_555
C42 C37 1_555 1_555
C43 C40 1_555 1_555
H32 C43 1_555 1_555
C44 C45 1_555 1_555
C45 H33 1_555 1_555
C46 C45 1_555 1_555
H34 C46 1_555 1_555
C47 C46 1_555 1_555
H35 C47 1_555 1_555
C48 C47 1_555 1_555
N12 C43 1_555 1_555
N13 C44 1_555 1_555
H36 N13 1_555 1_555
N14 C44 1_555 1_555
Ag4 N12 1_555 1_555
C41 C42 1_555 1_555
C48 N14 1_555 1_555
N12 N13 1_555 1_555
N14 Ag4 1_555 1_555
C62 C61 1_555 1_555
H46 C62 1_555 1_555
C63 C62 1_555 1_555
H47 C63 1_555 1_555
C64 C63 1_555 1_555
C65 C64 1_555 1_555
H48 C65 1_555 1_555
C66 C61 1_555 1_555
C67 C64 1_555 1_555
H50 C67 1_555 1_555
C68 C69 1_555 1_555
C69 H51 1_555 1_555
C70 C69 1_555 1_555
H52 C70 1_555 1_555
C71 C70 1_555 1_555
H53 C71 1_555 1_555
C72 C71 1_555 1_555
N18 C67 1_555 1_555
N19 C68 1_555 1_555
H54 N19 1_555 1_555
N20 C68 1_555 1_555
Ag5_2 N18 1_555 1_555
C65 C66 1_555 1_555
C72 N20 1_555 1_555
N18 N19 1_555 1_555
N20 Ag5_2 1_555 1_555
Br4_2 C48_2 1_555 1_555
C41_2 C40_2 1_555 1_555
H30_2 C41_2 1_555 1_555
C42_2 C37_2 1_555 1_555
H31_2 C42_2 1_555 1_555
C43_2 C40_2 1_555 1_555
H32_2 C43_2 1_555 1_555
C44_2 C45_2 1_555 1_555
C45_2 H33_2 1_555 1_555
C46_2 C45_2 1_555 1_555
H34_2 C46_2 1_555 1_555
C47_2 C46_2 1_555 1_555
H35_2 C47_2 1_555 1_555
C48_2 C47_2 1_555 1_555
N12_2 C43_2 1_555 1_555
N13_2 C44_2 1_555 1_555
H36_2 N13_2 1_555 1_555
N14_2 C44_2 1_555 1_555
H46_2 C62_2 1_555 1_555
C63_2 C62_2 1_555 1_555
H47_2 C63_2 1_555 1_555
Ag4_3 N12_2 1_555 1_555
C41_2 C42_2 1_555 1_555
C48_2 N14_2 1_555 1_555
N12_2 N13_2 1_555 1_555
N14_2 Ag4_3 1_555 1_555
C14_2 C13_2 1_555 1_555
H10_2 C14_2 1_555 1_555
C15_2 C14_2 1_555 1_555
H11_2 C15_2 1_555 1_555
C16_2 C15_2 1_555 1_555
C17_2 C16_2 1_555 1_555
H12_2 C17_2 1_555 1_555
C18_2 C13_2 1_555 1_555
C19_2 C16_2 1_555 1_555
H14_2 C19_2 1_555 1_555
C20_2 C21_2 1_555 1_555
C21_2 H15_2 1_555 1_555
C22_2 C21_2 1_555 1_555
H16_2 C22_2 1_555 1_555
C23_2 C22_2 1_555 1_555
H17_2 C23_2 1_555 1_555
C24_2 C23_2 1_555 1_555
N5_2 C19_2 1_555 1_555
N6_2 C20_2 1_555 1_555
H18_2 N6_2 1_555 1_555
N7_2 C20_2 1_555 1_555
Br3_2 C36_2 1_555 1_555
C29_2 C28_2 1_555 1_555
H21_2 C29_2 1_555 1_555
C30_2 C25_2 1_555 1_555
H22_2 C30_2 1_555 1_555
C31_2 C28_2 1_555 1_555
H23_2 C31_2 1_555 1_555
C32_2 C33_2 1_555 1_555
C33_2 H24_2 1_555 1_555
C34_2 C33_2 1_555 1_555
H25_2 C34_2 1_555 1_555
C35_2 C34_2 1_555 1_555
H26_2 C35_2 1_555 1_555
C36_2 C35_2 1_555 1_555
N8_2 C31_2 1_555 1_555
N9_2 C32_2 1_555 1_555
H27_2 N9_2 1_555 1_555
N10_2 C32_2 1_555 1_555
Ag2_2 N5_2 1_555 1_555
Ag3_2 N8_2 1_555 1_555
C38_2 H28_2 1_555 1_555
C39_2 C38_2 1_555 1_555
H29_2 C39_2 1_555 1_555
N22_2 Ag3_2 1_555 1_555
N24_2 Ag3_2 1_555 1_555
C17_2 C18_2 1_555 1_555
C24_2 N7_2 1_555 1_555
N5_2 N6_2 1_555 1_555
N7_2 Ag2_2 1_555 1_555
C29_2 C30_2 1_555 1_555
C36_2 N10_2 1_555 1_555
N8_2 N9_2 1_555 1_555
N10_2 Ag3_2 1_555 1_555
C65_2 C64_2 1_555 1_555
H48_2 C65_2 1_555 1_555
C66_2 C61_2 1_555 1_555
C67_2 C64_2 1_555 1_555
H50_2 C67_2 1_555 1_555
C68_2 C69_2 1_555 1_555
C69_2 H51_2 1_555 1_555
C70_2 C69_2 1_555 1_555
H52_2 C70_2 1_555 1_555
C71_2 C70_2 1_555 1_555
H53_2 C71_2 1_555 1_555
C72_2 C71_2 1_555 1_555
N18_2 C67_2 1_555 1_555
N19_2 C68_2 1_555 1_555
H54_2 N19_2 1_555 1_555
N20_2 C68_2 1_555 1_555
Ag5_3 N18_2 1_555 1_555
C65_2 C66_2 1_555 1_555
C72_2 N20_2 1_555 1_555
N18_2 N19_2 1_555 1_555
N20_2 Ag5_3 1_555 1_555
Ag1_3 N2_2 1_555 1_555
Br1_2 C12_2 1_555 1_555
C1_2 C2_2 1_555 1_555
C2_2 H1_2 1_555 1_555
C3_2 C2_2 1_555 1_555
H2_2 C3_2 1_555 1_555
C4_2 C3_2 1_555 1_555
C5_2 C4_2 1_555 1_555
H3_2 C5_2 1_555 1_555
C6_2 C1_2 1_555 1_555
H4_2 C6_2 1_555 1_555
C7_2 C4_2 1_555 1_555
H5_2 C7_2 1_555 1_555
C8_2 C9_2 1_555 1_555
C9_2 H6_2 1_555 1_555
C10_2 C9_2 1_555 1_555
H7_2 C10_2 1_555 1_555
C11_2 C10_2 1_555 1_555
H8_2 C11_2 1_555 1_555
C12_2 C11_2 1_555 1_555
N1_2 C1_2 1_555 1_555
N2_2 C7_2 1_555 1_555
N3_2 C8_2 1_555 1_555
H9_2 N3_2 1_555 1_555
N4_2 Ag1_3 1_555 1_555
H19_2 C26_2 1_555 1_555
C27_2 C26_2 1_555 1_555
H20_2 C27_2 1_555 1_555
C50_2 C49_2 1_555 1_555
H37_2 C50_2 1_555 1_555
C51_2 C50_2 1_555 1_555
H38_2 C51_2 1_555 1_555
C52_2 C51_2 1_555 1_555
C53_2 C52_2 1_555 1_555
H39_2 C53_2 1_555 1_555
C54_2 C49_2 1_555 1_555
C55_2 C52_2 1_555 1_555
H41_2 C55_2 1_555 1_555
C56_2 C57_2 1_555 1_555
C57_2 H42_2 1_555 1_555
C58_2 C57_2 1_555 1_555
H43_2 C58_2 1_555 1_555
C59_2 C58_2 1_555 1_555
H44_2 C59_2 1_555 1_555
C60_2 C59_2 1_555 1_555
N15_2 Ag2_3 1_555 1_555
N16_2 C56_2 1_555 1_555
H45_2 N16_2 1_555 1_555
N17_2 Ag2_3 1_555 1_555
N21_2 Ag1_3 1_555 1_555
N23_2 Ag1_3 1_555 1_555
C5_2 C6_2 1_555 1_555
C8_2 N4_2 1_555 1_555
C12_2 N4_2 1_555 1_555
N2_2 N3_2 1_555 1_555
C53_2 C54_2 1_555 1_555
C55_2 N15_2 1_555 1_555
C56_2 N17_2 1_555 1_555
C60_2 N17_2 1_555 1_555
N15_2 N16_2 1_555 1_555
Ag4_3 N2_3 1_555 1_555
Br1_3 C12_3 1_555 1_555
C5_3 C4_3 1_555 1_555
H3_3 C5_3 1_555 1_555
C6_3 C1_3 1_555 1_555
H4_3 C6_3 1_555 1_555
C7_3 C4_3 1_555 1_555
H5_3 C7_3 1_555 1_555
C8_3 C9_3 1_555 1_555
C9_3 H6_3 1_555 1_555
C10_3 C9_3 1_555 1_555
H7_3 C10_3 1_555 1_555
C11_3 C10_3 1_555 1_555
H8_3 C11_3 1_555 1_555
C12_3 C11_3 1_555 1_555
N2_3 C7_3 1_555 1_555
N3_3 C8_3 1_555 1_555
H9_3 N3_3 1_555 1_555
N4_3 Ag4_3 1_555 1_555
C26_3 C25_3 1_555 1_555
H19_3 C26_3 1_555 1_555
C27_3 C26_3 1_555 1_555
H20_3 C27_3 1_555 1_555
C28_3 C27_3 1_555 1_555
C29_3 C28_3 1_555 1_555
H21_3 C29_3 1_555 1_555
C30_3 C25_3 1_555 1_555
C31_3 C28_3 1_555 1_555
H23_3 C31_3 1_555 1_555
C32_3 C33_3 1_555 1_555
C33_3 H24_3 1_555 1_555
C34_3 C33_3 1_555 1_555
H25_3 C34_3 1_555 1_555
C35_3 C34_3 1_555 1_555
H26_3 C35_3 1_555 1_555
C36_3 C35_3 1_555 1_555
N8_3 C31_3 1_555 1_555
N9_3 C32_3 1_555 1_555
H27_3 N9_3 1_555 1_555
N10_3 C32_3 1_555 1_555
Ag5 N8_3 1_555 1_555
C5_3 C6_3 1_555 1_555
C8_3 N4_3 1_555 1_555
C12_3 N4_3 1_555 1_555
N2_3 N3_3 1_555 1_555
C29_3 C30_3 1_555 1_555
C36_3 N10_3 1_555 1_555
N8_3 N9_3 1_555 1_555
N10_3 Ag5 1_555 1_555
C2_3 H1_3 1_555 1_555
C3_3 C2_3 1_555 1_555
H2_3 C3_3 1_555 1_555
Br2_3 C24_3 1_555 1_555
C13_3 N1_3 1_555 1_555
C14_3 C13_3 1_555 1_555
H10_3 C14_3 1_555 1_555
C15_3 C14_3 1_555 1_555
H11_3 C15_3 1_555 1_555
C16_3 C15_3 1_555 1_555
C17_3 C16_3 1_555 1_555
H12_3 C17_3 1_555 1_555
C18_3 C13_3 1_555 1_555
H13_3 C18_3 1_555 1_555
C19_3 C16_3 1_555 1_555
H14_3 C19_3 1_555 1_555
C20_3 C21_3 1_555 1_555
C21_3 H15_3 1_555 1_555
C22_3 C21_3 1_555 1_555
H16_3 C22_3 1_555 1_555
C23_3 C22_3 1_555 1_555
H17_3 C23_3 1_555 1_555
C24_3 C23_3 1_555 1_555
N5_3 C19_3 1_555 1_555
N6_3 C20_3 1_555 1_555
H18_3 N6_3 1_555 1_555
N7_3 C20_3 1_555 1_555
Ag2_4 N5_3 1_555 1_555
Br4_3 C48_3 1_555 1_555
C37_3 C38_3 1_555 1_555
C38_3 H28_3 1_555 1_555
C39_3 C38_3 1_555 1_555
H29_3 C39_3 1_555 1_555
C40_3 C39_3 1_555 1_555
C41_3 C40_3 1_555 1_555
H30_3 C41_3 1_555 1_555
C42_3 C37_3 1_555 1_555
H31_3 C42_3 1_555 1_555
C43_3 C40_3 1_555 1_555
H32_3 C43_3 1_555 1_555
C44_3 C45_3 1_555 1_555
C45_3 H33_3 1_555 1_555
C46_3 C45_3 1_555 1_555
H34_3 C46_3 1_555 1_555
C47_3 C46_3 1_555 1_555
H35_3 C47_3 1_555 1_555
C48_3 C47_3 1_555 1_555
N11_3 C37_3 1_555 1_555
N21_2 C43_3 1_555 1_555
N13_3 C44_3 1_555 1_555
H36_3 N13_3 1_555 1_555
N23_2 C44_3 1_555 1_555
Br5_3 C60_3 1_555 1_555
C49_3 N11_3 1_555 1_555
C50_3 C49_3 1_555 1_555
H37_3 C50_3 1_555 1_555
C51_3 C50_3 1_555 1_555
H38_3 C51_3 1_555 1_555
C52_3 C51_3 1_555 1_555
C53_3 C52_3 1_555 1_555
H39_3 C53_3 1_555 1_555
C54_3 C49_3 1_555 1_555
H40_3 C54_3 1_555 1_555
C55_3 C52_3 1_555 1_555
H41_3 C55_3 1_555 1_555
C56_3 C57_3 1_555 1_555
C57_3 H42_3 1_555 1_555
C58_3 C57_3 1_555 1_555
H43_3 C58_3 1_555 1_555
C59_3 C58_3 1_555 1_555
H44_3 C59_3 1_555 1_555
C60_3 C59_3 1_555 1_555
N15_3 Ag2_4 1_555 1_555
N16_3 C56_3 1_555 1_555
H45_3 N16_3 1_555 1_555
N17_3 Ag2_4 1_555 1_555
Br6_3 C72_3 1_555 1_555
C61_3 N11_3 1_555 1_555
C62_3 C61_3 1_555 1_555
H46_3 C62_3 1_555 1_555
C63_3 C62_3 1_555 1_555
H47_3 C63_3 1_555 1_555
C64_3 C63_3 1_555 1_555
C65_3 C64_3 1_555 1_555
H48_3 C65_3 1_555 1_555
C66_3 C61_3 1_555 1_555
H49_3 C66_3 1_555 1_555
C67_3 C64_3 1_555 1_555
H50_3 C67_3 1_555 1_555
C68_3 C69_3 1_555 1_555
C69_3 H51_3 1_555 1_555
C70_3 C69_3 1_555 1_555
H52_3 C70_3 1_555 1_555
C71_3 C70_3 1_555 1_555
H53_3 C71_3 1_555 1_555
C72_3 C71_3 1_555 1_555
N22 C67_3 1_555 1_555
N19_3 C68_3 1_555 1_555
H54_3 N19_3 1_555 1_555
N24 C68_3 1_555 1_555
C17_3 C18_3 1_555 1_555
C24_3 N7_3 1_555 1_555
N5_3 N6_3 1_555 1_555
N7_3 Ag2_4 1_555 1_555
C41_3 C42_3 1_555 1_555
C48_3 N23_2 1_555 1_555
N21_2 N13_3 1_555 1_555
C53_3 C54_3 1_555 1_555
C55_3 N15_3 1_555 1_555
C56_3 N17_3 1_555 1_555
C60_3 N17_3 1_555 1_555
N15_3 N16_3 1_555 1_555
C65_3 C66_3 1_555 1_555
C72_3 N24 1_555 1_555
N22 N19_3 1_555 1_555
H37_4 C50_4 1_555 1_555
C51_4 C50_4 1_555 1_555
H38_4 C51_4 1_555 1_555
Br6_4 C72_4 1_555 1_555
C65_4 C64_4 1_555 1_555
H48_4 C65_4 1_555 1_555
C66_4 C61_4 1_555 1_555
H49_4 C66_4 1_555 1_555
C67_4 C64_4 1_555 1_555
H50_4 C67_4 1_555 1_555
C68_4 C69_4 1_555 1_555
C69_4 H51_4 1_555 1_555
C70_4 C69_4 1_555 1_555
H52_4 C70_4 1_555 1_555
C71_4 C70_4 1_555 1_555
H53_4 C71_4 1_555 1_555
C72_4 C71_4 1_555 1_555
N22_2 C67_4 1_555 1_555
N19_4 C68_4 1_555 1_555
H54_4 N19_4 1_555 1_555
N24_2 C68_4 1_555 1_555
C65_4 C66_4 1_555 1_555
C72_4 N24_2 1_555 1_555
N22_2 N19_4 1_555 1_555
C2_4 H1_4 1_555 1_555
C3_4 C2_4 1_555 1_555
H2_4 C3_4 1_555 1_555
C53_4 C52_4 1_555 1_555
H39_4 C53_4 1_555 1_555
C54_4 C49_4 1_555 1_555
C55_4 C52_4 1_555 1_555
H41_4 C55_4 1_555 1_555
C56_4 C57_4 1_555 1_555
C57_4 H42_4 1_555 1_555
C58_4 C57_4 1_555 1_555
H43_4 C58_4 1_555 1_555
C59_4 C58_4 1_555 1_555
H44_4 C59_4 1_555 1_555
C60_4 C59_4 1_555 1_555
N15_4 Ag2_5 1_555 1_555
N16_4 C56_4 1_555 1_555
H45_4 N16_4 1_555 1_555
N17_4 Ag2_5 1_555 1_555
C53_4 C54_4 1_555 1_555
C55_4 N15_4 1_555 1_555
C56_4 N17_4 1_555 1_555
C60_4 N17_4 1_555 1_555
N15_4 N16_4 1_555 1_555
H19_4 C26_4 1_555 1_555
C27_4 C26_4 1_555 1_555
H20_4 C27_4 1_555 1_555
Ag4_2 N2_4 1_555 1_555
C5_4 C4_4 1_555 1_555
H3_4 C5_4 1_555 1_555
C6_4 C1_4 1_555 1_555
C7_4 C4_4 1_555 1_555
H5_4 C7_4 1_555 1_555
C8_4 C9_4 1_555 1_555
C9_4 H6_4 1_555 1_555
C10_4 C9_4 1_555 1_555
H7_4 C10_4 1_555 1_555
C11_4 C10_4 1_555 1_555
H8_4 C11_4 1_555 1_555
C12_4 C11_4 1_555 1_555
N2_4 C7_4 1_555 1_555
N3_4 C8_4 1_555 1_555
H9_4 N3_4 1_555 1_555
N4_4 Ag4_2 1_555 1_555
C5_4 C6_4 1_555 1_555
C8_4 N4_4 1_555 1_555
C12_4 N4_4 1_555 1_555
N2_4 N3_4 1_555 1_555
H10_4 C14_4 1_555 1_555
C15_4 C14_4 1_555 1_555
H11_4 C15_4 1_555 1_555
H46_4 C62_4 1_555 1_555
C63_4 C62_4 1_555 1_555
H47_4 C63_4 1_555 1_555
C17_4 C16_4 1_555 1_555
H12_4 C17_4 1_555 1_555
C18_4 C13_4 1_555 1_555
C19_4 C16_4 1_555 1_555
H14_4 C19_4 1_555 1_555
C20_4 C21_4 1_555 1_555
C21_4 H15_4 1_555 1_555
C22_4 C21_4 1_555 1_555
H16_4 C22_4 1_555 1_555
C23_4 C22_4 1_555 1_555
H17_4 C23_4 1_555 1_555
C24_4 C23_4 1_555 1_555
N5_4 C19_4 1_555 1_555
N6_4 C20_4 1_555 1_555
H18_4 N6_4 1_555 1_555
N7_4 C20_4 1_555 1_555
Ag2_6 N5_4 1_555 1_555
C37_4 C38_4 1_555 1_555
C38_4 H28_4 1_555 1_555
C39_4 C38_4 1_555 1_555
H29_4 C39_4 1_555 1_555
C40_4 C39_4 1_555 1_555
C41_4 C40_4 1_555 1_555
H30_4 C41_4 1_555 1_555
C42_4 C37_4 1_555 1_555
C43_4 C40_4 1_555 1_555
H32_4 C43_4 1_555 1_555
C44_4 C45_4 1_555 1_555
C45_4 H33_4 1_555 1_555
C46_4 C45_4 1_555 1_555
H34_4 C46_4 1_555 1_555
C47_4 C46_4 1_555 1_555
H35_4 C47_4 1_555 1_555
C48_4 C47_4 1_555 1_555
N21 C43_4 1_555 1_555
N13_4 C44_4 1_555 1_555
H36_4 N13_4 1_555 1_555
N23 C44_4 1_555 1_555
C17_4 C18_4 1_555 1_555
C24_4 N7_4 1_555 1_555
N5_4 N6_4 1_555 1_555
N7_4 Ag2_6 1_555 1_555
C41_4 C42_4 1_555 1_555
C48_4 N23 1_555 1_555
N21 N13_4 1_555 1_555
C29_4 C28_4 1_555 1_555
H21_4 C29_4 1_555 1_555
C30_4 C25_4 1_555 1_555
C31_4 C28_4 1_555 1_555
H23_4 C31_4 1_555 1_555
C32_4 C33_4 1_555 1_555
C33_4 H24_4 1_555 1_555
C34_4 C33_4 1_555 1_555
H25_4 C34_4 1_555 1_555
C35_4 C34_4 1_555 1_555
H26_4 C35_4 1_555 1_555
C36_4 C35_4 1_555 1_555
N8_4 C31_4 1_555 1_555
N9_4 C32_4 1_555 1_555
H27_4 N9_4 1_555 1_555
N10_4 C32_4 1_555 1_555
Ag5_4 N8_4 1_555 1_555
C29_4 C30_4 1_555 1_555
C36_4 N10_4 1_555 1_555
N8_4 N9_4 1_555 1_555
N10_4 Ag5_4 1_555 1_555
O3 Cl1 1_555 1_555
O4 Cl1 1_555 1_555
Cl1_2 O1 1_555 1_555
O2 Cl1_2 1_555 1_555
Cl1_3 O1_2 1_555 1_555
O2_2 Cl1_3 1_555 1_555
O3_2 Cl1_3 1_555 1_555
O4_2 Cl1_3 1_555 1_555
Cl1_4 O1_3 1_555 1_555
O2_3 Cl1_4 1_555 1_555
O3_3 Cl1_5 1_555 1_555
O4_3 Cl1_5 1_555 1_555
Cl1_6 O1_4 1_555 1_555
O2_4 Cl1_6 1_555 1_555
O3_4 Cl1_6 1_555 1_555
O4_4 Cl1_6 1_555 1_555
O3_5 Cl1_7 1_555 1_555
O4_5 Cl1_7 1_555 1_555
Cl1_8 O1_5 1_555 1_555
O2_5 Cl1_8 1_555 1_555
Cl1_9 O1_6 1_555 1_555
O2_6 Cl1_9 1_555 1_555
O3_6 Cl1_9 1_555 1_555
O4_6 Cl1_9 1_555 1_555
Cl1_10 O1_7 1_555 1_555
O2_7 Cl1_10 1_555 1_555
O3_7 Cl1_11 1_555 1_555
O4_7 Cl1_11 1_555 1_555
Cl1_12 O1_8 1_555 1_555
O2_8 Cl1_12 1_555 1_555
O3_8 Cl1_12 1_555 1_555
O4_8 Cl1_12 1_555 1_555
O3_9 Cl1_13 1_555 1_555
O4_9 Cl1_13 1_555 1_555
Cl1_14 O1_9 1_555 1_555
O2_9 Cl1_14 1_555 1_555
Cl1_15 O1_10 1_555 1_555
O2_10 Cl1_15 1_555 1_555
O3_10 Cl1_15 1_555 1_555
O4_10 Cl1_15 1_555 1_555
Cl1_16 O1_11 1_555 1_555
O2_11 Cl1_16 1_555 1_555
O3_11 Cl1_17 1_555 1_555
O4_11 Cl1_17 1_555 1_555
Cl1_18 O1_12 1_555 1_555
O2_12 Cl1_18 1_555 1_555
O3_12 Cl1_18 1_555 1_555
O4_12 Cl1_18 1_555 1_555

#END
