
###############################################################################
#
# This file contains modified crystal structure data generated from the
# MOF subset of the Cambridge Structural Database (CSD) v543 
# hosted by the Cambridge Crystallographic Data Centre (CCDC).
#
# This work is licensed under the Creative Commons
# Attribution-NonCommercial-ShareAlike 4.0 International License.
# To view a copy of this license, visit
# http://creativecommons.org/licenses/by-nc-sa/4.0/
# or send a letter to
# Creative Commons, PO Box 1866, Mountain View, CA 94042, USA.
#
# CIF created using the CSD Python API on 29 September 2022
# The structure has been converted into the P1 space group
# The structure has a 3D framework
# The original CSD entry KENTEF01 is in the cubic crystal system
# The original CSD entry KENTEF01 is in a Sohncke space group
# The framework has been calculated to contain at least 10.0% void space
# The void calculation uses a probe of radius 1.32A, grid spacing 0.4
# The framework is charged, counterions have been retained in the structure
#
###############################################################################

data_KENTEF01
_chemical_formula_moiety         '(C288 H216 Ag14 Br24 Cl18 N80 O48 2+)n'
_symmetry_cell_setting           triclinic
_symmetry_space_group_name_H-M   'P 1'
_symmetry_Int_Tables_number      1
_space_group_name_Hall           'P 1'
loop_
_symmetry_equiv_pos_site_id
_symmetry_equiv_pos_as_xyz
1 x,y,z
_cell_length_a                   21.3186(11)
_cell_length_b                   21.3186(11)
_cell_length_c                   21.3186(11)
_cell_angle_alpha                90
_cell_angle_beta                 90
_cell_angle_gamma                90
_cell_volume                     9688.94
loop_
_atom_site_label
_atom_site_type_symbol
_atom_site_fract_x
_atom_site_fract_y
_atom_site_fract_z
N1 N 0.02096(19) 0.02096(19) 0.02096(19)
C41 C 0.05569(19) 0.32412(17) 0.00941(18)
H30 H 0.0729 0.2937 0.0363
C42 C 0.0281(2) 0.3764(2) 0.03407(18)
H31 H 0.0246 0.3806 0.0778
Br5 Br 0.34005(3) 0.48042(3) 0.34577(4)
C49 C 0.00464(18) 0.50518(17) 0.07660(17)
C50 C 0.06934(18) 0.5076(2) 0.08473(19)
H37 H 0.0962 0.4916 0.0536
C51 C 0.09404(18) 0.53388(18) 0.13914(18)
H38 H 0.1377 0.5348 0.1449
C52 C 0.05547(17) 0.55841(17) 0.18439(17)
C55 C 0.07893(19) 0.58820(19) 0.2423(2)
H41 H 0.0509 0.6126 0.2659
C56 C 0.2034(2) 0.60882(19) 0.34566(19)
C57 C 0.2208(2) 0.6528(2) 0.3925(2)
H42 H 0.1958 0.6883 0.4005
C58 C 0.2740(3) 0.6427(3) 0.4253(2)
H43 H 0.2862 0.6714 0.4565
C59 C 0.3107(2) 0.5901(3) 0.4134(2)
H44 H 0.3474 0.5819 0.4365
C60 C 0.2910(2) 0.5510(2) 0.3667(2)
N15 N 0.13462(16) 0.58277(15) 0.26180(15)
N16 N 0.14888(18) 0.61788(17) 0.31445(17)
H45 H 0.1225 0.6461 0.3276
N17 N 0.23924(17) 0.55852(16) 0.33282(17)
Ag4 Ag 0.21265(2) 0.5000 0.2500
Ag1 Ag 0.0000 0.2500 0.78735(2)
Br1 Br 0.01958(3) 0.34577(4) 0.65995(3)
H1 H 0.0084 0.0536 0.9038
C29 C 0.17588(17) 0.00941(18) 0.94431(19)
H21 H 0.2063 0.0363 0.9271
C30 C 0.1236(2) 0.03407(18) 0.9719(2)
H22 H 0.1194 0.0778 0.9754
C37 C 0.00518(17) 0.42340(17) 0.99536(18)
C38 C 0.0076(2) 0.41527(19) 0.93066(18)
C39 C 0.03388(18) 0.36086(18) 0.90596(18)
H29 H 0.0348 0.3551 0.8623
C40 C 0.05841(17) 0.31561(17) 0.94453(17)
C43 C 0.08820(19) 0.2577(2) 0.92107(19)
H32 H 0.1126 0.2341 0.9491
C44 C 0.10882(19) 0.15434(19) 0.7966(2)
C45 C 0.1528(2) 0.1075(2) 0.7792(2)
H33 H 0.1883 0.0995 0.8042
C46 C 0.1427(3) 0.0747(2) 0.7260(3)
H34 H 0.1714 0.0435 0.7138
C47 C 0.0901(3) 0.0866(2) 0.6893(2)
H35 H 0.0819 0.0635 0.6526
C48 C 0.0510(2) 0.1333(2) 0.7090(2)
N12 N 0.08277(15) 0.23820(15) 0.86538(16)
N13 N 0.11788(17) 0.18555(17) 0.85112(18)
H36 H 0.1461 0.1724 0.8775
N14 N 0.05852(16) 0.16718(17) 0.76076(17)
C17 C 0.00941(18) 0.94431(19) 0.17588(17)
H12 H 0.0363 0.9271 0.2063
C18 C 0.03407(18) 0.9719(2) 0.1236(2)
H13 H 0.0778 0.9754 0.1194
Br3 Br 0.34577(4) 0.65995(3) 0.01958(3)
H19 H 0.0536 0.9038 0.0084
Ag3 Ag 0.2500 0.78735(2) 0.0000
N22 N 0.23820(15) 0.86538(16) 0.08277(15)
N24 N 0.16718(17) 0.76076(17) 0.05852(16)
C25 C 0.07660(17) 0.99536(18) 0.99482(17)
C26 C 0.08473(19) 0.93066(18) 0.9924(2)
C27 C 0.13914(18) 0.90596(18) 0.96612(18)
H20 H 0.1449 0.8623 0.9652
C28 C 0.18439(17) 0.94453(17) 0.94159(17)
C31 C 0.2423(2) 0.92107(19) 0.91180(19)
H23 H 0.2659 0.9491 0.8874
C32 C 0.34566(19) 0.7966(2) 0.89118(19)
C33 C 0.3925(2) 0.7792(2) 0.8472(2)
H24 H 0.4005 0.8042 0.8117
C34 C 0.4253(2) 0.7260(3) 0.8573(3)
H25 H 0.4565 0.7138 0.8286
C35 C 0.4134(2) 0.6893(2) 0.9099(3)
H26 H 0.4365 0.6526 0.9181
C36 C 0.3667(2) 0.7090(2) 0.9490(2)
N8 N 0.26180(15) 0.86538(16) 0.91723(15)
N9 N 0.31445(17) 0.85112(18) 0.88212(17)
H27 H 0.3276 0.8775 0.8539
N10 N 0.33282(17) 0.76076(17) 0.94148(16)
Ag3_2 Ag 0.2500 0.78735(2) 1.0000
C5 C 0.94431(19) 0.17588(17) 0.00941(18)
H3 H 0.9271 0.2063 0.0363
C6 C 0.9719(2) 0.1236(2) 0.03407(18)
H4 H 0.9754 0.1194 0.0778
Br2 Br 0.65995(3) 0.01958(3) 0.34577(4)
H10 H 0.9038 0.0084 0.0536
Ag2 Ag 0.78735(2) -0.0000 0.2500
N11 N 0.97904(19) 0.47904(19) 0.02096(19)
C53 C 0.99059(18) 0.55569(19) 0.17588(17)
H39 H 0.9637 0.5729 0.2063
C54 C 0.96593(18) 0.5281(2) 0.1236(2)
H40 H 0.9222 0.5246 0.1194
Br6 Br 0.65423(4) 0.84005(3) 0.01958(3)
H46 H 0.9464 0.5962 0.0084
Ag5 Ag 0.7500 0.71265(2) 0.0000
N21 N 0.86538(16) 0.08277(15) 0.23820(15)
N23 N 0.76076(17) 0.05852(16) 0.16718(17)
Ag1_2 Ag 1.0000 0.2500 0.78735(2)
C1 C 0.99482(17) 0.07660(17) 0.99536(18)
C2 C 0.9924(2) 0.08473(19) 0.93066(18)
C3 C 0.96612(18) 0.13914(18) 0.90596(18)
H2 H 0.9652 0.1449 0.8623
C4 C 0.94159(17) 0.18439(17) 0.94453(17)
C7 C 0.91180(19) 0.2423(2) 0.92107(19)
H5 H 0.8874 0.2659 0.9491
C8 C 0.89118(19) 0.34566(19) 0.7966(2)
C9 C 0.8472(2) 0.3925(2) 0.7792(2)
H6 H 0.8117 0.4005 0.8042
C10 C 0.8573(3) 0.4253(2) 0.7260(3)
H7 H 0.8286 0.4565 0.7138
C11 C 0.9099(3) 0.4134(2) 0.6893(2)
H8 H 0.9181 0.4365 0.6526
C12 C 0.9490(2) 0.3667(2) 0.7090(2)
N2 N 0.91723(15) 0.26180(15) 0.86538(16)
N3 N 0.88212(17) 0.31445(17) 0.85112(18)
H9 H 0.8539 0.3276 0.8775
N4 N 0.94148(16) 0.33282(17) 0.76076(17)
Br4 Br 0.98042(3) 0.15423(4) 0.65995(3)
H28 H 0.9916 0.4464 0.9038
C61 C 0.92340(17) 0.50464(18) 0.99482(17)
C62 C 0.91527(19) 0.56934(18) 0.9924(2)
C63 C 0.86086(18) 0.59404(18) 0.96612(18)
H47 H 0.8551 0.6377 0.9652
C64 C 0.81561(17) 0.55547(17) 0.94159(17)
C65 C 0.82412(17) 0.49059(18) 0.94431(19)
H48 H 0.7937 0.4637 0.9271
C66 C 0.8764(2) 0.46593(18) 0.9719(2)
H49 H 0.8806 0.4222 0.9754
C67 C 0.7577(2) 0.57893(19) 0.91180(19)
H50 H 0.7341 0.5509 0.8874
C68 C 0.65434(19) 0.7034(2) 0.89118(19)
C69 C 0.6075(2) 0.7208(2) 0.8472(2)
H51 H 0.5995 0.6958 0.8117
C70 C 0.5747(2) 0.7740(3) 0.8573(3)
H52 H 0.5435 0.7862 0.8286
C71 C 0.5866(2) 0.8107(2) 0.9099(3)
H53 H 0.5635 0.8474 0.9181
C72 C 0.6333(2) 0.7910(2) 0.9490(2)
N18 N 0.73820(15) 0.63462(16) 0.91723(15)
N19 N 0.68555(17) 0.64888(18) 0.88212(17)
H54 H 0.6724 0.6225 0.8539
N20 N 0.66718(17) 0.73924(17) 0.94148(16)
Ag5_2 Ag 0.7500 0.71265(2) 1.0000
C13 C 0.99536(18) 0.99482(17) 0.07660(17)
C14 C 0.93066(18) 0.9924(2) 0.08473(19)
C15 C 0.90596(18) 0.96612(18) 0.13914(18)
H11 H 0.8623 0.9652 0.1449
C16 C 0.94453(17) 0.94159(17) 0.18439(17)
C19 C 0.92107(19) 0.91180(19) 0.2423(2)
H14 H 0.9491 0.8874 0.2659
C20 C 0.7966(2) 0.89118(19) 0.34566(19)
C21 C 0.7792(2) 0.8472(2) 0.3925(2)
H15 H 0.8042 0.8117 0.4005
C22 C 0.7260(3) 0.8573(3) 0.4253(2)
H16 H 0.7138 0.8286 0.4565
C23 C 0.6893(2) 0.9099(3) 0.4134(2)
H17 H 0.6526 0.9181 0.4365
C24 C 0.7090(2) 0.9490(2) 0.3667(2)
N5 N 0.86538(16) 0.91723(15) 0.26180(15)
N6 N 0.85112(18) 0.88212(17) 0.31445(17)
H18 H 0.8775 0.8539 0.3276
N7 N 0.76076(17) 0.94148(16) 0.33282(17)
Ag2_2 Ag 0.78735(2) 1.0000 0.2500
C13_2 C 0.50464(18) 0.00518(17) 0.57660(17)
C14_2 C 0.56934(18) 0.0076(2) 0.58473(19)
C15_2 C 0.59404(18) 0.03388(18) 0.63914(18)
H11_2 H 0.6377 0.0348 0.6449
C16_2 C 0.55547(17) 0.05841(17) 0.68439(17)
C17_2 C 0.49059(18) 0.05569(19) 0.67588(17)
H12_2 H 0.4637 0.0729 0.7063
C18_2 C 0.46593(18) 0.0281(2) 0.6236(2)
H13_2 H 0.4222 0.0246 0.6194
C19_2 C 0.57893(19) 0.08820(19) 0.7423(2)
H14_2 H 0.5509 0.1126 0.7659
C20_2 C 0.7034(2) 0.10882(19) 0.84566(19)
C21_2 C 0.7208(2) 0.1528(2) 0.8925(2)
H15_2 H 0.6958 0.1883 0.9005
C22_2 C 0.7740(3) 0.1427(3) 0.9253(2)
H16_2 H 0.7862 0.1714 0.9565
C23_2 C 0.8107(2) 0.0901(3) 0.9134(2)
H17_2 H 0.8474 0.0819 0.9365
C24_2 C 0.7910(2) 0.0510(2) 0.8667(2)
N5_2 N 0.63462(16) 0.08277(15) 0.76180(15)
N6_2 N 0.64888(18) 0.11788(17) 0.81445(17)
H18_2 H 0.6225 0.1461 0.8276
N7_2 N 0.73924(17) 0.05852(16) 0.83282(17)
Br3_2 Br 0.15423(4) 0.34005(3) 0.51958(3)
C25_2 C 0.42340(17) 0.00464(18) 0.49482(17)
C26_2 C 0.41527(19) 0.06934(18) 0.4924(2)
H19_2 H 0.4464 0.0962 0.5084
C27_2 C 0.36086(18) 0.09404(18) 0.46612(18)
H20_2 H 0.3551 0.1377 0.4652
C28_2 C 0.31561(17) 0.05547(17) 0.44159(17)
C31_2 C 0.2577(2) 0.07893(19) 0.41180(19)
H23_2 H 0.2341 0.0509 0.3874
C32_2 C 0.15434(19) 0.2034(2) 0.39118(19)
C33_2 C 0.1075(2) 0.2208(2) 0.3472(2)
H24_2 H 0.0995 0.1958 0.3117
C34_2 C 0.0747(2) 0.2740(3) 0.3573(3)
H25_2 H 0.0435 0.2862 0.3286
C35_2 C 0.0866(2) 0.3107(2) 0.4099(3)
H26_2 H 0.0635 0.3474 0.4181
C36_2 C 0.1333(2) 0.2910(2) 0.4490(2)
N8_2 N 0.23820(15) 0.13462(16) 0.41723(15)
N9_2 N 0.18555(17) 0.14888(18) 0.38212(17)
H27_2 H 0.1724 0.1225 0.3539
N10_2 N 0.16718(17) 0.23924(17) 0.44148(16)
Ag2_3 Ag 0.71265(2) 0.0000 0.7500
Ag3_3 Ag 0.2500 0.21265(2) 0.5000
N22_2 N 0.26180(15) 0.13462(16) 0.58277(15)
N24_2 N 0.33282(17) 0.23924(17) 0.55852(16)
Ag1_3 Ag 0.5000 0.7500 0.28735(2)
Br1_2 Br 0.48042(3) 0.65423(4) 0.15995(3)
C1_2 C 0.50518(17) 0.92340(17) 0.49536(18)
C2_2 C 0.5076(2) 0.91527(19) 0.43066(18)
H1_2 H 0.4916 0.9464 0.4038
C3_2 C 0.53388(18) 0.86086(18) 0.40596(18)
H2_2 H 0.5348 0.8551 0.3623
C4_2 C 0.55841(17) 0.81561(17) 0.44453(17)
C5_2 C 0.55569(19) 0.82412(17) 0.50941(18)
H3_2 H 0.5729 0.7937 0.5363
C6_2 C 0.5281(2) 0.8764(2) 0.53407(18)
H4_2 H 0.5246 0.8806 0.5778
C7_2 C 0.58820(19) 0.7577(2) 0.42107(19)
H5_2 H 0.6126 0.7341 0.4491
C8_2 C 0.60882(19) 0.65434(19) 0.2966(2)
C9_2 C 0.6528(2) 0.6075(2) 0.2792(2)
H6_2 H 0.6883 0.5995 0.3042
C10_2 C 0.6427(3) 0.5747(2) 0.2260(3)
H7_2 H 0.6714 0.5435 0.2138
C11_2 C 0.5901(3) 0.5866(2) 0.1893(2)
H8_2 H 0.5819 0.5635 0.1526
C12_2 C 0.5510(2) 0.6333(2) 0.2090(2)
N1_2 N 0.47904(19) 0.97904(19) 0.52096(19)
N2_2 N 0.58277(15) 0.73820(15) 0.36538(16)
N3_2 N 0.61788(17) 0.68555(17) 0.35112(18)
H9_2 H 0.6461 0.6724 0.3775
N4_2 N 0.55852(16) 0.66718(17) 0.26076(17)
Br2_2 Br 0.84005(3) 0.98042(3) 0.84577(4)
H10_2 H 0.5962 0.9916 0.5536
C29_2 C 0.32412(17) 0.99059(18) 0.44431(19)
H21_2 H 0.2937 0.9637 0.4271
C30_2 C 0.3764(2) 0.96593(18) 0.4719(2)
H22_2 H 0.3806 0.9222 0.4754
Ag2_4 Ag 0.71265(2) 1.0000 0.7500
Br4_2 Br 0.51958(3) 0.84577(4) 0.15995(3)
C37_2 C 0.49482(17) 0.57660(17) 0.49536(18)
C38_2 C 0.4924(2) 0.58473(19) 0.43066(18)
H28_2 H 0.5084 0.5536 0.4038
C39_2 C 0.46612(18) 0.63914(18) 0.40596(18)
H29_2 H 0.4652 0.6449 0.3623
C40_2 C 0.44159(17) 0.68439(17) 0.44453(17)
C41_2 C 0.44431(19) 0.67588(17) 0.50941(18)
H30_2 H 0.4271 0.7063 0.5363
C42_2 C 0.4719(2) 0.6236(2) 0.53407(18)
H31_2 H 0.4754 0.6194 0.5778
C43_2 C 0.41180(19) 0.7423(2) 0.42107(19)
H32_2 H 0.3874 0.7659 0.4491
C44_2 C 0.39118(19) 0.84566(19) 0.2966(2)
C45_2 C 0.3472(2) 0.8925(2) 0.2792(2)
H33_2 H 0.3117 0.9005 0.3042
C46_2 C 0.3573(3) 0.9253(2) 0.2260(3)
H34_2 H 0.3286 0.9565 0.2138
C47_2 C 0.4099(3) 0.9134(2) 0.1893(2)
H35_2 H 0.4181 0.9365 0.1526
C48_2 C 0.4490(2) 0.8667(2) 0.2090(2)
N11_2 N 0.52096(19) 0.52096(19) 0.52096(19)
N12_2 N 0.41723(15) 0.76180(15) 0.36538(16)
N13_2 N 0.38212(17) 0.81445(17) 0.35112(18)
H36_2 H 0.3539 0.8276 0.3775
N14_2 N 0.44148(16) 0.83282(17) 0.26076(17)
Br5_2 Br 0.15995(3) 0.51958(3) 0.84577(4)
C49_2 C 0.49536(18) 0.49482(17) 0.57660(17)
C50_2 C 0.43066(18) 0.4924(2) 0.58473(19)
H37_2 H 0.4038 0.5084 0.5536
C51_2 C 0.40596(18) 0.46612(18) 0.63914(18)
H38_2 H 0.3623 0.4652 0.6449
C52_2 C 0.44453(17) 0.44159(17) 0.68439(17)
C53_2 C 0.50941(18) 0.44431(19) 0.67588(17)
H39_2 H 0.5363 0.4271 0.7063
C54_2 C 0.53407(18) 0.4719(2) 0.6236(2)
H40_2 H 0.5778 0.4754 0.6194
C55_2 C 0.42107(19) 0.41180(19) 0.7423(2)
H41_2 H 0.4491 0.3874 0.7659
C56_2 C 0.2966(2) 0.39118(19) 0.84566(19)
C57_2 C 0.2792(2) 0.3472(2) 0.8925(2)
H42_2 H 0.3042 0.3117 0.9005
C58_2 C 0.2260(3) 0.3573(3) 0.9253(2)
H43_2 H 0.2138 0.3286 0.9565
C59_2 C 0.1893(2) 0.4099(3) 0.9134(2)
H44_2 H 0.1526 0.4181 0.9365
C60_2 C 0.2090(2) 0.4490(2) 0.8667(2)
N15_2 N 0.36538(16) 0.41723(15) 0.76180(15)
N16_2 N 0.35112(18) 0.38212(17) 0.81445(17)
H45_2 H 0.3775 0.3539 0.8276
N17_2 N 0.26076(17) 0.44148(16) 0.83282(17)
Br6_2 Br 0.84577(4) 0.15995(3) 0.51958(3)
C61_2 C 0.57660(17) 0.49536(18) 0.49482(17)
C62_2 C 0.58473(19) 0.43066(18) 0.4924(2)
H46_2 H 0.5536 0.4038 0.5084
C63_2 C 0.63914(18) 0.40596(18) 0.46612(18)
H47_2 H 0.6449 0.3623 0.4652
C64_2 C 0.68439(17) 0.44453(17) 0.44159(17)
C65_2 C 0.67588(17) 0.50941(18) 0.44431(19)
H48_2 H 0.7063 0.5363 0.4271
C66_2 C 0.6236(2) 0.53407(18) 0.4719(2)
H49_2 H 0.6194 0.5778 0.4754
C67_2 C 0.7423(2) 0.42107(19) 0.41180(19)
H50_2 H 0.7659 0.4491 0.3874
C68_2 C 0.84566(19) 0.2966(2) 0.39118(19)
C69_2 C 0.8925(2) 0.2792(2) 0.3472(2)
H51_2 H 0.9005 0.3042 0.3117
C70_2 C 0.9253(2) 0.2260(3) 0.3573(3)
H52_2 H 0.9565 0.2138 0.3286
C71_2 C 0.9134(2) 0.1893(2) 0.4099(3)
H53_2 H 0.9365 0.1526 0.4181
C72_2 C 0.8667(2) 0.2090(2) 0.4490(2)
N18_2 N 0.76180(15) 0.36538(16) 0.41723(15)
N19_2 N 0.81445(17) 0.35112(18) 0.38212(17)
H54_2 H 0.8276 0.3775 0.3539
N20_2 N 0.83282(17) 0.26076(17) 0.44148(16)
Ag4_2 Ag 0.28735(2) 0.5000 0.7500
Ag5_3 Ag 0.7500 0.28735(2) 0.5000
N21_2 N 0.63462(16) 0.91723(15) 0.73820(15)
N23_2 N 0.73924(17) 0.94148(16) 0.66718(17)
C53_3 C 0.00941(18) 0.05569(19) 0.32412(17)
H39_3 H 0.0363 0.0729 0.2937
C54_3 C 0.03407(18) 0.0281(2) 0.3764(2)
H40_3 H 0.0778 0.0246 0.3806
Br6_3 Br 0.34577(4) 0.34005(3) 0.48042(3)
C61_3 C 0.07660(17) 0.00464(18) 0.50518(17)
C62_3 C 0.08473(19) 0.06934(18) 0.5076(2)
H46_3 H 0.0536 0.0962 0.4916
C63_3 C 0.13914(18) 0.09404(18) 0.53388(18)
H47_3 H 0.1449 0.1377 0.5348
C64_3 C 0.18439(17) 0.05547(17) 0.55841(17)
C67_3 C 0.2423(2) 0.07893(19) 0.58820(19)
H50_3 H 0.2659 0.0509 0.6126
C68_3 C 0.34566(19) 0.2034(2) 0.60882(19)
C69_3 C 0.3925(2) 0.2208(2) 0.6528(2)
H51_3 H 0.4005 0.1958 0.6883
C70_3 C 0.4253(2) 0.2740(3) 0.6427(3)
H52_3 H 0.4565 0.2862 0.6714
C71_3 C 0.4134(2) 0.3107(2) 0.5901(3)
H53_3 H 0.4365 0.3474 0.5819
C72_3 C 0.3667(2) 0.2910(2) 0.5510(2)
N19_3 N 0.31445(17) 0.14888(18) 0.61788(17)
H54_3 H 0.3276 0.1225 0.6461
Ag1_4 Ag -0.0000 0.7500 0.71265(2)
C1_3 C 0.00518(17) 0.57660(17) 0.50464(18)
C2_3 C 0.0076(2) 0.58473(19) 0.56934(18)
C3_3 C 0.03388(18) 0.63914(18) 0.59404(18)
H2_3 H 0.0348 0.6449 0.6377
C4_3 C 0.05841(17) 0.68439(17) 0.55547(17)
C5_3 C 0.05569(19) 0.67588(17) 0.49059(18)
H3_3 H 0.0729 0.7063 0.4637
C6_3 C 0.0281(2) 0.6236(2) 0.46593(18)
H4_3 H 0.0246 0.6194 0.4222
C7_3 C 0.08820(19) 0.7423(2) 0.57893(19)
H5_3 H 0.1126 0.7659 0.5509
C8_3 C 0.10882(19) 0.84566(19) 0.7034(2)
C9_3 C 0.1528(2) 0.8925(2) 0.7208(2)
H6_3 H 0.1883 0.9005 0.6958
C10_3 C 0.1427(3) 0.9253(2) 0.7740(3)
H7_3 H 0.1714 0.9565 0.7862
C11_3 C 0.0901(3) 0.9134(2) 0.8107(2)
H8_3 H 0.0819 0.9365 0.8474
C12_3 C 0.0510(2) 0.8667(2) 0.7910(2)
N2_3 N 0.08277(15) 0.76180(15) 0.63462(16)
N3_3 N 0.11788(17) 0.81445(17) 0.64888(18)
H9_3 H 0.1461 0.8276 0.6225
N4_3 N 0.05852(16) 0.83282(17) 0.73924(17)
Br2_3 Br 0.34005(3) 0.51958(3) 0.15423(4)
C13_3 C 0.00464(18) 0.49482(17) 0.42340(17)
C14_3 C 0.06934(18) 0.4924(2) 0.41527(19)
H10_3 H 0.0962 0.5084 0.4464
C15_3 C 0.09404(18) 0.46612(18) 0.36086(18)
H11_3 H 0.1377 0.4652 0.3551
C16_3 C 0.05547(17) 0.44159(17) 0.31561(17)
C19_3 C 0.07893(19) 0.41180(19) 0.2577(2)
H14_3 H 0.0509 0.3874 0.2341
C20_3 C 0.2034(2) 0.39118(19) 0.15434(19)
C21_3 C 0.2208(2) 0.3472(2) 0.1075(2)
H15_3 H 0.1958 0.3117 0.0995
C22_3 C 0.2740(3) 0.3573(3) 0.0747(2)
H16_3 H 0.2862 0.3286 0.0435
C23_3 C 0.3107(2) 0.4099(3) 0.0866(2)
H17_3 H 0.3474 0.4181 0.0635
C24_3 C 0.2910(2) 0.4490(2) 0.1333(2)
N5_3 N 0.13462(16) 0.41723(15) 0.23820(15)
N6_3 N 0.14888(18) 0.38212(17) 0.18555(17)
H18_3 H 0.1225 0.3539 0.1724
N7_3 N 0.23924(17) 0.44148(16) 0.16718(17)
Br4_3 Br 0.01958(3) 0.65423(4) 0.84005(3)
H28_3 H 0.0084 0.9464 0.5962
N11_3 N 0.02096(19) 0.97904(19) 0.47904(19)
C65_3 C 0.17588(17) 0.99059(18) 0.55569(19)
H48_3 H 0.2063 0.9637 0.5729
C66_3 C 0.1236(2) 0.96593(18) 0.5281(2)
H49_3 H 0.1194 0.9222 0.5246
C49_3 C 0.99536(18) 0.00518(17) 0.42340(17)
C50_3 C 0.93066(18) 0.0076(2) 0.41527(19)
C51_3 C 0.90596(18) 0.03388(18) 0.36086(18)
H38_3 H 0.8623 0.0348 0.3551
C52_3 C 0.94453(17) 0.05841(17) 0.31561(17)
C55_3 C 0.92107(19) 0.08820(19) 0.2577(2)
H41_3 H 0.9491 0.1126 0.2341
C56_3 C 0.7966(2) 0.10882(19) 0.15434(19)
C57_3 C 0.7792(2) 0.1528(2) 0.1075(2)
H42_3 H 0.8042 0.1883 0.0995
C58_3 C 0.7260(3) 0.1427(3) 0.0747(2)
H43_3 H 0.7138 0.1714 0.0435
C59_3 C 0.6893(2) 0.0901(3) 0.0866(2)
H44_3 H 0.6526 0.0819 0.0635
C60_3 C 0.7090(2) 0.0510(2) 0.1333(2)
N16_3 N 0.85112(18) 0.11788(17) 0.18555(17)
H45_3 H 0.8775 0.1461 0.1724
Ag1_5 Ag 1.0000 0.7500 0.71265(2)
Br1_3 Br 0.98042(3) 0.84577(4) 0.84005(3)
H1_3 H 0.9916 0.5536 0.5962
N1_3 N 0.97904(19) 0.52096(19) 0.47904(19)
C17_3 C 0.99059(18) 0.44431(19) 0.32412(17)
H12_3 H 0.9637 0.4271 0.2937
C18_3 C 0.96593(18) 0.4719(2) 0.3764(2)
H13_3 H 0.9222 0.4754 0.3806
Br3_3 Br 0.65423(4) 0.15995(3) 0.48042(3)
C25_3 C 0.92340(17) 0.49536(18) 0.50518(17)
C26_3 C 0.91527(19) 0.43066(18) 0.5076(2)
H19_3 H 0.9464 0.4038 0.4916
C27_3 C 0.86086(18) 0.40596(18) 0.53388(18)
H20_3 H 0.8551 0.3623 0.5348
C28_3 C 0.81561(17) 0.44453(17) 0.55841(17)
C29_3 C 0.82412(17) 0.50941(18) 0.55569(19)
H21_3 H 0.7937 0.5363 0.5729
C30_3 C 0.8764(2) 0.53407(18) 0.5281(2)
H22_3 H 0.8806 0.5778 0.5246
C31_3 C 0.7577(2) 0.42107(19) 0.58820(19)
H23_3 H 0.7341 0.4491 0.6126
C32_3 C 0.65434(19) 0.2966(2) 0.60882(19)
C33_3 C 0.6075(2) 0.2792(2) 0.6528(2)
H24_3 H 0.5995 0.3042 0.6883
C34_3 C 0.5747(2) 0.2260(3) 0.6427(3)
H25_3 H 0.5435 0.2138 0.6714
C35_3 C 0.5866(2) 0.1893(2) 0.5901(3)
H26_3 H 0.5635 0.1526 0.5819
C36_3 C 0.6333(2) 0.2090(2) 0.5510(2)
N8_3 N 0.73820(15) 0.36538(16) 0.58277(15)
N9_3 N 0.68555(17) 0.35112(18) 0.61788(17)
H27_3 H 0.6724 0.3775 0.6461
N10_3 N 0.66718(17) 0.26076(17) 0.55852(16)
C37_3 C 0.99482(17) 0.92340(17) 0.50464(18)
C38_3 C 0.9924(2) 0.91527(19) 0.56934(18)
C39_3 C 0.96612(18) 0.86086(18) 0.59404(18)
H29_3 H 0.9652 0.8551 0.6377
C40_3 C 0.94159(17) 0.81561(17) 0.55547(17)
C41_3 C 0.94431(19) 0.82412(17) 0.49059(18)
H30_3 H 0.9271 0.7937 0.4637
C42_3 C 0.9719(2) 0.8764(2) 0.46593(18)
H31_3 H 0.9754 0.8806 0.4222
C43_3 C 0.91180(19) 0.7577(2) 0.57893(19)
H32_3 H 0.8874 0.7341 0.5509
C44_3 C 0.89118(19) 0.65434(19) 0.7034(2)
C45_3 C 0.8472(2) 0.6075(2) 0.7208(2)
H33_3 H 0.8117 0.5995 0.6958
C46_3 C 0.8573(3) 0.5747(2) 0.7740(3)
H34_3 H 0.8286 0.5435 0.7862
C47_3 C 0.9099(3) 0.5866(2) 0.8107(2)
H35_3 H 0.9181 0.5635 0.8474
C48_3 C 0.9490(2) 0.6333(2) 0.7910(2)
N12_3 N 0.91723(15) 0.73820(15) 0.63462(16)
N13_3 N 0.88212(17) 0.68555(17) 0.64888(18)
H36_3 H 0.8539 0.6724 0.6225
N14_3 N 0.94148(16) 0.66718(17) 0.73924(17)
Br5_3 Br 0.65995(3) 0.98042(3) 0.15423(4)
H37_3 H 0.9038 0.9916 0.4464
Ag1_6 Ag 0.5000 0.2500 0.21265(2)
Br1_4 Br 0.51958(3) 0.15423(4) 0.34005(3)
C1_4 C 0.49482(17) 0.42340(17) 0.00464(18)
C2_4 C 0.4924(2) 0.41527(19) 0.06934(18)
H1_4 H 0.5084 0.4464 0.0962
C3_4 C 0.46612(18) 0.36086(18) 0.09404(18)
H2_4 H 0.4652 0.3551 0.1377
C4_4 C 0.44159(17) 0.31561(17) 0.05547(17)
C7_4 C 0.41180(19) 0.2577(2) 0.07893(19)
H5_4 H 0.3874 0.2341 0.0509
C8_4 C 0.39118(19) 0.15434(19) 0.2034(2)
C9_4 C 0.3472(2) 0.1075(2) 0.2208(2)
H6_4 H 0.3117 0.0995 0.1958
C10_4 C 0.3573(3) 0.0747(2) 0.2740(3)
H7_4 H 0.3286 0.0435 0.2862
C11_4 C 0.4099(3) 0.0866(2) 0.3107(2)
H8_4 H 0.4181 0.0635 0.3474
C12_4 C 0.4490(2) 0.1333(2) 0.2910(2)
N2_4 N 0.41723(15) 0.23820(15) 0.13462(16)
N3_4 N 0.38212(17) 0.18555(17) 0.14888(18)
H9_4 H 0.3539 0.1724 0.1225
N4_4 N 0.44148(16) 0.16718(17) 0.23924(17)
C25_4 C 0.57660(17) 0.50464(18) 0.00518(17)
C26_4 C 0.58473(19) 0.56934(18) 0.0076(2)
C27_4 C 0.63914(18) 0.59404(18) 0.03388(18)
H20_4 H 0.6449 0.6377 0.0348
C28_4 C 0.68439(17) 0.55547(17) 0.05841(17)
C29_4 C 0.67588(17) 0.49059(18) 0.05569(19)
H21_4 H 0.7063 0.4637 0.0729
C30_4 C 0.6236(2) 0.46593(18) 0.0281(2)
H22_4 H 0.6194 0.4222 0.0246
C31_4 C 0.7423(2) 0.57893(19) 0.08820(19)
H23_4 H 0.7659 0.5509 0.1126
C32_4 C 0.84566(19) 0.7034(2) 0.10882(19)
C33_4 C 0.8925(2) 0.7208(2) 0.1528(2)
H24_4 H 0.9005 0.6958 0.1883
C34_4 C 0.9253(2) 0.7740(3) 0.1427(3)
H25_4 H 0.9565 0.7862 0.1714
C35_4 C 0.9134(2) 0.8107(2) 0.0901(3)
H26_4 H 0.9365 0.8474 0.0819
C36_4 C 0.8667(2) 0.7910(2) 0.0510(2)
N8_4 N 0.76180(15) 0.63462(16) 0.08277(15)
N9_4 N 0.81445(17) 0.64888(18) 0.11788(17)
H27_4 H 0.8276 0.6225 0.1461
N10_4 N 0.83282(17) 0.73924(17) 0.05852(16)
Br4_4 Br 0.48042(3) 0.34577(4) 0.34005(3)
C37_4 C 0.50518(17) 0.07660(17) 0.00464(18)
C38_4 C 0.5076(2) 0.08473(19) 0.06934(18)
H28_4 H 0.4916 0.0536 0.0962
C39_4 C 0.53388(18) 0.13914(18) 0.09404(18)
H29_4 H 0.5348 0.1449 0.1377
C40_4 C 0.55841(17) 0.18439(17) 0.05547(17)
C43_4 C 0.58820(19) 0.2423(2) 0.07893(19)
H32_4 H 0.6126 0.2659 0.0509
C44_4 C 0.60882(19) 0.34566(19) 0.2034(2)
C45_4 C 0.6528(2) 0.3925(2) 0.2208(2)
H33_4 H 0.6883 0.4005 0.1958
C46_4 C 0.6427(3) 0.4253(2) 0.2740(3)
H34_4 H 0.6714 0.4565 0.2862
C47_4 C 0.5901(3) 0.4134(2) 0.3107(2)
H35_4 H 0.5819 0.4365 0.3474
C48_4 C 0.5510(2) 0.3667(2) 0.2910(2)
N12_4 N 0.58277(15) 0.26180(15) 0.13462(16)
N13_4 N 0.61788(17) 0.31445(17) 0.14888(18)
H36_4 H 0.6461 0.3276 0.1225
N14_4 N 0.55852(16) 0.33282(17) 0.23924(17)
C65_4 C 0.32412(17) 0.00941(18) 0.05569(19)
H48_4 H 0.2937 0.0363 0.0729
C66_4 C 0.3764(2) 0.03407(18) 0.0281(2)
H49_4 H 0.3806 0.0778 0.0246
C5_4 C 0.44431(19) 0.32412(17) 0.99059(18)
H3_4 H 0.4271 0.2937 0.9637
C6_4 C 0.4719(2) 0.3764(2) 0.96593(18)
H4_4 H 0.4754 0.3806 0.9222
N1_4 N 0.52096(19) 0.47904(19) 0.97904(19)
Br2_4 Br 0.15995(3) 0.48042(3) 0.65423(4)
C13_4 C 0.49536(18) 0.50518(17) 0.92340(17)
C14_4 C 0.43066(18) 0.5076(2) 0.91527(19)
H10_4 H 0.4038 0.4916 0.9464
C15_4 C 0.40596(18) 0.53388(18) 0.86086(18)
H11_4 H 0.3623 0.5348 0.8551
C16_4 C 0.44453(17) 0.55841(17) 0.81561(17)
C17_4 C 0.50941(18) 0.55569(19) 0.82412(17)
H12_4 H 0.5363 0.5729 0.7937
C18_4 C 0.53407(18) 0.5281(2) 0.8764(2)
H13_4 H 0.5778 0.5246 0.8806
C19_4 C 0.42107(19) 0.58820(19) 0.7577(2)
H14_4 H 0.4491 0.6126 0.7341
C20_4 C 0.2966(2) 0.60882(19) 0.65434(19)
C21_4 C 0.2792(2) 0.6528(2) 0.6075(2)
H15_4 H 0.3042 0.6883 0.5995
C22_4 C 0.2260(3) 0.6427(3) 0.5747(2)
H16_4 H 0.2138 0.6714 0.5435
C23_4 C 0.1893(2) 0.5901(3) 0.5866(2)
H17_4 H 0.1526 0.5819 0.5635
C24_4 C 0.2090(2) 0.5510(2) 0.6333(2)
N5_4 N 0.36538(16) 0.58277(15) 0.73820(15)
N6_4 N 0.35112(18) 0.61788(17) 0.68555(17)
H18_4 H 0.3775 0.6461 0.6724
N7_4 N 0.26076(17) 0.55852(16) 0.66718(17)
Br3_4 Br 0.84577(4) 0.84005(3) 0.98042(3)
H19_4 H 0.5536 0.5962 0.9916
C41_4 C 0.55569(19) 0.17588(17) 0.99059(18)
H30_4 H 0.5729 0.2063 0.9637
C42_4 C 0.5281(2) 0.1236(2) 0.96593(18)
H31_4 H 0.5246 0.1194 0.9222
N11_4 N 0.47904(19) 0.02096(19) 0.97904(19)
Br5_4 Br 0.84005(3) 0.01958(3) 0.65423(4)
H37_4 H 0.5962 0.0084 0.9464
C61_4 C 0.42340(17) 0.99536(18) 0.00518(17)
C62_4 C 0.41527(19) 0.93066(18) 0.0076(2)
C63_4 C 0.36086(18) 0.90596(18) 0.03388(18)
H47_4 H 0.3551 0.8623 0.0348
C64_4 C 0.31561(17) 0.94453(17) 0.05841(17)
C67_4 C 0.2577(2) 0.92107(19) 0.08820(19)
H50_4 H 0.2341 0.9491 0.1126
C68_4 C 0.15434(19) 0.7966(2) 0.10882(19)
C69_4 C 0.1075(2) 0.7792(2) 0.1528(2)
H51_4 H 0.0995 0.8042 0.1883
C70_4 C 0.0747(2) 0.7260(3) 0.1427(3)
H52_4 H 0.0435 0.7138 0.1714
C71_4 C 0.0866(2) 0.6893(2) 0.0901(3)
H53_4 H 0.0635 0.6526 0.0819
C72_4 C 0.1333(2) 0.7090(2) 0.0510(2)
N19_4 N 0.18555(17) 0.85112(18) 0.11788(17)
H54_4 H 0.1724 0.8775 0.1461
C49_4 C 0.50464(18) 0.99482(17) 0.92340(17)
C50_4 C 0.56934(18) 0.9924(2) 0.91527(19)
C51_4 C 0.59404(18) 0.96612(18) 0.86086(18)
H38_4 H 0.6377 0.9652 0.8551
C52_4 C 0.55547(17) 0.94159(17) 0.81561(17)
C53_4 C 0.49059(18) 0.94431(19) 0.82412(17)
H39_4 H 0.4637 0.9271 0.7937
C54_4 C 0.46593(18) 0.9719(2) 0.8764(2)
H40_4 H 0.4222 0.9754 0.8806
C55_4 C 0.57893(19) 0.91180(19) 0.7577(2)
H41_4 H 0.5509 0.8874 0.7341
C56_4 C 0.7034(2) 0.89118(19) 0.65434(19)
C57_4 C 0.7208(2) 0.8472(2) 0.6075(2)
H42_4 H 0.6958 0.8117 0.5995
C58_4 C 0.7740(3) 0.8573(3) 0.5747(2)
H43_4 H 0.7862 0.8286 0.5435
C59_4 C 0.8107(2) 0.9099(3) 0.5866(2)
H44_4 H 0.8474 0.9181 0.5635
C60_4 C 0.7910(2) 0.9490(2) 0.6333(2)
N16_4 N 0.64888(18) 0.88212(17) 0.68555(17)
H45_4 H 0.6225 0.8539 0.6724
Br6_4 Br 0.15423(4) 0.65995(3) 0.98042(3)
H46_4 H 0.4464 0.9038 0.9916
Cl1 Cl 0.68717(6) 0.5000 0.7500
O1 O 0.6503(2) 0.4490(3) 0.7253(2)
O2 O 0.72541(19) 0.4762(2) 0.79927(19)
O3 O 0.6503(2) 0.5510(3) 0.7747(2)
O4 O 0.72541(19) 0.5238(2) 0.70073(19)
Cl1_2 Cl 0.81283(6) 0.5000 0.2500
O1_2 O 0.8497(2) 0.5510(3) 0.2253(2)
O2_2 O 0.77459(19) 0.5238(2) 0.29927(19)
O3_2 O 0.8497(2) 0.4490(3) 0.2747(2)
O4_2 O 0.77459(19) 0.4762(2) 0.20073(19)
Cl1_3 Cl 0.31283(6) 0.0000 0.7500
O3_3 O 0.3497(2) 0.0510(3) 0.7253(2)
O4_3 O 0.27459(19) 0.0238(2) 0.79927(19)
Cl1_4 Cl 0.31283(6) 1.0000 0.7500
O1_3 O 0.3497(2) 0.9490(3) 0.7747(2)
O2_3 O 0.27459(19) 0.9762(2) 0.70073(19)
Cl1_5 Cl 0.18717(6) -0.0000 0.2500
O1_4 O 0.1503(2) 0.0510(3) 0.2747(2)
O2_4 O 0.22541(19) 0.0238(2) 0.20073(19)
Cl1_6 Cl 0.18717(6) 1.0000 0.2500
O3_4 O 0.1503(2) 0.9490(3) 0.2253(2)
O4_4 O 0.22541(19) 0.9762(2) 0.29927(19)
Cl1_7 Cl 0.7500 0.68717(6) 0.5000
O1_5 O 0.7253(2) 0.6503(2) 0.4490(3)
O2_5 O 0.79927(19) 0.72541(19) 0.4762(2)
O3_5 O 0.7747(2) 0.6503(2) 0.5510(3)
O4_5 O 0.70073(19) 0.72541(19) 0.5238(2)
Cl1_8 Cl 0.2500 0.81283(6) 0.5000
O1_6 O 0.2253(2) 0.8497(2) 0.5510(3)
O2_6 O 0.29927(19) 0.77459(19) 0.5238(2)
O3_6 O 0.2747(2) 0.8497(2) 0.4490(3)
O4_6 O 0.20073(19) 0.77459(19) 0.4762(2)
Cl1_9 Cl 0.7500 0.31283(6) 0.0000
O3_7 O 0.7253(2) 0.3497(2) 0.0510(3)
O4_7 O 0.79927(19) 0.27459(19) 0.0238(2)
Cl1_10 Cl 0.7500 0.31283(6) 1.0000
O1_7 O 0.7747(2) 0.3497(2) 0.9490(3)
O2_7 O 0.70073(19) 0.27459(19) 0.9762(2)
Cl1_11 Cl 0.2500 0.18717(6) -0.0000
O1_8 O 0.2747(2) 0.1503(2) 0.0510(3)
O2_8 O 0.20073(19) 0.22541(19) 0.0238(2)
Cl1_12 Cl 0.2500 0.18717(6) 1.0000
O3_8 O 0.2253(2) 0.1503(2) 0.9490(3)
O4_8 O 0.29927(19) 0.22541(19) 0.9762(2)
Cl1_13 Cl 0.5000 0.7500 0.68717(6)
O1_9 O 0.4490(3) 0.7253(2) 0.6503(2)
O2_9 O 0.4762(2) 0.79927(19) 0.72541(19)
O3_9 O 0.5510(3) 0.7747(2) 0.6503(2)
O4_9 O 0.5238(2) 0.70073(19) 0.72541(19)
Cl1_14 Cl 0.5000 0.2500 0.81283(6)
O1_10 O 0.5510(3) 0.2253(2) 0.8497(2)
O2_10 O 0.5238(2) 0.29927(19) 0.77459(19)
O3_10 O 0.4490(3) 0.2747(2) 0.8497(2)
O4_10 O 0.4762(2) 0.20073(19) 0.77459(19)
Cl1_15 Cl 0.0000 0.7500 0.31283(6)
O3_11 O 0.0510(3) 0.7253(2) 0.3497(2)
O4_11 O 0.0238(2) 0.79927(19) 0.27459(19)
Cl1_16 Cl 1.0000 0.7500 0.31283(6)
O1_11 O 0.9490(3) 0.7747(2) 0.3497(2)
O2_11 O 0.9762(2) 0.70073(19) 0.27459(19)
Cl1_17 Cl -0.0000 0.2500 0.18717(6)
O1_12 O 0.0510(3) 0.2747(2) 0.1503(2)
O2_12 O 0.0238(2) 0.20073(19) 0.22541(19)
Cl1_18 Cl 1.0000 0.2500 0.18717(6)
O3_12 O 0.9490(3) 0.2253(2) 0.1503(2)
O4_12 O 0.9762(2) 0.29927(19) 0.22541(19)
loop_
_geom_bond_atom_site_label_1
_geom_bond_atom_site_label_2
_geom_bond_site_symmetry_1
_geom_bond_site_symmetry_2
H30 C41 1_555 1_555
H31 C42 1_555 1_555
Br5 C60 1_555 1_555
C50 C49 1_555 1_555
H37 C50 1_555 1_555
C51 C50 1_555 1_555
H38 C51 1_555 1_555
C52 C51 1_555 1_555
C55 C52 1_555 1_555
H41 C55 1_555 1_555
C56 C57 1_555 1_555
C57 H42 1_555 1_555
C58 C57 1_555 1_555
H43 C58 1_555 1_555
C59 C58 1_555 1_555
H44 C59 1_555 1_555
C60 C59 1_555 1_555
N15 C55 1_555 1_555
N16 C56 1_555 1_555
H45 N16 1_555 1_555
N17 C56 1_555 1_555
Ag4 N15 1_555 1_555
C41 C42 1_555 1_555
C60 N17 1_555 1_555
N15 N16 1_555 1_555
N17 Ag4 1_555 1_555
H21 C29 1_555 1_555
H22 C30 1_555 1_555
C37 C38 1_555 1_555
C39 C38 1_555 1_555
H29 C39 1_555 1_555
C40 C39 1_555 1_555
C43 C40 1_555 1_555
H32 C43 1_555 1_555
C44 C45 1_555 1_555
C45 H33 1_555 1_555
C46 C45 1_555 1_555
H34 C46 1_555 1_555
C47 C46 1_555 1_555
H35 C47 1_555 1_555
C48 C47 1_555 1_555
N12 Ag1 1_555 1_555
N13 C44 1_555 1_555
H36 N13 1_555 1_555
N14 Ag1 1_555 1_555
C29 C30 1_555 1_555
C43 N12 1_555 1_555
C44 N14 1_555 1_555
C48 N14 1_555 1_555
N12 N13 1_555 1_555
H12 C17 1_555 1_555
H13 C18 1_555 1_555
N22 Ag3 1_555 1_555
N24 Ag3 1_555 1_555
C17 C18 1_555 1_555
C26 C25 1_555 1_555
C27 C26 1_555 1_555
H20 C27 1_555 1_555
C28 C27 1_555 1_555
C31 C28 1_555 1_555
H23 C31 1_555 1_555
C32 C33 1_555 1_555
C33 H24 1_555 1_555
C34 C33 1_555 1_555
H25 C34 1_555 1_555
C35 C34 1_555 1_555
H26 C35 1_555 1_555
C36 C35 1_555 1_555
N8 C31 1_555 1_555
N9 C32 1_555 1_555
H27 N9 1_555 1_555
N10 C32 1_555 1_555
Ag3_2 N8 1_555 1_555
C36 N10 1_555 1_555
N8 N9 1_555 1_555
N10 Ag3_2 1_555 1_555
H3 C5 1_555 1_555
H4 C6 1_555 1_555
H39 C53 1_555 1_555
H40 C54 1_555 1_555
N21 Ag2 1_555 1_555
N23 Ag2 1_555 1_555
C5 C6 1_555 1_555
C53 C54 1_555 1_555
Ag1_2 N2 1_555 1_555
C1 C2 1_555 1_555
C3 C2 1_555 1_555
H2 C3 1_555 1_555
C4 C3 1_555 1_555
C7 C4 1_555 1_555
H5 C7 1_555 1_555
C8 C9 1_555 1_555
C9 H6 1_555 1_555
C10 C9 1_555 1_555
H7 C10 1_555 1_555
C11 C10 1_555 1_555
H8 C11 1_555 1_555
C12 C11 1_555 1_555
N2 C7 1_555 1_555
N3 C8 1_555 1_555
H9 N3 1_555 1_555
N4 Ag1_2 1_555 1_555
C62 C61 1_555 1_555
C63 C62 1_555 1_555
H47 C63 1_555 1_555
C64 C63 1_555 1_555
C65 C64 1_555 1_555
H48 C65 1_555 1_555
C66 C61 1_555 1_555
H49 C66 1_555 1_555
C67 C64 1_555 1_555
H50 C67 1_555 1_555
C68 C69 1_555 1_555
C69 H51 1_555 1_555
C70 C69 1_555 1_555
H52 C70 1_555 1_555
C71 C70 1_555 1_555
H53 C71 1_555 1_555
C72 C71 1_555 1_555
N18 C67 1_555 1_555
N19 C68 1_555 1_555
H54 N19 1_555 1_555
N20 C68 1_555 1_555
Ag5_2 N18 1_555 1_555
C8 N4 1_555 1_555
C12 N4 1_555 1_555
N2 N3 1_555 1_555
C65 C66 1_555 1_555
C72 N20 1_555 1_555
N18 N19 1_555 1_555
N20 Ag5_2 1_555 1_555
C14 C13 1_555 1_555
C15 C14 1_555 1_555
H11 C15 1_555 1_555
C16 C15 1_555 1_555
C19 C16 1_555 1_555
H14 C19 1_555 1_555
C20 C21 1_555 1_555
C21 H15 1_555 1_555
C22 C21 1_555 1_555
H16 C22 1_555 1_555
C23 C22 1_555 1_555
H17 C23 1_555 1_555
C24 C23 1_555 1_555
N5 C19 1_555 1_555
N6 C20 1_555 1_555
H18 N6 1_555 1_555
N7 C20 1_555 1_555
Ag2_2 N5 1_555 1_555
C24 N7 1_555 1_555
N5 N6 1_555 1_555
N7 Ag2_2 1_555 1_555
C14_2 C13_2 1_555 1_555
C15_2 C14_2 1_555 1_555
H11_2 C15_2 1_555 1_555
C16_2 C15_2 1_555 1_555
C17_2 C16_2 1_555 1_555
H12_2 C17_2 1_555 1_555
C18_2 C13_2 1_555 1_555
H13_2 C18_2 1_555 1_555
C19_2 C16_2 1_555 1_555
H14_2 C19_2 1_555 1_555
C20_2 C21_2 1_555 1_555
C21_2 H15_2 1_555 1_555
C22_2 C21_2 1_555 1_555
H16_2 C22_2 1_555 1_555
C23_2 C22_2 1_555 1_555
H17_2 C23_2 1_555 1_555
C24_2 C23_2 1_555 1_555
N5_2 C19_2 1_555 1_555
N6_2 C20_2 1_555 1_555
H18_2 N6_2 1_555 1_555
N7_2 C20_2 1_555 1_555
Br3_2 C36_2 1_555 1_555
C26_2 C25_2 1_555 1_555
H19_2 C26_2 1_555 1_555
C27_2 C26_2 1_555 1_555
H20_2 C27_2 1_555 1_555
C28_2 C27_2 1_555 1_555
C31_2 C28_2 1_555 1_555
H23_2 C31_2 1_555 1_555
C32_2 C33_2 1_555 1_555
C33_2 H24_2 1_555 1_555
C34_2 C33_2 1_555 1_555
H25_2 C34_2 1_555 1_555
C35_2 C34_2 1_555 1_555
H26_2 C35_2 1_555 1_555
C36_2 C35_2 1_555 1_555
N8_2 C31_2 1_555 1_555
N9_2 C32_2 1_555 1_555
H27_2 N9_2 1_555 1_555
N10_2 C32_2 1_555 1_555
Ag2_3 N5_2 1_555 1_555
Ag3_3 N8_2 1_555 1_555
N22_2 Ag3_3 1_555 1_555
N24_2 Ag3_3 1_555 1_555
C17_2 C18_2 1_555 1_555
C24_2 N7_2 1_555 1_555
N5_2 N6_2 1_555 1_555
N7_2 Ag2_3 1_555 1_555
C36_2 N10_2 1_555 1_555
N8_2 N9_2 1_555 1_555
N10_2 Ag3_3 1_555 1_555
Ag1_3 N2_2 1_555 1_555
Br1_2 C12_2 1_555 1_555
C1_2 C2_2 1_555 1_555
C2_2 H1_2 1_555 1_555
C3_2 C2_2 1_555 1_555
H2_2 C3_2 1_555 1_555
C4_2 C3_2 1_555 1_555
C5_2 C4_2 1_555 1_555
H3_2 C5_2 1_555 1_555
C6_2 C1_2 1_555 1_555
H4_2 C6_2 1_555 1_555
C7_2 C4_2 1_555 1_555
H5_2 C7_2 1_555 1_555
C8_2 C9_2 1_555 1_555
C9_2 H6_2 1_555 1_555
C10_2 C9_2 1_555 1_555
H7_2 C10_2 1_555 1_555
C11_2 C10_2 1_555 1_555
H8_2 C11_2 1_555 1_555
C12_2 C11_2 1_555 1_555
N1_2 C1_2 1_555 1_555
N2_2 C7_2 1_555 1_555
N3_2 C8_2 1_555 1_555
H9_2 N3_2 1_555 1_555
N4_2 Ag1_3 1_555 1_555
H21_2 C29_2 1_555 1_555
H22_2 C30_2 1_555 1_555
Br4_2 C48_2 1_555 1_555
C37_2 C38_2 1_555 1_555
C38_2 H28_2 1_555 1_555
C39_2 C38_2 1_555 1_555
H29_2 C39_2 1_555 1_555
C40_2 C39_2 1_555 1_555
C41_2 C40_2 1_555 1_555
H30_2 C41_2 1_555 1_555
C42_2 C37_2 1_555 1_555
H31_2 C42_2 1_555 1_555
C43_2 C40_2 1_555 1_555
H32_2 C43_2 1_555 1_555
C44_2 C45_2 1_555 1_555
C45_2 H33_2 1_555 1_555
C46_2 C45_2 1_555 1_555
H34_2 C46_2 1_555 1_555
C47_2 C46_2 1_555 1_555
H35_2 C47_2 1_555 1_555
C48_2 C47_2 1_555 1_555
N11_2 C37_2 1_555 1_555
N12_2 Ag1_3 1_555 1_555
N13_2 C44_2 1_555 1_555
H36_2 N13_2 1_555 1_555
N14_2 Ag1_3 1_555 1_555
Br5_2 C60_2 1_555 1_555
C49_2 N11_2 1_555 1_555
C50_2 C49_2 1_555 1_555
H37_2 C50_2 1_555 1_555
C51_2 C50_2 1_555 1_555
H38_2 C51_2 1_555 1_555
C52_2 C51_2 1_555 1_555
C53_2 C52_2 1_555 1_555
H39_2 C53_2 1_555 1_555
C54_2 C49_2 1_555 1_555
H40_2 C54_2 1_555 1_555
C55_2 C52_2 1_555 1_555
H41_2 C55_2 1_555 1_555
C56_2 C57_2 1_555 1_555
C57_2 H42_2 1_555 1_555
C58_2 C57_2 1_555 1_555
H43_2 C58_2 1_555 1_555
C59_2 C58_2 1_555 1_555
H44_2 C59_2 1_555 1_555
C60_2 C59_2 1_555 1_555
N15_2 C55_2 1_555 1_555
N16_2 C56_2 1_555 1_555
H45_2 N16_2 1_555 1_555
N17_2 C56_2 1_555 1_555
Br6_2 C72_2 1_555 1_555
C61_2 N11_2 1_555 1_555
C62_2 C61_2 1_555 1_555
H46_2 C62_2 1_555 1_555
C63_2 C62_2 1_555 1_555
H47_2 C63_2 1_555 1_555
C64_2 C63_2 1_555 1_555
C65_2 C64_2 1_555 1_555
H48_2 C65_2 1_555 1_555
C66_2 C61_2 1_555 1_555
H49_2 C66_2 1_555 1_555
C67_2 C64_2 1_555 1_555
H50_2 C67_2 1_555 1_555
C68_2 C69_2 1_555 1_555
C69_2 H51_2 1_555 1_555
C70_2 C69_2 1_555 1_555
H52_2 C70_2 1_555 1_555
C71_2 C70_2 1_555 1_555
H53_2 C71_2 1_555 1_555
C72_2 C71_2 1_555 1_555
N18_2 C67_2 1_555 1_555
N19_2 C68_2 1_555 1_555
H54_2 N19_2 1_555 1_555
N20_2 C68_2 1_555 1_555
Ag4_2 N15_2 1_555 1_555
Ag5_3 N18_2 1_555 1_555
N21_2 Ag2_4 1_555 1_555
N23_2 Ag2_4 1_555 1_555
C5_2 C6_2 1_555 1_555
C8_2 N4_2 1_555 1_555
C12_2 N4_2 1_555 1_555
N2_2 N3_2 1_555 1_555
C29_2 C30_2 1_555 1_555
C41_2 C42_2 1_555 1_555
C43_2 N12_2 1_555 1_555
C44_2 N14_2 1_555 1_555
C48_2 N14_2 1_555 1_555
N12_2 N13_2 1_555 1_555
C53_2 C54_2 1_555 1_555
C60_2 N17_2 1_555 1_555
N15_2 N16_2 1_555 1_555
N17_2 Ag4_2 1_555 1_555
C65_2 C66_2 1_555 1_555
C72_2 N20_2 1_555 1_555
N18_2 N19_2 1_555 1_555
N20_2 Ag5_3 1_555 1_555
H39_3 C53_3 1_555 1_555
H40_3 C54_3 1_555 1_555
Br6_3 C72_3 1_555 1_555
C62_3 C61_3 1_555 1_555
H46_3 C62_3 1_555 1_555
C63_3 C62_3 1_555 1_555
H47_3 C63_3 1_555 1_555
C64_3 C63_3 1_555 1_555
C67_3 C64_3 1_555 1_555
H50_3 C67_3 1_555 1_555
C68_3 C69_3 1_555 1_555
C69_3 H51_3 1_555 1_555
C70_3 C69_3 1_555 1_555
H52_3 C70_3 1_555 1_555
C71_3 C70_3 1_555 1_555
H53_3 C71_3 1_555 1_555
C72_3 C71_3 1_555 1_555
N22_2 C67_3 1_555 1_555
N19_3 C68_3 1_555 1_555
H54_3 N19_3 1_555 1_555
N24_2 C68_3 1_555 1_555
C53_3 C54_3 1_555 1_555
C72_3 N24_2 1_555 1_555
N22_2 N19_3 1_555 1_555
Ag1_4 N2_3 1_555 1_555
C1_3 C2_3 1_555 1_555
C3_3 C2_3 1_555 1_555
H2_3 C3_3 1_555 1_555
C4_3 C3_3 1_555 1_555
C5_3 C4_3 1_555 1_555
H3_3 C5_3 1_555 1_555
C6_3 C1_3 1_555 1_555
H4_3 C6_3 1_555 1_555
C7_3 C4_3 1_555 1_555
H5_3 C7_3 1_555 1_555
C8_3 C9_3 1_555 1_555
C9_3 H6_3 1_555 1_555
C10_3 C9_3 1_555 1_555
H7_3 C10_3 1_555 1_555
C11_3 C10_3 1_555 1_555
H8_3 C11_3 1_555 1_555
C12_3 C11_3 1_555 1_555
N2_3 C7_3 1_555 1_555
N3_3 C8_3 1_555 1_555
H9_3 N3_3 1_555 1_555
N4_3 Ag1_4 1_555 1_555
Br2_3 C24_3 1_555 1_555
C14_3 C13_3 1_555 1_555
H10_3 C14_3 1_555 1_555
C15_3 C14_3 1_555 1_555
H11_3 C15_3 1_555 1_555
C16_3 C15_3 1_555 1_555
C19_3 C16_3 1_555 1_555
H14_3 C19_3 1_555 1_555
C20_3 C21_3 1_555 1_555
C21_3 H15_3 1_555 1_555
C22_3 C21_3 1_555 1_555
H16_3 C22_3 1_555 1_555
C23_3 C22_3 1_555 1_555
H17_3 C23_3 1_555 1_555
C24_3 C23_3 1_555 1_555
N5_3 C19_3 1_555 1_555
N6_3 C20_3 1_555 1_555
H18_3 N6_3 1_555 1_555
N7_3 C20_3 1_555 1_555
Ag4 N5_3 1_555 1_555
H48_3 C65_3 1_555 1_555
H49_3 C66_3 1_555 1_555
C5_3 C6_3 1_555 1_555
C8_3 N4_3 1_555 1_555
C12_3 N4_3 1_555 1_555
N2_3 N3_3 1_555 1_555
C24_3 N7_3 1_555 1_555
N5_3 N6_3 1_555 1_555
N7_3 Ag4 1_555 1_555
C65_3 C66_3 1_555 1_555
C50_3 C49_3 1_555 1_555
C51_3 C50_3 1_555 1_555
H38_3 C51_3 1_555 1_555
C52_3 C51_3 1_555 1_555
C55_3 C52_3 1_555 1_555
H41_3 C55_3 1_555 1_555
C56_3 C57_3 1_555 1_555
C57_3 H42_3 1_555 1_555
C58_3 C57_3 1_555 1_555
H43_3 C58_3 1_555 1_555
C59_3 C58_3 1_555 1_555
H44_3 C59_3 1_555 1_555
C60_3 C59_3 1_555 1_555
N21 C55_3 1_555 1_555
N16_3 C56_3 1_555 1_555
H45_3 N16_3 1_555 1_555
N23 C56_3 1_555 1_555
C60_3 N23 1_555 1_555
N21 N16_3 1_555 1_555
H12_3 C17_3 1_555 1_555
H13_3 C18_3 1_555 1_555
Br3_3 C36_3 1_555 1_555
C25_3 N1_3 1_555 1_555
C26_3 C25_3 1_555 1_555
H19_3 C26_3 1_555 1_555
C27_3 C26_3 1_555 1_555
H20_3 C27_3 1_555 1_555
C28_3 C27_3 1_555 1_555
C29_3 C28_3 1_555 1_555
H21_3 C29_3 1_555 1_555
C30_3 C25_3 1_555 1_555
H22_3 C30_3 1_555 1_555
C31_3 C28_3 1_555 1_555
H23_3 C31_3 1_555 1_555
C32_3 C33_3 1_555 1_555
C33_3 H24_3 1_555 1_555
C34_3 C33_3 1_555 1_555
H25_3 C34_3 1_555 1_555
C35_3 C34_3 1_555 1_555
H26_3 C35_3 1_555 1_555
C36_3 C35_3 1_555 1_555
N8_3 C31_3 1_555 1_555
N9_3 C32_3 1_555 1_555
H27_3 N9_3 1_555 1_555
N10_3 C32_3 1_555 1_555
Ag5_3 N8_3 1_555 1_555
C37_3 C38_3 1_555 1_555
C39_3 C38_3 1_555 1_555
H29_3 C39_3 1_555 1_555
C40_3 C39_3 1_555 1_555
C41_3 C40_3 1_555 1_555
H30_3 C41_3 1_555 1_555
C42_3 C37_3 1_555 1_555
H31_3 C42_3 1_555 1_555
C43_3 C40_3 1_555 1_555
H32_3 C43_3 1_555 1_555
C44_3 C45_3 1_555 1_555
C45_3 H33_3 1_555 1_555
C46_3 C45_3 1_555 1_555
H34_3 C46_3 1_555 1_555
C47_3 C46_3 1_555 1_555
H35_3 C47_3 1_555 1_555
C48_3 C47_3 1_555 1_555
N12_3 Ag1_5 1_555 1_555
N13_3 C44_3 1_555 1_555
H36_3 N13_3 1_555 1_555
N14_3 Ag1_5 1_555 1_555
C17_3 C18_3 1_555 1_555
C29_3 C30_3 1_555 1_555
C36_3 N10_3 1_555 1_555
N8_3 N9_3 1_555 1_555
N10_3 Ag5_3 1_555 1_555
C41_3 C42_3 1_555 1_555
C43_3 N12_3 1_555 1_555
C44_3 N14_3 1_555 1_555
C48_3 N14_3 1_555 1_555
N12_3 N13_3 1_555 1_555
Ag1_6 N2_4 1_555 1_555
Br1_4 C12_4 1_555 1_555
C1_4 C2_4 1_555 1_555
C2_4 H1_4 1_555 1_555
C3_4 C2_4 1_555 1_555
H2_4 C3_4 1_555 1_555
C4_4 C3_4 1_555 1_555
C7_4 C4_4 1_555 1_555
H5_4 C7_4 1_555 1_555
C8_4 C9_4 1_555 1_555
C9_4 H6_4 1_555 1_555
C10_4 C9_4 1_555 1_555
H7_4 C10_4 1_555 1_555
C11_4 C10_4 1_555 1_555
H8_4 C11_4 1_555 1_555
C12_4 C11_4 1_555 1_555
N2_4 C7_4 1_555 1_555
N3_4 C8_4 1_555 1_555
H9_4 N3_4 1_555 1_555
N4_4 Ag1_6 1_555 1_555
C26_4 C25_4 1_555 1_555
C27_4 C26_4 1_555 1_555
H20_4 C27_4 1_555 1_555
C28_4 C27_4 1_555 1_555
C29_4 C28_4 1_555 1_555
H21_4 C29_4 1_555 1_555
C30_4 C25_4 1_555 1_555
H22_4 C30_4 1_555 1_555
C31_4 C28_4 1_555 1_555
H23_4 C31_4 1_555 1_555
C32_4 C33_4 1_555 1_555
C33_4 H24_4 1_555 1_555
C34_4 C33_4 1_555 1_555
H25_4 C34_4 1_555 1_555
C35_4 C34_4 1_555 1_555
H26_4 C35_4 1_555 1_555
C36_4 C35_4 1_555 1_555
N8_4 C31_4 1_555 1_555
N9_4 C32_4 1_555 1_555
H27_4 N9_4 1_555 1_555
N10_4 C32_4 1_555 1_555
Ag5 N8_4 1_555 1_555
Br4_4 C48_4 1_555 1_555
C37_4 C38_4 1_555 1_555
C38_4 H28_4 1_555 1_555
C39_4 C38_4 1_555 1_555
H29_4 C39_4 1_555 1_555
C40_4 C39_4 1_555 1_555
C43_4 C40_4 1_555 1_555
H32_4 C43_4 1_555 1_555
C44_4 C45_4 1_555 1_555
C45_4 H33_4 1_555 1_555
C46_4 C45_4 1_555 1_555
H34_4 C46_4 1_555 1_555
C47_4 C46_4 1_555 1_555
H35_4 C47_4 1_555 1_555
C48_4 C47_4 1_555 1_555
N12_4 Ag1_6 1_555 1_555
N13_4 C44_4 1_555 1_555
H36_4 N13_4 1_555 1_555
N14_4 Ag1_6 1_555 1_555
H48_4 C65_4 1_555 1_555
H49_4 C66_4 1_555 1_555
C8_4 N4_4 1_555 1_555
C12_4 N4_4 1_555 1_555
N2_4 N3_4 1_555 1_555
C29_4 C30_4 1_555 1_555
C36_4 N10_4 1_555 1_555
N8_4 N9_4 1_555 1_555
N10_4 Ag5 1_555 1_555
C43_4 N12_4 1_555 1_555
C44_4 N14_4 1_555 1_555
C48_4 N14_4 1_555 1_555
N12_4 N13_4 1_555 1_555
C65_4 C66_4 1_555 1_555
H3_4 C5_4 1_555 1_555
H4_4 C6_4 1_555 1_555
Br2_4 C24_4 1_555 1_555
C13_4 N1_4 1_555 1_555
C14_4 C13_4 1_555 1_555
H10_4 C14_4 1_555 1_555
C15_4 C14_4 1_555 1_555
H11_4 C15_4 1_555 1_555
C16_4 C15_4 1_555 1_555
C17_4 C16_4 1_555 1_555
H12_4 C17_4 1_555 1_555
C18_4 C13_4 1_555 1_555
H13_4 C18_4 1_555 1_555
C19_4 C16_4 1_555 1_555
H14_4 C19_4 1_555 1_555
C20_4 C21_4 1_555 1_555
C21_4 H15_4 1_555 1_555
C22_4 C21_4 1_555 1_555
H16_4 C22_4 1_555 1_555
C23_4 C22_4 1_555 1_555
H17_4 C23_4 1_555 1_555
C24_4 C23_4 1_555 1_555
N5_4 C19_4 1_555 1_555
N6_4 C20_4 1_555 1_555
H18_4 N6_4 1_555 1_555
N7_4 C20_4 1_555 1_555
Ag4_2 N5_4 1_555 1_555
H30_4 C41_4 1_555 1_555
H31_4 C42_4 1_555 1_555
C5_4 C6_4 1_555 1_555
C17_4 C18_4 1_555 1_555
C24_4 N7_4 1_555 1_555
N5_4 N6_4 1_555 1_555
N7_4 Ag4_2 1_555 1_555
C41_4 C42_4 1_555 1_555
C62_4 C61_4 1_555 1_555
C63_4 C62_4 1_555 1_555
H47_4 C63_4 1_555 1_555
C64_4 C63_4 1_555 1_555
C67_4 C64_4 1_555 1_555
H50_4 C67_4 1_555 1_555
C68_4 C69_4 1_555 1_555
C69_4 H51_4 1_555 1_555
C70_4 C69_4 1_555 1_555
H52_4 C70_4 1_555 1_555
C71_4 C70_4 1_555 1_555
H53_4 C71_4 1_555 1_555
C72_4 C71_4 1_555 1_555
N22 C67_4 1_555 1_555
N19_4 C68_4 1_555 1_555
H54_4 N19_4 1_555 1_555
N24 C68_4 1_555 1_555
C72_4 N24 1_555 1_555
N22 N19_4 1_555 1_555
C50_4 C49_4 1_555 1_555
C51_4 C50_4 1_555 1_555
H38_4 C51_4 1_555 1_555
C52_4 C51_4 1_555 1_555
C53_4 C52_4 1_555 1_555
H39_4 C53_4 1_555 1_555
C54_4 C49_4 1_555 1_555
H40_4 C54_4 1_555 1_555
C55_4 C52_4 1_555 1_555
H41_4 C55_4 1_555 1_555
C56_4 C57_4 1_555 1_555
C57_4 H42_4 1_555 1_555
C58_4 C57_4 1_555 1_555
H43_4 C58_4 1_555 1_555
C59_4 C58_4 1_555 1_555
H44_4 C59_4 1_555 1_555
C60_4 C59_4 1_555 1_555
N21_2 C55_4 1_555 1_555
N16_4 C56_4 1_555 1_555
H45_4 N16_4 1_555 1_555
N23_2 C56_4 1_555 1_555
C53_4 C54_4 1_555 1_555
C60_4 N23_2 1_555 1_555
N21_2 N16_4 1_555 1_555
Cl1 O1 1_555 1_555
O2 Cl1 1_555 1_555
O3 Cl1 1_555 1_555
O4 Cl1 1_555 1_555
Cl1_2 O1_2 1_555 1_555
O2_2 Cl1_2 1_555 1_555
O3_2 Cl1_2 1_555 1_555
O4_2 Cl1_2 1_555 1_555
O3_3 Cl1_3 1_555 1_555
O4_3 Cl1_3 1_555 1_555
Cl1_4 O1_3 1_555 1_555
O2_3 Cl1_4 1_555 1_555
Cl1_5 O1_4 1_555 1_555
O2_4 Cl1_5 1_555 1_555
O3_4 Cl1_6 1_555 1_555
O4_4 Cl1_6 1_555 1_555
Cl1_7 O1_5 1_555 1_555
O2_5 Cl1_7 1_555 1_555
O3_5 Cl1_7 1_555 1_555
O4_5 Cl1_7 1_555 1_555
Cl1_8 O1_6 1_555 1_555
O2_6 Cl1_8 1_555 1_555
O3_6 Cl1_8 1_555 1_555
O4_6 Cl1_8 1_555 1_555
O3_7 Cl1_9 1_555 1_555
O4_7 Cl1_9 1_555 1_555
Cl1_10 O1_7 1_555 1_555
O2_7 Cl1_10 1_555 1_555
Cl1_11 O1_8 1_555 1_555
O2_8 Cl1_11 1_555 1_555
O3_8 Cl1_12 1_555 1_555
O4_8 Cl1_12 1_555 1_555
Cl1_13 O1_9 1_555 1_555
O2_9 Cl1_13 1_555 1_555
O3_9 Cl1_13 1_555 1_555
O4_9 Cl1_13 1_555 1_555
Cl1_14 O1_10 1_555 1_555
O2_10 Cl1_14 1_555 1_555
O3_10 Cl1_14 1_555 1_555
O4_10 Cl1_14 1_555 1_555
O3_11 Cl1_15 1_555 1_555
O4_11 Cl1_15 1_555 1_555
Cl1_16 O1_11 1_555 1_555
O2_11 Cl1_16 1_555 1_555
Cl1_17 O1_12 1_555 1_555
O2_12 Cl1_17 1_555 1_555
O3_12 Cl1_18 1_555 1_555
O4_12 Cl1_18 1_555 1_555

#END
