
###############################################################################
#
# This file contains modified crystal structure data generated from the
# MOF subset of the Cambridge Structural Database (CSD) v543 
# hosted by the Cambridge Crystallographic Data Centre (CCDC).
#
# This work is licensed under the Creative Commons
# Attribution-NonCommercial-ShareAlike 4.0 International License.
# To view a copy of this license, visit
# http://creativecommons.org/licenses/by-nc-sa/4.0/
# or send a letter to
# Creative Commons, PO Box 1866, Mountain View, CA 94042, USA.
#
# CIF created using the CSD Python API on 29 September 2022
# The structure has been converted into the P1 space group
# The structure has a 3D framework
# The original CSD entry KENTEF03 is in the cubic crystal system
# The original CSD entry KENTEF03 is in a Sohncke space group
# The framework has been calculated to contain at least 10.0% void space
# The void calculation uses a probe of radius 1.32A, grid spacing 0.4
# The framework is charged, counterions have been retained in the structure
#
###############################################################################

data_KENTEF03
_chemical_formula_moiety         '(C288 H216 Ag14 Br24 Cl18 N80 O48 2+)n'
_symmetry_cell_setting           triclinic
_symmetry_space_group_name_H-M   'P 1'
_symmetry_Int_Tables_number      1
_space_group_name_Hall           'P 1'
loop_
_symmetry_equiv_pos_site_id
_symmetry_equiv_pos_as_xyz
1 x,y,z
_cell_length_a                   21.2287(5)
_cell_length_b                   21.2287(5)
_cell_length_c                   21.2287(5)
_cell_angle_alpha                90
_cell_angle_beta                 90
_cell_angle_gamma                90
_cell_volume                     9566.88
loop_
_atom_site_label
_atom_site_type_symbol
_atom_site_fract_x
_atom_site_fract_y
_atom_site_fract_z
Ag1 Ag 0.2500 0.45976(6) 0.0000
N2 N 0.2294(5) 0.2294(5) 0.2294(5)
C1 C 0.2868(4) 0.3429(4) 0.1109(5)
H2 H 0.2903 0.3868 0.1059
C2 C 0.2556(4) 0.2541(4) 0.1732(4)
C3 C 0.3093(4) 0.3040(4) 0.0644(4)
C4 C 0.2589(5) 0.3188(5) 0.1655(5)
H3 H 0.2426 0.3461 0.1964
C5 C 0.3384(5) 0.3268(5) 0.0062(5)
C6 C 0.3048(5) 0.2389(5) 0.0736(4)
H5 H 0.3210 0.2113 0.0430
C7 C 0.2775(5) 0.2152(4) 0.1261(4)
H6 H 0.2734 0.1713 0.1304
C13 C 0.1109(5) 0.2868(4) 0.3429(4)
H11 H 0.1059 0.2903 0.3868
C14 C 0.1732(4) 0.2556(4) 0.2541(4)
C15 C 0.0644(4) 0.3093(4) 0.3040(4)
C16 C 0.1655(5) 0.2589(5) 0.3188(5)
H12 H 0.1964 0.2426 0.3461
C17 C 0.0062(5) 0.3384(5) 0.3268(5)
C18 C 0.0736(4) 0.3048(5) 0.2389(5)
H14 H 0.0430 0.3210 0.2113
C19 C 0.1261(4) 0.2775(5) 0.2152(4)
H15 H 0.1304 0.2734 0.1713
C25 C 0.3429(4) 0.1109(5) 0.2868(4)
H20 H 0.3868 0.1059 0.2903
C26 C 0.2541(4) 0.1732(4) 0.2556(4)
C27 C 0.3040(4) 0.0644(4) 0.3093(4)
C28 C 0.3188(5) 0.1655(5) 0.2589(5)
H21 H 0.3461 0.1964 0.2426
C29 C 0.3268(5) 0.0062(5) 0.3384(5)
C30 C 0.2389(5) 0.0736(4) 0.3048(5)
H23 H 0.2113 0.0430 0.3210
C31 C 0.2152(4) 0.1261(4) 0.2775(5)
H24 H 0.1713 0.1304 0.2734
Ag2 Ag 0.0000 0.2500 0.45976(6)
Ag3 Ag 0.45976(6) -0.0000 0.2500
Br5 Br 0.09476(12) 0.27164(10) 0.58907(9)
N15 N 0.0132(4) 0.1671(4) 0.3828(4)
N16 N 0.0832(5) 0.1919(5) 0.4889(5)
N17 N 0.0677(4) 0.1338(4) 0.3979(5)
H37 H 0.0822 0.1066 0.3710
H40 H 0.0179 0.1376 0.2985
C56 C 0.0983(5) 0.1418(5) 0.4510(5)
C57 C 0.1447(7) 0.0996(8) 0.4710(7)
H43 H 0.1540 0.0636 0.4469
C58 C 0.1753(9) 0.1106(10) 0.5237(9)
H44 H 0.2071 0.0824 0.5359
C59 C 0.1636(6) 0.1587(9) 0.5598(8)
H45 H 0.1850 0.1643 0.5982
C60 C 0.1182(7) 0.2020(7) 0.5395(7)
N21 N 0.1671(4) 0.3828(4) 0.0132(4)
N22 N 0.3828(4) 0.0132(4) 0.1671(4)
N23 N 0.1919(5) 0.4889(5) 0.0832(5)
N24 N 0.4889(5) 0.0832(5) 0.1919(5)
Ag1_2 Ag 0.2500 0.45976(6) 1.0000
Br1 Br 0.22836(10) 0.58907(9) 0.90524(12)
N1 N 0.3329(4) 0.3828(4) 0.9868(4)
N3 N 0.3081(5) 0.4889(5) 0.9168(5)
N4 N 0.3662(4) 0.3979(5) 0.9323(4)
H1 H 0.3934 0.3710 0.9178
H4 H 0.3624 0.2985 0.9821
C8 C 0.3582(5) 0.4510(5) 0.9017(5)
C9 C 0.4004(8) 0.4710(7) 0.8553(7)
H7 H 0.4364 0.4469 0.8460
C10 C 0.3894(10) 0.5237(9) 0.8247(9)
H8 H 0.4176 0.5359 0.7929
C11 C 0.3413(9) 0.5598(8) 0.8364(6)
H9 H 0.3357 0.5982 0.8150
C12 C 0.2980(7) 0.5395(7) 0.8818(7)
Br3 Br 0.58907(9) 0.90524(12) 0.22836(10)
N8 N 0.3828(4) 0.9868(4) 0.3329(4)
N9 N 0.4889(5) 0.9168(5) 0.3081(5)
N10 N 0.3979(5) 0.9323(4) 0.3662(4)
H19 H 0.3710 0.9178 0.3934
H22 H 0.2985 0.9821 0.3624
C32 C 0.4510(5) 0.9017(5) 0.3582(5)
C33 C 0.4710(7) 0.8553(7) 0.4004(8)
H25 H 0.4469 0.8460 0.4364
C34 C 0.5237(9) 0.8247(9) 0.3894(10)
H26 H 0.5359 0.7929 0.4176
C35 C 0.5598(8) 0.8364(6) 0.3413(9)
H27 H 0.5982 0.8150 0.3357
C36 C 0.5395(7) 0.8818(7) 0.2980(7)
Ag3_2 Ag 0.45976(6) 1.0000 0.2500
Br2 Br 0.90524(12) 0.22836(10) 0.58907(9)
N5 N 0.9868(4) 0.3329(4) 0.3828(4)
N6 N 0.9168(5) 0.3081(5) 0.4889(5)
N7 N 0.9323(4) 0.3662(4) 0.3979(5)
H10 H 0.9178 0.3934 0.3710
H13 H 0.9821 0.3624 0.2985
C20 C 0.9017(5) 0.3582(5) 0.4510(5)
C21 C 0.8553(7) 0.4004(8) 0.4710(7)
H16 H 0.8460 0.4364 0.4469
C22 C 0.8247(9) 0.3894(10) 0.5237(9)
H17 H 0.7929 0.4176 0.5359
C23 C 0.8364(6) 0.3413(9) 0.5598(8)
H18 H 0.8150 0.3357 0.5982
C24 C 0.8818(7) 0.2980(7) 0.5395(7)
Ag2_2 Ag 1.0000 0.2500 0.45976(6)
N12 N 0.7706(5) 0.2706(5) 0.2294(5)
C37 C 0.7132(4) 0.1571(4) 0.1109(5)
H29 H 0.7097 0.1132 0.1059
C38 C 0.7444(4) 0.2459(4) 0.1732(4)
C39 C 0.6907(4) 0.1960(4) 0.0644(4)
C40 C 0.7411(5) 0.1812(5) 0.1655(5)
H30 H 0.7574 0.1539 0.1964
C41 C 0.6616(5) 0.1732(5) 0.0062(5)
C42 C 0.6952(5) 0.2611(5) 0.0736(4)
H32 H 0.6790 0.2887 0.0430
C43 C 0.7225(5) 0.2848(4) 0.1261(4)
H33 H 0.7266 0.3287 0.1304
C49 C 0.8891(5) 0.2132(4) 0.3429(4)
H38 H 0.8941 0.2097 0.3868
C50 C 0.8268(4) 0.2444(4) 0.2541(4)
C51 C 0.9356(4) 0.1907(4) 0.3040(4)
C52 C 0.8345(5) 0.2411(5) 0.3188(5)
H39 H 0.8036 0.2574 0.3461
C53 C 0.9938(5) 0.1616(5) 0.3268(5)
C54 C 0.9264(4) 0.1952(5) 0.2389(5)
H41 H 0.9570 0.1790 0.2113
C55 C 0.8739(4) 0.2225(5) 0.2152(4)
H42 H 0.8696 0.2266 0.1713
Br6 Br 0.41093(9) 0.59476(12) 0.22836(10)
N18 N 0.6172(4) 0.5132(4) 0.3329(4)
N19 N 0.5111(5) 0.5832(5) 0.3081(5)
N20 N 0.6021(5) 0.5677(4) 0.3662(4)
H46 H 0.6290 0.5822 0.3934
C61 C 0.6571(4) 0.3891(5) 0.2868(4)
H47 H 0.6132 0.3941 0.2903
C62 C 0.7459(4) 0.3268(4) 0.2556(4)
C63 C 0.6960(4) 0.4356(4) 0.3093(4)
C64 C 0.6812(5) 0.3345(5) 0.2589(5)
H48 H 0.6539 0.3036 0.2426
C65 C 0.6732(5) 0.4938(5) 0.3384(5)
H49 H 0.7015 0.5179 0.3624
C66 C 0.7611(5) 0.4264(4) 0.3048(5)
H50 H 0.7887 0.4570 0.3210
C67 C 0.7848(4) 0.3739(4) 0.2775(5)
H51 H 0.8287 0.3696 0.2734
C68 C 0.5490(5) 0.5983(5) 0.3582(5)
C69 C 0.5290(7) 0.6447(7) 0.4004(8)
H52 H 0.5531 0.6540 0.4364
C70 C 0.4763(9) 0.6753(9) 0.3894(10)
H53 H 0.4641 0.7071 0.4176
C71 C 0.4402(8) 0.6636(6) 0.3413(9)
H54 H 0.4018 0.6850 0.3357
C72 C 0.4605(7) 0.6182(7) 0.2980(7)
Ag4 Ag 0.7500 0.04024(6) 0.0000
Ag5 Ag 0.54024(6) 0.5000 0.2500
N11 N 0.6671(4) 0.1172(4) 0.9868(4)
N13 N 0.6919(5) 0.0111(5) 0.9168(5)
N14 N 0.6338(4) 0.1021(5) 0.9323(4)
H28 H 0.6066 0.1290 0.9178
H31 H 0.6376 0.2015 0.9821
C44 C 0.6418(5) 0.0490(5) 0.9017(5)
C45 C 0.5996(8) 0.0290(7) 0.8553(7)
H34 H 0.5636 0.0531 0.8460
Ag4_2 Ag 0.7500 0.04024(6) 1.0000
Br6_2 Br 0.08907(9) 0.40524(12) 0.72836(10)
C70_2 C 0.0237(9) 0.3247(9) 0.8894(10)
H53_2 H 0.0359 0.2929 0.9176
C71_2 C 0.0598(8) 0.3364(6) 0.8413(9)
H54_2 H 0.0982 0.3150 0.8357
C72_2 C 0.0395(7) 0.3818(7) 0.7980(7)
N8_2 N 0.1172(4) 0.0132(4) 0.8329(4)
N9_2 N 0.0111(5) 0.0832(5) 0.8081(5)
N10_2 N 0.1021(5) 0.0677(4) 0.8662(4)
H19_2 H 0.1290 0.0822 0.8934
H22_2 H 0.2015 0.0179 0.8624
C32_2 C 0.0490(5) 0.0983(5) 0.8582(5)
C33_2 C 0.0290(7) 0.1447(7) 0.9004(8)
H25_2 H 0.0531 0.1540 0.9364
Ag3_3 Ag 0.04024(6) 0.0000 0.7500
Br4 Br 0.72836(10) 0.08907(9) 0.40524(12)
C46 C 0.8894(10) 0.0237(9) 0.3247(9)
H35 H 0.9176 0.0359 0.2929
C47 C 0.8413(9) 0.0598(8) 0.3364(6)
H36 H 0.8357 0.0982 0.3150
C48 C 0.7980(7) 0.0395(7) 0.3818(7)
Br2_2 Br 0.59476(12) 0.77164(10) 0.08907(9)
C22_2 C 0.6753(9) 0.6106(10) 0.0237(9)
H17_2 H 0.7071 0.5824 0.0359
C23_2 C 0.6636(6) 0.6587(9) 0.0598(8)
H18_2 H 0.6850 0.6643 0.0982
C24_2 C 0.6182(7) 0.7020(7) 0.0395(7)
Br5_2 Br 0.40524(12) 0.72836(10) 0.08907(9)
C58_2 C 0.3247(9) 0.8894(10) 0.0237(9)
H44_2 H 0.2929 0.9176 0.0359
C59_2 C 0.3364(6) 0.8413(9) 0.0598(8)
H45_2 H 0.3150 0.8357 0.0982
C60_2 C 0.3818(7) 0.7980(7) 0.0395(7)
Ag1_3 Ag 0.2500 0.54024(6) 0.5000
Br1_2 Br 0.27164(10) 0.41093(9) 0.40524(12)
N1_2 N 0.1671(4) 0.6172(4) 0.4868(4)
N2_2 N 0.2706(5) 0.7706(5) 0.7294(5)
N3_2 N 0.1919(5) 0.5111(5) 0.4168(5)
N4_2 N 0.1338(4) 0.6021(5) 0.4323(4)
H1_2 H 0.1066 0.6290 0.4178
C1_2 C 0.2132(4) 0.6571(4) 0.6109(5)
H2_2 H 0.2097 0.6132 0.6059
C2_2 C 0.2444(4) 0.7459(4) 0.6732(4)
C3_2 C 0.1907(4) 0.6960(4) 0.5644(4)
C4_2 C 0.2411(5) 0.6812(5) 0.6655(5)
H3_2 H 0.2574 0.6539 0.6964
C5_2 C 0.1616(5) 0.6732(5) 0.5062(5)
H4_2 H 0.1376 0.7015 0.4821
C6_2 C 0.1952(5) 0.7611(5) 0.5736(4)
H5_2 H 0.1790 0.7887 0.5430
C7_2 C 0.2225(5) 0.7848(4) 0.6261(4)
H6_2 H 0.2266 0.8287 0.6304
C8_2 C 0.1418(5) 0.5490(5) 0.4017(5)
C9_2 C 0.0996(8) 0.5290(7) 0.3553(7)
H7_2 H 0.0636 0.5531 0.3460
C10_2 C 0.1106(10) 0.4763(9) 0.3247(9)
H8_2 H 0.0824 0.4641 0.2929
C11_2 C 0.1587(9) 0.4402(8) 0.3364(6)
H9_2 H 0.1643 0.4018 0.3150
C12_2 C 0.2020(7) 0.4605(7) 0.3818(7)
N5_2 N 0.5132(4) 0.6671(4) 0.8828(4)
N6_2 N 0.5832(5) 0.6919(5) 0.9889(5)
N7_2 N 0.5677(4) 0.6338(4) 0.8979(5)
H10_2 H 0.5822 0.6066 0.8710
C13_2 C 0.3891(5) 0.7132(4) 0.8429(4)
H11_2 H 0.3941 0.7097 0.8868
C14_2 C 0.3268(4) 0.7444(4) 0.7541(4)
C15_2 C 0.4356(4) 0.6907(4) 0.8040(4)
C16_2 C 0.3345(5) 0.7411(5) 0.8188(5)
H12_2 H 0.3036 0.7574 0.8461
C17_2 C 0.4938(5) 0.6616(5) 0.8268(5)
H13_2 H 0.5179 0.6376 0.7985
C18_2 C 0.4264(4) 0.6952(5) 0.7389(5)
H14_2 H 0.4570 0.6790 0.7113
C19_2 C 0.3739(4) 0.7225(5) 0.7152(4)
H15_2 H 0.3696 0.7266 0.6713
C20_2 C 0.5983(5) 0.6418(5) 0.9510(5)
C21_2 C 0.6447(7) 0.5996(8) 0.9710(7)
H16_2 H 0.6540 0.5636 0.9469
C25_2 C 0.1571(4) 0.8891(5) 0.7868(4)
H20_2 H 0.1132 0.8941 0.7903
C26_2 C 0.2459(4) 0.8268(4) 0.7556(4)
C27_2 C 0.1960(4) 0.9356(4) 0.8093(4)
C28_2 C 0.1812(5) 0.8345(5) 0.7589(5)
H21_2 H 0.1539 0.8036 0.7426
C29_2 C 0.1732(5) 0.9938(5) 0.8384(5)
C30_2 C 0.2611(5) 0.9264(4) 0.8048(5)
H23_2 H 0.2887 0.9570 0.8210
C31_2 C 0.2848(4) 0.8739(4) 0.7775(5)
H24_2 H 0.3287 0.8696 0.7734
Ag2_3 Ag 0.5000 0.7500 0.95976(6)
Ag3_4 Ag 0.04024(6) 1.0000 0.7500
N11_2 N 0.8329(4) 0.8828(4) 0.4868(4)
N12_2 N 0.7294(5) 0.7294(5) 0.7294(5)
N13_2 N 0.8081(5) 0.9889(5) 0.4168(5)
N14_2 N 0.8662(4) 0.8979(5) 0.4323(4)
H28_2 H 0.8934 0.8710 0.4178
C37_2 C 0.7868(4) 0.8429(4) 0.6109(5)
H29_2 H 0.7903 0.8868 0.6059
C38_2 C 0.7556(4) 0.7541(4) 0.6732(4)
C39_2 C 0.8093(4) 0.8040(4) 0.5644(4)
C40_2 C 0.7589(5) 0.8188(5) 0.6655(5)
H30_2 H 0.7426 0.8461 0.6964
C41_2 C 0.8384(5) 0.8268(5) 0.5062(5)
H31_2 H 0.8624 0.7985 0.4821
C42_2 C 0.8048(5) 0.7389(5) 0.5736(4)
H32_2 H 0.8210 0.7113 0.5430
C43_2 C 0.7775(5) 0.7152(4) 0.6261(4)
H33_2 H 0.7734 0.6713 0.6304
C44_2 C 0.8582(5) 0.9510(5) 0.4017(5)
C45_2 C 0.9004(8) 0.9710(7) 0.3553(7)
H34_2 H 0.9364 0.9469 0.3460
N15_2 N 0.4868(4) 0.8329(4) 0.8828(4)
N16_2 N 0.4168(5) 0.8081(5) 0.9889(5)
N17_2 N 0.4323(4) 0.8662(4) 0.8979(5)
H37_2 H 0.4178 0.8934 0.8710
C49_2 C 0.6109(5) 0.7868(4) 0.8429(4)
H38_2 H 0.6059 0.7903 0.8868
C50_2 C 0.6732(4) 0.7556(4) 0.7541(4)
C51_2 C 0.5644(4) 0.8093(4) 0.8040(4)
C52_2 C 0.6655(5) 0.7589(5) 0.8188(5)
H39_2 H 0.6964 0.7426 0.8461
C53_2 C 0.5062(5) 0.8384(5) 0.8268(5)
H40_2 H 0.4821 0.8624 0.7985
C54_2 C 0.5736(4) 0.8048(5) 0.7389(5)
H41_2 H 0.5430 0.8210 0.7113
C55_2 C 0.6261(4) 0.7775(5) 0.7152(4)
H42_2 H 0.6304 0.7734 0.6713
C56_2 C 0.4017(5) 0.8582(5) 0.9510(5)
C57_2 C 0.3553(7) 0.9004(8) 0.9710(7)
H43_2 H 0.3460 0.9364 0.9469
N18_2 N 0.8828(4) 0.4868(4) 0.8329(4)
N19_2 N 0.9889(5) 0.4168(5) 0.8081(5)
N20_2 N 0.8979(5) 0.4323(4) 0.8662(4)
H46_2 H 0.8710 0.4178 0.8934
C61_2 C 0.8429(4) 0.6109(5) 0.7868(4)
H47_2 H 0.8868 0.6059 0.7903
C62_2 C 0.7541(4) 0.6732(4) 0.7556(4)
C63_2 C 0.8040(4) 0.5644(4) 0.8093(4)
C64_2 C 0.8188(5) 0.6655(5) 0.7589(5)
H48_2 H 0.8461 0.6964 0.7426
C65_2 C 0.8268(5) 0.5062(5) 0.8384(5)
H49_2 H 0.7985 0.4821 0.8624
C66_2 C 0.7389(5) 0.5736(4) 0.8048(5)
H50_2 H 0.7113 0.5430 0.8210
C67_2 C 0.7152(4) 0.6261(4) 0.7775(5)
H51_2 H 0.6713 0.6304 0.7734
C68_2 C 0.9510(5) 0.4017(5) 0.8582(5)
C69_2 C 0.9710(7) 0.3553(7) 0.9004(8)
H52_2 H 0.9469 0.3460 0.9364
Ag4_3 Ag 0.7500 0.95976(6) 0.5000
Ag5_2 Ag 0.95976(6) 0.5000 0.7500
N21_2 N 0.3329(4) 0.6172(4) 0.5132(4)
N22_2 N 0.1172(4) 0.9868(4) 0.6671(4)
N23_2 N 0.3081(5) 0.5111(5) 0.5832(5)
N24_2 N 0.0111(5) 0.9168(5) 0.6919(5)
Br6_3 Br 0.58907(9) 0.09476(12) 0.27164(10)
N20_3 N 0.3979(5) 0.0677(4) 0.1338(4)
H46_3 H 0.3710 0.0822 0.1066
H49_3 H 0.2985 0.0179 0.1376
C68_3 C 0.4510(5) 0.0983(5) 0.1418(5)
C69_3 C 0.4710(7) 0.1447(7) 0.0996(8)
H52_3 H 0.4469 0.1540 0.0636
C70_3 C 0.5237(9) 0.1753(9) 0.1106(10)
H53_3 H 0.5359 0.2071 0.0824
C71_3 C 0.5598(8) 0.1636(6) 0.1587(9)
H54_3 H 0.5982 0.1850 0.1643
C72_3 C 0.5395(7) 0.1182(7) 0.2020(7)
N5_3 N 0.0132(4) 0.8329(4) 0.1172(4)
N6_3 N 0.0832(5) 0.8081(5) 0.0111(5)
N7_3 N 0.0677(4) 0.8662(4) 0.1021(5)
H10_3 H 0.0822 0.8934 0.1290
H13_3 H 0.0179 0.8624 0.2015
C20_3 C 0.0983(5) 0.8582(5) 0.0490(5)
C21_3 C 0.1447(7) 0.9004(8) 0.0290(7)
H16_3 H 0.1540 0.9364 0.0531
Ag2_4 Ag -0.0000 0.7500 0.04024(6)
Br4_2 Br 0.22836(10) 0.41093(9) 0.59476(12)
N12_3 N 0.2294(5) 0.7706(5) 0.2706(5)
N14_3 N 0.3662(4) 0.6021(5) 0.5677(4)
H28_3 H 0.3934 0.6290 0.5822
C37_3 C 0.2868(4) 0.6571(4) 0.3891(5)
H29_3 H 0.2903 0.6132 0.3941
C38_3 C 0.2556(4) 0.7459(4) 0.3268(4)
C39_3 C 0.3093(4) 0.6960(4) 0.4356(4)
C40_3 C 0.2589(5) 0.6812(5) 0.3345(5)
H30_3 H 0.2426 0.6539 0.3036
C41_3 C 0.3384(5) 0.6732(5) 0.4938(5)
H31_3 H 0.3624 0.7015 0.5179
C42_3 C 0.3048(5) 0.7611(5) 0.4264(4)
H32_3 H 0.3210 0.7887 0.4570
C43_3 C 0.2775(5) 0.7848(4) 0.3739(4)
H33_3 H 0.2734 0.8287 0.3696
C44_3 C 0.3582(5) 0.5490(5) 0.5983(5)
C45_3 C 0.4004(8) 0.5290(7) 0.6447(7)
H34_3 H 0.4364 0.5531 0.6540
C46_2 C 0.3894(10) 0.4763(9) 0.6753(9)
H35_2 H 0.4176 0.4641 0.7071
C47_2 C 0.3413(9) 0.4402(8) 0.6636(6)
H36_2 H 0.3357 0.4018 0.6850
C48_2 C 0.2980(7) 0.4605(7) 0.6182(7)
C49_3 C 0.1109(5) 0.7132(4) 0.1571(4)
H38_3 H 0.1059 0.7097 0.1132
C50_3 C 0.1732(4) 0.7444(4) 0.2459(4)
C51_3 C 0.0644(4) 0.6907(4) 0.1960(4)
C52_3 C 0.1655(5) 0.7411(5) 0.1812(5)
H39_3 H 0.1964 0.7574 0.1539
C53_3 C 0.0062(5) 0.6616(5) 0.1732(5)
C54_3 C 0.0736(4) 0.6952(5) 0.2611(5)
H41_3 H 0.0430 0.6790 0.2887
C55_3 C 0.1261(4) 0.7225(5) 0.2848(4)
H42_3 H 0.1304 0.7266 0.3287
C61_3 C 0.3429(4) 0.8891(5) 0.2132(4)
H47_3 H 0.3868 0.8941 0.2097
C62_3 C 0.2541(4) 0.8268(4) 0.2444(4)
C63_3 C 0.3040(4) 0.9356(4) 0.1907(4)
C64_3 C 0.3188(5) 0.8345(5) 0.2411(5)
H48_3 H 0.3461 0.8036 0.2574
C65_3 C 0.3268(5) 0.9938(5) 0.1616(5)
C66_3 C 0.2389(5) 0.9264(4) 0.1952(5)
H50_3 H 0.2113 0.9570 0.1790
C67_3 C 0.2152(4) 0.8739(4) 0.2225(5)
H51_3 H 0.1713 0.8696 0.2266
Br1_3 Br 0.77164(10) 0.08907(9) 0.59476(12)
C10_3 C 0.6106(10) 0.0237(9) 0.6753(9)
H8_3 H 0.5824 0.0359 0.7071
C11_3 C 0.6587(9) 0.0598(8) 0.6636(6)
H9_3 H 0.6643 0.0982 0.6850
C12_3 C 0.7020(7) 0.0395(7) 0.6182(7)
N1_3 N 0.6671(4) 0.8828(4) 0.5132(4)
N2_3 N 0.7706(5) 0.7294(5) 0.2706(5)
N3_3 N 0.6919(5) 0.9889(5) 0.5832(5)
N4_3 N 0.6338(4) 0.8979(5) 0.5677(4)
H1_3 H 0.6066 0.8710 0.5822
C1_3 C 0.7132(4) 0.8429(4) 0.3891(5)
H2_3 H 0.7097 0.8868 0.3941
C2_3 C 0.7444(4) 0.7541(4) 0.3268(4)
C3_3 C 0.6907(4) 0.8040(4) 0.4356(4)
C4_3 C 0.7411(5) 0.8188(5) 0.3345(5)
H3_3 H 0.7574 0.8461 0.3036
C5_3 C 0.6616(5) 0.8268(5) 0.4938(5)
H4_3 H 0.6376 0.7985 0.5179
C6_3 C 0.6952(5) 0.7389(5) 0.4264(4)
H5_3 H 0.6790 0.7113 0.4570
C7_3 C 0.7225(5) 0.7152(4) 0.3739(4)
H6_3 H 0.7266 0.6713 0.3696
C8_3 C 0.6418(5) 0.9510(5) 0.5983(5)
C9_3 C 0.5996(8) 0.9710(7) 0.6447(7)
H7_3 H 0.5636 0.9469 0.6540
C13_3 C 0.8891(5) 0.7868(4) 0.1571(4)
H11_3 H 0.8941 0.7903 0.1132
C14_3 C 0.8268(4) 0.7556(4) 0.2459(4)
C15_3 C 0.9356(4) 0.8093(4) 0.1960(4)
C16_3 C 0.8345(5) 0.7589(5) 0.1812(5)
H12_3 H 0.8036 0.7426 0.1539
C17_3 C 0.9938(5) 0.8384(5) 0.1732(5)
C18_3 C 0.9264(4) 0.8048(5) 0.2611(5)
H14_3 H 0.9570 0.8210 0.2887
C19_3 C 0.8739(4) 0.7775(5) 0.2848(4)
H15_3 H 0.8696 0.7734 0.3287
Br3_2 Br 0.41093(9) 0.40524(12) 0.27164(10)
N8_3 N 0.6172(4) 0.4868(4) 0.1671(4)
N9_3 N 0.5111(5) 0.4168(5) 0.1919(5)
N10_3 N 0.6021(5) 0.4323(4) 0.1338(4)
H19_3 H 0.6290 0.4178 0.1066
C25_3 C 0.6571(4) 0.6109(5) 0.2132(4)
H20_3 H 0.6132 0.6059 0.2097
C26_3 C 0.7459(4) 0.6732(4) 0.2444(4)
C27_3 C 0.6960(4) 0.5644(4) 0.1907(4)
C28_3 C 0.6812(5) 0.6655(5) 0.2411(5)
H21_3 H 0.6539 0.6964 0.2574
C29_3 C 0.6732(5) 0.5062(5) 0.1616(5)
H22_3 H 0.7015 0.4821 0.1376
C30_3 C 0.7611(5) 0.5736(4) 0.1952(5)
H23_3 H 0.7887 0.5430 0.1790
C31_3 C 0.7848(4) 0.6261(4) 0.2225(5)
H24_3 H 0.8287 0.6304 0.2266
C32_3 C 0.5490(5) 0.4017(5) 0.1418(5)
C33_3 C 0.5290(7) 0.3553(7) 0.0996(8)
H25_3 H 0.5531 0.3460 0.0636
C34_2 C 0.4763(9) 0.3247(9) 0.1106(10)
H26_2 H 0.4641 0.2929 0.0824
C35_2 C 0.4402(8) 0.3364(6) 0.1587(9)
H27_2 H 0.4018 0.3150 0.1643
C36_2 C 0.4605(7) 0.3818(7) 0.2020(7)
Ag2_5 Ag 1.0000 0.7500 0.04024(6)
N15_3 N 0.9868(4) 0.6671(4) 0.1172(4)
N16_3 N 0.9168(5) 0.6919(5) 0.0111(5)
N17_3 N 0.9323(4) 0.6338(4) 0.1021(5)
H37_3 H 0.9178 0.6066 0.1290
H40_3 H 0.9821 0.6376 0.2015
C56_3 C 0.9017(5) 0.6418(5) 0.0490(5)
C57_3 C 0.8553(7) 0.5996(8) 0.0290(7)
H43_3 H 0.8460 0.5636 0.0531
Br3_3 Br 0.08907(9) 0.59476(12) 0.77164(10)
C34_3 C 0.0237(9) 0.6753(9) 0.6106(10)
H26_3 H 0.0359 0.7071 0.5824
C35_3 C 0.0598(8) 0.6636(6) 0.6587(9)
H27_3 H 0.0982 0.6850 0.6643
C36_3 C 0.0395(7) 0.6182(7) 0.7020(7)
N1_4 N 0.8329(4) 0.1172(4) 0.0132(4)
N3_4 N 0.8081(5) 0.0111(5) 0.0832(5)
N4_4 N 0.8662(4) 0.1021(5) 0.0677(4)
H1_4 H 0.8934 0.1290 0.0822
H4_4 H 0.8624 0.2015 0.0179
C8_4 C 0.8582(5) 0.0490(5) 0.0983(5)
C9_4 C 0.9004(8) 0.0290(7) 0.1447(7)
H7_4 H 0.9364 0.0531 0.1540
Br4_3 Br 0.27164(10) 0.58907(9) 0.09476(12)
N14_4 N 0.1338(4) 0.3979(5) 0.0677(4)
H28_4 H 0.1066 0.3710 0.0822
H31_4 H 0.1376 0.2985 0.0179
C44_4 C 0.1418(5) 0.4510(5) 0.0983(5)
C45_4 C 0.0996(8) 0.4710(7) 0.1447(7)
H34_4 H 0.0636 0.4469 0.1540
C46_3 C 0.1106(10) 0.5237(9) 0.1753(9)
H35_3 H 0.0824 0.5359 0.2071
C47_3 C 0.1587(9) 0.5598(8) 0.1636(6)
H36_3 H 0.1643 0.5982 0.1850
C48_3 C 0.2020(7) 0.5395(7) 0.1182(7)
N2_4 N 0.7294(5) 0.2706(5) 0.7706(5)
C1_4 C 0.7868(4) 0.1571(4) 0.8891(5)
H2_4 H 0.7903 0.1132 0.8941
C2_4 C 0.7556(4) 0.2459(4) 0.8268(4)
C3_4 C 0.8093(4) 0.1960(4) 0.9356(4)
C4_4 C 0.7589(5) 0.1812(5) 0.8345(5)
H3_4 H 0.7426 0.1539 0.8036
C5_4 C 0.8384(5) 0.1732(5) 0.9938(5)
C6_4 C 0.8048(5) 0.2611(5) 0.9264(4)
H5_4 H 0.8210 0.2887 0.9570
C7_4 C 0.7775(5) 0.2848(4) 0.8739(4)
H6_4 H 0.7734 0.3287 0.8696
Br2_3 Br 0.40524(12) 0.27164(10) 0.41093(9)
N5_4 N 0.4868(4) 0.1671(4) 0.6172(4)
N6_4 N 0.4168(5) 0.1919(5) 0.5111(5)
N7_4 N 0.4323(4) 0.1338(4) 0.6021(5)
H10_4 H 0.4178 0.1066 0.6290
C13_4 C 0.6109(5) 0.2132(4) 0.6571(4)
H11_4 H 0.6059 0.2097 0.6132
C14_4 C 0.6732(4) 0.2444(4) 0.7459(4)
C15_4 C 0.5644(4) 0.1907(4) 0.6960(4)
C16_4 C 0.6655(5) 0.2411(5) 0.6812(5)
H12_4 H 0.6964 0.2574 0.6539
C17_4 C 0.5062(5) 0.1616(5) 0.6732(5)
H13_4 H 0.4821 0.1376 0.7015
C18_4 C 0.5736(4) 0.1952(5) 0.7611(5)
H14_4 H 0.5430 0.1790 0.7887
C19_4 C 0.6261(4) 0.2225(5) 0.7848(4)
H15_4 H 0.6304 0.2266 0.8287
C20_4 C 0.4017(5) 0.1418(5) 0.5490(5)
C21_4 C 0.3553(7) 0.0996(8) 0.5290(7)
H16_4 H 0.3460 0.0636 0.5531
C22_3 C 0.3247(9) 0.1106(10) 0.4763(9)
H17_3 H 0.2929 0.0824 0.4641
C23_3 C 0.3364(6) 0.1587(9) 0.4402(8)
H18_3 H 0.3150 0.1643 0.4018
C24_3 C 0.3818(7) 0.2020(7) 0.4605(7)
N8_4 N 0.8828(4) 0.5132(4) 0.6671(4)
N9_4 N 0.9889(5) 0.5832(5) 0.6919(5)
N10_4 N 0.8979(5) 0.5677(4) 0.6338(4)
H19_4 H 0.8710 0.5822 0.6066
C25_4 C 0.8429(4) 0.3891(5) 0.7132(4)
H20_4 H 0.8868 0.3941 0.7097
C26_4 C 0.7541(4) 0.3268(4) 0.7444(4)
C27_4 C 0.8040(4) 0.4356(4) 0.6907(4)
C28_4 C 0.8188(5) 0.3345(5) 0.7411(5)
H21_4 H 0.8461 0.3036 0.7574
C29_4 C 0.8268(5) 0.4938(5) 0.6616(5)
H22_4 H 0.7985 0.5179 0.6376
C30_4 C 0.7389(5) 0.4264(4) 0.6952(5)
H23_4 H 0.7113 0.4570 0.6790
C31_4 C 0.7152(4) 0.3739(4) 0.7225(5)
H24_4 H 0.6713 0.3696 0.7266
C32_4 C 0.9510(5) 0.5983(5) 0.6418(5)
C33_4 C 0.9710(7) 0.6447(7) 0.5996(8)
H25_4 H 0.9469 0.6540 0.5636
Ag2_6 Ag 0.5000 0.2500 0.54024(6)
N12_4 N 0.2706(5) 0.2294(5) 0.7706(5)
C37_4 C 0.2132(4) 0.3429(4) 0.8891(5)
H29_4 H 0.2097 0.3868 0.8941
C38_4 C 0.2444(4) 0.2541(4) 0.8268(4)
C39_4 C 0.1907(4) 0.3040(4) 0.9356(4)
C40_4 C 0.2411(5) 0.3188(5) 0.8345(5)
H30_4 H 0.2574 0.3461 0.8036
C41_4 C 0.1616(5) 0.3268(5) 0.9938(5)
C42_4 C 0.1952(5) 0.2389(5) 0.9264(4)
H32_4 H 0.1790 0.2113 0.9570
C43_4 C 0.2225(5) 0.2152(4) 0.8739(4)
H33_4 H 0.2266 0.1713 0.8696
Br5_3 Br 0.59476(12) 0.22836(10) 0.41093(9)
N15_4 N 0.5132(4) 0.3329(4) 0.6172(4)
N16_4 N 0.5832(5) 0.3081(5) 0.5111(5)
N17_4 N 0.5677(4) 0.3662(4) 0.6021(5)
H37_4 H 0.5822 0.3934 0.6290
C49_4 C 0.3891(5) 0.2868(4) 0.6571(4)
H38_4 H 0.3941 0.2903 0.6132
C50_4 C 0.3268(4) 0.2556(4) 0.7459(4)
C51_4 C 0.4356(4) 0.3093(4) 0.6960(4)
C52_4 C 0.3345(5) 0.2589(5) 0.6812(5)
H39_4 H 0.3036 0.2426 0.6539
C53_4 C 0.4938(5) 0.3384(5) 0.6732(5)
H40_4 H 0.5179 0.3624 0.7015
C54_4 C 0.4264(4) 0.3048(5) 0.7611(5)
H41_4 H 0.4570 0.3210 0.7887
C55_4 C 0.3739(4) 0.2775(5) 0.7848(4)
H42_4 H 0.3696 0.2734 0.8287
C56_4 C 0.5983(5) 0.3582(5) 0.5490(5)
C57_4 C 0.6447(7) 0.4004(8) 0.5290(7)
H43_4 H 0.6540 0.4364 0.5531
C58_3 C 0.6753(9) 0.3894(10) 0.4763(9)
H44_3 H 0.7071 0.4176 0.4641
C59_3 C 0.6636(6) 0.3413(9) 0.4402(8)
H45_3 H 0.6850 0.3357 0.4018
C60_3 C 0.6182(7) 0.2980(7) 0.4605(7)
C61_4 C 0.1571(4) 0.1109(5) 0.7132(4)
H47_4 H 0.1132 0.1059 0.7097
C62_4 C 0.2459(4) 0.1732(4) 0.7444(4)
C63_4 C 0.1960(4) 0.0644(4) 0.6907(4)
C64_4 C 0.1812(5) 0.1655(5) 0.7411(5)
H48_4 H 0.1539 0.1964 0.7574
C65_4 C 0.1732(5) 0.0062(5) 0.6616(5)
C66_4 C 0.2611(5) 0.0736(4) 0.6952(5)
H50_4 H 0.2887 0.0430 0.6790
C67_4 C 0.2848(4) 0.1261(4) 0.7225(5)
H51_4 H 0.3287 0.1304 0.7266
N20_4 N 0.1021(5) 0.9323(4) 0.6338(4)
H46_4 H 0.1290 0.9178 0.6066
H49_4 H 0.2015 0.9821 0.6376
C68_4 C 0.0490(5) 0.9017(5) 0.6418(5)
C69_4 C 0.0290(7) 0.8553(7) 0.5996(8)
H52_4 H 0.0531 0.8460 0.5636
Br4_4 Br 0.77164(10) 0.91093(9) 0.90524(12)
C46_4 C 0.6106(10) 0.9763(9) 0.8247(9)
H35_4 H 0.5824 0.9641 0.7929
C47_4 C 0.6587(9) 0.9402(8) 0.8364(6)
H36_4 H 0.6643 0.9018 0.8150
C48_4 C 0.7020(7) 0.9605(7) 0.8818(7)
Br3_4 Br 0.91093(9) 0.09476(12) 0.72836(10)
C34_4 C 0.9763(9) 0.1753(9) 0.8894(10)
H26_4 H 0.9641 0.2071 0.9176
C35_4 C 0.9402(8) 0.1636(6) 0.8413(9)
H27_4 H 0.9018 0.1850 0.8357
C36_4 C 0.9605(7) 0.1182(7) 0.7980(7)
Br2_4 Br 0.09476(12) 0.72836(10) 0.91093(9)
C22_4 C 0.1753(9) 0.8894(10) 0.9763(9)
H17_4 H 0.2071 0.9176 0.9641
C23_4 C 0.1636(6) 0.8413(9) 0.9402(8)
H18_4 H 0.1850 0.8357 0.9018
C24_4 C 0.1182(7) 0.7980(7) 0.9605(7)
Br5_4 Br 0.90524(12) 0.77164(10) 0.91093(9)
C58_4 C 0.8247(9) 0.6106(10) 0.9763(9)
H44_4 H 0.7929 0.5824 0.9641
C59_4 C 0.8364(6) 0.6587(9) 0.9402(8)
H45_4 H 0.8150 0.6643 0.9018
C60_4 C 0.8818(7) 0.7020(7) 0.9605(7)
Br1_4 Br 0.72836(10) 0.91093(9) 0.09476(12)
C10_4 C 0.8894(10) 0.9763(9) 0.1753(9)
H8_4 H 0.9176 0.9641 0.2071
C11_4 C 0.8413(9) 0.9402(8) 0.1636(6)
H9_4 H 0.8357 0.9018 0.1850
C12_4 C 0.7980(7) 0.9605(7) 0.1182(7)
Br6_4 Br 0.91093(9) 0.90524(12) 0.77164(10)
C70_4 C 0.9763(9) 0.8247(9) 0.6106(10)
H53_4 H 0.9641 0.7929 0.5824
C71_4 C 0.9402(8) 0.8364(6) 0.6587(9)
H54_4 H 0.9018 0.8150 0.6643
C72_4 C 0.9605(7) 0.8818(7) 0.7020(7)
Cl1 Cl -0.0000 0.2500 0.0629(2)
O1 O 0.0290(7) 0.3033(11) 0.0974(8)
O2 O 0.0481(9) 0.2238(8) 0.0285(10)
Cl1_2 Cl 1.0000 0.2500 0.0629(2)
O3 O 0.9710(7) 0.1967(11) 0.0974(8)
O4 O 0.9519(9) 0.2762(8) 0.0285(10)
Cl1_3 Cl 0.5000 0.7500 0.5629(2)
O1_2 O 0.4710(7) 0.6967(11) 0.5974(8)
O2_2 O 0.4519(9) 0.7762(8) 0.5285(10)
O3_2 O 0.5290(7) 0.8033(11) 0.5974(8)
O4_2 O 0.5481(9) 0.7238(8) 0.5285(10)
Cl1_4 Cl 0.0000 0.7500 0.4371(2)
O3_3 O 0.0290(7) 0.6967(11) 0.4026(8)
O4_3 O 0.0481(9) 0.7762(8) 0.4715(10)
Cl1_5 Cl 1.0000 0.7500 0.4371(2)
O1_3 O 0.9710(7) 0.8033(11) 0.4026(8)
O2_3 O 0.9519(9) 0.7238(8) 0.4715(10)
Cl1_6 Cl 0.5000 0.2500 0.9371(2)
O1_4 O 0.5290(7) 0.1967(11) 0.9026(8)
O2_4 O 0.5481(9) 0.2762(8) 0.9715(10)
O3_4 O 0.4710(7) 0.3033(11) 0.9026(8)
O4_4 O 0.4519(9) 0.2238(8) 0.9715(10)
Cl1_7 Cl 0.0629(2) 0.0000 0.2500
O1_5 O 0.0974(8) 0.0290(7) 0.3033(11)
O2_5 O 0.0285(10) 0.0481(9) 0.2238(8)
Cl1_8 Cl 0.0629(2) 1.0000 0.2500
O3_5 O 0.0974(8) 0.9710(7) 0.1967(11)
O4_5 O 0.0285(10) 0.9519(9) 0.2762(8)
Cl1_9 Cl 0.5629(2) 0.5000 0.7500
O1_6 O 0.5974(8) 0.4710(7) 0.6967(11)
O2_6 O 0.5285(10) 0.4519(9) 0.7762(8)
O3_6 O 0.5974(8) 0.5290(7) 0.8033(11)
O4_6 O 0.5285(10) 0.5481(9) 0.7238(8)
Cl1_10 Cl 0.4371(2) 0.0000 0.7500
O3_7 O 0.4026(8) 0.0290(7) 0.6967(11)
O4_7 O 0.4715(10) 0.0481(9) 0.7762(8)
Cl1_11 Cl 0.4371(2) 1.0000 0.7500
O1_7 O 0.4026(8) 0.9710(7) 0.8033(11)
O2_7 O 0.4715(10) 0.9519(9) 0.7238(8)
Cl1_12 Cl 0.9371(2) 0.5000 0.2500
O1_8 O 0.9026(8) 0.5290(7) 0.1967(11)
O2_8 O 0.9715(10) 0.5481(9) 0.2762(8)
O3_8 O 0.9026(8) 0.4710(7) 0.3033(11)
O4_8 O 0.9715(10) 0.4519(9) 0.2238(8)
Cl1_13 Cl 0.2500 0.0629(2) -0.0000
O1_9 O 0.3033(11) 0.0974(8) 0.0290(7)
O2_9 O 0.2238(8) 0.0285(10) 0.0481(9)
Cl1_14 Cl 0.2500 0.0629(2) 1.0000
O3_9 O 0.1967(11) 0.0974(8) 0.9710(7)
O4_9 O 0.2762(8) 0.0285(10) 0.9519(9)
Cl1_15 Cl 0.7500 0.5629(2) 0.5000
O1_10 O 0.6967(11) 0.5974(8) 0.4710(7)
O2_10 O 0.7762(8) 0.5285(10) 0.4519(9)
O3_10 O 0.8033(11) 0.5974(8) 0.5290(7)
O4_10 O 0.7238(8) 0.5285(10) 0.5481(9)
Cl1_16 Cl 0.7500 0.4371(2) 0.0000
O3_11 O 0.6967(11) 0.4026(8) 0.0290(7)
O4_11 O 0.7762(8) 0.4715(10) 0.0481(9)
Cl1_17 Cl 0.7500 0.4371(2) 1.0000
O1_11 O 0.8033(11) 0.4026(8) 0.9710(7)
O2_11 O 0.7238(8) 0.4715(10) 0.9519(9)
Cl1_18 Cl 0.2500 0.9371(2) 0.5000
O1_12 O 0.1967(11) 0.9026(8) 0.5290(7)
O2_12 O 0.2762(8) 0.9715(10) 0.5481(9)
O3_12 O 0.3033(11) 0.9026(8) 0.4710(7)
O4_12 O 0.2238(8) 0.9715(10) 0.4519(9)
loop_
_geom_bond_atom_site_label_1
_geom_bond_atom_site_label_2
_geom_bond_site_symmetry_1
_geom_bond_site_symmetry_2
N2 C2 1_555 1_555
C1 H2 1_555 1_555
C2 C4 1_555 1_555
C3 C1 1_555 1_555
C4 C1 1_555 1_555
H3 C4 1_555 1_555
C6 C3 1_555 1_555
H5 C6 1_555 1_555
C7 C2 1_555 1_555
H6 C7 1_555 1_555
C13 H11 1_555 1_555
C14 N2 1_555 1_555
C15 C13 1_555 1_555
C16 C13 1_555 1_555
H12 C16 1_555 1_555
C18 C15 1_555 1_555
H14 C18 1_555 1_555
C19 C14 1_555 1_555
H15 C19 1_555 1_555
C25 H20 1_555 1_555
C26 N2 1_555 1_555
C27 C25 1_555 1_555
C28 C25 1_555 1_555
H21 C28 1_555 1_555
C30 C27 1_555 1_555
H23 C30 1_555 1_555
C31 C26 1_555 1_555
H24 C31 1_555 1_555
Br5 C60 1_555 1_555
N15 Ag2 1_555 1_555
N16 Ag2 1_555 1_555
N17 N15 1_555 1_555
H37 N17 1_555 1_555
C56 N16 1_555 1_555
C57 C56 1_555 1_555
H43 C57 1_555 1_555
C58 C57 1_555 1_555
H44 C58 1_555 1_555
C59 C58 1_555 1_555
H45 C59 1_555 1_555
C60 N16 1_555 1_555
N21 Ag1 1_555 1_555
N22 Ag3 1_555 1_555
N23 Ag1 1_555 1_555
N24 Ag3 1_555 1_555
C3 C5 1_555 1_555
C6 C7 1_555 1_555
C14 C16 1_555 1_555
C15 C17 1_555 1_555
C18 C19 1_555 1_555
C26 C28 1_555 1_555
C27 C29 1_555 1_555
C30 C31 1_555 1_555
N17 C56 1_555 1_555
C59 C60 1_555 1_555
Ag1_2 N1 1_555 1_555
Br1 C12 1_555 1_555
N1 N4 1_555 1_555
N3 Ag1_2 1_555 1_555
N4 H1 1_555 1_555
C8 N3 1_555 1_555
C9 C8 1_555 1_555
H7 C9 1_555 1_555
C10 C9 1_555 1_555
H8 C10 1_555 1_555
C11 C10 1_555 1_555
H9 C11 1_555 1_555
C12 N3 1_555 1_555
N4 C8 1_555 1_555
C11 C12 1_555 1_555
Br3 C36 1_555 1_555
N8 N10 1_555 1_555
N9 C32 1_555 1_555
N10 H19 1_555 1_555
C32 N10 1_555 1_555
C33 C32 1_555 1_555
H25 C33 1_555 1_555
C34 C33 1_555 1_555
H26 C34 1_555 1_555
C35 C34 1_555 1_555
H27 C35 1_555 1_555
C36 N9 1_555 1_555
Ag3_2 N8 1_555 1_555
N9 Ag3_2 1_555 1_555
C35 C36 1_555 1_555
Br2 C24 1_555 1_555
N5 N7 1_555 1_555
N6 C20 1_555 1_555
N7 H10 1_555 1_555
C20 N7 1_555 1_555
C21 C20 1_555 1_555
H16 C21 1_555 1_555
C22 C21 1_555 1_555
H17 C22 1_555 1_555
C23 C22 1_555 1_555
H18 C23 1_555 1_555
C24 N6 1_555 1_555
Ag2_2 N5 1_555 1_555
N12 C38 1_555 1_555
C37 H29 1_555 1_555
C38 C40 1_555 1_555
C39 C37 1_555 1_555
C40 C37 1_555 1_555
H30 C40 1_555 1_555
C42 C39 1_555 1_555
H32 C42 1_555 1_555
C43 C38 1_555 1_555
H33 C43 1_555 1_555
C49 H38 1_555 1_555
C50 N12 1_555 1_555
C51 C49 1_555 1_555
C52 C49 1_555 1_555
H39 C52 1_555 1_555
C54 C51 1_555 1_555
H41 C54 1_555 1_555
C55 C50 1_555 1_555
H42 C55 1_555 1_555
Br6 C72 1_555 1_555
N18 N20 1_555 1_555
N19 C68 1_555 1_555
N20 H46 1_555 1_555
C61 H47 1_555 1_555
C62 N12 1_555 1_555
C63 C61 1_555 1_555
C64 C61 1_555 1_555
H48 C64 1_555 1_555
C65 N18 1_555 1_555
H49 C65 1_555 1_555
C66 C63 1_555 1_555
H50 C66 1_555 1_555
C67 C62 1_555 1_555
H51 C67 1_555 1_555
C68 N20 1_555 1_555
C69 C68 1_555 1_555
H52 C69 1_555 1_555
C70 C69 1_555 1_555
H53 C70 1_555 1_555
C71 C70 1_555 1_555
H54 C71 1_555 1_555
C72 N19 1_555 1_555
Ag5 N18 1_555 1_555
N6 Ag2_2 1_555 1_555
C23 C24 1_555 1_555
C39 C41 1_555 1_555
C42 C43 1_555 1_555
C50 C52 1_555 1_555
C51 C53 1_555 1_555
C54 C55 1_555 1_555
N19 Ag5 1_555 1_555
C62 C64 1_555 1_555
C63 C65 1_555 1_555
C66 C67 1_555 1_555
C71 C72 1_555 1_555
N11 N14 1_555 1_555
N13 C44 1_555 1_555
N14 H28 1_555 1_555
C44 N14 1_555 1_555
C45 C44 1_555 1_555
H34 C45 1_555 1_555
Ag4_2 N11 1_555 1_555
N13 Ag4_2 1_555 1_555
Br6_2 C72_2 1_555 1_555
H53_2 C70_2 1_555 1_555
C71_2 C70_2 1_555 1_555
H54_2 C71_2 1_555 1_555
C71_2 C72_2 1_555 1_555
N8_2 N10_2 1_555 1_555
N9_2 C32_2 1_555 1_555
N10_2 H19_2 1_555 1_555
C32_2 N10_2 1_555 1_555
C33_2 C32_2 1_555 1_555
H25_2 C33_2 1_555 1_555
Ag3_3 N8_2 1_555 1_555
Br4 C48 1_555 1_555
H35 C46 1_555 1_555
C47 C46 1_555 1_555
H36 C47 1_555 1_555
N9_2 Ag3_3 1_555 1_555
C47 C48 1_555 1_555
Br2_2 C24_2 1_555 1_555
H17_2 C22_2 1_555 1_555
C23_2 C22_2 1_555 1_555
H18_2 C23_2 1_555 1_555
Br5_2 C60_2 1_555 1_555
H44_2 C58_2 1_555 1_555
C59_2 C58_2 1_555 1_555
H45_2 C59_2 1_555 1_555
C23_2 C24_2 1_555 1_555
C59_2 C60_2 1_555 1_555
Ag1_3 N1_2 1_555 1_555
Br1_2 C12_2 1_555 1_555
N1_2 N4_2 1_555 1_555
N2_2 C2_2 1_555 1_555
N3_2 Ag1_3 1_555 1_555
N4_2 H1_2 1_555 1_555
C1_2 H2_2 1_555 1_555
C2_2 C4_2 1_555 1_555
C3_2 C1_2 1_555 1_555
C4_2 C1_2 1_555 1_555
H3_2 C4_2 1_555 1_555
C5_2 N1_2 1_555 1_555
H4_2 C5_2 1_555 1_555
C6_2 C3_2 1_555 1_555
H5_2 C6_2 1_555 1_555
C7_2 C2_2 1_555 1_555
H6_2 C7_2 1_555 1_555
C8_2 N3_2 1_555 1_555
C9_2 C8_2 1_555 1_555
H7_2 C9_2 1_555 1_555
C10_2 C9_2 1_555 1_555
H8_2 C10_2 1_555 1_555
C11_2 C10_2 1_555 1_555
H9_2 C11_2 1_555 1_555
C12_2 N3_2 1_555 1_555
N5_2 N7_2 1_555 1_555
N6_2 C20_2 1_555 1_555
N7_2 H10_2 1_555 1_555
C13_2 H11_2 1_555 1_555
C14_2 N2_2 1_555 1_555
C15_2 C13_2 1_555 1_555
C16_2 C13_2 1_555 1_555
H12_2 C16_2 1_555 1_555
C17_2 N5_2 1_555 1_555
H13_2 C17_2 1_555 1_555
C18_2 C15_2 1_555 1_555
H14_2 C18_2 1_555 1_555
C19_2 C14_2 1_555 1_555
H15_2 C19_2 1_555 1_555
C20_2 N7_2 1_555 1_555
C21_2 C20_2 1_555 1_555
H16_2 C21_2 1_555 1_555
C25_2 H20_2 1_555 1_555
C26_2 N2_2 1_555 1_555
C27_2 C25_2 1_555 1_555
C28_2 C25_2 1_555 1_555
H21_2 C28_2 1_555 1_555
C30_2 C27_2 1_555 1_555
H23_2 C30_2 1_555 1_555
C31_2 C26_2 1_555 1_555
H24_2 C31_2 1_555 1_555
Ag2_3 N5_2 1_555 1_555
N11_2 N14_2 1_555 1_555
N12_2 C38_2 1_555 1_555
N13_2 C44_2 1_555 1_555
N14_2 H28_2 1_555 1_555
C37_2 H29_2 1_555 1_555
C38_2 C40_2 1_555 1_555
C39_2 C37_2 1_555 1_555
C40_2 C37_2 1_555 1_555
H30_2 C40_2 1_555 1_555
C41_2 N11_2 1_555 1_555
H31_2 C41_2 1_555 1_555
C42_2 C39_2 1_555 1_555
H32_2 C42_2 1_555 1_555
C43_2 C38_2 1_555 1_555
H33_2 C43_2 1_555 1_555
C44_2 N14_2 1_555 1_555
C45_2 C44_2 1_555 1_555
H34_2 C45_2 1_555 1_555
N15_2 Ag2_3 1_555 1_555
N16_2 Ag2_3 1_555 1_555
N17_2 N15_2 1_555 1_555
H37_2 N17_2 1_555 1_555
C49_2 H38_2 1_555 1_555
C50_2 N12_2 1_555 1_555
C51_2 C49_2 1_555 1_555
C52_2 C49_2 1_555 1_555
H39_2 C52_2 1_555 1_555
C53_2 N15_2 1_555 1_555
H40_2 C53_2 1_555 1_555
C54_2 C51_2 1_555 1_555
H41_2 C54_2 1_555 1_555
C55_2 C50_2 1_555 1_555
H42_2 C55_2 1_555 1_555
C56_2 N16_2 1_555 1_555
C57_2 C56_2 1_555 1_555
H43_2 C57_2 1_555 1_555
N18_2 N20_2 1_555 1_555
N19_2 C68_2 1_555 1_555
N20_2 H46_2 1_555 1_555
C61_2 H47_2 1_555 1_555
C62_2 N12_2 1_555 1_555
C63_2 C61_2 1_555 1_555
C64_2 C61_2 1_555 1_555
H48_2 C64_2 1_555 1_555
C65_2 N18_2 1_555 1_555
H49_2 C65_2 1_555 1_555
C66_2 C63_2 1_555 1_555
H50_2 C66_2 1_555 1_555
C67_2 C62_2 1_555 1_555
H51_2 C67_2 1_555 1_555
C68_2 N20_2 1_555 1_555
C69_2 C68_2 1_555 1_555
H52_2 C69_2 1_555 1_555
Ag4_3 N11_2 1_555 1_555
Ag5_2 N18_2 1_555 1_555
N21_2 Ag1_3 1_555 1_555
N22_2 Ag3_4 1_555 1_555
N23_2 Ag1_3 1_555 1_555
N24_2 Ag3_4 1_555 1_555
N4_2 C8_2 1_555 1_555
C3_2 C5_2 1_555 1_555
C6_2 C7_2 1_555 1_555
C11_2 C12_2 1_555 1_555
N6_2 Ag2_3 1_555 1_555
C14_2 C16_2 1_555 1_555
C15_2 C17_2 1_555 1_555
C18_2 C19_2 1_555 1_555
C26_2 C28_2 1_555 1_555
C27_2 C29_2 1_555 1_555
C30_2 C31_2 1_555 1_555
N13_2 Ag4_3 1_555 1_555
C39_2 C41_2 1_555 1_555
C42_2 C43_2 1_555 1_555
N17_2 C56_2 1_555 1_555
C50_2 C52_2 1_555 1_555
C51_2 C53_2 1_555 1_555
C54_2 C55_2 1_555 1_555
N19_2 Ag5_2 1_555 1_555
C62_2 C64_2 1_555 1_555
C63_2 C65_2 1_555 1_555
C66_2 C67_2 1_555 1_555
Br6_3 C72_3 1_555 1_555
N22 N20_3 1_555 1_555
N24 C68_3 1_555 1_555
N20_3 H46_3 1_555 1_555
C68_3 N20_3 1_555 1_555
C69_3 C68_3 1_555 1_555
H52_3 C69_3 1_555 1_555
C70_3 C69_3 1_555 1_555
H53_3 C70_3 1_555 1_555
C71_3 C70_3 1_555 1_555
H54_3 C71_3 1_555 1_555
C72_3 N24 1_555 1_555
C71_3 C72_3 1_555 1_555
N5_3 N7_3 1_555 1_555
N6_3 C20_3 1_555 1_555
N7_3 H10_3 1_555 1_555
C20_3 N7_3 1_555 1_555
C21_3 C20_3 1_555 1_555
H16_3 C21_3 1_555 1_555
Ag2_4 N5_3 1_555 1_555
Br4_2 C48_2 1_555 1_555
N21_2 N14_3 1_555 1_555
N12_3 C38_3 1_555 1_555
N23_2 C44_3 1_555 1_555
N14_3 H28_3 1_555 1_555
C37_3 H29_3 1_555 1_555
C38_3 C40_3 1_555 1_555
C39_3 C37_3 1_555 1_555
C40_3 C37_3 1_555 1_555
H30_3 C40_3 1_555 1_555
C41_3 N21_2 1_555 1_555
H31_3 C41_3 1_555 1_555
C42_3 C39_3 1_555 1_555
H32_3 C42_3 1_555 1_555
C43_3 C38_3 1_555 1_555
H33_3 C43_3 1_555 1_555
C44_3 N14_3 1_555 1_555
C45_3 C44_3 1_555 1_555
H34_3 C45_3 1_555 1_555
C46_2 C45_3 1_555 1_555
H35_2 C46_2 1_555 1_555
C47_2 C46_2 1_555 1_555
H36_2 C47_2 1_555 1_555
C48_2 N23_2 1_555 1_555
C49_3 H38_3 1_555 1_555
C50_3 N12_3 1_555 1_555
C51_3 C49_3 1_555 1_555
C52_3 C49_3 1_555 1_555
H39_3 C52_3 1_555 1_555
C54_3 C51_3 1_555 1_555
H41_3 C54_3 1_555 1_555
C55_3 C50_3 1_555 1_555
H42_3 C55_3 1_555 1_555
C61_3 H47_3 1_555 1_555
C62_3 N12_3 1_555 1_555
C63_3 C61_3 1_555 1_555
C64_3 C61_3 1_555 1_555
H48_3 C64_3 1_555 1_555
C66_3 C63_3 1_555 1_555
H50_3 C66_3 1_555 1_555
C67_3 C62_3 1_555 1_555
H51_3 C67_3 1_555 1_555
N6_3 Ag2_4 1_555 1_555
C39_3 C41_3 1_555 1_555
C42_3 C43_3 1_555 1_555
C47_2 C48_2 1_555 1_555
C50_3 C52_3 1_555 1_555
C51_3 C53_3 1_555 1_555
C54_3 C55_3 1_555 1_555
C62_3 C64_3 1_555 1_555
C63_3 C65_3 1_555 1_555
C66_3 C67_3 1_555 1_555
Br1_3 C12_3 1_555 1_555
H8_3 C10_3 1_555 1_555
C11_3 C10_3 1_555 1_555
H9_3 C11_3 1_555 1_555
C11_3 C12_3 1_555 1_555
Ag4_3 N1_3 1_555 1_555
N1_3 N4_3 1_555 1_555
N2_3 C2_3 1_555 1_555
N3_3 Ag4_3 1_555 1_555
N4_3 H1_3 1_555 1_555
C1_3 H2_3 1_555 1_555
C2_3 C4_3 1_555 1_555
C3_3 C1_3 1_555 1_555
C4_3 C1_3 1_555 1_555
H3_3 C4_3 1_555 1_555
C5_3 N1_3 1_555 1_555
H4_3 C5_3 1_555 1_555
C6_3 C3_3 1_555 1_555
H5_3 C6_3 1_555 1_555
C7_3 C2_3 1_555 1_555
H6_3 C7_3 1_555 1_555
C8_3 N3_3 1_555 1_555
C9_3 C8_3 1_555 1_555
H7_3 C9_3 1_555 1_555
C13_3 H11_3 1_555 1_555
C14_3 N2_3 1_555 1_555
C15_3 C13_3 1_555 1_555
C16_3 C13_3 1_555 1_555
H12_3 C16_3 1_555 1_555
C18_3 C15_3 1_555 1_555
H14_3 C18_3 1_555 1_555
C19_3 C14_3 1_555 1_555
H15_3 C19_3 1_555 1_555
Br3_2 C36_2 1_555 1_555
N8_3 N10_3 1_555 1_555
N9_3 C32_3 1_555 1_555
N10_3 H19_3 1_555 1_555
C25_3 H20_3 1_555 1_555
C26_3 N2_3 1_555 1_555
C27_3 C25_3 1_555 1_555
C28_3 C25_3 1_555 1_555
H21_3 C28_3 1_555 1_555
C29_3 N8_3 1_555 1_555
H22_3 C29_3 1_555 1_555
C30_3 C27_3 1_555 1_555
H23_3 C30_3 1_555 1_555
C31_3 C26_3 1_555 1_555
H24_3 C31_3 1_555 1_555
C32_3 N10_3 1_555 1_555
C33_3 C32_3 1_555 1_555
H25_3 C33_3 1_555 1_555
C34_2 C33_3 1_555 1_555
H26_2 C34_2 1_555 1_555
C35_2 C34_2 1_555 1_555
H27_2 C35_2 1_555 1_555
C36_2 N9_3 1_555 1_555
Ag5 N8_3 1_555 1_555
N15_3 Ag2_5 1_555 1_555
N16_3 Ag2_5 1_555 1_555
N17_3 N15_3 1_555 1_555
H37_3 N17_3 1_555 1_555
C56_3 N16_3 1_555 1_555
C57_3 C56_3 1_555 1_555
H43_3 C57_3 1_555 1_555
N4_3 C8_3 1_555 1_555
C3_3 C5_3 1_555 1_555
C6_3 C7_3 1_555 1_555
C14_3 C16_3 1_555 1_555
C15_3 C17_3 1_555 1_555
C18_3 C19_3 1_555 1_555
N9_3 Ag5 1_555 1_555
C26_3 C28_3 1_555 1_555
C27_3 C29_3 1_555 1_555
C30_3 C31_3 1_555 1_555
C35_2 C36_2 1_555 1_555
N17_3 C56_3 1_555 1_555
Br3_3 C36_3 1_555 1_555
H26_3 C34_3 1_555 1_555
C35_3 C34_3 1_555 1_555
H27_3 C35_3 1_555 1_555
C35_3 C36_3 1_555 1_555
Ag4 N1_4 1_555 1_555
N1_4 N4_4 1_555 1_555
N3_4 Ag4 1_555 1_555
N4_4 H1_4 1_555 1_555
C8_4 N3_4 1_555 1_555
C9_4 C8_4 1_555 1_555
H7_4 C9_4 1_555 1_555
Br4_3 C48_3 1_555 1_555
N21 N14_4 1_555 1_555
N23 C44_4 1_555 1_555
N14_4 H28_4 1_555 1_555
C44_4 N14_4 1_555 1_555
C45_4 C44_4 1_555 1_555
H34_4 C45_4 1_555 1_555
C46_3 C45_4 1_555 1_555
H35_3 C46_3 1_555 1_555
C47_3 C46_3 1_555 1_555
H36_3 C47_3 1_555 1_555
C48_3 N23 1_555 1_555
N4_4 C8_4 1_555 1_555
C47_3 C48_3 1_555 1_555
N2_4 C2_4 1_555 1_555
C1_4 H2_4 1_555 1_555
C2_4 C4_4 1_555 1_555
C3_4 C1_4 1_555 1_555
C4_4 C1_4 1_555 1_555
H3_4 C4_4 1_555 1_555
C6_4 C3_4 1_555 1_555
H5_4 C6_4 1_555 1_555
C7_4 C2_4 1_555 1_555
H6_4 C7_4 1_555 1_555
Br2_3 C24_3 1_555 1_555
N5_4 N7_4 1_555 1_555
N6_4 C20_4 1_555 1_555
N7_4 H10_4 1_555 1_555
C13_4 H11_4 1_555 1_555
C14_4 N2_4 1_555 1_555
C15_4 C13_4 1_555 1_555
C16_4 C13_4 1_555 1_555
H12_4 C16_4 1_555 1_555
C17_4 N5_4 1_555 1_555
H13_4 C17_4 1_555 1_555
C18_4 C15_4 1_555 1_555
H14_4 C18_4 1_555 1_555
C19_4 C14_4 1_555 1_555
H15_4 C19_4 1_555 1_555
C20_4 N7_4 1_555 1_555
C21_4 C20_4 1_555 1_555
H16_4 C21_4 1_555 1_555
C22_3 C21_4 1_555 1_555
H17_3 C22_3 1_555 1_555
C23_3 C22_3 1_555 1_555
H18_3 C23_3 1_555 1_555
C24_3 N6_4 1_555 1_555
N8_4 N10_4 1_555 1_555
N9_4 C32_4 1_555 1_555
N10_4 H19_4 1_555 1_555
C25_4 H20_4 1_555 1_555
C26_4 N2_4 1_555 1_555
C27_4 C25_4 1_555 1_555
C28_4 C25_4 1_555 1_555
H21_4 C28_4 1_555 1_555
C29_4 N8_4 1_555 1_555
H22_4 C29_4 1_555 1_555
C30_4 C27_4 1_555 1_555
H23_4 C30_4 1_555 1_555
C31_4 C26_4 1_555 1_555
H24_4 C31_4 1_555 1_555
C32_4 N10_4 1_555 1_555
C33_4 C32_4 1_555 1_555
H25_4 C33_4 1_555 1_555
Ag2_6 N5_4 1_555 1_555
Ag5_2 N8_4 1_555 1_555
N12_4 C38_4 1_555 1_555
C37_4 H29_4 1_555 1_555
C38_4 C40_4 1_555 1_555
C39_4 C37_4 1_555 1_555
C40_4 C37_4 1_555 1_555
H30_4 C40_4 1_555 1_555
C42_4 C39_4 1_555 1_555
H32_4 C42_4 1_555 1_555
C43_4 C38_4 1_555 1_555
H33_4 C43_4 1_555 1_555
Br5_3 C60_3 1_555 1_555
N15_4 Ag2_6 1_555 1_555
N16_4 Ag2_6 1_555 1_555
N17_4 N15_4 1_555 1_555
H37_4 N17_4 1_555 1_555
C49_4 H38_4 1_555 1_555
C50_4 N12_4 1_555 1_555
C51_4 C49_4 1_555 1_555
C52_4 C49_4 1_555 1_555
H39_4 C52_4 1_555 1_555
C53_4 N15_4 1_555 1_555
H40_4 C53_4 1_555 1_555
C54_4 C51_4 1_555 1_555
H41_4 C54_4 1_555 1_555
C55_4 C50_4 1_555 1_555
H42_4 C55_4 1_555 1_555
C56_4 N16_4 1_555 1_555
C57_4 C56_4 1_555 1_555
H43_4 C57_4 1_555 1_555
C58_3 C57_4 1_555 1_555
H44_3 C58_3 1_555 1_555
C59_3 C58_3 1_555 1_555
H45_3 C59_3 1_555 1_555
C60_3 N16_4 1_555 1_555
C61_4 H47_4 1_555 1_555
C62_4 N12_4 1_555 1_555
C63_4 C61_4 1_555 1_555
C64_4 C61_4 1_555 1_555
H48_4 C64_4 1_555 1_555
C66_4 C63_4 1_555 1_555
H50_4 C66_4 1_555 1_555
C67_4 C62_4 1_555 1_555
H51_4 C67_4 1_555 1_555
C3_4 C5_4 1_555 1_555
C6_4 C7_4 1_555 1_555
N6_4 Ag2_6 1_555 1_555
C14_4 C16_4 1_555 1_555
C15_4 C17_4 1_555 1_555
C18_4 C19_4 1_555 1_555
C23_3 C24_3 1_555 1_555
N9_4 Ag5_2 1_555 1_555
C26_4 C28_4 1_555 1_555
C27_4 C29_4 1_555 1_555
C30_4 C31_4 1_555 1_555
C39_4 C41_4 1_555 1_555
C42_4 C43_4 1_555 1_555
N17_4 C56_4 1_555 1_555
C50_4 C52_4 1_555 1_555
C51_4 C53_4 1_555 1_555
C54_4 C55_4 1_555 1_555
C59_3 C60_3 1_555 1_555
C62_4 C64_4 1_555 1_555
C63_4 C65_4 1_555 1_555
C66_4 C67_4 1_555 1_555
N22_2 N20_4 1_555 1_555
N24_2 C68_4 1_555 1_555
N20_4 H46_4 1_555 1_555
C68_4 N20_4 1_555 1_555
C69_4 C68_4 1_555 1_555
H52_4 C69_4 1_555 1_555
Br4_4 C48_4 1_555 1_555
H35_4 C46_4 1_555 1_555
C47_4 C46_4 1_555 1_555
H36_4 C47_4 1_555 1_555
C47_4 C48_4 1_555 1_555
Br3_4 C36_4 1_555 1_555
H26_4 C34_4 1_555 1_555
C35_4 C34_4 1_555 1_555
H27_4 C35_4 1_555 1_555
C35_4 C36_4 1_555 1_555
Br2_4 C24_4 1_555 1_555
H17_4 C22_4 1_555 1_555
C23_4 C22_4 1_555 1_555
H18_4 C23_4 1_555 1_555
C23_4 C24_4 1_555 1_555
Br5_4 C60_4 1_555 1_555
H44_4 C58_4 1_555 1_555
C59_4 C58_4 1_555 1_555
H45_4 C59_4 1_555 1_555
C59_4 C60_4 1_555 1_555
Br1_4 C12_4 1_555 1_555
H8_4 C10_4 1_555 1_555
C11_4 C10_4 1_555 1_555
H9_4 C11_4 1_555 1_555
C11_4 C12_4 1_555 1_555
Br6_4 C72_4 1_555 1_555
H53_4 C70_4 1_555 1_555
C71_4 C70_4 1_555 1_555
H54_4 C71_4 1_555 1_555
C71_4 C72_4 1_555 1_555
Cl1 O1 1_555 1_555
O2 Cl1 1_555 1_555
O3 Cl1_2 1_555 1_555
O4 Cl1_2 1_555 1_555
Cl1_3 O1_2 1_555 1_555
O2_2 Cl1_3 1_555 1_555
O3_2 Cl1_3 1_555 1_555
O4_2 Cl1_3 1_555 1_555
O3_3 Cl1_4 1_555 1_555
O4_3 Cl1_4 1_555 1_555
Cl1_5 O1_3 1_555 1_555
O2_3 Cl1_5 1_555 1_555
Cl1_6 O1_4 1_555 1_555
O2_4 Cl1_6 1_555 1_555
O3_4 Cl1_6 1_555 1_555
O4_4 Cl1_6 1_555 1_555
Cl1_7 O1_5 1_555 1_555
O2_5 Cl1_7 1_555 1_555
O3_5 Cl1_8 1_555 1_555
O4_5 Cl1_8 1_555 1_555
Cl1_9 O1_6 1_555 1_555
O2_6 Cl1_9 1_555 1_555
O3_6 Cl1_9 1_555 1_555
O4_6 Cl1_9 1_555 1_555
O3_7 Cl1_10 1_555 1_555
O4_7 Cl1_10 1_555 1_555
Cl1_11 O1_7 1_555 1_555
O2_7 Cl1_11 1_555 1_555
Cl1_12 O1_8 1_555 1_555
O2_8 Cl1_12 1_555 1_555
O3_8 Cl1_12 1_555 1_555
O4_8 Cl1_12 1_555 1_555
Cl1_13 O1_9 1_555 1_555
O2_9 Cl1_13 1_555 1_555
O3_9 Cl1_14 1_555 1_555
O4_9 Cl1_14 1_555 1_555
Cl1_15 O1_10 1_555 1_555
O2_10 Cl1_15 1_555 1_555
O3_10 Cl1_15 1_555 1_555
O4_10 Cl1_15 1_555 1_555
O3_11 Cl1_16 1_555 1_555
O4_11 Cl1_16 1_555 1_555
Cl1_17 O1_11 1_555 1_555
O2_11 Cl1_17 1_555 1_555
Cl1_18 O1_12 1_555 1_555
O2_12 Cl1_18 1_555 1_555
O3_12 Cl1_18 1_555 1_555
O4_12 Cl1_18 1_555 1_555

#END
