
###############################################################################
#
# This file contains modified crystal structure data generated from the
# MOF subset of the Cambridge Structural Database (CSD) v543 
# hosted by the Cambridge Crystallographic Data Centre (CCDC).
#
# This work is licensed under the Creative Commons
# Attribution-NonCommercial-ShareAlike 4.0 International License.
# To view a copy of this license, visit
# http://creativecommons.org/licenses/by-nc-sa/4.0/
# or send a letter to
# Creative Commons, PO Box 1866, Mountain View, CA 94042, USA.
#
# CIF created using the CSD Python API on 29 September 2022
# The structure has been converted into the P1 space group
# The structure has a 3D framework
# The original CSD entry KENTEF is in the cubic crystal system
# The original CSD entry KENTEF is in a Sohncke space group
# The framework has been calculated to contain at least 10.0% void space
# The void calculation uses a probe of radius 1.32A, grid spacing 0.4
# The framework is charged, counterions have been retained in the structure
#
###############################################################################

data_KENTEF
_chemical_formula_moiety         '(C288 H216 Ag14 Br24 Cl18 N80 O48 2+)n'
_symmetry_cell_setting           triclinic
_symmetry_space_group_name_H-M   'P 1'
_symmetry_Int_Tables_number      1
_space_group_name_Hall           'P 1'
loop_
_symmetry_equiv_pos_site_id
_symmetry_equiv_pos_as_xyz
1 x,y,z
_cell_length_a                   21.3221(3)
_cell_length_b                   21.3221(3)
_cell_length_c                   21.3221(3)
_cell_angle_alpha                90
_cell_angle_beta                 90
_cell_angle_gamma                90
_cell_volume                     9693.71
loop_
_atom_site_label
_atom_site_type_symbol
_atom_site_fract_x
_atom_site_fract_y
_atom_site_fract_z
Ag1 Ag 0.2500 0.21270(2) 0.5000
N1 N 0.23821(16) 0.13460(16) 0.41723(15)
N2 N 0.16708(17) 0.23917(18) 0.44130(16)
C1 C 0.2575(2) 0.0789(2) 0.4118(2)
N3 N 0.18556(17) 0.14883(19) 0.38231(18)
C2 C 0.1545(2) 0.2034(2) 0.3910(2)
C3 C 0.1330(3) 0.2910(2) 0.4492(2)
C4 C 0.31532(17) 0.05534(18) 0.44172(17)
H1 H 0.2337 0.0509 0.3874
H2 H 0.1722 0.1223 0.3543
C5 C 0.1077(2) 0.2208(2) 0.3474(2)
Br1 Br 0.15423(4) 0.34009(3) 0.51963(3)
C6 C 0.0864(2) 0.3107(2) 0.4099(3)
C8 C 0.36094(19) 0.09406(18) 0.46594(19)
H3 H 0.0997 0.1959 0.3119
C9 C 0.0746(2) 0.2738(3) 0.3578(3)
H4 H 0.0634 0.3475 0.4179
H6 H 0.3553 0.1378 0.4647
C11 C 0.41553(19) 0.06917(18) 0.4923(2)
H7 H 0.0432 0.2858 0.3293
C12 C 0.42358(17) 0.00452(18) 0.49487(18)
H9 H 0.4467 0.0960 0.5083
N5 N 0.26179(16) 0.13460(16) 0.58277(15)
N6 N 0.33292(17) 0.23917(18) 0.55870(16)
C14 C 0.50452(18) 0.00513(18) 0.57642(17)
C17 C 0.46603(19) 0.0281(2) 0.6238(2)
C18 C 0.56917(18) 0.0077(2) 0.58447(19)
H12 H 0.4223 0.0247 0.6198
C21 C 0.49068(18) 0.05558(19) 0.67599(18)
C22 C 0.59406(18) 0.03406(19) 0.63906(19)
H16 H 0.4638 0.0728 0.7064
C24 C 0.55534(18) 0.05828(17) 0.68468(17)
H17 H 0.6378 0.0353 0.6447
C26 C 0.5789(2) 0.0882(2) 0.7425(2)
H19 H 0.5509 0.1126 0.7663
N8 N 0.63460(16) 0.08277(15) 0.76179(16)
N10 N 0.64883(19) 0.11769(18) 0.81444(17)
Ag3 Ag 0.71270(2) 0.0000 0.7500
C28 C 0.7034(2) 0.1090(2) 0.8455(2)
H21 H 0.6223 0.1457 0.8278
N14 N 0.73917(18) 0.05870(16) 0.83292(17)
C34 C 0.7208(2) 0.1526(2) 0.8923(2)
C35 C 0.7910(2) 0.0508(2) 0.8670(3)
H25 H 0.6959 0.1881 0.9003
C41 C 0.7738(3) 0.1422(3) 0.9254(2)
C42 C 0.8107(2) 0.0901(3) 0.9136(2)
H30 H 0.7858 0.1707 0.9568
H31 H 0.8475 0.0821 0.9366
C7 C 0.32401(18) 0.99068(18) 0.44442(19)
C10 C 0.3762(2) 0.96603(19) 0.4719(2)
H5 H 0.2936 0.9638 0.4272
H8 H 0.3802 0.9223 0.4753
N4 N 0.47897(18) 0.97897(18) 0.52103(18)
C13 C 0.50513(18) 0.92358(17) 0.49548(18)
C15 C 0.5281(2) 0.8762(2) 0.53397(19)
C16 C 0.5077(2) 0.91553(19) 0.43083(18)
H10 H 0.5247 0.8802 0.5777
C19 C 0.55558(19) 0.82401(18) 0.50932(18)
C20 C 0.53406(19) 0.86094(19) 0.40594(18)
H11 H 0.4917 0.9467 0.4040
H13 H 0.5960 0.9917 0.5533
H14 H 0.5728 0.7936 0.5362
C23 C 0.55828(17) 0.81532(17) 0.44466(18)
H15 H 0.5353 0.8553 0.3622
C25 C 0.5882(2) 0.7575(2) 0.4211(2)
H18 H 0.6126 0.7337 0.4491
N7 N 0.58277(15) 0.73821(16) 0.36540(16)
N9 N 0.61769(18) 0.68556(17) 0.35117(19)
Ag2 Ag 0.5000 0.7500 0.28730(2)
Ag3_2 Ag 0.71270(2) 1.0000 0.7500
C27 C 0.6090(2) 0.6545(2) 0.2966(2)
H20 H 0.6457 0.6722 0.3777
N11 N 0.55870(16) 0.66708(17) 0.26083(18)
N12 N 0.41723(15) 0.76179(16) 0.36540(16)
N13 N 0.44130(16) 0.83292(17) 0.26083(18)
N15 N 0.63460(16) 0.91723(15) 0.73821(16)
N16 N 0.73917(18) 0.94130(16) 0.66708(17)
C29 C 0.6526(2) 0.6077(2) 0.2792(2)
C30 C 0.5508(2) 0.6330(3) 0.2090(2)
C31 C 0.4118(2) 0.7425(2) 0.4211(2)
N17 N 0.38231(18) 0.81444(17) 0.35117(19)
C32 C 0.3910(2) 0.8455(2) 0.2966(2)
C33 C 0.4492(2) 0.8670(3) 0.2090(2)
H22 H 0.6881 0.5997 0.3041
C36 C 0.6422(3) 0.5746(2) 0.2262(3)
Br2 Br 0.48037(3) 0.65423(4) 0.15991(3)
C37 C 0.5901(3) 0.5864(2) 0.1893(2)
C38 C 0.44172(17) 0.68468(17) 0.44466(18)
H23 H 0.3874 0.7663 0.4491
H24 H 0.3543 0.8278 0.3777
C39 C 0.3474(2) 0.8923(2) 0.2792(2)
Br3 Br 0.51963(3) 0.84577(4) 0.15991(3)
C40 C 0.4099(3) 0.9136(2) 0.1893(2)
Br4 Br 0.84009(3) 0.98037(3) 0.84577(4)
H26 H 0.6707 0.5432 0.2142
H27 H 0.5821 0.5634 0.1525
C43 C 0.44442(19) 0.67599(18) 0.50932(18)
C44 C 0.46594(19) 0.63906(19) 0.40594(18)
H28 H 0.3119 0.9003 0.3041
C45 C 0.3578(3) 0.9254(2) 0.2262(3)
H29 H 0.4179 0.9366 0.1525
C46 C 0.4719(2) 0.6238(2) 0.53397(19)
H32 H 0.4272 0.7064 0.5362
H33 H 0.4647 0.6447 0.3622
C47 C 0.4923(2) 0.58447(19) 0.43083(18)
H34 H 0.3293 0.9568 0.2142
C48 C 0.49487(18) 0.57642(17) 0.49548(18)
H35 H 0.4753 0.6198 0.5777
H36 H 0.5083 0.5533 0.4040
N18 N 0.52103(18) 0.52103(18) 0.52103(18)
C49 C 0.57642(17) 0.49548(18) 0.49487(18)
C50 C 0.49548(18) 0.49487(18) 0.57642(17)
C51 C 0.6238(2) 0.53397(19) 0.4719(2)
C52 C 0.58447(19) 0.43083(18) 0.4923(2)
C53 C 0.53397(19) 0.4719(2) 0.6238(2)
C54 C 0.43083(18) 0.4923(2) 0.58447(19)
H37 H 0.6198 0.5777 0.4753
C55 C 0.67599(18) 0.50932(18) 0.44442(19)
C56 C 0.63906(19) 0.40594(18) 0.46594(19)
H38 H 0.5533 0.4040 0.5083
H39 H 0.5777 0.4753 0.6198
C57 C 0.50932(18) 0.44442(19) 0.67599(18)
C58 C 0.40594(18) 0.46594(19) 0.63906(19)
H40 H 0.4040 0.5083 0.5533
H41 H 0.7064 0.5362 0.4272
C59 C 0.68468(17) 0.44466(18) 0.44172(17)
H42 H 0.6447 0.3622 0.4647
H43 H 0.5362 0.4272 0.7064
C60 C 0.44466(18) 0.44172(17) 0.68468(17)
H44 H 0.3622 0.4647 0.6447
C61 C 0.7425(2) 0.4211(2) 0.4118(2)
C62 C 0.4211(2) 0.4118(2) 0.7425(2)
H45 H 0.7663 0.4491 0.3874
N19 N 0.76179(16) 0.36540(16) 0.41723(15)
H46 H 0.4491 0.3874 0.7663
N20 N 0.36540(16) 0.41723(15) 0.76179(16)
N21 N 0.81444(17) 0.35117(19) 0.38231(18)
Ag4 Ag 0.7500 0.28730(2) 0.5000
N22 N 0.35117(19) 0.38231(18) 0.81444(17)
Ag5 Ag 0.28730(2) 0.5000 0.7500
C63 C 0.8455(2) 0.2966(2) 0.3910(2)
H47 H 0.8278 0.3777 0.3543
N23 N 0.83292(17) 0.26083(18) 0.44130(16)
C64 C 0.2966(2) 0.3910(2) 0.8455(2)
H48 H 0.3777 0.3543 0.8278
N24 N 0.26083(18) 0.44130(16) 0.83292(17)
C65 C 0.8923(2) 0.2792(2) 0.3474(2)
C66 C 0.8670(3) 0.2090(2) 0.4492(2)
C67 C 0.2792(2) 0.3474(2) 0.8923(2)
C68 C 0.2090(2) 0.4492(2) 0.8670(3)
H49 H 0.9003 0.3041 0.3119
C69 C 0.9254(2) 0.2262(3) 0.3578(3)
Br5 Br 0.84577(4) 0.15991(3) 0.51963(3)
C70 C 0.9136(2) 0.1893(2) 0.4099(3)
H50 H 0.3041 0.3119 0.9003
C71 C 0.2262(3) 0.3578(3) 0.9254(2)
Br6 Br 0.15991(3) 0.51963(3) 0.84577(4)
C72 C 0.1893(2) 0.4099(3) 0.9136(2)
H51 H 0.9568 0.2142 0.3293
H52 H 0.9366 0.1525 0.4179
H53 H 0.2142 0.3293 0.9568
H54 H 0.1525 0.4179 0.9366
N4_2 N 0.02103(18) 0.02103(18) 0.02103(18)
C43_2 C 0.05558(19) 0.32401(18) 0.00932(18)
C46_2 C 0.0281(2) 0.3762(2) 0.03397(19)
H32_2 H 0.0728 0.2936 0.0362
H35_2 H 0.0247 0.3802 0.0777
C50_2 C 0.00452(18) 0.50513(18) 0.07642(17)
C54_2 C 0.06917(18) 0.5077(2) 0.08447(19)
C58_2 C 0.09406(18) 0.53406(19) 0.13906(19)
H40_2 H 0.0960 0.4917 0.0533
C60_2 C 0.05534(18) 0.55828(17) 0.18468(17)
H44_2 H 0.1378 0.5353 0.1447
C62_2 C 0.0789(2) 0.5882(2) 0.2425(2)
H46_2 H 0.0509 0.6126 0.2663
N20_2 N 0.13460(16) 0.58277(15) 0.26179(16)
N22_2 N 0.14883(19) 0.61769(18) 0.31444(17)
Ag5_2 Ag 0.21270(2) 0.5000 0.2500
C64_2 C 0.2034(2) 0.6090(2) 0.3455(2)
H48_2 H 0.1223 0.6457 0.3278
N24_2 N 0.23917(18) 0.55870(16) 0.33292(17)
C67_2 C 0.2208(2) 0.6526(2) 0.3923(2)
C68_2 C 0.2910(2) 0.5508(2) 0.3670(3)
H50_2 H 0.1959 0.6881 0.4003
C71_2 C 0.2738(3) 0.6422(3) 0.4254(2)
Br6_2 Br 0.34009(3) 0.48037(3) 0.34577(4)
C72_2 C 0.3107(2) 0.5901(3) 0.4136(2)
H53_2 H 0.2858 0.6707 0.4568
H54_2 H 0.3475 0.5821 0.4366
C7_2 C 0.17599(18) 0.00932(18) 0.94442(19)
C10_2 C 0.1238(2) 0.03397(19) 0.9719(2)
H5_2 H 0.2064 0.0362 0.9272
H8_2 H 0.1198 0.0777 0.9753
H11_2 H 0.0083 0.0533 0.9040
Ag2_2 Ag 0.0000 0.2500 0.78730(2)
N12_2 N 0.08277(15) 0.23821(16) 0.86540(16)
N13_2 N 0.05870(16) 0.16708(17) 0.76083(18)
C31_2 C 0.0882(2) 0.2575(2) 0.9211(2)
N17_2 N 0.11769(18) 0.18556(17) 0.85117(19)
C32_2 C 0.1090(2) 0.1545(2) 0.7966(2)
C33_2 C 0.0508(2) 0.1330(3) 0.7090(2)
Br2_2 Br 0.01963(3) 0.34577(4) 0.65991(3)
C38_2 C 0.05828(17) 0.31532(17) 0.94466(18)
H23_2 H 0.1126 0.2337 0.9491
H24_2 H 0.1457 0.1722 0.8777
C39_2 C 0.1526(2) 0.1077(2) 0.7792(2)
C40_2 C 0.0901(3) 0.0864(2) 0.6893(2)
C44_2 C 0.03406(19) 0.36094(19) 0.90594(18)
H28_2 H 0.1881 0.0997 0.8041
C45_2 C 0.1422(3) 0.0746(2) 0.7262(3)
H29_2 H 0.0821 0.0634 0.6525
H33_2 H 0.0353 0.3553 0.8622
C47_2 C 0.0077(2) 0.41553(19) 0.93083(18)
H34_2 H 0.1707 0.0432 0.7142
C48_2 C 0.00513(18) 0.42358(17) 0.99548(18)
Ag1_2 Ag 0.2500 0.78730(2) 0.0000
Br1_2 Br 0.34577(4) 0.65991(3) 0.01963(3)
H9_2 H 0.0533 0.9040 0.0083
N5_2 N 0.23821(16) 0.86540(16) 0.08277(15)
N6_2 N 0.16708(17) 0.76083(18) 0.05870(16)
C17_2 C 0.03397(19) 0.9719(2) 0.1238(2)
H12_2 H 0.0777 0.9753 0.1198
C21_2 C 0.00932(18) 0.94442(19) 0.17599(18)
H16_2 H 0.0362 0.9272 0.2064
Ag1_3 Ag 0.2500 0.78730(2) 1.0000
N1_2 N 0.26179(16) 0.86540(16) 0.91723(15)
N2_2 N 0.33292(17) 0.76083(18) 0.94130(16)
C1_2 C 0.2425(2) 0.9211(2) 0.9118(2)
N3_2 N 0.31444(17) 0.85117(19) 0.88231(18)
C2_2 C 0.3455(2) 0.7966(2) 0.8910(2)
C3_2 C 0.3670(3) 0.7090(2) 0.9492(2)
C4_2 C 0.18468(17) 0.94466(18) 0.94172(17)
H1_2 H 0.2663 0.9491 0.8874
H2_2 H 0.3278 0.8777 0.8543
C5_2 C 0.3923(2) 0.7792(2) 0.8474(2)
C6_2 C 0.4136(2) 0.6893(2) 0.9099(3)
C8_2 C 0.13906(19) 0.90594(18) 0.96594(19)
H3_2 H 0.4003 0.8041 0.8119
C9_2 C 0.4254(2) 0.7262(3) 0.8578(3)
H4_2 H 0.4366 0.6525 0.9179
H6_2 H 0.1447 0.8622 0.9647
C11_2 C 0.08447(19) 0.93083(18) 0.9923(2)
H7_2 H 0.4568 0.7142 0.8293
C12_2 C 0.07642(17) 0.99548(18) 0.99487(18)
C15_2 C 0.9719(2) 0.1238(2) 0.03397(19)
H10_2 H 0.9753 0.1198 0.0777
C19_2 C 0.94442(19) 0.17599(18) 0.00932(18)
H13_2 H 0.9040 0.0083 0.0533
H14_2 H 0.9272 0.2064 0.0362
Ag3_3 Ag 0.78730(2) 0.0000 0.2500
N15_2 N 0.86540(16) 0.08277(15) 0.23821(16)
N16_2 N 0.76083(18) 0.05870(16) 0.16708(17)
Br4_2 Br 0.65991(3) 0.01963(3) 0.34577(4)
N18_2 N 0.97897(18) 0.47897(18) 0.02103(18)
C53_2 C 0.96603(19) 0.5281(2) 0.1238(2)
H38_2 H 0.9467 0.5960 0.0083
H39_2 H 0.9223 0.5247 0.1198
C57_2 C 0.99068(18) 0.55558(19) 0.17599(18)
H43_2 H 0.9638 0.5728 0.2064
Ag4_2 Ag 0.7500 0.71270(2) 0.0000
Br5_2 Br 0.65423(4) 0.84009(3) 0.01963(3)
C13_2 C 0.99487(18) 0.07642(17) 0.99548(18)
C16_2 C 0.9923(2) 0.08447(19) 0.93083(18)
C20_2 C 0.96594(19) 0.13906(19) 0.90594(18)
C23_2 C 0.94172(17) 0.18468(17) 0.94466(18)
H15_2 H 0.9647 0.1447 0.8622
C25_2 C 0.9118(2) 0.2425(2) 0.9211(2)
H18_2 H 0.8874 0.2663 0.9491
N7_2 N 0.91723(15) 0.26179(16) 0.86540(16)
N9_2 N 0.88231(18) 0.31444(17) 0.85117(19)
Ag2_3 Ag 1.0000 0.2500 0.78730(2)
C27_2 C 0.8910(2) 0.3455(2) 0.7966(2)
H20_2 H 0.8543 0.3278 0.8777
N11_2 N 0.94130(16) 0.33292(17) 0.76083(18)
C29_2 C 0.8474(2) 0.3923(2) 0.7792(2)
C30_2 C 0.9492(2) 0.3670(3) 0.7090(2)
H22_2 H 0.8119 0.4003 0.8041
C36_2 C 0.8578(3) 0.4254(2) 0.7262(3)
C37_2 C 0.9099(3) 0.4136(2) 0.6893(2)
Br3_2 Br 0.98037(3) 0.15423(4) 0.65991(3)
H26_2 H 0.8293 0.4568 0.7142
H27_2 H 0.9179 0.4366 0.6525
H36_2 H 0.9917 0.4467 0.9040
C49_2 C 0.92358(17) 0.50452(18) 0.99487(18)
C51_2 C 0.8762(2) 0.46603(19) 0.9719(2)
C52_2 C 0.91553(19) 0.56917(18) 0.9923(2)
H37_2 H 0.8802 0.4223 0.9753
C55_2 C 0.82401(18) 0.49068(18) 0.94442(19)
C56_2 C 0.86094(19) 0.59406(18) 0.96594(19)
H41_2 H 0.7936 0.4638 0.9272
C59_2 C 0.81532(17) 0.55534(18) 0.94172(17)
H42_2 H 0.8553 0.6378 0.9647
C61_2 C 0.7575(2) 0.5789(2) 0.9118(2)
H45_2 H 0.7337 0.5509 0.8874
N19_2 N 0.73821(16) 0.63460(16) 0.91723(15)
N21_2 N 0.68556(17) 0.64883(19) 0.88231(18)
Ag4_3 Ag 0.7500 0.71270(2) 1.0000
C63_2 C 0.6545(2) 0.7034(2) 0.8910(2)
H47_2 H 0.6722 0.6223 0.8543
N23_2 N 0.66708(17) 0.73917(18) 0.94130(16)
C65_2 C 0.6077(2) 0.7208(2) 0.8474(2)
C66_2 C 0.6330(3) 0.7910(2) 0.9492(2)
H49_2 H 0.5997 0.6959 0.8119
C69_2 C 0.5746(2) 0.7738(3) 0.8578(3)
C70_2 C 0.5864(2) 0.8107(2) 0.9099(3)
H51_2 H 0.5432 0.7858 0.8293
H52_2 H 0.5634 0.8475 0.9179
C14_2 C 0.99548(18) 0.99487(18) 0.07642(17)
C18_2 C 0.93083(18) 0.9923(2) 0.08447(19)
C22_2 C 0.90594(18) 0.96594(19) 0.13906(19)
C24_2 C 0.94466(18) 0.94172(17) 0.18468(17)
H17_2 H 0.8622 0.9647 0.1447
C26_2 C 0.9211(2) 0.9118(2) 0.2425(2)
H19_2 H 0.9491 0.8874 0.2663
N8_2 N 0.86540(16) 0.91723(15) 0.26179(16)
N10_2 N 0.85117(19) 0.88231(18) 0.31444(17)
Ag3_4 Ag 0.78730(2) 1.0000 0.2500
C28_2 C 0.7966(2) 0.8910(2) 0.3455(2)
H21_2 H 0.8777 0.8543 0.3278
N14_2 N 0.76083(18) 0.94130(16) 0.33292(17)
C34_2 C 0.7792(2) 0.8474(2) 0.3923(2)
C35_2 C 0.7090(2) 0.9492(2) 0.3670(3)
H25_2 H 0.8041 0.8119 0.4003
C41_2 C 0.7262(3) 0.8578(3) 0.4254(2)
C42_2 C 0.6893(2) 0.9099(3) 0.4136(2)
H30_2 H 0.7142 0.8293 0.4568
H31_2 H 0.6525 0.9179 0.4366
N1_3 N 0.76179(16) 0.63460(16) 0.08277(15)
N2_3 N 0.83292(17) 0.73917(18) 0.05870(16)
C1_3 C 0.7425(2) 0.5789(2) 0.0882(2)
N3_3 N 0.81444(17) 0.64883(19) 0.11769(18)
C2_3 C 0.8455(2) 0.7034(2) 0.1090(2)
C3_3 C 0.8670(3) 0.7910(2) 0.0508(2)
C4_3 C 0.68468(17) 0.55534(18) 0.05828(17)
H1_3 H 0.7663 0.5509 0.1126
H2_3 H 0.8278 0.6223 0.1457
C5_3 C 0.8923(2) 0.7208(2) 0.1526(2)
C6_3 C 0.9136(2) 0.8107(2) 0.0901(3)
C7_3 C 0.67599(18) 0.49068(18) 0.05558(19)
C8_3 C 0.63906(19) 0.59406(18) 0.03406(19)
H3_3 H 0.9003 0.6959 0.1881
C9_3 C 0.9254(2) 0.7738(3) 0.1422(3)
H4_3 H 0.9366 0.8475 0.0821
C10_3 C 0.6238(2) 0.46603(19) 0.0281(2)
H5_3 H 0.7064 0.4638 0.0728
H6_3 H 0.6447 0.6378 0.0353
C11_3 C 0.58447(19) 0.56917(18) 0.0077(2)
H7_3 H 0.9568 0.7858 0.1707
C12_3 C 0.57642(17) 0.50452(18) 0.00513(18)
H8_3 H 0.6198 0.4223 0.0247
C13_3 C 0.49487(18) 0.42358(17) 0.00452(18)
C16_3 C 0.4923(2) 0.41553(19) 0.06917(18)
C20_3 C 0.46594(19) 0.36094(19) 0.09406(18)
H11_3 H 0.5083 0.4467 0.0960
C23_3 C 0.44172(17) 0.31532(17) 0.05534(18)
H15_3 H 0.4647 0.3553 0.1378
C25_3 C 0.4118(2) 0.2575(2) 0.0789(2)
H18_3 H 0.3874 0.2337 0.0509
N7_3 N 0.41723(15) 0.23821(16) 0.13460(16)
N9_3 N 0.38231(18) 0.18556(17) 0.14883(19)
Ag2_4 Ag 0.5000 0.2500 0.21270(2)
C27_3 C 0.3910(2) 0.1545(2) 0.2034(2)
H20_3 H 0.3543 0.1722 0.1223
N11_3 N 0.44130(16) 0.16708(17) 0.23917(18)
N12_3 N 0.58277(15) 0.26179(16) 0.13460(16)
N13_3 N 0.55870(16) 0.33292(17) 0.23917(18)
C29_3 C 0.3474(2) 0.1077(2) 0.2208(2)
C30_3 C 0.4492(2) 0.1330(3) 0.2910(2)
C31_3 C 0.5882(2) 0.2425(2) 0.0789(2)
N17_3 N 0.61769(18) 0.31444(17) 0.14883(19)
C32_3 C 0.6090(2) 0.3455(2) 0.2034(2)
C33_3 C 0.5508(2) 0.3670(3) 0.2910(2)
H22_3 H 0.3119 0.0997 0.1959
C36_3 C 0.3578(3) 0.0746(2) 0.2738(3)
Br2_3 Br 0.51963(3) 0.15423(4) 0.34009(3)
C37_3 C 0.4099(3) 0.0864(2) 0.3107(2)
C38_3 C 0.55828(17) 0.18468(17) 0.05534(18)
H23_3 H 0.6126 0.2663 0.0509
H24_3 H 0.6457 0.3278 0.1223
C39_3 C 0.6526(2) 0.3923(2) 0.2208(2)
Br3_3 Br 0.48037(3) 0.34577(4) 0.34009(3)
C40_3 C 0.5901(3) 0.4136(2) 0.3107(2)
H26_3 H 0.3293 0.0432 0.2858
H27_3 H 0.4179 0.0634 0.3475
C44_3 C 0.53406(19) 0.13906(19) 0.09406(18)
H28_3 H 0.6881 0.4003 0.1959
C45_3 C 0.6422(3) 0.4254(2) 0.2738(3)
H29_3 H 0.5821 0.4366 0.3475
H33_3 H 0.5353 0.1447 0.1378
C47_3 C 0.5077(2) 0.08447(19) 0.06917(18)
H34_3 H 0.6707 0.4568 0.2858
C48_3 C 0.50513(18) 0.07642(17) 0.00452(18)
H36_3 H 0.4917 0.0533 0.0960
C51_3 C 0.3762(2) 0.03397(19) 0.0281(2)
H37_3 H 0.3802 0.0777 0.0247
C55_3 C 0.32401(18) 0.00932(18) 0.05558(19)
H41_3 H 0.2936 0.0362 0.0728
Br1_3 Br 0.84577(4) 0.84009(3) 0.98037(3)
H9_3 H 0.5533 0.5960 0.9917
N4_3 N 0.52103(18) 0.47897(18) 0.97897(18)
C14_3 C 0.49548(18) 0.50513(18) 0.92358(17)
C15_3 C 0.4719(2) 0.3762(2) 0.96603(19)
C17_3 C 0.53397(19) 0.5281(2) 0.8762(2)
C18_3 C 0.43083(18) 0.5077(2) 0.91553(19)
H10_3 H 0.4753 0.3802 0.9223
C19_3 C 0.44442(19) 0.32401(18) 0.99068(18)
H12_3 H 0.5777 0.5247 0.8802
C21_3 C 0.50932(18) 0.55558(19) 0.82401(18)
C22_3 C 0.40594(18) 0.53406(19) 0.86094(19)
H13_3 H 0.4040 0.4917 0.9467
H14_3 H 0.4272 0.2936 0.9638
H16_3 H 0.5362 0.5728 0.7936
C24_3 C 0.44466(18) 0.55828(17) 0.81532(17)
H17_3 H 0.3622 0.5353 0.8553
C26_3 C 0.4211(2) 0.5882(2) 0.7575(2)
H19_3 H 0.4491 0.6126 0.7337
N8_3 N 0.36540(16) 0.58277(15) 0.73821(16)
N10_3 N 0.35117(19) 0.61769(18) 0.68556(17)
C28_3 C 0.2966(2) 0.6090(2) 0.6545(2)
H21_3 H 0.3777 0.6457 0.6722
N14_3 N 0.26083(18) 0.55870(16) 0.66708(17)
C34_3 C 0.2792(2) 0.6526(2) 0.6077(2)
C35_3 C 0.2090(2) 0.5508(2) 0.6330(3)
H25_3 H 0.3041 0.6881 0.5997
C41_3 C 0.2262(3) 0.6422(3) 0.5746(2)
Br4_3 Br 0.15991(3) 0.48037(3) 0.65423(4)
C42_3 C 0.1893(2) 0.5901(3) 0.5864(2)
C43_3 C 0.55558(19) 0.17599(18) 0.99068(18)
H30_3 H 0.2142 0.6707 0.5432
H31_3 H 0.1525 0.5821 0.5634
C46_3 C 0.5281(2) 0.1238(2) 0.96603(19)
H32_3 H 0.5728 0.2064 0.9638
H35_3 H 0.5247 0.1198 0.9223
N18_3 N 0.47897(18) 0.02103(18) 0.97897(18)
H40_3 H 0.5960 0.0083 0.9467
Br6_3 Br 0.84009(3) 0.01963(3) 0.65423(4)
C49_3 C 0.42358(17) 0.99548(18) 0.00513(18)
C52_3 C 0.41553(19) 0.93083(18) 0.0077(2)
C56_3 C 0.36094(19) 0.90594(18) 0.03406(19)
C59_3 C 0.31532(17) 0.94466(18) 0.05828(17)
H42_3 H 0.3553 0.8622 0.0353
C61_3 C 0.2575(2) 0.9211(2) 0.0882(2)
H45_3 H 0.2337 0.9491 0.1126
N21_3 N 0.18556(17) 0.85117(19) 0.11769(18)
C63_3 C 0.1545(2) 0.7966(2) 0.1090(2)
H47_3 H 0.1722 0.8777 0.1457
C65_3 C 0.1077(2) 0.7792(2) 0.1526(2)
C66_3 C 0.1330(3) 0.7090(2) 0.0508(2)
H49_3 H 0.0997 0.8041 0.1881
C69_3 C 0.0746(2) 0.7262(3) 0.1422(3)
C70_3 C 0.0864(2) 0.6893(2) 0.0901(3)
H51_3 H 0.0432 0.7142 0.1707
H52_3 H 0.0634 0.6525 0.0821
C50_3 C 0.50452(18) 0.99487(18) 0.92358(17)
C53_3 C 0.46603(19) 0.9719(2) 0.8762(2)
C54_3 C 0.56917(18) 0.9923(2) 0.91553(19)
H38_3 H 0.4467 0.9040 0.9917
H39_3 H 0.4223 0.9753 0.8802
C57_3 C 0.49068(18) 0.94442(19) 0.82401(18)
C58_3 C 0.59406(18) 0.96594(19) 0.86094(19)
H43_3 H 0.4638 0.9272 0.7936
C60_3 C 0.55534(18) 0.94172(17) 0.81532(17)
H44_3 H 0.6378 0.9647 0.8553
C62_3 C 0.5789(2) 0.9118(2) 0.7575(2)
H46_3 H 0.5509 0.8874 0.7337
N22_3 N 0.64883(19) 0.88231(18) 0.68556(17)
C64_3 C 0.7034(2) 0.8910(2) 0.6545(2)
H48_3 H 0.6223 0.8543 0.6722
C67_3 C 0.7208(2) 0.8474(2) 0.6077(2)
C68_3 C 0.7910(2) 0.9492(2) 0.6330(3)
Br5_3 Br 0.15423(4) 0.65991(3) 0.98037(3)
H50_3 H 0.6959 0.8119 0.5997
C71_3 C 0.7738(3) 0.8578(3) 0.5746(2)
C72_3 C 0.8107(2) 0.9099(3) 0.5864(2)
H53_3 H 0.7858 0.8293 0.5432
H54_3 H 0.8475 0.9179 0.5634
C49_4 C 0.07642(17) 0.00452(18) 0.50513(18)
C52_4 C 0.08447(19) 0.06917(18) 0.5077(2)
C53_4 C 0.03397(19) 0.0281(2) 0.3762(2)
C56_4 C 0.13906(19) 0.09406(18) 0.53406(19)
H38_4 H 0.0533 0.0960 0.4917
H39_4 H 0.0777 0.0247 0.3802
C57_4 C 0.00932(18) 0.05558(19) 0.32401(18)
C59_4 C 0.18468(17) 0.05534(18) 0.55828(17)
H42_4 H 0.1447 0.1378 0.5353
H43_4 H 0.0362 0.0728 0.2936
C61_4 C 0.2425(2) 0.0789(2) 0.5882(2)
H45_4 H 0.2663 0.0509 0.6126
N21_4 N 0.31444(17) 0.14883(19) 0.61769(18)
C63_4 C 0.3455(2) 0.2034(2) 0.6090(2)
H47_4 H 0.3278 0.1223 0.6457
C65_4 C 0.3923(2) 0.2208(2) 0.6526(2)
C66_4 C 0.3670(3) 0.2910(2) 0.5508(2)
H49_4 H 0.4003 0.1959 0.6881
C69_4 C 0.4254(2) 0.2738(3) 0.6422(3)
Br5_4 Br 0.34577(4) 0.34009(3) 0.48037(3)
C70_4 C 0.4136(2) 0.3107(2) 0.5901(3)
H51_4 H 0.4568 0.2858 0.6707
H52_4 H 0.4366 0.3475 0.5821
C13_4 C 0.00513(18) 0.57642(17) 0.50452(18)
C14_4 C 0.00452(18) 0.49487(18) 0.42358(17)
C15_4 C 0.0281(2) 0.6238(2) 0.46603(19)
C16_4 C 0.0077(2) 0.58447(19) 0.56917(18)
C18_4 C 0.06917(18) 0.4923(2) 0.41553(19)
H10_4 H 0.0247 0.6198 0.4223
C19_4 C 0.05558(19) 0.67599(18) 0.49068(18)
C20_4 C 0.03406(19) 0.63906(19) 0.59406(18)
C22_4 C 0.09406(18) 0.46594(19) 0.36094(19)
H13_4 H 0.0960 0.5083 0.4467
H14_4 H 0.0728 0.7064 0.4638
C23_4 C 0.05828(17) 0.68468(17) 0.55534(18)
H15_4 H 0.0353 0.6447 0.6378
C24_4 C 0.05534(18) 0.44172(17) 0.31532(17)
H17_4 H 0.1378 0.4647 0.3553
C25_4 C 0.0882(2) 0.7425(2) 0.5789(2)
C26_4 C 0.0789(2) 0.4118(2) 0.2575(2)
H18_4 H 0.1126 0.7663 0.5509
N7_4 N 0.08277(15) 0.76179(16) 0.63460(16)
H19_4 H 0.0509 0.3874 0.2337
N8_4 N 0.13460(16) 0.41723(15) 0.23821(16)
N9_4 N 0.11769(18) 0.81444(17) 0.64883(19)
Ag2_5 Ag 0.0000 0.7500 0.71270(2)
N10_4 N 0.14883(19) 0.38231(18) 0.18556(17)
C27_4 C 0.1090(2) 0.8455(2) 0.7034(2)
H20_4 H 0.1457 0.8278 0.6223
N11_4 N 0.05870(16) 0.83292(17) 0.73917(18)
C28_4 C 0.2034(2) 0.3910(2) 0.1545(2)
H21_4 H 0.1223 0.3543 0.1722
N14_4 N 0.23917(18) 0.44130(16) 0.16708(17)
C29_4 C 0.1526(2) 0.8923(2) 0.7208(2)
C30_4 C 0.0508(2) 0.8670(3) 0.7910(2)
C34_4 C 0.2208(2) 0.3474(2) 0.1077(2)
C35_4 C 0.2910(2) 0.4492(2) 0.1330(3)
H22_4 H 0.1881 0.9003 0.6959
C36_4 C 0.1422(3) 0.9254(2) 0.7738(3)
C37_4 C 0.0901(3) 0.9136(2) 0.8107(2)
Br3_4 Br 0.01963(3) 0.65423(4) 0.84009(3)
H25_4 H 0.1959 0.3119 0.0997
C41_4 C 0.2738(3) 0.3578(3) 0.0746(2)
Br4_4 Br 0.34009(3) 0.51963(3) 0.15423(4)
C42_4 C 0.3107(2) 0.4099(3) 0.0864(2)
H26_4 H 0.1707 0.9568 0.7858
H27_4 H 0.0821 0.9366 0.8475
H30_4 H 0.2858 0.3293 0.0432
H31_4 H 0.3475 0.4179 0.0634
H36_4 H 0.0083 0.9467 0.5960
N18_4 N 0.02103(18) 0.97897(18) 0.47897(18)
C51_4 C 0.1238(2) 0.96603(19) 0.5281(2)
H37_4 H 0.1198 0.9223 0.5247
C55_4 C 0.17599(18) 0.99068(18) 0.55558(19)
H41_4 H 0.2064 0.9638 0.5728
C50_4 C 0.99548(18) 0.00513(18) 0.42358(17)
C54_4 C 0.93083(18) 0.0077(2) 0.41553(19)
C58_4 C 0.90594(18) 0.03406(19) 0.36094(19)
C60_4 C 0.94466(18) 0.05828(17) 0.31532(17)
H44_4 H 0.8622 0.0353 0.3553
C62_4 C 0.9211(2) 0.0882(2) 0.2575(2)
H46_4 H 0.9491 0.1126 0.2337
N22_4 N 0.85117(19) 0.11769(18) 0.18556(17)
C64_4 C 0.7966(2) 0.1090(2) 0.1545(2)
H48_4 H 0.8777 0.1457 0.1722
C67_4 C 0.7792(2) 0.1526(2) 0.1077(2)
C68_4 C 0.7090(2) 0.0508(2) 0.1330(3)
H50_4 H 0.8041 0.1881 0.0997
C71_4 C 0.7262(3) 0.1422(3) 0.0746(2)
C72_4 C 0.6893(2) 0.0901(3) 0.0864(2)
H53_4 H 0.7142 0.1707 0.0432
H54_4 H 0.6525 0.0821 0.0634
N1_4 N 0.73821(16) 0.36540(16) 0.58277(15)
N2_4 N 0.66708(17) 0.26083(18) 0.55870(16)
C1_4 C 0.7575(2) 0.4211(2) 0.5882(2)
N3_4 N 0.68556(17) 0.35117(19) 0.61769(18)
C2_4 C 0.6545(2) 0.2966(2) 0.6090(2)
C3_4 C 0.6330(3) 0.2090(2) 0.5508(2)
C4_4 C 0.81532(17) 0.44466(18) 0.55828(17)
H1_4 H 0.7337 0.4491 0.6126
H2_4 H 0.6722 0.3777 0.6457
C5_4 C 0.6077(2) 0.2792(2) 0.6526(2)
Br1_4 Br 0.65423(4) 0.15991(3) 0.48037(3)
C6_4 C 0.5864(2) 0.1893(2) 0.5901(3)
C7_4 C 0.82401(18) 0.50932(18) 0.55558(19)
C8_4 C 0.86094(19) 0.40594(18) 0.53406(19)
H3_4 H 0.5997 0.3041 0.6881
C9_4 C 0.5746(2) 0.2262(3) 0.6422(3)
H4_4 H 0.5634 0.1525 0.5821
C10_4 C 0.8762(2) 0.53397(19) 0.5281(2)
H5_4 H 0.7936 0.5362 0.5728
H6_4 H 0.8553 0.3622 0.5353
C11_4 C 0.91553(19) 0.43083(18) 0.5077(2)
H7_4 H 0.5432 0.2142 0.6707
C12_4 C 0.92358(17) 0.49548(18) 0.50513(18)
H8_4 H 0.8802 0.5777 0.5247
H9_4 H 0.9467 0.4040 0.4917
N4_4 N 0.97897(18) 0.52103(18) 0.47897(18)
C17_4 C 0.96603(19) 0.4719(2) 0.3762(2)
H11_4 H 0.9917 0.5533 0.5960
H12_4 H 0.9223 0.4753 0.3802
C21_4 C 0.99068(18) 0.44442(19) 0.32401(18)
H16_4 H 0.9638 0.4272 0.2936
Ag2_6 Ag 1.0000 0.7500 0.71270(2)
N12_4 N 0.91723(15) 0.73821(16) 0.63460(16)
N13_4 N 0.94130(16) 0.66708(17) 0.73917(18)
C31_4 C 0.9118(2) 0.7575(2) 0.5789(2)
N17_4 N 0.88231(18) 0.68556(17) 0.64883(19)
C32_4 C 0.8910(2) 0.6545(2) 0.7034(2)
C33_4 C 0.9492(2) 0.6330(3) 0.7910(2)
Br2_4 Br 0.98037(3) 0.84577(4) 0.84009(3)
C38_4 C 0.94172(17) 0.81532(17) 0.55534(18)
H23_4 H 0.8874 0.7337 0.5509
H24_4 H 0.8543 0.6722 0.6223
C39_4 C 0.8474(2) 0.6077(2) 0.7208(2)
C40_4 C 0.9099(3) 0.5864(2) 0.8107(2)
C43_4 C 0.94442(19) 0.82401(18) 0.49068(18)
C44_4 C 0.96594(19) 0.86094(19) 0.59406(18)
H28_4 H 0.8119 0.5997 0.6959
C45_4 C 0.8578(3) 0.5746(2) 0.7738(3)
H29_4 H 0.9179 0.5634 0.8475
C46_4 C 0.9719(2) 0.8762(2) 0.46603(19)
H32_4 H 0.9272 0.7936 0.4638
H33_4 H 0.9647 0.8553 0.6378
C47_4 C 0.9923(2) 0.91553(19) 0.56917(18)
H34_4 H 0.8293 0.5432 0.7858
C48_4 C 0.99487(18) 0.92358(17) 0.50452(18)
H35_4 H 0.9753 0.8802 0.4223
H40_4 H 0.9040 0.9917 0.4467
Br6_4 Br 0.65991(3) 0.98037(3) 0.15423(4)
Cl1 Cl 0.0000 0.2500 0.18712(6)
O1 O 0.0238(2) 0.20069(19) 0.22527(19)
O2 O 0.0511(3) 0.2749(2) 0.1503(2)
Cl1_2 Cl 1.0000 0.2500 0.18712(6)
O3 O 0.9762(2) 0.29931(19) 0.22527(19)
O4 O 0.9489(3) 0.2251(2) 0.1503(2)
Cl1_3 Cl 0.5000 0.7500 0.68712(6)
O1_2 O 0.4762(2) 0.79931(19) 0.72527(19)
O2_2 O 0.4489(3) 0.7251(2) 0.6503(2)
O3_2 O 0.5238(2) 0.70069(19) 0.72527(19)
O4_2 O 0.5511(3) 0.7749(2) 0.6503(2)
Cl1_4 Cl 0.0000 0.7500 0.31288(6)
O3_3 O 0.0238(2) 0.79931(19) 0.27473(19)
O4_3 O 0.0511(3) 0.7251(2) 0.3497(2)
Cl1_5 Cl 1.0000 0.7500 0.31288(6)
O1_3 O 0.9762(2) 0.70069(19) 0.27473(19)
O2_3 O 0.9489(3) 0.7749(2) 0.3497(2)
Cl1_6 Cl 0.5000 0.2500 0.81288(6)
O1_4 O 0.5238(2) 0.29931(19) 0.77473(19)
O2_4 O 0.5511(3) 0.2251(2) 0.8497(2)
O3_4 O 0.4762(2) 0.20069(19) 0.77473(19)
O4_4 O 0.4489(3) 0.2749(2) 0.8497(2)
Cl1_7 Cl 0.18712(6) 0.0000 0.2500
O1_5 O 0.22527(19) 0.0238(2) 0.20069(19)
O2_5 O 0.1503(2) 0.0511(3) 0.2749(2)
Cl1_8 Cl 0.18712(6) 1.0000 0.2500
O3_5 O 0.22527(19) 0.9762(2) 0.29931(19)
O4_5 O 0.1503(2) 0.9489(3) 0.2251(2)
Cl1_9 Cl 0.68712(6) 0.5000 0.7500
O1_6 O 0.72527(19) 0.4762(2) 0.79931(19)
O2_6 O 0.6503(2) 0.4489(3) 0.7251(2)
O3_6 O 0.72527(19) 0.5238(2) 0.70069(19)
O4_6 O 0.6503(2) 0.5511(3) 0.7749(2)
Cl1_10 Cl 0.31288(6) 0.0000 0.7500
O3_7 O 0.27473(19) 0.0238(2) 0.79931(19)
O4_7 O 0.3497(2) 0.0511(3) 0.7251(2)
Cl1_11 Cl 0.31288(6) 1.0000 0.7500
O1_7 O 0.27473(19) 0.9762(2) 0.70069(19)
O2_7 O 0.3497(2) 0.9489(3) 0.7749(2)
Cl1_12 Cl 0.81288(6) 0.5000 0.2500
O1_8 O 0.77473(19) 0.5238(2) 0.29931(19)
O2_8 O 0.8497(2) 0.5511(3) 0.2251(2)
O3_8 O 0.77473(19) 0.4762(2) 0.20069(19)
O4_8 O 0.8497(2) 0.4489(3) 0.2749(2)
Cl1_13 Cl 0.2500 0.18712(6) 0.0000
O1_9 O 0.20069(19) 0.22527(19) 0.0238(2)
O2_9 O 0.2749(2) 0.1503(2) 0.0511(3)
Cl1_14 Cl 0.2500 0.18712(6) 1.0000
O3_9 O 0.29931(19) 0.22527(19) 0.9762(2)
O4_9 O 0.2251(2) 0.1503(2) 0.9489(3)
Cl1_15 Cl 0.7500 0.68712(6) 0.5000
O1_10 O 0.79931(19) 0.72527(19) 0.4762(2)
O2_10 O 0.7251(2) 0.6503(2) 0.4489(3)
O3_10 O 0.70069(19) 0.72527(19) 0.5238(2)
O4_10 O 0.7749(2) 0.6503(2) 0.5511(3)
Cl1_16 Cl 0.7500 0.31288(6) 0.0000
O3_11 O 0.79931(19) 0.27473(19) 0.0238(2)
O4_11 O 0.7251(2) 0.3497(2) 0.0511(3)
Cl1_17 Cl 0.7500 0.31288(6) 1.0000
O1_11 O 0.70069(19) 0.27473(19) 0.9762(2)
O2_11 O 0.7749(2) 0.3497(2) 0.9489(3)
Cl1_18 Cl 0.2500 0.81288(6) 0.5000
O1_12 O 0.29931(19) 0.77473(19) 0.5238(2)
O2_12 O 0.2251(2) 0.8497(2) 0.5511(3)
O3_12 O 0.20069(19) 0.77473(19) 0.4762(2)
O4_12 O 0.2749(2) 0.8497(2) 0.4489(3)
loop_
_geom_bond_atom_site_label_1
_geom_bond_atom_site_label_2
_geom_bond_site_symmetry_1
_geom_bond_site_symmetry_2
Ag1 N1 1_555 1_555
N1 C1 1_555 1_555
N2 Ag1 1_555 1_555
C1 C4 1_555 1_555
N3 N1 1_555 1_555
C2 N2 1_555 1_555
C3 N2 1_555 1_555
H1 C1 1_555 1_555
H2 N3 1_555 1_555
C5 C2 1_555 1_555
Br1 C3 1_555 1_555
C6 C3 1_555 1_555
C8 C4 1_555 1_555
H3 C5 1_555 1_555
C9 C5 1_555 1_555
H4 C6 1_555 1_555
H6 C8 1_555 1_555
C11 C8 1_555 1_555
H7 C9 1_555 1_555
C12 C11 1_555 1_555
H9 C11 1_555 1_555
N5 Ag1 1_555 1_555
N6 Ag1 1_555 1_555
C17 C14 1_555 1_555
C18 C14 1_555 1_555
H12 C17 1_555 1_555
C21 C17 1_555 1_555
C22 C18 1_555 1_555
H16 C21 1_555 1_555
C24 C21 1_555 1_555
H17 C22 1_555 1_555
C26 C24 1_555 1_555
H19 C26 1_555 1_555
N8 C26 1_555 1_555
N10 N8 1_555 1_555
Ag3 N8 1_555 1_555
C28 N10 1_555 1_555
H21 N10 1_555 1_555
N14 Ag3 1_555 1_555
C34 C28 1_555 1_555
C35 N14 1_555 1_555
H25 C34 1_555 1_555
C41 C34 1_555 1_555
C42 C35 1_555 1_555
H30 C41 1_555 1_555
H31 C42 1_555 1_555
N3 C2 1_555 1_555
C6 C9 1_555 1_555
C22 C24 1_555 1_555
C28 N14 1_555 1_555
C41 C42 1_555 1_555
C7 C10 1_555 1_555
H5 C7 1_555 1_555
H8 C10 1_555 1_555
C13 N4 1_555 1_555
C15 C13 1_555 1_555
C16 C13 1_555 1_555
H10 C15 1_555 1_555
C19 C15 1_555 1_555
C20 C16 1_555 1_555
H11 C16 1_555 1_555
H14 C19 1_555 1_555
C23 C19 1_555 1_555
H15 C20 1_555 1_555
C25 C23 1_555 1_555
H18 C25 1_555 1_555
N7 C25 1_555 1_555
N9 N7 1_555 1_555
Ag2 N7 1_555 1_555
C27 N9 1_555 1_555
H20 N9 1_555 1_555
N11 Ag2 1_555 1_555
N12 Ag2 1_555 1_555
N13 Ag2 1_555 1_555
N15 Ag3_2 1_555 1_555
N16 Ag3_2 1_555 1_555
C29 C27 1_555 1_555
C30 N11 1_555 1_555
C31 N12 1_555 1_555
N17 N12 1_555 1_555
C32 N13 1_555 1_555
C33 N13 1_555 1_555
H22 C29 1_555 1_555
C36 C29 1_555 1_555
Br2 C30 1_555 1_555
C37 C30 1_555 1_555
C38 C31 1_555 1_555
H23 C31 1_555 1_555
H24 N17 1_555 1_555
C39 C32 1_555 1_555
Br3 C33 1_555 1_555
C40 C33 1_555 1_555
H26 C36 1_555 1_555
H27 C37 1_555 1_555
C43 C38 1_555 1_555
C44 C38 1_555 1_555
H28 C39 1_555 1_555
C45 C39 1_555 1_555
H29 C40 1_555 1_555
C46 C43 1_555 1_555
H32 C43 1_555 1_555
H33 C44 1_555 1_555
C47 C44 1_555 1_555
H34 C45 1_555 1_555
C48 C46 1_555 1_555
H35 C46 1_555 1_555
H36 C47 1_555 1_555
N18 C48 1_555 1_555
C49 N18 1_555 1_555
C50 N18 1_555 1_555
C51 C49 1_555 1_555
C52 C49 1_555 1_555
C53 C50 1_555 1_555
C54 C50 1_555 1_555
H37 C51 1_555 1_555
C55 C51 1_555 1_555
C56 C52 1_555 1_555
H38 C52 1_555 1_555
H39 C53 1_555 1_555
C57 C53 1_555 1_555
C58 C54 1_555 1_555
H40 C54 1_555 1_555
H41 C55 1_555 1_555
C59 C55 1_555 1_555
H42 C56 1_555 1_555
H43 C57 1_555 1_555
C60 C57 1_555 1_555
H44 C58 1_555 1_555
C61 C59 1_555 1_555
C62 C60 1_555 1_555
H45 C61 1_555 1_555
N19 C61 1_555 1_555
H46 C62 1_555 1_555
N20 C62 1_555 1_555
N21 N19 1_555 1_555
Ag4 N19 1_555 1_555
N22 N20 1_555 1_555
Ag5 N20 1_555 1_555
C63 N21 1_555 1_555
H47 N21 1_555 1_555
N23 Ag4 1_555 1_555
C64 N22 1_555 1_555
H48 N22 1_555 1_555
N24 Ag5 1_555 1_555
C65 C63 1_555 1_555
C66 N23 1_555 1_555
C67 C64 1_555 1_555
C68 N24 1_555 1_555
H49 C65 1_555 1_555
C69 C65 1_555 1_555
Br5 C66 1_555 1_555
C70 C66 1_555 1_555
H50 C67 1_555 1_555
C71 C67 1_555 1_555
Br6 C68 1_555 1_555
C72 C68 1_555 1_555
H51 C69 1_555 1_555
H52 C70 1_555 1_555
H53 C71 1_555 1_555
H54 C72 1_555 1_555
C20 C23 1_555 1_555
C27 N11 1_555 1_555
N17 C32 1_555 1_555
C36 C37 1_555 1_555
C40 C45 1_555 1_555
C47 C48 1_555 1_555
C56 C59 1_555 1_555
C58 C60 1_555 1_555
C63 N23 1_555 1_555
C64 N24 1_555 1_555
C69 C70 1_555 1_555
C71 C72 1_555 1_555
C46_2 C43_2 1_555 1_555
H32_2 C43_2 1_555 1_555
H35_2 C46_2 1_555 1_555
C54_2 C50_2 1_555 1_555
C58_2 C54_2 1_555 1_555
H40_2 C54_2 1_555 1_555
H44_2 C58_2 1_555 1_555
C62_2 C60_2 1_555 1_555
H46_2 C62_2 1_555 1_555
N20_2 C62_2 1_555 1_555
N22_2 N20_2 1_555 1_555
Ag5_2 N20_2 1_555 1_555
C64_2 N22_2 1_555 1_555
H48_2 N22_2 1_555 1_555
N24_2 Ag5_2 1_555 1_555
C67_2 C64_2 1_555 1_555
C68_2 N24_2 1_555 1_555
H50_2 C67_2 1_555 1_555
C71_2 C67_2 1_555 1_555
Br6_2 C68_2 1_555 1_555
C72_2 C68_2 1_555 1_555
H53_2 C71_2 1_555 1_555
H54_2 C72_2 1_555 1_555
C58_2 C60_2 1_555 1_555
C64_2 N24_2 1_555 1_555
C71_2 C72_2 1_555 1_555
C7_2 C10_2 1_555 1_555
H5_2 C7_2 1_555 1_555
H8_2 C10_2 1_555 1_555
N12_2 Ag2_2 1_555 1_555
N13_2 Ag2_2 1_555 1_555
C31_2 N12_2 1_555 1_555
N17_2 N12_2 1_555 1_555
C32_2 N13_2 1_555 1_555
C33_2 N13_2 1_555 1_555
C38_2 C31_2 1_555 1_555
H23_2 C31_2 1_555 1_555
H24_2 N17_2 1_555 1_555
C39_2 C32_2 1_555 1_555
C40_2 C33_2 1_555 1_555
C44_2 C38_2 1_555 1_555
H28_2 C39_2 1_555 1_555
C45_2 C39_2 1_555 1_555
H29_2 C40_2 1_555 1_555
H33_2 C44_2 1_555 1_555
C47_2 C44_2 1_555 1_555
H34_2 C45_2 1_555 1_555
N17_2 C32_2 1_555 1_555
C40_2 C45_2 1_555 1_555
C47_2 C48_2 1_555 1_555
N5_2 Ag1_2 1_555 1_555
N6_2 Ag1_2 1_555 1_555
H12_2 C17_2 1_555 1_555
C21_2 C17_2 1_555 1_555
H16_2 C21_2 1_555 1_555
Ag1_3 N1_2 1_555 1_555
N1_2 C1_2 1_555 1_555
N2_2 Ag1_3 1_555 1_555
C1_2 C4_2 1_555 1_555
N3_2 N1_2 1_555 1_555
C2_2 N2_2 1_555 1_555
C3_2 N2_2 1_555 1_555
H1_2 C1_2 1_555 1_555
H2_2 N3_2 1_555 1_555
C5_2 C2_2 1_555 1_555
C6_2 C3_2 1_555 1_555
C8_2 C4_2 1_555 1_555
H3_2 C5_2 1_555 1_555
C9_2 C5_2 1_555 1_555
H4_2 C6_2 1_555 1_555
H6_2 C8_2 1_555 1_555
C11_2 C8_2 1_555 1_555
H7_2 C9_2 1_555 1_555
C12_2 C11_2 1_555 1_555
N3_2 C2_2 1_555 1_555
C6_2 C9_2 1_555 1_555
H10_2 C15_2 1_555 1_555
C19_2 C15_2 1_555 1_555
H14_2 C19_2 1_555 1_555
N15_2 Ag3_3 1_555 1_555
N16_2 Ag3_3 1_555 1_555
H39_2 C53_2 1_555 1_555
C57_2 C53_2 1_555 1_555
H43_2 C57_2 1_555 1_555
C16_2 C13_2 1_555 1_555
C20_2 C16_2 1_555 1_555
H15_2 C20_2 1_555 1_555
C25_2 C23_2 1_555 1_555
H18_2 C25_2 1_555 1_555
N7_2 C25_2 1_555 1_555
N9_2 N7_2 1_555 1_555
Ag2_3 N7_2 1_555 1_555
C27_2 N9_2 1_555 1_555
H20_2 N9_2 1_555 1_555
N11_2 Ag2_3 1_555 1_555
C29_2 C27_2 1_555 1_555
C30_2 N11_2 1_555 1_555
H22_2 C29_2 1_555 1_555
C36_2 C29_2 1_555 1_555
C37_2 C30_2 1_555 1_555
H26_2 C36_2 1_555 1_555
H27_2 C37_2 1_555 1_555
C51_2 C49_2 1_555 1_555
C52_2 C49_2 1_555 1_555
H37_2 C51_2 1_555 1_555
C55_2 C51_2 1_555 1_555
C56_2 C52_2 1_555 1_555
H41_2 C55_2 1_555 1_555
C59_2 C55_2 1_555 1_555
H42_2 C56_2 1_555 1_555
C61_2 C59_2 1_555 1_555
H45_2 C61_2 1_555 1_555
N19_2 C61_2 1_555 1_555
N21_2 N19_2 1_555 1_555
Ag4_3 N19_2 1_555 1_555
C63_2 N21_2 1_555 1_555
H47_2 N21_2 1_555 1_555
N23_2 Ag4_3 1_555 1_555
C65_2 C63_2 1_555 1_555
C66_2 N23_2 1_555 1_555
H49_2 C65_2 1_555 1_555
C69_2 C65_2 1_555 1_555
C70_2 C66_2 1_555 1_555
H51_2 C69_2 1_555 1_555
H52_2 C70_2 1_555 1_555
C20_2 C23_2 1_555 1_555
C27_2 N11_2 1_555 1_555
C36_2 C37_2 1_555 1_555
C56_2 C59_2 1_555 1_555
C63_2 N23_2 1_555 1_555
C69_2 C70_2 1_555 1_555
C18_2 C14_2 1_555 1_555
C22_2 C18_2 1_555 1_555
H17_2 C22_2 1_555 1_555
C26_2 C24_2 1_555 1_555
H19_2 C26_2 1_555 1_555
N8_2 C26_2 1_555 1_555
N10_2 N8_2 1_555 1_555
Ag3_4 N8_2 1_555 1_555
C28_2 N10_2 1_555 1_555
H21_2 N10_2 1_555 1_555
N14_2 Ag3_4 1_555 1_555
C34_2 C28_2 1_555 1_555
C35_2 N14_2 1_555 1_555
H25_2 C34_2 1_555 1_555
C41_2 C34_2 1_555 1_555
C42_2 C35_2 1_555 1_555
H30_2 C41_2 1_555 1_555
H31_2 C42_2 1_555 1_555
C22_2 C24_2 1_555 1_555
C28_2 N14_2 1_555 1_555
C41_2 C42_2 1_555 1_555
Ag4_2 N1_3 1_555 1_555
N1_3 C1_3 1_555 1_555
N2_3 Ag4_2 1_555 1_555
C1_3 C4_3 1_555 1_555
N3_3 N1_3 1_555 1_555
C2_3 N2_3 1_555 1_555
C3_3 N2_3 1_555 1_555
C4_3 C7_3 1_555 1_555
H1_3 C1_3 1_555 1_555
H2_3 N3_3 1_555 1_555
C5_3 C2_3 1_555 1_555
C6_3 C3_3 1_555 1_555
C7_3 C10_3 1_555 1_555
C8_3 C4_3 1_555 1_555
H3_3 C5_3 1_555 1_555
C9_3 C5_3 1_555 1_555
H4_3 C6_3 1_555 1_555
C10_3 C12_3 1_555 1_555
H5_3 C7_3 1_555 1_555
H6_3 C8_3 1_555 1_555
C11_3 C8_3 1_555 1_555
H7_3 C9_3 1_555 1_555
C12_3 C11_3 1_555 1_555
H8_3 C10_3 1_555 1_555
C16_3 C13_3 1_555 1_555
C20_3 C16_3 1_555 1_555
H11_3 C16_3 1_555 1_555
H15_3 C20_3 1_555 1_555
C25_3 C23_3 1_555 1_555
H18_3 C25_3 1_555 1_555
N7_3 C25_3 1_555 1_555
N9_3 N7_3 1_555 1_555
Ag2_4 N7_3 1_555 1_555
C27_3 N9_3 1_555 1_555
H20_3 N9_3 1_555 1_555
N11_3 Ag2_4 1_555 1_555
N12_3 Ag2_4 1_555 1_555
N13_3 Ag2_4 1_555 1_555
C29_3 C27_3 1_555 1_555
C30_3 N11_3 1_555 1_555
C31_3 N12_3 1_555 1_555
N17_3 N12_3 1_555 1_555
C32_3 N13_3 1_555 1_555
C33_3 N13_3 1_555 1_555
H22_3 C29_3 1_555 1_555
C36_3 C29_3 1_555 1_555
Br2_3 C30_3 1_555 1_555
C37_3 C30_3 1_555 1_555
C38_3 C31_3 1_555 1_555
H23_3 C31_3 1_555 1_555
H24_3 N17_3 1_555 1_555
C39_3 C32_3 1_555 1_555
Br3_3 C33_3 1_555 1_555
C40_3 C33_3 1_555 1_555
H26_3 C36_3 1_555 1_555
H27_3 C37_3 1_555 1_555
C44_3 C38_3 1_555 1_555
H28_3 C39_3 1_555 1_555
C45_3 C39_3 1_555 1_555
H29_3 C40_3 1_555 1_555
H33_3 C44_3 1_555 1_555
C47_3 C44_3 1_555 1_555
H34_3 C45_3 1_555 1_555
H36_3 C47_3 1_555 1_555
H37_3 C51_3 1_555 1_555
C55_3 C51_3 1_555 1_555
H41_3 C55_3 1_555 1_555
N3_3 C2_3 1_555 1_555
C6_3 C9_3 1_555 1_555
C20_3 C23_3 1_555 1_555
C27_3 N11_3 1_555 1_555
N17_3 C32_3 1_555 1_555
C36_3 C37_3 1_555 1_555
C40_3 C45_3 1_555 1_555
C47_3 C48_3 1_555 1_555
C14_3 N4_3 1_555 1_555
C17_3 C14_3 1_555 1_555
C18_3 C14_3 1_555 1_555
H10_3 C15_3 1_555 1_555
C19_3 C15_3 1_555 1_555
H12_3 C17_3 1_555 1_555
C21_3 C17_3 1_555 1_555
C22_3 C18_3 1_555 1_555
H13_3 C18_3 1_555 1_555
H14_3 C19_3 1_555 1_555
H16_3 C21_3 1_555 1_555
C24_3 C21_3 1_555 1_555
H17_3 C22_3 1_555 1_555
C26_3 C24_3 1_555 1_555
H19_3 C26_3 1_555 1_555
N8_3 C26_3 1_555 1_555
N10_3 N8_3 1_555 1_555
Ag5 N8_3 1_555 1_555
C28_3 N10_3 1_555 1_555
H21_3 N10_3 1_555 1_555
N14_3 Ag5 1_555 1_555
C34_3 C28_3 1_555 1_555
C35_3 N14_3 1_555 1_555
H25_3 C34_3 1_555 1_555
C41_3 C34_3 1_555 1_555
Br4_3 C35_3 1_555 1_555
C42_3 C35_3 1_555 1_555
H30_3 C41_3 1_555 1_555
H31_3 C42_3 1_555 1_555
C46_3 C43_3 1_555 1_555
H32_3 C43_3 1_555 1_555
H35_3 C46_3 1_555 1_555
C22_3 C24_3 1_555 1_555
C28_3 N14_3 1_555 1_555
C41_3 C42_3 1_555 1_555
C52_3 C49_3 1_555 1_555
C56_3 C52_3 1_555 1_555
H42_3 C56_3 1_555 1_555
C61_3 C59_3 1_555 1_555
H45_3 C61_3 1_555 1_555
N5_2 C61_3 1_555 1_555
N21_3 N5_2 1_555 1_555
C63_3 N21_3 1_555 1_555
H47_3 N21_3 1_555 1_555
C65_3 C63_3 1_555 1_555
C66_3 N6_2 1_555 1_555
H49_3 C65_3 1_555 1_555
C69_3 C65_3 1_555 1_555
C70_3 C66_3 1_555 1_555
H51_3 C69_3 1_555 1_555
H52_3 C70_3 1_555 1_555
C56_3 C59_3 1_555 1_555
C63_3 N6_2 1_555 1_555
C69_3 C70_3 1_555 1_555
C53_3 C50_3 1_555 1_555
C54_3 C50_3 1_555 1_555
H39_3 C53_3 1_555 1_555
C57_3 C53_3 1_555 1_555
C58_3 C54_3 1_555 1_555
H43_3 C57_3 1_555 1_555
C60_3 C57_3 1_555 1_555
H44_3 C58_3 1_555 1_555
C62_3 C60_3 1_555 1_555
H46_3 C62_3 1_555 1_555
N15 C62_3 1_555 1_555
N22_3 N15 1_555 1_555
C64_3 N22_3 1_555 1_555
H48_3 N22_3 1_555 1_555
C67_3 C64_3 1_555 1_555
C68_3 N16 1_555 1_555
H50_3 C67_3 1_555 1_555
C71_3 C67_3 1_555 1_555
C72_3 C68_3 1_555 1_555
H53_3 C71_3 1_555 1_555
H54_3 C72_3 1_555 1_555
C58_3 C60_3 1_555 1_555
C64_3 N16 1_555 1_555
C71_3 C72_3 1_555 1_555
C52_4 C49_4 1_555 1_555
C56_4 C52_4 1_555 1_555
H38_4 C52_4 1_555 1_555
H39_4 C53_4 1_555 1_555
C57_4 C53_4 1_555 1_555
H42_4 C56_4 1_555 1_555
H43_4 C57_4 1_555 1_555
C61_4 C59_4 1_555 1_555
H45_4 C61_4 1_555 1_555
N5 C61_4 1_555 1_555
N21_4 N5 1_555 1_555
C63_4 N21_4 1_555 1_555
H47_4 N21_4 1_555 1_555
C65_4 C63_4 1_555 1_555
C66_4 N6 1_555 1_555
H49_4 C65_4 1_555 1_555
C69_4 C65_4 1_555 1_555
Br5_4 C66_4 1_555 1_555
C70_4 C66_4 1_555 1_555
H51_4 C69_4 1_555 1_555
H52_4 C70_4 1_555 1_555
C56_4 C59_4 1_555 1_555
C63_4 N6 1_555 1_555
C69_4 C70_4 1_555 1_555
C15_4 C13_4 1_555 1_555
C16_4 C13_4 1_555 1_555
C18_4 C14_4 1_555 1_555
H10_4 C15_4 1_555 1_555
C19_4 C15_4 1_555 1_555
C20_4 C16_4 1_555 1_555
C22_4 C18_4 1_555 1_555
H13_4 C18_4 1_555 1_555
H14_4 C19_4 1_555 1_555
C23_4 C19_4 1_555 1_555
H15_4 C20_4 1_555 1_555
H17_4 C22_4 1_555 1_555
C25_4 C23_4 1_555 1_555
C26_4 C24_4 1_555 1_555
H18_4 C25_4 1_555 1_555
N7_4 C25_4 1_555 1_555
H19_4 C26_4 1_555 1_555
N8_4 C26_4 1_555 1_555
N9_4 N7_4 1_555 1_555
Ag2_5 N7_4 1_555 1_555
N10_4 N8_4 1_555 1_555
Ag5_2 N8_4 1_555 1_555
C27_4 N9_4 1_555 1_555
H20_4 N9_4 1_555 1_555
N11_4 Ag2_5 1_555 1_555
C28_4 N10_4 1_555 1_555
H21_4 N10_4 1_555 1_555
N14_4 Ag5_2 1_555 1_555
C29_4 C27_4 1_555 1_555
C30_4 N11_4 1_555 1_555
C34_4 C28_4 1_555 1_555
C35_4 N14_4 1_555 1_555
H22_4 C29_4 1_555 1_555
C36_4 C29_4 1_555 1_555
C37_4 C30_4 1_555 1_555
H25_4 C34_4 1_555 1_555
C41_4 C34_4 1_555 1_555
Br4_4 C35_4 1_555 1_555
C42_4 C35_4 1_555 1_555
H26_4 C36_4 1_555 1_555
H27_4 C37_4 1_555 1_555
H30_4 C41_4 1_555 1_555
H31_4 C42_4 1_555 1_555
H37_4 C51_4 1_555 1_555
C55_4 C51_4 1_555 1_555
H41_4 C55_4 1_555 1_555
C20_4 C23_4 1_555 1_555
C22_4 C24_4 1_555 1_555
C27_4 N11_4 1_555 1_555
C28_4 N14_4 1_555 1_555
C36_4 C37_4 1_555 1_555
C41_4 C42_4 1_555 1_555
C54_4 C50_4 1_555 1_555
C58_4 C54_4 1_555 1_555
H44_4 C58_4 1_555 1_555
C62_4 C60_4 1_555 1_555
H46_4 C62_4 1_555 1_555
N15_2 C62_4 1_555 1_555
N22_4 N15_2 1_555 1_555
C64_4 N22_4 1_555 1_555
H48_4 N22_4 1_555 1_555
C67_4 C64_4 1_555 1_555
C68_4 N16_2 1_555 1_555
H50_4 C67_4 1_555 1_555
C71_4 C67_4 1_555 1_555
C72_4 C68_4 1_555 1_555
H53_4 C71_4 1_555 1_555
H54_4 C72_4 1_555 1_555
C58_4 C60_4 1_555 1_555
C64_4 N16_2 1_555 1_555
C71_4 C72_4 1_555 1_555
Ag4 N1_4 1_555 1_555
N1_4 C1_4 1_555 1_555
N2_4 Ag4 1_555 1_555
C1_4 C4_4 1_555 1_555
N3_4 N1_4 1_555 1_555
C2_4 N2_4 1_555 1_555
C3_4 N2_4 1_555 1_555
C4_4 C7_4 1_555 1_555
H1_4 C1_4 1_555 1_555
H2_4 N3_4 1_555 1_555
C5_4 C2_4 1_555 1_555
Br1_4 C3_4 1_555 1_555
C6_4 C3_4 1_555 1_555
C7_4 C10_4 1_555 1_555
C8_4 C4_4 1_555 1_555
H3_4 C5_4 1_555 1_555
C9_4 C5_4 1_555 1_555
H4_4 C6_4 1_555 1_555
C10_4 C12_4 1_555 1_555
H5_4 C7_4 1_555 1_555
H6_4 C8_4 1_555 1_555
C11_4 C8_4 1_555 1_555
H7_4 C9_4 1_555 1_555
C12_4 C11_4 1_555 1_555
H8_4 C10_4 1_555 1_555
H9_4 C11_4 1_555 1_555
N4_4 C12_4 1_555 1_555
H12_4 C17_4 1_555 1_555
C21_4 C17_4 1_555 1_555
H16_4 C21_4 1_555 1_555
N12_4 Ag2_6 1_555 1_555
N13_4 Ag2_6 1_555 1_555
C31_4 N12_4 1_555 1_555
N17_4 N12_4 1_555 1_555
C32_4 N13_4 1_555 1_555
C33_4 N13_4 1_555 1_555
C38_4 C31_4 1_555 1_555
H23_4 C31_4 1_555 1_555
H24_4 N17_4 1_555 1_555
C39_4 C32_4 1_555 1_555
C40_4 C33_4 1_555 1_555
C43_4 C38_4 1_555 1_555
C44_4 C38_4 1_555 1_555
H28_4 C39_4 1_555 1_555
C45_4 C39_4 1_555 1_555
H29_4 C40_4 1_555 1_555
C46_4 C43_4 1_555 1_555
H32_4 C43_4 1_555 1_555
H33_4 C44_4 1_555 1_555
C47_4 C44_4 1_555 1_555
H34_4 C45_4 1_555 1_555
C48_4 C46_4 1_555 1_555
H35_4 C46_4 1_555 1_555
N3_4 C2_4 1_555 1_555
C6_4 C9_4 1_555 1_555
N17_4 C32_4 1_555 1_555
C40_4 C45_4 1_555 1_555
C47_4 C48_4 1_555 1_555
Cl1 O1 1_555 1_555
O2 Cl1 1_555 1_555
O3 Cl1_2 1_555 1_555
O4 Cl1_2 1_555 1_555
Cl1_3 O1_2 1_555 1_555
O2_2 Cl1_3 1_555 1_555
O3_2 Cl1_3 1_555 1_555
O4_2 Cl1_3 1_555 1_555
O3_3 Cl1_4 1_555 1_555
O4_3 Cl1_4 1_555 1_555
Cl1_5 O1_3 1_555 1_555
O2_3 Cl1_5 1_555 1_555
Cl1_6 O1_4 1_555 1_555
O2_4 Cl1_6 1_555 1_555
O3_4 Cl1_6 1_555 1_555
O4_4 Cl1_6 1_555 1_555
Cl1_7 O1_5 1_555 1_555
O2_5 Cl1_7 1_555 1_555
O3_5 Cl1_8 1_555 1_555
O4_5 Cl1_8 1_555 1_555
Cl1_9 O1_6 1_555 1_555
O2_6 Cl1_9 1_555 1_555
O3_6 Cl1_9 1_555 1_555
O4_6 Cl1_9 1_555 1_555
O3_7 Cl1_10 1_555 1_555
O4_7 Cl1_10 1_555 1_555
Cl1_11 O1_7 1_555 1_555
O2_7 Cl1_11 1_555 1_555
Cl1_12 O1_8 1_555 1_555
O2_8 Cl1_12 1_555 1_555
O3_8 Cl1_12 1_555 1_555
O4_8 Cl1_12 1_555 1_555
Cl1_13 O1_9 1_555 1_555
O2_9 Cl1_13 1_555 1_555
O3_9 Cl1_14 1_555 1_555
O4_9 Cl1_14 1_555 1_555
Cl1_15 O1_10 1_555 1_555
O2_10 Cl1_15 1_555 1_555
O3_10 Cl1_15 1_555 1_555
O4_10 Cl1_15 1_555 1_555
O3_11 Cl1_16 1_555 1_555
O4_11 Cl1_16 1_555 1_555
Cl1_17 O1_11 1_555 1_555
O2_11 Cl1_17 1_555 1_555
Cl1_18 O1_12 1_555 1_555
O2_12 Cl1_18 1_555 1_555
O3_12 Cl1_18 1_555 1_555
O4_12 Cl1_18 1_555 1_555

#END
