
###############################################################################
#
# This file contains modified crystal structure data generated from the
# MOF subset of the Cambridge Structural Database (CSD) v543 
# hosted by the Cambridge Crystallographic Data Centre (CCDC).
#
# This work is licensed under the Creative Commons
# Attribution-NonCommercial-ShareAlike 4.0 International License.
# To view a copy of this license, visit
# http://creativecommons.org/licenses/by-nc-sa/4.0/
# or send a letter to
# Creative Commons, PO Box 1866, Mountain View, CA 94042, USA.
#
# CIF created using the CSD Python API on 29 September 2022
# The structure has been converted into the P1 space group
# The structure has a 3D framework
# The original CSD entry KENTEF02 is in the cubic crystal system
# The original CSD entry KENTEF02 is in a Sohncke space group
# The framework has been calculated to contain at least 10.0% void space
# The void calculation uses a probe of radius 1.32A, grid spacing 0.4
# The framework is charged, counterions have been retained in the structure
#
###############################################################################

data_KENTEF02
_chemical_formula_moiety         '(C288 H216 Ag14 Br24 Cl18 N80 O48 2+)n'
_symmetry_cell_setting           triclinic
_symmetry_space_group_name_H-M   'P 1'
_symmetry_Int_Tables_number      1
_space_group_name_Hall           'P 1'
loop_
_symmetry_equiv_pos_site_id
_symmetry_equiv_pos_as_xyz
1 x,y,z
_cell_length_a                   21.3189(3)
_cell_length_b                   21.3189(3)
_cell_length_c                   21.3189(3)
_cell_angle_alpha                90
_cell_angle_beta                 90
_cell_angle_gamma                90
_cell_volume                     9689.34
loop_
_atom_site_label
_atom_site_type_symbol
_atom_site_fract_x
_atom_site_fract_y
_atom_site_fract_z
Ag1 Ag 0.2500 0.21262(2) 0.5000
Br1 Br 0.15422(4) 0.34002(3) 0.51962(3)
C1 C 0.42350(17) 0.00464(18) 0.49474(18)
C4 C 0.31541(17) 0.05557(18) 0.44159(17)
C5 C 0.36082(19) 0.09408(18) 0.46607(18)
H3 H 0.3551 0.1378 0.4652
C6 C 0.41537(19) 0.06927(18) 0.4922(2)
H4 H 0.4465 0.0961 0.5080
C7 C 0.2576(2) 0.0789(2) 0.41167(19)
H5 H 0.2340 0.0509 0.3871
C8 C 0.1544(2) 0.2031(2) 0.39098(19)
C9 C 0.1079(2) 0.2206(2) 0.3470(2)
H6 H 0.1000 0.1959 0.3114
C10 C 0.0748(2) 0.2741(3) 0.3576(3)
H7 H 0.0435 0.2864 0.3290
C11 C 0.0865(2) 0.3103(2) 0.4095(3)
H8 H 0.0634 0.3470 0.4175
C12 C 0.1334(2) 0.2911(2) 0.4493(2)
N2 N 0.23802(16) 0.13458(16) 0.41718(15)
N3 N 0.18566(17) 0.14876(18) 0.38225(18)
H9 H 0.1725 0.1223 0.3541
N4 N 0.16716(17) 0.23921(17) 0.44143(16)
C25 C 0.50464(18) 0.00526(18) 0.57650(17)
C26 C 0.46599(18) 0.0283(2) 0.6238(2)
H19 H 0.4222 0.0249 0.6197
C27 C 0.49062(18) 0.05565(19) 0.67579(18)
H20 H 0.4637 0.0729 0.7062
C28 C 0.55557(18) 0.05841(17) 0.68459(17)
C29 C 0.59408(18) 0.03393(18) 0.63918(19)
H21 H 0.6378 0.0348 0.6449
C30 C 0.56927(18) 0.0078(2) 0.58463(19)
C31 C 0.5789(2) 0.08833(19) 0.7424(2)
H23 H 0.5509 0.1129 0.7660
C32 C 0.7031(2) 0.10902(19) 0.8456(2)
C33 C 0.7206(2) 0.1530(2) 0.8921(2)
H24 H 0.6959 0.1886 0.9000
C34 C 0.7741(3) 0.1424(3) 0.9252(2)
H25 H 0.7864 0.1710 0.9565
C35 C 0.8103(2) 0.0905(3) 0.9135(2)
H26 H 0.8470 0.0825 0.9366
C36 C 0.7911(2) 0.0507(2) 0.8666(2)
N8 N 0.63458(16) 0.08282(15) 0.76198(16)
N9 N 0.64876(18) 0.11775(18) 0.81434(17)
H27 H 0.6223 0.1459 0.8275
N10 N 0.73921(17) 0.05857(16) 0.83284(17)
Ag3 Ag 0.71262(2) -0.0000 0.7500
N21 N 0.26198(16) 0.13458(16) 0.58282(15)
N23 N 0.33284(17) 0.23921(17) 0.55857(16)
C2 C 0.3762(2) 0.96599(18) 0.4717(2)
H1 H 0.3803 0.9222 0.4751
C3 C 0.32421(18) 0.99062(18) 0.44435(19)
H2 H 0.2938 0.9637 0.4271
N1 N 0.47903(19) 0.97903(19) 0.52097(19)
Br2 Br 0.48038(3) 0.65422(4) 0.15998(3)
C13 C 0.50526(18) 0.92350(17) 0.49536(18)
C14 C 0.5283(2) 0.8762(2) 0.53401(18)
H10 H 0.5249 0.8803 0.5778
C15 C 0.55565(19) 0.82421(18) 0.50938(18)
H11 H 0.5729 0.7938 0.5363
C16 C 0.55841(17) 0.81541(17) 0.44443(18)
C17 C 0.53393(18) 0.86082(19) 0.40592(18)
H12 H 0.5348 0.8551 0.3622
C18 C 0.5078(2) 0.91537(19) 0.43073(18)
H13 H 0.4920 0.9465 0.4039
C19 C 0.58833(19) 0.7576(2) 0.4211(2)
H14 H 0.6129 0.7340 0.4491
C20 C 0.60902(19) 0.6544(2) 0.2969(2)
C21 C 0.6530(2) 0.6079(2) 0.2794(2)
H15 H 0.6886 0.6000 0.3041
C22 C 0.6424(3) 0.5748(2) 0.2259(3)
H16 H 0.6710 0.5435 0.2136
C23 C 0.5905(3) 0.5865(2) 0.1897(2)
H17 H 0.5825 0.5634 0.1530
C24 C 0.5507(2) 0.6334(2) 0.2089(2)
N5 N 0.58282(15) 0.73802(16) 0.36542(16)
N6 N 0.61775(18) 0.68566(17) 0.35124(18)
H18 H 0.6459 0.6725 0.3777
N7 N 0.55857(16) 0.66716(17) 0.26079(17)
Br3 Br 0.84002(3) 0.98038(3) 0.84578(4)
H22 H 0.5961 0.9920 0.5535
Ag2 Ag 0.5000 0.7500 0.28738(2)
Ag3_2 Ag 0.71262(2) 1.0000 0.7500
Br4 Br 0.84578(4) 0.15998(3) 0.51962(3)
C37 C 0.57650(17) 0.49536(18) 0.49474(18)
C38 C 0.6238(2) 0.53401(18) 0.4717(2)
H28 H 0.6197 0.5778 0.4751
C39 C 0.67579(18) 0.50938(18) 0.44435(19)
H29 H 0.7062 0.5363 0.4271
C40 C 0.68459(17) 0.44443(18) 0.44159(17)
C41 C 0.63918(19) 0.40592(18) 0.46607(18)
H30 H 0.6449 0.3622 0.4652
C42 C 0.58463(19) 0.43073(18) 0.4922(2)
H31 H 0.5535 0.4039 0.5080
C43 C 0.7424(2) 0.4211(2) 0.41167(19)
H32 H 0.7660 0.4491 0.3871
C44 C 0.8456(2) 0.2969(2) 0.39098(19)
C45 C 0.8921(2) 0.2794(2) 0.3470(2)
H33 H 0.9000 0.3041 0.3114
C46 C 0.9252(2) 0.2259(3) 0.3576(3)
H34 H 0.9565 0.2136 0.3290
C47 C 0.9135(2) 0.1897(2) 0.4095(3)
H35 H 0.9366 0.1530 0.4175
C48 C 0.8666(2) 0.2089(2) 0.4493(2)
N11 N 0.52097(19) 0.52097(19) 0.52097(19)
N12 N 0.76198(16) 0.36542(16) 0.41718(15)
N13 N 0.81434(17) 0.35124(18) 0.38225(18)
H36 H 0.8275 0.3777 0.3541
N14 N 0.83284(17) 0.26079(17) 0.44143(16)
Br5 Br 0.51962(3) 0.84578(4) 0.15998(3)
C49 C 0.49474(18) 0.57650(17) 0.49536(18)
C50 C 0.4717(2) 0.6238(2) 0.53401(18)
H37 H 0.4751 0.6197 0.5778
C51 C 0.44435(19) 0.67579(18) 0.50938(18)
H38 H 0.4271 0.7062 0.5363
C52 C 0.44159(17) 0.68459(17) 0.44443(18)
C53 C 0.46607(18) 0.63918(19) 0.40592(18)
H39 H 0.4652 0.6449 0.3622
C54 C 0.4922(2) 0.58463(19) 0.43073(18)
H40 H 0.5080 0.5535 0.4039
C55 C 0.41167(19) 0.7424(2) 0.4211(2)
H41 H 0.3871 0.7660 0.4491
C56 C 0.39098(19) 0.8456(2) 0.2969(2)
C57 C 0.3470(2) 0.8921(2) 0.2794(2)
H42 H 0.3114 0.9000 0.3041
C58 C 0.3576(3) 0.9252(2) 0.2259(3)
H43 H 0.3290 0.9565 0.2136
C59 C 0.4095(3) 0.9135(2) 0.1897(2)
H44 H 0.4175 0.9366 0.1530
C60 C 0.4493(2) 0.8666(2) 0.2089(2)
N15 N 0.41718(15) 0.76198(16) 0.36542(16)
N16 N 0.38225(18) 0.81434(17) 0.35124(18)
H45 H 0.3541 0.8275 0.3777
N17 N 0.44143(16) 0.83284(17) 0.26079(17)
Br6 Br 0.15998(3) 0.51962(3) 0.84578(4)
C61 C 0.49536(18) 0.49474(18) 0.57650(17)
C62 C 0.53401(18) 0.4717(2) 0.6238(2)
H46 H 0.5778 0.4751 0.6197
C63 C 0.50938(18) 0.44435(19) 0.67579(18)
H47 H 0.5363 0.4271 0.7062
C64 C 0.44443(18) 0.44159(17) 0.68459(17)
C65 C 0.40592(18) 0.46607(18) 0.63918(19)
H48 H 0.3622 0.4652 0.6449
C66 C 0.43073(18) 0.4922(2) 0.58463(19)
H49 H 0.4039 0.5080 0.5535
C67 C 0.4211(2) 0.41167(19) 0.7424(2)
H50 H 0.4491 0.3871 0.7660
C68 C 0.2969(2) 0.39098(19) 0.8456(2)
C69 C 0.2794(2) 0.3470(2) 0.8921(2)
H51 H 0.3041 0.3114 0.9000
C70 C 0.2259(3) 0.3576(3) 0.9252(2)
H52 H 0.2136 0.3290 0.9565
C71 C 0.1897(2) 0.4095(3) 0.9135(2)
H53 H 0.1530 0.4175 0.9366
C72 C 0.2089(2) 0.4493(2) 0.8666(2)
N18 N 0.36542(16) 0.41718(15) 0.76198(16)
N19 N 0.35124(18) 0.38225(18) 0.81434(17)
H54 H 0.3777 0.3541 0.8275
N20 N 0.26079(17) 0.44143(16) 0.83284(17)
Ag4 Ag 0.7500 0.28738(2) 0.5000
Ag5 Ag 0.28738(2) 0.5000 0.7500
N22 N 0.63458(16) 0.91718(15) 0.73802(16)
N24 N 0.73921(17) 0.94143(16) 0.66716(17)
N1_2 N 0.02097(19) 0.02097(19) 0.02097(19)
C50_2 C 0.0283(2) 0.3762(2) 0.03401(18)
H37_2 H 0.0249 0.3803 0.0778
C51_2 C 0.05565(19) 0.32421(18) 0.00938(18)
H38_2 H 0.0729 0.2938 0.0363
Br6_2 Br 0.34002(3) 0.48038(3) 0.34578(4)
C61_2 C 0.00464(18) 0.50526(18) 0.07650(17)
C64_2 C 0.05557(18) 0.55841(17) 0.18459(17)
C65_2 C 0.09408(18) 0.53393(18) 0.13918(19)
H48_2 H 0.1378 0.5348 0.1449
C66_2 C 0.06927(18) 0.5078(2) 0.08463(19)
H49_2 H 0.0961 0.4920 0.0535
C67_2 C 0.0789(2) 0.58833(19) 0.2424(2)
H50_2 H 0.0509 0.6129 0.2660
C68_2 C 0.2031(2) 0.60902(19) 0.3456(2)
C69_2 C 0.2206(2) 0.6530(2) 0.3921(2)
H51_2 H 0.1959 0.6886 0.4000
C70_2 C 0.2741(3) 0.6424(3) 0.4252(2)
H52_2 H 0.2864 0.6710 0.4565
C71_2 C 0.3103(2) 0.5905(3) 0.4135(2)
H53_2 H 0.3470 0.5825 0.4366
C72_2 C 0.2911(2) 0.5507(2) 0.3666(2)
N18_2 N 0.13458(16) 0.58282(15) 0.26198(16)
N19_2 N 0.14876(18) 0.61775(18) 0.31434(17)
H54_2 H 0.1223 0.6459 0.3275
N20_2 N 0.23921(17) 0.55857(16) 0.33284(17)
Ag5_2 Ag 0.21262(2) 0.5000 0.2500
C2_2 C 0.1238(2) 0.03401(18) 0.9717(2)
H1_2 H 0.1197 0.0778 0.9751
C3_2 C 0.17579(18) 0.00938(18) 0.94435(19)
H2_2 H 0.2062 0.0363 0.9271
Br2_2 Br 0.01962(3) 0.34578(4) 0.65998(3)
H13_2 H 0.0080 0.0535 0.9039
Ag2_2 Ag 0.0000 0.2500 0.78738(2)
C49_2 C 0.00526(18) 0.42350(17) 0.99536(18)
C52_2 C 0.05841(17) 0.31541(17) 0.94443(18)
C53_2 C 0.03393(18) 0.36082(19) 0.90592(18)
H39_2 H 0.0348 0.3551 0.8622
C54_2 C 0.0078(2) 0.41537(19) 0.93073(18)
C55_2 C 0.08833(19) 0.2576(2) 0.9211(2)
H41_2 H 0.1129 0.2340 0.9491
C56_2 C 0.10902(19) 0.1544(2) 0.7969(2)
C57_2 C 0.1530(2) 0.1079(2) 0.7794(2)
H42_2 H 0.1886 0.1000 0.8041
C58_2 C 0.1424(3) 0.0748(2) 0.7259(3)
H43_2 H 0.1710 0.0435 0.7136
C59_2 C 0.0905(3) 0.0865(2) 0.6897(2)
H44_2 H 0.0825 0.0634 0.6530
C60_2 C 0.0507(2) 0.1334(2) 0.7089(2)
N15_2 N 0.08282(15) 0.23802(16) 0.86542(16)
N16_2 N 0.11775(18) 0.18566(17) 0.85124(18)
H45_2 H 0.1459 0.1725 0.8777
N17_2 N 0.05857(16) 0.16716(17) 0.76079(17)
Ag1_2 Ag 0.2500 0.78738(2) 0.0000
Br1_2 Br 0.34578(4) 0.65998(3) 0.01962(3)
H4_2 H 0.0535 0.9039 0.0080
C26_2 C 0.03401(18) 0.9717(2) 0.1238(2)
H19_2 H 0.0778 0.9751 0.1197
C27_2 C 0.00938(18) 0.94435(19) 0.17579(18)
H20_2 H 0.0363 0.9271 0.2062
N21_2 N 0.23802(16) 0.86542(16) 0.08282(15)
N23_2 N 0.16716(17) 0.76079(17) 0.05857(16)
Ag1_3 Ag 0.2500 0.78738(2) 1.0000
C1_2 C 0.07650(17) 0.99536(18) 0.99474(18)
C4_2 C 0.18459(17) 0.94443(18) 0.94159(17)
C5_2 C 0.13918(19) 0.90592(18) 0.96607(18)
H3_2 H 0.1449 0.8622 0.9652
C6_2 C 0.08463(19) 0.93073(18) 0.9922(2)
C7_2 C 0.2424(2) 0.9211(2) 0.91167(19)
H5_2 H 0.2660 0.9491 0.8871
C8_2 C 0.3456(2) 0.7969(2) 0.89098(19)
C9_2 C 0.3921(2) 0.7794(2) 0.8470(2)
H6_2 H 0.4000 0.8041 0.8114
C10_2 C 0.4252(2) 0.7259(3) 0.8576(3)
H7_2 H 0.4565 0.7136 0.8290
C11_2 C 0.4135(2) 0.6897(2) 0.9095(3)
H8_2 H 0.4366 0.6530 0.9175
C12_2 C 0.3666(2) 0.7089(2) 0.9493(2)
N2_2 N 0.26198(16) 0.86542(16) 0.91718(15)
N3_2 N 0.31434(17) 0.85124(18) 0.88225(18)
H9_2 H 0.3275 0.8777 0.8541
N4_2 N 0.33284(17) 0.76079(17) 0.94143(16)
C14_2 C 0.9717(2) 0.1238(2) 0.03401(18)
H10_2 H 0.9751 0.1197 0.0778
C15_2 C 0.94435(19) 0.17579(18) 0.00938(18)
H11_2 H 0.9271 0.2062 0.0363
Br3_2 Br 0.65998(3) 0.01962(3) 0.34578(4)
H22_2 H 0.9039 0.0080 0.0535
Ag3_3 Ag 0.78738(2) 0.0000 0.2500
Br4_2 Br 0.65422(4) 0.84002(3) 0.01962(3)
H31_2 H 0.9465 0.5961 0.0080
N11_2 N 0.97903(19) 0.47903(19) 0.02097(19)
C62_2 C 0.96599(18) 0.5283(2) 0.1238(2)
H46_2 H 0.9222 0.5249 0.1197
C63_2 C 0.99062(18) 0.55565(19) 0.17579(18)
H47_2 H 0.9637 0.5729 0.2062
Ag4_2 Ag 0.7500 0.71262(2) 0.0000
N22_2 N 0.86542(16) 0.08282(15) 0.23802(16)
N24_2 N 0.76079(17) 0.05857(16) 0.16716(17)
C13_2 C 0.99474(18) 0.07650(17) 0.99536(18)
C16_2 C 0.94159(17) 0.18459(17) 0.94443(18)
C17_2 C 0.96607(18) 0.13918(19) 0.90592(18)
H12_2 H 0.9652 0.1449 0.8622
C18_2 C 0.9922(2) 0.08463(19) 0.93073(18)
C19_2 C 0.91167(19) 0.2424(2) 0.9211(2)
H14_2 H 0.8871 0.2660 0.9491
C20_2 C 0.89098(19) 0.3456(2) 0.7969(2)
C21_2 C 0.8470(2) 0.3921(2) 0.7794(2)
H15_2 H 0.8114 0.4000 0.8041
C22_2 C 0.8576(3) 0.4252(2) 0.7259(3)
H16_2 H 0.8290 0.4565 0.7136
C23_2 C 0.9095(3) 0.4135(2) 0.6897(2)
H17_2 H 0.9175 0.4366 0.6530
C24_2 C 0.9493(2) 0.3666(2) 0.7089(2)
N5_2 N 0.91718(15) 0.26198(16) 0.86542(16)
N6_2 N 0.88225(18) 0.31434(17) 0.85124(18)
H18_2 H 0.8541 0.3275 0.8777
N7_2 N 0.94143(16) 0.33284(17) 0.76079(17)
Ag2_3 Ag 1.0000 0.2500 0.78738(2)
C37_2 C 0.92350(17) 0.50464(18) 0.99474(18)
C38_2 C 0.8762(2) 0.46599(18) 0.9717(2)
H28_2 H 0.8803 0.4222 0.9751
C39_2 C 0.82421(18) 0.49062(18) 0.94435(19)
H29_2 H 0.7938 0.4637 0.9271
C40_2 C 0.81541(17) 0.55557(18) 0.94159(17)
C41_2 C 0.86082(19) 0.59408(18) 0.96607(18)
H30_2 H 0.8551 0.6378 0.9652
C42_2 C 0.91537(19) 0.56927(18) 0.9922(2)
C43_2 C 0.7576(2) 0.5789(2) 0.91167(19)
H32_2 H 0.7340 0.5509 0.8871
C44_2 C 0.6544(2) 0.7031(2) 0.89098(19)
C45_2 C 0.6079(2) 0.7206(2) 0.8470(2)
H33_2 H 0.6000 0.6959 0.8114
C46_2 C 0.5748(2) 0.7741(3) 0.8576(3)
H34_2 H 0.5435 0.7864 0.8290
C47_2 C 0.5865(2) 0.8103(2) 0.9095(3)
H35_2 H 0.5634 0.8470 0.9175
C48_2 C 0.6334(2) 0.7911(2) 0.9493(2)
N12_2 N 0.73802(16) 0.63458(16) 0.91718(15)
N13_2 N 0.68566(17) 0.64876(18) 0.88225(18)
H36_2 H 0.6725 0.6223 0.8541
N14_2 N 0.66716(17) 0.73921(17) 0.94143(16)
Br5_2 Br 0.98038(3) 0.15422(4) 0.65998(3)
H40_2 H 0.9920 0.4465 0.9039
Ag4_3 Ag 0.7500 0.71262(2) 1.0000
C25_2 C 0.99536(18) 0.99474(18) 0.07650(17)
C28_2 C 0.94443(18) 0.94159(17) 0.18459(17)
C29_2 C 0.90592(18) 0.96607(18) 0.13918(19)
H21_2 H 0.8622 0.9652 0.1449
C30_2 C 0.93073(18) 0.9922(2) 0.08463(19)
C31_2 C 0.9211(2) 0.91167(19) 0.2424(2)
H23_2 H 0.9491 0.8871 0.2660
C32_2 C 0.7969(2) 0.89098(19) 0.3456(2)
C33_2 C 0.7794(2) 0.8470(2) 0.3921(2)
H24_2 H 0.8041 0.8114 0.4000
C34_2 C 0.7259(3) 0.8576(3) 0.4252(2)
H25_2 H 0.7136 0.8290 0.4565
C35_2 C 0.6897(2) 0.9095(3) 0.4135(2)
H26_2 H 0.6530 0.9175 0.4366
C36_2 C 0.7089(2) 0.9493(2) 0.3666(2)
N8_2 N 0.86542(16) 0.91718(15) 0.26198(16)
N9_2 N 0.85124(18) 0.88225(18) 0.31434(17)
H27_2 H 0.8777 0.8541 0.3275
N10_2 N 0.76079(17) 0.94143(16) 0.33284(17)
Ag3_4 Ag 0.78738(2) 1.0000 0.2500
C1_3 C 0.57650(17) 0.50464(18) 0.00526(18)
C2_3 C 0.6238(2) 0.46599(18) 0.0283(2)
H1_3 H 0.6197 0.4222 0.0249
C3_3 C 0.67579(18) 0.49062(18) 0.05565(19)
H2_3 H 0.7062 0.4637 0.0729
C4_3 C 0.68459(17) 0.55557(18) 0.05841(17)
C5_3 C 0.63918(19) 0.59408(18) 0.03393(18)
H3_3 H 0.6449 0.6378 0.0348
C6_3 C 0.58463(19) 0.56927(18) 0.0078(2)
C7_3 C 0.7424(2) 0.5789(2) 0.08833(19)
H5_3 H 0.7660 0.5509 0.1129
C8_3 C 0.8456(2) 0.7031(2) 0.10902(19)
C9_3 C 0.8921(2) 0.7206(2) 0.1530(2)
H6_3 H 0.9000 0.6959 0.1886
C10_3 C 0.9252(2) 0.7741(3) 0.1424(3)
H7_3 H 0.9565 0.7864 0.1710
C11_3 C 0.9135(2) 0.8103(2) 0.0905(3)
H8_3 H 0.9366 0.8470 0.0825
C12_3 C 0.8666(2) 0.7911(2) 0.0507(2)
N2_3 N 0.76198(16) 0.63458(16) 0.08282(15)
N3_3 N 0.81434(17) 0.64876(18) 0.11775(18)
H9_3 H 0.8275 0.6223 0.1459
N4_3 N 0.83284(17) 0.73921(17) 0.05857(16)
Br2_3 Br 0.51962(3) 0.15422(4) 0.34002(3)
C13_3 C 0.49474(18) 0.42350(17) 0.00464(18)
C16_3 C 0.44159(17) 0.31541(17) 0.05557(18)
C17_3 C 0.46607(18) 0.36082(19) 0.09408(18)
H12_3 H 0.4652 0.3551 0.1378
C18_3 C 0.4922(2) 0.41537(19) 0.06927(18)
H13_3 H 0.5080 0.4465 0.0961
C19_3 C 0.41167(19) 0.2576(2) 0.0789(2)
H14_3 H 0.3871 0.2340 0.0509
C20_3 C 0.39098(19) 0.1544(2) 0.2031(2)
C21_3 C 0.3470(2) 0.1079(2) 0.2206(2)
H15_3 H 0.3114 0.1000 0.1959
C22_3 C 0.3576(3) 0.0748(2) 0.2741(3)
H16_3 H 0.3290 0.0435 0.2864
C23_3 C 0.4095(3) 0.0865(2) 0.3103(2)
H17_3 H 0.4175 0.0634 0.3470
C24_3 C 0.4493(2) 0.1334(2) 0.2911(2)
N5_3 N 0.41718(15) 0.23802(16) 0.13458(16)
N6_3 N 0.38225(18) 0.18566(17) 0.14876(18)
H18_3 H 0.3541 0.1725 0.1223
N7_3 N 0.44143(16) 0.16716(17) 0.23921(17)
Ag2_4 Ag 0.5000 0.2500 0.21262(2)
C38_3 C 0.3762(2) 0.03401(18) 0.0283(2)
H28_3 H 0.3803 0.0778 0.0249
C39_3 C 0.32421(18) 0.00938(18) 0.05565(19)
H29_3 H 0.2938 0.0363 0.0729
Br5_3 Br 0.48038(3) 0.34578(4) 0.34002(3)
C49_3 C 0.50526(18) 0.07650(17) 0.00464(18)
C52_3 C 0.55841(17) 0.18459(17) 0.05557(18)
C53_3 C 0.53393(18) 0.13918(19) 0.09408(18)
H39_3 H 0.5348 0.1449 0.1378
C54_3 C 0.5078(2) 0.08463(19) 0.06927(18)
H40_3 H 0.4920 0.0535 0.0961
C55_3 C 0.58833(19) 0.2424(2) 0.0789(2)
H41_3 H 0.6129 0.2660 0.0509
C56_3 C 0.60902(19) 0.3456(2) 0.2031(2)
C57_3 C 0.6530(2) 0.3921(2) 0.2206(2)
H42_3 H 0.6886 0.4000 0.1959
C58_3 C 0.6424(3) 0.4252(2) 0.2741(3)
H43_3 H 0.6710 0.4565 0.2864
C59_3 C 0.5905(3) 0.4135(2) 0.3103(2)
H44_3 H 0.5825 0.4366 0.3470
C60_3 C 0.5507(2) 0.3666(2) 0.2911(2)
N15_3 N 0.58282(15) 0.26198(16) 0.13458(16)
N16_3 N 0.61775(18) 0.31434(17) 0.14876(18)
H45_3 H 0.6459 0.3275 0.1223
N17_3 N 0.55857(16) 0.33284(17) 0.23921(17)
Br1_3 Br 0.84578(4) 0.84002(3) 0.98038(3)
H4_3 H 0.5535 0.5961 0.9920
N1_3 N 0.52097(19) 0.47903(19) 0.97903(19)
C14_3 C 0.4717(2) 0.3762(2) 0.96599(18)
H10_3 H 0.4751 0.3803 0.9222
C15_3 C 0.44435(19) 0.32421(18) 0.99062(18)
H11_3 H 0.4271 0.2938 0.9637
Br3_3 Br 0.15998(3) 0.48038(3) 0.65422(4)
C25_3 C 0.49536(18) 0.50526(18) 0.92350(17)
C26_3 C 0.53401(18) 0.5283(2) 0.8762(2)
H19_3 H 0.5778 0.5249 0.8803
C27_3 C 0.50938(18) 0.55565(19) 0.82421(18)
H20_3 H 0.5363 0.5729 0.7938
C28_3 C 0.44443(18) 0.55841(17) 0.81541(17)
C29_3 C 0.40592(18) 0.53393(18) 0.86082(19)
H21_3 H 0.3622 0.5348 0.8551
C30_3 C 0.43073(18) 0.5078(2) 0.91537(19)
H22_3 H 0.4039 0.4920 0.9465
C31_3 C 0.4211(2) 0.58833(19) 0.7576(2)
H23_3 H 0.4491 0.6129 0.7340
C32_3 C 0.2969(2) 0.60902(19) 0.6544(2)
C33_3 C 0.2794(2) 0.6530(2) 0.6079(2)
H24_3 H 0.3041 0.6886 0.6000
C34_3 C 0.2259(3) 0.6424(3) 0.5748(2)
H25_3 H 0.2136 0.6710 0.5435
C35_3 C 0.1897(2) 0.5905(3) 0.5865(2)
H26_3 H 0.1530 0.5825 0.5634
C36_3 C 0.2089(2) 0.5507(2) 0.6334(2)
N8_3 N 0.36542(16) 0.58282(15) 0.73802(16)
N9_3 N 0.35124(18) 0.61775(18) 0.68566(17)
H27_3 H 0.3777 0.6459 0.6725
N10_3 N 0.26079(17) 0.55857(16) 0.66716(17)
N11_3 N 0.47903(19) 0.02097(19) 0.97903(19)
C50_3 C 0.5283(2) 0.1238(2) 0.96599(18)
H37_3 H 0.5249 0.1197 0.9222
C51_3 C 0.55565(19) 0.17579(18) 0.99062(18)
H38_3 H 0.5729 0.2062 0.9637
Br6_3 Br 0.84002(3) 0.01962(3) 0.65422(4)
H49_3 H 0.5961 0.0080 0.9465
C37_3 C 0.42350(17) 0.99536(18) 0.00526(18)
C40_3 C 0.31541(17) 0.94443(18) 0.05841(17)
C41_3 C 0.36082(19) 0.90592(18) 0.03393(18)
H30_3 H 0.3551 0.8622 0.0348
C42_3 C 0.41537(19) 0.93073(18) 0.0078(2)
C43_3 C 0.2576(2) 0.9211(2) 0.08833(19)
H32_3 H 0.2340 0.9491 0.1129
C44_3 C 0.1544(2) 0.7969(2) 0.10902(19)
C45_3 C 0.1079(2) 0.7794(2) 0.1530(2)
H33_3 H 0.1000 0.8041 0.1886
C46_3 C 0.0748(2) 0.7259(3) 0.1424(3)
H34_3 H 0.0435 0.7136 0.1710
C47_3 C 0.0865(2) 0.6897(2) 0.0905(3)
H35_3 H 0.0634 0.6530 0.0825
C48_3 C 0.1334(2) 0.7089(2) 0.0507(2)
N13_3 N 0.18566(17) 0.85124(18) 0.11775(18)
H36_3 H 0.1725 0.8777 0.1459
Br4_3 Br 0.15422(4) 0.65998(3) 0.98038(3)
H31_3 H 0.4465 0.9039 0.9920
C61_3 C 0.50464(18) 0.99474(18) 0.92350(17)
C62_3 C 0.46599(18) 0.9717(2) 0.8762(2)
H46_3 H 0.4222 0.9751 0.8803
C63_3 C 0.49062(18) 0.94435(19) 0.82421(18)
H47_3 H 0.4637 0.9271 0.7938
C64_3 C 0.55557(18) 0.94159(17) 0.81541(17)
C65_3 C 0.59408(18) 0.96607(18) 0.86082(19)
H48_3 H 0.6378 0.9652 0.8551
C66_3 C 0.56927(18) 0.9922(2) 0.91537(19)
C67_3 C 0.5789(2) 0.91167(19) 0.7576(2)
H50_3 H 0.5509 0.8871 0.7340
C68_3 C 0.7031(2) 0.89098(19) 0.6544(2)
C69_3 C 0.7206(2) 0.8470(2) 0.6079(2)
H51_3 H 0.6959 0.8114 0.6000
C70_3 C 0.7741(3) 0.8576(3) 0.5748(2)
H52_3 H 0.7864 0.8290 0.5435
C71_3 C 0.8103(2) 0.9095(3) 0.5865(2)
H53_3 H 0.8470 0.9175 0.5634
C72_3 C 0.7911(2) 0.9493(2) 0.6334(2)
N19_3 N 0.64876(18) 0.88225(18) 0.68566(17)
H54_3 H 0.6223 0.8541 0.6725
Br4_4 Br 0.34578(4) 0.34002(3) 0.48038(3)
C37_4 C 0.07650(17) 0.00464(18) 0.50526(18)
C40_4 C 0.18459(17) 0.05557(18) 0.55841(17)
C41_4 C 0.13918(19) 0.09408(18) 0.53393(18)
H30_4 H 0.1449 0.1378 0.5348
C42_4 C 0.08463(19) 0.06927(18) 0.5078(2)
H31_4 H 0.0535 0.0961 0.4920
C43_4 C 0.2424(2) 0.0789(2) 0.58833(19)
H32_4 H 0.2660 0.0509 0.6129
C44_4 C 0.3456(2) 0.2031(2) 0.60902(19)
C45_4 C 0.3921(2) 0.2206(2) 0.6530(2)
H33_4 H 0.4000 0.1959 0.6886
C46_4 C 0.4252(2) 0.2741(3) 0.6424(3)
H34_4 H 0.4565 0.2864 0.6710
C47_4 C 0.4135(2) 0.3103(2) 0.5905(3)
H35_4 H 0.4366 0.3470 0.5825
C48_4 C 0.3666(2) 0.2911(2) 0.5507(2)
N13_4 N 0.31434(17) 0.14876(18) 0.61775(18)
H36_4 H 0.3275 0.1223 0.6459
C62_4 C 0.03401(18) 0.0283(2) 0.3762(2)
H46_4 H 0.0778 0.0249 0.3803
C63_4 C 0.00938(18) 0.05565(19) 0.32421(18)
H47_4 H 0.0363 0.0729 0.2938
C13_4 C 0.00526(18) 0.57650(17) 0.50464(18)
C14_4 C 0.0283(2) 0.6238(2) 0.46599(18)
H10_4 H 0.0249 0.6197 0.4222
C15_4 C 0.05565(19) 0.67579(18) 0.49062(18)
H11_4 H 0.0729 0.7062 0.4637
C16_4 C 0.05841(17) 0.68459(17) 0.55557(18)
C17_4 C 0.03393(18) 0.63918(19) 0.59408(18)
H12_4 H 0.0348 0.6449 0.6378
C18_4 C 0.0078(2) 0.58463(19) 0.56927(18)
C19_4 C 0.08833(19) 0.7424(2) 0.5789(2)
H14_4 H 0.1129 0.7660 0.5509
C20_4 C 0.10902(19) 0.8456(2) 0.7031(2)
C21_4 C 0.1530(2) 0.8921(2) 0.7206(2)
H15_4 H 0.1886 0.9000 0.6959
C22_4 C 0.1424(3) 0.9252(2) 0.7741(3)
H16_4 H 0.1710 0.9565 0.7864
C23_4 C 0.0905(3) 0.9135(2) 0.8103(2)
H17_4 H 0.0825 0.9366 0.8470
C24_4 C 0.0507(2) 0.8666(2) 0.7911(2)
N5_4 N 0.08282(15) 0.76198(16) 0.63458(16)
N6_4 N 0.11775(18) 0.81434(17) 0.64876(18)
H18_4 H 0.1459 0.8275 0.6223
N7_4 N 0.05857(16) 0.83284(17) 0.73921(17)
Br3_4 Br 0.34002(3) 0.51962(3) 0.15422(4)
C25_4 C 0.00464(18) 0.49474(18) 0.42350(17)
C28_4 C 0.05557(18) 0.44159(17) 0.31541(17)
C29_4 C 0.09408(18) 0.46607(18) 0.36082(19)
H21_4 H 0.1378 0.4652 0.3551
C30_4 C 0.06927(18) 0.4922(2) 0.41537(19)
H22_4 H 0.0961 0.5080 0.4465
C31_4 C 0.0789(2) 0.41167(19) 0.2576(2)
H23_4 H 0.0509 0.3871 0.2340
C32_4 C 0.2031(2) 0.39098(19) 0.1544(2)
C33_4 C 0.2206(2) 0.3470(2) 0.1079(2)
H24_4 H 0.1959 0.3114 0.1000
C34_4 C 0.2741(3) 0.3576(3) 0.0748(2)
H25_4 H 0.2864 0.3290 0.0435
C35_4 C 0.3103(2) 0.4095(3) 0.0865(2)
H26_4 H 0.3470 0.4175 0.0634
C36_4 C 0.2911(2) 0.4493(2) 0.1334(2)
N8_4 N 0.13458(16) 0.41718(15) 0.23802(16)
N9_4 N 0.14876(18) 0.38225(18) 0.18566(17)
H27_4 H 0.1223 0.3541 0.1725
N10_4 N 0.23921(17) 0.44143(16) 0.16716(17)
Ag2_5 Ag 0.0000 0.7500 0.71262(2)
C38_4 C 0.1238(2) 0.96599(18) 0.5283(2)
H28_4 H 0.1197 0.9222 0.5249
C39_4 C 0.17579(18) 0.99062(18) 0.55565(19)
H29_4 H 0.2062 0.9637 0.5729
N11_4 N 0.02097(19) 0.97903(19) 0.47903(19)
Br5_4 Br 0.01962(3) 0.65422(4) 0.84002(3)
H40_4 H 0.0080 0.9465 0.5961
C61_4 C 0.99536(18) 0.00526(18) 0.42350(17)
C64_4 C 0.94443(18) 0.05841(17) 0.31541(17)
C65_4 C 0.90592(18) 0.03393(18) 0.36082(19)
H48_4 H 0.8622 0.0348 0.3551
C66_4 C 0.93073(18) 0.0078(2) 0.41537(19)
C67_4 C 0.9211(2) 0.08833(19) 0.2576(2)
H50_4 H 0.9491 0.1129 0.2340
C68_4 C 0.7969(2) 0.10902(19) 0.1544(2)
C69_4 C 0.7794(2) 0.1530(2) 0.1079(2)
H51_4 H 0.8041 0.1886 0.1000
C70_4 C 0.7259(3) 0.1424(3) 0.0748(2)
H52_4 H 0.7136 0.1710 0.0435
C71_4 C 0.6897(2) 0.0905(3) 0.0865(2)
H53_4 H 0.6530 0.0825 0.0634
C72_4 C 0.7089(2) 0.0507(2) 0.1334(2)
N19_4 N 0.85124(18) 0.11775(18) 0.18566(17)
H54_4 H 0.8777 0.1459 0.1725
Br1_4 Br 0.65422(4) 0.15998(3) 0.48038(3)
C1_4 C 0.92350(17) 0.49536(18) 0.50526(18)
C2_4 C 0.8762(2) 0.53401(18) 0.5283(2)
H1_4 H 0.8803 0.5778 0.5249
C3_4 C 0.82421(18) 0.50938(18) 0.55565(19)
H2_4 H 0.7938 0.5363 0.5729
C4_4 C 0.81541(17) 0.44443(18) 0.55841(17)
C5_4 C 0.86082(19) 0.40592(18) 0.53393(18)
H3_4 H 0.8551 0.3622 0.5348
C6_4 C 0.91537(19) 0.43073(18) 0.5078(2)
H4_4 H 0.9465 0.4039 0.4920
C7_4 C 0.7576(2) 0.4211(2) 0.58833(19)
H5_4 H 0.7340 0.4491 0.6129
C8_4 C 0.6544(2) 0.2969(2) 0.60902(19)
C9_4 C 0.6079(2) 0.2794(2) 0.6530(2)
H6_4 H 0.6000 0.3041 0.6886
C10_4 C 0.5748(2) 0.2259(3) 0.6424(3)
H7_4 H 0.5435 0.2136 0.6710
C11_4 C 0.5865(2) 0.1897(2) 0.5905(3)
H8_4 H 0.5634 0.1530 0.5825
C12_4 C 0.6334(2) 0.2089(2) 0.5507(2)
N1_4 N 0.97903(19) 0.52097(19) 0.47903(19)
N2_4 N 0.73802(16) 0.36542(16) 0.58282(15)
N3_4 N 0.68566(17) 0.35124(18) 0.61775(18)
H9_4 H 0.6725 0.3777 0.6459
N4_4 N 0.66716(17) 0.26079(17) 0.55857(16)
Br2_4 Br 0.98038(3) 0.84578(4) 0.84002(3)
H13_4 H 0.9920 0.5535 0.5961
C26_4 C 0.96599(18) 0.4717(2) 0.3762(2)
H19_4 H 0.9222 0.4751 0.3803
C27_4 C 0.99062(18) 0.44435(19) 0.32421(18)
H20_4 H 0.9637 0.4271 0.2938
Ag2_6 Ag 1.0000 0.7500 0.71262(2)
C49_4 C 0.99474(18) 0.92350(17) 0.50464(18)
C50_4 C 0.9717(2) 0.8762(2) 0.46599(18)
H37_4 H 0.9751 0.8803 0.4222
C51_4 C 0.94435(19) 0.82421(18) 0.49062(18)
H38_4 H 0.9271 0.7938 0.4637
C52_4 C 0.94159(17) 0.81541(17) 0.55557(18)
C53_4 C 0.96607(18) 0.86082(19) 0.59408(18)
H39_4 H 0.9652 0.8551 0.6378
C54_4 C 0.9922(2) 0.91537(19) 0.56927(18)
C55_4 C 0.91167(19) 0.7576(2) 0.5789(2)
H41_4 H 0.8871 0.7340 0.5509
C56_4 C 0.89098(19) 0.6544(2) 0.7031(2)
C57_4 C 0.8470(2) 0.6079(2) 0.7206(2)
H42_4 H 0.8114 0.6000 0.6959
C58_4 C 0.8576(3) 0.5748(2) 0.7741(3)
H43_4 H 0.8290 0.5435 0.7864
C59_4 C 0.9095(3) 0.5865(2) 0.8103(2)
H44_4 H 0.9175 0.5634 0.8470
C60_4 C 0.9493(2) 0.6334(2) 0.7911(2)
N15_4 N 0.91718(15) 0.73802(16) 0.63458(16)
N16_4 N 0.88225(18) 0.68566(17) 0.64876(18)
H45_4 H 0.8541 0.6725 0.6223
N17_4 N 0.94143(16) 0.66716(17) 0.73921(17)
Br6_4 Br 0.65998(3) 0.98038(3) 0.15422(4)
H49_4 H 0.9039 0.9920 0.4465
Cl1 Cl 0.0000 0.2500 0.18710(6)
O1 O 0.02364(19) 0.20070(18) 0.22525(18)
O2 O 0.0509(3) 0.2749(2) 0.1504(2)
Cl1_2 Cl 1.0000 0.2500 0.18710(6)
O3 O 0.97636(19) 0.29930(18) 0.22525(18)
O4 O 0.9491(3) 0.2251(2) 0.1504(2)
Cl1_3 Cl 0.5000 0.7500 0.68710(6)
O1_2 O 0.47636(19) 0.79930(18) 0.72525(18)
O2_2 O 0.4491(3) 0.7251(2) 0.6504(2)
O3_2 O 0.52364(19) 0.70070(18) 0.72525(18)
O4_2 O 0.5509(3) 0.7749(2) 0.6504(2)
Cl1_4 Cl -0.0000 0.7500 0.31290(6)
O3_3 O 0.02364(19) 0.79930(18) 0.27475(18)
O4_3 O 0.0509(3) 0.7251(2) 0.3496(2)
Cl1_5 Cl 1.0000 0.7500 0.31290(6)
O1_3 O 0.97636(19) 0.70070(18) 0.27475(18)
O2_3 O 0.9491(3) 0.7749(2) 0.3496(2)
Cl1_6 Cl 0.5000 0.2500 0.81290(6)
O1_4 O 0.52364(19) 0.29930(18) 0.77475(18)
O2_4 O 0.5509(3) 0.2251(2) 0.8496(2)
O3_4 O 0.47636(19) 0.20070(18) 0.77475(18)
O4_4 O 0.4491(3) 0.2749(2) 0.8496(2)
Cl1_7 Cl 0.18710(6) 0.0000 0.2500
O1_5 O 0.22525(18) 0.02364(19) 0.20070(18)
O2_5 O 0.1504(2) 0.0509(3) 0.2749(2)
Cl1_8 Cl 0.18710(6) 1.0000 0.2500
O3_5 O 0.22525(18) 0.97636(19) 0.29930(18)
O4_5 O 0.1504(2) 0.9491(3) 0.2251(2)
Cl1_9 Cl 0.68710(6) 0.5000 0.7500
O1_6 O 0.72525(18) 0.47636(19) 0.79930(18)
O2_6 O 0.6504(2) 0.4491(3) 0.7251(2)
O3_6 O 0.72525(18) 0.52364(19) 0.70070(18)
O4_6 O 0.6504(2) 0.5509(3) 0.7749(2)
Cl1_10 Cl 0.31290(6) -0.0000 0.7500
O3_7 O 0.27475(18) 0.02364(19) 0.79930(18)
O4_7 O 0.3496(2) 0.0509(3) 0.7251(2)
Cl1_11 Cl 0.31290(6) 1.0000 0.7500
O1_7 O 0.27475(18) 0.97636(19) 0.70070(18)
O2_7 O 0.3496(2) 0.9491(3) 0.7749(2)
Cl1_12 Cl 0.81290(6) 0.5000 0.2500
O1_8 O 0.77475(18) 0.52364(19) 0.29930(18)
O2_8 O 0.8496(2) 0.5509(3) 0.2251(2)
O3_8 O 0.77475(18) 0.47636(19) 0.20070(18)
O4_8 O 0.8496(2) 0.4491(3) 0.2749(2)
Cl1_13 Cl 0.2500 0.18710(6) 0.0000
O1_9 O 0.20070(18) 0.22525(18) 0.02364(19)
O2_9 O 0.2749(2) 0.1504(2) 0.0509(3)
Cl1_14 Cl 0.2500 0.18710(6) 1.0000
O3_9 O 0.29930(18) 0.22525(18) 0.97636(19)
O4_9 O 0.2251(2) 0.1504(2) 0.9491(3)
Cl1_15 Cl 0.7500 0.68710(6) 0.5000
O1_10 O 0.79930(18) 0.72525(18) 0.47636(19)
O2_10 O 0.7251(2) 0.6504(2) 0.4491(3)
O3_10 O 0.70070(18) 0.72525(18) 0.52364(19)
O4_10 O 0.7749(2) 0.6504(2) 0.5509(3)
Cl1_16 Cl 0.7500 0.31290(6) -0.0000
O3_11 O 0.79930(18) 0.27475(18) 0.02364(19)
O4_11 O 0.7251(2) 0.3496(2) 0.0509(3)
Cl1_17 Cl 0.7500 0.31290(6) 1.0000
O1_11 O 0.70070(18) 0.27475(18) 0.97636(19)
O2_11 O 0.7749(2) 0.3496(2) 0.9491(3)
Cl1_18 Cl 0.2500 0.81290(6) 0.5000
O1_12 O 0.29930(18) 0.77475(18) 0.52364(19)
O2_12 O 0.2251(2) 0.8496(2) 0.5509(3)
O3_12 O 0.20070(18) 0.77475(18) 0.47636(19)
O4_12 O 0.2749(2) 0.8496(2) 0.4491(3)
loop_
_geom_bond_atom_site_label_1
_geom_bond_atom_site_label_2
_geom_bond_site_symmetry_1
_geom_bond_site_symmetry_2
Ag1 N2 1_555 1_555
Br1 C12 1_555 1_555
C5 C4 1_555 1_555
H3 C5 1_555 1_555
C6 C1 1_555 1_555
H4 C6 1_555 1_555
C7 C4 1_555 1_555
H5 C7 1_555 1_555
C8 C9 1_555 1_555
C9 H6 1_555 1_555
C10 C9 1_555 1_555
H7 C10 1_555 1_555
C11 C10 1_555 1_555
H8 C11 1_555 1_555
C12 C11 1_555 1_555
N2 C7 1_555 1_555
N3 C8 1_555 1_555
H9 N3 1_555 1_555
N4 Ag1 1_555 1_555
C26 C25 1_555 1_555
H19 C26 1_555 1_555
C27 C26 1_555 1_555
H20 C27 1_555 1_555
C28 C27 1_555 1_555
C29 C28 1_555 1_555
H21 C29 1_555 1_555
C30 C25 1_555 1_555
C31 C28 1_555 1_555
H23 C31 1_555 1_555
C32 C33 1_555 1_555
C33 H24 1_555 1_555
C34 C33 1_555 1_555
H25 C34 1_555 1_555
C35 C34 1_555 1_555
H26 C35 1_555 1_555
C36 C35 1_555 1_555
N8 C31 1_555 1_555
N9 C32 1_555 1_555
H27 N9 1_555 1_555
N10 C32 1_555 1_555
Ag3 N8 1_555 1_555
N21 Ag1 1_555 1_555
N23 Ag1 1_555 1_555
C5 C6 1_555 1_555
C8 N4 1_555 1_555
C12 N4 1_555 1_555
N2 N3 1_555 1_555
C29 C30 1_555 1_555
C36 N10 1_555 1_555
N8 N9 1_555 1_555
N10 Ag3 1_555 1_555
C2 H1 1_555 1_555
C3 C2 1_555 1_555
H2 C3 1_555 1_555
Br2 C24 1_555 1_555
C13 N1 1_555 1_555
C14 C13 1_555 1_555
H10 C14 1_555 1_555
C15 C14 1_555 1_555
H11 C15 1_555 1_555
C16 C15 1_555 1_555
C17 C16 1_555 1_555
H12 C17 1_555 1_555
C18 C13 1_555 1_555
H13 C18 1_555 1_555
C19 C16 1_555 1_555
H14 C19 1_555 1_555
C20 C21 1_555 1_555
C21 H15 1_555 1_555
C22 C21 1_555 1_555
H16 C22 1_555 1_555
C23 C22 1_555 1_555
H17 C23 1_555 1_555
C24 C23 1_555 1_555
N5 C19 1_555 1_555
N6 C20 1_555 1_555
H18 N6 1_555 1_555
N7 C20 1_555 1_555
Ag2 N5 1_555 1_555
Br4 C48 1_555 1_555
C37 C38 1_555 1_555
C38 H28 1_555 1_555
C39 C38 1_555 1_555
H29 C39 1_555 1_555
C40 C39 1_555 1_555
C41 C40 1_555 1_555
H30 C41 1_555 1_555
C42 C37 1_555 1_555
H31 C42 1_555 1_555
C43 C40 1_555 1_555
H32 C43 1_555 1_555
C44 C45 1_555 1_555
C45 H33 1_555 1_555
C46 C45 1_555 1_555
H34 C46 1_555 1_555
C47 C46 1_555 1_555
H35 C47 1_555 1_555
C48 C47 1_555 1_555
N11 C37 1_555 1_555
N12 C43 1_555 1_555
N13 C44 1_555 1_555
H36 N13 1_555 1_555
N14 C44 1_555 1_555
Br5 C60 1_555 1_555
C49 N11 1_555 1_555
C50 C49 1_555 1_555
H37 C50 1_555 1_555
C51 C50 1_555 1_555
H38 C51 1_555 1_555
C52 C51 1_555 1_555
C53 C52 1_555 1_555
H39 C53 1_555 1_555
C54 C49 1_555 1_555
H40 C54 1_555 1_555
C55 C52 1_555 1_555
H41 C55 1_555 1_555
C56 C57 1_555 1_555
C57 H42 1_555 1_555
C58 C57 1_555 1_555
H43 C58 1_555 1_555
C59 C58 1_555 1_555
H44 C59 1_555 1_555
C60 C59 1_555 1_555
N15 Ag2 1_555 1_555
N16 C56 1_555 1_555
H45 N16 1_555 1_555
N17 Ag2 1_555 1_555
Br6 C72 1_555 1_555
C61 N11 1_555 1_555
C62 C61 1_555 1_555
H46 C62 1_555 1_555
C63 C62 1_555 1_555
H47 C63 1_555 1_555
C64 C63 1_555 1_555
C65 C64 1_555 1_555
H48 C65 1_555 1_555
C66 C61 1_555 1_555
H49 C66 1_555 1_555
C67 C64 1_555 1_555
H50 C67 1_555 1_555
C68 C69 1_555 1_555
C69 H51 1_555 1_555
C70 C69 1_555 1_555
H52 C70 1_555 1_555
C71 C70 1_555 1_555
H53 C71 1_555 1_555
C72 C71 1_555 1_555
N18 C67 1_555 1_555
N19 C68 1_555 1_555
H54 N19 1_555 1_555
N20 C68 1_555 1_555
Ag4 N12 1_555 1_555
Ag5 N18 1_555 1_555
N22 Ag3_2 1_555 1_555
N24 Ag3_2 1_555 1_555
C17 C18 1_555 1_555
C24 N7 1_555 1_555
N5 N6 1_555 1_555
N7 Ag2 1_555 1_555
C41 C42 1_555 1_555
C48 N14 1_555 1_555
N12 N13 1_555 1_555
N14 Ag4 1_555 1_555
C53 C54 1_555 1_555
C55 N15 1_555 1_555
C56 N17 1_555 1_555
C60 N17 1_555 1_555
N15 N16 1_555 1_555
C65 C66 1_555 1_555
C72 N20 1_555 1_555
N18 N19 1_555 1_555
N20 Ag5 1_555 1_555
H37_2 C50_2 1_555 1_555
C51_2 C50_2 1_555 1_555
H38_2 C51_2 1_555 1_555
Br6_2 C72_2 1_555 1_555
C65_2 C64_2 1_555 1_555
H48_2 C65_2 1_555 1_555
C66_2 C61_2 1_555 1_555
H49_2 C66_2 1_555 1_555
C67_2 C64_2 1_555 1_555
H50_2 C67_2 1_555 1_555
C68_2 C69_2 1_555 1_555
C69_2 H51_2 1_555 1_555
C70_2 C69_2 1_555 1_555
H52_2 C70_2 1_555 1_555
C71_2 C70_2 1_555 1_555
H53_2 C71_2 1_555 1_555
C72_2 C71_2 1_555 1_555
N18_2 C67_2 1_555 1_555
N19_2 C68_2 1_555 1_555
H54_2 N19_2 1_555 1_555
N20_2 C68_2 1_555 1_555
Ag5_2 N18_2 1_555 1_555
C65_2 C66_2 1_555 1_555
C72_2 N20_2 1_555 1_555
N18_2 N19_2 1_555 1_555
N20_2 Ag5_2 1_555 1_555
C2_2 H1_2 1_555 1_555
C3_2 C2_2 1_555 1_555
H2_2 C3_2 1_555 1_555
C53_2 C52_2 1_555 1_555
H39_2 C53_2 1_555 1_555
C54_2 C49_2 1_555 1_555
C55_2 C52_2 1_555 1_555
H41_2 C55_2 1_555 1_555
C56_2 C57_2 1_555 1_555
C57_2 H42_2 1_555 1_555
C58_2 C57_2 1_555 1_555
H43_2 C58_2 1_555 1_555
C59_2 C58_2 1_555 1_555
H44_2 C59_2 1_555 1_555
C60_2 C59_2 1_555 1_555
N15_2 Ag2_2 1_555 1_555
N16_2 C56_2 1_555 1_555
H45_2 N16_2 1_555 1_555
N17_2 Ag2_2 1_555 1_555
C53_2 C54_2 1_555 1_555
C55_2 N15_2 1_555 1_555
C56_2 N17_2 1_555 1_555
C60_2 N17_2 1_555 1_555
N15_2 N16_2 1_555 1_555
H19_2 C26_2 1_555 1_555
C27_2 C26_2 1_555 1_555
H20_2 C27_2 1_555 1_555
N21_2 Ag1_2 1_555 1_555
N23_2 Ag1_2 1_555 1_555
Ag1_3 N2_2 1_555 1_555
C5_2 C4_2 1_555 1_555
H3_2 C5_2 1_555 1_555
C6_2 C1_2 1_555 1_555
C7_2 C4_2 1_555 1_555
H5_2 C7_2 1_555 1_555
C8_2 C9_2 1_555 1_555
C9_2 H6_2 1_555 1_555
C10_2 C9_2 1_555 1_555
H7_2 C10_2 1_555 1_555
C11_2 C10_2 1_555 1_555
H8_2 C11_2 1_555 1_555
C12_2 C11_2 1_555 1_555
N2_2 C7_2 1_555 1_555
N3_2 C8_2 1_555 1_555
H9_2 N3_2 1_555 1_555
N4_2 Ag1_3 1_555 1_555
C5_2 C6_2 1_555 1_555
C8_2 N4_2 1_555 1_555
C12_2 N4_2 1_555 1_555
N2_2 N3_2 1_555 1_555
H10_2 C14_2 1_555 1_555
C15_2 C14_2 1_555 1_555
H11_2 C15_2 1_555 1_555
H46_2 C62_2 1_555 1_555
C63_2 C62_2 1_555 1_555
H47_2 C63_2 1_555 1_555
N22_2 Ag3_3 1_555 1_555
N24_2 Ag3_3 1_555 1_555
C17_2 C16_2 1_555 1_555
H12_2 C17_2 1_555 1_555
C18_2 C13_2 1_555 1_555
C19_2 C16_2 1_555 1_555
H14_2 C19_2 1_555 1_555
C20_2 C21_2 1_555 1_555
C21_2 H15_2 1_555 1_555
C22_2 C21_2 1_555 1_555
H16_2 C22_2 1_555 1_555
C23_2 C22_2 1_555 1_555
H17_2 C23_2 1_555 1_555
C24_2 C23_2 1_555 1_555
N5_2 C19_2 1_555 1_555
N6_2 C20_2 1_555 1_555
H18_2 N6_2 1_555 1_555
N7_2 C20_2 1_555 1_555
Ag2_3 N5_2 1_555 1_555
C37_2 C38_2 1_555 1_555
C38_2 H28_2 1_555 1_555
C39_2 C38_2 1_555 1_555
H29_2 C39_2 1_555 1_555
C40_2 C39_2 1_555 1_555
C41_2 C40_2 1_555 1_555
H30_2 C41_2 1_555 1_555
C42_2 C37_2 1_555 1_555
C43_2 C40_2 1_555 1_555
H32_2 C43_2 1_555 1_555
C44_2 C45_2 1_555 1_555
C45_2 H33_2 1_555 1_555
C46_2 C45_2 1_555 1_555
H34_2 C46_2 1_555 1_555
C47_2 C46_2 1_555 1_555
H35_2 C47_2 1_555 1_555
C48_2 C47_2 1_555 1_555
N12_2 C43_2 1_555 1_555
N13_2 C44_2 1_555 1_555
H36_2 N13_2 1_555 1_555
N14_2 C44_2 1_555 1_555
Ag4_3 N12_2 1_555 1_555
C17_2 C18_2 1_555 1_555
C24_2 N7_2 1_555 1_555
N5_2 N6_2 1_555 1_555
N7_2 Ag2_3 1_555 1_555
C41_2 C42_2 1_555 1_555
C48_2 N14_2 1_555 1_555
N12_2 N13_2 1_555 1_555
N14_2 Ag4_3 1_555 1_555
C29_2 C28_2 1_555 1_555
H21_2 C29_2 1_555 1_555
C30_2 C25_2 1_555 1_555
C31_2 C28_2 1_555 1_555
H23_2 C31_2 1_555 1_555
C32_2 C33_2 1_555 1_555
C33_2 H24_2 1_555 1_555
C34_2 C33_2 1_555 1_555
H25_2 C34_2 1_555 1_555
C35_2 C34_2 1_555 1_555
H26_2 C35_2 1_555 1_555
C36_2 C35_2 1_555 1_555
N8_2 C31_2 1_555 1_555
N9_2 C32_2 1_555 1_555
H27_2 N9_2 1_555 1_555
N10_2 C32_2 1_555 1_555
Ag3_4 N8_2 1_555 1_555
C29_2 C30_2 1_555 1_555
C36_2 N10_2 1_555 1_555
N8_2 N9_2 1_555 1_555
N10_2 Ag3_4 1_555 1_555
Ag4_2 N2_3 1_555 1_555
C1_3 C2_3 1_555 1_555
C2_3 H1_3 1_555 1_555
C3_3 C2_3 1_555 1_555
H2_3 C3_3 1_555 1_555
C4_3 C3_3 1_555 1_555
C5_3 C4_3 1_555 1_555
H3_3 C5_3 1_555 1_555
C6_3 C1_3 1_555 1_555
C7_3 C4_3 1_555 1_555
H5_3 C7_3 1_555 1_555
C8_3 C9_3 1_555 1_555
C9_3 H6_3 1_555 1_555
C10_3 C9_3 1_555 1_555
H7_3 C10_3 1_555 1_555
C11_3 C10_3 1_555 1_555
H8_3 C11_3 1_555 1_555
C12_3 C11_3 1_555 1_555
N2_3 C7_3 1_555 1_555
N3_3 C8_3 1_555 1_555
H9_3 N3_3 1_555 1_555
N4_3 Ag4_2 1_555 1_555
Br2_3 C24_3 1_555 1_555
C17_3 C16_3 1_555 1_555
H12_3 C17_3 1_555 1_555
C18_3 C13_3 1_555 1_555
H13_3 C18_3 1_555 1_555
C19_3 C16_3 1_555 1_555
H14_3 C19_3 1_555 1_555
C20_3 C21_3 1_555 1_555
C21_3 H15_3 1_555 1_555
C22_3 C21_3 1_555 1_555
H16_3 C22_3 1_555 1_555
C23_3 C22_3 1_555 1_555
H17_3 C23_3 1_555 1_555
C24_3 C23_3 1_555 1_555
N5_3 C19_3 1_555 1_555
N6_3 C20_3 1_555 1_555
H18_3 N6_3 1_555 1_555
N7_3 C20_3 1_555 1_555
Ag2_4 N5_3 1_555 1_555
C38_3 H28_3 1_555 1_555
C39_3 C38_3 1_555 1_555
H29_3 C39_3 1_555 1_555
Br5_3 C60_3 1_555 1_555
C53_3 C52_3 1_555 1_555
H39_3 C53_3 1_555 1_555
C54_3 C49_3 1_555 1_555
H40_3 C54_3 1_555 1_555
C55_3 C52_3 1_555 1_555
H41_3 C55_3 1_555 1_555
C56_3 C57_3 1_555 1_555
C57_3 H42_3 1_555 1_555
C58_3 C57_3 1_555 1_555
H43_3 C58_3 1_555 1_555
C59_3 C58_3 1_555 1_555
H44_3 C59_3 1_555 1_555
C60_3 C59_3 1_555 1_555
N15_3 Ag2_4 1_555 1_555
N16_3 C56_3 1_555 1_555
H45_3 N16_3 1_555 1_555
N17_3 Ag2_4 1_555 1_555
C5_3 C6_3 1_555 1_555
C8_3 N4_3 1_555 1_555
C12_3 N4_3 1_555 1_555
N2_3 N3_3 1_555 1_555
C17_3 C18_3 1_555 1_555
C24_3 N7_3 1_555 1_555
N5_3 N6_3 1_555 1_555
N7_3 Ag2_4 1_555 1_555
C53_3 C54_3 1_555 1_555
C55_3 N15_3 1_555 1_555
C56_3 N17_3 1_555 1_555
C60_3 N17_3 1_555 1_555
N15_3 N16_3 1_555 1_555
H10_3 C14_3 1_555 1_555
C15_3 C14_3 1_555 1_555
H11_3 C15_3 1_555 1_555
Br3_3 C36_3 1_555 1_555
C25_3 N1_3 1_555 1_555
C26_3 C25_3 1_555 1_555
H19_3 C26_3 1_555 1_555
C27_3 C26_3 1_555 1_555
H20_3 C27_3 1_555 1_555
C28_3 C27_3 1_555 1_555
C29_3 C28_3 1_555 1_555
H21_3 C29_3 1_555 1_555
C30_3 C25_3 1_555 1_555
H22_3 C30_3 1_555 1_555
C31_3 C28_3 1_555 1_555
H23_3 C31_3 1_555 1_555
C32_3 C33_3 1_555 1_555
C33_3 H24_3 1_555 1_555
C34_3 C33_3 1_555 1_555
H25_3 C34_3 1_555 1_555
C35_3 C34_3 1_555 1_555
H26_3 C35_3 1_555 1_555
C36_3 C35_3 1_555 1_555
N8_3 C31_3 1_555 1_555
N9_3 C32_3 1_555 1_555
H27_3 N9_3 1_555 1_555
N10_3 C32_3 1_555 1_555
Ag5 N8_3 1_555 1_555
H37_3 C50_3 1_555 1_555
C51_3 C50_3 1_555 1_555
H38_3 C51_3 1_555 1_555
C29_3 C30_3 1_555 1_555
C36_3 N10_3 1_555 1_555
N8_3 N9_3 1_555 1_555
N10_3 Ag5 1_555 1_555
C41_3 C40_3 1_555 1_555
H30_3 C41_3 1_555 1_555
C42_3 C37_3 1_555 1_555
C43_3 C40_3 1_555 1_555
H32_3 C43_3 1_555 1_555
C44_3 C45_3 1_555 1_555
C45_3 H33_3 1_555 1_555
C46_3 C45_3 1_555 1_555
H34_3 C46_3 1_555 1_555
C47_3 C46_3 1_555 1_555
H35_3 C47_3 1_555 1_555
C48_3 C47_3 1_555 1_555
N21_2 C43_3 1_555 1_555
N13_3 C44_3 1_555 1_555
H36_3 N13_3 1_555 1_555
N23_2 C44_3 1_555 1_555
C41_3 C42_3 1_555 1_555
C48_3 N23_2 1_555 1_555
N21_2 N13_3 1_555 1_555
C62_3 C61_3 1_555 1_555
H46_3 C62_3 1_555 1_555
C63_3 C62_3 1_555 1_555
H47_3 C63_3 1_555 1_555
C64_3 C63_3 1_555 1_555
C65_3 C64_3 1_555 1_555
H48_3 C65_3 1_555 1_555
C66_3 C61_3 1_555 1_555
C67_3 C64_3 1_555 1_555
H50_3 C67_3 1_555 1_555
C68_3 C69_3 1_555 1_555
C69_3 H51_3 1_555 1_555
C70_3 C69_3 1_555 1_555
H52_3 C70_3 1_555 1_555
C71_3 C70_3 1_555 1_555
H53_3 C71_3 1_555 1_555
C72_3 C71_3 1_555 1_555
N22 C67_3 1_555 1_555
N19_3 C68_3 1_555 1_555
H54_3 N19_3 1_555 1_555
N24 C68_3 1_555 1_555
C65_3 C66_3 1_555 1_555
C72_3 N24 1_555 1_555
N22 N19_3 1_555 1_555
Br4_4 C48_4 1_555 1_555
C41_4 C40_4 1_555 1_555
H30_4 C41_4 1_555 1_555
C42_4 C37_4 1_555 1_555
H31_4 C42_4 1_555 1_555
C43_4 C40_4 1_555 1_555
H32_4 C43_4 1_555 1_555
C44_4 C45_4 1_555 1_555
C45_4 H33_4 1_555 1_555
C46_4 C45_4 1_555 1_555
H34_4 C46_4 1_555 1_555
C47_4 C46_4 1_555 1_555
H35_4 C47_4 1_555 1_555
C48_4 C47_4 1_555 1_555
N21 C43_4 1_555 1_555
N13_4 C44_4 1_555 1_555
H36_4 N13_4 1_555 1_555
N23 C44_4 1_555 1_555
H46_4 C62_4 1_555 1_555
C63_4 C62_4 1_555 1_555
H47_4 C63_4 1_555 1_555
C41_4 C42_4 1_555 1_555
C48_4 N23 1_555 1_555
N21 N13_4 1_555 1_555
C14_4 C13_4 1_555 1_555
H10_4 C14_4 1_555 1_555
C15_4 C14_4 1_555 1_555
H11_4 C15_4 1_555 1_555
C16_4 C15_4 1_555 1_555
C17_4 C16_4 1_555 1_555
H12_4 C17_4 1_555 1_555
C18_4 C13_4 1_555 1_555
C19_4 C16_4 1_555 1_555
H14_4 C19_4 1_555 1_555
C20_4 C21_4 1_555 1_555
C21_4 H15_4 1_555 1_555
C22_4 C21_4 1_555 1_555
H16_4 C22_4 1_555 1_555
C23_4 C22_4 1_555 1_555
H17_4 C23_4 1_555 1_555
C24_4 C23_4 1_555 1_555
N5_4 C19_4 1_555 1_555
N6_4 C20_4 1_555 1_555
H18_4 N6_4 1_555 1_555
N7_4 C20_4 1_555 1_555
Br3_4 C36_4 1_555 1_555
C29_4 C28_4 1_555 1_555
H21_4 C29_4 1_555 1_555
C30_4 C25_4 1_555 1_555
H22_4 C30_4 1_555 1_555
C31_4 C28_4 1_555 1_555
H23_4 C31_4 1_555 1_555
C32_4 C33_4 1_555 1_555
C33_4 H24_4 1_555 1_555
C34_4 C33_4 1_555 1_555
H25_4 C34_4 1_555 1_555
C35_4 C34_4 1_555 1_555
H26_4 C35_4 1_555 1_555
C36_4 C35_4 1_555 1_555
N8_4 C31_4 1_555 1_555
N9_4 C32_4 1_555 1_555
H27_4 N9_4 1_555 1_555
N10_4 C32_4 1_555 1_555
Ag2_5 N5_4 1_555 1_555
Ag5_2 N8_4 1_555 1_555
C38_4 H28_4 1_555 1_555
C39_4 C38_4 1_555 1_555
H29_4 C39_4 1_555 1_555
C17_4 C18_4 1_555 1_555
C24_4 N7_4 1_555 1_555
N5_4 N6_4 1_555 1_555
N7_4 Ag2_5 1_555 1_555
C29_4 C30_4 1_555 1_555
C36_4 N10_4 1_555 1_555
N8_4 N9_4 1_555 1_555
N10_4 Ag5_2 1_555 1_555
C65_4 C64_4 1_555 1_555
H48_4 C65_4 1_555 1_555
C66_4 C61_4 1_555 1_555
C67_4 C64_4 1_555 1_555
H50_4 C67_4 1_555 1_555
C68_4 C69_4 1_555 1_555
C69_4 H51_4 1_555 1_555
C70_4 C69_4 1_555 1_555
H52_4 C70_4 1_555 1_555
C71_4 C70_4 1_555 1_555
H53_4 C71_4 1_555 1_555
C72_4 C71_4 1_555 1_555
N22_2 C67_4 1_555 1_555
N19_4 C68_4 1_555 1_555
H54_4 N19_4 1_555 1_555
N24_2 C68_4 1_555 1_555
C65_4 C66_4 1_555 1_555
C72_4 N24_2 1_555 1_555
N22_2 N19_4 1_555 1_555
Ag4 N2_4 1_555 1_555
Br1_4 C12_4 1_555 1_555
C1_4 C2_4 1_555 1_555
C2_4 H1_4 1_555 1_555
C3_4 C2_4 1_555 1_555
H2_4 C3_4 1_555 1_555
C4_4 C3_4 1_555 1_555
C5_4 C4_4 1_555 1_555
H3_4 C5_4 1_555 1_555
C6_4 C1_4 1_555 1_555
H4_4 C6_4 1_555 1_555
C7_4 C4_4 1_555 1_555
H5_4 C7_4 1_555 1_555
C8_4 C9_4 1_555 1_555
C9_4 H6_4 1_555 1_555
C10_4 C9_4 1_555 1_555
H7_4 C10_4 1_555 1_555
C11_4 C10_4 1_555 1_555
H8_4 C11_4 1_555 1_555
C12_4 C11_4 1_555 1_555
N1_4 C1_4 1_555 1_555
N2_4 C7_4 1_555 1_555
N3_4 C8_4 1_555 1_555
H9_4 N3_4 1_555 1_555
N4_4 Ag4 1_555 1_555
H19_4 C26_4 1_555 1_555
C27_4 C26_4 1_555 1_555
H20_4 C27_4 1_555 1_555
C50_4 C49_4 1_555 1_555
H37_4 C50_4 1_555 1_555
C51_4 C50_4 1_555 1_555
H38_4 C51_4 1_555 1_555
C52_4 C51_4 1_555 1_555
C53_4 C52_4 1_555 1_555
H39_4 C53_4 1_555 1_555
C54_4 C49_4 1_555 1_555
C55_4 C52_4 1_555 1_555
H41_4 C55_4 1_555 1_555
C56_4 C57_4 1_555 1_555
C57_4 H42_4 1_555 1_555
C58_4 C57_4 1_555 1_555
H43_4 C58_4 1_555 1_555
C59_4 C58_4 1_555 1_555
H44_4 C59_4 1_555 1_555
C60_4 C59_4 1_555 1_555
N15_4 Ag2_6 1_555 1_555
N16_4 C56_4 1_555 1_555
H45_4 N16_4 1_555 1_555
N17_4 Ag2_6 1_555 1_555
C5_4 C6_4 1_555 1_555
C8_4 N4_4 1_555 1_555
C12_4 N4_4 1_555 1_555
N2_4 N3_4 1_555 1_555
C53_4 C54_4 1_555 1_555
C55_4 N15_4 1_555 1_555
C56_4 N17_4 1_555 1_555
C60_4 N17_4 1_555 1_555
N15_4 N16_4 1_555 1_555
Cl1 O1 1_555 1_555
O2 Cl1 1_555 1_555
O3 Cl1_2 1_555 1_555
O4 Cl1_2 1_555 1_555
Cl1_3 O1_2 1_555 1_555
O2_2 Cl1_3 1_555 1_555
O3_2 Cl1_3 1_555 1_555
O4_2 Cl1_3 1_555 1_555
O3_3 Cl1_4 1_555 1_555
O4_3 Cl1_4 1_555 1_555
Cl1_5 O1_3 1_555 1_555
O2_3 Cl1_5 1_555 1_555
Cl1_6 O1_4 1_555 1_555
O2_4 Cl1_6 1_555 1_555
O3_4 Cl1_6 1_555 1_555
O4_4 Cl1_6 1_555 1_555
Cl1_7 O1_5 1_555 1_555
O2_5 Cl1_7 1_555 1_555
O3_5 Cl1_8 1_555 1_555
O4_5 Cl1_8 1_555 1_555
Cl1_9 O1_6 1_555 1_555
O2_6 Cl1_9 1_555 1_555
O3_6 Cl1_9 1_555 1_555
O4_6 Cl1_9 1_555 1_555
O3_7 Cl1_10 1_555 1_555
O4_7 Cl1_10 1_555 1_555
Cl1_11 O1_7 1_555 1_555
O2_7 Cl1_11 1_555 1_555
Cl1_12 O1_8 1_555 1_555
O2_8 Cl1_12 1_555 1_555
O3_8 Cl1_12 1_555 1_555
O4_8 Cl1_12 1_555 1_555
Cl1_13 O1_9 1_555 1_555
O2_9 Cl1_13 1_555 1_555
O3_9 Cl1_14 1_555 1_555
O4_9 Cl1_14 1_555 1_555
Cl1_15 O1_10 1_555 1_555
O2_10 Cl1_15 1_555 1_555
O3_10 Cl1_15 1_555 1_555
O4_10 Cl1_15 1_555 1_555
O3_11 Cl1_16 1_555 1_555
O4_11 Cl1_16 1_555 1_555
Cl1_17 O1_11 1_555 1_555
O2_11 Cl1_17 1_555 1_555
Cl1_18 O1_12 1_555 1_555
O2_12 Cl1_18 1_555 1_555
O3_12 Cl1_18 1_555 1_555
O4_12 Cl1_18 1_555 1_555

#END
