
###############################################################################
#
# This file contains modified crystal structure data generated from the
# MOF subset of the Cambridge Structural Database (CSD) v543 
# hosted by the Cambridge Crystallographic Data Centre (CCDC).
#
# This work is licensed under the Creative Commons
# Attribution-NonCommercial-ShareAlike 4.0 International License.
# To view a copy of this license, visit
# http://creativecommons.org/licenses/by-nc-sa/4.0/
# or send a letter to
# Creative Commons, PO Box 1866, Mountain View, CA 94042, USA.
#
# CIF created using the CSD Python API on 29 September 2022
# The structure has been converted into the P1 space group
# The structure has a 3D framework
# The original CSD entry KENTEF04 is in the cubic crystal system
# The original CSD entry KENTEF04 is in a Sohncke space group
# The framework has been calculated to contain at least 10.0% void space
# The void calculation uses a probe of radius 1.32A, grid spacing 0.4
# The framework is charged, counterions have been retained in the structure
#
###############################################################################

data_KENTEF04
_chemical_formula_moiety         '(C288 H216 Ag14 Br24 Cl18 N80 O48 2+)n'
_symmetry_cell_setting           triclinic
_symmetry_space_group_name_H-M   'P 1'
_symmetry_Int_Tables_number      1
_space_group_name_Hall           'P 1'
loop_
_symmetry_equiv_pos_site_id
_symmetry_equiv_pos_as_xyz
1 x,y,z
_cell_length_a                   21.3154(3)
_cell_length_b                   21.3154(3)
_cell_length_c                   21.3154(3)
_cell_angle_alpha                90
_cell_angle_beta                 90
_cell_angle_gamma                90
_cell_volume                     9684.57
loop_
_atom_site_label
_atom_site_type_symbol
_atom_site_fract_x
_atom_site_fract_y
_atom_site_fract_z
Ag1 Ag 0.7500 0.71264(2) 0.0000
C1 C 0.57674(16) 0.50464(17) 0.00501(17)
C2 C 0.58462(18) 0.56929(17) 0.00787(19)
C3 C 0.63912(18) 0.59402(17) 0.03396(17)
H2 H 0.6448 0.6377 0.0348
C4 C 0.68478(16) 0.55556(17) 0.05846(16)
C5 C 0.67593(17) 0.49079(17) 0.05558(18)
H3 H 0.7064 0.4639 0.0726
C6 C 0.62359(19) 0.46605(17) 0.02839(19)
H4 H 0.6192 0.4223 0.0255
C7 C 0.74238(18) 0.57872(18) 0.08823(18)
H5 H 0.7661 0.5506 0.1126
C8 C 0.84569(18) 0.70351(19) 0.10903(18)
C9 C 0.8924(2) 0.7206(2) 0.1529(2)
H6 H 0.9003 0.6957 0.1884
C10 C 0.9255(2) 0.7739(2) 0.1424(3)
H7 H 0.9569 0.7860 0.1709
C11 C 0.9133(2) 0.8107(2) 0.0900(2)
H8 H 0.9362 0.8475 0.0820
C12 C 0.8667(2) 0.7912(2) 0.0509(2)
N2 N 0.76171(14) 0.63454(15) 0.08276(14)
N3 N 0.81434(16) 0.64890(17) 0.11774(17)
H9 H 0.8276 0.6224 0.1458
N4 N 0.83284(16) 0.73912(16) 0.05874(15)
Br2 Br 0.51958(3) 0.15422(4) 0.34005(3)
C13 C 0.49499(17) 0.42326(16) 0.00464(17)
C14 C 0.49213(19) 0.41538(18) 0.06929(17)
H10 H 0.5077 0.4467 0.0962
C15 C 0.46604(17) 0.36088(18) 0.09402(17)
H11 H 0.4652 0.3552 0.1377
C16 C 0.44154(16) 0.31522(16) 0.05556(17)
C19 C 0.41177(18) 0.25762(18) 0.07872(18)
H14 H 0.3874 0.2339 0.0506
C20 C 0.39097(18) 0.15431(18) 0.20351(19)
C21 C 0.3471(2) 0.1076(2) 0.2206(2)
H15 H 0.3116 0.0997 0.1957
C22 C 0.3576(3) 0.0745(2) 0.2739(2)
H16 H 0.3291 0.0431 0.2860
C23 C 0.4100(2) 0.0867(2) 0.3107(2)
H17 H 0.4180 0.0638 0.3475
C24 C 0.4491(2) 0.1333(2) 0.2912(2)
N5 N 0.41724(14) 0.23829(14) 0.13454(15)
N6 N 0.38226(17) 0.18566(16) 0.14890(17)
H18 H 0.3542 0.1724 0.1224
N7 N 0.44126(15) 0.16716(16) 0.23912(16)
Ag2 Ag 0.5000 0.2500 0.21264(2)
C41 C 0.32407(17) 0.00921(17) 0.05558(18)
H30 H 0.2936 0.0361 0.0726
C42 C 0.37641(19) 0.03395(17) 0.02839(19)
H31 H 0.3808 0.0777 0.0255
Br5 Br 0.48042(3) 0.34578(4) 0.34005(3)
C49 C 0.50501(17) 0.07674(16) 0.00464(17)
C50 C 0.50787(19) 0.08462(18) 0.06929(17)
H37 H 0.4923 0.0533 0.0962
C51 C 0.53396(17) 0.13912(18) 0.09402(17)
H38 H 0.5348 0.1448 0.1377
C52 C 0.55846(16) 0.18478(16) 0.05556(17)
C55 C 0.58823(18) 0.24238(18) 0.07872(18)
H41 H 0.6126 0.2661 0.0506
C56 C 0.60903(18) 0.34569(18) 0.20351(19)
C57 C 0.6529(2) 0.3924(2) 0.2206(2)
H42 H 0.6884 0.4003 0.1957
C58 C 0.6424(3) 0.4255(2) 0.2739(2)
H43 H 0.6709 0.4569 0.2860
C59 C 0.5900(2) 0.4133(2) 0.3107(2)
H44 H 0.5820 0.4362 0.3475
C60 C 0.5509(2) 0.3667(2) 0.2912(2)
N15 N 0.58276(14) 0.26171(14) 0.13454(15)
N16 N 0.61774(17) 0.31434(16) 0.14890(17)
H45 H 0.6458 0.3276 0.1224
N17 N 0.55874(15) 0.33284(16) 0.23912(16)
Ag1_2 Ag 0.7500 0.71264(2) 1.0000
Br1 Br 0.84578(4) 0.84005(3) 0.98042(3)
H1 H 0.5533 0.5962 0.9923
N1 N 0.52110(18) 0.47890(18) 0.97890(18)
C17 C 0.44442(18) 0.32407(17) 0.99079(17)
H12 H 0.4274 0.2936 0.9639
C18 C 0.47161(19) 0.37641(19) 0.96605(17)
H13 H 0.4745 0.3808 0.9223
Br3 Br 0.15995(3) 0.48042(3) 0.65422(4)
C25 C 0.49536(17) 0.50501(17) 0.92326(16)
C26 C 0.43071(17) 0.50787(19) 0.91538(18)
H19 H 0.4038 0.4923 0.9467
C27 C 0.40598(17) 0.53396(17) 0.86088(18)
H20 H 0.3623 0.5348 0.8552
C28 C 0.44444(17) 0.55846(16) 0.81522(16)
C29 C 0.50921(17) 0.55558(18) 0.82407(17)
H21 H 0.5361 0.5726 0.7936
C30 C 0.53395(17) 0.52839(19) 0.87641(19)
H22 H 0.5777 0.5255 0.8808
C31 C 0.42128(18) 0.58823(18) 0.75762(18)
H23 H 0.4494 0.6126 0.7339
C32 C 0.29649(19) 0.60903(18) 0.65431(18)
C33 C 0.2794(2) 0.6529(2) 0.6076(2)
H24 H 0.3043 0.6884 0.5997
C34 C 0.2261(2) 0.6424(3) 0.5745(2)
H25 H 0.2140 0.6709 0.5431
C35 C 0.1893(2) 0.5900(2) 0.5867(2)
H26 H 0.1525 0.5820 0.5638
C36 C 0.2088(2) 0.5509(2) 0.6333(2)
N8 N 0.36546(15) 0.58276(14) 0.73829(14)
N9 N 0.35110(17) 0.61774(17) 0.68566(16)
H27 H 0.3776 0.6458 0.6724
N10 N 0.26088(16) 0.55874(15) 0.66716(16)
Ag3 Ag 0.28736(2) 0.5000 0.7500
N11 N 0.47890(18) 0.02110(18) 0.97890(18)
C53 C 0.55558(18) 0.17593(17) 0.99079(17)
H39 H 0.5726 0.2064 0.9639
C54 C 0.52839(19) 0.12359(19) 0.96605(17)
H40 H 0.5255 0.1192 0.9223
Br6 Br 0.84005(3) 0.01958(3) 0.65422(4)
H46 H 0.5962 0.0077 0.9467
Ag5 Ag 0.71264(2) 0.0000 0.7500
N21 N 0.73829(14) 0.63454(15) 0.91724(14)
N22 N 0.36546(15) 0.41724(14) 0.76171(14)
N23 N 0.66716(16) 0.73912(16) 0.94126(15)
N24 N 0.26088(16) 0.44126(15) 0.83284(16)
C37 C 0.42326(16) 0.99536(17) 0.00501(17)
C38 C 0.41538(18) 0.93071(17) 0.00787(19)
C39 C 0.36088(18) 0.90598(17) 0.03396(17)
H29 H 0.3552 0.8623 0.0348
C40 C 0.31522(16) 0.94444(17) 0.05846(16)
C43 C 0.25762(18) 0.92128(18) 0.08823(18)
H32 H 0.2339 0.9494 0.1126
C44 C 0.15431(18) 0.79649(19) 0.10903(18)
C45 C 0.1076(2) 0.7794(2) 0.1529(2)
H33 H 0.0997 0.8043 0.1884
C46 C 0.0745(2) 0.7261(2) 0.1424(3)
H34 H 0.0431 0.7140 0.1709
C47 C 0.0867(2) 0.6893(2) 0.0900(2)
H35 H 0.0638 0.6525 0.0820
C48 C 0.1333(2) 0.7088(2) 0.0509(2)
N12 N 0.23829(14) 0.86546(15) 0.08276(14)
N13 N 0.18566(16) 0.85110(17) 0.11774(17)
H36 H 0.1724 0.8776 0.1458
N14 N 0.16716(16) 0.76088(16) 0.05874(15)
Ag4 Ag 0.2500 0.78736(2) 0.0000
Br4 Br 0.15422(4) 0.65995(3) 0.98042(3)
H28 H 0.4467 0.9038 0.9923
C61 C 0.50464(17) 0.99499(17) 0.92326(16)
C62 C 0.56929(17) 0.99213(19) 0.91538(18)
C63 C 0.59402(17) 0.96604(17) 0.86088(18)
H47 H 0.6377 0.9652 0.8552
C64 C 0.55556(17) 0.94154(16) 0.81522(16)
C65 C 0.49079(17) 0.94442(18) 0.82407(17)
H48 H 0.4639 0.9274 0.7936
C66 C 0.46605(17) 0.97161(19) 0.87641(19)
H49 H 0.4223 0.9745 0.8808
C67 C 0.57872(18) 0.91177(18) 0.75762(18)
H50 H 0.5506 0.8874 0.7339
C68 C 0.70351(19) 0.89097(18) 0.65431(18)
C69 C 0.7206(2) 0.8471(2) 0.6076(2)
H51 H 0.6957 0.8116 0.5997
C70 C 0.7739(2) 0.8576(3) 0.5745(2)
H52 H 0.7860 0.8291 0.5431
C71 C 0.8107(2) 0.9100(2) 0.5867(2)
H53 H 0.8475 0.9180 0.5638
C72 C 0.7912(2) 0.9491(2) 0.6333(2)
N18 N 0.63454(15) 0.91724(14) 0.73829(14)
N19 N 0.64890(17) 0.88226(17) 0.68566(16)
H54 H 0.6224 0.8542 0.6724
N20 N 0.73912(16) 0.94126(15) 0.66716(16)
Ag4_2 Ag 0.2500 0.78736(2) 1.0000
Ag5_2 Ag 0.71264(2) 1.0000 0.7500
Br4_2 Br 0.34578(4) 0.34005(3) 0.48042(3)
C37_2 C 0.07674(16) 0.00464(17) 0.50501(17)
C38_2 C 0.08462(18) 0.06929(17) 0.50787(19)
H28_2 H 0.0533 0.0962 0.4923
C39_2 C 0.13912(18) 0.09402(17) 0.53396(17)
H29_2 H 0.1448 0.1377 0.5348
C40_2 C 0.18478(16) 0.05556(17) 0.55846(16)
C43_2 C 0.24238(18) 0.07872(18) 0.58823(18)
H32_2 H 0.2661 0.0506 0.6126
C44_2 C 0.34569(18) 0.20351(19) 0.60903(18)
C45_2 C 0.3924(2) 0.2206(2) 0.6529(2)
H33_2 H 0.4003 0.1957 0.6884
C46_2 C 0.4255(2) 0.2739(2) 0.6424(3)
H34_2 H 0.4569 0.2860 0.6709
C47_2 C 0.4133(2) 0.3107(2) 0.5900(2)
H35_2 H 0.4362 0.3475 0.5820
C48_2 C 0.3667(2) 0.2912(2) 0.5509(2)
N12_2 N 0.26171(14) 0.13454(15) 0.58276(14)
N13_2 N 0.31434(16) 0.14890(17) 0.61774(17)
H36_2 H 0.3276 0.1224 0.6458
N14_2 N 0.33284(16) 0.23912(16) 0.55874(15)
C65_2 C 0.00921(17) 0.05558(18) 0.32407(17)
H48_2 H 0.0361 0.0726 0.2936
C66_2 C 0.03395(17) 0.02839(19) 0.37641(19)
H49_2 H 0.0777 0.0255 0.3808
Ag4_3 Ag 0.2500 0.21264(2) 0.5000
C13_2 C 0.00501(17) 0.57674(16) 0.50464(17)
C14_2 C 0.00787(19) 0.58462(18) 0.56929(17)
C15_2 C 0.03396(17) 0.63912(18) 0.59402(17)
H11_2 H 0.0348 0.6448 0.6377
C16_2 C 0.05846(16) 0.68478(16) 0.55556(17)
C17_2 C 0.05558(18) 0.67593(17) 0.49079(17)
H12_2 H 0.0726 0.7064 0.4639
C18_2 C 0.02839(19) 0.62359(19) 0.46605(17)
H13_2 H 0.0255 0.6192 0.4223
C19_2 C 0.08823(18) 0.74238(18) 0.57872(18)
H14_2 H 0.1126 0.7661 0.5506
C20_2 C 0.10903(18) 0.84569(18) 0.70351(19)
C21_2 C 0.1529(2) 0.8924(2) 0.7206(2)
H15_2 H 0.1884 0.9003 0.6957
C22_2 C 0.1424(3) 0.9255(2) 0.7739(2)
H16_2 H 0.1709 0.9569 0.7860
C23_2 C 0.0900(2) 0.9133(2) 0.8107(2)
H17_2 H 0.0820 0.9362 0.8475
C24_2 C 0.0509(2) 0.8667(2) 0.7912(2)
N5_2 N 0.08276(14) 0.76171(14) 0.63454(15)
N6_2 N 0.11774(17) 0.81434(16) 0.64890(17)
H18_2 H 0.1458 0.8276 0.6224
N7_2 N 0.05874(15) 0.83284(16) 0.73912(16)
Br3_2 Br 0.34005(3) 0.51958(3) 0.15422(4)
C25_2 C 0.00464(17) 0.49499(17) 0.42326(16)
C26_2 C 0.06929(17) 0.49213(19) 0.41538(18)
H19_2 H 0.0962 0.5077 0.4467
C27_2 C 0.09402(17) 0.46604(17) 0.36088(18)
H20_2 H 0.1377 0.4652 0.3552
C28_2 C 0.05556(17) 0.44154(16) 0.31522(16)
C31_2 C 0.07872(18) 0.41177(18) 0.25762(18)
H23_2 H 0.0506 0.3874 0.2339
C32_2 C 0.20351(19) 0.39097(18) 0.15431(18)
C33_2 C 0.2206(2) 0.3471(2) 0.1076(2)
H24_2 H 0.1957 0.3116 0.0997
C34_2 C 0.2739(2) 0.3576(3) 0.0745(2)
H25_2 H 0.2860 0.3291 0.0431
C35_2 C 0.3107(2) 0.4100(2) 0.0867(2)
H26_2 H 0.3475 0.4180 0.0638
C36_2 C 0.2912(2) 0.4491(2) 0.1333(2)
N8_2 N 0.13454(15) 0.41724(14) 0.23829(14)
N9_2 N 0.14890(17) 0.38226(17) 0.18566(16)
H27_2 H 0.1224 0.3542 0.1724
N10_2 N 0.23912(16) 0.44126(15) 0.16716(16)
Ag2_2 Ag 0.0000 0.7500 0.71264(2)
Ag3_2 Ag 0.21264(2) 0.5000 0.2500
C41_2 C 0.17593(17) 0.99079(17) 0.55558(18)
H30_2 H 0.2064 0.9639 0.5726
C42_2 C 0.12359(19) 0.96605(17) 0.52839(19)
H31_2 H 0.1192 0.9223 0.5255
N11_2 N 0.02110(18) 0.97890(18) 0.47890(18)
Br5_2 Br 0.01958(3) 0.65422(4) 0.84005(3)
H37_2 H 0.0077 0.9467 0.5962
N22_2 N 0.13454(15) 0.58276(14) 0.26171(14)
N24_2 N 0.23912(16) 0.55874(15) 0.33284(16)
C61_2 C 0.99536(17) 0.00501(17) 0.42326(16)
C62_2 C 0.93071(17) 0.00787(19) 0.41538(18)
C63_2 C 0.90598(17) 0.03396(17) 0.36088(18)
H47_2 H 0.8623 0.0348 0.3552
C64_2 C 0.94444(17) 0.05846(16) 0.31522(16)
C67_2 C 0.92128(18) 0.08823(18) 0.25762(18)
H50_2 H 0.9494 0.1126 0.2339
C68_2 C 0.79649(19) 0.10903(18) 0.15431(18)
C69_2 C 0.7794(2) 0.1529(2) 0.1076(2)
H51_2 H 0.8043 0.1884 0.0997
C70_2 C 0.7261(2) 0.1424(3) 0.0745(2)
H52_2 H 0.7140 0.1709 0.0431
C71_2 C 0.6893(2) 0.0900(2) 0.0867(2)
H53_2 H 0.6525 0.0820 0.0638
C72_2 C 0.7088(2) 0.0509(2) 0.1333(2)
N18_2 N 0.86546(15) 0.08276(14) 0.23829(14)
N19_2 N 0.85110(17) 0.11774(17) 0.18566(16)
H54_2 H 0.8776 0.1458 0.1724
N20_2 N 0.76088(16) 0.05874(15) 0.16716(16)
Ag5_3 Ag 0.78736(2) 0.0000 0.2500
Ag1_3 Ag 0.7500 0.28736(2) 0.5000
Br1_2 Br 0.65422(4) 0.15995(3) 0.48042(3)
C1_2 C 0.92326(16) 0.49536(17) 0.50501(17)
C2_2 C 0.91538(18) 0.43071(17) 0.50787(19)
H1_2 H 0.9467 0.4038 0.4923
C3_2 C 0.86088(18) 0.40598(17) 0.53396(17)
H2_2 H 0.8552 0.3623 0.5348
C4_2 C 0.81522(16) 0.44444(17) 0.55846(16)
C5_2 C 0.82407(17) 0.50921(17) 0.55558(18)
H3_2 H 0.7936 0.5361 0.5726
C6_2 C 0.87641(19) 0.53395(17) 0.52839(19)
H4_2 H 0.8808 0.5777 0.5255
C7_2 C 0.75762(18) 0.42128(18) 0.58823(18)
H5_2 H 0.7339 0.4494 0.6126
C8_2 C 0.65431(18) 0.29649(19) 0.60903(18)
C9_2 C 0.6076(2) 0.2794(2) 0.6529(2)
H6_2 H 0.5997 0.3043 0.6884
C10_2 C 0.5745(2) 0.2261(2) 0.6424(3)
H7_2 H 0.5431 0.2140 0.6709
C11_2 C 0.5867(2) 0.1893(2) 0.5900(2)
H8_2 H 0.5638 0.1525 0.5820
C12_2 C 0.6333(2) 0.2088(2) 0.5509(2)
N1_2 N 0.97890(18) 0.52110(18) 0.47890(18)
N2_2 N 0.73829(14) 0.36546(15) 0.58276(14)
N3_2 N 0.68566(16) 0.35110(17) 0.61774(17)
H9_2 H 0.6724 0.3776 0.6458
N4_2 N 0.66716(16) 0.26088(16) 0.55874(15)
Br2_2 Br 0.98042(3) 0.84578(4) 0.84005(3)
H10_2 H 0.9923 0.5533 0.5962
C29_2 C 0.99079(17) 0.44442(18) 0.32407(17)
H21_2 H 0.9639 0.4274 0.2936
C30_2 C 0.96605(17) 0.47161(19) 0.37641(19)
H22_2 H 0.9223 0.4745 0.3808
Ag2_3 Ag 1.0000 0.7500 0.71264(2)
C49_2 C 0.99499(17) 0.92326(16) 0.50464(17)
C50_2 C 0.99213(19) 0.91538(18) 0.56929(17)
C51_2 C 0.96604(17) 0.86088(18) 0.59402(17)
H38_2 H 0.9652 0.8552 0.6377
C52_2 C 0.94154(16) 0.81522(16) 0.55556(17)
C53_2 C 0.94442(18) 0.82407(17) 0.49079(17)
H39_2 H 0.9274 0.7936 0.4639
C54_2 C 0.97161(19) 0.87641(19) 0.46605(17)
H40_2 H 0.9745 0.8808 0.4223
C55_2 C 0.91177(18) 0.75762(18) 0.57872(18)
H41_2 H 0.8874 0.7339 0.5506
C56_2 C 0.89097(18) 0.65431(18) 0.70351(19)
C57_2 C 0.8471(2) 0.6076(2) 0.7206(2)
H42_2 H 0.8116 0.5997 0.6957
C58_2 C 0.8576(3) 0.5745(2) 0.7739(2)
H43_2 H 0.8291 0.5431 0.7860
C59_2 C 0.9100(2) 0.5867(2) 0.8107(2)
H44_2 H 0.9180 0.5638 0.8475
C60_2 C 0.9491(2) 0.6333(2) 0.7912(2)
N15_2 N 0.91724(14) 0.73829(14) 0.63454(15)
N16_2 N 0.88226(17) 0.68566(16) 0.64890(17)
H45_2 H 0.8542 0.6724 0.6224
N17_2 N 0.94126(15) 0.66716(16) 0.73912(16)
Br6_2 Br 0.65995(3) 0.98042(3) 0.15422(4)
H46_2 H 0.9038 0.9923 0.4467
Ag5_4 Ag 0.78736(2) 1.0000 0.2500
N21_2 N 0.76171(14) 0.36546(15) 0.41724(14)
N23_2 N 0.83284(16) 0.26088(16) 0.44126(15)
Br1_3 Br 0.15422(4) 0.34005(3) 0.51958(3)
C1_3 C 0.42326(16) 0.00464(17) 0.49499(17)
C2_3 C 0.41538(18) 0.06929(17) 0.49213(19)
H1_3 H 0.4467 0.0962 0.5077
C3_3 C 0.36088(18) 0.09402(17) 0.46604(17)
H2_3 H 0.3552 0.1377 0.4652
C4_3 C 0.31522(16) 0.05556(17) 0.44154(16)
C7_3 C 0.25762(18) 0.07872(18) 0.41177(18)
H5_3 H 0.2339 0.0506 0.3874
C8_3 C 0.15431(18) 0.20351(19) 0.39097(18)
C9_3 C 0.1076(2) 0.2206(2) 0.3471(2)
H6_3 H 0.0997 0.1957 0.3116
C10_3 C 0.0745(2) 0.2739(2) 0.3576(3)
H7_3 H 0.0431 0.2860 0.3291
C11_3 C 0.0867(2) 0.3107(2) 0.4100(2)
H8_3 H 0.0638 0.3475 0.4180
C12_3 C 0.1333(2) 0.2912(2) 0.4491(2)
N2_3 N 0.23829(14) 0.13454(15) 0.41724(14)
N3_3 N 0.18566(16) 0.14890(17) 0.38226(17)
H9_3 H 0.1724 0.1224 0.3542
N4_3 N 0.16716(16) 0.23912(16) 0.44126(15)
C25_3 C 0.50464(17) 0.00501(17) 0.57674(16)
C26_3 C 0.56929(17) 0.00787(19) 0.58462(18)
C27_3 C 0.59402(17) 0.03396(17) 0.63912(18)
H20_3 H 0.6377 0.0348 0.6448
C28_3 C 0.55556(17) 0.05846(16) 0.68478(16)
C29_3 C 0.49079(17) 0.05558(18) 0.67593(17)
H21_3 H 0.4639 0.0726 0.7064
C30_3 C 0.46605(17) 0.02839(19) 0.62359(19)
H22_3 H 0.4223 0.0255 0.6192
C31_3 C 0.57872(18) 0.08823(18) 0.74238(18)
H23_3 H 0.5506 0.1126 0.7661
C32_3 C 0.70351(19) 0.10903(18) 0.84569(18)
C33_3 C 0.7206(2) 0.1529(2) 0.8924(2)
H24_3 H 0.6957 0.1884 0.9003
C34_3 C 0.7739(2) 0.1424(3) 0.9255(2)
H25_3 H 0.7860 0.1709 0.9569
C35_3 C 0.8107(2) 0.0900(2) 0.9133(2)
H26_3 H 0.8475 0.0820 0.9362
C36_3 C 0.7912(2) 0.0509(2) 0.8667(2)
N8_3 N 0.63454(15) 0.08276(14) 0.76171(14)
N9_3 N 0.64890(17) 0.11774(17) 0.81434(16)
H27_3 H 0.6224 0.1458 0.8276
N10_3 N 0.73912(16) 0.05874(15) 0.83284(16)
C5_3 C 0.32407(17) 0.99079(17) 0.44442(18)
H3_3 H 0.2936 0.9639 0.4274
C6_3 C 0.37641(19) 0.96605(17) 0.47161(19)
H4_3 H 0.3808 0.9223 0.4745
N1_3 N 0.47890(18) 0.97890(18) 0.52110(18)
Br2_3 Br 0.48042(3) 0.65422(4) 0.15995(3)
C13_3 C 0.50501(17) 0.92326(16) 0.49536(17)
C14_3 C 0.50787(19) 0.91538(18) 0.43071(17)
H10_3 H 0.4923 0.9467 0.4038
C15_3 C 0.53396(17) 0.86088(18) 0.40598(17)
H11_3 H 0.5348 0.8552 0.3623
C16_3 C 0.55846(16) 0.81522(16) 0.44444(17)
C17_3 C 0.55558(18) 0.82407(17) 0.50921(17)
H12_3 H 0.5726 0.7936 0.5361
C18_3 C 0.52839(19) 0.87641(19) 0.53395(17)
H13_3 H 0.5255 0.8808 0.5777
C19_3 C 0.58823(18) 0.75762(18) 0.42128(18)
H14_3 H 0.6126 0.7339 0.4494
C20_3 C 0.60903(18) 0.65431(18) 0.29649(19)
C21_3 C 0.6529(2) 0.6076(2) 0.2794(2)
H15_3 H 0.6884 0.5997 0.3043
C22_3 C 0.6424(3) 0.5745(2) 0.2261(2)
H16_3 H 0.6709 0.5431 0.2140
C23_3 C 0.5900(2) 0.5867(2) 0.1893(2)
H17_3 H 0.5820 0.5638 0.1525
C24_3 C 0.5509(2) 0.6333(2) 0.2088(2)
N5_3 N 0.58276(14) 0.73829(14) 0.36546(15)
N6_3 N 0.61774(17) 0.68566(16) 0.35110(17)
H18_3 H 0.6458 0.6724 0.3776
N7_3 N 0.55874(15) 0.66716(16) 0.26088(16)
Br3_3 Br 0.84005(3) 0.98042(3) 0.84578(4)
H19_3 H 0.5962 0.9923 0.5533
Ag2_4 Ag 0.5000 0.7500 0.28736(2)
Br4_3 Br 0.84578(4) 0.15995(3) 0.51958(3)
C37_3 C 0.57674(16) 0.49536(17) 0.49499(17)
C38_3 C 0.58462(18) 0.43071(17) 0.49213(19)
H28_3 H 0.5533 0.4038 0.5077
C39_3 C 0.63912(18) 0.40598(17) 0.46604(17)
H29_3 H 0.6448 0.3623 0.4652
C40_3 C 0.68478(16) 0.44444(17) 0.44154(16)
C41_3 C 0.67593(17) 0.50921(17) 0.44442(18)
H30_3 H 0.7064 0.5361 0.4274
C42_3 C 0.62359(19) 0.53395(17) 0.47161(19)
H31_3 H 0.6192 0.5777 0.4745
C43_3 C 0.74238(18) 0.42128(18) 0.41177(18)
H32_3 H 0.7661 0.4494 0.3874
C44_3 C 0.84569(18) 0.29649(19) 0.39097(18)
C45_3 C 0.8924(2) 0.2794(2) 0.3471(2)
H33_3 H 0.9003 0.3043 0.3116
C46_3 C 0.9255(2) 0.2261(2) 0.3576(3)
H34_3 H 0.9569 0.2140 0.3291
C47_3 C 0.9133(2) 0.1893(2) 0.4100(2)
H35_3 H 0.9362 0.1525 0.4180
C48_3 C 0.8667(2) 0.2088(2) 0.4491(2)
N11_3 N 0.52110(18) 0.52110(18) 0.52110(18)
N13_3 N 0.81434(16) 0.35110(17) 0.38226(17)
H36_3 H 0.8276 0.3776 0.3542
Br5_3 Br 0.51958(3) 0.84578(4) 0.15995(3)
C49_3 C 0.49499(17) 0.57674(16) 0.49536(17)
C50_3 C 0.49213(19) 0.58462(18) 0.43071(17)
H37_3 H 0.5077 0.5533 0.4038
C51_3 C 0.46604(17) 0.63912(18) 0.40598(17)
H38_3 H 0.4652 0.6448 0.3623
C52_3 C 0.44154(16) 0.68478(16) 0.44444(17)
C53_3 C 0.44442(18) 0.67593(17) 0.50921(17)
H39_3 H 0.4274 0.7064 0.5361
C54_3 C 0.47161(19) 0.62359(19) 0.53395(17)
H40_3 H 0.4745 0.6192 0.5777
C55_3 C 0.41177(18) 0.74238(18) 0.42128(18)
H41_3 H 0.3874 0.7661 0.4494
C56_3 C 0.39097(18) 0.84569(18) 0.29649(19)
C57_3 C 0.3471(2) 0.8924(2) 0.2794(2)
H42_3 H 0.3116 0.9003 0.3043
C58_3 C 0.3576(3) 0.9255(2) 0.2261(2)
H43_3 H 0.3291 0.9569 0.2140
C59_3 C 0.4100(2) 0.9133(2) 0.1893(2)
H44_3 H 0.4180 0.9362 0.1525
C60_3 C 0.4491(2) 0.8667(2) 0.2088(2)
N15_3 N 0.41724(14) 0.76171(14) 0.36546(15)
N16_3 N 0.38226(17) 0.81434(16) 0.35110(17)
H45_3 H 0.3542 0.8276 0.3776
N17_3 N 0.44126(15) 0.83284(16) 0.26088(16)
Br6_3 Br 0.15995(3) 0.51958(3) 0.84578(4)
C61_3 C 0.49536(17) 0.49499(17) 0.57674(16)
C62_3 C 0.43071(17) 0.49213(19) 0.58462(18)
H46_3 H 0.4038 0.5077 0.5533
C63_3 C 0.40598(17) 0.46604(17) 0.63912(18)
H47_3 H 0.3623 0.4652 0.6448
C64_3 C 0.44444(17) 0.44154(16) 0.68478(16)
C65_3 C 0.50921(17) 0.44442(18) 0.67593(17)
H48_3 H 0.5361 0.4274 0.7064
C66_3 C 0.53395(17) 0.47161(19) 0.62359(19)
H49_3 H 0.5777 0.4745 0.6192
C67_3 C 0.42128(18) 0.41177(18) 0.74238(18)
H50_3 H 0.4494 0.3874 0.7661
C68_3 C 0.29649(19) 0.39097(18) 0.84569(18)
C69_3 C 0.2794(2) 0.3471(2) 0.8924(2)
H51_3 H 0.3043 0.3116 0.9003
C70_3 C 0.2261(2) 0.3576(3) 0.9255(2)
H52_3 H 0.2140 0.3291 0.9569
C71_3 C 0.1893(2) 0.4100(2) 0.9133(2)
H53_3 H 0.1525 0.4180 0.9362
C72_3 C 0.2088(2) 0.4491(2) 0.8667(2)
N19_3 N 0.35110(17) 0.38226(17) 0.81434(16)
H54_3 H 0.3776 0.3542 0.8276
N1_4 N 0.02110(18) 0.02110(18) 0.02110(18)
C53_4 C 0.05558(18) 0.32407(17) 0.00921(17)
H39_4 H 0.0726 0.2936 0.0361
C54_4 C 0.02839(19) 0.37641(19) 0.03395(17)
H40_4 H 0.0255 0.3808 0.0777
Br6_4 Br 0.34005(3) 0.48042(3) 0.34578(4)
C61_4 C 0.00464(17) 0.50501(17) 0.07674(16)
C62_4 C 0.06929(17) 0.50787(19) 0.08462(18)
H46_4 H 0.0962 0.4923 0.0533
C63_4 C 0.09402(17) 0.53396(17) 0.13912(18)
H47_4 H 0.1377 0.5348 0.1448
C64_4 C 0.05556(17) 0.55846(16) 0.18478(16)
C67_4 C 0.07872(18) 0.58823(18) 0.24238(18)
H50_4 H 0.0506 0.6126 0.2661
C68_4 C 0.20351(19) 0.60903(18) 0.34569(18)
C69_4 C 0.2206(2) 0.6529(2) 0.3924(2)
H51_4 H 0.1957 0.6884 0.4003
C70_4 C 0.2739(2) 0.6424(3) 0.4255(2)
H52_4 H 0.2860 0.6709 0.4569
C71_4 C 0.3107(2) 0.5900(2) 0.4133(2)
H53_4 H 0.3475 0.5820 0.4362
C72_4 C 0.2912(2) 0.5509(2) 0.3667(2)
N19_4 N 0.14890(17) 0.61774(17) 0.31434(16)
H54_4 H 0.1224 0.6458 0.3276
C5_4 C 0.17593(17) 0.00921(17) 0.94442(18)
H3_4 H 0.2064 0.0361 0.9274
C6_4 C 0.12359(19) 0.03395(17) 0.97161(19)
H4_4 H 0.1192 0.0777 0.9745
Br2_4 Br 0.01958(3) 0.34578(4) 0.65995(3)
H10_4 H 0.0077 0.0533 0.9038
Ag2_5 Ag -0.0000 0.2500 0.78736(2)
C49_4 C 0.00501(17) 0.42326(16) 0.99536(17)
C50_4 C 0.00787(19) 0.41538(18) 0.93071(17)
C51_4 C 0.03396(17) 0.36088(18) 0.90598(17)
H38_4 H 0.0348 0.3552 0.8623
C52_4 C 0.05846(16) 0.31522(16) 0.94444(17)
C55_4 C 0.08823(18) 0.25762(18) 0.92128(18)
H41_4 H 0.1126 0.2339 0.9494
C56_4 C 0.10903(18) 0.15431(18) 0.79649(19)
C57_4 C 0.1529(2) 0.1076(2) 0.7794(2)
H42_4 H 0.1884 0.0997 0.8043
C58_4 C 0.1424(3) 0.0745(2) 0.7261(2)
H43_4 H 0.1709 0.0431 0.7140
C59_4 C 0.0900(2) 0.0867(2) 0.6893(2)
H44_4 H 0.0820 0.0638 0.6525
C60_4 C 0.0509(2) 0.1333(2) 0.7088(2)
N15_4 N 0.08276(14) 0.23829(14) 0.86546(15)
N16_4 N 0.11774(17) 0.18566(16) 0.85110(17)
H45_4 H 0.1458 0.1724 0.8776
N17_4 N 0.05874(15) 0.16716(16) 0.76088(16)
Br1_4 Br 0.34578(4) 0.65995(3) 0.01958(3)
H1_4 H 0.0533 0.9038 0.0077
C29_4 C 0.00921(17) 0.94442(18) 0.17593(17)
H21_4 H 0.0361 0.9274 0.2064
C30_4 C 0.03395(17) 0.97161(19) 0.12359(19)
H22_4 H 0.0777 0.9745 0.1192
C1_4 C 0.07674(16) 0.99536(17) 0.99499(17)
C2_4 C 0.08462(18) 0.93071(17) 0.99213(19)
C3_4 C 0.13912(18) 0.90598(17) 0.96604(17)
H2_4 H 0.1448 0.8623 0.9652
C4_4 C 0.18478(16) 0.94444(17) 0.94154(16)
C7_4 C 0.24238(18) 0.92128(18) 0.91177(18)
H5_4 H 0.2661 0.9494 0.8874
C8_4 C 0.34569(18) 0.79649(19) 0.89097(18)
C9_4 C 0.3924(2) 0.7794(2) 0.8471(2)
H6_4 H 0.4003 0.8043 0.8116
C10_4 C 0.4255(2) 0.7261(2) 0.8576(3)
H7_4 H 0.4569 0.7140 0.8291
C11_4 C 0.4133(2) 0.6893(2) 0.9100(2)
H8_4 H 0.4362 0.6525 0.9180
C12_4 C 0.3667(2) 0.7088(2) 0.9491(2)
N2_4 N 0.26171(14) 0.86546(15) 0.91724(14)
N3_4 N 0.31434(16) 0.85110(17) 0.88226(17)
H9_4 H 0.3276 0.8776 0.8542
N4_4 N 0.33284(16) 0.76088(16) 0.94126(15)
C17_4 C 0.94442(18) 0.17593(17) 0.00921(17)
H12_4 H 0.9274 0.2064 0.0361
C18_4 C 0.97161(19) 0.12359(19) 0.03395(17)
H13_4 H 0.9745 0.1192 0.0777
Br3_4 Br 0.65995(3) 0.01958(3) 0.34578(4)
H19_4 H 0.9038 0.0077 0.0533
Br4_4 Br 0.65422(4) 0.84005(3) 0.01958(3)
H28_4 H 0.9467 0.5962 0.0077
N11_4 N 0.97890(18) 0.47890(18) 0.02110(18)
C65_4 C 0.99079(17) 0.55558(18) 0.17593(17)
H48_4 H 0.9639 0.5726 0.2064
C66_4 C 0.96605(17) 0.52839(19) 0.12359(19)
H49_4 H 0.9223 0.5255 0.1192
C13_4 C 0.99499(17) 0.07674(16) 0.99536(17)
C14_4 C 0.99213(19) 0.08462(18) 0.93071(17)
C15_4 C 0.96604(17) 0.13912(18) 0.90598(17)
H11_4 H 0.9652 0.1448 0.8623
C16_4 C 0.94154(16) 0.18478(16) 0.94444(17)
C19_4 C 0.91177(18) 0.24238(18) 0.92128(18)
H14_4 H 0.8874 0.2661 0.9494
C20_4 C 0.89097(18) 0.34569(18) 0.79649(19)
C21_4 C 0.8471(2) 0.3924(2) 0.7794(2)
H15_4 H 0.8116 0.4003 0.8043
C22_4 C 0.8576(3) 0.4255(2) 0.7261(2)
H16_4 H 0.8291 0.4569 0.7140
C23_4 C 0.9100(2) 0.4133(2) 0.6893(2)
H17_4 H 0.9180 0.4362 0.6525
C24_4 C 0.9491(2) 0.3667(2) 0.7088(2)
N5_4 N 0.91724(14) 0.26171(14) 0.86546(15)
N6_4 N 0.88226(17) 0.31434(16) 0.85110(17)
H18_4 H 0.8542 0.3276 0.8776
N7_4 N 0.94126(15) 0.33284(16) 0.76088(16)
Ag2_6 Ag 1.0000 0.2500 0.78736(2)
C37_4 C 0.92326(16) 0.50464(17) 0.99499(17)
C38_4 C 0.91538(18) 0.56929(17) 0.99213(19)
C39_4 C 0.86088(18) 0.59402(17) 0.96604(17)
H29_4 H 0.8552 0.6377 0.9652
C40_4 C 0.81522(16) 0.55556(17) 0.94154(16)
C41_4 C 0.82407(17) 0.49079(17) 0.94442(18)
H30_4 H 0.7936 0.4639 0.9274
C42_4 C 0.87641(19) 0.46605(17) 0.97161(19)
H31_4 H 0.8808 0.4223 0.9745
C43_4 C 0.75762(18) 0.57872(18) 0.91177(18)
H32_4 H 0.7339 0.5506 0.8874
C44_4 C 0.65431(18) 0.70351(19) 0.89097(18)
C45_4 C 0.6076(2) 0.7206(2) 0.8471(2)
H33_4 H 0.5997 0.6957 0.8116
C46_4 C 0.5745(2) 0.7739(2) 0.8576(3)
H34_4 H 0.5431 0.7860 0.8291
C47_4 C 0.5867(2) 0.8107(2) 0.9100(2)
H35_4 H 0.5638 0.8475 0.9180
C48_4 C 0.6333(2) 0.7912(2) 0.9491(2)
N13_4 N 0.68566(16) 0.64890(17) 0.88226(17)
H36_4 H 0.6724 0.6224 0.8542
Br5_4 Br 0.98042(3) 0.15422(4) 0.65995(3)
H37_4 H 0.9923 0.4467 0.9038
C25_4 C 0.99536(17) 0.99499(17) 0.07674(16)
C26_4 C 0.93071(17) 0.99213(19) 0.08462(18)
C27_4 C 0.90598(17) 0.96604(17) 0.13912(18)
H20_4 H 0.8623 0.9652 0.1448
C28_4 C 0.94444(17) 0.94154(16) 0.18478(16)
C31_4 C 0.92128(18) 0.91177(18) 0.24238(18)
H23_4 H 0.9494 0.8874 0.2661
C32_4 C 0.79649(19) 0.89097(18) 0.34569(18)
C33_4 C 0.7794(2) 0.8471(2) 0.3924(2)
H24_4 H 0.8043 0.8116 0.4003
C34_4 C 0.7261(2) 0.8576(3) 0.4255(2)
H25_4 H 0.7140 0.8291 0.4569
C35_4 C 0.6893(2) 0.9100(2) 0.4133(2)
H26_4 H 0.6525 0.9180 0.4362
C36_4 C 0.7088(2) 0.9491(2) 0.3667(2)
N8_4 N 0.86546(15) 0.91724(14) 0.26171(14)
N9_4 N 0.85110(17) 0.88226(17) 0.31434(16)
H27_4 H 0.8776 0.8542 0.3276
N10_4 N 0.76088(16) 0.94126(15) 0.33284(16)
Cl1 Cl -0.0000 0.7500 0.31286(6)
O3 O 0.02376(19) 0.79951(17) 0.27456(17)
O4 O 0.0508(3) 0.7253(2) 0.3499(2)
Cl1_2 Cl 1.0000 0.7500 0.31286(6)
O1 O 0.97624(19) 0.70049(17) 0.27456(17)
O2 O 0.9492(3) 0.7747(2) 0.3499(2)
Cl1_3 Cl 0.5000 0.2500 0.81286(6)
O1_2 O 0.52376(19) 0.29951(17) 0.77456(17)
O2_2 O 0.5508(3) 0.2253(2) 0.8499(2)
O3_2 O 0.47624(19) 0.20049(17) 0.77456(17)
O4_2 O 0.4492(3) 0.2747(2) 0.8499(2)
Cl1_4 Cl 0.0000 0.2500 0.18714(6)
O1_3 O 0.02376(19) 0.20049(17) 0.22544(17)
O2_3 O 0.0508(3) 0.2747(2) 0.1501(2)
Cl1_5 Cl 1.0000 0.2500 0.18714(6)
O3_3 O 0.97624(19) 0.29951(17) 0.22544(17)
O4_3 O 0.9492(3) 0.2253(2) 0.1501(2)
Cl1_6 Cl 0.5000 0.7500 0.68714(6)
O1_4 O 0.47624(19) 0.79951(17) 0.72544(17)
O2_4 O 0.4492(3) 0.7253(2) 0.6501(2)
O3_4 O 0.52376(19) 0.70049(17) 0.72544(17)
O4_4 O 0.5508(3) 0.7747(2) 0.6501(2)
Cl1_7 Cl 0.31286(6) -0.0000 0.7500
O3_5 O 0.27456(17) 0.02376(19) 0.79951(17)
O4_5 O 0.3499(2) 0.0508(3) 0.7253(2)
Cl1_8 Cl 0.31286(6) 1.0000 0.7500
O1_5 O 0.27456(17) 0.97624(19) 0.70049(17)
O2_5 O 0.3499(2) 0.9492(3) 0.7747(2)
Cl1_9 Cl 0.81286(6) 0.5000 0.2500
O1_6 O 0.77456(17) 0.52376(19) 0.29951(17)
O2_6 O 0.8499(2) 0.5508(3) 0.2253(2)
O3_6 O 0.77456(17) 0.47624(19) 0.20049(17)
O4_6 O 0.8499(2) 0.4492(3) 0.2747(2)
Cl1_10 Cl 0.18714(6) 0.0000 0.2500
O1_7 O 0.22544(17) 0.02376(19) 0.20049(17)
O2_7 O 0.1501(2) 0.0508(3) 0.2747(2)
Cl1_11 Cl 0.18714(6) 1.0000 0.2500
O3_7 O 0.22544(17) 0.97624(19) 0.29951(17)
O4_7 O 0.1501(2) 0.9492(3) 0.2253(2)
Cl1_12 Cl 0.68714(6) 0.5000 0.7500
O1_8 O 0.72544(17) 0.47624(19) 0.79951(17)
O2_8 O 0.6501(2) 0.4492(3) 0.7253(2)
O3_8 O 0.72544(17) 0.52376(19) 0.70049(17)
O4_8 O 0.6501(2) 0.5508(3) 0.7747(2)
Cl1_13 Cl 0.7500 0.31286(6) -0.0000
O3_9 O 0.79951(17) 0.27456(17) 0.02376(19)
O4_9 O 0.7253(2) 0.3499(2) 0.0508(3)
Cl1_14 Cl 0.7500 0.31286(6) 1.0000
O1_9 O 0.70049(17) 0.27456(17) 0.97624(19)
O2_9 O 0.7747(2) 0.3499(2) 0.9492(3)
Cl1_15 Cl 0.2500 0.81286(6) 0.5000
O1_10 O 0.29951(17) 0.77456(17) 0.52376(19)
O2_10 O 0.2253(2) 0.8499(2) 0.5508(3)
O3_10 O 0.20049(17) 0.77456(17) 0.47624(19)
O4_10 O 0.2747(2) 0.8499(2) 0.4492(3)
Cl1_16 Cl 0.2500 0.18714(6) 0.0000
O1_11 O 0.20049(17) 0.22544(17) 0.02376(19)
O2_11 O 0.2747(2) 0.1501(2) 0.0508(3)
Cl1_17 Cl 0.2500 0.18714(6) 1.0000
O3_11 O 0.29951(17) 0.22544(17) 0.97624(19)
O4_11 O 0.2253(2) 0.1501(2) 0.9492(3)
Cl1_18 Cl 0.7500 0.68714(6) 0.5000
O1_12 O 0.79951(17) 0.72544(17) 0.47624(19)
O2_12 O 0.7253(2) 0.6501(2) 0.4492(3)
O3_12 O 0.70049(17) 0.72544(17) 0.52376(19)
O4_12 O 0.7747(2) 0.6501(2) 0.5508(3)
loop_
_geom_bond_atom_site_label_1
_geom_bond_atom_site_label_2
_geom_bond_site_symmetry_1
_geom_bond_site_symmetry_2
Ag1 N2 1_555 1_555
C1 C2 1_555 1_555
C3 C2 1_555 1_555
H2 C3 1_555 1_555
C4 C3 1_555 1_555
C5 C4 1_555 1_555
H3 C5 1_555 1_555
C6 C1 1_555 1_555
H4 C6 1_555 1_555
C7 C4 1_555 1_555
H5 C7 1_555 1_555
C8 C9 1_555 1_555
C9 H6 1_555 1_555
C10 C9 1_555 1_555
H7 C10 1_555 1_555
C11 C10 1_555 1_555
H8 C11 1_555 1_555
C12 C11 1_555 1_555
N2 C7 1_555 1_555
N3 C8 1_555 1_555
H9 N3 1_555 1_555
N4 Ag1 1_555 1_555
Br2 C24 1_555 1_555
C14 C13 1_555 1_555
H10 C14 1_555 1_555
C15 C14 1_555 1_555
H11 C15 1_555 1_555
C16 C15 1_555 1_555
C19 C16 1_555 1_555
H14 C19 1_555 1_555
C20 C21 1_555 1_555
C21 H15 1_555 1_555
C22 C21 1_555 1_555
H16 C22 1_555 1_555
C23 C22 1_555 1_555
H17 C23 1_555 1_555
C24 C23 1_555 1_555
N5 C19 1_555 1_555
N6 C20 1_555 1_555
H18 N6 1_555 1_555
N7 C20 1_555 1_555
Ag2 N5 1_555 1_555
H30 C41 1_555 1_555
H31 C42 1_555 1_555
Br5 C60 1_555 1_555
C50 C49 1_555 1_555
H37 C50 1_555 1_555
C51 C50 1_555 1_555
H38 C51 1_555 1_555
C52 C51 1_555 1_555
C55 C52 1_555 1_555
H41 C55 1_555 1_555
C56 C57 1_555 1_555
C57 H42 1_555 1_555
C58 C57 1_555 1_555
H43 C58 1_555 1_555
C59 C58 1_555 1_555
H44 C59 1_555 1_555
C60 C59 1_555 1_555
N15 Ag2 1_555 1_555
N16 C56 1_555 1_555
H45 N16 1_555 1_555
N17 Ag2 1_555 1_555
C5 C6 1_555 1_555
C8 N4 1_555 1_555
C12 N4 1_555 1_555
N2 N3 1_555 1_555
C24 N7 1_555 1_555
N5 N6 1_555 1_555
N7 Ag2 1_555 1_555
C41 C42 1_555 1_555
C55 N15 1_555 1_555
C56 N17 1_555 1_555
C60 N17 1_555 1_555
N15 N16 1_555 1_555
H12 C17 1_555 1_555
H13 C18 1_555 1_555
Br3 C36 1_555 1_555
C25 N1 1_555 1_555
C26 C25 1_555 1_555
H19 C26 1_555 1_555
C27 C26 1_555 1_555
H20 C27 1_555 1_555
C28 C27 1_555 1_555
C29 C28 1_555 1_555
H21 C29 1_555 1_555
C30 C25 1_555 1_555
H22 C30 1_555 1_555
C31 C28 1_555 1_555
H23 C31 1_555 1_555
C32 C33 1_555 1_555
C33 H24 1_555 1_555
C34 C33 1_555 1_555
H25 C34 1_555 1_555
C35 C34 1_555 1_555
H26 C35 1_555 1_555
C36 C35 1_555 1_555
N8 C31 1_555 1_555
N9 C32 1_555 1_555
H27 N9 1_555 1_555
N10 C32 1_555 1_555
Ag3 N8 1_555 1_555
H39 C53 1_555 1_555
H40 C54 1_555 1_555
N21 Ag1_2 1_555 1_555
N22 Ag3 1_555 1_555
N23 Ag1_2 1_555 1_555
N24 Ag3 1_555 1_555
C17 C18 1_555 1_555
C29 C30 1_555 1_555
C36 N10 1_555 1_555
N8 N9 1_555 1_555
N10 Ag3 1_555 1_555
C53 C54 1_555 1_555
C37 C38 1_555 1_555
C39 C38 1_555 1_555
H29 C39 1_555 1_555
C40 C39 1_555 1_555
C43 C40 1_555 1_555
H32 C43 1_555 1_555
C44 C45 1_555 1_555
C45 H33 1_555 1_555
C46 C45 1_555 1_555
H34 C46 1_555 1_555
C47 C46 1_555 1_555
H35 C47 1_555 1_555
C48 C47 1_555 1_555
N12 C43 1_555 1_555
N13 C44 1_555 1_555
H36 N13 1_555 1_555
N14 C44 1_555 1_555
Ag4 N12 1_555 1_555
C48 N14 1_555 1_555
N12 N13 1_555 1_555
N14 Ag4 1_555 1_555
C62 C61 1_555 1_555
C63 C62 1_555 1_555
H47 C63 1_555 1_555
C64 C63 1_555 1_555
C65 C64 1_555 1_555
H48 C65 1_555 1_555
C66 C61 1_555 1_555
H49 C66 1_555 1_555
C67 C64 1_555 1_555
H50 C67 1_555 1_555
C68 C69 1_555 1_555
C69 H51 1_555 1_555
C70 C69 1_555 1_555
H52 C70 1_555 1_555
C71 C70 1_555 1_555
H53 C71 1_555 1_555
C72 C71 1_555 1_555
N18 C67 1_555 1_555
N19 C68 1_555 1_555
H54 N19 1_555 1_555
N20 C68 1_555 1_555
Ag5_2 N18 1_555 1_555
C65 C66 1_555 1_555
C72 N20 1_555 1_555
N18 N19 1_555 1_555
N20 Ag5_2 1_555 1_555
Br4_2 C48_2 1_555 1_555
C37_2 C38_2 1_555 1_555
C38_2 H28_2 1_555 1_555
C39_2 C38_2 1_555 1_555
H29_2 C39_2 1_555 1_555
C40_2 C39_2 1_555 1_555
C43_2 C40_2 1_555 1_555
H32_2 C43_2 1_555 1_555
C44_2 C45_2 1_555 1_555
C45_2 H33_2 1_555 1_555
C46_2 C45_2 1_555 1_555
H34_2 C46_2 1_555 1_555
C47_2 C46_2 1_555 1_555
H35_2 C47_2 1_555 1_555
C48_2 C47_2 1_555 1_555
N12_2 C43_2 1_555 1_555
N13_2 C44_2 1_555 1_555
H36_2 N13_2 1_555 1_555
N14_2 C44_2 1_555 1_555
H48_2 C65_2 1_555 1_555
H49_2 C66_2 1_555 1_555
Ag4_3 N12_2 1_555 1_555
C48_2 N14_2 1_555 1_555
N12_2 N13_2 1_555 1_555
N14_2 Ag4_3 1_555 1_555
C65_2 C66_2 1_555 1_555
C14_2 C13_2 1_555 1_555
C15_2 C14_2 1_555 1_555
H11_2 C15_2 1_555 1_555
C16_2 C15_2 1_555 1_555
C17_2 C16_2 1_555 1_555
H12_2 C17_2 1_555 1_555
C18_2 C13_2 1_555 1_555
H13_2 C18_2 1_555 1_555
C19_2 C16_2 1_555 1_555
H14_2 C19_2 1_555 1_555
C20_2 C21_2 1_555 1_555
C21_2 H15_2 1_555 1_555
C22_2 C21_2 1_555 1_555
H16_2 C22_2 1_555 1_555
C23_2 C22_2 1_555 1_555
H17_2 C23_2 1_555 1_555
C24_2 C23_2 1_555 1_555
N5_2 C19_2 1_555 1_555
N6_2 C20_2 1_555 1_555
H18_2 N6_2 1_555 1_555
N7_2 C20_2 1_555 1_555
Br3_2 C36_2 1_555 1_555
C26_2 C25_2 1_555 1_555
H19_2 C26_2 1_555 1_555
C27_2 C26_2 1_555 1_555
H20_2 C27_2 1_555 1_555
C28_2 C27_2 1_555 1_555
C31_2 C28_2 1_555 1_555
H23_2 C31_2 1_555 1_555
C32_2 C33_2 1_555 1_555
C33_2 H24_2 1_555 1_555
C34_2 C33_2 1_555 1_555
H25_2 C34_2 1_555 1_555
C35_2 C34_2 1_555 1_555
H26_2 C35_2 1_555 1_555
C36_2 C35_2 1_555 1_555
N8_2 C31_2 1_555 1_555
N9_2 C32_2 1_555 1_555
H27_2 N9_2 1_555 1_555
N10_2 C32_2 1_555 1_555
Ag2_2 N5_2 1_555 1_555
Ag3_2 N8_2 1_555 1_555
H30_2 C41_2 1_555 1_555
H31_2 C42_2 1_555 1_555
N22_2 Ag3_2 1_555 1_555
N24_2 Ag3_2 1_555 1_555
C17_2 C18_2 1_555 1_555
C24_2 N7_2 1_555 1_555
N5_2 N6_2 1_555 1_555
N7_2 Ag2_2 1_555 1_555
C36_2 N10_2 1_555 1_555
N8_2 N9_2 1_555 1_555
N10_2 Ag3_2 1_555 1_555
C41_2 C42_2 1_555 1_555
C62_2 C61_2 1_555 1_555
C63_2 C62_2 1_555 1_555
H47_2 C63_2 1_555 1_555
C64_2 C63_2 1_555 1_555
C67_2 C64_2 1_555 1_555
H50_2 C67_2 1_555 1_555
C68_2 C69_2 1_555 1_555
C69_2 H51_2 1_555 1_555
C70_2 C69_2 1_555 1_555
H52_2 C70_2 1_555 1_555
C71_2 C70_2 1_555 1_555
H53_2 C71_2 1_555 1_555
C72_2 C71_2 1_555 1_555
N18_2 C67_2 1_555 1_555
N19_2 C68_2 1_555 1_555
H54_2 N19_2 1_555 1_555
N20_2 C68_2 1_555 1_555
Ag5_3 N18_2 1_555 1_555
C72_2 N20_2 1_555 1_555
N18_2 N19_2 1_555 1_555
N20_2 Ag5_3 1_555 1_555
Ag1_3 N2_2 1_555 1_555
Br1_2 C12_2 1_555 1_555
C1_2 C2_2 1_555 1_555
C2_2 H1_2 1_555 1_555
C3_2 C2_2 1_555 1_555
H2_2 C3_2 1_555 1_555
C4_2 C3_2 1_555 1_555
C5_2 C4_2 1_555 1_555
H3_2 C5_2 1_555 1_555
C6_2 C1_2 1_555 1_555
H4_2 C6_2 1_555 1_555
C7_2 C4_2 1_555 1_555
H5_2 C7_2 1_555 1_555
C8_2 C9_2 1_555 1_555
C9_2 H6_2 1_555 1_555
C10_2 C9_2 1_555 1_555
H7_2 C10_2 1_555 1_555
C11_2 C10_2 1_555 1_555
H8_2 C11_2 1_555 1_555
C12_2 C11_2 1_555 1_555
N1_2 C1_2 1_555 1_555
N2_2 C7_2 1_555 1_555
N3_2 C8_2 1_555 1_555
H9_2 N3_2 1_555 1_555
N4_2 Ag1_3 1_555 1_555
H21_2 C29_2 1_555 1_555
H22_2 C30_2 1_555 1_555
C50_2 C49_2 1_555 1_555
C51_2 C50_2 1_555 1_555
H38_2 C51_2 1_555 1_555
C52_2 C51_2 1_555 1_555
C53_2 C52_2 1_555 1_555
H39_2 C53_2 1_555 1_555
C54_2 C49_2 1_555 1_555
H40_2 C54_2 1_555 1_555
C55_2 C52_2 1_555 1_555
H41_2 C55_2 1_555 1_555
C56_2 C57_2 1_555 1_555
C57_2 H42_2 1_555 1_555
C58_2 C57_2 1_555 1_555
H43_2 C58_2 1_555 1_555
C59_2 C58_2 1_555 1_555
H44_2 C59_2 1_555 1_555
C60_2 C59_2 1_555 1_555
N15_2 Ag2_3 1_555 1_555
N16_2 C56_2 1_555 1_555
H45_2 N16_2 1_555 1_555
N17_2 Ag2_3 1_555 1_555
N21_2 Ag1_3 1_555 1_555
N23_2 Ag1_3 1_555 1_555
C5_2 C6_2 1_555 1_555
C8_2 N4_2 1_555 1_555
C12_2 N4_2 1_555 1_555
N2_2 N3_2 1_555 1_555
C29_2 C30_2 1_555 1_555
C53_2 C54_2 1_555 1_555
C55_2 N15_2 1_555 1_555
C56_2 N17_2 1_555 1_555
C60_2 N17_2 1_555 1_555
N15_2 N16_2 1_555 1_555
Ag4_3 N2_3 1_555 1_555
Br1_3 C12_3 1_555 1_555
C1_3 C2_3 1_555 1_555
C2_3 H1_3 1_555 1_555
C3_3 C2_3 1_555 1_555
H2_3 C3_3 1_555 1_555
C4_3 C3_3 1_555 1_555
C7_3 C4_3 1_555 1_555
H5_3 C7_3 1_555 1_555
C8_3 C9_3 1_555 1_555
C9_3 H6_3 1_555 1_555
C10_3 C9_3 1_555 1_555
H7_3 C10_3 1_555 1_555
C11_3 C10_3 1_555 1_555
H8_3 C11_3 1_555 1_555
C12_3 C11_3 1_555 1_555
N2_3 C7_3 1_555 1_555
N3_3 C8_3 1_555 1_555
H9_3 N3_3 1_555 1_555
N4_3 Ag4_3 1_555 1_555
C26_3 C25_3 1_555 1_555
C27_3 C26_3 1_555 1_555
H20_3 C27_3 1_555 1_555
C28_3 C27_3 1_555 1_555
C29_3 C28_3 1_555 1_555
H21_3 C29_3 1_555 1_555
C30_3 C25_3 1_555 1_555
H22_3 C30_3 1_555 1_555
C31_3 C28_3 1_555 1_555
H23_3 C31_3 1_555 1_555
C32_3 C33_3 1_555 1_555
C33_3 H24_3 1_555 1_555
C34_3 C33_3 1_555 1_555
H25_3 C34_3 1_555 1_555
C35_3 C34_3 1_555 1_555
H26_3 C35_3 1_555 1_555
C36_3 C35_3 1_555 1_555
N8_3 C31_3 1_555 1_555
N9_3 C32_3 1_555 1_555
H27_3 N9_3 1_555 1_555
N10_3 C32_3 1_555 1_555
Ag5 N8_3 1_555 1_555
C8_3 N4_3 1_555 1_555
C12_3 N4_3 1_555 1_555
N2_3 N3_3 1_555 1_555
C29_3 C30_3 1_555 1_555
C36_3 N10_3 1_555 1_555
N8_3 N9_3 1_555 1_555
N10_3 Ag5 1_555 1_555
H3_3 C5_3 1_555 1_555
H4_3 C6_3 1_555 1_555
Br2_3 C24_3 1_555 1_555
C13_3 N1_3 1_555 1_555
C14_3 C13_3 1_555 1_555
H10_3 C14_3 1_555 1_555
C15_3 C14_3 1_555 1_555
H11_3 C15_3 1_555 1_555
C16_3 C15_3 1_555 1_555
C17_3 C16_3 1_555 1_555
H12_3 C17_3 1_555 1_555
C18_3 C13_3 1_555 1_555
H13_3 C18_3 1_555 1_555
C19_3 C16_3 1_555 1_555
H14_3 C19_3 1_555 1_555
C20_3 C21_3 1_555 1_555
C21_3 H15_3 1_555 1_555
C22_3 C21_3 1_555 1_555
H16_3 C22_3 1_555 1_555
C23_3 C22_3 1_555 1_555
H17_3 C23_3 1_555 1_555
C24_3 C23_3 1_555 1_555
N5_3 C19_3 1_555 1_555
N6_3 C20_3 1_555 1_555
H18_3 N6_3 1_555 1_555
N7_3 C20_3 1_555 1_555
Ag2_4 N5_3 1_555 1_555
Br4_3 C48_3 1_555 1_555
C37_3 C38_3 1_555 1_555
C38_3 H28_3 1_555 1_555
C39_3 C38_3 1_555 1_555
H29_3 C39_3 1_555 1_555
C40_3 C39_3 1_555 1_555
C41_3 C40_3 1_555 1_555
H30_3 C41_3 1_555 1_555
C42_3 C37_3 1_555 1_555
H31_3 C42_3 1_555 1_555
C43_3 C40_3 1_555 1_555
H32_3 C43_3 1_555 1_555
C44_3 C45_3 1_555 1_555
C45_3 H33_3 1_555 1_555
C46_3 C45_3 1_555 1_555
H34_3 C46_3 1_555 1_555
C47_3 C46_3 1_555 1_555
H35_3 C47_3 1_555 1_555
C48_3 C47_3 1_555 1_555
N11_3 C37_3 1_555 1_555
N21_2 C43_3 1_555 1_555
N13_3 C44_3 1_555 1_555
H36_3 N13_3 1_555 1_555
N23_2 C44_3 1_555 1_555
Br5_3 C60_3 1_555 1_555
C49_3 N11_3 1_555 1_555
C50_3 C49_3 1_555 1_555
H37_3 C50_3 1_555 1_555
C51_3 C50_3 1_555 1_555
H38_3 C51_3 1_555 1_555
C52_3 C51_3 1_555 1_555
C53_3 C52_3 1_555 1_555
H39_3 C53_3 1_555 1_555
C54_3 C49_3 1_555 1_555
H40_3 C54_3 1_555 1_555
C55_3 C52_3 1_555 1_555
H41_3 C55_3 1_555 1_555
C56_3 C57_3 1_555 1_555
C57_3 H42_3 1_555 1_555
C58_3 C57_3 1_555 1_555
H43_3 C58_3 1_555 1_555
C59_3 C58_3 1_555 1_555
H44_3 C59_3 1_555 1_555
C60_3 C59_3 1_555 1_555
N15_3 Ag2_4 1_555 1_555
N16_3 C56_3 1_555 1_555
H45_3 N16_3 1_555 1_555
N17_3 Ag2_4 1_555 1_555
Br6_3 C72_3 1_555 1_555
C61_3 N11_3 1_555 1_555
C62_3 C61_3 1_555 1_555
H46_3 C62_3 1_555 1_555
C63_3 C62_3 1_555 1_555
H47_3 C63_3 1_555 1_555
C64_3 C63_3 1_555 1_555
C65_3 C64_3 1_555 1_555
H48_3 C65_3 1_555 1_555
C66_3 C61_3 1_555 1_555
H49_3 C66_3 1_555 1_555
C67_3 C64_3 1_555 1_555
H50_3 C67_3 1_555 1_555
C68_3 C69_3 1_555 1_555
C69_3 H51_3 1_555 1_555
C70_3 C69_3 1_555 1_555
H52_3 C70_3 1_555 1_555
C71_3 C70_3 1_555 1_555
H53_3 C71_3 1_555 1_555
C72_3 C71_3 1_555 1_555
N22 C67_3 1_555 1_555
N19_3 C68_3 1_555 1_555
H54_3 N19_3 1_555 1_555
N24 C68_3 1_555 1_555
C5_3 C6_3 1_555 1_555
C17_3 C18_3 1_555 1_555
C24_3 N7_3 1_555 1_555
N5_3 N6_3 1_555 1_555
N7_3 Ag2_4 1_555 1_555
C41_3 C42_3 1_555 1_555
C48_3 N23_2 1_555 1_555
N21_2 N13_3 1_555 1_555
C53_3 C54_3 1_555 1_555
C55_3 N15_3 1_555 1_555
C56_3 N17_3 1_555 1_555
C60_3 N17_3 1_555 1_555
N15_3 N16_3 1_555 1_555
C65_3 C66_3 1_555 1_555
C72_3 N24 1_555 1_555
N22 N19_3 1_555 1_555
H39_4 C53_4 1_555 1_555
H40_4 C54_4 1_555 1_555
Br6_4 C72_4 1_555 1_555
C62_4 C61_4 1_555 1_555
H46_4 C62_4 1_555 1_555
C63_4 C62_4 1_555 1_555
H47_4 C63_4 1_555 1_555
C64_4 C63_4 1_555 1_555
C67_4 C64_4 1_555 1_555
H50_4 C67_4 1_555 1_555
C68_4 C69_4 1_555 1_555
C69_4 H51_4 1_555 1_555
C70_4 C69_4 1_555 1_555
H52_4 C70_4 1_555 1_555
C71_4 C70_4 1_555 1_555
H53_4 C71_4 1_555 1_555
C72_4 C71_4 1_555 1_555
N22_2 C67_4 1_555 1_555
N19_4 C68_4 1_555 1_555
H54_4 N19_4 1_555 1_555
N24_2 C68_4 1_555 1_555
C53_4 C54_4 1_555 1_555
C72_4 N24_2 1_555 1_555
N22_2 N19_4 1_555 1_555
H3_4 C5_4 1_555 1_555
H4_4 C6_4 1_555 1_555
C50_4 C49_4 1_555 1_555
C51_4 C50_4 1_555 1_555
H38_4 C51_4 1_555 1_555
C52_4 C51_4 1_555 1_555
C55_4 C52_4 1_555 1_555
H41_4 C55_4 1_555 1_555
C56_4 C57_4 1_555 1_555
C57_4 H42_4 1_555 1_555
C58_4 C57_4 1_555 1_555
H43_4 C58_4 1_555 1_555
C59_4 C58_4 1_555 1_555
H44_4 C59_4 1_555 1_555
C60_4 C59_4 1_555 1_555
N15_4 Ag2_5 1_555 1_555
N16_4 C56_4 1_555 1_555
H45_4 N16_4 1_555 1_555
N17_4 Ag2_5 1_555 1_555
C5_4 C6_4 1_555 1_555
C55_4 N15_4 1_555 1_555
C56_4 N17_4 1_555 1_555
C60_4 N17_4 1_555 1_555
N15_4 N16_4 1_555 1_555
H21_4 C29_4 1_555 1_555
H22_4 C30_4 1_555 1_555
C29_4 C30_4 1_555 1_555
Ag4_2 N2_4 1_555 1_555
C1_4 C2_4 1_555 1_555
C3_4 C2_4 1_555 1_555
H2_4 C3_4 1_555 1_555
C4_4 C3_4 1_555 1_555
C7_4 C4_4 1_555 1_555
H5_4 C7_4 1_555 1_555
C8_4 C9_4 1_555 1_555
C9_4 H6_4 1_555 1_555
C10_4 C9_4 1_555 1_555
H7_4 C10_4 1_555 1_555
C11_4 C10_4 1_555 1_555
H8_4 C11_4 1_555 1_555
C12_4 C11_4 1_555 1_555
N2_4 C7_4 1_555 1_555
N3_4 C8_4 1_555 1_555
H9_4 N3_4 1_555 1_555
N4_4 Ag4_2 1_555 1_555
C8_4 N4_4 1_555 1_555
C12_4 N4_4 1_555 1_555
N2_4 N3_4 1_555 1_555
H12_4 C17_4 1_555 1_555
H13_4 C18_4 1_555 1_555
H48_4 C65_4 1_555 1_555
H49_4 C66_4 1_555 1_555
C17_4 C18_4 1_555 1_555
C65_4 C66_4 1_555 1_555
C14_4 C13_4 1_555 1_555
C15_4 C14_4 1_555 1_555
H11_4 C15_4 1_555 1_555
C16_4 C15_4 1_555 1_555
C19_4 C16_4 1_555 1_555
H14_4 C19_4 1_555 1_555
C20_4 C21_4 1_555 1_555
C21_4 H15_4 1_555 1_555
C22_4 C21_4 1_555 1_555
H16_4 C22_4 1_555 1_555
C23_4 C22_4 1_555 1_555
H17_4 C23_4 1_555 1_555
C24_4 C23_4 1_555 1_555
N5_4 C19_4 1_555 1_555
N6_4 C20_4 1_555 1_555
H18_4 N6_4 1_555 1_555
N7_4 C20_4 1_555 1_555
Ag2_6 N5_4 1_555 1_555
C37_4 C38_4 1_555 1_555
C39_4 C38_4 1_555 1_555
H29_4 C39_4 1_555 1_555
C40_4 C39_4 1_555 1_555
C41_4 C40_4 1_555 1_555
H30_4 C41_4 1_555 1_555
C42_4 C37_4 1_555 1_555
H31_4 C42_4 1_555 1_555
C43_4 C40_4 1_555 1_555
H32_4 C43_4 1_555 1_555
C44_4 C45_4 1_555 1_555
C45_4 H33_4 1_555 1_555
C46_4 C45_4 1_555 1_555
H34_4 C46_4 1_555 1_555
C47_4 C46_4 1_555 1_555
H35_4 C47_4 1_555 1_555
C48_4 C47_4 1_555 1_555
N21 C43_4 1_555 1_555
N13_4 C44_4 1_555 1_555
H36_4 N13_4 1_555 1_555
N23 C44_4 1_555 1_555
C24_4 N7_4 1_555 1_555
N5_4 N6_4 1_555 1_555
N7_4 Ag2_6 1_555 1_555
C41_4 C42_4 1_555 1_555
C48_4 N23 1_555 1_555
N21 N13_4 1_555 1_555
C26_4 C25_4 1_555 1_555
C27_4 C26_4 1_555 1_555
H20_4 C27_4 1_555 1_555
C28_4 C27_4 1_555 1_555
C31_4 C28_4 1_555 1_555
H23_4 C31_4 1_555 1_555
C32_4 C33_4 1_555 1_555
C33_4 H24_4 1_555 1_555
C34_4 C33_4 1_555 1_555
H25_4 C34_4 1_555 1_555
C35_4 C34_4 1_555 1_555
H26_4 C35_4 1_555 1_555
C36_4 C35_4 1_555 1_555
N8_4 C31_4 1_555 1_555
N9_4 C32_4 1_555 1_555
H27_4 N9_4 1_555 1_555
N10_4 C32_4 1_555 1_555
Ag5_4 N8_4 1_555 1_555
C36_4 N10_4 1_555 1_555
N8_4 N9_4 1_555 1_555
N10_4 Ag5_4 1_555 1_555
O3 Cl1 1_555 1_555
O4 Cl1 1_555 1_555
Cl1_2 O1 1_555 1_555
O2 Cl1_2 1_555 1_555
Cl1_3 O1_2 1_555 1_555
O2_2 Cl1_3 1_555 1_555
O3_2 Cl1_3 1_555 1_555
O4_2 Cl1_3 1_555 1_555
Cl1_4 O1_3 1_555 1_555
O2_3 Cl1_4 1_555 1_555
O3_3 Cl1_5 1_555 1_555
O4_3 Cl1_5 1_555 1_555
Cl1_6 O1_4 1_555 1_555
O2_4 Cl1_6 1_555 1_555
O3_4 Cl1_6 1_555 1_555
O4_4 Cl1_6 1_555 1_555
O3_5 Cl1_7 1_555 1_555
O4_5 Cl1_7 1_555 1_555
Cl1_8 O1_5 1_555 1_555
O2_5 Cl1_8 1_555 1_555
Cl1_9 O1_6 1_555 1_555
O2_6 Cl1_9 1_555 1_555
O3_6 Cl1_9 1_555 1_555
O4_6 Cl1_9 1_555 1_555
Cl1_10 O1_7 1_555 1_555
O2_7 Cl1_10 1_555 1_555
O3_7 Cl1_11 1_555 1_555
O4_7 Cl1_11 1_555 1_555
Cl1_12 O1_8 1_555 1_555
O2_8 Cl1_12 1_555 1_555
O3_8 Cl1_12 1_555 1_555
O4_8 Cl1_12 1_555 1_555
O3_9 Cl1_13 1_555 1_555
O4_9 Cl1_13 1_555 1_555
Cl1_14 O1_9 1_555 1_555
O2_9 Cl1_14 1_555 1_555
Cl1_15 O1_10 1_555 1_555
O2_10 Cl1_15 1_555 1_555
O3_10 Cl1_15 1_555 1_555
O4_10 Cl1_15 1_555 1_555
Cl1_16 O1_11 1_555 1_555
O2_11 Cl1_16 1_555 1_555
O3_11 Cl1_17 1_555 1_555
O4_11 Cl1_17 1_555 1_555
Cl1_18 O1_12 1_555 1_555
O2_12 Cl1_18 1_555 1_555
O3_12 Cl1_18 1_555 1_555
O4_12 Cl1_18 1_555 1_555

#END
