
###############################################################################
#
# This file contains modified crystal structure data generated from the
# MOF subset of the Cambridge Structural Database (CSD) v543 
# hosted by the Cambridge Crystallographic Data Centre (CCDC).
#
# This work is licensed under the Creative Commons
# Attribution-NonCommercial-ShareAlike 4.0 International License.
# To view a copy of this license, visit
# http://creativecommons.org/licenses/by-nc-sa/4.0/
# or send a letter to
# Creative Commons, PO Box 1866, Mountain View, CA 94042, USA.
#
# CIF created using the CSD Python API on 29 September 2022
# The structure has been converted into the P1 space group
# The structure has a 3D framework
# The original CSD entry KENVOR01 is in the cubic crystal system
# The original CSD entry KENVOR01 is in a Sohncke space group
# The framework has been calculated to contain at least 10.0% void space
# The void calculation uses a probe of radius 1.32A, grid spacing 0.4
# The framework is charged, counterions have been retained in the structure
#
###############################################################################

data_KENVOR01
_chemical_formula_moiety         '(C288 H216 Ag14 Br24 Cl18 N80 O48 2+)n'
_symmetry_cell_setting           triclinic
_symmetry_space_group_name_H-M   'P 1'
_symmetry_Int_Tables_number      1
_space_group_name_Hall           'P 1'
loop_
_symmetry_equiv_pos_site_id
_symmetry_equiv_pos_as_xyz
1 x,y,z
_cell_length_a                   21.287(2)
_cell_length_b                   21.287(2)
_cell_length_c                   21.287(2)
_cell_angle_alpha                90
_cell_angle_beta                 90
_cell_angle_gamma                90
_cell_volume                     9645.91
loop_
_atom_site_label
_atom_site_type_symbol
_atom_site_fract_x
_atom_site_fract_y
_atom_site_fract_z
Br2 Br 0.22747(15) 0.08786(13) 0.09483(19)
C22 C 0.3904(13) 0.0255(11) 0.1753(13)
H16 H 0.4186 0.0391 0.2064
C23 C 0.3408(14) 0.0587(10) 0.1620(8)
H17 H 0.3356 0.0971 0.1832
C24 C 0.2966(10) 0.0421(9) 0.1202(10)
H14 H 0.3649 0.7989 0.0167
N5 N 0.3325(4) 0.8815(5) 0.0132(5)
C20 C 0.3581(7) 0.9513(8) 0.0981(7)
C21 C 0.4017(9) 0.9677(7) 0.1419(8)
H15 H 0.4372 0.9427 0.1500
N6 N 0.3660(6) 0.8966(6) 0.0676(5)
H18 H 0.3930 0.8696 0.0822
N7 N 0.3076(6) 0.9862(7) 0.0842(7)
Ag2 Ag 0.2500 0.95832(8) 0.0000
Ag1 Ag 0.45832(8) 0.5000 0.7500
Br1 Br 0.58786(13) 0.40517(19) 0.77253(15)
C1 C 0.2542(6) 0.6740(6) 0.7446(6)
C2 C 0.2158(6) 0.6261(7) 0.7212(7)
H1 H 0.1720 0.6308 0.7242
C3 C 0.2393(7) 0.5723(6) 0.6939(6)
H2 H 0.2120 0.5416 0.6777
C4 C 0.3020(5) 0.5642(5) 0.6908(5)
C5 C 0.3435(5) 0.6109(5) 0.7142(6)
H3 H 0.3872 0.6050 0.7125
C6 C 0.3183(6) 0.6654(6) 0.7395(6)
H4 H 0.3454 0.6973 0.7536
C7 C 0.3263(6) 0.5066(6) 0.6607(6)
H5 H 0.2989 0.4833 0.6351
C8 C 0.4513(8) 0.4019(7) 0.6419(7)
C9 C 0.4677(7) 0.3581(8) 0.5983(9)
H6 H 0.4427 0.3500 0.5628
C10 C 0.5255(11) 0.3247(13) 0.6096(13)
H7 H 0.5391 0.2936 0.5814
C11 C 0.5587(10) 0.3380(8) 0.6592(14)
H8 H 0.5971 0.3168 0.6644
C12 C 0.5421(9) 0.3798(10) 0.7034(10)
N1 N 0.2284(6) 0.7284(6) 0.7716(6)
N2 N 0.3815(5) 0.4868(5) 0.6675(4)
N3 N 0.3966(6) 0.4324(5) 0.6340(6)
H9 H 0.3696 0.4178 0.6070
N4 N 0.4862(7) 0.4158(7) 0.6924(6)
C13 C 0.2554(6) 0.7542(6) 0.8260(6)
C14 C 0.2788(7) 0.7158(6) 0.8739(7)
H10 H 0.2758 0.6720 0.8692
C15 C 0.3061(6) 0.7393(7) 0.9277(6)
H11 H 0.3223 0.7120 0.9584
C16 C 0.3092(5) 0.8020(5) 0.9358(5)
C17 C 0.2858(6) 0.8435(5) 0.8891(5)
H12 H 0.2875 0.8872 0.8950
C18 C 0.2605(6) 0.8183(6) 0.8346(6)
H13 H 0.2464 0.8454 0.8027
C19 C 0.3393(6) 0.8263(6) 0.9934(6)
C25 C 0.1740(6) 0.7554(6) 0.7458(6)
C26 C 0.1261(7) 0.7788(7) 0.7842(6)
H19 H 0.1308 0.7758 0.8280
C27 C 0.0723(6) 0.8061(6) 0.7607(7)
H20 H 0.0416 0.8223 0.7880
C28 C 0.0642(5) 0.8092(5) 0.6980(5)
C29 C 0.1109(5) 0.7858(6) 0.6565(5)
H21 H 0.1050 0.7875 0.6128
C30 C 0.1654(6) 0.7605(6) 0.6817(6)
H22 H 0.1973 0.7464 0.6546
C31 C 0.0066(6) 0.8393(6) 0.6737(6)
Ag2_2 Ag 0.2500 0.95832(8) 1.0000
Ag3 Ag 0.0000 0.7500 0.54168(8)
H50 H 0.0167 0.6351 0.7011
N18 N 0.0132(5) 0.6675(4) 0.6185(5)
Br6 Br 0.09483(19) 0.77253(15) 0.41214(13)
C68 C 0.0981(7) 0.6419(7) 0.5487(8)
C69 C 0.1419(8) 0.5983(9) 0.5323(7)
H51 H 0.1500 0.5628 0.5573
C70 C 0.1753(13) 0.6096(13) 0.4745(11)
H52 H 0.2064 0.5814 0.4609
C71 C 0.1620(8) 0.6592(14) 0.4413(10)
H53 H 0.1832 0.6644 0.4029
C72 C 0.1202(10) 0.7034(10) 0.4579(9)
N19 N 0.0676(5) 0.6340(6) 0.6034(6)
H54 H 0.0822 0.6070 0.6304
N20 N 0.0842(7) 0.6924(6) 0.5138(7)
N21 N 0.3815(5) 0.5132(5) 0.8325(4)
N22 N 0.1675(4) 0.8815(5) 0.9868(5)
N23 N 0.4862(7) 0.5842(7) 0.8076(6)
N24 N 0.1924(6) 0.9862(7) 0.9158(7)
Br4 Br 0.41214(13) 0.09483(19) 0.77253(15)
H32 H 0.7011 0.0167 0.6351
C44 C 0.5487(8) 0.0981(7) 0.6419(7)
C45 C 0.5323(7) 0.1419(8) 0.5983(9)
H33 H 0.5573 0.1500 0.5628
C46 C 0.4745(11) 0.1753(13) 0.6096(13)
H34 H 0.4609 0.2064 0.5814
C47 C 0.4413(10) 0.1620(8) 0.6592(14)
H35 H 0.4029 0.1832 0.6644
C48 C 0.4579(9) 0.1202(10) 0.7034(10)
N12 N 0.6185(5) 0.0132(5) 0.6675(4)
N13 N 0.6034(6) 0.0676(5) 0.6340(6)
H36 H 0.6304 0.0822 0.6070
N14 N 0.5138(7) 0.0842(7) 0.6924(6)
Ag4 Ag 0.54168(8) 0.0000 0.7500
H41 H 0.6351 0.7011 0.0167
N15 N 0.6675(4) 0.6185(5) 0.0132(5)
Br5 Br 0.77253(15) 0.41214(13) 0.09483(19)
C56 C 0.6419(7) 0.5487(8) 0.0981(7)
C57 C 0.5983(9) 0.5323(7) 0.1419(8)
H42 H 0.5628 0.5573 0.1500
C58 C 0.6096(13) 0.4745(11) 0.1753(13)
H43 H 0.5814 0.4609 0.2064
C59 C 0.6592(14) 0.4413(10) 0.1620(8)
H44 H 0.6644 0.4029 0.1832
C60 C 0.7034(10) 0.4579(9) 0.1202(10)
N16 N 0.6340(6) 0.6034(6) 0.0676(5)
H45 H 0.6070 0.6304 0.0822
N17 N 0.6924(6) 0.5138(7) 0.0842(7)
Ag5 Ag 0.7500 0.54168(8) 0.0000
H23 H 0.9833 0.8649 0.7011
N8 N 0.9868(5) 0.8325(4) 0.6185(5)
Br3 Br 0.90517(19) 0.72747(15) 0.41214(13)
C32 C 0.9019(7) 0.8581(7) 0.5487(8)
C33 C 0.8581(8) 0.9017(9) 0.5323(7)
H24 H 0.8500 0.9372 0.5573
C34 C 0.8247(13) 0.8904(13) 0.4745(11)
H25 H 0.7936 0.9186 0.4609
C35 C 0.8380(8) 0.8408(14) 0.4413(10)
H26 H 0.8168 0.8356 0.4029
C36 C 0.8798(10) 0.7966(10) 0.4579(9)
N9 N 0.9324(5) 0.8660(6) 0.6034(6)
H27 H 0.9178 0.8930 0.6304
N10 N 0.9158(7) 0.8076(6) 0.5138(7)
Ag3_2 Ag 1.0000 0.7500 0.54168(8)
C37 C 0.7458(6) 0.8260(6) 0.7446(6)
C38 C 0.7842(6) 0.8739(7) 0.7212(7)
H28 H 0.8280 0.8692 0.7242
C39 C 0.7607(7) 0.9277(6) 0.6939(6)
H29 H 0.7880 0.9584 0.6777
C40 C 0.6980(5) 0.9358(5) 0.6908(5)
C41 C 0.6565(5) 0.8891(5) 0.7142(6)
H30 H 0.6128 0.8950 0.7125
C42 C 0.6817(6) 0.8346(6) 0.7395(6)
H31 H 0.6546 0.8027 0.7536
C43 C 0.6737(6) 0.9934(6) 0.6607(6)
N11 N 0.7716(6) 0.7716(6) 0.7716(6)
C49 C 0.7446(6) 0.7458(6) 0.8260(6)
C50 C 0.7212(7) 0.7842(6) 0.8739(7)
H37 H 0.7242 0.8280 0.8692
C51 C 0.6939(6) 0.7607(7) 0.9277(6)
H38 H 0.6777 0.7880 0.9584
C52 C 0.6908(5) 0.6980(5) 0.9358(5)
C53 C 0.7142(6) 0.6565(5) 0.8891(5)
H39 H 0.7125 0.6128 0.8950
C54 C 0.7395(6) 0.6817(6) 0.8346(6)
H40 H 0.7536 0.6546 0.8027
C55 C 0.6607(6) 0.6737(6) 0.9934(6)
C61 C 0.8260(6) 0.7446(6) 0.7458(6)
C62 C 0.8739(7) 0.7212(7) 0.7842(6)
H46 H 0.8692 0.7242 0.8280
C63 C 0.9277(6) 0.6939(6) 0.7607(7)
H47 H 0.9584 0.6777 0.7880
C64 C 0.9358(5) 0.6908(5) 0.6980(5)
C65 C 0.8891(5) 0.7142(6) 0.6565(5)
H48 H 0.8950 0.7125 0.6128
C66 C 0.8346(6) 0.7395(6) 0.6817(6)
H49 H 0.8027 0.7536 0.6546
C67 C 0.9934(6) 0.6607(6) 0.6737(6)
Ag4_2 Ag 0.54168(8) 1.0000 0.7500
Ag5_2 Ag 0.7500 0.54168(8) 1.0000
Ag1_2 Ag 0.04168(8) 0.5000 0.2500
C1_2 C 0.2458(6) 0.3260(6) 0.2446(6)
C2_2 C 0.2842(6) 0.3739(7) 0.2212(7)
H1_2 H 0.3280 0.3692 0.2242
C3_2 C 0.2607(7) 0.4277(6) 0.1939(6)
H2_2 H 0.2880 0.4584 0.1777
C4_2 C 0.1980(5) 0.4358(5) 0.1908(5)
C5_2 C 0.1565(5) 0.3891(5) 0.2142(6)
H3_2 H 0.1128 0.3950 0.2125
C6_2 C 0.1817(6) 0.3346(6) 0.2395(6)
H4_2 H 0.1546 0.3027 0.2536
C7_2 C 0.1737(6) 0.4934(6) 0.1607(6)
H5_2 H 0.2011 0.5167 0.1351
C8_2 C 0.0487(8) 0.5981(7) 0.1419(7)
C9_2 C 0.0323(7) 0.6419(8) 0.0983(9)
H6_2 H 0.0573 0.6500 0.0628
N1_2 N 0.2716(6) 0.2716(6) 0.2716(6)
N2_2 N 0.1185(5) 0.5132(5) 0.1675(4)
N3_2 N 0.1034(6) 0.5676(5) 0.1340(6)
H9_2 H 0.1304 0.5822 0.1070
N4_2 N 0.0138(7) 0.5842(7) 0.1924(6)
C13_2 C 0.2446(6) 0.2458(6) 0.3260(6)
C14_2 C 0.2212(7) 0.2842(6) 0.3739(7)
H10_2 H 0.2242 0.3280 0.3692
C15_2 C 0.1939(6) 0.2607(7) 0.4277(6)
H11_2 H 0.1777 0.2880 0.4584
C16_2 C 0.1908(5) 0.1980(5) 0.4358(5)
C17_2 C 0.2142(6) 0.1565(5) 0.3891(5)
H12_2 H 0.2125 0.1128 0.3950
C18_2 C 0.2395(6) 0.1817(6) 0.3346(6)
H13_2 H 0.2536 0.1546 0.3027
C19_2 C 0.1607(6) 0.1737(6) 0.4934(6)
H14_2 H 0.1351 0.2011 0.5167
N5_2 N 0.1675(4) 0.1185(5) 0.5132(5)
C20_2 C 0.1419(7) 0.0487(8) 0.5981(7)
C21_2 C 0.0983(9) 0.0323(7) 0.6419(8)
H15_2 H 0.0628 0.0573 0.6500
N6_2 N 0.1340(6) 0.1034(6) 0.5676(5)
H18_2 H 0.1070 0.1304 0.5822
N7_2 N 0.1924(6) 0.0138(7) 0.5842(7)
C25_2 C 0.3260(6) 0.2446(6) 0.2458(6)
C26_2 C 0.3739(7) 0.2212(7) 0.2842(6)
H19_2 H 0.3692 0.2242 0.3280
C27_2 C 0.4277(6) 0.1939(6) 0.2607(7)
H20_2 H 0.4584 0.1777 0.2880
C28_2 C 0.4358(5) 0.1908(5) 0.1980(5)
C29_2 C 0.3891(5) 0.2142(6) 0.1565(5)
H21_2 H 0.3950 0.2125 0.1128
C30_2 C 0.3346(6) 0.2395(6) 0.1817(6)
H22_2 H 0.3027 0.2536 0.1546
C31_2 C 0.4934(6) 0.1607(6) 0.1737(6)
H23_2 H 0.5167 0.1351 0.2011
N8_2 N 0.5132(5) 0.1675(4) 0.1185(5)
C32_2 C 0.5981(7) 0.1419(7) 0.0487(8)
C33_2 C 0.6419(8) 0.0983(9) 0.0323(7)
H24_2 H 0.6500 0.0628 0.0573
N9_2 N 0.5676(5) 0.1340(6) 0.1034(6)
H27_2 H 0.5822 0.1070 0.1304
N10_2 N 0.5842(7) 0.1924(6) 0.0138(7)
Ag2_3 Ag 0.2500 0.04168(8) 0.5000
Ag3_3 Ag 0.5000 0.2500 0.04168(8)
C37_2 C 0.7542(6) 0.1740(6) 0.2446(6)
C38_2 C 0.7158(6) 0.1261(7) 0.2212(7)
H28_2 H 0.6720 0.1308 0.2242
C39_2 C 0.7393(7) 0.0723(6) 0.1939(6)
H29_2 H 0.7120 0.0416 0.1777
C40_2 C 0.8020(5) 0.0642(5) 0.1908(5)
C41_2 C 0.8435(5) 0.1109(5) 0.2142(6)
H30_2 H 0.8872 0.1050 0.2125
C42_2 C 0.8183(6) 0.1654(6) 0.2395(6)
H31_2 H 0.8454 0.1973 0.2536
C43_2 C 0.8263(6) 0.0066(6) 0.1607(6)
N11_2 N 0.7284(6) 0.2284(6) 0.2716(6)
C49_2 C 0.7554(6) 0.2542(6) 0.3260(6)
C50_2 C 0.7788(7) 0.2158(6) 0.3739(7)
H37_2 H 0.7758 0.1720 0.3692
C51_2 C 0.8061(6) 0.2393(7) 0.4277(6)
H38_2 H 0.8223 0.2120 0.4584
C52_2 C 0.8092(5) 0.3020(5) 0.4358(5)
C53_2 C 0.7858(6) 0.3435(5) 0.3891(5)
H39_2 H 0.7875 0.3872 0.3950
C54_2 C 0.7605(6) 0.3183(6) 0.3346(6)
H40_2 H 0.7464 0.3454 0.3027
C55_2 C 0.8393(6) 0.3263(6) 0.4934(6)
H41_2 H 0.8649 0.2989 0.5167
N15_2 N 0.8325(4) 0.3815(5) 0.5132(5)
Br5_2 Br 0.72747(15) 0.58786(13) 0.59483(19)
C56_2 C 0.8581(7) 0.4513(8) 0.5981(7)
C57_2 C 0.9017(9) 0.4677(7) 0.6419(8)
H42_2 H 0.9372 0.4427 0.6500
C58_2 C 0.8904(13) 0.5255(11) 0.6753(13)
H43_2 H 0.9186 0.5391 0.7064
C59_2 C 0.8408(14) 0.5587(10) 0.6620(8)
H44_2 H 0.8356 0.5971 0.6832
C60_2 C 0.7966(10) 0.5421(9) 0.6202(10)
N16_2 N 0.8660(6) 0.3966(6) 0.5676(5)
H45_2 H 0.8930 0.3696 0.5822
N17_2 N 0.8076(6) 0.4862(7) 0.5842(7)
C61_2 C 0.6740(6) 0.2554(6) 0.2458(6)
C62_2 C 0.6261(7) 0.2788(7) 0.2842(6)
H46_2 H 0.6308 0.2758 0.3280
C63_2 C 0.5723(6) 0.3061(6) 0.2607(7)
H47_2 H 0.5416 0.3223 0.2880
C64_2 C 0.5642(5) 0.3092(5) 0.1980(5)
C65_2 C 0.6109(5) 0.2858(6) 0.1565(5)
H48_2 H 0.6050 0.2875 0.1128
C66_2 C 0.6654(6) 0.2605(6) 0.1817(6)
H49_2 H 0.6973 0.2464 0.1546
C67_2 C 0.5066(6) 0.3393(6) 0.1737(6)
H50_2 H 0.4833 0.3649 0.2011
N18_2 N 0.4868(5) 0.3325(4) 0.1185(5)
C68_2 C 0.4019(7) 0.3581(7) 0.0487(8)
C69_2 C 0.3581(8) 0.4017(9) 0.0323(7)
H51_2 H 0.3500 0.4372 0.0573
N19_2 N 0.4324(5) 0.3660(6) 0.1034(6)
H54_2 H 0.4178 0.3930 0.1304
N20_2 N 0.4158(7) 0.3076(6) 0.0138(7)
Ag4_3 Ag 0.95832(8) -0.0000 0.2500
Ag5_3 Ag 0.7500 0.45832(8) 0.5000
N21_2 N 0.1185(5) 0.4868(5) 0.3325(4)
N22_2 N 0.3325(4) 0.1185(5) 0.4868(5)
N23_2 N 0.0138(7) 0.4158(7) 0.3076(6)
N24_2 N 0.3076(6) 0.0138(7) 0.4158(7)
Br3_2 Br 0.59483(19) 0.27253(15) 0.91214(13)
C34_2 C 0.6753(13) 0.1096(13) 0.9745(11)
H25_2 H 0.7064 0.0814 0.9609
C35_2 C 0.6620(8) 0.1592(14) 0.9413(10)
H26_2 H 0.6832 0.1644 0.9029
C36_2 C 0.6202(10) 0.2034(10) 0.9579(9)
Br6_2 Br 0.40517(19) 0.22747(15) 0.91214(13)
C70_2 C 0.3247(13) 0.3904(13) 0.9745(11)
H52_2 H 0.2936 0.4186 0.9609
C71_2 C 0.3380(8) 0.3408(14) 0.9413(10)
H53_2 H 0.3168 0.3356 0.9029
C72_2 C 0.3798(10) 0.2966(10) 0.9579(9)
Br2_2 Br 0.27253(15) 0.91214(13) 0.59483(19)
C22_2 C 0.1096(13) 0.9745(11) 0.6753(13)
H16_2 H 0.0814 0.9609 0.7064
C23_2 C 0.1592(14) 0.9413(10) 0.6620(8)
H17_2 H 0.1644 0.9029 0.6832
C24_2 C 0.2034(10) 0.9579(9) 0.6202(10)
H32_2 H 0.7989 0.9833 0.1351
C44_2 C 0.9513(8) 0.9019(7) 0.1419(7)
C45_2 C 0.9677(7) 0.8581(8) 0.0983(9)
H33_2 H 0.9427 0.8500 0.0628
N12_2 N 0.8815(5) 0.9868(5) 0.1675(4)
N13_2 N 0.8966(6) 0.9324(5) 0.1340(6)
H36_2 H 0.8696 0.9178 0.1070
N14_2 N 0.9862(7) 0.9158(7) 0.1924(6)
Ag4_4 Ag 0.95832(8) 1.0000 0.2500
Br1_2 Br 0.91214(13) 0.59483(19) 0.27253(15)
C10_2 C 0.9745(11) 0.6753(13) 0.1096(13)
H7_2 H 0.9609 0.7064 0.0814
C11_2 C 0.9413(10) 0.6620(8) 0.1592(14)
H8_2 H 0.9029 0.6832 0.1644
C12_2 C 0.9579(9) 0.6202(10) 0.2034(10)
H23_3 H 0.0167 0.3649 0.7989
N8_3 N 0.0132(5) 0.3325(4) 0.8815(5)
C32_3 C 0.0981(7) 0.3581(7) 0.9513(8)
C33_3 C 0.1419(8) 0.4017(9) 0.9677(7)
H24_3 H 0.1500 0.4372 0.9427
N9_3 N 0.0676(5) 0.3660(6) 0.8966(6)
H27_3 H 0.0822 0.3930 0.8696
N10_3 N 0.0842(7) 0.3076(6) 0.9862(7)
Ag3_4 Ag 0.0000 0.2500 0.95832(8)
Br4_2 Br 0.58786(13) 0.59483(19) 0.72747(15)
C37_3 C 0.2542(6) 0.3260(6) 0.7554(6)
C38_3 C 0.2158(6) 0.3739(7) 0.7788(7)
H28_3 H 0.1720 0.3692 0.7758
C39_3 C 0.2393(7) 0.4277(6) 0.8061(6)
H29_3 H 0.2120 0.4584 0.8223
C40_3 C 0.3020(5) 0.4358(5) 0.8092(5)
C41_3 C 0.3435(5) 0.3891(5) 0.7858(6)
H30_3 H 0.3872 0.3950 0.7875
C42_3 C 0.3183(6) 0.3346(6) 0.7605(6)
H31_3 H 0.3454 0.3027 0.7464
C43_3 C 0.3263(6) 0.4934(6) 0.8393(6)
H32_3 H 0.2989 0.5167 0.8649
C44_3 C 0.4513(8) 0.5981(7) 0.8581(7)
C45_3 C 0.4677(7) 0.6419(8) 0.9017(9)
H33_3 H 0.4427 0.6500 0.9372
C46_2 C 0.5255(11) 0.6753(13) 0.8904(13)
H34_2 H 0.5391 0.7064 0.9186
C47_2 C 0.5587(10) 0.6620(8) 0.8408(14)
H35_2 H 0.5971 0.6832 0.8356
C48_2 C 0.5421(9) 0.6202(10) 0.7966(10)
N11_3 N 0.2284(6) 0.2716(6) 0.7284(6)
N13_3 N 0.3966(6) 0.5676(5) 0.8660(6)
H36_3 H 0.3696 0.5822 0.8930
C49_3 C 0.2554(6) 0.2458(6) 0.6740(6)
C50_3 C 0.2788(7) 0.2842(6) 0.6261(7)
H37_3 H 0.2758 0.3280 0.6308
C51_3 C 0.3061(6) 0.2607(7) 0.5723(6)
H38_3 H 0.3223 0.2880 0.5416
C52_3 C 0.3092(5) 0.1980(5) 0.5642(5)
C53_3 C 0.2858(6) 0.1565(5) 0.6109(5)
H39_3 H 0.2875 0.1128 0.6050
C54_3 C 0.2605(6) 0.1817(6) 0.6654(6)
H40_3 H 0.2464 0.1546 0.6973
C55_3 C 0.3393(6) 0.1737(6) 0.5066(6)
H41_3 H 0.3649 0.2011 0.4833
C56_3 C 0.3581(7) 0.0487(8) 0.4019(7)
C57_3 C 0.4017(9) 0.0323(7) 0.3581(8)
H42_3 H 0.4372 0.0573 0.3500
N16_3 N 0.3660(6) 0.1034(6) 0.4324(5)
H45_3 H 0.3930 0.1304 0.4178
C61_3 C 0.1740(6) 0.2446(6) 0.7542(6)
C62_3 C 0.1261(7) 0.2212(7) 0.7158(6)
H46_3 H 0.1308 0.2242 0.6720
C63_3 C 0.0723(6) 0.1939(6) 0.7393(7)
H47_3 H 0.0416 0.1777 0.7120
C64_3 C 0.0642(5) 0.1908(5) 0.8020(5)
C65_3 C 0.1109(5) 0.2142(6) 0.8435(5)
H48_3 H 0.1050 0.2125 0.8872
C66_3 C 0.1654(6) 0.2395(6) 0.8183(6)
H49_3 H 0.1973 0.2536 0.8454
C67_3 C 0.0066(6) 0.1607(6) 0.8263(6)
Br5_3 Br 0.22747(15) 0.91214(13) 0.40517(19)
C58_3 C 0.3904(13) 0.9745(11) 0.3247(13)
H43_3 H 0.4186 0.9609 0.2936
C59_3 C 0.3408(14) 0.9413(10) 0.3380(8)
H44_3 H 0.3356 0.9029 0.3168
C60_3 C 0.2966(10) 0.9579(9) 0.3798(10)
C1_3 C 0.7458(6) 0.1740(6) 0.7554(6)
C2_3 C 0.7842(6) 0.1261(7) 0.7788(7)
H1_3 H 0.8280 0.1308 0.7758
C3_3 C 0.7607(7) 0.0723(6) 0.8061(6)
H2_3 H 0.7880 0.0416 0.8223
C4_3 C 0.6980(5) 0.0642(5) 0.8092(5)
C5_3 C 0.6565(5) 0.1109(5) 0.7858(6)
H3_3 H 0.6128 0.1050 0.7875
C6_3 C 0.6817(6) 0.1654(6) 0.7605(6)
H4_3 H 0.6546 0.1973 0.7464
C7_3 C 0.6737(6) 0.0066(6) 0.8393(6)
N1_3 N 0.7716(6) 0.2284(6) 0.7284(6)
C13_3 C 0.7446(6) 0.2542(6) 0.6740(6)
C14_3 C 0.7212(7) 0.2158(6) 0.6261(7)
H10_3 H 0.7242 0.1720 0.6308
C15_3 C 0.6939(6) 0.2393(7) 0.5723(6)
H11_3 H 0.6777 0.2120 0.5416
C16_3 C 0.6908(5) 0.3020(5) 0.5642(5)
C17_3 C 0.7142(6) 0.3435(5) 0.6109(5)
H12_3 H 0.7125 0.3872 0.6050
C18_3 C 0.7395(6) 0.3183(6) 0.6654(6)
H13_3 H 0.7536 0.3454 0.6973
C19_3 C 0.6607(6) 0.3263(6) 0.5066(6)
H14_3 H 0.6351 0.2989 0.4833
N5_3 N 0.6675(4) 0.3815(5) 0.4868(5)
Br2_3 Br 0.77253(15) 0.58786(13) 0.40517(19)
C20_3 C 0.6419(7) 0.4513(8) 0.4019(7)
C21_3 C 0.5983(9) 0.4677(7) 0.3581(8)
H15_3 H 0.5628 0.4427 0.3500
C22_3 C 0.6096(13) 0.5255(11) 0.3247(13)
H16_3 H 0.5814 0.5391 0.2936
C23_3 C 0.6592(14) 0.5587(10) 0.3380(8)
H17_3 H 0.6644 0.5971 0.3168
C24_3 C 0.7034(10) 0.5421(9) 0.3798(10)
N6_3 N 0.6340(6) 0.3966(6) 0.4324(5)
H18_3 H 0.6070 0.3696 0.4178
N7_3 N 0.6924(6) 0.4862(7) 0.4158(7)
C25_3 C 0.8260(6) 0.2554(6) 0.7542(6)
C26_3 C 0.8739(7) 0.2788(7) 0.7158(6)
H19_3 H 0.8692 0.2758 0.6720
C27_3 C 0.9277(6) 0.3061(6) 0.7393(7)
H20_3 H 0.9584 0.3223 0.7120
C28_3 C 0.9358(5) 0.3092(5) 0.8020(5)
C29_3 C 0.8891(5) 0.2858(6) 0.8435(5)
H21_3 H 0.8950 0.2875 0.8872
C30_3 C 0.8346(6) 0.2605(6) 0.8183(6)
H22_3 H 0.8027 0.2464 0.8454
C31_3 C 0.9934(6) 0.3393(6) 0.8263(6)
Ag3_5 Ag 1.0000 0.2500 0.95832(8)
H50_3 H 0.9833 0.1351 0.7989
N18_3 N 0.9868(5) 0.1675(4) 0.8815(5)
C68_3 C 0.9019(7) 0.1419(7) 0.9513(8)
C69_3 C 0.8581(8) 0.0983(9) 0.9677(7)
H51_3 H 0.8500 0.0628 0.9427
N19_3 N 0.9324(5) 0.1340(6) 0.8966(6)
H54_3 H 0.9178 0.1070 0.8696
N20_3 N 0.9158(7) 0.1924(6) 0.9862(7)
Br1_3 Br 0.41214(13) 0.90517(19) 0.72747(15)
H5_3 H 0.7011 0.9833 0.8649
C8_3 C 0.5487(8) 0.9019(7) 0.8581(7)
C9_3 C 0.5323(7) 0.8581(8) 0.9017(9)
H6_3 H 0.5573 0.8500 0.9372
C10_3 C 0.4745(11) 0.8247(13) 0.8904(13)
H7_3 H 0.4609 0.7936 0.9186
C11_3 C 0.4413(10) 0.8380(8) 0.8408(14)
H8_3 H 0.4029 0.8168 0.8356
C12_3 C 0.4579(9) 0.8798(10) 0.7966(10)
N2_3 N 0.6185(5) 0.9868(5) 0.8325(4)
N3_3 N 0.6034(6) 0.9324(5) 0.8660(6)
H9_3 H 0.6304 0.9178 0.8930
N4_3 N 0.5138(7) 0.9158(7) 0.8076(6)
H5_4 H 0.7989 0.0167 0.3649
C8_4 C 0.9513(8) 0.0981(7) 0.3581(7)
C9_4 C 0.9677(7) 0.1419(8) 0.4017(9)
H6_4 H 0.9427 0.1500 0.4372
N2_4 N 0.8815(5) 0.0132(5) 0.3325(4)
N3_4 N 0.8966(6) 0.0676(5) 0.3660(6)
H9_4 H 0.8696 0.0822 0.3930
N4_4 N 0.9862(7) 0.0842(7) 0.3076(6)
C1_4 C 0.7542(6) 0.8260(6) 0.2554(6)
C2_4 C 0.7158(6) 0.8739(7) 0.2788(7)
H1_4 H 0.6720 0.8692 0.2758
C3_4 C 0.7393(7) 0.9277(6) 0.3061(6)
H2_4 H 0.7120 0.9584 0.3223
C4_4 C 0.8020(5) 0.9358(5) 0.3092(5)
C5_4 C 0.8435(5) 0.8891(5) 0.2858(6)
H3_4 H 0.8872 0.8950 0.2875
C6_4 C 0.8183(6) 0.8346(6) 0.2605(6)
H4_4 H 0.8454 0.8027 0.2464
C7_4 C 0.8263(6) 0.9934(6) 0.3393(6)
N1_4 N 0.7284(6) 0.7716(6) 0.2284(6)
C13_4 C 0.7554(6) 0.7458(6) 0.1740(6)
C14_4 C 0.7788(7) 0.7842(6) 0.1261(7)
H10_4 H 0.7758 0.8280 0.1308
C15_4 C 0.8061(6) 0.7607(7) 0.0723(6)
H11_4 H 0.8223 0.7880 0.0416
C16_4 C 0.8092(5) 0.6980(5) 0.0642(5)
C17_4 C 0.7858(6) 0.6565(5) 0.1109(5)
H12_4 H 0.7875 0.6128 0.1050
C18_4 C 0.7605(6) 0.6817(6) 0.1654(6)
H13_4 H 0.7464 0.6546 0.1973
C19_4 C 0.8393(6) 0.6737(6) 0.0066(6)
C25_4 C 0.6740(6) 0.7446(6) 0.2542(6)
C26_4 C 0.6261(7) 0.7212(7) 0.2158(6)
H19_4 H 0.6308 0.7242 0.1720
C27_4 C 0.5723(6) 0.6939(6) 0.2393(7)
H20_4 H 0.5416 0.6777 0.2120
C28_4 C 0.5642(5) 0.6908(5) 0.3020(5)
C29_4 C 0.6109(5) 0.7142(6) 0.3435(5)
H21_4 H 0.6050 0.7125 0.3872
C30_4 C 0.6654(6) 0.7395(6) 0.3183(6)
H22_4 H 0.6973 0.7536 0.3454
C31_4 C 0.5066(6) 0.6607(6) 0.3263(6)
H23_4 H 0.4833 0.6351 0.2989
N8_4 N 0.4868(5) 0.6675(4) 0.3815(5)
Br3_3 Br 0.40517(19) 0.77253(15) 0.58786(13)
C32_4 C 0.4019(7) 0.6419(7) 0.4513(8)
C33_4 C 0.3581(8) 0.5983(9) 0.4677(7)
H24_4 H 0.3500 0.5628 0.4427
C34_3 C 0.3247(13) 0.6096(13) 0.5255(11)
H25_3 H 0.2936 0.5814 0.5391
C35_3 C 0.3380(8) 0.6592(14) 0.5587(10)
H26_3 H 0.3168 0.6644 0.5971
C36_3 C 0.3798(10) 0.7034(10) 0.5421(9)
N9_4 N 0.4324(5) 0.6340(6) 0.3966(6)
H27_4 H 0.4178 0.6070 0.3696
N10_4 N 0.4158(7) 0.6924(6) 0.4862(7)
Ag3_6 Ag 0.5000 0.7500 0.45832(8)
C37_4 C 0.2458(6) 0.6740(6) 0.2554(6)
C38_4 C 0.2842(6) 0.6261(7) 0.2788(7)
H28_4 H 0.3280 0.6308 0.2758
C39_4 C 0.2607(7) 0.5723(6) 0.3061(6)
H29_4 H 0.2880 0.5416 0.3223
C40_4 C 0.1980(5) 0.5642(5) 0.3092(5)
C41_4 C 0.1565(5) 0.6109(5) 0.2858(6)
H30_4 H 0.1128 0.6050 0.2875
C42_4 C 0.1817(6) 0.6654(6) 0.2605(6)
H31_4 H 0.1546 0.6973 0.2464
C43_4 C 0.1737(6) 0.5066(6) 0.3393(6)
H32_4 H 0.2011 0.4833 0.3649
C44_4 C 0.0487(8) 0.4019(7) 0.3581(7)
C45_4 C 0.0323(7) 0.3581(8) 0.4017(9)
H33_4 H 0.0573 0.3500 0.4372
N11_4 N 0.2716(6) 0.7284(6) 0.2284(6)
N13_4 N 0.1034(6) 0.4324(5) 0.3660(6)
H36_4 H 0.1304 0.4178 0.3930
C49_4 C 0.2446(6) 0.7542(6) 0.1740(6)
C50_4 C 0.2212(7) 0.7158(6) 0.1261(7)
H37_4 H 0.2242 0.6720 0.1308
C51_4 C 0.1939(6) 0.7393(7) 0.0723(6)
H38_4 H 0.1777 0.7120 0.0416
C52_4 C 0.1908(5) 0.8020(5) 0.0642(5)
C53_4 C 0.2142(6) 0.8435(5) 0.1109(5)
H39_4 H 0.2125 0.8872 0.1050
C54_4 C 0.2395(6) 0.8183(6) 0.1654(6)
H40_4 H 0.2536 0.8454 0.1973
C55_4 C 0.1607(6) 0.8263(6) 0.0066(6)
C61_4 C 0.3260(6) 0.7554(6) 0.2542(6)
C62_4 C 0.3739(7) 0.7788(7) 0.2158(6)
H46_4 H 0.3692 0.7758 0.1720
C63_4 C 0.4277(6) 0.8061(6) 0.2393(7)
H47_4 H 0.4584 0.8223 0.2120
C64_4 C 0.4358(5) 0.8092(5) 0.3020(5)
C65_4 C 0.3891(5) 0.7858(6) 0.3435(5)
H48_4 H 0.3950 0.7875 0.3872
C66_4 C 0.3346(6) 0.7605(6) 0.3183(6)
H49_4 H 0.3027 0.7464 0.3454
C67_4 C 0.4934(6) 0.8393(6) 0.3263(6)
H50_4 H 0.5167 0.8649 0.2989
N18_4 N 0.5132(5) 0.8325(4) 0.3815(5)
Br6_3 Br 0.59483(19) 0.72747(15) 0.58786(13)
C68_4 C 0.5981(7) 0.8581(7) 0.4513(8)
C69_4 C 0.6419(8) 0.9017(9) 0.4677(7)
H51_4 H 0.6500 0.9372 0.4427
C70_3 C 0.6753(13) 0.8904(13) 0.5255(11)
H52_3 H 0.7064 0.9186 0.5391
C71_3 C 0.6620(8) 0.8408(14) 0.5587(10)
H53_3 H 0.6832 0.8356 0.5971
C72_3 C 0.6202(10) 0.7966(10) 0.5421(9)
N19_4 N 0.5676(5) 0.8660(6) 0.3966(6)
H54_4 H 0.5822 0.8930 0.3696
N20_4 N 0.5842(7) 0.8076(6) 0.4862(7)
H14_4 H 0.8649 0.7011 0.9833
N5_4 N 0.8325(4) 0.6185(5) 0.9868(5)
Br2_4 Br 0.72747(15) 0.41214(13) 0.90517(19)
C20_4 C 0.8581(7) 0.5487(8) 0.9019(7)
C21_4 C 0.9017(9) 0.5323(7) 0.8581(8)
H15_4 H 0.9372 0.5573 0.8500
C22_4 C 0.8904(13) 0.4745(11) 0.8247(13)
H16_4 H 0.9186 0.4609 0.7936
C23_4 C 0.8408(14) 0.4413(10) 0.8380(8)
H17_4 H 0.8356 0.4029 0.8168
C24_4 C 0.7966(10) 0.4579(9) 0.8798(10)
N6_4 N 0.8660(6) 0.6034(6) 0.9324(5)
H18_4 H 0.8930 0.6304 0.9178
N7_4 N 0.8076(6) 0.5138(7) 0.9158(7)
H41_4 H 0.1351 0.7989 0.9833
C56_4 C 0.1419(7) 0.9513(8) 0.9019(7)
C57_4 C 0.0983(9) 0.9677(7) 0.8581(8)
H42_4 H 0.0628 0.9427 0.8500
N16_4 N 0.1340(6) 0.8966(6) 0.9324(5)
H45_4 H 0.1070 0.8696 0.9178
Br4_3 Br 0.91214(13) 0.40517(19) 0.22747(15)
C46_3 C 0.9745(11) 0.3247(13) 0.3904(13)
H34_3 H 0.9609 0.2936 0.4186
C47_3 C 0.9413(10) 0.3380(8) 0.3408(14)
H35_3 H 0.9029 0.3168 0.3356
C48_3 C 0.9579(9) 0.3798(10) 0.2966(10)
Br4_4 Br 0.08786(13) 0.90517(19) 0.27253(15)
C46_4 C 0.0255(11) 0.8247(13) 0.1096(13)
H34_4 H 0.0391 0.7936 0.0814
C47_4 C 0.0587(10) 0.8380(8) 0.1592(14)
H35_4 H 0.0971 0.8168 0.1644
C48_4 C 0.0421(9) 0.8798(10) 0.2034(10)
Br3_4 Br 0.09483(19) 0.22747(15) 0.08786(13)
C34_4 C 0.1753(13) 0.3904(13) 0.0255(11)
H25_4 H 0.2064 0.4186 0.0391
C35_4 C 0.1620(8) 0.3408(14) 0.0587(10)
H26_4 H 0.1832 0.3356 0.0971
C36_4 C 0.1202(10) 0.2966(10) 0.0421(9)
Br6_4 Br 0.90517(19) 0.27253(15) 0.08786(13)
C70_4 C 0.8247(13) 0.1096(13) 0.0255(11)
H52_4 H 0.7936 0.0814 0.0391
C71_4 C 0.8380(8) 0.1592(14) 0.0587(10)
H53_4 H 0.8168 0.1644 0.0971
C72_4 C 0.8798(10) 0.2034(10) 0.0421(9)
Br1_4 Br 0.08786(13) 0.09483(19) 0.22747(15)
C10_4 C 0.0255(11) 0.1753(13) 0.3904(13)
H7_4 H 0.0391 0.2064 0.4186
C11_4 C 0.0587(10) 0.1620(8) 0.3408(14)
H8_4 H 0.0971 0.1832 0.3356
C12_4 C 0.0421(9) 0.1202(10) 0.2966(10)
Br5_4 Br 0.27253(15) 0.08786(13) 0.90517(19)
C58_4 C 0.1096(13) 0.0255(11) 0.8247(13)
H43_4 H 0.0814 0.0391 0.7936
C59_4 C 0.1592(14) 0.0587(10) 0.8380(8)
H44_4 H 0.1644 0.0971 0.8168
C60_4 C 0.2034(10) 0.0421(9) 0.8798(10)
Cl1 Cl 0.5000 0.7500 0.0631(4)
O1 O 0.4520(12) 0.7214(12) 0.0241(14)
O2 O 0.4736(8) 0.8107(13) 0.0935(9)
O3 O 0.5480(12) 0.7786(12) 0.0241(14)
O4 O 0.5264(8) 0.6893(13) 0.0935(9)
Cl1_2 Cl -0.0000 0.2500 0.5631(4)
O1_2 O 0.0480(12) 0.2786(12) 0.5241(14)
O2_2 O 0.0264(8) 0.1893(13) 0.5935(9)
Cl1_3 Cl 1.0000 0.2500 0.5631(4)
O3_2 O 0.9520(12) 0.2214(12) 0.5241(14)
O4_2 O 0.9736(8) 0.3107(13) 0.5935(9)
Cl1_4 Cl 0.5000 0.2500 0.4369(4)
O1_3 O 0.5480(12) 0.2214(12) 0.4759(14)
O2_3 O 0.5264(8) 0.3107(13) 0.4065(9)
O3_3 O 0.4520(12) 0.2786(12) 0.4759(14)
O4_3 O 0.4736(8) 0.1893(13) 0.4065(9)
Cl1_5 Cl 0.0000 0.7500 0.9369(4)
O3_4 O 0.0480(12) 0.7214(12) 0.9759(14)
O4_4 O 0.0264(8) 0.8107(13) 0.9065(9)
Cl1_6 Cl 1.0000 0.7500 0.9369(4)
O1_4 O 0.9520(12) 0.7786(12) 0.9759(14)
O2_4 O 0.9736(8) 0.6893(13) 0.9065(9)
Cl1_7 Cl 0.0631(4) 0.5000 0.7500
O1_5 O 0.0241(14) 0.4520(12) 0.7214(12)
O2_5 O 0.0935(9) 0.4736(8) 0.8107(13)
O3_5 O 0.0241(14) 0.5480(12) 0.7786(12)
O4_5 O 0.0935(9) 0.5264(8) 0.6893(13)
Cl1_8 Cl 0.5631(4) -0.0000 0.2500
O1_6 O 0.5241(14) 0.0480(12) 0.2786(12)
O2_6 O 0.5935(9) 0.0264(8) 0.1893(13)
Cl1_9 Cl 0.5631(4) 1.0000 0.2500
O3_6 O 0.5241(14) 0.9520(12) 0.2214(12)
O4_6 O 0.5935(9) 0.9736(8) 0.3107(13)
Cl1_10 Cl 0.4369(4) 0.5000 0.2500
O1_7 O 0.4759(14) 0.5480(12) 0.2214(12)
O2_7 O 0.4065(9) 0.5264(8) 0.3107(13)
O3_7 O 0.4759(14) 0.4520(12) 0.2786(12)
O4_7 O 0.4065(9) 0.4736(8) 0.1893(13)
Cl1_11 Cl 0.9369(4) 0.0000 0.7500
O3_8 O 0.9759(14) 0.0480(12) 0.7214(12)
O4_8 O 0.9065(9) 0.0264(8) 0.8107(13)
Cl1_12 Cl 0.9369(4) 1.0000 0.7500
O1_8 O 0.9759(14) 0.9520(12) 0.7786(12)
O2_8 O 0.9065(9) 0.9736(8) 0.6893(13)
Cl1_13 Cl 0.7500 0.0631(4) 0.5000
O1_9 O 0.7214(12) 0.0241(14) 0.4520(12)
O2_9 O 0.8107(13) 0.0935(9) 0.4736(8)
O3_9 O 0.7786(12) 0.0241(14) 0.5480(12)
O4_9 O 0.6893(13) 0.0935(9) 0.5264(8)
Cl1_14 Cl 0.2500 0.5631(4) -0.0000
O1_10 O 0.2786(12) 0.5241(14) 0.0480(12)
O2_10 O 0.1893(13) 0.5935(9) 0.0264(8)
Cl1_15 Cl 0.2500 0.5631(4) 1.0000
O3_10 O 0.2214(12) 0.5241(14) 0.9520(12)
O4_10 O 0.3107(13) 0.5935(9) 0.9736(8)
Cl1_16 Cl 0.2500 0.4369(4) 0.5000
O1_11 O 0.2214(12) 0.4759(14) 0.5480(12)
O2_11 O 0.3107(13) 0.4065(9) 0.5264(8)
O3_11 O 0.2786(12) 0.4759(14) 0.4520(12)
O4_11 O 0.1893(13) 0.4065(9) 0.4736(8)
Cl1_17 Cl 0.7500 0.9369(4) 0.0000
O3_12 O 0.7214(12) 0.9759(14) 0.0480(12)
O4_12 O 0.8107(13) 0.9065(9) 0.0264(8)
Cl1_18 Cl 0.7500 0.9369(4) 1.0000
O1_12 O 0.7786(12) 0.9759(14) 0.9520(12)
O2_12 O 0.6893(13) 0.9065(9) 0.9736(8)
loop_
_geom_bond_atom_site_label_1
_geom_bond_atom_site_label_2
_geom_bond_site_symmetry_1
_geom_bond_site_symmetry_2
Br2 C24 1_555 1_555
H16 C22 1_555 1_555
C23 C22 1_555 1_555
H17 C23 1_555 1_555
C24 C23 1_555 1_555
C20 C21 1_555 1_555
C21 H15 1_555 1_555
N6 N5 1_555 1_555
H18 N6 1_555 1_555
N7 C20 1_555 1_555
Ag2 N5 1_555 1_555
C20 N6 1_555 1_555
N7 Ag2 1_555 1_555
Ag1 N2 1_555 1_555
Br1 C12 1_555 1_555
C1 C2 1_555 1_555
C2 H1 1_555 1_555
C3 C2 1_555 1_555
H2 C3 1_555 1_555
C4 C3 1_555 1_555
C5 C4 1_555 1_555
H3 C5 1_555 1_555
C6 C1 1_555 1_555
H4 C6 1_555 1_555
C7 C4 1_555 1_555
H5 C7 1_555 1_555
C8 C9 1_555 1_555
C9 H6 1_555 1_555
C10 C9 1_555 1_555
H7 C10 1_555 1_555
C11 C10 1_555 1_555
H8 C11 1_555 1_555
C12 C11 1_555 1_555
N1 C1 1_555 1_555
N2 C7 1_555 1_555
N3 C8 1_555 1_555
H9 N3 1_555 1_555
N4 Ag1 1_555 1_555
C13 N1 1_555 1_555
C14 C13 1_555 1_555
H10 C14 1_555 1_555
C15 C14 1_555 1_555
H11 C15 1_555 1_555
C16 C15 1_555 1_555
C17 C16 1_555 1_555
H12 C17 1_555 1_555
C18 C13 1_555 1_555
H13 C18 1_555 1_555
C19 C16 1_555 1_555
C25 N1 1_555 1_555
C26 C25 1_555 1_555
H19 C26 1_555 1_555
C27 C26 1_555 1_555
H20 C27 1_555 1_555
C28 C27 1_555 1_555
C29 C28 1_555 1_555
H21 C29 1_555 1_555
C30 C25 1_555 1_555
H22 C30 1_555 1_555
C31 C28 1_555 1_555
N18 Ag3 1_555 1_555
Br6 C72 1_555 1_555
C68 C69 1_555 1_555
C69 H51 1_555 1_555
C70 C69 1_555 1_555
H52 C70 1_555 1_555
C71 C70 1_555 1_555
H53 C71 1_555 1_555
C72 C71 1_555 1_555
N19 N18 1_555 1_555
H54 N19 1_555 1_555
N20 Ag3 1_555 1_555
N21 Ag1 1_555 1_555
N22 Ag2_2 1_555 1_555
N23 Ag1 1_555 1_555
N24 Ag2_2 1_555 1_555
C5 C6 1_555 1_555
C8 N4 1_555 1_555
C12 N4 1_555 1_555
N2 N3 1_555 1_555
C17 C18 1_555 1_555
C29 C30 1_555 1_555
C68 N19 1_555 1_555
C68 N20 1_555 1_555
C72 N20 1_555 1_555
Br4 C48 1_555 1_555
C44 C45 1_555 1_555
C45 H33 1_555 1_555
C46 C45 1_555 1_555
H34 C46 1_555 1_555
C47 C46 1_555 1_555
H35 C47 1_555 1_555
C48 C47 1_555 1_555
N13 C44 1_555 1_555
H36 N13 1_555 1_555
N14 C44 1_555 1_555
Ag4 N12 1_555 1_555
C48 N14 1_555 1_555
N12 N13 1_555 1_555
N14 Ag4 1_555 1_555
Br5 C60 1_555 1_555
C56 C57 1_555 1_555
C57 H42 1_555 1_555
C58 C57 1_555 1_555
H43 C58 1_555 1_555
C59 C58 1_555 1_555
H44 C59 1_555 1_555
C60 C59 1_555 1_555
N16 N15 1_555 1_555
H45 N16 1_555 1_555
N17 C56 1_555 1_555
Ag5 N15 1_555 1_555
C56 N16 1_555 1_555
C60 N17 1_555 1_555
N17 Ag5 1_555 1_555
Br3 C36 1_555 1_555
C32 C33 1_555 1_555
C33 H24 1_555 1_555
C34 C33 1_555 1_555
H25 C34 1_555 1_555
C35 C34 1_555 1_555
H26 C35 1_555 1_555
C36 C35 1_555 1_555
N9 N8 1_555 1_555
H27 N9 1_555 1_555
N10 C32 1_555 1_555
Ag3_2 N8 1_555 1_555
C37 C38 1_555 1_555
C38 H28 1_555 1_555
C39 C38 1_555 1_555
H29 C39 1_555 1_555
C40 C39 1_555 1_555
C41 C40 1_555 1_555
H30 C41 1_555 1_555
C42 C37 1_555 1_555
H31 C42 1_555 1_555
C43 C40 1_555 1_555
N11 C37 1_555 1_555
C49 N11 1_555 1_555
C50 C49 1_555 1_555
H37 C50 1_555 1_555
C51 C50 1_555 1_555
H38 C51 1_555 1_555
C52 C51 1_555 1_555
C53 C52 1_555 1_555
H39 C53 1_555 1_555
C54 C49 1_555 1_555
H40 C54 1_555 1_555
C55 C52 1_555 1_555
C61 N11 1_555 1_555
C62 C61 1_555 1_555
H46 C62 1_555 1_555
C63 C62 1_555 1_555
H47 C63 1_555 1_555
C64 C63 1_555 1_555
C65 C64 1_555 1_555
H48 C65 1_555 1_555
C66 C61 1_555 1_555
H49 C66 1_555 1_555
C67 C64 1_555 1_555
C32 N9 1_555 1_555
C36 N10 1_555 1_555
N10 Ag3_2 1_555 1_555
C41 C42 1_555 1_555
C53 C54 1_555 1_555
C65 C66 1_555 1_555
Ag1_2 N2_2 1_555 1_555
C1_2 C2_2 1_555 1_555
C2_2 H1_2 1_555 1_555
C3_2 C2_2 1_555 1_555
H2_2 C3_2 1_555 1_555
C4_2 C3_2 1_555 1_555
C5_2 C4_2 1_555 1_555
H3_2 C5_2 1_555 1_555
C6_2 C1_2 1_555 1_555
H4_2 C6_2 1_555 1_555
C7_2 C4_2 1_555 1_555
H5_2 C7_2 1_555 1_555
C8_2 C9_2 1_555 1_555
C9_2 H6_2 1_555 1_555
N1_2 C1_2 1_555 1_555
N2_2 C7_2 1_555 1_555
N3_2 C8_2 1_555 1_555
H9_2 N3_2 1_555 1_555
N4_2 Ag1_2 1_555 1_555
C13_2 N1_2 1_555 1_555
C14_2 C13_2 1_555 1_555
H10_2 C14_2 1_555 1_555
C15_2 C14_2 1_555 1_555
H11_2 C15_2 1_555 1_555
C16_2 C15_2 1_555 1_555
C17_2 C16_2 1_555 1_555
H12_2 C17_2 1_555 1_555
C18_2 C13_2 1_555 1_555
H13_2 C18_2 1_555 1_555
C19_2 C16_2 1_555 1_555
H14_2 C19_2 1_555 1_555
N5_2 C19_2 1_555 1_555
C20_2 C21_2 1_555 1_555
C21_2 H15_2 1_555 1_555
N6_2 N5_2 1_555 1_555
H18_2 N6_2 1_555 1_555
N7_2 C20_2 1_555 1_555
C25_2 N1_2 1_555 1_555
C26_2 C25_2 1_555 1_555
H19_2 C26_2 1_555 1_555
C27_2 C26_2 1_555 1_555
H20_2 C27_2 1_555 1_555
C28_2 C27_2 1_555 1_555
C29_2 C28_2 1_555 1_555
H21_2 C29_2 1_555 1_555
C30_2 C25_2 1_555 1_555
H22_2 C30_2 1_555 1_555
C31_2 C28_2 1_555 1_555
H23_2 C31_2 1_555 1_555
N8_2 C31_2 1_555 1_555
C32_2 C33_2 1_555 1_555
C33_2 H24_2 1_555 1_555
N9_2 N8_2 1_555 1_555
H27_2 N9_2 1_555 1_555
N10_2 C32_2 1_555 1_555
Ag2_3 N5_2 1_555 1_555
Ag3_3 N8_2 1_555 1_555
C37_2 C38_2 1_555 1_555
C38_2 H28_2 1_555 1_555
C39_2 C38_2 1_555 1_555
H29_2 C39_2 1_555 1_555
C40_2 C39_2 1_555 1_555
C41_2 C40_2 1_555 1_555
H30_2 C41_2 1_555 1_555
C42_2 C37_2 1_555 1_555
H31_2 C42_2 1_555 1_555
C43_2 C40_2 1_555 1_555
N11_2 C37_2 1_555 1_555
C49_2 N11_2 1_555 1_555
C50_2 C49_2 1_555 1_555
H37_2 C50_2 1_555 1_555
C51_2 C50_2 1_555 1_555
H38_2 C51_2 1_555 1_555
C52_2 C51_2 1_555 1_555
C53_2 C52_2 1_555 1_555
H39_2 C53_2 1_555 1_555
C54_2 C49_2 1_555 1_555
H40_2 C54_2 1_555 1_555
C55_2 C52_2 1_555 1_555
H41_2 C55_2 1_555 1_555
N15_2 C55_2 1_555 1_555
Br5_2 C60_2 1_555 1_555
C56_2 C57_2 1_555 1_555
C57_2 H42_2 1_555 1_555
C58_2 C57_2 1_555 1_555
H43_2 C58_2 1_555 1_555
C59_2 C58_2 1_555 1_555
H44_2 C59_2 1_555 1_555
C60_2 C59_2 1_555 1_555
N16_2 N15_2 1_555 1_555
H45_2 N16_2 1_555 1_555
N17_2 C56_2 1_555 1_555
C61_2 N11_2 1_555 1_555
C62_2 C61_2 1_555 1_555
H46_2 C62_2 1_555 1_555
C63_2 C62_2 1_555 1_555
H47_2 C63_2 1_555 1_555
C64_2 C63_2 1_555 1_555
C65_2 C64_2 1_555 1_555
H48_2 C65_2 1_555 1_555
C66_2 C61_2 1_555 1_555
H49_2 C66_2 1_555 1_555
C67_2 C64_2 1_555 1_555
H50_2 C67_2 1_555 1_555
N18_2 Ag3_3 1_555 1_555
C68_2 C69_2 1_555 1_555
C69_2 H51_2 1_555 1_555
N19_2 N18_2 1_555 1_555
H54_2 N19_2 1_555 1_555
N20_2 Ag3_3 1_555 1_555
Ag5_3 N15_2 1_555 1_555
N21_2 Ag1_2 1_555 1_555
N22_2 Ag2_3 1_555 1_555
N23_2 Ag1_2 1_555 1_555
N24_2 Ag2_3 1_555 1_555
C5_2 C6_2 1_555 1_555
C8_2 N4_2 1_555 1_555
N2_2 N3_2 1_555 1_555
C17_2 C18_2 1_555 1_555
C20_2 N6_2 1_555 1_555
N7_2 Ag2_3 1_555 1_555
C29_2 C30_2 1_555 1_555
C32_2 N9_2 1_555 1_555
N10_2 Ag3_3 1_555 1_555
C41_2 C42_2 1_555 1_555
C53_2 C54_2 1_555 1_555
C56_2 N16_2 1_555 1_555
C60_2 N17_2 1_555 1_555
N17_2 Ag5_3 1_555 1_555
C65_2 C66_2 1_555 1_555
C67_2 N18_2 1_555 1_555
C68_2 N19_2 1_555 1_555
C68_2 N20_2 1_555 1_555
Br3_2 C36_2 1_555 1_555
H25_2 C34_2 1_555 1_555
C35_2 C34_2 1_555 1_555
H26_2 C35_2 1_555 1_555
C36_2 C35_2 1_555 1_555
Br6_2 C72_2 1_555 1_555
H52_2 C70_2 1_555 1_555
C71_2 C70_2 1_555 1_555
H53_2 C71_2 1_555 1_555
C72_2 C71_2 1_555 1_555
Br2_2 C24_2 1_555 1_555
H16_2 C22_2 1_555 1_555
C23_2 C22_2 1_555 1_555
H17_2 C23_2 1_555 1_555
C24_2 C23_2 1_555 1_555
C44_2 C45_2 1_555 1_555
C45_2 H33_2 1_555 1_555
N13_2 C44_2 1_555 1_555
H36_2 N13_2 1_555 1_555
N14_2 C44_2 1_555 1_555
Ag4_4 N12_2 1_555 1_555
N12_2 N13_2 1_555 1_555
N14_2 Ag4_4 1_555 1_555
Br1_2 C12_2 1_555 1_555
H7_2 C10_2 1_555 1_555
C11_2 C10_2 1_555 1_555
H8_2 C11_2 1_555 1_555
C12_2 C11_2 1_555 1_555
C32_3 C33_3 1_555 1_555
C33_3 H24_3 1_555 1_555
N9_3 N8_3 1_555 1_555
H27_3 N9_3 1_555 1_555
N10_3 C32_3 1_555 1_555
Ag3_4 N8_3 1_555 1_555
Br4_2 C48_2 1_555 1_555
C37_3 C38_3 1_555 1_555
C38_3 H28_3 1_555 1_555
C39_3 C38_3 1_555 1_555
H29_3 C39_3 1_555 1_555
C40_3 C39_3 1_555 1_555
C41_3 C40_3 1_555 1_555
H30_3 C41_3 1_555 1_555
C42_3 C37_3 1_555 1_555
H31_3 C42_3 1_555 1_555
C43_3 C40_3 1_555 1_555
H32_3 C43_3 1_555 1_555
C44_3 C45_3 1_555 1_555
C45_3 H33_3 1_555 1_555
C46_2 C45_3 1_555 1_555
H34_2 C46_2 1_555 1_555
C47_2 C46_2 1_555 1_555
H35_2 C47_2 1_555 1_555
C48_2 C47_2 1_555 1_555
N11_3 C37_3 1_555 1_555
N21 C43_3 1_555 1_555
N13_3 C44_3 1_555 1_555
H36_3 N13_3 1_555 1_555
N23 C44_3 1_555 1_555
C49_3 N11_3 1_555 1_555
C50_3 C49_3 1_555 1_555
H37_3 C50_3 1_555 1_555
C51_3 C50_3 1_555 1_555
H38_3 C51_3 1_555 1_555
C52_3 C51_3 1_555 1_555
C53_3 C52_3 1_555 1_555
H39_3 C53_3 1_555 1_555
C54_3 C49_3 1_555 1_555
H40_3 C54_3 1_555 1_555
C55_3 C52_3 1_555 1_555
H41_3 C55_3 1_555 1_555
N22_2 C55_3 1_555 1_555
C56_3 C57_3 1_555 1_555
C57_3 H42_3 1_555 1_555
N16_3 N22_2 1_555 1_555
H45_3 N16_3 1_555 1_555
N24_2 C56_3 1_555 1_555
C61_3 N11_3 1_555 1_555
C62_3 C61_3 1_555 1_555
H46_3 C62_3 1_555 1_555
C63_3 C62_3 1_555 1_555
H47_3 C63_3 1_555 1_555
C64_3 C63_3 1_555 1_555
C65_3 C64_3 1_555 1_555
H48_3 C65_3 1_555 1_555
C66_3 C61_3 1_555 1_555
H49_3 C66_3 1_555 1_555
C67_3 C64_3 1_555 1_555
C32_3 N9_3 1_555 1_555
N10_3 Ag3_4 1_555 1_555
C41_3 C42_3 1_555 1_555
C48_2 N23 1_555 1_555
N21 N13_3 1_555 1_555
C53_3 C54_3 1_555 1_555
C56_3 N16_3 1_555 1_555
C65_3 C66_3 1_555 1_555
Br5_3 C60_3 1_555 1_555
H43_3 C58_3 1_555 1_555
C59_3 C58_3 1_555 1_555
H44_3 C59_3 1_555 1_555
C60_3 C59_3 1_555 1_555
C1_3 C2_3 1_555 1_555
C2_3 H1_3 1_555 1_555
C3_3 C2_3 1_555 1_555
H2_3 C3_3 1_555 1_555
C4_3 C3_3 1_555 1_555
C5_3 C4_3 1_555 1_555
H3_3 C5_3 1_555 1_555
C6_3 C1_3 1_555 1_555
H4_3 C6_3 1_555 1_555
C7_3 C4_3 1_555 1_555
N1_3 C1_3 1_555 1_555
C13_3 N1_3 1_555 1_555
C14_3 C13_3 1_555 1_555
H10_3 C14_3 1_555 1_555
C15_3 C14_3 1_555 1_555
H11_3 C15_3 1_555 1_555
C16_3 C15_3 1_555 1_555
C17_3 C16_3 1_555 1_555
H12_3 C17_3 1_555 1_555
C18_3 C13_3 1_555 1_555
H13_3 C18_3 1_555 1_555
C19_3 C16_3 1_555 1_555
H14_3 C19_3 1_555 1_555
N5_3 C19_3 1_555 1_555
Br2_3 C24_3 1_555 1_555
C20_3 C21_3 1_555 1_555
C21_3 H15_3 1_555 1_555
C22_3 C21_3 1_555 1_555
H16_3 C22_3 1_555 1_555
C23_3 C22_3 1_555 1_555
H17_3 C23_3 1_555 1_555
C24_3 C23_3 1_555 1_555
N6_3 N5_3 1_555 1_555
H18_3 N6_3 1_555 1_555
N7_3 C20_3 1_555 1_555
C25_3 N1_3 1_555 1_555
C26_3 C25_3 1_555 1_555
H19_3 C26_3 1_555 1_555
C27_3 C26_3 1_555 1_555
H20_3 C27_3 1_555 1_555
C28_3 C27_3 1_555 1_555
C29_3 C28_3 1_555 1_555
H21_3 C29_3 1_555 1_555
C30_3 C25_3 1_555 1_555
H22_3 C30_3 1_555 1_555
C31_3 C28_3 1_555 1_555
Ag5_3 N5_3 1_555 1_555
N18_3 Ag3_5 1_555 1_555
C68_3 C69_3 1_555 1_555
C69_3 H51_3 1_555 1_555
N19_3 N18_3 1_555 1_555
H54_3 N19_3 1_555 1_555
N20_3 Ag3_5 1_555 1_555
C5_3 C6_3 1_555 1_555
C17_3 C18_3 1_555 1_555
C20_3 N6_3 1_555 1_555
C24_3 N7_3 1_555 1_555
N7_3 Ag5_3 1_555 1_555
C29_3 C30_3 1_555 1_555
C68_3 N19_3 1_555 1_555
C68_3 N20_3 1_555 1_555
Ag4_2 N2_3 1_555 1_555
Br1_3 C12_3 1_555 1_555
C8_3 C9_3 1_555 1_555
C9_3 H6_3 1_555 1_555
C10_3 C9_3 1_555 1_555
H7_3 C10_3 1_555 1_555
C11_3 C10_3 1_555 1_555
H8_3 C11_3 1_555 1_555
C12_3 C11_3 1_555 1_555
N3_3 C8_3 1_555 1_555
H9_3 N3_3 1_555 1_555
N4_3 Ag4_2 1_555 1_555
C8_3 N4_3 1_555 1_555
C12_3 N4_3 1_555 1_555
N2_3 N3_3 1_555 1_555
Ag4_3 N2_4 1_555 1_555
C8_4 C9_4 1_555 1_555
C9_4 H6_4 1_555 1_555
N3_4 C8_4 1_555 1_555
H9_4 N3_4 1_555 1_555
N4_4 Ag4_3 1_555 1_555
C8_4 N4_4 1_555 1_555
N2_4 N3_4 1_555 1_555
C1_4 C2_4 1_555 1_555
C2_4 H1_4 1_555 1_555
C3_4 C2_4 1_555 1_555
H2_4 C3_4 1_555 1_555
C4_4 C3_4 1_555 1_555
C5_4 C4_4 1_555 1_555
H3_4 C5_4 1_555 1_555
C6_4 C1_4 1_555 1_555
H4_4 C6_4 1_555 1_555
C7_4 C4_4 1_555 1_555
N1_4 C1_4 1_555 1_555
C13_4 N1_4 1_555 1_555
C14_4 C13_4 1_555 1_555
H10_4 C14_4 1_555 1_555
C15_4 C14_4 1_555 1_555
H11_4 C15_4 1_555 1_555
C16_4 C15_4 1_555 1_555
C17_4 C16_4 1_555 1_555
H12_4 C17_4 1_555 1_555
C18_4 C13_4 1_555 1_555
H13_4 C18_4 1_555 1_555
C19_4 C16_4 1_555 1_555
C25_4 N1_4 1_555 1_555
C26_4 C25_4 1_555 1_555
H19_4 C26_4 1_555 1_555
C27_4 C26_4 1_555 1_555
H20_4 C27_4 1_555 1_555
C28_4 C27_4 1_555 1_555
C29_4 C28_4 1_555 1_555
H21_4 C29_4 1_555 1_555
C30_4 C25_4 1_555 1_555
H22_4 C30_4 1_555 1_555
C31_4 C28_4 1_555 1_555
H23_4 C31_4 1_555 1_555
N8_4 C31_4 1_555 1_555
Br3_3 C36_3 1_555 1_555
C32_4 C33_4 1_555 1_555
C33_4 H24_4 1_555 1_555
C34_3 C33_4 1_555 1_555
H25_3 C34_3 1_555 1_555
C35_3 C34_3 1_555 1_555
H26_3 C35_3 1_555 1_555
C36_3 C35_3 1_555 1_555
N9_4 N8_4 1_555 1_555
H27_4 N9_4 1_555 1_555
N10_4 C32_4 1_555 1_555
Ag3_6 N8_4 1_555 1_555
C37_4 C38_4 1_555 1_555
C38_4 H28_4 1_555 1_555
C39_4 C38_4 1_555 1_555
H29_4 C39_4 1_555 1_555
C40_4 C39_4 1_555 1_555
C41_4 C40_4 1_555 1_555
H30_4 C41_4 1_555 1_555
C42_4 C37_4 1_555 1_555
H31_4 C42_4 1_555 1_555
C43_4 C40_4 1_555 1_555
H32_4 C43_4 1_555 1_555
C44_4 C45_4 1_555 1_555
C45_4 H33_4 1_555 1_555
N11_4 C37_4 1_555 1_555
N21_2 C43_4 1_555 1_555
N13_4 C44_4 1_555 1_555
H36_4 N13_4 1_555 1_555
N23_2 C44_4 1_555 1_555
C49_4 N11_4 1_555 1_555
C50_4 C49_4 1_555 1_555
H37_4 C50_4 1_555 1_555
C51_4 C50_4 1_555 1_555
H38_4 C51_4 1_555 1_555
C52_4 C51_4 1_555 1_555
C53_4 C52_4 1_555 1_555
H39_4 C53_4 1_555 1_555
C54_4 C49_4 1_555 1_555
H40_4 C54_4 1_555 1_555
C55_4 C52_4 1_555 1_555
C61_4 N11_4 1_555 1_555
C62_4 C61_4 1_555 1_555
H46_4 C62_4 1_555 1_555
C63_4 C62_4 1_555 1_555
H47_4 C63_4 1_555 1_555
C64_4 C63_4 1_555 1_555
C65_4 C64_4 1_555 1_555
H48_4 C65_4 1_555 1_555
C66_4 C61_4 1_555 1_555
H49_4 C66_4 1_555 1_555
C67_4 C64_4 1_555 1_555
H50_4 C67_4 1_555 1_555
N18_4 Ag3_6 1_555 1_555
Br6_3 C72_3 1_555 1_555
C68_4 C69_4 1_555 1_555
C69_4 H51_4 1_555 1_555
C70_3 C69_4 1_555 1_555
H52_3 C70_3 1_555 1_555
C71_3 C70_3 1_555 1_555
H53_3 C71_3 1_555 1_555
C72_3 C71_3 1_555 1_555
N19_4 N18_4 1_555 1_555
H54_4 N19_4 1_555 1_555
N20_4 Ag3_6 1_555 1_555
C5_4 C6_4 1_555 1_555
C17_4 C18_4 1_555 1_555
C29_4 C30_4 1_555 1_555
C32_4 N9_4 1_555 1_555
C36_3 N10_4 1_555 1_555
N10_4 Ag3_6 1_555 1_555
C41_4 C42_4 1_555 1_555
N21_2 N13_4 1_555 1_555
C53_4 C54_4 1_555 1_555
C65_4 C66_4 1_555 1_555
C67_4 N18_4 1_555 1_555
C68_4 N19_4 1_555 1_555
C68_4 N20_4 1_555 1_555
C72_3 N20_4 1_555 1_555
Br2_4 C24_4 1_555 1_555
C20_4 C21_4 1_555 1_555
C21_4 H15_4 1_555 1_555
C22_4 C21_4 1_555 1_555
H16_4 C22_4 1_555 1_555
C23_4 C22_4 1_555 1_555
H17_4 C23_4 1_555 1_555
C24_4 C23_4 1_555 1_555
N6_4 N5_4 1_555 1_555
H18_4 N6_4 1_555 1_555
N7_4 C20_4 1_555 1_555
Ag5_2 N5_4 1_555 1_555
C56_4 C57_4 1_555 1_555
C57_4 H42_4 1_555 1_555
N16_4 N22 1_555 1_555
H45_4 N16_4 1_555 1_555
N24 C56_4 1_555 1_555
C20_4 N6_4 1_555 1_555
C24_4 N7_4 1_555 1_555
N7_4 Ag5_2 1_555 1_555
C56_4 N16_4 1_555 1_555
Br4_3 C48_3 1_555 1_555
H34_3 C46_3 1_555 1_555
C47_3 C46_3 1_555 1_555
H35_3 C47_3 1_555 1_555
C48_3 C47_3 1_555 1_555
Br4_4 C48_4 1_555 1_555
H34_4 C46_4 1_555 1_555
C47_4 C46_4 1_555 1_555
H35_4 C47_4 1_555 1_555
C48_4 C47_4 1_555 1_555
Br3_4 C36_4 1_555 1_555
H25_4 C34_4 1_555 1_555
C35_4 C34_4 1_555 1_555
H26_4 C35_4 1_555 1_555
C36_4 C35_4 1_555 1_555
Br6_4 C72_4 1_555 1_555
H52_4 C70_4 1_555 1_555
C71_4 C70_4 1_555 1_555
H53_4 C71_4 1_555 1_555
C72_4 C71_4 1_555 1_555
Br1_4 C12_4 1_555 1_555
H7_4 C10_4 1_555 1_555
C11_4 C10_4 1_555 1_555
H8_4 C11_4 1_555 1_555
C12_4 C11_4 1_555 1_555
Br5_4 C60_4 1_555 1_555
H43_4 C58_4 1_555 1_555
C59_4 C58_4 1_555 1_555
H44_4 C59_4 1_555 1_555
C60_4 C59_4 1_555 1_555
Cl1 O1 1_555 1_555
O2 Cl1 1_555 1_555
O3 Cl1 1_555 1_555
O4 Cl1 1_555 1_555
Cl1_2 O1_2 1_555 1_555
O2_2 Cl1_2 1_555 1_555
O3_2 Cl1_3 1_555 1_555
O4_2 Cl1_3 1_555 1_555
Cl1_4 O1_3 1_555 1_555
O2_3 Cl1_4 1_555 1_555
O3_3 Cl1_4 1_555 1_555
O4_3 Cl1_4 1_555 1_555
O3_4 Cl1_5 1_555 1_555
O4_4 Cl1_5 1_555 1_555
Cl1_6 O1_4 1_555 1_555
O2_4 Cl1_6 1_555 1_555
Cl1_7 O1_5 1_555 1_555
O2_5 Cl1_7 1_555 1_555
O3_5 Cl1_7 1_555 1_555
O4_5 Cl1_7 1_555 1_555
Cl1_8 O1_6 1_555 1_555
O2_6 Cl1_8 1_555 1_555
O3_6 Cl1_9 1_555 1_555
O4_6 Cl1_9 1_555 1_555
Cl1_10 O1_7 1_555 1_555
O2_7 Cl1_10 1_555 1_555
O3_7 Cl1_10 1_555 1_555
O4_7 Cl1_10 1_555 1_555
O3_8 Cl1_11 1_555 1_555
O4_8 Cl1_11 1_555 1_555
Cl1_12 O1_8 1_555 1_555
O2_8 Cl1_12 1_555 1_555
Cl1_13 O1_9 1_555 1_555
O2_9 Cl1_13 1_555 1_555
O3_9 Cl1_13 1_555 1_555
O4_9 Cl1_13 1_555 1_555
Cl1_14 O1_10 1_555 1_555
O2_10 Cl1_14 1_555 1_555
O3_10 Cl1_15 1_555 1_555
O4_10 Cl1_15 1_555 1_555
Cl1_16 O1_11 1_555 1_555
O2_11 Cl1_16 1_555 1_555
O3_11 Cl1_16 1_555 1_555
O4_11 Cl1_16 1_555 1_555
O3_12 Cl1_17 1_555 1_555
O4_12 Cl1_17 1_555 1_555
Cl1_18 O1_12 1_555 1_555
O2_12 Cl1_18 1_555 1_555

#END
