
###############################################################################
#
# This file contains modified crystal structure data generated from the
# MOF subset of the Cambridge Structural Database (CSD) v543 
# hosted by the Cambridge Crystallographic Data Centre (CCDC).
#
# This work is licensed under the Creative Commons
# Attribution-NonCommercial-ShareAlike 4.0 International License.
# To view a copy of this license, visit
# http://creativecommons.org/licenses/by-nc-sa/4.0/
# or send a letter to
# Creative Commons, PO Box 1866, Mountain View, CA 94042, USA.
#
# CIF created using the CSD Python API on 29 September 2022
# The structure has been converted into the P1 space group
# The structure has a 3D framework
# The original CSD entry KENVIL is in the cubic crystal system
# The original CSD entry KENVIL is in a Sohncke space group
# The framework has been calculated to contain at least 10.0% void space
# The void calculation uses a probe of radius 1.32A, grid spacing 0.4
# The framework is charged, counterions have been retained in the structure
#
###############################################################################

data_KENVIL
_chemical_formula_moiety         '(C288 H216 Ag14 Br24 Cl18 N80 O48 2+)n'
_symmetry_cell_setting           triclinic
_symmetry_space_group_name_H-M   'P 1'
_symmetry_Int_Tables_number      1
_space_group_name_Hall           'P 1'
loop_
_symmetry_equiv_pos_site_id
_symmetry_equiv_pos_as_xyz
1 x,y,z
_cell_length_a                   21.2844(3)
_cell_length_b                   21.2844(3)
_cell_length_c                   21.2844(3)
_cell_angle_alpha                90
_cell_angle_beta                 90
_cell_angle_gamma                90
_cell_volume                     9642.38
loop_
_atom_site_label
_atom_site_type_symbol
_atom_site_fract_x
_atom_site_fract_y
_atom_site_fract_z
C2 C 0.6234(2) 0.0338(2) 0.5287(2)
H1 H 0.6188 0.0776 0.5264
C3 C 0.6759(2) 0.0088(2) 0.5556(2)
H2 H 0.7065 0.0358 0.5725
N1 N 0.5207(2) 0.0207(2) 0.4793(2)
Br2 Br 0.51960(4) 0.34582(4) 0.84025(4)
C13 C 0.4952(2) 0.0770(2) 0.5048(2)
C14 C 0.4713(2) 0.1234(2) 0.4662(2)
H10 H 0.4736 0.1188 0.4224
C15 C 0.4444(2) 0.1759(2) 0.4912(2)
H11 H 0.4275 0.2065 0.4642
C16 C 0.4416(2) 0.1849(2) 0.5553(2)
C17 C 0.4657(2) 0.1387(2) 0.5944(2)
H12 H 0.4641 0.1440 0.6382
C18 C 0.4921(2) 0.0848(2) 0.5695(2)
H13 H 0.5080 0.0535 0.5963
C19 C 0.4117(2) 0.2422(2) 0.5787(2)
H14 H 0.3871 0.2658 0.5506
C20 C 0.3911(2) 0.3459(2) 0.7040(2)
C21 C 0.3469(3) 0.3923(2) 0.7209(3)
H15 H 0.3112 0.4000 0.6961
C22 C 0.3579(3) 0.4254(3) 0.7743(3)
H16 H 0.3294 0.4567 0.7867
C23 C 0.4103(3) 0.4138(3) 0.8108(3)
H17 H 0.4186 0.4371 0.8474
C24 C 0.4496(3) 0.3671(3) 0.7912(3)
N5 N 0.41702(18) 0.26186(18) 0.63461(18)
N6 N 0.3825(2) 0.3143(2) 0.6489(2)
H18 H 0.3545 0.3278 0.6223
N7 N 0.44133(19) 0.33277(19) 0.7389(2)
Br3 Br 0.15975(4) 0.01960(4) 0.15418(4)
H22 H 0.4037 0.0080 0.4465
Ag2 Ag 0.5000 0.2500 0.71288(3)
Ag3 Ag 0.28712(3) 0.0000 0.2500
Br4 Br 0.15418(4) 0.84025(4) 0.48040(4)
C37 C 0.4230(2) 0.5048(2) 0.5048(2)
C38 C 0.3766(2) 0.4662(2) 0.5287(2)
H28 H 0.3812 0.4224 0.5264
C39 C 0.3241(2) 0.4912(2) 0.5556(2)
H29 H 0.2935 0.4642 0.5725
C40 C 0.3151(2) 0.5553(2) 0.5584(2)
C41 C 0.3613(2) 0.5944(2) 0.5343(2)
H30 H 0.3560 0.6382 0.5359
C42 C 0.4152(2) 0.5695(2) 0.5079(2)
H31 H 0.4465 0.5963 0.4920
C43 C 0.2578(2) 0.5787(2) 0.5883(2)
H32 H 0.2342 0.5506 0.6129
C44 C 0.1541(2) 0.7040(2) 0.6089(2)
C45 C 0.1077(2) 0.7209(3) 0.6531(3)
H33 H 0.1000 0.6961 0.6888
C46 C 0.0746(3) 0.7743(3) 0.6421(3)
H34 H 0.0433 0.7867 0.6706
C47 C 0.0862(3) 0.8108(3) 0.5897(3)
H35 H 0.0629 0.8474 0.5814
C48 C 0.1329(3) 0.7912(3) 0.5504(3)
N11 N 0.4793(2) 0.4793(2) 0.4793(2)
N12 N 0.23814(18) 0.63461(18) 0.58298(18)
N13 N 0.1857(2) 0.6489(2) 0.6175(2)
H36 H 0.1722 0.6223 0.6455
N14 N 0.16723(19) 0.7389(2) 0.55867(19)
Br5 Br 0.48040(4) 0.15418(4) 0.84025(4)
C49 C 0.5048(2) 0.4230(2) 0.5048(2)
C50 C 0.5287(2) 0.3766(2) 0.4662(2)
H37 H 0.5264 0.3812 0.4224
C51 C 0.5556(2) 0.3241(2) 0.4912(2)
H38 H 0.5725 0.2935 0.4642
C52 C 0.5584(2) 0.3151(2) 0.5553(2)
C53 C 0.5343(2) 0.3613(2) 0.5944(2)
H39 H 0.5359 0.3560 0.6382
C54 C 0.5079(2) 0.4152(2) 0.5695(2)
H40 H 0.4920 0.4465 0.5963
C55 C 0.5883(2) 0.2578(2) 0.5787(2)
H41 H 0.6129 0.2342 0.5506
C56 C 0.6089(2) 0.1541(2) 0.7040(2)
C57 C 0.6531(3) 0.1077(2) 0.7209(3)
H42 H 0.6888 0.1000 0.6961
C58 C 0.6421(3) 0.0746(3) 0.7743(3)
H43 H 0.6706 0.0433 0.7867
C59 C 0.5897(3) 0.0862(3) 0.8108(3)
H44 H 0.5814 0.0629 0.8474
C60 C 0.5504(3) 0.1329(3) 0.7912(3)
N15 N 0.58298(18) 0.23814(18) 0.63461(18)
N16 N 0.6175(2) 0.1857(2) 0.6489(2)
H45 H 0.6455 0.1722 0.6223
N17 N 0.55867(19) 0.16723(19) 0.7389(2)
Br6 Br 0.84025(4) 0.48040(4) 0.15418(4)
C61 C 0.5048(2) 0.5048(2) 0.4230(2)
C62 C 0.4662(2) 0.5287(2) 0.3766(2)
H46 H 0.4224 0.5264 0.3812
C63 C 0.4912(2) 0.5556(2) 0.3241(2)
H47 H 0.4642 0.5725 0.2935
C64 C 0.5553(2) 0.5584(2) 0.3151(2)
C65 C 0.5944(2) 0.5343(2) 0.3613(2)
H48 H 0.6382 0.5359 0.3560
C66 C 0.5695(2) 0.5079(2) 0.4152(2)
H49 H 0.5963 0.4920 0.4465
C67 C 0.5787(2) 0.5883(2) 0.2578(2)
H50 H 0.5506 0.6129 0.2342
C68 C 0.7040(2) 0.6089(2) 0.1541(2)
C69 C 0.7209(3) 0.6531(3) 0.1077(2)
H51 H 0.6961 0.6888 0.1000
C70 C 0.7743(3) 0.6421(3) 0.0746(3)
H52 H 0.7867 0.6706 0.0433
C71 C 0.8108(3) 0.5897(3) 0.0862(3)
H53 H 0.8474 0.5814 0.0629
C72 C 0.7912(3) 0.5504(3) 0.1329(3)
N18 N 0.63461(18) 0.58298(18) 0.23814(18)
N19 N 0.6489(2) 0.6175(2) 0.1857(2)
H54 H 0.6223 0.6455 0.1722
N20 N 0.7389(2) 0.55867(19) 0.16723(19)
Ag4 Ag 0.2500 0.71288(3) 0.5000
Ag5 Ag 0.71288(3) 0.5000 0.2500
N22 N 0.36539(18) 0.08298(18) 0.26186(18)
N24 N 0.2611(2) 0.05867(19) 0.33277(19)
Ag1 Ag 0.7500 0.78712(3) 0.5000
Br1 Br 0.84582(4) 0.65975(4) 0.48040(4)
C1 C 0.5770(2) 0.9952(2) 0.5048(2)
C4 C 0.6849(2) 0.9447(2) 0.5584(2)
C5 C 0.6387(2) 0.9056(2) 0.5343(2)
H3 H 0.6440 0.8618 0.5359
C6 C 0.5848(2) 0.9305(2) 0.5079(2)
H4 H 0.5535 0.9037 0.4920
C7 C 0.7422(2) 0.9213(2) 0.5883(2)
H5 H 0.7658 0.9494 0.6129
C8 C 0.8459(2) 0.7960(2) 0.6089(2)
C9 C 0.8923(2) 0.7791(3) 0.6531(3)
H6 H 0.9000 0.8039 0.6888
C10 C 0.9254(3) 0.7257(3) 0.6421(3)
H7 H 0.9567 0.7133 0.6706
C11 C 0.9138(3) 0.6892(3) 0.5897(3)
H8 H 0.9371 0.6526 0.5814
C12 C 0.8671(3) 0.7088(3) 0.5504(3)
N2 N 0.76186(18) 0.86539(18) 0.58298(18)
N3 N 0.8143(2) 0.8511(2) 0.6175(2)
H9 H 0.8278 0.8777 0.6455
N4 N 0.83277(19) 0.7611(2) 0.55867(19)
C25 C 0.4952(2) 0.9952(2) 0.4230(2)
C26 C 0.5338(2) 0.9713(2) 0.3766(2)
H19 H 0.5776 0.9736 0.3812
C27 C 0.5088(2) 0.9444(2) 0.3241(2)
H20 H 0.5358 0.9275 0.2935
C28 C 0.4447(2) 0.9416(2) 0.3151(2)
C29 C 0.4056(2) 0.9657(2) 0.3613(2)
H21 H 0.3618 0.9641 0.3560
C30 C 0.4305(2) 0.9921(2) 0.4152(2)
C31 C 0.4213(2) 0.9117(2) 0.2578(2)
H23 H 0.4494 0.8871 0.2342
C32 C 0.2960(2) 0.8911(2) 0.1541(2)
C33 C 0.2791(3) 0.8469(3) 0.1077(2)
H24 H 0.3039 0.8112 0.1000
C34 C 0.2257(3) 0.8579(3) 0.0746(3)
H25 H 0.2133 0.8294 0.0433
C35 C 0.1892(3) 0.9103(3) 0.0862(3)
H26 H 0.1526 0.9186 0.0629
C36 C 0.2088(3) 0.9496(3) 0.1329(3)
N8 N 0.36539(18) 0.91702(18) 0.23814(18)
N9 N 0.3511(2) 0.8825(2) 0.1857(2)
H27 H 0.3777 0.8545 0.1722
N10 N 0.2611(2) 0.94133(19) 0.16723(19)
Ag3_2 Ag 0.28712(3) 1.0000 0.2500
N21 N 0.73814(18) 0.86539(18) 0.41702(18)
N23 N 0.66723(19) 0.7611(2) 0.44133(19)
C25_2 C 0.0048(2) 0.0048(2) 0.9230(2)
C28_2 C 0.0553(2) 0.0584(2) 0.8151(2)
C29_2 C 0.0944(2) 0.0343(2) 0.8613(2)
H21_2 H 0.1382 0.0359 0.8560
C30_2 C 0.0695(2) 0.0079(2) 0.9152(2)
C31_2 C 0.0787(2) 0.0883(2) 0.7578(2)
H23_2 H 0.0506 0.1129 0.7342
C32_2 C 0.2040(2) 0.1089(2) 0.6541(2)
C33_2 C 0.2209(3) 0.1531(3) 0.6077(2)
H24_2 H 0.1961 0.1888 0.6000
C34_2 C 0.2743(3) 0.1421(3) 0.5746(3)
H25_2 H 0.2867 0.1706 0.5433
C35_2 C 0.3108(3) 0.0897(3) 0.5862(3)
H26_2 H 0.3474 0.0814 0.5629
C36_2 C 0.2912(3) 0.0504(3) 0.6329(3)
N8_2 N 0.13461(18) 0.08298(18) 0.73814(18)
N9_2 N 0.1489(2) 0.1175(2) 0.6857(2)
H27_2 H 0.1223 0.1455 0.6722
N10_2 N 0.2389(2) 0.05867(19) 0.66723(19)
Ag3_3 Ag 0.21288(3) 0.0000 0.7500
C13_2 C 0.0048(2) 0.9230(2) 0.0048(2)
C16_2 C 0.0584(2) 0.8151(2) 0.0553(2)
C17_2 C 0.0343(2) 0.8613(2) 0.0944(2)
H12_2 H 0.0359 0.8560 0.1382
C18_2 C 0.0079(2) 0.9152(2) 0.0695(2)
C19_2 C 0.0883(2) 0.7578(2) 0.0787(2)
H14_2 H 0.1129 0.7342 0.0506
C20_2 C 0.1089(2) 0.6541(2) 0.2040(2)
C21_2 C 0.1531(3) 0.6077(2) 0.2209(3)
H15_2 H 0.1888 0.6000 0.1961
C22_2 C 0.1421(3) 0.5746(3) 0.2743(3)
H16_2 H 0.1706 0.5433 0.2867
C23_2 C 0.0897(3) 0.5862(3) 0.3108(3)
H17_2 H 0.0814 0.5629 0.3474
C24_2 C 0.0504(3) 0.6329(3) 0.2912(3)
N5_2 N 0.08298(18) 0.73814(18) 0.13461(18)
N6_2 N 0.1175(2) 0.6857(2) 0.1489(2)
H18_2 H 0.1455 0.6722 0.1223
N7_2 N 0.05867(19) 0.66723(19) 0.2389(2)
Ag2_2 Ag -0.0000 0.7500 0.21288(3)
C37_2 C 0.0770(2) 0.4952(2) 0.0048(2)
C38_2 C 0.1234(2) 0.5338(2) 0.0287(2)
H28_2 H 0.1188 0.5776 0.0264
C39_2 C 0.1759(2) 0.5088(2) 0.0556(2)
H29_2 H 0.2065 0.5358 0.0725
C40_2 C 0.1849(2) 0.4447(2) 0.0584(2)
C41_2 C 0.1387(2) 0.4056(2) 0.0343(2)
H30_2 H 0.1440 0.3618 0.0359
C42_2 C 0.0848(2) 0.4305(2) 0.0079(2)
C43_2 C 0.2422(2) 0.4213(2) 0.0883(2)
H32_2 H 0.2658 0.4494 0.1129
C44_2 C 0.3459(2) 0.2960(2) 0.1089(2)
C45_2 C 0.3923(2) 0.2791(3) 0.1531(3)
H33_2 H 0.4000 0.3039 0.1888
C46_2 C 0.4254(3) 0.2257(3) 0.1421(3)
H34_2 H 0.4567 0.2133 0.1706
C47_2 C 0.4138(3) 0.1892(3) 0.0897(3)
H35_2 H 0.4371 0.1526 0.0814
C48_2 C 0.3671(3) 0.2088(3) 0.0504(3)
N12_2 N 0.26186(18) 0.36539(18) 0.08298(18)
N13_2 N 0.3143(2) 0.3511(2) 0.1175(2)
H36_2 H 0.3278 0.3777 0.1455
N14_2 N 0.33277(19) 0.2611(2) 0.05867(19)
Br5_2 Br 0.01960(4) 0.84582(4) 0.34025(4)
H40_2 H 0.0080 0.5535 0.0963
Ag4_2 Ag 0.2500 0.28712(3) 0.0000
C14_2 C 0.0287(2) 0.8766(2) 0.9662(2)
H10_2 H 0.0264 0.8812 0.9224
C15_2 C 0.0556(2) 0.8241(2) 0.9912(2)
H11_2 H 0.0725 0.7935 0.9642
Br3_2 Br 0.34025(4) 0.98040(4) 0.65418(4)
H22_2 H 0.0963 0.9920 0.9465
Ag3_4 Ag 0.21288(3) 1.0000 0.7500
Br4_2 Br 0.34582(4) 0.15975(4) 0.98040(4)
H31_2 H 0.0535 0.4037 0.9920
N11_2 N 0.0207(2) 0.5207(2) 0.9793(2)
C62_2 C 0.0338(2) 0.4713(2) 0.8766(2)
H46_2 H 0.0776 0.4736 0.8812
C63_2 C 0.0088(2) 0.4444(2) 0.8241(2)
H47_2 H 0.0358 0.4275 0.7935
Ag4_3 Ag 0.2500 0.28712(3) 1.0000
N22_2 N 0.13461(18) 0.91702(18) 0.76186(18)
N24_2 N 0.2389(2) 0.94133(19) 0.83277(19)
Ag1_2 Ag 0.7500 0.21288(3) 0.0000
C1_2 C 0.9230(2) 0.0048(2) 0.0048(2)
C4_2 C 0.8151(2) 0.0553(2) 0.0584(2)
C5_2 C 0.8613(2) 0.0944(2) 0.0343(2)
H3_2 H 0.8560 0.1382 0.0359
C6_2 C 0.9152(2) 0.0695(2) 0.0079(2)
C7_2 C 0.7578(2) 0.0787(2) 0.0883(2)
H5_2 H 0.7342 0.0506 0.1129
C8_2 C 0.6541(2) 0.2040(2) 0.1089(2)
C9_2 C 0.6077(2) 0.2209(3) 0.1531(3)
H6_2 H 0.6000 0.1961 0.1888
C10_2 C 0.5746(3) 0.2743(3) 0.1421(3)
H7_2 H 0.5433 0.2867 0.1706
C11_2 C 0.5862(3) 0.3108(3) 0.0897(3)
H8_2 H 0.5629 0.3474 0.0814
C12_2 C 0.6329(3) 0.2912(3) 0.0504(3)
N2_2 N 0.73814(18) 0.13461(18) 0.08298(18)
N3_2 N 0.6857(2) 0.1489(2) 0.1175(2)
H9_2 H 0.6722 0.1223 0.1455
N4_2 N 0.66723(19) 0.2389(2) 0.05867(19)
Ag1_3 Ag 0.7500 0.21288(3) 1.0000
Br1_2 Br 0.65418(4) 0.34025(4) 0.98040(4)
H4_2 H 0.9465 0.0963 0.9920
C26_2 C 0.9662(2) 0.0287(2) 0.8766(2)
H19_2 H 0.9224 0.0264 0.8812
C27_2 C 0.9912(2) 0.0556(2) 0.8241(2)
H20_2 H 0.9642 0.0725 0.7935
N21_2 N 0.76186(18) 0.13461(18) 0.91702(18)
N23_2 N 0.83277(19) 0.2389(2) 0.94133(19)
C2_2 C 0.8766(2) 0.9662(2) 0.0287(2)
H1_2 H 0.8812 0.9224 0.0264
C3_2 C 0.8241(2) 0.9912(2) 0.0556(2)
H2_2 H 0.7935 0.9642 0.0725
Br2_2 Br 0.98040(4) 0.65418(4) 0.34025(4)
H13_2 H 0.9920 0.9465 0.0963
Ag2_3 Ag 1.0000 0.7500 0.21288(3)
C49_2 C 0.9952(2) 0.5770(2) 0.0048(2)
C52_2 C 0.9416(2) 0.6849(2) 0.0553(2)
C53_2 C 0.9657(2) 0.6387(2) 0.0944(2)
H39_2 H 0.9641 0.6440 0.1382
C54_2 C 0.9921(2) 0.5848(2) 0.0695(2)
C55_2 C 0.9117(2) 0.7422(2) 0.0787(2)
H41_2 H 0.8871 0.7658 0.0506
C56_2 C 0.8911(2) 0.8459(2) 0.2040(2)
C57_2 C 0.8469(3) 0.8923(2) 0.2209(3)
H42_2 H 0.8112 0.9000 0.1961
C58_2 C 0.8579(3) 0.9254(3) 0.2743(3)
H43_2 H 0.8294 0.9567 0.2867
C59_2 C 0.9103(3) 0.9138(3) 0.3108(3)
H44_2 H 0.9186 0.9371 0.3474
C60_2 C 0.9496(3) 0.8671(3) 0.2912(3)
N15_2 N 0.91702(18) 0.76186(18) 0.13461(18)
N16_2 N 0.8825(2) 0.8143(2) 0.1489(2)
H45_2 H 0.8545 0.8278 0.1223
N17_2 N 0.94133(19) 0.83277(19) 0.2389(2)
N1_2 N 0.9793(2) 0.9793(2) 0.9793(2)
C50_2 C 0.9713(2) 0.6234(2) 0.9662(2)
H37_2 H 0.9736 0.6188 0.9224
C51_2 C 0.9444(2) 0.6759(2) 0.9912(2)
H38_2 H 0.9275 0.7065 0.9642
Br6_2 Br 0.65975(4) 0.51960(4) 0.65418(4)
C61_2 C 0.9952(2) 0.4952(2) 0.9230(2)
C64_2 C 0.9447(2) 0.4416(2) 0.8151(2)
C65_2 C 0.9056(2) 0.4657(2) 0.8613(2)
H48_2 H 0.8618 0.4641 0.8560
C66_2 C 0.9305(2) 0.4921(2) 0.9152(2)
H49_2 H 0.9037 0.5080 0.9465
C67_2 C 0.9213(2) 0.4117(2) 0.7578(2)
H50_2 H 0.9494 0.3871 0.7342
C68_2 C 0.7960(2) 0.3911(2) 0.6541(2)
C69_2 C 0.7791(3) 0.3469(3) 0.6077(2)
H51_2 H 0.8039 0.3112 0.6000
C70_2 C 0.7257(3) 0.3579(3) 0.5746(3)
H52_2 H 0.7133 0.3294 0.5433
C71_2 C 0.6892(3) 0.4103(3) 0.5862(3)
H53_2 H 0.6526 0.4186 0.5629
C72_2 C 0.7088(3) 0.4496(3) 0.6329(3)
N18_2 N 0.86539(18) 0.41702(18) 0.73814(18)
N19_2 N 0.8511(2) 0.3825(2) 0.6857(2)
H54_2 H 0.8777 0.3545 0.6722
N20_2 N 0.7611(2) 0.44133(19) 0.66723(19)
Ag5_2 Ag 0.78712(3) 0.5000 0.7500
Br4_3 Br 0.84582(4) 0.34025(4) 0.01960(4)
H31_3 H 0.5535 0.0963 0.0080
C61_3 C 0.4952(2) 0.0048(2) 0.0770(2)
C62_3 C 0.5338(2) 0.0287(2) 0.1234(2)
H46_3 H 0.5776 0.0264 0.1188
C63_3 C 0.5088(2) 0.0556(2) 0.1759(2)
H47_3 H 0.5358 0.0725 0.2065
C64_3 C 0.4447(2) 0.0584(2) 0.1849(2)
C65_3 C 0.4056(2) 0.0343(2) 0.1387(2)
H48_3 H 0.3618 0.0359 0.1440
C66_3 C 0.4305(2) 0.0079(2) 0.0848(2)
C67_3 C 0.4213(2) 0.0883(2) 0.2422(2)
H50_3 H 0.4494 0.1129 0.2658
C68_3 C 0.2960(2) 0.1089(2) 0.3459(2)
C69_3 C 0.2791(3) 0.1531(3) 0.3923(2)
H51_3 H 0.3039 0.1888 0.4000
C70_3 C 0.2257(3) 0.1421(3) 0.4254(3)
H52_3 H 0.2133 0.1706 0.4567
C71_3 C 0.1892(3) 0.0897(3) 0.4138(3)
H53_3 H 0.1526 0.0814 0.4371
C72_3 C 0.2088(3) 0.0504(3) 0.3671(3)
N19_3 N 0.3511(2) 0.1175(2) 0.3143(2)
H54_3 H 0.3777 0.1455 0.3278
C37_3 C 0.5770(2) 0.0048(2) 0.9952(2)
C40_3 C 0.6849(2) 0.0553(2) 0.9416(2)
C41_3 C 0.6387(2) 0.0944(2) 0.9657(2)
H30_3 H 0.6440 0.1382 0.9641
C42_3 C 0.5848(2) 0.0695(2) 0.9921(2)
C43_3 C 0.7422(2) 0.0787(2) 0.9117(2)
H32_3 H 0.7658 0.0506 0.8871
C44_3 C 0.8459(2) 0.2040(2) 0.8911(2)
C45_3 C 0.8923(2) 0.2209(3) 0.8469(3)
H33_3 H 0.9000 0.1961 0.8112
C46_3 C 0.9254(3) 0.2743(3) 0.8579(3)
H34_3 H 0.9567 0.2867 0.8294
C47_3 C 0.9138(3) 0.3108(3) 0.9103(3)
H35_3 H 0.9371 0.3474 0.9186
C48_3 C 0.8671(3) 0.2912(3) 0.9496(3)
N13_3 N 0.8143(2) 0.1489(2) 0.8825(2)
H36_3 H 0.8278 0.1223 0.8545
Br1_3 Br 0.15418(4) 0.15975(4) 0.01960(4)
H4_3 H 0.4465 0.4037 0.0080
N1_3 N 0.4793(2) 0.5207(2) 0.0207(2)
C14_3 C 0.5287(2) 0.6234(2) 0.0338(2)
H10_3 H 0.5264 0.6188 0.0776
C15_3 C 0.5556(2) 0.6759(2) 0.0088(2)
H11_3 H 0.5725 0.7065 0.0358
Br3_3 Br 0.84025(4) 0.51960(4) 0.34582(4)
C25_3 C 0.5048(2) 0.4952(2) 0.0770(2)
C26_3 C 0.4662(2) 0.4713(2) 0.1234(2)
H19_3 H 0.4224 0.4736 0.1188
C27_3 C 0.4912(2) 0.4444(2) 0.1759(2)
H20_3 H 0.4642 0.4275 0.2065
C28_3 C 0.5553(2) 0.4416(2) 0.1849(2)
C29_3 C 0.5944(2) 0.4657(2) 0.1387(2)
H21_3 H 0.6382 0.4641 0.1440
C30_3 C 0.5695(2) 0.4921(2) 0.0848(2)
H22_3 H 0.5963 0.5080 0.0535
C31_3 C 0.5787(2) 0.4117(2) 0.2422(2)
H23_3 H 0.5506 0.3871 0.2658
C32_3 C 0.7040(2) 0.3911(2) 0.3459(2)
C33_3 C 0.7209(3) 0.3469(3) 0.3923(2)
H24_3 H 0.6961 0.3112 0.4000
C34_3 C 0.7743(3) 0.3579(3) 0.4254(3)
H25_3 H 0.7867 0.3294 0.4567
C35_3 C 0.8108(3) 0.4103(3) 0.4138(3)
H26_3 H 0.8474 0.4186 0.4371
C36_3 C 0.7912(3) 0.4496(3) 0.3671(3)
N8_3 N 0.63461(18) 0.41702(18) 0.26186(18)
N9_3 N 0.6489(2) 0.3825(2) 0.3143(2)
H27_3 H 0.6223 0.3545 0.3278
N10_3 N 0.7389(2) 0.44133(19) 0.33277(19)
N11_3 N 0.5207(2) 0.9793(2) 0.0207(2)
C50_3 C 0.4713(2) 0.8766(2) 0.0338(2)
H37_3 H 0.4736 0.8812 0.0776
C51_3 C 0.4444(2) 0.8241(2) 0.0088(2)
H38_3 H 0.4275 0.7935 0.0358
Br6_3 Br 0.15975(4) 0.98040(4) 0.34582(4)
H49_3 H 0.4037 0.9920 0.0535
C1_3 C 0.4230(2) 0.4952(2) 0.9952(2)
C2_3 C 0.3766(2) 0.5338(2) 0.9713(2)
H1_3 H 0.3812 0.5776 0.9736
C3_3 C 0.3241(2) 0.5088(2) 0.9444(2)
H2_3 H 0.2935 0.5358 0.9275
C4_3 C 0.3151(2) 0.4447(2) 0.9416(2)
C5_3 C 0.3613(2) 0.4056(2) 0.9657(2)
H3_3 H 0.3560 0.3618 0.9641
C6_3 C 0.4152(2) 0.4305(2) 0.9921(2)
C7_3 C 0.2578(2) 0.4213(2) 0.9117(2)
H5_3 H 0.2342 0.4494 0.8871
C8_3 C 0.1541(2) 0.2960(2) 0.8911(2)
C9_3 C 0.1077(2) 0.2791(3) 0.8469(3)
H6_3 H 0.1000 0.3039 0.8112
C10_3 C 0.0746(3) 0.2257(3) 0.8579(3)
H7_3 H 0.0433 0.2133 0.8294
C11_3 C 0.0862(3) 0.1892(3) 0.9103(3)
H8_3 H 0.0629 0.1526 0.9186
C12_3 C 0.1329(3) 0.2088(3) 0.9496(3)
N2_3 N 0.23814(18) 0.36539(18) 0.91702(18)
N3_3 N 0.1857(2) 0.3511(2) 0.8825(2)
H9_3 H 0.1722 0.3777 0.8545
N4_3 N 0.16723(19) 0.2611(2) 0.94133(19)
Br2_3 Br 0.48040(4) 0.84582(4) 0.65975(4)
C13_3 C 0.5048(2) 0.5770(2) 0.9952(2)
C16_3 C 0.5584(2) 0.6849(2) 0.9447(2)
C17_3 C 0.5343(2) 0.6387(2) 0.9056(2)
H12_3 H 0.5359 0.6440 0.8618
C18_3 C 0.5079(2) 0.5848(2) 0.9305(2)
H13_3 H 0.4920 0.5535 0.9037
C19_3 C 0.5883(2) 0.7422(2) 0.9213(2)
H14_3 H 0.6129 0.7658 0.9494
C20_3 C 0.6089(2) 0.8459(2) 0.7960(2)
C21_3 C 0.6531(3) 0.8923(2) 0.7791(3)
H15_3 H 0.6888 0.9000 0.8039
C22_3 C 0.6421(3) 0.9254(3) 0.7257(3)
H16_3 H 0.6706 0.9567 0.7133
C23_3 C 0.5897(3) 0.9138(3) 0.6892(3)
H17_3 H 0.5814 0.9371 0.6526
C24_3 C 0.5504(3) 0.8671(3) 0.7088(3)
N5_3 N 0.58298(18) 0.76186(18) 0.86539(18)
N6_3 N 0.6175(2) 0.8143(2) 0.8511(2)
H18_3 H 0.6455 0.8278 0.8777
N7_3 N 0.55867(19) 0.83277(19) 0.7611(2)
Ag2_4 Ag 0.5000 0.7500 0.78712(3)
C38_3 C 0.6234(2) 0.9662(2) 0.9713(2)
H28_3 H 0.6188 0.9224 0.9736
C39_3 C 0.6759(2) 0.9912(2) 0.9444(2)
H29_3 H 0.7065 0.9642 0.9275
Br5_3 Br 0.51960(4) 0.65418(4) 0.65975(4)
C49_3 C 0.4952(2) 0.9230(2) 0.9952(2)
C52_3 C 0.4416(2) 0.8151(2) 0.9447(2)
C53_3 C 0.4657(2) 0.8613(2) 0.9056(2)
H39_3 H 0.4641 0.8560 0.8618
C54_3 C 0.4921(2) 0.9152(2) 0.9305(2)
H40_3 H 0.5080 0.9465 0.9037
C55_3 C 0.4117(2) 0.7578(2) 0.9213(2)
H41_3 H 0.3871 0.7342 0.9494
C56_3 C 0.3911(2) 0.6541(2) 0.7960(2)
C57_3 C 0.3469(3) 0.6077(2) 0.7791(3)
H42_3 H 0.3112 0.6000 0.8039
C58_3 C 0.3579(3) 0.5746(3) 0.7257(3)
H43_3 H 0.3294 0.5433 0.7133
C59_3 C 0.4103(3) 0.5862(3) 0.6892(3)
H44_3 H 0.4186 0.5629 0.6526
C60_3 C 0.4496(3) 0.6329(3) 0.7088(3)
N15_3 N 0.41702(18) 0.73814(18) 0.86539(18)
N16_3 N 0.3825(2) 0.6857(2) 0.8511(2)
H45_3 H 0.3545 0.6722 0.8777
N17_3 N 0.44133(19) 0.66723(19) 0.7611(2)
Br1_4 Br 0.34582(4) 0.84025(4) 0.51960(4)
C1_4 C 0.0770(2) 0.5048(2) 0.4952(2)
C2_4 C 0.1234(2) 0.4662(2) 0.4713(2)
H1_4 H 0.1188 0.4224 0.4736
C3_4 C 0.1759(2) 0.4912(2) 0.4444(2)
H2_4 H 0.2065 0.4642 0.4275
C4_4 C 0.1849(2) 0.5553(2) 0.4416(2)
C5_4 C 0.1387(2) 0.5944(2) 0.4657(2)
H3_4 H 0.1440 0.6382 0.4641
C6_4 C 0.0848(2) 0.5695(2) 0.4921(2)
H4_4 H 0.0535 0.5963 0.5080
C7_4 C 0.2422(2) 0.5787(2) 0.4117(2)
H5_4 H 0.2658 0.5506 0.3871
C8_4 C 0.3459(2) 0.7040(2) 0.3911(2)
C9_4 C 0.3923(2) 0.7209(3) 0.3469(3)
H6_4 H 0.4000 0.6961 0.3112
C10_4 C 0.4254(3) 0.7743(3) 0.3579(3)
H7_4 H 0.4567 0.7867 0.3294
C11_4 C 0.4138(3) 0.8108(3) 0.4103(3)
H8_4 H 0.4371 0.8474 0.4186
C12_4 C 0.3671(3) 0.7912(3) 0.4496(3)
N1_4 N 0.0207(2) 0.4793(2) 0.5207(2)
N2_4 N 0.26186(18) 0.63461(18) 0.41702(18)
N3_4 N 0.3143(2) 0.6489(2) 0.3825(2)
H9_4 H 0.3278 0.6223 0.3545
N4_4 N 0.33277(19) 0.7389(2) 0.44133(19)
Br2_4 Br 0.01960(4) 0.15418(4) 0.15975(4)
H13_4 H 0.0080 0.4465 0.4037
C26_4 C 0.0338(2) 0.5287(2) 0.6234(2)
H19_4 H 0.0776 0.5264 0.6188
C27_4 C 0.0088(2) 0.5556(2) 0.6759(2)
H20_4 H 0.0358 0.5725 0.7065
Ag2_5 Ag 0.0000 0.2500 0.28712(3)
C49_4 C 0.0048(2) 0.0770(2) 0.4952(2)
C50_4 C 0.0287(2) 0.1234(2) 0.5338(2)
H37_4 H 0.0264 0.1188 0.5776
C51_4 C 0.0556(2) 0.1759(2) 0.5088(2)
H38_4 H 0.0725 0.2065 0.5358
C52_4 C 0.0584(2) 0.1849(2) 0.4447(2)
C53_4 C 0.0343(2) 0.1387(2) 0.4056(2)
H39_4 H 0.0359 0.1440 0.3618
C54_4 C 0.0079(2) 0.0848(2) 0.4305(2)
C55_4 C 0.0883(2) 0.2422(2) 0.4213(2)
H41_4 H 0.1129 0.2658 0.4494
C56_4 C 0.1089(2) 0.3459(2) 0.2960(2)
C57_4 C 0.1531(3) 0.3923(2) 0.2791(3)
H42_4 H 0.1888 0.4000 0.3039
C58_4 C 0.1421(3) 0.4254(3) 0.2257(3)
H43_4 H 0.1706 0.4567 0.2133
C59_4 C 0.0897(3) 0.4138(3) 0.1892(3)
H44_4 H 0.0814 0.4371 0.1526
C60_4 C 0.0504(3) 0.3671(3) 0.2088(3)
N15_4 N 0.08298(18) 0.26186(18) 0.36539(18)
N16_4 N 0.1175(2) 0.3143(2) 0.3511(2)
H45_4 H 0.1455 0.3278 0.3777
N17_4 N 0.05867(19) 0.33277(19) 0.2611(2)
Br6_4 Br 0.34025(4) 0.01960(4) 0.84582(4)
H49_4 H 0.0963 0.0080 0.5535
C61_4 C 0.0048(2) 0.9952(2) 0.5770(2)
C64_4 C 0.0553(2) 0.9416(2) 0.6849(2)
C65_4 C 0.0944(2) 0.9657(2) 0.6387(2)
H48_4 H 0.1382 0.9641 0.6440
C66_4 C 0.0695(2) 0.9921(2) 0.5848(2)
C67_4 C 0.0787(2) 0.9117(2) 0.7422(2)
H50_4 H 0.0506 0.8871 0.7658
C68_4 C 0.2040(2) 0.8911(2) 0.8459(2)
C69_4 C 0.2209(3) 0.8469(3) 0.8923(2)
H51_4 H 0.1961 0.8112 0.9000
C70_4 C 0.2743(3) 0.8579(3) 0.9254(3)
H52_4 H 0.2867 0.8294 0.9567
C71_4 C 0.3108(3) 0.9103(3) 0.9138(3)
H53_4 H 0.3474 0.9186 0.9371
C72_4 C 0.2912(3) 0.9496(3) 0.8671(3)
N19_4 N 0.1489(2) 0.8825(2) 0.8143(2)
H54_4 H 0.1223 0.8545 0.8278
C13_4 C 0.9952(2) 0.4230(2) 0.4952(2)
C14_4 C 0.9713(2) 0.3766(2) 0.5338(2)
H10_4 H 0.9736 0.3812 0.5776
C15_4 C 0.9444(2) 0.3241(2) 0.5088(2)
H11_4 H 0.9275 0.2935 0.5358
C16_4 C 0.9416(2) 0.3151(2) 0.4447(2)
C17_4 C 0.9657(2) 0.3613(2) 0.4056(2)
H12_4 H 0.9641 0.3560 0.3618
C18_4 C 0.9921(2) 0.4152(2) 0.4305(2)
C19_4 C 0.9117(2) 0.2578(2) 0.4213(2)
H14_4 H 0.8871 0.2342 0.4494
C20_4 C 0.8911(2) 0.1541(2) 0.2960(2)
C21_4 C 0.8469(3) 0.1077(2) 0.2791(3)
H15_4 H 0.8112 0.1000 0.3039
C22_4 C 0.8579(3) 0.0746(3) 0.2257(3)
H16_4 H 0.8294 0.0433 0.2133
C23_4 C 0.9103(3) 0.0862(3) 0.1892(3)
H17_4 H 0.9186 0.0629 0.1526
C24_4 C 0.9496(3) 0.1329(3) 0.2088(3)
N5_4 N 0.91702(18) 0.23814(18) 0.36539(18)
N6_4 N 0.8825(2) 0.1857(2) 0.3511(2)
H18_4 H 0.8545 0.1722 0.3777
N7_4 N 0.94133(19) 0.16723(19) 0.2611(2)
Br3_4 Br 0.65975(4) 0.48040(4) 0.84582(4)
C25_4 C 0.9952(2) 0.5048(2) 0.5770(2)
C28_4 C 0.9447(2) 0.5584(2) 0.6849(2)
C29_4 C 0.9056(2) 0.5343(2) 0.6387(2)
H21_4 H 0.8618 0.5359 0.6440
C30_4 C 0.9305(2) 0.5079(2) 0.5848(2)
H22_4 H 0.9037 0.4920 0.5535
C31_4 C 0.9213(2) 0.5883(2) 0.7422(2)
H23_4 H 0.9494 0.6129 0.7658
C32_4 C 0.7960(2) 0.6089(2) 0.8459(2)
C33_4 C 0.7791(3) 0.6531(3) 0.8923(2)
H24_4 H 0.8039 0.6888 0.9000
C34_4 C 0.7257(3) 0.6421(3) 0.9254(3)
H25_4 H 0.7133 0.6706 0.9567
C35_4 C 0.6892(3) 0.5897(3) 0.9138(3)
H26_4 H 0.6526 0.5814 0.9371
C36_4 C 0.7088(3) 0.5504(3) 0.8671(3)
N8_4 N 0.86539(18) 0.58298(18) 0.76186(18)
N9_4 N 0.8511(2) 0.6175(2) 0.8143(2)
H27_4 H 0.8777 0.6455 0.8278
N10_4 N 0.7611(2) 0.55867(19) 0.83277(19)
Ag2_6 Ag 1.0000 0.2500 0.28712(3)
C38_4 C 0.8766(2) 0.0338(2) 0.4713(2)
H28_4 H 0.8812 0.0776 0.4736
C39_4 C 0.8241(2) 0.0088(2) 0.4444(2)
H29_4 H 0.7935 0.0358 0.4275
N11_4 N 0.9793(2) 0.0207(2) 0.5207(2)
Br5_4 Br 0.98040(4) 0.34582(4) 0.15975(4)
H40_4 H 0.9920 0.0535 0.4037
Br4_4 Br 0.65418(4) 0.65975(4) 0.51960(4)
C37_4 C 0.9230(2) 0.9952(2) 0.4952(2)
C40_4 C 0.8151(2) 0.9447(2) 0.4416(2)
C41_4 C 0.8613(2) 0.9056(2) 0.4657(2)
H30_4 H 0.8560 0.8618 0.4641
C42_4 C 0.9152(2) 0.9305(2) 0.4921(2)
H31_4 H 0.9465 0.9037 0.5080
C43_4 C 0.7578(2) 0.9213(2) 0.4117(2)
H32_4 H 0.7342 0.9494 0.3871
C44_4 C 0.6541(2) 0.7960(2) 0.3911(2)
C45_4 C 0.6077(2) 0.7791(3) 0.3469(3)
H33_4 H 0.6000 0.8039 0.3112
C46_4 C 0.5746(3) 0.7257(3) 0.3579(3)
H34_4 H 0.5433 0.7133 0.3294
C47_4 C 0.5862(3) 0.6892(3) 0.4103(3)
H35_4 H 0.5629 0.6526 0.4186
C48_4 C 0.6329(3) 0.7088(3) 0.4496(3)
N13_4 N 0.6857(2) 0.8511(2) 0.3825(2)
H36_4 H 0.6722 0.8777 0.3545
C62_4 C 0.9662(2) 0.9713(2) 0.6234(2)
H46_4 H 0.9224 0.9736 0.6188
C63_4 C 0.9912(2) 0.9444(2) 0.6759(2)
H47_4 H 0.9642 0.9275 0.7065
Cl1 Cl 0.0000 0.7500 0.81308(7)
O3 O 0.0239(2) 0.7002(2) 0.7751(2)
O4 O 0.0508(3) 0.7749(2) 0.8496(2)
Cl1_2 Cl 1.0000 0.7500 0.81308(7)
O1 O 0.9761(2) 0.7998(2) 0.7751(2)
O2 O 0.9492(3) 0.7251(2) 0.8496(2)
Cl1_3 Cl 0.5000 0.2500 0.31308(7)
O1_2 O 0.5239(2) 0.2002(2) 0.2751(2)
O2_2 O 0.5508(3) 0.2749(2) 0.3496(2)
O3_2 O 0.4761(2) 0.2998(2) 0.2751(2)
O4_2 O 0.4492(3) 0.2251(2) 0.3496(2)
Cl1_4 Cl 0.0000 0.2500 0.68692(7)
O1_3 O 0.0239(2) 0.2998(2) 0.7249(2)
O2_3 O 0.0508(3) 0.2251(2) 0.6504(2)
Cl1_5 Cl 1.0000 0.2500 0.68692(7)
O3_3 O 0.9761(2) 0.2002(2) 0.7249(2)
O4_3 O 0.9492(3) 0.2749(2) 0.6504(2)
Cl1_6 Cl 0.5000 0.7500 0.18692(7)
O1_4 O 0.4761(2) 0.7002(2) 0.2249(2)
O2_4 O 0.4492(3) 0.7749(2) 0.1504(2)
O3_4 O 0.5239(2) 0.7998(2) 0.2249(2)
O4_4 O 0.5508(3) 0.7251(2) 0.1504(2)
Cl1_7 Cl 0.81308(7) 0.0000 0.7500
O3_5 O 0.7751(2) 0.0239(2) 0.7002(2)
O4_5 O 0.8496(2) 0.0508(3) 0.7749(2)
Cl1_8 Cl 0.81308(7) 1.0000 0.7500
O1_5 O 0.7751(2) 0.9761(2) 0.7998(2)
O2_5 O 0.8496(2) 0.9492(3) 0.7251(2)
Cl1_9 Cl 0.31308(7) 0.5000 0.2500
O1_6 O 0.2751(2) 0.5239(2) 0.2002(2)
O2_6 O 0.3496(2) 0.5508(3) 0.2749(2)
O3_6 O 0.2751(2) 0.4761(2) 0.2998(2)
O4_6 O 0.3496(2) 0.4492(3) 0.2251(2)
Cl1_10 Cl 0.68692(7) 0.0000 0.2500
O1_7 O 0.7249(2) 0.0239(2) 0.2998(2)
O2_7 O 0.6504(2) 0.0508(3) 0.2251(2)
Cl1_11 Cl 0.68692(7) 1.0000 0.2500
O3_7 O 0.7249(2) 0.9761(2) 0.2002(2)
O4_7 O 0.6504(2) 0.9492(3) 0.2749(2)
Cl1_12 Cl 0.18692(7) 0.5000 0.7500
O1_8 O 0.2249(2) 0.4761(2) 0.7002(2)
O2_8 O 0.1504(2) 0.4492(3) 0.7749(2)
O3_8 O 0.2249(2) 0.5239(2) 0.7998(2)
O4_8 O 0.1504(2) 0.5508(3) 0.7251(2)
Cl1_13 Cl 0.7500 0.81308(7) 0.0000
O3_9 O 0.7002(2) 0.7751(2) 0.0239(2)
O4_9 O 0.7749(2) 0.8496(2) 0.0508(3)
Cl1_14 Cl 0.7500 0.81308(7) 1.0000
O1_9 O 0.7998(2) 0.7751(2) 0.9761(2)
O2_9 O 0.7251(2) 0.8496(2) 0.9492(3)
Cl1_15 Cl 0.2500 0.31308(7) 0.5000
O1_10 O 0.2002(2) 0.2751(2) 0.5239(2)
O2_10 O 0.2749(2) 0.3496(2) 0.5508(3)
O3_10 O 0.2998(2) 0.2751(2) 0.4761(2)
O4_10 O 0.2251(2) 0.3496(2) 0.4492(3)
Cl1_16 Cl 0.2500 0.68692(7) 0.0000
O1_11 O 0.2998(2) 0.7249(2) 0.0239(2)
O2_11 O 0.2251(2) 0.6504(2) 0.0508(3)
Cl1_17 Cl 0.2500 0.68692(7) 1.0000
O3_11 O 0.2002(2) 0.7249(2) 0.9761(2)
O4_11 O 0.2749(2) 0.6504(2) 0.9492(3)
Cl1_18 Cl 0.7500 0.18692(7) 0.5000
O1_12 O 0.7002(2) 0.2249(2) 0.4761(2)
O2_12 O 0.7749(2) 0.1504(2) 0.4492(3)
O3_12 O 0.7998(2) 0.2249(2) 0.5239(2)
O4_12 O 0.7251(2) 0.1504(2) 0.5508(3)
loop_
_geom_bond_atom_site_label_1
_geom_bond_atom_site_label_2
_geom_bond_site_symmetry_1
_geom_bond_site_symmetry_2
C2 H1 1_555 1_555
C3 C2 1_555 1_555
H2 C3 1_555 1_555
Br2 C24 1_555 1_555
C13 N1 1_555 1_555
C14 C13 1_555 1_555
H10 C14 1_555 1_555
C15 C14 1_555 1_555
H11 C15 1_555 1_555
C16 C15 1_555 1_555
C17 C16 1_555 1_555
H12 C17 1_555 1_555
C18 C13 1_555 1_555
H13 C18 1_555 1_555
C19 C16 1_555 1_555
H14 C19 1_555 1_555
C20 C21 1_555 1_555
C21 H15 1_555 1_555
C22 C21 1_555 1_555
H16 C22 1_555 1_555
C23 C22 1_555 1_555
H17 C23 1_555 1_555
C24 C23 1_555 1_555
N5 C19 1_555 1_555
N6 C20 1_555 1_555
H18 N6 1_555 1_555
N7 C20 1_555 1_555
Ag2 N5 1_555 1_555
Br4 C48 1_555 1_555
C37 C38 1_555 1_555
C38 H28 1_555 1_555
C39 C38 1_555 1_555
H29 C39 1_555 1_555
C40 C39 1_555 1_555
C41 C40 1_555 1_555
H30 C41 1_555 1_555
C42 C37 1_555 1_555
H31 C42 1_555 1_555
C43 C40 1_555 1_555
H32 C43 1_555 1_555
C44 C45 1_555 1_555
C45 H33 1_555 1_555
C46 C45 1_555 1_555
H34 C46 1_555 1_555
C47 C46 1_555 1_555
H35 C47 1_555 1_555
C48 C47 1_555 1_555
N11 C37 1_555 1_555
N12 C43 1_555 1_555
N13 C44 1_555 1_555
H36 N13 1_555 1_555
N14 C44 1_555 1_555
Br5 C60 1_555 1_555
C49 N11 1_555 1_555
C50 C49 1_555 1_555
H37 C50 1_555 1_555
C51 C50 1_555 1_555
H38 C51 1_555 1_555
C52 C51 1_555 1_555
C53 C52 1_555 1_555
H39 C53 1_555 1_555
C54 C49 1_555 1_555
H40 C54 1_555 1_555
C55 C52 1_555 1_555
H41 C55 1_555 1_555
C56 C57 1_555 1_555
C57 H42 1_555 1_555
C58 C57 1_555 1_555
H43 C58 1_555 1_555
C59 C58 1_555 1_555
H44 C59 1_555 1_555
C60 C59 1_555 1_555
N15 Ag2 1_555 1_555
N16 C56 1_555 1_555
H45 N16 1_555 1_555
N17 Ag2 1_555 1_555
Br6 C72 1_555 1_555
C61 N11 1_555 1_555
C62 C61 1_555 1_555
H46 C62 1_555 1_555
C63 C62 1_555 1_555
H47 C63 1_555 1_555
C64 C63 1_555 1_555
C65 C64 1_555 1_555
H48 C65 1_555 1_555
C66 C61 1_555 1_555
H49 C66 1_555 1_555
C67 C64 1_555 1_555
H50 C67 1_555 1_555
C68 C69 1_555 1_555
C69 H51 1_555 1_555
C70 C69 1_555 1_555
H52 C70 1_555 1_555
C71 C70 1_555 1_555
H53 C71 1_555 1_555
C72 C71 1_555 1_555
N18 C67 1_555 1_555
N19 C68 1_555 1_555
H54 N19 1_555 1_555
N20 C68 1_555 1_555
Ag4 N12 1_555 1_555
Ag5 N18 1_555 1_555
N22 Ag3 1_555 1_555
N24 Ag3 1_555 1_555
C17 C18 1_555 1_555
C24 N7 1_555 1_555
N5 N6 1_555 1_555
N7 Ag2 1_555 1_555
C41 C42 1_555 1_555
C48 N14 1_555 1_555
N12 N13 1_555 1_555
N14 Ag4 1_555 1_555
C53 C54 1_555 1_555
C55 N15 1_555 1_555
C56 N17 1_555 1_555
C60 N17 1_555 1_555
N15 N16 1_555 1_555
C65 C66 1_555 1_555
C72 N20 1_555 1_555
N18 N19 1_555 1_555
N20 Ag5 1_555 1_555
Ag1 N2 1_555 1_555
Br1 C12 1_555 1_555
C5 C4 1_555 1_555
H3 C5 1_555 1_555
C6 C1 1_555 1_555
H4 C6 1_555 1_555
C7 C4 1_555 1_555
H5 C7 1_555 1_555
C8 C9 1_555 1_555
C9 H6 1_555 1_555
C10 C9 1_555 1_555
H7 C10 1_555 1_555
C11 C10 1_555 1_555
H8 C11 1_555 1_555
C12 C11 1_555 1_555
N2 C7 1_555 1_555
N3 C8 1_555 1_555
H9 N3 1_555 1_555
N4 Ag1 1_555 1_555
C26 C25 1_555 1_555
H19 C26 1_555 1_555
C27 C26 1_555 1_555
H20 C27 1_555 1_555
C28 C27 1_555 1_555
C29 C28 1_555 1_555
H21 C29 1_555 1_555
C30 C25 1_555 1_555
C31 C28 1_555 1_555
H23 C31 1_555 1_555
C32 C33 1_555 1_555
C33 H24 1_555 1_555
C34 C33 1_555 1_555
H25 C34 1_555 1_555
C35 C34 1_555 1_555
H26 C35 1_555 1_555
C36 C35 1_555 1_555
N8 C31 1_555 1_555
N9 C32 1_555 1_555
H27 N9 1_555 1_555
N10 C32 1_555 1_555
Ag3_2 N8 1_555 1_555
N21 Ag1 1_555 1_555
N23 Ag1 1_555 1_555
C5 C6 1_555 1_555
C8 N4 1_555 1_555
C12 N4 1_555 1_555
N2 N3 1_555 1_555
C29 C30 1_555 1_555
C36 N10 1_555 1_555
N8 N9 1_555 1_555
N10 Ag3_2 1_555 1_555
C29_2 C28_2 1_555 1_555
H21_2 C29_2 1_555 1_555
C30_2 C25_2 1_555 1_555
C31_2 C28_2 1_555 1_555
H23_2 C31_2 1_555 1_555
C32_2 C33_2 1_555 1_555
C33_2 H24_2 1_555 1_555
C34_2 C33_2 1_555 1_555
H25_2 C34_2 1_555 1_555
C35_2 C34_2 1_555 1_555
H26_2 C35_2 1_555 1_555
C36_2 C35_2 1_555 1_555
N8_2 C31_2 1_555 1_555
N9_2 C32_2 1_555 1_555
H27_2 N9_2 1_555 1_555
N10_2 C32_2 1_555 1_555
Ag3_3 N8_2 1_555 1_555
C29_2 C30_2 1_555 1_555
C36_2 N10_2 1_555 1_555
N8_2 N9_2 1_555 1_555
N10_2 Ag3_3 1_555 1_555
C17_2 C16_2 1_555 1_555
H12_2 C17_2 1_555 1_555
C18_2 C13_2 1_555 1_555
C19_2 C16_2 1_555 1_555
H14_2 C19_2 1_555 1_555
C20_2 C21_2 1_555 1_555
C21_2 H15_2 1_555 1_555
C22_2 C21_2 1_555 1_555
H16_2 C22_2 1_555 1_555
C23_2 C22_2 1_555 1_555
H17_2 C23_2 1_555 1_555
C24_2 C23_2 1_555 1_555
N5_2 C19_2 1_555 1_555
N6_2 C20_2 1_555 1_555
H18_2 N6_2 1_555 1_555
N7_2 C20_2 1_555 1_555
Ag2_2 N5_2 1_555 1_555
C37_2 C38_2 1_555 1_555
C38_2 H28_2 1_555 1_555
C39_2 C38_2 1_555 1_555
H29_2 C39_2 1_555 1_555
C40_2 C39_2 1_555 1_555
C41_2 C40_2 1_555 1_555
H30_2 C41_2 1_555 1_555
C42_2 C37_2 1_555 1_555
C43_2 C40_2 1_555 1_555
H32_2 C43_2 1_555 1_555
C44_2 C45_2 1_555 1_555
C45_2 H33_2 1_555 1_555
C46_2 C45_2 1_555 1_555
H34_2 C46_2 1_555 1_555
C47_2 C46_2 1_555 1_555
H35_2 C47_2 1_555 1_555
C48_2 C47_2 1_555 1_555
N12_2 C43_2 1_555 1_555
N13_2 C44_2 1_555 1_555
H36_2 N13_2 1_555 1_555
N14_2 C44_2 1_555 1_555
Ag4_2 N12_2 1_555 1_555
C17_2 C18_2 1_555 1_555
C24_2 N7_2 1_555 1_555
N5_2 N6_2 1_555 1_555
N7_2 Ag2_2 1_555 1_555
C41_2 C42_2 1_555 1_555
C48_2 N14_2 1_555 1_555
N12_2 N13_2 1_555 1_555
N14_2 Ag4_2 1_555 1_555
H10_2 C14_2 1_555 1_555
C15_2 C14_2 1_555 1_555
H11_2 C15_2 1_555 1_555
H46_2 C62_2 1_555 1_555
C63_2 C62_2 1_555 1_555
H47_2 C63_2 1_555 1_555
N22_2 Ag3_4 1_555 1_555
N24_2 Ag3_4 1_555 1_555
Ag1_2 N2_2 1_555 1_555
C5_2 C4_2 1_555 1_555
H3_2 C5_2 1_555 1_555
C6_2 C1_2 1_555 1_555
C7_2 C4_2 1_555 1_555
H5_2 C7_2 1_555 1_555
C8_2 C9_2 1_555 1_555
C9_2 H6_2 1_555 1_555
C10_2 C9_2 1_555 1_555
H7_2 C10_2 1_555 1_555
C11_2 C10_2 1_555 1_555
H8_2 C11_2 1_555 1_555
C12_2 C11_2 1_555 1_555
N2_2 C7_2 1_555 1_555
N3_2 C8_2 1_555 1_555
H9_2 N3_2 1_555 1_555
N4_2 Ag1_2 1_555 1_555
C5_2 C6_2 1_555 1_555
C8_2 N4_2 1_555 1_555
C12_2 N4_2 1_555 1_555
N2_2 N3_2 1_555 1_555
H19_2 C26_2 1_555 1_555
C27_2 C26_2 1_555 1_555
H20_2 C27_2 1_555 1_555
N21_2 Ag1_3 1_555 1_555
N23_2 Ag1_3 1_555 1_555
C2_2 H1_2 1_555 1_555
C3_2 C2_2 1_555 1_555
H2_2 C3_2 1_555 1_555
C53_2 C52_2 1_555 1_555
H39_2 C53_2 1_555 1_555
C54_2 C49_2 1_555 1_555
C55_2 C52_2 1_555 1_555
H41_2 C55_2 1_555 1_555
C56_2 C57_2 1_555 1_555
C57_2 H42_2 1_555 1_555
C58_2 C57_2 1_555 1_555
H43_2 C58_2 1_555 1_555
C59_2 C58_2 1_555 1_555
H44_2 C59_2 1_555 1_555
C60_2 C59_2 1_555 1_555
N15_2 Ag2_3 1_555 1_555
N16_2 C56_2 1_555 1_555
H45_2 N16_2 1_555 1_555
N17_2 Ag2_3 1_555 1_555
C53_2 C54_2 1_555 1_555
C55_2 N15_2 1_555 1_555
C56_2 N17_2 1_555 1_555
C60_2 N17_2 1_555 1_555
N15_2 N16_2 1_555 1_555
H37_2 C50_2 1_555 1_555
C51_2 C50_2 1_555 1_555
H38_2 C51_2 1_555 1_555
Br6_2 C72_2 1_555 1_555
C65_2 C64_2 1_555 1_555
H48_2 C65_2 1_555 1_555
C66_2 C61_2 1_555 1_555
H49_2 C66_2 1_555 1_555
C67_2 C64_2 1_555 1_555
H50_2 C67_2 1_555 1_555
C68_2 C69_2 1_555 1_555
C69_2 H51_2 1_555 1_555
C70_2 C69_2 1_555 1_555
H52_2 C70_2 1_555 1_555
C71_2 C70_2 1_555 1_555
H53_2 C71_2 1_555 1_555
C72_2 C71_2 1_555 1_555
N18_2 C67_2 1_555 1_555
N19_2 C68_2 1_555 1_555
H54_2 N19_2 1_555 1_555
N20_2 C68_2 1_555 1_555
Ag5_2 N18_2 1_555 1_555
C65_2 C66_2 1_555 1_555
C72_2 N20_2 1_555 1_555
N18_2 N19_2 1_555 1_555
N20_2 Ag5_2 1_555 1_555
C62_3 C61_3 1_555 1_555
H46_3 C62_3 1_555 1_555
C63_3 C62_3 1_555 1_555
H47_3 C63_3 1_555 1_555
C64_3 C63_3 1_555 1_555
C65_3 C64_3 1_555 1_555
H48_3 C65_3 1_555 1_555
C66_3 C61_3 1_555 1_555
C67_3 C64_3 1_555 1_555
H50_3 C67_3 1_555 1_555
C68_3 C69_3 1_555 1_555
C69_3 H51_3 1_555 1_555
C70_3 C69_3 1_555 1_555
H52_3 C70_3 1_555 1_555
C71_3 C70_3 1_555 1_555
H53_3 C71_3 1_555 1_555
C72_3 C71_3 1_555 1_555
N22 C67_3 1_555 1_555
N19_3 C68_3 1_555 1_555
H54_3 N19_3 1_555 1_555
N24 C68_3 1_555 1_555
C65_3 C66_3 1_555 1_555
C72_3 N24 1_555 1_555
N22 N19_3 1_555 1_555
C41_3 C40_3 1_555 1_555
H30_3 C41_3 1_555 1_555
C42_3 C37_3 1_555 1_555
C43_3 C40_3 1_555 1_555
H32_3 C43_3 1_555 1_555
C44_3 C45_3 1_555 1_555
C45_3 H33_3 1_555 1_555
C46_3 C45_3 1_555 1_555
H34_3 C46_3 1_555 1_555
C47_3 C46_3 1_555 1_555
H35_3 C47_3 1_555 1_555
C48_3 C47_3 1_555 1_555
N21_2 C43_3 1_555 1_555
N13_3 C44_3 1_555 1_555
H36_3 N13_3 1_555 1_555
N23_2 C44_3 1_555 1_555
C41_3 C42_3 1_555 1_555
C48_3 N23_2 1_555 1_555
N21_2 N13_3 1_555 1_555
H10_3 C14_3 1_555 1_555
C15_3 C14_3 1_555 1_555
H11_3 C15_3 1_555 1_555
Br3_3 C36_3 1_555 1_555
C25_3 N1_3 1_555 1_555
C26_3 C25_3 1_555 1_555
H19_3 C26_3 1_555 1_555
C27_3 C26_3 1_555 1_555
H20_3 C27_3 1_555 1_555
C28_3 C27_3 1_555 1_555
C29_3 C28_3 1_555 1_555
H21_3 C29_3 1_555 1_555
C30_3 C25_3 1_555 1_555
H22_3 C30_3 1_555 1_555
C31_3 C28_3 1_555 1_555
H23_3 C31_3 1_555 1_555
C32_3 C33_3 1_555 1_555
C33_3 H24_3 1_555 1_555
C34_3 C33_3 1_555 1_555
H25_3 C34_3 1_555 1_555
C35_3 C34_3 1_555 1_555
H26_3 C35_3 1_555 1_555
C36_3 C35_3 1_555 1_555
N8_3 C31_3 1_555 1_555
N9_3 C32_3 1_555 1_555
H27_3 N9_3 1_555 1_555
N10_3 C32_3 1_555 1_555
Ag5 N8_3 1_555 1_555
H37_3 C50_3 1_555 1_555
C51_3 C50_3 1_555 1_555
H38_3 C51_3 1_555 1_555
C29_3 C30_3 1_555 1_555
C36_3 N10_3 1_555 1_555
N8_3 N9_3 1_555 1_555
N10_3 Ag5 1_555 1_555
Ag4_3 N2_3 1_555 1_555
C1_3 C2_3 1_555 1_555
C2_3 H1_3 1_555 1_555
C3_3 C2_3 1_555 1_555
H2_3 C3_3 1_555 1_555
C4_3 C3_3 1_555 1_555
C5_3 C4_3 1_555 1_555
H3_3 C5_3 1_555 1_555
C6_3 C1_3 1_555 1_555
C7_3 C4_3 1_555 1_555
H5_3 C7_3 1_555 1_555
C8_3 C9_3 1_555 1_555
C9_3 H6_3 1_555 1_555
C10_3 C9_3 1_555 1_555
H7_3 C10_3 1_555 1_555
C11_3 C10_3 1_555 1_555
H8_3 C11_3 1_555 1_555
C12_3 C11_3 1_555 1_555
N2_3 C7_3 1_555 1_555
N3_3 C8_3 1_555 1_555
H9_3 N3_3 1_555 1_555
N4_3 Ag4_3 1_555 1_555
Br2_3 C24_3 1_555 1_555
C17_3 C16_3 1_555 1_555
H12_3 C17_3 1_555 1_555
C18_3 C13_3 1_555 1_555
H13_3 C18_3 1_555 1_555
C19_3 C16_3 1_555 1_555
H14_3 C19_3 1_555 1_555
C20_3 C21_3 1_555 1_555
C21_3 H15_3 1_555 1_555
C22_3 C21_3 1_555 1_555
H16_3 C22_3 1_555 1_555
C23_3 C22_3 1_555 1_555
H17_3 C23_3 1_555 1_555
C24_3 C23_3 1_555 1_555
N5_3 C19_3 1_555 1_555
N6_3 C20_3 1_555 1_555
H18_3 N6_3 1_555 1_555
N7_3 C20_3 1_555 1_555
Ag2_4 N5_3 1_555 1_555
C38_3 H28_3 1_555 1_555
C39_3 C38_3 1_555 1_555
H29_3 C39_3 1_555 1_555
Br5_3 C60_3 1_555 1_555
C53_3 C52_3 1_555 1_555
H39_3 C53_3 1_555 1_555
C54_3 C49_3 1_555 1_555
H40_3 C54_3 1_555 1_555
C55_3 C52_3 1_555 1_555
H41_3 C55_3 1_555 1_555
C56_3 C57_3 1_555 1_555
C57_3 H42_3 1_555 1_555
C58_3 C57_3 1_555 1_555
H43_3 C58_3 1_555 1_555
C59_3 C58_3 1_555 1_555
H44_3 C59_3 1_555 1_555
C60_3 C59_3 1_555 1_555
N15_3 Ag2_4 1_555 1_555
N16_3 C56_3 1_555 1_555
H45_3 N16_3 1_555 1_555
N17_3 Ag2_4 1_555 1_555
C5_3 C6_3 1_555 1_555
C8_3 N4_3 1_555 1_555
C12_3 N4_3 1_555 1_555
N2_3 N3_3 1_555 1_555
C17_3 C18_3 1_555 1_555
C24_3 N7_3 1_555 1_555
N5_3 N6_3 1_555 1_555
N7_3 Ag2_4 1_555 1_555
C53_3 C54_3 1_555 1_555
C55_3 N15_3 1_555 1_555
C56_3 N17_3 1_555 1_555
C60_3 N17_3 1_555 1_555
N15_3 N16_3 1_555 1_555
Ag4 N2_4 1_555 1_555
Br1_4 C12_4 1_555 1_555
C1_4 C2_4 1_555 1_555
C2_4 H1_4 1_555 1_555
C3_4 C2_4 1_555 1_555
H2_4 C3_4 1_555 1_555
C4_4 C3_4 1_555 1_555
C5_4 C4_4 1_555 1_555
H3_4 C5_4 1_555 1_555
C6_4 C1_4 1_555 1_555
H4_4 C6_4 1_555 1_555
C7_4 C4_4 1_555 1_555
H5_4 C7_4 1_555 1_555
C8_4 C9_4 1_555 1_555
C9_4 H6_4 1_555 1_555
C10_4 C9_4 1_555 1_555
H7_4 C10_4 1_555 1_555
C11_4 C10_4 1_555 1_555
H8_4 C11_4 1_555 1_555
C12_4 C11_4 1_555 1_555
N1_4 C1_4 1_555 1_555
N2_4 C7_4 1_555 1_555
N3_4 C8_4 1_555 1_555
H9_4 N3_4 1_555 1_555
N4_4 Ag4 1_555 1_555
H19_4 C26_4 1_555 1_555
C27_4 C26_4 1_555 1_555
H20_4 C27_4 1_555 1_555
C50_4 C49_4 1_555 1_555
H37_4 C50_4 1_555 1_555
C51_4 C50_4 1_555 1_555
H38_4 C51_4 1_555 1_555
C52_4 C51_4 1_555 1_555
C53_4 C52_4 1_555 1_555
H39_4 C53_4 1_555 1_555
C54_4 C49_4 1_555 1_555
C55_4 C52_4 1_555 1_555
H41_4 C55_4 1_555 1_555
C56_4 C57_4 1_555 1_555
C57_4 H42_4 1_555 1_555
C58_4 C57_4 1_555 1_555
H43_4 C58_4 1_555 1_555
C59_4 C58_4 1_555 1_555
H44_4 C59_4 1_555 1_555
C60_4 C59_4 1_555 1_555
N15_4 Ag2_5 1_555 1_555
N16_4 C56_4 1_555 1_555
H45_4 N16_4 1_555 1_555
N17_4 Ag2_5 1_555 1_555
C5_4 C6_4 1_555 1_555
C8_4 N4_4 1_555 1_555
C12_4 N4_4 1_555 1_555
N2_4 N3_4 1_555 1_555
C53_4 C54_4 1_555 1_555
C55_4 N15_4 1_555 1_555
C56_4 N17_4 1_555 1_555
C60_4 N17_4 1_555 1_555
N15_4 N16_4 1_555 1_555
C65_4 C64_4 1_555 1_555
H48_4 C65_4 1_555 1_555
C66_4 C61_4 1_555 1_555
C67_4 C64_4 1_555 1_555
H50_4 C67_4 1_555 1_555
C68_4 C69_4 1_555 1_555
C69_4 H51_4 1_555 1_555
C70_4 C69_4 1_555 1_555
H52_4 C70_4 1_555 1_555
C71_4 C70_4 1_555 1_555
H53_4 C71_4 1_555 1_555
C72_4 C71_4 1_555 1_555
N22_2 C67_4 1_555 1_555
N19_4 C68_4 1_555 1_555
H54_4 N19_4 1_555 1_555
N24_2 C68_4 1_555 1_555
C65_4 C66_4 1_555 1_555
C72_4 N24_2 1_555 1_555
N22_2 N19_4 1_555 1_555
C14_4 C13_4 1_555 1_555
H10_4 C14_4 1_555 1_555
C15_4 C14_4 1_555 1_555
H11_4 C15_4 1_555 1_555
C16_4 C15_4 1_555 1_555
C17_4 C16_4 1_555 1_555
H12_4 C17_4 1_555 1_555
C18_4 C13_4 1_555 1_555
C19_4 C16_4 1_555 1_555
H14_4 C19_4 1_555 1_555
C20_4 C21_4 1_555 1_555
C21_4 H15_4 1_555 1_555
C22_4 C21_4 1_555 1_555
H16_4 C22_4 1_555 1_555
C23_4 C22_4 1_555 1_555
H17_4 C23_4 1_555 1_555
C24_4 C23_4 1_555 1_555
N5_4 C19_4 1_555 1_555
N6_4 C20_4 1_555 1_555
H18_4 N6_4 1_555 1_555
N7_4 C20_4 1_555 1_555
Br3_4 C36_4 1_555 1_555
C29_4 C28_4 1_555 1_555
H21_4 C29_4 1_555 1_555
C30_4 C25_4 1_555 1_555
H22_4 C30_4 1_555 1_555
C31_4 C28_4 1_555 1_555
H23_4 C31_4 1_555 1_555
C32_4 C33_4 1_555 1_555
C33_4 H24_4 1_555 1_555
C34_4 C33_4 1_555 1_555
H25_4 C34_4 1_555 1_555
C35_4 C34_4 1_555 1_555
H26_4 C35_4 1_555 1_555
C36_4 C35_4 1_555 1_555
N8_4 C31_4 1_555 1_555
N9_4 C32_4 1_555 1_555
H27_4 N9_4 1_555 1_555
N10_4 C32_4 1_555 1_555
Ag2_6 N5_4 1_555 1_555
Ag5_2 N8_4 1_555 1_555
C38_4 H28_4 1_555 1_555
C39_4 C38_4 1_555 1_555
H29_4 C39_4 1_555 1_555
C17_4 C18_4 1_555 1_555
C24_4 N7_4 1_555 1_555
N5_4 N6_4 1_555 1_555
N7_4 Ag2_6 1_555 1_555
C29_4 C30_4 1_555 1_555
C36_4 N10_4 1_555 1_555
N8_4 N9_4 1_555 1_555
N10_4 Ag5_2 1_555 1_555
Br4_4 C48_4 1_555 1_555
C41_4 C40_4 1_555 1_555
H30_4 C41_4 1_555 1_555
C42_4 C37_4 1_555 1_555
H31_4 C42_4 1_555 1_555
C43_4 C40_4 1_555 1_555
H32_4 C43_4 1_555 1_555
C44_4 C45_4 1_555 1_555
C45_4 H33_4 1_555 1_555
C46_4 C45_4 1_555 1_555
H34_4 C46_4 1_555 1_555
C47_4 C46_4 1_555 1_555
H35_4 C47_4 1_555 1_555
C48_4 C47_4 1_555 1_555
N21 C43_4 1_555 1_555
N13_4 C44_4 1_555 1_555
H36_4 N13_4 1_555 1_555
N23 C44_4 1_555 1_555
H46_4 C62_4 1_555 1_555
C63_4 C62_4 1_555 1_555
H47_4 C63_4 1_555 1_555
C41_4 C42_4 1_555 1_555
C48_4 N23 1_555 1_555
N21 N13_4 1_555 1_555
O3 Cl1 1_555 1_555
O4 Cl1 1_555 1_555
Cl1_2 O1 1_555 1_555
O2 Cl1_2 1_555 1_555
Cl1_3 O1_2 1_555 1_555
O2_2 Cl1_3 1_555 1_555
O3_2 Cl1_3 1_555 1_555
O4_2 Cl1_3 1_555 1_555
Cl1_4 O1_3 1_555 1_555
O2_3 Cl1_4 1_555 1_555
O3_3 Cl1_5 1_555 1_555
O4_3 Cl1_5 1_555 1_555
Cl1_6 O1_4 1_555 1_555
O2_4 Cl1_6 1_555 1_555
O3_4 Cl1_6 1_555 1_555
O4_4 Cl1_6 1_555 1_555
O3_5 Cl1_7 1_555 1_555
O4_5 Cl1_7 1_555 1_555
Cl1_8 O1_5 1_555 1_555
O2_5 Cl1_8 1_555 1_555
Cl1_9 O1_6 1_555 1_555
O2_6 Cl1_9 1_555 1_555
O3_6 Cl1_9 1_555 1_555
O4_6 Cl1_9 1_555 1_555
Cl1_10 O1_7 1_555 1_555
O2_7 Cl1_10 1_555 1_555
O3_7 Cl1_11 1_555 1_555
O4_7 Cl1_11 1_555 1_555
Cl1_12 O1_8 1_555 1_555
O2_8 Cl1_12 1_555 1_555
O3_8 Cl1_12 1_555 1_555
O4_8 Cl1_12 1_555 1_555
O3_9 Cl1_13 1_555 1_555
O4_9 Cl1_13 1_555 1_555
Cl1_14 O1_9 1_555 1_555
O2_9 Cl1_14 1_555 1_555
Cl1_15 O1_10 1_555 1_555
O2_10 Cl1_15 1_555 1_555
O3_10 Cl1_15 1_555 1_555
O4_10 Cl1_15 1_555 1_555
Cl1_16 O1_11 1_555 1_555
O2_11 Cl1_16 1_555 1_555
O3_11 Cl1_17 1_555 1_555
O4_11 Cl1_17 1_555 1_555
Cl1_18 O1_12 1_555 1_555
O2_12 Cl1_18 1_555 1_555
O3_12 Cl1_18 1_555 1_555
O4_12 Cl1_18 1_555 1_555

#END
