
###############################################################################
#
# This file contains modified crystal structure data generated from the
# MOF subset of the Cambridge Structural Database (CSD) v543 
# hosted by the Cambridge Crystallographic Data Centre (CCDC).
#
# This work is licensed under the Creative Commons
# Attribution-NonCommercial-ShareAlike 4.0 International License.
# To view a copy of this license, visit
# http://creativecommons.org/licenses/by-nc-sa/4.0/
# or send a letter to
# Creative Commons, PO Box 1866, Mountain View, CA 94042, USA.
#
# CIF created using the CSD Python API on 29 September 2022
# The structure has been converted into the P1 space group
# The structure has a 3D framework
# The original CSD entry KENVOR02 is in the cubic crystal system
# The original CSD entry KENVOR02 is in a Sohncke space group
# The framework has been calculated to contain at least 10.0% void space
# The void calculation uses a probe of radius 1.32A, grid spacing 0.4
# The framework is charged, counterions have been retained in the structure
#
###############################################################################

data_KENVOR02
_chemical_formula_moiety         '(C288 H216 Ag14 Br24 Cl18 N80 O48 2+)n'
_symmetry_cell_setting           triclinic
_symmetry_space_group_name_H-M   'P 1'
_symmetry_Int_Tables_number      1
_space_group_name_Hall           'P 1'
loop_
_symmetry_equiv_pos_site_id
_symmetry_equiv_pos_as_xyz
1 x,y,z
_cell_length_a                   21.154(2)
_cell_length_b                   21.154(2)
_cell_length_c                   21.154(2)
_cell_angle_alpha                90
_cell_angle_beta                 90
_cell_angle_gamma                90
_cell_volume                     9466.24
loop_
_atom_site_label
_atom_site_type_symbol
_atom_site_fract_x
_atom_site_fract_y
_atom_site_fract_z
Br1 Br 0.09011(11) 0.90332(14) 0.27144(11)
C10 C 0.0268(9) 0.8232(11) 0.1085(11)
H7 H 0.0420 0.7925 0.0802
C11 C 0.0594(8) 0.8352(7) 0.1597(10)
H8 H 0.0961 0.8115 0.1681
C12 C 0.0421(7) 0.8796(9) 0.1997(9)
Ag1 Ag 0.96227(8) 0.0000 0.2500
C1 C 0.7561(6) 0.1739(5) 0.2444(6)
C2 C 0.8176(6) 0.1654(7) 0.2413(6)
H1 H 0.8446 0.1973 0.2565
C3 C 0.8440(6) 0.1106(6) 0.2159(6)
H2 H 0.8881 0.1049 0.2152
C4 C 0.8052(6) 0.0661(6) 0.1926(6)
C5 C 0.7439(9) 0.0728(6) 0.1950(6)
H3 H 0.7182 0.0415 0.1768
C6 C 0.7160(7) 0.1236(7) 0.2230(7)
H4 H 0.6719 0.1257 0.2281
C7 C 0.8311(7) 0.0053(8) 0.1616(6)
N1 N 0.7298(5) 0.2298(5) 0.2702(5)
C13 C 0.7556(6) 0.2561(6) 0.3261(5)
C14 C 0.7587(6) 0.3176(6) 0.3346(7)
H10 H 0.7435 0.3446 0.3027
C15 C 0.7841(6) 0.3440(6) 0.3894(6)
H11 H 0.7848 0.3881 0.3951
C16 C 0.8074(6) 0.3052(6) 0.4339(6)
C17 C 0.8050(6) 0.2439(9) 0.4272(6)
H12 H 0.8232 0.2182 0.4585
C18 C 0.7770(7) 0.2160(7) 0.3764(7)
H13 H 0.7719 0.1719 0.3743
C19 C 0.8384(6) 0.3311(7) 0.4947(8)
H14 H 0.8619 0.3030 0.5197
N5 N 0.8342(5) 0.3836(6) 0.5113(5)
Br2 Br 0.72856(11) 0.59011(11) 0.59668(14)
C20 C 0.8572(8) 0.4545(7) 0.5980(7)
C21 C 0.9058(8) 0.4704(8) 0.6458(8)
H15 H 0.9417 0.4456 0.6543
C22 C 0.8915(11) 0.5268(9) 0.6768(11)
H16 H 0.9198 0.5420 0.7075
C23 C 0.8403(10) 0.5594(8) 0.6648(7)
H17 H 0.8319 0.5961 0.6885
C24 C 0.8003(9) 0.5421(7) 0.6204(9)
N6 N 0.8680(6) 0.3979(6) 0.5666(6)
H18 H 0.8957 0.3713 0.5811
N7 N 0.8092(6) 0.4904(7) 0.5813(6)
C25 C 0.6739(5) 0.2556(6) 0.2439(6)
C26 C 0.6654(7) 0.2587(6) 0.1824(6)
H19 H 0.6973 0.2435 0.1554
C27 C 0.6106(6) 0.2841(6) 0.1560(6)
H20 H 0.6049 0.2848 0.1119
C28 C 0.5661(6) 0.3074(6) 0.1948(6)
C29 C 0.5728(6) 0.3050(6) 0.2561(9)
H21 H 0.5415 0.3232 0.2818
C30 C 0.6236(7) 0.2770(7) 0.2840(7)
H22 H 0.6257 0.2719 0.3281
C31 C 0.5053(8) 0.3384(6) 0.1689(7)
H23 H 0.4803 0.3619 0.1970
N8 N 0.4887(5) 0.3342(5) 0.1164(6)
C32 C 0.4020(7) 0.3572(8) 0.0455(7)
C33 C 0.3542(8) 0.4058(8) 0.0296(8)
H24 H 0.3457 0.4417 0.0544
N9 N 0.4334(6) 0.3680(6) 0.1021(6)
H27 H 0.4189 0.3957 0.1287
N10 N 0.4187(6) 0.3092(6) 0.0096(7)
Ag2 Ag 0.7500 0.46227(8) 0.5000
Ag3 Ag 0.5000 0.2500 0.03773(8)
C37 C 0.2439(6) 0.3261(5) 0.2444(6)
C38 C 0.1824(6) 0.3346(7) 0.2413(6)
H28 H 0.1554 0.3027 0.2565
C39 C 0.1560(6) 0.3894(6) 0.2159(6)
H29 H 0.1119 0.3951 0.2152
C40 C 0.1948(6) 0.4339(6) 0.1926(6)
C41 C 0.2561(9) 0.4272(6) 0.1950(6)
H30 H 0.2818 0.4585 0.1768
C42 C 0.2840(7) 0.3764(7) 0.2230(7)
H31 H 0.3281 0.3743 0.2281
C43 C 0.1689(7) 0.4947(8) 0.1616(6)
H32 H 0.1970 0.5197 0.1381
C44 C 0.0455(7) 0.5980(7) 0.1428(8)
C45 C 0.0296(8) 0.6458(8) 0.0942(8)
H33 H 0.0544 0.6543 0.0583
N11 N 0.2702(5) 0.2702(5) 0.2702(5)
N12 N 0.1164(6) 0.5113(5) 0.1658(5)
N13 N 0.1021(6) 0.5666(6) 0.1320(6)
H36 H 0.1287 0.5811 0.1043
N14 N 0.0096(7) 0.5813(6) 0.1908(6)
C49 C 0.2444(6) 0.2439(6) 0.3261(5)
C50 C 0.2413(6) 0.1824(6) 0.3346(7)
H37 H 0.2565 0.1554 0.3027
C51 C 0.2159(6) 0.1560(6) 0.3894(6)
H38 H 0.2152 0.1119 0.3951
C52 C 0.1926(6) 0.1948(6) 0.4339(6)
C53 C 0.1950(6) 0.2561(9) 0.4272(6)
H39 H 0.1768 0.2818 0.4585
C54 C 0.2230(7) 0.2840(7) 0.3764(7)
H40 H 0.2281 0.3281 0.3743
C55 C 0.1616(6) 0.1689(7) 0.4947(8)
H41 H 0.1381 0.1970 0.5197
N15 N 0.1658(5) 0.1164(6) 0.5113(5)
C56 C 0.1428(8) 0.0455(7) 0.5980(7)
C57 C 0.0942(8) 0.0296(8) 0.6458(8)
H42 H 0.0583 0.0544 0.6543
N16 N 0.1320(6) 0.1021(6) 0.5666(6)
H45 H 0.1043 0.1287 0.5811
N17 N 0.1908(6) 0.0096(7) 0.5813(6)
C61 C 0.3261(5) 0.2444(6) 0.2439(6)
C62 C 0.3346(7) 0.2413(6) 0.1824(6)
H46 H 0.3027 0.2565 0.1554
C63 C 0.3894(6) 0.2159(6) 0.1560(6)
H47 H 0.3951 0.2152 0.1119
C64 C 0.4339(6) 0.1926(6) 0.1948(6)
C65 C 0.4272(6) 0.1950(6) 0.2561(9)
H48 H 0.4585 0.1768 0.2818
C66 C 0.3764(7) 0.2230(7) 0.2840(7)
H49 H 0.3743 0.2281 0.3281
C67 C 0.4947(8) 0.1616(6) 0.1689(7)
H50 H 0.5197 0.1381 0.1970
N18 N 0.5113(5) 0.1658(5) 0.1164(6)
C68 C 0.5980(7) 0.1428(8) 0.0455(7)
C69 C 0.6458(8) 0.0942(8) 0.0296(8)
H51 H 0.6543 0.0583 0.0544
N19 N 0.5666(6) 0.1320(6) 0.1021(6)
H54 H 0.5811 0.1043 0.1287
N20 N 0.5813(6) 0.1908(6) 0.0096(7)
Ag4 Ag 0.03773(8) 0.5000 0.2500
Ag5 Ag 0.2500 0.03773(8) 0.5000
N21 N 0.8836(6) 0.0113(5) 0.3342(5)
N22 N 0.6658(5) 0.3836(6) 0.4887(5)
N23 N 0.9904(7) 0.0813(6) 0.3092(6)
N24 N 0.6908(6) 0.4904(7) 0.4187(6)
Br3 Br 0.40332(14) 0.22856(11) 0.90989(11)
C34 C 0.3232(11) 0.3915(11) 0.9732(9)
H25 H 0.2925 0.4198 0.9580
C35 C 0.3352(7) 0.3403(10) 0.9406(8)
H26 H 0.3115 0.3319 0.9039
C36 C 0.3796(9) 0.3003(9) 0.9579(7)
Br6 Br 0.59668(14) 0.27144(11) 0.90989(11)
C70 C 0.6768(11) 0.1085(11) 0.9732(9)
H52 H 0.7075 0.0802 0.9580
C71 C 0.6648(7) 0.1597(10) 0.9406(8)
H53 H 0.6885 0.1681 0.9039
C72 C 0.6204(9) 0.1997(9) 0.9579(7)
Ag1_2 Ag 0.96227(8) 1.0000 0.2500
H5 H 0.8030 0.9803 0.1381
C8 C 0.9545(7) 0.9020(7) 0.1428(8)
C9 C 0.9704(8) 0.8542(8) 0.0942(8)
H6 H 0.9456 0.8457 0.0583
N2 N 0.8836(6) 0.9887(5) 0.1658(5)
N3 N 0.8979(6) 0.9334(6) 0.1320(6)
H9 H 0.8713 0.9189 0.1043
N4 N 0.9904(7) 0.9187(6) 0.1908(6)
Br5 Br 0.27144(11) 0.90989(11) 0.59668(14)
C58 C 0.1085(11) 0.9732(9) 0.6768(11)
H43 H 0.0802 0.9580 0.7075
C59 C 0.1597(10) 0.9406(8) 0.6648(7)
H44 H 0.1681 0.9039 0.6885
C60 C 0.1997(9) 0.9579(7) 0.6204(9)
Br4 Br 0.90989(11) 0.59668(14) 0.27144(11)
C46 C 0.9732(9) 0.6768(11) 0.1085(11)
H34 H 0.9580 0.7075 0.0802
C47 C 0.9406(8) 0.6648(7) 0.1597(10)
H35 H 0.9039 0.6885 0.1681
C48 C 0.9579(7) 0.6204(9) 0.1997(9)
H41_2 H 0.3619 0.8030 0.0197
N15_2 N 0.3342(5) 0.8836(6) 0.0113(5)
C56_2 C 0.3572(8) 0.9545(7) 0.0980(7)
C57_2 C 0.4058(8) 0.9704(8) 0.1458(8)
H42_2 H 0.4417 0.9456 0.1543
N16_2 N 0.3680(6) 0.8979(6) 0.0666(6)
H45_2 H 0.3957 0.8713 0.0811
N17_2 N 0.3092(6) 0.9904(7) 0.0813(6)
Ag5_2 Ag 0.2500 0.96227(8) 0.0000
H23_2 H 0.0197 0.6381 0.6970
N8_2 N 0.0113(5) 0.6658(5) 0.6164(6)
Br3_2 Br 0.09668(14) 0.77144(11) 0.40989(11)
C32_2 C 0.0980(7) 0.6428(8) 0.5455(7)
C33_2 C 0.1458(8) 0.5942(8) 0.5296(8)
H24_2 H 0.1543 0.5583 0.5544
C34_2 C 0.1768(11) 0.6085(11) 0.4732(9)
H25_2 H 0.2075 0.5802 0.4580
C35_2 C 0.1648(7) 0.6597(10) 0.4406(8)
H26_2 H 0.1885 0.6681 0.4039
C36_2 C 0.1204(9) 0.6997(9) 0.4579(7)
N9_2 N 0.0666(6) 0.6320(6) 0.6021(6)
H27_2 H 0.0811 0.6043 0.6287
N10_2 N 0.0813(6) 0.6908(6) 0.5096(7)
Ag3_2 Ag 0.0000 0.7500 0.53773(8)
Br4_2 Br 0.59011(11) 0.40332(14) 0.77144(11)
C37_2 C 0.2561(6) 0.6739(5) 0.7444(6)
C38_2 C 0.3176(6) 0.6654(7) 0.7413(6)
H28_2 H 0.3446 0.6973 0.7565
C39_2 C 0.3440(6) 0.6106(6) 0.7159(6)
H29_2 H 0.3881 0.6049 0.7152
C40_2 C 0.3052(6) 0.5661(6) 0.6926(6)
C41_2 C 0.2439(9) 0.5728(6) 0.6950(6)
H30_2 H 0.2182 0.5415 0.6768
C42_2 C 0.2160(7) 0.6236(7) 0.7230(7)
H31_2 H 0.1719 0.6257 0.7281
C43_2 C 0.3311(7) 0.5053(8) 0.6616(6)
H32_2 H 0.3030 0.4803 0.6381
C44_2 C 0.4545(7) 0.4020(7) 0.6428(8)
C45_2 C 0.4704(8) 0.3542(8) 0.5942(8)
H33_2 H 0.4456 0.3457 0.5583
C46_2 C 0.5268(9) 0.3232(11) 0.6085(11)
H34_2 H 0.5420 0.2925 0.5802
C47_2 C 0.5594(8) 0.3352(7) 0.6597(10)
H35_2 H 0.5961 0.3115 0.6681
C48_2 C 0.5421(7) 0.3796(9) 0.6997(9)
N11_2 N 0.2298(5) 0.7298(5) 0.7702(5)
N12_2 N 0.3836(6) 0.4887(5) 0.6658(5)
N13_2 N 0.3979(6) 0.4334(6) 0.6320(6)
H36_2 H 0.3713 0.4189 0.6043
N14_2 N 0.4904(7) 0.4187(6) 0.6908(6)
C49_2 C 0.2556(6) 0.7561(6) 0.8261(5)
C50_2 C 0.2587(6) 0.8176(6) 0.8346(7)
H37_2 H 0.2435 0.8446 0.8027
C51_2 C 0.2841(6) 0.8440(6) 0.8894(6)
H38_2 H 0.2848 0.8881 0.8951
C52_2 C 0.3074(6) 0.8052(6) 0.9339(6)
C53_2 C 0.3050(6) 0.7439(9) 0.9272(6)
H39_2 H 0.3232 0.7182 0.9585
C54_2 C 0.2770(7) 0.7160(7) 0.8764(7)
H40_2 H 0.2719 0.6719 0.8743
C55_2 C 0.3384(6) 0.8311(7) 0.9947(8)
C61_2 C 0.1739(5) 0.7556(6) 0.7439(6)
C62_2 C 0.1654(7) 0.7587(6) 0.6824(6)
H46_2 H 0.1973 0.7435 0.6554
C63_2 C 0.1106(6) 0.7841(6) 0.6560(6)
H47_2 H 0.1049 0.7848 0.6119
C64_2 C 0.0661(6) 0.8074(6) 0.6948(6)
C65_2 C 0.0728(6) 0.8050(6) 0.7561(9)
H48_2 H 0.0415 0.8232 0.7818
C66_2 C 0.1236(7) 0.7770(7) 0.7840(7)
H49_2 H 0.1257 0.7719 0.8281
C67_2 C 0.0053(8) 0.8384(6) 0.6689(7)
Ag4_2 Ag 0.46227(8) 0.5000 0.7500
Ag5_3 Ag 0.2500 0.96227(8) 1.0000
Ag1_3 Ag 0.53773(8) 0.0000 0.7500
Br1_2 Br 0.40989(11) 0.09668(14) 0.77144(11)
H5_2 H 0.6970 0.0197 0.6381
C8_2 C 0.5455(7) 0.0980(7) 0.6428(8)
C9_2 C 0.5296(8) 0.1458(8) 0.5942(8)
H6_2 H 0.5544 0.1543 0.5583
C10_2 C 0.4732(9) 0.1768(11) 0.6085(11)
H7_2 H 0.4580 0.2075 0.5802
C11_2 C 0.4406(8) 0.1648(7) 0.6597(10)
H8_2 H 0.4039 0.1885 0.6681
C12_2 C 0.4579(7) 0.1204(9) 0.6997(9)
N2_2 N 0.6164(6) 0.0113(5) 0.6658(5)
N3_2 N 0.6021(6) 0.0666(6) 0.6320(6)
H9_2 H 0.6287 0.0811 0.6043
N4_2 N 0.5096(7) 0.0813(6) 0.6908(6)
H14_2 H 0.6381 0.6970 0.0197
N5_2 N 0.6658(5) 0.6164(6) 0.0113(5)
Br2_2 Br 0.77144(11) 0.40989(11) 0.09668(14)
C20_2 C 0.6428(8) 0.5455(7) 0.0980(7)
C21_2 C 0.5942(8) 0.5296(8) 0.1458(8)
H15_2 H 0.5583 0.5544 0.1543
C22_2 C 0.6085(11) 0.4732(9) 0.1768(11)
H16_2 H 0.5802 0.4580 0.2075
C23_2 C 0.6597(10) 0.4406(8) 0.1648(7)
H17_2 H 0.6681 0.4039 0.1885
C24_2 C 0.6997(9) 0.4579(7) 0.1204(9)
N6_2 N 0.6320(6) 0.6021(6) 0.0666(6)
H18_2 H 0.6043 0.6287 0.0811
N7_2 N 0.6908(6) 0.5096(7) 0.0813(6)
Ag2_2 Ag 0.7500 0.53773(8) 0.0000
Ag1_4 Ag 0.53773(8) 1.0000 0.7500
C1_2 C 0.7439(6) 0.8261(5) 0.7444(6)
C2_2 C 0.6824(6) 0.8346(7) 0.7413(6)
H1_2 H 0.6554 0.8027 0.7565
C3_2 C 0.6560(6) 0.8894(6) 0.7159(6)
H2_2 H 0.6119 0.8951 0.7152
C4_2 C 0.6948(6) 0.9339(6) 0.6926(6)
C5_2 C 0.7561(9) 0.9272(6) 0.6950(6)
H3_2 H 0.7818 0.9585 0.6768
C6_2 C 0.7840(7) 0.8764(7) 0.7230(7)
H4_2 H 0.8281 0.8743 0.7281
C7_2 C 0.6689(7) 0.9947(8) 0.6616(6)
N1_2 N 0.7702(5) 0.7702(5) 0.7702(5)
C13_2 C 0.7444(6) 0.7439(6) 0.8261(5)
C14_2 C 0.7413(6) 0.6824(6) 0.8346(7)
H10_2 H 0.7565 0.6554 0.8027
C15_2 C 0.7159(6) 0.6560(6) 0.8894(6)
H11_2 H 0.7152 0.6119 0.8951
C16_2 C 0.6926(6) 0.6948(6) 0.9339(6)
C17_2 C 0.6950(6) 0.7561(9) 0.9272(6)
H12_2 H 0.6768 0.7818 0.9585
C18_2 C 0.7230(7) 0.7840(7) 0.8764(7)
H13_2 H 0.7281 0.8281 0.8743
C19_2 C 0.6616(6) 0.6689(7) 0.9947(8)
C25_2 C 0.8261(5) 0.7444(6) 0.7439(6)
C26_2 C 0.8346(7) 0.7413(6) 0.6824(6)
H19_2 H 0.8027 0.7565 0.6554
C27_2 C 0.8894(6) 0.7159(6) 0.6560(6)
H20_2 H 0.8951 0.7152 0.6119
C28_2 C 0.9339(6) 0.6926(6) 0.6948(6)
C29_2 C 0.9272(6) 0.6950(6) 0.7561(9)
H21_2 H 0.9585 0.6768 0.7818
C30_2 C 0.8764(7) 0.7230(7) 0.7840(7)
H22_2 H 0.8743 0.7281 0.8281
C31_2 C 0.9947(8) 0.6616(6) 0.6689(7)
Ag2_3 Ag 0.7500 0.53773(8) 1.0000
Ag3_3 Ag 1.0000 0.7500 0.53773(8)
H50_2 H 0.9803 0.8619 0.6970
N18_2 N 0.9887(5) 0.8342(5) 0.6164(6)
Br6_2 Br 0.90332(14) 0.72856(11) 0.40989(11)
C68_2 C 0.9020(7) 0.8572(8) 0.5455(7)
C69_2 C 0.8542(8) 0.9058(8) 0.5296(8)
H51_2 H 0.8457 0.9417 0.5544
C70_2 C 0.8232(11) 0.8915(11) 0.4732(9)
H52_2 H 0.7925 0.9198 0.4580
C71_2 C 0.8352(7) 0.8403(10) 0.4406(8)
H53_2 H 0.8115 0.8319 0.4039
C72_2 C 0.8796(9) 0.8003(9) 0.4579(7)
N19_2 N 0.9334(6) 0.8680(6) 0.6021(6)
H54_2 H 0.9189 0.8957 0.6287
N20_2 N 0.9187(6) 0.8092(6) 0.5096(7)
N21_2 N 0.6164(6) 0.9887(5) 0.8342(5)
N22_2 N 0.8342(5) 0.6164(6) 0.9887(5)
N23_2 N 0.5096(7) 0.9187(6) 0.8092(6)
N24_2 N 0.8092(6) 0.5096(7) 0.9187(6)
H32_3 H 0.8030 0.0197 0.3619
C44_3 C 0.9545(7) 0.0980(7) 0.3572(8)
C45_3 C 0.9704(8) 0.1458(8) 0.4058(8)
H33_3 H 0.9456 0.1543 0.4417
N13_3 N 0.8979(6) 0.0666(6) 0.3680(6)
H36_3 H 0.8713 0.0811 0.3957
C1_3 C 0.2439(6) 0.6739(5) 0.2556(6)
C2_3 C 0.1824(6) 0.6654(7) 0.2587(6)
H1_3 H 0.1554 0.6973 0.2435
C3_3 C 0.1560(6) 0.6106(6) 0.2841(6)
H2_3 H 0.1119 0.6049 0.2848
C4_3 C 0.1948(6) 0.5661(6) 0.3074(6)
C5_3 C 0.2561(9) 0.5728(6) 0.3050(6)
H3_3 H 0.2818 0.5415 0.3232
C6_3 C 0.2840(7) 0.6236(7) 0.2770(7)
H4_3 H 0.3281 0.6257 0.2719
C7_3 C 0.1689(7) 0.5053(8) 0.3384(6)
H5_3 H 0.1970 0.4803 0.3619
C8_3 C 0.0455(7) 0.4020(7) 0.3572(8)
C9_3 C 0.0296(8) 0.3542(8) 0.4058(8)
H6_3 H 0.0544 0.3457 0.4417
N1_3 N 0.2702(5) 0.7298(5) 0.2298(5)
N2_3 N 0.1164(6) 0.4887(5) 0.3342(5)
N3_3 N 0.1021(6) 0.4334(6) 0.3680(6)
H9_3 H 0.1287 0.4189 0.3957
N4_3 N 0.0096(7) 0.4187(6) 0.3092(6)
C13_3 C 0.2444(6) 0.7561(6) 0.1739(5)
C14_3 C 0.2413(6) 0.8176(6) 0.1654(7)
H10_3 H 0.2565 0.8446 0.1973
C15_3 C 0.2159(6) 0.8440(6) 0.1106(6)
H11_3 H 0.2152 0.8881 0.1049
C16_3 C 0.1926(6) 0.8052(6) 0.0661(6)
C17_3 C 0.1950(6) 0.7439(9) 0.0728(6)
H12_3 H 0.1768 0.7182 0.0415
C18_3 C 0.2230(7) 0.7160(7) 0.1236(7)
H13_3 H 0.2281 0.6719 0.1257
C19_3 C 0.1616(6) 0.8311(7) 0.0053(8)
C25_3 C 0.3261(5) 0.7556(6) 0.2561(6)
C26_3 C 0.3346(7) 0.7587(6) 0.3176(6)
H19_3 H 0.3027 0.7435 0.3446
C27_3 C 0.3894(6) 0.7841(6) 0.3440(6)
H20_3 H 0.3951 0.7848 0.3881
C28_3 C 0.4339(6) 0.8074(6) 0.3052(6)
C29_3 C 0.4272(6) 0.8050(6) 0.2439(9)
H21_3 H 0.4585 0.8232 0.2182
C30_3 C 0.3764(7) 0.7770(7) 0.2160(7)
H22_3 H 0.3743 0.7719 0.1719
C31_3 C 0.4947(8) 0.8384(6) 0.3311(7)
H23_3 H 0.5197 0.8619 0.3030
N8_3 N 0.5113(5) 0.8342(5) 0.3836(6)
Br3_3 Br 0.59668(14) 0.72856(11) 0.59011(11)
C32_3 C 0.5980(7) 0.8572(8) 0.4545(7)
C33_3 C 0.6458(8) 0.9058(8) 0.4704(8)
H24_3 H 0.6543 0.9417 0.4456
C34_3 C 0.6768(11) 0.8915(11) 0.5268(9)
H25_3 H 0.7075 0.9198 0.5420
C35_3 C 0.6648(7) 0.8403(10) 0.5594(8)
H26_3 H 0.6885 0.8319 0.5961
C36_3 C 0.6204(9) 0.8003(9) 0.5421(7)
N9_3 N 0.5666(6) 0.8680(6) 0.3979(6)
H27_3 H 0.5811 0.8957 0.3713
N10_3 N 0.5813(6) 0.8092(6) 0.4904(7)
Ag3_4 Ag 0.5000 0.7500 0.46227(8)
C37_3 C 0.7561(6) 0.8261(5) 0.2556(6)
C38_3 C 0.8176(6) 0.8346(7) 0.2587(6)
H28_3 H 0.8446 0.8027 0.2435
C39_3 C 0.8440(6) 0.8894(6) 0.2841(6)
H29_3 H 0.8881 0.8951 0.2848
C40_3 C 0.8052(6) 0.9339(6) 0.3074(6)
C41_3 C 0.7439(9) 0.9272(6) 0.3050(6)
H30_3 H 0.7182 0.9585 0.3232
C42_3 C 0.7160(7) 0.8764(7) 0.2770(7)
H31_3 H 0.6719 0.8743 0.2719
C43_3 C 0.8311(7) 0.9947(8) 0.3384(6)
N11_3 N 0.7298(5) 0.7702(5) 0.2298(5)
C49_3 C 0.7556(6) 0.7439(6) 0.1739(5)
C50_3 C 0.7587(6) 0.6824(6) 0.1654(7)
H37_3 H 0.7435 0.6554 0.1973
C51_3 C 0.7841(6) 0.6560(6) 0.1106(6)
H38_3 H 0.7848 0.6119 0.1049
C52_3 C 0.8074(6) 0.6948(6) 0.0661(6)
C53_3 C 0.8050(6) 0.7561(9) 0.0728(6)
H39_3 H 0.8232 0.7818 0.0415
C54_3 C 0.7770(7) 0.7840(7) 0.1236(7)
H40_3 H 0.7719 0.8281 0.1257
C55_3 C 0.8384(6) 0.6689(7) 0.0053(8)
C61_3 C 0.6739(5) 0.7444(6) 0.2561(6)
C62_3 C 0.6654(7) 0.7413(6) 0.3176(6)
H46_3 H 0.6973 0.7565 0.3446
C63_3 C 0.6106(6) 0.7159(6) 0.3440(6)
H47_3 H 0.6049 0.7152 0.3881
C64_3 C 0.5661(6) 0.6926(6) 0.3052(6)
C65_3 C 0.5728(6) 0.6950(6) 0.2439(9)
H48_3 H 0.5415 0.6768 0.2182
C66_3 C 0.6236(7) 0.7230(7) 0.2160(7)
H49_3 H 0.6257 0.7281 0.1719
C67_3 C 0.5053(8) 0.6616(6) 0.3311(7)
H50_3 H 0.4803 0.6381 0.3030
N18_3 N 0.4887(5) 0.6658(5) 0.3836(6)
Br6_3 Br 0.40332(14) 0.77144(11) 0.59011(11)
C68_3 C 0.4020(7) 0.6428(8) 0.4545(7)
C69_3 C 0.3542(8) 0.5942(8) 0.4704(8)
H51_3 H 0.3457 0.5583 0.4456
C70_3 C 0.3232(11) 0.6085(11) 0.5268(9)
H52_3 H 0.2925 0.5802 0.5420
C71_3 C 0.3352(7) 0.6597(10) 0.5594(8)
H53_3 H 0.3115 0.6681 0.5961
C72_3 C 0.3796(9) 0.6997(9) 0.5421(7)
N19_3 N 0.4334(6) 0.6320(6) 0.3979(6)
H54_3 H 0.4189 0.6043 0.3713
N20_3 N 0.4187(6) 0.6908(6) 0.4904(7)
H14_3 H 0.1381 0.8030 0.9803
N5_3 N 0.1658(5) 0.8836(6) 0.9887(5)
C20_3 C 0.1428(8) 0.9545(7) 0.9020(7)
C21_3 C 0.0942(8) 0.9704(8) 0.8542(8)
H15_3 H 0.0583 0.9456 0.8457
N6_3 N 0.1320(6) 0.8979(6) 0.9334(6)
H18_3 H 0.1043 0.8713 0.9189
N7_3 N 0.1908(6) 0.9904(7) 0.9187(6)
H41_3 H 0.8619 0.6970 0.9803
Br5_2 Br 0.72856(11) 0.40989(11) 0.90332(14)
C56_3 C 0.8572(8) 0.5455(7) 0.9020(7)
C57_3 C 0.9058(8) 0.5296(8) 0.8542(8)
H42_3 H 0.9417 0.5544 0.8457
C58_2 C 0.8915(11) 0.4732(9) 0.8232(11)
H43_2 H 0.9198 0.4580 0.7925
C59_2 C 0.8403(10) 0.4406(8) 0.8352(7)
H44_2 H 0.8319 0.4039 0.8115
C60_2 C 0.8003(9) 0.4579(7) 0.8796(9)
N16_3 N 0.8680(6) 0.6021(6) 0.9334(6)
H45_3 H 0.8957 0.6287 0.9189
Br1_3 Br 0.90989(11) 0.40332(14) 0.22856(11)
C10_3 C 0.9732(9) 0.3232(11) 0.3915(11)
H7_3 H 0.9580 0.2925 0.4198
C11_3 C 0.9406(8) 0.3352(7) 0.3403(10)
H8_3 H 0.9039 0.3115 0.3319
C12_3 C 0.9579(7) 0.3796(9) 0.3003(9)
Br1_4 Br 0.59011(11) 0.59668(14) 0.72856(11)
C1_4 C 0.2561(6) 0.3261(5) 0.7556(6)
C2_4 C 0.3176(6) 0.3346(7) 0.7587(6)
H1_4 H 0.3446 0.3027 0.7435
C3_4 C 0.3440(6) 0.3894(6) 0.7841(6)
H2_4 H 0.3881 0.3951 0.7848
C4_4 C 0.3052(6) 0.4339(6) 0.8074(6)
C5_4 C 0.2439(9) 0.4272(6) 0.8050(6)
H3_4 H 0.2182 0.4585 0.8232
C6_4 C 0.2160(7) 0.3764(7) 0.7770(7)
H4_4 H 0.1719 0.3743 0.7719
C7_4 C 0.3311(7) 0.4947(8) 0.8384(6)
H5_4 H 0.3030 0.5197 0.8619
C8_4 C 0.4545(7) 0.5980(7) 0.8572(8)
C9_4 C 0.4704(8) 0.6458(8) 0.9058(8)
H6_4 H 0.4456 0.6543 0.9417
C10_4 C 0.5268(9) 0.6768(11) 0.8915(11)
H7_4 H 0.5420 0.7075 0.9198
C11_4 C 0.5594(8) 0.6648(7) 0.8403(10)
H8_4 H 0.5961 0.6885 0.8319
C12_4 C 0.5421(7) 0.6204(9) 0.8003(9)
N1_4 N 0.2298(5) 0.2702(5) 0.7298(5)
N2_4 N 0.3836(6) 0.5113(5) 0.8342(5)
N3_4 N 0.3979(6) 0.5666(6) 0.8680(6)
H9_4 H 0.3713 0.5811 0.8957
N4_4 N 0.4904(7) 0.5813(6) 0.8092(6)
C13_4 C 0.2556(6) 0.2439(6) 0.6739(5)
C14_4 C 0.2587(6) 0.1824(6) 0.6654(7)
H10_4 H 0.2435 0.1554 0.6973
C15_4 C 0.2841(6) 0.1560(6) 0.6106(6)
H11_4 H 0.2848 0.1119 0.6049
C16_4 C 0.3074(6) 0.1948(6) 0.5661(6)
C17_4 C 0.3050(6) 0.2561(9) 0.5728(6)
H12_4 H 0.3232 0.2818 0.5415
C18_4 C 0.2770(7) 0.2840(7) 0.6236(7)
H13_4 H 0.2719 0.3281 0.6257
C19_4 C 0.3384(6) 0.1689(7) 0.5053(8)
H14_4 H 0.3619 0.1970 0.4803
N5_4 N 0.3342(5) 0.1164(6) 0.4887(5)
C20_4 C 0.3572(8) 0.0455(7) 0.4020(7)
C21_4 C 0.4058(8) 0.0296(8) 0.3542(8)
H15_4 H 0.4417 0.0544 0.3457
N6_4 N 0.3680(6) 0.1021(6) 0.4334(6)
H18_4 H 0.3957 0.1287 0.4189
N7_4 N 0.3092(6) 0.0096(7) 0.4187(6)
C25_4 C 0.1739(5) 0.2444(6) 0.7561(6)
C26_4 C 0.1654(7) 0.2413(6) 0.8176(6)
H19_4 H 0.1973 0.2565 0.8446
C27_4 C 0.1106(6) 0.2159(6) 0.8440(6)
H20_4 H 0.1049 0.2152 0.8881
C28_4 C 0.0661(6) 0.1926(6) 0.8052(6)
C29_4 C 0.0728(6) 0.1950(6) 0.7439(9)
H21_4 H 0.0415 0.1768 0.7182
C30_4 C 0.1236(7) 0.2230(7) 0.7160(7)
H22_4 H 0.1257 0.2281 0.6719
C31_4 C 0.0053(8) 0.1616(6) 0.8311(7)
Ag3_5 Ag 0.0000 0.2500 0.96227(8)
H50_4 H 0.0197 0.3619 0.8030
N18_4 N 0.0113(5) 0.3342(5) 0.8836(6)
C68_4 C 0.0980(7) 0.3572(8) 0.9545(7)
C69_4 C 0.1458(8) 0.4058(8) 0.9704(8)
H51_4 H 0.1543 0.4417 0.9456
N19_4 N 0.0666(6) 0.3680(6) 0.8979(6)
H54_4 H 0.0811 0.3957 0.8713
N20_4 N 0.0813(6) 0.3092(6) 0.9904(7)
Br2_3 Br 0.22856(11) 0.90989(11) 0.40332(14)
C22_3 C 0.3915(11) 0.9732(9) 0.3232(11)
H16_3 H 0.4198 0.9580 0.2925
C23_3 C 0.3403(10) 0.9406(8) 0.3352(7)
H17_3 H 0.3319 0.9039 0.3115
C24_3 C 0.3003(9) 0.9579(7) 0.3796(9)
H23_4 H 0.9803 0.1381 0.8030
N8_4 N 0.9887(5) 0.1658(5) 0.8836(6)
C32_4 C 0.9020(7) 0.1428(8) 0.9545(7)
C33_4 C 0.8542(8) 0.0942(8) 0.9704(8)
H24_4 H 0.8457 0.0583 0.9456
N9_4 N 0.9334(6) 0.1320(6) 0.8979(6)
H27_4 H 0.9189 0.1043 0.8713
N10_4 N 0.9187(6) 0.1908(6) 0.9904(7)
Ag3_6 Ag 1.0000 0.2500 0.96227(8)
C37_4 C 0.7439(6) 0.1739(5) 0.7556(6)
C38_4 C 0.6824(6) 0.1654(7) 0.7587(6)
H28_4 H 0.6554 0.1973 0.7435
C39_4 C 0.6560(6) 0.1106(6) 0.7841(6)
H29_4 H 0.6119 0.1049 0.7848
C40_4 C 0.6948(6) 0.0661(6) 0.8074(6)
C41_4 C 0.7561(9) 0.0728(6) 0.8050(6)
H30_4 H 0.7818 0.0415 0.8232
C42_4 C 0.7840(7) 0.1236(7) 0.7770(7)
H31_4 H 0.8281 0.1257 0.7719
C43_4 C 0.6689(7) 0.0053(8) 0.8384(6)
N11_4 N 0.7702(5) 0.2298(5) 0.7298(5)
C49_4 C 0.7444(6) 0.2561(6) 0.6739(5)
C50_4 C 0.7413(6) 0.3176(6) 0.6654(7)
H37_4 H 0.7565 0.3446 0.6973
C51_4 C 0.7159(6) 0.3440(6) 0.6106(6)
H38_4 H 0.7152 0.3881 0.6049
C52_4 C 0.6926(6) 0.3052(6) 0.5661(6)
C53_4 C 0.6950(6) 0.2439(9) 0.5728(6)
H39_4 H 0.6768 0.2182 0.5415
C54_4 C 0.7230(7) 0.2160(7) 0.6236(7)
H40_4 H 0.7281 0.1719 0.6257
C55_4 C 0.6616(6) 0.3311(7) 0.5053(8)
H41_4 H 0.6381 0.3030 0.4803
Br5_3 Br 0.77144(11) 0.59011(11) 0.40332(14)
C56_4 C 0.6428(8) 0.4545(7) 0.4020(7)
C57_4 C 0.5942(8) 0.4704(8) 0.3542(8)
H42_4 H 0.5583 0.4456 0.3457
C58_3 C 0.6085(11) 0.5268(9) 0.3232(11)
H43_3 H 0.5802 0.5420 0.2925
C59_3 C 0.6597(10) 0.5594(8) 0.3352(7)
H44_3 H 0.6681 0.5961 0.3115
C60_3 C 0.6997(9) 0.5421(7) 0.3796(9)
N16_4 N 0.6320(6) 0.3979(6) 0.4334(6)
H45_4 H 0.6043 0.3713 0.4189
C61_4 C 0.8261(5) 0.2556(6) 0.7561(6)
C62_4 C 0.8346(7) 0.2587(6) 0.8176(6)
H46_4 H 0.8027 0.2435 0.8446
C63_4 C 0.8894(6) 0.2841(6) 0.8440(6)
H47_4 H 0.8951 0.2848 0.8881
C64_4 C 0.9339(6) 0.3074(6) 0.8052(6)
C65_4 C 0.9272(6) 0.3050(6) 0.7439(9)
H48_4 H 0.9585 0.3232 0.7182
C66_4 C 0.8764(7) 0.2770(7) 0.7160(7)
H49_4 H 0.8743 0.2719 0.6719
C67_4 C 0.9947(8) 0.3384(6) 0.8311(7)
Br4_3 Br 0.40989(11) 0.90332(14) 0.72856(11)
H32_4 H 0.6970 0.9803 0.8619
C44_4 C 0.5455(7) 0.9020(7) 0.8572(8)
C45_4 C 0.5296(8) 0.8542(8) 0.9058(8)
H33_4 H 0.5544 0.8457 0.9417
C46_3 C 0.4732(9) 0.8232(11) 0.8915(11)
H34_3 H 0.4580 0.7925 0.9198
C47_3 C 0.4406(8) 0.8352(7) 0.8403(10)
H35_3 H 0.4039 0.8115 0.8319
C48_3 C 0.4579(7) 0.8796(9) 0.8003(9)
N13_4 N 0.6021(6) 0.9334(6) 0.8680(6)
H36_4 H 0.6287 0.9189 0.8957
Br5_4 Br 0.22856(11) 0.09011(11) 0.09668(14)
C58_4 C 0.3915(11) 0.0268(9) 0.1768(11)
H43_4 H 0.4198 0.0420 0.2075
C59_4 C 0.3403(10) 0.0594(8) 0.1648(7)
H44_4 H 0.3319 0.0961 0.1885
C60_4 C 0.3003(9) 0.0421(7) 0.1204(9)
Br4_4 Br 0.09011(11) 0.09668(14) 0.22856(11)
C46_4 C 0.0268(9) 0.1768(11) 0.3915(11)
H34_4 H 0.0420 0.2075 0.4198
C47_4 C 0.0594(8) 0.1648(7) 0.3403(10)
H35_4 H 0.0961 0.1885 0.3319
C48_4 C 0.0421(7) 0.1204(9) 0.3003(9)
Br2_4 Br 0.27144(11) 0.09011(11) 0.90332(14)
C22_4 C 0.1085(11) 0.0268(9) 0.8232(11)
H16_4 H 0.0802 0.0420 0.7925
C23_4 C 0.1597(10) 0.0594(8) 0.8352(7)
H17_4 H 0.1681 0.0961 0.8115
C24_4 C 0.1997(9) 0.0421(7) 0.8796(9)
Br6_4 Br 0.09668(14) 0.22856(11) 0.09011(11)
C70_4 C 0.1768(11) 0.3915(11) 0.0268(9)
H52_4 H 0.2075 0.4198 0.0420
C71_4 C 0.1648(7) 0.3403(10) 0.0594(8)
H53_4 H 0.1885 0.3319 0.0961
C72_4 C 0.1204(9) 0.3003(9) 0.0421(7)
Br3_4 Br 0.90332(14) 0.27144(11) 0.09011(11)
C34_4 C 0.8232(11) 0.1085(11) 0.0268(9)
H25_4 H 0.7925 0.0802 0.0420
C35_4 C 0.8352(7) 0.1597(10) 0.0594(8)
H26_4 H 0.8115 0.1681 0.0961
C36_4 C 0.8796(9) 0.1997(9) 0.0421(7)
Cl1 Cl 0.7500 0.9364(3) 0.0000
O1 O 0.8035(8) 0.9031(7) 0.0237(6)
O2 O 0.7242(7) 0.9732(8) 0.0491(8)
Cl1_2 Cl 0.7500 0.9364(3) 1.0000
O3 O 0.6965(8) 0.9031(7) 0.9763(6)
O4 O 0.7758(7) 0.9732(8) 0.9509(8)
Cl1_3 Cl 0.7500 0.0636(3) 0.5000
O1_2 O 0.6965(8) 0.0969(7) 0.5237(6)
O2_2 O 0.7758(7) 0.0268(8) 0.5491(8)
O3_2 O 0.8035(8) 0.0969(7) 0.4763(6)
O4_2 O 0.7242(7) 0.0268(8) 0.4509(8)
Cl1_4 Cl 0.2500 0.4364(3) 0.5000
O1_3 O 0.1965(8) 0.4031(7) 0.4763(6)
O2_3 O 0.2758(7) 0.4732(8) 0.4509(8)
O3_3 O 0.3035(8) 0.4031(7) 0.5237(6)
O4_3 O 0.2242(7) 0.4732(8) 0.5491(8)
Cl1_5 Cl 0.2500 0.5636(3) 0.0000
O3_4 O 0.1965(8) 0.5969(7) 0.0237(6)
O4_4 O 0.2758(7) 0.5268(8) 0.0491(8)
Cl1_6 Cl 0.2500 0.5636(3) 1.0000
O1_4 O 0.3035(8) 0.5969(7) 0.9763(6)
O2_4 O 0.2242(7) 0.5268(8) 0.9509(8)
Cl1_7 Cl 0.0000 0.7500 0.9364(3)
O1_5 O 0.0237(6) 0.8035(8) 0.9031(7)
O2_5 O 0.0491(8) 0.7242(7) 0.9732(8)
Cl1_8 Cl 1.0000 0.7500 0.9364(3)
O3_5 O 0.9763(6) 0.6965(8) 0.9031(7)
O4_5 O 0.9509(8) 0.7758(7) 0.9732(8)
Cl1_9 Cl 0.5000 0.7500 0.0636(3)
O1_6 O 0.5237(6) 0.6965(8) 0.0969(7)
O2_6 O 0.5491(8) 0.7758(7) 0.0268(8)
O3_6 O 0.4763(6) 0.8035(8) 0.0969(7)
O4_6 O 0.4509(8) 0.7242(7) 0.0268(8)
Cl1_10 Cl 0.5000 0.2500 0.4364(3)
O1_7 O 0.4763(6) 0.1965(8) 0.4031(7)
O2_7 O 0.4509(8) 0.2758(7) 0.4732(8)
O3_7 O 0.5237(6) 0.3035(8) 0.4031(7)
O4_7 O 0.5491(8) 0.2242(7) 0.4732(8)
Cl1_11 Cl 0.0000 0.2500 0.5636(3)
O3_8 O 0.0237(6) 0.1965(8) 0.5969(7)
O4_8 O 0.0491(8) 0.2758(7) 0.5268(8)
Cl1_12 Cl 1.0000 0.2500 0.5636(3)
O1_8 O 0.9763(6) 0.3035(8) 0.5969(7)
O2_8 O 0.9509(8) 0.2242(7) 0.5268(8)
Cl1_13 Cl 0.9364(3) 0.0000 0.7500
O1_9 O 0.9031(7) 0.0237(6) 0.8035(8)
O2_9 O 0.9732(8) 0.0491(8) 0.7242(7)
Cl1_14 Cl 0.9364(3) 1.0000 0.7500
O3_9 O 0.9031(7) 0.9763(6) 0.6965(8)
O4_9 O 0.9732(8) 0.9509(8) 0.7758(7)
Cl1_15 Cl 0.0636(3) 0.5000 0.7500
O1_10 O 0.0969(7) 0.5237(6) 0.6965(8)
O2_10 O 0.0268(8) 0.5491(8) 0.7758(7)
O3_10 O 0.0969(7) 0.4763(6) 0.8035(8)
O4_10 O 0.0268(8) 0.4509(8) 0.7242(7)
Cl1_16 Cl 0.4364(3) 0.5000 0.2500
O1_11 O 0.4031(7) 0.4763(6) 0.1965(8)
O2_11 O 0.4732(8) 0.4509(8) 0.2758(7)
O3_11 O 0.4031(7) 0.5237(6) 0.3035(8)
O4_11 O 0.4732(8) 0.5491(8) 0.2242(7)
Cl1_17 Cl 0.5636(3) 0.0000 0.2500
O3_12 O 0.5969(7) 0.0237(6) 0.1965(8)
O4_12 O 0.5268(8) 0.0491(8) 0.2758(7)
Cl1_18 Cl 0.5636(3) 1.0000 0.2500
O1_12 O 0.5969(7) 0.9763(6) 0.3035(8)
O2_12 O 0.5268(8) 0.9509(8) 0.2242(7)
loop_
_geom_bond_atom_site_label_1
_geom_bond_atom_site_label_2
_geom_bond_site_symmetry_1
_geom_bond_site_symmetry_2
Br1 C12 1_555 1_555
H7 C10 1_555 1_555
C11 C10 1_555 1_555
H8 C11 1_555 1_555
C12 C11 1_555 1_555
C1 C2 1_555 1_555
C2 H1 1_555 1_555
C3 C2 1_555 1_555
H2 C3 1_555 1_555
C4 C3 1_555 1_555
C5 C4 1_555 1_555
H3 C5 1_555 1_555
C6 C1 1_555 1_555
H4 C6 1_555 1_555
C7 C4 1_555 1_555
N1 C1 1_555 1_555
C13 N1 1_555 1_555
C14 C13 1_555 1_555
H10 C14 1_555 1_555
C15 C14 1_555 1_555
H11 C15 1_555 1_555
C16 C15 1_555 1_555
C17 C16 1_555 1_555
H12 C17 1_555 1_555
C18 C13 1_555 1_555
H13 C18 1_555 1_555
C19 C16 1_555 1_555
H14 C19 1_555 1_555
N5 C19 1_555 1_555
Br2 C24 1_555 1_555
C20 C21 1_555 1_555
C21 H15 1_555 1_555
C22 C21 1_555 1_555
H16 C22 1_555 1_555
C23 C22 1_555 1_555
H17 C23 1_555 1_555
C24 C23 1_555 1_555
N6 N5 1_555 1_555
H18 N6 1_555 1_555
N7 C20 1_555 1_555
C25 N1 1_555 1_555
C26 C25 1_555 1_555
H19 C26 1_555 1_555
C27 C26 1_555 1_555
H20 C27 1_555 1_555
C28 C27 1_555 1_555
C29 C28 1_555 1_555
H21 C29 1_555 1_555
C30 C25 1_555 1_555
H22 C30 1_555 1_555
C31 C28 1_555 1_555
H23 C31 1_555 1_555
N8 C31 1_555 1_555
C32 C33 1_555 1_555
C33 H24 1_555 1_555
N9 N8 1_555 1_555
H27 N9 1_555 1_555
N10 C32 1_555 1_555
Ag2 N5 1_555 1_555
Ag3 N8 1_555 1_555
C37 C38 1_555 1_555
C38 H28 1_555 1_555
C39 C38 1_555 1_555
H29 C39 1_555 1_555
C40 C39 1_555 1_555
C41 C40 1_555 1_555
H30 C41 1_555 1_555
C42 C37 1_555 1_555
H31 C42 1_555 1_555
C43 C40 1_555 1_555
H32 C43 1_555 1_555
C44 C45 1_555 1_555
C45 H33 1_555 1_555
N11 C37 1_555 1_555
N12 C43 1_555 1_555
N13 C44 1_555 1_555
H36 N13 1_555 1_555
N14 C44 1_555 1_555
C49 N11 1_555 1_555
C50 C49 1_555 1_555
H37 C50 1_555 1_555
C51 C50 1_555 1_555
H38 C51 1_555 1_555
C52 C51 1_555 1_555
C53 C52 1_555 1_555
H39 C53 1_555 1_555
C54 C49 1_555 1_555
H40 C54 1_555 1_555
C55 C52 1_555 1_555
H41 C55 1_555 1_555
N15 C55 1_555 1_555
C56 C57 1_555 1_555
C57 H42 1_555 1_555
N16 N15 1_555 1_555
H45 N16 1_555 1_555
N17 C56 1_555 1_555
C61 N11 1_555 1_555
C62 C61 1_555 1_555
H46 C62 1_555 1_555
C63 C62 1_555 1_555
H47 C63 1_555 1_555
C64 C63 1_555 1_555
C65 C64 1_555 1_555
H48 C65 1_555 1_555
C66 C61 1_555 1_555
H49 C66 1_555 1_555
C67 C64 1_555 1_555
H50 C67 1_555 1_555
N18 Ag3 1_555 1_555
C68 C69 1_555 1_555
C69 H51 1_555 1_555
N19 N18 1_555 1_555
H54 N19 1_555 1_555
N20 Ag3 1_555 1_555
Ag4 N12 1_555 1_555
Ag5 N15 1_555 1_555
N21 Ag1 1_555 1_555
N22 Ag2 1_555 1_555
N23 Ag1 1_555 1_555
N24 Ag2 1_555 1_555
C5 C6 1_555 1_555
C17 C18 1_555 1_555
C20 N6 1_555 1_555
C24 N7 1_555 1_555
N7 Ag2 1_555 1_555
C29 C30 1_555 1_555
C32 N9 1_555 1_555
N10 Ag3 1_555 1_555
C41 C42 1_555 1_555
N12 N13 1_555 1_555
N14 Ag4 1_555 1_555
C53 C54 1_555 1_555
C56 N16 1_555 1_555
N17 Ag5 1_555 1_555
C65 C66 1_555 1_555
C67 N18 1_555 1_555
C68 N19 1_555 1_555
C68 N20 1_555 1_555
Br3 C36 1_555 1_555
H25 C34 1_555 1_555
C35 C34 1_555 1_555
H26 C35 1_555 1_555
C36 C35 1_555 1_555
Br6 C72 1_555 1_555
H52 C70 1_555 1_555
C71 C70 1_555 1_555
H53 C71 1_555 1_555
C72 C71 1_555 1_555
Ag1_2 N2 1_555 1_555
C8 C9 1_555 1_555
C9 H6 1_555 1_555
N3 C8 1_555 1_555
H9 N3 1_555 1_555
N4 Ag1_2 1_555 1_555
Br5 C60 1_555 1_555
H43 C58 1_555 1_555
C59 C58 1_555 1_555
H44 C59 1_555 1_555
C60 C59 1_555 1_555
C8 N4 1_555 1_555
N2 N3 1_555 1_555
Br4 C48 1_555 1_555
H34 C46 1_555 1_555
C47 C46 1_555 1_555
H35 C47 1_555 1_555
C48 C47 1_555 1_555
C56_2 C57_2 1_555 1_555
C57_2 H42_2 1_555 1_555
N16_2 N15_2 1_555 1_555
H45_2 N16_2 1_555 1_555
N17_2 C56_2 1_555 1_555
Ag5_2 N15_2 1_555 1_555
C56_2 N16_2 1_555 1_555
N17_2 Ag5_2 1_555 1_555
Br3_2 C36_2 1_555 1_555
C32_2 C33_2 1_555 1_555
C33_2 H24_2 1_555 1_555
C34_2 C33_2 1_555 1_555
H25_2 C34_2 1_555 1_555
C35_2 C34_2 1_555 1_555
H26_2 C35_2 1_555 1_555
C36_2 C35_2 1_555 1_555
N9_2 N8_2 1_555 1_555
H27_2 N9_2 1_555 1_555
N10_2 C32_2 1_555 1_555
Ag3_2 N8_2 1_555 1_555
Br4_2 C48_2 1_555 1_555
C37_2 C38_2 1_555 1_555
C38_2 H28_2 1_555 1_555
C39_2 C38_2 1_555 1_555
H29_2 C39_2 1_555 1_555
C40_2 C39_2 1_555 1_555
C41_2 C40_2 1_555 1_555
H30_2 C41_2 1_555 1_555
C42_2 C37_2 1_555 1_555
H31_2 C42_2 1_555 1_555
C43_2 C40_2 1_555 1_555
H32_2 C43_2 1_555 1_555
C44_2 C45_2 1_555 1_555
C45_2 H33_2 1_555 1_555
C46_2 C45_2 1_555 1_555
H34_2 C46_2 1_555 1_555
C47_2 C46_2 1_555 1_555
H35_2 C47_2 1_555 1_555
C48_2 C47_2 1_555 1_555
N11_2 C37_2 1_555 1_555
N12_2 C43_2 1_555 1_555
N13_2 C44_2 1_555 1_555
H36_2 N13_2 1_555 1_555
N14_2 C44_2 1_555 1_555
C49_2 N11_2 1_555 1_555
C50_2 C49_2 1_555 1_555
H37_2 C50_2 1_555 1_555
C51_2 C50_2 1_555 1_555
H38_2 C51_2 1_555 1_555
C52_2 C51_2 1_555 1_555
C53_2 C52_2 1_555 1_555
H39_2 C53_2 1_555 1_555
C54_2 C49_2 1_555 1_555
H40_2 C54_2 1_555 1_555
C55_2 C52_2 1_555 1_555
C61_2 N11_2 1_555 1_555
C62_2 C61_2 1_555 1_555
H46_2 C62_2 1_555 1_555
C63_2 C62_2 1_555 1_555
H47_2 C63_2 1_555 1_555
C64_2 C63_2 1_555 1_555
C65_2 C64_2 1_555 1_555
H48_2 C65_2 1_555 1_555
C66_2 C61_2 1_555 1_555
H49_2 C66_2 1_555 1_555
C67_2 C64_2 1_555 1_555
Ag4_2 N12_2 1_555 1_555
C32_2 N9_2 1_555 1_555
C36_2 N10_2 1_555 1_555
N10_2 Ag3_2 1_555 1_555
C41_2 C42_2 1_555 1_555
C48_2 N14_2 1_555 1_555
N12_2 N13_2 1_555 1_555
N14_2 Ag4_2 1_555 1_555
C53_2 C54_2 1_555 1_555
C65_2 C66_2 1_555 1_555
Ag1_3 N2_2 1_555 1_555
Br1_2 C12_2 1_555 1_555
C8_2 C9_2 1_555 1_555
C9_2 H6_2 1_555 1_555
C10_2 C9_2 1_555 1_555
H7_2 C10_2 1_555 1_555
C11_2 C10_2 1_555 1_555
H8_2 C11_2 1_555 1_555
C12_2 C11_2 1_555 1_555
N3_2 C8_2 1_555 1_555
H9_2 N3_2 1_555 1_555
N4_2 Ag1_3 1_555 1_555
C8_2 N4_2 1_555 1_555
C12_2 N4_2 1_555 1_555
N2_2 N3_2 1_555 1_555
Br2_2 C24_2 1_555 1_555
C20_2 C21_2 1_555 1_555
C21_2 H15_2 1_555 1_555
C22_2 C21_2 1_555 1_555
H16_2 C22_2 1_555 1_555
C23_2 C22_2 1_555 1_555
H17_2 C23_2 1_555 1_555
C24_2 C23_2 1_555 1_555
N6_2 N5_2 1_555 1_555
H18_2 N6_2 1_555 1_555
N7_2 C20_2 1_555 1_555
Ag2_2 N5_2 1_555 1_555
C20_2 N6_2 1_555 1_555
C24_2 N7_2 1_555 1_555
N7_2 Ag2_2 1_555 1_555
C1_2 C2_2 1_555 1_555
C2_2 H1_2 1_555 1_555
C3_2 C2_2 1_555 1_555
H2_2 C3_2 1_555 1_555
C4_2 C3_2 1_555 1_555
C5_2 C4_2 1_555 1_555
H3_2 C5_2 1_555 1_555
C6_2 C1_2 1_555 1_555
H4_2 C6_2 1_555 1_555
C7_2 C4_2 1_555 1_555
N1_2 C1_2 1_555 1_555
C13_2 N1_2 1_555 1_555
C14_2 C13_2 1_555 1_555
H10_2 C14_2 1_555 1_555
C15_2 C14_2 1_555 1_555
H11_2 C15_2 1_555 1_555
C16_2 C15_2 1_555 1_555
C17_2 C16_2 1_555 1_555
H12_2 C17_2 1_555 1_555
C18_2 C13_2 1_555 1_555
H13_2 C18_2 1_555 1_555
C19_2 C16_2 1_555 1_555
C25_2 N1_2 1_555 1_555
C26_2 C25_2 1_555 1_555
H19_2 C26_2 1_555 1_555
C27_2 C26_2 1_555 1_555
H20_2 C27_2 1_555 1_555
C28_2 C27_2 1_555 1_555
C29_2 C28_2 1_555 1_555
H21_2 C29_2 1_555 1_555
C30_2 C25_2 1_555 1_555
H22_2 C30_2 1_555 1_555
C31_2 C28_2 1_555 1_555
N18_2 Ag3_3 1_555 1_555
Br6_2 C72_2 1_555 1_555
C68_2 C69_2 1_555 1_555
C69_2 H51_2 1_555 1_555
C70_2 C69_2 1_555 1_555
H52_2 C70_2 1_555 1_555
C71_2 C70_2 1_555 1_555
H53_2 C71_2 1_555 1_555
C72_2 C71_2 1_555 1_555
N19_2 N18_2 1_555 1_555
H54_2 N19_2 1_555 1_555
N20_2 Ag3_3 1_555 1_555
N21_2 Ag1_4 1_555 1_555
N22_2 Ag2_3 1_555 1_555
N23_2 Ag1_4 1_555 1_555
N24_2 Ag2_3 1_555 1_555
C5_2 C6_2 1_555 1_555
C17_2 C18_2 1_555 1_555
C29_2 C30_2 1_555 1_555
C68_2 N19_2 1_555 1_555
C68_2 N20_2 1_555 1_555
C72_2 N20_2 1_555 1_555
C44_3 C45_3 1_555 1_555
C45_3 H33_3 1_555 1_555
N13_3 C44_3 1_555 1_555
H36_3 N13_3 1_555 1_555
N23 C44_3 1_555 1_555
N21 N13_3 1_555 1_555
Ag4 N2_3 1_555 1_555
C1_3 C2_3 1_555 1_555
C2_3 H1_3 1_555 1_555
C3_3 C2_3 1_555 1_555
H2_3 C3_3 1_555 1_555
C4_3 C3_3 1_555 1_555
C5_3 C4_3 1_555 1_555
H3_3 C5_3 1_555 1_555
C6_3 C1_3 1_555 1_555
H4_3 C6_3 1_555 1_555
C7_3 C4_3 1_555 1_555
H5_3 C7_3 1_555 1_555
C8_3 C9_3 1_555 1_555
C9_3 H6_3 1_555 1_555
N1_3 C1_3 1_555 1_555
N2_3 C7_3 1_555 1_555
N3_3 C8_3 1_555 1_555
H9_3 N3_3 1_555 1_555
N4_3 Ag4 1_555 1_555
C13_3 N1_3 1_555 1_555
C14_3 C13_3 1_555 1_555
H10_3 C14_3 1_555 1_555
C15_3 C14_3 1_555 1_555
H11_3 C15_3 1_555 1_555
C16_3 C15_3 1_555 1_555
C17_3 C16_3 1_555 1_555
H12_3 C17_3 1_555 1_555
C18_3 C13_3 1_555 1_555
H13_3 C18_3 1_555 1_555
C19_3 C16_3 1_555 1_555
C25_3 N1_3 1_555 1_555
C26_3 C25_3 1_555 1_555
H19_3 C26_3 1_555 1_555
C27_3 C26_3 1_555 1_555
H20_3 C27_3 1_555 1_555
C28_3 C27_3 1_555 1_555
C29_3 C28_3 1_555 1_555
H21_3 C29_3 1_555 1_555
C30_3 C25_3 1_555 1_555
H22_3 C30_3 1_555 1_555
C31_3 C28_3 1_555 1_555
H23_3 C31_3 1_555 1_555
N8_3 C31_3 1_555 1_555
Br3_3 C36_3 1_555 1_555
C32_3 C33_3 1_555 1_555
C33_3 H24_3 1_555 1_555
C34_3 C33_3 1_555 1_555
H25_3 C34_3 1_555 1_555
C35_3 C34_3 1_555 1_555
H26_3 C35_3 1_555 1_555
C36_3 C35_3 1_555 1_555
N9_3 N8_3 1_555 1_555
H27_3 N9_3 1_555 1_555
N10_3 C32_3 1_555 1_555
Ag3_4 N8_3 1_555 1_555
C37_3 C38_3 1_555 1_555
C38_3 H28_3 1_555 1_555
C39_3 C38_3 1_555 1_555
H29_3 C39_3 1_555 1_555
C40_3 C39_3 1_555 1_555
C41_3 C40_3 1_555 1_555
H30_3 C41_3 1_555 1_555
C42_3 C37_3 1_555 1_555
H31_3 C42_3 1_555 1_555
C43_3 C40_3 1_555 1_555
N11_3 C37_3 1_555 1_555
C49_3 N11_3 1_555 1_555
C50_3 C49_3 1_555 1_555
H37_3 C50_3 1_555 1_555
C51_3 C50_3 1_555 1_555
H38_3 C51_3 1_555 1_555
C52_3 C51_3 1_555 1_555
C53_3 C52_3 1_555 1_555
H39_3 C53_3 1_555 1_555
C54_3 C49_3 1_555 1_555
H40_3 C54_3 1_555 1_555
C55_3 C52_3 1_555 1_555
C61_3 N11_3 1_555 1_555
C62_3 C61_3 1_555 1_555
H46_3 C62_3 1_555 1_555
C63_3 C62_3 1_555 1_555
H47_3 C63_3 1_555 1_555
C64_3 C63_3 1_555 1_555
C65_3 C64_3 1_555 1_555
H48_3 C65_3 1_555 1_555
C66_3 C61_3 1_555 1_555
H49_3 C66_3 1_555 1_555
C67_3 C64_3 1_555 1_555
H50_3 C67_3 1_555 1_555
N18_3 Ag3_4 1_555 1_555
Br6_3 C72_3 1_555 1_555
C68_3 C69_3 1_555 1_555
C69_3 H51_3 1_555 1_555
C70_3 C69_3 1_555 1_555
H52_3 C70_3 1_555 1_555
C71_3 C70_3 1_555 1_555
H53_3 C71_3 1_555 1_555
C72_3 C71_3 1_555 1_555
N19_3 N18_3 1_555 1_555
H54_3 N19_3 1_555 1_555
N20_3 Ag3_4 1_555 1_555
C5_3 C6_3 1_555 1_555
C8_3 N4_3 1_555 1_555
N2_3 N3_3 1_555 1_555
C17_3 C18_3 1_555 1_555
C29_3 C30_3 1_555 1_555
C32_3 N9_3 1_555 1_555
C36_3 N10_3 1_555 1_555
N10_3 Ag3_4 1_555 1_555
C41_3 C42_3 1_555 1_555
C53_3 C54_3 1_555 1_555
C65_3 C66_3 1_555 1_555
C67_3 N18_3 1_555 1_555
C68_3 N19_3 1_555 1_555
C68_3 N20_3 1_555 1_555
C72_3 N20_3 1_555 1_555
C20_3 C21_3 1_555 1_555
C21_3 H15_3 1_555 1_555
N6_3 N5_3 1_555 1_555
H18_3 N6_3 1_555 1_555
N7_3 C20_3 1_555 1_555
Ag5_3 N5_3 1_555 1_555
Br5_2 C60_2 1_555 1_555
C56_3 C57_3 1_555 1_555
C57_3 H42_3 1_555 1_555
C58_2 C57_3 1_555 1_555
H43_2 C58_2 1_555 1_555
C59_2 C58_2 1_555 1_555
H44_2 C59_2 1_555 1_555
C60_2 C59_2 1_555 1_555
N16_3 N22_2 1_555 1_555
H45_3 N16_3 1_555 1_555
N24_2 C56_3 1_555 1_555
C20_3 N6_3 1_555 1_555
N7_3 Ag5_3 1_555 1_555
C56_3 N16_3 1_555 1_555
C60_2 N24_2 1_555 1_555
Br1_3 C12_3 1_555 1_555
H7_3 C10_3 1_555 1_555
C11_3 C10_3 1_555 1_555
H8_3 C11_3 1_555 1_555
C12_3 C11_3 1_555 1_555
Ag4_2 N2_4 1_555 1_555
Br1_4 C12_4 1_555 1_555
C1_4 C2_4 1_555 1_555
C2_4 H1_4 1_555 1_555
C3_4 C2_4 1_555 1_555
H2_4 C3_4 1_555 1_555
C4_4 C3_4 1_555 1_555
C5_4 C4_4 1_555 1_555
H3_4 C5_4 1_555 1_555
C6_4 C1_4 1_555 1_555
H4_4 C6_4 1_555 1_555
C7_4 C4_4 1_555 1_555
H5_4 C7_4 1_555 1_555
C8_4 C9_4 1_555 1_555
C9_4 H6_4 1_555 1_555
C10_4 C9_4 1_555 1_555
H7_4 C10_4 1_555 1_555
C11_4 C10_4 1_555 1_555
H8_4 C11_4 1_555 1_555
C12_4 C11_4 1_555 1_555
N1_4 C1_4 1_555 1_555
N2_4 C7_4 1_555 1_555
N3_4 C8_4 1_555 1_555
H9_4 N3_4 1_555 1_555
N4_4 Ag4_2 1_555 1_555
C13_4 N1_4 1_555 1_555
C14_4 C13_4 1_555 1_555
H10_4 C14_4 1_555 1_555
C15_4 C14_4 1_555 1_555
H11_4 C15_4 1_555 1_555
C16_4 C15_4 1_555 1_555
C17_4 C16_4 1_555 1_555
H12_4 C17_4 1_555 1_555
C18_4 C13_4 1_555 1_555
H13_4 C18_4 1_555 1_555
C19_4 C16_4 1_555 1_555
H14_4 C19_4 1_555 1_555
N5_4 C19_4 1_555 1_555
C20_4 C21_4 1_555 1_555
C21_4 H15_4 1_555 1_555
N6_4 N5_4 1_555 1_555
H18_4 N6_4 1_555 1_555
N7_4 C20_4 1_555 1_555
C25_4 N1_4 1_555 1_555
C26_4 C25_4 1_555 1_555
H19_4 C26_4 1_555 1_555
C27_4 C26_4 1_555 1_555
H20_4 C27_4 1_555 1_555
C28_4 C27_4 1_555 1_555
C29_4 C28_4 1_555 1_555
H21_4 C29_4 1_555 1_555
C30_4 C25_4 1_555 1_555
H22_4 C30_4 1_555 1_555
C31_4 C28_4 1_555 1_555
Ag5 N5_4 1_555 1_555
N18_4 Ag3_5 1_555 1_555
C68_4 C69_4 1_555 1_555
C69_4 H51_4 1_555 1_555
N19_4 N18_4 1_555 1_555
H54_4 N19_4 1_555 1_555
N20_4 Ag3_5 1_555 1_555
C5_4 C6_4 1_555 1_555
C8_4 N4_4 1_555 1_555
C12_4 N4_4 1_555 1_555
N2_4 N3_4 1_555 1_555
C17_4 C18_4 1_555 1_555
C20_4 N6_4 1_555 1_555
N7_4 Ag5 1_555 1_555
C29_4 C30_4 1_555 1_555
C68_4 N19_4 1_555 1_555
C68_4 N20_4 1_555 1_555
Br2_3 C24_3 1_555 1_555
H16_3 C22_3 1_555 1_555
C23_3 C22_3 1_555 1_555
H17_3 C23_3 1_555 1_555
C24_3 C23_3 1_555 1_555
C32_4 C33_4 1_555 1_555
C33_4 H24_4 1_555 1_555
N9_4 N8_4 1_555 1_555
H27_4 N9_4 1_555 1_555
N10_4 C32_4 1_555 1_555
Ag3_6 N8_4 1_555 1_555
C37_4 C38_4 1_555 1_555
C38_4 H28_4 1_555 1_555
C39_4 C38_4 1_555 1_555
H29_4 C39_4 1_555 1_555
C40_4 C39_4 1_555 1_555
C41_4 C40_4 1_555 1_555
H30_4 C41_4 1_555 1_555
C42_4 C37_4 1_555 1_555
H31_4 C42_4 1_555 1_555
C43_4 C40_4 1_555 1_555
N11_4 C37_4 1_555 1_555
C49_4 N11_4 1_555 1_555
C50_4 C49_4 1_555 1_555
H37_4 C50_4 1_555 1_555
C51_4 C50_4 1_555 1_555
H38_4 C51_4 1_555 1_555
C52_4 C51_4 1_555 1_555
C53_4 C52_4 1_555 1_555
H39_4 C53_4 1_555 1_555
C54_4 C49_4 1_555 1_555
H40_4 C54_4 1_555 1_555
C55_4 C52_4 1_555 1_555
H41_4 C55_4 1_555 1_555
N22 C55_4 1_555 1_555
Br5_3 C60_3 1_555 1_555
C56_4 C57_4 1_555 1_555
C57_4 H42_4 1_555 1_555
C58_3 C57_4 1_555 1_555
H43_3 C58_3 1_555 1_555
C59_3 C58_3 1_555 1_555
H44_3 C59_3 1_555 1_555
C60_3 C59_3 1_555 1_555
N16_4 N22 1_555 1_555
H45_4 N16_4 1_555 1_555
N24 C56_4 1_555 1_555
C61_4 N11_4 1_555 1_555
C62_4 C61_4 1_555 1_555
H46_4 C62_4 1_555 1_555
C63_4 C62_4 1_555 1_555
H47_4 C63_4 1_555 1_555
C64_4 C63_4 1_555 1_555
C65_4 C64_4 1_555 1_555
H48_4 C65_4 1_555 1_555
C66_4 C61_4 1_555 1_555
H49_4 C66_4 1_555 1_555
C67_4 C64_4 1_555 1_555
C32_4 N9_4 1_555 1_555
N10_4 Ag3_6 1_555 1_555
C41_4 C42_4 1_555 1_555
C53_4 C54_4 1_555 1_555
C56_4 N16_4 1_555 1_555
C60_3 N24 1_555 1_555
C65_4 C66_4 1_555 1_555
Br4_3 C48_3 1_555 1_555
C44_4 C45_4 1_555 1_555
C45_4 H33_4 1_555 1_555
C46_3 C45_4 1_555 1_555
H34_3 C46_3 1_555 1_555
C47_3 C46_3 1_555 1_555
H35_3 C47_3 1_555 1_555
C48_3 C47_3 1_555 1_555
N13_4 C44_4 1_555 1_555
H36_4 N13_4 1_555 1_555
N23_2 C44_4 1_555 1_555
C48_3 N23_2 1_555 1_555
N21_2 N13_4 1_555 1_555
Br5_4 C60_4 1_555 1_555
H43_4 C58_4 1_555 1_555
C59_4 C58_4 1_555 1_555
H44_4 C59_4 1_555 1_555
C60_4 C59_4 1_555 1_555
Br4_4 C48_4 1_555 1_555
H34_4 C46_4 1_555 1_555
C47_4 C46_4 1_555 1_555
H35_4 C47_4 1_555 1_555
C48_4 C47_4 1_555 1_555
Br2_4 C24_4 1_555 1_555
H16_4 C22_4 1_555 1_555
C23_4 C22_4 1_555 1_555
H17_4 C23_4 1_555 1_555
C24_4 C23_4 1_555 1_555
Br6_4 C72_4 1_555 1_555
H52_4 C70_4 1_555 1_555
C71_4 C70_4 1_555 1_555
H53_4 C71_4 1_555 1_555
C72_4 C71_4 1_555 1_555
Br3_4 C36_4 1_555 1_555
H25_4 C34_4 1_555 1_555
C35_4 C34_4 1_555 1_555
H26_4 C35_4 1_555 1_555
C36_4 C35_4 1_555 1_555
Cl1 O1 1_555 1_555
O2 Cl1 1_555 1_555
O3 Cl1_2 1_555 1_555
O4 Cl1_2 1_555 1_555
Cl1_3 O1_2 1_555 1_555
O2_2 Cl1_3 1_555 1_555
O3_2 Cl1_3 1_555 1_555
O4_2 Cl1_3 1_555 1_555
Cl1_4 O1_3 1_555 1_555
O2_3 Cl1_4 1_555 1_555
O3_3 Cl1_4 1_555 1_555
O4_3 Cl1_4 1_555 1_555
O3_4 Cl1_5 1_555 1_555
O4_4 Cl1_5 1_555 1_555
Cl1_6 O1_4 1_555 1_555
O2_4 Cl1_6 1_555 1_555
Cl1_7 O1_5 1_555 1_555
O2_5 Cl1_7 1_555 1_555
O3_5 Cl1_8 1_555 1_555
O4_5 Cl1_8 1_555 1_555
Cl1_9 O1_6 1_555 1_555
O2_6 Cl1_9 1_555 1_555
O3_6 Cl1_9 1_555 1_555
O4_6 Cl1_9 1_555 1_555
Cl1_10 O1_7 1_555 1_555
O2_7 Cl1_10 1_555 1_555
O3_7 Cl1_10 1_555 1_555
O4_7 Cl1_10 1_555 1_555
O3_8 Cl1_11 1_555 1_555
O4_8 Cl1_11 1_555 1_555
Cl1_12 O1_8 1_555 1_555
O2_8 Cl1_12 1_555 1_555
Cl1_13 O1_9 1_555 1_555
O2_9 Cl1_13 1_555 1_555
O3_9 Cl1_14 1_555 1_555
O4_9 Cl1_14 1_555 1_555
Cl1_15 O1_10 1_555 1_555
O2_10 Cl1_15 1_555 1_555
O3_10 Cl1_15 1_555 1_555
O4_10 Cl1_15 1_555 1_555
Cl1_16 O1_11 1_555 1_555
O2_11 Cl1_16 1_555 1_555
O3_11 Cl1_16 1_555 1_555
O4_11 Cl1_16 1_555 1_555
O3_12 Cl1_17 1_555 1_555
O4_12 Cl1_17 1_555 1_555
Cl1_18 O1_12 1_555 1_555
O2_12 Cl1_18 1_555 1_555

#END
