
###############################################################################
#
# This file contains modified crystal structure data generated from the
# MOF subset of the Cambridge Structural Database (CSD) v543 
# hosted by the Cambridge Crystallographic Data Centre (CCDC).
#
# This work is licensed under the Creative Commons
# Attribution-NonCommercial-ShareAlike 4.0 International License.
# To view a copy of this license, visit
# http://creativecommons.org/licenses/by-nc-sa/4.0/
# or send a letter to
# Creative Commons, PO Box 1866, Mountain View, CA 94042, USA.
#
# CIF created using the CSD Python API on 29 September 2022
# The structure has been converted into the P1 space group
# The structure has a 3D framework
# The original CSD entry KENVIL01 is in the cubic crystal system
# The original CSD entry KENVIL01 is in a Sohncke space group
# The framework has been calculated to contain at least 10.0% void space
# The void calculation uses a probe of radius 1.32A, grid spacing 0.4
# The framework is charged, counterions have been retained in the structure
#
###############################################################################

data_KENVIL01
_chemical_formula_moiety         '(C288 H216 Ag14 Br24 Cl18 N80 O48 2+)n'
_symmetry_cell_setting           triclinic
_symmetry_space_group_name_H-M   'P 1'
_symmetry_Int_Tables_number      1
_space_group_name_Hall           'P 1'
loop_
_symmetry_equiv_pos_site_id
_symmetry_equiv_pos_as_xyz
1 x,y,z
_cell_length_a                   21.3238(3)
_cell_length_b                   21.3238(3)
_cell_length_c                   21.3238(3)
_cell_angle_alpha                90
_cell_angle_beta                 90
_cell_angle_gamma                90
_cell_volume                     9696.03
loop_
_atom_site_label
_atom_site_type_symbol
_atom_site_fract_x
_atom_site_fract_y
_atom_site_fract_z
Br3 Br 0.09017(3) 0.09568(4) 0.23036(3)
C34 C 0.0241(2) 0.1750(2) 0.3927(3)
H25 H 0.0365 0.2059 0.4216
C35 C 0.0607(2) 0.1636(2) 0.3399(2)
H26 H 0.0971 0.1870 0.3316
C36 C 0.0414(2) 0.1164(2) 0.3005(2)
H23 H 0.8005 0.0167 0.3619
C32 C 0.95357(19) 0.09569(18) 0.35877(18)
C33 C 0.9709(2) 0.14227(19) 0.4028(2)
H24 H 0.9460 0.1502 0.4382
N8 N 0.88465(14) 0.01187(14) 0.33275(14)
N9 N 0.89893(17) 0.06452(16) 0.36765(16)
H27 H 0.8725 0.0779 0.3957
N10 N 0.98897(16) 0.08300(16) 0.30856(15)
Ag3 Ag 0.96265(2) -0.0000 0.2500
Ag1 Ag 0.7500 0.53735(2) 0.0000
C1 C 0.75525(17) 0.74528(17) 0.17362(16)
C2 C 0.75795(18) 0.68055(17) 0.16532(18)
H1 H 0.7421 0.6536 0.1965
C3 C 0.78401(17) 0.65585(17) 0.11103(17)
H2 H 0.7849 0.6121 0.1053
C4 C 0.80855(16) 0.69436(16) 0.06538(16)
C5 C 0.80575(18) 0.75950(17) 0.07400(16)
H3 H 0.8227 0.7864 0.0435
C6 C 0.77853(19) 0.78393(17) 0.12645(19)
H4 H 0.7754 0.8277 0.1308
C7 C 0.83802(18) 0.67126(18) 0.00730(18)
N1 N 0.72899(17) 0.77101(17) 0.22899(17)
Br2 Br 0.40432(4) 0.76964(3) 0.59017(3)
C13 C 0.67362(16) 0.74475(17) 0.25472(17)
C14 C 0.66532(18) 0.74205(18) 0.31945(17)
H10 H 0.6965 0.7579 0.3464
C15 C 0.61103(17) 0.71599(17) 0.34415(17)
H11 H 0.6053 0.7151 0.3879
C16 C 0.56538(16) 0.69145(16) 0.30564(16)
C17 C 0.57400(16) 0.69425(18) 0.24050(17)
H12 H 0.5435 0.6773 0.2136
C18 C 0.62645(19) 0.72147(19) 0.21607(17)
H13 H 0.6308 0.7246 0.1723
C19 C 0.50730(18) 0.66198(18) 0.32874(18)
H14 H 0.4833 0.6381 0.3005
C20 C 0.40431(18) 0.64123(18) 0.45357(19)
C21 C 0.35773(19) 0.5972(2) 0.4709(2)
H15 H 0.3498 0.5618 0.4460
C22 C 0.3250(2) 0.6073(3) 0.5241(2)
H16 H 0.2941 0.5784 0.5365
C23 C 0.3364(2) 0.6601(2) 0.5607(2)
H17 H 0.3130 0.6684 0.5971
C24 C 0.3836(2) 0.6995(2) 0.5414(2)
N5 N 0.48813(14) 0.66725(14) 0.38465(14)
N6 N 0.43548(16) 0.63235(16) 0.39893(17)
H18 H 0.4221 0.6043 0.3725
N7 N 0.41700(16) 0.69144(15) 0.48897(16)
C25 C 0.75472(17) 0.82638(16) 0.25525(17)
C26 C 0.81945(17) 0.83468(18) 0.25795(18)
H19 H 0.8464 0.8035 0.2421
C27 C 0.84415(17) 0.88897(17) 0.28401(17)
H20 H 0.8879 0.8947 0.2849
C28 C 0.80564(16) 0.93462(16) 0.30855(16)
C29 C 0.74050(17) 0.92600(16) 0.30575(18)
H21 H 0.7136 0.9565 0.3227
C30 C 0.71607(17) 0.87355(19) 0.27853(19)
H22 H 0.6723 0.8692 0.2754
C31 C 0.82874(18) 0.99270(18) 0.33802(18)
Ag2 Ag 0.5000 0.7500 0.46265(2)
Ag3_2 Ag 0.96265(2) 1.0000 0.2500
C37 C 0.24475(17) 0.75472(17) 0.17362(16)
C38 C 0.24205(18) 0.81945(17) 0.16532(18)
H28 H 0.2579 0.8464 0.1965
C39 C 0.21599(17) 0.84415(17) 0.11103(17)
H29 H 0.2151 0.8879 0.1053
C40 C 0.19145(16) 0.80564(16) 0.06538(16)
C41 C 0.19425(18) 0.74050(17) 0.07400(16)
H30 H 0.1773 0.7136 0.0435
C42 C 0.22147(19) 0.71607(17) 0.12645(19)
H31 H 0.2246 0.6723 0.1308
C43 C 0.16198(18) 0.82874(18) 0.00730(18)
N11 N 0.27101(17) 0.72899(17) 0.22899(17)
Br5 Br 0.59568(4) 0.73036(3) 0.59017(3)
C49 C 0.32638(16) 0.75525(17) 0.25472(17)
C50 C 0.33468(18) 0.75795(18) 0.31945(17)
H37 H 0.3035 0.7421 0.3464
C51 C 0.38897(17) 0.78401(17) 0.34415(17)
H38 H 0.3947 0.7849 0.3879
C52 C 0.43462(16) 0.80855(16) 0.30564(16)
C53 C 0.42600(16) 0.80575(18) 0.24050(17)
H39 H 0.4565 0.8227 0.2136
C54 C 0.37355(19) 0.77853(19) 0.21607(17)
H40 H 0.3692 0.7754 0.1723
C55 C 0.49270(18) 0.83802(18) 0.32874(18)
H41 H 0.5167 0.8619 0.3005
C56 C 0.59569(18) 0.85877(18) 0.45357(19)
C57 C 0.64227(19) 0.9028(2) 0.4709(2)
H42 H 0.6502 0.9382 0.4460
C58 C 0.6750(2) 0.8927(3) 0.5241(2)
H43 H 0.7059 0.9216 0.5365
C59 C 0.6636(2) 0.8399(2) 0.5607(2)
H44 H 0.6870 0.8316 0.5971
C60 C 0.6164(2) 0.8005(2) 0.5414(2)
N15 N 0.51187(14) 0.83275(14) 0.38465(14)
N16 N 0.56452(16) 0.86765(16) 0.39893(17)
H45 H 0.5779 0.8957 0.3725
N17 N 0.58300(16) 0.80856(15) 0.48897(16)
C61 C 0.24528(17) 0.67362(16) 0.25525(17)
C62 C 0.18055(17) 0.66532(18) 0.25795(18)
H46 H 0.1536 0.6965 0.2421
C63 C 0.15585(17) 0.61103(17) 0.28401(17)
H47 H 0.1121 0.6053 0.2849
C64 C 0.19436(16) 0.56538(16) 0.30855(16)
C65 C 0.25950(17) 0.57400(16) 0.30575(18)
H48 H 0.2864 0.5435 0.3227
C66 C 0.28393(17) 0.62645(19) 0.27853(19)
H49 H 0.3277 0.6308 0.2754
C67 C 0.17126(18) 0.50730(18) 0.33802(18)
H50 H 0.1995 0.4833 0.3619
C68 C 0.04643(19) 0.40431(18) 0.35877(18)
C69 C 0.0291(2) 0.35773(19) 0.4028(2)
H51 H 0.0540 0.3498 0.4382
N18 N 0.11535(14) 0.48813(14) 0.33275(14)
N19 N 0.10107(17) 0.43548(16) 0.36765(16)
H54 H 0.1275 0.4221 0.3957
N20 N 0.01103(16) 0.41700(16) 0.30856(15)
Ag4 Ag 0.2500 0.96265(2) 0.0000
Ag5 Ag 0.03735(2) 0.5000 0.2500
N21 N 0.66725(14) 0.61535(14) 0.01187(14)
N22 N 0.88465(14) 0.98813(14) 0.16725(14)
N23 N 0.69144(15) 0.51103(16) 0.08300(16)
N24 N 0.98897(16) 0.91700(16) 0.19144(15)
Ag1_2 Ag 0.7500 0.53735(2) 1.0000
Br1 Br 0.73036(3) 0.40983(3) 0.90432(4)
H5 H 0.8619 0.6995 0.9833
C8 C 0.85877(18) 0.54643(19) 0.90431(18)
C9 C 0.9028(2) 0.5291(2) 0.85773(19)
H6 H 0.9382 0.5540 0.8498
C10 C 0.8927(3) 0.4759(2) 0.8250(2)
H7 H 0.9216 0.4635 0.7941
C11 C 0.8399(2) 0.4393(2) 0.8364(2)
H8 H 0.8316 0.4029 0.8130
C12 C 0.8005(2) 0.4586(2) 0.8836(2)
N2 N 0.83275(14) 0.61535(14) 0.98813(14)
N3 N 0.86765(16) 0.60107(17) 0.93548(16)
H9 H 0.8957 0.6275 0.9221
N4 N 0.80856(15) 0.51103(16) 0.91700(16)
H32 H 0.1381 0.8005 0.9833
C44 C 0.14123(18) 0.95357(19) 0.90431(18)
C45 C 0.0972(2) 0.9709(2) 0.85773(19)
H33 H 0.0618 0.9460 0.8498
N12 N 0.16725(14) 0.88465(14) 0.98813(14)
N13 N 0.13235(16) 0.89893(17) 0.93548(16)
H36 H 0.1043 0.8725 0.9221
N14 N 0.19144(15) 0.98897(16) 0.91700(16)
Ag4_2 Ag 0.2500 0.96265(2) 1.0000
Br6 Br 0.90983(3) 0.40432(4) 0.23036(3)
C70 C 0.9759(2) 0.3250(2) 0.3927(3)
H52 H 0.9635 0.2941 0.4216
C71 C 0.9393(2) 0.3364(2) 0.3399(2)
H53 H 0.9029 0.3130 0.3316
C72 C 0.9586(2) 0.3836(2) 0.3005(2)
H14_2 H 0.0167 0.3619 0.8005
C20_2 C 0.09569(18) 0.35877(18) 0.95357(19)
C21_2 C 0.14227(19) 0.4028(2) 0.9709(2)
H15_2 H 0.1502 0.4382 0.9460
N5_2 N 0.01187(14) 0.33275(14) 0.88465(14)
N6_2 N 0.06452(16) 0.36765(16) 0.89893(17)
H18_2 H 0.0779 0.3957 0.8725
N7_2 N 0.08300(16) 0.30856(15) 0.98897(16)
Ag2_2 Ag 0.0000 0.2500 0.96265(2)
C37_2 C 0.25525(17) 0.24528(17) 0.67362(16)
C38_2 C 0.25795(18) 0.18055(17) 0.66532(18)
H28_2 H 0.2421 0.1536 0.6965
C39_2 C 0.28401(17) 0.15585(17) 0.61103(17)
H29_2 H 0.2849 0.1121 0.6053
C40_2 C 0.30855(16) 0.19436(16) 0.56538(16)
C41_2 C 0.30575(18) 0.25950(17) 0.57400(16)
H30_2 H 0.3227 0.2864 0.5435
C42_2 C 0.27853(19) 0.28393(17) 0.62645(19)
H31_2 H 0.2754 0.3277 0.6308
C43_2 C 0.33802(18) 0.17126(18) 0.50730(18)
H32_2 H 0.3619 0.1995 0.4833
C44_2 C 0.35877(18) 0.04643(19) 0.40431(18)
C45_2 C 0.4028(2) 0.0291(2) 0.35773(19)
H33_2 H 0.4382 0.0540 0.3498
N11_2 N 0.22899(17) 0.27101(17) 0.72899(17)
N12_2 N 0.33275(14) 0.11535(14) 0.48813(14)
N13_2 N 0.36765(16) 0.10107(17) 0.43548(16)
H36_2 H 0.3957 0.1275 0.4221
N14_2 N 0.30856(15) 0.01103(16) 0.41700(16)
C49_2 C 0.17362(16) 0.24475(17) 0.75472(17)
C50_2 C 0.16532(18) 0.24205(18) 0.81945(17)
H37_2 H 0.1965 0.2579 0.8464
C51_2 C 0.11103(17) 0.21599(17) 0.84415(17)
H38_2 H 0.1053 0.2151 0.8879
C52_2 C 0.06538(16) 0.19145(16) 0.80564(16)
C53_2 C 0.07400(16) 0.19425(18) 0.74050(17)
H39_2 H 0.0435 0.1773 0.7136
C54_2 C 0.12645(19) 0.22147(19) 0.71607(17)
H40_2 H 0.1308 0.2246 0.6723
C55_2 C 0.00730(18) 0.16198(18) 0.82874(18)
Br6_2 Br 0.59017(3) 0.59568(4) 0.73036(3)
C61_2 C 0.25472(17) 0.32638(16) 0.75525(17)
C62_2 C 0.31945(17) 0.33468(18) 0.75795(18)
H46_2 H 0.3464 0.3035 0.7421
C63_2 C 0.34415(17) 0.38897(17) 0.78401(17)
H47_2 H 0.3879 0.3947 0.7849
C64_2 C 0.30564(16) 0.43462(16) 0.80855(16)
C65_2 C 0.24050(17) 0.42600(16) 0.80575(18)
H48_2 H 0.2136 0.4565 0.8227
C66_2 C 0.21607(17) 0.37355(19) 0.77853(19)
H49_2 H 0.1723 0.3692 0.7754
C67_2 C 0.32874(18) 0.49270(18) 0.83802(18)
H50_2 H 0.3005 0.5167 0.8619
C68_2 C 0.45357(19) 0.59569(18) 0.85877(18)
C69_2 C 0.4709(2) 0.64227(19) 0.9028(2)
H51_2 H 0.4460 0.6502 0.9382
C70_2 C 0.5241(2) 0.6750(2) 0.8927(3)
H52_2 H 0.5365 0.7059 0.9216
C71_2 C 0.5607(2) 0.6636(2) 0.8399(2)
H53_2 H 0.5971 0.6870 0.8316
C72_2 C 0.5414(2) 0.6164(2) 0.8005(2)
N18_2 N 0.38465(14) 0.51187(14) 0.83275(14)
N19_2 N 0.39893(17) 0.56452(16) 0.86765(16)
H54_2 H 0.3725 0.5779 0.8957
N20_2 N 0.48897(16) 0.58300(16) 0.80856(15)
Ag4_3 Ag 0.2500 0.03735(2) 0.5000
Ag5_2 Ag 0.46265(2) 0.5000 0.7500
Br4 Br 0.23036(3) 0.90983(3) 0.40432(4)
C46 C 0.3927(3) 0.9759(2) 0.3250(2)
H34 H 0.4216 0.9635 0.2941
C47 C 0.3399(2) 0.9393(2) 0.3364(2)
H35 H 0.3316 0.9029 0.3130
C48 C 0.3005(2) 0.9586(2) 0.3836(2)
Ag1_3 Ag 0.7500 0.46265(2) 0.5000
Br1_2 Br 0.76964(3) 0.59017(3) 0.40432(4)
C1_2 C 0.74475(17) 0.25472(17) 0.67362(16)
C2_2 C 0.74205(18) 0.31945(17) 0.66532(18)
H1_2 H 0.7579 0.3464 0.6965
C3_2 C 0.71599(17) 0.34415(17) 0.61103(17)
H2_2 H 0.7151 0.3879 0.6053
C4_2 C 0.69145(16) 0.30564(16) 0.56538(16)
C5_2 C 0.69425(18) 0.24050(17) 0.57400(16)
H3_2 H 0.6773 0.2136 0.5435
C6_2 C 0.72147(19) 0.21607(17) 0.62645(19)
H4_2 H 0.7246 0.1723 0.6308
C7_2 C 0.66198(18) 0.32874(18) 0.50730(18)
H5_2 H 0.6381 0.3005 0.4833
C8_2 C 0.64123(18) 0.45357(19) 0.40431(18)
C9_2 C 0.5972(2) 0.4709(2) 0.35773(19)
H6_2 H 0.5618 0.4460 0.3498
C10_2 C 0.6073(3) 0.5241(2) 0.3250(2)
H7_2 H 0.5784 0.5365 0.2941
C11_2 C 0.6601(2) 0.5607(2) 0.3364(2)
H8_2 H 0.6684 0.5971 0.3130
C12_2 C 0.6995(2) 0.5414(2) 0.3836(2)
N1_2 N 0.77101(17) 0.22899(17) 0.72899(17)
N2_2 N 0.66725(14) 0.38465(14) 0.48813(14)
N3_2 N 0.63235(16) 0.39893(17) 0.43548(16)
H9_2 H 0.6043 0.3725 0.4221
N4_2 N 0.69144(15) 0.48897(16) 0.41700(16)
C13_2 C 0.82638(16) 0.25525(17) 0.75472(17)
C14_2 C 0.83468(18) 0.25795(18) 0.81945(17)
H10_2 H 0.8035 0.2421 0.8464
C15_2 C 0.88897(17) 0.28401(17) 0.84415(17)
H11_2 H 0.8947 0.2849 0.8879
C16_2 C 0.93462(16) 0.30855(16) 0.80564(16)
C17_2 C 0.92600(16) 0.30575(18) 0.74050(17)
H12_2 H 0.9565 0.3227 0.7136
C18_2 C 0.87355(19) 0.27853(19) 0.71607(17)
H13_2 H 0.8692 0.2754 0.6723
C19_2 C 0.99270(18) 0.33802(18) 0.82874(18)
C25_2 C 0.74528(17) 0.17362(16) 0.75525(17)
C26_2 C 0.68055(17) 0.16532(18) 0.75795(18)
H19_2 H 0.6536 0.1965 0.7421
C27_2 C 0.65585(17) 0.11103(17) 0.78401(17)
H20_2 H 0.6121 0.1053 0.7849
C28_2 C 0.69436(16) 0.06538(16) 0.80855(16)
C29_2 C 0.75950(17) 0.07400(16) 0.80575(18)
H21_2 H 0.7864 0.0435 0.8227
C30_2 C 0.78393(17) 0.12645(19) 0.77853(19)
H22_2 H 0.8277 0.1308 0.7754
C31_2 C 0.67126(18) 0.00730(18) 0.83802(18)
Ag2_3 Ag 1.0000 0.2500 0.96265(2)
Ag3_3 Ag 0.53735(2) 0.0000 0.7500
H41_2 H 0.9833 0.1381 0.8005
C56_2 C 0.90431(18) 0.14123(18) 0.95357(19)
C57_2 C 0.85773(19) 0.0972(2) 0.9709(2)
H42_2 H 0.8498 0.0618 0.9460
N15_2 N 0.98813(14) 0.16725(14) 0.88465(14)
N16_2 N 0.93548(16) 0.13235(16) 0.89893(17)
H45_2 H 0.9221 0.1043 0.8725
N17_2 N 0.91700(16) 0.19144(15) 0.98897(16)
N21_2 N 0.83275(14) 0.38465(14) 0.51187(14)
N22_2 N 0.61535(14) 0.01187(14) 0.66725(14)
N23_2 N 0.80856(15) 0.48897(16) 0.58300(16)
N24_2 N 0.51103(16) 0.08300(16) 0.69144(15)
Br3_2 Br 0.40983(3) 0.90432(4) 0.73036(3)
H23_2 H 0.6995 0.9833 0.8619
C32_2 C 0.54643(19) 0.90431(18) 0.85877(18)
C33_2 C 0.5291(2) 0.85773(19) 0.9028(2)
H24_2 H 0.5540 0.8498 0.9382
C34_2 C 0.4759(2) 0.8250(2) 0.8927(3)
H25_2 H 0.4635 0.7941 0.9216
C35_2 C 0.4393(2) 0.8364(2) 0.8399(2)
H26_2 H 0.4029 0.8130 0.8316
C36_2 C 0.4586(2) 0.8836(2) 0.8005(2)
N8_2 N 0.61535(14) 0.98813(14) 0.83275(14)
N9_2 N 0.60107(17) 0.93548(16) 0.86765(16)
H27_2 H 0.6275 0.9221 0.8957
N10_2 N 0.51103(16) 0.91700(16) 0.80856(15)
Ag3_4 Ag 0.53735(2) 1.0000 0.7500
C1_3 C 0.24475(17) 0.24528(17) 0.32638(16)
C2_3 C 0.24205(18) 0.18055(17) 0.33468(18)
H1_3 H 0.2579 0.1536 0.3035
C3_3 C 0.21599(17) 0.15585(17) 0.38897(17)
H2_3 H 0.2151 0.1121 0.3947
C4_3 C 0.19145(16) 0.19436(16) 0.43462(16)
C5_3 C 0.19425(18) 0.25950(17) 0.42600(16)
H3_3 H 0.1773 0.2864 0.4565
C6_3 C 0.22147(19) 0.28393(17) 0.37355(19)
H4_3 H 0.2246 0.3277 0.3692
C7_3 C 0.16198(18) 0.17126(18) 0.49270(18)
H5_3 H 0.1381 0.1995 0.5167
C8_3 C 0.14123(18) 0.04643(19) 0.59569(18)
C9_3 C 0.0972(2) 0.0291(2) 0.64227(19)
H6_3 H 0.0618 0.0540 0.6502
N1_3 N 0.27101(17) 0.27101(17) 0.27101(17)
N2_3 N 0.16725(14) 0.11535(14) 0.51187(14)
N3_3 N 0.13235(16) 0.10107(17) 0.56452(16)
H9_3 H 0.1043 0.1275 0.5779
N4_3 N 0.19144(15) 0.01103(16) 0.58300(16)
C13_3 C 0.32638(16) 0.24475(17) 0.24528(17)
C14_3 C 0.33468(18) 0.24205(18) 0.18055(17)
H10_3 H 0.3035 0.2579 0.1536
C15_3 C 0.38897(17) 0.21599(17) 0.15585(17)
H11_3 H 0.3947 0.2151 0.1121
C16_3 C 0.43462(16) 0.19145(16) 0.19436(16)
C17_3 C 0.42600(16) 0.19425(18) 0.25950(17)
H12_3 H 0.4565 0.1773 0.2864
C18_3 C 0.37355(19) 0.22147(19) 0.28393(17)
H13_3 H 0.3692 0.2246 0.3277
C19_3 C 0.49270(18) 0.16198(18) 0.17126(18)
H14_3 H 0.5167 0.1381 0.1995
C20_3 C 0.59569(18) 0.14123(18) 0.04643(19)
C21_3 C 0.64227(19) 0.0972(2) 0.0291(2)
H15_3 H 0.6502 0.0618 0.0540
N5_3 N 0.51187(14) 0.16725(14) 0.11535(14)
N6_3 N 0.56452(16) 0.13235(16) 0.10107(17)
H18_3 H 0.5779 0.1043 0.1275
N7_3 N 0.58300(16) 0.19144(15) 0.01103(16)
C25_3 C 0.24528(17) 0.32638(16) 0.24475(17)
C26_3 C 0.18055(17) 0.33468(18) 0.24205(18)
H19_3 H 0.1536 0.3035 0.2579
C27_3 C 0.15585(17) 0.38897(17) 0.21599(17)
H20_3 H 0.1121 0.3947 0.2151
C28_3 C 0.19436(16) 0.43462(16) 0.19145(16)
C29_3 C 0.25950(17) 0.42600(16) 0.19425(18)
H21_3 H 0.2864 0.4565 0.1773
C30_3 C 0.28393(17) 0.37355(19) 0.22147(19)
H22_3 H 0.3277 0.3692 0.2246
C31_3 C 0.17126(18) 0.49270(18) 0.16198(18)
H23_3 H 0.1995 0.5167 0.1381
C32_3 C 0.04643(19) 0.59569(18) 0.14123(18)
C33_3 C 0.0291(2) 0.64227(19) 0.0972(2)
H24_3 H 0.0540 0.6502 0.0618
N8_3 N 0.11535(14) 0.51187(14) 0.16725(14)
N9_3 N 0.10107(17) 0.56452(16) 0.13235(16)
H27_3 H 0.1275 0.5779 0.1043
N10_3 N 0.01103(16) 0.58300(16) 0.19144(15)
Ag2_4 Ag 0.5000 0.2500 0.03735(2)
Br4_2 Br 0.73036(3) 0.59017(3) 0.59568(4)
C37_3 C 0.75525(17) 0.25472(17) 0.32638(16)
C38_3 C 0.75795(18) 0.31945(17) 0.33468(18)
H28_3 H 0.7421 0.3464 0.3035
C39_3 C 0.78401(17) 0.34415(17) 0.38897(17)
H29_3 H 0.7849 0.3879 0.3947
C40_3 C 0.80855(16) 0.30564(16) 0.43462(16)
C41_3 C 0.80575(18) 0.24050(17) 0.42600(16)
H30_3 H 0.8227 0.2136 0.4565
C42_3 C 0.77853(19) 0.21607(17) 0.37355(19)
H31_3 H 0.7754 0.1723 0.3692
C43_3 C 0.83802(18) 0.32874(18) 0.49270(18)
H32_3 H 0.8619 0.3005 0.5167
C44_3 C 0.85877(18) 0.45357(19) 0.59569(18)
C45_3 C 0.9028(2) 0.4709(2) 0.64227(19)
H33_3 H 0.9382 0.4460 0.6502
C46_2 C 0.8927(3) 0.5241(2) 0.6750(2)
H34_2 H 0.9216 0.5365 0.7059
C47_2 C 0.8399(2) 0.5607(2) 0.6636(2)
H35_2 H 0.8316 0.5971 0.6870
C48_2 C 0.8005(2) 0.5414(2) 0.6164(2)
N11_3 N 0.72899(17) 0.22899(17) 0.27101(17)
N13_3 N 0.86765(16) 0.39893(17) 0.56452(16)
H36_3 H 0.8957 0.3725 0.5779
C49_3 C 0.67362(16) 0.25525(17) 0.24528(17)
C50_3 C 0.66532(18) 0.25795(18) 0.18055(17)
H37_3 H 0.6965 0.2421 0.1536
C51_3 C 0.61103(17) 0.28401(17) 0.15585(17)
H38_3 H 0.6053 0.2849 0.1121
C52_3 C 0.56538(16) 0.30855(16) 0.19436(16)
C53_3 C 0.57400(16) 0.30575(18) 0.25950(17)
H39_3 H 0.5435 0.3227 0.2864
C54_3 C 0.62645(19) 0.27853(19) 0.28393(17)
H40_3 H 0.6308 0.2754 0.3277
C55_3 C 0.50730(18) 0.33802(18) 0.17126(18)
H41_3 H 0.4833 0.3619 0.1995
C56_3 C 0.40431(18) 0.35877(18) 0.04643(19)
C57_3 C 0.35773(19) 0.4028(2) 0.0291(2)
H42_3 H 0.3498 0.4382 0.0540
N15_3 N 0.48813(14) 0.33275(14) 0.11535(14)
N16_3 N 0.43548(16) 0.36765(16) 0.10107(17)
H45_3 H 0.4221 0.3957 0.1275
N17_3 N 0.41700(16) 0.30856(15) 0.01103(16)
C61_3 C 0.75472(17) 0.17362(16) 0.24475(17)
C62_3 C 0.81945(17) 0.16532(18) 0.24205(18)
H46_3 H 0.8464 0.1965 0.2579
C63_3 C 0.84415(17) 0.11103(17) 0.21599(17)
H47_3 H 0.8879 0.1053 0.2151
C64_3 C 0.80564(16) 0.06538(16) 0.19145(16)
C65_3 C 0.74050(17) 0.07400(16) 0.19425(18)
H48_3 H 0.7136 0.0435 0.1773
C66_3 C 0.71607(17) 0.12645(19) 0.22147(19)
H49_3 H 0.6723 0.1308 0.2246
C67_3 C 0.82874(18) 0.00730(18) 0.16198(18)
Br2_2 Br 0.59568(4) 0.26964(3) 0.90983(3)
C22_2 C 0.6750(2) 0.1073(3) 0.9759(2)
H16_2 H 0.7059 0.0784 0.9635
C23_2 C 0.6636(2) 0.1601(2) 0.9393(2)
H17_2 H 0.6870 0.1684 0.9029
C24_2 C 0.6164(2) 0.1995(2) 0.9586(2)
Br5_2 Br 0.40432(4) 0.23036(3) 0.90983(3)
C58_2 C 0.3250(2) 0.3927(3) 0.9759(2)
H43_2 H 0.2941 0.4216 0.9635
C59_2 C 0.3364(2) 0.3399(2) 0.9393(2)
H44_2 H 0.3130 0.3316 0.9029
C60_2 C 0.3836(2) 0.3005(2) 0.9586(2)
Br1_3 Br 0.26964(3) 0.90983(3) 0.59568(4)
C10_3 C 0.1073(3) 0.9759(2) 0.6750(2)
H7_3 H 0.0784 0.9635 0.7059
C11_3 C 0.1601(2) 0.9393(2) 0.6636(2)
H8_3 H 0.1684 0.9029 0.6870
C12_3 C 0.1995(2) 0.9586(2) 0.6164(2)
H50_3 H 0.8005 0.9833 0.1381
C68_3 C 0.95357(19) 0.90431(18) 0.14123(18)
C69_3 C 0.9709(2) 0.85773(19) 0.0972(2)
H51_3 H 0.9460 0.8498 0.0618
N19_3 N 0.89893(17) 0.93548(16) 0.13235(16)
H54_3 H 0.8725 0.9221 0.1043
Br3_3 Br 0.90983(3) 0.59568(4) 0.26964(3)
C34_3 C 0.9759(2) 0.6750(2) 0.1073(3)
H25_3 H 0.9635 0.7059 0.0784
C35_3 C 0.9393(2) 0.6636(2) 0.1601(2)
H26_3 H 0.9029 0.6870 0.1684
C36_3 C 0.9586(2) 0.6164(2) 0.1995(2)
H5_4 H 0.3619 0.8005 0.0167
C8_4 C 0.35877(18) 0.95357(19) 0.09569(18)
C9_4 C 0.4028(2) 0.9709(2) 0.14227(19)
H6_4 H 0.4382 0.9460 0.1502
N2_4 N 0.33275(14) 0.88465(14) 0.01187(14)
N3_4 N 0.36765(16) 0.89893(17) 0.06452(16)
H9_4 H 0.3957 0.8725 0.0779
N4_4 N 0.30856(15) 0.98897(16) 0.08300(16)
C1_4 C 0.25525(17) 0.75472(17) 0.82638(16)
C2_4 C 0.25795(18) 0.81945(17) 0.83468(18)
H1_4 H 0.2421 0.8464 0.8035
C3_4 C 0.28401(17) 0.84415(17) 0.88897(17)
H2_4 H 0.2849 0.8879 0.8947
C4_4 C 0.30855(16) 0.80564(16) 0.93462(16)
C5_4 C 0.30575(18) 0.74050(17) 0.92600(16)
H3_4 H 0.3227 0.7136 0.9565
C6_4 C 0.27853(19) 0.71607(17) 0.87355(19)
H4_4 H 0.2754 0.6723 0.8692
C7_4 C 0.33802(18) 0.82874(18) 0.99270(18)
N1_4 N 0.22899(17) 0.72899(17) 0.77101(17)
C13_4 C 0.17362(16) 0.75525(17) 0.74528(17)
C14_4 C 0.16532(18) 0.75795(18) 0.68055(17)
H10_4 H 0.1965 0.7421 0.6536
C15_4 C 0.11103(17) 0.78401(17) 0.65585(17)
H11_4 H 0.1053 0.7849 0.6121
C16_4 C 0.06538(16) 0.80855(16) 0.69436(16)
C17_4 C 0.07400(16) 0.80575(18) 0.75950(17)
H12_4 H 0.0435 0.8227 0.7864
C18_4 C 0.12645(19) 0.77853(19) 0.78393(17)
H13_4 H 0.1308 0.7754 0.8277
C19_4 C 0.00730(18) 0.83802(18) 0.67126(18)
Br3_4 Br 0.59017(3) 0.40432(4) 0.76964(3)
C25_4 C 0.25472(17) 0.67362(16) 0.74475(17)
C26_4 C 0.31945(17) 0.66532(18) 0.74205(18)
H19_4 H 0.3464 0.6965 0.7579
C27_4 C 0.34415(17) 0.61103(17) 0.71599(17)
H20_4 H 0.3879 0.6053 0.7151
C28_4 C 0.30564(16) 0.56538(16) 0.69145(16)
C29_4 C 0.24050(17) 0.57400(16) 0.69425(18)
H21_4 H 0.2136 0.5435 0.6773
C30_4 C 0.21607(17) 0.62645(19) 0.72147(19)
H22_4 H 0.1723 0.6308 0.7246
C31_4 C 0.32874(18) 0.50730(18) 0.66198(18)
H23_4 H 0.3005 0.4833 0.6381
C32_4 C 0.45357(19) 0.40431(18) 0.64123(18)
C33_4 C 0.4709(2) 0.35773(19) 0.5972(2)
H24_4 H 0.4460 0.3498 0.5618
C34_4 C 0.5241(2) 0.3250(2) 0.6073(3)
H25_4 H 0.5365 0.2941 0.5784
C35_4 C 0.5607(2) 0.3364(2) 0.6601(2)
H26_4 H 0.5971 0.3130 0.6684
C36_4 C 0.5414(2) 0.3836(2) 0.6995(2)
N8_4 N 0.38465(14) 0.48813(14) 0.66725(14)
N9_4 N 0.39893(17) 0.43548(16) 0.63235(16)
H27_4 H 0.3725 0.4221 0.6043
N10_4 N 0.48897(16) 0.41700(16) 0.69144(15)
Ag2_5 Ag -0.0000 0.7500 0.53735(2)
Br5_3 Br 0.09568(4) 0.76964(3) 0.40983(3)
H41_4 H 0.0167 0.6381 0.6995
C56_4 C 0.09569(18) 0.64123(18) 0.54643(19)
C57_4 C 0.14227(19) 0.5972(2) 0.5291(2)
H42_4 H 0.1502 0.5618 0.5540
C58_3 C 0.1750(2) 0.6073(3) 0.4759(2)
H43_3 H 0.2059 0.5784 0.4635
C59_3 C 0.1636(2) 0.6601(2) 0.4393(2)
H44_3 H 0.1870 0.6684 0.4029
C60_3 C 0.1164(2) 0.6995(2) 0.4586(2)
N15_4 N 0.01187(14) 0.66725(14) 0.61535(14)
N16_4 N 0.06452(16) 0.63235(16) 0.60107(17)
H45_4 H 0.0779 0.6043 0.6275
N17_4 N 0.08300(16) 0.69144(15) 0.51103(16)
Br6_3 Br 0.40983(3) 0.09568(4) 0.76964(3)
H50_4 H 0.6995 0.0167 0.6381
C68_4 C 0.54643(19) 0.09569(18) 0.64123(18)
C69_4 C 0.5291(2) 0.14227(19) 0.5972(2)
H51_4 H 0.5540 0.1502 0.5618
C70_3 C 0.4759(2) 0.1750(2) 0.6073(3)
H52_3 H 0.4635 0.2059 0.5784
C71_3 C 0.4393(2) 0.1636(2) 0.6601(2)
H53_3 H 0.4029 0.1870 0.6684
C72_3 C 0.4586(2) 0.1164(2) 0.6995(2)
N19_4 N 0.60107(17) 0.06452(16) 0.63235(16)
H54_4 H 0.6275 0.0779 0.6043
Br4_3 Br 0.76964(3) 0.40983(3) 0.09568(4)
H32_4 H 0.6381 0.6995 0.0167
C44_4 C 0.64123(18) 0.54643(19) 0.09569(18)
C45_4 C 0.5972(2) 0.5291(2) 0.14227(19)
H33_4 H 0.5618 0.5540 0.1502
C46_3 C 0.6073(3) 0.4759(2) 0.1750(2)
H34_3 H 0.5784 0.4635 0.2059
C47_3 C 0.6601(2) 0.4393(2) 0.1636(2)
H35_3 H 0.6684 0.4029 0.1870
C48_3 C 0.6995(2) 0.4586(2) 0.1164(2)
N13_4 N 0.63235(16) 0.60107(17) 0.06452(16)
H36_4 H 0.6043 0.6275 0.0779
Br2_3 Br 0.90432(4) 0.73036(3) 0.40983(3)
H14_4 H 0.9833 0.8619 0.6995
C20_4 C 0.90431(18) 0.85877(18) 0.54643(19)
C21_4 C 0.85773(19) 0.9028(2) 0.5291(2)
H15_4 H 0.8498 0.9382 0.5540
C22_3 C 0.8250(2) 0.8927(3) 0.4759(2)
H16_3 H 0.7941 0.9216 0.4635
C23_3 C 0.8364(2) 0.8399(2) 0.4393(2)
H17_3 H 0.8130 0.8316 0.4029
C24_3 C 0.8836(2) 0.8005(2) 0.4586(2)
N5_4 N 0.98813(14) 0.83275(14) 0.61535(14)
N6_4 N 0.93548(16) 0.86765(16) 0.60107(17)
H18_4 H 0.9221 0.8957 0.6275
N7_4 N 0.91700(16) 0.80856(15) 0.51103(16)
Ag2_6 Ag 1.0000 0.7500 0.53735(2)
C37_4 C 0.74475(17) 0.74528(17) 0.82638(16)
C38_4 C 0.74205(18) 0.68055(17) 0.83468(18)
H28_4 H 0.7579 0.6536 0.8035
C39_4 C 0.71599(17) 0.65585(17) 0.88897(17)
H29_4 H 0.7151 0.6121 0.8947
C40_4 C 0.69145(16) 0.69436(16) 0.93462(16)
C41_4 C 0.69425(18) 0.75950(17) 0.92600(16)
H30_4 H 0.6773 0.7864 0.9565
C42_4 C 0.72147(19) 0.78393(17) 0.87355(19)
H31_4 H 0.7246 0.8277 0.8692
C43_4 C 0.66198(18) 0.67126(18) 0.99270(18)
N11_4 N 0.77101(17) 0.77101(17) 0.77101(17)
C49_4 C 0.82638(16) 0.74475(17) 0.74528(17)
C50_4 C 0.83468(18) 0.74205(18) 0.68055(17)
H37_4 H 0.8035 0.7579 0.6536
C51_4 C 0.88897(17) 0.71599(17) 0.65585(17)
H38_4 H 0.8947 0.7151 0.6121
C52_4 C 0.93462(16) 0.69145(16) 0.69436(16)
C53_4 C 0.92600(16) 0.69425(18) 0.75950(17)
H39_4 H 0.9565 0.6773 0.7864
C54_4 C 0.87355(19) 0.72147(19) 0.78393(17)
H40_4 H 0.8692 0.7246 0.8277
C55_4 C 0.99270(18) 0.66198(18) 0.67126(18)
C61_4 C 0.74528(17) 0.82638(16) 0.74475(17)
C62_4 C 0.68055(17) 0.83468(18) 0.74205(18)
H46_4 H 0.6536 0.8035 0.7579
C63_4 C 0.65585(17) 0.88897(17) 0.71599(17)
H47_4 H 0.6121 0.8947 0.7151
C64_4 C 0.69436(16) 0.93462(16) 0.69145(16)
C65_4 C 0.75950(17) 0.92600(16) 0.69425(18)
H48_4 H 0.7864 0.9565 0.6773
C66_4 C 0.78393(17) 0.87355(19) 0.72147(19)
H49_4 H 0.8277 0.8692 0.7246
C67_4 C 0.67126(18) 0.99270(18) 0.66198(18)
Br4_4 Br 0.26964(3) 0.09017(3) 0.90432(4)
C46_4 C 0.1073(3) 0.0241(2) 0.8250(2)
H34_4 H 0.0784 0.0365 0.7941
C47_4 C 0.1601(2) 0.0607(2) 0.8364(2)
H35_4 H 0.1684 0.0971 0.8130
C48_4 C 0.1995(2) 0.0414(2) 0.8836(2)
Br2_4 Br 0.09568(4) 0.23036(3) 0.09017(3)
C22_4 C 0.1750(2) 0.3927(3) 0.0241(2)
H16_4 H 0.2059 0.4216 0.0365
C23_4 C 0.1636(2) 0.3399(2) 0.0607(2)
H17_4 H 0.1870 0.3316 0.0971
C24_4 C 0.1164(2) 0.3005(2) 0.0414(2)
Br5_4 Br 0.90432(4) 0.26964(3) 0.09017(3)
C58_4 C 0.8250(2) 0.1073(3) 0.0241(2)
H43_4 H 0.7941 0.0784 0.0365
C59_4 C 0.8364(2) 0.1601(2) 0.0607(2)
H44_4 H 0.8130 0.1684 0.0971
C60_4 C 0.8836(2) 0.1995(2) 0.0414(2)
Br6_4 Br 0.09017(3) 0.90432(4) 0.26964(3)
C70_4 C 0.0241(2) 0.8250(2) 0.1073(3)
H52_4 H 0.0365 0.7941 0.0784
C71_4 C 0.0607(2) 0.8364(2) 0.1601(2)
H53_4 H 0.0971 0.8130 0.1684
C72_4 C 0.0414(2) 0.8836(2) 0.1995(2)
Br1_4 Br 0.23036(3) 0.09017(3) 0.09568(4)
C10_4 C 0.3927(3) 0.0241(2) 0.1750(2)
H7_4 H 0.4216 0.0365 0.2059
C11_4 C 0.3399(2) 0.0607(2) 0.1636(2)
H8_4 H 0.3316 0.0971 0.1870
C12_4 C 0.3005(2) 0.0414(2) 0.1164(2)
Cl1 Cl 0.06287(6) 0.5000 0.7500
O1 O 0.02457(17) 0.54937(17) 0.77374(18)
O2 O 0.0999(2) 0.52498(19) 0.6995(2)
O3 O 0.02457(17) 0.45063(17) 0.72626(18)
O4 O 0.0999(2) 0.47502(19) 0.8005(2)
Cl1_2 Cl 0.43713(6) 0.5000 0.2500
O1_2 O 0.47543(17) 0.45063(17) 0.27374(18)
O2_2 O 0.4001(2) 0.47502(19) 0.1995(2)
O3_2 O 0.47543(17) 0.54937(17) 0.22626(18)
O4_2 O 0.4001(2) 0.52498(19) 0.3005(2)
Cl1_3 Cl 0.93713(6) 0.0000 0.7500
O1_3 O 0.97543(17) 0.04937(17) 0.72626(18)
O2_3 O 0.9001(2) 0.02498(19) 0.8005(2)
Cl1_4 Cl 0.93713(6) 1.0000 0.7500
O3_3 O 0.97543(17) 0.95063(17) 0.77374(18)
O4_3 O 0.9001(2) 0.97502(19) 0.6995(2)
Cl1_5 Cl 0.56287(6) -0.0000 0.2500
O3_4 O 0.52457(17) 0.04937(17) 0.27374(18)
O4_4 O 0.5999(2) 0.02498(19) 0.1995(2)
Cl1_6 Cl 0.56287(6) 1.0000 0.2500
O1_4 O 0.52457(17) 0.95063(17) 0.22626(18)
O2_4 O 0.5999(2) 0.97502(19) 0.3005(2)
Cl1_7 Cl 0.7500 0.06287(6) 0.5000
O1_5 O 0.77374(18) 0.02457(17) 0.54937(17)
O2_5 O 0.6995(2) 0.0999(2) 0.52498(19)
O3_5 O 0.72626(18) 0.02457(17) 0.45063(17)
O4_5 O 0.8005(2) 0.0999(2) 0.47502(19)
Cl1_8 Cl 0.2500 0.43713(6) 0.5000
O1_6 O 0.27374(18) 0.47543(17) 0.45063(17)
O2_6 O 0.1995(2) 0.4001(2) 0.47502(19)
O3_6 O 0.22626(18) 0.47543(17) 0.54937(17)
O4_6 O 0.3005(2) 0.4001(2) 0.52498(19)
Cl1_9 Cl 0.7500 0.93713(6) 0.0000
O1_7 O 0.72626(18) 0.97543(17) 0.04937(17)
O2_7 O 0.8005(2) 0.9001(2) 0.02498(19)
Cl1_10 Cl 0.7500 0.93713(6) 1.0000
O3_7 O 0.77374(18) 0.97543(17) 0.95063(17)
O4_7 O 0.6995(2) 0.9001(2) 0.97502(19)
Cl1_11 Cl 0.2500 0.56287(6) -0.0000
O3_8 O 0.27374(18) 0.52457(17) 0.04937(17)
O4_8 O 0.1995(2) 0.5999(2) 0.02498(19)
Cl1_12 Cl 0.2500 0.56287(6) 1.0000
O1_8 O 0.22626(18) 0.52457(17) 0.95063(17)
O2_8 O 0.3005(2) 0.5999(2) 0.97502(19)
Cl1_13 Cl 0.5000 0.7500 0.06287(6)
O1_9 O 0.54937(17) 0.77374(18) 0.02457(17)
O2_9 O 0.52498(19) 0.6995(2) 0.0999(2)
O3_9 O 0.45063(17) 0.72626(18) 0.02457(17)
O4_9 O 0.47502(19) 0.8005(2) 0.0999(2)
Cl1_14 Cl 0.5000 0.2500 0.43713(6)
O1_10 O 0.45063(17) 0.27374(18) 0.47543(17)
O2_10 O 0.47502(19) 0.1995(2) 0.4001(2)
O3_10 O 0.54937(17) 0.22626(18) 0.47543(17)
O4_10 O 0.52498(19) 0.3005(2) 0.4001(2)
Cl1_15 Cl 0.0000 0.7500 0.93713(6)
O1_11 O 0.04937(17) 0.72626(18) 0.97543(17)
O2_11 O 0.02498(19) 0.8005(2) 0.9001(2)
Cl1_16 Cl 1.0000 0.7500 0.93713(6)
O3_11 O 0.95063(17) 0.77374(18) 0.97543(17)
O4_11 O 0.97502(19) 0.6995(2) 0.9001(2)
Cl1_17 Cl -0.0000 0.2500 0.56287(6)
O3_12 O 0.04937(17) 0.27374(18) 0.52457(17)
O4_12 O 0.02498(19) 0.1995(2) 0.5999(2)
Cl1_18 Cl 1.0000 0.2500 0.56287(6)
O1_12 O 0.95063(17) 0.22626(18) 0.52457(17)
O2_12 O 0.97502(19) 0.3005(2) 0.5999(2)
loop_
_geom_bond_atom_site_label_1
_geom_bond_atom_site_label_2
_geom_bond_site_symmetry_1
_geom_bond_site_symmetry_2
Br3 C36 1_555 1_555
H25 C34 1_555 1_555
C35 C34 1_555 1_555
H26 C35 1_555 1_555
C36 C35 1_555 1_555
C32 C33 1_555 1_555
C33 H24 1_555 1_555
N9 C32 1_555 1_555
H27 N9 1_555 1_555
N10 C32 1_555 1_555
Ag3 N8 1_555 1_555
N8 N9 1_555 1_555
N10 Ag3 1_555 1_555
C1 C2 1_555 1_555
C2 H1 1_555 1_555
C3 C2 1_555 1_555
H2 C3 1_555 1_555
C4 C3 1_555 1_555
C5 C4 1_555 1_555
H3 C5 1_555 1_555
C6 C1 1_555 1_555
H4 C6 1_555 1_555
C7 C4 1_555 1_555
N1 C1 1_555 1_555
Br2 C24 1_555 1_555
C13 N1 1_555 1_555
C14 C13 1_555 1_555
H10 C14 1_555 1_555
C15 C14 1_555 1_555
H11 C15 1_555 1_555
C16 C15 1_555 1_555
C17 C16 1_555 1_555
H12 C17 1_555 1_555
C18 C13 1_555 1_555
H13 C18 1_555 1_555
C19 C16 1_555 1_555
H14 C19 1_555 1_555
C20 C21 1_555 1_555
C21 H15 1_555 1_555
C22 C21 1_555 1_555
H16 C22 1_555 1_555
C23 C22 1_555 1_555
H17 C23 1_555 1_555
C24 C23 1_555 1_555
N5 C19 1_555 1_555
N6 C20 1_555 1_555
H18 N6 1_555 1_555
N7 C20 1_555 1_555
C25 N1 1_555 1_555
C26 C25 1_555 1_555
H19 C26 1_555 1_555
C27 C26 1_555 1_555
H20 C27 1_555 1_555
C28 C27 1_555 1_555
C29 C28 1_555 1_555
H21 C29 1_555 1_555
C30 C25 1_555 1_555
H22 C30 1_555 1_555
C31 C28 1_555 1_555
Ag2 N5 1_555 1_555
C37 C38 1_555 1_555
C38 H28 1_555 1_555
C39 C38 1_555 1_555
H29 C39 1_555 1_555
C40 C39 1_555 1_555
C41 C40 1_555 1_555
H30 C41 1_555 1_555
C42 C37 1_555 1_555
H31 C42 1_555 1_555
C43 C40 1_555 1_555
N11 C37 1_555 1_555
Br5 C60 1_555 1_555
C49 N11 1_555 1_555
C50 C49 1_555 1_555
H37 C50 1_555 1_555
C51 C50 1_555 1_555
H38 C51 1_555 1_555
C52 C51 1_555 1_555
C53 C52 1_555 1_555
H39 C53 1_555 1_555
C54 C49 1_555 1_555
H40 C54 1_555 1_555
C55 C52 1_555 1_555
H41 C55 1_555 1_555
C56 C57 1_555 1_555
C57 H42 1_555 1_555
C58 C57 1_555 1_555
H43 C58 1_555 1_555
C59 C58 1_555 1_555
H44 C59 1_555 1_555
C60 C59 1_555 1_555
N15 Ag2 1_555 1_555
N16 C56 1_555 1_555
H45 N16 1_555 1_555
N17 Ag2 1_555 1_555
C61 N11 1_555 1_555
C62 C61 1_555 1_555
H46 C62 1_555 1_555
C63 C62 1_555 1_555
H47 C63 1_555 1_555
C64 C63 1_555 1_555
C65 C64 1_555 1_555
H48 C65 1_555 1_555
C66 C61 1_555 1_555
H49 C66 1_555 1_555
C67 C64 1_555 1_555
H50 C67 1_555 1_555
C68 C69 1_555 1_555
C69 H51 1_555 1_555
N18 C67 1_555 1_555
N19 C68 1_555 1_555
H54 N19 1_555 1_555
N20 C68 1_555 1_555
Ag5 N18 1_555 1_555
N21 Ag1 1_555 1_555
N22 Ag3_2 1_555 1_555
N23 Ag1 1_555 1_555
N24 Ag3_2 1_555 1_555
C5 C6 1_555 1_555
C17 C18 1_555 1_555
C24 N7 1_555 1_555
N5 N6 1_555 1_555
N7 Ag2 1_555 1_555
C29 C30 1_555 1_555
C41 C42 1_555 1_555
C53 C54 1_555 1_555
C55 N15 1_555 1_555
C56 N17 1_555 1_555
C60 N17 1_555 1_555
N15 N16 1_555 1_555
C65 C66 1_555 1_555
N18 N19 1_555 1_555
N20 Ag5 1_555 1_555
Ag1_2 N2 1_555 1_555
Br1 C12 1_555 1_555
C8 C9 1_555 1_555
C9 H6 1_555 1_555
C10 C9 1_555 1_555
H7 C10 1_555 1_555
C11 C10 1_555 1_555
H8 C11 1_555 1_555
C12 C11 1_555 1_555
N3 C8 1_555 1_555
H9 N3 1_555 1_555
N4 Ag1_2 1_555 1_555
C44 C45 1_555 1_555
C45 H33 1_555 1_555
N13 C44 1_555 1_555
H36 N13 1_555 1_555
N14 C44 1_555 1_555
Ag4_2 N12 1_555 1_555
C8 N4 1_555 1_555
C12 N4 1_555 1_555
N2 N3 1_555 1_555
N12 N13 1_555 1_555
N14 Ag4_2 1_555 1_555
Br6 C72 1_555 1_555
H52 C70 1_555 1_555
C71 C70 1_555 1_555
H53 C71 1_555 1_555
C72 C71 1_555 1_555
C20_2 C21_2 1_555 1_555
C21_2 H15_2 1_555 1_555
N6_2 C20_2 1_555 1_555
H18_2 N6_2 1_555 1_555
N7_2 C20_2 1_555 1_555
Ag2_2 N5_2 1_555 1_555
C37_2 C38_2 1_555 1_555
C38_2 H28_2 1_555 1_555
C39_2 C38_2 1_555 1_555
H29_2 C39_2 1_555 1_555
C40_2 C39_2 1_555 1_555
C41_2 C40_2 1_555 1_555
H30_2 C41_2 1_555 1_555
C42_2 C37_2 1_555 1_555
H31_2 C42_2 1_555 1_555
C43_2 C40_2 1_555 1_555
H32_2 C43_2 1_555 1_555
C44_2 C45_2 1_555 1_555
C45_2 H33_2 1_555 1_555
N11_2 C37_2 1_555 1_555
N12_2 C43_2 1_555 1_555
N13_2 C44_2 1_555 1_555
H36_2 N13_2 1_555 1_555
N14_2 C44_2 1_555 1_555
C49_2 N11_2 1_555 1_555
C50_2 C49_2 1_555 1_555
H37_2 C50_2 1_555 1_555
C51_2 C50_2 1_555 1_555
H38_2 C51_2 1_555 1_555
C52_2 C51_2 1_555 1_555
C53_2 C52_2 1_555 1_555
H39_2 C53_2 1_555 1_555
C54_2 C49_2 1_555 1_555
H40_2 C54_2 1_555 1_555
C55_2 C52_2 1_555 1_555
Br6_2 C72_2 1_555 1_555
C61_2 N11_2 1_555 1_555
C62_2 C61_2 1_555 1_555
H46_2 C62_2 1_555 1_555
C63_2 C62_2 1_555 1_555
H47_2 C63_2 1_555 1_555
C64_2 C63_2 1_555 1_555
C65_2 C64_2 1_555 1_555
H48_2 C65_2 1_555 1_555
C66_2 C61_2 1_555 1_555
H49_2 C66_2 1_555 1_555
C67_2 C64_2 1_555 1_555
H50_2 C67_2 1_555 1_555
C68_2 C69_2 1_555 1_555
C69_2 H51_2 1_555 1_555
C70_2 C69_2 1_555 1_555
H52_2 C70_2 1_555 1_555
C71_2 C70_2 1_555 1_555
H53_2 C71_2 1_555 1_555
C72_2 C71_2 1_555 1_555
N18_2 C67_2 1_555 1_555
N19_2 C68_2 1_555 1_555
H54_2 N19_2 1_555 1_555
N20_2 C68_2 1_555 1_555
Ag4_3 N12_2 1_555 1_555
Ag5_2 N18_2 1_555 1_555
N5_2 N6_2 1_555 1_555
N7_2 Ag2_2 1_555 1_555
C41_2 C42_2 1_555 1_555
N12_2 N13_2 1_555 1_555
N14_2 Ag4_3 1_555 1_555
C53_2 C54_2 1_555 1_555
C65_2 C66_2 1_555 1_555
C72_2 N20_2 1_555 1_555
N18_2 N19_2 1_555 1_555
N20_2 Ag5_2 1_555 1_555
Br4 C48 1_555 1_555
H34 C46 1_555 1_555
C47 C46 1_555 1_555
H35 C47 1_555 1_555
C48 C47 1_555 1_555
Ag1_3 N2_2 1_555 1_555
Br1_2 C12_2 1_555 1_555
C1_2 C2_2 1_555 1_555
C2_2 H1_2 1_555 1_555
C3_2 C2_2 1_555 1_555
H2_2 C3_2 1_555 1_555
C4_2 C3_2 1_555 1_555
C5_2 C4_2 1_555 1_555
H3_2 C5_2 1_555 1_555
C6_2 C1_2 1_555 1_555
H4_2 C6_2 1_555 1_555
C7_2 C4_2 1_555 1_555
H5_2 C7_2 1_555 1_555
C8_2 C9_2 1_555 1_555
C9_2 H6_2 1_555 1_555
C10_2 C9_2 1_555 1_555
H7_2 C10_2 1_555 1_555
C11_2 C10_2 1_555 1_555
H8_2 C11_2 1_555 1_555
C12_2 C11_2 1_555 1_555
N1_2 C1_2 1_555 1_555
N2_2 C7_2 1_555 1_555
N3_2 C8_2 1_555 1_555
H9_2 N3_2 1_555 1_555
N4_2 Ag1_3 1_555 1_555
C13_2 N1_2 1_555 1_555
C14_2 C13_2 1_555 1_555
H10_2 C14_2 1_555 1_555
C15_2 C14_2 1_555 1_555
H11_2 C15_2 1_555 1_555
C16_2 C15_2 1_555 1_555
C17_2 C16_2 1_555 1_555
H12_2 C17_2 1_555 1_555
C18_2 C13_2 1_555 1_555
H13_2 C18_2 1_555 1_555
C19_2 C16_2 1_555 1_555
C25_2 N1_2 1_555 1_555
C26_2 C25_2 1_555 1_555
H19_2 C26_2 1_555 1_555
C27_2 C26_2 1_555 1_555
H20_2 C27_2 1_555 1_555
C28_2 C27_2 1_555 1_555
C29_2 C28_2 1_555 1_555
H21_2 C29_2 1_555 1_555
C30_2 C25_2 1_555 1_555
H22_2 C30_2 1_555 1_555
C31_2 C28_2 1_555 1_555
C56_2 C57_2 1_555 1_555
C57_2 H42_2 1_555 1_555
N15_2 Ag2_3 1_555 1_555
N16_2 C56_2 1_555 1_555
H45_2 N16_2 1_555 1_555
N17_2 Ag2_3 1_555 1_555
N21_2 Ag1_3 1_555 1_555
N22_2 Ag3_3 1_555 1_555
N23_2 Ag1_3 1_555 1_555
N24_2 Ag3_3 1_555 1_555
C5_2 C6_2 1_555 1_555
C8_2 N4_2 1_555 1_555
C12_2 N4_2 1_555 1_555
N2_2 N3_2 1_555 1_555
C17_2 C18_2 1_555 1_555
C29_2 C30_2 1_555 1_555
C56_2 N17_2 1_555 1_555
N15_2 N16_2 1_555 1_555
Br3_2 C36_2 1_555 1_555
C32_2 C33_2 1_555 1_555
C33_2 H24_2 1_555 1_555
C34_2 C33_2 1_555 1_555
H25_2 C34_2 1_555 1_555
C35_2 C34_2 1_555 1_555
H26_2 C35_2 1_555 1_555
C36_2 C35_2 1_555 1_555
N9_2 C32_2 1_555 1_555
H27_2 N9_2 1_555 1_555
N10_2 C32_2 1_555 1_555
Ag3_4 N8_2 1_555 1_555
C36_2 N10_2 1_555 1_555
N8_2 N9_2 1_555 1_555
N10_2 Ag3_4 1_555 1_555
Ag4_3 N2_3 1_555 1_555
C1_3 C2_3 1_555 1_555
C2_3 H1_3 1_555 1_555
C3_3 C2_3 1_555 1_555
H2_3 C3_3 1_555 1_555
C4_3 C3_3 1_555 1_555
C5_3 C4_3 1_555 1_555
H3_3 C5_3 1_555 1_555
C6_3 C1_3 1_555 1_555
H4_3 C6_3 1_555 1_555
C7_3 C4_3 1_555 1_555
H5_3 C7_3 1_555 1_555
C8_3 C9_3 1_555 1_555
C9_3 H6_3 1_555 1_555
N1_3 C1_3 1_555 1_555
N2_3 C7_3 1_555 1_555
N3_3 C8_3 1_555 1_555
H9_3 N3_3 1_555 1_555
N4_3 Ag4_3 1_555 1_555
C13_3 N1_3 1_555 1_555
C14_3 C13_3 1_555 1_555
H10_3 C14_3 1_555 1_555
C15_3 C14_3 1_555 1_555
H11_3 C15_3 1_555 1_555
C16_3 C15_3 1_555 1_555
C17_3 C16_3 1_555 1_555
H12_3 C17_3 1_555 1_555
C18_3 C13_3 1_555 1_555
H13_3 C18_3 1_555 1_555
C19_3 C16_3 1_555 1_555
H14_3 C19_3 1_555 1_555
C20_3 C21_3 1_555 1_555
C21_3 H15_3 1_555 1_555
N5_3 C19_3 1_555 1_555
N6_3 C20_3 1_555 1_555
H18_3 N6_3 1_555 1_555
N7_3 C20_3 1_555 1_555
C25_3 N1_3 1_555 1_555
C26_3 C25_3 1_555 1_555
H19_3 C26_3 1_555 1_555
C27_3 C26_3 1_555 1_555
H20_3 C27_3 1_555 1_555
C28_3 C27_3 1_555 1_555
C29_3 C28_3 1_555 1_555
H21_3 C29_3 1_555 1_555
C30_3 C25_3 1_555 1_555
H22_3 C30_3 1_555 1_555
C31_3 C28_3 1_555 1_555
H23_3 C31_3 1_555 1_555
C32_3 C33_3 1_555 1_555
C33_3 H24_3 1_555 1_555
N8_3 C31_3 1_555 1_555
N9_3 C32_3 1_555 1_555
H27_3 N9_3 1_555 1_555
N10_3 C32_3 1_555 1_555
Ag2_4 N5_3 1_555 1_555
Ag5 N8_3 1_555 1_555
Br4_2 C48_2 1_555 1_555
C37_3 C38_3 1_555 1_555
C38_3 H28_3 1_555 1_555
C39_3 C38_3 1_555 1_555
H29_3 C39_3 1_555 1_555
C40_3 C39_3 1_555 1_555
C41_3 C40_3 1_555 1_555
H30_3 C41_3 1_555 1_555
C42_3 C37_3 1_555 1_555
H31_3 C42_3 1_555 1_555
C43_3 C40_3 1_555 1_555
H32_3 C43_3 1_555 1_555
C44_3 C45_3 1_555 1_555
C45_3 H33_3 1_555 1_555
C46_2 C45_3 1_555 1_555
H34_2 C46_2 1_555 1_555
C47_2 C46_2 1_555 1_555
H35_2 C47_2 1_555 1_555
C48_2 C47_2 1_555 1_555
N11_3 C37_3 1_555 1_555
N21_2 C43_3 1_555 1_555
N13_3 C44_3 1_555 1_555
H36_3 N13_3 1_555 1_555
N23_2 C44_3 1_555 1_555
C49_3 N11_3 1_555 1_555
C50_3 C49_3 1_555 1_555
H37_3 C50_3 1_555 1_555
C51_3 C50_3 1_555 1_555
H38_3 C51_3 1_555 1_555
C52_3 C51_3 1_555 1_555
C53_3 C52_3 1_555 1_555
H39_3 C53_3 1_555 1_555
C54_3 C49_3 1_555 1_555
H40_3 C54_3 1_555 1_555
C55_3 C52_3 1_555 1_555
H41_3 C55_3 1_555 1_555
C56_3 C57_3 1_555 1_555
C57_3 H42_3 1_555 1_555
N15_3 Ag2_4 1_555 1_555
N16_3 C56_3 1_555 1_555
H45_3 N16_3 1_555 1_555
N17_3 Ag2_4 1_555 1_555
C61_3 N11_3 1_555 1_555
C62_3 C61_3 1_555 1_555
H46_3 C62_3 1_555 1_555
C63_3 C62_3 1_555 1_555
H47_3 C63_3 1_555 1_555
C64_3 C63_3 1_555 1_555
C65_3 C64_3 1_555 1_555
H48_3 C65_3 1_555 1_555
C66_3 C61_3 1_555 1_555
H49_3 C66_3 1_555 1_555
C67_3 C64_3 1_555 1_555
C5_3 C6_3 1_555 1_555
C8_3 N4_3 1_555 1_555
N2_3 N3_3 1_555 1_555
C17_3 C18_3 1_555 1_555
N5_3 N6_3 1_555 1_555
N7_3 Ag2_4 1_555 1_555
C29_3 C30_3 1_555 1_555
N8_3 N9_3 1_555 1_555
N10_3 Ag5 1_555 1_555
C41_3 C42_3 1_555 1_555
C48_2 N23_2 1_555 1_555
N21_2 N13_3 1_555 1_555
C53_3 C54_3 1_555 1_555
C55_3 N15_3 1_555 1_555
C56_3 N17_3 1_555 1_555
N15_3 N16_3 1_555 1_555
C65_3 C66_3 1_555 1_555
Br2_2 C24_2 1_555 1_555
H16_2 C22_2 1_555 1_555
C23_2 C22_2 1_555 1_555
H17_2 C23_2 1_555 1_555
C24_2 C23_2 1_555 1_555
Br5_2 C60_2 1_555 1_555
H43_2 C58_2 1_555 1_555
C59_2 C58_2 1_555 1_555
H44_2 C59_2 1_555 1_555
C60_2 C59_2 1_555 1_555
Br1_3 C12_3 1_555 1_555
H7_3 C10_3 1_555 1_555
C11_3 C10_3 1_555 1_555
H8_3 C11_3 1_555 1_555
C12_3 C11_3 1_555 1_555
C68_3 C69_3 1_555 1_555
C69_3 H51_3 1_555 1_555
N19_3 C68_3 1_555 1_555
H54_3 N19_3 1_555 1_555
N24 C68_3 1_555 1_555
N22 N19_3 1_555 1_555
Br3_3 C36_3 1_555 1_555
H25_3 C34_3 1_555 1_555
C35_3 C34_3 1_555 1_555
H26_3 C35_3 1_555 1_555
C36_3 C35_3 1_555 1_555
Ag4 N2_4 1_555 1_555
C8_4 C9_4 1_555 1_555
C9_4 H6_4 1_555 1_555
N3_4 C8_4 1_555 1_555
H9_4 N3_4 1_555 1_555
N4_4 Ag4 1_555 1_555
C8_4 N4_4 1_555 1_555
N2_4 N3_4 1_555 1_555
C1_4 C2_4 1_555 1_555
C2_4 H1_4 1_555 1_555
C3_4 C2_4 1_555 1_555
H2_4 C3_4 1_555 1_555
C4_4 C3_4 1_555 1_555
C5_4 C4_4 1_555 1_555
H3_4 C5_4 1_555 1_555
C6_4 C1_4 1_555 1_555
H4_4 C6_4 1_555 1_555
C7_4 C4_4 1_555 1_555
N1_4 C1_4 1_555 1_555
C13_4 N1_4 1_555 1_555
C14_4 C13_4 1_555 1_555
H10_4 C14_4 1_555 1_555
C15_4 C14_4 1_555 1_555
H11_4 C15_4 1_555 1_555
C16_4 C15_4 1_555 1_555
C17_4 C16_4 1_555 1_555
H12_4 C17_4 1_555 1_555
C18_4 C13_4 1_555 1_555
H13_4 C18_4 1_555 1_555
C19_4 C16_4 1_555 1_555
Br3_4 C36_4 1_555 1_555
C25_4 N1_4 1_555 1_555
C26_4 C25_4 1_555 1_555
H19_4 C26_4 1_555 1_555
C27_4 C26_4 1_555 1_555
H20_4 C27_4 1_555 1_555
C28_4 C27_4 1_555 1_555
C29_4 C28_4 1_555 1_555
H21_4 C29_4 1_555 1_555
C30_4 C25_4 1_555 1_555
H22_4 C30_4 1_555 1_555
C31_4 C28_4 1_555 1_555
H23_4 C31_4 1_555 1_555
C32_4 C33_4 1_555 1_555
C33_4 H24_4 1_555 1_555
C34_4 C33_4 1_555 1_555
H25_4 C34_4 1_555 1_555
C35_4 C34_4 1_555 1_555
H26_4 C35_4 1_555 1_555
C36_4 C35_4 1_555 1_555
N8_4 C31_4 1_555 1_555
N9_4 C32_4 1_555 1_555
H27_4 N9_4 1_555 1_555
N10_4 C32_4 1_555 1_555
Ag5_2 N8_4 1_555 1_555
Br5_3 C60_3 1_555 1_555
C56_4 C57_4 1_555 1_555
C57_4 H42_4 1_555 1_555
C58_3 C57_4 1_555 1_555
H43_3 C58_3 1_555 1_555
C59_3 C58_3 1_555 1_555
H44_3 C59_3 1_555 1_555
C60_3 C59_3 1_555 1_555
N15_4 Ag2_5 1_555 1_555
N16_4 C56_4 1_555 1_555
H45_4 N16_4 1_555 1_555
N17_4 Ag2_5 1_555 1_555
C5_4 C6_4 1_555 1_555
C17_4 C18_4 1_555 1_555
C29_4 C30_4 1_555 1_555
C36_4 N10_4 1_555 1_555
N8_4 N9_4 1_555 1_555
N10_4 Ag5_2 1_555 1_555
C56_4 N17_4 1_555 1_555
C60_3 N17_4 1_555 1_555
N15_4 N16_4 1_555 1_555
Br6_3 C72_3 1_555 1_555
C68_4 C69_4 1_555 1_555
C69_4 H51_4 1_555 1_555
C70_3 C69_4 1_555 1_555
H52_3 C70_3 1_555 1_555
C71_3 C70_3 1_555 1_555
H53_3 C71_3 1_555 1_555
C72_3 C71_3 1_555 1_555
N19_4 C68_4 1_555 1_555
H54_4 N19_4 1_555 1_555
N24_2 C68_4 1_555 1_555
C72_3 N24_2 1_555 1_555
N22_2 N19_4 1_555 1_555
Br4_3 C48_3 1_555 1_555
C44_4 C45_4 1_555 1_555
C45_4 H33_4 1_555 1_555
C46_3 C45_4 1_555 1_555
H34_3 C46_3 1_555 1_555
C47_3 C46_3 1_555 1_555
H35_3 C47_3 1_555 1_555
C48_3 C47_3 1_555 1_555
N13_4 C44_4 1_555 1_555
H36_4 N13_4 1_555 1_555
N23 C44_4 1_555 1_555
C48_3 N23 1_555 1_555
N21 N13_4 1_555 1_555
Br2_3 C24_3 1_555 1_555
C20_4 C21_4 1_555 1_555
C21_4 H15_4 1_555 1_555
C22_3 C21_4 1_555 1_555
H16_3 C22_3 1_555 1_555
C23_3 C22_3 1_555 1_555
H17_3 C23_3 1_555 1_555
C24_3 C23_3 1_555 1_555
N6_4 C20_4 1_555 1_555
H18_4 N6_4 1_555 1_555
N7_4 C20_4 1_555 1_555
Ag2_6 N5_4 1_555 1_555
C37_4 C38_4 1_555 1_555
C38_4 H28_4 1_555 1_555
C39_4 C38_4 1_555 1_555
H29_4 C39_4 1_555 1_555
C40_4 C39_4 1_555 1_555
C41_4 C40_4 1_555 1_555
H30_4 C41_4 1_555 1_555
C42_4 C37_4 1_555 1_555
H31_4 C42_4 1_555 1_555
C43_4 C40_4 1_555 1_555
N11_4 C37_4 1_555 1_555
C49_4 N11_4 1_555 1_555
C50_4 C49_4 1_555 1_555
H37_4 C50_4 1_555 1_555
C51_4 C50_4 1_555 1_555
H38_4 C51_4 1_555 1_555
C52_4 C51_4 1_555 1_555
C53_4 C52_4 1_555 1_555
H39_4 C53_4 1_555 1_555
C54_4 C49_4 1_555 1_555
H40_4 C54_4 1_555 1_555
C55_4 C52_4 1_555 1_555
C61_4 N11_4 1_555 1_555
C62_4 C61_4 1_555 1_555
H46_4 C62_4 1_555 1_555
C63_4 C62_4 1_555 1_555
H47_4 C63_4 1_555 1_555
C64_4 C63_4 1_555 1_555
C65_4 C64_4 1_555 1_555
H48_4 C65_4 1_555 1_555
C66_4 C61_4 1_555 1_555
H49_4 C66_4 1_555 1_555
C67_4 C64_4 1_555 1_555
C24_3 N7_4 1_555 1_555
N5_4 N6_4 1_555 1_555
N7_4 Ag2_6 1_555 1_555
C41_4 C42_4 1_555 1_555
C53_4 C54_4 1_555 1_555
C65_4 C66_4 1_555 1_555
Br4_4 C48_4 1_555 1_555
H34_4 C46_4 1_555 1_555
C47_4 C46_4 1_555 1_555
H35_4 C47_4 1_555 1_555
C48_4 C47_4 1_555 1_555
Br2_4 C24_4 1_555 1_555
H16_4 C22_4 1_555 1_555
C23_4 C22_4 1_555 1_555
H17_4 C23_4 1_555 1_555
C24_4 C23_4 1_555 1_555
Br5_4 C60_4 1_555 1_555
H43_4 C58_4 1_555 1_555
C59_4 C58_4 1_555 1_555
H44_4 C59_4 1_555 1_555
C60_4 C59_4 1_555 1_555
Br6_4 C72_4 1_555 1_555
H52_4 C70_4 1_555 1_555
C71_4 C70_4 1_555 1_555
H53_4 C71_4 1_555 1_555
C72_4 C71_4 1_555 1_555
Br1_4 C12_4 1_555 1_555
H7_4 C10_4 1_555 1_555
C11_4 C10_4 1_555 1_555
H8_4 C11_4 1_555 1_555
C12_4 C11_4 1_555 1_555
Cl1 O1 1_555 1_555
O2 Cl1 1_555 1_555
O3 Cl1 1_555 1_555
O4 Cl1 1_555 1_555
Cl1_2 O1_2 1_555 1_555
O2_2 Cl1_2 1_555 1_555
O3_2 Cl1_2 1_555 1_555
O4_2 Cl1_2 1_555 1_555
Cl1_3 O1_3 1_555 1_555
O2_3 Cl1_3 1_555 1_555
O3_3 Cl1_4 1_555 1_555
O4_3 Cl1_4 1_555 1_555
O3_4 Cl1_5 1_555 1_555
O4_4 Cl1_5 1_555 1_555
Cl1_6 O1_4 1_555 1_555
O2_4 Cl1_6 1_555 1_555
Cl1_7 O1_5 1_555 1_555
O2_5 Cl1_7 1_555 1_555
O3_5 Cl1_7 1_555 1_555
O4_5 Cl1_7 1_555 1_555
Cl1_8 O1_6 1_555 1_555
O2_6 Cl1_8 1_555 1_555
O3_6 Cl1_8 1_555 1_555
O4_6 Cl1_8 1_555 1_555
Cl1_9 O1_7 1_555 1_555
O2_7 Cl1_9 1_555 1_555
O3_7 Cl1_10 1_555 1_555
O4_7 Cl1_10 1_555 1_555
O3_8 Cl1_11 1_555 1_555
O4_8 Cl1_11 1_555 1_555
Cl1_12 O1_8 1_555 1_555
O2_8 Cl1_12 1_555 1_555
Cl1_13 O1_9 1_555 1_555
O2_9 Cl1_13 1_555 1_555
O3_9 Cl1_13 1_555 1_555
O4_9 Cl1_13 1_555 1_555
Cl1_14 O1_10 1_555 1_555
O2_10 Cl1_14 1_555 1_555
O3_10 Cl1_14 1_555 1_555
O4_10 Cl1_14 1_555 1_555
Cl1_15 O1_11 1_555 1_555
O2_11 Cl1_15 1_555 1_555
O3_11 Cl1_16 1_555 1_555
O4_11 Cl1_16 1_555 1_555
O3_12 Cl1_17 1_555 1_555
O4_12 Cl1_17 1_555 1_555
Cl1_18 O1_12 1_555 1_555
O2_12 Cl1_18 1_555 1_555

#END
