
###############################################################################
#
# This file contains modified crystal structure data generated from the
# MOF subset of the Cambridge Structural Database (CSD) v543 
# hosted by the Cambridge Crystallographic Data Centre (CCDC).
#
# This work is licensed under the Creative Commons
# Attribution-NonCommercial-ShareAlike 4.0 International License.
# To view a copy of this license, visit
# http://creativecommons.org/licenses/by-nc-sa/4.0/
# or send a letter to
# Creative Commons, PO Box 1866, Mountain View, CA 94042, USA.
#
# CIF created using the CSD Python API on 29 September 2022
# The structure has been converted into the P1 space group
# The structure has a 3D framework
# The original CSD entry KENVOR is in the cubic crystal system
# The original CSD entry KENVOR is in a Sohncke space group
# The framework has been calculated to contain at least 10.0% void space
# The void calculation uses a probe of radius 1.32A, grid spacing 0.4
# The framework is charged, counterions have been retained in the structure
#
###############################################################################

data_KENVOR
_chemical_formula_moiety         '(C288 H216 Ag14 Br24 Cl18 N80 O48 2+)n'
_symmetry_cell_setting           triclinic
_symmetry_space_group_name_H-M   'P 1'
_symmetry_Int_Tables_number      1
_space_group_name_Hall           'P 1'
loop_
_symmetry_equiv_pos_site_id
_symmetry_equiv_pos_as_xyz
1 x,y,z
_cell_length_a                   21.1600(16)
_cell_length_b                   21.1600(16)
_cell_length_c                   21.1600(16)
_cell_angle_alpha                90
_cell_angle_beta                 90
_cell_angle_gamma                90
_cell_volume                     9474.3
loop_
_atom_site_label
_atom_site_type_symbol
_atom_site_fract_x
_atom_site_fract_y
_atom_site_fract_z
Br1 Br 0.08912(14) 0.90355(19) 0.27200(15)
C10 C 0.0241(11) 0.8248(15) 0.1055(14)
H7 H 0.0384 0.7949 0.0760
C11 C 0.0570(12) 0.8352(9) 0.1543(17)
H8 H 0.0938 0.8109 0.1600
C12 C 0.0425(9) 0.8803(12) 0.2001(10)
Ag1 Ag 0.96026(10) 0.0000 0.2500
C1 C 0.7558(7) 0.1733(7) 0.2439(7)
C2 C 0.8185(7) 0.1667(8) 0.2389(8)
H1 H 0.8453 0.1998 0.2517
C3 C 0.8453(6) 0.1094(7) 0.2138(6)
H2 H 0.8893 0.1037 0.2115
C4 C 0.8043(6) 0.0633(6) 0.1933(7)
C5 C 0.7410(11) 0.0711(8) 0.1944(8)
H3 H 0.7144 0.0405 0.1763
C6 C 0.7161(9) 0.1235(9) 0.2220(8)
H4 H 0.6721 0.1270 0.2267
C7 C 0.8273(8) 0.0074(8) 0.1622(7)
N1 N 0.7293(6) 0.2293(6) 0.2707(6)
C13 C 0.7561(7) 0.2558(7) 0.3267(7)
C14 C 0.7611(8) 0.3185(7) 0.3333(8)
H10 H 0.7483 0.3453 0.3002
C15 C 0.7862(6) 0.3453(6) 0.3906(7)
H11 H 0.7885 0.3893 0.3963
C16 C 0.8067(7) 0.3043(6) 0.4367(6)
C17 C 0.8056(8) 0.2410(11) 0.4289(8)
H12 H 0.8237 0.2144 0.4595
C18 C 0.7780(8) 0.2161(9) 0.3765(9)
H13 H 0.7733 0.1721 0.3730
C19 C 0.8378(7) 0.3273(8) 0.4926(8)
H14 H 0.8633 0.2985 0.5148
N5 N 0.8342(5) 0.3807(7) 0.5137(6)
Br2 Br 0.72800(15) 0.58912(14) 0.59645(19)
C20 C 0.8608(9) 0.4518(7) 0.5977(7)
C21 C 0.9057(10) 0.4693(9) 0.6449(10)
H15 H 0.9410 0.4440 0.6542
C22 C 0.8945(14) 0.5241(11) 0.6752(15)
H16 H 0.9240 0.5384 0.7051
C23 C 0.8457(17) 0.5570(12) 0.6648(9)
H17 H 0.8400 0.5938 0.6891
C24 C 0.7999(10) 0.5425(9) 0.6197(12)
N6 N 0.8674(6) 0.3978(7) 0.5657(6)
H18 H 0.8956 0.3713 0.5795
N7 N 0.8081(7) 0.4886(7) 0.5824(8)
C25 C 0.6733(7) 0.2561(7) 0.2442(7)
C26 C 0.6667(8) 0.2611(8) 0.1815(7)
H19 H 0.6998 0.2483 0.1547
C27 C 0.6094(7) 0.2862(6) 0.1547(6)
H20 H 0.6037 0.2885 0.1107
C28 C 0.5633(6) 0.3067(7) 0.1957(6)
C29 C 0.5711(8) 0.3056(8) 0.2590(11)
H21 H 0.5405 0.3237 0.2856
C30 C 0.6235(9) 0.2780(8) 0.2839(9)
H22 H 0.6270 0.2733 0.3279
C31 C 0.5074(8) 0.3378(7) 0.1727(8)
H23 H 0.4852 0.3633 0.2015
N8 N 0.4863(6) 0.3342(5) 0.1193(7)
C32 C 0.4023(7) 0.3608(9) 0.0482(7)
C33 C 0.3551(10) 0.4057(10) 0.0307(9)
H24 H 0.3458 0.4410 0.0560
N9 N 0.4343(6) 0.3674(6) 0.1022(7)
H27 H 0.4205 0.3956 0.1287
N10 N 0.4176(8) 0.3081(7) 0.0114(7)
Ag2 Ag 0.7500 0.46026(10) 0.5000
Ag3 Ag 0.5000 0.2500 0.03974(10)
C37 C 0.2442(7) 0.3267(7) 0.2439(7)
C38 C 0.1815(7) 0.3333(8) 0.2389(8)
H28 H 0.1547 0.3002 0.2517
C39 C 0.1547(6) 0.3906(7) 0.2138(6)
H29 H 0.1107 0.3963 0.2115
C40 C 0.1957(6) 0.4367(6) 0.1933(7)
C41 C 0.2590(11) 0.4289(8) 0.1944(8)
H30 H 0.2856 0.4595 0.1763
C42 C 0.2839(9) 0.3765(9) 0.2220(8)
H31 H 0.3279 0.3730 0.2267
C43 C 0.1727(8) 0.4926(8) 0.1622(7)
H32 H 0.2015 0.5148 0.1367
C44 C 0.0482(7) 0.5977(7) 0.1392(9)
C45 C 0.0307(9) 0.6449(10) 0.0943(10)
H33 H 0.0560 0.6542 0.0590
N11 N 0.2707(6) 0.2707(6) 0.2707(6)
N12 N 0.1193(7) 0.5137(6) 0.1658(5)
N13 N 0.1022(7) 0.5657(6) 0.1326(6)
H36 H 0.1287 0.5795 0.1044
N14 N 0.0114(7) 0.5824(8) 0.1919(7)
C49 C 0.2439(7) 0.2442(7) 0.3267(7)
C50 C 0.2389(8) 0.1815(7) 0.3333(8)
H37 H 0.2517 0.1547 0.3002
C51 C 0.2138(6) 0.1547(6) 0.3906(7)
H38 H 0.2115 0.1107 0.3963
C52 C 0.1933(7) 0.1957(6) 0.4367(6)
C53 C 0.1944(8) 0.2590(11) 0.4289(8)
H39 H 0.1763 0.2856 0.4595
C54 C 0.2220(8) 0.2839(9) 0.3765(9)
H40 H 0.2267 0.3279 0.3730
C55 C 0.1622(7) 0.1727(8) 0.4926(8)
H41 H 0.1367 0.2015 0.5148
N15 N 0.1658(5) 0.1193(7) 0.5137(6)
C56 C 0.1392(9) 0.0482(7) 0.5977(7)
C57 C 0.0943(10) 0.0307(9) 0.6449(10)
H42 H 0.0590 0.0560 0.6542
N16 N 0.1326(6) 0.1022(7) 0.5657(6)
H45 H 0.1044 0.1287 0.5795
N17 N 0.1919(7) 0.0114(7) 0.5824(8)
C61 C 0.3267(7) 0.2439(7) 0.2442(7)
C62 C 0.3333(8) 0.2389(8) 0.1815(7)
H46 H 0.3002 0.2517 0.1547
C63 C 0.3906(7) 0.2138(6) 0.1547(6)
H47 H 0.3963 0.2115 0.1107
C64 C 0.4367(6) 0.1933(7) 0.1957(6)
C65 C 0.4289(8) 0.1944(8) 0.2590(11)
H48 H 0.4595 0.1763 0.2856
C66 C 0.3765(9) 0.2220(8) 0.2839(9)
H49 H 0.3730 0.2267 0.3279
C67 C 0.4926(8) 0.1622(7) 0.1727(8)
H50 H 0.5148 0.1367 0.2015
N18 N 0.5137(6) 0.1658(5) 0.1193(7)
C68 C 0.5977(7) 0.1392(9) 0.0482(7)
C69 C 0.6449(10) 0.0943(10) 0.0307(9)
H51 H 0.6542 0.0590 0.0560
N19 N 0.5657(6) 0.1326(6) 0.1022(7)
H54 H 0.5795 0.1044 0.1287
N20 N 0.5824(8) 0.1919(7) 0.0114(7)
Ag4 Ag 0.03974(10) 0.5000 0.2500
Ag5 Ag 0.2500 0.03974(10) 0.5000
N21 N 0.8807(7) 0.0137(6) 0.3342(5)
N22 N 0.6658(5) 0.3807(7) 0.4863(6)
N23 N 0.9886(7) 0.0824(8) 0.3081(7)
N24 N 0.6919(7) 0.4886(7) 0.4176(8)
Br3 Br 0.40355(19) 0.22800(15) 0.91088(14)
C34 C 0.3248(15) 0.3945(14) 0.9759(11)
H25 H 0.2949 0.4240 0.9616
C35 C 0.3352(9) 0.3457(17) 0.9430(12)
H26 H 0.3109 0.3400 0.9062
C36 C 0.3803(12) 0.2999(10) 0.9575(9)
Br6 Br 0.59645(19) 0.27200(15) 0.91088(14)
C70 C 0.6752(15) 0.1055(14) 0.9759(11)
H52 H 0.7051 0.0760 0.9616
C71 C 0.6648(9) 0.1543(17) 0.9430(12)
H53 H 0.6891 0.1600 0.9062
C72 C 0.6197(12) 0.2001(10) 0.9575(9)
Ag1_2 Ag 0.96026(10) 1.0000 0.2500
H5 H 0.7985 0.9852 0.1367
C8 C 0.9518(7) 0.9023(7) 0.1392(9)
C9 C 0.9693(9) 0.8551(10) 0.0943(10)
H6 H 0.9440 0.8458 0.0590
N2 N 0.8807(7) 0.9863(6) 0.1658(5)
N3 N 0.8978(7) 0.9343(6) 0.1326(6)
H9 H 0.8713 0.9205 0.1044
N4 N 0.9886(7) 0.9176(8) 0.1919(7)
Br5 Br 0.27200(15) 0.91088(14) 0.59645(19)
C58 C 0.1055(14) 0.9759(11) 0.6752(15)
H43 H 0.0760 0.9616 0.7051
C59 C 0.1543(17) 0.9430(12) 0.6648(9)
H44 H 0.1600 0.9062 0.6891
C60 C 0.2001(10) 0.9575(9) 0.6197(12)
Br4 Br 0.91088(14) 0.59645(19) 0.27200(15)
C46 C 0.9759(11) 0.6752(15) 0.1055(14)
H34 H 0.9616 0.7051 0.0760
C47 C 0.9430(12) 0.6648(9) 0.1543(17)
H35 H 0.9062 0.6891 0.1600
C48 C 0.9575(9) 0.6197(12) 0.2001(10)
H41_2 H 0.3633 0.7985 0.0148
N15_2 N 0.3342(5) 0.8807(7) 0.0137(6)
C56_2 C 0.3608(9) 0.9518(7) 0.0977(7)
C57_2 C 0.4057(10) 0.9693(9) 0.1449(10)
H42_2 H 0.4410 0.9440 0.1542
N16_2 N 0.3674(6) 0.8978(7) 0.0657(6)
H45_2 H 0.3956 0.8713 0.0795
N17_2 N 0.3081(7) 0.9886(7) 0.0824(8)
Ag5_2 Ag 0.2500 0.96026(10) 0.0000
H23_2 H 0.0148 0.6367 0.7015
N8_2 N 0.0137(6) 0.6658(5) 0.6193(7)
Br3_2 Br 0.09645(19) 0.77200(15) 0.41088(14)
C32_2 C 0.0977(7) 0.6392(9) 0.5482(7)
C33_2 C 0.1449(10) 0.5943(10) 0.5307(9)
H24_2 H 0.1542 0.5590 0.5560
C34_2 C 0.1752(15) 0.6055(14) 0.4759(11)
H25_2 H 0.2051 0.5760 0.4616
C35_2 C 0.1648(9) 0.6543(17) 0.4430(12)
H26_2 H 0.1891 0.6600 0.4062
C36_2 C 0.1197(12) 0.7001(10) 0.4575(9)
N9_2 N 0.0657(6) 0.6326(6) 0.6022(7)
H27_2 H 0.0795 0.6044 0.6287
N10_2 N 0.0824(8) 0.6919(7) 0.5114(7)
Ag3_2 Ag 0.0000 0.7500 0.53974(10)
Br4_2 Br 0.58912(14) 0.40355(19) 0.77200(15)
C37_2 C 0.2558(7) 0.6733(7) 0.7439(7)
C38_2 C 0.3185(7) 0.6667(8) 0.7389(8)
H28_2 H 0.3453 0.6998 0.7517
C39_2 C 0.3453(6) 0.6094(7) 0.7138(6)
H29_2 H 0.3893 0.6037 0.7115
C40_2 C 0.3043(6) 0.5633(6) 0.6933(7)
C41_2 C 0.2410(11) 0.5711(8) 0.6944(8)
H30_2 H 0.2144 0.5405 0.6763
C42_2 C 0.2161(9) 0.6235(9) 0.7220(8)
H31_2 H 0.1721 0.6270 0.7267
C43_2 C 0.3273(8) 0.5074(8) 0.6622(7)
H32_2 H 0.2985 0.4852 0.6367
C44_2 C 0.4518(7) 0.4023(7) 0.6392(9)
C45_2 C 0.4693(9) 0.3551(10) 0.5943(10)
H33_2 H 0.4440 0.3458 0.5590
C46_2 C 0.5241(11) 0.3248(15) 0.6055(14)
H34_2 H 0.5384 0.2949 0.5760
C47_2 C 0.5570(12) 0.3352(9) 0.6543(17)
H35_2 H 0.5938 0.3109 0.6600
C48_2 C 0.5425(9) 0.3803(12) 0.7001(10)
N11_2 N 0.2293(6) 0.7293(6) 0.7707(6)
N12_2 N 0.3807(7) 0.4863(6) 0.6658(5)
N13_2 N 0.3978(7) 0.4343(6) 0.6326(6)
H36_2 H 0.3713 0.4205 0.6044
N14_2 N 0.4886(7) 0.4176(8) 0.6919(7)
C49_2 C 0.2561(7) 0.7558(7) 0.8267(7)
C50_2 C 0.2611(8) 0.8185(7) 0.8333(8)
H37_2 H 0.2483 0.8453 0.8002
C51_2 C 0.2862(6) 0.8453(6) 0.8906(7)
H38_2 H 0.2885 0.8893 0.8963
C52_2 C 0.3067(7) 0.8043(6) 0.9367(6)
C53_2 C 0.3056(8) 0.7410(11) 0.9289(8)
H39_2 H 0.3237 0.7144 0.9595
C54_2 C 0.2780(8) 0.7161(9) 0.8765(9)
H40_2 H 0.2733 0.6721 0.8730
C55_2 C 0.3378(7) 0.8273(8) 0.9926(8)
C61_2 C 0.1733(7) 0.7561(7) 0.7442(7)
C62_2 C 0.1667(8) 0.7611(8) 0.6815(7)
H46_2 H 0.1998 0.7483 0.6547
C63_2 C 0.1094(7) 0.7862(6) 0.6547(6)
H47_2 H 0.1037 0.7885 0.6107
C64_2 C 0.0633(6) 0.8067(7) 0.6957(6)
C65_2 C 0.0711(8) 0.8056(8) 0.7590(11)
H48_2 H 0.0405 0.8237 0.7856
C66_2 C 0.1235(9) 0.7780(8) 0.7839(9)
H49_2 H 0.1270 0.7733 0.8279
C67_2 C 0.0074(8) 0.8378(7) 0.6727(8)
Ag4_2 Ag 0.46026(10) 0.5000 0.7500
Ag5_3 Ag 0.2500 0.96026(10) 1.0000
Ag1_3 Ag 0.53974(10) -0.0000 0.7500
Br1_2 Br 0.41088(14) 0.09645(19) 0.77200(15)
H5_2 H 0.7015 0.0148 0.6367
C8_2 C 0.5482(7) 0.0977(7) 0.6392(9)
C9_2 C 0.5307(9) 0.1449(10) 0.5943(10)
H6_2 H 0.5560 0.1542 0.5590
C10_2 C 0.4759(11) 0.1752(15) 0.6055(14)
H7_2 H 0.4616 0.2051 0.5760
C11_2 C 0.4430(12) 0.1648(9) 0.6543(17)
H8_2 H 0.4062 0.1891 0.6600
C12_2 C 0.4575(9) 0.1197(12) 0.7001(10)
N2_2 N 0.6193(7) 0.0137(6) 0.6658(5)
N3_2 N 0.6022(7) 0.0657(6) 0.6326(6)
H9_2 H 0.6287 0.0795 0.6044
N4_2 N 0.5114(7) 0.0824(8) 0.6919(7)
H14_2 H 0.6367 0.7015 0.0148
N5_2 N 0.6658(5) 0.6193(7) 0.0137(6)
Br2_2 Br 0.77200(15) 0.41088(14) 0.09645(19)
C20_2 C 0.6392(9) 0.5482(7) 0.0977(7)
C21_2 C 0.5943(10) 0.5307(9) 0.1449(10)
H15_2 H 0.5590 0.5560 0.1542
C22_2 C 0.6055(14) 0.4759(11) 0.1752(15)
H16_2 H 0.5760 0.4616 0.2051
C23_2 C 0.6543(17) 0.4430(12) 0.1648(9)
H17_2 H 0.6600 0.4062 0.1891
C24_2 C 0.7001(10) 0.4575(9) 0.1197(12)
N6_2 N 0.6326(6) 0.6022(7) 0.0657(6)
H18_2 H 0.6044 0.6287 0.0795
N7_2 N 0.6919(7) 0.5114(7) 0.0824(8)
Ag2_2 Ag 0.7500 0.53974(10) 0.0000
Ag1_4 Ag 0.53974(10) 1.0000 0.7500
C1_2 C 0.7442(7) 0.8267(7) 0.7439(7)
C2_2 C 0.6815(7) 0.8333(8) 0.7389(8)
H1_2 H 0.6547 0.8002 0.7517
C3_2 C 0.6547(6) 0.8906(7) 0.7138(6)
H2_2 H 0.6107 0.8963 0.7115
C4_2 C 0.6957(6) 0.9367(6) 0.6933(7)
C5_2 C 0.7590(11) 0.9289(8) 0.6944(8)
H3_2 H 0.7856 0.9595 0.6763
C6_2 C 0.7839(9) 0.8765(9) 0.7220(8)
H4_2 H 0.8279 0.8730 0.7267
C7_2 C 0.6727(8) 0.9926(8) 0.6622(7)
N1_2 N 0.7707(6) 0.7707(6) 0.7707(6)
C13_2 C 0.7439(7) 0.7442(7) 0.8267(7)
C14_2 C 0.7389(8) 0.6815(7) 0.8333(8)
H10_2 H 0.7517 0.6547 0.8002
C15_2 C 0.7138(6) 0.6547(6) 0.8906(7)
H11_2 H 0.7115 0.6107 0.8963
C16_2 C 0.6933(7) 0.6957(6) 0.9367(6)
C17_2 C 0.6944(8) 0.7590(11) 0.9289(8)
H12_2 H 0.6763 0.7856 0.9595
C18_2 C 0.7220(8) 0.7839(9) 0.8765(9)
H13_2 H 0.7267 0.8279 0.8730
C19_2 C 0.6622(7) 0.6727(8) 0.9926(8)
C25_2 C 0.8267(7) 0.7439(7) 0.7442(7)
C26_2 C 0.8333(8) 0.7389(8) 0.6815(7)
H19_2 H 0.8002 0.7517 0.6547
C27_2 C 0.8906(7) 0.7138(6) 0.6547(6)
H20_2 H 0.8963 0.7115 0.6107
C28_2 C 0.9367(6) 0.6933(7) 0.6957(6)
C29_2 C 0.9289(8) 0.6944(8) 0.7590(11)
H21_2 H 0.9595 0.6763 0.7856
C30_2 C 0.8765(9) 0.7220(8) 0.7839(9)
H22_2 H 0.8730 0.7267 0.8279
C31_2 C 0.9926(8) 0.6622(7) 0.6727(8)
Ag2_3 Ag 0.7500 0.53974(10) 1.0000
Ag3_3 Ag 1.0000 0.7500 0.53974(10)
H50_2 H 0.9852 0.8633 0.7015
N18_2 N 0.9863(6) 0.8342(5) 0.6193(7)
Br6_2 Br 0.90355(19) 0.72800(15) 0.41088(14)
C68_2 C 0.9023(7) 0.8608(9) 0.5482(7)
C69_2 C 0.8551(10) 0.9057(10) 0.5307(9)
H51_2 H 0.8458 0.9410 0.5560
C70_2 C 0.8248(15) 0.8945(14) 0.4759(11)
H52_2 H 0.7949 0.9240 0.4616
C71_2 C 0.8352(9) 0.8457(17) 0.4430(12)
H53_2 H 0.8109 0.8400 0.4062
C72_2 C 0.8803(12) 0.7999(10) 0.4575(9)
N19_2 N 0.9343(6) 0.8674(6) 0.6022(7)
H54_2 H 0.9205 0.8956 0.6287
N20_2 N 0.9176(8) 0.8081(7) 0.5114(7)
N21_2 N 0.6193(7) 0.9863(6) 0.8342(5)
N22_2 N 0.8342(5) 0.6193(7) 0.9863(6)
N23_2 N 0.5114(7) 0.9176(8) 0.8081(7)
N24_2 N 0.8081(7) 0.5114(7) 0.9176(8)
H32_3 H 0.7985 0.0148 0.3633
C44_3 C 0.9518(7) 0.0977(7) 0.3608(9)
C45_3 C 0.9693(9) 0.1449(10) 0.4057(10)
H33_3 H 0.9440 0.1542 0.4410
N13_3 N 0.8978(7) 0.0657(6) 0.3674(6)
H36_3 H 0.8713 0.0795 0.3956
C1_3 C 0.2442(7) 0.6733(7) 0.2561(7)
C2_3 C 0.1815(7) 0.6667(8) 0.2611(8)
H1_3 H 0.1547 0.6998 0.2483
C3_3 C 0.1547(6) 0.6094(7) 0.2862(6)
H2_3 H 0.1107 0.6037 0.2885
C4_3 C 0.1957(6) 0.5633(6) 0.3067(7)
C5_3 C 0.2590(11) 0.5711(8) 0.3056(8)
H3_3 H 0.2856 0.5405 0.3237
C6_3 C 0.2839(9) 0.6235(9) 0.2780(8)
H4_3 H 0.3279 0.6270 0.2733
C7_3 C 0.1727(8) 0.5074(8) 0.3378(7)
H5_3 H 0.2015 0.4852 0.3633
C8_3 C 0.0482(7) 0.4023(7) 0.3608(9)
C9_3 C 0.0307(9) 0.3551(10) 0.4057(10)
H6_3 H 0.0560 0.3458 0.4410
N1_3 N 0.2707(6) 0.7293(6) 0.2293(6)
N2_3 N 0.1193(7) 0.4863(6) 0.3342(5)
N3_3 N 0.1022(7) 0.4343(6) 0.3674(6)
H9_3 H 0.1287 0.4205 0.3956
N4_3 N 0.0114(7) 0.4176(8) 0.3081(7)
C13_3 C 0.2439(7) 0.7558(7) 0.1733(7)
C14_3 C 0.2389(8) 0.8185(7) 0.1667(8)
H10_3 H 0.2517 0.8453 0.1998
C15_3 C 0.2138(6) 0.8453(6) 0.1094(7)
H11_3 H 0.2115 0.8893 0.1037
C16_3 C 0.1933(7) 0.8043(6) 0.0633(6)
C17_3 C 0.1944(8) 0.7410(11) 0.0711(8)
H12_3 H 0.1763 0.7144 0.0405
C18_3 C 0.2220(8) 0.7161(9) 0.1235(9)
H13_3 H 0.2267 0.6721 0.1270
C19_3 C 0.1622(7) 0.8273(8) 0.0074(8)
C25_3 C 0.3267(7) 0.7561(7) 0.2558(7)
C26_3 C 0.3333(8) 0.7611(8) 0.3185(7)
H19_3 H 0.3002 0.7483 0.3453
C27_3 C 0.3906(7) 0.7862(6) 0.3453(6)
H20_3 H 0.3963 0.7885 0.3893
C28_3 C 0.4367(6) 0.8067(7) 0.3043(6)
C29_3 C 0.4289(8) 0.8056(8) 0.2410(11)
H21_3 H 0.4595 0.8237 0.2144
C30_3 C 0.3765(9) 0.7780(8) 0.2161(9)
H22_3 H 0.3730 0.7733 0.1721
C31_3 C 0.4926(8) 0.8378(7) 0.3273(8)
H23_3 H 0.5148 0.8633 0.2985
N8_3 N 0.5137(6) 0.8342(5) 0.3807(7)
Br3_3 Br 0.59645(19) 0.72800(15) 0.58912(14)
C32_3 C 0.5977(7) 0.8608(9) 0.4518(7)
C33_3 C 0.6449(10) 0.9057(10) 0.4693(9)
H24_3 H 0.6542 0.9410 0.4440
C34_3 C 0.6752(15) 0.8945(14) 0.5241(11)
H25_3 H 0.7051 0.9240 0.5384
C35_3 C 0.6648(9) 0.8457(17) 0.5570(12)
H26_3 H 0.6891 0.8400 0.5938
C36_3 C 0.6197(12) 0.7999(10) 0.5425(9)
N9_3 N 0.5657(6) 0.8674(6) 0.3978(7)
H27_3 H 0.5795 0.8956 0.3713
N10_3 N 0.5824(8) 0.8081(7) 0.4886(7)
Ag3_4 Ag 0.5000 0.7500 0.46026(10)
C37_3 C 0.7558(7) 0.8267(7) 0.2561(7)
C38_3 C 0.8185(7) 0.8333(8) 0.2611(8)
H28_3 H 0.8453 0.8002 0.2483
C39_3 C 0.8453(6) 0.8906(7) 0.2862(6)
H29_3 H 0.8893 0.8963 0.2885
C40_3 C 0.8043(6) 0.9367(6) 0.3067(7)
C41_3 C 0.7410(11) 0.9289(8) 0.3056(8)
H30_3 H 0.7144 0.9595 0.3237
C42_3 C 0.7161(9) 0.8765(9) 0.2780(8)
H31_3 H 0.6721 0.8730 0.2733
C43_3 C 0.8273(8) 0.9926(8) 0.3378(7)
N11_3 N 0.7293(6) 0.7707(6) 0.2293(6)
C49_3 C 0.7561(7) 0.7442(7) 0.1733(7)
C50_3 C 0.7611(8) 0.6815(7) 0.1667(8)
H37_3 H 0.7483 0.6547 0.1998
C51_3 C 0.7862(6) 0.6547(6) 0.1094(7)
H38_3 H 0.7885 0.6107 0.1037
C52_3 C 0.8067(7) 0.6957(6) 0.0633(6)
C53_3 C 0.8056(8) 0.7590(11) 0.0711(8)
H39_3 H 0.8237 0.7856 0.0405
C54_3 C 0.7780(8) 0.7839(9) 0.1235(9)
H40_3 H 0.7733 0.8279 0.1270
C55_3 C 0.8378(7) 0.6727(8) 0.0074(8)
C61_3 C 0.6733(7) 0.7439(7) 0.2558(7)
C62_3 C 0.6667(8) 0.7389(8) 0.3185(7)
H46_3 H 0.6998 0.7517 0.3453
C63_3 C 0.6094(7) 0.7138(6) 0.3453(6)
H47_3 H 0.6037 0.7115 0.3893
C64_3 C 0.5633(6) 0.6933(7) 0.3043(6)
C65_3 C 0.5711(8) 0.6944(8) 0.2410(11)
H48_3 H 0.5405 0.6763 0.2144
C66_3 C 0.6235(9) 0.7220(8) 0.2161(9)
H49_3 H 0.6270 0.7267 0.1721
C67_3 C 0.5074(8) 0.6622(7) 0.3273(8)
H50_3 H 0.4852 0.6367 0.2985
N18_3 N 0.4863(6) 0.6658(5) 0.3807(7)
Br6_3 Br 0.40355(19) 0.77200(15) 0.58912(14)
C68_3 C 0.4023(7) 0.6392(9) 0.4518(7)
C69_3 C 0.3551(10) 0.5943(10) 0.4693(9)
H51_3 H 0.3458 0.5590 0.4440
C70_3 C 0.3248(15) 0.6055(14) 0.5241(11)
H52_3 H 0.2949 0.5760 0.5384
C71_3 C 0.3352(9) 0.6543(17) 0.5570(12)
H53_3 H 0.3109 0.6600 0.5938
C72_3 C 0.3803(12) 0.7001(10) 0.5425(9)
N19_3 N 0.4343(6) 0.6326(6) 0.3978(7)
H54_3 H 0.4205 0.6044 0.3713
N20_3 N 0.4176(8) 0.6919(7) 0.4886(7)
H14_3 H 0.1367 0.7985 0.9852
N5_3 N 0.1658(5) 0.8807(7) 0.9863(6)
C20_3 C 0.1392(9) 0.9518(7) 0.9023(7)
C21_3 C 0.0943(10) 0.9693(9) 0.8551(10)
H15_3 H 0.0590 0.9440 0.8458
N6_3 N 0.1326(6) 0.8978(7) 0.9343(6)
H18_3 H 0.1044 0.8713 0.9205
N7_3 N 0.1919(7) 0.9886(7) 0.9176(8)
H41_3 H 0.8633 0.7015 0.9852
Br5_2 Br 0.72800(15) 0.41088(14) 0.90355(19)
C56_3 C 0.8608(9) 0.5482(7) 0.9023(7)
C57_3 C 0.9057(10) 0.5307(9) 0.8551(10)
H42_3 H 0.9410 0.5560 0.8458
C58_2 C 0.8945(14) 0.4759(11) 0.8248(15)
H43_2 H 0.9240 0.4616 0.7949
C59_2 C 0.8457(17) 0.4430(12) 0.8352(9)
H44_2 H 0.8400 0.4062 0.8109
C60_2 C 0.7999(10) 0.4575(9) 0.8803(12)
N16_3 N 0.8674(6) 0.6022(7) 0.9343(6)
H45_3 H 0.8956 0.6287 0.9205
Br1_3 Br 0.91088(14) 0.40355(19) 0.22800(15)
C10_3 C 0.9759(11) 0.3248(15) 0.3945(14)
H7_3 H 0.9616 0.2949 0.4240
C11_3 C 0.9430(12) 0.3352(9) 0.3457(17)
H8_3 H 0.9062 0.3109 0.3400
C12_3 C 0.9575(9) 0.3803(12) 0.2999(10)
Br1_4 Br 0.58912(14) 0.59645(19) 0.72800(15)
C1_4 C 0.2558(7) 0.3267(7) 0.7561(7)
C2_4 C 0.3185(7) 0.3333(8) 0.7611(8)
H1_4 H 0.3453 0.3002 0.7483
C3_4 C 0.3453(6) 0.3906(7) 0.7862(6)
H2_4 H 0.3893 0.3963 0.7885
C4_4 C 0.3043(6) 0.4367(6) 0.8067(7)
C5_4 C 0.2410(11) 0.4289(8) 0.8056(8)
H3_4 H 0.2144 0.4595 0.8237
C6_4 C 0.2161(9) 0.3765(9) 0.7780(8)
H4_4 H 0.1721 0.3730 0.7733
C7_4 C 0.3273(8) 0.4926(8) 0.8378(7)
H5_4 H 0.2985 0.5148 0.8633
C8_4 C 0.4518(7) 0.5977(7) 0.8608(9)
C9_4 C 0.4693(9) 0.6449(10) 0.9057(10)
H6_4 H 0.4440 0.6542 0.9410
C10_4 C 0.5241(11) 0.6752(15) 0.8945(14)
H7_4 H 0.5384 0.7051 0.9240
C11_4 C 0.5570(12) 0.6648(9) 0.8457(17)
H8_4 H 0.5938 0.6891 0.8400
C12_4 C 0.5425(9) 0.6197(12) 0.7999(10)
N1_4 N 0.2293(6) 0.2707(6) 0.7293(6)
N2_4 N 0.3807(7) 0.5137(6) 0.8342(5)
N3_4 N 0.3978(7) 0.5657(6) 0.8674(6)
H9_4 H 0.3713 0.5795 0.8956
N4_4 N 0.4886(7) 0.5824(8) 0.8081(7)
C13_4 C 0.2561(7) 0.2442(7) 0.6733(7)
C14_4 C 0.2611(8) 0.1815(7) 0.6667(8)
H10_4 H 0.2483 0.1547 0.6998
C15_4 C 0.2862(6) 0.1547(6) 0.6094(7)
H11_4 H 0.2885 0.1107 0.6037
C16_4 C 0.3067(7) 0.1957(6) 0.5633(6)
C17_4 C 0.3056(8) 0.2590(11) 0.5711(8)
H12_4 H 0.3237 0.2856 0.5405
C18_4 C 0.2780(8) 0.2839(9) 0.6235(9)
H13_4 H 0.2733 0.3279 0.6270
C19_4 C 0.3378(7) 0.1727(8) 0.5074(8)
H14_4 H 0.3633 0.2015 0.4852
N5_4 N 0.3342(5) 0.1193(7) 0.4863(6)
C20_4 C 0.3608(9) 0.0482(7) 0.4023(7)
C21_4 C 0.4057(10) 0.0307(9) 0.3551(10)
H15_4 H 0.4410 0.0560 0.3458
N6_4 N 0.3674(6) 0.1022(7) 0.4343(6)
H18_4 H 0.3956 0.1287 0.4205
N7_4 N 0.3081(7) 0.0114(7) 0.4176(8)
C25_4 C 0.1733(7) 0.2439(7) 0.7558(7)
C26_4 C 0.1667(8) 0.2389(8) 0.8185(7)
H19_4 H 0.1998 0.2517 0.8453
C27_4 C 0.1094(7) 0.2138(6) 0.8453(6)
H20_4 H 0.1037 0.2115 0.8893
C28_4 C 0.0633(6) 0.1933(7) 0.8043(6)
C29_4 C 0.0711(8) 0.1944(8) 0.7410(11)
H21_4 H 0.0405 0.1763 0.7144
C30_4 C 0.1235(9) 0.2220(8) 0.7161(9)
H22_4 H 0.1270 0.2267 0.6721
C31_4 C 0.0074(8) 0.1622(7) 0.8273(8)
Ag3_5 Ag 0.0000 0.2500 0.96026(10)
H50_4 H 0.0148 0.3633 0.7985
N18_4 N 0.0137(6) 0.3342(5) 0.8807(7)
C68_4 C 0.0977(7) 0.3608(9) 0.9518(7)
C69_4 C 0.1449(10) 0.4057(10) 0.9693(9)
H51_4 H 0.1542 0.4410 0.9440
N19_4 N 0.0657(6) 0.3674(6) 0.8978(7)
H54_4 H 0.0795 0.3956 0.8713
N20_4 N 0.0824(8) 0.3081(7) 0.9886(7)
Br2_3 Br 0.22800(15) 0.91088(14) 0.40355(19)
C22_3 C 0.3945(14) 0.9759(11) 0.3248(15)
H16_3 H 0.4240 0.9616 0.2949
C23_3 C 0.3457(17) 0.9430(12) 0.3352(9)
H17_3 H 0.3400 0.9062 0.3109
C24_3 C 0.2999(10) 0.9575(9) 0.3803(12)
H23_4 H 0.9852 0.1367 0.7985
N8_4 N 0.9863(6) 0.1658(5) 0.8807(7)
C32_4 C 0.9023(7) 0.1392(9) 0.9518(7)
C33_4 C 0.8551(10) 0.0943(10) 0.9693(9)
H24_4 H 0.8458 0.0590 0.9440
N9_4 N 0.9343(6) 0.1326(6) 0.8978(7)
H27_4 H 0.9205 0.1044 0.8713
N10_4 N 0.9176(8) 0.1919(7) 0.9886(7)
Ag3_6 Ag 1.0000 0.2500 0.96026(10)
C37_4 C 0.7442(7) 0.1733(7) 0.7561(7)
C38_4 C 0.6815(7) 0.1667(8) 0.7611(8)
H28_4 H 0.6547 0.1998 0.7483
C39_4 C 0.6547(6) 0.1094(7) 0.7862(6)
H29_4 H 0.6107 0.1037 0.7885
C40_4 C 0.6957(6) 0.0633(6) 0.8067(7)
C41_4 C 0.7590(11) 0.0711(8) 0.8056(8)
H30_4 H 0.7856 0.0405 0.8237
C42_4 C 0.7839(9) 0.1235(9) 0.7780(8)
H31_4 H 0.8279 0.1270 0.7733
C43_4 C 0.6727(8) 0.0074(8) 0.8378(7)
N11_4 N 0.7707(6) 0.2293(6) 0.7293(6)
C49_4 C 0.7439(7) 0.2558(7) 0.6733(7)
C50_4 C 0.7389(8) 0.3185(7) 0.6667(8)
H37_4 H 0.7517 0.3453 0.6998
C51_4 C 0.7138(6) 0.3453(6) 0.6094(7)
H38_4 H 0.7115 0.3893 0.6037
C52_4 C 0.6933(7) 0.3043(6) 0.5633(6)
C53_4 C 0.6944(8) 0.2410(11) 0.5711(8)
H39_4 H 0.6763 0.2144 0.5405
C54_4 C 0.7220(8) 0.2161(9) 0.6235(9)
H40_4 H 0.7267 0.1721 0.6270
C55_4 C 0.6622(7) 0.3273(8) 0.5074(8)
H41_4 H 0.6367 0.2985 0.4852
Br5_3 Br 0.77200(15) 0.58912(14) 0.40355(19)
C56_4 C 0.6392(9) 0.4518(7) 0.4023(7)
C57_4 C 0.5943(10) 0.4693(9) 0.3551(10)
H42_4 H 0.5590 0.4440 0.3458
C58_3 C 0.6055(14) 0.5241(11) 0.3248(15)
H43_3 H 0.5760 0.5384 0.2949
C59_3 C 0.6543(17) 0.5570(12) 0.3352(9)
H44_3 H 0.6600 0.5938 0.3109
C60_3 C 0.7001(10) 0.5425(9) 0.3803(12)
N16_4 N 0.6326(6) 0.3978(7) 0.4343(6)
H45_4 H 0.6044 0.3713 0.4205
C61_4 C 0.8267(7) 0.2561(7) 0.7558(7)
C62_4 C 0.8333(8) 0.2611(8) 0.8185(7)
H46_4 H 0.8002 0.2483 0.8453
C63_4 C 0.8906(7) 0.2862(6) 0.8453(6)
H47_4 H 0.8963 0.2885 0.8893
C64_4 C 0.9367(6) 0.3067(7) 0.8043(6)
C65_4 C 0.9289(8) 0.3056(8) 0.7410(11)
H48_4 H 0.9595 0.3237 0.7144
C66_4 C 0.8765(9) 0.2780(8) 0.7161(9)
H49_4 H 0.8730 0.2733 0.6721
C67_4 C 0.9926(8) 0.3378(7) 0.8273(8)
Br4_3 Br 0.41088(14) 0.90355(19) 0.72800(15)
H32_4 H 0.7015 0.9852 0.8633
C44_4 C 0.5482(7) 0.9023(7) 0.8608(9)
C45_4 C 0.5307(9) 0.8551(10) 0.9057(10)
H33_4 H 0.5560 0.8458 0.9410
C46_3 C 0.4759(11) 0.8248(15) 0.8945(14)
H34_3 H 0.4616 0.7949 0.9240
C47_3 C 0.4430(12) 0.8352(9) 0.8457(17)
H35_3 H 0.4062 0.8109 0.8400
C48_3 C 0.4575(9) 0.8803(12) 0.7999(10)
N13_4 N 0.6022(7) 0.9343(6) 0.8674(6)
H36_4 H 0.6287 0.9205 0.8956
Br5_4 Br 0.22800(15) 0.08912(14) 0.09645(19)
C58_4 C 0.3945(14) 0.0241(11) 0.1752(15)
H43_4 H 0.4240 0.0384 0.2051
C59_4 C 0.3457(17) 0.0570(12) 0.1648(9)
H44_4 H 0.3400 0.0938 0.1891
C60_4 C 0.2999(10) 0.0425(9) 0.1197(12)
Br4_4 Br 0.08912(14) 0.09645(19) 0.22800(15)
C46_4 C 0.0241(11) 0.1752(15) 0.3945(14)
H34_4 H 0.0384 0.2051 0.4240
C47_4 C 0.0570(12) 0.1648(9) 0.3457(17)
H35_4 H 0.0938 0.1891 0.3400
C48_4 C 0.0425(9) 0.1197(12) 0.2999(10)
Br2_4 Br 0.27200(15) 0.08912(14) 0.90355(19)
C22_4 C 0.1055(14) 0.0241(11) 0.8248(15)
H16_4 H 0.0760 0.0384 0.7949
C23_4 C 0.1543(17) 0.0570(12) 0.8352(9)
H17_4 H 0.1600 0.0938 0.8109
C24_4 C 0.2001(10) 0.0425(9) 0.8803(12)
Br6_4 Br 0.09645(19) 0.22800(15) 0.08912(14)
C70_4 C 0.1752(15) 0.3945(14) 0.0241(11)
H52_4 H 0.2051 0.4240 0.0384
C71_4 C 0.1648(9) 0.3457(17) 0.0570(12)
H53_4 H 0.1891 0.3400 0.0938
C72_4 C 0.1197(12) 0.2999(10) 0.0425(9)
Br3_4 Br 0.90355(19) 0.27200(15) 0.08912(14)
C34_4 C 0.8248(15) 0.1055(14) 0.0241(11)
H25_4 H 0.7949 0.0760 0.0384
C35_4 C 0.8352(9) 0.1543(17) 0.0570(12)
H26_4 H 0.8109 0.1600 0.0938
C36_4 C 0.8803(12) 0.2001(10) 0.0425(9)
Cl1 Cl 0.7500 0.9369(4) 0.0000
O1 O 0.8097(13) 0.9083(10) 0.0229(8)
O2 O 0.7242(15) 0.9769(17) 0.0484(16)
Cl1_2 Cl 0.7500 0.9369(4) 1.0000
O3 O 0.6903(13) 0.9083(10) 0.9771(8)
O4 O 0.7758(15) 0.9769(17) 0.9516(16)
Cl1_3 Cl 0.7500 0.0631(4) 0.5000
O1_2 O 0.6903(13) 0.0917(10) 0.5229(8)
O2_2 O 0.7758(15) 0.0231(17) 0.5484(16)
O3_2 O 0.8097(13) 0.0917(10) 0.4771(8)
O4_2 O 0.7242(15) 0.0231(17) 0.4516(16)
Cl1_4 Cl 0.2500 0.4369(4) 0.5000
O1_3 O 0.1903(13) 0.4083(10) 0.4771(8)
O2_3 O 0.2758(15) 0.4769(17) 0.4516(16)
O3_3 O 0.3097(13) 0.4083(10) 0.5229(8)
O4_3 O 0.2242(15) 0.4769(17) 0.5484(16)
Cl1_5 Cl 0.2500 0.5631(4) 0.0000
O3_4 O 0.1903(13) 0.5917(10) 0.0229(8)
O4_4 O 0.2758(15) 0.5231(17) 0.0484(16)
Cl1_6 Cl 0.2500 0.5631(4) 1.0000
O1_4 O 0.3097(13) 0.5917(10) 0.9771(8)
O2_4 O 0.2242(15) 0.5231(17) 0.9516(16)
Cl1_7 Cl -0.0000 0.7500 0.9369(4)
O1_5 O 0.0229(8) 0.8097(13) 0.9083(10)
O2_5 O 0.0484(16) 0.7242(15) 0.9769(17)
Cl1_8 Cl 1.0000 0.7500 0.9369(4)
O3_5 O 0.9771(8) 0.6903(13) 0.9083(10)
O4_5 O 0.9516(16) 0.7758(15) 0.9769(17)
Cl1_9 Cl 0.5000 0.7500 0.0631(4)
O1_6 O 0.5229(8) 0.6903(13) 0.0917(10)
O2_6 O 0.5484(16) 0.7758(15) 0.0231(17)
O3_6 O 0.4771(8) 0.8097(13) 0.0917(10)
O4_6 O 0.4516(16) 0.7242(15) 0.0231(17)
Cl1_10 Cl 0.5000 0.2500 0.4369(4)
O1_7 O 0.4771(8) 0.1903(13) 0.4083(10)
O2_7 O 0.4516(16) 0.2758(15) 0.4769(17)
O3_7 O 0.5229(8) 0.3097(13) 0.4083(10)
O4_7 O 0.5484(16) 0.2242(15) 0.4769(17)
Cl1_11 Cl -0.0000 0.2500 0.5631(4)
O3_8 O 0.0229(8) 0.1903(13) 0.5917(10)
O4_8 O 0.0484(16) 0.2758(15) 0.5231(17)
Cl1_12 Cl 1.0000 0.2500 0.5631(4)
O1_8 O 0.9771(8) 0.3097(13) 0.5917(10)
O2_8 O 0.9516(16) 0.2242(15) 0.5231(17)
Cl1_13 Cl 0.9369(4) -0.0000 0.7500
O1_9 O 0.9083(10) 0.0229(8) 0.8097(13)
O2_9 O 0.9769(17) 0.0484(16) 0.7242(15)
Cl1_14 Cl 0.9369(4) 1.0000 0.7500
O3_9 O 0.9083(10) 0.9771(8) 0.6903(13)
O4_9 O 0.9769(17) 0.9516(16) 0.7758(15)
Cl1_15 Cl 0.0631(4) 0.5000 0.7500
O1_10 O 0.0917(10) 0.5229(8) 0.6903(13)
O2_10 O 0.0231(17) 0.5484(16) 0.7758(15)
O3_10 O 0.0917(10) 0.4771(8) 0.8097(13)
O4_10 O 0.0231(17) 0.4516(16) 0.7242(15)
Cl1_16 Cl 0.4369(4) 0.5000 0.2500
O1_11 O 0.4083(10) 0.4771(8) 0.1903(13)
O2_11 O 0.4769(17) 0.4516(16) 0.2758(15)
O3_11 O 0.4083(10) 0.5229(8) 0.3097(13)
O4_11 O 0.4769(17) 0.5484(16) 0.2242(15)
Cl1_17 Cl 0.5631(4) 0.0000 0.2500
O3_12 O 0.5917(10) 0.0229(8) 0.1903(13)
O4_12 O 0.5231(17) 0.0484(16) 0.2758(15)
Cl1_18 Cl 0.5631(4) 1.0000 0.2500
O1_12 O 0.5917(10) 0.9771(8) 0.3097(13)
O2_12 O 0.5231(17) 0.9516(16) 0.2242(15)
loop_
_geom_bond_atom_site_label_1
_geom_bond_atom_site_label_2
_geom_bond_site_symmetry_1
_geom_bond_site_symmetry_2
Br1 C12 1_555 1_555
H7 C10 1_555 1_555
C11 C10 1_555 1_555
H8 C11 1_555 1_555
C12 C11 1_555 1_555
C1 C2 1_555 1_555
C2 H1 1_555 1_555
C3 C2 1_555 1_555
H2 C3 1_555 1_555
C4 C3 1_555 1_555
C5 C4 1_555 1_555
H3 C5 1_555 1_555
C6 C1 1_555 1_555
H4 C6 1_555 1_555
C7 C4 1_555 1_555
N1 C1 1_555 1_555
C13 N1 1_555 1_555
C14 C13 1_555 1_555
H10 C14 1_555 1_555
C15 C14 1_555 1_555
H11 C15 1_555 1_555
C16 C15 1_555 1_555
C17 C16 1_555 1_555
H12 C17 1_555 1_555
C18 C13 1_555 1_555
H13 C18 1_555 1_555
C19 C16 1_555 1_555
H14 C19 1_555 1_555
N5 C19 1_555 1_555
Br2 C24 1_555 1_555
C20 C21 1_555 1_555
C21 H15 1_555 1_555
C22 C21 1_555 1_555
H16 C22 1_555 1_555
C23 C22 1_555 1_555
H17 C23 1_555 1_555
C24 C23 1_555 1_555
N6 N5 1_555 1_555
H18 N6 1_555 1_555
N7 C20 1_555 1_555
C25 N1 1_555 1_555
C26 C25 1_555 1_555
H19 C26 1_555 1_555
C27 C26 1_555 1_555
H20 C27 1_555 1_555
C28 C27 1_555 1_555
C29 C28 1_555 1_555
H21 C29 1_555 1_555
C30 C25 1_555 1_555
H22 C30 1_555 1_555
C31 C28 1_555 1_555
H23 C31 1_555 1_555
N8 C31 1_555 1_555
C32 C33 1_555 1_555
C33 H24 1_555 1_555
N9 N8 1_555 1_555
H27 N9 1_555 1_555
N10 C32 1_555 1_555
Ag2 N5 1_555 1_555
Ag3 N8 1_555 1_555
C37 C38 1_555 1_555
C38 H28 1_555 1_555
C39 C38 1_555 1_555
H29 C39 1_555 1_555
C40 C39 1_555 1_555
C41 C40 1_555 1_555
H30 C41 1_555 1_555
C42 C37 1_555 1_555
H31 C42 1_555 1_555
C43 C40 1_555 1_555
H32 C43 1_555 1_555
C44 C45 1_555 1_555
C45 H33 1_555 1_555
N11 C37 1_555 1_555
N12 C43 1_555 1_555
N13 C44 1_555 1_555
H36 N13 1_555 1_555
N14 C44 1_555 1_555
C49 N11 1_555 1_555
C50 C49 1_555 1_555
H37 C50 1_555 1_555
C51 C50 1_555 1_555
H38 C51 1_555 1_555
C52 C51 1_555 1_555
C53 C52 1_555 1_555
H39 C53 1_555 1_555
C54 C49 1_555 1_555
H40 C54 1_555 1_555
C55 C52 1_555 1_555
H41 C55 1_555 1_555
N15 C55 1_555 1_555
C56 C57 1_555 1_555
C57 H42 1_555 1_555
N16 N15 1_555 1_555
H45 N16 1_555 1_555
N17 C56 1_555 1_555
C61 N11 1_555 1_555
C62 C61 1_555 1_555
H46 C62 1_555 1_555
C63 C62 1_555 1_555
H47 C63 1_555 1_555
C64 C63 1_555 1_555
C65 C64 1_555 1_555
H48 C65 1_555 1_555
C66 C61 1_555 1_555
H49 C66 1_555 1_555
C67 C64 1_555 1_555
H50 C67 1_555 1_555
N18 Ag3 1_555 1_555
C68 C69 1_555 1_555
C69 H51 1_555 1_555
N19 N18 1_555 1_555
H54 N19 1_555 1_555
N20 Ag3 1_555 1_555
Ag4 N12 1_555 1_555
Ag5 N15 1_555 1_555
N21 Ag1 1_555 1_555
N22 Ag2 1_555 1_555
N23 Ag1 1_555 1_555
N24 Ag2 1_555 1_555
C5 C6 1_555 1_555
C17 C18 1_555 1_555
C20 N6 1_555 1_555
C24 N7 1_555 1_555
N7 Ag2 1_555 1_555
C29 C30 1_555 1_555
C32 N9 1_555 1_555
N10 Ag3 1_555 1_555
C41 C42 1_555 1_555
N12 N13 1_555 1_555
N14 Ag4 1_555 1_555
C53 C54 1_555 1_555
C56 N16 1_555 1_555
N17 Ag5 1_555 1_555
C65 C66 1_555 1_555
C67 N18 1_555 1_555
C68 N19 1_555 1_555
C68 N20 1_555 1_555
Br3 C36 1_555 1_555
H25 C34 1_555 1_555
C35 C34 1_555 1_555
H26 C35 1_555 1_555
C36 C35 1_555 1_555
Br6 C72 1_555 1_555
H52 C70 1_555 1_555
C71 C70 1_555 1_555
H53 C71 1_555 1_555
C72 C71 1_555 1_555
Ag1_2 N2 1_555 1_555
C8 C9 1_555 1_555
C9 H6 1_555 1_555
N3 C8 1_555 1_555
H9 N3 1_555 1_555
N4 Ag1_2 1_555 1_555
Br5 C60 1_555 1_555
H43 C58 1_555 1_555
C59 C58 1_555 1_555
H44 C59 1_555 1_555
C60 C59 1_555 1_555
C8 N4 1_555 1_555
N2 N3 1_555 1_555
Br4 C48 1_555 1_555
H34 C46 1_555 1_555
C47 C46 1_555 1_555
H35 C47 1_555 1_555
C48 C47 1_555 1_555
C56_2 C57_2 1_555 1_555
C57_2 H42_2 1_555 1_555
N16_2 N15_2 1_555 1_555
H45_2 N16_2 1_555 1_555
N17_2 C56_2 1_555 1_555
Ag5_2 N15_2 1_555 1_555
C56_2 N16_2 1_555 1_555
N17_2 Ag5_2 1_555 1_555
Br3_2 C36_2 1_555 1_555
C32_2 C33_2 1_555 1_555
C33_2 H24_2 1_555 1_555
C34_2 C33_2 1_555 1_555
H25_2 C34_2 1_555 1_555
C35_2 C34_2 1_555 1_555
H26_2 C35_2 1_555 1_555
C36_2 C35_2 1_555 1_555
N9_2 N8_2 1_555 1_555
H27_2 N9_2 1_555 1_555
N10_2 C32_2 1_555 1_555
Ag3_2 N8_2 1_555 1_555
Br4_2 C48_2 1_555 1_555
C37_2 C38_2 1_555 1_555
C38_2 H28_2 1_555 1_555
C39_2 C38_2 1_555 1_555
H29_2 C39_2 1_555 1_555
C40_2 C39_2 1_555 1_555
C41_2 C40_2 1_555 1_555
H30_2 C41_2 1_555 1_555
C42_2 C37_2 1_555 1_555
H31_2 C42_2 1_555 1_555
C43_2 C40_2 1_555 1_555
H32_2 C43_2 1_555 1_555
C44_2 C45_2 1_555 1_555
C45_2 H33_2 1_555 1_555
C46_2 C45_2 1_555 1_555
H34_2 C46_2 1_555 1_555
C47_2 C46_2 1_555 1_555
H35_2 C47_2 1_555 1_555
C48_2 C47_2 1_555 1_555
N11_2 C37_2 1_555 1_555
N12_2 C43_2 1_555 1_555
N13_2 C44_2 1_555 1_555
H36_2 N13_2 1_555 1_555
N14_2 C44_2 1_555 1_555
C49_2 N11_2 1_555 1_555
C50_2 C49_2 1_555 1_555
H37_2 C50_2 1_555 1_555
C51_2 C50_2 1_555 1_555
H38_2 C51_2 1_555 1_555
C52_2 C51_2 1_555 1_555
C53_2 C52_2 1_555 1_555
H39_2 C53_2 1_555 1_555
C54_2 C49_2 1_555 1_555
H40_2 C54_2 1_555 1_555
C55_2 C52_2 1_555 1_555
C61_2 N11_2 1_555 1_555
C62_2 C61_2 1_555 1_555
H46_2 C62_2 1_555 1_555
C63_2 C62_2 1_555 1_555
H47_2 C63_2 1_555 1_555
C64_2 C63_2 1_555 1_555
C65_2 C64_2 1_555 1_555
H48_2 C65_2 1_555 1_555
C66_2 C61_2 1_555 1_555
H49_2 C66_2 1_555 1_555
C67_2 C64_2 1_555 1_555
Ag4_2 N12_2 1_555 1_555
C32_2 N9_2 1_555 1_555
C36_2 N10_2 1_555 1_555
N10_2 Ag3_2 1_555 1_555
C41_2 C42_2 1_555 1_555
C48_2 N14_2 1_555 1_555
N12_2 N13_2 1_555 1_555
N14_2 Ag4_2 1_555 1_555
C53_2 C54_2 1_555 1_555
C65_2 C66_2 1_555 1_555
Ag1_3 N2_2 1_555 1_555
Br1_2 C12_2 1_555 1_555
C8_2 C9_2 1_555 1_555
C9_2 H6_2 1_555 1_555
C10_2 C9_2 1_555 1_555
H7_2 C10_2 1_555 1_555
C11_2 C10_2 1_555 1_555
H8_2 C11_2 1_555 1_555
C12_2 C11_2 1_555 1_555
N3_2 C8_2 1_555 1_555
H9_2 N3_2 1_555 1_555
N4_2 Ag1_3 1_555 1_555
C8_2 N4_2 1_555 1_555
C12_2 N4_2 1_555 1_555
N2_2 N3_2 1_555 1_555
Br2_2 C24_2 1_555 1_555
C20_2 C21_2 1_555 1_555
C21_2 H15_2 1_555 1_555
C22_2 C21_2 1_555 1_555
H16_2 C22_2 1_555 1_555
C23_2 C22_2 1_555 1_555
H17_2 C23_2 1_555 1_555
C24_2 C23_2 1_555 1_555
N6_2 N5_2 1_555 1_555
H18_2 N6_2 1_555 1_555
N7_2 C20_2 1_555 1_555
Ag2_2 N5_2 1_555 1_555
C20_2 N6_2 1_555 1_555
C24_2 N7_2 1_555 1_555
N7_2 Ag2_2 1_555 1_555
C1_2 C2_2 1_555 1_555
C2_2 H1_2 1_555 1_555
C3_2 C2_2 1_555 1_555
H2_2 C3_2 1_555 1_555
C4_2 C3_2 1_555 1_555
C5_2 C4_2 1_555 1_555
H3_2 C5_2 1_555 1_555
C6_2 C1_2 1_555 1_555
H4_2 C6_2 1_555 1_555
C7_2 C4_2 1_555 1_555
N1_2 C1_2 1_555 1_555
C13_2 N1_2 1_555 1_555
C14_2 C13_2 1_555 1_555
H10_2 C14_2 1_555 1_555
C15_2 C14_2 1_555 1_555
H11_2 C15_2 1_555 1_555
C16_2 C15_2 1_555 1_555
C17_2 C16_2 1_555 1_555
H12_2 C17_2 1_555 1_555
C18_2 C13_2 1_555 1_555
H13_2 C18_2 1_555 1_555
C19_2 C16_2 1_555 1_555
C25_2 N1_2 1_555 1_555
C26_2 C25_2 1_555 1_555
H19_2 C26_2 1_555 1_555
C27_2 C26_2 1_555 1_555
H20_2 C27_2 1_555 1_555
C28_2 C27_2 1_555 1_555
C29_2 C28_2 1_555 1_555
H21_2 C29_2 1_555 1_555
C30_2 C25_2 1_555 1_555
H22_2 C30_2 1_555 1_555
C31_2 C28_2 1_555 1_555
N18_2 Ag3_3 1_555 1_555
Br6_2 C72_2 1_555 1_555
C68_2 C69_2 1_555 1_555
C69_2 H51_2 1_555 1_555
C70_2 C69_2 1_555 1_555
H52_2 C70_2 1_555 1_555
C71_2 C70_2 1_555 1_555
H53_2 C71_2 1_555 1_555
C72_2 C71_2 1_555 1_555
N19_2 N18_2 1_555 1_555
H54_2 N19_2 1_555 1_555
N20_2 Ag3_3 1_555 1_555
N21_2 Ag1_4 1_555 1_555
N22_2 Ag2_3 1_555 1_555
N23_2 Ag1_4 1_555 1_555
N24_2 Ag2_3 1_555 1_555
C5_2 C6_2 1_555 1_555
C17_2 C18_2 1_555 1_555
C29_2 C30_2 1_555 1_555
C68_2 N19_2 1_555 1_555
C68_2 N20_2 1_555 1_555
C72_2 N20_2 1_555 1_555
C44_3 C45_3 1_555 1_555
C45_3 H33_3 1_555 1_555
N13_3 C44_3 1_555 1_555
H36_3 N13_3 1_555 1_555
N23 C44_3 1_555 1_555
N21 N13_3 1_555 1_555
Ag4 N2_3 1_555 1_555
C1_3 C2_3 1_555 1_555
C2_3 H1_3 1_555 1_555
C3_3 C2_3 1_555 1_555
H2_3 C3_3 1_555 1_555
C4_3 C3_3 1_555 1_555
C5_3 C4_3 1_555 1_555
H3_3 C5_3 1_555 1_555
C6_3 C1_3 1_555 1_555
H4_3 C6_3 1_555 1_555
C7_3 C4_3 1_555 1_555
H5_3 C7_3 1_555 1_555
C8_3 C9_3 1_555 1_555
C9_3 H6_3 1_555 1_555
N1_3 C1_3 1_555 1_555
N2_3 C7_3 1_555 1_555
N3_3 C8_3 1_555 1_555
H9_3 N3_3 1_555 1_555
N4_3 Ag4 1_555 1_555
C13_3 N1_3 1_555 1_555
C14_3 C13_3 1_555 1_555
H10_3 C14_3 1_555 1_555
C15_3 C14_3 1_555 1_555
H11_3 C15_3 1_555 1_555
C16_3 C15_3 1_555 1_555
C17_3 C16_3 1_555 1_555
H12_3 C17_3 1_555 1_555
C18_3 C13_3 1_555 1_555
H13_3 C18_3 1_555 1_555
C19_3 C16_3 1_555 1_555
C25_3 N1_3 1_555 1_555
C26_3 C25_3 1_555 1_555
H19_3 C26_3 1_555 1_555
C27_3 C26_3 1_555 1_555
H20_3 C27_3 1_555 1_555
C28_3 C27_3 1_555 1_555
C29_3 C28_3 1_555 1_555
H21_3 C29_3 1_555 1_555
C30_3 C25_3 1_555 1_555
H22_3 C30_3 1_555 1_555
C31_3 C28_3 1_555 1_555
H23_3 C31_3 1_555 1_555
N8_3 C31_3 1_555 1_555
Br3_3 C36_3 1_555 1_555
C32_3 C33_3 1_555 1_555
C33_3 H24_3 1_555 1_555
C34_3 C33_3 1_555 1_555
H25_3 C34_3 1_555 1_555
C35_3 C34_3 1_555 1_555
H26_3 C35_3 1_555 1_555
C36_3 C35_3 1_555 1_555
N9_3 N8_3 1_555 1_555
H27_3 N9_3 1_555 1_555
N10_3 C32_3 1_555 1_555
Ag3_4 N8_3 1_555 1_555
C37_3 C38_3 1_555 1_555
C38_3 H28_3 1_555 1_555
C39_3 C38_3 1_555 1_555
H29_3 C39_3 1_555 1_555
C40_3 C39_3 1_555 1_555
C41_3 C40_3 1_555 1_555
H30_3 C41_3 1_555 1_555
C42_3 C37_3 1_555 1_555
H31_3 C42_3 1_555 1_555
C43_3 C40_3 1_555 1_555
N11_3 C37_3 1_555 1_555
C49_3 N11_3 1_555 1_555
C50_3 C49_3 1_555 1_555
H37_3 C50_3 1_555 1_555
C51_3 C50_3 1_555 1_555
H38_3 C51_3 1_555 1_555
C52_3 C51_3 1_555 1_555
C53_3 C52_3 1_555 1_555
H39_3 C53_3 1_555 1_555
C54_3 C49_3 1_555 1_555
H40_3 C54_3 1_555 1_555
C55_3 C52_3 1_555 1_555
C61_3 N11_3 1_555 1_555
C62_3 C61_3 1_555 1_555
H46_3 C62_3 1_555 1_555
C63_3 C62_3 1_555 1_555
H47_3 C63_3 1_555 1_555
C64_3 C63_3 1_555 1_555
C65_3 C64_3 1_555 1_555
H48_3 C65_3 1_555 1_555
C66_3 C61_3 1_555 1_555
H49_3 C66_3 1_555 1_555
C67_3 C64_3 1_555 1_555
H50_3 C67_3 1_555 1_555
N18_3 Ag3_4 1_555 1_555
Br6_3 C72_3 1_555 1_555
C68_3 C69_3 1_555 1_555
C69_3 H51_3 1_555 1_555
C70_3 C69_3 1_555 1_555
H52_3 C70_3 1_555 1_555
C71_3 C70_3 1_555 1_555
H53_3 C71_3 1_555 1_555
C72_3 C71_3 1_555 1_555
N19_3 N18_3 1_555 1_555
H54_3 N19_3 1_555 1_555
N20_3 Ag3_4 1_555 1_555
C5_3 C6_3 1_555 1_555
C8_3 N4_3 1_555 1_555
N2_3 N3_3 1_555 1_555
C17_3 C18_3 1_555 1_555
C29_3 C30_3 1_555 1_555
C32_3 N9_3 1_555 1_555
C36_3 N10_3 1_555 1_555
N10_3 Ag3_4 1_555 1_555
C41_3 C42_3 1_555 1_555
C53_3 C54_3 1_555 1_555
C65_3 C66_3 1_555 1_555
C67_3 N18_3 1_555 1_555
C68_3 N19_3 1_555 1_555
C68_3 N20_3 1_555 1_555
C72_3 N20_3 1_555 1_555
C20_3 C21_3 1_555 1_555
C21_3 H15_3 1_555 1_555
N6_3 N5_3 1_555 1_555
H18_3 N6_3 1_555 1_555
N7_3 C20_3 1_555 1_555
Ag5_3 N5_3 1_555 1_555
Br5_2 C60_2 1_555 1_555
C56_3 C57_3 1_555 1_555
C57_3 H42_3 1_555 1_555
C58_2 C57_3 1_555 1_555
H43_2 C58_2 1_555 1_555
C59_2 C58_2 1_555 1_555
H44_2 C59_2 1_555 1_555
C60_2 C59_2 1_555 1_555
N16_3 N22_2 1_555 1_555
H45_3 N16_3 1_555 1_555
N24_2 C56_3 1_555 1_555
C20_3 N6_3 1_555 1_555
N7_3 Ag5_3 1_555 1_555
C56_3 N16_3 1_555 1_555
C60_2 N24_2 1_555 1_555
Br1_3 C12_3 1_555 1_555
H7_3 C10_3 1_555 1_555
C11_3 C10_3 1_555 1_555
H8_3 C11_3 1_555 1_555
C12_3 C11_3 1_555 1_555
Ag4_2 N2_4 1_555 1_555
Br1_4 C12_4 1_555 1_555
C1_4 C2_4 1_555 1_555
C2_4 H1_4 1_555 1_555
C3_4 C2_4 1_555 1_555
H2_4 C3_4 1_555 1_555
C4_4 C3_4 1_555 1_555
C5_4 C4_4 1_555 1_555
H3_4 C5_4 1_555 1_555
C6_4 C1_4 1_555 1_555
H4_4 C6_4 1_555 1_555
C7_4 C4_4 1_555 1_555
H5_4 C7_4 1_555 1_555
C8_4 C9_4 1_555 1_555
C9_4 H6_4 1_555 1_555
C10_4 C9_4 1_555 1_555
H7_4 C10_4 1_555 1_555
C11_4 C10_4 1_555 1_555
H8_4 C11_4 1_555 1_555
C12_4 C11_4 1_555 1_555
N1_4 C1_4 1_555 1_555
N2_4 C7_4 1_555 1_555
N3_4 C8_4 1_555 1_555
H9_4 N3_4 1_555 1_555
N4_4 Ag4_2 1_555 1_555
C13_4 N1_4 1_555 1_555
C14_4 C13_4 1_555 1_555
H10_4 C14_4 1_555 1_555
C15_4 C14_4 1_555 1_555
H11_4 C15_4 1_555 1_555
C16_4 C15_4 1_555 1_555
C17_4 C16_4 1_555 1_555
H12_4 C17_4 1_555 1_555
C18_4 C13_4 1_555 1_555
H13_4 C18_4 1_555 1_555
C19_4 C16_4 1_555 1_555
H14_4 C19_4 1_555 1_555
N5_4 C19_4 1_555 1_555
C20_4 C21_4 1_555 1_555
C21_4 H15_4 1_555 1_555
N6_4 N5_4 1_555 1_555
H18_4 N6_4 1_555 1_555
N7_4 C20_4 1_555 1_555
C25_4 N1_4 1_555 1_555
C26_4 C25_4 1_555 1_555
H19_4 C26_4 1_555 1_555
C27_4 C26_4 1_555 1_555
H20_4 C27_4 1_555 1_555
C28_4 C27_4 1_555 1_555
C29_4 C28_4 1_555 1_555
H21_4 C29_4 1_555 1_555
C30_4 C25_4 1_555 1_555
H22_4 C30_4 1_555 1_555
C31_4 C28_4 1_555 1_555
Ag5 N5_4 1_555 1_555
N18_4 Ag3_5 1_555 1_555
C68_4 C69_4 1_555 1_555
C69_4 H51_4 1_555 1_555
N19_4 N18_4 1_555 1_555
H54_4 N19_4 1_555 1_555
N20_4 Ag3_5 1_555 1_555
C5_4 C6_4 1_555 1_555
C8_4 N4_4 1_555 1_555
C12_4 N4_4 1_555 1_555
N2_4 N3_4 1_555 1_555
C17_4 C18_4 1_555 1_555
C20_4 N6_4 1_555 1_555
N7_4 Ag5 1_555 1_555
C29_4 C30_4 1_555 1_555
C68_4 N19_4 1_555 1_555
C68_4 N20_4 1_555 1_555
Br2_3 C24_3 1_555 1_555
H16_3 C22_3 1_555 1_555
C23_3 C22_3 1_555 1_555
H17_3 C23_3 1_555 1_555
C24_3 C23_3 1_555 1_555
C32_4 C33_4 1_555 1_555
C33_4 H24_4 1_555 1_555
N9_4 N8_4 1_555 1_555
H27_4 N9_4 1_555 1_555
N10_4 C32_4 1_555 1_555
Ag3_6 N8_4 1_555 1_555
C37_4 C38_4 1_555 1_555
C38_4 H28_4 1_555 1_555
C39_4 C38_4 1_555 1_555
H29_4 C39_4 1_555 1_555
C40_4 C39_4 1_555 1_555
C41_4 C40_4 1_555 1_555
H30_4 C41_4 1_555 1_555
C42_4 C37_4 1_555 1_555
H31_4 C42_4 1_555 1_555
C43_4 C40_4 1_555 1_555
N11_4 C37_4 1_555 1_555
C49_4 N11_4 1_555 1_555
C50_4 C49_4 1_555 1_555
H37_4 C50_4 1_555 1_555
C51_4 C50_4 1_555 1_555
H38_4 C51_4 1_555 1_555
C52_4 C51_4 1_555 1_555
C53_4 C52_4 1_555 1_555
H39_4 C53_4 1_555 1_555
C54_4 C49_4 1_555 1_555
H40_4 C54_4 1_555 1_555
C55_4 C52_4 1_555 1_555
H41_4 C55_4 1_555 1_555
N22 C55_4 1_555 1_555
Br5_3 C60_3 1_555 1_555
C56_4 C57_4 1_555 1_555
C57_4 H42_4 1_555 1_555
C58_3 C57_4 1_555 1_555
H43_3 C58_3 1_555 1_555
C59_3 C58_3 1_555 1_555
H44_3 C59_3 1_555 1_555
C60_3 C59_3 1_555 1_555
N16_4 N22 1_555 1_555
H45_4 N16_4 1_555 1_555
N24 C56_4 1_555 1_555
C61_4 N11_4 1_555 1_555
C62_4 C61_4 1_555 1_555
H46_4 C62_4 1_555 1_555
C63_4 C62_4 1_555 1_555
H47_4 C63_4 1_555 1_555
C64_4 C63_4 1_555 1_555
C65_4 C64_4 1_555 1_555
H48_4 C65_4 1_555 1_555
C66_4 C61_4 1_555 1_555
H49_4 C66_4 1_555 1_555
C67_4 C64_4 1_555 1_555
C32_4 N9_4 1_555 1_555
N10_4 Ag3_6 1_555 1_555
C41_4 C42_4 1_555 1_555
C53_4 C54_4 1_555 1_555
C56_4 N16_4 1_555 1_555
C60_3 N24 1_555 1_555
C65_4 C66_4 1_555 1_555
Br4_3 C48_3 1_555 1_555
C44_4 C45_4 1_555 1_555
C45_4 H33_4 1_555 1_555
C46_3 C45_4 1_555 1_555
H34_3 C46_3 1_555 1_555
C47_3 C46_3 1_555 1_555
H35_3 C47_3 1_555 1_555
C48_3 C47_3 1_555 1_555
N13_4 C44_4 1_555 1_555
H36_4 N13_4 1_555 1_555
N23_2 C44_4 1_555 1_555
C48_3 N23_2 1_555 1_555
N21_2 N13_4 1_555 1_555
Br5_4 C60_4 1_555 1_555
H43_4 C58_4 1_555 1_555
C59_4 C58_4 1_555 1_555
H44_4 C59_4 1_555 1_555
C60_4 C59_4 1_555 1_555
Br4_4 C48_4 1_555 1_555
H34_4 C46_4 1_555 1_555
C47_4 C46_4 1_555 1_555
H35_4 C47_4 1_555 1_555
C48_4 C47_4 1_555 1_555
Br2_4 C24_4 1_555 1_555
H16_4 C22_4 1_555 1_555
C23_4 C22_4 1_555 1_555
H17_4 C23_4 1_555 1_555
C24_4 C23_4 1_555 1_555
Br6_4 C72_4 1_555 1_555
H52_4 C70_4 1_555 1_555
C71_4 C70_4 1_555 1_555
H53_4 C71_4 1_555 1_555
C72_4 C71_4 1_555 1_555
Br3_4 C36_4 1_555 1_555
H25_4 C34_4 1_555 1_555
C35_4 C34_4 1_555 1_555
H26_4 C35_4 1_555 1_555
C36_4 C35_4 1_555 1_555
Cl1 O1 1_555 1_555
O2 Cl1 1_555 1_555
O3 Cl1_2 1_555 1_555
O4 Cl1_2 1_555 1_555
Cl1_3 O1_2 1_555 1_555
O2_2 Cl1_3 1_555 1_555
O3_2 Cl1_3 1_555 1_555
O4_2 Cl1_3 1_555 1_555
Cl1_4 O1_3 1_555 1_555
O2_3 Cl1_4 1_555 1_555
O3_3 Cl1_4 1_555 1_555
O4_3 Cl1_4 1_555 1_555
O3_4 Cl1_5 1_555 1_555
O4_4 Cl1_5 1_555 1_555
Cl1_6 O1_4 1_555 1_555
O2_4 Cl1_6 1_555 1_555
Cl1_7 O1_5 1_555 1_555
O2_5 Cl1_7 1_555 1_555
O3_5 Cl1_8 1_555 1_555
O4_5 Cl1_8 1_555 1_555
Cl1_9 O1_6 1_555 1_555
O2_6 Cl1_9 1_555 1_555
O3_6 Cl1_9 1_555 1_555
O4_6 Cl1_9 1_555 1_555
Cl1_10 O1_7 1_555 1_555
O2_7 Cl1_10 1_555 1_555
O3_7 Cl1_10 1_555 1_555
O4_7 Cl1_10 1_555 1_555
O3_8 Cl1_11 1_555 1_555
O4_8 Cl1_11 1_555 1_555
Cl1_12 O1_8 1_555 1_555
O2_8 Cl1_12 1_555 1_555
Cl1_13 O1_9 1_555 1_555
O2_9 Cl1_13 1_555 1_555
O3_9 Cl1_14 1_555 1_555
O4_9 Cl1_14 1_555 1_555
Cl1_15 O1_10 1_555 1_555
O2_10 Cl1_15 1_555 1_555
O3_10 Cl1_15 1_555 1_555
O4_10 Cl1_15 1_555 1_555
Cl1_16 O1_11 1_555 1_555
O2_11 Cl1_16 1_555 1_555
O3_11 Cl1_16 1_555 1_555
O4_11 Cl1_16 1_555 1_555
O3_12 Cl1_17 1_555 1_555
O4_12 Cl1_17 1_555 1_555
Cl1_18 O1_12 1_555 1_555
O2_12 Cl1_18 1_555 1_555

#END
