
###############################################################################
#
# This file contains modified crystal structure data generated from the
# MOF subset of the Cambridge Structural Database (CSD) v543 
# hosted by the Cambridge Crystallographic Data Centre (CCDC).
#
# This work is licensed under the Creative Commons
# Attribution-NonCommercial-ShareAlike 4.0 International License.
# To view a copy of this license, visit
# http://creativecommons.org/licenses/by-nc-sa/4.0/
# or send a letter to
# Creative Commons, PO Box 1866, Mountain View, CA 94042, USA.
#
# CIF created using the CSD Python API on 29 September 2022
# The structure has been converted into the P1 space group
# The structure has a 3D framework
# The original CSD entry KENYAG is in the cubic crystal system
# The original CSD entry KENYAG is in a Sohncke space group
# The framework has been calculated to contain at least 10.0% void space
# The void calculation uses a probe of radius 1.32A, grid spacing 0.4
# The framework is charged, counterions have been retained in the structure
#
###############################################################################

data_KENYAG
_chemical_formula_moiety         '(C288 H240 Ag14 Cl18 N80 O48 2+)n'
_symmetry_cell_setting           triclinic
_symmetry_space_group_name_H-M   'P 1'
_symmetry_Int_Tables_number      1
_space_group_name_Hall           'P 1'
loop_
_symmetry_equiv_pos_site_id
_symmetry_equiv_pos_as_xyz
1 x,y,z
_cell_length_a                   21.5496(3)
_cell_length_b                   21.5496(3)
_cell_length_c                   21.5496(3)
_cell_angle_alpha                90
_cell_angle_beta                 90
_cell_angle_gamma                90
_cell_volume                     10007.3
loop_
_atom_site_label
_atom_site_type_symbol
_atom_site_fract_x
_atom_site_fract_y
_atom_site_fract_z
Cl1 Cl 0.55614(8) 0.5000 0.7500
O1 O 0.5233(3) 0.5482(2) 0.7229(2)
O2 O 0.5920(2) 0.5266(2) 0.7966(4)
O3 O 0.5233(3) 0.4518(2) 0.7771(2)
O4 O 0.5920(2) 0.4734(2) 0.7034(4)
Cl1_2 Cl 0.94386(8) 0.5000 0.2500
O1_2 O 0.9767(3) 0.4518(2) 0.2229(2)
O2_2 O 0.9080(2) 0.4734(2) 0.2966(4)
O3_2 O 0.9767(3) 0.5482(2) 0.2771(2)
O4_2 O 0.9080(2) 0.5266(2) 0.2034(4)
Cl1_3 Cl 0.44386(8) -0.0000 0.7500
O1_3 O 0.4767(3) 0.0482(2) 0.7771(2)
O2_3 O 0.4080(2) 0.0266(2) 0.7034(4)
Cl1_4 Cl 0.44386(8) 1.0000 0.7500
O3_3 O 0.4767(3) 0.9518(2) 0.7229(2)
O4_3 O 0.4080(2) 0.9734(2) 0.7966(4)
Cl1_5 Cl 0.05614(8) 0.0000 0.2500
O3_4 O 0.0233(3) 0.0482(2) 0.2229(2)
O4_4 O 0.0920(2) 0.0266(2) 0.2966(4)
Cl1_6 Cl 0.05614(8) 1.0000 0.2500
O1_4 O 0.0233(3) 0.9518(2) 0.2771(2)
O2_4 O 0.0920(2) 0.9734(2) 0.2034(4)
Cl1_7 Cl 0.7500 0.55614(8) 0.5000
O1_5 O 0.7229(2) 0.5233(3) 0.5482(2)
O2_5 O 0.7966(4) 0.5920(2) 0.5266(2)
O3_5 O 0.7771(2) 0.5233(3) 0.4518(2)
O4_5 O 0.7034(4) 0.5920(2) 0.4734(2)
Cl1_8 Cl 0.2500 0.94386(8) 0.5000
O1_6 O 0.2229(2) 0.9767(3) 0.4518(2)
O2_6 O 0.2966(4) 0.9080(2) 0.4734(2)
O3_6 O 0.2771(2) 0.9767(3) 0.5482(2)
O4_6 O 0.2034(4) 0.9080(2) 0.5266(2)
Cl1_9 Cl 0.7500 0.44386(8) -0.0000
O1_7 O 0.7771(2) 0.4767(3) 0.0482(2)
O2_7 O 0.7034(4) 0.4080(2) 0.0266(2)
Cl1_10 Cl 0.7500 0.44386(8) 1.0000
O3_7 O 0.7229(2) 0.4767(3) 0.9518(2)
O4_7 O 0.7966(4) 0.4080(2) 0.9734(2)
Cl1_11 Cl 0.2500 0.05614(8) 0.0000
O3_8 O 0.2229(2) 0.0233(3) 0.0482(2)
O4_8 O 0.2966(4) 0.0920(2) 0.0266(2)
Cl1_12 Cl 0.2500 0.05614(8) 1.0000
O1_8 O 0.2771(2) 0.0233(3) 0.9518(2)
O2_8 O 0.2034(4) 0.0920(2) 0.9734(2)
Cl1_13 Cl 0.5000 0.7500 0.55614(8)
O1_9 O 0.5482(2) 0.7229(2) 0.5233(3)
O2_9 O 0.5266(2) 0.7966(4) 0.5920(2)
O3_9 O 0.4518(2) 0.7771(2) 0.5233(3)
O4_9 O 0.4734(2) 0.7034(4) 0.5920(2)
Cl1_14 Cl 0.5000 0.2500 0.94386(8)
O1_10 O 0.4518(2) 0.2229(2) 0.9767(3)
O2_10 O 0.4734(2) 0.2966(4) 0.9080(2)
O3_10 O 0.5482(2) 0.2771(2) 0.9767(3)
O4_10 O 0.5266(2) 0.2034(4) 0.9080(2)
Cl1_15 Cl -0.0000 0.7500 0.44386(8)
O1_11 O 0.0482(2) 0.7771(2) 0.4767(3)
O2_11 O 0.0266(2) 0.7034(4) 0.4080(2)
Cl1_16 Cl 1.0000 0.7500 0.44386(8)
O3_11 O 0.9518(2) 0.7229(2) 0.4767(3)
O4_11 O 0.9734(2) 0.7966(4) 0.4080(2)
Cl1_17 Cl 0.0000 0.2500 0.05614(8)
O3_12 O 0.0482(2) 0.2229(2) 0.0233(3)
O4_12 O 0.0266(2) 0.2966(4) 0.0920(2)
Cl1_18 Cl 1.0000 0.2500 0.05614(8)
O1_12 O 0.9518(2) 0.2771(2) 0.0233(3)
O2_12 O 0.9734(2) 0.2034(4) 0.0920(2)
N8 N 0.37370(17) 0.01224(16) 0.16775(16)
H25 H 0.2915 0.0177 0.1388
N9 N 0.3902(2) 0.06297(19) 0.13396(19)
H26 H 0.3647 0.0772 0.1067
C32 C 0.4451(2) 0.0915(2) 0.1418(2)
C33 C 0.5172(3) 0.1660(4) 0.1051(3)
H27 H 0.5316 0.1923 0.0741
C34 C 0.5352(3) 0.1111(4) 0.2003(4)
H28 H 0.5584 0.1030 0.2358
C35 C 0.4635(3) 0.1385(3) 0.0992(3)
H29 H 0.4372 0.1497 0.0669
N10 N 0.48083(18) 0.0773(2) 0.1892(2)
C36 C 0.5543(3) 0.1550(4) 0.1606(5)
H30 H 0.5901 0.1778 0.1682
Ag3 Ag 0.45170(3) -0.0000 0.2500
Ag1 Ag 0.2500 0.54830(3) 0.5000
N1 N 0.33225(16) 0.62630(17) 0.51224(16)
N2 N 0.2194(2) 0.7806(2) 0.2806(2)
C1 C 0.2533(2) 0.69129(18) 0.34129(19)
H1 H 0.2366 0.6650 0.3114
C2 C 0.3028(2) 0.7685(2) 0.43020(19)
H2 H 0.3208 0.7947 0.4594
C3 C 0.2496(2) 0.7548(2) 0.33391(18)
C4 C 0.2736(2) 0.7933(2) 0.3810(2)
H3 H 0.2691 0.8361 0.3781
C5 C 0.28154(19) 0.6671(2) 0.3923(2)
H4 H 0.2839 0.6242 0.3964
C6 C 0.33724(19) 0.6812(2) 0.4944(2)
H5 H 0.3612 0.7085 0.5177
C7 C 0.30688(18) 0.7039(2) 0.43850(19)
N3 N 0.36604(19) 0.6098(2) 0.56297(19)
H6 H 0.3933 0.6353 0.5772
C8 C 0.3582(2) 0.5549(2) 0.5915(2)
C9 C 0.3949(3) 0.4828(3) 0.6660(4)
H7 H 0.4259 0.4684 0.6923
C10 C 0.2997(4) 0.4648(3) 0.6111(4)
H8 H 0.2642 0.4416 0.6030
C11 C 0.4008(3) 0.5365(3) 0.6385(3)
H9 H 0.4331 0.5628 0.6497
N4 N 0.3108(2) 0.51917(18) 0.5773(2)
C12 C 0.3394(5) 0.4457(3) 0.6550(4)
H10 H 0.3318 0.4099 0.6778
C13 C 0.15871(19) 0.7467(2) 0.19129(18)
H11 H 0.1886 0.7634 0.1650
C14 C 0.06980(19) 0.6972(2) 0.2685(2)
H12 H 0.0406 0.6792 0.2947
C15 C 0.16609(18) 0.7504(2) 0.2548(2)
C16 C 0.1190(2) 0.7264(2) 0.2933(2)
H13 H 0.1219 0.7309 0.3361
C17 C 0.1077(2) 0.71846(19) 0.1671(2)
H14 H 0.1036 0.7161 0.1242
C18 C 0.0056(2) 0.66276(19) 0.1812(2)
C19 C 0.06150(19) 0.69312(18) 0.2039(2)
C25 C 0.30871(18) 0.84129(19) 0.2467(2)
H21 H 0.3350 0.8114 0.2634
C26 C 0.2315(2) 0.93020(19) 0.1972(2)
H22 H 0.2053 0.9594 0.1792
C27 C 0.2452(2) 0.83391(18) 0.2504(2)
C28 C 0.2067(2) 0.8810(2) 0.2264(2)
H23 H 0.1639 0.8781 0.2309
C29 C 0.3329(2) 0.8923(2) 0.21846(19)
H24 H 0.3758 0.8964 0.2161
C30 C 0.3188(2) 0.9944(2) 0.16276(19)
C31 C 0.2961(2) 0.93850(19) 0.19312(18)
Ag2 Ag 0.0000 0.7500 0.04830(3)
Ag3_2 Ag 0.45170(3) 1.0000 0.2500
N15 N 0.01224(16) 0.83225(16) 0.12630(17)
H45 H 0.0177 0.8612 0.2085
N16 N 0.06297(19) 0.86604(19) 0.1098(2)
H46 H 0.0772 0.8933 0.1353
C56 C 0.0915(2) 0.8582(2) 0.0549(2)
C59 C 0.1385(3) 0.9008(3) 0.0365(3)
H49 H 0.1497 0.9331 0.0628
N17 N 0.0773(2) 0.8108(2) 0.01917(18)
N21 N 0.16775(16) 0.62630(17) 0.48776(16)
N22 N 0.37370(17) 0.98776(16) 0.33225(16)
N23 N 0.1892(2) 0.51917(18) 0.4227(2)
N24 N 0.48083(18) 0.9227(2) 0.3108(2)
C45 C 0.6051(3) 0.0172(3) 0.6660(4)
H37 H 0.5741 0.0316 0.6923
C46 C 0.7003(4) 0.0352(3) 0.6111(4)
H38 H 0.7358 0.0584 0.6030
C48 C 0.6606(5) 0.0543(3) 0.6550(4)
H40 H 0.6682 0.0901 0.6778
N5 N 0.98776(16) 0.66775(16) 0.12630(17)
H15 H 0.9823 0.6388 0.2085
N6 N 0.93703(19) 0.63396(19) 0.1098(2)
H16 H 0.9228 0.6067 0.1353
C20 C 0.9085(2) 0.6418(2) 0.0549(2)
C23 C 0.8615(3) 0.5992(3) 0.0365(3)
H19 H 0.8503 0.5669 0.0628
N7 N 0.9227(2) 0.6892(2) 0.01917(18)
Ag2_2 Ag 1.0000 0.7500 0.04830(3)
N11 N 0.66775(16) 0.87370(17) 0.51224(16)
N12 N 0.7806(2) 0.7194(2) 0.2806(2)
C37 C 0.7467(2) 0.80871(18) 0.34129(19)
H31 H 0.7634 0.8350 0.3114
C38 C 0.6972(2) 0.7315(2) 0.43020(19)
H32 H 0.6792 0.7053 0.4594
C39 C 0.7504(2) 0.7452(2) 0.33391(18)
C40 C 0.7264(2) 0.7067(2) 0.3810(2)
H33 H 0.7309 0.6639 0.3781
C41 C 0.71846(19) 0.8329(2) 0.3923(2)
H34 H 0.7161 0.8758 0.3964
C42 C 0.66276(19) 0.8188(2) 0.4944(2)
H35 H 0.6388 0.7915 0.5177
C43 C 0.69312(18) 0.7961(2) 0.43850(19)
N13 N 0.63396(19) 0.8902(2) 0.56297(19)
H36 H 0.6067 0.8647 0.5772
C44 C 0.6418(2) 0.9451(2) 0.5915(2)
C47 C 0.5992(3) 0.9635(3) 0.6385(3)
H39 H 0.5669 0.9372 0.6497
N14 N 0.6892(2) 0.98083(18) 0.5773(2)
C49 C 0.84129(19) 0.7533(2) 0.19129(18)
H41 H 0.8114 0.7366 0.1650
C50 C 0.93020(19) 0.8028(2) 0.2685(2)
H42 H 0.9594 0.8208 0.2947
C51 C 0.83391(18) 0.7496(2) 0.2548(2)
C52 C 0.8810(2) 0.7736(2) 0.2933(2)
H43 H 0.8781 0.7691 0.3361
C53 C 0.8923(2) 0.78154(19) 0.1671(2)
H44 H 0.8964 0.7839 0.1242
C54 C 0.9944(2) 0.83724(19) 0.1812(2)
C55 C 0.93850(19) 0.80688(18) 0.2039(2)
N18 N 0.62630(17) 0.48776(16) 0.16775(16)
C61 C 0.69129(18) 0.65871(19) 0.2467(2)
H51 H 0.6650 0.6886 0.2634
C62 C 0.7685(2) 0.56980(19) 0.1972(2)
H52 H 0.7947 0.5406 0.1792
C63 C 0.7548(2) 0.66609(18) 0.2504(2)
C64 C 0.7933(2) 0.6190(2) 0.2264(2)
H53 H 0.8361 0.6219 0.2309
C65 C 0.6671(2) 0.6077(2) 0.21846(19)
H54 H 0.6242 0.6036 0.2161
C66 C 0.6812(2) 0.5056(2) 0.16276(19)
H55 H 0.7085 0.4823 0.1388
C67 C 0.7039(2) 0.56150(19) 0.19312(18)
N19 N 0.6098(2) 0.43703(19) 0.13396(19)
H56 H 0.6353 0.4228 0.1067
C68 C 0.5549(2) 0.4085(2) 0.1418(2)
C69 C 0.4828(3) 0.3340(4) 0.1051(3)
H57 H 0.4684 0.3077 0.0741
C70 C 0.4648(3) 0.3889(4) 0.2003(4)
H58 H 0.4416 0.3970 0.2358
C71 C 0.5365(3) 0.3615(3) 0.0992(3)
H59 H 0.5628 0.3503 0.0669
N20 N 0.51917(18) 0.4227(2) 0.1892(2)
C72 C 0.4457(3) 0.3450(4) 0.1606(5)
H60 H 0.4099 0.3222 0.1682
Ag4 Ag 0.7500 0.95170(3) 0.5000
Ag5 Ag 0.54830(3) 0.5000 0.2500
C69_2 C 0.0172(3) 0.6660(4) 0.6051(3)
H57_2 H 0.0316 0.6923 0.5741
C70_2 C 0.0352(3) 0.6111(4) 0.7003(4)
H58_2 H 0.0584 0.6030 0.7358
C72_2 C 0.0543(3) 0.6550(4) 0.6606(5)
H60_2 H 0.0901 0.6778 0.6682
Ag1_2 Ag 0.2500 0.45170(3) -0.0000
N1_2 N 0.16775(16) 0.37370(17) 0.01224(16)
H5_2 H 0.1388 0.2915 0.0177
N3_2 N 0.13396(19) 0.3902(2) 0.06297(19)
H6_2 H 0.1067 0.3647 0.0772
C8_2 C 0.1418(2) 0.4451(2) 0.0915(2)
C9_2 C 0.1051(3) 0.5172(3) 0.1660(4)
H7_2 H 0.0741 0.5316 0.1923
C10_2 C 0.2003(4) 0.5352(3) 0.1111(4)
H8_2 H 0.2358 0.5584 0.1030
C11_2 C 0.0992(3) 0.4635(3) 0.1385(3)
H9_2 H 0.0669 0.4372 0.1497
N4_2 N 0.1892(2) 0.48083(18) 0.0773(2)
C12_2 C 0.1606(5) 0.5543(3) 0.1550(4)
H10_2 H 0.1682 0.5901 0.1778
N11_2 N 0.83225(16) 0.12630(17) 0.01224(16)
H35_2 H 0.8612 0.2085 0.0177
N13_2 N 0.86604(19) 0.1098(2) 0.06297(19)
H36_2 H 0.8933 0.1353 0.0772
C44_2 C 0.8582(2) 0.0549(2) 0.0915(2)
C47_2 C 0.9008(3) 0.0365(3) 0.1385(3)
H39_2 H 0.9331 0.0628 0.1497
N14_2 N 0.8108(2) 0.01917(18) 0.0773(2)
Ag4_2 Ag 0.7500 0.04830(3) -0.0000
Ag1_3 Ag 0.2500 0.45170(3) 1.0000
N2_2 N 0.2806(2) 0.2194(2) 0.7806(2)
C1_2 C 0.2467(2) 0.30871(18) 0.84129(19)
H1_2 H 0.2634 0.3350 0.8114
C2_2 C 0.1972(2) 0.2315(2) 0.93020(19)
H2_2 H 0.1792 0.2053 0.9594
C3_2 C 0.2504(2) 0.2452(2) 0.83391(18)
C4_2 C 0.2264(2) 0.2067(2) 0.8810(2)
H3_2 H 0.2309 0.1639 0.8781
C5_2 C 0.21846(19) 0.3329(2) 0.8923(2)
H4_2 H 0.2161 0.3758 0.8964
C6_2 C 0.16276(19) 0.3188(2) 0.9944(2)
C7_2 C 0.19312(18) 0.2961(2) 0.93850(19)
N5_2 N 0.51224(16) 0.33225(16) 0.62630(17)
C13_2 C 0.34129(19) 0.2533(2) 0.69129(18)
H11_2 H 0.3114 0.2366 0.6650
C14_2 C 0.43020(19) 0.3028(2) 0.7685(2)
H12_2 H 0.4594 0.3208 0.7947
C15_2 C 0.33391(18) 0.2496(2) 0.7548(2)
C16_2 C 0.3810(2) 0.2736(2) 0.7933(2)
H13_2 H 0.3781 0.2691 0.8361
C17_2 C 0.3923(2) 0.28154(19) 0.6671(2)
H14_2 H 0.3964 0.2839 0.6242
C18_2 C 0.4944(2) 0.33724(19) 0.6812(2)
H15_2 H 0.5177 0.3612 0.7085
C19_2 C 0.43850(19) 0.30688(18) 0.7039(2)
N6_2 N 0.56297(19) 0.36604(19) 0.6098(2)
H16_2 H 0.5772 0.3933 0.6353
C20_2 C 0.5915(2) 0.3582(2) 0.5549(2)
C21 C 0.6660(4) 0.3949(3) 0.4828(3)
H17 H 0.6923 0.4259 0.4684
C22 C 0.6111(4) 0.2997(4) 0.4648(3)
H18 H 0.6030 0.2642 0.4416
C23_2 C 0.6385(3) 0.4008(3) 0.5365(3)
H19_2 H 0.6497 0.4331 0.5628
N7_2 N 0.5773(2) 0.3108(2) 0.51917(18)
C24 C 0.6550(4) 0.3394(5) 0.4457(3)
H20 H 0.6778 0.3318 0.4099
C25_2 C 0.19129(18) 0.15871(19) 0.7467(2)
H21_2 H 0.1650 0.1886 0.7634
C26_2 C 0.2685(2) 0.06980(19) 0.6972(2)
H22_2 H 0.2947 0.0406 0.6792
C27_2 C 0.2548(2) 0.16609(18) 0.7504(2)
C28_2 C 0.2933(2) 0.1190(2) 0.7264(2)
H23_2 H 0.3361 0.1219 0.7309
C29_2 C 0.1671(2) 0.1077(2) 0.71846(19)
H24_2 H 0.1242 0.1036 0.7161
C30_2 C 0.1812(2) 0.0056(2) 0.66276(19)
C31_2 C 0.2039(2) 0.06150(19) 0.69312(18)
Ag2_3 Ag 0.5000 0.2500 0.54830(3)
Ag3_3 Ag 0.04830(3) 0.0000 0.7500
N12_2 N 0.7194(2) 0.2806(2) 0.7806(2)
C37_2 C 0.7533(2) 0.19129(18) 0.84129(19)
H31_2 H 0.7366 0.1650 0.8114
C38_2 C 0.8028(2) 0.2685(2) 0.93020(19)
H32_2 H 0.8208 0.2947 0.9594
C39_2 C 0.7496(2) 0.2548(2) 0.83391(18)
C40_2 C 0.7736(2) 0.2933(2) 0.8810(2)
H33_2 H 0.7691 0.3361 0.8781
C41_2 C 0.78154(19) 0.1671(2) 0.8923(2)
H34_2 H 0.7839 0.1242 0.8964
C42_2 C 0.83724(19) 0.1812(2) 0.9944(2)
C43_2 C 0.80688(18) 0.2039(2) 0.93850(19)
N15_2 N 0.48776(16) 0.16775(16) 0.62630(17)
C49_2 C 0.65871(19) 0.2467(2) 0.69129(18)
H41_2 H 0.6886 0.2634 0.6650
C50_2 C 0.56980(19) 0.1972(2) 0.7685(2)
H42_2 H 0.5406 0.1792 0.7947
C51_2 C 0.66609(18) 0.2504(2) 0.7548(2)
C52_2 C 0.6190(2) 0.2264(2) 0.7933(2)
H43_2 H 0.6219 0.2309 0.8361
C53_2 C 0.6077(2) 0.21846(19) 0.6671(2)
H44_2 H 0.6036 0.2161 0.6242
C54_2 C 0.5056(2) 0.16276(19) 0.6812(2)
H45_2 H 0.4823 0.1388 0.7085
C55_2 C 0.56150(19) 0.19312(18) 0.7039(2)
N16_2 N 0.43703(19) 0.13396(19) 0.6098(2)
H46_2 H 0.4228 0.1067 0.6353
C56_2 C 0.4085(2) 0.1418(2) 0.5549(2)
C57 C 0.3340(4) 0.1051(3) 0.4828(3)
H47 H 0.3077 0.0741 0.4684
C58 C 0.3889(4) 0.2003(4) 0.4648(3)
H48 H 0.3970 0.2358 0.4416
C59_2 C 0.3615(3) 0.0992(3) 0.5365(3)
H49_2 H 0.3503 0.0669 0.5628
N17_2 N 0.4227(2) 0.1892(2) 0.51917(18)
C60 C 0.3450(4) 0.1606(5) 0.4457(3)
H50 H 0.3222 0.1682 0.4099
N18_2 N 0.87370(17) 0.51224(16) 0.66775(16)
C61_2 C 0.80871(18) 0.34129(19) 0.7467(2)
H51_2 H 0.8350 0.3114 0.7634
C62_2 C 0.7315(2) 0.43020(19) 0.6972(2)
H52_2 H 0.7053 0.4594 0.6792
C63_2 C 0.7452(2) 0.33391(18) 0.7504(2)
C64_2 C 0.7067(2) 0.3810(2) 0.7264(2)
H53_2 H 0.6639 0.3781 0.7309
C65_2 C 0.8329(2) 0.3923(2) 0.71846(19)
H54_2 H 0.8758 0.3964 0.7161
C66_2 C 0.8188(2) 0.4944(2) 0.66276(19)
H55_2 H 0.7915 0.5177 0.6388
C67_2 C 0.7961(2) 0.43850(19) 0.69312(18)
N19_2 N 0.8902(2) 0.56297(19) 0.63396(19)
H56_2 H 0.8647 0.5772 0.6067
C68_2 C 0.9451(2) 0.5915(2) 0.6418(2)
C71_2 C 0.9635(3) 0.6385(3) 0.5992(3)
H59_2 H 0.9372 0.6497 0.5669
N20_2 N 0.98083(18) 0.5773(2) 0.6892(2)
Ag4_3 Ag 0.7500 0.04830(3) 1.0000
Ag5_2 Ag 0.95170(3) 0.5000 0.7500
N21_2 N 0.33225(16) 0.37370(17) 0.98776(16)
N22_2 N 0.12630(17) 0.01224(16) 0.83225(16)
N23_2 N 0.3108(2) 0.48083(18) 0.9227(2)
N24_2 N 0.01917(18) 0.0773(2) 0.8108(2)
N8_2 N 0.12630(17) 0.98776(16) 0.66775(16)
H25_2 H 0.2085 0.9823 0.6388
N9_2 N 0.1098(2) 0.93703(19) 0.63396(19)
H26_2 H 0.1353 0.9228 0.6067
C32_2 C 0.0549(2) 0.9085(2) 0.6418(2)
C35_2 C 0.0365(3) 0.8615(3) 0.5992(3)
H29_2 H 0.0628 0.8503 0.5669
N10_2 N 0.01917(18) 0.9227(2) 0.6892(2)
Ag3_4 Ag 0.04830(3) 1.0000 0.7500
N5_3 N 0.01224(16) 0.16775(16) 0.37370(17)
H15_3 H 0.0177 0.1388 0.2915
N6_3 N 0.06297(19) 0.13396(19) 0.3902(2)
H16_3 H 0.0772 0.1067 0.3647
C20_3 C 0.0915(2) 0.1418(2) 0.4451(2)
C21_2 C 0.1660(4) 0.1051(3) 0.5172(3)
H17_2 H 0.1923 0.0741 0.5316
C22_2 C 0.1111(4) 0.2003(4) 0.5352(3)
H18_2 H 0.1030 0.2358 0.5584
C23_3 C 0.1385(3) 0.0992(3) 0.4635(3)
H19_3 H 0.1497 0.0669 0.4372
N7_3 N 0.0773(2) 0.1892(2) 0.48083(18)
C24_2 C 0.1550(4) 0.1606(5) 0.5543(3)
H20_2 H 0.1778 0.1682 0.5901
Ag2_4 Ag 0.0000 0.2500 0.45170(3)
N12_3 N 0.2194(2) 0.2194(2) 0.2194(2)
C37_3 C 0.2533(2) 0.30871(18) 0.15871(19)
H31_3 H 0.2366 0.3350 0.1886
C38_3 C 0.3028(2) 0.2315(2) 0.06980(19)
H32_3 H 0.3208 0.2053 0.0406
C39_3 C 0.2496(2) 0.2452(2) 0.16609(18)
C40_3 C 0.2736(2) 0.2067(2) 0.1190(2)
H33_3 H 0.2691 0.1639 0.1219
C41_3 C 0.28154(19) 0.3329(2) 0.1077(2)
H34_3 H 0.2839 0.3758 0.1036
C42_3 C 0.33724(19) 0.3188(2) 0.0056(2)
C43_3 C 0.30688(18) 0.2961(2) 0.06150(19)
C49_3 C 0.15871(19) 0.2533(2) 0.30871(18)
H41_3 H 0.1886 0.2366 0.3350
C50_3 C 0.06980(19) 0.3028(2) 0.2315(2)
H42_3 H 0.0406 0.3208 0.2053
C51_3 C 0.16609(18) 0.2496(2) 0.2452(2)
C52_3 C 0.1190(2) 0.2736(2) 0.2067(2)
H43_3 H 0.1219 0.2691 0.1639
C53_3 C 0.1077(2) 0.28154(19) 0.3329(2)
H44_3 H 0.1036 0.2839 0.3758
C54_3 C 0.0056(2) 0.33724(19) 0.3188(2)
C55_3 C 0.06150(19) 0.30688(18) 0.2961(2)
C61_3 C 0.30871(18) 0.15871(19) 0.2533(2)
H51_3 H 0.3350 0.1886 0.2366
C62_3 C 0.2315(2) 0.06980(19) 0.3028(2)
H52_3 H 0.2053 0.0406 0.3208
C63_3 C 0.2452(2) 0.16609(18) 0.2496(2)
C64_3 C 0.2067(2) 0.1190(2) 0.2736(2)
H53_3 H 0.1639 0.1219 0.2691
C65_3 C 0.3329(2) 0.1077(2) 0.28154(19)
H54_3 H 0.3758 0.1036 0.2839
C66_3 C 0.3188(2) 0.0056(2) 0.33724(19)
C67_3 C 0.2961(2) 0.06150(19) 0.30688(18)
H35_3 H 0.3612 0.2915 0.9823
N13_3 N 0.36604(19) 0.3902(2) 0.93703(19)
H36_3 H 0.3933 0.3647 0.9228
C44_3 C 0.3582(2) 0.4451(2) 0.9085(2)
C45_2 C 0.3949(3) 0.5172(3) 0.8340(4)
H37_2 H 0.4259 0.5316 0.8077
C46_2 C 0.2997(4) 0.5352(3) 0.8889(4)
H38_2 H 0.2642 0.5584 0.8970
C47_3 C 0.4008(3) 0.4635(3) 0.8615(3)
H39_3 H 0.4331 0.4372 0.8503
C48_2 C 0.3394(5) 0.5543(3) 0.8450(4)
H40_2 H 0.3318 0.5901 0.8222
H55_3 H 0.2915 0.9823 0.3612
N19_3 N 0.3902(2) 0.93703(19) 0.36604(19)
H56_3 H 0.3647 0.9228 0.3933
C68_3 C 0.4451(2) 0.9085(2) 0.3582(2)
C69_3 C 0.5172(3) 0.8340(4) 0.3949(3)
H57_3 H 0.5316 0.8077 0.4259
C70_3 C 0.5352(3) 0.8889(4) 0.2997(4)
H58_3 H 0.5584 0.8970 0.2642
C71_3 C 0.4635(3) 0.8615(3) 0.4008(3)
H59_3 H 0.4372 0.8503 0.4331
C72_3 C 0.5543(3) 0.8450(4) 0.3394(5)
H60_3 H 0.5901 0.8222 0.3318
N2_3 N 0.7806(2) 0.2806(2) 0.2194(2)
C1_3 C 0.7467(2) 0.19129(18) 0.15871(19)
H1_3 H 0.7634 0.1650 0.1886
C2_3 C 0.6972(2) 0.2685(2) 0.06980(19)
H2_3 H 0.6792 0.2947 0.0406
C3_3 C 0.7504(2) 0.2548(2) 0.16609(18)
C4_3 C 0.7264(2) 0.2933(2) 0.1190(2)
H3_3 H 0.7309 0.3361 0.1219
C5_3 C 0.71846(19) 0.1671(2) 0.1077(2)
H4_3 H 0.7161 0.1242 0.1036
C6_3 C 0.66276(19) 0.1812(2) 0.0056(2)
C7_3 C 0.69312(18) 0.2039(2) 0.06150(19)
C13_3 C 0.84129(19) 0.2467(2) 0.30871(18)
H11_3 H 0.8114 0.2634 0.3350
C14_3 C 0.93020(19) 0.1972(2) 0.2315(2)
H12_3 H 0.9594 0.1792 0.2053
C15_3 C 0.83391(18) 0.2504(2) 0.2452(2)
C16_3 C 0.8810(2) 0.2264(2) 0.2067(2)
H13_3 H 0.8781 0.2309 0.1639
C17_3 C 0.8923(2) 0.21846(19) 0.3329(2)
H14_3 H 0.8964 0.2161 0.3758
C18_3 C 0.9944(2) 0.16276(19) 0.3188(2)
C19_3 C 0.93850(19) 0.19312(18) 0.2961(2)
N8_3 N 0.62630(17) 0.51224(16) 0.33225(16)
C25_3 C 0.69129(18) 0.34129(19) 0.2533(2)
H21_3 H 0.6650 0.3114 0.2366
C26_3 C 0.7685(2) 0.43020(19) 0.3028(2)
H22_3 H 0.7947 0.4594 0.3208
C27_3 C 0.7548(2) 0.33391(18) 0.2496(2)
C28_3 C 0.7933(2) 0.3810(2) 0.2736(2)
H23_3 H 0.8361 0.3781 0.2691
C29_3 C 0.6671(2) 0.3923(2) 0.28154(19)
H24_3 H 0.6242 0.3964 0.2839
C30_3 C 0.6812(2) 0.4944(2) 0.33724(19)
H25_3 H 0.7085 0.5177 0.3612
C31_3 C 0.7039(2) 0.43850(19) 0.30688(18)
N9_3 N 0.6098(2) 0.56297(19) 0.36604(19)
H26_3 H 0.6353 0.5772 0.3933
C32_3 C 0.5549(2) 0.5915(2) 0.3582(2)
C33_2 C 0.4828(3) 0.6660(4) 0.3949(3)
H27_2 H 0.4684 0.6923 0.4259
C34_2 C 0.4648(3) 0.6111(4) 0.2997(4)
H28_2 H 0.4416 0.6030 0.2642
C35_3 C 0.5365(3) 0.6385(3) 0.4008(3)
H29_3 H 0.5628 0.6497 0.4331
N10_3 N 0.51917(18) 0.5773(2) 0.3108(2)
C36_2 C 0.4457(3) 0.6550(4) 0.3394(5)
H30_2 H 0.4099 0.6778 0.3318
Ag2_5 Ag 1.0000 0.2500 0.45170(3)
N15_3 N 0.98776(16) 0.33225(16) 0.37370(17)
H45_3 H 0.9823 0.3612 0.2915
N16_3 N 0.93703(19) 0.36604(19) 0.3902(2)
H46_3 H 0.9228 0.3933 0.3647
C56_3 C 0.9085(2) 0.3582(2) 0.4451(2)
C57_2 C 0.8340(4) 0.3949(3) 0.5172(3)
H47_2 H 0.8077 0.4259 0.5316
C58_2 C 0.8889(4) 0.2997(4) 0.5352(3)
H48_2 H 0.8970 0.2642 0.5584
C59_3 C 0.8615(3) 0.4008(3) 0.4635(3)
H49_3 H 0.8503 0.4331 0.4372
N17_3 N 0.9227(2) 0.3108(2) 0.48083(18)
C60_2 C 0.8450(4) 0.3394(5) 0.5543(3)
H50_2 H 0.8222 0.3318 0.5901
N1_3 N 0.66775(16) 0.12630(17) 0.98776(16)
H5_3 H 0.6388 0.2085 0.9823
N3_3 N 0.63396(19) 0.1098(2) 0.93703(19)
H6_3 H 0.6067 0.1353 0.9228
C8_3 C 0.6418(2) 0.0549(2) 0.9085(2)
C11_3 C 0.5992(3) 0.0365(3) 0.8615(3)
H9_3 H 0.5669 0.0628 0.8503
N4_3 N 0.6892(2) 0.01917(18) 0.9227(2)
C33_3 C 0.0172(3) 0.3340(4) 0.8949(3)
H27_3 H 0.0316 0.3077 0.9259
C34_3 C 0.0352(3) 0.3889(4) 0.7997(4)
H28_3 H 0.0584 0.3970 0.7642
C36_3 C 0.0543(3) 0.3450(4) 0.8394(5)
H30_3 H 0.0901 0.3222 0.8318
C9_3 C 0.8949(3) 0.0172(3) 0.3340(4)
H7_3 H 0.9259 0.0316 0.3077
C10_3 C 0.7997(4) 0.0352(3) 0.3889(4)
H8_3 H 0.7642 0.0584 0.3970
C12_3 C 0.8394(5) 0.0543(3) 0.3450(4)
H10_3 H 0.8318 0.0901 0.3222
H55_4 H 0.2085 0.0177 0.8612
N19_4 N 0.1098(2) 0.06297(19) 0.86604(19)
H56_4 H 0.1353 0.0772 0.8933
C68_4 C 0.0549(2) 0.0915(2) 0.8582(2)
C71_4 C 0.0365(3) 0.1385(3) 0.9008(3)
H59_4 H 0.0628 0.1497 0.9331
C21_3 C 0.3340(4) 0.8949(3) 0.0172(3)
H17_3 H 0.3077 0.9259 0.0316
C22_3 C 0.3889(4) 0.7997(4) 0.0352(3)
H18_3 H 0.3970 0.7642 0.0584
C24_3 C 0.3450(4) 0.8394(5) 0.0543(3)
H20_3 H 0.3222 0.8318 0.0901
C57_3 C 0.6660(4) 0.6051(3) 0.0172(3)
H47_3 H 0.6923 0.5741 0.0316
C58_3 C 0.6111(4) 0.7003(4) 0.0352(3)
H48_3 H 0.6030 0.7358 0.0584
C60_3 C 0.6550(4) 0.6606(5) 0.0543(3)
H50_3 H 0.6778 0.6682 0.0901
N1_4 N 0.83225(16) 0.87370(17) 0.48776(16)
N2_4 N 0.7194(2) 0.7194(2) 0.7194(2)
C1_4 C 0.7533(2) 0.80871(18) 0.65871(19)
H1_4 H 0.7366 0.8350 0.6886
C2_4 C 0.8028(2) 0.7315(2) 0.56980(19)
H2_4 H 0.8208 0.7053 0.5406
C3_4 C 0.7496(2) 0.7452(2) 0.66609(18)
C4_4 C 0.7736(2) 0.7067(2) 0.6190(2)
H3_4 H 0.7691 0.6639 0.6219
C5_4 C 0.78154(19) 0.8329(2) 0.6077(2)
H4_4 H 0.7839 0.8758 0.6036
C6_4 C 0.83724(19) 0.8188(2) 0.5056(2)
H5_4 H 0.8612 0.7915 0.4823
C7_4 C 0.80688(18) 0.7961(2) 0.56150(19)
N3_4 N 0.86604(19) 0.8902(2) 0.43703(19)
H6_4 H 0.8933 0.8647 0.4228
C8_4 C 0.8582(2) 0.9451(2) 0.4085(2)
C11_4 C 0.9008(3) 0.9635(3) 0.3615(3)
H9_4 H 0.9331 0.9372 0.3503
N4_4 N 0.8108(2) 0.98083(18) 0.4227(2)
N5_4 N 0.48776(16) 0.83225(16) 0.87370(17)
C13_4 C 0.65871(19) 0.7533(2) 0.80871(18)
H11_4 H 0.6886 0.7366 0.8350
C14_4 C 0.56980(19) 0.8028(2) 0.7315(2)
H12_4 H 0.5406 0.8208 0.7053
C15_4 C 0.66609(18) 0.7496(2) 0.7452(2)
C16_4 C 0.6190(2) 0.7736(2) 0.7067(2)
H13_4 H 0.6219 0.7691 0.6639
C17_4 C 0.6077(2) 0.78154(19) 0.8329(2)
H14_4 H 0.6036 0.7839 0.8758
C18_4 C 0.5056(2) 0.83724(19) 0.8188(2)
H15_4 H 0.4823 0.8612 0.7915
C19_4 C 0.56150(19) 0.80688(18) 0.7961(2)
N6_4 N 0.43703(19) 0.86604(19) 0.8902(2)
H16_4 H 0.4228 0.8933 0.8647
C20_4 C 0.4085(2) 0.8582(2) 0.9451(2)
C23_4 C 0.3615(3) 0.9008(3) 0.9635(3)
H19_4 H 0.3503 0.9331 0.9372
N7_4 N 0.4227(2) 0.8108(2) 0.98083(18)
N8_4 N 0.87370(17) 0.48776(16) 0.83225(16)
C25_4 C 0.80871(18) 0.65871(19) 0.7533(2)
H21_4 H 0.8350 0.6886 0.7366
C26_4 C 0.7315(2) 0.56980(19) 0.8028(2)
H22_4 H 0.7053 0.5406 0.8208
C27_4 C 0.7452(2) 0.66609(18) 0.7496(2)
C28_4 C 0.7067(2) 0.6190(2) 0.7736(2)
H23_4 H 0.6639 0.6219 0.7691
C29_4 C 0.8329(2) 0.6077(2) 0.78154(19)
H24_4 H 0.8758 0.6036 0.7839
C30_4 C 0.8188(2) 0.5056(2) 0.83724(19)
H25_4 H 0.7915 0.4823 0.8612
C31_4 C 0.7961(2) 0.56150(19) 0.80688(18)
N9_4 N 0.8902(2) 0.43703(19) 0.86604(19)
H26_4 H 0.8647 0.4228 0.8933
C32_4 C 0.9451(2) 0.4085(2) 0.8582(2)
C35_4 C 0.9635(3) 0.3615(3) 0.9008(3)
H29_4 H 0.9372 0.3503 0.9331
N10_4 N 0.98083(18) 0.4227(2) 0.8108(2)
Ag2_6 Ag 0.5000 0.7500 0.95170(3)
N12_4 N 0.2806(2) 0.7806(2) 0.7194(2)
C37_4 C 0.2467(2) 0.69129(18) 0.65871(19)
H31_4 H 0.2634 0.6650 0.6886
C38_4 C 0.1972(2) 0.7685(2) 0.56980(19)
H32_4 H 0.1792 0.7947 0.5406
C39_4 C 0.2504(2) 0.7548(2) 0.66609(18)
C40_4 C 0.2264(2) 0.7933(2) 0.6190(2)
H33_4 H 0.2309 0.8361 0.6219
C41_4 C 0.21846(19) 0.6671(2) 0.6077(2)
H34_4 H 0.2161 0.6242 0.6036
C42_4 C 0.16276(19) 0.6812(2) 0.5056(2)
H35_4 H 0.1388 0.7085 0.4823
C43_4 C 0.19312(18) 0.7039(2) 0.56150(19)
N13_4 N 0.13396(19) 0.6098(2) 0.43703(19)
H36_4 H 0.1067 0.6353 0.4228
C44_4 C 0.1418(2) 0.5549(2) 0.4085(2)
C45_3 C 0.1051(3) 0.4828(3) 0.3340(4)
H37_3 H 0.0741 0.4684 0.3077
C46_3 C 0.2003(4) 0.4648(3) 0.3889(4)
H38_3 H 0.2358 0.4416 0.3970
C47_4 C 0.0992(3) 0.5365(3) 0.3615(3)
H39_4 H 0.0669 0.5628 0.3503
C48_3 C 0.1606(5) 0.4457(3) 0.3450(4)
H40_3 H 0.1682 0.4099 0.3222
N15_4 N 0.51224(16) 0.66775(16) 0.87370(17)
C49_4 C 0.34129(19) 0.7467(2) 0.80871(18)
H41_4 H 0.3114 0.7634 0.8350
C50_4 C 0.43020(19) 0.6972(2) 0.7315(2)
H42_4 H 0.4594 0.6792 0.7053
C51_4 C 0.33391(18) 0.7504(2) 0.7452(2)
C52_4 C 0.3810(2) 0.7264(2) 0.7067(2)
H43_4 H 0.3781 0.7309 0.6639
C53_4 C 0.3923(2) 0.71846(19) 0.8329(2)
H44_4 H 0.3964 0.7161 0.8758
C54_4 C 0.4944(2) 0.66276(19) 0.8188(2)
H45_4 H 0.5177 0.6388 0.7915
C55_4 C 0.43850(19) 0.69312(18) 0.7961(2)
N16_4 N 0.56297(19) 0.63396(19) 0.8902(2)
H46_4 H 0.5772 0.6067 0.8647
C56_4 C 0.5915(2) 0.6418(2) 0.9451(2)
C59_4 C 0.6385(3) 0.5992(3) 0.9635(3)
H49_4 H 0.6497 0.5669 0.9372
N17_4 N 0.5773(2) 0.6892(2) 0.98083(18)
C61_4 C 0.19129(18) 0.84129(19) 0.7533(2)
H51_4 H 0.1650 0.8114 0.7366
C62_4 C 0.2685(2) 0.93020(19) 0.8028(2)
H52_4 H 0.2947 0.9594 0.8208
C63_4 C 0.2548(2) 0.83391(18) 0.7496(2)
C64_4 C 0.2933(2) 0.8810(2) 0.7736(2)
H53_4 H 0.3361 0.8781 0.7691
C65_4 C 0.1671(2) 0.8923(2) 0.78154(19)
H54_4 H 0.1242 0.8964 0.7839
C66_4 C 0.1812(2) 0.9944(2) 0.83724(19)
C67_4 C 0.2039(2) 0.93850(19) 0.80688(18)
C57_4 C 0.1660(4) 0.8949(3) 0.9828(3)
H47_4 H 0.1923 0.9259 0.9684
C58_4 C 0.1111(4) 0.7997(4) 0.9648(3)
H48_4 H 0.1030 0.7642 0.9416
C60_4 C 0.1550(4) 0.8394(5) 0.9457(3)
H50_4 H 0.1778 0.8318 0.9099
C21_4 C 0.8340(4) 0.6051(3) 0.9828(3)
H17_4 H 0.8077 0.5741 0.9684
C22_4 C 0.8889(4) 0.7003(4) 0.9648(3)
H18_4 H 0.8970 0.7358 0.9416
C24_4 C 0.8450(4) 0.6606(5) 0.9457(3)
H20_4 H 0.8222 0.6682 0.9099
C45_4 C 0.8949(3) 0.9828(3) 0.1660(4)
H37_4 H 0.9259 0.9684 0.1923
C46_4 C 0.7997(4) 0.9648(3) 0.1111(4)
H38_4 H 0.7642 0.9416 0.1030
C48_4 C 0.8394(5) 0.9457(3) 0.1550(4)
H40_4 H 0.8318 0.9099 0.1778
C33_4 C 0.9828(3) 0.8340(4) 0.6051(3)
H27_4 H 0.9684 0.8077 0.5741
C34_4 C 0.9648(3) 0.8889(4) 0.7003(4)
H28_4 H 0.9416 0.8970 0.7358
C36_4 C 0.9457(3) 0.8450(4) 0.6606(5)
H30_4 H 0.9099 0.8222 0.6682
C9_4 C 0.6051(3) 0.9828(3) 0.8340(4)
H7_4 H 0.5741 0.9684 0.8077
C10_4 C 0.7003(4) 0.9648(3) 0.8889(4)
H8_4 H 0.7358 0.9416 0.8970
C12_4 C 0.6606(5) 0.9457(3) 0.8450(4)
H10_4 H 0.6682 0.9099 0.8222
C69_4 C 0.9828(3) 0.1660(4) 0.8949(3)
H57_4 H 0.9684 0.1923 0.9259
C70_4 C 0.9648(3) 0.1111(4) 0.7997(4)
H58_4 H 0.9416 0.1030 0.7642
C72_4 C 0.9457(3) 0.1550(4) 0.8394(5)
H60_4 H 0.9099 0.1778 0.8318
loop_
_geom_bond_atom_site_label_1
_geom_bond_atom_site_label_2
_geom_bond_site_symmetry_1
_geom_bond_site_symmetry_2
Cl1 O1 1_555 1_555
O2 Cl1 1_555 1_555
O3 Cl1 1_555 1_555
O4 Cl1 1_555 1_555
Cl1_2 O1_2 1_555 1_555
O2_2 Cl1_2 1_555 1_555
O3_2 Cl1_2 1_555 1_555
O4_2 Cl1_2 1_555 1_555
Cl1_3 O1_3 1_555 1_555
O2_3 Cl1_3 1_555 1_555
O3_3 Cl1_4 1_555 1_555
O4_3 Cl1_4 1_555 1_555
O3_4 Cl1_5 1_555 1_555
O4_4 Cl1_5 1_555 1_555
Cl1_6 O1_4 1_555 1_555
O2_4 Cl1_6 1_555 1_555
Cl1_7 O1_5 1_555 1_555
O2_5 Cl1_7 1_555 1_555
O3_5 Cl1_7 1_555 1_555
O4_5 Cl1_7 1_555 1_555
Cl1_8 O1_6 1_555 1_555
O2_6 Cl1_8 1_555 1_555
O3_6 Cl1_8 1_555 1_555
O4_6 Cl1_8 1_555 1_555
Cl1_9 O1_7 1_555 1_555
O2_7 Cl1_9 1_555 1_555
O3_7 Cl1_10 1_555 1_555
O4_7 Cl1_10 1_555 1_555
O3_8 Cl1_11 1_555 1_555
O4_8 Cl1_11 1_555 1_555
Cl1_12 O1_8 1_555 1_555
O2_8 Cl1_12 1_555 1_555
Cl1_13 O1_9 1_555 1_555
O2_9 Cl1_13 1_555 1_555
O3_9 Cl1_13 1_555 1_555
O4_9 Cl1_13 1_555 1_555
Cl1_14 O1_10 1_555 1_555
O2_10 Cl1_14 1_555 1_555
O3_10 Cl1_14 1_555 1_555
O4_10 Cl1_14 1_555 1_555
Cl1_15 O1_11 1_555 1_555
O2_11 Cl1_15 1_555 1_555
O3_11 Cl1_16 1_555 1_555
O4_11 Cl1_16 1_555 1_555
O3_12 Cl1_17 1_555 1_555
O4_12 Cl1_17 1_555 1_555
Cl1_18 O1_12 1_555 1_555
O2_12 Cl1_18 1_555 1_555
N9 N8 1_555 1_555
H26 N9 1_555 1_555
C32 N9 1_555 1_555
C33 H27 1_555 1_555
C34 H28 1_555 1_555
C35 C32 1_555 1_555
H29 C35 1_555 1_555
N10 C32 1_555 1_555
C36 C33 1_555 1_555
H30 C36 1_555 1_555
Ag3 N8 1_555 1_555
C33 C35 1_555 1_555
C34 N10 1_555 1_555
C34 C36 1_555 1_555
N10 Ag3 1_555 1_555
Ag1 N1 1_555 1_555
N1 C6 1_555 1_555
N2 C3 1_555 1_555
C1 H1 1_555 1_555
C2 H2 1_555 1_555
C3 C1 1_555 1_555
C4 C2 1_555 1_555
H3 C4 1_555 1_555
C5 C1 1_555 1_555
H4 C5 1_555 1_555
C6 H5 1_555 1_555
C7 C2 1_555 1_555
N3 N1 1_555 1_555
H6 N3 1_555 1_555
C8 N3 1_555 1_555
C9 H7 1_555 1_555
C10 H8 1_555 1_555
C11 C8 1_555 1_555
H9 C11 1_555 1_555
N4 Ag1 1_555 1_555
C12 C9 1_555 1_555
H10 C12 1_555 1_555
C13 H11 1_555 1_555
C14 H12 1_555 1_555
C15 N2 1_555 1_555
C16 C14 1_555 1_555
H13 C16 1_555 1_555
C17 C13 1_555 1_555
H14 C17 1_555 1_555
C19 C14 1_555 1_555
C25 H21 1_555 1_555
C26 H22 1_555 1_555
C27 N2 1_555 1_555
C28 C26 1_555 1_555
H23 C28 1_555 1_555
C29 C25 1_555 1_555
H24 C29 1_555 1_555
C31 C26 1_555 1_555
N15 Ag2 1_555 1_555
N16 N15 1_555 1_555
H46 N16 1_555 1_555
C56 N16 1_555 1_555
C59 C56 1_555 1_555
H49 C59 1_555 1_555
N17 Ag2 1_555 1_555
N21 Ag1 1_555 1_555
N22 Ag3_2 1_555 1_555
N23 Ag1 1_555 1_555
N24 Ag3_2 1_555 1_555
C3 C4 1_555 1_555
C5 C7 1_555 1_555
C6 C7 1_555 1_555
C8 N4 1_555 1_555
C9 C11 1_555 1_555
C10 N4 1_555 1_555
C10 C12 1_555 1_555
C13 C15 1_555 1_555
C15 C16 1_555 1_555
C17 C19 1_555 1_555
C18 C19 1_555 1_555
C25 C27 1_555 1_555
C27 C28 1_555 1_555
C29 C31 1_555 1_555
C30 C31 1_555 1_555
C56 N17 1_555 1_555
C45 H37 1_555 1_555
C46 H38 1_555 1_555
C48 C45 1_555 1_555
H40 C48 1_555 1_555
C46 C48 1_555 1_555
N6 N5 1_555 1_555
H16 N6 1_555 1_555
C20 N6 1_555 1_555
C23 C20 1_555 1_555
H19 C23 1_555 1_555
N7 C20 1_555 1_555
Ag2_2 N5 1_555 1_555
N11 C42 1_555 1_555
N12 C39 1_555 1_555
C37 H31 1_555 1_555
C38 H32 1_555 1_555
C39 C37 1_555 1_555
C40 C38 1_555 1_555
H33 C40 1_555 1_555
C41 C37 1_555 1_555
H34 C41 1_555 1_555
C42 H35 1_555 1_555
C43 C38 1_555 1_555
N13 N11 1_555 1_555
H36 N13 1_555 1_555
C44 N13 1_555 1_555
C47 C44 1_555 1_555
H39 C47 1_555 1_555
N14 C44 1_555 1_555
C49 H41 1_555 1_555
C50 H42 1_555 1_555
C51 N12 1_555 1_555
C52 C50 1_555 1_555
H43 C52 1_555 1_555
C53 C49 1_555 1_555
H44 C53 1_555 1_555
C55 C50 1_555 1_555
N18 C66 1_555 1_555
C61 H51 1_555 1_555
C62 H52 1_555 1_555
C63 N12 1_555 1_555
C64 C62 1_555 1_555
H53 C64 1_555 1_555
C65 C61 1_555 1_555
H54 C65 1_555 1_555
C66 H55 1_555 1_555
C67 C62 1_555 1_555
N19 N18 1_555 1_555
H56 N19 1_555 1_555
C68 N19 1_555 1_555
C69 H57 1_555 1_555
C70 H58 1_555 1_555
C71 C68 1_555 1_555
H59 C71 1_555 1_555
N20 C68 1_555 1_555
C72 C69 1_555 1_555
H60 C72 1_555 1_555
Ag4 N11 1_555 1_555
Ag5 N18 1_555 1_555
N7 Ag2_2 1_555 1_555
C39 C40 1_555 1_555
C41 C43 1_555 1_555
C42 C43 1_555 1_555
N14 Ag4 1_555 1_555
C49 C51 1_555 1_555
C51 C52 1_555 1_555
C53 C55 1_555 1_555
C54 C55 1_555 1_555
C61 C63 1_555 1_555
C63 C64 1_555 1_555
C65 C67 1_555 1_555
C66 C67 1_555 1_555
C69 C71 1_555 1_555
C70 N20 1_555 1_555
C70 C72 1_555 1_555
N20 Ag5 1_555 1_555
C69_2 H57_2 1_555 1_555
C70_2 H58_2 1_555 1_555
C72_2 C69_2 1_555 1_555
H60_2 C72_2 1_555 1_555
C70_2 C72_2 1_555 1_555
Ag1_2 N1_2 1_555 1_555
N3_2 N1_2 1_555 1_555
H6_2 N3_2 1_555 1_555
C8_2 N3_2 1_555 1_555
C9_2 H7_2 1_555 1_555
C10_2 H8_2 1_555 1_555
C11_2 C8_2 1_555 1_555
H9_2 C11_2 1_555 1_555
N4_2 Ag1_2 1_555 1_555
C12_2 C9_2 1_555 1_555
H10_2 C12_2 1_555 1_555
N13_2 N11_2 1_555 1_555
H36_2 N13_2 1_555 1_555
C44_2 N13_2 1_555 1_555
C47_2 C44_2 1_555 1_555
H39_2 C47_2 1_555 1_555
N14_2 C44_2 1_555 1_555
Ag4_2 N11_2 1_555 1_555
C8_2 N4_2 1_555 1_555
C9_2 C11_2 1_555 1_555
C10_2 N4_2 1_555 1_555
C10_2 C12_2 1_555 1_555
N14_2 Ag4_2 1_555 1_555
N2_2 C3_2 1_555 1_555
C1_2 H1_2 1_555 1_555
C2_2 H2_2 1_555 1_555
C3_2 C1_2 1_555 1_555
C4_2 C2_2 1_555 1_555
H3_2 C4_2 1_555 1_555
C5_2 C1_2 1_555 1_555
H4_2 C5_2 1_555 1_555
C7_2 C2_2 1_555 1_555
N5_2 C18_2 1_555 1_555
C13_2 H11_2 1_555 1_555
C14_2 H12_2 1_555 1_555
C15_2 N2_2 1_555 1_555
C16_2 C14_2 1_555 1_555
H13_2 C16_2 1_555 1_555
C17_2 C13_2 1_555 1_555
H14_2 C17_2 1_555 1_555
C18_2 H15_2 1_555 1_555
C19_2 C14_2 1_555 1_555
N6_2 N5_2 1_555 1_555
H16_2 N6_2 1_555 1_555
C20_2 N6_2 1_555 1_555
C21 H17 1_555 1_555
C22 H18 1_555 1_555
C23_2 C20_2 1_555 1_555
H19_2 C23_2 1_555 1_555
N7_2 C20_2 1_555 1_555
C24 C21 1_555 1_555
H20 C24 1_555 1_555
C25_2 H21_2 1_555 1_555
C26_2 H22_2 1_555 1_555
C27_2 N2_2 1_555 1_555
C28_2 C26_2 1_555 1_555
H23_2 C28_2 1_555 1_555
C29_2 C25_2 1_555 1_555
H24_2 C29_2 1_555 1_555
C31_2 C26_2 1_555 1_555
Ag2_3 N5_2 1_555 1_555
N12_2 C39_2 1_555 1_555
C37_2 H31_2 1_555 1_555
C38_2 H32_2 1_555 1_555
C39_2 C37_2 1_555 1_555
C40_2 C38_2 1_555 1_555
H33_2 C40_2 1_555 1_555
C41_2 C37_2 1_555 1_555
H34_2 C41_2 1_555 1_555
C43_2 C38_2 1_555 1_555
N15_2 Ag2_3 1_555 1_555
C49_2 H41_2 1_555 1_555
C50_2 H42_2 1_555 1_555
C51_2 N12_2 1_555 1_555
C52_2 C50_2 1_555 1_555
H43_2 C52_2 1_555 1_555
C53_2 C49_2 1_555 1_555
H44_2 C53_2 1_555 1_555
C54_2 N15_2 1_555 1_555
H45_2 C54_2 1_555 1_555
C55_2 C50_2 1_555 1_555
N16_2 N15_2 1_555 1_555
H46_2 N16_2 1_555 1_555
C56_2 N16_2 1_555 1_555
C57 H47 1_555 1_555
C58 H48 1_555 1_555
C59_2 C56_2 1_555 1_555
H49_2 C59_2 1_555 1_555
N17_2 Ag2_3 1_555 1_555
C60 C57 1_555 1_555
H50 C60 1_555 1_555
N18_2 C66_2 1_555 1_555
C61_2 H51_2 1_555 1_555
C62_2 H52_2 1_555 1_555
C63_2 N12_2 1_555 1_555
C64_2 C62_2 1_555 1_555
H53_2 C64_2 1_555 1_555
C65_2 C61_2 1_555 1_555
H54_2 C65_2 1_555 1_555
C66_2 H55_2 1_555 1_555
C67_2 C62_2 1_555 1_555
N19_2 N18_2 1_555 1_555
H56_2 N19_2 1_555 1_555
C68_2 N19_2 1_555 1_555
C71_2 C68_2 1_555 1_555
H59_2 C71_2 1_555 1_555
N20_2 C68_2 1_555 1_555
Ag5_2 N18_2 1_555 1_555
N21_2 Ag1_3 1_555 1_555
N22_2 Ag3_3 1_555 1_555
N23_2 Ag1_3 1_555 1_555
N24_2 Ag3_3 1_555 1_555
C3_2 C4_2 1_555 1_555
C5_2 C7_2 1_555 1_555
C6_2 C7_2 1_555 1_555
C13_2 C15_2 1_555 1_555
C15_2 C16_2 1_555 1_555
C17_2 C19_2 1_555 1_555
C18_2 C19_2 1_555 1_555
C21 C23_2 1_555 1_555
C22 N7_2 1_555 1_555
C22 C24 1_555 1_555
N7_2 Ag2_3 1_555 1_555
C25_2 C27_2 1_555 1_555
C27_2 C28_2 1_555 1_555
C29_2 C31_2 1_555 1_555
C30_2 C31_2 1_555 1_555
C39_2 C40_2 1_555 1_555
C41_2 C43_2 1_555 1_555
C42_2 C43_2 1_555 1_555
C49_2 C51_2 1_555 1_555
C51_2 C52_2 1_555 1_555
C53_2 C55_2 1_555 1_555
C54_2 C55_2 1_555 1_555
C56_2 N17_2 1_555 1_555
C57 C59_2 1_555 1_555
C58 N17_2 1_555 1_555
C58 C60 1_555 1_555
C61_2 C63_2 1_555 1_555
C63_2 C64_2 1_555 1_555
C65_2 C67_2 1_555 1_555
C66_2 C67_2 1_555 1_555
N20_2 Ag5_2 1_555 1_555
N9_2 N8_2 1_555 1_555
H26_2 N9_2 1_555 1_555
C32_2 N9_2 1_555 1_555
C35_2 C32_2 1_555 1_555
H29_2 C35_2 1_555 1_555
N10_2 C32_2 1_555 1_555
Ag3_4 N8_2 1_555 1_555
N10_2 Ag3_4 1_555 1_555
N6_3 N5_3 1_555 1_555
H16_3 N6_3 1_555 1_555
C20_3 N6_3 1_555 1_555
C21_2 H17_2 1_555 1_555
C22_2 H18_2 1_555 1_555
C23_3 C20_3 1_555 1_555
H19_3 C23_3 1_555 1_555
N7_3 C20_3 1_555 1_555
C24_2 C21_2 1_555 1_555
H20_2 C24_2 1_555 1_555
Ag2_4 N5_3 1_555 1_555
N12_3 C39_3 1_555 1_555
C37_3 H31_3 1_555 1_555
C38_3 H32_3 1_555 1_555
C39_3 C37_3 1_555 1_555
C40_3 C38_3 1_555 1_555
H33_3 C40_3 1_555 1_555
C41_3 C37_3 1_555 1_555
H34_3 C41_3 1_555 1_555
C43_3 C38_3 1_555 1_555
C49_3 H41_3 1_555 1_555
C50_3 H42_3 1_555 1_555
C51_3 N12_3 1_555 1_555
C52_3 C50_3 1_555 1_555
H43_3 C52_3 1_555 1_555
C53_3 C49_3 1_555 1_555
H44_3 C53_3 1_555 1_555
C55_3 C50_3 1_555 1_555
C61_3 H51_3 1_555 1_555
C62_3 H52_3 1_555 1_555
C63_3 N12_3 1_555 1_555
C64_3 C62_3 1_555 1_555
H53_3 C64_3 1_555 1_555
C65_3 C61_3 1_555 1_555
H54_3 C65_3 1_555 1_555
C67_3 C62_3 1_555 1_555
C21_2 C23_3 1_555 1_555
C22_2 N7_3 1_555 1_555
C22_2 C24_2 1_555 1_555
N7_3 Ag2_4 1_555 1_555
C39_3 C40_3 1_555 1_555
C41_3 C43_3 1_555 1_555
C42_3 C43_3 1_555 1_555
C49_3 C51_3 1_555 1_555
C51_3 C52_3 1_555 1_555
C53_3 C55_3 1_555 1_555
C54_3 C55_3 1_555 1_555
C61_3 C63_3 1_555 1_555
C63_3 C64_3 1_555 1_555
C65_3 C67_3 1_555 1_555
C66_3 C67_3 1_555 1_555
N13_3 N21_2 1_555 1_555
H36_3 N13_3 1_555 1_555
C44_3 N13_3 1_555 1_555
C45_2 H37_2 1_555 1_555
C46_2 H38_2 1_555 1_555
C47_3 C44_3 1_555 1_555
H39_3 C47_3 1_555 1_555
N23_2 C44_3 1_555 1_555
C48_2 C45_2 1_555 1_555
H40_2 C48_2 1_555 1_555
C45_2 C47_3 1_555 1_555
C46_2 N23_2 1_555 1_555
C46_2 C48_2 1_555 1_555
N19_3 N22 1_555 1_555
H56_3 N19_3 1_555 1_555
C68_3 N19_3 1_555 1_555
C69_3 H57_3 1_555 1_555
C70_3 H58_3 1_555 1_555
C71_3 C68_3 1_555 1_555
H59_3 C71_3 1_555 1_555
N24 C68_3 1_555 1_555
C72_3 C69_3 1_555 1_555
H60_3 C72_3 1_555 1_555
C69_3 C71_3 1_555 1_555
C70_3 N24 1_555 1_555
C70_3 C72_3 1_555 1_555
N2_3 C3_3 1_555 1_555
C1_3 H1_3 1_555 1_555
C2_3 H2_3 1_555 1_555
C3_3 C1_3 1_555 1_555
C4_3 C2_3 1_555 1_555
H3_3 C4_3 1_555 1_555
C5_3 C1_3 1_555 1_555
H4_3 C5_3 1_555 1_555
C7_3 C2_3 1_555 1_555
C13_3 H11_3 1_555 1_555
C14_3 H12_3 1_555 1_555
C15_3 N2_3 1_555 1_555
C16_3 C14_3 1_555 1_555
H13_3 C16_3 1_555 1_555
C17_3 C13_3 1_555 1_555
H14_3 C17_3 1_555 1_555
C19_3 C14_3 1_555 1_555
N8_3 C30_3 1_555 1_555
C25_3 H21_3 1_555 1_555
C26_3 H22_3 1_555 1_555
C27_3 N2_3 1_555 1_555
C28_3 C26_3 1_555 1_555
H23_3 C28_3 1_555 1_555
C29_3 C25_3 1_555 1_555
H24_3 C29_3 1_555 1_555
C30_3 H25_3 1_555 1_555
C31_3 C26_3 1_555 1_555
N9_3 N8_3 1_555 1_555
H26_3 N9_3 1_555 1_555
C32_3 N9_3 1_555 1_555
C33_2 H27_2 1_555 1_555
C34_2 H28_2 1_555 1_555
C35_3 C32_3 1_555 1_555
H29_3 C35_3 1_555 1_555
N10_3 C32_3 1_555 1_555
C36_2 C33_2 1_555 1_555
H30_2 C36_2 1_555 1_555
Ag5 N8_3 1_555 1_555
N15_3 Ag2_5 1_555 1_555
N16_3 N15_3 1_555 1_555
H46_3 N16_3 1_555 1_555
C56_3 N16_3 1_555 1_555
C57_2 H47_2 1_555 1_555
C58_2 H48_2 1_555 1_555
C59_3 C56_3 1_555 1_555
H49_3 C59_3 1_555 1_555
N17_3 Ag2_5 1_555 1_555
C60_2 C57_2 1_555 1_555
H50_2 C60_2 1_555 1_555
C3_3 C4_3 1_555 1_555
C5_3 C7_3 1_555 1_555
C6_3 C7_3 1_555 1_555
C13_3 C15_3 1_555 1_555
C15_3 C16_3 1_555 1_555
C17_3 C19_3 1_555 1_555
C18_3 C19_3 1_555 1_555
C25_3 C27_3 1_555 1_555
C27_3 C28_3 1_555 1_555
C29_3 C31_3 1_555 1_555
C30_3 C31_3 1_555 1_555
C33_2 C35_3 1_555 1_555
C34_2 N10_3 1_555 1_555
C34_2 C36_2 1_555 1_555
N10_3 Ag5 1_555 1_555
C56_3 N17_3 1_555 1_555
C57_2 C59_3 1_555 1_555
C58_2 N17_3 1_555 1_555
C58_2 C60_2 1_555 1_555
Ag4_3 N1_3 1_555 1_555
N3_3 N1_3 1_555 1_555
H6_3 N3_3 1_555 1_555
C8_3 N3_3 1_555 1_555
C11_3 C8_3 1_555 1_555
H9_3 C11_3 1_555 1_555
N4_3 Ag4_3 1_555 1_555
C8_3 N4_3 1_555 1_555
C33_3 H27_3 1_555 1_555
C34_3 H28_3 1_555 1_555
C36_3 C33_3 1_555 1_555
H30_3 C36_3 1_555 1_555
C34_3 C36_3 1_555 1_555
C9_3 H7_3 1_555 1_555
C10_3 H8_3 1_555 1_555
C12_3 C9_3 1_555 1_555
H10_3 C12_3 1_555 1_555
N19_4 N22_2 1_555 1_555
H56_4 N19_4 1_555 1_555
C68_4 N19_4 1_555 1_555
C71_4 C68_4 1_555 1_555
H59_4 C71_4 1_555 1_555
N24_2 C68_4 1_555 1_555
C10_3 C12_3 1_555 1_555
C21_3 H17_3 1_555 1_555
C22_3 H18_3 1_555 1_555
C24_3 C21_3 1_555 1_555
H20_3 C24_3 1_555 1_555
C57_3 H47_3 1_555 1_555
C58_3 H48_3 1_555 1_555
C60_3 C57_3 1_555 1_555
H50_3 C60_3 1_555 1_555
C22_3 C24_3 1_555 1_555
C58_3 C60_3 1_555 1_555
Ag4 N1_4 1_555 1_555
N1_4 C6_4 1_555 1_555
N2_4 C3_4 1_555 1_555
C1_4 H1_4 1_555 1_555
C2_4 H2_4 1_555 1_555
C3_4 C1_4 1_555 1_555
C4_4 C2_4 1_555 1_555
H3_4 C4_4 1_555 1_555
C5_4 C1_4 1_555 1_555
H4_4 C5_4 1_555 1_555
C6_4 H5_4 1_555 1_555
C7_4 C2_4 1_555 1_555
N3_4 N1_4 1_555 1_555
H6_4 N3_4 1_555 1_555
C8_4 N3_4 1_555 1_555
C11_4 C8_4 1_555 1_555
H9_4 C11_4 1_555 1_555
N4_4 Ag4 1_555 1_555
N5_4 C18_4 1_555 1_555
C13_4 H11_4 1_555 1_555
C14_4 H12_4 1_555 1_555
C15_4 N2_4 1_555 1_555
C16_4 C14_4 1_555 1_555
H13_4 C16_4 1_555 1_555
C17_4 C13_4 1_555 1_555
H14_4 C17_4 1_555 1_555
C18_4 H15_4 1_555 1_555
C19_4 C14_4 1_555 1_555
N6_4 N5_4 1_555 1_555
H16_4 N6_4 1_555 1_555
C20_4 N6_4 1_555 1_555
C23_4 C20_4 1_555 1_555
H19_4 C23_4 1_555 1_555
N7_4 C20_4 1_555 1_555
N8_4 C30_4 1_555 1_555
C25_4 H21_4 1_555 1_555
C26_4 H22_4 1_555 1_555
C27_4 N2_4 1_555 1_555
C28_4 C26_4 1_555 1_555
H23_4 C28_4 1_555 1_555
C29_4 C25_4 1_555 1_555
H24_4 C29_4 1_555 1_555
C30_4 H25_4 1_555 1_555
C31_4 C26_4 1_555 1_555
N9_4 N8_4 1_555 1_555
H26_4 N9_4 1_555 1_555
C32_4 N9_4 1_555 1_555
C35_4 C32_4 1_555 1_555
H29_4 C35_4 1_555 1_555
N10_4 C32_4 1_555 1_555
Ag2_6 N5_4 1_555 1_555
Ag5_2 N8_4 1_555 1_555
N21 C42_4 1_555 1_555
N12_4 C39_4 1_555 1_555
C37_4 H31_4 1_555 1_555
C38_4 H32_4 1_555 1_555
C39_4 C37_4 1_555 1_555
C40_4 C38_4 1_555 1_555
H33_4 C40_4 1_555 1_555
C41_4 C37_4 1_555 1_555
H34_4 C41_4 1_555 1_555
C42_4 H35_4 1_555 1_555
C43_4 C38_4 1_555 1_555
N13_4 N21 1_555 1_555
H36_4 N13_4 1_555 1_555
C44_4 N13_4 1_555 1_555
C45_3 H37_3 1_555 1_555
C46_3 H38_3 1_555 1_555
C47_4 C44_4 1_555 1_555
H39_4 C47_4 1_555 1_555
N23 C44_4 1_555 1_555
C48_3 C45_3 1_555 1_555
H40_3 C48_3 1_555 1_555
N15_4 Ag2_6 1_555 1_555
C49_4 H41_4 1_555 1_555
C50_4 H42_4 1_555 1_555
C51_4 N12_4 1_555 1_555
C52_4 C50_4 1_555 1_555
H43_4 C52_4 1_555 1_555
C53_4 C49_4 1_555 1_555
H44_4 C53_4 1_555 1_555
C54_4 N15_4 1_555 1_555
H45_4 C54_4 1_555 1_555
C55_4 C50_4 1_555 1_555
N16_4 N15_4 1_555 1_555
H46_4 N16_4 1_555 1_555
C56_4 N16_4 1_555 1_555
C59_4 C56_4 1_555 1_555
H49_4 C59_4 1_555 1_555
N17_4 Ag2_6 1_555 1_555
C61_4 H51_4 1_555 1_555
C62_4 H52_4 1_555 1_555
C63_4 N12_4 1_555 1_555
C64_4 C62_4 1_555 1_555
H53_4 C64_4 1_555 1_555
C65_4 C61_4 1_555 1_555
H54_4 C65_4 1_555 1_555
C67_4 C62_4 1_555 1_555
C3_4 C4_4 1_555 1_555
C5_4 C7_4 1_555 1_555
C6_4 C7_4 1_555 1_555
C8_4 N4_4 1_555 1_555
C13_4 C15_4 1_555 1_555
C15_4 C16_4 1_555 1_555
C17_4 C19_4 1_555 1_555
C18_4 C19_4 1_555 1_555
N7_4 Ag2_6 1_555 1_555
C25_4 C27_4 1_555 1_555
C27_4 C28_4 1_555 1_555
C29_4 C31_4 1_555 1_555
C30_4 C31_4 1_555 1_555
N10_4 Ag5_2 1_555 1_555
C39_4 C40_4 1_555 1_555
C41_4 C43_4 1_555 1_555
C42_4 C43_4 1_555 1_555
C45_3 C47_4 1_555 1_555
C46_3 N23 1_555 1_555
C46_3 C48_3 1_555 1_555
C49_4 C51_4 1_555 1_555
C51_4 C52_4 1_555 1_555
C53_4 C55_4 1_555 1_555
C54_4 C55_4 1_555 1_555
C56_4 N17_4 1_555 1_555
C61_4 C63_4 1_555 1_555
C63_4 C64_4 1_555 1_555
C65_4 C67_4 1_555 1_555
C66_4 C67_4 1_555 1_555
C57_4 H47_4 1_555 1_555
C58_4 H48_4 1_555 1_555
C60_4 C57_4 1_555 1_555
H50_4 C60_4 1_555 1_555
C58_4 C60_4 1_555 1_555
C21_4 H17_4 1_555 1_555
C22_4 H18_4 1_555 1_555
C24_4 C21_4 1_555 1_555
H20_4 C24_4 1_555 1_555
C22_4 C24_4 1_555 1_555
C45_4 H37_4 1_555 1_555
C46_4 H38_4 1_555 1_555
C48_4 C45_4 1_555 1_555
H40_4 C48_4 1_555 1_555
C46_4 C48_4 1_555 1_555
C33_4 H27_4 1_555 1_555
C34_4 H28_4 1_555 1_555
C36_4 C33_4 1_555 1_555
H30_4 C36_4 1_555 1_555
C34_4 C36_4 1_555 1_555
C9_4 H7_4 1_555 1_555
C10_4 H8_4 1_555 1_555
C12_4 C9_4 1_555 1_555
H10_4 C12_4 1_555 1_555
C10_4 C12_4 1_555 1_555
C69_4 H57_4 1_555 1_555
C70_4 H58_4 1_555 1_555
C72_4 C69_4 1_555 1_555
H60_4 C72_4 1_555 1_555
C70_4 C72_4 1_555 1_555

#END
