
###############################################################################
#
# This file contains modified crystal structure data generated from the
# MOF subset of the Cambridge Structural Database (CSD) v543 
# hosted by the Cambridge Crystallographic Data Centre (CCDC).
#
# This work is licensed under the Creative Commons
# Attribution-NonCommercial-ShareAlike 4.0 International License.
# To view a copy of this license, visit
# http://creativecommons.org/licenses/by-nc-sa/4.0/
# or send a letter to
# Creative Commons, PO Box 1866, Mountain View, CA 94042, USA.
#
# CIF created using the CSD Python API on 29 September 2022
# The structure has been converted into the P1 space group
# The structure has a 3D framework
# The original CSD entry KENYEK is in the cubic crystal system
# The original CSD entry KENYEK is in a Sohncke space group
# The framework has been calculated to contain at least 10.0% void space
# The void calculation uses a probe of radius 1.32A, grid spacing 0.4
# The framework is charged, counterions have been retained in the structure
#
###############################################################################

data_KENYEK
_chemical_formula_moiety         '(C288 H240 Ag14 Cl18 N80 O48 2+)n'
_symmetry_cell_setting           triclinic
_symmetry_space_group_name_H-M   'P 1'
_symmetry_Int_Tables_number      1
_space_group_name_Hall           'P 1'
loop_
_symmetry_equiv_pos_site_id
_symmetry_equiv_pos_as_xyz
1 x,y,z
_cell_length_a                   21.6586(5)
_cell_length_b                   21.6586(5)
_cell_length_c                   21.6586(5)
_cell_angle_alpha                90
_cell_angle_beta                 90
_cell_angle_gamma                90
_cell_volume                     10159.9
loop_
_atom_site_label
_atom_site_type_symbol
_atom_site_fract_x
_atom_site_fract_y
_atom_site_fract_z
Cl1 Cl 0.44405(9) 0.5000 0.2500
O1 O 0.4760(3) 0.4516(2) 0.2775(3)
O2 O 0.4101(3) 0.4733(3) 0.2033(4)
O3 O 0.4760(3) 0.5484(2) 0.2225(3)
O4 O 0.4101(3) 0.5267(3) 0.2967(4)
Cl1_2 Cl 0.05595(9) 0.5000 0.7500
O1_2 O 0.0240(3) 0.5484(2) 0.7775(3)
O2_2 O 0.0899(3) 0.5267(3) 0.7033(4)
O3_2 O 0.0240(3) 0.4516(2) 0.7225(3)
O4_2 O 0.0899(3) 0.4733(3) 0.7967(4)
Cl1_3 Cl 0.55595(9) 0.0000 0.2500
O3_3 O 0.5240(3) 0.0484(2) 0.2775(3)
O4_3 O 0.5899(3) 0.0267(3) 0.2033(4)
Cl1_4 Cl 0.55595(9) 1.0000 0.2500
O1_3 O 0.5240(3) 0.9516(2) 0.2225(3)
O2_3 O 0.5899(3) 0.9733(3) 0.2967(4)
Cl1_5 Cl 0.94405(9) 0.0000 0.7500
O1_4 O 0.9760(3) 0.0484(2) 0.7225(3)
O2_4 O 0.9101(3) 0.0267(3) 0.7967(4)
Cl1_6 Cl 0.94405(9) 1.0000 0.7500
O3_4 O 0.9760(3) 0.9516(2) 0.7775(3)
O4_4 O 0.9101(3) 0.9733(3) 0.7033(4)
Cl1_7 Cl 0.2500 0.44405(9) 0.5000
O1_5 O 0.2775(3) 0.4760(3) 0.4516(2)
O2_5 O 0.2033(4) 0.4101(3) 0.4733(3)
O3_5 O 0.2225(3) 0.4760(3) 0.5484(2)
O4_5 O 0.2967(4) 0.4101(3) 0.5267(3)
Cl1_8 Cl 0.7500 0.05595(9) 0.5000
O1_6 O 0.7775(3) 0.0240(3) 0.5484(2)
O2_6 O 0.7033(4) 0.0899(3) 0.5267(3)
O3_6 O 0.7225(3) 0.0240(3) 0.4516(2)
O4_6 O 0.7967(4) 0.0899(3) 0.4733(3)
Cl1_9 Cl 0.2500 0.55595(9) 0.0000
O3_7 O 0.2775(3) 0.5240(3) 0.0484(2)
O4_7 O 0.2033(4) 0.5899(3) 0.0267(3)
Cl1_10 Cl 0.2500 0.55595(9) 1.0000
O1_7 O 0.2225(3) 0.5240(3) 0.9516(2)
O2_7 O 0.2967(4) 0.5899(3) 0.9733(3)
Cl1_11 Cl 0.7500 0.94405(9) 0.0000
O1_8 O 0.7225(3) 0.9760(3) 0.0484(2)
O2_8 O 0.7967(4) 0.9101(3) 0.0267(3)
Cl1_12 Cl 0.7500 0.94405(9) 1.0000
O3_8 O 0.7775(3) 0.9760(3) 0.9516(2)
O4_8 O 0.7033(4) 0.9101(3) 0.9733(3)
Cl1_13 Cl 0.5000 0.2500 0.44405(9)
O1_9 O 0.4516(2) 0.2775(3) 0.4760(3)
O2_9 O 0.4733(3) 0.2033(4) 0.4101(3)
O3_9 O 0.5484(2) 0.2225(3) 0.4760(3)
O4_9 O 0.5267(3) 0.2967(4) 0.4101(3)
Cl1_14 Cl 0.5000 0.7500 0.05595(9)
O1_10 O 0.5484(2) 0.7775(3) 0.0240(3)
O2_10 O 0.5267(3) 0.7033(4) 0.0899(3)
O3_10 O 0.4516(2) 0.7225(3) 0.0240(3)
O4_10 O 0.4733(3) 0.7967(4) 0.0899(3)
Cl1_15 Cl 0.0000 0.2500 0.55595(9)
O3_11 O 0.0484(2) 0.2775(3) 0.5240(3)
O4_11 O 0.0267(3) 0.2033(4) 0.5899(3)
Cl1_16 Cl 1.0000 0.2500 0.55595(9)
O1_11 O 0.9516(2) 0.2225(3) 0.5240(3)
O2_11 O 0.9733(3) 0.2967(4) 0.5899(3)
Cl1_17 Cl 0.0000 0.7500 0.94405(9)
O1_12 O 0.0484(2) 0.7225(3) 0.9760(3)
O2_12 O 0.0267(3) 0.7967(4) 0.9101(3)
Cl1_18 Cl 1.0000 0.7500 0.94405(9)
O3_12 O 0.9516(2) 0.7775(3) 0.9760(3)
O4_12 O 0.9733(3) 0.7033(4) 0.9101(3)
C21 C 0.1618(4) 0.3976(4) 0.0136(4)
H17 H 0.1847 0.4311 0.0291
C22 C 0.1096(4) 0.3004(4) 0.0333(3)
H18 H 0.1008 0.2659 0.0581
C24 C 0.1559(4) 0.3432(5) 0.0505(4)
H20 H 0.1816 0.3362 0.0847
N5 N 0.01193(18) 0.33182(17) 0.8710(2)
H15 H 0.0149 0.3621 0.7882
N6 N 0.0617(2) 0.3664(2) 0.8866(2)
H16 H 0.0754 0.3941 0.8610
C20 C 0.0902(3) 0.3584(3) 0.9417(3)
C23 C 0.1370(3) 0.4021(3) 0.9600(3)
H19 H 0.1493 0.4336 0.9328
N7 N 0.0768(2) 0.3110(3) 0.9775(2)
Ag2 Ag -0.0000 0.2500 0.94976(3)
N11 N 0.33182(17) 0.1290(2) 0.48807(18)
N12 N 0.2186(2) 0.2814(2) 0.7186(2)
C37 C 0.2533(2) 0.19216(19) 0.6590(2)
H31 H 0.2364 0.1657 0.6890
C38 C 0.3023(2) 0.2694(2) 0.5703(2)
H32 H 0.3204 0.2959 0.5411
C39 C 0.2493(2) 0.2556(2) 0.6658(2)
C40 C 0.2742(2) 0.2936(2) 0.6180(3)
H33 H 0.2702 0.3368 0.6208
C41 C 0.2818(2) 0.1687(2) 0.6085(2)
H34 H 0.2853 0.1255 0.6052
C42 C 0.3371(2) 0.1841(2) 0.5072(2)
H35 H 0.3621 0.2118 0.4851
C43 C 0.3064(2) 0.2052(2) 0.5611(2)
N13 N 0.3664(2) 0.1134(2) 0.4383(2)
H36 H 0.3941 0.1390 0.4246
C44 C 0.3584(3) 0.0583(3) 0.4098(3)
C47 C 0.4021(3) 0.0400(3) 0.3630(3)
H39 H 0.4336 0.0672 0.3507
N14 N 0.3110(3) 0.0225(2) 0.4232(2)
C49 C 0.1590(2) 0.2467(2) 0.80784(19)
H41 H 0.1890 0.2636 0.8343
C50 C 0.0703(2) 0.1977(2) 0.7306(2)
H42 H 0.0411 0.1796 0.7041
C51 C 0.1658(2) 0.2507(2) 0.7444(2)
C52 C 0.1180(3) 0.2258(2) 0.7064(2)
H43 H 0.1208 0.2298 0.6632
C53 C 0.1085(2) 0.2182(2) 0.8313(2)
H44 H 0.1052 0.2147 0.8745
C54 C 0.0072(2) 0.1629(2) 0.8159(2)
C55 C 0.0611(2) 0.1936(2) 0.7948(2)
N18 N 0.3710(2) 0.51193(18) 0.83182(17)
C61 C 0.30784(19) 0.3410(2) 0.7533(2)
H51 H 0.3343 0.3110 0.7364
C62 C 0.2306(2) 0.4297(2) 0.8023(2)
H52 H 0.2041 0.4589 0.8204
C63 C 0.2444(2) 0.3342(2) 0.7493(2)
C64 C 0.2064(2) 0.3820(3) 0.7742(2)
H53 H 0.1632 0.3792 0.7702
C65 C 0.3313(2) 0.3915(2) 0.7818(2)
H54 H 0.3745 0.3948 0.7853
C66 C 0.3159(2) 0.4928(2) 0.8371(2)
H55 H 0.2882 0.5149 0.8621
C67 C 0.2948(2) 0.4389(2) 0.8064(2)
N19 N 0.3866(2) 0.5617(2) 0.8664(2)
H56 H 0.3610 0.5754 0.8941
C68 C 0.4417(3) 0.5902(3) 0.8584(3)
C69 C 0.5136(4) 0.6618(4) 0.8976(4)
H57 H 0.5291 0.6847 0.9311
C70 C 0.5333(3) 0.6096(4) 0.8004(4)
H58 H 0.5581 0.6008 0.7659
C71 C 0.4600(3) 0.6370(3) 0.9021(3)
H59 H 0.4328 0.6493 0.9336
N20 N 0.4775(2) 0.5768(2) 0.8110(3)
C72 C 0.5505(4) 0.6559(4) 0.8432(5)
H60 H 0.5847 0.6816 0.8362
Ag4 Ag 0.2500 0.05024(3) 0.5000
Ag5 Ag 0.44976(3) 0.5000 0.7500
C45 C 0.3976(4) 0.9864(4) 0.3382(4)
H37 H 0.4311 0.9709 0.3153
C46 C 0.3004(4) 0.9667(3) 0.3904(4)
H38 H 0.2659 0.9419 0.3992
C48 C 0.3432(5) 0.9495(4) 0.3441(4)
H40 H 0.3362 0.9153 0.3184
Ag1 Ag 0.7500 0.44976(3) 0.5000
N1 N 0.66818(17) 0.3710(2) 0.48807(18)
N2 N 0.7814(2) 0.2186(2) 0.7186(2)
C1 C 0.7467(2) 0.30784(19) 0.6590(2)
H1 H 0.7636 0.3343 0.6890
C2 C 0.6977(2) 0.2306(2) 0.5703(2)
H2 H 0.6796 0.2041 0.5411
C3 C 0.7507(2) 0.2444(2) 0.6658(2)
C4 C 0.7258(2) 0.2064(2) 0.6180(3)
H3 H 0.7298 0.1632 0.6208
C5 C 0.7182(2) 0.3313(2) 0.6085(2)
H4 H 0.7147 0.3745 0.6052
C6 C 0.6629(2) 0.3159(2) 0.5072(2)
H5 H 0.6379 0.2882 0.4851
C7 C 0.6936(2) 0.2948(2) 0.5611(2)
N3 N 0.6336(2) 0.3866(2) 0.4383(2)
H6 H 0.6059 0.3610 0.4246
C8 C 0.6416(3) 0.4417(3) 0.4098(3)
C9 C 0.6024(4) 0.5136(4) 0.3382(4)
H7 H 0.5689 0.5291 0.3153
C10 C 0.6996(4) 0.5333(3) 0.3904(4)
H8 H 0.7341 0.5581 0.3992
C11 C 0.5979(3) 0.4600(3) 0.3630(3)
H9 H 0.5664 0.4328 0.3507
N4 N 0.6890(3) 0.4775(2) 0.4232(2)
C12 C 0.6568(5) 0.5505(4) 0.3441(4)
H10 H 0.6638 0.5847 0.3184
C13 C 0.8410(2) 0.2533(2) 0.80784(19)
H11 H 0.8110 0.2364 0.8343
C14 C 0.9297(2) 0.3023(2) 0.7306(2)
H12 H 0.9589 0.3204 0.7041
C15 C 0.8342(2) 0.2493(2) 0.7444(2)
C16 C 0.8820(3) 0.2742(2) 0.7064(2)
H13 H 0.8792 0.2702 0.6632
C17 C 0.8915(2) 0.2818(2) 0.8313(2)
H14 H 0.8948 0.2853 0.8745
C18 C 0.9928(2) 0.3371(2) 0.8159(2)
C19 C 0.9389(2) 0.3064(2) 0.7948(2)
C25 C 0.69216(19) 0.1590(2) 0.7533(2)
H21 H 0.6657 0.1890 0.7364
C26 C 0.7694(2) 0.0703(2) 0.8023(2)
H22 H 0.7959 0.0411 0.8204
C27 C 0.7556(2) 0.1658(2) 0.7493(2)
C28 C 0.7936(2) 0.1180(3) 0.7742(2)
H23 H 0.8368 0.1208 0.7702
C29 C 0.6687(2) 0.1085(2) 0.7818(2)
H24 H 0.6255 0.1052 0.7853
C30 C 0.6841(2) 0.0072(2) 0.8371(2)
C31 C 0.7052(2) 0.0611(2) 0.8064(2)
Ag2_2 Ag 1.0000 0.2500 0.94976(3)
Ag3 Ag 0.55024(3) 0.0000 0.7500
N15 N 0.98807(18) 0.16818(17) 0.8710(2)
H45 H 0.9851 0.1379 0.7882
N16 N 0.9383(2) 0.1336(2) 0.8866(2)
H46 H 0.9246 0.1059 0.8610
C56 C 0.9098(3) 0.1416(3) 0.9417(3)
C59 C 0.8630(3) 0.0979(3) 0.9600(3)
H49 H 0.8507 0.0664 0.9328
N17 N 0.9232(2) 0.1890(3) 0.9775(2)
N21 N 0.83182(17) 0.3710(2) 0.51193(18)
N22 N 0.6290(2) 0.01193(18) 0.66818(17)
N23 N 0.8110(3) 0.4775(2) 0.5768(2)
N24 N 0.5225(2) 0.0768(2) 0.6890(3)
N8 N 0.6290(2) 0.98807(18) 0.83182(17)
H25 H 0.7118 0.9851 0.8621
N9 N 0.6134(2) 0.9383(2) 0.8664(2)
H26 H 0.6390 0.9246 0.8941
C32 C 0.5583(3) 0.9098(3) 0.8584(3)
C33 C 0.4864(4) 0.8382(4) 0.8976(4)
H27 H 0.4709 0.8153 0.9311
C34 C 0.4667(3) 0.8904(4) 0.8004(4)
H28 H 0.4419 0.8992 0.7659
C35 C 0.5400(3) 0.8630(3) 0.9021(3)
H29 H 0.5672 0.8507 0.9336
N10 N 0.5225(2) 0.9232(2) 0.8110(3)
C36 C 0.4495(4) 0.8441(4) 0.8432(5)
H30 H 0.4153 0.8184 0.8362
Ag3_2 Ag 0.55024(3) 1.0000 0.7500
N8_2 N 0.8710(2) 0.01193(18) 0.33182(17)
H25_2 H 0.7882 0.0149 0.3621
N9_2 N 0.8866(2) 0.0617(2) 0.3664(2)
H26_2 H 0.8610 0.0754 0.3941
C32_2 C 0.9417(3) 0.0902(3) 0.3584(3)
C35_2 C 0.9600(3) 0.1370(3) 0.4021(3)
H29_2 H 0.9328 0.1493 0.4336
N10_2 N 0.9775(2) 0.0768(2) 0.3110(3)
Ag3_3 Ag 0.94976(3) 0.0000 0.2500
Ag1_2 Ag 0.7500 0.55024(3) 0.0000
N2_2 N 0.7186(2) 0.7814(2) 0.2186(2)
C1_2 C 0.7533(2) 0.69216(19) 0.1590(2)
H1_2 H 0.7364 0.6657 0.1890
C2_2 C 0.8023(2) 0.7694(2) 0.0703(2)
H2_2 H 0.8204 0.7959 0.0411
C3_2 C 0.7493(2) 0.7556(2) 0.1658(2)
C4_2 C 0.7742(2) 0.7936(2) 0.1180(3)
H3_2 H 0.7702 0.8368 0.1208
C5_2 C 0.7818(2) 0.6687(2) 0.1085(2)
H4_2 H 0.7853 0.6255 0.1052
C6_2 C 0.8371(2) 0.6841(2) 0.0072(2)
C7_2 C 0.8064(2) 0.7052(2) 0.0611(2)
N5_2 N 0.48807(18) 0.66818(17) 0.3710(2)
C13_2 C 0.6590(2) 0.7467(2) 0.30784(19)
H11_2 H 0.6890 0.7636 0.3343
C14_2 C 0.5703(2) 0.6977(2) 0.2306(2)
H12_2 H 0.5411 0.6796 0.2041
C15_2 C 0.6658(2) 0.7507(2) 0.2444(2)
C16_2 C 0.6180(3) 0.7258(2) 0.2064(2)
H13_2 H 0.6208 0.7298 0.1632
C17_2 C 0.6085(2) 0.7182(2) 0.3313(2)
H14_2 H 0.6052 0.7147 0.3745
C18_2 C 0.5072(2) 0.6629(2) 0.3159(2)
H15_2 H 0.4851 0.6379 0.2882
C19_2 C 0.5611(2) 0.6936(2) 0.2948(2)
N6_2 N 0.4383(2) 0.6336(2) 0.3866(2)
H16_2 H 0.4246 0.6059 0.3610
C20_2 C 0.4098(3) 0.6416(3) 0.4417(3)
C21_2 C 0.3382(4) 0.6024(4) 0.5136(4)
H17_2 H 0.3153 0.5689 0.5291
C22_2 C 0.3904(4) 0.6996(4) 0.5333(3)
H18_2 H 0.3992 0.7341 0.5581
C23_2 C 0.3630(3) 0.5979(3) 0.4600(3)
H19_2 H 0.3507 0.5664 0.4328
N7_2 N 0.4232(2) 0.6890(3) 0.4775(2)
C24_2 C 0.3441(4) 0.6568(5) 0.5505(4)
H20_2 H 0.3184 0.6638 0.5847
C25_2 C 0.80784(19) 0.8410(2) 0.2533(2)
H21_2 H 0.8343 0.8110 0.2364
C26_2 C 0.7306(2) 0.9297(2) 0.3023(2)
H22_2 H 0.7041 0.9589 0.3204
C27_2 C 0.7444(2) 0.8342(2) 0.2493(2)
C28_2 C 0.7064(2) 0.8820(3) 0.2742(2)
H23_2 H 0.6632 0.8792 0.2702
C29_2 C 0.8313(2) 0.8915(2) 0.2818(2)
H24_2 H 0.8745 0.8948 0.2853
C30_2 C 0.8159(2) 0.9928(2) 0.3371(2)
C31_2 C 0.7948(2) 0.9389(2) 0.3064(2)
Ag2_3 Ag 0.5000 0.7500 0.44976(3)
Ag3_4 Ag 0.94976(3) 1.0000 0.2500
N12_2 N 0.2814(2) 0.7186(2) 0.2186(2)
C37_2 C 0.2467(2) 0.80784(19) 0.1590(2)
H31_2 H 0.2636 0.8343 0.1890
C38_2 C 0.1977(2) 0.7306(2) 0.0703(2)
H32_2 H 0.1796 0.7041 0.0411
C39_2 C 0.2507(2) 0.7444(2) 0.1658(2)
C40_2 C 0.2258(2) 0.7064(2) 0.1180(3)
H33_2 H 0.2298 0.6632 0.1208
C41_2 C 0.2182(2) 0.8313(2) 0.1085(2)
H34_2 H 0.2147 0.8745 0.1052
C42_2 C 0.1629(2) 0.8159(2) 0.0072(2)
C43_2 C 0.1936(2) 0.7948(2) 0.0611(2)
N15_2 N 0.51193(18) 0.83182(17) 0.3710(2)
C49_2 C 0.3410(2) 0.7533(2) 0.30784(19)
H41_2 H 0.3110 0.7364 0.3343
C50_2 C 0.4297(2) 0.8023(2) 0.2306(2)
H42_2 H 0.4589 0.8204 0.2041
C51_2 C 0.3342(2) 0.7493(2) 0.2444(2)
C52_2 C 0.3820(3) 0.7742(2) 0.2064(2)
H43_2 H 0.3792 0.7702 0.1632
C53_2 C 0.3915(2) 0.7818(2) 0.3313(2)
H44_2 H 0.3948 0.7853 0.3745
C54_2 C 0.4928(2) 0.8371(2) 0.3159(2)
H45_2 H 0.5149 0.8621 0.2882
C55_2 C 0.4389(2) 0.8064(2) 0.2948(2)
N16_2 N 0.5617(2) 0.8664(2) 0.3866(2)
H46_2 H 0.5754 0.8941 0.3610
C56_2 C 0.5902(3) 0.8584(3) 0.4417(3)
C57 C 0.6618(4) 0.8976(4) 0.5136(4)
H47 H 0.6847 0.9311 0.5291
C58 C 0.6096(4) 0.8004(4) 0.5333(3)
H48 H 0.6008 0.7659 0.5581
C59_2 C 0.6370(3) 0.9021(3) 0.4600(3)
H49_2 H 0.6493 0.9336 0.4328
N17_2 N 0.5768(2) 0.8110(3) 0.4775(2)
C60 C 0.6559(4) 0.8432(5) 0.5505(4)
H50 H 0.6816 0.8362 0.5847
N18_2 N 0.1290(2) 0.48807(18) 0.33182(17)
C61_2 C 0.19216(19) 0.6590(2) 0.2533(2)
H51_2 H 0.1657 0.6890 0.2364
C62_2 C 0.2694(2) 0.5703(2) 0.3023(2)
H52_2 H 0.2959 0.5411 0.3204
C63_2 C 0.2556(2) 0.6658(2) 0.2493(2)
C64_2 C 0.2936(2) 0.6180(3) 0.2742(2)
H53_2 H 0.3368 0.6208 0.2702
C65_2 C 0.1687(2) 0.6085(2) 0.2818(2)
H54_2 H 0.1255 0.6052 0.2853
C66_2 C 0.1841(2) 0.5072(2) 0.3371(2)
H55_2 H 0.2118 0.4851 0.3621
C67_2 C 0.2052(2) 0.5611(2) 0.3064(2)
N19_2 N 0.1134(2) 0.4383(2) 0.3664(2)
H56_2 H 0.1390 0.4246 0.3941
C68_2 C 0.0583(3) 0.4098(3) 0.3584(3)
C71_2 C 0.0400(3) 0.3630(3) 0.4021(3)
H59_2 H 0.0672 0.3507 0.4336
N20_2 N 0.0225(2) 0.4232(2) 0.3110(3)
Ag4_2 Ag 0.2500 0.94976(3) 0.0000
Ag5_2 Ag 0.05024(3) 0.5000 0.2500
N21_2 N 0.66818(17) 0.6290(2) 0.01193(18)
N22_2 N 0.8710(2) 0.98807(18) 0.16818(17)
N23_2 N 0.6890(3) 0.5225(2) 0.0768(2)
N24_2 N 0.9775(2) 0.9232(2) 0.1890(3)
Ag1_3 Ag 0.7500 0.55024(3) 1.0000
N1_2 N 0.83182(17) 0.6290(2) 0.98807(18)
H5_2 H 0.8621 0.7118 0.9851
N3_2 N 0.8664(2) 0.6134(2) 0.9383(2)
H6_2 H 0.8941 0.6390 0.9246
C8_2 C 0.8584(3) 0.5583(3) 0.9098(3)
C9_2 C 0.8976(4) 0.4864(4) 0.8382(4)
H7_2 H 0.9311 0.4709 0.8153
C10_2 C 0.8004(4) 0.4667(3) 0.8904(4)
H8_2 H 0.7659 0.4419 0.8992
C11_2 C 0.9021(3) 0.5400(3) 0.8630(3)
H9_2 H 0.9336 0.5672 0.8507
N4_2 N 0.8110(3) 0.5225(2) 0.9232(2)
C12_2 C 0.8432(5) 0.4495(4) 0.8441(4)
H10_2 H 0.8362 0.4153 0.8184
N11_2 N 0.16818(17) 0.8710(2) 0.98807(18)
H35_2 H 0.1379 0.7882 0.9851
N13_2 N 0.1336(2) 0.8866(2) 0.9383(2)
H36_2 H 0.1059 0.8610 0.9246
C44_2 C 0.1416(3) 0.9417(3) 0.9098(3)
C47_2 C 0.0979(3) 0.9600(3) 0.8630(3)
H39_2 H 0.0664 0.9328 0.8507
N14_2 N 0.1890(3) 0.9775(2) 0.9232(2)
Ag4_3 Ag 0.2500 0.94976(3) 1.0000
C69_2 C 0.9864(4) 0.3382(4) 0.3976(4)
H57_2 H 0.9709 0.3153 0.4311
C70_2 C 0.9667(3) 0.3904(4) 0.3004(4)
H58_2 H 0.9419 0.3992 0.2659
C72_2 C 0.9495(4) 0.3441(4) 0.3432(5)
H60_2 H 0.9153 0.3184 0.3362
N1_3 N 0.33182(17) 0.8710(2) 0.01193(18)
H5_3 H 0.3621 0.7882 0.0149
N3_3 N 0.3664(2) 0.8866(2) 0.0617(2)
H6_3 H 0.3941 0.8610 0.0754
C8_3 C 0.3584(3) 0.9417(3) 0.0902(3)
C11_3 C 0.4021(3) 0.9600(3) 0.1370(3)
H9_3 H 0.4336 0.9328 0.1493
N4_3 N 0.3110(3) 0.9775(2) 0.0768(2)
N2_3 N 0.2186(2) 0.7186(2) 0.7814(2)
C1_3 C 0.2533(2) 0.80784(19) 0.8410(2)
H1_3 H 0.2364 0.8343 0.8110
C2_3 C 0.3023(2) 0.7306(2) 0.9297(2)
H2_3 H 0.3204 0.7041 0.9589
C3_3 C 0.2493(2) 0.7444(2) 0.8342(2)
C4_3 C 0.2742(2) 0.7064(2) 0.8820(3)
H3_3 H 0.2702 0.6632 0.8792
C5_3 C 0.2818(2) 0.8313(2) 0.8915(2)
H4_3 H 0.2853 0.8745 0.8948
C6_3 C 0.3371(2) 0.8159(2) 0.9928(2)
C7_3 C 0.3064(2) 0.7948(2) 0.9389(2)
C13_3 C 0.1590(2) 0.7533(2) 0.69216(19)
H11_3 H 0.1890 0.7364 0.6657
C14_3 C 0.0703(2) 0.8023(2) 0.7694(2)
H12_3 H 0.0411 0.8204 0.7959
C15_3 C 0.1658(2) 0.7493(2) 0.7556(2)
C16_3 C 0.1180(3) 0.7742(2) 0.7936(2)
H13_3 H 0.1208 0.7702 0.8368
C17_3 C 0.1085(2) 0.7818(2) 0.6687(2)
H14_3 H 0.1052 0.7853 0.6255
C18_3 C 0.0072(2) 0.8371(2) 0.6841(2)
C19_3 C 0.0611(2) 0.8064(2) 0.7052(2)
N8_3 N 0.3710(2) 0.48807(18) 0.66818(17)
C25_3 C 0.30784(19) 0.6590(2) 0.7467(2)
H21_3 H 0.3343 0.6890 0.7636
C26_3 C 0.2306(2) 0.5703(2) 0.6977(2)
H22_3 H 0.2041 0.5411 0.6796
C27_3 C 0.2444(2) 0.6658(2) 0.7507(2)
C28_3 C 0.2064(2) 0.6180(3) 0.7258(2)
H23_3 H 0.1632 0.6208 0.7298
C29_3 C 0.3313(2) 0.6085(2) 0.7182(2)
H24_3 H 0.3745 0.6052 0.7147
C30_3 C 0.3159(2) 0.5072(2) 0.6629(2)
H25_3 H 0.2882 0.4851 0.6379
C31_3 C 0.2948(2) 0.5611(2) 0.6936(2)
N9_3 N 0.3866(2) 0.4383(2) 0.6336(2)
H26_3 H 0.3610 0.4246 0.6059
C32_3 C 0.4417(3) 0.4098(3) 0.6416(3)
C33_2 C 0.5136(4) 0.3382(4) 0.6024(4)
H27_2 H 0.5291 0.3153 0.5689
C34_2 C 0.5333(3) 0.3904(4) 0.6996(4)
H28_2 H 0.5581 0.3992 0.7341
C35_3 C 0.4600(3) 0.3630(3) 0.5979(3)
H29_3 H 0.4328 0.3507 0.5664
N10_3 N 0.4775(2) 0.4232(2) 0.6890(3)
C36_2 C 0.5505(4) 0.3441(4) 0.6568(5)
H30_2 H 0.5847 0.3184 0.6638
Ag2_4 Ag 0.0000 0.7500 0.55024(3)
N15_3 N 0.01193(18) 0.66818(17) 0.6290(2)
H45_3 H 0.0149 0.6379 0.7118
N16_3 N 0.0617(2) 0.6336(2) 0.6134(2)
H46_3 H 0.0754 0.6059 0.6390
C56_3 C 0.0902(3) 0.6416(3) 0.5583(3)
C57_2 C 0.1618(4) 0.6024(4) 0.4864(4)
H47_2 H 0.1847 0.5689 0.4709
C58_2 C 0.1096(4) 0.6996(4) 0.4667(3)
H48_2 H 0.1008 0.7341 0.4419
C59_3 C 0.1370(3) 0.5979(3) 0.5400(3)
H49_3 H 0.1493 0.5664 0.5672
N17_3 N 0.0768(2) 0.6890(3) 0.5225(2)
C60_2 C 0.1559(4) 0.6568(5) 0.4495(4)
H50_2 H 0.1816 0.6638 0.4153
H55_3 H 0.7118 0.0149 0.6379
N19_3 N 0.6134(2) 0.0617(2) 0.6336(2)
H56_3 H 0.6390 0.0754 0.6059
C68_3 C 0.5583(3) 0.0902(3) 0.6416(3)
C69_3 C 0.4864(4) 0.1618(4) 0.6024(4)
H57_3 H 0.4709 0.1847 0.5689
C70_3 C 0.4667(3) 0.1096(4) 0.6996(4)
H58_3 H 0.4419 0.1008 0.7341
C71_3 C 0.5400(3) 0.1370(3) 0.5979(3)
H59_3 H 0.5672 0.1493 0.5664
C72_3 C 0.4495(4) 0.1559(4) 0.6568(5)
H60_3 H 0.4153 0.1816 0.6638
H35_3 H 0.6379 0.7118 0.0149
N13_3 N 0.6336(2) 0.6134(2) 0.0617(2)
H36_3 H 0.6059 0.6390 0.0754
C44_3 C 0.6416(3) 0.5583(3) 0.0902(3)
C45_2 C 0.6024(4) 0.4864(4) 0.1618(4)
H37_2 H 0.5689 0.4709 0.1847
C46_2 C 0.6996(4) 0.4667(3) 0.1096(4)
H38_2 H 0.7341 0.4419 0.1008
C47_3 C 0.5979(3) 0.5400(3) 0.1370(3)
H39_3 H 0.5664 0.5672 0.1493
C48_2 C 0.6568(5) 0.4495(4) 0.1559(4)
H40_2 H 0.6638 0.4153 0.1816
N5_3 N 0.98807(18) 0.83182(17) 0.6290(2)
H15_3 H 0.9851 0.8621 0.7118
N6_3 N 0.9383(2) 0.8664(2) 0.6134(2)
H16_3 H 0.9246 0.8941 0.6390
C20_3 C 0.9098(3) 0.8584(3) 0.5583(3)
C21_3 C 0.8382(4) 0.8976(4) 0.4864(4)
H17_3 H 0.8153 0.9311 0.4709
C22_3 C 0.8904(4) 0.8004(4) 0.4667(3)
H18_3 H 0.8992 0.7659 0.4419
C23_3 C 0.8630(3) 0.9021(3) 0.5400(3)
H19_3 H 0.8507 0.9336 0.5672
N7_3 N 0.9232(2) 0.8110(3) 0.5225(2)
C24_3 C 0.8441(4) 0.8432(5) 0.4495(4)
H20_3 H 0.8184 0.8362 0.4153
Ag2_5 Ag 1.0000 0.7500 0.55024(3)
N12_3 N 0.7814(2) 0.7814(2) 0.7814(2)
C37_3 C 0.7467(2) 0.69216(19) 0.8410(2)
H31_3 H 0.7636 0.6657 0.8110
C38_3 C 0.6977(2) 0.7694(2) 0.9297(2)
H32_3 H 0.6796 0.7959 0.9589
C39_3 C 0.7507(2) 0.7556(2) 0.8342(2)
C40_3 C 0.7258(2) 0.7936(2) 0.8820(3)
H33_3 H 0.7298 0.8368 0.8792
C41_3 C 0.7182(2) 0.6687(2) 0.8915(2)
H34_3 H 0.7147 0.6255 0.8948
C42_3 C 0.6629(2) 0.6841(2) 0.9928(2)
C43_3 C 0.6936(2) 0.7052(2) 0.9389(2)
C49_3 C 0.8410(2) 0.7467(2) 0.69216(19)
H41_3 H 0.8110 0.7636 0.6657
C50_3 C 0.9297(2) 0.6977(2) 0.7694(2)
H42_3 H 0.9589 0.6796 0.7959
C51_3 C 0.8342(2) 0.7507(2) 0.7556(2)
C52_3 C 0.8820(3) 0.7258(2) 0.7936(2)
H43_3 H 0.8792 0.7298 0.8368
C53_3 C 0.8915(2) 0.7182(2) 0.6687(2)
H44_3 H 0.8948 0.7147 0.6255
C54_3 C 0.9928(2) 0.6629(2) 0.6841(2)
C55_3 C 0.9389(2) 0.6936(2) 0.7052(2)
C61_3 C 0.69216(19) 0.8410(2) 0.7467(2)
H51_3 H 0.6657 0.8110 0.7636
C62_3 C 0.7694(2) 0.9297(2) 0.6977(2)
H52_3 H 0.7959 0.9589 0.6796
C63_3 C 0.7556(2) 0.8342(2) 0.7507(2)
C64_3 C 0.7936(2) 0.8820(3) 0.7258(2)
H53_3 H 0.8368 0.8792 0.7298
C65_3 C 0.6687(2) 0.8915(2) 0.7182(2)
H54_3 H 0.6255 0.8948 0.7147
C66_3 C 0.6841(2) 0.9928(2) 0.6629(2)
C67_3 C 0.7052(2) 0.9389(2) 0.6936(2)
N1_4 N 0.16818(17) 0.1290(2) 0.51193(18)
N2_4 N 0.2814(2) 0.2814(2) 0.2814(2)
C1_4 C 0.2467(2) 0.19216(19) 0.3410(2)
H1_4 H 0.2636 0.1657 0.3110
C2_4 C 0.1977(2) 0.2694(2) 0.4297(2)
H2_4 H 0.1796 0.2959 0.4589
C3_4 C 0.2507(2) 0.2556(2) 0.3342(2)
C4_4 C 0.2258(2) 0.2936(2) 0.3820(3)
H3_4 H 0.2298 0.3368 0.3792
C5_4 C 0.2182(2) 0.1687(2) 0.3915(2)
H4_4 H 0.2147 0.1255 0.3948
C6_4 C 0.1629(2) 0.1841(2) 0.4928(2)
H5_4 H 0.1379 0.2118 0.5149
C7_4 C 0.1936(2) 0.2052(2) 0.4389(2)
N3_4 N 0.1336(2) 0.1134(2) 0.5617(2)
H6_4 H 0.1059 0.1390 0.5754
C8_4 C 0.1416(3) 0.0583(3) 0.5902(3)
C11_4 C 0.0979(3) 0.0400(3) 0.6370(3)
H9_4 H 0.0664 0.0672 0.6493
N4_4 N 0.1890(3) 0.0225(2) 0.5768(2)
N5_4 N 0.51193(18) 0.16818(17) 0.1290(2)
C13_4 C 0.3410(2) 0.2467(2) 0.19216(19)
H11_4 H 0.3110 0.2636 0.1657
C14_4 C 0.4297(2) 0.1977(2) 0.2694(2)
H12_4 H 0.4589 0.1796 0.2959
C15_4 C 0.3342(2) 0.2507(2) 0.2556(2)
C16_4 C 0.3820(3) 0.2258(2) 0.2936(2)
H13_4 H 0.3792 0.2298 0.3368
C17_4 C 0.3915(2) 0.2182(2) 0.1687(2)
H14_4 H 0.3948 0.2147 0.1255
C18_4 C 0.4928(2) 0.1629(2) 0.1841(2)
H15_4 H 0.5149 0.1379 0.2118
C19_4 C 0.4389(2) 0.1936(2) 0.2052(2)
N6_4 N 0.5617(2) 0.1336(2) 0.1134(2)
H16_4 H 0.5754 0.1059 0.1390
C20_4 C 0.5902(3) 0.1416(3) 0.0583(3)
C23_4 C 0.6370(3) 0.0979(3) 0.0400(3)
H19_4 H 0.6493 0.0664 0.0672
N7_4 N 0.5768(2) 0.1890(3) 0.0225(2)
N8_4 N 0.1290(2) 0.51193(18) 0.16818(17)
C25_4 C 0.19216(19) 0.3410(2) 0.2467(2)
H21_4 H 0.1657 0.3110 0.2636
C26_4 C 0.2694(2) 0.4297(2) 0.1977(2)
H22_4 H 0.2959 0.4589 0.1796
C27_4 C 0.2556(2) 0.3342(2) 0.2507(2)
C28_4 C 0.2936(2) 0.3820(3) 0.2258(2)
H23_4 H 0.3368 0.3792 0.2298
C29_4 C 0.1687(2) 0.3915(2) 0.2182(2)
H24_4 H 0.1255 0.3948 0.2147
C30_4 C 0.1841(2) 0.4928(2) 0.1629(2)
H25_4 H 0.2118 0.5149 0.1379
C31_4 C 0.2052(2) 0.4389(2) 0.1936(2)
N9_4 N 0.1134(2) 0.5617(2) 0.1336(2)
H26_4 H 0.1390 0.5754 0.1059
C32_4 C 0.0583(3) 0.5902(3) 0.1416(3)
C35_4 C 0.0400(3) 0.6370(3) 0.0979(3)
H29_4 H 0.0672 0.6493 0.0664
N10_4 N 0.0225(2) 0.5768(2) 0.1890(3)
Ag2_6 Ag 0.5000 0.2500 0.05024(3)
N12_4 N 0.7186(2) 0.2186(2) 0.2814(2)
C37_4 C 0.7533(2) 0.30784(19) 0.3410(2)
H31_4 H 0.7364 0.3343 0.3110
C38_4 C 0.8023(2) 0.2306(2) 0.4297(2)
H32_4 H 0.8204 0.2041 0.4589
C39_4 C 0.7493(2) 0.2444(2) 0.3342(2)
C40_4 C 0.7742(2) 0.2064(2) 0.3820(3)
H33_4 H 0.7702 0.1632 0.3792
C41_4 C 0.7818(2) 0.3313(2) 0.3915(2)
H34_4 H 0.7853 0.3745 0.3948
C42_4 C 0.8371(2) 0.3159(2) 0.4928(2)
H35_4 H 0.8621 0.2882 0.5149
C43_4 C 0.8064(2) 0.2948(2) 0.4389(2)
N13_4 N 0.8664(2) 0.3866(2) 0.5617(2)
H36_4 H 0.8941 0.3610 0.5754
C44_4 C 0.8584(3) 0.4417(3) 0.5902(3)
C45_3 C 0.8976(4) 0.5136(4) 0.6618(4)
H37_3 H 0.9311 0.5291 0.6847
C46_3 C 0.8004(4) 0.5333(3) 0.6096(4)
H38_3 H 0.7659 0.5581 0.6008
C47_4 C 0.9021(3) 0.4600(3) 0.6370(3)
H39_4 H 0.9336 0.4328 0.6493
C48_3 C 0.8432(5) 0.5505(4) 0.6559(4)
H40_3 H 0.8362 0.5847 0.6816
N15_4 N 0.48807(18) 0.33182(17) 0.1290(2)
C49_4 C 0.6590(2) 0.2533(2) 0.19216(19)
H41_4 H 0.6890 0.2364 0.1657
C50_4 C 0.5703(2) 0.3023(2) 0.2694(2)
H42_4 H 0.5411 0.3204 0.2959
C51_4 C 0.6658(2) 0.2493(2) 0.2556(2)
C52_4 C 0.6180(3) 0.2742(2) 0.2936(2)
H43_4 H 0.6208 0.2702 0.3368
C53_4 C 0.6085(2) 0.2818(2) 0.1687(2)
H44_4 H 0.6052 0.2853 0.1255
C54_4 C 0.5072(2) 0.3371(2) 0.1841(2)
H45_4 H 0.4851 0.3621 0.2118
C55_4 C 0.5611(2) 0.3064(2) 0.2052(2)
N16_4 N 0.4383(2) 0.3664(2) 0.1134(2)
H46_4 H 0.4246 0.3941 0.1390
C56_4 C 0.4098(3) 0.3584(3) 0.0583(3)
C59_4 C 0.3630(3) 0.4021(3) 0.0400(3)
H49_4 H 0.3507 0.4336 0.0672
N17_4 N 0.4232(2) 0.3110(3) 0.0225(2)
C61_4 C 0.80784(19) 0.1590(2) 0.2467(2)
H51_4 H 0.8343 0.1890 0.2636
C62_4 C 0.7306(2) 0.0703(2) 0.1977(2)
H52_4 H 0.7041 0.0411 0.1796
C63_4 C 0.7444(2) 0.1658(2) 0.2507(2)
C64_4 C 0.7064(2) 0.1180(3) 0.2258(2)
H53_4 H 0.6632 0.1208 0.2298
C65_4 C 0.8313(2) 0.1085(2) 0.2182(2)
H54_4 H 0.8745 0.1052 0.2147
C66_4 C 0.8159(2) 0.0072(2) 0.1629(2)
C67_4 C 0.7948(2) 0.0611(2) 0.1936(2)
C21_4 C 0.6618(4) 0.1024(4) 0.9864(4)
H17_4 H 0.6847 0.0689 0.9709
C22_4 C 0.6096(4) 0.1996(4) 0.9667(3)
H18_4 H 0.6008 0.2341 0.9419
C24_4 C 0.6559(4) 0.1568(5) 0.9495(4)
H20_4 H 0.6816 0.1638 0.9153
C57_3 C 0.3382(4) 0.3976(4) 0.9864(4)
H47_3 H 0.3153 0.4311 0.9709
C58_3 C 0.3904(4) 0.3004(4) 0.9667(3)
H48_3 H 0.3992 0.2659 0.9419
C60_3 C 0.3441(4) 0.3432(5) 0.9495(4)
H50_3 H 0.3184 0.3362 0.9153
C9_3 C 0.1024(4) 0.9864(4) 0.6618(4)
H7_3 H 0.0689 0.9709 0.6847
C10_3 C 0.1996(4) 0.9667(3) 0.6096(4)
H8_3 H 0.2341 0.9419 0.6008
C12_3 C 0.1568(5) 0.9495(4) 0.6559(4)
H10_3 H 0.1638 0.9153 0.6816
H55_4 H 0.7882 0.9851 0.1379
N19_4 N 0.8866(2) 0.9383(2) 0.1336(2)
H56_4 H 0.8610 0.9246 0.1059
C68_4 C 0.9417(3) 0.9098(3) 0.1416(3)
C71_4 C 0.9600(3) 0.8630(3) 0.0979(3)
H59_4 H 0.9328 0.8507 0.0664
C33_3 C 0.9864(4) 0.6618(4) 0.1024(4)
H27_3 H 0.9709 0.6847 0.0689
C34_3 C 0.9667(3) 0.6096(4) 0.1996(4)
H28_3 H 0.9419 0.6008 0.2341
C36_3 C 0.9495(4) 0.6559(4) 0.1568(5)
H30_3 H 0.9153 0.6816 0.1638
C57_4 C 0.8382(4) 0.1024(4) 0.0136(4)
H47_4 H 0.8153 0.0689 0.0291
C58_4 C 0.8904(4) 0.1996(4) 0.0333(3)
H48_4 H 0.8992 0.2341 0.0581
C60_4 C 0.8441(4) 0.1568(5) 0.0505(4)
H50_4 H 0.8184 0.1638 0.0847
C33_4 C 0.0136(4) 0.1618(4) 0.3976(4)
H27_4 H 0.0291 0.1847 0.4311
C34_4 C 0.0333(3) 0.1096(4) 0.3004(4)
H28_4 H 0.0581 0.1008 0.2659
C36_4 C 0.0505(4) 0.1559(4) 0.3432(5)
H30_4 H 0.0847 0.1816 0.3362
C45_4 C 0.1024(4) 0.0136(4) 0.8382(4)
H37_4 H 0.0689 0.0291 0.8153
C46_4 C 0.1996(4) 0.0333(3) 0.8904(4)
H38_4 H 0.2341 0.0581 0.8992
C48_4 C 0.1568(5) 0.0505(4) 0.8441(4)
H40_4 H 0.1638 0.0847 0.8184
C9_4 C 0.3976(4) 0.0136(4) 0.1618(4)
H7_4 H 0.4311 0.0291 0.1847
C10_4 C 0.3004(4) 0.0333(3) 0.1096(4)
H8_4 H 0.2659 0.0581 0.1008
C12_4 C 0.3432(5) 0.0505(4) 0.1559(4)
H10_4 H 0.3362 0.0847 0.1816
C69_4 C 0.0136(4) 0.8382(4) 0.1024(4)
H57_4 H 0.0291 0.8153 0.0689
C70_4 C 0.0333(3) 0.8904(4) 0.1996(4)
H58_4 H 0.0581 0.8992 0.2341
C72_4 C 0.0505(4) 0.8441(4) 0.1568(5)
H60_4 H 0.0847 0.8184 0.1638
loop_
_geom_bond_atom_site_label_1
_geom_bond_atom_site_label_2
_geom_bond_site_symmetry_1
_geom_bond_site_symmetry_2
Cl1 O1 1_555 1_555
O2 Cl1 1_555 1_555
O3 Cl1 1_555 1_555
O4 Cl1 1_555 1_555
Cl1_2 O1_2 1_555 1_555
O2_2 Cl1_2 1_555 1_555
O3_2 Cl1_2 1_555 1_555
O4_2 Cl1_2 1_555 1_555
O3_3 Cl1_3 1_555 1_555
O4_3 Cl1_3 1_555 1_555
Cl1_4 O1_3 1_555 1_555
O2_3 Cl1_4 1_555 1_555
Cl1_5 O1_4 1_555 1_555
O2_4 Cl1_5 1_555 1_555
O3_4 Cl1_6 1_555 1_555
O4_4 Cl1_6 1_555 1_555
Cl1_7 O1_5 1_555 1_555
O2_5 Cl1_7 1_555 1_555
O3_5 Cl1_7 1_555 1_555
O4_5 Cl1_7 1_555 1_555
Cl1_8 O1_6 1_555 1_555
O2_6 Cl1_8 1_555 1_555
O3_6 Cl1_8 1_555 1_555
O4_6 Cl1_8 1_555 1_555
O3_7 Cl1_9 1_555 1_555
O4_7 Cl1_9 1_555 1_555
Cl1_10 O1_7 1_555 1_555
O2_7 Cl1_10 1_555 1_555
Cl1_11 O1_8 1_555 1_555
O2_8 Cl1_11 1_555 1_555
O3_8 Cl1_12 1_555 1_555
O4_8 Cl1_12 1_555 1_555
Cl1_13 O1_9 1_555 1_555
O2_9 Cl1_13 1_555 1_555
O3_9 Cl1_13 1_555 1_555
O4_9 Cl1_13 1_555 1_555
Cl1_14 O1_10 1_555 1_555
O2_10 Cl1_14 1_555 1_555
O3_10 Cl1_14 1_555 1_555
O4_10 Cl1_14 1_555 1_555
O3_11 Cl1_15 1_555 1_555
O4_11 Cl1_15 1_555 1_555
Cl1_16 O1_11 1_555 1_555
O2_11 Cl1_16 1_555 1_555
Cl1_17 O1_12 1_555 1_555
O2_12 Cl1_17 1_555 1_555
O3_12 Cl1_18 1_555 1_555
O4_12 Cl1_18 1_555 1_555
C21 H17 1_555 1_555
C22 H18 1_555 1_555
C24 C21 1_555 1_555
H20 C24 1_555 1_555
C22 C24 1_555 1_555
N6 N5 1_555 1_555
H16 N6 1_555 1_555
C20 N6 1_555 1_555
C23 C20 1_555 1_555
H19 C23 1_555 1_555
N7 C20 1_555 1_555
Ag2 N5 1_555 1_555
N11 C42 1_555 1_555
N12 C39 1_555 1_555
C37 H31 1_555 1_555
C38 H32 1_555 1_555
C39 C37 1_555 1_555
C40 C38 1_555 1_555
H33 C40 1_555 1_555
C41 C37 1_555 1_555
H34 C41 1_555 1_555
C42 H35 1_555 1_555
C43 C38 1_555 1_555
N13 N11 1_555 1_555
H36 N13 1_555 1_555
C44 N13 1_555 1_555
C47 C44 1_555 1_555
H39 C47 1_555 1_555
N14 C44 1_555 1_555
C49 H41 1_555 1_555
C50 H42 1_555 1_555
C51 N12 1_555 1_555
C52 C50 1_555 1_555
H43 C52 1_555 1_555
C53 C49 1_555 1_555
H44 C53 1_555 1_555
C55 C50 1_555 1_555
N18 C66 1_555 1_555
C61 H51 1_555 1_555
C62 H52 1_555 1_555
C63 N12 1_555 1_555
C64 C62 1_555 1_555
H53 C64 1_555 1_555
C65 C61 1_555 1_555
H54 C65 1_555 1_555
C66 H55 1_555 1_555
C67 C62 1_555 1_555
N19 N18 1_555 1_555
H56 N19 1_555 1_555
C68 N19 1_555 1_555
C69 H57 1_555 1_555
C70 H58 1_555 1_555
C71 C68 1_555 1_555
H59 C71 1_555 1_555
N20 C68 1_555 1_555
C72 C69 1_555 1_555
H60 C72 1_555 1_555
Ag4 N11 1_555 1_555
Ag5 N18 1_555 1_555
N7 Ag2 1_555 1_555
C39 C40 1_555 1_555
C41 C43 1_555 1_555
C42 C43 1_555 1_555
N14 Ag4 1_555 1_555
C49 C51 1_555 1_555
C51 C52 1_555 1_555
C53 C55 1_555 1_555
C54 C55 1_555 1_555
C61 C63 1_555 1_555
C63 C64 1_555 1_555
C65 C67 1_555 1_555
C66 C67 1_555 1_555
C69 C71 1_555 1_555
C70 N20 1_555 1_555
C70 C72 1_555 1_555
N20 Ag5 1_555 1_555
C45 H37 1_555 1_555
C46 H38 1_555 1_555
C48 C45 1_555 1_555
H40 C48 1_555 1_555
C46 C48 1_555 1_555
Ag1 N1 1_555 1_555
N1 C6 1_555 1_555
N2 C3 1_555 1_555
C1 H1 1_555 1_555
C2 H2 1_555 1_555
C3 C1 1_555 1_555
C4 C2 1_555 1_555
H3 C4 1_555 1_555
C5 C1 1_555 1_555
H4 C5 1_555 1_555
C6 H5 1_555 1_555
C7 C2 1_555 1_555
N3 N1 1_555 1_555
H6 N3 1_555 1_555
C8 N3 1_555 1_555
C9 H7 1_555 1_555
C10 H8 1_555 1_555
C11 C8 1_555 1_555
H9 C11 1_555 1_555
N4 Ag1 1_555 1_555
C12 C9 1_555 1_555
H10 C12 1_555 1_555
C13 H11 1_555 1_555
C14 H12 1_555 1_555
C15 N2 1_555 1_555
C16 C14 1_555 1_555
H13 C16 1_555 1_555
C17 C13 1_555 1_555
H14 C17 1_555 1_555
C19 C14 1_555 1_555
C25 H21 1_555 1_555
C26 H22 1_555 1_555
C27 N2 1_555 1_555
C28 C26 1_555 1_555
H23 C28 1_555 1_555
C29 C25 1_555 1_555
H24 C29 1_555 1_555
C31 C26 1_555 1_555
N15 Ag2_2 1_555 1_555
N16 N15 1_555 1_555
H46 N16 1_555 1_555
C56 N16 1_555 1_555
C59 C56 1_555 1_555
H49 C59 1_555 1_555
N17 Ag2_2 1_555 1_555
N21 Ag1 1_555 1_555
N22 Ag3 1_555 1_555
N23 Ag1 1_555 1_555
N24 Ag3 1_555 1_555
C3 C4 1_555 1_555
C5 C7 1_555 1_555
C6 C7 1_555 1_555
C8 N4 1_555 1_555
C9 C11 1_555 1_555
C10 N4 1_555 1_555
C10 C12 1_555 1_555
C13 C15 1_555 1_555
C15 C16 1_555 1_555
C17 C19 1_555 1_555
C18 C19 1_555 1_555
C25 C27 1_555 1_555
C27 C28 1_555 1_555
C29 C31 1_555 1_555
C30 C31 1_555 1_555
C56 N17 1_555 1_555
N9 N8 1_555 1_555
H26 N9 1_555 1_555
C32 N9 1_555 1_555
C33 H27 1_555 1_555
C34 H28 1_555 1_555
C35 C32 1_555 1_555
H29 C35 1_555 1_555
N10 C32 1_555 1_555
C36 C33 1_555 1_555
H30 C36 1_555 1_555
Ag3_2 N8 1_555 1_555
C33 C35 1_555 1_555
C34 N10 1_555 1_555
C34 C36 1_555 1_555
N10 Ag3_2 1_555 1_555
N9_2 N8_2 1_555 1_555
H26_2 N9_2 1_555 1_555
C32_2 N9_2 1_555 1_555
C35_2 C32_2 1_555 1_555
H29_2 C35_2 1_555 1_555
N10_2 C32_2 1_555 1_555
Ag3_3 N8_2 1_555 1_555
N10_2 Ag3_3 1_555 1_555
N2_2 C3_2 1_555 1_555
C1_2 H1_2 1_555 1_555
C2_2 H2_2 1_555 1_555
C3_2 C1_2 1_555 1_555
C4_2 C2_2 1_555 1_555
H3_2 C4_2 1_555 1_555
C5_2 C1_2 1_555 1_555
H4_2 C5_2 1_555 1_555
C7_2 C2_2 1_555 1_555
N5_2 C18_2 1_555 1_555
C13_2 H11_2 1_555 1_555
C14_2 H12_2 1_555 1_555
C15_2 N2_2 1_555 1_555
C16_2 C14_2 1_555 1_555
H13_2 C16_2 1_555 1_555
C17_2 C13_2 1_555 1_555
H14_2 C17_2 1_555 1_555
C18_2 H15_2 1_555 1_555
C19_2 C14_2 1_555 1_555
N6_2 N5_2 1_555 1_555
H16_2 N6_2 1_555 1_555
C20_2 N6_2 1_555 1_555
C21_2 H17_2 1_555 1_555
C22_2 H18_2 1_555 1_555
C23_2 C20_2 1_555 1_555
H19_2 C23_2 1_555 1_555
N7_2 C20_2 1_555 1_555
C24_2 C21_2 1_555 1_555
H20_2 C24_2 1_555 1_555
C25_2 H21_2 1_555 1_555
C26_2 H22_2 1_555 1_555
C27_2 N2_2 1_555 1_555
C28_2 C26_2 1_555 1_555
H23_2 C28_2 1_555 1_555
C29_2 C25_2 1_555 1_555
H24_2 C29_2 1_555 1_555
C31_2 C26_2 1_555 1_555
Ag2_3 N5_2 1_555 1_555
N12_2 C39_2 1_555 1_555
C37_2 H31_2 1_555 1_555
C38_2 H32_2 1_555 1_555
C39_2 C37_2 1_555 1_555
C40_2 C38_2 1_555 1_555
H33_2 C40_2 1_555 1_555
C41_2 C37_2 1_555 1_555
H34_2 C41_2 1_555 1_555
C43_2 C38_2 1_555 1_555
N15_2 Ag2_3 1_555 1_555
C49_2 H41_2 1_555 1_555
C50_2 H42_2 1_555 1_555
C51_2 N12_2 1_555 1_555
C52_2 C50_2 1_555 1_555
H43_2 C52_2 1_555 1_555
C53_2 C49_2 1_555 1_555
H44_2 C53_2 1_555 1_555
C54_2 N15_2 1_555 1_555
H45_2 C54_2 1_555 1_555
C55_2 C50_2 1_555 1_555
N16_2 N15_2 1_555 1_555
H46_2 N16_2 1_555 1_555
C56_2 N16_2 1_555 1_555
C57 H47 1_555 1_555
C58 H48 1_555 1_555
C59_2 C56_2 1_555 1_555
H49_2 C59_2 1_555 1_555
N17_2 Ag2_3 1_555 1_555
C60 C57 1_555 1_555
H50 C60 1_555 1_555
N18_2 C66_2 1_555 1_555
C61_2 H51_2 1_555 1_555
C62_2 H52_2 1_555 1_555
C63_2 N12_2 1_555 1_555
C64_2 C62_2 1_555 1_555
H53_2 C64_2 1_555 1_555
C65_2 C61_2 1_555 1_555
H54_2 C65_2 1_555 1_555
C66_2 H55_2 1_555 1_555
C67_2 C62_2 1_555 1_555
N19_2 N18_2 1_555 1_555
H56_2 N19_2 1_555 1_555
C68_2 N19_2 1_555 1_555
C71_2 C68_2 1_555 1_555
H59_2 C71_2 1_555 1_555
N20_2 C68_2 1_555 1_555
Ag5_2 N18_2 1_555 1_555
N21_2 Ag1_2 1_555 1_555
N22_2 Ag3_4 1_555 1_555
N23_2 Ag1_2 1_555 1_555
N24_2 Ag3_4 1_555 1_555
C3_2 C4_2 1_555 1_555
C5_2 C7_2 1_555 1_555
C6_2 C7_2 1_555 1_555
C13_2 C15_2 1_555 1_555
C15_2 C16_2 1_555 1_555
C17_2 C19_2 1_555 1_555
C18_2 C19_2 1_555 1_555
C21_2 C23_2 1_555 1_555
C22_2 N7_2 1_555 1_555
C22_2 C24_2 1_555 1_555
N7_2 Ag2_3 1_555 1_555
C25_2 C27_2 1_555 1_555
C27_2 C28_2 1_555 1_555
C29_2 C31_2 1_555 1_555
C30_2 C31_2 1_555 1_555
C39_2 C40_2 1_555 1_555
C41_2 C43_2 1_555 1_555
C42_2 C43_2 1_555 1_555
C49_2 C51_2 1_555 1_555
C51_2 C52_2 1_555 1_555
C53_2 C55_2 1_555 1_555
C54_2 C55_2 1_555 1_555
C56_2 N17_2 1_555 1_555
C57 C59_2 1_555 1_555
C58 N17_2 1_555 1_555
C58 C60 1_555 1_555
C61_2 C63_2 1_555 1_555
C63_2 C64_2 1_555 1_555
C65_2 C67_2 1_555 1_555
C66_2 C67_2 1_555 1_555
N20_2 Ag5_2 1_555 1_555
Ag1_3 N1_2 1_555 1_555
N3_2 N1_2 1_555 1_555
H6_2 N3_2 1_555 1_555
C8_2 N3_2 1_555 1_555
C9_2 H7_2 1_555 1_555
C10_2 H8_2 1_555 1_555
C11_2 C8_2 1_555 1_555
H9_2 C11_2 1_555 1_555
N4_2 Ag1_3 1_555 1_555
C12_2 C9_2 1_555 1_555
H10_2 C12_2 1_555 1_555
N13_2 N11_2 1_555 1_555
H36_2 N13_2 1_555 1_555
C44_2 N13_2 1_555 1_555
C47_2 C44_2 1_555 1_555
H39_2 C47_2 1_555 1_555
N14_2 C44_2 1_555 1_555
Ag4_3 N11_2 1_555 1_555
C8_2 N4_2 1_555 1_555
C9_2 C11_2 1_555 1_555
C10_2 N4_2 1_555 1_555
C10_2 C12_2 1_555 1_555
N14_2 Ag4_3 1_555 1_555
C69_2 H57_2 1_555 1_555
C70_2 H58_2 1_555 1_555
C72_2 C69_2 1_555 1_555
H60_2 C72_2 1_555 1_555
C70_2 C72_2 1_555 1_555
Ag4_2 N1_3 1_555 1_555
N3_3 N1_3 1_555 1_555
H6_3 N3_3 1_555 1_555
C8_3 N3_3 1_555 1_555
C11_3 C8_3 1_555 1_555
H9_3 C11_3 1_555 1_555
N4_3 Ag4_2 1_555 1_555
C8_3 N4_3 1_555 1_555
N2_3 C3_3 1_555 1_555
C1_3 H1_3 1_555 1_555
C2_3 H2_3 1_555 1_555
C3_3 C1_3 1_555 1_555
C4_3 C2_3 1_555 1_555
H3_3 C4_3 1_555 1_555
C5_3 C1_3 1_555 1_555
H4_3 C5_3 1_555 1_555
C7_3 C2_3 1_555 1_555
C13_3 H11_3 1_555 1_555
C14_3 H12_3 1_555 1_555
C15_3 N2_3 1_555 1_555
C16_3 C14_3 1_555 1_555
H13_3 C16_3 1_555 1_555
C17_3 C13_3 1_555 1_555
H14_3 C17_3 1_555 1_555
C19_3 C14_3 1_555 1_555
N8_3 C30_3 1_555 1_555
C25_3 H21_3 1_555 1_555
C26_3 H22_3 1_555 1_555
C27_3 N2_3 1_555 1_555
C28_3 C26_3 1_555 1_555
H23_3 C28_3 1_555 1_555
C29_3 C25_3 1_555 1_555
H24_3 C29_3 1_555 1_555
C30_3 H25_3 1_555 1_555
C31_3 C26_3 1_555 1_555
N9_3 N8_3 1_555 1_555
H26_3 N9_3 1_555 1_555
C32_3 N9_3 1_555 1_555
C33_2 H27_2 1_555 1_555
C34_2 H28_2 1_555 1_555
C35_3 C32_3 1_555 1_555
H29_3 C35_3 1_555 1_555
N10_3 C32_3 1_555 1_555
C36_2 C33_2 1_555 1_555
H30_2 C36_2 1_555 1_555
Ag5 N8_3 1_555 1_555
N15_3 Ag2_4 1_555 1_555
N16_3 N15_3 1_555 1_555
H46_3 N16_3 1_555 1_555
C56_3 N16_3 1_555 1_555
C57_2 H47_2 1_555 1_555
C58_2 H48_2 1_555 1_555
C59_3 C56_3 1_555 1_555
H49_3 C59_3 1_555 1_555
N17_3 Ag2_4 1_555 1_555
C60_2 C57_2 1_555 1_555
H50_2 C60_2 1_555 1_555
C3_3 C4_3 1_555 1_555
C5_3 C7_3 1_555 1_555
C6_3 C7_3 1_555 1_555
C13_3 C15_3 1_555 1_555
C15_3 C16_3 1_555 1_555
C17_3 C19_3 1_555 1_555
C18_3 C19_3 1_555 1_555
C25_3 C27_3 1_555 1_555
C27_3 C28_3 1_555 1_555
C29_3 C31_3 1_555 1_555
C30_3 C31_3 1_555 1_555
C33_2 C35_3 1_555 1_555
C34_2 N10_3 1_555 1_555
C34_2 C36_2 1_555 1_555
N10_3 Ag5 1_555 1_555
C56_3 N17_3 1_555 1_555
C57_2 C59_3 1_555 1_555
C58_2 N17_3 1_555 1_555
C58_2 C60_2 1_555 1_555
N19_3 N22 1_555 1_555
H56_3 N19_3 1_555 1_555
C68_3 N19_3 1_555 1_555
C69_3 H57_3 1_555 1_555
C70_3 H58_3 1_555 1_555
C71_3 C68_3 1_555 1_555
H59_3 C71_3 1_555 1_555
N24 C68_3 1_555 1_555
C72_3 C69_3 1_555 1_555
H60_3 C72_3 1_555 1_555
C69_3 C71_3 1_555 1_555
C70_3 N24 1_555 1_555
C70_3 C72_3 1_555 1_555
N13_3 N21_2 1_555 1_555
H36_3 N13_3 1_555 1_555
C44_3 N13_3 1_555 1_555
C45_2 H37_2 1_555 1_555
C46_2 H38_2 1_555 1_555
C47_3 C44_3 1_555 1_555
H39_3 C47_3 1_555 1_555
N23_2 C44_3 1_555 1_555
C48_2 C45_2 1_555 1_555
H40_2 C48_2 1_555 1_555
C45_2 C47_3 1_555 1_555
C46_2 N23_2 1_555 1_555
C46_2 C48_2 1_555 1_555
N6_3 N5_3 1_555 1_555
H16_3 N6_3 1_555 1_555
C20_3 N6_3 1_555 1_555
C21_3 H17_3 1_555 1_555
C22_3 H18_3 1_555 1_555
C23_3 C20_3 1_555 1_555
H19_3 C23_3 1_555 1_555
N7_3 C20_3 1_555 1_555
C24_3 C21_3 1_555 1_555
H20_3 C24_3 1_555 1_555
Ag2_5 N5_3 1_555 1_555
N12_3 C39_3 1_555 1_555
C37_3 H31_3 1_555 1_555
C38_3 H32_3 1_555 1_555
C39_3 C37_3 1_555 1_555
C40_3 C38_3 1_555 1_555
H33_3 C40_3 1_555 1_555
C41_3 C37_3 1_555 1_555
H34_3 C41_3 1_555 1_555
C43_3 C38_3 1_555 1_555
C49_3 H41_3 1_555 1_555
C50_3 H42_3 1_555 1_555
C51_3 N12_3 1_555 1_555
C52_3 C50_3 1_555 1_555
H43_3 C52_3 1_555 1_555
C53_3 C49_3 1_555 1_555
H44_3 C53_3 1_555 1_555
C55_3 C50_3 1_555 1_555
C61_3 H51_3 1_555 1_555
C62_3 H52_3 1_555 1_555
C63_3 N12_3 1_555 1_555
C64_3 C62_3 1_555 1_555
H53_3 C64_3 1_555 1_555
C65_3 C61_3 1_555 1_555
H54_3 C65_3 1_555 1_555
C67_3 C62_3 1_555 1_555
C21_3 C23_3 1_555 1_555
C22_3 N7_3 1_555 1_555
C22_3 C24_3 1_555 1_555
N7_3 Ag2_5 1_555 1_555
C39_3 C40_3 1_555 1_555
C41_3 C43_3 1_555 1_555
C42_3 C43_3 1_555 1_555
C49_3 C51_3 1_555 1_555
C51_3 C52_3 1_555 1_555
C53_3 C55_3 1_555 1_555
C54_3 C55_3 1_555 1_555
C61_3 C63_3 1_555 1_555
C63_3 C64_3 1_555 1_555
C65_3 C67_3 1_555 1_555
C66_3 C67_3 1_555 1_555
Ag4 N1_4 1_555 1_555
N1_4 C6_4 1_555 1_555
N2_4 C3_4 1_555 1_555
C1_4 H1_4 1_555 1_555
C2_4 H2_4 1_555 1_555
C3_4 C1_4 1_555 1_555
C4_4 C2_4 1_555 1_555
H3_4 C4_4 1_555 1_555
C5_4 C1_4 1_555 1_555
H4_4 C5_4 1_555 1_555
C6_4 H5_4 1_555 1_555
C7_4 C2_4 1_555 1_555
N3_4 N1_4 1_555 1_555
H6_4 N3_4 1_555 1_555
C8_4 N3_4 1_555 1_555
C11_4 C8_4 1_555 1_555
H9_4 C11_4 1_555 1_555
N4_4 Ag4 1_555 1_555
N5_4 C18_4 1_555 1_555
C13_4 H11_4 1_555 1_555
C14_4 H12_4 1_555 1_555
C15_4 N2_4 1_555 1_555
C16_4 C14_4 1_555 1_555
H13_4 C16_4 1_555 1_555
C17_4 C13_4 1_555 1_555
H14_4 C17_4 1_555 1_555
C18_4 H15_4 1_555 1_555
C19_4 C14_4 1_555 1_555
N6_4 N5_4 1_555 1_555
H16_4 N6_4 1_555 1_555
C20_4 N6_4 1_555 1_555
C23_4 C20_4 1_555 1_555
H19_4 C23_4 1_555 1_555
N7_4 C20_4 1_555 1_555
N8_4 C30_4 1_555 1_555
C25_4 H21_4 1_555 1_555
C26_4 H22_4 1_555 1_555
C27_4 N2_4 1_555 1_555
C28_4 C26_4 1_555 1_555
H23_4 C28_4 1_555 1_555
C29_4 C25_4 1_555 1_555
H24_4 C29_4 1_555 1_555
C30_4 H25_4 1_555 1_555
C31_4 C26_4 1_555 1_555
N9_4 N8_4 1_555 1_555
H26_4 N9_4 1_555 1_555
C32_4 N9_4 1_555 1_555
C35_4 C32_4 1_555 1_555
H29_4 C35_4 1_555 1_555
N10_4 C32_4 1_555 1_555
Ag2_6 N5_4 1_555 1_555
Ag5_2 N8_4 1_555 1_555
N21 C42_4 1_555 1_555
N12_4 C39_4 1_555 1_555
C37_4 H31_4 1_555 1_555
C38_4 H32_4 1_555 1_555
C39_4 C37_4 1_555 1_555
C40_4 C38_4 1_555 1_555
H33_4 C40_4 1_555 1_555
C41_4 C37_4 1_555 1_555
H34_4 C41_4 1_555 1_555
C42_4 H35_4 1_555 1_555
C43_4 C38_4 1_555 1_555
N13_4 N21 1_555 1_555
H36_4 N13_4 1_555 1_555
C44_4 N13_4 1_555 1_555
C45_3 H37_3 1_555 1_555
C46_3 H38_3 1_555 1_555
C47_4 C44_4 1_555 1_555
H39_4 C47_4 1_555 1_555
N23 C44_4 1_555 1_555
C48_3 C45_3 1_555 1_555
H40_3 C48_3 1_555 1_555
N15_4 Ag2_6 1_555 1_555
C49_4 H41_4 1_555 1_555
C50_4 H42_4 1_555 1_555
C51_4 N12_4 1_555 1_555
C52_4 C50_4 1_555 1_555
H43_4 C52_4 1_555 1_555
C53_4 C49_4 1_555 1_555
H44_4 C53_4 1_555 1_555
C54_4 N15_4 1_555 1_555
H45_4 C54_4 1_555 1_555
C55_4 C50_4 1_555 1_555
N16_4 N15_4 1_555 1_555
H46_4 N16_4 1_555 1_555
C56_4 N16_4 1_555 1_555
C59_4 C56_4 1_555 1_555
H49_4 C59_4 1_555 1_555
N17_4 Ag2_6 1_555 1_555
C61_4 H51_4 1_555 1_555
C62_4 H52_4 1_555 1_555
C63_4 N12_4 1_555 1_555
C64_4 C62_4 1_555 1_555
H53_4 C64_4 1_555 1_555
C65_4 C61_4 1_555 1_555
H54_4 C65_4 1_555 1_555
C67_4 C62_4 1_555 1_555
C3_4 C4_4 1_555 1_555
C5_4 C7_4 1_555 1_555
C6_4 C7_4 1_555 1_555
C8_4 N4_4 1_555 1_555
C13_4 C15_4 1_555 1_555
C15_4 C16_4 1_555 1_555
C17_4 C19_4 1_555 1_555
C18_4 C19_4 1_555 1_555
N7_4 Ag2_6 1_555 1_555
C25_4 C27_4 1_555 1_555
C27_4 C28_4 1_555 1_555
C29_4 C31_4 1_555 1_555
C30_4 C31_4 1_555 1_555
N10_4 Ag5_2 1_555 1_555
C39_4 C40_4 1_555 1_555
C41_4 C43_4 1_555 1_555
C42_4 C43_4 1_555 1_555
C45_3 C47_4 1_555 1_555
C46_3 N23 1_555 1_555
C46_3 C48_3 1_555 1_555
C49_4 C51_4 1_555 1_555
C51_4 C52_4 1_555 1_555
C53_4 C55_4 1_555 1_555
C54_4 C55_4 1_555 1_555
C56_4 N17_4 1_555 1_555
C61_4 C63_4 1_555 1_555
C63_4 C64_4 1_555 1_555
C65_4 C67_4 1_555 1_555
C66_4 C67_4 1_555 1_555
C21_4 H17_4 1_555 1_555
C22_4 H18_4 1_555 1_555
C24_4 C21_4 1_555 1_555
H20_4 C24_4 1_555 1_555
C57_3 H47_3 1_555 1_555
C58_3 H48_3 1_555 1_555
C60_3 C57_3 1_555 1_555
H50_3 C60_3 1_555 1_555
C22_4 C24_4 1_555 1_555
C58_3 C60_3 1_555 1_555
C9_3 H7_3 1_555 1_555
C10_3 H8_3 1_555 1_555
C12_3 C9_3 1_555 1_555
H10_3 C12_3 1_555 1_555
N19_4 N22_2 1_555 1_555
H56_4 N19_4 1_555 1_555
C68_4 N19_4 1_555 1_555
C71_4 C68_4 1_555 1_555
H59_4 C71_4 1_555 1_555
N24_2 C68_4 1_555 1_555
C10_3 C12_3 1_555 1_555
C33_3 H27_3 1_555 1_555
C34_3 H28_3 1_555 1_555
C36_3 C33_3 1_555 1_555
H30_3 C36_3 1_555 1_555
C34_3 C36_3 1_555 1_555
C57_4 H47_4 1_555 1_555
C58_4 H48_4 1_555 1_555
C60_4 C57_4 1_555 1_555
H50_4 C60_4 1_555 1_555
C58_4 C60_4 1_555 1_555
C33_4 H27_4 1_555 1_555
C34_4 H28_4 1_555 1_555
C36_4 C33_4 1_555 1_555
H30_4 C36_4 1_555 1_555
C34_4 C36_4 1_555 1_555
C45_4 H37_4 1_555 1_555
C46_4 H38_4 1_555 1_555
C48_4 C45_4 1_555 1_555
H40_4 C48_4 1_555 1_555
C46_4 C48_4 1_555 1_555
C9_4 H7_4 1_555 1_555
C10_4 H8_4 1_555 1_555
C12_4 C9_4 1_555 1_555
H10_4 C12_4 1_555 1_555
C10_4 C12_4 1_555 1_555
C69_4 H57_4 1_555 1_555
C70_4 H58_4 1_555 1_555
C72_4 C69_4 1_555 1_555
H60_4 C72_4 1_555 1_555
C70_4 C72_4 1_555 1_555

#END
