
###############################################################################
#
# This file contains modified crystal structure data generated from the
# MOF subset of the Cambridge Structural Database (CSD) v543 
# hosted by the Cambridge Crystallographic Data Centre (CCDC).
#
# This work is licensed under the Creative Commons
# Attribution-NonCommercial-ShareAlike 4.0 International License.
# To view a copy of this license, visit
# http://creativecommons.org/licenses/by-nc-sa/4.0/
# or send a letter to
# Creative Commons, PO Box 1866, Mountain View, CA 94042, USA.
#
# CIF created using the CSD Python API on 29 September 2022
# The structure has been converted into the P1 space group
# The structure has a 3D framework
# The original CSD entry KEPFIX04 is in the cubic crystal system
# The original CSD entry KEPFIX04 is in a Sohncke space group
# The framework has been calculated to contain at least 10.0% void space
# The void calculation uses a probe of radius 1.32A, grid spacing 0.4
# The framework is charged, counterions have been retained in the structure
#
###############################################################################

data_KEPFIX04
_chemical_formula_moiety         '(C288 H216 Ag14 Cl42 N80 O48 2+)n'
_symmetry_cell_setting           triclinic
_symmetry_space_group_name_H-M   'P 1'
_symmetry_Int_Tables_number      1
_space_group_name_Hall           'P 1'
loop_
_symmetry_equiv_pos_site_id
_symmetry_equiv_pos_as_xyz
1 x,y,z
_cell_length_a                   21.3528(3)
_cell_length_b                   21.3528(3)
_cell_length_c                   21.3528(3)
_cell_angle_alpha                90
_cell_angle_beta                 90
_cell_angle_gamma                90
_cell_volume                     9735.64
loop_
_atom_site_label
_atom_site_type_symbol
_atom_site_fract_x
_atom_site_fract_y
_atom_site_fract_z
C34 C 0.0247(3) 0.1733(3) 0.3914(3)
H25 H 0.0378 0.2046 0.4195
C35 C 0.0602(3) 0.1606(3) 0.3402(3)
H26 H 0.0974 0.1826 0.3320
C36 C 0.0395(3) 0.1147(3) 0.3011(3)
Cl3 Cl 0.08329(10) 0.09522(12) 0.23584(10)
H23 H 0.8006 0.0151 0.3641
C32 C 0.9529(3) 0.0949(2) 0.3596(2)
C33 C 0.9701(3) 0.1412(3) 0.4029(2)
H24 H 0.9454 0.1500 0.4383
N8 N 0.88350(18) 0.01146(19) 0.33323(18)
N9 N 0.8989(2) 0.0630(2) 0.3679(2)
H27 H 0.8729 0.0757 0.3965
N10 N 0.9884(2) 0.0812(2) 0.30875(19)
Ag3 Ag 0.96045(3) -0.0000 0.2500
Ag1 Ag 0.7500 0.53955(3) 0.0000
C1 C 0.7534(2) 0.7472(2) 0.1716(2)
C2 C 0.7572(2) 0.6829(2) 0.1641(2)
H1 H 0.7416 0.6563 0.1956
C3 C 0.7838(2) 0.6572(2) 0.1105(2)
H2 H 0.7852 0.6135 0.1053
C4 C 0.8082(2) 0.6958(2) 0.0648(2)
C5 C 0.8047(2) 0.7599(3) 0.0731(2)
H3 H 0.8211 0.7865 0.0421
C6 C 0.7779(2) 0.7855(2) 0.1253(2)
H4 H 0.7762 0.8293 0.1298
C7 C 0.8388(2) 0.6717(2) 0.0081(2)
N1 N 0.7273(2) 0.7727(2) 0.2273(2)
C13 C 0.6716(2) 0.7466(2) 0.2528(2)
C14 C 0.6641(2) 0.7428(2) 0.3171(2)
H10 H 0.6956 0.7584 0.3437
C15 C 0.6105(2) 0.7162(2) 0.3428(2)
H11 H 0.6053 0.7148 0.3865
C16 C 0.5648(2) 0.6918(2) 0.3042(2)
C17 C 0.5731(2) 0.6953(2) 0.2401(3)
H12 H 0.5421 0.6789 0.2135
C18 C 0.6253(2) 0.7221(2) 0.2145(2)
H13 H 0.6298 0.7238 0.1707
C19 C 0.5081(2) 0.6612(2) 0.3283(2)
H14 H 0.4849 0.6359 0.3006
C20 C 0.4051(2) 0.6404(2) 0.4529(3)
C21 C 0.3588(3) 0.5971(2) 0.4701(3)
H15 H 0.3500 0.5617 0.4454
C22 C 0.3267(3) 0.6086(3) 0.5247(3)
H16 H 0.2954 0.5805 0.5378
C23 C 0.3394(3) 0.6598(3) 0.5602(3)
H17 H 0.3174 0.6680 0.5974
C24 C 0.3853(3) 0.6989(3) 0.5395(3)
Cl2 Cl 0.40478(12) 0.76416(10) 0.58329(10)
N5 N 0.48854(19) 0.66677(18) 0.38350(18)
N6 N 0.4370(2) 0.6321(2) 0.3989(2)
H18 H 0.4243 0.6035 0.3729
N7 N 0.4188(2) 0.69125(19) 0.4884(2)
C25 C 0.7528(2) 0.8284(2) 0.2534(2)
C26 C 0.8171(2) 0.8359(2) 0.2572(2)
H19 H 0.8437 0.8044 0.2416
C27 C 0.8428(2) 0.8895(2) 0.2838(2)
H20 H 0.8865 0.8947 0.2852
C28 C 0.8042(2) 0.9352(2) 0.3082(2)
C29 C 0.7401(3) 0.9269(2) 0.3047(2)
H21 H 0.7135 0.9579 0.3211
C30 C 0.7145(2) 0.8747(2) 0.2779(2)
H22 H 0.6707 0.8702 0.2762
C31 C 0.8283(2) 0.9919(2) 0.3388(2)
Ag2 Ag 0.5000 0.7500 0.46045(3)
Ag3_2 Ag 0.96045(3) 1.0000 0.2500
C37 C 0.2466(2) 0.7528(2) 0.1716(2)
C38 C 0.2428(2) 0.8171(2) 0.1641(2)
H28 H 0.2584 0.8437 0.1956
C39 C 0.2162(2) 0.8428(2) 0.1105(2)
H29 H 0.2148 0.8865 0.1053
C40 C 0.1918(2) 0.8042(2) 0.0648(2)
C41 C 0.1953(2) 0.7401(3) 0.0731(2)
H30 H 0.1789 0.7135 0.0421
C42 C 0.2221(2) 0.7145(2) 0.1253(2)
H31 H 0.2238 0.6707 0.1298
C43 C 0.1612(2) 0.8283(2) 0.0081(2)
N11 N 0.2727(2) 0.7273(2) 0.2273(2)
C49 C 0.3284(2) 0.7534(2) 0.2528(2)
C50 C 0.3359(2) 0.7572(2) 0.3171(2)
H37 H 0.3044 0.7416 0.3437
C51 C 0.3895(2) 0.7838(2) 0.3428(2)
H38 H 0.3947 0.7852 0.3865
C52 C 0.4352(2) 0.8082(2) 0.3042(2)
C53 C 0.4269(2) 0.8047(2) 0.2401(3)
H39 H 0.4579 0.8211 0.2135
C54 C 0.3747(2) 0.7779(2) 0.2145(2)
H40 H 0.3702 0.7762 0.1707
C55 C 0.4919(2) 0.8388(2) 0.3283(2)
H41 H 0.5151 0.8641 0.3006
C56 C 0.5949(2) 0.8596(2) 0.4529(3)
C57 C 0.6412(3) 0.9029(2) 0.4701(3)
H42 H 0.6500 0.9383 0.4454
C58 C 0.6733(3) 0.8914(3) 0.5247(3)
H43 H 0.7046 0.9195 0.5378
C59 C 0.6606(3) 0.8402(3) 0.5602(3)
H44 H 0.6826 0.8320 0.5974
C60 C 0.6147(3) 0.8011(3) 0.5395(3)
Cl5 Cl 0.59522(12) 0.73584(10) 0.58329(10)
N15 N 0.51146(19) 0.83323(18) 0.38350(18)
N16 N 0.5630(2) 0.8679(2) 0.3989(2)
H45 H 0.5757 0.8965 0.3729
N17 N 0.5812(2) 0.80875(19) 0.4884(2)
C61 C 0.2472(2) 0.6716(2) 0.2534(2)
C62 C 0.1829(2) 0.6641(2) 0.2572(2)
H46 H 0.1563 0.6956 0.2416
C63 C 0.1572(2) 0.6105(2) 0.2838(2)
H47 H 0.1135 0.6053 0.2852
C64 C 0.1958(2) 0.5648(2) 0.3082(2)
C65 C 0.2599(3) 0.5731(2) 0.3047(2)
H48 H 0.2865 0.5421 0.3211
C66 C 0.2855(2) 0.6253(2) 0.2779(2)
H49 H 0.3293 0.6298 0.2762
C67 C 0.1717(2) 0.5081(2) 0.3388(2)
H50 H 0.1994 0.4849 0.3641
C68 C 0.0471(3) 0.4051(2) 0.3596(2)
C69 C 0.0299(3) 0.3588(3) 0.4029(2)
H51 H 0.0546 0.3500 0.4383
N18 N 0.11650(18) 0.48854(19) 0.33323(18)
N19 N 0.1011(2) 0.4370(2) 0.3679(2)
H54 H 0.1271 0.4243 0.3965
N20 N 0.0116(2) 0.4188(2) 0.30875(19)
Ag4 Ag 0.2500 0.96045(3) 0.0000
Ag5 Ag 0.03955(3) 0.5000 0.2500
N21 N 0.66677(18) 0.61650(18) 0.01146(19)
N22 N 0.88350(18) 0.98854(19) 0.16677(18)
N23 N 0.69125(19) 0.5116(2) 0.0812(2)
N24 N 0.9884(2) 0.9188(2) 0.19125(19)
Ag1_2 Ag 0.7500 0.53955(3) 1.0000
H5 H 0.8641 0.6994 0.9849
C8 C 0.8596(2) 0.5471(3) 0.9051(2)
C9 C 0.9029(2) 0.5299(3) 0.8588(3)
H6 H 0.9383 0.5546 0.8500
C10 C 0.8914(3) 0.4753(3) 0.8267(3)
H7 H 0.9195 0.4622 0.7954
C11 C 0.8402(3) 0.4398(3) 0.8394(3)
H8 H 0.8320 0.4026 0.8174
C12 C 0.8011(3) 0.4605(3) 0.8853(3)
Cl1 Cl 0.73584(10) 0.41671(10) 0.90478(12)
N2 N 0.83323(18) 0.61650(18) 0.98854(19)
N3 N 0.8679(2) 0.6011(2) 0.9370(2)
H9 H 0.8965 0.6271 0.9243
N4 N 0.80875(19) 0.5116(2) 0.9188(2)
H32 H 0.1359 0.8006 0.9849
C44 C 0.1404(2) 0.9529(3) 0.9051(2)
C45 C 0.0971(2) 0.9701(3) 0.8588(3)
H33 H 0.0617 0.9454 0.8500
N12 N 0.16677(18) 0.88350(18) 0.98854(19)
N13 N 0.1321(2) 0.8989(2) 0.9370(2)
H36 H 0.1035 0.8729 0.9243
N14 N 0.19125(19) 0.9884(2) 0.9188(2)
Ag4_2 Ag 0.2500 0.96045(3) 1.0000
C70 C 0.9753(3) 0.3267(3) 0.3914(3)
H52 H 0.9622 0.2954 0.4195
C71 C 0.9398(3) 0.3394(3) 0.3402(3)
H53 H 0.9026 0.3174 0.3320
C72 C 0.9605(3) 0.3853(3) 0.3011(3)
Cl6 Cl 0.91671(10) 0.40478(12) 0.23584(10)
H14_2 H 0.0151 0.3641 0.8006
C20_2 C 0.0949(2) 0.3596(2) 0.9529(3)
C21_2 C 0.1412(3) 0.4029(2) 0.9701(3)
H15_2 H 0.1500 0.4383 0.9454
N5_2 N 0.01146(19) 0.33323(18) 0.88350(18)
N6_2 N 0.0630(2) 0.3679(2) 0.8989(2)
H18_2 H 0.0757 0.3965 0.8729
N7_2 N 0.0812(2) 0.30875(19) 0.9884(2)
Ag2_2 Ag -0.0000 0.2500 0.96045(3)
C37_2 C 0.2534(2) 0.2472(2) 0.6716(2)
C38_2 C 0.2572(2) 0.1829(2) 0.6641(2)
H28_2 H 0.2416 0.1563 0.6956
C39_2 C 0.2838(2) 0.1572(2) 0.6105(2)
H29_2 H 0.2852 0.1135 0.6053
C40_2 C 0.3082(2) 0.1958(2) 0.5648(2)
C41_2 C 0.3047(2) 0.2599(3) 0.5731(2)
H30_2 H 0.3211 0.2865 0.5421
C42_2 C 0.2779(2) 0.2855(2) 0.6253(2)
H31_2 H 0.2762 0.3293 0.6298
C43_2 C 0.3388(2) 0.1717(2) 0.5081(2)
H32_2 H 0.3641 0.1994 0.4849
C44_2 C 0.3596(2) 0.0471(3) 0.4051(2)
C45_2 C 0.4029(2) 0.0299(3) 0.3588(3)
H33_2 H 0.4383 0.0546 0.3500
N11_2 N 0.2273(2) 0.2727(2) 0.7273(2)
N12_2 N 0.33323(18) 0.11650(18) 0.48854(19)
N13_2 N 0.3679(2) 0.1011(2) 0.4370(2)
H36_2 H 0.3965 0.1271 0.4243
N14_2 N 0.30875(19) 0.0116(2) 0.4188(2)
C49_2 C 0.1716(2) 0.2466(2) 0.7528(2)
C50_2 C 0.1641(2) 0.2428(2) 0.8171(2)
H37_2 H 0.1956 0.2584 0.8437
C51_2 C 0.1105(2) 0.2162(2) 0.8428(2)
H38_2 H 0.1053 0.2148 0.8865
C52_2 C 0.0648(2) 0.1918(2) 0.8042(2)
C53_2 C 0.0731(2) 0.1953(2) 0.7401(3)
H39_2 H 0.0421 0.1789 0.7135
C54_2 C 0.1253(2) 0.2221(2) 0.7145(2)
H40_2 H 0.1298 0.2238 0.6707
C55_2 C 0.0081(2) 0.1612(2) 0.8283(2)
C61_2 C 0.2528(2) 0.3284(2) 0.7534(2)
C62_2 C 0.3171(2) 0.3359(2) 0.7572(2)
H46_2 H 0.3437 0.3044 0.7416
C63_2 C 0.3428(2) 0.3895(2) 0.7838(2)
H47_2 H 0.3865 0.3947 0.7852
C64_2 C 0.3042(2) 0.4352(2) 0.8082(2)
C65_2 C 0.2401(3) 0.4269(2) 0.8047(2)
H48_2 H 0.2135 0.4579 0.8211
C66_2 C 0.2145(2) 0.3747(2) 0.7779(2)
H49_2 H 0.1707 0.3702 0.7762
C67_2 C 0.3283(2) 0.4919(2) 0.8388(2)
H50_2 H 0.3006 0.5151 0.8641
C68_2 C 0.4529(3) 0.5949(2) 0.8596(2)
C69_2 C 0.4701(3) 0.6412(3) 0.9029(2)
H51_2 H 0.4454 0.6500 0.9383
C70_2 C 0.5247(3) 0.6733(3) 0.8914(3)
H52_2 H 0.5378 0.7046 0.9195
C71_2 C 0.5602(3) 0.6606(3) 0.8402(3)
H53_2 H 0.5974 0.6826 0.8320
C72_2 C 0.5395(3) 0.6147(3) 0.8011(3)
Cl6_2 Cl 0.58329(10) 0.59522(12) 0.73584(10)
N18_2 N 0.38350(18) 0.51146(19) 0.83323(18)
N19_2 N 0.3989(2) 0.5630(2) 0.8679(2)
H54_2 H 0.3729 0.5757 0.8965
N20_2 N 0.4884(2) 0.5812(2) 0.80875(19)
Ag4_3 Ag 0.2500 0.03955(3) 0.5000
Ag5_2 Ag 0.46045(3) 0.5000 0.7500
C46 C 0.3914(3) 0.9753(3) 0.3267(3)
H34 H 0.4195 0.9622 0.2954
C47 C 0.3402(3) 0.9398(3) 0.3394(3)
H35 H 0.3320 0.9026 0.3174
C48 C 0.3011(3) 0.9605(3) 0.3853(3)
Cl4 Cl 0.23584(10) 0.91671(10) 0.40478(12)
Ag1_3 Ag 0.7500 0.46045(3) 0.5000
C1_2 C 0.7466(2) 0.2528(2) 0.6716(2)
C2_2 C 0.7428(2) 0.3171(2) 0.6641(2)
H1_2 H 0.7584 0.3437 0.6956
C3_2 C 0.7162(2) 0.3428(2) 0.6105(2)
H2_2 H 0.7148 0.3865 0.6053
C4_2 C 0.6918(2) 0.3042(2) 0.5648(2)
C5_2 C 0.6953(2) 0.2401(3) 0.5731(2)
H3_2 H 0.6789 0.2135 0.5421
C6_2 C 0.7221(2) 0.2145(2) 0.6253(2)
H4_2 H 0.7238 0.1707 0.6298
C7_2 C 0.6612(2) 0.3283(2) 0.5081(2)
H5_2 H 0.6359 0.3006 0.4849
C8_2 C 0.6404(2) 0.4529(3) 0.4051(2)
C9_2 C 0.5971(2) 0.4701(3) 0.3588(3)
H6_2 H 0.5617 0.4454 0.3500
C10_2 C 0.6086(3) 0.5247(3) 0.3267(3)
H7_2 H 0.5805 0.5378 0.2954
C11_2 C 0.6598(3) 0.5602(3) 0.3394(3)
H8_2 H 0.6680 0.5974 0.3174
C12_2 C 0.6989(3) 0.5395(3) 0.3853(3)
Cl1_2 Cl 0.76416(10) 0.58329(10) 0.40478(12)
N1_2 N 0.7727(2) 0.2273(2) 0.7273(2)
N2_2 N 0.66677(18) 0.38350(18) 0.48854(19)
N3_2 N 0.6321(2) 0.3989(2) 0.4370(2)
H9_2 H 0.6035 0.3729 0.4243
N4_2 N 0.69125(19) 0.4884(2) 0.4188(2)
C13_2 C 0.8284(2) 0.2534(2) 0.7528(2)
C14_2 C 0.8359(2) 0.2572(2) 0.8171(2)
H10_2 H 0.8044 0.2416 0.8437
C15_2 C 0.8895(2) 0.2838(2) 0.8428(2)
H11_2 H 0.8947 0.2852 0.8865
C16_2 C 0.9352(2) 0.3082(2) 0.8042(2)
C17_2 C 0.9269(2) 0.3047(2) 0.7401(3)
H12_2 H 0.9579 0.3211 0.7135
C18_2 C 0.8747(2) 0.2779(2) 0.7145(2)
H13_2 H 0.8702 0.2762 0.6707
C19_2 C 0.9919(2) 0.3388(2) 0.8283(2)
C25_2 C 0.7472(2) 0.1716(2) 0.7534(2)
C26_2 C 0.6829(2) 0.1641(2) 0.7572(2)
H19_2 H 0.6563 0.1956 0.7416
C27_2 C 0.6572(2) 0.1105(2) 0.7838(2)
H20_2 H 0.6135 0.1053 0.7852
C28_2 C 0.6958(2) 0.0648(2) 0.8082(2)
C29_2 C 0.7599(3) 0.0731(2) 0.8047(2)
H21_2 H 0.7865 0.0421 0.8211
C30_2 C 0.7855(2) 0.1253(2) 0.7779(2)
H22_2 H 0.8293 0.1298 0.7762
C31_2 C 0.6717(2) 0.0081(2) 0.8388(2)
Ag2_3 Ag 1.0000 0.2500 0.96045(3)
Ag3_3 Ag 0.53955(3) 0.0000 0.7500
H41_2 H 0.9849 0.1359 0.8006
C56_2 C 0.9051(2) 0.1404(2) 0.9529(3)
C57_2 C 0.8588(3) 0.0971(2) 0.9701(3)
H42_2 H 0.8500 0.0617 0.9454
N15_2 N 0.98854(19) 0.16677(18) 0.88350(18)
N16_2 N 0.9370(2) 0.1321(2) 0.8989(2)
H45_2 H 0.9243 0.1035 0.8729
N17_2 N 0.9188(2) 0.19125(19) 0.9884(2)
N21_2 N 0.83323(18) 0.38350(18) 0.51146(19)
N22_2 N 0.61650(18) 0.01146(19) 0.66677(18)
N23_2 N 0.80875(19) 0.4884(2) 0.5812(2)
N24_2 N 0.5116(2) 0.0812(2) 0.69125(19)
H23_2 H 0.6994 0.9849 0.8641
C32_2 C 0.5471(3) 0.9051(2) 0.8596(2)
C33_2 C 0.5299(3) 0.8588(3) 0.9029(2)
H24_2 H 0.5546 0.8500 0.9383
C34_2 C 0.4753(3) 0.8267(3) 0.8914(3)
H25_2 H 0.4622 0.7954 0.9195
C35_2 C 0.4398(3) 0.8394(3) 0.8402(3)
H26_2 H 0.4026 0.8174 0.8320
C36_2 C 0.4605(3) 0.8853(3) 0.8011(3)
Cl3_2 Cl 0.41671(10) 0.90478(12) 0.73584(10)
N8_2 N 0.61650(18) 0.98854(19) 0.83323(18)
N9_2 N 0.6011(2) 0.9370(2) 0.8679(2)
H27_2 H 0.6271 0.9243 0.8965
N10_2 N 0.5116(2) 0.9188(2) 0.80875(19)
Ag3_4 Ag 0.53955(3) 1.0000 0.7500
C1_3 C 0.2466(2) 0.2472(2) 0.3284(2)
C2_3 C 0.2428(2) 0.1829(2) 0.3359(2)
H1_3 H 0.2584 0.1563 0.3044
C3_3 C 0.2162(2) 0.1572(2) 0.3895(2)
H2_3 H 0.2148 0.1135 0.3947
C4_3 C 0.1918(2) 0.1958(2) 0.4352(2)
C5_3 C 0.1953(2) 0.2599(3) 0.4269(2)
H3_3 H 0.1789 0.2865 0.4579
C6_3 C 0.2221(2) 0.2855(2) 0.3747(2)
H4_3 H 0.2238 0.3293 0.3702
C7_3 C 0.1612(2) 0.1717(2) 0.4919(2)
H5_3 H 0.1359 0.1994 0.5151
C8_3 C 0.1404(2) 0.0471(3) 0.5949(2)
C9_3 C 0.0971(2) 0.0299(3) 0.6412(3)
H6_3 H 0.0617 0.0546 0.6500
N1_3 N 0.2727(2) 0.2727(2) 0.2727(2)
N2_3 N 0.16677(18) 0.11650(18) 0.51146(19)
N3_3 N 0.1321(2) 0.1011(2) 0.5630(2)
H9_3 H 0.1035 0.1271 0.5757
N4_3 N 0.19125(19) 0.0116(2) 0.5812(2)
C13_3 C 0.3284(2) 0.2466(2) 0.2472(2)
C14_3 C 0.3359(2) 0.2428(2) 0.1829(2)
H10_3 H 0.3044 0.2584 0.1563
C15_3 C 0.3895(2) 0.2162(2) 0.1572(2)
H11_3 H 0.3947 0.2148 0.1135
C16_3 C 0.4352(2) 0.1918(2) 0.1958(2)
C17_3 C 0.4269(2) 0.1953(2) 0.2599(3)
H12_3 H 0.4579 0.1789 0.2865
C18_3 C 0.3747(2) 0.2221(2) 0.2855(2)
H13_3 H 0.3702 0.2238 0.3293
C19_3 C 0.4919(2) 0.1612(2) 0.1717(2)
H14_3 H 0.5151 0.1359 0.1994
C20_3 C 0.5949(2) 0.1404(2) 0.0471(3)
C21_3 C 0.6412(3) 0.0971(2) 0.0299(3)
H15_3 H 0.6500 0.0617 0.0546
N5_3 N 0.51146(19) 0.16677(18) 0.11650(18)
N6_3 N 0.5630(2) 0.1321(2) 0.1011(2)
H18_3 H 0.5757 0.1035 0.1271
N7_3 N 0.5812(2) 0.19125(19) 0.0116(2)
C25_3 C 0.2472(2) 0.3284(2) 0.2466(2)
C26_3 C 0.1829(2) 0.3359(2) 0.2428(2)
H19_3 H 0.1563 0.3044 0.2584
C27_3 C 0.1572(2) 0.3895(2) 0.2162(2)
H20_3 H 0.1135 0.3947 0.2148
C28_3 C 0.1958(2) 0.4352(2) 0.1918(2)
C29_3 C 0.2599(3) 0.4269(2) 0.1953(2)
H21_3 H 0.2865 0.4579 0.1789
C30_3 C 0.2855(2) 0.3747(2) 0.2221(2)
H22_3 H 0.3293 0.3702 0.2238
C31_3 C 0.1717(2) 0.4919(2) 0.1612(2)
H23_3 H 0.1994 0.5151 0.1359
C32_3 C 0.0471(3) 0.5949(2) 0.1404(2)
C33_3 C 0.0299(3) 0.6412(3) 0.0971(2)
H24_3 H 0.0546 0.6500 0.0617
N8_3 N 0.11650(18) 0.51146(19) 0.16677(18)
N9_3 N 0.1011(2) 0.5630(2) 0.1321(2)
H27_3 H 0.1271 0.5757 0.1035
N10_3 N 0.0116(2) 0.5812(2) 0.19125(19)
Ag2_4 Ag 0.5000 0.2500 0.03955(3)
C37_3 C 0.7534(2) 0.2528(2) 0.3284(2)
C38_3 C 0.7572(2) 0.3171(2) 0.3359(2)
H28_3 H 0.7416 0.3437 0.3044
C39_3 C 0.7838(2) 0.3428(2) 0.3895(2)
H29_3 H 0.7852 0.3865 0.3947
C40_3 C 0.8082(2) 0.3042(2) 0.4352(2)
C41_3 C 0.8047(2) 0.2401(3) 0.4269(2)
H30_3 H 0.8211 0.2135 0.4579
C42_3 C 0.7779(2) 0.2145(2) 0.3747(2)
H31_3 H 0.7762 0.1707 0.3702
C43_3 C 0.8388(2) 0.3283(2) 0.4919(2)
H32_3 H 0.8641 0.3006 0.5151
C44_3 C 0.8596(2) 0.4529(3) 0.5949(2)
C45_3 C 0.9029(2) 0.4701(3) 0.6412(3)
H33_3 H 0.9383 0.4454 0.6500
C46_2 C 0.8914(3) 0.5247(3) 0.6733(3)
H34_2 H 0.9195 0.5378 0.7046
C47_2 C 0.8402(3) 0.5602(3) 0.6606(3)
H35_2 H 0.8320 0.5974 0.6826
C48_2 C 0.8011(3) 0.5395(3) 0.6147(3)
Cl4_2 Cl 0.73584(10) 0.58329(10) 0.59522(12)
N11_3 N 0.7273(2) 0.2273(2) 0.2727(2)
N13_3 N 0.8679(2) 0.3989(2) 0.5630(2)
H36_3 H 0.8965 0.3729 0.5757
C49_3 C 0.6716(2) 0.2534(2) 0.2472(2)
C50_3 C 0.6641(2) 0.2572(2) 0.1829(2)
H37_3 H 0.6956 0.2416 0.1563
C51_3 C 0.6105(2) 0.2838(2) 0.1572(2)
H38_3 H 0.6053 0.2852 0.1135
C52_3 C 0.5648(2) 0.3082(2) 0.1958(2)
C53_3 C 0.5731(2) 0.3047(2) 0.2599(3)
H39_3 H 0.5421 0.3211 0.2865
C54_3 C 0.6253(2) 0.2779(2) 0.2855(2)
H40_3 H 0.6298 0.2762 0.3293
C55_3 C 0.5081(2) 0.3388(2) 0.1717(2)
H41_3 H 0.4849 0.3641 0.1994
C56_3 C 0.4051(2) 0.3596(2) 0.0471(3)
C57_3 C 0.3588(3) 0.4029(2) 0.0299(3)
H42_3 H 0.3500 0.4383 0.0546
N15_3 N 0.48854(19) 0.33323(18) 0.11650(18)
N16_3 N 0.4370(2) 0.3679(2) 0.1011(2)
H45_3 H 0.4243 0.3965 0.1271
N17_3 N 0.4188(2) 0.30875(19) 0.0116(2)
C61_3 C 0.7528(2) 0.1716(2) 0.2466(2)
C62_3 C 0.8171(2) 0.1641(2) 0.2428(2)
H46_3 H 0.8437 0.1956 0.2584
C63_3 C 0.8428(2) 0.1105(2) 0.2162(2)
H47_3 H 0.8865 0.1053 0.2148
C64_3 C 0.8042(2) 0.0648(2) 0.1918(2)
C65_3 C 0.7401(3) 0.0731(2) 0.1953(2)
H48_3 H 0.7135 0.0421 0.1789
C66_3 C 0.7145(2) 0.1253(2) 0.2221(2)
H49_3 H 0.6707 0.1298 0.2238
C67_3 C 0.8283(2) 0.0081(2) 0.1612(2)
C22_2 C 0.6733(3) 0.1086(3) 0.9753(3)
H16_2 H 0.7046 0.0805 0.9622
C23_2 C 0.6606(3) 0.1598(3) 0.9398(3)
H17_2 H 0.6826 0.1680 0.9026
C24_2 C 0.6147(3) 0.1989(3) 0.9605(3)
Cl2_2 Cl 0.59522(12) 0.26416(10) 0.91671(10)
C58_2 C 0.3267(3) 0.3914(3) 0.9753(3)
H43_2 H 0.2954 0.4195 0.9622
C59_2 C 0.3394(3) 0.3402(3) 0.9398(3)
H44_2 H 0.3174 0.3320 0.9026
C60_2 C 0.3853(3) 0.3011(3) 0.9605(3)
Cl5_2 Cl 0.40478(12) 0.23584(10) 0.91671(10)
C10_3 C 0.1086(3) 0.9753(3) 0.6733(3)
H7_3 H 0.0805 0.9622 0.7046
C11_3 C 0.1598(3) 0.9398(3) 0.6606(3)
H8_3 H 0.1680 0.9026 0.6826
C12_3 C 0.1989(3) 0.9605(3) 0.6147(3)
Cl1_3 Cl 0.26416(10) 0.91671(10) 0.59522(12)
H50_3 H 0.8006 0.9849 0.1359
C68_3 C 0.9529(3) 0.9051(2) 0.1404(2)
C69_3 C 0.9701(3) 0.8588(3) 0.0971(2)
H51_3 H 0.9454 0.8500 0.0617
N19_3 N 0.8989(2) 0.9370(2) 0.1321(2)
H54_3 H 0.8729 0.9243 0.1035
C34_3 C 0.9753(3) 0.6733(3) 0.1086(3)
H25_3 H 0.9622 0.7046 0.0805
C35_3 C 0.9398(3) 0.6606(3) 0.1598(3)
H26_3 H 0.9026 0.6826 0.1680
C36_3 C 0.9605(3) 0.6147(3) 0.1989(3)
Cl3_3 Cl 0.91671(10) 0.59522(12) 0.26416(10)
H5_4 H 0.3641 0.8006 0.0151
C8_4 C 0.3596(2) 0.9529(3) 0.0949(2)
C9_4 C 0.4029(2) 0.9701(3) 0.1412(3)
H6_4 H 0.4383 0.9454 0.1500
N2_4 N 0.33323(18) 0.88350(18) 0.01146(19)
N3_4 N 0.3679(2) 0.8989(2) 0.0630(2)
H9_4 H 0.3965 0.8729 0.0757
N4_4 N 0.30875(19) 0.9884(2) 0.0812(2)
C1_4 C 0.2534(2) 0.7528(2) 0.8284(2)
C2_4 C 0.2572(2) 0.8171(2) 0.8359(2)
H1_4 H 0.2416 0.8437 0.8044
C3_4 C 0.2838(2) 0.8428(2) 0.8895(2)
H2_4 H 0.2852 0.8865 0.8947
C4_4 C 0.3082(2) 0.8042(2) 0.9352(2)
C5_4 C 0.3047(2) 0.7401(3) 0.9269(2)
H3_4 H 0.3211 0.7135 0.9579
C6_4 C 0.2779(2) 0.7145(2) 0.8747(2)
H4_4 H 0.2762 0.6707 0.8702
C7_4 C 0.3388(2) 0.8283(2) 0.9919(2)
N1_4 N 0.2273(2) 0.7273(2) 0.7727(2)
C13_4 C 0.1716(2) 0.7534(2) 0.7472(2)
C14_4 C 0.1641(2) 0.7572(2) 0.6829(2)
H10_4 H 0.1956 0.7416 0.6563
C15_4 C 0.1105(2) 0.7838(2) 0.6572(2)
H11_4 H 0.1053 0.7852 0.6135
C16_4 C 0.0648(2) 0.8082(2) 0.6958(2)
C17_4 C 0.0731(2) 0.8047(2) 0.7599(3)
H12_4 H 0.0421 0.8211 0.7865
C18_4 C 0.1253(2) 0.7779(2) 0.7855(2)
H13_4 H 0.1298 0.7762 0.8293
C19_4 C 0.0081(2) 0.8388(2) 0.6717(2)
C25_4 C 0.2528(2) 0.6716(2) 0.7466(2)
C26_4 C 0.3171(2) 0.6641(2) 0.7428(2)
H19_4 H 0.3437 0.6956 0.7584
C27_4 C 0.3428(2) 0.6105(2) 0.7162(2)
H20_4 H 0.3865 0.6053 0.7148
C28_4 C 0.3042(2) 0.5648(2) 0.6918(2)
C29_4 C 0.2401(3) 0.5731(2) 0.6953(2)
H21_4 H 0.2135 0.5421 0.6789
C30_4 C 0.2145(2) 0.6253(2) 0.7221(2)
H22_4 H 0.1707 0.6298 0.7238
C31_4 C 0.3283(2) 0.5081(2) 0.6612(2)
H23_4 H 0.3006 0.4849 0.6359
C32_4 C 0.4529(3) 0.4051(2) 0.6404(2)
C33_4 C 0.4701(3) 0.3588(3) 0.5971(2)
H24_4 H 0.4454 0.3500 0.5617
C34_4 C 0.5247(3) 0.3267(3) 0.6086(3)
H25_4 H 0.5378 0.2954 0.5805
C35_4 C 0.5602(3) 0.3394(3) 0.6598(3)
H26_4 H 0.5974 0.3174 0.6680
C36_4 C 0.5395(3) 0.3853(3) 0.6989(3)
Cl3_4 Cl 0.58329(10) 0.40478(12) 0.76416(10)
N8_4 N 0.38350(18) 0.48854(19) 0.66677(18)
N9_4 N 0.3989(2) 0.4370(2) 0.6321(2)
H27_4 H 0.3729 0.4243 0.6035
N10_4 N 0.4884(2) 0.4188(2) 0.69125(19)
Ag2_5 Ag 0.0000 0.7500 0.53955(3)
H41_4 H 0.0151 0.6359 0.6994
C56_4 C 0.0949(2) 0.6404(2) 0.5471(3)
C57_4 C 0.1412(3) 0.5971(2) 0.5299(3)
H42_4 H 0.1500 0.5617 0.5546
C58_3 C 0.1733(3) 0.6086(3) 0.4753(3)
H43_3 H 0.2046 0.5805 0.4622
C59_3 C 0.1606(3) 0.6598(3) 0.4398(3)
H44_3 H 0.1826 0.6680 0.4026
C60_3 C 0.1147(3) 0.6989(3) 0.4605(3)
Cl5_3 Cl 0.09522(12) 0.76416(10) 0.41671(10)
N15_4 N 0.01146(19) 0.66677(18) 0.61650(18)
N16_4 N 0.0630(2) 0.6321(2) 0.6011(2)
H45_4 H 0.0757 0.6035 0.6271
N17_4 N 0.0812(2) 0.69125(19) 0.5116(2)
H50_4 H 0.6994 0.0151 0.6359
C68_4 C 0.5471(3) 0.0949(2) 0.6404(2)
C69_4 C 0.5299(3) 0.1412(3) 0.5971(2)
H51_4 H 0.5546 0.1500 0.5617
C70_3 C 0.4753(3) 0.1733(3) 0.6086(3)
H52_3 H 0.4622 0.2046 0.5805
C71_3 C 0.4398(3) 0.1606(3) 0.6598(3)
H53_3 H 0.4026 0.1826 0.6680
C72_3 C 0.4605(3) 0.1147(3) 0.6989(3)
Cl6_3 Cl 0.41671(10) 0.09522(12) 0.76416(10)
N19_4 N 0.6011(2) 0.0630(2) 0.6321(2)
H54_4 H 0.6271 0.0757 0.6035
H32_4 H 0.6359 0.6994 0.0151
C44_4 C 0.6404(2) 0.5471(3) 0.0949(2)
C45_4 C 0.5971(2) 0.5299(3) 0.1412(3)
H33_4 H 0.5617 0.5546 0.1500
C46_3 C 0.6086(3) 0.4753(3) 0.1733(3)
H34_3 H 0.5805 0.4622 0.2046
C47_3 C 0.6598(3) 0.4398(3) 0.1606(3)
H35_3 H 0.6680 0.4026 0.1826
C48_3 C 0.6989(3) 0.4605(3) 0.1147(3)
Cl4_3 Cl 0.76416(10) 0.41671(10) 0.09522(12)
N13_4 N 0.6321(2) 0.6011(2) 0.0630(2)
H36_4 H 0.6035 0.6271 0.0757
H14_4 H 0.9849 0.8641 0.6994
C20_4 C 0.9051(2) 0.8596(2) 0.5471(3)
C21_4 C 0.8588(3) 0.9029(2) 0.5299(3)
H15_4 H 0.8500 0.9383 0.5546
C22_3 C 0.8267(3) 0.8914(3) 0.4753(3)
H16_3 H 0.7954 0.9195 0.4622
C23_3 C 0.8394(3) 0.8402(3) 0.4398(3)
H17_3 H 0.8174 0.8320 0.4026
C24_3 C 0.8853(3) 0.8011(3) 0.4605(3)
Cl2_3 Cl 0.90478(12) 0.73584(10) 0.41671(10)
N5_4 N 0.98854(19) 0.83323(18) 0.61650(18)
N6_4 N 0.9370(2) 0.8679(2) 0.6011(2)
H18_4 H 0.9243 0.8965 0.6271
N7_4 N 0.9188(2) 0.80875(19) 0.5116(2)
Ag2_6 Ag 1.0000 0.7500 0.53955(3)
C37_4 C 0.7466(2) 0.7472(2) 0.8284(2)
C38_4 C 0.7428(2) 0.6829(2) 0.8359(2)
H28_4 H 0.7584 0.6563 0.8044
C39_4 C 0.7162(2) 0.6572(2) 0.8895(2)
H29_4 H 0.7148 0.6135 0.8947
C40_4 C 0.6918(2) 0.6958(2) 0.9352(2)
C41_4 C 0.6953(2) 0.7599(3) 0.9269(2)
H30_4 H 0.6789 0.7865 0.9579
C42_4 C 0.7221(2) 0.7855(2) 0.8747(2)
H31_4 H 0.7238 0.8293 0.8702
C43_4 C 0.6612(2) 0.6717(2) 0.9919(2)
N11_4 N 0.7727(2) 0.7727(2) 0.7727(2)
C49_4 C 0.8284(2) 0.7466(2) 0.7472(2)
C50_4 C 0.8359(2) 0.7428(2) 0.6829(2)
H37_4 H 0.8044 0.7584 0.6563
C51_4 C 0.8895(2) 0.7162(2) 0.6572(2)
H38_4 H 0.8947 0.7148 0.6135
C52_4 C 0.9352(2) 0.6918(2) 0.6958(2)
C53_4 C 0.9269(2) 0.6953(2) 0.7599(3)
H39_4 H 0.9579 0.6789 0.7865
C54_4 C 0.8747(2) 0.7221(2) 0.7855(2)
H40_4 H 0.8702 0.7238 0.8293
C55_4 C 0.9919(2) 0.6612(2) 0.6717(2)
C61_4 C 0.7472(2) 0.8284(2) 0.7466(2)
C62_4 C 0.6829(2) 0.8359(2) 0.7428(2)
H46_4 H 0.6563 0.8044 0.7584
C63_4 C 0.6572(2) 0.8895(2) 0.7162(2)
H47_4 H 0.6135 0.8947 0.7148
C64_4 C 0.6958(2) 0.9352(2) 0.6918(2)
C65_4 C 0.7599(3) 0.9269(2) 0.6953(2)
H48_4 H 0.7865 0.9579 0.6789
C66_4 C 0.7855(2) 0.8747(2) 0.7221(2)
H49_4 H 0.8293 0.8702 0.7238
C67_4 C 0.6717(2) 0.9919(2) 0.6612(2)
C46_4 C 0.1086(3) 0.0247(3) 0.8267(3)
H34_4 H 0.0805 0.0378 0.7954
C47_4 C 0.1598(3) 0.0602(3) 0.8394(3)
H35_4 H 0.1680 0.0974 0.8174
C48_4 C 0.1989(3) 0.0395(3) 0.8853(3)
Cl4_4 Cl 0.26416(10) 0.08329(10) 0.90478(12)
C22_4 C 0.1733(3) 0.3914(3) 0.0247(3)
H16_4 H 0.2046 0.4195 0.0378
C23_4 C 0.1606(3) 0.3402(3) 0.0602(3)
H17_4 H 0.1826 0.3320 0.0974
C24_4 C 0.1147(3) 0.3011(3) 0.0395(3)
Cl2_4 Cl 0.09522(12) 0.23584(10) 0.08329(10)
C58_4 C 0.8267(3) 0.1086(3) 0.0247(3)
H43_4 H 0.7954 0.0805 0.0378
C59_4 C 0.8394(3) 0.1598(3) 0.0602(3)
H44_4 H 0.8174 0.1680 0.0974
C60_4 C 0.8853(3) 0.1989(3) 0.0395(3)
Cl5_4 Cl 0.90478(12) 0.26416(10) 0.08329(10)
C70_4 C 0.0247(3) 0.8267(3) 0.1086(3)
H52_4 H 0.0378 0.7954 0.0805
C71_4 C 0.0602(3) 0.8394(3) 0.1598(3)
H53_4 H 0.0974 0.8174 0.1680
C72_4 C 0.0395(3) 0.8853(3) 0.1989(3)
Cl6_4 Cl 0.08329(10) 0.90478(12) 0.26416(10)
C10_4 C 0.3914(3) 0.0247(3) 0.1733(3)
H7_4 H 0.4195 0.0378 0.2046
C11_4 C 0.3402(3) 0.0602(3) 0.1606(3)
H8_4 H 0.3320 0.0974 0.1826
C12_4 C 0.3011(3) 0.0395(3) 0.1147(3)
Cl1_4 Cl 0.23584(10) 0.08329(10) 0.09522(12)
Cl7 Cl 0.06179(7) 0.5000 0.7500
O1 O 0.02378(19) 0.54921(19) 0.7737(2)
O2 O 0.0991(2) 0.5239(2) 0.7005(2)
O3 O 0.02378(19) 0.45079(19) 0.7263(2)
O4 O 0.0991(2) 0.4761(2) 0.7995(2)
Cl7_2 Cl 0.43821(7) 0.5000 0.2500
O1_2 O 0.47622(19) 0.45079(19) 0.2737(2)
O2_2 O 0.4009(2) 0.4761(2) 0.2005(2)
O3_2 O 0.47622(19) 0.54921(19) 0.2263(2)
O4_2 O 0.4009(2) 0.5239(2) 0.2995(2)
Cl7_3 Cl 0.93821(7) 0.0000 0.7500
O1_3 O 0.97622(19) 0.04921(19) 0.7263(2)
O2_3 O 0.9009(2) 0.0239(2) 0.7995(2)
Cl7_4 Cl 0.93821(7) 1.0000 0.7500
O3_3 O 0.97622(19) 0.95079(19) 0.7737(2)
O4_3 O 0.9009(2) 0.9761(2) 0.7005(2)
Cl7_5 Cl 0.56179(7) -0.0000 0.2500
O3_4 O 0.52378(19) 0.04921(19) 0.2737(2)
O4_4 O 0.5991(2) 0.0239(2) 0.2005(2)
Cl7_6 Cl 0.56179(7) 1.0000 0.2500
O1_4 O 0.52378(19) 0.95079(19) 0.2263(2)
O2_4 O 0.5991(2) 0.9761(2) 0.2995(2)
Cl7_7 Cl 0.7500 0.06179(7) 0.5000
O1_5 O 0.7737(2) 0.02378(19) 0.54921(19)
O2_5 O 0.7005(2) 0.0991(2) 0.5239(2)
O3_5 O 0.7263(2) 0.02378(19) 0.45079(19)
O4_5 O 0.7995(2) 0.0991(2) 0.4761(2)
Cl7_8 Cl 0.2500 0.43821(7) 0.5000
O1_6 O 0.2737(2) 0.47622(19) 0.45079(19)
O2_6 O 0.2005(2) 0.4009(2) 0.4761(2)
O3_6 O 0.2263(2) 0.47622(19) 0.54921(19)
O4_6 O 0.2995(2) 0.4009(2) 0.5239(2)
Cl7_9 Cl 0.7500 0.93821(7) 0.0000
O1_7 O 0.7263(2) 0.97622(19) 0.04921(19)
O2_7 O 0.7995(2) 0.9009(2) 0.0239(2)
Cl7_10 Cl 0.7500 0.93821(7) 1.0000
O3_7 O 0.7737(2) 0.97622(19) 0.95079(19)
O4_7 O 0.7005(2) 0.9009(2) 0.9761(2)
Cl7_11 Cl 0.2500 0.56179(7) -0.0000
O3_8 O 0.2737(2) 0.52378(19) 0.04921(19)
O4_8 O 0.2005(2) 0.5991(2) 0.0239(2)
Cl7_12 Cl 0.2500 0.56179(7) 1.0000
O1_8 O 0.2263(2) 0.52378(19) 0.95079(19)
O2_8 O 0.2995(2) 0.5991(2) 0.9761(2)
Cl7_13 Cl 0.5000 0.7500 0.06179(7)
O1_9 O 0.54921(19) 0.7737(2) 0.02378(19)
O2_9 O 0.5239(2) 0.7005(2) 0.0991(2)
O3_9 O 0.45079(19) 0.7263(2) 0.02378(19)
O4_9 O 0.4761(2) 0.7995(2) 0.0991(2)
Cl7_14 Cl 0.5000 0.2500 0.43821(7)
O1_10 O 0.45079(19) 0.2737(2) 0.47622(19)
O2_10 O 0.4761(2) 0.2005(2) 0.4009(2)
O3_10 O 0.54921(19) 0.2263(2) 0.47622(19)
O4_10 O 0.5239(2) 0.2995(2) 0.4009(2)
Cl7_15 Cl 0.0000 0.7500 0.93821(7)
O1_11 O 0.04921(19) 0.7263(2) 0.97622(19)
O2_11 O 0.0239(2) 0.7995(2) 0.9009(2)
Cl7_16 Cl 1.0000 0.7500 0.93821(7)
O3_11 O 0.95079(19) 0.7737(2) 0.97622(19)
O4_11 O 0.9761(2) 0.7005(2) 0.9009(2)
Cl7_17 Cl -0.0000 0.2500 0.56179(7)
O3_12 O 0.04921(19) 0.2737(2) 0.52378(19)
O4_12 O 0.0239(2) 0.2005(2) 0.5991(2)
Cl7_18 Cl 1.0000 0.2500 0.56179(7)
O1_12 O 0.95079(19) 0.2263(2) 0.52378(19)
O2_12 O 0.9761(2) 0.2995(2) 0.5991(2)
loop_
_geom_bond_atom_site_label_1
_geom_bond_atom_site_label_2
_geom_bond_site_symmetry_1
_geom_bond_site_symmetry_2
H25 C34 1_555 1_555
C35 C34 1_555 1_555
H26 C35 1_555 1_555
C36 C35 1_555 1_555
Cl3 C36 1_555 1_555
C32 C33 1_555 1_555
C33 H24 1_555 1_555
N9 C32 1_555 1_555
H27 N9 1_555 1_555
N10 C32 1_555 1_555
Ag3 N8 1_555 1_555
N8 N9 1_555 1_555
N10 Ag3 1_555 1_555
C1 C2 1_555 1_555
C2 H1 1_555 1_555
C3 C2 1_555 1_555
H2 C3 1_555 1_555
C4 C3 1_555 1_555
C5 C4 1_555 1_555
H3 C5 1_555 1_555
C6 C1 1_555 1_555
H4 C6 1_555 1_555
C7 C4 1_555 1_555
N1 C1 1_555 1_555
C13 N1 1_555 1_555
C14 C13 1_555 1_555
H10 C14 1_555 1_555
C15 C14 1_555 1_555
H11 C15 1_555 1_555
C16 C15 1_555 1_555
C17 C16 1_555 1_555
H12 C17 1_555 1_555
C18 C13 1_555 1_555
H13 C18 1_555 1_555
C19 C16 1_555 1_555
H14 C19 1_555 1_555
C20 C21 1_555 1_555
C21 H15 1_555 1_555
C22 C21 1_555 1_555
H16 C22 1_555 1_555
C23 C22 1_555 1_555
H17 C23 1_555 1_555
C24 C23 1_555 1_555
Cl2 C24 1_555 1_555
N5 C19 1_555 1_555
N6 C20 1_555 1_555
H18 N6 1_555 1_555
N7 C20 1_555 1_555
C25 N1 1_555 1_555
C26 C25 1_555 1_555
H19 C26 1_555 1_555
C27 C26 1_555 1_555
H20 C27 1_555 1_555
C28 C27 1_555 1_555
C29 C28 1_555 1_555
H21 C29 1_555 1_555
C30 C25 1_555 1_555
H22 C30 1_555 1_555
C31 C28 1_555 1_555
Ag2 N5 1_555 1_555
C37 C38 1_555 1_555
C38 H28 1_555 1_555
C39 C38 1_555 1_555
H29 C39 1_555 1_555
C40 C39 1_555 1_555
C41 C40 1_555 1_555
H30 C41 1_555 1_555
C42 C37 1_555 1_555
H31 C42 1_555 1_555
C43 C40 1_555 1_555
N11 C37 1_555 1_555
C49 N11 1_555 1_555
C50 C49 1_555 1_555
H37 C50 1_555 1_555
C51 C50 1_555 1_555
H38 C51 1_555 1_555
C52 C51 1_555 1_555
C53 C52 1_555 1_555
H39 C53 1_555 1_555
C54 C49 1_555 1_555
H40 C54 1_555 1_555
C55 C52 1_555 1_555
H41 C55 1_555 1_555
C56 C57 1_555 1_555
C57 H42 1_555 1_555
C58 C57 1_555 1_555
H43 C58 1_555 1_555
C59 C58 1_555 1_555
H44 C59 1_555 1_555
C60 C59 1_555 1_555
Cl5 C60 1_555 1_555
N15 Ag2 1_555 1_555
N16 C56 1_555 1_555
H45 N16 1_555 1_555
N17 Ag2 1_555 1_555
C61 N11 1_555 1_555
C62 C61 1_555 1_555
H46 C62 1_555 1_555
C63 C62 1_555 1_555
H47 C63 1_555 1_555
C64 C63 1_555 1_555
C65 C64 1_555 1_555
H48 C65 1_555 1_555
C66 C61 1_555 1_555
H49 C66 1_555 1_555
C67 C64 1_555 1_555
H50 C67 1_555 1_555
C68 C69 1_555 1_555
C69 H51 1_555 1_555
N18 C67 1_555 1_555
N19 C68 1_555 1_555
H54 N19 1_555 1_555
N20 C68 1_555 1_555
Ag5 N18 1_555 1_555
N21 Ag1 1_555 1_555
N22 Ag3_2 1_555 1_555
N23 Ag1 1_555 1_555
N24 Ag3_2 1_555 1_555
C5 C6 1_555 1_555
C17 C18 1_555 1_555
C24 N7 1_555 1_555
N5 N6 1_555 1_555
N7 Ag2 1_555 1_555
C29 C30 1_555 1_555
C41 C42 1_555 1_555
C53 C54 1_555 1_555
C55 N15 1_555 1_555
C56 N17 1_555 1_555
C60 N17 1_555 1_555
N15 N16 1_555 1_555
C65 C66 1_555 1_555
N18 N19 1_555 1_555
N20 Ag5 1_555 1_555
Ag1_2 N2 1_555 1_555
C8 C9 1_555 1_555
C9 H6 1_555 1_555
C10 C9 1_555 1_555
H7 C10 1_555 1_555
C11 C10 1_555 1_555
H8 C11 1_555 1_555
C12 C11 1_555 1_555
Cl1 C12 1_555 1_555
N3 C8 1_555 1_555
H9 N3 1_555 1_555
N4 Ag1_2 1_555 1_555
C44 C45 1_555 1_555
C45 H33 1_555 1_555
N13 C44 1_555 1_555
H36 N13 1_555 1_555
N14 C44 1_555 1_555
Ag4_2 N12 1_555 1_555
C8 N4 1_555 1_555
C12 N4 1_555 1_555
N2 N3 1_555 1_555
N12 N13 1_555 1_555
N14 Ag4_2 1_555 1_555
H52 C70 1_555 1_555
C71 C70 1_555 1_555
H53 C71 1_555 1_555
C72 C71 1_555 1_555
Cl6 C72 1_555 1_555
C20_2 C21_2 1_555 1_555
C21_2 H15_2 1_555 1_555
N6_2 C20_2 1_555 1_555
H18_2 N6_2 1_555 1_555
N7_2 C20_2 1_555 1_555
Ag2_2 N5_2 1_555 1_555
C37_2 C38_2 1_555 1_555
C38_2 H28_2 1_555 1_555
C39_2 C38_2 1_555 1_555
H29_2 C39_2 1_555 1_555
C40_2 C39_2 1_555 1_555
C41_2 C40_2 1_555 1_555
H30_2 C41_2 1_555 1_555
C42_2 C37_2 1_555 1_555
H31_2 C42_2 1_555 1_555
C43_2 C40_2 1_555 1_555
H32_2 C43_2 1_555 1_555
C44_2 C45_2 1_555 1_555
C45_2 H33_2 1_555 1_555
N11_2 C37_2 1_555 1_555
N12_2 C43_2 1_555 1_555
N13_2 C44_2 1_555 1_555
H36_2 N13_2 1_555 1_555
N14_2 C44_2 1_555 1_555
C49_2 N11_2 1_555 1_555
C50_2 C49_2 1_555 1_555
H37_2 C50_2 1_555 1_555
C51_2 C50_2 1_555 1_555
H38_2 C51_2 1_555 1_555
C52_2 C51_2 1_555 1_555
C53_2 C52_2 1_555 1_555
H39_2 C53_2 1_555 1_555
C54_2 C49_2 1_555 1_555
H40_2 C54_2 1_555 1_555
C55_2 C52_2 1_555 1_555
C61_2 N11_2 1_555 1_555
C62_2 C61_2 1_555 1_555
H46_2 C62_2 1_555 1_555
C63_2 C62_2 1_555 1_555
H47_2 C63_2 1_555 1_555
C64_2 C63_2 1_555 1_555
C65_2 C64_2 1_555 1_555
H48_2 C65_2 1_555 1_555
C66_2 C61_2 1_555 1_555
H49_2 C66_2 1_555 1_555
C67_2 C64_2 1_555 1_555
H50_2 C67_2 1_555 1_555
C68_2 C69_2 1_555 1_555
C69_2 H51_2 1_555 1_555
C70_2 C69_2 1_555 1_555
H52_2 C70_2 1_555 1_555
C71_2 C70_2 1_555 1_555
H53_2 C71_2 1_555 1_555
C72_2 C71_2 1_555 1_555
Cl6_2 C72_2 1_555 1_555
N18_2 C67_2 1_555 1_555
N19_2 C68_2 1_555 1_555
H54_2 N19_2 1_555 1_555
N20_2 C68_2 1_555 1_555
Ag4_3 N12_2 1_555 1_555
Ag5_2 N18_2 1_555 1_555
N5_2 N6_2 1_555 1_555
N7_2 Ag2_2 1_555 1_555
C41_2 C42_2 1_555 1_555
N12_2 N13_2 1_555 1_555
N14_2 Ag4_3 1_555 1_555
C53_2 C54_2 1_555 1_555
C65_2 C66_2 1_555 1_555
C72_2 N20_2 1_555 1_555
N18_2 N19_2 1_555 1_555
N20_2 Ag5_2 1_555 1_555
H34 C46 1_555 1_555
C47 C46 1_555 1_555
H35 C47 1_555 1_555
C48 C47 1_555 1_555
Cl4 C48 1_555 1_555
Ag1_3 N2_2 1_555 1_555
C1_2 C2_2 1_555 1_555
C2_2 H1_2 1_555 1_555
C3_2 C2_2 1_555 1_555
H2_2 C3_2 1_555 1_555
C4_2 C3_2 1_555 1_555
C5_2 C4_2 1_555 1_555
H3_2 C5_2 1_555 1_555
C6_2 C1_2 1_555 1_555
H4_2 C6_2 1_555 1_555
C7_2 C4_2 1_555 1_555
H5_2 C7_2 1_555 1_555
C8_2 C9_2 1_555 1_555
C9_2 H6_2 1_555 1_555
C10_2 C9_2 1_555 1_555
H7_2 C10_2 1_555 1_555
C11_2 C10_2 1_555 1_555
H8_2 C11_2 1_555 1_555
C12_2 C11_2 1_555 1_555
Cl1_2 C12_2 1_555 1_555
N1_2 C1_2 1_555 1_555
N2_2 C7_2 1_555 1_555
N3_2 C8_2 1_555 1_555
H9_2 N3_2 1_555 1_555
N4_2 Ag1_3 1_555 1_555
C13_2 N1_2 1_555 1_555
C14_2 C13_2 1_555 1_555
H10_2 C14_2 1_555 1_555
C15_2 C14_2 1_555 1_555
H11_2 C15_2 1_555 1_555
C16_2 C15_2 1_555 1_555
C17_2 C16_2 1_555 1_555
H12_2 C17_2 1_555 1_555
C18_2 C13_2 1_555 1_555
H13_2 C18_2 1_555 1_555
C19_2 C16_2 1_555 1_555
C25_2 N1_2 1_555 1_555
C26_2 C25_2 1_555 1_555
H19_2 C26_2 1_555 1_555
C27_2 C26_2 1_555 1_555
H20_2 C27_2 1_555 1_555
C28_2 C27_2 1_555 1_555
C29_2 C28_2 1_555 1_555
H21_2 C29_2 1_555 1_555
C30_2 C25_2 1_555 1_555
H22_2 C30_2 1_555 1_555
C31_2 C28_2 1_555 1_555
C56_2 C57_2 1_555 1_555
C57_2 H42_2 1_555 1_555
N15_2 Ag2_3 1_555 1_555
N16_2 C56_2 1_555 1_555
H45_2 N16_2 1_555 1_555
N17_2 Ag2_3 1_555 1_555
N21_2 Ag1_3 1_555 1_555
N22_2 Ag3_3 1_555 1_555
N23_2 Ag1_3 1_555 1_555
N24_2 Ag3_3 1_555 1_555
C5_2 C6_2 1_555 1_555
C8_2 N4_2 1_555 1_555
C12_2 N4_2 1_555 1_555
N2_2 N3_2 1_555 1_555
C17_2 C18_2 1_555 1_555
C29_2 C30_2 1_555 1_555
C56_2 N17_2 1_555 1_555
N15_2 N16_2 1_555 1_555
C32_2 C33_2 1_555 1_555
C33_2 H24_2 1_555 1_555
C34_2 C33_2 1_555 1_555
H25_2 C34_2 1_555 1_555
C35_2 C34_2 1_555 1_555
H26_2 C35_2 1_555 1_555
C36_2 C35_2 1_555 1_555
Cl3_2 C36_2 1_555 1_555
N9_2 C32_2 1_555 1_555
H27_2 N9_2 1_555 1_555
N10_2 C32_2 1_555 1_555
Ag3_4 N8_2 1_555 1_555
C36_2 N10_2 1_555 1_555
N8_2 N9_2 1_555 1_555
N10_2 Ag3_4 1_555 1_555
Ag4_3 N2_3 1_555 1_555
C1_3 C2_3 1_555 1_555
C2_3 H1_3 1_555 1_555
C3_3 C2_3 1_555 1_555
H2_3 C3_3 1_555 1_555
C4_3 C3_3 1_555 1_555
C5_3 C4_3 1_555 1_555
H3_3 C5_3 1_555 1_555
C6_3 C1_3 1_555 1_555
H4_3 C6_3 1_555 1_555
C7_3 C4_3 1_555 1_555
H5_3 C7_3 1_555 1_555
C8_3 C9_3 1_555 1_555
C9_3 H6_3 1_555 1_555
N1_3 C1_3 1_555 1_555
N2_3 C7_3 1_555 1_555
N3_3 C8_3 1_555 1_555
H9_3 N3_3 1_555 1_555
N4_3 Ag4_3 1_555 1_555
C13_3 N1_3 1_555 1_555
C14_3 C13_3 1_555 1_555
H10_3 C14_3 1_555 1_555
C15_3 C14_3 1_555 1_555
H11_3 C15_3 1_555 1_555
C16_3 C15_3 1_555 1_555
C17_3 C16_3 1_555 1_555
H12_3 C17_3 1_555 1_555
C18_3 C13_3 1_555 1_555
H13_3 C18_3 1_555 1_555
C19_3 C16_3 1_555 1_555
H14_3 C19_3 1_555 1_555
C20_3 C21_3 1_555 1_555
C21_3 H15_3 1_555 1_555
N5_3 C19_3 1_555 1_555
N6_3 C20_3 1_555 1_555
H18_3 N6_3 1_555 1_555
N7_3 C20_3 1_555 1_555
C25_3 N1_3 1_555 1_555
C26_3 C25_3 1_555 1_555
H19_3 C26_3 1_555 1_555
C27_3 C26_3 1_555 1_555
H20_3 C27_3 1_555 1_555
C28_3 C27_3 1_555 1_555
C29_3 C28_3 1_555 1_555
H21_3 C29_3 1_555 1_555
C30_3 C25_3 1_555 1_555
H22_3 C30_3 1_555 1_555
C31_3 C28_3 1_555 1_555
H23_3 C31_3 1_555 1_555
C32_3 C33_3 1_555 1_555
C33_3 H24_3 1_555 1_555
N8_3 C31_3 1_555 1_555
N9_3 C32_3 1_555 1_555
H27_3 N9_3 1_555 1_555
N10_3 C32_3 1_555 1_555
Ag2_4 N5_3 1_555 1_555
Ag5 N8_3 1_555 1_555
C37_3 C38_3 1_555 1_555
C38_3 H28_3 1_555 1_555
C39_3 C38_3 1_555 1_555
H29_3 C39_3 1_555 1_555
C40_3 C39_3 1_555 1_555
C41_3 C40_3 1_555 1_555
H30_3 C41_3 1_555 1_555
C42_3 C37_3 1_555 1_555
H31_3 C42_3 1_555 1_555
C43_3 C40_3 1_555 1_555
H32_3 C43_3 1_555 1_555
C44_3 C45_3 1_555 1_555
C45_3 H33_3 1_555 1_555
C46_2 C45_3 1_555 1_555
H34_2 C46_2 1_555 1_555
C47_2 C46_2 1_555 1_555
H35_2 C47_2 1_555 1_555
C48_2 C47_2 1_555 1_555
Cl4_2 C48_2 1_555 1_555
N11_3 C37_3 1_555 1_555
N21_2 C43_3 1_555 1_555
N13_3 C44_3 1_555 1_555
H36_3 N13_3 1_555 1_555
N23_2 C44_3 1_555 1_555
C49_3 N11_3 1_555 1_555
C50_3 C49_3 1_555 1_555
H37_3 C50_3 1_555 1_555
C51_3 C50_3 1_555 1_555
H38_3 C51_3 1_555 1_555
C52_3 C51_3 1_555 1_555
C53_3 C52_3 1_555 1_555
H39_3 C53_3 1_555 1_555
C54_3 C49_3 1_555 1_555
H40_3 C54_3 1_555 1_555
C55_3 C52_3 1_555 1_555
H41_3 C55_3 1_555 1_555
C56_3 C57_3 1_555 1_555
C57_3 H42_3 1_555 1_555
N15_3 Ag2_4 1_555 1_555
N16_3 C56_3 1_555 1_555
H45_3 N16_3 1_555 1_555
N17_3 Ag2_4 1_555 1_555
C61_3 N11_3 1_555 1_555
C62_3 C61_3 1_555 1_555
H46_3 C62_3 1_555 1_555
C63_3 C62_3 1_555 1_555
H47_3 C63_3 1_555 1_555
C64_3 C63_3 1_555 1_555
C65_3 C64_3 1_555 1_555
H48_3 C65_3 1_555 1_555
C66_3 C61_3 1_555 1_555
H49_3 C66_3 1_555 1_555
C67_3 C64_3 1_555 1_555
C5_3 C6_3 1_555 1_555
C8_3 N4_3 1_555 1_555
N2_3 N3_3 1_555 1_555
C17_3 C18_3 1_555 1_555
N5_3 N6_3 1_555 1_555
N7_3 Ag2_4 1_555 1_555
C29_3 C30_3 1_555 1_555
N8_3 N9_3 1_555 1_555
N10_3 Ag5 1_555 1_555
C41_3 C42_3 1_555 1_555
C48_2 N23_2 1_555 1_555
N21_2 N13_3 1_555 1_555
C53_3 C54_3 1_555 1_555
C55_3 N15_3 1_555 1_555
C56_3 N17_3 1_555 1_555
N15_3 N16_3 1_555 1_555
C65_3 C66_3 1_555 1_555
H16_2 C22_2 1_555 1_555
C23_2 C22_2 1_555 1_555
H17_2 C23_2 1_555 1_555
C24_2 C23_2 1_555 1_555
Cl2_2 C24_2 1_555 1_555
H43_2 C58_2 1_555 1_555
C59_2 C58_2 1_555 1_555
H44_2 C59_2 1_555 1_555
C60_2 C59_2 1_555 1_555
Cl5_2 C60_2 1_555 1_555
H7_3 C10_3 1_555 1_555
C11_3 C10_3 1_555 1_555
H8_3 C11_3 1_555 1_555
C12_3 C11_3 1_555 1_555
Cl1_3 C12_3 1_555 1_555
C68_3 C69_3 1_555 1_555
C69_3 H51_3 1_555 1_555
N19_3 C68_3 1_555 1_555
H54_3 N19_3 1_555 1_555
N24 C68_3 1_555 1_555
N22 N19_3 1_555 1_555
H25_3 C34_3 1_555 1_555
C35_3 C34_3 1_555 1_555
H26_3 C35_3 1_555 1_555
C36_3 C35_3 1_555 1_555
Cl3_3 C36_3 1_555 1_555
Ag4 N2_4 1_555 1_555
C8_4 C9_4 1_555 1_555
C9_4 H6_4 1_555 1_555
N3_4 C8_4 1_555 1_555
H9_4 N3_4 1_555 1_555
N4_4 Ag4 1_555 1_555
C8_4 N4_4 1_555 1_555
N2_4 N3_4 1_555 1_555
C1_4 C2_4 1_555 1_555
C2_4 H1_4 1_555 1_555
C3_4 C2_4 1_555 1_555
H2_4 C3_4 1_555 1_555
C4_4 C3_4 1_555 1_555
C5_4 C4_4 1_555 1_555
H3_4 C5_4 1_555 1_555
C6_4 C1_4 1_555 1_555
H4_4 C6_4 1_555 1_555
C7_4 C4_4 1_555 1_555
N1_4 C1_4 1_555 1_555
C13_4 N1_4 1_555 1_555
C14_4 C13_4 1_555 1_555
H10_4 C14_4 1_555 1_555
C15_4 C14_4 1_555 1_555
H11_4 C15_4 1_555 1_555
C16_4 C15_4 1_555 1_555
C17_4 C16_4 1_555 1_555
H12_4 C17_4 1_555 1_555
C18_4 C13_4 1_555 1_555
H13_4 C18_4 1_555 1_555
C19_4 C16_4 1_555 1_555
C25_4 N1_4 1_555 1_555
C26_4 C25_4 1_555 1_555
H19_4 C26_4 1_555 1_555
C27_4 C26_4 1_555 1_555
H20_4 C27_4 1_555 1_555
C28_4 C27_4 1_555 1_555
C29_4 C28_4 1_555 1_555
H21_4 C29_4 1_555 1_555
C30_4 C25_4 1_555 1_555
H22_4 C30_4 1_555 1_555
C31_4 C28_4 1_555 1_555
H23_4 C31_4 1_555 1_555
C32_4 C33_4 1_555 1_555
C33_4 H24_4 1_555 1_555
C34_4 C33_4 1_555 1_555
H25_4 C34_4 1_555 1_555
C35_4 C34_4 1_555 1_555
H26_4 C35_4 1_555 1_555
C36_4 C35_4 1_555 1_555
Cl3_4 C36_4 1_555 1_555
N8_4 C31_4 1_555 1_555
N9_4 C32_4 1_555 1_555
H27_4 N9_4 1_555 1_555
N10_4 C32_4 1_555 1_555
Ag5_2 N8_4 1_555 1_555
C56_4 C57_4 1_555 1_555
C57_4 H42_4 1_555 1_555
C58_3 C57_4 1_555 1_555
H43_3 C58_3 1_555 1_555
C59_3 C58_3 1_555 1_555
H44_3 C59_3 1_555 1_555
C60_3 C59_3 1_555 1_555
Cl5_3 C60_3 1_555 1_555
N15_4 Ag2_5 1_555 1_555
N16_4 C56_4 1_555 1_555
H45_4 N16_4 1_555 1_555
N17_4 Ag2_5 1_555 1_555
C5_4 C6_4 1_555 1_555
C17_4 C18_4 1_555 1_555
C29_4 C30_4 1_555 1_555
C36_4 N10_4 1_555 1_555
N8_4 N9_4 1_555 1_555
N10_4 Ag5_2 1_555 1_555
C56_4 N17_4 1_555 1_555
C60_3 N17_4 1_555 1_555
N15_4 N16_4 1_555 1_555
C68_4 C69_4 1_555 1_555
C69_4 H51_4 1_555 1_555
C70_3 C69_4 1_555 1_555
H52_3 C70_3 1_555 1_555
C71_3 C70_3 1_555 1_555
H53_3 C71_3 1_555 1_555
C72_3 C71_3 1_555 1_555
Cl6_3 C72_3 1_555 1_555
N19_4 C68_4 1_555 1_555
H54_4 N19_4 1_555 1_555
N24_2 C68_4 1_555 1_555
C72_3 N24_2 1_555 1_555
N22_2 N19_4 1_555 1_555
C44_4 C45_4 1_555 1_555
C45_4 H33_4 1_555 1_555
C46_3 C45_4 1_555 1_555
H34_3 C46_3 1_555 1_555
C47_3 C46_3 1_555 1_555
H35_3 C47_3 1_555 1_555
C48_3 C47_3 1_555 1_555
Cl4_3 C48_3 1_555 1_555
N13_4 C44_4 1_555 1_555
H36_4 N13_4 1_555 1_555
N23 C44_4 1_555 1_555
C48_3 N23 1_555 1_555
N21 N13_4 1_555 1_555
C20_4 C21_4 1_555 1_555
C21_4 H15_4 1_555 1_555
C22_3 C21_4 1_555 1_555
H16_3 C22_3 1_555 1_555
C23_3 C22_3 1_555 1_555
H17_3 C23_3 1_555 1_555
C24_3 C23_3 1_555 1_555
Cl2_3 C24_3 1_555 1_555
N6_4 C20_4 1_555 1_555
H18_4 N6_4 1_555 1_555
N7_4 C20_4 1_555 1_555
Ag2_6 N5_4 1_555 1_555
C37_4 C38_4 1_555 1_555
C38_4 H28_4 1_555 1_555
C39_4 C38_4 1_555 1_555
H29_4 C39_4 1_555 1_555
C40_4 C39_4 1_555 1_555
C41_4 C40_4 1_555 1_555
H30_4 C41_4 1_555 1_555
C42_4 C37_4 1_555 1_555
H31_4 C42_4 1_555 1_555
C43_4 C40_4 1_555 1_555
N11_4 C37_4 1_555 1_555
C49_4 N11_4 1_555 1_555
C50_4 C49_4 1_555 1_555
H37_4 C50_4 1_555 1_555
C51_4 C50_4 1_555 1_555
H38_4 C51_4 1_555 1_555
C52_4 C51_4 1_555 1_555
C53_4 C52_4 1_555 1_555
H39_4 C53_4 1_555 1_555
C54_4 C49_4 1_555 1_555
H40_4 C54_4 1_555 1_555
C55_4 C52_4 1_555 1_555
C61_4 N11_4 1_555 1_555
C62_4 C61_4 1_555 1_555
H46_4 C62_4 1_555 1_555
C63_4 C62_4 1_555 1_555
H47_4 C63_4 1_555 1_555
C64_4 C63_4 1_555 1_555
C65_4 C64_4 1_555 1_555
H48_4 C65_4 1_555 1_555
C66_4 C61_4 1_555 1_555
H49_4 C66_4 1_555 1_555
C67_4 C64_4 1_555 1_555
C24_3 N7_4 1_555 1_555
N5_4 N6_4 1_555 1_555
N7_4 Ag2_6 1_555 1_555
C41_4 C42_4 1_555 1_555
C53_4 C54_4 1_555 1_555
C65_4 C66_4 1_555 1_555
H34_4 C46_4 1_555 1_555
C47_4 C46_4 1_555 1_555
H35_4 C47_4 1_555 1_555
C48_4 C47_4 1_555 1_555
Cl4_4 C48_4 1_555 1_555
H16_4 C22_4 1_555 1_555
C23_4 C22_4 1_555 1_555
H17_4 C23_4 1_555 1_555
C24_4 C23_4 1_555 1_555
Cl2_4 C24_4 1_555 1_555
H43_4 C58_4 1_555 1_555
C59_4 C58_4 1_555 1_555
H44_4 C59_4 1_555 1_555
C60_4 C59_4 1_555 1_555
Cl5_4 C60_4 1_555 1_555
H52_4 C70_4 1_555 1_555
C71_4 C70_4 1_555 1_555
H53_4 C71_4 1_555 1_555
C72_4 C71_4 1_555 1_555
Cl6_4 C72_4 1_555 1_555
H7_4 C10_4 1_555 1_555
C11_4 C10_4 1_555 1_555
H8_4 C11_4 1_555 1_555
C12_4 C11_4 1_555 1_555
Cl1_4 C12_4 1_555 1_555
Cl7 O1 1_555 1_555
O2 Cl7 1_555 1_555
O3 Cl7 1_555 1_555
O4 Cl7 1_555 1_555
Cl7_2 O1_2 1_555 1_555
O2_2 Cl7_2 1_555 1_555
O3_2 Cl7_2 1_555 1_555
O4_2 Cl7_2 1_555 1_555
Cl7_3 O1_3 1_555 1_555
O2_3 Cl7_3 1_555 1_555
O3_3 Cl7_4 1_555 1_555
O4_3 Cl7_4 1_555 1_555
O3_4 Cl7_5 1_555 1_555
O4_4 Cl7_5 1_555 1_555
Cl7_6 O1_4 1_555 1_555
O2_4 Cl7_6 1_555 1_555
Cl7_7 O1_5 1_555 1_555
O2_5 Cl7_7 1_555 1_555
O3_5 Cl7_7 1_555 1_555
O4_5 Cl7_7 1_555 1_555
Cl7_8 O1_6 1_555 1_555
O2_6 Cl7_8 1_555 1_555
O3_6 Cl7_8 1_555 1_555
O4_6 Cl7_8 1_555 1_555
Cl7_9 O1_7 1_555 1_555
O2_7 Cl7_9 1_555 1_555
O3_7 Cl7_10 1_555 1_555
O4_7 Cl7_10 1_555 1_555
O3_8 Cl7_11 1_555 1_555
O4_8 Cl7_11 1_555 1_555
Cl7_12 O1_8 1_555 1_555
O2_8 Cl7_12 1_555 1_555
Cl7_13 O1_9 1_555 1_555
O2_9 Cl7_13 1_555 1_555
O3_9 Cl7_13 1_555 1_555
O4_9 Cl7_13 1_555 1_555
Cl7_14 O1_10 1_555 1_555
O2_10 Cl7_14 1_555 1_555
O3_10 Cl7_14 1_555 1_555
O4_10 Cl7_14 1_555 1_555
Cl7_15 O1_11 1_555 1_555
O2_11 Cl7_15 1_555 1_555
O3_11 Cl7_16 1_555 1_555
O4_11 Cl7_16 1_555 1_555
O3_12 Cl7_17 1_555 1_555
O4_12 Cl7_17 1_555 1_555
Cl7_18 O1_12 1_555 1_555
O2_12 Cl7_18 1_555 1_555

#END
