
###############################################################################
#
# This file contains modified crystal structure data generated from the
# MOF subset of the Cambridge Structural Database (CSD) v543 
# hosted by the Cambridge Crystallographic Data Centre (CCDC).
#
# This work is licensed under the Creative Commons
# Attribution-NonCommercial-ShareAlike 4.0 International License.
# To view a copy of this license, visit
# http://creativecommons.org/licenses/by-nc-sa/4.0/
# or send a letter to
# Creative Commons, PO Box 1866, Mountain View, CA 94042, USA.
#
# CIF created using the CSD Python API on 29 September 2022
# The structure has been converted into the P1 space group
# The structure has a 3D framework
# The original CSD entry KEPFIX03 is in the cubic crystal system
# The original CSD entry KEPFIX03 is in a Sohncke space group
# The framework has been calculated to contain at least 10.0% void space
# The void calculation uses a probe of radius 1.32A, grid spacing 0.4
# The framework is charged, counterions have been retained in the structure
#
###############################################################################

data_KEPFIX03
_chemical_formula_moiety         '(C288 H216 Ag14 Cl42 N80 O48 2+)n'
_symmetry_cell_setting           triclinic
_symmetry_space_group_name_H-M   'P 1'
_symmetry_Int_Tables_number      1
_space_group_name_Hall           'P 1'
loop_
_symmetry_equiv_pos_site_id
_symmetry_equiv_pos_as_xyz
1 x,y,z
_cell_length_a                   21.3446(3)
_cell_length_b                   21.3446(3)
_cell_length_c                   21.3446(3)
_cell_angle_alpha                90
_cell_angle_beta                 90
_cell_angle_gamma                90
_cell_volume                     9724.43
loop_
_atom_site_label
_atom_site_type_symbol
_atom_site_fract_x
_atom_site_fract_y
_atom_site_fract_z
C13 C 0.4973(2) 0.0034(2) 0.07844(19)
C14 C 0.4328(2) 0.0069(2) 0.0858(2)
C15 C 0.4078(2) 0.0337(2) 0.1396(2)
H11 H 0.3640 0.0353 0.1447
C16 C 0.4460(2) 0.0580(2) 0.1854(2)
C17 C 0.5102(2) 0.0546(2) 0.1768(2)
H12 H 0.5367 0.0713 0.2077
C18 C 0.5361(2) 0.0276(2) 0.1248(2)
H13 H 0.5799 0.0255 0.1204
C19 C 0.4223(2) 0.0888(2) 0.2422(2)
H14 H 0.4499 0.1141 0.2653
C20 C 0.2971(2) 0.1096(2) 0.3447(2)
C21 C 0.2800(3) 0.1530(2) 0.3910(2)
H15 H 0.3049 0.1882 0.3998
C22 C 0.2251(3) 0.1419(3) 0.4233(3)
H16 H 0.2118 0.1702 0.4543
C23 C 0.1903(3) 0.0907(3) 0.4105(3)
H17 H 0.1531 0.0825 0.4326
C24 C 0.2106(3) 0.0510(3) 0.3646(3)
N5 N 0.36676(17) 0.08304(17) 0.26157(17)
N6 N 0.35147(19) 0.11795(18) 0.31291(18)
H18 H 0.3775 0.1466 0.3257
N7 N 0.26176(19) 0.05880(18) 0.3312(2)
H19 H 0.5546 0.0939 0.0089
Cl3 Cl 0.84499(12) 0.33301(9) 0.01414(9)
Ag2 Ag 0.28992(3) -0.0000 0.2500
Ag3 Ag 0.7500 0.21008(3) 0.0000
N22 N 0.73843(17) 0.13324(17) 0.08304(17)
N24 N 0.6688(2) 0.23824(19) 0.05880(18)
C25 C 0.57844(19) 0.0027(2) 0.9966(2)
C26 C 0.5858(2) 0.0672(2) 0.9931(2)
C27 C 0.6396(2) 0.0922(2) 0.9663(2)
H20 H 0.6447 0.1360 0.9647
C28 C 0.6854(2) 0.0540(2) 0.9420(2)
C31 C 0.7422(2) 0.0777(2) 0.9112(2)
H23 H 0.7653 0.0501 0.8859
C32 C 0.8447(2) 0.2029(2) 0.8904(2)
C33 C 0.8910(2) 0.2200(3) 0.8470(2)
H24 H 0.8998 0.1951 0.8118
C34 C 0.9233(3) 0.2749(3) 0.8581(3)
H25 H 0.9543 0.2882 0.8298
C35 C 0.9105(3) 0.3097(3) 0.9093(3)
H26 H 0.9326 0.3469 0.9175
C36 C 0.8646(3) 0.2894(3) 0.9490(3)
N8 N 0.76157(17) 0.13324(17) 0.91696(17)
N9 N 0.81291(18) 0.14853(19) 0.88205(18)
H27 H 0.8257 0.1225 0.8534
N10 N 0.8312(2) 0.23824(19) 0.94120(18)
Ag3_2 Ag 0.7500 0.21008(3) 1.0000
C5 C 0.4454(2) 0.8232(2) 0.0102(2)
H3 H 0.4287 0.7923 0.0367
C6 C 0.4724(2) 0.8752(2) 0.0361(2)
H4 H 0.4745 0.8796 0.0799
N1 N 0.5230(2) 0.9770(2) 0.0230(2)
H10 H 0.4061 0.9911 0.0546
Cl2 Cl 0.16699(9) 0.98586(9) 0.34499(12)
Ag2_2 Ag 0.28992(3) 1.0000 0.2500
C41 C 0.5546(2) 0.6768(2) 0.0102(2)
H30 H 0.5713 0.7077 0.0367
C42 C 0.5276(2) 0.6248(2) 0.0361(2)
H31 H 0.5255 0.6204 0.0799
N11 N 0.4770(2) 0.5230(2) 0.0230(2)
C49 C 0.5027(2) 0.4966(2) 0.07844(19)
C50 C 0.5672(2) 0.4931(2) 0.0858(2)
H37 H 0.5939 0.5089 0.0546
C51 C 0.5922(2) 0.4663(2) 0.1396(2)
H38 H 0.6360 0.4647 0.1447
C52 C 0.5540(2) 0.4420(2) 0.1854(2)
C53 C 0.4898(2) 0.4454(2) 0.1768(2)
H39 H 0.4633 0.4287 0.2077
C54 C 0.4639(2) 0.4724(2) 0.1248(2)
H40 H 0.4201 0.4745 0.1204
C55 C 0.5777(2) 0.4112(2) 0.2422(2)
H41 H 0.5501 0.3859 0.2653
C56 C 0.7029(2) 0.3904(2) 0.3447(2)
C57 C 0.7200(3) 0.3470(2) 0.3910(2)
H42 H 0.6951 0.3118 0.3998
C58 C 0.7749(3) 0.3581(3) 0.4233(3)
H43 H 0.7882 0.3298 0.4543
C59 C 0.8097(3) 0.4093(3) 0.4105(3)
H44 H 0.8469 0.4175 0.4326
C60 C 0.7894(3) 0.4490(3) 0.3646(3)
Cl5 Cl 0.83301(9) 0.51414(9) 0.34499(12)
N15 N 0.63324(17) 0.41696(17) 0.26157(17)
N16 N 0.64853(19) 0.38205(18) 0.31291(18)
H45 H 0.6225 0.3534 0.3257
N17 N 0.73824(19) 0.44120(18) 0.3312(2)
H46 H 0.4454 0.4061 0.0089
Cl6 Cl 0.15501(12) 0.16699(9) 0.01414(9)
Ag4 Ag 0.71008(3) 0.5000 0.2500
Ag5 Ag 0.2500 0.28992(3) 0.0000
N21 N 0.36676(17) 0.91696(17) 0.23843(17)
N23 N 0.26176(19) 0.94120(18) 0.1688(2)
Ag1 Ag 0.5000 0.7500 0.78992(3)
C1 C 0.4966(2) 0.92156(19) 0.9973(2)
C2 C 0.4931(2) 0.9142(2) 0.9328(2)
H1 H 0.5089 0.9454 0.9061
C3 C 0.4663(2) 0.8604(2) 0.9078(2)
H2 H 0.4647 0.8553 0.8640
C4 C 0.4420(2) 0.8146(2) 0.9460(2)
C7 C 0.4112(2) 0.7578(2) 0.9223(2)
H5 H 0.3859 0.7347 0.9499
C8 C 0.3904(2) 0.6553(2) 0.7971(2)
C9 C 0.3470(2) 0.6090(2) 0.7800(3)
H6 H 0.3118 0.6002 0.8049
C10 C 0.3581(3) 0.5767(3) 0.7251(3)
H7 H 0.3298 0.5457 0.7118
C11 C 0.4093(3) 0.5895(3) 0.6903(3)
H8 H 0.4175 0.5674 0.6531
C12 C 0.4490(3) 0.6354(3) 0.7106(3)
Cl1 Cl 0.51414(9) 0.65501(12) 0.66699(9)
N2 N 0.41696(17) 0.73843(17) 0.86676(17)
N3 N 0.38205(18) 0.68709(18) 0.85147(19)
H9 H 0.3534 0.6743 0.8775
N4 N 0.44120(18) 0.6688(2) 0.76176(19)
C29 C 0.6768(2) 0.9898(2) 0.9454(2)
H21 H 0.7077 0.9633 0.9287
C30 C 0.6248(2) 0.9639(2) 0.9724(2)
H22 H 0.6204 0.9201 0.9745
C37 C 0.5034(2) 0.57844(19) 0.9973(2)
C38 C 0.5069(2) 0.5858(2) 0.9328(2)
H28 H 0.4911 0.5546 0.9061
C39 C 0.5337(2) 0.6396(2) 0.9078(2)
H29 H 0.5353 0.6447 0.8640
C40 C 0.5580(2) 0.6854(2) 0.9460(2)
C43 C 0.5888(2) 0.7422(2) 0.9223(2)
H32 H 0.6141 0.7653 0.9499
C44 C 0.6096(2) 0.8447(2) 0.7971(2)
C45 C 0.6530(2) 0.8910(2) 0.7800(3)
H33 H 0.6882 0.8998 0.8049
C46 C 0.6419(3) 0.9233(3) 0.7251(3)
H34 H 0.6702 0.9543 0.7118
C47 C 0.5907(3) 0.9105(3) 0.6903(3)
H35 H 0.5825 0.9326 0.6531
C48 C 0.5510(3) 0.8646(3) 0.7106(3)
Cl4 Cl 0.48586(9) 0.84499(12) 0.66699(9)
N12 N 0.58304(17) 0.76157(17) 0.86676(17)
N13 N 0.61795(18) 0.81291(18) 0.85147(19)
H36 H 0.6466 0.8257 0.8775
N14 N 0.55880(18) 0.8312(2) 0.76176(19)
C61 C 0.42156(19) 0.4973(2) 0.9966(2)
C62 C 0.4142(2) 0.4328(2) 0.9931(2)
C63 C 0.3604(2) 0.4078(2) 0.9663(2)
H47 H 0.3553 0.3640 0.9647
C64 C 0.3146(2) 0.4460(2) 0.9420(2)
C65 C 0.3232(2) 0.5102(2) 0.9454(2)
H48 H 0.2923 0.5367 0.9287
C66 C 0.3752(2) 0.5361(2) 0.9724(2)
H49 H 0.3796 0.5799 0.9745
C67 C 0.2578(2) 0.4223(2) 0.9112(2)
H50 H 0.2347 0.4499 0.8859
C68 C 0.1553(2) 0.2971(2) 0.8904(2)
C69 C 0.1090(2) 0.2800(3) 0.8470(2)
H51 H 0.1002 0.3049 0.8118
C70 C 0.0767(3) 0.2251(3) 0.8581(3)
H52 H 0.0457 0.2118 0.8298
C71 C 0.0895(3) 0.1903(3) 0.9093(3)
H53 H 0.0674 0.1531 0.9175
C72 C 0.1354(3) 0.2106(3) 0.9490(3)
N18 N 0.23843(17) 0.36676(17) 0.91696(17)
N19 N 0.18709(18) 0.35147(19) 0.88205(18)
H54 H 0.1743 0.3775 0.8534
N20 N 0.1688(2) 0.26176(19) 0.94120(18)
Ag5_2 Ag 0.2500 0.28992(3) 1.0000
Ag1_2 Ag -0.0000 0.2500 0.28992(3)
C1_2 C 0.0034(2) 0.07844(19) 0.4973(2)
C2_2 C 0.0069(2) 0.0858(2) 0.4328(2)
C3_2 C 0.0337(2) 0.1396(2) 0.4078(2)
H2_2 H 0.0353 0.1447 0.3640
C4_2 C 0.0580(2) 0.1854(2) 0.4460(2)
C5_2 C 0.0546(2) 0.1768(2) 0.5102(2)
H3_2 H 0.0713 0.2077 0.5367
C6_2 C 0.0276(2) 0.1248(2) 0.5361(2)
H4_2 H 0.0255 0.1204 0.5799
C7_2 C 0.0888(2) 0.2422(2) 0.4223(2)
H5_2 H 0.1141 0.2653 0.4499
C8_2 C 0.1096(2) 0.3447(2) 0.2971(2)
C9_2 C 0.1530(2) 0.3910(2) 0.2800(3)
H6_2 H 0.1882 0.3998 0.3049
C10_2 C 0.1419(3) 0.4233(3) 0.2251(3)
H7_2 H 0.1702 0.4543 0.2118
C11_2 C 0.0907(3) 0.4105(3) 0.1903(3)
H8_2 H 0.0825 0.4326 0.1531
C12_2 C 0.0510(3) 0.3646(3) 0.2106(3)
N2_2 N 0.08304(17) 0.26157(17) 0.36676(17)
N3_2 N 0.11795(18) 0.31291(18) 0.35147(19)
H9_2 H 0.1466 0.3257 0.3775
N4_2 N 0.05880(18) 0.3312(2) 0.26176(19)
H10_2 H 0.0939 0.0089 0.5546
Cl2_2 Cl 0.33301(9) 0.01414(9) 0.84499(12)
Ag2_3 Ag 0.21008(3) 0.0000 0.7500
H28_2 H 0.0089 0.4454 0.4061
Cl4_2 Cl 0.01414(9) 0.15501(12) 0.16699(9)
N11_2 N 0.0230(2) 0.4770(2) 0.5230(2)
C53_2 C 0.0102(2) 0.5546(2) 0.6768(2)
H39_2 H 0.0367 0.5713 0.7077
C54_2 C 0.0361(2) 0.5276(2) 0.6248(2)
H40_2 H 0.0799 0.5255 0.6204
C61_2 C 0.07844(19) 0.5027(2) 0.4966(2)
C62_2 C 0.0858(2) 0.5672(2) 0.4931(2)
H46_2 H 0.0546 0.5939 0.5089
C63_2 C 0.1396(2) 0.5922(2) 0.4663(2)
H47_2 H 0.1447 0.6360 0.4647
C64_2 C 0.1854(2) 0.5540(2) 0.4420(2)
C65_2 C 0.1768(2) 0.4898(2) 0.4454(2)
H48_2 H 0.2077 0.4633 0.4287
C66_2 C 0.1248(2) 0.4639(2) 0.4724(2)
H49_2 H 0.1204 0.4201 0.4745
C67_2 C 0.2422(2) 0.5777(2) 0.4112(2)
H50_2 H 0.2653 0.5501 0.3859
C68_2 C 0.3447(2) 0.7029(2) 0.3904(2)
C69_2 C 0.3910(2) 0.7200(3) 0.3470(2)
H51_2 H 0.3998 0.6951 0.3118
C70_2 C 0.4233(3) 0.7749(3) 0.3581(3)
H52_2 H 0.4543 0.7882 0.3298
C71_2 C 0.4105(3) 0.8097(3) 0.4093(3)
H53_2 H 0.4326 0.8469 0.4175
C72_2 C 0.3646(3) 0.7894(3) 0.4490(3)
Cl6_2 Cl 0.34499(12) 0.83301(9) 0.51414(9)
N18_2 N 0.26157(17) 0.63324(17) 0.41696(17)
N19_2 N 0.31291(18) 0.64853(19) 0.38205(18)
H54_2 H 0.3257 0.6225 0.3534
N20_2 N 0.3312(2) 0.73824(19) 0.44120(18)
Ag5_3 Ag 0.2500 0.71008(3) 0.5000
N21_2 N 0.13324(17) 0.08304(17) 0.73843(17)
N23_2 N 0.23824(19) 0.05880(18) 0.6688(2)
C13_2 C 0.0027(2) 0.9966(2) 0.57844(19)
C14_2 C 0.0672(2) 0.9931(2) 0.5858(2)
C15_2 C 0.0922(2) 0.9663(2) 0.6396(2)
H11_2 H 0.1360 0.9647 0.6447
C16_2 C 0.0540(2) 0.9420(2) 0.6854(2)
C19_2 C 0.0777(2) 0.9112(2) 0.7422(2)
H14_2 H 0.0501 0.8859 0.7653
C20_2 C 0.2029(2) 0.8904(2) 0.8447(2)
C21_2 C 0.2200(3) 0.8470(2) 0.8910(2)
H15_2 H 0.1951 0.8118 0.8998
C22_2 C 0.2749(3) 0.8581(3) 0.9233(3)
H16_2 H 0.2882 0.8298 0.9543
C23_2 C 0.3097(3) 0.9093(3) 0.9105(3)
H17_2 H 0.3469 0.9175 0.9326
C24_2 C 0.2894(3) 0.9490(3) 0.8646(3)
N5_2 N 0.13324(17) 0.91696(17) 0.76157(17)
N6_2 N 0.14853(19) 0.88205(18) 0.81291(18)
H18_2 H 0.1225 0.8534 0.8257
N7_2 N 0.23824(19) 0.94120(18) 0.8312(2)
Ag2_4 Ag 0.21008(3) 1.0000 0.7500
Ag1_3 Ag 1.0000 0.2500 0.28992(3)
H1_2 H 0.9911 0.0546 0.4061
Cl1_2 Cl 0.98586(9) 0.34499(12) 0.16699(9)
N1_2 N 0.9770(2) 0.0230(2) 0.5230(2)
C29_2 C 0.8232(2) 0.0102(2) 0.4454(2)
H21_2 H 0.7923 0.0367 0.4287
C30_2 C 0.8752(2) 0.0361(2) 0.4724(2)
H22_2 H 0.8796 0.0799 0.4745
C37_2 C 0.9966(2) 0.42156(19) 0.4973(2)
C38_2 C 0.9931(2) 0.4142(2) 0.4328(2)
C39_2 C 0.9663(2) 0.3604(2) 0.4078(2)
H29_2 H 0.9647 0.3553 0.3640
C40_2 C 0.9420(2) 0.3146(2) 0.4460(2)
C41_2 C 0.9454(2) 0.3232(2) 0.5102(2)
H30_2 H 0.9287 0.2923 0.5367
C42_2 C 0.9724(2) 0.3752(2) 0.5361(2)
H31_2 H 0.9745 0.3796 0.5799
C43_2 C 0.9112(2) 0.2578(2) 0.4223(2)
H32_2 H 0.8859 0.2347 0.4499
C44_2 C 0.8904(2) 0.1553(2) 0.2971(2)
C45_2 C 0.8470(2) 0.1090(2) 0.2800(3)
H33_2 H 0.8118 0.1002 0.3049
C46_2 C 0.8581(3) 0.0767(3) 0.2251(3)
H34_2 H 0.8298 0.0457 0.2118
C47_2 C 0.9093(3) 0.0895(3) 0.1903(3)
H35_2 H 0.9175 0.0674 0.1531
C48_2 C 0.9490(3) 0.1354(3) 0.2106(3)
N12_2 N 0.91696(17) 0.23843(17) 0.36676(17)
N13_2 N 0.88205(18) 0.18709(18) 0.35147(19)
H36_2 H 0.8534 0.1743 0.3775
N14_2 N 0.94120(18) 0.1688(2) 0.26176(19)
C49_2 C 0.9973(2) 0.5034(2) 0.57844(19)
C50_2 C 0.9328(2) 0.5069(2) 0.5858(2)
H37_2 H 0.9061 0.4911 0.5546
C51_2 C 0.9078(2) 0.5337(2) 0.6396(2)
H38_2 H 0.8640 0.5353 0.6447
C52_2 C 0.9460(2) 0.5580(2) 0.6854(2)
C55_2 C 0.9223(2) 0.5888(2) 0.7422(2)
H41_2 H 0.9499 0.6141 0.7653
C56_2 C 0.7971(2) 0.6096(2) 0.8447(2)
C57_2 C 0.7800(3) 0.6530(2) 0.8910(2)
H42_2 H 0.8049 0.6882 0.8998
C58_2 C 0.7251(3) 0.6419(3) 0.9233(3)
H43_2 H 0.7118 0.6702 0.9543
C59_2 C 0.6903(3) 0.5907(3) 0.9105(3)
H44_2 H 0.6531 0.5825 0.9326
C60_2 C 0.7106(3) 0.5510(3) 0.8646(3)
Cl5_2 Cl 0.66699(9) 0.48586(9) 0.84499(12)
N15_2 N 0.86676(17) 0.58304(17) 0.76157(17)
N16_2 N 0.85147(19) 0.61795(18) 0.81291(18)
H45_2 H 0.8775 0.6466 0.8257
N17_2 N 0.76176(19) 0.55880(18) 0.8312(2)
Ag4_2 Ag 0.78992(3) 0.5000 0.7500
C17_2 C 0.9898(2) 0.9454(2) 0.6768(2)
H12_2 H 0.9633 0.9287 0.7077
C18_2 C 0.9639(2) 0.9724(2) 0.6248(2)
H13_2 H 0.9201 0.9745 0.6204
C25_2 C 0.92156(19) 0.9973(2) 0.4966(2)
C26_2 C 0.9142(2) 0.9328(2) 0.4931(2)
H19_2 H 0.9454 0.9061 0.5089
C27_2 C 0.8604(2) 0.9078(2) 0.4663(2)
H20_2 H 0.8553 0.8640 0.4647
C28_2 C 0.8146(2) 0.9460(2) 0.4420(2)
C31_2 C 0.7578(2) 0.9223(2) 0.4112(2)
H23_2 H 0.7347 0.9499 0.3859
C32_2 C 0.6553(2) 0.7971(2) 0.3904(2)
C33_2 C 0.6090(2) 0.7800(3) 0.3470(2)
H24_2 H 0.6002 0.8049 0.3118
C34_2 C 0.5767(3) 0.7251(3) 0.3581(3)
H25_2 H 0.5457 0.7118 0.3298
C35_2 C 0.5895(3) 0.6903(3) 0.4093(3)
H26_2 H 0.5674 0.6531 0.4175
C36_2 C 0.6354(3) 0.7106(3) 0.4490(3)
Cl3_2 Cl 0.65501(12) 0.66699(9) 0.51414(9)
N8_2 N 0.73843(17) 0.86676(17) 0.41696(17)
N9_2 N 0.68709(18) 0.85147(19) 0.38205(18)
H27_2 H 0.6743 0.8775 0.3534
N10_2 N 0.6688(2) 0.76176(19) 0.44120(18)
Ag3_3 Ag 0.7500 0.78992(3) 0.5000
N22_2 N 0.76157(17) 0.86676(17) 0.58304(17)
N24_2 N 0.8312(2) 0.76176(19) 0.55880(18)
Ag1_4 Ag 0.5000 0.2500 0.71008(3)
C1_3 C 0.5034(2) 0.42156(19) 0.5027(2)
C2_3 C 0.5069(2) 0.4142(2) 0.5672(2)
H1_3 H 0.4911 0.4454 0.5939
C3_3 C 0.5337(2) 0.3604(2) 0.5922(2)
H2_3 H 0.5353 0.3553 0.6360
C4_3 C 0.5580(2) 0.3146(2) 0.5540(2)
C5_3 C 0.5546(2) 0.3232(2) 0.4898(2)
H3_3 H 0.5713 0.2923 0.4633
C6_3 C 0.5276(2) 0.3752(2) 0.4639(2)
H4_3 H 0.5255 0.3796 0.4201
C7_3 C 0.5888(2) 0.2578(2) 0.5777(2)
H5_3 H 0.6141 0.2347 0.5501
C8_3 C 0.6096(2) 0.1553(2) 0.7029(2)
C9_3 C 0.6530(2) 0.1090(2) 0.7200(3)
H6_3 H 0.6882 0.1002 0.6951
C10_3 C 0.6419(3) 0.0767(3) 0.7749(3)
H7_3 H 0.6702 0.0457 0.7882
C11_3 C 0.5907(3) 0.0895(3) 0.8097(3)
H8_3 H 0.5825 0.0674 0.8469
C12_3 C 0.5510(3) 0.1354(3) 0.7894(3)
Cl1_3 Cl 0.48586(9) 0.15501(12) 0.83301(9)
N1_3 N 0.4770(2) 0.4770(2) 0.4770(2)
N2_3 N 0.58304(17) 0.23843(17) 0.63324(17)
N3_3 N 0.61795(18) 0.18709(18) 0.64853(19)
H9_3 H 0.6466 0.1743 0.6225
N4_3 N 0.55880(18) 0.1688(2) 0.73824(19)
C13_3 C 0.5027(2) 0.5034(2) 0.42156(19)
C14_3 C 0.5672(2) 0.5069(2) 0.4142(2)
H10_3 H 0.5939 0.4911 0.4454
C15_3 C 0.5922(2) 0.5337(2) 0.3604(2)
H11_3 H 0.6360 0.5353 0.3553
C16_3 C 0.5540(2) 0.5580(2) 0.3146(2)
C17_3 C 0.4898(2) 0.5546(2) 0.3232(2)
H12_3 H 0.4633 0.5713 0.2923
C18_3 C 0.4639(2) 0.5276(2) 0.3752(2)
H13_3 H 0.4201 0.5255 0.3796
C19_3 C 0.5777(2) 0.5888(2) 0.2578(2)
H14_3 H 0.5501 0.6141 0.2347
C20_3 C 0.7029(2) 0.6096(2) 0.1553(2)
C21_3 C 0.7200(3) 0.6530(2) 0.1090(2)
H15_3 H 0.6951 0.6882 0.1002
C22_3 C 0.7749(3) 0.6419(3) 0.0767(3)
H16_3 H 0.7882 0.6702 0.0457
C23_3 C 0.8097(3) 0.5907(3) 0.0895(3)
H17_3 H 0.8469 0.5825 0.0674
C24_3 C 0.7894(3) 0.5510(3) 0.1354(3)
Cl2_3 Cl 0.83301(9) 0.48586(9) 0.15501(12)
N5_3 N 0.63324(17) 0.58304(17) 0.23843(17)
N6_3 N 0.64853(19) 0.61795(18) 0.18709(18)
H18_3 H 0.6225 0.6466 0.1743
N7_3 N 0.73824(19) 0.55880(18) 0.1688(2)
C25_3 C 0.42156(19) 0.5027(2) 0.5034(2)
C26_3 C 0.4142(2) 0.5672(2) 0.5069(2)
H19_3 H 0.4454 0.5939 0.4911
C27_3 C 0.3604(2) 0.5922(2) 0.5337(2)
H20_3 H 0.3553 0.6360 0.5353
C28_3 C 0.3146(2) 0.5540(2) 0.5580(2)
C29_3 C 0.3232(2) 0.4898(2) 0.5546(2)
H21_3 H 0.2923 0.4633 0.5713
C30_3 C 0.3752(2) 0.4639(2) 0.5276(2)
H22_3 H 0.3796 0.4201 0.5255
C31_3 C 0.2578(2) 0.5777(2) 0.5888(2)
H23_3 H 0.2347 0.5501 0.6141
C32_3 C 0.1553(2) 0.7029(2) 0.6096(2)
C33_3 C 0.1090(2) 0.7200(3) 0.6530(2)
H24_3 H 0.1002 0.6951 0.6882
C34_3 C 0.0767(3) 0.7749(3) 0.6419(3)
H25_3 H 0.0457 0.7882 0.6702
C35_3 C 0.0895(3) 0.8097(3) 0.5907(3)
H26_3 H 0.0674 0.8469 0.5825
C36_3 C 0.1354(3) 0.7894(3) 0.5510(3)
Cl3_3 Cl 0.15501(12) 0.83301(9) 0.48586(9)
N8_3 N 0.23843(17) 0.63324(17) 0.58304(17)
N9_3 N 0.18709(18) 0.64853(19) 0.61795(18)
H27_3 H 0.1743 0.6225 0.6466
N10_3 N 0.1688(2) 0.73824(19) 0.55880(18)
C37_3 C 0.4966(2) 0.07844(19) 0.5027(2)
C38_3 C 0.4931(2) 0.0858(2) 0.5672(2)
H28_3 H 0.5089 0.0546 0.5939
C39_3 C 0.4663(2) 0.1396(2) 0.5922(2)
H29_3 H 0.4647 0.1447 0.6360
C40_3 C 0.4420(2) 0.1854(2) 0.5540(2)
C41_3 C 0.4454(2) 0.1768(2) 0.4898(2)
H30_3 H 0.4287 0.2077 0.4633
C42_3 C 0.4724(2) 0.1248(2) 0.4639(2)
H31_3 H 0.4745 0.1204 0.4201
C43_3 C 0.4112(2) 0.2422(2) 0.5777(2)
H32_3 H 0.3859 0.2653 0.5501
C44_3 C 0.3904(2) 0.3447(2) 0.7029(2)
C45_3 C 0.3470(2) 0.3910(2) 0.7200(3)
H33_3 H 0.3118 0.3998 0.6951
C46_3 C 0.3581(3) 0.4233(3) 0.7749(3)
H34_3 H 0.3298 0.4543 0.7882
C47_3 C 0.4093(3) 0.4105(3) 0.8097(3)
H35_3 H 0.4175 0.4326 0.8469
C48_3 C 0.4490(3) 0.3646(3) 0.7894(3)
Cl4_3 Cl 0.51414(9) 0.34499(12) 0.83301(9)
N11_3 N 0.5230(2) 0.0230(2) 0.4770(2)
N12_3 N 0.41696(17) 0.26157(17) 0.63324(17)
N13_3 N 0.38205(18) 0.31291(18) 0.64853(19)
H36_3 H 0.3534 0.3257 0.6225
N14_3 N 0.44120(18) 0.3312(2) 0.73824(19)
H37_3 H 0.4061 0.0089 0.4454
Cl5_3 Cl 0.16699(9) 0.01414(9) 0.15501(12)
C65_3 C 0.6768(2) 0.0102(2) 0.5546(2)
H48_3 H 0.7077 0.0367 0.5713
C66_3 C 0.6248(2) 0.0361(2) 0.5276(2)
H49_3 H 0.6204 0.0799 0.5255
C49_3 C 0.4973(2) 0.9966(2) 0.42156(19)
C50_3 C 0.4328(2) 0.9931(2) 0.4142(2)
C51_3 C 0.4078(2) 0.9663(2) 0.3604(2)
H38_3 H 0.3640 0.9647 0.3553
C52_3 C 0.4460(2) 0.9420(2) 0.3146(2)
C53_3 C 0.5102(2) 0.9454(2) 0.3232(2)
H39_3 H 0.5367 0.9287 0.2923
C54_3 C 0.5361(2) 0.9724(2) 0.3752(2)
H40_3 H 0.5799 0.9745 0.3796
C55_3 C 0.4223(2) 0.9112(2) 0.2578(2)
H41_3 H 0.4499 0.8859 0.2347
C56_3 C 0.2971(2) 0.8904(2) 0.1553(2)
C57_3 C 0.2800(3) 0.8470(2) 0.1090(2)
H42_3 H 0.3049 0.8118 0.1002
C58_3 C 0.2251(3) 0.8581(3) 0.0767(3)
H43_3 H 0.2118 0.8298 0.0457
C59_3 C 0.1903(3) 0.9093(3) 0.0895(3)
H44_3 H 0.1531 0.9175 0.0674
C60_3 C 0.2106(3) 0.9490(3) 0.1354(3)
N16_3 N 0.35147(19) 0.88205(18) 0.18709(18)
H45_3 H 0.3775 0.8534 0.1743
C61_3 C 0.57844(19) 0.9973(2) 0.5034(2)
C62_3 C 0.5858(2) 0.9328(2) 0.5069(2)
H46_3 H 0.5546 0.9061 0.4911
C63_3 C 0.6396(2) 0.9078(2) 0.5337(2)
H47_3 H 0.6447 0.8640 0.5353
C64_3 C 0.6854(2) 0.9460(2) 0.5580(2)
C67_3 C 0.7422(2) 0.9223(2) 0.5888(2)
H50_3 H 0.7653 0.9499 0.6141
C68_3 C 0.8447(2) 0.7971(2) 0.6096(2)
C69_3 C 0.8910(2) 0.7800(3) 0.6530(2)
H51_3 H 0.8998 0.8049 0.6882
C70_3 C 0.9233(3) 0.7251(3) 0.6419(3)
H52_3 H 0.9543 0.7118 0.6702
C71_3 C 0.9105(3) 0.6903(3) 0.5907(3)
H53_3 H 0.9326 0.6531 0.5825
C72_3 C 0.8646(3) 0.7106(3) 0.5510(3)
Cl6_3 Cl 0.84499(12) 0.66699(9) 0.48586(9)
N19_3 N 0.81291(18) 0.85147(19) 0.61795(18)
H54_3 H 0.8257 0.8775 0.6466
C49_4 C 0.0027(2) 0.0034(2) 0.92156(19)
C50_4 C 0.0672(2) 0.0069(2) 0.9142(2)
C51_4 C 0.0922(2) 0.0337(2) 0.8604(2)
H38_4 H 0.1360 0.0353 0.8553
C52_4 C 0.0540(2) 0.0580(2) 0.8146(2)
C55_4 C 0.0777(2) 0.0888(2) 0.7578(2)
H41_4 H 0.0501 0.1141 0.7347
C56_4 C 0.2029(2) 0.1096(2) 0.6553(2)
C57_4 C 0.2200(3) 0.1530(2) 0.6090(2)
H42_4 H 0.1951 0.1882 0.6002
C58_4 C 0.2749(3) 0.1419(3) 0.5767(3)
H43_4 H 0.2882 0.1702 0.5457
C59_4 C 0.3097(3) 0.0907(3) 0.5895(3)
H44_4 H 0.3469 0.0825 0.5674
C60_4 C 0.2894(3) 0.0510(3) 0.6354(3)
N16_4 N 0.14853(19) 0.11795(18) 0.68709(18)
H45_4 H 0.1225 0.1466 0.6743
Ag1_5 Ag 0.0000 0.7500 0.21008(3)
H1_4 H 0.0089 0.5546 0.0939
Cl1_4 Cl 0.01414(9) 0.84499(12) 0.33301(9)
C25_4 C 0.07844(19) 0.4973(2) 0.0034(2)
C26_4 C 0.0858(2) 0.4328(2) 0.0069(2)
C27_4 C 0.1396(2) 0.4078(2) 0.0337(2)
H20_4 H 0.1447 0.3640 0.0353
C28_4 C 0.1854(2) 0.4460(2) 0.0580(2)
C29_4 C 0.1768(2) 0.5102(2) 0.0546(2)
H21_4 H 0.2077 0.5367 0.0713
C30_4 C 0.1248(2) 0.5361(2) 0.0276(2)
H22_4 H 0.1204 0.5799 0.0255
C31_4 C 0.2422(2) 0.4223(2) 0.0888(2)
H23_4 H 0.2653 0.4499 0.1141
C32_4 C 0.3447(2) 0.2971(2) 0.1096(2)
C33_4 C 0.3910(2) 0.2800(3) 0.1530(2)
H24_4 H 0.3998 0.3049 0.1882
C34_4 C 0.4233(3) 0.2251(3) 0.1419(3)
H25_4 H 0.4543 0.2118 0.1702
C35_4 C 0.4105(3) 0.1903(3) 0.0907(3)
H26_4 H 0.4326 0.1531 0.0825
C36_4 C 0.3646(3) 0.2106(3) 0.0510(3)
N8_4 N 0.26157(17) 0.36676(17) 0.08304(17)
N9_4 N 0.31291(18) 0.35147(19) 0.11795(18)
H27_4 H 0.3257 0.3775 0.1466
N10_4 N 0.3312(2) 0.26176(19) 0.05880(18)
C37_4 C 0.0034(2) 0.92156(19) 0.0027(2)
C38_4 C 0.0069(2) 0.9142(2) 0.0672(2)
C39_4 C 0.0337(2) 0.8604(2) 0.0922(2)
H29_4 H 0.0353 0.8553 0.1360
C40_4 C 0.0580(2) 0.8146(2) 0.0540(2)
C43_4 C 0.0888(2) 0.7578(2) 0.0777(2)
H32_4 H 0.1141 0.7347 0.0501
C44_4 C 0.1096(2) 0.6553(2) 0.2029(2)
C45_4 C 0.1530(2) 0.6090(2) 0.2200(3)
H33_4 H 0.1882 0.6002 0.1951
C46_4 C 0.1419(3) 0.5767(3) 0.2749(3)
H34_4 H 0.1702 0.5457 0.2882
C47_4 C 0.0907(3) 0.5895(3) 0.3097(3)
H35_4 H 0.0825 0.5674 0.3469
C48_4 C 0.0510(3) 0.6354(3) 0.2894(3)
N12_4 N 0.08304(17) 0.73843(17) 0.13324(17)
N13_4 N 0.11795(18) 0.68709(18) 0.14853(19)
H36_4 H 0.1466 0.6743 0.1225
N14_4 N 0.05880(18) 0.6688(2) 0.23824(19)
N1_4 N 0.0230(2) 0.5230(2) 0.9770(2)
C17_4 C 0.0102(2) 0.4454(2) 0.8232(2)
H12_4 H 0.0367 0.4287 0.7923
C18_4 C 0.0361(2) 0.4724(2) 0.8752(2)
H13_4 H 0.0799 0.4745 0.8796
H19_4 H 0.0546 0.4061 0.9911
Cl3_4 Cl 0.34499(12) 0.16699(9) 0.98586(9)
C41_4 C 0.0546(2) 0.8232(2) 0.9898(2)
H30_4 H 0.0713 0.7923 0.9633
C42_4 C 0.0276(2) 0.8752(2) 0.9639(2)
H31_4 H 0.0255 0.8796 0.9201
H37_4 H 0.0939 0.9911 0.9454
Cl5_4 Cl 0.33301(9) 0.98586(9) 0.65501(12)
C61_4 C 0.92156(19) 0.0027(2) 0.0034(2)
C62_4 C 0.9142(2) 0.0672(2) 0.0069(2)
C63_4 C 0.8604(2) 0.0922(2) 0.0337(2)
H47_4 H 0.8553 0.1360 0.0353
C64_4 C 0.8146(2) 0.0540(2) 0.0580(2)
C67_4 C 0.7578(2) 0.0777(2) 0.0888(2)
H50_4 H 0.7347 0.0501 0.1141
C68_4 C 0.6553(2) 0.2029(2) 0.1096(2)
C69_4 C 0.6090(2) 0.2200(3) 0.1530(2)
H51_4 H 0.6002 0.1951 0.1882
C70_4 C 0.5767(3) 0.2749(3) 0.1419(3)
H52_4 H 0.5457 0.2882 0.1702
C71_4 C 0.5895(3) 0.3097(3) 0.0907(3)
H53_4 H 0.5674 0.3469 0.0825
C72_4 C 0.6354(3) 0.2894(3) 0.0510(3)
N19_4 N 0.68709(18) 0.14853(19) 0.11795(18)
H54_4 H 0.6743 0.1225 0.1466
C53_4 C 0.9898(2) 0.0546(2) 0.8232(2)
H39_4 H 0.9633 0.0713 0.7923
C54_4 C 0.9639(2) 0.0276(2) 0.8752(2)
H40_4 H 0.9201 0.0255 0.8796
H46_4 H 0.9454 0.0939 0.9911
Cl6_4 Cl 0.65501(12) 0.33301(9) 0.98586(9)
Ag1_6 Ag 1.0000 0.7500 0.21008(3)
C1_4 C 0.9966(2) 0.57844(19) 0.0027(2)
C2_4 C 0.9931(2) 0.5858(2) 0.0672(2)
C3_4 C 0.9663(2) 0.6396(2) 0.0922(2)
H2_4 H 0.9647 0.6447 0.1360
C4_4 C 0.9420(2) 0.6854(2) 0.0540(2)
C7_4 C 0.9112(2) 0.7422(2) 0.0777(2)
H5_4 H 0.8859 0.7653 0.0501
C8_4 C 0.8904(2) 0.8447(2) 0.2029(2)
C9_4 C 0.8470(2) 0.8910(2) 0.2200(3)
H6_4 H 0.8118 0.8998 0.1951
C10_4 C 0.8581(3) 0.9233(3) 0.2749(3)
H7_4 H 0.8298 0.9543 0.2882
C11_4 C 0.9093(3) 0.9105(3) 0.3097(3)
H8_4 H 0.9175 0.9326 0.3469
C12_4 C 0.9490(3) 0.8646(3) 0.2894(3)
N2_4 N 0.91696(17) 0.76157(17) 0.13324(17)
N3_4 N 0.88205(18) 0.81291(18) 0.14853(19)
H9_4 H 0.8534 0.8257 0.1225
N4_4 N 0.94120(18) 0.8312(2) 0.23824(19)
H28_4 H 0.9911 0.9454 0.0939
Cl4_4 Cl 0.98586(9) 0.65501(12) 0.33301(9)
C65_4 C 0.8232(2) 0.9898(2) 0.0546(2)
H48_4 H 0.7923 0.9633 0.0713
C66_4 C 0.8752(2) 0.9639(2) 0.0276(2)
H49_4 H 0.8796 0.9201 0.0255
C5_4 C 0.9454(2) 0.6768(2) 0.9898(2)
H3_4 H 0.9287 0.7077 0.9633
C6_4 C 0.9724(2) 0.6248(2) 0.9639(2)
H4_4 H 0.9745 0.6204 0.9201
C13_4 C 0.9973(2) 0.4966(2) 0.92156(19)
C14_4 C 0.9328(2) 0.4931(2) 0.9142(2)
H10_4 H 0.9061 0.5089 0.9454
C15_4 C 0.9078(2) 0.4663(2) 0.8604(2)
H11_4 H 0.8640 0.4647 0.8553
C16_4 C 0.9460(2) 0.4420(2) 0.8146(2)
C19_4 C 0.9223(2) 0.4112(2) 0.7578(2)
H14_4 H 0.9499 0.3859 0.7347
C20_4 C 0.7971(2) 0.3904(2) 0.6553(2)
C21_4 C 0.7800(3) 0.3470(2) 0.6090(2)
H15_4 H 0.8049 0.3118 0.6002
C22_4 C 0.7251(3) 0.3581(3) 0.5767(3)
H16_4 H 0.7118 0.3298 0.5457
C23_4 C 0.6903(3) 0.4093(3) 0.5895(3)
H17_4 H 0.6531 0.4175 0.5674
C24_4 C 0.7106(3) 0.4490(3) 0.6354(3)
Cl2_4 Cl 0.66699(9) 0.51414(9) 0.65501(12)
N5_4 N 0.86676(17) 0.41696(17) 0.73843(17)
N6_4 N 0.85147(19) 0.38205(18) 0.68709(18)
H18_4 H 0.8775 0.3534 0.6743
N7_4 N 0.76176(19) 0.44120(18) 0.6688(2)
N11_4 N 0.9770(2) 0.9770(2) 0.9770(2)
Cl7 Cl 0.18848(7) 0.5000 0.7500
O1 O 0.22637(18) 0.47608(19) 0.70084(18)
O2 O 0.15140(19) 0.4502(2) 0.7742(2)
O3 O 0.22637(18) 0.52392(19) 0.79916(18)
O4 O 0.15140(19) 0.5498(2) 0.7258(2)
Cl7_2 Cl 0.31152(7) 0.5000 0.2500
O1_2 O 0.27363(18) 0.52392(19) 0.20084(18)
O2_2 O 0.34860(19) 0.5498(2) 0.2742(2)
O3_2 O 0.27363(18) 0.47608(19) 0.29916(18)
O4_2 O 0.34860(19) 0.4502(2) 0.2258(2)
Cl7_3 Cl 0.81152(7) 0.0000 0.7500
O3_3 O 0.77363(18) 0.02392(19) 0.70084(18)
O4_3 O 0.84860(19) 0.0498(2) 0.7742(2)
Cl7_4 Cl 0.81152(7) 1.0000 0.7500
O1_3 O 0.77363(18) 0.97608(19) 0.79916(18)
O2_3 O 0.84860(19) 0.9502(2) 0.7258(2)
Cl7_5 Cl 0.68848(7) -0.0000 0.2500
O1_4 O 0.72637(18) 0.02392(19) 0.29916(18)
O2_4 O 0.65140(19) 0.0498(2) 0.2258(2)
Cl7_6 Cl 0.68848(7) 1.0000 0.2500
O3_4 O 0.72637(18) 0.97608(19) 0.20084(18)
O4_4 O 0.65140(19) 0.9502(2) 0.2742(2)
Cl7_7 Cl 0.7500 0.18848(7) 0.5000
O1_5 O 0.70084(18) 0.22637(18) 0.47608(19)
O2_5 O 0.7742(2) 0.15140(19) 0.4502(2)
O3_5 O 0.79916(18) 0.22637(18) 0.52392(19)
O4_5 O 0.7258(2) 0.15140(19) 0.5498(2)
Cl7_8 Cl 0.2500 0.31152(7) 0.5000
O1_6 O 0.20084(18) 0.27363(18) 0.52392(19)
O2_6 O 0.2742(2) 0.34860(19) 0.5498(2)
O3_6 O 0.29916(18) 0.27363(18) 0.47608(19)
O4_6 O 0.2258(2) 0.34860(19) 0.4502(2)
Cl7_9 Cl 0.7500 0.81152(7) 0.0000
O3_7 O 0.70084(18) 0.77363(18) 0.02392(19)
O4_7 O 0.7742(2) 0.84860(19) 0.0498(2)
Cl7_10 Cl 0.7500 0.81152(7) 1.0000
O1_7 O 0.79916(18) 0.77363(18) 0.97608(19)
O2_7 O 0.7258(2) 0.84860(19) 0.9502(2)
Cl7_11 Cl 0.2500 0.68848(7) -0.0000
O1_8 O 0.29916(18) 0.72637(18) 0.02392(19)
O2_8 O 0.2258(2) 0.65140(19) 0.0498(2)
Cl7_12 Cl 0.2500 0.68848(7) 1.0000
O3_8 O 0.20084(18) 0.72637(18) 0.97608(19)
O4_8 O 0.2742(2) 0.65140(19) 0.9502(2)
Cl7_13 Cl 0.5000 0.7500 0.18848(7)
O1_9 O 0.47608(19) 0.70084(18) 0.22637(18)
O2_9 O 0.4502(2) 0.7742(2) 0.15140(19)
O3_9 O 0.52392(19) 0.79916(18) 0.22637(18)
O4_9 O 0.5498(2) 0.7258(2) 0.15140(19)
Cl7_14 Cl 0.5000 0.2500 0.31152(7)
O1_10 O 0.52392(19) 0.20084(18) 0.27363(18)
O2_10 O 0.5498(2) 0.2742(2) 0.34860(19)
O3_10 O 0.47608(19) 0.29916(18) 0.27363(18)
O4_10 O 0.4502(2) 0.2258(2) 0.34860(19)
Cl7_15 Cl 0.0000 0.7500 0.81152(7)
O3_11 O 0.02392(19) 0.70084(18) 0.77363(18)
O4_11 O 0.0498(2) 0.7742(2) 0.84860(19)
Cl7_16 Cl 1.0000 0.7500 0.81152(7)
O1_11 O 0.97608(19) 0.79916(18) 0.77363(18)
O2_11 O 0.9502(2) 0.7258(2) 0.84860(19)
Cl7_17 Cl -0.0000 0.2500 0.68848(7)
O1_12 O 0.02392(19) 0.29916(18) 0.72637(18)
O2_12 O 0.0498(2) 0.2258(2) 0.65140(19)
Cl7_18 Cl 1.0000 0.2500 0.68848(7)
O3_12 O 0.97608(19) 0.20084(18) 0.72637(18)
O4_12 O 0.9502(2) 0.2742(2) 0.65140(19)
loop_
_geom_bond_atom_site_label_1
_geom_bond_atom_site_label_2
_geom_bond_site_symmetry_1
_geom_bond_site_symmetry_2
C14 C13 1_555 1_555
C15 C14 1_555 1_555
H11 C15 1_555 1_555
C16 C15 1_555 1_555
C17 C16 1_555 1_555
H12 C17 1_555 1_555
C18 C13 1_555 1_555
H13 C18 1_555 1_555
C19 C16 1_555 1_555
H14 C19 1_555 1_555
C20 C21 1_555 1_555
C21 H15 1_555 1_555
C22 C21 1_555 1_555
H16 C22 1_555 1_555
C23 C22 1_555 1_555
H17 C23 1_555 1_555
C24 C23 1_555 1_555
N5 C19 1_555 1_555
N6 C20 1_555 1_555
H18 N6 1_555 1_555
N7 C20 1_555 1_555
Ag2 N5 1_555 1_555
N22 Ag3 1_555 1_555
N24 Ag3 1_555 1_555
C17 C18 1_555 1_555
C24 N7 1_555 1_555
N5 N6 1_555 1_555
N7 Ag2 1_555 1_555
C26 C25 1_555 1_555
C27 C26 1_555 1_555
H20 C27 1_555 1_555
C28 C27 1_555 1_555
C31 C28 1_555 1_555
H23 C31 1_555 1_555
C32 C33 1_555 1_555
C33 H24 1_555 1_555
C34 C33 1_555 1_555
H25 C34 1_555 1_555
C35 C34 1_555 1_555
H26 C35 1_555 1_555
C36 C35 1_555 1_555
N8 C31 1_555 1_555
N9 C32 1_555 1_555
H27 N9 1_555 1_555
N10 C32 1_555 1_555
Ag3_2 N8 1_555 1_555
C36 N10 1_555 1_555
N8 N9 1_555 1_555
N10 Ag3_2 1_555 1_555
H3 C5 1_555 1_555
H4 C6 1_555 1_555
H30 C41 1_555 1_555
H31 C42 1_555 1_555
C49 N11 1_555 1_555
C50 C49 1_555 1_555
H37 C50 1_555 1_555
C51 C50 1_555 1_555
H38 C51 1_555 1_555
C52 C51 1_555 1_555
C53 C52 1_555 1_555
H39 C53 1_555 1_555
C54 C49 1_555 1_555
H40 C54 1_555 1_555
C55 C52 1_555 1_555
H41 C55 1_555 1_555
C56 C57 1_555 1_555
C57 H42 1_555 1_555
C58 C57 1_555 1_555
H43 C58 1_555 1_555
C59 C58 1_555 1_555
H44 C59 1_555 1_555
C60 C59 1_555 1_555
Cl5 C60 1_555 1_555
N15 C55 1_555 1_555
N16 C56 1_555 1_555
H45 N16 1_555 1_555
N17 C56 1_555 1_555
Ag4 N15 1_555 1_555
N21 Ag2_2 1_555 1_555
N23 Ag2_2 1_555 1_555
C5 C6 1_555 1_555
C41 C42 1_555 1_555
C53 C54 1_555 1_555
C60 N17 1_555 1_555
N15 N16 1_555 1_555
N17 Ag4 1_555 1_555
Ag1 N2 1_555 1_555
C1 C2 1_555 1_555
C2 H1 1_555 1_555
C3 C2 1_555 1_555
H2 C3 1_555 1_555
C4 C3 1_555 1_555
C7 C4 1_555 1_555
H5 C7 1_555 1_555
C8 C9 1_555 1_555
C9 H6 1_555 1_555
C10 C9 1_555 1_555
H7 C10 1_555 1_555
C11 C10 1_555 1_555
H8 C11 1_555 1_555
C12 C11 1_555 1_555
Cl1 C12 1_555 1_555
N2 C7 1_555 1_555
N3 C8 1_555 1_555
H9 N3 1_555 1_555
N4 Ag1 1_555 1_555
H21 C29 1_555 1_555
H22 C30 1_555 1_555
C37 C38 1_555 1_555
C38 H28 1_555 1_555
C39 C38 1_555 1_555
H29 C39 1_555 1_555
C40 C39 1_555 1_555
C43 C40 1_555 1_555
H32 C43 1_555 1_555
C44 C45 1_555 1_555
C45 H33 1_555 1_555
C46 C45 1_555 1_555
H34 C46 1_555 1_555
C47 C46 1_555 1_555
H35 C47 1_555 1_555
C48 C47 1_555 1_555
Cl4 C48 1_555 1_555
N12 Ag1 1_555 1_555
N13 C44 1_555 1_555
H36 N13 1_555 1_555
N14 Ag1 1_555 1_555
C62 C61 1_555 1_555
C63 C62 1_555 1_555
H47 C63 1_555 1_555
C64 C63 1_555 1_555
C65 C64 1_555 1_555
H48 C65 1_555 1_555
C66 C61 1_555 1_555
H49 C66 1_555 1_555
C67 C64 1_555 1_555
H50 C67 1_555 1_555
C68 C69 1_555 1_555
C69 H51 1_555 1_555
C70 C69 1_555 1_555
H52 C70 1_555 1_555
C71 C70 1_555 1_555
H53 C71 1_555 1_555
C72 C71 1_555 1_555
N18 C67 1_555 1_555
N19 C68 1_555 1_555
H54 N19 1_555 1_555
N20 C68 1_555 1_555
Ag5_2 N18 1_555 1_555
C8 N4 1_555 1_555
C12 N4 1_555 1_555
N2 N3 1_555 1_555
C29 C30 1_555 1_555
C43 N12 1_555 1_555
C44 N14 1_555 1_555
C48 N14 1_555 1_555
N12 N13 1_555 1_555
C65 C66 1_555 1_555
C72 N20 1_555 1_555
N18 N19 1_555 1_555
N20 Ag5_2 1_555 1_555
Ag1_2 N2_2 1_555 1_555
C1_2 C2_2 1_555 1_555
C3_2 C2_2 1_555 1_555
H2_2 C3_2 1_555 1_555
C4_2 C3_2 1_555 1_555
C5_2 C4_2 1_555 1_555
H3_2 C5_2 1_555 1_555
C6_2 C1_2 1_555 1_555
H4_2 C6_2 1_555 1_555
C7_2 C4_2 1_555 1_555
H5_2 C7_2 1_555 1_555
C8_2 C9_2 1_555 1_555
C9_2 H6_2 1_555 1_555
C10_2 C9_2 1_555 1_555
H7_2 C10_2 1_555 1_555
C11_2 C10_2 1_555 1_555
H8_2 C11_2 1_555 1_555
C12_2 C11_2 1_555 1_555
N2_2 C7_2 1_555 1_555
N3_2 C8_2 1_555 1_555
H9_2 N3_2 1_555 1_555
N4_2 Ag1_2 1_555 1_555
H39_2 C53_2 1_555 1_555
H40_2 C54_2 1_555 1_555
C61_2 N11_2 1_555 1_555
C62_2 C61_2 1_555 1_555
H46_2 C62_2 1_555 1_555
C63_2 C62_2 1_555 1_555
H47_2 C63_2 1_555 1_555
C64_2 C63_2 1_555 1_555
C65_2 C64_2 1_555 1_555
H48_2 C65_2 1_555 1_555
C66_2 C61_2 1_555 1_555
H49_2 C66_2 1_555 1_555
C67_2 C64_2 1_555 1_555
H50_2 C67_2 1_555 1_555
C68_2 C69_2 1_555 1_555
C69_2 H51_2 1_555 1_555
C70_2 C69_2 1_555 1_555
H52_2 C70_2 1_555 1_555
C71_2 C70_2 1_555 1_555
H53_2 C71_2 1_555 1_555
C72_2 C71_2 1_555 1_555
Cl6_2 C72_2 1_555 1_555
N18_2 C67_2 1_555 1_555
N19_2 C68_2 1_555 1_555
H54_2 N19_2 1_555 1_555
N20_2 C68_2 1_555 1_555
Ag5_3 N18_2 1_555 1_555
N21_2 Ag2_3 1_555 1_555
N23_2 Ag2_3 1_555 1_555
C5_2 C6_2 1_555 1_555
C8_2 N4_2 1_555 1_555
C12_2 N4_2 1_555 1_555
N2_2 N3_2 1_555 1_555
C53_2 C54_2 1_555 1_555
C65_2 C66_2 1_555 1_555
C72_2 N20_2 1_555 1_555
N18_2 N19_2 1_555 1_555
N20_2 Ag5_3 1_555 1_555
C14_2 C13_2 1_555 1_555
C15_2 C14_2 1_555 1_555
H11_2 C15_2 1_555 1_555
C16_2 C15_2 1_555 1_555
C19_2 C16_2 1_555 1_555
H14_2 C19_2 1_555 1_555
C20_2 C21_2 1_555 1_555
C21_2 H15_2 1_555 1_555
C22_2 C21_2 1_555 1_555
H16_2 C22_2 1_555 1_555
C23_2 C22_2 1_555 1_555
H17_2 C23_2 1_555 1_555
C24_2 C23_2 1_555 1_555
N5_2 C19_2 1_555 1_555
N6_2 C20_2 1_555 1_555
H18_2 N6_2 1_555 1_555
N7_2 C20_2 1_555 1_555
Ag2_4 N5_2 1_555 1_555
C24_2 N7_2 1_555 1_555
N5_2 N6_2 1_555 1_555
N7_2 Ag2_4 1_555 1_555
H21_2 C29_2 1_555 1_555
H22_2 C30_2 1_555 1_555
C37_2 C38_2 1_555 1_555
C39_2 C38_2 1_555 1_555
H29_2 C39_2 1_555 1_555
C40_2 C39_2 1_555 1_555
C41_2 C40_2 1_555 1_555
H30_2 C41_2 1_555 1_555
C42_2 C37_2 1_555 1_555
H31_2 C42_2 1_555 1_555
C43_2 C40_2 1_555 1_555
H32_2 C43_2 1_555 1_555
C44_2 C45_2 1_555 1_555
C45_2 H33_2 1_555 1_555
C46_2 C45_2 1_555 1_555
H34_2 C46_2 1_555 1_555
C47_2 C46_2 1_555 1_555
H35_2 C47_2 1_555 1_555
C48_2 C47_2 1_555 1_555
N12_2 Ag1_3 1_555 1_555
N13_2 C44_2 1_555 1_555
H36_2 N13_2 1_555 1_555
N14_2 Ag1_3 1_555 1_555
C50_2 C49_2 1_555 1_555
H37_2 C50_2 1_555 1_555
C51_2 C50_2 1_555 1_555
H38_2 C51_2 1_555 1_555
C52_2 C51_2 1_555 1_555
C55_2 C52_2 1_555 1_555
H41_2 C55_2 1_555 1_555
C56_2 C57_2 1_555 1_555
C57_2 H42_2 1_555 1_555
C58_2 C57_2 1_555 1_555
H43_2 C58_2 1_555 1_555
C59_2 C58_2 1_555 1_555
H44_2 C59_2 1_555 1_555
C60_2 C59_2 1_555 1_555
Cl5_2 C60_2 1_555 1_555
N15_2 C55_2 1_555 1_555
N16_2 C56_2 1_555 1_555
H45_2 N16_2 1_555 1_555
N17_2 C56_2 1_555 1_555
Ag4_2 N15_2 1_555 1_555
C29_2 C30_2 1_555 1_555
C41_2 C42_2 1_555 1_555
C43_2 N12_2 1_555 1_555
C44_2 N14_2 1_555 1_555
C48_2 N14_2 1_555 1_555
N12_2 N13_2 1_555 1_555
C60_2 N17_2 1_555 1_555
N15_2 N16_2 1_555 1_555
N17_2 Ag4_2 1_555 1_555
H12_2 C17_2 1_555 1_555
H13_2 C18_2 1_555 1_555
C26_2 C25_2 1_555 1_555
H19_2 C26_2 1_555 1_555
C27_2 C26_2 1_555 1_555
H20_2 C27_2 1_555 1_555
C28_2 C27_2 1_555 1_555
C31_2 C28_2 1_555 1_555
H23_2 C31_2 1_555 1_555
C32_2 C33_2 1_555 1_555
C33_2 H24_2 1_555 1_555
C34_2 C33_2 1_555 1_555
H25_2 C34_2 1_555 1_555
C35_2 C34_2 1_555 1_555
H26_2 C35_2 1_555 1_555
C36_2 C35_2 1_555 1_555
Cl3_2 C36_2 1_555 1_555
N8_2 C31_2 1_555 1_555
N9_2 C32_2 1_555 1_555
H27_2 N9_2 1_555 1_555
N10_2 C32_2 1_555 1_555
Ag3_3 N8_2 1_555 1_555
N22_2 Ag3_3 1_555 1_555
N24_2 Ag3_3 1_555 1_555
C17_2 C18_2 1_555 1_555
C36_2 N10_2 1_555 1_555
N8_2 N9_2 1_555 1_555
N10_2 Ag3_3 1_555 1_555
Ag1_4 N2_3 1_555 1_555
C1_3 C2_3 1_555 1_555
C2_3 H1_3 1_555 1_555
C3_3 C2_3 1_555 1_555
H2_3 C3_3 1_555 1_555
C4_3 C3_3 1_555 1_555
C5_3 C4_3 1_555 1_555
H3_3 C5_3 1_555 1_555
C6_3 C1_3 1_555 1_555
H4_3 C6_3 1_555 1_555
C7_3 C4_3 1_555 1_555
H5_3 C7_3 1_555 1_555
C8_3 C9_3 1_555 1_555
C9_3 H6_3 1_555 1_555
C10_3 C9_3 1_555 1_555
H7_3 C10_3 1_555 1_555
C11_3 C10_3 1_555 1_555
H8_3 C11_3 1_555 1_555
C12_3 C11_3 1_555 1_555
Cl1_3 C12_3 1_555 1_555
N1_3 C1_3 1_555 1_555
N2_3 C7_3 1_555 1_555
N3_3 C8_3 1_555 1_555
H9_3 N3_3 1_555 1_555
N4_3 Ag1_4 1_555 1_555
C13_3 N1_3 1_555 1_555
C14_3 C13_3 1_555 1_555
H10_3 C14_3 1_555 1_555
C15_3 C14_3 1_555 1_555
H11_3 C15_3 1_555 1_555
C16_3 C15_3 1_555 1_555
C17_3 C16_3 1_555 1_555
H12_3 C17_3 1_555 1_555
C18_3 C13_3 1_555 1_555
H13_3 C18_3 1_555 1_555
C19_3 C16_3 1_555 1_555
H14_3 C19_3 1_555 1_555
C20_3 C21_3 1_555 1_555
C21_3 H15_3 1_555 1_555
C22_3 C21_3 1_555 1_555
H16_3 C22_3 1_555 1_555
C23_3 C22_3 1_555 1_555
H17_3 C23_3 1_555 1_555
C24_3 C23_3 1_555 1_555
Cl2_3 C24_3 1_555 1_555
N5_3 C19_3 1_555 1_555
N6_3 C20_3 1_555 1_555
H18_3 N6_3 1_555 1_555
N7_3 C20_3 1_555 1_555
C25_3 N1_3 1_555 1_555
C26_3 C25_3 1_555 1_555
H19_3 C26_3 1_555 1_555
C27_3 C26_3 1_555 1_555
H20_3 C27_3 1_555 1_555
C28_3 C27_3 1_555 1_555
C29_3 C28_3 1_555 1_555
H21_3 C29_3 1_555 1_555
C30_3 C25_3 1_555 1_555
H22_3 C30_3 1_555 1_555
C31_3 C28_3 1_555 1_555
H23_3 C31_3 1_555 1_555
C32_3 C33_3 1_555 1_555
C33_3 H24_3 1_555 1_555
C34_3 C33_3 1_555 1_555
H25_3 C34_3 1_555 1_555
C35_3 C34_3 1_555 1_555
H26_3 C35_3 1_555 1_555
C36_3 C35_3 1_555 1_555
Cl3_3 C36_3 1_555 1_555
N8_3 C31_3 1_555 1_555
N9_3 C32_3 1_555 1_555
H27_3 N9_3 1_555 1_555
N10_3 C32_3 1_555 1_555
Ag4 N5_3 1_555 1_555
Ag5_3 N8_3 1_555 1_555
C37_3 C38_3 1_555 1_555
C38_3 H28_3 1_555 1_555
C39_3 C38_3 1_555 1_555
H29_3 C39_3 1_555 1_555
C40_3 C39_3 1_555 1_555
C41_3 C40_3 1_555 1_555
H30_3 C41_3 1_555 1_555
C42_3 C37_3 1_555 1_555
H31_3 C42_3 1_555 1_555
C43_3 C40_3 1_555 1_555
H32_3 C43_3 1_555 1_555
C44_3 C45_3 1_555 1_555
C45_3 H33_3 1_555 1_555
C46_3 C45_3 1_555 1_555
H34_3 C46_3 1_555 1_555
C47_3 C46_3 1_555 1_555
H35_3 C47_3 1_555 1_555
C48_3 C47_3 1_555 1_555
Cl4_3 C48_3 1_555 1_555
N11_3 C37_3 1_555 1_555
N12_3 Ag1_4 1_555 1_555
N13_3 C44_3 1_555 1_555
H36_3 N13_3 1_555 1_555
N14_3 Ag1_4 1_555 1_555
H48_3 C65_3 1_555 1_555
H49_3 C66_3 1_555 1_555
C5_3 C6_3 1_555 1_555
C8_3 N4_3 1_555 1_555
C12_3 N4_3 1_555 1_555
N2_3 N3_3 1_555 1_555
C17_3 C18_3 1_555 1_555
C24_3 N7_3 1_555 1_555
N5_3 N6_3 1_555 1_555
N7_3 Ag4 1_555 1_555
C29_3 C30_3 1_555 1_555
C36_3 N10_3 1_555 1_555
N8_3 N9_3 1_555 1_555
N10_3 Ag5_3 1_555 1_555
C41_3 C42_3 1_555 1_555
C43_3 N12_3 1_555 1_555
C44_3 N14_3 1_555 1_555
C48_3 N14_3 1_555 1_555
N12_3 N13_3 1_555 1_555
C65_3 C66_3 1_555 1_555
C50_3 C49_3 1_555 1_555
C51_3 C50_3 1_555 1_555
H38_3 C51_3 1_555 1_555
C52_3 C51_3 1_555 1_555
C53_3 C52_3 1_555 1_555
H39_3 C53_3 1_555 1_555
C54_3 C49_3 1_555 1_555
H40_3 C54_3 1_555 1_555
C55_3 C52_3 1_555 1_555
H41_3 C55_3 1_555 1_555
C56_3 C57_3 1_555 1_555
C57_3 H42_3 1_555 1_555
C58_3 C57_3 1_555 1_555
H43_3 C58_3 1_555 1_555
C59_3 C58_3 1_555 1_555
H44_3 C59_3 1_555 1_555
C60_3 C59_3 1_555 1_555
N21 C55_3 1_555 1_555
N16_3 C56_3 1_555 1_555
H45_3 N16_3 1_555 1_555
N23 C56_3 1_555 1_555
C62_3 C61_3 1_555 1_555
H46_3 C62_3 1_555 1_555
C63_3 C62_3 1_555 1_555
H47_3 C63_3 1_555 1_555
C64_3 C63_3 1_555 1_555
C67_3 C64_3 1_555 1_555
H50_3 C67_3 1_555 1_555
C68_3 C69_3 1_555 1_555
C69_3 H51_3 1_555 1_555
C70_3 C69_3 1_555 1_555
H52_3 C70_3 1_555 1_555
C71_3 C70_3 1_555 1_555
H53_3 C71_3 1_555 1_555
C72_3 C71_3 1_555 1_555
Cl6_3 C72_3 1_555 1_555
N22_2 C67_3 1_555 1_555
N19_3 C68_3 1_555 1_555
H54_3 N19_3 1_555 1_555
N24_2 C68_3 1_555 1_555
C53_3 C54_3 1_555 1_555
C60_3 N23 1_555 1_555
N21 N16_3 1_555 1_555
C72_3 N24_2 1_555 1_555
N22_2 N19_3 1_555 1_555
C50_4 C49_4 1_555 1_555
C51_4 C50_4 1_555 1_555
H38_4 C51_4 1_555 1_555
C52_4 C51_4 1_555 1_555
C55_4 C52_4 1_555 1_555
H41_4 C55_4 1_555 1_555
C56_4 C57_4 1_555 1_555
C57_4 H42_4 1_555 1_555
C58_4 C57_4 1_555 1_555
H43_4 C58_4 1_555 1_555
C59_4 C58_4 1_555 1_555
H44_4 C59_4 1_555 1_555
C60_4 C59_4 1_555 1_555
N21_2 C55_4 1_555 1_555
N16_4 C56_4 1_555 1_555
H45_4 N16_4 1_555 1_555
N23_2 C56_4 1_555 1_555
C60_4 N23_2 1_555 1_555
N21_2 N16_4 1_555 1_555
C26_4 C25_4 1_555 1_555
C27_4 C26_4 1_555 1_555
H20_4 C27_4 1_555 1_555
C28_4 C27_4 1_555 1_555
C29_4 C28_4 1_555 1_555
H21_4 C29_4 1_555 1_555
C30_4 C25_4 1_555 1_555
H22_4 C30_4 1_555 1_555
C31_4 C28_4 1_555 1_555
H23_4 C31_4 1_555 1_555
C32_4 C33_4 1_555 1_555
C33_4 H24_4 1_555 1_555
C34_4 C33_4 1_555 1_555
H25_4 C34_4 1_555 1_555
C35_4 C34_4 1_555 1_555
H26_4 C35_4 1_555 1_555
C36_4 C35_4 1_555 1_555
N8_4 C31_4 1_555 1_555
N9_4 C32_4 1_555 1_555
H27_4 N9_4 1_555 1_555
N10_4 C32_4 1_555 1_555
Ag5 N8_4 1_555 1_555
C37_4 C38_4 1_555 1_555
C39_4 C38_4 1_555 1_555
H29_4 C39_4 1_555 1_555
C40_4 C39_4 1_555 1_555
C43_4 C40_4 1_555 1_555
H32_4 C43_4 1_555 1_555
C44_4 C45_4 1_555 1_555
C45_4 H33_4 1_555 1_555
C46_4 C45_4 1_555 1_555
H34_4 C46_4 1_555 1_555
C47_4 C46_4 1_555 1_555
H35_4 C47_4 1_555 1_555
C48_4 C47_4 1_555 1_555
N12_4 Ag1_5 1_555 1_555
N13_4 C44_4 1_555 1_555
H36_4 N13_4 1_555 1_555
N14_4 Ag1_5 1_555 1_555
C29_4 C30_4 1_555 1_555
C36_4 N10_4 1_555 1_555
N8_4 N9_4 1_555 1_555
N10_4 Ag5 1_555 1_555
C43_4 N12_4 1_555 1_555
C44_4 N14_4 1_555 1_555
C48_4 N14_4 1_555 1_555
N12_4 N13_4 1_555 1_555
H12_4 C17_4 1_555 1_555
H13_4 C18_4 1_555 1_555
H30_4 C41_4 1_555 1_555
H31_4 C42_4 1_555 1_555
C17_4 C18_4 1_555 1_555
C41_4 C42_4 1_555 1_555
C62_4 C61_4 1_555 1_555
C63_4 C62_4 1_555 1_555
H47_4 C63_4 1_555 1_555
C64_4 C63_4 1_555 1_555
C67_4 C64_4 1_555 1_555
H50_4 C67_4 1_555 1_555
C68_4 C69_4 1_555 1_555
C69_4 H51_4 1_555 1_555
C70_4 C69_4 1_555 1_555
H52_4 C70_4 1_555 1_555
C71_4 C70_4 1_555 1_555
H53_4 C71_4 1_555 1_555
C72_4 C71_4 1_555 1_555
N22 C67_4 1_555 1_555
N19_4 C68_4 1_555 1_555
H54_4 N19_4 1_555 1_555
N24 C68_4 1_555 1_555
C72_4 N24 1_555 1_555
N22 N19_4 1_555 1_555
H39_4 C53_4 1_555 1_555
H40_4 C54_4 1_555 1_555
C53_4 C54_4 1_555 1_555
Ag1_6 N2_4 1_555 1_555
C1_4 C2_4 1_555 1_555
C3_4 C2_4 1_555 1_555
H2_4 C3_4 1_555 1_555
C4_4 C3_4 1_555 1_555
C7_4 C4_4 1_555 1_555
H5_4 C7_4 1_555 1_555
C8_4 C9_4 1_555 1_555
C9_4 H6_4 1_555 1_555
C10_4 C9_4 1_555 1_555
H7_4 C10_4 1_555 1_555
C11_4 C10_4 1_555 1_555
H8_4 C11_4 1_555 1_555
C12_4 C11_4 1_555 1_555
N2_4 C7_4 1_555 1_555
N3_4 C8_4 1_555 1_555
H9_4 N3_4 1_555 1_555
N4_4 Ag1_6 1_555 1_555
H48_4 C65_4 1_555 1_555
H49_4 C66_4 1_555 1_555
C8_4 N4_4 1_555 1_555
C12_4 N4_4 1_555 1_555
N2_4 N3_4 1_555 1_555
C65_4 C66_4 1_555 1_555
H3_4 C5_4 1_555 1_555
H4_4 C6_4 1_555 1_555
C14_4 C13_4 1_555 1_555
H10_4 C14_4 1_555 1_555
C15_4 C14_4 1_555 1_555
H11_4 C15_4 1_555 1_555
C16_4 C15_4 1_555 1_555
C19_4 C16_4 1_555 1_555
H14_4 C19_4 1_555 1_555
C20_4 C21_4 1_555 1_555
C21_4 H15_4 1_555 1_555
C22_4 C21_4 1_555 1_555
H16_4 C22_4 1_555 1_555
C23_4 C22_4 1_555 1_555
H17_4 C23_4 1_555 1_555
C24_4 C23_4 1_555 1_555
Cl2_4 C24_4 1_555 1_555
N5_4 C19_4 1_555 1_555
N6_4 C20_4 1_555 1_555
H18_4 N6_4 1_555 1_555
N7_4 C20_4 1_555 1_555
Ag4_2 N5_4 1_555 1_555
C5_4 C6_4 1_555 1_555
C24_4 N7_4 1_555 1_555
N5_4 N6_4 1_555 1_555
N7_4 Ag4_2 1_555 1_555
Cl7 O1 1_555 1_555
O2 Cl7 1_555 1_555
O3 Cl7 1_555 1_555
O4 Cl7 1_555 1_555
Cl7_2 O1_2 1_555 1_555
O2_2 Cl7_2 1_555 1_555
O3_2 Cl7_2 1_555 1_555
O4_2 Cl7_2 1_555 1_555
O3_3 Cl7_3 1_555 1_555
O4_3 Cl7_3 1_555 1_555
Cl7_4 O1_3 1_555 1_555
O2_3 Cl7_4 1_555 1_555
Cl7_5 O1_4 1_555 1_555
O2_4 Cl7_5 1_555 1_555
O3_4 Cl7_6 1_555 1_555
O4_4 Cl7_6 1_555 1_555
Cl7_7 O1_5 1_555 1_555
O2_5 Cl7_7 1_555 1_555
O3_5 Cl7_7 1_555 1_555
O4_5 Cl7_7 1_555 1_555
Cl7_8 O1_6 1_555 1_555
O2_6 Cl7_8 1_555 1_555
O3_6 Cl7_8 1_555 1_555
O4_6 Cl7_8 1_555 1_555
O3_7 Cl7_9 1_555 1_555
O4_7 Cl7_9 1_555 1_555
Cl7_10 O1_7 1_555 1_555
O2_7 Cl7_10 1_555 1_555
Cl7_11 O1_8 1_555 1_555
O2_8 Cl7_11 1_555 1_555
O3_8 Cl7_12 1_555 1_555
O4_8 Cl7_12 1_555 1_555
Cl7_13 O1_9 1_555 1_555
O2_9 Cl7_13 1_555 1_555
O3_9 Cl7_13 1_555 1_555
O4_9 Cl7_13 1_555 1_555
Cl7_14 O1_10 1_555 1_555
O2_10 Cl7_14 1_555 1_555
O3_10 Cl7_14 1_555 1_555
O4_10 Cl7_14 1_555 1_555
O3_11 Cl7_15 1_555 1_555
O4_11 Cl7_15 1_555 1_555
Cl7_16 O1_11 1_555 1_555
O2_11 Cl7_16 1_555 1_555
Cl7_17 O1_12 1_555 1_555
O2_12 Cl7_17 1_555 1_555
O3_12 Cl7_18 1_555 1_555
O4_12 Cl7_18 1_555 1_555

#END
