
###############################################################################
#
# This file contains modified crystal structure data generated from the
# MOF subset of the Cambridge Structural Database (CSD) v543 
# hosted by the Cambridge Crystallographic Data Centre (CCDC).
#
# This work is licensed under the Creative Commons
# Attribution-NonCommercial-ShareAlike 4.0 International License.
# To view a copy of this license, visit
# http://creativecommons.org/licenses/by-nc-sa/4.0/
# or send a letter to
# Creative Commons, PO Box 1866, Mountain View, CA 94042, USA.
#
# CIF created using the CSD Python API on 29 September 2022
# The structure has been converted into the P1 space group
# The structure has a 3D framework
# The original CSD entry KEPFIX02 is in the cubic crystal system
# The original CSD entry KEPFIX02 is in a Sohncke space group
# The framework has been calculated to contain at least 10.0% void space
# The void calculation uses a probe of radius 1.32A, grid spacing 0.4
# The framework is charged, counterions have been retained in the structure
#
###############################################################################

data_KEPFIX02
_chemical_formula_moiety         '(C288 H216 Ag14 Cl42 N80 O48 2+)n'
_symmetry_cell_setting           triclinic
_symmetry_space_group_name_H-M   'P 1'
_symmetry_Int_Tables_number      1
_space_group_name_Hall           'P 1'
loop_
_symmetry_equiv_pos_site_id
_symmetry_equiv_pos_as_xyz
1 x,y,z
_cell_length_a                   21.3281(11)
_cell_length_b                   21.3281(11)
_cell_length_c                   21.3281(11)
_cell_angle_alpha                90
_cell_angle_beta                 90
_cell_angle_gamma                90
_cell_volume                     9701.89
loop_
_atom_site_label
_atom_site_type_symbol
_atom_site_fract_x
_atom_site_fract_y
_atom_site_fract_z
C13 C 0.4973(2) 0.0037(2) 0.07799(19)
C14 C 0.4325(2) 0.0071(2) 0.0857(2)
C15 C 0.4073(2) 0.0337(2) 0.1395(2)
H11 H 0.3635 0.0351 0.1446
C16 C 0.4457(2) 0.0580(2) 0.1854(2)
C17 C 0.5097(2) 0.0548(2) 0.1768(2)
H12 H 0.5363 0.0716 0.2077
C18 C 0.5357(2) 0.0277(2) 0.1244(2)
H13 H 0.5795 0.0256 0.1201
C19 C 0.4220(2) 0.0886(2) 0.2419(2)
H14 H 0.4498 0.1139 0.2649
C20 C 0.2970(2) 0.1095(2) 0.3445(2)
C21 C 0.2797(2) 0.1527(2) 0.3915(2)
H15 H 0.3048 0.1878 0.4005
C22 C 0.2253(3) 0.1420(3) 0.4234(2)
H16 H 0.2122 0.1704 0.4544
C23 C 0.1901(3) 0.0907(3) 0.4108(3)
H17 H 0.1529 0.0827 0.4329
C24 C 0.2103(2) 0.0509(3) 0.3649(3)
N5 N 0.36653(16) 0.08310(16) 0.26167(17)
N6 N 0.35087(19) 0.11776(18) 0.31312(18)
H18 H 0.3769 0.1464 0.3261
N7 N 0.26166(18) 0.05885(17) 0.33168(19)
H19 H 0.5544 0.0942 0.0086
Cl3 Cl 0.84519(11) 0.33346(9) 0.01407(9)
Ag2 Ag 0.28947(3) -0.0000 0.2500
Ag3 Ag 0.7500 0.21053(3) -0.0000
N22 N 0.73833(17) 0.13347(16) 0.08310(16)
N24 N 0.66832(19) 0.23834(18) 0.05885(17)
C25 C 0.57799(19) 0.0027(2) 0.9963(2)
C26 C 0.5857(2) 0.0675(2) 0.9929(2)
C27 C 0.6395(2) 0.0927(2) 0.9663(2)
H20 H 0.6446 0.1365 0.9649
C28 C 0.6854(2) 0.0543(2) 0.9420(2)
C31 C 0.7419(2) 0.0780(2) 0.9114(2)
H23 H 0.7649 0.0502 0.8861
C32 C 0.8445(2) 0.2030(2) 0.8905(2)
C33 C 0.8915(2) 0.2203(2) 0.8473(2)
H24 H 0.9005 0.1952 0.8122
C34 C 0.9234(2) 0.2747(3) 0.8580(3)
H25 H 0.9544 0.2878 0.8296
C35 C 0.9108(3) 0.3099(3) 0.9093(3)
H26 H 0.9329 0.3471 0.9173
C36 C 0.8649(3) 0.2897(2) 0.9491(3)
N8 N 0.76167(17) 0.13347(16) 0.91690(16)
N9 N 0.81312(18) 0.14913(19) 0.88224(18)
H27 H 0.8261 0.1231 0.8536
N10 N 0.83168(19) 0.23834(18) 0.94115(17)
Ag3_2 Ag 0.7500 0.21053(3) 1.0000
C5 C 0.4452(2) 0.8232(2) 0.0097(2)
H3 H 0.4284 0.7923 0.0363
C6 C 0.4723(2) 0.8756(2) 0.0357(2)
H4 H 0.4744 0.8799 0.0795
N1 N 0.5228(2) 0.9772(2) 0.0228(2)
H10 H 0.4058 0.9914 0.0544
Cl2 Cl 0.16654(9) 0.98593(9) 0.34519(11)
Ag2_2 Ag 0.28947(3) 1.0000 0.2500
C41 C 0.5548(2) 0.6768(2) 0.0097(2)
H30 H 0.5716 0.7077 0.0363
C42 C 0.5277(2) 0.6244(2) 0.0357(2)
H31 H 0.5256 0.6201 0.0795
N11 N 0.4772(2) 0.5228(2) 0.0228(2)
C49 C 0.5027(2) 0.4963(2) 0.07799(19)
C50 C 0.5675(2) 0.4929(2) 0.0857(2)
H37 H 0.5942 0.5086 0.0544
C51 C 0.5927(2) 0.4663(2) 0.1395(2)
H38 H 0.6365 0.4649 0.1446
C52 C 0.5543(2) 0.4420(2) 0.1854(2)
C53 C 0.4903(2) 0.4452(2) 0.1768(2)
H39 H 0.4637 0.4284 0.2077
C54 C 0.4643(2) 0.4723(2) 0.1244(2)
H40 H 0.4205 0.4744 0.1201
C55 C 0.5780(2) 0.4114(2) 0.2419(2)
H41 H 0.5502 0.3861 0.2649
C56 C 0.7030(2) 0.3905(2) 0.3445(2)
C57 C 0.7203(2) 0.3473(2) 0.3915(2)
H42 H 0.6952 0.3122 0.4005
C58 C 0.7747(3) 0.3580(3) 0.4234(2)
H43 H 0.7878 0.3296 0.4544
C59 C 0.8099(3) 0.4093(3) 0.4108(3)
H44 H 0.8471 0.4173 0.4329
C60 C 0.7897(2) 0.4491(3) 0.3649(3)
Cl5 Cl 0.83346(9) 0.51407(9) 0.34519(11)
N15 N 0.63347(16) 0.41690(16) 0.26167(17)
N16 N 0.64913(19) 0.38224(18) 0.31312(18)
H45 H 0.6231 0.3536 0.3261
N17 N 0.73834(18) 0.44115(17) 0.33168(19)
H46 H 0.4456 0.4058 0.0086
Cl6 Cl 0.15481(11) 0.16654(9) 0.01407(9)
Ag4 Ag 0.71053(3) 0.5000 0.2500
Ag5 Ag 0.2500 0.28947(3) -0.0000
N21 N 0.36653(16) 0.91690(16) 0.23833(17)
N23 N 0.26166(18) 0.94115(17) 0.16832(19)
Ag1 Ag 0.5000 0.7500 0.78947(3)
C1 C 0.4963(2) 0.92201(19) 0.9973(2)
C2 C 0.4929(2) 0.9143(2) 0.9325(2)
H1 H 0.5086 0.9456 0.9058
C3 C 0.4663(2) 0.8605(2) 0.9073(2)
H2 H 0.4649 0.8554 0.8635
C4 C 0.4420(2) 0.8146(2) 0.9457(2)
C7 C 0.4114(2) 0.7581(2) 0.9220(2)
H5 H 0.3861 0.7351 0.9498
C8 C 0.3905(2) 0.6555(2) 0.7970(2)
C9 C 0.3473(2) 0.6085(2) 0.7797(2)
H6 H 0.3122 0.5995 0.8048
C10 C 0.3580(3) 0.5766(2) 0.7253(3)
H7 H 0.3296 0.5456 0.7122
C11 C 0.4093(3) 0.5892(3) 0.6901(3)
H8 H 0.4173 0.5671 0.6529
C12 C 0.4491(3) 0.6351(3) 0.7103(2)
Cl1 Cl 0.51407(9) 0.65481(11) 0.66654(9)
N2 N 0.41690(16) 0.73833(17) 0.86653(16)
N3 N 0.38224(18) 0.68688(18) 0.85087(19)
H9 H 0.3536 0.6739 0.8769
N4 N 0.44115(17) 0.66832(19) 0.76166(18)
C29 C 0.6768(2) 0.9903(2) 0.9452(2)
H21 H 0.7077 0.9637 0.9284
C30 C 0.6244(2) 0.9643(2) 0.9723(2)
H22 H 0.6201 0.9205 0.9744
C37 C 0.5037(2) 0.57799(19) 0.9973(2)
C38 C 0.5071(2) 0.5857(2) 0.9325(2)
H28 H 0.4914 0.5544 0.9058
C39 C 0.5337(2) 0.6395(2) 0.9073(2)
H29 H 0.5351 0.6446 0.8635
C40 C 0.5580(2) 0.6854(2) 0.9457(2)
C43 C 0.5886(2) 0.7419(2) 0.9220(2)
H32 H 0.6139 0.7649 0.9498
C44 C 0.6095(2) 0.8445(2) 0.7970(2)
C45 C 0.6527(2) 0.8915(2) 0.7797(2)
H33 H 0.6878 0.9005 0.8048
C46 C 0.6420(3) 0.9234(2) 0.7253(3)
H34 H 0.6704 0.9544 0.7122
C47 C 0.5907(3) 0.9108(3) 0.6901(3)
H35 H 0.5827 0.9329 0.6529
C48 C 0.5509(3) 0.8649(3) 0.7103(2)
Cl4 Cl 0.48593(9) 0.84519(11) 0.66654(9)
N12 N 0.58310(16) 0.76167(17) 0.86653(16)
N13 N 0.61776(18) 0.81312(18) 0.85087(19)
H36 H 0.6464 0.8261 0.8769
N14 N 0.55885(17) 0.83168(19) 0.76166(18)
C61 C 0.42201(19) 0.4973(2) 0.9963(2)
C62 C 0.4143(2) 0.4325(2) 0.9929(2)
C63 C 0.3605(2) 0.4073(2) 0.9663(2)
H47 H 0.3554 0.3635 0.9649
C64 C 0.3146(2) 0.4457(2) 0.9420(2)
C65 C 0.3232(2) 0.5097(2) 0.9452(2)
H48 H 0.2923 0.5363 0.9284
C66 C 0.3756(2) 0.5357(2) 0.9723(2)
H49 H 0.3799 0.5795 0.9744
C67 C 0.2581(2) 0.4220(2) 0.9114(2)
H50 H 0.2351 0.4498 0.8861
C68 C 0.1555(2) 0.2970(2) 0.8905(2)
C69 C 0.1085(2) 0.2797(2) 0.8473(2)
H51 H 0.0995 0.3048 0.8122
C70 C 0.0766(2) 0.2253(3) 0.8580(3)
H52 H 0.0456 0.2122 0.8296
C71 C 0.0892(3) 0.1901(3) 0.9093(3)
H53 H 0.0671 0.1529 0.9173
C72 C 0.1351(3) 0.2103(2) 0.9491(3)
N18 N 0.23833(17) 0.36653(16) 0.91690(16)
N19 N 0.18688(18) 0.35087(19) 0.88224(18)
H54 H 0.1739 0.3769 0.8536
N20 N 0.16832(19) 0.26166(18) 0.94115(17)
Ag5_2 Ag 0.2500 0.28947(3) 1.0000
Ag1_2 Ag -0.0000 0.2500 0.28947(3)
C1_2 C 0.0037(2) 0.07799(19) 0.4973(2)
C2_2 C 0.0071(2) 0.0857(2) 0.4325(2)
C3_2 C 0.0337(2) 0.1395(2) 0.4073(2)
H2_2 H 0.0351 0.1446 0.3635
C4_2 C 0.0580(2) 0.1854(2) 0.4457(2)
C5_2 C 0.0548(2) 0.1768(2) 0.5097(2)
H3_2 H 0.0716 0.2077 0.5363
C6_2 C 0.0277(2) 0.1244(2) 0.5357(2)
H4_2 H 0.0256 0.1201 0.5795
C7_2 C 0.0886(2) 0.2419(2) 0.4220(2)
H5_2 H 0.1139 0.2649 0.4498
C8_2 C 0.1095(2) 0.3445(2) 0.2970(2)
C9_2 C 0.1527(2) 0.3915(2) 0.2797(2)
H6_2 H 0.1878 0.4005 0.3048
C10_2 C 0.1420(3) 0.4234(2) 0.2253(3)
H7_2 H 0.1704 0.4544 0.2122
C11_2 C 0.0907(3) 0.4108(3) 0.1901(3)
H8_2 H 0.0827 0.4329 0.1529
C12_2 C 0.0509(3) 0.3649(3) 0.2103(2)
N2_2 N 0.08310(16) 0.26167(17) 0.36653(16)
N3_2 N 0.11776(18) 0.31312(18) 0.35087(19)
H9_2 H 0.1464 0.3261 0.3769
N4_2 N 0.05885(17) 0.33168(19) 0.26166(18)
H10_2 H 0.0942 0.0086 0.5544
Cl2_2 Cl 0.33346(9) 0.01407(9) 0.84519(11)
Ag2_3 Ag 0.21053(3) 0.0000 0.7500
H28_2 H 0.0086 0.4456 0.4058
Cl4_2 Cl 0.01407(9) 0.15481(11) 0.16654(9)
N11_2 N 0.0228(2) 0.4772(2) 0.5228(2)
C53_2 C 0.0097(2) 0.5548(2) 0.6768(2)
H39_2 H 0.0363 0.5716 0.7077
C54_2 C 0.0357(2) 0.5277(2) 0.6244(2)
H40_2 H 0.0795 0.5256 0.6201
C61_2 C 0.07799(19) 0.5027(2) 0.4963(2)
C62_2 C 0.0857(2) 0.5675(2) 0.4929(2)
H46_2 H 0.0544 0.5942 0.5086
C63_2 C 0.1395(2) 0.5927(2) 0.4663(2)
H47_2 H 0.1446 0.6365 0.4649
C64_2 C 0.1854(2) 0.5543(2) 0.4420(2)
C65_2 C 0.1768(2) 0.4903(2) 0.4452(2)
H48_2 H 0.2077 0.4637 0.4284
C66_2 C 0.1244(2) 0.4643(2) 0.4723(2)
H49_2 H 0.1201 0.4205 0.4744
C67_2 C 0.2419(2) 0.5780(2) 0.4114(2)
H50_2 H 0.2649 0.5502 0.3861
C68_2 C 0.3445(2) 0.7030(2) 0.3905(2)
C69_2 C 0.3915(2) 0.7203(2) 0.3473(2)
H51_2 H 0.4005 0.6952 0.3122
C70_2 C 0.4234(2) 0.7747(3) 0.3580(3)
H52_2 H 0.4544 0.7878 0.3296
C71_2 C 0.4108(3) 0.8099(3) 0.4093(3)
H53_2 H 0.4329 0.8471 0.4173
C72_2 C 0.3649(3) 0.7897(2) 0.4491(3)
Cl6_2 Cl 0.34519(11) 0.83346(9) 0.51407(9)
N18_2 N 0.26167(17) 0.63347(16) 0.41690(16)
N19_2 N 0.31312(18) 0.64913(19) 0.38224(18)
H54_2 H 0.3261 0.6231 0.3536
N20_2 N 0.33168(19) 0.73834(18) 0.44115(17)
Ag5_3 Ag 0.2500 0.71053(3) 0.5000
N21_2 N 0.13347(16) 0.08310(16) 0.73833(17)
N23_2 N 0.23834(18) 0.05885(17) 0.66832(19)
C13_2 C 0.0027(2) 0.9963(2) 0.57799(19)
C14_2 C 0.0675(2) 0.9929(2) 0.5857(2)
C15_2 C 0.0927(2) 0.9663(2) 0.6395(2)
H11_2 H 0.1365 0.9649 0.6446
C16_2 C 0.0543(2) 0.9420(2) 0.6854(2)
C19_2 C 0.0780(2) 0.9114(2) 0.7419(2)
H14_2 H 0.0502 0.8861 0.7649
C20_2 C 0.2030(2) 0.8905(2) 0.8445(2)
C21_2 C 0.2203(2) 0.8473(2) 0.8915(2)
H15_2 H 0.1952 0.8122 0.9005
C22_2 C 0.2747(3) 0.8580(3) 0.9234(2)
H16_2 H 0.2878 0.8296 0.9544
C23_2 C 0.3099(3) 0.9093(3) 0.9108(3)
H17_2 H 0.3471 0.9173 0.9329
C24_2 C 0.2897(2) 0.9491(3) 0.8649(3)
N5_2 N 0.13347(16) 0.91690(16) 0.76167(17)
N6_2 N 0.14913(19) 0.88224(18) 0.81312(18)
H18_2 H 0.1231 0.8536 0.8261
N7_2 N 0.23834(18) 0.94115(17) 0.83168(19)
Ag2_4 Ag 0.21053(3) 1.0000 0.7500
Ag1_3 Ag 1.0000 0.2500 0.28947(3)
H1_2 H 0.9914 0.0544 0.4058
Cl1_2 Cl 0.98593(9) 0.34519(11) 0.16654(9)
N1_2 N 0.9772(2) 0.0228(2) 0.5228(2)
C29_2 C 0.8232(2) 0.0097(2) 0.4452(2)
H21_2 H 0.7923 0.0363 0.4284
C30_2 C 0.8756(2) 0.0357(2) 0.4723(2)
H22_2 H 0.8799 0.0795 0.4744
C37_2 C 0.9963(2) 0.42201(19) 0.4973(2)
C38_2 C 0.9929(2) 0.4143(2) 0.4325(2)
C39_2 C 0.9663(2) 0.3605(2) 0.4073(2)
H29_2 H 0.9649 0.3554 0.3635
C40_2 C 0.9420(2) 0.3146(2) 0.4457(2)
C41_2 C 0.9452(2) 0.3232(2) 0.5097(2)
H30_2 H 0.9284 0.2923 0.5363
C42_2 C 0.9723(2) 0.3756(2) 0.5357(2)
H31_2 H 0.9744 0.3799 0.5795
C43_2 C 0.9114(2) 0.2581(2) 0.4220(2)
H32_2 H 0.8861 0.2351 0.4498
C44_2 C 0.8905(2) 0.1555(2) 0.2970(2)
C45_2 C 0.8473(2) 0.1085(2) 0.2797(2)
H33_2 H 0.8122 0.0995 0.3048
C46_2 C 0.8580(3) 0.0766(2) 0.2253(3)
H34_2 H 0.8296 0.0456 0.2122
C47_2 C 0.9093(3) 0.0892(3) 0.1901(3)
H35_2 H 0.9173 0.0671 0.1529
C48_2 C 0.9491(3) 0.1351(3) 0.2103(2)
N12_2 N 0.91690(16) 0.23833(17) 0.36653(16)
N13_2 N 0.88224(18) 0.18688(18) 0.35087(19)
H36_2 H 0.8536 0.1739 0.3769
N14_2 N 0.94115(17) 0.16832(19) 0.26166(18)
C49_2 C 0.9973(2) 0.5037(2) 0.57799(19)
C50_2 C 0.9325(2) 0.5071(2) 0.5857(2)
H37_2 H 0.9058 0.4914 0.5544
C51_2 C 0.9073(2) 0.5337(2) 0.6395(2)
H38_2 H 0.8635 0.5351 0.6446
C52_2 C 0.9457(2) 0.5580(2) 0.6854(2)
C55_2 C 0.9220(2) 0.5886(2) 0.7419(2)
H41_2 H 0.9498 0.6139 0.7649
C56_2 C 0.7970(2) 0.6095(2) 0.8445(2)
C57_2 C 0.7797(2) 0.6527(2) 0.8915(2)
H42_2 H 0.8048 0.6878 0.9005
C58_2 C 0.7253(3) 0.6420(3) 0.9234(2)
H43_2 H 0.7122 0.6704 0.9544
C59_2 C 0.6901(3) 0.5907(3) 0.9108(3)
H44_2 H 0.6529 0.5827 0.9329
C60_2 C 0.7103(2) 0.5509(3) 0.8649(3)
Cl5_2 Cl 0.66654(9) 0.48593(9) 0.84519(11)
N15_2 N 0.86653(16) 0.58310(16) 0.76167(17)
N16_2 N 0.85087(19) 0.61776(18) 0.81312(18)
H45_2 H 0.8769 0.6464 0.8261
N17_2 N 0.76166(18) 0.55885(17) 0.83168(19)
Ag4_2 Ag 0.78947(3) 0.5000 0.7500
C17_2 C 0.9903(2) 0.9452(2) 0.6768(2)
H12_2 H 0.9637 0.9284 0.7077
C18_2 C 0.9643(2) 0.9723(2) 0.6244(2)
H13_2 H 0.9205 0.9744 0.6201
C25_2 C 0.92201(19) 0.9973(2) 0.4963(2)
C26_2 C 0.9143(2) 0.9325(2) 0.4929(2)
H19_2 H 0.9456 0.9058 0.5086
C27_2 C 0.8605(2) 0.9073(2) 0.4663(2)
H20_2 H 0.8554 0.8635 0.4649
C28_2 C 0.8146(2) 0.9457(2) 0.4420(2)
C31_2 C 0.7581(2) 0.9220(2) 0.4114(2)
H23_2 H 0.7351 0.9498 0.3861
C32_2 C 0.6555(2) 0.7970(2) 0.3905(2)
C33_2 C 0.6085(2) 0.7797(2) 0.3473(2)
H24_2 H 0.5995 0.8048 0.3122
C34_2 C 0.5766(2) 0.7253(3) 0.3580(3)
H25_2 H 0.5456 0.7122 0.3296
C35_2 C 0.5892(3) 0.6901(3) 0.4093(3)
H26_2 H 0.5671 0.6529 0.4173
C36_2 C 0.6351(3) 0.7103(2) 0.4491(3)
Cl3_2 Cl 0.65481(11) 0.66654(9) 0.51407(9)
N8_2 N 0.73833(17) 0.86653(16) 0.41690(16)
N9_2 N 0.68688(18) 0.85087(19) 0.38224(18)
H27_2 H 0.6739 0.8769 0.3536
N10_2 N 0.66832(19) 0.76166(18) 0.44115(17)
Ag3_3 Ag 0.7500 0.78947(3) 0.5000
N22_2 N 0.76167(17) 0.86653(16) 0.58310(16)
N24_2 N 0.83168(19) 0.76166(18) 0.55885(17)
Ag1_4 Ag 0.5000 0.2500 0.71053(3)
C1_3 C 0.5037(2) 0.42201(19) 0.5027(2)
C2_3 C 0.5071(2) 0.4143(2) 0.5675(2)
H1_3 H 0.4914 0.4456 0.5942
C3_3 C 0.5337(2) 0.3605(2) 0.5927(2)
H2_3 H 0.5351 0.3554 0.6365
C4_3 C 0.5580(2) 0.3146(2) 0.5543(2)
C5_3 C 0.5548(2) 0.3232(2) 0.4903(2)
H3_3 H 0.5716 0.2923 0.4637
C6_3 C 0.5277(2) 0.3756(2) 0.4643(2)
H4_3 H 0.5256 0.3799 0.4205
C7_3 C 0.5886(2) 0.2581(2) 0.5780(2)
H5_3 H 0.6139 0.2351 0.5502
C8_3 C 0.6095(2) 0.1555(2) 0.7030(2)
C9_3 C 0.6527(2) 0.1085(2) 0.7203(2)
H6_3 H 0.6878 0.0995 0.6952
C10_3 C 0.6420(3) 0.0766(2) 0.7747(3)
H7_3 H 0.6704 0.0456 0.7878
C11_3 C 0.5907(3) 0.0892(3) 0.8099(3)
H8_3 H 0.5827 0.0671 0.8471
C12_3 C 0.5509(3) 0.1351(3) 0.7897(2)
Cl1_3 Cl 0.48593(9) 0.15481(11) 0.83346(9)
N1_3 N 0.4772(2) 0.4772(2) 0.4772(2)
N2_3 N 0.58310(16) 0.23833(17) 0.63347(16)
N3_3 N 0.61776(18) 0.18688(18) 0.64913(19)
H9_3 H 0.6464 0.1739 0.6231
N4_3 N 0.55885(17) 0.16832(19) 0.73834(18)
C13_3 C 0.5027(2) 0.5037(2) 0.42201(19)
C14_3 C 0.5675(2) 0.5071(2) 0.4143(2)
H10_3 H 0.5942 0.4914 0.4456
C15_3 C 0.5927(2) 0.5337(2) 0.3605(2)
H11_3 H 0.6365 0.5351 0.3554
C16_3 C 0.5543(2) 0.5580(2) 0.3146(2)
C17_3 C 0.4903(2) 0.5548(2) 0.3232(2)
H12_3 H 0.4637 0.5716 0.2923
C18_3 C 0.4643(2) 0.5277(2) 0.3756(2)
H13_3 H 0.4205 0.5256 0.3799
C19_3 C 0.5780(2) 0.5886(2) 0.2581(2)
H14_3 H 0.5502 0.6139 0.2351
C20_3 C 0.7030(2) 0.6095(2) 0.1555(2)
C21_3 C 0.7203(2) 0.6527(2) 0.1085(2)
H15_3 H 0.6952 0.6878 0.0995
C22_3 C 0.7747(3) 0.6420(3) 0.0766(2)
H16_3 H 0.7878 0.6704 0.0456
C23_3 C 0.8099(3) 0.5907(3) 0.0892(3)
H17_3 H 0.8471 0.5827 0.0671
C24_3 C 0.7897(2) 0.5509(3) 0.1351(3)
Cl2_3 Cl 0.83346(9) 0.48593(9) 0.15481(11)
N5_3 N 0.63347(16) 0.58310(16) 0.23833(17)
N6_3 N 0.64913(19) 0.61776(18) 0.18688(18)
H18_3 H 0.6231 0.6464 0.1739
N7_3 N 0.73834(18) 0.55885(17) 0.16832(19)
C25_3 C 0.42201(19) 0.5027(2) 0.5037(2)
C26_3 C 0.4143(2) 0.5675(2) 0.5071(2)
H19_3 H 0.4456 0.5942 0.4914
C27_3 C 0.3605(2) 0.5927(2) 0.5337(2)
H20_3 H 0.3554 0.6365 0.5351
C28_3 C 0.3146(2) 0.5543(2) 0.5580(2)
C29_3 C 0.3232(2) 0.4903(2) 0.5548(2)
H21_3 H 0.2923 0.4637 0.5716
C30_3 C 0.3756(2) 0.4643(2) 0.5277(2)
H22_3 H 0.3799 0.4205 0.5256
C31_3 C 0.2581(2) 0.5780(2) 0.5886(2)
H23_3 H 0.2351 0.5502 0.6139
C32_3 C 0.1555(2) 0.7030(2) 0.6095(2)
C33_3 C 0.1085(2) 0.7203(2) 0.6527(2)
H24_3 H 0.0995 0.6952 0.6878
C34_3 C 0.0766(2) 0.7747(3) 0.6420(3)
H25_3 H 0.0456 0.7878 0.6704
C35_3 C 0.0892(3) 0.8099(3) 0.5907(3)
H26_3 H 0.0671 0.8471 0.5827
C36_3 C 0.1351(3) 0.7897(2) 0.5509(3)
Cl3_3 Cl 0.15481(11) 0.83346(9) 0.48593(9)
N8_3 N 0.23833(17) 0.63347(16) 0.58310(16)
N9_3 N 0.18688(18) 0.64913(19) 0.61776(18)
H27_3 H 0.1739 0.6231 0.6464
N10_3 N 0.16832(19) 0.73834(18) 0.55885(17)
C37_3 C 0.4963(2) 0.07799(19) 0.5027(2)
C38_3 C 0.4929(2) 0.0857(2) 0.5675(2)
H28_3 H 0.5086 0.0544 0.5942
C39_3 C 0.4663(2) 0.1395(2) 0.5927(2)
H29_3 H 0.4649 0.1446 0.6365
C40_3 C 0.4420(2) 0.1854(2) 0.5543(2)
C41_3 C 0.4452(2) 0.1768(2) 0.4903(2)
H30_3 H 0.4284 0.2077 0.4637
C42_3 C 0.4723(2) 0.1244(2) 0.4643(2)
H31_3 H 0.4744 0.1201 0.4205
C43_3 C 0.4114(2) 0.2419(2) 0.5780(2)
H32_3 H 0.3861 0.2649 0.5502
C44_3 C 0.3905(2) 0.3445(2) 0.7030(2)
C45_3 C 0.3473(2) 0.3915(2) 0.7203(2)
H33_3 H 0.3122 0.4005 0.6952
C46_3 C 0.3580(3) 0.4234(2) 0.7747(3)
H34_3 H 0.3296 0.4544 0.7878
C47_3 C 0.4093(3) 0.4108(3) 0.8099(3)
H35_3 H 0.4173 0.4329 0.8471
C48_3 C 0.4491(3) 0.3649(3) 0.7897(2)
Cl4_3 Cl 0.51407(9) 0.34519(11) 0.83346(9)
N11_3 N 0.5228(2) 0.0228(2) 0.4772(2)
N12_3 N 0.41690(16) 0.26167(17) 0.63347(16)
N13_3 N 0.38224(18) 0.31312(18) 0.64913(19)
H36_3 H 0.3536 0.3261 0.6231
N14_3 N 0.44115(17) 0.33168(19) 0.73834(18)
H37_3 H 0.4058 0.0086 0.4456
Cl5_3 Cl 0.16654(9) 0.01407(9) 0.15481(11)
C65_3 C 0.6768(2) 0.0097(2) 0.5548(2)
H48_3 H 0.7077 0.0363 0.5716
C66_3 C 0.6244(2) 0.0357(2) 0.5277(2)
H49_3 H 0.6201 0.0795 0.5256
C49_3 C 0.4973(2) 0.9963(2) 0.42201(19)
C50_3 C 0.4325(2) 0.9929(2) 0.4143(2)
C51_3 C 0.4073(2) 0.9663(2) 0.3605(2)
H38_3 H 0.3635 0.9649 0.3554
C52_3 C 0.4457(2) 0.9420(2) 0.3146(2)
C53_3 C 0.5097(2) 0.9452(2) 0.3232(2)
H39_3 H 0.5363 0.9284 0.2923
C54_3 C 0.5357(2) 0.9723(2) 0.3756(2)
H40_3 H 0.5795 0.9744 0.3799
C55_3 C 0.4220(2) 0.9114(2) 0.2581(2)
H41_3 H 0.4498 0.8861 0.2351
C56_3 C 0.2970(2) 0.8905(2) 0.1555(2)
C57_3 C 0.2797(2) 0.8473(2) 0.1085(2)
H42_3 H 0.3048 0.8122 0.0995
C58_3 C 0.2253(3) 0.8580(3) 0.0766(2)
H43_3 H 0.2122 0.8296 0.0456
C59_3 C 0.1901(3) 0.9093(3) 0.0892(3)
H44_3 H 0.1529 0.9173 0.0671
C60_3 C 0.2103(2) 0.9491(3) 0.1351(3)
N16_3 N 0.35087(19) 0.88224(18) 0.18688(18)
H45_3 H 0.3769 0.8536 0.1739
C61_3 C 0.57799(19) 0.9973(2) 0.5037(2)
C62_3 C 0.5857(2) 0.9325(2) 0.5071(2)
H46_3 H 0.5544 0.9058 0.4914
C63_3 C 0.6395(2) 0.9073(2) 0.5337(2)
H47_3 H 0.6446 0.8635 0.5351
C64_3 C 0.6854(2) 0.9457(2) 0.5580(2)
C67_3 C 0.7419(2) 0.9220(2) 0.5886(2)
H50_3 H 0.7649 0.9498 0.6139
C68_3 C 0.8445(2) 0.7970(2) 0.6095(2)
C69_3 C 0.8915(2) 0.7797(2) 0.6527(2)
H51_3 H 0.9005 0.8048 0.6878
C70_3 C 0.9234(2) 0.7253(3) 0.6420(3)
H52_3 H 0.9544 0.7122 0.6704
C71_3 C 0.9108(3) 0.6901(3) 0.5907(3)
H53_3 H 0.9329 0.6529 0.5827
C72_3 C 0.8649(3) 0.7103(2) 0.5509(3)
Cl6_3 Cl 0.84519(11) 0.66654(9) 0.48593(9)
N19_3 N 0.81312(18) 0.85087(19) 0.61776(18)
H54_3 H 0.8261 0.8769 0.6464
C49_4 C 0.0027(2) 0.0037(2) 0.92201(19)
C50_4 C 0.0675(2) 0.0071(2) 0.9143(2)
C51_4 C 0.0927(2) 0.0337(2) 0.8605(2)
H38_4 H 0.1365 0.0351 0.8554
C52_4 C 0.0543(2) 0.0580(2) 0.8146(2)
C55_4 C 0.0780(2) 0.0886(2) 0.7581(2)
H41_4 H 0.0502 0.1139 0.7351
C56_4 C 0.2030(2) 0.1095(2) 0.6555(2)
C57_4 C 0.2203(2) 0.1527(2) 0.6085(2)
H42_4 H 0.1952 0.1878 0.5995
C58_4 C 0.2747(3) 0.1420(3) 0.5766(2)
H43_4 H 0.2878 0.1704 0.5456
C59_4 C 0.3099(3) 0.0907(3) 0.5892(3)
H44_4 H 0.3471 0.0827 0.5671
C60_4 C 0.2897(2) 0.0509(3) 0.6351(3)
N16_4 N 0.14913(19) 0.11776(18) 0.68688(18)
H45_4 H 0.1231 0.1464 0.6739
Ag1_5 Ag 0.0000 0.7500 0.21053(3)
H1_4 H 0.0086 0.5544 0.0942
Cl1_4 Cl 0.01407(9) 0.84519(11) 0.33346(9)
C25_4 C 0.07799(19) 0.4973(2) 0.0037(2)
C26_4 C 0.0857(2) 0.4325(2) 0.0071(2)
C27_4 C 0.1395(2) 0.4073(2) 0.0337(2)
H20_4 H 0.1446 0.3635 0.0351
C28_4 C 0.1854(2) 0.4457(2) 0.0580(2)
C29_4 C 0.1768(2) 0.5097(2) 0.0548(2)
H21_4 H 0.2077 0.5363 0.0716
C30_4 C 0.1244(2) 0.5357(2) 0.0277(2)
H22_4 H 0.1201 0.5795 0.0256
C31_4 C 0.2419(2) 0.4220(2) 0.0886(2)
H23_4 H 0.2649 0.4498 0.1139
C32_4 C 0.3445(2) 0.2970(2) 0.1095(2)
C33_4 C 0.3915(2) 0.2797(2) 0.1527(2)
H24_4 H 0.4005 0.3048 0.1878
C34_4 C 0.4234(2) 0.2253(3) 0.1420(3)
H25_4 H 0.4544 0.2122 0.1704
C35_4 C 0.4108(3) 0.1901(3) 0.0907(3)
H26_4 H 0.4329 0.1529 0.0827
C36_4 C 0.3649(3) 0.2103(2) 0.0509(3)
N8_4 N 0.26167(17) 0.36653(16) 0.08310(16)
N9_4 N 0.31312(18) 0.35087(19) 0.11776(18)
H27_4 H 0.3261 0.3769 0.1464
N10_4 N 0.33168(19) 0.26166(18) 0.05885(17)
C37_4 C 0.0037(2) 0.92201(19) 0.0027(2)
C38_4 C 0.0071(2) 0.9143(2) 0.0675(2)
C39_4 C 0.0337(2) 0.8605(2) 0.0927(2)
H29_4 H 0.0351 0.8554 0.1365
C40_4 C 0.0580(2) 0.8146(2) 0.0543(2)
C43_4 C 0.0886(2) 0.7581(2) 0.0780(2)
H32_4 H 0.1139 0.7351 0.0502
C44_4 C 0.1095(2) 0.6555(2) 0.2030(2)
C45_4 C 0.1527(2) 0.6085(2) 0.2203(2)
H33_4 H 0.1878 0.5995 0.1952
C46_4 C 0.1420(3) 0.5766(2) 0.2747(3)
H34_4 H 0.1704 0.5456 0.2878
C47_4 C 0.0907(3) 0.5892(3) 0.3099(3)
H35_4 H 0.0827 0.5671 0.3471
C48_4 C 0.0509(3) 0.6351(3) 0.2897(2)
N12_4 N 0.08310(16) 0.73833(17) 0.13347(16)
N13_4 N 0.11776(18) 0.68688(18) 0.14913(19)
H36_4 H 0.1464 0.6739 0.1231
N14_4 N 0.05885(17) 0.66832(19) 0.23834(18)
N1_4 N 0.0228(2) 0.5228(2) 0.9772(2)
C17_4 C 0.0097(2) 0.4452(2) 0.8232(2)
H12_4 H 0.0363 0.4284 0.7923
C18_4 C 0.0357(2) 0.4723(2) 0.8756(2)
H13_4 H 0.0795 0.4744 0.8799
H19_4 H 0.0544 0.4058 0.9914
Cl3_4 Cl 0.34519(11) 0.16654(9) 0.98593(9)
C41_4 C 0.0548(2) 0.8232(2) 0.9903(2)
H30_4 H 0.0716 0.7923 0.9637
C42_4 C 0.0277(2) 0.8756(2) 0.9643(2)
H31_4 H 0.0256 0.8799 0.9205
H37_4 H 0.0942 0.9914 0.9456
Cl5_4 Cl 0.33346(9) 0.98593(9) 0.65481(11)
C61_4 C 0.92201(19) 0.0027(2) 0.0037(2)
C62_4 C 0.9143(2) 0.0675(2) 0.0071(2)
C63_4 C 0.8605(2) 0.0927(2) 0.0337(2)
H47_4 H 0.8554 0.1365 0.0351
C64_4 C 0.8146(2) 0.0543(2) 0.0580(2)
C67_4 C 0.7581(2) 0.0780(2) 0.0886(2)
H50_4 H 0.7351 0.0502 0.1139
C68_4 C 0.6555(2) 0.2030(2) 0.1095(2)
C69_4 C 0.6085(2) 0.2203(2) 0.1527(2)
H51_4 H 0.5995 0.1952 0.1878
C70_4 C 0.5766(2) 0.2747(3) 0.1420(3)
H52_4 H 0.5456 0.2878 0.1704
C71_4 C 0.5892(3) 0.3099(3) 0.0907(3)
H53_4 H 0.5671 0.3471 0.0827
C72_4 C 0.6351(3) 0.2897(2) 0.0509(3)
N19_4 N 0.68688(18) 0.14913(19) 0.11776(18)
H54_4 H 0.6739 0.1231 0.1464
C53_4 C 0.9903(2) 0.0548(2) 0.8232(2)
H39_4 H 0.9637 0.0716 0.7923
C54_4 C 0.9643(2) 0.0277(2) 0.8756(2)
H40_4 H 0.9205 0.0256 0.8799
H46_4 H 0.9456 0.0942 0.9914
Cl6_4 Cl 0.65481(11) 0.33346(9) 0.98593(9)
Ag1_6 Ag 1.0000 0.7500 0.21053(3)
C1_4 C 0.9963(2) 0.57799(19) 0.0027(2)
C2_4 C 0.9929(2) 0.5857(2) 0.0675(2)
C3_4 C 0.9663(2) 0.6395(2) 0.0927(2)
H2_4 H 0.9649 0.6446 0.1365
C4_4 C 0.9420(2) 0.6854(2) 0.0543(2)
C7_4 C 0.9114(2) 0.7419(2) 0.0780(2)
H5_4 H 0.8861 0.7649 0.0502
C8_4 C 0.8905(2) 0.8445(2) 0.2030(2)
C9_4 C 0.8473(2) 0.8915(2) 0.2203(2)
H6_4 H 0.8122 0.9005 0.1952
C10_4 C 0.8580(3) 0.9234(2) 0.2747(3)
H7_4 H 0.8296 0.9544 0.2878
C11_4 C 0.9093(3) 0.9108(3) 0.3099(3)
H8_4 H 0.9173 0.9329 0.3471
C12_4 C 0.9491(3) 0.8649(3) 0.2897(2)
N2_4 N 0.91690(16) 0.76167(17) 0.13347(16)
N3_4 N 0.88224(18) 0.81312(18) 0.14913(19)
H9_4 H 0.8536 0.8261 0.1231
N4_4 N 0.94115(17) 0.83168(19) 0.23834(18)
H28_4 H 0.9914 0.9456 0.0942
Cl4_4 Cl 0.98593(9) 0.65481(11) 0.33346(9)
C65_4 C 0.8232(2) 0.9903(2) 0.0548(2)
H48_4 H 0.7923 0.9637 0.0716
C66_4 C 0.8756(2) 0.9643(2) 0.0277(2)
H49_4 H 0.8799 0.9205 0.0256
C5_4 C 0.9452(2) 0.6768(2) 0.9903(2)
H3_4 H 0.9284 0.7077 0.9637
C6_4 C 0.9723(2) 0.6244(2) 0.9643(2)
H4_4 H 0.9744 0.6201 0.9205
C13_4 C 0.9973(2) 0.4963(2) 0.92201(19)
C14_4 C 0.9325(2) 0.4929(2) 0.9143(2)
H10_4 H 0.9058 0.5086 0.9456
C15_4 C 0.9073(2) 0.4663(2) 0.8605(2)
H11_4 H 0.8635 0.4649 0.8554
C16_4 C 0.9457(2) 0.4420(2) 0.8146(2)
C19_4 C 0.9220(2) 0.4114(2) 0.7581(2)
H14_4 H 0.9498 0.3861 0.7351
C20_4 C 0.7970(2) 0.3905(2) 0.6555(2)
C21_4 C 0.7797(2) 0.3473(2) 0.6085(2)
H15_4 H 0.8048 0.3122 0.5995
C22_4 C 0.7253(3) 0.3580(3) 0.5766(2)
H16_4 H 0.7122 0.3296 0.5456
C23_4 C 0.6901(3) 0.4093(3) 0.5892(3)
H17_4 H 0.6529 0.4173 0.5671
C24_4 C 0.7103(2) 0.4491(3) 0.6351(3)
Cl2_4 Cl 0.66654(9) 0.51407(9) 0.65481(11)
N5_4 N 0.86653(16) 0.41690(16) 0.73833(17)
N6_4 N 0.85087(19) 0.38224(18) 0.68688(18)
H18_4 H 0.8769 0.3536 0.6739
N7_4 N 0.76166(18) 0.44115(17) 0.66832(19)
N11_4 N 0.9772(2) 0.9772(2) 0.9772(2)
Cl7 Cl 0.81183(7) -0.0000 0.7500
O3 O 0.77380(17) 0.02374(18) 0.70073(17)
O4 O 0.84904(18) 0.0499(2) 0.77406(19)
Cl7_2 Cl 0.81183(7) 1.0000 0.7500
O1 O 0.77380(17) 0.97626(18) 0.79927(17)
O2 O 0.84904(18) 0.9501(2) 0.72594(19)
Cl7_3 Cl 0.68817(7) 0.0000 0.2500
O1_2 O 0.72620(17) 0.02374(18) 0.29927(17)
O2_2 O 0.65096(18) 0.0499(2) 0.22594(19)
Cl7_4 Cl 0.68817(7) 1.0000 0.2500
O3_2 O 0.72620(17) 0.97626(18) 0.20073(17)
O4_2 O 0.65096(18) 0.9501(2) 0.27406(19)
Cl7_5 Cl 0.18817(7) 0.5000 0.7500
O1_3 O 0.22620(17) 0.47626(18) 0.70073(17)
O2_3 O 0.15096(18) 0.4501(2) 0.77406(19)
O3_3 O 0.22620(17) 0.52374(18) 0.79927(17)
O4_3 O 0.15096(18) 0.5499(2) 0.72594(19)
Cl7_6 Cl 0.31183(7) 0.5000 0.2500
O1_4 O 0.27380(17) 0.52374(18) 0.20073(17)
O2_4 O 0.34904(18) 0.5499(2) 0.27406(19)
O3_4 O 0.27380(17) 0.47626(18) 0.29927(17)
O4_4 O 0.34904(18) 0.4501(2) 0.22594(19)
Cl7_7 Cl 0.7500 0.81183(7) -0.0000
O3_5 O 0.70073(17) 0.77380(17) 0.02374(18)
O4_5 O 0.77406(19) 0.84904(18) 0.0499(2)
Cl7_8 Cl 0.7500 0.81183(7) 1.0000
O1_5 O 0.79927(17) 0.77380(17) 0.97626(18)
O2_5 O 0.72594(19) 0.84904(18) 0.9501(2)
Cl7_9 Cl 0.2500 0.68817(7) 0.0000
O1_6 O 0.29927(17) 0.72620(17) 0.02374(18)
O2_6 O 0.22594(19) 0.65096(18) 0.0499(2)
Cl7_10 Cl 0.2500 0.68817(7) 1.0000
O3_6 O 0.20073(17) 0.72620(17) 0.97626(18)
O4_6 O 0.27406(19) 0.65096(18) 0.9501(2)
Cl7_11 Cl 0.7500 0.18817(7) 0.5000
O1_7 O 0.70073(17) 0.22620(17) 0.47626(18)
O2_7 O 0.77406(19) 0.15096(18) 0.4501(2)
O3_7 O 0.79927(17) 0.22620(17) 0.52374(18)
O4_7 O 0.72594(19) 0.15096(18) 0.5499(2)
Cl7_12 Cl 0.2500 0.31183(7) 0.5000
O1_8 O 0.20073(17) 0.27380(17) 0.52374(18)
O2_8 O 0.27406(19) 0.34904(18) 0.5499(2)
O3_8 O 0.29927(17) 0.27380(17) 0.47626(18)
O4_8 O 0.22594(19) 0.34904(18) 0.4501(2)
Cl7_13 Cl -0.0000 0.7500 0.81183(7)
O3_9 O 0.02374(18) 0.70073(17) 0.77380(17)
O4_9 O 0.0499(2) 0.77406(19) 0.84904(18)
Cl7_14 Cl 1.0000 0.7500 0.81183(7)
O1_9 O 0.97626(18) 0.79927(17) 0.77380(17)
O2_9 O 0.9501(2) 0.72594(19) 0.84904(18)
Cl7_15 Cl 0.0000 0.2500 0.68817(7)
O1_10 O 0.02374(18) 0.29927(17) 0.72620(17)
O2_10 O 0.0499(2) 0.22594(19) 0.65096(18)
Cl7_16 Cl 1.0000 0.2500 0.68817(7)
O3_10 O 0.97626(18) 0.20073(17) 0.72620(17)
O4_10 O 0.9501(2) 0.27406(19) 0.65096(18)
Cl7_17 Cl 0.5000 0.7500 0.18817(7)
O1_11 O 0.47626(18) 0.70073(17) 0.22620(17)
O2_11 O 0.4501(2) 0.77406(19) 0.15096(18)
O3_11 O 0.52374(18) 0.79927(17) 0.22620(17)
O4_11 O 0.5499(2) 0.72594(19) 0.15096(18)
Cl7_18 Cl 0.5000 0.2500 0.31183(7)
O1_12 O 0.52374(18) 0.20073(17) 0.27380(17)
O2_12 O 0.5499(2) 0.27406(19) 0.34904(18)
O3_12 O 0.47626(18) 0.29927(17) 0.27380(17)
O4_12 O 0.4501(2) 0.22594(19) 0.34904(18)
loop_
_geom_bond_atom_site_label_1
_geom_bond_atom_site_label_2
_geom_bond_site_symmetry_1
_geom_bond_site_symmetry_2
C14 C13 1_555 1_555
C15 C14 1_555 1_555
H11 C15 1_555 1_555
C16 C15 1_555 1_555
C17 C16 1_555 1_555
H12 C17 1_555 1_555
C18 C13 1_555 1_555
H13 C18 1_555 1_555
C19 C16 1_555 1_555
H14 C19 1_555 1_555
C20 C21 1_555 1_555
C21 H15 1_555 1_555
C22 C21 1_555 1_555
H16 C22 1_555 1_555
C23 C22 1_555 1_555
H17 C23 1_555 1_555
C24 C23 1_555 1_555
N5 C19 1_555 1_555
N6 C20 1_555 1_555
H18 N6 1_555 1_555
N7 C20 1_555 1_555
Ag2 N5 1_555 1_555
N22 Ag3 1_555 1_555
N24 Ag3 1_555 1_555
C17 C18 1_555 1_555
C24 N7 1_555 1_555
N5 N6 1_555 1_555
N7 Ag2 1_555 1_555
C26 C25 1_555 1_555
C27 C26 1_555 1_555
H20 C27 1_555 1_555
C28 C27 1_555 1_555
C31 C28 1_555 1_555
H23 C31 1_555 1_555
C32 C33 1_555 1_555
C33 H24 1_555 1_555
C34 C33 1_555 1_555
H25 C34 1_555 1_555
C35 C34 1_555 1_555
H26 C35 1_555 1_555
C36 C35 1_555 1_555
N8 C31 1_555 1_555
N9 C32 1_555 1_555
H27 N9 1_555 1_555
N10 C32 1_555 1_555
Ag3_2 N8 1_555 1_555
C36 N10 1_555 1_555
N8 N9 1_555 1_555
N10 Ag3_2 1_555 1_555
H3 C5 1_555 1_555
H4 C6 1_555 1_555
H30 C41 1_555 1_555
H31 C42 1_555 1_555
C49 N11 1_555 1_555
C50 C49 1_555 1_555
H37 C50 1_555 1_555
C51 C50 1_555 1_555
H38 C51 1_555 1_555
C52 C51 1_555 1_555
C53 C52 1_555 1_555
H39 C53 1_555 1_555
C54 C49 1_555 1_555
H40 C54 1_555 1_555
C55 C52 1_555 1_555
H41 C55 1_555 1_555
C56 C57 1_555 1_555
C57 H42 1_555 1_555
C58 C57 1_555 1_555
H43 C58 1_555 1_555
C59 C58 1_555 1_555
H44 C59 1_555 1_555
C60 C59 1_555 1_555
Cl5 C60 1_555 1_555
N15 C55 1_555 1_555
N16 C56 1_555 1_555
H45 N16 1_555 1_555
N17 C56 1_555 1_555
Ag4 N15 1_555 1_555
N21 Ag2_2 1_555 1_555
N23 Ag2_2 1_555 1_555
C5 C6 1_555 1_555
C41 C42 1_555 1_555
C53 C54 1_555 1_555
C60 N17 1_555 1_555
N15 N16 1_555 1_555
N17 Ag4 1_555 1_555
Ag1 N2 1_555 1_555
C1 C2 1_555 1_555
C2 H1 1_555 1_555
C3 C2 1_555 1_555
H2 C3 1_555 1_555
C4 C3 1_555 1_555
C7 C4 1_555 1_555
H5 C7 1_555 1_555
C8 C9 1_555 1_555
C9 H6 1_555 1_555
C10 C9 1_555 1_555
H7 C10 1_555 1_555
C11 C10 1_555 1_555
H8 C11 1_555 1_555
C12 C11 1_555 1_555
Cl1 C12 1_555 1_555
N2 C7 1_555 1_555
N3 C8 1_555 1_555
H9 N3 1_555 1_555
N4 Ag1 1_555 1_555
H21 C29 1_555 1_555
H22 C30 1_555 1_555
C37 C38 1_555 1_555
C38 H28 1_555 1_555
C39 C38 1_555 1_555
H29 C39 1_555 1_555
C40 C39 1_555 1_555
C43 C40 1_555 1_555
H32 C43 1_555 1_555
C44 C45 1_555 1_555
C45 H33 1_555 1_555
C46 C45 1_555 1_555
H34 C46 1_555 1_555
C47 C46 1_555 1_555
H35 C47 1_555 1_555
C48 C47 1_555 1_555
Cl4 C48 1_555 1_555
N12 Ag1 1_555 1_555
N13 C44 1_555 1_555
H36 N13 1_555 1_555
N14 Ag1 1_555 1_555
C62 C61 1_555 1_555
C63 C62 1_555 1_555
H47 C63 1_555 1_555
C64 C63 1_555 1_555
C65 C64 1_555 1_555
H48 C65 1_555 1_555
C66 C61 1_555 1_555
H49 C66 1_555 1_555
C67 C64 1_555 1_555
H50 C67 1_555 1_555
C68 C69 1_555 1_555
C69 H51 1_555 1_555
C70 C69 1_555 1_555
H52 C70 1_555 1_555
C71 C70 1_555 1_555
H53 C71 1_555 1_555
C72 C71 1_555 1_555
N18 C67 1_555 1_555
N19 C68 1_555 1_555
H54 N19 1_555 1_555
N20 C68 1_555 1_555
Ag5_2 N18 1_555 1_555
C8 N4 1_555 1_555
C12 N4 1_555 1_555
N2 N3 1_555 1_555
C29 C30 1_555 1_555
C43 N12 1_555 1_555
C44 N14 1_555 1_555
C48 N14 1_555 1_555
N12 N13 1_555 1_555
C65 C66 1_555 1_555
C72 N20 1_555 1_555
N18 N19 1_555 1_555
N20 Ag5_2 1_555 1_555
Ag1_2 N2_2 1_555 1_555
C1_2 C2_2 1_555 1_555
C3_2 C2_2 1_555 1_555
H2_2 C3_2 1_555 1_555
C4_2 C3_2 1_555 1_555
C5_2 C4_2 1_555 1_555
H3_2 C5_2 1_555 1_555
C6_2 C1_2 1_555 1_555
H4_2 C6_2 1_555 1_555
C7_2 C4_2 1_555 1_555
H5_2 C7_2 1_555 1_555
C8_2 C9_2 1_555 1_555
C9_2 H6_2 1_555 1_555
C10_2 C9_2 1_555 1_555
H7_2 C10_2 1_555 1_555
C11_2 C10_2 1_555 1_555
H8_2 C11_2 1_555 1_555
C12_2 C11_2 1_555 1_555
N2_2 C7_2 1_555 1_555
N3_2 C8_2 1_555 1_555
H9_2 N3_2 1_555 1_555
N4_2 Ag1_2 1_555 1_555
H39_2 C53_2 1_555 1_555
H40_2 C54_2 1_555 1_555
C61_2 N11_2 1_555 1_555
C62_2 C61_2 1_555 1_555
H46_2 C62_2 1_555 1_555
C63_2 C62_2 1_555 1_555
H47_2 C63_2 1_555 1_555
C64_2 C63_2 1_555 1_555
C65_2 C64_2 1_555 1_555
H48_2 C65_2 1_555 1_555
C66_2 C61_2 1_555 1_555
H49_2 C66_2 1_555 1_555
C67_2 C64_2 1_555 1_555
H50_2 C67_2 1_555 1_555
C68_2 C69_2 1_555 1_555
C69_2 H51_2 1_555 1_555
C70_2 C69_2 1_555 1_555
H52_2 C70_2 1_555 1_555
C71_2 C70_2 1_555 1_555
H53_2 C71_2 1_555 1_555
C72_2 C71_2 1_555 1_555
Cl6_2 C72_2 1_555 1_555
N18_2 C67_2 1_555 1_555
N19_2 C68_2 1_555 1_555
H54_2 N19_2 1_555 1_555
N20_2 C68_2 1_555 1_555
Ag5_3 N18_2 1_555 1_555
N21_2 Ag2_3 1_555 1_555
N23_2 Ag2_3 1_555 1_555
C5_2 C6_2 1_555 1_555
C8_2 N4_2 1_555 1_555
C12_2 N4_2 1_555 1_555
N2_2 N3_2 1_555 1_555
C53_2 C54_2 1_555 1_555
C65_2 C66_2 1_555 1_555
C72_2 N20_2 1_555 1_555
N18_2 N19_2 1_555 1_555
N20_2 Ag5_3 1_555 1_555
C14_2 C13_2 1_555 1_555
C15_2 C14_2 1_555 1_555
H11_2 C15_2 1_555 1_555
C16_2 C15_2 1_555 1_555
C19_2 C16_2 1_555 1_555
H14_2 C19_2 1_555 1_555
C20_2 C21_2 1_555 1_555
C21_2 H15_2 1_555 1_555
C22_2 C21_2 1_555 1_555
H16_2 C22_2 1_555 1_555
C23_2 C22_2 1_555 1_555
H17_2 C23_2 1_555 1_555
C24_2 C23_2 1_555 1_555
N5_2 C19_2 1_555 1_555
N6_2 C20_2 1_555 1_555
H18_2 N6_2 1_555 1_555
N7_2 C20_2 1_555 1_555
Ag2_4 N5_2 1_555 1_555
C24_2 N7_2 1_555 1_555
N5_2 N6_2 1_555 1_555
N7_2 Ag2_4 1_555 1_555
H21_2 C29_2 1_555 1_555
H22_2 C30_2 1_555 1_555
C37_2 C38_2 1_555 1_555
C39_2 C38_2 1_555 1_555
H29_2 C39_2 1_555 1_555
C40_2 C39_2 1_555 1_555
C41_2 C40_2 1_555 1_555
H30_2 C41_2 1_555 1_555
C42_2 C37_2 1_555 1_555
H31_2 C42_2 1_555 1_555
C43_2 C40_2 1_555 1_555
H32_2 C43_2 1_555 1_555
C44_2 C45_2 1_555 1_555
C45_2 H33_2 1_555 1_555
C46_2 C45_2 1_555 1_555
H34_2 C46_2 1_555 1_555
C47_2 C46_2 1_555 1_555
H35_2 C47_2 1_555 1_555
C48_2 C47_2 1_555 1_555
N12_2 Ag1_3 1_555 1_555
N13_2 C44_2 1_555 1_555
H36_2 N13_2 1_555 1_555
N14_2 Ag1_3 1_555 1_555
C50_2 C49_2 1_555 1_555
H37_2 C50_2 1_555 1_555
C51_2 C50_2 1_555 1_555
H38_2 C51_2 1_555 1_555
C52_2 C51_2 1_555 1_555
C55_2 C52_2 1_555 1_555
H41_2 C55_2 1_555 1_555
C56_2 C57_2 1_555 1_555
C57_2 H42_2 1_555 1_555
C58_2 C57_2 1_555 1_555
H43_2 C58_2 1_555 1_555
C59_2 C58_2 1_555 1_555
H44_2 C59_2 1_555 1_555
C60_2 C59_2 1_555 1_555
Cl5_2 C60_2 1_555 1_555
N15_2 C55_2 1_555 1_555
N16_2 C56_2 1_555 1_555
H45_2 N16_2 1_555 1_555
N17_2 C56_2 1_555 1_555
Ag4_2 N15_2 1_555 1_555
C29_2 C30_2 1_555 1_555
C41_2 C42_2 1_555 1_555
C43_2 N12_2 1_555 1_555
C44_2 N14_2 1_555 1_555
C48_2 N14_2 1_555 1_555
N12_2 N13_2 1_555 1_555
C60_2 N17_2 1_555 1_555
N15_2 N16_2 1_555 1_555
N17_2 Ag4_2 1_555 1_555
H12_2 C17_2 1_555 1_555
H13_2 C18_2 1_555 1_555
C26_2 C25_2 1_555 1_555
H19_2 C26_2 1_555 1_555
C27_2 C26_2 1_555 1_555
H20_2 C27_2 1_555 1_555
C28_2 C27_2 1_555 1_555
C31_2 C28_2 1_555 1_555
H23_2 C31_2 1_555 1_555
C32_2 C33_2 1_555 1_555
C33_2 H24_2 1_555 1_555
C34_2 C33_2 1_555 1_555
H25_2 C34_2 1_555 1_555
C35_2 C34_2 1_555 1_555
H26_2 C35_2 1_555 1_555
C36_2 C35_2 1_555 1_555
Cl3_2 C36_2 1_555 1_555
N8_2 C31_2 1_555 1_555
N9_2 C32_2 1_555 1_555
H27_2 N9_2 1_555 1_555
N10_2 C32_2 1_555 1_555
Ag3_3 N8_2 1_555 1_555
N22_2 Ag3_3 1_555 1_555
N24_2 Ag3_3 1_555 1_555
C17_2 C18_2 1_555 1_555
C36_2 N10_2 1_555 1_555
N8_2 N9_2 1_555 1_555
N10_2 Ag3_3 1_555 1_555
Ag1_4 N2_3 1_555 1_555
C1_3 C2_3 1_555 1_555
C2_3 H1_3 1_555 1_555
C3_3 C2_3 1_555 1_555
H2_3 C3_3 1_555 1_555
C4_3 C3_3 1_555 1_555
C5_3 C4_3 1_555 1_555
H3_3 C5_3 1_555 1_555
C6_3 C1_3 1_555 1_555
H4_3 C6_3 1_555 1_555
C7_3 C4_3 1_555 1_555
H5_3 C7_3 1_555 1_555
C8_3 C9_3 1_555 1_555
C9_3 H6_3 1_555 1_555
C10_3 C9_3 1_555 1_555
H7_3 C10_3 1_555 1_555
C11_3 C10_3 1_555 1_555
H8_3 C11_3 1_555 1_555
C12_3 C11_3 1_555 1_555
Cl1_3 C12_3 1_555 1_555
N1_3 C1_3 1_555 1_555
N2_3 C7_3 1_555 1_555
N3_3 C8_3 1_555 1_555
H9_3 N3_3 1_555 1_555
N4_3 Ag1_4 1_555 1_555
C13_3 N1_3 1_555 1_555
C14_3 C13_3 1_555 1_555
H10_3 C14_3 1_555 1_555
C15_3 C14_3 1_555 1_555
H11_3 C15_3 1_555 1_555
C16_3 C15_3 1_555 1_555
C17_3 C16_3 1_555 1_555
H12_3 C17_3 1_555 1_555
C18_3 C13_3 1_555 1_555
H13_3 C18_3 1_555 1_555
C19_3 C16_3 1_555 1_555
H14_3 C19_3 1_555 1_555
C20_3 C21_3 1_555 1_555
C21_3 H15_3 1_555 1_555
C22_3 C21_3 1_555 1_555
H16_3 C22_3 1_555 1_555
C23_3 C22_3 1_555 1_555
H17_3 C23_3 1_555 1_555
C24_3 C23_3 1_555 1_555
Cl2_3 C24_3 1_555 1_555
N5_3 C19_3 1_555 1_555
N6_3 C20_3 1_555 1_555
H18_3 N6_3 1_555 1_555
N7_3 C20_3 1_555 1_555
C25_3 N1_3 1_555 1_555
C26_3 C25_3 1_555 1_555
H19_3 C26_3 1_555 1_555
C27_3 C26_3 1_555 1_555
H20_3 C27_3 1_555 1_555
C28_3 C27_3 1_555 1_555
C29_3 C28_3 1_555 1_555
H21_3 C29_3 1_555 1_555
C30_3 C25_3 1_555 1_555
H22_3 C30_3 1_555 1_555
C31_3 C28_3 1_555 1_555
H23_3 C31_3 1_555 1_555
C32_3 C33_3 1_555 1_555
C33_3 H24_3 1_555 1_555
C34_3 C33_3 1_555 1_555
H25_3 C34_3 1_555 1_555
C35_3 C34_3 1_555 1_555
H26_3 C35_3 1_555 1_555
C36_3 C35_3 1_555 1_555
Cl3_3 C36_3 1_555 1_555
N8_3 C31_3 1_555 1_555
N9_3 C32_3 1_555 1_555
H27_3 N9_3 1_555 1_555
N10_3 C32_3 1_555 1_555
Ag4 N5_3 1_555 1_555
Ag5_3 N8_3 1_555 1_555
C37_3 C38_3 1_555 1_555
C38_3 H28_3 1_555 1_555
C39_3 C38_3 1_555 1_555
H29_3 C39_3 1_555 1_555
C40_3 C39_3 1_555 1_555
C41_3 C40_3 1_555 1_555
H30_3 C41_3 1_555 1_555
C42_3 C37_3 1_555 1_555
H31_3 C42_3 1_555 1_555
C43_3 C40_3 1_555 1_555
H32_3 C43_3 1_555 1_555
C44_3 C45_3 1_555 1_555
C45_3 H33_3 1_555 1_555
C46_3 C45_3 1_555 1_555
H34_3 C46_3 1_555 1_555
C47_3 C46_3 1_555 1_555
H35_3 C47_3 1_555 1_555
C48_3 C47_3 1_555 1_555
Cl4_3 C48_3 1_555 1_555
N11_3 C37_3 1_555 1_555
N12_3 Ag1_4 1_555 1_555
N13_3 C44_3 1_555 1_555
H36_3 N13_3 1_555 1_555
N14_3 Ag1_4 1_555 1_555
H48_3 C65_3 1_555 1_555
H49_3 C66_3 1_555 1_555
C5_3 C6_3 1_555 1_555
C8_3 N4_3 1_555 1_555
C12_3 N4_3 1_555 1_555
N2_3 N3_3 1_555 1_555
C17_3 C18_3 1_555 1_555
C24_3 N7_3 1_555 1_555
N5_3 N6_3 1_555 1_555
N7_3 Ag4 1_555 1_555
C29_3 C30_3 1_555 1_555
C36_3 N10_3 1_555 1_555
N8_3 N9_3 1_555 1_555
N10_3 Ag5_3 1_555 1_555
C41_3 C42_3 1_555 1_555
C43_3 N12_3 1_555 1_555
C44_3 N14_3 1_555 1_555
C48_3 N14_3 1_555 1_555
N12_3 N13_3 1_555 1_555
C65_3 C66_3 1_555 1_555
C50_3 C49_3 1_555 1_555
C51_3 C50_3 1_555 1_555
H38_3 C51_3 1_555 1_555
C52_3 C51_3 1_555 1_555
C53_3 C52_3 1_555 1_555
H39_3 C53_3 1_555 1_555
C54_3 C49_3 1_555 1_555
H40_3 C54_3 1_555 1_555
C55_3 C52_3 1_555 1_555
H41_3 C55_3 1_555 1_555
C56_3 C57_3 1_555 1_555
C57_3 H42_3 1_555 1_555
C58_3 C57_3 1_555 1_555
H43_3 C58_3 1_555 1_555
C59_3 C58_3 1_555 1_555
H44_3 C59_3 1_555 1_555
C60_3 C59_3 1_555 1_555
N21 C55_3 1_555 1_555
N16_3 C56_3 1_555 1_555
H45_3 N16_3 1_555 1_555
N23 C56_3 1_555 1_555
C62_3 C61_3 1_555 1_555
H46_3 C62_3 1_555 1_555
C63_3 C62_3 1_555 1_555
H47_3 C63_3 1_555 1_555
C64_3 C63_3 1_555 1_555
C67_3 C64_3 1_555 1_555
H50_3 C67_3 1_555 1_555
C68_3 C69_3 1_555 1_555
C69_3 H51_3 1_555 1_555
C70_3 C69_3 1_555 1_555
H52_3 C70_3 1_555 1_555
C71_3 C70_3 1_555 1_555
H53_3 C71_3 1_555 1_555
C72_3 C71_3 1_555 1_555
Cl6_3 C72_3 1_555 1_555
N22_2 C67_3 1_555 1_555
N19_3 C68_3 1_555 1_555
H54_3 N19_3 1_555 1_555
N24_2 C68_3 1_555 1_555
C53_3 C54_3 1_555 1_555
C60_3 N23 1_555 1_555
N21 N16_3 1_555 1_555
C72_3 N24_2 1_555 1_555
N22_2 N19_3 1_555 1_555
C50_4 C49_4 1_555 1_555
C51_4 C50_4 1_555 1_555
H38_4 C51_4 1_555 1_555
C52_4 C51_4 1_555 1_555
C55_4 C52_4 1_555 1_555
H41_4 C55_4 1_555 1_555
C56_4 C57_4 1_555 1_555
C57_4 H42_4 1_555 1_555
C58_4 C57_4 1_555 1_555
H43_4 C58_4 1_555 1_555
C59_4 C58_4 1_555 1_555
H44_4 C59_4 1_555 1_555
C60_4 C59_4 1_555 1_555
N21_2 C55_4 1_555 1_555
N16_4 C56_4 1_555 1_555
H45_4 N16_4 1_555 1_555
N23_2 C56_4 1_555 1_555
C60_4 N23_2 1_555 1_555
N21_2 N16_4 1_555 1_555
C26_4 C25_4 1_555 1_555
C27_4 C26_4 1_555 1_555
H20_4 C27_4 1_555 1_555
C28_4 C27_4 1_555 1_555
C29_4 C28_4 1_555 1_555
H21_4 C29_4 1_555 1_555
C30_4 C25_4 1_555 1_555
H22_4 C30_4 1_555 1_555
C31_4 C28_4 1_555 1_555
H23_4 C31_4 1_555 1_555
C32_4 C33_4 1_555 1_555
C33_4 H24_4 1_555 1_555
C34_4 C33_4 1_555 1_555
H25_4 C34_4 1_555 1_555
C35_4 C34_4 1_555 1_555
H26_4 C35_4 1_555 1_555
C36_4 C35_4 1_555 1_555
N8_4 C31_4 1_555 1_555
N9_4 C32_4 1_555 1_555
H27_4 N9_4 1_555 1_555
N10_4 C32_4 1_555 1_555
Ag5 N8_4 1_555 1_555
C37_4 C38_4 1_555 1_555
C39_4 C38_4 1_555 1_555
H29_4 C39_4 1_555 1_555
C40_4 C39_4 1_555 1_555
C43_4 C40_4 1_555 1_555
H32_4 C43_4 1_555 1_555
C44_4 C45_4 1_555 1_555
C45_4 H33_4 1_555 1_555
C46_4 C45_4 1_555 1_555
H34_4 C46_4 1_555 1_555
C47_4 C46_4 1_555 1_555
H35_4 C47_4 1_555 1_555
C48_4 C47_4 1_555 1_555
N12_4 Ag1_5 1_555 1_555
N13_4 C44_4 1_555 1_555
H36_4 N13_4 1_555 1_555
N14_4 Ag1_5 1_555 1_555
C29_4 C30_4 1_555 1_555
C36_4 N10_4 1_555 1_555
N8_4 N9_4 1_555 1_555
N10_4 Ag5 1_555 1_555
C43_4 N12_4 1_555 1_555
C44_4 N14_4 1_555 1_555
C48_4 N14_4 1_555 1_555
N12_4 N13_4 1_555 1_555
H12_4 C17_4 1_555 1_555
H13_4 C18_4 1_555 1_555
H30_4 C41_4 1_555 1_555
H31_4 C42_4 1_555 1_555
C17_4 C18_4 1_555 1_555
C41_4 C42_4 1_555 1_555
C62_4 C61_4 1_555 1_555
C63_4 C62_4 1_555 1_555
H47_4 C63_4 1_555 1_555
C64_4 C63_4 1_555 1_555
C67_4 C64_4 1_555 1_555
H50_4 C67_4 1_555 1_555
C68_4 C69_4 1_555 1_555
C69_4 H51_4 1_555 1_555
C70_4 C69_4 1_555 1_555
H52_4 C70_4 1_555 1_555
C71_4 C70_4 1_555 1_555
H53_4 C71_4 1_555 1_555
C72_4 C71_4 1_555 1_555
N22 C67_4 1_555 1_555
N19_4 C68_4 1_555 1_555
H54_4 N19_4 1_555 1_555
N24 C68_4 1_555 1_555
C72_4 N24 1_555 1_555
N22 N19_4 1_555 1_555
H39_4 C53_4 1_555 1_555
H40_4 C54_4 1_555 1_555
C53_4 C54_4 1_555 1_555
Ag1_6 N2_4 1_555 1_555
C1_4 C2_4 1_555 1_555
C3_4 C2_4 1_555 1_555
H2_4 C3_4 1_555 1_555
C4_4 C3_4 1_555 1_555
C7_4 C4_4 1_555 1_555
H5_4 C7_4 1_555 1_555
C8_4 C9_4 1_555 1_555
C9_4 H6_4 1_555 1_555
C10_4 C9_4 1_555 1_555
H7_4 C10_4 1_555 1_555
C11_4 C10_4 1_555 1_555
H8_4 C11_4 1_555 1_555
C12_4 C11_4 1_555 1_555
N2_4 C7_4 1_555 1_555
N3_4 C8_4 1_555 1_555
H9_4 N3_4 1_555 1_555
N4_4 Ag1_6 1_555 1_555
H48_4 C65_4 1_555 1_555
H49_4 C66_4 1_555 1_555
C8_4 N4_4 1_555 1_555
C12_4 N4_4 1_555 1_555
N2_4 N3_4 1_555 1_555
C65_4 C66_4 1_555 1_555
H3_4 C5_4 1_555 1_555
H4_4 C6_4 1_555 1_555
C14_4 C13_4 1_555 1_555
H10_4 C14_4 1_555 1_555
C15_4 C14_4 1_555 1_555
H11_4 C15_4 1_555 1_555
C16_4 C15_4 1_555 1_555
C19_4 C16_4 1_555 1_555
H14_4 C19_4 1_555 1_555
C20_4 C21_4 1_555 1_555
C21_4 H15_4 1_555 1_555
C22_4 C21_4 1_555 1_555
H16_4 C22_4 1_555 1_555
C23_4 C22_4 1_555 1_555
H17_4 C23_4 1_555 1_555
C24_4 C23_4 1_555 1_555
Cl2_4 C24_4 1_555 1_555
N5_4 C19_4 1_555 1_555
N6_4 C20_4 1_555 1_555
H18_4 N6_4 1_555 1_555
N7_4 C20_4 1_555 1_555
Ag4_2 N5_4 1_555 1_555
C5_4 C6_4 1_555 1_555
C24_4 N7_4 1_555 1_555
N5_4 N6_4 1_555 1_555
N7_4 Ag4_2 1_555 1_555
O3 Cl7 1_555 1_555
O4 Cl7 1_555 1_555
Cl7_2 O1 1_555 1_555
O2 Cl7_2 1_555 1_555
Cl7_3 O1_2 1_555 1_555
O2_2 Cl7_3 1_555 1_555
O3_2 Cl7_4 1_555 1_555
O4_2 Cl7_4 1_555 1_555
Cl7_5 O1_3 1_555 1_555
O2_3 Cl7_5 1_555 1_555
O3_3 Cl7_5 1_555 1_555
O4_3 Cl7_5 1_555 1_555
Cl7_6 O1_4 1_555 1_555
O2_4 Cl7_6 1_555 1_555
O3_4 Cl7_6 1_555 1_555
O4_4 Cl7_6 1_555 1_555
O3_5 Cl7_7 1_555 1_555
O4_5 Cl7_7 1_555 1_555
Cl7_8 O1_5 1_555 1_555
O2_5 Cl7_8 1_555 1_555
Cl7_9 O1_6 1_555 1_555
O2_6 Cl7_9 1_555 1_555
O3_6 Cl7_10 1_555 1_555
O4_6 Cl7_10 1_555 1_555
Cl7_11 O1_7 1_555 1_555
O2_7 Cl7_11 1_555 1_555
O3_7 Cl7_11 1_555 1_555
O4_7 Cl7_11 1_555 1_555
Cl7_12 O1_8 1_555 1_555
O2_8 Cl7_12 1_555 1_555
O3_8 Cl7_12 1_555 1_555
O4_8 Cl7_12 1_555 1_555
O3_9 Cl7_13 1_555 1_555
O4_9 Cl7_13 1_555 1_555
Cl7_14 O1_9 1_555 1_555
O2_9 Cl7_14 1_555 1_555
Cl7_15 O1_10 1_555 1_555
O2_10 Cl7_15 1_555 1_555
O3_10 Cl7_16 1_555 1_555
O4_10 Cl7_16 1_555 1_555
Cl7_17 O1_11 1_555 1_555
O2_11 Cl7_17 1_555 1_555
O3_11 Cl7_17 1_555 1_555
O4_11 Cl7_17 1_555 1_555
Cl7_18 O1_12 1_555 1_555
O2_12 Cl7_18 1_555 1_555
O3_12 Cl7_18 1_555 1_555
O4_12 Cl7_18 1_555 1_555

#END
