
###############################################################################
#
# This file contains modified crystal structure data generated from the
# MOF subset of the Cambridge Structural Database (CSD) v543 
# hosted by the Cambridge Crystallographic Data Centre (CCDC).
#
# This work is licensed under the Creative Commons
# Attribution-NonCommercial-ShareAlike 4.0 International License.
# To view a copy of this license, visit
# http://creativecommons.org/licenses/by-nc-sa/4.0/
# or send a letter to
# Creative Commons, PO Box 1866, Mountain View, CA 94042, USA.
#
# CIF created using the CSD Python API on 29 September 2022
# The structure has been converted into the P1 space group
# The structure has a 3D framework
# The original CSD entry KEPFIX05 is in the cubic crystal system
# The original CSD entry KEPFIX05 is in a Sohncke space group
# The framework has been calculated to contain at least 10.0% void space
# The void calculation uses a probe of radius 1.32A, grid spacing 0.4
# The framework is charged, counterions have been retained in the structure
#
###############################################################################

data_KEPFIX05
_chemical_formula_moiety         '(C288 H216 Ag14 Cl42 N80 O48 2+)n'
_symmetry_cell_setting           triclinic
_symmetry_space_group_name_H-M   'P 1'
_symmetry_Int_Tables_number      1
_space_group_name_Hall           'P 1'
loop_
_symmetry_equiv_pos_site_id
_symmetry_equiv_pos_as_xyz
1 x,y,z
_cell_length_a                   21.3847(5)
_cell_length_b                   21.3847(5)
_cell_length_c                   21.3847(5)
_cell_angle_alpha                90
_cell_angle_beta                 90
_cell_angle_gamma                90
_cell_volume                     9779.34
loop_
_atom_site_label
_atom_site_type_symbol
_atom_site_fract_x
_atom_site_fract_y
_atom_site_fract_z
C70 C 0.1725(3) 0.3925(3) 0.0244(3)
H52 H 0.2030 0.4211 0.0380
C71 C 0.1598(3) 0.3409(3) 0.0595(3)
H53 H 0.1816 0.3328 0.0968
C72 C 0.1145(4) 0.3015(3) 0.0386(3)
Cl6 Cl 0.09475(13) 0.23610(11) 0.08230(10)
Ag1 Ag 0.45932(3) 0.5000 0.7500
C1 C 0.2522(2) 0.3289(2) 0.7533(2)
C2 C 0.3163(2) 0.3360(2) 0.7567(3)
H1 H 0.3429 0.3046 0.7411
C3 C 0.3413(2) 0.3897(3) 0.7831(3)
H2 H 0.3849 0.3949 0.7842
C4 C 0.3033(2) 0.4354(2) 0.8075(2)
C5 C 0.2397(3) 0.4272(2) 0.8045(3)
H3 H 0.2134 0.4580 0.8216
C6 C 0.2134(3) 0.3756(3) 0.7774(3)
H4 H 0.1697 0.3716 0.7751
C7 C 0.3272(2) 0.4921(2) 0.8389(2)
H5 H 0.2997 0.5150 0.8644
C8 C 0.4521(3) 0.5941(2) 0.8598(2)
C9 C 0.4689(3) 0.6407(3) 0.9032(3)
H6 H 0.4436 0.6498 0.9380
C10 C 0.5244(3) 0.6725(3) 0.8925(3)
H7 H 0.5380 0.7030 0.9211
C11 C 0.5595(3) 0.6598(3) 0.8409(3)
H8 H 0.5968 0.6816 0.8328
C12 C 0.5386(3) 0.6145(4) 0.8015(3)
Cl1 Cl 0.58230(10) 0.59475(13) 0.73610(11)
N1 N 0.2265(2) 0.2735(2) 0.7265(2)
N2 N 0.38266(19) 0.51127(19) 0.83290(19)
N3 N 0.3981(2) 0.5627(2) 0.8680(2)
H9 H 0.3722 0.5754 0.8966
N4 N 0.4877(2) 0.5807(2) 0.8092(2)
C13 C 0.2533(2) 0.2478(2) 0.6711(2)
C14 C 0.2567(3) 0.1837(2) 0.6640(2)
H10 H 0.2411 0.1571 0.6954
C15 C 0.2831(3) 0.1587(2) 0.6103(3)
H11 H 0.2842 0.1151 0.6051
C16 C 0.3075(2) 0.1967(2) 0.5646(2)
C17 C 0.3045(3) 0.2603(3) 0.5728(2)
H12 H 0.3216 0.2866 0.5420
C18 C 0.2774(3) 0.2866(3) 0.6244(3)
H13 H 0.2751 0.3303 0.6284
C19 C 0.3389(2) 0.1728(2) 0.5079(2)
H14 H 0.3644 0.2003 0.4850
C20 C 0.3598(2) 0.0479(3) 0.4059(2)
C21 C 0.4032(3) 0.0311(3) 0.3593(3)
H15 H 0.4380 0.0564 0.3502
N5 N 0.33290(19) 0.11734(19) 0.48873(19)
N6 N 0.3680(2) 0.1019(2) 0.4373(2)
H18 H 0.3966 0.1278 0.4246
N7 N 0.3092(2) 0.0123(2) 0.4193(2)
C25 C 0.1711(2) 0.2467(2) 0.7522(2)
C26 C 0.1640(2) 0.2433(3) 0.8163(2)
H19 H 0.1954 0.2589 0.8429
C27 C 0.1103(3) 0.2169(3) 0.8413(2)
H20 H 0.1051 0.2158 0.8849
C28 C 0.0646(2) 0.1925(2) 0.8033(2)
C29 C 0.0728(2) 0.1955(3) 0.7397(3)
H21 H 0.0420 0.1784 0.7134
C30 C 0.1244(3) 0.2226(3) 0.7134(3)
H22 H 0.1284 0.2249 0.6697
C31 C 0.0079(2) 0.1611(2) 0.8272(2)
Ag2 Ag 0.2500 0.04068(3) 0.5000
Ag3 Ag 0.0000 0.2500 0.95932(3)
H50 H 0.0150 0.3644 0.7997
C68 C 0.0941(2) 0.3598(2) 0.9521(3)
C69 C 0.1407(3) 0.4032(3) 0.9689(3)
H51 H 0.1498 0.4380 0.9436
N18 N 0.01127(19) 0.33290(19) 0.88266(19)
N19 N 0.0627(2) 0.3680(2) 0.8981(2)
H54 H 0.0754 0.3966 0.8722
N20 N 0.0807(2) 0.3092(2) 0.9877(2)
N21 N 0.38266(19) 0.48873(19) 0.66710(19)
N22 N 0.16710(19) 0.11734(19) 0.51127(19)
N23 N 0.4877(2) 0.4193(2) 0.6908(2)
N24 N 0.1908(2) 0.0123(2) 0.5807(2)
C22 C 0.3925(3) 0.9756(3) 0.3275(3)
H16 H 0.4211 0.9620 0.2970
C23 C 0.3409(3) 0.9405(3) 0.3402(3)
H17 H 0.3328 0.9032 0.3184
C24 C 0.3015(3) 0.9614(3) 0.3855(4)
Cl2 Cl 0.23610(11) 0.91770(10) 0.40525(13)
H23 H 0.9850 0.1356 0.7997
C32 C 0.9059(2) 0.1402(2) 0.9521(3)
C33 C 0.8593(3) 0.0968(3) 0.9689(3)
H24 H 0.8502 0.0620 0.9436
N8 N 0.98873(19) 0.16710(19) 0.88266(19)
N9 N 0.9373(2) 0.1320(2) 0.8981(2)
H27 H 0.9246 0.1034 0.8722
N10 N 0.9193(2) 0.1908(2) 0.9877(2)
Ag3_2 Ag 1.0000 0.2500 0.95932(3)
C37 C 0.7478(2) 0.1711(2) 0.7533(2)
C38 C 0.6837(2) 0.1640(2) 0.7567(3)
H28 H 0.6571 0.1954 0.7411
C39 C 0.6587(2) 0.1103(3) 0.7831(3)
H29 H 0.6151 0.1051 0.7842
C40 C 0.6967(2) 0.0646(2) 0.8075(2)
C41 C 0.7603(3) 0.0728(2) 0.8045(3)
H30 H 0.7866 0.0420 0.8216
C42 C 0.7866(3) 0.1244(3) 0.7774(3)
H31 H 0.8303 0.1284 0.7751
C43 C 0.6728(2) 0.0079(2) 0.8389(2)
N11 N 0.7735(2) 0.2265(2) 0.7265(2)
C49 C 0.7467(2) 0.2522(2) 0.6711(2)
C50 C 0.7433(3) 0.3163(2) 0.6640(2)
H37 H 0.7589 0.3429 0.6954
C51 C 0.7169(3) 0.3413(2) 0.6103(3)
H38 H 0.7158 0.3849 0.6051
C52 C 0.6925(2) 0.3033(2) 0.5646(2)
C53 C 0.6955(3) 0.2397(3) 0.5728(2)
H39 H 0.6784 0.2134 0.5420
C54 C 0.7226(3) 0.2134(3) 0.6244(3)
H40 H 0.7249 0.1697 0.6284
C55 C 0.6611(2) 0.3272(2) 0.5079(2)
H41 H 0.6356 0.2997 0.4850
C56 C 0.6402(2) 0.4521(3) 0.4059(2)
C57 C 0.5968(3) 0.4689(3) 0.3593(3)
H42 H 0.5620 0.4436 0.3502
C58 C 0.6075(3) 0.5244(3) 0.3275(3)
H43 H 0.5789 0.5380 0.2970
C59 C 0.6591(3) 0.5595(3) 0.3402(3)
H44 H 0.6672 0.5968 0.3184
C60 C 0.6985(3) 0.5386(3) 0.3855(4)
Cl5 Cl 0.76390(11) 0.58230(10) 0.40525(13)
N15 N 0.66710(19) 0.38266(19) 0.48873(19)
N16 N 0.6320(2) 0.3981(2) 0.4373(2)
H45 H 0.6034 0.3722 0.4246
N17 N 0.6908(2) 0.4877(2) 0.4193(2)
C61 C 0.8289(2) 0.2533(2) 0.7522(2)
C62 C 0.8360(2) 0.2567(3) 0.8163(2)
H46 H 0.8046 0.2411 0.8429
C63 C 0.8897(3) 0.2831(3) 0.8413(2)
H47 H 0.8949 0.2842 0.8849
C64 C 0.9354(2) 0.3075(2) 0.8033(2)
C65 C 0.9272(2) 0.3045(3) 0.7397(3)
H48 H 0.9580 0.3216 0.7134
C66 C 0.8756(3) 0.2774(3) 0.7134(3)
H49 H 0.8716 0.2751 0.6697
C67 C 0.9921(2) 0.3389(2) 0.8272(2)
Ag4 Ag 0.54068(3) 0.0000 0.7500
Ag5 Ag 0.7500 0.45932(3) 0.5000
H32 H 0.7003 0.9850 0.8644
C44 C 0.5479(3) 0.9059(2) 0.8598(2)
C45 C 0.5311(3) 0.8593(3) 0.9032(3)
H33 H 0.5564 0.8502 0.9380
C46 C 0.4756(3) 0.8275(3) 0.8925(3)
H34 H 0.4620 0.7970 0.9211
C47 C 0.4405(3) 0.8402(3) 0.8409(3)
H35 H 0.4032 0.8184 0.8328
C48 C 0.4614(3) 0.8855(4) 0.8015(3)
Cl4 Cl 0.41770(10) 0.90525(13) 0.73610(11)
N12 N 0.61734(19) 0.98873(19) 0.83290(19)
N13 N 0.6019(2) 0.9373(2) 0.8680(2)
H36 H 0.6278 0.9246 0.8966
N14 N 0.5123(2) 0.9193(2) 0.8092(2)
Ag4_2 Ag 0.54068(3) 1.0000 0.7500
H32_2 H 0.7997 0.0150 0.3644
C44_2 C 0.9521(3) 0.0941(2) 0.3598(2)
C45_2 C 0.9689(3) 0.1407(3) 0.4032(3)
H33_2 H 0.9436 0.1498 0.4380
N12_2 N 0.88266(19) 0.01127(19) 0.33290(19)
N13_2 N 0.8981(2) 0.0627(2) 0.3680(2)
H36_2 H 0.8722 0.0754 0.3966
N14_2 N 0.9877(2) 0.0807(2) 0.3092(2)
Ag4_3 Ag 0.95932(3) -0.0000 0.2500
Ag1_2 Ag 0.04068(3) 0.5000 0.2500
C1_2 C 0.2478(2) 0.6711(2) 0.2533(2)
C2_2 C 0.1837(2) 0.6640(2) 0.2567(3)
H1_2 H 0.1571 0.6954 0.2411
C3_2 C 0.1587(2) 0.6103(3) 0.2831(3)
H2_2 H 0.1151 0.6051 0.2842
C4_2 C 0.1967(2) 0.5646(2) 0.3075(2)
C5_2 C 0.2603(3) 0.5728(2) 0.3045(3)
H3_2 H 0.2866 0.5420 0.3216
C6_2 C 0.2866(3) 0.6244(3) 0.2774(3)
H4_2 H 0.3303 0.6284 0.2751
C7_2 C 0.1728(2) 0.5079(2) 0.3389(2)
H5_2 H 0.2003 0.4850 0.3644
C8_2 C 0.0479(3) 0.4059(2) 0.3598(2)
C9_2 C 0.0311(3) 0.3593(3) 0.4032(3)
H6_2 H 0.0564 0.3502 0.4380
N1_2 N 0.2735(2) 0.7265(2) 0.2265(2)
N2_2 N 0.11734(19) 0.48873(19) 0.33290(19)
N3_2 N 0.1019(2) 0.4373(2) 0.3680(2)
H9_2 H 0.1278 0.4246 0.3966
N4_2 N 0.0123(2) 0.4193(2) 0.3092(2)
C13_2 C 0.2467(2) 0.7522(2) 0.1711(2)
C14_2 C 0.2433(3) 0.8163(2) 0.1640(2)
H10_2 H 0.2589 0.8429 0.1954
C15_2 C 0.2169(3) 0.8413(2) 0.1103(3)
H11_2 H 0.2158 0.8849 0.1051
C16_2 C 0.1925(2) 0.8033(2) 0.0646(2)
C17_2 C 0.1955(3) 0.7397(3) 0.0728(2)
H12_2 H 0.1784 0.7134 0.0420
C18_2 C 0.2226(3) 0.7134(3) 0.1244(3)
H13_2 H 0.2249 0.6697 0.1284
C19_2 C 0.1611(2) 0.8272(2) 0.0079(2)
C25_2 C 0.3289(2) 0.7533(2) 0.2522(2)
C26_2 C 0.3360(2) 0.7567(3) 0.3163(2)
H19_2 H 0.3046 0.7411 0.3429
C27_2 C 0.3897(3) 0.7831(3) 0.3413(2)
H20_2 H 0.3949 0.7842 0.3849
C28_2 C 0.4354(2) 0.8075(2) 0.3033(2)
C29_2 C 0.4272(2) 0.8045(3) 0.2397(3)
H21_2 H 0.4580 0.8216 0.2134
C30_2 C 0.3756(3) 0.7774(3) 0.2134(3)
H22_2 H 0.3716 0.7751 0.1697
C31_2 C 0.4921(2) 0.8389(2) 0.3272(2)
H23_2 H 0.5150 0.8644 0.2997
C32_2 C 0.5941(2) 0.8598(2) 0.4521(3)
C33_2 C 0.6407(3) 0.9032(3) 0.4689(3)
H24_2 H 0.6498 0.9380 0.4436
C34 C 0.6725(3) 0.8925(3) 0.5244(3)
H25 H 0.7030 0.9211 0.5380
C35 C 0.6598(3) 0.8409(3) 0.5595(3)
H26 H 0.6816 0.8328 0.5968
C36 C 0.6145(4) 0.8015(3) 0.5386(3)
Cl3 Cl 0.59475(13) 0.73610(11) 0.58230(10)
N8_2 N 0.51127(19) 0.83290(19) 0.38266(19)
N9_2 N 0.5627(2) 0.8680(2) 0.3981(2)
H27_2 H 0.5754 0.8966 0.3722
N10_2 N 0.5807(2) 0.8092(2) 0.4877(2)
Ag2_2 Ag 0.2500 0.95932(3) 0.0000
Ag3_3 Ag 0.5000 0.7500 0.45932(3)
C37_2 C 0.7522(2) 0.8289(2) 0.2533(2)
C38_2 C 0.8163(2) 0.8360(2) 0.2567(3)
H28_2 H 0.8429 0.8046 0.2411
C39_2 C 0.8413(2) 0.8897(3) 0.2831(3)
H29_2 H 0.8849 0.8949 0.2842
C40_2 C 0.8033(2) 0.9354(2) 0.3075(2)
C41_2 C 0.7397(3) 0.9272(2) 0.3045(3)
H30_2 H 0.7134 0.9580 0.3216
C42_2 C 0.7134(3) 0.8756(3) 0.2774(3)
H31_2 H 0.6697 0.8716 0.2751
C43_2 C 0.8272(2) 0.9921(2) 0.3389(2)
N11_2 N 0.7265(2) 0.7735(2) 0.2265(2)
C49_2 C 0.7533(2) 0.7478(2) 0.1711(2)
C50_2 C 0.7567(3) 0.6837(2) 0.1640(2)
H37_2 H 0.7411 0.6571 0.1954
C51_2 C 0.7831(3) 0.6587(2) 0.1103(3)
H38_2 H 0.7842 0.6151 0.1051
C52_2 C 0.8075(2) 0.6967(2) 0.0646(2)
C53_2 C 0.8045(3) 0.7603(3) 0.0728(2)
H39_2 H 0.8216 0.7866 0.0420
C54_2 C 0.7774(3) 0.7866(3) 0.1244(3)
H40_2 H 0.7751 0.8303 0.1284
C55_2 C 0.8389(2) 0.6728(2) 0.0079(2)
C61_2 C 0.6711(2) 0.7467(2) 0.2522(2)
C62_2 C 0.6640(2) 0.7433(3) 0.3163(2)
H46_2 H 0.6954 0.7589 0.3429
C63_2 C 0.6103(3) 0.7169(3) 0.3413(2)
H47_2 H 0.6051 0.7158 0.3849
C64_2 C 0.5646(2) 0.6925(2) 0.3033(2)
C65_2 C 0.5728(2) 0.6955(3) 0.2397(3)
H48_2 H 0.5420 0.6784 0.2134
C66_2 C 0.6244(3) 0.7226(3) 0.2134(3)
H49_2 H 0.6284 0.7249 0.1697
C67_2 C 0.5079(2) 0.6611(2) 0.3272(2)
H50_2 H 0.4850 0.6356 0.2997
C68_2 C 0.4059(2) 0.6402(2) 0.4521(3)
C69_2 C 0.3593(3) 0.5968(3) 0.4689(3)
H51_2 H 0.3502 0.5620 0.4436
C70_2 C 0.3275(3) 0.6075(3) 0.5244(3)
H52_2 H 0.2970 0.5789 0.5380
C71_2 C 0.3402(3) 0.6591(3) 0.5595(3)
H53_2 H 0.3184 0.6672 0.5968
C72_2 C 0.3855(4) 0.6985(3) 0.5386(3)
Cl6_2 Cl 0.40525(13) 0.76390(11) 0.58230(10)
N18_2 N 0.48873(19) 0.66710(19) 0.38266(19)
N19_2 N 0.4373(2) 0.6320(2) 0.3981(2)
H54_2 H 0.4246 0.6034 0.3722
N20_2 N 0.4193(2) 0.6908(2) 0.4877(2)
Ag4_4 Ag 0.95932(3) 1.0000 0.2500
Ag5_2 Ag 0.7500 0.54068(3) 0.0000
N21_2 N 0.11734(19) 0.51127(19) 0.16710(19)
N22_2 N 0.33290(19) 0.88266(19) 0.01127(19)
N23_2 N 0.0123(2) 0.5807(2) 0.1908(2)
N24_2 N 0.3092(2) 0.9877(2) 0.0807(2)
H14_2 H 0.1356 0.7997 0.9850
C20_2 C 0.1402(2) 0.9521(3) 0.9059(2)
C21_2 C 0.0968(3) 0.9689(3) 0.8593(3)
H15_2 H 0.0620 0.9436 0.8502
N5_2 N 0.16710(19) 0.88266(19) 0.98873(19)
N6_2 N 0.1320(2) 0.8981(2) 0.9373(2)
H18_2 H 0.1034 0.8722 0.9246
N7_2 N 0.1908(2) 0.9877(2) 0.9193(2)
Ag2_3 Ag 0.2500 0.95932(3) 1.0000
H41_2 H 0.8644 0.7003 0.9850
C56_2 C 0.8598(2) 0.5479(3) 0.9059(2)
C57_2 C 0.9032(3) 0.5311(3) 0.8593(3)
H42_2 H 0.9380 0.5564 0.8502
C58_2 C 0.8925(3) 0.4756(3) 0.8275(3)
H43_2 H 0.9211 0.4620 0.7970
C59_2 C 0.8409(3) 0.4405(3) 0.8402(3)
H44_2 H 0.8328 0.4032 0.8184
C60_2 C 0.8015(3) 0.4614(3) 0.8855(4)
Cl5_2 Cl 0.73610(11) 0.41770(10) 0.90525(13)
N15_2 N 0.83290(19) 0.61734(19) 0.98873(19)
N16_2 N 0.8680(2) 0.6019(2) 0.9373(2)
H45_2 H 0.8966 0.6278 0.9246
N17_2 N 0.8092(2) 0.5123(2) 0.9193(2)
Ag5_3 Ag 0.7500 0.54068(3) 1.0000
C10_2 C 0.9756(3) 0.3275(3) 0.3925(3)
H7_2 H 0.9620 0.2970 0.4211
C11_2 C 0.9405(3) 0.3402(3) 0.3409(3)
H8_2 H 0.9032 0.3184 0.3328
C12_2 C 0.9614(3) 0.3855(4) 0.3015(3)
Cl1_2 Cl 0.91770(10) 0.40525(13) 0.23610(11)
H41_3 H 0.3644 0.7997 0.0150
C56_3 C 0.3598(2) 0.9521(3) 0.0941(2)
C57_3 C 0.4032(3) 0.9689(3) 0.1407(3)
H42_3 H 0.4380 0.9436 0.1498
N16_3 N 0.3680(2) 0.8981(2) 0.0627(2)
H45_3 H 0.3966 0.8722 0.0754
H23_3 H 0.0150 0.6356 0.7003
C32_3 C 0.0941(2) 0.6402(2) 0.5479(3)
C33_3 C 0.1407(3) 0.5968(3) 0.5311(3)
H24_3 H 0.1498 0.5620 0.5564
C34_2 C 0.1725(3) 0.6075(3) 0.4756(3)
H25_2 H 0.2030 0.5789 0.4620
C35_2 C 0.1598(3) 0.6591(3) 0.4405(3)
H26_2 H 0.1816 0.6672 0.4032
C36_2 C 0.1145(4) 0.6985(3) 0.4614(3)
Cl3_2 Cl 0.09475(13) 0.76390(11) 0.41770(10)
N8_3 N 0.01127(19) 0.66710(19) 0.61734(19)
N9_3 N 0.0627(2) 0.6320(2) 0.6019(2)
H27_3 H 0.0754 0.6034 0.6278
N10_3 N 0.0807(2) 0.6908(2) 0.5123(2)
Ag3_4 Ag -0.0000 0.7500 0.54068(3)
C37_3 C 0.2522(2) 0.6711(2) 0.7467(2)
C38_3 C 0.3163(2) 0.6640(2) 0.7433(3)
H28_3 H 0.3429 0.6954 0.7589
C39_3 C 0.3413(2) 0.6103(3) 0.7169(3)
H29_3 H 0.3849 0.6051 0.7158
C40_3 C 0.3033(2) 0.5646(2) 0.6925(2)
C41_3 C 0.2397(3) 0.5728(2) 0.6955(3)
H30_3 H 0.2134 0.5420 0.6784
C42_3 C 0.2134(3) 0.6244(3) 0.7226(3)
H31_3 H 0.1697 0.6284 0.7249
C43_3 C 0.3272(2) 0.5079(2) 0.6611(2)
H32_3 H 0.2997 0.4850 0.6356
C44_3 C 0.4521(3) 0.4059(2) 0.6402(2)
C45_3 C 0.4689(3) 0.3593(3) 0.5968(3)
H33_3 H 0.4436 0.3502 0.5620
C46_2 C 0.5244(3) 0.3275(3) 0.6075(3)
H34_2 H 0.5380 0.2970 0.5789
C47_2 C 0.5595(3) 0.3402(3) 0.6591(3)
H35_2 H 0.5968 0.3184 0.6672
C48_2 C 0.5386(3) 0.3855(4) 0.6985(3)
Cl4_2 Cl 0.58230(10) 0.40525(13) 0.76390(11)
N11_3 N 0.2265(2) 0.7265(2) 0.7735(2)
N13_3 N 0.3981(2) 0.4373(2) 0.6320(2)
H36_3 H 0.3722 0.4246 0.6034
C49_3 C 0.2533(2) 0.7522(2) 0.8289(2)
C50_3 C 0.2567(3) 0.8163(2) 0.8360(2)
H37_3 H 0.2411 0.8429 0.8046
C51_3 C 0.2831(3) 0.8413(2) 0.8897(3)
H38_3 H 0.2842 0.8849 0.8949
C52_3 C 0.3075(2) 0.8033(2) 0.9354(2)
C53_3 C 0.3045(3) 0.7397(3) 0.9272(2)
H39_3 H 0.3216 0.7134 0.9580
C54_3 C 0.2774(3) 0.7134(3) 0.8756(3)
H40_3 H 0.2751 0.6697 0.8716
C55_3 C 0.3389(2) 0.8272(2) 0.9921(2)
C61_3 C 0.1711(2) 0.7533(2) 0.7478(2)
C62_3 C 0.1640(2) 0.7567(3) 0.6837(2)
H46_3 H 0.1954 0.7411 0.6571
C63_3 C 0.1103(3) 0.7831(3) 0.6587(2)
H47_3 H 0.1051 0.7842 0.6151
C64_3 C 0.0646(2) 0.8075(2) 0.6967(2)
C65_3 C 0.0728(2) 0.8045(3) 0.7603(3)
H48_3 H 0.0420 0.8216 0.7866
C66_3 C 0.1244(3) 0.7774(3) 0.7866(3)
H49_3 H 0.1284 0.7751 0.8303
C67_3 C 0.0079(2) 0.8389(2) 0.6728(2)
H5_3 H 0.7003 0.0150 0.6356
C8_3 C 0.5479(3) 0.0941(2) 0.6402(2)
C9_3 C 0.5311(3) 0.1407(3) 0.5968(3)
H6_3 H 0.5564 0.1498 0.5620
C10_3 C 0.4756(3) 0.1725(3) 0.6075(3)
H7_3 H 0.4620 0.2030 0.5789
C11_3 C 0.4405(3) 0.1598(3) 0.6591(3)
H8_3 H 0.4032 0.1816 0.6672
C12_3 C 0.4614(3) 0.1145(4) 0.6985(3)
Cl1_3 Cl 0.41770(10) 0.09475(13) 0.76390(11)
N2_3 N 0.61734(19) 0.01127(19) 0.66710(19)
N3_3 N 0.6019(2) 0.0627(2) 0.6320(2)
H9_3 H 0.6278 0.0754 0.6034
N4_3 N 0.5123(2) 0.0807(2) 0.6908(2)
H14_3 H 0.6356 0.7003 0.0150
C20_3 C 0.6402(2) 0.5479(3) 0.0941(2)
C21_3 C 0.5968(3) 0.5311(3) 0.1407(3)
H15_3 H 0.5620 0.5564 0.1498
C22_2 C 0.6075(3) 0.4756(3) 0.1725(3)
H16_2 H 0.5789 0.4620 0.2030
C23_2 C 0.6591(3) 0.4405(3) 0.1598(3)
H17_2 H 0.6672 0.4032 0.1816
C24_2 C 0.6985(3) 0.4614(3) 0.1145(4)
Cl2_2 Cl 0.76390(11) 0.41770(10) 0.09475(13)
N5_3 N 0.66710(19) 0.61734(19) 0.01127(19)
N6_3 N 0.6320(2) 0.6019(2) 0.0627(2)
H18_3 H 0.6034 0.6278 0.0754
N7_3 N 0.6908(2) 0.5123(2) 0.0807(2)
C1_3 C 0.7478(2) 0.8289(2) 0.7467(2)
C2_3 C 0.6837(2) 0.8360(2) 0.7433(3)
H1_3 H 0.6571 0.8046 0.7589
C3_3 C 0.6587(2) 0.8897(3) 0.7169(3)
H2_3 H 0.6151 0.8949 0.7158
C4_3 C 0.6967(2) 0.9354(2) 0.6925(2)
C5_3 C 0.7603(3) 0.9272(2) 0.6955(3)
H3_3 H 0.7866 0.9580 0.6784
C6_3 C 0.7866(3) 0.8756(3) 0.7226(3)
H4_3 H 0.8303 0.8716 0.7249
C7_3 C 0.6728(2) 0.9921(2) 0.6611(2)
N1_3 N 0.7735(2) 0.7735(2) 0.7735(2)
C13_3 C 0.7467(2) 0.7478(2) 0.8289(2)
C14_3 C 0.7433(3) 0.6837(2) 0.8360(2)
H10_3 H 0.7589 0.6571 0.8046
C15_3 C 0.7169(3) 0.6587(2) 0.8897(3)
H11_3 H 0.7158 0.6151 0.8949
C16_3 C 0.6925(2) 0.6967(2) 0.9354(2)
C17_3 C 0.6955(3) 0.7603(3) 0.9272(2)
H12_3 H 0.6784 0.7866 0.9580
C18_3 C 0.7226(3) 0.7866(3) 0.8756(3)
H13_3 H 0.7249 0.8303 0.8716
C19_3 C 0.6611(2) 0.6728(2) 0.9921(2)
C25_3 C 0.8289(2) 0.7467(2) 0.7478(2)
C26_3 C 0.8360(2) 0.7433(3) 0.6837(2)
H19_3 H 0.8046 0.7589 0.6571
C27_3 C 0.8897(3) 0.7169(3) 0.6587(2)
H20_3 H 0.8949 0.7158 0.6151
C28_3 C 0.9354(2) 0.6925(2) 0.6967(2)
C29_3 C 0.9272(2) 0.6955(3) 0.7603(3)
H21_3 H 0.9580 0.6784 0.7866
C30_3 C 0.8756(3) 0.7226(3) 0.7866(3)
H22_3 H 0.8716 0.7249 0.8303
C31_3 C 0.9921(2) 0.6611(2) 0.6728(2)
Ag3_5 Ag 1.0000 0.7500 0.54068(3)
H50_3 H 0.9850 0.8644 0.7003
C68_3 C 0.9059(2) 0.8598(2) 0.5479(3)
C69_3 C 0.8593(3) 0.9032(3) 0.5311(3)
H51_3 H 0.8502 0.9380 0.5564
C70_3 C 0.8275(3) 0.8925(3) 0.4756(3)
H52_3 H 0.7970 0.9211 0.4620
C71_3 C 0.8402(3) 0.8409(3) 0.4405(3)
H53_3 H 0.8184 0.8328 0.4032
C72_3 C 0.8855(4) 0.8015(3) 0.4614(3)
Cl6_3 Cl 0.90525(13) 0.73610(11) 0.41770(10)
N18_3 N 0.98873(19) 0.83290(19) 0.61734(19)
N19_3 N 0.9373(2) 0.8680(2) 0.6019(2)
H54_3 H 0.9246 0.8966 0.6278
N20_3 N 0.9193(2) 0.8092(2) 0.5123(2)
C1_4 C 0.7522(2) 0.1711(2) 0.2467(2)
C2_4 C 0.8163(2) 0.1640(2) 0.2433(3)
H1_4 H 0.8429 0.1954 0.2589
C3_4 C 0.8413(2) 0.1103(3) 0.2169(3)
H2_4 H 0.8849 0.1051 0.2158
C4_4 C 0.8033(2) 0.0646(2) 0.1925(2)
C5_4 C 0.7397(3) 0.0728(2) 0.1955(3)
H3_4 H 0.7134 0.0420 0.1784
C6_4 C 0.7134(3) 0.1244(3) 0.2226(3)
H4_4 H 0.6697 0.1284 0.2249
C7_4 C 0.8272(2) 0.0079(2) 0.1611(2)
N1_4 N 0.7265(2) 0.2265(2) 0.2735(2)
C13_4 C 0.7533(2) 0.2522(2) 0.3289(2)
C14_4 C 0.7567(3) 0.3163(2) 0.3360(2)
H10_4 H 0.7411 0.3429 0.3046
C15_4 C 0.7831(3) 0.3413(2) 0.3897(3)
H11_4 H 0.7842 0.3849 0.3949
C16_4 C 0.8075(2) 0.3033(2) 0.4354(2)
C17_4 C 0.8045(3) 0.2397(3) 0.4272(2)
H12_4 H 0.8216 0.2134 0.4580
C18_4 C 0.7774(3) 0.2134(3) 0.3756(3)
H13_4 H 0.7751 0.1697 0.3716
C19_4 C 0.8389(2) 0.3272(2) 0.4921(2)
H14_4 H 0.8644 0.2997 0.5150
C20_4 C 0.8598(2) 0.4521(3) 0.5941(2)
C21_4 C 0.9032(3) 0.4689(3) 0.6407(3)
H15_4 H 0.9380 0.4436 0.6498
C22_3 C 0.8925(3) 0.5244(3) 0.6725(3)
H16_3 H 0.9211 0.5380 0.7030
C23_3 C 0.8409(3) 0.5595(3) 0.6598(3)
H17_3 H 0.8328 0.5968 0.6816
C24_3 C 0.8015(3) 0.5386(3) 0.6145(4)
Cl2_3 Cl 0.73610(11) 0.58230(10) 0.59475(13)
N5_4 N 0.83290(19) 0.38266(19) 0.51127(19)
N6_4 N 0.8680(2) 0.3981(2) 0.5627(2)
H18_4 H 0.8966 0.3722 0.5754
N7_4 N 0.8092(2) 0.4877(2) 0.5807(2)
C25_4 C 0.6711(2) 0.2533(2) 0.2478(2)
C26_4 C 0.6640(2) 0.2567(3) 0.1837(2)
H19_4 H 0.6954 0.2411 0.1571
C27_4 C 0.6103(3) 0.2831(3) 0.1587(2)
H20_4 H 0.6051 0.2842 0.1151
C28_4 C 0.5646(2) 0.3075(2) 0.1967(2)
C29_4 C 0.5728(2) 0.3045(3) 0.2603(3)
H21_4 H 0.5420 0.3216 0.2866
C30_4 C 0.6244(3) 0.2774(3) 0.2866(3)
H22_4 H 0.6284 0.2751 0.3303
C31_4 C 0.5079(2) 0.3389(2) 0.1728(2)
H23_4 H 0.4850 0.3644 0.2003
C32_4 C 0.4059(2) 0.3598(2) 0.0479(3)
C33_4 C 0.3593(3) 0.4032(3) 0.0311(3)
H24_4 H 0.3502 0.4380 0.0564
N8_4 N 0.48873(19) 0.33290(19) 0.11734(19)
N9_4 N 0.4373(2) 0.3680(2) 0.1019(2)
H27_4 H 0.4246 0.3966 0.1278
N10_4 N 0.4193(2) 0.3092(2) 0.0123(2)
Ag3_6 Ag 0.5000 0.2500 0.04068(3)
C37_4 C 0.2478(2) 0.3289(2) 0.2467(2)
C38_4 C 0.1837(2) 0.3360(2) 0.2433(3)
H28_4 H 0.1571 0.3046 0.2589
C39_4 C 0.1587(2) 0.3897(3) 0.2169(3)
H29_4 H 0.1151 0.3949 0.2158
C40_4 C 0.1967(2) 0.4354(2) 0.1925(2)
C41_4 C 0.2603(3) 0.4272(2) 0.1955(3)
H30_4 H 0.2866 0.4580 0.1784
C42_4 C 0.2866(3) 0.3756(3) 0.2226(3)
H31_4 H 0.3303 0.3716 0.2249
C43_4 C 0.1728(2) 0.4921(2) 0.1611(2)
H32_4 H 0.2003 0.5150 0.1356
C44_4 C 0.0479(3) 0.5941(2) 0.1402(2)
C45_4 C 0.0311(3) 0.6407(3) 0.0968(3)
H33_4 H 0.0564 0.6498 0.0620
N11_4 N 0.2735(2) 0.2735(2) 0.2735(2)
N13_4 N 0.1019(2) 0.5627(2) 0.1320(2)
H36_4 H 0.1278 0.5754 0.1034
C49_4 C 0.2467(2) 0.2478(2) 0.3289(2)
C50_4 C 0.2433(3) 0.1837(2) 0.3360(2)
H37_4 H 0.2589 0.1571 0.3046
C51_4 C 0.2169(3) 0.1587(2) 0.3897(3)
H38_4 H 0.2158 0.1151 0.3949
C52_4 C 0.1925(2) 0.1967(2) 0.4354(2)
C53_4 C 0.1955(3) 0.2603(3) 0.4272(2)
H39_4 H 0.1784 0.2866 0.4580
C54_4 C 0.2226(3) 0.2866(3) 0.3756(3)
H40_4 H 0.2249 0.3303 0.3716
C55_4 C 0.1611(2) 0.1728(2) 0.4921(2)
H41_4 H 0.1356 0.2003 0.5150
C56_4 C 0.1402(2) 0.0479(3) 0.5941(2)
C57_4 C 0.0968(3) 0.0311(3) 0.6407(3)
H42_4 H 0.0620 0.0564 0.6498
N16_4 N 0.1320(2) 0.1019(2) 0.5627(2)
H45_4 H 0.1034 0.1278 0.5754
C61_4 C 0.3289(2) 0.2467(2) 0.2478(2)
C62_4 C 0.3360(2) 0.2433(3) 0.1837(2)
H46_4 H 0.3046 0.2589 0.1571
C63_4 C 0.3897(3) 0.2169(3) 0.1587(2)
H47_4 H 0.3949 0.2158 0.1151
C64_4 C 0.4354(2) 0.1925(2) 0.1967(2)
C65_4 C 0.4272(2) 0.1955(3) 0.2603(3)
H48_4 H 0.4580 0.1784 0.2866
C66_4 C 0.3756(3) 0.2226(3) 0.2866(3)
H49_4 H 0.3716 0.2249 0.3303
C67_4 C 0.4921(2) 0.1611(2) 0.1728(2)
H50_4 H 0.5150 0.1356 0.2003
C68_4 C 0.5941(2) 0.1402(2) 0.0479(3)
C69_4 C 0.6407(3) 0.0968(3) 0.0311(3)
H51_4 H 0.6498 0.0620 0.0564
N18_4 N 0.51127(19) 0.16710(19) 0.11734(19)
N19_4 N 0.5627(2) 0.1320(2) 0.1019(2)
H54_4 H 0.5754 0.1034 0.1278
N20_4 N 0.5807(2) 0.1908(2) 0.0123(2)
C34_3 C 0.3275(3) 0.3925(3) 0.9756(3)
H25_3 H 0.2970 0.4211 0.9620
C35_3 C 0.3402(3) 0.3409(3) 0.9405(3)
H26_3 H 0.3184 0.3328 0.9032
C36_3 C 0.3855(4) 0.3015(3) 0.9614(3)
Cl3_3 Cl 0.40525(13) 0.23610(11) 0.91770(10)
C70_4 C 0.6725(3) 0.1075(3) 0.9756(3)
H52_4 H 0.7030 0.0789 0.9620
C71_4 C 0.6598(3) 0.1591(3) 0.9405(3)
H53_4 H 0.6816 0.1672 0.9032
C72_4 C 0.6145(4) 0.1985(3) 0.9614(3)
Cl6_4 Cl 0.59475(13) 0.26390(11) 0.91770(10)
H5_4 H 0.7997 0.9850 0.1356
C8_4 C 0.9521(3) 0.9059(2) 0.1402(2)
C9_4 C 0.9689(3) 0.8593(3) 0.0968(3)
H6_4 H 0.9436 0.8502 0.0620
N2_4 N 0.88266(19) 0.98873(19) 0.16710(19)
N3_4 N 0.8981(2) 0.9373(2) 0.1320(2)
H9_4 H 0.8722 0.9246 0.1034
N4_4 N 0.9877(2) 0.9193(2) 0.1908(2)
C58_3 C 0.1075(3) 0.9756(3) 0.6725(3)
H43_3 H 0.0789 0.9620 0.7030
C59_3 C 0.1591(3) 0.9405(3) 0.6598(3)
H44_3 H 0.1672 0.9032 0.6816
C60_3 C 0.1985(3) 0.9614(3) 0.6145(4)
Cl5_3 Cl 0.26390(11) 0.91770(10) 0.59475(13)
C46_3 C 0.9756(3) 0.6725(3) 0.1075(3)
H34_3 H 0.9620 0.7030 0.0789
C47_3 C 0.9405(3) 0.6598(3) 0.1591(3)
H35_3 H 0.9032 0.6816 0.1672
C48_3 C 0.9614(3) 0.6145(4) 0.1985(3)
Cl4_3 Cl 0.91770(10) 0.59475(13) 0.26390(11)
C34_4 C 0.8275(3) 0.1075(3) 0.0244(3)
H25_4 H 0.7970 0.0789 0.0380
C35_4 C 0.8402(3) 0.1591(3) 0.0595(3)
H26_4 H 0.8184 0.1672 0.0968
C36_4 C 0.8855(4) 0.1985(3) 0.0386(3)
Cl3_4 Cl 0.90525(13) 0.26390(11) 0.08230(10)
C46_4 C 0.0244(3) 0.1725(3) 0.3925(3)
H34_4 H 0.0380 0.2030 0.4211
C47_4 C 0.0595(3) 0.1598(3) 0.3409(3)
H35_4 H 0.0968 0.1816 0.3328
C48_4 C 0.0386(3) 0.1145(4) 0.3015(3)
Cl4_4 Cl 0.08230(10) 0.09475(13) 0.23610(11)
C22_4 C 0.1075(3) 0.0244(3) 0.8275(3)
H16_4 H 0.0789 0.0380 0.7970
C23_4 C 0.1591(3) 0.0595(3) 0.8402(3)
H17_4 H 0.1672 0.0968 0.8184
C24_4 C 0.1985(3) 0.0386(3) 0.8855(4)
Cl2_4 Cl 0.26390(11) 0.08230(10) 0.90525(13)
C58_4 C 0.3925(3) 0.0244(3) 0.1725(3)
H43_4 H 0.4211 0.0380 0.2030
C59_4 C 0.3409(3) 0.0595(3) 0.1598(3)
H44_4 H 0.3328 0.0968 0.1816
C60_4 C 0.3015(3) 0.0386(3) 0.1145(4)
Cl5_4 Cl 0.23610(11) 0.08230(10) 0.09475(13)
C10_4 C 0.0244(3) 0.8275(3) 0.1075(3)
H7_4 H 0.0380 0.7970 0.0789
C11_4 C 0.0595(3) 0.8402(3) 0.1591(3)
H8_4 H 0.0968 0.8184 0.1672
C12_4 C 0.0386(3) 0.8855(4) 0.1985(3)
Cl1_4 Cl 0.08230(10) 0.90525(13) 0.26390(11)
Cl7 Cl 0.5000 0.7500 0.06143(8)
O1 O 0.5495(2) 0.7737(2) 0.0235(2)
O2 O 0.4758(2) 0.7993(2) 0.0986(2)
O3 O 0.4505(2) 0.7263(2) 0.0235(2)
O4 O 0.5242(2) 0.7007(2) 0.0986(2)
Cl7_2 Cl -0.0000 0.2500 0.56143(8)
O2_2 O 0.0242(2) 0.2007(2) 0.5986(2)
O3_2 O 0.0495(2) 0.2737(2) 0.5235(2)
Cl7_3 Cl 1.0000 0.2500 0.56143(8)
O1_2 O 0.9505(2) 0.2263(2) 0.5235(2)
O4_2 O 0.9758(2) 0.2993(2) 0.5986(2)
Cl7_4 Cl 0.5000 0.2500 0.43857(8)
O1_3 O 0.4505(2) 0.2737(2) 0.4765(2)
O2_3 O 0.5242(2) 0.2993(2) 0.4014(2)
O3_3 O 0.5495(2) 0.2263(2) 0.4765(2)
O4_3 O 0.4758(2) 0.2007(2) 0.4014(2)
Cl7_5 Cl 0.0000 0.7500 0.93857(8)
O1_4 O 0.0495(2) 0.7263(2) 0.9765(2)
O4_4 O 0.0242(2) 0.7993(2) 0.9014(2)
Cl7_6 Cl 1.0000 0.7500 0.93857(8)
O2_4 O 0.9758(2) 0.7007(2) 0.9014(2)
O3_4 O 0.9505(2) 0.7737(2) 0.9765(2)
Cl7_7 Cl 0.06143(8) 0.5000 0.7500
O1_5 O 0.0235(2) 0.5495(2) 0.7737(2)
O2_5 O 0.0986(2) 0.4758(2) 0.7993(2)
O3_5 O 0.0235(2) 0.4505(2) 0.7263(2)
O4_5 O 0.0986(2) 0.5242(2) 0.7007(2)
Cl7_8 Cl 0.56143(8) -0.0000 0.2500
O2_6 O 0.5986(2) 0.0242(2) 0.2007(2)
O3_6 O 0.5235(2) 0.0495(2) 0.2737(2)
Cl7_9 Cl 0.56143(8) 1.0000 0.2500
O1_6 O 0.5235(2) 0.9505(2) 0.2263(2)
O4_6 O 0.5986(2) 0.9758(2) 0.2993(2)
Cl7_10 Cl 0.43857(8) 0.5000 0.2500
O1_7 O 0.4765(2) 0.4505(2) 0.2737(2)
O2_7 O 0.4014(2) 0.5242(2) 0.2993(2)
O3_7 O 0.4765(2) 0.5495(2) 0.2263(2)
O4_7 O 0.4014(2) 0.4758(2) 0.2007(2)
Cl7_11 Cl 0.93857(8) 0.0000 0.7500
O1_8 O 0.9765(2) 0.0495(2) 0.7263(2)
O4_8 O 0.9014(2) 0.0242(2) 0.7993(2)
Cl7_12 Cl 0.93857(8) 1.0000 0.7500
O2_8 O 0.9014(2) 0.9758(2) 0.7007(2)
O3_8 O 0.9765(2) 0.9505(2) 0.7737(2)
Cl7_13 Cl 0.7500 0.06143(8) 0.5000
O1_9 O 0.7737(2) 0.0235(2) 0.5495(2)
O2_9 O 0.7993(2) 0.0986(2) 0.4758(2)
O3_9 O 0.7263(2) 0.0235(2) 0.4505(2)
O4_9 O 0.7007(2) 0.0986(2) 0.5242(2)
Cl7_14 Cl 0.2500 0.56143(8) -0.0000
O2_10 O 0.2007(2) 0.5986(2) 0.0242(2)
O3_10 O 0.2737(2) 0.5235(2) 0.0495(2)
Cl7_15 Cl 0.2500 0.56143(8) 1.0000
O1_10 O 0.2263(2) 0.5235(2) 0.9505(2)
O4_10 O 0.2993(2) 0.5986(2) 0.9758(2)
Cl7_16 Cl 0.2500 0.43857(8) 0.5000
O1_11 O 0.2737(2) 0.4765(2) 0.4505(2)
O2_11 O 0.2993(2) 0.4014(2) 0.5242(2)
O3_11 O 0.2263(2) 0.4765(2) 0.5495(2)
O4_11 O 0.2007(2) 0.4014(2) 0.4758(2)
Cl7_17 Cl 0.7500 0.93857(8) 0.0000
O1_12 O 0.7263(2) 0.9765(2) 0.0495(2)
O4_12 O 0.7993(2) 0.9014(2) 0.0242(2)
Cl7_18 Cl 0.7500 0.93857(8) 1.0000
O2_12 O 0.7007(2) 0.9014(2) 0.9758(2)
O3_12 O 0.7737(2) 0.9765(2) 0.9505(2)
loop_
_geom_bond_atom_site_label_1
_geom_bond_atom_site_label_2
_geom_bond_site_symmetry_1
_geom_bond_site_symmetry_2
H52 C70 1_555 1_555
C71 C70 1_555 1_555
H53 C71 1_555 1_555
C72 C71 1_555 1_555
Cl6 C72 1_555 1_555
Ag1 N2 1_555 1_555
C1 C2 1_555 1_555
C2 H1 1_555 1_555
C3 C2 1_555 1_555
H2 C3 1_555 1_555
C4 C3 1_555 1_555
C5 C4 1_555 1_555
H3 C5 1_555 1_555
C6 C1 1_555 1_555
H4 C6 1_555 1_555
C7 C4 1_555 1_555
H5 C7 1_555 1_555
C8 C9 1_555 1_555
C9 H6 1_555 1_555
C10 C9 1_555 1_555
H7 C10 1_555 1_555
C11 C10 1_555 1_555
H8 C11 1_555 1_555
C12 C11 1_555 1_555
Cl1 C12 1_555 1_555
N1 C1 1_555 1_555
N2 C7 1_555 1_555
N3 C8 1_555 1_555
H9 N3 1_555 1_555
N4 Ag1 1_555 1_555
C13 N1 1_555 1_555
C14 C13 1_555 1_555
H10 C14 1_555 1_555
C15 C14 1_555 1_555
H11 C15 1_555 1_555
C16 C15 1_555 1_555
C17 C16 1_555 1_555
H12 C17 1_555 1_555
C18 C13 1_555 1_555
H13 C18 1_555 1_555
C19 C16 1_555 1_555
H14 C19 1_555 1_555
C20 C21 1_555 1_555
C21 H15 1_555 1_555
N5 C19 1_555 1_555
N6 C20 1_555 1_555
H18 N6 1_555 1_555
N7 C20 1_555 1_555
C25 N1 1_555 1_555
C26 C25 1_555 1_555
H19 C26 1_555 1_555
C27 C26 1_555 1_555
H20 C27 1_555 1_555
C28 C27 1_555 1_555
C29 C28 1_555 1_555
H21 C29 1_555 1_555
C30 C25 1_555 1_555
H22 C30 1_555 1_555
C31 C28 1_555 1_555
Ag2 N5 1_555 1_555
C68 C69 1_555 1_555
C69 H51 1_555 1_555
N18 Ag3 1_555 1_555
N19 C68 1_555 1_555
H54 N19 1_555 1_555
N20 Ag3 1_555 1_555
N21 Ag1 1_555 1_555
N22 Ag2 1_555 1_555
N23 Ag1 1_555 1_555
N24 Ag2 1_555 1_555
C5 C6 1_555 1_555
C8 N4 1_555 1_555
C12 N4 1_555 1_555
N2 N3 1_555 1_555
C17 C18 1_555 1_555
N5 N6 1_555 1_555
N7 Ag2 1_555 1_555
C29 C30 1_555 1_555
C68 N20 1_555 1_555
N18 N19 1_555 1_555
H16 C22 1_555 1_555
C23 C22 1_555 1_555
H17 C23 1_555 1_555
C24 C23 1_555 1_555
Cl2 C24 1_555 1_555
C32 C33 1_555 1_555
C33 H24 1_555 1_555
N9 C32 1_555 1_555
H27 N9 1_555 1_555
N10 C32 1_555 1_555
Ag3_2 N8 1_555 1_555
C37 C38 1_555 1_555
C38 H28 1_555 1_555
C39 C38 1_555 1_555
H29 C39 1_555 1_555
C40 C39 1_555 1_555
C41 C40 1_555 1_555
H30 C41 1_555 1_555
C42 C37 1_555 1_555
H31 C42 1_555 1_555
C43 C40 1_555 1_555
N11 C37 1_555 1_555
C49 N11 1_555 1_555
C50 C49 1_555 1_555
H37 C50 1_555 1_555
C51 C50 1_555 1_555
H38 C51 1_555 1_555
C52 C51 1_555 1_555
C53 C52 1_555 1_555
H39 C53 1_555 1_555
C54 C49 1_555 1_555
H40 C54 1_555 1_555
C55 C52 1_555 1_555
H41 C55 1_555 1_555
C56 C57 1_555 1_555
C57 H42 1_555 1_555
C58 C57 1_555 1_555
H43 C58 1_555 1_555
C59 C58 1_555 1_555
H44 C59 1_555 1_555
C60 C59 1_555 1_555
Cl5 C60 1_555 1_555
N15 C55 1_555 1_555
N16 C56 1_555 1_555
H45 N16 1_555 1_555
N17 C56 1_555 1_555
C61 N11 1_555 1_555
C62 C61 1_555 1_555
H46 C62 1_555 1_555
C63 C62 1_555 1_555
H47 C63 1_555 1_555
C64 C63 1_555 1_555
C65 C64 1_555 1_555
H48 C65 1_555 1_555
C66 C61 1_555 1_555
H49 C66 1_555 1_555
C67 C64 1_555 1_555
Ag5 N15 1_555 1_555
N8 N9 1_555 1_555
N10 Ag3_2 1_555 1_555
C41 C42 1_555 1_555
C53 C54 1_555 1_555
C60 N17 1_555 1_555
N15 N16 1_555 1_555
N17 Ag5 1_555 1_555
C65 C66 1_555 1_555
C44 C45 1_555 1_555
C45 H33 1_555 1_555
C46 C45 1_555 1_555
H34 C46 1_555 1_555
C47 C46 1_555 1_555
H35 C47 1_555 1_555
C48 C47 1_555 1_555
Cl4 C48 1_555 1_555
N13 C44 1_555 1_555
H36 N13 1_555 1_555
N14 C44 1_555 1_555
Ag4_2 N12 1_555 1_555
C48 N14 1_555 1_555
N12 N13 1_555 1_555
N14 Ag4_2 1_555 1_555
C44_2 C45_2 1_555 1_555
C45_2 H33_2 1_555 1_555
N13_2 C44_2 1_555 1_555
H36_2 N13_2 1_555 1_555
N14_2 C44_2 1_555 1_555
Ag4_3 N12_2 1_555 1_555
N12_2 N13_2 1_555 1_555
N14_2 Ag4_3 1_555 1_555
Ag1_2 N2_2 1_555 1_555
C1_2 C2_2 1_555 1_555
C2_2 H1_2 1_555 1_555
C3_2 C2_2 1_555 1_555
H2_2 C3_2 1_555 1_555
C4_2 C3_2 1_555 1_555
C5_2 C4_2 1_555 1_555
H3_2 C5_2 1_555 1_555
C6_2 C1_2 1_555 1_555
H4_2 C6_2 1_555 1_555
C7_2 C4_2 1_555 1_555
H5_2 C7_2 1_555 1_555
C8_2 C9_2 1_555 1_555
C9_2 H6_2 1_555 1_555
N1_2 C1_2 1_555 1_555
N2_2 C7_2 1_555 1_555
N3_2 C8_2 1_555 1_555
H9_2 N3_2 1_555 1_555
N4_2 Ag1_2 1_555 1_555
C13_2 N1_2 1_555 1_555
C14_2 C13_2 1_555 1_555
H10_2 C14_2 1_555 1_555
C15_2 C14_2 1_555 1_555
H11_2 C15_2 1_555 1_555
C16_2 C15_2 1_555 1_555
C17_2 C16_2 1_555 1_555
H12_2 C17_2 1_555 1_555
C18_2 C13_2 1_555 1_555
H13_2 C18_2 1_555 1_555
C19_2 C16_2 1_555 1_555
C25_2 N1_2 1_555 1_555
C26_2 C25_2 1_555 1_555
H19_2 C26_2 1_555 1_555
C27_2 C26_2 1_555 1_555
H20_2 C27_2 1_555 1_555
C28_2 C27_2 1_555 1_555
C29_2 C28_2 1_555 1_555
H21_2 C29_2 1_555 1_555
C30_2 C25_2 1_555 1_555
H22_2 C30_2 1_555 1_555
C31_2 C28_2 1_555 1_555
H23_2 C31_2 1_555 1_555
C32_2 C33_2 1_555 1_555
C33_2 H24_2 1_555 1_555
C34 C33_2 1_555 1_555
H25 C34 1_555 1_555
C35 C34 1_555 1_555
H26 C35 1_555 1_555
C36 C35 1_555 1_555
Cl3 C36 1_555 1_555
N8_2 C31_2 1_555 1_555
N9_2 C32_2 1_555 1_555
H27_2 N9_2 1_555 1_555
N10_2 C32_2 1_555 1_555
Ag3_3 N8_2 1_555 1_555
C37_2 C38_2 1_555 1_555
C38_2 H28_2 1_555 1_555
C39_2 C38_2 1_555 1_555
H29_2 C39_2 1_555 1_555
C40_2 C39_2 1_555 1_555
C41_2 C40_2 1_555 1_555
H30_2 C41_2 1_555 1_555
C42_2 C37_2 1_555 1_555
H31_2 C42_2 1_555 1_555
C43_2 C40_2 1_555 1_555
N11_2 C37_2 1_555 1_555
C49_2 N11_2 1_555 1_555
C50_2 C49_2 1_555 1_555
H37_2 C50_2 1_555 1_555
C51_2 C50_2 1_555 1_555
H38_2 C51_2 1_555 1_555
C52_2 C51_2 1_555 1_555
C53_2 C52_2 1_555 1_555
H39_2 C53_2 1_555 1_555
C54_2 C49_2 1_555 1_555
H40_2 C54_2 1_555 1_555
C55_2 C52_2 1_555 1_555
C61_2 N11_2 1_555 1_555
C62_2 C61_2 1_555 1_555
H46_2 C62_2 1_555 1_555
C63_2 C62_2 1_555 1_555
H47_2 C63_2 1_555 1_555
C64_2 C63_2 1_555 1_555
C65_2 C64_2 1_555 1_555
H48_2 C65_2 1_555 1_555
C66_2 C61_2 1_555 1_555
H49_2 C66_2 1_555 1_555
C67_2 C64_2 1_555 1_555
H50_2 C67_2 1_555 1_555
C68_2 C69_2 1_555 1_555
C69_2 H51_2 1_555 1_555
C70_2 C69_2 1_555 1_555
H52_2 C70_2 1_555 1_555
C71_2 C70_2 1_555 1_555
H53_2 C71_2 1_555 1_555
C72_2 C71_2 1_555 1_555
Cl6_2 C72_2 1_555 1_555
N18_2 Ag3_3 1_555 1_555
N19_2 C68_2 1_555 1_555
H54_2 N19_2 1_555 1_555
N20_2 Ag3_3 1_555 1_555
N21_2 Ag1_2 1_555 1_555
N22_2 Ag2_2 1_555 1_555
N23_2 Ag1_2 1_555 1_555
N24_2 Ag2_2 1_555 1_555
C5_2 C6_2 1_555 1_555
C8_2 N4_2 1_555 1_555
N2_2 N3_2 1_555 1_555
C17_2 C18_2 1_555 1_555
C29_2 C30_2 1_555 1_555
C36 N10_2 1_555 1_555
N8_2 N9_2 1_555 1_555
N10_2 Ag3_3 1_555 1_555
C41_2 C42_2 1_555 1_555
C53_2 C54_2 1_555 1_555
C65_2 C66_2 1_555 1_555
C67_2 N18_2 1_555 1_555
C68_2 N20_2 1_555 1_555
C72_2 N20_2 1_555 1_555
N18_2 N19_2 1_555 1_555
C20_2 C21_2 1_555 1_555
C21_2 H15_2 1_555 1_555
N6_2 C20_2 1_555 1_555
H18_2 N6_2 1_555 1_555
N7_2 C20_2 1_555 1_555
Ag2_3 N5_2 1_555 1_555
C56_2 C57_2 1_555 1_555
C57_2 H42_2 1_555 1_555
C58_2 C57_2 1_555 1_555
H43_2 C58_2 1_555 1_555
C59_2 C58_2 1_555 1_555
H44_2 C59_2 1_555 1_555
C60_2 C59_2 1_555 1_555
Cl5_2 C60_2 1_555 1_555
N16_2 C56_2 1_555 1_555
H45_2 N16_2 1_555 1_555
N17_2 C56_2 1_555 1_555
Ag5_3 N15_2 1_555 1_555
N5_2 N6_2 1_555 1_555
N7_2 Ag2_3 1_555 1_555
C60_2 N17_2 1_555 1_555
N15_2 N16_2 1_555 1_555
N17_2 Ag5_3 1_555 1_555
H7_2 C10_2 1_555 1_555
C11_2 C10_2 1_555 1_555
H8_2 C11_2 1_555 1_555
C12_2 C11_2 1_555 1_555
Cl1_2 C12_2 1_555 1_555
C56_3 C57_3 1_555 1_555
C57_3 H42_3 1_555 1_555
N16_3 C56_3 1_555 1_555
H45_3 N16_3 1_555 1_555
N24_2 C56_3 1_555 1_555
N22_2 N16_3 1_555 1_555
C32_3 C33_3 1_555 1_555
C33_3 H24_3 1_555 1_555
C34_2 C33_3 1_555 1_555
H25_2 C34_2 1_555 1_555
C35_2 C34_2 1_555 1_555
H26_2 C35_2 1_555 1_555
C36_2 C35_2 1_555 1_555
Cl3_2 C36_2 1_555 1_555
N9_3 C32_3 1_555 1_555
H27_3 N9_3 1_555 1_555
N10_3 C32_3 1_555 1_555
Ag3_4 N8_3 1_555 1_555
C37_3 C38_3 1_555 1_555
C38_3 H28_3 1_555 1_555
C39_3 C38_3 1_555 1_555
H29_3 C39_3 1_555 1_555
C40_3 C39_3 1_555 1_555
C41_3 C40_3 1_555 1_555
H30_3 C41_3 1_555 1_555
C42_3 C37_3 1_555 1_555
H31_3 C42_3 1_555 1_555
C43_3 C40_3 1_555 1_555
H32_3 C43_3 1_555 1_555
C44_3 C45_3 1_555 1_555
C45_3 H33_3 1_555 1_555
C46_2 C45_3 1_555 1_555
H34_2 C46_2 1_555 1_555
C47_2 C46_2 1_555 1_555
H35_2 C47_2 1_555 1_555
C48_2 C47_2 1_555 1_555
Cl4_2 C48_2 1_555 1_555
N11_3 C37_3 1_555 1_555
N21 C43_3 1_555 1_555
N13_3 C44_3 1_555 1_555
H36_3 N13_3 1_555 1_555
N23 C44_3 1_555 1_555
C49_3 N11_3 1_555 1_555
C50_3 C49_3 1_555 1_555
H37_3 C50_3 1_555 1_555
C51_3 C50_3 1_555 1_555
H38_3 C51_3 1_555 1_555
C52_3 C51_3 1_555 1_555
C53_3 C52_3 1_555 1_555
H39_3 C53_3 1_555 1_555
C54_3 C49_3 1_555 1_555
H40_3 C54_3 1_555 1_555
C55_3 C52_3 1_555 1_555
C61_3 N11_3 1_555 1_555
C62_3 C61_3 1_555 1_555
H46_3 C62_3 1_555 1_555
C63_3 C62_3 1_555 1_555
H47_3 C63_3 1_555 1_555
C64_3 C63_3 1_555 1_555
C65_3 C64_3 1_555 1_555
H48_3 C65_3 1_555 1_555
C66_3 C61_3 1_555 1_555
H49_3 C66_3 1_555 1_555
C67_3 C64_3 1_555 1_555
C36_2 N10_3 1_555 1_555
N8_3 N9_3 1_555 1_555
N10_3 Ag3_4 1_555 1_555
C41_3 C42_3 1_555 1_555
C48_2 N23 1_555 1_555
N21 N13_3 1_555 1_555
C53_3 C54_3 1_555 1_555
C65_3 C66_3 1_555 1_555
Ag4 N2_3 1_555 1_555
C8_3 C9_3 1_555 1_555
C9_3 H6_3 1_555 1_555
C10_3 C9_3 1_555 1_555
H7_3 C10_3 1_555 1_555
C11_3 C10_3 1_555 1_555
H8_3 C11_3 1_555 1_555
C12_3 C11_3 1_555 1_555
Cl1_3 C12_3 1_555 1_555
N3_3 C8_3 1_555 1_555
H9_3 N3_3 1_555 1_555
N4_3 Ag4 1_555 1_555
C8_3 N4_3 1_555 1_555
C12_3 N4_3 1_555 1_555
N2_3 N3_3 1_555 1_555
C20_3 C21_3 1_555 1_555
C21_3 H15_3 1_555 1_555
C22_2 C21_3 1_555 1_555
H16_2 C22_2 1_555 1_555
C23_2 C22_2 1_555 1_555
H17_2 C23_2 1_555 1_555
C24_2 C23_2 1_555 1_555
Cl2_2 C24_2 1_555 1_555
N6_3 C20_3 1_555 1_555
H18_3 N6_3 1_555 1_555
N7_3 C20_3 1_555 1_555
Ag5_2 N5_3 1_555 1_555
C24_2 N7_3 1_555 1_555
N5_3 N6_3 1_555 1_555
N7_3 Ag5_2 1_555 1_555
C1_3 C2_3 1_555 1_555
C2_3 H1_3 1_555 1_555
C3_3 C2_3 1_555 1_555
H2_3 C3_3 1_555 1_555
C4_3 C3_3 1_555 1_555
C5_3 C4_3 1_555 1_555
H3_3 C5_3 1_555 1_555
C6_3 C1_3 1_555 1_555
H4_3 C6_3 1_555 1_555
C7_3 C4_3 1_555 1_555
N1_3 C1_3 1_555 1_555
C13_3 N1_3 1_555 1_555
C14_3 C13_3 1_555 1_555
H10_3 C14_3 1_555 1_555
C15_3 C14_3 1_555 1_555
H11_3 C15_3 1_555 1_555
C16_3 C15_3 1_555 1_555
C17_3 C16_3 1_555 1_555
H12_3 C17_3 1_555 1_555
C18_3 C13_3 1_555 1_555
H13_3 C18_3 1_555 1_555
C19_3 C16_3 1_555 1_555
C25_3 N1_3 1_555 1_555
C26_3 C25_3 1_555 1_555
H19_3 C26_3 1_555 1_555
C27_3 C26_3 1_555 1_555
H20_3 C27_3 1_555 1_555
C28_3 C27_3 1_555 1_555
C29_3 C28_3 1_555 1_555
H21_3 C29_3 1_555 1_555
C30_3 C25_3 1_555 1_555
H22_3 C30_3 1_555 1_555
C31_3 C28_3 1_555 1_555
C68_3 C69_3 1_555 1_555
C69_3 H51_3 1_555 1_555
C70_3 C69_3 1_555 1_555
H52_3 C70_3 1_555 1_555
C71_3 C70_3 1_555 1_555
H53_3 C71_3 1_555 1_555
C72_3 C71_3 1_555 1_555
Cl6_3 C72_3 1_555 1_555
N18_3 Ag3_5 1_555 1_555
N19_3 C68_3 1_555 1_555
H54_3 N19_3 1_555 1_555
N20_3 Ag3_5 1_555 1_555
C5_3 C6_3 1_555 1_555
C17_3 C18_3 1_555 1_555
C29_3 C30_3 1_555 1_555
C68_3 N20_3 1_555 1_555
C72_3 N20_3 1_555 1_555
N18_3 N19_3 1_555 1_555
C1_4 C2_4 1_555 1_555
C2_4 H1_4 1_555 1_555
C3_4 C2_4 1_555 1_555
H2_4 C3_4 1_555 1_555
C4_4 C3_4 1_555 1_555
C5_4 C4_4 1_555 1_555
H3_4 C5_4 1_555 1_555
C6_4 C1_4 1_555 1_555
H4_4 C6_4 1_555 1_555
C7_4 C4_4 1_555 1_555
N1_4 C1_4 1_555 1_555
C13_4 N1_4 1_555 1_555
C14_4 C13_4 1_555 1_555
H10_4 C14_4 1_555 1_555
C15_4 C14_4 1_555 1_555
H11_4 C15_4 1_555 1_555
C16_4 C15_4 1_555 1_555
C17_4 C16_4 1_555 1_555
H12_4 C17_4 1_555 1_555
C18_4 C13_4 1_555 1_555
H13_4 C18_4 1_555 1_555
C19_4 C16_4 1_555 1_555
H14_4 C19_4 1_555 1_555
C20_4 C21_4 1_555 1_555
C21_4 H15_4 1_555 1_555
C22_3 C21_4 1_555 1_555
H16_3 C22_3 1_555 1_555
C23_3 C22_3 1_555 1_555
H17_3 C23_3 1_555 1_555
C24_3 C23_3 1_555 1_555
Cl2_3 C24_3 1_555 1_555
N5_4 C19_4 1_555 1_555
N6_4 C20_4 1_555 1_555
H18_4 N6_4 1_555 1_555
N7_4 C20_4 1_555 1_555
C25_4 N1_4 1_555 1_555
C26_4 C25_4 1_555 1_555
H19_4 C26_4 1_555 1_555
C27_4 C26_4 1_555 1_555
H20_4 C27_4 1_555 1_555
C28_4 C27_4 1_555 1_555
C29_4 C28_4 1_555 1_555
H21_4 C29_4 1_555 1_555
C30_4 C25_4 1_555 1_555
H22_4 C30_4 1_555 1_555
C31_4 C28_4 1_555 1_555
H23_4 C31_4 1_555 1_555
C32_4 C33_4 1_555 1_555
C33_4 H24_4 1_555 1_555
N8_4 C31_4 1_555 1_555
N9_4 C32_4 1_555 1_555
H27_4 N9_4 1_555 1_555
N10_4 C32_4 1_555 1_555
Ag5 N5_4 1_555 1_555
Ag3_6 N8_4 1_555 1_555
C37_4 C38_4 1_555 1_555
C38_4 H28_4 1_555 1_555
C39_4 C38_4 1_555 1_555
H29_4 C39_4 1_555 1_555
C40_4 C39_4 1_555 1_555
C41_4 C40_4 1_555 1_555
H30_4 C41_4 1_555 1_555
C42_4 C37_4 1_555 1_555
H31_4 C42_4 1_555 1_555
C43_4 C40_4 1_555 1_555
H32_4 C43_4 1_555 1_555
C44_4 C45_4 1_555 1_555
C45_4 H33_4 1_555 1_555
N11_4 C37_4 1_555 1_555
N21_2 C43_4 1_555 1_555
N13_4 C44_4 1_555 1_555
H36_4 N13_4 1_555 1_555
N23_2 C44_4 1_555 1_555
C49_4 N11_4 1_555 1_555
C50_4 C49_4 1_555 1_555
H37_4 C50_4 1_555 1_555
C51_4 C50_4 1_555 1_555
H38_4 C51_4 1_555 1_555
C52_4 C51_4 1_555 1_555
C53_4 C52_4 1_555 1_555
H39_4 C53_4 1_555 1_555
C54_4 C49_4 1_555 1_555
H40_4 C54_4 1_555 1_555
C55_4 C52_4 1_555 1_555
H41_4 C55_4 1_555 1_555
C56_4 C57_4 1_555 1_555
C57_4 H42_4 1_555 1_555
N22 C55_4 1_555 1_555
N16_4 C56_4 1_555 1_555
H45_4 N16_4 1_555 1_555
N24 C56_4 1_555 1_555
C61_4 N11_4 1_555 1_555
C62_4 C61_4 1_555 1_555
H46_4 C62_4 1_555 1_555
C63_4 C62_4 1_555 1_555
H47_4 C63_4 1_555 1_555
C64_4 C63_4 1_555 1_555
C65_4 C64_4 1_555 1_555
H48_4 C65_4 1_555 1_555
C66_4 C61_4 1_555 1_555
H49_4 C66_4 1_555 1_555
C67_4 C64_4 1_555 1_555
H50_4 C67_4 1_555 1_555
C68_4 C69_4 1_555 1_555
C69_4 H51_4 1_555 1_555
N18_4 Ag3_6 1_555 1_555
N19_4 C68_4 1_555 1_555
H54_4 N19_4 1_555 1_555
N20_4 Ag3_6 1_555 1_555
C5_4 C6_4 1_555 1_555
C17_4 C18_4 1_555 1_555
C24_3 N7_4 1_555 1_555
N5_4 N6_4 1_555 1_555
N7_4 Ag5 1_555 1_555
C29_4 C30_4 1_555 1_555
N8_4 N9_4 1_555 1_555
N10_4 Ag3_6 1_555 1_555
C41_4 C42_4 1_555 1_555
N21_2 N13_4 1_555 1_555
C53_4 C54_4 1_555 1_555
N22 N16_4 1_555 1_555
C65_4 C66_4 1_555 1_555
C67_4 N18_4 1_555 1_555
C68_4 N20_4 1_555 1_555
N18_4 N19_4 1_555 1_555
H25_3 C34_3 1_555 1_555
C35_3 C34_3 1_555 1_555
H26_3 C35_3 1_555 1_555
C36_3 C35_3 1_555 1_555
Cl3_3 C36_3 1_555 1_555
H52_4 C70_4 1_555 1_555
C71_4 C70_4 1_555 1_555
H53_4 C71_4 1_555 1_555
C72_4 C71_4 1_555 1_555
Cl6_4 C72_4 1_555 1_555
Ag4_4 N2_4 1_555 1_555
C8_4 C9_4 1_555 1_555
C9_4 H6_4 1_555 1_555
N3_4 C8_4 1_555 1_555
H9_4 N3_4 1_555 1_555
N4_4 Ag4_4 1_555 1_555
H43_3 C58_3 1_555 1_555
C59_3 C58_3 1_555 1_555
H44_3 C59_3 1_555 1_555
C60_3 C59_3 1_555 1_555
Cl5_3 C60_3 1_555 1_555
C8_4 N4_4 1_555 1_555
N2_4 N3_4 1_555 1_555
H34_3 C46_3 1_555 1_555
C47_3 C46_3 1_555 1_555
H35_3 C47_3 1_555 1_555
C48_3 C47_3 1_555 1_555
Cl4_3 C48_3 1_555 1_555
H25_4 C34_4 1_555 1_555
C35_4 C34_4 1_555 1_555
H26_4 C35_4 1_555 1_555
C36_4 C35_4 1_555 1_555
Cl3_4 C36_4 1_555 1_555
H34_4 C46_4 1_555 1_555
C47_4 C46_4 1_555 1_555
H35_4 C47_4 1_555 1_555
C48_4 C47_4 1_555 1_555
Cl4_4 C48_4 1_555 1_555
H16_4 C22_4 1_555 1_555
C23_4 C22_4 1_555 1_555
H17_4 C23_4 1_555 1_555
C24_4 C23_4 1_555 1_555
Cl2_4 C24_4 1_555 1_555
H43_4 C58_4 1_555 1_555
C59_4 C58_4 1_555 1_555
H44_4 C59_4 1_555 1_555
C60_4 C59_4 1_555 1_555
Cl5_4 C60_4 1_555 1_555
H7_4 C10_4 1_555 1_555
C11_4 C10_4 1_555 1_555
H8_4 C11_4 1_555 1_555
C12_4 C11_4 1_555 1_555
Cl1_4 C12_4 1_555 1_555
Cl7 O1 1_555 1_555
O2 Cl7 1_555 1_555
O3 Cl7 1_555 1_555
O4 Cl7 1_555 1_555
O2_2 Cl7_2 1_555 1_555
O3_2 Cl7_2 1_555 1_555
Cl7_3 O1_2 1_555 1_555
O4_2 Cl7_3 1_555 1_555
Cl7_4 O1_3 1_555 1_555
O2_3 Cl7_4 1_555 1_555
O3_3 Cl7_4 1_555 1_555
O4_3 Cl7_4 1_555 1_555
Cl7_5 O1_4 1_555 1_555
O4_4 Cl7_5 1_555 1_555
O2_4 Cl7_6 1_555 1_555
O3_4 Cl7_6 1_555 1_555
Cl7_7 O1_5 1_555 1_555
O2_5 Cl7_7 1_555 1_555
O3_5 Cl7_7 1_555 1_555
O4_5 Cl7_7 1_555 1_555
O2_6 Cl7_8 1_555 1_555
O3_6 Cl7_8 1_555 1_555
Cl7_9 O1_6 1_555 1_555
O4_6 Cl7_9 1_555 1_555
Cl7_10 O1_7 1_555 1_555
O2_7 Cl7_10 1_555 1_555
O3_7 Cl7_10 1_555 1_555
O4_7 Cl7_10 1_555 1_555
Cl7_11 O1_8 1_555 1_555
O4_8 Cl7_11 1_555 1_555
O2_8 Cl7_12 1_555 1_555
O3_8 Cl7_12 1_555 1_555
Cl7_13 O1_9 1_555 1_555
O2_9 Cl7_13 1_555 1_555
O3_9 Cl7_13 1_555 1_555
O4_9 Cl7_13 1_555 1_555
O2_10 Cl7_14 1_555 1_555
O3_10 Cl7_14 1_555 1_555
Cl7_15 O1_10 1_555 1_555
O4_10 Cl7_15 1_555 1_555
Cl7_16 O1_11 1_555 1_555
O2_11 Cl7_16 1_555 1_555
O3_11 Cl7_16 1_555 1_555
O4_11 Cl7_16 1_555 1_555
Cl7_17 O1_12 1_555 1_555
O4_12 Cl7_17 1_555 1_555
O2_12 Cl7_18 1_555 1_555
O3_12 Cl7_18 1_555 1_555

#END
