
###############################################################################
#
# This file contains modified crystal structure data generated from the
# MOF subset of the Cambridge Structural Database (CSD) v543 
# hosted by the Cambridge Crystallographic Data Centre (CCDC).
#
# This work is licensed under the Creative Commons
# Attribution-NonCommercial-ShareAlike 4.0 International License.
# To view a copy of this license, visit
# http://creativecommons.org/licenses/by-nc-sa/4.0/
# or send a letter to
# Creative Commons, PO Box 1866, Mountain View, CA 94042, USA.
#
# CIF created using the CSD Python API on 29 September 2022
# The structure has been converted into the P1 space group
# The structure has a 3D framework
# The original CSD entry KEPFIX is in the cubic crystal system
# The original CSD entry KEPFIX is in a Sohncke space group
# The framework has been calculated to contain at least 10.0% void space
# The void calculation uses a probe of radius 1.32A, grid spacing 0.4
# The framework is charged, counterions have been retained in the structure
#
###############################################################################

data_KEPFIX
_chemical_formula_moiety         '(C288 H216 Ag14 Cl42 N80 O48 2+)n'
_symmetry_cell_setting           triclinic
_symmetry_space_group_name_H-M   'P 1'
_symmetry_Int_Tables_number      1
_space_group_name_Hall           'P 1'
loop_
_symmetry_equiv_pos_site_id
_symmetry_equiv_pos_as_xyz
1 x,y,z
_cell_length_a                   21.3930(4)
_cell_length_b                   21.3930(4)
_cell_length_c                   21.3930(4)
_cell_angle_alpha                90
_cell_angle_beta                 90
_cell_angle_gamma                90
_cell_volume                     9790.73
loop_
_atom_site_label
_atom_site_type_symbol
_atom_site_fract_x
_atom_site_fract_y
_atom_site_fract_z
C70 C 0.0247(2) 0.8272(2) 0.1081(2)
H52 H 0.0378 0.7961 0.0800
C71 C 0.0599(2) 0.8402(2) 0.1588(2)
H53 H 0.0975 0.8187 0.1665
C72 C 0.03945(19) 0.8855(2) 0.1985(2)
Cl6 Cl 0.08268(7) 0.90526(9) 0.26405(7)
Ag1 Ag 0.2500 0.040290(19) 0.5000
C1 C 0.24697(15) 0.24777(16) 0.32852(14)
C2 C 0.22257(18) 0.28611(16) 0.37513(17)
H1 H 0.2249 0.3298 0.3709
C3 C 0.19540(17) 0.26070(15) 0.42677(15)
H2 H 0.1784 0.2874 0.4572
C4 C 0.19210(15) 0.19648(15) 0.43581(15)
C5 C 0.21683(17) 0.15765(15) 0.38959(16)
H3 H 0.2154 0.1140 0.3947
C6 C 0.24352(17) 0.18293(15) 0.33622(16)
H4 H 0.2594 0.1564 0.3050
C7 C 0.16118(15) 0.17265(16) 0.49199(16)
H5 H 0.1356 0.2001 0.5148
C8 C 0.14053(15) 0.04745(17) 0.59459(16)
C9 C 0.09695(18) 0.03023(19) 0.64112(18)
H6 H 0.0619 0.0551 0.6501
N1 N 0.27340(17) 0.27340(17) 0.27340(17)
N2 N 0.16698(12) 0.11711(12) 0.51153(13)
N3 N 0.13175(14) 0.10199(14) 0.56269(14)
H9 H 0.1030 0.1278 0.5752
N4 N 0.19094(14) 0.01205(14) 0.58118(15)
C13 C 0.32852(14) 0.24697(15) 0.24777(16)
C14 C 0.37513(17) 0.22257(18) 0.28611(16)
H10 H 0.3709 0.2249 0.3298
C15 C 0.42677(15) 0.19540(17) 0.26070(15)
H11 H 0.4572 0.1784 0.2874
C16 C 0.43581(15) 0.19210(15) 0.19648(15)
C17 C 0.38959(16) 0.21683(17) 0.15765(15)
H12 H 0.3947 0.2154 0.1140
C18 C 0.33622(16) 0.24352(17) 0.18293(15)
H13 H 0.3050 0.2594 0.1564
C19 C 0.49199(16) 0.16118(15) 0.17265(16)
H14 H 0.5148 0.1356 0.2001
C20 C 0.59459(16) 0.14053(15) 0.04745(17)
C21 C 0.64112(18) 0.09695(18) 0.03023(19)
H15 H 0.6501 0.0619 0.0551
N5 N 0.51153(13) 0.16698(12) 0.11711(12)
N6 N 0.56269(14) 0.13175(14) 0.10199(14)
H18 H 0.5752 0.1030 0.1278
N7 N 0.58118(15) 0.19094(14) 0.01205(14)
C25 C 0.24777(16) 0.32852(14) 0.24697(15)
C26 C 0.28611(16) 0.37513(17) 0.22257(18)
H19 H 0.3298 0.3709 0.2249
C27 C 0.26070(15) 0.42677(15) 0.19540(17)
H20 H 0.2874 0.4572 0.1784
C28 C 0.19648(15) 0.43581(15) 0.19210(15)
C29 C 0.15765(15) 0.38959(16) 0.21683(17)
H21 H 0.1140 0.3947 0.2154
C30 C 0.18293(15) 0.33622(16) 0.24352(17)
H22 H 0.1564 0.3050 0.2594
C31 C 0.17265(16) 0.49199(16) 0.16118(15)
H23 H 0.2001 0.5148 0.1356
C32 C 0.04745(17) 0.59459(16) 0.14053(15)
C33 C 0.03023(19) 0.64112(18) 0.09695(18)
H24 H 0.0551 0.6501 0.0619
N8 N 0.11711(12) 0.51153(13) 0.16698(12)
N9 N 0.10199(14) 0.56269(14) 0.13175(14)
H27 H 0.1278 0.5752 0.1030
N10 N 0.01205(14) 0.58118(15) 0.19094(14)
Ag2 Ag 0.5000 0.2500 0.040290(19)
Ag3 Ag 0.040290(19) 0.5000 0.2500
C37 C 0.75303(15) 0.25223(16) 0.32852(14)
C38 C 0.77743(18) 0.21389(16) 0.37513(17)
H28 H 0.7751 0.1702 0.3709
C39 C 0.80460(17) 0.23930(15) 0.42677(15)
H29 H 0.8216 0.2126 0.4572
C40 C 0.80790(15) 0.30352(15) 0.43581(15)
C41 C 0.78317(17) 0.34235(15) 0.38959(16)
H30 H 0.7846 0.3860 0.3947
C42 C 0.75648(17) 0.31707(15) 0.33622(16)
H31 H 0.7406 0.3436 0.3050
C43 C 0.83882(15) 0.32735(16) 0.49199(16)
H32 H 0.8644 0.2999 0.5148
C44 C 0.85947(15) 0.45255(17) 0.59459(16)
C45 C 0.90305(18) 0.46977(19) 0.64112(18)
H33 H 0.9381 0.4449 0.6501
C46 C 0.8919(2) 0.5247(2) 0.6728(2)
H34 H 0.9200 0.5378 0.7039
C47 C 0.8412(2) 0.5599(2) 0.6598(2)
H35 H 0.8335 0.5975 0.6813
C48 C 0.8015(2) 0.53945(19) 0.6145(2)
Cl4 Cl 0.73595(7) 0.58268(7) 0.59474(9)
N11 N 0.72660(17) 0.22660(17) 0.27340(17)
N12 N 0.83302(12) 0.38289(12) 0.51153(13)
N13 N 0.86825(14) 0.39801(14) 0.56269(14)
H36 H 0.8970 0.3722 0.5752
N14 N 0.80906(14) 0.48795(14) 0.58118(15)
C49 C 0.67148(14) 0.25303(15) 0.24777(16)
C50 C 0.62487(17) 0.27743(18) 0.28611(16)
H37 H 0.6291 0.2751 0.3298
C51 C 0.57323(15) 0.30460(17) 0.26070(15)
H38 H 0.5428 0.3216 0.2874
C52 C 0.56419(15) 0.30790(15) 0.19648(15)
C53 C 0.61041(16) 0.28317(17) 0.15765(15)
H39 H 0.6053 0.2846 0.1140
C54 C 0.66378(16) 0.25648(17) 0.18293(15)
H40 H 0.6950 0.2406 0.1564
C55 C 0.50801(16) 0.33882(15) 0.17265(16)
H41 H 0.4852 0.3644 0.2001
C56 C 0.40541(16) 0.35947(15) 0.04745(17)
C57 C 0.35888(18) 0.40305(18) 0.03023(19)
H42 H 0.3499 0.4381 0.0551
N15 N 0.48847(13) 0.33302(12) 0.11711(12)
N16 N 0.43731(14) 0.36825(14) 0.10199(14)
H45 H 0.4248 0.3970 0.1278
N17 N 0.41882(15) 0.30906(14) 0.01205(14)
C61 C 0.75223(16) 0.17148(14) 0.24697(15)
C62 C 0.71389(16) 0.12487(17) 0.22257(18)
H46 H 0.6702 0.1291 0.2249
C63 C 0.73930(15) 0.07323(15) 0.19540(17)
H47 H 0.7126 0.0428 0.1784
C64 C 0.80352(15) 0.06419(15) 0.19210(15)
C65 C 0.84235(15) 0.11041(16) 0.21683(17)
H48 H 0.8860 0.1053 0.2154
C66 C 0.81707(15) 0.16378(16) 0.24352(17)
H49 H 0.8436 0.1950 0.2594
C67 C 0.82735(16) 0.00801(16) 0.16118(15)
Ag4 Ag 0.7500 0.459710(19) 0.5000
Ag5 Ag 0.959710(19) 0.0000 0.2500
N21 N 0.33302(12) 0.11711(12) 0.48847(13)
N22 N 0.11711(12) 0.48847(13) 0.33302(12)
N23 N 0.30906(14) 0.01205(14) 0.41882(15)
N24 N 0.01205(14) 0.41882(15) 0.30906(14)
C22 C 0.6728(2) 0.1081(2) 0.9753(2)
H16 H 0.7039 0.0800 0.9622
C23 C 0.6598(2) 0.1588(2) 0.9401(2)
H17 H 0.6813 0.1665 0.9025
C24 C 0.6145(2) 0.1985(2) 0.96055(19)
Cl2 Cl 0.59474(9) 0.26405(7) 0.91732(7)
C58 C 0.3272(2) 0.3919(2) 0.9753(2)
H43 H 0.2961 0.4200 0.9622
C59 C 0.3402(2) 0.3412(2) 0.9401(2)
H44 H 0.3187 0.3335 0.9025
C60 C 0.3855(2) 0.3015(2) 0.96055(19)
Cl5 Cl 0.40526(9) 0.23595(7) 0.91732(7)
C10 C 0.1081(2) 0.9753(2) 0.6728(2)
H7 H 0.0800 0.9622 0.7039
C11 C 0.1588(2) 0.9401(2) 0.6598(2)
H8 H 0.1665 0.9025 0.6813
C12 C 0.1985(2) 0.96055(19) 0.6145(2)
Cl1 Cl 0.26405(7) 0.91732(7) 0.59474(9)
H50 H 0.7999 0.9852 0.1356
C68 C 0.95255(17) 0.90541(16) 0.14053(15)
C69 C 0.96977(19) 0.85888(18) 0.09695(18)
H51 H 0.9449 0.8499 0.0619
N18 N 0.88289(12) 0.98847(13) 0.16698(12)
N19 N 0.89801(14) 0.93731(14) 0.13175(14)
H54 H 0.8722 0.9248 0.1030
N20 N 0.98795(14) 0.91882(15) 0.19094(14)
Ag5_2 Ag 0.959710(19) 1.0000 0.2500
C34 C 0.9753(2) 0.6728(2) 0.1081(2)
H25 H 0.9622 0.7039 0.0800
C35 C 0.9401(2) 0.6598(2) 0.1588(2)
H26 H 0.9025 0.6813 0.1665
C36 C 0.96055(19) 0.6145(2) 0.1985(2)
Cl3 Cl 0.91732(7) 0.59474(9) 0.26405(7)
Ag1_2 Ag 0.2500 0.959710(19) 0.0000
H5_2 H 0.3644 0.7999 0.0148
C8_2 C 0.35947(15) 0.95255(17) 0.09459(16)
C9_2 C 0.40305(18) 0.96977(19) 0.14112(18)
H6_2 H 0.4381 0.9449 0.1501
N2_2 N 0.33302(12) 0.88289(12) 0.01153(13)
N3_2 N 0.36825(14) 0.89801(14) 0.06269(14)
H9_2 H 0.3970 0.8722 0.0752
N4_2 N 0.30906(14) 0.98795(14) 0.08118(15)
Ag1_3 Ag 0.2500 0.959710(19) 1.0000
C1_2 C 0.25303(15) 0.75223(16) 0.82852(14)
C2_2 C 0.27743(18) 0.71389(16) 0.87513(17)
H1_2 H 0.2751 0.6702 0.8709
C3_2 C 0.30460(17) 0.73930(15) 0.92677(15)
H2_2 H 0.3216 0.7126 0.9572
C4_2 C 0.30790(15) 0.80352(15) 0.93581(15)
C5_2 C 0.28317(17) 0.84235(15) 0.88959(16)
H3_2 H 0.2846 0.8860 0.8947
C6_2 C 0.25648(17) 0.81707(15) 0.83622(16)
H4_2 H 0.2406 0.8436 0.8050
C7_2 C 0.33882(15) 0.82735(16) 0.99199(16)
N1_2 N 0.22660(17) 0.72660(17) 0.77340(17)
C13_2 C 0.17148(14) 0.75303(15) 0.74777(16)
C14_2 C 0.12487(17) 0.77743(18) 0.78611(16)
H10_2 H 0.1291 0.7751 0.8298
C15_2 C 0.07323(15) 0.80460(17) 0.76070(15)
H11_2 H 0.0428 0.8216 0.7874
C16_2 C 0.06419(15) 0.80790(15) 0.69648(15)
C17_2 C 0.11041(16) 0.78317(17) 0.65765(15)
H12_2 H 0.1053 0.7846 0.6140
C18_2 C 0.16378(16) 0.75648(17) 0.68293(15)
H13_2 H 0.1950 0.7406 0.6564
C19_2 C 0.00801(16) 0.83882(15) 0.67265(16)
C25_2 C 0.25223(16) 0.67148(14) 0.74697(15)
C26_2 C 0.21389(16) 0.62487(17) 0.72257(18)
H19_2 H 0.1702 0.6291 0.7249
C27_2 C 0.23930(15) 0.57323(15) 0.69540(17)
H20_2 H 0.2126 0.5428 0.6784
C28_2 C 0.30352(15) 0.56419(15) 0.69210(15)
C29_2 C 0.34235(15) 0.61041(16) 0.71683(17)
H21_2 H 0.3860 0.6053 0.7154
C30_2 C 0.31707(15) 0.66378(16) 0.74352(17)
H22_2 H 0.3436 0.6950 0.7594
C31_2 C 0.32735(16) 0.50801(16) 0.66118(15)
H23_2 H 0.2999 0.4852 0.6356
C32_2 C 0.45255(17) 0.40541(16) 0.64053(15)
C33_2 C 0.46977(19) 0.35888(18) 0.59695(18)
H24_2 H 0.4449 0.3499 0.5619
C34_2 C 0.5247(2) 0.3272(2) 0.6081(2)
H25_2 H 0.5378 0.2961 0.5800
C35_2 C 0.5599(2) 0.3402(2) 0.6588(2)
H26_2 H 0.5975 0.3187 0.6665
C36_2 C 0.53945(19) 0.3855(2) 0.6985(2)
Cl3_2 Cl 0.58268(7) 0.40526(9) 0.76405(7)
N8_2 N 0.38289(12) 0.48847(13) 0.66698(12)
N9_2 N 0.39801(14) 0.43731(14) 0.63175(14)
H27_2 H 0.3722 0.4248 0.6030
N10_2 N 0.48795(14) 0.41882(15) 0.69094(14)
Ag2_2 Ag 0.0000 0.7500 0.540290(19)
Ag3_2 Ag 0.459710(19) 0.5000 0.7500
H41_2 H 0.0148 0.6356 0.7001
C56_2 C 0.09459(16) 0.64053(15) 0.54745(17)
C57_2 C 0.14112(18) 0.59695(18) 0.53023(19)
H42_2 H 0.1501 0.5619 0.5551
C58_2 C 0.1728(2) 0.6081(2) 0.4753(2)
H43_2 H 0.2039 0.5800 0.4622
C59_2 C 0.1598(2) 0.6588(2) 0.4401(2)
H44_2 H 0.1813 0.6665 0.4025
C60_2 C 0.1145(2) 0.6985(2) 0.46055(19)
Cl5_2 Cl 0.09474(9) 0.76405(7) 0.41732(7)
N15_2 N 0.01153(13) 0.66698(12) 0.61711(12)
N16_2 N 0.06269(14) 0.63175(14) 0.60199(14)
H45_2 H 0.0752 0.6030 0.6278
N17_2 N 0.08118(15) 0.69094(14) 0.51205(14)
N21_2 N 0.16698(12) 0.88289(12) 0.98847(13)
N22_2 N 0.38289(12) 0.51153(13) 0.83302(12)
N23_2 N 0.19094(14) 0.98795(14) 0.91882(15)
N24_2 N 0.48795(14) 0.58118(15) 0.80906(14)
H50_2 H 0.7001 0.0148 0.6356
C68_2 C 0.54745(17) 0.09459(16) 0.64053(15)
C69_2 C 0.53023(19) 0.14112(18) 0.59695(18)
H51_2 H 0.5551 0.1501 0.5619
C70_2 C 0.4753(2) 0.1728(2) 0.6081(2)
H52_2 H 0.4622 0.2039 0.5800
C71_2 C 0.4401(2) 0.1598(2) 0.6588(2)
H53_2 H 0.4025 0.1813 0.6665
C72_2 C 0.46055(19) 0.1145(2) 0.6985(2)
Cl6_2 Cl 0.41732(7) 0.09474(9) 0.76405(7)
N18_2 N 0.61711(12) 0.01153(13) 0.66698(12)
N19_2 N 0.60199(14) 0.06269(14) 0.63175(14)
H54_2 H 0.6278 0.0752 0.6030
N20_2 N 0.51205(14) 0.08118(15) 0.69094(14)
Ag5_3 Ag 0.540290(19) 0.0000 0.7500
H32_2 H 0.6356 0.7001 0.0148
C44_2 C 0.64053(15) 0.54745(17) 0.09459(16)
C45_2 C 0.59695(18) 0.53023(19) 0.14112(18)
H33_2 H 0.5619 0.5551 0.1501
C46_2 C 0.6081(2) 0.4753(2) 0.1728(2)
H34_2 H 0.5800 0.4622 0.2039
C47_2 C 0.6588(2) 0.4401(2) 0.1598(2)
H35_2 H 0.6665 0.4025 0.1813
C48_2 C 0.6985(2) 0.46055(19) 0.1145(2)
Cl4_2 Cl 0.76405(7) 0.41732(7) 0.09474(9)
N12_2 N 0.66698(12) 0.61711(12) 0.01153(13)
N13_2 N 0.63175(14) 0.60199(14) 0.06269(14)
H36_2 H 0.6030 0.6278 0.0752
N14_2 N 0.69094(14) 0.51205(14) 0.08118(15)
Ag4_2 Ag 0.7500 0.540290(19) 0.0000
H14_2 H 0.9852 0.8644 0.7001
C20_2 C 0.90541(16) 0.85947(15) 0.54745(17)
C21_2 C 0.85888(18) 0.90305(18) 0.53023(19)
H15_2 H 0.8499 0.9381 0.5551
C22_2 C 0.8272(2) 0.8919(2) 0.4753(2)
H16_2 H 0.7961 0.9200 0.4622
C23_2 C 0.8402(2) 0.8412(2) 0.4401(2)
H17_2 H 0.8187 0.8335 0.4025
C24_2 C 0.8855(2) 0.8015(2) 0.46055(19)
Cl2_2 Cl 0.90526(9) 0.73595(7) 0.41732(7)
N5_2 N 0.98847(13) 0.83302(12) 0.61711(12)
N6_2 N 0.93731(14) 0.86825(14) 0.60199(14)
H18_2 H 0.9248 0.8970 0.6278
N7_2 N 0.91882(15) 0.80906(14) 0.51205(14)
Ag2_3 Ag 1.0000 0.7500 0.540290(19)
C37_2 C 0.74697(15) 0.74777(16) 0.82852(14)
C38_2 C 0.72257(18) 0.78611(16) 0.87513(17)
H28_2 H 0.7249 0.8298 0.8709
C39_2 C 0.69540(17) 0.76070(15) 0.92677(15)
H29_2 H 0.6784 0.7874 0.9572
C40_2 C 0.69210(15) 0.69648(15) 0.93581(15)
C41_2 C 0.71683(17) 0.65765(15) 0.88959(16)
H30_2 H 0.7154 0.6140 0.8947
C42_2 C 0.74352(17) 0.68293(15) 0.83622(16)
H31_2 H 0.7594 0.6564 0.8050
C43_2 C 0.66118(15) 0.67265(16) 0.99199(16)
N11_2 N 0.77340(17) 0.77340(17) 0.77340(17)
C49_2 C 0.82852(14) 0.74697(15) 0.74777(16)
C50_2 C 0.87513(17) 0.72257(18) 0.78611(16)
H37_2 H 0.8709 0.7249 0.8298
C51_2 C 0.92677(15) 0.69540(17) 0.76070(15)
H38_2 H 0.9572 0.6784 0.7874
C52_2 C 0.93581(15) 0.69210(15) 0.69648(15)
C53_2 C 0.88959(16) 0.71683(17) 0.65765(15)
H39_2 H 0.8947 0.7154 0.6140
C54_2 C 0.83622(16) 0.74352(17) 0.68293(15)
H40_2 H 0.8050 0.7594 0.6564
C55_2 C 0.99199(16) 0.66118(15) 0.67265(16)
C61_2 C 0.74777(16) 0.82852(14) 0.74697(15)
C62_2 C 0.78611(16) 0.87513(17) 0.72257(18)
H46_2 H 0.8298 0.8709 0.7249
C63_2 C 0.76070(15) 0.92677(15) 0.69540(17)
H47_2 H 0.7874 0.9572 0.6784
C64_2 C 0.69648(15) 0.93581(15) 0.69210(15)
C65_2 C 0.65765(15) 0.88959(16) 0.71683(17)
H48_2 H 0.6140 0.8947 0.7154
C66_2 C 0.68293(15) 0.83622(16) 0.74352(17)
H49_2 H 0.6564 0.8050 0.7594
C67_2 C 0.67265(16) 0.99199(16) 0.66118(15)
Ag4_3 Ag 0.7500 0.540290(19) 1.0000
Ag5_4 Ag 0.540290(19) 1.0000 0.7500
H23_3 H 0.7999 0.0148 0.3644
C32_3 C 0.95255(17) 0.09459(16) 0.35947(15)
C33_3 C 0.96977(19) 0.14112(18) 0.40305(18)
H24_3 H 0.9449 0.1501 0.4381
N8_3 N 0.88289(12) 0.01153(13) 0.33302(12)
N9_3 N 0.89801(14) 0.06269(14) 0.36825(14)
H27_3 H 0.8722 0.0752 0.3970
N10_3 N 0.98795(14) 0.08118(15) 0.30906(14)
C1_3 C 0.75303(15) 0.74777(16) 0.17148(14)
C2_3 C 0.77743(18) 0.78611(16) 0.12487(17)
H1_3 H 0.7751 0.8298 0.1291
C3_3 C 0.80460(17) 0.76070(15) 0.07323(15)
H2_3 H 0.8216 0.7874 0.0428
C4_3 C 0.80790(15) 0.69648(15) 0.06419(15)
C5_3 C 0.78317(17) 0.65765(15) 0.11041(16)
H3_3 H 0.7846 0.6140 0.1053
C6_3 C 0.75648(17) 0.68293(15) 0.16378(16)
H4_3 H 0.7406 0.6564 0.1950
C7_3 C 0.83882(15) 0.67265(16) 0.00801(16)
N1_3 N 0.72660(17) 0.77340(17) 0.22660(17)
C13_3 C 0.67148(14) 0.74697(15) 0.25223(16)
C14_3 C 0.62487(17) 0.72257(18) 0.21389(16)
H10_3 H 0.6291 0.7249 0.1702
C15_3 C 0.57323(15) 0.69540(17) 0.23930(15)
H11_3 H 0.5428 0.6784 0.2126
C16_3 C 0.56419(15) 0.69210(15) 0.30352(15)
C17_3 C 0.61041(16) 0.71683(17) 0.34235(15)
H12_3 H 0.6053 0.7154 0.3860
C18_3 C 0.66378(16) 0.74352(17) 0.31707(15)
H13_3 H 0.6950 0.7594 0.3436
C19_3 C 0.50801(16) 0.66118(15) 0.32735(16)
H14_3 H 0.4852 0.6356 0.2999
C20_3 C 0.40541(16) 0.64053(15) 0.45255(17)
C21_3 C 0.35888(18) 0.59695(18) 0.46977(19)
H15_3 H 0.3499 0.5619 0.4449
C22_3 C 0.3272(2) 0.6081(2) 0.5247(2)
H16_3 H 0.2961 0.5800 0.5378
C23_3 C 0.3402(2) 0.6588(2) 0.5599(2)
H17_3 H 0.3187 0.6665 0.5975
C24_3 C 0.3855(2) 0.6985(2) 0.53945(19)
Cl2_3 Cl 0.40526(9) 0.76405(7) 0.58268(7)
N5_3 N 0.48847(13) 0.66698(12) 0.38289(12)
N6_3 N 0.43731(14) 0.63175(14) 0.39801(14)
H18_3 H 0.4248 0.6030 0.3722
N7_3 N 0.41882(15) 0.69094(14) 0.48795(14)
C25_3 C 0.75223(16) 0.82852(14) 0.25303(15)
C26_3 C 0.71389(16) 0.87513(17) 0.27743(18)
H19_3 H 0.6702 0.8709 0.2751
C27_3 C 0.73930(15) 0.92677(15) 0.30460(17)
H20_3 H 0.7126 0.9572 0.3216
C28_3 C 0.80352(15) 0.93581(15) 0.30790(15)
C29_3 C 0.84235(15) 0.88959(16) 0.28317(17)
H21_3 H 0.8860 0.8947 0.2846
C30_3 C 0.81707(15) 0.83622(16) 0.25648(17)
H22_3 H 0.8436 0.8050 0.2406
C31_3 C 0.82735(16) 0.99199(16) 0.33882(15)
Ag2_4 Ag 0.5000 0.7500 0.459710(19)
C37_3 C 0.24697(15) 0.75223(16) 0.17148(14)
C38_3 C 0.22257(18) 0.71389(16) 0.12487(17)
H28_3 H 0.2249 0.6702 0.1291
C39_3 C 0.19540(17) 0.73930(15) 0.07323(15)
H29_3 H 0.1784 0.7126 0.0428
C40_3 C 0.19210(15) 0.80352(15) 0.06419(15)
C41_3 C 0.21683(17) 0.84235(15) 0.11041(16)
H30_3 H 0.2154 0.8860 0.1053
C42_3 C 0.24352(17) 0.81707(15) 0.16378(16)
H31_3 H 0.2594 0.8436 0.1950
C43_3 C 0.16118(15) 0.82735(16) 0.00801(16)
N11_3 N 0.27340(17) 0.72660(17) 0.22660(17)
C49_3 C 0.32852(14) 0.75303(15) 0.25223(16)
C50_3 C 0.37513(17) 0.77743(18) 0.21389(16)
H37_3 H 0.3709 0.7751 0.1702
C51_3 C 0.42677(15) 0.80460(17) 0.23930(15)
H38_3 H 0.4572 0.8216 0.2126
C52_3 C 0.43581(15) 0.80790(15) 0.30352(15)
C53_3 C 0.38959(16) 0.78317(17) 0.34235(15)
H39_3 H 0.3947 0.7846 0.3860
C54_3 C 0.33622(16) 0.75648(17) 0.31707(15)
H40_3 H 0.3050 0.7406 0.3436
C55_3 C 0.49199(16) 0.83882(15) 0.32735(16)
H41_3 H 0.5148 0.8644 0.2999
C56_3 C 0.59459(16) 0.85947(15) 0.45255(17)
C57_3 C 0.64112(18) 0.90305(18) 0.46977(19)
H42_3 H 0.6501 0.9381 0.4449
C58_3 C 0.6728(2) 0.8919(2) 0.5247(2)
H43_3 H 0.7039 0.9200 0.5378
C59_3 C 0.6598(2) 0.8412(2) 0.5599(2)
H44_3 H 0.6813 0.8335 0.5975
C60_3 C 0.6145(2) 0.8015(2) 0.53945(19)
Cl5_3 Cl 0.59474(9) 0.73595(7) 0.58268(7)
N15_3 N 0.51153(13) 0.83302(12) 0.38289(12)
N16_3 N 0.56269(14) 0.86825(14) 0.39801(14)
H45_3 H 0.5752 0.8970 0.3722
N17_3 N 0.58118(15) 0.80906(14) 0.48795(14)
C61_3 C 0.24777(16) 0.67148(14) 0.25303(15)
C62_3 C 0.28611(16) 0.62487(17) 0.27743(18)
H46_3 H 0.3298 0.6291 0.2751
C63_3 C 0.26070(15) 0.57323(15) 0.30460(17)
H47_3 H 0.2874 0.5428 0.3216
C64_3 C 0.19648(15) 0.56419(15) 0.30790(15)
C65_3 C 0.15765(15) 0.61041(16) 0.28317(17)
H48_3 H 0.1140 0.6053 0.2846
C66_3 C 0.18293(15) 0.66378(16) 0.25648(17)
H49_3 H 0.1564 0.6950 0.2406
C67_3 C 0.17265(16) 0.50801(16) 0.33882(15)
H50_3 H 0.2001 0.4852 0.3644
C68_3 C 0.04745(17) 0.40541(16) 0.35947(15)
C69_3 C 0.03023(19) 0.35888(18) 0.40305(18)
H51_3 H 0.0551 0.3499 0.4381
N19_3 N 0.10199(14) 0.43731(14) 0.36825(14)
H54_3 H 0.1278 0.4248 0.3970
H5_3 H 0.8644 0.7001 0.9852
C8_3 C 0.85947(15) 0.54745(17) 0.90541(16)
C9_3 C 0.90305(18) 0.53023(19) 0.85888(18)
H6_3 H 0.9381 0.5551 0.8499
C10_2 C 0.8919(2) 0.4753(2) 0.8272(2)
H7_2 H 0.9200 0.4622 0.7961
C11_2 C 0.8412(2) 0.4401(2) 0.8402(2)
H8_2 H 0.8335 0.4025 0.8187
C12_2 C 0.8015(2) 0.46055(19) 0.8855(2)
Cl1_2 Cl 0.73595(7) 0.41732(7) 0.90526(9)
N2_3 N 0.83302(12) 0.61711(12) 0.98847(13)
N3_3 N 0.86825(14) 0.60199(14) 0.93731(14)
H9_3 H 0.8970 0.6278 0.9248
N4_3 N 0.80906(14) 0.51205(14) 0.91882(15)
H32_3 H 0.1356 0.7999 0.9852
C44_3 C 0.14053(15) 0.95255(17) 0.90541(16)
C45_3 C 0.09695(18) 0.96977(19) 0.85888(18)
H33_3 H 0.0619 0.9449 0.8499
N13_3 N 0.13175(14) 0.89801(14) 0.93731(14)
H36_3 H 0.1030 0.8722 0.9248
C70_3 C 0.9753(2) 0.3272(2) 0.3919(2)
H52_3 H 0.9622 0.2961 0.4200
C71_3 C 0.9401(2) 0.3402(2) 0.3412(2)
H53_3 H 0.9025 0.3187 0.3335
C72_3 C 0.96055(19) 0.3855(2) 0.3015(2)
Cl6_3 Cl 0.91732(7) 0.40526(9) 0.23595(7)
H14_4 H 0.0148 0.3644 0.7999
C20_4 C 0.09459(16) 0.35947(15) 0.95255(17)
C21_4 C 0.14112(18) 0.40305(18) 0.96977(19)
H15_4 H 0.1501 0.4381 0.9449
N5_4 N 0.01153(13) 0.33302(12) 0.88289(12)
N6_4 N 0.06269(14) 0.36825(14) 0.89801(14)
H18_4 H 0.0752 0.3970 0.8722
N7_4 N 0.08118(15) 0.30906(14) 0.98795(14)
Ag2_5 Ag -0.0000 0.2500 0.959710(19)
C37_4 C 0.25303(15) 0.24777(16) 0.67148(14)
C38_4 C 0.27743(18) 0.28611(16) 0.62487(17)
H28_4 H 0.2751 0.3298 0.6291
C39_4 C 0.30460(17) 0.26070(15) 0.57323(15)
H29_4 H 0.3216 0.2874 0.5428
C40_4 C 0.30790(15) 0.19648(15) 0.56419(15)
C41_4 C 0.28317(17) 0.15765(15) 0.61041(16)
H30_4 H 0.2846 0.1140 0.6053
C42_4 C 0.25648(17) 0.18293(15) 0.66378(16)
H31_4 H 0.2406 0.1564 0.6950
C43_4 C 0.33882(15) 0.17265(16) 0.50801(16)
H32_4 H 0.3644 0.2001 0.4852
C44_4 C 0.35947(15) 0.04745(17) 0.40541(16)
C45_4 C 0.40305(18) 0.03023(19) 0.35888(18)
H33_4 H 0.4381 0.0551 0.3499
N11_4 N 0.22660(17) 0.27340(17) 0.72660(17)
N13_4 N 0.36825(14) 0.10199(14) 0.43731(14)
H36_4 H 0.3970 0.1278 0.4248
C49_4 C 0.17148(14) 0.24697(15) 0.75223(16)
C50_4 C 0.12487(17) 0.22257(18) 0.71389(16)
H37_4 H 0.1291 0.2249 0.6702
C51_4 C 0.07323(15) 0.19540(17) 0.73930(15)
H38_4 H 0.0428 0.1784 0.7126
C52_4 C 0.06419(15) 0.19210(15) 0.80352(15)
C53_4 C 0.11041(16) 0.21683(17) 0.84235(15)
H39_4 H 0.1053 0.2154 0.8860
C54_4 C 0.16378(16) 0.24352(17) 0.81707(15)
H40_4 H 0.1950 0.2594 0.8436
C55_4 C 0.00801(16) 0.16118(15) 0.82735(16)
C61_4 C 0.25223(16) 0.32852(14) 0.75303(15)
C62_4 C 0.21389(16) 0.37513(17) 0.77743(18)
H46_4 H 0.1702 0.3709 0.7751
C63_4 C 0.23930(15) 0.42677(15) 0.80460(17)
H47_4 H 0.2126 0.4572 0.8216
C64_4 C 0.30352(15) 0.43581(15) 0.80790(15)
C65_4 C 0.34235(15) 0.38959(16) 0.78317(17)
H48_4 H 0.3860 0.3947 0.7846
C66_4 C 0.31707(15) 0.33622(16) 0.75648(17)
H49_4 H 0.3436 0.3050 0.7406
C67_4 C 0.32735(16) 0.49199(16) 0.83882(15)
H50_4 H 0.2999 0.5148 0.8644
C68_4 C 0.45255(17) 0.59459(16) 0.85947(15)
C69_4 C 0.46977(19) 0.64112(18) 0.90305(18)
H51_4 H 0.4449 0.6501 0.9381
C70_4 C 0.5247(2) 0.6728(2) 0.8919(2)
H52_4 H 0.5378 0.7039 0.9200
C71_4 C 0.5599(2) 0.6598(2) 0.8412(2)
H53_4 H 0.5975 0.6813 0.8335
C72_4 C 0.53945(19) 0.6145(2) 0.8015(2)
Cl6_4 Cl 0.58268(7) 0.59474(9) 0.73595(7)
N19_4 N 0.39801(14) 0.56269(14) 0.86825(14)
H54_4 H 0.3722 0.5752 0.8970
C46_3 C 0.3919(2) 0.9753(2) 0.3272(2)
H34_3 H 0.4200 0.9622 0.2961
C47_3 C 0.3412(2) 0.9401(2) 0.3402(2)
H35_3 H 0.3335 0.9025 0.3187
C48_3 C 0.3015(2) 0.96055(19) 0.3855(2)
Cl4_3 Cl 0.23595(7) 0.91732(7) 0.40526(9)
C1_4 C 0.74697(15) 0.25223(16) 0.67148(14)
C2_4 C 0.72257(18) 0.21389(16) 0.62487(17)
H1_4 H 0.7249 0.1702 0.6291
C3_4 C 0.69540(17) 0.23930(15) 0.57323(15)
H2_4 H 0.6784 0.2126 0.5428
C4_4 C 0.69210(15) 0.30352(15) 0.56419(15)
C5_4 C 0.71683(17) 0.34235(15) 0.61041(16)
H3_4 H 0.7154 0.3860 0.6053
C6_4 C 0.74352(17) 0.31707(15) 0.66378(16)
H4_4 H 0.7594 0.3436 0.6950
C7_4 C 0.66118(15) 0.32735(16) 0.50801(16)
H5_4 H 0.6356 0.2999 0.4852
C8_4 C 0.64053(15) 0.45255(17) 0.40541(16)
C9_4 C 0.59695(18) 0.46977(19) 0.35888(18)
H6_4 H 0.5619 0.4449 0.3499
C10_3 C 0.6081(2) 0.5247(2) 0.3272(2)
H7_3 H 0.5800 0.5378 0.2961
C11_3 C 0.6588(2) 0.5599(2) 0.3402(2)
H8_3 H 0.6665 0.5975 0.3187
C12_3 C 0.6985(2) 0.53945(19) 0.3855(2)
Cl1_3 Cl 0.76405(7) 0.58268(7) 0.40526(9)
N1_4 N 0.77340(17) 0.22660(17) 0.72660(17)
N2_4 N 0.66698(12) 0.38289(12) 0.48847(13)
N3_4 N 0.63175(14) 0.39801(14) 0.43731(14)
H9_4 H 0.6030 0.3722 0.4248
N4_4 N 0.69094(14) 0.48795(14) 0.41882(15)
C13_4 C 0.82852(14) 0.25303(15) 0.75223(16)
C14_4 C 0.87513(17) 0.27743(18) 0.71389(16)
H10_4 H 0.8709 0.2751 0.6702
C15_4 C 0.92677(15) 0.30460(17) 0.73930(15)
H11_4 H 0.9572 0.3216 0.7126
C16_4 C 0.93581(15) 0.30790(15) 0.80352(15)
C17_4 C 0.88959(16) 0.28317(17) 0.84235(15)
H12_4 H 0.8947 0.2846 0.8860
C18_4 C 0.83622(16) 0.25648(17) 0.81707(15)
H13_4 H 0.8050 0.2406 0.8436
C19_4 C 0.99199(16) 0.33882(15) 0.82735(16)
C25_4 C 0.74777(16) 0.17148(14) 0.75303(15)
C26_4 C 0.78611(16) 0.12487(17) 0.77743(18)
H19_4 H 0.8298 0.1291 0.7751
C27_4 C 0.76070(15) 0.07323(15) 0.80460(17)
H20_4 H 0.7874 0.0428 0.8216
C28_4 C 0.69648(15) 0.06419(15) 0.80790(15)
C29_4 C 0.65765(15) 0.11041(16) 0.78317(17)
H21_4 H 0.6140 0.1053 0.7846
C30_4 C 0.68293(15) 0.16378(16) 0.75648(17)
H22_4 H 0.6564 0.1950 0.7406
C31_4 C 0.67265(16) 0.00801(16) 0.83882(15)
Ag2_6 Ag 1.0000 0.2500 0.959710(19)
H41_4 H 0.9852 0.1356 0.7999
C56_4 C 0.90541(16) 0.14053(15) 0.95255(17)
C57_4 C 0.85888(18) 0.09695(18) 0.96977(19)
H42_4 H 0.8499 0.0619 0.9449
N15_4 N 0.98847(13) 0.16698(12) 0.88289(12)
N16_4 N 0.93731(14) 0.13175(14) 0.89801(14)
H45_4 H 0.9248 0.1030 0.8722
N17_4 N 0.91882(15) 0.19094(14) 0.98795(14)
H23_4 H 0.7001 0.9852 0.8644
C32_4 C 0.54745(17) 0.90541(16) 0.85947(15)
C33_4 C 0.53023(19) 0.85888(18) 0.90305(18)
H24_4 H 0.5551 0.8499 0.9381
C34_3 C 0.4753(2) 0.8272(2) 0.8919(2)
H25_3 H 0.4622 0.7961 0.9200
C35_3 C 0.4401(2) 0.8402(2) 0.8412(2)
H26_3 H 0.4025 0.8187 0.8335
C36_3 C 0.46055(19) 0.8855(2) 0.8015(2)
Cl3_3 Cl 0.41732(7) 0.90526(9) 0.73595(7)
N8_4 N 0.61711(12) 0.98847(13) 0.83302(12)
N9_4 N 0.60199(14) 0.93731(14) 0.86825(14)
H27_4 H 0.6278 0.9248 0.8970
N10_4 N 0.51205(14) 0.91882(15) 0.80906(14)
C10_4 C 0.3919(2) 0.0247(2) 0.1728(2)
H7_4 H 0.4200 0.0378 0.2039
C11_4 C 0.3412(2) 0.0599(2) 0.1598(2)
H8_4 H 0.3335 0.0975 0.1813
C12_4 C 0.3015(2) 0.03945(19) 0.1145(2)
Cl1_4 Cl 0.23595(7) 0.08268(7) 0.09474(9)
C34_4 C 0.0247(2) 0.1728(2) 0.3919(2)
H25_4 H 0.0378 0.2039 0.4200
C35_4 C 0.0599(2) 0.1598(2) 0.3412(2)
H26_4 H 0.0975 0.1813 0.3335
C36_4 C 0.03945(19) 0.1145(2) 0.3015(2)
Cl3_4 Cl 0.08268(7) 0.09474(9) 0.23595(7)
C46_4 C 0.1081(2) 0.0247(2) 0.8272(2)
H34_4 H 0.0800 0.0378 0.7961
C47_4 C 0.1588(2) 0.0599(2) 0.8402(2)
H35_4 H 0.1665 0.0975 0.8187
C48_4 C 0.1985(2) 0.03945(19) 0.8855(2)
Cl4_4 Cl 0.26405(7) 0.08268(7) 0.90526(9)
C22_4 C 0.1728(2) 0.3919(2) 0.0247(2)
H16_4 H 0.2039 0.4200 0.0378
C23_4 C 0.1598(2) 0.3412(2) 0.0599(2)
H17_4 H 0.1813 0.3335 0.0975
C24_4 C 0.1145(2) 0.3015(2) 0.03945(19)
Cl2_4 Cl 0.09474(9) 0.23595(7) 0.08268(7)
C58_4 C 0.8272(2) 0.1081(2) 0.0247(2)
H43_4 H 0.7961 0.0800 0.0378
C59_4 C 0.8402(2) 0.1588(2) 0.0599(2)
H44_4 H 0.8187 0.1665 0.0975
C60_4 C 0.8855(2) 0.1985(2) 0.03945(19)
Cl5_4 Cl 0.90526(9) 0.26405(7) 0.08268(7)
Cl7 Cl 0.93870(5) 0.0000 0.7500
O2 O 0.90138(15) 0.02417(15) 0.79962(18)
O3 O 0.97644(14) 0.04911(14) 0.72608(14)
Cl7_2 Cl 0.93870(5) 1.0000 0.7500
O1 O 0.97644(14) 0.95089(14) 0.77392(14)
O4 O 0.90138(15) 0.97583(15) 0.70038(18)
Cl7_3 Cl 0.56130(5) 0.0000 0.2500
O1_2 O 0.52356(14) 0.04911(14) 0.27392(14)
O4_2 O 0.59862(15) 0.02417(15) 0.20038(18)
Cl7_4 Cl 0.56130(5) 1.0000 0.2500
O2_2 O 0.59862(15) 0.97583(15) 0.29962(18)
O3_2 O 0.52356(14) 0.95089(14) 0.22608(14)
Cl7_5 Cl 0.06130(5) 0.5000 0.7500
O1_3 O 0.02356(14) 0.45089(14) 0.72608(14)
O2_3 O 0.09862(15) 0.52417(15) 0.70038(18)
O3_3 O 0.02356(14) 0.54911(14) 0.77392(14)
O4_3 O 0.09862(15) 0.47583(15) 0.79962(18)
Cl7_6 Cl 0.43870(5) 0.5000 0.2500
O1_4 O 0.47644(14) 0.54911(14) 0.22608(14)
O2_4 O 0.40138(15) 0.47583(15) 0.20038(18)
O3_4 O 0.47644(14) 0.45089(14) 0.27392(14)
O4_4 O 0.40138(15) 0.52417(15) 0.29962(18)
Cl7_7 Cl 0.7500 0.93870(5) 0.0000
O2_5 O 0.79962(18) 0.90138(15) 0.02417(15)
O3_5 O 0.72608(14) 0.97644(14) 0.04911(14)
Cl7_8 Cl 0.7500 0.93870(5) 1.0000
O1_5 O 0.77392(14) 0.97644(14) 0.95089(14)
O4_5 O 0.70038(18) 0.90138(15) 0.97583(15)
Cl7_9 Cl 0.2500 0.56130(5) 0.0000
O1_6 O 0.27392(14) 0.52356(14) 0.04911(14)
O4_6 O 0.20038(18) 0.59862(15) 0.02417(15)
Cl7_10 Cl 0.2500 0.56130(5) 1.0000
O2_6 O 0.29962(18) 0.59862(15) 0.97583(15)
O3_6 O 0.22608(14) 0.52356(14) 0.95089(14)
Cl7_11 Cl 0.7500 0.06130(5) 0.5000
O1_7 O 0.72608(14) 0.02356(14) 0.45089(14)
O2_7 O 0.70038(18) 0.09862(15) 0.52417(15)
O3_7 O 0.77392(14) 0.02356(14) 0.54911(14)
O4_7 O 0.79962(18) 0.09862(15) 0.47583(15)
Cl7_12 Cl 0.2500 0.43870(5) 0.5000
O1_8 O 0.22608(14) 0.47644(14) 0.54911(14)
O2_8 O 0.20038(18) 0.40138(15) 0.47583(15)
O3_8 O 0.27392(14) 0.47644(14) 0.45089(14)
O4_8 O 0.29962(18) 0.40138(15) 0.52417(15)
Cl7_13 Cl 0.0000 0.7500 0.93870(5)
O2_9 O 0.02417(15) 0.79962(18) 0.90138(15)
O3_9 O 0.04911(14) 0.72608(14) 0.97644(14)
Cl7_14 Cl 1.0000 0.7500 0.93870(5)
O1_9 O 0.95089(14) 0.77392(14) 0.97644(14)
O4_9 O 0.97583(15) 0.70038(18) 0.90138(15)
Cl7_15 Cl 0.0000 0.2500 0.56130(5)
O1_10 O 0.04911(14) 0.27392(14) 0.52356(14)
O4_10 O 0.02417(15) 0.20038(18) 0.59862(15)
Cl7_16 Cl 1.0000 0.2500 0.56130(5)
O2_10 O 0.97583(15) 0.29962(18) 0.59862(15)
O3_10 O 0.95089(14) 0.22608(14) 0.52356(14)
Cl7_17 Cl 0.5000 0.7500 0.06130(5)
O1_11 O 0.45089(14) 0.72608(14) 0.02356(14)
O2_11 O 0.52417(15) 0.70038(18) 0.09862(15)
O3_11 O 0.54911(14) 0.77392(14) 0.02356(14)
O4_11 O 0.47583(15) 0.79962(18) 0.09862(15)
Cl7_18 Cl 0.5000 0.2500 0.43870(5)
O1_12 O 0.54911(14) 0.22608(14) 0.47644(14)
O2_12 O 0.47583(15) 0.20038(18) 0.40138(15)
O3_12 O 0.45089(14) 0.27392(14) 0.47644(14)
O4_12 O 0.52417(15) 0.29962(18) 0.40138(15)
loop_
_geom_bond_atom_site_label_1
_geom_bond_atom_site_label_2
_geom_bond_site_symmetry_1
_geom_bond_site_symmetry_2
H52 C70 1_555 1_555
C71 C70 1_555 1_555
H53 C71 1_555 1_555
C72 C71 1_555 1_555
Cl6 C72 1_555 1_555
Ag1 N2 1_555 1_555
C1 C2 1_555 1_555
C2 H1 1_555 1_555
C3 C2 1_555 1_555
H2 C3 1_555 1_555
C4 C3 1_555 1_555
C5 C4 1_555 1_555
H3 C5 1_555 1_555
C6 C1 1_555 1_555
H4 C6 1_555 1_555
C7 C4 1_555 1_555
H5 C7 1_555 1_555
C8 C9 1_555 1_555
C9 H6 1_555 1_555
N1 C1 1_555 1_555
N2 C7 1_555 1_555
N3 C8 1_555 1_555
H9 N3 1_555 1_555
N4 Ag1 1_555 1_555
C13 N1 1_555 1_555
C14 C13 1_555 1_555
H10 C14 1_555 1_555
C15 C14 1_555 1_555
H11 C15 1_555 1_555
C16 C15 1_555 1_555
C17 C16 1_555 1_555
H12 C17 1_555 1_555
C18 C13 1_555 1_555
H13 C18 1_555 1_555
C19 C16 1_555 1_555
H14 C19 1_555 1_555
C20 C21 1_555 1_555
C21 H15 1_555 1_555
N5 C19 1_555 1_555
N6 C20 1_555 1_555
H18 N6 1_555 1_555
N7 C20 1_555 1_555
C25 N1 1_555 1_555
C26 C25 1_555 1_555
H19 C26 1_555 1_555
C27 C26 1_555 1_555
H20 C27 1_555 1_555
C28 C27 1_555 1_555
C29 C28 1_555 1_555
H21 C29 1_555 1_555
C30 C25 1_555 1_555
H22 C30 1_555 1_555
C31 C28 1_555 1_555
H23 C31 1_555 1_555
C32 C33 1_555 1_555
C33 H24 1_555 1_555
N8 C31 1_555 1_555
N9 C32 1_555 1_555
H27 N9 1_555 1_555
N10 C32 1_555 1_555
Ag2 N5 1_555 1_555
Ag3 N8 1_555 1_555
C37 C38 1_555 1_555
C38 H28 1_555 1_555
C39 C38 1_555 1_555
H29 C39 1_555 1_555
C40 C39 1_555 1_555
C41 C40 1_555 1_555
H30 C41 1_555 1_555
C42 C37 1_555 1_555
H31 C42 1_555 1_555
C43 C40 1_555 1_555
H32 C43 1_555 1_555
C44 C45 1_555 1_555
C45 H33 1_555 1_555
C46 C45 1_555 1_555
H34 C46 1_555 1_555
C47 C46 1_555 1_555
H35 C47 1_555 1_555
C48 C47 1_555 1_555
Cl4 C48 1_555 1_555
N11 C37 1_555 1_555
N12 C43 1_555 1_555
N13 C44 1_555 1_555
H36 N13 1_555 1_555
N14 C44 1_555 1_555
C49 N11 1_555 1_555
C50 C49 1_555 1_555
H37 C50 1_555 1_555
C51 C50 1_555 1_555
H38 C51 1_555 1_555
C52 C51 1_555 1_555
C53 C52 1_555 1_555
H39 C53 1_555 1_555
C54 C49 1_555 1_555
H40 C54 1_555 1_555
C55 C52 1_555 1_555
H41 C55 1_555 1_555
C56 C57 1_555 1_555
C57 H42 1_555 1_555
N15 Ag2 1_555 1_555
N16 C56 1_555 1_555
H45 N16 1_555 1_555
N17 Ag2 1_555 1_555
C61 N11 1_555 1_555
C62 C61 1_555 1_555
H46 C62 1_555 1_555
C63 C62 1_555 1_555
H47 C63 1_555 1_555
C64 C63 1_555 1_555
C65 C64 1_555 1_555
H48 C65 1_555 1_555
C66 C61 1_555 1_555
H49 C66 1_555 1_555
C67 C64 1_555 1_555
Ag4 N12 1_555 1_555
N21 Ag1 1_555 1_555
N22 Ag3 1_555 1_555
N23 Ag1 1_555 1_555
N24 Ag3 1_555 1_555
C5 C6 1_555 1_555
C8 N4 1_555 1_555
N2 N3 1_555 1_555
C17 C18 1_555 1_555
N5 N6 1_555 1_555
N7 Ag2 1_555 1_555
C29 C30 1_555 1_555
N8 N9 1_555 1_555
N10 Ag3 1_555 1_555
C41 C42 1_555 1_555
C48 N14 1_555 1_555
N12 N13 1_555 1_555
N14 Ag4 1_555 1_555
C53 C54 1_555 1_555
C55 N15 1_555 1_555
C56 N17 1_555 1_555
N15 N16 1_555 1_555
C65 C66 1_555 1_555
H16 C22 1_555 1_555
C23 C22 1_555 1_555
H17 C23 1_555 1_555
C24 C23 1_555 1_555
Cl2 C24 1_555 1_555
H43 C58 1_555 1_555
C59 C58 1_555 1_555
H44 C59 1_555 1_555
C60 C59 1_555 1_555
Cl5 C60 1_555 1_555
H7 C10 1_555 1_555
C11 C10 1_555 1_555
H8 C11 1_555 1_555
C12 C11 1_555 1_555
Cl1 C12 1_555 1_555
C68 C69 1_555 1_555
C69 H51 1_555 1_555
N19 C68 1_555 1_555
H54 N19 1_555 1_555
N20 C68 1_555 1_555
Ag5_2 N18 1_555 1_555
N18 N19 1_555 1_555
N20 Ag5_2 1_555 1_555
H25 C34 1_555 1_555
C35 C34 1_555 1_555
H26 C35 1_555 1_555
C36 C35 1_555 1_555
Cl3 C36 1_555 1_555
Ag1_2 N2_2 1_555 1_555
C8_2 C9_2 1_555 1_555
C9_2 H6_2 1_555 1_555
N3_2 C8_2 1_555 1_555
H9_2 N3_2 1_555 1_555
N4_2 Ag1_2 1_555 1_555
C8_2 N4_2 1_555 1_555
N2_2 N3_2 1_555 1_555
C1_2 C2_2 1_555 1_555
C2_2 H1_2 1_555 1_555
C3_2 C2_2 1_555 1_555
H2_2 C3_2 1_555 1_555
C4_2 C3_2 1_555 1_555
C5_2 C4_2 1_555 1_555
H3_2 C5_2 1_555 1_555
C6_2 C1_2 1_555 1_555
H4_2 C6_2 1_555 1_555
C7_2 C4_2 1_555 1_555
N1_2 C1_2 1_555 1_555
C13_2 N1_2 1_555 1_555
C14_2 C13_2 1_555 1_555
H10_2 C14_2 1_555 1_555
C15_2 C14_2 1_555 1_555
H11_2 C15_2 1_555 1_555
C16_2 C15_2 1_555 1_555
C17_2 C16_2 1_555 1_555
H12_2 C17_2 1_555 1_555
C18_2 C13_2 1_555 1_555
H13_2 C18_2 1_555 1_555
C19_2 C16_2 1_555 1_555
C25_2 N1_2 1_555 1_555
C26_2 C25_2 1_555 1_555
H19_2 C26_2 1_555 1_555
C27_2 C26_2 1_555 1_555
H20_2 C27_2 1_555 1_555
C28_2 C27_2 1_555 1_555
C29_2 C28_2 1_555 1_555
H21_2 C29_2 1_555 1_555
C30_2 C25_2 1_555 1_555
H22_2 C30_2 1_555 1_555
C31_2 C28_2 1_555 1_555
H23_2 C31_2 1_555 1_555
C32_2 C33_2 1_555 1_555
C33_2 H24_2 1_555 1_555
C34_2 C33_2 1_555 1_555
H25_2 C34_2 1_555 1_555
C35_2 C34_2 1_555 1_555
H26_2 C35_2 1_555 1_555
C36_2 C35_2 1_555 1_555
Cl3_2 C36_2 1_555 1_555
N8_2 C31_2 1_555 1_555
N9_2 C32_2 1_555 1_555
H27_2 N9_2 1_555 1_555
N10_2 C32_2 1_555 1_555
Ag3_2 N8_2 1_555 1_555
C56_2 C57_2 1_555 1_555
C57_2 H42_2 1_555 1_555
C58_2 C57_2 1_555 1_555
H43_2 C58_2 1_555 1_555
C59_2 C58_2 1_555 1_555
H44_2 C59_2 1_555 1_555
C60_2 C59_2 1_555 1_555
Cl5_2 C60_2 1_555 1_555
N15_2 Ag2_2 1_555 1_555
N16_2 C56_2 1_555 1_555
H45_2 N16_2 1_555 1_555
N17_2 Ag2_2 1_555 1_555
N21_2 Ag1_3 1_555 1_555
N22_2 Ag3_2 1_555 1_555
N23_2 Ag1_3 1_555 1_555
N24_2 Ag3_2 1_555 1_555
C5_2 C6_2 1_555 1_555
C17_2 C18_2 1_555 1_555
C29_2 C30_2 1_555 1_555
C36_2 N10_2 1_555 1_555
N8_2 N9_2 1_555 1_555
N10_2 Ag3_2 1_555 1_555
C56_2 N17_2 1_555 1_555
C60_2 N17_2 1_555 1_555
N15_2 N16_2 1_555 1_555
C68_2 C69_2 1_555 1_555
C69_2 H51_2 1_555 1_555
C70_2 C69_2 1_555 1_555
H52_2 C70_2 1_555 1_555
C71_2 C70_2 1_555 1_555
H53_2 C71_2 1_555 1_555
C72_2 C71_2 1_555 1_555
Cl6_2 C72_2 1_555 1_555
N19_2 C68_2 1_555 1_555
H54_2 N19_2 1_555 1_555
N20_2 C68_2 1_555 1_555
Ag5_3 N18_2 1_555 1_555
C72_2 N20_2 1_555 1_555
N18_2 N19_2 1_555 1_555
N20_2 Ag5_3 1_555 1_555
C44_2 C45_2 1_555 1_555
C45_2 H33_2 1_555 1_555
C46_2 C45_2 1_555 1_555
H34_2 C46_2 1_555 1_555
C47_2 C46_2 1_555 1_555
H35_2 C47_2 1_555 1_555
C48_2 C47_2 1_555 1_555
Cl4_2 C48_2 1_555 1_555
N13_2 C44_2 1_555 1_555
H36_2 N13_2 1_555 1_555
N14_2 C44_2 1_555 1_555
Ag4_2 N12_2 1_555 1_555
C48_2 N14_2 1_555 1_555
N12_2 N13_2 1_555 1_555
N14_2 Ag4_2 1_555 1_555
C20_2 C21_2 1_555 1_555
C21_2 H15_2 1_555 1_555
C22_2 C21_2 1_555 1_555
H16_2 C22_2 1_555 1_555
C23_2 C22_2 1_555 1_555
H17_2 C23_2 1_555 1_555
C24_2 C23_2 1_555 1_555
Cl2_2 C24_2 1_555 1_555
N6_2 C20_2 1_555 1_555
H18_2 N6_2 1_555 1_555
N7_2 C20_2 1_555 1_555
Ag2_3 N5_2 1_555 1_555
C37_2 C38_2 1_555 1_555
C38_2 H28_2 1_555 1_555
C39_2 C38_2 1_555 1_555
H29_2 C39_2 1_555 1_555
C40_2 C39_2 1_555 1_555
C41_2 C40_2 1_555 1_555
H30_2 C41_2 1_555 1_555
C42_2 C37_2 1_555 1_555
H31_2 C42_2 1_555 1_555
C43_2 C40_2 1_555 1_555
N11_2 C37_2 1_555 1_555
C49_2 N11_2 1_555 1_555
C50_2 C49_2 1_555 1_555
H37_2 C50_2 1_555 1_555
C51_2 C50_2 1_555 1_555
H38_2 C51_2 1_555 1_555
C52_2 C51_2 1_555 1_555
C53_2 C52_2 1_555 1_555
H39_2 C53_2 1_555 1_555
C54_2 C49_2 1_555 1_555
H40_2 C54_2 1_555 1_555
C55_2 C52_2 1_555 1_555
C61_2 N11_2 1_555 1_555
C62_2 C61_2 1_555 1_555
H46_2 C62_2 1_555 1_555
C63_2 C62_2 1_555 1_555
H47_2 C63_2 1_555 1_555
C64_2 C63_2 1_555 1_555
C65_2 C64_2 1_555 1_555
H48_2 C65_2 1_555 1_555
C66_2 C61_2 1_555 1_555
H49_2 C66_2 1_555 1_555
C67_2 C64_2 1_555 1_555
C24_2 N7_2 1_555 1_555
N5_2 N6_2 1_555 1_555
N7_2 Ag2_3 1_555 1_555
C41_2 C42_2 1_555 1_555
C53_2 C54_2 1_555 1_555
C65_2 C66_2 1_555 1_555
C32_3 C33_3 1_555 1_555
C33_3 H24_3 1_555 1_555
N9_3 C32_3 1_555 1_555
H27_3 N9_3 1_555 1_555
N10_3 C32_3 1_555 1_555
Ag5 N8_3 1_555 1_555
N8_3 N9_3 1_555 1_555
N10_3 Ag5 1_555 1_555
C1_3 C2_3 1_555 1_555
C2_3 H1_3 1_555 1_555
C3_3 C2_3 1_555 1_555
H2_3 C3_3 1_555 1_555
C4_3 C3_3 1_555 1_555
C5_3 C4_3 1_555 1_555
H3_3 C5_3 1_555 1_555
C6_3 C1_3 1_555 1_555
H4_3 C6_3 1_555 1_555
C7_3 C4_3 1_555 1_555
N1_3 C1_3 1_555 1_555
C13_3 N1_3 1_555 1_555
C14_3 C13_3 1_555 1_555
H10_3 C14_3 1_555 1_555
C15_3 C14_3 1_555 1_555
H11_3 C15_3 1_555 1_555
C16_3 C15_3 1_555 1_555
C17_3 C16_3 1_555 1_555
H12_3 C17_3 1_555 1_555
C18_3 C13_3 1_555 1_555
H13_3 C18_3 1_555 1_555
C19_3 C16_3 1_555 1_555
H14_3 C19_3 1_555 1_555
C20_3 C21_3 1_555 1_555
C21_3 H15_3 1_555 1_555
C22_3 C21_3 1_555 1_555
H16_3 C22_3 1_555 1_555
C23_3 C22_3 1_555 1_555
H17_3 C23_3 1_555 1_555
C24_3 C23_3 1_555 1_555
Cl2_3 C24_3 1_555 1_555
N5_3 C19_3 1_555 1_555
N6_3 C20_3 1_555 1_555
H18_3 N6_3 1_555 1_555
N7_3 C20_3 1_555 1_555
C25_3 N1_3 1_555 1_555
C26_3 C25_3 1_555 1_555
H19_3 C26_3 1_555 1_555
C27_3 C26_3 1_555 1_555
H20_3 C27_3 1_555 1_555
C28_3 C27_3 1_555 1_555
C29_3 C28_3 1_555 1_555
H21_3 C29_3 1_555 1_555
C30_3 C25_3 1_555 1_555
H22_3 C30_3 1_555 1_555
C31_3 C28_3 1_555 1_555
Ag2_4 N5_3 1_555 1_555
C37_3 C38_3 1_555 1_555
C38_3 H28_3 1_555 1_555
C39_3 C38_3 1_555 1_555
H29_3 C39_3 1_555 1_555
C40_3 C39_3 1_555 1_555
C41_3 C40_3 1_555 1_555
H30_3 C41_3 1_555 1_555
C42_3 C37_3 1_555 1_555
H31_3 C42_3 1_555 1_555
C43_3 C40_3 1_555 1_555
N11_3 C37_3 1_555 1_555
C49_3 N11_3 1_555 1_555
C50_3 C49_3 1_555 1_555
H37_3 C50_3 1_555 1_555
C51_3 C50_3 1_555 1_555
H38_3 C51_3 1_555 1_555
C52_3 C51_3 1_555 1_555
C53_3 C52_3 1_555 1_555
H39_3 C53_3 1_555 1_555
C54_3 C49_3 1_555 1_555
H40_3 C54_3 1_555 1_555
C55_3 C52_3 1_555 1_555
H41_3 C55_3 1_555 1_555
C56_3 C57_3 1_555 1_555
C57_3 H42_3 1_555 1_555
C58_3 C57_3 1_555 1_555
H43_3 C58_3 1_555 1_555
C59_3 C58_3 1_555 1_555
H44_3 C59_3 1_555 1_555
C60_3 C59_3 1_555 1_555
Cl5_3 C60_3 1_555 1_555
N15_3 Ag2_4 1_555 1_555
N16_3 C56_3 1_555 1_555
H45_3 N16_3 1_555 1_555
N17_3 Ag2_4 1_555 1_555
C61_3 N11_3 1_555 1_555
C62_3 C61_3 1_555 1_555
H46_3 C62_3 1_555 1_555
C63_3 C62_3 1_555 1_555
H47_3 C63_3 1_555 1_555
C64_3 C63_3 1_555 1_555
C65_3 C64_3 1_555 1_555
H48_3 C65_3 1_555 1_555
C66_3 C61_3 1_555 1_555
H49_3 C66_3 1_555 1_555
C67_3 C64_3 1_555 1_555
H50_3 C67_3 1_555 1_555
C68_3 C69_3 1_555 1_555
C69_3 H51_3 1_555 1_555
N22 C67_3 1_555 1_555
N19_3 C68_3 1_555 1_555
H54_3 N19_3 1_555 1_555
N24 C68_3 1_555 1_555
C5_3 C6_3 1_555 1_555
C17_3 C18_3 1_555 1_555
C24_3 N7_3 1_555 1_555
N5_3 N6_3 1_555 1_555
N7_3 Ag2_4 1_555 1_555
C29_3 C30_3 1_555 1_555
C41_3 C42_3 1_555 1_555
C53_3 C54_3 1_555 1_555
C55_3 N15_3 1_555 1_555
C56_3 N17_3 1_555 1_555
C60_3 N17_3 1_555 1_555
N15_3 N16_3 1_555 1_555
C65_3 C66_3 1_555 1_555
N22 N19_3 1_555 1_555
Ag4_3 N2_3 1_555 1_555
C8_3 C9_3 1_555 1_555
C9_3 H6_3 1_555 1_555
C10_2 C9_3 1_555 1_555
H7_2 C10_2 1_555 1_555
C11_2 C10_2 1_555 1_555
H8_2 C11_2 1_555 1_555
C12_2 C11_2 1_555 1_555
Cl1_2 C12_2 1_555 1_555
N3_3 C8_3 1_555 1_555
H9_3 N3_3 1_555 1_555
N4_3 Ag4_3 1_555 1_555
C44_3 C45_3 1_555 1_555
C45_3 H33_3 1_555 1_555
N13_3 C44_3 1_555 1_555
H36_3 N13_3 1_555 1_555
N23_2 C44_3 1_555 1_555
C8_3 N4_3 1_555 1_555
C12_2 N4_3 1_555 1_555
N2_3 N3_3 1_555 1_555
N21_2 N13_3 1_555 1_555
H52_3 C70_3 1_555 1_555
C71_3 C70_3 1_555 1_555
H53_3 C71_3 1_555 1_555
C72_3 C71_3 1_555 1_555
Cl6_3 C72_3 1_555 1_555
C20_4 C21_4 1_555 1_555
C21_4 H15_4 1_555 1_555
N6_4 C20_4 1_555 1_555
H18_4 N6_4 1_555 1_555
N7_4 C20_4 1_555 1_555
Ag2_5 N5_4 1_555 1_555
C37_4 C38_4 1_555 1_555
C38_4 H28_4 1_555 1_555
C39_4 C38_4 1_555 1_555
H29_4 C39_4 1_555 1_555
C40_4 C39_4 1_555 1_555
C41_4 C40_4 1_555 1_555
H30_4 C41_4 1_555 1_555
C42_4 C37_4 1_555 1_555
H31_4 C42_4 1_555 1_555
C43_4 C40_4 1_555 1_555
H32_4 C43_4 1_555 1_555
C44_4 C45_4 1_555 1_555
C45_4 H33_4 1_555 1_555
N11_4 C37_4 1_555 1_555
N21 C43_4 1_555 1_555
N13_4 C44_4 1_555 1_555
H36_4 N13_4 1_555 1_555
N23 C44_4 1_555 1_555
C49_4 N11_4 1_555 1_555
C50_4 C49_4 1_555 1_555
H37_4 C50_4 1_555 1_555
C51_4 C50_4 1_555 1_555
H38_4 C51_4 1_555 1_555
C52_4 C51_4 1_555 1_555
C53_4 C52_4 1_555 1_555
H39_4 C53_4 1_555 1_555
C54_4 C49_4 1_555 1_555
H40_4 C54_4 1_555 1_555
C55_4 C52_4 1_555 1_555
C61_4 N11_4 1_555 1_555
C62_4 C61_4 1_555 1_555
H46_4 C62_4 1_555 1_555
C63_4 C62_4 1_555 1_555
H47_4 C63_4 1_555 1_555
C64_4 C63_4 1_555 1_555
C65_4 C64_4 1_555 1_555
H48_4 C65_4 1_555 1_555
C66_4 C61_4 1_555 1_555
H49_4 C66_4 1_555 1_555
C67_4 C64_4 1_555 1_555
H50_4 C67_4 1_555 1_555
C68_4 C69_4 1_555 1_555
C69_4 H51_4 1_555 1_555
C70_4 C69_4 1_555 1_555
H52_4 C70_4 1_555 1_555
C71_4 C70_4 1_555 1_555
H53_4 C71_4 1_555 1_555
C72_4 C71_4 1_555 1_555
Cl6_4 C72_4 1_555 1_555
N22_2 C67_4 1_555 1_555
N19_4 C68_4 1_555 1_555
H54_4 N19_4 1_555 1_555
N24_2 C68_4 1_555 1_555
N5_4 N6_4 1_555 1_555
N7_4 Ag2_5 1_555 1_555
C41_4 C42_4 1_555 1_555
N21 N13_4 1_555 1_555
C53_4 C54_4 1_555 1_555
C65_4 C66_4 1_555 1_555
C72_4 N24_2 1_555 1_555
N22_2 N19_4 1_555 1_555
H34_3 C46_3 1_555 1_555
C47_3 C46_3 1_555 1_555
H35_3 C47_3 1_555 1_555
C48_3 C47_3 1_555 1_555
Cl4_3 C48_3 1_555 1_555
Ag4 N2_4 1_555 1_555
C1_4 C2_4 1_555 1_555
C2_4 H1_4 1_555 1_555
C3_4 C2_4 1_555 1_555
H2_4 C3_4 1_555 1_555
C4_4 C3_4 1_555 1_555
C5_4 C4_4 1_555 1_555
H3_4 C5_4 1_555 1_555
C6_4 C1_4 1_555 1_555
H4_4 C6_4 1_555 1_555
C7_4 C4_4 1_555 1_555
H5_4 C7_4 1_555 1_555
C8_4 C9_4 1_555 1_555
C9_4 H6_4 1_555 1_555
C10_3 C9_4 1_555 1_555
H7_3 C10_3 1_555 1_555
C11_3 C10_3 1_555 1_555
H8_3 C11_3 1_555 1_555
C12_3 C11_3 1_555 1_555
Cl1_3 C12_3 1_555 1_555
N1_4 C1_4 1_555 1_555
N2_4 C7_4 1_555 1_555
N3_4 C8_4 1_555 1_555
H9_4 N3_4 1_555 1_555
N4_4 Ag4 1_555 1_555
C13_4 N1_4 1_555 1_555
C14_4 C13_4 1_555 1_555
H10_4 C14_4 1_555 1_555
C15_4 C14_4 1_555 1_555
H11_4 C15_4 1_555 1_555
C16_4 C15_4 1_555 1_555
C17_4 C16_4 1_555 1_555
H12_4 C17_4 1_555 1_555
C18_4 C13_4 1_555 1_555
H13_4 C18_4 1_555 1_555
C19_4 C16_4 1_555 1_555
C25_4 N1_4 1_555 1_555
C26_4 C25_4 1_555 1_555
H19_4 C26_4 1_555 1_555
C27_4 C26_4 1_555 1_555
H20_4 C27_4 1_555 1_555
C28_4 C27_4 1_555 1_555
C29_4 C28_4 1_555 1_555
H21_4 C29_4 1_555 1_555
C30_4 C25_4 1_555 1_555
H22_4 C30_4 1_555 1_555
C31_4 C28_4 1_555 1_555
C56_4 C57_4 1_555 1_555
C57_4 H42_4 1_555 1_555
N15_4 Ag2_6 1_555 1_555
N16_4 C56_4 1_555 1_555
H45_4 N16_4 1_555 1_555
N17_4 Ag2_6 1_555 1_555
C5_4 C6_4 1_555 1_555
C8_4 N4_4 1_555 1_555
C12_3 N4_4 1_555 1_555
N2_4 N3_4 1_555 1_555
C17_4 C18_4 1_555 1_555
C29_4 C30_4 1_555 1_555
C56_4 N17_4 1_555 1_555
N15_4 N16_4 1_555 1_555
C32_4 C33_4 1_555 1_555
C33_4 H24_4 1_555 1_555
C34_3 C33_4 1_555 1_555
H25_3 C34_3 1_555 1_555
C35_3 C34_3 1_555 1_555
H26_3 C35_3 1_555 1_555
C36_3 C35_3 1_555 1_555
Cl3_3 C36_3 1_555 1_555
N9_4 C32_4 1_555 1_555
H27_4 N9_4 1_555 1_555
N10_4 C32_4 1_555 1_555
Ag5_4 N8_4 1_555 1_555
C36_3 N10_4 1_555 1_555
N8_4 N9_4 1_555 1_555
N10_4 Ag5_4 1_555 1_555
H7_4 C10_4 1_555 1_555
C11_4 C10_4 1_555 1_555
H8_4 C11_4 1_555 1_555
C12_4 C11_4 1_555 1_555
Cl1_4 C12_4 1_555 1_555
H25_4 C34_4 1_555 1_555
C35_4 C34_4 1_555 1_555
H26_4 C35_4 1_555 1_555
C36_4 C35_4 1_555 1_555
Cl3_4 C36_4 1_555 1_555
H34_4 C46_4 1_555 1_555
C47_4 C46_4 1_555 1_555
H35_4 C47_4 1_555 1_555
C48_4 C47_4 1_555 1_555
Cl4_4 C48_4 1_555 1_555
H16_4 C22_4 1_555 1_555
C23_4 C22_4 1_555 1_555
H17_4 C23_4 1_555 1_555
C24_4 C23_4 1_555 1_555
Cl2_4 C24_4 1_555 1_555
H43_4 C58_4 1_555 1_555
C59_4 C58_4 1_555 1_555
H44_4 C59_4 1_555 1_555
C60_4 C59_4 1_555 1_555
Cl5_4 C60_4 1_555 1_555
O2 Cl7 1_555 1_555
O3 Cl7 1_555 1_555
Cl7_2 O1 1_555 1_555
O4 Cl7_2 1_555 1_555
Cl7_3 O1_2 1_555 1_555
O4_2 Cl7_3 1_555 1_555
O2_2 Cl7_4 1_555 1_555
O3_2 Cl7_4 1_555 1_555
Cl7_5 O1_3 1_555 1_555
O2_3 Cl7_5 1_555 1_555
O3_3 Cl7_5 1_555 1_555
O4_3 Cl7_5 1_555 1_555
Cl7_6 O1_4 1_555 1_555
O2_4 Cl7_6 1_555 1_555
O3_4 Cl7_6 1_555 1_555
O4_4 Cl7_6 1_555 1_555
O2_5 Cl7_7 1_555 1_555
O3_5 Cl7_7 1_555 1_555
Cl7_8 O1_5 1_555 1_555
O4_5 Cl7_8 1_555 1_555
Cl7_9 O1_6 1_555 1_555
O4_6 Cl7_9 1_555 1_555
O2_6 Cl7_10 1_555 1_555
O3_6 Cl7_10 1_555 1_555
Cl7_11 O1_7 1_555 1_555
O2_7 Cl7_11 1_555 1_555
O3_7 Cl7_11 1_555 1_555
O4_7 Cl7_11 1_555 1_555
Cl7_12 O1_8 1_555 1_555
O2_8 Cl7_12 1_555 1_555
O3_8 Cl7_12 1_555 1_555
O4_8 Cl7_12 1_555 1_555
O2_9 Cl7_13 1_555 1_555
O3_9 Cl7_13 1_555 1_555
Cl7_14 O1_9 1_555 1_555
O4_9 Cl7_14 1_555 1_555
Cl7_15 O1_10 1_555 1_555
O4_10 Cl7_15 1_555 1_555
O2_10 Cl7_16 1_555 1_555
O3_10 Cl7_16 1_555 1_555
Cl7_17 O1_11 1_555 1_555
O2_11 Cl7_17 1_555 1_555
O3_11 Cl7_17 1_555 1_555
O4_11 Cl7_17 1_555 1_555
Cl7_18 O1_12 1_555 1_555
O2_12 Cl7_18 1_555 1_555
O3_12 Cl7_18 1_555 1_555
O4_12 Cl7_18 1_555 1_555

#END
