
###############################################################################
#
# This file contains modified crystal structure data generated from the
# MOF subset of the Cambridge Structural Database (CSD) v543 
# hosted by the Cambridge Crystallographic Data Centre (CCDC).
#
# This work is licensed under the Creative Commons
# Attribution-NonCommercial-ShareAlike 4.0 International License.
# To view a copy of this license, visit
# http://creativecommons.org/licenses/by-nc-sa/4.0/
# or send a letter to
# Creative Commons, PO Box 1866, Mountain View, CA 94042, USA.
#
# CIF created using the CSD Python API on 29 September 2022
# The structure has been converted into the P1 space group
# The structure has a 3D framework
# The original CSD entry KEPFIX01 is in the cubic crystal system
# The original CSD entry KEPFIX01 is in a Sohncke space group
# The framework has been calculated to contain at least 10.0% void space
# The void calculation uses a probe of radius 1.32A, grid spacing 0.4
# The framework is charged, counterions have been retained in the structure
#
###############################################################################

data_KEPFIX01
_chemical_formula_moiety         '(C288 H216 Ag14 Cl42 N80 O48 2+)n'
_symmetry_cell_setting           triclinic
_symmetry_space_group_name_H-M   'P 1'
_symmetry_Int_Tables_number      1
_space_group_name_Hall           'P 1'
loop_
_symmetry_equiv_pos_site_id
_symmetry_equiv_pos_as_xyz
1 x,y,z
_cell_length_a                   21.3180(3)
_cell_length_b                   21.3180(3)
_cell_length_c                   21.3180(3)
_cell_angle_alpha                90
_cell_angle_beta                 90
_cell_angle_gamma                90
_cell_volume                     9688.12
loop_
_atom_site_label
_atom_site_type_symbol
_atom_site_fract_x
_atom_site_fract_y
_atom_site_fract_z
C58 C 0.1732(2) 0.3919(3) 0.0253(3)
H44 H 0.2038 0.4206 0.0389
C59 C 0.1608(3) 0.3403(3) 0.0602(3)
H45 H 0.1833 0.3318 0.0972
C60 C 0.1149(3) 0.3012(3) 0.0399(3)
Cl5 Cl 0.09511(11) 0.23593(9) 0.08350(9)
Ag1 Ag 0.2500 0.03949(3) 0.5000
C1 C 0.2539(2) 0.2471(2) 0.67193(19)
C2 C 0.2566(2) 0.1827(2) 0.6642(2)
H1 H 0.2403 0.1560 0.6953
C3 C 0.2834(2) 0.1574(2) 0.6106(2)
H2 H 0.2847 0.1136 0.6054
C4 C 0.3082(2) 0.1959(2) 0.5647(2)
C5 C 0.3047(2) 0.2599(2) 0.5729(2)
H3 H 0.3213 0.2866 0.5420
C6 C 0.2778(2) 0.2856(2) 0.6253(2)
H4 H 0.2754 0.3294 0.6296
C7 C 0.3388(2) 0.1721(2) 0.5079(2)
H5 H 0.3639 0.1998 0.4845
C8 C 0.3597(2) 0.0473(2) 0.4054(2)
C9 C 0.4027(2) 0.0301(2) 0.3588(2)
H6 H 0.4377 0.0553 0.3496
N1 N 0.2273(2) 0.2727(2) 0.7273(2)
N2 N 0.33321(16) 0.11664(17) 0.48880(17)
N3 N 0.36800(18) 0.10120(18) 0.43679(19)
H9 H 0.3965 0.1273 0.4237
N4 N 0.30879(17) 0.01170(18) 0.41841(19)
C13 C 0.17193(19) 0.2461(2) 0.7529(2)
C14 C 0.1642(2) 0.2434(2) 0.8173(2)
H10 H 0.1953 0.2597 0.8440
C15 C 0.1106(2) 0.2166(2) 0.8426(2)
H11 H 0.1054 0.2153 0.8864
C16 C 0.0647(2) 0.1918(2) 0.8041(2)
C17 C 0.0729(2) 0.1953(2) 0.7401(2)
H12 H 0.0420 0.1787 0.7134
C18 C 0.1253(2) 0.2222(2) 0.7144(2)
H13 H 0.1296 0.2246 0.6706
C19 C 0.0079(2) 0.1612(2) 0.8279(2)
C25 C 0.2529(2) 0.32807(19) 0.7539(2)
C26 C 0.3173(2) 0.3358(2) 0.7566(2)
H19 H 0.3440 0.3047 0.7403
C27 C 0.3426(2) 0.3894(2) 0.7834(2)
H20 H 0.3864 0.3946 0.7847
C28 C 0.3041(2) 0.4353(2) 0.8082(2)
C29 C 0.2401(2) 0.4271(2) 0.8047(2)
H21 H 0.2134 0.4580 0.8213
C30 C 0.2144(2) 0.3747(2) 0.7778(2)
H22 H 0.1706 0.3704 0.7754
C31 C 0.3279(2) 0.4921(2) 0.8388(2)
H23 H 0.3002 0.5155 0.8639
N8 N 0.38336(17) 0.51120(17) 0.83321(16)
N9 N 0.39880(18) 0.56321(19) 0.86800(18)
H24 H 0.3727 0.5763 0.8965
C32 C 0.4527(2) 0.5946(2) 0.8597(2)
C33 C 0.4699(2) 0.6412(2) 0.9027(2)
H25 H 0.4447 0.6504 0.9377
C34 C 0.5253(3) 0.6732(2) 0.8919(3)
H26 H 0.5389 0.7038 0.9206
C35 C 0.5602(3) 0.6608(3) 0.8403(3)
H27 H 0.5972 0.6833 0.8318
C36 C 0.5399(3) 0.6149(3) 0.8012(3)
Cl3 Cl 0.58350(9) 0.59511(11) 0.73593(9)
N10 N 0.48830(18) 0.58159(19) 0.80879(17)
Ag2 Ag 0.0000 0.2500 0.96051(3)
Ag3 Ag 0.46051(3) 0.5000 0.7500
H41 H 0.0155 0.3639 0.8002
N15 N 0.01120(17) 0.33321(16) 0.88336(17)
N16 N 0.06321(19) 0.36800(18) 0.89880(18)
H42 H 0.0763 0.3965 0.8727
C56 C 0.0946(2) 0.3597(2) 0.9527(2)
C57 C 0.1412(2) 0.4027(2) 0.9699(2)
H43 H 0.1504 0.4377 0.9447
N17 N 0.08159(19) 0.30879(17) 0.98830(18)
N21 N 0.16679(16) 0.11664(17) 0.51120(17)
N22 N 0.38336(17) 0.48880(17) 0.66679(16)
N23 N 0.19121(17) 0.01170(18) 0.58159(19)
N24 N 0.48830(18) 0.41841(19) 0.69121(17)
C10 C 0.3919(3) 0.9747(3) 0.3268(2)
H7 H 0.4206 0.9611 0.2962
C11 C 0.3403(3) 0.9398(3) 0.3392(3)
H8 H 0.3318 0.9028 0.3167
C12 C 0.3012(3) 0.9601(3) 0.3851(3)
Cl1 Cl 0.23593(9) 0.91650(9) 0.40489(11)
H14 H 0.9845 0.1361 0.8002
N5 N 0.98880(17) 0.16679(16) 0.88336(17)
N6 N 0.93679(19) 0.13200(18) 0.89880(18)
H15 H 0.9237 0.1035 0.8727
C20 C 0.9054(2) 0.1403(2) 0.9527(2)
C21 C 0.8588(2) 0.0973(2) 0.9699(2)
H16 H 0.8496 0.0623 0.9447
N7 N 0.91841(19) 0.19121(17) 0.98830(18)
Ag2_2 Ag 1.0000 0.2500 0.96051(3)
C37 C 0.7461(2) 0.2529(2) 0.67193(19)
C38 C 0.7434(2) 0.3173(2) 0.6642(2)
H28 H 0.7597 0.3440 0.6953
C39 C 0.7166(2) 0.3426(2) 0.6106(2)
H29 H 0.7153 0.3864 0.6054
C40 C 0.6918(2) 0.3041(2) 0.5647(2)
C41 C 0.6953(2) 0.2401(2) 0.5729(2)
H30 H 0.6787 0.2134 0.5420
C42 C 0.7222(2) 0.2144(2) 0.6253(2)
H31 H 0.7246 0.1706 0.6296
C43 C 0.6612(2) 0.3279(2) 0.5079(2)
H32 H 0.6361 0.3002 0.4845
C44 C 0.6403(2) 0.4527(2) 0.4054(2)
C45 C 0.5973(2) 0.4699(2) 0.3588(2)
H33 H 0.5623 0.4447 0.3496
C46 C 0.6081(3) 0.5253(3) 0.3268(2)
H34 H 0.5794 0.5389 0.2962
C47 C 0.6597(3) 0.5602(3) 0.3392(3)
H35 H 0.6682 0.5972 0.3167
C48 C 0.6988(3) 0.5399(3) 0.3851(3)
Cl4 Cl 0.76407(9) 0.58350(9) 0.40489(11)
N11 N 0.7727(2) 0.2273(2) 0.7273(2)
N12 N 0.66679(16) 0.38336(17) 0.48880(17)
N13 N 0.63200(18) 0.39880(18) 0.43679(19)
H36 H 0.6035 0.3727 0.4237
N14 N 0.69121(17) 0.48830(18) 0.41841(19)
C49 C 0.82807(19) 0.2539(2) 0.7529(2)
C50 C 0.8358(2) 0.2566(2) 0.8173(2)
H37 H 0.8047 0.2403 0.8440
C51 C 0.8894(2) 0.2834(2) 0.8426(2)
H38 H 0.8946 0.2847 0.8864
C52 C 0.9353(2) 0.3082(2) 0.8041(2)
C53 C 0.9271(2) 0.3047(2) 0.7401(2)
H39 H 0.9580 0.3213 0.7134
C54 C 0.8747(2) 0.2778(2) 0.7144(2)
H40 H 0.8704 0.2754 0.6706
C55 C 0.9921(2) 0.3388(2) 0.8279(2)
C61 C 0.7471(2) 0.17193(19) 0.7539(2)
C62 C 0.6827(2) 0.1642(2) 0.7566(2)
H46 H 0.6560 0.1953 0.7403
C63 C 0.6574(2) 0.1106(2) 0.7834(2)
H47 H 0.6136 0.1054 0.7847
C64 C 0.6959(2) 0.0647(2) 0.8082(2)
C65 C 0.7599(2) 0.0729(2) 0.8047(2)
H48 H 0.7866 0.0420 0.8213
C66 C 0.7856(2) 0.1253(2) 0.7778(2)
H49 H 0.8294 0.1296 0.7754
C67 C 0.6721(2) 0.0079(2) 0.8388(2)
Ag4 Ag 0.7500 0.46051(3) 0.5000
Ag5 Ag 0.53949(3) 0.0000 0.7500
H50 H 0.6998 0.9845 0.8639
N18 N 0.61664(17) 0.98880(17) 0.83321(16)
N19 N 0.60120(18) 0.93679(19) 0.86800(18)
H51 H 0.6273 0.9237 0.8965
C68 C 0.5473(2) 0.9054(2) 0.8597(2)
C69 C 0.5301(2) 0.8588(2) 0.9027(2)
H52 H 0.5553 0.8496 0.9377
C70 C 0.4747(3) 0.8268(2) 0.8919(3)
H53 H 0.4611 0.7962 0.9206
C71 C 0.4398(3) 0.8392(3) 0.8403(3)
H54 H 0.4028 0.8167 0.8318
C72 C 0.4601(3) 0.8851(3) 0.8012(3)
Cl6 Cl 0.41650(9) 0.90489(11) 0.73593(9)
N20 N 0.51170(18) 0.91841(19) 0.80879(17)
Ag5_2 Ag 0.53949(3) 1.0000 0.7500
H50_2 H 0.8002 0.0155 0.3639
N18_2 N 0.88336(17) 0.01120(17) 0.33321(16)
N19_2 N 0.89880(18) 0.06321(19) 0.36800(18)
H51_2 H 0.8727 0.0763 0.3965
C68_2 C 0.9527(2) 0.0946(2) 0.3597(2)
C69_2 C 0.9699(2) 0.1412(2) 0.4027(2)
H52_2 H 0.9447 0.1504 0.4377
N20_2 N 0.98830(18) 0.08159(19) 0.30879(17)
Ag5_3 Ag 0.96051(3) 0.0000 0.2500
Ag1_2 Ag 0.2500 0.96051(3) 0.0000
C1_2 C 0.2461(2) 0.7529(2) 0.17193(19)
C2_2 C 0.2434(2) 0.8173(2) 0.1642(2)
H1_2 H 0.2597 0.8440 0.1953
C3_2 C 0.2166(2) 0.8426(2) 0.1106(2)
H2_2 H 0.2153 0.8864 0.1054
C4_2 C 0.1918(2) 0.8041(2) 0.0647(2)
C5_2 C 0.1953(2) 0.7401(2) 0.0729(2)
H3_2 H 0.1787 0.7134 0.0420
C6_2 C 0.2222(2) 0.7144(2) 0.1253(2)
H4_2 H 0.2246 0.6706 0.1296
C7_2 C 0.1612(2) 0.8279(2) 0.0079(2)
N1_2 N 0.2727(2) 0.7273(2) 0.2273(2)
C13_2 C 0.32807(19) 0.7539(2) 0.2529(2)
C14_2 C 0.3358(2) 0.7566(2) 0.3173(2)
H10_2 H 0.3047 0.7403 0.3440
C15_2 C 0.3894(2) 0.7834(2) 0.3426(2)
H11_2 H 0.3946 0.7847 0.3864
C16_2 C 0.4353(2) 0.8082(2) 0.3041(2)
C17_2 C 0.4271(2) 0.8047(2) 0.2401(2)
H12_2 H 0.4580 0.8213 0.2134
C18_2 C 0.3747(2) 0.7778(2) 0.2144(2)
H13_2 H 0.3704 0.7754 0.1706
C19_2 C 0.4921(2) 0.8388(2) 0.3279(2)
H14_2 H 0.5155 0.8639 0.3002
N5_2 N 0.51120(17) 0.83321(16) 0.38336(17)
N6_2 N 0.56321(19) 0.86800(18) 0.39880(18)
H15_2 H 0.5763 0.8965 0.3727
C20_2 C 0.5946(2) 0.8597(2) 0.4527(2)
C21_2 C 0.6412(2) 0.9027(2) 0.4699(2)
H16_2 H 0.6504 0.9377 0.4447
C22 C 0.6732(2) 0.8919(3) 0.5253(3)
H17 H 0.7038 0.9206 0.5389
C23 C 0.6608(3) 0.8403(3) 0.5602(3)
H18 H 0.6833 0.8318 0.5972
C24 C 0.6149(3) 0.8012(3) 0.5399(3)
Cl2 Cl 0.59511(11) 0.73593(9) 0.58350(9)
N7_2 N 0.58159(19) 0.80879(17) 0.48830(18)
C25_2 C 0.2471(2) 0.67193(19) 0.2539(2)
C26_2 C 0.1827(2) 0.6642(2) 0.2566(2)
H19_2 H 0.1560 0.6953 0.2403
C27_2 C 0.1574(2) 0.6106(2) 0.2834(2)
H20_2 H 0.1136 0.6054 0.2847
C28_2 C 0.1959(2) 0.5647(2) 0.3082(2)
C29_2 C 0.2599(2) 0.5729(2) 0.3047(2)
H21_2 H 0.2866 0.5420 0.3213
C30_2 C 0.2856(2) 0.6253(2) 0.2778(2)
H22_2 H 0.3294 0.6296 0.2754
C31_2 C 0.1721(2) 0.5079(2) 0.3388(2)
H23_2 H 0.1998 0.4845 0.3639
N8_2 N 0.11664(17) 0.48880(17) 0.33321(16)
N9_2 N 0.10120(18) 0.43679(19) 0.36800(18)
H24_2 H 0.1273 0.4237 0.3965
C32_2 C 0.0473(2) 0.4054(2) 0.3597(2)
C33_2 C 0.0301(2) 0.3588(2) 0.4027(2)
H25_2 H 0.0553 0.3496 0.4377
N10_2 N 0.01170(18) 0.41841(19) 0.30879(17)
Ag2_3 Ag 0.5000 0.7500 0.46051(3)
Ag3_2 Ag 0.03949(3) 0.5000 0.2500
C37_2 C 0.7539(2) 0.7471(2) 0.17193(19)
C38_2 C 0.7566(2) 0.6827(2) 0.1642(2)
H28_2 H 0.7403 0.6560 0.1953
C39_2 C 0.7834(2) 0.6574(2) 0.1106(2)
H29_2 H 0.7847 0.6136 0.1054
C40_2 C 0.8082(2) 0.6959(2) 0.0647(2)
C41_2 C 0.8047(2) 0.7599(2) 0.0729(2)
H30_2 H 0.8213 0.7866 0.0420
C42_2 C 0.7778(2) 0.7856(2) 0.1253(2)
H31_2 H 0.7754 0.8294 0.1296
C43_2 C 0.8388(2) 0.6721(2) 0.0079(2)
N11_2 N 0.7273(2) 0.7727(2) 0.2273(2)
C49_2 C 0.67193(19) 0.7461(2) 0.2529(2)
C50_2 C 0.6642(2) 0.7434(2) 0.3173(2)
H37_2 H 0.6953 0.7597 0.3440
C51_2 C 0.6106(2) 0.7166(2) 0.3426(2)
H38_2 H 0.6054 0.7153 0.3864
C52_2 C 0.5647(2) 0.6918(2) 0.3041(2)
C53_2 C 0.5729(2) 0.6953(2) 0.2401(2)
H39_2 H 0.5420 0.6787 0.2134
C54_2 C 0.6253(2) 0.7222(2) 0.2144(2)
H40_2 H 0.6296 0.7246 0.1706
C55_2 C 0.5079(2) 0.6612(2) 0.3279(2)
H41_2 H 0.4845 0.6361 0.3002
N15_2 N 0.48880(17) 0.66679(16) 0.38336(17)
N16_2 N 0.43679(19) 0.63200(18) 0.39880(18)
H42_2 H 0.4237 0.6035 0.3727
C56_2 C 0.4054(2) 0.6403(2) 0.4527(2)
C57_2 C 0.3588(2) 0.5973(2) 0.4699(2)
H43_2 H 0.3496 0.5623 0.4447
C58_2 C 0.3268(2) 0.6081(3) 0.5253(3)
H44_2 H 0.2962 0.5794 0.5389
C59_2 C 0.3392(3) 0.6597(3) 0.5602(3)
H45_2 H 0.3167 0.6682 0.5972
C60_2 C 0.3851(3) 0.6988(3) 0.5399(3)
Cl5_2 Cl 0.40489(11) 0.76407(9) 0.58350(9)
N17_2 N 0.41841(19) 0.69121(17) 0.48830(18)
C61_2 C 0.7529(2) 0.82807(19) 0.2539(2)
C62_2 C 0.8173(2) 0.8358(2) 0.2566(2)
H46_2 H 0.8440 0.8047 0.2403
C63_2 C 0.8426(2) 0.8894(2) 0.2834(2)
H47_2 H 0.8864 0.8946 0.2847
C64_2 C 0.8041(2) 0.9353(2) 0.3082(2)
C65_2 C 0.7401(2) 0.9271(2) 0.3047(2)
H48_2 H 0.7134 0.9580 0.3213
C66_2 C 0.7144(2) 0.8747(2) 0.2778(2)
H49_2 H 0.6706 0.8704 0.2754
C67_2 C 0.8279(2) 0.9921(2) 0.3388(2)
Ag4_2 Ag 0.7500 0.53949(3) 0.0000
Ag5_4 Ag 0.96051(3) 1.0000 0.2500
N21_2 N 0.33321(16) 0.88336(17) 0.01120(17)
N22_2 N 0.11664(17) 0.51120(17) 0.16679(16)
N23_2 N 0.30879(17) 0.98830(18) 0.08159(19)
N24_2 N 0.01170(18) 0.58159(19) 0.19121(17)
Ag1_3 Ag 0.2500 0.96051(3) 1.0000
H5_2 H 0.1361 0.8002 0.9845
C8_2 C 0.1403(2) 0.9527(2) 0.9054(2)
C9_2 C 0.0973(2) 0.9699(2) 0.8588(2)
H6_2 H 0.0623 0.9447 0.8496
N2_2 N 0.16679(16) 0.88336(17) 0.98880(17)
N3_2 N 0.13200(18) 0.89880(18) 0.93679(19)
H9_2 H 0.1035 0.8727 0.9237
N4_2 N 0.19121(17) 0.98830(18) 0.91841(19)
H32_2 H 0.8639 0.6998 0.9845
C44_2 C 0.8597(2) 0.5473(2) 0.9054(2)
C45_2 C 0.9027(2) 0.5301(2) 0.8588(2)
H33_2 H 0.9377 0.5553 0.8496
C46_2 C 0.8919(3) 0.4747(3) 0.8268(2)
H34_2 H 0.9206 0.4611 0.7962
C47_2 C 0.8403(3) 0.4398(3) 0.8392(3)
H35_2 H 0.8318 0.4028 0.8167
C48_2 C 0.8012(3) 0.4601(3) 0.8851(3)
Cl4_2 Cl 0.73593(9) 0.41650(9) 0.90489(11)
N12_2 N 0.83321(16) 0.61664(17) 0.98880(17)
N13_2 N 0.86800(18) 0.60120(18) 0.93679(19)
H36_2 H 0.8965 0.6273 0.9237
N14_2 N 0.80879(17) 0.51170(18) 0.91841(19)
Ag4_3 Ag 0.7500 0.53949(3) 1.0000
C34_2 C 0.9747(3) 0.3268(2) 0.3919(3)
H26_2 H 0.9611 0.2962 0.4206
C35_2 C 0.9398(3) 0.3392(3) 0.3403(3)
H27_2 H 0.9028 0.3167 0.3318
C36_2 C 0.9601(3) 0.3851(3) 0.3012(3)
Cl3_2 Cl 0.91650(9) 0.40489(11) 0.23593(9)
H32_3 H 0.3639 0.8002 0.0155
C44_3 C 0.3597(2) 0.9527(2) 0.0946(2)
C45_3 C 0.4027(2) 0.9699(2) 0.1412(2)
H33_3 H 0.4377 0.9447 0.1504
N13_3 N 0.36800(18) 0.89880(18) 0.06321(19)
H36_3 H 0.3965 0.8727 0.0763
H14_3 H 0.0155 0.6361 0.6998
N5_3 N 0.01120(17) 0.66679(16) 0.61664(17)
N6_3 N 0.06321(19) 0.63200(18) 0.60120(18)
H15_3 H 0.0763 0.6035 0.6273
C20_3 C 0.0946(2) 0.6403(2) 0.5473(2)
C21_3 C 0.1412(2) 0.5973(2) 0.5301(2)
H16_3 H 0.1504 0.5623 0.5553
C22_2 C 0.1732(2) 0.6081(3) 0.4747(3)
H17_2 H 0.2038 0.5794 0.4611
C23_2 C 0.1608(3) 0.6597(3) 0.4398(3)
H18_2 H 0.1833 0.6682 0.4028
C24_2 C 0.1149(3) 0.6988(3) 0.4601(3)
Cl2_2 Cl 0.09511(11) 0.76407(9) 0.41650(9)
N7_3 N 0.08159(19) 0.69121(17) 0.51170(18)
Ag2_4 Ag 0.0000 0.7500 0.53949(3)
C37_3 C 0.2539(2) 0.7529(2) 0.82807(19)
C38_3 C 0.2566(2) 0.8173(2) 0.8358(2)
H28_3 H 0.2403 0.8440 0.8047
C39_3 C 0.2834(2) 0.8426(2) 0.8894(2)
H29_3 H 0.2847 0.8864 0.8946
C40_3 C 0.3082(2) 0.8041(2) 0.9353(2)
C41_3 C 0.3047(2) 0.7401(2) 0.9271(2)
H30_3 H 0.3213 0.7134 0.9580
C42_3 C 0.2778(2) 0.7144(2) 0.8747(2)
H31_3 H 0.2754 0.6706 0.8704
C43_3 C 0.3388(2) 0.8279(2) 0.9921(2)
N11_3 N 0.2273(2) 0.7273(2) 0.7727(2)
C49_3 C 0.17193(19) 0.7539(2) 0.7471(2)
C50_3 C 0.1642(2) 0.7566(2) 0.6827(2)
H37_3 H 0.1953 0.7403 0.6560
C51_3 C 0.1106(2) 0.7834(2) 0.6574(2)
H38_3 H 0.1054 0.7847 0.6136
C52_3 C 0.0647(2) 0.8082(2) 0.6959(2)
C53_3 C 0.0729(2) 0.8047(2) 0.7599(2)
H39_3 H 0.0420 0.8213 0.7866
C54_3 C 0.1253(2) 0.7778(2) 0.7856(2)
H40_3 H 0.1296 0.7754 0.8294
C55_3 C 0.0079(2) 0.8388(2) 0.6721(2)
C61_3 C 0.2529(2) 0.67193(19) 0.7461(2)
C62_3 C 0.3173(2) 0.6642(2) 0.7434(2)
H46_3 H 0.3440 0.6953 0.7597
C63_3 C 0.3426(2) 0.6106(2) 0.7166(2)
H47_3 H 0.3864 0.6054 0.7153
C64_3 C 0.3041(2) 0.5647(2) 0.6918(2)
C65_3 C 0.2401(2) 0.5729(2) 0.6953(2)
H48_3 H 0.2134 0.5420 0.6787
C66_3 C 0.2144(2) 0.6253(2) 0.7222(2)
H49_3 H 0.1706 0.6296 0.7246
C67_3 C 0.3279(2) 0.5079(2) 0.6612(2)
H50_3 H 0.3002 0.4845 0.6361
N19_3 N 0.39880(18) 0.43679(19) 0.63200(18)
H51_3 H 0.3727 0.4237 0.6035
C68_3 C 0.4527(2) 0.4054(2) 0.6403(2)
C69_3 C 0.4699(2) 0.3588(2) 0.5973(2)
H52_3 H 0.4447 0.3496 0.5623
C70_2 C 0.5253(3) 0.3268(2) 0.6081(3)
H53_2 H 0.5389 0.2962 0.5794
C71_2 C 0.5602(3) 0.3392(3) 0.6597(3)
H54_2 H 0.5972 0.3167 0.6682
C72_2 C 0.5399(3) 0.3851(3) 0.6988(3)
Cl6_2 Cl 0.58350(9) 0.40489(11) 0.76407(9)
H23_3 H 0.6998 0.0155 0.6361
N8_3 N 0.61664(17) 0.01120(17) 0.66679(16)
N9_3 N 0.60120(18) 0.06321(19) 0.63200(18)
H24_3 H 0.6273 0.0763 0.6035
C32_3 C 0.5473(2) 0.0946(2) 0.6403(2)
C33_3 C 0.5301(2) 0.1412(2) 0.5973(2)
H25_3 H 0.5553 0.1504 0.5623
C34_3 C 0.4747(3) 0.1732(2) 0.6081(3)
H26_3 H 0.4611 0.2038 0.5794
C35_3 C 0.4398(3) 0.1608(3) 0.6597(3)
H27_3 H 0.4028 0.1833 0.6682
C36_3 C 0.4601(3) 0.1149(3) 0.6988(3)
Cl3_3 Cl 0.41650(9) 0.09511(11) 0.76407(9)
N10_3 N 0.51170(18) 0.08159(19) 0.69121(17)
H5_3 H 0.6361 0.6998 0.0155
C8_3 C 0.6403(2) 0.5473(2) 0.0946(2)
C9_3 C 0.5973(2) 0.5301(2) 0.1412(2)
H6_3 H 0.5623 0.5553 0.1504
C10_2 C 0.6081(3) 0.4747(3) 0.1732(2)
H7_2 H 0.5794 0.4611 0.2038
C11_2 C 0.6597(3) 0.4398(3) 0.1608(3)
H8_2 H 0.6682 0.4028 0.1833
C12_2 C 0.6988(3) 0.4601(3) 0.1149(3)
Cl1_2 Cl 0.76407(9) 0.41650(9) 0.09511(11)
N2_3 N 0.66679(16) 0.61664(17) 0.01120(17)
N3_3 N 0.63200(18) 0.60120(18) 0.06321(19)
H9_3 H 0.6035 0.6273 0.0763
N4_3 N 0.69121(17) 0.51170(18) 0.08159(19)
C1_3 C 0.7461(2) 0.7471(2) 0.82807(19)
C2_3 C 0.7434(2) 0.6827(2) 0.8358(2)
H1_3 H 0.7597 0.6560 0.8047
C3_3 C 0.7166(2) 0.6574(2) 0.8894(2)
H2_3 H 0.7153 0.6136 0.8946
C4_3 C 0.6918(2) 0.6959(2) 0.9353(2)
C5_3 C 0.6953(2) 0.7599(2) 0.9271(2)
H3_3 H 0.6787 0.7866 0.9580
C6_3 C 0.7222(2) 0.7856(2) 0.8747(2)
H4_3 H 0.7246 0.8294 0.8704
C7_3 C 0.6612(2) 0.6721(2) 0.9921(2)
N1_3 N 0.7727(2) 0.7727(2) 0.7727(2)
C13_3 C 0.82807(19) 0.7461(2) 0.7471(2)
C14_3 C 0.8358(2) 0.7434(2) 0.6827(2)
H10_3 H 0.8047 0.7597 0.6560
C15_3 C 0.8894(2) 0.7166(2) 0.6574(2)
H11_3 H 0.8946 0.7153 0.6136
C16_3 C 0.9353(2) 0.6918(2) 0.6959(2)
C17_3 C 0.9271(2) 0.6953(2) 0.7599(2)
H12_3 H 0.9580 0.6787 0.7866
C18_3 C 0.8747(2) 0.7222(2) 0.7856(2)
H13_3 H 0.8704 0.7246 0.8294
C19_3 C 0.9921(2) 0.6612(2) 0.6721(2)
C25_3 C 0.7471(2) 0.82807(19) 0.7461(2)
C26_3 C 0.6827(2) 0.8358(2) 0.7434(2)
H19_3 H 0.6560 0.8047 0.7597
C27_3 C 0.6574(2) 0.8894(2) 0.7166(2)
H20_3 H 0.6136 0.8946 0.7153
C28_3 C 0.6959(2) 0.9353(2) 0.6918(2)
C29_3 C 0.7599(2) 0.9271(2) 0.6953(2)
H21_3 H 0.7866 0.9580 0.6787
C30_3 C 0.7856(2) 0.8747(2) 0.7222(2)
H22_3 H 0.8294 0.8704 0.7246
C31_3 C 0.6721(2) 0.9921(2) 0.6612(2)
Ag2_5 Ag 1.0000 0.7500 0.53949(3)
H41_3 H 0.9845 0.8639 0.6998
N15_3 N 0.98880(17) 0.83321(16) 0.61664(17)
N16_3 N 0.93679(19) 0.86800(18) 0.60120(18)
H42_3 H 0.9237 0.8965 0.6273
C56_3 C 0.9054(2) 0.8597(2) 0.5473(2)
C57_3 C 0.8588(2) 0.9027(2) 0.5301(2)
H43_3 H 0.8496 0.9377 0.5553
C58_3 C 0.8268(2) 0.8919(3) 0.4747(3)
H44_3 H 0.7962 0.9206 0.4611
C59_3 C 0.8392(3) 0.8403(3) 0.4398(3)
H45_3 H 0.8167 0.8318 0.4028
C60_3 C 0.8851(3) 0.8012(3) 0.4601(3)
Cl5_3 Cl 0.90489(11) 0.73593(9) 0.41650(9)
N17_3 N 0.91841(19) 0.80879(17) 0.51170(18)
C1_4 C 0.7539(2) 0.2529(2) 0.32807(19)
C2_4 C 0.7566(2) 0.3173(2) 0.3358(2)
H1_4 H 0.7403 0.3440 0.3047
C3_4 C 0.7834(2) 0.3426(2) 0.3894(2)
H2_4 H 0.7847 0.3864 0.3946
C4_4 C 0.8082(2) 0.3041(2) 0.4353(2)
C5_4 C 0.8047(2) 0.2401(2) 0.4271(2)
H3_4 H 0.8213 0.2134 0.4580
C6_4 C 0.7778(2) 0.2144(2) 0.3747(2)
H4_4 H 0.7754 0.1706 0.3704
C7_4 C 0.8388(2) 0.3279(2) 0.4921(2)
H5_4 H 0.8639 0.3002 0.5155
C8_4 C 0.8597(2) 0.4527(2) 0.5946(2)
C9_4 C 0.9027(2) 0.4699(2) 0.6412(2)
H6_4 H 0.9377 0.4447 0.6504
C10_3 C 0.8919(3) 0.5253(3) 0.6732(2)
H7_3 H 0.9206 0.5389 0.7038
C11_3 C 0.8403(3) 0.5602(3) 0.6608(3)
H8_3 H 0.8318 0.5972 0.6833
C12_3 C 0.8012(3) 0.5399(3) 0.6149(3)
Cl1_3 Cl 0.73593(9) 0.58350(9) 0.59511(11)
N1_4 N 0.7273(2) 0.2273(2) 0.2727(2)
N2_4 N 0.83321(16) 0.38336(17) 0.51120(17)
N3_4 N 0.86800(18) 0.39880(18) 0.56321(19)
H9_4 H 0.8965 0.3727 0.5763
N4_4 N 0.80879(17) 0.48830(18) 0.58159(19)
C13_4 C 0.67193(19) 0.2539(2) 0.2471(2)
C14_4 C 0.6642(2) 0.2566(2) 0.1827(2)
H10_4 H 0.6953 0.2403 0.1560
C15_4 C 0.6106(2) 0.2834(2) 0.1574(2)
H11_4 H 0.6054 0.2847 0.1136
C16_4 C 0.5647(2) 0.3082(2) 0.1959(2)
C17_4 C 0.5729(2) 0.3047(2) 0.2599(2)
H12_4 H 0.5420 0.3213 0.2866
C18_4 C 0.6253(2) 0.2778(2) 0.2856(2)
H13_4 H 0.6296 0.2754 0.3294
C19_4 C 0.5079(2) 0.3388(2) 0.1721(2)
H14_4 H 0.4845 0.3639 0.1998
N5_4 N 0.48880(17) 0.33321(16) 0.11664(17)
N6_4 N 0.43679(19) 0.36800(18) 0.10120(18)
H15_4 H 0.4237 0.3965 0.1273
C20_4 C 0.4054(2) 0.3597(2) 0.0473(2)
C21_4 C 0.3588(2) 0.4027(2) 0.0301(2)
H16_4 H 0.3496 0.4377 0.0553
N7_4 N 0.41841(19) 0.30879(17) 0.01170(18)
C25_4 C 0.7529(2) 0.17193(19) 0.2461(2)
C26_4 C 0.8173(2) 0.1642(2) 0.2434(2)
H19_4 H 0.8440 0.1953 0.2597
C27_4 C 0.8426(2) 0.1106(2) 0.2166(2)
H20_4 H 0.8864 0.1054 0.2153
C28_4 C 0.8041(2) 0.0647(2) 0.1918(2)
C29_4 C 0.7401(2) 0.0729(2) 0.1953(2)
H21_4 H 0.7134 0.0420 0.1787
C30_4 C 0.7144(2) 0.1253(2) 0.2222(2)
H22_4 H 0.6706 0.1296 0.2246
C31_4 C 0.8279(2) 0.0079(2) 0.1612(2)
Ag2_6 Ag 0.5000 0.2500 0.03949(3)
C37_4 C 0.2461(2) 0.2471(2) 0.32807(19)
C38_4 C 0.2434(2) 0.1827(2) 0.3358(2)
H28_4 H 0.2597 0.1560 0.3047
C39_4 C 0.2166(2) 0.1574(2) 0.3894(2)
H29_4 H 0.2153 0.1136 0.3946
C40_4 C 0.1918(2) 0.1959(2) 0.4353(2)
C41_4 C 0.1953(2) 0.2599(2) 0.4271(2)
H30_4 H 0.1787 0.2866 0.4580
C42_4 C 0.2222(2) 0.2856(2) 0.3747(2)
H31_4 H 0.2246 0.3294 0.3704
C43_4 C 0.1612(2) 0.1721(2) 0.4921(2)
H32_4 H 0.1361 0.1998 0.5155
C44_4 C 0.1403(2) 0.0473(2) 0.5946(2)
C45_4 C 0.0973(2) 0.0301(2) 0.6412(2)
H33_4 H 0.0623 0.0553 0.6504
N11_4 N 0.2727(2) 0.2727(2) 0.2727(2)
N13_4 N 0.13200(18) 0.10120(18) 0.56321(19)
H36_4 H 0.1035 0.1273 0.5763
C49_4 C 0.32807(19) 0.2461(2) 0.2471(2)
C50_4 C 0.3358(2) 0.2434(2) 0.1827(2)
H37_4 H 0.3047 0.2597 0.1560
C51_4 C 0.3894(2) 0.2166(2) 0.1574(2)
H38_4 H 0.3946 0.2153 0.1136
C52_4 C 0.4353(2) 0.1918(2) 0.1959(2)
C53_4 C 0.4271(2) 0.1953(2) 0.2599(2)
H39_4 H 0.4580 0.1787 0.2866
C54_4 C 0.3747(2) 0.2222(2) 0.2856(2)
H40_4 H 0.3704 0.2246 0.3294
C55_4 C 0.4921(2) 0.1612(2) 0.1721(2)
H41_4 H 0.5155 0.1361 0.1998
N15_4 N 0.51120(17) 0.16679(16) 0.11664(17)
N16_4 N 0.56321(19) 0.13200(18) 0.10120(18)
H42_4 H 0.5763 0.1035 0.1273
C56_4 C 0.5946(2) 0.1403(2) 0.0473(2)
C57_4 C 0.6412(2) 0.0973(2) 0.0301(2)
H43_4 H 0.6504 0.0623 0.0553
N17_4 N 0.58159(19) 0.19121(17) 0.01170(18)
C61_4 C 0.2471(2) 0.32807(19) 0.2461(2)
C62_4 C 0.1827(2) 0.3358(2) 0.2434(2)
H46_4 H 0.1560 0.3047 0.2597
C63_4 C 0.1574(2) 0.3894(2) 0.2166(2)
H47_4 H 0.1136 0.3946 0.2153
C64_4 C 0.1959(2) 0.4353(2) 0.1918(2)
C65_4 C 0.2599(2) 0.4271(2) 0.1953(2)
H48_4 H 0.2866 0.4580 0.1787
C66_4 C 0.2856(2) 0.3747(2) 0.2222(2)
H49_4 H 0.3294 0.3704 0.2246
C67_4 C 0.1721(2) 0.4921(2) 0.1612(2)
H50_4 H 0.1998 0.5155 0.1361
N19_4 N 0.10120(18) 0.56321(19) 0.13200(18)
H51_4 H 0.1273 0.5763 0.1035
C68_4 C 0.0473(2) 0.5946(2) 0.1403(2)
C69_4 C 0.0301(2) 0.6412(2) 0.0973(2)
H52_4 H 0.0553 0.6504 0.0623
C22_3 C 0.3268(2) 0.3919(3) 0.9747(3)
H17_3 H 0.2962 0.4206 0.9611
C23_3 C 0.3392(3) 0.3403(3) 0.9398(3)
H18_3 H 0.3167 0.3318 0.9028
C24_3 C 0.3851(3) 0.3012(3) 0.9601(3)
Cl2_3 Cl 0.40489(11) 0.23593(9) 0.91650(9)
C58_4 C 0.6732(2) 0.1081(3) 0.9747(3)
H44_4 H 0.7038 0.0794 0.9611
C59_4 C 0.6608(3) 0.1597(3) 0.9398(3)
H45_4 H 0.6833 0.1682 0.9028
C60_4 C 0.6149(3) 0.1988(3) 0.9601(3)
Cl5_4 Cl 0.59511(11) 0.26407(9) 0.91650(9)
H23_4 H 0.8002 0.9845 0.1361
N8_4 N 0.88336(17) 0.98880(17) 0.16679(16)
N9_4 N 0.89880(18) 0.93679(19) 0.13200(18)
H24_4 H 0.8727 0.9237 0.1035
C32_4 C 0.9527(2) 0.9054(2) 0.1403(2)
C33_4 C 0.9699(2) 0.8588(2) 0.0973(2)
H25_4 H 0.9447 0.8496 0.0623
N10_4 N 0.98830(18) 0.91841(19) 0.19121(17)
C46_3 C 0.1081(3) 0.9747(3) 0.6732(2)
H34_3 H 0.0794 0.9611 0.7038
C47_3 C 0.1597(3) 0.9398(3) 0.6608(3)
H35_3 H 0.1682 0.9028 0.6833
C48_3 C 0.1988(3) 0.9601(3) 0.6149(3)
Cl4_3 Cl 0.26407(9) 0.91650(9) 0.59511(11)
C70_3 C 0.9747(3) 0.6732(2) 0.1081(3)
H53_3 H 0.9611 0.7038 0.0794
C71_3 C 0.9398(3) 0.6608(3) 0.1597(3)
H54_3 H 0.9028 0.6833 0.1682
C72_3 C 0.9601(3) 0.6149(3) 0.1988(3)
Cl6_3 Cl 0.91650(9) 0.59511(11) 0.26407(9)
C22_4 C 0.8268(2) 0.1081(3) 0.0253(3)
H17_4 H 0.7962 0.0794 0.0389
C23_4 C 0.8392(3) 0.1597(3) 0.0602(3)
H18_4 H 0.8167 0.1682 0.0972
C24_4 C 0.8851(3) 0.1988(3) 0.0399(3)
Cl2_4 Cl 0.90489(11) 0.26407(9) 0.08350(9)
C70_4 C 0.0253(3) 0.1732(2) 0.3919(3)
H53_4 H 0.0389 0.2038 0.4206
C71_4 C 0.0602(3) 0.1608(3) 0.3403(3)
H54_4 H 0.0972 0.1833 0.3318
C72_4 C 0.0399(3) 0.1149(3) 0.3012(3)
Cl6_4 Cl 0.08350(9) 0.09511(11) 0.23593(9)
C10_4 C 0.1081(3) 0.0253(3) 0.8268(2)
H7_4 H 0.0794 0.0389 0.7962
C11_4 C 0.1597(3) 0.0602(3) 0.8392(3)
H8_4 H 0.1682 0.0972 0.8167
C12_4 C 0.1988(3) 0.0399(3) 0.8851(3)
Cl1_4 Cl 0.26407(9) 0.08350(9) 0.90489(11)
C46_4 C 0.3919(3) 0.0253(3) 0.1732(2)
H34_4 H 0.4206 0.0389 0.2038
C47_4 C 0.3403(3) 0.0602(3) 0.1608(3)
H35_4 H 0.3318 0.0972 0.1833
C48_4 C 0.3012(3) 0.0399(3) 0.1149(3)
Cl4_4 Cl 0.23593(9) 0.08350(9) 0.09511(11)
C34_4 C 0.0253(3) 0.8268(2) 0.1081(3)
H26_4 H 0.0389 0.7962 0.0794
C35_4 C 0.0602(3) 0.8392(3) 0.1597(3)
H27_4 H 0.0972 0.8167 0.1682
C36_4 C 0.0399(3) 0.8851(3) 0.1988(3)
Cl3_4 Cl 0.08350(9) 0.90489(11) 0.26407(9)
Cl7 Cl 0.93815(7) 0.0000 0.7500
O3 O 0.97620(17) 0.04907(17) 0.72626(18)
O4 O 0.90098(18) 0.02400(19) 0.7997(2)
Cl7_2 Cl 0.93815(7) 1.0000 0.7500
O1 O 0.97620(17) 0.95093(17) 0.77374(18)
O2 O 0.90098(18) 0.97600(19) 0.7003(2)
Cl7_3 Cl 0.56185(7) 0.0000 0.2500
O1_2 O 0.52380(17) 0.04907(17) 0.27374(18)
O2_2 O 0.59902(18) 0.02400(19) 0.2003(2)
Cl7_4 Cl 0.56185(7) 1.0000 0.2500
O3_2 O 0.52380(17) 0.95093(17) 0.22626(18)
O4_2 O 0.59902(18) 0.97600(19) 0.2997(2)
Cl7_5 Cl 0.06185(7) 0.5000 0.7500
O1_3 O 0.02380(17) 0.45093(17) 0.72626(18)
O2_3 O 0.09902(18) 0.47600(19) 0.7997(2)
O3_3 O 0.02380(17) 0.54907(17) 0.77374(18)
O4_3 O 0.09902(18) 0.52400(19) 0.7003(2)
Cl7_6 Cl 0.43815(7) 0.5000 0.2500
O1_4 O 0.47620(17) 0.54907(17) 0.22626(18)
O2_4 O 0.40098(18) 0.52400(19) 0.2997(2)
O3_4 O 0.47620(17) 0.45093(17) 0.27374(18)
O4_4 O 0.40098(18) 0.47600(19) 0.2003(2)
Cl7_7 Cl 0.7500 0.93815(7) 0.0000
O3_5 O 0.72626(18) 0.97620(17) 0.04907(17)
O4_5 O 0.7997(2) 0.90098(18) 0.02400(19)
Cl7_8 Cl 0.7500 0.93815(7) 1.0000
O1_5 O 0.77374(18) 0.97620(17) 0.95093(17)
O2_5 O 0.7003(2) 0.90098(18) 0.97600(19)
Cl7_9 Cl 0.2500 0.56185(7) 0.0000
O1_6 O 0.27374(18) 0.52380(17) 0.04907(17)
O2_6 O 0.2003(2) 0.59902(18) 0.02400(19)
Cl7_10 Cl 0.2500 0.56185(7) 1.0000
O3_6 O 0.22626(18) 0.52380(17) 0.95093(17)
O4_6 O 0.2997(2) 0.59902(18) 0.97600(19)
Cl7_11 Cl 0.7500 0.06185(7) 0.5000
O1_7 O 0.72626(18) 0.02380(17) 0.45093(17)
O2_7 O 0.7997(2) 0.09902(18) 0.47600(19)
O3_7 O 0.77374(18) 0.02380(17) 0.54907(17)
O4_7 O 0.7003(2) 0.09902(18) 0.52400(19)
Cl7_12 Cl 0.2500 0.43815(7) 0.5000
O1_8 O 0.22626(18) 0.47620(17) 0.54907(17)
O2_8 O 0.2997(2) 0.40098(18) 0.52400(19)
O3_8 O 0.27374(18) 0.47620(17) 0.45093(17)
O4_8 O 0.2003(2) 0.40098(18) 0.47600(19)
Cl7_13 Cl -0.0000 0.7500 0.93815(7)
O3_9 O 0.04907(17) 0.72626(18) 0.97620(17)
O4_9 O 0.02400(19) 0.7997(2) 0.90098(18)
Cl7_14 Cl 1.0000 0.7500 0.93815(7)
O1_9 O 0.95093(17) 0.77374(18) 0.97620(17)
O2_9 O 0.97600(19) 0.7003(2) 0.90098(18)
Cl7_15 Cl 0.0000 0.2500 0.56185(7)
O1_10 O 0.04907(17) 0.27374(18) 0.52380(17)
O2_10 O 0.02400(19) 0.2003(2) 0.59902(18)
Cl7_16 Cl 1.0000 0.2500 0.56185(7)
O3_10 O 0.95093(17) 0.22626(18) 0.52380(17)
O4_10 O 0.97600(19) 0.2997(2) 0.59902(18)
Cl7_17 Cl 0.5000 0.7500 0.06185(7)
O1_11 O 0.45093(17) 0.72626(18) 0.02380(17)
O2_11 O 0.47600(19) 0.7997(2) 0.09902(18)
O3_11 O 0.54907(17) 0.77374(18) 0.02380(17)
O4_11 O 0.52400(19) 0.7003(2) 0.09902(18)
Cl7_18 Cl 0.5000 0.2500 0.43815(7)
O1_12 O 0.54907(17) 0.22626(18) 0.47620(17)
O2_12 O 0.52400(19) 0.2997(2) 0.40098(18)
O3_12 O 0.45093(17) 0.27374(18) 0.47620(17)
O4_12 O 0.47600(19) 0.2003(2) 0.40098(18)
loop_
_geom_bond_atom_site_label_1
_geom_bond_atom_site_label_2
_geom_bond_site_symmetry_1
_geom_bond_site_symmetry_2
H44 C58 1_555 1_555
C59 C58 1_555 1_555
H45 C59 1_555 1_555
C60 C59 1_555 1_555
Cl5 C60 1_555 1_555
Ag1 N2 1_555 1_555
C1 C2 1_555 1_555
C2 H1 1_555 1_555
C3 C2 1_555 1_555
H2 C3 1_555 1_555
C4 C3 1_555 1_555
C5 C4 1_555 1_555
H3 C5 1_555 1_555
C6 C1 1_555 1_555
H4 C6 1_555 1_555
C7 C4 1_555 1_555
H5 C7 1_555 1_555
C8 C9 1_555 1_555
C9 H6 1_555 1_555
N1 C1 1_555 1_555
N2 C7 1_555 1_555
N3 C8 1_555 1_555
H9 N3 1_555 1_555
N4 Ag1 1_555 1_555
C13 N1 1_555 1_555
C14 C13 1_555 1_555
H10 C14 1_555 1_555
C15 C14 1_555 1_555
H11 C15 1_555 1_555
C16 C15 1_555 1_555
C17 C16 1_555 1_555
H12 C17 1_555 1_555
C18 C13 1_555 1_555
H13 C18 1_555 1_555
C19 C16 1_555 1_555
C25 N1 1_555 1_555
C26 C25 1_555 1_555
H19 C26 1_555 1_555
C27 C26 1_555 1_555
H20 C27 1_555 1_555
C28 C27 1_555 1_555
C29 C28 1_555 1_555
H21 C29 1_555 1_555
C30 C25 1_555 1_555
H22 C30 1_555 1_555
C31 C28 1_555 1_555
H23 C31 1_555 1_555
N8 C31 1_555 1_555
N9 N8 1_555 1_555
H24 N9 1_555 1_555
C32 N9 1_555 1_555
C33 C32 1_555 1_555
H25 C33 1_555 1_555
C34 C33 1_555 1_555
H26 C34 1_555 1_555
C35 C34 1_555 1_555
H27 C35 1_555 1_555
C36 C35 1_555 1_555
Cl3 C36 1_555 1_555
N10 C32 1_555 1_555
Ag3 N8 1_555 1_555
N15 Ag2 1_555 1_555
N16 N15 1_555 1_555
H42 N16 1_555 1_555
C56 N16 1_555 1_555
C57 C56 1_555 1_555
H43 C57 1_555 1_555
N17 Ag2 1_555 1_555
N21 Ag1 1_555 1_555
N22 Ag3 1_555 1_555
N23 Ag1 1_555 1_555
N24 Ag3 1_555 1_555
C5 C6 1_555 1_555
C8 N4 1_555 1_555
N2 N3 1_555 1_555
C17 C18 1_555 1_555
C29 C30 1_555 1_555
C36 N10 1_555 1_555
N10 Ag3 1_555 1_555
C56 N17 1_555 1_555
H7 C10 1_555 1_555
C11 C10 1_555 1_555
H8 C11 1_555 1_555
C12 C11 1_555 1_555
Cl1 C12 1_555 1_555
N6 N5 1_555 1_555
H15 N6 1_555 1_555
C20 N6 1_555 1_555
C21 C20 1_555 1_555
H16 C21 1_555 1_555
N7 C20 1_555 1_555
Ag2_2 N5 1_555 1_555
C37 C38 1_555 1_555
C38 H28 1_555 1_555
C39 C38 1_555 1_555
H29 C39 1_555 1_555
C40 C39 1_555 1_555
C41 C40 1_555 1_555
H30 C41 1_555 1_555
C42 C37 1_555 1_555
H31 C42 1_555 1_555
C43 C40 1_555 1_555
H32 C43 1_555 1_555
C44 C45 1_555 1_555
C45 H33 1_555 1_555
C46 C45 1_555 1_555
H34 C46 1_555 1_555
C47 C46 1_555 1_555
H35 C47 1_555 1_555
C48 C47 1_555 1_555
Cl4 C48 1_555 1_555
N11 C37 1_555 1_555
N12 C43 1_555 1_555
N13 C44 1_555 1_555
H36 N13 1_555 1_555
N14 C44 1_555 1_555
C49 N11 1_555 1_555
C50 C49 1_555 1_555
H37 C50 1_555 1_555
C51 C50 1_555 1_555
H38 C51 1_555 1_555
C52 C51 1_555 1_555
C53 C52 1_555 1_555
H39 C53 1_555 1_555
C54 C49 1_555 1_555
H40 C54 1_555 1_555
C55 C52 1_555 1_555
C61 N11 1_555 1_555
C62 C61 1_555 1_555
H46 C62 1_555 1_555
C63 C62 1_555 1_555
H47 C63 1_555 1_555
C64 C63 1_555 1_555
C65 C64 1_555 1_555
H48 C65 1_555 1_555
C66 C61 1_555 1_555
H49 C66 1_555 1_555
C67 C64 1_555 1_555
Ag4 N12 1_555 1_555
N7 Ag2_2 1_555 1_555
C41 C42 1_555 1_555
C48 N14 1_555 1_555
N12 N13 1_555 1_555
N14 Ag4 1_555 1_555
C53 C54 1_555 1_555
C65 C66 1_555 1_555
N19 N18 1_555 1_555
H51 N19 1_555 1_555
C68 N19 1_555 1_555
C69 C68 1_555 1_555
H52 C69 1_555 1_555
C70 C69 1_555 1_555
H53 C70 1_555 1_555
C71 C70 1_555 1_555
H54 C71 1_555 1_555
C72 C71 1_555 1_555
Cl6 C72 1_555 1_555
N20 C68 1_555 1_555
Ag5_2 N18 1_555 1_555
C72 N20 1_555 1_555
N20 Ag5_2 1_555 1_555
N19_2 N18_2 1_555 1_555
H51_2 N19_2 1_555 1_555
C68_2 N19_2 1_555 1_555
C69_2 C68_2 1_555 1_555
H52_2 C69_2 1_555 1_555
N20_2 C68_2 1_555 1_555
Ag5_3 N18_2 1_555 1_555
N20_2 Ag5_3 1_555 1_555
C1_2 C2_2 1_555 1_555
C2_2 H1_2 1_555 1_555
C3_2 C2_2 1_555 1_555
H2_2 C3_2 1_555 1_555
C4_2 C3_2 1_555 1_555
C5_2 C4_2 1_555 1_555
H3_2 C5_2 1_555 1_555
C6_2 C1_2 1_555 1_555
H4_2 C6_2 1_555 1_555
C7_2 C4_2 1_555 1_555
N1_2 C1_2 1_555 1_555
C13_2 N1_2 1_555 1_555
C14_2 C13_2 1_555 1_555
H10_2 C14_2 1_555 1_555
C15_2 C14_2 1_555 1_555
H11_2 C15_2 1_555 1_555
C16_2 C15_2 1_555 1_555
C17_2 C16_2 1_555 1_555
H12_2 C17_2 1_555 1_555
C18_2 C13_2 1_555 1_555
H13_2 C18_2 1_555 1_555
C19_2 C16_2 1_555 1_555
H14_2 C19_2 1_555 1_555
N5_2 C19_2 1_555 1_555
N6_2 N5_2 1_555 1_555
H15_2 N6_2 1_555 1_555
C20_2 N6_2 1_555 1_555
C21_2 C20_2 1_555 1_555
H16_2 C21_2 1_555 1_555
C22 C21_2 1_555 1_555
H17 C22 1_555 1_555
C23 C22 1_555 1_555
H18 C23 1_555 1_555
C24 C23 1_555 1_555
Cl2 C24 1_555 1_555
N7_2 C20_2 1_555 1_555
C25_2 N1_2 1_555 1_555
C26_2 C25_2 1_555 1_555
H19_2 C26_2 1_555 1_555
C27_2 C26_2 1_555 1_555
H20_2 C27_2 1_555 1_555
C28_2 C27_2 1_555 1_555
C29_2 C28_2 1_555 1_555
H21_2 C29_2 1_555 1_555
C30_2 C25_2 1_555 1_555
H22_2 C30_2 1_555 1_555
C31_2 C28_2 1_555 1_555
H23_2 C31_2 1_555 1_555
N8_2 C31_2 1_555 1_555
N9_2 N8_2 1_555 1_555
H24_2 N9_2 1_555 1_555
C32_2 N9_2 1_555 1_555
C33_2 C32_2 1_555 1_555
H25_2 C33_2 1_555 1_555
N10_2 C32_2 1_555 1_555
Ag2_3 N5_2 1_555 1_555
Ag3_2 N8_2 1_555 1_555
C37_2 C38_2 1_555 1_555
C38_2 H28_2 1_555 1_555
C39_2 C38_2 1_555 1_555
H29_2 C39_2 1_555 1_555
C40_2 C39_2 1_555 1_555
C41_2 C40_2 1_555 1_555
H30_2 C41_2 1_555 1_555
C42_2 C37_2 1_555 1_555
H31_2 C42_2 1_555 1_555
C43_2 C40_2 1_555 1_555
N11_2 C37_2 1_555 1_555
C49_2 N11_2 1_555 1_555
C50_2 C49_2 1_555 1_555
H37_2 C50_2 1_555 1_555
C51_2 C50_2 1_555 1_555
H38_2 C51_2 1_555 1_555
C52_2 C51_2 1_555 1_555
C53_2 C52_2 1_555 1_555
H39_2 C53_2 1_555 1_555
C54_2 C49_2 1_555 1_555
H40_2 C54_2 1_555 1_555
C55_2 C52_2 1_555 1_555
H41_2 C55_2 1_555 1_555
N15_2 Ag2_3 1_555 1_555
N16_2 N15_2 1_555 1_555
H42_2 N16_2 1_555 1_555
C56_2 N16_2 1_555 1_555
C57_2 C56_2 1_555 1_555
H43_2 C57_2 1_555 1_555
C58_2 C57_2 1_555 1_555
H44_2 C58_2 1_555 1_555
C59_2 C58_2 1_555 1_555
H45_2 C59_2 1_555 1_555
C60_2 C59_2 1_555 1_555
Cl5_2 C60_2 1_555 1_555
N17_2 Ag2_3 1_555 1_555
C61_2 N11_2 1_555 1_555
C62_2 C61_2 1_555 1_555
H46_2 C62_2 1_555 1_555
C63_2 C62_2 1_555 1_555
H47_2 C63_2 1_555 1_555
C64_2 C63_2 1_555 1_555
C65_2 C64_2 1_555 1_555
H48_2 C65_2 1_555 1_555
C66_2 C61_2 1_555 1_555
H49_2 C66_2 1_555 1_555
C67_2 C64_2 1_555 1_555
N21_2 Ag1_2 1_555 1_555
N22_2 Ag3_2 1_555 1_555
N23_2 Ag1_2 1_555 1_555
N24_2 Ag3_2 1_555 1_555
C5_2 C6_2 1_555 1_555
C17_2 C18_2 1_555 1_555
C24 N7_2 1_555 1_555
N7_2 Ag2_3 1_555 1_555
C29_2 C30_2 1_555 1_555
N10_2 Ag3_2 1_555 1_555
C41_2 C42_2 1_555 1_555
C53_2 C54_2 1_555 1_555
C55_2 N15_2 1_555 1_555
C56_2 N17_2 1_555 1_555
C60_2 N17_2 1_555 1_555
C65_2 C66_2 1_555 1_555
Ag1_3 N2_2 1_555 1_555
C8_2 C9_2 1_555 1_555
C9_2 H6_2 1_555 1_555
N3_2 C8_2 1_555 1_555
H9_2 N3_2 1_555 1_555
N4_2 Ag1_3 1_555 1_555
C44_2 C45_2 1_555 1_555
C45_2 H33_2 1_555 1_555
C46_2 C45_2 1_555 1_555
H34_2 C46_2 1_555 1_555
C47_2 C46_2 1_555 1_555
H35_2 C47_2 1_555 1_555
C48_2 C47_2 1_555 1_555
Cl4_2 C48_2 1_555 1_555
N13_2 C44_2 1_555 1_555
H36_2 N13_2 1_555 1_555
N14_2 C44_2 1_555 1_555
Ag4_3 N12_2 1_555 1_555
C8_2 N4_2 1_555 1_555
N2_2 N3_2 1_555 1_555
C48_2 N14_2 1_555 1_555
N12_2 N13_2 1_555 1_555
N14_2 Ag4_3 1_555 1_555
H26_2 C34_2 1_555 1_555
C35_2 C34_2 1_555 1_555
H27_2 C35_2 1_555 1_555
C36_2 C35_2 1_555 1_555
Cl3_2 C36_2 1_555 1_555
C44_3 C45_3 1_555 1_555
C45_3 H33_3 1_555 1_555
N13_3 C44_3 1_555 1_555
H36_3 N13_3 1_555 1_555
N23_2 C44_3 1_555 1_555
N21_2 N13_3 1_555 1_555
N6_3 N5_3 1_555 1_555
H15_3 N6_3 1_555 1_555
C20_3 N6_3 1_555 1_555
C21_3 C20_3 1_555 1_555
H16_3 C21_3 1_555 1_555
C22_2 C21_3 1_555 1_555
H17_2 C22_2 1_555 1_555
C23_2 C22_2 1_555 1_555
H18_2 C23_2 1_555 1_555
C24_2 C23_2 1_555 1_555
Cl2_2 C24_2 1_555 1_555
N7_3 C20_3 1_555 1_555
Ag2_4 N5_3 1_555 1_555
C37_3 C38_3 1_555 1_555
C38_3 H28_3 1_555 1_555
C39_3 C38_3 1_555 1_555
H29_3 C39_3 1_555 1_555
C40_3 C39_3 1_555 1_555
C41_3 C40_3 1_555 1_555
H30_3 C41_3 1_555 1_555
C42_3 C37_3 1_555 1_555
H31_3 C42_3 1_555 1_555
C43_3 C40_3 1_555 1_555
N11_3 C37_3 1_555 1_555
C49_3 N11_3 1_555 1_555
C50_3 C49_3 1_555 1_555
H37_3 C50_3 1_555 1_555
C51_3 C50_3 1_555 1_555
H38_3 C51_3 1_555 1_555
C52_3 C51_3 1_555 1_555
C53_3 C52_3 1_555 1_555
H39_3 C53_3 1_555 1_555
C54_3 C49_3 1_555 1_555
H40_3 C54_3 1_555 1_555
C55_3 C52_3 1_555 1_555
C61_3 N11_3 1_555 1_555
C62_3 C61_3 1_555 1_555
H46_3 C62_3 1_555 1_555
C63_3 C62_3 1_555 1_555
H47_3 C63_3 1_555 1_555
C64_3 C63_3 1_555 1_555
C65_3 C64_3 1_555 1_555
H48_3 C65_3 1_555 1_555
C66_3 C61_3 1_555 1_555
H49_3 C66_3 1_555 1_555
C67_3 C64_3 1_555 1_555
H50_3 C67_3 1_555 1_555
N22 C67_3 1_555 1_555
N19_3 N22 1_555 1_555
H51_3 N19_3 1_555 1_555
C68_3 N19_3 1_555 1_555
C69_3 C68_3 1_555 1_555
H52_3 C69_3 1_555 1_555
C70_2 C69_3 1_555 1_555
H53_2 C70_2 1_555 1_555
C71_2 C70_2 1_555 1_555
H54_2 C71_2 1_555 1_555
C72_2 C71_2 1_555 1_555
Cl6_2 C72_2 1_555 1_555
N24 C68_3 1_555 1_555
C24_2 N7_3 1_555 1_555
N7_3 Ag2_4 1_555 1_555
C41_3 C42_3 1_555 1_555
C53_3 C54_3 1_555 1_555
C65_3 C66_3 1_555 1_555
C72_2 N24 1_555 1_555
N9_3 N8_3 1_555 1_555
H24_3 N9_3 1_555 1_555
C32_3 N9_3 1_555 1_555
C33_3 C32_3 1_555 1_555
H25_3 C33_3 1_555 1_555
C34_3 C33_3 1_555 1_555
H26_3 C34_3 1_555 1_555
C35_3 C34_3 1_555 1_555
H27_3 C35_3 1_555 1_555
C36_3 C35_3 1_555 1_555
Cl3_3 C36_3 1_555 1_555
N10_3 C32_3 1_555 1_555
Ag5 N8_3 1_555 1_555
C36_3 N10_3 1_555 1_555
N10_3 Ag5 1_555 1_555
Ag4_2 N2_3 1_555 1_555
C8_3 C9_3 1_555 1_555
C9_3 H6_3 1_555 1_555
C10_2 C9_3 1_555 1_555
H7_2 C10_2 1_555 1_555
C11_2 C10_2 1_555 1_555
H8_2 C11_2 1_555 1_555
C12_2 C11_2 1_555 1_555
Cl1_2 C12_2 1_555 1_555
N3_3 C8_3 1_555 1_555
H9_3 N3_3 1_555 1_555
N4_3 Ag4_2 1_555 1_555
C8_3 N4_3 1_555 1_555
C12_2 N4_3 1_555 1_555
N2_3 N3_3 1_555 1_555
C1_3 C2_3 1_555 1_555
C2_3 H1_3 1_555 1_555
C3_3 C2_3 1_555 1_555
H2_3 C3_3 1_555 1_555
C4_3 C3_3 1_555 1_555
C5_3 C4_3 1_555 1_555
H3_3 C5_3 1_555 1_555
C6_3 C1_3 1_555 1_555
H4_3 C6_3 1_555 1_555
C7_3 C4_3 1_555 1_555
N1_3 C1_3 1_555 1_555
C13_3 N1_3 1_555 1_555
C14_3 C13_3 1_555 1_555
H10_3 C14_3 1_555 1_555
C15_3 C14_3 1_555 1_555
H11_3 C15_3 1_555 1_555
C16_3 C15_3 1_555 1_555
C17_3 C16_3 1_555 1_555
H12_3 C17_3 1_555 1_555
C18_3 C13_3 1_555 1_555
H13_3 C18_3 1_555 1_555
C19_3 C16_3 1_555 1_555
C25_3 N1_3 1_555 1_555
C26_3 C25_3 1_555 1_555
H19_3 C26_3 1_555 1_555
C27_3 C26_3 1_555 1_555
H20_3 C27_3 1_555 1_555
C28_3 C27_3 1_555 1_555
C29_3 C28_3 1_555 1_555
H21_3 C29_3 1_555 1_555
C30_3 C25_3 1_555 1_555
H22_3 C30_3 1_555 1_555
C31_3 C28_3 1_555 1_555
N15_3 Ag2_5 1_555 1_555
N16_3 N15_3 1_555 1_555
H42_3 N16_3 1_555 1_555
C56_3 N16_3 1_555 1_555
C57_3 C56_3 1_555 1_555
H43_3 C57_3 1_555 1_555
C58_3 C57_3 1_555 1_555
H44_3 C58_3 1_555 1_555
C59_3 C58_3 1_555 1_555
H45_3 C59_3 1_555 1_555
C60_3 C59_3 1_555 1_555
Cl5_3 C60_3 1_555 1_555
N17_3 Ag2_5 1_555 1_555
C5_3 C6_3 1_555 1_555
C17_3 C18_3 1_555 1_555
C29_3 C30_3 1_555 1_555
C56_3 N17_3 1_555 1_555
C60_3 N17_3 1_555 1_555
Ag4 N2_4 1_555 1_555
C1_4 C2_4 1_555 1_555
C2_4 H1_4 1_555 1_555
C3_4 C2_4 1_555 1_555
H2_4 C3_4 1_555 1_555
C4_4 C3_4 1_555 1_555
C5_4 C4_4 1_555 1_555
H3_4 C5_4 1_555 1_555
C6_4 C1_4 1_555 1_555
H4_4 C6_4 1_555 1_555
C7_4 C4_4 1_555 1_555
H5_4 C7_4 1_555 1_555
C8_4 C9_4 1_555 1_555
C9_4 H6_4 1_555 1_555
C10_3 C9_4 1_555 1_555
H7_3 C10_3 1_555 1_555
C11_3 C10_3 1_555 1_555
H8_3 C11_3 1_555 1_555
C12_3 C11_3 1_555 1_555
Cl1_3 C12_3 1_555 1_555
N1_4 C1_4 1_555 1_555
N2_4 C7_4 1_555 1_555
N3_4 C8_4 1_555 1_555
H9_4 N3_4 1_555 1_555
N4_4 Ag4 1_555 1_555
C13_4 N1_4 1_555 1_555
C14_4 C13_4 1_555 1_555
H10_4 C14_4 1_555 1_555
C15_4 C14_4 1_555 1_555
H11_4 C15_4 1_555 1_555
C16_4 C15_4 1_555 1_555
C17_4 C16_4 1_555 1_555
H12_4 C17_4 1_555 1_555
C18_4 C13_4 1_555 1_555
H13_4 C18_4 1_555 1_555
C19_4 C16_4 1_555 1_555
H14_4 C19_4 1_555 1_555
N5_4 C19_4 1_555 1_555
N6_4 N5_4 1_555 1_555
H15_4 N6_4 1_555 1_555
C20_4 N6_4 1_555 1_555
C21_4 C20_4 1_555 1_555
H16_4 C21_4 1_555 1_555
N7_4 C20_4 1_555 1_555
C25_4 N1_4 1_555 1_555
C26_4 C25_4 1_555 1_555
H19_4 C26_4 1_555 1_555
C27_4 C26_4 1_555 1_555
H20_4 C27_4 1_555 1_555
C28_4 C27_4 1_555 1_555
C29_4 C28_4 1_555 1_555
H21_4 C29_4 1_555 1_555
C30_4 C25_4 1_555 1_555
H22_4 C30_4 1_555 1_555
C31_4 C28_4 1_555 1_555
Ag2_6 N5_4 1_555 1_555
C37_4 C38_4 1_555 1_555
C38_4 H28_4 1_555 1_555
C39_4 C38_4 1_555 1_555
H29_4 C39_4 1_555 1_555
C40_4 C39_4 1_555 1_555
C41_4 C40_4 1_555 1_555
H30_4 C41_4 1_555 1_555
C42_4 C37_4 1_555 1_555
H31_4 C42_4 1_555 1_555
C43_4 C40_4 1_555 1_555
H32_4 C43_4 1_555 1_555
C44_4 C45_4 1_555 1_555
C45_4 H33_4 1_555 1_555
N11_4 C37_4 1_555 1_555
N21 C43_4 1_555 1_555
N13_4 C44_4 1_555 1_555
H36_4 N13_4 1_555 1_555
N23 C44_4 1_555 1_555
C49_4 N11_4 1_555 1_555
C50_4 C49_4 1_555 1_555
H37_4 C50_4 1_555 1_555
C51_4 C50_4 1_555 1_555
H38_4 C51_4 1_555 1_555
C52_4 C51_4 1_555 1_555
C53_4 C52_4 1_555 1_555
H39_4 C53_4 1_555 1_555
C54_4 C49_4 1_555 1_555
H40_4 C54_4 1_555 1_555
C55_4 C52_4 1_555 1_555
H41_4 C55_4 1_555 1_555
N15_4 Ag2_6 1_555 1_555
N16_4 N15_4 1_555 1_555
H42_4 N16_4 1_555 1_555
C56_4 N16_4 1_555 1_555
C57_4 C56_4 1_555 1_555
H43_4 C57_4 1_555 1_555
N17_4 Ag2_6 1_555 1_555
C61_4 N11_4 1_555 1_555
C62_4 C61_4 1_555 1_555
H46_4 C62_4 1_555 1_555
C63_4 C62_4 1_555 1_555
H47_4 C63_4 1_555 1_555
C64_4 C63_4 1_555 1_555
C65_4 C64_4 1_555 1_555
H48_4 C65_4 1_555 1_555
C66_4 C61_4 1_555 1_555
H49_4 C66_4 1_555 1_555
C67_4 C64_4 1_555 1_555
H50_4 C67_4 1_555 1_555
N22_2 C67_4 1_555 1_555
N19_4 N22_2 1_555 1_555
H51_4 N19_4 1_555 1_555
C68_4 N19_4 1_555 1_555
C69_4 C68_4 1_555 1_555
H52_4 C69_4 1_555 1_555
N24_2 C68_4 1_555 1_555
C5_4 C6_4 1_555 1_555
C8_4 N4_4 1_555 1_555
C12_3 N4_4 1_555 1_555
N2_4 N3_4 1_555 1_555
C17_4 C18_4 1_555 1_555
N7_4 Ag2_6 1_555 1_555
C29_4 C30_4 1_555 1_555
C41_4 C42_4 1_555 1_555
N21 N13_4 1_555 1_555
C53_4 C54_4 1_555 1_555
C55_4 N15_4 1_555 1_555
C56_4 N17_4 1_555 1_555
C65_4 C66_4 1_555 1_555
H17_3 C22_3 1_555 1_555
C23_3 C22_3 1_555 1_555
H18_3 C23_3 1_555 1_555
C24_3 C23_3 1_555 1_555
Cl2_3 C24_3 1_555 1_555
H44_4 C58_4 1_555 1_555
C59_4 C58_4 1_555 1_555
H45_4 C59_4 1_555 1_555
C60_4 C59_4 1_555 1_555
Cl5_4 C60_4 1_555 1_555
N9_4 N8_4 1_555 1_555
H24_4 N9_4 1_555 1_555
C32_4 N9_4 1_555 1_555
C33_4 C32_4 1_555 1_555
H25_4 C33_4 1_555 1_555
N10_4 C32_4 1_555 1_555
Ag5_4 N8_4 1_555 1_555
H34_3 C46_3 1_555 1_555
C47_3 C46_3 1_555 1_555
H35_3 C47_3 1_555 1_555
C48_3 C47_3 1_555 1_555
Cl4_3 C48_3 1_555 1_555
N10_4 Ag5_4 1_555 1_555
H53_3 C70_3 1_555 1_555
C71_3 C70_3 1_555 1_555
H54_3 C71_3 1_555 1_555
C72_3 C71_3 1_555 1_555
Cl6_3 C72_3 1_555 1_555
H17_4 C22_4 1_555 1_555
C23_4 C22_4 1_555 1_555
H18_4 C23_4 1_555 1_555
C24_4 C23_4 1_555 1_555
Cl2_4 C24_4 1_555 1_555
H53_4 C70_4 1_555 1_555
C71_4 C70_4 1_555 1_555
H54_4 C71_4 1_555 1_555
C72_4 C71_4 1_555 1_555
Cl6_4 C72_4 1_555 1_555
H7_4 C10_4 1_555 1_555
C11_4 C10_4 1_555 1_555
H8_4 C11_4 1_555 1_555
C12_4 C11_4 1_555 1_555
Cl1_4 C12_4 1_555 1_555
H34_4 C46_4 1_555 1_555
C47_4 C46_4 1_555 1_555
H35_4 C47_4 1_555 1_555
C48_4 C47_4 1_555 1_555
Cl4_4 C48_4 1_555 1_555
H26_4 C34_4 1_555 1_555
C35_4 C34_4 1_555 1_555
H27_4 C35_4 1_555 1_555
C36_4 C35_4 1_555 1_555
Cl3_4 C36_4 1_555 1_555
O3 Cl7 1_555 1_555
O4 Cl7 1_555 1_555
Cl7_2 O1 1_555 1_555
O2 Cl7_2 1_555 1_555
Cl7_3 O1_2 1_555 1_555
O2_2 Cl7_3 1_555 1_555
O3_2 Cl7_4 1_555 1_555
O4_2 Cl7_4 1_555 1_555
Cl7_5 O1_3 1_555 1_555
O2_3 Cl7_5 1_555 1_555
O3_3 Cl7_5 1_555 1_555
O4_3 Cl7_5 1_555 1_555
Cl7_6 O1_4 1_555 1_555
O2_4 Cl7_6 1_555 1_555
O3_4 Cl7_6 1_555 1_555
O4_4 Cl7_6 1_555 1_555
O3_5 Cl7_7 1_555 1_555
O4_5 Cl7_7 1_555 1_555
Cl7_8 O1_5 1_555 1_555
O2_5 Cl7_8 1_555 1_555
Cl7_9 O1_6 1_555 1_555
O2_6 Cl7_9 1_555 1_555
O3_6 Cl7_10 1_555 1_555
O4_6 Cl7_10 1_555 1_555
Cl7_11 O1_7 1_555 1_555
O2_7 Cl7_11 1_555 1_555
O3_7 Cl7_11 1_555 1_555
O4_7 Cl7_11 1_555 1_555
Cl7_12 O1_8 1_555 1_555
O2_8 Cl7_12 1_555 1_555
O3_8 Cl7_12 1_555 1_555
O4_8 Cl7_12 1_555 1_555
O3_9 Cl7_13 1_555 1_555
O4_9 Cl7_13 1_555 1_555
Cl7_14 O1_9 1_555 1_555
O2_9 Cl7_14 1_555 1_555
Cl7_15 O1_10 1_555 1_555
O2_10 Cl7_15 1_555 1_555
O3_10 Cl7_16 1_555 1_555
O4_10 Cl7_16 1_555 1_555
Cl7_17 O1_11 1_555 1_555
O2_11 Cl7_17 1_555 1_555
O3_11 Cl7_17 1_555 1_555
O4_11 Cl7_17 1_555 1_555
Cl7_18 O1_12 1_555 1_555
O2_12 Cl7_18 1_555 1_555
O3_12 Cl7_18 1_555 1_555
O4_12 Cl7_18 1_555 1_555

#END
