
###############################################################################
#
# This file contains modified crystal structure data generated from the
# MOF subset of the Cambridge Structural Database (CSD) v543 
# hosted by the Cambridge Crystallographic Data Centre (CCDC).
#
# This work is licensed under the Creative Commons
# Attribution-NonCommercial-ShareAlike 4.0 International License.
# To view a copy of this license, visit
# http://creativecommons.org/licenses/by-nc-sa/4.0/
# or send a letter to
# Creative Commons, PO Box 1866, Mountain View, CA 94042, USA.
#
# CIF created using the CSD Python API on 29 September 2022
# The structure has been converted into the P1 space group
# The structure has a 3D framework
# The original CSD entry KEPMUQ08 is in the cubic crystal system
# The original CSD entry KEPMUQ08 is in a Sohncke space group
# The framework has been calculated to contain at least 10.0% void space
# The void calculation uses a probe of radius 1.32A, grid spacing 0.4
# The framework is charged, counterions have been retained in the structure
#
###############################################################################

data_KEPMUQ08
_chemical_formula_moiety         '(C288 H240 Ag14 Cl18 N80 O48 2+)n'
_symmetry_cell_setting           triclinic
_symmetry_space_group_name_H-M   'P 1'
_symmetry_Int_Tables_number      1
_space_group_name_Hall           'P 1'
loop_
_symmetry_equiv_pos_site_id
_symmetry_equiv_pos_as_xyz
1 x,y,z
_cell_length_a                   21.3193(3)
_cell_length_b                   21.3193(3)
_cell_length_c                   21.3193(3)
_cell_angle_alpha                90
_cell_angle_beta                 90
_cell_angle_gamma                90
_cell_volume                     9689.89
loop_
_atom_site_label
_atom_site_type_symbol
_atom_site_fract_x
_atom_site_fract_y
_atom_site_fract_z
C34 C 0.0240(4) 0.6726(4) 0.6099(4)
H27 H 0.0374 0.7036 0.5816
C35 C 0.0596(4) 0.6594(5) 0.6647(6)
H28 H 0.0961 0.6822 0.6743
C36 C 0.0392(4) 0.6129(4) 0.7023(4)
H29 H 0.0635 0.6027 0.7377
Ag1 Ag 0.7500 0.04251(3) 0.0000
H5 H 0.8640 0.2021 0.0164
C8 C 0.8585(3) 0.0480(3) 0.0933(3)
C9 C 0.9012(4) 0.0293(4) 0.1402(4)
H6 H 0.9369 0.0536 0.1488
N2 N 0.8339(2) 0.1186(2) 0.0114(2)
N3 N 0.8687(3) 0.1015(3) 0.0631(3)
H10 H 0.8982 0.1264 0.0763
N4 N 0.8076(3) 0.0137(2) 0.0802(3)
H35 H 0.1360 0.2979 0.0164
C44 C 0.1415(3) 0.4520(3) 0.0933(3)
C45 C 0.0988(4) 0.4707(4) 0.1402(4)
H36 H 0.0631 0.4464 0.1488
C46 C 0.1099(4) 0.5240(4) 0.1726(4)
H37 H 0.0816 0.5374 0.2036
C47 C 0.1647(6) 0.5596(4) 0.1594(5)
H38 H 0.1743 0.5961 0.1822
C48 C 0.2023(4) 0.5392(4) 0.1129(4)
H39 H 0.2377 0.5635 0.1027
N12 N 0.1661(2) 0.3814(2) 0.0114(2)
N13 N 0.1313(3) 0.3985(3) 0.0631(3)
H40 H 0.1018 0.3736 0.0763
N14 N 0.1924(3) 0.4863(2) 0.0802(3)
Ag4 Ag 0.2500 0.45749(3) 0.0000
Ag1_2 Ag 0.7500 0.04251(3) 1.0000
C1 C 0.7510(3) 0.2514(3) 0.8306(2)
C2 C 0.7548(3) 0.1857(2) 0.8384(3)
H1 H 0.7382 0.1588 0.8078
C3 C 0.7829(3) 0.1613(3) 0.8912(3)
H2 H 0.7850 0.1176 0.8961
C4 C 0.8078(3) 0.1989(3) 0.9366(3)
C5 C 0.8045(3) 0.2629(3) 0.9288(3)
H3 H 0.8226 0.2893 0.9591
C6 C 0.7755(3) 0.2887(3) 0.8784(3)
H4 H 0.7719 0.3325 0.8756
C7 C 0.8389(3) 0.1746(3) 0.9928(3)
N1 N 0.7227(2) 0.2773(2) 0.7773(2)
C13 C 0.6694(2) 0.2490(3) 0.7514(3)
C14 C 0.6616(3) 0.2452(3) 0.6857(2)
H11 H 0.6922 0.2618 0.6588
C15 C 0.6088(3) 0.2171(3) 0.6613(3)
H12 H 0.6039 0.2150 0.6176
C16 C 0.5634(3) 0.1922(3) 0.6989(3)
C17 C 0.5712(3) 0.1955(3) 0.7629(3)
H13 H 0.5409 0.1774 0.7893
C18 C 0.6216(3) 0.2245(3) 0.7887(3)
H14 H 0.6244 0.2281 0.8325
C19 C 0.5072(3) 0.1611(3) 0.6746(3)
H15 H 0.4836 0.1360 0.7021
C20 C 0.4067(3) 0.1415(3) 0.5480(3)
C21 C 0.3598(4) 0.0988(4) 0.5293(4)
H16 H 0.3512 0.0631 0.5536
C22 C 0.3274(4) 0.1099(4) 0.4760(4)
H17 H 0.2964 0.0816 0.4626
C23 C 0.3406(5) 0.1647(6) 0.4404(4)
H18 H 0.3178 0.1743 0.4039
C24 C 0.3871(4) 0.2023(4) 0.4608(4)
H19 H 0.3973 0.2377 0.4365
N5 N 0.4886(2) 0.1661(2) 0.6186(2)
N6 N 0.4369(3) 0.1313(3) 0.6015(3)
H20 H 0.4237 0.1018 0.6264
N7 N 0.4198(3) 0.1924(3) 0.5137(2)
C25 C 0.7486(3) 0.3306(2) 0.7490(3)
C26 C 0.8143(2) 0.3384(3) 0.7452(3)
H21 H 0.8412 0.3078 0.7618
C27 C 0.8387(3) 0.3912(3) 0.7171(3)
H22 H 0.8824 0.3961 0.7150
C28 C 0.8011(3) 0.4366(3) 0.6922(3)
C29 C 0.7371(3) 0.4288(3) 0.6955(3)
H23 H 0.7107 0.4591 0.6774
C30 C 0.7113(3) 0.3784(3) 0.7245(3)
H24 H 0.6675 0.3756 0.7281
C31 C 0.8254(3) 0.4928(3) 0.6611(3)
H25 H 0.7979 0.5164 0.6360
C32 C 0.9520(3) 0.5933(3) 0.6415(3)
C33 C 0.9707(4) 0.6402(4) 0.5988(4)
H26 H 0.9464 0.6488 0.5631
N8 N 0.8814(2) 0.5114(2) 0.6661(2)
N9 N 0.8985(3) 0.5631(3) 0.6313(3)
H30 H 0.8736 0.5763 0.6018
N10 N 0.9863(2) 0.5802(3) 0.6924(3)
Ag2 Ag 0.5000 0.2500 0.54251(3)
Ag3 Ag 0.95749(3) 0.5000 0.7500
C37 C 0.2490(3) 0.2486(3) 0.8306(2)
C38 C 0.2452(3) 0.3143(2) 0.8384(3)
H31 H 0.2618 0.3412 0.8078
C39 C 0.2171(3) 0.3387(3) 0.8912(3)
H32 H 0.2150 0.3824 0.8961
C40 C 0.1922(3) 0.3011(3) 0.9366(3)
C41 C 0.1955(3) 0.2371(3) 0.9288(3)
H33 H 0.1774 0.2107 0.9591
C42 C 0.2245(3) 0.2113(3) 0.8784(3)
H34 H 0.2281 0.1675 0.8756
C43 C 0.1611(3) 0.3254(3) 0.9928(3)
N11 N 0.2773(2) 0.2227(2) 0.7773(2)
C49 C 0.3306(2) 0.2510(3) 0.7514(3)
C50 C 0.3384(3) 0.2548(3) 0.6857(2)
H41 H 0.3078 0.2382 0.6588
C51 C 0.3912(3) 0.2829(3) 0.6613(3)
H42 H 0.3961 0.2850 0.6176
C52 C 0.4366(3) 0.3078(3) 0.6989(3)
C53 C 0.4288(3) 0.3045(3) 0.7629(3)
H43 H 0.4591 0.3226 0.7893
C54 C 0.3784(3) 0.2755(3) 0.7887(3)
H44 H 0.3756 0.2719 0.8325
C55 C 0.4928(3) 0.3389(3) 0.6746(3)
H45 H 0.5164 0.3640 0.7021
C56 C 0.5933(3) 0.3585(3) 0.5480(3)
C57 C 0.6402(4) 0.4012(4) 0.5293(4)
H46 H 0.6488 0.4369 0.5536
C58 C 0.6726(4) 0.3901(4) 0.4760(4)
H47 H 0.7036 0.4184 0.4626
C59 C 0.6594(5) 0.3353(6) 0.4404(4)
H48 H 0.6822 0.3257 0.4039
C60 C 0.6129(4) 0.2977(4) 0.4608(4)
H49 H 0.6027 0.2623 0.4365
N15 N 0.5114(2) 0.3339(2) 0.6186(2)
N16 N 0.5631(3) 0.3687(3) 0.6015(3)
H50 H 0.5763 0.3982 0.6264
N17 N 0.5802(3) 0.3076(3) 0.5137(2)
C61 C 0.2514(3) 0.1694(2) 0.7490(3)
C62 C 0.1857(2) 0.1616(3) 0.7452(3)
H51 H 0.1588 0.1922 0.7618
C63 C 0.1613(3) 0.1088(3) 0.7171(3)
H52 H 0.1176 0.1039 0.7150
C64 C 0.1989(3) 0.0634(3) 0.6922(3)
C65 C 0.2629(3) 0.0712(3) 0.6955(3)
H53 H 0.2893 0.0409 0.6774
C66 C 0.2887(3) 0.1216(3) 0.7245(3)
H54 H 0.3325 0.1244 0.7281
C67 C 0.1746(3) 0.0072(3) 0.6611(3)
Ag4_2 Ag 0.2500 0.45749(3) 1.0000
Ag5 Ag 0.04251(3) -0.0000 0.7500
N21 N 0.6661(2) 0.1186(2) 0.9886(2)
N22 N 0.8814(2) 0.4886(2) 0.8339(2)
N23 N 0.6924(3) 0.0137(2) 0.9198(3)
N24 N 0.9863(2) 0.4198(3) 0.8076(3)
H55 H 0.2021 0.9836 0.6360
C68 C 0.0480(3) 0.9067(3) 0.6415(3)
C69 C 0.0293(4) 0.8598(4) 0.5988(4)
H56 H 0.0536 0.8512 0.5631
N18 N 0.1186(2) 0.9886(2) 0.6661(2)
N19 N 0.1015(3) 0.9369(3) 0.6313(3)
H60 H 0.1264 0.9237 0.6018
N20 N 0.0137(2) 0.9198(3) 0.6924(3)
Ag5_2 Ag 0.04251(3) 1.0000 0.7500
H55_2 H 0.2979 0.0164 0.1360
C68_2 C 0.4520(3) 0.0933(3) 0.1415(3)
C69_2 C 0.4707(4) 0.1402(4) 0.0988(4)
H56_2 H 0.4464 0.1488 0.0631
C70 C 0.5240(4) 0.1726(4) 0.1099(4)
H57 H 0.5374 0.2036 0.0816
C71 C 0.5596(4) 0.1594(5) 0.1647(6)
H58 H 0.5961 0.1822 0.1743
C72 C 0.5392(4) 0.1129(4) 0.2023(4)
H59 H 0.5635 0.1027 0.2377
N18_2 N 0.3814(2) 0.0114(2) 0.1661(2)
N19_2 N 0.3985(3) 0.0631(3) 0.1313(3)
H60_2 H 0.3736 0.0763 0.1018
N20_2 N 0.4863(2) 0.0802(3) 0.1924(3)
Ag5_3 Ag 0.45749(3) 0.0000 0.2500
H15_2 H 0.0164 0.8640 0.2021
C20_2 C 0.0933(3) 0.8585(3) 0.0480(3)
C21_2 C 0.1402(4) 0.9012(4) 0.0293(4)
H16_2 H 0.1488 0.9369 0.0536
N5_2 N 0.0114(2) 0.8339(2) 0.1186(2)
N6_2 N 0.0631(3) 0.8687(3) 0.1015(3)
H20_2 H 0.0763 0.8982 0.1264
N7_2 N 0.0802(3) 0.8076(3) 0.0137(2)
Ag2_2 Ag -0.0000 0.7500 0.04251(3)
C37_2 C 0.2510(3) 0.7514(3) 0.3306(2)
C38_2 C 0.2548(3) 0.6857(2) 0.3384(3)
H31_2 H 0.2382 0.6588 0.3078
C39_2 C 0.2829(3) 0.6613(3) 0.3912(3)
H32_2 H 0.2850 0.6176 0.3961
C40_2 C 0.3078(3) 0.6989(3) 0.4366(3)
C41_2 C 0.3045(3) 0.7629(3) 0.4288(3)
H33_2 H 0.3226 0.7893 0.4591
C42_2 C 0.2755(3) 0.7887(3) 0.3784(3)
H34_2 H 0.2719 0.8325 0.3756
C43_2 C 0.3389(3) 0.6746(3) 0.4928(3)
H35_2 H 0.3640 0.7021 0.5164
C44_2 C 0.3585(3) 0.5480(3) 0.5933(3)
C45_2 C 0.4012(4) 0.5293(4) 0.6402(4)
H36_2 H 0.4369 0.5536 0.6488
C46_2 C 0.3901(4) 0.4760(4) 0.6726(4)
H37_2 H 0.4184 0.4626 0.7036
C47_2 C 0.3353(6) 0.4404(4) 0.6594(5)
H38_2 H 0.3257 0.4039 0.6822
C48_2 C 0.2977(4) 0.4608(4) 0.6129(4)
H39_2 H 0.2623 0.4365 0.6027
N11_2 N 0.2227(2) 0.7773(2) 0.2773(2)
N12_2 N 0.3339(2) 0.6186(2) 0.5114(2)
N13_2 N 0.3687(3) 0.6015(3) 0.5631(3)
H40_2 H 0.3982 0.6264 0.5763
N14_2 N 0.3076(3) 0.5137(2) 0.5802(3)
C49_2 C 0.1694(2) 0.7490(3) 0.2514(3)
C50_2 C 0.1616(3) 0.7452(3) 0.1857(2)
H41_2 H 0.1922 0.7618 0.1588
C51_2 C 0.1088(3) 0.7171(3) 0.1613(3)
H42_2 H 0.1039 0.7150 0.1176
C52_2 C 0.0634(3) 0.6922(3) 0.1989(3)
C53_2 C 0.0712(3) 0.6955(3) 0.2629(3)
H43_2 H 0.0409 0.6774 0.2893
C54_2 C 0.1216(3) 0.7245(3) 0.2887(3)
H44_2 H 0.1244 0.7281 0.3325
C55_2 C 0.0072(3) 0.6611(3) 0.1746(3)
C61_2 C 0.2486(3) 0.8306(2) 0.2490(3)
C62_2 C 0.3143(2) 0.8384(3) 0.2452(3)
H51_2 H 0.3412 0.8078 0.2618
C63_2 C 0.3387(3) 0.8912(3) 0.2171(3)
H52_2 H 0.3824 0.8961 0.2150
C64_2 C 0.3011(3) 0.9366(3) 0.1922(3)
C65_2 C 0.2371(3) 0.9288(3) 0.1955(3)
H53_2 H 0.2107 0.9591 0.1774
C66_2 C 0.2113(3) 0.8784(3) 0.2245(3)
H54_2 H 0.1675 0.8756 0.2281
C67_2 C 0.3254(3) 0.9928(3) 0.1611(3)
Ag4_3 Ag 0.2500 0.54251(3) 0.5000
Ag5_4 Ag 0.45749(3) 1.0000 0.2500
C10 C 0.6099(4) 0.0240(4) 0.6726(4)
H7 H 0.5816 0.0374 0.7036
C11 C 0.6647(6) 0.0596(4) 0.6594(5)
H8 H 0.6743 0.0961 0.6822
C12 C 0.7023(4) 0.0392(4) 0.6129(4)
H9 H 0.7377 0.0635 0.6027
Ag1_3 Ag 0.7500 0.95749(3) 0.5000
C1_2 C 0.7490(3) 0.7486(3) 0.3306(2)
C2_2 C 0.7452(3) 0.8143(2) 0.3384(3)
H1_2 H 0.7618 0.8412 0.3078
C3_2 C 0.7171(3) 0.8387(3) 0.3912(3)
H2_2 H 0.7150 0.8824 0.3961
C4_2 C 0.6922(3) 0.8011(3) 0.4366(3)
C5_2 C 0.6955(3) 0.7371(3) 0.4288(3)
H3_2 H 0.6774 0.7107 0.4591
C6_2 C 0.7245(3) 0.7113(3) 0.3784(3)
H4_2 H 0.7281 0.6675 0.3756
C7_2 C 0.6611(3) 0.8254(3) 0.4928(3)
H5_2 H 0.6360 0.7979 0.5164
C8_2 C 0.6415(3) 0.9520(3) 0.5933(3)
C9_2 C 0.5988(4) 0.9707(4) 0.6402(4)
H6_2 H 0.5631 0.9464 0.6488
N1_2 N 0.7773(2) 0.7227(2) 0.2773(2)
N2_2 N 0.6661(2) 0.8814(2) 0.5114(2)
N3_2 N 0.6313(3) 0.8985(3) 0.5631(3)
H10_2 H 0.6018 0.8736 0.5763
N4_2 N 0.6924(3) 0.9863(2) 0.5802(3)
C13_2 C 0.8306(2) 0.7510(3) 0.2514(3)
C14_2 C 0.8384(3) 0.7548(3) 0.1857(2)
H11_2 H 0.8078 0.7382 0.1588
C15_2 C 0.8912(3) 0.7829(3) 0.1613(3)
H12_2 H 0.8961 0.7850 0.1176
C16_2 C 0.9366(3) 0.8078(3) 0.1989(3)
C17_2 C 0.9288(3) 0.8045(3) 0.2629(3)
H13_2 H 0.9591 0.8226 0.2893
C18_2 C 0.8784(3) 0.7755(3) 0.2887(3)
H14_2 H 0.8756 0.7719 0.3325
C19_2 C 0.9928(3) 0.8389(3) 0.1746(3)
C25_2 C 0.7514(3) 0.6694(2) 0.2490(3)
C26_2 C 0.6857(2) 0.6616(3) 0.2452(3)
H21_2 H 0.6588 0.6922 0.2618
C27_2 C 0.6613(3) 0.6088(3) 0.2171(3)
H22_2 H 0.6176 0.6039 0.2150
C28_2 C 0.6989(3) 0.5634(3) 0.1922(3)
C29_2 C 0.7629(3) 0.5712(3) 0.1955(3)
H23_2 H 0.7893 0.5409 0.1774
C30_2 C 0.7887(3) 0.6216(3) 0.2245(3)
H24_2 H 0.8325 0.6244 0.2281
C31_2 C 0.6746(3) 0.5072(3) 0.1611(3)
H25_2 H 0.7021 0.4836 0.1360
C32_2 C 0.5480(3) 0.4067(3) 0.1415(3)
C33_2 C 0.5293(4) 0.3598(4) 0.0988(4)
H26_2 H 0.5536 0.3512 0.0631
C34_2 C 0.4760(4) 0.3274(4) 0.1099(4)
H27_2 H 0.4626 0.2964 0.0816
C35_2 C 0.4404(4) 0.3406(5) 0.1647(6)
H28_2 H 0.4039 0.3178 0.1743
C36_2 C 0.4608(4) 0.3871(4) 0.2023(4)
H29_2 H 0.4365 0.3973 0.2377
N8_2 N 0.6186(2) 0.4886(2) 0.1661(2)
N9_2 N 0.6015(3) 0.4369(3) 0.1313(3)
H30_2 H 0.6264 0.4237 0.1018
N10_2 N 0.5137(2) 0.4198(3) 0.1924(3)
Ag2_3 Ag 1.0000 0.7500 0.04251(3)
Ag3_2 Ag 0.54251(3) 0.5000 0.2500
H45_2 H 0.9836 0.6360 0.2021
C56_2 C 0.9067(3) 0.6415(3) 0.0480(3)
C57_2 C 0.8598(4) 0.5988(4) 0.0293(4)
H46_2 H 0.8512 0.5631 0.0536
N15_2 N 0.9886(2) 0.6661(2) 0.1186(2)
N16_2 N 0.9369(3) 0.6313(3) 0.1015(3)
H50_2 H 0.9237 0.6018 0.1264
N17_2 N 0.9198(3) 0.6924(3) 0.0137(2)
N21_2 N 0.8339(2) 0.8814(2) 0.4886(2)
N22_2 N 0.6186(2) 0.5114(2) 0.3339(2)
N23_2 N 0.8076(3) 0.9863(2) 0.4198(3)
N24_2 N 0.5137(2) 0.5802(3) 0.3076(3)
C70_2 C 0.0240(4) 0.3274(4) 0.8901(4)
H57_2 H 0.0374 0.2964 0.9184
C71_2 C 0.0596(4) 0.3406(5) 0.8353(6)
H58_2 H 0.0961 0.3178 0.8257
C72_2 C 0.0392(4) 0.3871(4) 0.7977(4)
H59_2 H 0.0635 0.3973 0.7623
H25_3 H 0.2021 0.0164 0.8640
C32_3 C 0.0480(3) 0.0933(3) 0.8585(3)
C33_3 C 0.0293(4) 0.1402(4) 0.9012(4)
H26_3 H 0.0536 0.1488 0.9369
N8_3 N 0.1186(2) 0.0114(2) 0.8339(2)
N9_3 N 0.1015(3) 0.0631(3) 0.8687(3)
H30_3 H 0.1264 0.0763 0.8982
N10_3 N 0.0137(2) 0.0802(3) 0.8076(3)
C46_3 C 0.8901(4) 0.0240(4) 0.3274(4)
H37_3 H 0.9184 0.0374 0.2964
C47_3 C 0.8353(6) 0.0596(4) 0.3406(5)
H38_3 H 0.8257 0.0961 0.3178
C48_3 C 0.7977(4) 0.0392(4) 0.3871(4)
H39_3 H 0.7623 0.0635 0.3973
C22_2 C 0.6726(4) 0.6099(4) 0.0240(4)
H17_2 H 0.7036 0.5816 0.0374
C23_2 C 0.6594(5) 0.6647(6) 0.0596(4)
H18_2 H 0.6822 0.6743 0.0961
C24_2 C 0.6129(4) 0.7023(4) 0.0392(4)
H19_2 H 0.6027 0.7377 0.0635
C58_2 C 0.3274(4) 0.8901(4) 0.0240(4)
H47_2 H 0.2964 0.9184 0.0374
C59_2 C 0.3406(5) 0.8353(6) 0.0596(4)
H48_2 H 0.3178 0.8257 0.0961
C60_2 C 0.3871(4) 0.7977(4) 0.0392(4)
H49_2 H 0.3973 0.7623 0.0635
C1_3 C 0.2490(3) 0.7514(3) 0.6694(2)
C2_3 C 0.2452(3) 0.6857(2) 0.6616(3)
H1_3 H 0.2618 0.6588 0.6922
C3_3 C 0.2171(3) 0.6613(3) 0.6088(3)
H2_3 H 0.2150 0.6176 0.6039
C4_3 C 0.1922(3) 0.6989(3) 0.5634(3)
C5_3 C 0.1955(3) 0.7629(3) 0.5712(3)
H3_3 H 0.1774 0.7893 0.5409
C6_3 C 0.2245(3) 0.7887(3) 0.6216(3)
H4_3 H 0.2281 0.8325 0.6244
C7_3 C 0.1611(3) 0.6746(3) 0.5072(3)
H5_3 H 0.1360 0.7021 0.4836
C8_3 C 0.1415(3) 0.5480(3) 0.4067(3)
C9_3 C 0.0988(4) 0.5293(4) 0.3598(4)
H6_3 H 0.0631 0.5536 0.3512
C10_2 C 0.1099(4) 0.4760(4) 0.3274(4)
H7_2 H 0.0816 0.4626 0.2964
C11_2 C 0.1647(6) 0.4404(4) 0.3406(5)
H8_2 H 0.1743 0.4039 0.3178
C12_2 C 0.2023(4) 0.4608(4) 0.3871(4)
H9_2 H 0.2377 0.4365 0.3973
N1_3 N 0.2773(2) 0.7773(2) 0.7227(2)
N2_3 N 0.1661(2) 0.6186(2) 0.4886(2)
N3_3 N 0.1313(3) 0.6015(3) 0.4369(3)
H10_3 H 0.1018 0.6264 0.4237
N4_3 N 0.1924(3) 0.5137(2) 0.4198(3)
C13_3 C 0.3306(2) 0.7490(3) 0.7486(3)
C14_3 C 0.3384(3) 0.7452(3) 0.8143(2)
H11_3 H 0.3078 0.7618 0.8412
C15_3 C 0.3912(3) 0.7171(3) 0.8387(3)
H12_3 H 0.3961 0.7150 0.8824
C16_3 C 0.4366(3) 0.6922(3) 0.8011(3)
C17_3 C 0.4288(3) 0.6955(3) 0.7371(3)
H13_3 H 0.4591 0.6774 0.7107
C18_3 C 0.3784(3) 0.7245(3) 0.7113(3)
H14_3 H 0.3756 0.7281 0.6675
C19_3 C 0.4928(3) 0.6611(3) 0.8254(3)
H15_3 H 0.5164 0.6360 0.7979
C20_3 C 0.5933(3) 0.6415(3) 0.9520(3)
C21_3 C 0.6402(4) 0.5988(4) 0.9707(4)
H16_3 H 0.6488 0.5631 0.9464
N5_3 N 0.5114(2) 0.6661(2) 0.8814(2)
N6_3 N 0.5631(3) 0.6313(3) 0.8985(3)
H20_3 H 0.5763 0.6018 0.8736
N7_3 N 0.5802(3) 0.6924(3) 0.9863(2)
C25_3 C 0.2514(3) 0.8306(2) 0.7510(3)
C26_3 C 0.1857(2) 0.8384(3) 0.7548(3)
H21_3 H 0.1588 0.8078 0.7382
C27_3 C 0.1613(3) 0.8912(3) 0.7829(3)
H22_3 H 0.1176 0.8961 0.7850
C28_3 C 0.1989(3) 0.9366(3) 0.8078(3)
C29_3 C 0.2629(3) 0.9288(3) 0.8045(3)
H23_3 H 0.2893 0.9591 0.8226
C30_3 C 0.2887(3) 0.8784(3) 0.7755(3)
H24_3 H 0.3325 0.8756 0.7719
C31_3 C 0.1746(3) 0.9928(3) 0.8389(3)
Ag2_4 Ag 0.5000 0.7500 0.95749(3)
C37_3 C 0.7510(3) 0.7486(3) 0.6694(2)
C38_3 C 0.7548(3) 0.8143(2) 0.6616(3)
H31_3 H 0.7382 0.8412 0.6922
C39_3 C 0.7829(3) 0.8387(3) 0.6088(3)
H32_3 H 0.7850 0.8824 0.6039
C40_3 C 0.8078(3) 0.8011(3) 0.5634(3)
C41_3 C 0.8045(3) 0.7371(3) 0.5712(3)
H33_3 H 0.8226 0.7107 0.5409
C42_3 C 0.7755(3) 0.7113(3) 0.6216(3)
H34_3 H 0.7719 0.6675 0.6244
C43_3 C 0.8389(3) 0.8254(3) 0.5072(3)
H35_3 H 0.8640 0.7979 0.4836
C44_3 C 0.8585(3) 0.9520(3) 0.4067(3)
C45_3 C 0.9012(4) 0.9707(4) 0.3598(4)
H36_3 H 0.9369 0.9464 0.3512
N11_3 N 0.7227(2) 0.7227(2) 0.7227(2)
N13_3 N 0.8687(3) 0.8985(3) 0.4369(3)
H40_3 H 0.8982 0.8736 0.4237
C49_3 C 0.6694(2) 0.7510(3) 0.7486(3)
C50_3 C 0.6616(3) 0.7548(3) 0.8143(2)
H41_3 H 0.6922 0.7382 0.8412
C51_3 C 0.6088(3) 0.7829(3) 0.8387(3)
H42_3 H 0.6039 0.7850 0.8824
C52_3 C 0.5634(3) 0.8078(3) 0.8011(3)
C53_3 C 0.5712(3) 0.8045(3) 0.7371(3)
H43_3 H 0.5409 0.8226 0.7107
C54_3 C 0.6216(3) 0.7755(3) 0.7113(3)
H44_3 H 0.6244 0.7719 0.6675
C55_3 C 0.5072(3) 0.8389(3) 0.8254(3)
H45_3 H 0.4836 0.8640 0.7979
C56_3 C 0.4067(3) 0.8585(3) 0.9520(3)
C57_3 C 0.3598(4) 0.9012(4) 0.9707(4)
H46_3 H 0.3512 0.9369 0.9464
N15_3 N 0.4886(2) 0.8339(2) 0.8814(2)
N16_3 N 0.4369(3) 0.8687(3) 0.8985(3)
H50_3 H 0.4237 0.8982 0.8736
N17_3 N 0.4198(3) 0.8076(3) 0.9863(2)
C61_3 C 0.7486(3) 0.6694(2) 0.7510(3)
C62_3 C 0.8143(2) 0.6616(3) 0.7548(3)
H51_3 H 0.8412 0.6922 0.7382
C63_3 C 0.8387(3) 0.6088(3) 0.7829(3)
H52_3 H 0.8824 0.6039 0.7850
C64_3 C 0.8011(3) 0.5634(3) 0.8078(3)
C65_3 C 0.7371(3) 0.5712(3) 0.8045(3)
H53_3 H 0.7107 0.5409 0.8226
C66_3 C 0.7113(3) 0.6216(3) 0.7755(3)
H54_3 H 0.6675 0.6244 0.7719
C67_3 C 0.8254(3) 0.5072(3) 0.8389(3)
H55_3 H 0.7979 0.4836 0.8640
C68_3 C 0.9520(3) 0.4067(3) 0.8585(3)
C69_3 C 0.9707(4) 0.3598(4) 0.9012(4)
H56_3 H 0.9464 0.3512 0.9369
N19_3 N 0.8985(3) 0.4369(3) 0.8687(3)
H60_3 H 0.8736 0.4237 0.8982
C1_4 C 0.2510(3) 0.2486(3) 0.1694(2)
C2_4 C 0.2548(3) 0.3143(2) 0.1616(3)
H1_4 H 0.2382 0.3412 0.1922
C3_4 C 0.2829(3) 0.3387(3) 0.1088(3)
H2_4 H 0.2850 0.3824 0.1039
C4_4 C 0.3078(3) 0.3011(3) 0.0634(3)
C5_4 C 0.3045(3) 0.2371(3) 0.0712(3)
H3_4 H 0.3226 0.2107 0.0409
C6_4 C 0.2755(3) 0.2113(3) 0.1216(3)
H4_4 H 0.2719 0.1675 0.1244
C7_4 C 0.3389(3) 0.3254(3) 0.0072(3)
N1_4 N 0.2227(2) 0.2227(2) 0.2227(2)
C13_4 C 0.1694(2) 0.2510(3) 0.2486(3)
C14_4 C 0.1616(3) 0.2548(3) 0.3143(2)
H11_4 H 0.1922 0.2382 0.3412
C15_4 C 0.1088(3) 0.2829(3) 0.3387(3)
H12_4 H 0.1039 0.2850 0.3824
C16_4 C 0.0634(3) 0.3078(3) 0.3011(3)
C17_4 C 0.0712(3) 0.3045(3) 0.2371(3)
H13_4 H 0.0409 0.3226 0.2107
C18_4 C 0.1216(3) 0.2755(3) 0.2113(3)
H14_4 H 0.1244 0.2719 0.1675
C19_4 C 0.0072(3) 0.3389(3) 0.3254(3)
C25_4 C 0.2486(3) 0.1694(2) 0.2510(3)
C26_4 C 0.3143(2) 0.1616(3) 0.2548(3)
H21_4 H 0.3412 0.1922 0.2382
C27_4 C 0.3387(3) 0.1088(3) 0.2829(3)
H22_4 H 0.3824 0.1039 0.2850
C28_4 C 0.3011(3) 0.0634(3) 0.3078(3)
C29_4 C 0.2371(3) 0.0712(3) 0.3045(3)
H23_4 H 0.2107 0.0409 0.3226
C30_4 C 0.2113(3) 0.1216(3) 0.2755(3)
H24_4 H 0.1675 0.1244 0.2719
C31_4 C 0.3254(3) 0.0072(3) 0.3389(3)
Ag2_5 Ag -0.0000 0.2500 0.45749(3)
H45_4 H 0.0164 0.1360 0.2979
C56_4 C 0.0933(3) 0.1415(3) 0.4520(3)
C57_4 C 0.1402(4) 0.0988(4) 0.4707(4)
H46_4 H 0.1488 0.0631 0.4464
C58_3 C 0.1726(4) 0.1099(4) 0.5240(4)
H47_3 H 0.2036 0.0816 0.5374
C59_3 C 0.1594(5) 0.1647(6) 0.5596(4)
H48_3 H 0.1822 0.1743 0.5961
C60_3 C 0.1129(4) 0.2023(4) 0.5392(4)
H49_3 H 0.1027 0.2377 0.5635
N15_4 N 0.0114(2) 0.1661(2) 0.3814(2)
N16_4 N 0.0631(3) 0.1313(3) 0.3985(3)
H50_4 H 0.0763 0.1018 0.3736
N17_4 N 0.0802(3) 0.1924(3) 0.4863(2)
H5_4 H 0.3640 0.2979 0.9836
C8_4 C 0.3585(3) 0.4520(3) 0.9067(3)
C9_4 C 0.4012(4) 0.4707(4) 0.8598(4)
H6_4 H 0.4369 0.4464 0.8512
C10_3 C 0.3901(4) 0.5240(4) 0.8274(4)
H7_3 H 0.4184 0.5374 0.7964
C11_3 C 0.3353(6) 0.5596(4) 0.8406(5)
H8_3 H 0.3257 0.5961 0.8178
C12_3 C 0.2977(4) 0.5392(4) 0.8871(4)
H9_3 H 0.2623 0.5635 0.8973
N2_4 N 0.3339(2) 0.3814(2) 0.9886(2)
N3_4 N 0.3687(3) 0.3985(3) 0.9369(3)
H10_4 H 0.3982 0.3736 0.9237
N4_4 N 0.3076(3) 0.4863(2) 0.9198(3)
H25_4 H 0.2979 0.9836 0.3640
C32_4 C 0.4520(3) 0.9067(3) 0.3585(3)
C33_4 C 0.4707(4) 0.8598(4) 0.4012(4)
H26_4 H 0.4464 0.8512 0.4369
C34_3 C 0.5240(4) 0.8274(4) 0.3901(4)
H27_3 H 0.5374 0.7964 0.4184
C35_3 C 0.5596(4) 0.8406(5) 0.3353(6)
H28_3 H 0.5961 0.8178 0.3257
C36_3 C 0.5392(4) 0.8871(4) 0.2977(4)
H29_3 H 0.5635 0.8973 0.2623
N8_4 N 0.3814(2) 0.9886(2) 0.3339(2)
N9_4 N 0.3985(3) 0.9369(3) 0.3687(3)
H30_4 H 0.3736 0.9237 0.3982
N10_4 N 0.4863(2) 0.9198(3) 0.3076(3)
H15_4 H 0.9836 0.3640 0.2979
C20_4 C 0.9067(3) 0.3585(3) 0.4520(3)
C21_4 C 0.8598(4) 0.4012(4) 0.4707(4)
H16_4 H 0.8512 0.4369 0.4464
C22_3 C 0.8274(4) 0.3901(4) 0.5240(4)
H17_3 H 0.7964 0.4184 0.5374
C23_3 C 0.8406(5) 0.3353(6) 0.5596(4)
H18_3 H 0.8178 0.3257 0.5961
C24_3 C 0.8871(4) 0.2977(4) 0.5392(4)
H19_3 H 0.8973 0.2623 0.5635
N5_4 N 0.9886(2) 0.3339(2) 0.3814(2)
N6_4 N 0.9369(3) 0.3687(3) 0.3985(3)
H20_4 H 0.9237 0.3982 0.3736
N7_4 N 0.9198(3) 0.3076(3) 0.4863(2)
Ag2_6 Ag 1.0000 0.2500 0.45749(3)
C37_4 C 0.7490(3) 0.2514(3) 0.1694(2)
C38_4 C 0.7452(3) 0.1857(2) 0.1616(3)
H31_4 H 0.7618 0.1588 0.1922
C39_4 C 0.7171(3) 0.1613(3) 0.1088(3)
H32_4 H 0.7150 0.1176 0.1039
C40_4 C 0.6922(3) 0.1989(3) 0.0634(3)
C41_4 C 0.6955(3) 0.2629(3) 0.0712(3)
H33_4 H 0.6774 0.2893 0.0409
C42_4 C 0.7245(3) 0.2887(3) 0.1216(3)
H34_4 H 0.7281 0.3325 0.1244
C43_4 C 0.6611(3) 0.1746(3) 0.0072(3)
N11_4 N 0.7773(2) 0.2773(2) 0.2227(2)
C49_4 C 0.8306(2) 0.2490(3) 0.2486(3)
C50_4 C 0.8384(3) 0.2452(3) 0.3143(2)
H41_4 H 0.8078 0.2618 0.3412
C51_4 C 0.8912(3) 0.2171(3) 0.3387(3)
H42_4 H 0.8961 0.2150 0.3824
C52_4 C 0.9366(3) 0.1922(3) 0.3011(3)
C53_4 C 0.9288(3) 0.1955(3) 0.2371(3)
H43_4 H 0.9591 0.1774 0.2107
C54_4 C 0.8784(3) 0.2245(3) 0.2113(3)
H44_4 H 0.8756 0.2281 0.1675
C55_4 C 0.9928(3) 0.1611(3) 0.3254(3)
C61_4 C 0.7514(3) 0.3306(2) 0.2510(3)
C62_4 C 0.6857(2) 0.3384(3) 0.2548(3)
H51_4 H 0.6588 0.3078 0.2382
C63_4 C 0.6613(3) 0.3912(3) 0.2829(3)
H52_4 H 0.6176 0.3961 0.2850
C64_4 C 0.6989(3) 0.4366(3) 0.3078(3)
C65_4 C 0.7629(3) 0.4288(3) 0.3045(3)
H53_4 H 0.7893 0.4591 0.3226
C66_4 C 0.7887(3) 0.3784(3) 0.2755(3)
H54_4 H 0.8325 0.3756 0.2719
C67_4 C 0.6746(3) 0.4928(3) 0.3389(3)
H55_4 H 0.7021 0.5164 0.3640
C68_4 C 0.5480(3) 0.5933(3) 0.3585(3)
C69_4 C 0.5293(4) 0.6402(4) 0.4012(4)
H56_4 H 0.5536 0.6488 0.4369
C70_3 C 0.4760(4) 0.6726(4) 0.3901(4)
H57_3 H 0.4626 0.7036 0.4184
C71_3 C 0.4404(4) 0.6594(5) 0.3353(6)
H58_3 H 0.4039 0.6822 0.3257
C72_3 C 0.4608(4) 0.6129(4) 0.2977(4)
H59_3 H 0.4365 0.6027 0.2623
N19_4 N 0.6015(3) 0.5631(3) 0.3687(3)
H60_4 H 0.6264 0.5763 0.3982
H35_4 H 0.6360 0.2021 0.9836
C44_4 C 0.6415(3) 0.0480(3) 0.9067(3)
C45_4 C 0.5988(4) 0.0293(4) 0.8598(4)
H36_4 H 0.5631 0.0536 0.8512
N13_4 N 0.6313(3) 0.1015(3) 0.9369(3)
H40_4 H 0.6018 0.1264 0.9237
C10_4 C 0.8901(4) 0.9760(4) 0.1726(4)
H7_4 H 0.9184 0.9626 0.2036
C11_4 C 0.8353(6) 0.9404(4) 0.1594(5)
H8_4 H 0.8257 0.9039 0.1822
C12_4 C 0.7977(4) 0.9608(4) 0.1129(4)
H9_4 H 0.7623 0.9365 0.1027
C70_4 C 0.9760(4) 0.8274(4) 0.6099(4)
H57_4 H 0.9626 0.7964 0.5816
C71_4 C 0.9404(4) 0.8406(5) 0.6647(6)
H58_4 H 0.9039 0.8178 0.6743
C72_4 C 0.9608(4) 0.8871(4) 0.7023(4)
H59_4 H 0.9365 0.8973 0.7377
C22_4 C 0.1726(4) 0.8901(4) 0.9760(4)
H17_4 H 0.2036 0.9184 0.9626
C23_4 C 0.1594(5) 0.8353(6) 0.9404(4)
H18_4 H 0.1822 0.8257 0.9039
C24_4 C 0.1129(4) 0.7977(4) 0.9608(4)
H19_4 H 0.1027 0.7623 0.9365
C58_4 C 0.8274(4) 0.6099(4) 0.9760(4)
H47_4 H 0.7964 0.5816 0.9626
C59_4 C 0.8406(5) 0.6647(6) 0.9404(4)
H48_4 H 0.8178 0.6743 0.9039
C60_4 C 0.8871(4) 0.7023(4) 0.9608(4)
H49_4 H 0.8973 0.7377 0.9365
C34_4 C 0.9760(4) 0.1726(4) 0.8901(4)
H27_4 H 0.9626 0.2036 0.9184
C35_4 C 0.9404(4) 0.1594(5) 0.8353(6)
H28_4 H 0.9039 0.1822 0.8257
C36_4 C 0.9608(4) 0.1129(4) 0.7977(4)
H29_4 H 0.9365 0.1027 0.7623
C46_4 C 0.6099(4) 0.9760(4) 0.8274(4)
H37_4 H 0.5816 0.9626 0.7964
C47_4 C 0.6647(6) 0.9404(4) 0.8406(5)
H38_4 H 0.6743 0.9039 0.8178
C48_4 C 0.7023(4) 0.9608(4) 0.8871(4)
H39_4 H 0.7377 0.9365 0.8973
Cl1 Cl 0.0000 0.2500 0.05933(10)
O1 O 0.0491(3) 0.2256(3) 0.0223(3)
O2 O 0.0250(3) 0.2982(4) 0.0960(3)
Cl1_2 Cl 1.0000 0.2500 0.05933(10)
O3 O 0.9509(3) 0.2744(3) 0.0223(3)
O4 O 0.9750(3) 0.2018(4) 0.0960(3)
Cl1_3 Cl 0.5000 0.7500 0.55933(10)
O1_2 O 0.4509(3) 0.7744(3) 0.5223(3)
O2_2 O 0.4750(3) 0.7018(4) 0.5960(3)
O3_2 O 0.5491(3) 0.7256(3) 0.5223(3)
O4_2 O 0.5250(3) 0.7982(4) 0.5960(3)
Cl1_4 Cl -0.0000 0.7500 0.44067(10)
O3_3 O 0.0491(3) 0.7744(3) 0.4777(3)
O4_3 O 0.0250(3) 0.7018(4) 0.4040(3)
Cl1_5 Cl 1.0000 0.7500 0.44067(10)
O1_3 O 0.9509(3) 0.7256(3) 0.4777(3)
O2_3 O 0.9750(3) 0.7982(4) 0.4040(3)
Cl1_6 Cl 0.5000 0.2500 0.94067(10)
O1_4 O 0.5491(3) 0.2744(3) 0.9777(3)
O2_4 O 0.5250(3) 0.2018(4) 0.9040(3)
O3_4 O 0.4509(3) 0.2256(3) 0.9777(3)
O4_4 O 0.4750(3) 0.2982(4) 0.9040(3)
Cl1_7 Cl 0.05933(10) 0.0000 0.2500
O1_5 O 0.0223(3) 0.0491(3) 0.2256(3)
O2_5 O 0.0960(3) 0.0250(3) 0.2982(4)
Cl1_8 Cl 0.05933(10) 1.0000 0.2500
O3_5 O 0.0223(3) 0.9509(3) 0.2744(3)
O4_5 O 0.0960(3) 0.9750(3) 0.2018(4)
Cl1_9 Cl 0.55933(10) 0.5000 0.7500
O1_6 O 0.5223(3) 0.4509(3) 0.7744(3)
O2_6 O 0.5960(3) 0.4750(3) 0.7018(4)
O3_6 O 0.5223(3) 0.5491(3) 0.7256(3)
O4_6 O 0.5960(3) 0.5250(3) 0.7982(4)
Cl1_10 Cl 0.44067(10) -0.0000 0.7500
O3_7 O 0.4777(3) 0.0491(3) 0.7744(3)
O4_7 O 0.4040(3) 0.0250(3) 0.7018(4)
Cl1_11 Cl 0.44067(10) 1.0000 0.7500
O1_7 O 0.4777(3) 0.9509(3) 0.7256(3)
O2_7 O 0.4040(3) 0.9750(3) 0.7982(4)
Cl1_12 Cl 0.94067(10) 0.5000 0.2500
O1_8 O 0.9777(3) 0.5491(3) 0.2744(3)
O2_8 O 0.9040(3) 0.5250(3) 0.2018(4)
O3_8 O 0.9777(3) 0.4509(3) 0.2256(3)
O4_8 O 0.9040(3) 0.4750(3) 0.2982(4)
Cl1_13 Cl 0.2500 0.05933(10) 0.0000
O1_9 O 0.2256(3) 0.0223(3) 0.0491(3)
O2_9 O 0.2982(4) 0.0960(3) 0.0250(3)
Cl1_14 Cl 0.2500 0.05933(10) 1.0000
O3_9 O 0.2744(3) 0.0223(3) 0.9509(3)
O4_9 O 0.2018(4) 0.0960(3) 0.9750(3)
Cl1_15 Cl 0.7500 0.55933(10) 0.5000
O1_10 O 0.7744(3) 0.5223(3) 0.4509(3)
O2_10 O 0.7018(4) 0.5960(3) 0.4750(3)
O3_10 O 0.7256(3) 0.5223(3) 0.5491(3)
O4_10 O 0.7982(4) 0.5960(3) 0.5250(3)
Cl1_16 Cl 0.7500 0.44067(10) -0.0000
O3_11 O 0.7744(3) 0.4777(3) 0.0491(3)
O4_11 O 0.7018(4) 0.4040(3) 0.0250(3)
Cl1_17 Cl 0.7500 0.44067(10) 1.0000
O1_11 O 0.7256(3) 0.4777(3) 0.9509(3)
O2_11 O 0.7982(4) 0.4040(3) 0.9750(3)
Cl1_18 Cl 0.2500 0.94067(10) 0.5000
O1_12 O 0.2744(3) 0.9777(3) 0.5491(3)
O2_12 O 0.2018(4) 0.9040(3) 0.5250(3)
O3_12 O 0.2256(3) 0.9777(3) 0.4509(3)
O4_12 O 0.2982(4) 0.9040(3) 0.4750(3)
loop_
_geom_bond_atom_site_label_1
_geom_bond_atom_site_label_2
_geom_bond_site_symmetry_1
_geom_bond_site_symmetry_2
H27 C34 1_555 1_555
C35 C34 1_555 1_555
H28 C35 1_555 1_555
C36 C35 1_555 1_555
H29 C36 1_555 1_555
Ag1 N2 1_555 1_555
C8 C9 1_555 1_555
C9 H6 1_555 1_555
N3 C8 1_555 1_555
H10 N3 1_555 1_555
N4 Ag1 1_555 1_555
C44 C45 1_555 1_555
C45 H36 1_555 1_555
C46 C45 1_555 1_555
H37 C46 1_555 1_555
C47 C46 1_555 1_555
H38 C47 1_555 1_555
C48 C47 1_555 1_555
H39 C48 1_555 1_555
N13 C44 1_555 1_555
H40 N13 1_555 1_555
N14 C44 1_555 1_555
Ag4 N12 1_555 1_555
C8 N4 1_555 1_555
N2 N3 1_555 1_555
C48 N14 1_555 1_555
N12 N13 1_555 1_555
N14 Ag4 1_555 1_555
C1 C2 1_555 1_555
C2 H1 1_555 1_555
C3 C2 1_555 1_555
H2 C3 1_555 1_555
C4 C3 1_555 1_555
C5 C4 1_555 1_555
H3 C5 1_555 1_555
C6 C1 1_555 1_555
H4 C6 1_555 1_555
C7 C4 1_555 1_555
N1 C1 1_555 1_555
C13 N1 1_555 1_555
C14 C13 1_555 1_555
H11 C14 1_555 1_555
C15 C14 1_555 1_555
H12 C15 1_555 1_555
C16 C15 1_555 1_555
C17 C16 1_555 1_555
H13 C17 1_555 1_555
C18 C13 1_555 1_555
H14 C18 1_555 1_555
C19 C16 1_555 1_555
H15 C19 1_555 1_555
C20 C21 1_555 1_555
C21 H16 1_555 1_555
C22 C21 1_555 1_555
H17 C22 1_555 1_555
C23 C22 1_555 1_555
H18 C23 1_555 1_555
C24 C23 1_555 1_555
H19 C24 1_555 1_555
N5 C19 1_555 1_555
N6 C20 1_555 1_555
H20 N6 1_555 1_555
N7 C20 1_555 1_555
C25 N1 1_555 1_555
C26 C25 1_555 1_555
H21 C26 1_555 1_555
C27 C26 1_555 1_555
H22 C27 1_555 1_555
C28 C27 1_555 1_555
C29 C28 1_555 1_555
H23 C29 1_555 1_555
C30 C25 1_555 1_555
H24 C30 1_555 1_555
C31 C28 1_555 1_555
H25 C31 1_555 1_555
C32 C33 1_555 1_555
C33 H26 1_555 1_555
N8 C31 1_555 1_555
N9 C32 1_555 1_555
H30 N9 1_555 1_555
N10 C32 1_555 1_555
Ag2 N5 1_555 1_555
Ag3 N8 1_555 1_555
C37 C38 1_555 1_555
C38 H31 1_555 1_555
C39 C38 1_555 1_555
H32 C39 1_555 1_555
C40 C39 1_555 1_555
C41 C40 1_555 1_555
H33 C41 1_555 1_555
C42 C37 1_555 1_555
H34 C42 1_555 1_555
C43 C40 1_555 1_555
N11 C37 1_555 1_555
C49 N11 1_555 1_555
C50 C49 1_555 1_555
H41 C50 1_555 1_555
C51 C50 1_555 1_555
H42 C51 1_555 1_555
C52 C51 1_555 1_555
C53 C52 1_555 1_555
H43 C53 1_555 1_555
C54 C49 1_555 1_555
H44 C54 1_555 1_555
C55 C52 1_555 1_555
H45 C55 1_555 1_555
C56 C57 1_555 1_555
C57 H46 1_555 1_555
C58 C57 1_555 1_555
H47 C58 1_555 1_555
C59 C58 1_555 1_555
H48 C59 1_555 1_555
C60 C59 1_555 1_555
H49 C60 1_555 1_555
N15 Ag2 1_555 1_555
N16 C56 1_555 1_555
H50 N16 1_555 1_555
N17 Ag2 1_555 1_555
C61 N11 1_555 1_555
C62 C61 1_555 1_555
H51 C62 1_555 1_555
C63 C62 1_555 1_555
H52 C63 1_555 1_555
C64 C63 1_555 1_555
C65 C64 1_555 1_555
H53 C65 1_555 1_555
C66 C61 1_555 1_555
H54 C66 1_555 1_555
C67 C64 1_555 1_555
N21 Ag1_2 1_555 1_555
N22 Ag3 1_555 1_555
N23 Ag1_2 1_555 1_555
N24 Ag3 1_555 1_555
C5 C6 1_555 1_555
C17 C18 1_555 1_555
C24 N7 1_555 1_555
N5 N6 1_555 1_555
N7 Ag2 1_555 1_555
C29 C30 1_555 1_555
N8 N9 1_555 1_555
N10 Ag3 1_555 1_555
C41 C42 1_555 1_555
C53 C54 1_555 1_555
C55 N15 1_555 1_555
C56 N17 1_555 1_555
C60 N17 1_555 1_555
N15 N16 1_555 1_555
C65 C66 1_555 1_555
C68 C69 1_555 1_555
C69 H56 1_555 1_555
N19 C68 1_555 1_555
H60 N19 1_555 1_555
N20 C68 1_555 1_555
Ag5_2 N18 1_555 1_555
N18 N19 1_555 1_555
N20 Ag5_2 1_555 1_555
C68_2 C69_2 1_555 1_555
C69_2 H56_2 1_555 1_555
C70 C69_2 1_555 1_555
H57 C70 1_555 1_555
C71 C70 1_555 1_555
H58 C71 1_555 1_555
C72 C71 1_555 1_555
H59 C72 1_555 1_555
N19_2 C68_2 1_555 1_555
H60_2 N19_2 1_555 1_555
N20_2 C68_2 1_555 1_555
Ag5_3 N18_2 1_555 1_555
C72 N20_2 1_555 1_555
N18_2 N19_2 1_555 1_555
N20_2 Ag5_3 1_555 1_555
C20_2 C21_2 1_555 1_555
C21_2 H16_2 1_555 1_555
N6_2 C20_2 1_555 1_555
H20_2 N6_2 1_555 1_555
N7_2 C20_2 1_555 1_555
Ag2_2 N5_2 1_555 1_555
C37_2 C38_2 1_555 1_555
C38_2 H31_2 1_555 1_555
C39_2 C38_2 1_555 1_555
H32_2 C39_2 1_555 1_555
C40_2 C39_2 1_555 1_555
C41_2 C40_2 1_555 1_555
H33_2 C41_2 1_555 1_555
C42_2 C37_2 1_555 1_555
H34_2 C42_2 1_555 1_555
C43_2 C40_2 1_555 1_555
H35_2 C43_2 1_555 1_555
C44_2 C45_2 1_555 1_555
C45_2 H36_2 1_555 1_555
C46_2 C45_2 1_555 1_555
H37_2 C46_2 1_555 1_555
C47_2 C46_2 1_555 1_555
H38_2 C47_2 1_555 1_555
C48_2 C47_2 1_555 1_555
H39_2 C48_2 1_555 1_555
N11_2 C37_2 1_555 1_555
N12_2 C43_2 1_555 1_555
N13_2 C44_2 1_555 1_555
H40_2 N13_2 1_555 1_555
N14_2 C44_2 1_555 1_555
C49_2 N11_2 1_555 1_555
C50_2 C49_2 1_555 1_555
H41_2 C50_2 1_555 1_555
C51_2 C50_2 1_555 1_555
H42_2 C51_2 1_555 1_555
C52_2 C51_2 1_555 1_555
C53_2 C52_2 1_555 1_555
H43_2 C53_2 1_555 1_555
C54_2 C49_2 1_555 1_555
H44_2 C54_2 1_555 1_555
C55_2 C52_2 1_555 1_555
C61_2 N11_2 1_555 1_555
C62_2 C61_2 1_555 1_555
H51_2 C62_2 1_555 1_555
C63_2 C62_2 1_555 1_555
H52_2 C63_2 1_555 1_555
C64_2 C63_2 1_555 1_555
C65_2 C64_2 1_555 1_555
H53_2 C65_2 1_555 1_555
C66_2 C61_2 1_555 1_555
H54_2 C66_2 1_555 1_555
C67_2 C64_2 1_555 1_555
Ag4_3 N12_2 1_555 1_555
N5_2 N6_2 1_555 1_555
N7_2 Ag2_2 1_555 1_555
C41_2 C42_2 1_555 1_555
C48_2 N14_2 1_555 1_555
N12_2 N13_2 1_555 1_555
N14_2 Ag4_3 1_555 1_555
C53_2 C54_2 1_555 1_555
C65_2 C66_2 1_555 1_555
H7 C10 1_555 1_555
C11 C10 1_555 1_555
H8 C11 1_555 1_555
C12 C11 1_555 1_555
H9 C12 1_555 1_555
Ag1_3 N2_2 1_555 1_555
C1_2 C2_2 1_555 1_555
C2_2 H1_2 1_555 1_555
C3_2 C2_2 1_555 1_555
H2_2 C3_2 1_555 1_555
C4_2 C3_2 1_555 1_555
C5_2 C4_2 1_555 1_555
H3_2 C5_2 1_555 1_555
C6_2 C1_2 1_555 1_555
H4_2 C6_2 1_555 1_555
C7_2 C4_2 1_555 1_555
H5_2 C7_2 1_555 1_555
C8_2 C9_2 1_555 1_555
C9_2 H6_2 1_555 1_555
N1_2 C1_2 1_555 1_555
N2_2 C7_2 1_555 1_555
N3_2 C8_2 1_555 1_555
H10_2 N3_2 1_555 1_555
N4_2 Ag1_3 1_555 1_555
C13_2 N1_2 1_555 1_555
C14_2 C13_2 1_555 1_555
H11_2 C14_2 1_555 1_555
C15_2 C14_2 1_555 1_555
H12_2 C15_2 1_555 1_555
C16_2 C15_2 1_555 1_555
C17_2 C16_2 1_555 1_555
H13_2 C17_2 1_555 1_555
C18_2 C13_2 1_555 1_555
H14_2 C18_2 1_555 1_555
C19_2 C16_2 1_555 1_555
C25_2 N1_2 1_555 1_555
C26_2 C25_2 1_555 1_555
H21_2 C26_2 1_555 1_555
C27_2 C26_2 1_555 1_555
H22_2 C27_2 1_555 1_555
C28_2 C27_2 1_555 1_555
C29_2 C28_2 1_555 1_555
H23_2 C29_2 1_555 1_555
C30_2 C25_2 1_555 1_555
H24_2 C30_2 1_555 1_555
C31_2 C28_2 1_555 1_555
H25_2 C31_2 1_555 1_555
C32_2 C33_2 1_555 1_555
C33_2 H26_2 1_555 1_555
C34_2 C33_2 1_555 1_555
H27_2 C34_2 1_555 1_555
C35_2 C34_2 1_555 1_555
H28_2 C35_2 1_555 1_555
C36_2 C35_2 1_555 1_555
H29_2 C36_2 1_555 1_555
N8_2 C31_2 1_555 1_555
N9_2 C32_2 1_555 1_555
H30_2 N9_2 1_555 1_555
N10_2 C32_2 1_555 1_555
Ag3_2 N8_2 1_555 1_555
C56_2 C57_2 1_555 1_555
C57_2 H46_2 1_555 1_555
N15_2 Ag2_3 1_555 1_555
N16_2 C56_2 1_555 1_555
H50_2 N16_2 1_555 1_555
N17_2 Ag2_3 1_555 1_555
N21_2 Ag1_3 1_555 1_555
N22_2 Ag3_2 1_555 1_555
N23_2 Ag1_3 1_555 1_555
N24_2 Ag3_2 1_555 1_555
C5_2 C6_2 1_555 1_555
C8_2 N4_2 1_555 1_555
N2_2 N3_2 1_555 1_555
C17_2 C18_2 1_555 1_555
C29_2 C30_2 1_555 1_555
C36_2 N10_2 1_555 1_555
N8_2 N9_2 1_555 1_555
N10_2 Ag3_2 1_555 1_555
C56_2 N17_2 1_555 1_555
N15_2 N16_2 1_555 1_555
H57_2 C70_2 1_555 1_555
C71_2 C70_2 1_555 1_555
H58_2 C71_2 1_555 1_555
C72_2 C71_2 1_555 1_555
H59_2 C72_2 1_555 1_555
C32_3 C33_3 1_555 1_555
C33_3 H26_3 1_555 1_555
N9_3 C32_3 1_555 1_555
H30_3 N9_3 1_555 1_555
N10_3 C32_3 1_555 1_555
Ag5 N8_3 1_555 1_555
H37_3 C46_3 1_555 1_555
C47_3 C46_3 1_555 1_555
H38_3 C47_3 1_555 1_555
C48_3 C47_3 1_555 1_555
H39_3 C48_3 1_555 1_555
N8_3 N9_3 1_555 1_555
N10_3 Ag5 1_555 1_555
H17_2 C22_2 1_555 1_555
C23_2 C22_2 1_555 1_555
H18_2 C23_2 1_555 1_555
C24_2 C23_2 1_555 1_555
H19_2 C24_2 1_555 1_555
H47_2 C58_2 1_555 1_555
C59_2 C58_2 1_555 1_555
H48_2 C59_2 1_555 1_555
C60_2 C59_2 1_555 1_555
H49_2 C60_2 1_555 1_555
Ag4_3 N2_3 1_555 1_555
C1_3 C2_3 1_555 1_555
C2_3 H1_3 1_555 1_555
C3_3 C2_3 1_555 1_555
H2_3 C3_3 1_555 1_555
C4_3 C3_3 1_555 1_555
C5_3 C4_3 1_555 1_555
H3_3 C5_3 1_555 1_555
C6_3 C1_3 1_555 1_555
H4_3 C6_3 1_555 1_555
C7_3 C4_3 1_555 1_555
H5_3 C7_3 1_555 1_555
C8_3 C9_3 1_555 1_555
C9_3 H6_3 1_555 1_555
C10_2 C9_3 1_555 1_555
H7_2 C10_2 1_555 1_555
C11_2 C10_2 1_555 1_555
H8_2 C11_2 1_555 1_555
C12_2 C11_2 1_555 1_555
H9_2 C12_2 1_555 1_555
N1_3 C1_3 1_555 1_555
N2_3 C7_3 1_555 1_555
N3_3 C8_3 1_555 1_555
H10_3 N3_3 1_555 1_555
N4_3 Ag4_3 1_555 1_555
C13_3 N1_3 1_555 1_555
C14_3 C13_3 1_555 1_555
H11_3 C14_3 1_555 1_555
C15_3 C14_3 1_555 1_555
H12_3 C15_3 1_555 1_555
C16_3 C15_3 1_555 1_555
C17_3 C16_3 1_555 1_555
H13_3 C17_3 1_555 1_555
C18_3 C13_3 1_555 1_555
H14_3 C18_3 1_555 1_555
C19_3 C16_3 1_555 1_555
H15_3 C19_3 1_555 1_555
C20_3 C21_3 1_555 1_555
C21_3 H16_3 1_555 1_555
N5_3 C19_3 1_555 1_555
N6_3 C20_3 1_555 1_555
H20_3 N6_3 1_555 1_555
N7_3 C20_3 1_555 1_555
C25_3 N1_3 1_555 1_555
C26_3 C25_3 1_555 1_555
H21_3 C26_3 1_555 1_555
C27_3 C26_3 1_555 1_555
H22_3 C27_3 1_555 1_555
C28_3 C27_3 1_555 1_555
C29_3 C28_3 1_555 1_555
H23_3 C29_3 1_555 1_555
C30_3 C25_3 1_555 1_555
H24_3 C30_3 1_555 1_555
C31_3 C28_3 1_555 1_555
Ag2_4 N5_3 1_555 1_555
C37_3 C38_3 1_555 1_555
C38_3 H31_3 1_555 1_555
C39_3 C38_3 1_555 1_555
H32_3 C39_3 1_555 1_555
C40_3 C39_3 1_555 1_555
C41_3 C40_3 1_555 1_555
H33_3 C41_3 1_555 1_555
C42_3 C37_3 1_555 1_555
H34_3 C42_3 1_555 1_555
C43_3 C40_3 1_555 1_555
H35_3 C43_3 1_555 1_555
C44_3 C45_3 1_555 1_555
C45_3 H36_3 1_555 1_555
N11_3 C37_3 1_555 1_555
N21_2 C43_3 1_555 1_555
N13_3 C44_3 1_555 1_555
H40_3 N13_3 1_555 1_555
N23_2 C44_3 1_555 1_555
C49_3 N11_3 1_555 1_555
C50_3 C49_3 1_555 1_555
H41_3 C50_3 1_555 1_555
C51_3 C50_3 1_555 1_555
H42_3 C51_3 1_555 1_555
C52_3 C51_3 1_555 1_555
C53_3 C52_3 1_555 1_555
H43_3 C53_3 1_555 1_555
C54_3 C49_3 1_555 1_555
H44_3 C54_3 1_555 1_555
C55_3 C52_3 1_555 1_555
H45_3 C55_3 1_555 1_555
C56_3 C57_3 1_555 1_555
C57_3 H46_3 1_555 1_555
N15_3 Ag2_4 1_555 1_555
N16_3 C56_3 1_555 1_555
H50_3 N16_3 1_555 1_555
N17_3 Ag2_4 1_555 1_555
C61_3 N11_3 1_555 1_555
C62_3 C61_3 1_555 1_555
H51_3 C62_3 1_555 1_555
C63_3 C62_3 1_555 1_555
H52_3 C63_3 1_555 1_555
C64_3 C63_3 1_555 1_555
C65_3 C64_3 1_555 1_555
H53_3 C65_3 1_555 1_555
C66_3 C61_3 1_555 1_555
H54_3 C66_3 1_555 1_555
C67_3 C64_3 1_555 1_555
H55_3 C67_3 1_555 1_555
C68_3 C69_3 1_555 1_555
C69_3 H56_3 1_555 1_555
N22 C67_3 1_555 1_555
N19_3 C68_3 1_555 1_555
H60_3 N19_3 1_555 1_555
N24 C68_3 1_555 1_555
C5_3 C6_3 1_555 1_555
C8_3 N4_3 1_555 1_555
C12_2 N4_3 1_555 1_555
N2_3 N3_3 1_555 1_555
C17_3 C18_3 1_555 1_555
N5_3 N6_3 1_555 1_555
N7_3 Ag2_4 1_555 1_555
C29_3 C30_3 1_555 1_555
C41_3 C42_3 1_555 1_555
N21_2 N13_3 1_555 1_555
C53_3 C54_3 1_555 1_555
C55_3 N15_3 1_555 1_555
C56_3 N17_3 1_555 1_555
N15_3 N16_3 1_555 1_555
C65_3 C66_3 1_555 1_555
N22 N19_3 1_555 1_555
C1_4 C2_4 1_555 1_555
C2_4 H1_4 1_555 1_555
C3_4 C2_4 1_555 1_555
H2_4 C3_4 1_555 1_555
C4_4 C3_4 1_555 1_555
C5_4 C4_4 1_555 1_555
H3_4 C5_4 1_555 1_555
C6_4 C1_4 1_555 1_555
H4_4 C6_4 1_555 1_555
C7_4 C4_4 1_555 1_555
N1_4 C1_4 1_555 1_555
C13_4 N1_4 1_555 1_555
C14_4 C13_4 1_555 1_555
H11_4 C14_4 1_555 1_555
C15_4 C14_4 1_555 1_555
H12_4 C15_4 1_555 1_555
C16_4 C15_4 1_555 1_555
C17_4 C16_4 1_555 1_555
H13_4 C17_4 1_555 1_555
C18_4 C13_4 1_555 1_555
H14_4 C18_4 1_555 1_555
C19_4 C16_4 1_555 1_555
C25_4 N1_4 1_555 1_555
C26_4 C25_4 1_555 1_555
H21_4 C26_4 1_555 1_555
C27_4 C26_4 1_555 1_555
H22_4 C27_4 1_555 1_555
C28_4 C27_4 1_555 1_555
C29_4 C28_4 1_555 1_555
H23_4 C29_4 1_555 1_555
C30_4 C25_4 1_555 1_555
H24_4 C30_4 1_555 1_555
C31_4 C28_4 1_555 1_555
C56_4 C57_4 1_555 1_555
C57_4 H46_4 1_555 1_555
C58_3 C57_4 1_555 1_555
H47_3 C58_3 1_555 1_555
C59_3 C58_3 1_555 1_555
H48_3 C59_3 1_555 1_555
C60_3 C59_3 1_555 1_555
H49_3 C60_3 1_555 1_555
N15_4 Ag2_5 1_555 1_555
N16_4 C56_4 1_555 1_555
H50_4 N16_4 1_555 1_555
N17_4 Ag2_5 1_555 1_555
C5_4 C6_4 1_555 1_555
C17_4 C18_4 1_555 1_555
C29_4 C30_4 1_555 1_555
C56_4 N17_4 1_555 1_555
C60_3 N17_4 1_555 1_555
N15_4 N16_4 1_555 1_555
Ag4_2 N2_4 1_555 1_555
C8_4 C9_4 1_555 1_555
C9_4 H6_4 1_555 1_555
C10_3 C9_4 1_555 1_555
H7_3 C10_3 1_555 1_555
C11_3 C10_3 1_555 1_555
H8_3 C11_3 1_555 1_555
C12_3 C11_3 1_555 1_555
H9_3 C12_3 1_555 1_555
N3_4 C8_4 1_555 1_555
H10_4 N3_4 1_555 1_555
N4_4 Ag4_2 1_555 1_555
C8_4 N4_4 1_555 1_555
C12_3 N4_4 1_555 1_555
N2_4 N3_4 1_555 1_555
C32_4 C33_4 1_555 1_555
C33_4 H26_4 1_555 1_555
C34_3 C33_4 1_555 1_555
H27_3 C34_3 1_555 1_555
C35_3 C34_3 1_555 1_555
H28_3 C35_3 1_555 1_555
C36_3 C35_3 1_555 1_555
H29_3 C36_3 1_555 1_555
N9_4 C32_4 1_555 1_555
H30_4 N9_4 1_555 1_555
N10_4 C32_4 1_555 1_555
Ag5_4 N8_4 1_555 1_555
C36_3 N10_4 1_555 1_555
N8_4 N9_4 1_555 1_555
N10_4 Ag5_4 1_555 1_555
C20_4 C21_4 1_555 1_555
C21_4 H16_4 1_555 1_555
C22_3 C21_4 1_555 1_555
H17_3 C22_3 1_555 1_555
C23_3 C22_3 1_555 1_555
H18_3 C23_3 1_555 1_555
C24_3 C23_3 1_555 1_555
H19_3 C24_3 1_555 1_555
N6_4 C20_4 1_555 1_555
H20_4 N6_4 1_555 1_555
N7_4 C20_4 1_555 1_555
Ag2_6 N5_4 1_555 1_555
C37_4 C38_4 1_555 1_555
C38_4 H31_4 1_555 1_555
C39_4 C38_4 1_555 1_555
H32_4 C39_4 1_555 1_555
C40_4 C39_4 1_555 1_555
C41_4 C40_4 1_555 1_555
H33_4 C41_4 1_555 1_555
C42_4 C37_4 1_555 1_555
H34_4 C42_4 1_555 1_555
C43_4 C40_4 1_555 1_555
N11_4 C37_4 1_555 1_555
C49_4 N11_4 1_555 1_555
C50_4 C49_4 1_555 1_555
H41_4 C50_4 1_555 1_555
C51_4 C50_4 1_555 1_555
H42_4 C51_4 1_555 1_555
C52_4 C51_4 1_555 1_555
C53_4 C52_4 1_555 1_555
H43_4 C53_4 1_555 1_555
C54_4 C49_4 1_555 1_555
H44_4 C54_4 1_555 1_555
C55_4 C52_4 1_555 1_555
C61_4 N11_4 1_555 1_555
C62_4 C61_4 1_555 1_555
H51_4 C62_4 1_555 1_555
C63_4 C62_4 1_555 1_555
H52_4 C63_4 1_555 1_555
C64_4 C63_4 1_555 1_555
C65_4 C64_4 1_555 1_555
H53_4 C65_4 1_555 1_555
C66_4 C61_4 1_555 1_555
H54_4 C66_4 1_555 1_555
C67_4 C64_4 1_555 1_555
H55_4 C67_4 1_555 1_555
C68_4 C69_4 1_555 1_555
C69_4 H56_4 1_555 1_555
C70_3 C69_4 1_555 1_555
H57_3 C70_3 1_555 1_555
C71_3 C70_3 1_555 1_555
H58_3 C71_3 1_555 1_555
C72_3 C71_3 1_555 1_555
H59_3 C72_3 1_555 1_555
N22_2 C67_4 1_555 1_555
N19_4 C68_4 1_555 1_555
H60_4 N19_4 1_555 1_555
N24_2 C68_4 1_555 1_555
C24_3 N7_4 1_555 1_555
N5_4 N6_4 1_555 1_555
N7_4 Ag2_6 1_555 1_555
C41_4 C42_4 1_555 1_555
C53_4 C54_4 1_555 1_555
C65_4 C66_4 1_555 1_555
C72_3 N24_2 1_555 1_555
N22_2 N19_4 1_555 1_555
C44_4 C45_4 1_555 1_555
C45_4 H36_4 1_555 1_555
N13_4 C44_4 1_555 1_555
H40_4 N13_4 1_555 1_555
N23 C44_4 1_555 1_555
N21 N13_4 1_555 1_555
H7_4 C10_4 1_555 1_555
C11_4 C10_4 1_555 1_555
H8_4 C11_4 1_555 1_555
C12_4 C11_4 1_555 1_555
H9_4 C12_4 1_555 1_555
H57_4 C70_4 1_555 1_555
C71_4 C70_4 1_555 1_555
H58_4 C71_4 1_555 1_555
C72_4 C71_4 1_555 1_555
H59_4 C72_4 1_555 1_555
H17_4 C22_4 1_555 1_555
C23_4 C22_4 1_555 1_555
H18_4 C23_4 1_555 1_555
C24_4 C23_4 1_555 1_555
H19_4 C24_4 1_555 1_555
H47_4 C58_4 1_555 1_555
C59_4 C58_4 1_555 1_555
H48_4 C59_4 1_555 1_555
C60_4 C59_4 1_555 1_555
H49_4 C60_4 1_555 1_555
H27_4 C34_4 1_555 1_555
C35_4 C34_4 1_555 1_555
H28_4 C35_4 1_555 1_555
C36_4 C35_4 1_555 1_555
H29_4 C36_4 1_555 1_555
H37_4 C46_4 1_555 1_555
C47_4 C46_4 1_555 1_555
H38_4 C47_4 1_555 1_555
C48_4 C47_4 1_555 1_555
H39_4 C48_4 1_555 1_555
Cl1 O1 1_555 1_555
O2 Cl1 1_555 1_555
O3 Cl1_2 1_555 1_555
O4 Cl1_2 1_555 1_555
Cl1_3 O1_2 1_555 1_555
O2_2 Cl1_3 1_555 1_555
O3_2 Cl1_3 1_555 1_555
O4_2 Cl1_3 1_555 1_555
O3_3 Cl1_4 1_555 1_555
O4_3 Cl1_4 1_555 1_555
Cl1_5 O1_3 1_555 1_555
O2_3 Cl1_5 1_555 1_555
Cl1_6 O1_4 1_555 1_555
O2_4 Cl1_6 1_555 1_555
O3_4 Cl1_6 1_555 1_555
O4_4 Cl1_6 1_555 1_555
Cl1_7 O1_5 1_555 1_555
O2_5 Cl1_7 1_555 1_555
O3_5 Cl1_8 1_555 1_555
O4_5 Cl1_8 1_555 1_555
Cl1_9 O1_6 1_555 1_555
O2_6 Cl1_9 1_555 1_555
O3_6 Cl1_9 1_555 1_555
O4_6 Cl1_9 1_555 1_555
O3_7 Cl1_10 1_555 1_555
O4_7 Cl1_10 1_555 1_555
Cl1_11 O1_7 1_555 1_555
O2_7 Cl1_11 1_555 1_555
Cl1_12 O1_8 1_555 1_555
O2_8 Cl1_12 1_555 1_555
O3_8 Cl1_12 1_555 1_555
O4_8 Cl1_12 1_555 1_555
Cl1_13 O1_9 1_555 1_555
O2_9 Cl1_13 1_555 1_555
O3_9 Cl1_14 1_555 1_555
O4_9 Cl1_14 1_555 1_555
Cl1_15 O1_10 1_555 1_555
O2_10 Cl1_15 1_555 1_555
O3_10 Cl1_15 1_555 1_555
O4_10 Cl1_15 1_555 1_555
O3_11 Cl1_16 1_555 1_555
O4_11 Cl1_16 1_555 1_555
Cl1_17 O1_11 1_555 1_555
O2_11 Cl1_17 1_555 1_555
Cl1_18 O1_12 1_555 1_555
O2_12 Cl1_18 1_555 1_555
O3_12 Cl1_18 1_555 1_555
O4_12 Cl1_18 1_555 1_555

#END
