
###############################################################################
#
# This file contains modified crystal structure data generated from the
# MOF subset of the Cambridge Structural Database (CSD) v543 
# hosted by the Cambridge Crystallographic Data Centre (CCDC).
#
# This work is licensed under the Creative Commons
# Attribution-NonCommercial-ShareAlike 4.0 International License.
# To view a copy of this license, visit
# http://creativecommons.org/licenses/by-nc-sa/4.0/
# or send a letter to
# Creative Commons, PO Box 1866, Mountain View, CA 94042, USA.
#
# CIF created using the CSD Python API on 29 September 2022
# The structure has been converted into the P1 space group
# The structure has a 3D framework
# The original CSD entry KEPMUQ04 is in the cubic crystal system
# The original CSD entry KEPMUQ04 is in a Sohncke space group
# The framework has been calculated to contain at least 10.0% void space
# The void calculation uses a probe of radius 1.32A, grid spacing 0.4
# The framework is charged, counterions have been retained in the structure
#
###############################################################################

data_KEPMUQ04
_chemical_formula_moiety         '(C288 H240 Ag14 Cl18 N80 O48 2+)n'
_symmetry_cell_setting           triclinic
_symmetry_space_group_name_H-M   'P 1'
_symmetry_Int_Tables_number      1
_space_group_name_Hall           'P 1'
loop_
_symmetry_equiv_pos_site_id
_symmetry_equiv_pos_as_xyz
1 x,y,z
_cell_length_a                   21.3496(3)
_cell_length_b                   21.3496(3)
_cell_length_c                   21.3496(3)
_cell_angle_alpha                90
_cell_angle_beta                 90
_cell_angle_gamma                90
_cell_volume                     9731.26
loop_
_atom_site_label
_atom_site_type_symbol
_atom_site_fract_x
_atom_site_fract_y
_atom_site_fract_z
C34 C 0.0239(4) 0.6726(4) 0.6101(4)
H27 H 0.0373 0.7035 0.5819
C35 C 0.0600(4) 0.6593(5) 0.6646(6)
H28 H 0.0968 0.6816 0.6741
C36 C 0.0385(3) 0.6124(4) 0.7020(4)
H29 H 0.0624 0.6019 0.7375
Ag1 Ag 0.7500 0.04339(3) 0.0000
H5 H 0.8638 0.2031 0.0167
C8 C 0.8587(3) 0.0486(3) 0.0930(3)
C9 C 0.9012(3) 0.0310(4) 0.1402(3)
H6 H 0.9364 0.0558 0.1494
N2 N 0.83401(18) 0.1195(2) 0.0112(2)
N3 N 0.8686(2) 0.1025(2) 0.0633(2)
H10 H 0.8975 0.1278 0.0771
N4 N 0.8081(2) 0.0148(2) 0.0799(3)
H35 H 0.1362 0.2969 0.0167
C44 C 0.1413(3) 0.4514(3) 0.0930(3)
C45 C 0.0988(3) 0.4690(4) 0.1402(3)
H36 H 0.0636 0.4442 0.1494
C46 C 0.1101(4) 0.5239(4) 0.1726(4)
H37 H 0.0819 0.5373 0.2035
C47 C 0.1646(6) 0.5600(4) 0.1593(5)
H38 H 0.1741 0.5968 0.1816
C48 C 0.2020(4) 0.5385(3) 0.1124(4)
H39 H 0.2375 0.5624 0.1019
N12 N 0.16599(18) 0.3805(2) 0.0112(2)
N13 N 0.1314(2) 0.3975(2) 0.0633(2)
H40 H 0.1025 0.3722 0.0771
N14 N 0.1919(2) 0.4852(2) 0.0799(3)
Ag4 Ag 0.2500 0.45661(3) 0.0000
Ag1_2 Ag 0.7500 0.04339(3) 1.0000
C1 C 0.7509(2) 0.2517(2) 0.8311(2)
C2 C 0.7547(3) 0.1868(2) 0.8387(2)
H1 H 0.7381 0.1602 0.8078
C3 C 0.7828(2) 0.1613(2) 0.8913(2)
H2 H 0.7848 0.1175 0.8960
C4 C 0.8079(2) 0.1997(2) 0.9368(2)
C5 C 0.8043(2) 0.2638(2) 0.9292(2)
H3 H 0.8221 0.2903 0.9594
C6 C 0.7750(3) 0.2892(2) 0.8781(2)
H4 H 0.7713 0.3330 0.8748
C7 C 0.8390(2) 0.1755(2) 0.9931(3)
N1 N 0.7222(2) 0.2778(2) 0.7778(2)
C13 C 0.6689(2) 0.2491(2) 0.7517(2)
C14 C 0.6613(2) 0.2453(3) 0.6868(2)
H11 H 0.6922 0.2619 0.6602
C15 C 0.6087(2) 0.2172(2) 0.6613(2)
H12 H 0.6040 0.2152 0.6175
C16 C 0.5632(2) 0.1921(2) 0.6997(2)
C17 C 0.5708(2) 0.1957(2) 0.7638(2)
H13 H 0.5406 0.1779 0.7903
C18 C 0.6219(2) 0.2250(3) 0.7892(2)
H14 H 0.6252 0.2287 0.8330
C19 C 0.5069(3) 0.1610(2) 0.6755(2)
H15 H 0.4833 0.1362 0.7031
C20 C 0.4070(3) 0.1413(3) 0.5486(3)
C21 C 0.3598(3) 0.0988(3) 0.5310(4)
H16 H 0.3506 0.0636 0.5558
C22 C 0.3274(4) 0.1101(4) 0.4761(4)
H17 H 0.2965 0.0819 0.4627
C23 C 0.3407(5) 0.1646(6) 0.4400(4)
H18 H 0.3184 0.1741 0.4032
C24 C 0.3876(4) 0.2020(4) 0.4615(3)
H19 H 0.3981 0.2375 0.4376
N5 N 0.4888(2) 0.16599(18) 0.6195(2)
N6 N 0.4367(2) 0.1314(2) 0.6025(2)
H20 H 0.4229 0.1025 0.6278
N7 N 0.4201(3) 0.1919(2) 0.5148(2)
C25 C 0.7483(2) 0.3311(2) 0.7491(2)
C26 C 0.8132(2) 0.3387(2) 0.7453(3)
H21 H 0.8398 0.3078 0.7619
C27 C 0.8387(2) 0.3913(2) 0.7172(2)
H22 H 0.8825 0.3960 0.7152
C28 C 0.8003(2) 0.4368(2) 0.6921(2)
C29 C 0.7362(2) 0.4292(2) 0.6957(2)
H23 H 0.7097 0.4594 0.6779
C30 C 0.7108(2) 0.3781(2) 0.7250(3)
H24 H 0.6670 0.3748 0.7287
C31 C 0.8245(2) 0.4931(3) 0.6610(2)
H25 H 0.7969 0.5167 0.6362
C32 C 0.9514(3) 0.5930(3) 0.6413(3)
C33 C 0.9690(4) 0.6402(3) 0.5988(3)
H26 H 0.9442 0.6494 0.5636
N8 N 0.8805(2) 0.5112(2) 0.66599(18)
N9 N 0.8975(2) 0.5633(2) 0.6314(2)
H30 H 0.8722 0.5771 0.6025
N10 N 0.9852(2) 0.5799(3) 0.6919(2)
Ag2 Ag 0.5000 0.2500 0.54339(3)
Ag3 Ag 0.95661(3) 0.5000 0.7500
C37 C 0.2491(2) 0.2483(2) 0.8311(2)
C38 C 0.2453(3) 0.3132(2) 0.8387(2)
H31 H 0.2619 0.3398 0.8078
C39 C 0.2172(2) 0.3387(2) 0.8913(2)
H32 H 0.2152 0.3825 0.8960
C40 C 0.1921(2) 0.3003(2) 0.9368(2)
C41 C 0.1957(2) 0.2362(2) 0.9292(2)
H33 H 0.1779 0.2097 0.9594
C42 C 0.2250(3) 0.2108(2) 0.8781(2)
H34 H 0.2287 0.1670 0.8748
C43 C 0.1610(2) 0.3245(2) 0.9931(3)
N11 N 0.2778(2) 0.2222(2) 0.7778(2)
C49 C 0.3311(2) 0.2509(2) 0.7517(2)
C50 C 0.3387(2) 0.2547(3) 0.6868(2)
H41 H 0.3078 0.2381 0.6602
C51 C 0.3913(2) 0.2828(2) 0.6613(2)
H42 H 0.3960 0.2848 0.6175
C52 C 0.4368(2) 0.3079(2) 0.6997(2)
C53 C 0.4292(2) 0.3043(2) 0.7638(2)
H43 H 0.4594 0.3221 0.7903
C54 C 0.3781(2) 0.2750(3) 0.7892(2)
H44 H 0.3748 0.2713 0.8330
C55 C 0.4931(3) 0.3390(2) 0.6755(2)
H45 H 0.5167 0.3638 0.7031
C56 C 0.5930(3) 0.3587(3) 0.5486(3)
C57 C 0.6402(3) 0.4012(3) 0.5310(4)
H46 H 0.6494 0.4364 0.5558
C58 C 0.6726(4) 0.3899(4) 0.4761(4)
H47 H 0.7035 0.4181 0.4627
C59 C 0.6593(5) 0.3354(6) 0.4400(4)
H48 H 0.6816 0.3259 0.4032
C60 C 0.6124(4) 0.2980(4) 0.4615(3)
H49 H 0.6019 0.2625 0.4376
N15 N 0.5112(2) 0.33401(18) 0.6195(2)
N16 N 0.5633(2) 0.3686(2) 0.6025(2)
H50 H 0.5771 0.3975 0.6278
N17 N 0.5799(3) 0.3081(2) 0.5148(2)
C61 C 0.2517(2) 0.1689(2) 0.7491(2)
C62 C 0.1868(2) 0.1613(2) 0.7453(3)
H51 H 0.1602 0.1922 0.7619
C63 C 0.1613(2) 0.1087(2) 0.7172(2)
H52 H 0.1175 0.1040 0.7152
C64 C 0.1997(2) 0.0632(2) 0.6921(2)
C65 C 0.2638(2) 0.0708(2) 0.6957(2)
H53 H 0.2903 0.0406 0.6779
C66 C 0.2892(2) 0.1219(2) 0.7250(3)
H54 H 0.3330 0.1252 0.7287
C67 C 0.1755(2) 0.0069(3) 0.6610(2)
Ag4_2 Ag 0.2500 0.45661(3) 1.0000
Ag5 Ag 0.04339(3) 0.0000 0.7500
N21 N 0.66599(18) 0.1195(2) 0.9888(2)
N22 N 0.8805(2) 0.4888(2) 0.83401(18)
N23 N 0.6919(2) 0.0148(2) 0.9201(3)
N24 N 0.9852(2) 0.4201(3) 0.8081(2)
H55 H 0.2031 0.9833 0.6362
C68 C 0.0486(3) 0.9070(3) 0.6413(3)
C69 C 0.0310(4) 0.8598(3) 0.5988(3)
H56 H 0.0558 0.8506 0.5636
N18 N 0.1195(2) 0.9888(2) 0.66599(18)
N19 N 0.1025(2) 0.9367(2) 0.6314(2)
H60 H 0.1278 0.9229 0.6025
N20 N 0.0148(2) 0.9201(3) 0.6919(2)
Ag5_2 Ag 0.04339(3) 1.0000 0.7500
H55_2 H 0.2969 0.0167 0.1362
C68_2 C 0.4514(3) 0.0930(3) 0.1413(3)
C69_2 C 0.4690(4) 0.1402(3) 0.0988(3)
H56_2 H 0.4442 0.1494 0.0636
C70 C 0.5239(4) 0.1726(4) 0.1101(4)
H57 H 0.5373 0.2035 0.0819
C71 C 0.5600(4) 0.1593(5) 0.1646(6)
H58 H 0.5968 0.1816 0.1741
C72 C 0.5385(3) 0.1124(4) 0.2020(4)
H59 H 0.5624 0.1019 0.2375
N18_2 N 0.3805(2) 0.0112(2) 0.16599(18)
N19_2 N 0.3975(2) 0.0633(2) 0.1314(2)
H60_2 H 0.3722 0.0771 0.1025
N20_2 N 0.4852(2) 0.0799(3) 0.1919(2)
Ag5_3 Ag 0.45661(3) -0.0000 0.2500
H15_2 H 0.0167 0.8638 0.2031
C20_2 C 0.0930(3) 0.8587(3) 0.0486(3)
C21_2 C 0.1402(3) 0.9012(3) 0.0310(4)
H16_2 H 0.1494 0.9364 0.0558
N5_2 N 0.0112(2) 0.83401(18) 0.1195(2)
N6_2 N 0.0633(2) 0.8686(2) 0.1025(2)
H20_2 H 0.0771 0.8975 0.1278
N7_2 N 0.0799(3) 0.8081(2) 0.0148(2)
Ag2_2 Ag 0.0000 0.7500 0.04339(3)
C37_2 C 0.2509(2) 0.7517(2) 0.3311(2)
C38_2 C 0.2547(3) 0.6868(2) 0.3387(2)
H31_2 H 0.2381 0.6602 0.3078
C39_2 C 0.2828(2) 0.6613(2) 0.3913(2)
H32_2 H 0.2848 0.6175 0.3960
C40_2 C 0.3079(2) 0.6997(2) 0.4368(2)
C41_2 C 0.3043(2) 0.7638(2) 0.4292(2)
H33_2 H 0.3221 0.7903 0.4594
C42_2 C 0.2750(3) 0.7892(2) 0.3781(2)
H34_2 H 0.2713 0.8330 0.3748
C43_2 C 0.3390(2) 0.6755(2) 0.4931(3)
H35_2 H 0.3638 0.7031 0.5167
C44_2 C 0.3587(3) 0.5486(3) 0.5930(3)
C45_2 C 0.4012(3) 0.5310(4) 0.6402(3)
H36_2 H 0.4364 0.5558 0.6494
C46_2 C 0.3899(4) 0.4761(4) 0.6726(4)
H37_2 H 0.4181 0.4627 0.7035
C47_2 C 0.3354(6) 0.4400(4) 0.6593(5)
H38_2 H 0.3259 0.4032 0.6816
C48_2 C 0.2980(4) 0.4615(3) 0.6124(4)
H39_2 H 0.2625 0.4376 0.6019
N11_2 N 0.2222(2) 0.7778(2) 0.2778(2)
N12_2 N 0.33401(18) 0.6195(2) 0.5112(2)
N13_2 N 0.3686(2) 0.6025(2) 0.5633(2)
H40_2 H 0.3975 0.6278 0.5771
N14_2 N 0.3081(2) 0.5148(2) 0.5799(3)
C49_2 C 0.1689(2) 0.7491(2) 0.2517(2)
C50_2 C 0.1613(2) 0.7453(3) 0.1868(2)
H41_2 H 0.1922 0.7619 0.1602
C51_2 C 0.1087(2) 0.7172(2) 0.1613(2)
H42_2 H 0.1040 0.7152 0.1175
C52_2 C 0.0632(2) 0.6921(2) 0.1997(2)
C53_2 C 0.0708(2) 0.6957(2) 0.2638(2)
H43_2 H 0.0406 0.6779 0.2903
C54_2 C 0.1219(2) 0.7250(3) 0.2892(2)
H44_2 H 0.1252 0.7287 0.3330
C55_2 C 0.0069(3) 0.6610(2) 0.1755(2)
C61_2 C 0.2483(2) 0.8311(2) 0.2491(2)
C62_2 C 0.3132(2) 0.8387(2) 0.2453(3)
H51_2 H 0.3398 0.8078 0.2619
C63_2 C 0.3387(2) 0.8913(2) 0.2172(2)
H52_2 H 0.3825 0.8960 0.2152
C64_2 C 0.3003(2) 0.9368(2) 0.1921(2)
C65_2 C 0.2362(2) 0.9292(2) 0.1957(2)
H53_2 H 0.2097 0.9594 0.1779
C66_2 C 0.2108(2) 0.8781(2) 0.2250(3)
H54_2 H 0.1670 0.8748 0.2287
C67_2 C 0.3245(2) 0.9931(3) 0.1610(2)
Ag4_3 Ag 0.2500 0.54339(3) 0.5000
Ag5_4 Ag 0.45661(3) 1.0000 0.2500
C10 C 0.6101(4) 0.0239(4) 0.6726(4)
H7 H 0.5819 0.0373 0.7035
C11 C 0.6646(6) 0.0600(4) 0.6593(5)
H8 H 0.6741 0.0968 0.6816
C12 C 0.7020(4) 0.0385(3) 0.6124(4)
H9 H 0.7375 0.0624 0.6019
Ag1_3 Ag 0.7500 0.95661(3) 0.5000
C1_2 C 0.7491(2) 0.7483(2) 0.3311(2)
C2_2 C 0.7453(3) 0.8132(2) 0.3387(2)
H1_2 H 0.7619 0.8398 0.3078
C3_2 C 0.7172(2) 0.8387(2) 0.3913(2)
H2_2 H 0.7152 0.8825 0.3960
C4_2 C 0.6921(2) 0.8003(2) 0.4368(2)
C5_2 C 0.6957(2) 0.7362(2) 0.4292(2)
H3_2 H 0.6779 0.7097 0.4594
C6_2 C 0.7250(3) 0.7108(2) 0.3781(2)
H4_2 H 0.7287 0.6670 0.3748
C7_2 C 0.6610(2) 0.8245(2) 0.4931(3)
H5_2 H 0.6362 0.7969 0.5167
C8_2 C 0.6413(3) 0.9514(3) 0.5930(3)
C9_2 C 0.5988(3) 0.9690(4) 0.6402(3)
H6_2 H 0.5636 0.9442 0.6494
N1_2 N 0.7778(2) 0.7222(2) 0.2778(2)
N2_2 N 0.66599(18) 0.8805(2) 0.5112(2)
N3_2 N 0.6314(2) 0.8975(2) 0.5633(2)
H10_2 H 0.6025 0.8722 0.5771
N4_2 N 0.6919(2) 0.9852(2) 0.5799(3)
C13_2 C 0.8311(2) 0.7509(2) 0.2517(2)
C14_2 C 0.8387(2) 0.7547(3) 0.1868(2)
H11_2 H 0.8078 0.7381 0.1602
C15_2 C 0.8913(2) 0.7828(2) 0.1613(2)
H12_2 H 0.8960 0.7848 0.1175
C16_2 C 0.9368(2) 0.8079(2) 0.1997(2)
C17_2 C 0.9292(2) 0.8043(2) 0.2638(2)
H13_2 H 0.9594 0.8221 0.2903
C18_2 C 0.8781(2) 0.7750(3) 0.2892(2)
H14_2 H 0.8748 0.7713 0.3330
C19_2 C 0.9931(3) 0.8390(2) 0.1755(2)
C25_2 C 0.7517(2) 0.6689(2) 0.2491(2)
C26_2 C 0.6868(2) 0.6613(2) 0.2453(3)
H21_2 H 0.6602 0.6922 0.2619
C27_2 C 0.6613(2) 0.6087(2) 0.2172(2)
H22_2 H 0.6175 0.6040 0.2152
C28_2 C 0.6997(2) 0.5632(2) 0.1921(2)
C29_2 C 0.7638(2) 0.5708(2) 0.1957(2)
H23_2 H 0.7903 0.5406 0.1779
C30_2 C 0.7892(2) 0.6219(2) 0.2250(3)
H24_2 H 0.8330 0.6252 0.2287
C31_2 C 0.6755(2) 0.5069(3) 0.1610(2)
H25_2 H 0.7031 0.4833 0.1362
C32_2 C 0.5486(3) 0.4070(3) 0.1413(3)
C33_2 C 0.5310(4) 0.3598(3) 0.0988(3)
H26_2 H 0.5558 0.3506 0.0636
C34_2 C 0.4761(4) 0.3274(4) 0.1101(4)
H27_2 H 0.4627 0.2965 0.0819
C35_2 C 0.4400(4) 0.3407(5) 0.1646(6)
H28_2 H 0.4032 0.3184 0.1741
C36_2 C 0.4615(3) 0.3876(4) 0.2020(4)
H29_2 H 0.4376 0.3981 0.2375
N8_2 N 0.6195(2) 0.4888(2) 0.16599(18)
N9_2 N 0.6025(2) 0.4367(2) 0.1314(2)
H30_2 H 0.6278 0.4229 0.1025
N10_2 N 0.5148(2) 0.4201(3) 0.1919(2)
Ag2_3 Ag 1.0000 0.7500 0.04339(3)
Ag3_2 Ag 0.54339(3) 0.5000 0.2500
H45_2 H 0.9833 0.6362 0.2031
C56_2 C 0.9070(3) 0.6413(3) 0.0486(3)
C57_2 C 0.8598(3) 0.5988(3) 0.0310(4)
H46_2 H 0.8506 0.5636 0.0558
N15_2 N 0.9888(2) 0.66599(18) 0.1195(2)
N16_2 N 0.9367(2) 0.6314(2) 0.1025(2)
H50_2 H 0.9229 0.6025 0.1278
N17_2 N 0.9201(3) 0.6919(2) 0.0148(2)
N21_2 N 0.83401(18) 0.8805(2) 0.4888(2)
N22_2 N 0.6195(2) 0.5112(2) 0.33401(18)
N23_2 N 0.8081(2) 0.9852(2) 0.4201(3)
N24_2 N 0.5148(2) 0.5799(3) 0.3081(2)
C70_2 C 0.0239(4) 0.3274(4) 0.8899(4)
H57_2 H 0.0373 0.2965 0.9181
C71_2 C 0.0600(4) 0.3407(5) 0.8354(6)
H58_2 H 0.0968 0.3184 0.8259
C72_2 C 0.0385(3) 0.3876(4) 0.7980(4)
H59_2 H 0.0624 0.3981 0.7625
H25_3 H 0.2031 0.0167 0.8638
C32_3 C 0.0486(3) 0.0930(3) 0.8587(3)
C33_3 C 0.0310(4) 0.1402(3) 0.9012(3)
H26_3 H 0.0558 0.1494 0.9364
N8_3 N 0.1195(2) 0.0112(2) 0.83401(18)
N9_3 N 0.1025(2) 0.0633(2) 0.8686(2)
H30_3 H 0.1278 0.0771 0.8975
N10_3 N 0.0148(2) 0.0799(3) 0.8081(2)
C46_3 C 0.8899(4) 0.0239(4) 0.3274(4)
H37_3 H 0.9181 0.0373 0.2965
C47_3 C 0.8354(6) 0.0600(4) 0.3407(5)
H38_3 H 0.8259 0.0968 0.3184
C48_3 C 0.7980(4) 0.0385(3) 0.3876(4)
H39_3 H 0.7625 0.0624 0.3981
C22_2 C 0.6726(4) 0.6101(4) 0.0239(4)
H17_2 H 0.7035 0.5819 0.0373
C23_2 C 0.6593(5) 0.6646(6) 0.0600(4)
H18_2 H 0.6816 0.6741 0.0968
C24_2 C 0.6124(4) 0.7020(4) 0.0385(3)
H19_2 H 0.6019 0.7375 0.0624
C58_2 C 0.3274(4) 0.8899(4) 0.0239(4)
H47_2 H 0.2965 0.9181 0.0373
C59_2 C 0.3407(5) 0.8354(6) 0.0600(4)
H48_2 H 0.3184 0.8259 0.0968
C60_2 C 0.3876(4) 0.7980(4) 0.0385(3)
H49_2 H 0.3981 0.7625 0.0624
C1_3 C 0.2491(2) 0.7517(2) 0.6689(2)
C2_3 C 0.2453(3) 0.6868(2) 0.6613(2)
H1_3 H 0.2619 0.6602 0.6922
C3_3 C 0.2172(2) 0.6613(2) 0.6087(2)
H2_3 H 0.2152 0.6175 0.6040
C4_3 C 0.1921(2) 0.6997(2) 0.5632(2)
C5_3 C 0.1957(2) 0.7638(2) 0.5708(2)
H3_3 H 0.1779 0.7903 0.5406
C6_3 C 0.2250(3) 0.7892(2) 0.6219(2)
H4_3 H 0.2287 0.8330 0.6252
C7_3 C 0.1610(2) 0.6755(2) 0.5069(3)
H5_3 H 0.1362 0.7031 0.4833
C8_3 C 0.1413(3) 0.5486(3) 0.4070(3)
C9_3 C 0.0988(3) 0.5310(4) 0.3598(3)
H6_3 H 0.0636 0.5558 0.3506
C10_2 C 0.1101(4) 0.4761(4) 0.3274(4)
H7_2 H 0.0819 0.4627 0.2965
C11_2 C 0.1646(6) 0.4400(4) 0.3407(5)
H8_2 H 0.1741 0.4032 0.3184
C12_2 C 0.2020(4) 0.4615(3) 0.3876(4)
H9_2 H 0.2375 0.4376 0.3981
N1_3 N 0.2778(2) 0.7778(2) 0.7222(2)
N2_3 N 0.16599(18) 0.6195(2) 0.4888(2)
N3_3 N 0.1314(2) 0.6025(2) 0.4367(2)
H10_3 H 0.1025 0.6278 0.4229
N4_3 N 0.1919(2) 0.5148(2) 0.4201(3)
C13_3 C 0.3311(2) 0.7491(2) 0.7483(2)
C14_3 C 0.3387(2) 0.7453(3) 0.8132(2)
H11_3 H 0.3078 0.7619 0.8398
C15_3 C 0.3913(2) 0.7172(2) 0.8387(2)
H12_3 H 0.3960 0.7152 0.8825
C16_3 C 0.4368(2) 0.6921(2) 0.8003(2)
C17_3 C 0.4292(2) 0.6957(2) 0.7362(2)
H13_3 H 0.4594 0.6779 0.7097
C18_3 C 0.3781(2) 0.7250(3) 0.7108(2)
H14_3 H 0.3748 0.7287 0.6670
C19_3 C 0.4931(3) 0.6610(2) 0.8245(2)
H15_3 H 0.5167 0.6362 0.7969
C20_3 C 0.5930(3) 0.6413(3) 0.9514(3)
C21_3 C 0.6402(3) 0.5988(3) 0.9690(4)
H16_3 H 0.6494 0.5636 0.9442
N5_3 N 0.5112(2) 0.66599(18) 0.8805(2)
N6_3 N 0.5633(2) 0.6314(2) 0.8975(2)
H20_3 H 0.5771 0.6025 0.8722
N7_3 N 0.5799(3) 0.6919(2) 0.9852(2)
C25_3 C 0.2517(2) 0.8311(2) 0.7509(2)
C26_3 C 0.1868(2) 0.8387(2) 0.7547(3)
H21_3 H 0.1602 0.8078 0.7381
C27_3 C 0.1613(2) 0.8913(2) 0.7828(2)
H22_3 H 0.1175 0.8960 0.7848
C28_3 C 0.1997(2) 0.9368(2) 0.8079(2)
C29_3 C 0.2638(2) 0.9292(2) 0.8043(2)
H23_3 H 0.2903 0.9594 0.8221
C30_3 C 0.2892(2) 0.8781(2) 0.7750(3)
H24_3 H 0.3330 0.8748 0.7713
C31_3 C 0.1755(2) 0.9931(3) 0.8390(2)
Ag2_4 Ag 0.5000 0.7500 0.95661(3)
C37_3 C 0.7509(2) 0.7483(2) 0.6689(2)
C38_3 C 0.7547(3) 0.8132(2) 0.6613(2)
H31_3 H 0.7381 0.8398 0.6922
C39_3 C 0.7828(2) 0.8387(2) 0.6087(2)
H32_3 H 0.7848 0.8825 0.6040
C40_3 C 0.8079(2) 0.8003(2) 0.5632(2)
C41_3 C 0.8043(2) 0.7362(2) 0.5708(2)
H33_3 H 0.8221 0.7097 0.5406
C42_3 C 0.7750(3) 0.7108(2) 0.6219(2)
H34_3 H 0.7713 0.6670 0.6252
C43_3 C 0.8390(2) 0.8245(2) 0.5069(3)
H35_3 H 0.8638 0.7969 0.4833
C44_3 C 0.8587(3) 0.9514(3) 0.4070(3)
C45_3 C 0.9012(3) 0.9690(4) 0.3598(3)
H36_3 H 0.9364 0.9442 0.3506
N11_3 N 0.7222(2) 0.7222(2) 0.7222(2)
N13_3 N 0.8686(2) 0.8975(2) 0.4367(2)
H40_3 H 0.8975 0.8722 0.4229
C49_3 C 0.6689(2) 0.7509(2) 0.7483(2)
C50_3 C 0.6613(2) 0.7547(3) 0.8132(2)
H41_3 H 0.6922 0.7381 0.8398
C51_3 C 0.6087(2) 0.7828(2) 0.8387(2)
H42_3 H 0.6040 0.7848 0.8825
C52_3 C 0.5632(2) 0.8079(2) 0.8003(2)
C53_3 C 0.5708(2) 0.8043(2) 0.7362(2)
H43_3 H 0.5406 0.8221 0.7097
C54_3 C 0.6219(2) 0.7750(3) 0.7108(2)
H44_3 H 0.6252 0.7713 0.6670
C55_3 C 0.5069(3) 0.8390(2) 0.8245(2)
H45_3 H 0.4833 0.8638 0.7969
C56_3 C 0.4070(3) 0.8587(3) 0.9514(3)
C57_3 C 0.3598(3) 0.9012(3) 0.9690(4)
H46_3 H 0.3506 0.9364 0.9442
N15_3 N 0.4888(2) 0.83401(18) 0.8805(2)
N16_3 N 0.4367(2) 0.8686(2) 0.8975(2)
H50_3 H 0.4229 0.8975 0.8722
N17_3 N 0.4201(3) 0.8081(2) 0.9852(2)
C61_3 C 0.7483(2) 0.6689(2) 0.7509(2)
C62_3 C 0.8132(2) 0.6613(2) 0.7547(3)
H51_3 H 0.8398 0.6922 0.7381
C63_3 C 0.8387(2) 0.6087(2) 0.7828(2)
H52_3 H 0.8825 0.6040 0.7848
C64_3 C 0.8003(2) 0.5632(2) 0.8079(2)
C65_3 C 0.7362(2) 0.5708(2) 0.8043(2)
H53_3 H 0.7097 0.5406 0.8221
C66_3 C 0.7108(2) 0.6219(2) 0.7750(3)
H54_3 H 0.6670 0.6252 0.7713
C67_3 C 0.8245(2) 0.5069(3) 0.8390(2)
H55_3 H 0.7969 0.4833 0.8638
C68_3 C 0.9514(3) 0.4070(3) 0.8587(3)
C69_3 C 0.9690(4) 0.3598(3) 0.9012(3)
H56_3 H 0.9442 0.3506 0.9364
N19_3 N 0.8975(2) 0.4367(2) 0.8686(2)
H60_3 H 0.8722 0.4229 0.8975
C1_4 C 0.2509(2) 0.2483(2) 0.1689(2)
C2_4 C 0.2547(3) 0.3132(2) 0.1613(2)
H1_4 H 0.2381 0.3398 0.1922
C3_4 C 0.2828(2) 0.3387(2) 0.1087(2)
H2_4 H 0.2848 0.3825 0.1040
C4_4 C 0.3079(2) 0.3003(2) 0.0632(2)
C5_4 C 0.3043(2) 0.2362(2) 0.0708(2)
H3_4 H 0.3221 0.2097 0.0406
C6_4 C 0.2750(3) 0.2108(2) 0.1219(2)
H4_4 H 0.2713 0.1670 0.1252
C7_4 C 0.3390(2) 0.3245(2) 0.0069(3)
N1_4 N 0.2222(2) 0.2222(2) 0.2222(2)
C13_4 C 0.1689(2) 0.2509(2) 0.2483(2)
C14_4 C 0.1613(2) 0.2547(3) 0.3132(2)
H11_4 H 0.1922 0.2381 0.3398
C15_4 C 0.1087(2) 0.2828(2) 0.3387(2)
H12_4 H 0.1040 0.2848 0.3825
C16_4 C 0.0632(2) 0.3079(2) 0.3003(2)
C17_4 C 0.0708(2) 0.3043(2) 0.2362(2)
H13_4 H 0.0406 0.3221 0.2097
C18_4 C 0.1219(2) 0.2750(3) 0.2108(2)
H14_4 H 0.1252 0.2713 0.1670
C19_4 C 0.0069(3) 0.3390(2) 0.3245(2)
C25_4 C 0.2483(2) 0.1689(2) 0.2509(2)
C26_4 C 0.3132(2) 0.1613(2) 0.2547(3)
H21_4 H 0.3398 0.1922 0.2381
C27_4 C 0.3387(2) 0.1087(2) 0.2828(2)
H22_4 H 0.3825 0.1040 0.2848
C28_4 C 0.3003(2) 0.0632(2) 0.3079(2)
C29_4 C 0.2362(2) 0.0708(2) 0.3043(2)
H23_4 H 0.2097 0.0406 0.3221
C30_4 C 0.2108(2) 0.1219(2) 0.2750(3)
H24_4 H 0.1670 0.1252 0.2713
C31_4 C 0.3245(2) 0.0069(3) 0.3390(2)
Ag2_5 Ag 0.0000 0.2500 0.45661(3)
H45_4 H 0.0167 0.1362 0.2969
C56_4 C 0.0930(3) 0.1413(3) 0.4514(3)
C57_4 C 0.1402(3) 0.0988(3) 0.4690(4)
H46_4 H 0.1494 0.0636 0.4442
C58_3 C 0.1726(4) 0.1101(4) 0.5239(4)
H47_3 H 0.2035 0.0819 0.5373
C59_3 C 0.1593(5) 0.1646(6) 0.5600(4)
H48_3 H 0.1816 0.1741 0.5968
C60_3 C 0.1124(4) 0.2020(4) 0.5385(3)
H49_3 H 0.1019 0.2375 0.5624
N15_4 N 0.0112(2) 0.16599(18) 0.3805(2)
N16_4 N 0.0633(2) 0.1314(2) 0.3975(2)
H50_4 H 0.0771 0.1025 0.3722
N17_4 N 0.0799(3) 0.1919(2) 0.4852(2)
H5_4 H 0.3638 0.2969 0.9833
C8_4 C 0.3587(3) 0.4514(3) 0.9070(3)
C9_4 C 0.4012(3) 0.4690(4) 0.8598(3)
H6_4 H 0.4364 0.4442 0.8506
C10_3 C 0.3899(4) 0.5239(4) 0.8274(4)
H7_3 H 0.4181 0.5373 0.7965
C11_3 C 0.3354(6) 0.5600(4) 0.8407(5)
H8_3 H 0.3259 0.5968 0.8184
C12_3 C 0.2980(4) 0.5385(3) 0.8876(4)
H9_3 H 0.2625 0.5624 0.8981
N2_4 N 0.33401(18) 0.3805(2) 0.9888(2)
N3_4 N 0.3686(2) 0.3975(2) 0.9367(2)
H10_4 H 0.3975 0.3722 0.9229
N4_4 N 0.3081(2) 0.4852(2) 0.9201(3)
H25_4 H 0.2969 0.9833 0.3638
C32_4 C 0.4514(3) 0.9070(3) 0.3587(3)
C33_4 C 0.4690(4) 0.8598(3) 0.4012(3)
H26_4 H 0.4442 0.8506 0.4364
C34_3 C 0.5239(4) 0.8274(4) 0.3899(4)
H27_3 H 0.5373 0.7965 0.4181
C35_3 C 0.5600(4) 0.8407(5) 0.3354(6)
H28_3 H 0.5968 0.8184 0.3259
C36_3 C 0.5385(3) 0.8876(4) 0.2980(4)
H29_3 H 0.5624 0.8981 0.2625
N8_4 N 0.3805(2) 0.9888(2) 0.33401(18)
N9_4 N 0.3975(2) 0.9367(2) 0.3686(2)
H30_4 H 0.3722 0.9229 0.3975
N10_4 N 0.4852(2) 0.9201(3) 0.3081(2)
H15_4 H 0.9833 0.3638 0.2969
C20_4 C 0.9070(3) 0.3587(3) 0.4514(3)
C21_4 C 0.8598(3) 0.4012(3) 0.4690(4)
H16_4 H 0.8506 0.4364 0.4442
C22_3 C 0.8274(4) 0.3899(4) 0.5239(4)
H17_3 H 0.7965 0.4181 0.5373
C23_3 C 0.8407(5) 0.3354(6) 0.5600(4)
H18_3 H 0.8184 0.3259 0.5968
C24_3 C 0.8876(4) 0.2980(4) 0.5385(3)
H19_3 H 0.8981 0.2625 0.5624
N5_4 N 0.9888(2) 0.33401(18) 0.3805(2)
N6_4 N 0.9367(2) 0.3686(2) 0.3975(2)
H20_4 H 0.9229 0.3975 0.3722
N7_4 N 0.9201(3) 0.3081(2) 0.4852(2)
Ag2_6 Ag 1.0000 0.2500 0.45661(3)
C37_4 C 0.7491(2) 0.2517(2) 0.1689(2)
C38_4 C 0.7453(3) 0.1868(2) 0.1613(2)
H31_4 H 0.7619 0.1602 0.1922
C39_4 C 0.7172(2) 0.1613(2) 0.1087(2)
H32_4 H 0.7152 0.1175 0.1040
C40_4 C 0.6921(2) 0.1997(2) 0.0632(2)
C41_4 C 0.6957(2) 0.2638(2) 0.0708(2)
H33_4 H 0.6779 0.2903 0.0406
C42_4 C 0.7250(3) 0.2892(2) 0.1219(2)
H34_4 H 0.7287 0.3330 0.1252
C43_4 C 0.6610(2) 0.1755(2) 0.0069(3)
N11_4 N 0.7778(2) 0.2778(2) 0.2222(2)
C49_4 C 0.8311(2) 0.2491(2) 0.2483(2)
C50_4 C 0.8387(2) 0.2453(3) 0.3132(2)
H41_4 H 0.8078 0.2619 0.3398
C51_4 C 0.8913(2) 0.2172(2) 0.3387(2)
H42_4 H 0.8960 0.2152 0.3825
C52_4 C 0.9368(2) 0.1921(2) 0.3003(2)
C53_4 C 0.9292(2) 0.1957(2) 0.2362(2)
H43_4 H 0.9594 0.1779 0.2097
C54_4 C 0.8781(2) 0.2250(3) 0.2108(2)
H44_4 H 0.8748 0.2287 0.1670
C55_4 C 0.9931(3) 0.1610(2) 0.3245(2)
C61_4 C 0.7517(2) 0.3311(2) 0.2509(2)
C62_4 C 0.6868(2) 0.3387(2) 0.2547(3)
H51_4 H 0.6602 0.3078 0.2381
C63_4 C 0.6613(2) 0.3913(2) 0.2828(2)
H52_4 H 0.6175 0.3960 0.2848
C64_4 C 0.6997(2) 0.4368(2) 0.3079(2)
C65_4 C 0.7638(2) 0.4292(2) 0.3043(2)
H53_4 H 0.7903 0.4594 0.3221
C66_4 C 0.7892(2) 0.3781(2) 0.2750(3)
H54_4 H 0.8330 0.3748 0.2713
C67_4 C 0.6755(2) 0.4931(3) 0.3390(2)
H55_4 H 0.7031 0.5167 0.3638
C68_4 C 0.5486(3) 0.5930(3) 0.3587(3)
C69_4 C 0.5310(4) 0.6402(3) 0.4012(3)
H56_4 H 0.5558 0.6494 0.4364
C70_3 C 0.4761(4) 0.6726(4) 0.3899(4)
H57_3 H 0.4627 0.7035 0.4181
C71_3 C 0.4400(4) 0.6593(5) 0.3354(6)
H58_3 H 0.4032 0.6816 0.3259
C72_3 C 0.4615(3) 0.6124(4) 0.2980(4)
H59_3 H 0.4376 0.6019 0.2625
N19_4 N 0.6025(2) 0.5633(2) 0.3686(2)
H60_4 H 0.6278 0.5771 0.3975
H35_4 H 0.6362 0.2031 0.9833
C44_4 C 0.6413(3) 0.0486(3) 0.9070(3)
C45_4 C 0.5988(3) 0.0310(4) 0.8598(3)
H36_4 H 0.5636 0.0558 0.8506
N13_4 N 0.6314(2) 0.1025(2) 0.9367(2)
H40_4 H 0.6025 0.1278 0.9229
C10_4 C 0.8899(4) 0.9761(4) 0.1726(4)
H7_4 H 0.9181 0.9627 0.2035
C11_4 C 0.8354(6) 0.9400(4) 0.1593(5)
H8_4 H 0.8259 0.9032 0.1816
C12_4 C 0.7980(4) 0.9615(3) 0.1124(4)
H9_4 H 0.7625 0.9376 0.1019
C70_4 C 0.9761(4) 0.8274(4) 0.6101(4)
H57_4 H 0.9627 0.7965 0.5819
C71_4 C 0.9400(4) 0.8407(5) 0.6646(6)
H58_4 H 0.9032 0.8184 0.6741
C72_4 C 0.9615(3) 0.8876(4) 0.7020(4)
H59_4 H 0.9376 0.8981 0.7375
C22_4 C 0.1726(4) 0.8899(4) 0.9761(4)
H17_4 H 0.2035 0.9181 0.9627
C23_4 C 0.1593(5) 0.8354(6) 0.9400(4)
H18_4 H 0.1816 0.8259 0.9032
C24_4 C 0.1124(4) 0.7980(4) 0.9615(3)
H19_4 H 0.1019 0.7625 0.9376
C58_4 C 0.8274(4) 0.6101(4) 0.9761(4)
H47_4 H 0.7965 0.5819 0.9627
C59_4 C 0.8407(5) 0.6646(6) 0.9400(4)
H48_4 H 0.8184 0.6741 0.9032
C60_4 C 0.8876(4) 0.7020(4) 0.9615(3)
H49_4 H 0.8981 0.7375 0.9376
C34_4 C 0.9761(4) 0.1726(4) 0.8899(4)
H27_4 H 0.9627 0.2035 0.9181
C35_4 C 0.9400(4) 0.1593(5) 0.8354(6)
H28_4 H 0.9032 0.1816 0.8259
C36_4 C 0.9615(3) 0.1124(4) 0.7980(4)
H29_4 H 0.9376 0.1019 0.7625
C46_4 C 0.6101(4) 0.9761(4) 0.8274(4)
H37_4 H 0.5819 0.9627 0.7965
C47_4 C 0.6646(6) 0.9400(4) 0.8407(5)
H38_4 H 0.6741 0.9032 0.8184
C48_4 C 0.7020(4) 0.9615(3) 0.8876(4)
H39_4 H 0.7375 0.9376 0.8981
Cl1 Cl 0.0000 0.2500 0.05894(8)
O1 O 0.0483(3) 0.2253(3) 0.0224(3)
O2 O 0.0255(3) 0.2984(4) 0.0954(2)
Cl1_2 Cl 1.0000 0.2500 0.05894(8)
O3 O 0.9517(3) 0.2747(3) 0.0224(3)
O4 O 0.9745(3) 0.2016(4) 0.0954(2)
Cl1_3 Cl 0.5000 0.7500 0.55894(8)
O1_2 O 0.4517(3) 0.7747(3) 0.5224(3)
O2_2 O 0.4745(3) 0.7016(4) 0.5954(2)
O3_2 O 0.5483(3) 0.7253(3) 0.5224(3)
O4_2 O 0.5255(3) 0.7984(4) 0.5954(2)
Cl1_4 Cl 0.0000 0.7500 0.44106(8)
O3_3 O 0.0483(3) 0.7747(3) 0.4776(3)
O4_3 O 0.0255(3) 0.7016(4) 0.4046(2)
Cl1_5 Cl 1.0000 0.7500 0.44106(8)
O1_3 O 0.9517(3) 0.7253(3) 0.4776(3)
O2_3 O 0.9745(3) 0.7984(4) 0.4046(2)
Cl1_6 Cl 0.5000 0.2500 0.94106(8)
O1_4 O 0.5483(3) 0.2747(3) 0.9776(3)
O2_4 O 0.5255(3) 0.2016(4) 0.9046(2)
O3_4 O 0.4517(3) 0.2253(3) 0.9776(3)
O4_4 O 0.4745(3) 0.2984(4) 0.9046(2)
Cl1_7 Cl 0.05894(8) 0.0000 0.2500
O1_5 O 0.0224(3) 0.0483(3) 0.2253(3)
O2_5 O 0.0954(2) 0.0255(3) 0.2984(4)
Cl1_8 Cl 0.05894(8) 1.0000 0.2500
O3_5 O 0.0224(3) 0.9517(3) 0.2747(3)
O4_5 O 0.0954(2) 0.9745(3) 0.2016(4)
Cl1_9 Cl 0.55894(8) 0.5000 0.7500
O1_6 O 0.5224(3) 0.4517(3) 0.7747(3)
O2_6 O 0.5954(2) 0.4745(3) 0.7016(4)
O3_6 O 0.5224(3) 0.5483(3) 0.7253(3)
O4_6 O 0.5954(2) 0.5255(3) 0.7984(4)
Cl1_10 Cl 0.44106(8) 0.0000 0.7500
O3_7 O 0.4776(3) 0.0483(3) 0.7747(3)
O4_7 O 0.4046(2) 0.0255(3) 0.7016(4)
Cl1_11 Cl 0.44106(8) 1.0000 0.7500
O1_7 O 0.4776(3) 0.9517(3) 0.7253(3)
O2_7 O 0.4046(2) 0.9745(3) 0.7984(4)
Cl1_12 Cl 0.94106(8) 0.5000 0.2500
O1_8 O 0.9776(3) 0.5483(3) 0.2747(3)
O2_8 O 0.9046(2) 0.5255(3) 0.2016(4)
O3_8 O 0.9776(3) 0.4517(3) 0.2253(3)
O4_8 O 0.9046(2) 0.4745(3) 0.2984(4)
Cl1_13 Cl 0.2500 0.05894(8) 0.0000
O1_9 O 0.2253(3) 0.0224(3) 0.0483(3)
O2_9 O 0.2984(4) 0.0954(2) 0.0255(3)
Cl1_14 Cl 0.2500 0.05894(8) 1.0000
O3_9 O 0.2747(3) 0.0224(3) 0.9517(3)
O4_9 O 0.2016(4) 0.0954(2) 0.9745(3)
Cl1_15 Cl 0.7500 0.55894(8) 0.5000
O1_10 O 0.7747(3) 0.5224(3) 0.4517(3)
O2_10 O 0.7016(4) 0.5954(2) 0.4745(3)
O3_10 O 0.7253(3) 0.5224(3) 0.5483(3)
O4_10 O 0.7984(4) 0.5954(2) 0.5255(3)
Cl1_16 Cl 0.7500 0.44106(8) 0.0000
O3_11 O 0.7747(3) 0.4776(3) 0.0483(3)
O4_11 O 0.7016(4) 0.4046(2) 0.0255(3)
Cl1_17 Cl 0.7500 0.44106(8) 1.0000
O1_11 O 0.7253(3) 0.4776(3) 0.9517(3)
O2_11 O 0.7984(4) 0.4046(2) 0.9745(3)
Cl1_18 Cl 0.2500 0.94106(8) 0.5000
O1_12 O 0.2747(3) 0.9776(3) 0.5483(3)
O2_12 O 0.2016(4) 0.9046(2) 0.5255(3)
O3_12 O 0.2253(3) 0.9776(3) 0.4517(3)
O4_12 O 0.2984(4) 0.9046(2) 0.4745(3)
loop_
_geom_bond_atom_site_label_1
_geom_bond_atom_site_label_2
_geom_bond_site_symmetry_1
_geom_bond_site_symmetry_2
H27 C34 1_555 1_555
C35 C34 1_555 1_555
H28 C35 1_555 1_555
C36 C35 1_555 1_555
H29 C36 1_555 1_555
Ag1 N2 1_555 1_555
C8 C9 1_555 1_555
C9 H6 1_555 1_555
N3 C8 1_555 1_555
H10 N3 1_555 1_555
N4 Ag1 1_555 1_555
C44 C45 1_555 1_555
C45 H36 1_555 1_555
C46 C45 1_555 1_555
H37 C46 1_555 1_555
C47 C46 1_555 1_555
H38 C47 1_555 1_555
C48 C47 1_555 1_555
H39 C48 1_555 1_555
N13 C44 1_555 1_555
H40 N13 1_555 1_555
N14 C44 1_555 1_555
Ag4 N12 1_555 1_555
C8 N4 1_555 1_555
N2 N3 1_555 1_555
C48 N14 1_555 1_555
N12 N13 1_555 1_555
N14 Ag4 1_555 1_555
C1 C2 1_555 1_555
C2 H1 1_555 1_555
C3 C2 1_555 1_555
H2 C3 1_555 1_555
C4 C3 1_555 1_555
C5 C4 1_555 1_555
H3 C5 1_555 1_555
C6 C1 1_555 1_555
H4 C6 1_555 1_555
C7 C4 1_555 1_555
N1 C1 1_555 1_555
C13 N1 1_555 1_555
C14 C13 1_555 1_555
H11 C14 1_555 1_555
C15 C14 1_555 1_555
H12 C15 1_555 1_555
C16 C15 1_555 1_555
C17 C16 1_555 1_555
H13 C17 1_555 1_555
C18 C13 1_555 1_555
H14 C18 1_555 1_555
C19 C16 1_555 1_555
H15 C19 1_555 1_555
C20 C21 1_555 1_555
C21 H16 1_555 1_555
C22 C21 1_555 1_555
H17 C22 1_555 1_555
C23 C22 1_555 1_555
H18 C23 1_555 1_555
C24 C23 1_555 1_555
H19 C24 1_555 1_555
N5 C19 1_555 1_555
N6 C20 1_555 1_555
H20 N6 1_555 1_555
N7 C20 1_555 1_555
C25 N1 1_555 1_555
C26 C25 1_555 1_555
H21 C26 1_555 1_555
C27 C26 1_555 1_555
H22 C27 1_555 1_555
C28 C27 1_555 1_555
C29 C28 1_555 1_555
H23 C29 1_555 1_555
C30 C25 1_555 1_555
H24 C30 1_555 1_555
C31 C28 1_555 1_555
H25 C31 1_555 1_555
C32 C33 1_555 1_555
C33 H26 1_555 1_555
N8 C31 1_555 1_555
N9 C32 1_555 1_555
H30 N9 1_555 1_555
N10 C32 1_555 1_555
Ag2 N5 1_555 1_555
Ag3 N8 1_555 1_555
C37 C38 1_555 1_555
C38 H31 1_555 1_555
C39 C38 1_555 1_555
H32 C39 1_555 1_555
C40 C39 1_555 1_555
C41 C40 1_555 1_555
H33 C41 1_555 1_555
C42 C37 1_555 1_555
H34 C42 1_555 1_555
C43 C40 1_555 1_555
N11 C37 1_555 1_555
C49 N11 1_555 1_555
C50 C49 1_555 1_555
H41 C50 1_555 1_555
C51 C50 1_555 1_555
H42 C51 1_555 1_555
C52 C51 1_555 1_555
C53 C52 1_555 1_555
H43 C53 1_555 1_555
C54 C49 1_555 1_555
H44 C54 1_555 1_555
C55 C52 1_555 1_555
H45 C55 1_555 1_555
C56 C57 1_555 1_555
C57 H46 1_555 1_555
C58 C57 1_555 1_555
H47 C58 1_555 1_555
C59 C58 1_555 1_555
H48 C59 1_555 1_555
C60 C59 1_555 1_555
H49 C60 1_555 1_555
N15 Ag2 1_555 1_555
N16 C56 1_555 1_555
H50 N16 1_555 1_555
N17 Ag2 1_555 1_555
C61 N11 1_555 1_555
C62 C61 1_555 1_555
H51 C62 1_555 1_555
C63 C62 1_555 1_555
H52 C63 1_555 1_555
C64 C63 1_555 1_555
C65 C64 1_555 1_555
H53 C65 1_555 1_555
C66 C61 1_555 1_555
H54 C66 1_555 1_555
C67 C64 1_555 1_555
N21 Ag1_2 1_555 1_555
N22 Ag3 1_555 1_555
N23 Ag1_2 1_555 1_555
N24 Ag3 1_555 1_555
C5 C6 1_555 1_555
C17 C18 1_555 1_555
C24 N7 1_555 1_555
N5 N6 1_555 1_555
N7 Ag2 1_555 1_555
C29 C30 1_555 1_555
N8 N9 1_555 1_555
N10 Ag3 1_555 1_555
C41 C42 1_555 1_555
C53 C54 1_555 1_555
C55 N15 1_555 1_555
C56 N17 1_555 1_555
C60 N17 1_555 1_555
N15 N16 1_555 1_555
C65 C66 1_555 1_555
C68 C69 1_555 1_555
C69 H56 1_555 1_555
N19 C68 1_555 1_555
H60 N19 1_555 1_555
N20 C68 1_555 1_555
Ag5_2 N18 1_555 1_555
N18 N19 1_555 1_555
N20 Ag5_2 1_555 1_555
C68_2 C69_2 1_555 1_555
C69_2 H56_2 1_555 1_555
C70 C69_2 1_555 1_555
H57 C70 1_555 1_555
C71 C70 1_555 1_555
H58 C71 1_555 1_555
C72 C71 1_555 1_555
H59 C72 1_555 1_555
N19_2 C68_2 1_555 1_555
H60_2 N19_2 1_555 1_555
N20_2 C68_2 1_555 1_555
Ag5_3 N18_2 1_555 1_555
C72 N20_2 1_555 1_555
N18_2 N19_2 1_555 1_555
N20_2 Ag5_3 1_555 1_555
C20_2 C21_2 1_555 1_555
C21_2 H16_2 1_555 1_555
N6_2 C20_2 1_555 1_555
H20_2 N6_2 1_555 1_555
N7_2 C20_2 1_555 1_555
Ag2_2 N5_2 1_555 1_555
C37_2 C38_2 1_555 1_555
C38_2 H31_2 1_555 1_555
C39_2 C38_2 1_555 1_555
H32_2 C39_2 1_555 1_555
C40_2 C39_2 1_555 1_555
C41_2 C40_2 1_555 1_555
H33_2 C41_2 1_555 1_555
C42_2 C37_2 1_555 1_555
H34_2 C42_2 1_555 1_555
C43_2 C40_2 1_555 1_555
H35_2 C43_2 1_555 1_555
C44_2 C45_2 1_555 1_555
C45_2 H36_2 1_555 1_555
C46_2 C45_2 1_555 1_555
H37_2 C46_2 1_555 1_555
C47_2 C46_2 1_555 1_555
H38_2 C47_2 1_555 1_555
C48_2 C47_2 1_555 1_555
H39_2 C48_2 1_555 1_555
N11_2 C37_2 1_555 1_555
N12_2 C43_2 1_555 1_555
N13_2 C44_2 1_555 1_555
H40_2 N13_2 1_555 1_555
N14_2 C44_2 1_555 1_555
C49_2 N11_2 1_555 1_555
C50_2 C49_2 1_555 1_555
H41_2 C50_2 1_555 1_555
C51_2 C50_2 1_555 1_555
H42_2 C51_2 1_555 1_555
C52_2 C51_2 1_555 1_555
C53_2 C52_2 1_555 1_555
H43_2 C53_2 1_555 1_555
C54_2 C49_2 1_555 1_555
H44_2 C54_2 1_555 1_555
C55_2 C52_2 1_555 1_555
C61_2 N11_2 1_555 1_555
C62_2 C61_2 1_555 1_555
H51_2 C62_2 1_555 1_555
C63_2 C62_2 1_555 1_555
H52_2 C63_2 1_555 1_555
C64_2 C63_2 1_555 1_555
C65_2 C64_2 1_555 1_555
H53_2 C65_2 1_555 1_555
C66_2 C61_2 1_555 1_555
H54_2 C66_2 1_555 1_555
C67_2 C64_2 1_555 1_555
Ag4_3 N12_2 1_555 1_555
N5_2 N6_2 1_555 1_555
N7_2 Ag2_2 1_555 1_555
C41_2 C42_2 1_555 1_555
C48_2 N14_2 1_555 1_555
N12_2 N13_2 1_555 1_555
N14_2 Ag4_3 1_555 1_555
C53_2 C54_2 1_555 1_555
C65_2 C66_2 1_555 1_555
H7 C10 1_555 1_555
C11 C10 1_555 1_555
H8 C11 1_555 1_555
C12 C11 1_555 1_555
H9 C12 1_555 1_555
Ag1_3 N2_2 1_555 1_555
C1_2 C2_2 1_555 1_555
C2_2 H1_2 1_555 1_555
C3_2 C2_2 1_555 1_555
H2_2 C3_2 1_555 1_555
C4_2 C3_2 1_555 1_555
C5_2 C4_2 1_555 1_555
H3_2 C5_2 1_555 1_555
C6_2 C1_2 1_555 1_555
H4_2 C6_2 1_555 1_555
C7_2 C4_2 1_555 1_555
H5_2 C7_2 1_555 1_555
C8_2 C9_2 1_555 1_555
C9_2 H6_2 1_555 1_555
N1_2 C1_2 1_555 1_555
N2_2 C7_2 1_555 1_555
N3_2 C8_2 1_555 1_555
H10_2 N3_2 1_555 1_555
N4_2 Ag1_3 1_555 1_555
C13_2 N1_2 1_555 1_555
C14_2 C13_2 1_555 1_555
H11_2 C14_2 1_555 1_555
C15_2 C14_2 1_555 1_555
H12_2 C15_2 1_555 1_555
C16_2 C15_2 1_555 1_555
C17_2 C16_2 1_555 1_555
H13_2 C17_2 1_555 1_555
C18_2 C13_2 1_555 1_555
H14_2 C18_2 1_555 1_555
C19_2 C16_2 1_555 1_555
C25_2 N1_2 1_555 1_555
C26_2 C25_2 1_555 1_555
H21_2 C26_2 1_555 1_555
C27_2 C26_2 1_555 1_555
H22_2 C27_2 1_555 1_555
C28_2 C27_2 1_555 1_555
C29_2 C28_2 1_555 1_555
H23_2 C29_2 1_555 1_555
C30_2 C25_2 1_555 1_555
H24_2 C30_2 1_555 1_555
C31_2 C28_2 1_555 1_555
H25_2 C31_2 1_555 1_555
C32_2 C33_2 1_555 1_555
C33_2 H26_2 1_555 1_555
C34_2 C33_2 1_555 1_555
H27_2 C34_2 1_555 1_555
C35_2 C34_2 1_555 1_555
H28_2 C35_2 1_555 1_555
C36_2 C35_2 1_555 1_555
H29_2 C36_2 1_555 1_555
N8_2 C31_2 1_555 1_555
N9_2 C32_2 1_555 1_555
H30_2 N9_2 1_555 1_555
N10_2 C32_2 1_555 1_555
Ag3_2 N8_2 1_555 1_555
C56_2 C57_2 1_555 1_555
C57_2 H46_2 1_555 1_555
N15_2 Ag2_3 1_555 1_555
N16_2 C56_2 1_555 1_555
H50_2 N16_2 1_555 1_555
N17_2 Ag2_3 1_555 1_555
N21_2 Ag1_3 1_555 1_555
N22_2 Ag3_2 1_555 1_555
N23_2 Ag1_3 1_555 1_555
N24_2 Ag3_2 1_555 1_555
C5_2 C6_2 1_555 1_555
C8_2 N4_2 1_555 1_555
N2_2 N3_2 1_555 1_555
C17_2 C18_2 1_555 1_555
C29_2 C30_2 1_555 1_555
C36_2 N10_2 1_555 1_555
N8_2 N9_2 1_555 1_555
N10_2 Ag3_2 1_555 1_555
C56_2 N17_2 1_555 1_555
N15_2 N16_2 1_555 1_555
H57_2 C70_2 1_555 1_555
C71_2 C70_2 1_555 1_555
H58_2 C71_2 1_555 1_555
C72_2 C71_2 1_555 1_555
H59_2 C72_2 1_555 1_555
C32_3 C33_3 1_555 1_555
C33_3 H26_3 1_555 1_555
N9_3 C32_3 1_555 1_555
H30_3 N9_3 1_555 1_555
N10_3 C32_3 1_555 1_555
Ag5 N8_3 1_555 1_555
H37_3 C46_3 1_555 1_555
C47_3 C46_3 1_555 1_555
H38_3 C47_3 1_555 1_555
C48_3 C47_3 1_555 1_555
H39_3 C48_3 1_555 1_555
N8_3 N9_3 1_555 1_555
N10_3 Ag5 1_555 1_555
H17_2 C22_2 1_555 1_555
C23_2 C22_2 1_555 1_555
H18_2 C23_2 1_555 1_555
C24_2 C23_2 1_555 1_555
H19_2 C24_2 1_555 1_555
H47_2 C58_2 1_555 1_555
C59_2 C58_2 1_555 1_555
H48_2 C59_2 1_555 1_555
C60_2 C59_2 1_555 1_555
H49_2 C60_2 1_555 1_555
Ag4_3 N2_3 1_555 1_555
C1_3 C2_3 1_555 1_555
C2_3 H1_3 1_555 1_555
C3_3 C2_3 1_555 1_555
H2_3 C3_3 1_555 1_555
C4_3 C3_3 1_555 1_555
C5_3 C4_3 1_555 1_555
H3_3 C5_3 1_555 1_555
C6_3 C1_3 1_555 1_555
H4_3 C6_3 1_555 1_555
C7_3 C4_3 1_555 1_555
H5_3 C7_3 1_555 1_555
C8_3 C9_3 1_555 1_555
C9_3 H6_3 1_555 1_555
C10_2 C9_3 1_555 1_555
H7_2 C10_2 1_555 1_555
C11_2 C10_2 1_555 1_555
H8_2 C11_2 1_555 1_555
C12_2 C11_2 1_555 1_555
H9_2 C12_2 1_555 1_555
N1_3 C1_3 1_555 1_555
N2_3 C7_3 1_555 1_555
N3_3 C8_3 1_555 1_555
H10_3 N3_3 1_555 1_555
N4_3 Ag4_3 1_555 1_555
C13_3 N1_3 1_555 1_555
C14_3 C13_3 1_555 1_555
H11_3 C14_3 1_555 1_555
C15_3 C14_3 1_555 1_555
H12_3 C15_3 1_555 1_555
C16_3 C15_3 1_555 1_555
C17_3 C16_3 1_555 1_555
H13_3 C17_3 1_555 1_555
C18_3 C13_3 1_555 1_555
H14_3 C18_3 1_555 1_555
C19_3 C16_3 1_555 1_555
H15_3 C19_3 1_555 1_555
C20_3 C21_3 1_555 1_555
C21_3 H16_3 1_555 1_555
N5_3 C19_3 1_555 1_555
N6_3 C20_3 1_555 1_555
H20_3 N6_3 1_555 1_555
N7_3 C20_3 1_555 1_555
C25_3 N1_3 1_555 1_555
C26_3 C25_3 1_555 1_555
H21_3 C26_3 1_555 1_555
C27_3 C26_3 1_555 1_555
H22_3 C27_3 1_555 1_555
C28_3 C27_3 1_555 1_555
C29_3 C28_3 1_555 1_555
H23_3 C29_3 1_555 1_555
C30_3 C25_3 1_555 1_555
H24_3 C30_3 1_555 1_555
C31_3 C28_3 1_555 1_555
Ag2_4 N5_3 1_555 1_555
C37_3 C38_3 1_555 1_555
C38_3 H31_3 1_555 1_555
C39_3 C38_3 1_555 1_555
H32_3 C39_3 1_555 1_555
C40_3 C39_3 1_555 1_555
C41_3 C40_3 1_555 1_555
H33_3 C41_3 1_555 1_555
C42_3 C37_3 1_555 1_555
H34_3 C42_3 1_555 1_555
C43_3 C40_3 1_555 1_555
H35_3 C43_3 1_555 1_555
C44_3 C45_3 1_555 1_555
C45_3 H36_3 1_555 1_555
N11_3 C37_3 1_555 1_555
N21_2 C43_3 1_555 1_555
N13_3 C44_3 1_555 1_555
H40_3 N13_3 1_555 1_555
N23_2 C44_3 1_555 1_555
C49_3 N11_3 1_555 1_555
C50_3 C49_3 1_555 1_555
H41_3 C50_3 1_555 1_555
C51_3 C50_3 1_555 1_555
H42_3 C51_3 1_555 1_555
C52_3 C51_3 1_555 1_555
C53_3 C52_3 1_555 1_555
H43_3 C53_3 1_555 1_555
C54_3 C49_3 1_555 1_555
H44_3 C54_3 1_555 1_555
C55_3 C52_3 1_555 1_555
H45_3 C55_3 1_555 1_555
C56_3 C57_3 1_555 1_555
C57_3 H46_3 1_555 1_555
N15_3 Ag2_4 1_555 1_555
N16_3 C56_3 1_555 1_555
H50_3 N16_3 1_555 1_555
N17_3 Ag2_4 1_555 1_555
C61_3 N11_3 1_555 1_555
C62_3 C61_3 1_555 1_555
H51_3 C62_3 1_555 1_555
C63_3 C62_3 1_555 1_555
H52_3 C63_3 1_555 1_555
C64_3 C63_3 1_555 1_555
C65_3 C64_3 1_555 1_555
H53_3 C65_3 1_555 1_555
C66_3 C61_3 1_555 1_555
H54_3 C66_3 1_555 1_555
C67_3 C64_3 1_555 1_555
H55_3 C67_3 1_555 1_555
C68_3 C69_3 1_555 1_555
C69_3 H56_3 1_555 1_555
N22 C67_3 1_555 1_555
N19_3 C68_3 1_555 1_555
H60_3 N19_3 1_555 1_555
N24 C68_3 1_555 1_555
C5_3 C6_3 1_555 1_555
C8_3 N4_3 1_555 1_555
C12_2 N4_3 1_555 1_555
N2_3 N3_3 1_555 1_555
C17_3 C18_3 1_555 1_555
N5_3 N6_3 1_555 1_555
N7_3 Ag2_4 1_555 1_555
C29_3 C30_3 1_555 1_555
C41_3 C42_3 1_555 1_555
N21_2 N13_3 1_555 1_555
C53_3 C54_3 1_555 1_555
C55_3 N15_3 1_555 1_555
C56_3 N17_3 1_555 1_555
N15_3 N16_3 1_555 1_555
C65_3 C66_3 1_555 1_555
N22 N19_3 1_555 1_555
C1_4 C2_4 1_555 1_555
C2_4 H1_4 1_555 1_555
C3_4 C2_4 1_555 1_555
H2_4 C3_4 1_555 1_555
C4_4 C3_4 1_555 1_555
C5_4 C4_4 1_555 1_555
H3_4 C5_4 1_555 1_555
C6_4 C1_4 1_555 1_555
H4_4 C6_4 1_555 1_555
C7_4 C4_4 1_555 1_555
N1_4 C1_4 1_555 1_555
C13_4 N1_4 1_555 1_555
C14_4 C13_4 1_555 1_555
H11_4 C14_4 1_555 1_555
C15_4 C14_4 1_555 1_555
H12_4 C15_4 1_555 1_555
C16_4 C15_4 1_555 1_555
C17_4 C16_4 1_555 1_555
H13_4 C17_4 1_555 1_555
C18_4 C13_4 1_555 1_555
H14_4 C18_4 1_555 1_555
C19_4 C16_4 1_555 1_555
C25_4 N1_4 1_555 1_555
C26_4 C25_4 1_555 1_555
H21_4 C26_4 1_555 1_555
C27_4 C26_4 1_555 1_555
H22_4 C27_4 1_555 1_555
C28_4 C27_4 1_555 1_555
C29_4 C28_4 1_555 1_555
H23_4 C29_4 1_555 1_555
C30_4 C25_4 1_555 1_555
H24_4 C30_4 1_555 1_555
C31_4 C28_4 1_555 1_555
C56_4 C57_4 1_555 1_555
C57_4 H46_4 1_555 1_555
C58_3 C57_4 1_555 1_555
H47_3 C58_3 1_555 1_555
C59_3 C58_3 1_555 1_555
H48_3 C59_3 1_555 1_555
C60_3 C59_3 1_555 1_555
H49_3 C60_3 1_555 1_555
N15_4 Ag2_5 1_555 1_555
N16_4 C56_4 1_555 1_555
H50_4 N16_4 1_555 1_555
N17_4 Ag2_5 1_555 1_555
C5_4 C6_4 1_555 1_555
C17_4 C18_4 1_555 1_555
C29_4 C30_4 1_555 1_555
C56_4 N17_4 1_555 1_555
C60_3 N17_4 1_555 1_555
N15_4 N16_4 1_555 1_555
Ag4_2 N2_4 1_555 1_555
C8_4 C9_4 1_555 1_555
C9_4 H6_4 1_555 1_555
C10_3 C9_4 1_555 1_555
H7_3 C10_3 1_555 1_555
C11_3 C10_3 1_555 1_555
H8_3 C11_3 1_555 1_555
C12_3 C11_3 1_555 1_555
H9_3 C12_3 1_555 1_555
N3_4 C8_4 1_555 1_555
H10_4 N3_4 1_555 1_555
N4_4 Ag4_2 1_555 1_555
C8_4 N4_4 1_555 1_555
C12_3 N4_4 1_555 1_555
N2_4 N3_4 1_555 1_555
C32_4 C33_4 1_555 1_555
C33_4 H26_4 1_555 1_555
C34_3 C33_4 1_555 1_555
H27_3 C34_3 1_555 1_555
C35_3 C34_3 1_555 1_555
H28_3 C35_3 1_555 1_555
C36_3 C35_3 1_555 1_555
H29_3 C36_3 1_555 1_555
N9_4 C32_4 1_555 1_555
H30_4 N9_4 1_555 1_555
N10_4 C32_4 1_555 1_555
Ag5_4 N8_4 1_555 1_555
C36_3 N10_4 1_555 1_555
N8_4 N9_4 1_555 1_555
N10_4 Ag5_4 1_555 1_555
C20_4 C21_4 1_555 1_555
C21_4 H16_4 1_555 1_555
C22_3 C21_4 1_555 1_555
H17_3 C22_3 1_555 1_555
C23_3 C22_3 1_555 1_555
H18_3 C23_3 1_555 1_555
C24_3 C23_3 1_555 1_555
H19_3 C24_3 1_555 1_555
N6_4 C20_4 1_555 1_555
H20_4 N6_4 1_555 1_555
N7_4 C20_4 1_555 1_555
Ag2_6 N5_4 1_555 1_555
C37_4 C38_4 1_555 1_555
C38_4 H31_4 1_555 1_555
C39_4 C38_4 1_555 1_555
H32_4 C39_4 1_555 1_555
C40_4 C39_4 1_555 1_555
C41_4 C40_4 1_555 1_555
H33_4 C41_4 1_555 1_555
C42_4 C37_4 1_555 1_555
H34_4 C42_4 1_555 1_555
C43_4 C40_4 1_555 1_555
N11_4 C37_4 1_555 1_555
C49_4 N11_4 1_555 1_555
C50_4 C49_4 1_555 1_555
H41_4 C50_4 1_555 1_555
C51_4 C50_4 1_555 1_555
H42_4 C51_4 1_555 1_555
C52_4 C51_4 1_555 1_555
C53_4 C52_4 1_555 1_555
H43_4 C53_4 1_555 1_555
C54_4 C49_4 1_555 1_555
H44_4 C54_4 1_555 1_555
C55_4 C52_4 1_555 1_555
C61_4 N11_4 1_555 1_555
C62_4 C61_4 1_555 1_555
H51_4 C62_4 1_555 1_555
C63_4 C62_4 1_555 1_555
H52_4 C63_4 1_555 1_555
C64_4 C63_4 1_555 1_555
C65_4 C64_4 1_555 1_555
H53_4 C65_4 1_555 1_555
C66_4 C61_4 1_555 1_555
H54_4 C66_4 1_555 1_555
C67_4 C64_4 1_555 1_555
H55_4 C67_4 1_555 1_555
C68_4 C69_4 1_555 1_555
C69_4 H56_4 1_555 1_555
C70_3 C69_4 1_555 1_555
H57_3 C70_3 1_555 1_555
C71_3 C70_3 1_555 1_555
H58_3 C71_3 1_555 1_555
C72_3 C71_3 1_555 1_555
H59_3 C72_3 1_555 1_555
N22_2 C67_4 1_555 1_555
N19_4 C68_4 1_555 1_555
H60_4 N19_4 1_555 1_555
N24_2 C68_4 1_555 1_555
C24_3 N7_4 1_555 1_555
N5_4 N6_4 1_555 1_555
N7_4 Ag2_6 1_555 1_555
C41_4 C42_4 1_555 1_555
C53_4 C54_4 1_555 1_555
C65_4 C66_4 1_555 1_555
C72_3 N24_2 1_555 1_555
N22_2 N19_4 1_555 1_555
C44_4 C45_4 1_555 1_555
C45_4 H36_4 1_555 1_555
N13_4 C44_4 1_555 1_555
H40_4 N13_4 1_555 1_555
N23 C44_4 1_555 1_555
N21 N13_4 1_555 1_555
H7_4 C10_4 1_555 1_555
C11_4 C10_4 1_555 1_555
H8_4 C11_4 1_555 1_555
C12_4 C11_4 1_555 1_555
H9_4 C12_4 1_555 1_555
H57_4 C70_4 1_555 1_555
C71_4 C70_4 1_555 1_555
H58_4 C71_4 1_555 1_555
C72_4 C71_4 1_555 1_555
H59_4 C72_4 1_555 1_555
H17_4 C22_4 1_555 1_555
C23_4 C22_4 1_555 1_555
H18_4 C23_4 1_555 1_555
C24_4 C23_4 1_555 1_555
H19_4 C24_4 1_555 1_555
H47_4 C58_4 1_555 1_555
C59_4 C58_4 1_555 1_555
H48_4 C59_4 1_555 1_555
C60_4 C59_4 1_555 1_555
H49_4 C60_4 1_555 1_555
H27_4 C34_4 1_555 1_555
C35_4 C34_4 1_555 1_555
H28_4 C35_4 1_555 1_555
C36_4 C35_4 1_555 1_555
H29_4 C36_4 1_555 1_555
H37_4 C46_4 1_555 1_555
C47_4 C46_4 1_555 1_555
H38_4 C47_4 1_555 1_555
C48_4 C47_4 1_555 1_555
H39_4 C48_4 1_555 1_555
Cl1 O1 1_555 1_555
O2 Cl1 1_555 1_555
O3 Cl1_2 1_555 1_555
O4 Cl1_2 1_555 1_555
Cl1_3 O1_2 1_555 1_555
O2_2 Cl1_3 1_555 1_555
O3_2 Cl1_3 1_555 1_555
O4_2 Cl1_3 1_555 1_555
O3_3 Cl1_4 1_555 1_555
O4_3 Cl1_4 1_555 1_555
Cl1_5 O1_3 1_555 1_555
O2_3 Cl1_5 1_555 1_555
Cl1_6 O1_4 1_555 1_555
O2_4 Cl1_6 1_555 1_555
O3_4 Cl1_6 1_555 1_555
O4_4 Cl1_6 1_555 1_555
Cl1_7 O1_5 1_555 1_555
O2_5 Cl1_7 1_555 1_555
O3_5 Cl1_8 1_555 1_555
O4_5 Cl1_8 1_555 1_555
Cl1_9 O1_6 1_555 1_555
O2_6 Cl1_9 1_555 1_555
O3_6 Cl1_9 1_555 1_555
O4_6 Cl1_9 1_555 1_555
O3_7 Cl1_10 1_555 1_555
O4_7 Cl1_10 1_555 1_555
Cl1_11 O1_7 1_555 1_555
O2_7 Cl1_11 1_555 1_555
Cl1_12 O1_8 1_555 1_555
O2_8 Cl1_12 1_555 1_555
O3_8 Cl1_12 1_555 1_555
O4_8 Cl1_12 1_555 1_555
Cl1_13 O1_9 1_555 1_555
O2_9 Cl1_13 1_555 1_555
O3_9 Cl1_14 1_555 1_555
O4_9 Cl1_14 1_555 1_555
Cl1_15 O1_10 1_555 1_555
O2_10 Cl1_15 1_555 1_555
O3_10 Cl1_15 1_555 1_555
O4_10 Cl1_15 1_555 1_555
O3_11 Cl1_16 1_555 1_555
O4_11 Cl1_16 1_555 1_555
Cl1_17 O1_11 1_555 1_555
O2_11 Cl1_17 1_555 1_555
Cl1_18 O1_12 1_555 1_555
O2_12 Cl1_18 1_555 1_555
O3_12 Cl1_18 1_555 1_555
O4_12 Cl1_18 1_555 1_555

#END
