
###############################################################################
#
# This file contains modified crystal structure data generated from the
# MOF subset of the Cambridge Structural Database (CSD) v543 
# hosted by the Cambridge Crystallographic Data Centre (CCDC).
#
# This work is licensed under the Creative Commons
# Attribution-NonCommercial-ShareAlike 4.0 International License.
# To view a copy of this license, visit
# http://creativecommons.org/licenses/by-nc-sa/4.0/
# or send a letter to
# Creative Commons, PO Box 1866, Mountain View, CA 94042, USA.
#
# CIF created using the CSD Python API on 29 September 2022
# The structure has been converted into the P1 space group
# The structure has a 3D framework
# The original CSD entry KEPMUQ05 is in the cubic crystal system
# The original CSD entry KEPMUQ05 is in a Sohncke space group
# The framework has been calculated to contain at least 10.0% void space
# The void calculation uses a probe of radius 1.32A, grid spacing 0.4
# The framework is charged, counterions have been retained in the structure
#
###############################################################################

data_KEPMUQ05
_chemical_formula_moiety         '(C288 H240 Ag14 Cl18 N80 O48 2+)n'
_symmetry_cell_setting           triclinic
_symmetry_space_group_name_H-M   'P 1'
_symmetry_Int_Tables_number      1
_space_group_name_Hall           'P 1'
loop_
_symmetry_equiv_pos_site_id
_symmetry_equiv_pos_as_xyz
1 x,y,z
_cell_length_a                   21.2904(3)
_cell_length_b                   21.2904(3)
_cell_length_c                   21.2904(3)
_cell_angle_alpha                90
_cell_angle_beta                 90
_cell_angle_gamma                90
_cell_volume                     9650.54
loop_
_atom_site_label
_atom_site_type_symbol
_atom_site_fract_x
_atom_site_fract_y
_atom_site_fract_z
C34 C 0.0247(4) 0.6733(4) 0.6107(4)
H27 H 0.0383 0.7043 0.5823
C35 C 0.0606(4) 0.6604(4) 0.6666(5)
H28 H 0.0969 0.6835 0.6767
C36 C 0.0397(3) 0.6138(4) 0.7035(4)
H29 H 0.0634 0.6034 0.7393
Ag1 Ag 0.7500 0.04184(3) 0.0000
H5 H 0.8643 0.2016 0.0168
C8 C 0.8584(3) 0.0473(3) 0.0937(3)
C9 C 0.9008(3) 0.0281(4) 0.1411(4)
H6 H 0.9368 0.0522 0.1499
N2 N 0.8343(2) 0.1178(2) 0.0115(2)
N3 N 0.8689(2) 0.1008(2) 0.0632(2)
H10 H 0.8985 0.1258 0.0763
N4 N 0.8075(2) 0.0131(2) 0.0810(3)
H35 H 0.1357 0.2984 0.0168
C44 C 0.1416(3) 0.4527(3) 0.0937(3)
C45 C 0.0992(3) 0.4719(4) 0.1411(4)
H36 H 0.0632 0.4478 0.1499
C46 C 0.1107(4) 0.5247(4) 0.1733(4)
H37 H 0.0823 0.5383 0.2043
C47 C 0.1666(5) 0.5606(4) 0.1604(4)
H38 H 0.1767 0.5969 0.1835
C48 C 0.2035(4) 0.5397(3) 0.1138(4)
H39 H 0.2393 0.5634 0.1034
N12 N 0.1657(2) 0.3822(2) 0.0115(2)
N13 N 0.1311(2) 0.3992(2) 0.0632(2)
H40 H 0.1015 0.3742 0.0763
N14 N 0.1925(2) 0.4869(2) 0.0810(3)
Ag4 Ag 0.2500 0.45816(3) 0.0000
Ag1_2 Ag 0.7500 0.04184(3) 1.0000
C1 C 0.7513(2) 0.2509(2) 0.8301(2)
C2 C 0.7553(3) 0.1852(2) 0.8380(3)
H1 H 0.7388 0.1583 0.8071
C3 C 0.7833(3) 0.1605(2) 0.8909(2)
H2 H 0.7851 0.1166 0.8957
C4 C 0.8085(2) 0.1979(2) 0.9366(2)
C5 C 0.8048(3) 0.2630(3) 0.9289(2)
H3 H 0.8227 0.2896 0.9593
C6 C 0.7757(3) 0.2882(2) 0.8781(2)
H4 H 0.7720 0.3321 0.8751
C7 C 0.8394(3) 0.1739(3) 0.9931(3)
N1 N 0.7230(2) 0.2770(2) 0.7770(2)
C13 C 0.6699(2) 0.2487(2) 0.7509(2)
C14 C 0.6620(3) 0.2447(3) 0.6852(2)
H11 H 0.6929 0.2612 0.6583
C15 C 0.6091(2) 0.2167(3) 0.6605(2)
H12 H 0.6043 0.2149 0.6166
C16 C 0.5634(2) 0.1915(2) 0.6979(2)
C17 C 0.5711(2) 0.1952(3) 0.7630(3)
H13 H 0.5407 0.1773 0.7896
C18 C 0.6219(2) 0.2243(3) 0.7882(2)
H14 H 0.6249 0.2280 0.8321
C19 C 0.5069(3) 0.1606(3) 0.6739(3)
H15 H 0.4832 0.1357 0.7016
C20 C 0.4063(3) 0.1416(3) 0.5473(3)
C21 C 0.3589(4) 0.0992(3) 0.5281(4)
H16 H 0.3501 0.0632 0.5522
C22 C 0.3267(4) 0.1107(4) 0.4753(4)
H17 H 0.2957 0.0823 0.4617
C23 C 0.3396(4) 0.1666(5) 0.4394(4)
H18 H 0.3165 0.1767 0.4031
C24 C 0.3862(4) 0.2035(4) 0.4603(3)
H19 H 0.3966 0.2393 0.4366
N5 N 0.4885(2) 0.1657(2) 0.6178(2)
N6 N 0.4368(2) 0.1311(2) 0.6008(2)
H20 H 0.4237 0.1015 0.6258
N7 N 0.4190(3) 0.1925(2) 0.5131(2)
C25 C 0.7491(2) 0.3301(2) 0.7487(2)
C26 C 0.8148(2) 0.3380(3) 0.7447(3)
H21 H 0.8417 0.3071 0.7612
C27 C 0.8395(2) 0.3909(2) 0.7167(3)
H22 H 0.8834 0.3957 0.7149
C28 C 0.8021(2) 0.4366(2) 0.6915(2)
C29 C 0.7370(3) 0.4289(2) 0.6952(3)
H23 H 0.7104 0.4593 0.6773
C30 C 0.7118(2) 0.3781(2) 0.7243(3)
H24 H 0.6679 0.3751 0.7280
C31 C 0.8261(3) 0.4931(3) 0.6606(3)
H25 H 0.7984 0.5168 0.6357
C32 C 0.9527(3) 0.5937(3) 0.6416(3)
C33 C 0.9719(4) 0.6411(4) 0.5992(3)
H26 H 0.9478 0.6499 0.5632
N8 N 0.8822(2) 0.5115(2) 0.6657(2)
N9 N 0.8992(2) 0.5632(2) 0.6311(2)
H30 H 0.8742 0.5763 0.6015
N10 N 0.9869(2) 0.5810(3) 0.6925(2)
Ag2 Ag 0.5000 0.2500 0.54184(3)
Ag3 Ag 0.95816(3) 0.5000 0.7500
C37 C 0.2487(2) 0.2491(2) 0.8301(2)
C38 C 0.2447(3) 0.3148(2) 0.8380(3)
H31 H 0.2612 0.3417 0.8071
C39 C 0.2167(3) 0.3395(2) 0.8909(2)
H32 H 0.2149 0.3834 0.8957
C40 C 0.1915(2) 0.3021(2) 0.9366(2)
C41 C 0.1952(3) 0.2370(3) 0.9289(2)
H33 H 0.1773 0.2104 0.9593
C42 C 0.2243(3) 0.2118(2) 0.8781(2)
H34 H 0.2280 0.1679 0.8751
C43 C 0.1606(3) 0.3261(3) 0.9931(3)
N11 N 0.2770(2) 0.2230(2) 0.7770(2)
C49 C 0.3301(2) 0.2513(2) 0.7509(2)
C50 C 0.3380(3) 0.2553(3) 0.6852(2)
H41 H 0.3071 0.2388 0.6583
C51 C 0.3909(2) 0.2833(3) 0.6605(2)
H42 H 0.3957 0.2851 0.6166
C52 C 0.4366(2) 0.3085(2) 0.6979(2)
C53 C 0.4289(2) 0.3048(3) 0.7630(3)
H43 H 0.4593 0.3227 0.7896
C54 C 0.3781(2) 0.2757(3) 0.7882(2)
H44 H 0.3751 0.2720 0.8321
C55 C 0.4931(3) 0.3394(3) 0.6739(3)
H45 H 0.5168 0.3643 0.7016
C56 C 0.5937(3) 0.3584(3) 0.5473(3)
C57 C 0.6411(4) 0.4008(3) 0.5281(4)
H46 H 0.6499 0.4368 0.5522
C58 C 0.6733(4) 0.3893(4) 0.4753(4)
H47 H 0.7043 0.4177 0.4617
C59 C 0.6604(4) 0.3334(5) 0.4394(4)
H48 H 0.6835 0.3233 0.4031
C60 C 0.6138(4) 0.2965(4) 0.4603(3)
H49 H 0.6034 0.2607 0.4366
N15 N 0.5115(2) 0.3343(2) 0.6178(2)
N16 N 0.5632(2) 0.3689(2) 0.6008(2)
H50 H 0.5763 0.3985 0.6258
N17 N 0.5810(3) 0.3075(2) 0.5131(2)
C61 C 0.2509(2) 0.1699(2) 0.7487(2)
C62 C 0.1852(2) 0.1620(3) 0.7447(3)
H51 H 0.1583 0.1929 0.7612
C63 C 0.1605(2) 0.1091(2) 0.7167(3)
H52 H 0.1166 0.1043 0.7149
C64 C 0.1979(2) 0.0634(2) 0.6915(2)
C65 C 0.2630(3) 0.0711(2) 0.6952(3)
H53 H 0.2896 0.0407 0.6773
C66 C 0.2882(2) 0.1219(2) 0.7243(3)
H54 H 0.3321 0.1249 0.7280
C67 C 0.1739(3) 0.0069(3) 0.6606(3)
Ag4_2 Ag 0.2500 0.45816(3) 1.0000
Ag5 Ag 0.04184(3) 0.0000 0.7500
N21 N 0.6657(2) 0.1178(2) 0.9885(2)
N22 N 0.8822(2) 0.4885(2) 0.8343(2)
N23 N 0.6925(2) 0.0131(2) 0.9190(3)
N24 N 0.9869(2) 0.4190(3) 0.8075(2)
H55 H 0.2016 0.9832 0.6357
C68 C 0.0473(3) 0.9063(3) 0.6416(3)
C69 C 0.0281(4) 0.8589(4) 0.5992(3)
H56 H 0.0522 0.8501 0.5632
N18 N 0.1178(2) 0.9885(2) 0.6657(2)
N19 N 0.1008(2) 0.9368(2) 0.6311(2)
H60 H 0.1258 0.9237 0.6015
N20 N 0.0131(2) 0.9190(3) 0.6925(2)
Ag5_2 Ag 0.04184(3) 1.0000 0.7500
H55_2 H 0.2984 0.0168 0.1357
C68_2 C 0.4527(3) 0.0937(3) 0.1416(3)
C69_2 C 0.4719(4) 0.1411(4) 0.0992(3)
H56_2 H 0.4478 0.1499 0.0632
C70 C 0.5247(4) 0.1733(4) 0.1107(4)
H57 H 0.5383 0.2043 0.0823
C71 C 0.5606(4) 0.1604(4) 0.1666(5)
H58 H 0.5969 0.1835 0.1767
C72 C 0.5397(3) 0.1138(4) 0.2035(4)
H59 H 0.5634 0.1034 0.2393
N18_2 N 0.3822(2) 0.0115(2) 0.1657(2)
N19_2 N 0.3992(2) 0.0632(2) 0.1311(2)
H60_2 H 0.3742 0.0763 0.1015
N20_2 N 0.4869(2) 0.0810(3) 0.1925(2)
Ag5_3 Ag 0.45816(3) -0.0000 0.2500
H15_2 H 0.0168 0.8643 0.2016
C20_2 C 0.0937(3) 0.8584(3) 0.0473(3)
C21_2 C 0.1411(4) 0.9008(3) 0.0281(4)
H16_2 H 0.1499 0.9368 0.0522
N5_2 N 0.0115(2) 0.8343(2) 0.1178(2)
N6_2 N 0.0632(2) 0.8689(2) 0.1008(2)
H20_2 H 0.0763 0.8985 0.1258
N7_2 N 0.0810(3) 0.8075(2) 0.0131(2)
Ag2_2 Ag 0.0000 0.7500 0.04184(3)
C37_2 C 0.2513(2) 0.7509(2) 0.3301(2)
C38_2 C 0.2553(3) 0.6852(2) 0.3380(3)
H31_2 H 0.2388 0.6583 0.3071
C39_2 C 0.2833(3) 0.6605(2) 0.3909(2)
H32_2 H 0.2851 0.6166 0.3957
C40_2 C 0.3085(2) 0.6979(2) 0.4366(2)
C41_2 C 0.3048(3) 0.7630(3) 0.4289(2)
H33_2 H 0.3227 0.7896 0.4593
C42_2 C 0.2757(3) 0.7882(2) 0.3781(2)
H34_2 H 0.2720 0.8321 0.3751
C43_2 C 0.3394(3) 0.6739(3) 0.4931(3)
H35_2 H 0.3643 0.7016 0.5168
C44_2 C 0.3584(3) 0.5473(3) 0.5937(3)
C45_2 C 0.4008(3) 0.5281(4) 0.6411(4)
H36_2 H 0.4368 0.5522 0.6499
C46_2 C 0.3893(4) 0.4753(4) 0.6733(4)
H37_2 H 0.4177 0.4617 0.7043
C47_2 C 0.3334(5) 0.4394(4) 0.6604(4)
H38_2 H 0.3233 0.4031 0.6835
C48_2 C 0.2965(4) 0.4603(3) 0.6138(4)
H39_2 H 0.2607 0.4366 0.6034
N11_2 N 0.2230(2) 0.7770(2) 0.2770(2)
N12_2 N 0.3343(2) 0.6178(2) 0.5115(2)
N13_2 N 0.3689(2) 0.6008(2) 0.5632(2)
H40_2 H 0.3985 0.6258 0.5763
N14_2 N 0.3075(2) 0.5131(2) 0.5810(3)
C49_2 C 0.1699(2) 0.7487(2) 0.2509(2)
C50_2 C 0.1620(3) 0.7447(3) 0.1852(2)
H41_2 H 0.1929 0.7612 0.1583
C51_2 C 0.1091(2) 0.7167(3) 0.1605(2)
H42_2 H 0.1043 0.7149 0.1166
C52_2 C 0.0634(2) 0.6915(2) 0.1979(2)
C53_2 C 0.0711(2) 0.6952(3) 0.2630(3)
H43_2 H 0.0407 0.6773 0.2896
C54_2 C 0.1219(2) 0.7243(3) 0.2882(2)
H44_2 H 0.1249 0.7280 0.3321
C55_2 C 0.0069(3) 0.6606(3) 0.1739(3)
C61_2 C 0.2491(2) 0.8301(2) 0.2487(2)
C62_2 C 0.3148(2) 0.8380(3) 0.2447(3)
H51_2 H 0.3417 0.8071 0.2612
C63_2 C 0.3395(2) 0.8909(2) 0.2167(3)
H52_2 H 0.3834 0.8957 0.2149
C64_2 C 0.3021(2) 0.9366(2) 0.1915(2)
C65_2 C 0.2370(3) 0.9289(2) 0.1952(3)
H53_2 H 0.2104 0.9593 0.1773
C66_2 C 0.2118(2) 0.8781(2) 0.2243(3)
H54_2 H 0.1679 0.8751 0.2280
C67_2 C 0.3261(3) 0.9931(3) 0.1606(3)
Ag4_3 Ag 0.2500 0.54184(3) 0.5000
Ag5_4 Ag 0.45816(3) 1.0000 0.2500
C10 C 0.6107(4) 0.0247(4) 0.6733(4)
H7 H 0.5823 0.0383 0.7043
C11 C 0.6666(5) 0.0606(4) 0.6604(4)
H8 H 0.6767 0.0969 0.6835
C12 C 0.7035(4) 0.0397(3) 0.6138(4)
H9 H 0.7393 0.0634 0.6034
Ag1_3 Ag 0.7500 0.95816(3) 0.5000
C1_2 C 0.7487(2) 0.7491(2) 0.3301(2)
C2_2 C 0.7447(3) 0.8148(2) 0.3380(3)
H1_2 H 0.7612 0.8417 0.3071
C3_2 C 0.7167(3) 0.8395(2) 0.3909(2)
H2_2 H 0.7149 0.8834 0.3957
C4_2 C 0.6915(2) 0.8021(2) 0.4366(2)
C5_2 C 0.6952(3) 0.7370(3) 0.4289(2)
H3_2 H 0.6773 0.7104 0.4593
C6_2 C 0.7243(3) 0.7118(2) 0.3781(2)
H4_2 H 0.7280 0.6679 0.3751
C7_2 C 0.6606(3) 0.8261(3) 0.4931(3)
H5_2 H 0.6357 0.7984 0.5168
C8_2 C 0.6416(3) 0.9527(3) 0.5937(3)
C9_2 C 0.5992(3) 0.9719(4) 0.6411(4)
H6_2 H 0.5632 0.9478 0.6499
N1_2 N 0.7770(2) 0.7230(2) 0.2770(2)
N2_2 N 0.6657(2) 0.8822(2) 0.5115(2)
N3_2 N 0.6311(2) 0.8992(2) 0.5632(2)
H10_2 H 0.6015 0.8742 0.5763
N4_2 N 0.6925(2) 0.9869(2) 0.5810(3)
C13_2 C 0.8301(2) 0.7513(2) 0.2509(2)
C14_2 C 0.8380(3) 0.7553(3) 0.1852(2)
H11_2 H 0.8071 0.7388 0.1583
C15_2 C 0.8909(2) 0.7833(3) 0.1605(2)
H12_2 H 0.8957 0.7851 0.1166
C16_2 C 0.9366(2) 0.8085(2) 0.1979(2)
C17_2 C 0.9289(2) 0.8048(3) 0.2630(3)
H13_2 H 0.9593 0.8227 0.2896
C18_2 C 0.8781(2) 0.7757(3) 0.2882(2)
H14_2 H 0.8751 0.7720 0.3321
C19_2 C 0.9931(3) 0.8394(3) 0.1739(3)
C25_2 C 0.7509(2) 0.6699(2) 0.2487(2)
C26_2 C 0.6852(2) 0.6620(3) 0.2447(3)
H21_2 H 0.6583 0.6929 0.2612
C27_2 C 0.6605(2) 0.6091(2) 0.2167(3)
H22_2 H 0.6166 0.6043 0.2149
C28_2 C 0.6979(2) 0.5634(2) 0.1915(2)
C29_2 C 0.7630(3) 0.5711(2) 0.1952(3)
H23_2 H 0.7896 0.5407 0.1773
C30_2 C 0.7882(2) 0.6219(2) 0.2243(3)
H24_2 H 0.8321 0.6249 0.2280
C31_2 C 0.6739(3) 0.5069(3) 0.1606(3)
H25_2 H 0.7016 0.4832 0.1357
C32_2 C 0.5473(3) 0.4063(3) 0.1416(3)
C33_2 C 0.5281(4) 0.3589(4) 0.0992(3)
H26_2 H 0.5522 0.3501 0.0632
C34_2 C 0.4753(4) 0.3267(4) 0.1107(4)
H27_2 H 0.4617 0.2957 0.0823
C35_2 C 0.4394(4) 0.3396(4) 0.1666(5)
H28_2 H 0.4031 0.3165 0.1767
C36_2 C 0.4603(3) 0.3862(4) 0.2035(4)
H29_2 H 0.4366 0.3966 0.2393
N8_2 N 0.6178(2) 0.4885(2) 0.1657(2)
N9_2 N 0.6008(2) 0.4368(2) 0.1311(2)
H30_2 H 0.6258 0.4237 0.1015
N10_2 N 0.5131(2) 0.4190(3) 0.1925(2)
Ag2_3 Ag 1.0000 0.7500 0.04184(3)
Ag3_2 Ag 0.54184(3) 0.5000 0.2500
H45_2 H 0.9832 0.6357 0.2016
C56_2 C 0.9063(3) 0.6416(3) 0.0473(3)
C57_2 C 0.8589(4) 0.5992(3) 0.0281(4)
H46_2 H 0.8501 0.5632 0.0522
N15_2 N 0.9885(2) 0.6657(2) 0.1178(2)
N16_2 N 0.9368(2) 0.6311(2) 0.1008(2)
H50_2 H 0.9237 0.6015 0.1258
N17_2 N 0.9190(3) 0.6925(2) 0.0131(2)
N21_2 N 0.8343(2) 0.8822(2) 0.4885(2)
N22_2 N 0.6178(2) 0.5115(2) 0.3343(2)
N23_2 N 0.8075(2) 0.9869(2) 0.4190(3)
N24_2 N 0.5131(2) 0.5810(3) 0.3075(2)
C70_2 C 0.0247(4) 0.3267(4) 0.8893(4)
H57_2 H 0.0383 0.2957 0.9177
C71_2 C 0.0606(4) 0.3396(4) 0.8334(5)
H58_2 H 0.0969 0.3165 0.8233
C72_2 C 0.0397(3) 0.3862(4) 0.7965(4)
H59_2 H 0.0634 0.3966 0.7607
H25_3 H 0.2016 0.0168 0.8643
C32_3 C 0.0473(3) 0.0937(3) 0.8584(3)
C33_3 C 0.0281(4) 0.1411(4) 0.9008(3)
H26_3 H 0.0522 0.1499 0.9368
N8_3 N 0.1178(2) 0.0115(2) 0.8343(2)
N9_3 N 0.1008(2) 0.0632(2) 0.8689(2)
H30_3 H 0.1258 0.0763 0.8985
N10_3 N 0.0131(2) 0.0810(3) 0.8075(2)
C46_3 C 0.8893(4) 0.0247(4) 0.3267(4)
H37_3 H 0.9177 0.0383 0.2957
C47_3 C 0.8334(5) 0.0606(4) 0.3396(4)
H38_3 H 0.8233 0.0969 0.3165
C48_3 C 0.7965(4) 0.0397(3) 0.3862(4)
H39_3 H 0.7607 0.0634 0.3966
C22_2 C 0.6733(4) 0.6107(4) 0.0247(4)
H17_2 H 0.7043 0.5823 0.0383
C23_2 C 0.6604(4) 0.6666(5) 0.0606(4)
H18_2 H 0.6835 0.6767 0.0969
C24_2 C 0.6138(4) 0.7035(4) 0.0397(3)
H19_2 H 0.6034 0.7393 0.0634
C58_2 C 0.3267(4) 0.8893(4) 0.0247(4)
H47_2 H 0.2957 0.9177 0.0383
C59_2 C 0.3396(4) 0.8334(5) 0.0606(4)
H48_2 H 0.3165 0.8233 0.0969
C60_2 C 0.3862(4) 0.7965(4) 0.0397(3)
H49_2 H 0.3966 0.7607 0.0634
C1_3 C 0.2487(2) 0.7509(2) 0.6699(2)
C2_3 C 0.2447(3) 0.6852(2) 0.6620(3)
H1_3 H 0.2612 0.6583 0.6929
C3_3 C 0.2167(3) 0.6605(2) 0.6091(2)
H2_3 H 0.2149 0.6166 0.6043
C4_3 C 0.1915(2) 0.6979(2) 0.5634(2)
C5_3 C 0.1952(3) 0.7630(3) 0.5711(2)
H3_3 H 0.1773 0.7896 0.5407
C6_3 C 0.2243(3) 0.7882(2) 0.6219(2)
H4_3 H 0.2280 0.8321 0.6249
C7_3 C 0.1606(3) 0.6739(3) 0.5069(3)
H5_3 H 0.1357 0.7016 0.4832
C8_3 C 0.1416(3) 0.5473(3) 0.4063(3)
C9_3 C 0.0992(3) 0.5281(4) 0.3589(4)
H6_3 H 0.0632 0.5522 0.3501
C10_2 C 0.1107(4) 0.4753(4) 0.3267(4)
H7_2 H 0.0823 0.4617 0.2957
C11_2 C 0.1666(5) 0.4394(4) 0.3396(4)
H8_2 H 0.1767 0.4031 0.3165
C12_2 C 0.2035(4) 0.4603(3) 0.3862(4)
H9_2 H 0.2393 0.4366 0.3966
N1_3 N 0.2770(2) 0.7770(2) 0.7230(2)
N2_3 N 0.1657(2) 0.6178(2) 0.4885(2)
N3_3 N 0.1311(2) 0.6008(2) 0.4368(2)
H10_3 H 0.1015 0.6258 0.4237
N4_3 N 0.1925(2) 0.5131(2) 0.4190(3)
C13_3 C 0.3301(2) 0.7487(2) 0.7491(2)
C14_3 C 0.3380(3) 0.7447(3) 0.8148(2)
H11_3 H 0.3071 0.7612 0.8417
C15_3 C 0.3909(2) 0.7167(3) 0.8395(2)
H12_3 H 0.3957 0.7149 0.8834
C16_3 C 0.4366(2) 0.6915(2) 0.8021(2)
C17_3 C 0.4289(2) 0.6952(3) 0.7370(3)
H13_3 H 0.4593 0.6773 0.7104
C18_3 C 0.3781(2) 0.7243(3) 0.7118(2)
H14_3 H 0.3751 0.7280 0.6679
C19_3 C 0.4931(3) 0.6606(3) 0.8261(3)
H15_3 H 0.5168 0.6357 0.7984
C20_3 C 0.5937(3) 0.6416(3) 0.9527(3)
C21_3 C 0.6411(4) 0.5992(3) 0.9719(4)
H16_3 H 0.6499 0.5632 0.9478
N5_3 N 0.5115(2) 0.6657(2) 0.8822(2)
N6_3 N 0.5632(2) 0.6311(2) 0.8992(2)
H20_3 H 0.5763 0.6015 0.8742
N7_3 N 0.5810(3) 0.6925(2) 0.9869(2)
C25_3 C 0.2509(2) 0.8301(2) 0.7513(2)
C26_3 C 0.1852(2) 0.8380(3) 0.7553(3)
H21_3 H 0.1583 0.8071 0.7388
C27_3 C 0.1605(2) 0.8909(2) 0.7833(3)
H22_3 H 0.1166 0.8957 0.7851
C28_3 C 0.1979(2) 0.9366(2) 0.8085(2)
C29_3 C 0.2630(3) 0.9289(2) 0.8048(3)
H23_3 H 0.2896 0.9593 0.8227
C30_3 C 0.2882(2) 0.8781(2) 0.7757(3)
H24_3 H 0.3321 0.8751 0.7720
C31_3 C 0.1739(3) 0.9931(3) 0.8394(3)
Ag2_4 Ag 0.5000 0.7500 0.95816(3)
C37_3 C 0.7513(2) 0.7491(2) 0.6699(2)
C38_3 C 0.7553(3) 0.8148(2) 0.6620(3)
H31_3 H 0.7388 0.8417 0.6929
C39_3 C 0.7833(3) 0.8395(2) 0.6091(2)
H32_3 H 0.7851 0.8834 0.6043
C40_3 C 0.8085(2) 0.8021(2) 0.5634(2)
C41_3 C 0.8048(3) 0.7370(3) 0.5711(2)
H33_3 H 0.8227 0.7104 0.5407
C42_3 C 0.7757(3) 0.7118(2) 0.6219(2)
H34_3 H 0.7720 0.6679 0.6249
C43_3 C 0.8394(3) 0.8261(3) 0.5069(3)
H35_3 H 0.8643 0.7984 0.4832
C44_3 C 0.8584(3) 0.9527(3) 0.4063(3)
C45_3 C 0.9008(3) 0.9719(4) 0.3589(4)
H36_3 H 0.9368 0.9478 0.3501
N11_3 N 0.7230(2) 0.7230(2) 0.7230(2)
N13_3 N 0.8689(2) 0.8992(2) 0.4368(2)
H40_3 H 0.8985 0.8742 0.4237
C49_3 C 0.6699(2) 0.7513(2) 0.7491(2)
C50_3 C 0.6620(3) 0.7553(3) 0.8148(2)
H41_3 H 0.6929 0.7388 0.8417
C51_3 C 0.6091(2) 0.7833(3) 0.8395(2)
H42_3 H 0.6043 0.7851 0.8834
C52_3 C 0.5634(2) 0.8085(2) 0.8021(2)
C53_3 C 0.5711(2) 0.8048(3) 0.7370(3)
H43_3 H 0.5407 0.8227 0.7104
C54_3 C 0.6219(2) 0.7757(3) 0.7118(2)
H44_3 H 0.6249 0.7720 0.6679
C55_3 C 0.5069(3) 0.8394(3) 0.8261(3)
H45_3 H 0.4832 0.8643 0.7984
C56_3 C 0.4063(3) 0.8584(3) 0.9527(3)
C57_3 C 0.3589(4) 0.9008(3) 0.9719(4)
H46_3 H 0.3501 0.9368 0.9478
N15_3 N 0.4885(2) 0.8343(2) 0.8822(2)
N16_3 N 0.4368(2) 0.8689(2) 0.8992(2)
H50_3 H 0.4237 0.8985 0.8742
N17_3 N 0.4190(3) 0.8075(2) 0.9869(2)
C61_3 C 0.7491(2) 0.6699(2) 0.7513(2)
C62_3 C 0.8148(2) 0.6620(3) 0.7553(3)
H51_3 H 0.8417 0.6929 0.7388
C63_3 C 0.8395(2) 0.6091(2) 0.7833(3)
H52_3 H 0.8834 0.6043 0.7851
C64_3 C 0.8021(2) 0.5634(2) 0.8085(2)
C65_3 C 0.7370(3) 0.5711(2) 0.8048(3)
H53_3 H 0.7104 0.5407 0.8227
C66_3 C 0.7118(2) 0.6219(2) 0.7757(3)
H54_3 H 0.6679 0.6249 0.7720
C67_3 C 0.8261(3) 0.5069(3) 0.8394(3)
H55_3 H 0.7984 0.4832 0.8643
C68_3 C 0.9527(3) 0.4063(3) 0.8584(3)
C69_3 C 0.9719(4) 0.3589(4) 0.9008(3)
H56_3 H 0.9478 0.3501 0.9368
N19_3 N 0.8992(2) 0.4368(2) 0.8689(2)
H60_3 H 0.8742 0.4237 0.8985
C1_4 C 0.2513(2) 0.2491(2) 0.1699(2)
C2_4 C 0.2553(3) 0.3148(2) 0.1620(3)
H1_4 H 0.2388 0.3417 0.1929
C3_4 C 0.2833(3) 0.3395(2) 0.1091(2)
H2_4 H 0.2851 0.3834 0.1043
C4_4 C 0.3085(2) 0.3021(2) 0.0634(2)
C5_4 C 0.3048(3) 0.2370(3) 0.0711(2)
H3_4 H 0.3227 0.2104 0.0407
C6_4 C 0.2757(3) 0.2118(2) 0.1219(2)
H4_4 H 0.2720 0.1679 0.1249
C7_4 C 0.3394(3) 0.3261(3) 0.0069(3)
N1_4 N 0.2230(2) 0.2230(2) 0.2230(2)
C13_4 C 0.1699(2) 0.2513(2) 0.2491(2)
C14_4 C 0.1620(3) 0.2553(3) 0.3148(2)
H11_4 H 0.1929 0.2388 0.3417
C15_4 C 0.1091(2) 0.2833(3) 0.3395(2)
H12_4 H 0.1043 0.2851 0.3834
C16_4 C 0.0634(2) 0.3085(2) 0.3021(2)
C17_4 C 0.0711(2) 0.3048(3) 0.2370(3)
H13_4 H 0.0407 0.3227 0.2104
C18_4 C 0.1219(2) 0.2757(3) 0.2118(2)
H14_4 H 0.1249 0.2720 0.1679
C19_4 C 0.0069(3) 0.3394(3) 0.3261(3)
C25_4 C 0.2491(2) 0.1699(2) 0.2513(2)
C26_4 C 0.3148(2) 0.1620(3) 0.2553(3)
H21_4 H 0.3417 0.1929 0.2388
C27_4 C 0.3395(2) 0.1091(2) 0.2833(3)
H22_4 H 0.3834 0.1043 0.2851
C28_4 C 0.3021(2) 0.0634(2) 0.3085(2)
C29_4 C 0.2370(3) 0.0711(2) 0.3048(3)
H23_4 H 0.2104 0.0407 0.3227
C30_4 C 0.2118(2) 0.1219(2) 0.2757(3)
H24_4 H 0.1679 0.1249 0.2720
C31_4 C 0.3261(3) 0.0069(3) 0.3394(3)
Ag2_5 Ag 0.0000 0.2500 0.45816(3)
H45_4 H 0.0168 0.1357 0.2984
C56_4 C 0.0937(3) 0.1416(3) 0.4527(3)
C57_4 C 0.1411(4) 0.0992(3) 0.4719(4)
H46_4 H 0.1499 0.0632 0.4478
C58_3 C 0.1733(4) 0.1107(4) 0.5247(4)
H47_3 H 0.2043 0.0823 0.5383
C59_3 C 0.1604(4) 0.1666(5) 0.5606(4)
H48_3 H 0.1835 0.1767 0.5969
C60_3 C 0.1138(4) 0.2035(4) 0.5397(3)
H49_3 H 0.1034 0.2393 0.5634
N15_4 N 0.0115(2) 0.1657(2) 0.3822(2)
N16_4 N 0.0632(2) 0.1311(2) 0.3992(2)
H50_4 H 0.0763 0.1015 0.3742
N17_4 N 0.0810(3) 0.1925(2) 0.4869(2)
H5_4 H 0.3643 0.2984 0.9832
C8_4 C 0.3584(3) 0.4527(3) 0.9063(3)
C9_4 C 0.4008(3) 0.4719(4) 0.8589(4)
H6_4 H 0.4368 0.4478 0.8501
C10_3 C 0.3893(4) 0.5247(4) 0.8267(4)
H7_3 H 0.4177 0.5383 0.7957
C11_3 C 0.3334(5) 0.5606(4) 0.8396(4)
H8_3 H 0.3233 0.5969 0.8165
C12_3 C 0.2965(4) 0.5397(3) 0.8862(4)
H9_3 H 0.2607 0.5634 0.8966
N2_4 N 0.3343(2) 0.3822(2) 0.9885(2)
N3_4 N 0.3689(2) 0.3992(2) 0.9368(2)
H10_4 H 0.3985 0.3742 0.9237
N4_4 N 0.3075(2) 0.4869(2) 0.9190(3)
H25_4 H 0.2984 0.9832 0.3643
C32_4 C 0.4527(3) 0.9063(3) 0.3584(3)
C33_4 C 0.4719(4) 0.8589(4) 0.4008(3)
H26_4 H 0.4478 0.8501 0.4368
C34_3 C 0.5247(4) 0.8267(4) 0.3893(4)
H27_3 H 0.5383 0.7957 0.4177
C35_3 C 0.5606(4) 0.8396(4) 0.3334(5)
H28_3 H 0.5969 0.8165 0.3233
C36_3 C 0.5397(3) 0.8862(4) 0.2965(4)
H29_3 H 0.5634 0.8966 0.2607
N8_4 N 0.3822(2) 0.9885(2) 0.3343(2)
N9_4 N 0.3992(2) 0.9368(2) 0.3689(2)
H30_4 H 0.3742 0.9237 0.3985
N10_4 N 0.4869(2) 0.9190(3) 0.3075(2)
H15_4 H 0.9832 0.3643 0.2984
C20_4 C 0.9063(3) 0.3584(3) 0.4527(3)
C21_4 C 0.8589(4) 0.4008(3) 0.4719(4)
H16_4 H 0.8501 0.4368 0.4478
C22_3 C 0.8267(4) 0.3893(4) 0.5247(4)
H17_3 H 0.7957 0.4177 0.5383
C23_3 C 0.8396(4) 0.3334(5) 0.5606(4)
H18_3 H 0.8165 0.3233 0.5969
C24_3 C 0.8862(4) 0.2965(4) 0.5397(3)
H19_3 H 0.8966 0.2607 0.5634
N5_4 N 0.9885(2) 0.3343(2) 0.3822(2)
N6_4 N 0.9368(2) 0.3689(2) 0.3992(2)
H20_4 H 0.9237 0.3985 0.3742
N7_4 N 0.9190(3) 0.3075(2) 0.4869(2)
Ag2_6 Ag 1.0000 0.2500 0.45816(3)
C37_4 C 0.7487(2) 0.2509(2) 0.1699(2)
C38_4 C 0.7447(3) 0.1852(2) 0.1620(3)
H31_4 H 0.7612 0.1583 0.1929
C39_4 C 0.7167(3) 0.1605(2) 0.1091(2)
H32_4 H 0.7149 0.1166 0.1043
C40_4 C 0.6915(2) 0.1979(2) 0.0634(2)
C41_4 C 0.6952(3) 0.2630(3) 0.0711(2)
H33_4 H 0.6773 0.2896 0.0407
C42_4 C 0.7243(3) 0.2882(2) 0.1219(2)
H34_4 H 0.7280 0.3321 0.1249
C43_4 C 0.6606(3) 0.1739(3) 0.0069(3)
N11_4 N 0.7770(2) 0.2770(2) 0.2230(2)
C49_4 C 0.8301(2) 0.2487(2) 0.2491(2)
C50_4 C 0.8380(3) 0.2447(3) 0.3148(2)
H41_4 H 0.8071 0.2612 0.3417
C51_4 C 0.8909(2) 0.2167(3) 0.3395(2)
H42_4 H 0.8957 0.2149 0.3834
C52_4 C 0.9366(2) 0.1915(2) 0.3021(2)
C53_4 C 0.9289(2) 0.1952(3) 0.2370(3)
H43_4 H 0.9593 0.1773 0.2104
C54_4 C 0.8781(2) 0.2243(3) 0.2118(2)
H44_4 H 0.8751 0.2280 0.1679
C55_4 C 0.9931(3) 0.1606(3) 0.3261(3)
C61_4 C 0.7509(2) 0.3301(2) 0.2513(2)
C62_4 C 0.6852(2) 0.3380(3) 0.2553(3)
H51_4 H 0.6583 0.3071 0.2388
C63_4 C 0.6605(2) 0.3909(2) 0.2833(3)
H52_4 H 0.6166 0.3957 0.2851
C64_4 C 0.6979(2) 0.4366(2) 0.3085(2)
C65_4 C 0.7630(3) 0.4289(2) 0.3048(3)
H53_4 H 0.7896 0.4593 0.3227
C66_4 C 0.7882(2) 0.3781(2) 0.2757(3)
H54_4 H 0.8321 0.3751 0.2720
C67_4 C 0.6739(3) 0.4931(3) 0.3394(3)
H55_4 H 0.7016 0.5168 0.3643
C68_4 C 0.5473(3) 0.5937(3) 0.3584(3)
C69_4 C 0.5281(4) 0.6411(4) 0.4008(3)
H56_4 H 0.5522 0.6499 0.4368
C70_3 C 0.4753(4) 0.6733(4) 0.3893(4)
H57_3 H 0.4617 0.7043 0.4177
C71_3 C 0.4394(4) 0.6604(4) 0.3334(5)
H58_3 H 0.4031 0.6835 0.3233
C72_3 C 0.4603(3) 0.6138(4) 0.2965(4)
H59_3 H 0.4366 0.6034 0.2607
N19_4 N 0.6008(2) 0.5632(2) 0.3689(2)
H60_4 H 0.6258 0.5763 0.3985
H35_4 H 0.6357 0.2016 0.9832
C44_4 C 0.6416(3) 0.0473(3) 0.9063(3)
C45_4 C 0.5992(3) 0.0281(4) 0.8589(4)
H36_4 H 0.5632 0.0522 0.8501
N13_4 N 0.6311(2) 0.1008(2) 0.9368(2)
H40_4 H 0.6015 0.1258 0.9237
C10_4 C 0.8893(4) 0.9753(4) 0.1733(4)
H7_4 H 0.9177 0.9617 0.2043
C11_4 C 0.8334(5) 0.9394(4) 0.1604(4)
H8_4 H 0.8233 0.9031 0.1835
C12_4 C 0.7965(4) 0.9603(3) 0.1138(4)
H9_4 H 0.7607 0.9366 0.1034
C70_4 C 0.9753(4) 0.8267(4) 0.6107(4)
H57_4 H 0.9617 0.7957 0.5823
C71_4 C 0.9394(4) 0.8396(4) 0.6666(5)
H58_4 H 0.9031 0.8165 0.6767
C72_4 C 0.9603(3) 0.8862(4) 0.7035(4)
H59_4 H 0.9366 0.8966 0.7393
C22_4 C 0.1733(4) 0.8893(4) 0.9753(4)
H17_4 H 0.2043 0.9177 0.9617
C23_4 C 0.1604(4) 0.8334(5) 0.9394(4)
H18_4 H 0.1835 0.8233 0.9031
C24_4 C 0.1138(4) 0.7965(4) 0.9603(3)
H19_4 H 0.1034 0.7607 0.9366
C58_4 C 0.8267(4) 0.6107(4) 0.9753(4)
H47_4 H 0.7957 0.5823 0.9617
C59_4 C 0.8396(4) 0.6666(5) 0.9394(4)
H48_4 H 0.8165 0.6767 0.9031
C60_4 C 0.8862(4) 0.7035(4) 0.9603(3)
H49_4 H 0.8966 0.7393 0.9366
C34_4 C 0.9753(4) 0.1733(4) 0.8893(4)
H27_4 H 0.9617 0.2043 0.9177
C35_4 C 0.9394(4) 0.1604(4) 0.8334(5)
H28_4 H 0.9031 0.1835 0.8233
C36_4 C 0.9603(3) 0.1138(4) 0.7965(4)
H29_4 H 0.9366 0.1034 0.7607
C46_4 C 0.6107(4) 0.9753(4) 0.8267(4)
H37_4 H 0.5823 0.9617 0.7957
C47_4 C 0.6666(5) 0.9394(4) 0.8396(4)
H38_4 H 0.6767 0.9031 0.8165
C48_4 C 0.7035(4) 0.9603(3) 0.8862(4)
H39_4 H 0.7393 0.9366 0.8966
Cl1 Cl 0.0000 0.2500 0.05943(9)
O1 O 0.0485(3) 0.2254(3) 0.0228(3)
O2 O 0.0249(3) 0.2990(3) 0.0958(2)
Cl1_2 Cl 1.0000 0.2500 0.05943(9)
O3 O 0.9515(3) 0.2746(3) 0.0228(3)
O4 O 0.9751(3) 0.2010(3) 0.0958(2)
Cl1_3 Cl 0.5000 0.7500 0.55943(9)
O1_2 O 0.4515(3) 0.7746(3) 0.5228(3)
O2_2 O 0.4751(3) 0.7010(3) 0.5958(2)
O3_2 O 0.5485(3) 0.7254(3) 0.5228(3)
O4_2 O 0.5249(3) 0.7990(3) 0.5958(2)
Cl1_4 Cl 0.0000 0.7500 0.44057(9)
O3_3 O 0.0485(3) 0.7746(3) 0.4772(3)
O4_3 O 0.0249(3) 0.7010(3) 0.4042(2)
Cl1_5 Cl 1.0000 0.7500 0.44057(9)
O1_3 O 0.9515(3) 0.7254(3) 0.4772(3)
O2_3 O 0.9751(3) 0.7990(3) 0.4042(2)
Cl1_6 Cl 0.5000 0.2500 0.94057(9)
O1_4 O 0.5485(3) 0.2746(3) 0.9772(3)
O2_4 O 0.5249(3) 0.2010(3) 0.9042(2)
O3_4 O 0.4515(3) 0.2254(3) 0.9772(3)
O4_4 O 0.4751(3) 0.2990(3) 0.9042(2)
Cl1_7 Cl 0.05943(9) 0.0000 0.2500
O1_5 O 0.0228(3) 0.0485(3) 0.2254(3)
O2_5 O 0.0958(2) 0.0249(3) 0.2990(3)
Cl1_8 Cl 0.05943(9) 1.0000 0.2500
O3_5 O 0.0228(3) 0.9515(3) 0.2746(3)
O4_5 O 0.0958(2) 0.9751(3) 0.2010(3)
Cl1_9 Cl 0.55943(9) 0.5000 0.7500
O1_6 O 0.5228(3) 0.4515(3) 0.7746(3)
O2_6 O 0.5958(2) 0.4751(3) 0.7010(3)
O3_6 O 0.5228(3) 0.5485(3) 0.7254(3)
O4_6 O 0.5958(2) 0.5249(3) 0.7990(3)
Cl1_10 Cl 0.44057(9) 0.0000 0.7500
O3_7 O 0.4772(3) 0.0485(3) 0.7746(3)
O4_7 O 0.4042(2) 0.0249(3) 0.7010(3)
Cl1_11 Cl 0.44057(9) 1.0000 0.7500
O1_7 O 0.4772(3) 0.9515(3) 0.7254(3)
O2_7 O 0.4042(2) 0.9751(3) 0.7990(3)
Cl1_12 Cl 0.94057(9) 0.5000 0.2500
O1_8 O 0.9772(3) 0.5485(3) 0.2746(3)
O2_8 O 0.9042(2) 0.5249(3) 0.2010(3)
O3_8 O 0.9772(3) 0.4515(3) 0.2254(3)
O4_8 O 0.9042(2) 0.4751(3) 0.2990(3)
Cl1_13 Cl 0.2500 0.05943(9) 0.0000
O1_9 O 0.2254(3) 0.0228(3) 0.0485(3)
O2_9 O 0.2990(3) 0.0958(2) 0.0249(3)
Cl1_14 Cl 0.2500 0.05943(9) 1.0000
O3_9 O 0.2746(3) 0.0228(3) 0.9515(3)
O4_9 O 0.2010(3) 0.0958(2) 0.9751(3)
Cl1_15 Cl 0.7500 0.55943(9) 0.5000
O1_10 O 0.7746(3) 0.5228(3) 0.4515(3)
O2_10 O 0.7010(3) 0.5958(2) 0.4751(3)
O3_10 O 0.7254(3) 0.5228(3) 0.5485(3)
O4_10 O 0.7990(3) 0.5958(2) 0.5249(3)
Cl1_16 Cl 0.7500 0.44057(9) -0.0000
O3_11 O 0.7746(3) 0.4772(3) 0.0485(3)
O4_11 O 0.7010(3) 0.4042(2) 0.0249(3)
Cl1_17 Cl 0.7500 0.44057(9) 1.0000
O1_11 O 0.7254(3) 0.4772(3) 0.9515(3)
O2_11 O 0.7990(3) 0.4042(2) 0.9751(3)
Cl1_18 Cl 0.2500 0.94057(9) 0.5000
O1_12 O 0.2746(3) 0.9772(3) 0.5485(3)
O2_12 O 0.2010(3) 0.9042(2) 0.5249(3)
O3_12 O 0.2254(3) 0.9772(3) 0.4515(3)
O4_12 O 0.2990(3) 0.9042(2) 0.4751(3)
loop_
_geom_bond_atom_site_label_1
_geom_bond_atom_site_label_2
_geom_bond_site_symmetry_1
_geom_bond_site_symmetry_2
H27 C34 1_555 1_555
C35 C34 1_555 1_555
H28 C35 1_555 1_555
C36 C35 1_555 1_555
H29 C36 1_555 1_555
Ag1 N2 1_555 1_555
C8 C9 1_555 1_555
C9 H6 1_555 1_555
N3 C8 1_555 1_555
H10 N3 1_555 1_555
N4 Ag1 1_555 1_555
C44 C45 1_555 1_555
C45 H36 1_555 1_555
C46 C45 1_555 1_555
H37 C46 1_555 1_555
C47 C46 1_555 1_555
H38 C47 1_555 1_555
C48 C47 1_555 1_555
H39 C48 1_555 1_555
N13 C44 1_555 1_555
H40 N13 1_555 1_555
N14 C44 1_555 1_555
Ag4 N12 1_555 1_555
C8 N4 1_555 1_555
N2 N3 1_555 1_555
C48 N14 1_555 1_555
N12 N13 1_555 1_555
N14 Ag4 1_555 1_555
C1 C2 1_555 1_555
C2 H1 1_555 1_555
C3 C2 1_555 1_555
H2 C3 1_555 1_555
C4 C3 1_555 1_555
C5 C4 1_555 1_555
H3 C5 1_555 1_555
C6 C1 1_555 1_555
H4 C6 1_555 1_555
C7 C4 1_555 1_555
N1 C1 1_555 1_555
C13 N1 1_555 1_555
C14 C13 1_555 1_555
H11 C14 1_555 1_555
C15 C14 1_555 1_555
H12 C15 1_555 1_555
C16 C15 1_555 1_555
C17 C16 1_555 1_555
H13 C17 1_555 1_555
C18 C13 1_555 1_555
H14 C18 1_555 1_555
C19 C16 1_555 1_555
H15 C19 1_555 1_555
C20 C21 1_555 1_555
C21 H16 1_555 1_555
C22 C21 1_555 1_555
H17 C22 1_555 1_555
C23 C22 1_555 1_555
H18 C23 1_555 1_555
C24 C23 1_555 1_555
H19 C24 1_555 1_555
N5 C19 1_555 1_555
N6 C20 1_555 1_555
H20 N6 1_555 1_555
N7 C20 1_555 1_555
C25 N1 1_555 1_555
C26 C25 1_555 1_555
H21 C26 1_555 1_555
C27 C26 1_555 1_555
H22 C27 1_555 1_555
C28 C27 1_555 1_555
C29 C28 1_555 1_555
H23 C29 1_555 1_555
C30 C25 1_555 1_555
H24 C30 1_555 1_555
C31 C28 1_555 1_555
H25 C31 1_555 1_555
C32 C33 1_555 1_555
C33 H26 1_555 1_555
N8 C31 1_555 1_555
N9 C32 1_555 1_555
H30 N9 1_555 1_555
N10 C32 1_555 1_555
Ag2 N5 1_555 1_555
Ag3 N8 1_555 1_555
C37 C38 1_555 1_555
C38 H31 1_555 1_555
C39 C38 1_555 1_555
H32 C39 1_555 1_555
C40 C39 1_555 1_555
C41 C40 1_555 1_555
H33 C41 1_555 1_555
C42 C37 1_555 1_555
H34 C42 1_555 1_555
C43 C40 1_555 1_555
N11 C37 1_555 1_555
C49 N11 1_555 1_555
C50 C49 1_555 1_555
H41 C50 1_555 1_555
C51 C50 1_555 1_555
H42 C51 1_555 1_555
C52 C51 1_555 1_555
C53 C52 1_555 1_555
H43 C53 1_555 1_555
C54 C49 1_555 1_555
H44 C54 1_555 1_555
C55 C52 1_555 1_555
H45 C55 1_555 1_555
C56 C57 1_555 1_555
C57 H46 1_555 1_555
C58 C57 1_555 1_555
H47 C58 1_555 1_555
C59 C58 1_555 1_555
H48 C59 1_555 1_555
C60 C59 1_555 1_555
H49 C60 1_555 1_555
N15 Ag2 1_555 1_555
N16 C56 1_555 1_555
H50 N16 1_555 1_555
N17 Ag2 1_555 1_555
C61 N11 1_555 1_555
C62 C61 1_555 1_555
H51 C62 1_555 1_555
C63 C62 1_555 1_555
H52 C63 1_555 1_555
C64 C63 1_555 1_555
C65 C64 1_555 1_555
H53 C65 1_555 1_555
C66 C61 1_555 1_555
H54 C66 1_555 1_555
C67 C64 1_555 1_555
N21 Ag1_2 1_555 1_555
N22 Ag3 1_555 1_555
N23 Ag1_2 1_555 1_555
N24 Ag3 1_555 1_555
C5 C6 1_555 1_555
C17 C18 1_555 1_555
C24 N7 1_555 1_555
N5 N6 1_555 1_555
N7 Ag2 1_555 1_555
C29 C30 1_555 1_555
N8 N9 1_555 1_555
N10 Ag3 1_555 1_555
C41 C42 1_555 1_555
C53 C54 1_555 1_555
C55 N15 1_555 1_555
C56 N17 1_555 1_555
C60 N17 1_555 1_555
N15 N16 1_555 1_555
C65 C66 1_555 1_555
C68 C69 1_555 1_555
C69 H56 1_555 1_555
N19 C68 1_555 1_555
H60 N19 1_555 1_555
N20 C68 1_555 1_555
Ag5_2 N18 1_555 1_555
N18 N19 1_555 1_555
N20 Ag5_2 1_555 1_555
C68_2 C69_2 1_555 1_555
C69_2 H56_2 1_555 1_555
C70 C69_2 1_555 1_555
H57 C70 1_555 1_555
C71 C70 1_555 1_555
H58 C71 1_555 1_555
C72 C71 1_555 1_555
H59 C72 1_555 1_555
N19_2 C68_2 1_555 1_555
H60_2 N19_2 1_555 1_555
N20_2 C68_2 1_555 1_555
Ag5_3 N18_2 1_555 1_555
C72 N20_2 1_555 1_555
N18_2 N19_2 1_555 1_555
N20_2 Ag5_3 1_555 1_555
C20_2 C21_2 1_555 1_555
C21_2 H16_2 1_555 1_555
N6_2 C20_2 1_555 1_555
H20_2 N6_2 1_555 1_555
N7_2 C20_2 1_555 1_555
Ag2_2 N5_2 1_555 1_555
C37_2 C38_2 1_555 1_555
C38_2 H31_2 1_555 1_555
C39_2 C38_2 1_555 1_555
H32_2 C39_2 1_555 1_555
C40_2 C39_2 1_555 1_555
C41_2 C40_2 1_555 1_555
H33_2 C41_2 1_555 1_555
C42_2 C37_2 1_555 1_555
H34_2 C42_2 1_555 1_555
C43_2 C40_2 1_555 1_555
H35_2 C43_2 1_555 1_555
C44_2 C45_2 1_555 1_555
C45_2 H36_2 1_555 1_555
C46_2 C45_2 1_555 1_555
H37_2 C46_2 1_555 1_555
C47_2 C46_2 1_555 1_555
H38_2 C47_2 1_555 1_555
C48_2 C47_2 1_555 1_555
H39_2 C48_2 1_555 1_555
N11_2 C37_2 1_555 1_555
N12_2 C43_2 1_555 1_555
N13_2 C44_2 1_555 1_555
H40_2 N13_2 1_555 1_555
N14_2 C44_2 1_555 1_555
C49_2 N11_2 1_555 1_555
C50_2 C49_2 1_555 1_555
H41_2 C50_2 1_555 1_555
C51_2 C50_2 1_555 1_555
H42_2 C51_2 1_555 1_555
C52_2 C51_2 1_555 1_555
C53_2 C52_2 1_555 1_555
H43_2 C53_2 1_555 1_555
C54_2 C49_2 1_555 1_555
H44_2 C54_2 1_555 1_555
C55_2 C52_2 1_555 1_555
C61_2 N11_2 1_555 1_555
C62_2 C61_2 1_555 1_555
H51_2 C62_2 1_555 1_555
C63_2 C62_2 1_555 1_555
H52_2 C63_2 1_555 1_555
C64_2 C63_2 1_555 1_555
C65_2 C64_2 1_555 1_555
H53_2 C65_2 1_555 1_555
C66_2 C61_2 1_555 1_555
H54_2 C66_2 1_555 1_555
C67_2 C64_2 1_555 1_555
Ag4_3 N12_2 1_555 1_555
N5_2 N6_2 1_555 1_555
N7_2 Ag2_2 1_555 1_555
C41_2 C42_2 1_555 1_555
C48_2 N14_2 1_555 1_555
N12_2 N13_2 1_555 1_555
N14_2 Ag4_3 1_555 1_555
C53_2 C54_2 1_555 1_555
C65_2 C66_2 1_555 1_555
H7 C10 1_555 1_555
C11 C10 1_555 1_555
H8 C11 1_555 1_555
C12 C11 1_555 1_555
H9 C12 1_555 1_555
Ag1_3 N2_2 1_555 1_555
C1_2 C2_2 1_555 1_555
C2_2 H1_2 1_555 1_555
C3_2 C2_2 1_555 1_555
H2_2 C3_2 1_555 1_555
C4_2 C3_2 1_555 1_555
C5_2 C4_2 1_555 1_555
H3_2 C5_2 1_555 1_555
C6_2 C1_2 1_555 1_555
H4_2 C6_2 1_555 1_555
C7_2 C4_2 1_555 1_555
H5_2 C7_2 1_555 1_555
C8_2 C9_2 1_555 1_555
C9_2 H6_2 1_555 1_555
N1_2 C1_2 1_555 1_555
N2_2 C7_2 1_555 1_555
N3_2 C8_2 1_555 1_555
H10_2 N3_2 1_555 1_555
N4_2 Ag1_3 1_555 1_555
C13_2 N1_2 1_555 1_555
C14_2 C13_2 1_555 1_555
H11_2 C14_2 1_555 1_555
C15_2 C14_2 1_555 1_555
H12_2 C15_2 1_555 1_555
C16_2 C15_2 1_555 1_555
C17_2 C16_2 1_555 1_555
H13_2 C17_2 1_555 1_555
C18_2 C13_2 1_555 1_555
H14_2 C18_2 1_555 1_555
C19_2 C16_2 1_555 1_555
C25_2 N1_2 1_555 1_555
C26_2 C25_2 1_555 1_555
H21_2 C26_2 1_555 1_555
C27_2 C26_2 1_555 1_555
H22_2 C27_2 1_555 1_555
C28_2 C27_2 1_555 1_555
C29_2 C28_2 1_555 1_555
H23_2 C29_2 1_555 1_555
C30_2 C25_2 1_555 1_555
H24_2 C30_2 1_555 1_555
C31_2 C28_2 1_555 1_555
H25_2 C31_2 1_555 1_555
C32_2 C33_2 1_555 1_555
C33_2 H26_2 1_555 1_555
C34_2 C33_2 1_555 1_555
H27_2 C34_2 1_555 1_555
C35_2 C34_2 1_555 1_555
H28_2 C35_2 1_555 1_555
C36_2 C35_2 1_555 1_555
H29_2 C36_2 1_555 1_555
N8_2 C31_2 1_555 1_555
N9_2 C32_2 1_555 1_555
H30_2 N9_2 1_555 1_555
N10_2 C32_2 1_555 1_555
Ag3_2 N8_2 1_555 1_555
C56_2 C57_2 1_555 1_555
C57_2 H46_2 1_555 1_555
N15_2 Ag2_3 1_555 1_555
N16_2 C56_2 1_555 1_555
H50_2 N16_2 1_555 1_555
N17_2 Ag2_3 1_555 1_555
N21_2 Ag1_3 1_555 1_555
N22_2 Ag3_2 1_555 1_555
N23_2 Ag1_3 1_555 1_555
N24_2 Ag3_2 1_555 1_555
C5_2 C6_2 1_555 1_555
C8_2 N4_2 1_555 1_555
N2_2 N3_2 1_555 1_555
C17_2 C18_2 1_555 1_555
C29_2 C30_2 1_555 1_555
C36_2 N10_2 1_555 1_555
N8_2 N9_2 1_555 1_555
N10_2 Ag3_2 1_555 1_555
C56_2 N17_2 1_555 1_555
N15_2 N16_2 1_555 1_555
H57_2 C70_2 1_555 1_555
C71_2 C70_2 1_555 1_555
H58_2 C71_2 1_555 1_555
C72_2 C71_2 1_555 1_555
H59_2 C72_2 1_555 1_555
C32_3 C33_3 1_555 1_555
C33_3 H26_3 1_555 1_555
N9_3 C32_3 1_555 1_555
H30_3 N9_3 1_555 1_555
N10_3 C32_3 1_555 1_555
Ag5 N8_3 1_555 1_555
H37_3 C46_3 1_555 1_555
C47_3 C46_3 1_555 1_555
H38_3 C47_3 1_555 1_555
C48_3 C47_3 1_555 1_555
H39_3 C48_3 1_555 1_555
N8_3 N9_3 1_555 1_555
N10_3 Ag5 1_555 1_555
H17_2 C22_2 1_555 1_555
C23_2 C22_2 1_555 1_555
H18_2 C23_2 1_555 1_555
C24_2 C23_2 1_555 1_555
H19_2 C24_2 1_555 1_555
H47_2 C58_2 1_555 1_555
C59_2 C58_2 1_555 1_555
H48_2 C59_2 1_555 1_555
C60_2 C59_2 1_555 1_555
H49_2 C60_2 1_555 1_555
Ag4_3 N2_3 1_555 1_555
C1_3 C2_3 1_555 1_555
C2_3 H1_3 1_555 1_555
C3_3 C2_3 1_555 1_555
H2_3 C3_3 1_555 1_555
C4_3 C3_3 1_555 1_555
C5_3 C4_3 1_555 1_555
H3_3 C5_3 1_555 1_555
C6_3 C1_3 1_555 1_555
H4_3 C6_3 1_555 1_555
C7_3 C4_3 1_555 1_555
H5_3 C7_3 1_555 1_555
C8_3 C9_3 1_555 1_555
C9_3 H6_3 1_555 1_555
C10_2 C9_3 1_555 1_555
H7_2 C10_2 1_555 1_555
C11_2 C10_2 1_555 1_555
H8_2 C11_2 1_555 1_555
C12_2 C11_2 1_555 1_555
H9_2 C12_2 1_555 1_555
N1_3 C1_3 1_555 1_555
N2_3 C7_3 1_555 1_555
N3_3 C8_3 1_555 1_555
H10_3 N3_3 1_555 1_555
N4_3 Ag4_3 1_555 1_555
C13_3 N1_3 1_555 1_555
C14_3 C13_3 1_555 1_555
H11_3 C14_3 1_555 1_555
C15_3 C14_3 1_555 1_555
H12_3 C15_3 1_555 1_555
C16_3 C15_3 1_555 1_555
C17_3 C16_3 1_555 1_555
H13_3 C17_3 1_555 1_555
C18_3 C13_3 1_555 1_555
H14_3 C18_3 1_555 1_555
C19_3 C16_3 1_555 1_555
H15_3 C19_3 1_555 1_555
C20_3 C21_3 1_555 1_555
C21_3 H16_3 1_555 1_555
N5_3 C19_3 1_555 1_555
N6_3 C20_3 1_555 1_555
H20_3 N6_3 1_555 1_555
N7_3 C20_3 1_555 1_555
C25_3 N1_3 1_555 1_555
C26_3 C25_3 1_555 1_555
H21_3 C26_3 1_555 1_555
C27_3 C26_3 1_555 1_555
H22_3 C27_3 1_555 1_555
C28_3 C27_3 1_555 1_555
C29_3 C28_3 1_555 1_555
H23_3 C29_3 1_555 1_555
C30_3 C25_3 1_555 1_555
H24_3 C30_3 1_555 1_555
C31_3 C28_3 1_555 1_555
Ag2_4 N5_3 1_555 1_555
C37_3 C38_3 1_555 1_555
C38_3 H31_3 1_555 1_555
C39_3 C38_3 1_555 1_555
H32_3 C39_3 1_555 1_555
C40_3 C39_3 1_555 1_555
C41_3 C40_3 1_555 1_555
H33_3 C41_3 1_555 1_555
C42_3 C37_3 1_555 1_555
H34_3 C42_3 1_555 1_555
C43_3 C40_3 1_555 1_555
H35_3 C43_3 1_555 1_555
C44_3 C45_3 1_555 1_555
C45_3 H36_3 1_555 1_555
N11_3 C37_3 1_555 1_555
N21_2 C43_3 1_555 1_555
N13_3 C44_3 1_555 1_555
H40_3 N13_3 1_555 1_555
N23_2 C44_3 1_555 1_555
C49_3 N11_3 1_555 1_555
C50_3 C49_3 1_555 1_555
H41_3 C50_3 1_555 1_555
C51_3 C50_3 1_555 1_555
H42_3 C51_3 1_555 1_555
C52_3 C51_3 1_555 1_555
C53_3 C52_3 1_555 1_555
H43_3 C53_3 1_555 1_555
C54_3 C49_3 1_555 1_555
H44_3 C54_3 1_555 1_555
C55_3 C52_3 1_555 1_555
H45_3 C55_3 1_555 1_555
C56_3 C57_3 1_555 1_555
C57_3 H46_3 1_555 1_555
N15_3 Ag2_4 1_555 1_555
N16_3 C56_3 1_555 1_555
H50_3 N16_3 1_555 1_555
N17_3 Ag2_4 1_555 1_555
C61_3 N11_3 1_555 1_555
C62_3 C61_3 1_555 1_555
H51_3 C62_3 1_555 1_555
C63_3 C62_3 1_555 1_555
H52_3 C63_3 1_555 1_555
C64_3 C63_3 1_555 1_555
C65_3 C64_3 1_555 1_555
H53_3 C65_3 1_555 1_555
C66_3 C61_3 1_555 1_555
H54_3 C66_3 1_555 1_555
C67_3 C64_3 1_555 1_555
H55_3 C67_3 1_555 1_555
C68_3 C69_3 1_555 1_555
C69_3 H56_3 1_555 1_555
N22 C67_3 1_555 1_555
N19_3 C68_3 1_555 1_555
H60_3 N19_3 1_555 1_555
N24 C68_3 1_555 1_555
C5_3 C6_3 1_555 1_555
C8_3 N4_3 1_555 1_555
C12_2 N4_3 1_555 1_555
N2_3 N3_3 1_555 1_555
C17_3 C18_3 1_555 1_555
N5_3 N6_3 1_555 1_555
N7_3 Ag2_4 1_555 1_555
C29_3 C30_3 1_555 1_555
C41_3 C42_3 1_555 1_555
N21_2 N13_3 1_555 1_555
C53_3 C54_3 1_555 1_555
C55_3 N15_3 1_555 1_555
C56_3 N17_3 1_555 1_555
N15_3 N16_3 1_555 1_555
C65_3 C66_3 1_555 1_555
N22 N19_3 1_555 1_555
C1_4 C2_4 1_555 1_555
C2_4 H1_4 1_555 1_555
C3_4 C2_4 1_555 1_555
H2_4 C3_4 1_555 1_555
C4_4 C3_4 1_555 1_555
C5_4 C4_4 1_555 1_555
H3_4 C5_4 1_555 1_555
C6_4 C1_4 1_555 1_555
H4_4 C6_4 1_555 1_555
C7_4 C4_4 1_555 1_555
N1_4 C1_4 1_555 1_555
C13_4 N1_4 1_555 1_555
C14_4 C13_4 1_555 1_555
H11_4 C14_4 1_555 1_555
C15_4 C14_4 1_555 1_555
H12_4 C15_4 1_555 1_555
C16_4 C15_4 1_555 1_555
C17_4 C16_4 1_555 1_555
H13_4 C17_4 1_555 1_555
C18_4 C13_4 1_555 1_555
H14_4 C18_4 1_555 1_555
C19_4 C16_4 1_555 1_555
C25_4 N1_4 1_555 1_555
C26_4 C25_4 1_555 1_555
H21_4 C26_4 1_555 1_555
C27_4 C26_4 1_555 1_555
H22_4 C27_4 1_555 1_555
C28_4 C27_4 1_555 1_555
C29_4 C28_4 1_555 1_555
H23_4 C29_4 1_555 1_555
C30_4 C25_4 1_555 1_555
H24_4 C30_4 1_555 1_555
C31_4 C28_4 1_555 1_555
C56_4 C57_4 1_555 1_555
C57_4 H46_4 1_555 1_555
C58_3 C57_4 1_555 1_555
H47_3 C58_3 1_555 1_555
C59_3 C58_3 1_555 1_555
H48_3 C59_3 1_555 1_555
C60_3 C59_3 1_555 1_555
H49_3 C60_3 1_555 1_555
N15_4 Ag2_5 1_555 1_555
N16_4 C56_4 1_555 1_555
H50_4 N16_4 1_555 1_555
N17_4 Ag2_5 1_555 1_555
C5_4 C6_4 1_555 1_555
C17_4 C18_4 1_555 1_555
C29_4 C30_4 1_555 1_555
C56_4 N17_4 1_555 1_555
C60_3 N17_4 1_555 1_555
N15_4 N16_4 1_555 1_555
Ag4_2 N2_4 1_555 1_555
C8_4 C9_4 1_555 1_555
C9_4 H6_4 1_555 1_555
C10_3 C9_4 1_555 1_555
H7_3 C10_3 1_555 1_555
C11_3 C10_3 1_555 1_555
H8_3 C11_3 1_555 1_555
C12_3 C11_3 1_555 1_555
H9_3 C12_3 1_555 1_555
N3_4 C8_4 1_555 1_555
H10_4 N3_4 1_555 1_555
N4_4 Ag4_2 1_555 1_555
C8_4 N4_4 1_555 1_555
C12_3 N4_4 1_555 1_555
N2_4 N3_4 1_555 1_555
C32_4 C33_4 1_555 1_555
C33_4 H26_4 1_555 1_555
C34_3 C33_4 1_555 1_555
H27_3 C34_3 1_555 1_555
C35_3 C34_3 1_555 1_555
H28_3 C35_3 1_555 1_555
C36_3 C35_3 1_555 1_555
H29_3 C36_3 1_555 1_555
N9_4 C32_4 1_555 1_555
H30_4 N9_4 1_555 1_555
N10_4 C32_4 1_555 1_555
Ag5_4 N8_4 1_555 1_555
C36_3 N10_4 1_555 1_555
N8_4 N9_4 1_555 1_555
N10_4 Ag5_4 1_555 1_555
C20_4 C21_4 1_555 1_555
C21_4 H16_4 1_555 1_555
C22_3 C21_4 1_555 1_555
H17_3 C22_3 1_555 1_555
C23_3 C22_3 1_555 1_555
H18_3 C23_3 1_555 1_555
C24_3 C23_3 1_555 1_555
H19_3 C24_3 1_555 1_555
N6_4 C20_4 1_555 1_555
H20_4 N6_4 1_555 1_555
N7_4 C20_4 1_555 1_555
Ag2_6 N5_4 1_555 1_555
C37_4 C38_4 1_555 1_555
C38_4 H31_4 1_555 1_555
C39_4 C38_4 1_555 1_555
H32_4 C39_4 1_555 1_555
C40_4 C39_4 1_555 1_555
C41_4 C40_4 1_555 1_555
H33_4 C41_4 1_555 1_555
C42_4 C37_4 1_555 1_555
H34_4 C42_4 1_555 1_555
C43_4 C40_4 1_555 1_555
N11_4 C37_4 1_555 1_555
C49_4 N11_4 1_555 1_555
C50_4 C49_4 1_555 1_555
H41_4 C50_4 1_555 1_555
C51_4 C50_4 1_555 1_555
H42_4 C51_4 1_555 1_555
C52_4 C51_4 1_555 1_555
C53_4 C52_4 1_555 1_555
H43_4 C53_4 1_555 1_555
C54_4 C49_4 1_555 1_555
H44_4 C54_4 1_555 1_555
C55_4 C52_4 1_555 1_555
C61_4 N11_4 1_555 1_555
C62_4 C61_4 1_555 1_555
H51_4 C62_4 1_555 1_555
C63_4 C62_4 1_555 1_555
H52_4 C63_4 1_555 1_555
C64_4 C63_4 1_555 1_555
C65_4 C64_4 1_555 1_555
H53_4 C65_4 1_555 1_555
C66_4 C61_4 1_555 1_555
H54_4 C66_4 1_555 1_555
C67_4 C64_4 1_555 1_555
H55_4 C67_4 1_555 1_555
C68_4 C69_4 1_555 1_555
C69_4 H56_4 1_555 1_555
C70_3 C69_4 1_555 1_555
H57_3 C70_3 1_555 1_555
C71_3 C70_3 1_555 1_555
H58_3 C71_3 1_555 1_555
C72_3 C71_3 1_555 1_555
H59_3 C72_3 1_555 1_555
N22_2 C67_4 1_555 1_555
N19_4 C68_4 1_555 1_555
H60_4 N19_4 1_555 1_555
N24_2 C68_4 1_555 1_555
C24_3 N7_4 1_555 1_555
N5_4 N6_4 1_555 1_555
N7_4 Ag2_6 1_555 1_555
C41_4 C42_4 1_555 1_555
C53_4 C54_4 1_555 1_555
C65_4 C66_4 1_555 1_555
C72_3 N24_2 1_555 1_555
N22_2 N19_4 1_555 1_555
C44_4 C45_4 1_555 1_555
C45_4 H36_4 1_555 1_555
N13_4 C44_4 1_555 1_555
H40_4 N13_4 1_555 1_555
N23 C44_4 1_555 1_555
N21 N13_4 1_555 1_555
H7_4 C10_4 1_555 1_555
C11_4 C10_4 1_555 1_555
H8_4 C11_4 1_555 1_555
C12_4 C11_4 1_555 1_555
H9_4 C12_4 1_555 1_555
H57_4 C70_4 1_555 1_555
C71_4 C70_4 1_555 1_555
H58_4 C71_4 1_555 1_555
C72_4 C71_4 1_555 1_555
H59_4 C72_4 1_555 1_555
H17_4 C22_4 1_555 1_555
C23_4 C22_4 1_555 1_555
H18_4 C23_4 1_555 1_555
C24_4 C23_4 1_555 1_555
H19_4 C24_4 1_555 1_555
H47_4 C58_4 1_555 1_555
C59_4 C58_4 1_555 1_555
H48_4 C59_4 1_555 1_555
C60_4 C59_4 1_555 1_555
H49_4 C60_4 1_555 1_555
H27_4 C34_4 1_555 1_555
C35_4 C34_4 1_555 1_555
H28_4 C35_4 1_555 1_555
C36_4 C35_4 1_555 1_555
H29_4 C36_4 1_555 1_555
H37_4 C46_4 1_555 1_555
C47_4 C46_4 1_555 1_555
H38_4 C47_4 1_555 1_555
C48_4 C47_4 1_555 1_555
H39_4 C48_4 1_555 1_555
Cl1 O1 1_555 1_555
O2 Cl1 1_555 1_555
O3 Cl1_2 1_555 1_555
O4 Cl1_2 1_555 1_555
Cl1_3 O1_2 1_555 1_555
O2_2 Cl1_3 1_555 1_555
O3_2 Cl1_3 1_555 1_555
O4_2 Cl1_3 1_555 1_555
O3_3 Cl1_4 1_555 1_555
O4_3 Cl1_4 1_555 1_555
Cl1_5 O1_3 1_555 1_555
O2_3 Cl1_5 1_555 1_555
Cl1_6 O1_4 1_555 1_555
O2_4 Cl1_6 1_555 1_555
O3_4 Cl1_6 1_555 1_555
O4_4 Cl1_6 1_555 1_555
Cl1_7 O1_5 1_555 1_555
O2_5 Cl1_7 1_555 1_555
O3_5 Cl1_8 1_555 1_555
O4_5 Cl1_8 1_555 1_555
Cl1_9 O1_6 1_555 1_555
O2_6 Cl1_9 1_555 1_555
O3_6 Cl1_9 1_555 1_555
O4_6 Cl1_9 1_555 1_555
O3_7 Cl1_10 1_555 1_555
O4_7 Cl1_10 1_555 1_555
Cl1_11 O1_7 1_555 1_555
O2_7 Cl1_11 1_555 1_555
Cl1_12 O1_8 1_555 1_555
O2_8 Cl1_12 1_555 1_555
O3_8 Cl1_12 1_555 1_555
O4_8 Cl1_12 1_555 1_555
Cl1_13 O1_9 1_555 1_555
O2_9 Cl1_13 1_555 1_555
O3_9 Cl1_14 1_555 1_555
O4_9 Cl1_14 1_555 1_555
Cl1_15 O1_10 1_555 1_555
O2_10 Cl1_15 1_555 1_555
O3_10 Cl1_15 1_555 1_555
O4_10 Cl1_15 1_555 1_555
O3_11 Cl1_16 1_555 1_555
O4_11 Cl1_16 1_555 1_555
Cl1_17 O1_11 1_555 1_555
O2_11 Cl1_17 1_555 1_555
Cl1_18 O1_12 1_555 1_555
O2_12 Cl1_18 1_555 1_555
O3_12 Cl1_18 1_555 1_555
O4_12 Cl1_18 1_555 1_555

#END
