
###############################################################################
#
# This file contains modified crystal structure data generated from the
# MOF subset of the Cambridge Structural Database (CSD) v543 
# hosted by the Cambridge Crystallographic Data Centre (CCDC).
#
# This work is licensed under the Creative Commons
# Attribution-NonCommercial-ShareAlike 4.0 International License.
# To view a copy of this license, visit
# http://creativecommons.org/licenses/by-nc-sa/4.0/
# or send a letter to
# Creative Commons, PO Box 1866, Mountain View, CA 94042, USA.
#
# CIF created using the CSD Python API on 29 September 2022
# The structure has been converted into the P1 space group
# The structure has a 3D framework
# The original CSD entry KEPMUQ02 is in the cubic crystal system
# The original CSD entry KEPMUQ02 is in a Sohncke space group
# The framework has been calculated to contain at least 10.0% void space
# The void calculation uses a probe of radius 1.32A, grid spacing 0.4
# The framework is charged, counterions have been retained in the structure
#
###############################################################################

data_KEPMUQ02
_chemical_formula_moiety         '(C288 H240 Ag14 Cl18 N80 O48 2+)n'
_symmetry_cell_setting           triclinic
_symmetry_space_group_name_H-M   'P 1'
_symmetry_Int_Tables_number      1
_space_group_name_Hall           'P 1'
loop_
_symmetry_equiv_pos_site_id
_symmetry_equiv_pos_as_xyz
1 x,y,z
_cell_length_a                   21.3474(4)
_cell_length_b                   21.3474(4)
_cell_length_c                   21.3474(4)
_cell_angle_alpha                90
_cell_angle_beta                 90
_cell_angle_gamma                90
_cell_volume                     9728.26
loop_
_atom_site_label
_atom_site_type_symbol
_atom_site_fract_x
_atom_site_fract_y
_atom_site_fract_z
C34 C 0.0231(5) 0.6725(5) 0.6102(6)
H27 H 0.0361 0.7044 0.5827
C35 C 0.0603(5) 0.6579(5) 0.6649(7)
H28 H 0.0973 0.6799 0.6741
C36 C 0.0395(4) 0.6115(5) 0.7021(5)
H29 H 0.0638 0.6004 0.7371
Ag1 Ag 0.7500 0.04365(4) -0.0000
H5 H 0.8633 0.2037 0.0170
C8 C 0.8593(3) 0.0487(4) 0.0928(4)
C9 C 0.9017(5) 0.0311(5) 0.1400(4)
H6 H 0.9370 0.0558 0.1491
N2 N 0.8339(2) 0.1201(3) 0.0111(3)
N3 N 0.8685(3) 0.1034(3) 0.0634(3)
H10 H 0.8969 0.1290 0.0775
N4 N 0.8083(3) 0.0152(3) 0.0795(3)
H35 H 0.1367 0.2963 0.0170
C44 C 0.1407(3) 0.4513(4) 0.0928(4)
C45 C 0.0983(5) 0.4689(5) 0.1400(4)
H36 H 0.0630 0.4442 0.1491
C46 C 0.1102(6) 0.5231(5) 0.1725(5)
H37 H 0.0827 0.5361 0.2044
C47 C 0.1649(7) 0.5603(5) 0.1579(5)
H38 H 0.1741 0.5973 0.1799
C48 C 0.2021(5) 0.5395(4) 0.1115(5)
H39 H 0.2371 0.5638 0.1004
N12 N 0.1661(2) 0.3799(3) 0.0111(3)
N13 N 0.1315(3) 0.3966(3) 0.0634(3)
H40 H 0.1031 0.3710 0.0775
N14 N 0.1917(3) 0.4848(3) 0.0795(3)
Ag4 Ag 0.2500 0.45635(4) -0.0000
Ag1_2 Ag 0.7500 0.04365(4) 1.0000
C1 C 0.7508(3) 0.2520(3) 0.8306(3)
C2 C 0.7553(3) 0.1869(3) 0.8388(3)
H1 H 0.7391 0.1600 0.8079
C3 C 0.7830(3) 0.1618(3) 0.8913(3)
H2 H 0.7849 0.1180 0.8961
C4 C 0.8081(3) 0.2002(3) 0.9372(3)
C5 C 0.8039(3) 0.2639(3) 0.9288(3)
H3 H 0.8215 0.2905 0.9591
C6 C 0.7752(3) 0.2896(3) 0.8781(3)
H4 H 0.7717 0.3334 0.8749
C7 C 0.8387(3) 0.1761(3) 0.9931(3)
N1 N 0.7226(3) 0.2774(3) 0.7774(3)
C13 C 0.6694(3) 0.2492(3) 0.7520(3)
C14 C 0.6612(3) 0.2447(3) 0.6869(3)
H11 H 0.6921 0.2609 0.6600
C15 C 0.6087(3) 0.2170(3) 0.6618(3)
H12 H 0.6039 0.2151 0.6180
C16 C 0.5628(3) 0.1919(3) 0.7002(3)
C17 C 0.5712(3) 0.1961(3) 0.7639(3)
H13 H 0.5409 0.1785 0.7905
C18 C 0.6219(3) 0.2248(3) 0.7896(3)
H14 H 0.6251 0.2283 0.8334
C19 C 0.5069(3) 0.1613(3) 0.6761(3)
H15 H 0.4830 0.1367 0.7037
C20 C 0.4072(4) 0.1407(3) 0.5487(4)
C21 C 0.3600(4) 0.0983(5) 0.5311(5)
H16 H 0.3509 0.0630 0.5558
C22 C 0.3275(5) 0.1102(6) 0.4769(5)
H17 H 0.2956 0.0827 0.4639
C23 C 0.3421(5) 0.1649(7) 0.4397(5)
H18 H 0.3201 0.1741 0.4027
C24 C 0.3885(5) 0.2021(5) 0.4605(4)
H19 H 0.3996 0.2371 0.4362
N5 N 0.4889(3) 0.1661(2) 0.6201(3)
N6 N 0.4366(3) 0.1315(3) 0.6034(3)
H20 H 0.4225 0.1031 0.6290
N7 N 0.4205(3) 0.1917(3) 0.5152(3)
C25 C 0.7480(3) 0.3306(3) 0.7492(3)
C26 C 0.8131(3) 0.3388(3) 0.7447(3)
H21 H 0.8400 0.3079 0.7609
C27 C 0.8382(3) 0.3913(3) 0.7170(3)
H22 H 0.8820 0.3961 0.7151
C28 C 0.7998(3) 0.4372(3) 0.6919(3)
C29 C 0.7361(3) 0.4288(3) 0.6961(3)
H23 H 0.7095 0.4591 0.6785
C30 C 0.7104(3) 0.3781(3) 0.7248(3)
H24 H 0.6666 0.3749 0.7283
C31 C 0.8239(3) 0.4931(3) 0.6613(3)
H25 H 0.7963 0.5170 0.6367
C32 C 0.9513(4) 0.5928(4) 0.6407(3)
C33 C 0.9689(5) 0.6400(4) 0.5983(5)
H26 H 0.9442 0.6491 0.5630
N8 N 0.8799(3) 0.5111(3) 0.6661(2)
N9 N 0.8966(3) 0.5634(3) 0.6315(3)
H30 H 0.8710 0.5775 0.6031
N10 N 0.9848(3) 0.5795(3) 0.6917(3)
Ag2 Ag 0.5000 0.2500 0.54365(4)
Ag3 Ag 0.95635(4) 0.5000 0.7500
C37 C 0.2492(3) 0.2480(3) 0.8306(3)
C38 C 0.2447(3) 0.3131(3) 0.8388(3)
H31 H 0.2609 0.3400 0.8079
C39 C 0.2170(3) 0.3382(3) 0.8913(3)
H32 H 0.2151 0.3820 0.8961
C40 C 0.1919(3) 0.2998(3) 0.9372(3)
C41 C 0.1961(3) 0.2361(3) 0.9288(3)
H33 H 0.1785 0.2095 0.9591
C42 C 0.2248(3) 0.2104(3) 0.8781(3)
H34 H 0.2283 0.1666 0.8749
C43 C 0.1613(3) 0.3239(3) 0.9931(3)
N11 N 0.2774(3) 0.2226(3) 0.7774(3)
C49 C 0.3306(3) 0.2508(3) 0.7520(3)
C50 C 0.3388(3) 0.2553(3) 0.6869(3)
H41 H 0.3079 0.2391 0.6600
C51 C 0.3913(3) 0.2830(3) 0.6618(3)
H42 H 0.3961 0.2849 0.6180
C52 C 0.4372(3) 0.3081(3) 0.7002(3)
C53 C 0.4288(3) 0.3039(3) 0.7639(3)
H43 H 0.4591 0.3215 0.7905
C54 C 0.3781(3) 0.2752(3) 0.7896(3)
H44 H 0.3749 0.2717 0.8334
C55 C 0.4931(3) 0.3387(3) 0.6761(3)
H45 H 0.5170 0.3633 0.7037
C56 C 0.5928(4) 0.3593(3) 0.5487(4)
C57 C 0.6400(4) 0.4017(5) 0.5311(5)
H46 H 0.6491 0.4370 0.5558
C58 C 0.6725(5) 0.3898(6) 0.4769(5)
H47 H 0.7044 0.4173 0.4639
C59 C 0.6579(5) 0.3351(7) 0.4397(5)
H48 H 0.6799 0.3259 0.4027
C60 C 0.6115(5) 0.2979(5) 0.4605(4)
H49 H 0.6004 0.2629 0.4362
N15 N 0.5111(3) 0.3339(2) 0.6201(3)
N16 N 0.5634(3) 0.3685(3) 0.6034(3)
H50 H 0.5775 0.3969 0.6290
N17 N 0.5795(3) 0.3083(3) 0.5152(3)
C61 C 0.2520(3) 0.1694(3) 0.7492(3)
C62 C 0.1869(3) 0.1612(3) 0.7447(3)
H51 H 0.1600 0.1921 0.7609
C63 C 0.1618(3) 0.1087(3) 0.7170(3)
H52 H 0.1180 0.1039 0.7151
C64 C 0.2002(3) 0.0628(3) 0.6919(3)
C65 C 0.2639(3) 0.0712(3) 0.6961(3)
H53 H 0.2905 0.0409 0.6785
C66 C 0.2896(3) 0.1219(3) 0.7248(3)
H54 H 0.3334 0.1251 0.7283
C67 C 0.1761(3) 0.0069(3) 0.6613(3)
Ag4_2 Ag 0.2500 0.45635(4) 1.0000
Ag5 Ag 0.04365(4) -0.0000 0.7500
N21 N 0.6661(2) 0.1201(3) 0.9889(3)
N22 N 0.8799(3) 0.4889(3) 0.8339(2)
N23 N 0.6917(3) 0.0152(3) 0.9205(3)
N24 N 0.9848(3) 0.4205(3) 0.8083(3)
H55 H 0.2037 0.9830 0.6367
C68 C 0.0487(4) 0.9072(4) 0.6407(3)
C69 C 0.0311(5) 0.8600(4) 0.5983(5)
H56 H 0.0558 0.8509 0.5630
N18 N 0.1201(3) 0.9889(3) 0.6661(2)
N19 N 0.1034(3) 0.9366(3) 0.6315(3)
H60 H 0.1290 0.9225 0.6031
N20 N 0.0152(3) 0.9205(3) 0.6917(3)
Ag5_2 Ag 0.04365(4) 1.0000 0.7500
H55_2 H 0.2963 0.0170 0.1367
C68_2 C 0.4513(4) 0.0928(4) 0.1407(3)
C69_2 C 0.4689(5) 0.1400(4) 0.0983(5)
H56_2 H 0.4442 0.1491 0.0630
C70 C 0.5231(5) 0.1725(5) 0.1102(6)
H57 H 0.5361 0.2044 0.0827
C71 C 0.5603(5) 0.1579(5) 0.1649(7)
H58 H 0.5973 0.1799 0.1741
C72 C 0.5395(4) 0.1115(5) 0.2021(5)
H59 H 0.5638 0.1004 0.2371
N18_2 N 0.3799(3) 0.0111(3) 0.1661(2)
N19_2 N 0.3966(3) 0.0634(3) 0.1315(3)
H60_2 H 0.3710 0.0775 0.1031
N20_2 N 0.4848(3) 0.0795(3) 0.1917(3)
Ag5_3 Ag 0.45635(4) 0.0000 0.2500
H15_2 H 0.0170 0.8633 0.2037
C20_2 C 0.0928(4) 0.8593(3) 0.0487(4)
C21_2 C 0.1400(4) 0.9017(5) 0.0311(5)
H16_2 H 0.1491 0.9370 0.0558
N5_2 N 0.0111(3) 0.8339(2) 0.1201(3)
N6_2 N 0.0634(3) 0.8685(3) 0.1034(3)
H20_2 H 0.0775 0.8969 0.1290
N7_2 N 0.0795(3) 0.8083(3) 0.0152(3)
Ag2_2 Ag -0.0000 0.7500 0.04365(4)
C37_2 C 0.2508(3) 0.7520(3) 0.3306(3)
C38_2 C 0.2553(3) 0.6869(3) 0.3388(3)
H31_2 H 0.2391 0.6600 0.3079
C39_2 C 0.2830(3) 0.6618(3) 0.3913(3)
H32_2 H 0.2849 0.6180 0.3961
C40_2 C 0.3081(3) 0.7002(3) 0.4372(3)
C41_2 C 0.3039(3) 0.7639(3) 0.4288(3)
H33_2 H 0.3215 0.7905 0.4591
C42_2 C 0.2752(3) 0.7896(3) 0.3781(3)
H34_2 H 0.2717 0.8334 0.3749
C43_2 C 0.3387(3) 0.6761(3) 0.4931(3)
H35_2 H 0.3633 0.7037 0.5170
C44_2 C 0.3593(3) 0.5487(4) 0.5928(4)
C45_2 C 0.4017(5) 0.5311(5) 0.6400(4)
H36_2 H 0.4370 0.5558 0.6491
C46_2 C 0.3898(6) 0.4769(5) 0.6725(5)
H37_2 H 0.4173 0.4639 0.7044
C47_2 C 0.3351(7) 0.4397(5) 0.6579(5)
H38_2 H 0.3259 0.4027 0.6799
C48_2 C 0.2979(5) 0.4605(4) 0.6115(5)
H39_2 H 0.2629 0.4362 0.6004
N11_2 N 0.2226(3) 0.7774(3) 0.2774(3)
N12_2 N 0.3339(2) 0.6201(3) 0.5111(3)
N13_2 N 0.3685(3) 0.6034(3) 0.5634(3)
H40_2 H 0.3969 0.6290 0.5775
N14_2 N 0.3083(3) 0.5152(3) 0.5795(3)
C49_2 C 0.1694(3) 0.7492(3) 0.2520(3)
C50_2 C 0.1612(3) 0.7447(3) 0.1869(3)
H41_2 H 0.1921 0.7609 0.1600
C51_2 C 0.1087(3) 0.7170(3) 0.1618(3)
H42_2 H 0.1039 0.7151 0.1180
C52_2 C 0.0628(3) 0.6919(3) 0.2002(3)
C53_2 C 0.0712(3) 0.6961(3) 0.2639(3)
H43_2 H 0.0409 0.6785 0.2905
C54_2 C 0.1219(3) 0.7248(3) 0.2896(3)
H44_2 H 0.1251 0.7283 0.3334
C55_2 C 0.0069(3) 0.6613(3) 0.1761(3)
C61_2 C 0.2480(3) 0.8306(3) 0.2492(3)
C62_2 C 0.3131(3) 0.8388(3) 0.2447(3)
H51_2 H 0.3400 0.8079 0.2609
C63_2 C 0.3382(3) 0.8913(3) 0.2170(3)
H52_2 H 0.3820 0.8961 0.2151
C64_2 C 0.2998(3) 0.9372(3) 0.1919(3)
C65_2 C 0.2361(3) 0.9288(3) 0.1961(3)
H53_2 H 0.2095 0.9591 0.1785
C66_2 C 0.2104(3) 0.8781(3) 0.2248(3)
H54_2 H 0.1666 0.8749 0.2283
C67_2 C 0.3239(3) 0.9931(3) 0.1613(3)
Ag4_3 Ag 0.2500 0.54365(4) 0.5000
Ag5_4 Ag 0.45635(4) 1.0000 0.2500
C10 C 0.6102(6) 0.0231(5) 0.6725(5)
H7 H 0.5827 0.0361 0.7044
C11 C 0.6649(7) 0.0603(5) 0.6579(5)
H8 H 0.6741 0.0973 0.6799
C12 C 0.7021(5) 0.0395(4) 0.6115(5)
H9 H 0.7371 0.0638 0.6004
Ag1_3 Ag 0.7500 0.95635(4) 0.5000
C1_2 C 0.7492(3) 0.7480(3) 0.3306(3)
C2_2 C 0.7447(3) 0.8131(3) 0.3388(3)
H1_2 H 0.7609 0.8400 0.3079
C3_2 C 0.7170(3) 0.8382(3) 0.3913(3)
H2_2 H 0.7151 0.8820 0.3961
C4_2 C 0.6919(3) 0.7998(3) 0.4372(3)
C5_2 C 0.6961(3) 0.7361(3) 0.4288(3)
H3_2 H 0.6785 0.7095 0.4591
C6_2 C 0.7248(3) 0.7104(3) 0.3781(3)
H4_2 H 0.7283 0.6666 0.3749
C7_2 C 0.6613(3) 0.8239(3) 0.4931(3)
H5_2 H 0.6367 0.7963 0.5170
C8_2 C 0.6407(3) 0.9513(4) 0.5928(4)
C9_2 C 0.5983(5) 0.9689(5) 0.6400(4)
H6_2 H 0.5630 0.9442 0.6491
N1_2 N 0.7774(3) 0.7226(3) 0.2774(3)
N2_2 N 0.6661(2) 0.8799(3) 0.5111(3)
N3_2 N 0.6315(3) 0.8966(3) 0.5634(3)
H10_2 H 0.6031 0.8710 0.5775
N4_2 N 0.6917(3) 0.9848(3) 0.5795(3)
C13_2 C 0.8306(3) 0.7508(3) 0.2520(3)
C14_2 C 0.8388(3) 0.7553(3) 0.1869(3)
H11_2 H 0.8079 0.7391 0.1600
C15_2 C 0.8913(3) 0.7830(3) 0.1618(3)
H12_2 H 0.8961 0.7849 0.1180
C16_2 C 0.9372(3) 0.8081(3) 0.2002(3)
C17_2 C 0.9288(3) 0.8039(3) 0.2639(3)
H13_2 H 0.9591 0.8215 0.2905
C18_2 C 0.8781(3) 0.7752(3) 0.2896(3)
H14_2 H 0.8749 0.7717 0.3334
C19_2 C 0.9931(3) 0.8387(3) 0.1761(3)
C25_2 C 0.7520(3) 0.6694(3) 0.2492(3)
C26_2 C 0.6869(3) 0.6612(3) 0.2447(3)
H21_2 H 0.6600 0.6921 0.2609
C27_2 C 0.6618(3) 0.6087(3) 0.2170(3)
H22_2 H 0.6180 0.6039 0.2151
C28_2 C 0.7002(3) 0.5628(3) 0.1919(3)
C29_2 C 0.7639(3) 0.5712(3) 0.1961(3)
H23_2 H 0.7905 0.5409 0.1785
C30_2 C 0.7896(3) 0.6219(3) 0.2248(3)
H24_2 H 0.8334 0.6251 0.2283
C31_2 C 0.6761(3) 0.5069(3) 0.1613(3)
H25_2 H 0.7037 0.4830 0.1367
C32_2 C 0.5487(4) 0.4072(4) 0.1407(3)
C33_2 C 0.5311(5) 0.3600(4) 0.0983(5)
H26_2 H 0.5558 0.3509 0.0630
C34_2 C 0.4769(5) 0.3275(5) 0.1102(6)
H27_2 H 0.4639 0.2956 0.0827
C35_2 C 0.4397(5) 0.3421(5) 0.1649(7)
H28_2 H 0.4027 0.3201 0.1741
C36_2 C 0.4605(4) 0.3885(5) 0.2021(5)
H29_2 H 0.4362 0.3996 0.2371
N8_2 N 0.6201(3) 0.4889(3) 0.1661(2)
N9_2 N 0.6034(3) 0.4366(3) 0.1315(3)
H30_2 H 0.6290 0.4225 0.1031
N10_2 N 0.5152(3) 0.4205(3) 0.1917(3)
Ag2_3 Ag 1.0000 0.7500 0.04365(4)
Ag3_2 Ag 0.54365(4) 0.5000 0.2500
H45_2 H 0.9830 0.6367 0.2037
C56_2 C 0.9072(4) 0.6407(3) 0.0487(4)
C57_2 C 0.8600(4) 0.5983(5) 0.0311(5)
H46_2 H 0.8509 0.5630 0.0558
N15_2 N 0.9889(3) 0.6661(2) 0.1201(3)
N16_2 N 0.9366(3) 0.6315(3) 0.1034(3)
H50_2 H 0.9225 0.6031 0.1290
N17_2 N 0.9205(3) 0.6917(3) 0.0152(3)
N21_2 N 0.8339(2) 0.8799(3) 0.4889(3)
N22_2 N 0.6201(3) 0.5111(3) 0.3339(2)
N23_2 N 0.8083(3) 0.9848(3) 0.4205(3)
N24_2 N 0.5152(3) 0.5795(3) 0.3083(3)
C70_2 C 0.0231(5) 0.3275(5) 0.8898(6)
H57_2 H 0.0361 0.2956 0.9173
C71_2 C 0.0603(5) 0.3421(5) 0.8351(7)
H58_2 H 0.0973 0.3201 0.8259
C72_2 C 0.0395(4) 0.3885(5) 0.7979(5)
H59_2 H 0.0638 0.3996 0.7629
H25_3 H 0.2037 0.0170 0.8633
C32_3 C 0.0487(4) 0.0928(4) 0.8593(3)
C33_3 C 0.0311(5) 0.1400(4) 0.9017(5)
H26_3 H 0.0558 0.1491 0.9370
N8_3 N 0.1201(3) 0.0111(3) 0.8339(2)
N9_3 N 0.1034(3) 0.0634(3) 0.8685(3)
H30_3 H 0.1290 0.0775 0.8969
N10_3 N 0.0152(3) 0.0795(3) 0.8083(3)
C46_3 C 0.8898(6) 0.0231(5) 0.3275(5)
H37_3 H 0.9173 0.0361 0.2956
C47_3 C 0.8351(7) 0.0603(5) 0.3421(5)
H38_3 H 0.8259 0.0973 0.3201
C48_3 C 0.7979(5) 0.0395(4) 0.3885(5)
H39_3 H 0.7629 0.0638 0.3996
C22_2 C 0.6725(5) 0.6102(6) 0.0231(5)
H17_2 H 0.7044 0.5827 0.0361
C23_2 C 0.6579(5) 0.6649(7) 0.0603(5)
H18_2 H 0.6799 0.6741 0.0973
C24_2 C 0.6115(5) 0.7021(5) 0.0395(4)
H19_2 H 0.6004 0.7371 0.0638
C58_2 C 0.3275(5) 0.8898(6) 0.0231(5)
H47_2 H 0.2956 0.9173 0.0361
C59_2 C 0.3421(5) 0.8351(7) 0.0603(5)
H48_2 H 0.3201 0.8259 0.0973
C60_2 C 0.3885(5) 0.7979(5) 0.0395(4)
H49_2 H 0.3996 0.7629 0.0638
C1_3 C 0.2492(3) 0.7520(3) 0.6694(3)
C2_3 C 0.2447(3) 0.6869(3) 0.6612(3)
H1_3 H 0.2609 0.6600 0.6921
C3_3 C 0.2170(3) 0.6618(3) 0.6087(3)
H2_3 H 0.2151 0.6180 0.6039
C4_3 C 0.1919(3) 0.7002(3) 0.5628(3)
C5_3 C 0.1961(3) 0.7639(3) 0.5712(3)
H3_3 H 0.1785 0.7905 0.5409
C6_3 C 0.2248(3) 0.7896(3) 0.6219(3)
H4_3 H 0.2283 0.8334 0.6251
C7_3 C 0.1613(3) 0.6761(3) 0.5069(3)
H5_3 H 0.1367 0.7037 0.4830
C8_3 C 0.1407(3) 0.5487(4) 0.4072(4)
C9_3 C 0.0983(5) 0.5311(5) 0.3600(4)
H6_3 H 0.0630 0.5558 0.3509
C10_2 C 0.1102(6) 0.4769(5) 0.3275(5)
H7_2 H 0.0827 0.4639 0.2956
C11_2 C 0.1649(7) 0.4397(5) 0.3421(5)
H8_2 H 0.1741 0.4027 0.3201
C12_2 C 0.2021(5) 0.4605(4) 0.3885(5)
H9_2 H 0.2371 0.4362 0.3996
N1_3 N 0.2774(3) 0.7774(3) 0.7226(3)
N2_3 N 0.1661(2) 0.6201(3) 0.4889(3)
N3_3 N 0.1315(3) 0.6034(3) 0.4366(3)
H10_3 H 0.1031 0.6290 0.4225
N4_3 N 0.1917(3) 0.5152(3) 0.4205(3)
C13_3 C 0.3306(3) 0.7492(3) 0.7480(3)
C14_3 C 0.3388(3) 0.7447(3) 0.8131(3)
H11_3 H 0.3079 0.7609 0.8400
C15_3 C 0.3913(3) 0.7170(3) 0.8382(3)
H12_3 H 0.3961 0.7151 0.8820
C16_3 C 0.4372(3) 0.6919(3) 0.7998(3)
C17_3 C 0.4288(3) 0.6961(3) 0.7361(3)
H13_3 H 0.4591 0.6785 0.7095
C18_3 C 0.3781(3) 0.7248(3) 0.7104(3)
H14_3 H 0.3749 0.7283 0.6666
C19_3 C 0.4931(3) 0.6613(3) 0.8239(3)
H15_3 H 0.5170 0.6367 0.7963
C20_3 C 0.5928(4) 0.6407(3) 0.9513(4)
C21_3 C 0.6400(4) 0.5983(5) 0.9689(5)
H16_3 H 0.6491 0.5630 0.9442
N5_3 N 0.5111(3) 0.6661(2) 0.8799(3)
N6_3 N 0.5634(3) 0.6315(3) 0.8966(3)
H20_3 H 0.5775 0.6031 0.8710
N7_3 N 0.5795(3) 0.6917(3) 0.9848(3)
C25_3 C 0.2520(3) 0.8306(3) 0.7508(3)
C26_3 C 0.1869(3) 0.8388(3) 0.7553(3)
H21_3 H 0.1600 0.8079 0.7391
C27_3 C 0.1618(3) 0.8913(3) 0.7830(3)
H22_3 H 0.1180 0.8961 0.7849
C28_3 C 0.2002(3) 0.9372(3) 0.8081(3)
C29_3 C 0.2639(3) 0.9288(3) 0.8039(3)
H23_3 H 0.2905 0.9591 0.8215
C30_3 C 0.2896(3) 0.8781(3) 0.7752(3)
H24_3 H 0.3334 0.8749 0.7717
C31_3 C 0.1761(3) 0.9931(3) 0.8387(3)
Ag2_4 Ag 0.5000 0.7500 0.95635(4)
C37_3 C 0.7508(3) 0.7480(3) 0.6694(3)
C38_3 C 0.7553(3) 0.8131(3) 0.6612(3)
H31_3 H 0.7391 0.8400 0.6921
C39_3 C 0.7830(3) 0.8382(3) 0.6087(3)
H32_3 H 0.7849 0.8820 0.6039
C40_3 C 0.8081(3) 0.7998(3) 0.5628(3)
C41_3 C 0.8039(3) 0.7361(3) 0.5712(3)
H33_3 H 0.8215 0.7095 0.5409
C42_3 C 0.7752(3) 0.7104(3) 0.6219(3)
H34_3 H 0.7717 0.6666 0.6251
C43_3 C 0.8387(3) 0.8239(3) 0.5069(3)
H35_3 H 0.8633 0.7963 0.4830
C44_3 C 0.8593(3) 0.9513(4) 0.4072(4)
C45_3 C 0.9017(5) 0.9689(5) 0.3600(4)
H36_3 H 0.9370 0.9442 0.3509
N11_3 N 0.7226(3) 0.7226(3) 0.7226(3)
N13_3 N 0.8685(3) 0.8966(3) 0.4366(3)
H40_3 H 0.8969 0.8710 0.4225
C49_3 C 0.6694(3) 0.7508(3) 0.7480(3)
C50_3 C 0.6612(3) 0.7553(3) 0.8131(3)
H41_3 H 0.6921 0.7391 0.8400
C51_3 C 0.6087(3) 0.7830(3) 0.8382(3)
H42_3 H 0.6039 0.7849 0.8820
C52_3 C 0.5628(3) 0.8081(3) 0.7998(3)
C53_3 C 0.5712(3) 0.8039(3) 0.7361(3)
H43_3 H 0.5409 0.8215 0.7095
C54_3 C 0.6219(3) 0.7752(3) 0.7104(3)
H44_3 H 0.6251 0.7717 0.6666
C55_3 C 0.5069(3) 0.8387(3) 0.8239(3)
H45_3 H 0.4830 0.8633 0.7963
C56_3 C 0.4072(4) 0.8593(3) 0.9513(4)
C57_3 C 0.3600(4) 0.9017(5) 0.9689(5)
H46_3 H 0.3509 0.9370 0.9442
N15_3 N 0.4889(3) 0.8339(2) 0.8799(3)
N16_3 N 0.4366(3) 0.8685(3) 0.8966(3)
H50_3 H 0.4225 0.8969 0.8710
N17_3 N 0.4205(3) 0.8083(3) 0.9848(3)
C61_3 C 0.7480(3) 0.6694(3) 0.7508(3)
C62_3 C 0.8131(3) 0.6612(3) 0.7553(3)
H51_3 H 0.8400 0.6921 0.7391
C63_3 C 0.8382(3) 0.6087(3) 0.7830(3)
H52_3 H 0.8820 0.6039 0.7849
C64_3 C 0.7998(3) 0.5628(3) 0.8081(3)
C65_3 C 0.7361(3) 0.5712(3) 0.8039(3)
H53_3 H 0.7095 0.5409 0.8215
C66_3 C 0.7104(3) 0.6219(3) 0.7752(3)
H54_3 H 0.6666 0.6251 0.7717
C67_3 C 0.8239(3) 0.5069(3) 0.8387(3)
H55_3 H 0.7963 0.4830 0.8633
C68_3 C 0.9513(4) 0.4072(4) 0.8593(3)
C69_3 C 0.9689(5) 0.3600(4) 0.9017(5)
H56_3 H 0.9442 0.3509 0.9370
N19_3 N 0.8966(3) 0.4366(3) 0.8685(3)
H60_3 H 0.8710 0.4225 0.8969
C1_4 C 0.2508(3) 0.2480(3) 0.1694(3)
C2_4 C 0.2553(3) 0.3131(3) 0.1612(3)
H1_4 H 0.2391 0.3400 0.1921
C3_4 C 0.2830(3) 0.3382(3) 0.1087(3)
H2_4 H 0.2849 0.3820 0.1039
C4_4 C 0.3081(3) 0.2998(3) 0.0628(3)
C5_4 C 0.3039(3) 0.2361(3) 0.0712(3)
H3_4 H 0.3215 0.2095 0.0409
C6_4 C 0.2752(3) 0.2104(3) 0.1219(3)
H4_4 H 0.2717 0.1666 0.1251
C7_4 C 0.3387(3) 0.3239(3) 0.0069(3)
N1_4 N 0.2226(3) 0.2226(3) 0.2226(3)
C13_4 C 0.1694(3) 0.2508(3) 0.2480(3)
C14_4 C 0.1612(3) 0.2553(3) 0.3131(3)
H11_4 H 0.1921 0.2391 0.3400
C15_4 C 0.1087(3) 0.2830(3) 0.3382(3)
H12_4 H 0.1039 0.2849 0.3820
C16_4 C 0.0628(3) 0.3081(3) 0.2998(3)
C17_4 C 0.0712(3) 0.3039(3) 0.2361(3)
H13_4 H 0.0409 0.3215 0.2095
C18_4 C 0.1219(3) 0.2752(3) 0.2104(3)
H14_4 H 0.1251 0.2717 0.1666
C19_4 C 0.0069(3) 0.3387(3) 0.3239(3)
C25_4 C 0.2480(3) 0.1694(3) 0.2508(3)
C26_4 C 0.3131(3) 0.1612(3) 0.2553(3)
H21_4 H 0.3400 0.1921 0.2391
C27_4 C 0.3382(3) 0.1087(3) 0.2830(3)
H22_4 H 0.3820 0.1039 0.2849
C28_4 C 0.2998(3) 0.0628(3) 0.3081(3)
C29_4 C 0.2361(3) 0.0712(3) 0.3039(3)
H23_4 H 0.2095 0.0409 0.3215
C30_4 C 0.2104(3) 0.1219(3) 0.2752(3)
H24_4 H 0.1666 0.1251 0.2717
C31_4 C 0.3239(3) 0.0069(3) 0.3387(3)
Ag2_5 Ag 0.0000 0.2500 0.45635(4)
H45_4 H 0.0170 0.1367 0.2963
C56_4 C 0.0928(4) 0.1407(3) 0.4513(4)
C57_4 C 0.1400(4) 0.0983(5) 0.4689(5)
H46_4 H 0.1491 0.0630 0.4442
C58_3 C 0.1725(5) 0.1102(6) 0.5231(5)
H47_3 H 0.2044 0.0827 0.5361
C59_3 C 0.1579(5) 0.1649(7) 0.5603(5)
H48_3 H 0.1799 0.1741 0.5973
C60_3 C 0.1115(5) 0.2021(5) 0.5395(4)
H49_3 H 0.1004 0.2371 0.5638
N15_4 N 0.0111(3) 0.1661(2) 0.3799(3)
N16_4 N 0.0634(3) 0.1315(3) 0.3966(3)
H50_4 H 0.0775 0.1031 0.3710
N17_4 N 0.0795(3) 0.1917(3) 0.4848(3)
H5_4 H 0.3633 0.2963 0.9830
C8_4 C 0.3593(3) 0.4513(4) 0.9072(4)
C9_4 C 0.4017(5) 0.4689(5) 0.8600(4)
H6_4 H 0.4370 0.4442 0.8509
C10_3 C 0.3898(6) 0.5231(5) 0.8275(5)
H7_3 H 0.4173 0.5361 0.7956
C11_3 C 0.3351(7) 0.5603(5) 0.8421(5)
H8_3 H 0.3259 0.5973 0.8201
C12_3 C 0.2979(5) 0.5395(4) 0.8885(5)
H9_3 H 0.2629 0.5638 0.8996
N2_4 N 0.3339(2) 0.3799(3) 0.9889(3)
N3_4 N 0.3685(3) 0.3966(3) 0.9366(3)
H10_4 H 0.3969 0.3710 0.9225
N4_4 N 0.3083(3) 0.4848(3) 0.9205(3)
H25_4 H 0.2963 0.9830 0.3633
C32_4 C 0.4513(4) 0.9072(4) 0.3593(3)
C33_4 C 0.4689(5) 0.8600(4) 0.4017(5)
H26_4 H 0.4442 0.8509 0.4370
C34_3 C 0.5231(5) 0.8275(5) 0.3898(6)
H27_3 H 0.5361 0.7956 0.4173
C35_3 C 0.5603(5) 0.8421(5) 0.3351(7)
H28_3 H 0.5973 0.8201 0.3259
C36_3 C 0.5395(4) 0.8885(5) 0.2979(5)
H29_3 H 0.5638 0.8996 0.2629
N8_4 N 0.3799(3) 0.9889(3) 0.3339(2)
N9_4 N 0.3966(3) 0.9366(3) 0.3685(3)
H30_4 H 0.3710 0.9225 0.3969
N10_4 N 0.4848(3) 0.9205(3) 0.3083(3)
H15_4 H 0.9830 0.3633 0.2963
C20_4 C 0.9072(4) 0.3593(3) 0.4513(4)
C21_4 C 0.8600(4) 0.4017(5) 0.4689(5)
H16_4 H 0.8509 0.4370 0.4442
C22_3 C 0.8275(5) 0.3898(6) 0.5231(5)
H17_3 H 0.7956 0.4173 0.5361
C23_3 C 0.8421(5) 0.3351(7) 0.5603(5)
H18_3 H 0.8201 0.3259 0.5973
C24_3 C 0.8885(5) 0.2979(5) 0.5395(4)
H19_3 H 0.8996 0.2629 0.5638
N5_4 N 0.9889(3) 0.3339(2) 0.3799(3)
N6_4 N 0.9366(3) 0.3685(3) 0.3966(3)
H20_4 H 0.9225 0.3969 0.3710
N7_4 N 0.9205(3) 0.3083(3) 0.4848(3)
Ag2_6 Ag 1.0000 0.2500 0.45635(4)
C37_4 C 0.7492(3) 0.2520(3) 0.1694(3)
C38_4 C 0.7447(3) 0.1869(3) 0.1612(3)
H31_4 H 0.7609 0.1600 0.1921
C39_4 C 0.7170(3) 0.1618(3) 0.1087(3)
H32_4 H 0.7151 0.1180 0.1039
C40_4 C 0.6919(3) 0.2002(3) 0.0628(3)
C41_4 C 0.6961(3) 0.2639(3) 0.0712(3)
H33_4 H 0.6785 0.2905 0.0409
C42_4 C 0.7248(3) 0.2896(3) 0.1219(3)
H34_4 H 0.7283 0.3334 0.1251
C43_4 C 0.6613(3) 0.1761(3) 0.0069(3)
N11_4 N 0.7774(3) 0.2774(3) 0.2226(3)
C49_4 C 0.8306(3) 0.2492(3) 0.2480(3)
C50_4 C 0.8388(3) 0.2447(3) 0.3131(3)
H41_4 H 0.8079 0.2609 0.3400
C51_4 C 0.8913(3) 0.2170(3) 0.3382(3)
H42_4 H 0.8961 0.2151 0.3820
C52_4 C 0.9372(3) 0.1919(3) 0.2998(3)
C53_4 C 0.9288(3) 0.1961(3) 0.2361(3)
H43_4 H 0.9591 0.1785 0.2095
C54_4 C 0.8781(3) 0.2248(3) 0.2104(3)
H44_4 H 0.8749 0.2283 0.1666
C55_4 C 0.9931(3) 0.1613(3) 0.3239(3)
C61_4 C 0.7520(3) 0.3306(3) 0.2508(3)
C62_4 C 0.6869(3) 0.3388(3) 0.2553(3)
H51_4 H 0.6600 0.3079 0.2391
C63_4 C 0.6618(3) 0.3913(3) 0.2830(3)
H52_4 H 0.6180 0.3961 0.2849
C64_4 C 0.7002(3) 0.4372(3) 0.3081(3)
C65_4 C 0.7639(3) 0.4288(3) 0.3039(3)
H53_4 H 0.7905 0.4591 0.3215
C66_4 C 0.7896(3) 0.3781(3) 0.2752(3)
H54_4 H 0.8334 0.3749 0.2717
C67_4 C 0.6761(3) 0.4931(3) 0.3387(3)
H55_4 H 0.7037 0.5170 0.3633
C68_4 C 0.5487(4) 0.5928(4) 0.3593(3)
C69_4 C 0.5311(5) 0.6400(4) 0.4017(5)
H56_4 H 0.5558 0.6491 0.4370
C70_3 C 0.4769(5) 0.6725(5) 0.3898(6)
H57_3 H 0.4639 0.7044 0.4173
C71_3 C 0.4397(5) 0.6579(5) 0.3351(7)
H58_3 H 0.4027 0.6799 0.3259
C72_3 C 0.4605(4) 0.6115(5) 0.2979(5)
H59_3 H 0.4362 0.6004 0.2629
N19_4 N 0.6034(3) 0.5634(3) 0.3685(3)
H60_4 H 0.6290 0.5775 0.3969
H35_4 H 0.6367 0.2037 0.9830
C44_4 C 0.6407(3) 0.0487(4) 0.9072(4)
C45_4 C 0.5983(5) 0.0311(5) 0.8600(4)
H36_4 H 0.5630 0.0558 0.8509
N13_4 N 0.6315(3) 0.1034(3) 0.9366(3)
H40_4 H 0.6031 0.1290 0.9225
C10_4 C 0.8898(6) 0.9769(5) 0.1725(5)
H7_4 H 0.9173 0.9639 0.2044
C11_4 C 0.8351(7) 0.9397(5) 0.1579(5)
H8_4 H 0.8259 0.9027 0.1799
C12_4 C 0.7979(5) 0.9605(4) 0.1115(5)
H9_4 H 0.7629 0.9362 0.1004
C70_4 C 0.9769(5) 0.8275(5) 0.6102(6)
H57_4 H 0.9639 0.7956 0.5827
C71_4 C 0.9397(5) 0.8421(5) 0.6649(7)
H58_4 H 0.9027 0.8201 0.6741
C72_4 C 0.9605(4) 0.8885(5) 0.7021(5)
H59_4 H 0.9362 0.8996 0.7371
C22_4 C 0.1725(5) 0.8898(6) 0.9769(5)
H17_4 H 0.2044 0.9173 0.9639
C23_4 C 0.1579(5) 0.8351(7) 0.9397(5)
H18_4 H 0.1799 0.8259 0.9027
C24_4 C 0.1115(5) 0.7979(5) 0.9605(4)
H19_4 H 0.1004 0.7629 0.9362
C58_4 C 0.8275(5) 0.6102(6) 0.9769(5)
H47_4 H 0.7956 0.5827 0.9639
C59_4 C 0.8421(5) 0.6649(7) 0.9397(5)
H48_4 H 0.8201 0.6741 0.9027
C60_4 C 0.8885(5) 0.7021(5) 0.9605(4)
H49_4 H 0.8996 0.7371 0.9362
C34_4 C 0.9769(5) 0.1725(5) 0.8898(6)
H27_4 H 0.9639 0.2044 0.9173
C35_4 C 0.9397(5) 0.1579(5) 0.8351(7)
H28_4 H 0.9027 0.1799 0.8259
C36_4 C 0.9605(4) 0.1115(5) 0.7979(5)
H29_4 H 0.9362 0.1004 0.7629
C46_4 C 0.6102(6) 0.9769(5) 0.8275(5)
H37_4 H 0.5827 0.9639 0.7956
C47_4 C 0.6649(7) 0.9397(5) 0.8421(5)
H38_4 H 0.6741 0.9027 0.8201
C48_4 C 0.7021(5) 0.9605(4) 0.8885(5)
H39_4 H 0.7371 0.9362 0.8996
Cl1 Cl 0.0000 0.2500 0.05919(11)
O1 O 0.0487(4) 0.2248(4) 0.0241(4)
O2 O 0.0258(3) 0.2987(5) 0.0944(3)
Cl1_2 Cl 1.0000 0.2500 0.05919(11)
O3 O 0.9513(4) 0.2752(4) 0.0241(4)
O4 O 0.9742(3) 0.2013(5) 0.0944(3)
Cl1_3 Cl 0.5000 0.7500 0.55919(11)
O1_2 O 0.4513(4) 0.7752(4) 0.5241(4)
O2_2 O 0.4742(3) 0.7013(5) 0.5944(3)
O3_2 O 0.5487(4) 0.7248(4) 0.5241(4)
O4_2 O 0.5258(3) 0.7987(5) 0.5944(3)
Cl1_4 Cl -0.0000 0.7500 0.44081(11)
O3_3 O 0.0487(4) 0.7752(4) 0.4759(4)
O4_3 O 0.0258(3) 0.7013(5) 0.4056(3)
Cl1_5 Cl 1.0000 0.7500 0.44081(11)
O1_3 O 0.9513(4) 0.7248(4) 0.4759(4)
O2_3 O 0.9742(3) 0.7987(5) 0.4056(3)
Cl1_6 Cl 0.5000 0.2500 0.94081(11)
O1_4 O 0.5487(4) 0.2752(4) 0.9759(4)
O2_4 O 0.5258(3) 0.2013(5) 0.9056(3)
O3_4 O 0.4513(4) 0.2248(4) 0.9759(4)
O4_4 O 0.4742(3) 0.2987(5) 0.9056(3)
Cl1_7 Cl 0.05919(11) 0.0000 0.2500
O1_5 O 0.0241(4) 0.0487(4) 0.2248(4)
O2_5 O 0.0944(3) 0.0258(3) 0.2987(5)
Cl1_8 Cl 0.05919(11) 1.0000 0.2500
O3_5 O 0.0241(4) 0.9513(4) 0.2752(4)
O4_5 O 0.0944(3) 0.9742(3) 0.2013(5)
Cl1_9 Cl 0.55919(11) 0.5000 0.7500
O1_6 O 0.5241(4) 0.4513(4) 0.7752(4)
O2_6 O 0.5944(3) 0.4742(3) 0.7013(5)
O3_6 O 0.5241(4) 0.5487(4) 0.7248(4)
O4_6 O 0.5944(3) 0.5258(3) 0.7987(5)
Cl1_10 Cl 0.44081(11) -0.0000 0.7500
O3_7 O 0.4759(4) 0.0487(4) 0.7752(4)
O4_7 O 0.4056(3) 0.0258(3) 0.7013(5)
Cl1_11 Cl 0.44081(11) 1.0000 0.7500
O1_7 O 0.4759(4) 0.9513(4) 0.7248(4)
O2_7 O 0.4056(3) 0.9742(3) 0.7987(5)
Cl1_12 Cl 0.94081(11) 0.5000 0.2500
O1_8 O 0.9759(4) 0.5487(4) 0.2752(4)
O2_8 O 0.9056(3) 0.5258(3) 0.2013(5)
O3_8 O 0.9759(4) 0.4513(4) 0.2248(4)
O4_8 O 0.9056(3) 0.4742(3) 0.2987(5)
Cl1_13 Cl 0.2500 0.05919(11) 0.0000
O1_9 O 0.2248(4) 0.0241(4) 0.0487(4)
O2_9 O 0.2987(5) 0.0944(3) 0.0258(3)
Cl1_14 Cl 0.2500 0.05919(11) 1.0000
O3_9 O 0.2752(4) 0.0241(4) 0.9513(4)
O4_9 O 0.2013(5) 0.0944(3) 0.9742(3)
Cl1_15 Cl 0.7500 0.55919(11) 0.5000
O1_10 O 0.7752(4) 0.5241(4) 0.4513(4)
O2_10 O 0.7013(5) 0.5944(3) 0.4742(3)
O3_10 O 0.7248(4) 0.5241(4) 0.5487(4)
O4_10 O 0.7987(5) 0.5944(3) 0.5258(3)
Cl1_16 Cl 0.7500 0.44081(11) 0.0000
O3_11 O 0.7752(4) 0.4759(4) 0.0487(4)
O4_11 O 0.7013(5) 0.4056(3) 0.0258(3)
Cl1_17 Cl 0.7500 0.44081(11) 1.0000
O1_11 O 0.7248(4) 0.4759(4) 0.9513(4)
O2_11 O 0.7987(5) 0.4056(3) 0.9742(3)
Cl1_18 Cl 0.2500 0.94081(11) 0.5000
O1_12 O 0.2752(4) 0.9759(4) 0.5487(4)
O2_12 O 0.2013(5) 0.9056(3) 0.5258(3)
O3_12 O 0.2248(4) 0.9759(4) 0.4513(4)
O4_12 O 0.2987(5) 0.9056(3) 0.4742(3)
loop_
_geom_bond_atom_site_label_1
_geom_bond_atom_site_label_2
_geom_bond_site_symmetry_1
_geom_bond_site_symmetry_2
H27 C34 1_555 1_555
C35 C34 1_555 1_555
H28 C35 1_555 1_555
C36 C35 1_555 1_555
H29 C36 1_555 1_555
Ag1 N2 1_555 1_555
C8 C9 1_555 1_555
C9 H6 1_555 1_555
N3 C8 1_555 1_555
H10 N3 1_555 1_555
N4 Ag1 1_555 1_555
C44 C45 1_555 1_555
C45 H36 1_555 1_555
C46 C45 1_555 1_555
H37 C46 1_555 1_555
C47 C46 1_555 1_555
H38 C47 1_555 1_555
C48 C47 1_555 1_555
H39 C48 1_555 1_555
N13 C44 1_555 1_555
H40 N13 1_555 1_555
N14 C44 1_555 1_555
Ag4 N12 1_555 1_555
C8 N4 1_555 1_555
N2 N3 1_555 1_555
C48 N14 1_555 1_555
N12 N13 1_555 1_555
N14 Ag4 1_555 1_555
C1 C2 1_555 1_555
C2 H1 1_555 1_555
C3 C2 1_555 1_555
H2 C3 1_555 1_555
C4 C3 1_555 1_555
C5 C4 1_555 1_555
H3 C5 1_555 1_555
C6 C1 1_555 1_555
H4 C6 1_555 1_555
C7 C4 1_555 1_555
N1 C1 1_555 1_555
C13 N1 1_555 1_555
C14 C13 1_555 1_555
H11 C14 1_555 1_555
C15 C14 1_555 1_555
H12 C15 1_555 1_555
C16 C15 1_555 1_555
C17 C16 1_555 1_555
H13 C17 1_555 1_555
C18 C13 1_555 1_555
H14 C18 1_555 1_555
C19 C16 1_555 1_555
H15 C19 1_555 1_555
C20 C21 1_555 1_555
C21 H16 1_555 1_555
C22 C21 1_555 1_555
H17 C22 1_555 1_555
C23 C22 1_555 1_555
H18 C23 1_555 1_555
C24 C23 1_555 1_555
H19 C24 1_555 1_555
N5 C19 1_555 1_555
N6 C20 1_555 1_555
H20 N6 1_555 1_555
N7 C20 1_555 1_555
C25 N1 1_555 1_555
C26 C25 1_555 1_555
H21 C26 1_555 1_555
C27 C26 1_555 1_555
H22 C27 1_555 1_555
C28 C27 1_555 1_555
C29 C28 1_555 1_555
H23 C29 1_555 1_555
C30 C25 1_555 1_555
H24 C30 1_555 1_555
C31 C28 1_555 1_555
H25 C31 1_555 1_555
C32 C33 1_555 1_555
C33 H26 1_555 1_555
N8 C31 1_555 1_555
N9 C32 1_555 1_555
H30 N9 1_555 1_555
N10 C32 1_555 1_555
Ag2 N5 1_555 1_555
Ag3 N8 1_555 1_555
C37 C38 1_555 1_555
C38 H31 1_555 1_555
C39 C38 1_555 1_555
H32 C39 1_555 1_555
C40 C39 1_555 1_555
C41 C40 1_555 1_555
H33 C41 1_555 1_555
C42 C37 1_555 1_555
H34 C42 1_555 1_555
C43 C40 1_555 1_555
N11 C37 1_555 1_555
C49 N11 1_555 1_555
C50 C49 1_555 1_555
H41 C50 1_555 1_555
C51 C50 1_555 1_555
H42 C51 1_555 1_555
C52 C51 1_555 1_555
C53 C52 1_555 1_555
H43 C53 1_555 1_555
C54 C49 1_555 1_555
H44 C54 1_555 1_555
C55 C52 1_555 1_555
H45 C55 1_555 1_555
C56 C57 1_555 1_555
C57 H46 1_555 1_555
C58 C57 1_555 1_555
H47 C58 1_555 1_555
C59 C58 1_555 1_555
H48 C59 1_555 1_555
C60 C59 1_555 1_555
H49 C60 1_555 1_555
N15 Ag2 1_555 1_555
N16 C56 1_555 1_555
H50 N16 1_555 1_555
N17 Ag2 1_555 1_555
C61 N11 1_555 1_555
C62 C61 1_555 1_555
H51 C62 1_555 1_555
C63 C62 1_555 1_555
H52 C63 1_555 1_555
C64 C63 1_555 1_555
C65 C64 1_555 1_555
H53 C65 1_555 1_555
C66 C61 1_555 1_555
H54 C66 1_555 1_555
C67 C64 1_555 1_555
N21 Ag1_2 1_555 1_555
N22 Ag3 1_555 1_555
N23 Ag1_2 1_555 1_555
N24 Ag3 1_555 1_555
C5 C6 1_555 1_555
C17 C18 1_555 1_555
C24 N7 1_555 1_555
N5 N6 1_555 1_555
N7 Ag2 1_555 1_555
C29 C30 1_555 1_555
N8 N9 1_555 1_555
N10 Ag3 1_555 1_555
C41 C42 1_555 1_555
C53 C54 1_555 1_555
C55 N15 1_555 1_555
C56 N17 1_555 1_555
C60 N17 1_555 1_555
N15 N16 1_555 1_555
C65 C66 1_555 1_555
C68 C69 1_555 1_555
C69 H56 1_555 1_555
N19 C68 1_555 1_555
H60 N19 1_555 1_555
N20 C68 1_555 1_555
Ag5_2 N18 1_555 1_555
N18 N19 1_555 1_555
N20 Ag5_2 1_555 1_555
C68_2 C69_2 1_555 1_555
C69_2 H56_2 1_555 1_555
C70 C69_2 1_555 1_555
H57 C70 1_555 1_555
C71 C70 1_555 1_555
H58 C71 1_555 1_555
C72 C71 1_555 1_555
H59 C72 1_555 1_555
N19_2 C68_2 1_555 1_555
H60_2 N19_2 1_555 1_555
N20_2 C68_2 1_555 1_555
Ag5_3 N18_2 1_555 1_555
C72 N20_2 1_555 1_555
N18_2 N19_2 1_555 1_555
N20_2 Ag5_3 1_555 1_555
C20_2 C21_2 1_555 1_555
C21_2 H16_2 1_555 1_555
N6_2 C20_2 1_555 1_555
H20_2 N6_2 1_555 1_555
N7_2 C20_2 1_555 1_555
Ag2_2 N5_2 1_555 1_555
C37_2 C38_2 1_555 1_555
C38_2 H31_2 1_555 1_555
C39_2 C38_2 1_555 1_555
H32_2 C39_2 1_555 1_555
C40_2 C39_2 1_555 1_555
C41_2 C40_2 1_555 1_555
H33_2 C41_2 1_555 1_555
C42_2 C37_2 1_555 1_555
H34_2 C42_2 1_555 1_555
C43_2 C40_2 1_555 1_555
H35_2 C43_2 1_555 1_555
C44_2 C45_2 1_555 1_555
C45_2 H36_2 1_555 1_555
C46_2 C45_2 1_555 1_555
H37_2 C46_2 1_555 1_555
C47_2 C46_2 1_555 1_555
H38_2 C47_2 1_555 1_555
C48_2 C47_2 1_555 1_555
H39_2 C48_2 1_555 1_555
N11_2 C37_2 1_555 1_555
N12_2 C43_2 1_555 1_555
N13_2 C44_2 1_555 1_555
H40_2 N13_2 1_555 1_555
N14_2 C44_2 1_555 1_555
C49_2 N11_2 1_555 1_555
C50_2 C49_2 1_555 1_555
H41_2 C50_2 1_555 1_555
C51_2 C50_2 1_555 1_555
H42_2 C51_2 1_555 1_555
C52_2 C51_2 1_555 1_555
C53_2 C52_2 1_555 1_555
H43_2 C53_2 1_555 1_555
C54_2 C49_2 1_555 1_555
H44_2 C54_2 1_555 1_555
C55_2 C52_2 1_555 1_555
C61_2 N11_2 1_555 1_555
C62_2 C61_2 1_555 1_555
H51_2 C62_2 1_555 1_555
C63_2 C62_2 1_555 1_555
H52_2 C63_2 1_555 1_555
C64_2 C63_2 1_555 1_555
C65_2 C64_2 1_555 1_555
H53_2 C65_2 1_555 1_555
C66_2 C61_2 1_555 1_555
H54_2 C66_2 1_555 1_555
C67_2 C64_2 1_555 1_555
Ag4_3 N12_2 1_555 1_555
N5_2 N6_2 1_555 1_555
N7_2 Ag2_2 1_555 1_555
C41_2 C42_2 1_555 1_555
C48_2 N14_2 1_555 1_555
N12_2 N13_2 1_555 1_555
N14_2 Ag4_3 1_555 1_555
C53_2 C54_2 1_555 1_555
C65_2 C66_2 1_555 1_555
H7 C10 1_555 1_555
C11 C10 1_555 1_555
H8 C11 1_555 1_555
C12 C11 1_555 1_555
H9 C12 1_555 1_555
Ag1_3 N2_2 1_555 1_555
C1_2 C2_2 1_555 1_555
C2_2 H1_2 1_555 1_555
C3_2 C2_2 1_555 1_555
H2_2 C3_2 1_555 1_555
C4_2 C3_2 1_555 1_555
C5_2 C4_2 1_555 1_555
H3_2 C5_2 1_555 1_555
C6_2 C1_2 1_555 1_555
H4_2 C6_2 1_555 1_555
C7_2 C4_2 1_555 1_555
H5_2 C7_2 1_555 1_555
C8_2 C9_2 1_555 1_555
C9_2 H6_2 1_555 1_555
N1_2 C1_2 1_555 1_555
N2_2 C7_2 1_555 1_555
N3_2 C8_2 1_555 1_555
H10_2 N3_2 1_555 1_555
N4_2 Ag1_3 1_555 1_555
C13_2 N1_2 1_555 1_555
C14_2 C13_2 1_555 1_555
H11_2 C14_2 1_555 1_555
C15_2 C14_2 1_555 1_555
H12_2 C15_2 1_555 1_555
C16_2 C15_2 1_555 1_555
C17_2 C16_2 1_555 1_555
H13_2 C17_2 1_555 1_555
C18_2 C13_2 1_555 1_555
H14_2 C18_2 1_555 1_555
C19_2 C16_2 1_555 1_555
C25_2 N1_2 1_555 1_555
C26_2 C25_2 1_555 1_555
H21_2 C26_2 1_555 1_555
C27_2 C26_2 1_555 1_555
H22_2 C27_2 1_555 1_555
C28_2 C27_2 1_555 1_555
C29_2 C28_2 1_555 1_555
H23_2 C29_2 1_555 1_555
C30_2 C25_2 1_555 1_555
H24_2 C30_2 1_555 1_555
C31_2 C28_2 1_555 1_555
H25_2 C31_2 1_555 1_555
C32_2 C33_2 1_555 1_555
C33_2 H26_2 1_555 1_555
C34_2 C33_2 1_555 1_555
H27_2 C34_2 1_555 1_555
C35_2 C34_2 1_555 1_555
H28_2 C35_2 1_555 1_555
C36_2 C35_2 1_555 1_555
H29_2 C36_2 1_555 1_555
N8_2 C31_2 1_555 1_555
N9_2 C32_2 1_555 1_555
H30_2 N9_2 1_555 1_555
N10_2 C32_2 1_555 1_555
Ag3_2 N8_2 1_555 1_555
C56_2 C57_2 1_555 1_555
C57_2 H46_2 1_555 1_555
N15_2 Ag2_3 1_555 1_555
N16_2 C56_2 1_555 1_555
H50_2 N16_2 1_555 1_555
N17_2 Ag2_3 1_555 1_555
N21_2 Ag1_3 1_555 1_555
N22_2 Ag3_2 1_555 1_555
N23_2 Ag1_3 1_555 1_555
N24_2 Ag3_2 1_555 1_555
C5_2 C6_2 1_555 1_555
C8_2 N4_2 1_555 1_555
N2_2 N3_2 1_555 1_555
C17_2 C18_2 1_555 1_555
C29_2 C30_2 1_555 1_555
C36_2 N10_2 1_555 1_555
N8_2 N9_2 1_555 1_555
N10_2 Ag3_2 1_555 1_555
C56_2 N17_2 1_555 1_555
N15_2 N16_2 1_555 1_555
H57_2 C70_2 1_555 1_555
C71_2 C70_2 1_555 1_555
H58_2 C71_2 1_555 1_555
C72_2 C71_2 1_555 1_555
H59_2 C72_2 1_555 1_555
C32_3 C33_3 1_555 1_555
C33_3 H26_3 1_555 1_555
N9_3 C32_3 1_555 1_555
H30_3 N9_3 1_555 1_555
N10_3 C32_3 1_555 1_555
Ag5 N8_3 1_555 1_555
H37_3 C46_3 1_555 1_555
C47_3 C46_3 1_555 1_555
H38_3 C47_3 1_555 1_555
C48_3 C47_3 1_555 1_555
H39_3 C48_3 1_555 1_555
N8_3 N9_3 1_555 1_555
N10_3 Ag5 1_555 1_555
H17_2 C22_2 1_555 1_555
C23_2 C22_2 1_555 1_555
H18_2 C23_2 1_555 1_555
C24_2 C23_2 1_555 1_555
H19_2 C24_2 1_555 1_555
H47_2 C58_2 1_555 1_555
C59_2 C58_2 1_555 1_555
H48_2 C59_2 1_555 1_555
C60_2 C59_2 1_555 1_555
H49_2 C60_2 1_555 1_555
Ag4_3 N2_3 1_555 1_555
C1_3 C2_3 1_555 1_555
C2_3 H1_3 1_555 1_555
C3_3 C2_3 1_555 1_555
H2_3 C3_3 1_555 1_555
C4_3 C3_3 1_555 1_555
C5_3 C4_3 1_555 1_555
H3_3 C5_3 1_555 1_555
C6_3 C1_3 1_555 1_555
H4_3 C6_3 1_555 1_555
C7_3 C4_3 1_555 1_555
H5_3 C7_3 1_555 1_555
C8_3 C9_3 1_555 1_555
C9_3 H6_3 1_555 1_555
C10_2 C9_3 1_555 1_555
H7_2 C10_2 1_555 1_555
C11_2 C10_2 1_555 1_555
H8_2 C11_2 1_555 1_555
C12_2 C11_2 1_555 1_555
H9_2 C12_2 1_555 1_555
N1_3 C1_3 1_555 1_555
N2_3 C7_3 1_555 1_555
N3_3 C8_3 1_555 1_555
H10_3 N3_3 1_555 1_555
N4_3 Ag4_3 1_555 1_555
C13_3 N1_3 1_555 1_555
C14_3 C13_3 1_555 1_555
H11_3 C14_3 1_555 1_555
C15_3 C14_3 1_555 1_555
H12_3 C15_3 1_555 1_555
C16_3 C15_3 1_555 1_555
C17_3 C16_3 1_555 1_555
H13_3 C17_3 1_555 1_555
C18_3 C13_3 1_555 1_555
H14_3 C18_3 1_555 1_555
C19_3 C16_3 1_555 1_555
H15_3 C19_3 1_555 1_555
C20_3 C21_3 1_555 1_555
C21_3 H16_3 1_555 1_555
N5_3 C19_3 1_555 1_555
N6_3 C20_3 1_555 1_555
H20_3 N6_3 1_555 1_555
N7_3 C20_3 1_555 1_555
C25_3 N1_3 1_555 1_555
C26_3 C25_3 1_555 1_555
H21_3 C26_3 1_555 1_555
C27_3 C26_3 1_555 1_555
H22_3 C27_3 1_555 1_555
C28_3 C27_3 1_555 1_555
C29_3 C28_3 1_555 1_555
H23_3 C29_3 1_555 1_555
C30_3 C25_3 1_555 1_555
H24_3 C30_3 1_555 1_555
C31_3 C28_3 1_555 1_555
Ag2_4 N5_3 1_555 1_555
C37_3 C38_3 1_555 1_555
C38_3 H31_3 1_555 1_555
C39_3 C38_3 1_555 1_555
H32_3 C39_3 1_555 1_555
C40_3 C39_3 1_555 1_555
C41_3 C40_3 1_555 1_555
H33_3 C41_3 1_555 1_555
C42_3 C37_3 1_555 1_555
H34_3 C42_3 1_555 1_555
C43_3 C40_3 1_555 1_555
H35_3 C43_3 1_555 1_555
C44_3 C45_3 1_555 1_555
C45_3 H36_3 1_555 1_555
N11_3 C37_3 1_555 1_555
N21_2 C43_3 1_555 1_555
N13_3 C44_3 1_555 1_555
H40_3 N13_3 1_555 1_555
N23_2 C44_3 1_555 1_555
C49_3 N11_3 1_555 1_555
C50_3 C49_3 1_555 1_555
H41_3 C50_3 1_555 1_555
C51_3 C50_3 1_555 1_555
H42_3 C51_3 1_555 1_555
C52_3 C51_3 1_555 1_555
C53_3 C52_3 1_555 1_555
H43_3 C53_3 1_555 1_555
C54_3 C49_3 1_555 1_555
H44_3 C54_3 1_555 1_555
C55_3 C52_3 1_555 1_555
H45_3 C55_3 1_555 1_555
C56_3 C57_3 1_555 1_555
C57_3 H46_3 1_555 1_555
N15_3 Ag2_4 1_555 1_555
N16_3 C56_3 1_555 1_555
H50_3 N16_3 1_555 1_555
N17_3 Ag2_4 1_555 1_555
C61_3 N11_3 1_555 1_555
C62_3 C61_3 1_555 1_555
H51_3 C62_3 1_555 1_555
C63_3 C62_3 1_555 1_555
H52_3 C63_3 1_555 1_555
C64_3 C63_3 1_555 1_555
C65_3 C64_3 1_555 1_555
H53_3 C65_3 1_555 1_555
C66_3 C61_3 1_555 1_555
H54_3 C66_3 1_555 1_555
C67_3 C64_3 1_555 1_555
H55_3 C67_3 1_555 1_555
C68_3 C69_3 1_555 1_555
C69_3 H56_3 1_555 1_555
N22 C67_3 1_555 1_555
N19_3 C68_3 1_555 1_555
H60_3 N19_3 1_555 1_555
N24 C68_3 1_555 1_555
C5_3 C6_3 1_555 1_555
C8_3 N4_3 1_555 1_555
C12_2 N4_3 1_555 1_555
N2_3 N3_3 1_555 1_555
C17_3 C18_3 1_555 1_555
N5_3 N6_3 1_555 1_555
N7_3 Ag2_4 1_555 1_555
C29_3 C30_3 1_555 1_555
C41_3 C42_3 1_555 1_555
N21_2 N13_3 1_555 1_555
C53_3 C54_3 1_555 1_555
C55_3 N15_3 1_555 1_555
C56_3 N17_3 1_555 1_555
N15_3 N16_3 1_555 1_555
C65_3 C66_3 1_555 1_555
N22 N19_3 1_555 1_555
C1_4 C2_4 1_555 1_555
C2_4 H1_4 1_555 1_555
C3_4 C2_4 1_555 1_555
H2_4 C3_4 1_555 1_555
C4_4 C3_4 1_555 1_555
C5_4 C4_4 1_555 1_555
H3_4 C5_4 1_555 1_555
C6_4 C1_4 1_555 1_555
H4_4 C6_4 1_555 1_555
C7_4 C4_4 1_555 1_555
N1_4 C1_4 1_555 1_555
C13_4 N1_4 1_555 1_555
C14_4 C13_4 1_555 1_555
H11_4 C14_4 1_555 1_555
C15_4 C14_4 1_555 1_555
H12_4 C15_4 1_555 1_555
C16_4 C15_4 1_555 1_555
C17_4 C16_4 1_555 1_555
H13_4 C17_4 1_555 1_555
C18_4 C13_4 1_555 1_555
H14_4 C18_4 1_555 1_555
C19_4 C16_4 1_555 1_555
C25_4 N1_4 1_555 1_555
C26_4 C25_4 1_555 1_555
H21_4 C26_4 1_555 1_555
C27_4 C26_4 1_555 1_555
H22_4 C27_4 1_555 1_555
C28_4 C27_4 1_555 1_555
C29_4 C28_4 1_555 1_555
H23_4 C29_4 1_555 1_555
C30_4 C25_4 1_555 1_555
H24_4 C30_4 1_555 1_555
C31_4 C28_4 1_555 1_555
C56_4 C57_4 1_555 1_555
C57_4 H46_4 1_555 1_555
C58_3 C57_4 1_555 1_555
H47_3 C58_3 1_555 1_555
C59_3 C58_3 1_555 1_555
H48_3 C59_3 1_555 1_555
C60_3 C59_3 1_555 1_555
H49_3 C60_3 1_555 1_555
N15_4 Ag2_5 1_555 1_555
N16_4 C56_4 1_555 1_555
H50_4 N16_4 1_555 1_555
N17_4 Ag2_5 1_555 1_555
C5_4 C6_4 1_555 1_555
C17_4 C18_4 1_555 1_555
C29_4 C30_4 1_555 1_555
C56_4 N17_4 1_555 1_555
C60_3 N17_4 1_555 1_555
N15_4 N16_4 1_555 1_555
Ag4_2 N2_4 1_555 1_555
C8_4 C9_4 1_555 1_555
C9_4 H6_4 1_555 1_555
C10_3 C9_4 1_555 1_555
H7_3 C10_3 1_555 1_555
C11_3 C10_3 1_555 1_555
H8_3 C11_3 1_555 1_555
C12_3 C11_3 1_555 1_555
H9_3 C12_3 1_555 1_555
N3_4 C8_4 1_555 1_555
H10_4 N3_4 1_555 1_555
N4_4 Ag4_2 1_555 1_555
C8_4 N4_4 1_555 1_555
C12_3 N4_4 1_555 1_555
N2_4 N3_4 1_555 1_555
C32_4 C33_4 1_555 1_555
C33_4 H26_4 1_555 1_555
C34_3 C33_4 1_555 1_555
H27_3 C34_3 1_555 1_555
C35_3 C34_3 1_555 1_555
H28_3 C35_3 1_555 1_555
C36_3 C35_3 1_555 1_555
H29_3 C36_3 1_555 1_555
N9_4 C32_4 1_555 1_555
H30_4 N9_4 1_555 1_555
N10_4 C32_4 1_555 1_555
Ag5_4 N8_4 1_555 1_555
C36_3 N10_4 1_555 1_555
N8_4 N9_4 1_555 1_555
N10_4 Ag5_4 1_555 1_555
C20_4 C21_4 1_555 1_555
C21_4 H16_4 1_555 1_555
C22_3 C21_4 1_555 1_555
H17_3 C22_3 1_555 1_555
C23_3 C22_3 1_555 1_555
H18_3 C23_3 1_555 1_555
C24_3 C23_3 1_555 1_555
H19_3 C24_3 1_555 1_555
N6_4 C20_4 1_555 1_555
H20_4 N6_4 1_555 1_555
N7_4 C20_4 1_555 1_555
Ag2_6 N5_4 1_555 1_555
C37_4 C38_4 1_555 1_555
C38_4 H31_4 1_555 1_555
C39_4 C38_4 1_555 1_555
H32_4 C39_4 1_555 1_555
C40_4 C39_4 1_555 1_555
C41_4 C40_4 1_555 1_555
H33_4 C41_4 1_555 1_555
C42_4 C37_4 1_555 1_555
H34_4 C42_4 1_555 1_555
C43_4 C40_4 1_555 1_555
N11_4 C37_4 1_555 1_555
C49_4 N11_4 1_555 1_555
C50_4 C49_4 1_555 1_555
H41_4 C50_4 1_555 1_555
C51_4 C50_4 1_555 1_555
H42_4 C51_4 1_555 1_555
C52_4 C51_4 1_555 1_555
C53_4 C52_4 1_555 1_555
H43_4 C53_4 1_555 1_555
C54_4 C49_4 1_555 1_555
H44_4 C54_4 1_555 1_555
C55_4 C52_4 1_555 1_555
C61_4 N11_4 1_555 1_555
C62_4 C61_4 1_555 1_555
H51_4 C62_4 1_555 1_555
C63_4 C62_4 1_555 1_555
H52_4 C63_4 1_555 1_555
C64_4 C63_4 1_555 1_555
C65_4 C64_4 1_555 1_555
H53_4 C65_4 1_555 1_555
C66_4 C61_4 1_555 1_555
H54_4 C66_4 1_555 1_555
C67_4 C64_4 1_555 1_555
H55_4 C67_4 1_555 1_555
C68_4 C69_4 1_555 1_555
C69_4 H56_4 1_555 1_555
C70_3 C69_4 1_555 1_555
H57_3 C70_3 1_555 1_555
C71_3 C70_3 1_555 1_555
H58_3 C71_3 1_555 1_555
C72_3 C71_3 1_555 1_555
H59_3 C72_3 1_555 1_555
N22_2 C67_4 1_555 1_555
N19_4 C68_4 1_555 1_555
H60_4 N19_4 1_555 1_555
N24_2 C68_4 1_555 1_555
C24_3 N7_4 1_555 1_555
N5_4 N6_4 1_555 1_555
N7_4 Ag2_6 1_555 1_555
C41_4 C42_4 1_555 1_555
C53_4 C54_4 1_555 1_555
C65_4 C66_4 1_555 1_555
C72_3 N24_2 1_555 1_555
N22_2 N19_4 1_555 1_555
C44_4 C45_4 1_555 1_555
C45_4 H36_4 1_555 1_555
N13_4 C44_4 1_555 1_555
H40_4 N13_4 1_555 1_555
N23 C44_4 1_555 1_555
N21 N13_4 1_555 1_555
H7_4 C10_4 1_555 1_555
C11_4 C10_4 1_555 1_555
H8_4 C11_4 1_555 1_555
C12_4 C11_4 1_555 1_555
H9_4 C12_4 1_555 1_555
H57_4 C70_4 1_555 1_555
C71_4 C70_4 1_555 1_555
H58_4 C71_4 1_555 1_555
C72_4 C71_4 1_555 1_555
H59_4 C72_4 1_555 1_555
H17_4 C22_4 1_555 1_555
C23_4 C22_4 1_555 1_555
H18_4 C23_4 1_555 1_555
C24_4 C23_4 1_555 1_555
H19_4 C24_4 1_555 1_555
H47_4 C58_4 1_555 1_555
C59_4 C58_4 1_555 1_555
H48_4 C59_4 1_555 1_555
C60_4 C59_4 1_555 1_555
H49_4 C60_4 1_555 1_555
H27_4 C34_4 1_555 1_555
C35_4 C34_4 1_555 1_555
H28_4 C35_4 1_555 1_555
C36_4 C35_4 1_555 1_555
H29_4 C36_4 1_555 1_555
H37_4 C46_4 1_555 1_555
C47_4 C46_4 1_555 1_555
H38_4 C47_4 1_555 1_555
C48_4 C47_4 1_555 1_555
H39_4 C48_4 1_555 1_555
Cl1 O1 1_555 1_555
O2 Cl1 1_555 1_555
O3 Cl1_2 1_555 1_555
O4 Cl1_2 1_555 1_555
Cl1_3 O1_2 1_555 1_555
O2_2 Cl1_3 1_555 1_555
O3_2 Cl1_3 1_555 1_555
O4_2 Cl1_3 1_555 1_555
O3_3 Cl1_4 1_555 1_555
O4_3 Cl1_4 1_555 1_555
Cl1_5 O1_3 1_555 1_555
O2_3 Cl1_5 1_555 1_555
Cl1_6 O1_4 1_555 1_555
O2_4 Cl1_6 1_555 1_555
O3_4 Cl1_6 1_555 1_555
O4_4 Cl1_6 1_555 1_555
Cl1_7 O1_5 1_555 1_555
O2_5 Cl1_7 1_555 1_555
O3_5 Cl1_8 1_555 1_555
O4_5 Cl1_8 1_555 1_555
Cl1_9 O1_6 1_555 1_555
O2_6 Cl1_9 1_555 1_555
O3_6 Cl1_9 1_555 1_555
O4_6 Cl1_9 1_555 1_555
O3_7 Cl1_10 1_555 1_555
O4_7 Cl1_10 1_555 1_555
Cl1_11 O1_7 1_555 1_555
O2_7 Cl1_11 1_555 1_555
Cl1_12 O1_8 1_555 1_555
O2_8 Cl1_12 1_555 1_555
O3_8 Cl1_12 1_555 1_555
O4_8 Cl1_12 1_555 1_555
Cl1_13 O1_9 1_555 1_555
O2_9 Cl1_13 1_555 1_555
O3_9 Cl1_14 1_555 1_555
O4_9 Cl1_14 1_555 1_555
Cl1_15 O1_10 1_555 1_555
O2_10 Cl1_15 1_555 1_555
O3_10 Cl1_15 1_555 1_555
O4_10 Cl1_15 1_555 1_555
O3_11 Cl1_16 1_555 1_555
O4_11 Cl1_16 1_555 1_555
Cl1_17 O1_11 1_555 1_555
O2_11 Cl1_17 1_555 1_555
Cl1_18 O1_12 1_555 1_555
O2_12 Cl1_18 1_555 1_555
O3_12 Cl1_18 1_555 1_555
O4_12 Cl1_18 1_555 1_555

#END
