
###############################################################################
#
# This file contains modified crystal structure data generated from the
# MOF subset of the Cambridge Structural Database (CSD) v543 
# hosted by the Cambridge Crystallographic Data Centre (CCDC).
#
# This work is licensed under the Creative Commons
# Attribution-NonCommercial-ShareAlike 4.0 International License.
# To view a copy of this license, visit
# http://creativecommons.org/licenses/by-nc-sa/4.0/
# or send a letter to
# Creative Commons, PO Box 1866, Mountain View, CA 94042, USA.
#
# CIF created using the CSD Python API on 29 September 2022
# The structure has been converted into the P1 space group
# The structure has a 3D framework
# The original CSD entry KEPNAX08 is in the cubic crystal system
# The original CSD entry KEPNAX08 is in a Sohncke space group
# The framework has been calculated to contain at least 10.0% void space
# The void calculation uses a probe of radius 1.32A, grid spacing 0.4
# The framework is charged, counterions have been retained in the structure
#
###############################################################################

data_KEPNAX08
_chemical_formula_moiety         '(C288 H240 Ag14 Cl18 N80 O48 2+)n'
_symmetry_cell_setting           triclinic
_symmetry_space_group_name_H-M   'P 1'
_symmetry_Int_Tables_number      1
_space_group_name_Hall           'P 1'
loop_
_symmetry_equiv_pos_site_id
_symmetry_equiv_pos_as_xyz
1 x,y,z
_cell_length_a                   21.4745(11)
_cell_length_b                   21.4745(11)
_cell_length_c                   21.4745(11)
_cell_angle_alpha                90
_cell_angle_beta                 90
_cell_angle_gamma                90
_cell_volume                     9903.05
loop_
_atom_site_label
_atom_site_type_symbol
_atom_site_fract_x
_atom_site_fract_y
_atom_site_fract_z
C70 C 0.0209(5) 0.1697(5) 0.3925(5)
H57 H 0.0342 0.2001 0.4211
C71 C 0.0581(5) 0.1551(5) 0.3388(7)
H58 H 0.0961 0.1756 0.3313
C72 C 0.0365(4) 0.1108(5) 0.2995(5)
H59 H 0.0597 0.1020 0.2635
H55 H 0.7939 0.0163 0.3632
C68 C 0.9481(3) 0.0920(3) 0.3592(3)
C69 C 0.9659(4) 0.1387(4) 0.4014(4)
H56 H 0.9402 0.1487 0.4354
N18 N 0.8766(3) 0.0112(2) 0.3334(2)
N19 N 0.8935(3) 0.0622(3) 0.3673(3)
H60 H 0.8679 0.0761 0.3955
N20 N 0.9825(3) 0.0780(3) 0.3095(3)
Ag5 Ag 0.95334(4) 0.0000 0.2500
Ag1 Ag 0.2500 0.95334(4) 0.0000
C1 C 0.2509(3) 0.7456(3) 0.1666(2)
C2 C 0.2467(3) 0.8108(3) 0.1598(3)
H1 H 0.2634 0.8372 0.1905
C3 C 0.2180(3) 0.8357(3) 0.1079(3)
H2 H 0.2153 0.8792 0.1035
C4 C 0.1932(3) 0.7976(3) 0.0624(3)
C5 C 0.1963(3) 0.7327(3) 0.0704(3)
H3 H 0.1777 0.7062 0.0410
C6 C 0.2262(3) 0.7083(3) 0.1209(3)
H4 H 0.2300 0.6648 0.1245
C7 C 0.1618(3) 0.8213(3) 0.0069(3)
N1 N 0.2798(3) 0.7202(3) 0.2202(3)
C13 C 0.3334(2) 0.7491(3) 0.2456(3)
C14 C 0.3402(3) 0.7533(3) 0.3108(3)
H11 H 0.3095 0.7366 0.3372
C15 C 0.3921(3) 0.7820(3) 0.3357(3)
H12 H 0.3965 0.7847 0.3792
C16 C 0.4376(3) 0.8068(3) 0.2976(3)
C17 C 0.4296(3) 0.8037(3) 0.2327(3)
H13 H 0.4590 0.8223 0.2062
C18 C 0.3791(3) 0.7738(3) 0.2083(3)
H14 H 0.3755 0.7700 0.1648
C19 C 0.4931(3) 0.8382(3) 0.3213(3)
H15 H 0.5163 0.8632 0.2939
C20 C 0.5920(3) 0.8592(3) 0.4481(3)
C21 C 0.6387(4) 0.9014(4) 0.4659(4)
H16 H 0.6487 0.9354 0.4402
C22 C 0.6697(5) 0.8925(5) 0.5209(5)
H17 H 0.7001 0.9211 0.5342
C23 C 0.6551(5) 0.8388(7) 0.5581(5)
H18 H 0.6756 0.8313 0.5961
C24 C 0.6108(5) 0.7995(5) 0.5365(4)
H19 H 0.6020 0.7635 0.5597
N5 N 0.5112(2) 0.8334(2) 0.3766(3)
N6 N 0.5622(3) 0.8673(3) 0.3935(3)
H20 H 0.5761 0.8955 0.3679
N7 N 0.5780(3) 0.8095(3) 0.4825(3)
C25 C 0.2544(3) 0.6666(2) 0.2491(3)
C26 C 0.1892(3) 0.6598(3) 0.2533(3)
H21 H 0.1628 0.6905 0.2366
C27 C 0.1643(3) 0.6079(3) 0.2820(3)
H22 H 0.1208 0.6035 0.2847
C28 C 0.2024(3) 0.5624(3) 0.3068(3)
C29 C 0.2673(3) 0.5704(3) 0.3037(3)
H23 H 0.2938 0.5410 0.3223
C30 C 0.2917(3) 0.6209(3) 0.2738(3)
H24 H 0.3352 0.6245 0.2700
C31 C 0.1787(3) 0.5069(3) 0.3382(3)
H25 H 0.2061 0.4837 0.3632
C32 C 0.0519(3) 0.4080(3) 0.3592(3)
C33 C 0.0341(4) 0.3613(4) 0.4014(4)
H26 H 0.0598 0.3513 0.4354
N8 N 0.1234(3) 0.4888(2) 0.3334(2)
N9 N 0.1065(3) 0.4378(3) 0.3673(3)
H30 H 0.1321 0.4239 0.3955
N10 N 0.0175(3) 0.4220(3) 0.3095(3)
Ag2 Ag 0.5000 0.7500 0.45334(4)
Ag3 Ag 0.04666(4) 0.5000 0.2500
C37 C 0.7491(3) 0.7544(3) 0.1666(2)
C38 C 0.7533(3) 0.6892(3) 0.1598(3)
H31 H 0.7366 0.6628 0.1905
C39 C 0.7820(3) 0.6643(3) 0.1079(3)
H32 H 0.7847 0.6208 0.1035
C40 C 0.8068(3) 0.7024(3) 0.0624(3)
C41 C 0.8037(3) 0.7673(3) 0.0704(3)
H33 H 0.8223 0.7938 0.0410
C42 C 0.7738(3) 0.7917(3) 0.1209(3)
H34 H 0.7700 0.8352 0.1245
C43 C 0.8382(3) 0.6787(3) 0.0069(3)
N11 N 0.7202(3) 0.7798(3) 0.2202(3)
C49 C 0.6666(2) 0.7509(3) 0.2456(3)
C50 C 0.6598(3) 0.7467(3) 0.3108(3)
H41 H 0.6905 0.7634 0.3372
C51 C 0.6079(3) 0.7180(3) 0.3357(3)
H42 H 0.6035 0.7153 0.3792
C52 C 0.5624(3) 0.6932(3) 0.2976(3)
C53 C 0.5704(3) 0.6963(3) 0.2327(3)
H43 H 0.5410 0.6777 0.2062
C54 C 0.6209(3) 0.7262(3) 0.2083(3)
H44 H 0.6245 0.7300 0.1648
C55 C 0.5069(3) 0.6618(3) 0.3213(3)
H45 H 0.4837 0.6368 0.2939
C56 C 0.4080(3) 0.6408(3) 0.4481(3)
C57 C 0.3613(4) 0.5986(4) 0.4659(4)
H46 H 0.3513 0.5646 0.4402
C58 C 0.3303(5) 0.6075(5) 0.5209(5)
H47 H 0.2999 0.5789 0.5342
C59 C 0.3449(5) 0.6612(7) 0.5581(5)
H48 H 0.3244 0.6687 0.5961
C60 C 0.3892(5) 0.7005(5) 0.5365(4)
H49 H 0.3980 0.7365 0.5597
N15 N 0.4888(2) 0.6666(2) 0.3766(3)
N16 N 0.4378(3) 0.6327(3) 0.3935(3)
H50 H 0.4239 0.6045 0.3679
N17 N 0.4220(3) 0.6905(3) 0.4825(3)
C61 C 0.7456(3) 0.8334(2) 0.2491(3)
C62 C 0.8108(3) 0.8402(3) 0.2533(3)
H51 H 0.8372 0.8095 0.2366
C63 C 0.8357(3) 0.8921(3) 0.2820(3)
H52 H 0.8792 0.8965 0.2847
C64 C 0.7976(3) 0.9376(3) 0.3068(3)
C65 C 0.7327(3) 0.9296(3) 0.3037(3)
H53 H 0.7062 0.9590 0.3223
C66 C 0.7083(3) 0.8791(3) 0.2738(3)
H54 H 0.6648 0.8755 0.2700
C67 C 0.8213(3) 0.9931(3) 0.3382(3)
Ag4 Ag 0.7500 0.54666(4) 0.0000
Ag5_2 Ag 0.95334(4) 1.0000 0.2500
N21 N 0.3334(2) 0.8766(3) 0.0112(2)
N22 N 0.1234(3) 0.5112(2) 0.1666(2)
N23 N 0.3095(3) 0.9825(3) 0.0780(3)
N24 N 0.0175(3) 0.5780(3) 0.1905(3)
Ag1_2 Ag 0.2500 0.95334(4) 1.0000
H5 H 0.1368 0.7939 0.9837
C8 C 0.1408(3) 0.9481(3) 0.9080(3)
C9 C 0.0986(4) 0.9659(4) 0.8613(4)
H6 H 0.0646 0.9402 0.8513
N2 N 0.1666(2) 0.8766(3) 0.9888(2)
N3 N 0.1327(3) 0.8935(3) 0.9378(3)
H10 H 0.1045 0.8679 0.9239
N4 N 0.1905(3) 0.9825(3) 0.9220(3)
H35 H 0.8632 0.7061 0.9837
C44 C 0.8592(3) 0.5519(3) 0.9080(3)
C45 C 0.9014(4) 0.5341(4) 0.8613(4)
H36 H 0.9354 0.5598 0.8513
C46 C 0.8925(5) 0.4791(5) 0.8303(5)
H37 H 0.9211 0.4658 0.7999
C47 C 0.8388(7) 0.4419(5) 0.8449(5)
H38 H 0.8313 0.4039 0.8244
C48 C 0.7995(5) 0.4635(4) 0.8892(5)
H39 H 0.7635 0.4403 0.8980
N12 N 0.8334(2) 0.6234(3) 0.9888(2)
N13 N 0.8673(3) 0.6065(3) 0.9378(3)
H40 H 0.8955 0.6321 0.9239
N14 N 0.8095(3) 0.5175(3) 0.9220(3)
Ag4_2 Ag 0.7500 0.54666(4) 1.0000
C34 C 0.9791(5) 0.3303(5) 0.3925(5)
H27 H 0.9658 0.2999 0.4211
C35 C 0.9419(5) 0.3449(5) 0.3388(7)
H28 H 0.9039 0.3244 0.3313
C36 C 0.9635(4) 0.3892(5) 0.2995(5)
H29 H 0.9403 0.3980 0.2635
Ag1_3 Ag 0.2500 0.04666(4) 0.5000
C1_2 C 0.2491(3) 0.2544(3) 0.6666(2)
C2_2 C 0.2533(3) 0.1892(3) 0.6598(3)
H1_2 H 0.2366 0.1628 0.6905
C3_2 C 0.2820(3) 0.1643(3) 0.6079(3)
H2_2 H 0.2847 0.1208 0.6035
C4_2 C 0.3068(3) 0.2024(3) 0.5624(3)
C5_2 C 0.3037(3) 0.2673(3) 0.5704(3)
H3_2 H 0.3223 0.2938 0.5410
C6_2 C 0.2738(3) 0.2917(3) 0.6209(3)
H4_2 H 0.2700 0.3352 0.6245
C7_2 C 0.3382(3) 0.1787(3) 0.5069(3)
H5_2 H 0.3632 0.2061 0.4837
C8_2 C 0.3592(3) 0.0519(3) 0.4080(3)
C9_2 C 0.4014(4) 0.0341(4) 0.3613(4)
H6_2 H 0.4354 0.0598 0.3513
N1_2 N 0.2202(3) 0.2798(3) 0.7202(3)
N2_2 N 0.3334(2) 0.1234(3) 0.4888(2)
N3_2 N 0.3673(3) 0.1065(3) 0.4378(3)
H10_2 H 0.3955 0.1321 0.4239
N4_2 N 0.3095(3) 0.0175(3) 0.4220(3)
C13_2 C 0.1666(2) 0.2509(3) 0.7456(3)
C14_2 C 0.1598(3) 0.2467(3) 0.8108(3)
H11_2 H 0.1905 0.2634 0.8372
C15_2 C 0.1079(3) 0.2180(3) 0.8357(3)
H12_2 H 0.1035 0.2153 0.8792
C16_2 C 0.0624(3) 0.1932(3) 0.7976(3)
C17_2 C 0.0704(3) 0.1963(3) 0.7327(3)
H13_2 H 0.0410 0.1777 0.7062
C18_2 C 0.1209(3) 0.2262(3) 0.7083(3)
H14_2 H 0.1245 0.2300 0.6648
C19_2 C 0.0069(3) 0.1618(3) 0.8213(3)
C25_2 C 0.2456(3) 0.3334(2) 0.7491(3)
C26_2 C 0.3108(3) 0.3402(3) 0.7533(3)
H21_2 H 0.3372 0.3095 0.7366
C27_2 C 0.3357(3) 0.3921(3) 0.7820(3)
H22_2 H 0.3792 0.3965 0.7847
C28_2 C 0.2976(3) 0.4376(3) 0.8068(3)
C29_2 C 0.2327(3) 0.4296(3) 0.8037(3)
H23_2 H 0.2062 0.4590 0.8223
C30_2 C 0.2083(3) 0.3791(3) 0.7738(3)
H24_2 H 0.1648 0.3755 0.7700
C31_2 C 0.3213(3) 0.4931(3) 0.8382(3)
H25_2 H 0.2939 0.5163 0.8632
C32_2 C 0.4481(3) 0.5920(3) 0.8592(3)
C33_2 C 0.4659(4) 0.6387(4) 0.9014(4)
H26_2 H 0.4402 0.6487 0.9354
C34_2 C 0.5209(5) 0.6697(5) 0.8925(5)
H27_2 H 0.5342 0.7001 0.9211
C35_2 C 0.5581(5) 0.6551(5) 0.8388(7)
H28_2 H 0.5961 0.6756 0.8313
C36_2 C 0.5365(4) 0.6108(5) 0.7995(5)
H29_2 H 0.5597 0.6020 0.7635
N8_2 N 0.3766(3) 0.5112(2) 0.8334(2)
N9_2 N 0.3935(3) 0.5622(3) 0.8673(3)
H30_2 H 0.3679 0.5761 0.8955
N10_2 N 0.4825(3) 0.5780(3) 0.8095(3)
Ag2_2 Ag 0.0000 0.2500 0.95334(4)
Ag3_2 Ag 0.45334(4) 0.5000 0.7500
H45_2 H 0.0163 0.3632 0.7939
C56_2 C 0.0920(3) 0.3592(3) 0.9481(3)
C57_2 C 0.1387(4) 0.4014(4) 0.9659(4)
H46_2 H 0.1487 0.4354 0.9402
N15_2 N 0.0112(2) 0.3334(2) 0.8766(3)
N16_2 N 0.0622(3) 0.3673(3) 0.8935(3)
H50_2 H 0.0761 0.3955 0.8679
N17_2 N 0.0780(3) 0.3095(3) 0.9825(3)
N21_2 N 0.1666(2) 0.1234(3) 0.5112(2)
N22_2 N 0.3766(3) 0.4888(2) 0.6666(2)
N23_2 N 0.1905(3) 0.0175(3) 0.5780(3)
N24_2 N 0.4825(3) 0.4220(3) 0.6905(3)
C10 C 0.3925(5) 0.9791(5) 0.3303(5)
H7 H 0.4211 0.9658 0.2999
C11 C 0.3388(7) 0.9419(5) 0.3449(5)
H8 H 0.3313 0.9039 0.3244
C12 C 0.2995(5) 0.9635(4) 0.3892(5)
H9 H 0.2635 0.9403 0.3980
H15_2 H 0.9837 0.1368 0.7939
C20_2 C 0.9080(3) 0.1408(3) 0.9481(3)
C21_2 C 0.8613(4) 0.0986(4) 0.9659(4)
H16_2 H 0.8513 0.0646 0.9402
N5_2 N 0.9888(2) 0.1666(2) 0.8766(3)
N6_2 N 0.9378(3) 0.1327(3) 0.8935(3)
H20_2 H 0.9239 0.1045 0.8679
N7_2 N 0.9220(3) 0.1905(3) 0.9825(3)
Ag2_3 Ag 1.0000 0.2500 0.95334(4)
C37_2 C 0.7509(3) 0.2456(3) 0.6666(2)
C38_2 C 0.7467(3) 0.3108(3) 0.6598(3)
H31_2 H 0.7634 0.3372 0.6905
C39_2 C 0.7180(3) 0.3357(3) 0.6079(3)
H32_2 H 0.7153 0.3792 0.6035
C40_2 C 0.6932(3) 0.2976(3) 0.5624(3)
C41_2 C 0.6963(3) 0.2327(3) 0.5704(3)
H33_2 H 0.6777 0.2062 0.5410
C42_2 C 0.7262(3) 0.2083(3) 0.6209(3)
H34_2 H 0.7300 0.1648 0.6245
C43_2 C 0.6618(3) 0.3213(3) 0.5069(3)
H35_2 H 0.6368 0.2939 0.4837
C44_2 C 0.6408(3) 0.4481(3) 0.4080(3)
C45_2 C 0.5986(4) 0.4659(4) 0.3613(4)
H36_2 H 0.5646 0.4402 0.3513
C46_2 C 0.6075(5) 0.5209(5) 0.3303(5)
H37_2 H 0.5789 0.5342 0.2999
C47_2 C 0.6612(7) 0.5581(5) 0.3449(5)
H38_2 H 0.6687 0.5961 0.3244
C48_2 C 0.7005(5) 0.5365(4) 0.3892(5)
H39_2 H 0.7365 0.5597 0.3980
N11_2 N 0.7798(3) 0.2202(3) 0.7202(3)
N12_2 N 0.6666(2) 0.3766(3) 0.4888(2)
N13_2 N 0.6327(3) 0.3935(3) 0.4378(3)
H40_2 H 0.6045 0.3679 0.4239
N14_2 N 0.6905(3) 0.4825(3) 0.4220(3)
C49_2 C 0.8334(2) 0.2491(3) 0.7456(3)
C50_2 C 0.8402(3) 0.2533(3) 0.8108(3)
H41_2 H 0.8095 0.2366 0.8372
C51_2 C 0.8921(3) 0.2820(3) 0.8357(3)
H42_2 H 0.8965 0.2847 0.8792
C52_2 C 0.9376(3) 0.3068(3) 0.7976(3)
C53_2 C 0.9296(3) 0.3037(3) 0.7327(3)
H43_2 H 0.9590 0.3223 0.7062
C54_2 C 0.8791(3) 0.2738(3) 0.7083(3)
H44_2 H 0.8755 0.2700 0.6648
C55_2 C 0.9931(3) 0.3382(3) 0.8213(3)
C61_2 C 0.7544(3) 0.1666(2) 0.7491(3)
C62_2 C 0.6892(3) 0.1598(3) 0.7533(3)
H51_2 H 0.6628 0.1905 0.7366
C63_2 C 0.6643(3) 0.1079(3) 0.7820(3)
H52_2 H 0.6208 0.1035 0.7847
C64_2 C 0.7024(3) 0.0624(3) 0.8068(3)
C65_2 C 0.7673(3) 0.0704(3) 0.8037(3)
H53_2 H 0.7938 0.0410 0.8223
C66_2 C 0.7917(3) 0.1209(3) 0.7738(3)
H54_2 H 0.8352 0.1245 0.7700
C67_2 C 0.6787(3) 0.0069(3) 0.8382(3)
Ag4_3 Ag 0.7500 0.45334(4) 0.5000
Ag5_3 Ag 0.54666(4) -0.0000 0.7500
H55_2 H 0.7061 0.9837 0.8632
C68_2 C 0.5519(3) 0.9080(3) 0.8592(3)
C69_2 C 0.5341(4) 0.8613(4) 0.9014(4)
H56_2 H 0.5598 0.8513 0.9354
C70_2 C 0.4791(5) 0.8303(5) 0.8925(5)
H57_2 H 0.4658 0.7999 0.9211
C71_2 C 0.4419(5) 0.8449(5) 0.8388(7)
H58_2 H 0.4039 0.8244 0.8313
C72_2 C 0.4635(4) 0.8892(5) 0.7995(5)
H59_2 H 0.4403 0.8980 0.7635
N18_2 N 0.6234(3) 0.9888(2) 0.8334(2)
N19_2 N 0.6065(3) 0.9378(3) 0.8673(3)
H60_2 H 0.6321 0.9239 0.8955
N20_2 N 0.5175(3) 0.9220(3) 0.8095(3)
Ag5_4 Ag 0.54666(4) 1.0000 0.7500
C1_3 C 0.7491(3) 0.2456(3) 0.3334(2)
C2_3 C 0.7533(3) 0.3108(3) 0.3402(3)
H1_3 H 0.7366 0.3372 0.3095
C3_3 C 0.7820(3) 0.3357(3) 0.3921(3)
H2_3 H 0.7847 0.3792 0.3965
C4_3 C 0.8068(3) 0.2976(3) 0.4376(3)
C5_3 C 0.8037(3) 0.2327(3) 0.4296(3)
H3_3 H 0.8223 0.2062 0.4590
C6_3 C 0.7738(3) 0.2083(3) 0.3791(3)
H4_3 H 0.7700 0.1648 0.3755
C7_3 C 0.8382(3) 0.3213(3) 0.4931(3)
H5_3 H 0.8632 0.2939 0.5163
C8_3 C 0.8592(3) 0.4481(3) 0.5920(3)
C9_3 C 0.9014(4) 0.4659(4) 0.6387(4)
H6_3 H 0.9354 0.4402 0.6487
C10_2 C 0.8925(5) 0.5209(5) 0.6697(5)
H7_2 H 0.9211 0.5342 0.7001
C11_2 C 0.8388(7) 0.5581(5) 0.6551(5)
H8_2 H 0.8313 0.5961 0.6756
C12_2 C 0.7995(5) 0.5365(4) 0.6108(5)
H9_2 H 0.7635 0.5597 0.6020
N1_3 N 0.7202(3) 0.2202(3) 0.2798(3)
N2_3 N 0.8334(2) 0.3766(3) 0.5112(2)
N3_3 N 0.8673(3) 0.3935(3) 0.5622(3)
H10_3 H 0.8955 0.3679 0.5761
N4_3 N 0.8095(3) 0.4825(3) 0.5780(3)
C13_3 C 0.6666(2) 0.2491(3) 0.2544(3)
C14_3 C 0.6598(3) 0.2533(3) 0.1892(3)
H11_3 H 0.6905 0.2366 0.1628
C15_3 C 0.6079(3) 0.2820(3) 0.1643(3)
H12_3 H 0.6035 0.2847 0.1208
C16_3 C 0.5624(3) 0.3068(3) 0.2024(3)
C17_3 C 0.5704(3) 0.3037(3) 0.2673(3)
H13_3 H 0.5410 0.3223 0.2938
C18_3 C 0.6209(3) 0.2738(3) 0.2917(3)
H14_3 H 0.6245 0.2700 0.3352
C19_3 C 0.5069(3) 0.3382(3) 0.1787(3)
H15_3 H 0.4837 0.3632 0.2061
C20_3 C 0.4080(3) 0.3592(3) 0.0519(3)
C21_3 C 0.3613(4) 0.4014(4) 0.0341(4)
H16_3 H 0.3513 0.4354 0.0598
N5_3 N 0.4888(2) 0.3334(2) 0.1234(3)
N6_3 N 0.4378(3) 0.3673(3) 0.1065(3)
H20_3 H 0.4239 0.3955 0.1321
N7_3 N 0.4220(3) 0.3095(3) 0.0175(3)
C25_3 C 0.7456(3) 0.1666(2) 0.2509(3)
C26_3 C 0.8108(3) 0.1598(3) 0.2467(3)
H21_3 H 0.8372 0.1905 0.2634
C27_3 C 0.8357(3) 0.1079(3) 0.2180(3)
H22_3 H 0.8792 0.1035 0.2153
C28_3 C 0.7976(3) 0.0624(3) 0.1932(3)
C29_3 C 0.7327(3) 0.0704(3) 0.1963(3)
H23_3 H 0.7062 0.0410 0.1777
C30_3 C 0.7083(3) 0.1209(3) 0.2262(3)
H24_3 H 0.6648 0.1245 0.2300
C31_3 C 0.8213(3) 0.0069(3) 0.1618(3)
Ag2_4 Ag 0.5000 0.2500 0.04666(4)
C37_3 C 0.2509(3) 0.2544(3) 0.3334(2)
C38_3 C 0.2467(3) 0.1892(3) 0.3402(3)
H31_3 H 0.2634 0.1628 0.3095
C39_3 C 0.2180(3) 0.1643(3) 0.3921(3)
H32_3 H 0.2153 0.1208 0.3965
C40_3 C 0.1932(3) 0.2024(3) 0.4376(3)
C41_3 C 0.1963(3) 0.2673(3) 0.4296(3)
H33_3 H 0.1777 0.2938 0.4590
C42_3 C 0.2262(3) 0.2917(3) 0.3791(3)
H34_3 H 0.2300 0.3352 0.3755
C43_3 C 0.1618(3) 0.1787(3) 0.4931(3)
H35_3 H 0.1368 0.2061 0.5163
C44_3 C 0.1408(3) 0.0519(3) 0.5920(3)
C45_3 C 0.0986(4) 0.0341(4) 0.6387(4)
H36_3 H 0.0646 0.0598 0.6487
N11_3 N 0.2798(3) 0.2798(3) 0.2798(3)
N13_3 N 0.1327(3) 0.1065(3) 0.5622(3)
H40_3 H 0.1045 0.1321 0.5761
C49_3 C 0.3334(2) 0.2509(3) 0.2544(3)
C50_3 C 0.3402(3) 0.2467(3) 0.1892(3)
H41_3 H 0.3095 0.2634 0.1628
C51_3 C 0.3921(3) 0.2180(3) 0.1643(3)
H42_3 H 0.3965 0.2153 0.1208
C52_3 C 0.4376(3) 0.1932(3) 0.2024(3)
C53_3 C 0.4296(3) 0.1963(3) 0.2673(3)
H43_3 H 0.4590 0.1777 0.2938
C54_3 C 0.3791(3) 0.2262(3) 0.2917(3)
H44_3 H 0.3755 0.2300 0.3352
C55_3 C 0.4931(3) 0.1618(3) 0.1787(3)
H45_3 H 0.5163 0.1368 0.2061
C56_3 C 0.5920(3) 0.1408(3) 0.0519(3)
C57_3 C 0.6387(4) 0.0986(4) 0.0341(4)
H46_3 H 0.6487 0.0646 0.0598
N15_3 N 0.5112(2) 0.1666(2) 0.1234(3)
N16_3 N 0.5622(3) 0.1327(3) 0.1065(3)
H50_3 H 0.5761 0.1045 0.1321
N17_3 N 0.5780(3) 0.1905(3) 0.0175(3)
C61_3 C 0.2544(3) 0.3334(2) 0.2509(3)
C62_3 C 0.1892(3) 0.3402(3) 0.2467(3)
H51_3 H 0.1628 0.3095 0.2634
C63_3 C 0.1643(3) 0.3921(3) 0.2180(3)
H52_3 H 0.1208 0.3965 0.2153
C64_3 C 0.2024(3) 0.4376(3) 0.1932(3)
C65_3 C 0.2673(3) 0.4296(3) 0.1963(3)
H53_3 H 0.2938 0.4590 0.1777
C66_3 C 0.2917(3) 0.3791(3) 0.2262(3)
H54_3 H 0.3352 0.3755 0.2300
C67_3 C 0.1787(3) 0.4931(3) 0.1618(3)
H55_3 H 0.2061 0.5163 0.1368
C68_3 C 0.0519(3) 0.5920(3) 0.1408(3)
C69_3 C 0.0341(4) 0.6387(4) 0.0986(4)
H56_3 H 0.0598 0.6487 0.0646
N19_3 N 0.1065(3) 0.5622(3) 0.1327(3)
H60_3 H 0.1321 0.5761 0.1045
C22_2 C 0.3303(5) 0.3925(5) 0.9791(5)
H17_2 H 0.2999 0.4211 0.9658
C23_2 C 0.3449(5) 0.3388(7) 0.9419(5)
H18_2 H 0.3244 0.3313 0.9039
C24_2 C 0.3892(5) 0.2995(5) 0.9635(4)
H19_2 H 0.3980 0.2635 0.9403
C58_2 C 0.6697(5) 0.1075(5) 0.9791(5)
H47_2 H 0.7001 0.0789 0.9658
C59_2 C 0.6551(5) 0.1612(7) 0.9419(5)
H48_2 H 0.6756 0.1687 0.9039
C60_2 C 0.6108(5) 0.2005(5) 0.9635(4)
H49_2 H 0.6020 0.2365 0.9403
H25_3 H 0.7939 0.9837 0.1368
C32_3 C 0.9481(3) 0.9080(3) 0.1408(3)
C33_3 C 0.9659(4) 0.8613(4) 0.0986(4)
H26_3 H 0.9402 0.8513 0.0646
N8_3 N 0.8766(3) 0.9888(2) 0.1666(2)
N9_3 N 0.8935(3) 0.9378(3) 0.1327(3)
H30_3 H 0.8679 0.9239 0.1045
N10_3 N 0.9825(3) 0.9220(3) 0.1905(3)
C46_3 C 0.1075(5) 0.9791(5) 0.6697(5)
H37_3 H 0.0789 0.9658 0.7001
C47_3 C 0.1612(7) 0.9419(5) 0.6551(5)
H38_3 H 0.1687 0.9039 0.6756
C48_3 C 0.2005(5) 0.9635(4) 0.6108(5)
H39_3 H 0.2365 0.9403 0.6020
C70_3 C 0.9791(5) 0.6697(5) 0.1075(5)
H57_3 H 0.9658 0.7001 0.0789
C71_3 C 0.9419(5) 0.6551(5) 0.1612(7)
H58_3 H 0.9039 0.6756 0.1687
C72_3 C 0.9635(4) 0.6108(5) 0.2005(5)
H59_3 H 0.9403 0.6020 0.2365
H35_4 H 0.3632 0.7939 0.0163
C44_4 C 0.3592(3) 0.9481(3) 0.0920(3)
C45_4 C 0.4014(4) 0.9659(4) 0.1387(4)
H36_4 H 0.4354 0.9402 0.1487
N13_4 N 0.3673(3) 0.8935(3) 0.0622(3)
H40_4 H 0.3955 0.8679 0.0761
H15_4 H 0.0163 0.6368 0.7061
C20_4 C 0.0920(3) 0.6408(3) 0.5519(3)
C21_4 C 0.1387(4) 0.5986(4) 0.5341(4)
H16_4 H 0.1487 0.5646 0.5598
C22_3 C 0.1697(5) 0.6075(5) 0.4791(5)
H17_3 H 0.2001 0.5789 0.4658
C23_3 C 0.1551(5) 0.6612(7) 0.4419(5)
H18_3 H 0.1756 0.6687 0.4039
C24_3 C 0.1108(5) 0.7005(5) 0.4635(4)
H19_3 H 0.1020 0.7365 0.4403
N5_4 N 0.0112(2) 0.6666(2) 0.6234(3)
N6_4 N 0.0622(3) 0.6327(3) 0.6065(3)
H20_4 H 0.0761 0.6045 0.6321
N7_4 N 0.0780(3) 0.6905(3) 0.5175(3)
Ag2_5 Ag -0.0000 0.7500 0.54666(4)
C37_4 C 0.2491(3) 0.7456(3) 0.8334(2)
C38_4 C 0.2533(3) 0.8108(3) 0.8402(3)
H31_4 H 0.2366 0.8372 0.8095
C39_4 C 0.2820(3) 0.8357(3) 0.8921(3)
H32_4 H 0.2847 0.8792 0.8965
C40_4 C 0.3068(3) 0.7976(3) 0.9376(3)
C41_4 C 0.3037(3) 0.7327(3) 0.9296(3)
H33_4 H 0.3223 0.7062 0.9590
C42_4 C 0.2738(3) 0.7083(3) 0.8791(3)
H34_4 H 0.2700 0.6648 0.8755
C43_4 C 0.3382(3) 0.8213(3) 0.9931(3)
N11_4 N 0.2202(3) 0.7202(3) 0.7798(3)
C49_4 C 0.1666(2) 0.7491(3) 0.7544(3)
C50_4 C 0.1598(3) 0.7533(3) 0.6892(3)
H41_4 H 0.1905 0.7366 0.6628
C51_4 C 0.1079(3) 0.7820(3) 0.6643(3)
H42_4 H 0.1035 0.7847 0.6208
C52_4 C 0.0624(3) 0.8068(3) 0.7024(3)
C53_4 C 0.0704(3) 0.8037(3) 0.7673(3)
H43_4 H 0.0410 0.8223 0.7938
C54_4 C 0.1209(3) 0.7738(3) 0.7917(3)
H44_4 H 0.1245 0.7700 0.8352
C55_4 C 0.0069(3) 0.8382(3) 0.6787(3)
C61_4 C 0.2456(3) 0.6666(2) 0.7509(3)
C62_4 C 0.3108(3) 0.6598(3) 0.7467(3)
H51_4 H 0.3372 0.6905 0.7634
C63_4 C 0.3357(3) 0.6079(3) 0.7180(3)
H52_4 H 0.3792 0.6035 0.7153
C64_4 C 0.2976(3) 0.5624(3) 0.6932(3)
C65_4 C 0.2327(3) 0.5704(3) 0.6963(3)
H53_4 H 0.2062 0.5410 0.6777
C66_4 C 0.2083(3) 0.6209(3) 0.7262(3)
H54_4 H 0.1648 0.6245 0.7300
C67_4 C 0.3213(3) 0.5069(3) 0.6618(3)
H55_4 H 0.2939 0.4837 0.6368
C68_4 C 0.4481(3) 0.4080(3) 0.6408(3)
C69_4 C 0.4659(4) 0.3613(4) 0.5986(4)
H56_4 H 0.4402 0.3513 0.5646
C70_4 C 0.5209(5) 0.3303(5) 0.6075(5)
H57_4 H 0.5342 0.2999 0.5789
C71_4 C 0.5581(5) 0.3449(5) 0.6612(7)
H58_4 H 0.5961 0.3244 0.6687
C72_4 C 0.5365(4) 0.3892(5) 0.7005(5)
H59_4 H 0.5597 0.3980 0.7365
N19_4 N 0.3935(3) 0.4378(3) 0.6327(3)
H60_4 H 0.3679 0.4239 0.6045
H25_4 H 0.7061 0.0163 0.6368
C32_4 C 0.5519(3) 0.0920(3) 0.6408(3)
C33_4 C 0.5341(4) 0.1387(4) 0.5986(4)
H26_4 H 0.5598 0.1487 0.5646
C34_3 C 0.4791(5) 0.1697(5) 0.6075(5)
H27_3 H 0.4658 0.2001 0.5789
C35_3 C 0.4419(5) 0.1551(5) 0.6612(7)
H28_3 H 0.4039 0.1756 0.6687
C36_3 C 0.4635(4) 0.1108(5) 0.7005(5)
H29_3 H 0.4403 0.1020 0.7365
N8_4 N 0.6234(3) 0.0112(2) 0.6666(2)
N9_4 N 0.6065(3) 0.0622(3) 0.6327(3)
H30_4 H 0.6321 0.0761 0.6045
N10_4 N 0.5175(3) 0.0780(3) 0.6905(3)
H5_4 H 0.6368 0.7061 0.0163
C8_4 C 0.6408(3) 0.5519(3) 0.0920(3)
C9_4 C 0.5986(4) 0.5341(4) 0.1387(4)
H6_4 H 0.5646 0.5598 0.1487
C10_3 C 0.6075(5) 0.4791(5) 0.1697(5)
H7_3 H 0.5789 0.4658 0.2001
C11_3 C 0.6612(7) 0.4419(5) 0.1551(5)
H8_3 H 0.6687 0.4039 0.1756
C12_3 C 0.7005(5) 0.4635(4) 0.1108(5)
H9_3 H 0.7365 0.4403 0.1020
N2_4 N 0.6666(2) 0.6234(3) 0.0112(2)
N3_4 N 0.6327(3) 0.6065(3) 0.0622(3)
H10_4 H 0.6045 0.6321 0.0761
N4_4 N 0.6905(3) 0.5175(3) 0.0780(3)
C1_4 C 0.7509(3) 0.7544(3) 0.8334(2)
C2_4 C 0.7467(3) 0.6892(3) 0.8402(3)
H1_4 H 0.7634 0.6628 0.8095
C3_4 C 0.7180(3) 0.6643(3) 0.8921(3)
H2_4 H 0.7153 0.6208 0.8965
C4_4 C 0.6932(3) 0.7024(3) 0.9376(3)
C5_4 C 0.6963(3) 0.7673(3) 0.9296(3)
H3_4 H 0.6777 0.7938 0.9590
C6_4 C 0.7262(3) 0.7917(3) 0.8791(3)
H4_4 H 0.7300 0.8352 0.8755
C7_4 C 0.6618(3) 0.6787(3) 0.9931(3)
N1_4 N 0.7798(3) 0.7798(3) 0.7798(3)
C13_4 C 0.8334(2) 0.7509(3) 0.7544(3)
C14_4 C 0.8402(3) 0.7467(3) 0.6892(3)
H11_4 H 0.8095 0.7634 0.6628
C15_4 C 0.8921(3) 0.7180(3) 0.6643(3)
H12_4 H 0.8965 0.7153 0.6208
C16_4 C 0.9376(3) 0.6932(3) 0.7024(3)
C17_4 C 0.9296(3) 0.6963(3) 0.7673(3)
H13_4 H 0.9590 0.6777 0.7938
C18_4 C 0.8791(3) 0.7262(3) 0.7917(3)
H14_4 H 0.8755 0.7300 0.8352
C19_4 C 0.9931(3) 0.6618(3) 0.6787(3)
C25_4 C 0.7544(3) 0.8334(2) 0.7509(3)
C26_4 C 0.6892(3) 0.8402(3) 0.7467(3)
H21_4 H 0.6628 0.8095 0.7634
C27_4 C 0.6643(3) 0.8921(3) 0.7180(3)
H22_4 H 0.6208 0.8965 0.7153
C28_4 C 0.7024(3) 0.9376(3) 0.6932(3)
C29_4 C 0.7673(3) 0.9296(3) 0.6963(3)
H23_4 H 0.7938 0.9590 0.6777
C30_4 C 0.7917(3) 0.8791(3) 0.7262(3)
H24_4 H 0.8352 0.8755 0.7300
C31_4 C 0.6787(3) 0.9931(3) 0.6618(3)
Ag2_6 Ag 1.0000 0.7500 0.54666(4)
H45_4 H 0.9837 0.8632 0.7061
C56_4 C 0.9080(3) 0.8592(3) 0.5519(3)
C57_4 C 0.8613(4) 0.9014(4) 0.5341(4)
H46_4 H 0.8513 0.9354 0.5598
C58_3 C 0.8303(5) 0.8925(5) 0.4791(5)
H47_3 H 0.7999 0.9211 0.4658
C59_3 C 0.8449(5) 0.8388(7) 0.4419(5)
H48_3 H 0.8244 0.8313 0.4039
C60_3 C 0.8892(5) 0.7995(5) 0.4635(4)
H49_3 H 0.8980 0.7635 0.4403
N15_4 N 0.9888(2) 0.8334(2) 0.6234(3)
N16_4 N 0.9378(3) 0.8673(3) 0.6065(3)
H50_4 H 0.9239 0.8955 0.6321
N17_4 N 0.9220(3) 0.8095(3) 0.5175(3)
C10_4 C 0.1075(5) 0.0209(5) 0.8303(5)
H7_4 H 0.0789 0.0342 0.7999
C11_4 C 0.1612(7) 0.0581(5) 0.8449(5)
H8_4 H 0.1687 0.0961 0.8244
C12_4 C 0.2005(5) 0.0365(4) 0.8892(5)
H9_4 H 0.2365 0.0597 0.8980
C58_4 C 0.1697(5) 0.3925(5) 0.0209(5)
H47_4 H 0.2001 0.4211 0.0342
C59_4 C 0.1551(5) 0.3388(7) 0.0581(5)
H48_4 H 0.1756 0.3313 0.0961
C60_4 C 0.1108(5) 0.2995(5) 0.0365(4)
H49_4 H 0.1020 0.2635 0.0597
C22_4 C 0.8303(5) 0.1075(5) 0.0209(5)
H17_4 H 0.7999 0.0789 0.0342
C23_4 C 0.8449(5) 0.1612(7) 0.0581(5)
H18_4 H 0.8244 0.1687 0.0961
C24_4 C 0.8892(5) 0.2005(5) 0.0365(4)
H19_4 H 0.8980 0.2365 0.0597
C34_4 C 0.0209(5) 0.8303(5) 0.1075(5)
H27_4 H 0.0342 0.7999 0.0789
C35_4 C 0.0581(5) 0.8449(5) 0.1612(7)
H28_4 H 0.0961 0.8244 0.1687
C36_4 C 0.0365(4) 0.8892(5) 0.2005(5)
H29_4 H 0.0597 0.8980 0.2365
C46_4 C 0.3925(5) 0.0209(5) 0.1697(5)
H37_4 H 0.4211 0.0342 0.2001
C47_4 C 0.3388(7) 0.0581(5) 0.1551(5)
H38_4 H 0.3313 0.0961 0.1756
C48_4 C 0.2995(5) 0.0365(4) 0.1108(5)
H39_4 H 0.2635 0.0597 0.1020
Cl1 Cl -0.0000 0.7500 0.94274(10)
O3 O 0.0477(3) 0.7253(3) 0.9789(4)
O4 O 0.0264(3) 0.7966(4) 0.9064(3)
Cl1_2 Cl 1.0000 0.7500 0.94274(10)
O1 O 0.9523(3) 0.7747(3) 0.9789(4)
O2 O 0.9736(3) 0.7034(4) 0.9064(3)
Cl1_3 Cl 0.5000 0.2500 0.44274(10)
O1_2 O 0.5477(3) 0.2253(3) 0.4789(4)
O2_2 O 0.5264(3) 0.2966(4) 0.4064(3)
O3_2 O 0.4523(3) 0.2747(3) 0.4789(4)
O4_2 O 0.4736(3) 0.2034(4) 0.4064(3)
Cl1_4 Cl 0.0000 0.2500 0.55726(10)
O1_3 O 0.0477(3) 0.2747(3) 0.5211(4)
O2_3 O 0.0264(3) 0.2034(4) 0.5936(3)
Cl1_5 Cl 1.0000 0.2500 0.55726(10)
O3_3 O 0.9523(3) 0.2253(3) 0.5211(4)
O4_3 O 0.9736(3) 0.2966(4) 0.5936(3)
Cl1_6 Cl 0.5000 0.7500 0.05726(10)
O1_4 O 0.4523(3) 0.7253(3) 0.0211(4)
O2_4 O 0.4736(3) 0.7966(4) 0.0936(3)
O3_4 O 0.5477(3) 0.7747(3) 0.0211(4)
O4_4 O 0.5264(3) 0.7034(4) 0.0936(3)
Cl1_7 Cl 0.94274(10) -0.0000 0.7500
O3_5 O 0.9789(4) 0.0477(3) 0.7253(3)
O4_5 O 0.9064(3) 0.0264(3) 0.7966(4)
Cl1_8 Cl 0.94274(10) 1.0000 0.7500
O1_5 O 0.9789(4) 0.9523(3) 0.7747(3)
O2_5 O 0.9064(3) 0.9736(3) 0.7034(4)
Cl1_9 Cl 0.44274(10) 0.5000 0.2500
O1_6 O 0.4789(4) 0.5477(3) 0.2253(3)
O2_6 O 0.4064(3) 0.5264(3) 0.2966(4)
O3_6 O 0.4789(4) 0.4523(3) 0.2747(3)
O4_6 O 0.4064(3) 0.4736(3) 0.2034(4)
Cl1_10 Cl 0.55726(10) 0.0000 0.2500
O1_7 O 0.5211(4) 0.0477(3) 0.2747(3)
O2_7 O 0.5936(3) 0.0264(3) 0.2034(4)
Cl1_11 Cl 0.55726(10) 1.0000 0.2500
O3_7 O 0.5211(4) 0.9523(3) 0.2253(3)
O4_7 O 0.5936(3) 0.9736(3) 0.2966(4)
Cl1_12 Cl 0.05726(10) 0.5000 0.7500
O1_8 O 0.0211(4) 0.4523(3) 0.7253(3)
O2_8 O 0.0936(3) 0.4736(3) 0.7966(4)
O3_8 O 0.0211(4) 0.5477(3) 0.7747(3)
O4_8 O 0.0936(3) 0.5264(3) 0.7034(4)
Cl1_13 Cl 0.7500 0.94274(10) 0.0000
O3_9 O 0.7253(3) 0.9789(4) 0.0477(3)
O4_9 O 0.7966(4) 0.9064(3) 0.0264(3)
Cl1_14 Cl 0.7500 0.94274(10) 1.0000
O1_9 O 0.7747(3) 0.9789(4) 0.9523(3)
O2_9 O 0.7034(4) 0.9064(3) 0.9736(3)
Cl1_15 Cl 0.2500 0.44274(10) 0.5000
O1_10 O 0.2253(3) 0.4789(4) 0.5477(3)
O2_10 O 0.2966(4) 0.4064(3) 0.5264(3)
O3_10 O 0.2747(3) 0.4789(4) 0.4523(3)
O4_10 O 0.2034(4) 0.4064(3) 0.4736(3)
Cl1_16 Cl 0.2500 0.55726(10) 0.0000
O1_11 O 0.2747(3) 0.5211(4) 0.0477(3)
O2_11 O 0.2034(4) 0.5936(3) 0.0264(3)
Cl1_17 Cl 0.2500 0.55726(10) 1.0000
O3_11 O 0.2253(3) 0.5211(4) 0.9523(3)
O4_11 O 0.2966(4) 0.5936(3) 0.9736(3)
Cl1_18 Cl 0.7500 0.05726(10) 0.5000
O1_12 O 0.7253(3) 0.0211(4) 0.4523(3)
O2_12 O 0.7966(4) 0.0936(3) 0.4736(3)
O3_12 O 0.7747(3) 0.0211(4) 0.5477(3)
O4_12 O 0.7034(4) 0.0936(3) 0.5264(3)
loop_
_geom_bond_atom_site_label_1
_geom_bond_atom_site_label_2
_geom_bond_site_symmetry_1
_geom_bond_site_symmetry_2
H57 C70 1_555 1_555
C71 C70 1_555 1_555
H58 C71 1_555 1_555
C72 C71 1_555 1_555
H59 C72 1_555 1_555
C68 C69 1_555 1_555
C69 H56 1_555 1_555
N19 C68 1_555 1_555
H60 N19 1_555 1_555
N20 C68 1_555 1_555
Ag5 N18 1_555 1_555
N18 N19 1_555 1_555
N20 Ag5 1_555 1_555
C1 C2 1_555 1_555
C2 H1 1_555 1_555
C3 C2 1_555 1_555
H2 C3 1_555 1_555
C4 C3 1_555 1_555
C5 C4 1_555 1_555
H3 C5 1_555 1_555
C6 C1 1_555 1_555
H4 C6 1_555 1_555
C7 C4 1_555 1_555
N1 C1 1_555 1_555
C13 N1 1_555 1_555
C14 C13 1_555 1_555
H11 C14 1_555 1_555
C15 C14 1_555 1_555
H12 C15 1_555 1_555
C16 C15 1_555 1_555
C17 C16 1_555 1_555
H13 C17 1_555 1_555
C18 C13 1_555 1_555
H14 C18 1_555 1_555
C19 C16 1_555 1_555
H15 C19 1_555 1_555
C20 C21 1_555 1_555
C21 H16 1_555 1_555
C22 C21 1_555 1_555
H17 C22 1_555 1_555
C23 C22 1_555 1_555
H18 C23 1_555 1_555
C24 C23 1_555 1_555
H19 C24 1_555 1_555
N5 C19 1_555 1_555
N6 C20 1_555 1_555
H20 N6 1_555 1_555
N7 C20 1_555 1_555
C25 N1 1_555 1_555
C26 C25 1_555 1_555
H21 C26 1_555 1_555
C27 C26 1_555 1_555
H22 C27 1_555 1_555
C28 C27 1_555 1_555
C29 C28 1_555 1_555
H23 C29 1_555 1_555
C30 C25 1_555 1_555
H24 C30 1_555 1_555
C31 C28 1_555 1_555
H25 C31 1_555 1_555
C32 C33 1_555 1_555
C33 H26 1_555 1_555
N8 C31 1_555 1_555
N9 C32 1_555 1_555
H30 N9 1_555 1_555
N10 C32 1_555 1_555
Ag2 N5 1_555 1_555
Ag3 N8 1_555 1_555
C37 C38 1_555 1_555
C38 H31 1_555 1_555
C39 C38 1_555 1_555
H32 C39 1_555 1_555
C40 C39 1_555 1_555
C41 C40 1_555 1_555
H33 C41 1_555 1_555
C42 C37 1_555 1_555
H34 C42 1_555 1_555
C43 C40 1_555 1_555
N11 C37 1_555 1_555
C49 N11 1_555 1_555
C50 C49 1_555 1_555
H41 C50 1_555 1_555
C51 C50 1_555 1_555
H42 C51 1_555 1_555
C52 C51 1_555 1_555
C53 C52 1_555 1_555
H43 C53 1_555 1_555
C54 C49 1_555 1_555
H44 C54 1_555 1_555
C55 C52 1_555 1_555
H45 C55 1_555 1_555
C56 C57 1_555 1_555
C57 H46 1_555 1_555
C58 C57 1_555 1_555
H47 C58 1_555 1_555
C59 C58 1_555 1_555
H48 C59 1_555 1_555
C60 C59 1_555 1_555
H49 C60 1_555 1_555
N15 Ag2 1_555 1_555
N16 C56 1_555 1_555
H50 N16 1_555 1_555
N17 Ag2 1_555 1_555
C61 N11 1_555 1_555
C62 C61 1_555 1_555
H51 C62 1_555 1_555
C63 C62 1_555 1_555
H52 C63 1_555 1_555
C64 C63 1_555 1_555
C65 C64 1_555 1_555
H53 C65 1_555 1_555
C66 C61 1_555 1_555
H54 C66 1_555 1_555
C67 C64 1_555 1_555
N21 Ag1 1_555 1_555
N22 Ag3 1_555 1_555
N23 Ag1 1_555 1_555
N24 Ag3 1_555 1_555
C5 C6 1_555 1_555
C17 C18 1_555 1_555
C24 N7 1_555 1_555
N5 N6 1_555 1_555
N7 Ag2 1_555 1_555
C29 C30 1_555 1_555
N8 N9 1_555 1_555
N10 Ag3 1_555 1_555
C41 C42 1_555 1_555
C53 C54 1_555 1_555
C55 N15 1_555 1_555
C56 N17 1_555 1_555
C60 N17 1_555 1_555
N15 N16 1_555 1_555
C65 C66 1_555 1_555
Ag1_2 N2 1_555 1_555
C8 C9 1_555 1_555
C9 H6 1_555 1_555
N3 C8 1_555 1_555
H10 N3 1_555 1_555
N4 Ag1_2 1_555 1_555
C44 C45 1_555 1_555
C45 H36 1_555 1_555
C46 C45 1_555 1_555
H37 C46 1_555 1_555
C47 C46 1_555 1_555
H38 C47 1_555 1_555
C48 C47 1_555 1_555
H39 C48 1_555 1_555
N13 C44 1_555 1_555
H40 N13 1_555 1_555
N14 C44 1_555 1_555
Ag4_2 N12 1_555 1_555
C8 N4 1_555 1_555
N2 N3 1_555 1_555
C48 N14 1_555 1_555
N12 N13 1_555 1_555
N14 Ag4_2 1_555 1_555
H27 C34 1_555 1_555
C35 C34 1_555 1_555
H28 C35 1_555 1_555
C36 C35 1_555 1_555
H29 C36 1_555 1_555
Ag1_3 N2_2 1_555 1_555
C1_2 C2_2 1_555 1_555
C2_2 H1_2 1_555 1_555
C3_2 C2_2 1_555 1_555
H2_2 C3_2 1_555 1_555
C4_2 C3_2 1_555 1_555
C5_2 C4_2 1_555 1_555
H3_2 C5_2 1_555 1_555
C6_2 C1_2 1_555 1_555
H4_2 C6_2 1_555 1_555
C7_2 C4_2 1_555 1_555
H5_2 C7_2 1_555 1_555
C8_2 C9_2 1_555 1_555
C9_2 H6_2 1_555 1_555
N1_2 C1_2 1_555 1_555
N2_2 C7_2 1_555 1_555
N3_2 C8_2 1_555 1_555
H10_2 N3_2 1_555 1_555
N4_2 Ag1_3 1_555 1_555
C13_2 N1_2 1_555 1_555
C14_2 C13_2 1_555 1_555
H11_2 C14_2 1_555 1_555
C15_2 C14_2 1_555 1_555
H12_2 C15_2 1_555 1_555
C16_2 C15_2 1_555 1_555
C17_2 C16_2 1_555 1_555
H13_2 C17_2 1_555 1_555
C18_2 C13_2 1_555 1_555
H14_2 C18_2 1_555 1_555
C19_2 C16_2 1_555 1_555
C25_2 N1_2 1_555 1_555
C26_2 C25_2 1_555 1_555
H21_2 C26_2 1_555 1_555
C27_2 C26_2 1_555 1_555
H22_2 C27_2 1_555 1_555
C28_2 C27_2 1_555 1_555
C29_2 C28_2 1_555 1_555
H23_2 C29_2 1_555 1_555
C30_2 C25_2 1_555 1_555
H24_2 C30_2 1_555 1_555
C31_2 C28_2 1_555 1_555
H25_2 C31_2 1_555 1_555
C32_2 C33_2 1_555 1_555
C33_2 H26_2 1_555 1_555
C34_2 C33_2 1_555 1_555
H27_2 C34_2 1_555 1_555
C35_2 C34_2 1_555 1_555
H28_2 C35_2 1_555 1_555
C36_2 C35_2 1_555 1_555
H29_2 C36_2 1_555 1_555
N8_2 C31_2 1_555 1_555
N9_2 C32_2 1_555 1_555
H30_2 N9_2 1_555 1_555
N10_2 C32_2 1_555 1_555
Ag3_2 N8_2 1_555 1_555
C56_2 C57_2 1_555 1_555
C57_2 H46_2 1_555 1_555
N15_2 Ag2_2 1_555 1_555
N16_2 C56_2 1_555 1_555
H50_2 N16_2 1_555 1_555
N17_2 Ag2_2 1_555 1_555
N21_2 Ag1_3 1_555 1_555
N22_2 Ag3_2 1_555 1_555
N23_2 Ag1_3 1_555 1_555
N24_2 Ag3_2 1_555 1_555
C5_2 C6_2 1_555 1_555
C8_2 N4_2 1_555 1_555
N2_2 N3_2 1_555 1_555
C17_2 C18_2 1_555 1_555
C29_2 C30_2 1_555 1_555
C36_2 N10_2 1_555 1_555
N8_2 N9_2 1_555 1_555
N10_2 Ag3_2 1_555 1_555
C56_2 N17_2 1_555 1_555
N15_2 N16_2 1_555 1_555
H7 C10 1_555 1_555
C11 C10 1_555 1_555
H8 C11 1_555 1_555
C12 C11 1_555 1_555
H9 C12 1_555 1_555
C20_2 C21_2 1_555 1_555
C21_2 H16_2 1_555 1_555
N6_2 C20_2 1_555 1_555
H20_2 N6_2 1_555 1_555
N7_2 C20_2 1_555 1_555
Ag2_3 N5_2 1_555 1_555
C37_2 C38_2 1_555 1_555
C38_2 H31_2 1_555 1_555
C39_2 C38_2 1_555 1_555
H32_2 C39_2 1_555 1_555
C40_2 C39_2 1_555 1_555
C41_2 C40_2 1_555 1_555
H33_2 C41_2 1_555 1_555
C42_2 C37_2 1_555 1_555
H34_2 C42_2 1_555 1_555
C43_2 C40_2 1_555 1_555
H35_2 C43_2 1_555 1_555
C44_2 C45_2 1_555 1_555
C45_2 H36_2 1_555 1_555
C46_2 C45_2 1_555 1_555
H37_2 C46_2 1_555 1_555
C47_2 C46_2 1_555 1_555
H38_2 C47_2 1_555 1_555
C48_2 C47_2 1_555 1_555
H39_2 C48_2 1_555 1_555
N11_2 C37_2 1_555 1_555
N12_2 C43_2 1_555 1_555
N13_2 C44_2 1_555 1_555
H40_2 N13_2 1_555 1_555
N14_2 C44_2 1_555 1_555
C49_2 N11_2 1_555 1_555
C50_2 C49_2 1_555 1_555
H41_2 C50_2 1_555 1_555
C51_2 C50_2 1_555 1_555
H42_2 C51_2 1_555 1_555
C52_2 C51_2 1_555 1_555
C53_2 C52_2 1_555 1_555
H43_2 C53_2 1_555 1_555
C54_2 C49_2 1_555 1_555
H44_2 C54_2 1_555 1_555
C55_2 C52_2 1_555 1_555
C61_2 N11_2 1_555 1_555
C62_2 C61_2 1_555 1_555
H51_2 C62_2 1_555 1_555
C63_2 C62_2 1_555 1_555
H52_2 C63_2 1_555 1_555
C64_2 C63_2 1_555 1_555
C65_2 C64_2 1_555 1_555
H53_2 C65_2 1_555 1_555
C66_2 C61_2 1_555 1_555
H54_2 C66_2 1_555 1_555
C67_2 C64_2 1_555 1_555
Ag4_3 N12_2 1_555 1_555
N5_2 N6_2 1_555 1_555
N7_2 Ag2_3 1_555 1_555
C41_2 C42_2 1_555 1_555
C48_2 N14_2 1_555 1_555
N12_2 N13_2 1_555 1_555
N14_2 Ag4_3 1_555 1_555
C53_2 C54_2 1_555 1_555
C65_2 C66_2 1_555 1_555
C68_2 C69_2 1_555 1_555
C69_2 H56_2 1_555 1_555
C70_2 C69_2 1_555 1_555
H57_2 C70_2 1_555 1_555
C71_2 C70_2 1_555 1_555
H58_2 C71_2 1_555 1_555
C72_2 C71_2 1_555 1_555
H59_2 C72_2 1_555 1_555
N19_2 C68_2 1_555 1_555
H60_2 N19_2 1_555 1_555
N20_2 C68_2 1_555 1_555
Ag5_4 N18_2 1_555 1_555
C72_2 N20_2 1_555 1_555
N18_2 N19_2 1_555 1_555
N20_2 Ag5_4 1_555 1_555
Ag4_3 N2_3 1_555 1_555
C1_3 C2_3 1_555 1_555
C2_3 H1_3 1_555 1_555
C3_3 C2_3 1_555 1_555
H2_3 C3_3 1_555 1_555
C4_3 C3_3 1_555 1_555
C5_3 C4_3 1_555 1_555
H3_3 C5_3 1_555 1_555
C6_3 C1_3 1_555 1_555
H4_3 C6_3 1_555 1_555
C7_3 C4_3 1_555 1_555
H5_3 C7_3 1_555 1_555
C8_3 C9_3 1_555 1_555
C9_3 H6_3 1_555 1_555
C10_2 C9_3 1_555 1_555
H7_2 C10_2 1_555 1_555
C11_2 C10_2 1_555 1_555
H8_2 C11_2 1_555 1_555
C12_2 C11_2 1_555 1_555
H9_2 C12_2 1_555 1_555
N1_3 C1_3 1_555 1_555
N2_3 C7_3 1_555 1_555
N3_3 C8_3 1_555 1_555
H10_3 N3_3 1_555 1_555
N4_3 Ag4_3 1_555 1_555
C13_3 N1_3 1_555 1_555
C14_3 C13_3 1_555 1_555
H11_3 C14_3 1_555 1_555
C15_3 C14_3 1_555 1_555
H12_3 C15_3 1_555 1_555
C16_3 C15_3 1_555 1_555
C17_3 C16_3 1_555 1_555
H13_3 C17_3 1_555 1_555
C18_3 C13_3 1_555 1_555
H14_3 C18_3 1_555 1_555
C19_3 C16_3 1_555 1_555
H15_3 C19_3 1_555 1_555
C20_3 C21_3 1_555 1_555
C21_3 H16_3 1_555 1_555
N5_3 C19_3 1_555 1_555
N6_3 C20_3 1_555 1_555
H20_3 N6_3 1_555 1_555
N7_3 C20_3 1_555 1_555
C25_3 N1_3 1_555 1_555
C26_3 C25_3 1_555 1_555
H21_3 C26_3 1_555 1_555
C27_3 C26_3 1_555 1_555
H22_3 C27_3 1_555 1_555
C28_3 C27_3 1_555 1_555
C29_3 C28_3 1_555 1_555
H23_3 C29_3 1_555 1_555
C30_3 C25_3 1_555 1_555
H24_3 C30_3 1_555 1_555
C31_3 C28_3 1_555 1_555
Ag2_4 N5_3 1_555 1_555
C37_3 C38_3 1_555 1_555
C38_3 H31_3 1_555 1_555
C39_3 C38_3 1_555 1_555
H32_3 C39_3 1_555 1_555
C40_3 C39_3 1_555 1_555
C41_3 C40_3 1_555 1_555
H33_3 C41_3 1_555 1_555
C42_3 C37_3 1_555 1_555
H34_3 C42_3 1_555 1_555
C43_3 C40_3 1_555 1_555
H35_3 C43_3 1_555 1_555
C44_3 C45_3 1_555 1_555
C45_3 H36_3 1_555 1_555
N11_3 C37_3 1_555 1_555
N21_2 C43_3 1_555 1_555
N13_3 C44_3 1_555 1_555
H40_3 N13_3 1_555 1_555
N23_2 C44_3 1_555 1_555
C49_3 N11_3 1_555 1_555
C50_3 C49_3 1_555 1_555
H41_3 C50_3 1_555 1_555
C51_3 C50_3 1_555 1_555
H42_3 C51_3 1_555 1_555
C52_3 C51_3 1_555 1_555
C53_3 C52_3 1_555 1_555
H43_3 C53_3 1_555 1_555
C54_3 C49_3 1_555 1_555
H44_3 C54_3 1_555 1_555
C55_3 C52_3 1_555 1_555
H45_3 C55_3 1_555 1_555
C56_3 C57_3 1_555 1_555
C57_3 H46_3 1_555 1_555
N15_3 Ag2_4 1_555 1_555
N16_3 C56_3 1_555 1_555
H50_3 N16_3 1_555 1_555
N17_3 Ag2_4 1_555 1_555
C61_3 N11_3 1_555 1_555
C62_3 C61_3 1_555 1_555
H51_3 C62_3 1_555 1_555
C63_3 C62_3 1_555 1_555
H52_3 C63_3 1_555 1_555
C64_3 C63_3 1_555 1_555
C65_3 C64_3 1_555 1_555
H53_3 C65_3 1_555 1_555
C66_3 C61_3 1_555 1_555
H54_3 C66_3 1_555 1_555
C67_3 C64_3 1_555 1_555
H55_3 C67_3 1_555 1_555
C68_3 C69_3 1_555 1_555
C69_3 H56_3 1_555 1_555
N22 C67_3 1_555 1_555
N19_3 C68_3 1_555 1_555
H60_3 N19_3 1_555 1_555
N24 C68_3 1_555 1_555
C5_3 C6_3 1_555 1_555
C8_3 N4_3 1_555 1_555
C12_2 N4_3 1_555 1_555
N2_3 N3_3 1_555 1_555
C17_3 C18_3 1_555 1_555
N5_3 N6_3 1_555 1_555
N7_3 Ag2_4 1_555 1_555
C29_3 C30_3 1_555 1_555
C41_3 C42_3 1_555 1_555
N21_2 N13_3 1_555 1_555
C53_3 C54_3 1_555 1_555
C55_3 N15_3 1_555 1_555
C56_3 N17_3 1_555 1_555
N15_3 N16_3 1_555 1_555
C65_3 C66_3 1_555 1_555
N22 N19_3 1_555 1_555
H17_2 C22_2 1_555 1_555
C23_2 C22_2 1_555 1_555
H18_2 C23_2 1_555 1_555
C24_2 C23_2 1_555 1_555
H19_2 C24_2 1_555 1_555
H47_2 C58_2 1_555 1_555
C59_2 C58_2 1_555 1_555
H48_2 C59_2 1_555 1_555
C60_2 C59_2 1_555 1_555
H49_2 C60_2 1_555 1_555
C32_3 C33_3 1_555 1_555
C33_3 H26_3 1_555 1_555
N9_3 C32_3 1_555 1_555
H30_3 N9_3 1_555 1_555
N10_3 C32_3 1_555 1_555
Ag5_2 N8_3 1_555 1_555
H37_3 C46_3 1_555 1_555
C47_3 C46_3 1_555 1_555
H38_3 C47_3 1_555 1_555
C48_3 C47_3 1_555 1_555
H39_3 C48_3 1_555 1_555
N8_3 N9_3 1_555 1_555
N10_3 Ag5_2 1_555 1_555
H57_3 C70_3 1_555 1_555
C71_3 C70_3 1_555 1_555
H58_3 C71_3 1_555 1_555
C72_3 C71_3 1_555 1_555
H59_3 C72_3 1_555 1_555
C44_4 C45_4 1_555 1_555
C45_4 H36_4 1_555 1_555
N13_4 C44_4 1_555 1_555
H40_4 N13_4 1_555 1_555
N23 C44_4 1_555 1_555
N21 N13_4 1_555 1_555
C20_4 C21_4 1_555 1_555
C21_4 H16_4 1_555 1_555
C22_3 C21_4 1_555 1_555
H17_3 C22_3 1_555 1_555
C23_3 C22_3 1_555 1_555
H18_3 C23_3 1_555 1_555
C24_3 C23_3 1_555 1_555
H19_3 C24_3 1_555 1_555
N6_4 C20_4 1_555 1_555
H20_4 N6_4 1_555 1_555
N7_4 C20_4 1_555 1_555
Ag2_5 N5_4 1_555 1_555
C37_4 C38_4 1_555 1_555
C38_4 H31_4 1_555 1_555
C39_4 C38_4 1_555 1_555
H32_4 C39_4 1_555 1_555
C40_4 C39_4 1_555 1_555
C41_4 C40_4 1_555 1_555
H33_4 C41_4 1_555 1_555
C42_4 C37_4 1_555 1_555
H34_4 C42_4 1_555 1_555
C43_4 C40_4 1_555 1_555
N11_4 C37_4 1_555 1_555
C49_4 N11_4 1_555 1_555
C50_4 C49_4 1_555 1_555
H41_4 C50_4 1_555 1_555
C51_4 C50_4 1_555 1_555
H42_4 C51_4 1_555 1_555
C52_4 C51_4 1_555 1_555
C53_4 C52_4 1_555 1_555
H43_4 C53_4 1_555 1_555
C54_4 C49_4 1_555 1_555
H44_4 C54_4 1_555 1_555
C55_4 C52_4 1_555 1_555
C61_4 N11_4 1_555 1_555
C62_4 C61_4 1_555 1_555
H51_4 C62_4 1_555 1_555
C63_4 C62_4 1_555 1_555
H52_4 C63_4 1_555 1_555
C64_4 C63_4 1_555 1_555
C65_4 C64_4 1_555 1_555
H53_4 C65_4 1_555 1_555
C66_4 C61_4 1_555 1_555
H54_4 C66_4 1_555 1_555
C67_4 C64_4 1_555 1_555
H55_4 C67_4 1_555 1_555
C68_4 C69_4 1_555 1_555
C69_4 H56_4 1_555 1_555
C70_4 C69_4 1_555 1_555
H57_4 C70_4 1_555 1_555
C71_4 C70_4 1_555 1_555
H58_4 C71_4 1_555 1_555
C72_4 C71_4 1_555 1_555
H59_4 C72_4 1_555 1_555
N22_2 C67_4 1_555 1_555
N19_4 C68_4 1_555 1_555
H60_4 N19_4 1_555 1_555
N24_2 C68_4 1_555 1_555
C24_3 N7_4 1_555 1_555
N5_4 N6_4 1_555 1_555
N7_4 Ag2_5 1_555 1_555
C41_4 C42_4 1_555 1_555
C53_4 C54_4 1_555 1_555
C65_4 C66_4 1_555 1_555
C72_4 N24_2 1_555 1_555
N22_2 N19_4 1_555 1_555
C32_4 C33_4 1_555 1_555
C33_4 H26_4 1_555 1_555
C34_3 C33_4 1_555 1_555
H27_3 C34_3 1_555 1_555
C35_3 C34_3 1_555 1_555
H28_3 C35_3 1_555 1_555
C36_3 C35_3 1_555 1_555
H29_3 C36_3 1_555 1_555
N9_4 C32_4 1_555 1_555
H30_4 N9_4 1_555 1_555
N10_4 C32_4 1_555 1_555
Ag5_3 N8_4 1_555 1_555
C36_3 N10_4 1_555 1_555
N8_4 N9_4 1_555 1_555
N10_4 Ag5_3 1_555 1_555
Ag4 N2_4 1_555 1_555
C8_4 C9_4 1_555 1_555
C9_4 H6_4 1_555 1_555
C10_3 C9_4 1_555 1_555
H7_3 C10_3 1_555 1_555
C11_3 C10_3 1_555 1_555
H8_3 C11_3 1_555 1_555
C12_3 C11_3 1_555 1_555
H9_3 C12_3 1_555 1_555
N3_4 C8_4 1_555 1_555
H10_4 N3_4 1_555 1_555
N4_4 Ag4 1_555 1_555
C8_4 N4_4 1_555 1_555
C12_3 N4_4 1_555 1_555
N2_4 N3_4 1_555 1_555
C1_4 C2_4 1_555 1_555
C2_4 H1_4 1_555 1_555
C3_4 C2_4 1_555 1_555
H2_4 C3_4 1_555 1_555
C4_4 C3_4 1_555 1_555
C5_4 C4_4 1_555 1_555
H3_4 C5_4 1_555 1_555
C6_4 C1_4 1_555 1_555
H4_4 C6_4 1_555 1_555
C7_4 C4_4 1_555 1_555
N1_4 C1_4 1_555 1_555
C13_4 N1_4 1_555 1_555
C14_4 C13_4 1_555 1_555
H11_4 C14_4 1_555 1_555
C15_4 C14_4 1_555 1_555
H12_4 C15_4 1_555 1_555
C16_4 C15_4 1_555 1_555
C17_4 C16_4 1_555 1_555
H13_4 C17_4 1_555 1_555
C18_4 C13_4 1_555 1_555
H14_4 C18_4 1_555 1_555
C19_4 C16_4 1_555 1_555
C25_4 N1_4 1_555 1_555
C26_4 C25_4 1_555 1_555
H21_4 C26_4 1_555 1_555
C27_4 C26_4 1_555 1_555
H22_4 C27_4 1_555 1_555
C28_4 C27_4 1_555 1_555
C29_4 C28_4 1_555 1_555
H23_4 C29_4 1_555 1_555
C30_4 C25_4 1_555 1_555
H24_4 C30_4 1_555 1_555
C31_4 C28_4 1_555 1_555
C56_4 C57_4 1_555 1_555
C57_4 H46_4 1_555 1_555
C58_3 C57_4 1_555 1_555
H47_3 C58_3 1_555 1_555
C59_3 C58_3 1_555 1_555
H48_3 C59_3 1_555 1_555
C60_3 C59_3 1_555 1_555
H49_3 C60_3 1_555 1_555
N15_4 Ag2_6 1_555 1_555
N16_4 C56_4 1_555 1_555
H50_4 N16_4 1_555 1_555
N17_4 Ag2_6 1_555 1_555
C5_4 C6_4 1_555 1_555
C17_4 C18_4 1_555 1_555
C29_4 C30_4 1_555 1_555
C56_4 N17_4 1_555 1_555
C60_3 N17_4 1_555 1_555
N15_4 N16_4 1_555 1_555
H7_4 C10_4 1_555 1_555
C11_4 C10_4 1_555 1_555
H8_4 C11_4 1_555 1_555
C12_4 C11_4 1_555 1_555
H9_4 C12_4 1_555 1_555
H47_4 C58_4 1_555 1_555
C59_4 C58_4 1_555 1_555
H48_4 C59_4 1_555 1_555
C60_4 C59_4 1_555 1_555
H49_4 C60_4 1_555 1_555
H17_4 C22_4 1_555 1_555
C23_4 C22_4 1_555 1_555
H18_4 C23_4 1_555 1_555
C24_4 C23_4 1_555 1_555
H19_4 C24_4 1_555 1_555
H27_4 C34_4 1_555 1_555
C35_4 C34_4 1_555 1_555
H28_4 C35_4 1_555 1_555
C36_4 C35_4 1_555 1_555
H29_4 C36_4 1_555 1_555
H37_4 C46_4 1_555 1_555
C47_4 C46_4 1_555 1_555
H38_4 C47_4 1_555 1_555
C48_4 C47_4 1_555 1_555
H39_4 C48_4 1_555 1_555
O3 Cl1 1_555 1_555
O4 Cl1 1_555 1_555
Cl1_2 O1 1_555 1_555
O2 Cl1_2 1_555 1_555
Cl1_3 O1_2 1_555 1_555
O2_2 Cl1_3 1_555 1_555
O3_2 Cl1_3 1_555 1_555
O4_2 Cl1_3 1_555 1_555
Cl1_4 O1_3 1_555 1_555
O2_3 Cl1_4 1_555 1_555
O3_3 Cl1_5 1_555 1_555
O4_3 Cl1_5 1_555 1_555
Cl1_6 O1_4 1_555 1_555
O2_4 Cl1_6 1_555 1_555
O3_4 Cl1_6 1_555 1_555
O4_4 Cl1_6 1_555 1_555
O3_5 Cl1_7 1_555 1_555
O4_5 Cl1_7 1_555 1_555
Cl1_8 O1_5 1_555 1_555
O2_5 Cl1_8 1_555 1_555
Cl1_9 O1_6 1_555 1_555
O2_6 Cl1_9 1_555 1_555
O3_6 Cl1_9 1_555 1_555
O4_6 Cl1_9 1_555 1_555
Cl1_10 O1_7 1_555 1_555
O2_7 Cl1_10 1_555 1_555
O3_7 Cl1_11 1_555 1_555
O4_7 Cl1_11 1_555 1_555
Cl1_12 O1_8 1_555 1_555
O2_8 Cl1_12 1_555 1_555
O3_8 Cl1_12 1_555 1_555
O4_8 Cl1_12 1_555 1_555
O3_9 Cl1_13 1_555 1_555
O4_9 Cl1_13 1_555 1_555
Cl1_14 O1_9 1_555 1_555
O2_9 Cl1_14 1_555 1_555
Cl1_15 O1_10 1_555 1_555
O2_10 Cl1_15 1_555 1_555
O3_10 Cl1_15 1_555 1_555
O4_10 Cl1_15 1_555 1_555
Cl1_16 O1_11 1_555 1_555
O2_11 Cl1_16 1_555 1_555
O3_11 Cl1_17 1_555 1_555
O4_11 Cl1_17 1_555 1_555
Cl1_18 O1_12 1_555 1_555
O2_12 Cl1_18 1_555 1_555
O3_12 Cl1_18 1_555 1_555
O4_12 Cl1_18 1_555 1_555

#END
