
###############################################################################
#
# This file contains modified crystal structure data generated from the
# MOF subset of the Cambridge Structural Database (CSD) v543 
# hosted by the Cambridge Crystallographic Data Centre (CCDC).
#
# This work is licensed under the Creative Commons
# Attribution-NonCommercial-ShareAlike 4.0 International License.
# To view a copy of this license, visit
# http://creativecommons.org/licenses/by-nc-sa/4.0/
# or send a letter to
# Creative Commons, PO Box 1866, Mountain View, CA 94042, USA.
#
# CIF created using the CSD Python API on 29 September 2022
# The structure has been converted into the P1 space group
# The structure has a 3D framework
# The original CSD entry KEPNAX03 is in the cubic crystal system
# The original CSD entry KEPNAX03 is in a Sohncke space group
# The framework has been calculated to contain at least 10.0% void space
# The void calculation uses a probe of radius 1.32A, grid spacing 0.4
# The framework is charged, counterions have been retained in the structure
#
###############################################################################

data_KEPNAX03
_chemical_formula_moiety         '(C288 H240 Ag14 Cl18 N80 O48 2+)n'
_symmetry_cell_setting           triclinic
_symmetry_space_group_name_H-M   'P 1'
_symmetry_Int_Tables_number      1
_space_group_name_Hall           'P 1'
loop_
_symmetry_equiv_pos_site_id
_symmetry_equiv_pos_as_xyz
1 x,y,z
_cell_length_a                   21.3062(3)
_cell_length_b                   21.3062(3)
_cell_length_c                   21.3062(3)
_cell_angle_alpha                90
_cell_angle_beta                 90
_cell_angle_gamma                90
_cell_volume                     9672.04
loop_
_atom_site_label
_atom_site_type_symbol
_atom_site_fract_x
_atom_site_fract_y
_atom_site_fract_z
C70 C 0.0246(3) 0.1732(4) 0.3897(4)
H57 H 0.0379 0.2045 0.4179
C71 C 0.0601(3) 0.1599(4) 0.3349(4)
H58 H 0.0968 0.1825 0.3252
C72 C 0.0389(3) 0.1134(4) 0.2973(3)
H59 H 0.0628 0.1035 0.2615
H55 H 0.7981 0.0164 0.3645
C68 C 0.9525(3) 0.0937(3) 0.3585(3)
C69 C 0.9712(3) 0.1404(3) 0.4010(3)
H56 H 0.9470 0.1488 0.4369
N18 N 0.88193(19) 0.0113(2) 0.33396(18)
N19 N 0.8987(2) 0.0631(2) 0.3686(2)
H60 H 0.8735 0.0764 0.3979
N20 N 0.9865(2) 0.0806(2) 0.3074(2)
Ag5 Ag 0.95787(3) 0.0000 0.2500
Ag1 Ag 0.2500 0.95787(3) 0.0000
C1 C 0.2489(2) 0.7490(2) 0.1694(2)
C2 C 0.2453(3) 0.8145(2) 0.1622(2)
H1 H 0.2621 0.8411 0.1931
C3 C 0.2171(2) 0.8395(2) 0.1094(2)
H2 H 0.2150 0.8833 0.1047
C4 C 0.1919(2) 0.8016(2) 0.0637(2)
C5 C 0.1956(2) 0.7367(2) 0.0712(2)
H3 H 0.1779 0.7101 0.0407
C6 C 0.2244(3) 0.7116(2) 0.1223(2)
H4 H 0.2278 0.6678 0.1257
C7 C 0.1607(2) 0.8257(2) 0.0071(3)
N1 N 0.2771(2) 0.7229(2) 0.2229(2)
C13 C 0.3306(2) 0.7511(2) 0.2490(2)
C14 C 0.3378(2) 0.7547(3) 0.3145(2)
H11 H 0.3069 0.7379 0.3411
C15 C 0.3906(2) 0.7829(2) 0.3395(2)
H12 H 0.3953 0.7850 0.3833
C16 C 0.4363(2) 0.8081(2) 0.3016(2)
C17 C 0.4288(2) 0.8044(2) 0.2367(2)
H13 H 0.4593 0.8221 0.2101
C18 C 0.3777(2) 0.7756(3) 0.2116(2)
H14 H 0.3743 0.7722 0.1678
C19 C 0.4929(3) 0.8393(2) 0.3257(2)
H15 H 0.5164 0.8645 0.2981
C20 C 0.5937(3) 0.8585(3) 0.4525(3)
C21 C 0.6404(3) 0.9010(3) 0.4712(3)
H16 H 0.6488 0.9369 0.4470
C22 C 0.6732(4) 0.8897(4) 0.5246(3)
H17 H 0.7045 0.9179 0.5379
C23 C 0.6599(4) 0.8349(4) 0.5601(3)
H18 H 0.6825 0.8252 0.5968
C24 C 0.6134(4) 0.7973(3) 0.5389(3)
H19 H 0.6035 0.7615 0.5628
N5 N 0.5113(2) 0.83396(18) 0.38193(19)
N6 N 0.5631(2) 0.8686(2) 0.3987(2)
H20 H 0.5764 0.8979 0.3735
N7 N 0.5806(2) 0.8074(2) 0.4865(2)
C25 C 0.2510(2) 0.6694(2) 0.2511(2)
C26 C 0.1855(2) 0.6622(2) 0.2547(3)
H21 H 0.1589 0.6931 0.2379
C27 C 0.1605(2) 0.6094(2) 0.2829(2)
H22 H 0.1167 0.6047 0.2850
C28 C 0.1984(2) 0.5637(2) 0.3081(2)
C29 C 0.2633(2) 0.5712(2) 0.3044(2)
H23 H 0.2899 0.5407 0.3221
C30 C 0.2884(2) 0.6223(2) 0.2756(3)
H24 H 0.3322 0.6257 0.2722
C31 C 0.1743(2) 0.5071(3) 0.3393(2)
H25 H 0.2019 0.4836 0.3645
C32 C 0.0475(3) 0.4063(3) 0.3585(3)
C33 C 0.0288(3) 0.3596(3) 0.4010(3)
H26 H 0.0530 0.3512 0.4369
N8 N 0.11807(19) 0.4887(2) 0.33396(18)
N9 N 0.1013(2) 0.4369(2) 0.3686(2)
H30 H 0.1265 0.4236 0.3979
N10 N 0.0135(2) 0.4194(2) 0.3074(2)
Ag2 Ag 0.5000 0.7500 0.45787(3)
Ag3 Ag 0.04213(3) 0.5000 0.2500
C37 C 0.7511(2) 0.7510(2) 0.1694(2)
C38 C 0.7547(3) 0.6855(2) 0.1622(2)
H31 H 0.7379 0.6589 0.1931
C39 C 0.7829(2) 0.6605(2) 0.1094(2)
H32 H 0.7850 0.6167 0.1047
C40 C 0.8081(2) 0.6984(2) 0.0637(2)
C41 C 0.8044(2) 0.7633(2) 0.0712(2)
H33 H 0.8221 0.7899 0.0407
C42 C 0.7756(3) 0.7884(2) 0.1223(2)
H34 H 0.7722 0.8322 0.1257
C43 C 0.8393(2) 0.6743(2) 0.0071(3)
N11 N 0.7229(2) 0.7771(2) 0.2229(2)
C49 C 0.6694(2) 0.7489(2) 0.2490(2)
C50 C 0.6622(2) 0.7453(3) 0.3145(2)
H41 H 0.6931 0.7621 0.3411
C51 C 0.6094(2) 0.7171(2) 0.3395(2)
H42 H 0.6047 0.7150 0.3833
C52 C 0.5637(2) 0.6919(2) 0.3016(2)
C53 C 0.5712(2) 0.6956(2) 0.2367(2)
H43 H 0.5407 0.6779 0.2101
C54 C 0.6223(2) 0.7244(3) 0.2116(2)
H44 H 0.6257 0.7278 0.1678
C55 C 0.5071(3) 0.6607(2) 0.3257(2)
H45 H 0.4836 0.6355 0.2981
C56 C 0.4063(3) 0.6415(3) 0.4525(3)
C57 C 0.3596(3) 0.5990(3) 0.4712(3)
H46 H 0.3512 0.5631 0.4470
C58 C 0.3268(4) 0.6103(4) 0.5246(3)
H47 H 0.2955 0.5821 0.5379
C59 C 0.3401(4) 0.6651(4) 0.5601(3)
H48 H 0.3175 0.6748 0.5968
C60 C 0.3866(4) 0.7027(3) 0.5389(3)
H49 H 0.3965 0.7385 0.5628
N15 N 0.4887(2) 0.66604(18) 0.38193(19)
N16 N 0.4369(2) 0.6314(2) 0.3987(2)
H50 H 0.4236 0.6021 0.3735
N17 N 0.4194(2) 0.6926(2) 0.4865(2)
C61 C 0.7490(2) 0.8306(2) 0.2511(2)
C62 C 0.8145(2) 0.8378(2) 0.2547(3)
H51 H 0.8411 0.8069 0.2379
C63 C 0.8395(2) 0.8906(2) 0.2829(2)
H52 H 0.8833 0.8953 0.2850
C64 C 0.8016(2) 0.9363(2) 0.3081(2)
C65 C 0.7367(2) 0.9288(2) 0.3044(2)
H53 H 0.7101 0.9593 0.3221
C66 C 0.7116(2) 0.8777(2) 0.2756(3)
H54 H 0.6678 0.8743 0.2722
C67 C 0.8257(2) 0.9929(3) 0.3393(2)
Ag4 Ag 0.7500 0.54213(3) 0.0000
Ag5_2 Ag 0.95787(3) 1.0000 0.2500
N21 N 0.33396(18) 0.88193(19) 0.0113(2)
N22 N 0.11807(19) 0.5113(2) 0.16604(18)
N23 N 0.3074(2) 0.9865(2) 0.0806(2)
N24 N 0.0135(2) 0.5806(2) 0.1926(2)
Ag1_2 Ag 0.2500 0.95787(3) 1.0000
H5 H 0.1355 0.7981 0.9836
C8 C 0.1415(3) 0.9525(3) 0.9063(3)
C9 C 0.0990(3) 0.9712(3) 0.8596(3)
H6 H 0.0631 0.9470 0.8512
N2 N 0.16604(18) 0.88193(19) 0.9887(2)
N3 N 0.1314(2) 0.8987(2) 0.9369(2)
H10 H 0.1021 0.8735 0.9236
N4 N 0.1926(2) 0.9865(2) 0.9194(2)
H35 H 0.8645 0.7019 0.9836
C44 C 0.8585(3) 0.5475(3) 0.9063(3)
C45 C 0.9010(3) 0.5288(3) 0.8596(3)
H36 H 0.9369 0.5530 0.8512
C46 C 0.8897(4) 0.4754(3) 0.8268(4)
H37 H 0.9179 0.4621 0.7955
C47 C 0.8349(4) 0.4399(3) 0.8401(4)
H38 H 0.8252 0.4032 0.8175
C48 C 0.7973(3) 0.4611(3) 0.8866(4)
H39 H 0.7615 0.4372 0.8965
N12 N 0.83396(18) 0.61807(19) 0.9887(2)
N13 N 0.8686(2) 0.6013(2) 0.9369(2)
H40 H 0.8979 0.6265 0.9236
N14 N 0.8074(2) 0.5135(2) 0.9194(2)
Ag4_2 Ag 0.7500 0.54213(3) 1.0000
C34 C 0.9754(3) 0.3268(4) 0.3897(4)
H27 H 0.9621 0.2955 0.4179
C35 C 0.9399(3) 0.3401(4) 0.3349(4)
H28 H 0.9032 0.3175 0.3252
C36 C 0.9611(3) 0.3866(4) 0.2973(3)
H29 H 0.9372 0.3965 0.2615
Ag1_3 Ag 0.2500 0.04213(3) 0.5000
C1_2 C 0.2511(2) 0.2510(2) 0.6694(2)
C2_2 C 0.2547(3) 0.1855(2) 0.6622(2)
H1_2 H 0.2379 0.1589 0.6931
C3_2 C 0.2829(2) 0.1605(2) 0.6094(2)
H2_2 H 0.2850 0.1167 0.6047
C4_2 C 0.3081(2) 0.1984(2) 0.5637(2)
C5_2 C 0.3044(2) 0.2633(2) 0.5712(2)
H3_2 H 0.3221 0.2899 0.5407
C6_2 C 0.2756(3) 0.2884(2) 0.6223(2)
H4_2 H 0.2722 0.3322 0.6257
C7_2 C 0.3393(2) 0.1743(2) 0.5071(3)
H5_2 H 0.3645 0.2019 0.4836
C8_2 C 0.3585(3) 0.0475(3) 0.4063(3)
C9_2 C 0.4010(3) 0.0288(3) 0.3596(3)
H6_2 H 0.4369 0.0530 0.3512
N1_2 N 0.2229(2) 0.2771(2) 0.7229(2)
N2_2 N 0.33396(18) 0.11807(19) 0.4887(2)
N3_2 N 0.3686(2) 0.1013(2) 0.4369(2)
H10_2 H 0.3979 0.1265 0.4236
N4_2 N 0.3074(2) 0.0135(2) 0.4194(2)
C13_2 C 0.1694(2) 0.2489(2) 0.7490(2)
C14_2 C 0.1622(2) 0.2453(3) 0.8145(2)
H11_2 H 0.1931 0.2621 0.8411
C15_2 C 0.1094(2) 0.2171(2) 0.8395(2)
H12_2 H 0.1047 0.2150 0.8833
C16_2 C 0.0637(2) 0.1919(2) 0.8016(2)
C17_2 C 0.0712(2) 0.1956(2) 0.7367(2)
H13_2 H 0.0407 0.1779 0.7101
C18_2 C 0.1223(2) 0.2244(3) 0.7116(2)
H14_2 H 0.1257 0.2278 0.6678
C19_2 C 0.0071(3) 0.1607(2) 0.8257(2)
C25_2 C 0.2490(2) 0.3306(2) 0.7511(2)
C26_2 C 0.3145(2) 0.3378(2) 0.7547(3)
H21_2 H 0.3411 0.3069 0.7379
C27_2 C 0.3395(2) 0.3906(2) 0.7829(2)
H22_2 H 0.3833 0.3953 0.7850
C28_2 C 0.3016(2) 0.4363(2) 0.8081(2)
C29_2 C 0.2367(2) 0.4288(2) 0.8044(2)
H23_2 H 0.2101 0.4593 0.8221
C30_2 C 0.2116(2) 0.3777(2) 0.7756(3)
H24_2 H 0.1678 0.3743 0.7722
C31_2 C 0.3257(2) 0.4929(3) 0.8393(2)
H25_2 H 0.2981 0.5164 0.8645
C32_2 C 0.4525(3) 0.5937(3) 0.8585(3)
C33_2 C 0.4712(3) 0.6404(3) 0.9010(3)
H26_2 H 0.4470 0.6488 0.9369
C34_2 C 0.5246(3) 0.6732(4) 0.8897(4)
H27_2 H 0.5379 0.7045 0.9179
C35_2 C 0.5601(3) 0.6599(4) 0.8349(4)
H28_2 H 0.5968 0.6825 0.8252
C36_2 C 0.5389(3) 0.6134(4) 0.7973(3)
H29_2 H 0.5628 0.6035 0.7615
N8_2 N 0.38193(19) 0.5113(2) 0.83396(18)
N9_2 N 0.3987(2) 0.5631(2) 0.8686(2)
H30_2 H 0.3735 0.5764 0.8979
N10_2 N 0.4865(2) 0.5806(2) 0.8074(2)
Ag2_2 Ag 0.0000 0.2500 0.95787(3)
Ag3_2 Ag 0.45787(3) 0.5000 0.7500
H45_2 H 0.0164 0.3645 0.7981
C56_2 C 0.0937(3) 0.3585(3) 0.9525(3)
C57_2 C 0.1404(3) 0.4010(3) 0.9712(3)
H46_2 H 0.1488 0.4369 0.9470
N15_2 N 0.0113(2) 0.33396(18) 0.88193(19)
N16_2 N 0.0631(2) 0.3686(2) 0.8987(2)
H50_2 H 0.0764 0.3979 0.8735
N17_2 N 0.0806(2) 0.3074(2) 0.9865(2)
N21_2 N 0.16604(18) 0.11807(19) 0.5113(2)
N22_2 N 0.38193(19) 0.4887(2) 0.66604(18)
N23_2 N 0.1926(2) 0.0135(2) 0.5806(2)
N24_2 N 0.4865(2) 0.4194(2) 0.6926(2)
C10 C 0.3897(4) 0.9754(3) 0.3268(4)
H7 H 0.4179 0.9621 0.2955
C11 C 0.3349(4) 0.9399(3) 0.3401(4)
H8 H 0.3252 0.9032 0.3175
C12 C 0.2973(3) 0.9611(3) 0.3866(4)
H9 H 0.2615 0.9372 0.3965
H15_2 H 0.9836 0.1355 0.7981
C20_2 C 0.9063(3) 0.1415(3) 0.9525(3)
C21_2 C 0.8596(3) 0.0990(3) 0.9712(3)
H16_2 H 0.8512 0.0631 0.9470
N5_2 N 0.9887(2) 0.16604(18) 0.88193(19)
N6_2 N 0.9369(2) 0.1314(2) 0.8987(2)
H20_2 H 0.9236 0.1021 0.8735
N7_2 N 0.9194(2) 0.1926(2) 0.9865(2)
Ag2_3 Ag 1.0000 0.2500 0.95787(3)
C37_2 C 0.7489(2) 0.2490(2) 0.6694(2)
C38_2 C 0.7453(3) 0.3145(2) 0.6622(2)
H31_2 H 0.7621 0.3411 0.6931
C39_2 C 0.7171(2) 0.3395(2) 0.6094(2)
H32_2 H 0.7150 0.3833 0.6047
C40_2 C 0.6919(2) 0.3016(2) 0.5637(2)
C41_2 C 0.6956(2) 0.2367(2) 0.5712(2)
H33_2 H 0.6779 0.2101 0.5407
C42_2 C 0.7244(3) 0.2116(2) 0.6223(2)
H34_2 H 0.7278 0.1678 0.6257
C43_2 C 0.6607(2) 0.3257(2) 0.5071(3)
H35_2 H 0.6355 0.2981 0.4836
C44_2 C 0.6415(3) 0.4525(3) 0.4063(3)
C45_2 C 0.5990(3) 0.4712(3) 0.3596(3)
H36_2 H 0.5631 0.4470 0.3512
C46_2 C 0.6103(4) 0.5246(3) 0.3268(4)
H37_2 H 0.5821 0.5379 0.2955
C47_2 C 0.6651(4) 0.5601(3) 0.3401(4)
H38_2 H 0.6748 0.5968 0.3175
C48_2 C 0.7027(3) 0.5389(3) 0.3866(4)
H39_2 H 0.7385 0.5628 0.3965
N11_2 N 0.7771(2) 0.2229(2) 0.7229(2)
N12_2 N 0.66604(18) 0.38193(19) 0.4887(2)
N13_2 N 0.6314(2) 0.3987(2) 0.4369(2)
H40_2 H 0.6021 0.3735 0.4236
N14_2 N 0.6926(2) 0.4865(2) 0.4194(2)
C49_2 C 0.8306(2) 0.2511(2) 0.7490(2)
C50_2 C 0.8378(2) 0.2547(3) 0.8145(2)
H41_2 H 0.8069 0.2379 0.8411
C51_2 C 0.8906(2) 0.2829(2) 0.8395(2)
H42_2 H 0.8953 0.2850 0.8833
C52_2 C 0.9363(2) 0.3081(2) 0.8016(2)
C53_2 C 0.9288(2) 0.3044(2) 0.7367(2)
H43_2 H 0.9593 0.3221 0.7101
C54_2 C 0.8777(2) 0.2756(3) 0.7116(2)
H44_2 H 0.8743 0.2722 0.6678
C55_2 C 0.9929(3) 0.3393(2) 0.8257(2)
C61_2 C 0.7510(2) 0.1694(2) 0.7511(2)
C62_2 C 0.6855(2) 0.1622(2) 0.7547(3)
H51_2 H 0.6589 0.1931 0.7379
C63_2 C 0.6605(2) 0.1094(2) 0.7829(2)
H52_2 H 0.6167 0.1047 0.7850
C64_2 C 0.6984(2) 0.0637(2) 0.8081(2)
C65_2 C 0.7633(2) 0.0712(2) 0.8044(2)
H53_2 H 0.7899 0.0407 0.8221
C66_2 C 0.7884(2) 0.1223(2) 0.7756(3)
H54_2 H 0.8322 0.1257 0.7722
C67_2 C 0.6743(2) 0.0071(3) 0.8393(2)
Ag4_3 Ag 0.7500 0.45787(3) 0.5000
Ag5_3 Ag 0.54213(3) 0.0000 0.7500
H55_2 H 0.7019 0.9836 0.8645
C68_2 C 0.5475(3) 0.9063(3) 0.8585(3)
C69_2 C 0.5288(3) 0.8596(3) 0.9010(3)
H56_2 H 0.5530 0.8512 0.9369
C70_2 C 0.4754(3) 0.8268(4) 0.8897(4)
H57_2 H 0.4621 0.7955 0.9179
C71_2 C 0.4399(3) 0.8401(4) 0.8349(4)
H58_2 H 0.4032 0.8175 0.8252
C72_2 C 0.4611(3) 0.8866(4) 0.7973(3)
H59_2 H 0.4372 0.8965 0.7615
N18_2 N 0.61807(19) 0.9887(2) 0.83396(18)
N19_2 N 0.6013(2) 0.9369(2) 0.8686(2)
H60_2 H 0.6265 0.9236 0.8979
N20_2 N 0.5135(2) 0.9194(2) 0.8074(2)
Ag5_4 Ag 0.54213(3) 1.0000 0.7500
C1_3 C 0.7511(2) 0.2490(2) 0.3306(2)
C2_3 C 0.7547(3) 0.3145(2) 0.3378(2)
H1_3 H 0.7379 0.3411 0.3069
C3_3 C 0.7829(2) 0.3395(2) 0.3906(2)
H2_3 H 0.7850 0.3833 0.3953
C4_3 C 0.8081(2) 0.3016(2) 0.4363(2)
C5_3 C 0.8044(2) 0.2367(2) 0.4288(2)
H3_3 H 0.8221 0.2101 0.4593
C6_3 C 0.7756(3) 0.2116(2) 0.3777(2)
H4_3 H 0.7722 0.1678 0.3743
C7_3 C 0.8393(2) 0.3257(2) 0.4929(3)
H5_3 H 0.8645 0.2981 0.5164
C8_3 C 0.8585(3) 0.4525(3) 0.5937(3)
C9_3 C 0.9010(3) 0.4712(3) 0.6404(3)
H6_3 H 0.9369 0.4470 0.6488
C10_2 C 0.8897(4) 0.5246(3) 0.6732(4)
H7_2 H 0.9179 0.5379 0.7045
C11_2 C 0.8349(4) 0.5601(3) 0.6599(4)
H8_2 H 0.8252 0.5968 0.6825
C12_2 C 0.7973(3) 0.5389(3) 0.6134(4)
H9_2 H 0.7615 0.5628 0.6035
N1_3 N 0.7229(2) 0.2229(2) 0.2771(2)
N2_3 N 0.83396(18) 0.38193(19) 0.5113(2)
N3_3 N 0.8686(2) 0.3987(2) 0.5631(2)
H10_3 H 0.8979 0.3735 0.5764
N4_3 N 0.8074(2) 0.4865(2) 0.5806(2)
C13_3 C 0.6694(2) 0.2511(2) 0.2510(2)
C14_3 C 0.6622(2) 0.2547(3) 0.1855(2)
H11_3 H 0.6931 0.2379 0.1589
C15_3 C 0.6094(2) 0.2829(2) 0.1605(2)
H12_3 H 0.6047 0.2850 0.1167
C16_3 C 0.5637(2) 0.3081(2) 0.1984(2)
C17_3 C 0.5712(2) 0.3044(2) 0.2633(2)
H13_3 H 0.5407 0.3221 0.2899
C18_3 C 0.6223(2) 0.2756(3) 0.2884(2)
H14_3 H 0.6257 0.2722 0.3322
C19_3 C 0.5071(3) 0.3393(2) 0.1743(2)
H15_3 H 0.4836 0.3645 0.2019
C20_3 C 0.4063(3) 0.3585(3) 0.0475(3)
C21_3 C 0.3596(3) 0.4010(3) 0.0288(3)
H16_3 H 0.3512 0.4369 0.0530
N5_3 N 0.4887(2) 0.33396(18) 0.11807(19)
N6_3 N 0.4369(2) 0.3686(2) 0.1013(2)
H20_3 H 0.4236 0.3979 0.1265
N7_3 N 0.4194(2) 0.3074(2) 0.0135(2)
C25_3 C 0.7490(2) 0.1694(2) 0.2489(2)
C26_3 C 0.8145(2) 0.1622(2) 0.2453(3)
H21_3 H 0.8411 0.1931 0.2621
C27_3 C 0.8395(2) 0.1094(2) 0.2171(2)
H22_3 H 0.8833 0.1047 0.2150
C28_3 C 0.8016(2) 0.0637(2) 0.1919(2)
C29_3 C 0.7367(2) 0.0712(2) 0.1956(2)
H23_3 H 0.7101 0.0407 0.1779
C30_3 C 0.7116(2) 0.1223(2) 0.2244(3)
H24_3 H 0.6678 0.1257 0.2278
C31_3 C 0.8257(2) 0.0071(3) 0.1607(2)
Ag2_4 Ag 0.5000 0.2500 0.04213(3)
C37_3 C 0.2489(2) 0.2510(2) 0.3306(2)
C38_3 C 0.2453(3) 0.1855(2) 0.3378(2)
H31_3 H 0.2621 0.1589 0.3069
C39_3 C 0.2171(2) 0.1605(2) 0.3906(2)
H32_3 H 0.2150 0.1167 0.3953
C40_3 C 0.1919(2) 0.1984(2) 0.4363(2)
C41_3 C 0.1956(2) 0.2633(2) 0.4288(2)
H33_3 H 0.1779 0.2899 0.4593
C42_3 C 0.2244(3) 0.2884(2) 0.3777(2)
H34_3 H 0.2278 0.3322 0.3743
C43_3 C 0.1607(2) 0.1743(2) 0.4929(3)
H35_3 H 0.1355 0.2019 0.5164
C44_3 C 0.1415(3) 0.0475(3) 0.5937(3)
C45_3 C 0.0990(3) 0.0288(3) 0.6404(3)
H36_3 H 0.0631 0.0530 0.6488
N11_3 N 0.2771(2) 0.2771(2) 0.2771(2)
N13_3 N 0.1314(2) 0.1013(2) 0.5631(2)
H40_3 H 0.1021 0.1265 0.5764
C49_3 C 0.3306(2) 0.2489(2) 0.2510(2)
C50_3 C 0.3378(2) 0.2453(3) 0.1855(2)
H41_3 H 0.3069 0.2621 0.1589
C51_3 C 0.3906(2) 0.2171(2) 0.1605(2)
H42_3 H 0.3953 0.2150 0.1167
C52_3 C 0.4363(2) 0.1919(2) 0.1984(2)
C53_3 C 0.4288(2) 0.1956(2) 0.2633(2)
H43_3 H 0.4593 0.1779 0.2899
C54_3 C 0.3777(2) 0.2244(3) 0.2884(2)
H44_3 H 0.3743 0.2278 0.3322
C55_3 C 0.4929(3) 0.1607(2) 0.1743(2)
H45_3 H 0.5164 0.1355 0.2019
C56_3 C 0.5937(3) 0.1415(3) 0.0475(3)
C57_3 C 0.6404(3) 0.0990(3) 0.0288(3)
H46_3 H 0.6488 0.0631 0.0530
N15_3 N 0.5113(2) 0.16604(18) 0.11807(19)
N16_3 N 0.5631(2) 0.1314(2) 0.1013(2)
H50_3 H 0.5764 0.1021 0.1265
N17_3 N 0.5806(2) 0.1926(2) 0.0135(2)
C61_3 C 0.2510(2) 0.3306(2) 0.2489(2)
C62_3 C 0.1855(2) 0.3378(2) 0.2453(3)
H51_3 H 0.1589 0.3069 0.2621
C63_3 C 0.1605(2) 0.3906(2) 0.2171(2)
H52_3 H 0.1167 0.3953 0.2150
C64_3 C 0.1984(2) 0.4363(2) 0.1919(2)
C65_3 C 0.2633(2) 0.4288(2) 0.1956(2)
H53_3 H 0.2899 0.4593 0.1779
C66_3 C 0.2884(2) 0.3777(2) 0.2244(3)
H54_3 H 0.3322 0.3743 0.2278
C67_3 C 0.1743(2) 0.4929(3) 0.1607(2)
H55_3 H 0.2019 0.5164 0.1355
C68_3 C 0.0475(3) 0.5937(3) 0.1415(3)
C69_3 C 0.0288(3) 0.6404(3) 0.0990(3)
H56_3 H 0.0530 0.6488 0.0631
N19_3 N 0.1013(2) 0.5631(2) 0.1314(2)
H60_3 H 0.1265 0.5764 0.1021
C22_2 C 0.3268(4) 0.3897(4) 0.9754(3)
H17_2 H 0.2955 0.4179 0.9621
C23_2 C 0.3401(4) 0.3349(4) 0.9399(3)
H18_2 H 0.3175 0.3252 0.9032
C24_2 C 0.3866(4) 0.2973(3) 0.9611(3)
H19_2 H 0.3965 0.2615 0.9372
C58_2 C 0.6732(4) 0.1103(4) 0.9754(3)
H47_2 H 0.7045 0.0821 0.9621
C59_2 C 0.6599(4) 0.1651(4) 0.9399(3)
H48_2 H 0.6825 0.1748 0.9032
C60_2 C 0.6134(4) 0.2027(3) 0.9611(3)
H49_2 H 0.6035 0.2385 0.9372
H25_3 H 0.7981 0.9836 0.1355
C32_3 C 0.9525(3) 0.9063(3) 0.1415(3)
C33_3 C 0.9712(3) 0.8596(3) 0.0990(3)
H26_3 H 0.9470 0.8512 0.0631
N8_3 N 0.88193(19) 0.9887(2) 0.16604(18)
N9_3 N 0.8987(2) 0.9369(2) 0.1314(2)
H30_3 H 0.8735 0.9236 0.1021
N10_3 N 0.9865(2) 0.9194(2) 0.1926(2)
C46_3 C 0.1103(4) 0.9754(3) 0.6732(4)
H37_3 H 0.0821 0.9621 0.7045
C47_3 C 0.1651(4) 0.9399(3) 0.6599(4)
H38_3 H 0.1748 0.9032 0.6825
C48_3 C 0.2027(3) 0.9611(3) 0.6134(4)
H39_3 H 0.2385 0.9372 0.6035
C70_3 C 0.9754(3) 0.6732(4) 0.1103(4)
H57_3 H 0.9621 0.7045 0.0821
C71_3 C 0.9399(3) 0.6599(4) 0.1651(4)
H58_3 H 0.9032 0.6825 0.1748
C72_3 C 0.9611(3) 0.6134(4) 0.2027(3)
H59_3 H 0.9372 0.6035 0.2385
H35_4 H 0.3645 0.7981 0.0164
C44_4 C 0.3585(3) 0.9525(3) 0.0937(3)
C45_4 C 0.4010(3) 0.9712(3) 0.1404(3)
H36_4 H 0.4369 0.9470 0.1488
N13_4 N 0.3686(2) 0.8987(2) 0.0631(2)
H40_4 H 0.3979 0.8735 0.0764
H15_4 H 0.0164 0.6355 0.7019
C20_4 C 0.0937(3) 0.6415(3) 0.5475(3)
C21_4 C 0.1404(3) 0.5990(3) 0.5288(3)
H16_4 H 0.1488 0.5631 0.5530
C22_3 C 0.1732(4) 0.6103(4) 0.4754(3)
H17_3 H 0.2045 0.5821 0.4621
C23_3 C 0.1599(4) 0.6651(4) 0.4399(3)
H18_3 H 0.1825 0.6748 0.4032
C24_3 C 0.1134(4) 0.7027(3) 0.4611(3)
H19_3 H 0.1035 0.7385 0.4372
N5_4 N 0.0113(2) 0.66604(18) 0.61807(19)
N6_4 N 0.0631(2) 0.6314(2) 0.6013(2)
H20_4 H 0.0764 0.6021 0.6265
N7_4 N 0.0806(2) 0.6926(2) 0.5135(2)
Ag2_5 Ag 0.0000 0.7500 0.54213(3)
C37_4 C 0.2511(2) 0.7490(2) 0.8306(2)
C38_4 C 0.2547(3) 0.8145(2) 0.8378(2)
H31_4 H 0.2379 0.8411 0.8069
C39_4 C 0.2829(2) 0.8395(2) 0.8906(2)
H32_4 H 0.2850 0.8833 0.8953
C40_4 C 0.3081(2) 0.8016(2) 0.9363(2)
C41_4 C 0.3044(2) 0.7367(2) 0.9288(2)
H33_4 H 0.3221 0.7101 0.9593
C42_4 C 0.2756(3) 0.7116(2) 0.8777(2)
H34_4 H 0.2722 0.6678 0.8743
C43_4 C 0.3393(2) 0.8257(2) 0.9929(3)
N11_4 N 0.2229(2) 0.7229(2) 0.7771(2)
C49_4 C 0.1694(2) 0.7511(2) 0.7510(2)
C50_4 C 0.1622(2) 0.7547(3) 0.6855(2)
H41_4 H 0.1931 0.7379 0.6589
C51_4 C 0.1094(2) 0.7829(2) 0.6605(2)
H42_4 H 0.1047 0.7850 0.6167
C52_4 C 0.0637(2) 0.8081(2) 0.6984(2)
C53_4 C 0.0712(2) 0.8044(2) 0.7633(2)
H43_4 H 0.0407 0.8221 0.7899
C54_4 C 0.1223(2) 0.7756(3) 0.7884(2)
H44_4 H 0.1257 0.7722 0.8322
C55_4 C 0.0071(3) 0.8393(2) 0.6743(2)
C61_4 C 0.2490(2) 0.6694(2) 0.7489(2)
C62_4 C 0.3145(2) 0.6622(2) 0.7453(3)
H51_4 H 0.3411 0.6931 0.7621
C63_4 C 0.3395(2) 0.6094(2) 0.7171(2)
H52_4 H 0.3833 0.6047 0.7150
C64_4 C 0.3016(2) 0.5637(2) 0.6919(2)
C65_4 C 0.2367(2) 0.5712(2) 0.6956(2)
H53_4 H 0.2101 0.5407 0.6779
C66_4 C 0.2116(2) 0.6223(2) 0.7244(3)
H54_4 H 0.1678 0.6257 0.7278
C67_4 C 0.3257(2) 0.5071(3) 0.6607(2)
H55_4 H 0.2981 0.4836 0.6355
C68_4 C 0.4525(3) 0.4063(3) 0.6415(3)
C69_4 C 0.4712(3) 0.3596(3) 0.5990(3)
H56_4 H 0.4470 0.3512 0.5631
C70_4 C 0.5246(3) 0.3268(4) 0.6103(4)
H57_4 H 0.5379 0.2955 0.5821
C71_4 C 0.5601(3) 0.3401(4) 0.6651(4)
H58_4 H 0.5968 0.3175 0.6748
C72_4 C 0.5389(3) 0.3866(4) 0.7027(3)
H59_4 H 0.5628 0.3965 0.7385
N19_4 N 0.3987(2) 0.4369(2) 0.6314(2)
H60_4 H 0.3735 0.4236 0.6021
H25_4 H 0.7019 0.0164 0.6355
C32_4 C 0.5475(3) 0.0937(3) 0.6415(3)
C33_4 C 0.5288(3) 0.1404(3) 0.5990(3)
H26_4 H 0.5530 0.1488 0.5631
C34_3 C 0.4754(3) 0.1732(4) 0.6103(4)
H27_3 H 0.4621 0.2045 0.5821
C35_3 C 0.4399(3) 0.1599(4) 0.6651(4)
H28_3 H 0.4032 0.1825 0.6748
C36_3 C 0.4611(3) 0.1134(4) 0.7027(3)
H29_3 H 0.4372 0.1035 0.7385
N8_4 N 0.61807(19) 0.0113(2) 0.66604(18)
N9_4 N 0.6013(2) 0.0631(2) 0.6314(2)
H30_4 H 0.6265 0.0764 0.6021
N10_4 N 0.5135(2) 0.0806(2) 0.6926(2)
H5_4 H 0.6355 0.7019 0.0164
C8_4 C 0.6415(3) 0.5475(3) 0.0937(3)
C9_4 C 0.5990(3) 0.5288(3) 0.1404(3)
H6_4 H 0.5631 0.5530 0.1488
C10_3 C 0.6103(4) 0.4754(3) 0.1732(4)
H7_3 H 0.5821 0.4621 0.2045
C11_3 C 0.6651(4) 0.4399(3) 0.1599(4)
H8_3 H 0.6748 0.4032 0.1825
C12_3 C 0.7027(3) 0.4611(3) 0.1134(4)
H9_3 H 0.7385 0.4372 0.1035
N2_4 N 0.66604(18) 0.61807(19) 0.0113(2)
N3_4 N 0.6314(2) 0.6013(2) 0.0631(2)
H10_4 H 0.6021 0.6265 0.0764
N4_4 N 0.6926(2) 0.5135(2) 0.0806(2)
C1_4 C 0.7489(2) 0.7510(2) 0.8306(2)
C2_4 C 0.7453(3) 0.6855(2) 0.8378(2)
H1_4 H 0.7621 0.6589 0.8069
C3_4 C 0.7171(2) 0.6605(2) 0.8906(2)
H2_4 H 0.7150 0.6167 0.8953
C4_4 C 0.6919(2) 0.6984(2) 0.9363(2)
C5_4 C 0.6956(2) 0.7633(2) 0.9288(2)
H3_4 H 0.6779 0.7899 0.9593
C6_4 C 0.7244(3) 0.7884(2) 0.8777(2)
H4_4 H 0.7278 0.8322 0.8743
C7_4 C 0.6607(2) 0.6743(2) 0.9929(3)
N1_4 N 0.7771(2) 0.7771(2) 0.7771(2)
C13_4 C 0.8306(2) 0.7489(2) 0.7510(2)
C14_4 C 0.8378(2) 0.7453(3) 0.6855(2)
H11_4 H 0.8069 0.7621 0.6589
C15_4 C 0.8906(2) 0.7171(2) 0.6605(2)
H12_4 H 0.8953 0.7150 0.6167
C16_4 C 0.9363(2) 0.6919(2) 0.6984(2)
C17_4 C 0.9288(2) 0.6956(2) 0.7633(2)
H13_4 H 0.9593 0.6779 0.7899
C18_4 C 0.8777(2) 0.7244(3) 0.7884(2)
H14_4 H 0.8743 0.7278 0.8322
C19_4 C 0.9929(3) 0.6607(2) 0.6743(2)
C25_4 C 0.7510(2) 0.8306(2) 0.7489(2)
C26_4 C 0.6855(2) 0.8378(2) 0.7453(3)
H21_4 H 0.6589 0.8069 0.7621
C27_4 C 0.6605(2) 0.8906(2) 0.7171(2)
H22_4 H 0.6167 0.8953 0.7150
C28_4 C 0.6984(2) 0.9363(2) 0.6919(2)
C29_4 C 0.7633(2) 0.9288(2) 0.6956(2)
H23_4 H 0.7899 0.9593 0.6779
C30_4 C 0.7884(2) 0.8777(2) 0.7244(3)
H24_4 H 0.8322 0.8743 0.7278
C31_4 C 0.6743(2) 0.9929(3) 0.6607(2)
Ag2_6 Ag 1.0000 0.7500 0.54213(3)
H45_4 H 0.9836 0.8645 0.7019
C56_4 C 0.9063(3) 0.8585(3) 0.5475(3)
C57_4 C 0.8596(3) 0.9010(3) 0.5288(3)
H46_4 H 0.8512 0.9369 0.5530
C58_3 C 0.8268(4) 0.8897(4) 0.4754(3)
H47_3 H 0.7955 0.9179 0.4621
C59_3 C 0.8401(4) 0.8349(4) 0.4399(3)
H48_3 H 0.8175 0.8252 0.4032
C60_3 C 0.8866(4) 0.7973(3) 0.4611(3)
H49_3 H 0.8965 0.7615 0.4372
N15_4 N 0.9887(2) 0.83396(18) 0.61807(19)
N16_4 N 0.9369(2) 0.8686(2) 0.6013(2)
H50_4 H 0.9236 0.8979 0.6265
N17_4 N 0.9194(2) 0.8074(2) 0.5135(2)
C10_4 C 0.1103(4) 0.0246(3) 0.8268(4)
H7_4 H 0.0821 0.0379 0.7955
C11_4 C 0.1651(4) 0.0601(3) 0.8401(4)
H8_4 H 0.1748 0.0968 0.8175
C12_4 C 0.2027(3) 0.0389(3) 0.8866(4)
H9_4 H 0.2385 0.0628 0.8965
C58_4 C 0.1732(4) 0.3897(4) 0.0246(3)
H47_4 H 0.2045 0.4179 0.0379
C59_4 C 0.1599(4) 0.3349(4) 0.0601(3)
H48_4 H 0.1825 0.3252 0.0968
C60_4 C 0.1134(4) 0.2973(3) 0.0389(3)
H49_4 H 0.1035 0.2615 0.0628
C22_4 C 0.8268(4) 0.1103(4) 0.0246(3)
H17_4 H 0.7955 0.0821 0.0379
C23_4 C 0.8401(4) 0.1651(4) 0.0601(3)
H18_4 H 0.8175 0.1748 0.0968
C24_4 C 0.8866(4) 0.2027(3) 0.0389(3)
H19_4 H 0.8965 0.2385 0.0628
C34_4 C 0.0246(3) 0.8268(4) 0.1103(4)
H27_4 H 0.0379 0.7955 0.0821
C35_4 C 0.0601(3) 0.8401(4) 0.1651(4)
H28_4 H 0.0968 0.8175 0.1748
C36_4 C 0.0389(3) 0.8866(4) 0.2027(3)
H29_4 H 0.0628 0.8965 0.2385
C46_4 C 0.3897(4) 0.0246(3) 0.1732(4)
H37_4 H 0.4179 0.0379 0.2045
C47_4 C 0.3349(4) 0.0601(3) 0.1599(4)
H38_4 H 0.3252 0.0968 0.1825
C48_4 C 0.2973(3) 0.0389(3) 0.1134(4)
H39_4 H 0.2615 0.0628 0.1035
Cl1 Cl 0.0000 0.7500 0.94085(8)
O3 O 0.0487(3) 0.7255(2) 0.9782(3)
O4 O 0.0253(2) 0.7989(3) 0.9039(2)
Cl1_2 Cl 1.0000 0.7500 0.94085(8)
O1 O 0.9513(3) 0.7745(2) 0.9782(3)
O2 O 0.9747(2) 0.7011(3) 0.9039(2)
Cl1_3 Cl 0.5000 0.2500 0.44085(8)
O1_2 O 0.5487(3) 0.2255(2) 0.4782(3)
O2_2 O 0.5253(2) 0.2989(3) 0.4039(2)
O3_2 O 0.4513(3) 0.2745(2) 0.4782(3)
O4_2 O 0.4747(2) 0.2011(3) 0.4039(2)
Cl1_4 Cl 0.0000 0.2500 0.55915(8)
O1_3 O 0.0487(3) 0.2745(2) 0.5218(3)
O2_3 O 0.0253(2) 0.2011(3) 0.5961(2)
Cl1_5 Cl 1.0000 0.2500 0.55915(8)
O3_3 O 0.9513(3) 0.2255(2) 0.5218(3)
O4_3 O 0.9747(2) 0.2989(3) 0.5961(2)
Cl1_6 Cl 0.5000 0.7500 0.05915(8)
O1_4 O 0.4513(3) 0.7255(2) 0.0218(3)
O2_4 O 0.4747(2) 0.7989(3) 0.0961(2)
O3_4 O 0.5487(3) 0.7745(2) 0.0218(3)
O4_4 O 0.5253(2) 0.7011(3) 0.0961(2)
Cl1_7 Cl 0.94085(8) 0.0000 0.7500
O3_5 O 0.9782(3) 0.0487(3) 0.7255(2)
O4_5 O 0.9039(2) 0.0253(2) 0.7989(3)
Cl1_8 Cl 0.94085(8) 1.0000 0.7500
O1_5 O 0.9782(3) 0.9513(3) 0.7745(2)
O2_5 O 0.9039(2) 0.9747(2) 0.7011(3)
Cl1_9 Cl 0.44085(8) 0.5000 0.2500
O1_6 O 0.4782(3) 0.5487(3) 0.2255(2)
O2_6 O 0.4039(2) 0.5253(2) 0.2989(3)
O3_6 O 0.4782(3) 0.4513(3) 0.2745(2)
O4_6 O 0.4039(2) 0.4747(2) 0.2011(3)
Cl1_10 Cl 0.55915(8) 0.0000 0.2500
O1_7 O 0.5218(3) 0.0487(3) 0.2745(2)
O2_7 O 0.5961(2) 0.0253(2) 0.2011(3)
Cl1_11 Cl 0.55915(8) 1.0000 0.2500
O3_7 O 0.5218(3) 0.9513(3) 0.2255(2)
O4_7 O 0.5961(2) 0.9747(2) 0.2989(3)
Cl1_12 Cl 0.05915(8) 0.5000 0.7500
O1_8 O 0.0218(3) 0.4513(3) 0.7255(2)
O2_8 O 0.0961(2) 0.4747(2) 0.7989(3)
O3_8 O 0.0218(3) 0.5487(3) 0.7745(2)
O4_8 O 0.0961(2) 0.5253(2) 0.7011(3)
Cl1_13 Cl 0.7500 0.94085(8) 0.0000
O3_9 O 0.7255(2) 0.9782(3) 0.0487(3)
O4_9 O 0.7989(3) 0.9039(2) 0.0253(2)
Cl1_14 Cl 0.7500 0.94085(8) 1.0000
O1_9 O 0.7745(2) 0.9782(3) 0.9513(3)
O2_9 O 0.7011(3) 0.9039(2) 0.9747(2)
Cl1_15 Cl 0.2500 0.44085(8) 0.5000
O1_10 O 0.2255(2) 0.4782(3) 0.5487(3)
O2_10 O 0.2989(3) 0.4039(2) 0.5253(2)
O3_10 O 0.2745(2) 0.4782(3) 0.4513(3)
O4_10 O 0.2011(3) 0.4039(2) 0.4747(2)
Cl1_16 Cl 0.2500 0.55915(8) 0.0000
O1_11 O 0.2745(2) 0.5218(3) 0.0487(3)
O2_11 O 0.2011(3) 0.5961(2) 0.0253(2)
Cl1_17 Cl 0.2500 0.55915(8) 1.0000
O3_11 O 0.2255(2) 0.5218(3) 0.9513(3)
O4_11 O 0.2989(3) 0.5961(2) 0.9747(2)
Cl1_18 Cl 0.7500 0.05915(8) 0.5000
O1_12 O 0.7255(2) 0.0218(3) 0.4513(3)
O2_12 O 0.7989(3) 0.0961(2) 0.4747(2)
O3_12 O 0.7745(2) 0.0218(3) 0.5487(3)
O4_12 O 0.7011(3) 0.0961(2) 0.5253(2)
loop_
_geom_bond_atom_site_label_1
_geom_bond_atom_site_label_2
_geom_bond_site_symmetry_1
_geom_bond_site_symmetry_2
H57 C70 1_555 1_555
C71 C70 1_555 1_555
H58 C71 1_555 1_555
C72 C71 1_555 1_555
H59 C72 1_555 1_555
C68 C69 1_555 1_555
C69 H56 1_555 1_555
N19 C68 1_555 1_555
H60 N19 1_555 1_555
N20 C68 1_555 1_555
Ag5 N18 1_555 1_555
N18 N19 1_555 1_555
N20 Ag5 1_555 1_555
C1 C2 1_555 1_555
C2 H1 1_555 1_555
C3 C2 1_555 1_555
H2 C3 1_555 1_555
C4 C3 1_555 1_555
C5 C4 1_555 1_555
H3 C5 1_555 1_555
C6 C1 1_555 1_555
H4 C6 1_555 1_555
C7 C4 1_555 1_555
N1 C1 1_555 1_555
C13 N1 1_555 1_555
C14 C13 1_555 1_555
H11 C14 1_555 1_555
C15 C14 1_555 1_555
H12 C15 1_555 1_555
C16 C15 1_555 1_555
C17 C16 1_555 1_555
H13 C17 1_555 1_555
C18 C13 1_555 1_555
H14 C18 1_555 1_555
C19 C16 1_555 1_555
H15 C19 1_555 1_555
C20 C21 1_555 1_555
C21 H16 1_555 1_555
C22 C21 1_555 1_555
H17 C22 1_555 1_555
C23 C22 1_555 1_555
H18 C23 1_555 1_555
C24 C23 1_555 1_555
H19 C24 1_555 1_555
N5 C19 1_555 1_555
N6 C20 1_555 1_555
H20 N6 1_555 1_555
N7 C20 1_555 1_555
C25 N1 1_555 1_555
C26 C25 1_555 1_555
H21 C26 1_555 1_555
C27 C26 1_555 1_555
H22 C27 1_555 1_555
C28 C27 1_555 1_555
C29 C28 1_555 1_555
H23 C29 1_555 1_555
C30 C25 1_555 1_555
H24 C30 1_555 1_555
C31 C28 1_555 1_555
H25 C31 1_555 1_555
C32 C33 1_555 1_555
C33 H26 1_555 1_555
N8 C31 1_555 1_555
N9 C32 1_555 1_555
H30 N9 1_555 1_555
N10 C32 1_555 1_555
Ag2 N5 1_555 1_555
Ag3 N8 1_555 1_555
C37 C38 1_555 1_555
C38 H31 1_555 1_555
C39 C38 1_555 1_555
H32 C39 1_555 1_555
C40 C39 1_555 1_555
C41 C40 1_555 1_555
H33 C41 1_555 1_555
C42 C37 1_555 1_555
H34 C42 1_555 1_555
C43 C40 1_555 1_555
N11 C37 1_555 1_555
C49 N11 1_555 1_555
C50 C49 1_555 1_555
H41 C50 1_555 1_555
C51 C50 1_555 1_555
H42 C51 1_555 1_555
C52 C51 1_555 1_555
C53 C52 1_555 1_555
H43 C53 1_555 1_555
C54 C49 1_555 1_555
H44 C54 1_555 1_555
C55 C52 1_555 1_555
H45 C55 1_555 1_555
C56 C57 1_555 1_555
C57 H46 1_555 1_555
C58 C57 1_555 1_555
H47 C58 1_555 1_555
C59 C58 1_555 1_555
H48 C59 1_555 1_555
C60 C59 1_555 1_555
H49 C60 1_555 1_555
N15 Ag2 1_555 1_555
N16 C56 1_555 1_555
H50 N16 1_555 1_555
N17 Ag2 1_555 1_555
C61 N11 1_555 1_555
C62 C61 1_555 1_555
H51 C62 1_555 1_555
C63 C62 1_555 1_555
H52 C63 1_555 1_555
C64 C63 1_555 1_555
C65 C64 1_555 1_555
H53 C65 1_555 1_555
C66 C61 1_555 1_555
H54 C66 1_555 1_555
C67 C64 1_555 1_555
N21 Ag1 1_555 1_555
N22 Ag3 1_555 1_555
N23 Ag1 1_555 1_555
N24 Ag3 1_555 1_555
C5 C6 1_555 1_555
C17 C18 1_555 1_555
C24 N7 1_555 1_555
N5 N6 1_555 1_555
N7 Ag2 1_555 1_555
C29 C30 1_555 1_555
N8 N9 1_555 1_555
N10 Ag3 1_555 1_555
C41 C42 1_555 1_555
C53 C54 1_555 1_555
C55 N15 1_555 1_555
C56 N17 1_555 1_555
C60 N17 1_555 1_555
N15 N16 1_555 1_555
C65 C66 1_555 1_555
Ag1_2 N2 1_555 1_555
C8 C9 1_555 1_555
C9 H6 1_555 1_555
N3 C8 1_555 1_555
H10 N3 1_555 1_555
N4 Ag1_2 1_555 1_555
C44 C45 1_555 1_555
C45 H36 1_555 1_555
C46 C45 1_555 1_555
H37 C46 1_555 1_555
C47 C46 1_555 1_555
H38 C47 1_555 1_555
C48 C47 1_555 1_555
H39 C48 1_555 1_555
N13 C44 1_555 1_555
H40 N13 1_555 1_555
N14 C44 1_555 1_555
Ag4_2 N12 1_555 1_555
C8 N4 1_555 1_555
N2 N3 1_555 1_555
C48 N14 1_555 1_555
N12 N13 1_555 1_555
N14 Ag4_2 1_555 1_555
H27 C34 1_555 1_555
C35 C34 1_555 1_555
H28 C35 1_555 1_555
C36 C35 1_555 1_555
H29 C36 1_555 1_555
Ag1_3 N2_2 1_555 1_555
C1_2 C2_2 1_555 1_555
C2_2 H1_2 1_555 1_555
C3_2 C2_2 1_555 1_555
H2_2 C3_2 1_555 1_555
C4_2 C3_2 1_555 1_555
C5_2 C4_2 1_555 1_555
H3_2 C5_2 1_555 1_555
C6_2 C1_2 1_555 1_555
H4_2 C6_2 1_555 1_555
C7_2 C4_2 1_555 1_555
H5_2 C7_2 1_555 1_555
C8_2 C9_2 1_555 1_555
C9_2 H6_2 1_555 1_555
N1_2 C1_2 1_555 1_555
N2_2 C7_2 1_555 1_555
N3_2 C8_2 1_555 1_555
H10_2 N3_2 1_555 1_555
N4_2 Ag1_3 1_555 1_555
C13_2 N1_2 1_555 1_555
C14_2 C13_2 1_555 1_555
H11_2 C14_2 1_555 1_555
C15_2 C14_2 1_555 1_555
H12_2 C15_2 1_555 1_555
C16_2 C15_2 1_555 1_555
C17_2 C16_2 1_555 1_555
H13_2 C17_2 1_555 1_555
C18_2 C13_2 1_555 1_555
H14_2 C18_2 1_555 1_555
C19_2 C16_2 1_555 1_555
C25_2 N1_2 1_555 1_555
C26_2 C25_2 1_555 1_555
H21_2 C26_2 1_555 1_555
C27_2 C26_2 1_555 1_555
H22_2 C27_2 1_555 1_555
C28_2 C27_2 1_555 1_555
C29_2 C28_2 1_555 1_555
H23_2 C29_2 1_555 1_555
C30_2 C25_2 1_555 1_555
H24_2 C30_2 1_555 1_555
C31_2 C28_2 1_555 1_555
H25_2 C31_2 1_555 1_555
C32_2 C33_2 1_555 1_555
C33_2 H26_2 1_555 1_555
C34_2 C33_2 1_555 1_555
H27_2 C34_2 1_555 1_555
C35_2 C34_2 1_555 1_555
H28_2 C35_2 1_555 1_555
C36_2 C35_2 1_555 1_555
H29_2 C36_2 1_555 1_555
N8_2 C31_2 1_555 1_555
N9_2 C32_2 1_555 1_555
H30_2 N9_2 1_555 1_555
N10_2 C32_2 1_555 1_555
Ag3_2 N8_2 1_555 1_555
C56_2 C57_2 1_555 1_555
C57_2 H46_2 1_555 1_555
N15_2 Ag2_2 1_555 1_555
N16_2 C56_2 1_555 1_555
H50_2 N16_2 1_555 1_555
N17_2 Ag2_2 1_555 1_555
N21_2 Ag1_3 1_555 1_555
N22_2 Ag3_2 1_555 1_555
N23_2 Ag1_3 1_555 1_555
N24_2 Ag3_2 1_555 1_555
C5_2 C6_2 1_555 1_555
C8_2 N4_2 1_555 1_555
N2_2 N3_2 1_555 1_555
C17_2 C18_2 1_555 1_555
C29_2 C30_2 1_555 1_555
C36_2 N10_2 1_555 1_555
N8_2 N9_2 1_555 1_555
N10_2 Ag3_2 1_555 1_555
C56_2 N17_2 1_555 1_555
N15_2 N16_2 1_555 1_555
H7 C10 1_555 1_555
C11 C10 1_555 1_555
H8 C11 1_555 1_555
C12 C11 1_555 1_555
H9 C12 1_555 1_555
C20_2 C21_2 1_555 1_555
C21_2 H16_2 1_555 1_555
N6_2 C20_2 1_555 1_555
H20_2 N6_2 1_555 1_555
N7_2 C20_2 1_555 1_555
Ag2_3 N5_2 1_555 1_555
C37_2 C38_2 1_555 1_555
C38_2 H31_2 1_555 1_555
C39_2 C38_2 1_555 1_555
H32_2 C39_2 1_555 1_555
C40_2 C39_2 1_555 1_555
C41_2 C40_2 1_555 1_555
H33_2 C41_2 1_555 1_555
C42_2 C37_2 1_555 1_555
H34_2 C42_2 1_555 1_555
C43_2 C40_2 1_555 1_555
H35_2 C43_2 1_555 1_555
C44_2 C45_2 1_555 1_555
C45_2 H36_2 1_555 1_555
C46_2 C45_2 1_555 1_555
H37_2 C46_2 1_555 1_555
C47_2 C46_2 1_555 1_555
H38_2 C47_2 1_555 1_555
C48_2 C47_2 1_555 1_555
H39_2 C48_2 1_555 1_555
N11_2 C37_2 1_555 1_555
N12_2 C43_2 1_555 1_555
N13_2 C44_2 1_555 1_555
H40_2 N13_2 1_555 1_555
N14_2 C44_2 1_555 1_555
C49_2 N11_2 1_555 1_555
C50_2 C49_2 1_555 1_555
H41_2 C50_2 1_555 1_555
C51_2 C50_2 1_555 1_555
H42_2 C51_2 1_555 1_555
C52_2 C51_2 1_555 1_555
C53_2 C52_2 1_555 1_555
H43_2 C53_2 1_555 1_555
C54_2 C49_2 1_555 1_555
H44_2 C54_2 1_555 1_555
C55_2 C52_2 1_555 1_555
C61_2 N11_2 1_555 1_555
C62_2 C61_2 1_555 1_555
H51_2 C62_2 1_555 1_555
C63_2 C62_2 1_555 1_555
H52_2 C63_2 1_555 1_555
C64_2 C63_2 1_555 1_555
C65_2 C64_2 1_555 1_555
H53_2 C65_2 1_555 1_555
C66_2 C61_2 1_555 1_555
H54_2 C66_2 1_555 1_555
C67_2 C64_2 1_555 1_555
Ag4_3 N12_2 1_555 1_555
N5_2 N6_2 1_555 1_555
N7_2 Ag2_3 1_555 1_555
C41_2 C42_2 1_555 1_555
C48_2 N14_2 1_555 1_555
N12_2 N13_2 1_555 1_555
N14_2 Ag4_3 1_555 1_555
C53_2 C54_2 1_555 1_555
C65_2 C66_2 1_555 1_555
C68_2 C69_2 1_555 1_555
C69_2 H56_2 1_555 1_555
C70_2 C69_2 1_555 1_555
H57_2 C70_2 1_555 1_555
C71_2 C70_2 1_555 1_555
H58_2 C71_2 1_555 1_555
C72_2 C71_2 1_555 1_555
H59_2 C72_2 1_555 1_555
N19_2 C68_2 1_555 1_555
H60_2 N19_2 1_555 1_555
N20_2 C68_2 1_555 1_555
Ag5_4 N18_2 1_555 1_555
C72_2 N20_2 1_555 1_555
N18_2 N19_2 1_555 1_555
N20_2 Ag5_4 1_555 1_555
Ag4_3 N2_3 1_555 1_555
C1_3 C2_3 1_555 1_555
C2_3 H1_3 1_555 1_555
C3_3 C2_3 1_555 1_555
H2_3 C3_3 1_555 1_555
C4_3 C3_3 1_555 1_555
C5_3 C4_3 1_555 1_555
H3_3 C5_3 1_555 1_555
C6_3 C1_3 1_555 1_555
H4_3 C6_3 1_555 1_555
C7_3 C4_3 1_555 1_555
H5_3 C7_3 1_555 1_555
C8_3 C9_3 1_555 1_555
C9_3 H6_3 1_555 1_555
C10_2 C9_3 1_555 1_555
H7_2 C10_2 1_555 1_555
C11_2 C10_2 1_555 1_555
H8_2 C11_2 1_555 1_555
C12_2 C11_2 1_555 1_555
H9_2 C12_2 1_555 1_555
N1_3 C1_3 1_555 1_555
N2_3 C7_3 1_555 1_555
N3_3 C8_3 1_555 1_555
H10_3 N3_3 1_555 1_555
N4_3 Ag4_3 1_555 1_555
C13_3 N1_3 1_555 1_555
C14_3 C13_3 1_555 1_555
H11_3 C14_3 1_555 1_555
C15_3 C14_3 1_555 1_555
H12_3 C15_3 1_555 1_555
C16_3 C15_3 1_555 1_555
C17_3 C16_3 1_555 1_555
H13_3 C17_3 1_555 1_555
C18_3 C13_3 1_555 1_555
H14_3 C18_3 1_555 1_555
C19_3 C16_3 1_555 1_555
H15_3 C19_3 1_555 1_555
C20_3 C21_3 1_555 1_555
C21_3 H16_3 1_555 1_555
N5_3 C19_3 1_555 1_555
N6_3 C20_3 1_555 1_555
H20_3 N6_3 1_555 1_555
N7_3 C20_3 1_555 1_555
C25_3 N1_3 1_555 1_555
C26_3 C25_3 1_555 1_555
H21_3 C26_3 1_555 1_555
C27_3 C26_3 1_555 1_555
H22_3 C27_3 1_555 1_555
C28_3 C27_3 1_555 1_555
C29_3 C28_3 1_555 1_555
H23_3 C29_3 1_555 1_555
C30_3 C25_3 1_555 1_555
H24_3 C30_3 1_555 1_555
C31_3 C28_3 1_555 1_555
Ag2_4 N5_3 1_555 1_555
C37_3 C38_3 1_555 1_555
C38_3 H31_3 1_555 1_555
C39_3 C38_3 1_555 1_555
H32_3 C39_3 1_555 1_555
C40_3 C39_3 1_555 1_555
C41_3 C40_3 1_555 1_555
H33_3 C41_3 1_555 1_555
C42_3 C37_3 1_555 1_555
H34_3 C42_3 1_555 1_555
C43_3 C40_3 1_555 1_555
H35_3 C43_3 1_555 1_555
C44_3 C45_3 1_555 1_555
C45_3 H36_3 1_555 1_555
N11_3 C37_3 1_555 1_555
N21_2 C43_3 1_555 1_555
N13_3 C44_3 1_555 1_555
H40_3 N13_3 1_555 1_555
N23_2 C44_3 1_555 1_555
C49_3 N11_3 1_555 1_555
C50_3 C49_3 1_555 1_555
H41_3 C50_3 1_555 1_555
C51_3 C50_3 1_555 1_555
H42_3 C51_3 1_555 1_555
C52_3 C51_3 1_555 1_555
C53_3 C52_3 1_555 1_555
H43_3 C53_3 1_555 1_555
C54_3 C49_3 1_555 1_555
H44_3 C54_3 1_555 1_555
C55_3 C52_3 1_555 1_555
H45_3 C55_3 1_555 1_555
C56_3 C57_3 1_555 1_555
C57_3 H46_3 1_555 1_555
N15_3 Ag2_4 1_555 1_555
N16_3 C56_3 1_555 1_555
H50_3 N16_3 1_555 1_555
N17_3 Ag2_4 1_555 1_555
C61_3 N11_3 1_555 1_555
C62_3 C61_3 1_555 1_555
H51_3 C62_3 1_555 1_555
C63_3 C62_3 1_555 1_555
H52_3 C63_3 1_555 1_555
C64_3 C63_3 1_555 1_555
C65_3 C64_3 1_555 1_555
H53_3 C65_3 1_555 1_555
C66_3 C61_3 1_555 1_555
H54_3 C66_3 1_555 1_555
C67_3 C64_3 1_555 1_555
H55_3 C67_3 1_555 1_555
C68_3 C69_3 1_555 1_555
C69_3 H56_3 1_555 1_555
N22 C67_3 1_555 1_555
N19_3 C68_3 1_555 1_555
H60_3 N19_3 1_555 1_555
N24 C68_3 1_555 1_555
C5_3 C6_3 1_555 1_555
C8_3 N4_3 1_555 1_555
C12_2 N4_3 1_555 1_555
N2_3 N3_3 1_555 1_555
C17_3 C18_3 1_555 1_555
N5_3 N6_3 1_555 1_555
N7_3 Ag2_4 1_555 1_555
C29_3 C30_3 1_555 1_555
C41_3 C42_3 1_555 1_555
N21_2 N13_3 1_555 1_555
C53_3 C54_3 1_555 1_555
C55_3 N15_3 1_555 1_555
C56_3 N17_3 1_555 1_555
N15_3 N16_3 1_555 1_555
C65_3 C66_3 1_555 1_555
N22 N19_3 1_555 1_555
H17_2 C22_2 1_555 1_555
C23_2 C22_2 1_555 1_555
H18_2 C23_2 1_555 1_555
C24_2 C23_2 1_555 1_555
H19_2 C24_2 1_555 1_555
H47_2 C58_2 1_555 1_555
C59_2 C58_2 1_555 1_555
H48_2 C59_2 1_555 1_555
C60_2 C59_2 1_555 1_555
H49_2 C60_2 1_555 1_555
C32_3 C33_3 1_555 1_555
C33_3 H26_3 1_555 1_555
N9_3 C32_3 1_555 1_555
H30_3 N9_3 1_555 1_555
N10_3 C32_3 1_555 1_555
Ag5_2 N8_3 1_555 1_555
H37_3 C46_3 1_555 1_555
C47_3 C46_3 1_555 1_555
H38_3 C47_3 1_555 1_555
C48_3 C47_3 1_555 1_555
H39_3 C48_3 1_555 1_555
N8_3 N9_3 1_555 1_555
N10_3 Ag5_2 1_555 1_555
H57_3 C70_3 1_555 1_555
C71_3 C70_3 1_555 1_555
H58_3 C71_3 1_555 1_555
C72_3 C71_3 1_555 1_555
H59_3 C72_3 1_555 1_555
C44_4 C45_4 1_555 1_555
C45_4 H36_4 1_555 1_555
N13_4 C44_4 1_555 1_555
H40_4 N13_4 1_555 1_555
N23 C44_4 1_555 1_555
N21 N13_4 1_555 1_555
C20_4 C21_4 1_555 1_555
C21_4 H16_4 1_555 1_555
C22_3 C21_4 1_555 1_555
H17_3 C22_3 1_555 1_555
C23_3 C22_3 1_555 1_555
H18_3 C23_3 1_555 1_555
C24_3 C23_3 1_555 1_555
H19_3 C24_3 1_555 1_555
N6_4 C20_4 1_555 1_555
H20_4 N6_4 1_555 1_555
N7_4 C20_4 1_555 1_555
Ag2_5 N5_4 1_555 1_555
C37_4 C38_4 1_555 1_555
C38_4 H31_4 1_555 1_555
C39_4 C38_4 1_555 1_555
H32_4 C39_4 1_555 1_555
C40_4 C39_4 1_555 1_555
C41_4 C40_4 1_555 1_555
H33_4 C41_4 1_555 1_555
C42_4 C37_4 1_555 1_555
H34_4 C42_4 1_555 1_555
C43_4 C40_4 1_555 1_555
N11_4 C37_4 1_555 1_555
C49_4 N11_4 1_555 1_555
C50_4 C49_4 1_555 1_555
H41_4 C50_4 1_555 1_555
C51_4 C50_4 1_555 1_555
H42_4 C51_4 1_555 1_555
C52_4 C51_4 1_555 1_555
C53_4 C52_4 1_555 1_555
H43_4 C53_4 1_555 1_555
C54_4 C49_4 1_555 1_555
H44_4 C54_4 1_555 1_555
C55_4 C52_4 1_555 1_555
C61_4 N11_4 1_555 1_555
C62_4 C61_4 1_555 1_555
H51_4 C62_4 1_555 1_555
C63_4 C62_4 1_555 1_555
H52_4 C63_4 1_555 1_555
C64_4 C63_4 1_555 1_555
C65_4 C64_4 1_555 1_555
H53_4 C65_4 1_555 1_555
C66_4 C61_4 1_555 1_555
H54_4 C66_4 1_555 1_555
C67_4 C64_4 1_555 1_555
H55_4 C67_4 1_555 1_555
C68_4 C69_4 1_555 1_555
C69_4 H56_4 1_555 1_555
C70_4 C69_4 1_555 1_555
H57_4 C70_4 1_555 1_555
C71_4 C70_4 1_555 1_555
H58_4 C71_4 1_555 1_555
C72_4 C71_4 1_555 1_555
H59_4 C72_4 1_555 1_555
N22_2 C67_4 1_555 1_555
N19_4 C68_4 1_555 1_555
H60_4 N19_4 1_555 1_555
N24_2 C68_4 1_555 1_555
C24_3 N7_4 1_555 1_555
N5_4 N6_4 1_555 1_555
N7_4 Ag2_5 1_555 1_555
C41_4 C42_4 1_555 1_555
C53_4 C54_4 1_555 1_555
C65_4 C66_4 1_555 1_555
C72_4 N24_2 1_555 1_555
N22_2 N19_4 1_555 1_555
C32_4 C33_4 1_555 1_555
C33_4 H26_4 1_555 1_555
C34_3 C33_4 1_555 1_555
H27_3 C34_3 1_555 1_555
C35_3 C34_3 1_555 1_555
H28_3 C35_3 1_555 1_555
C36_3 C35_3 1_555 1_555
H29_3 C36_3 1_555 1_555
N9_4 C32_4 1_555 1_555
H30_4 N9_4 1_555 1_555
N10_4 C32_4 1_555 1_555
Ag5_3 N8_4 1_555 1_555
C36_3 N10_4 1_555 1_555
N8_4 N9_4 1_555 1_555
N10_4 Ag5_3 1_555 1_555
Ag4 N2_4 1_555 1_555
C8_4 C9_4 1_555 1_555
C9_4 H6_4 1_555 1_555
C10_3 C9_4 1_555 1_555
H7_3 C10_3 1_555 1_555
C11_3 C10_3 1_555 1_555
H8_3 C11_3 1_555 1_555
C12_3 C11_3 1_555 1_555
H9_3 C12_3 1_555 1_555
N3_4 C8_4 1_555 1_555
H10_4 N3_4 1_555 1_555
N4_4 Ag4 1_555 1_555
C8_4 N4_4 1_555 1_555
C12_3 N4_4 1_555 1_555
N2_4 N3_4 1_555 1_555
C1_4 C2_4 1_555 1_555
C2_4 H1_4 1_555 1_555
C3_4 C2_4 1_555 1_555
H2_4 C3_4 1_555 1_555
C4_4 C3_4 1_555 1_555
C5_4 C4_4 1_555 1_555
H3_4 C5_4 1_555 1_555
C6_4 C1_4 1_555 1_555
H4_4 C6_4 1_555 1_555
C7_4 C4_4 1_555 1_555
N1_4 C1_4 1_555 1_555
C13_4 N1_4 1_555 1_555
C14_4 C13_4 1_555 1_555
H11_4 C14_4 1_555 1_555
C15_4 C14_4 1_555 1_555
H12_4 C15_4 1_555 1_555
C16_4 C15_4 1_555 1_555
C17_4 C16_4 1_555 1_555
H13_4 C17_4 1_555 1_555
C18_4 C13_4 1_555 1_555
H14_4 C18_4 1_555 1_555
C19_4 C16_4 1_555 1_555
C25_4 N1_4 1_555 1_555
C26_4 C25_4 1_555 1_555
H21_4 C26_4 1_555 1_555
C27_4 C26_4 1_555 1_555
H22_4 C27_4 1_555 1_555
C28_4 C27_4 1_555 1_555
C29_4 C28_4 1_555 1_555
H23_4 C29_4 1_555 1_555
C30_4 C25_4 1_555 1_555
H24_4 C30_4 1_555 1_555
C31_4 C28_4 1_555 1_555
C56_4 C57_4 1_555 1_555
C57_4 H46_4 1_555 1_555
C58_3 C57_4 1_555 1_555
H47_3 C58_3 1_555 1_555
C59_3 C58_3 1_555 1_555
H48_3 C59_3 1_555 1_555
C60_3 C59_3 1_555 1_555
H49_3 C60_3 1_555 1_555
N15_4 Ag2_6 1_555 1_555
N16_4 C56_4 1_555 1_555
H50_4 N16_4 1_555 1_555
N17_4 Ag2_6 1_555 1_555
C5_4 C6_4 1_555 1_555
C17_4 C18_4 1_555 1_555
C29_4 C30_4 1_555 1_555
C56_4 N17_4 1_555 1_555
C60_3 N17_4 1_555 1_555
N15_4 N16_4 1_555 1_555
H7_4 C10_4 1_555 1_555
C11_4 C10_4 1_555 1_555
H8_4 C11_4 1_555 1_555
C12_4 C11_4 1_555 1_555
H9_4 C12_4 1_555 1_555
H47_4 C58_4 1_555 1_555
C59_4 C58_4 1_555 1_555
H48_4 C59_4 1_555 1_555
C60_4 C59_4 1_555 1_555
H49_4 C60_4 1_555 1_555
H17_4 C22_4 1_555 1_555
C23_4 C22_4 1_555 1_555
H18_4 C23_4 1_555 1_555
C24_4 C23_4 1_555 1_555
H19_4 C24_4 1_555 1_555
H27_4 C34_4 1_555 1_555
C35_4 C34_4 1_555 1_555
H28_4 C35_4 1_555 1_555
C36_4 C35_4 1_555 1_555
H29_4 C36_4 1_555 1_555
H37_4 C46_4 1_555 1_555
C47_4 C46_4 1_555 1_555
H38_4 C47_4 1_555 1_555
C48_4 C47_4 1_555 1_555
H39_4 C48_4 1_555 1_555
O3 Cl1 1_555 1_555
O4 Cl1 1_555 1_555
Cl1_2 O1 1_555 1_555
O2 Cl1_2 1_555 1_555
Cl1_3 O1_2 1_555 1_555
O2_2 Cl1_3 1_555 1_555
O3_2 Cl1_3 1_555 1_555
O4_2 Cl1_3 1_555 1_555
Cl1_4 O1_3 1_555 1_555
O2_3 Cl1_4 1_555 1_555
O3_3 Cl1_5 1_555 1_555
O4_3 Cl1_5 1_555 1_555
Cl1_6 O1_4 1_555 1_555
O2_4 Cl1_6 1_555 1_555
O3_4 Cl1_6 1_555 1_555
O4_4 Cl1_6 1_555 1_555
O3_5 Cl1_7 1_555 1_555
O4_5 Cl1_7 1_555 1_555
Cl1_8 O1_5 1_555 1_555
O2_5 Cl1_8 1_555 1_555
Cl1_9 O1_6 1_555 1_555
O2_6 Cl1_9 1_555 1_555
O3_6 Cl1_9 1_555 1_555
O4_6 Cl1_9 1_555 1_555
Cl1_10 O1_7 1_555 1_555
O2_7 Cl1_10 1_555 1_555
O3_7 Cl1_11 1_555 1_555
O4_7 Cl1_11 1_555 1_555
Cl1_12 O1_8 1_555 1_555
O2_8 Cl1_12 1_555 1_555
O3_8 Cl1_12 1_555 1_555
O4_8 Cl1_12 1_555 1_555
O3_9 Cl1_13 1_555 1_555
O4_9 Cl1_13 1_555 1_555
Cl1_14 O1_9 1_555 1_555
O2_9 Cl1_14 1_555 1_555
Cl1_15 O1_10 1_555 1_555
O2_10 Cl1_15 1_555 1_555
O3_10 Cl1_15 1_555 1_555
O4_10 Cl1_15 1_555 1_555
Cl1_16 O1_11 1_555 1_555
O2_11 Cl1_16 1_555 1_555
O3_11 Cl1_17 1_555 1_555
O4_11 Cl1_17 1_555 1_555
Cl1_18 O1_12 1_555 1_555
O2_12 Cl1_18 1_555 1_555
O3_12 Cl1_18 1_555 1_555
O4_12 Cl1_18 1_555 1_555

#END
