
###############################################################################
#
# This file contains modified crystal structure data generated from the
# MOF subset of the Cambridge Structural Database (CSD) v543 
# hosted by the Cambridge Crystallographic Data Centre (CCDC).
#
# This work is licensed under the Creative Commons
# Attribution-NonCommercial-ShareAlike 4.0 International License.
# To view a copy of this license, visit
# http://creativecommons.org/licenses/by-nc-sa/4.0/
# or send a letter to
# Creative Commons, PO Box 1866, Mountain View, CA 94042, USA.
#
# CIF created using the CSD Python API on 29 September 2022
# The structure has been converted into the P1 space group
# The structure has a 3D framework
# The original CSD entry KEPNAX07 is in the cubic crystal system
# The original CSD entry KEPNAX07 is in a Sohncke space group
# The framework has been calculated to contain at least 10.0% void space
# The void calculation uses a probe of radius 1.32A, grid spacing 0.4
# The framework is charged, counterions have been retained in the structure
#
###############################################################################

data_KEPNAX07
_chemical_formula_moiety         '(C288 H240 Ag14 Cl18 N80 O48 2+)n'
_symmetry_cell_setting           triclinic
_symmetry_space_group_name_H-M   'P 1'
_symmetry_Int_Tables_number      1
_space_group_name_Hall           'P 1'
loop_
_symmetry_equiv_pos_site_id
_symmetry_equiv_pos_as_xyz
1 x,y,z
_cell_length_a                   21.3000(5)
_cell_length_b                   21.3000(5)
_cell_length_c                   21.3000(5)
_cell_angle_alpha                90
_cell_angle_beta                 90
_cell_angle_gamma                90
_cell_volume                     9663.6
loop_
_atom_site_label
_atom_site_type_symbol
_atom_site_fract_x
_atom_site_fract_y
_atom_site_fract_z
C70 C 0.0247(5) 0.1725(5) 0.3898(5)
H57 H 0.0384 0.2033 0.4182
C71 C 0.0598(5) 0.1596(5) 0.3347(6)
H58 H 0.0961 0.1825 0.3246
C72 C 0.0390(4) 0.1133(5) 0.2976(5)
H59 H 0.0630 0.1034 0.2619
H55 H 0.7983 0.0161 0.3647
C68 C 0.9528(4) 0.0934(3) 0.3583(3)
C69 C 0.9719(4) 0.1403(4) 0.4008(4)
H56 H 0.9477 0.1490 0.4367
N18 N 0.8818(3) 0.0114(3) 0.3342(2)
N19 N 0.8984(3) 0.0630(3) 0.3693(3)
H60 H 0.8735 0.0761 0.3990
N20 N 0.9865(3) 0.0802(3) 0.3073(3)
Ag5 Ag 0.95812(4) -0.0000 0.2500
Ag1 Ag 0.2500 0.95812(4) 0.0000
C1 C 0.2488(3) 0.7492(3) 0.1700(3)
C2 C 0.2450(4) 0.8146(3) 0.1620(3)
H1 H 0.2613 0.8417 0.1928
C3 C 0.2174(3) 0.8388(3) 0.1091(3)
H2 H 0.2157 0.8826 0.1041
C4 C 0.1921(3) 0.8017(3) 0.0633(3)
C5 C 0.1956(3) 0.7370(3) 0.0712(3)
H3 H 0.1777 0.7105 0.0408
C6 C 0.2244(3) 0.7113(3) 0.1221(3)
H4 H 0.2279 0.6674 0.1252
C7 C 0.1607(3) 0.8259(3) 0.0073(3)
N1 N 0.2768(3) 0.7232(3) 0.2232(3)
C13 C 0.3300(3) 0.7512(3) 0.2492(3)
C14 C 0.3380(3) 0.7550(4) 0.3146(3)
H11 H 0.3072 0.7387 0.3417
C15 C 0.3909(3) 0.7826(3) 0.3388(3)
H12 H 0.3959 0.7843 0.3826
C16 C 0.4367(3) 0.8079(3) 0.3017(3)
C17 C 0.4288(3) 0.8044(3) 0.2370(3)
H13 H 0.4592 0.8223 0.2105
C18 C 0.3779(3) 0.7756(3) 0.2113(3)
H14 H 0.3748 0.7721 0.1674
C19 C 0.4927(3) 0.8393(3) 0.3259(3)
H15 H 0.5161 0.8647 0.2983
C20 C 0.5934(3) 0.8583(3) 0.4528(4)
C21 C 0.6403(4) 0.9008(4) 0.4719(4)
H16 H 0.6490 0.9367 0.4477
C22 C 0.6725(5) 0.8898(5) 0.5247(5)
H17 H 0.7033 0.9182 0.5384
C23 C 0.6596(5) 0.8347(6) 0.5598(5)
H18 H 0.6825 0.8246 0.5961
C24 C 0.6133(5) 0.7976(5) 0.5390(4)
H19 H 0.6034 0.7619 0.5630
N5 N 0.5114(3) 0.8342(2) 0.3818(3)
N6 N 0.5630(3) 0.8693(3) 0.3984(3)
H20 H 0.5761 0.8990 0.3735
N7 N 0.5802(3) 0.8073(3) 0.4865(3)
C25 C 0.2508(3) 0.6700(3) 0.2512(3)
C26 C 0.1854(3) 0.6620(3) 0.2550(4)
H21 H 0.1583 0.6928 0.2387
C27 C 0.1612(3) 0.6091(3) 0.2826(3)
H22 H 0.1174 0.6041 0.2843
C28 C 0.1983(3) 0.5633(3) 0.3079(3)
C29 C 0.2630(3) 0.5712(3) 0.3044(3)
H23 H 0.2895 0.5408 0.3223
C30 C 0.2887(3) 0.6221(3) 0.2756(3)
H24 H 0.3326 0.6252 0.2721
C31 C 0.1741(3) 0.5073(3) 0.3393(3)
H25 H 0.2017 0.4839 0.3647
C32 C 0.0472(4) 0.4066(3) 0.3583(3)
C33 C 0.0281(4) 0.3597(4) 0.4008(4)
H26 H 0.0523 0.3510 0.4367
N8 N 0.1182(3) 0.4886(3) 0.3342(2)
N9 N 0.1016(3) 0.4370(3) 0.3693(3)
H30 H 0.1265 0.4239 0.3990
N10 N 0.0135(3) 0.4198(3) 0.3073(3)
Ag2 Ag 0.5000 0.7500 0.45812(4)
Ag3 Ag 0.04188(4) 0.5000 0.2500
C37 C 0.7512(3) 0.7508(3) 0.1700(3)
C38 C 0.7550(4) 0.6854(3) 0.1620(3)
H31 H 0.7387 0.6583 0.1928
C39 C 0.7826(3) 0.6612(3) 0.1091(3)
H32 H 0.7843 0.6174 0.1041
C40 C 0.8079(3) 0.6983(3) 0.0633(3)
C41 C 0.8044(3) 0.7630(3) 0.0712(3)
H33 H 0.8223 0.7895 0.0408
C42 C 0.7756(3) 0.7887(3) 0.1221(3)
H34 H 0.7721 0.8326 0.1252
C43 C 0.8393(3) 0.6741(3) 0.0073(3)
N11 N 0.7232(3) 0.7768(3) 0.2232(3)
C49 C 0.6700(3) 0.7488(3) 0.2492(3)
C50 C 0.6620(3) 0.7450(4) 0.3146(3)
H41 H 0.6928 0.7613 0.3417
C51 C 0.6091(3) 0.7174(3) 0.3388(3)
H42 H 0.6041 0.7157 0.3826
C52 C 0.5633(3) 0.6921(3) 0.3017(3)
C53 C 0.5712(3) 0.6956(3) 0.2370(3)
H43 H 0.5408 0.6777 0.2105
C54 C 0.6221(3) 0.7244(3) 0.2113(3)
H44 H 0.6252 0.7279 0.1674
C55 C 0.5073(3) 0.6607(3) 0.3259(3)
H45 H 0.4839 0.6353 0.2983
C56 C 0.4066(3) 0.6417(3) 0.4528(4)
C57 C 0.3597(4) 0.5992(4) 0.4719(4)
H46 H 0.3510 0.5633 0.4477
C58 C 0.3275(5) 0.6102(5) 0.5247(5)
H47 H 0.2967 0.5818 0.5384
C59 C 0.3404(5) 0.6653(6) 0.5598(5)
H48 H 0.3175 0.6754 0.5961
C60 C 0.3867(5) 0.7024(5) 0.5390(4)
H49 H 0.3966 0.7381 0.5630
N15 N 0.4886(3) 0.6658(2) 0.3818(3)
N16 N 0.4370(3) 0.6307(3) 0.3984(3)
H50 H 0.4239 0.6010 0.3735
N17 N 0.4198(3) 0.6927(3) 0.4865(3)
C61 C 0.7492(3) 0.8300(3) 0.2512(3)
C62 C 0.8146(3) 0.8380(3) 0.2550(4)
H51 H 0.8417 0.8072 0.2387
C63 C 0.8388(3) 0.8909(3) 0.2826(3)
H52 H 0.8826 0.8959 0.2843
C64 C 0.8017(3) 0.9367(3) 0.3079(3)
C65 C 0.7370(3) 0.9288(3) 0.3044(3)
H53 H 0.7105 0.9592 0.3223
C66 C 0.7113(3) 0.8779(3) 0.2756(3)
H54 H 0.6674 0.8748 0.2721
C67 C 0.8259(3) 0.9927(3) 0.3393(3)
Ag4 Ag 0.7500 0.54188(4) 0.0000
Ag5_2 Ag 0.95812(4) 1.0000 0.2500
N21 N 0.3342(2) 0.8818(3) 0.0114(3)
N22 N 0.1182(3) 0.5114(3) 0.1658(2)
N23 N 0.3073(3) 0.9865(3) 0.0802(3)
N24 N 0.0135(3) 0.5802(3) 0.1927(3)
Ag1_2 Ag 0.2500 0.95812(4) 1.0000
H5 H 0.1353 0.7983 0.9839
C8 C 0.1417(3) 0.9528(4) 0.9066(3)
C9 C 0.0992(4) 0.9719(4) 0.8597(4)
H6 H 0.0633 0.9477 0.8510
N2 N 0.1658(2) 0.8818(3) 0.9886(3)
N3 N 0.1307(3) 0.8984(3) 0.9370(3)
H10 H 0.1010 0.8735 0.9239
N4 N 0.1927(3) 0.9865(3) 0.9198(3)
H35 H 0.8647 0.7017 0.9839
C44 C 0.8583(3) 0.5472(4) 0.9066(3)
C45 C 0.9008(4) 0.5281(4) 0.8597(4)
H36 H 0.9367 0.5523 0.8510
C46 C 0.8898(5) 0.4753(5) 0.8275(5)
H37 H 0.9182 0.4616 0.7967
C47 C 0.8347(6) 0.4402(5) 0.8404(5)
H38 H 0.8246 0.4039 0.8175
C48 C 0.7976(5) 0.4610(4) 0.8867(5)
H39 H 0.7619 0.4370 0.8966
N12 N 0.8342(2) 0.6182(3) 0.9886(3)
N13 N 0.8693(3) 0.6016(3) 0.9370(3)
H40 H 0.8990 0.6265 0.9239
N14 N 0.8073(3) 0.5135(3) 0.9198(3)
Ag4_2 Ag 0.7500 0.54188(4) 1.0000
C34 C 0.9753(5) 0.3275(5) 0.3898(5)
H27 H 0.9616 0.2967 0.4182
C35 C 0.9402(5) 0.3404(5) 0.3347(6)
H28 H 0.9039 0.3175 0.3246
C36 C 0.9610(4) 0.3867(5) 0.2976(5)
H29 H 0.9370 0.3966 0.2619
Ag1_3 Ag 0.2500 0.04188(4) 0.5000
C1_2 C 0.2512(3) 0.2508(3) 0.6700(3)
C2_2 C 0.2550(4) 0.1854(3) 0.6620(3)
H1_2 H 0.2387 0.1583 0.6928
C3_2 C 0.2826(3) 0.1612(3) 0.6091(3)
H2_2 H 0.2843 0.1174 0.6041
C4_2 C 0.3079(3) 0.1983(3) 0.5633(3)
C5_2 C 0.3044(3) 0.2630(3) 0.5712(3)
H3_2 H 0.3223 0.2895 0.5408
C6_2 C 0.2756(3) 0.2887(3) 0.6221(3)
H4_2 H 0.2721 0.3326 0.6252
C7_2 C 0.3393(3) 0.1741(3) 0.5073(3)
H5_2 H 0.3647 0.2017 0.4839
C8_2 C 0.3583(3) 0.0472(4) 0.4066(3)
C9_2 C 0.4008(4) 0.0281(4) 0.3597(4)
H6_2 H 0.4367 0.0523 0.3510
N1_2 N 0.2232(3) 0.2768(3) 0.7232(3)
N2_2 N 0.3342(2) 0.1182(3) 0.4886(3)
N3_2 N 0.3693(3) 0.1016(3) 0.4370(3)
H10_2 H 0.3990 0.1265 0.4239
N4_2 N 0.3073(3) 0.0135(3) 0.4198(3)
C13_2 C 0.1700(3) 0.2488(3) 0.7492(3)
C14_2 C 0.1620(3) 0.2450(4) 0.8146(3)
H11_2 H 0.1928 0.2613 0.8417
C15_2 C 0.1091(3) 0.2174(3) 0.8388(3)
H12_2 H 0.1041 0.2157 0.8826
C16_2 C 0.0633(3) 0.1921(3) 0.8017(3)
C17_2 C 0.0712(3) 0.1956(3) 0.7370(3)
H13_2 H 0.0408 0.1777 0.7105
C18_2 C 0.1221(3) 0.2244(3) 0.7113(3)
H14_2 H 0.1252 0.2279 0.6674
C19_2 C 0.0073(3) 0.1607(3) 0.8259(3)
C25_2 C 0.2492(3) 0.3300(3) 0.7512(3)
C26_2 C 0.3146(3) 0.3380(3) 0.7550(4)
H21_2 H 0.3417 0.3072 0.7387
C27_2 C 0.3388(3) 0.3909(3) 0.7826(3)
H22_2 H 0.3826 0.3959 0.7843
C28_2 C 0.3017(3) 0.4367(3) 0.8079(3)
C29_2 C 0.2370(3) 0.4288(3) 0.8044(3)
H23_2 H 0.2105 0.4592 0.8223
C30_2 C 0.2113(3) 0.3779(3) 0.7756(3)
H24_2 H 0.1674 0.3748 0.7721
C31_2 C 0.3259(3) 0.4927(3) 0.8393(3)
H25_2 H 0.2983 0.5161 0.8647
C32_2 C 0.4528(4) 0.5934(3) 0.8583(3)
C33_2 C 0.4719(4) 0.6403(4) 0.9008(4)
H26_2 H 0.4477 0.6490 0.9367
C34_2 C 0.5247(5) 0.6725(5) 0.8898(5)
H27_2 H 0.5384 0.7033 0.9182
C35_2 C 0.5598(5) 0.6596(5) 0.8347(6)
H28_2 H 0.5961 0.6825 0.8246
C36_2 C 0.5390(4) 0.6133(5) 0.7976(5)
H29_2 H 0.5630 0.6034 0.7619
N8_2 N 0.3818(3) 0.5114(3) 0.8342(2)
N9_2 N 0.3984(3) 0.5630(3) 0.8693(3)
H30_2 H 0.3735 0.5761 0.8990
N10_2 N 0.4865(3) 0.5802(3) 0.8073(3)
Ag2_2 Ag 0.0000 0.2500 0.95812(4)
Ag3_2 Ag 0.45812(4) 0.5000 0.7500
H45_2 H 0.0161 0.3647 0.7983
C56_2 C 0.0934(3) 0.3583(3) 0.9528(4)
C57_2 C 0.1403(4) 0.4008(4) 0.9719(4)
H46_2 H 0.1490 0.4367 0.9477
N15_2 N 0.0114(3) 0.3342(2) 0.8818(3)
N16_2 N 0.0630(3) 0.3693(3) 0.8984(3)
H50_2 H 0.0761 0.3990 0.8735
N17_2 N 0.0802(3) 0.3073(3) 0.9865(3)
N21_2 N 0.1658(2) 0.1182(3) 0.5114(3)
N22_2 N 0.3818(3) 0.4886(3) 0.6658(2)
N23_2 N 0.1927(3) 0.0135(3) 0.5802(3)
N24_2 N 0.4865(3) 0.4198(3) 0.6927(3)
C10 C 0.3898(5) 0.9753(5) 0.3275(5)
H7 H 0.4182 0.9616 0.2967
C11 C 0.3347(6) 0.9402(5) 0.3404(5)
H8 H 0.3246 0.9039 0.3175
C12 C 0.2976(5) 0.9610(4) 0.3867(5)
H9 H 0.2619 0.9370 0.3966
H15_2 H 0.9839 0.1353 0.7983
C20_2 C 0.9066(3) 0.1417(3) 0.9528(4)
C21_2 C 0.8597(4) 0.0992(4) 0.9719(4)
H16_2 H 0.8510 0.0633 0.9477
N5_2 N 0.9886(3) 0.1658(2) 0.8818(3)
N6_2 N 0.9370(3) 0.1307(3) 0.8984(3)
H20_2 H 0.9239 0.1010 0.8735
N7_2 N 0.9198(3) 0.1927(3) 0.9865(3)
Ag2_3 Ag 1.0000 0.2500 0.95812(4)
C37_2 C 0.7488(3) 0.2492(3) 0.6700(3)
C38_2 C 0.7450(4) 0.3146(3) 0.6620(3)
H31_2 H 0.7613 0.3417 0.6928
C39_2 C 0.7174(3) 0.3388(3) 0.6091(3)
H32_2 H 0.7157 0.3826 0.6041
C40_2 C 0.6921(3) 0.3017(3) 0.5633(3)
C41_2 C 0.6956(3) 0.2370(3) 0.5712(3)
H33_2 H 0.6777 0.2105 0.5408
C42_2 C 0.7244(3) 0.2113(3) 0.6221(3)
H34_2 H 0.7279 0.1674 0.6252
C43_2 C 0.6607(3) 0.3259(3) 0.5073(3)
H35_2 H 0.6353 0.2983 0.4839
C44_2 C 0.6417(3) 0.4528(4) 0.4066(3)
C45_2 C 0.5992(4) 0.4719(4) 0.3597(4)
H36_2 H 0.5633 0.4477 0.3510
C46_2 C 0.6102(5) 0.5247(5) 0.3275(5)
H37_2 H 0.5818 0.5384 0.2967
C47_2 C 0.6653(6) 0.5598(5) 0.3404(5)
H38_2 H 0.6754 0.5961 0.3175
C48_2 C 0.7024(5) 0.5390(4) 0.3867(5)
H39_2 H 0.7381 0.5630 0.3966
N11_2 N 0.7768(3) 0.2232(3) 0.7232(3)
N12_2 N 0.6658(2) 0.3818(3) 0.4886(3)
N13_2 N 0.6307(3) 0.3984(3) 0.4370(3)
H40_2 H 0.6010 0.3735 0.4239
N14_2 N 0.6927(3) 0.4865(3) 0.4198(3)
C49_2 C 0.8300(3) 0.2512(3) 0.7492(3)
C50_2 C 0.8380(3) 0.2550(4) 0.8146(3)
H41_2 H 0.8072 0.2387 0.8417
C51_2 C 0.8909(3) 0.2826(3) 0.8388(3)
H42_2 H 0.8959 0.2843 0.8826
C52_2 C 0.9367(3) 0.3079(3) 0.8017(3)
C53_2 C 0.9288(3) 0.3044(3) 0.7370(3)
H43_2 H 0.9592 0.3223 0.7105
C54_2 C 0.8779(3) 0.2756(3) 0.7113(3)
H44_2 H 0.8748 0.2721 0.6674
C55_2 C 0.9927(3) 0.3393(3) 0.8259(3)
C61_2 C 0.7508(3) 0.1700(3) 0.7512(3)
C62_2 C 0.6854(3) 0.1620(3) 0.7550(4)
H51_2 H 0.6583 0.1928 0.7387
C63_2 C 0.6612(3) 0.1091(3) 0.7826(3)
H52_2 H 0.6174 0.1041 0.7843
C64_2 C 0.6983(3) 0.0633(3) 0.8079(3)
C65_2 C 0.7630(3) 0.0712(3) 0.8044(3)
H53_2 H 0.7895 0.0408 0.8223
C66_2 C 0.7887(3) 0.1221(3) 0.7756(3)
H54_2 H 0.8326 0.1252 0.7721
C67_2 C 0.6741(3) 0.0073(3) 0.8393(3)
Ag4_3 Ag 0.7500 0.45812(4) 0.5000
Ag5_3 Ag 0.54188(4) 0.0000 0.7500
H55_2 H 0.7017 0.9839 0.8647
C68_2 C 0.5472(4) 0.9066(3) 0.8583(3)
C69_2 C 0.5281(4) 0.8597(4) 0.9008(4)
H56_2 H 0.5523 0.8510 0.9367
C70_2 C 0.4753(5) 0.8275(5) 0.8898(5)
H57_2 H 0.4616 0.7967 0.9182
C71_2 C 0.4402(5) 0.8404(5) 0.8347(6)
H58_2 H 0.4039 0.8175 0.8246
C72_2 C 0.4610(4) 0.8867(5) 0.7976(5)
H59_2 H 0.4370 0.8966 0.7619
N18_2 N 0.6182(3) 0.9886(3) 0.8342(2)
N19_2 N 0.6016(3) 0.9370(3) 0.8693(3)
H60_2 H 0.6265 0.9239 0.8990
N20_2 N 0.5135(3) 0.9198(3) 0.8073(3)
Ag5_4 Ag 0.54188(4) 1.0000 0.7500
C1_3 C 0.7512(3) 0.2492(3) 0.3300(3)
C2_3 C 0.7550(4) 0.3146(3) 0.3380(3)
H1_3 H 0.7387 0.3417 0.3072
C3_3 C 0.7826(3) 0.3388(3) 0.3909(3)
H2_3 H 0.7843 0.3826 0.3959
C4_3 C 0.8079(3) 0.3017(3) 0.4367(3)
C5_3 C 0.8044(3) 0.2370(3) 0.4288(3)
H3_3 H 0.8223 0.2105 0.4592
C6_3 C 0.7756(3) 0.2113(3) 0.3779(3)
H4_3 H 0.7721 0.1674 0.3748
C7_3 C 0.8393(3) 0.3259(3) 0.4927(3)
H5_3 H 0.8647 0.2983 0.5161
C8_3 C 0.8583(3) 0.4528(4) 0.5934(3)
C9_3 C 0.9008(4) 0.4719(4) 0.6403(4)
H6_3 H 0.9367 0.4477 0.6490
C10_2 C 0.8898(5) 0.5247(5) 0.6725(5)
H7_2 H 0.9182 0.5384 0.7033
C11_2 C 0.8347(6) 0.5598(5) 0.6596(5)
H8_2 H 0.8246 0.5961 0.6825
C12_2 C 0.7976(5) 0.5390(4) 0.6133(5)
H9_2 H 0.7619 0.5630 0.6034
N1_3 N 0.7232(3) 0.2232(3) 0.2768(3)
N2_3 N 0.8342(2) 0.3818(3) 0.5114(3)
N3_3 N 0.8693(3) 0.3984(3) 0.5630(3)
H10_3 H 0.8990 0.3735 0.5761
N4_3 N 0.8073(3) 0.4865(3) 0.5802(3)
C13_3 C 0.6700(3) 0.2512(3) 0.2508(3)
C14_3 C 0.6620(3) 0.2550(4) 0.1854(3)
H11_3 H 0.6928 0.2387 0.1583
C15_3 C 0.6091(3) 0.2826(3) 0.1612(3)
H12_3 H 0.6041 0.2843 0.1174
C16_3 C 0.5633(3) 0.3079(3) 0.1983(3)
C17_3 C 0.5712(3) 0.3044(3) 0.2630(3)
H13_3 H 0.5408 0.3223 0.2895
C18_3 C 0.6221(3) 0.2756(3) 0.2887(3)
H14_3 H 0.6252 0.2721 0.3326
C19_3 C 0.5073(3) 0.3393(3) 0.1741(3)
H15_3 H 0.4839 0.3647 0.2017
C20_3 C 0.4066(3) 0.3583(3) 0.0472(4)
C21_3 C 0.3597(4) 0.4008(4) 0.0281(4)
H16_3 H 0.3510 0.4367 0.0523
N5_3 N 0.4886(3) 0.3342(2) 0.1182(3)
N6_3 N 0.4370(3) 0.3693(3) 0.1016(3)
H20_3 H 0.4239 0.3990 0.1265
N7_3 N 0.4198(3) 0.3073(3) 0.0135(3)
C25_3 C 0.7492(3) 0.1700(3) 0.2488(3)
C26_3 C 0.8146(3) 0.1620(3) 0.2450(4)
H21_3 H 0.8417 0.1928 0.2613
C27_3 C 0.8388(3) 0.1091(3) 0.2174(3)
H22_3 H 0.8826 0.1041 0.2157
C28_3 C 0.8017(3) 0.0633(3) 0.1921(3)
C29_3 C 0.7370(3) 0.0712(3) 0.1956(3)
H23_3 H 0.7105 0.0408 0.1777
C30_3 C 0.7113(3) 0.1221(3) 0.2244(3)
H24_3 H 0.6674 0.1252 0.2279
C31_3 C 0.8259(3) 0.0073(3) 0.1607(3)
Ag2_4 Ag 0.5000 0.2500 0.04188(4)
C37_3 C 0.2488(3) 0.2508(3) 0.3300(3)
C38_3 C 0.2450(4) 0.1854(3) 0.3380(3)
H31_3 H 0.2613 0.1583 0.3072
C39_3 C 0.2174(3) 0.1612(3) 0.3909(3)
H32_3 H 0.2157 0.1174 0.3959
C40_3 C 0.1921(3) 0.1983(3) 0.4367(3)
C41_3 C 0.1956(3) 0.2630(3) 0.4288(3)
H33_3 H 0.1777 0.2895 0.4592
C42_3 C 0.2244(3) 0.2887(3) 0.3779(3)
H34_3 H 0.2279 0.3326 0.3748
C43_3 C 0.1607(3) 0.1741(3) 0.4927(3)
H35_3 H 0.1353 0.2017 0.5161
C44_3 C 0.1417(3) 0.0472(4) 0.5934(3)
C45_3 C 0.0992(4) 0.0281(4) 0.6403(4)
H36_3 H 0.0633 0.0523 0.6490
N11_3 N 0.2768(3) 0.2768(3) 0.2768(3)
N13_3 N 0.1307(3) 0.1016(3) 0.5630(3)
H40_3 H 0.1010 0.1265 0.5761
C49_3 C 0.3300(3) 0.2488(3) 0.2508(3)
C50_3 C 0.3380(3) 0.2450(4) 0.1854(3)
H41_3 H 0.3072 0.2613 0.1583
C51_3 C 0.3909(3) 0.2174(3) 0.1612(3)
H42_3 H 0.3959 0.2157 0.1174
C52_3 C 0.4367(3) 0.1921(3) 0.1983(3)
C53_3 C 0.4288(3) 0.1956(3) 0.2630(3)
H43_3 H 0.4592 0.1777 0.2895
C54_3 C 0.3779(3) 0.2244(3) 0.2887(3)
H44_3 H 0.3748 0.2279 0.3326
C55_3 C 0.4927(3) 0.1607(3) 0.1741(3)
H45_3 H 0.5161 0.1353 0.2017
C56_3 C 0.5934(3) 0.1417(3) 0.0472(4)
C57_3 C 0.6403(4) 0.0992(4) 0.0281(4)
H46_3 H 0.6490 0.0633 0.0523
N15_3 N 0.5114(3) 0.1658(2) 0.1182(3)
N16_3 N 0.5630(3) 0.1307(3) 0.1016(3)
H50_3 H 0.5761 0.1010 0.1265
N17_3 N 0.5802(3) 0.1927(3) 0.0135(3)
C61_3 C 0.2508(3) 0.3300(3) 0.2488(3)
C62_3 C 0.1854(3) 0.3380(3) 0.2450(4)
H51_3 H 0.1583 0.3072 0.2613
C63_3 C 0.1612(3) 0.3909(3) 0.2174(3)
H52_3 H 0.1174 0.3959 0.2157
C64_3 C 0.1983(3) 0.4367(3) 0.1921(3)
C65_3 C 0.2630(3) 0.4288(3) 0.1956(3)
H53_3 H 0.2895 0.4592 0.1777
C66_3 C 0.2887(3) 0.3779(3) 0.2244(3)
H54_3 H 0.3326 0.3748 0.2279
C67_3 C 0.1741(3) 0.4927(3) 0.1607(3)
H55_3 H 0.2017 0.5161 0.1353
C68_3 C 0.0472(4) 0.5934(3) 0.1417(3)
C69_3 C 0.0281(4) 0.6403(4) 0.0992(4)
H56_3 H 0.0523 0.6490 0.0633
N19_3 N 0.1016(3) 0.5630(3) 0.1307(3)
H60_3 H 0.1265 0.5761 0.1010
C22_2 C 0.3275(5) 0.3898(5) 0.9753(5)
H17_2 H 0.2967 0.4182 0.9616
C23_2 C 0.3404(5) 0.3347(6) 0.9402(5)
H18_2 H 0.3175 0.3246 0.9039
C24_2 C 0.3867(5) 0.2976(5) 0.9610(4)
H19_2 H 0.3966 0.2619 0.9370
C58_2 C 0.6725(5) 0.1102(5) 0.9753(5)
H47_2 H 0.7033 0.0818 0.9616
C59_2 C 0.6596(5) 0.1653(6) 0.9402(5)
H48_2 H 0.6825 0.1754 0.9039
C60_2 C 0.6133(5) 0.2024(5) 0.9610(4)
H49_2 H 0.6034 0.2381 0.9370
H25_3 H 0.7983 0.9839 0.1353
C32_3 C 0.9528(4) 0.9066(3) 0.1417(3)
C33_3 C 0.9719(4) 0.8597(4) 0.0992(4)
H26_3 H 0.9477 0.8510 0.0633
N8_3 N 0.8818(3) 0.9886(3) 0.1658(2)
N9_3 N 0.8984(3) 0.9370(3) 0.1307(3)
H30_3 H 0.8735 0.9239 0.1010
N10_3 N 0.9865(3) 0.9198(3) 0.1927(3)
C46_3 C 0.1102(5) 0.9753(5) 0.6725(5)
H37_3 H 0.0818 0.9616 0.7033
C47_3 C 0.1653(6) 0.9402(5) 0.6596(5)
H38_3 H 0.1754 0.9039 0.6825
C48_3 C 0.2024(5) 0.9610(4) 0.6133(5)
H39_3 H 0.2381 0.9370 0.6034
C70_3 C 0.9753(5) 0.6725(5) 0.1102(5)
H57_3 H 0.9616 0.7033 0.0818
C71_3 C 0.9402(5) 0.6596(5) 0.1653(6)
H58_3 H 0.9039 0.6825 0.1754
C72_3 C 0.9610(4) 0.6133(5) 0.2024(5)
H59_3 H 0.9370 0.6034 0.2381
H35_4 H 0.3647 0.7983 0.0161
C44_4 C 0.3583(3) 0.9528(4) 0.0934(3)
C45_4 C 0.4008(4) 0.9719(4) 0.1403(4)
H36_4 H 0.4367 0.9477 0.1490
N13_4 N 0.3693(3) 0.8984(3) 0.0630(3)
H40_4 H 0.3990 0.8735 0.0761
H15_4 H 0.0161 0.6353 0.7017
C20_4 C 0.0934(3) 0.6417(3) 0.5472(4)
C21_4 C 0.1403(4) 0.5992(4) 0.5281(4)
H16_4 H 0.1490 0.5633 0.5523
C22_3 C 0.1725(5) 0.6102(5) 0.4753(5)
H17_3 H 0.2033 0.5818 0.4616
C23_3 C 0.1596(5) 0.6653(6) 0.4402(5)
H18_3 H 0.1825 0.6754 0.4039
C24_3 C 0.1133(5) 0.7024(5) 0.4610(4)
H19_3 H 0.1034 0.7381 0.4370
N5_4 N 0.0114(3) 0.6658(2) 0.6182(3)
N6_4 N 0.0630(3) 0.6307(3) 0.6016(3)
H20_4 H 0.0761 0.6010 0.6265
N7_4 N 0.0802(3) 0.6927(3) 0.5135(3)
Ag2_5 Ag 0.0000 0.7500 0.54188(4)
C37_4 C 0.2512(3) 0.7492(3) 0.8300(3)
C38_4 C 0.2550(4) 0.8146(3) 0.8380(3)
H31_4 H 0.2387 0.8417 0.8072
C39_4 C 0.2826(3) 0.8388(3) 0.8909(3)
H32_4 H 0.2843 0.8826 0.8959
C40_4 C 0.3079(3) 0.8017(3) 0.9367(3)
C41_4 C 0.3044(3) 0.7370(3) 0.9288(3)
H33_4 H 0.3223 0.7105 0.9592
C42_4 C 0.2756(3) 0.7113(3) 0.8779(3)
H34_4 H 0.2721 0.6674 0.8748
C43_4 C 0.3393(3) 0.8259(3) 0.9927(3)
N11_4 N 0.2232(3) 0.7232(3) 0.7768(3)
C49_4 C 0.1700(3) 0.7512(3) 0.7508(3)
C50_4 C 0.1620(3) 0.7550(4) 0.6854(3)
H41_4 H 0.1928 0.7387 0.6583
C51_4 C 0.1091(3) 0.7826(3) 0.6612(3)
H42_4 H 0.1041 0.7843 0.6174
C52_4 C 0.0633(3) 0.8079(3) 0.6983(3)
C53_4 C 0.0712(3) 0.8044(3) 0.7630(3)
H43_4 H 0.0408 0.8223 0.7895
C54_4 C 0.1221(3) 0.7756(3) 0.7887(3)
H44_4 H 0.1252 0.7721 0.8326
C55_4 C 0.0073(3) 0.8393(3) 0.6741(3)
C61_4 C 0.2492(3) 0.6700(3) 0.7488(3)
C62_4 C 0.3146(3) 0.6620(3) 0.7450(4)
H51_4 H 0.3417 0.6928 0.7613
C63_4 C 0.3388(3) 0.6091(3) 0.7174(3)
H52_4 H 0.3826 0.6041 0.7157
C64_4 C 0.3017(3) 0.5633(3) 0.6921(3)
C65_4 C 0.2370(3) 0.5712(3) 0.6956(3)
H53_4 H 0.2105 0.5408 0.6777
C66_4 C 0.2113(3) 0.6221(3) 0.7244(3)
H54_4 H 0.1674 0.6252 0.7279
C67_4 C 0.3259(3) 0.5073(3) 0.6607(3)
H55_4 H 0.2983 0.4839 0.6353
C68_4 C 0.4528(4) 0.4066(3) 0.6417(3)
C69_4 C 0.4719(4) 0.3597(4) 0.5992(4)
H56_4 H 0.4477 0.3510 0.5633
C70_4 C 0.5247(5) 0.3275(5) 0.6102(5)
H57_4 H 0.5384 0.2967 0.5818
C71_4 C 0.5598(5) 0.3404(5) 0.6653(6)
H58_4 H 0.5961 0.3175 0.6754
C72_4 C 0.5390(4) 0.3867(5) 0.7024(5)
H59_4 H 0.5630 0.3966 0.7381
N19_4 N 0.3984(3) 0.4370(3) 0.6307(3)
H60_4 H 0.3735 0.4239 0.6010
H25_4 H 0.7017 0.0161 0.6353
C32_4 C 0.5472(4) 0.0934(3) 0.6417(3)
C33_4 C 0.5281(4) 0.1403(4) 0.5992(4)
H26_4 H 0.5523 0.1490 0.5633
C34_3 C 0.4753(5) 0.1725(5) 0.6102(5)
H27_3 H 0.4616 0.2033 0.5818
C35_3 C 0.4402(5) 0.1596(5) 0.6653(6)
H28_3 H 0.4039 0.1825 0.6754
C36_3 C 0.4610(4) 0.1133(5) 0.7024(5)
H29_3 H 0.4370 0.1034 0.7381
N8_4 N 0.6182(3) 0.0114(3) 0.6658(2)
N9_4 N 0.6016(3) 0.0630(3) 0.6307(3)
H30_4 H 0.6265 0.0761 0.6010
N10_4 N 0.5135(3) 0.0802(3) 0.6927(3)
H5_4 H 0.6353 0.7017 0.0161
C8_4 C 0.6417(3) 0.5472(4) 0.0934(3)
C9_4 C 0.5992(4) 0.5281(4) 0.1403(4)
H6_4 H 0.5633 0.5523 0.1490
C10_3 C 0.6102(5) 0.4753(5) 0.1725(5)
H7_3 H 0.5818 0.4616 0.2033
C11_3 C 0.6653(6) 0.4402(5) 0.1596(5)
H8_3 H 0.6754 0.4039 0.1825
C12_3 C 0.7024(5) 0.4610(4) 0.1133(5)
H9_3 H 0.7381 0.4370 0.1034
N2_4 N 0.6658(2) 0.6182(3) 0.0114(3)
N3_4 N 0.6307(3) 0.6016(3) 0.0630(3)
H10_4 H 0.6010 0.6265 0.0761
N4_4 N 0.6927(3) 0.5135(3) 0.0802(3)
C1_4 C 0.7488(3) 0.7508(3) 0.8300(3)
C2_4 C 0.7450(4) 0.6854(3) 0.8380(3)
H1_4 H 0.7613 0.6583 0.8072
C3_4 C 0.7174(3) 0.6612(3) 0.8909(3)
H2_4 H 0.7157 0.6174 0.8959
C4_4 C 0.6921(3) 0.6983(3) 0.9367(3)
C5_4 C 0.6956(3) 0.7630(3) 0.9288(3)
H3_4 H 0.6777 0.7895 0.9592
C6_4 C 0.7244(3) 0.7887(3) 0.8779(3)
H4_4 H 0.7279 0.8326 0.8748
C7_4 C 0.6607(3) 0.6741(3) 0.9927(3)
N1_4 N 0.7768(3) 0.7768(3) 0.7768(3)
C13_4 C 0.8300(3) 0.7488(3) 0.7508(3)
C14_4 C 0.8380(3) 0.7450(4) 0.6854(3)
H11_4 H 0.8072 0.7613 0.6583
C15_4 C 0.8909(3) 0.7174(3) 0.6612(3)
H12_4 H 0.8959 0.7157 0.6174
C16_4 C 0.9367(3) 0.6921(3) 0.6983(3)
C17_4 C 0.9288(3) 0.6956(3) 0.7630(3)
H13_4 H 0.9592 0.6777 0.7895
C18_4 C 0.8779(3) 0.7244(3) 0.7887(3)
H14_4 H 0.8748 0.7279 0.8326
C19_4 C 0.9927(3) 0.6607(3) 0.6741(3)
C25_4 C 0.7508(3) 0.8300(3) 0.7488(3)
C26_4 C 0.6854(3) 0.8380(3) 0.7450(4)
H21_4 H 0.6583 0.8072 0.7613
C27_4 C 0.6612(3) 0.8909(3) 0.7174(3)
H22_4 H 0.6174 0.8959 0.7157
C28_4 C 0.6983(3) 0.9367(3) 0.6921(3)
C29_4 C 0.7630(3) 0.9288(3) 0.6956(3)
H23_4 H 0.7895 0.9592 0.6777
C30_4 C 0.7887(3) 0.8779(3) 0.7244(3)
H24_4 H 0.8326 0.8748 0.7279
C31_4 C 0.6741(3) 0.9927(3) 0.6607(3)
Ag2_6 Ag 1.0000 0.7500 0.54188(4)
H45_4 H 0.9839 0.8647 0.7017
C56_4 C 0.9066(3) 0.8583(3) 0.5472(4)
C57_4 C 0.8597(4) 0.9008(4) 0.5281(4)
H46_4 H 0.8510 0.9367 0.5523
C58_3 C 0.8275(5) 0.8898(5) 0.4753(5)
H47_3 H 0.7967 0.9182 0.4616
C59_3 C 0.8404(5) 0.8347(6) 0.4402(5)
H48_3 H 0.8175 0.8246 0.4039
C60_3 C 0.8867(5) 0.7976(5) 0.4610(4)
H49_3 H 0.8966 0.7619 0.4370
N15_4 N 0.9886(3) 0.8342(2) 0.6182(3)
N16_4 N 0.9370(3) 0.8693(3) 0.6016(3)
H50_4 H 0.9239 0.8990 0.6265
N17_4 N 0.9198(3) 0.8073(3) 0.5135(3)
C10_4 C 0.1102(5) 0.0247(5) 0.8275(5)
H7_4 H 0.0818 0.0384 0.7967
C11_4 C 0.1653(6) 0.0598(5) 0.8404(5)
H8_4 H 0.1754 0.0961 0.8175
C12_4 C 0.2024(5) 0.0390(4) 0.8867(5)
H9_4 H 0.2381 0.0630 0.8966
C58_4 C 0.1725(5) 0.3898(5) 0.0247(5)
H47_4 H 0.2033 0.4182 0.0384
C59_4 C 0.1596(5) 0.3347(6) 0.0598(5)
H48_4 H 0.1825 0.3246 0.0961
C60_4 C 0.1133(5) 0.2976(5) 0.0390(4)
H49_4 H 0.1034 0.2619 0.0630
C22_4 C 0.8275(5) 0.1102(5) 0.0247(5)
H17_4 H 0.7967 0.0818 0.0384
C23_4 C 0.8404(5) 0.1653(6) 0.0598(5)
H18_4 H 0.8175 0.1754 0.0961
C24_4 C 0.8867(5) 0.2024(5) 0.0390(4)
H19_4 H 0.8966 0.2381 0.0630
C34_4 C 0.0247(5) 0.8275(5) 0.1102(5)
H27_4 H 0.0384 0.7967 0.0818
C35_4 C 0.0598(5) 0.8404(5) 0.1653(6)
H28_4 H 0.0961 0.8175 0.1754
C36_4 C 0.0390(4) 0.8867(5) 0.2024(5)
H29_4 H 0.0630 0.8966 0.2381
C46_4 C 0.3898(5) 0.0247(5) 0.1725(5)
H37_4 H 0.4182 0.0384 0.2033
C47_4 C 0.3347(6) 0.0598(5) 0.1596(5)
H38_4 H 0.3246 0.0961 0.1825
C48_4 C 0.2976(5) 0.0390(4) 0.1133(5)
H39_4 H 0.2619 0.0630 0.1034
Cl1 Cl -0.0000 0.7500 0.94041(11)
O3 O 0.0491(3) 0.7257(3) 0.9773(3)
O4 O 0.0250(3) 0.7985(4) 0.9039(3)
Cl1_2 Cl 1.0000 0.7500 0.94041(11)
O1 O 0.9509(3) 0.7743(3) 0.9773(3)
O2 O 0.9750(3) 0.7015(4) 0.9039(3)
Cl1_3 Cl 0.5000 0.2500 0.44041(11)
O1_2 O 0.5491(3) 0.2257(3) 0.4773(3)
O2_2 O 0.5250(3) 0.2985(4) 0.4039(3)
O3_2 O 0.4509(3) 0.2743(3) 0.4773(3)
O4_2 O 0.4750(3) 0.2015(4) 0.4039(3)
Cl1_4 Cl 0.0000 0.2500 0.55959(11)
O1_3 O 0.0491(3) 0.2743(3) 0.5227(3)
O2_3 O 0.0250(3) 0.2015(4) 0.5961(3)
Cl1_5 Cl 1.0000 0.2500 0.55959(11)
O3_3 O 0.9509(3) 0.2257(3) 0.5227(3)
O4_3 O 0.9750(3) 0.2985(4) 0.5961(3)
Cl1_6 Cl 0.5000 0.7500 0.05959(11)
O1_4 O 0.4509(3) 0.7257(3) 0.0227(3)
O2_4 O 0.4750(3) 0.7985(4) 0.0961(3)
O3_4 O 0.5491(3) 0.7743(3) 0.0227(3)
O4_4 O 0.5250(3) 0.7015(4) 0.0961(3)
Cl1_7 Cl 0.94041(11) -0.0000 0.7500
O3_5 O 0.9773(3) 0.0491(3) 0.7257(3)
O4_5 O 0.9039(3) 0.0250(3) 0.7985(4)
Cl1_8 Cl 0.94041(11) 1.0000 0.7500
O1_5 O 0.9773(3) 0.9509(3) 0.7743(3)
O2_5 O 0.9039(3) 0.9750(3) 0.7015(4)
Cl1_9 Cl 0.44041(11) 0.5000 0.2500
O1_6 O 0.4773(3) 0.5491(3) 0.2257(3)
O2_6 O 0.4039(3) 0.5250(3) 0.2985(4)
O3_6 O 0.4773(3) 0.4509(3) 0.2743(3)
O4_6 O 0.4039(3) 0.4750(3) 0.2015(4)
Cl1_10 Cl 0.55959(11) 0.0000 0.2500
O1_7 O 0.5227(3) 0.0491(3) 0.2743(3)
O2_7 O 0.5961(3) 0.0250(3) 0.2015(4)
Cl1_11 Cl 0.55959(11) 1.0000 0.2500
O3_7 O 0.5227(3) 0.9509(3) 0.2257(3)
O4_7 O 0.5961(3) 0.9750(3) 0.2985(4)
Cl1_12 Cl 0.05959(11) 0.5000 0.7500
O1_8 O 0.0227(3) 0.4509(3) 0.7257(3)
O2_8 O 0.0961(3) 0.4750(3) 0.7985(4)
O3_8 O 0.0227(3) 0.5491(3) 0.7743(3)
O4_8 O 0.0961(3) 0.5250(3) 0.7015(4)
Cl1_13 Cl 0.7500 0.94041(11) -0.0000
O3_9 O 0.7257(3) 0.9773(3) 0.0491(3)
O4_9 O 0.7985(4) 0.9039(3) 0.0250(3)
Cl1_14 Cl 0.7500 0.94041(11) 1.0000
O1_9 O 0.7743(3) 0.9773(3) 0.9509(3)
O2_9 O 0.7015(4) 0.9039(3) 0.9750(3)
Cl1_15 Cl 0.2500 0.44041(11) 0.5000
O1_10 O 0.2257(3) 0.4773(3) 0.5491(3)
O2_10 O 0.2985(4) 0.4039(3) 0.5250(3)
O3_10 O 0.2743(3) 0.4773(3) 0.4509(3)
O4_10 O 0.2015(4) 0.4039(3) 0.4750(3)
Cl1_16 Cl 0.2500 0.55959(11) 0.0000
O1_11 O 0.2743(3) 0.5227(3) 0.0491(3)
O2_11 O 0.2015(4) 0.5961(3) 0.0250(3)
Cl1_17 Cl 0.2500 0.55959(11) 1.0000
O3_11 O 0.2257(3) 0.5227(3) 0.9509(3)
O4_11 O 0.2985(4) 0.5961(3) 0.9750(3)
Cl1_18 Cl 0.7500 0.05959(11) 0.5000
O1_12 O 0.7257(3) 0.0227(3) 0.4509(3)
O2_12 O 0.7985(4) 0.0961(3) 0.4750(3)
O3_12 O 0.7743(3) 0.0227(3) 0.5491(3)
O4_12 O 0.7015(4) 0.0961(3) 0.5250(3)
loop_
_geom_bond_atom_site_label_1
_geom_bond_atom_site_label_2
_geom_bond_site_symmetry_1
_geom_bond_site_symmetry_2
H57 C70 1_555 1_555
C71 C70 1_555 1_555
H58 C71 1_555 1_555
C72 C71 1_555 1_555
H59 C72 1_555 1_555
C68 C69 1_555 1_555
C69 H56 1_555 1_555
N19 C68 1_555 1_555
H60 N19 1_555 1_555
N20 C68 1_555 1_555
Ag5 N18 1_555 1_555
N18 N19 1_555 1_555
N20 Ag5 1_555 1_555
C1 C2 1_555 1_555
C2 H1 1_555 1_555
C3 C2 1_555 1_555
H2 C3 1_555 1_555
C4 C3 1_555 1_555
C5 C4 1_555 1_555
H3 C5 1_555 1_555
C6 C1 1_555 1_555
H4 C6 1_555 1_555
C7 C4 1_555 1_555
N1 C1 1_555 1_555
C13 N1 1_555 1_555
C14 C13 1_555 1_555
H11 C14 1_555 1_555
C15 C14 1_555 1_555
H12 C15 1_555 1_555
C16 C15 1_555 1_555
C17 C16 1_555 1_555
H13 C17 1_555 1_555
C18 C13 1_555 1_555
H14 C18 1_555 1_555
C19 C16 1_555 1_555
H15 C19 1_555 1_555
C20 C21 1_555 1_555
C21 H16 1_555 1_555
C22 C21 1_555 1_555
H17 C22 1_555 1_555
C23 C22 1_555 1_555
H18 C23 1_555 1_555
C24 C23 1_555 1_555
H19 C24 1_555 1_555
N5 C19 1_555 1_555
N6 C20 1_555 1_555
H20 N6 1_555 1_555
N7 C20 1_555 1_555
C25 N1 1_555 1_555
C26 C25 1_555 1_555
H21 C26 1_555 1_555
C27 C26 1_555 1_555
H22 C27 1_555 1_555
C28 C27 1_555 1_555
C29 C28 1_555 1_555
H23 C29 1_555 1_555
C30 C25 1_555 1_555
H24 C30 1_555 1_555
C31 C28 1_555 1_555
H25 C31 1_555 1_555
C32 C33 1_555 1_555
C33 H26 1_555 1_555
N8 C31 1_555 1_555
N9 C32 1_555 1_555
H30 N9 1_555 1_555
N10 C32 1_555 1_555
Ag2 N5 1_555 1_555
Ag3 N8 1_555 1_555
C37 C38 1_555 1_555
C38 H31 1_555 1_555
C39 C38 1_555 1_555
H32 C39 1_555 1_555
C40 C39 1_555 1_555
C41 C40 1_555 1_555
H33 C41 1_555 1_555
C42 C37 1_555 1_555
H34 C42 1_555 1_555
C43 C40 1_555 1_555
N11 C37 1_555 1_555
C49 N11 1_555 1_555
C50 C49 1_555 1_555
H41 C50 1_555 1_555
C51 C50 1_555 1_555
H42 C51 1_555 1_555
C52 C51 1_555 1_555
C53 C52 1_555 1_555
H43 C53 1_555 1_555
C54 C49 1_555 1_555
H44 C54 1_555 1_555
C55 C52 1_555 1_555
H45 C55 1_555 1_555
C56 C57 1_555 1_555
C57 H46 1_555 1_555
C58 C57 1_555 1_555
H47 C58 1_555 1_555
C59 C58 1_555 1_555
H48 C59 1_555 1_555
C60 C59 1_555 1_555
H49 C60 1_555 1_555
N15 Ag2 1_555 1_555
N16 C56 1_555 1_555
H50 N16 1_555 1_555
N17 Ag2 1_555 1_555
C61 N11 1_555 1_555
C62 C61 1_555 1_555
H51 C62 1_555 1_555
C63 C62 1_555 1_555
H52 C63 1_555 1_555
C64 C63 1_555 1_555
C65 C64 1_555 1_555
H53 C65 1_555 1_555
C66 C61 1_555 1_555
H54 C66 1_555 1_555
C67 C64 1_555 1_555
N21 Ag1 1_555 1_555
N22 Ag3 1_555 1_555
N23 Ag1 1_555 1_555
N24 Ag3 1_555 1_555
C5 C6 1_555 1_555
C17 C18 1_555 1_555
C24 N7 1_555 1_555
N5 N6 1_555 1_555
N7 Ag2 1_555 1_555
C29 C30 1_555 1_555
N8 N9 1_555 1_555
N10 Ag3 1_555 1_555
C41 C42 1_555 1_555
C53 C54 1_555 1_555
C55 N15 1_555 1_555
C56 N17 1_555 1_555
C60 N17 1_555 1_555
N15 N16 1_555 1_555
C65 C66 1_555 1_555
Ag1_2 N2 1_555 1_555
C8 C9 1_555 1_555
C9 H6 1_555 1_555
N3 C8 1_555 1_555
H10 N3 1_555 1_555
N4 Ag1_2 1_555 1_555
C44 C45 1_555 1_555
C45 H36 1_555 1_555
C46 C45 1_555 1_555
H37 C46 1_555 1_555
C47 C46 1_555 1_555
H38 C47 1_555 1_555
C48 C47 1_555 1_555
H39 C48 1_555 1_555
N13 C44 1_555 1_555
H40 N13 1_555 1_555
N14 C44 1_555 1_555
Ag4_2 N12 1_555 1_555
C8 N4 1_555 1_555
N2 N3 1_555 1_555
C48 N14 1_555 1_555
N12 N13 1_555 1_555
N14 Ag4_2 1_555 1_555
H27 C34 1_555 1_555
C35 C34 1_555 1_555
H28 C35 1_555 1_555
C36 C35 1_555 1_555
H29 C36 1_555 1_555
Ag1_3 N2_2 1_555 1_555
C1_2 C2_2 1_555 1_555
C2_2 H1_2 1_555 1_555
C3_2 C2_2 1_555 1_555
H2_2 C3_2 1_555 1_555
C4_2 C3_2 1_555 1_555
C5_2 C4_2 1_555 1_555
H3_2 C5_2 1_555 1_555
C6_2 C1_2 1_555 1_555
H4_2 C6_2 1_555 1_555
C7_2 C4_2 1_555 1_555
H5_2 C7_2 1_555 1_555
C8_2 C9_2 1_555 1_555
C9_2 H6_2 1_555 1_555
N1_2 C1_2 1_555 1_555
N2_2 C7_2 1_555 1_555
N3_2 C8_2 1_555 1_555
H10_2 N3_2 1_555 1_555
N4_2 Ag1_3 1_555 1_555
C13_2 N1_2 1_555 1_555
C14_2 C13_2 1_555 1_555
H11_2 C14_2 1_555 1_555
C15_2 C14_2 1_555 1_555
H12_2 C15_2 1_555 1_555
C16_2 C15_2 1_555 1_555
C17_2 C16_2 1_555 1_555
H13_2 C17_2 1_555 1_555
C18_2 C13_2 1_555 1_555
H14_2 C18_2 1_555 1_555
C19_2 C16_2 1_555 1_555
C25_2 N1_2 1_555 1_555
C26_2 C25_2 1_555 1_555
H21_2 C26_2 1_555 1_555
C27_2 C26_2 1_555 1_555
H22_2 C27_2 1_555 1_555
C28_2 C27_2 1_555 1_555
C29_2 C28_2 1_555 1_555
H23_2 C29_2 1_555 1_555
C30_2 C25_2 1_555 1_555
H24_2 C30_2 1_555 1_555
C31_2 C28_2 1_555 1_555
H25_2 C31_2 1_555 1_555
C32_2 C33_2 1_555 1_555
C33_2 H26_2 1_555 1_555
C34_2 C33_2 1_555 1_555
H27_2 C34_2 1_555 1_555
C35_2 C34_2 1_555 1_555
H28_2 C35_2 1_555 1_555
C36_2 C35_2 1_555 1_555
H29_2 C36_2 1_555 1_555
N8_2 C31_2 1_555 1_555
N9_2 C32_2 1_555 1_555
H30_2 N9_2 1_555 1_555
N10_2 C32_2 1_555 1_555
Ag3_2 N8_2 1_555 1_555
C56_2 C57_2 1_555 1_555
C57_2 H46_2 1_555 1_555
N15_2 Ag2_2 1_555 1_555
N16_2 C56_2 1_555 1_555
H50_2 N16_2 1_555 1_555
N17_2 Ag2_2 1_555 1_555
N21_2 Ag1_3 1_555 1_555
N22_2 Ag3_2 1_555 1_555
N23_2 Ag1_3 1_555 1_555
N24_2 Ag3_2 1_555 1_555
C5_2 C6_2 1_555 1_555
C8_2 N4_2 1_555 1_555
N2_2 N3_2 1_555 1_555
C17_2 C18_2 1_555 1_555
C29_2 C30_2 1_555 1_555
C36_2 N10_2 1_555 1_555
N8_2 N9_2 1_555 1_555
N10_2 Ag3_2 1_555 1_555
C56_2 N17_2 1_555 1_555
N15_2 N16_2 1_555 1_555
H7 C10 1_555 1_555
C11 C10 1_555 1_555
H8 C11 1_555 1_555
C12 C11 1_555 1_555
H9 C12 1_555 1_555
C20_2 C21_2 1_555 1_555
C21_2 H16_2 1_555 1_555
N6_2 C20_2 1_555 1_555
H20_2 N6_2 1_555 1_555
N7_2 C20_2 1_555 1_555
Ag2_3 N5_2 1_555 1_555
C37_2 C38_2 1_555 1_555
C38_2 H31_2 1_555 1_555
C39_2 C38_2 1_555 1_555
H32_2 C39_2 1_555 1_555
C40_2 C39_2 1_555 1_555
C41_2 C40_2 1_555 1_555
H33_2 C41_2 1_555 1_555
C42_2 C37_2 1_555 1_555
H34_2 C42_2 1_555 1_555
C43_2 C40_2 1_555 1_555
H35_2 C43_2 1_555 1_555
C44_2 C45_2 1_555 1_555
C45_2 H36_2 1_555 1_555
C46_2 C45_2 1_555 1_555
H37_2 C46_2 1_555 1_555
C47_2 C46_2 1_555 1_555
H38_2 C47_2 1_555 1_555
C48_2 C47_2 1_555 1_555
H39_2 C48_2 1_555 1_555
N11_2 C37_2 1_555 1_555
N12_2 C43_2 1_555 1_555
N13_2 C44_2 1_555 1_555
H40_2 N13_2 1_555 1_555
N14_2 C44_2 1_555 1_555
C49_2 N11_2 1_555 1_555
C50_2 C49_2 1_555 1_555
H41_2 C50_2 1_555 1_555
C51_2 C50_2 1_555 1_555
H42_2 C51_2 1_555 1_555
C52_2 C51_2 1_555 1_555
C53_2 C52_2 1_555 1_555
H43_2 C53_2 1_555 1_555
C54_2 C49_2 1_555 1_555
H44_2 C54_2 1_555 1_555
C55_2 C52_2 1_555 1_555
C61_2 N11_2 1_555 1_555
C62_2 C61_2 1_555 1_555
H51_2 C62_2 1_555 1_555
C63_2 C62_2 1_555 1_555
H52_2 C63_2 1_555 1_555
C64_2 C63_2 1_555 1_555
C65_2 C64_2 1_555 1_555
H53_2 C65_2 1_555 1_555
C66_2 C61_2 1_555 1_555
H54_2 C66_2 1_555 1_555
C67_2 C64_2 1_555 1_555
Ag4_3 N12_2 1_555 1_555
N5_2 N6_2 1_555 1_555
N7_2 Ag2_3 1_555 1_555
C41_2 C42_2 1_555 1_555
C48_2 N14_2 1_555 1_555
N12_2 N13_2 1_555 1_555
N14_2 Ag4_3 1_555 1_555
C53_2 C54_2 1_555 1_555
C65_2 C66_2 1_555 1_555
C68_2 C69_2 1_555 1_555
C69_2 H56_2 1_555 1_555
C70_2 C69_2 1_555 1_555
H57_2 C70_2 1_555 1_555
C71_2 C70_2 1_555 1_555
H58_2 C71_2 1_555 1_555
C72_2 C71_2 1_555 1_555
H59_2 C72_2 1_555 1_555
N19_2 C68_2 1_555 1_555
H60_2 N19_2 1_555 1_555
N20_2 C68_2 1_555 1_555
Ag5_4 N18_2 1_555 1_555
C72_2 N20_2 1_555 1_555
N18_2 N19_2 1_555 1_555
N20_2 Ag5_4 1_555 1_555
Ag4_3 N2_3 1_555 1_555
C1_3 C2_3 1_555 1_555
C2_3 H1_3 1_555 1_555
C3_3 C2_3 1_555 1_555
H2_3 C3_3 1_555 1_555
C4_3 C3_3 1_555 1_555
C5_3 C4_3 1_555 1_555
H3_3 C5_3 1_555 1_555
C6_3 C1_3 1_555 1_555
H4_3 C6_3 1_555 1_555
C7_3 C4_3 1_555 1_555
H5_3 C7_3 1_555 1_555
C8_3 C9_3 1_555 1_555
C9_3 H6_3 1_555 1_555
C10_2 C9_3 1_555 1_555
H7_2 C10_2 1_555 1_555
C11_2 C10_2 1_555 1_555
H8_2 C11_2 1_555 1_555
C12_2 C11_2 1_555 1_555
H9_2 C12_2 1_555 1_555
N1_3 C1_3 1_555 1_555
N2_3 C7_3 1_555 1_555
N3_3 C8_3 1_555 1_555
H10_3 N3_3 1_555 1_555
N4_3 Ag4_3 1_555 1_555
C13_3 N1_3 1_555 1_555
C14_3 C13_3 1_555 1_555
H11_3 C14_3 1_555 1_555
C15_3 C14_3 1_555 1_555
H12_3 C15_3 1_555 1_555
C16_3 C15_3 1_555 1_555
C17_3 C16_3 1_555 1_555
H13_3 C17_3 1_555 1_555
C18_3 C13_3 1_555 1_555
H14_3 C18_3 1_555 1_555
C19_3 C16_3 1_555 1_555
H15_3 C19_3 1_555 1_555
C20_3 C21_3 1_555 1_555
C21_3 H16_3 1_555 1_555
N5_3 C19_3 1_555 1_555
N6_3 C20_3 1_555 1_555
H20_3 N6_3 1_555 1_555
N7_3 C20_3 1_555 1_555
C25_3 N1_3 1_555 1_555
C26_3 C25_3 1_555 1_555
H21_3 C26_3 1_555 1_555
C27_3 C26_3 1_555 1_555
H22_3 C27_3 1_555 1_555
C28_3 C27_3 1_555 1_555
C29_3 C28_3 1_555 1_555
H23_3 C29_3 1_555 1_555
C30_3 C25_3 1_555 1_555
H24_3 C30_3 1_555 1_555
C31_3 C28_3 1_555 1_555
Ag2_4 N5_3 1_555 1_555
C37_3 C38_3 1_555 1_555
C38_3 H31_3 1_555 1_555
C39_3 C38_3 1_555 1_555
H32_3 C39_3 1_555 1_555
C40_3 C39_3 1_555 1_555
C41_3 C40_3 1_555 1_555
H33_3 C41_3 1_555 1_555
C42_3 C37_3 1_555 1_555
H34_3 C42_3 1_555 1_555
C43_3 C40_3 1_555 1_555
H35_3 C43_3 1_555 1_555
C44_3 C45_3 1_555 1_555
C45_3 H36_3 1_555 1_555
N11_3 C37_3 1_555 1_555
N21_2 C43_3 1_555 1_555
N13_3 C44_3 1_555 1_555
H40_3 N13_3 1_555 1_555
N23_2 C44_3 1_555 1_555
C49_3 N11_3 1_555 1_555
C50_3 C49_3 1_555 1_555
H41_3 C50_3 1_555 1_555
C51_3 C50_3 1_555 1_555
H42_3 C51_3 1_555 1_555
C52_3 C51_3 1_555 1_555
C53_3 C52_3 1_555 1_555
H43_3 C53_3 1_555 1_555
C54_3 C49_3 1_555 1_555
H44_3 C54_3 1_555 1_555
C55_3 C52_3 1_555 1_555
H45_3 C55_3 1_555 1_555
C56_3 C57_3 1_555 1_555
C57_3 H46_3 1_555 1_555
N15_3 Ag2_4 1_555 1_555
N16_3 C56_3 1_555 1_555
H50_3 N16_3 1_555 1_555
N17_3 Ag2_4 1_555 1_555
C61_3 N11_3 1_555 1_555
C62_3 C61_3 1_555 1_555
H51_3 C62_3 1_555 1_555
C63_3 C62_3 1_555 1_555
H52_3 C63_3 1_555 1_555
C64_3 C63_3 1_555 1_555
C65_3 C64_3 1_555 1_555
H53_3 C65_3 1_555 1_555
C66_3 C61_3 1_555 1_555
H54_3 C66_3 1_555 1_555
C67_3 C64_3 1_555 1_555
H55_3 C67_3 1_555 1_555
C68_3 C69_3 1_555 1_555
C69_3 H56_3 1_555 1_555
N22 C67_3 1_555 1_555
N19_3 C68_3 1_555 1_555
H60_3 N19_3 1_555 1_555
N24 C68_3 1_555 1_555
C5_3 C6_3 1_555 1_555
C8_3 N4_3 1_555 1_555
C12_2 N4_3 1_555 1_555
N2_3 N3_3 1_555 1_555
C17_3 C18_3 1_555 1_555
N5_3 N6_3 1_555 1_555
N7_3 Ag2_4 1_555 1_555
C29_3 C30_3 1_555 1_555
C41_3 C42_3 1_555 1_555
N21_2 N13_3 1_555 1_555
C53_3 C54_3 1_555 1_555
C55_3 N15_3 1_555 1_555
C56_3 N17_3 1_555 1_555
N15_3 N16_3 1_555 1_555
C65_3 C66_3 1_555 1_555
N22 N19_3 1_555 1_555
H17_2 C22_2 1_555 1_555
C23_2 C22_2 1_555 1_555
H18_2 C23_2 1_555 1_555
C24_2 C23_2 1_555 1_555
H19_2 C24_2 1_555 1_555
H47_2 C58_2 1_555 1_555
C59_2 C58_2 1_555 1_555
H48_2 C59_2 1_555 1_555
C60_2 C59_2 1_555 1_555
H49_2 C60_2 1_555 1_555
C32_3 C33_3 1_555 1_555
C33_3 H26_3 1_555 1_555
N9_3 C32_3 1_555 1_555
H30_3 N9_3 1_555 1_555
N10_3 C32_3 1_555 1_555
Ag5_2 N8_3 1_555 1_555
H37_3 C46_3 1_555 1_555
C47_3 C46_3 1_555 1_555
H38_3 C47_3 1_555 1_555
C48_3 C47_3 1_555 1_555
H39_3 C48_3 1_555 1_555
N8_3 N9_3 1_555 1_555
N10_3 Ag5_2 1_555 1_555
H57_3 C70_3 1_555 1_555
C71_3 C70_3 1_555 1_555
H58_3 C71_3 1_555 1_555
C72_3 C71_3 1_555 1_555
H59_3 C72_3 1_555 1_555
C44_4 C45_4 1_555 1_555
C45_4 H36_4 1_555 1_555
N13_4 C44_4 1_555 1_555
H40_4 N13_4 1_555 1_555
N23 C44_4 1_555 1_555
N21 N13_4 1_555 1_555
C20_4 C21_4 1_555 1_555
C21_4 H16_4 1_555 1_555
C22_3 C21_4 1_555 1_555
H17_3 C22_3 1_555 1_555
C23_3 C22_3 1_555 1_555
H18_3 C23_3 1_555 1_555
C24_3 C23_3 1_555 1_555
H19_3 C24_3 1_555 1_555
N6_4 C20_4 1_555 1_555
H20_4 N6_4 1_555 1_555
N7_4 C20_4 1_555 1_555
Ag2_5 N5_4 1_555 1_555
C37_4 C38_4 1_555 1_555
C38_4 H31_4 1_555 1_555
C39_4 C38_4 1_555 1_555
H32_4 C39_4 1_555 1_555
C40_4 C39_4 1_555 1_555
C41_4 C40_4 1_555 1_555
H33_4 C41_4 1_555 1_555
C42_4 C37_4 1_555 1_555
H34_4 C42_4 1_555 1_555
C43_4 C40_4 1_555 1_555
N11_4 C37_4 1_555 1_555
C49_4 N11_4 1_555 1_555
C50_4 C49_4 1_555 1_555
H41_4 C50_4 1_555 1_555
C51_4 C50_4 1_555 1_555
H42_4 C51_4 1_555 1_555
C52_4 C51_4 1_555 1_555
C53_4 C52_4 1_555 1_555
H43_4 C53_4 1_555 1_555
C54_4 C49_4 1_555 1_555
H44_4 C54_4 1_555 1_555
C55_4 C52_4 1_555 1_555
C61_4 N11_4 1_555 1_555
C62_4 C61_4 1_555 1_555
H51_4 C62_4 1_555 1_555
C63_4 C62_4 1_555 1_555
H52_4 C63_4 1_555 1_555
C64_4 C63_4 1_555 1_555
C65_4 C64_4 1_555 1_555
H53_4 C65_4 1_555 1_555
C66_4 C61_4 1_555 1_555
H54_4 C66_4 1_555 1_555
C67_4 C64_4 1_555 1_555
H55_4 C67_4 1_555 1_555
C68_4 C69_4 1_555 1_555
C69_4 H56_4 1_555 1_555
C70_4 C69_4 1_555 1_555
H57_4 C70_4 1_555 1_555
C71_4 C70_4 1_555 1_555
H58_4 C71_4 1_555 1_555
C72_4 C71_4 1_555 1_555
H59_4 C72_4 1_555 1_555
N22_2 C67_4 1_555 1_555
N19_4 C68_4 1_555 1_555
H60_4 N19_4 1_555 1_555
N24_2 C68_4 1_555 1_555
C24_3 N7_4 1_555 1_555
N5_4 N6_4 1_555 1_555
N7_4 Ag2_5 1_555 1_555
C41_4 C42_4 1_555 1_555
C53_4 C54_4 1_555 1_555
C65_4 C66_4 1_555 1_555
C72_4 N24_2 1_555 1_555
N22_2 N19_4 1_555 1_555
C32_4 C33_4 1_555 1_555
C33_4 H26_4 1_555 1_555
C34_3 C33_4 1_555 1_555
H27_3 C34_3 1_555 1_555
C35_3 C34_3 1_555 1_555
H28_3 C35_3 1_555 1_555
C36_3 C35_3 1_555 1_555
H29_3 C36_3 1_555 1_555
N9_4 C32_4 1_555 1_555
H30_4 N9_4 1_555 1_555
N10_4 C32_4 1_555 1_555
Ag5_3 N8_4 1_555 1_555
C36_3 N10_4 1_555 1_555
N8_4 N9_4 1_555 1_555
N10_4 Ag5_3 1_555 1_555
Ag4 N2_4 1_555 1_555
C8_4 C9_4 1_555 1_555
C9_4 H6_4 1_555 1_555
C10_3 C9_4 1_555 1_555
H7_3 C10_3 1_555 1_555
C11_3 C10_3 1_555 1_555
H8_3 C11_3 1_555 1_555
C12_3 C11_3 1_555 1_555
H9_3 C12_3 1_555 1_555
N3_4 C8_4 1_555 1_555
H10_4 N3_4 1_555 1_555
N4_4 Ag4 1_555 1_555
C8_4 N4_4 1_555 1_555
C12_3 N4_4 1_555 1_555
N2_4 N3_4 1_555 1_555
C1_4 C2_4 1_555 1_555
C2_4 H1_4 1_555 1_555
C3_4 C2_4 1_555 1_555
H2_4 C3_4 1_555 1_555
C4_4 C3_4 1_555 1_555
C5_4 C4_4 1_555 1_555
H3_4 C5_4 1_555 1_555
C6_4 C1_4 1_555 1_555
H4_4 C6_4 1_555 1_555
C7_4 C4_4 1_555 1_555
N1_4 C1_4 1_555 1_555
C13_4 N1_4 1_555 1_555
C14_4 C13_4 1_555 1_555
H11_4 C14_4 1_555 1_555
C15_4 C14_4 1_555 1_555
H12_4 C15_4 1_555 1_555
C16_4 C15_4 1_555 1_555
C17_4 C16_4 1_555 1_555
H13_4 C17_4 1_555 1_555
C18_4 C13_4 1_555 1_555
H14_4 C18_4 1_555 1_555
C19_4 C16_4 1_555 1_555
C25_4 N1_4 1_555 1_555
C26_4 C25_4 1_555 1_555
H21_4 C26_4 1_555 1_555
C27_4 C26_4 1_555 1_555
H22_4 C27_4 1_555 1_555
C28_4 C27_4 1_555 1_555
C29_4 C28_4 1_555 1_555
H23_4 C29_4 1_555 1_555
C30_4 C25_4 1_555 1_555
H24_4 C30_4 1_555 1_555
C31_4 C28_4 1_555 1_555
C56_4 C57_4 1_555 1_555
C57_4 H46_4 1_555 1_555
C58_3 C57_4 1_555 1_555
H47_3 C58_3 1_555 1_555
C59_3 C58_3 1_555 1_555
H48_3 C59_3 1_555 1_555
C60_3 C59_3 1_555 1_555
H49_3 C60_3 1_555 1_555
N15_4 Ag2_6 1_555 1_555
N16_4 C56_4 1_555 1_555
H50_4 N16_4 1_555 1_555
N17_4 Ag2_6 1_555 1_555
C5_4 C6_4 1_555 1_555
C17_4 C18_4 1_555 1_555
C29_4 C30_4 1_555 1_555
C56_4 N17_4 1_555 1_555
C60_3 N17_4 1_555 1_555
N15_4 N16_4 1_555 1_555
H7_4 C10_4 1_555 1_555
C11_4 C10_4 1_555 1_555
H8_4 C11_4 1_555 1_555
C12_4 C11_4 1_555 1_555
H9_4 C12_4 1_555 1_555
H47_4 C58_4 1_555 1_555
C59_4 C58_4 1_555 1_555
H48_4 C59_4 1_555 1_555
C60_4 C59_4 1_555 1_555
H49_4 C60_4 1_555 1_555
H17_4 C22_4 1_555 1_555
C23_4 C22_4 1_555 1_555
H18_4 C23_4 1_555 1_555
C24_4 C23_4 1_555 1_555
H19_4 C24_4 1_555 1_555
H27_4 C34_4 1_555 1_555
C35_4 C34_4 1_555 1_555
H28_4 C35_4 1_555 1_555
C36_4 C35_4 1_555 1_555
H29_4 C36_4 1_555 1_555
H37_4 C46_4 1_555 1_555
C47_4 C46_4 1_555 1_555
H38_4 C47_4 1_555 1_555
C48_4 C47_4 1_555 1_555
H39_4 C48_4 1_555 1_555
O3 Cl1 1_555 1_555
O4 Cl1 1_555 1_555
Cl1_2 O1 1_555 1_555
O2 Cl1_2 1_555 1_555
Cl1_3 O1_2 1_555 1_555
O2_2 Cl1_3 1_555 1_555
O3_2 Cl1_3 1_555 1_555
O4_2 Cl1_3 1_555 1_555
Cl1_4 O1_3 1_555 1_555
O2_3 Cl1_4 1_555 1_555
O3_3 Cl1_5 1_555 1_555
O4_3 Cl1_5 1_555 1_555
Cl1_6 O1_4 1_555 1_555
O2_4 Cl1_6 1_555 1_555
O3_4 Cl1_6 1_555 1_555
O4_4 Cl1_6 1_555 1_555
O3_5 Cl1_7 1_555 1_555
O4_5 Cl1_7 1_555 1_555
Cl1_8 O1_5 1_555 1_555
O2_5 Cl1_8 1_555 1_555
Cl1_9 O1_6 1_555 1_555
O2_6 Cl1_9 1_555 1_555
O3_6 Cl1_9 1_555 1_555
O4_6 Cl1_9 1_555 1_555
Cl1_10 O1_7 1_555 1_555
O2_7 Cl1_10 1_555 1_555
O3_7 Cl1_11 1_555 1_555
O4_7 Cl1_11 1_555 1_555
Cl1_12 O1_8 1_555 1_555
O2_8 Cl1_12 1_555 1_555
O3_8 Cl1_12 1_555 1_555
O4_8 Cl1_12 1_555 1_555
O3_9 Cl1_13 1_555 1_555
O4_9 Cl1_13 1_555 1_555
Cl1_14 O1_9 1_555 1_555
O2_9 Cl1_14 1_555 1_555
Cl1_15 O1_10 1_555 1_555
O2_10 Cl1_15 1_555 1_555
O3_10 Cl1_15 1_555 1_555
O4_10 Cl1_15 1_555 1_555
Cl1_16 O1_11 1_555 1_555
O2_11 Cl1_16 1_555 1_555
O3_11 Cl1_17 1_555 1_555
O4_11 Cl1_17 1_555 1_555
Cl1_18 O1_12 1_555 1_555
O2_12 Cl1_18 1_555 1_555
O3_12 Cl1_18 1_555 1_555
O4_12 Cl1_18 1_555 1_555

#END
