
###############################################################################
#
# This file contains modified crystal structure data generated from the
# MOF subset of the Cambridge Structural Database (CSD) v543 
# hosted by the Cambridge Crystallographic Data Centre (CCDC).
#
# This work is licensed under the Creative Commons
# Attribution-NonCommercial-ShareAlike 4.0 International License.
# To view a copy of this license, visit
# http://creativecommons.org/licenses/by-nc-sa/4.0/
# or send a letter to
# Creative Commons, PO Box 1866, Mountain View, CA 94042, USA.
#
# CIF created using the CSD Python API on 29 September 2022
# The structure has been converted into the P1 space group
# The structure has a 3D framework
# The original CSD entry KEPPIF is in the cubic crystal system
# The original CSD entry KEPPIF is in a Sohncke space group
# The framework has been calculated to contain at least 10.0% void space
# The void calculation uses a probe of radius 1.32A, grid spacing 0.4
# The framework is charged, counterions have been retained in the structure
# H atom positions have been added when not included in the experimental data
# Generated hydrogen atom positions removed from atoms on special positions
#
###############################################################################

data_KEPPIF
_chemical_formula_moiety         '(C52 H336 O162 Zn24 56+)n'
_symmetry_cell_setting           triclinic
_symmetry_space_group_name_H-M   'P 1'
_symmetry_Int_Tables_number      1
_space_group_name_Hall           'P 1'
loop_
_symmetry_equiv_pos_site_id
_symmetry_equiv_pos_as_xyz
1 x,y,z
_cell_length_a                   16.807(8)
_cell_length_b                   16.807(8)
_cell_length_c                   16.807(8)
_cell_angle_alpha                90
_cell_angle_beta                 90
_cell_angle_gamma                90
_cell_volume                     4747.56
loop_
_atom_site_label
_atom_site_type_symbol
_atom_site_fract_x
_atom_site_fract_y
_atom_site_fract_z
C4 C 0.0424(14) 0.4576(14) 0.5424(14)
O4 O 0.0163(9) 0.4335(10) 0.2884(10)
O9 O 0.0260(11) 0.3346(12) 0.6168(13)
O10 O 0.1272(15) 0.3310(15) 0.7687(12)
Zn4 Zn 0.1475(2) 0.3525(2) 0.6475(2)
C12 C 0.0734(15) 0.5096(15) 0.6136(15)
C13 C 0.1136(15) 0.4266(15) 0.4904(15)
O14 O 0.0067(8) 0.1358(9) 0.0954(8)
O18 O 0.0954(8) 0.0067(8) 0.1358(9)
O27 O 0.0068(8) 0.0068(8) 0.0068(8)
O32 O 0.0489(11) 0.5786(10) 0.6211(10)
O33 O 0.1211(10) 0.4511(11) 0.4214(10)
O36 O 0.1168(13) 0.4740(11) 0.6654(12)
O37 O 0.1654(12) 0.3832(13) 0.5260(11)
O38 O 0.2687(12) 0.3728(15) 0.6690(15)
O39 O 0.1690(15) 0.2313(12) 0.6272(15)
Zn7 Zn 0.02729(18) 0.51724(17) 0.37464(18)
Zn12 Zn 0.12881(18) 0.12881(18) 0.12881(18)
Zn10 Zn 0.01724(17) 0.12536(18) 0.97271(18)
C1 C 0.8208(14) 0.3910(14) 0.3413(16)
C2 C 0.8760(12) 0.4573(12) 0.3021(14)
C3 C 0.9467(14) 0.4140(13) 0.2623(12)
C5 C 0.9904(15) 0.3864(15) 0.5734(15)
O1 O 0.7885(10) 0.3434(8) 0.2944(10)
O2 O 0.9046(8) 0.5067(8) 0.3642(9)
O3 O 0.8144(11) 0.3901(12) 0.4148(9)
O5 O 0.9932(8) 0.5068(8) 0.4932(8)
O6 O 0.9351(9) 0.3642(10) 0.2102(10)
O7 O 0.7518(12) 0.6044(14) 0.3415(14)
O8 O 0.9214(10) 0.3789(10) 0.5489(11)
Zn1 Zn 0.82182(17) 0.32182(17) 0.17818(17)
Zn2 Zn 0.87464(18) 0.47271(18) 0.48276(17)
Zn3 Zn 0.87119(18) 0.62881(18) 0.37119(18)
C6 C 0.6587(16) 0.3208(14) 0.1090(14)
C7 C 0.8910(14) 0.1587(16) 0.1792(14)
C8 C 0.6979(14) 0.3760(12) 0.0427(12)
C9 C 0.9573(12) 0.1979(14) 0.1240(12)
C10 C 0.7377(12) 0.4467(14) 0.0860(13)
C11 C 0.9140(13) 0.2377(12) 0.0533(14)
O11 O 0.7056(10) 0.2885(10) 0.1566(8)
O12 O 0.8434(8) 0.2056(10) 0.2115(10)
O15 O 0.8642(9) 0.5954(8) 0.4933(8)
O16 O 0.9933(8) 0.6358(9) 0.4046(8)
O19 O 0.5852(9) 0.3144(11) 0.1099(12)
O20 O 0.8901(12) 0.0852(9) 0.1856(11)
O21 O 0.7116(10) 0.5163(9) 0.0665(10)
O23 O 0.7884(10) 0.4837(9) 0.5665(10)
O24 O 0.4335(10) 0.2884(10) 0.0163(9)
O28 O 0.7898(10) 0.4351(9) 0.1358(10)
O29 O 0.8642(10) 0.2898(10) 0.0649(9)
O30 O 0.8415(14) 0.7482(12) 0.3956(14)
O31 O 0.8956(14) 0.6585(14) 0.2518(12)
O34 O 0.4511(11) 0.4214(10) 0.1211(10)
Zn5 Zn 0.51724(17) 0.37464(18) 0.02729(18)
Zn6 Zn 0.97271(18) 0.01724(17) 0.12536(18)
Zn8 Zn 0.98276(17) 0.62536(18) 0.52729(18)
H18 H 0.842851 0.491994 0.25856
H21 H 0.74144 0.342851 0.00800556
H22 H 0.991994 0.24144 0.157149
O13 O 0.6358(9) 0.4046(8) 0.9933(8)
O17 O 0.5067(8) 0.3642(9) 0.9046(8)
O22 O 0.9335(10) 0.2116(10) 0.9837(9)
O26 O 0.5068(8) 0.4932(8) 0.9932(8)
Zn9 Zn 0.62536(18) 0.52729(18) 0.98276(17)
Zn11 Zn 0.62881(18) 0.37119(18) 0.87119(18)
O25 O 0.9837(9) 0.9335(10) 0.2116(10)
O35 O 0.8789(10) 0.9511(11) 0.0786(10)
O13_2 O 0.1358(9) 0.0954(8) 0.0067(8)
C1_2 C 0.3208(14) 0.1090(14) 0.6587(16)
C2_2 C 0.3760(12) 0.0427(12) 0.6979(14)
C3_2 C 0.4467(14) 0.0860(13) 0.7377(12)
C4_2 C 0.5424(14) 0.0424(14) 0.4576(14)
C5_2 C 0.4904(15) 0.1136(15) 0.4266(15)
O1_2 O 0.2885(10) 0.1566(8) 0.7056(10)
O3_2 O 0.3144(11) 0.1099(12) 0.5852(9)
O4_2 O 0.5163(9) 0.0665(10) 0.7116(10)
O6_2 O 0.4351(9) 0.1358(10) 0.7898(10)
O8_2 O 0.4214(10) 0.1211(10) 0.4511(11)
O9_2 O 0.5260(11) 0.1654(12) 0.3832(13)
O10_2 O 0.6272(15) 0.1690(15) 0.2313(12)
Zn1_2 Zn 0.32182(17) 0.17818(17) 0.82182(17)
Zn2_2 Zn 0.37464(18) 0.02729(18) 0.51724(17)
Zn4_2 Zn 0.6475(2) 0.1475(2) 0.3525(2)
C6_2 C 0.1587(16) 0.1792(14) 0.8910(14)
C7_2 C 0.3910(14) 0.3413(16) 0.8208(14)
C8_2 C 0.1979(14) 0.1240(12) 0.9573(12)
C9_2 C 0.4573(12) 0.3021(14) 0.8760(12)
C10_2 C 0.2377(12) 0.0533(14) 0.9140(13)
C11_2 C 0.4140(13) 0.2623(12) 0.9467(14)
C13_2 C 0.6136(15) 0.0734(15) 0.5096(15)
O11_2 O 0.2056(10) 0.2115(10) 0.8434(8)
O12_2 O 0.3434(8) 0.2944(10) 0.7885(10)
O18_2 O 0.5954(8) 0.4933(8) 0.8642(9)
O19_2 O 0.0852(9) 0.1856(11) 0.8901(12)
O20_2 O 0.3901(12) 0.4148(9) 0.8144(11)
O23_2 O 0.2884(10) 0.0163(9) 0.4335(10)
O25_2 O 0.4837(9) 0.5665(10) 0.7884(10)
O28_2 O 0.2898(10) 0.0649(9) 0.8642(10)
O29_2 O 0.3642(10) 0.2102(10) 0.9351(9)
O33_2 O 0.6211(10) 0.0489(11) 0.5786(10)
O35_2 O 0.3789(10) 0.5489(11) 0.9214(10)
O36_2 O 0.6168(13) 0.0260(11) 0.3346(12)
O37_2 O 0.6654(12) 0.1168(13) 0.4740(11)
O38_2 O 0.7687(12) 0.1272(15) 0.3310(15)
O39_2 O 0.6690(15) 0.2687(12) 0.3728(15)
Zn6_2 Zn 0.47271(18) 0.48276(17) 0.87464(18)
H18_2 H 0.342851 0.00800556 0.74144
H21_2 H 0.24144 0.157149 0.991994
H22_2 H 0.491994 0.25856 0.842851
Zn9_2 Zn 0.12536(18) 0.97271(18) 0.01724(17)
O2_2 O 0.4046(8) 0.9933(8) 0.6358(9)
O5_2 O 0.4932(8) 0.9932(8) 0.5068(8)
O7_2 O 0.2518(12) 0.8956(14) 0.6585(14)
Zn3_2 Zn 0.37119(18) 0.87119(18) 0.62881(18)
C12_2 C 0.5734(15) 0.9904(15) 0.3864(15)
O15_2 O 0.3642(9) 0.9046(8) 0.5067(8)
O16_2 O 0.4933(8) 0.8642(9) 0.5954(8)
O21_2 O 0.2116(10) 0.9837(9) 0.9335(10)
O30_2 O 0.3415(14) 0.7518(12) 0.6044(14)
O31_2 O 0.3956(14) 0.8415(14) 0.7482(12)
O32_2 O 0.5489(11) 0.9214(10) 0.3789(10)
Zn7_2 Zn 0.52729(18) 0.98276(17) 0.62536(18)
Zn8_2 Zn 0.48276(17) 0.87464(18) 0.47271(18)
O34_2 O 0.9511(11) 0.0786(10) 0.8789(10)
O7_3 O 0.2482(12) 0.1044(14) 0.1585(14)
O30_3 O 0.1585(14) 0.2482(12) 0.1044(14)
O31_3 O 0.1044(14) 0.1585(14) 0.2482(12)
C1_3 C 0.1792(14) 0.8910(14) 0.1587(16)
C2_3 C 0.1240(12) 0.9573(12) 0.1979(14)
C3_3 C 0.0533(14) 0.9140(13) 0.2377(12)
O1_3 O 0.2115(10) 0.8434(8) 0.2056(10)
O3_3 O 0.1856(11) 0.8901(12) 0.0852(9)
O6_3 O 0.0649(9) 0.8642(10) 0.2898(10)
Zn1_3 Zn 0.17818(17) 0.82182(17) 0.32182(17)
C6_3 C 0.3413(16) 0.8208(14) 0.3910(14)
C7_3 C 0.1090(14) 0.6587(16) 0.3208(14)
C8_3 C 0.3021(14) 0.8760(12) 0.4573(12)
C9_3 C 0.0427(12) 0.6979(14) 0.3760(12)
C10_3 C 0.2623(12) 0.9467(14) 0.4140(13)
C11_3 C 0.0860(13) 0.7377(12) 0.4467(14)
O11_3 O 0.2944(10) 0.7885(10) 0.3434(8)
O12_3 O 0.1566(8) 0.7056(10) 0.2885(10)
O19_3 O 0.4148(9) 0.8144(11) 0.3901(12)
O20_3 O 0.1099(12) 0.5852(9) 0.3144(11)
O22_2 O 0.0665(10) 0.7116(10) 0.5163(9)
O24_2 O 0.5665(10) 0.7884(10) 0.4837(9)
O28_3 O 0.2102(10) 0.9351(9) 0.3642(10)
O29_3 O 0.1358(10) 0.7898(10) 0.4351(9)
H18_3 H 0.157149 0.991994 0.24144
H21_3 H 0.25856 0.842851 0.491994
H22_3 H 0.00800556 0.74144 0.342851
C5_3 C 0.0096(15) 0.8864(15) 0.9266(15)
O8_3 O 0.0786(10) 0.8789(10) 0.9511(11)
C12_3 C 0.9266(15) 0.0096(15) 0.8864(15)
C13_3 C 0.8864(15) 0.9266(15) 0.0096(15)
C4_3 C 0.4576(14) 0.5424(14) 0.0424(14)
C5_4 C 0.5096(15) 0.6136(15) 0.0734(15)
O8_4 O 0.5786(10) 0.6211(10) 0.0489(11)
O9_3 O 0.4740(11) 0.6654(12) 0.1168(13)
O10_3 O 0.3728(15) 0.6690(15) 0.2687(12)
Zn4_3 Zn 0.3525(2) 0.6475(2) 0.1475(2)
C12_4 C 0.4266(15) 0.4904(15) 0.1136(15)
O36_3 O 0.3832(13) 0.5260(11) 0.1654(12)
O37_3 O 0.3346(12) 0.6168(13) 0.0260(11)
O38_3 O 0.2313(12) 0.6272(15) 0.1690(15)
O39_3 O 0.3310(15) 0.7687(12) 0.1272(15)
C1_4 C 0.6792(14) 0.6090(14) 0.8413(16)
C2_4 C 0.6240(12) 0.5427(12) 0.8021(14)
C3_4 C 0.5533(14) 0.5860(13) 0.7623(12)
O1_4 O 0.7115(10) 0.6566(8) 0.7944(10)
O3_4 O 0.6856(11) 0.6099(12) 0.9148(9)
O6_4 O 0.5649(9) 0.6358(10) 0.7102(10)
O7_4 O 0.7482(12) 0.3956(14) 0.8415(14)
Zn1_4 Zn 0.67818(17) 0.67818(17) 0.67818(17)
C6_4 C 0.8413(16) 0.6792(14) 0.6090(14)
C7_4 C 0.6090(14) 0.8413(16) 0.6792(14)
C8_4 C 0.8021(14) 0.6240(12) 0.5427(12)
C9_4 C 0.5427(12) 0.8021(14) 0.6240(12)
C10_4 C 0.7623(12) 0.5533(14) 0.5860(13)
C11_4 C 0.5860(13) 0.7623(12) 0.5533(14)
C13_4 C 0.3864(15) 0.5734(15) 0.9904(15)
O11_4 O 0.7944(10) 0.7115(10) 0.6566(8)
O12_4 O 0.6566(8) 0.7944(10) 0.7115(10)
O19_4 O 0.9148(9) 0.6856(11) 0.6099(12)
O20_4 O 0.6099(12) 0.9148(9) 0.6856(11)
O28_4 O 0.7102(10) 0.5649(9) 0.6358(10)
O29_4 O 0.6358(10) 0.7102(10) 0.5649(9)
O30_4 O 0.6585(14) 0.2518(12) 0.8956(14)
O31_4 O 0.6044(14) 0.3415(14) 0.7518(12)
H18_4 H 0.657149 0.508006 0.75856
H21_4 H 0.75856 0.657149 0.508006
H22_4 H 0.508006 0.75856 0.657149
C4_4 C 0.9576(14) 0.9576(14) 0.9576(14)
O9_4 O 0.9740(11) 0.8346(12) 0.8832(13)
O10_4 O 0.8728(15) 0.8310(15) 0.7313(12)
Zn4_4 Zn 0.8525(2) 0.8525(2) 0.8525(2)
O36_4 O 0.8832(13) 0.9740(11) 0.8346(12)
O37_4 O 0.8346(12) 0.8832(13) 0.9740(11)
O38_4 O 0.7313(12) 0.8728(15) 0.8310(15)
O39_4 O 0.8310(15) 0.7313(12) 0.8728(15)
O40 O 0.810(3) 0.204(3) 0.874(3)
O40_2 O 0.310(3) 0.296(3) 0.126(3)
O40_3 O 0.190(3) 0.704(3) 0.626(3)
O40_4 O 0.690(3) 0.796(3) 0.374(3)
O40_5 O 0.874(3) 0.810(3) 0.204(3)
O40_6 O 0.374(3) 0.690(3) 0.796(3)
O40_7 O 0.126(3) 0.310(3) 0.296(3)
O40_8 O 0.626(3) 0.190(3) 0.704(3)
O40_9 O 0.204(3) 0.874(3) 0.810(3)
O40_10 O 0.704(3) 0.626(3) 0.190(3)
O40_11 O 0.796(3) 0.374(3) 0.690(3)
O40_12 O 0.296(3) 0.126(3) 0.310(3)
O41 O 0.800(4) 0.696(4) 0.035(4)
O41_2 O 0.300(4) 0.804(4) 0.965(4)
O41_3 O 0.200(4) 0.196(4) 0.465(4)
O41_4 O 0.700(4) 0.304(4) 0.535(4)
O41_5 O 0.035(4) 0.800(4) 0.696(4)
O41_6 O 0.535(4) 0.700(4) 0.304(4)
O41_7 O 0.965(4) 0.300(4) 0.804(4)
O41_8 O 0.465(4) 0.200(4) 0.196(4)
O41_9 O 0.696(4) 0.035(4) 0.800(4)
O41_10 O 0.196(4) 0.465(4) 0.200(4)
O41_11 O 0.304(4) 0.535(4) 0.700(4)
O41_12 O 0.804(4) 0.965(4) 0.300(4)
O42 O 0.799(12) 0.178(11) 0.448(11)
O42_2 O 0.299(12) 0.322(11) 0.552(11)
O42_3 O 0.201(12) 0.678(11) 0.052(11)
O42_4 O 0.701(12) 0.822(11) 0.948(11)
O42_5 O 0.448(11) 0.799(12) 0.178(11)
O42_6 O 0.948(11) 0.701(12) 0.822(11)
O42_7 O 0.552(11) 0.299(12) 0.322(11)
O42_8 O 0.052(11) 0.201(12) 0.678(11)
O42_9 O 0.178(11) 0.448(11) 0.799(12)
O42_10 O 0.678(11) 0.052(11) 0.201(12)
O42_11 O 0.822(11) 0.948(11) 0.701(12)
O42_12 O 0.322(11) 0.552(11) 0.299(12)
H4 H 0.0360825 0.261 0.407
O43 O 0.977(9) 0.261(8) 0.407(7)
H5 H 0.957306 0.309241 0.379148
H6 H 0.957306 0.212759 0.379148
O43_2 O 0.477(9) 0.239(8) 0.593(7)
O43_3 O 0.023(9) 0.761(8) 0.093(7)
H5_2 H 0.0426942 0.809241 0.120852
H6_2 H 0.0426942 0.712759 0.120852
H4_2 H 0.963917 0.761 0.093
O43_4 O 0.523(9) 0.739(8) 0.907(7)
H4_3 H 0.407 0.0360825 0.261
O43_5 O 0.407(7) 0.977(9) 0.261(8)
H5_3 H 0.379148 0.957306 0.309241
H6_3 H 0.379148 0.957306 0.212759
O43_6 O 0.907(7) 0.523(9) 0.739(8)
O43_7 O 0.593(7) 0.477(9) 0.239(8)
O43_8 O 0.093(7) 0.023(9) 0.761(8)
H5_4 H 0.120852 0.0426942 0.809241
H6_4 H 0.120852 0.0426942 0.712759
H4_4 H 0.093 0.963917 0.761
H4_5 H 0.261 0.407 0.0360825
O43_9 O 0.261(8) 0.407(7) 0.977(9)
H5_5 H 0.309241 0.379148 0.957306
H6_5 H 0.212759 0.379148 0.957306
O43_10 O 0.761(8) 0.093(7) 0.023(9)
H5_6 H 0.809241 0.120852 0.0426942
H6_6 H 0.712759 0.120852 0.0426942
H4_6 H 0.761 0.093 0.963917
O43_11 O 0.739(8) 0.907(7) 0.523(9)
O43_12 O 0.239(8) 0.593(7) 0.477(9)
H7 H 0.0360825 0.179 0.507
O44 O 0.977(6) 0.179(6) 0.507(6)
H8 H 0.957306 0.227241 0.479148
H9 H 0.957306 0.130759 0.479148
O44_2 O 0.477(6) 0.321(6) 0.493(6)
H8_2 H 0.0426942 0.727241 0.0208518
H9_2 H 0.0426942 0.630759 0.0208518
O44_3 O 0.023(6) 0.679(6) 0.993(6)
H7_2 H 0.963917 0.679 0.993
O44_4 O 0.523(6) 0.821(6) 0.007(6)
H7_3 H 0.463917 0.821 0.007
H8_3 H 0.542694 0.772759 0.979148
H9_3 H 0.542694 0.869241 0.979148
H7_4 H 0.507 0.0360825 0.179
O44_5 O 0.507(6) 0.977(6) 0.179(6)
H8_4 H 0.479148 0.957306 0.227241
H9_4 H 0.479148 0.957306 0.130759
O44_6 O 0.007(6) 0.523(6) 0.821(6)
H7_5 H 0.007 0.463917 0.821
H8_5 H 0.979148 0.542694 0.772759
H9_5 H 0.979148 0.542694 0.869241
O44_7 O 0.493(6) 0.477(6) 0.321(6)
H8_6 H 0.0208518 0.0426942 0.727241
H9_6 H 0.0208518 0.0426942 0.630759
O44_8 O 0.993(6) 0.023(6) 0.679(6)
H7_6 H 0.993 0.963917 0.679
H7_7 H 0.179 0.507 0.0360825
O44_9 O 0.179(6) 0.507(6) 0.977(6)
H8_7 H 0.227241 0.479148 0.957306
H9_7 H 0.130759 0.479148 0.957306
H8_8 H 0.727241 0.0208518 0.0426942
H9_8 H 0.630759 0.0208518 0.0426942
O44_10 O 0.679(6) 0.993(6) 0.023(6)
H7_8 H 0.679 0.993 0.963917
O44_11 O 0.821(6) 0.007(6) 0.523(6)
H7_9 H 0.821 0.007 0.463917
H8_9 H 0.772759 0.979148 0.542694
H9_9 H 0.869241 0.979148 0.542694
O44_12 O 0.321(6) 0.493(6) 0.477(6)
loop_
_geom_bond_atom_site_label_1
_geom_bond_atom_site_label_2
_geom_bond_site_symmetry_1
_geom_bond_site_symmetry_2
O4 Zn7 1_555 1_555
O10 Zn4 1_555 1_555
Zn4 O9 1_555 1_555
C12 C4 1_555 1_555
C13 C4 1_555 1_555
O32 C12 1_555 1_555
O33 C13 1_555 1_555
O36 Zn4 1_555 1_555
O37 Zn4 1_555 1_555
O38 Zn4 1_555 1_555
O39 Zn4 1_555 1_555
Zn12 O14 1_555 1_555
C12 O36 1_555 1_555
C13 O37 1_555 1_555
O18 Zn12 1_555 1_555
O33 Zn7 1_555 1_555
C1 C2 1_555 1_555
C2 C3 1_555 1_555
C5 O8 1_555 1_555
O1 C1 1_555 1_555
O2 C2 1_555 1_555
O3 C1 1_555 1_555
O6 C3 1_555 1_555
O7 Zn3 1_555 1_555
O8 Zn2 1_555 1_555
Zn1 O1 1_555 1_555
Zn2 O2 1_555 1_555
Zn3 O2 1_555 1_555
C6 C8 1_555 1_555
C7 C9 1_555 1_555
C8 C10 1_555 1_555
C9 C11 1_555 1_555
C10 O21 1_555 1_555
O11 Zn1 1_555 1_555
O12 Zn1 1_555 1_555
O15 Zn2 1_555 1_555
O16 Zn3 1_555 1_555
O19 C6 1_555 1_555
O20 C7 1_555 1_555
O23 Zn2 1_555 1_555
O24 Zn5 1_555 1_555
O28 Zn1 1_555 1_555
O29 Zn1 1_555 1_555
O30 Zn3 1_555 1_555
O31 Zn3 1_555 1_555
O34 Zn5 1_555 1_555
Zn8 O5 1_555 1_555
O3 Zn2 1_555 1_555
O5 Zn2 1_555 1_555
O6 Zn1 1_555 1_555
Zn3 O15 1_555 1_555
C6 O11 1_555 1_555
C7 O12 1_555 1_555
C10 O28 1_555 1_555
C11 O29 1_555 1_555
O15 Zn8 1_555 1_555
O16 Zn8 1_555 1_555
O19 Zn5 1_555 1_555
O20 Zn6 1_555 1_555
C2 H18 1_555 1_555
C8 H21 1_555 1_555
C9 H22 1_555 1_555
Zn9 O13 1_555 1_555
Zn11 O13 1_555 1_555
O17 Zn11 1_555 1_555
O26 Zn9 1_555 1_555
Zn12 O13_2 1_555 1_555
C1_2 C2_2 1_555 1_555
C2_2 C3_2 1_555 1_555
C3_2 O4_2 1_555 1_555
C4_2 C5_2 1_555 1_555
C5_2 O8_2 1_555 1_555
O1_2 C1_2 1_555 1_555
O3_2 C1_2 1_555 1_555
O6_2 C3_2 1_555 1_555
O8_2 Zn2_2 1_555 1_555
O9_2 C5_2 1_555 1_555
O10_2 Zn4_2 1_555 1_555
Zn1_2 O1_2 1_555 1_555
Zn4_2 O9_2 1_555 1_555
C6_2 C8_2 1_555 1_555
C7_2 C9_2 1_555 1_555
C8_2 C10_2 1_555 1_555
C9_2 C11_2 1_555 1_555
C13_2 C4_2 1_555 1_555
O11_2 Zn1_2 1_555 1_555
O12_2 Zn1_2 1_555 1_555
O17 C9_2 1_555 1_555
O18_2 Zn6_2 1_555 1_555
O19_2 C6_2 1_555 1_555
O20_2 C7_2 1_555 1_555
O23_2 Zn2_2 1_555 1_555
O25_2 Zn6_2 1_555 1_555
O26 Zn6_2 1_555 1_555
O28_2 Zn1_2 1_555 1_555
O29_2 Zn1_2 1_555 1_555
O33_2 C13_2 1_555 1_555
O35_2 Zn6_2 1_555 1_555
O36_2 Zn4_2 1_555 1_555
O37_2 Zn4_2 1_555 1_555
O38_2 Zn4_2 1_555 1_555
O39_2 Zn4_2 1_555 1_555
Zn6_2 O17 1_555 1_555
O3_2 Zn2_2 1_555 1_555
O6_2 Zn1_2 1_555 1_555
C6_2 O11_2 1_555 1_555
C7_2 O12_2 1_555 1_555
C10_2 O28_2 1_555 1_555
C11_2 O29_2 1_555 1_555
C13_2 O37_2 1_555 1_555
O18_2 Zn11 1_555 1_555
O19_2 Zn10 1_555 1_555
O20_2 Zn6_2 1_555 1_555
C2_2 H18_2 1_555 1_555
C8_2 H21_2 1_555 1_555
C9_2 H22_2 1_555 1_555
O7_2 Zn3_2 1_555 1_555
Zn3_2 O2_2 1_555 1_555
O16_2 Zn3_2 1_555 1_555
O30_2 Zn3_2 1_555 1_555
O31_2 Zn3_2 1_555 1_555
O32_2 C12_2 1_555 1_555
Zn7_2 O2_2 1_555 1_555
Zn8_2 O5_2 1_555 1_555
O5_2 Zn7_2 1_555 1_555
Zn3_2 O15_2 1_555 1_555
O15_2 Zn8_2 1_555 1_555
O16_2 Zn7_2 1_555 1_555
O16_2 Zn8_2 1_555 1_555
O32_2 Zn8_2 1_555 1_555
O7_3 Zn12 1_555 1_555
O30_3 Zn12 1_555 1_555
O31_3 Zn12 1_555 1_555
C1_3 C2_3 1_555 1_555
C2_3 C3_3 1_555 1_555
O1_3 C1_3 1_555 1_555
O3_3 C1_3 1_555 1_555
O6_3 C3_3 1_555 1_555
Zn1_3 O1_3 1_555 1_555
C6_3 C8_3 1_555 1_555
C7_3 C9_3 1_555 1_555
C8_3 C10_3 1_555 1_555
C9_3 C11_3 1_555 1_555
C11_3 O22_2 1_555 1_555
O11_3 Zn1_3 1_555 1_555
O12_3 Zn1_3 1_555 1_555
O15_2 C8_3 1_555 1_555
O19_3 C6_3 1_555 1_555
O20_3 C7_3 1_555 1_555
O24_2 Zn8_2 1_555 1_555
O28_3 Zn1_3 1_555 1_555
O29_3 Zn1_3 1_555 1_555
O3_3 Zn9_2 1_555 1_555
O6_3 Zn1_3 1_555 1_555
C6_3 O11_3 1_555 1_555
C7_3 O12_3 1_555 1_555
C10_3 O28_3 1_555 1_555
C11_3 O29_3 1_555 1_555
O19_3 Zn8_2 1_555 1_555
O20_3 Zn7 1_555 1_555
C2_3 H18_3 1_555 1_555
C8_3 H21_3 1_555 1_555
C9_3 H22_3 1_555 1_555
C5_3 O8_3 1_555 1_555
O34_2 C12_3 1_555 1_555
O35 C13_3 1_555 1_555
C4_3 C5_4 1_555 1_555
C5_4 O8_4 1_555 1_555
O9_3 C5_4 1_555 1_555
O10_3 Zn4_3 1_555 1_555
Zn4_3 O9_3 1_555 1_555
C12_4 C4_3 1_555 1_555
O34 C12_4 1_555 1_555
O36_3 Zn4_3 1_555 1_555
O37_3 Zn4_3 1_555 1_555
O38_3 Zn4_3 1_555 1_555
O39_3 Zn4_3 1_555 1_555
C12_4 O36_3 1_555 1_555
C1_4 C2_4 1_555 1_555
C2_4 C3_4 1_555 1_555
C3_4 O25_2 1_555 1_555
O1_4 C1_4 1_555 1_555
O18_2 C2_4 1_555 1_555
O3_4 C1_4 1_555 1_555
O6_4 C3_4 1_555 1_555
O7_4 Zn11 1_555 1_555
Zn1_4 O1_4 1_555 1_555
Zn9 O18_2 1_555 1_555
C6_4 C8_4 1_555 1_555
C7_4 C9_4 1_555 1_555
C8_4 C10_4 1_555 1_555
C9_4 C11_4 1_555 1_555
C10_4 O23 1_555 1_555
C11_4 O24_2 1_555 1_555
O11_4 Zn1_4 1_555 1_555
O12_4 Zn1_4 1_555 1_555
O15 C8_4 1_555 1_555
O16_2 C9_4 1_555 1_555
O19_4 C6_4 1_555 1_555
O20_4 C7_4 1_555 1_555
O28_4 Zn1_4 1_555 1_555
O29_4 Zn1_4 1_555 1_555
O30_4 Zn11 1_555 1_555
O31_4 Zn11 1_555 1_555
O35_2 C13_4 1_555 1_555
O3_4 Zn9 1_555 1_555
O6_4 Zn1_4 1_555 1_555
C6_4 O11_4 1_555 1_555
C7_4 O12_4 1_555 1_555
C10_4 O28_4 1_555 1_555
C11_4 O29_4 1_555 1_555
O19_4 Zn8 1_555 1_555
O20_4 Zn7_2 1_555 1_555
C2_4 H18_4 1_555 1_555
C8_4 H21_4 1_555 1_555
C9_4 H22_4 1_555 1_555
O10_4 Zn4_4 1_555 1_555
Zn4_4 O9_4 1_555 1_555
O36_4 Zn4_4 1_555 1_555
O37_4 Zn4_4 1_555 1_555
O38_4 Zn4_4 1_555 1_555
O39_4 Zn4_4 1_555 1_555
O43 H5 1_555 1_555
O43 H6 1_555 1_555
O43_3 H5_2 1_555 1_555
O43_3 H6_2 1_555 1_555
O43_5 H5_3 1_555 1_555
O43_5 H6_3 1_555 1_555
O43_8 H5_4 1_555 1_555
O43_8 H6_4 1_555 1_555
O43_9 H5_5 1_555 1_555
O43_9 H6_5 1_555 1_555
O43_10 H5_6 1_555 1_555
O43_10 H6_6 1_555 1_555
O44 H8 1_555 1_555
O44 H9 1_555 1_555
O44_4 H7_3 1_555 1_555
O44_5 H8_4 1_555 1_555
O44_5 H9_4 1_555 1_555
O44_6 H7_5 1_555 1_555
O44_9 H8_7 1_555 1_555
O44_9 H9_7 1_555 1_555
O44_11 H7_9 1_555 1_555

#END
