
###############################################################################
#
# This file contains modified crystal structure data generated from the
# MOF subset of the Cambridge Structural Database (CSD) v543 
# hosted by the Cambridge Crystallographic Data Centre (CCDC).
#
# This work is licensed under the Creative Commons
# Attribution-NonCommercial-ShareAlike 4.0 International License.
# To view a copy of this license, visit
# http://creativecommons.org/licenses/by-nc-sa/4.0/
# or send a letter to
# Creative Commons, PO Box 1866, Mountain View, CA 94042, USA.
#
# CIF created using the CSD Python API on 29 September 2022
# The structure has been converted into the P1 space group
# The structure has a 3D framework
# The original CSD entry KEQDER is in the tetragonal crystal system
# The framework has been calculated to contain at least 10.0% void space
# The void calculation uses a probe of radius 1.32A, grid spacing 0.4
# H atom positions have been added when not included in the experimental data
# Generated hydrogen atom positions removed from atoms on special positions
#
###############################################################################

data_KEQDER
_chemical_formula_moiety         '(C324 H216 O80 Zn16)n'
_symmetry_cell_setting           triclinic
_symmetry_space_group_name_H-M   'P 1'
_symmetry_Int_Tables_number      1
_space_group_name_Hall           'P 1'
loop_
_symmetry_equiv_pos_site_id
_symmetry_equiv_pos_as_xyz
1 x,y,z
_cell_length_a                   18.765(3)
_cell_length_b                   18.765(3)
_cell_length_c                   46.463(12)
_cell_angle_alpha                90
_cell_angle_beta                 90
_cell_angle_gamma                90
_cell_volume                     16360.8
loop_
_atom_site_label
_atom_site_type_symbol
_atom_site_fract_x
_atom_site_fract_y
_atom_site_fract_z
Zn1 Zn 0.28747(3) 0.28747(3) 0.225609(14)
O1 O 0.2627(2) 0.36901(17) 0.25106(8)
C1 C 0.2013(5) 0.5000 0.33478(14)
C2 C 0.2100(3) 0.4367(3) 0.32092(9)
H1 H 0.2035 0.3934 0.3312
C3 C 0.2282(3) 0.4343(3) 0.29185(10)
C4 C 0.2395(4) 0.5000 0.27841(15)
H2 H 0.2557 0.5000 0.2590
C5 C 0.1699(7) 0.5000 0.38975(17)
C6 C 0.1826(6) 0.5000 0.36412(16)
C7 C 0.1487(9) 0.5000 0.42008(19)
O2 O 0.3363(2) 0.3363(2) 0.19307(8)
C8 C 0.0853(8) 0.5000 0.47303(15)
C9 C 0.1277(7) 0.4407(5) 0.43230(16)
H3 H 0.1325 0.3968 0.4223
C10 C 0.0983(6) 0.4416(5) 0.45983(15)
H4 H 0.0875 0.3977 0.4690
C11 C 0.0347(10) 0.5000 0.5000
C12 C 0.2339(3) 0.3660(4) 0.27683(12)
O3 O 0.2090(3) 0.3113(2) 0.28874(7)
Zn2 Zn 0.28747(3) 0.71253(3) 0.774391(14)
Zn3 Zn 0.28747(3) 0.28747(3) 0.774391(14)
Zn5 Zn 0.21253(3) 0.21253(3) 0.274391(14)
Zn6 Zn 0.21253(3) 0.78747(3) 0.725609(14)
Zn7 Zn 0.21253(3) 0.21253(3) 0.725609(14)
Zn15 Zn 0.28747(3) 0.71253(3) 0.225609(14)
Zn16 Zn 0.21253(3) 0.78747(3) 0.274391(14)
O4 O 0.2627(2) 0.63099(17) 0.74894(8)
O5 O 0.2627(2) 0.36901(17) 0.74894(8)
O10 O 0.2627(2) 0.63099(17) 0.25106(8)
O11 O 0.36901(17) 0.2627(2) 0.25106(8)
O12 O 0.36901(17) 0.7373(2) 0.74894(8)
O13 O 0.36901(17) 0.2627(2) 0.74894(8)
C13 C 0.2013(5) 0.5000 0.66522(14)
C16 C 0.2100(3) 0.4367(3) 0.67908(9)
C17 C 0.2100(3) 0.5633(3) 0.67908(9)
C22 C 0.2100(3) 0.5633(3) 0.32092(9)
H5 H 0.2035 0.3934 0.6688
H6 H 0.2035 0.6066 0.6688
H11 H 0.2035 0.6066 0.3312
C23 C 0.2282(3) 0.4343(3) 0.70815(10)
C24 C 0.2282(3) 0.5657(3) 0.70815(10)
C29 C 0.2282(3) 0.5657(3) 0.29185(10)
C30 C 0.2395(4) 0.5000 0.72159(15)
H12 H 0.2557 0.5000 0.7410
C33 C 0.1699(7) 0.5000 0.61025(17)
C36 C 0.1826(6) 0.5000 0.63588(16)
C39 C 0.1487(9) 0.5000 0.57992(19)
O15 O 0.3363(2) 0.6637(2) 0.80693(8)
O16 O 0.3363(2) 0.3363(2) 0.80693(8)
C42 C 0.0853(8) 0.5000 0.52697(15)
C45 C 0.1277(7) 0.4407(5) 0.56770(16)
C46 C 0.1277(7) 0.5593(5) 0.56770(16)
C51 C 0.1277(7) 0.5593(5) 0.43230(16)
H15 H 0.1325 0.6032 0.5777
H16 H 0.1325 0.3968 0.5777
H21 H 0.1325 0.6032 0.4223
C52 C 0.0983(6) 0.4416(5) 0.54017(15)
C53 C 0.0983(6) 0.5584(5) 0.54017(15)
C58 C 0.0983(6) 0.5584(5) 0.45983(15)
H22 H 0.0875 0.6023 0.5310
H23 H 0.0875 0.3977 0.5310
H28 H 0.0875 0.6023 0.4690
C60 C 0.2339(3) 0.6340(4) 0.72317(12)
C61 C 0.2339(3) 0.3660(4) 0.72317(12)
C66 C 0.2339(3) 0.6340(4) 0.27683(12)
O18 O 0.2090(3) 0.6887(2) 0.71126(7)
O19 O 0.2090(3) 0.3113(2) 0.71126(7)
O24 O 0.2090(3) 0.6887(2) 0.28874(7)
O25 O 0.2910(3) 0.1887(2) 0.21126(7)
O26 O 0.1887(2) 0.2910(3) 0.21126(7)
O27 O 0.2910(3) 0.8113(2) 0.78874(7)
O28 O 0.1887(2) 0.7090(3) 0.78874(7)
O29 O 0.2910(3) 0.1887(2) 0.78874(7)
O30 O 0.1887(2) 0.2910(3) 0.78874(7)
Zn4 Zn 0.71253(3) 0.71253(3) 0.225609(14)
Zn8 Zn 0.78747(3) 0.78747(3) 0.274391(14)
Zn9 Zn 0.71253(3) 0.28747(3) 0.225609(14)
Zn10 Zn 0.78747(3) 0.21253(3) 0.274391(14)
Zn11 Zn 0.71253(3) 0.71253(3) 0.774391(14)
Zn12 Zn 0.78747(3) 0.78747(3) 0.725609(14)
Zn13 Zn 0.71253(3) 0.28747(3) 0.774391(14)
Zn14 Zn 0.78747(3) 0.21253(3) 0.725609(14)
O6 O 0.7373(2) 0.63099(17) 0.25106(8)
O7 O 0.7373(2) 0.36901(17) 0.25106(8)
O8 O 0.7373(2) 0.63099(17) 0.74894(8)
O9 O 0.7373(2) 0.36901(17) 0.74894(8)
O14 O 0.63099(17) 0.7373(2) 0.25106(8)
C14 C 0.7987(5) 0.5000 0.33478(14)
C15 C 0.7987(5) 0.5000 0.66522(14)
C18 C 0.7900(3) 0.4367(3) 0.32092(9)
C19 C 0.7900(3) 0.5633(3) 0.32092(9)
C20 C 0.7900(3) 0.4367(3) 0.67908(9)
C21 C 0.7900(3) 0.5633(3) 0.67908(9)
H7 H 0.7965 0.3934 0.3312
H8 H 0.7965 0.6066 0.3312
H9 H 0.7965 0.3934 0.6688
H10 H 0.7965 0.6066 0.6688
C25 C 0.7718(3) 0.4343(3) 0.29185(10)
C26 C 0.7718(3) 0.5657(3) 0.29185(10)
C27 C 0.7718(3) 0.4343(3) 0.70815(10)
C28 C 0.7718(3) 0.5657(3) 0.70815(10)
C31 C 0.7605(4) 0.5000 0.27841(15)
C32 C 0.7605(4) 0.5000 0.72159(15)
H13 H 0.7443 0.5000 0.2590
H14 H 0.7443 0.5000 0.7410
C34 C 0.8301(7) 0.5000 0.38975(17)
C35 C 0.8301(7) 0.5000 0.61025(17)
C37 C 0.8174(6) 0.5000 0.36412(16)
C38 C 0.8174(6) 0.5000 0.63588(16)
C40 C 0.8513(9) 0.5000 0.42008(19)
C41 C 0.8513(9) 0.5000 0.57992(19)
O17 O 0.6637(2) 0.6637(2) 0.19307(8)
C43 C 0.9147(8) 0.5000 0.47303(15)
C44 C 0.9147(8) 0.5000 0.52697(15)
C47 C 0.8723(7) 0.4407(5) 0.43230(16)
C48 C 0.8723(7) 0.5593(5) 0.43230(16)
C49 C 0.8723(7) 0.4407(5) 0.56770(16)
C50 C 0.8723(7) 0.5593(5) 0.56770(16)
H17 H 0.8675 0.6032 0.4223
H18 H 0.8675 0.3968 0.4223
H19 H 0.8675 0.6032 0.5777
H20 H 0.8675 0.3968 0.5777
C54 C 0.9017(6) 0.4416(5) 0.45983(15)
C55 C 0.9017(6) 0.5584(5) 0.45983(15)
C56 C 0.9017(6) 0.4416(5) 0.54017(15)
C57 C 0.9017(6) 0.5584(5) 0.54017(15)
H24 H 0.9125 0.6023 0.4690
H25 H 0.9125 0.3977 0.4690
H26 H 0.9125 0.6023 0.5310
H27 H 0.9125 0.3977 0.5310
C59 C 0.9653(10) 0.5000 0.5000
C62 C 0.7661(3) 0.6340(4) 0.27683(12)
C63 C 0.7661(3) 0.3660(4) 0.27683(12)
C64 C 0.7661(3) 0.6340(4) 0.72317(12)
C65 C 0.7661(3) 0.3660(4) 0.72317(12)
O20 O 0.7910(3) 0.6887(2) 0.28874(7)
O21 O 0.7910(3) 0.3113(2) 0.28874(7)
O22 O 0.7910(3) 0.6887(2) 0.71126(7)
O23 O 0.7910(3) 0.3113(2) 0.71126(7)
O31 O 0.7090(3) 0.8113(2) 0.21126(7)
O32 O 0.8113(2) 0.7090(3) 0.21126(7)
O1_2 O 0.63099(17) 0.2627(2) 0.25106(8)
C1_2 C 0.5000 0.2013(5) 0.33478(14)
C2_2 C 0.5633(3) 0.2100(3) 0.32092(9)
H1_2 H 0.6066 0.2035 0.3312
C3_2 C 0.5657(3) 0.2282(3) 0.29185(10)
C4_2 C 0.5000 0.2395(4) 0.27841(15)
H2_2 H 0.5000 0.2557 0.2590
C5_2 C 0.5000 0.1699(7) 0.38975(17)
C6_2 C 0.5000 0.1826(6) 0.36412(16)
C7_2 C 0.5000 0.1487(9) 0.42008(19)
O2_2 O 0.6637(2) 0.3363(2) 0.19307(8)
C8_2 C 0.5000 0.0853(8) 0.47303(15)
C9_2 C 0.5593(5) 0.1277(7) 0.43230(16)
H3_2 H 0.6032 0.1325 0.4223
C10_2 C 0.5584(5) 0.0983(6) 0.45983(15)
H4_2 H 0.6023 0.0875 0.4690
C11_2 C 0.5000 0.0347(10) 0.5000
C12_2 C 0.6340(4) 0.2339(3) 0.27683(12)
O3_2 O 0.6887(2) 0.2090(3) 0.28874(7)
O5_2 O 0.63099(17) 0.2627(2) 0.74894(8)
C13_2 C 0.5000 0.2013(5) 0.66522(14)
C16_2 C 0.5633(3) 0.2100(3) 0.67908(9)
C17_2 C 0.4367(3) 0.2100(3) 0.67908(9)
C22_2 C 0.4367(3) 0.2100(3) 0.32092(9)
H5_2 H 0.6066 0.2035 0.6688
H6_2 H 0.3934 0.2035 0.6688
H11_2 H 0.3934 0.2035 0.3312
C23_2 C 0.5657(3) 0.2282(3) 0.70815(10)
C24_2 C 0.4343(3) 0.2282(3) 0.70815(10)
C29_2 C 0.4343(3) 0.2282(3) 0.29185(10)
C30_2 C 0.5000 0.2395(4) 0.72159(15)
H12_2 H 0.5000 0.2557 0.7410
C33_2 C 0.5000 0.1699(7) 0.61025(17)
C36_2 C 0.5000 0.1826(6) 0.63588(16)
C39_2 C 0.5000 0.1487(9) 0.57992(19)
O16_2 O 0.6637(2) 0.3363(2) 0.80693(8)
C42_2 C 0.5000 0.0853(8) 0.52697(15)
C45_2 C 0.5593(5) 0.1277(7) 0.56770(16)
C46_2 C 0.4407(5) 0.1277(7) 0.56770(16)
C51_2 C 0.4407(5) 0.1277(7) 0.43230(16)
H15_2 H 0.3968 0.1325 0.5777
H16_2 H 0.6032 0.1325 0.5777
H21_2 H 0.3968 0.1325 0.4223
C52_2 C 0.5584(5) 0.0983(6) 0.54017(15)
C53_2 C 0.4416(5) 0.0983(6) 0.54017(15)
C58_2 C 0.4416(5) 0.0983(6) 0.45983(15)
H22_2 H 0.3977 0.0875 0.5310
H23_2 H 0.6023 0.0875 0.5310
H28_2 H 0.3977 0.0875 0.4690
C60_2 C 0.3660(4) 0.2339(3) 0.72317(12)
C61_2 C 0.6340(4) 0.2339(3) 0.72317(12)
C66_2 C 0.3660(4) 0.2339(3) 0.27683(12)
O18_2 O 0.3113(2) 0.2090(3) 0.71126(7)
O19_2 O 0.6887(2) 0.2090(3) 0.71126(7)
O24_2 O 0.3113(2) 0.2090(3) 0.28874(7)
O25_2 O 0.8113(2) 0.2910(3) 0.21126(7)
O26_2 O 0.7090(3) 0.1887(2) 0.21126(7)
O29_2 O 0.8113(2) 0.2910(3) 0.78874(7)
O30_2 O 0.7090(3) 0.1887(2) 0.78874(7)
O6_2 O 0.36901(17) 0.7373(2) 0.25106(8)
O9_2 O 0.63099(17) 0.7373(2) 0.74894(8)
C14_2 C 0.5000 0.7987(5) 0.33478(14)
C15_2 C 0.5000 0.7987(5) 0.66522(14)
C18_2 C 0.5633(3) 0.7900(3) 0.32092(9)
C19_2 C 0.4367(3) 0.7900(3) 0.32092(9)
C20_2 C 0.5633(3) 0.7900(3) 0.67908(9)
C21_2 C 0.4367(3) 0.7900(3) 0.67908(9)
H7_2 H 0.6066 0.7965 0.3312
H8_2 H 0.3934 0.7965 0.3312
H9_2 H 0.6066 0.7965 0.6688
H10_2 H 0.3934 0.7965 0.6688
C25_2 C 0.5657(3) 0.7718(3) 0.29185(10)
C26_2 C 0.4343(3) 0.7718(3) 0.29185(10)
C27_2 C 0.5657(3) 0.7718(3) 0.70815(10)
C28_2 C 0.4343(3) 0.7718(3) 0.70815(10)
C31_2 C 0.5000 0.7605(4) 0.27841(15)
C32_2 C 0.5000 0.7605(4) 0.72159(15)
H13_2 H 0.5000 0.7443 0.2590
H14_2 H 0.5000 0.7443 0.7410
C34_2 C 0.5000 0.8301(7) 0.38975(17)
C35_2 C 0.5000 0.8301(7) 0.61025(17)
C37_2 C 0.5000 0.8174(6) 0.36412(16)
C38_2 C 0.5000 0.8174(6) 0.63588(16)
C40_2 C 0.5000 0.8513(9) 0.42008(19)
C41_2 C 0.5000 0.8513(9) 0.57992(19)
O17_2 O 0.3363(2) 0.6637(2) 0.19307(8)
C43_2 C 0.5000 0.9147(8) 0.47303(15)
C44_2 C 0.5000 0.9147(8) 0.52697(15)
C47_2 C 0.5593(5) 0.8723(7) 0.43230(16)
C48_2 C 0.4407(5) 0.8723(7) 0.43230(16)
C49_2 C 0.5593(5) 0.8723(7) 0.56770(16)
C50_2 C 0.4407(5) 0.8723(7) 0.56770(16)
H17_2 H 0.3968 0.8675 0.4223
H18_2 H 0.6032 0.8675 0.4223
H19_2 H 0.3968 0.8675 0.5777
H20_2 H 0.6032 0.8675 0.5777
C54_2 C 0.5584(5) 0.9017(6) 0.45983(15)
C55_2 C 0.4416(5) 0.9017(6) 0.45983(15)
C56_2 C 0.5584(5) 0.9017(6) 0.54017(15)
C57_2 C 0.4416(5) 0.9017(6) 0.54017(15)
H24_2 H 0.3977 0.9125 0.4690
H25_2 H 0.6023 0.9125 0.4690
H26_2 H 0.3977 0.9125 0.5310
H27_2 H 0.6023 0.9125 0.5310
C59_2 C 0.5000 0.9653(10) 0.5000
C62_2 C 0.3660(4) 0.7661(3) 0.27683(12)
C63_2 C 0.6340(4) 0.7661(3) 0.27683(12)
C64_2 C 0.3660(4) 0.7661(3) 0.72317(12)
C65_2 C 0.6340(4) 0.7661(3) 0.72317(12)
O20_2 O 0.3113(2) 0.7910(3) 0.28874(7)
O21_2 O 0.6887(2) 0.7910(3) 0.28874(7)
O22_2 O 0.3113(2) 0.7910(3) 0.71126(7)
O23_2 O 0.6887(2) 0.7910(3) 0.71126(7)
O31_2 O 0.1887(2) 0.7090(3) 0.21126(7)
O32_2 O 0.2910(3) 0.8113(2) 0.21126(7)
O15_2 O 0.6637(2) 0.6637(2) 0.80693(8)
O27_2 O 0.8113(2) 0.7090(3) 0.78874(7)
O28_2 O 0.7090(3) 0.8113(2) 0.78874(7)
C11_3 C 0.5347(10) 0.0000 0.0000
O4_2 O 0.7627(2) 0.13099(17) 0.24894(8)
O8_2 O 0.2373(2) 0.13099(17) 0.24894(8)
O12_2 O 0.86901(17) 0.2373(2) 0.24894(8)
C13_3 C 0.7013(5) 0.0000 0.16522(14)
C15_3 C 0.2987(5) 0.0000 0.16522(14)
C17_3 C 0.7100(3) 0.0633(3) 0.17908(9)
C21_3 C 0.2900(3) 0.0633(3) 0.17908(9)
H6_3 H 0.7035 0.1066 0.1688
H10_3 H 0.2965 0.1066 0.1688
C24_3 C 0.7282(3) 0.0657(3) 0.20815(10)
C28_3 C 0.2718(3) 0.0657(3) 0.20815(10)
C30_3 C 0.7395(4) 0.0000 0.22159(15)
C32_3 C 0.2605(4) 0.0000 0.22159(15)
H12_3 H 0.7557 -0.0000 0.2410
H14_3 H 0.2443 -0.0000 0.2410
C33_3 C 0.6699(7) 0.0000 0.11025(17)
C35_3 C 0.3301(7) 0.0000 0.11025(17)
C36_3 C 0.6826(6) -0.0000 0.13588(16)
C38_3 C 0.3174(6) -0.0000 0.13588(16)
C39_3 C 0.6487(9) 0.0000 0.07992(19)
C41_3 C 0.3513(9) 0.0000 0.07992(19)
O15_3 O 0.8363(2) 0.1637(2) 0.30693(8)
C42_3 C 0.5853(8) -0.0000 0.02697(15)
C44_3 C 0.4147(8) -0.0000 0.02697(15)
C46_3 C 0.6277(7) 0.0593(5) 0.06770(16)
C50_3 C 0.3723(7) 0.0593(5) 0.06770(16)
H15_3 H 0.6325 0.1032 0.0777
H19_3 H 0.3675 0.1032 0.0777
C53_3 C 0.5983(6) 0.0584(5) 0.04017(15)
C57_3 C 0.4017(6) 0.0584(5) 0.04017(15)
H22_3 H 0.5875 0.1023 0.0310
H26_3 H 0.4125 0.1023 0.0310
C59_3 C 0.4653(10) 0.0000 0.0000
C60_3 C 0.7339(3) 0.1340(4) 0.22317(12)
C64_3 C 0.2661(3) 0.1340(4) 0.22317(12)
C1_3 C 0.7013(5) 0.0000 0.83478(14)
C4_3 C 0.7395(4) -0.0000 0.77841(15)
H2_3 H 0.7557 -0.0000 0.7590
C5_3 C 0.6699(7) 0.0000 0.88975(17)
C6_3 C 0.6826(6) 0.0000 0.86412(16)
C7_3 C 0.6487(9) 0.0000 0.92008(19)
C8_3 C 0.5853(8) -0.0000 0.97303(15)
C11_4 C 0.5347(10) 0.0000 1.0000
O6_3 O 0.2373(2) 0.13099(17) 0.75106(8)
O10_2 O 0.7627(2) 0.13099(17) 0.75106(8)
O14_2 O 0.13099(17) 0.2373(2) 0.75106(8)
C14_3 C 0.2987(5) 0.0000 0.83478(14)
C19_3 C 0.2900(3) 0.0633(3) 0.82092(9)
C22_3 C 0.7100(3) 0.0633(3) 0.82092(9)
H8_3 H 0.2965 0.1066 0.8312
H11_3 H 0.7035 0.1066 0.8312
C26_3 C 0.2718(3) 0.0657(3) 0.79185(10)
C29_3 C 0.7282(3) 0.0657(3) 0.79185(10)
C31_3 C 0.2605(4) -0.0000 0.77841(15)
H13_3 H 0.2443 -0.0000 0.7590
C34_3 C 0.3301(7) 0.0000 0.88975(17)
C37_3 C 0.3174(6) 0.0000 0.86412(16)
C40_3 C 0.3513(9) 0.0000 0.92008(19)
O17_3 O 0.1637(2) 0.1637(2) 0.69307(8)
C43_3 C 0.4147(8) -0.0000 0.97303(15)
C48_3 C 0.3723(7) 0.0593(5) 0.93230(16)
C51_3 C 0.6277(7) 0.0593(5) 0.93230(16)
H17_3 H 0.3675 0.1032 0.9223
H21_3 H 0.6325 0.1032 0.9223
C55_3 C 0.4017(6) 0.0584(5) 0.95983(15)
C58_3 C 0.5983(6) 0.0584(5) 0.95983(15)
H24_3 H 0.4125 0.1023 0.9690
H28_3 H 0.5875 0.1023 0.9690
C59_4 C 0.4653(10) 0.0000 1.0000
C62_3 C 0.2661(3) 0.1340(4) 0.77683(12)
C66_3 C 0.7339(3) 0.1340(4) 0.77683(12)
C11_5 C 0.5347(10) 1.0000 0.0000
O5_3 O 0.7627(2) 0.86901(17) 0.24894(8)
O9_3 O 0.2373(2) 0.86901(17) 0.24894(8)
O13_2 O 0.86901(17) 0.7627(2) 0.24894(8)
C13_4 C 0.7013(5) 1.0000 0.16522(14)
C15_4 C 0.2987(5) 1.0000 0.16522(14)
C16_3 C 0.7100(3) 0.9367(3) 0.17908(9)
C20_3 C 0.2900(3) 0.9367(3) 0.17908(9)
H5_3 H 0.7035 0.8934 0.1688
H9_3 H 0.2965 0.8934 0.1688
C23_3 C 0.7282(3) 0.9343(3) 0.20815(10)
C27_3 C 0.2718(3) 0.9343(3) 0.20815(10)
C30_4 C 0.7395(4) 1.0000 0.22159(15)
C32_4 C 0.2605(4) 1.0000 0.22159(15)
H12_4 H 0.7557 1.0000 0.2410
H14_4 H 0.2443 1.0000 0.2410
C33_4 C 0.6699(7) 1.0000 0.11025(17)
C35_4 C 0.3301(7) 1.0000 0.11025(17)
C36_4 C 0.6826(6) 1.0000 0.13588(16)
C38_4 C 0.3174(6) 1.0000 0.13588(16)
C39_4 C 0.6487(9) 1.0000 0.07992(19)
C41_4 C 0.3513(9) 1.0000 0.07992(19)
O16_3 O 0.8363(2) 0.8363(2) 0.30693(8)
C42_4 C 0.5853(8) 1.0000 0.02697(15)
C44_4 C 0.4147(8) 1.0000 0.02697(15)
C45_3 C 0.6277(7) 0.9407(5) 0.06770(16)
C49_3 C 0.3723(7) 0.9407(5) 0.06770(16)
H16_3 H 0.6325 0.8968 0.0777
H20_3 H 0.3675 0.8968 0.0777
C52_3 C 0.5983(6) 0.9416(5) 0.04017(15)
C56_3 C 0.4017(6) 0.9416(5) 0.04017(15)
H23_3 H 0.5875 0.8977 0.0310
H27_3 H 0.4125 0.8977 0.0310
C59_5 C 0.4653(10) 1.0000 0.0000
C61_3 C 0.7339(3) 0.8660(4) 0.22317(12)
C65_3 C 0.2661(3) 0.8660(4) 0.22317(12)
O1_3 O 0.7627(2) 0.86901(17) 0.75106(8)
C1_4 C 0.7013(5) 1.0000 0.83478(14)
C2_3 C 0.7100(3) 0.9367(3) 0.82092(9)
H1_3 H 0.7035 0.8934 0.8312
C3_3 C 0.7282(3) 0.9343(3) 0.79185(10)
C4_4 C 0.7395(4) 1.0000 0.77841(15)
H2_4 H 0.7557 1.0000 0.7590
C5_4 C 0.6699(7) 1.0000 0.88975(17)
C6_4 C 0.6826(6) 1.0000 0.86412(16)
C7_4 C 0.6487(9) 1.0000 0.92008(19)
O2_3 O 0.8363(2) 0.8363(2) 0.69307(8)
C8_4 C 0.5853(8) 1.0000 0.97303(15)
C9_3 C 0.6277(7) 0.9407(5) 0.93230(16)
H3_3 H 0.6325 0.8968 0.9223
C10_3 C 0.5983(6) 0.9416(5) 0.95983(15)
H4_3 H 0.5875 0.8977 0.9690
C11_6 C 0.5347(10) 1.0000 1.0000
C12_3 C 0.7339(3) 0.8660(4) 0.77683(12)
O7_2 O 0.2373(2) 0.86901(17) 0.75106(8)
O11_2 O 0.86901(17) 0.7627(2) 0.75106(8)
C14_4 C 0.2987(5) 1.0000 0.83478(14)
C18_3 C 0.2900(3) 0.9367(3) 0.82092(9)
H7_3 H 0.2965 0.8934 0.8312
C25_3 C 0.2718(3) 0.9343(3) 0.79185(10)
C31_4 C 0.2605(4) 1.0000 0.77841(15)
H13_4 H 0.2443 1.0000 0.7590
C34_4 C 0.3301(7) 1.0000 0.88975(17)
C37_4 C 0.3174(6) 1.0000 0.86412(16)
C40_4 C 0.3513(9) 1.0000 0.92008(19)
C43_4 C 0.4147(8) 1.0000 0.97303(15)
C47_3 C 0.3723(7) 0.9407(5) 0.93230(16)
H18_3 H 0.3675 0.8968 0.9223
C54_3 C 0.4017(6) 0.9416(5) 0.95983(15)
H25_3 H 0.4125 0.8977 0.9690
C59_6 C 0.4653(10) 1.0000 1.0000
C63_3 C 0.2661(3) 0.8660(4) 0.77683(12)
C11_7 C -0.0000 0.5347(10) 0.0000
O5_4 O 0.13099(17) 0.7627(2) 0.24894(8)
O9_4 O 0.13099(17) 0.2373(2) 0.24894(8)
C13_5 C -0.0000 0.7013(5) 0.16522(14)
C15_5 C -0.0000 0.2987(5) 0.16522(14)
C16_4 C 0.0633(3) 0.7100(3) 0.17908(9)
C20_4 C 0.0633(3) 0.2900(3) 0.17908(9)
H5_4 H 0.1066 0.7035 0.1688
H9_4 H 0.1066 0.2965 0.1688
C23_4 C 0.0657(3) 0.7282(3) 0.20815(10)
C27_4 C 0.0657(3) 0.2718(3) 0.20815(10)
C30_5 C 0.0000 0.7395(4) 0.22159(15)
C32_5 C -0.0000 0.2605(4) 0.22159(15)
H12_5 H -0.0000 0.7557 0.2410
H14_5 H -0.0000 0.2443 0.2410
C33_5 C -0.0000 0.6699(7) 0.11025(17)
C35_5 C 0.0000 0.3301(7) 0.11025(17)
C36_5 C -0.0000 0.6826(6) 0.13588(16)
C38_5 C -0.0000 0.3174(6) 0.13588(16)
C39_5 C 0.0000 0.6487(9) 0.07992(19)
C41_5 C 0.0000 0.3513(9) 0.07992(19)
O16_4 O 0.1637(2) 0.8363(2) 0.30693(8)
C42_5 C -0.0000 0.5853(8) 0.02697(15)
C44_5 C 0.0000 0.4147(8) 0.02697(15)
C45_4 C 0.0593(5) 0.6277(7) 0.06770(16)
C49_4 C 0.0593(5) 0.3723(7) 0.06770(16)
H16_4 H 0.1032 0.6325 0.0777
H20_4 H 0.1032 0.3675 0.0777
C52_4 C 0.0584(5) 0.5983(6) 0.04017(15)
C56_4 C 0.0584(5) 0.4017(6) 0.04017(15)
H23_4 H 0.1023 0.5875 0.0310
H27_4 H 0.1023 0.4125 0.0310
C59_7 C -0.0000 0.4653(10) 0.0000
C61_4 C 0.1340(4) 0.7339(3) 0.22317(12)
C65_4 C 0.1340(4) 0.2661(3) 0.22317(12)
O1_4 O 0.13099(17) 0.7627(2) 0.75106(8)
C1_5 C -0.0000 0.7013(5) 0.83478(14)
C2_4 C 0.0633(3) 0.7100(3) 0.82092(9)
H1_4 H 0.1066 0.7035 0.8312
C3_4 C 0.0657(3) 0.7282(3) 0.79185(10)
C4_5 C 0.0000 0.7395(4) 0.77841(15)
H2_5 H 0.0000 0.7557 0.7590
C5_5 C 0.0000 0.6699(7) 0.88975(17)
C6_5 C -0.0000 0.6826(6) 0.86412(16)
C7_5 C 0.0000 0.6487(9) 0.92008(19)
O2_4 O 0.1637(2) 0.8363(2) 0.69307(8)
C8_5 C -0.0000 0.5853(8) 0.97303(15)
C9_4 C 0.0593(5) 0.6277(7) 0.93230(16)
H3_4 H 0.1032 0.6325 0.9223
C10_4 C 0.0584(5) 0.5983(6) 0.95983(15)
H4_4 H 0.1023 0.5875 0.9690
C11_8 C -0.0000 0.5347(10) 1.0000
C12_4 C 0.1340(4) 0.7339(3) 0.77683(12)
C14_5 C -0.0000 0.2987(5) 0.83478(14)
C18_4 C 0.0633(3) 0.2900(3) 0.82092(9)
H7_4 H 0.1066 0.2965 0.8312
C25_4 C 0.0657(3) 0.2718(3) 0.79185(10)
C31_5 C 0.0000 0.2605(4) 0.77841(15)
H13_5 H 0.0000 0.2443 0.7590
C34_5 C 0.0000 0.3301(7) 0.88975(17)
C37_5 C -0.0000 0.3174(6) 0.86412(16)
C40_5 C 0.0000 0.3513(9) 0.92008(19)
C43_5 C -0.0000 0.4147(8) 0.97303(15)
C47_4 C 0.0593(5) 0.3723(7) 0.93230(16)
H18_4 H 0.1032 0.3675 0.9223
C54_4 C 0.0584(5) 0.4017(6) 0.95983(15)
H25_4 H 0.1023 0.4125 0.9690
C59_8 C 0.0000 0.4653(10) 1.0000
C63_4 C 0.1340(4) 0.2661(3) 0.77683(12)
C11_9 C 1.0000 0.5347(10) 0.0000
C13_6 C 1.0000 0.7013(5) 0.16522(14)
C15_6 C 1.0000 0.2987(5) 0.16522(14)
C17_4 C 0.9367(3) 0.7100(3) 0.17908(9)
C21_4 C 0.9367(3) 0.2900(3) 0.17908(9)
H6_4 H 0.8934 0.7035 0.1688
H10_4 H 0.8934 0.2965 0.1688
C24_4 C 0.9343(3) 0.7282(3) 0.20815(10)
C28_4 C 0.9343(3) 0.2718(3) 0.20815(10)
C30_6 C 1.0000 0.7395(4) 0.22159(15)
C32_6 C 1.0000 0.2605(4) 0.22159(15)
H12_6 H 1.0000 0.7557 0.2410
H14_6 H 1.0000 0.2443 0.2410
C33_6 C 1.0000 0.6699(7) 0.11025(17)
C35_6 C 1.0000 0.3301(7) 0.11025(17)
C36_6 C 1.0000 0.6826(6) 0.13588(16)
C38_6 C 1.0000 0.3174(6) 0.13588(16)
C39_6 C 1.0000 0.6487(9) 0.07992(19)
C41_6 C 1.0000 0.3513(9) 0.07992(19)
C42_6 C 1.0000 0.5853(8) 0.02697(15)
C44_6 C 1.0000 0.4147(8) 0.02697(15)
C46_4 C 0.9407(5) 0.6277(7) 0.06770(16)
C50_4 C 0.9407(5) 0.3723(7) 0.06770(16)
H15_4 H 0.8968 0.6325 0.0777
H19_4 H 0.8968 0.3675 0.0777
C53_4 C 0.9416(5) 0.5983(6) 0.04017(15)
C57_4 C 0.9416(5) 0.4017(6) 0.04017(15)
H22_4 H 0.8977 0.5875 0.0310
H26_4 H 0.8977 0.4125 0.0310
C59_9 C 1.0000 0.4653(10) 0.0000
C60_4 C 0.8660(4) 0.7339(3) 0.22317(12)
C64_4 C 0.8660(4) 0.2661(3) 0.22317(12)
C1_6 C 1.0000 0.7013(5) 0.83478(14)
C4_6 C 1.0000 0.7395(4) 0.77841(15)
H2_6 H 1.0000 0.7557 0.7590
C5_6 C 1.0000 0.6699(7) 0.88975(17)
C6_6 C 1.0000 0.6826(6) 0.86412(16)
C7_6 C 1.0000 0.6487(9) 0.92008(19)
C8_6 C 1.0000 0.5853(8) 0.97303(15)
C11_10 C 1.0000 0.5347(10) 1.0000
O6_4 O 0.86901(17) 0.2373(2) 0.75106(8)
C14_6 C 1.0000 0.2987(5) 0.83478(14)
C19_4 C 0.9367(3) 0.2900(3) 0.82092(9)
C22_4 C 0.9367(3) 0.7100(3) 0.82092(9)
H8_4 H 0.8934 0.2965 0.8312
H11_4 H 0.8934 0.7035 0.8312
C26_4 C 0.9343(3) 0.2718(3) 0.79185(10)
C29_4 C 0.9343(3) 0.7282(3) 0.79185(10)
C31_6 C 1.0000 0.2605(4) 0.77841(15)
H13_6 H 1.0000 0.2443 0.7590
C34_6 C 1.0000 0.3301(7) 0.88975(17)
C37_6 C 1.0000 0.3174(6) 0.86412(16)
C40_6 C 1.0000 0.3513(9) 0.92008(19)
O17_4 O 0.8363(2) 0.1637(2) 0.69307(8)
C43_6 C 1.0000 0.4147(8) 0.97303(15)
C48_4 C 0.9407(5) 0.3723(7) 0.93230(16)
C51_4 C 0.9407(5) 0.6277(7) 0.93230(16)
H17_4 H 0.8968 0.3675 0.9223
H21_4 H 0.8968 0.6325 0.9223
C55_4 C 0.9416(5) 0.4017(6) 0.95983(15)
C58_4 C 0.9416(5) 0.5983(6) 0.95983(15)
H24_4 H 0.8977 0.4125 0.9690
H28_4 H 0.8977 0.5875 0.9690
C59_10 C 1.0000 0.4653(10) 1.0000
C62_4 C 0.8660(4) 0.2661(3) 0.77683(12)
C66_4 C 0.8660(4) 0.7339(3) 0.77683(12)
O15_4 O 0.1637(2) 0.1637(2) 0.30693(8)
loop_
_geom_bond_atom_site_label_1
_geom_bond_atom_site_label_2
_geom_bond_site_symmetry_1
_geom_bond_site_symmetry_2
Zn1 O1 1_555 1_555
O1 C12 1_555 1_555
C1 C2 1_555 1_555
C2 H1 1_555 1_555
C3 C2 1_555 1_555
C4 C3 1_555 1_555
H2 C4 1_555 1_555
C5 C6 1_555 1_555
C6 C1 1_555 1_555
C7 C5 1_555 1_555
O2 Zn1 1_555 1_555
C8 C10 1_555 1_555
C9 C7 1_555 1_555
H3 C9 1_555 1_555
C10 C9 1_555 1_555
H4 C10 1_555 1_555
C11 C8 1_555 1_555
C12 C3 1_555 1_555
O3 C12 1_555 1_555
Zn2 O4 1_555 1_555
Zn3 O5 1_555 1_555
Zn5 O3 1_555 1_555
Zn6 O18 1_555 1_555
Zn7 O19 1_555 1_555
Zn15 O10 1_555 1_555
Zn16 O24 1_555 1_555
O4 C60 1_555 1_555
O5 C61 1_555 1_555
O10 C66 1_555 1_555
O11 Zn1 1_555 1_555
O12 Zn2 1_555 1_555
O13 Zn3 1_555 1_555
C13 C16 1_555 1_555
C16 H5 1_555 1_555
C17 C13 1_555 1_555
C22 C1 1_555 1_555
H6 C17 1_555 1_555
H11 C22 1_555 1_555
C23 C16 1_555 1_555
C24 C17 1_555 1_555
C29 C4 1_555 1_555
C30 C23 1_555 1_555
H12 C30 1_555 1_555
C33 C36 1_555 1_555
C36 C13 1_555 1_555
C39 C33 1_555 1_555
O15 Zn2 1_555 1_555
O16 Zn3 1_555 1_555
C42 C11 1_555 1_555
C45 C39 1_555 1_555
C46 C39 1_555 1_555
C51 C7 1_555 1_555
H15 C46 1_555 1_555
H16 C45 1_555 1_555
H21 C51 1_555 1_555
C52 C42 1_555 1_555
C53 C42 1_555 1_555
C58 C8 1_555 1_555
H22 C53 1_555 1_555
H23 C52 1_555 1_555
H28 C58 1_555 1_555
C60 C24 1_555 1_555
C61 C23 1_555 1_555
C66 C29 1_555 1_555
O18 C60 1_555 1_555
O19 C61 1_555 1_555
O24 C66 1_555 1_555
O25 Zn1 1_555 1_555
O26 Zn1 1_555 1_555
O27 Zn2 1_555 1_555
O28 Zn2 1_555 1_555
O29 Zn3 1_555 1_555
O30 Zn3 1_555 1_555
C22 C29 1_555 1_555
C24 C30 1_555 1_555
C45 C52 1_555 1_555
C46 C53 1_555 1_555
C51 C58 1_555 1_555
Zn4 O6 1_555 1_555
Zn8 O20 1_555 1_555
Zn9 O7 1_555 1_555
Zn10 O21 1_555 1_555
Zn11 O8 1_555 1_555
Zn12 O22 1_555 1_555
Zn13 O9 1_555 1_555
Zn14 O23 1_555 1_555
O6 C62 1_555 1_555
O7 C63 1_555 1_555
O8 C64 1_555 1_555
O9 C65 1_555 1_555
O14 Zn4 1_555 1_555
C14 C18 1_555 1_555
C15 C20 1_555 1_555
C18 H7 1_555 1_555
C19 C14 1_555 1_555
C20 H9 1_555 1_555
C21 C15 1_555 1_555
H8 C19 1_555 1_555
H10 C21 1_555 1_555
C25 C18 1_555 1_555
C26 C19 1_555 1_555
C27 C20 1_555 1_555
C28 C21 1_555 1_555
C31 C25 1_555 1_555
C32 C27 1_555 1_555
H13 C31 1_555 1_555
H14 C32 1_555 1_555
C34 C37 1_555 1_555
C35 C38 1_555 1_555
C37 C14 1_555 1_555
C38 C15 1_555 1_555
C40 C34 1_555 1_555
C41 C35 1_555 1_555
O17 Zn4 1_555 1_555
C43 C54 1_555 1_555
C44 C56 1_555 1_555
C47 C40 1_555 1_555
C48 C40 1_555 1_555
C49 C41 1_555 1_555
C50 C41 1_555 1_555
H17 C48 1_555 1_555
H18 C47 1_555 1_555
H19 C50 1_555 1_555
H20 C49 1_555 1_555
C54 C47 1_555 1_555
C55 C43 1_555 1_555
C56 C49 1_555 1_555
C57 C44 1_555 1_555
H24 C55 1_555 1_555
H25 C54 1_555 1_555
H26 C57 1_555 1_555
H27 C56 1_555 1_555
C62 C26 1_555 1_555
C63 C25 1_555 1_555
C64 C28 1_555 1_555
C65 C27 1_555 1_555
O20 C62 1_555 1_555
O21 C63 1_555 1_555
O22 C64 1_555 1_555
O23 C65 1_555 1_555
O31 Zn4 1_555 1_555
O32 Zn4 1_555 1_555
C26 C31 1_555 1_555
C28 C32 1_555 1_555
C43 C59 1_555 1_555
C44 C59 1_555 1_555
C48 C55 1_555 1_555
C50 C57 1_555 1_555
Zn9 O1_2 1_555 1_555
O1_2 C12_2 1_555 1_555
C1_2 C2_2 1_555 1_555
C2_2 H1_2 1_555 1_555
C3_2 C2_2 1_555 1_555
C4_2 C3_2 1_555 1_555
H2_2 C4_2 1_555 1_555
C5_2 C6_2 1_555 1_555
C6_2 C1_2 1_555 1_555
C7_2 C5_2 1_555 1_555
O2_2 Zn9 1_555 1_555
C8_2 C10_2 1_555 1_555
C9_2 C7_2 1_555 1_555
H3_2 C9_2 1_555 1_555
C10_2 C9_2 1_555 1_555
H4_2 C10_2 1_555 1_555
C11_2 C8_2 1_555 1_555
C12_2 C3_2 1_555 1_555
O3_2 C12_2 1_555 1_555
Zn13 O5_2 1_555 1_555
Zn10 O3_2 1_555 1_555
Zn7 O18_2 1_555 1_555
Zn14 O19_2 1_555 1_555
Zn5 O24_2 1_555 1_555
O13 C60_2 1_555 1_555
O5_2 C61_2 1_555 1_555
O11 C66_2 1_555 1_555
C13_2 C16_2 1_555 1_555
C16_2 H5_2 1_555 1_555
C17_2 C13_2 1_555 1_555
C22_2 C1_2 1_555 1_555
H6_2 C17_2 1_555 1_555
H11_2 C22_2 1_555 1_555
C23_2 C16_2 1_555 1_555
C24_2 C17_2 1_555 1_555
C29_2 C4_2 1_555 1_555
C30_2 C23_2 1_555 1_555
H12_2 C30_2 1_555 1_555
C33_2 C36_2 1_555 1_555
C36_2 C13_2 1_555 1_555
C39_2 C33_2 1_555 1_555
O16_2 Zn13 1_555 1_555
C42_2 C11_2 1_555 1_555
C45_2 C39_2 1_555 1_555
C46_2 C39_2 1_555 1_555
C51_2 C7_2 1_555 1_555
H15_2 C46_2 1_555 1_555
H16_2 C45_2 1_555 1_555
H21_2 C51_2 1_555 1_555
C52_2 C42_2 1_555 1_555
C53_2 C42_2 1_555 1_555
C58_2 C8_2 1_555 1_555
H22_2 C53_2 1_555 1_555
H23_2 C52_2 1_555 1_555
H28_2 C58_2 1_555 1_555
C60_2 C24_2 1_555 1_555
C61_2 C23_2 1_555 1_555
C66_2 C29_2 1_555 1_555
O18_2 C60_2 1_555 1_555
O19_2 C61_2 1_555 1_555
O24_2 C66_2 1_555 1_555
O25_2 Zn9 1_555 1_555
O26_2 Zn9 1_555 1_555
O29_2 Zn13 1_555 1_555
O30_2 Zn13 1_555 1_555
C22_2 C29_2 1_555 1_555
C24_2 C30_2 1_555 1_555
C45_2 C52_2 1_555 1_555
C46_2 C53_2 1_555 1_555
C51_2 C58_2 1_555 1_555
Zn15 O6_2 1_555 1_555
Zn16 O20_2 1_555 1_555
Zn8 O21_2 1_555 1_555
Zn6 O22_2 1_555 1_555
Zn11 O9_2 1_555 1_555
Zn12 O23_2 1_555 1_555
O6_2 C62_2 1_555 1_555
O14 C63_2 1_555 1_555
O12 C64_2 1_555 1_555
O9_2 C65_2 1_555 1_555
C14_2 C18_2 1_555 1_555
C15_2 C20_2 1_555 1_555
C18_2 H7_2 1_555 1_555
C19_2 C14_2 1_555 1_555
C20_2 H9_2 1_555 1_555
C21_2 C15_2 1_555 1_555
H8_2 C19_2 1_555 1_555
H10_2 C21_2 1_555 1_555
C25_2 C18_2 1_555 1_555
C26_2 C19_2 1_555 1_555
C27_2 C20_2 1_555 1_555
C28_2 C21_2 1_555 1_555
C31_2 C25_2 1_555 1_555
C32_2 C27_2 1_555 1_555
H13_2 C31_2 1_555 1_555
H14_2 C32_2 1_555 1_555
C34_2 C37_2 1_555 1_555
C35_2 C38_2 1_555 1_555
C37_2 C14_2 1_555 1_555
C38_2 C15_2 1_555 1_555
C40_2 C34_2 1_555 1_555
C41_2 C35_2 1_555 1_555
O17_2 Zn15 1_555 1_555
C43_2 C54_2 1_555 1_555
C44_2 C56_2 1_555 1_555
C47_2 C40_2 1_555 1_555
C48_2 C40_2 1_555 1_555
C49_2 C41_2 1_555 1_555
C50_2 C41_2 1_555 1_555
H17_2 C48_2 1_555 1_555
H18_2 C47_2 1_555 1_555
H19_2 C50_2 1_555 1_555
H20_2 C49_2 1_555 1_555
C54_2 C47_2 1_555 1_555
C55_2 C43_2 1_555 1_555
C56_2 C49_2 1_555 1_555
C57_2 C44_2 1_555 1_555
H24_2 C55_2 1_555 1_555
H25_2 C54_2 1_555 1_555
H26_2 C57_2 1_555 1_555
H27_2 C56_2 1_555 1_555
C62_2 C26_2 1_555 1_555
C63_2 C25_2 1_555 1_555
C64_2 C28_2 1_555 1_555
C65_2 C27_2 1_555 1_555
O20_2 C62_2 1_555 1_555
O21_2 C63_2 1_555 1_555
O22_2 C64_2 1_555 1_555
O23_2 C65_2 1_555 1_555
O31_2 Zn15 1_555 1_555
O32_2 Zn15 1_555 1_555
C26_2 C31_2 1_555 1_555
C28_2 C32_2 1_555 1_555
C43_2 C59_2 1_555 1_555
C44_2 C59_2 1_555 1_555
C48_2 C55_2 1_555 1_555
C50_2 C57_2 1_555 1_555
O15_2 Zn11 1_555 1_555
O27_2 Zn11 1_555 1_555
O28_2 Zn11 1_555 1_555
Zn10 O4_2 1_555 1_555
Zn5 O8_2 1_555 1_555
O4_2 C60_3 1_555 1_555
O8_2 C64_3 1_555 1_555
O12_2 Zn10 1_555 1_555
C17_3 C13_3 1_555 1_555
C21_3 C15_3 1_555 1_555
H6_3 C17_3 1_555 1_555
H10_3 C21_3 1_555 1_555
C24_3 C17_3 1_555 1_555
C28_3 C21_3 1_555 1_555
H12_3 C30_3 1_555 1_555
H14_3 C32_3 1_555 1_555
C33_3 C36_3 1_555 1_555
C35_3 C38_3 1_555 1_555
C36_3 C13_3 1_555 1_555
C38_3 C15_3 1_555 1_555
C39_3 C33_3 1_555 1_555
C41_3 C35_3 1_555 1_555
O15_3 Zn10 1_555 1_555
C42_3 C11_3 1_555 1_555
C46_3 C39_3 1_555 1_555
C50_3 C41_3 1_555 1_555
H15_3 C46_3 1_555 1_555
H19_3 C50_3 1_555 1_555
C53_3 C42_3 1_555 1_555
C57_3 C44_3 1_555 1_555
H22_3 C53_3 1_555 1_555
H26_3 C57_3 1_555 1_555
C59_3 C11_3 1_555 1_555
C60_3 C24_3 1_555 1_555
C64_3 C28_3 1_555 1_555
O26_2 C60_3 1_555 1_555
O25 C64_3 1_555 1_555
C24_3 C30_3 1_555 1_555
C28_3 C32_3 1_555 1_555
C44_3 C59_3 1_555 1_555
C46_3 C53_3 1_555 1_555
C50_3 C57_3 1_555 1_555
H2_3 C4_3 1_555 1_555
C5_3 C6_3 1_555 1_555
C6_3 C1_3 1_555 1_555
C7_3 C5_3 1_555 1_555
C11_4 C8_3 1_555 1_555
Zn7 O6_3 1_555 1_555
Zn14 O10_2 1_555 1_555
O6_3 C62_3 1_555 1_555
O10_2 C66_3 1_555 1_555
O14_2 Zn7 1_555 1_555
C19_3 C14_3 1_555 1_555
C22_3 C1_3 1_555 1_555
H8_3 C19_3 1_555 1_555
H11_3 C22_3 1_555 1_555
C26_3 C19_3 1_555 1_555
C29_3 C4_3 1_555 1_555
H13_3 C31_3 1_555 1_555
C34_3 C37_3 1_555 1_555
C37_3 C14_3 1_555 1_555
C40_3 C34_3 1_555 1_555
O17_3 Zn7 1_555 1_555
C48_3 C40_3 1_555 1_555
C51_3 C7_3 1_555 1_555
H17_3 C48_3 1_555 1_555
H21_3 C51_3 1_555 1_555
C55_3 C43_3 1_555 1_555
C58_3 C8_3 1_555 1_555
H24_3 C55_3 1_555 1_555
H28_3 C58_3 1_555 1_555
C59_4 C11_4 1_555 1_555
C62_3 C26_3 1_555 1_555
C66_3 C29_3 1_555 1_555
O29 C62_3 1_555 1_555
O30_2 C66_3 1_555 1_555
C22_3 C29_3 1_555 1_555
C26_3 C31_3 1_555 1_555
C43_3 C59_4 1_555 1_555
C48_3 C55_3 1_555 1_555
C51_3 C58_3 1_555 1_555
Zn8 O5_3 1_555 1_555
Zn16 O9_3 1_555 1_555
O5_3 C61_3 1_555 1_555
O9_3 C65_3 1_555 1_555
O13_2 Zn8 1_555 1_555
C13_4 C16_3 1_555 1_555
C15_4 C20_3 1_555 1_555
C16_3 H5_3 1_555 1_555
C20_3 H9_3 1_555 1_555
C23_3 C16_3 1_555 1_555
C27_3 C20_3 1_555 1_555
C30_4 C23_3 1_555 1_555
C32_4 C27_3 1_555 1_555
H12_4 C30_4 1_555 1_555
H14_4 C32_4 1_555 1_555
C33_4 C36_4 1_555 1_555
C35_4 C38_4 1_555 1_555
C36_4 C13_4 1_555 1_555
C38_4 C15_4 1_555 1_555
C39_4 C33_4 1_555 1_555
C41_4 C35_4 1_555 1_555
O16_3 Zn8 1_555 1_555
C42_4 C11_5 1_555 1_555
C44_4 C56_3 1_555 1_555
C45_3 C39_4 1_555 1_555
C49_3 C41_4 1_555 1_555
H16_3 C45_3 1_555 1_555
H20_3 C49_3 1_555 1_555
C52_3 C42_4 1_555 1_555
C56_3 C49_3 1_555 1_555
H23_3 C52_3 1_555 1_555
H27_3 C56_3 1_555 1_555
C59_5 C11_5 1_555 1_555
C61_3 C23_3 1_555 1_555
C65_3 C27_3 1_555 1_555
O31 C61_3 1_555 1_555
O32_2 C65_3 1_555 1_555
C44_4 C59_5 1_555 1_555
C45_3 C52_3 1_555 1_555
Zn12 O1_3 1_555 1_555
O1_3 C12_3 1_555 1_555
C1_4 C2_3 1_555 1_555
C2_3 H1_3 1_555 1_555
C3_3 C2_3 1_555 1_555
C4_4 C3_3 1_555 1_555
H2_4 C4_4 1_555 1_555
C5_4 C6_4 1_555 1_555
C6_4 C1_4 1_555 1_555
C7_4 C5_4 1_555 1_555
O2_3 Zn12 1_555 1_555
C8_4 C10_3 1_555 1_555
C9_3 C7_4 1_555 1_555
H3_3 C9_3 1_555 1_555
C10_3 C9_3 1_555 1_555
H4_3 C10_3 1_555 1_555
C11_6 C8_4 1_555 1_555
C12_3 C3_3 1_555 1_555
O28_2 C12_3 1_555 1_555
Zn6 O7_2 1_555 1_555
O7_2 C63_3 1_555 1_555
O11_2 Zn12 1_555 1_555
C14_4 C18_3 1_555 1_555
C18_3 H7_3 1_555 1_555
C25_3 C18_3 1_555 1_555
C31_4 C25_3 1_555 1_555
H13_4 C31_4 1_555 1_555
C34_4 C37_4 1_555 1_555
C37_4 C14_4 1_555 1_555
C40_4 C34_4 1_555 1_555
C43_4 C54_3 1_555 1_555
C47_3 C40_4 1_555 1_555
H18_3 C47_3 1_555 1_555
C54_3 C47_3 1_555 1_555
H25_3 C54_3 1_555 1_555
C59_6 C11_6 1_555 1_555
C63_3 C25_3 1_555 1_555
O27 C63_3 1_555 1_555
C43_4 C59_6 1_555 1_555
Zn16 O5_4 1_555 1_555
Zn5 O9_4 1_555 1_555
O5_4 C61_4 1_555 1_555
O9_4 C65_4 1_555 1_555
C13_5 C16_4 1_555 1_555
C15_5 C20_4 1_555 1_555
C16_4 H5_4 1_555 1_555
C20_4 H9_4 1_555 1_555
C23_4 C16_4 1_555 1_555
C27_4 C20_4 1_555 1_555
C30_5 C23_4 1_555 1_555
C32_5 C27_4 1_555 1_555
H12_5 C30_5 1_555 1_555
H14_5 C32_5 1_555 1_555
C33_5 C36_5 1_555 1_555
C35_5 C38_5 1_555 1_555
C36_5 C13_5 1_555 1_555
C38_5 C15_5 1_555 1_555
C39_5 C33_5 1_555 1_555
C41_5 C35_5 1_555 1_555
O16_4 Zn16 1_555 1_555
C42_5 C11_7 1_555 1_555
C44_5 C56_4 1_555 1_555
C45_4 C39_5 1_555 1_555
C49_4 C41_5 1_555 1_555
H16_4 C45_4 1_555 1_555
H20_4 C49_4 1_555 1_555
C52_4 C42_5 1_555 1_555
C56_4 C49_4 1_555 1_555
H23_4 C52_4 1_555 1_555
H27_4 C56_4 1_555 1_555
C59_7 C11_7 1_555 1_555
C61_4 C23_4 1_555 1_555
C65_4 C27_4 1_555 1_555
O31_2 C61_4 1_555 1_555
O26 C65_4 1_555 1_555
C44_5 C59_7 1_555 1_555
C45_4 C52_4 1_555 1_555
Zn6 O1_4 1_555 1_555
O1_4 C12_4 1_555 1_555
C1_5 C2_4 1_555 1_555
C2_4 H1_4 1_555 1_555
C3_4 C2_4 1_555 1_555
C4_5 C3_4 1_555 1_555
H2_5 C4_5 1_555 1_555
C5_5 C6_5 1_555 1_555
C6_5 C1_5 1_555 1_555
C7_5 C5_5 1_555 1_555
O2_4 Zn6 1_555 1_555
C8_5 C10_4 1_555 1_555
C9_4 C7_5 1_555 1_555
H3_4 C9_4 1_555 1_555
C10_4 C9_4 1_555 1_555
H4_4 C10_4 1_555 1_555
C11_8 C8_5 1_555 1_555
C12_4 C3_4 1_555 1_555
O28 C12_4 1_555 1_555
O14_2 C63_4 1_555 1_555
C14_5 C18_4 1_555 1_555
C18_4 H7_4 1_555 1_555
C25_4 C18_4 1_555 1_555
C31_5 C25_4 1_555 1_555
H13_5 C31_5 1_555 1_555
C34_5 C37_5 1_555 1_555
C37_5 C14_5 1_555 1_555
C40_5 C34_5 1_555 1_555
C43_5 C54_4 1_555 1_555
C47_4 C40_5 1_555 1_555
H18_4 C47_4 1_555 1_555
C54_4 C47_4 1_555 1_555
H25_4 C54_4 1_555 1_555
C59_8 C11_8 1_555 1_555
C63_4 C25_4 1_555 1_555
O30 C63_4 1_555 1_555
C43_5 C59_8 1_555 1_555
O13_2 C60_4 1_555 1_555
O12_2 C64_4 1_555 1_555
C17_4 C13_6 1_555 1_555
C21_4 C15_6 1_555 1_555
H6_4 C17_4 1_555 1_555
H10_4 C21_4 1_555 1_555
C24_4 C17_4 1_555 1_555
C28_4 C21_4 1_555 1_555
H12_6 C30_6 1_555 1_555
H14_6 C32_6 1_555 1_555
C33_6 C36_6 1_555 1_555
C35_6 C38_6 1_555 1_555
C36_6 C13_6 1_555 1_555
C38_6 C15_6 1_555 1_555
C39_6 C33_6 1_555 1_555
C41_6 C35_6 1_555 1_555
C42_6 C11_9 1_555 1_555
C46_4 C39_6 1_555 1_555
C50_4 C41_6 1_555 1_555
H15_4 C46_4 1_555 1_555
H19_4 C50_4 1_555 1_555
C53_4 C42_6 1_555 1_555
C57_4 C44_6 1_555 1_555
H22_4 C53_4 1_555 1_555
H26_4 C57_4 1_555 1_555
C59_9 C11_9 1_555 1_555
C60_4 C24_4 1_555 1_555
C64_4 C28_4 1_555 1_555
O32 C60_4 1_555 1_555
O25_2 C64_4 1_555 1_555
C24_4 C30_6 1_555 1_555
C28_4 C32_6 1_555 1_555
C44_6 C59_9 1_555 1_555
C46_4 C53_4 1_555 1_555
C50_4 C57_4 1_555 1_555
H2_6 C4_6 1_555 1_555
C5_6 C6_6 1_555 1_555
C6_6 C1_6 1_555 1_555
C7_6 C5_6 1_555 1_555
C11_10 C8_6 1_555 1_555
Zn14 O6_4 1_555 1_555
O6_4 C62_4 1_555 1_555
O11_2 C66_4 1_555 1_555
C19_4 C14_6 1_555 1_555
C22_4 C1_6 1_555 1_555
H8_4 C19_4 1_555 1_555
H11_4 C22_4 1_555 1_555
C26_4 C19_4 1_555 1_555
C29_4 C4_6 1_555 1_555
H13_6 C31_6 1_555 1_555
C34_6 C37_6 1_555 1_555
C37_6 C14_6 1_555 1_555
C40_6 C34_6 1_555 1_555
O17_4 Zn14 1_555 1_555
C48_4 C40_6 1_555 1_555
C51_4 C7_6 1_555 1_555
H17_4 C48_4 1_555 1_555
H21_4 C51_4 1_555 1_555
C55_4 C43_6 1_555 1_555
C58_4 C8_6 1_555 1_555
H24_4 C55_4 1_555 1_555
H28_4 C58_4 1_555 1_555
C59_10 C11_10 1_555 1_555
C62_4 C26_4 1_555 1_555
C66_4 C29_4 1_555 1_555
O29_2 C62_4 1_555 1_555
O27_2 C66_4 1_555 1_555
C22_4 C29_4 1_555 1_555
C26_4 C31_6 1_555 1_555
C43_6 C59_10 1_555 1_555
C48_4 C55_4 1_555 1_555
C51_4 C58_4 1_555 1_555
O15_4 Zn5 1_555 1_555

#END
