
###############################################################################
#
# This file contains modified crystal structure data generated from the
# MOF subset of the Cambridge Structural Database (CSD) v543 
# hosted by the Cambridge Crystallographic Data Centre (CCDC).
#
# This work is licensed under the Creative Commons
# Attribution-NonCommercial-ShareAlike 4.0 International License.
# To view a copy of this license, visit
# http://creativecommons.org/licenses/by-nc-sa/4.0/
# or send a letter to
# Creative Commons, PO Box 1866, Mountain View, CA 94042, USA.
#
# CIF created using the CSD Python API on 29 September 2022
# The structure has been converted into the P1 space group
# The structure has a 3D framework
# The original CSD entry KEQHOG is in the monoclinic crystal system
# The framework has been calculated to contain at least 10.0% void space
# The void calculation uses a probe of radius 1.32A, grid spacing 0.4
#
###############################################################################

data_KEQHOG
_chemical_formula_moiety         '(C216 H176 Cd14 N24 O62)n'
_symmetry_cell_setting           triclinic
_symmetry_space_group_name_H-M   'P 1'
_symmetry_Int_Tables_number      1
_space_group_name_Hall           'P 1'
loop_
_symmetry_equiv_pos_site_id
_symmetry_equiv_pos_as_xyz
1 x,y,z
_cell_length_a                   32.476(8)
_cell_length_b                   11.761(2)
_cell_length_c                   16.740(3)
_cell_angle_alpha                90
_cell_angle_beta                 112.62(3)
_cell_angle_gamma                90
_cell_volume                     5902.01
loop_
_atom_site_label
_atom_site_type_symbol
_atom_site_fract_x
_atom_site_fract_y
_atom_site_fract_z
C16 C 0.1207(4) 0.0256(10) 0.0610(7)
H11 H 0.144343 0.070961 0.062081
Cd10 Cd 0.000000 0.23324(10) 0.750000
O4 O 0.1063(3) 0.1807(8) 0.9262(5)
O5 O 0.0344(3) 0.1241(7) 0.8636(5)
C17 C 0.0809(4) 0.0341(9) 0.9914(7)
C18 C 0.0732(4) 0.1196(10) 0.9205(7)
Cd7 Cd 0.11392(3) 0.33126(8) 0.84667(5)
N5 N 0.8129(4) 0.6296(10) 0.0633(7)
C36 C 0.7488(6) 0.5183(16) 0.0420(10)
H28 H 0.734933 0.466519 0.065509
C37 C 0.7890(6) 0.5621(16) 0.0915(11)
H29 H 0.800690 0.543079 0.149881
Cd4 Cd 0.88608(3) 0.66874(8) 0.15333(5)
Cd1 Cd 0.11392(3) 0.66874(8) 0.34667(5)
Cd2 Cd 0.000000 0.76676(10) 0.250000
O1 O 0.500000 0.2339(11) 0.750000
O2 O 0.1357(3) 0.7851(7) 0.2564(5)
O3 O 0.0643(3) 0.7634(7) 0.2120(5)
O6 O 0.0960(3) 0.5486(8) 0.4437(6)
O7 O 0.0378(3) 0.6184(7) 0.3357(5)
O8 O 0.1176(4) 0.5117(10) 0.2644(7)
N1 N 0.3316(4) 0.4181(12) 0.5767(8)
N2 N 0.1871(4) 0.6296(10) 0.4367(7)
N3 N 0.0967(5) 0.3584(12) 0.1788(9)
C1 C 0.4599(5) 0.2918(11) 0.7078(9)
C2 C 0.4488(5) 0.3946(13) 0.7341(8)
H1 H 0.469704 0.434749 0.779630
C3 C 0.4070(5) 0.4360(11) 0.6924(8)
H2 H 0.399645 0.505237 0.710451
C4 C 0.3746(5) 0.3796(12) 0.6241(9)
C5 C 0.3867(5) 0.2787(12) 0.5991(9)
H3 H 0.366297 0.239449 0.552431
C6 C 0.4289(5) 0.2339(12) 0.6418(9)
H4 H 0.436099 0.163551 0.625239
C7 C 0.3150(5) 0.5046(14) 0.5961(9)
H5 H 0.331205 0.541844 0.647728
C8 C 0.2712(6) 0.5499(17) 0.5415(10)
C9 C 0.2512(6) 0.5183(16) 0.4580(10)
H6 H 0.265067 0.466519 0.434491
C10 C 0.2110(6) 0.5621(16) 0.4085(11)
H7 H 0.199310 0.543079 0.350119
C11 C 0.2073(5) 0.6639(14) 0.5166(10)
H8 H 0.192799 0.716753 0.538012
C12 C 0.2486(5) 0.6264(14) 0.5706(10)
H9 H 0.261220 0.653172 0.627181
C13 C 0.0983(4) 0.8040(9) 0.2037(6)
C14 C 0.0930(4) 0.8824(10) 0.1294(7)
C15 C 0.1272(4) 0.9524(11) 0.1299(7)
H10 H 0.154649 0.950429 0.176373
C20 C 0.0522(4) 0.8883(11) 0.0578(8)
H13 H 0.028509 0.842264 0.055745
C21 C 0.0547(5) 0.5687(10) 0.4068(8)
C22 C 0.0267(4) 0.5330(11) 0.4547(9)
C24 C 0.0414(4) 0.4531(11) 0.5211(8)
H15 H 0.069220 0.419585 0.535297
C25 C 0.0897(7) 0.4438(16) 0.2225(11)
H16 H 0.060999 0.452782 0.221197
C26 C 0.1378(6) 0.3284(16) 0.1825(10)
H17 H 0.154556 0.395661 0.182383
H18 H 0.134803 0.282396 0.133200
H19 H 0.153156 0.286031 0.234548
C27 C 0.0633(6) 0.2842(15) 0.1211(10)
H20 H 0.056426 0.225505 0.153890
H21 H 0.074289 0.250506 0.080973
H22 H 0.036793 0.327146 0.089900
N4 N 0.6684(4) 0.4181(12) 0.9233(8)
C28 C 0.5401(5) 0.2918(11) 0.7922(9)
C29 C 0.5512(5) 0.3946(13) 0.7659(8)
H23 H 0.530296 0.434749 0.720370
C30 C 0.5930(5) 0.4360(11) 0.8076(8)
H24 H 0.600355 0.505237 0.789549
C31 C 0.6254(5) 0.3796(12) 0.8759(9)
C32 C 0.6133(5) 0.2787(12) 0.9009(9)
H25 H 0.633703 0.239449 0.947569
C33 C 0.5711(5) 0.2339(12) 0.8582(9)
H26 H 0.563901 0.163551 0.874761
C34 C 0.6850(5) 0.5046(14) 0.9039(9)
H27 H 0.668795 0.541844 0.852272
C35 C 0.7288(6) 0.5499(17) 0.9585(10)
C38 C 0.7927(5) 0.6639(14) 0.9834(10)
H30 H 0.807201 0.716753 0.961988
C39 C 0.7514(5) 0.6264(14) 0.9294(10)
H31 H 0.738780 0.653172 0.872819
C42 C 0.0157(5) 0.4230(12) 0.5658(8)
H32 H 0.026958 0.371482 0.611188
O17 O 0.1063(3) 0.8193(8) 0.4262(5)
O19 O 0.0344(3) 0.8759(7) 0.3636(5)
C19 C 0.0471(4) 0.9619(11) 0.9904(7)
H12 H 0.020083 0.963021 0.942876
O13 O 0.8937(3) 0.1807(8) 0.5738(5)
O14 O 0.9656(3) 0.1241(7) 0.6364(5)
C47 C 0.8793(4) 0.0256(10) 0.4390(7)
H35 H 0.855657 0.070961 0.437919
C48 C 0.9191(4) 0.0341(9) 0.5086(7)
C49 C 0.9268(4) 0.1196(10) 0.5795(7)
Cd6 Cd 0.88608(3) 0.33126(8) 0.65333(5)
Cd10_2 Cd 1.000000 0.23324(10) 0.750000
Cd2_2 Cd 1.000000 0.76676(10) 0.250000
C23 C 0.9843(5) 0.5770(12) 0.4342(8)
H14 H 0.973042 0.628518 0.388812
O9 O 0.9040(3) 0.4514(8) 0.5563(6)
O10 O 0.9622(3) 0.3816(7) 0.6643(5)
C40 C 0.9453(5) 0.4313(10) 0.5932(8)
C41 C 0.9733(4) 0.4670(11) 0.5453(9)
C43 C 0.9586(4) 0.5469(11) 0.4789(8)
H33 H 0.930780 0.580415 0.464703
O11 O 0.8643(3) 0.7851(7) 0.2436(5)
O12 O 0.9357(3) 0.7634(7) 0.2880(5)
O15 O 0.8824(4) 0.5117(10) 0.2356(7)
N6 N 0.9033(5) 0.3584(12) 0.3212(9)
C44 C 0.9017(4) 0.8040(9) 0.2963(6)
C45 C 0.9070(4) 0.8824(10) 0.3706(7)
C46 C 0.8728(4) 0.9524(11) 0.3701(7)
H34 H 0.845351 0.950429 0.323627
C50 C 0.9529(4) 0.9619(11) 0.5096(7)
H36 H 0.979917 0.963021 0.557124
C51 C 0.9478(4) 0.8883(11) 0.4422(8)
H37 H 0.971491 0.842264 0.444255
C52 C 0.9103(7) 0.4438(16) 0.2775(11)
H38 H 0.939001 0.452782 0.278803
C53 C 0.8622(6) 0.3284(16) 0.3175(10)
H39 H 0.845444 0.395661 0.317617
H40 H 0.865197 0.282396 0.366800
H41 H 0.846844 0.286031 0.265452
C54 C 0.9367(6) 0.2842(15) 0.3789(10)
H42 H 0.943574 0.225505 0.346110
H43 H 0.925711 0.250506 0.419027
H44 H 0.963207 0.327146 0.410100
O16 O 0.8937(3) 0.8193(8) 0.0738(5)
O18 O 0.9656(3) 0.8759(7) 0.1364(5)
O20 O 0.9040(3) 0.5486(8) 0.0563(6)
O21 O 0.9622(3) 0.6184(7) 0.1643(5)
C23_2 C 0.0157(5) 0.5770(12) 0.0658(8)
H14_2 H 0.026958 0.628518 0.111188
C43_2 C 0.0414(4) 0.5469(11) 0.0211(8)
H33_2 H 0.069220 0.580415 0.035297
O9_2 O 0.0960(3) 0.4514(8) 0.9437(6)
O10_2 O 0.0378(3) 0.3816(7) 0.8357(5)
C40_2 C 0.0547(5) 0.4313(10) 0.9068(8)
C41_2 C 0.0267(4) 0.4670(11) 0.9547(9)
C21_2 C 0.9453(5) 0.5687(10) 0.0932(8)
C22_2 C 0.9733(4) 0.5330(11) 0.0453(9)
C24_2 C 0.9586(4) 0.4531(11) 0.9789(8)
H15_2 H 0.930780 0.419585 0.964703
C42_2 C 0.9843(5) 0.4230(12) 0.9342(8)
H32_2 H 0.973042 0.371482 0.888812
O11_2 O 0.1357(3) 0.2149(7) 0.7564(5)
O12_2 O 0.0643(3) 0.2366(7) 0.7120(5)
O15_2 O 0.1176(4) 0.4883(10) 0.7644(7)
N6_2 N 0.0967(5) 0.6416(12) 0.6788(9)
C44_2 C 0.0983(4) 0.1960(9) 0.7037(6)
C45_2 C 0.0930(4) 0.1176(10) 0.6294(7)
C46_2 C 0.1272(4) 0.0476(11) 0.6299(7)
H34_2 H 0.154649 0.049571 0.676373
C50_2 C 0.0471(4) 0.0381(11) 0.4904(7)
H36_2 H 0.020083 0.036979 0.442876
C51_2 C 0.0522(4) 0.1117(11) 0.5578(8)
H37_2 H 0.028509 0.157736 0.555745
C52_2 C 0.0897(7) 0.5562(16) 0.7225(11)
H38_2 H 0.060999 0.547218 0.721197
C53_2 C 0.1378(6) 0.6716(16) 0.6825(10)
H39_2 H 0.154556 0.604339 0.682383
H40_2 H 0.134803 0.717604 0.633200
H41_2 H 0.153156 0.713969 0.734548
C54_2 C 0.0633(6) 0.7158(15) 0.6211(10)
H42_2 H 0.056426 0.774495 0.653890
H43_2 H 0.074289 0.749494 0.580973
H44_2 H 0.036793 0.672854 0.589900
N7 N 0.1871(4) 0.3704(10) 0.9367(7)
C47_2 C 0.1207(4) 0.9744(10) 0.5610(7)
H35_2 H 0.144343 0.929039 0.562081
C48_2 C 0.0809(4) 0.9659(9) 0.4914(7)
C49_2 C 0.0732(4) 0.8804(10) 0.4205(7)
C19_2 C 0.9529(4) 0.0381(11) 0.0096(7)
H12_2 H 0.979917 0.036979 0.057124
O1_2 O 0.500000 0.7661(11) 0.250000
O2_2 O 0.8643(3) 0.2149(7) 0.7436(5)
O3_2 O 0.9357(3) 0.2366(7) 0.7880(5)
O8_2 O 0.8824(4) 0.4883(10) 0.7356(7)
N1_2 N 0.6684(4) 0.5819(12) 0.4233(8)
N2_2 N 0.8129(4) 0.3704(10) 0.5633(7)
N3_2 N 0.9033(5) 0.6416(12) 0.8212(9)
C1_2 C 0.5401(5) 0.7082(11) 0.2922(9)
C2_2 C 0.5512(5) 0.6054(13) 0.2659(8)
H1_2 H 0.530296 0.565251 0.220370
C3_2 C 0.5930(5) 0.5640(11) 0.3076(8)
H2_2 H 0.600355 0.494763 0.289549
C4_2 C 0.6254(5) 0.6204(12) 0.3759(9)
C5_2 C 0.6133(5) 0.7213(12) 0.4009(9)
H3_2 H 0.633703 0.760551 0.447569
C6_2 C 0.5711(5) 0.7661(12) 0.3582(9)
H4_2 H 0.563901 0.836449 0.374761
C7_2 C 0.6850(5) 0.4954(14) 0.4039(9)
H5_2 H 0.668795 0.458156 0.352272
C8_2 C 0.7288(6) 0.4501(17) 0.4585(10)
C9_2 C 0.7488(6) 0.4817(16) 0.5420(10)
H6_2 H 0.734933 0.533481 0.565509
C10_2 C 0.7890(6) 0.4379(16) 0.5915(11)
H7_2 H 0.800690 0.456921 0.649881
C11_2 C 0.7927(5) 0.3361(14) 0.4834(10)
H8_2 H 0.807201 0.283247 0.461988
C12_2 C 0.7514(5) 0.3736(14) 0.4294(10)
H9_2 H 0.738780 0.346828 0.372819
C13_2 C 0.9017(4) 0.1960(9) 0.7963(6)
C14_2 C 0.9070(4) 0.1176(10) 0.8706(7)
C15_2 C 0.8728(4) 0.0476(11) 0.8701(7)
H10_2 H 0.845351 0.049571 0.823627
C20_2 C 0.9478(4) 0.1117(11) 0.9422(8)
H13_2 H 0.971491 0.157736 0.944255
C25_2 C 0.9103(7) 0.5562(16) 0.7775(11)
H16_2 H 0.939001 0.547218 0.778803
C26_2 C 0.8622(6) 0.6716(16) 0.8175(10)
H17_2 H 0.845444 0.604339 0.817617
H18_2 H 0.865197 0.717604 0.866800
H19_2 H 0.846844 0.713969 0.765452
C27_2 C 0.9367(6) 0.7158(15) 0.8789(10)
H20_2 H 0.943574 0.774495 0.846110
H21_2 H 0.925711 0.749494 0.919027
H22_2 H 0.963207 0.672854 0.910100
N4_2 N 0.3316(4) 0.5819(12) 0.0767(8)
C28_2 C 0.4599(5) 0.7082(11) 0.2078(9)
C29_2 C 0.4488(5) 0.6054(13) 0.2341(8)
H23_2 H 0.469704 0.565251 0.279630
C30_2 C 0.4070(5) 0.5640(11) 0.1924(8)
H24_2 H 0.399645 0.494763 0.210451
C31_2 C 0.3746(5) 0.6204(12) 0.1241(9)
C32_2 C 0.3867(5) 0.7213(12) 0.0991(9)
H25_2 H 0.366297 0.760551 0.052431
C33_2 C 0.4289(5) 0.7661(12) 0.1418(9)
H26_2 H 0.436099 0.836449 0.125239
C34_2 C 0.3150(5) 0.4954(14) 0.0961(9)
H27_2 H 0.331205 0.458156 0.147728
C35_2 C 0.2712(6) 0.4501(17) 0.0415(10)
C38_2 C 0.2073(5) 0.3361(14) 0.0166(10)
H30_2 H 0.192799 0.283247 0.038012
C39_2 C 0.2486(5) 0.3736(14) 0.0706(10)
H31_2 H 0.261220 0.346828 0.127181
C36_2 C 0.2512(6) 0.4817(16) 0.9580(10)
H28_2 H 0.265067 0.533481 0.934491
C37_2 C 0.2110(6) 0.4379(16) 0.9085(11)
H29_2 H 0.199310 0.456921 0.850119
C17_2 C 0.9191(4) 0.9659(9) 0.0086(7)
C18_2 C 0.9268(4) 0.8804(10) 0.0795(7)
C16_2 C 0.8793(4) 0.9744(10) 0.9390(7)
H11_2 H 0.855657 0.929039 0.937919
N5_2 N 0.3129(4) 0.1296(10) 0.0633(7)
C36_3 C 0.2488(6) 0.0183(16) 0.0420(10)
C37_3 C 0.2890(6) 0.0621(16) 0.0915(11)
H29_3 H 0.300690 0.043079 0.149881
Cd4_2 Cd 0.38608(3) 0.16874(8) 0.15333(5)
H24_3 H 0.100355 0.005237 0.789549
C34_3 C 0.1850(5) 0.0046(14) 0.9039(9)
H27_3 H 0.168795 0.041844 0.852272
C35_3 C 0.2288(6) 0.0499(17) 0.9585(10)
C38_3 C 0.2927(5) 0.1639(14) 0.9834(10)
H30_3 H 0.307201 0.216753 0.961988
C39_3 C 0.2514(5) 0.1264(14) 0.9294(10)
H31_3 H 0.238780 0.153172 0.872819
H28_3 H 0.234933 0.966519 0.065509
O1_3 O 0.000000 0.7339(11) 0.750000
N4_3 N 0.1684(4) 0.9181(12) 0.9233(8)
C28_3 C 0.0401(5) 0.7918(11) 0.7922(9)
C29_3 C 0.0512(5) 0.8946(13) 0.7659(8)
H23_3 H 0.030296 0.934749 0.720370
C30_3 C 0.0930(5) 0.9360(11) 0.8076(8)
C31_3 C 0.1254(5) 0.8796(12) 0.8759(9)
C32_3 C 0.1133(5) 0.7787(12) 0.9009(9)
H25_3 H 0.133703 0.739449 0.947569
C33_3 C 0.0711(5) 0.7339(12) 0.8582(9)
H26_3 H 0.063901 0.663551 0.874761
Cd1_2 Cd 0.61392(3) 0.16874(8) 0.34667(5)
Cd2_3 Cd 0.500000 0.26676(10) 0.250000
O2_3 O 0.6357(3) 0.2851(7) 0.2564(5)
O3_3 O 0.5643(3) 0.2634(7) 0.2120(5)
O6_2 O 0.5960(3) 0.0486(8) 0.4437(6)
O7_2 O 0.5378(3) 0.1184(7) 0.3357(5)
O8_3 O 0.6176(4) 0.0117(10) 0.2644(7)
N2_3 N 0.6871(4) 0.1296(10) 0.4367(7)
H2_3 H 0.899645 0.005237 0.710451
C7_3 C 0.8150(5) 0.0046(14) 0.5961(9)
H5_3 H 0.831205 0.041844 0.647728
C8_3 C 0.7712(6) 0.0499(17) 0.5415(10)
C9_3 C 0.7512(6) 0.0183(16) 0.4580(10)
C10_3 C 0.7110(6) 0.0621(16) 0.4085(11)
H7_3 H 0.699310 0.043079 0.350119
C11_3 C 0.7073(5) 0.1639(14) 0.5166(10)
H8_3 H 0.692799 0.216753 0.538012
C12_3 C 0.7486(5) 0.1264(14) 0.5706(10)
H9_3 H 0.761220 0.153172 0.627181
C13_3 C 0.5983(4) 0.3040(9) 0.2037(6)
C14_3 C 0.5930(4) 0.3824(10) 0.1294(7)
C15_3 C 0.6272(4) 0.4524(11) 0.1299(7)
H10_3 H 0.654649 0.450429 0.176373
C16_3 C 0.6207(4) 0.5256(10) 0.0610(7)
H11_3 H 0.644343 0.570961 0.062081
C20_3 C 0.5522(4) 0.3883(11) 0.0578(8)
H13_3 H 0.528509 0.342264 0.055745
C21_3 C 0.5547(5) 0.0687(10) 0.4068(8)
C22_3 C 0.5267(4) 0.0330(11) 0.4547(9)
C23_3 C 0.4843(5) 0.0770(12) 0.4342(8)
H14_3 H 0.473042 0.128518 0.388812
C43_3 C 0.4586(4) 0.0469(11) 0.4789(8)
H33_3 H 0.430780 0.080415 0.464703
O11_3 O 0.3643(3) 0.2851(7) 0.2436(5)
O12_3 O 0.4357(3) 0.2634(7) 0.2880(5)
O13_2 O 0.3937(3) 0.6807(8) 0.5738(5)
O14_2 O 0.4656(3) 0.6241(7) 0.6364(5)
O15_3 O 0.3824(4) 0.0117(10) 0.2356(7)
C44_3 C 0.4017(4) 0.3040(9) 0.2963(6)
C45_3 C 0.4070(4) 0.3824(10) 0.3706(7)
C46_3 C 0.3728(4) 0.4524(11) 0.3701(7)
H34_3 H 0.345351 0.450429 0.323627
C47_3 C 0.3793(4) 0.5256(10) 0.4390(7)
H35_3 H 0.355657 0.570961 0.437919
C48_3 C 0.4191(4) 0.5341(9) 0.5086(7)
C49_3 C 0.4268(4) 0.6196(10) 0.5795(7)
C50_3 C 0.4529(4) 0.4619(11) 0.5096(7)
H36_3 H 0.479917 0.463021 0.557124
C51_3 C 0.4478(4) 0.3883(11) 0.4422(8)
H37_3 H 0.471491 0.342264 0.444255
Cd6_2 Cd 0.38608(3) 0.83126(8) 0.65333(5)
Cd10_3 Cd 0.500000 0.73324(10) 0.750000
O16_2 O 0.3937(3) 0.3193(8) 0.0738(5)
O17_2 O 0.6063(3) 0.3193(8) 0.4262(5)
O18_2 O 0.4656(3) 0.3759(7) 0.1364(5)
O19_2 O 0.5344(3) 0.3759(7) 0.3636(5)
O20_2 O 0.4040(3) 0.0486(8) 0.0563(6)
O21_2 O 0.4622(3) 0.1184(7) 0.1643(5)
O4_2 O 0.6063(3) 0.6807(8) 0.9262(5)
O5_2 O 0.5344(3) 0.6241(7) 0.8636(5)
C17_3 C 0.5809(4) 0.5341(9) 0.9914(7)
C18_3 C 0.5732(4) 0.6196(10) 0.9205(7)
C19_3 C 0.5471(4) 0.4619(11) 0.9904(7)
H12_3 H 0.520083 0.463021 0.942876
Cd7_2 Cd 0.61392(3) 0.83126(8) 0.84667(5)
O1_4 O 1.000000 0.7339(11) 0.750000
N1_3 N 0.8316(4) 0.9181(12) 0.5767(8)
N3_3 N 0.5967(5) 0.8584(12) 0.1788(9)
C1_3 C 0.9599(5) 0.7918(11) 0.7078(9)
C2_3 C 0.9488(5) 0.8946(13) 0.7341(8)
H1_3 H 0.969704 0.934749 0.779630
C3_3 C 0.9070(5) 0.9360(11) 0.6924(8)
C4_3 C 0.8746(5) 0.8796(12) 0.6241(9)
C5_3 C 0.8867(5) 0.7787(12) 0.5991(9)
H3_3 H 0.866297 0.739449 0.552431
C6_3 C 0.9289(5) 0.7339(12) 0.6418(9)
H4_3 H 0.936099 0.663551 0.625239
H6_3 H 0.765067 0.966519 0.434491
C24_3 C 0.5414(4) 0.9531(11) 0.5211(8)
H15_3 H 0.569220 0.919585 0.535297
C25_3 C 0.5897(7) 0.9438(16) 0.2225(11)
H16_3 H 0.560999 0.952782 0.221197
C26_3 C 0.6378(6) 0.8284(16) 0.1825(10)
H17_3 H 0.654556 0.895661 0.182383
H18_3 H 0.634803 0.782396 0.133200
H19_3 H 0.653156 0.786031 0.234548
C27_3 C 0.5633(6) 0.7842(15) 0.1211(10)
H20_3 H 0.556426 0.725505 0.153890
H21_3 H 0.574289 0.750506 0.080973
H22_3 H 0.536793 0.827146 0.089900
O9_3 O 0.4040(3) 0.9514(8) 0.5563(6)
O10_3 O 0.4622(3) 0.8816(7) 0.6643(5)
C40_3 C 0.4453(5) 0.9313(10) 0.5932(8)
C41_3 C 0.4733(4) 0.9670(11) 0.5453(9)
C42_3 C 0.5157(5) 0.9230(12) 0.5658(8)
H32_3 H 0.526958 0.871482 0.611188
N6_3 N 0.4033(5) 0.8584(12) 0.3212(9)
C52_3 C 0.4103(7) 0.9438(16) 0.2775(11)
H38_3 H 0.439001 0.952782 0.278803
C53_3 C 0.3622(6) 0.8284(16) 0.3175(10)
H39_3 H 0.345444 0.895661 0.317617
H40_3 H 0.365197 0.782396 0.366800
H41_3 H 0.346844 0.786031 0.265452
C54_3 C 0.4367(6) 0.7842(15) 0.3789(10)
H42_3 H 0.443574 0.725505 0.346110
H43_3 H 0.425711 0.750506 0.419027
H44_3 H 0.463207 0.827146 0.410100
C21_4 C 0.4453(5) 0.0687(10) 0.0932(8)
C22_4 C 0.4733(4) 0.0330(11) 0.0453(9)
C23_4 C 0.5157(5) 0.0770(12) 0.0658(8)
H14_4 H 0.526958 0.128518 0.111188
C43_4 C 0.5414(4) 0.0469(11) 0.0211(8)
H33_4 H 0.569220 0.080415 0.035297
C24_4 C 0.4586(4) 0.9531(11) 0.9789(8)
H15_4 H 0.430780 0.919585 0.964703
O9_4 O 0.5960(3) 0.9514(8) 0.9437(6)
O10_4 O 0.5378(3) 0.8816(7) 0.8357(5)
C40_4 C 0.5547(5) 0.9313(10) 0.9068(8)
C41_4 C 0.5267(4) 0.9670(11) 0.9547(9)
C42_4 C 0.4843(5) 0.9230(12) 0.9342(8)
H32_4 H 0.473042 0.871482 0.888812
O1_5 O -0.000000 0.2661(11) 0.250000
N1_4 N 0.1684(4) 0.0819(12) 0.4233(8)
N3_4 N 0.4033(5) 0.1416(12) 0.8212(9)
C1_4 C 0.0401(5) 0.2082(11) 0.2922(9)
C2_4 C 0.0512(5) 0.1054(13) 0.2659(8)
H1_4 H 0.030296 0.065251 0.220370
C3_4 C 0.0930(5) 0.0640(11) 0.3076(8)
C4_4 C 0.1254(5) 0.1204(12) 0.3759(9)
C5_4 C 0.1133(5) 0.2213(12) 0.4009(9)
H3_4 H 0.133703 0.260551 0.447569
C6_4 C 0.0711(5) 0.2661(12) 0.3582(9)
H4_4 H 0.063901 0.336449 0.374761
H6_4 H 0.234933 0.033481 0.565509
C25_4 C 0.4103(7) 0.0562(16) 0.7775(11)
H16_4 H 0.439001 0.047218 0.778803
C26_4 C 0.3622(6) 0.1716(16) 0.8175(10)
H17_4 H 0.345444 0.104339 0.817617
H18_4 H 0.365197 0.217604 0.866800
H19_4 H 0.346844 0.213969 0.765452
C27_4 C 0.4367(6) 0.2158(15) 0.8789(10)
H20_4 H 0.443574 0.274495 0.846110
H21_4 H 0.425711 0.249494 0.919027
H22_4 H 0.463207 0.172854 0.910100
N6_4 N 0.5967(5) 0.1416(12) 0.6788(9)
C52_4 C 0.5897(7) 0.0562(16) 0.7225(11)
H38_4 H 0.560999 0.047218 0.721197
C53_4 C 0.6378(6) 0.1716(16) 0.6825(10)
H39_4 H 0.654556 0.104339 0.682383
H40_4 H 0.634803 0.217604 0.633200
H41_4 H 0.653156 0.213969 0.734548
C54_4 C 0.5633(6) 0.2158(15) 0.6211(10)
H42_4 H 0.556426 0.274495 0.653890
H43_4 H 0.574289 0.249494 0.580973
H44_4 H 0.536793 0.172854 0.589900
C17_4 C 0.4191(4) 0.4659(9) 0.0086(7)
C18_4 C 0.4268(4) 0.3804(10) 0.0795(7)
C19_4 C 0.4529(4) 0.5381(11) 0.0096(7)
H12_4 H 0.479917 0.536979 0.057124
O2_4 O 0.3643(3) 0.7149(7) 0.7436(5)
O3_4 O 0.4357(3) 0.7366(7) 0.7880(5)
O8_4 O 0.3824(4) 0.9883(10) 0.7356(7)
N2_4 N 0.3129(4) 0.8704(10) 0.5633(7)
H2_4 H 0.100355 0.994763 0.289549
C7_4 C 0.1850(5) 0.9954(14) 0.4039(9)
H5_4 H 0.168795 0.958156 0.352272
C8_4 C 0.2288(6) 0.9501(17) 0.4585(10)
C9_4 C 0.2488(6) 0.9817(16) 0.5420(10)
C10_4 C 0.2890(6) 0.9379(16) 0.5915(11)
H7_4 H 0.300690 0.956921 0.649881
C11_4 C 0.2927(5) 0.8361(14) 0.4834(10)
H8_4 H 0.307201 0.783247 0.461988
C12_4 C 0.2514(5) 0.8736(14) 0.4294(10)
H9_4 H 0.238780 0.846828 0.372819
C13_4 C 0.4017(4) 0.6960(9) 0.7963(6)
C14_4 C 0.4070(4) 0.6176(10) 0.8706(7)
C15_4 C 0.3728(4) 0.5476(11) 0.8701(7)
H10_4 H 0.345351 0.549571 0.823627
C16_4 C 0.3793(4) 0.4744(10) 0.9390(7)
H11_4 H 0.355657 0.429039 0.937919
C20_4 C 0.4478(4) 0.6117(11) 0.9422(8)
H13_4 H 0.471491 0.657736 0.944255
O11_4 O 0.6357(3) 0.7149(7) 0.7564(5)
O12_4 O 0.5643(3) 0.7366(7) 0.7120(5)
O15_4 O 0.6176(4) 0.9883(10) 0.7644(7)
C44_4 C 0.5983(4) 0.6960(9) 0.7037(6)
C45_4 C 0.5930(4) 0.6176(10) 0.6294(7)
C46_4 C 0.6272(4) 0.5476(11) 0.6299(7)
H34_4 H 0.654649 0.549571 0.676373
C47_4 C 0.6207(4) 0.4744(10) 0.5610(7)
H35_4 H 0.644343 0.429039 0.562081
C48_4 C 0.5809(4) 0.4659(9) 0.4914(7)
C49_4 C 0.5732(4) 0.3804(10) 0.4205(7)
C50_4 C 0.5471(4) 0.5381(11) 0.4904(7)
H36_4 H 0.520083 0.536979 0.442876
C51_4 C 0.5522(4) 0.6117(11) 0.5578(8)
H37_4 H 0.528509 0.657736 0.555745
N7_2 N 0.6871(4) 0.8704(10) 0.9367(7)
O1_6 O 1.000000 0.2661(11) 0.250000
N4_4 N 0.8316(4) 0.0819(12) 0.0767(8)
C28_4 C 0.9599(5) 0.2082(11) 0.2078(9)
C29_4 C 0.9488(5) 0.1054(13) 0.2341(8)
H23_4 H 0.969704 0.065251 0.279630
C30_4 C 0.9070(5) 0.0640(11) 0.1924(8)
C31_4 C 0.8746(5) 0.1204(12) 0.1241(9)
C32_4 C 0.8867(5) 0.2213(12) 0.0991(9)
H25_4 H 0.866297 0.260551 0.052431
C33_4 C 0.9289(5) 0.2661(12) 0.1418(9)
H26_4 H 0.936099 0.336449 0.125239
H28_4 H 0.765067 0.033481 0.934491
H24_4 H 0.899645 0.994763 0.210451
C34_4 C 0.8150(5) 0.9954(14) 0.0961(9)
H27_4 H 0.831205 0.958156 0.147728
C35_4 C 0.7712(6) 0.9501(17) 0.0415(10)
C38_4 C 0.7073(5) 0.8361(14) 0.0166(10)
H30_4 H 0.692799 0.783247 0.038012
C39_4 C 0.7486(5) 0.8736(14) 0.0706(10)
H31_4 H 0.761220 0.846828 0.127181
C36_4 C 0.7512(6) 0.9817(16) 0.9580(10)
C37_4 C 0.7110(6) 0.9379(16) 0.9085(11)
H29_4 H 0.699310 0.956921 0.850119
loop_
_geom_bond_atom_site_label_1
_geom_bond_atom_site_label_2
_geom_bond_site_symmetry_1
_geom_bond_site_symmetry_2
H11 C16 1_555 1_555
O4 C18 1_555 1_555
O5 C18 1_555 1_555
C18 C17 1_555 1_555
Cd7 O4 1_555 1_555
Cd10 O5 1_555 1_555
N5 C37 1_555 1_555
H28 C36 1_555 1_555
C37 C36 1_555 1_555
H29 C37 1_555 1_555
Cd4 N5 1_555 1_555
Cd1 O2 1_555 1_555
Cd2 O3 1_555 1_555
O1 C1 1_555 1_555
O2 C13 1_555 1_555
O3 Cd1 1_555 1_555
O6 Cd1 1_555 1_555
O7 Cd1 1_555 1_555
O8 Cd1 1_555 1_555
N1 C4 1_555 1_555
N2 Cd1 1_555 1_555
N3 C25 1_555 1_555
C1 C2 1_555 1_555
C2 H1 1_555 1_555
C3 C2 1_555 1_555
H2 C3 1_555 1_555
C4 C3 1_555 1_555
C5 C4 1_555 1_555
H3 C5 1_555 1_555
C6 C1 1_555 1_555
H4 C6 1_555 1_555
C7 N1 1_555 1_555
H5 C7 1_555 1_555
C8 C7 1_555 1_555
C9 C8 1_555 1_555
H6 C9 1_555 1_555
C10 N2 1_555 1_555
H7 C10 1_555 1_555
C11 N2 1_555 1_555
H8 C11 1_555 1_555
C12 C8 1_555 1_555
H9 C12 1_555 1_555
C13 O3 1_555 1_555
C14 C13 1_555 1_555
C15 C14 1_555 1_555
H10 C15 1_555 1_555
C20 C14 1_555 1_555
H13 C20 1_555 1_555
C21 O6 1_555 1_555
C22 C21 1_555 1_555
C24 C22 1_555 1_555
H15 C24 1_555 1_555
C25 O8 1_555 1_555
H16 C25 1_555 1_555
C26 N3 1_555 1_555
H17 C26 1_555 1_555
H18 C26 1_555 1_555
H19 C26 1_555 1_555
C27 N3 1_555 1_555
H20 C27 1_555 1_555
H21 C27 1_555 1_555
H22 C27 1_555 1_555
N4 C31 1_555 1_555
C28 O1 1_555 1_555
C29 C28 1_555 1_555
H23 C29 1_555 1_555
C30 C29 1_555 1_555
H24 C30 1_555 1_555
C31 C30 1_555 1_555
C32 C31 1_555 1_555
H25 C32 1_555 1_555
C33 C28 1_555 1_555
H26 C33 1_555 1_555
C34 N4 1_555 1_555
H27 C34 1_555 1_555
C35 C34 1_555 1_555
H30 C38 1_555 1_555
C39 C35 1_555 1_555
H31 C39 1_555 1_555
C42 C24 1_555 1_555
H32 C42 1_555 1_555
O17 Cd1 1_555 1_555
O19 Cd2 1_555 1_555
Cd2 O7 1_555 1_555
O7 C21 1_555 1_555
C5 C6 1_555 1_555
C9 C10 1_555 1_555
C11 C12 1_555 1_555
C32 C33 1_555 1_555
C38 C39 1_555 1_555
H12 C19 1_555 1_555
O13 C49 1_555 1_555
O14 C49 1_555 1_555
H35 C47 1_555 1_555
C48 C47 1_555 1_555
C49 C48 1_555 1_555
Cd6 O13 1_555 1_555
Cd10_2 O14 1_555 1_555
H14 C23 1_555 1_555
O9 C40 1_555 1_555
O10 C40 1_555 1_555
C40 C41 1_555 1_555
C43 C23 1_555 1_555
H33 C43 1_555 1_555
Cd4 O11 1_555 1_555
O11 C44 1_555 1_555
O12 Cd2_2 1_555 1_555
O15 Cd4 1_555 1_555
N6 C52 1_555 1_555
C44 O12 1_555 1_555
C45 C44 1_555 1_555
C46 C45 1_555 1_555
H34 C46 1_555 1_555
H36 C50 1_555 1_555
C51 C45 1_555 1_555
H37 C51 1_555 1_555
C52 O15 1_555 1_555
H38 C52 1_555 1_555
C53 N6 1_555 1_555
H39 C53 1_555 1_555
H40 C53 1_555 1_555
H41 C53 1_555 1_555
C54 N6 1_555 1_555
H42 C54 1_555 1_555
H43 C54 1_555 1_555
H44 C54 1_555 1_555
Cd6 O9 1_555 1_555
Cd10_2 O10 1_555 1_555
O16 Cd4 1_555 1_555
O18 Cd2_2 1_555 1_555
O20 Cd4 1_555 1_555
O21 Cd2_2 1_555 1_555
O10 Cd6 1_555 1_555
C41 C43 1_555 1_555
Cd4 O12 1_555 1_555
Cd4 O21 1_555 1_555
C50 C51 1_555 1_555
H14_2 C23_2 1_555 1_555
C43_2 C23_2 1_555 1_555
H33_2 C43_2 1_555 1_555
O9_2 C40_2 1_555 1_555
O10_2 C40_2 1_555 1_555
C40_2 C41_2 1_555 1_555
Cd7 O9_2 1_555 1_555
Cd10 O10_2 1_555 1_555
O10_2 Cd7 1_555 1_555
C21_2 O20 1_555 1_555
C22_2 C21_2 1_555 1_555
O21 C21_2 1_555 1_555
H15_2 C24_2 1_555 1_555
C42_2 C24_2 1_555 1_555
H32_2 C42_2 1_555 1_555
Cd7 O11_2 1_555 1_555
O11_2 C44_2 1_555 1_555
O12_2 Cd10 1_555 1_555
O15_2 Cd7 1_555 1_555
N6_2 C52_2 1_555 1_555
C44_2 O12_2 1_555 1_555
C45_2 C44_2 1_555 1_555
C46_2 C45_2 1_555 1_555
H34_2 C46_2 1_555 1_555
H36_2 C50_2 1_555 1_555
C51_2 C45_2 1_555 1_555
H37_2 C51_2 1_555 1_555
C52_2 O15_2 1_555 1_555
H38_2 C52_2 1_555 1_555
C53_2 N6_2 1_555 1_555
H39_2 C53_2 1_555 1_555
H40_2 C53_2 1_555 1_555
H41_2 C53_2 1_555 1_555
C54_2 N6_2 1_555 1_555
H42_2 C54_2 1_555 1_555
H43_2 C54_2 1_555 1_555
H44_2 C54_2 1_555 1_555
N7 Cd7 1_555 1_555
Cd7 O12_2 1_555 1_555
C50_2 C51_2 1_555 1_555
O17 C49_2 1_555 1_555
O19 C49_2 1_555 1_555
H35_2 C47_2 1_555 1_555
C48_2 C47_2 1_555 1_555
C49_2 C48_2 1_555 1_555
H12_2 C19_2 1_555 1_555
Cd6 O2_2 1_555 1_555
Cd10_2 O3_2 1_555 1_555
O1_2 C1_2 1_555 1_555
O2_2 C13_2 1_555 1_555
O3_2 Cd6 1_555 1_555
O8_2 Cd6 1_555 1_555
N1_2 C4_2 1_555 1_555
N2_2 Cd6 1_555 1_555
N3_2 C25_2 1_555 1_555
C1_2 C2_2 1_555 1_555
C2_2 H1_2 1_555 1_555
C3_2 C2_2 1_555 1_555
H2_2 C3_2 1_555 1_555
C4_2 C3_2 1_555 1_555
C5_2 C4_2 1_555 1_555
H3_2 C5_2 1_555 1_555
C6_2 C1_2 1_555 1_555
H4_2 C6_2 1_555 1_555
C7_2 N1_2 1_555 1_555
H5_2 C7_2 1_555 1_555
C8_2 C7_2 1_555 1_555
C9_2 C8_2 1_555 1_555
H6_2 C9_2 1_555 1_555
C10_2 N2_2 1_555 1_555
H7_2 C10_2 1_555 1_555
C11_2 N2_2 1_555 1_555
H8_2 C11_2 1_555 1_555
C12_2 C8_2 1_555 1_555
H9_2 C12_2 1_555 1_555
C13_2 O3_2 1_555 1_555
C14_2 C13_2 1_555 1_555
C15_2 C14_2 1_555 1_555
H10_2 C15_2 1_555 1_555
C20_2 C14_2 1_555 1_555
H13_2 C20_2 1_555 1_555
C25_2 O8_2 1_555 1_555
H16_2 C25_2 1_555 1_555
C26_2 N3_2 1_555 1_555
H17_2 C26_2 1_555 1_555
H18_2 C26_2 1_555 1_555
H19_2 C26_2 1_555 1_555
C27_2 N3_2 1_555 1_555
H20_2 C27_2 1_555 1_555
H21_2 C27_2 1_555 1_555
H22_2 C27_2 1_555 1_555
N4_2 C31_2 1_555 1_555
C28_2 O1_2 1_555 1_555
C29_2 C28_2 1_555 1_555
H23_2 C29_2 1_555 1_555
C30_2 C29_2 1_555 1_555
H24_2 C30_2 1_555 1_555
C31_2 C30_2 1_555 1_555
C32_2 C31_2 1_555 1_555
H25_2 C32_2 1_555 1_555
C33_2 C28_2 1_555 1_555
H26_2 C33_2 1_555 1_555
C34_2 N4_2 1_555 1_555
H27_2 C34_2 1_555 1_555
C35_2 C34_2 1_555 1_555
H30_2 C38_2 1_555 1_555
C39_2 C35_2 1_555 1_555
H31_2 C39_2 1_555 1_555
C5_2 C6_2 1_555 1_555
C9_2 C10_2 1_555 1_555
C11_2 C12_2 1_555 1_555
C32_2 C33_2 1_555 1_555
C38_2 C39_2 1_555 1_555
N7 C37_2 1_555 1_555
H28_2 C36_2 1_555 1_555
C37_2 C36_2 1_555 1_555
H29_2 C37_2 1_555 1_555
O16 C18_2 1_555 1_555
O18 C18_2 1_555 1_555
C18_2 C17_2 1_555 1_555
H11_2 C16_2 1_555 1_555
N5_2 C37_3 1_555 1_555
C37_3 C36_3 1_555 1_555
H29_3 C37_3 1_555 1_555
Cd4_2 N5_2 1_555 1_555
H27_3 C34_3 1_555 1_555
C35_3 C34_3 1_555 1_555
H30_3 C38_3 1_555 1_555
C39_3 C35_3 1_555 1_555
H31_3 C39_3 1_555 1_555
C38_3 C39_3 1_555 1_555
N4_3 C31_3 1_555 1_555
C28_3 O1_3 1_555 1_555
C29_3 C28_3 1_555 1_555
H23_3 C29_3 1_555 1_555
C30_3 C29_3 1_555 1_555
C31_3 C30_3 1_555 1_555
C32_3 C31_3 1_555 1_555
H25_3 C32_3 1_555 1_555
C33_3 C28_3 1_555 1_555
H26_3 C33_3 1_555 1_555
C32_3 C33_3 1_555 1_555
Cd1_2 O2_3 1_555 1_555
Cd2_3 O3_3 1_555 1_555
O2_3 C13_3 1_555 1_555
O3_3 Cd1_2 1_555 1_555
O6_2 Cd1_2 1_555 1_555
O7_2 Cd1_2 1_555 1_555
O8_3 Cd1_2 1_555 1_555
N2_3 Cd1_2 1_555 1_555
H5_3 C7_3 1_555 1_555
C8_3 C7_3 1_555 1_555
C9_3 C8_3 1_555 1_555
C10_3 N2_3 1_555 1_555
H7_3 C10_3 1_555 1_555
C11_3 N2_3 1_555 1_555
H8_3 C11_3 1_555 1_555
C12_3 C8_3 1_555 1_555
H9_3 C12_3 1_555 1_555
C13_3 O3_3 1_555 1_555
C14_3 C13_3 1_555 1_555
C15_3 C14_3 1_555 1_555
H10_3 C15_3 1_555 1_555
C16_3 C15_3 1_555 1_555
H11_3 C16_3 1_555 1_555
C20_3 C14_3 1_555 1_555
H13_3 C20_3 1_555 1_555
C21_3 O6_2 1_555 1_555
C22_3 C21_3 1_555 1_555
C23_3 C22_3 1_555 1_555
H14_3 C23_3 1_555 1_555
C43_3 C23_3 1_555 1_555
H33_3 C43_3 1_555 1_555
Cd4_2 O11_3 1_555 1_555
O11_3 C44_3 1_555 1_555
O12_3 Cd2_3 1_555 1_555
O13_2 C49_3 1_555 1_555
O14_2 C49_3 1_555 1_555
O15_3 Cd4_2 1_555 1_555
C44_3 O12_3 1_555 1_555
C45_3 C44_3 1_555 1_555
C46_3 C45_3 1_555 1_555
H34_3 C46_3 1_555 1_555
C47_3 C46_3 1_555 1_555
H35_3 C47_3 1_555 1_555
C48_3 C47_3 1_555 1_555
C49_3 C48_3 1_555 1_555
C50_3 C48_3 1_555 1_555
H36_3 C50_3 1_555 1_555
C51_3 C45_3 1_555 1_555
H37_3 C51_3 1_555 1_555
Cd6_2 O13_2 1_555 1_555
Cd10_3 O14_2 1_555 1_555
O16_2 Cd4_2 1_555 1_555
O17_2 Cd1_2 1_555 1_555
O18_2 Cd2_3 1_555 1_555
O19_2 Cd2_3 1_555 1_555
O20_2 Cd4_2 1_555 1_555
O21_2 Cd2_3 1_555 1_555
Cd2_3 O7_2 1_555 1_555
O7_2 C21_3 1_555 1_555
C9_3 C10_3 1_555 1_555
C11_3 C12_3 1_555 1_555
Cd4_2 O12_3 1_555 1_555
Cd4_2 O21_2 1_555 1_555
C50_3 C51_3 1_555 1_555
O4_2 C18_3 1_555 1_555
O5_2 C18_3 1_555 1_555
C18_3 C17_3 1_555 1_555
C19_3 C17_3 1_555 1_555
H12_3 C19_3 1_555 1_555
Cd7_2 O4_2 1_555 1_555
Cd10_3 O5_2 1_555 1_555
O1_4 C1_3 1_555 1_555
N1_3 C4_3 1_555 1_555
N3_3 C25_3 1_555 1_555
C1_3 C2_3 1_555 1_555
C2_3 H1_3 1_555 1_555
C3_3 C2_3 1_555 1_555
C4_3 C3_3 1_555 1_555
C5_3 C4_3 1_555 1_555
H3_3 C5_3 1_555 1_555
C6_3 C1_3 1_555 1_555
H4_3 C6_3 1_555 1_555
H15_3 C24_3 1_555 1_555
H16_3 C25_3 1_555 1_555
C26_3 N3_3 1_555 1_555
H17_3 C26_3 1_555 1_555
H18_3 C26_3 1_555 1_555
H19_3 C26_3 1_555 1_555
C27_3 N3_3 1_555 1_555
H20_3 C27_3 1_555 1_555
H21_3 C27_3 1_555 1_555
H22_3 C27_3 1_555 1_555
O9_3 C40_3 1_555 1_555
O10_3 C40_3 1_555 1_555
C40_3 C41_3 1_555 1_555
C41_3 C42_3 1_555 1_555
C42_3 C24_3 1_555 1_555
H32_3 C42_3 1_555 1_555
N6_3 C52_3 1_555 1_555
H38_3 C52_3 1_555 1_555
C53_3 N6_3 1_555 1_555
H39_3 C53_3 1_555 1_555
H40_3 C53_3 1_555 1_555
H41_3 C53_3 1_555 1_555
C54_3 N6_3 1_555 1_555
H42_3 C54_3 1_555 1_555
H43_3 C54_3 1_555 1_555
H44_3 C54_3 1_555 1_555
Cd6_2 O9_3 1_555 1_555
Cd10_3 O10_3 1_555 1_555
C5_3 C6_3 1_555 1_555
O10_3 Cd6_2 1_555 1_555
C21_4 O20_2 1_555 1_555
C22_4 C21_4 1_555 1_555
C23_4 C22_4 1_555 1_555
H14_4 C23_4 1_555 1_555
C43_4 C23_4 1_555 1_555
H33_4 C43_4 1_555 1_555
O21_2 C21_4 1_555 1_555
H15_4 C24_4 1_555 1_555
O9_4 C40_4 1_555 1_555
O10_4 C40_4 1_555 1_555
C40_4 C41_4 1_555 1_555
C41_4 C42_4 1_555 1_555
C42_4 C24_4 1_555 1_555
H32_4 C42_4 1_555 1_555
Cd7_2 O9_4 1_555 1_555
Cd10_3 O10_4 1_555 1_555
O10_4 Cd7_2 1_555 1_555
O1_5 C1_4 1_555 1_555
N1_4 C4_4 1_555 1_555
N3_4 C25_4 1_555 1_555
C1_4 C2_4 1_555 1_555
C2_4 H1_4 1_555 1_555
C3_4 C2_4 1_555 1_555
C4_4 C3_4 1_555 1_555
C5_4 C4_4 1_555 1_555
H3_4 C5_4 1_555 1_555
C6_4 C1_4 1_555 1_555
H4_4 C6_4 1_555 1_555
H16_4 C25_4 1_555 1_555
C26_4 N3_4 1_555 1_555
H17_4 C26_4 1_555 1_555
H18_4 C26_4 1_555 1_555
H19_4 C26_4 1_555 1_555
C27_4 N3_4 1_555 1_555
H20_4 C27_4 1_555 1_555
H21_4 C27_4 1_555 1_555
H22_4 C27_4 1_555 1_555
N6_4 C52_4 1_555 1_555
H38_4 C52_4 1_555 1_555
C53_4 N6_4 1_555 1_555
H39_4 C53_4 1_555 1_555
H40_4 C53_4 1_555 1_555
H41_4 C53_4 1_555 1_555
C54_4 N6_4 1_555 1_555
H42_4 C54_4 1_555 1_555
H43_4 C54_4 1_555 1_555
H44_4 C54_4 1_555 1_555
C5_4 C6_4 1_555 1_555
O16_2 C18_4 1_555 1_555
O18_2 C18_4 1_555 1_555
C18_4 C17_4 1_555 1_555
C19_4 C17_4 1_555 1_555
H12_4 C19_4 1_555 1_555
Cd6_2 O2_4 1_555 1_555
Cd10_3 O3_4 1_555 1_555
O2_4 C13_4 1_555 1_555
O3_4 Cd6_2 1_555 1_555
O8_4 Cd6_2 1_555 1_555
N2_4 Cd6_2 1_555 1_555
H5_4 C7_4 1_555 1_555
C8_4 C7_4 1_555 1_555
C9_4 C8_4 1_555 1_555
C10_4 N2_4 1_555 1_555
H7_4 C10_4 1_555 1_555
C11_4 N2_4 1_555 1_555
H8_4 C11_4 1_555 1_555
C12_4 C8_4 1_555 1_555
H9_4 C12_4 1_555 1_555
C13_4 O3_4 1_555 1_555
C14_4 C13_4 1_555 1_555
C15_4 C14_4 1_555 1_555
H10_4 C15_4 1_555 1_555
C16_4 C15_4 1_555 1_555
H11_4 C16_4 1_555 1_555
C20_4 C14_4 1_555 1_555
H13_4 C20_4 1_555 1_555
Cd7_2 O11_4 1_555 1_555
O11_4 C44_4 1_555 1_555
O12_4 Cd10_3 1_555 1_555
O17_2 C49_4 1_555 1_555
O19_2 C49_4 1_555 1_555
O15_4 Cd7_2 1_555 1_555
C44_4 O12_4 1_555 1_555
C45_4 C44_4 1_555 1_555
C46_4 C45_4 1_555 1_555
H34_4 C46_4 1_555 1_555
C47_4 C46_4 1_555 1_555
H35_4 C47_4 1_555 1_555
C48_4 C47_4 1_555 1_555
C49_4 C48_4 1_555 1_555
C50_4 C48_4 1_555 1_555
H36_4 C50_4 1_555 1_555
C51_4 C45_4 1_555 1_555
H37_4 C51_4 1_555 1_555
N7_2 Cd7_2 1_555 1_555
C9_4 C10_4 1_555 1_555
C11_4 C12_4 1_555 1_555
Cd7_2 O12_4 1_555 1_555
C50_4 C51_4 1_555 1_555
N4_4 C31_4 1_555 1_555
C28_4 O1_6 1_555 1_555
C29_4 C28_4 1_555 1_555
H23_4 C29_4 1_555 1_555
C30_4 C29_4 1_555 1_555
C31_4 C30_4 1_555 1_555
C32_4 C31_4 1_555 1_555
H25_4 C32_4 1_555 1_555
C33_4 C28_4 1_555 1_555
H26_4 C33_4 1_555 1_555
C32_4 C33_4 1_555 1_555
H27_4 C34_4 1_555 1_555
C35_4 C34_4 1_555 1_555
H30_4 C38_4 1_555 1_555
C39_4 C35_4 1_555 1_555
H31_4 C39_4 1_555 1_555
C38_4 C39_4 1_555 1_555
N7_2 C37_4 1_555 1_555
C37_4 C36_4 1_555 1_555
H29_4 C37_4 1_555 1_555

#END
