
###############################################################################
#
# This file contains modified crystal structure data generated from the
# MOF subset of the Cambridge Structural Database (CSD) v543 
# hosted by the Cambridge Crystallographic Data Centre (CCDC).
#
# This work is licensed under the Creative Commons
# Attribution-NonCommercial-ShareAlike 4.0 International License.
# To view a copy of this license, visit
# http://creativecommons.org/licenses/by-nc-sa/4.0/
# or send a letter to
# Creative Commons, PO Box 1866, Mountain View, CA 94042, USA.
#
# CIF created using the CSD Python API on 29 September 2022
# The structure has been converted into the P1 space group
# The structure has a 3D framework
# The original CSD entry KEQZAJ is in the monoclinic crystal system
# The framework has been calculated to contain at least 10.0% void space
# The void calculation uses a probe of radius 1.32A, grid spacing 0.4
#
###############################################################################

data_KEQZAJ
_chemical_formula_moiety         '(C252 H160 Mn12 N16 O62)n'
_symmetry_cell_setting           triclinic
_symmetry_space_group_name_H-M   'P 1'
_symmetry_Int_Tables_number      1
_space_group_name_Hall           'P 1'
loop_
_symmetry_equiv_pos_site_id
_symmetry_equiv_pos_as_xyz
1 x,y,z
_cell_length_a                   14.2304(18)
_cell_length_b                   17.019(2)
_cell_length_c                   25.805(3)
_cell_angle_alpha                90
_cell_angle_beta                 92.932(2)
_cell_angle_gamma                90
_cell_volume                     6241.46
loop_
_atom_site_label
_atom_site_type_symbol
_atom_site_fract_x
_atom_site_fract_y
_atom_site_fract_z
N1 N 0.13335(10) 0.38276(9) 0.50332(6)
N2 N 0.09842(13) 0.25685(9) 0.55947(7)
O6 O 0.0000 0.04020(10) 0.2500
C19 C -0.00005(13) 0.18154(11) 0.35741(7)
H11 H 0.0291 0.2280 0.3683
C20 C 0.02007(13) 0.15001(11) 0.30994(7)
H12 H 0.0617 0.1751 0.2888
C22 C 0.22944(17) 0.48983(14) 0.47801(10)
H13 H 0.2347 0.5370 0.4602
C23 C 0.30502(19) 0.45839(18) 0.50530(12)
H14 H 0.3630 0.4837 0.5059
C24 C 0.29492(15) 0.38947(17) 0.53171(10)
H15 H 0.3462 0.3673 0.5501
C25 C 0.20737(13) 0.35257(12) 0.53094(8)
C26 C 0.14516(15) 0.44995(12) 0.47742(8)
H16 H 0.0940 0.4707 0.4581
C27 C 0.18844(15) 0.28084(12) 0.56079(8)
C28 C 0.2586(2) 0.24007(18) 0.58839(13)
H17 H 0.3209 0.2563 0.5878
C29 C 0.2353(3) 0.1760(2) 0.61641(16)
H18 H 0.2815 0.1486 0.6357
C30 C 0.1436(4) 0.1520(2) 0.61608(15)
H19 H 0.1266 0.1086 0.6354
C31 C 0.0760(2) 0.19355(15) 0.58631(11)
H20 H 0.0138 0.1766 0.5852
Mn8 Mn 0.2500 0.2500 0.0000
O18 O 0.15939(9) 0.16951(7) 0.04006(5)
O20 O 0.01677(10) 0.22475(9) 0.03985(5)
C46 C 0.02255(12) 0.08081(10) 0.20546(6)
C47 C 0.08680(14) 0.04472(10) 0.17523(7)
C48 C 0.10662(14) 0.07740(11) 0.12782(7)
H30 H 0.1500 0.0531 0.1073
C49 C 0.06270(12) 0.14548(10) 0.11076(6)
C50 C 0.00005(13) 0.18154(11) 0.14259(7)
C52 C 0.08181(13) 0.18253(10) 0.05940(7)
Mn5 Mn 0.007840(18) 0.322870(15) 0.992180(10)
Mn8_2 Mn 0.2500 0.2500 1.0000
Mn1 Mn 0.992160(18) 0.322870(15) 0.507820(10)
Mn2 Mn 0.7500 0.2500 0.5000
O1 O 0.78721(9) 0.34330(7) 0.44692(5)
O2 O 0.93103(10) 0.39510(9) 0.45035(5)
O3 O 0.73595(11) 0.62295(9) 0.28420(5)
O4 O 0.94583(10) 0.61043(8) 0.07394(5)
O5 O 0.86492(9) 0.71842(7) 0.05919(4)
O6_2 O 1.0000 0.04020(10) 0.2500
O7 O 0.84061(9) 0.16951(7) 0.45994(5)
O8 O 0.98323(10) 0.22475(9) 0.46015(5)
C1 C 0.84676(13) 0.39116(10) 0.43284(6)
C2 C 0.81818(12) 0.45051(10) 0.39171(6)
C3 C 0.73117(14) 0.44626(12) 0.36487(7)
H1 H 0.6899 0.4056 0.3717
C4 C 0.70562(15) 0.50255(13) 0.32778(8)
H2 H 0.6479 0.4991 0.3093
C5 C 0.76620(15) 0.56350(12) 0.31856(7)
C6 C 0.85237(15) 0.56877(12) 0.34488(8)
H3 H 0.8929 0.6101 0.3384
C7 C 0.87806(14) 0.51190(11) 0.38109(7)
H4 H 0.9367 0.5149 0.3987
C8 C 0.77672(13) 0.62959(11) 0.23705(7)
C9 C 0.83397(15) 0.57255(12) 0.21731(7)
H5 H 0.8492 0.5276 0.2364
C10 C 0.86827(14) 0.58336(12) 0.16858(7)
H6 H 0.9070 0.5452 0.1551
C11 C 0.84612(12) 0.64991(10) 0.13947(6)
C12 C 0.78788(13) 0.70631(11) 0.15986(7)
H7 H 0.7716 0.7509 0.1406
C13 C 0.75398(14) 0.69641(11) 0.20879(7)
H8 H 0.7159 0.7347 0.2226
C14 C 0.88665(12) 0.65977(10) 0.08780(7)
C15 C 0.97745(12) 0.08081(10) 0.29454(6)
C16 C 0.91320(14) 0.04472(10) 0.32477(7)
C17 C 0.89338(14) 0.07740(11) 0.37218(7)
H10 H 0.8500 0.0531 0.3927
C18 C 0.93730(12) 0.14548(10) 0.38924(6)
C19_2 C 0.99995(13) 0.18154(11) 0.35741(7)
C21 C 0.91819(13) 0.18253(10) 0.44060(7)
Mn3 Mn 0.507840(18) 0.177130(15) 0.492180(10)
Mn4 Mn 0.992160(18) 0.677130(15) 0.007820(10)
Mn7 Mn 0.7500 0.7500 0.0000
N3 N 0.36665(10) 0.11724(9) 0.49668(6)
N4 N 0.40158(13) 0.24315(9) 0.44053(7)
O9 O 0.71279(9) 0.15670(7) 0.55308(5)
O10 O 0.56897(10) 0.10490(9) 0.54965(5)
O13 O 0.94583(10) 0.38957(8) 0.57394(5)
O14 O 0.55417(10) 0.11043(8) 0.42606(5)
O16 O 0.86492(9) 0.28158(7) 0.55919(4)
O17 O 0.63508(9) 0.21842(7) 0.44081(4)
O19 O 0.65939(9) 0.33049(7) 0.54006(5)
O21 O 0.51677(10) 0.27525(9) 0.53985(5)
C32 C 0.65324(13) 0.10884(10) 0.56716(6)
C33 C 0.68182(12) 0.04949(10) 0.60829(6)
C34 C 0.76883(14) 0.05374(12) 0.63513(7)
H21 H 0.8101 0.0944 0.6283
H22 H 0.8521 0.0009 0.6907
C50_2 C 1.00005(13) 0.18154(11) 0.14259(7)
H31 H 0.9709 0.2280 0.1317
C51 C 0.97993(13) 0.15001(11) 0.19006(7)
H32 H 0.9383 0.1751 0.2112
C53 C 0.27056(17) 0.01017(14) 0.52199(10)
C54 C 0.19498(19) 0.04161(18) 0.49470(12)
H34 H 0.1370 0.0163 0.4941
C55 C 0.20508(15) 0.11053(17) 0.46829(10)
H35 H 0.1538 0.1327 0.4499
C56 C 0.29263(13) 0.14743(12) 0.46906(8)
C57 C 0.35484(15) 0.05005(12) 0.52258(8)
H36 H 0.4060 0.0293 0.5419
C58 C 0.31156(15) 0.21916(12) 0.43921(8)
C59 C 0.2414(2) 0.25993(18) 0.41161(13)
H37 H 0.1791 0.2437 0.4122
C60 C 0.2647(3) 0.3240(2) 0.38359(16)
H38 H 0.2185 0.3514 0.3643
C61 C 0.3564(4) 0.3480(2) 0.38392(15)
H39 H 0.3734 0.3914 0.3646
C62 C 0.4240(2) 0.30645(15) 0.41369(11)
H40 H 0.4862 0.3234 0.4148
Mn7_2 Mn 0.7500 0.7500 1.0000
H9 H 0.8833 0.9988 0.3135
Mn6 Mn 0.507840(18) 0.822870(15) 0.992180(10)
O11 O 0.76405(11) 0.87705(9) 0.71580(5)
O12 O 0.55417(10) 0.88957(8) 0.92606(5)
O15 O 0.63508(9) 0.78158(7) 0.94081(4)
C35 C 0.79438(15) 0.99745(13) 0.67222(8)
C36 C 0.73380(15) 0.93650(12) 0.68144(7)
C37 C 0.64763(15) 0.93123(12) 0.65512(8)
H23 H 0.6071 0.8899 0.6616
C38 C 0.62194(14) 0.98810(11) 0.61891(7)
H24 H 0.5633 0.9851 0.6013
C39 C 0.72328(13) 0.87041(11) 0.76295(7)
C40 C 0.66603(15) 0.92745(12) 0.78269(7)
H25 H 0.6508 0.9724 0.7636
C41 C 0.63173(14) 0.91664(12) 0.83142(7)
H26 H 0.5930 0.9548 0.8449
C42 C 0.65388(12) 0.85009(10) 0.86053(6)
C43 C 0.71212(13) 0.79369(11) 0.84014(7)
H27 H 0.7284 0.7491 0.8594
C44 C 0.74602(14) 0.80359(11) 0.79121(7)
H28 H 0.7841 0.7653 0.7774
C45 C 0.61335(12) 0.84023(10) 0.91220(7)
H33 H 0.2653 0.9630 0.5398
O1_2 O 0.21279(9) 0.34330(7) 0.05308(5)
O2_2 O 0.06897(10) 0.39510(9) 0.04965(5)
O3_2 O 0.26405(11) 0.62295(9) 0.21580(5)
O4_2 O 0.05417(10) 0.61043(8) 0.42606(5)
O5_2 O 0.13508(9) 0.71842(7) 0.44081(4)
C1_2 C 0.15324(13) 0.39116(10) 0.06716(6)
C2_2 C 0.18182(12) 0.45051(10) 0.10829(6)
C3_2 C 0.26883(14) 0.44626(12) 0.13513(7)
H1_2 H 0.3101 0.4056 0.1283
C4_2 C 0.29438(15) 0.50255(13) 0.17222(8)
H2_2 H 0.3521 0.4991 0.1907
C5_2 C 0.23380(15) 0.56350(12) 0.18144(7)
C6_2 C 0.14763(15) 0.56877(12) 0.15512(8)
H3_2 H 0.1071 0.6101 0.1616
C7_2 C 0.12194(14) 0.51190(11) 0.11891(7)
H4_2 H 0.0633 0.5149 0.1013
C8_2 C 0.22328(13) 0.62959(11) 0.26295(7)
C9_2 C 0.16603(15) 0.57255(12) 0.28269(7)
H5_2 H 0.1508 0.5276 0.2636
C10_2 C 0.13173(14) 0.58336(12) 0.33142(7)
H6_2 H 0.0930 0.5452 0.3449
C11_2 C 0.15388(12) 0.64991(10) 0.36053(6)
C12_2 C 0.21212(13) 0.70631(11) 0.34014(7)
H7_2 H 0.2284 0.7509 0.3594
C13_2 C 0.24602(14) 0.69641(11) 0.29121(7)
H8_2 H 0.2841 0.7347 0.2774
C14_2 C 0.11335(12) 0.65977(10) 0.41220(7)
Mn3_2 Mn 0.492160(18) 0.177130(15) 0.007820(10)
Mn4_2 Mn 0.007840(18) 0.677130(15) 0.492180(10)
Mn7_3 Mn 0.2500 0.7500 0.5000
N3_2 N 0.63335(10) 0.11724(9) 0.00332(6)
N4_2 N 0.59842(13) 0.24315(9) 0.05947(7)
O14_2 O 0.44583(10) 0.11043(8) 0.07394(5)
O17_2 O 0.36492(9) 0.21842(7) 0.05919(4)
C54_2 C 0.80502(19) 0.04161(18) 0.00530(12)
H34_2 H 0.8630 0.0163 0.0059
C55_2 C 0.79492(15) 0.11053(17) 0.03171(10)
H35_2 H 0.8462 0.1327 0.0501
C56_2 C 0.70737(13) 0.14743(12) 0.03094(8)
C58_2 C 0.68844(15) 0.21916(12) 0.06079(8)
C59_2 C 0.7586(2) 0.25993(18) 0.08839(13)
H37_2 H 0.8209 0.2437 0.0878
C60_2 C 0.7353(3) 0.3240(2) 0.11641(16)
H38_2 H 0.7815 0.3514 0.1357
C61_2 C 0.6436(4) 0.3480(2) 0.11608(15)
H39_2 H 0.6266 0.3914 0.1354
C62_2 C 0.5760(2) 0.30645(15) 0.08631(11)
H40_2 H 0.5138 0.3234 0.0852
O9_2 O 0.28721(9) 0.15670(7) 0.94692(5)
O10_2 O 0.43103(10) 0.10490(9) 0.95035(5)
O13_2 O 0.05417(10) 0.38957(8) 0.92606(5)
O16_2 O 0.13508(9) 0.28158(7) 0.94081(4)
O19_2 O 0.34061(9) 0.33049(7) 0.95994(5)
O21_2 O 0.48323(10) 0.27525(9) 0.96015(5)
C32_2 C 0.34676(13) 0.10884(10) 0.93284(6)
C33_2 C 0.31818(12) 0.04949(10) 0.89171(6)
C34_2 C 0.23117(14) 0.05374(12) 0.86487(7)
H21_2 H 0.1899 0.0944 0.8717
H22_2 H 0.1479 0.0009 0.8093
C53_2 C 0.72944(17) 0.01017(14) 0.97801(10)
C57_2 C 0.64516(15) 0.05005(12) 0.97742(8)
H36_2 H 0.5940 0.0293 0.9581
Mn6_2 Mn 0.492160(18) 0.822870(15) 0.507820(10)
O11_2 O 0.23595(11) 0.87705(9) 0.78420(5)
O12_2 O 0.44583(10) 0.88957(8) 0.57394(5)
O15_2 O 0.36492(9) 0.78158(7) 0.55919(4)
C35_2 C 0.20562(15) 0.99745(13) 0.82778(8)
C36_2 C 0.26620(15) 0.93650(12) 0.81856(7)
C37_2 C 0.35237(15) 0.93123(12) 0.84488(8)
H23_2 H 0.3929 0.8899 0.8384
C38_2 C 0.37806(14) 0.98810(11) 0.88109(7)
H24_2 H 0.4367 0.9851 0.8987
C39_2 C 0.27672(13) 0.87041(11) 0.73705(7)
C40_2 C 0.33397(15) 0.92745(12) 0.71731(7)
H25_2 H 0.3492 0.9724 0.7364
C41_2 C 0.36827(14) 0.91664(12) 0.66858(7)
H26_2 H 0.4070 0.9548 0.6551
C42_2 C 0.34612(12) 0.85009(10) 0.63947(6)
C43_2 C 0.28788(13) 0.79369(11) 0.65986(7)
H27_2 H 0.2716 0.7491 0.6406
C44_2 C 0.25398(14) 0.80359(11) 0.70879(7)
H28_2 H 0.2159 0.7653 0.7226
C45_2 C 0.38665(12) 0.84023(10) 0.58780(7)
H33_2 H 0.7347 0.9630 0.9602
C22_2 C 0.77056(17) 0.48983(14) 0.02199(10)
H13_2 H 0.7653 0.5370 0.0398
C26_2 C 0.85484(15) 0.44995(12) 0.02258(8)
H16_2 H 0.9060 0.4707 0.0419
O3_3 O 0.23595(11) 0.12295(9) 0.28420(5)
C4_3 C 0.20562(15) 0.00255(13) 0.32778(8)
C5_3 C 0.26620(15) 0.06350(12) 0.31856(7)
C6_3 C 0.35237(15) 0.06877(12) 0.34488(8)
H3_3 H 0.3929 0.1101 0.3384
C7_3 C 0.37806(14) 0.01190(11) 0.38109(7)
H4_3 H 0.4367 0.0149 0.3987
C8_3 C 0.27672(13) 0.12959(11) 0.23705(7)
C9_3 C 0.33397(15) 0.07255(12) 0.21731(7)
H5_3 H 0.3492 0.0276 0.2364
C10_3 C 0.36827(14) 0.08336(12) 0.16858(7)
H6_3 H 0.4070 0.0452 0.1551
C11_3 C 0.34612(12) 0.14991(10) 0.13947(6)
C12_3 C 0.28788(13) 0.20631(11) 0.15986(7)
H7_3 H 0.2716 0.2509 0.1406
C13_3 C 0.25398(14) 0.19641(11) 0.20879(7)
H8_3 H 0.2159 0.2347 0.2226
C14_3 C 0.38665(12) 0.15977(10) 0.08780(7)
H13_3 H 0.7347 0.0370 0.4602
N1_2 N 0.63335(10) 0.88276(9) 0.50332(6)
N2_2 N 0.59842(13) 0.75685(9) 0.55947(7)
O1_3 O 0.28721(9) 0.84330(7) 0.44692(5)
O2_3 O 0.43103(10) 0.89510(9) 0.45035(5)
O6_3 O 0.5000 0.54020(10) 0.2500
O7_2 O 0.34061(9) 0.66951(7) 0.45994(5)
O8_2 O 0.48323(10) 0.72475(9) 0.46015(5)
C1_3 C 0.34676(13) 0.89116(10) 0.43284(6)
C2_3 C 0.31818(12) 0.95051(10) 0.39171(6)
C3_3 C 0.23117(14) 0.94626(12) 0.36487(7)
H1_3 H 0.1899 0.9056 0.3717
H2_3 H 0.1479 0.9991 0.3093
C15_2 C 0.47745(12) 0.58081(10) 0.29454(6)
C16_2 C 0.41320(14) 0.54472(10) 0.32477(7)
H9_2 H 0.3833 0.4988 0.3135
C17_2 C 0.39338(14) 0.57740(11) 0.37218(7)
H10_2 H 0.3500 0.5531 0.3927
C18_2 C 0.43730(12) 0.64548(10) 0.38924(6)
C19_3 C 0.49995(13) 0.68154(11) 0.35741(7)
H11_2 H 0.5291 0.7280 0.3683
C20_2 C 0.52007(13) 0.65001(11) 0.30994(7)
H12_2 H 0.5617 0.6751 0.2888
C21_2 C 0.41819(13) 0.68253(10) 0.44060(7)
C22_3 C 0.72944(17) 0.98983(14) 0.47801(10)
C23_2 C 0.80502(19) 0.95839(18) 0.50530(12)
H14_2 H 0.8630 0.9837 0.5059
C24_2 C 0.79492(15) 0.88947(17) 0.53171(10)
H15_2 H 0.8462 0.8673 0.5501
C25_2 C 0.70737(13) 0.85257(12) 0.53094(8)
C26_3 C 0.64516(15) 0.94995(12) 0.47742(8)
H16_3 H 0.5940 0.9707 0.4581
C27_2 C 0.68844(15) 0.78084(12) 0.56079(8)
C28_2 C 0.7586(2) 0.74007(18) 0.58839(13)
H17_2 H 0.8209 0.7563 0.5878
C29_2 C 0.7353(3) 0.6760(2) 0.61641(16)
H18_2 H 0.7815 0.6486 0.6357
C30_2 C 0.6436(4) 0.6520(2) 0.61608(15)
H19_2 H 0.6266 0.6086 0.6354
C31_2 C 0.5760(2) 0.69355(15) 0.58631(11)
H20_2 H 0.5138 0.6766 0.5852
O9_3 O 0.21279(9) 0.65670(7) 0.55308(5)
O10_3 O 0.06897(10) 0.60490(9) 0.54965(5)
O11_3 O 0.26405(11) 0.37705(9) 0.71580(5)
O18_2 O 0.65939(9) 0.66951(7) 0.04006(5)
O19_3 O 0.15939(9) 0.83049(7) 0.54006(5)
O20_2 O 0.51677(10) 0.72475(9) 0.03985(5)
O21_3 O 0.01677(10) 0.77525(9) 0.53985(5)
C32_3 C 0.15324(13) 0.60884(10) 0.56716(6)
C33_3 C 0.18182(12) 0.54949(10) 0.60829(6)
C34_3 C 0.26883(14) 0.55374(12) 0.63513(7)
H21_3 H 0.3101 0.5944 0.6283
C35_3 C 0.29438(15) 0.49745(13) 0.67222(8)
H22_3 H 0.3521 0.5009 0.6907
C36_3 C 0.23380(15) 0.43650(12) 0.68144(7)
C37_3 C 0.14763(15) 0.43123(12) 0.65512(8)
H23_3 H 0.1071 0.3899 0.6616
C38_3 C 0.12194(14) 0.48810(11) 0.61891(7)
H24_3 H 0.0633 0.4851 0.6013
C39_3 C 0.22328(13) 0.37041(11) 0.76295(7)
C40_3 C 0.16603(15) 0.42745(12) 0.78269(7)
H25_3 H 0.1508 0.4724 0.7636
C41_3 C 0.13173(14) 0.41664(12) 0.83142(7)
H26_3 H 0.0930 0.4548 0.8449
C42_3 C 0.15388(12) 0.35009(10) 0.86053(6)
C43_3 C 0.21212(13) 0.29369(11) 0.84014(7)
H27_3 H 0.2284 0.2491 0.8594
C44_3 C 0.24602(14) 0.30359(11) 0.79121(7)
H28_3 H 0.2841 0.2653 0.7774
C45_3 C 0.11335(12) 0.34023(10) 0.91220(7)
C46_2 C 0.52255(12) 0.58081(10) 0.20546(6)
C47_2 C 0.58680(14) 0.54472(10) 0.17523(7)
H29 H 0.6167 0.4988 0.1865
C48_2 C 0.60662(14) 0.57740(11) 0.12782(7)
H30_2 H 0.6500 0.5531 0.1073
C49_2 C 0.56270(12) 0.64548(10) 0.11076(6)
C50_3 C 0.50005(13) 0.68154(11) 0.14259(7)
H31_2 H 0.4709 0.7280 0.1317
C51_2 C 0.47993(13) 0.65001(11) 0.19006(7)
H32_2 H 0.4383 0.6751 0.2112
C52_2 C 0.58181(13) 0.68253(10) 0.05940(7)
N3_3 N 0.86665(10) 0.61724(9) 0.49668(6)
N4_3 N 0.90158(13) 0.74315(9) 0.44053(7)
C53_3 C 0.77056(17) 0.51017(14) 0.52199(10)
H33_3 H 0.7653 0.4630 0.5398
C54_3 C 0.69498(19) 0.54161(18) 0.49470(12)
H34_3 H 0.6370 0.5163 0.4941
C55_3 C 0.70508(15) 0.61053(17) 0.46829(10)
H35_3 H 0.6538 0.6327 0.4499
C56_3 C 0.79263(13) 0.64743(12) 0.46906(8)
C57_3 C 0.85484(15) 0.55005(12) 0.52258(8)
H36_3 H 0.9060 0.5293 0.5419
C58_3 C 0.81156(15) 0.71916(12) 0.43921(8)
C59_3 C 0.7414(2) 0.75993(18) 0.41161(13)
H37_3 H 0.6791 0.7437 0.4122
C60_3 C 0.7647(3) 0.8240(2) 0.38359(16)
H38_3 H 0.7185 0.8514 0.3643
C61_3 C 0.8564(4) 0.8480(2) 0.38392(15)
H39_3 H 0.8734 0.8914 0.3646
C62_3 C 0.9240(2) 0.80645(15) 0.41369(11)
H40_3 H 0.9862 0.8234 0.4148
C53_4 C 0.22944(17) 0.51017(14) 0.97801(10)
H33_4 H 0.2347 0.4630 0.9602
C57_4 C 0.14516(15) 0.55005(12) 0.97742(8)
H36_4 H 0.0940 0.5293 0.9581
O3_4 O 0.76405(11) 0.12295(9) 0.21580(5)
C4_4 C 0.79438(15) 0.00255(13) 0.17222(8)
C5_4 C 0.73380(15) 0.06350(12) 0.18144(7)
C6_4 C 0.64763(15) 0.06877(12) 0.15512(8)
H3_4 H 0.6071 0.1101 0.1616
C7_4 C 0.62194(14) 0.01190(11) 0.11891(7)
H4_4 H 0.5633 0.0149 0.1013
C8_4 C 0.72328(13) 0.12959(11) 0.26295(7)
C9_4 C 0.66603(15) 0.07255(12) 0.28269(7)
H5_4 H 0.6508 0.0276 0.2636
C10_4 C 0.63173(14) 0.08336(12) 0.33142(7)
H6_4 H 0.5930 0.0452 0.3449
C11_4 C 0.65388(12) 0.14991(10) 0.36053(6)
C12_4 C 0.71212(13) 0.20631(11) 0.34014(7)
H7_4 H 0.7284 0.2509 0.3594
C13_4 C 0.74602(14) 0.19641(11) 0.29121(7)
H8_4 H 0.7841 0.2347 0.2774
C14_4 C 0.61335(12) 0.15977(10) 0.41220(7)
H13_4 H 0.2653 0.0370 0.0398
O1_4 O 0.71279(9) 0.84330(7) 0.05308(5)
O2_4 O 0.56897(10) 0.89510(9) 0.04965(5)
C1_4 C 0.65324(13) 0.89116(10) 0.06716(6)
C2_4 C 0.68182(12) 0.95051(10) 0.10829(6)
C3_4 C 0.76883(14) 0.94626(12) 0.13513(7)
H1_4 H 0.8101 0.9056 0.1283
H2_4 H 0.8521 0.9991 0.1907
C22_4 C 0.27056(17) 0.98983(14) 0.02199(10)
C26_4 C 0.35484(15) 0.94995(12) 0.02258(8)
H16_4 H 0.4060 0.9707 0.0419
N1_3 N 0.36665(10) 0.88276(9) 0.99668(6)
N2_3 N 0.40158(13) 0.75685(9) 0.94053(7)
C23_3 C 0.19498(19) 0.95839(18) 0.99470(12)
H14_3 H 0.1370 0.9837 0.9941
C24_3 C 0.20508(15) 0.88947(17) 0.96829(10)
H15_3 H 0.1538 0.8673 0.9499
C25_3 C 0.29263(13) 0.85257(12) 0.96906(8)
C27_3 C 0.31156(15) 0.78084(12) 0.93921(8)
C28_3 C 0.2414(2) 0.74007(18) 0.91161(13)
H17_3 H 0.1791 0.7563 0.9122
C29_3 C 0.2647(3) 0.6760(2) 0.88359(16)
H18_3 H 0.2185 0.6486 0.8643
C30_3 C 0.3564(4) 0.6520(2) 0.88392(15)
H19_3 H 0.3734 0.6086 0.8646
C31_3 C 0.4240(2) 0.69355(15) 0.91369(11)
H20_3 H 0.4862 0.6766 0.9148
O9_4 O 0.78721(9) 0.65670(7) 0.94692(5)
O10_4 O 0.93103(10) 0.60490(9) 0.95035(5)
O11_4 O 0.73595(11) 0.37705(9) 0.78420(5)
O19_4 O 0.84061(9) 0.83049(7) 0.95994(5)
O21_4 O 0.98323(10) 0.77525(9) 0.96015(5)
C32_4 C 0.84676(13) 0.60884(10) 0.93284(6)
C33_4 C 0.81818(12) 0.54949(10) 0.89171(6)
C34_4 C 0.73117(14) 0.55374(12) 0.86487(7)
H21_4 H 0.6899 0.5944 0.8717
C35_4 C 0.70562(15) 0.49745(13) 0.82778(8)
H22_4 H 0.6479 0.5009 0.8093
C36_4 C 0.76620(15) 0.43650(12) 0.81856(7)
C37_4 C 0.85237(15) 0.43123(12) 0.84488(8)
H23_4 H 0.8929 0.3899 0.8384
C38_4 C 0.87806(14) 0.48810(11) 0.88109(7)
H24_4 H 0.9367 0.4851 0.8987
C39_4 C 0.77672(13) 0.37041(11) 0.73705(7)
C40_4 C 0.83397(15) 0.42745(12) 0.71731(7)
H25_4 H 0.8492 0.4724 0.7364
C41_4 C 0.86827(14) 0.41664(12) 0.66858(7)
H26_4 H 0.9070 0.4548 0.6551
C42_4 C 0.84612(12) 0.35009(10) 0.63947(6)
C43_4 C 0.78788(13) 0.29369(11) 0.65986(7)
H27_4 H 0.7716 0.2491 0.6406
C44_4 C 0.75398(14) 0.30359(11) 0.70879(7)
H28_4 H 0.7159 0.2653 0.7226
C45_4 C 0.88665(12) 0.34023(10) 0.58780(7)
H9_3 H 0.1167 0.0012 0.6865
O6_4 O 0.0000 0.95980(10) 0.7500
C15_3 C 0.02255(12) 0.91919(10) 0.70546(6)
C16_3 C 0.08680(14) 0.95528(10) 0.67523(7)
C17_3 C 0.10662(14) 0.92260(11) 0.62782(7)
H10_3 H 0.1500 0.9469 0.6073
C18_3 C 0.06270(12) 0.85452(10) 0.61076(6)
C19_4 C 0.00005(13) 0.81846(11) 0.64259(7)
C21_3 C 0.08181(13) 0.81747(10) 0.55940(7)
C50_4 C -0.00005(13) 0.81846(11) 0.85741(7)
H31_3 H 0.0291 0.7720 0.8683
C51_3 C 0.02007(13) 0.84999(11) 0.80994(7)
H32_3 H 0.0617 0.8249 0.7888
O6_5 O 1.0000 0.95980(10) 0.7500
C19_5 C 1.00005(13) 0.81846(11) 0.64259(7)
H11_3 H 0.9709 0.7720 0.6317
C20_3 C 0.97993(13) 0.84999(11) 0.69006(7)
H12_3 H 0.9383 0.8249 0.7112
C46_3 C 0.97745(12) 0.91919(10) 0.79454(6)
C47_3 C 0.91320(14) 0.95528(10) 0.82477(7)
C48_3 C 0.89338(14) 0.92260(11) 0.87218(7)
H30_3 H 0.8500 0.9469 0.8927
C49_3 C 0.93730(12) 0.85452(10) 0.88924(6)
C50_5 C 0.99995(13) 0.81846(11) 0.85741(7)
C52_3 C 0.91819(13) 0.81747(10) 0.94060(7)
O6_6 O 0.5000 0.45980(10) 0.7500
C15_4 C 0.52255(12) 0.41919(10) 0.70546(6)
C16_4 C 0.58680(14) 0.45528(10) 0.67523(7)
H9_4 H 0.6167 0.5012 0.6865
C17_4 C 0.60662(14) 0.42260(11) 0.62782(7)
H10_4 H 0.6500 0.4469 0.6073
C18_4 C 0.56270(12) 0.35452(10) 0.61076(6)
C19_6 C 0.50005(13) 0.31846(11) 0.64259(7)
H11_4 H 0.4709 0.2720 0.6317
C20_4 C 0.47993(13) 0.34999(11) 0.69006(7)
H12_4 H 0.4383 0.3249 0.7112
C21_4 C 0.58181(13) 0.31747(10) 0.55940(7)
C46_4 C 0.47745(12) 0.41919(10) 0.79454(6)
C47_4 C 0.41320(14) 0.45528(10) 0.82477(7)
H29_2 H 0.3833 0.5012 0.8135
C48_4 C 0.39338(14) 0.42260(11) 0.87218(7)
H30_4 H 0.3500 0.4469 0.8927
C49_4 C 0.43730(12) 0.35452(10) 0.88924(6)
C50_6 C 0.49995(13) 0.31846(11) 0.85741(7)
H31_4 H 0.5291 0.2720 0.8683
C51_4 C 0.52007(13) 0.34999(11) 0.80994(7)
H32_4 H 0.5617 0.3249 0.7888
C52_4 C 0.41819(13) 0.31747(10) 0.94060(7)
H29_3 H 0.1167 0.9988 0.1865
N1_4 N 0.86665(10) 0.38276(9) 0.99668(6)
N2_4 N 0.90158(13) 0.25685(9) 0.94053(7)
C23_4 C 0.69498(19) 0.45839(18) 0.99470(12)
H14_4 H 0.6370 0.4837 0.9941
C24_4 C 0.70508(15) 0.38947(17) 0.96829(10)
H15_4 H 0.6538 0.3673 0.9499
C25_4 C 0.79263(13) 0.35257(12) 0.96906(8)
C27_4 C 0.81156(15) 0.28084(12) 0.93921(8)
C28_4 C 0.7414(2) 0.24007(18) 0.91161(13)
H17_4 H 0.6791 0.2563 0.9122
C29_4 C 0.7647(3) 0.1760(2) 0.88359(16)
H18_4 H 0.7185 0.1486 0.8643
C30_4 C 0.8564(4) 0.1520(2) 0.88392(15)
H19_4 H 0.8734 0.1086 0.8646
C31_4 C 0.9240(2) 0.19355(15) 0.91369(11)
H20_4 H 0.9862 0.1766 0.9148
N3_4 N 0.13335(10) 0.61724(9) 0.00332(6)
N4_4 N 0.09842(13) 0.74315(9) 0.05947(7)
C54_4 C 0.30502(19) 0.54161(18) 0.00530(12)
H34_4 H 0.3630 0.5163 0.0059
C55_4 C 0.29492(15) 0.61053(17) 0.03171(10)
H35_4 H 0.3462 0.6327 0.0501
C56_4 C 0.20737(13) 0.64743(12) 0.03094(8)
C58_4 C 0.18844(15) 0.71916(12) 0.06079(8)
C59_4 C 0.2586(2) 0.75993(18) 0.08839(13)
H37_4 H 0.3209 0.7437 0.0878
C60_4 C 0.2353(3) 0.8240(2) 0.11641(16)
H38_4 H 0.2815 0.8514 0.1357
C61_4 C 0.1436(4) 0.8480(2) 0.11608(15)
H39_4 H 0.1266 0.8914 0.1354
C62_4 C 0.0760(2) 0.80645(15) 0.08631(11)
H40_4 H 0.0138 0.8234 0.0852
H29_4 H 0.8833 0.0012 0.8135
loop_
_geom_bond_atom_site_label_1
_geom_bond_atom_site_label_2
_geom_bond_site_symmetry_1
_geom_bond_site_symmetry_2
N1 C25 1_555 1_555
H11 C19 1_555 1_555
H12 C20 1_555 1_555
C22 H13 1_555 1_555
C23 C22 1_555 1_555
H14 C23 1_555 1_555
C24 C23 1_555 1_555
H15 C24 1_555 1_555
C25 C24 1_555 1_555
C26 N1 1_555 1_555
H16 C26 1_555 1_555
C27 N2 1_555 1_555
C28 C27 1_555 1_555
H17 C28 1_555 1_555
C29 C28 1_555 1_555
H18 C29 1_555 1_555
C30 C29 1_555 1_555
H19 C30 1_555 1_555
C31 N2 1_555 1_555
H20 C31 1_555 1_555
Mn8 O18 1_555 1_555
O18 C52 1_555 1_555
O20 C52 1_555 1_555
C46 O6 1_555 1_555
C47 C46 1_555 1_555
C48 C47 1_555 1_555
H30 C48 1_555 1_555
C49 C48 1_555 1_555
C50 C49 1_555 1_555
C52 C49 1_555 1_555
C19 C20 1_555 1_555
C22 C26 1_555 1_555
C25 C27 1_555 1_555
C30 C31 1_555 1_555
Mn2 O1 1_555 1_555
O1 C1 1_555 1_555
O2 Mn1 1_555 1_555
O3 C5 1_555 1_555
O4 C14 1_555 1_555
O5 C14 1_555 1_555
O6_2 C15 1_555 1_555
O7 Mn2 1_555 1_555
O8 Mn1 1_555 1_555
C1 O2 1_555 1_555
C2 C1 1_555 1_555
C3 C2 1_555 1_555
H1 C3 1_555 1_555
C4 C3 1_555 1_555
H2 C4 1_555 1_555
C5 C4 1_555 1_555
C6 C5 1_555 1_555
H3 C6 1_555 1_555
C7 C2 1_555 1_555
H4 C7 1_555 1_555
C8 O3 1_555 1_555
C9 C8 1_555 1_555
H5 C9 1_555 1_555
C10 C9 1_555 1_555
H6 C10 1_555 1_555
C11 C10 1_555 1_555
C12 C11 1_555 1_555
H7 C12 1_555 1_555
C13 C8 1_555 1_555
H8 C13 1_555 1_555
C14 C11 1_555 1_555
C15 C16 1_555 1_555
C17 C16 1_555 1_555
H10 C17 1_555 1_555
C18 C17 1_555 1_555
C19_2 C18 1_555 1_555
C21 O7 1_555 1_555
Mn3 N3 1_555 1_555
Mn4 O4 1_555 1_555
Mn7 O5 1_555 1_555
N3 C56 1_555 1_555
N4 Mn3 1_555 1_555
O9 Mn2 1_555 1_555
O10 Mn3 1_555 1_555
O13 Mn1 1_555 1_555
O14 Mn3 1_555 1_555
O16 Mn1 1_555 1_555
O17 Mn2 1_555 1_555
O19 Mn2 1_555 1_555
O21 Mn3 1_555 1_555
C32 O9 1_555 1_555
C33 C32 1_555 1_555
C34 C33 1_555 1_555
H21 C34 1_555 1_555
H31 C50_2 1_555 1_555
H32 C51 1_555 1_555
C54 C53 1_555 1_555
H34 C54 1_555 1_555
C55 C54 1_555 1_555
H35 C55 1_555 1_555
C56 C55 1_555 1_555
C57 N3 1_555 1_555
H36 C57 1_555 1_555
C58 N4 1_555 1_555
C59 C58 1_555 1_555
H37 C59 1_555 1_555
C60 C59 1_555 1_555
H38 C60 1_555 1_555
C61 C60 1_555 1_555
H39 C61 1_555 1_555
C62 N4 1_555 1_555
H40 C62 1_555 1_555
Mn2 O16 1_555 1_555
O5 Mn4 1_555 1_555
O8 C21 1_555 1_555
C6 C7 1_555 1_555
C12 C13 1_555 1_555
C18 C21 1_555 1_555
Mn3 O17 1_555 1_555
O10 C32 1_555 1_555
C50_2 C51 1_555 1_555
C53 C57 1_555 1_555
C56 C58 1_555 1_555
C61 C62 1_555 1_555
Mn6 O12 1_555 1_555
Mn7_2 O15 1_555 1_555
O11 C36 1_555 1_555
O12 C45 1_555 1_555
O15 Mn6 1_555 1_555
C36 C35 1_555 1_555
C37 C36 1_555 1_555
H23 C37 1_555 1_555
H24 C38 1_555 1_555
C39 O11 1_555 1_555
C40 C39 1_555 1_555
H25 C40 1_555 1_555
C41 C40 1_555 1_555
H26 C41 1_555 1_555
C42 C41 1_555 1_555
C43 C42 1_555 1_555
H27 C43 1_555 1_555
C44 C39 1_555 1_555
H28 C44 1_555 1_555
C45 O15 1_555 1_555
C37 C38 1_555 1_555
C42 C45 1_555 1_555
C43 C44 1_555 1_555
Mn8 O1_2 1_555 1_555
O1_2 C1_2 1_555 1_555
O3_2 C5_2 1_555 1_555
O4_2 C14_2 1_555 1_555
O5_2 C14_2 1_555 1_555
C1_2 O2_2 1_555 1_555
C2_2 C1_2 1_555 1_555
C3_2 C2_2 1_555 1_555
H1_2 C3_2 1_555 1_555
C4_2 C3_2 1_555 1_555
H2_2 C4_2 1_555 1_555
C5_2 C4_2 1_555 1_555
C6_2 C5_2 1_555 1_555
H3_2 C6_2 1_555 1_555
C7_2 C2_2 1_555 1_555
H4_2 C7_2 1_555 1_555
C8_2 O3_2 1_555 1_555
C9_2 C8_2 1_555 1_555
H5_2 C9_2 1_555 1_555
C10_2 C9_2 1_555 1_555
H6_2 C10_2 1_555 1_555
C11_2 C10_2 1_555 1_555
C12_2 C11_2 1_555 1_555
H7_2 C12_2 1_555 1_555
C13_2 C8_2 1_555 1_555
H8_2 C13_2 1_555 1_555
C14_2 C11_2 1_555 1_555
Mn3_2 N3_2 1_555 1_555
Mn4_2 O4_2 1_555 1_555
Mn7_3 O5_2 1_555 1_555
N3_2 C56_2 1_555 1_555
N4_2 Mn3_2 1_555 1_555
O14_2 Mn3_2 1_555 1_555
O17_2 Mn8 1_555 1_555
H34_2 C54_2 1_555 1_555
C55_2 C54_2 1_555 1_555
H35_2 C55_2 1_555 1_555
C56_2 C55_2 1_555 1_555
C58_2 N4_2 1_555 1_555
C59_2 C58_2 1_555 1_555
H37_2 C59_2 1_555 1_555
C60_2 C59_2 1_555 1_555
H38_2 C60_2 1_555 1_555
C61_2 C60_2 1_555 1_555
H39_2 C61_2 1_555 1_555
C62_2 N4_2 1_555 1_555
H40_2 C62_2 1_555 1_555
O5_2 Mn4_2 1_555 1_555
C6_2 C7_2 1_555 1_555
C12_2 C13_2 1_555 1_555
Mn3_2 O17_2 1_555 1_555
C56_2 C58_2 1_555 1_555
C61_2 C62_2 1_555 1_555
O9_2 Mn8_2 1_555 1_555
O13_2 Mn5 1_555 1_555
O16_2 Mn5 1_555 1_555
O19_2 Mn8_2 1_555 1_555
C32_2 O9_2 1_555 1_555
C33_2 C32_2 1_555 1_555
C34_2 C33_2 1_555 1_555
H21_2 C34_2 1_555 1_555
H36_2 C57_2 1_555 1_555
Mn8_2 O16_2 1_555 1_555
O10_2 C32_2 1_555 1_555
C53_2 C57_2 1_555 1_555
Mn6_2 O12_2 1_555 1_555
Mn7_3 O15_2 1_555 1_555
O11_2 C36_2 1_555 1_555
O12_2 C45_2 1_555 1_555
O15_2 Mn6_2 1_555 1_555
C36_2 C35_2 1_555 1_555
C37_2 C36_2 1_555 1_555
H23_2 C37_2 1_555 1_555
H24_2 C38_2 1_555 1_555
C39_2 O11_2 1_555 1_555
C40_2 C39_2 1_555 1_555
H25_2 C40_2 1_555 1_555
C41_2 C40_2 1_555 1_555
H26_2 C41_2 1_555 1_555
C42_2 C41_2 1_555 1_555
C43_2 C42_2 1_555 1_555
H27_2 C43_2 1_555 1_555
C44_2 C39_2 1_555 1_555
H28_2 C44_2 1_555 1_555
C45_2 O15_2 1_555 1_555
C37_2 C38_2 1_555 1_555
C42_2 C45_2 1_555 1_555
C43_2 C44_2 1_555 1_555
C22_2 H13_2 1_555 1_555
H16_2 C26_2 1_555 1_555
C22_2 C26_2 1_555 1_555
O3_3 C5_3 1_555 1_555
O14_2 C14_3 1_555 1_555
O17_2 C14_3 1_555 1_555
C5_3 C4_3 1_555 1_555
C6_3 C5_3 1_555 1_555
H3_3 C6_3 1_555 1_555
H4_3 C7_3 1_555 1_555
C8_3 O3_3 1_555 1_555
C9_3 C8_3 1_555 1_555
H5_3 C9_3 1_555 1_555
C10_3 C9_3 1_555 1_555
H6_3 C10_3 1_555 1_555
C11_3 C10_3 1_555 1_555
C12_3 C11_3 1_555 1_555
H7_3 C12_3 1_555 1_555
C13_3 C8_3 1_555 1_555
H8_3 C13_3 1_555 1_555
C14_3 C11_3 1_555 1_555
C6_3 C7_3 1_555 1_555
C12_3 C13_3 1_555 1_555
Mn6_2 N1_2 1_555 1_555
Mn7_3 O1_3 1_555 1_555
N1_2 C25_2 1_555 1_555
N2_2 Mn6_2 1_555 1_555
O1_3 C1_3 1_555 1_555
O2_3 Mn6_2 1_555 1_555
O6_3 C15_2 1_555 1_555
O7_2 Mn7_3 1_555 1_555
O8_2 Mn6_2 1_555 1_555
C1_3 O2_3 1_555 1_555
C2_3 C1_3 1_555 1_555
C3_3 C2_3 1_555 1_555
H1_3 C3_3 1_555 1_555
C15_2 C16_2 1_555 1_555
C16_2 H9_2 1_555 1_555
C17_2 C16_2 1_555 1_555
H10_2 C17_2 1_555 1_555
C18_2 C17_2 1_555 1_555
C19_3 C18_2 1_555 1_555
H11_2 C19_3 1_555 1_555
C20_2 C15_2 1_555 1_555
H12_2 C20_2 1_555 1_555
C21_2 O7_2 1_555 1_555
C23_2 C22_3 1_555 1_555
H14_2 C23_2 1_555 1_555
C24_2 C23_2 1_555 1_555
H15_2 C24_2 1_555 1_555
C25_2 C24_2 1_555 1_555
C26_3 N1_2 1_555 1_555
H16_3 C26_3 1_555 1_555
C27_2 N2_2 1_555 1_555
C28_2 C27_2 1_555 1_555
H17_2 C28_2 1_555 1_555
C29_2 C28_2 1_555 1_555
H18_2 C29_2 1_555 1_555
C30_2 C29_2 1_555 1_555
H19_2 C30_2 1_555 1_555
C31_2 N2_2 1_555 1_555
H20_2 C31_2 1_555 1_555
Mn7 O18_2 1_555 1_555
O9_3 Mn7_3 1_555 1_555
O10_3 Mn4_2 1_555 1_555
O11_3 C36_3 1_555 1_555
O13_2 C45_3 1_555 1_555
O18_2 C52_2 1_555 1_555
O19_3 Mn7_3 1_555 1_555
O20_2 C52_2 1_555 1_555
O21_3 Mn4_2 1_555 1_555
C32_3 O9_3 1_555 1_555
C33_3 C32_3 1_555 1_555
C34_3 C33_3 1_555 1_555
H21_3 C34_3 1_555 1_555
C35_3 C34_3 1_555 1_555
H22_3 C35_3 1_555 1_555
C36_3 C35_3 1_555 1_555
C37_3 C36_3 1_555 1_555
H23_3 C37_3 1_555 1_555
C38_3 C33_3 1_555 1_555
H24_3 C38_3 1_555 1_555
C39_3 O11_3 1_555 1_555
C40_3 C39_3 1_555 1_555
H25_3 C40_3 1_555 1_555
C41_3 C40_3 1_555 1_555
H26_3 C41_3 1_555 1_555
C42_3 C41_3 1_555 1_555
C43_3 C42_3 1_555 1_555
H27_3 C43_3 1_555 1_555
C44_3 C39_3 1_555 1_555
H28_3 C44_3 1_555 1_555
C45_3 O16_2 1_555 1_555
C46_2 O6_3 1_555 1_555
C47_2 C46_2 1_555 1_555
H29 C47_2 1_555 1_555
C48_2 C47_2 1_555 1_555
H30_2 C48_2 1_555 1_555
C49_2 C48_2 1_555 1_555
C50_3 C49_2 1_555 1_555
H31_2 C50_3 1_555 1_555
C51_2 C46_2 1_555 1_555
H32_2 C51_2 1_555 1_555
C52_2 C49_2 1_555 1_555
O8_2 C21_2 1_555 1_555
C18_2 C21_2 1_555 1_555
C19_3 C20_2 1_555 1_555
C22_3 C26_3 1_555 1_555
C25_2 C27_2 1_555 1_555
C30_2 C31_2 1_555 1_555
O10_3 C32_3 1_555 1_555
C37_3 C38_3 1_555 1_555
C42_3 C45_3 1_555 1_555
C43_3 C44_3 1_555 1_555
C50_3 C51_2 1_555 1_555
N3_3 C56_3 1_555 1_555
C53_3 H33_3 1_555 1_555
C54_3 C53_3 1_555 1_555
H34_3 C54_3 1_555 1_555
C55_3 C54_3 1_555 1_555
H35_3 C55_3 1_555 1_555
C56_3 C55_3 1_555 1_555
C57_3 N3_3 1_555 1_555
H36_3 C57_3 1_555 1_555
C58_3 N4_3 1_555 1_555
C59_3 C58_3 1_555 1_555
H37_3 C59_3 1_555 1_555
C60_3 C59_3 1_555 1_555
H38_3 C60_3 1_555 1_555
C61_3 C60_3 1_555 1_555
H39_3 C61_3 1_555 1_555
C62_3 N4_3 1_555 1_555
H40_3 C62_3 1_555 1_555
C53_3 C57_3 1_555 1_555
C56_3 C58_3 1_555 1_555
C61_3 C62_3 1_555 1_555
C53_4 H33_4 1_555 1_555
H36_4 C57_4 1_555 1_555
C53_4 C57_4 1_555 1_555
O3_4 C5_4 1_555 1_555
O14 C14_4 1_555 1_555
O17 C14_4 1_555 1_555
C5_4 C4_4 1_555 1_555
C6_4 C5_4 1_555 1_555
H3_4 C6_4 1_555 1_555
H4_4 C7_4 1_555 1_555
C8_4 O3_4 1_555 1_555
C9_4 C8_4 1_555 1_555
H5_4 C9_4 1_555 1_555
C10_4 C9_4 1_555 1_555
H6_4 C10_4 1_555 1_555
C11_4 C10_4 1_555 1_555
C12_4 C11_4 1_555 1_555
H7_4 C12_4 1_555 1_555
C13_4 C8_4 1_555 1_555
H8_4 C13_4 1_555 1_555
C14_4 C11_4 1_555 1_555
C6_4 C7_4 1_555 1_555
C12_4 C13_4 1_555 1_555
Mn7 O1_4 1_555 1_555
O1_4 C1_4 1_555 1_555
C1_4 O2_4 1_555 1_555
C2_4 C1_4 1_555 1_555
C3_4 C2_4 1_555 1_555
H1_4 C3_4 1_555 1_555
H16_4 C26_4 1_555 1_555
C22_4 C26_4 1_555 1_555
Mn6 N1_3 1_555 1_555
N1_3 C25_3 1_555 1_555
N2_3 Mn6 1_555 1_555
H14_3 C23_3 1_555 1_555
C24_3 C23_3 1_555 1_555
H15_3 C24_3 1_555 1_555
C25_3 C24_3 1_555 1_555
C27_3 N2_3 1_555 1_555
C28_3 C27_3 1_555 1_555
H17_3 C28_3 1_555 1_555
C29_3 C28_3 1_555 1_555
H18_3 C29_3 1_555 1_555
C30_3 C29_3 1_555 1_555
H19_3 C30_3 1_555 1_555
C31_3 N2_3 1_555 1_555
H20_3 C31_3 1_555 1_555
O9_4 Mn7_2 1_555 1_555
O11_4 C36_4 1_555 1_555
O13 C45_4 1_555 1_555
O19_4 Mn7_2 1_555 1_555
C32_4 O9_4 1_555 1_555
C33_4 C32_4 1_555 1_555
C34_4 C33_4 1_555 1_555
H21_4 C34_4 1_555 1_555
C35_4 C34_4 1_555 1_555
H22_4 C35_4 1_555 1_555
C36_4 C35_4 1_555 1_555
C37_4 C36_4 1_555 1_555
H23_4 C37_4 1_555 1_555
C38_4 C33_4 1_555 1_555
H24_4 C38_4 1_555 1_555
C39_4 O11_4 1_555 1_555
C40_4 C39_4 1_555 1_555
H25_4 C40_4 1_555 1_555
C41_4 C40_4 1_555 1_555
H26_4 C41_4 1_555 1_555
C42_4 C41_4 1_555 1_555
C43_4 C42_4 1_555 1_555
H27_4 C43_4 1_555 1_555
C44_4 C39_4 1_555 1_555
H28_4 C44_4 1_555 1_555
C45_4 O16 1_555 1_555
C25_3 C27_3 1_555 1_555
C30_3 C31_3 1_555 1_555
O10_4 C32_4 1_555 1_555
C37_4 C38_4 1_555 1_555
C42_4 C45_4 1_555 1_555
C43_4 C44_4 1_555 1_555
O6_4 C15_3 1_555 1_555
C15_3 C16_3 1_555 1_555
C17_3 C16_3 1_555 1_555
H10_3 C17_3 1_555 1_555
C18_3 C17_3 1_555 1_555
C19_4 C18_3 1_555 1_555
C21_3 O19_3 1_555 1_555
H31_3 C50_4 1_555 1_555
H32_3 C51_3 1_555 1_555
O21_3 C21_3 1_555 1_555
C18_3 C21_3 1_555 1_555
C50_4 C51_3 1_555 1_555
H11_3 C19_5 1_555 1_555
H12_3 C20_3 1_555 1_555
O19_4 C52_3 1_555 1_555
O21_4 C52_3 1_555 1_555
C46_3 O6_5 1_555 1_555
C47_3 C46_3 1_555 1_555
C48_3 C47_3 1_555 1_555
H30_3 C48_3 1_555 1_555
C49_3 C48_3 1_555 1_555
C50_5 C49_3 1_555 1_555
C52_3 C49_3 1_555 1_555
C19_5 C20_3 1_555 1_555
O6_6 C15_4 1_555 1_555
C15_4 C16_4 1_555 1_555
C16_4 H9_4 1_555 1_555
C17_4 C16_4 1_555 1_555
H10_4 C17_4 1_555 1_555
C18_4 C17_4 1_555 1_555
C19_6 C18_4 1_555 1_555
H11_4 C19_6 1_555 1_555
C20_4 C15_4 1_555 1_555
H12_4 C20_4 1_555 1_555
C21_4 O19 1_555 1_555
O19_2 C52_4 1_555 1_555
O21_2 C52_4 1_555 1_555
C46_4 O6_6 1_555 1_555
C47_4 C46_4 1_555 1_555
H29_2 C47_4 1_555 1_555
C48_4 C47_4 1_555 1_555
H30_4 C48_4 1_555 1_555
C49_4 C48_4 1_555 1_555
C50_6 C49_4 1_555 1_555
H31_4 C50_6 1_555 1_555
C51_4 C46_4 1_555 1_555
H32_4 C51_4 1_555 1_555
C52_4 C49_4 1_555 1_555
O21 C21_4 1_555 1_555
C18_4 C21_4 1_555 1_555
C19_6 C20_4 1_555 1_555
C50_6 C51_4 1_555 1_555
N1_4 C25_4 1_555 1_555
H14_4 C23_4 1_555 1_555
C24_4 C23_4 1_555 1_555
H15_4 C24_4 1_555 1_555
C25_4 C24_4 1_555 1_555
C27_4 N2_4 1_555 1_555
C28_4 C27_4 1_555 1_555
H17_4 C28_4 1_555 1_555
C29_4 C28_4 1_555 1_555
H18_4 C29_4 1_555 1_555
C30_4 C29_4 1_555 1_555
H19_4 C30_4 1_555 1_555
C31_4 N2_4 1_555 1_555
H20_4 C31_4 1_555 1_555
C25_4 C27_4 1_555 1_555
C30_4 C31_4 1_555 1_555
N3_4 C56_4 1_555 1_555
H34_4 C54_4 1_555 1_555
C55_4 C54_4 1_555 1_555
H35_4 C55_4 1_555 1_555
C56_4 C55_4 1_555 1_555
C58_4 N4_4 1_555 1_555
C59_4 C58_4 1_555 1_555
H37_4 C59_4 1_555 1_555
C60_4 C59_4 1_555 1_555
H38_4 C60_4 1_555 1_555
C61_4 C60_4 1_555 1_555
H39_4 C61_4 1_555 1_555
C62_4 N4_4 1_555 1_555
H40_4 C62_4 1_555 1_555
C56_4 C58_4 1_555 1_555
C61_4 C62_4 1_555 1_555

#END
