
###############################################################################
#
# This file contains modified crystal structure data generated from the
# MOF subset of the Cambridge Structural Database (CSD) v543 
# hosted by the Cambridge Crystallographic Data Centre (CCDC).
#
# This work is licensed under the Creative Commons
# Attribution-NonCommercial-ShareAlike 4.0 International License.
# To view a copy of this license, visit
# http://creativecommons.org/licenses/by-nc-sa/4.0/
# or send a letter to
# Creative Commons, PO Box 1866, Mountain View, CA 94042, USA.
#
# CIF created using the CSD Python API on 29 September 2022
# The structure has been converted into the P1 space group
# The structure has a 3D framework
# The original CSD entry KERFOF is in the monoclinic crystal system
# The framework has been calculated to contain at least 10.0% void space
# The void calculation uses a probe of radius 1.32A, grid spacing 0.4
# H atom positions have been added when not included in the experimental data
# Generated hydrogen atom positions removed from atoms on special positions
#
###############################################################################

data_KERFOF
_chemical_formula_moiety         '(C192 H128 N20 Ni15 O44)n'
_symmetry_cell_setting           triclinic
_symmetry_space_group_name_H-M   'P 1'
_symmetry_Int_Tables_number      1
_space_group_name_Hall           'P 1'
loop_
_symmetry_equiv_pos_site_id
_symmetry_equiv_pos_as_xyz
1 x,y,z
_cell_length_a                   17.640(4)
_cell_length_b                   33.509(2)
_cell_length_c                   16.6141(17)
_cell_angle_alpha                90
_cell_angle_beta                 103.793(14)
_cell_angle_gamma                90
_cell_volume                     9537.38
loop_
_atom_site_label
_atom_site_type_symbol
_atom_site_fract_x
_atom_site_fract_y
_atom_site_fract_z
Ni2 Ni 0 0.500 -0
O29 O 0.1061(4) 0.500 0.0776(3)
Ni2_2 Ni -0 0.500 1
O25 O 0.0328(4) 0.54371(12) 0.9284(3)
O28 O 0.0328(4) 0.45629(12) 0.9284(3)
Ni10 Ni 0.5 0.000 -0
Ni14 Ni 0.70315(11) 0.000 0.02695(8)
Ni10_2 Ni 0.5 0.000 1
Ni12 Ni 0.29685(11) 0.000 0.97305(8)
O6 O 0.6990(4) 0.500 0.0164(3)
Ni2_3 Ni 1 0.500 -0
O22 O 0.8415(4) 0.54377(10) 0.0561(3)
O23 O 0.8415(4) 0.45623(10) 0.0561(3)
O26 O 0.9672(4) 0.54371(12) 0.0716(3)
O27 O 0.9672(4) 0.45629(12) 0.0716(3)
Ni10_3 Ni 0.5 1.000 -0
Ni14_2 Ni 0.70315(11) 1.000 0.02695(8)
C1 C 0.5918(4) 0.27603(14) 0.6625(3)
C2 C 0.6283(5) 0.26406(17) 0.7434(4)
H1 H 0.6606 0.2801 0.785
C3 C 0.6088(6) 0.22519(15) 0.7509(4)
H2 H 0.6183 0.2095 0.7999
C4 C 0.5705(4) 0.21305(14) 0.6682(3)
C5 C 0.5494(6) 0.17315(14) 0.6485(4)
C6 C 0.5182(5) 0.16213(13) 0.5674(3)
C7 C 0.5127(5) 0.12057(13) 0.5400(4)
H3 H 0.5255 0.0977 0.5745
C8 C 0.5595(5) 0.14125(15) 0.7182(4)
C9 C 0.4939(5) 0.12609(19) 0.7419(4)
H4 H 0.4424 0.1347 0.7167
C10 C 0.6309(6) 0.12942(15) 0.7575(4)
H5 H 0.6742 0.1417 0.7429
C11 C 0.6456(5) 0.10049(17) 0.8179(4)
H6 H 0.697 0.0911 0.8411
C12 C 0.5787(5) 0.08504(14) 0.8444(4)
C13 C 0.5936(4) 0.05429(15) 0.9076(3)
C14 C 0.5901(6) 0.3152(2) 0.6342(5)
C15 C 0.6343(6) 0.3460(2) 0.6910(5)
C16 C 0.6011(6) 0.3699(2) 0.7412(5)
H7 H 0.5475 0.3672 0.7416
C17 C 0.6484(6) 0.39828(19) 0.7914(5)
H8 H 0.6272 0.414 0.8283
C18 C 0.7294(6) 0.4041(2) 0.7882(5)
C19 C 0.7112(6) 0.34974(19) 0.6894(5)
H9 H 0.733 0.3336 0.6537
C20 C 0.7596(6) 0.37962(19) 0.7445(5)
H10 H 0.8141 0.3808 0.7478
C21 C 0.7737(6) 0.43601(17) 0.8425(5)
C22 C 0.5424(5) 0.32708(12) 0.5606(3)
C23 C 0.5256(6) 0.36877(15) 0.5371(4)
H11 H 0.5469 0.3916 0.5684
C24 C 0.5086(5) 0.09860(16) 0.8025(4)
H12 H 0.4644 0.0875 0.8175
N1 N 0.5583(4) 0.24449(10) 0.6149(3)
N2 N 0.500 0.18703(15) 0.500
N3 N 0.500 0.30178(13) 0.500
O1 O 0.6585(4) 0.04377(10) 0.9439(3)
O2 O 0.5328(4) 0.04371(12) 0.9284(3)
O3 O 0.7427(3) 0.45606(11) 0.8878(3)
O4 O 0.8431(4) 0.43958(18) 0.8346(5)
O5 O 0.8939(4) 0.500 0.9224(3)
Ni1 Ni 0.500 0.24442(3) 0.500
Ni2_4 Ni 1 0.500 1
Ni3 Ni 0.79685(11) 0.500 0.97305(8)
C25 C 0.4082(4) 0.27603(14) 0.3375(3)
C26 C 0.3717(5) 0.26406(17) 0.2566(4)
H13 H 0.3394 0.2801 0.215
C27 C 0.3912(6) 0.22519(15) 0.2491(4)
H14 H 0.3817 0.2095 0.2001
C28 C 0.4295(4) 0.21305(14) 0.3318(3)
C29 C 0.4506(6) 0.17315(14) 0.3515(4)
C30 C 0.4405(5) 0.14125(15) 0.2818(4)
C31 C 0.5061(5) 0.12609(19) 0.2581(4)
H15 H 0.5576 0.1347 0.2833
C32 C 0.3691(6) 0.12942(15) 0.2425(4)
H16 H 0.3258 0.1417 0.2571
C33 C 0.3544(5) 0.10049(17) 0.1821(4)
H17 H 0.303 0.0911 0.1589
C34 C 0.4213(5) 0.08504(14) 0.1556(4)
C35 C 0.4099(6) 0.3152(2) 0.3658(5)
C36 C 0.3657(6) 0.3460(2) 0.3090(5)
C37 C 0.3989(6) 0.3699(2) 0.2588(5)
H18 H 0.4525 0.3672 0.2584
C38 C 0.3516(6) 0.39828(19) 0.2086(5)
H19 H 0.3728 0.414 0.1717
C39 C 0.2706(6) 0.4041(2) 0.2118(5)
C40 C 0.2888(6) 0.34974(19) 0.3106(5)
H20 H 0.267 0.3336 0.3463
C41 C 0.2404(6) 0.37962(19) 0.2555(5)
H21 H 0.1859 0.3808 0.2522
C42 C 0.2263(6) 0.43601(17) 0.1575(5)
C43 C 0.4576(5) 0.32708(12) 0.4394(3)
C44 C 0.4744(6) 0.36877(15) 0.4629(4)
H22 H 0.4531 0.3916 0.4316
C45 C 0.4914(5) 0.09860(16) 0.1975(4)
H23 H 0.5356 0.0875 0.1825
N4 N 0.4417(4) 0.24449(10) 0.3851(3)
O7 O 0.2573(3) 0.45606(11) 0.1122(3)
O8 O 0.1569(4) 0.43958(18) 0.1654(5)
C46 C 0.4818(5) 0.16213(13) 0.4326(3)
C47 C 0.4873(5) 0.12057(13) 0.4600(4)
H24 H 0.4745 0.0977 0.4255
C48 C 0.4064(4) 0.05429(15) 0.0924(3)
O9 O 0.3415(4) 0.04377(10) 0.0561(3)
O10 O 0.4672(4) 0.04371(12) 0.0716(3)
Ni4 Ni 0.20315(11) 0.500 0.02695(8)
C49 C 0.4082(4) 0.72397(14) 0.3375(3)
C50 C 0.3717(5) 0.73594(17) 0.2566(4)
H25 H 0.3394 0.7199 0.215
C51 C 0.3912(6) 0.77481(15) 0.2491(4)
H26 H 0.3817 0.7905 0.2001
C52 C 0.4295(4) 0.78695(14) 0.3318(3)
C53 C 0.4506(6) 0.82685(14) 0.3515(4)
C54 C 0.4818(5) 0.83787(13) 0.4326(3)
C55 C 0.4873(5) 0.87943(13) 0.4600(4)
H27 H 0.4745 0.9023 0.4255
C56 C 0.4405(5) 0.85875(15) 0.2818(4)
C57 C 0.5061(5) 0.87391(19) 0.2581(4)
H28 H 0.5576 0.8653 0.2833
C58 C 0.3691(6) 0.87058(15) 0.2425(4)
H29 H 0.3258 0.8583 0.2571
C59 C 0.3544(5) 0.89951(17) 0.1821(4)
H30 H 0.303 0.9089 0.1589
C60 C 0.4213(5) 0.91496(14) 0.1556(4)
C61 C 0.4064(4) 0.94571(15) 0.0924(3)
C62 C 0.4099(6) 0.6848(2) 0.3658(5)
C63 C 0.3657(6) 0.6540(2) 0.3090(5)
C64 C 0.3989(6) 0.6301(2) 0.2588(5)
H31 H 0.4525 0.6328 0.2584
C65 C 0.3516(6) 0.60172(19) 0.2086(5)
H32 H 0.3728 0.586 0.1717
C66 C 0.2706(6) 0.5959(2) 0.2118(5)
C67 C 0.2888(6) 0.65026(19) 0.3106(5)
H33 H 0.267 0.6664 0.3463
C68 C 0.2404(6) 0.62038(19) 0.2555(5)
H34 H 0.1859 0.6192 0.2522
C69 C 0.2263(6) 0.56399(17) 0.1575(5)
C70 C 0.4576(5) 0.67292(12) 0.4394(3)
C71 C 0.4744(6) 0.63123(15) 0.4629(4)
H35 H 0.4531 0.6084 0.4316
C72 C 0.4914(5) 0.90140(16) 0.1975(4)
H36 H 0.5356 0.9125 0.1825
N5 N 0.4417(4) 0.75551(10) 0.3851(3)
N6 N 0.500 0.81297(15) 0.500
N7 N 0.500 0.69822(13) 0.500
O13 O 0.3415(4) 0.95623(10) 0.0561(3)
O14 O 0.4672(4) 0.95629(12) 0.0716(3)
O15 O 0.2573(3) 0.54394(11) 0.1122(3)
O16 O 0.1569(4) 0.56042(18) 0.1654(5)
Ni5 Ni 0.500 0.75558(3) 0.500
C73 C 0.5918(4) 0.72397(14) 0.6625(3)
C74 C 0.6283(5) 0.73594(17) 0.7434(4)
H37 H 0.6606 0.7199 0.785
C75 C 0.6088(6) 0.77481(15) 0.7509(4)
H38 H 0.6183 0.7905 0.7999
C76 C 0.5705(4) 0.78695(14) 0.6682(3)
C77 C 0.5494(6) 0.82685(14) 0.6485(4)
C78 C 0.5595(5) 0.85875(15) 0.7182(4)
C79 C 0.4939(5) 0.87391(19) 0.7419(4)
H39 H 0.4424 0.8653 0.7167
C80 C 0.6309(6) 0.87058(15) 0.7575(4)
H40 H 0.6742 0.8583 0.7429
C81 C 0.6456(5) 0.89951(17) 0.8179(4)
H41 H 0.697 0.9089 0.8411
C82 C 0.5787(5) 0.91496(14) 0.8444(4)
C83 C 0.5901(6) 0.6848(2) 0.6342(5)
C84 C 0.6343(6) 0.6540(2) 0.6910(5)
C85 C 0.6011(6) 0.6301(2) 0.7412(5)
H42 H 0.5475 0.6328 0.7416
C86 C 0.6484(6) 0.60172(19) 0.7914(5)
H43 H 0.6272 0.586 0.8283
C87 C 0.7294(6) 0.5959(2) 0.7882(5)
C88 C 0.7112(6) 0.65026(19) 0.6894(5)
H44 H 0.733 0.6664 0.6537
C89 C 0.7596(6) 0.62038(19) 0.7445(5)
H45 H 0.8141 0.6192 0.7478
C90 C 0.7737(6) 0.56399(17) 0.8425(5)
C91 C 0.5424(5) 0.67292(12) 0.5606(3)
C92 C 0.5256(6) 0.63123(15) 0.5371(4)
H46 H 0.5469 0.6084 0.5684
C93 C 0.5086(5) 0.90140(16) 0.8025(4)
H47 H 0.4644 0.9125 0.8175
N8 N 0.5583(4) 0.75551(10) 0.6149(3)
O17 O 0.7427(3) 0.54394(11) 0.8878(3)
O18 O 0.8431(4) 0.56042(18) 0.8346(5)
C94 C 0.5182(5) 0.83787(13) 0.5674(3)
C95 C 0.5127(5) 0.87943(13) 0.5400(4)
H48 H 0.5255 0.9023 0.5745
C96 C 0.5936(4) 0.94571(15) 0.9076(3)
O19 O 0.6585(4) 0.95623(10) 0.9439(3)
O20 O 0.5328(4) 0.95629(12) 0.9284(3)
Ni10_4 Ni 0.5 1.000 1
H51 H 0.842284 0.446452 0.77626
H54 H 0.157716 0.446452 0.22374
H55 H 0.128587 0.58599 0.150469
H56 H 0.871413 0.58599 0.849531
O12 O 0.3010(4) 0.500 0.9836(3)
O21 O 0.1585(4) 0.54377(10) 0.9439(3)
O24 O 0.1585(4) 0.45623(10) 0.9439(3)
Ni12_2 Ni 0.29685(11) 1.000 0.97305(8)
O6_2 O 0.1990(4) -0.000 0.0164(3)
O29_2 O 0.6061(4) -0.000 0.0776(3)
H50 H 0.204839 0.0195436 0.0624008
O5_2 O 0.3939(4) -0.000 0.9224(3)
C57_2 C 0.0061(5) 0.37391(19) 0.2581(4)
H28_2 H 0.0576 0.3653 0.2833
H36_2 H 0.0356 0.4125 0.1825
N6_2 N -0.000 0.31297(15) 0.500
N7_2 N -0.000 0.19822(13) 0.500
Ni5_2 Ni -0.000 0.25558(3) 0.500
C73_2 C 0.0918(4) 0.22397(14) 0.6625(3)
C74_2 C 0.1283(5) 0.23594(17) 0.7434(4)
H37_2 H 0.1606 0.2199 0.785
C75_2 C 0.1088(6) 0.27481(15) 0.7509(4)
H38_2 H 0.1183 0.2905 0.7999
C76_2 C 0.0705(4) 0.28695(14) 0.6682(3)
C77_2 C 0.0494(6) 0.32685(14) 0.6485(4)
C78_2 C 0.0595(5) 0.35875(15) 0.7182(4)
C80_2 C 0.1309(6) 0.37058(15) 0.7575(4)
H40_2 H 0.1742 0.3583 0.7429
C81_2 C 0.1456(5) 0.39951(17) 0.8179(4)
H41_2 H 0.197 0.4089 0.8411
C82_2 C 0.0787(5) 0.41496(14) 0.8444(4)
C83_2 C 0.0901(6) 0.1848(2) 0.6342(5)
C84_2 C 0.1343(6) 0.1540(2) 0.6910(5)
C85_2 C 0.1011(6) 0.1301(2) 0.7412(5)
H42_2 H 0.0475 0.1328 0.7416
C86_2 C 0.1484(6) 0.10172(19) 0.7914(5)
H43_2 H 0.1272 0.086 0.8283
C87_2 C 0.2294(6) 0.0959(2) 0.7882(5)
C88_2 C 0.2112(6) 0.15026(19) 0.6894(5)
H44_2 H 0.233 0.1664 0.6537
C89_2 C 0.2596(6) 0.12038(19) 0.7445(5)
H45_2 H 0.3141 0.1192 0.7478
C90_2 C 0.2737(6) 0.06399(17) 0.8425(5)
C91_2 C 0.0424(5) 0.17292(12) 0.5606(3)
C92_2 C 0.0256(6) 0.13123(15) 0.5371(4)
H46_2 H 0.0469 0.1084 0.5684
C93_2 C 0.0086(5) 0.40140(16) 0.8025(4)
N8_2 N 0.0583(4) 0.25551(10) 0.6149(3)
O17_2 O 0.2427(3) 0.04394(11) 0.8878(3)
O18_2 O 0.3431(4) 0.06042(18) 0.8346(5)
C94_2 C 0.0182(5) 0.33787(13) 0.5674(3)
C95_2 C 0.0127(5) 0.37943(13) 0.5400(4)
H48_2 H 0.0255 0.4023 0.5745
C96_2 C 0.0936(4) 0.44571(15) 0.9076(3)
H56_2 H 0.371413 0.0859901 0.849531
O6_3 O 0.1990(4) 1.000 0.0164(3)
O29_3 O 0.6061(4) 1.000 0.0776(3)
H49 H 0.190585 0.972937 0.0370226
C1_2 C 0.0918(4) 0.77603(14) 0.6625(3)
C2_2 C 0.1283(5) 0.76406(17) 0.7434(4)
H1_2 H 0.1606 0.7801 0.785
C3_2 C 0.1088(6) 0.72519(15) 0.7509(4)
H2_2 H 0.1183 0.7095 0.7999
C4_2 C 0.0705(4) 0.71305(14) 0.6682(3)
C5_2 C 0.0494(6) 0.67315(14) 0.6485(4)
C6_2 C 0.0182(5) 0.66213(13) 0.5674(3)
C7_2 C 0.0127(5) 0.62057(13) 0.5400(4)
H3_2 H 0.0255 0.5977 0.5745
C8_2 C 0.0595(5) 0.64125(15) 0.7182(4)
C10_2 C 0.1309(6) 0.62942(15) 0.7575(4)
H5_2 H 0.1742 0.6417 0.7429
C11_2 C 0.1456(5) 0.60049(17) 0.8179(4)
H6_2 H 0.197 0.5911 0.8411
C12_2 C 0.0787(5) 0.58504(14) 0.8444(4)
C13_2 C 0.0936(4) 0.55429(15) 0.9076(3)
C14_2 C 0.0901(6) 0.8152(2) 0.6342(5)
C15_2 C 0.1343(6) 0.8460(2) 0.6910(5)
C16_2 C 0.1011(6) 0.8699(2) 0.7412(5)
H7_2 H 0.0475 0.8672 0.7416
C17_2 C 0.1484(6) 0.89828(19) 0.7914(5)
H8_2 H 0.1272 0.914 0.8283
C18_2 C 0.2294(6) 0.9041(2) 0.7882(5)
C19_2 C 0.2112(6) 0.84974(19) 0.6894(5)
H9_2 H 0.233 0.8336 0.6537
C20_2 C 0.2596(6) 0.87962(19) 0.7445(5)
H10_2 H 0.3141 0.8808 0.7478
C21_2 C 0.2737(6) 0.93601(17) 0.8425(5)
C22_2 C 0.0424(5) 0.82708(12) 0.5606(3)
C23_2 C 0.0256(6) 0.86877(15) 0.5371(4)
H11_2 H 0.0469 0.8916 0.5684
C24_2 C 0.0086(5) 0.59860(16) 0.8025(4)
N1_2 N 0.0583(4) 0.74449(10) 0.6149(3)
N2_2 N -0.000 0.68703(15) 0.500
N3_2 N -0.000 0.80178(13) 0.500
O3_2 O 0.2427(3) 0.95606(11) 0.8878(3)
O4_2 O 0.3431(4) 0.93958(18) 0.8346(5)
O5_3 O 0.3939(4) 1.000 0.9224(3)
Ni1_2 Ni -0.000 0.74442(3) 0.500
C31_2 C 0.0061(5) 0.62609(19) 0.2581(4)
H15_2 H 0.0576 0.6347 0.2833
H23_2 H 0.0356 0.5875 0.1825
H51_2 H 0.342284 0.946452 0.77626
C49_2 C 0.9082(4) 0.22397(14) 0.3375(3)
C50_2 C 0.8717(5) 0.23594(17) 0.2566(4)
H25_2 H 0.8394 0.2199 0.215
C51_2 C 0.8912(6) 0.27481(15) 0.2491(4)
H26_2 H 0.8817 0.2905 0.2001
C52_2 C 0.9295(4) 0.28695(14) 0.3318(3)
C53_2 C 0.9506(6) 0.32685(14) 0.3515(4)
C54_2 C 0.9818(5) 0.33787(13) 0.4326(3)
C55_2 C 0.9873(5) 0.37943(13) 0.4600(4)
H27_2 H 0.9745 0.4023 0.4255
C56_2 C 0.9405(5) 0.35875(15) 0.2818(4)
C58_2 C 0.8691(6) 0.37058(15) 0.2425(4)
H29_2 H 0.8258 0.3583 0.2571
C59_2 C 0.8544(5) 0.39951(17) 0.1821(4)
H30_2 H 0.803 0.4089 0.1589
C60_2 C 0.9213(5) 0.41496(14) 0.1556(4)
C61_2 C 0.9064(4) 0.44571(15) 0.0924(3)
C62_2 C 0.9099(6) 0.1848(2) 0.3658(5)
C63_2 C 0.8657(6) 0.1540(2) 0.3090(5)
C64_2 C 0.8989(6) 0.1301(2) 0.2588(5)
H31_2 H 0.9525 0.1328 0.2584
C65_2 C 0.8516(6) 0.10172(19) 0.2086(5)
H32_2 H 0.8728 0.086 0.1717
C66_2 C 0.7706(6) 0.0959(2) 0.2118(5)
C67_2 C 0.7888(6) 0.15026(19) 0.3106(5)
H33_2 H 0.767 0.1664 0.3463
C68_2 C 0.7404(6) 0.12038(19) 0.2555(5)
H34_2 H 0.6859 0.1192 0.2522
C69_2 C 0.7263(6) 0.06399(17) 0.1575(5)
C70_2 C 0.9576(5) 0.17292(12) 0.4394(3)
C71_2 C 0.9744(6) 0.13123(15) 0.4629(4)
H35_2 H 0.9531 0.1084 0.4316
C72_2 C 0.9914(5) 0.40140(16) 0.1975(4)
N5_2 N 0.9417(4) 0.25551(10) 0.3851(3)
N6_3 N 1.000 0.31297(15) 0.500
N7_3 N 1.000 0.19822(13) 0.500
O15_2 O 0.7573(3) 0.04394(11) 0.1122(3)
O16_2 O 0.6569(4) 0.06042(18) 0.1654(5)
Ni5_3 Ni 1.000 0.25558(3) 0.500
C79_2 C 0.9939(5) 0.37391(19) 0.7419(4)
H39_2 H 0.9424 0.3653 0.7167
H47_2 H 0.9644 0.4125 0.8175
H55_2 H 0.628587 0.0859901 0.150469
O12_2 O 0.8010(4) 0.000 0.9836(3)
H53 H 0.795161 0.0195436 0.937599
C9_2 C 0.9939(5) 0.62609(19) 0.7419(4)
H4_2 H 0.9424 0.6347 0.7167
H12_2 H 0.9644 0.5875 0.8175
N2_3 N 1.000 0.68703(15) 0.500
N3_3 N 1.000 0.80178(13) 0.500
Ni1_3 Ni 1.000 0.74442(3) 0.500
C25_2 C 0.9082(4) 0.77603(14) 0.3375(3)
C26_2 C 0.8717(5) 0.76406(17) 0.2566(4)
H13_2 H 0.8394 0.7801 0.215
C27_2 C 0.8912(6) 0.72519(15) 0.2491(4)
H14_2 H 0.8817 0.7095 0.2001
C28_2 C 0.9295(4) 0.71305(14) 0.3318(3)
C29_2 C 0.9506(6) 0.67315(14) 0.3515(4)
C30_2 C 0.9405(5) 0.64125(15) 0.2818(4)
C32_2 C 0.8691(6) 0.62942(15) 0.2425(4)
H16_2 H 0.8258 0.6417 0.2571
C33_2 C 0.8544(5) 0.60049(17) 0.1821(4)
H17_2 H 0.803 0.5911 0.1589
C34_2 C 0.9213(5) 0.58504(14) 0.1556(4)
C35_2 C 0.9099(6) 0.8152(2) 0.3658(5)
C36_2 C 0.8657(6) 0.8460(2) 0.3090(5)
C37_2 C 0.8989(6) 0.8699(2) 0.2588(5)
H18_2 H 0.9525 0.8672 0.2584
C38_2 C 0.8516(6) 0.89828(19) 0.2086(5)
H19_2 H 0.8728 0.914 0.1717
C39_2 C 0.7706(6) 0.9041(2) 0.2118(5)
C40_2 C 0.7888(6) 0.84974(19) 0.3106(5)
H20_2 H 0.767 0.8336 0.3463
C41_2 C 0.7404(6) 0.87962(19) 0.2555(5)
H21_2 H 0.6859 0.8808 0.2522
C42_2 C 0.7263(6) 0.93601(17) 0.1575(5)
C43_2 C 0.9576(5) 0.82708(12) 0.4394(3)
C44_2 C 0.9744(6) 0.86877(15) 0.4629(4)
H22_2 H 0.9531 0.8916 0.4316
C45_2 C 0.9914(5) 0.59860(16) 0.1975(4)
N4_2 N 0.9417(4) 0.74449(10) 0.3851(3)
O7_2 O 0.7573(3) 0.95606(11) 0.1122(3)
O8_2 O 0.6569(4) 0.93958(18) 0.1654(5)
C46_2 C 0.9818(5) 0.66213(13) 0.4326(3)
C47_2 C 0.9873(5) 0.62057(13) 0.4600(4)
H24_2 H 0.9745 0.5977 0.4255
C48_2 C 0.9064(4) 0.55429(15) 0.0924(3)
H54_2 H 0.657716 0.946452 0.22374
O12_3 O 0.8010(4) 1.000 0.9836(3)
H52 H 0.809415 0.972937 0.962977
H51_3 H 0.157716 0.553548 0.22374
H54_3 H 0.842284 0.553548 0.77626
H55_3 H 0.871413 0.41401 0.849531
H56_3 H 0.128587 0.41401 0.150469
H52_2 H 0.190585 0.0270628 0.0370226
H54_4 H 0.342284 0.0535476 0.77626
H53_2 H 0.204839 0.980456 0.0624008
H55_4 H 0.371413 0.91401 0.849531
H51_4 H 0.657716 0.0535476 0.22374
H49_2 H 0.809415 0.0270628 0.962977
H56_4 H 0.628587 0.91401 0.150469
H50_2 H 0.795161 0.980456 0.937599
loop_
_geom_bond_atom_site_label_1
_geom_bond_atom_site_label_2
_geom_bond_site_symmetry_1
_geom_bond_site_symmetry_2
O29 Ni2 1_555 1_555
Ni2_2 O25 1_555 1_555
O28 Ni2_2 1_555 1_555
O26 Ni2_3 1_555 1_555
O27 Ni2_3 1_555 1_555
C1 C2 1_555 1_555
C2 H1 1_555 1_555
C3 C2 1_555 1_555
H2 C3 1_555 1_555
C4 C3 1_555 1_555
C5 C4 1_555 1_555
C6 C5 1_555 1_555
C7 C6 1_555 1_555
H3 C7 1_555 1_555
C8 C5 1_555 1_555
C9 C8 1_555 1_555
H4 C9 1_555 1_555
C10 C8 1_555 1_555
H5 C10 1_555 1_555
C11 C10 1_555 1_555
H6 C11 1_555 1_555
C12 C11 1_555 1_555
C13 C12 1_555 1_555
C14 C1 1_555 1_555
C15 C14 1_555 1_555
C16 C15 1_555 1_555
H7 C16 1_555 1_555
C17 C16 1_555 1_555
H8 C17 1_555 1_555
C18 C17 1_555 1_555
C19 C15 1_555 1_555
H9 C19 1_555 1_555
C20 C18 1_555 1_555
H10 C20 1_555 1_555
C21 C18 1_555 1_555
C22 C14 1_555 1_555
C23 C22 1_555 1_555
H11 C23 1_555 1_555
C24 C9 1_555 1_555
H12 C24 1_555 1_555
N1 C1 1_555 1_555
N2 C6 1_555 1_555
N3 C22 1_555 1_555
O1 C13 1_555 1_555
O2 C13 1_555 1_555
O3 C21 1_555 1_555
O4 C21 1_555 1_555
O5 Ni2_4 1_555 1_555
Ni1 N1 1_555 1_555
Ni3 O3 1_555 1_555
C25 C26 1_555 1_555
C26 H13 1_555 1_555
C27 C26 1_555 1_555
H14 C27 1_555 1_555
C28 C27 1_555 1_555
C29 C28 1_555 1_555
C30 C29 1_555 1_555
C31 C30 1_555 1_555
H15 C31 1_555 1_555
C32 C30 1_555 1_555
H16 C32 1_555 1_555
C33 C32 1_555 1_555
H17 C33 1_555 1_555
C34 C33 1_555 1_555
C35 C25 1_555 1_555
C36 C35 1_555 1_555
C37 C36 1_555 1_555
H18 C37 1_555 1_555
C38 C37 1_555 1_555
H19 C38 1_555 1_555
C39 C38 1_555 1_555
C40 C36 1_555 1_555
H20 C40 1_555 1_555
C41 C39 1_555 1_555
H21 C41 1_555 1_555
C42 C39 1_555 1_555
C43 N3 1_555 1_555
C44 C23 1_555 1_555
H22 C44 1_555 1_555
C45 C31 1_555 1_555
H23 C45 1_555 1_555
N4 Ni1 1_555 1_555
O7 C42 1_555 1_555
O8 C42 1_555 1_555
C46 N2 1_555 1_555
C47 C7 1_555 1_555
H24 C47 1_555 1_555
C48 C34 1_555 1_555
O9 C48 1_555 1_555
O10 C48 1_555 1_555
O29 Ni4 1_555 1_555
Ni4 O7 1_555 1_555
C49 C50 1_555 1_555
C50 H25 1_555 1_555
C51 C50 1_555 1_555
H26 C51 1_555 1_555
C52 C51 1_555 1_555
C53 C52 1_555 1_555
C54 C53 1_555 1_555
C55 C54 1_555 1_555
H27 C55 1_555 1_555
C56 C53 1_555 1_555
C57 C56 1_555 1_555
H28 C57 1_555 1_555
C58 C56 1_555 1_555
H29 C58 1_555 1_555
C59 C58 1_555 1_555
H30 C59 1_555 1_555
C60 C59 1_555 1_555
C61 C60 1_555 1_555
C62 C49 1_555 1_555
C63 C62 1_555 1_555
C64 C63 1_555 1_555
H31 C64 1_555 1_555
C65 C64 1_555 1_555
H32 C65 1_555 1_555
C66 C65 1_555 1_555
C67 C63 1_555 1_555
H33 C67 1_555 1_555
C68 C66 1_555 1_555
H34 C68 1_555 1_555
C69 C66 1_555 1_555
C70 C62 1_555 1_555
C71 C70 1_555 1_555
H35 C71 1_555 1_555
C72 C57 1_555 1_555
H36 C72 1_555 1_555
N5 C49 1_555 1_555
N6 C54 1_555 1_555
N7 C70 1_555 1_555
O13 C61 1_555 1_555
O14 C61 1_555 1_555
O15 Ni4 1_555 1_555
O16 C69 1_555 1_555
Ni5 N5 1_555 1_555
C73 C74 1_555 1_555
C74 H37 1_555 1_555
C75 C74 1_555 1_555
H38 C75 1_555 1_555
C76 C75 1_555 1_555
C77 C76 1_555 1_555
C78 C77 1_555 1_555
C79 C78 1_555 1_555
H39 C79 1_555 1_555
C80 C78 1_555 1_555
H40 C80 1_555 1_555
C81 C80 1_555 1_555
H41 C81 1_555 1_555
C82 C81 1_555 1_555
C83 C73 1_555 1_555
C84 C83 1_555 1_555
C85 C84 1_555 1_555
H42 C85 1_555 1_555
C86 C85 1_555 1_555
H43 C86 1_555 1_555
C87 C86 1_555 1_555
C88 C84 1_555 1_555
H44 C88 1_555 1_555
C89 C87 1_555 1_555
H45 C89 1_555 1_555
C90 C87 1_555 1_555
C91 N7 1_555 1_555
C92 C71 1_555 1_555
H46 C92 1_555 1_555
C93 C79 1_555 1_555
H47 C93 1_555 1_555
N8 Ni5 1_555 1_555
O17 Ni3 1_555 1_555
O18 C90 1_555 1_555
C94 N6 1_555 1_555
C95 C55 1_555 1_555
H48 C95 1_555 1_555
C96 C82 1_555 1_555
O19 C96 1_555 1_555
O20 C96 1_555 1_555
Ni10 O10 1_555 1_555
Ni10_2 O2 1_555 1_555
Ni10_3 O14 1_555 1_555
Ni10_4 O20 1_555 1_555
C4 N1 1_555 1_555
C12 C24 1_555 1_555
C19 C20 1_555 1_555
N2 Ni1 1_555 1_555
N3 Ni1 1_555 1_555
O5 Ni3 1_555 1_555
C25 N4 1_555 1_555
C28 N4 1_555 1_555
C29 C46 1_555 1_555
C34 C45 1_555 1_555
C35 C43 1_555 1_555
C40 C41 1_555 1_555
C43 C44 1_555 1_555
C46 C47 1_555 1_555
C52 N5 1_555 1_555
C60 C72 1_555 1_555
C67 C68 1_555 1_555
C69 O15 1_555 1_555
N6 Ni5 1_555 1_555
N7 Ni5 1_555 1_555
C73 N8 1_555 1_555
C76 N8 1_555 1_555
C77 C94 1_555 1_555
C82 C93 1_555 1_555
C83 C91 1_555 1_555
C88 C89 1_555 1_555
C90 O17 1_555 1_555
C91 C92 1_555 1_555
C94 C95 1_555 1_555
O4 H51 1_555 1_555
O8 H54 1_555 1_555
O16 H55 1_555 1_555
O18 H56 1_555 1_555
O29_2 Ni10 1_555 1_555
O6_2 H50 1_555 1_555
O5_2 Ni10_2 1_555 1_555
H28_2 C57_2 1_555 1_555
C73_2 C74_2 1_555 1_555
C74_2 H37_2 1_555 1_555
C75_2 C74_2 1_555 1_555
H38_2 C75_2 1_555 1_555
C76_2 C75_2 1_555 1_555
C77_2 C76_2 1_555 1_555
C78_2 C77_2 1_555 1_555
C80_2 C78_2 1_555 1_555
H40_2 C80_2 1_555 1_555
C81_2 C80_2 1_555 1_555
H41_2 C81_2 1_555 1_555
C82_2 C81_2 1_555 1_555
C83_2 C73_2 1_555 1_555
C84_2 C83_2 1_555 1_555
C85_2 C84_2 1_555 1_555
H42_2 C85_2 1_555 1_555
C86_2 C85_2 1_555 1_555
H43_2 C86_2 1_555 1_555
C87_2 C86_2 1_555 1_555
C88_2 C84_2 1_555 1_555
H44_2 C88_2 1_555 1_555
C89_2 C87_2 1_555 1_555
H45_2 C89_2 1_555 1_555
C90_2 C87_2 1_555 1_555
C91_2 N7_2 1_555 1_555
H46_2 C92_2 1_555 1_555
N8_2 Ni5_2 1_555 1_555
O17_2 Ni12 1_555 1_555
O18_2 C90_2 1_555 1_555
C94_2 N6_2 1_555 1_555
H48_2 C95_2 1_555 1_555
C96_2 C82_2 1_555 1_555
O24 C96_2 1_555 1_555
O28 C96_2 1_555 1_555
O5_2 Ni12 1_555 1_555
N6_2 Ni5_2 1_555 1_555
N7_2 Ni5_2 1_555 1_555
C73_2 N8_2 1_555 1_555
C76_2 N8_2 1_555 1_555
C77_2 C94_2 1_555 1_555
C82_2 C93_2 1_555 1_555
C83_2 C91_2 1_555 1_555
C88_2 C89_2 1_555 1_555
C90_2 O17_2 1_555 1_555
C91_2 C92_2 1_555 1_555
C94_2 C95_2 1_555 1_555
O18_2 H56_2 1_555 1_555
O29_3 Ni10_3 1_555 1_555
O6_3 H49 1_555 1_555
C1_2 C2_2 1_555 1_555
C2_2 H1_2 1_555 1_555
C3_2 C2_2 1_555 1_555
H2_2 C3_2 1_555 1_555
C4_2 C3_2 1_555 1_555
C5_2 C4_2 1_555 1_555
C6_2 C5_2 1_555 1_555
C7_2 C6_2 1_555 1_555
H3_2 C7_2 1_555 1_555
C8_2 C5_2 1_555 1_555
C10_2 C8_2 1_555 1_555
H5_2 C10_2 1_555 1_555
C11_2 C10_2 1_555 1_555
H6_2 C11_2 1_555 1_555
C12_2 C11_2 1_555 1_555
C13_2 C12_2 1_555 1_555
C14_2 C1_2 1_555 1_555
C15_2 C14_2 1_555 1_555
C16_2 C15_2 1_555 1_555
H7_2 C16_2 1_555 1_555
C17_2 C16_2 1_555 1_555
H8_2 C17_2 1_555 1_555
C18_2 C17_2 1_555 1_555
C19_2 C15_2 1_555 1_555
H9_2 C19_2 1_555 1_555
C20_2 C18_2 1_555 1_555
H10_2 C20_2 1_555 1_555
C21_2 C18_2 1_555 1_555
C22_2 C14_2 1_555 1_555
C23_2 C22_2 1_555 1_555
H11_2 C23_2 1_555 1_555
N1_2 C1_2 1_555 1_555
N2_2 C6_2 1_555 1_555
N3_2 C22_2 1_555 1_555
O21 C13_2 1_555 1_555
O25 C13_2 1_555 1_555
O3_2 C21_2 1_555 1_555
O4_2 C21_2 1_555 1_555
O5_3 Ni10_4 1_555 1_555
Ni1_2 N1_2 1_555 1_555
Ni12_2 O3_2 1_555 1_555
H15_2 C31_2 1_555 1_555
C4_2 N1_2 1_555 1_555
C12_2 C24_2 1_555 1_555
C19_2 C20_2 1_555 1_555
N2_2 Ni1_2 1_555 1_555
N3_2 Ni1_2 1_555 1_555
O5_3 Ni12_2 1_555 1_555
O4_2 H51_2 1_555 1_555
O29_2 Ni14 1_555 1_555
C49_2 C50_2 1_555 1_555
C50_2 H25_2 1_555 1_555
C51_2 C50_2 1_555 1_555
H26_2 C51_2 1_555 1_555
C52_2 C51_2 1_555 1_555
C53_2 C52_2 1_555 1_555
C54_2 C53_2 1_555 1_555
C55_2 C54_2 1_555 1_555
H27_2 C55_2 1_555 1_555
C56_2 C53_2 1_555 1_555
C58_2 C56_2 1_555 1_555
H29_2 C58_2 1_555 1_555
C59_2 C58_2 1_555 1_555
H30_2 C59_2 1_555 1_555
C60_2 C59_2 1_555 1_555
C61_2 C60_2 1_555 1_555
C62_2 C49_2 1_555 1_555
C63_2 C62_2 1_555 1_555
C64_2 C63_2 1_555 1_555
H31_2 C64_2 1_555 1_555
C65_2 C64_2 1_555 1_555
H32_2 C65_2 1_555 1_555
C66_2 C65_2 1_555 1_555
C67_2 C63_2 1_555 1_555
H33_2 C67_2 1_555 1_555
C68_2 C66_2 1_555 1_555
H34_2 C68_2 1_555 1_555
C69_2 C66_2 1_555 1_555
C70_2 C62_2 1_555 1_555
C71_2 C70_2 1_555 1_555
H35_2 C71_2 1_555 1_555
N5_2 C49_2 1_555 1_555
N6_3 C54_2 1_555 1_555
N7_3 C70_2 1_555 1_555
O23 C61_2 1_555 1_555
O27 C61_2 1_555 1_555
O15_2 Ni14 1_555 1_555
O16_2 C69_2 1_555 1_555
Ni5_3 N5_2 1_555 1_555
H39_2 C79_2 1_555 1_555
C52_2 N5_2 1_555 1_555
C60_2 C72_2 1_555 1_555
C67_2 C68_2 1_555 1_555
C69_2 O15_2 1_555 1_555
N6_3 Ni5_3 1_555 1_555
N7_3 Ni5_3 1_555 1_555
O16_2 H55_2 1_555 1_555
O12_2 H53 1_555 1_555
H4_2 C9_2 1_555 1_555
C25_2 C26_2 1_555 1_555
C26_2 H13_2 1_555 1_555
C27_2 C26_2 1_555 1_555
H14_2 C27_2 1_555 1_555
C28_2 C27_2 1_555 1_555
C29_2 C28_2 1_555 1_555
C30_2 C29_2 1_555 1_555
C32_2 C30_2 1_555 1_555
H16_2 C32_2 1_555 1_555
C33_2 C32_2 1_555 1_555
H17_2 C33_2 1_555 1_555
C34_2 C33_2 1_555 1_555
C35_2 C25_2 1_555 1_555
C36_2 C35_2 1_555 1_555
C37_2 C36_2 1_555 1_555
H18_2 C37_2 1_555 1_555
C38_2 C37_2 1_555 1_555
H19_2 C38_2 1_555 1_555
C39_2 C38_2 1_555 1_555
C40_2 C36_2 1_555 1_555
H20_2 C40_2 1_555 1_555
C41_2 C39_2 1_555 1_555
H21_2 C41_2 1_555 1_555
C42_2 C39_2 1_555 1_555
C43_2 N3_3 1_555 1_555
H22_2 C44_2 1_555 1_555
N4_2 Ni1_3 1_555 1_555
O7_2 C42_2 1_555 1_555
O8_2 C42_2 1_555 1_555
C46_2 N2_3 1_555 1_555
H24_2 C47_2 1_555 1_555
C48_2 C34_2 1_555 1_555
O22 C48_2 1_555 1_555
O26 C48_2 1_555 1_555
O29_3 Ni14_2 1_555 1_555
Ni14_2 O7_2 1_555 1_555
N2_3 Ni1_3 1_555 1_555
N3_3 Ni1_3 1_555 1_555
C25_2 N4_2 1_555 1_555
C28_2 N4_2 1_555 1_555
C29_2 C46_2 1_555 1_555
C34_2 C45_2 1_555 1_555
C35_2 C43_2 1_555 1_555
C40_2 C41_2 1_555 1_555
C43_2 C44_2 1_555 1_555
C46_2 C47_2 1_555 1_555
O8_2 H54_2 1_555 1_555
O12_3 H52 1_555 1_555
O16 H51_3 1_555 1_555
O18 H54_3 1_555 1_555
O4 H55_3 1_555 1_555
O8 H56_3 1_555 1_555
O6_2 H52_2 1_555 1_555
O18_2 H54_4 1_555 1_555
O6_3 H53_2 1_555 1_555
O4_2 H55_4 1_555 1_555
O16_2 H51_4 1_555 1_555
O12_2 H49_2 1_555 1_555
O8_2 H56_4 1_555 1_555
O12_3 H50_2 1_555 1_555

#END
