
###############################################################################
#
# This file contains modified crystal structure data generated from the
# MOF subset of the Cambridge Structural Database (CSD) v543 
# hosted by the Cambridge Crystallographic Data Centre (CCDC).
#
# This work is licensed under the Creative Commons
# Attribution-NonCommercial-ShareAlike 4.0 International License.
# To view a copy of this license, visit
# http://creativecommons.org/licenses/by-nc-sa/4.0/
# or send a letter to
# Creative Commons, PO Box 1866, Mountain View, CA 94042, USA.
#
# CIF created using the CSD Python API on 29 September 2022
# The structure has been converted into the P1 space group
# The structure has a 3D framework
# The original CSD entry KESBIU01 is in the orthorhombic crystal system
# The framework has been calculated to contain at least 10.0% void space
# The void calculation uses a probe of radius 1.32A, grid spacing 0.4
#
###############################################################################

data_KESBIU01
_chemical_formula_moiety         '(C336 H240 Ag8 Co8 F48 N72 P8)n'
_symmetry_cell_setting           triclinic
_symmetry_space_group_name_H-M   'P 1'
_symmetry_Int_Tables_number      1
_space_group_name_Hall           'P 1'
loop_
_symmetry_equiv_pos_site_id
_symmetry_equiv_pos_as_xyz
1 x,y,z
_cell_length_a                   27.062(7)
_cell_length_b                   13.006(3)
_cell_length_c                   33.486(8)
_cell_angle_alpha                90
_cell_angle_beta                 90
_cell_angle_gamma                90
_cell_volume                     11786
loop_
_atom_site_label
_atom_site_type_symbol
_atom_site_fract_x
_atom_site_fract_y
_atom_site_fract_z
P1 P 0.66147(8) 0.52693(18) 0.36944(8)
F1 F 0.6251(3) 0.5802(6) 0.3408(3)
F2 F 0.6503(3) 0.4167(4) 0.3605(2)
F3 F 0.7076(3) 0.5659(9) 0.3568(3)
F4 F 0.6543(4) 0.6124(7) 0.4042(2)
F5 F 0.6089(4) 0.5021(10) 0.3990(3)
F6 F 0.6872(3) 0.4662(6) 0.4088(3)
F2_2 F 0.8497(3) 0.0833(4) 0.8605(2)
F6_2 F 0.8128(3) 0.0338(6) 0.9088(3)
P1_2 P 0.83853(8) 0.97307(18) 0.86944(8)
F1_2 F 0.8749(3) 0.9198(6) 0.8408(3)
F3_2 F 0.7924(3) 0.9341(9) 0.8568(3)
F4_2 F 0.8457(4) 0.8876(7) 0.9042(2)
F5_2 F 0.8911(4) 0.9979(10) 0.8990(3)
P1_3 P 0.33853(8) 0.52693(18) 0.13056(8)
F1_3 F 0.3749(3) 0.5802(6) 0.1592(3)
F2_3 F 0.3497(3) 0.4167(4) 0.1395(2)
F3_3 F 0.2924(3) 0.5659(9) 0.1432(3)
F4_3 F 0.3457(4) 0.6124(7) 0.0958(2)
F5_3 F 0.3911(4) 0.5021(10) 0.1010(3)
F6_3 F 0.3128(3) 0.4662(6) 0.0912(3)
F2_4 F 0.1503(3) 0.0833(4) 0.6395(2)
F6_4 F 0.1872(3) 0.0338(6) 0.5912(3)
P1_4 P 0.16147(8) 0.97307(18) 0.63056(8)
F1_4 F 0.1251(3) 0.9198(6) 0.6592(3)
F3_4 F 0.2076(3) 0.9341(9) 0.6432(3)
F4_4 F 0.1543(4) 0.8876(7) 0.5958(2)
F5_4 F 0.1089(4) 0.9979(10) 0.6010(3)
P1_5 P 0.33853(8) 0.47307(18) 0.63056(8)
F1_5 F 0.3749(3) 0.4198(6) 0.6592(3)
F2_5 F 0.3497(3) 0.5833(4) 0.6395(2)
F3_5 F 0.2924(3) 0.4341(9) 0.6432(3)
F4_5 F 0.3457(4) 0.3876(7) 0.5958(2)
F5_5 F 0.3911(4) 0.4979(10) 0.6010(3)
F6_5 F 0.3128(3) 0.5338(6) 0.5912(3)
P1_6 P 0.16147(8) 0.02693(18) 0.13056(8)
F1_6 F 0.1251(3) 0.0802(6) 0.1592(3)
F3_6 F 0.2076(3) 0.0659(9) 0.1432(3)
F4_6 F 0.1543(4) 0.1124(7) 0.0958(2)
F5_6 F 0.1089(4) 0.0021(10) 0.1010(3)
F2_6 F 0.1503(3) 0.9167(4) 0.1395(2)
F6_6 F 0.1872(3) 0.9662(6) 0.0912(3)
P1_7 P 0.66147(8) 0.47307(18) 0.86944(8)
F1_7 F 0.6251(3) 0.4198(6) 0.8408(3)
F2_7 F 0.6503(3) 0.5833(4) 0.8605(2)
F3_7 F 0.7076(3) 0.4341(9) 0.8568(3)
F4_7 F 0.6543(4) 0.3876(7) 0.9042(2)
F5_7 F 0.6089(4) 0.4979(10) 0.8990(3)
F6_7 F 0.6872(3) 0.5338(6) 0.9088(3)
P1_8 P 0.83853(8) 0.02693(18) 0.36944(8)
F1_8 F 0.8749(3) 0.0802(6) 0.3408(3)
F3_8 F 0.7924(3) 0.0659(9) 0.3568(3)
F4_8 F 0.8457(4) 0.1124(7) 0.4042(2)
F5_8 F 0.8911(4) 0.0021(10) 0.3990(3)
F2_8 F 0.8497(3) 0.9167(4) 0.3605(2)
F6_8 F 0.8128(3) 0.9662(6) 0.4088(3)
Co1 Co 0.06843(3) 0.47425(7) 0.38622(2)
C1 C 0.0131(2) 0.6548(5) 0.3564(2)
H1 H 0.0415 0.6964 0.3566
C8 C 0.0009(3) 0.1961(5) 0.4183(2)
H5 H 0.0022 0.1284 0.4281
C9 C 0.0410(2) 0.2665(5) 0.4155(2)
H6 H 0.0736 0.2522 0.4236
N1 N 0.01200(18) 0.5569(4) 0.36915(14)
N2 N 0.02615(17) 0.3563(4) 0.39971(15)
N10 N 0.07166(18) 0.4266(4) 0.33080(15)
N11 N 0.11231(17) 0.5880(4) 0.37516(15)
N12 N 0.12700(17) 0.3948(4) 0.39974(15)
N13 N 0.06023(17) 0.5214(4) 0.44124(15)
Ag1 Ag 0.717894(19) 0.27712(5) 0.359256(15)
C2 C 0.9659(2) 0.6879(5) 0.3424(2)
H2 H 0.9578 0.7531 0.3323
C3 C 0.9351(2) 0.6060(6) 0.3466(2)
H3 H 0.9015 0.6042 0.3396
C4 C 0.9634(2) 0.5213(5) 0.36396(19)
C5 C 0.9466(2) 0.4256(5) 0.37472(18)
C6 C 0.9763(2) 0.3478(5) 0.39157(17)
C7 C 0.9601(2) 0.2464(5) 0.4040(2)
H4 H 0.9278 0.2201 0.4024
C10 C 0.8940(2) 0.3989(5) 0.36667(18)
C11 C 0.8801(2) 0.3238(5) 0.3389(2)
H7 H 0.9040 0.2891 0.3237
C12 C 0.8303(2) 0.3016(5) 0.33425(19)
H8 H 0.8215 0.2505 0.3157
C13 C 0.8076(2) 0.4222(6) 0.3806(2)
H9 H 0.7827 0.4562 0.3951
C14 C 0.8560(2) 0.4518(5) 0.3876(2)
H10 H 0.8635 0.5051 0.4056
C19 C 0.6178(2) 0.0697(5) 0.19853(18)
C20 C 0.6289(2) 0.1210(5) 0.16268(18)
C21 C 0.6605(3) 0.2079(6) 0.1572(2)
H14 H 0.6768 0.2448 0.1775
C22 C 0.6627(3) 0.2275(7) 0.1168(2)
H15 H 0.6808 0.2795 0.1040
C23 C 0.6318(2) 0.1527(6) 0.09846(19)
H16 H 0.6259 0.1495 0.0708
C24 C 0.6378(2) 0.1167(6) 0.23653(19)
C25 C 0.6213(3) 0.2107(6) 0.2503(2)
H17 H 0.5960 0.2459 0.2367
C26 C 0.6427(3) 0.2535(6) 0.2849(2)
H18 H 0.6314 0.3177 0.2941
C27 C 0.6939(3) 0.1165(7) 0.2919(2)
H19 H 0.7189 0.0824 0.3061
C28 C 0.6752(3) 0.0691(7) 0.2579(2)
H20 H 0.6878 0.0054 0.2495
C29 C 0.6575(3) 0.1542(6) 0.6262(2)
H21 H 0.6549 0.1506 0.6542
C30 C 0.6927(3) 0.2096(7) 0.6060(2)
H22 H 0.7174 0.2506 0.6177
C31 C 0.6855(2) 0.1943(6) 0.5655(2)
H23 H 0.7040 0.2237 0.5446
C32 C 0.6452(2) 0.1262(5) 0.56149(19)
C33 C 0.6236(2) 0.0872(5) 0.52643(19)
C34 C 0.5858(2) 0.0163(5) 0.52474(17)
C38 C 0.6458(2) 0.1239(5) 0.48719(19)
C39 C 0.6941(2) 0.1045(6) 0.4769(2)
H27 H 0.7144 0.0648 0.4936
C40 C 0.7123(2) 0.1448(6) 0.4412(2)
H28 H 0.7452 0.1302 0.4340
C41 C 0.6383(2) 0.2232(5) 0.4271(2)
H29 H 0.6192 0.2658 0.4106
C42 C 0.6167(2) 0.1835(5) 0.46145(19)
H30 H 0.5833 0.1962 0.4673
N3 N 0.79335(19) 0.3494(4) 0.35494(16)
N5 N 0.61231(17) 0.0880(4) 0.12484(15)
N6 N 0.6789(2) 0.2050(5) 0.30521(17)
N7 N 0.62700(17) 0.1052(4) 0.60026(15)
N9 N 0.6848(2) 0.2042(4) 0.41646(16)
Co3 Co 0.56843(3) 0.02575(7) 0.61378(2)
C15 C 0.5524(2) 0.8386(5) 0.1845(2)
H11 H 0.5367 0.7878 0.1691
C16 C 0.5588(3) 0.8325(7) 0.2257(2)
H12 H 0.5492 0.7779 0.2425
C17 C 0.5812(3) 0.9204(6) 0.2368(2)
H13 H 0.5892 0.9399 0.2631
C18 C 0.5908(2) 0.9787(5) 0.20143(19)
C35 C 0.5688(2) 0.9581(6) 0.4905(2)
H24 H 0.5796 0.9661 0.4640
C36 C 0.5342(2) 0.8894(6) 0.5037(2)
H25 H 0.5166 0.8418 0.4880
C37 C 0.5298(2) 0.9038(5) 0.54582(18)
H26 H 0.5084 0.8659 0.5624
N4 N 0.57166(18) 0.9266(4) 0.16920(15)
N8 N 0.56023(17) 0.9786(4) 0.55876(15)
Co2 Co 0.56843(3) 0.97425(7) 0.11378(2)
Ag1_2 Ag 0.217894(19) 0.22288(5) 0.640744(15)
C5_2 C 0.4466(2) 0.0744(5) 0.62528(18)
C6_2 C 0.4763(2) 0.1522(5) 0.60843(17)
C7_2 C 0.4601(2) 0.2536(5) 0.5960(2)
H4_2 H 0.4278 0.2799 0.5976
C8_2 C 0.5009(3) 0.3039(5) 0.5817(2)
H5_2 H 0.5022 0.3716 0.5719
C9_2 C 0.5410(2) 0.2335(5) 0.5845(2)
H6_2 H 0.5736 0.2478 0.5764
C10_2 C 0.3940(2) 0.1011(5) 0.63333(18)
C11_2 C 0.3801(2) 0.1762(5) 0.6611(2)
H7_2 H 0.4040 0.2109 0.6763
C12_2 C 0.3303(2) 0.1984(5) 0.66575(19)
H8_2 H 0.3215 0.2495 0.6843
C13_2 C 0.3076(2) 0.0778(6) 0.6194(2)
H9_2 H 0.2827 0.0438 0.6049
C14_2 C 0.3560(2) 0.0482(5) 0.6124(2)
C15_2 C 0.0524(2) 0.6614(5) 0.8155(2)
H11_2 H 0.0367 0.7122 0.8309
C16_2 C 0.0588(3) 0.6675(7) 0.7743(2)
H12_2 H 0.0492 0.7221 0.7575
C17_2 C 0.0812(3) 0.5796(6) 0.7632(2)
H13_2 H 0.0892 0.5601 0.7369
C18_2 C 0.0908(2) 0.5213(5) 0.79857(19)
C19_2 C 0.1178(2) 0.4303(5) 0.80147(18)
C20_2 C 0.1289(2) 0.3790(5) 0.83732(18)
C21_2 C 0.1605(3) 0.2921(6) 0.8428(2)
H14_2 H 0.1768 0.2552 0.8225
C22_2 C 0.1627(3) 0.2725(7) 0.8832(2)
H15_2 H 0.1808 0.2205 0.8960
C23_2 C 0.1318(2) 0.3473(6) 0.90154(19)
H16_2 H 0.1259 0.3505 0.9292
C24_2 C 0.1378(2) 0.3833(6) 0.76347(19)
C25_2 C 0.1213(3) 0.2893(6) 0.7497(2)
H17_2 H 0.0960 0.2541 0.7633
C26_2 C 0.1427(3) 0.2465(6) 0.7151(2)
H18_2 H 0.1314 0.1823 0.7059
C27_2 C 0.1939(3) 0.3835(7) 0.7081(2)
H19_2 H 0.2189 0.4176 0.6939
C28_2 C 0.1752(3) 0.4309(7) 0.7421(2)
H20_2 H 0.1878 0.4946 0.7505
C29_2 C 0.1575(3) 0.3458(6) 0.3738(2)
H21_2 H 0.1549 0.3494 0.3458
C30_2 C 0.1927(3) 0.2904(7) 0.3940(2)
H22_2 H 0.2174 0.2494 0.3823
C31_2 C 0.1855(2) 0.3057(6) 0.4345(2)
H23_2 H 0.2040 0.2763 0.4554
C32_2 C 0.1452(2) 0.3738(5) 0.43851(19)
C33_2 C 0.1236(2) 0.4128(5) 0.47357(19)
C34_2 C 0.0858(2) 0.4837(5) 0.47526(17)
C35_2 C 0.0688(2) 0.5419(6) 0.5095(2)
H24_2 H 0.0796 0.5339 0.5360
C36_2 C 0.0342(2) 0.6106(6) 0.4963(2)
H25_2 H 0.0166 0.6582 0.5120
C37_2 C 0.0298(2) 0.5962(5) 0.45418(18)
H26_2 H 0.0084 0.6341 0.4376
C38_2 C 0.1458(2) 0.3761(5) 0.51281(19)
C39_2 C 0.1941(2) 0.3955(6) 0.5231(2)
H27_2 H 0.2144 0.4352 0.5064
C40_2 C 0.2123(2) 0.3552(6) 0.5588(2)
H28_2 H 0.2452 0.3698 0.5660
C41_2 C 0.1383(2) 0.2768(5) 0.5729(2)
H29_2 H 0.1192 0.2342 0.5894
C42_2 C 0.1167(2) 0.3165(5) 0.53855(19)
H30_2 H 0.0833 0.3038 0.5327
N2_2 N 0.52615(17) 0.1437(4) 0.60029(15)
N3_2 N 0.29335(19) 0.1506(4) 0.64506(16)
N4_2 N 0.07166(18) 0.5734(4) 0.83080(15)
N5_2 N 0.11231(17) 0.4120(4) 0.87516(15)
N6_2 N 0.1789(2) 0.2950(5) 0.69479(17)
N9_2 N 0.1848(2) 0.2958(4) 0.58354(16)
Co2_2 Co 0.06843(3) 0.52575(7) 0.88622(2)
N10_2 N 0.57166(18) 0.0734(4) 0.66920(15)
C1_2 C 0.5131(2) 0.8452(5) 0.6436(2)
H1_2 H 0.5415 0.8036 0.6434
C2_2 C 0.4659(2) 0.8121(5) 0.6576(2)
H2_2 H 0.4578 0.7469 0.6677
C3_2 C 0.4351(2) 0.8940(6) 0.6534(2)
H3_2 H 0.4015 0.8958 0.6604
C4_2 C 0.4634(2) 0.9787(5) 0.63604(19)
H10_2 H 0.3635 0.9949 0.5944
N1_2 N 0.51200(18) 0.9431(4) 0.63085(14)
N11_2 N 0.61231(17) 0.9120(4) 0.62484(15)
C1_3 C 0.5131(2) 0.1548(5) 0.1436(2)
H1_3 H 0.5415 0.1964 0.1434
C2_3 C 0.4659(2) 0.1879(5) 0.1576(2)
H2_3 H 0.4578 0.2531 0.1677
C3_3 C 0.4351(2) 0.1060(6) 0.1534(2)
H3_3 H 0.4015 0.1042 0.1604
C4_3 C 0.4634(2) 0.0213(5) 0.13604(19)
H10_3 H 0.3635 0.0051 0.0944
N1_3 N 0.51200(18) 0.0569(4) 0.13085(14)
N13_2 N 0.56023(17) 0.0214(4) 0.05876(15)
Ag1_3 Ag 0.217894(19) 0.77712(5) 0.140744(15)
C5_3 C 0.4466(2) 0.9256(5) 0.12528(18)
C6_3 C 0.4763(2) 0.8478(5) 0.10843(17)
C7_3 C 0.4601(2) 0.7464(5) 0.0960(2)
H4_3 H 0.4278 0.7201 0.0976
C8_3 C 0.5009(3) 0.6961(5) 0.0817(2)
H5_3 H 0.5022 0.6284 0.0719
C9_3 C 0.5410(2) 0.7665(5) 0.0845(2)
H6_3 H 0.5736 0.7522 0.0764
C10_3 C 0.3940(2) 0.8989(5) 0.13333(18)
C11_3 C 0.3801(2) 0.8238(5) 0.1611(2)
H7_3 H 0.4040 0.7891 0.1763
C12_3 C 0.3303(2) 0.8016(5) 0.16575(19)
H8_3 H 0.3215 0.7505 0.1843
C13_3 C 0.3076(2) 0.9222(6) 0.1194(2)
H9_3 H 0.2827 0.9562 0.1049
C14_3 C 0.3560(2) 0.9518(5) 0.1124(2)
C15_3 C 0.0524(2) 0.3386(5) 0.3155(2)
H11_3 H 0.0367 0.2878 0.3309
C16_3 C 0.0588(3) 0.3325(7) 0.2743(2)
H12_3 H 0.0492 0.2779 0.2575
C17_3 C 0.0812(3) 0.4204(6) 0.2632(2)
H13_3 H 0.0892 0.4399 0.2369
C18_3 C 0.0908(2) 0.4787(5) 0.29857(19)
C19_3 C 0.1178(2) 0.5697(5) 0.30147(18)
C20_3 C 0.1289(2) 0.6210(5) 0.33732(18)
C21_3 C 0.1605(3) 0.7079(6) 0.3428(2)
H14_3 H 0.1768 0.7448 0.3225
C22_3 C 0.1627(3) 0.7275(7) 0.3832(2)
H15_3 H 0.1808 0.7795 0.3960
C23_3 C 0.1318(2) 0.6527(6) 0.40154(19)
H16_3 H 0.1259 0.6495 0.4292
C24_3 C 0.1378(2) 0.6167(6) 0.26347(19)
C25_3 C 0.1213(3) 0.7107(6) 0.2497(2)
H17_3 H 0.0960 0.7459 0.2633
C26_3 C 0.1427(3) 0.7535(6) 0.2151(2)
H18_3 H 0.1314 0.8177 0.2059
C27_3 C 0.1939(3) 0.6165(7) 0.2081(2)
H19_3 H 0.2189 0.5824 0.1939
C28_3 C 0.1752(3) 0.5691(7) 0.2421(2)
H20_3 H 0.1878 0.5054 0.2505
C35_3 C 0.0688(2) 0.4581(6) 0.0095(2)
H24_3 H 0.0796 0.4661 0.0360
H25_3 H 0.0166 0.3418 0.0120
C38_3 C 0.1458(2) 0.6239(5) 0.01281(19)
C39_3 C 0.1941(2) 0.6045(6) 0.0231(2)
H27_3 H 0.2144 0.5648 0.0064
C40_3 C 0.2123(2) 0.6448(6) 0.0588(2)
H28_3 H 0.2452 0.6302 0.0660
C41_3 C 0.1383(2) 0.7232(5) 0.0729(2)
H29_3 H 0.1192 0.7658 0.0894
C42_3 C 0.1167(2) 0.6835(5) 0.03855(19)
H30_3 H 0.0833 0.6962 0.0327
N2_3 N 0.52615(17) 0.8563(4) 0.10029(15)
N3_3 N 0.29335(19) 0.8494(4) 0.14506(16)
N6_3 N 0.1789(2) 0.7050(5) 0.19479(17)
N9_3 N 0.1848(2) 0.7042(4) 0.08354(16)
N12_2 N 0.62700(17) 0.8948(4) 0.10026(15)
C29_3 C 0.1575(3) 0.6542(6) 0.8738(2)
H21_3 H 0.1549 0.6506 0.8458
C30_3 C 0.1927(3) 0.7096(7) 0.8940(2)
H22_3 H 0.2174 0.7506 0.8823
C31_3 C 0.1855(2) 0.6943(6) 0.9345(2)
H23_3 H 0.2040 0.7237 0.9554
C32_3 C 0.1452(2) 0.6262(5) 0.93851(19)
C33_3 C 0.1236(2) 0.5872(5) 0.97357(19)
C34_3 C 0.0858(2) 0.5163(5) 0.97526(17)
C36_3 C 0.0342(2) 0.3894(6) 0.9963(2)
C37_3 C 0.0298(2) 0.4038(5) 0.95418(18)
H26_3 H 0.0084 0.3659 0.9376
N7_2 N 0.12700(17) 0.6052(4) 0.89974(15)
N8_2 N 0.06023(17) 0.4786(4) 0.94124(15)
C1_4 C 0.0131(2) 0.3452(5) 0.8564(2)
H1_4 H 0.0415 0.3036 0.8566
C8_4 C 0.0009(3) 0.8039(5) 0.9183(2)
H5_4 H 0.0022 0.8716 0.9281
C9_4 C 0.0410(2) 0.7335(5) 0.9155(2)
H6_4 H 0.0736 0.7478 0.9236
N1_4 N 0.01200(18) 0.4431(4) 0.86915(14)
N2_4 N 0.02615(17) 0.6437(4) 0.89971(15)
C36_4 C 0.5342(2) 0.1106(6) 0.0037(2)
C37_4 C 0.5298(2) 0.0962(5) 0.04582(18)
H26_4 H 0.5084 0.1341 0.0624
C15_4 C 0.5524(2) 0.1614(5) 0.6845(2)
H11_4 H 0.5367 0.2122 0.6691
C16_4 C 0.5588(3) 0.1675(7) 0.7257(2)
H12_4 H 0.5492 0.2221 0.7425
C17_4 C 0.5812(3) 0.0796(6) 0.7368(2)
H13_4 H 0.5892 0.0601 0.7631
C18_4 C 0.5908(2) 0.0213(5) 0.70143(19)
C35_4 C 0.5688(2) 0.0419(6) 0.9905(2)
H24_4 H 0.5796 0.0339 0.9640
H25_4 H 0.5166 0.1582 0.9880
C29_4 C 0.6575(3) 0.8458(6) 0.1262(2)
H21_4 H 0.6549 0.8494 0.1542
C30_4 C 0.6927(3) 0.7904(7) 0.1060(2)
H22_4 H 0.7174 0.7494 0.1177
C31_4 C 0.6855(2) 0.8057(6) 0.0655(2)
H23_4 H 0.7040 0.7763 0.0446
C32_4 C 0.6452(2) 0.8738(5) 0.06149(19)
C33_4 C 0.6236(2) 0.9128(5) 0.02643(19)
C34_4 C 0.5858(2) 0.9837(5) 0.02474(17)
Ag1_4 Ag 0.717894(19) 0.72288(5) 0.859256(15)
C2_4 C 0.9659(2) 0.3121(5) 0.8424(2)
H2_4 H 0.9578 0.2469 0.8323
C3_4 C 0.9351(2) 0.3940(6) 0.8466(2)
H3_4 H 0.9015 0.3958 0.8396
C4_4 C 0.9634(2) 0.4787(5) 0.86396(19)
C5_4 C 0.9466(2) 0.5744(5) 0.87472(18)
C6_4 C 0.9763(2) 0.6522(5) 0.89157(17)
C7_4 C 0.9601(2) 0.7536(5) 0.9040(2)
H4_4 H 0.9278 0.7799 0.9024
C10_4 C 0.8940(2) 0.6011(5) 0.86667(18)
C11_4 C 0.8801(2) 0.6762(5) 0.8389(2)
H7_4 H 0.9040 0.7109 0.8237
C12_4 C 0.8303(2) 0.6984(5) 0.83425(19)
H8_4 H 0.8215 0.7495 0.8157
C13_4 C 0.8076(2) 0.5778(6) 0.8806(2)
H9_4 H 0.7827 0.5438 0.8951
C14_4 C 0.8560(2) 0.5482(5) 0.8876(2)
H10_4 H 0.8635 0.4949 0.9056
C19_4 C 0.6178(2) 0.9303(5) 0.69853(18)
C20_4 C 0.6289(2) 0.8790(5) 0.66268(18)
C21_4 C 0.6605(3) 0.7921(6) 0.6572(2)
H14_4 H 0.6768 0.7552 0.6775
C22_4 C 0.6627(3) 0.7725(7) 0.6168(2)
H15_4 H 0.6808 0.7205 0.6040
C23_4 C 0.6318(2) 0.8473(6) 0.59846(19)
H16_4 H 0.6259 0.8505 0.5708
C24_4 C 0.6378(2) 0.8833(6) 0.73653(19)
C25_4 C 0.6213(3) 0.7893(6) 0.7503(2)
H17_4 H 0.5960 0.7541 0.7367
C26_4 C 0.6427(3) 0.7465(6) 0.7849(2)
H18_4 H 0.6314 0.6823 0.7941
C27_4 C 0.6939(3) 0.8835(7) 0.7919(2)
H19_4 H 0.7189 0.9176 0.8061
C28_4 C 0.6752(3) 0.9309(7) 0.7579(2)
H20_4 H 0.6878 0.9946 0.7495
C38_4 C 0.6458(2) 0.8761(5) 0.98719(19)
C39_4 C 0.6941(2) 0.8955(6) 0.9769(2)
H27_4 H 0.7144 0.9352 0.9936
C40_4 C 0.7123(2) 0.8552(6) 0.9412(2)
H28_4 H 0.7452 0.8698 0.9340
C41_4 C 0.6383(2) 0.7768(5) 0.9271(2)
H29_4 H 0.6192 0.7342 0.9106
C42_4 C 0.6167(2) 0.8165(5) 0.96145(19)
H30_4 H 0.5833 0.8038 0.9673
N3_4 N 0.79335(19) 0.6506(4) 0.85494(16)
N6_4 N 0.6789(2) 0.7950(5) 0.80521(17)
N9_4 N 0.6848(2) 0.7958(4) 0.91646(16)
C29_5 C 0.8425(3) 0.3458(6) 0.1262(2)
H21_5 H 0.8451 0.3494 0.1542
C30_5 C 0.8073(3) 0.2904(7) 0.1060(2)
H22_5 H 0.7826 0.2494 0.1177
C31_5 C 0.8145(2) 0.3057(6) 0.0655(2)
H23_5 H 0.7960 0.2763 0.0446
C32_5 C 0.8548(2) 0.3738(5) 0.06149(19)
C33_5 C 0.8764(2) 0.4128(5) 0.02643(19)
C34_5 C 0.9142(2) 0.4837(5) 0.02474(17)
C36_5 C 0.9658(2) 0.6106(6) 0.0037(2)
C37_5 C 0.9702(2) 0.5962(5) 0.04582(18)
H26_5 H 0.9916 0.6341 0.0624
N7_3 N 0.87300(17) 0.3948(4) 0.10026(15)
N8_3 N 0.93977(17) 0.5214(4) 0.05876(15)
Co3_2 Co 0.93157(3) 0.47425(7) 0.11378(2)
Ag1_5 Ag 0.782106(19) 0.22288(5) 0.859256(15)
Co1_2 Co 0.43157(3) 0.02575(7) 0.88622(2)
C5_5 C 0.5534(2) 0.0744(5) 0.87472(18)
C6_5 C 0.5237(2) 0.1522(5) 0.89157(17)
C7_5 C 0.5399(2) 0.2536(5) 0.9040(2)
H4_5 H 0.5722 0.2799 0.9024
C8_5 C 0.4991(3) 0.3039(5) 0.9183(2)
H5_5 H 0.4978 0.3716 0.9281
C9_5 C 0.4590(2) 0.2335(5) 0.9155(2)
H6_5 H 0.4264 0.2478 0.9236
C10_5 C 0.6060(2) 0.1011(5) 0.86667(18)
C11_5 C 0.6199(2) 0.1762(5) 0.8389(2)
H7_5 H 0.5960 0.2109 0.8237
C12_5 C 0.6697(2) 0.1984(5) 0.83425(19)
H8_5 H 0.6785 0.2495 0.8157
C13_5 C 0.6924(2) 0.0778(6) 0.8806(2)
H9_5 H 0.7173 0.0438 0.8951
C14_5 C 0.6440(2) 0.0482(5) 0.8876(2)
C15_5 C 0.9476(2) 0.6614(5) 0.6845(2)
H11_5 H 0.9633 0.7122 0.6691
C16_5 C 0.9412(3) 0.6675(7) 0.7257(2)
H12_5 H 0.9508 0.7221 0.7425
C17_5 C 0.9188(3) 0.5796(6) 0.7368(2)
H13_5 H 0.9108 0.5601 0.7631
C18_5 C 0.9092(2) 0.5213(5) 0.70143(19)
C19_5 C 0.8822(2) 0.4303(5) 0.69853(18)
C20_5 C 0.8711(2) 0.3790(5) 0.66268(18)
C21_5 C 0.8395(3) 0.2921(6) 0.6572(2)
H14_5 H 0.8232 0.2552 0.6775
C22_5 C 0.8373(3) 0.2725(7) 0.6168(2)
H15_5 H 0.8192 0.2205 0.6040
C23_5 C 0.8682(2) 0.3473(6) 0.59846(19)
H16_5 H 0.8741 0.3505 0.5708
C24_5 C 0.8622(2) 0.3833(6) 0.73653(19)
C25_5 C 0.8787(3) 0.2893(6) 0.7503(2)
H17_5 H 0.9040 0.2541 0.7367
C26_5 C 0.8573(3) 0.2465(6) 0.7849(2)
H18_5 H 0.8686 0.1823 0.7941
C27_5 C 0.8061(3) 0.3835(7) 0.7919(2)
H19_5 H 0.7811 0.4176 0.8061
C28_5 C 0.8248(3) 0.4309(7) 0.7579(2)
H20_5 H 0.8122 0.4946 0.7495
C35_5 C 0.9312(2) 0.5419(6) 0.9905(2)
H24_5 H 0.9204 0.5339 0.9640
H25_5 H 0.9834 0.6582 0.9880
C38_5 C 0.8542(2) 0.3761(5) 0.98719(19)
C39_5 C 0.8059(2) 0.3955(6) 0.9769(2)
H27_5 H 0.7856 0.4352 0.9936
C40_5 C 0.7877(2) 0.3552(6) 0.9412(2)
H28_5 H 0.7548 0.3698 0.9340
C41_5 C 0.8617(2) 0.2768(5) 0.9271(2)
H29_5 H 0.8808 0.2342 0.9106
C42_5 C 0.8833(2) 0.3165(5) 0.96145(19)
H30_5 H 0.9167 0.3038 0.9673
N2_5 N 0.47385(17) 0.1437(4) 0.89971(15)
N3_5 N 0.70665(19) 0.1506(4) 0.85494(16)
N4_3 N 0.92834(18) 0.5734(4) 0.66920(15)
N5_3 N 0.88769(17) 0.4120(4) 0.62484(15)
N6_5 N 0.8211(2) 0.2950(5) 0.80521(17)
N9_5 N 0.8152(2) 0.2958(4) 0.91646(16)
Co2_3 Co 0.93157(3) 0.52575(7) 0.61378(2)
N10_3 N 0.42834(18) 0.0734(4) 0.83080(15)
N12_3 N 0.37300(17) 0.1052(4) 0.89974(15)
C1_5 C 0.4869(2) 0.8452(5) 0.8564(2)
H1_5 H 0.4585 0.8036 0.8566
C2_5 C 0.5341(2) 0.8121(5) 0.8424(2)
H2_5 H 0.5422 0.7469 0.8323
C3_5 C 0.5649(2) 0.8940(6) 0.8466(2)
H3_5 H 0.5985 0.8958 0.8396
C4_5 C 0.5366(2) 0.9787(5) 0.86396(19)
H10_5 H 0.6365 0.9949 0.9056
N1_5 N 0.48800(18) 0.9431(4) 0.86915(14)
N11_3 N 0.38769(17) 0.9120(4) 0.87516(15)
N13_3 N 0.43977(17) 0.9786(4) 0.94124(15)
Ag1_6 Ag 0.282106(19) 0.27712(5) 0.140744(15)
C2_6 C 0.0341(2) 0.6879(5) 0.1576(2)
H2_6 H 0.0422 0.7531 0.1677
C3_6 C 0.0649(2) 0.6060(6) 0.1534(2)
H3_6 H 0.0985 0.6042 0.1604
C4_6 C 0.0366(2) 0.5213(5) 0.13604(19)
C5_6 C 0.0534(2) 0.4256(5) 0.12528(18)
C6_6 C 0.0237(2) 0.3478(5) 0.10843(17)
C7_6 C 0.0399(2) 0.2464(5) 0.0960(2)
H4_6 H 0.0722 0.2201 0.0976
C10_6 C 0.1060(2) 0.3989(5) 0.13333(18)
C11_6 C 0.1199(2) 0.3238(5) 0.1611(2)
H7_6 H 0.0960 0.2891 0.1763
C12_6 C 0.1697(2) 0.3016(5) 0.16575(19)
H8_6 H 0.1785 0.2505 0.1843
C13_6 C 0.1924(2) 0.4222(6) 0.1194(2)
H9_6 H 0.2173 0.4562 0.1049
C14_6 C 0.1440(2) 0.4518(5) 0.1124(2)
H10_6 H 0.1365 0.5051 0.0944
C19_6 C 0.3822(2) 0.0697(5) 0.30147(18)
C20_6 C 0.3711(2) 0.1210(5) 0.33732(18)
C21_6 C 0.3395(3) 0.2079(6) 0.3428(2)
H14_6 H 0.3232 0.2448 0.3225
C22_6 C 0.3373(3) 0.2275(7) 0.3832(2)
H15_6 H 0.3192 0.2795 0.3960
C23_6 C 0.3682(2) 0.1527(6) 0.40154(19)
H16_6 H 0.3741 0.1495 0.4292
C24_6 C 0.3622(2) 0.1167(6) 0.26347(19)
C25_6 C 0.3787(3) 0.2107(6) 0.2497(2)
H17_6 H 0.4040 0.2459 0.2633
C26_6 C 0.3573(3) 0.2535(6) 0.2151(2)
H18_6 H 0.3686 0.3177 0.2059
C27_6 C 0.3061(3) 0.1165(7) 0.2081(2)
H19_6 H 0.2811 0.0824 0.1939
C28_6 C 0.3248(3) 0.0691(7) 0.2421(2)
H20_6 H 0.3122 0.0054 0.2505
C38_6 C 0.3542(2) 0.1239(5) 0.01281(19)
C39_6 C 0.3059(2) 0.1045(6) 0.0231(2)
H27_6 H 0.2856 0.0648 0.0064
C40_6 C 0.2877(2) 0.1448(6) 0.0588(2)
H28_6 H 0.2548 0.1302 0.0660
C41_6 C 0.3617(2) 0.2232(5) 0.0729(2)
H29_6 H 0.3808 0.2658 0.0894
C42_6 C 0.3833(2) 0.1835(5) 0.03855(19)
H30_6 H 0.4167 0.1962 0.0327
N3_6 N 0.20665(19) 0.3494(4) 0.14506(16)
N5_4 N 0.38769(17) 0.0880(4) 0.37516(15)
N6_6 N 0.3211(2) 0.2050(5) 0.19479(17)
N9_6 N 0.3152(2) 0.2042(4) 0.08354(16)
C29_6 C 0.3425(3) 0.1542(6) 0.8738(2)
H21_6 H 0.3451 0.1506 0.8458
C30_6 C 0.3073(3) 0.2096(7) 0.8940(2)
H22_6 H 0.2826 0.2506 0.8823
C31_6 C 0.3145(2) 0.1943(6) 0.9345(2)
H23_6 H 0.2960 0.2237 0.9554
C32_6 C 0.3548(2) 0.1262(5) 0.93851(19)
C33_6 C 0.3764(2) 0.0872(5) 0.97357(19)
C34_6 C 0.4142(2) 0.0163(5) 0.97526(17)
C15_6 C 0.4476(2) 0.8386(5) 0.3155(2)
H11_6 H 0.4633 0.7878 0.3309
C16_6 C 0.4412(3) 0.8325(7) 0.2743(2)
H12_6 H 0.4508 0.7779 0.2575
C17_6 C 0.4188(3) 0.9204(6) 0.2632(2)
H13_6 H 0.4108 0.9399 0.2369
C18_6 C 0.4092(2) 0.9787(5) 0.29857(19)
C35_6 C 0.4312(2) 0.9581(6) 0.0095(2)
H24_6 H 0.4204 0.9661 0.0360
H25_6 H 0.4834 0.8418 0.0120
N4_4 N 0.42834(18) 0.9266(4) 0.33080(15)
Co2_4 Co 0.43157(3) 0.97425(7) 0.38622(2)
C36_6 C 0.4658(2) 0.8894(6) 0.9963(2)
C37_6 C 0.4702(2) 0.9038(5) 0.95418(18)
H26_6 H 0.4916 0.8659 0.9376
C1_6 C 0.9869(2) 0.6548(5) 0.1436(2)
H1_6 H 0.9585 0.6964 0.1434
C8_6 C 0.9991(3) 0.1961(5) 0.0817(2)
H5_6 H 0.9978 0.1284 0.0719
C9_6 C 0.9590(2) 0.2665(5) 0.0845(2)
H6_6 H 0.9264 0.2522 0.0764
N1_6 N 0.98800(18) 0.5569(4) 0.13085(14)
N2_6 N 0.97385(17) 0.3563(4) 0.10029(15)
N10_4 N 0.92834(18) 0.4266(4) 0.16920(15)
N11_4 N 0.88769(17) 0.5880(4) 0.12484(15)
C15_7 C 0.4476(2) 0.1614(5) 0.8155(2)
H11_7 H 0.4633 0.2122 0.8309
C16_7 C 0.4412(3) 0.1675(7) 0.7743(2)
H12_7 H 0.4508 0.2221 0.7575
C17_7 C 0.4188(3) 0.0796(6) 0.7632(2)
H13_7 H 0.4108 0.0601 0.7369
C18_7 C 0.4092(2) 0.0213(5) 0.79857(19)
C35_7 C 0.4312(2) 0.0419(6) 0.5095(2)
H24_7 H 0.4204 0.0339 0.5360
C36_7 C 0.4658(2) 0.1106(6) 0.4963(2)
H25_7 H 0.4834 0.1582 0.5120
C37_7 C 0.4702(2) 0.0962(5) 0.45418(18)
H26_7 H 0.4916 0.1341 0.4376
N8_4 N 0.43977(17) 0.0214(4) 0.44124(15)
Ag1_7 Ag 0.282106(19) 0.72288(5) 0.640744(15)
C2_7 C 0.0341(2) 0.3121(5) 0.6576(2)
H2_7 H 0.0422 0.2469 0.6677
C3_7 C 0.0649(2) 0.3940(6) 0.6534(2)
H3_7 H 0.0985 0.3958 0.6604
C4_7 C 0.0366(2) 0.4787(5) 0.63604(19)
C5_7 C 0.0534(2) 0.5744(5) 0.62528(18)
C6_7 C 0.0237(2) 0.6522(5) 0.60843(17)
C7_7 C 0.0399(2) 0.7536(5) 0.5960(2)
H4_7 H 0.0722 0.7799 0.5976
C10_7 C 0.1060(2) 0.6011(5) 0.63333(18)
C11_7 C 0.1199(2) 0.6762(5) 0.6611(2)
H7_7 H 0.0960 0.7109 0.6763
C12_7 C 0.1697(2) 0.6984(5) 0.66575(19)
H8_7 H 0.1785 0.7495 0.6843
C13_7 C 0.1924(2) 0.5778(6) 0.6194(2)
H9_7 H 0.2173 0.5438 0.6049
C14_7 C 0.1440(2) 0.5482(5) 0.6124(2)
H10_7 H 0.1365 0.4949 0.5944
C19_7 C 0.3822(2) 0.9303(5) 0.80147(18)
C20_7 C 0.3711(2) 0.8790(5) 0.83732(18)
C21_7 C 0.3395(3) 0.7921(6) 0.8428(2)
H14_7 H 0.3232 0.7552 0.8225
C22_7 C 0.3373(3) 0.7725(7) 0.8832(2)
H15_7 H 0.3192 0.7205 0.8960
C23_7 C 0.3682(2) 0.8473(6) 0.90154(19)
H16_7 H 0.3741 0.8505 0.9292
C24_7 C 0.3622(2) 0.8833(6) 0.76347(19)
C25_7 C 0.3787(3) 0.7893(6) 0.7497(2)
H17_7 H 0.4040 0.7541 0.7633
C26_7 C 0.3573(3) 0.7465(6) 0.7151(2)
H18_7 H 0.3686 0.6823 0.7059
C27_7 C 0.3061(3) 0.8835(7) 0.7081(2)
H19_7 H 0.2811 0.9176 0.6939
C28_7 C 0.3248(3) 0.9309(7) 0.7421(2)
H20_7 H 0.3122 0.9946 0.7505
C29_7 C 0.3425(3) 0.8458(6) 0.3738(2)
H21_7 H 0.3451 0.8494 0.3458
C30_7 C 0.3073(3) 0.7904(7) 0.3940(2)
H22_7 H 0.2826 0.7494 0.3823
C31_7 C 0.3145(2) 0.8057(6) 0.4345(2)
H23_7 H 0.2960 0.7763 0.4554
C32_7 C 0.3548(2) 0.8738(5) 0.43851(19)
C33_7 C 0.3764(2) 0.9128(5) 0.47357(19)
C34_7 C 0.4142(2) 0.9837(5) 0.47526(17)
C38_7 C 0.3542(2) 0.8761(5) 0.51281(19)
C39_7 C 0.3059(2) 0.8955(6) 0.5231(2)
H27_7 H 0.2856 0.9352 0.5064
C40_7 C 0.2877(2) 0.8552(6) 0.5588(2)
H28_7 H 0.2548 0.8698 0.5660
C41_7 C 0.3617(2) 0.7768(5) 0.5729(2)
H29_7 H 0.3808 0.7342 0.5894
C42_7 C 0.3833(2) 0.8165(5) 0.53855(19)
H30_7 H 0.4167 0.8038 0.5327
N3_7 N 0.20665(19) 0.6506(4) 0.64506(16)
N6_7 N 0.3211(2) 0.7950(5) 0.69479(17)
N7_4 N 0.37300(17) 0.8948(4) 0.39974(15)
N9_7 N 0.3152(2) 0.7958(4) 0.58354(16)
C1_7 C 0.9869(2) 0.3452(5) 0.6436(2)
H1_7 H 0.9585 0.3036 0.6434
C8_7 C 0.9991(3) 0.8039(5) 0.5817(2)
H5_7 H 0.9978 0.8716 0.5719
C9_7 C 0.9590(2) 0.7335(5) 0.5845(2)
H6_7 H 0.9264 0.7478 0.5764
N1_7 N 0.98800(18) 0.4431(4) 0.63085(14)
N2_7 N 0.97385(17) 0.6437(4) 0.60029(15)
N12_4 N 0.87300(17) 0.6052(4) 0.60026(15)
N13_4 N 0.93977(17) 0.4786(4) 0.55876(15)
C1_8 C 0.4869(2) 0.1548(5) 0.3564(2)
H1_8 H 0.4585 0.1964 0.3566
C2_8 C 0.5341(2) 0.1879(5) 0.3424(2)
H2_8 H 0.5422 0.2531 0.3323
C3_8 C 0.5649(2) 0.1060(6) 0.3466(2)
H3_8 H 0.5985 0.1042 0.3396
C4_8 C 0.5366(2) 0.0213(5) 0.36396(19)
H10_8 H 0.6365 0.0051 0.4056
N1_8 N 0.48800(18) 0.0569(4) 0.36915(14)
Ag1_8 Ag 0.782106(19) 0.77712(5) 0.359256(15)
C5_8 C 0.5534(2) 0.9256(5) 0.37472(18)
C6_8 C 0.5237(2) 0.8478(5) 0.39157(17)
C7_8 C 0.5399(2) 0.7464(5) 0.4040(2)
H4_8 H 0.5722 0.7201 0.4024
C8_8 C 0.4991(3) 0.6961(5) 0.4183(2)
H5_8 H 0.4978 0.6284 0.4281
C9_8 C 0.4590(2) 0.7665(5) 0.4155(2)
H6_8 H 0.4264 0.7522 0.4236
C10_8 C 0.6060(2) 0.8989(5) 0.36667(18)
C11_8 C 0.6199(2) 0.8238(5) 0.3389(2)
H7_8 H 0.5960 0.7891 0.3237
C12_8 C 0.6697(2) 0.8016(5) 0.33425(19)
H8_8 H 0.6785 0.7505 0.3157
C13_8 C 0.6924(2) 0.9222(6) 0.3806(2)
H9_8 H 0.7173 0.9562 0.3951
C14_8 C 0.6440(2) 0.9518(5) 0.3876(2)
C15_8 C 0.9476(2) 0.3386(5) 0.1845(2)
H11_8 H 0.9633 0.2878 0.1691
C16_8 C 0.9412(3) 0.3325(7) 0.2257(2)
H12_8 H 0.9508 0.2779 0.2425
C17_8 C 0.9188(3) 0.4204(6) 0.2368(2)
H13_8 H 0.9108 0.4399 0.2631
C18_8 C 0.9092(2) 0.4787(5) 0.20143(19)
C19_8 C 0.8822(2) 0.5697(5) 0.19853(18)
C20_8 C 0.8711(2) 0.6210(5) 0.16268(18)
C21_8 C 0.8395(3) 0.7079(6) 0.1572(2)
H14_8 H 0.8232 0.7448 0.1775
C22_8 C 0.8373(3) 0.7275(7) 0.1168(2)
H15_8 H 0.8192 0.7795 0.1040
C23_8 C 0.8682(2) 0.6527(6) 0.09846(19)
H16_8 H 0.8741 0.6495 0.0708
C24_8 C 0.8622(2) 0.6167(6) 0.23653(19)
C25_8 C 0.8787(3) 0.7107(6) 0.2503(2)
H17_8 H 0.9040 0.7459 0.2367
C26_8 C 0.8573(3) 0.7535(6) 0.2849(2)
H18_8 H 0.8686 0.8177 0.2941
C27_8 C 0.8061(3) 0.6165(7) 0.2919(2)
H19_8 H 0.7811 0.5824 0.3061
C28_8 C 0.8248(3) 0.5691(7) 0.2579(2)
H20_8 H 0.8122 0.5054 0.2495
C29_8 C 0.8425(3) 0.6542(6) 0.6262(2)
H21_8 H 0.8451 0.6506 0.6542
C30_8 C 0.8073(3) 0.7096(7) 0.6060(2)
H22_8 H 0.7826 0.7506 0.6177
C31_8 C 0.8145(2) 0.6943(6) 0.5655(2)
H23_8 H 0.7960 0.7237 0.5446
C32_8 C 0.8548(2) 0.6262(5) 0.56149(19)
C33_8 C 0.8764(2) 0.5872(5) 0.52643(19)
C34_8 C 0.9142(2) 0.5163(5) 0.52474(17)
C35_8 C 0.9312(2) 0.4581(6) 0.4905(2)
H24_8 H 0.9204 0.4661 0.4640
C36_8 C 0.9658(2) 0.3894(6) 0.5037(2)
H25_8 H 0.9834 0.3418 0.4880
C37_8 C 0.9702(2) 0.4038(5) 0.54582(18)
H26_8 H 0.9916 0.3659 0.5624
C38_8 C 0.8542(2) 0.6239(5) 0.48719(19)
C39_8 C 0.8059(2) 0.6045(6) 0.4769(2)
H27_8 H 0.7856 0.5648 0.4936
C40_8 C 0.7877(2) 0.6448(6) 0.4412(2)
H28_8 H 0.7548 0.6302 0.4340
C41_8 C 0.8617(2) 0.7232(5) 0.4271(2)
H29_8 H 0.8808 0.7658 0.4106
C42_8 C 0.8833(2) 0.6835(5) 0.46145(19)
H30_8 H 0.9167 0.6962 0.4673
N2_8 N 0.47385(17) 0.8563(4) 0.39971(15)
N3_8 N 0.70665(19) 0.8494(4) 0.35494(16)
N6_8 N 0.8211(2) 0.7050(5) 0.30521(17)
N9_8 N 0.8152(2) 0.7042(4) 0.41646(16)
loop_
_geom_bond_atom_site_label_1
_geom_bond_atom_site_label_2
_geom_bond_site_symmetry_1
_geom_bond_site_symmetry_2
P1 F1 1_555 1_555
F2 P1 1_555 1_555
F3 P1 1_555 1_555
F4 P1 1_555 1_555
F5 P1 1_555 1_555
F6 P1 1_555 1_555
P1_2 F1_2 1_555 1_555
F3_2 P1_2 1_555 1_555
F4_2 P1_2 1_555 1_555
F5_2 P1_2 1_555 1_555
P1_3 F1_3 1_555 1_555
F2_3 P1_3 1_555 1_555
F3_3 P1_3 1_555 1_555
F4_3 P1_3 1_555 1_555
F5_3 P1_3 1_555 1_555
F6_3 P1_3 1_555 1_555
P1_4 F1_4 1_555 1_555
F3_4 P1_4 1_555 1_555
F4_4 P1_4 1_555 1_555
F5_4 P1_4 1_555 1_555
P1_5 F1_5 1_555 1_555
F2_5 P1_5 1_555 1_555
F3_5 P1_5 1_555 1_555
F4_5 P1_5 1_555 1_555
F5_5 P1_5 1_555 1_555
F6_5 P1_5 1_555 1_555
P1_6 F1_6 1_555 1_555
F3_6 P1_6 1_555 1_555
F4_6 P1_6 1_555 1_555
F5_6 P1_6 1_555 1_555
P1_7 F1_7 1_555 1_555
F2_7 P1_7 1_555 1_555
F3_7 P1_7 1_555 1_555
F4_7 P1_7 1_555 1_555
F5_7 P1_7 1_555 1_555
F6_7 P1_7 1_555 1_555
P1_8 F1_8 1_555 1_555
F3_8 P1_8 1_555 1_555
F4_8 P1_8 1_555 1_555
F5_8 P1_8 1_555 1_555
Co1 N1 1_555 1_555
C1 H1 1_555 1_555
H5 C8 1_555 1_555
C9 C8 1_555 1_555
H6 C9 1_555 1_555
N1 C1 1_555 1_555
N2 Co1 1_555 1_555
N10 Co1 1_555 1_555
N11 Co1 1_555 1_555
N12 Co1 1_555 1_555
N13 Co1 1_555 1_555
C9 N2 1_555 1_555
Ag1 N3 1_555 1_555
H2 C2 1_555 1_555
C3 C2 1_555 1_555
H3 C3 1_555 1_555
C4 C3 1_555 1_555
C5 C4 1_555 1_555
C6 C5 1_555 1_555
C7 C6 1_555 1_555
H4 C7 1_555 1_555
C10 C5 1_555 1_555
C11 C10 1_555 1_555
H7 C11 1_555 1_555
C12 C11 1_555 1_555
H8 C12 1_555 1_555
C13 H9 1_555 1_555
C14 C10 1_555 1_555
H10 C14 1_555 1_555
C20 C19 1_555 1_555
C21 C20 1_555 1_555
H14 C21 1_555 1_555
C22 C21 1_555 1_555
H15 C22 1_555 1_555
C23 C22 1_555 1_555
H16 C23 1_555 1_555
C24 C19 1_555 1_555
C25 C24 1_555 1_555
H17 C25 1_555 1_555
C26 C25 1_555 1_555
H18 C26 1_555 1_555
C27 H19 1_555 1_555
C28 C24 1_555 1_555
H20 C28 1_555 1_555
C29 H21 1_555 1_555
C30 C29 1_555 1_555
H22 C30 1_555 1_555
C31 C30 1_555 1_555
H23 C31 1_555 1_555
C32 C31 1_555 1_555
C33 C32 1_555 1_555
C34 C33 1_555 1_555
C38 C33 1_555 1_555
C39 C38 1_555 1_555
H27 C39 1_555 1_555
C40 C39 1_555 1_555
H28 C40 1_555 1_555
C41 H29 1_555 1_555
C42 C38 1_555 1_555
H30 C42 1_555 1_555
N3 C12 1_555 1_555
N5 C20 1_555 1_555
N6 Ag1 1_555 1_555
N7 C29 1_555 1_555
N9 Ag1 1_555 1_555
Co3 N7 1_555 1_555
C13 C14 1_555 1_555
C13 N3 1_555 1_555
C23 N5 1_555 1_555
C26 N6 1_555 1_555
C27 C28 1_555 1_555
C27 N6 1_555 1_555
C32 N7 1_555 1_555
C40 N9 1_555 1_555
C41 C42 1_555 1_555
C41 N9 1_555 1_555
C15 H11 1_555 1_555
C16 C15 1_555 1_555
H12 C16 1_555 1_555
C17 C16 1_555 1_555
H13 C17 1_555 1_555
C18 C17 1_555 1_555
H24 C35 1_555 1_555
C36 C35 1_555 1_555
H25 C36 1_555 1_555
C37 C36 1_555 1_555
H26 C37 1_555 1_555
N4 C15 1_555 1_555
Co2 N4 1_555 1_555
C18 N4 1_555 1_555
C37 N8 1_555 1_555
Ag1_2 N3_2 1_555 1_555
C6_2 C5_2 1_555 1_555
C7_2 C6_2 1_555 1_555
H4_2 C7_2 1_555 1_555
C8_2 C7_2 1_555 1_555
H5_2 C8_2 1_555 1_555
C9_2 C8_2 1_555 1_555
H6_2 C9_2 1_555 1_555
C10_2 C5_2 1_555 1_555
C11_2 C10_2 1_555 1_555
H7_2 C11_2 1_555 1_555
C12_2 C11_2 1_555 1_555
H8_2 C12_2 1_555 1_555
C13_2 H9_2 1_555 1_555
C14_2 C10_2 1_555 1_555
C15_2 H11_2 1_555 1_555
C16_2 C15_2 1_555 1_555
H12_2 C16_2 1_555 1_555
C17_2 C16_2 1_555 1_555
H13_2 C17_2 1_555 1_555
C18_2 C17_2 1_555 1_555
C19_2 C18_2 1_555 1_555
C20_2 C19_2 1_555 1_555
C21_2 C20_2 1_555 1_555
H14_2 C21_2 1_555 1_555
C22_2 C21_2 1_555 1_555
H15_2 C22_2 1_555 1_555
C23_2 C22_2 1_555 1_555
H16_2 C23_2 1_555 1_555
C24_2 C19_2 1_555 1_555
C25_2 C24_2 1_555 1_555
H17_2 C25_2 1_555 1_555
C26_2 C25_2 1_555 1_555
H18_2 C26_2 1_555 1_555
C27_2 H19_2 1_555 1_555
C28_2 C24_2 1_555 1_555
H20_2 C28_2 1_555 1_555
C29_2 H21_2 1_555 1_555
C30_2 C29_2 1_555 1_555
H22_2 C30_2 1_555 1_555
C31_2 C30_2 1_555 1_555
H23_2 C31_2 1_555 1_555
C32_2 C31_2 1_555 1_555
C33_2 C32_2 1_555 1_555
C34_2 C33_2 1_555 1_555
C35_2 C34_2 1_555 1_555
H24_2 C35_2 1_555 1_555
C36_2 C35_2 1_555 1_555
H25_2 C36_2 1_555 1_555
C37_2 C36_2 1_555 1_555
H26_2 C37_2 1_555 1_555
C38_2 C33_2 1_555 1_555
C39_2 C38_2 1_555 1_555
H27_2 C39_2 1_555 1_555
C40_2 C39_2 1_555 1_555
H28_2 C40_2 1_555 1_555
C41_2 H29_2 1_555 1_555
C42_2 C38_2 1_555 1_555
H30_2 C42_2 1_555 1_555
N2_2 Co3 1_555 1_555
N3_2 C12_2 1_555 1_555
N4_2 C15_2 1_555 1_555
N5_2 C20_2 1_555 1_555
N6_2 Ag1_2 1_555 1_555
N12 C29_2 1_555 1_555
N13 C34_2 1_555 1_555
N9_2 Ag1_2 1_555 1_555
Co2_2 N4_2 1_555 1_555
N10_2 Co3 1_555 1_555
C6_2 N2_2 1_555 1_555
C9_2 N2_2 1_555 1_555
C13_2 C14_2 1_555 1_555
C13_2 N3_2 1_555 1_555
C18_2 N4_2 1_555 1_555
C23_2 N5_2 1_555 1_555
C26_2 N6_2 1_555 1_555
C27_2 C28_2 1_555 1_555
C27_2 N6_2 1_555 1_555
C32_2 N12 1_555 1_555
C37_2 N13 1_555 1_555
C40_2 N9_2 1_555 1_555
C41_2 C42_2 1_555 1_555
C41_2 N9_2 1_555 1_555
N5_2 Co2_2 1_555 1_555
C1_2 H1_2 1_555 1_555
C2_2 C1_2 1_555 1_555
H2_2 C2_2 1_555 1_555
C3_2 C2_2 1_555 1_555
H3_2 C3_2 1_555 1_555
C4_2 C3_2 1_555 1_555
N1_2 C1_2 1_555 1_555
C4_2 N1_2 1_555 1_555
C1_3 H1_3 1_555 1_555
C2_3 C1_3 1_555 1_555
H2_3 C2_3 1_555 1_555
C3_3 C2_3 1_555 1_555
H3_3 C3_3 1_555 1_555
C4_3 C3_3 1_555 1_555
N1_3 C1_3 1_555 1_555
C4_3 N1_3 1_555 1_555
Ag1_3 N3_3 1_555 1_555
C6_3 C5_3 1_555 1_555
C7_3 C6_3 1_555 1_555
H4_3 C7_3 1_555 1_555
C8_3 C7_3 1_555 1_555
H5_3 C8_3 1_555 1_555
C9_3 C8_3 1_555 1_555
H6_3 C9_3 1_555 1_555
C10_3 C5_3 1_555 1_555
C11_3 C10_3 1_555 1_555
H7_3 C11_3 1_555 1_555
C12_3 C11_3 1_555 1_555
H8_3 C12_3 1_555 1_555
C13_3 H9_3 1_555 1_555
C14_3 C10_3 1_555 1_555
C15_3 H11_3 1_555 1_555
C16_3 C15_3 1_555 1_555
H12_3 C16_3 1_555 1_555
C17_3 C16_3 1_555 1_555
H13_3 C17_3 1_555 1_555
C18_3 C17_3 1_555 1_555
C19_3 C18_3 1_555 1_555
C20_3 C19_3 1_555 1_555
C21_3 C20_3 1_555 1_555
H14_3 C21_3 1_555 1_555
C22_3 C21_3 1_555 1_555
H15_3 C22_3 1_555 1_555
C23_3 C22_3 1_555 1_555
H16_3 C23_3 1_555 1_555
C24_3 C19_3 1_555 1_555
C25_3 C24_3 1_555 1_555
H17_3 C25_3 1_555 1_555
C26_3 C25_3 1_555 1_555
H18_3 C26_3 1_555 1_555
C27_3 H19_3 1_555 1_555
C28_3 C24_3 1_555 1_555
H20_3 C28_3 1_555 1_555
H24_3 C35_3 1_555 1_555
C39_3 C38_3 1_555 1_555
H27_3 C39_3 1_555 1_555
C40_3 C39_3 1_555 1_555
H28_3 C40_3 1_555 1_555
C41_3 H29_3 1_555 1_555
C42_3 C38_3 1_555 1_555
H30_3 C42_3 1_555 1_555
N2_3 Co2 1_555 1_555
N3_3 C12_3 1_555 1_555
N10 C15_3 1_555 1_555
N11 C20_3 1_555 1_555
N6_3 Ag1_3 1_555 1_555
N9_3 Ag1_3 1_555 1_555
N12_2 Co2 1_555 1_555
C6_3 N2_3 1_555 1_555
C9_3 N2_3 1_555 1_555
C13_3 C14_3 1_555 1_555
C13_3 N3_3 1_555 1_555
C18_3 N10 1_555 1_555
C23_3 N11 1_555 1_555
C26_3 N6_3 1_555 1_555
C27_3 C28_3 1_555 1_555
C27_3 N6_3 1_555 1_555
C40_3 N9_3 1_555 1_555
C41_3 C42_3 1_555 1_555
C41_3 N9_3 1_555 1_555
C29_3 H21_3 1_555 1_555
C30_3 C29_3 1_555 1_555
H22_3 C30_3 1_555 1_555
C31_3 C30_3 1_555 1_555
H23_3 C31_3 1_555 1_555
C32_3 C31_3 1_555 1_555
C33_3 C32_3 1_555 1_555
C34_3 C33_3 1_555 1_555
C37_3 C36_3 1_555 1_555
H26_3 C37_3 1_555 1_555
N7_2 C29_3 1_555 1_555
N8_2 C34_3 1_555 1_555
Co2_2 N7_2 1_555 1_555
C32_3 N7_2 1_555 1_555
C37_3 N8_2 1_555 1_555
N8_2 Co2_2 1_555 1_555
Co2_2 N1_4 1_555 1_555
C1_4 H1_4 1_555 1_555
H5_4 C8_4 1_555 1_555
C9_4 C8_4 1_555 1_555
H6_4 C9_4 1_555 1_555
N1_4 C1_4 1_555 1_555
N2_4 Co2_2 1_555 1_555
C9_4 N2_4 1_555 1_555
C37_4 C36_4 1_555 1_555
H26_4 C37_4 1_555 1_555
C37_4 N13_2 1_555 1_555
C15_4 H11_4 1_555 1_555
C16_4 C15_4 1_555 1_555
H12_4 C16_4 1_555 1_555
C17_4 C16_4 1_555 1_555
H13_4 C17_4 1_555 1_555
C18_4 C17_4 1_555 1_555
H24_4 C35_4 1_555 1_555
N10_2 C15_4 1_555 1_555
C18_4 N10_2 1_555 1_555
C29_4 H21_4 1_555 1_555
C30_4 C29_4 1_555 1_555
H22_4 C30_4 1_555 1_555
C31_4 C30_4 1_555 1_555
H23_4 C31_4 1_555 1_555
C32_4 C31_4 1_555 1_555
C33_4 C32_4 1_555 1_555
C34_4 C33_4 1_555 1_555
N12_2 C29_4 1_555 1_555
C32_4 N12_2 1_555 1_555
Ag1_4 N3_4 1_555 1_555
H2_4 C2_4 1_555 1_555
C3_4 C2_4 1_555 1_555
H3_4 C3_4 1_555 1_555
C4_4 C3_4 1_555 1_555
C5_4 C4_4 1_555 1_555
C6_4 C5_4 1_555 1_555
C7_4 C6_4 1_555 1_555
H4_4 C7_4 1_555 1_555
C10_4 C5_4 1_555 1_555
C11_4 C10_4 1_555 1_555
H7_4 C11_4 1_555 1_555
C12_4 C11_4 1_555 1_555
H8_4 C12_4 1_555 1_555
C13_4 H9_4 1_555 1_555
C14_4 C10_4 1_555 1_555
H10_4 C14_4 1_555 1_555
C20_4 C19_4 1_555 1_555
C21_4 C20_4 1_555 1_555
H14_4 C21_4 1_555 1_555
C22_4 C21_4 1_555 1_555
H15_4 C22_4 1_555 1_555
C23_4 C22_4 1_555 1_555
H16_4 C23_4 1_555 1_555
C24_4 C19_4 1_555 1_555
C25_4 C24_4 1_555 1_555
H17_4 C25_4 1_555 1_555
C26_4 C25_4 1_555 1_555
H18_4 C26_4 1_555 1_555
C27_4 H19_4 1_555 1_555
C28_4 C24_4 1_555 1_555
H20_4 C28_4 1_555 1_555
C39_4 C38_4 1_555 1_555
H27_4 C39_4 1_555 1_555
C40_4 C39_4 1_555 1_555
H28_4 C40_4 1_555 1_555
C41_4 H29_4 1_555 1_555
C42_4 C38_4 1_555 1_555
H30_4 C42_4 1_555 1_555
N3_4 C12_4 1_555 1_555
N11_2 C20_4 1_555 1_555
N6_4 Ag1_4 1_555 1_555
N9_4 Ag1_4 1_555 1_555
C13_4 C14_4 1_555 1_555
C13_4 N3_4 1_555 1_555
C23_4 N11_2 1_555 1_555
C26_4 N6_4 1_555 1_555
C27_4 C28_4 1_555 1_555
C27_4 N6_4 1_555 1_555
C40_4 N9_4 1_555 1_555
C41_4 C42_4 1_555 1_555
C41_4 N9_4 1_555 1_555
C29_5 H21_5 1_555 1_555
C30_5 C29_5 1_555 1_555
H22_5 C30_5 1_555 1_555
C31_5 C30_5 1_555 1_555
H23_5 C31_5 1_555 1_555
C32_5 C31_5 1_555 1_555
C33_5 C32_5 1_555 1_555
C34_5 C33_5 1_555 1_555
C37_5 C36_5 1_555 1_555
H26_5 C37_5 1_555 1_555
N7_3 C29_5 1_555 1_555
N8_3 C34_5 1_555 1_555
Co3_2 N7_3 1_555 1_555
C32_5 N7_3 1_555 1_555
C37_5 N8_3 1_555 1_555
N8_3 Co3_2 1_555 1_555
Ag1_5 N3_5 1_555 1_555
C6_5 C5_5 1_555 1_555
C7_5 C6_5 1_555 1_555
H4_5 C7_5 1_555 1_555
C8_5 C7_5 1_555 1_555
H5_5 C8_5 1_555 1_555
C9_5 C8_5 1_555 1_555
H6_5 C9_5 1_555 1_555
C10_5 C5_5 1_555 1_555
C11_5 C10_5 1_555 1_555
H7_5 C11_5 1_555 1_555
C12_5 C11_5 1_555 1_555
H8_5 C12_5 1_555 1_555
C13_5 H9_5 1_555 1_555
C14_5 C10_5 1_555 1_555
C15_5 H11_5 1_555 1_555
C16_5 C15_5 1_555 1_555
H12_5 C16_5 1_555 1_555
C17_5 C16_5 1_555 1_555
H13_5 C17_5 1_555 1_555
C18_5 C17_5 1_555 1_555
C19_5 C18_5 1_555 1_555
C20_5 C19_5 1_555 1_555
C21_5 C20_5 1_555 1_555
H14_5 C21_5 1_555 1_555
C22_5 C21_5 1_555 1_555
H15_5 C22_5 1_555 1_555
C23_5 C22_5 1_555 1_555
H16_5 C23_5 1_555 1_555
C24_5 C19_5 1_555 1_555
C25_5 C24_5 1_555 1_555
H17_5 C25_5 1_555 1_555
C26_5 C25_5 1_555 1_555
H18_5 C26_5 1_555 1_555
C27_5 H19_5 1_555 1_555
C28_5 C24_5 1_555 1_555
H20_5 C28_5 1_555 1_555
H24_5 C35_5 1_555 1_555
C39_5 C38_5 1_555 1_555
H27_5 C39_5 1_555 1_555
C40_5 C39_5 1_555 1_555
H28_5 C40_5 1_555 1_555
C41_5 H29_5 1_555 1_555
C42_5 C38_5 1_555 1_555
H30_5 C42_5 1_555 1_555
N2_5 Co1_2 1_555 1_555
N3_5 C12_5 1_555 1_555
N4_3 C15_5 1_555 1_555
N5_3 C20_5 1_555 1_555
N6_5 Ag1_5 1_555 1_555
N9_5 Ag1_5 1_555 1_555
Co2_3 N4_3 1_555 1_555
N10_3 Co1_2 1_555 1_555
N12_3 Co1_2 1_555 1_555
C6_5 N2_5 1_555 1_555
C9_5 N2_5 1_555 1_555
C13_5 C14_5 1_555 1_555
C13_5 N3_5 1_555 1_555
C18_5 N4_3 1_555 1_555
C23_5 N5_3 1_555 1_555
C26_5 N6_5 1_555 1_555
C27_5 C28_5 1_555 1_555
C27_5 N6_5 1_555 1_555
C40_5 N9_5 1_555 1_555
C41_5 C42_5 1_555 1_555
C41_5 N9_5 1_555 1_555
N5_3 Co2_3 1_555 1_555
C1_5 H1_5 1_555 1_555
C2_5 C1_5 1_555 1_555
H2_5 C2_5 1_555 1_555
C3_5 C2_5 1_555 1_555
H3_5 C3_5 1_555 1_555
C4_5 C3_5 1_555 1_555
N1_5 C1_5 1_555 1_555
C4_5 N1_5 1_555 1_555
Ag1_6 N3_6 1_555 1_555
H2_6 C2_6 1_555 1_555
C3_6 C2_6 1_555 1_555
H3_6 C3_6 1_555 1_555
C4_6 C3_6 1_555 1_555
C5_6 C4_6 1_555 1_555
C6_6 C5_6 1_555 1_555
C7_6 C6_6 1_555 1_555
H4_6 C7_6 1_555 1_555
C10_6 C5_6 1_555 1_555
C11_6 C10_6 1_555 1_555
H7_6 C11_6 1_555 1_555
C12_6 C11_6 1_555 1_555
H8_6 C12_6 1_555 1_555
C13_6 H9_6 1_555 1_555
C14_6 C10_6 1_555 1_555
H10_6 C14_6 1_555 1_555
C20_6 C19_6 1_555 1_555
C21_6 C20_6 1_555 1_555
H14_6 C21_6 1_555 1_555
C22_6 C21_6 1_555 1_555
H15_6 C22_6 1_555 1_555
C23_6 C22_6 1_555 1_555
H16_6 C23_6 1_555 1_555
C24_6 C19_6 1_555 1_555
C25_6 C24_6 1_555 1_555
H17_6 C25_6 1_555 1_555
C26_6 C25_6 1_555 1_555
H18_6 C26_6 1_555 1_555
C27_6 H19_6 1_555 1_555
C28_6 C24_6 1_555 1_555
H20_6 C28_6 1_555 1_555
C39_6 C38_6 1_555 1_555
H27_6 C39_6 1_555 1_555
C40_6 C39_6 1_555 1_555
H28_6 C40_6 1_555 1_555
C41_6 H29_6 1_555 1_555
C42_6 C38_6 1_555 1_555
H30_6 C42_6 1_555 1_555
N3_6 C12_6 1_555 1_555
N5_4 C20_6 1_555 1_555
N6_6 Ag1_6 1_555 1_555
N9_6 Ag1_6 1_555 1_555
C13_6 C14_6 1_555 1_555
C13_6 N3_6 1_555 1_555
C23_6 N5_4 1_555 1_555
C26_6 N6_6 1_555 1_555
C27_6 C28_6 1_555 1_555
C27_6 N6_6 1_555 1_555
C40_6 N9_6 1_555 1_555
C41_6 C42_6 1_555 1_555
C41_6 N9_6 1_555 1_555
C29_6 H21_6 1_555 1_555
C30_6 C29_6 1_555 1_555
H22_6 C30_6 1_555 1_555
C31_6 C30_6 1_555 1_555
H23_6 C31_6 1_555 1_555
C32_6 C31_6 1_555 1_555
C33_6 C32_6 1_555 1_555
C34_6 C33_6 1_555 1_555
N12_3 C29_6 1_555 1_555
C32_6 N12_3 1_555 1_555
C15_6 H11_6 1_555 1_555
C16_6 C15_6 1_555 1_555
H12_6 C16_6 1_555 1_555
C17_6 C16_6 1_555 1_555
H13_6 C17_6 1_555 1_555
C18_6 C17_6 1_555 1_555
H24_6 C35_6 1_555 1_555
N4_4 C15_6 1_555 1_555
Co2_4 N4_4 1_555 1_555
C18_6 N4_4 1_555 1_555
C37_6 C36_6 1_555 1_555
H26_6 C37_6 1_555 1_555
C37_6 N13_3 1_555 1_555
Co3_2 N1_6 1_555 1_555
C1_6 H1_6 1_555 1_555
H5_6 C8_6 1_555 1_555
C9_6 C8_6 1_555 1_555
H6_6 C9_6 1_555 1_555
N1_6 C1_6 1_555 1_555
N2_6 Co3_2 1_555 1_555
N10_4 Co3_2 1_555 1_555
N11_4 Co3_2 1_555 1_555
C9_6 N2_6 1_555 1_555
C15_7 H11_7 1_555 1_555
C16_7 C15_7 1_555 1_555
H12_7 C16_7 1_555 1_555
C17_7 C16_7 1_555 1_555
H13_7 C17_7 1_555 1_555
C18_7 C17_7 1_555 1_555
H24_7 C35_7 1_555 1_555
C36_7 C35_7 1_555 1_555
H25_7 C36_7 1_555 1_555
C37_7 C36_7 1_555 1_555
H26_7 C37_7 1_555 1_555
N10_3 C15_7 1_555 1_555
C18_7 N10_3 1_555 1_555
C37_7 N8_4 1_555 1_555
Ag1_7 N3_7 1_555 1_555
H2_7 C2_7 1_555 1_555
C3_7 C2_7 1_555 1_555
H3_7 C3_7 1_555 1_555
C4_7 C3_7 1_555 1_555
C5_7 C4_7 1_555 1_555
C6_7 C5_7 1_555 1_555
C7_7 C6_7 1_555 1_555
H4_7 C7_7 1_555 1_555
C10_7 C5_7 1_555 1_555
C11_7 C10_7 1_555 1_555
H7_7 C11_7 1_555 1_555
C12_7 C11_7 1_555 1_555
H8_7 C12_7 1_555 1_555
C13_7 H9_7 1_555 1_555
C14_7 C10_7 1_555 1_555
H10_7 C14_7 1_555 1_555
C20_7 C19_7 1_555 1_555
C21_7 C20_7 1_555 1_555
H14_7 C21_7 1_555 1_555
C22_7 C21_7 1_555 1_555
H15_7 C22_7 1_555 1_555
C23_7 C22_7 1_555 1_555
H16_7 C23_7 1_555 1_555
C24_7 C19_7 1_555 1_555
C25_7 C24_7 1_555 1_555
H17_7 C25_7 1_555 1_555
C26_7 C25_7 1_555 1_555
H18_7 C26_7 1_555 1_555
C27_7 H19_7 1_555 1_555
C28_7 C24_7 1_555 1_555
H20_7 C28_7 1_555 1_555
C29_7 H21_7 1_555 1_555
C30_7 C29_7 1_555 1_555
H22_7 C30_7 1_555 1_555
C31_7 C30_7 1_555 1_555
H23_7 C31_7 1_555 1_555
C32_7 C31_7 1_555 1_555
C33_7 C32_7 1_555 1_555
C34_7 C33_7 1_555 1_555
C38_7 C33_7 1_555 1_555
C39_7 C38_7 1_555 1_555
H27_7 C39_7 1_555 1_555
C40_7 C39_7 1_555 1_555
H28_7 C40_7 1_555 1_555
C41_7 H29_7 1_555 1_555
C42_7 C38_7 1_555 1_555
H30_7 C42_7 1_555 1_555
N3_7 C12_7 1_555 1_555
N11_3 C20_7 1_555 1_555
N6_7 Ag1_7 1_555 1_555
N7_4 C29_7 1_555 1_555
N9_7 Ag1_7 1_555 1_555
Co2_4 N7_4 1_555 1_555
C13_7 C14_7 1_555 1_555
C13_7 N3_7 1_555 1_555
C23_7 N11_3 1_555 1_555
C26_7 N6_7 1_555 1_555
C27_7 C28_7 1_555 1_555
C27_7 N6_7 1_555 1_555
C32_7 N7_4 1_555 1_555
C40_7 N9_7 1_555 1_555
C41_7 C42_7 1_555 1_555
C41_7 N9_7 1_555 1_555
Co2_3 N1_7 1_555 1_555
C1_7 H1_7 1_555 1_555
H5_7 C8_7 1_555 1_555
C9_7 C8_7 1_555 1_555
H6_7 C9_7 1_555 1_555
N1_7 C1_7 1_555 1_555
N2_7 Co2_3 1_555 1_555
N12_4 Co2_3 1_555 1_555
N13_4 Co2_3 1_555 1_555
C9_7 N2_7 1_555 1_555
C1_8 H1_8 1_555 1_555
C2_8 C1_8 1_555 1_555
H2_8 C2_8 1_555 1_555
C3_8 C2_8 1_555 1_555
H3_8 C3_8 1_555 1_555
C4_8 C3_8 1_555 1_555
N1_8 C1_8 1_555 1_555
C4_8 N1_8 1_555 1_555
Ag1_8 N3_8 1_555 1_555
C6_8 C5_8 1_555 1_555
C7_8 C6_8 1_555 1_555
H4_8 C7_8 1_555 1_555
C8_8 C7_8 1_555 1_555
H5_8 C8_8 1_555 1_555
C9_8 C8_8 1_555 1_555
H6_8 C9_8 1_555 1_555
C10_8 C5_8 1_555 1_555
C11_8 C10_8 1_555 1_555
H7_8 C11_8 1_555 1_555
C12_8 C11_8 1_555 1_555
H8_8 C12_8 1_555 1_555
C13_8 H9_8 1_555 1_555
C14_8 C10_8 1_555 1_555
C15_8 H11_8 1_555 1_555
C16_8 C15_8 1_555 1_555
H12_8 C16_8 1_555 1_555
C17_8 C16_8 1_555 1_555
H13_8 C17_8 1_555 1_555
C18_8 C17_8 1_555 1_555
C19_8 C18_8 1_555 1_555
C20_8 C19_8 1_555 1_555
C21_8 C20_8 1_555 1_555
H14_8 C21_8 1_555 1_555
C22_8 C21_8 1_555 1_555
H15_8 C22_8 1_555 1_555
C23_8 C22_8 1_555 1_555
H16_8 C23_8 1_555 1_555
C24_8 C19_8 1_555 1_555
C25_8 C24_8 1_555 1_555
H17_8 C25_8 1_555 1_555
C26_8 C25_8 1_555 1_555
H18_8 C26_8 1_555 1_555
C27_8 H19_8 1_555 1_555
C28_8 C24_8 1_555 1_555
H20_8 C28_8 1_555 1_555
C29_8 H21_8 1_555 1_555
C30_8 C29_8 1_555 1_555
H22_8 C30_8 1_555 1_555
C31_8 C30_8 1_555 1_555
H23_8 C31_8 1_555 1_555
C32_8 C31_8 1_555 1_555
C33_8 C32_8 1_555 1_555
C34_8 C33_8 1_555 1_555
C35_8 C34_8 1_555 1_555
H24_8 C35_8 1_555 1_555
C36_8 C35_8 1_555 1_555
H25_8 C36_8 1_555 1_555
C37_8 C36_8 1_555 1_555
H26_8 C37_8 1_555 1_555
C38_8 C33_8 1_555 1_555
C39_8 C38_8 1_555 1_555
H27_8 C39_8 1_555 1_555
C40_8 C39_8 1_555 1_555
H28_8 C40_8 1_555 1_555
C41_8 H29_8 1_555 1_555
C42_8 C38_8 1_555 1_555
H30_8 C42_8 1_555 1_555
N2_8 Co2_4 1_555 1_555
N3_8 C12_8 1_555 1_555
N10_4 C15_8 1_555 1_555
N11_4 C20_8 1_555 1_555
N6_8 Ag1_8 1_555 1_555
N12_4 C29_8 1_555 1_555
N13_4 C34_8 1_555 1_555
N9_8 Ag1_8 1_555 1_555
C6_8 N2_8 1_555 1_555
C9_8 N2_8 1_555 1_555
C13_8 C14_8 1_555 1_555
C13_8 N3_8 1_555 1_555
C18_8 N10_4 1_555 1_555
C23_8 N11_4 1_555 1_555
C26_8 N6_8 1_555 1_555
C27_8 C28_8 1_555 1_555
C27_8 N6_8 1_555 1_555
C32_8 N12_4 1_555 1_555
C37_8 N13_4 1_555 1_555
C40_8 N9_8 1_555 1_555
C41_8 C42_8 1_555 1_555
C41_8 N9_8 1_555 1_555

#END
