
###############################################################################
#
# This file contains modified crystal structure data generated from the
# MOF subset of the Cambridge Structural Database (CSD) v543 
# hosted by the Cambridge Crystallographic Data Centre (CCDC).
#
# This work is licensed under the Creative Commons
# Attribution-NonCommercial-ShareAlike 4.0 International License.
# To view a copy of this license, visit
# http://creativecommons.org/licenses/by-nc-sa/4.0/
# or send a letter to
# Creative Commons, PO Box 1866, Mountain View, CA 94042, USA.
#
# CIF created using the CSD Python API on 29 September 2022
# The structure has been converted into the P1 space group
# The structure has a 3D framework
# The original CSD entry KESGAS is in the monoclinic crystal system
# The framework has been calculated to contain at least 10.0% void space
# The void calculation uses a probe of radius 1.32A, grid spacing 0.4
#
###############################################################################

data_KESGAS
_chemical_formula_moiety         '(C76 H68 Mn4 N12 O28 S4)n'
_symmetry_cell_setting           triclinic
_symmetry_space_group_name_H-M   'P 1'
_symmetry_Int_Tables_number      1
_space_group_name_Hall           'P 1'
loop_
_symmetry_equiv_pos_site_id
_symmetry_equiv_pos_as_xyz
1 x,y,z
_cell_length_a                   11.678(3)
_cell_length_b                   28.005(7)
_cell_length_c                   8.707(2)
_cell_angle_alpha                90
_cell_angle_beta                 104.200(3)
_cell_angle_gamma                90
_cell_volume                     2760.55
loop_
_atom_site_label
_atom_site_type_symbol
_atom_site_fract_x
_atom_site_fract_y
_atom_site_fract_z
O5 O 0.3697(4) 0.12139(14) 0.2265(5)
C5 C 0.3413(9) 0.0308(2) 0.3496(9)
H7 H 0.3335 0.0574 0.4104
C6 C 0.3587(6) 0.0373(2) 0.2014(7)
H8 H 0.3882 0.0010 0.0132
C9 C 0.3605(6) 0.0864(2) 0.1323(7)
Mn3 Mn 0.36568(7) 0.19905(3) 0.19194(9)
Mn1 Mn 0.63432(7) 0.80095(3) 0.80806(9)
S1 S 0.3409(2) 0.88786(6) 0.3989(2)
O1 O 0.5934(4) 0.78673(14) 0.5567(4)
O2 O 0.6298(4) 0.77686(13) 0.3213(4)
O3 O 0.2921(7) 0.8919(2) 0.5326(8)
O4 O 0.2870(8) 0.8584(2) 0.2683(8)
N1 N 0.4728(8) 0.8698(2) 0.4664(7)
H3 H 0.5034 0.8722 0.5666
N2 N 0.4367(4) 0.80175(16) 0.8002(6)
C1 C 0.5937(5) 0.80081(18) 0.4221(6)
C2 C 0.5441(10) 0.8493(3) 0.3684(9)
H4 H 0.6091 0.8708 0.3677
H5 H 0.4964 0.8468 0.2606
C3 C 0.3507(7) 0.9462(2) 0.3220(8)
C4 C 0.3350(9) 0.9852(2) 0.4118(10)
H6 H 0.3205 0.9811 0.5114
C7 C 0.3743(8) 0.9972(2) 0.1131(9)
C8 C 0.3689(9) 0.9517(2) 0.1747(9)
H9 H 0.3778 0.9250 0.1152
C10 C 0.3926(5) 0.8328(2) 0.8840(8)
H10 H 0.4430 0.8555 0.9427
C11 C 0.2760(6) 0.8332(2) 0.8890(8)
H11 H 0.2495 0.8560 0.9501
C12 C 0.1974(5) 0.8000(2) 0.8040(7)
C13 C 0.2444(6) 0.7683(3) 0.7161(11)
H12 H 0.1961 0.7452 0.6559
C14 C 0.3632(6) 0.7702(3) 0.7162(10)
H13 H 0.3922 0.7484 0.6546
C16 C 0.0265(6) 0.8304(3) 0.8989(13)
H15 H 0.0761 0.8520 0.9648
C17 C 0.0713(5) 0.8002(2) 0.8069(8)
H16 H 0.0174 0.7476 0.6528
Mn2 Mn 0.63432(7) 0.69905(3) 0.30806(9)
O8 O 0.6298(4) 0.72314(13) 0.8213(4)
O9 O 0.6303(4) 0.87861(14) 0.7735(5)
N4 N 0.8296(5) 0.79957(18) 0.8103(7)
C15 C 0.9086(7) 0.8295(3) 0.8955(12)
H14 H 0.8815 0.8516 0.9581
C18 C 0.9928(7) 0.7691(4) 0.7197(15)
C19 C 0.8760(7) 0.7690(4) 0.7293(15)
H17 H 0.8269 0.7454 0.6738
N3 N 0.1704(5) 0.29957(18) 0.6897(7)
C15_2 C 0.0914(7) 0.3295(3) 0.6045(12)
H14_2 H 0.1185 0.3516 0.5419
C18_2 C 0.0072(7) 0.2691(4) 0.7803(15)
C19_2 C 0.1240(7) 0.2690(4) 0.7707(15)
H17_2 H 0.1731 0.2454 0.8262
Mn4 Mn 0.36568(7) 0.30095(3) 0.69194(9)
S1_2 S 0.6591(2) 0.38786(6) 0.1011(2)
O2_2 O 0.3702(4) 0.27686(13) 0.1787(4)
O4_2 O 0.7130(8) 0.3584(2) 0.2317(8)
O5_2 O 0.6303(4) 0.62139(14) 0.2735(5)
O6 O 0.6454(6) 0.58986(17) 0.5121(6)
N1_2 N 0.5272(8) 0.3698(2) 0.0336(7)
C1_2 C 0.4063(5) 0.30081(18) 0.0779(6)
C2_2 C 0.4559(10) 0.3493(3) 0.1316(9)
H4_2 H 0.3909 0.3708 0.1323
H5_2 H 0.5036 0.3468 0.2394
C3_2 C 0.6493(7) 0.4462(2) 0.1780(8)
C4_2 C 0.6650(9) 0.4852(2) 0.0882(10)
C5_2 C 0.6587(9) 0.5308(2) 0.1504(9)
H7_2 H 0.6665 0.5574 0.0896
C6_2 C 0.6413(6) 0.5373(2) 0.2986(7)
C7_2 C 0.6257(8) 0.4972(2) 0.3869(9)
H8_2 H 0.6118 0.5010 0.4868
C8_2 C 0.6311(9) 0.4517(2) 0.3253(9)
H9_2 H 0.6222 0.4250 0.3848
C9_2 C 0.6395(6) 0.5864(2) 0.3677(7)
O1_2 O 0.4066(4) 0.28673(14) 0.9433(4)
O3_2 O 0.7079(7) 0.3919(2) 0.9674(8)
O7 O 0.3186(4) 0.31759(14) 0.4407(4)
H1 H 0.3605 0.3022 0.3957
H2 H 0.3350 0.3463 0.4359
H3_2 H 0.4966 0.3722 0.9334
N2_2 N 0.5633(4) 0.30175(16) 0.6998(6)
H6_2 H 0.6795 0.4811 0.9886
C10_2 C 0.6074(5) 0.3328(2) 0.6160(8)
H10_2 H 0.5570 0.3555 0.5573
C11_2 C 0.7240(6) 0.3332(2) 0.6110(8)
H11_2 H 0.7505 0.3560 0.5499
C12_2 C 0.8026(5) 0.3000(2) 0.6960(7)
C13_2 C 0.7556(6) 0.2683(3) 0.7839(11)
H12_2 H 0.8039 0.2452 0.8441
C14_2 C 0.6368(6) 0.2702(3) 0.7838(10)
H13_2 H 0.6078 0.2484 0.8454
C16_2 C 0.9735(6) 0.3304(3) 0.6011(13)
H15_2 H 0.9239 0.3520 0.5352
C17_2 C 0.9287(5) 0.3002(2) 0.6931(8)
H16_2 H 0.9826 0.2476 0.8472
O8_2 O 0.3702(4) 0.22314(13) 0.6787(4)
O9_2 O 0.3697(4) 0.37861(14) 0.7265(5)
N3_2 N 0.1704(5) 0.20043(18) 0.1897(7)
C15_3 C 0.0914(7) 0.1705(3) 0.1045(12)
H14_3 H 0.1185 0.1484 0.0419
C18_3 C 0.0072(7) 0.2309(4) 0.2803(15)
C19_3 C 0.1240(7) 0.2310(4) 0.2707(15)
H17_3 H 0.1731 0.2546 0.3262
S1_3 S 0.6591(2) 0.11214(6) 0.6011(2)
O1_3 O 0.4066(4) 0.21327(14) 0.4433(4)
O3_3 O 0.7079(7) 0.1081(2) 0.4674(8)
O4_3 O 0.7130(8) 0.1416(2) 0.7317(8)
N1_3 N 0.5272(8) 0.1302(2) 0.5336(7)
H3_3 H 0.4966 0.1278 0.4334
N2_3 N 0.5633(4) 0.19825(16) 0.1998(6)
C1_3 C 0.4063(5) 0.19919(18) 0.5779(6)
C2_3 C 0.4559(10) 0.1507(3) 0.6316(9)
H4_3 H 0.3909 0.1292 0.6323
H5_3 H 0.5036 0.1532 0.7394
C3_3 C 0.6493(7) 0.0538(2) 0.6780(8)
C4_3 C 0.6650(9) 0.0148(2) 0.5882(10)
H6_3 H 0.6795 0.0189 0.4886
C7_3 C 0.6257(8) 0.0028(2) 0.8869(9)
C8_3 C 0.6311(9) 0.0483(2) 0.8253(9)
H9_3 H 0.6222 0.0750 0.8848
C10_3 C 0.6074(5) 0.1672(2) 0.1160(8)
H10_3 H 0.5570 0.1445 0.0573
C11_3 C 0.7240(6) 0.1668(2) 0.1110(8)
H11_3 H 0.7505 0.1440 0.0499
C12_3 C 0.8026(5) 0.2000(2) 0.1960(7)
C13_3 C 0.7556(6) 0.2317(3) 0.2839(11)
H12_3 H 0.8039 0.2548 0.3441
C14_3 C 0.6368(6) 0.2298(3) 0.2838(10)
H13_3 H 0.6078 0.2516 0.3454
C16_3 C 0.9735(6) 0.1696(3) 0.1011(13)
H15_3 H 0.9239 0.1480 0.0352
C17_3 C 0.9287(5) 0.1998(2) 0.1931(8)
H16_3 H 0.9826 0.2524 0.3472
C5_3 C 0.6587(9) 0.9692(2) 0.6504(9)
H7_3 H 0.6665 0.9426 0.5896
C6_3 C 0.6413(6) 0.9627(2) 0.7986(7)
H8_3 H 0.6118 0.9990 0.9868
C9_3 C 0.6395(6) 0.9136(2) 0.8677(7)
O1_4 O 0.5934(4) 0.71327(14) 0.0567(4)
O3_4 O 0.2921(7) 0.6081(2) 0.0326(8)
O7_2 O 0.6814(4) 0.68241(14) 0.5593(4)
H1_2 H 0.6395 0.6978 0.6043
H2_2 H 0.6650 0.6537 0.5641
H3_4 H 0.5034 0.6278 0.0666
N2_4 N 0.4367(4) 0.69825(16) 0.3002(6)
H6_4 H 0.3205 0.5189 0.0114
C10_4 C 0.3926(5) 0.6672(2) 0.3840(8)
H10_4 H 0.4430 0.6445 0.4427
C11_4 C 0.2760(6) 0.6668(2) 0.3890(8)
H11_4 H 0.2495 0.6440 0.4501
C12_4 C 0.1974(5) 0.7000(2) 0.3040(7)
C13_4 C 0.2444(6) 0.7317(3) 0.2161(11)
H12_4 H 0.1961 0.7548 0.1559
C14_4 C 0.3632(6) 0.7298(3) 0.2162(10)
H13_4 H 0.3922 0.7516 0.1546
C16_4 C 0.0265(6) 0.6696(3) 0.3989(13)
H15_4 H 0.0761 0.6480 0.4648
C17_4 C 0.0713(5) 0.6998(2) 0.3069(8)
H16_4 H 0.0174 0.7524 0.1528
N4_2 N 0.8296(5) 0.70043(18) 0.3103(7)
S1_4 S 0.3409(2) 0.61214(6) 0.8989(2)
O4_4 O 0.2870(8) 0.6416(2) 0.7683(8)
O6_2 O 0.3546(6) 0.41014(17) 0.4879(6)
N1_4 N 0.4728(8) 0.6302(2) 0.9664(7)
C1_4 C 0.5937(5) 0.69919(18) 0.9221(6)
C2_4 C 0.5441(10) 0.6507(3) 0.8684(9)
H4_4 H 0.6091 0.6292 0.8677
H5_4 H 0.4964 0.6532 0.7606
C3_4 C 0.3507(7) 0.5538(2) 0.8220(8)
C4_4 C 0.3350(9) 0.5148(2) 0.9118(10)
C5_4 C 0.3413(9) 0.4692(2) 0.8496(9)
H7_4 H 0.3335 0.4426 0.9104
C6_4 C 0.3587(6) 0.4627(2) 0.7014(7)
C7_4 C 0.3743(8) 0.5028(2) 0.6131(9)
H8_4 H 0.3882 0.4990 0.5132
C8_4 C 0.3689(9) 0.5483(2) 0.6747(9)
H9_4 H 0.3778 0.5750 0.6152
C9_4 C 0.3605(6) 0.4136(2) 0.6323(7)
C15_4 C 0.9086(7) 0.6705(3) 0.3955(12)
H14_4 H 0.8815 0.6484 0.4581
C18_4 C 0.9928(7) 0.7309(4) 0.2197(15)
C19_4 C 0.8760(7) 0.7310(4) 0.2293(15)
H17_4 H 0.8269 0.7546 0.1738
O6_3 O 0.3546(6) 0.08986(17) 0.9879(6)
O7_3 O 0.6814(4) 0.81759(14) 0.0593(4)
H1_3 H 0.6395 0.8022 0.1043
H2_3 H 0.6650 0.8463 0.0641
O7_4 O 0.3186(4) 0.18241(14) 0.9407(4)
H1_4 H 0.3605 0.1978 0.8957
H2_4 H 0.3350 0.1537 0.9359
O6_4 O 0.6454(6) 0.91014(17) 0.0121(6)
loop_
_geom_bond_atom_site_label_1
_geom_bond_atom_site_label_2
_geom_bond_site_symmetry_1
_geom_bond_site_symmetry_2
O5 C9 1_555 1_555
H7 C5 1_555 1_555
C6 C5 1_555 1_555
C9 C6 1_555 1_555
Mn3 O5 1_555 1_555
Mn1 O1 1_555 1_555
S1 O3 1_555 1_555
O1 C1 1_555 1_555
O2 C1 1_555 1_555
O4 S1 1_555 1_555
N1 S1 1_555 1_555
H3 N1 1_555 1_555
N2 Mn1 1_555 1_555
C1 C2 1_555 1_555
C2 N1 1_555 1_555
H4 C2 1_555 1_555
H5 C2 1_555 1_555
C3 S1 1_555 1_555
C4 C3 1_555 1_555
H6 C4 1_555 1_555
C8 C3 1_555 1_555
H9 C8 1_555 1_555
C10 N2 1_555 1_555
H10 C10 1_555 1_555
C11 C10 1_555 1_555
H11 C11 1_555 1_555
C12 C11 1_555 1_555
C13 C12 1_555 1_555
H12 C13 1_555 1_555
C14 N2 1_555 1_555
H13 C14 1_555 1_555
H15 C16 1_555 1_555
C17 C12 1_555 1_555
Mn2 O2 1_555 1_555
O8 Mn1 1_555 1_555
O9 Mn1 1_555 1_555
N4 Mn1 1_555 1_555
C7 C8 1_555 1_555
C13 C14 1_555 1_555
C16 C17 1_555 1_555
N4 C15 1_555 1_555
C15 H14 1_555 1_555
C19 N4 1_555 1_555
H17 C19 1_555 1_555
C18 C19 1_555 1_555
N3 C15_2 1_555 1_555
C15_2 H14_2 1_555 1_555
C19_2 N3 1_555 1_555
H17_2 C19_2 1_555 1_555
Mn4 N3 1_555 1_555
C18_2 C19_2 1_555 1_555
O2_2 C1_2 1_555 1_555
O4_2 S1_2 1_555 1_555
O5_2 C9_2 1_555 1_555
O6 C9_2 1_555 1_555
N1_2 S1_2 1_555 1_555
C1_2 C2_2 1_555 1_555
C2_2 N1_2 1_555 1_555
H4_2 C2_2 1_555 1_555
H5_2 C2_2 1_555 1_555
C3_2 S1_2 1_555 1_555
C4_2 C3_2 1_555 1_555
C5_2 C4_2 1_555 1_555
H7_2 C5_2 1_555 1_555
C6_2 C5_2 1_555 1_555
C7_2 C6_2 1_555 1_555
H8_2 C7_2 1_555 1_555
C8_2 C3_2 1_555 1_555
H9_2 C8_2 1_555 1_555
C9_2 C6_2 1_555 1_555
Mn3 O2_2 1_555 1_555
Mn2 O5_2 1_555 1_555
C7_2 C8_2 1_555 1_555
Mn4 O1_2 1_555 1_555
O7 Mn4 1_555 1_555
H1 O7 1_555 1_555
H2 O7 1_555 1_555
N2_2 Mn4 1_555 1_555
C10_2 N2_2 1_555 1_555
H10_2 C10_2 1_555 1_555
C11_2 C10_2 1_555 1_555
H11_2 C11_2 1_555 1_555
C12_2 C11_2 1_555 1_555
C13_2 C12_2 1_555 1_555
H12_2 C13_2 1_555 1_555
C14_2 N2_2 1_555 1_555
H13_2 C14_2 1_555 1_555
H15_2 C16_2 1_555 1_555
C17_2 C12_2 1_555 1_555
O8_2 Mn4 1_555 1_555
O9_2 Mn4 1_555 1_555
C13_2 C14_2 1_555 1_555
C16_2 C17_2 1_555 1_555
N3_2 C15_3 1_555 1_555
C15_3 H14_3 1_555 1_555
C19_3 N3_2 1_555 1_555
H17_3 C19_3 1_555 1_555
Mn3 N3_2 1_555 1_555
C18_3 C19_3 1_555 1_555
Mn3 O1_3 1_555 1_555
S1_3 O3_3 1_555 1_555
O1_3 C1_3 1_555 1_555
O8_2 C1_3 1_555 1_555
O4_3 S1_3 1_555 1_555
N1_3 S1_3 1_555 1_555
H3_3 N1_3 1_555 1_555
N2_3 Mn3 1_555 1_555
C1_3 C2_3 1_555 1_555
C2_3 N1_3 1_555 1_555
H4_3 C2_3 1_555 1_555
H5_3 C2_3 1_555 1_555
C3_3 S1_3 1_555 1_555
C4_3 C3_3 1_555 1_555
H6_3 C4_3 1_555 1_555
C8_3 C3_3 1_555 1_555
H9_3 C8_3 1_555 1_555
C10_3 N2_3 1_555 1_555
H10_3 C10_3 1_555 1_555
C11_3 C10_3 1_555 1_555
H11_3 C11_3 1_555 1_555
C12_3 C11_3 1_555 1_555
C13_3 C12_3 1_555 1_555
H12_3 C13_3 1_555 1_555
C14_3 N2_3 1_555 1_555
H13_3 C14_3 1_555 1_555
H15_3 C16_3 1_555 1_555
C17_3 C12_3 1_555 1_555
C7_3 C8_3 1_555 1_555
C13_3 C14_3 1_555 1_555
C16_3 C17_3 1_555 1_555
O9 C9_3 1_555 1_555
H7_3 C5_3 1_555 1_555
C6_3 C5_3 1_555 1_555
C9_3 C6_3 1_555 1_555
Mn2 O1_4 1_555 1_555
O7_2 Mn2 1_555 1_555
H1_2 O7_2 1_555 1_555
H2_2 O7_2 1_555 1_555
N2_4 Mn2 1_555 1_555
C10_4 N2_4 1_555 1_555
H10_4 C10_4 1_555 1_555
C11_4 C10_4 1_555 1_555
H11_4 C11_4 1_555 1_555
C12_4 C11_4 1_555 1_555
C13_4 C12_4 1_555 1_555
H12_4 C13_4 1_555 1_555
C14_4 N2_4 1_555 1_555
H13_4 C14_4 1_555 1_555
H15_4 C16_4 1_555 1_555
C17_4 C12_4 1_555 1_555
N4_2 Mn2 1_555 1_555
C13_4 C14_4 1_555 1_555
C16_4 C17_4 1_555 1_555
O8 C1_4 1_555 1_555
O4_4 S1_4 1_555 1_555
O9_2 C9_4 1_555 1_555
O6_2 C9_4 1_555 1_555
N1_4 S1_4 1_555 1_555
C1_4 C2_4 1_555 1_555
C2_4 N1_4 1_555 1_555
H4_4 C2_4 1_555 1_555
H5_4 C2_4 1_555 1_555
C3_4 S1_4 1_555 1_555
C4_4 C3_4 1_555 1_555
C5_4 C4_4 1_555 1_555
H7_4 C5_4 1_555 1_555
C6_4 C5_4 1_555 1_555
C7_4 C6_4 1_555 1_555
H8_4 C7_4 1_555 1_555
C8_4 C3_4 1_555 1_555
H9_4 C8_4 1_555 1_555
C9_4 C6_4 1_555 1_555
C7_4 C8_4 1_555 1_555
N4_2 C15_4 1_555 1_555
C15_4 H14_4 1_555 1_555
C19_4 N4_2 1_555 1_555
H17_4 C19_4 1_555 1_555
C18_4 C19_4 1_555 1_555
H1_3 O7_3 1_555 1_555
H2_3 O7_3 1_555 1_555
H1_4 O7_4 1_555 1_555
H2_4 O7_4 1_555 1_555

#END
