
###############################################################################
#
# This file contains modified crystal structure data generated from the
# MOF subset of the Cambridge Structural Database (CSD) v543 
# hosted by the Cambridge Crystallographic Data Centre (CCDC).
#
# This work is licensed under the Creative Commons
# Attribution-NonCommercial-ShareAlike 4.0 International License.
# To view a copy of this license, visit
# http://creativecommons.org/licenses/by-nc-sa/4.0/
# or send a letter to
# Creative Commons, PO Box 1866, Mountain View, CA 94042, USA.
#
# CIF created using the CSD Python API on 29 September 2022
# The structure has been converted into the P1 space group
# The structure has a 3D framework
# The original CSD entry KESHAT is in the monoclinic crystal system
# The framework has been calculated to contain at least 10.0% void space
# The void calculation uses a probe of radius 1.32A, grid spacing 0.4
#
###############################################################################

data_KESHAT
_chemical_formula_moiety         '(C56 H56 N16 O58 Pr8)n'
_symmetry_cell_setting           triclinic
_symmetry_space_group_name_H-M   'P 1'
_symmetry_Int_Tables_number      1
_space_group_name_Hall           'P 1'
loop_
_symmetry_equiv_pos_site_id
_symmetry_equiv_pos_as_xyz
1 x,y,z
_cell_length_a                   10.3779(5)
_cell_length_b                   11.3829(6)
_cell_length_c                   22.3878(11)
_cell_angle_alpha                90
_cell_angle_beta                 97.3990(10)
_cell_angle_gamma                90
_cell_volume                     2622.66
loop_
_atom_site_label
_atom_site_type_symbol
_atom_site_fract_x
_atom_site_fract_y
_atom_site_fract_z
Pr3 Pr 0.26224(2) 0.081240(19) 0.064690(10)
O10 O 0.2680(3) 0.0596(2) 0.69920(13)
Pr6 Pr 0.391494(19) 0.191503(16) 0.774670(9)
C10 C 0.0045(4) 0.8828(3) 0.04847(19)
C12 C 0.0244(5) 0.8384(5) 0.2681(2)
H4 H 0.1158 0.8241 0.2690
H5 H 0.0116 0.9109 0.2885
N4 N 0.0308(3) 0.8665(3) 0.15850(16)
H8 H 0.1136 0.8760 0.1617
O8 O 0.1241(3) 0.9081(3) 0.05444(14)
C13 C 0.2356(4) 0.9591(3) 0.71452(18)
C14 C 0.2962(4) 0.9130(3) 0.77723(18)
O1 O 0.0212(3) 0.7651(3) 0.81752(13)
O9 O 0.1581(3) 0.8918(2) 0.68414(14)
O11 O 0.2690(3) 0.8104(2) 0.79031(13)
O12 O 0.3686(3) 0.9821(2) 0.80925(13)
Pr2 Pr 0.108506(19) 0.691503(16) 0.725330(9)
N5 N 0.3377(3) 0.6629(3) 0.68433(15)
O17 O 0.1008(3) 0.6796(2) 0.61493(12)
O19 O 0.2320(3) 0.5596(2) 0.80080(13)
O20 O 0.1314(3) 0.4821(2) 0.69075(13)
C4 C 0.6608(4) 0.0113(3) 0.78169(18)
O3 O 0.6856(3) 0.0199(3) 0.83783(13)
O4 O 0.5738(3) 0.0658(3) 0.74963(14)
O13 O 0.6066(3) 0.0865(3) 0.96728(16)
H9 H 0.540(2) 0.114(3) 0.9455(10)
O18 O 0.8759(3) 0.0919(3) 0.94556(14)
C7 C 0.6952(4) 0.8483(3) 0.08718(17)
C8 C 0.8272(4) 0.8513(3) 0.12276(18)
C9 C 0.9481(4) 0.8694(4) 0.10557(18)
C11 C 0.9627(4) 0.8465(4) 0.20458(19)
H6 H 0.9857 0.7752 0.2879
N3 N 0.8377(3) 0.8371(3) 0.18433(15)
O5 O 0.6008(3) 0.8204(2) 0.11493(12)
O6 O 0.6805(3) 0.8758(3) 0.03292(13)
Pr4 Pr 0.608506(19) 0.808497(16) 0.225330(9)
C1 C 0.9169(4) 0.8204(3) 0.81930(19)
C2 C 0.8473(4) 0.8600(3) 0.76132(18)
C3 C 0.7424(4) 0.9346(3) 0.74707(19)
C5 C 0.8119(4) 0.8686(4) 0.6638(2)
C6 C 0.8196(6) 0.8531(5) 0.5986(2)
H1 H 0.7957 0.7741 0.5870
H2 H 0.9067 0.8682 0.5906
H3 H 0.7612 0.9071 0.5760
N1 N 0.8898(3) 0.8204(3) 0.70868(15)
N2 N 0.7232(3) 0.9374(3) 0.68545(16)
H7 H 0.6638 0.9770 0.6639
O2 O 0.8719(4) 0.8399(4) 0.86732(15)
O7 O 0.9372(3) 0.8662(3) 0.99917(13)
O14 O 0.5091(3) 0.8626(3) 0.90202(18)
O15 O 0.7226(4) 0.6985(3) 0.9385(2)
Pr1 Pr 0.73776(2) 0.918760(19) 0.935310(10)
H11 H 0.472(2) 0.7984(19) 0.9095(16)
H12 H 0.457(2) 0.898(2) 0.8752(14)
H13 H 0.663(3) 0.6622(19) 0.9528(19)
H14 H 0.780(3) 0.6537(17) 0.9276(19)
O16 O 0.9262(3) 0.5658(3) 0.75037(14)
H11_2 H 0.028(2) 0.2984(19) 0.5905(16)
H12_2 H 0.043(2) 0.398(2) 0.6248(14)
C1_2 C 0.5831(4) 0.3204(3) 0.68070(19)
C2_2 C 0.6527(4) 0.3600(3) 0.73868(18)
C3_2 C 0.7576(4) 0.4346(3) 0.75293(19)
C4_2 C 0.8392(4) 0.5113(3) 0.71831(18)
C5_2 C 0.6881(4) 0.3686(4) 0.8362(2)
C6_2 C 0.6804(6) 0.3531(5) 0.9014(2)
H1_2 H 0.7043 0.2741 0.9130
H2_2 H 0.5933 0.3682 0.9094
H3_2 H 0.7388 0.4071 0.9240
C7_2 C 0.8048(4) 0.3483(3) 0.41282(17)
C8_2 C 0.6728(4) 0.3513(3) 0.37724(18)
C9_2 C 0.5519(4) 0.3694(4) 0.39443(18)
C10_2 C 0.4955(4) 0.3828(3) 0.45153(19)
C11_2 C 0.5373(4) 0.3465(4) 0.29542(19)
C12_2 C 0.4756(5) 0.3384(5) 0.2319(2)
H4_2 H 0.3842 0.3241 0.2310
H5_2 H 0.4884 0.4109 0.2115
H6_2 H 0.5143 0.2752 0.2121
C13_2 C 0.2644(4) 0.4591(3) 0.78548(18)
C14_2 C 0.2038(4) 0.4130(3) 0.72277(18)
N1_2 N 0.6102(3) 0.3204(3) 0.79132(15)
N2_2 N 0.7768(3) 0.4374(3) 0.81455(16)
H7_2 H 0.8362 0.4770 0.8361
N3_2 N 0.6623(3) 0.3371(3) 0.31567(15)
N4_2 N 0.4692(3) 0.3665(3) 0.34150(16)
H8_2 H 0.3864 0.3760 0.3383
O1_2 O 0.4788(3) 0.2651(3) 0.68248(13)
O2_2 O 0.6281(4) 0.3399(4) 0.63268(15)
O3_2 O 0.8144(3) 0.5199(3) 0.66217(13)
O5_2 O 0.8992(3) 0.3204(2) 0.38507(12)
O6_2 O 0.8195(3) 0.3758(3) 0.46708(13)
O7_2 O 0.5628(3) 0.3662(3) 0.50083(13)
O8_2 O 0.3759(3) 0.4081(3) 0.44556(14)
O9_2 O 0.3419(3) 0.3918(2) 0.81586(14)
O11_2 O 0.2310(3) 0.3104(2) 0.70969(13)
O13_2 O 0.8934(3) 0.5865(3) 0.53272(16)
O14_2 O 0.9909(3) 0.3626(3) 0.59798(18)
O15_2 O 0.7774(4) 0.1985(3) 0.5615(2)
Pr1_2 Pr 0.76224(2) 0.418760(19) 0.564690(10)
H9_2 H 0.960(2) 0.614(3) 0.5545(10)
H10 H 0.903(3) 0.601(3) 0.4963(6)
H13_2 H 0.837(3) 0.1622(19) 0.5472(19)
H14_2 H 0.720(3) 0.1537(17) 0.5724(19)
N5_2 N 0.1623(3) 0.1629(3) 0.81567(15)
O17_2 O 0.3992(3) 0.1796(2) 0.88507(12)
O18_2 O 0.6241(3) 0.5919(3) 0.55444(14)
Pr3_2 Pr 0.23776(2) 0.581240(19) 0.435310(10)
Pr4_2 Pr 0.891494(19) 0.308497(16) 0.274670(9)
C1_3 C 0.0831(4) 0.1796(3) 0.18070(19)
C2_3 C 0.1527(4) 0.1400(3) 0.23868(18)
C3_3 C 0.2576(4) 0.0654(3) 0.25293(19)
C5_3 C 0.1881(4) 0.1314(4) 0.3362(2)
C6_3 C 0.1804(6) 0.1469(5) 0.4014(2)
H1_3 H 0.2043 0.2259 0.4130
H2_3 H 0.0933 0.1318 0.4094
H3_3 H 0.2388 0.0929 0.4240
N1_3 N 0.1102(3) 0.1796(3) 0.29132(15)
N2_3 N 0.2768(3) 0.0626(3) 0.31455(16)
H7_3 H 0.3362 0.0230 0.3361
O2_3 O 0.1281(4) 0.1601(4) 0.13268(15)
O7_3 O 0.0628(3) 0.1338(3) 0.00083(13)
O14_3 O 0.4909(3) 0.1374(3) 0.09798(18)
O15_3 O 0.2774(4) 0.3015(3) 0.0615(2)
H11_3 H 0.528(2) 0.2016(19) 0.0905(16)
H12_3 H 0.543(2) 0.102(2) 0.1248(14)
H13_3 H 0.337(3) 0.3378(19) 0.0472(19)
H14_3 H 0.220(3) 0.3463(17) 0.0724(19)
O16_2 O 0.0738(3) 0.4342(3) 0.24963(14)
C7_3 C 0.3048(4) 0.1517(3) 0.91282(17)
C8_3 C 0.1728(4) 0.1487(3) 0.87724(18)
C9_3 C 0.0519(4) 0.1306(4) 0.89443(18)
C11_3 C 0.0373(4) 0.1535(4) 0.79542(19)
H6_3 H 0.0143 0.2248 0.7121
O6_3 O 0.3195(3) 0.1242(3) 0.96708(13)
C4_3 C 0.3392(4) 0.9887(3) 0.21831(18)
O3_3 O 0.3144(3) 0.9801(3) 0.16217(13)
O4_2 O 0.4262(3) 0.9342(3) 0.25037(14)
O13_3 O 0.3934(3) 0.9135(3) 0.03272(16)
H9_3 H 0.460(2) 0.886(3) 0.0545(10)
C13_3 C 0.7644(4) 0.0409(3) 0.28548(18)
C14_3 C 0.7038(4) 0.0870(3) 0.22277(18)
O1_3 O 0.9788(3) 0.2349(3) 0.18248(13)
O9_3 O 0.8419(3) 0.1082(2) 0.31586(14)
O11_3 O 0.7310(3) 0.1896(2) 0.20969(13)
O12_2 O 0.6314(3) 0.0179(2) 0.19075(13)
O19_2 O 0.7680(3) 0.4404(2) 0.19920(13)
O20_2 O 0.8686(3) 0.5179(2) 0.30925(13)
C10_3 C 0.9955(4) 0.1172(3) 0.95153(19)
C12_3 C 0.9756(5) 0.1616(5) 0.7319(2)
H4_3 H 0.8842 0.1759 0.7310
H5_3 H 0.9884 0.0891 0.7115
N4_3 N 0.9692(3) 0.1335(3) 0.84150(16)
H8_3 H 0.8864 0.1240 0.8383
O10_2 O 0.7320(3) 0.9404(2) 0.30080(13)
C1_4 C 0.4169(4) 0.6796(3) 0.31930(19)
C2_4 C 0.3473(4) 0.6400(3) 0.26132(18)
C3_4 C 0.2424(4) 0.5654(3) 0.24707(19)
C4_4 C 0.1608(4) 0.4887(3) 0.28169(18)
C5_4 C 0.3119(4) 0.6314(4) 0.1638(2)
C6_4 C 0.3196(6) 0.6469(5) 0.0986(2)
H1_4 H 0.2957 0.7259 0.0870
H2_4 H 0.4067 0.6318 0.0906
H3_4 H 0.2612 0.5929 0.0760
C7_4 C 0.1952(4) 0.6517(3) 0.58718(17)
C8_4 C 0.3272(4) 0.6487(3) 0.62276(18)
C9_4 C 0.4481(4) 0.6306(4) 0.60557(18)
C10_4 C 0.5045(4) 0.6172(3) 0.54847(19)
C11_4 C 0.4627(4) 0.6535(4) 0.70458(19)
C12_4 C 0.5244(5) 0.6616(5) 0.7681(2)
H4_4 H 0.6158 0.6759 0.7690
H5_4 H 0.5116 0.5891 0.7885
H6_4 H 0.4857 0.7248 0.7879
C13_4 C 0.7356(4) 0.5409(3) 0.21452(18)
C14_4 C 0.7962(4) 0.5870(3) 0.27723(18)
N1_4 N 0.3898(3) 0.6796(3) 0.20868(15)
N2_4 N 0.2232(3) 0.5626(3) 0.18545(16)
H7_4 H 0.1638 0.5230 0.1639
N4_4 N 0.5308(3) 0.6335(3) 0.65850(16)
H8_4 H 0.6136 0.6240 0.6617
O1_4 O 0.5212(3) 0.7349(3) 0.31752(13)
O2_4 O 0.3719(4) 0.6601(4) 0.36732(15)
O3_4 O 0.1856(3) 0.4801(3) 0.33783(13)
O6_4 O 0.1805(3) 0.6242(3) 0.53292(13)
O7_4 O 0.4372(3) 0.6338(3) 0.49917(13)
O9_4 O 0.6581(3) 0.6082(2) 0.18414(14)
O11_4 O 0.7690(3) 0.6896(2) 0.29031(13)
O13_4 O 0.1066(3) 0.4135(3) 0.46728(16)
O14_4 O 0.0091(3) 0.6374(3) 0.40202(18)
O15_4 O 0.2226(4) 0.8015(3) 0.4385(2)
H9_4 H 0.040(2) 0.386(3) 0.4455(10)
H10_2 H 0.097(3) 0.399(3) 0.5037(6)
H13_4 H 0.163(3) 0.8378(19) 0.4528(19)
H14_4 H 0.280(3) 0.8463(17) 0.4276(19)
H11_4 H 0.972(2) 0.7016(19) 0.4095(16)
H12_4 H 0.957(2) 0.602(2) 0.3752(14)
H10_3 H 0.597(3) 0.101(3) 0.0037(6)
H10_4 H 0.403(3) 0.899(3) 0.9963(6)
loop_
_geom_bond_atom_site_label_1
_geom_bond_atom_site_label_2
_geom_bond_site_symmetry_1
_geom_bond_site_symmetry_2
Pr6 O10 1_555 1_555
C12 H4 1_555 1_555
H5 C12 1_555 1_555
H8 N4 1_555 1_555
O8 C10 1_555 1_555
C13 C14 1_555 1_555
C14 O11 1_555 1_555
O9 C13 1_555 1_555
O11 Pr2 1_555 1_555
O12 C14 1_555 1_555
N5 Pr2 1_555 1_555
O17 Pr2 1_555 1_555
O19 Pr2 1_555 1_555
O20 Pr2 1_555 1_555
O1 Pr2 1_555 1_555
O9 Pr2 1_555 1_555
C4 O3 1_555 1_555
O4 C4 1_555 1_555
H9 O13 1_555 1_555
Pr6 O4 1_555 1_555
C7 C8 1_555 1_555
C8 C9 1_555 1_555
N3 C8 1_555 1_555
O5 C7 1_555 1_555
O6 C7 1_555 1_555
Pr4 N3 1_555 1_555
C11 N3 1_555 1_555
O5 Pr4 1_555 1_555
C1 C2 1_555 1_555
C2 C3 1_555 1_555
C5 C6 1_555 1_555
C6 H1 1_555 1_555
H2 C6 1_555 1_555
H3 C6 1_555 1_555
N1 C2 1_555 1_555
N2 C3 1_555 1_555
H7 N2 1_555 1_555
O2 C1 1_555 1_555
O7 Pr1 1_555 1_555
O14 Pr1 1_555 1_555
O15 Pr1 1_555 1_555
Pr1 O2 1_555 1_555
H11 O14 1_555 1_555
H12 O14 1_555 1_555
H13 O15 1_555 1_555
H14 O15 1_555 1_555
C5 N1 1_555 1_555
C5 N2 1_555 1_555
C1_2 C2_2 1_555 1_555
C2_2 C3_2 1_555 1_555
C3_2 C4_2 1_555 1_555
C4_2 O3_2 1_555 1_555
C5_2 C6_2 1_555 1_555
C6_2 H1_2 1_555 1_555
H2_2 C6_2 1_555 1_555
H3_2 C6_2 1_555 1_555
C7_2 C8_2 1_555 1_555
C8_2 C9_2 1_555 1_555
C9_2 C10_2 1_555 1_555
C10_2 O7_2 1_555 1_555
C11_2 C12_2 1_555 1_555
C12_2 H4_2 1_555 1_555
H5_2 C12_2 1_555 1_555
H6_2 C12_2 1_555 1_555
C13_2 C14_2 1_555 1_555
C14_2 O11_2 1_555 1_555
N1_2 C2_2 1_555 1_555
N2_2 C3_2 1_555 1_555
H7_2 N2_2 1_555 1_555
N3_2 C8_2 1_555 1_555
N4_2 C9_2 1_555 1_555
H8_2 N4_2 1_555 1_555
O1_2 C1_2 1_555 1_555
O2_2 C1_2 1_555 1_555
O3_2 Pr1_2 1_555 1_555
O16 C4_2 1_555 1_555
O5_2 C7_2 1_555 1_555
O6_2 C7_2 1_555 1_555
O7_2 Pr1_2 1_555 1_555
O8_2 C10_2 1_555 1_555
O9_2 C13_2 1_555 1_555
O19 C13_2 1_555 1_555
O11_2 Pr6 1_555 1_555
O20 C14_2 1_555 1_555
O13_2 Pr1_2 1_555 1_555
O14_2 Pr1_2 1_555 1_555
O15_2 Pr1_2 1_555 1_555
Pr1_2 O2_2 1_555 1_555
Pr6 N1_2 1_555 1_555
H9_2 O13_2 1_555 1_555
H10 O13_2 1_555 1_555
H13_2 O15_2 1_555 1_555
H14_2 O15_2 1_555 1_555
N5_2 Pr6 1_555 1_555
O17_2 Pr6 1_555 1_555
O18_2 Pr1_2 1_555 1_555
Pr3_2 O8_2 1_555 1_555
Pr4_2 N3_2 1_555 1_555
C5_2 N1_2 1_555 1_555
C5_2 N2_2 1_555 1_555
C11_2 N3_2 1_555 1_555
C11_2 N4_2 1_555 1_555
O1_2 Pr6 1_555 1_555
O5_2 Pr4_2 1_555 1_555
O6_2 Pr1_2 1_555 1_555
O9_2 Pr6 1_555 1_555
C1_3 C2_3 1_555 1_555
C2_3 C3_3 1_555 1_555
C5_3 C6_3 1_555 1_555
C6_3 H1_3 1_555 1_555
H2_3 C6_3 1_555 1_555
H3_3 C6_3 1_555 1_555
N1_3 C2_3 1_555 1_555
N2_3 C3_3 1_555 1_555
H7_3 N2_3 1_555 1_555
O2_3 C1_3 1_555 1_555
O7_3 Pr3 1_555 1_555
O14_3 Pr3 1_555 1_555
O15_3 Pr3 1_555 1_555
Pr3 O2_3 1_555 1_555
H11_3 O14_3 1_555 1_555
H12_3 O14_3 1_555 1_555
H13_3 O15_3 1_555 1_555
H14_3 O15_3 1_555 1_555
C5_3 N1_3 1_555 1_555
C5_3 N2_3 1_555 1_555
C7_3 C8_3 1_555 1_555
C8_3 C9_3 1_555 1_555
N5_2 C8_3 1_555 1_555
O17_2 C7_3 1_555 1_555
O6_3 C7_3 1_555 1_555
C11_3 N5_2 1_555 1_555
C4_3 O3_3 1_555 1_555
O4_2 C4_3 1_555 1_555
H9_3 O13_3 1_555 1_555
Pr4 O4_2 1_555 1_555
C13_3 C14_3 1_555 1_555
C14_3 O11_3 1_555 1_555
O9_3 C13_3 1_555 1_555
O11_3 Pr4_2 1_555 1_555
O12_2 C14_3 1_555 1_555
O19_2 Pr4_2 1_555 1_555
O20_2 Pr4_2 1_555 1_555
O1_3 Pr4_2 1_555 1_555
O9_3 Pr4_2 1_555 1_555
C12_3 H4_3 1_555 1_555
H5_3 C12_3 1_555 1_555
H8_3 N4_3 1_555 1_555
O18 C10_3 1_555 1_555
Pr4 O10_2 1_555 1_555
C1_4 C2_4 1_555 1_555
C2_4 C3_4 1_555 1_555
C3_4 C4_4 1_555 1_555
C4_4 O3_4 1_555 1_555
C5_4 C6_4 1_555 1_555
C6_4 H1_4 1_555 1_555
H2_4 C6_4 1_555 1_555
H3_4 C6_4 1_555 1_555
C7_4 C8_4 1_555 1_555
C8_4 C9_4 1_555 1_555
C9_4 C10_4 1_555 1_555
C10_4 O7_4 1_555 1_555
C11_4 C12_4 1_555 1_555
C12_4 H4_4 1_555 1_555
H5_4 C12_4 1_555 1_555
H6_4 C12_4 1_555 1_555
C13_4 C14_4 1_555 1_555
C14_4 O11_4 1_555 1_555
N1_4 C2_4 1_555 1_555
N2_4 C3_4 1_555 1_555
H7_4 N2_4 1_555 1_555
N5 C8_4 1_555 1_555
N4_4 C9_4 1_555 1_555
H8_4 N4_4 1_555 1_555
O1_4 C1_4 1_555 1_555
O2_4 C1_4 1_555 1_555
O3_4 Pr3_2 1_555 1_555
O16_2 C4_4 1_555 1_555
O17 C7_4 1_555 1_555
O6_4 C7_4 1_555 1_555
O7_4 Pr3_2 1_555 1_555
O18_2 C10_4 1_555 1_555
O9_4 C13_4 1_555 1_555
O19_2 C13_4 1_555 1_555
O11_4 Pr4 1_555 1_555
O20_2 C14_4 1_555 1_555
O13_4 Pr3_2 1_555 1_555
O14_4 Pr3_2 1_555 1_555
O15_4 Pr3_2 1_555 1_555
Pr3_2 O2_4 1_555 1_555
Pr4 N1_4 1_555 1_555
H9_4 O13_4 1_555 1_555
H10_2 O13_4 1_555 1_555
H13_4 O15_4 1_555 1_555
H14_4 O15_4 1_555 1_555
C5_4 N1_4 1_555 1_555
C5_4 N2_4 1_555 1_555
C11_4 N5 1_555 1_555
C11_4 N4_4 1_555 1_555
O1_4 Pr4 1_555 1_555
O6_4 Pr3_2 1_555 1_555
O9_4 Pr4 1_555 1_555

#END
