
###############################################################################
#
# This file contains modified crystal structure data generated from the
# MOF subset of the Cambridge Structural Database (CSD) v543 
# hosted by the Cambridge Crystallographic Data Centre (CCDC).
#
# This work is licensed under the Creative Commons
# Attribution-NonCommercial-ShareAlike 4.0 International License.
# To view a copy of this license, visit
# http://creativecommons.org/licenses/by-nc-sa/4.0/
# or send a letter to
# Creative Commons, PO Box 1866, Mountain View, CA 94042, USA.
#
# CIF created using the CSD Python API on 29 September 2022
# The structure has been converted into the P1 space group
# The structure has a 3D framework
# The original CSD entry KETNON is in the triclinic crystal system
# The framework has been calculated to contain at least 10.0% void space
# The void calculation uses a probe of radius 1.32A, grid spacing 0.4
#
###############################################################################

data_KETNON
_chemical_formula_moiety         '(C40 H32 Cu2 N8 O8 S6)n'
_symmetry_cell_setting           triclinic
_symmetry_space_group_name_H-M   'P 1'
_symmetry_Int_Tables_number      1
_space_group_name_Hall           'P 1'
loop_
_symmetry_equiv_pos_site_id
_symmetry_equiv_pos_as_xyz
1 x,y,z
_cell_length_a                   10.9412(14)
_cell_length_b                   11.8999(15)
_cell_length_c                   12.5057(16)
_cell_angle_alpha                64.312(2)
_cell_angle_beta                 74.123(2)
_cell_angle_gamma                89.302(2)
_cell_volume                     1400.66
loop_
_atom_site_label
_atom_site_type_symbol
_atom_site_fract_x
_atom_site_fract_y
_atom_site_fract_z
Cu4 Cu 0.5000 0.0000 0.0000
Cu4_2 Cu 0.5000 0.0000 1.0000
N3 N 0.3333(2) 0.9177(2) 0.0019(2)
C11 C 0.2340(2) 0.8583(2) 0.1039(2)
H9 H 0.2376 0.8587 0.1772
C12 C 0.1263(2) 0.7962(3) 0.1067(2)
H10 H 0.0583 0.7587 0.1793
Cu4_3 Cu 0.5000 1.0000 0.0000
C13 C 0.1215(2) 0.7909(2) 0.9994(2)
C14 C 0.2250(3) 0.8510(3) 0.8927(3)
H11 H 0.2252 0.8490 0.8192
C15 C 0.3272(3) 0.9135(3) 0.8973(3)
H12 H 0.3950 0.9547 0.8251
Cu4_4 Cu 0.5000 1.0000 1.0000
N7 N 0.40961(19) 0.1376(2) 0.0318(2)
O7 O 0.53678(18) 0.13655(18) 0.77800(16)
N11 N 0.6667(2) 0.0823(2) 0.9981(2)
S5 S 0.00154(7) 0.29253(8) 0.01314(7)
C29 C 0.5548(3) 0.7415(3) 0.0516(3)
H23 H 0.4931 0.7228 0.1268
C30 C 0.6060(3) 0.6435(3) 0.0308(3)
H24 H 0.5787 0.5607 0.0905
Cu1 Cu 0.5000 0.5000 0.5000
S1 S 0.23338(8) 0.45180(7) 0.11182(8)
S3 S 0.40076(6) 0.82839(6) 0.35435(6)
O1 O 0.44024(19) 0.70953(18) 0.43216(18)
O2 O 0.46322(18) 0.86345(18) 0.22200(16)
O3 O 0.26106(18) 0.8137(2) 0.37785(19)
O4 O 0.4366(2) 0.9278(2) 0.3838(2)
N1 N 0.4033(2) 0.4634(2) 0.4006(2)
N4 N 0.6664(2) 0.5637(2) 0.3463(2)
C1 C 0.3076(3) 0.5291(3) 0.3685(3)
H1 H 0.2780 0.5826 0.4037
C2 C 0.2518(3) 0.5208(3) 0.2863(3)
H2 H 0.1841 0.5660 0.2686
C3 C 0.2967(2) 0.4442(2) 0.2295(2)
C4 C 0.3923(3) 0.3716(2) 0.2663(3)
H3 H 0.4228 0.3164 0.2335
C5 C 0.4408(2) 0.3835(2) 0.3524(2)
H4 H 0.5028 0.3333 0.3783
C6 C 0.3016(3) 0.3292(3) 0.0803(3)
C7 C 0.2623(3) 0.2044(3) 0.1662(3)
H5 H 0.1984 0.1833 0.2407
C8 C 0.3194(2) 0.1125(2) 0.1392(3)
H6 H 0.2945 0.0291 0.1981
C16 C 0.8764(2) 0.6545(3) 0.1318(2)
C17 C 0.8057(3) 0.7360(3) 0.1682(3)
H13 H 0.8274 0.8224 0.1212
C18 C 0.7030(3) 0.6881(3) 0.2745(3)
H14 H 0.6568 0.7440 0.2980
C19 C 0.7375(3) 0.4861(3) 0.3111(3)
H15 H 0.7157 0.3999 0.3603
C20 C 0.8418(3) 0.5277(3) 0.2053(3)
H16 H 0.8880 0.4704 0.1841
S4 S 0.76662(8) 0.54820(7) 0.88818(8)
S6 S 0.59924(6) 0.17161(6) 0.64565(6)
O5 O 0.55976(19) 0.29047(18) 0.56784(18)
O8 O 0.73894(18) 0.1863(2) 0.62215(19)
O9 O 0.5634(2) 0.0722(2) 0.6162(2)
N5 N 0.5967(2) 0.5366(2) 0.5994(2)
N6 N 0.59039(19) 0.8624(2) 0.9682(2)
N12 N 0.3336(2) 0.4363(2) 0.6537(2)
C21 C 0.6924(3) 0.4709(3) 0.6315(3)
H17 H 0.7220 0.4174 0.5963
C22 C 0.7482(3) 0.4792(3) 0.7137(3)
H18 H 0.8159 0.4340 0.7314
C23 C 0.7033(2) 0.5558(2) 0.7705(2)
C24 C 0.6077(3) 0.6284(2) 0.7337(3)
H19 H 0.5772 0.6836 0.7665
C25 C 0.5592(2) 0.6165(2) 0.6476(2)
H20 H 0.4972 0.6667 0.6217
C26 C 0.6984(3) 0.6708(3) 0.9197(3)
C27 C 0.7377(3) 0.7956(3) 0.8338(3)
H21 H 0.8016 0.8167 0.7593
C28 C 0.6806(2) 0.8875(2) 0.8608(3)
H22 H 0.7055 0.9709 0.8019
C36 C 0.1236(2) 0.3455(3) 0.8682(2)
C37 C 0.1943(3) 0.2640(3) 0.8318(3)
H29 H 0.1726 0.1776 0.8788
C38 C 0.2970(3) 0.3119(3) 0.7255(3)
H30 H 0.3432 0.2560 0.7020
C39 C 0.2625(3) 0.5139(3) 0.6889(3)
H31 H 0.2843 0.6001 0.6397
C40 C 0.1582(3) 0.4723(3) 0.7947(3)
H32 H 0.1120 0.5296 0.8159
S2 S 0.99846(7) 0.70747(8) 0.98686(7)
C9 C 0.4452(3) 0.2585(3) 0.9484(3)
H7 H 0.5069 0.2772 0.8732
C10 C 0.3940(3) 0.3565(3) 0.9692(3)
H8 H 0.4213 0.4393 0.9095
C33 C 0.8785(2) 0.2091(2) 0.0006(2)
C34 C 0.7750(3) 0.1490(3) 0.1073(3)
H27 H 0.7748 0.1510 0.1808
C35 C 0.6728(3) 0.0865(3) 0.1027(3)
H28 H 0.6050 0.0453 0.1749
C31 C 0.7660(2) 0.1417(2) 0.8961(2)
H25 H 0.7624 0.1413 0.8228
C32 C 0.8737(2) 0.2038(3) 0.8933(2)
H26 H 0.9417 0.2413 0.8207
loop_
_geom_bond_atom_site_label_1
_geom_bond_atom_site_label_2
_geom_bond_site_symmetry_1
_geom_bond_site_symmetry_2
N3 C11 1_555 1_555
C11 H9 1_555 1_555
C12 C11 1_555 1_555
H10 C12 1_555 1_555
Cu4_3 N3 1_555 1_555
C14 C13 1_555 1_555
H11 C14 1_555 1_555
H12 C15 1_555 1_555
C14 C15 1_555 1_555
N7 Cu4 1_555 1_555
O7 Cu4_2 1_555 1_555
N11 Cu4_2 1_555 1_555
H23 C29 1_555 1_555
H24 C30 1_555 1_555
C29 C30 1_555 1_555
Cu1 O1 1_555 1_555
Cu4_3 O2 1_555 1_555
S1 C3 1_555 1_555
S3 O1 1_555 1_555
O2 S3 1_555 1_555
O3 S3 1_555 1_555
O4 S3 1_555 1_555
N1 Cu1 1_555 1_555
N7 C8 1_555 1_555
N4 Cu1 1_555 1_555
C1 N1 1_555 1_555
H1 C1 1_555 1_555
C2 C1 1_555 1_555
H2 C2 1_555 1_555
C3 C2 1_555 1_555
C4 C3 1_555 1_555
H3 C4 1_555 1_555
C5 N1 1_555 1_555
H4 C5 1_555 1_555
C6 S1 1_555 1_555
C7 C6 1_555 1_555
H5 C7 1_555 1_555
C8 C7 1_555 1_555
H6 C8 1_555 1_555
C17 C16 1_555 1_555
H13 C17 1_555 1_555
C18 N4 1_555 1_555
H14 C18 1_555 1_555
C19 N4 1_555 1_555
H15 C19 1_555 1_555
C20 C16 1_555 1_555
H16 C20 1_555 1_555
Cu4_4 N6 1_555 1_555
S4 C23 1_555 1_555
S6 O5 1_555 1_555
O5 Cu1 1_555 1_555
O7 S6 1_555 1_555
O8 S6 1_555 1_555
O9 S6 1_555 1_555
N5 Cu1 1_555 1_555
N6 C28 1_555 1_555
N12 Cu1 1_555 1_555
C21 N5 1_555 1_555
H17 C21 1_555 1_555
C22 C21 1_555 1_555
H18 C22 1_555 1_555
C23 C22 1_555 1_555
C24 C23 1_555 1_555
H19 C24 1_555 1_555
C25 N5 1_555 1_555
H20 C25 1_555 1_555
C26 S4 1_555 1_555
C27 C26 1_555 1_555
H21 C27 1_555 1_555
C28 C27 1_555 1_555
H22 C28 1_555 1_555
C37 C36 1_555 1_555
H29 C37 1_555 1_555
C38 N12 1_555 1_555
H30 C38 1_555 1_555
C39 N12 1_555 1_555
H31 C39 1_555 1_555
C40 C36 1_555 1_555
H32 C40 1_555 1_555
C4 C5 1_555 1_555
C17 C18 1_555 1_555
C19 C20 1_555 1_555
C24 C25 1_555 1_555
C37 C38 1_555 1_555
C39 C40 1_555 1_555
H7 C9 1_555 1_555
H8 C10 1_555 1_555
C9 C10 1_555 1_555
C34 C33 1_555 1_555
H27 C34 1_555 1_555
H28 C35 1_555 1_555
C34 C35 1_555 1_555
N11 C31 1_555 1_555
C31 H25 1_555 1_555
C32 C31 1_555 1_555
H26 C32 1_555 1_555

#END
