
###############################################################################
#
# This file contains modified crystal structure data generated from the
# MOF subset of the Cambridge Structural Database (CSD) v543 
# hosted by the Cambridge Crystallographic Data Centre (CCDC).
#
# This work is licensed under the Creative Commons
# Attribution-NonCommercial-ShareAlike 4.0 International License.
# To view a copy of this license, visit
# http://creativecommons.org/licenses/by-nc-sa/4.0/
# or send a letter to
# Creative Commons, PO Box 1866, Mountain View, CA 94042, USA.
#
# CIF created using the CSD Python API on 29 September 2022
# The structure has been converted into the P1 space group
# The structure has a 3D framework
# The original CSD entry KETYOZ is in the monoclinic crystal system
# The framework has been calculated to contain at least 10.0% void space
# The void calculation uses a probe of radius 1.32A, grid spacing 0.4
#
###############################################################################

data_KETYOZ
_chemical_formula_moiety         '(C144 H112 Cd8 N16 O40 S8)n'
_symmetry_cell_setting           triclinic
_symmetry_space_group_name_H-M   'P 1'
_symmetry_Int_Tables_number      1
_space_group_name_Hall           'P 1'
loop_
_symmetry_equiv_pos_site_id
_symmetry_equiv_pos_as_xyz
1 x,y,z
_cell_length_a                   19.1466(19)
_cell_length_b                   16.2759(16)
_cell_length_c                   13.1959(13)
_cell_angle_alpha                90
_cell_angle_beta                 95.9050(10)
_cell_angle_gamma                90
_cell_volume                     4090.39
loop_
_atom_site_label
_atom_site_type_symbol
_atom_site_fract_x
_atom_site_fract_y
_atom_site_fract_z
Cd1 Cd 0.360365(8) 0.558750(10) 0.459072(11)
S1 S 0.42179(5) 0.16666(4) 0.33461(6)
O1 O 0.41141(9) 0.43172(10) 0.45048(12)
O2 O 0.32853(9) 0.43852(10) 0.32179(13)
O3 O 0.47383(8) 0.60286(10) 0.41632(12)
H1 H 0.5085 0.5931 0.4603
H2 H 0.4842 0.5790 0.3626
O4 O 0.40007(8) 0.42058(10) 0.13276(12)
O5 O 0.35502(10) 0.31181(11) 0.05236(12)
N1 N 0.24336(10) 0.53314(13) 0.49206(15)
N2 N 0.32311(10) 0.63385(12) 0.31619(14)
C1 C 0.37938(12) 0.40324(14) 0.36810(16)
C2 C 0.40128(11) 0.32156(14) 0.33071(16)
C3 C 0.39534(12) 0.29507(14) 0.22580(16)
C4 C 0.40519(15) 0.21266(16) 0.2187(2)
H3 H 0.4031 0.1844 0.1572
C5 C 0.41642(14) 0.25805(16) 0.39598(19)
H4 H 0.4231 0.2638 0.4664
C6 C 0.38268(12) 0.34584(15) 0.13181(17)
C7 C 0.19659(12) 0.50693(18) 0.4168(2)
H5 H 0.2128 0.4928 0.3551
C8 C 0.12582(12) 0.49963(18) 0.42556(19)
H6 H 0.0956 0.4808 0.3708
C9 C 0.09974(12) 0.52057(15) 0.51675(19)
C10 C 0.14848(13) 0.54738(17) 0.5950(2)
H7 H 0.1338 0.5621 0.6576
C11 C 0.21871(13) 0.55226(17) 0.5799(2)
H8 H 0.2504 0.5698 0.6338
C12 C 0.02538(12) 0.51425(16) 0.53262(19)
H9 H 0.0128 0.5322 0.5951
C13 C 0.29265(13) 0.70712(16) 0.31982(17)
H10 H 0.2847 0.7283 0.3831
C14 C 0.27227(13) 0.75312(15) 0.23391(17)
H11 H 0.2523 0.8048 0.2400
C15 C 0.28169(12) 0.72192(15) 0.13844(17)
C16 C 0.31510(14) 0.64634(16) 0.13535(18)
H12 H 0.3241 0.6239 0.0732
C17 C 0.33464(14) 0.60512(16) 0.22409(18)
H13 H 0.3570 0.5547 0.2204
C18 C 0.25554(13) 0.76665(15) 0.04564(16)
H14 H 0.2461 0.8224 0.0517
O12 O 0.40007(8) 0.57942(10) 0.63276(12)
O14 O 0.35502(10) 0.68819(11) 0.55236(12)
N4 N 0.17689(10) 0.86615(12) 0.68381(14)
C25 C 0.20735(13) 0.79288(16) 0.68018(17)
H20 H 0.2153 0.7717 0.6169
C26 C 0.22773(13) 0.74688(15) 0.76609(17)
H21 H 0.2477 0.6952 0.7600
C27 C 0.21831(12) 0.77808(15) 0.86156(17)
C28 C 0.18490(14) 0.85366(16) 0.86465(18)
H22 H 0.1759 0.8761 0.9268
C29 C 0.16536(14) 0.89488(16) 0.77591(18)
H23 H 0.1430 0.9453 0.7796
C30 C 0.24446(13) 0.73335(15) 0.95436(16)
H24 H 0.2539 0.6776 0.9483
Cd4 Cd 0.360365(8) 0.441250(10) 0.959072(11)
Cd5 Cd 0.139635(8) 0.941250(10) 0.540928(11)
C21 C 0.09974(12) 0.47943(15) 0.01675(19)
C22 C 0.14848(13) 0.45262(17) 0.0950(2)
H17 H 0.1338 0.4379 0.1576
C23 C 0.21871(13) 0.44774(17) 0.0799(2)
H18 H 0.2504 0.4302 0.1338
C24 C 0.02538(12) 0.48575(16) 0.03262(19)
H19 H 0.0128 0.4678 0.0951
N3 N 0.24336(10) 0.46686(13) 0.99206(15)
C19 C 0.19659(12) 0.49307(18) 0.9168(2)
H15 H 0.2128 0.5072 0.8551
C20 C 0.12582(12) 0.50037(18) 0.92556(19)
H16 H 0.0956 0.5192 0.8708
S2 S 0.42179(5) 0.83334(4) 0.83461(6)
O6 O 0.41141(9) 0.56828(10) 0.95048(12)
O7 O 0.32853(9) 0.56148(10) 0.82179(13)
O8 O 0.47383(8) 0.39714(10) 0.91632(12)
H25 H 0.5085 0.4069 0.9603
H26 H 0.4842 0.4210 0.8626
C31 C 0.37938(12) 0.59676(14) 0.86810(16)
C32 C 0.40128(11) 0.67844(14) 0.83071(16)
C33 C 0.39534(12) 0.70493(14) 0.72580(16)
C34 C 0.40519(15) 0.78734(16) 0.7187(2)
H27 H 0.4031 0.8156 0.6572
C35 C 0.41642(14) 0.74195(16) 0.89598(19)
H28 H 0.4231 0.7362 0.9664
C36 C 0.38268(12) 0.65416(15) 0.63181(17)
N5 N 0.32311(10) 0.36615(12) 0.81619(14)
Cd3 Cd 0.139635(8) 0.058750(10) 0.040928(11)
S1_2 S 0.92179(5) 0.66666(4) 0.33461(6)
O1_2 O 0.91141(9) 0.93172(10) 0.45048(12)
O2_2 O 0.82853(9) 0.93852(10) 0.32179(13)
O4_2 O 0.90007(8) 0.92058(10) 0.13276(12)
O5_2 O 0.85502(10) 0.81181(11) 0.05236(12)
C1_2 C 0.87938(12) 0.90324(14) 0.36810(16)
C2_2 C 0.90128(11) 0.82156(14) 0.33071(16)
C3_2 C 0.89534(12) 0.79507(14) 0.22580(16)
C4_2 C 0.90519(15) 0.71266(16) 0.2187(2)
H3_2 H 0.9031 0.6844 0.1572
C5_2 C 0.91642(14) 0.75805(16) 0.39598(19)
H4_2 H 0.9231 0.7638 0.4664
C6_2 C 0.88268(12) 0.84584(15) 0.13181(17)
H5_2 H 0.7128 0.9928 0.3551
C8_2 C 0.62582(12) 0.99963(18) 0.42556(19)
H6_2 H 0.5956 0.9808 0.3708
N3_2 N 0.25664(10) 0.96686(13) 0.50794(15)
C19_2 C 0.30341(12) 0.99307(18) 0.5832(2)
C21_2 C 0.40026(12) 0.97943(15) 0.48325(19)
C22_2 C 0.35152(13) 0.95262(17) 0.4050(2)
H17_2 H 0.3662 0.9379 0.3424
C23_2 C 0.28129(13) 0.94774(17) 0.4201(2)
H18_2 H 0.2496 0.9302 0.3662
C24_2 C 0.47462(12) 0.98575(16) 0.46738(19)
H19_2 H 0.4872 0.9678 0.4049
O8_2 O 0.02617(8) 0.89714(10) 0.58368(12)
H26_2 H 0.0158 0.9210 0.6374
O11 O 0.09993(8) 0.92058(10) 0.36724(12)
O13 O 0.14498(10) 0.81181(11) 0.44764(12)
O3_2 O 0.02617(8) 0.10286(10) 0.08368(12)
H2_2 H 0.0158 0.0790 0.1374
N1_2 N 0.25664(10) 0.03314(13) 0.00794(15)
N2_2 N 0.17689(10) 0.13385(12) 0.18381(14)
C7_2 C 0.30341(12) 0.00693(18) 0.0832(2)
C13_2 C 0.20735(13) 0.20712(16) 0.18018(17)
H10_2 H 0.2153 0.2283 0.1169
C14_2 C 0.22773(13) 0.25312(15) 0.26609(17)
H11_2 H 0.2477 0.3048 0.2600
C15_2 C 0.21831(12) 0.22192(15) 0.36156(17)
C16_2 C 0.18490(14) 0.14634(16) 0.36465(18)
H12_2 H 0.1759 0.1239 0.4268
C17_2 C 0.16536(14) 0.10512(16) 0.27591(18)
H13_2 H 0.1430 0.0547 0.2796
C18_2 C 0.24446(13) 0.26665(15) 0.45436(16)
H14_2 H 0.2539 0.3224 0.4483
C25_2 C 0.29265(13) 0.29288(16) 0.81982(17)
H20_2 H 0.2847 0.2717 0.8831
C26_2 C 0.27227(13) 0.24688(15) 0.73391(17)
H21_2 H 0.2523 0.1952 0.7400
C27_2 C 0.28169(12) 0.27808(15) 0.63844(17)
C28_2 C 0.31510(14) 0.35366(16) 0.63535(18)
H22_2 H 0.3241 0.3761 0.5732
C29_2 C 0.33464(14) 0.39488(16) 0.72409(18)
H23_2 H 0.3570 0.4453 0.7204
C30_2 C 0.25554(13) 0.23335(15) 0.54564(16)
H24_2 H 0.2461 0.1776 0.5517
S1_3 S 0.07821(5) 0.66666(4) 0.16539(6)
O1_3 O 0.08859(9) 0.93172(10) 0.04952(12)
O2_3 O 0.17147(9) 0.93852(10) 0.17821(13)
C1_3 C 0.12062(12) 0.90324(14) 0.13190(16)
C2_3 C 0.09872(11) 0.82156(14) 0.16929(16)
C3_3 C 0.10466(12) 0.79507(14) 0.27420(16)
C4_3 C 0.09481(15) 0.71266(16) 0.2813(2)
H3_3 H 0.0969 0.6844 0.3428
C5_3 C 0.08358(14) 0.75805(16) 0.10402(19)
H4_3 H 0.0769 0.7638 0.0336
C6_3 C 0.11732(12) 0.84584(15) 0.36819(17)
H5_3 H 0.2872 0.9928 0.1449
C8_3 C 0.37418(12) 0.99963(18) 0.07444(19)
H6_3 H 0.4044 0.9808 0.1292
C21_3 C 0.59974(12) 0.97943(15) 0.01675(19)
C22_3 C 0.64848(13) 0.95262(17) 0.0950(2)
H17_3 H 0.6338 0.9379 0.1576
C23_3 C 0.71871(13) 0.94774(17) 0.0799(2)
H18_3 H 0.7504 0.9302 0.1338
C24_3 C 0.52538(12) 0.98575(16) 0.03262(19)
H19_3 H 0.5128 0.9678 0.0951
Cd3_2 Cd 0.639635(8) 0.558750(10) 0.040928(11)
N3_3 N 0.75664(10) 0.46686(13) 0.50794(15)
C19_3 C 0.80341(12) 0.49307(18) 0.5832(2)
H15_2 H 0.7872 0.5072 0.6449
C20_2 C 0.87418(12) 0.50037(18) 0.57444(19)
H16_2 H 0.9044 0.5192 0.6292
C21_4 C 0.90026(12) 0.47943(15) 0.48325(19)
C22_4 C 0.85152(13) 0.45262(17) 0.4050(2)
H17_4 H 0.8662 0.4379 0.3424
C23_4 C 0.78129(13) 0.44774(17) 0.4201(2)
H18_4 H 0.7496 0.4302 0.3662
C24_4 C 0.97462(12) 0.48575(16) 0.46738(19)
H19_4 H 0.9872 0.4678 0.4049
Cd2 Cd 0.639635(8) 0.441250(10) 0.540928(11)
S2_2 S 0.57821(5) 0.83334(4) 0.66539(6)
O6_2 O 0.58859(9) 0.56828(10) 0.54952(12)
O7_2 O 0.67147(9) 0.56148(10) 0.67821(13)
O8_3 O 0.52617(8) 0.39714(10) 0.58368(12)
H25_2 H 0.4915 0.4069 0.5397
H26_3 H 0.5158 0.4210 0.6374
O9 O 0.59993(8) 0.57942(10) 0.86724(12)
O10 O 0.64498(10) 0.68819(11) 0.94764(12)
C31_2 C 0.62062(12) 0.59676(14) 0.63190(16)
C32_2 C 0.59872(11) 0.67844(14) 0.66929(16)
C33_2 C 0.60466(12) 0.70493(14) 0.77420(16)
C34_2 C 0.59481(15) 0.78734(16) 0.7813(2)
H27_2 H 0.5969 0.8156 0.8428
C35_2 C 0.58358(14) 0.74195(16) 0.60402(19)
H28_2 H 0.5769 0.7362 0.5336
C36_2 C 0.61732(12) 0.65416(15) 0.86819(17)
O11_2 O 0.59993(8) 0.42058(10) 0.36724(12)
O13_2 O 0.64498(10) 0.31181(11) 0.44764(12)
N5_2 N 0.67689(10) 0.36615(12) 0.68381(14)
S1_4 S 0.57821(5) 0.16666(4) 0.16539(6)
O1_4 O 0.58859(9) 0.43172(10) 0.04952(12)
O2_4 O 0.67147(9) 0.43852(10) 0.17821(13)
O3_3 O 0.52617(8) 0.60286(10) 0.08368(12)
H1_2 H 0.4915 0.5931 0.0397
H2_3 H 0.5158 0.5790 0.1374
N1_3 N 0.75664(10) 0.53314(13) 0.00794(15)
N2_3 N 0.67689(10) 0.63385(12) 0.18381(14)
C1_4 C 0.62062(12) 0.40324(14) 0.13190(16)
C2_4 C 0.59872(11) 0.32156(14) 0.16929(16)
C3_4 C 0.60466(12) 0.29507(14) 0.27420(16)
C4_4 C 0.59481(15) 0.21266(16) 0.2813(2)
H3_4 H 0.5969 0.1844 0.3428
C5_4 C 0.58358(14) 0.25805(16) 0.10402(19)
H4_4 H 0.5769 0.2638 0.0336
C6_4 C 0.61732(12) 0.34584(15) 0.36819(17)
C7_3 C 0.80341(12) 0.50693(18) 0.0832(2)
H5_4 H 0.7872 0.4928 0.1449
C8_4 C 0.87418(12) 0.49963(18) 0.07444(19)
H6_4 H 0.9044 0.4808 0.1292
C13_3 C 0.70735(13) 0.70712(16) 0.18018(17)
H10_3 H 0.7153 0.7283 0.1169
C14_3 C 0.72773(13) 0.75312(15) 0.26609(17)
H11_3 H 0.7477 0.8048 0.2600
C15_3 C 0.71831(12) 0.72192(15) 0.36156(17)
C16_3 C 0.68490(14) 0.64634(16) 0.36465(18)
H12_3 H 0.6759 0.6239 0.4268
C17_3 C 0.66536(14) 0.60512(16) 0.27591(18)
H13_3 H 0.6430 0.5547 0.2796
C18_3 C 0.74446(13) 0.76665(15) 0.45436(16)
H14_3 H 0.7539 0.8224 0.4483
N4_2 N 0.82311(10) 0.86615(12) 0.81619(14)
C25_3 C 0.79265(13) 0.79288(16) 0.81982(17)
H20_3 H 0.7847 0.7717 0.8831
C26_3 C 0.77227(13) 0.74688(15) 0.73391(17)
H21_3 H 0.7523 0.6952 0.7400
C27_3 C 0.78169(12) 0.77808(15) 0.63844(17)
C28_3 C 0.81510(14) 0.85366(16) 0.63535(18)
H22_3 H 0.8241 0.8761 0.5732
C29_3 C 0.83464(14) 0.89488(16) 0.72409(18)
H23_3 H 0.8570 0.9453 0.7204
C30_3 C 0.75554(13) 0.73335(15) 0.54564(16)
H24_3 H 0.7461 0.6776 0.5517
Cd5_2 Cd 0.860365(8) 0.941250(10) 0.959072(11)
C9_2 C 0.90026(12) 0.52057(15) 0.98325(19)
C10_2 C 0.85152(13) 0.54738(17) 0.9050(2)
H7_2 H 0.8662 0.5621 0.8424
C11_2 C 0.78129(13) 0.55226(17) 0.9201(2)
H8_2 H 0.7496 0.5698 0.8662
C12_2 C 0.97462(12) 0.51425(16) 0.96738(19)
H9_2 H 0.9872 0.5322 0.9049
Cd1_2 Cd 0.860365(8) 0.058750(10) 0.459072(11)
O3_4 O 0.97383(8) 0.10286(10) 0.41632(12)
H2_4 H 0.9842 0.0790 0.3626
N1_4 N 0.74336(10) 0.03314(13) 0.49206(15)
N2_4 N 0.82311(10) 0.13385(12) 0.31619(14)
C7_4 C 0.69659(12) 0.00693(18) 0.4168(2)
C9_3 C 0.59974(12) 0.02057(15) 0.51675(19)
C10_3 C 0.64848(13) 0.04738(17) 0.5950(2)
H7_3 H 0.6338 0.0621 0.6576
C11_3 C 0.71871(13) 0.05226(17) 0.5799(2)
H8_3 H 0.7504 0.0698 0.6338
C12_3 C 0.52538(12) 0.01425(16) 0.53262(19)
H9_3 H 0.5128 0.0322 0.5951
C13_4 C 0.79265(13) 0.20712(16) 0.31982(17)
H10_4 H 0.7847 0.2283 0.3831
C14_4 C 0.77227(13) 0.25312(15) 0.23391(17)
H11_4 H 0.7523 0.3048 0.2400
C15_4 C 0.78169(12) 0.22192(15) 0.13844(17)
C16_4 C 0.81510(14) 0.14634(16) 0.13535(18)
H12_4 H 0.8241 0.1239 0.0732
C17_4 C 0.83464(14) 0.10512(16) 0.22409(18)
H13_4 H 0.8570 0.0547 0.2204
C18_4 C 0.75554(13) 0.26665(15) 0.04564(16)
H14_4 H 0.7461 0.3224 0.0517
H15_3 H 0.2872 0.0072 0.6449
C20_3 C 0.37418(12) 0.00037(18) 0.57444(19)
H16_3 H 0.4044 0.0192 0.6292
S2_3 S 0.07821(5) 0.33334(4) 0.66539(6)
O6_3 O 0.08859(9) 0.06828(10) 0.54952(12)
O7_3 O 0.17147(9) 0.06148(10) 0.67821(13)
O9_2 O 0.09993(8) 0.07942(10) 0.86724(12)
O10_2 O 0.14498(10) 0.18819(11) 0.94764(12)
C31_3 C 0.12062(12) 0.09676(14) 0.63190(16)
C32_3 C 0.09872(11) 0.17844(14) 0.66929(16)
C33_3 C 0.10466(12) 0.20493(14) 0.77420(16)
C34_3 C 0.09481(15) 0.28734(16) 0.7813(2)
H27_3 H 0.0969 0.3156 0.8428
C35_3 C 0.08358(14) 0.24195(16) 0.60402(19)
H28_3 H 0.0769 0.2362 0.5336
C36_3 C 0.11732(12) 0.15416(15) 0.86819(17)
O12_2 O 0.90007(8) 0.07942(10) 0.63276(12)
O14_2 O 0.85502(10) 0.18819(11) 0.55236(12)
C25_4 C 0.70735(13) 0.29288(16) 0.68018(17)
H20_4 H 0.7153 0.2717 0.6169
C26_4 C 0.72773(13) 0.24688(15) 0.76609(17)
H21_4 H 0.7477 0.1952 0.7600
C27_4 C 0.71831(12) 0.27808(15) 0.86156(17)
C28_4 C 0.68490(14) 0.35366(16) 0.86465(18)
H22_4 H 0.6759 0.3761 0.9268
C29_4 C 0.66536(14) 0.39488(16) 0.77591(18)
H23_4 H 0.6430 0.4453 0.7796
C30_4 C 0.74446(13) 0.23335(15) 0.95436(16)
H24_4 H 0.7539 0.1776 0.9483
C9_4 C 0.40026(12) 0.02057(15) 0.98325(19)
C10_4 C 0.35152(13) 0.04738(17) 0.9050(2)
H7_4 H 0.3662 0.0621 0.8424
C11_4 C 0.28129(13) 0.05226(17) 0.9201(2)
H8_4 H 0.2496 0.0698 0.8662
C12_4 C 0.47462(12) 0.01425(16) 0.96738(19)
H9_4 H 0.4872 0.0322 0.9049
H15_4 H 0.7128 0.0072 0.8551
C20_4 C 0.62582(12) 0.00037(18) 0.92556(19)
H16_4 H 0.5956 0.0192 0.8708
S2_4 S 0.92179(5) 0.33334(4) 0.83461(6)
O6_4 O 0.91141(9) 0.06828(10) 0.95048(12)
O7_4 O 0.82853(9) 0.06148(10) 0.82179(13)
C31_4 C 0.87938(12) 0.09676(14) 0.86810(16)
C32_4 C 0.90128(11) 0.17844(14) 0.83071(16)
C33_4 C 0.89534(12) 0.20493(14) 0.72580(16)
C34_4 C 0.90519(15) 0.28734(16) 0.7187(2)
H27_4 H 0.9031 0.3156 0.6572
C35_4 C 0.91642(14) 0.24195(16) 0.89598(19)
H28_4 H 0.9231 0.2362 0.9664
C36_4 C 0.88268(12) 0.15416(15) 0.63181(17)
N3_4 N 0.74336(10) 0.96686(13) 0.99206(15)
C19_4 C 0.69659(12) 0.99307(18) 0.9168(2)
O8_4 O 0.97383(8) 0.89714(10) 0.91632(12)
H26_4 H 0.9842 0.9210 0.8626
H1_3 H 0.0085 0.0931 0.4603
H25_3 H 0.9915 0.9069 0.5397
H25_4 H 0.0085 0.9069 0.9603
H1_4 H 0.9915 0.0931 0.0397
loop_
_geom_bond_atom_site_label_1
_geom_bond_atom_site_label_2
_geom_bond_site_symmetry_1
_geom_bond_site_symmetry_2
Cd1 O1 1_555 1_555
S1 C4 1_555 1_555
O1 C1 1_555 1_555
O2 Cd1 1_555 1_555
O3 Cd1 1_555 1_555
H1 O3 1_555 1_555
H2 O3 1_555 1_555
O4 C6 1_555 1_555
O5 C6 1_555 1_555
N1 Cd1 1_555 1_555
N2 Cd1 1_555 1_555
C1 O2 1_555 1_555
C2 C1 1_555 1_555
C3 C2 1_555 1_555
C4 C3 1_555 1_555
H3 C4 1_555 1_555
C5 S1 1_555 1_555
H4 C5 1_555 1_555
C6 C3 1_555 1_555
C7 N1 1_555 1_555
H5 C7 1_555 1_555
C8 C7 1_555 1_555
H6 C8 1_555 1_555
C9 C8 1_555 1_555
C10 C9 1_555 1_555
H7 C10 1_555 1_555
C11 N1 1_555 1_555
H8 C11 1_555 1_555
C12 C9 1_555 1_555
H9 C12 1_555 1_555
C13 N2 1_555 1_555
H10 C13 1_555 1_555
C14 C13 1_555 1_555
H11 C14 1_555 1_555
C15 C14 1_555 1_555
C16 C15 1_555 1_555
H12 C16 1_555 1_555
C17 N2 1_555 1_555
H13 C17 1_555 1_555
C18 C15 1_555 1_555
H14 C18 1_555 1_555
O12 Cd1 1_555 1_555
O14 Cd1 1_555 1_555
C2 C5 1_555 1_555
C10 C11 1_555 1_555
C16 C17 1_555 1_555
N4 C25 1_555 1_555
C25 H20 1_555 1_555
C26 C25 1_555 1_555
H21 C26 1_555 1_555
C27 C26 1_555 1_555
C28 C27 1_555 1_555
H22 C28 1_555 1_555
C29 N4 1_555 1_555
H23 C29 1_555 1_555
H24 C30 1_555 1_555
Cd5 N4 1_555 1_555
C27 C30 1_555 1_555
C28 C29 1_555 1_555
C22 C21 1_555 1_555
H17 C22 1_555 1_555
H18 C23 1_555 1_555
H19 C24 1_555 1_555
C21 C24 1_555 1_555
C22 C23 1_555 1_555
N3 C19 1_555 1_555
C19 H15 1_555 1_555
C20 C19 1_555 1_555
H16 C20 1_555 1_555
Cd4 N3 1_555 1_555
S2 C34 1_555 1_555
O6 Cd4 1_555 1_555
O7 Cd4 1_555 1_555
O8 Cd4 1_555 1_555
H25 O8 1_555 1_555
H26 O8 1_555 1_555
O12 C36 1_555 1_555
O14 C36 1_555 1_555
C31 O6 1_555 1_555
C32 C31 1_555 1_555
C33 C32 1_555 1_555
C34 C33 1_555 1_555
H27 C34 1_555 1_555
C35 S2 1_555 1_555
H28 C35 1_555 1_555
C36 C33 1_555 1_555
N5 Cd4 1_555 1_555
O7 C31 1_555 1_555
C32 C35 1_555 1_555
S1_2 C4_2 1_555 1_555
O1_2 C1_2 1_555 1_555
O4_2 C6_2 1_555 1_555
O5_2 C6_2 1_555 1_555
C1_2 O2_2 1_555 1_555
C2_2 C1_2 1_555 1_555
C3_2 C2_2 1_555 1_555
C4_2 C3_2 1_555 1_555
H3_2 C4_2 1_555 1_555
C5_2 S1_2 1_555 1_555
H4_2 C5_2 1_555 1_555
C6_2 C3_2 1_555 1_555
H6_2 C8_2 1_555 1_555
N3_2 C19_2 1_555 1_555
C22_2 C21_2 1_555 1_555
H17_2 C22_2 1_555 1_555
C23_2 N3_2 1_555 1_555
H18_2 C23_2 1_555 1_555
H19_2 C24_2 1_555 1_555
Cd5 N3_2 1_555 1_555
O8_2 Cd5 1_555 1_555
H26_2 O8_2 1_555 1_555
O11 Cd5 1_555 1_555
O13 Cd5 1_555 1_555
C2_2 C5_2 1_555 1_555
C21_2 C24_2 1_555 1_555
C22_2 C23_2 1_555 1_555
O3_2 Cd3 1_555 1_555
H2_2 O3_2 1_555 1_555
N1_2 Cd3 1_555 1_555
N2_2 Cd3 1_555 1_555
C7_2 N1_2 1_555 1_555
C13_2 N2_2 1_555 1_555
H10_2 C13_2 1_555 1_555
C14_2 C13_2 1_555 1_555
H11_2 C14_2 1_555 1_555
C15_2 C14_2 1_555 1_555
C16_2 C15_2 1_555 1_555
H12_2 C16_2 1_555 1_555
C17_2 N2_2 1_555 1_555
H13_2 C17_2 1_555 1_555
C18_2 C15_2 1_555 1_555
H14_2 C18_2 1_555 1_555
N5 C25_2 1_555 1_555
C25_2 H20_2 1_555 1_555
C26_2 C25_2 1_555 1_555
H21_2 C26_2 1_555 1_555
C27_2 C26_2 1_555 1_555
C28_2 C27_2 1_555 1_555
H22_2 C28_2 1_555 1_555
C29_2 N5 1_555 1_555
H23_2 C29_2 1_555 1_555
C30_2 C18_2 1_555 1_555
H24_2 C30_2 1_555 1_555
C16_2 C17_2 1_555 1_555
C27_2 C30_2 1_555 1_555
C28_2 C29_2 1_555 1_555
S1_3 C4_3 1_555 1_555
O1_3 C1_3 1_555 1_555
O11 C6_3 1_555 1_555
O13 C6_3 1_555 1_555
C1_3 O2_3 1_555 1_555
C2_3 C1_3 1_555 1_555
C3_3 C2_3 1_555 1_555
C4_3 C3_3 1_555 1_555
H3_3 C4_3 1_555 1_555
C5_3 S1_3 1_555 1_555
H4_3 C5_3 1_555 1_555
C6_3 C3_3 1_555 1_555
H6_3 C8_3 1_555 1_555
C22_3 C21_3 1_555 1_555
H17_3 C22_3 1_555 1_555
H18_3 C23_3 1_555 1_555
H19_3 C24_3 1_555 1_555
C2_3 C5_3 1_555 1_555
C21_3 C24_3 1_555 1_555
C22_3 C23_3 1_555 1_555
N3_3 C19_3 1_555 1_555
C19_3 H15_2 1_555 1_555
C20_2 C19_3 1_555 1_555
H16_2 C20_2 1_555 1_555
C21_4 C20_2 1_555 1_555
C22_4 C21_4 1_555 1_555
H17_4 C22_4 1_555 1_555
C23_4 N3_3 1_555 1_555
H18_4 C23_4 1_555 1_555
H19_4 C24_4 1_555 1_555
Cd2 N3_3 1_555 1_555
S2_2 C34_2 1_555 1_555
O6_2 Cd2 1_555 1_555
O7_2 Cd2 1_555 1_555
O8_3 Cd2 1_555 1_555
H25_2 O8_3 1_555 1_555
H26_3 O8_3 1_555 1_555
O9 C36_2 1_555 1_555
O10 C36_2 1_555 1_555
C31_2 O6_2 1_555 1_555
C32_2 C31_2 1_555 1_555
C33_2 C32_2 1_555 1_555
C34_2 C33_2 1_555 1_555
H27_2 C34_2 1_555 1_555
C35_2 S2_2 1_555 1_555
H28_2 C35_2 1_555 1_555
C36_2 C33_2 1_555 1_555
O11_2 Cd2 1_555 1_555
O13_2 Cd2 1_555 1_555
N5_2 Cd2 1_555 1_555
C21_4 C24_4 1_555 1_555
C22_4 C23_4 1_555 1_555
O7_2 C31_2 1_555 1_555
C32_2 C35_2 1_555 1_555
Cd3_2 O1_4 1_555 1_555
S1_4 C4_4 1_555 1_555
O1_4 C1_4 1_555 1_555
O2_4 Cd3_2 1_555 1_555
O3_3 Cd3_2 1_555 1_555
H1_2 O3_3 1_555 1_555
H2_3 O3_3 1_555 1_555
O11_2 C6_4 1_555 1_555
O13_2 C6_4 1_555 1_555
N1_3 Cd3_2 1_555 1_555
N2_3 Cd3_2 1_555 1_555
C1_4 O2_4 1_555 1_555
C2_4 C1_4 1_555 1_555
C3_4 C2_4 1_555 1_555
C4_4 C3_4 1_555 1_555
H3_4 C4_4 1_555 1_555
C5_4 S1_4 1_555 1_555
H4_4 C5_4 1_555 1_555
C6_4 C3_4 1_555 1_555
C7_3 N1_3 1_555 1_555
H5_4 C7_3 1_555 1_555
C8_4 C7_3 1_555 1_555
H6_4 C8_4 1_555 1_555
C13_3 N2_3 1_555 1_555
H10_3 C13_3 1_555 1_555
C14_3 C13_3 1_555 1_555
H11_3 C14_3 1_555 1_555
C15_3 C14_3 1_555 1_555
C16_3 C15_3 1_555 1_555
H12_3 C16_3 1_555 1_555
C17_3 N2_3 1_555 1_555
H13_3 C17_3 1_555 1_555
C18_3 C15_3 1_555 1_555
H14_3 C18_3 1_555 1_555
N4_2 C25_3 1_555 1_555
C25_3 H20_3 1_555 1_555
C26_3 C25_3 1_555 1_555
H21_3 C26_3 1_555 1_555
C27_3 C26_3 1_555 1_555
C28_3 C27_3 1_555 1_555
H22_3 C28_3 1_555 1_555
C29_3 N4_2 1_555 1_555
H23_3 C29_3 1_555 1_555
C30_3 C18_3 1_555 1_555
H24_3 C30_3 1_555 1_555
Cd5_2 N4_2 1_555 1_555
C2_4 C5_4 1_555 1_555
C16_3 C17_3 1_555 1_555
C27_3 C30_3 1_555 1_555
C28_3 C29_3 1_555 1_555
C10_2 C9_2 1_555 1_555
H7_2 C10_2 1_555 1_555
H8_2 C11_2 1_555 1_555
C12_2 C9_2 1_555 1_555
H9_2 C12_2 1_555 1_555
C10_2 C11_2 1_555 1_555
O3_4 Cd1_2 1_555 1_555
H2_4 O3_4 1_555 1_555
N1_4 Cd1_2 1_555 1_555
N2_4 Cd1_2 1_555 1_555
C7_4 N1_4 1_555 1_555
C10_3 C9_3 1_555 1_555
H7_3 C10_3 1_555 1_555
C11_3 N1_4 1_555 1_555
H8_3 C11_3 1_555 1_555
C12_3 C9_3 1_555 1_555
H9_3 C12_3 1_555 1_555
C13_4 N2_4 1_555 1_555
H10_4 C13_4 1_555 1_555
C14_4 C13_4 1_555 1_555
H11_4 C14_4 1_555 1_555
C15_4 C14_4 1_555 1_555
C16_4 C15_4 1_555 1_555
H12_4 C16_4 1_555 1_555
C17_4 N2_4 1_555 1_555
H13_4 C17_4 1_555 1_555
C18_4 C15_4 1_555 1_555
H14_4 C18_4 1_555 1_555
H16_3 C20_3 1_555 1_555
S2_3 C34_3 1_555 1_555
O9_2 C36_3 1_555 1_555
O10_2 C36_3 1_555 1_555
C31_3 O6_3 1_555 1_555
C32_3 C31_3 1_555 1_555
C33_3 C32_3 1_555 1_555
C34_3 C33_3 1_555 1_555
H27_3 C34_3 1_555 1_555
C35_3 S2_3 1_555 1_555
H28_3 C35_3 1_555 1_555
C36_3 C33_3 1_555 1_555
O12_2 Cd1_2 1_555 1_555
O14_2 Cd1_2 1_555 1_555
C10_3 C11_3 1_555 1_555
C16_4 C17_4 1_555 1_555
O7_3 C31_3 1_555 1_555
C32_3 C35_3 1_555 1_555
N5_2 C25_4 1_555 1_555
C25_4 H20_4 1_555 1_555
C26_4 C25_4 1_555 1_555
H21_4 C26_4 1_555 1_555
C27_4 C26_4 1_555 1_555
C28_4 C27_4 1_555 1_555
H22_4 C28_4 1_555 1_555
C29_4 N5_2 1_555 1_555
H23_4 C29_4 1_555 1_555
H24_4 C30_4 1_555 1_555
C27_4 C30_4 1_555 1_555
C28_4 C29_4 1_555 1_555
C10_4 C9_4 1_555 1_555
H7_4 C10_4 1_555 1_555
H8_4 C11_4 1_555 1_555
C12_4 C9_4 1_555 1_555
H9_4 C12_4 1_555 1_555
H16_4 C20_4 1_555 1_555
S2_4 C34_4 1_555 1_555
O12_2 C36_4 1_555 1_555
O14_2 C36_4 1_555 1_555
C31_4 O6_4 1_555 1_555
C32_4 C31_4 1_555 1_555
C33_4 C32_4 1_555 1_555
C34_4 C33_4 1_555 1_555
H27_4 C34_4 1_555 1_555
C35_4 S2_4 1_555 1_555
H28_4 C35_4 1_555 1_555
C36_4 C33_4 1_555 1_555
C10_4 C11_4 1_555 1_555
O7_4 C31_4 1_555 1_555
C32_4 C35_4 1_555 1_555
N3_4 C19_4 1_555 1_555
Cd5_2 N3_4 1_555 1_555
O8_4 Cd5_2 1_555 1_555
H26_4 O8_4 1_555 1_555

#END
