
###############################################################################
#
# This file contains modified crystal structure data generated from the
# MOF subset of the Cambridge Structural Database (CSD) v543 
# hosted by the Cambridge Crystallographic Data Centre (CCDC).
#
# This work is licensed under the Creative Commons
# Attribution-NonCommercial-ShareAlike 4.0 International License.
# To view a copy of this license, visit
# http://creativecommons.org/licenses/by-nc-sa/4.0/
# or send a letter to
# Creative Commons, PO Box 1866, Mountain View, CA 94042, USA.
#
# CIF created using the CSD Python API on 29 September 2022
# The structure has been converted into the P1 space group
# The structure has a 3D framework
# The original CSD entry KEVKAA is in the monoclinic crystal system
# The framework has been calculated to contain at least 10.0% void space
# The void calculation uses a probe of radius 1.32A, grid spacing 0.4
# H atom positions have been added when not included in the experimental data
#
###############################################################################

data_KEVKAA
_chemical_formula_moiety         '(C240 H128 Cd2 N16 O93)n'
_symmetry_cell_setting           triclinic
_symmetry_space_group_name_H-M   'P 1'
_symmetry_Int_Tables_number      1
_space_group_name_Hall           'P 1'
loop_
_symmetry_equiv_pos_site_id
_symmetry_equiv_pos_as_xyz
1 x,y,z
_cell_length_a                   18.5534(2)
_cell_length_b                   22.8539(3)
_cell_length_c                   20.0964(3)
_cell_angle_alpha                90
_cell_angle_beta                 107.3541(15)
_cell_angle_gamma                90
_cell_volume                     8133.34
loop_
_atom_site_label
_atom_site_type_symbol
_atom_site_fract_x
_atom_site_fract_y
_atom_site_fract_z
O13 O 0.21516(14) 0.61862(14) 0.03906(14)
O18 O 0.09179(14) 0.72039(12) 0.19448(12)
C36 C 0.02777(19) 0.69752(15) 0.07681(18)
C37 C 0.09104(17) 0.67080(15) 0.06617(16)
H13 H 0.1335 0.6636 0.1039
C45 C 0.02985(19) 0.71897(15) 0.14842(18)
Cd3 Cd 0.0000 0.79322(2) 0.2500
H26 H 0.0887775 0.697041 0.235237
O2 O 0.65514(17) 0.88380(14) 0.92486(14)
O3 O 0.36679(18) 0.88639(13) 0.87693(17)
O4 O 0.44097(19) 0.69657(14) 0.90974(18)
N1 N 0.40172(18) 0.79106(13) 0.89486(16)
C1 C 0.6603(2) 0.87244(16) 0.99021(18)
C2 C 0.59074(18) 0.84500(15) 0.99966(17)
C3 C 0.5274(2) 0.83368(16) 0.94257(17)
H1 H 0.5272 0.8437 0.8977
C4 C 0.4651(2) 0.80730(17) 0.95403(18)
C8 C 0.3540(2) 0.83581(16) 0.8594(2)
C9 C 0.2892(2) 0.81780(17) 0.7990(2)
C10 C 0.28057(19) 0.75818(16) 0.77899(18)
C11 C 0.3304(2) 0.71505(16) 0.8161(2)
C12 C 0.3957(2) 0.73189(17) 0.8766(2)
C13 C 0.2396(3) 0.85894(18) 0.7634(3)
H4 H 0.2454 0.8978 0.7778
C14 C 0.3207(3) 0.65713(19) 0.7953(3)
H5 H 0.3539 0.6288 0.8200
C28 C 0.1171(2) 0.47597(18) 0.9668(2)
H9 H 0.1662 0.4701 0.9653
O15 O 0.13321(18) 0.61361(13) 0.62307(17)
O16 O 0.05903(19) 0.80343(14) 0.59026(18)
O17 O 0.03155(13) 0.73674(11) 0.34488(12)
N3 N 0.09828(18) 0.70894(13) 0.60514(16)
C34 C 0.0349(2) 0.69270(17) 0.54597(18)
C35 C 0.0362(2) 0.70753(15) 0.48009(19)
H12 H 0.0793 0.7241 0.4734
C38 C 0.1460(2) 0.66419(16) 0.6406(2)
C39 C 0.2108(2) 0.68220(17) 0.7010(2)
C40 C 0.21943(19) 0.74182(16) 0.72101(18)
C41 C 0.1696(2) 0.78495(16) 0.6839(2)
C42 C 0.1043(2) 0.76811(17) 0.6234(2)
C43 C 0.2604(3) 0.64106(18) 0.7366(3)
H14 H 0.2546 0.6022 0.7222
C44 C 0.1793(3) 0.84287(19) 0.7047(3)
H15 H 0.1461 0.8712 0.6800
C59 C 0.0561(2) 0.46619(18) 0.9067(2)
H20 H 0.0649 0.4542 0.8656
H22 H 0.694164 0.861214 0.911126
O9 O 0.8343(4) 0.9995(3) 0.9501(2)
O10 O 0.7531(2) 0.93636(18) 0.88812(19)
O11 O 0.73438(13) 0.99191(13) 0.59317(15)
H7 H 0.6886 0.9778 0.7712
C24 C 0.60511(18) 0.99411(15) 0.5278(2)
C28_2 C 0.6171(2) 0.97597(18) 0.4668(2)
H9_2 H 0.6662 0.9701 0.4653
C30 C 0.7917(3) 0.9820(2) 0.8948(3)
O19 O 0.05095(13) 0.86277(12) 0.18786(14)
O20 O 0.12278(12) 0.83454(11) 0.29126(12)
O24 O 0.42773(15) 0.94269(15) 0.29204(15)
N4 N 0.34695(15) 0.97302(12) 0.35087(16)
C46 C 0.11002(17) 0.86544(13) 0.23750(17)
C47 C 0.16961(17) 0.90962(14) 0.23381(17)
C48 C 0.23160(17) 0.91869(14) 0.29158(17)
H16 H 0.2382 0.8962 0.3316
C49 C 0.28358(17) 0.96127(14) 0.28942(18)
C50 C 0.2759(2) 0.99372(16) 0.2296(2)
C51 C 0.2153(2) 0.98379(18) 0.1709(2)
C52 C 0.1612(2) 0.94137(17) 0.1734(2)
H18 H 0.1198 0.9347 0.1345
C53 C 0.33017(18) 0.99663(15) 0.4088(2)
C55 C 0.46924(17) 0.99491(14) 0.46982(18)
C56 C 0.48290(19) 0.97430(16) 0.4086(2)
C57 C 0.41884(19) 0.96175(17) 0.3456(2)
C59_2 C 0.5561(2) 0.96619(18) 0.4067(2)
H20_2 H 0.5649 0.9542 0.3656
H24 H 0.718426 0.939206 0.917269
H23 H 0.104738 0.761537 0.209081
H21 H 0.663115 0.926289 0.919476
H25 H 0.787047 0.902161 0.903309
C29 C 0.0561(2) 0.53381(18) 0.4067(2)
H10 H 0.0649 0.5458 0.3656
O14 O 0.15514(17) 0.61620(14) 0.92486(14)
C31 C 0.1603(2) 0.62756(16) 0.99021(18)
C32 C 0.09074(18) 0.65500(15) 0.99966(17)
C33 C 0.0274(2) 0.66632(16) 0.94257(17)
H11 H 0.0272 0.6563 0.8977
O19_2 O 0.44905(13) 0.36277(12) 0.81214(14)
O20_2 O 0.37722(12) 0.33454(11) 0.70874(12)
O21 O 0.3343(4) 0.5005(3) 0.9501(2)
O22 O 0.2531(2) 0.56364(18) 0.88812(19)
O23 O 0.23438(13) 0.50809(13) 0.59317(15)
O24_2 O 0.07227(15) 0.44269(15) 0.70796(15)
N4_2 N 0.15305(15) 0.47302(12) 0.64913(16)
C46_2 C 0.38998(17) 0.36544(13) 0.76250(17)
C47_2 C 0.33039(17) 0.40962(14) 0.76619(17)
C48_2 C 0.26840(17) 0.41869(14) 0.70842(17)
H16_2 H 0.2618 0.3962 0.6684
C49_2 C 0.21642(17) 0.46127(14) 0.71058(18)
C50_2 C 0.2241(2) 0.49372(16) 0.7704(2)
H17 H 0.1886 0.5222 0.7712
C51_2 C 0.2847(2) 0.48379(18) 0.8291(2)
C52_2 C 0.3388(2) 0.44137(17) 0.8266(2)
H18_2 H 0.3802 0.4347 0.8655
C53_2 C 0.16983(18) 0.49663(15) 0.5912(2)
C54 C 0.10511(18) 0.50589(15) 0.5278(2)
C55_2 C 0.03076(17) 0.49491(14) 0.53018(18)
C56_2 C 0.01710(19) 0.47430(16) 0.5914(2)
C57_2 C 0.08116(19) 0.46175(17) 0.6544(2)
C58 C 0.1171(2) 0.52403(18) 0.4668(2)
H19 H 0.1662 0.5299 0.4653
C60 C 0.2917(3) 0.5180(2) 0.8948(3)
Cd2 Cd 0.5000 0.29322(2) 0.7500
H21_2 H 0.163115 0.573711 0.919476
H25_2 H 0.287047 0.597839 0.903309
O17_2 O 0.96845(13) 0.73674(11) 0.15512(12)
C35_2 C 0.9638(2) 0.70753(15) 0.01991(19)
H12_2 H 0.9207 0.7241 0.0266
Cd3_2 Cd 1.0000 0.79322(2) 0.2500
O13_2 O 0.78484(14) 0.61862(14) 0.46094(14)
O14_2 O 0.84486(17) 0.61620(14) 0.57514(14)
O18_2 O 0.90821(14) 0.72039(12) 0.30552(12)
C31_2 C 0.8397(2) 0.62756(16) 0.50979(18)
C32_2 C 0.90926(18) 0.65500(15) 0.50034(17)
C33_2 C 0.9726(2) 0.66632(16) 0.55743(17)
H11_2 H 0.9728 0.6563 0.6023
C36_2 C 0.97223(19) 0.69752(15) 0.42319(18)
C37_2 C 0.90896(17) 0.67080(15) 0.43383(16)
H13_2 H 0.8665 0.6636 0.3961
C45_2 C 0.97015(19) 0.71897(15) 0.35158(18)
O19_3 O 0.55095(13) 0.36277(12) 0.68786(14)
O20_3 O 0.62278(12) 0.33454(11) 0.79126(12)
O21_2 O 0.6657(4) 0.5005(3) 0.5499(2)
O22_2 O 0.7469(2) 0.56364(18) 0.61188(19)
O23_2 O 0.76562(13) 0.50809(13) 0.90683(15)
O24_3 O 0.92773(15) 0.44269(15) 0.79204(15)
N4_3 N 0.84695(15) 0.47302(12) 0.85087(16)
C46_3 C 0.61002(17) 0.36544(13) 0.73750(17)
C47_3 C 0.66961(17) 0.40962(14) 0.73381(17)
C48_3 C 0.73160(17) 0.41869(14) 0.79158(17)
H16_3 H 0.7382 0.3962 0.8316
C49_3 C 0.78358(17) 0.46127(14) 0.78942(18)
C50_3 C 0.7759(2) 0.49372(16) 0.7296(2)
H17_2 H 0.8114 0.5222 0.7288
C51_3 C 0.7153(2) 0.48379(18) 0.6709(2)
C52_3 C 0.6612(2) 0.44137(17) 0.6734(2)
H18_3 H 0.6198 0.4347 0.6345
C53_3 C 0.83017(18) 0.49663(15) 0.9088(2)
C54_2 C 0.89489(18) 0.50589(15) 0.9722(2)
C55_3 C 0.96924(17) 0.49491(14) 0.96982(18)
C56_3 C 0.98290(19) 0.47430(16) 0.9086(2)
C57_3 C 0.91884(19) 0.46175(17) 0.8456(2)
C60_2 C 0.7083(3) 0.5180(2) 0.6052(3)
H21_3 H 0.836885 0.573711 0.580524
H25_3 H 0.712953 0.597839 0.596691
H26_2 H 0.911223 0.697041 0.264763
O3_2 O 0.13321(18) 0.38639(13) 0.12307(17)
O4_2 O 0.05903(19) 0.19657(14) 0.09026(18)
N1_2 N 0.09828(18) 0.29106(13) 0.10514(16)
C4_2 C 0.0349(2) 0.30730(17) 0.04597(18)
C8_2 C 0.1460(2) 0.33581(16) 0.1406(2)
C9_2 C 0.2108(2) 0.31780(17) 0.2010(2)
C10_2 C 0.21943(19) 0.25818(16) 0.22101(18)
C11_2 C 0.1696(2) 0.21505(16) 0.1839(2)
C12_2 C 0.1043(2) 0.23189(17) 0.1234(2)
C13_2 C 0.2604(3) 0.35894(18) 0.2366(3)
H4_2 H 0.2546 0.3978 0.2222
C14_2 C 0.1793(3) 0.15713(19) 0.2047(3)
H5_2 H 0.1461 0.1288 0.1800
O13_3 O 0.71516(14) 0.11862(14) 0.53906(14)
O14_3 O 0.65514(17) 0.11620(14) 0.42486(14)
O15_2 O 0.36679(18) 0.11361(13) 0.37693(17)
O16_2 O 0.44097(19) 0.30343(14) 0.40974(18)
O17_3 O 0.46845(13) 0.23674(11) 0.65512(12)
O18_3 O 0.59179(14) 0.22039(12) 0.69448(12)
N3_2 N 0.40172(18) 0.20894(13) 0.39486(16)
C31_3 C 0.6603(2) 0.12756(16) 0.49021(18)
C32_3 C 0.59074(18) 0.15500(15) 0.49966(17)
C33_3 C 0.5274(2) 0.16632(16) 0.44257(17)
H11_3 H 0.5272 0.1563 0.3977
C34_2 C 0.4651(2) 0.19270(17) 0.45403(18)
C35_3 C 0.4638(2) 0.20753(15) 0.51991(19)
H12_3 H 0.4207 0.2241 0.5266
C36_3 C 0.52777(19) 0.19752(15) 0.57681(18)
C37_3 C 0.59104(17) 0.17080(15) 0.56617(16)
H13_3 H 0.6335 0.1636 0.6039
C38_2 C 0.3540(2) 0.16419(16) 0.3594(2)
C39_2 C 0.2892(2) 0.18220(17) 0.2990(2)
C40_2 C 0.28057(19) 0.24182(16) 0.27899(18)
C41_2 C 0.3304(2) 0.28495(16) 0.3161(2)
C42_2 C 0.3957(2) 0.26811(17) 0.3766(2)
C43_2 C 0.2396(3) 0.14106(18) 0.2634(3)
H14_2 H 0.2454 0.1022 0.2778
C44_2 C 0.3207(3) 0.34287(19) 0.2953(3)
H15_2 H 0.3539 0.3712 0.3200
C45_3 C 0.52985(19) 0.21897(15) 0.64842(18)
O21_3 O 0.8343(4) 0.0005(3) 0.4501(2)
O22_3 O 0.7531(2) 0.06364(18) 0.38812(19)
O23_3 O 0.73438(13) 0.00809(13) 0.09317(15)
H17_3 H 0.6886 0.0222 0.2712
C54_3 C 0.60511(18) 0.00589(15) 0.0278(2)
C60_3 C 0.7917(3) 0.0180(2) 0.3948(3)
H21_4 H 0.663115 0.0737114 0.419476
H25_4 H 0.787047 0.0978392 0.403309
H26_3 H 0.588777 0.197041 0.735237
C28_3 C 0.3829(2) 0.97597(18) 0.0332(2)
H9_3 H 0.3338 0.9701 0.0347
O19_4 O 0.94905(13) 0.86277(12) 0.31214(14)
O20_4 O 0.87722(12) 0.83454(11) 0.20874(12)
O24_4 O 0.57227(15) 0.94269(15) 0.20796(15)
N4_4 N 0.65305(15) 0.97302(12) 0.14913(16)
C46_4 C 0.88998(17) 0.86544(13) 0.26250(17)
C47_4 C 0.83039(17) 0.90962(14) 0.26619(17)
C48_4 C 0.76840(17) 0.91869(14) 0.20842(17)
H16_4 H 0.7618 0.8962 0.1684
C49_4 C 0.71642(17) 0.96127(14) 0.21058(18)
C50_4 C 0.7241(2) 0.99372(16) 0.2704(2)
C51_4 C 0.7847(2) 0.98379(18) 0.3291(2)
C52_4 C 0.8388(2) 0.94137(17) 0.3266(2)
H18_4 H 0.8802 0.9347 0.3655
C53_4 C 0.66983(18) 0.99663(15) 0.0912(2)
C55_4 C 0.53076(17) 0.99491(14) 0.03018(18)
C56_4 C 0.51710(19) 0.97430(16) 0.0914(2)
C57_4 C 0.58116(19) 0.96175(17) 0.1544(2)
C59_3 C 0.4439(2) 0.96619(18) 0.0933(2)
H20_3 H 0.4351 0.9542 0.1344
O13_4 O 0.28484(14) 0.11862(14) 0.96094(14)
O17_4 O 0.53155(13) 0.23674(11) 0.84488(12)
O18_4 O 0.40821(14) 0.22039(12) 0.80552(12)
C35_4 C 0.5362(2) 0.20753(15) 0.98009(19)
H12_4 H 0.5793 0.2241 0.9734
C36_4 C 0.47223(19) 0.19752(15) 0.92319(18)
C37_4 C 0.40896(17) 0.17080(15) 0.93383(16)
H13_4 H 0.3665 0.1636 0.8961
C45_4 C 0.47015(19) 0.21897(15) 0.85158(18)
H26_4 H 0.411223 0.197041 0.764763
H22_2 H 0.694164 0.138786 0.411126
H23_2 H 0.604738 0.261537 0.709081
H24_2 H 0.218426 0.560794 0.917269
H23_3 H 0.395262 0.261537 0.790919
H24_3 H 0.781574 0.560794 0.582731
H22_3 H 0.194164 0.638786 0.911126
H24_4 H 0.718426 0.0607943 0.417269
H22_4 H 0.805836 0.638786 0.588874
H23_4 H 0.895262 0.761537 0.290919
Cd1 Cd 0.5000 0.70678(2) 0.2500
O1 O 0.28484(14) 0.88138(14) 0.46094(14)
O2_2 O 0.34486(17) 0.88380(14) 0.57514(14)
O3_3 O 0.63321(18) 0.88639(13) 0.62307(17)
O4_3 O 0.55903(19) 0.69657(14) 0.59026(18)
O5 O 0.53155(13) 0.76326(11) 0.34488(12)
O6 O 0.40821(14) 0.77961(12) 0.30552(12)
O7 O 0.55095(13) 0.63723(12) 0.18786(14)
O8 O 0.62278(12) 0.66546(11) 0.29126(12)
O9_2 O 0.6657(4) 0.4995(3) 0.0499(2)
O10_2 O 0.7469(2) 0.43636(18) 0.11188(19)
O11_2 O 0.76562(13) 0.49191(13) 0.40683(15)
O12 O 0.92773(15) 0.55731(15) 0.29204(15)
N1_3 N 0.59828(18) 0.79106(13) 0.60514(16)
N2 N 0.84695(15) 0.52698(12) 0.35087(16)
C1_2 C 0.3397(2) 0.87244(16) 0.50979(18)
C2_2 C 0.40926(18) 0.84500(15) 0.50034(17)
C3_2 C 0.4726(2) 0.83368(16) 0.55743(17)
H1_2 H 0.4728 0.8437 0.6023
C4_3 C 0.5349(2) 0.80730(17) 0.54597(18)
C5 C 0.5362(2) 0.79247(15) 0.48009(19)
H2 H 0.5793 0.7759 0.4734
C6 C 0.47223(19) 0.80248(15) 0.42319(18)
C7 C 0.40896(17) 0.82920(15) 0.43383(16)
H3 H 0.3665 0.8364 0.3961
C8_3 C 0.6460(2) 0.83581(16) 0.6406(2)
C9_3 C 0.7108(2) 0.81780(17) 0.7010(2)
C10_3 C 0.71943(19) 0.75818(16) 0.72101(18)
C11_3 C 0.6696(2) 0.71505(16) 0.6839(2)
C12_3 C 0.6043(2) 0.73189(17) 0.6234(2)
C13_3 C 0.7604(3) 0.85894(18) 0.7366(3)
H4_3 H 0.7546 0.8978 0.7222
C14_3 C 0.6793(3) 0.65713(19) 0.7047(3)
H5_3 H 0.6461 0.6288 0.6800
C15 C 0.47015(19) 0.78103(15) 0.35158(18)
C16 C 0.61002(17) 0.63456(13) 0.23750(17)
C17 C 0.66961(17) 0.59038(14) 0.23381(17)
C18 C 0.73160(17) 0.58131(14) 0.29158(17)
H6 H 0.7382 0.6038 0.3316
C19 C 0.78358(17) 0.53873(14) 0.28942(18)
C20 C 0.7759(2) 0.50628(16) 0.2296(2)
H7_2 H 0.8114 0.4778 0.2288
C21 C 0.7153(2) 0.51621(18) 0.1709(2)
C22 C 0.6612(2) 0.55863(17) 0.1734(2)
H8 H 0.6198 0.5653 0.1345
C23 C 0.83017(18) 0.50337(15) 0.4088(2)
C24_2 C 0.89489(18) 0.49411(15) 0.4722(2)
C25 C 0.96924(17) 0.50509(14) 0.46982(18)
C26 C 0.98290(19) 0.52570(16) 0.4086(2)
C27 C 0.91884(19) 0.53825(17) 0.3456(2)
C28_4 C 0.8829(2) 0.47597(18) 0.5332(2)
H9_4 H 0.8338 0.4701 0.5347
C30_2 C 0.7083(3) 0.4820(2) 0.1052(3)
O15_3 O 0.86679(18) 0.61361(13) 0.87693(17)
O16_3 O 0.94097(19) 0.80343(14) 0.90974(18)
N3_3 N 0.90172(18) 0.70894(13) 0.89486(16)
C34_3 C 0.9651(2) 0.69270(17) 0.95403(18)
C38_3 C 0.8540(2) 0.66419(16) 0.8594(2)
C39_3 C 0.7892(2) 0.68220(17) 0.7990(2)
C40_3 C 0.78057(19) 0.74182(16) 0.77899(18)
C41_3 C 0.8304(2) 0.78495(16) 0.8161(2)
C42_3 C 0.8957(2) 0.76811(17) 0.8766(2)
C43_3 C 0.7396(3) 0.64106(18) 0.7634(3)
H14_3 H 0.7454 0.6022 0.7778
C44_3 C 0.8207(3) 0.84287(19) 0.7953(3)
H15_3 H 0.8539 0.8712 0.8200
C59_4 C 0.9439(2) 0.46619(18) 0.5933(2)
H20_4 H 0.9351 0.4542 0.6344
O25 O 0.46845(13) 0.76326(11) 0.15512(12)
O26 O 0.44905(13) 0.63723(12) 0.31214(14)
O27 O 0.37722(12) 0.66546(11) 0.20874(12)
H22_5 H 0.305836 0.861214 0.588874
H23_5 H 0.395262 0.738463 0.290919
H24_5 H 0.781574 0.439206 0.0827311
O1_2 O 0.71516(14) 0.88138(14) 0.03906(14)
O6_2 O 0.59179(14) 0.77961(12) 0.19448(12)
O9_3 O 0.3343(4) 0.4995(3) 0.4501(2)
O10_3 O 0.2531(2) 0.43636(18) 0.38812(19)
O11_3 O 0.23438(13) 0.49191(13) 0.09317(15)
O12_2 O 0.07227(15) 0.55731(15) 0.20796(15)
N2_2 N 0.15305(15) 0.52698(12) 0.14913(16)
C5_2 C 0.4638(2) 0.79247(15) 0.01991(19)
H2_2 H 0.4207 0.7759 0.0266
C6_2 C 0.52777(19) 0.80248(15) 0.07681(18)
C7_2 C 0.59104(17) 0.82920(15) 0.06617(16)
H3_2 H 0.6335 0.8364 0.1039
C15_2 C 0.52985(19) 0.78103(15) 0.14842(18)
C16_2 C 0.38998(17) 0.63456(13) 0.26250(17)
C17_2 C 0.33039(17) 0.59038(14) 0.26619(17)
C18_2 C 0.26840(17) 0.58131(14) 0.20842(17)
H6_2 H 0.2618 0.6038 0.1684
C19_2 C 0.21642(17) 0.53873(14) 0.21058(18)
C20_2 C 0.2241(2) 0.50628(16) 0.2704(2)
H7_3 H 0.1886 0.4778 0.2712
C21_2 C 0.2847(2) 0.51621(18) 0.3291(2)
C22_2 C 0.3388(2) 0.55863(17) 0.3266(2)
H8_2 H 0.3802 0.5653 0.3655
C23_2 C 0.16983(18) 0.50337(15) 0.0912(2)
C24_3 C 0.10511(18) 0.49411(15) 0.0278(2)
C25_2 C 0.03076(17) 0.50509(14) 0.03018(18)
C26_2 C 0.01710(19) 0.52570(16) 0.0914(2)
C27_2 C 0.08116(19) 0.53825(17) 0.1544(2)
C30_3 C 0.2917(3) 0.4820(2) 0.3948(3)
H23_6 H 0.604738 0.738463 0.209081
H24_6 H 0.218426 0.439206 0.417269
Cd1_2 Cd -0.0000 0.20678(2) 0.7500
O5_2 O 0.03155(13) 0.26326(11) 0.84488(12)
O7_2 O 0.05095(13) 0.13723(12) 0.68786(14)
O8_2 O 0.12278(12) 0.16546(11) 0.79126(12)
O12_3 O 0.42773(15) 0.05731(15) 0.79204(15)
N2_3 N 0.34695(15) 0.02698(12) 0.85087(16)
C5_3 C 0.0362(2) 0.29247(15) 0.98009(19)
H2_3 H 0.0793 0.2759 0.9734
C16_3 C 0.11002(17) 0.13456(13) 0.73750(17)
C17_3 C 0.16961(17) 0.09038(14) 0.73381(17)
C18_3 C 0.23160(17) 0.08131(14) 0.79158(17)
H6_3 H 0.2382 0.1038 0.8316
C19_3 C 0.28358(17) 0.03873(14) 0.78942(18)
C20_3 C 0.2759(2) 0.00628(16) 0.7296(2)
C21_3 C 0.2153(2) 0.01621(18) 0.6709(2)
C22_3 C 0.1612(2) 0.05863(17) 0.6734(2)
H8_3 H 0.1198 0.0653 0.6345
C23_3 C 0.33017(18) 0.00337(15) 0.9088(2)
C25_3 C 0.46924(17) 0.00509(14) 0.96982(18)
C26_3 C 0.48290(19) 0.02570(16) 0.9086(2)
C27_3 C 0.41884(19) 0.03825(17) 0.8456(2)
C29_2 C 0.5561(2) 0.03381(18) 0.9067(2)
H10_2 H 0.5649 0.0458 0.8656
C58_2 C 0.6171(2) 0.02403(18) 0.9668(2)
H19_2 H 0.6662 0.0299 0.9653
O9_4 O 0.1657(4) 0.9995(3) 0.5499(2)
O10_4 O 0.2469(2) 0.93636(18) 0.61188(19)
O11_4 O 0.26562(13) 0.99191(13) 0.90683(15)
H7_4 H 0.3114 0.9778 0.7288
C24_4 C 0.39489(18) 0.99411(15) 0.9722(2)
C30_4 C 0.2083(3) 0.9820(2) 0.6052(3)
H24_7 H 0.281574 0.939206 0.582731
O2_3 O 0.84486(17) 0.38380(14) 0.07514(14)
C1_3 C 0.8397(2) 0.37244(16) 0.00979(18)
C2_3 C 0.90926(18) 0.34500(15) 0.00034(17)
C3_3 C 0.9726(2) 0.33368(16) 0.05743(17)
H1_3 H 0.9728 0.3437 0.1023
H22_6 H 0.805836 0.361214 0.0888744
O1_3 O 0.21516(14) 0.38138(14) 0.53906(14)
O2_4 O 0.15514(17) 0.38380(14) 0.42486(14)
O6_3 O 0.09179(14) 0.27961(12) 0.69448(12)
C1_4 C 0.1603(2) 0.37244(16) 0.49021(18)
C2_4 C 0.09074(18) 0.34500(15) 0.49966(17)
C3_4 C 0.0274(2) 0.33368(16) 0.44257(17)
H1_4 H 0.0272 0.3437 0.3977
C6_3 C 0.02777(19) 0.30248(15) 0.57681(18)
C7_3 C 0.09104(17) 0.32920(15) 0.56617(16)
H3_3 H 0.1335 0.3364 0.6039
C15_3 C 0.02985(19) 0.28103(15) 0.64842(18)
H22_7 H 0.194164 0.361214 0.411126
H23_7 H 0.104738 0.238463 0.709081
H21_5 H 0.836885 0.426289 0.0805238
H25_5 H 0.712953 0.402161 0.096691
H21_6 H 0.163115 0.426289 0.419476
H25_6 H 0.287047 0.402161 0.403309
H26_5 H 0.0887775 0.302959 0.735237
H21_7 H 0.336885 0.926289 0.580524
H25_7 H 0.212953 0.902161 0.596691
H26_6 H 0.411223 0.802959 0.264763
H26_7 H 0.588777 0.802959 0.235237
C29_3 C 0.9439(2) 0.53381(18) 0.0933(2)
H10_3 H 0.9351 0.5458 0.1344
C58_3 C 0.8829(2) 0.52403(18) 0.0332(2)
H19_3 H 0.8338 0.5299 0.0347
Cd1_3 Cd 1.0000 0.20678(2) 0.7500
O1_4 O 0.78484(14) 0.38138(14) 0.96094(14)
O6_4 O 0.90821(14) 0.27961(12) 0.80552(12)
C6_4 C 0.97223(19) 0.30248(15) 0.92319(18)
C7_4 C 0.90896(17) 0.32920(15) 0.93383(16)
H3_4 H 0.8665 0.3364 0.8961
C15_4 C 0.97015(19) 0.28103(15) 0.85158(18)
O25_2 O 0.96845(13) 0.26326(11) 0.65512(12)
O26_2 O 0.94905(13) 0.13723(12) 0.81214(14)
O27_2 O 0.87722(12) 0.16546(11) 0.70874(12)
H23_8 H 0.895262 0.238463 0.790919
O3_4 O 0.86679(18) 0.38639(13) 0.37693(17)
O4_4 O 0.94097(19) 0.19657(14) 0.40974(18)
O12_4 O 0.57227(15) 0.05731(15) 0.70796(15)
N1_4 N 0.90172(18) 0.29106(13) 0.39486(16)
N2_4 N 0.65305(15) 0.02698(12) 0.64913(16)
C4_4 C 0.9651(2) 0.30730(17) 0.45403(18)
C5_4 C 0.9638(2) 0.29247(15) 0.51991(19)
H2_4 H 0.9207 0.2759 0.5266
C8_4 C 0.8540(2) 0.33581(16) 0.3594(2)
C9_4 C 0.7892(2) 0.31780(17) 0.2990(2)
C10_4 C 0.78057(19) 0.25818(16) 0.27899(18)
C11_4 C 0.8304(2) 0.21505(16) 0.3161(2)
C12_4 C 0.8957(2) 0.23189(17) 0.3766(2)
C13_4 C 0.7396(3) 0.35894(18) 0.2634(3)
H4_4 H 0.7454 0.3978 0.2778
C14_4 C 0.8207(3) 0.15713(19) 0.2953(3)
H5_4 H 0.8539 0.1288 0.3200
C16_4 C 0.88998(17) 0.13456(13) 0.76250(17)
C17_4 C 0.83039(17) 0.09038(14) 0.76619(17)
C18_4 C 0.76840(17) 0.08131(14) 0.70842(17)
H6_4 H 0.7618 0.1038 0.6684
C19_4 C 0.71642(17) 0.03873(14) 0.71058(18)
C20_4 C 0.7241(2) 0.00628(16) 0.7704(2)
C21_4 C 0.7847(2) 0.01621(18) 0.8291(2)
C22_4 C 0.8388(2) 0.05863(17) 0.8266(2)
H8_4 H 0.8802 0.0653 0.8655
C23_4 C 0.66983(18) 0.00337(15) 0.5912(2)
C25_4 C 0.53076(17) 0.00509(14) 0.53018(18)
C26_4 C 0.51710(19) 0.02570(16) 0.5914(2)
C27_4 C 0.58116(19) 0.03825(17) 0.6544(2)
C29_4 C 0.4439(2) 0.03381(18) 0.5933(2)
H10_4 H 0.4351 0.0458 0.6344
O14_4 O 0.34486(17) 0.11620(14) 0.07514(14)
O15_4 O 0.63321(18) 0.11361(13) 0.12307(17)
O16_4 O 0.55903(19) 0.30343(14) 0.09026(18)
N3_4 N 0.59828(18) 0.20894(13) 0.10514(16)
C31_4 C 0.3397(2) 0.12756(16) 0.00979(18)
C32_4 C 0.40926(18) 0.15500(15) 0.00034(17)
C33_4 C 0.4726(2) 0.16632(16) 0.05743(17)
H11_4 H 0.4728 0.1563 0.1023
C34_4 C 0.5349(2) 0.19270(17) 0.04597(18)
C38_4 C 0.6460(2) 0.16419(16) 0.1406(2)
C39_4 C 0.7108(2) 0.18220(17) 0.2010(2)
C40_4 C 0.71943(19) 0.24182(16) 0.22101(18)
C41_4 C 0.6696(2) 0.28495(16) 0.1839(2)
C42_4 C 0.6043(2) 0.26811(17) 0.1234(2)
C43_4 C 0.7604(3) 0.14106(18) 0.2366(3)
H14_4 H 0.7546 0.1022 0.2222
C44_4 C 0.6793(3) 0.34287(19) 0.2047(3)
H15_4 H 0.6461 0.3712 0.1800
O21_4 O 0.1657(4) 0.0005(3) 0.0499(2)
O22_4 O 0.2469(2) 0.06364(18) 0.11188(19)
O23_4 O 0.26562(13) 0.00809(13) 0.40683(15)
H17_4 H 0.3114 0.0222 0.2288
C54_4 C 0.39489(18) 0.00589(15) 0.4722(2)
C58_4 C 0.3829(2) 0.02403(18) 0.5332(2)
H19_4 H 0.3338 0.0299 0.5347
C60_4 C 0.2083(3) 0.0180(2) 0.1052(3)
H21_8 H 0.336885 0.0737114 0.0805238
H25_8 H 0.212953 0.0978392 0.096691
H26_8 H 0.911223 0.302959 0.764763
H22_8 H 0.305836 0.138786 0.0888744
H24_8 H 0.281574 0.0607943 0.0827311
loop_
_geom_bond_atom_site_label_1
_geom_bond_atom_site_label_2
_geom_bond_site_symmetry_1
_geom_bond_site_symmetry_2
O18 C45 1_555 1_555
H13 C37 1_555 1_555
C45 C36 1_555 1_555
C36 C37 1_555 1_555
O18 H26 1_555 1_555
O2 C1 1_555 1_555
O3 C8 1_555 1_555
O4 C12 1_555 1_555
N1 C4 1_555 1_555
C1 C2 1_555 1_555
C2 C3 1_555 1_555
C3 H1 1_555 1_555
C4 C3 1_555 1_555
C8 N1 1_555 1_555
C9 C8 1_555 1_555
C10 C9 1_555 1_555
C11 C10 1_555 1_555
C12 N1 1_555 1_555
C13 C9 1_555 1_555
H4 C13 1_555 1_555
C14 C11 1_555 1_555
H5 C14 1_555 1_555
H9 C28 1_555 1_555
O15 C38 1_555 1_555
O16 C42 1_555 1_555
N3 C34 1_555 1_555
C35 C34 1_555 1_555
H12 C35 1_555 1_555
C38 N3 1_555 1_555
C39 C38 1_555 1_555
C40 C10 1_555 1_555
C41 C40 1_555 1_555
C42 N3 1_555 1_555
C43 C14 1_555 1_555
H14 C43 1_555 1_555
C44 C13 1_555 1_555
H15 C44 1_555 1_555
C59 C28 1_555 1_555
H20 C59 1_555 1_555
Cd3 O17 1_555 1_555
C11 C12 1_555 1_555
C39 C40 1_555 1_555
C39 C43 1_555 1_555
C41 C42 1_555 1_555
C41 C44 1_555 1_555
O2 H22 1_555 1_555
O9 C30 1_555 1_555
O10 C30 1_555 1_555
C28_2 C24 1_555 1_555
H9_2 C28_2 1_555 1_555
O19 C46 1_555 1_555
O20 C46 1_555 1_555
O24 C57 1_555 1_555
N4 C49 1_555 1_555
C46 C47 1_555 1_555
C47 C48 1_555 1_555
C48 H16 1_555 1_555
C49 C48 1_555 1_555
C50 C49 1_555 1_555
C51 C50 1_555 1_555
C52 C47 1_555 1_555
H18 C52 1_555 1_555
C53 N4 1_555 1_555
C56 C55 1_555 1_555
C57 N4 1_555 1_555
C59_2 C28_2 1_555 1_555
H20_2 C59_2 1_555 1_555
Cd3 O19 1_555 1_555
O20 Cd3 1_555 1_555
C51 C52 1_555 1_555
C56 C57 1_555 1_555
C56 C59_2 1_555 1_555
O10 H24 1_555 1_555
O18 H23 1_555 1_555
O2 H21 1_555 1_555
O10 H25 1_555 1_555
H10 C29 1_555 1_555
O14 C31 1_555 1_555
C31 C32 1_555 1_555
C32 C33 1_555 1_555
C33 H11 1_555 1_555
O19_2 C46_2 1_555 1_555
O20_2 C46_2 1_555 1_555
O21 C60 1_555 1_555
O22 C60 1_555 1_555
O23 C53_2 1_555 1_555
O24_2 C57_2 1_555 1_555
N4_2 C49_2 1_555 1_555
C46_2 C47_2 1_555 1_555
C47_2 C48_2 1_555 1_555
C48_2 H16_2 1_555 1_555
C49_2 C48_2 1_555 1_555
C50_2 C49_2 1_555 1_555
H17 C50_2 1_555 1_555
C51_2 C50_2 1_555 1_555
C52_2 C47_2 1_555 1_555
H18_2 C52_2 1_555 1_555
C53_2 N4_2 1_555 1_555
C54 C53_2 1_555 1_555
C56_2 C55_2 1_555 1_555
C57_2 N4_2 1_555 1_555
C58 C29 1_555 1_555
H19 C58 1_555 1_555
C60 C51_2 1_555 1_555
Cd2 O19_2 1_555 1_555
O20_2 Cd2 1_555 1_555
C51_2 C52_2 1_555 1_555
C54 C55_2 1_555 1_555
C54 C58 1_555 1_555
C56_2 C57_2 1_555 1_555
O14 H21_2 1_555 1_555
O22 H25_2 1_555 1_555
H12_2 C35_2 1_555 1_555
Cd3_2 O17_2 1_555 1_555
O13_2 C31_2 1_555 1_555
O14_2 C31_2 1_555 1_555
O18_2 C45_2 1_555 1_555
C31_2 C32_2 1_555 1_555
C32_2 C33_2 1_555 1_555
C33_2 H11_2 1_555 1_555
C37_2 C32_2 1_555 1_555
H13_2 C37_2 1_555 1_555
C45_2 C36_2 1_555 1_555
O19_3 C46_3 1_555 1_555
O20_3 C46_3 1_555 1_555
O21_2 C60_2 1_555 1_555
O22_2 C60_2 1_555 1_555
O23_2 C53_3 1_555 1_555
O24_3 C57_3 1_555 1_555
N4_3 C49_3 1_555 1_555
C46_3 C47_3 1_555 1_555
C47_3 C48_3 1_555 1_555
C48_3 H16_3 1_555 1_555
C49_3 C48_3 1_555 1_555
C50_3 C49_3 1_555 1_555
H17_2 C50_3 1_555 1_555
C51_3 C50_3 1_555 1_555
C52_3 C47_3 1_555 1_555
H18_3 C52_3 1_555 1_555
C53_3 N4_3 1_555 1_555
C54_2 C53_3 1_555 1_555
C56_3 C55_3 1_555 1_555
C57_3 N4_3 1_555 1_555
C60_2 C51_3 1_555 1_555
Cd2 O19_3 1_555 1_555
C36_2 C37_2 1_555 1_555
O20_3 Cd2 1_555 1_555
C51_3 C52_3 1_555 1_555
C54_2 C55_3 1_555 1_555
C56_3 C57_3 1_555 1_555
O14_2 H21_3 1_555 1_555
O22_2 H25_3 1_555 1_555
O18_2 H26_2 1_555 1_555
O3_2 C8_2 1_555 1_555
O4_2 C12_2 1_555 1_555
N1_2 C4_2 1_555 1_555
C8_2 N1_2 1_555 1_555
C9_2 C8_2 1_555 1_555
C10_2 C9_2 1_555 1_555
C11_2 C10_2 1_555 1_555
C12_2 N1_2 1_555 1_555
C13_2 C9_2 1_555 1_555
H4_2 C13_2 1_555 1_555
C14_2 C11_2 1_555 1_555
H5_2 C14_2 1_555 1_555
O13_3 C31_3 1_555 1_555
O14_3 C31_3 1_555 1_555
O15_2 C38_2 1_555 1_555
O16_2 C42_2 1_555 1_555
O17_3 C45_3 1_555 1_555
O18_3 C45_3 1_555 1_555
N3_2 C34_2 1_555 1_555
C31_3 C32_3 1_555 1_555
C32_3 C33_3 1_555 1_555
C33_3 H11_3 1_555 1_555
C34_2 C33_3 1_555 1_555
C35_3 C34_2 1_555 1_555
H12_3 C35_3 1_555 1_555
C36_3 C35_3 1_555 1_555
C37_3 C32_3 1_555 1_555
H13_3 C37_3 1_555 1_555
C38_2 N3_2 1_555 1_555
C39_2 C38_2 1_555 1_555
C40_2 C10_2 1_555 1_555
C41_2 C40_2 1_555 1_555
C42_2 N3_2 1_555 1_555
C43_2 C14_2 1_555 1_555
H14_2 C43_2 1_555 1_555
C44_2 C13_2 1_555 1_555
H15_2 C44_2 1_555 1_555
C45_3 C36_3 1_555 1_555
O21_3 C60_3 1_555 1_555
O22_3 C60_3 1_555 1_555
Cd2 O17_3 1_555 1_555
C11_2 C12_2 1_555 1_555
C36_3 C37_3 1_555 1_555
C39_2 C40_2 1_555 1_555
C39_2 C43_2 1_555 1_555
C41_2 C42_2 1_555 1_555
C41_2 C44_2 1_555 1_555
O14_3 H21_4 1_555 1_555
O22_3 H25_4 1_555 1_555
O18_3 H26_3 1_555 1_555
H9_3 C28_3 1_555 1_555
O19_4 C46_4 1_555 1_555
O20_4 C46_4 1_555 1_555
O24_4 C57_4 1_555 1_555
N4_4 C49_4 1_555 1_555
C46_4 C47_4 1_555 1_555
C47_4 C48_4 1_555 1_555
C48_4 H16_4 1_555 1_555
C49_4 C48_4 1_555 1_555
C50_4 C49_4 1_555 1_555
C51_4 C50_4 1_555 1_555
C52_4 C47_4 1_555 1_555
H18_4 C52_4 1_555 1_555
C53_4 N4_4 1_555 1_555
C56_4 C55_4 1_555 1_555
C57_4 N4_4 1_555 1_555
C59_3 C28_3 1_555 1_555
H20_3 C59_3 1_555 1_555
Cd3_2 O19_4 1_555 1_555
O20_4 Cd3_2 1_555 1_555
C51_4 C52_4 1_555 1_555
C56_4 C57_4 1_555 1_555
C56_4 C59_3 1_555 1_555
O17_4 C45_4 1_555 1_555
O18_4 C45_4 1_555 1_555
H12_4 C35_4 1_555 1_555
C36_4 C35_4 1_555 1_555
H13_4 C37_4 1_555 1_555
C45_4 C36_4 1_555 1_555
Cd2 O17_4 1_555 1_555
C36_4 C37_4 1_555 1_555
O18_4 H26_4 1_555 1_555
O14_3 H22_2 1_555 1_555
O18_3 H23_2 1_555 1_555
O22 H24_2 1_555 1_555
O18_4 H23_3 1_555 1_555
O22_2 H24_3 1_555 1_555
O14 H22_3 1_555 1_555
O22_3 H24_4 1_555 1_555
O14_2 H22_4 1_555 1_555
O18_2 H23_4 1_555 1_555
Cd1 O5 1_555 1_555
O1 C1_2 1_555 1_555
O2_2 C1_2 1_555 1_555
O3_3 C8_3 1_555 1_555
O4_3 C12_3 1_555 1_555
O5 C15 1_555 1_555
O6 C15 1_555 1_555
O7 Cd1 1_555 1_555
O8 Cd1 1_555 1_555
O9_2 C30_2 1_555 1_555
O10_2 C30_2 1_555 1_555
O11_2 C23 1_555 1_555
O12 C27 1_555 1_555
N1_3 C4_3 1_555 1_555
N2 C19 1_555 1_555
C1_2 C2_2 1_555 1_555
C2_2 C3_2 1_555 1_555
C3_2 H1_2 1_555 1_555
C4_3 C3_2 1_555 1_555
C5 C4_3 1_555 1_555
H2 C5 1_555 1_555
C6 C5 1_555 1_555
C7 C2_2 1_555 1_555
H3 C7 1_555 1_555
C8_3 N1_3 1_555 1_555
C9_3 C8_3 1_555 1_555
C10_3 C9_3 1_555 1_555
C11_3 C10_3 1_555 1_555
C12_3 N1_3 1_555 1_555
C13_3 C9_3 1_555 1_555
H4_3 C13_3 1_555 1_555
C14_3 C11_3 1_555 1_555
H5_3 C14_3 1_555 1_555
C15 C6 1_555 1_555
C16 O7 1_555 1_555
C17 C16 1_555 1_555
C18 C17 1_555 1_555
H6 C18 1_555 1_555
C19 C18 1_555 1_555
C20 C19 1_555 1_555
H7_2 C20 1_555 1_555
C21 C20 1_555 1_555
C22 C17 1_555 1_555
H8 C22 1_555 1_555
C23 N2 1_555 1_555
C24_2 C23 1_555 1_555
C25 C24_2 1_555 1_555
C26 C25 1_555 1_555
C27 N2 1_555 1_555
C28_4 C24_2 1_555 1_555
H9_4 C28_4 1_555 1_555
C30_2 C21 1_555 1_555
O15_3 C38_3 1_555 1_555
O16_3 C42_3 1_555 1_555
N3_3 C34_3 1_555 1_555
C38_3 N3_3 1_555 1_555
C39_3 C38_3 1_555 1_555
C40_3 C10_3 1_555 1_555
C41_3 C40_3 1_555 1_555
C42_3 N3_3 1_555 1_555
C43_3 C14_3 1_555 1_555
H14_3 C43_3 1_555 1_555
C44_3 C13_3 1_555 1_555
H15_3 C44_3 1_555 1_555
C59_4 C28_4 1_555 1_555
H20_4 C59_4 1_555 1_555
O25 Cd1 1_555 1_555
O26 Cd1 1_555 1_555
O27 Cd1 1_555 1_555
O8 C16 1_555 1_555
C6 C7 1_555 1_555
C11_3 C12_3 1_555 1_555
C21 C22 1_555 1_555
C26 C27 1_555 1_555
C39_3 C40_3 1_555 1_555
C39_3 C43_3 1_555 1_555
C41_3 C42_3 1_555 1_555
C41_3 C44_3 1_555 1_555
O2_2 H22_5 1_555 1_555
O6 H23_5 1_555 1_555
O10_2 H24_5 1_555 1_555
O25 C15_2 1_555 1_555
O6_2 C15_2 1_555 1_555
O9_3 C30_3 1_555 1_555
O10_3 C30_3 1_555 1_555
O11_3 C23_2 1_555 1_555
O12_2 C27_2 1_555 1_555
N2_2 C19_2 1_555 1_555
H2_2 C5_2 1_555 1_555
C6_2 C5_2 1_555 1_555
H3_2 C7_2 1_555 1_555
C15_2 C6_2 1_555 1_555
C16_2 O26 1_555 1_555
C17_2 C16_2 1_555 1_555
C18_2 C17_2 1_555 1_555
H6_2 C18_2 1_555 1_555
C19_2 C18_2 1_555 1_555
C20_2 C19_2 1_555 1_555
H7_3 C20_2 1_555 1_555
C21_2 C20_2 1_555 1_555
C22_2 C17_2 1_555 1_555
H8_2 C22_2 1_555 1_555
C23_2 N2_2 1_555 1_555
C24_3 C23_2 1_555 1_555
C25_2 C24_3 1_555 1_555
C26_2 C25_2 1_555 1_555
C27_2 N2_2 1_555 1_555
C30_3 C21_2 1_555 1_555
O27 C16_2 1_555 1_555
C6_2 C7_2 1_555 1_555
C21_2 C22_2 1_555 1_555
C26_2 C27_2 1_555 1_555
O6_2 H23_6 1_555 1_555
O10_3 H24_6 1_555 1_555
Cd1_2 O5_2 1_555 1_555
O7_2 Cd1_2 1_555 1_555
O8_2 Cd1_2 1_555 1_555
O12_3 C27_3 1_555 1_555
N2_3 C19_3 1_555 1_555
H2_3 C5_3 1_555 1_555
C16_3 O7_2 1_555 1_555
C17_3 C16_3 1_555 1_555
C18_3 C17_3 1_555 1_555
H6_3 C18_3 1_555 1_555
C19_3 C18_3 1_555 1_555
C20_3 C19_3 1_555 1_555
C21_3 C20_3 1_555 1_555
C22_3 C17_3 1_555 1_555
H8_3 C22_3 1_555 1_555
C23_3 N2_3 1_555 1_555
C26_3 C25_3 1_555 1_555
C27_3 N2_3 1_555 1_555
C29_2 C26_3 1_555 1_555
H10_2 C29_2 1_555 1_555
C58_2 C29_2 1_555 1_555
H19_2 C58_2 1_555 1_555
O8_2 C16_3 1_555 1_555
C21_3 C22_3 1_555 1_555
C26_3 C27_3 1_555 1_555
O9_4 C30_4 1_555 1_555
O10_4 C30_4 1_555 1_555
O10_4 H24_7 1_555 1_555
O2_3 C1_3 1_555 1_555
C1_3 C2_3 1_555 1_555
C2_3 C3_3 1_555 1_555
C3_3 H1_3 1_555 1_555
O2_3 H22_6 1_555 1_555
O1_3 C1_4 1_555 1_555
O2_4 C1_4 1_555 1_555
O6_3 C15_3 1_555 1_555
C1_4 C2_4 1_555 1_555
C2_4 C3_4 1_555 1_555
C3_4 H1_4 1_555 1_555
C7_3 C2_4 1_555 1_555
H3_3 C7_3 1_555 1_555
C15_3 C6_3 1_555 1_555
C6_3 C7_3 1_555 1_555
O2_4 H22_7 1_555 1_555
O6_3 H23_7 1_555 1_555
O2_3 H21_5 1_555 1_555
O10_2 H25_5 1_555 1_555
O2_4 H21_6 1_555 1_555
O10_3 H25_6 1_555 1_555
O6_3 H26_5 1_555 1_555
O2_2 H21_7 1_555 1_555
O10_4 H25_7 1_555 1_555
O6 H26_6 1_555 1_555
O6_2 H26_7 1_555 1_555
H10_3 C29_3 1_555 1_555
C58_3 C29_3 1_555 1_555
H19_3 C58_3 1_555 1_555
O6_4 C15_4 1_555 1_555
H3_4 C7_4 1_555 1_555
C15_4 C6_4 1_555 1_555
O25_2 Cd1_3 1_555 1_555
O26_2 Cd1_3 1_555 1_555
O27_2 Cd1_3 1_555 1_555
C6_4 C7_4 1_555 1_555
O6_4 H23_8 1_555 1_555
O3_4 C8_4 1_555 1_555
O4_4 C12_4 1_555 1_555
O12_4 C27_4 1_555 1_555
N1_4 C4_4 1_555 1_555
N2_4 C19_4 1_555 1_555
C5_4 C4_4 1_555 1_555
H2_4 C5_4 1_555 1_555
C8_4 N1_4 1_555 1_555
C9_4 C8_4 1_555 1_555
C10_4 C9_4 1_555 1_555
C11_4 C10_4 1_555 1_555
C12_4 N1_4 1_555 1_555
C13_4 C9_4 1_555 1_555
H4_4 C13_4 1_555 1_555
C14_4 C11_4 1_555 1_555
H5_4 C14_4 1_555 1_555
C16_4 O26_2 1_555 1_555
C17_4 C16_4 1_555 1_555
C18_4 C17_4 1_555 1_555
H6_4 C18_4 1_555 1_555
C19_4 C18_4 1_555 1_555
C20_4 C19_4 1_555 1_555
C21_4 C20_4 1_555 1_555
C22_4 C17_4 1_555 1_555
H8_4 C22_4 1_555 1_555
C23_4 N2_4 1_555 1_555
C26_4 C25_4 1_555 1_555
C27_4 N2_4 1_555 1_555
C29_4 C26_4 1_555 1_555
H10_4 C29_4 1_555 1_555
O14_4 C31_4 1_555 1_555
O15_4 C38_4 1_555 1_555
O16_4 C42_4 1_555 1_555
N3_4 C34_4 1_555 1_555
C31_4 C32_4 1_555 1_555
C32_4 C33_4 1_555 1_555
C33_4 H11_4 1_555 1_555
C34_4 C33_4 1_555 1_555
C38_4 N3_4 1_555 1_555
C39_4 C38_4 1_555 1_555
C40_4 C10_4 1_555 1_555
C41_4 C40_4 1_555 1_555
C42_4 N3_4 1_555 1_555
C43_4 C14_4 1_555 1_555
H14_4 C43_4 1_555 1_555
C44_4 C13_4 1_555 1_555
H15_4 C44_4 1_555 1_555
O21_4 C60_4 1_555 1_555
O22_4 C60_4 1_555 1_555
C58_4 C29_4 1_555 1_555
H19_4 C58_4 1_555 1_555
O27_2 C16_4 1_555 1_555
C11_4 C12_4 1_555 1_555
C21_4 C22_4 1_555 1_555
C26_4 C27_4 1_555 1_555
C39_4 C40_4 1_555 1_555
C39_4 C43_4 1_555 1_555
C41_4 C42_4 1_555 1_555
C41_4 C44_4 1_555 1_555
C54_4 C58_4 1_555 1_555
O14_4 H21_8 1_555 1_555
O22_4 H25_8 1_555 1_555
O6_4 H26_8 1_555 1_555
O14_4 H22_8 1_555 1_555
O22_4 H24_8 1_555 1_555

#END
