
###############################################################################
#
# This file contains modified crystal structure data generated from the
# MOF subset of the Cambridge Structural Database (CSD) v543 
# hosted by the Cambridge Crystallographic Data Centre (CCDC).
#
# This work is licensed under the Creative Commons
# Attribution-NonCommercial-ShareAlike 4.0 International License.
# To view a copy of this license, visit
# http://creativecommons.org/licenses/by-nc-sa/4.0/
# or send a letter to
# Creative Commons, PO Box 1866, Mountain View, CA 94042, USA.
#
# CIF created using the CSD Python API on 29 September 2022
# The structure has been converted into the P1 space group
# The structure has a 3D framework
# The original CSD entry KEVWIU is in the orthorhombic crystal system
# The framework has been calculated to contain at least 10.0% void space
# The void calculation uses a probe of radius 1.32A, grid spacing 0.4
#
###############################################################################

data_KEVWIU
_chemical_formula_moiety         '(C288 H192 I48 N96 Zn24)n'
_symmetry_cell_setting           triclinic
_symmetry_space_group_name_H-M   'P 1'
_symmetry_Int_Tables_number      1
_space_group_name_Hall           'P 1'
loop_
_symmetry_equiv_pos_site_id
_symmetry_equiv_pos_as_xyz
1 x,y,z
_cell_length_a                   28.5351(4)
_cell_length_b                   13.91870(18)
_cell_length_c                   45.8341(6)
_cell_angle_alpha                90
_cell_angle_beta                 90
_cell_angle_gamma                90
_cell_volume                     18204
loop_
_atom_site_label
_atom_site_type_symbol
_atom_site_fract_x
_atom_site_fract_y
_atom_site_fract_z
C1 C 0.5621(4) 0.4792(7) 0.5293(2)
H1 H 0.5483 0.4488 0.5452
C2 C 0.5709(4) 0.4257(7) 0.50439(19)
H2 H 0.5623 0.3613 0.5034
C3 C 0.5927(3) 0.4698(6) 0.48096(16)
C4 C 0.6025(4) 0.5622(7) 0.48311(19)
H3 H 0.6181 0.5924 0.4679
C5 C 0.5901(4) 0.6151(7) 0.5074(2)
H4 H 0.5941 0.6814 0.5070
C6 C 0.6033(3) 0.4149(6) 0.45431(16)
C7 C 0.6010(3) 0.2766(6) 0.42909(17)
C8 C 0.6335(3) 0.4086(5) 0.40944(16)
C9 C 0.5860(3) 0.1751(6) 0.42595(18)
C10 C 0.5598(4) 0.1309(7) 0.4470(2)
H5 H 0.5520 0.1642 0.4640
C11 C 0.5451(4) 0.0395(7) 0.4435(2)
H6 H 0.5294 0.0097 0.4588
C12 C 0.5765(4) 0.0325(8) 0.3990(2)
C13 C 0.5955(4) 0.1235(7) 0.4016(2)
H8 H 0.6144 0.1488 0.3870
C14 C 0.6557(3) 0.4589(5) 0.38493(17)
C15 C 0.6778(4) 0.4099(6) 0.36185(19)
H9 H 0.6770 0.3432 0.3608
C16 C 0.7001(4) 0.4616(6) 0.34124(19)
H10 H 0.7163 0.4286 0.3268
C17 C 0.6755(4) 0.6028(6) 0.3610(2)
H11 H 0.6724 0.6692 0.3597
C18 C 0.6548(4) 0.5575(6) 0.38321(19)
H12 H 0.6398 0.5929 0.3976
C19 C 0.8331(3) 0.3808(6) 0.08112(18)
H13 H 0.8309 0.3616 0.0617
C20 C 0.7945(3) 0.3964(6) 0.09544(16)
H14 H 0.7658 0.3911 0.0860
C21 C 0.7959(3) 0.4209(5) 0.12468(15)
C22 C 0.8399(3) 0.4299(6) 0.13726(16)
H15 H 0.8427 0.4472 0.1568
C23 C 0.8781(3) 0.4138(6) 0.12123(17)
H16 H 0.9073 0.4186 0.1302
C24 C 0.7522(3) 0.4332(4) 0.14227(15)
C25 C 0.6744(3) 0.4354(5) 0.14616(15)
C26 C 0.7189(3) 0.4663(5) 0.18553(14)
C27 C 0.6279(3) 0.4230(6) 0.13252(16)
C28 C 0.6233(3) 0.4172(7) 0.10202(18)
H17 H 0.6496 0.4228 0.0901
C29 C 0.5805(3) 0.4032(7) 0.0902(2)
H18 H 0.5778 0.4002 0.0700
C30 C 0.5464(3) 0.4018(9) 0.1353(2)
H19 H 0.5198 0.3956 0.1468
C31 C 0.5876(3) 0.4185(8) 0.1486(2)
H20 H 0.5887 0.4270 0.1687
C32 C 0.7230(3) 0.4952(5) 0.21614(15)
C33 C 0.6846(3) 0.5268(7) 0.23210(17)
H21 H 0.6550 0.5280 0.2236
C34 C 0.6904(3) 0.5561(7) 0.26035(18)
H22 H 0.6644 0.5741 0.2712
C35 C 0.7697(3) 0.5277(6) 0.25785(16)
H23 H 0.7988 0.5263 0.2671
C36 C 0.7668(3) 0.4969(6) 0.22958(16)
H24 H 0.7935 0.4775 0.2195
I1 I 0.49656(2) 0.56612(8) 0.59707(2)
I2 I 0.57194(4) 0.82449(6) 0.55903(2)
I5 I 0.70122(3) 0.79624(5) 0.30488(2)
N1 N 0.5727(3) 0.5744(5) 0.53147(15)
N2 N 0.5910(3) 0.3226(5) 0.45384(14)
N3 N 0.6233(2) 0.3173(4) 0.40621(14)
N4 N 0.6235(2) 0.4598(5) 0.43240(14)
N6 N 0.7004(3) 0.5575(5) 0.34043(14)
N7 N 0.8765(2) 0.3909(5) 0.09292(13)
N8 N 0.7125(2) 0.4234(4) 0.12895(12)
N9 N 0.6756(2) 0.4573(4) 0.17389(13)
N10 N 0.7581(2) 0.4546(4) 0.17037(11)
N11 N 0.5414(2) 0.3935(5) 0.10650(15)
N12 N 0.7333(2) 0.5593(5) 0.27264(13)
Zn1 Zn 0.56305(4) 0.64645(8) 0.56989(2)
Zn3 Zn 0.74073(4) 0.63412(7) 0.31163(2)
I6 I 0.82522(3) 0.63054(8) 0.32760(2)
N13 N 0.6235(2) 0.6091(5) 0.59292(13)
Zn4 Zn 0.93695(4) 0.35355(8) 0.06989(2)
Zn5 Zn 0.47811(4) 0.35762(7) 0.08715(3)
H7 H 0.5813 0.9990 0.3817
I3 I 0.56778(3) 0.76853(7) 0.37419(3)
I4 I 0.50470(3) 0.78618(7) 0.46288(2)
N5 N 0.5521(2) 0.9913(5) 0.41952(15)
Zn2 Zn 0.52189(4) 0.85762(7) 0.41285(3)
N14 N 0.4586(2) 0.8935(5) 0.39350(15)
H7_2 H 0.9187 0.0010 0.8817
I3_2 I 0.93222(3) 0.23147(7) 0.87419(3)
I4_2 I 0.99530(3) 0.21382(7) 0.96288(2)
N5_2 N 0.9479(2) 0.0087(5) 0.91952(15)
Zn2_2 Zn 0.97811(4) 0.14238(7) 0.91285(3)
C1_2 C 0.9379(4) 0.5208(7) 0.0293(2)
H1_2 H 0.9517 0.5512 0.0452
C2_2 C 0.9291(4) 0.5743(7) 0.00439(19)
H2_2 H 0.9377 0.6387 0.0034
C5_2 C 0.9099(4) 0.3849(7) 0.0074(2)
H4_2 H 0.9059 0.3186 0.0070
I2_2 I 0.92806(4) 0.17551(6) 0.05903(2)
N1_2 N 0.9273(3) 0.4256(5) 0.03147(15)
C3_2 C 0.9073(3) 0.5302(6) 0.98096(16)
C4_2 C 0.8975(4) 0.4378(7) 0.98311(19)
H3_2 H 0.8819 0.4076 0.9679
C6_2 C 0.8967(3) 0.5851(6) 0.95431(16)
C7_2 C 0.8990(3) 0.7234(6) 0.92909(17)
C8_2 C 0.8665(3) 0.5914(5) 0.90944(16)
C9_2 C 0.9140(3) 0.8249(6) 0.92595(18)
C10_2 C 0.9402(4) 0.8691(7) 0.9470(2)
H5_2 H 0.9480 0.8358 0.9640
C11_2 C 0.9549(4) 0.9605(7) 0.9435(2)
H6_2 H 0.9706 0.9903 0.9588
C12_2 C 0.9235(4) 0.9675(8) 0.8990(2)
C13_2 C 0.9045(4) 0.8765(7) 0.9016(2)
H8_2 H 0.8856 0.8512 0.8870
C14_2 C 0.8443(3) 0.5411(5) 0.88493(17)
C15_2 C 0.8222(4) 0.5901(6) 0.86185(19)
H9_2 H 0.8230 0.6568 0.8608
C16_2 C 0.7999(4) 0.5384(6) 0.84124(19)
H10_2 H 0.7837 0.5714 0.8268
C17_2 C 0.8245(4) 0.3972(6) 0.8610(2)
H11_2 H 0.8276 0.3308 0.8597
C18_2 C 0.8452(4) 0.4425(6) 0.88321(19)
H12_2 H 0.8602 0.4071 0.8976
C19_2 C 0.6669(3) 0.6192(6) 0.58112(18)
H13_2 H 0.6691 0.6384 0.5617
C20_2 C 0.7055(3) 0.6036(6) 0.59544(16)
H14_2 H 0.7342 0.6089 0.5860
C21_2 C 0.7041(3) 0.5791(5) 0.62468(15)
C22_2 C 0.6601(3) 0.5701(6) 0.63726(16)
H15_2 H 0.6573 0.5528 0.6568
C23_2 C 0.6219(3) 0.5862(6) 0.62123(17)
H16_2 H 0.5927 0.5814 0.6302
C24_2 C 0.7478(3) 0.5668(4) 0.64227(15)
C25_2 C 0.8256(3) 0.5646(5) 0.64616(15)
C26_2 C 0.7811(3) 0.5337(5) 0.68553(14)
C27_2 C 0.8721(3) 0.5770(6) 0.63252(16)
C28_2 C 0.8767(3) 0.5828(7) 0.60202(18)
H17_2 H 0.8504 0.5772 0.5901
C29_2 C 0.9195(3) 0.5968(7) 0.5902(2)
H18_2 H 0.9222 0.5998 0.5700
C30_2 C 0.9536(3) 0.5982(9) 0.6353(2)
H19_2 H 0.9802 0.6044 0.6468
C31_2 C 0.9124(3) 0.5815(8) 0.6486(2)
H20_2 H 0.9113 0.5730 0.6687
C32_2 C 0.7770(3) 0.5048(5) 0.71614(15)
C33_2 C 0.8154(3) 0.4732(7) 0.73210(17)
H21_2 H 0.8450 0.4720 0.7236
C34_2 C 0.8096(3) 0.4439(7) 0.76035(18)
H22_2 H 0.8356 0.4259 0.7712
C35_2 C 0.7303(3) 0.4723(6) 0.75785(16)
H23_2 H 0.7012 0.4737 0.7671
C36_2 C 0.7332(3) 0.5031(6) 0.72958(16)
H24_2 H 0.7065 0.5225 0.7195
I5_2 I 0.79878(3) 0.20376(5) 0.80488(2)
N2_2 N 0.9090(3) 0.6774(5) 0.95384(14)
N3_2 N 0.8767(2) 0.6827(4) 0.90621(14)
N4_2 N 0.8765(2) 0.5402(5) 0.93240(14)
N6_2 N 0.7996(3) 0.4425(5) 0.84043(14)
N8_2 N 0.7875(2) 0.5766(4) 0.62895(12)
N9_2 N 0.8244(2) 0.5427(4) 0.67389(13)
N10_2 N 0.7419(2) 0.5454(4) 0.67037(11)
N11_2 N 0.9586(2) 0.6065(5) 0.60650(15)
N12_2 N 0.7667(2) 0.4407(5) 0.77264(13)
Zn3_2 Zn 0.75927(4) 0.36588(7) 0.81163(2)
I6_2 I 0.67478(3) 0.36946(8) 0.82760(2)
C3_3 C 0.4073(3) 0.9698(6) 0.01904(16)
C6_3 C 0.3967(3) 0.9149(6) 0.04569(16)
C7_3 C 0.3990(3) 0.7766(6) 0.07091(17)
C8_3 C 0.3665(3) 0.9086(5) 0.09056(16)
C9_3 C 0.4140(3) 0.6751(6) 0.07405(18)
C10_3 C 0.4402(4) 0.6309(7) 0.0530(2)
H5_3 H 0.4480 0.6642 0.0360
C11_3 C 0.4549(4) 0.5395(7) 0.0565(2)
H6_3 H 0.4706 0.5097 0.0412
C12_3 C 0.4235(4) 0.5325(8) 0.1010(2)
H7_3 H 0.4187 0.4990 0.1183
C13_3 C 0.4045(4) 0.6235(7) 0.0984(2)
H8_3 H 0.3856 0.6488 0.1130
C14_3 C 0.3443(3) 0.9589(5) 0.11507(17)
C15_3 C 0.3222(4) 0.9099(6) 0.13815(19)
H9_3 H 0.3230 0.8432 0.1392
C16_3 C 0.2999(4) 0.9616(6) 0.15876(19)
H10_3 H 0.2837 0.9286 0.1732
C19_3 C 0.1669(3) 0.8808(6) 0.41888(18)
H13_3 H 0.1691 0.8616 0.4383
C20_3 C 0.2055(3) 0.8964(6) 0.40456(16)
H14_3 H 0.2342 0.8911 0.4140
C21_3 C 0.2041(3) 0.9209(5) 0.37532(15)
C22_3 C 0.1601(3) 0.9299(6) 0.36274(16)
H15_3 H 0.1573 0.9472 0.3432
C23_3 C 0.1219(3) 0.9138(6) 0.37877(17)
H16_3 H 0.0927 0.9186 0.3698
C24_3 C 0.2478(3) 0.9332(4) 0.35773(15)
C25_3 C 0.3256(3) 0.9354(5) 0.35384(15)
C26_3 C 0.2811(3) 0.9663(5) 0.31447(14)
C27_3 C 0.3721(3) 0.9230(6) 0.36748(16)
C28_3 C 0.3767(3) 0.9172(7) 0.39798(18)
H17_3 H 0.3504 0.9228 0.4099
C29_3 C 0.4195(3) 0.9032(7) 0.4098(2)
H18_3 H 0.4222 0.9002 0.4300
C30_3 C 0.4536(3) 0.9018(9) 0.3647(2)
H19_3 H 0.4802 0.8956 0.3532
C31_3 C 0.4124(3) 0.9185(8) 0.3514(2)
H20_3 H 0.4113 0.9270 0.3313
C32_3 C 0.2770(3) 0.9952(5) 0.28386(15)
C36_3 C 0.2332(3) 0.9969(6) 0.27042(16)
H24_3 H 0.2065 0.9775 0.2805
I3_3 I 0.43222(3) 0.26853(7) 0.12581(3)
I4_3 I 0.49530(3) 0.28618(7) 0.03712(2)
N2_3 N 0.4090(3) 0.8226(5) 0.04616(14)
N3_3 N 0.3767(2) 0.8173(4) 0.09379(14)
N4_3 N 0.3765(2) 0.9598(5) 0.06760(14)
N5_3 N 0.4479(2) 0.4913(5) 0.08048(15)
N7_2 N 0.1235(2) 0.8909(5) 0.40708(13)
N8_3 N 0.2875(2) 0.9234(4) 0.37105(12)
N9_3 N 0.3244(2) 0.9573(4) 0.32611(13)
N10_3 N 0.2419(2) 0.9546(4) 0.32963(11)
Zn4_2 Zn 0.06305(4) 0.85355(8) 0.43011(2)
C4_3 C 0.1025(4) 0.9378(7) 0.51689(19)
H3_3 H 0.1181 0.9076 0.5321
C5_3 C 0.0901(4) 0.8849(7) 0.4926(2)
H4_3 H 0.0941 0.8186 0.4930
C17_3 C 0.1755(4) 0.8972(6) 0.6390(2)
H11_3 H 0.1724 0.8308 0.6403
C18_3 C 0.1548(4) 0.9425(6) 0.61679(19)
H12_3 H 0.1398 0.9071 0.6024
C33_3 C 0.1846(3) 0.9732(7) 0.76790(17)
H21_3 H 0.1550 0.9720 0.7764
C34_3 C 0.1904(3) 0.9439(7) 0.73965(18)
H22_3 H 0.1644 0.9259 0.7288
C35_3 C 0.2697(3) 0.9723(6) 0.74215(16)
H23_3 H 0.2988 0.9737 0.7329
I2_3 I 0.07194(4) 0.67551(6) 0.44097(2)
I5_3 I 0.20122(3) 0.70376(5) 0.69512(2)
N1_3 N 0.0727(3) 0.9256(5) 0.46853(15)
N6_3 N 0.2004(3) 0.9425(5) 0.65957(14)
N12_3 N 0.2333(2) 0.9407(5) 0.72736(13)
Zn3_3 Zn 0.24073(4) 0.86588(7) 0.68837(2)
I6_3 I 0.32522(3) 0.86946(8) 0.67240(2)
N14_2 N 0.0414(2) 0.1065(5) 0.89350(15)
Zn5_2 Zn 0.02189(4) 0.64238(7) 0.58715(3)
C5_4 C 0.4099(4) 0.1151(7) 0.9926(2)
H4_4 H 0.4059 0.1814 0.9930
I1_2 I 0.50344(2) 0.06612(8) 0.90293(2)
I2_4 I 0.42806(4) 0.32449(6) 0.94097(2)
N1_4 N 0.4273(3) 0.0744(5) 0.96853(15)
Zn1_2 Zn 0.43695(4) 0.14645(8) 0.93011(2)
N13_2 N 0.3765(2) 0.1091(5) 0.90708(13)
C1_3 C 0.0621(4) 0.0208(7) 0.4707(2)
H1_3 H 0.0483 0.0512 0.4548
C2_3 C 0.0709(4) 0.0743(7) 0.49561(19)
H2_3 H 0.0623 0.1387 0.4966
C3_4 C 0.0927(3) 0.0302(6) 0.51904(16)
C6_4 C 0.1033(3) 0.0851(6) 0.54569(16)
C7_4 C 0.1010(3) 0.2234(6) 0.57091(17)
C8_4 C 0.1335(3) 0.0914(5) 0.59056(16)
C9_4 C 0.0860(3) 0.3249(6) 0.57405(18)
C10_4 C 0.0598(4) 0.3691(7) 0.5530(2)
H5_4 H 0.0520 0.3358 0.5360
C11_4 C 0.0451(4) 0.4605(7) 0.5565(2)
H6_4 H 0.0294 0.4903 0.5412
C12_4 C 0.0765(4) 0.4675(8) 0.6010(2)
H7_4 H 0.0813 0.5010 0.6183
C13_4 C 0.0955(4) 0.3765(7) 0.5984(2)
H8_4 H 0.1144 0.3512 0.6130
C14_4 C 0.1557(3) 0.0411(5) 0.61507(17)
C15_4 C 0.1778(4) 0.0901(6) 0.63815(19)
H9_4 H 0.1770 0.1568 0.6392
C16_4 C 0.2001(4) 0.0384(6) 0.65876(19)
H10_4 H 0.2163 0.0714 0.6732
C19_4 C 0.3331(3) 0.1192(6) 0.91888(18)
H13_4 H 0.3309 0.1384 0.9383
C20_4 C 0.2945(3) 0.1036(6) 0.90456(16)
H14_4 H 0.2658 0.1089 0.9140
C21_4 C 0.2959(3) 0.0791(5) 0.87532(15)
C22_4 C 0.3399(3) 0.0701(6) 0.86274(16)
H15_4 H 0.3427 0.0528 0.8432
C23_4 C 0.3781(3) 0.0862(6) 0.87877(17)
H16_4 H 0.4073 0.0814 0.8698
C24_4 C 0.2522(3) 0.0668(4) 0.85773(15)
C25_4 C 0.1744(3) 0.0646(5) 0.85384(15)
C26_4 C 0.2189(3) 0.0337(5) 0.81447(14)
C27_4 C 0.1279(3) 0.0770(6) 0.86748(16)
C28_4 C 0.1233(3) 0.0828(7) 0.89798(18)
H17_4 H 0.1496 0.0772 0.9099
C29_4 C 0.0805(3) 0.0968(7) 0.9098(2)
H18_4 H 0.0778 0.0998 0.9300
C30_4 C 0.0464(3) 0.0982(9) 0.8647(2)
H19_4 H 0.0198 0.1044 0.8532
C31_4 C 0.0876(3) 0.0815(8) 0.8514(2)
H20_4 H 0.0887 0.0730 0.8313
C32_4 C 0.2230(3) 0.0048(5) 0.78386(15)
C36_4 C 0.2668(3) 0.0031(6) 0.77042(16)
H24_4 H 0.2935 0.0225 0.7805
I3_4 I 0.06778(3) 0.73147(7) 0.62581(3)
I4_4 I 0.00470(3) 0.71382(7) 0.53712(2)
N2_4 N 0.0910(3) 0.1774(5) 0.54616(14)
N3_4 N 0.1233(2) 0.1827(4) 0.59379(14)
N4_4 N 0.1235(2) 0.0402(5) 0.56760(14)
N5_4 N 0.0521(2) 0.5087(5) 0.58048(15)
N8_4 N 0.2125(2) 0.0766(4) 0.87105(12)
N9_4 N 0.1756(2) 0.0427(4) 0.82611(13)
N10_4 N 0.2581(2) 0.0454(4) 0.82963(11)
I1_3 I 0.00344(2) 0.43388(8) 0.09707(2)
C4_4 C 0.3975(4) 0.0622(7) 0.01689(19)
H3_4 H 0.3819 0.0924 0.0321
C17_4 C 0.3245(4) 0.1028(6) 0.1390(2)
H11_4 H 0.3276 0.1692 0.1403
C18_4 C 0.3452(4) 0.0575(6) 0.11679(19)
H12_4 H 0.3602 0.0929 0.1024
C33_4 C 0.3154(3) 0.0268(7) 0.26790(17)
H21_4 H 0.3450 0.0280 0.2764
C34_4 C 0.3096(3) 0.0561(7) 0.23965(18)
H22_4 H 0.3356 0.0741 0.2288
C35_4 C 0.2303(3) 0.0277(6) 0.24215(16)
H23_4 H 0.2012 0.0263 0.2329
I5_4 I 0.29878(3) 0.29624(5) 0.19512(2)
N6_4 N 0.2996(3) 0.0575(5) 0.15957(14)
N12_4 N 0.2667(2) 0.0593(5) 0.22736(13)
Zn3_4 Zn 0.25927(4) 0.13412(7) 0.18837(2)
I6_4 I 0.17478(3) 0.13054(8) 0.17240(2)
C1_4 C 0.4379(4) 0.9792(7) 0.9707(2)
H1_4 H 0.4517 0.9488 0.9548
C2_4 C 0.4291(4) 0.9257(7) 0.99561(19)
H2_4 H 0.4377 0.8613 0.9966
I1_4 I 0.99656(2) 0.93388(8) 0.40293(2)
H7_5 H 0.4187 0.0010 0.6183
I3_5 I 0.43222(3) 0.23147(7) 0.62581(3)
I4_5 I 0.49530(3) 0.21382(7) 0.53712(2)
N5_5 N 0.4479(2) 0.0087(5) 0.58048(15)
Zn2_3 Zn 0.47811(4) 0.14238(7) 0.58715(3)
N14_3 N 0.5414(2) 0.1065(5) 0.60650(15)
C1_5 C 0.4379(4) 0.5208(7) 0.4707(2)
H1_5 H 0.4517 0.5512 0.4548
C2_5 C 0.4291(4) 0.5743(7) 0.49561(19)
H2_5 H 0.4377 0.6387 0.4966
C3_5 C 0.4073(3) 0.5302(6) 0.51904(16)
C4_5 C 0.3975(4) 0.4378(7) 0.51689(19)
H3_5 H 0.3819 0.4076 0.5321
C5_5 C 0.4099(4) 0.3849(7) 0.4926(2)
H4_5 H 0.4059 0.3186 0.4930
C6_5 C 0.3967(3) 0.5851(6) 0.54569(16)
C7_5 C 0.3990(3) 0.7234(6) 0.57091(17)
C8_5 C 0.3665(3) 0.5914(5) 0.59056(16)
C9_5 C 0.4140(3) 0.8249(6) 0.57405(18)
C10_5 C 0.4402(4) 0.8691(7) 0.5530(2)
H5_5 H 0.4480 0.8358 0.5360
C11_5 C 0.4549(4) 0.9605(7) 0.5565(2)
H6_5 H 0.4706 0.9903 0.5412
C12_5 C 0.4235(4) 0.9675(8) 0.6010(2)
C13_5 C 0.4045(4) 0.8765(7) 0.5984(2)
H8_5 H 0.3856 0.8512 0.6130
C14_5 C 0.3443(3) 0.5411(5) 0.61507(17)
C15_5 C 0.3222(4) 0.5901(6) 0.63815(19)
H9_5 H 0.3230 0.6568 0.6392
C16_5 C 0.2999(4) 0.5384(6) 0.65876(19)
H10_5 H 0.2837 0.5714 0.6732
C17_5 C 0.3245(4) 0.3972(6) 0.6390(2)
H11_5 H 0.3276 0.3308 0.6403
C18_5 C 0.3452(4) 0.4425(6) 0.61679(19)
H12_5 H 0.3602 0.4071 0.6024
C19_5 C 0.1669(3) 0.6192(6) 0.91888(18)
H13_5 H 0.1691 0.6384 0.9383
C20_5 C 0.2055(3) 0.6036(6) 0.90456(16)
H14_5 H 0.2342 0.6089 0.9140
C21_5 C 0.2041(3) 0.5791(5) 0.87532(15)
C22_5 C 0.1601(3) 0.5701(6) 0.86274(16)
H15_5 H 0.1573 0.5528 0.8432
C23_5 C 0.1219(3) 0.5862(6) 0.87877(17)
H16_5 H 0.0927 0.5814 0.8698
C24_5 C 0.2478(3) 0.5668(4) 0.85773(15)
C25_5 C 0.3256(3) 0.5646(5) 0.85384(15)
C26_5 C 0.2811(3) 0.5337(5) 0.81447(14)
C27_5 C 0.3721(3) 0.5770(6) 0.86748(16)
C28_5 C 0.3767(3) 0.5828(7) 0.89798(18)
H17_5 H 0.3504 0.5772 0.9099
C29_5 C 0.4195(3) 0.5968(7) 0.9098(2)
H18_5 H 0.4222 0.5998 0.9300
C30_5 C 0.4536(3) 0.5982(9) 0.8647(2)
H19_5 H 0.4802 0.6044 0.8532
C31_5 C 0.4124(3) 0.5815(8) 0.8514(2)
H20_5 H 0.4113 0.5730 0.8313
C32_5 C 0.2770(3) 0.5048(5) 0.78386(15)
C33_5 C 0.3154(3) 0.4732(7) 0.76790(17)
H21_5 H 0.3450 0.4720 0.7764
C34_5 C 0.3096(3) 0.4439(7) 0.73965(18)
H22_5 H 0.3356 0.4259 0.7288
C35_5 C 0.2303(3) 0.4723(6) 0.74215(16)
H23_5 H 0.2012 0.4737 0.7329
C36_5 C 0.2332(3) 0.5031(6) 0.77042(16)
H24_5 H 0.2065 0.5225 0.7805
I1_5 I 0.50344(2) 0.43388(8) 0.40293(2)
I2_5 I 0.42806(4) 0.17551(6) 0.44097(2)
I5_5 I 0.29878(3) 0.20376(5) 0.69512(2)
N1_5 N 0.4273(3) 0.4256(5) 0.46853(15)
N2_5 N 0.4090(3) 0.6774(5) 0.54616(14)
N3_5 N 0.3767(2) 0.6827(4) 0.59379(14)
N4_5 N 0.3765(2) 0.5402(5) 0.56760(14)
N6_5 N 0.2996(3) 0.4425(5) 0.65957(14)
N7_3 N 0.1235(2) 0.6091(5) 0.90708(13)
N8_5 N 0.2875(2) 0.5766(4) 0.87105(12)
N9_5 N 0.3244(2) 0.5427(4) 0.82611(13)
N10_5 N 0.2419(2) 0.5454(4) 0.82963(11)
N11_3 N 0.4586(2) 0.6065(5) 0.89350(15)
N12_5 N 0.2667(2) 0.4407(5) 0.72736(13)
Zn1_3 Zn 0.43695(4) 0.35355(8) 0.43011(2)
Zn3_5 Zn 0.25927(4) 0.36588(7) 0.68837(2)
I6_5 I 0.17478(3) 0.36946(8) 0.67240(2)
N13_3 N 0.3765(2) 0.3909(5) 0.40708(13)
Zn4_3 Zn 0.06305(4) 0.64645(8) 0.93011(2)
Zn5_3 Zn 0.52189(4) 0.64238(7) 0.91285(3)
C3_6 C 0.0927(3) 0.4698(6) 0.01904(16)
C4_6 C 0.1025(4) 0.5622(7) 0.01689(19)
H3_6 H 0.1181 0.5924 0.0321
C6_6 C 0.1033(3) 0.4149(6) 0.04569(16)
C7_6 C 0.1010(3) 0.2766(6) 0.07091(17)
C8_6 C 0.1335(3) 0.4086(5) 0.09056(16)
C9_6 C 0.0860(3) 0.1751(6) 0.07405(18)
C10_6 C 0.0598(4) 0.1309(7) 0.0530(2)
H5_6 H 0.0520 0.1642 0.0360
C11_6 C 0.0451(4) 0.0395(7) 0.0565(2)
H6_6 H 0.0294 0.0097 0.0412
C12_6 C 0.0765(4) 0.0325(8) 0.1010(2)
C13_6 C 0.0955(4) 0.1235(7) 0.0984(2)
H8_6 H 0.1144 0.1488 0.1130
C14_6 C 0.1557(3) 0.4589(5) 0.11507(17)
C15_6 C 0.1778(4) 0.4099(6) 0.13815(19)
H9_6 H 0.1770 0.3432 0.1392
C16_6 C 0.2001(4) 0.4616(6) 0.15876(19)
H10_6 H 0.2163 0.4286 0.1732
C17_6 C 0.1755(4) 0.6028(6) 0.1390(2)
H11_6 H 0.1724 0.6692 0.1403
C18_6 C 0.1548(4) 0.5575(6) 0.11679(19)
H12_6 H 0.1398 0.5929 0.1024
C19_6 C 0.3331(3) 0.3808(6) 0.41888(18)
H13_6 H 0.3309 0.3616 0.4383
C20_6 C 0.2945(3) 0.3964(6) 0.40456(16)
H14_6 H 0.2658 0.3911 0.4140
C21_6 C 0.2959(3) 0.4209(5) 0.37532(15)
C22_6 C 0.3399(3) 0.4299(6) 0.36274(16)
H15_6 H 0.3427 0.4472 0.3432
C23_6 C 0.3781(3) 0.4138(6) 0.37877(17)
H16_6 H 0.4073 0.4186 0.3698
C24_6 C 0.2522(3) 0.4332(4) 0.35773(15)
C25_6 C 0.1744(3) 0.4354(5) 0.35384(15)
C26_6 C 0.2189(3) 0.4663(5) 0.31447(14)
C27_6 C 0.1279(3) 0.4230(6) 0.36748(16)
C28_6 C 0.1233(3) 0.4172(7) 0.39798(18)
H17_6 H 0.1496 0.4228 0.4099
C29_6 C 0.0805(3) 0.4032(7) 0.4098(2)
H18_6 H 0.0778 0.4002 0.4300
C30_6 C 0.0464(3) 0.4018(9) 0.3647(2)
H19_6 H 0.0198 0.3956 0.3532
C31_6 C 0.0876(3) 0.4185(8) 0.3514(2)
H20_6 H 0.0887 0.4270 0.3313
C32_6 C 0.2230(3) 0.4952(5) 0.28386(15)
C33_6 C 0.1846(3) 0.5268(7) 0.26790(17)
H21_6 H 0.1550 0.5280 0.2764
C34_6 C 0.1904(3) 0.5561(7) 0.23965(18)
H22_6 H 0.1644 0.5741 0.2288
C35_6 C 0.2697(3) 0.5277(6) 0.24215(16)
H23_6 H 0.2988 0.5263 0.2329
C36_6 C 0.2668(3) 0.4969(6) 0.27042(16)
H24_6 H 0.2935 0.4775 0.2805
I5_6 I 0.20122(3) 0.79624(5) 0.19512(2)
N2_6 N 0.0910(3) 0.3226(5) 0.04616(14)
N3_6 N 0.1233(2) 0.3173(4) 0.09379(14)
N4_6 N 0.1235(2) 0.4598(5) 0.06760(14)
N6_6 N 0.2004(3) 0.5575(5) 0.15957(14)
N8_6 N 0.2125(2) 0.4234(4) 0.37105(12)
N9_6 N 0.1756(2) 0.4573(4) 0.32611(13)
N10_6 N 0.2581(2) 0.4546(4) 0.32963(11)
N11_4 N 0.0414(2) 0.3935(5) 0.39350(15)
N12_6 N 0.2333(2) 0.5593(5) 0.22736(13)
Zn3_6 Zn 0.24073(4) 0.63412(7) 0.18837(2)
I6_6 I 0.32522(3) 0.63054(8) 0.17240(2)
C1_6 C 0.0621(4) 0.4792(7) 0.9707(2)
H1_6 H 0.0483 0.4488 0.9548
C2_6 C 0.0709(4) 0.4257(7) 0.99561(19)
H2_6 H 0.0623 0.3613 0.9966
C5_6 C 0.0901(4) 0.6151(7) 0.9926(2)
H4_6 H 0.0941 0.6814 0.9930
I2_6 I 0.07194(4) 0.82449(6) 0.94097(2)
N1_6 N 0.0727(3) 0.5744(5) 0.96853(15)
H7_6 H 0.0813 0.9990 0.1183
I3_6 I 0.06778(3) 0.76853(7) 0.12581(3)
I4_6 I 0.00470(3) 0.78618(7) 0.03712(2)
N5_6 N 0.0521(2) 0.9913(5) 0.08048(15)
Zn2_4 Zn 0.02189(4) 0.85762(7) 0.08715(3)
C3_7 C 0.5927(3) 0.0302(6) 0.98096(16)
C6_7 C 0.6033(3) 0.0851(6) 0.95431(16)
C7_7 C 0.6010(3) 0.2234(6) 0.92909(17)
C8_7 C 0.6335(3) 0.0914(5) 0.90944(16)
C9_7 C 0.5860(3) 0.3249(6) 0.92595(18)
C10_7 C 0.5598(4) 0.3691(7) 0.9470(2)
H5_7 H 0.5520 0.3358 0.9640
C11_7 C 0.5451(4) 0.4605(7) 0.9435(2)
H6_7 H 0.5294 0.4903 0.9588
C12_7 C 0.5765(4) 0.4675(8) 0.8990(2)
H7_7 H 0.5813 0.5010 0.8817
C13_7 C 0.5955(4) 0.3765(7) 0.9016(2)
H8_7 H 0.6144 0.3512 0.8870
C14_7 C 0.6557(3) 0.0411(5) 0.88493(17)
C15_7 C 0.6778(4) 0.0901(6) 0.86185(19)
H9_7 H 0.6770 0.1568 0.8608
C16_7 C 0.7001(4) 0.0384(6) 0.84124(19)
H10_7 H 0.7163 0.0714 0.8268
C19_7 C 0.8331(3) 0.1192(6) 0.58112(18)
H13_7 H 0.8309 0.1384 0.5617
C20_7 C 0.7945(3) 0.1036(6) 0.59544(16)
H14_7 H 0.7658 0.1089 0.5860
C21_7 C 0.7959(3) 0.0791(5) 0.62468(15)
C22_7 C 0.8399(3) 0.0701(6) 0.63726(16)
H15_7 H 0.8427 0.0528 0.6568
C23_7 C 0.8781(3) 0.0862(6) 0.62123(17)
H16_7 H 0.9073 0.0814 0.6302
C24_7 C 0.7522(3) 0.0668(4) 0.64227(15)
C25_7 C 0.6744(3) 0.0646(5) 0.64616(15)
C26_7 C 0.7189(3) 0.0337(5) 0.68553(14)
C27_7 C 0.6279(3) 0.0770(6) 0.63252(16)
C28_7 C 0.6233(3) 0.0828(7) 0.60202(18)
H17_7 H 0.6496 0.0772 0.5901
C29_7 C 0.5805(3) 0.0968(7) 0.5902(2)
H18_7 H 0.5778 0.0998 0.5700
C30_7 C 0.5464(3) 0.0982(9) 0.6353(2)
H19_7 H 0.5198 0.1044 0.6468
C31_7 C 0.5876(3) 0.0815(8) 0.6486(2)
H20_7 H 0.5887 0.0730 0.6687
C32_7 C 0.7230(3) 0.0048(5) 0.71614(15)
C36_7 C 0.7668(3) 0.0031(6) 0.72958(16)
H24_7 H 0.7935 0.0225 0.7195
I3_7 I 0.56778(3) 0.73147(7) 0.87419(3)
I4_7 I 0.50470(3) 0.71382(7) 0.96288(2)
N2_7 N 0.5910(3) 0.1774(5) 0.95384(14)
N3_7 N 0.6233(2) 0.1827(4) 0.90621(14)
N4_7 N 0.6235(2) 0.0402(5) 0.93240(14)
N5_7 N 0.5521(2) 0.5087(5) 0.91952(15)
N7_4 N 0.8765(2) 0.1091(5) 0.59292(13)
N8_7 N 0.7125(2) 0.0766(4) 0.62895(12)
N9_7 N 0.6756(2) 0.0427(4) 0.67389(13)
N10_7 N 0.7581(2) 0.0454(4) 0.67037(11)
Zn4_4 Zn 0.93695(4) 0.14645(8) 0.56989(2)
C4_7 C 0.8975(4) 0.0622(7) 0.48311(19)
H3_7 H 0.8819 0.0924 0.4679
C5_7 C 0.9099(4) 0.1151(7) 0.5074(2)
H4_7 H 0.9059 0.1814 0.5070
C17_7 C 0.8245(4) 0.1028(6) 0.3610(2)
H11_7 H 0.8276 0.1692 0.3597
C18_7 C 0.8452(4) 0.0575(6) 0.38321(19)
H12_7 H 0.8602 0.0929 0.3976
C33_7 C 0.8154(3) 0.0268(7) 0.23210(17)
H21_7 H 0.8450 0.0280 0.2236
C34_7 C 0.8096(3) 0.0561(7) 0.26035(18)
H22_7 H 0.8356 0.0741 0.2712
C35_7 C 0.7303(3) 0.0277(6) 0.25785(16)
H23_7 H 0.7012 0.0263 0.2671
I2_7 I 0.92806(4) 0.32449(6) 0.55903(2)
I5_7 I 0.79878(3) 0.29624(5) 0.30488(2)
N1_7 N 0.9273(3) 0.0744(5) 0.53147(15)
N6_7 N 0.7996(3) 0.0575(5) 0.34043(14)
N12_7 N 0.7667(2) 0.0593(5) 0.27264(13)
Zn3_7 Zn 0.75927(4) 0.13412(7) 0.31163(2)
I6_7 I 0.67478(3) 0.13054(8) 0.32760(2)
Zn5_4 Zn 0.97811(4) 0.35762(7) 0.41285(3)
N14_4 N 0.9586(2) 0.8935(5) 0.10650(15)
C5_8 C 0.5901(4) 0.8849(7) 0.0074(2)
H4_8 H 0.5941 0.8186 0.0070
I1_6 I 0.49656(2) 0.93388(8) 0.09707(2)
I2_8 I 0.57194(4) 0.67551(6) 0.05903(2)
N1_8 N 0.5727(3) 0.9256(5) 0.03147(15)
Zn1_4 Zn 0.56305(4) 0.85355(8) 0.06989(2)
N13_4 N 0.6235(2) 0.8909(5) 0.09292(13)
C1_7 C 0.9379(4) 0.9792(7) 0.5293(2)
H1_7 H 0.9517 0.9488 0.5452
C2_7 C 0.9291(4) 0.9257(7) 0.50439(19)
H2_7 H 0.9377 0.8613 0.5034
C3_8 C 0.9073(3) 0.9698(6) 0.48096(16)
C6_8 C 0.8967(3) 0.9149(6) 0.45431(16)
C7_8 C 0.8990(3) 0.7766(6) 0.42909(17)
C8_8 C 0.8665(3) 0.9086(5) 0.40944(16)
C9_8 C 0.9140(3) 0.6751(6) 0.42595(18)
C10_8 C 0.9402(4) 0.6309(7) 0.4470(2)
H5_8 H 0.9480 0.6642 0.4640
C11_8 C 0.9549(4) 0.5395(7) 0.4435(2)
H6_8 H 0.9706 0.5097 0.4588
C12_8 C 0.9235(4) 0.5325(8) 0.3990(2)
H7_8 H 0.9187 0.4990 0.3817
C13_8 C 0.9045(4) 0.6235(7) 0.4016(2)
H8_8 H 0.8856 0.6488 0.3870
C14_8 C 0.8443(3) 0.9589(5) 0.38493(17)
C15_8 C 0.8222(4) 0.9099(6) 0.36185(19)
H9_8 H 0.8230 0.8432 0.3608
C16_8 C 0.7999(4) 0.9616(6) 0.34124(19)
H10_8 H 0.7837 0.9286 0.3268
C19_8 C 0.6669(3) 0.8808(6) 0.08112(18)
H13_8 H 0.6691 0.8616 0.0617
C20_8 C 0.7055(3) 0.8964(6) 0.09544(16)
H14_8 H 0.7342 0.8911 0.0860
C21_8 C 0.7041(3) 0.9209(5) 0.12468(15)
C22_8 C 0.6601(3) 0.9299(6) 0.13726(16)
H15_8 H 0.6573 0.9472 0.1568
C23_8 C 0.6219(3) 0.9138(6) 0.12123(17)
H16_8 H 0.5927 0.9186 0.1302
C24_8 C 0.7478(3) 0.9332(4) 0.14227(15)
C25_8 C 0.8256(3) 0.9354(5) 0.14616(15)
C26_8 C 0.7811(3) 0.9663(5) 0.18553(14)
C27_8 C 0.8721(3) 0.9230(6) 0.13252(16)
C28_8 C 0.8767(3) 0.9172(7) 0.10202(18)
H17_8 H 0.8504 0.9228 0.0901
C29_8 C 0.9195(3) 0.9032(7) 0.0902(2)
H18_8 H 0.9222 0.9002 0.0700
C30_8 C 0.9536(3) 0.9018(9) 0.1353(2)
H19_8 H 0.9802 0.8956 0.1468
C31_8 C 0.9124(3) 0.9185(8) 0.1486(2)
H20_8 H 0.9113 0.9270 0.1687
C32_8 C 0.7770(3) 0.9952(5) 0.21614(15)
C36_8 C 0.7332(3) 0.9969(6) 0.22958(16)
H24_8 H 0.7065 0.9775 0.2195
I3_8 I 0.93222(3) 0.26853(7) 0.37419(3)
I4_8 I 0.99530(3) 0.28618(7) 0.46288(2)
N2_8 N 0.9090(3) 0.8226(5) 0.45384(14)
N3_8 N 0.8767(2) 0.8173(4) 0.40621(14)
N4_8 N 0.8765(2) 0.9598(5) 0.43240(14)
N5_8 N 0.9479(2) 0.4913(5) 0.41952(15)
N8_8 N 0.7875(2) 0.9234(4) 0.12895(12)
N9_8 N 0.8244(2) 0.9573(4) 0.17389(13)
N10_8 N 0.7419(2) 0.9546(4) 0.17037(11)
I1_7 I 0.99656(2) 0.56612(8) 0.90293(2)
C1_8 C 0.5621(4) 0.0208(7) 0.0293(2)
H1_8 H 0.5483 0.0512 0.0452
C2_8 C 0.5709(4) 0.0743(7) 0.00439(19)
H2_8 H 0.5623 0.1387 0.0034
C4_8 C 0.6025(4) 0.9378(7) 0.98311(19)
H3_8 H 0.6181 0.9076 0.9679
C17_8 C 0.6755(4) 0.8972(6) 0.8610(2)
H11_8 H 0.6724 0.8308 0.8597
C18_8 C 0.6548(4) 0.9425(6) 0.88321(19)
H12_8 H 0.6398 0.9071 0.8976
C33_8 C 0.6846(3) 0.9732(7) 0.73210(17)
H21_8 H 0.6550 0.9720 0.7236
C34_8 C 0.6904(3) 0.9439(7) 0.76035(18)
H22_8 H 0.6644 0.9259 0.7712
C35_8 C 0.7697(3) 0.9723(6) 0.75785(16)
H23_8 H 0.7988 0.9737 0.7671
I5_8 I 0.70122(3) 0.70376(5) 0.80488(2)
N6_8 N 0.7004(3) 0.9425(5) 0.84043(14)
N12_8 N 0.7333(2) 0.9407(5) 0.77264(13)
Zn3_8 Zn 0.74073(4) 0.86588(7) 0.81163(2)
I6_8 I 0.82522(3) 0.86946(8) 0.82760(2)
I1_8 I 0.00344(2) 0.06612(8) 0.59707(2)
loop_
_geom_bond_atom_site_label_1
_geom_bond_atom_site_label_2
_geom_bond_site_symmetry_1
_geom_bond_site_symmetry_2
C1 H1 1_555 1_555
C2 C1 1_555 1_555
H2 C2 1_555 1_555
C3 C2 1_555 1_555
C4 C3 1_555 1_555
H3 C4 1_555 1_555
C5 C4 1_555 1_555
H4 C5 1_555 1_555
C6 C3 1_555 1_555
C7 C9 1_555 1_555
C8 C14 1_555 1_555
C9 C10 1_555 1_555
C10 H5 1_555 1_555
C11 C10 1_555 1_555
H6 C11 1_555 1_555
C13 C9 1_555 1_555
H8 C13 1_555 1_555
C14 C15 1_555 1_555
C15 H9 1_555 1_555
C16 C15 1_555 1_555
H10 C16 1_555 1_555
C17 H11 1_555 1_555
C18 C14 1_555 1_555
H12 C18 1_555 1_555
C19 H13 1_555 1_555
C20 C19 1_555 1_555
H14 C20 1_555 1_555
C21 C20 1_555 1_555
C22 C21 1_555 1_555
H15 C22 1_555 1_555
C23 C22 1_555 1_555
H16 C23 1_555 1_555
C24 C21 1_555 1_555
C25 C27 1_555 1_555
C26 C32 1_555 1_555
C27 C28 1_555 1_555
C28 H17 1_555 1_555
C29 C28 1_555 1_555
H18 C29 1_555 1_555
C30 H19 1_555 1_555
C31 C27 1_555 1_555
H20 C31 1_555 1_555
C32 C33 1_555 1_555
C33 H21 1_555 1_555
C34 C33 1_555 1_555
H22 C34 1_555 1_555
C35 H23 1_555 1_555
C36 C32 1_555 1_555
H24 C36 1_555 1_555
I1 Zn1 1_555 1_555
I2 Zn1 1_555 1_555
I5 Zn3 1_555 1_555
N1 C1 1_555 1_555
N2 C6 1_555 1_555
N3 C7 1_555 1_555
N4 C6 1_555 1_555
N6 C16 1_555 1_555
N7 C19 1_555 1_555
N8 C24 1_555 1_555
N9 C25 1_555 1_555
N10 C24 1_555 1_555
N11 C29 1_555 1_555
N12 C34 1_555 1_555
Zn1 N1 1_555 1_555
Zn3 N6 1_555 1_555
I6 Zn3 1_555 1_555
N13 Zn1 1_555 1_555
Zn4 N7 1_555 1_555
Zn5 N11 1_555 1_555
C5 N1 1_555 1_555
C7 N2 1_555 1_555
C8 N3 1_555 1_555
C8 N4 1_555 1_555
C12 C13 1_555 1_555
C17 C18 1_555 1_555
C17 N6 1_555 1_555
C23 N7 1_555 1_555
C25 N8 1_555 1_555
C26 N9 1_555 1_555
C26 N10 1_555 1_555
C30 C31 1_555 1_555
C30 N11 1_555 1_555
C35 C36 1_555 1_555
C35 N12 1_555 1_555
N12 Zn3 1_555 1_555
I3 Zn2 1_555 1_555
I4 Zn2 1_555 1_555
Zn2 N5 1_555 1_555
N14 Zn2 1_555 1_555
I3_2 Zn2_2 1_555 1_555
I4_2 Zn2_2 1_555 1_555
Zn2_2 N5_2 1_555 1_555
C1_2 H1_2 1_555 1_555
C2_2 C1_2 1_555 1_555
H2_2 C2_2 1_555 1_555
H4_2 C5_2 1_555 1_555
I2_2 Zn4 1_555 1_555
N1_2 C1_2 1_555 1_555
Zn4 N1_2 1_555 1_555
C5_2 N1_2 1_555 1_555
C4_2 C3_2 1_555 1_555
H3_2 C4_2 1_555 1_555
C6_2 C3_2 1_555 1_555
C7_2 C9_2 1_555 1_555
C8_2 C14_2 1_555 1_555
C9_2 C10_2 1_555 1_555
C10_2 H5_2 1_555 1_555
C11_2 C10_2 1_555 1_555
H6_2 C11_2 1_555 1_555
C13_2 C9_2 1_555 1_555
H8_2 C13_2 1_555 1_555
C14_2 C15_2 1_555 1_555
C15_2 H9_2 1_555 1_555
C16_2 C15_2 1_555 1_555
H10_2 C16_2 1_555 1_555
C17_2 H11_2 1_555 1_555
C18_2 C14_2 1_555 1_555
H12_2 C18_2 1_555 1_555
C19_2 H13_2 1_555 1_555
C20_2 C19_2 1_555 1_555
H14_2 C20_2 1_555 1_555
C21_2 C20_2 1_555 1_555
C22_2 C21_2 1_555 1_555
H15_2 C22_2 1_555 1_555
C23_2 C22_2 1_555 1_555
H16_2 C23_2 1_555 1_555
C24_2 C21_2 1_555 1_555
C25_2 C27_2 1_555 1_555
C26_2 C32_2 1_555 1_555
C27_2 C28_2 1_555 1_555
C28_2 H17_2 1_555 1_555
C29_2 C28_2 1_555 1_555
H18_2 C29_2 1_555 1_555
C30_2 H19_2 1_555 1_555
C31_2 C27_2 1_555 1_555
H20_2 C31_2 1_555 1_555
C32_2 C33_2 1_555 1_555
C33_2 H21_2 1_555 1_555
C34_2 C33_2 1_555 1_555
H22_2 C34_2 1_555 1_555
C35_2 H23_2 1_555 1_555
C36_2 C32_2 1_555 1_555
H24_2 C36_2 1_555 1_555
I5_2 Zn3_2 1_555 1_555
N2_2 C6_2 1_555 1_555
N3_2 C7_2 1_555 1_555
N4_2 C6_2 1_555 1_555
N6_2 C16_2 1_555 1_555
N13 C19_2 1_555 1_555
N8_2 C24_2 1_555 1_555
N9_2 C25_2 1_555 1_555
N10_2 C24_2 1_555 1_555
N11_2 C29_2 1_555 1_555
N12_2 C34_2 1_555 1_555
Zn3_2 N6_2 1_555 1_555
I6_2 Zn3_2 1_555 1_555
C7_2 N2_2 1_555 1_555
C8_2 N3_2 1_555 1_555
C8_2 N4_2 1_555 1_555
C12_2 C13_2 1_555 1_555
C17_2 C18_2 1_555 1_555
C17_2 N6_2 1_555 1_555
C23_2 N13 1_555 1_555
C25_2 N8_2 1_555 1_555
C26_2 N9_2 1_555 1_555
C26_2 N10_2 1_555 1_555
C30_2 C31_2 1_555 1_555
C30_2 N11_2 1_555 1_555
C35_2 C36_2 1_555 1_555
C35_2 N12_2 1_555 1_555
N12_2 Zn3_2 1_555 1_555
C6_3 C3_3 1_555 1_555
C7_3 C9_3 1_555 1_555
C8_3 C14_3 1_555 1_555
C9_3 C10_3 1_555 1_555
C10_3 H5_3 1_555 1_555
C11_3 C10_3 1_555 1_555
H6_3 C11_3 1_555 1_555
C12_3 H7_3 1_555 1_555
C13_3 C9_3 1_555 1_555
H8_3 C13_3 1_555 1_555
C14_3 C15_3 1_555 1_555
C15_3 H9_3 1_555 1_555
C16_3 C15_3 1_555 1_555
H10_3 C16_3 1_555 1_555
C19_3 H13_3 1_555 1_555
C20_3 C19_3 1_555 1_555
H14_3 C20_3 1_555 1_555
C21_3 C20_3 1_555 1_555
C22_3 C21_3 1_555 1_555
H15_3 C22_3 1_555 1_555
C23_3 C22_3 1_555 1_555
H16_3 C23_3 1_555 1_555
C24_3 C21_3 1_555 1_555
C25_3 C27_3 1_555 1_555
C26_3 C32_3 1_555 1_555
C27_3 C28_3 1_555 1_555
C28_3 H17_3 1_555 1_555
C29_3 C28_3 1_555 1_555
H18_3 C29_3 1_555 1_555
C30_3 H19_3 1_555 1_555
C31_3 C27_3 1_555 1_555
H20_3 C31_3 1_555 1_555
C36_3 C32_3 1_555 1_555
H24_3 C36_3 1_555 1_555
I3_3 Zn5 1_555 1_555
I4_3 Zn5 1_555 1_555
N2_3 C6_3 1_555 1_555
N3_3 C7_3 1_555 1_555
N4_3 C6_3 1_555 1_555
N5_3 C11_3 1_555 1_555
N7_2 C19_3 1_555 1_555
N8_3 C24_3 1_555 1_555
N9_3 C25_3 1_555 1_555
N10_3 C24_3 1_555 1_555
N14 C29_3 1_555 1_555
Zn5 N5_3 1_555 1_555
Zn4_2 N7_2 1_555 1_555
C7_3 N2_3 1_555 1_555
C8_3 N3_3 1_555 1_555
C8_3 N4_3 1_555 1_555
C12_3 C13_3 1_555 1_555
C12_3 N5_3 1_555 1_555
C23_3 N7_2 1_555 1_555
C25_3 N8_3 1_555 1_555
C26_3 N9_3 1_555 1_555
C26_3 N10_3 1_555 1_555
C30_3 C31_3 1_555 1_555
C30_3 N14 1_555 1_555
H3_3 C4_3 1_555 1_555
C5_3 C4_3 1_555 1_555
H4_3 C5_3 1_555 1_555
C17_3 H11_3 1_555 1_555
H12_3 C18_3 1_555 1_555
C33_3 H21_3 1_555 1_555
C34_3 C33_3 1_555 1_555
H22_3 C34_3 1_555 1_555
C35_3 H23_3 1_555 1_555
I2_3 Zn4_2 1_555 1_555
I5_3 Zn3_3 1_555 1_555
N12_3 C34_3 1_555 1_555
Zn4_2 N1_3 1_555 1_555
Zn3_3 N6_3 1_555 1_555
I6_3 Zn3_3 1_555 1_555
C5_3 N1_3 1_555 1_555
C17_3 C18_3 1_555 1_555
C17_3 N6_3 1_555 1_555
C35_3 N12_3 1_555 1_555
N12_3 Zn3_3 1_555 1_555
H4_4 C5_4 1_555 1_555
I1_2 Zn1_2 1_555 1_555
I2_4 Zn1_2 1_555 1_555
Zn1_2 N1_4 1_555 1_555
N13_2 Zn1_2 1_555 1_555
C5_4 N1_4 1_555 1_555
C1_3 H1_3 1_555 1_555
C2_3 C1_3 1_555 1_555
H2_3 C2_3 1_555 1_555
C3_4 C2_3 1_555 1_555
C6_4 C3_4 1_555 1_555
C7_4 C9_4 1_555 1_555
C8_4 C14_4 1_555 1_555
C9_4 C10_4 1_555 1_555
C10_4 H5_4 1_555 1_555
C11_4 C10_4 1_555 1_555
H6_4 C11_4 1_555 1_555
C12_4 H7_4 1_555 1_555
C13_4 C9_4 1_555 1_555
H8_4 C13_4 1_555 1_555
C14_4 C15_4 1_555 1_555
C15_4 H9_4 1_555 1_555
C16_4 C15_4 1_555 1_555
H10_4 C16_4 1_555 1_555
C19_4 H13_4 1_555 1_555
C20_4 C19_4 1_555 1_555
H14_4 C20_4 1_555 1_555
C21_4 C20_4 1_555 1_555
C22_4 C21_4 1_555 1_555
H15_4 C22_4 1_555 1_555
C23_4 C22_4 1_555 1_555
H16_4 C23_4 1_555 1_555
C24_4 C21_4 1_555 1_555
C25_4 C27_4 1_555 1_555
C26_4 C32_4 1_555 1_555
C27_4 C28_4 1_555 1_555
C28_4 H17_4 1_555 1_555
C29_4 C28_4 1_555 1_555
H18_4 C29_4 1_555 1_555
C30_4 H19_4 1_555 1_555
C31_4 C27_4 1_555 1_555
H20_4 C31_4 1_555 1_555
C36_4 C32_4 1_555 1_555
H24_4 C36_4 1_555 1_555
I3_4 Zn5_2 1_555 1_555
I4_4 Zn5_2 1_555 1_555
N2_4 C6_4 1_555 1_555
N3_4 C7_4 1_555 1_555
N4_4 C6_4 1_555 1_555
N5_4 C11_4 1_555 1_555
N13_2 C19_4 1_555 1_555
N8_4 C24_4 1_555 1_555
N9_4 C25_4 1_555 1_555
N10_4 C24_4 1_555 1_555
N14_2 C29_4 1_555 1_555
Zn5_2 N5_4 1_555 1_555
C7_4 N2_4 1_555 1_555
C8_4 N3_4 1_555 1_555
C8_4 N4_4 1_555 1_555
C12_4 C13_4 1_555 1_555
C12_4 N5_4 1_555 1_555
C23_4 N13_2 1_555 1_555
C25_4 N8_4 1_555 1_555
C26_4 N9_4 1_555 1_555
C26_4 N10_4 1_555 1_555
C30_4 C31_4 1_555 1_555
C30_4 N14_2 1_555 1_555
H3_4 C4_4 1_555 1_555
C17_4 H11_4 1_555 1_555
H12_4 C18_4 1_555 1_555
C33_4 H21_4 1_555 1_555
C34_4 C33_4 1_555 1_555
H22_4 C34_4 1_555 1_555
C35_4 H23_4 1_555 1_555
I5_4 Zn3_4 1_555 1_555
N12_4 C34_4 1_555 1_555
Zn3_4 N6_4 1_555 1_555
I6_4 Zn3_4 1_555 1_555
C17_4 C18_4 1_555 1_555
C17_4 N6_4 1_555 1_555
C35_4 N12_4 1_555 1_555
N12_4 Zn3_4 1_555 1_555
C1_4 H1_4 1_555 1_555
C2_4 C1_4 1_555 1_555
H2_4 C2_4 1_555 1_555
I3_5 Zn2_3 1_555 1_555
I4_5 Zn2_3 1_555 1_555
Zn2_3 N5_5 1_555 1_555
N14_3 Zn2_3 1_555 1_555
C1_5 H1_5 1_555 1_555
C2_5 C1_5 1_555 1_555
H2_5 C2_5 1_555 1_555
C3_5 C2_5 1_555 1_555
C4_5 C3_5 1_555 1_555
H3_5 C4_5 1_555 1_555
C5_5 C4_5 1_555 1_555
H4_5 C5_5 1_555 1_555
C6_5 C3_5 1_555 1_555
C7_5 C9_5 1_555 1_555
C8_5 C14_5 1_555 1_555
C9_5 C10_5 1_555 1_555
C10_5 H5_5 1_555 1_555
C11_5 C10_5 1_555 1_555
H6_5 C11_5 1_555 1_555
C13_5 C9_5 1_555 1_555
H8_5 C13_5 1_555 1_555
C14_5 C15_5 1_555 1_555
C15_5 H9_5 1_555 1_555
C16_5 C15_5 1_555 1_555
H10_5 C16_5 1_555 1_555
C17_5 H11_5 1_555 1_555
C18_5 C14_5 1_555 1_555
H12_5 C18_5 1_555 1_555
C19_5 H13_5 1_555 1_555
C20_5 C19_5 1_555 1_555
H14_5 C20_5 1_555 1_555
C21_5 C20_5 1_555 1_555
C22_5 C21_5 1_555 1_555
H15_5 C22_5 1_555 1_555
C23_5 C22_5 1_555 1_555
H16_5 C23_5 1_555 1_555
C24_5 C21_5 1_555 1_555
C25_5 C27_5 1_555 1_555
C26_5 C32_5 1_555 1_555
C27_5 C28_5 1_555 1_555
C28_5 H17_5 1_555 1_555
C29_5 C28_5 1_555 1_555
H18_5 C29_5 1_555 1_555
C30_5 H19_5 1_555 1_555
C31_5 C27_5 1_555 1_555
H20_5 C31_5 1_555 1_555
C32_5 C33_5 1_555 1_555
C33_5 H21_5 1_555 1_555
C34_5 C33_5 1_555 1_555
H22_5 C34_5 1_555 1_555
C35_5 H23_5 1_555 1_555
C36_5 C32_5 1_555 1_555
H24_5 C36_5 1_555 1_555
I1_5 Zn1_3 1_555 1_555
I2_5 Zn1_3 1_555 1_555
I5_5 Zn3_5 1_555 1_555
N1_5 C1_5 1_555 1_555
N2_5 C6_5 1_555 1_555
N3_5 C7_5 1_555 1_555
N4_5 C6_5 1_555 1_555
N6_5 C16_5 1_555 1_555
N7_3 C19_5 1_555 1_555
N8_5 C24_5 1_555 1_555
N9_5 C25_5 1_555 1_555
N10_5 C24_5 1_555 1_555
N11_3 C29_5 1_555 1_555
N12_5 C34_5 1_555 1_555
Zn1_3 N1_5 1_555 1_555
Zn3_5 N6_5 1_555 1_555
I6_5 Zn3_5 1_555 1_555
N13_3 Zn1_3 1_555 1_555
Zn4_3 N7_3 1_555 1_555
Zn5_3 N11_3 1_555 1_555
C5_5 N1_5 1_555 1_555
C7_5 N2_5 1_555 1_555
C8_5 N3_5 1_555 1_555
C8_5 N4_5 1_555 1_555
C12_5 C13_5 1_555 1_555
C17_5 C18_5 1_555 1_555
C17_5 N6_5 1_555 1_555
C23_5 N7_3 1_555 1_555
C25_5 N8_5 1_555 1_555
C26_5 N9_5 1_555 1_555
C26_5 N10_5 1_555 1_555
C30_5 C31_5 1_555 1_555
C30_5 N11_3 1_555 1_555
C35_5 C36_5 1_555 1_555
C35_5 N12_5 1_555 1_555
N12_5 Zn3_5 1_555 1_555
C4_6 C3_6 1_555 1_555
H3_6 C4_6 1_555 1_555
C6_6 C3_6 1_555 1_555
C7_6 C9_6 1_555 1_555
C8_6 C14_6 1_555 1_555
C9_6 C10_6 1_555 1_555
C10_6 H5_6 1_555 1_555
C11_6 C10_6 1_555 1_555
H6_6 C11_6 1_555 1_555
C13_6 C9_6 1_555 1_555
H8_6 C13_6 1_555 1_555
C14_6 C15_6 1_555 1_555
C15_6 H9_6 1_555 1_555
C16_6 C15_6 1_555 1_555
H10_6 C16_6 1_555 1_555
C17_6 H11_6 1_555 1_555
C18_6 C14_6 1_555 1_555
H12_6 C18_6 1_555 1_555
C19_6 H13_6 1_555 1_555
C20_6 C19_6 1_555 1_555
H14_6 C20_6 1_555 1_555
C21_6 C20_6 1_555 1_555
C22_6 C21_6 1_555 1_555
H15_6 C22_6 1_555 1_555
C23_6 C22_6 1_555 1_555
H16_6 C23_6 1_555 1_555
C24_6 C21_6 1_555 1_555
C25_6 C27_6 1_555 1_555
C26_6 C32_6 1_555 1_555
C27_6 C28_6 1_555 1_555
C28_6 H17_6 1_555 1_555
C29_6 C28_6 1_555 1_555
H18_6 C29_6 1_555 1_555
C30_6 H19_6 1_555 1_555
C31_6 C27_6 1_555 1_555
H20_6 C31_6 1_555 1_555
C32_6 C33_6 1_555 1_555
C33_6 H21_6 1_555 1_555
C34_6 C33_6 1_555 1_555
H22_6 C34_6 1_555 1_555
C35_6 H23_6 1_555 1_555
C36_6 C32_6 1_555 1_555
H24_6 C36_6 1_555 1_555
I5_6 Zn3_6 1_555 1_555
N2_6 C6_6 1_555 1_555
N3_6 C7_6 1_555 1_555
N4_6 C6_6 1_555 1_555
N6_6 C16_6 1_555 1_555
N13_3 C19_6 1_555 1_555
N8_6 C24_6 1_555 1_555
N9_6 C25_6 1_555 1_555
N10_6 C24_6 1_555 1_555
N11_4 C29_6 1_555 1_555
N12_6 C34_6 1_555 1_555
Zn3_6 N6_6 1_555 1_555
I6_6 Zn3_6 1_555 1_555
C7_6 N2_6 1_555 1_555
C8_6 N3_6 1_555 1_555
C8_6 N4_6 1_555 1_555
C12_6 C13_6 1_555 1_555
C17_6 C18_6 1_555 1_555
C17_6 N6_6 1_555 1_555
C23_6 N13_3 1_555 1_555
C25_6 N8_6 1_555 1_555
C26_6 N9_6 1_555 1_555
C26_6 N10_6 1_555 1_555
C30_6 C31_6 1_555 1_555
C30_6 N11_4 1_555 1_555
C35_6 C36_6 1_555 1_555
C35_6 N12_6 1_555 1_555
N12_6 Zn3_6 1_555 1_555
C1_6 H1_6 1_555 1_555
C2_6 C1_6 1_555 1_555
H2_6 C2_6 1_555 1_555
H4_6 C5_6 1_555 1_555
I2_6 Zn4_3 1_555 1_555
N1_6 C1_6 1_555 1_555
Zn4_3 N1_6 1_555 1_555
C5_6 N1_6 1_555 1_555
I3_6 Zn2_4 1_555 1_555
I4_6 Zn2_4 1_555 1_555
Zn2_4 N5_6 1_555 1_555
C6_7 C3_7 1_555 1_555
C7_7 C9_7 1_555 1_555
C8_7 C14_7 1_555 1_555
C9_7 C10_7 1_555 1_555
C10_7 H5_7 1_555 1_555
C11_7 C10_7 1_555 1_555
H6_7 C11_7 1_555 1_555
C12_7 H7_7 1_555 1_555
C13_7 C9_7 1_555 1_555
H8_7 C13_7 1_555 1_555
C14_7 C15_7 1_555 1_555
C15_7 H9_7 1_555 1_555
C16_7 C15_7 1_555 1_555
H10_7 C16_7 1_555 1_555
C19_7 H13_7 1_555 1_555
C20_7 C19_7 1_555 1_555
H14_7 C20_7 1_555 1_555
C21_7 C20_7 1_555 1_555
C22_7 C21_7 1_555 1_555
H15_7 C22_7 1_555 1_555
C23_7 C22_7 1_555 1_555
H16_7 C23_7 1_555 1_555
C24_7 C21_7 1_555 1_555
C25_7 C27_7 1_555 1_555
C26_7 C32_7 1_555 1_555
C27_7 C28_7 1_555 1_555
C28_7 H17_7 1_555 1_555
C29_7 C28_7 1_555 1_555
H18_7 C29_7 1_555 1_555
C30_7 H19_7 1_555 1_555
C31_7 C27_7 1_555 1_555
H20_7 C31_7 1_555 1_555
C36_7 C32_7 1_555 1_555
H24_7 C36_7 1_555 1_555
I3_7 Zn5_3 1_555 1_555
I4_7 Zn5_3 1_555 1_555
N2_7 C6_7 1_555 1_555
N3_7 C7_7 1_555 1_555
N4_7 C6_7 1_555 1_555
N5_7 C11_7 1_555 1_555
N7_4 C19_7 1_555 1_555
N8_7 C24_7 1_555 1_555
N9_7 C25_7 1_555 1_555
N10_7 C24_7 1_555 1_555
N14_3 C29_7 1_555 1_555
Zn5_3 N5_7 1_555 1_555
Zn4_4 N7_4 1_555 1_555
C7_7 N2_7 1_555 1_555
C8_7 N3_7 1_555 1_555
C8_7 N4_7 1_555 1_555
C12_7 C13_7 1_555 1_555
C12_7 N5_7 1_555 1_555
C23_7 N7_4 1_555 1_555
C25_7 N8_7 1_555 1_555
C26_7 N9_7 1_555 1_555
C26_7 N10_7 1_555 1_555
C30_7 C31_7 1_555 1_555
C30_7 N14_3 1_555 1_555
H3_7 C4_7 1_555 1_555
C5_7 C4_7 1_555 1_555
H4_7 C5_7 1_555 1_555
C17_7 H11_7 1_555 1_555
H12_7 C18_7 1_555 1_555
C33_7 H21_7 1_555 1_555
C34_7 C33_7 1_555 1_555
H22_7 C34_7 1_555 1_555
C35_7 H23_7 1_555 1_555
I2_7 Zn4_4 1_555 1_555
I5_7 Zn3_7 1_555 1_555
N12_7 C34_7 1_555 1_555
Zn4_4 N1_7 1_555 1_555
Zn3_7 N6_7 1_555 1_555
I6_7 Zn3_7 1_555 1_555
C5_7 N1_7 1_555 1_555
C17_7 C18_7 1_555 1_555
C17_7 N6_7 1_555 1_555
C35_7 N12_7 1_555 1_555
N12_7 Zn3_7 1_555 1_555
H4_8 C5_8 1_555 1_555
I1_6 Zn1_4 1_555 1_555
I2_8 Zn1_4 1_555 1_555
Zn1_4 N1_8 1_555 1_555
N13_4 Zn1_4 1_555 1_555
C5_8 N1_8 1_555 1_555
C1_7 H1_7 1_555 1_555
C2_7 C1_7 1_555 1_555
H2_7 C2_7 1_555 1_555
C3_8 C2_7 1_555 1_555
C6_8 C3_8 1_555 1_555
C7_8 C9_8 1_555 1_555
C8_8 C14_8 1_555 1_555
C9_8 C10_8 1_555 1_555
C10_8 H5_8 1_555 1_555
C11_8 C10_8 1_555 1_555
H6_8 C11_8 1_555 1_555
C12_8 H7_8 1_555 1_555
C13_8 C9_8 1_555 1_555
H8_8 C13_8 1_555 1_555
C14_8 C15_8 1_555 1_555
C15_8 H9_8 1_555 1_555
C16_8 C15_8 1_555 1_555
H10_8 C16_8 1_555 1_555
C19_8 H13_8 1_555 1_555
C20_8 C19_8 1_555 1_555
H14_8 C20_8 1_555 1_555
C21_8 C20_8 1_555 1_555
C22_8 C21_8 1_555 1_555
H15_8 C22_8 1_555 1_555
C23_8 C22_8 1_555 1_555
H16_8 C23_8 1_555 1_555
C24_8 C21_8 1_555 1_555
C25_8 C27_8 1_555 1_555
C26_8 C32_8 1_555 1_555
C27_8 C28_8 1_555 1_555
C28_8 H17_8 1_555 1_555
C29_8 C28_8 1_555 1_555
H18_8 C29_8 1_555 1_555
C30_8 H19_8 1_555 1_555
C31_8 C27_8 1_555 1_555
H20_8 C31_8 1_555 1_555
C36_8 C32_8 1_555 1_555
H24_8 C36_8 1_555 1_555
I3_8 Zn5_4 1_555 1_555
I4_8 Zn5_4 1_555 1_555
N2_8 C6_8 1_555 1_555
N3_8 C7_8 1_555 1_555
N4_8 C6_8 1_555 1_555
N5_8 C11_8 1_555 1_555
N13_4 C19_8 1_555 1_555
N8_8 C24_8 1_555 1_555
N9_8 C25_8 1_555 1_555
N10_8 C24_8 1_555 1_555
N14_4 C29_8 1_555 1_555
Zn5_4 N5_8 1_555 1_555
C7_8 N2_8 1_555 1_555
C8_8 N3_8 1_555 1_555
C8_8 N4_8 1_555 1_555
C12_8 C13_8 1_555 1_555
C12_8 N5_8 1_555 1_555
C23_8 N13_4 1_555 1_555
C25_8 N8_8 1_555 1_555
C26_8 N9_8 1_555 1_555
C26_8 N10_8 1_555 1_555
C30_8 C31_8 1_555 1_555
C30_8 N14_4 1_555 1_555
C1_8 H1_8 1_555 1_555
C2_8 C1_8 1_555 1_555
H2_8 C2_8 1_555 1_555
H3_8 C4_8 1_555 1_555
C17_8 H11_8 1_555 1_555
H12_8 C18_8 1_555 1_555
C33_8 H21_8 1_555 1_555
C34_8 C33_8 1_555 1_555
H22_8 C34_8 1_555 1_555
C35_8 H23_8 1_555 1_555
I5_8 Zn3_8 1_555 1_555
N12_8 C34_8 1_555 1_555
Zn3_8 N6_8 1_555 1_555
I6_8 Zn3_8 1_555 1_555
C17_8 C18_8 1_555 1_555
C17_8 N6_8 1_555 1_555
C35_8 N12_8 1_555 1_555
N12_8 Zn3_8 1_555 1_555

#END
