
###############################################################################
#
# This file contains modified crystal structure data generated from the
# MOF subset of the Cambridge Structural Database (CSD) v543 
# hosted by the Cambridge Crystallographic Data Centre (CCDC).
#
# This work is licensed under the Creative Commons
# Attribution-NonCommercial-ShareAlike 4.0 International License.
# To view a copy of this license, visit
# http://creativecommons.org/licenses/by-nc-sa/4.0/
# or send a letter to
# Creative Commons, PO Box 1866, Mountain View, CA 94042, USA.
#
# CIF created using the CSD Python API on 29 September 2022
# The structure has been converted into the P1 space group
# The structure has a 3D framework
# The original CSD entry KEVWUG is in the orthorhombic crystal system
# The framework has been calculated to contain at least 10.0% void space
# The void calculation uses a probe of radius 1.32A, grid spacing 0.4
#
###############################################################################

data_KEVWUG
_chemical_formula_moiety         '(C288 H192 I48 N96 Zn24)n'
_symmetry_cell_setting           triclinic
_symmetry_space_group_name_H-M   'P 1'
_symmetry_Int_Tables_number      1
_space_group_name_Hall           'P 1'
loop_
_symmetry_equiv_pos_site_id
_symmetry_equiv_pos_as_xyz
1 x,y,z
_cell_length_a                   29.179(5)
_cell_length_b                   14.0628(19)
_cell_length_c                   46.114(6)
_cell_angle_alpha                90
_cell_angle_beta                 90
_cell_angle_gamma                90
_cell_volume                     18922.3
loop_
_atom_site_label
_atom_site_type_symbol
_atom_site_fract_x
_atom_site_fract_y
_atom_site_fract_z
C1 C 0.5605(9) 0.4785(17) 0.5284(5)
H1 H 0.5451 0.4495 0.5437
C2 C 0.5706(10) 0.4193(18) 0.5041(5)
H2 H 0.5646 0.3543 0.5040
C3 C 0.5909(8) 0.4682(15) 0.4796(4)
C4 C 0.5950(10) 0.5674(17) 0.4818(5)
H3 H 0.5999 0.6031 0.4651
C5 C 0.5922(11) 0.6101(18) 0.5065(5)
H4 H 0.6050 0.6705 0.5080
C6 C 0.5997(8) 0.4097(15) 0.4537(4)
C7 C 0.5995(7) 0.2786(14) 0.4275(4)
C8 C 0.6286(7) 0.4071(14) 0.4073(4)
C9 C 0.5856(8) 0.1728(15) 0.4235(5)
C10 C 0.5548(9) 0.1330(17) 0.4477(6)
H5 H 0.5461 0.1683 0.4639
C11 C 0.5417(8) 0.0435(16) 0.4435(5)
H6 H 0.5256 0.0127 0.4582
C12 C 0.5725(10) 0.0355(18) 0.3989(6)
H7 H 0.5787 0.0001 0.3823
C13 C 0.5881(11) 0.1281(17) 0.3996(6)
H8 H 0.6001 0.1570 0.3831
C14 C 0.6537(7) 0.4557(13) 0.3838(4)
C15 C 0.6753(9) 0.4131(16) 0.3610(5)
H9 H 0.6774 0.3471 0.3604
C16 C 0.6934(9) 0.4636(16) 0.3396(5)
H10 H 0.7046 0.4302 0.3237
C17 C 0.6759(8) 0.6016(15) 0.3602(4)
H11 H 0.6765 0.6677 0.3600
C18 C 0.6534(9) 0.5525(15) 0.3822(5)
H12 H 0.6378 0.5870 0.3963
C19 C 0.8355(8) 0.3881(17) 0.0795(5)
H13 H 0.8347 0.3771 0.0596
C20 C 0.7930(7) 0.3987(13) 0.0945(4)
H14 H 0.7649 0.3923 0.0852
C21 C 0.7965(7) 0.4193(14) 0.1240(4)
C22 C 0.8378(7) 0.4341(13) 0.1374(4)
H15 H 0.8397 0.4517 0.1568
C23 C 0.8772(8) 0.4213(17) 0.1203(4)
H16 H 0.9058 0.4325 0.1285
C24 C 0.7508(7) 0.4354(13) 0.1408(4)
C25 C 0.6748(7) 0.4365(11) 0.1444(4)
C26 C 0.7199(7) 0.4661(11) 0.1831(4)
C27 C 0.6288(8) 0.4251(14) 0.1323(4)
C28 C 0.6250(8) 0.4191(18) 0.1010(5)
H17 H 0.6496 0.4265 0.0884
C29 C 0.5802(9) 0.4012(18) 0.0918(5)
H18 H 0.5766 0.3946 0.0719
C30 C 0.5451(9) 0.4038(17) 0.1331(5)
H19 H 0.5182 0.4000 0.1439
C31 C 0.5883(8) 0.4226(18) 0.1474(5)
H20 H 0.5886 0.4333 0.1673
C32 C 0.7216(7) 0.4989(11) 0.2160(4)
C33 C 0.6841(8) 0.5235(16) 0.2302(4)
H21 H 0.6553 0.5217 0.2216
C34 C 0.6912(9) 0.555(2) 0.2614(5)
H22 H 0.6655 0.5707 0.2724
C35 C 0.7697(7) 0.5304(13) 0.2572(4)
H23 H 0.7985 0.5297 0.2659
C36 C 0.7646(7) 0.5014(13) 0.2285(4)
H24 H 0.7902 0.4838 0.2177
I1 I 0.56916(11) 0.81720(16) 0.55911(6)
I4 I 0.70361(8) 0.79604(12) 0.30501(4)
N1 N 0.5703(6) 0.5702(13) 0.5318(4)
N2 N 0.5873(6) 0.3234(12) 0.4522(4)
N3 N 0.6200(5) 0.3176(11) 0.4038(3)
N4 N 0.6205(5) 0.4591(11) 0.4313(3)
N6 N 0.6968(6) 0.5515(11) 0.3389(3)
N7 N 0.8745(6) 0.3927(13) 0.0918(3)
N8 N 0.7132(6) 0.4210(11) 0.1273(3)
N9 N 0.6766(6) 0.4582(10) 0.1731(3)
N10 N 0.7579(6) 0.4581(10) 0.1699(3)
N11 N 0.5443(6) 0.3926(11) 0.1063(4)
N12 N 0.7308(6) 0.5610(11) 0.2734(3)
Zn1 Zn 0.56322(10) 0.6378(2) 0.56972(6)
Zn3 Zn 0.73925(10) 0.63053(18) 0.31120(5)
I5 I 0.49846(6) 0.55681(19) 0.59709(5)
I6 I 0.82274(8) 0.6223(2) 0.32815(5)
N13 N 0.6255(6) 0.6073(13) 0.5918(3)
Zn4 Zn 0.93678(10) 0.3622(2) 0.06972(6)
Zn5 Zn 0.48040(10) 0.35807(18) 0.08680(7)
I2 I 0.56584(8) 0.76829(19) 0.37485(7)
I3 I 0.50388(8) 0.79003(17) 0.46365(5)
N5 N 0.5508(6) 0.9954(13) 0.4188(4)
Zn2 Zn 0.51960(10) 0.85807(18) 0.41320(7)
N14 N 0.4557(6) 0.8926(11) 0.3937(4)
I2_2 I 0.93416(8) 0.23171(19) 0.87485(7)
I3_2 I 0.99612(8) 0.20997(17) 0.96365(5)
N5_2 N 0.9492(6) 0.0046(13) 0.9188(4)
Zn2_2 Zn 0.98040(10) 0.14193(18) 0.91320(7)
C1_2 C 0.9395(9) 0.5215(17) 0.0284(5)
H1_2 H 0.9549 0.5505 0.0437
C2_2 C 0.9294(10) 0.5807(18) 0.0041(5)
H2_2 H 0.9354 0.6457 0.0040
C5_2 C 0.9078(11) 0.3899(18) 0.0065(5)
H4_2 H 0.8950 0.3295 0.0080
I1_2 I 0.93084(11) 0.18280(16) 0.05911(6)
N1_2 N 0.9297(6) 0.4298(13) 0.0318(4)
C3_2 C 0.9091(8) 0.5318(15) 0.9796(4)
C4_2 C 0.9050(10) 0.4326(17) 0.9818(5)
H3_2 H 0.9001 0.3969 0.9651
C6_2 C 0.9003(8) 0.5903(15) 0.9537(4)
C7_2 C 0.9005(7) 0.7214(14) 0.9275(4)
C8_2 C 0.8714(7) 0.5929(14) 0.9073(4)
C9_2 C 0.9144(8) 0.8272(15) 0.9235(5)
C10_2 C 0.9452(9) 0.8670(17) 0.9477(6)
H5_2 H 0.9539 0.8317 0.9639
C11_2 C 0.9583(8) 0.9565(16) 0.9435(5)
H6_2 H 0.9744 0.9873 0.9582
C12_2 C 0.9275(10) 0.9645(18) 0.8989(6)
H7_2 H 0.9213 0.9999 0.8823
C13_2 C 0.9119(11) 0.8719(17) 0.8996(6)
H8_2 H 0.8999 0.8430 0.8831
C14_2 C 0.8463(7) 0.5443(13) 0.8838(4)
C15_2 C 0.8247(9) 0.5869(16) 0.8610(5)
H9_2 H 0.8226 0.6529 0.8604
C16_2 C 0.8066(9) 0.5364(16) 0.8396(5)
H10_2 H 0.7954 0.5698 0.8237
C17_2 C 0.8241(8) 0.3984(15) 0.8602(4)
H11_2 H 0.8235 0.3323 0.8600
C18_2 C 0.8466(9) 0.4475(15) 0.8822(5)
H12_2 H 0.8622 0.4130 0.8963
C19_2 C 0.6645(8) 0.6119(17) 0.5795(5)
H13_2 H 0.6653 0.6229 0.5596
C20_2 C 0.7070(7) 0.6013(13) 0.5945(4)
H14_2 H 0.7351 0.6077 0.5852
C21_2 C 0.7035(7) 0.5807(14) 0.6240(4)
C22_2 C 0.6622(7) 0.5659(13) 0.6374(4)
H15_2 H 0.6603 0.5483 0.6568
C23_2 C 0.6228(8) 0.5787(17) 0.6203(4)
H16_2 H 0.5942 0.5675 0.6285
C24_2 C 0.7492(7) 0.5646(13) 0.6408(4)
C25_2 C 0.8252(7) 0.5635(11) 0.6444(4)
C26_2 C 0.7801(7) 0.5339(11) 0.6831(4)
C27_2 C 0.8712(8) 0.5749(14) 0.6323(4)
C28_2 C 0.8750(8) 0.5809(18) 0.6010(5)
H17_2 H 0.8504 0.5735 0.5884
C29_2 C 0.9198(9) 0.5988(18) 0.5918(5)
H18_2 H 0.9234 0.6054 0.5719
C30_2 C 0.9549(9) 0.5962(17) 0.6331(5)
H19_2 H 0.9818 0.6000 0.6439
C31_2 C 0.9117(8) 0.5774(18) 0.6474(5)
H20_2 H 0.9114 0.5667 0.6673
C32_2 C 0.7784(7) 0.5011(11) 0.7160(4)
C33_2 C 0.8159(8) 0.4765(16) 0.7302(4)
H21_2 H 0.8447 0.4783 0.7216
C34_2 C 0.8088(9) 0.445(2) 0.7614(5)
H22_2 H 0.8345 0.4293 0.7724
C35_2 C 0.7303(7) 0.4696(13) 0.7572(4)
H23_2 H 0.7015 0.4703 0.7659
C36_2 C 0.7354(7) 0.4986(13) 0.7285(4)
H24_2 H 0.7098 0.5162 0.7177
I4_2 I 0.79639(8) 0.20396(12) 0.80501(4)
N2_2 N 0.9127(6) 0.6766(12) 0.9522(4)
N3_2 N 0.8800(5) 0.6824(11) 0.9038(3)
N4_2 N 0.8795(5) 0.5409(11) 0.9313(3)
N6_2 N 0.8032(6) 0.4485(11) 0.8389(3)
N8_2 N 0.7868(6) 0.5790(11) 0.6273(3)
N9_2 N 0.8234(6) 0.5418(10) 0.6731(3)
N10_2 N 0.7421(6) 0.5419(10) 0.6699(3)
N11_2 N 0.9557(6) 0.6074(11) 0.6063(4)
N12_2 N 0.7692(6) 0.4390(11) 0.7734(3)
Zn3_2 Zn 0.76075(10) 0.36947(18) 0.81120(5)
I6_2 I 0.67726(8) 0.3777(2) 0.82815(5)
C3_3 C 0.4091(8) 0.9682(15) 0.0204(4)
C6_3 C 0.4003(8) 0.9097(15) 0.0463(4)
C7_3 C 0.4005(7) 0.7786(14) 0.0725(4)
C8_3 C 0.3714(7) 0.9071(14) 0.0927(4)
C9_3 C 0.4144(8) 0.6728(15) 0.0765(5)
C10_3 C 0.4452(9) 0.6330(17) 0.0523(6)
H5_3 H 0.4539 0.6683 0.0361
C11_3 C 0.4583(8) 0.5435(16) 0.0565(5)
H6_3 H 0.4744 0.5127 0.0418
C12_3 C 0.4275(10) 0.5355(18) 0.1011(6)
H7_3 H 0.4213 0.5001 0.1177
C13_3 C 0.4119(11) 0.6281(17) 0.1004(6)
H8_3 H 0.3999 0.6570 0.1169
C14_3 C 0.3463(7) 0.9557(13) 0.1162(4)
C15_3 C 0.3247(9) 0.9131(16) 0.1390(5)
H9_3 H 0.3226 0.8471 0.1396
C16_3 C 0.3066(9) 0.9636(16) 0.1604(5)
H10_3 H 0.2954 0.9302 0.1763
C19_3 C 0.1645(8) 0.8881(17) 0.4205(5)
H13_3 H 0.1653 0.8771 0.4404
C20_3 C 0.2070(7) 0.8987(13) 0.4055(4)
H14_3 H 0.2351 0.8923 0.4148
C21_3 C 0.2035(7) 0.9193(14) 0.3760(4)
C22_3 C 0.1622(7) 0.9341(13) 0.3626(4)
H15_3 H 0.1603 0.9517 0.3432
C23_3 C 0.1228(8) 0.9213(17) 0.3797(4)
H16_3 H 0.0942 0.9325 0.3715
C24_3 C 0.2492(7) 0.9354(13) 0.3592(4)
C25_3 C 0.3252(7) 0.9365(11) 0.3556(4)
C26_3 C 0.2801(7) 0.9661(11) 0.3169(4)
C27_3 C 0.3712(8) 0.9251(14) 0.3677(4)
C28_3 C 0.3750(8) 0.9191(18) 0.3990(5)
H17_3 H 0.3504 0.9265 0.4116
C29_3 C 0.4198(9) 0.9012(18) 0.4082(5)
H18_3 H 0.4234 0.8946 0.4281
C30_3 C 0.4549(9) 0.9038(17) 0.3669(5)
H19_3 H 0.4818 0.9000 0.3561
C31_3 C 0.4117(8) 0.9226(18) 0.3526(5)
H20_3 H 0.4114 0.9333 0.3327
C32_3 C 0.2784(7) 0.9989(11) 0.2840(4)
H24_3 H 0.2098 0.9838 0.2823
I2_3 I 0.43416(8) 0.26829(19) 0.12515(7)
I3_3 I 0.49612(8) 0.29003(17) 0.03635(5)
N2_3 N 0.4127(6) 0.8234(12) 0.0478(4)
N3_3 N 0.3800(5) 0.8176(11) 0.0962(3)
N4_3 N 0.3795(5) 0.9591(11) 0.0687(3)
N5_3 N 0.4492(6) 0.4954(13) 0.0812(4)
N7_2 N 0.1255(6) 0.8927(13) 0.4082(3)
N8_3 N 0.2868(6) 0.9210(11) 0.3727(3)
N9_3 N 0.3234(6) 0.9582(10) 0.3269(3)
N10_3 N 0.2421(6) 0.9581(10) 0.3301(3)
Zn4_2 Zn 0.06322(10) 0.8622(2) 0.43028(6)
C4_3 C 0.0950(10) 0.9326(17) 0.5182(5)
H3_3 H 0.0999 0.8969 0.5349
C5_3 C 0.0922(11) 0.8899(18) 0.4935(5)
H4_3 H 0.1050 0.8295 0.4920
C17_3 C 0.1759(8) 0.8984(15) 0.6398(4)
H11_3 H 0.1765 0.8323 0.6400
C18_3 C 0.1534(9) 0.9475(15) 0.6178(5)
H12_3 H 0.1378 0.9130 0.6037
C33_3 C 0.1841(8) 0.9765(16) 0.7698(4)
H21_3 H 0.1553 0.9783 0.7784
C34_3 C 0.1912(9) 0.945(2) 0.7386(5)
H22_3 H 0.1655 0.9293 0.7276
C35_3 C 0.2697(7) 0.9696(13) 0.7428(4)
H23_3 H 0.2985 0.9703 0.7341
C36_3 C 0.2646(7) 0.9986(13) 0.7715(4)
I1_3 I 0.06916(11) 0.68280(16) 0.44089(6)
I4_3 I 0.20361(8) 0.70396(12) 0.69499(4)
N1_3 N 0.0703(6) 0.9298(13) 0.4682(4)
N6_3 N 0.1968(6) 0.9485(11) 0.6611(3)
N12_3 N 0.2308(6) 0.9390(11) 0.7266(3)
Zn3_3 Zn 0.23925(10) 0.86947(18) 0.68880(5)
I6_3 I 0.32274(8) 0.8777(2) 0.67185(5)
N14_2 N 0.0443(6) 0.1074(11) 0.8937(4)
Zn5_2 Zn 0.01960(10) 0.64193(18) 0.58680(7)
C5_4 C 0.4078(11) 0.1101(18) 0.9935(5)
H4_4 H 0.3950 0.1705 0.9920
I1_4 I 0.43084(11) 0.31720(16) 0.94089(6)
N1_4 N 0.4297(6) 0.0702(13) 0.9682(4)
Zn1_2 Zn 0.43678(10) 0.1378(2) 0.93028(6)
I5_2 I 0.50154(6) 0.05681(19) 0.90291(5)
N13_2 N 0.3745(6) 0.1073(13) 0.9082(3)
C1_3 C 0.0605(9) 0.0215(17) 0.4716(5)
H1_3 H 0.0451 0.0505 0.4563
C2_3 C 0.0706(10) 0.0807(18) 0.4959(5)
H2_3 H 0.0646 0.1457 0.4960
C3_4 C 0.0909(8) 0.0318(15) 0.5204(4)
C6_4 C 0.0997(8) 0.0903(15) 0.5463(4)
C7_4 C 0.0995(7) 0.2214(14) 0.5725(4)
C8_4 C 0.1286(7) 0.0929(14) 0.5927(4)
C9_4 C 0.0856(8) 0.3272(15) 0.5765(5)
C10_4 C 0.0548(9) 0.3670(17) 0.5523(6)
H5_4 H 0.0461 0.3317 0.5361
C11_4 C 0.0417(8) 0.4565(16) 0.5565(5)
H6_4 H 0.0256 0.4873 0.5418
C12_4 C 0.0725(10) 0.4645(18) 0.6011(6)
H7_4 H 0.0787 0.4999 0.6177
C13_4 C 0.0881(11) 0.3719(17) 0.6004(6)
H8_4 H 0.1001 0.3430 0.6169
C14_4 C 0.1537(7) 0.0443(13) 0.6162(4)
C15_4 C 0.1753(9) 0.0869(16) 0.6390(5)
H9_4 H 0.1774 0.1529 0.6396
C16_4 C 0.1934(9) 0.0364(16) 0.6604(5)
H10_4 H 0.2046 0.0698 0.6763
C19_4 C 0.3355(8) 0.1119(17) 0.9205(5)
H13_4 H 0.3347 0.1229 0.9404
C20_4 C 0.2930(7) 0.1013(13) 0.9055(4)
H14_4 H 0.2649 0.1077 0.9148
C21_4 C 0.2965(7) 0.0807(14) 0.8760(4)
C22_4 C 0.3378(7) 0.0659(13) 0.8626(4)
H15_4 H 0.3397 0.0483 0.8432
C23_4 C 0.3772(8) 0.0787(17) 0.8797(4)
H16_4 H 0.4058 0.0675 0.8715
C24_4 C 0.2508(7) 0.0646(13) 0.8592(4)
C25_4 C 0.1748(7) 0.0635(11) 0.8556(4)
C26_4 C 0.2199(7) 0.0339(11) 0.8169(4)
C27_4 C 0.1288(8) 0.0749(14) 0.8677(4)
C28_4 C 0.1250(8) 0.0809(18) 0.8990(5)
H17_4 H 0.1496 0.0735 0.9116
C29_4 C 0.0802(9) 0.0988(18) 0.9082(5)
H18_4 H 0.0766 0.1054 0.9281
C30_4 C 0.0451(9) 0.0962(17) 0.8669(5)
H19_4 H 0.0182 0.1000 0.8561
C31_4 C 0.0883(8) 0.0774(18) 0.8526(5)
H20_4 H 0.0886 0.0667 0.8327
C32_4 C 0.2216(7) 0.0011(11) 0.7840(4)
H24_4 H 0.2902 0.0162 0.7823
I2_4 I 0.06584(8) 0.73171(19) 0.62515(7)
I3_4 I 0.00388(8) 0.70997(17) 0.53635(5)
N2_4 N 0.0873(6) 0.1766(12) 0.5478(4)
N3_4 N 0.1200(5) 0.1824(11) 0.5962(3)
N4_4 N 0.1205(5) 0.0409(11) 0.5687(3)
N5_4 N 0.0508(6) 0.5046(13) 0.5812(4)
N8_4 N 0.2132(6) 0.0790(11) 0.8727(3)
N9_4 N 0.1766(6) 0.0418(10) 0.8269(3)
N10_4 N 0.2579(6) 0.0419(10) 0.8301(3)
I5_3 I 0.00154(6) 0.44319(19) 0.09709(5)
C4_4 C 0.4050(10) 0.0674(17) 0.0182(5)
H3_4 H 0.4001 0.1031 0.0349
C17_4 C 0.3241(8) 0.1016(15) 0.1398(4)
H11_4 H 0.3235 0.1677 0.1400
C18_4 C 0.3466(9) 0.0525(15) 0.1178(5)
H12_4 H 0.3622 0.0870 0.1037
C33_4 C 0.3159(8) 0.0235(16) 0.2698(4)
H21_4 H 0.3447 0.0217 0.2784
C34_4 C 0.3088(9) 0.055(2) 0.2386(5)
H22_4 H 0.3345 0.0707 0.2276
C35_4 C 0.2303(7) 0.0304(13) 0.2428(4)
H23_4 H 0.2015 0.0297 0.2341
C36_4 C 0.2354(7) 0.0014(13) 0.2715(4)
I4_4 I 0.29639(8) 0.29604(12) 0.19499(4)
N6_4 N 0.3032(6) 0.0515(11) 0.1611(3)
N12_4 N 0.2692(6) 0.0610(11) 0.2266(3)
Zn3_4 Zn 0.26075(10) 0.13053(18) 0.18880(5)
I6_4 I 0.17726(8) 0.1223(2) 0.17185(5)
C1_4 C 0.4395(9) 0.9785(17) 0.9716(5)
H1_4 H 0.4549 0.9495 0.9563
C2_4 C 0.4294(10) 0.9193(18) 0.9959(5)
H2_4 H 0.4354 0.8543 0.9960
I5_4 I 0.99846(6) 0.94319(19) 0.40291(5)
I2_5 I 0.43416(8) 0.23171(19) 0.62515(7)
I3_5 I 0.49612(8) 0.20997(17) 0.53635(5)
N5_5 N 0.4492(6) 0.0046(13) 0.5812(4)
Zn2_3 Zn 0.48040(10) 0.14193(18) 0.58680(7)
N14_3 N 0.5443(6) 0.1074(11) 0.6063(4)
C1_5 C 0.4395(9) 0.5215(17) 0.4716(5)
H1_5 H 0.4549 0.5505 0.4563
C2_5 C 0.4294(10) 0.5807(18) 0.4959(5)
H2_5 H 0.4354 0.6457 0.4960
C3_5 C 0.4091(8) 0.5318(15) 0.5204(4)
C4_5 C 0.4050(10) 0.4326(17) 0.5182(5)
H3_5 H 0.4001 0.3969 0.5349
C5_5 C 0.4078(11) 0.3899(18) 0.4935(5)
H4_5 H 0.3950 0.3295 0.4920
C6_5 C 0.4003(8) 0.5903(15) 0.5463(4)
C7_5 C 0.4005(7) 0.7214(14) 0.5725(4)
C8_5 C 0.3714(7) 0.5929(14) 0.5927(4)
C9_5 C 0.4144(8) 0.8272(15) 0.5765(5)
C10_5 C 0.4452(9) 0.8670(17) 0.5523(6)
H5_5 H 0.4539 0.8317 0.5361
C11_5 C 0.4583(8) 0.9565(16) 0.5565(5)
H6_5 H 0.4744 0.9873 0.5418
C12_5 C 0.4275(10) 0.9645(18) 0.6011(6)
H7_5 H 0.4213 0.9999 0.6177
C13_5 C 0.4119(11) 0.8719(17) 0.6004(6)
H8_5 H 0.3999 0.8430 0.6169
C14_5 C 0.3463(7) 0.5443(13) 0.6162(4)
C15_5 C 0.3247(9) 0.5869(16) 0.6390(5)
H9_5 H 0.3226 0.6529 0.6396
C16_5 C 0.3066(9) 0.5364(16) 0.6604(5)
H10_5 H 0.2954 0.5698 0.6763
C17_5 C 0.3241(8) 0.3984(15) 0.6398(4)
H11_5 H 0.3235 0.3323 0.6400
C18_5 C 0.3466(9) 0.4475(15) 0.6178(5)
H12_5 H 0.3622 0.4130 0.6037
C19_5 C 0.1645(8) 0.6119(17) 0.9205(5)
H13_5 H 0.1653 0.6229 0.9404
C20_5 C 0.2070(7) 0.6013(13) 0.9055(4)
H14_5 H 0.2351 0.6077 0.9148
C21_5 C 0.2035(7) 0.5807(14) 0.8760(4)
C22_5 C 0.1622(7) 0.5659(13) 0.8626(4)
H15_5 H 0.1603 0.5483 0.8432
C23_5 C 0.1228(8) 0.5787(17) 0.8797(4)
H16_5 H 0.0942 0.5675 0.8715
C24_5 C 0.2492(7) 0.5646(13) 0.8592(4)
C25_5 C 0.3252(7) 0.5635(11) 0.8556(4)
C26_5 C 0.2801(7) 0.5339(11) 0.8169(4)
C27_5 C 0.3712(8) 0.5749(14) 0.8677(4)
C28_5 C 0.3750(8) 0.5809(18) 0.8990(5)
H17_5 H 0.3504 0.5735 0.9116
C29_5 C 0.4198(9) 0.5988(18) 0.9082(5)
H18_5 H 0.4234 0.6054 0.9281
C30_5 C 0.4549(9) 0.5962(17) 0.8669(5)
H19_5 H 0.4818 0.6000 0.8561
C31_5 C 0.4117(8) 0.5774(18) 0.8526(5)
H20_5 H 0.4114 0.5667 0.8327
C32_5 C 0.2784(7) 0.5011(11) 0.7840(4)
C33_5 C 0.3159(8) 0.4765(16) 0.7698(4)
H21_5 H 0.3447 0.4783 0.7784
C34_5 C 0.3088(9) 0.445(2) 0.7386(5)
H22_5 H 0.3345 0.4293 0.7276
C35_5 C 0.2303(7) 0.4696(13) 0.7428(4)
H23_5 H 0.2015 0.4703 0.7341
C36_5 C 0.2354(7) 0.4986(13) 0.7715(4)
H24_5 H 0.2098 0.5162 0.7823
I1_5 I 0.43084(11) 0.18280(16) 0.44089(6)
I4_5 I 0.29639(8) 0.20396(12) 0.69499(4)
N1_5 N 0.4297(6) 0.4298(13) 0.4682(4)
N2_5 N 0.4127(6) 0.6766(12) 0.5478(4)
N3_5 N 0.3800(5) 0.6824(11) 0.5962(3)
N4_5 N 0.3795(5) 0.5409(11) 0.5687(3)
N6_5 N 0.3032(6) 0.4485(11) 0.6611(3)
N7_3 N 0.1255(6) 0.6073(13) 0.9082(3)
N8_5 N 0.2868(6) 0.5790(11) 0.8727(3)
N9_5 N 0.3234(6) 0.5418(10) 0.8269(3)
N10_5 N 0.2421(6) 0.5419(10) 0.8301(3)
N11_3 N 0.4557(6) 0.6074(11) 0.8937(4)
N12_5 N 0.2692(6) 0.4390(11) 0.7266(3)
Zn1_3 Zn 0.43678(10) 0.3622(2) 0.43028(6)
Zn3_5 Zn 0.26075(10) 0.36947(18) 0.68880(5)
I5_5 I 0.50154(6) 0.44319(19) 0.40291(5)
I6_5 I 0.17726(8) 0.3777(2) 0.67185(5)
N13_3 N 0.3745(6) 0.3927(13) 0.4082(3)
Zn4_3 Zn 0.06322(10) 0.6378(2) 0.93028(6)
Zn5_3 Zn 0.51960(10) 0.64193(18) 0.91320(7)
C3_6 C 0.0909(8) 0.4682(15) 0.0204(4)
C4_6 C 0.0950(10) 0.5674(17) 0.0182(5)
H3_6 H 0.0999 0.6031 0.0349
C6_6 C 0.0997(8) 0.4097(15) 0.0463(4)
C7_6 C 0.0995(7) 0.2786(14) 0.0725(4)
C8_6 C 0.1286(7) 0.4071(14) 0.0927(4)
C9_6 C 0.0856(8) 0.1728(15) 0.0765(5)
C10_6 C 0.0548(9) 0.1330(17) 0.0523(6)
H5_6 H 0.0461 0.1683 0.0361
C11_6 C 0.0417(8) 0.0435(16) 0.0565(5)
H6_6 H 0.0256 0.0127 0.0418
C12_6 C 0.0725(10) 0.0355(18) 0.1011(6)
H7_6 H 0.0787 0.0001 0.1177
C13_6 C 0.0881(11) 0.1281(17) 0.1004(6)
H8_6 H 0.1001 0.1570 0.1169
C14_6 C 0.1537(7) 0.4557(13) 0.1162(4)
C15_6 C 0.1753(9) 0.4131(16) 0.1390(5)
H9_6 H 0.1774 0.3471 0.1396
C16_6 C 0.1934(9) 0.4636(16) 0.1604(5)
H10_6 H 0.2046 0.4302 0.1763
C17_6 C 0.1759(8) 0.6016(15) 0.1398(4)
H11_6 H 0.1765 0.6677 0.1400
C18_6 C 0.1534(9) 0.5525(15) 0.1178(5)
H12_6 H 0.1378 0.5870 0.1037
C19_6 C 0.3355(8) 0.3881(17) 0.4205(5)
H13_6 H 0.3347 0.3771 0.4404
C20_6 C 0.2930(7) 0.3987(13) 0.4055(4)
H14_6 H 0.2649 0.3923 0.4148
C21_6 C 0.2965(7) 0.4193(14) 0.3760(4)
C22_6 C 0.3378(7) 0.4341(13) 0.3626(4)
H15_6 H 0.3397 0.4517 0.3432
C23_6 C 0.3772(8) 0.4213(17) 0.3797(4)
H16_6 H 0.4058 0.4325 0.3715
C24_6 C 0.2508(7) 0.4354(13) 0.3592(4)
C25_6 C 0.1748(7) 0.4365(11) 0.3556(4)
C26_6 C 0.2199(7) 0.4661(11) 0.3169(4)
C27_6 C 0.1288(8) 0.4251(14) 0.3677(4)
C28_6 C 0.1250(8) 0.4191(18) 0.3990(5)
H17_6 H 0.1496 0.4265 0.4116
C29_6 C 0.0802(9) 0.4012(18) 0.4082(5)
H18_6 H 0.0766 0.3946 0.4281
C30_6 C 0.0451(9) 0.4038(17) 0.3669(5)
H19_6 H 0.0182 0.4000 0.3561
C31_6 C 0.0883(8) 0.4226(18) 0.3526(5)
H20_6 H 0.0886 0.4333 0.3327
C32_6 C 0.2216(7) 0.4989(11) 0.2840(4)
C33_6 C 0.1841(8) 0.5235(16) 0.2698(4)
H21_6 H 0.1553 0.5217 0.2784
C34_6 C 0.1912(9) 0.555(2) 0.2386(5)
H22_6 H 0.1655 0.5707 0.2276
C35_6 C 0.2697(7) 0.5304(13) 0.2428(4)
H23_6 H 0.2985 0.5297 0.2341
C36_6 C 0.2646(7) 0.5014(13) 0.2715(4)
H24_6 H 0.2902 0.4838 0.2823
I4_6 I 0.20361(8) 0.79604(12) 0.19499(4)
N2_6 N 0.0873(6) 0.3234(12) 0.0478(4)
N3_6 N 0.1200(5) 0.3176(11) 0.0962(3)
N4_6 N 0.1205(5) 0.4591(11) 0.0687(3)
N6_6 N 0.1968(6) 0.5515(11) 0.1611(3)
N8_6 N 0.2132(6) 0.4210(11) 0.3727(3)
N9_6 N 0.1766(6) 0.4582(10) 0.3269(3)
N10_6 N 0.2579(6) 0.4581(10) 0.3301(3)
N11_4 N 0.0443(6) 0.3926(11) 0.3937(4)
N12_6 N 0.2308(6) 0.5610(11) 0.2266(3)
Zn3_6 Zn 0.23925(10) 0.63053(18) 0.18880(5)
I6_6 I 0.32274(8) 0.6223(2) 0.17185(5)
C1_6 C 0.0605(9) 0.4785(17) 0.9716(5)
H1_6 H 0.0451 0.4495 0.9563
C2_6 C 0.0706(10) 0.4193(18) 0.9959(5)
H2_6 H 0.0646 0.3543 0.9960
C5_6 C 0.0922(11) 0.6101(18) 0.9935(5)
H4_6 H 0.1050 0.6705 0.9920
I1_6 I 0.06916(11) 0.81720(16) 0.94089(6)
N1_6 N 0.0703(6) 0.5702(13) 0.9682(4)
I2_6 I 0.06584(8) 0.76829(19) 0.12515(7)
I3_6 I 0.00388(8) 0.79003(17) 0.03635(5)
N5_6 N 0.0508(6) 0.9954(13) 0.0812(4)
Zn2_4 Zn 0.01960(10) 0.85807(18) 0.08680(7)
C3_7 C 0.5909(8) 0.0318(15) 0.9796(4)
C6_7 C 0.5997(8) 0.0903(15) 0.9537(4)
C7_7 C 0.5995(7) 0.2214(14) 0.9275(4)
C8_7 C 0.6286(7) 0.0929(14) 0.9073(4)
C9_7 C 0.5856(8) 0.3272(15) 0.9235(5)
C10_7 C 0.5548(9) 0.3670(17) 0.9477(6)
H5_7 H 0.5461 0.3317 0.9639
C11_7 C 0.5417(8) 0.4565(16) 0.9435(5)
H6_7 H 0.5256 0.4873 0.9582
C12_7 C 0.5725(10) 0.4645(18) 0.8989(6)
H7_7 H 0.5787 0.4999 0.8823
C13_7 C 0.5881(11) 0.3719(17) 0.8996(6)
H8_7 H 0.6001 0.3430 0.8831
C14_7 C 0.6537(7) 0.0443(13) 0.8838(4)
C15_7 C 0.6753(9) 0.0869(16) 0.8610(5)
H9_7 H 0.6774 0.1529 0.8604
C16_7 C 0.6934(9) 0.0364(16) 0.8396(5)
H10_7 H 0.7046 0.0698 0.8237
C19_7 C 0.8355(8) 0.1119(17) 0.5795(5)
H13_7 H 0.8347 0.1229 0.5596
C20_7 C 0.7930(7) 0.1013(13) 0.5945(4)
H14_7 H 0.7649 0.1077 0.5852
C21_7 C 0.7965(7) 0.0807(14) 0.6240(4)
C22_7 C 0.8378(7) 0.0659(13) 0.6374(4)
H15_7 H 0.8397 0.0483 0.6568
C23_7 C 0.8772(8) 0.0787(17) 0.6203(4)
H16_7 H 0.9058 0.0675 0.6285
C24_7 C 0.7508(7) 0.0646(13) 0.6408(4)
C25_7 C 0.6748(7) 0.0635(11) 0.6444(4)
C26_7 C 0.7199(7) 0.0339(11) 0.6831(4)
C27_7 C 0.6288(8) 0.0749(14) 0.6323(4)
C28_7 C 0.6250(8) 0.0809(18) 0.6010(5)
H17_7 H 0.6496 0.0735 0.5884
C29_7 C 0.5802(9) 0.0988(18) 0.5918(5)
H18_7 H 0.5766 0.1054 0.5719
C30_7 C 0.5451(9) 0.0962(17) 0.6331(5)
H19_7 H 0.5182 0.1000 0.6439
C31_7 C 0.5883(8) 0.0774(18) 0.6474(5)
H20_7 H 0.5886 0.0667 0.6673
C32_7 C 0.7216(7) 0.0011(11) 0.7160(4)
H24_7 H 0.7902 0.0162 0.7177
I2_7 I 0.56584(8) 0.73171(19) 0.87485(7)
I3_7 I 0.50388(8) 0.70997(17) 0.96365(5)
N2_7 N 0.5873(6) 0.1766(12) 0.9522(4)
N3_7 N 0.6200(5) 0.1824(11) 0.9038(3)
N4_7 N 0.6205(5) 0.0409(11) 0.9313(3)
N5_7 N 0.5508(6) 0.5046(13) 0.9188(4)
N7_4 N 0.8745(6) 0.1073(13) 0.5918(3)
N8_7 N 0.7132(6) 0.0790(11) 0.6273(3)
N9_7 N 0.6766(6) 0.0418(10) 0.6731(3)
N10_7 N 0.7579(6) 0.0419(10) 0.6699(3)
Zn4_4 Zn 0.93678(10) 0.1378(2) 0.56972(6)
C4_7 C 0.9050(10) 0.0674(17) 0.4818(5)
H3_7 H 0.9001 0.1031 0.4651
C5_7 C 0.9078(11) 0.1101(18) 0.5065(5)
H4_7 H 0.8950 0.1705 0.5080
C17_7 C 0.8241(8) 0.1016(15) 0.3602(4)
H11_7 H 0.8235 0.1677 0.3600
C18_7 C 0.8466(9) 0.0525(15) 0.3822(5)
H12_7 H 0.8622 0.0870 0.3963
C33_7 C 0.8159(8) 0.0235(16) 0.2302(4)
H21_7 H 0.8447 0.0217 0.2216
C34_7 C 0.8088(9) 0.055(2) 0.2614(5)
H22_7 H 0.8345 0.0707 0.2724
C35_7 C 0.7303(7) 0.0304(13) 0.2572(4)
H23_7 H 0.7015 0.0297 0.2659
C36_7 C 0.7354(7) 0.0014(13) 0.2285(4)
I1_7 I 0.93084(11) 0.31720(16) 0.55911(6)
I4_7 I 0.79639(8) 0.29604(12) 0.30501(4)
N1_7 N 0.9297(6) 0.0702(13) 0.5318(4)
N6_7 N 0.8032(6) 0.0515(11) 0.3389(3)
N12_7 N 0.7692(6) 0.0610(11) 0.2734(3)
Zn3_7 Zn 0.76075(10) 0.13053(18) 0.31120(5)
I6_7 I 0.67726(8) 0.1223(2) 0.32815(5)
Zn5_4 Zn 0.98040(10) 0.35807(18) 0.41320(7)
N14_4 N 0.9557(6) 0.8926(11) 0.1063(4)
C5_8 C 0.5922(11) 0.8899(18) 0.0065(5)
H4_8 H 0.6050 0.8295 0.0080
I1_8 I 0.56916(11) 0.68280(16) 0.05911(6)
N1_8 N 0.5703(6) 0.9298(13) 0.0318(4)
Zn1_4 Zn 0.56322(10) 0.8622(2) 0.06972(6)
I5_6 I 0.49846(6) 0.94319(19) 0.09709(5)
N13_4 N 0.6255(6) 0.8927(13) 0.0918(3)
C1_7 C 0.9395(9) 0.9785(17) 0.5284(5)
H1_7 H 0.9549 0.9495 0.5437
C2_7 C 0.9294(10) 0.9193(18) 0.5041(5)
H2_7 H 0.9354 0.8543 0.5040
C3_8 C 0.9091(8) 0.9682(15) 0.4796(4)
C6_8 C 0.9003(8) 0.9097(15) 0.4537(4)
C7_8 C 0.9005(7) 0.7786(14) 0.4275(4)
C8_8 C 0.8714(7) 0.9071(14) 0.4073(4)
C9_8 C 0.9144(8) 0.6728(15) 0.4235(5)
C10_8 C 0.9452(9) 0.6330(17) 0.4477(6)
H5_8 H 0.9539 0.6683 0.4639
C11_8 C 0.9583(8) 0.5435(16) 0.4435(5)
H6_8 H 0.9744 0.5127 0.4582
C12_8 C 0.9275(10) 0.5355(18) 0.3989(6)
H7_8 H 0.9213 0.5001 0.3823
C13_8 C 0.9119(11) 0.6281(17) 0.3996(6)
H8_8 H 0.8999 0.6570 0.3831
C14_8 C 0.8463(7) 0.9557(13) 0.3838(4)
C15_8 C 0.8247(9) 0.9131(16) 0.3610(5)
H9_8 H 0.8226 0.8471 0.3604
C16_8 C 0.8066(9) 0.9636(16) 0.3396(5)
H10_8 H 0.7954 0.9302 0.3237
C19_8 C 0.6645(8) 0.8881(17) 0.0795(5)
H13_8 H 0.6653 0.8771 0.0596
C20_8 C 0.7070(7) 0.8987(13) 0.0945(4)
H14_8 H 0.7351 0.8923 0.0852
C21_8 C 0.7035(7) 0.9193(14) 0.1240(4)
C22_8 C 0.6622(7) 0.9341(13) 0.1374(4)
H15_8 H 0.6603 0.9517 0.1568
C23_8 C 0.6228(8) 0.9213(17) 0.1203(4)
H16_8 H 0.5942 0.9325 0.1285
C24_8 C 0.7492(7) 0.9354(13) 0.1408(4)
C25_8 C 0.8252(7) 0.9365(11) 0.1444(4)
C26_8 C 0.7801(7) 0.9661(11) 0.1831(4)
C27_8 C 0.8712(8) 0.9251(14) 0.1323(4)
C28_8 C 0.8750(8) 0.9191(18) 0.1010(5)
H17_8 H 0.8504 0.9265 0.0884
C29_8 C 0.9198(9) 0.9012(18) 0.0918(5)
H18_8 H 0.9234 0.8946 0.0719
C30_8 C 0.9549(9) 0.9038(17) 0.1331(5)
H19_8 H 0.9818 0.9000 0.1439
C31_8 C 0.9117(8) 0.9226(18) 0.1474(5)
H20_8 H 0.9114 0.9333 0.1673
C32_8 C 0.7784(7) 0.9989(11) 0.2160(4)
H24_8 H 0.7098 0.9838 0.2177
I2_8 I 0.93416(8) 0.26829(19) 0.37485(7)
I3_8 I 0.99612(8) 0.29003(17) 0.46365(5)
N2_8 N 0.9127(6) 0.8234(12) 0.4522(4)
N3_8 N 0.8800(5) 0.8176(11) 0.4038(3)
N4_8 N 0.8795(5) 0.9591(11) 0.4313(3)
N5_8 N 0.9492(6) 0.4954(13) 0.4188(4)
N8_8 N 0.7868(6) 0.9210(11) 0.1273(3)
N9_8 N 0.8234(6) 0.9582(10) 0.1731(3)
N10_8 N 0.7421(6) 0.9581(10) 0.1699(3)
I5_7 I 0.99846(6) 0.55681(19) 0.90291(5)
C1_8 C 0.5605(9) 0.0215(17) 0.0284(5)
H1_8 H 0.5451 0.0505 0.0437
C2_8 C 0.5706(10) 0.0807(18) 0.0041(5)
H2_8 H 0.5646 0.1457 0.0040
C4_8 C 0.5950(10) 0.9326(17) 0.9818(5)
H3_8 H 0.5999 0.8969 0.9651
C17_8 C 0.6759(8) 0.8984(15) 0.8602(4)
H11_8 H 0.6765 0.8323 0.8600
C18_8 C 0.6534(9) 0.9475(15) 0.8822(5)
H12_8 H 0.6378 0.9130 0.8963
C33_8 C 0.6841(8) 0.9765(16) 0.7302(4)
H21_8 H 0.6553 0.9783 0.7216
C34_8 C 0.6912(9) 0.945(2) 0.7614(5)
H22_8 H 0.6655 0.9293 0.7724
C35_8 C 0.7697(7) 0.9696(13) 0.7572(4)
H23_8 H 0.7985 0.9703 0.7659
C36_8 C 0.7646(7) 0.9986(13) 0.7285(4)
I4_8 I 0.70361(8) 0.70396(12) 0.80501(4)
N6_8 N 0.6968(6) 0.9485(11) 0.8389(3)
N12_8 N 0.7308(6) 0.9390(11) 0.7734(3)
Zn3_8 Zn 0.73925(10) 0.86947(18) 0.81120(5)
I6_8 I 0.82274(8) 0.8777(2) 0.82815(5)
I5_8 I 0.00154(6) 0.05681(19) 0.59709(5)
loop_
_geom_bond_atom_site_label_1
_geom_bond_atom_site_label_2
_geom_bond_site_symmetry_1
_geom_bond_site_symmetry_2
C1 H1 1_555 1_555
C2 C1 1_555 1_555
H2 C2 1_555 1_555
C3 C2 1_555 1_555
C4 C3 1_555 1_555
H3 C4 1_555 1_555
C5 C4 1_555 1_555
H4 C5 1_555 1_555
C6 C3 1_555 1_555
C7 C9 1_555 1_555
C8 C14 1_555 1_555
C9 C10 1_555 1_555
C10 H5 1_555 1_555
C11 C10 1_555 1_555
H6 C11 1_555 1_555
C12 H7 1_555 1_555
C13 C9 1_555 1_555
H8 C13 1_555 1_555
C14 C15 1_555 1_555
C15 H9 1_555 1_555
C16 C15 1_555 1_555
H10 C16 1_555 1_555
C17 H11 1_555 1_555
C18 C14 1_555 1_555
H12 C18 1_555 1_555
C19 H13 1_555 1_555
C20 C19 1_555 1_555
H14 C20 1_555 1_555
C21 C20 1_555 1_555
C22 C21 1_555 1_555
H15 C22 1_555 1_555
C23 C22 1_555 1_555
H16 C23 1_555 1_555
C24 C21 1_555 1_555
C25 C27 1_555 1_555
C26 C32 1_555 1_555
C27 C28 1_555 1_555
C28 H17 1_555 1_555
C29 C28 1_555 1_555
H18 C29 1_555 1_555
C30 H19 1_555 1_555
C31 C27 1_555 1_555
H20 C31 1_555 1_555
C32 C33 1_555 1_555
C33 H21 1_555 1_555
C34 C33 1_555 1_555
H22 C34 1_555 1_555
C35 H23 1_555 1_555
C36 C32 1_555 1_555
H24 C36 1_555 1_555
I1 Zn1 1_555 1_555
I4 Zn3 1_555 1_555
N1 C1 1_555 1_555
N2 C6 1_555 1_555
N3 C7 1_555 1_555
N4 C6 1_555 1_555
N6 C16 1_555 1_555
N7 C19 1_555 1_555
N8 C24 1_555 1_555
N9 C25 1_555 1_555
N10 C24 1_555 1_555
N11 C29 1_555 1_555
N12 C34 1_555 1_555
Zn1 N1 1_555 1_555
Zn3 N6 1_555 1_555
I5 Zn1 1_555 1_555
I6 Zn3 1_555 1_555
N13 Zn1 1_555 1_555
Zn4 N7 1_555 1_555
Zn5 N11 1_555 1_555
C5 N1 1_555 1_555
C7 N2 1_555 1_555
C8 N3 1_555 1_555
C8 N4 1_555 1_555
C12 C13 1_555 1_555
C17 C18 1_555 1_555
C17 N6 1_555 1_555
C23 N7 1_555 1_555
C25 N8 1_555 1_555
C26 N9 1_555 1_555
C26 N10 1_555 1_555
C30 C31 1_555 1_555
C30 N11 1_555 1_555
C35 C36 1_555 1_555
C35 N12 1_555 1_555
N12 Zn3 1_555 1_555
I2 Zn2 1_555 1_555
I3 Zn2 1_555 1_555
Zn2 N5 1_555 1_555
N14 Zn2 1_555 1_555
I2_2 Zn2_2 1_555 1_555
I3_2 Zn2_2 1_555 1_555
Zn2_2 N5_2 1_555 1_555
C1_2 H1_2 1_555 1_555
C2_2 C1_2 1_555 1_555
H2_2 C2_2 1_555 1_555
H4_2 C5_2 1_555 1_555
I1_2 Zn4 1_555 1_555
N1_2 C1_2 1_555 1_555
Zn4 N1_2 1_555 1_555
C5_2 N1_2 1_555 1_555
C4_2 C3_2 1_555 1_555
H3_2 C4_2 1_555 1_555
C6_2 C3_2 1_555 1_555
C7_2 C9_2 1_555 1_555
C8_2 C14_2 1_555 1_555
C9_2 C10_2 1_555 1_555
C10_2 H5_2 1_555 1_555
C11_2 C10_2 1_555 1_555
H6_2 C11_2 1_555 1_555
C12_2 H7_2 1_555 1_555
C13_2 C9_2 1_555 1_555
H8_2 C13_2 1_555 1_555
C14_2 C15_2 1_555 1_555
C15_2 H9_2 1_555 1_555
C16_2 C15_2 1_555 1_555
H10_2 C16_2 1_555 1_555
C17_2 H11_2 1_555 1_555
C18_2 C14_2 1_555 1_555
H12_2 C18_2 1_555 1_555
C19_2 H13_2 1_555 1_555
C20_2 C19_2 1_555 1_555
H14_2 C20_2 1_555 1_555
C21_2 C20_2 1_555 1_555
C22_2 C21_2 1_555 1_555
H15_2 C22_2 1_555 1_555
C23_2 C22_2 1_555 1_555
H16_2 C23_2 1_555 1_555
C24_2 C21_2 1_555 1_555
C25_2 C27_2 1_555 1_555
C26_2 C32_2 1_555 1_555
C27_2 C28_2 1_555 1_555
C28_2 H17_2 1_555 1_555
C29_2 C28_2 1_555 1_555
H18_2 C29_2 1_555 1_555
C30_2 H19_2 1_555 1_555
C31_2 C27_2 1_555 1_555
H20_2 C31_2 1_555 1_555
C32_2 C33_2 1_555 1_555
C33_2 H21_2 1_555 1_555
C34_2 C33_2 1_555 1_555
H22_2 C34_2 1_555 1_555
C35_2 H23_2 1_555 1_555
C36_2 C32_2 1_555 1_555
H24_2 C36_2 1_555 1_555
I4_2 Zn3_2 1_555 1_555
N2_2 C6_2 1_555 1_555
N3_2 C7_2 1_555 1_555
N4_2 C6_2 1_555 1_555
N6_2 C16_2 1_555 1_555
N13 C19_2 1_555 1_555
N8_2 C24_2 1_555 1_555
N9_2 C25_2 1_555 1_555
N10_2 C24_2 1_555 1_555
N11_2 C29_2 1_555 1_555
N12_2 C34_2 1_555 1_555
Zn3_2 N6_2 1_555 1_555
I6_2 Zn3_2 1_555 1_555
C7_2 N2_2 1_555 1_555
C8_2 N3_2 1_555 1_555
C8_2 N4_2 1_555 1_555
C12_2 C13_2 1_555 1_555
C17_2 C18_2 1_555 1_555
C17_2 N6_2 1_555 1_555
C23_2 N13 1_555 1_555
C25_2 N8_2 1_555 1_555
C26_2 N9_2 1_555 1_555
C26_2 N10_2 1_555 1_555
C30_2 C31_2 1_555 1_555
C30_2 N11_2 1_555 1_555
C35_2 C36_2 1_555 1_555
C35_2 N12_2 1_555 1_555
N12_2 Zn3_2 1_555 1_555
C6_3 C3_3 1_555 1_555
C7_3 C9_3 1_555 1_555
C8_3 C14_3 1_555 1_555
C9_3 C10_3 1_555 1_555
C10_3 H5_3 1_555 1_555
C11_3 C10_3 1_555 1_555
H6_3 C11_3 1_555 1_555
C12_3 H7_3 1_555 1_555
C13_3 C9_3 1_555 1_555
H8_3 C13_3 1_555 1_555
C14_3 C15_3 1_555 1_555
C15_3 H9_3 1_555 1_555
C16_3 C15_3 1_555 1_555
H10_3 C16_3 1_555 1_555
C19_3 H13_3 1_555 1_555
C20_3 C19_3 1_555 1_555
H14_3 C20_3 1_555 1_555
C21_3 C20_3 1_555 1_555
C22_3 C21_3 1_555 1_555
H15_3 C22_3 1_555 1_555
C23_3 C22_3 1_555 1_555
H16_3 C23_3 1_555 1_555
C24_3 C21_3 1_555 1_555
C25_3 C27_3 1_555 1_555
C26_3 C32_3 1_555 1_555
C27_3 C28_3 1_555 1_555
C28_3 H17_3 1_555 1_555
C29_3 C28_3 1_555 1_555
H18_3 C29_3 1_555 1_555
C30_3 H19_3 1_555 1_555
C31_3 C27_3 1_555 1_555
H20_3 C31_3 1_555 1_555
I2_3 Zn5 1_555 1_555
I3_3 Zn5 1_555 1_555
N2_3 C6_3 1_555 1_555
N3_3 C7_3 1_555 1_555
N4_3 C6_3 1_555 1_555
N5_3 C11_3 1_555 1_555
N7_2 C19_3 1_555 1_555
N8_3 C24_3 1_555 1_555
N9_3 C25_3 1_555 1_555
N10_3 C24_3 1_555 1_555
N14 C29_3 1_555 1_555
Zn5 N5_3 1_555 1_555
Zn4_2 N7_2 1_555 1_555
C7_3 N2_3 1_555 1_555
C8_3 N3_3 1_555 1_555
C8_3 N4_3 1_555 1_555
C12_3 C13_3 1_555 1_555
C12_3 N5_3 1_555 1_555
C23_3 N7_2 1_555 1_555
C25_3 N8_3 1_555 1_555
C26_3 N9_3 1_555 1_555
C26_3 N10_3 1_555 1_555
C30_3 C31_3 1_555 1_555
C30_3 N14 1_555 1_555
H3_3 C4_3 1_555 1_555
C5_3 C4_3 1_555 1_555
H4_3 C5_3 1_555 1_555
C17_3 H11_3 1_555 1_555
H12_3 C18_3 1_555 1_555
C33_3 H21_3 1_555 1_555
C34_3 C33_3 1_555 1_555
H22_3 C34_3 1_555 1_555
C35_3 H23_3 1_555 1_555
I1_3 Zn4_2 1_555 1_555
I4_3 Zn3_3 1_555 1_555
N12_3 C34_3 1_555 1_555
Zn4_2 N1_3 1_555 1_555
Zn3_3 N6_3 1_555 1_555
I6_3 Zn3_3 1_555 1_555
C5_3 N1_3 1_555 1_555
C17_3 C18_3 1_555 1_555
C17_3 N6_3 1_555 1_555
C35_3 C36_3 1_555 1_555
C35_3 N12_3 1_555 1_555
N12_3 Zn3_3 1_555 1_555
H4_4 C5_4 1_555 1_555
I1_4 Zn1_2 1_555 1_555
Zn1_2 N1_4 1_555 1_555
I5_2 Zn1_2 1_555 1_555
N13_2 Zn1_2 1_555 1_555
C5_4 N1_4 1_555 1_555
C1_3 H1_3 1_555 1_555
C2_3 C1_3 1_555 1_555
H2_3 C2_3 1_555 1_555
C3_4 C2_3 1_555 1_555
C6_4 C3_4 1_555 1_555
C7_4 C9_4 1_555 1_555
C8_4 C14_4 1_555 1_555
C9_4 C10_4 1_555 1_555
C10_4 H5_4 1_555 1_555
C11_4 C10_4 1_555 1_555
H6_4 C11_4 1_555 1_555
C12_4 H7_4 1_555 1_555
C13_4 C9_4 1_555 1_555
H8_4 C13_4 1_555 1_555
C14_4 C15_4 1_555 1_555
C15_4 H9_4 1_555 1_555
C16_4 C15_4 1_555 1_555
H10_4 C16_4 1_555 1_555
C19_4 H13_4 1_555 1_555
C20_4 C19_4 1_555 1_555
H14_4 C20_4 1_555 1_555
C21_4 C20_4 1_555 1_555
C22_4 C21_4 1_555 1_555
H15_4 C22_4 1_555 1_555
C23_4 C22_4 1_555 1_555
H16_4 C23_4 1_555 1_555
C24_4 C21_4 1_555 1_555
C25_4 C27_4 1_555 1_555
C26_4 C32_4 1_555 1_555
C27_4 C28_4 1_555 1_555
C28_4 H17_4 1_555 1_555
C29_4 C28_4 1_555 1_555
H18_4 C29_4 1_555 1_555
C30_4 H19_4 1_555 1_555
C31_4 C27_4 1_555 1_555
H20_4 C31_4 1_555 1_555
I2_4 Zn5_2 1_555 1_555
I3_4 Zn5_2 1_555 1_555
N2_4 C6_4 1_555 1_555
N3_4 C7_4 1_555 1_555
N4_4 C6_4 1_555 1_555
N5_4 C11_4 1_555 1_555
N13_2 C19_4 1_555 1_555
N8_4 C24_4 1_555 1_555
N9_4 C25_4 1_555 1_555
N10_4 C24_4 1_555 1_555
N14_2 C29_4 1_555 1_555
Zn5_2 N5_4 1_555 1_555
C7_4 N2_4 1_555 1_555
C8_4 N3_4 1_555 1_555
C8_4 N4_4 1_555 1_555
C12_4 C13_4 1_555 1_555
C12_4 N5_4 1_555 1_555
C23_4 N13_2 1_555 1_555
C25_4 N8_4 1_555 1_555
C26_4 N9_4 1_555 1_555
C26_4 N10_4 1_555 1_555
C30_4 C31_4 1_555 1_555
C30_4 N14_2 1_555 1_555
H3_4 C4_4 1_555 1_555
C17_4 H11_4 1_555 1_555
H12_4 C18_4 1_555 1_555
C33_4 H21_4 1_555 1_555
C34_4 C33_4 1_555 1_555
H22_4 C34_4 1_555 1_555
C35_4 H23_4 1_555 1_555
I4_4 Zn3_4 1_555 1_555
N12_4 C34_4 1_555 1_555
Zn3_4 N6_4 1_555 1_555
I6_4 Zn3_4 1_555 1_555
C17_4 C18_4 1_555 1_555
C17_4 N6_4 1_555 1_555
C35_4 C36_4 1_555 1_555
C35_4 N12_4 1_555 1_555
N12_4 Zn3_4 1_555 1_555
C1_4 H1_4 1_555 1_555
C2_4 C1_4 1_555 1_555
H2_4 C2_4 1_555 1_555
I2_5 Zn2_3 1_555 1_555
I3_5 Zn2_3 1_555 1_555
Zn2_3 N5_5 1_555 1_555
N14_3 Zn2_3 1_555 1_555
C1_5 H1_5 1_555 1_555
C2_5 C1_5 1_555 1_555
H2_5 C2_5 1_555 1_555
C3_5 C2_5 1_555 1_555
C4_5 C3_5 1_555 1_555
H3_5 C4_5 1_555 1_555
C5_5 C4_5 1_555 1_555
H4_5 C5_5 1_555 1_555
C6_5 C3_5 1_555 1_555
C7_5 C9_5 1_555 1_555
C8_5 C14_5 1_555 1_555
C9_5 C10_5 1_555 1_555
C10_5 H5_5 1_555 1_555
C11_5 C10_5 1_555 1_555
H6_5 C11_5 1_555 1_555
C12_5 H7_5 1_555 1_555
C13_5 C9_5 1_555 1_555
H8_5 C13_5 1_555 1_555
C14_5 C15_5 1_555 1_555
C15_5 H9_5 1_555 1_555
C16_5 C15_5 1_555 1_555
H10_5 C16_5 1_555 1_555
C17_5 H11_5 1_555 1_555
C18_5 C14_5 1_555 1_555
H12_5 C18_5 1_555 1_555
C19_5 H13_5 1_555 1_555
C20_5 C19_5 1_555 1_555
H14_5 C20_5 1_555 1_555
C21_5 C20_5 1_555 1_555
C22_5 C21_5 1_555 1_555
H15_5 C22_5 1_555 1_555
C23_5 C22_5 1_555 1_555
H16_5 C23_5 1_555 1_555
C24_5 C21_5 1_555 1_555
C25_5 C27_5 1_555 1_555
C26_5 C32_5 1_555 1_555
C27_5 C28_5 1_555 1_555
C28_5 H17_5 1_555 1_555
C29_5 C28_5 1_555 1_555
H18_5 C29_5 1_555 1_555
C30_5 H19_5 1_555 1_555
C31_5 C27_5 1_555 1_555
H20_5 C31_5 1_555 1_555
C32_5 C33_5 1_555 1_555
C33_5 H21_5 1_555 1_555
C34_5 C33_5 1_555 1_555
H22_5 C34_5 1_555 1_555
C35_5 H23_5 1_555 1_555
C36_5 C32_5 1_555 1_555
H24_5 C36_5 1_555 1_555
I1_5 Zn1_3 1_555 1_555
I4_5 Zn3_5 1_555 1_555
N1_5 C1_5 1_555 1_555
N2_5 C6_5 1_555 1_555
N3_5 C7_5 1_555 1_555
N4_5 C6_5 1_555 1_555
N6_5 C16_5 1_555 1_555
N7_3 C19_5 1_555 1_555
N8_5 C24_5 1_555 1_555
N9_5 C25_5 1_555 1_555
N10_5 C24_5 1_555 1_555
N11_3 C29_5 1_555 1_555
N12_5 C34_5 1_555 1_555
Zn1_3 N1_5 1_555 1_555
Zn3_5 N6_5 1_555 1_555
I5_5 Zn1_3 1_555 1_555
I6_5 Zn3_5 1_555 1_555
N13_3 Zn1_3 1_555 1_555
Zn4_3 N7_3 1_555 1_555
Zn5_3 N11_3 1_555 1_555
C5_5 N1_5 1_555 1_555
C7_5 N2_5 1_555 1_555
C8_5 N3_5 1_555 1_555
C8_5 N4_5 1_555 1_555
C12_5 C13_5 1_555 1_555
C17_5 C18_5 1_555 1_555
C17_5 N6_5 1_555 1_555
C23_5 N7_3 1_555 1_555
C25_5 N8_5 1_555 1_555
C26_5 N9_5 1_555 1_555
C26_5 N10_5 1_555 1_555
C30_5 C31_5 1_555 1_555
C30_5 N11_3 1_555 1_555
C35_5 C36_5 1_555 1_555
C35_5 N12_5 1_555 1_555
N12_5 Zn3_5 1_555 1_555
C4_6 C3_6 1_555 1_555
H3_6 C4_6 1_555 1_555
C6_6 C3_6 1_555 1_555
C7_6 C9_6 1_555 1_555
C8_6 C14_6 1_555 1_555
C9_6 C10_6 1_555 1_555
C10_6 H5_6 1_555 1_555
C11_6 C10_6 1_555 1_555
H6_6 C11_6 1_555 1_555
C12_6 H7_6 1_555 1_555
C13_6 C9_6 1_555 1_555
H8_6 C13_6 1_555 1_555
C14_6 C15_6 1_555 1_555
C15_6 H9_6 1_555 1_555
C16_6 C15_6 1_555 1_555
H10_6 C16_6 1_555 1_555
C17_6 H11_6 1_555 1_555
C18_6 C14_6 1_555 1_555
H12_6 C18_6 1_555 1_555
C19_6 H13_6 1_555 1_555
C20_6 C19_6 1_555 1_555
H14_6 C20_6 1_555 1_555
C21_6 C20_6 1_555 1_555
C22_6 C21_6 1_555 1_555
H15_6 C22_6 1_555 1_555
C23_6 C22_6 1_555 1_555
H16_6 C23_6 1_555 1_555
C24_6 C21_6 1_555 1_555
C25_6 C27_6 1_555 1_555
C26_6 C32_6 1_555 1_555
C27_6 C28_6 1_555 1_555
C28_6 H17_6 1_555 1_555
C29_6 C28_6 1_555 1_555
H18_6 C29_6 1_555 1_555
C30_6 H19_6 1_555 1_555
C31_6 C27_6 1_555 1_555
H20_6 C31_6 1_555 1_555
C32_6 C33_6 1_555 1_555
C33_6 H21_6 1_555 1_555
C34_6 C33_6 1_555 1_555
H22_6 C34_6 1_555 1_555
C35_6 H23_6 1_555 1_555
C36_6 C32_6 1_555 1_555
H24_6 C36_6 1_555 1_555
I4_6 Zn3_6 1_555 1_555
N2_6 C6_6 1_555 1_555
N3_6 C7_6 1_555 1_555
N4_6 C6_6 1_555 1_555
N6_6 C16_6 1_555 1_555
N13_3 C19_6 1_555 1_555
N8_6 C24_6 1_555 1_555
N9_6 C25_6 1_555 1_555
N10_6 C24_6 1_555 1_555
N11_4 C29_6 1_555 1_555
N12_6 C34_6 1_555 1_555
Zn3_6 N6_6 1_555 1_555
I6_6 Zn3_6 1_555 1_555
C7_6 N2_6 1_555 1_555
C8_6 N3_6 1_555 1_555
C8_6 N4_6 1_555 1_555
C12_6 C13_6 1_555 1_555
C17_6 C18_6 1_555 1_555
C17_6 N6_6 1_555 1_555
C23_6 N13_3 1_555 1_555
C25_6 N8_6 1_555 1_555
C26_6 N9_6 1_555 1_555
C26_6 N10_6 1_555 1_555
C30_6 C31_6 1_555 1_555
C30_6 N11_4 1_555 1_555
C35_6 C36_6 1_555 1_555
C35_6 N12_6 1_555 1_555
N12_6 Zn3_6 1_555 1_555
C1_6 H1_6 1_555 1_555
C2_6 C1_6 1_555 1_555
H2_6 C2_6 1_555 1_555
H4_6 C5_6 1_555 1_555
I1_6 Zn4_3 1_555 1_555
N1_6 C1_6 1_555 1_555
Zn4_3 N1_6 1_555 1_555
C5_6 N1_6 1_555 1_555
I2_6 Zn2_4 1_555 1_555
I3_6 Zn2_4 1_555 1_555
Zn2_4 N5_6 1_555 1_555
C6_7 C3_7 1_555 1_555
C7_7 C9_7 1_555 1_555
C8_7 C14_7 1_555 1_555
C9_7 C10_7 1_555 1_555
C10_7 H5_7 1_555 1_555
C11_7 C10_7 1_555 1_555
H6_7 C11_7 1_555 1_555
C12_7 H7_7 1_555 1_555
C13_7 C9_7 1_555 1_555
H8_7 C13_7 1_555 1_555
C14_7 C15_7 1_555 1_555
C15_7 H9_7 1_555 1_555
C16_7 C15_7 1_555 1_555
H10_7 C16_7 1_555 1_555
C19_7 H13_7 1_555 1_555
C20_7 C19_7 1_555 1_555
H14_7 C20_7 1_555 1_555
C21_7 C20_7 1_555 1_555
C22_7 C21_7 1_555 1_555
H15_7 C22_7 1_555 1_555
C23_7 C22_7 1_555 1_555
H16_7 C23_7 1_555 1_555
C24_7 C21_7 1_555 1_555
C25_7 C27_7 1_555 1_555
C26_7 C32_7 1_555 1_555
C27_7 C28_7 1_555 1_555
C28_7 H17_7 1_555 1_555
C29_7 C28_7 1_555 1_555
H18_7 C29_7 1_555 1_555
C30_7 H19_7 1_555 1_555
C31_7 C27_7 1_555 1_555
H20_7 C31_7 1_555 1_555
I2_7 Zn5_3 1_555 1_555
I3_7 Zn5_3 1_555 1_555
N2_7 C6_7 1_555 1_555
N3_7 C7_7 1_555 1_555
N4_7 C6_7 1_555 1_555
N5_7 C11_7 1_555 1_555
N7_4 C19_7 1_555 1_555
N8_7 C24_7 1_555 1_555
N9_7 C25_7 1_555 1_555
N10_7 C24_7 1_555 1_555
N14_3 C29_7 1_555 1_555
Zn5_3 N5_7 1_555 1_555
Zn4_4 N7_4 1_555 1_555
C7_7 N2_7 1_555 1_555
C8_7 N3_7 1_555 1_555
C8_7 N4_7 1_555 1_555
C12_7 C13_7 1_555 1_555
C12_7 N5_7 1_555 1_555
C23_7 N7_4 1_555 1_555
C25_7 N8_7 1_555 1_555
C26_7 N9_7 1_555 1_555
C26_7 N10_7 1_555 1_555
C30_7 C31_7 1_555 1_555
C30_7 N14_3 1_555 1_555
H3_7 C4_7 1_555 1_555
C5_7 C4_7 1_555 1_555
H4_7 C5_7 1_555 1_555
C17_7 H11_7 1_555 1_555
H12_7 C18_7 1_555 1_555
C33_7 H21_7 1_555 1_555
C34_7 C33_7 1_555 1_555
H22_7 C34_7 1_555 1_555
C35_7 H23_7 1_555 1_555
I1_7 Zn4_4 1_555 1_555
I4_7 Zn3_7 1_555 1_555
N12_7 C34_7 1_555 1_555
Zn4_4 N1_7 1_555 1_555
Zn3_7 N6_7 1_555 1_555
I6_7 Zn3_7 1_555 1_555
C5_7 N1_7 1_555 1_555
C17_7 C18_7 1_555 1_555
C17_7 N6_7 1_555 1_555
C35_7 C36_7 1_555 1_555
C35_7 N12_7 1_555 1_555
N12_7 Zn3_7 1_555 1_555
H4_8 C5_8 1_555 1_555
I1_8 Zn1_4 1_555 1_555
Zn1_4 N1_8 1_555 1_555
I5_6 Zn1_4 1_555 1_555
N13_4 Zn1_4 1_555 1_555
C5_8 N1_8 1_555 1_555
C1_7 H1_7 1_555 1_555
C2_7 C1_7 1_555 1_555
H2_7 C2_7 1_555 1_555
C3_8 C2_7 1_555 1_555
C6_8 C3_8 1_555 1_555
C7_8 C9_8 1_555 1_555
C8_8 C14_8 1_555 1_555
C9_8 C10_8 1_555 1_555
C10_8 H5_8 1_555 1_555
C11_8 C10_8 1_555 1_555
H6_8 C11_8 1_555 1_555
C12_8 H7_8 1_555 1_555
C13_8 C9_8 1_555 1_555
H8_8 C13_8 1_555 1_555
C14_8 C15_8 1_555 1_555
C15_8 H9_8 1_555 1_555
C16_8 C15_8 1_555 1_555
H10_8 C16_8 1_555 1_555
C19_8 H13_8 1_555 1_555
C20_8 C19_8 1_555 1_555
H14_8 C20_8 1_555 1_555
C21_8 C20_8 1_555 1_555
C22_8 C21_8 1_555 1_555
H15_8 C22_8 1_555 1_555
C23_8 C22_8 1_555 1_555
H16_8 C23_8 1_555 1_555
C24_8 C21_8 1_555 1_555
C25_8 C27_8 1_555 1_555
C26_8 C32_8 1_555 1_555
C27_8 C28_8 1_555 1_555
C28_8 H17_8 1_555 1_555
C29_8 C28_8 1_555 1_555
H18_8 C29_8 1_555 1_555
C30_8 H19_8 1_555 1_555
C31_8 C27_8 1_555 1_555
H20_8 C31_8 1_555 1_555
I2_8 Zn5_4 1_555 1_555
I3_8 Zn5_4 1_555 1_555
N2_8 C6_8 1_555 1_555
N3_8 C7_8 1_555 1_555
N4_8 C6_8 1_555 1_555
N5_8 C11_8 1_555 1_555
N13_4 C19_8 1_555 1_555
N8_8 C24_8 1_555 1_555
N9_8 C25_8 1_555 1_555
N10_8 C24_8 1_555 1_555
N14_4 C29_8 1_555 1_555
Zn5_4 N5_8 1_555 1_555
C7_8 N2_8 1_555 1_555
C8_8 N3_8 1_555 1_555
C8_8 N4_8 1_555 1_555
C12_8 C13_8 1_555 1_555
C12_8 N5_8 1_555 1_555
C23_8 N13_4 1_555 1_555
C25_8 N8_8 1_555 1_555
C26_8 N9_8 1_555 1_555
C26_8 N10_8 1_555 1_555
C30_8 C31_8 1_555 1_555
C30_8 N14_4 1_555 1_555
C1_8 H1_8 1_555 1_555
C2_8 C1_8 1_555 1_555
H2_8 C2_8 1_555 1_555
H3_8 C4_8 1_555 1_555
C17_8 H11_8 1_555 1_555
H12_8 C18_8 1_555 1_555
C33_8 H21_8 1_555 1_555
C34_8 C33_8 1_555 1_555
H22_8 C34_8 1_555 1_555
C35_8 H23_8 1_555 1_555
I4_8 Zn3_8 1_555 1_555
N12_8 C34_8 1_555 1_555
Zn3_8 N6_8 1_555 1_555
I6_8 Zn3_8 1_555 1_555
C17_8 C18_8 1_555 1_555
C17_8 N6_8 1_555 1_555
C35_8 C36_8 1_555 1_555
C35_8 N12_8 1_555 1_555
N12_8 Zn3_8 1_555 1_555

#END
