
###############################################################################
#
# This file contains modified crystal structure data generated from the
# MOF subset of the Cambridge Structural Database (CSD) v543 
# hosted by the Cambridge Crystallographic Data Centre (CCDC).
#
# This work is licensed under the Creative Commons
# Attribution-NonCommercial-ShareAlike 4.0 International License.
# To view a copy of this license, visit
# http://creativecommons.org/licenses/by-nc-sa/4.0/
# or send a letter to
# Creative Commons, PO Box 1866, Mountain View, CA 94042, USA.
#
# CIF created using the CSD Python API on 29 September 2022
# The structure has been converted into the P1 space group
# The structure has a 3D framework
# The original CSD entry KEVWUF is in the monoclinic crystal system
# The framework has been calculated to contain at least 10.0% void space
# The void calculation uses a probe of radius 1.32A, grid spacing 0.4
# The framework is charged, counterions have been retained in the structure
# H atom positions have been added when not included in the experimental data
#
###############################################################################

data_KEVWUF
_chemical_formula_moiety         '(C112 H176 La16 N16 O124 16+)n'
_symmetry_cell_setting           triclinic
_symmetry_space_group_name_H-M   'P 1'
_symmetry_Int_Tables_number      1
_space_group_name_Hall           'P 1'
loop_
_symmetry_equiv_pos_site_id
_symmetry_equiv_pos_as_xyz
1 x,y,z
_cell_length_a                   30.807(5)
_cell_length_b                   15.646(2)
_cell_length_c                   22.110(3)
_cell_angle_alpha                90
_cell_angle_beta                 133.331(2)
_cell_angle_gamma                90
_cell_volume                     7752.03
loop_
_atom_site_label
_atom_site_type_symbol
_atom_site_fract_x
_atom_site_fract_y
_atom_site_fract_z
O7 O 0.0204(2) 0.2808(4) 0.1117(4)
La4 La 0.110654(19) 0.36221(3) 0.17132(3)
H21 H 0.00296017 0.591393 0.0109102
C12 C 0.9477(4) 0.1440(5) 0.0041(6)
H6 H 0.9884 0.1360 0.0372
C13 C 0.9258(3) 0.2173(5) 0.0115(5)
C14 C 0.9653(3) 0.2887(5) 0.0690(5)
O8 O 0.9414(3) 0.3534(4) 0.0697(4)
O10 O 0.8783(4) 0.5189(4) 0.0152(5)
O12 O 0.8675(3) 0.2641(4) 0.1056(4)
O17 O 0.8411(3) 0.4549(4) 0.0906(4)
H9 H 0.910204 0.250041 0.139738
H10 H 0.862656 0.291045 0.141334
H12 H 0.857764 0.56155 0.021507
H17 H 0.75979 0.297379 0.0233404
H22 H 0.984904 0.686732 0.0158332
C1 C 0.8497(4) 0.5535(6) 0.6544(5)
C2 C 0.8250(3) 0.4864(5) 0.6716(5)
C3 C 0.7874(4) 0.4226(5) 0.6162(5)
H1 H 0.7799 0.4148 0.5680
C4 C 0.7607(5) 0.3702(5) 0.6336(6)
H2 H 0.7338 0.3280 0.5962
C5 C 0.7745(4) 0.3813(6) 0.7066(5)
H3 H 0.7571 0.3470 0.7194
C6 C 0.8143(3) 0.4439(5) 0.7604(4)
C7 C 0.8366(4) 0.4563(5) 0.8451(5)
C8 C 0.7642(3) 0.1962(5) 0.8547(5)
C9 C 0.8281(3) 0.1730(5) 0.9061(5)
C10 C 0.8456(4) 0.0977(6) 0.8952(5)
H4 H 0.8174 0.0581 0.8553
C11 C 0.9062(4) 0.0827(5) 0.9452(5)
H5 H 0.9191 0.0323 0.9396
La1 La 0.889346(19) 0.63779(3) 0.82868(3)
La2 La 0.831169(19) 0.37075(3) 0.98662(3)
N1 N 0.8382(3) 0.4969(4) 0.7432(4)
N2 N 0.8670(3) 0.2311(4) 0.9642(4)
O1 O 0.8763(3) 0.6156(4) 0.7047(4)
O2 O 0.8411(3) 0.5451(4) 0.5906(4)
O3 O 0.8665(3) 0.5239(4) 0.8832(4)
O4 O 0.8250(3) 0.4019(4) 0.8721(4)
O5 O 0.7535(3) 0.2638(4) 0.8742(4)
O6 O 0.7251(3) 0.1505(4) 0.7941(4)
O9 O 0.7442(4) 0.4732(6) 0.8860(5)
O11 O 0.7460(3) 0.3392(4) 0.9794(5)
O13 O 0.9695(4) 0.6286(5) 0.9921(5)
O14 O 0.8389(3) 0.7053(5) 0.8741(5)
O15 O 0.8631(3) 0.7848(5) 0.7639(5)
O16 O 0.9731(3) 0.5232(4) 0.8773(5)
La3 La 0.610654(19) 0.13779(3) 0.67132(3)
La5 La 0.831169(19) 0.62925(3) 0.48662(3)
O18 O 0.7749(3) 0.6505(4) 0.7059(4)
O19 O 0.9796(2) 0.7192(4) 0.8883(4)
H7 H 0.820367 0.79688 0.731297
H8 H 0.88826 0.82832 0.80841
H11 H 0.874041 0.535584 0.968011
H13 H 0.968013 0.507562 0.829216
H15 H 0.705978 0.441387 0.852549
H16 H 0.745146 0.519095 0.917911
H18 H 0.733738 0.392953 0.988065
H19 H 0.840137 0.664209 0.909488
H20 H 0.860439 0.75835 0.90615
La5_2 La 0.168831(19) 0.62925(3) 0.01338(3)
C1_2 C 0.1503(4) 0.5535(6) 0.8456(5)
C2_2 C 0.1750(3) 0.4864(5) 0.8284(5)
C3_2 C 0.2126(4) 0.4226(5) 0.8838(5)
H1_2 H 0.2201 0.4148 0.9320
C4_2 C 0.2393(5) 0.3702(5) 0.8664(6)
H2_2 H 0.2662 0.3280 0.9038
C5_2 C 0.2255(4) 0.3813(6) 0.7934(5)
H3_2 H 0.2429 0.3470 0.7806
C6_2 C 0.1857(3) 0.4439(5) 0.7396(4)
C7_2 C 0.1634(4) 0.4563(5) 0.6549(5)
C8_2 C 0.2358(3) 0.1962(5) 0.6453(5)
C9_2 C 0.1719(3) 0.1730(5) 0.5939(5)
C10_2 C 0.1544(4) 0.0977(6) 0.6048(5)
H4_2 H 0.1826 0.0581 0.6447
C11_2 C 0.0938(4) 0.0827(5) 0.5548(5)
H5_2 H 0.0809 0.0323 0.5604
C12_2 C 0.0523(4) 0.1440(5) 0.4959(6)
H6_2 H 0.0116 0.1360 0.4628
C13_2 C 0.0742(3) 0.2173(5) 0.4885(5)
C14_2 C 0.0347(3) 0.2887(5) 0.4310(5)
La1_2 La 0.110654(19) 0.63779(3) 0.67132(3)
La2_2 La 0.168831(19) 0.37075(3) 0.51338(3)
N1_2 N 0.1618(3) 0.4969(4) 0.7568(4)
N2_2 N 0.1330(3) 0.2311(4) 0.5358(4)
O1_2 O 0.1237(3) 0.6156(4) 0.7953(4)
O2_2 O 0.1589(3) 0.5451(4) 0.9094(4)
O3_2 O 0.1335(3) 0.5239(4) 0.6168(4)
O4_2 O 0.1750(3) 0.4019(4) 0.6279(4)
O5_2 O 0.2465(3) 0.2638(4) 0.6258(4)
O6_2 O 0.2749(3) 0.1505(4) 0.7059(4)
O8_2 O 0.0586(3) 0.3534(4) 0.4303(4)
O9_2 O 0.2558(4) 0.4732(6) 0.6140(5)
O10_2 O 0.1217(4) 0.5189(4) 0.4848(5)
O11_2 O 0.2540(3) 0.3392(4) 0.5206(5)
O12_2 O 0.1325(3) 0.2641(4) 0.3944(4)
O13_2 O 0.0305(4) 0.6286(5) 0.5079(5)
O14_2 O 0.1611(3) 0.7053(5) 0.6259(5)
O15_2 O 0.1369(3) 0.7848(5) 0.7361(5)
O16_2 O 0.0269(3) 0.5232(4) 0.6227(5)
La3_2 La 0.389346(19) 0.13779(3) 0.82868(3)
O17_2 O 0.1589(3) 0.4549(4) 0.4094(4)
O18_2 O 0.2251(3) 0.6505(4) 0.7941(4)
O19_2 O 0.0204(2) 0.7192(4) 0.6117(4)
H7_2 H 0.179633 0.79688 0.768703
H8_2 H 0.11174 0.82832 0.69159
H9_2 H 0.0897959 0.250041 0.360262
H10_2 H 0.137344 0.291045 0.358666
H11_2 H 0.125959 0.535584 0.531989
H12_2 H 0.142236 0.56155 0.478493
H13_2 H 0.0319866 0.507562 0.670784
H15_2 H 0.294022 0.441387 0.647451
H16_2 H 0.254854 0.519095 0.582089
H17_2 H 0.24021 0.297379 0.47666
H18_2 H 0.266262 0.392953 0.511935
H19_2 H 0.159863 0.664209 0.590512
H20_2 H 0.139561 0.75835 0.59385
H22_2 H 0.0150962 0.686732 0.484167
O7_2 O 0.9796(2) 0.2808(4) 0.3883(4)
La4_2 La 0.889346(19) 0.36221(3) 0.32868(3)
H14 H 0.986689 0.548424 0.578128
H21_2 H 0.99704 0.591393 0.48909
C1_3 C 0.3497(4) 0.0535(6) 0.6544(5)
O1_3 O 0.3763(3) 0.1156(4) 0.7047(4)
O2_3 O 0.3411(3) 0.0451(4) 0.5906(4)
O3_3 O 0.3665(3) 0.0239(4) 0.8832(4)
O13_3 O 0.4695(4) 0.1286(5) 0.9921(5)
O14_3 O 0.3389(3) 0.2053(5) 0.8741(5)
O15_3 O 0.3631(3) 0.2848(5) 0.7639(5)
O16_3 O 0.4731(3) 0.0232(4) 0.8773(5)
La5_3 La 0.331169(19) 0.12925(3) 0.48662(3)
O19_3 O 0.4796(2) 0.2192(4) 0.8883(4)
H7_3 H 0.320367 0.29688 0.731297
H8_3 H 0.38826 0.32832 0.80841
H11_3 H 0.374041 0.035584 0.968011
H13_3 H 0.468013 0.00756159 0.829216
H14_2 H 0.513311 0.0484239 0.921872
H16_3 H 0.245146 0.0190951 0.917911
H19_3 H 0.340137 0.164209 0.909488
H20_3 H 0.360439 0.25835 0.90615
C12_3 C 0.4477(4) 0.6440(5) 0.0041(6)
H6_3 H 0.4884 0.6360 0.0372
C13_3 C 0.4258(3) 0.7173(5) 0.0115(5)
C14_3 C 0.4653(3) 0.7887(5) 0.0690(5)
O7_3 O 0.5204(2) 0.7808(4) 0.1117(4)
O8_3 O 0.4414(3) 0.8534(4) 0.0697(4)
O12_3 O 0.3675(3) 0.7641(4) 0.1056(4)
La4_3 La 0.610654(19) 0.86221(3) 0.17132(3)
O17_3 O 0.3411(3) 0.9549(4) 0.0906(4)
H9_3 H 0.410204 0.750041 0.139738
H10_3 H 0.362656 0.791045 0.141334
H17_3 H 0.25979 0.797379 0.0233404
C2_3 C 0.3250(3) 0.9864(5) 0.6716(5)
C3_3 C 0.2874(4) 0.9226(5) 0.6162(5)
H1_3 H 0.2799 0.9148 0.5680
C4_3 C 0.2607(5) 0.8702(5) 0.6336(6)
H2_3 H 0.2338 0.8280 0.5962
C5_3 C 0.2745(4) 0.8813(6) 0.7066(5)
H3_3 H 0.2571 0.8470 0.7194
C6_3 C 0.3143(3) 0.9439(5) 0.7604(4)
C7_3 C 0.3366(4) 0.9563(5) 0.8451(5)
C8_3 C 0.2642(3) 0.6962(5) 0.8547(5)
C9_3 C 0.3281(3) 0.6730(5) 0.9061(5)
C10_3 C 0.3456(4) 0.5977(6) 0.8952(5)
H4_3 H 0.3174 0.5581 0.8553
C11_3 C 0.4062(4) 0.5827(5) 0.9452(5)
H5_3 H 0.4191 0.5323 0.9396
La2_3 La 0.331169(19) 0.87075(3) 0.98662(3)
N1_3 N 0.3382(3) 0.9969(4) 0.7432(4)
N2_3 N 0.3670(3) 0.7311(4) 0.9642(4)
O4_3 O 0.3250(3) 0.9019(4) 0.8721(4)
O5_3 O 0.2535(3) 0.7638(4) 0.8742(4)
O9_3 O 0.2442(4) 0.9732(6) 0.8860(5)
O11_3 O 0.2460(3) 0.8392(4) 0.9794(5)
H15_3 H 0.205978 0.941387 0.852549
H18_3 H 0.233738 0.892953 0.988065
La5_4 La 0.668831(19) 0.12925(3) 0.01338(3)
C1_4 C 0.6503(4) 0.0535(6) 0.8456(5)
O1_4 O 0.6237(3) 0.1156(4) 0.7953(4)
O2_4 O 0.6589(3) 0.0451(4) 0.9094(4)
O3_4 O 0.6335(3) 0.0239(4) 0.6168(4)
O10_3 O 0.6217(4) 0.0189(4) 0.4848(5)
O13_4 O 0.5305(4) 0.1286(5) 0.5079(5)
O14_4 O 0.6611(3) 0.2053(5) 0.6259(5)
O15_4 O 0.6369(3) 0.2848(5) 0.7361(5)
O16_4 O 0.5269(3) 0.0232(4) 0.6227(5)
O19_4 O 0.5204(2) 0.2192(4) 0.6117(4)
H7_4 H 0.679633 0.29688 0.768703
H8_4 H 0.61174 0.32832 0.69159
H11_4 H 0.625959 0.035584 0.531989
H12_3 H 0.642236 0.0615503 0.478493
H13_4 H 0.531987 0.00756159 0.670784
H14_3 H 0.486689 0.0484239 0.578128
H16_4 H 0.754854 0.0190951 0.582089
H19_4 H 0.659863 0.164209 0.590512
H20_4 H 0.639561 0.25835 0.59385
H21_3 H 0.49704 0.0913932 0.48909
H22_3 H 0.515096 0.186732 0.484167
C2_4 C 0.6750(3) 0.9864(5) 0.8284(5)
C3_4 C 0.7126(4) 0.9226(5) 0.8838(5)
H1_4 H 0.7201 0.9148 0.9320
C4_4 C 0.7393(5) 0.8702(5) 0.8664(6)
H2_4 H 0.7662 0.8280 0.9038
C5_4 C 0.7255(4) 0.8813(6) 0.7934(5)
H3_4 H 0.7429 0.8470 0.7806
C6_4 C 0.6857(3) 0.9439(5) 0.7396(4)
C7_4 C 0.6634(4) 0.9563(5) 0.6549(5)
C8_4 C 0.7358(3) 0.6962(5) 0.6453(5)
C9_4 C 0.6719(3) 0.6730(5) 0.5939(5)
C10_4 C 0.6544(4) 0.5977(6) 0.6048(5)
H4_4 H 0.6826 0.5581 0.6447
C11_4 C 0.5938(4) 0.5827(5) 0.5548(5)
H5_4 H 0.5809 0.5323 0.5604
C12_4 C 0.5523(4) 0.6440(5) 0.4959(6)
H6_4 H 0.5116 0.6360 0.4628
C13_4 C 0.5742(3) 0.7173(5) 0.4885(5)
C14_4 C 0.5347(3) 0.7887(5) 0.4310(5)
La2_4 La 0.668831(19) 0.87075(3) 0.51338(3)
N1_4 N 0.6618(3) 0.9969(4) 0.7568(4)
N2_4 N 0.6330(3) 0.7311(4) 0.5358(4)
O4_4 O 0.6750(3) 0.9019(4) 0.6279(4)
O5_4 O 0.7465(3) 0.7638(4) 0.6258(4)
O7_4 O 0.4796(2) 0.7808(4) 0.3883(4)
O8_4 O 0.5586(3) 0.8534(4) 0.4303(4)
O9_4 O 0.7558(4) 0.9732(6) 0.6140(5)
O11_4 O 0.7540(3) 0.8392(4) 0.5206(5)
O12_4 O 0.6325(3) 0.7641(4) 0.3944(4)
La4_4 La 0.389346(19) 0.86221(3) 0.32868(3)
O17_4 O 0.6589(3) 0.9549(4) 0.4094(4)
H9_4 H 0.589796 0.750041 0.360262
H10_4 H 0.637344 0.791045 0.358666
H15_4 H 0.794022 0.941387 0.647451
H17_4 H 0.74021 0.797379 0.47666
H18_4 H 0.766262 0.892953 0.511935
C1_5 C 0.1503(4) 0.4465(6) 0.3456(5)
C2_5 C 0.1750(3) 0.5136(5) 0.3284(5)
C3_5 C 0.2126(4) 0.5774(5) 0.3838(5)
H1_5 H 0.2201 0.5852 0.4320
C4_5 C 0.2393(5) 0.6298(5) 0.3664(6)
H2_5 H 0.2662 0.6720 0.4038
C5_5 C 0.2255(4) 0.6187(6) 0.2934(5)
H3_5 H 0.2429 0.6530 0.2806
C6_5 C 0.1857(3) 0.5561(5) 0.2396(4)
C7_5 C 0.1634(4) 0.5437(5) 0.1549(5)
C8_5 C 0.2358(3) 0.8038(5) 0.1453(5)
C9_5 C 0.1719(3) 0.8270(5) 0.0939(5)
C10_5 C 0.1544(4) 0.9023(6) 0.1048(5)
H4_5 H 0.1826 0.9419 0.1447
C11_5 C 0.0938(4) 0.9173(5) 0.0548(5)
H5_5 H 0.0809 0.9677 0.0604
N1_5 N 0.1618(3) 0.5031(4) 0.2568(4)
N2_5 N 0.1330(3) 0.7689(4) 0.0358(4)
O1_5 O 0.1237(3) 0.3844(4) 0.2953(4)
O3_5 O 0.1335(3) 0.4761(4) 0.1168(4)
O4_5 O 0.1750(3) 0.5981(4) 0.1279(4)
O5_5 O 0.2465(3) 0.7362(4) 0.1258(4)
O6_3 O 0.2749(3) 0.8495(4) 0.2059(4)
O9_5 O 0.2558(4) 0.5268(6) 0.1140(5)
O11_5 O 0.2540(3) 0.6608(4) 0.0206(5)
O13_5 O 0.0305(4) 0.3714(5) 0.0079(5)
O14_5 O 0.1611(3) 0.2947(5) 0.1259(5)
O15_5 O 0.1369(3) 0.2152(5) 0.2361(5)
O16_5 O 0.0269(3) 0.4768(4) 0.1227(5)
O18_3 O 0.2251(3) 0.3495(4) 0.2941(4)
H7_5 H 0.179633 0.20312 0.268703
H8_5 H 0.11174 0.17168 0.19159
H11_5 H 0.125959 0.464416 0.0319885
H13_5 H 0.0319866 0.492438 0.170784
H15_5 H 0.294022 0.558613 0.147451
H16_5 H 0.254854 0.480905 0.0820895
H18_5 H 0.266262 0.607047 0.0119349
H19_5 H 0.159863 0.335791 0.0905122
H20_5 H 0.139561 0.24165 0.0938498
C12_5 C 0.0523(4) 0.8560(5) 0.9959(6)
H6_5 H 0.0116 0.8640 0.9628
C13_5 C 0.0742(3) 0.7827(5) 0.9885(5)
C14_5 C 0.0347(3) 0.7113(5) 0.9310(5)
O8_5 O 0.0586(3) 0.6466(4) 0.9303(4)
O10_4 O 0.1217(4) 0.4811(4) 0.9848(5)
O12_5 O 0.1325(3) 0.7359(4) 0.8944(4)
H9_5 H 0.0897959 0.749959 0.860262
H10_5 H 0.137344 0.708955 0.858666
H12_4 H 0.142236 0.43845 0.978493
H17_5 H 0.24021 0.702621 0.97666
H22_4 H 0.0150962 0.313268 0.984167
H21_4 H 0.99704 0.408607 0.98909
H14_4 H 0.0133109 0.451576 0.421872
H21_5 H 0.00296017 0.408607 0.51091
C1_6 C 0.8497(4) 0.4465(6) 0.1544(5)
C2_6 C 0.8250(3) 0.5136(5) 0.1716(5)
C3_6 C 0.7874(4) 0.5774(5) 0.1162(5)
H1_6 H 0.7799 0.5852 0.0680
C4_6 C 0.7607(5) 0.6298(5) 0.1336(6)
H2_6 H 0.7338 0.6720 0.0962
C5_6 C 0.7745(4) 0.6187(6) 0.2066(5)
H3_6 H 0.7571 0.6530 0.2194
C6_6 C 0.8143(3) 0.5561(5) 0.2604(4)
C7_6 C 0.8366(4) 0.5437(5) 0.3451(5)
C8_6 C 0.7642(3) 0.8038(5) 0.3547(5)
C9_6 C 0.8281(3) 0.8270(5) 0.4061(5)
C10_6 C 0.8456(4) 0.9023(6) 0.3952(5)
H4_6 H 0.8174 0.9419 0.3553
C11_6 C 0.9062(4) 0.9173(5) 0.4452(5)
H5_6 H 0.9191 0.9677 0.4396
C12_6 C 0.9477(4) 0.8560(5) 0.5041(6)
H6_6 H 0.9884 0.8640 0.5372
C13_6 C 0.9258(3) 0.7827(5) 0.5115(5)
C14_6 C 0.9653(3) 0.7113(5) 0.5690(5)
N1_6 N 0.8382(3) 0.5031(4) 0.2432(4)
N2_6 N 0.8670(3) 0.7689(4) 0.4642(4)
O1_6 O 0.8763(3) 0.3844(4) 0.2047(4)
O3_6 O 0.8665(3) 0.4761(4) 0.3832(4)
O4_6 O 0.8250(3) 0.5981(4) 0.3721(4)
O5_6 O 0.7535(3) 0.7362(4) 0.3742(4)
O6_4 O 0.7251(3) 0.8495(4) 0.2941(4)
O8_6 O 0.9414(3) 0.6466(4) 0.5697(4)
O9_6 O 0.7442(4) 0.5268(6) 0.3860(5)
O10_5 O 0.8783(4) 0.4811(4) 0.5152(5)
O11_6 O 0.7460(3) 0.6608(4) 0.4794(5)
O12_6 O 0.8675(3) 0.7359(4) 0.6056(4)
O13_6 O 0.9695(4) 0.3714(5) 0.4921(5)
O14_6 O 0.8389(3) 0.2947(5) 0.3741(5)
O15_6 O 0.8631(3) 0.2152(5) 0.2639(5)
O16_6 O 0.9731(3) 0.4768(4) 0.3773(5)
O18_4 O 0.7749(3) 0.3495(4) 0.2059(4)
H7_6 H 0.820367 0.20312 0.231297
H8_6 H 0.88826 0.17168 0.30841
H9_6 H 0.910204 0.749959 0.639738
H10_6 H 0.862656 0.708955 0.641334
H11_6 H 0.874041 0.464416 0.468011
H12_5 H 0.857764 0.43845 0.521507
H13_6 H 0.968013 0.492438 0.329216
H15_6 H 0.705978 0.558613 0.352549
H16_6 H 0.745146 0.480905 0.417911
H17_6 H 0.75979 0.702621 0.52334
H18_6 H 0.733738 0.607047 0.488065
H19_6 H 0.840137 0.335791 0.409488
H20_6 H 0.860439 0.24165 0.40615
H22_5 H 0.984904 0.313268 0.515833
C2_7 C 0.6750(3) 0.0136(5) 0.3284(5)
C3_7 C 0.7126(4) 0.0774(5) 0.3838(5)
H1_7 H 0.7201 0.0852 0.4320
C4_7 C 0.7393(5) 0.1298(5) 0.3664(6)
H2_7 H 0.7662 0.1720 0.4038
C5_7 C 0.7255(4) 0.1187(6) 0.2934(5)
H3_7 H 0.7429 0.1530 0.2806
C6_7 C 0.6857(3) 0.0561(5) 0.2396(4)
C7_7 C 0.6634(4) 0.0437(5) 0.1549(5)
C8_7 C 0.7358(3) 0.3038(5) 0.1453(5)
C9_7 C 0.6719(3) 0.3270(5) 0.0939(5)
C10_7 C 0.6544(4) 0.4023(6) 0.1048(5)
H4_7 H 0.6826 0.4419 0.1447
C11_7 C 0.5938(4) 0.4173(5) 0.0548(5)
H5_7 H 0.5809 0.4677 0.0604
N1_7 N 0.6618(3) 0.0031(4) 0.2568(4)
N2_7 N 0.6330(3) 0.2689(4) 0.0358(4)
O4_7 O 0.6750(3) 0.0981(4) 0.1279(4)
O5_7 O 0.7465(3) 0.2362(4) 0.1258(4)
O9_7 O 0.7558(4) 0.0268(6) 0.1140(5)
O11_7 O 0.7540(3) 0.1608(4) 0.0206(5)
H15_7 H 0.794022 0.0586133 0.147451
H18_7 H 0.766262 0.107047 0.0119349
C12_7 C 0.5523(4) 0.3560(5) 0.9959(6)
H6_7 H 0.5116 0.3640 0.9628
C13_7 C 0.5742(3) 0.2827(5) 0.9885(5)
C14_7 C 0.5347(3) 0.2113(5) 0.9310(5)
O8_7 O 0.5586(3) 0.1466(4) 0.9303(4)
O12_7 O 0.6325(3) 0.2359(4) 0.8944(4)
H9_7 H 0.589796 0.249959 0.860262
H10_7 H 0.637344 0.208955 0.858666
H17_7 H 0.74021 0.202621 0.97666
C1_7 C 0.6503(4) 0.9465(6) 0.3456(5)
O1_7 O 0.6237(3) 0.8844(4) 0.2953(4)
O3_7 O 0.6335(3) 0.9761(4) 0.1168(4)
O13_7 O 0.5305(4) 0.8714(5) 0.0079(5)
O14_7 O 0.6611(3) 0.7947(5) 0.1259(5)
O15_7 O 0.6369(3) 0.7152(5) 0.2361(5)
O16_7 O 0.5269(3) 0.9768(4) 0.1227(5)
H7_7 H 0.679633 0.70312 0.268703
H8_7 H 0.61174 0.67168 0.19159
H11_7 H 0.625959 0.964416 0.0319885
H13_7 H 0.531987 0.992438 0.170784
H14_5 H 0.486689 0.951576 0.0781282
H16_7 H 0.754854 0.980905 0.0820895
H19_7 H 0.659863 0.835791 0.0905122
H20_7 H 0.639561 0.74165 0.0938498
C2_8 C 0.3250(3) 0.0136(5) 0.1716(5)
C3_8 C 0.2874(4) 0.0774(5) 0.1162(5)
H1_8 H 0.2799 0.0852 0.0680
C4_8 C 0.2607(5) 0.1298(5) 0.1336(6)
H2_8 H 0.2338 0.1720 0.0962
C5_8 C 0.2745(4) 0.1187(6) 0.2066(5)
H3_8 H 0.2571 0.1530 0.2194
C6_8 C 0.3143(3) 0.0561(5) 0.2604(4)
C7_8 C 0.3366(4) 0.0437(5) 0.3451(5)
C8_8 C 0.2642(3) 0.3038(5) 0.3547(5)
C9_8 C 0.3281(3) 0.3270(5) 0.4061(5)
C10_8 C 0.3456(4) 0.4023(6) 0.3952(5)
H4_8 H 0.3174 0.4419 0.3553
C11_8 C 0.4062(4) 0.4173(5) 0.4452(5)
H5_8 H 0.4191 0.4677 0.4396
C12_8 C 0.4477(4) 0.3560(5) 0.5041(6)
H6_8 H 0.4884 0.3640 0.5372
C13_8 C 0.4258(3) 0.2827(5) 0.5115(5)
C14_8 C 0.4653(3) 0.2113(5) 0.5690(5)
N1_8 N 0.3382(3) 0.0031(4) 0.2432(4)
N2_8 N 0.3670(3) 0.2689(4) 0.4642(4)
O4_8 O 0.3250(3) 0.0981(4) 0.3721(4)
O5_8 O 0.2535(3) 0.2362(4) 0.3742(4)
O8_8 O 0.4414(3) 0.1466(4) 0.5697(4)
O9_8 O 0.2442(4) 0.0268(6) 0.3860(5)
O11_8 O 0.2460(3) 0.1608(4) 0.4794(5)
O12_8 O 0.3675(3) 0.2359(4) 0.6056(4)
H9_8 H 0.410204 0.249959 0.639738
H10_8 H 0.362656 0.208955 0.641334
H15_8 H 0.205978 0.0586133 0.352549
H17_8 H 0.25979 0.202621 0.52334
H18_8 H 0.233738 0.107047 0.488065
C1_8 C 0.3497(4) 0.9465(6) 0.1544(5)
O1_8 O 0.3763(3) 0.8844(4) 0.2047(4)
O3_8 O 0.3665(3) 0.9761(4) 0.3832(4)
O10_6 O 0.3783(4) 0.9811(4) 0.5152(5)
O13_8 O 0.4695(4) 0.8714(5) 0.4921(5)
O14_8 O 0.3389(3) 0.7947(5) 0.3741(5)
O15_8 O 0.3631(3) 0.7152(5) 0.2639(5)
O16_8 O 0.4731(3) 0.9768(4) 0.3773(5)
H7_8 H 0.320367 0.70312 0.231297
H8_8 H 0.38826 0.67168 0.30841
H11_8 H 0.374041 0.964416 0.468011
H12_6 H 0.357764 0.93845 0.521507
H13_8 H 0.468013 0.992438 0.329216
H14_6 H 0.513311 0.951576 0.421872
H16_8 H 0.245146 0.980905 0.417911
H19_8 H 0.340137 0.835791 0.409488
H20_8 H 0.360439 0.74165 0.40615
H21_6 H 0.50296 0.908607 0.51091
H22_6 H 0.484904 0.813268 0.515833
H14_7 H 0.0133109 0.548424 0.921872
O10_7 O 0.3783(4) 0.0189(4) 0.0152(5)
H12_7 H 0.357764 0.0615503 0.021507
H21_7 H 0.50296 0.0913932 0.0109102
H22_7 H 0.484904 0.186732 0.0158332
H14_8 H 0.986689 0.451576 0.0781282
O10_8 O 0.6217(4) 0.9811(4) 0.9848(5)
H12_8 H 0.642236 0.93845 0.978493
H21_8 H 0.49704 0.908607 0.98909
H22_8 H 0.515096 0.813268 0.984167
loop_
_geom_bond_atom_site_label_1
_geom_bond_atom_site_label_2
_geom_bond_site_symmetry_1
_geom_bond_site_symmetry_2
La4 O7 1_555 1_555
H6 C12 1_555 1_555
C13 C12 1_555 1_555
C14 C13 1_555 1_555
O8 C14 1_555 1_555
O12 H9 1_555 1_555
O12 H10 1_555 1_555
O10 H12 1_555 1_555
C1 C2 1_555 1_555
C2 C3 1_555 1_555
C3 H1 1_555 1_555
C4 C3 1_555 1_555
H2 C4 1_555 1_555
C5 C4 1_555 1_555
H3 C5 1_555 1_555
C6 C5 1_555 1_555
C7 C6 1_555 1_555
C8 C9 1_555 1_555
C9 C10 1_555 1_555
C10 H4 1_555 1_555
C11 C10 1_555 1_555
H5 C11 1_555 1_555
La1 N1 1_555 1_555
La2 N2 1_555 1_555
N1 C2 1_555 1_555
N2 C9 1_555 1_555
O1 C1 1_555 1_555
O2 C1 1_555 1_555
O3 C7 1_555 1_555
O4 C7 1_555 1_555
O5 C8 1_555 1_555
O6 C8 1_555 1_555
O9 La2 1_555 1_555
O11 La2 1_555 1_555
O13 La1 1_555 1_555
O14 La1 1_555 1_555
O15 La1 1_555 1_555
O16 La1 1_555 1_555
La3 O6 1_555 1_555
La5 O2 1_555 1_555
O18 La1 1_555 1_555
O19 La1 1_555 1_555
C6 N1 1_555 1_555
La1 O1 1_555 1_555
La1 O3 1_555 1_555
La2 O4 1_555 1_555
La2 O5 1_555 1_555
O15 H7 1_555 1_555
O15 H8 1_555 1_555
O16 H13 1_555 1_555
O9 H15 1_555 1_555
O9 H16 1_555 1_555
O11 H18 1_555 1_555
O14 H19 1_555 1_555
O14 H20 1_555 1_555
C1_2 C2_2 1_555 1_555
C2_2 C3_2 1_555 1_555
C3_2 H1_2 1_555 1_555
C4_2 C3_2 1_555 1_555
H2_2 C4_2 1_555 1_555
C5_2 C4_2 1_555 1_555
H3_2 C5_2 1_555 1_555
C6_2 C5_2 1_555 1_555
C7_2 C6_2 1_555 1_555
C8_2 C9_2 1_555 1_555
C9_2 C10_2 1_555 1_555
C10_2 H4_2 1_555 1_555
C11_2 C10_2 1_555 1_555
H5_2 C11_2 1_555 1_555
C12_2 C11_2 1_555 1_555
H6_2 C12_2 1_555 1_555
C13_2 C12_2 1_555 1_555
C14_2 C13_2 1_555 1_555
La1_2 N1_2 1_555 1_555
La2_2 N2_2 1_555 1_555
N1_2 C2_2 1_555 1_555
N2_2 C9_2 1_555 1_555
O1_2 C1_2 1_555 1_555
O2_2 C1_2 1_555 1_555
O3_2 C7_2 1_555 1_555
O4_2 C7_2 1_555 1_555
O5_2 C8_2 1_555 1_555
O6_2 C8_2 1_555 1_555
O8_2 C14_2 1_555 1_555
O9_2 La2_2 1_555 1_555
O10_2 La2_2 1_555 1_555
O11_2 La2_2 1_555 1_555
O12_2 La2_2 1_555 1_555
O13_2 La1_2 1_555 1_555
O14_2 La1_2 1_555 1_555
O15_2 La1_2 1_555 1_555
O16_2 La1_2 1_555 1_555
La3_2 O6_2 1_555 1_555
O17_2 La2_2 1_555 1_555
O18_2 La1_2 1_555 1_555
O19_2 La1_2 1_555 1_555
C6_2 N1_2 1_555 1_555
C13_2 N2_2 1_555 1_555
La1_2 O1_2 1_555 1_555
La1_2 O3_2 1_555 1_555
La2_2 O4_2 1_555 1_555
La2_2 O5_2 1_555 1_555
La2_2 O8_2 1_555 1_555
O15_2 H7_2 1_555 1_555
O15_2 H8_2 1_555 1_555
O12_2 H9_2 1_555 1_555
O12_2 H10_2 1_555 1_555
O10_2 H11_2 1_555 1_555
O10_2 H12_2 1_555 1_555
O16_2 H13_2 1_555 1_555
O9_2 H15_2 1_555 1_555
O9_2 H16_2 1_555 1_555
O11_2 H17_2 1_555 1_555
O11_2 H18_2 1_555 1_555
O14_2 H19_2 1_555 1_555
O14_2 H20_2 1_555 1_555
O13_2 H22_2 1_555 1_555
La4_2 O7_2 1_555 1_555
O1_3 C1_3 1_555 1_555
O2_3 C1_3 1_555 1_555
O13_3 La3_2 1_555 1_555
O14_3 La3_2 1_555 1_555
O15_3 La3_2 1_555 1_555
O16_3 La3_2 1_555 1_555
La5_3 O2_3 1_555 1_555
O19_3 La3_2 1_555 1_555
La3_2 O1_3 1_555 1_555
La3_2 O3_3 1_555 1_555
O15_3 H7_3 1_555 1_555
O15_3 H8_3 1_555 1_555
O16_3 H13_3 1_555 1_555
O16_3 H14_2 1_555 1_555
O14_3 H19_3 1_555 1_555
O14_3 H20_3 1_555 1_555
H6_3 C12_3 1_555 1_555
C13_3 C12_3 1_555 1_555
C14_3 C13_3 1_555 1_555
O7_3 C14_3 1_555 1_555
O8_3 C14_3 1_555 1_555
La4_3 O7_3 1_555 1_555
O12_3 H9_3 1_555 1_555
O12_3 H10_3 1_555 1_555
C2_3 C3_3 1_555 1_555
C3_3 H1_3 1_555 1_555
C4_3 C3_3 1_555 1_555
H2_3 C4_3 1_555 1_555
C5_3 C4_3 1_555 1_555
H3_3 C5_3 1_555 1_555
C6_3 C5_3 1_555 1_555
C7_3 C6_3 1_555 1_555
C8_3 C9_3 1_555 1_555
C9_3 C10_3 1_555 1_555
C10_3 H4_3 1_555 1_555
C11_3 C10_3 1_555 1_555
H5_3 C11_3 1_555 1_555
La2_3 N2_3 1_555 1_555
N1_3 C2_3 1_555 1_555
N2_3 C9_3 1_555 1_555
O4_3 C7_3 1_555 1_555
O5_3 C8_3 1_555 1_555
O18_2 C8_3 1_555 1_555
O9_3 La2_3 1_555 1_555
O11_3 La2_3 1_555 1_555
C6_3 N1_3 1_555 1_555
La2_3 O4_3 1_555 1_555
La2_3 O5_3 1_555 1_555
O9_3 H15_3 1_555 1_555
O11_3 H18_3 1_555 1_555
O1_4 C1_4 1_555 1_555
O2_4 C1_4 1_555 1_555
O13_4 La3 1_555 1_555
O14_4 La3 1_555 1_555
O15_4 La3 1_555 1_555
O16_4 La3 1_555 1_555
O19_4 La3 1_555 1_555
La3 O1_4 1_555 1_555
La3 O3_4 1_555 1_555
O15_4 H7_4 1_555 1_555
O15_4 H8_4 1_555 1_555
O10_3 H11_4 1_555 1_555
O10_3 H12_3 1_555 1_555
O16_4 H13_4 1_555 1_555
O16_4 H14_3 1_555 1_555
O14_4 H19_4 1_555 1_555
O14_4 H20_4 1_555 1_555
O13_4 H21_3 1_555 1_555
O13_4 H22_3 1_555 1_555
C2_4 C3_4 1_555 1_555
C3_4 H1_4 1_555 1_555
C4_4 C3_4 1_555 1_555
H2_4 C4_4 1_555 1_555
C5_4 C4_4 1_555 1_555
H3_4 C5_4 1_555 1_555
C6_4 C5_4 1_555 1_555
C7_4 C6_4 1_555 1_555
C8_4 C9_4 1_555 1_555
C9_4 C10_4 1_555 1_555
C10_4 H4_4 1_555 1_555
C11_4 C10_4 1_555 1_555
H5_4 C11_4 1_555 1_555
C12_4 C11_4 1_555 1_555
H6_4 C12_4 1_555 1_555
C13_4 C12_4 1_555 1_555
C14_4 C13_4 1_555 1_555
La2_4 N2_4 1_555 1_555
N1_4 C2_4 1_555 1_555
N2_4 C9_4 1_555 1_555
O4_4 C7_4 1_555 1_555
O5_4 C8_4 1_555 1_555
O18 C8_4 1_555 1_555
O7_4 C14_4 1_555 1_555
O8_4 C14_4 1_555 1_555
O9_4 La2_4 1_555 1_555
O11_4 La2_4 1_555 1_555
O12_4 La2_4 1_555 1_555
La4_4 O7_4 1_555 1_555
O17_4 La2_4 1_555 1_555
C6_4 N1_4 1_555 1_555
C13_4 N2_4 1_555 1_555
La2_4 O4_4 1_555 1_555
La2_4 O5_4 1_555 1_555
La2_4 O8_4 1_555 1_555
O12_4 H9_4 1_555 1_555
O12_4 H10_4 1_555 1_555
O9_4 H15_4 1_555 1_555
O11_4 H17_4 1_555 1_555
O11_4 H18_4 1_555 1_555
C1_5 C2_5 1_555 1_555
C2_5 C3_5 1_555 1_555
C3_5 H1_5 1_555 1_555
C4_5 C3_5 1_555 1_555
H2_5 C4_5 1_555 1_555
C5_5 C4_5 1_555 1_555
H3_5 C5_5 1_555 1_555
C6_5 C5_5 1_555 1_555
C7_5 C6_5 1_555 1_555
C8_5 C9_5 1_555 1_555
C9_5 C10_5 1_555 1_555
C10_5 H4_5 1_555 1_555
C11_5 C10_5 1_555 1_555
H5_5 C11_5 1_555 1_555
La4 N1_5 1_555 1_555
La5_2 N2_5 1_555 1_555
N1_5 C2_5 1_555 1_555
N2_5 C9_5 1_555 1_555
O1_5 C1_5 1_555 1_555
O17_2 C1_5 1_555 1_555
O3_5 C7_5 1_555 1_555
O4_5 C7_5 1_555 1_555
O5_5 C8_5 1_555 1_555
O6_3 C8_5 1_555 1_555
O9_5 La5_2 1_555 1_555
O11_5 La5_2 1_555 1_555
O13_5 La4 1_555 1_555
O14_5 La4 1_555 1_555
O15_5 La4 1_555 1_555
O16_5 La4 1_555 1_555
La4_4 O6_3 1_555 1_555
O18_3 La4 1_555 1_555
C6_5 N1_5 1_555 1_555
La4 O1_5 1_555 1_555
La4 O3_5 1_555 1_555
La5_2 O4_5 1_555 1_555
La5_2 O5_5 1_555 1_555
O15_5 H7_5 1_555 1_555
O15_5 H8_5 1_555 1_555
O16_5 H13_5 1_555 1_555
O9_5 H15_5 1_555 1_555
O9_5 H16_5 1_555 1_555
O11_5 H18_5 1_555 1_555
O14_5 H19_5 1_555 1_555
O14_5 H20_5 1_555 1_555
H6_5 C12_5 1_555 1_555
C13_5 C12_5 1_555 1_555
C14_5 C13_5 1_555 1_555
O8_5 C14_5 1_555 1_555
O12_5 H9_5 1_555 1_555
O12_5 H10_5 1_555 1_555
O10_4 H12_4 1_555 1_555
C1_6 C2_6 1_555 1_555
C2_6 C3_6 1_555 1_555
C3_6 H1_6 1_555 1_555
C4_6 C3_6 1_555 1_555
H2_6 C4_6 1_555 1_555
C5_6 C4_6 1_555 1_555
H3_6 C5_6 1_555 1_555
C6_6 C5_6 1_555 1_555
C7_6 C6_6 1_555 1_555
C8_6 C9_6 1_555 1_555
C9_6 C10_6 1_555 1_555
C10_6 H4_6 1_555 1_555
C11_6 C10_6 1_555 1_555
H5_6 C11_6 1_555 1_555
C12_6 C11_6 1_555 1_555
H6_6 C12_6 1_555 1_555
C13_6 C12_6 1_555 1_555
C14_6 C13_6 1_555 1_555
La4_2 N1_6 1_555 1_555
La5 N2_6 1_555 1_555
N1_6 C2_6 1_555 1_555
N2_6 C9_6 1_555 1_555
O1_6 C1_6 1_555 1_555
O17 C1_6 1_555 1_555
O3_6 C7_6 1_555 1_555
O4_6 C7_6 1_555 1_555
O5_6 C8_6 1_555 1_555
O6_4 C8_6 1_555 1_555
O8_6 C14_6 1_555 1_555
O9_6 La5 1_555 1_555
O10_5 La5 1_555 1_555
O11_6 La5 1_555 1_555
O12_6 La5 1_555 1_555
O13_6 La4_2 1_555 1_555
O14_6 La4_2 1_555 1_555
O15_6 La4_2 1_555 1_555
O16_6 La4_2 1_555 1_555
La4_3 O6_4 1_555 1_555
O18_4 La4_2 1_555 1_555
C6_6 N1_6 1_555 1_555
C13_6 N2_6 1_555 1_555
La4_2 O1_6 1_555 1_555
La4_2 O3_6 1_555 1_555
La5 O4_6 1_555 1_555
La5 O5_6 1_555 1_555
La5 O8_6 1_555 1_555
O15_6 H7_6 1_555 1_555
O15_6 H8_6 1_555 1_555
O12_6 H9_6 1_555 1_555
O12_6 H10_6 1_555 1_555
O10_5 H11_6 1_555 1_555
O10_5 H12_5 1_555 1_555
O16_6 H13_6 1_555 1_555
O9_6 H15_6 1_555 1_555
O9_6 H16_6 1_555 1_555
O11_6 H17_6 1_555 1_555
O11_6 H18_6 1_555 1_555
O14_6 H19_6 1_555 1_555
O14_6 H20_6 1_555 1_555
O13_6 H22_5 1_555 1_555
C2_7 C3_7 1_555 1_555
C3_7 H1_7 1_555 1_555
C4_7 C3_7 1_555 1_555
H2_7 C4_7 1_555 1_555
C5_7 C4_7 1_555 1_555
H3_7 C5_7 1_555 1_555
C6_7 C5_7 1_555 1_555
C7_7 C6_7 1_555 1_555
C8_7 C9_7 1_555 1_555
C9_7 C10_7 1_555 1_555
C10_7 H4_7 1_555 1_555
C11_7 C10_7 1_555 1_555
H5_7 C11_7 1_555 1_555
La5_4 N2_7 1_555 1_555
N1_7 C2_7 1_555 1_555
N2_7 C9_7 1_555 1_555
O4_7 C7_7 1_555 1_555
O5_7 C8_7 1_555 1_555
O18_4 C8_7 1_555 1_555
O9_7 La5_4 1_555 1_555
O11_7 La5_4 1_555 1_555
C6_7 N1_7 1_555 1_555
La5_4 O4_7 1_555 1_555
La5_4 O5_7 1_555 1_555
O9_7 H15_7 1_555 1_555
O11_7 H18_7 1_555 1_555
H6_7 C12_7 1_555 1_555
C13_7 C12_7 1_555 1_555
C14_7 C13_7 1_555 1_555
O19_3 C14_7 1_555 1_555
O8_7 C14_7 1_555 1_555
O12_7 H9_7 1_555 1_555
O12_7 H10_7 1_555 1_555
O1_7 C1_7 1_555 1_555
O17_4 C1_7 1_555 1_555
O13_7 La4_3 1_555 1_555
O14_7 La4_3 1_555 1_555
O15_7 La4_3 1_555 1_555
O16_7 La4_3 1_555 1_555
La4_3 O1_7 1_555 1_555
La4_3 O3_7 1_555 1_555
O15_7 H7_7 1_555 1_555
O15_7 H8_7 1_555 1_555
O16_7 H13_7 1_555 1_555
O16_7 H14_5 1_555 1_555
O14_7 H19_7 1_555 1_555
O14_7 H20_7 1_555 1_555
C2_8 C3_8 1_555 1_555
C3_8 H1_8 1_555 1_555
C4_8 C3_8 1_555 1_555
H2_8 C4_8 1_555 1_555
C5_8 C4_8 1_555 1_555
H3_8 C5_8 1_555 1_555
C6_8 C5_8 1_555 1_555
C7_8 C6_8 1_555 1_555
C8_8 C9_8 1_555 1_555
C9_8 C10_8 1_555 1_555
C10_8 H4_8 1_555 1_555
C11_8 C10_8 1_555 1_555
H5_8 C11_8 1_555 1_555
C12_8 C11_8 1_555 1_555
H6_8 C12_8 1_555 1_555
C13_8 C12_8 1_555 1_555
C14_8 C13_8 1_555 1_555
La5_3 N2_8 1_555 1_555
N1_8 C2_8 1_555 1_555
N2_8 C9_8 1_555 1_555
O4_8 C7_8 1_555 1_555
O5_8 C8_8 1_555 1_555
O18_3 C8_8 1_555 1_555
O19_4 C14_8 1_555 1_555
O8_8 C14_8 1_555 1_555
O9_8 La5_3 1_555 1_555
O11_8 La5_3 1_555 1_555
O12_8 La5_3 1_555 1_555
C6_8 N1_8 1_555 1_555
C13_8 N2_8 1_555 1_555
La5_3 O4_8 1_555 1_555
La5_3 O5_8 1_555 1_555
La5_3 O8_8 1_555 1_555
O12_8 H9_8 1_555 1_555
O12_8 H10_8 1_555 1_555
O9_8 H15_8 1_555 1_555
O11_8 H17_8 1_555 1_555
O11_8 H18_8 1_555 1_555
O1_8 C1_8 1_555 1_555
O17_3 C1_8 1_555 1_555
O13_8 La4_4 1_555 1_555
O14_8 La4_4 1_555 1_555
O15_8 La4_4 1_555 1_555
O16_8 La4_4 1_555 1_555
La4_4 O1_8 1_555 1_555
La4_4 O3_8 1_555 1_555
O15_8 H7_8 1_555 1_555
O15_8 H8_8 1_555 1_555
O10_6 H11_8 1_555 1_555
O10_6 H12_6 1_555 1_555
O16_8 H13_8 1_555 1_555
O16_8 H14_6 1_555 1_555
O14_8 H19_8 1_555 1_555
O14_8 H20_8 1_555 1_555
O13_8 H21_6 1_555 1_555
O13_8 H22_6 1_555 1_555
O10_7 H12_7 1_555 1_555
O10_8 H12_8 1_555 1_555

#END
