
###############################################################################
#
# This file contains modified crystal structure data generated from the
# MOF subset of the Cambridge Structural Database (CSD) v543 
# hosted by the Cambridge Crystallographic Data Centre (CCDC).
#
# This work is licensed under the Creative Commons
# Attribution-NonCommercial-ShareAlike 4.0 International License.
# To view a copy of this license, visit
# http://creativecommons.org/licenses/by-nc-sa/4.0/
# or send a letter to
# Creative Commons, PO Box 1866, Mountain View, CA 94042, USA.
#
# CIF created using the CSD Python API on 29 September 2022
# The structure has been converted into the P1 space group
# The structure has a 3D framework
# The original CSD entry KEVWEQ is in the orthorhombic crystal system
# The framework has been calculated to contain at least 10.0% void space
# The void calculation uses a probe of radius 1.32A, grid spacing 0.4
#
###############################################################################

data_KEVWEQ
_chemical_formula_moiety         '(C288 H192 I48 N96 Zn24)n'
_symmetry_cell_setting           triclinic
_symmetry_space_group_name_H-M   'P 1'
_symmetry_Int_Tables_number      1
_space_group_name_Hall           'P 1'
loop_
_symmetry_equiv_pos_site_id
_symmetry_equiv_pos_as_xyz
1 x,y,z
_cell_length_a                   28.938(5)
_cell_length_b                   14.0442(19)
_cell_length_c                   45.929(7)
_cell_angle_alpha                90
_cell_angle_beta                 90
_cell_angle_gamma                90
_cell_volume                     18666.1
loop_
_atom_site_label
_atom_site_type_symbol
_atom_site_fract_x
_atom_site_fract_y
_atom_site_fract_z
C1 C 0.5596(8) 0.4785(16) 0.5284(4)
H1 H 0.5424 0.4505 0.5432
C2 C 0.5718(9) 0.4176(17) 0.5043(5)
H2 H 0.5679 0.3519 0.5045
C3 C 0.5907(7) 0.4693(14) 0.4796(4)
C4 C 0.5946(10) 0.5672(16) 0.4822(5)
H3 H 0.5983 0.6026 0.4653
C5 C 0.5936(10) 0.6116(17) 0.5062(5)
H4 H 0.6077 0.6709 0.5077
C6 C 0.6003(8) 0.4097(14) 0.4535(4)
C7 C 0.5997(7) 0.2786(13) 0.4282(4)
C8 C 0.6294(7) 0.4073(13) 0.4071(4)
C9 C 0.5872(7) 0.1731(14) 0.4237(4)
C10 C 0.5560(8) 0.1332(15) 0.4484(5)
H5 H 0.5472 0.1681 0.4647
C11 C 0.5433(7) 0.0434(14) 0.4436(4)
H6 H 0.5282 0.0117 0.4586
C12 C 0.5734(10) 0.0366(17) 0.3989(5)
H7 H 0.5796 0.0012 0.3822
C13 C 0.5899(9) 0.1267(15) 0.3994(5)
H8 H 0.6027 0.1544 0.3829
C14 C 0.6542(6) 0.4572(12) 0.3838(4)
C15 C 0.6764(8) 0.4131(15) 0.3613(4)
H9 H 0.6794 0.3472 0.3612
C16 C 0.6937(9) 0.4645(15) 0.3394(4)
H10 H 0.7044 0.4314 0.3233
C17 C 0.6754(8) 0.6013(14) 0.3597(4)
H11 H 0.6760 0.6675 0.3593
C18 C 0.6520(8) 0.5540(14) 0.3825(4)
H12 H 0.6354 0.5882 0.3963
C19 C 0.8342(8) 0.3856(16) 0.0798(4)
H13 H 0.8329 0.3714 0.0601
C20 C 0.7938(7) 0.3973(12) 0.0947(3)
H14 H 0.7655 0.3898 0.0854
C21 C 0.7961(6) 0.4204(13) 0.1240(4)
C22 C 0.8378(6) 0.4327(13) 0.1375(4)
H15 H 0.8396 0.4490 0.1571
C23 C 0.8783(7) 0.4194(16) 0.1204(4)
H16 H 0.9073 0.4285 0.1287
C24 C 0.7515(6) 0.4346(11) 0.1410(3)
C25 C 0.6748(7) 0.4374(11) 0.1445(4)
C26 C 0.7200(7) 0.4670(11) 0.1836(4)
C27 C 0.6290(7) 0.4262(13) 0.1328(4)
C28 C 0.6256(8) 0.4172(17) 0.1009(4)
H17 H 0.6508 0.4204 0.0884
C29 C 0.5803(8) 0.4035(16) 0.0919(5)
H18 H 0.5763 0.4026 0.0718
C30 C 0.5464(8) 0.4025(15) 0.1335(5)
H19 H 0.5195 0.3974 0.1445
C31 C 0.5878(8) 0.4214(18) 0.1477(5)
H20 H 0.5876 0.4310 0.1677
C32 C 0.7222(6) 0.4966(11) 0.2164(3)
C33 C 0.6833(7) 0.5243(15) 0.2299(4)
H21 H 0.6547 0.5266 0.2207
C34 C 0.6903(8) 0.552(2) 0.2616(5)
H22 H 0.6644 0.5627 0.2731
C35 C 0.7696(7) 0.5303(12) 0.2572(4)
H23 H 0.7988 0.5294 0.2656
C36 C 0.7640(6) 0.5021(12) 0.2286(3)
H24 H 0.7900 0.4868 0.2176
I1 I 0.49818(6) 0.55778(17) 0.59703(4)
I2 I 0.56960(10) 0.81822(15) 0.55897(5)
I5 I 0.70330(8) 0.79594(12) 0.30497(4)
N1 N 0.5703(6) 0.5706(12) 0.5320(3)
N2 N 0.5885(6) 0.3239(11) 0.4525(3)
N3 N 0.6213(5) 0.3183(10) 0.4039(3)
N4 N 0.6217(5) 0.4594(10) 0.4315(3)
N6 N 0.6968(6) 0.5520(11) 0.3388(3)
N7 N 0.8748(6) 0.3936(11) 0.0921(3)
N8 N 0.7126(5) 0.4209(10) 0.1276(3)
N9 N 0.6760(5) 0.4592(9) 0.1734(3)
N10 N 0.7574(5) 0.4573(9) 0.1699(3)
N11 N 0.5438(6) 0.3920(10) 0.1061(4)
N12 N 0.7316(6) 0.5602(10) 0.2735(3)
Zn1 Zn 0.56317(9) 0.6390(2) 0.56970(5)
Zn3 Zn 0.73935(10) 0.63067(17) 0.31116(5)
I6 I 0.82304(7) 0.62308(19) 0.32808(5)
N13 N 0.6252(6) 0.6064(11) 0.5921(3)
Zn4 Zn 0.93683(9) 0.3610(2) 0.06970(5)
Zn5 Zn 0.47994(10) 0.35772(16) 0.08682(6)
I3 I 0.56611(8) 0.76780(17) 0.37478(6)
I4 I 0.50409(7) 0.78925(16) 0.46358(5)
N5 N 0.5505(6) 0.9952(11) 0.4188(4)
Zn2 Zn 0.52006(10) 0.85772(16) 0.41318(6)
N14 N 0.4562(6) 0.8920(10) 0.3939(4)
I3_2 I 0.93389(8) 0.23220(17) 0.87478(6)
I4_2 I 0.99591(7) 0.21075(16) 0.96358(5)
N5_2 N 0.9495(6) 0.0048(11) 0.9188(4)
Zn2_2 Zn 0.97994(10) 0.14228(16) 0.91318(6)
C1_2 C 0.9404(8) 0.5215(16) 0.0284(4)
H1_2 H 0.9576 0.5495 0.0432
C2_2 C 0.9282(9) 0.5824(17) 0.0043(5)
H2_2 H 0.9321 0.6481 0.0045
C5_2 C 0.9064(10) 0.3884(17) 0.0062(5)
H4_2 H 0.8923 0.3291 0.0077
I2_2 I 0.93040(10) 0.18178(15) 0.05897(5)
N1_2 N 0.9297(6) 0.4294(12) 0.0320(3)
C3_2 C 0.9093(7) 0.5307(14) 0.9796(4)
C4_2 C 0.9054(10) 0.4328(16) 0.9822(5)
H3_2 H 0.9017 0.3974 0.9653
C6_2 C 0.8997(8) 0.5903(14) 0.9535(4)
C7_2 C 0.9003(7) 0.7214(13) 0.9282(4)
C8_2 C 0.8706(7) 0.5927(13) 0.9071(4)
C9_2 C 0.9128(7) 0.8269(14) 0.9237(4)
C10_2 C 0.9440(8) 0.8668(15) 0.9484(5)
H5_2 H 0.9528 0.8319 0.9647
C11_2 C 0.9567(7) 0.9566(14) 0.9436(4)
H6_2 H 0.9718 0.9883 0.9586
C12_2 C 0.9266(10) 0.9634(17) 0.8989(5)
H7_2 H 0.9204 0.9988 0.8822
C13_2 C 0.9101(9) 0.8733(15) 0.8994(5)
H8_2 H 0.8973 0.8456 0.8829
C14_2 C 0.8458(6) 0.5428(12) 0.8838(4)
C15_2 C 0.8236(8) 0.5869(15) 0.8613(4)
H9_2 H 0.8206 0.6528 0.8612
C16_2 C 0.8063(9) 0.5355(15) 0.8394(4)
H10_2 H 0.7956 0.5686 0.8233
C17_2 C 0.8246(8) 0.3987(14) 0.8597(4)
H11_2 H 0.8240 0.3325 0.8593
C18_2 C 0.8480(8) 0.4460(14) 0.8825(4)
H12_2 H 0.8646 0.4118 0.8963
C19_2 C 0.6658(8) 0.6144(16) 0.5798(4)
H13_2 H 0.6671 0.6286 0.5601
C20_2 C 0.7062(7) 0.6027(12) 0.5947(3)
H14_2 H 0.7345 0.6102 0.5854
C21_2 C 0.7039(6) 0.5796(13) 0.6240(4)
C22_2 C 0.6622(6) 0.5673(13) 0.6375(4)
H15_2 H 0.6604 0.5510 0.6571
C23_2 C 0.6217(7) 0.5806(16) 0.6204(4)
H16_2 H 0.5927 0.5715 0.6287
C24_2 C 0.7485(6) 0.5654(11) 0.6410(3)
C25_2 C 0.8252(7) 0.5626(11) 0.6445(4)
C26_2 C 0.7800(7) 0.5330(11) 0.6836(4)
C27_2 C 0.8710(7) 0.5738(13) 0.6328(4)
C28_2 C 0.8744(8) 0.5828(17) 0.6009(4)
H17_2 H 0.8492 0.5796 0.5884
C29_2 C 0.9197(8) 0.5965(16) 0.5919(5)
H18_2 H 0.9237 0.5974 0.5718
C30_2 C 0.9536(8) 0.5975(15) 0.6335(5)
H19_2 H 0.9805 0.6026 0.6445
C31_2 C 0.9122(8) 0.5786(18) 0.6477(5)
H20_2 H 0.9124 0.5690 0.6677
C32_2 C 0.7778(6) 0.5034(11) 0.7164(3)
C33_2 C 0.8167(7) 0.4757(15) 0.7299(4)
H21_2 H 0.8453 0.4734 0.7207
C34_2 C 0.8097(8) 0.448(2) 0.7616(5)
H22_2 H 0.8356 0.4373 0.7731
C35_2 C 0.7304(7) 0.4697(12) 0.7572(4)
H23_2 H 0.7012 0.4706 0.7656
C36_2 C 0.7360(6) 0.4979(12) 0.7286(3)
H24_2 H 0.7100 0.5132 0.7176
I5_2 I 0.79670(8) 0.20406(12) 0.80497(4)
N2_2 N 0.9115(6) 0.6761(11) 0.9525(3)
N3_2 N 0.8787(5) 0.6817(10) 0.9039(3)
N4_2 N 0.8783(5) 0.5406(10) 0.9315(3)
N6_2 N 0.8032(6) 0.4480(11) 0.8388(3)
N8_2 N 0.7874(5) 0.5791(10) 0.6276(3)
N9_2 N 0.8240(5) 0.5408(9) 0.6734(3)
N10_2 N 0.7426(5) 0.5427(9) 0.6699(3)
N11_2 N 0.9562(6) 0.6080(10) 0.6061(4)
N12_2 N 0.7684(6) 0.4398(10) 0.7735(3)
Zn3_2 Zn 0.76065(10) 0.36933(17) 0.81116(5)
I6_2 I 0.67696(7) 0.37692(19) 0.82808(5)
C3_3 C 0.4093(7) 0.9693(14) 0.0204(4)
C6_3 C 0.3997(8) 0.9097(14) 0.0465(4)
C7_3 C 0.4003(7) 0.7786(13) 0.0718(4)
C8_3 C 0.3706(7) 0.9073(13) 0.0929(4)
C9_3 C 0.4128(7) 0.6731(14) 0.0763(4)
C10_3 C 0.4440(8) 0.6332(15) 0.0516(5)
H5_3 H 0.4528 0.6681 0.0353
C11_3 C 0.4567(7) 0.5434(14) 0.0564(4)
H6_3 H 0.4718 0.5117 0.0414
C12_3 C 0.4266(10) 0.5366(17) 0.1011(5)
H7_3 H 0.4204 0.5012 0.1178
C13_3 C 0.4101(9) 0.6267(15) 0.1006(5)
H8_3 H 0.3973 0.6544 0.1171
C14_3 C 0.3458(6) 0.9572(12) 0.1162(4)
C15_3 C 0.3236(8) 0.9131(15) 0.1387(4)
H9_3 H 0.3206 0.8472 0.1388
C16_3 C 0.3063(9) 0.9645(15) 0.1606(4)
H10_3 H 0.2956 0.9314 0.1767
C19_3 C 0.1658(8) 0.8856(16) 0.4202(4)
H13_3 H 0.1671 0.8714 0.4399
C20_3 C 0.2062(7) 0.8973(12) 0.4053(3)
H14_3 H 0.2345 0.8898 0.4146
C21_3 C 0.2039(6) 0.9204(13) 0.3760(4)
C22_3 C 0.1622(6) 0.9327(13) 0.3625(4)
H15_3 H 0.1604 0.9490 0.3429
C23_3 C 0.1217(7) 0.9194(16) 0.3796(4)
H16_3 H 0.0927 0.9285 0.3713
C24_3 C 0.2485(6) 0.9346(11) 0.3590(3)
C25_3 C 0.3252(7) 0.9374(11) 0.3555(4)
C26_3 C 0.2800(7) 0.9670(11) 0.3164(4)
C27_3 C 0.3710(7) 0.9262(13) 0.3672(4)
C28_3 C 0.3744(8) 0.9172(17) 0.3991(4)
H17_3 H 0.3492 0.9204 0.4116
C29_3 C 0.4197(8) 0.9035(16) 0.4081(5)
H18_3 H 0.4237 0.9026 0.4282
C30_3 C 0.4536(8) 0.9025(15) 0.3665(5)
H19_3 H 0.4805 0.8974 0.3555
C31_3 C 0.4122(8) 0.9214(18) 0.3523(5)
H20_3 H 0.4124 0.9310 0.3323
C32_3 C 0.2778(6) 0.9966(11) 0.2836(3)
H24_3 H 0.2100 0.9868 0.2824
I3_3 I 0.43389(8) 0.26780(17) 0.12522(6)
I4_3 I 0.49591(7) 0.28925(16) 0.03642(5)
N2_3 N 0.4115(6) 0.8239(11) 0.0475(3)
N3_3 N 0.3787(5) 0.8183(10) 0.0961(3)
N4_3 N 0.3783(5) 0.9594(10) 0.0685(3)
N5_3 N 0.4495(6) 0.4952(11) 0.0812(4)
N7_2 N 0.1252(6) 0.8936(11) 0.4079(3)
N8_3 N 0.2874(5) 0.9209(10) 0.3724(3)
N9_3 N 0.3240(5) 0.9592(9) 0.3266(3)
N10_3 N 0.2426(5) 0.9573(9) 0.3301(3)
Zn4_2 Zn 0.06317(9) 0.8610(2) 0.43030(5)
C4_3 C 0.0946(10) 0.9328(16) 0.5178(5)
H3_3 H 0.0983 0.8974 0.5347
C5_3 C 0.0936(10) 0.8884(17) 0.4938(5)
H4_3 H 0.1077 0.8291 0.4923
C17_3 C 0.1754(8) 0.8987(14) 0.6403(4)
H11_3 H 0.1760 0.8325 0.6407
C18_3 C 0.1520(8) 0.9460(14) 0.6175(4)
H12_3 H 0.1354 0.9118 0.6037
C33_3 C 0.1833(7) 0.9757(15) 0.7701(4)
H21_3 H 0.1547 0.9734 0.7793
C34_3 C 0.1903(8) 0.948(2) 0.7384(5)
H22_3 H 0.1644 0.9373 0.7269
C35_3 C 0.2696(7) 0.9697(12) 0.7428(4)
H23_3 H 0.2988 0.9706 0.7344
C36_3 C 0.2640(6) 0.9979(12) 0.7714(3)
I2_3 I 0.06960(10) 0.68178(15) 0.44103(5)
I5_3 I 0.20330(8) 0.70406(12) 0.69503(4)
N1_3 N 0.0703(6) 0.9294(12) 0.4680(3)
N6_3 N 0.1968(6) 0.9480(11) 0.6612(3)
N12_3 N 0.2316(6) 0.9398(10) 0.7265(3)
Zn3_3 Zn 0.23935(10) 0.86933(17) 0.68884(5)
I6_3 I 0.32304(7) 0.87692(19) 0.67192(5)
N14_2 N 0.0438(6) 0.1080(10) 0.8939(4)
Zn5_2 Zn 0.02006(10) 0.64228(16) 0.58682(6)
C5_4 C 0.4064(10) 0.1116(17) 0.9938(5)
H4_4 H 0.3923 0.1709 0.9923
I1_2 I 0.50182(6) 0.05778(17) 0.90297(4)
I2_4 I 0.43040(10) 0.31822(15) 0.94103(5)
N1_4 N 0.4297(6) 0.0706(12) 0.9680(3)
Zn1_2 Zn 0.43683(9) 0.1390(2) 0.93030(5)
N13_2 N 0.3748(6) 0.1064(11) 0.9079(3)
C1_3 C 0.0596(8) 0.0215(16) 0.4716(4)
H1_3 H 0.0424 0.0495 0.4568
C2_3 C 0.0718(9) 0.0824(17) 0.4957(5)
H2_3 H 0.0679 0.1481 0.4955
C3_4 C 0.0907(7) 0.0307(14) 0.5204(4)
C6_4 C 0.1003(8) 0.0903(14) 0.5465(4)
C7_4 C 0.0997(7) 0.2214(13) 0.5718(4)
C8_4 C 0.1294(7) 0.0927(13) 0.5929(4)
C9_4 C 0.0872(7) 0.3269(14) 0.5763(4)
C10_4 C 0.0560(8) 0.3668(15) 0.5516(5)
H5_4 H 0.0472 0.3319 0.5353
C11_4 C 0.0433(7) 0.4566(14) 0.5564(4)
H6_4 H 0.0282 0.4883 0.5414
C12_4 C 0.0734(10) 0.4634(17) 0.6011(5)
H7_4 H 0.0796 0.4988 0.6178
C13_4 C 0.0899(9) 0.3733(15) 0.6006(5)
H8_4 H 0.1027 0.3456 0.6171
C14_4 C 0.1542(6) 0.0428(12) 0.6162(4)
C15_4 C 0.1764(8) 0.0869(15) 0.6387(4)
H9_4 H 0.1794 0.1528 0.6388
C16_4 C 0.1937(9) 0.0355(15) 0.6606(4)
H10_4 H 0.2044 0.0686 0.6767
C19_4 C 0.3342(8) 0.1144(16) 0.9202(4)
H13_4 H 0.3329 0.1286 0.9399
C20_4 C 0.2938(7) 0.1027(12) 0.9053(3)
H14_4 H 0.2655 0.1102 0.9146
C21_4 C 0.2961(6) 0.0796(13) 0.8760(4)
C22_4 C 0.3378(6) 0.0673(13) 0.8625(4)
H15_4 H 0.3396 0.0510 0.8429
C23_4 C 0.3783(7) 0.0806(16) 0.8796(4)
H16_4 H 0.4073 0.0715 0.8713
C24_4 C 0.2515(6) 0.0654(11) 0.8590(3)
C25_4 C 0.1748(7) 0.0626(11) 0.8555(4)
C26_4 C 0.2200(7) 0.0330(11) 0.8164(4)
C27_4 C 0.1290(7) 0.0738(13) 0.8672(4)
C28_4 C 0.1256(8) 0.0828(17) 0.8991(4)
H17_4 H 0.1508 0.0796 0.9116
C29_4 C 0.0803(8) 0.0965(16) 0.9081(5)
H18_4 H 0.0763 0.0974 0.9282
C30_4 C 0.0464(8) 0.0975(15) 0.8665(5)
H19_4 H 0.0195 0.1026 0.8555
C31_4 C 0.0878(8) 0.0786(18) 0.8523(5)
H20_4 H 0.0876 0.0690 0.8323
C32_4 C 0.2222(6) 0.0034(11) 0.7836(3)
H24_4 H 0.2900 0.0132 0.7824
I3_4 I 0.06611(8) 0.73220(17) 0.62522(6)
I4_4 I 0.00409(7) 0.71075(16) 0.53642(5)
N2_4 N 0.0885(6) 0.1761(11) 0.5475(3)
N3_4 N 0.1213(5) 0.1817(10) 0.5961(3)
N4_4 N 0.1217(5) 0.0406(10) 0.5685(3)
N5_4 N 0.0505(6) 0.5048(11) 0.5812(4)
N8_4 N 0.2126(5) 0.0791(10) 0.8724(3)
N9_4 N 0.1760(5) 0.0408(9) 0.8266(3)
N10_4 N 0.2574(5) 0.0427(9) 0.8301(3)
I1_3 I 0.00182(6) 0.44222(17) 0.09703(4)
C4_4 C 0.4054(10) 0.0672(16) 0.0178(5)
H3_4 H 0.4017 0.1026 0.0347
C17_4 C 0.3246(8) 0.1013(14) 0.1403(4)
H11_4 H 0.3240 0.1675 0.1407
C18_4 C 0.3480(8) 0.0540(14) 0.1175(4)
H12_4 H 0.3646 0.0882 0.1037
C33_4 C 0.3167(7) 0.0243(15) 0.2701(4)
H21_4 H 0.3453 0.0266 0.2793
C34_4 C 0.3097(8) 0.052(2) 0.2384(5)
H22_4 H 0.3356 0.0627 0.2269
C35_4 C 0.2304(7) 0.0303(12) 0.2428(4)
H23_4 H 0.2012 0.0294 0.2344
C36_4 C 0.2360(6) 0.0021(12) 0.2714(3)
I5_4 I 0.29670(8) 0.29594(12) 0.19503(4)
N6_4 N 0.3032(6) 0.0520(11) 0.1612(3)
N12_4 N 0.2684(6) 0.0602(10) 0.2265(3)
Zn3_4 Zn 0.26065(10) 0.13067(17) 0.18884(5)
I6_4 I 0.17696(7) 0.12308(19) 0.17192(5)
C1_4 C 0.4404(8) 0.9785(16) 0.9716(4)
H1_4 H 0.4576 0.9505 0.9568
C2_4 C 0.4282(9) 0.9176(17) 0.9957(5)
H2_4 H 0.4321 0.8519 0.9955
I1_4 I 0.99818(6) 0.94222(17) 0.40297(4)
I3_5 I 0.43389(8) 0.23220(17) 0.62522(6)
I4_5 I 0.49591(7) 0.21075(16) 0.53642(5)
N5_5 N 0.4495(6) 0.0048(11) 0.5812(4)
Zn2_3 Zn 0.47994(10) 0.14228(16) 0.58682(6)
N14_3 N 0.5438(6) 0.1080(10) 0.6061(4)
C1_5 C 0.4404(8) 0.5215(16) 0.4716(4)
H1_5 H 0.4576 0.5495 0.4568
C2_5 C 0.4282(9) 0.5824(17) 0.4957(5)
H2_5 H 0.4321 0.6481 0.4955
C3_5 C 0.4093(7) 0.5307(14) 0.5204(4)
C4_5 C 0.4054(10) 0.4328(16) 0.5178(5)
H3_5 H 0.4017 0.3974 0.5347
C5_5 C 0.4064(10) 0.3884(17) 0.4938(5)
H4_5 H 0.3923 0.3291 0.4923
C6_5 C 0.3997(8) 0.5903(14) 0.5465(4)
C7_5 C 0.4003(7) 0.7214(13) 0.5718(4)
C8_5 C 0.3706(7) 0.5927(13) 0.5929(4)
C9_5 C 0.4128(7) 0.8269(14) 0.5763(4)
C10_5 C 0.4440(8) 0.8668(15) 0.5516(5)
H5_5 H 0.4528 0.8319 0.5353
C11_5 C 0.4567(7) 0.9566(14) 0.5564(4)
H6_5 H 0.4718 0.9883 0.5414
C12_5 C 0.4266(10) 0.9634(17) 0.6011(5)
H7_5 H 0.4204 0.9988 0.6178
C13_5 C 0.4101(9) 0.8733(15) 0.6006(5)
H8_5 H 0.3973 0.8456 0.6171
C14_5 C 0.3458(6) 0.5428(12) 0.6162(4)
C15_5 C 0.3236(8) 0.5869(15) 0.6387(4)
H9_5 H 0.3206 0.6528 0.6388
C16_5 C 0.3063(9) 0.5355(15) 0.6606(4)
H10_5 H 0.2956 0.5686 0.6767
C17_5 C 0.3246(8) 0.3987(14) 0.6403(4)
H11_5 H 0.3240 0.3325 0.6407
C18_5 C 0.3480(8) 0.4460(14) 0.6175(4)
H12_5 H 0.3646 0.4118 0.6037
C19_5 C 0.1658(8) 0.6144(16) 0.9202(4)
H13_5 H 0.1671 0.6286 0.9399
C20_5 C 0.2062(7) 0.6027(12) 0.9053(3)
H14_5 H 0.2345 0.6102 0.9146
C21_5 C 0.2039(6) 0.5796(13) 0.8760(4)
C22_5 C 0.1622(6) 0.5673(13) 0.8625(4)
H15_5 H 0.1604 0.5510 0.8429
C23_5 C 0.1217(7) 0.5806(16) 0.8796(4)
H16_5 H 0.0927 0.5715 0.8713
C24_5 C 0.2485(6) 0.5654(11) 0.8590(3)
C25_5 C 0.3252(7) 0.5626(11) 0.8555(4)
C26_5 C 0.2800(7) 0.5330(11) 0.8164(4)
C27_5 C 0.3710(7) 0.5738(13) 0.8672(4)
C28_5 C 0.3744(8) 0.5828(17) 0.8991(4)
H17_5 H 0.3492 0.5796 0.9116
C29_5 C 0.4197(8) 0.5965(16) 0.9081(5)
H18_5 H 0.4237 0.5974 0.9282
C30_5 C 0.4536(8) 0.5975(15) 0.8665(5)
H19_5 H 0.4805 0.6026 0.8555
C31_5 C 0.4122(8) 0.5786(18) 0.8523(5)
H20_5 H 0.4124 0.5690 0.8323
C32_5 C 0.2778(6) 0.5034(11) 0.7836(3)
C33_5 C 0.3167(7) 0.4757(15) 0.7701(4)
H21_5 H 0.3453 0.4734 0.7793
C34_5 C 0.3097(8) 0.448(2) 0.7384(5)
H22_5 H 0.3356 0.4373 0.7269
C35_5 C 0.2304(7) 0.4697(12) 0.7428(4)
H23_5 H 0.2012 0.4706 0.7344
C36_5 C 0.2360(6) 0.4979(12) 0.7714(3)
H24_5 H 0.2100 0.5132 0.7824
I1_5 I 0.50182(6) 0.44222(17) 0.40297(4)
I2_5 I 0.43040(10) 0.18178(15) 0.44103(5)
I5_5 I 0.29670(8) 0.20406(12) 0.69503(4)
N1_5 N 0.4297(6) 0.4294(12) 0.4680(3)
N2_5 N 0.4115(6) 0.6761(11) 0.5475(3)
N3_5 N 0.3787(5) 0.6817(10) 0.5961(3)
N4_5 N 0.3783(5) 0.5406(10) 0.5685(3)
N6_5 N 0.3032(6) 0.4480(11) 0.6612(3)
N7_3 N 0.1252(6) 0.6064(11) 0.9079(3)
N8_5 N 0.2874(5) 0.5791(10) 0.8724(3)
N9_5 N 0.3240(5) 0.5408(9) 0.8266(3)
N10_5 N 0.2426(5) 0.5427(9) 0.8301(3)
N11_3 N 0.4562(6) 0.6080(10) 0.8939(4)
N12_5 N 0.2684(6) 0.4398(10) 0.7265(3)
Zn1_3 Zn 0.43683(9) 0.3610(2) 0.43030(5)
Zn3_5 Zn 0.26065(10) 0.36933(17) 0.68884(5)
I6_5 I 0.17696(7) 0.37692(19) 0.67192(5)
N13_3 N 0.3748(6) 0.3936(11) 0.4079(3)
Zn4_3 Zn 0.06317(9) 0.6390(2) 0.93030(5)
Zn5_3 Zn 0.52006(10) 0.64228(16) 0.91318(6)
C3_6 C 0.0907(7) 0.4693(14) 0.0204(4)
C4_6 C 0.0946(10) 0.5672(16) 0.0178(5)
H3_6 H 0.0983 0.6026 0.0347
C6_6 C 0.1003(8) 0.4097(14) 0.0465(4)
C7_6 C 0.0997(7) 0.2786(13) 0.0718(4)
C8_6 C 0.1294(7) 0.4073(13) 0.0929(4)
C9_6 C 0.0872(7) 0.1731(14) 0.0763(4)
C10_6 C 0.0560(8) 0.1332(15) 0.0516(5)
H5_6 H 0.0472 0.1681 0.0353
C11_6 C 0.0433(7) 0.0434(14) 0.0564(4)
H6_6 H 0.0282 0.0117 0.0414
C12_6 C 0.0734(10) 0.0366(17) 0.1011(5)
H7_6 H 0.0796 0.0012 0.1178
C13_6 C 0.0899(9) 0.1267(15) 0.1006(5)
H8_6 H 0.1027 0.1544 0.1171
C14_6 C 0.1542(6) 0.4572(12) 0.1162(4)
C15_6 C 0.1764(8) 0.4131(15) 0.1387(4)
H9_6 H 0.1794 0.3472 0.1388
C16_6 C 0.1937(9) 0.4645(15) 0.1606(4)
H10_6 H 0.2044 0.4314 0.1767
C17_6 C 0.1754(8) 0.6013(14) 0.1403(4)
H11_6 H 0.1760 0.6675 0.1407
C18_6 C 0.1520(8) 0.5540(14) 0.1175(4)
H12_6 H 0.1354 0.5882 0.1037
C19_6 C 0.3342(8) 0.3856(16) 0.4202(4)
H13_6 H 0.3329 0.3714 0.4399
C20_6 C 0.2938(7) 0.3973(12) 0.4053(3)
H14_6 H 0.2655 0.3898 0.4146
C21_6 C 0.2961(6) 0.4204(13) 0.3760(4)
C22_6 C 0.3378(6) 0.4327(13) 0.3625(4)
H15_6 H 0.3396 0.4490 0.3429
C23_6 C 0.3783(7) 0.4194(16) 0.3796(4)
H16_6 H 0.4073 0.4285 0.3713
C24_6 C 0.2515(6) 0.4346(11) 0.3590(3)
C25_6 C 0.1748(7) 0.4374(11) 0.3555(4)
C26_6 C 0.2200(7) 0.4670(11) 0.3164(4)
C27_6 C 0.1290(7) 0.4262(13) 0.3672(4)
C28_6 C 0.1256(8) 0.4172(17) 0.3991(4)
H17_6 H 0.1508 0.4204 0.4116
C29_6 C 0.0803(8) 0.4035(16) 0.4081(5)
H18_6 H 0.0763 0.4026 0.4282
C30_6 C 0.0464(8) 0.4025(15) 0.3665(5)
H19_6 H 0.0195 0.3974 0.3555
C31_6 C 0.0878(8) 0.4214(18) 0.3523(5)
H20_6 H 0.0876 0.4310 0.3323
C32_6 C 0.2222(6) 0.4966(11) 0.2836(3)
C33_6 C 0.1833(7) 0.5243(15) 0.2701(4)
H21_6 H 0.1547 0.5266 0.2793
C34_6 C 0.1903(8) 0.552(2) 0.2384(5)
H22_6 H 0.1644 0.5627 0.2269
C35_6 C 0.2696(7) 0.5303(12) 0.2428(4)
H23_6 H 0.2988 0.5294 0.2344
C36_6 C 0.2640(6) 0.5021(12) 0.2714(3)
H24_6 H 0.2900 0.4868 0.2824
I5_6 I 0.20330(8) 0.79594(12) 0.19503(4)
N2_6 N 0.0885(6) 0.3239(11) 0.0475(3)
N3_6 N 0.1213(5) 0.3183(10) 0.0961(3)
N4_6 N 0.1217(5) 0.4594(10) 0.0685(3)
N6_6 N 0.1968(6) 0.5520(11) 0.1612(3)
N8_6 N 0.2126(5) 0.4209(10) 0.3724(3)
N9_6 N 0.1760(5) 0.4592(9) 0.3266(3)
N10_6 N 0.2574(5) 0.4573(9) 0.3301(3)
N11_4 N 0.0438(6) 0.3920(10) 0.3939(4)
N12_6 N 0.2316(6) 0.5602(10) 0.2265(3)
Zn3_6 Zn 0.23935(10) 0.63067(17) 0.18884(5)
I6_6 I 0.32304(7) 0.62308(19) 0.17192(5)
C1_6 C 0.0596(8) 0.4785(16) 0.9716(4)
H1_6 H 0.0424 0.4505 0.9568
C2_6 C 0.0718(9) 0.4176(17) 0.9957(5)
H2_6 H 0.0679 0.3519 0.9955
C5_6 C 0.0936(10) 0.6116(17) 0.9938(5)
H4_6 H 0.1077 0.6709 0.9923
I2_6 I 0.06960(10) 0.81822(15) 0.94103(5)
N1_6 N 0.0703(6) 0.5706(12) 0.9680(3)
I3_6 I 0.06611(8) 0.76780(17) 0.12522(6)
I4_6 I 0.00409(7) 0.78925(16) 0.03642(5)
N5_6 N 0.0505(6) 0.9952(11) 0.0812(4)
Zn2_4 Zn 0.02006(10) 0.85772(16) 0.08682(6)
C3_7 C 0.5907(7) 0.0307(14) 0.9796(4)
C6_7 C 0.6003(8) 0.0903(14) 0.9535(4)
C7_7 C 0.5997(7) 0.2214(13) 0.9282(4)
C8_7 C 0.6294(7) 0.0927(13) 0.9071(4)
C9_7 C 0.5872(7) 0.3269(14) 0.9237(4)
C10_7 C 0.5560(8) 0.3668(15) 0.9484(5)
H5_7 H 0.5472 0.3319 0.9647
C11_7 C 0.5433(7) 0.4566(14) 0.9436(4)
H6_7 H 0.5282 0.4883 0.9586
C12_7 C 0.5734(10) 0.4634(17) 0.8989(5)
H7_7 H 0.5796 0.4988 0.8822
C13_7 C 0.5899(9) 0.3733(15) 0.8994(5)
H8_7 H 0.6027 0.3456 0.8829
C14_7 C 0.6542(6) 0.0428(12) 0.8838(4)
C15_7 C 0.6764(8) 0.0869(15) 0.8613(4)
H9_7 H 0.6794 0.1528 0.8612
C16_7 C 0.6937(9) 0.0355(15) 0.8394(4)
H10_7 H 0.7044 0.0686 0.8233
C19_7 C 0.8342(8) 0.1144(16) 0.5798(4)
H13_7 H 0.8329 0.1286 0.5601
C20_7 C 0.7938(7) 0.1027(12) 0.5947(3)
H14_7 H 0.7655 0.1102 0.5854
C21_7 C 0.7961(6) 0.0796(13) 0.6240(4)
C22_7 C 0.8378(6) 0.0673(13) 0.6375(4)
H15_7 H 0.8396 0.0510 0.6571
C23_7 C 0.8783(7) 0.0806(16) 0.6204(4)
H16_7 H 0.9073 0.0715 0.6287
C24_7 C 0.7515(6) 0.0654(11) 0.6410(3)
C25_7 C 0.6748(7) 0.0626(11) 0.6445(4)
C26_7 C 0.7200(7) 0.0330(11) 0.6836(4)
C27_7 C 0.6290(7) 0.0738(13) 0.6328(4)
C28_7 C 0.6256(8) 0.0828(17) 0.6009(4)
H17_7 H 0.6508 0.0796 0.5884
C29_7 C 0.5803(8) 0.0965(16) 0.5919(5)
H18_7 H 0.5763 0.0974 0.5718
C30_7 C 0.5464(8) 0.0975(15) 0.6335(5)
H19_7 H 0.5195 0.1026 0.6445
C31_7 C 0.5878(8) 0.0786(18) 0.6477(5)
H20_7 H 0.5876 0.0690 0.6677
C32_7 C 0.7222(6) 0.0034(11) 0.7164(3)
H24_7 H 0.7900 0.0132 0.7176
I3_7 I 0.56611(8) 0.73220(17) 0.87478(6)
I4_7 I 0.50409(7) 0.71075(16) 0.96358(5)
N2_7 N 0.5885(6) 0.1761(11) 0.9525(3)
N3_7 N 0.6213(5) 0.1817(10) 0.9039(3)
N4_7 N 0.6217(5) 0.0406(10) 0.9315(3)
N5_7 N 0.5505(6) 0.5048(11) 0.9188(4)
N7_4 N 0.8748(6) 0.1064(11) 0.5921(3)
N8_7 N 0.7126(5) 0.0791(10) 0.6276(3)
N9_7 N 0.6760(5) 0.0408(9) 0.6734(3)
N10_7 N 0.7574(5) 0.0427(9) 0.6699(3)
Zn4_4 Zn 0.93683(9) 0.1390(2) 0.56970(5)
C4_7 C 0.9054(10) 0.0672(16) 0.4822(5)
H3_7 H 0.9017 0.1026 0.4653
C5_7 C 0.9064(10) 0.1116(17) 0.5062(5)
H4_7 H 0.8923 0.1709 0.5077
C17_7 C 0.8246(8) 0.1013(14) 0.3597(4)
H11_7 H 0.8240 0.1675 0.3593
C18_7 C 0.8480(8) 0.0540(14) 0.3825(4)
H12_7 H 0.8646 0.0882 0.3963
C33_7 C 0.8167(7) 0.0243(15) 0.2299(4)
H21_7 H 0.8453 0.0266 0.2207
C34_7 C 0.8097(8) 0.052(2) 0.2616(5)
H22_7 H 0.8356 0.0627 0.2731
C35_7 C 0.7304(7) 0.0303(12) 0.2572(4)
H23_7 H 0.7012 0.0294 0.2656
C36_7 C 0.7360(6) 0.0021(12) 0.2286(3)
I2_7 I 0.93040(10) 0.31822(15) 0.55897(5)
I5_7 I 0.79670(8) 0.29594(12) 0.30497(4)
N1_7 N 0.9297(6) 0.0706(12) 0.5320(3)
N6_7 N 0.8032(6) 0.0520(11) 0.3388(3)
N12_7 N 0.7684(6) 0.0602(10) 0.2735(3)
Zn3_7 Zn 0.76065(10) 0.13067(17) 0.31116(5)
I6_7 I 0.67696(7) 0.12308(19) 0.32808(5)
Zn5_4 Zn 0.97994(10) 0.35772(16) 0.41318(6)
N14_4 N 0.9562(6) 0.8920(10) 0.1061(4)
C5_8 C 0.5936(10) 0.8884(17) 0.0062(5)
H4_8 H 0.6077 0.8291 0.0077
I1_6 I 0.49818(6) 0.94222(17) 0.09703(4)
I2_8 I 0.56960(10) 0.68178(15) 0.05897(5)
N1_8 N 0.5703(6) 0.9294(12) 0.0320(3)
Zn1_4 Zn 0.56317(9) 0.8610(2) 0.06970(5)
N13_4 N 0.6252(6) 0.8936(11) 0.0921(3)
C1_7 C 0.9404(8) 0.9785(16) 0.5284(4)
H1_7 H 0.9576 0.9505 0.5432
C2_7 C 0.9282(9) 0.9176(17) 0.5043(5)
H2_7 H 0.9321 0.8519 0.5045
C3_8 C 0.9093(7) 0.9693(14) 0.4796(4)
C6_8 C 0.8997(8) 0.9097(14) 0.4535(4)
C7_8 C 0.9003(7) 0.7786(13) 0.4282(4)
C8_8 C 0.8706(7) 0.9073(13) 0.4071(4)
C9_8 C 0.9128(7) 0.6731(14) 0.4237(4)
C10_8 C 0.9440(8) 0.6332(15) 0.4484(5)
H5_8 H 0.9528 0.6681 0.4647
C11_8 C 0.9567(7) 0.5434(14) 0.4436(4)
H6_8 H 0.9718 0.5117 0.4586
C12_8 C 0.9266(10) 0.5366(17) 0.3989(5)
H7_8 H 0.9204 0.5012 0.3822
C13_8 C 0.9101(9) 0.6267(15) 0.3994(5)
H8_8 H 0.8973 0.6544 0.3829
C14_8 C 0.8458(6) 0.9572(12) 0.3838(4)
C15_8 C 0.8236(8) 0.9131(15) 0.3613(4)
H9_8 H 0.8206 0.8472 0.3612
C16_8 C 0.8063(9) 0.9645(15) 0.3394(4)
H10_8 H 0.7956 0.9314 0.3233
C19_8 C 0.6658(8) 0.8856(16) 0.0798(4)
H13_8 H 0.6671 0.8714 0.0601
C20_8 C 0.7062(7) 0.8973(12) 0.0947(3)
H14_8 H 0.7345 0.8898 0.0854
C21_8 C 0.7039(6) 0.9204(13) 0.1240(4)
C22_8 C 0.6622(6) 0.9327(13) 0.1375(4)
H15_8 H 0.6604 0.9490 0.1571
C23_8 C 0.6217(7) 0.9194(16) 0.1204(4)
H16_8 H 0.5927 0.9285 0.1287
C24_8 C 0.7485(6) 0.9346(11) 0.1410(3)
C25_8 C 0.8252(7) 0.9374(11) 0.1445(4)
C26_8 C 0.7800(7) 0.9670(11) 0.1836(4)
C27_8 C 0.8710(7) 0.9262(13) 0.1328(4)
C28_8 C 0.8744(8) 0.9172(17) 0.1009(4)
H17_8 H 0.8492 0.9204 0.0884
C29_8 C 0.9197(8) 0.9035(16) 0.0919(5)
H18_8 H 0.9237 0.9026 0.0718
C30_8 C 0.9536(8) 0.9025(15) 0.1335(5)
H19_8 H 0.9805 0.8974 0.1445
C31_8 C 0.9122(8) 0.9214(18) 0.1477(5)
H20_8 H 0.9124 0.9310 0.1677
C32_8 C 0.7778(6) 0.9966(11) 0.2164(3)
H24_8 H 0.7100 0.9868 0.2176
I3_8 I 0.93389(8) 0.26780(17) 0.37478(6)
I4_8 I 0.99591(7) 0.28925(16) 0.46358(5)
N2_8 N 0.9115(6) 0.8239(11) 0.4525(3)
N3_8 N 0.8787(5) 0.8183(10) 0.4039(3)
N4_8 N 0.8783(5) 0.9594(10) 0.4315(3)
N5_8 N 0.9495(6) 0.4952(11) 0.4188(4)
N8_8 N 0.7874(5) 0.9209(10) 0.1276(3)
N9_8 N 0.8240(5) 0.9592(9) 0.1734(3)
N10_8 N 0.7426(5) 0.9573(9) 0.1699(3)
I1_7 I 0.99818(6) 0.55778(17) 0.90297(4)
C1_8 C 0.5596(8) 0.0215(16) 0.0284(4)
H1_8 H 0.5424 0.0495 0.0432
C2_8 C 0.5718(9) 0.0824(17) 0.0043(5)
H2_8 H 0.5679 0.1481 0.0045
C4_8 C 0.5946(10) 0.9328(16) 0.9822(5)
H3_8 H 0.5983 0.8974 0.9653
C17_8 C 0.6754(8) 0.8987(14) 0.8597(4)
H11_8 H 0.6760 0.8325 0.8593
C18_8 C 0.6520(8) 0.9460(14) 0.8825(4)
H12_8 H 0.6354 0.9118 0.8963
C33_8 C 0.6833(7) 0.9757(15) 0.7299(4)
H21_8 H 0.6547 0.9734 0.7207
C34_8 C 0.6903(8) 0.948(2) 0.7616(5)
H22_8 H 0.6644 0.9373 0.7731
C35_8 C 0.7696(7) 0.9697(12) 0.7572(4)
H23_8 H 0.7988 0.9706 0.7656
C36_8 C 0.7640(6) 0.9979(12) 0.7286(3)
I5_8 I 0.70330(8) 0.70406(12) 0.80497(4)
N6_8 N 0.6968(6) 0.9480(11) 0.8388(3)
N12_8 N 0.7316(6) 0.9398(10) 0.7735(3)
Zn3_8 Zn 0.73935(10) 0.86933(17) 0.81116(5)
I6_8 I 0.82304(7) 0.87692(19) 0.82808(5)
I1_8 I 0.00182(6) 0.05778(17) 0.59703(4)
loop_
_geom_bond_atom_site_label_1
_geom_bond_atom_site_label_2
_geom_bond_site_symmetry_1
_geom_bond_site_symmetry_2
C1 H1 1_555 1_555
C2 C1 1_555 1_555
H2 C2 1_555 1_555
C3 C2 1_555 1_555
C4 C3 1_555 1_555
H3 C4 1_555 1_555
C5 C4 1_555 1_555
H4 C5 1_555 1_555
C6 C3 1_555 1_555
C7 C9 1_555 1_555
C8 C14 1_555 1_555
C9 C10 1_555 1_555
C10 H5 1_555 1_555
C11 C10 1_555 1_555
H6 C11 1_555 1_555
C12 H7 1_555 1_555
C13 C9 1_555 1_555
H8 C13 1_555 1_555
C14 C15 1_555 1_555
C15 H9 1_555 1_555
C16 C15 1_555 1_555
H10 C16 1_555 1_555
C17 H11 1_555 1_555
C18 C14 1_555 1_555
H12 C18 1_555 1_555
C19 H13 1_555 1_555
C20 C19 1_555 1_555
H14 C20 1_555 1_555
C21 C20 1_555 1_555
C22 C21 1_555 1_555
H15 C22 1_555 1_555
C23 C22 1_555 1_555
H16 C23 1_555 1_555
C24 C21 1_555 1_555
C25 C27 1_555 1_555
C26 C32 1_555 1_555
C27 C28 1_555 1_555
C28 H17 1_555 1_555
C29 C28 1_555 1_555
H18 C29 1_555 1_555
C30 H19 1_555 1_555
C31 C27 1_555 1_555
H20 C31 1_555 1_555
C32 C33 1_555 1_555
C33 H21 1_555 1_555
C34 C33 1_555 1_555
H22 C34 1_555 1_555
C35 H23 1_555 1_555
C36 C32 1_555 1_555
H24 C36 1_555 1_555
I1 Zn1 1_555 1_555
I2 Zn1 1_555 1_555
I5 Zn3 1_555 1_555
N1 C1 1_555 1_555
N2 C6 1_555 1_555
N3 C7 1_555 1_555
N4 C6 1_555 1_555
N6 C16 1_555 1_555
N7 C19 1_555 1_555
N8 C24 1_555 1_555
N9 C25 1_555 1_555
N10 C24 1_555 1_555
N11 C29 1_555 1_555
N12 C34 1_555 1_555
Zn1 N1 1_555 1_555
Zn3 N6 1_555 1_555
I6 Zn3 1_555 1_555
N13 Zn1 1_555 1_555
Zn4 N7 1_555 1_555
Zn5 N11 1_555 1_555
C5 N1 1_555 1_555
C7 N2 1_555 1_555
C8 N3 1_555 1_555
C8 N4 1_555 1_555
C12 C13 1_555 1_555
C17 C18 1_555 1_555
C17 N6 1_555 1_555
C23 N7 1_555 1_555
C25 N8 1_555 1_555
C26 N9 1_555 1_555
C26 N10 1_555 1_555
C30 C31 1_555 1_555
C30 N11 1_555 1_555
C35 C36 1_555 1_555
C35 N12 1_555 1_555
N12 Zn3 1_555 1_555
I3 Zn2 1_555 1_555
I4 Zn2 1_555 1_555
Zn2 N5 1_555 1_555
N14 Zn2 1_555 1_555
I3_2 Zn2_2 1_555 1_555
I4_2 Zn2_2 1_555 1_555
Zn2_2 N5_2 1_555 1_555
C1_2 H1_2 1_555 1_555
C2_2 C1_2 1_555 1_555
H2_2 C2_2 1_555 1_555
H4_2 C5_2 1_555 1_555
I2_2 Zn4 1_555 1_555
N1_2 C1_2 1_555 1_555
Zn4 N1_2 1_555 1_555
C5_2 N1_2 1_555 1_555
C4_2 C3_2 1_555 1_555
H3_2 C4_2 1_555 1_555
C6_2 C3_2 1_555 1_555
C7_2 C9_2 1_555 1_555
C8_2 C14_2 1_555 1_555
C9_2 C10_2 1_555 1_555
C10_2 H5_2 1_555 1_555
C11_2 C10_2 1_555 1_555
H6_2 C11_2 1_555 1_555
C12_2 H7_2 1_555 1_555
C13_2 C9_2 1_555 1_555
H8_2 C13_2 1_555 1_555
C14_2 C15_2 1_555 1_555
C15_2 H9_2 1_555 1_555
C16_2 C15_2 1_555 1_555
H10_2 C16_2 1_555 1_555
C17_2 H11_2 1_555 1_555
C18_2 C14_2 1_555 1_555
H12_2 C18_2 1_555 1_555
C19_2 H13_2 1_555 1_555
C20_2 C19_2 1_555 1_555
H14_2 C20_2 1_555 1_555
C21_2 C20_2 1_555 1_555
C22_2 C21_2 1_555 1_555
H15_2 C22_2 1_555 1_555
C23_2 C22_2 1_555 1_555
H16_2 C23_2 1_555 1_555
C24_2 C21_2 1_555 1_555
C25_2 C27_2 1_555 1_555
C26_2 C32_2 1_555 1_555
C27_2 C28_2 1_555 1_555
C28_2 H17_2 1_555 1_555
C29_2 C28_2 1_555 1_555
H18_2 C29_2 1_555 1_555
C30_2 H19_2 1_555 1_555
C31_2 C27_2 1_555 1_555
H20_2 C31_2 1_555 1_555
C32_2 C33_2 1_555 1_555
C33_2 H21_2 1_555 1_555
C34_2 C33_2 1_555 1_555
H22_2 C34_2 1_555 1_555
C35_2 H23_2 1_555 1_555
C36_2 C32_2 1_555 1_555
H24_2 C36_2 1_555 1_555
I5_2 Zn3_2 1_555 1_555
N2_2 C6_2 1_555 1_555
N3_2 C7_2 1_555 1_555
N4_2 C6_2 1_555 1_555
N6_2 C16_2 1_555 1_555
N13 C19_2 1_555 1_555
N8_2 C24_2 1_555 1_555
N9_2 C25_2 1_555 1_555
N10_2 C24_2 1_555 1_555
N11_2 C29_2 1_555 1_555
N12_2 C34_2 1_555 1_555
Zn3_2 N6_2 1_555 1_555
I6_2 Zn3_2 1_555 1_555
C7_2 N2_2 1_555 1_555
C8_2 N3_2 1_555 1_555
C8_2 N4_2 1_555 1_555
C12_2 C13_2 1_555 1_555
C17_2 C18_2 1_555 1_555
C17_2 N6_2 1_555 1_555
C23_2 N13 1_555 1_555
C25_2 N8_2 1_555 1_555
C26_2 N9_2 1_555 1_555
C26_2 N10_2 1_555 1_555
C30_2 C31_2 1_555 1_555
C30_2 N11_2 1_555 1_555
C35_2 C36_2 1_555 1_555
C35_2 N12_2 1_555 1_555
N12_2 Zn3_2 1_555 1_555
C6_3 C3_3 1_555 1_555
C7_3 C9_3 1_555 1_555
C8_3 C14_3 1_555 1_555
C9_3 C10_3 1_555 1_555
C10_3 H5_3 1_555 1_555
C11_3 C10_3 1_555 1_555
H6_3 C11_3 1_555 1_555
C12_3 H7_3 1_555 1_555
C13_3 C9_3 1_555 1_555
H8_3 C13_3 1_555 1_555
C14_3 C15_3 1_555 1_555
C15_3 H9_3 1_555 1_555
C16_3 C15_3 1_555 1_555
H10_3 C16_3 1_555 1_555
C19_3 H13_3 1_555 1_555
C20_3 C19_3 1_555 1_555
H14_3 C20_3 1_555 1_555
C21_3 C20_3 1_555 1_555
C22_3 C21_3 1_555 1_555
H15_3 C22_3 1_555 1_555
C23_3 C22_3 1_555 1_555
H16_3 C23_3 1_555 1_555
C24_3 C21_3 1_555 1_555
C25_3 C27_3 1_555 1_555
C26_3 C32_3 1_555 1_555
C27_3 C28_3 1_555 1_555
C28_3 H17_3 1_555 1_555
C29_3 C28_3 1_555 1_555
H18_3 C29_3 1_555 1_555
C30_3 H19_3 1_555 1_555
C31_3 C27_3 1_555 1_555
H20_3 C31_3 1_555 1_555
I3_3 Zn5 1_555 1_555
I4_3 Zn5 1_555 1_555
N2_3 C6_3 1_555 1_555
N3_3 C7_3 1_555 1_555
N4_3 C6_3 1_555 1_555
N5_3 C11_3 1_555 1_555
N7_2 C19_3 1_555 1_555
N8_3 C24_3 1_555 1_555
N9_3 C25_3 1_555 1_555
N10_3 C24_3 1_555 1_555
N14 C29_3 1_555 1_555
Zn5 N5_3 1_555 1_555
Zn4_2 N7_2 1_555 1_555
C7_3 N2_3 1_555 1_555
C8_3 N3_3 1_555 1_555
C8_3 N4_3 1_555 1_555
C12_3 C13_3 1_555 1_555
C12_3 N5_3 1_555 1_555
C23_3 N7_2 1_555 1_555
C25_3 N8_3 1_555 1_555
C26_3 N9_3 1_555 1_555
C26_3 N10_3 1_555 1_555
C30_3 C31_3 1_555 1_555
C30_3 N14 1_555 1_555
H3_3 C4_3 1_555 1_555
C5_3 C4_3 1_555 1_555
H4_3 C5_3 1_555 1_555
C17_3 H11_3 1_555 1_555
H12_3 C18_3 1_555 1_555
C33_3 H21_3 1_555 1_555
C34_3 C33_3 1_555 1_555
H22_3 C34_3 1_555 1_555
C35_3 H23_3 1_555 1_555
I2_3 Zn4_2 1_555 1_555
I5_3 Zn3_3 1_555 1_555
N12_3 C34_3 1_555 1_555
Zn4_2 N1_3 1_555 1_555
Zn3_3 N6_3 1_555 1_555
I6_3 Zn3_3 1_555 1_555
C5_3 N1_3 1_555 1_555
C17_3 C18_3 1_555 1_555
C17_3 N6_3 1_555 1_555
C35_3 C36_3 1_555 1_555
C35_3 N12_3 1_555 1_555
N12_3 Zn3_3 1_555 1_555
H4_4 C5_4 1_555 1_555
I1_2 Zn1_2 1_555 1_555
I2_4 Zn1_2 1_555 1_555
Zn1_2 N1_4 1_555 1_555
N13_2 Zn1_2 1_555 1_555
C5_4 N1_4 1_555 1_555
C1_3 H1_3 1_555 1_555
C2_3 C1_3 1_555 1_555
H2_3 C2_3 1_555 1_555
C3_4 C2_3 1_555 1_555
C6_4 C3_4 1_555 1_555
C7_4 C9_4 1_555 1_555
C8_4 C14_4 1_555 1_555
C9_4 C10_4 1_555 1_555
C10_4 H5_4 1_555 1_555
C11_4 C10_4 1_555 1_555
H6_4 C11_4 1_555 1_555
C12_4 H7_4 1_555 1_555
C13_4 C9_4 1_555 1_555
H8_4 C13_4 1_555 1_555
C14_4 C15_4 1_555 1_555
C15_4 H9_4 1_555 1_555
C16_4 C15_4 1_555 1_555
H10_4 C16_4 1_555 1_555
C19_4 H13_4 1_555 1_555
C20_4 C19_4 1_555 1_555
H14_4 C20_4 1_555 1_555
C21_4 C20_4 1_555 1_555
C22_4 C21_4 1_555 1_555
H15_4 C22_4 1_555 1_555
C23_4 C22_4 1_555 1_555
H16_4 C23_4 1_555 1_555
C24_4 C21_4 1_555 1_555
C25_4 C27_4 1_555 1_555
C26_4 C32_4 1_555 1_555
C27_4 C28_4 1_555 1_555
C28_4 H17_4 1_555 1_555
C29_4 C28_4 1_555 1_555
H18_4 C29_4 1_555 1_555
C30_4 H19_4 1_555 1_555
C31_4 C27_4 1_555 1_555
H20_4 C31_4 1_555 1_555
I3_4 Zn5_2 1_555 1_555
I4_4 Zn5_2 1_555 1_555
N2_4 C6_4 1_555 1_555
N3_4 C7_4 1_555 1_555
N4_4 C6_4 1_555 1_555
N5_4 C11_4 1_555 1_555
N13_2 C19_4 1_555 1_555
N8_4 C24_4 1_555 1_555
N9_4 C25_4 1_555 1_555
N10_4 C24_4 1_555 1_555
N14_2 C29_4 1_555 1_555
Zn5_2 N5_4 1_555 1_555
C7_4 N2_4 1_555 1_555
C8_4 N3_4 1_555 1_555
C8_4 N4_4 1_555 1_555
C12_4 C13_4 1_555 1_555
C12_4 N5_4 1_555 1_555
C23_4 N13_2 1_555 1_555
C25_4 N8_4 1_555 1_555
C26_4 N9_4 1_555 1_555
C26_4 N10_4 1_555 1_555
C30_4 C31_4 1_555 1_555
C30_4 N14_2 1_555 1_555
H3_4 C4_4 1_555 1_555
C17_4 H11_4 1_555 1_555
H12_4 C18_4 1_555 1_555
C33_4 H21_4 1_555 1_555
C34_4 C33_4 1_555 1_555
H22_4 C34_4 1_555 1_555
C35_4 H23_4 1_555 1_555
I5_4 Zn3_4 1_555 1_555
N12_4 C34_4 1_555 1_555
Zn3_4 N6_4 1_555 1_555
I6_4 Zn3_4 1_555 1_555
C17_4 C18_4 1_555 1_555
C17_4 N6_4 1_555 1_555
C35_4 C36_4 1_555 1_555
C35_4 N12_4 1_555 1_555
N12_4 Zn3_4 1_555 1_555
C1_4 H1_4 1_555 1_555
C2_4 C1_4 1_555 1_555
H2_4 C2_4 1_555 1_555
I3_5 Zn2_3 1_555 1_555
I4_5 Zn2_3 1_555 1_555
Zn2_3 N5_5 1_555 1_555
N14_3 Zn2_3 1_555 1_555
C1_5 H1_5 1_555 1_555
C2_5 C1_5 1_555 1_555
H2_5 C2_5 1_555 1_555
C3_5 C2_5 1_555 1_555
C4_5 C3_5 1_555 1_555
H3_5 C4_5 1_555 1_555
C5_5 C4_5 1_555 1_555
H4_5 C5_5 1_555 1_555
C6_5 C3_5 1_555 1_555
C7_5 C9_5 1_555 1_555
C8_5 C14_5 1_555 1_555
C9_5 C10_5 1_555 1_555
C10_5 H5_5 1_555 1_555
C11_5 C10_5 1_555 1_555
H6_5 C11_5 1_555 1_555
C12_5 H7_5 1_555 1_555
C13_5 C9_5 1_555 1_555
H8_5 C13_5 1_555 1_555
C14_5 C15_5 1_555 1_555
C15_5 H9_5 1_555 1_555
C16_5 C15_5 1_555 1_555
H10_5 C16_5 1_555 1_555
C17_5 H11_5 1_555 1_555
C18_5 C14_5 1_555 1_555
H12_5 C18_5 1_555 1_555
C19_5 H13_5 1_555 1_555
C20_5 C19_5 1_555 1_555
H14_5 C20_5 1_555 1_555
C21_5 C20_5 1_555 1_555
C22_5 C21_5 1_555 1_555
H15_5 C22_5 1_555 1_555
C23_5 C22_5 1_555 1_555
H16_5 C23_5 1_555 1_555
C24_5 C21_5 1_555 1_555
C25_5 C27_5 1_555 1_555
C26_5 C32_5 1_555 1_555
C27_5 C28_5 1_555 1_555
C28_5 H17_5 1_555 1_555
C29_5 C28_5 1_555 1_555
H18_5 C29_5 1_555 1_555
C30_5 H19_5 1_555 1_555
C31_5 C27_5 1_555 1_555
H20_5 C31_5 1_555 1_555
C32_5 C33_5 1_555 1_555
C33_5 H21_5 1_555 1_555
C34_5 C33_5 1_555 1_555
H22_5 C34_5 1_555 1_555
C35_5 H23_5 1_555 1_555
C36_5 C32_5 1_555 1_555
H24_5 C36_5 1_555 1_555
I1_5 Zn1_3 1_555 1_555
I2_5 Zn1_3 1_555 1_555
I5_5 Zn3_5 1_555 1_555
N1_5 C1_5 1_555 1_555
N2_5 C6_5 1_555 1_555
N3_5 C7_5 1_555 1_555
N4_5 C6_5 1_555 1_555
N6_5 C16_5 1_555 1_555
N7_3 C19_5 1_555 1_555
N8_5 C24_5 1_555 1_555
N9_5 C25_5 1_555 1_555
N10_5 C24_5 1_555 1_555
N11_3 C29_5 1_555 1_555
N12_5 C34_5 1_555 1_555
Zn1_3 N1_5 1_555 1_555
Zn3_5 N6_5 1_555 1_555
I6_5 Zn3_5 1_555 1_555
N13_3 Zn1_3 1_555 1_555
Zn4_3 N7_3 1_555 1_555
Zn5_3 N11_3 1_555 1_555
C5_5 N1_5 1_555 1_555
C7_5 N2_5 1_555 1_555
C8_5 N3_5 1_555 1_555
C8_5 N4_5 1_555 1_555
C12_5 C13_5 1_555 1_555
C17_5 C18_5 1_555 1_555
C17_5 N6_5 1_555 1_555
C23_5 N7_3 1_555 1_555
C25_5 N8_5 1_555 1_555
C26_5 N9_5 1_555 1_555
C26_5 N10_5 1_555 1_555
C30_5 C31_5 1_555 1_555
C30_5 N11_3 1_555 1_555
C35_5 C36_5 1_555 1_555
C35_5 N12_5 1_555 1_555
N12_5 Zn3_5 1_555 1_555
C4_6 C3_6 1_555 1_555
H3_6 C4_6 1_555 1_555
C6_6 C3_6 1_555 1_555
C7_6 C9_6 1_555 1_555
C8_6 C14_6 1_555 1_555
C9_6 C10_6 1_555 1_555
C10_6 H5_6 1_555 1_555
C11_6 C10_6 1_555 1_555
H6_6 C11_6 1_555 1_555
C12_6 H7_6 1_555 1_555
C13_6 C9_6 1_555 1_555
H8_6 C13_6 1_555 1_555
C14_6 C15_6 1_555 1_555
C15_6 H9_6 1_555 1_555
C16_6 C15_6 1_555 1_555
H10_6 C16_6 1_555 1_555
C17_6 H11_6 1_555 1_555
C18_6 C14_6 1_555 1_555
H12_6 C18_6 1_555 1_555
C19_6 H13_6 1_555 1_555
C20_6 C19_6 1_555 1_555
H14_6 C20_6 1_555 1_555
C21_6 C20_6 1_555 1_555
C22_6 C21_6 1_555 1_555
H15_6 C22_6 1_555 1_555
C23_6 C22_6 1_555 1_555
H16_6 C23_6 1_555 1_555
C24_6 C21_6 1_555 1_555
C25_6 C27_6 1_555 1_555
C26_6 C32_6 1_555 1_555
C27_6 C28_6 1_555 1_555
C28_6 H17_6 1_555 1_555
C29_6 C28_6 1_555 1_555
H18_6 C29_6 1_555 1_555
C30_6 H19_6 1_555 1_555
C31_6 C27_6 1_555 1_555
H20_6 C31_6 1_555 1_555
C32_6 C33_6 1_555 1_555
C33_6 H21_6 1_555 1_555
C34_6 C33_6 1_555 1_555
H22_6 C34_6 1_555 1_555
C35_6 H23_6 1_555 1_555
C36_6 C32_6 1_555 1_555
H24_6 C36_6 1_555 1_555
I5_6 Zn3_6 1_555 1_555
N2_6 C6_6 1_555 1_555
N3_6 C7_6 1_555 1_555
N4_6 C6_6 1_555 1_555
N6_6 C16_6 1_555 1_555
N13_3 C19_6 1_555 1_555
N8_6 C24_6 1_555 1_555
N9_6 C25_6 1_555 1_555
N10_6 C24_6 1_555 1_555
N11_4 C29_6 1_555 1_555
N12_6 C34_6 1_555 1_555
Zn3_6 N6_6 1_555 1_555
I6_6 Zn3_6 1_555 1_555
C7_6 N2_6 1_555 1_555
C8_6 N3_6 1_555 1_555
C8_6 N4_6 1_555 1_555
C12_6 C13_6 1_555 1_555
C17_6 C18_6 1_555 1_555
C17_6 N6_6 1_555 1_555
C23_6 N13_3 1_555 1_555
C25_6 N8_6 1_555 1_555
C26_6 N9_6 1_555 1_555
C26_6 N10_6 1_555 1_555
C30_6 C31_6 1_555 1_555
C30_6 N11_4 1_555 1_555
C35_6 C36_6 1_555 1_555
C35_6 N12_6 1_555 1_555
N12_6 Zn3_6 1_555 1_555
C1_6 H1_6 1_555 1_555
C2_6 C1_6 1_555 1_555
H2_6 C2_6 1_555 1_555
H4_6 C5_6 1_555 1_555
I2_6 Zn4_3 1_555 1_555
N1_6 C1_6 1_555 1_555
Zn4_3 N1_6 1_555 1_555
C5_6 N1_6 1_555 1_555
I3_6 Zn2_4 1_555 1_555
I4_6 Zn2_4 1_555 1_555
Zn2_4 N5_6 1_555 1_555
C6_7 C3_7 1_555 1_555
C7_7 C9_7 1_555 1_555
C8_7 C14_7 1_555 1_555
C9_7 C10_7 1_555 1_555
C10_7 H5_7 1_555 1_555
C11_7 C10_7 1_555 1_555
H6_7 C11_7 1_555 1_555
C12_7 H7_7 1_555 1_555
C13_7 C9_7 1_555 1_555
H8_7 C13_7 1_555 1_555
C14_7 C15_7 1_555 1_555
C15_7 H9_7 1_555 1_555
C16_7 C15_7 1_555 1_555
H10_7 C16_7 1_555 1_555
C19_7 H13_7 1_555 1_555
C20_7 C19_7 1_555 1_555
H14_7 C20_7 1_555 1_555
C21_7 C20_7 1_555 1_555
C22_7 C21_7 1_555 1_555
H15_7 C22_7 1_555 1_555
C23_7 C22_7 1_555 1_555
H16_7 C23_7 1_555 1_555
C24_7 C21_7 1_555 1_555
C25_7 C27_7 1_555 1_555
C26_7 C32_7 1_555 1_555
C27_7 C28_7 1_555 1_555
C28_7 H17_7 1_555 1_555
C29_7 C28_7 1_555 1_555
H18_7 C29_7 1_555 1_555
C30_7 H19_7 1_555 1_555
C31_7 C27_7 1_555 1_555
H20_7 C31_7 1_555 1_555
I3_7 Zn5_3 1_555 1_555
I4_7 Zn5_3 1_555 1_555
N2_7 C6_7 1_555 1_555
N3_7 C7_7 1_555 1_555
N4_7 C6_7 1_555 1_555
N5_7 C11_7 1_555 1_555
N7_4 C19_7 1_555 1_555
N8_7 C24_7 1_555 1_555
N9_7 C25_7 1_555 1_555
N10_7 C24_7 1_555 1_555
N14_3 C29_7 1_555 1_555
Zn5_3 N5_7 1_555 1_555
Zn4_4 N7_4 1_555 1_555
C7_7 N2_7 1_555 1_555
C8_7 N3_7 1_555 1_555
C8_7 N4_7 1_555 1_555
C12_7 C13_7 1_555 1_555
C12_7 N5_7 1_555 1_555
C23_7 N7_4 1_555 1_555
C25_7 N8_7 1_555 1_555
C26_7 N9_7 1_555 1_555
C26_7 N10_7 1_555 1_555
C30_7 C31_7 1_555 1_555
C30_7 N14_3 1_555 1_555
H3_7 C4_7 1_555 1_555
C5_7 C4_7 1_555 1_555
H4_7 C5_7 1_555 1_555
C17_7 H11_7 1_555 1_555
H12_7 C18_7 1_555 1_555
C33_7 H21_7 1_555 1_555
C34_7 C33_7 1_555 1_555
H22_7 C34_7 1_555 1_555
C35_7 H23_7 1_555 1_555
I2_7 Zn4_4 1_555 1_555
I5_7 Zn3_7 1_555 1_555
N12_7 C34_7 1_555 1_555
Zn4_4 N1_7 1_555 1_555
Zn3_7 N6_7 1_555 1_555
I6_7 Zn3_7 1_555 1_555
C5_7 N1_7 1_555 1_555
C17_7 C18_7 1_555 1_555
C17_7 N6_7 1_555 1_555
C35_7 C36_7 1_555 1_555
C35_7 N12_7 1_555 1_555
N12_7 Zn3_7 1_555 1_555
H4_8 C5_8 1_555 1_555
I1_6 Zn1_4 1_555 1_555
I2_8 Zn1_4 1_555 1_555
Zn1_4 N1_8 1_555 1_555
N13_4 Zn1_4 1_555 1_555
C5_8 N1_8 1_555 1_555
C1_7 H1_7 1_555 1_555
C2_7 C1_7 1_555 1_555
H2_7 C2_7 1_555 1_555
C3_8 C2_7 1_555 1_555
C6_8 C3_8 1_555 1_555
C7_8 C9_8 1_555 1_555
C8_8 C14_8 1_555 1_555
C9_8 C10_8 1_555 1_555
C10_8 H5_8 1_555 1_555
C11_8 C10_8 1_555 1_555
H6_8 C11_8 1_555 1_555
C12_8 H7_8 1_555 1_555
C13_8 C9_8 1_555 1_555
H8_8 C13_8 1_555 1_555
C14_8 C15_8 1_555 1_555
C15_8 H9_8 1_555 1_555
C16_8 C15_8 1_555 1_555
H10_8 C16_8 1_555 1_555
C19_8 H13_8 1_555 1_555
C20_8 C19_8 1_555 1_555
H14_8 C20_8 1_555 1_555
C21_8 C20_8 1_555 1_555
C22_8 C21_8 1_555 1_555
H15_8 C22_8 1_555 1_555
C23_8 C22_8 1_555 1_555
H16_8 C23_8 1_555 1_555
C24_8 C21_8 1_555 1_555
C25_8 C27_8 1_555 1_555
C26_8 C32_8 1_555 1_555
C27_8 C28_8 1_555 1_555
C28_8 H17_8 1_555 1_555
C29_8 C28_8 1_555 1_555
H18_8 C29_8 1_555 1_555
C30_8 H19_8 1_555 1_555
C31_8 C27_8 1_555 1_555
H20_8 C31_8 1_555 1_555
I3_8 Zn5_4 1_555 1_555
I4_8 Zn5_4 1_555 1_555
N2_8 C6_8 1_555 1_555
N3_8 C7_8 1_555 1_555
N4_8 C6_8 1_555 1_555
N5_8 C11_8 1_555 1_555
N13_4 C19_8 1_555 1_555
N8_8 C24_8 1_555 1_555
N9_8 C25_8 1_555 1_555
N10_8 C24_8 1_555 1_555
N14_4 C29_8 1_555 1_555
Zn5_4 N5_8 1_555 1_555
C7_8 N2_8 1_555 1_555
C8_8 N3_8 1_555 1_555
C8_8 N4_8 1_555 1_555
C12_8 C13_8 1_555 1_555
C12_8 N5_8 1_555 1_555
C23_8 N13_4 1_555 1_555
C25_8 N8_8 1_555 1_555
C26_8 N9_8 1_555 1_555
C26_8 N10_8 1_555 1_555
C30_8 C31_8 1_555 1_555
C30_8 N14_4 1_555 1_555
C1_8 H1_8 1_555 1_555
C2_8 C1_8 1_555 1_555
H2_8 C2_8 1_555 1_555
H3_8 C4_8 1_555 1_555
C17_8 H11_8 1_555 1_555
H12_8 C18_8 1_555 1_555
C33_8 H21_8 1_555 1_555
C34_8 C33_8 1_555 1_555
H22_8 C34_8 1_555 1_555
C35_8 H23_8 1_555 1_555
I5_8 Zn3_8 1_555 1_555
N12_8 C34_8 1_555 1_555
Zn3_8 N6_8 1_555 1_555
I6_8 Zn3_8 1_555 1_555
C17_8 C18_8 1_555 1_555
C17_8 N6_8 1_555 1_555
C35_8 C36_8 1_555 1_555
C35_8 N12_8 1_555 1_555
N12_8 Zn3_8 1_555 1_555

#END
