
###############################################################################
#
# This file contains modified crystal structure data generated from the
# MOF subset of the Cambridge Structural Database (CSD) v543 
# hosted by the Cambridge Crystallographic Data Centre (CCDC).
#
# This work is licensed under the Creative Commons
# Attribution-NonCommercial-ShareAlike 4.0 International License.
# To view a copy of this license, visit
# http://creativecommons.org/licenses/by-nc-sa/4.0/
# or send a letter to
# Creative Commons, PO Box 1866, Mountain View, CA 94042, USA.
#
# CIF created using the CSD Python API on 29 September 2022
# The structure has been converted into the P1 space group
# The structure has a 3D framework
# The original CSD entry KEVWOA is in the orthorhombic crystal system
# The framework has been calculated to contain at least 10.0% void space
# The void calculation uses a probe of radius 1.32A, grid spacing 0.4
#
###############################################################################

data_KEVWOA
_chemical_formula_moiety         '(C288 H192 I48 N96 Zn24)n'
_symmetry_cell_setting           triclinic
_symmetry_space_group_name_H-M   'P 1'
_symmetry_Int_Tables_number      1
_space_group_name_Hall           'P 1'
loop_
_symmetry_equiv_pos_site_id
_symmetry_equiv_pos_as_xyz
1 x,y,z
_cell_length_a                   28.5208(13)
_cell_length_b                   13.9121(5)
_cell_length_c                   45.796(2)
_cell_angle_alpha                90
_cell_angle_beta                 90
_cell_angle_gamma                90
_cell_volume                     18171.1
loop_
_atom_site_label
_atom_site_type_symbol
_atom_site_fract_x
_atom_site_fract_y
_atom_site_fract_z
C1 C 0.5601(5) 0.4783(10) 0.5282(3)
H1 H 0.5431 0.4495 0.5432
C2 C 0.5712(5) 0.4233(10) 0.5042(3)
H2 H 0.5648 0.3577 0.5038
C3 C 0.5924(4) 0.4686(8) 0.4805(2)
C4 C 0.5994(6) 0.5635(9) 0.4827(3)
H3 H 0.6113 0.5967 0.4667
C5 C 0.5899(6) 0.6124(10) 0.5073(3)
H4 H 0.5958 0.6781 0.5074
C6 C 0.6028(4) 0.4142(8) 0.4539(2)
C7 C 0.6012(4) 0.2756(8) 0.4293(2)
C8 C 0.6334(4) 0.4090(8) 0.4089(2)
C9 C 0.5858(4) 0.1763(8) 0.4248(2)
C10 C 0.5586(5) 0.1280(10) 0.4467(3)
H5 H 0.5512 0.1610 0.4637
C11 C 0.5443(5) 0.0433(9) 0.4438(3)
H6 H 0.5274 0.0152 0.4589
C12 C 0.5756(7) 0.0313(11) 0.3988(3)
C13 C 0.5952(6) 0.1247(9) 0.4012(3)
H8 H 0.6142 0.1493 0.3865
C14 C 0.6545(4) 0.4589(7) 0.3845(2)
C15 C 0.6772(5) 0.4081(9) 0.3623(3)
H9 H 0.6774 0.3413 0.3619
C16 C 0.6999(5) 0.4625(9) 0.3406(3)
H10 H 0.7160 0.4299 0.3260
C17 C 0.6772(5) 0.6003(9) 0.3615(3)
H11 H 0.6776 0.6671 0.3614
C18 C 0.6551(5) 0.5590(8) 0.3826(3)
H12 H 0.6396 0.5959 0.3966
C19 C 0.8341(4) 0.3803(9) 0.0809(3)
H13 H 0.8328 0.3562 0.0619
C20 C 0.7934(4) 0.3990(9) 0.0943(2)
H14 H 0.7650 0.3981 0.0844
C21 C 0.7962(4) 0.4203(7) 0.1244(2)
C22 C 0.8404(4) 0.4295(8) 0.1366(2)
H15 H 0.8436 0.4465 0.1562
C23 C 0.8771(4) 0.4145(9) 0.1207(2)
H16 H 0.9063 0.4187 0.1297
C24 C 0.7518(4) 0.4320(6) 0.1414(2)
C25 C 0.6748(4) 0.4361(7) 0.1456(2)
C26 C 0.7187(4) 0.4674(7) 0.1853(2)
C27 C 0.6276(4) 0.4226(7) 0.1318(2)
C28 C 0.6230(4) 0.4139(10) 0.1020(3)
H17 H 0.6493 0.4153 0.0901
C29 C 0.5810(4) 0.4035(10) 0.0907(3)
H18 H 0.5783 0.4032 0.0704
C30 C 0.5459(5) 0.4019(11) 0.1354(3)
H19 H 0.5192 0.3951 0.1468
C31 C 0.5864(4) 0.4197(11) 0.1485(3)
H20 H 0.5875 0.4302 0.1685
C32 C 0.7226(4) 0.4953(6) 0.2156(2)
C33 C 0.6853(4) 0.5270(9) 0.2321(2)
H21 H 0.6555 0.5289 0.2238
C34 C 0.6914(5) 0.5546(10) 0.2592(3)
H22 H 0.6648 0.5721 0.2697
C35 C 0.7691(4) 0.5253(8) 0.2573(2)
H23 H 0.7979 0.5200 0.2667
C36 C 0.7658(4) 0.4989(8) 0.2293(2)
H24 H 0.7927 0.4828 0.2190
I1 I 0.49703(3) 0.56369(11) 0.59696(2)
I2 I 0.57127(6) 0.82260(9) 0.55894(3)
I5 I 0.70191(5) 0.79595(7) 0.30483(2)
N1 N 0.5725(4) 0.5735(7) 0.5314(2)
N2 N 0.5905(3) 0.3216(7) 0.4530(2)
N3 N 0.6235(4) 0.3154(6) 0.4057(2)
N4 N 0.6230(3) 0.4578(6) 0.43259(18)
N6 N 0.6996(4) 0.5555(7) 0.33990(19)
N7 N 0.8761(3) 0.3936(6) 0.09278(18)
N8 N 0.7127(3) 0.4227(6) 0.12843(17)
N9 N 0.6755(3) 0.4564(6) 0.17409(17)
N10 N 0.7582(3) 0.4552(5) 0.17052(16)
N11 N 0.5417(3) 0.3932(6) 0.1064(2)
N12 N 0.7318(3) 0.5595(6) 0.27247(18)
Zn1 Zn 0.56318(5) 0.64428(12) 0.56969(3)
Zn3 Zn 0.74043(6) 0.63296(10) 0.31141(3)
I6 I 0.82467(4) 0.62820(11) 0.32771(3)
N13 N 0.6239(3) 0.6064(6) 0.59278(18)
Zn4 Zn 0.93682(5) 0.35572(12) 0.06969(3)
Zn5 Zn 0.47845(6) 0.35756(10) 0.08704(4)
H7 H 0.5796 0.9977 0.3814
I3 I 0.56746(5) 0.76794(10) 0.37435(4)
I4 I 0.50454(5) 0.78678(9) 0.46300(3)
N5 N 0.5527(3) 0.9914(7) 0.4193(2)
Zn2 Zn 0.52155(6) 0.85756(10) 0.41296(4)
N14 N 0.4583(3) 0.8932(6) 0.3936(2)
H7_2 H 0.9204 0.0023 0.8814
I3_2 I 0.93254(5) 0.23206(10) 0.87435(4)
I4_2 I 0.99546(5) 0.21322(9) 0.96300(3)
N5_2 N 0.9473(3) 0.0086(7) 0.9193(2)
Zn2_2 Zn 0.97845(6) 0.14244(10) 0.91296(4)
C1_2 C 0.9399(5) 0.5217(10) 0.0282(3)
H1_2 H 0.9569 0.5505 0.0432
C2_2 C 0.9288(5) 0.5767(10) 0.0042(3)
H2_2 H 0.9352 0.6423 0.0038
C5_2 C 0.9101(6) 0.3876(10) 0.0073(3)
H4_2 H 0.9042 0.3219 0.0074
I2_2 I 0.92873(6) 0.17740(9) 0.05894(3)
N1_2 N 0.9275(4) 0.4265(7) 0.0314(2)
C3_2 C 0.9076(4) 0.5314(8) 0.9805(2)
C4_2 C 0.9006(6) 0.4365(9) 0.9827(3)
H3_2 H 0.8887 0.4033 0.9667
C6_2 C 0.8972(4) 0.5858(8) 0.9539(2)
C7_2 C 0.8988(4) 0.7244(8) 0.9293(2)
C8_2 C 0.8666(4) 0.5910(8) 0.9089(2)
C9_2 C 0.9142(4) 0.8237(8) 0.9248(2)
C10_2 C 0.9414(5) 0.8720(10) 0.9467(3)
H5_2 H 0.9488 0.8390 0.9637
C11_2 C 0.9557(5) 0.9567(9) 0.9438(3)
H6_2 H 0.9726 0.9848 0.9589
C12_2 C 0.9244(7) 0.9687(11) 0.8988(3)
C13_2 C 0.9048(6) 0.8753(9) 0.9012(3)
H8_2 H 0.8858 0.8507 0.8865
C14_2 C 0.8455(4) 0.5411(7) 0.8845(2)
C15_2 C 0.8228(5) 0.5919(9) 0.8623(3)
H9_2 H 0.8226 0.6587 0.8619
C16_2 C 0.8001(5) 0.5375(9) 0.8406(3)
H10_2 H 0.7840 0.5701 0.8260
C17_2 C 0.8228(5) 0.3997(9) 0.8615(3)
H11_2 H 0.8224 0.3329 0.8614
C18_2 C 0.8449(5) 0.4410(8) 0.8826(3)
H12_2 H 0.8604 0.4041 0.8966
C19_2 C 0.6659(4) 0.6197(9) 0.5809(3)
H13_2 H 0.6672 0.6438 0.5619
C20_2 C 0.7066(4) 0.6010(9) 0.5943(2)
H14_2 H 0.7350 0.6019 0.5844
C21_2 C 0.7038(4) 0.5797(7) 0.6244(2)
C22_2 C 0.6596(4) 0.5705(8) 0.6366(2)
H15_2 H 0.6564 0.5535 0.6562
C23_2 C 0.6229(4) 0.5855(9) 0.6207(2)
H16_2 H 0.5937 0.5813 0.6297
C24_2 C 0.7482(4) 0.5680(6) 0.6414(2)
C25_2 C 0.8252(4) 0.5639(7) 0.6456(2)
C26_2 C 0.7813(4) 0.5326(7) 0.6853(2)
C27_2 C 0.8724(4) 0.5774(7) 0.6318(2)
C28_2 C 0.8770(4) 0.5861(10) 0.6020(3)
H17_2 H 0.8507 0.5847 0.5901
C29_2 C 0.9190(4) 0.5965(10) 0.5907(3)
H18_2 H 0.9217 0.5968 0.5704
C30_2 C 0.9541(5) 0.5981(11) 0.6354(3)
H19_2 H 0.9808 0.6049 0.6468
C31_2 C 0.9136(4) 0.5803(11) 0.6485(3)
H20_2 H 0.9125 0.5698 0.6685
C32_2 C 0.7774(4) 0.5047(6) 0.7156(2)
C33_2 C 0.8147(4) 0.4730(9) 0.7321(2)
H21_2 H 0.8445 0.4711 0.7238
C34_2 C 0.8086(5) 0.4454(10) 0.7592(3)
H22_2 H 0.8352 0.4279 0.7697
C35_2 C 0.7309(4) 0.4747(8) 0.7573(2)
H23_2 H 0.7021 0.4800 0.7667
C36_2 C 0.7342(4) 0.5011(8) 0.7293(2)
H24_2 H 0.7073 0.5172 0.7190
I5_2 I 0.79809(5) 0.20405(7) 0.80483(2)
N2_2 N 0.9095(3) 0.6784(7) 0.9530(2)
N3_2 N 0.8765(4) 0.6846(6) 0.9057(2)
N4_2 N 0.8770(3) 0.5422(6) 0.93259(18)
N6_2 N 0.8004(4) 0.4445(7) 0.83990(19)
N8_2 N 0.7873(3) 0.5773(6) 0.62843(17)
N9_2 N 0.8245(3) 0.5436(6) 0.67409(17)
N10_2 N 0.7418(3) 0.5448(5) 0.67052(16)
N11_2 N 0.9583(3) 0.6068(6) 0.6064(2)
N12_2 N 0.7682(3) 0.4405(6) 0.77247(18)
Zn3_2 Zn 0.75957(6) 0.36704(10) 0.81141(3)
I6_2 I 0.67533(4) 0.37180(11) 0.82771(3)
C3_3 C 0.4076(4) 0.9686(8) 0.0195(2)
C6_3 C 0.3972(4) 0.9142(8) 0.0461(2)
C7_3 C 0.3988(4) 0.7756(8) 0.0707(2)
C8_3 C 0.3666(4) 0.9090(8) 0.0911(2)
C9_3 C 0.4142(4) 0.6763(8) 0.0752(2)
C10_3 C 0.4414(5) 0.6280(10) 0.0533(3)
H5_3 H 0.4488 0.6610 0.0363
C11_3 C 0.4557(5) 0.5433(9) 0.0562(3)
H6_3 H 0.4726 0.5152 0.0411
C12_3 C 0.4244(7) 0.5313(11) 0.1012(3)
H7_3 H 0.4204 0.4977 0.1186
C13_3 C 0.4048(6) 0.6247(9) 0.0988(3)
H8_3 H 0.3858 0.6493 0.1135
C14_3 C 0.3455(4) 0.9589(7) 0.1155(2)
C15_3 C 0.3228(5) 0.9081(9) 0.1377(3)
H9_3 H 0.3226 0.8413 0.1381
C16_3 C 0.3001(5) 0.9625(9) 0.1594(3)
H10_3 H 0.2840 0.9299 0.1740
C19_3 C 0.1659(4) 0.8803(9) 0.4191(3)
H13_3 H 0.1672 0.8562 0.4381
C20_3 C 0.2066(4) 0.8990(9) 0.4057(2)
H14_3 H 0.2350 0.8981 0.4156
C21_3 C 0.2038(4) 0.9203(7) 0.3756(2)
C22_3 C 0.1596(4) 0.9295(8) 0.3634(2)
H15_3 H 0.1564 0.9465 0.3438
C23_3 C 0.1229(4) 0.9145(9) 0.3793(2)
H16_3 H 0.0937 0.9187 0.3703
C24_3 C 0.2482(4) 0.9320(6) 0.3586(2)
C25_3 C 0.3252(4) 0.9361(7) 0.3544(2)
C26_3 C 0.2813(4) 0.9674(7) 0.3147(2)
C27_3 C 0.3724(4) 0.9226(7) 0.3682(2)
C28_3 C 0.3770(4) 0.9139(10) 0.3980(3)
H17_3 H 0.3507 0.9153 0.4099
C29_3 C 0.4190(4) 0.9035(10) 0.4093(3)
H18_3 H 0.4217 0.9032 0.4296
C30_3 C 0.4541(5) 0.9019(11) 0.3646(3)
H19_3 H 0.4808 0.8951 0.3532
C31_3 C 0.4136(4) 0.9197(11) 0.3515(3)
H20_3 H 0.4125 0.9302 0.3315
C32_3 C 0.2774(4) 0.9953(6) 0.2844(2)
C36_3 C 0.2342(4) 0.9989(8) 0.2707(2)
H24_3 H 0.2073 0.9828 0.2810
I3_3 I 0.43254(5) 0.26794(10) 0.12565(4)
I4_3 I 0.49546(5) 0.28678(9) 0.03700(3)
N2_3 N 0.4095(3) 0.8216(7) 0.0470(2)
N3_3 N 0.3765(4) 0.8154(6) 0.0943(2)
N4_3 N 0.3770(3) 0.9578(6) 0.06741(18)
N5_3 N 0.4473(3) 0.4914(7) 0.0807(2)
N7_2 N 0.1239(3) 0.8936(6) 0.40722(18)
N8_3 N 0.2873(3) 0.9227(6) 0.37157(17)
N9_3 N 0.3245(3) 0.9564(6) 0.32591(17)
N10_3 N 0.2418(3) 0.9552(5) 0.32948(16)
Zn4_2 Zn 0.06318(5) 0.85572(12) 0.43031(3)
C4_3 C 0.0994(6) 0.9365(9) 0.5173(3)
H3_3 H 0.1113 0.9033 0.5333
C5_3 C 0.0899(6) 0.8876(10) 0.4927(3)
H4_3 H 0.0958 0.8219 0.4926
C17_3 C 0.1772(5) 0.8997(9) 0.6385(3)
H11_3 H 0.1776 0.8329 0.6386
C18_3 C 0.1551(5) 0.9410(8) 0.6174(3)
H12_3 H 0.1396 0.9041 0.6034
C33_3 C 0.1853(4) 0.9730(9) 0.7679(2)
H21_3 H 0.1555 0.9711 0.7762
C34_3 C 0.1914(5) 0.9454(10) 0.7408(3)
H22_3 H 0.1648 0.9279 0.7303
C35_3 C 0.2691(4) 0.9747(8) 0.7427(2)
H23_3 H 0.2979 0.9800 0.7333
I2_3 I 0.07127(6) 0.67740(9) 0.44106(3)
I5_3 I 0.20191(5) 0.70405(7) 0.69517(2)
N1_3 N 0.0725(4) 0.9265(7) 0.4686(2)
N6_3 N 0.1996(4) 0.9445(7) 0.66010(19)
N12_3 N 0.2318(3) 0.9405(6) 0.72753(18)
Zn3_3 Zn 0.24043(6) 0.86704(10) 0.68859(3)
I6_3 I 0.32467(4) 0.87180(11) 0.67229(3)
N14_2 N 0.0417(3) 0.1068(6) 0.8936(2)
Zn5_2 Zn 0.02155(6) 0.64244(10) 0.58704(4)
C5_4 C 0.4101(6) 0.1124(10) 0.9927(3)
H4_4 H 0.4042 0.1781 0.9926
I1_2 I 0.50297(3) 0.06369(11) 0.90304(2)
I2_4 I 0.42873(6) 0.32260(9) 0.94106(3)
N1_4 N 0.4275(4) 0.0735(7) 0.9686(2)
Zn1_2 Zn 0.43682(5) 0.14428(12) 0.93031(3)
N13_2 N 0.3761(3) 0.1064(6) 0.90722(18)
C1_3 C 0.0601(5) 0.0217(10) 0.4718(3)
H1_3 H 0.0431 0.0505 0.4568
C2_3 C 0.0712(5) 0.0767(10) 0.4958(3)
H2_3 H 0.0648 0.1423 0.4962
C3_4 C 0.0924(4) 0.0314(8) 0.5195(2)
C6_4 C 0.1028(4) 0.0858(8) 0.5461(2)
C7_4 C 0.1012(4) 0.2244(8) 0.5707(2)
C8_4 C 0.1334(4) 0.0910(8) 0.5911(2)
C9_4 C 0.0858(4) 0.3237(8) 0.5752(2)
C10_4 C 0.0586(5) 0.3720(10) 0.5533(3)
H5_4 H 0.0512 0.3390 0.5363
C11_4 C 0.0443(5) 0.4567(9) 0.5562(3)
H6_4 H 0.0274 0.4848 0.5411
C12_4 C 0.0756(7) 0.4687(11) 0.6012(3)
H7_4 H 0.0796 0.5023 0.6186
C13_4 C 0.0952(6) 0.3753(9) 0.5988(3)
H8_4 H 0.1142 0.3507 0.6135
C14_4 C 0.1545(4) 0.0411(7) 0.6155(2)
C15_4 C 0.1772(5) 0.0919(9) 0.6377(3)
H9_4 H 0.1774 0.1587 0.6381
C16_4 C 0.1999(5) 0.0375(9) 0.6594(3)
H10_4 H 0.2160 0.0701 0.6740
C19_4 C 0.3341(4) 0.1197(9) 0.9191(3)
H13_4 H 0.3328 0.1438 0.9381
C20_4 C 0.2934(4) 0.1010(9) 0.9057(2)
H14_4 H 0.2650 0.1019 0.9156
C21_4 C 0.2962(4) 0.0797(7) 0.8756(2)
C22_4 C 0.3404(4) 0.0705(8) 0.8634(2)
H15_4 H 0.3436 0.0535 0.8438
C23_4 C 0.3771(4) 0.0855(9) 0.8793(2)
H16_4 H 0.4063 0.0813 0.8703
C24_4 C 0.2518(4) 0.0680(6) 0.8586(2)
C25_4 C 0.1748(4) 0.0639(7) 0.8544(2)
C26_4 C 0.2187(4) 0.0326(7) 0.8147(2)
C27_4 C 0.1276(4) 0.0774(7) 0.8682(2)
C28_4 C 0.1230(4) 0.0861(10) 0.8980(3)
H17_4 H 0.1493 0.0847 0.9099
C29_4 C 0.0810(4) 0.0965(10) 0.9093(3)
H18_4 H 0.0783 0.0968 0.9296
C30_4 C 0.0459(5) 0.0981(11) 0.8646(3)
H19_4 H 0.0192 0.1049 0.8532
C31_4 C 0.0864(4) 0.0803(11) 0.8515(3)
H20_4 H 0.0875 0.0698 0.8315
C32_4 C 0.2226(4) 0.0047(6) 0.7844(2)
C36_4 C 0.2658(4) 0.0011(8) 0.7707(2)
H24_4 H 0.2927 0.0172 0.7810
I3_4 I 0.06746(5) 0.73206(10) 0.62565(4)
I4_4 I 0.00454(5) 0.71322(9) 0.53700(3)
N2_4 N 0.0905(3) 0.1784(7) 0.5470(2)
N3_4 N 0.1235(4) 0.1846(6) 0.5943(2)
N4_4 N 0.1230(3) 0.0422(6) 0.56741(18)
N5_4 N 0.0527(3) 0.5086(7) 0.5807(2)
N8_4 N 0.2127(3) 0.0773(6) 0.87157(17)
N9_4 N 0.1755(3) 0.0436(6) 0.82591(17)
N10_4 N 0.2582(3) 0.0448(5) 0.82948(16)
I1_3 I 0.00297(3) 0.43631(11) 0.09696(2)
C4_4 C 0.4006(6) 0.0635(9) 0.0173(3)
H3_4 H 0.3887 0.0967 0.0333
C17_4 C 0.3228(5) 0.1003(9) 0.1385(3)
H11_4 H 0.3224 0.1671 0.1386
C18_4 C 0.3449(5) 0.0590(8) 0.1174(3)
H12_4 H 0.3604 0.0959 0.1034
C33_4 C 0.3147(4) 0.0270(9) 0.2679(2)
H21_4 H 0.3445 0.0289 0.2762
C34_4 C 0.3086(5) 0.0546(10) 0.2408(3)
H22_4 H 0.3352 0.0721 0.2303
C35_4 C 0.2309(4) 0.0253(8) 0.2427(2)
H23_4 H 0.2021 0.0200 0.2333
I5_4 I 0.29809(5) 0.29595(7) 0.19517(2)
N6_4 N 0.3004(4) 0.0555(7) 0.16010(19)
N12_4 N 0.2682(3) 0.0595(6) 0.22753(18)
Zn3_4 Zn 0.25957(6) 0.13296(10) 0.18859(3)
I6_4 I 0.17533(4) 0.12820(11) 0.17229(3)
C1_4 C 0.4399(5) 0.9783(10) 0.9718(3)
H1_4 H 0.4569 0.9495 0.9568
C2_4 C 0.4288(5) 0.9233(10) 0.9958(3)
H2_4 H 0.4352 0.8577 0.9962
I1_4 I 0.99703(3) 0.93631(11) 0.40304(2)
H7_5 H 0.4204 0.0023 0.6186
I3_5 I 0.43254(5) 0.23206(10) 0.62565(4)
I4_5 I 0.49546(5) 0.21322(9) 0.53700(3)
N5_5 N 0.4473(3) 0.0086(7) 0.5807(2)
Zn2_3 Zn 0.47845(6) 0.14244(10) 0.58704(4)
N14_3 N 0.5417(3) 0.1068(6) 0.6064(2)
C1_5 C 0.4399(5) 0.5217(10) 0.4718(3)
H1_5 H 0.4569 0.5505 0.4568
C2_5 C 0.4288(5) 0.5767(10) 0.4958(3)
H2_5 H 0.4352 0.6423 0.4962
C3_5 C 0.4076(4) 0.5314(8) 0.5195(2)
C4_5 C 0.4006(6) 0.4365(9) 0.5173(3)
H3_5 H 0.3887 0.4033 0.5333
C5_5 C 0.4101(6) 0.3876(10) 0.4927(3)
H4_5 H 0.4042 0.3219 0.4926
C6_5 C 0.3972(4) 0.5858(8) 0.5461(2)
C7_5 C 0.3988(4) 0.7244(8) 0.5707(2)
C8_5 C 0.3666(4) 0.5910(8) 0.5911(2)
C9_5 C 0.4142(4) 0.8237(8) 0.5752(2)
C10_5 C 0.4414(5) 0.8720(10) 0.5533(3)
H5_5 H 0.4488 0.8390 0.5363
C11_5 C 0.4557(5) 0.9567(9) 0.5562(3)
H6_5 H 0.4726 0.9848 0.5411
C12_5 C 0.4244(7) 0.9687(11) 0.6012(3)
C13_5 C 0.4048(6) 0.8753(9) 0.5988(3)
H8_5 H 0.3858 0.8507 0.6135
C14_5 C 0.3455(4) 0.5411(7) 0.6155(2)
C15_5 C 0.3228(5) 0.5919(9) 0.6377(3)
H9_5 H 0.3226 0.6587 0.6381
C16_5 C 0.3001(5) 0.5375(9) 0.6594(3)
H10_5 H 0.2840 0.5701 0.6740
C17_5 C 0.3228(5) 0.3997(9) 0.6385(3)
H11_5 H 0.3224 0.3329 0.6386
C18_5 C 0.3449(5) 0.4410(8) 0.6174(3)
H12_5 H 0.3604 0.4041 0.6034
C19_5 C 0.1659(4) 0.6197(9) 0.9191(3)
H13_5 H 0.1672 0.6438 0.9381
C20_5 C 0.2066(4) 0.6010(9) 0.9057(2)
H14_5 H 0.2350 0.6019 0.9156
C21_5 C 0.2038(4) 0.5797(7) 0.8756(2)
C22_5 C 0.1596(4) 0.5705(8) 0.8634(2)
H15_5 H 0.1564 0.5535 0.8438
C23_5 C 0.1229(4) 0.5855(9) 0.8793(2)
H16_5 H 0.0937 0.5813 0.8703
C24_5 C 0.2482(4) 0.5680(6) 0.8586(2)
C25_5 C 0.3252(4) 0.5639(7) 0.8544(2)
C26_5 C 0.2813(4) 0.5326(7) 0.8147(2)
C27_5 C 0.3724(4) 0.5774(7) 0.8682(2)
C28_5 C 0.3770(4) 0.5861(10) 0.8980(3)
H17_5 H 0.3507 0.5847 0.9099
C29_5 C 0.4190(4) 0.5965(10) 0.9093(3)
H18_5 H 0.4217 0.5968 0.9296
C30_5 C 0.4541(5) 0.5981(11) 0.8646(3)
H19_5 H 0.4808 0.6049 0.8532
C31_5 C 0.4136(4) 0.5803(11) 0.8515(3)
H20_5 H 0.4125 0.5698 0.8315
C32_5 C 0.2774(4) 0.5047(6) 0.7844(2)
C33_5 C 0.3147(4) 0.4730(9) 0.7679(2)
H21_5 H 0.3445 0.4711 0.7762
C34_5 C 0.3086(5) 0.4454(10) 0.7408(3)
H22_5 H 0.3352 0.4279 0.7303
C35_5 C 0.2309(4) 0.4747(8) 0.7427(2)
H23_5 H 0.2021 0.4800 0.7333
C36_5 C 0.2342(4) 0.5011(8) 0.7707(2)
H24_5 H 0.2073 0.5172 0.7810
I1_5 I 0.50297(3) 0.43631(11) 0.40304(2)
I2_5 I 0.42873(6) 0.17740(9) 0.44106(3)
I5_5 I 0.29809(5) 0.20405(7) 0.69517(2)
N1_5 N 0.4275(4) 0.4265(7) 0.4686(2)
N2_5 N 0.4095(3) 0.6784(7) 0.5470(2)
N3_5 N 0.3765(4) 0.6846(6) 0.5943(2)
N4_5 N 0.3770(3) 0.5422(6) 0.56741(18)
N6_5 N 0.3004(4) 0.4445(7) 0.66010(19)
N7_3 N 0.1239(3) 0.6064(6) 0.90722(18)
N8_5 N 0.2873(3) 0.5773(6) 0.87157(17)
N9_5 N 0.3245(3) 0.5436(6) 0.82591(17)
N10_5 N 0.2418(3) 0.5448(5) 0.82948(16)
N11_3 N 0.4583(3) 0.6068(6) 0.8936(2)
N12_5 N 0.2682(3) 0.4405(6) 0.72753(18)
Zn1_3 Zn 0.43682(5) 0.35572(12) 0.43031(3)
Zn3_5 Zn 0.25957(6) 0.36704(10) 0.68859(3)
I6_5 I 0.17533(4) 0.37180(11) 0.67229(3)
N13_3 N 0.3761(3) 0.3936(6) 0.40722(18)
Zn4_3 Zn 0.06318(5) 0.64428(12) 0.93031(3)
Zn5_3 Zn 0.52155(6) 0.64244(10) 0.91296(4)
C3_6 C 0.0924(4) 0.4686(8) 0.0195(2)
C4_6 C 0.0994(6) 0.5635(9) 0.0173(3)
H3_6 H 0.1113 0.5967 0.0333
C6_6 C 0.1028(4) 0.4142(8) 0.0461(2)
C7_6 C 0.1012(4) 0.2756(8) 0.0707(2)
C8_6 C 0.1334(4) 0.4090(8) 0.0911(2)
C9_6 C 0.0858(4) 0.1763(8) 0.0752(2)
C10_6 C 0.0586(5) 0.1280(10) 0.0533(3)
H5_6 H 0.0512 0.1610 0.0363
C11_6 C 0.0443(5) 0.0433(9) 0.0562(3)
H6_6 H 0.0274 0.0152 0.0411
C12_6 C 0.0756(7) 0.0313(11) 0.1012(3)
C13_6 C 0.0952(6) 0.1247(9) 0.0988(3)
H8_6 H 0.1142 0.1493 0.1135
C14_6 C 0.1545(4) 0.4589(7) 0.1155(2)
C15_6 C 0.1772(5) 0.4081(9) 0.1377(3)
H9_6 H 0.1774 0.3413 0.1381
C16_6 C 0.1999(5) 0.4625(9) 0.1594(3)
H10_6 H 0.2160 0.4299 0.1740
C17_6 C 0.1772(5) 0.6003(9) 0.1385(3)
H11_6 H 0.1776 0.6671 0.1386
C18_6 C 0.1551(5) 0.5590(8) 0.1174(3)
H12_6 H 0.1396 0.5959 0.1034
C19_6 C 0.3341(4) 0.3803(9) 0.4191(3)
H13_6 H 0.3328 0.3562 0.4381
C20_6 C 0.2934(4) 0.3990(9) 0.4057(2)
H14_6 H 0.2650 0.3981 0.4156
C21_6 C 0.2962(4) 0.4203(7) 0.3756(2)
C22_6 C 0.3404(4) 0.4295(8) 0.3634(2)
H15_6 H 0.3436 0.4465 0.3438
C23_6 C 0.3771(4) 0.4145(9) 0.3793(2)
H16_6 H 0.4063 0.4187 0.3703
C24_6 C 0.2518(4) 0.4320(6) 0.3586(2)
C25_6 C 0.1748(4) 0.4361(7) 0.3544(2)
C26_6 C 0.2187(4) 0.4674(7) 0.3147(2)
C27_6 C 0.1276(4) 0.4226(7) 0.3682(2)
C28_6 C 0.1230(4) 0.4139(10) 0.3980(3)
H17_6 H 0.1493 0.4153 0.4099
C29_6 C 0.0810(4) 0.4035(10) 0.4093(3)
H18_6 H 0.0783 0.4032 0.4296
C30_6 C 0.0459(5) 0.4019(11) 0.3646(3)
H19_6 H 0.0192 0.3951 0.3532
C31_6 C 0.0864(4) 0.4197(11) 0.3515(3)
H20_6 H 0.0875 0.4302 0.3315
C32_6 C 0.2226(4) 0.4953(6) 0.2844(2)
C33_6 C 0.1853(4) 0.5270(9) 0.2679(2)
H21_6 H 0.1555 0.5289 0.2762
C34_6 C 0.1914(5) 0.5546(10) 0.2408(3)
H22_6 H 0.1648 0.5721 0.2303
C35_6 C 0.2691(4) 0.5253(8) 0.2427(2)
H23_6 H 0.2979 0.5200 0.2333
C36_6 C 0.2658(4) 0.4989(8) 0.2707(2)
H24_6 H 0.2927 0.4828 0.2810
I5_6 I 0.20191(5) 0.79595(7) 0.19517(2)
N2_6 N 0.0905(3) 0.3216(7) 0.0470(2)
N3_6 N 0.1235(4) 0.3154(6) 0.0943(2)
N4_6 N 0.1230(3) 0.4578(6) 0.06741(18)
N6_6 N 0.1996(4) 0.5555(7) 0.16010(19)
N8_6 N 0.2127(3) 0.4227(6) 0.37157(17)
N9_6 N 0.1755(3) 0.4564(6) 0.32591(17)
N10_6 N 0.2582(3) 0.4552(5) 0.32948(16)
N11_4 N 0.0417(3) 0.3932(6) 0.3936(2)
N12_6 N 0.2318(3) 0.5595(6) 0.22753(18)
Zn3_6 Zn 0.24043(6) 0.63296(10) 0.18859(3)
I6_6 I 0.32467(4) 0.62820(11) 0.17229(3)
C1_6 C 0.0601(5) 0.4783(10) 0.9718(3)
H1_6 H 0.0431 0.4495 0.9568
C2_6 C 0.0712(5) 0.4233(10) 0.9958(3)
H2_6 H 0.0648 0.3577 0.9962
C5_6 C 0.0899(6) 0.6124(10) 0.9927(3)
H4_6 H 0.0958 0.6781 0.9926
I2_6 I 0.07127(6) 0.82260(9) 0.94106(3)
N1_6 N 0.0725(4) 0.5735(7) 0.9686(2)
H7_6 H 0.0796 0.9977 0.1186
I3_6 I 0.06746(5) 0.76794(10) 0.12565(4)
I4_6 I 0.00454(5) 0.78678(9) 0.03700(3)
N5_6 N 0.0527(3) 0.9914(7) 0.0807(2)
Zn2_4 Zn 0.02155(6) 0.85756(10) 0.08704(4)
C3_7 C 0.5924(4) 0.0314(8) 0.9805(2)
C6_7 C 0.6028(4) 0.0858(8) 0.9539(2)
C7_7 C 0.6012(4) 0.2244(8) 0.9293(2)
C8_7 C 0.6334(4) 0.0910(8) 0.9089(2)
C9_7 C 0.5858(4) 0.3237(8) 0.9248(2)
C10_7 C 0.5586(5) 0.3720(10) 0.9467(3)
H5_7 H 0.5512 0.3390 0.9637
C11_7 C 0.5443(5) 0.4567(9) 0.9438(3)
H6_7 H 0.5274 0.4848 0.9589
C12_7 C 0.5756(7) 0.4687(11) 0.8988(3)
H7_7 H 0.5796 0.5023 0.8814
C13_7 C 0.5952(6) 0.3753(9) 0.9012(3)
H8_7 H 0.6142 0.3507 0.8865
C14_7 C 0.6545(4) 0.0411(7) 0.8845(2)
C15_7 C 0.6772(5) 0.0919(9) 0.8623(3)
H9_7 H 0.6774 0.1587 0.8619
C16_7 C 0.6999(5) 0.0375(9) 0.8406(3)
H10_7 H 0.7160 0.0701 0.8260
C19_7 C 0.8341(4) 0.1197(9) 0.5809(3)
H13_7 H 0.8328 0.1438 0.5619
C20_7 C 0.7934(4) 0.1010(9) 0.5943(2)
H14_7 H 0.7650 0.1019 0.5844
C21_7 C 0.7962(4) 0.0797(7) 0.6244(2)
C22_7 C 0.8404(4) 0.0705(8) 0.6366(2)
H15_7 H 0.8436 0.0535 0.6562
C23_7 C 0.8771(4) 0.0855(9) 0.6207(2)
H16_7 H 0.9063 0.0813 0.6297
C24_7 C 0.7518(4) 0.0680(6) 0.6414(2)
C25_7 C 0.6748(4) 0.0639(7) 0.6456(2)
C26_7 C 0.7187(4) 0.0326(7) 0.6853(2)
C27_7 C 0.6276(4) 0.0774(7) 0.6318(2)
C28_7 C 0.6230(4) 0.0861(10) 0.6020(3)
H17_7 H 0.6493 0.0847 0.5901
C29_7 C 0.5810(4) 0.0965(10) 0.5907(3)
H18_7 H 0.5783 0.0968 0.5704
C30_7 C 0.5459(5) 0.0981(11) 0.6354(3)
H19_7 H 0.5192 0.1049 0.6468
C31_7 C 0.5864(4) 0.0803(11) 0.6485(3)
H20_7 H 0.5875 0.0698 0.6685
C32_7 C 0.7226(4) 0.0047(6) 0.7156(2)
C36_7 C 0.7658(4) 0.0011(8) 0.7293(2)
H24_7 H 0.7927 0.0172 0.7190
I3_7 I 0.56746(5) 0.73206(10) 0.87435(4)
I4_7 I 0.50454(5) 0.71322(9) 0.96300(3)
N2_7 N 0.5905(3) 0.1784(7) 0.9530(2)
N3_7 N 0.6235(4) 0.1846(6) 0.9057(2)
N4_7 N 0.6230(3) 0.0422(6) 0.93259(18)
N5_7 N 0.5527(3) 0.5086(7) 0.9193(2)
N7_4 N 0.8761(3) 0.1064(6) 0.59278(18)
N8_7 N 0.7127(3) 0.0773(6) 0.62843(17)
N9_7 N 0.6755(3) 0.0436(6) 0.67409(17)
N10_7 N 0.7582(3) 0.0448(5) 0.67052(16)
Zn4_4 Zn 0.93682(5) 0.14428(12) 0.56969(3)
C4_7 C 0.9006(6) 0.0635(9) 0.4827(3)
H3_7 H 0.8887 0.0967 0.4667
C5_7 C 0.9101(6) 0.1124(10) 0.5073(3)
H4_7 H 0.9042 0.1781 0.5074
C17_7 C 0.8228(5) 0.1003(9) 0.3615(3)
H11_7 H 0.8224 0.1671 0.3614
C18_7 C 0.8449(5) 0.0590(8) 0.3826(3)
H12_7 H 0.8604 0.0959 0.3966
C33_7 C 0.8147(4) 0.0270(9) 0.2321(2)
H21_7 H 0.8445 0.0289 0.2238
C34_7 C 0.8086(5) 0.0546(10) 0.2592(3)
H22_7 H 0.8352 0.0721 0.2697
C35_7 C 0.7309(4) 0.0253(8) 0.2573(2)
H23_7 H 0.7021 0.0200 0.2667
I2_7 I 0.92873(6) 0.32260(9) 0.55894(3)
I5_7 I 0.79809(5) 0.29595(7) 0.30483(2)
N1_7 N 0.9275(4) 0.0735(7) 0.5314(2)
N6_7 N 0.8004(4) 0.0555(7) 0.33990(19)
N12_7 N 0.7682(3) 0.0595(6) 0.27247(18)
Zn3_7 Zn 0.75957(6) 0.13296(10) 0.31141(3)
I6_7 I 0.67533(4) 0.12820(11) 0.32771(3)
Zn5_4 Zn 0.97845(6) 0.35756(10) 0.41296(4)
N14_4 N 0.9583(3) 0.8932(6) 0.1064(2)
C5_8 C 0.5899(6) 0.8876(10) 0.0073(3)
H4_8 H 0.5958 0.8219 0.0074
I1_6 I 0.49703(3) 0.93631(11) 0.09696(2)
I2_8 I 0.57127(6) 0.67740(9) 0.05894(3)
N1_8 N 0.5725(4) 0.9265(7) 0.0314(2)
Zn1_4 Zn 0.56318(5) 0.85572(12) 0.06969(3)
N13_4 N 0.6239(3) 0.8936(6) 0.09278(18)
C1_7 C 0.9399(5) 0.9783(10) 0.5282(3)
H1_7 H 0.9569 0.9495 0.5432
C2_7 C 0.9288(5) 0.9233(10) 0.5042(3)
H2_7 H 0.9352 0.8577 0.5038
C3_8 C 0.9076(4) 0.9686(8) 0.4805(2)
C6_8 C 0.8972(4) 0.9142(8) 0.4539(2)
C7_8 C 0.8988(4) 0.7756(8) 0.4293(2)
C8_8 C 0.8666(4) 0.9090(8) 0.4089(2)
C9_8 C 0.9142(4) 0.6763(8) 0.4248(2)
C10_8 C 0.9414(5) 0.6280(10) 0.4467(3)
H5_8 H 0.9488 0.6610 0.4637
C11_8 C 0.9557(5) 0.5433(9) 0.4438(3)
H6_8 H 0.9726 0.5152 0.4589
C12_8 C 0.9244(7) 0.5313(11) 0.3988(3)
H7_8 H 0.9204 0.4977 0.3814
C13_8 C 0.9048(6) 0.6247(9) 0.4012(3)
H8_8 H 0.8858 0.6493 0.3865
C14_8 C 0.8455(4) 0.9589(7) 0.3845(2)
C15_8 C 0.8228(5) 0.9081(9) 0.3623(3)
H9_8 H 0.8226 0.8413 0.3619
C16_8 C 0.8001(5) 0.9625(9) 0.3406(3)
H10_8 H 0.7840 0.9299 0.3260
C19_8 C 0.6659(4) 0.8803(9) 0.0809(3)
H13_8 H 0.6672 0.8562 0.0619
C20_8 C 0.7066(4) 0.8990(9) 0.0943(2)
H14_8 H 0.7350 0.8981 0.0844
C21_8 C 0.7038(4) 0.9203(7) 0.1244(2)
C22_8 C 0.6596(4) 0.9295(8) 0.1366(2)
H15_8 H 0.6564 0.9465 0.1562
C23_8 C 0.6229(4) 0.9145(9) 0.1207(2)
H16_8 H 0.5937 0.9187 0.1297
C24_8 C 0.7482(4) 0.9320(6) 0.1414(2)
C25_8 C 0.8252(4) 0.9361(7) 0.1456(2)
C26_8 C 0.7813(4) 0.9674(7) 0.1853(2)
C27_8 C 0.8724(4) 0.9226(7) 0.1318(2)
C28_8 C 0.8770(4) 0.9139(10) 0.1020(3)
H17_8 H 0.8507 0.9153 0.0901
C29_8 C 0.9190(4) 0.9035(10) 0.0907(3)
H18_8 H 0.9217 0.9032 0.0704
C30_8 C 0.9541(5) 0.9019(11) 0.1354(3)
H19_8 H 0.9808 0.8951 0.1468
C31_8 C 0.9136(4) 0.9197(11) 0.1485(3)
H20_8 H 0.9125 0.9302 0.1685
C32_8 C 0.7774(4) 0.9953(6) 0.2156(2)
C36_8 C 0.7342(4) 0.9989(8) 0.2293(2)
H24_8 H 0.7073 0.9828 0.2190
I3_8 I 0.93254(5) 0.26794(10) 0.37435(4)
I4_8 I 0.99546(5) 0.28678(9) 0.46300(3)
N2_8 N 0.9095(3) 0.8216(7) 0.4530(2)
N3_8 N 0.8765(4) 0.8154(6) 0.4057(2)
N4_8 N 0.8770(3) 0.9578(6) 0.43259(18)
N5_8 N 0.9473(3) 0.4914(7) 0.4193(2)
N8_8 N 0.7873(3) 0.9227(6) 0.12843(17)
N9_8 N 0.8245(3) 0.9564(6) 0.17409(17)
N10_8 N 0.7418(3) 0.9552(5) 0.17052(16)
I1_7 I 0.99703(3) 0.56369(11) 0.90304(2)
C1_8 C 0.5601(5) 0.0217(10) 0.0282(3)
H1_8 H 0.5431 0.0505 0.0432
C2_8 C 0.5712(5) 0.0767(10) 0.0042(3)
H2_8 H 0.5648 0.1423 0.0038
C4_8 C 0.5994(6) 0.9365(9) 0.9827(3)
H3_8 H 0.6113 0.9033 0.9667
C17_8 C 0.6772(5) 0.8997(9) 0.8615(3)
H11_8 H 0.6776 0.8329 0.8614
C18_8 C 0.6551(5) 0.9410(8) 0.8826(3)
H12_8 H 0.6396 0.9041 0.8966
C33_8 C 0.6853(4) 0.9730(9) 0.7321(2)
H21_8 H 0.6555 0.9711 0.7238
C34_8 C 0.6914(5) 0.9454(10) 0.7592(3)
H22_8 H 0.6648 0.9279 0.7697
C35_8 C 0.7691(4) 0.9747(8) 0.7573(2)
H23_8 H 0.7979 0.9800 0.7667
I5_8 I 0.70191(5) 0.70405(7) 0.80483(2)
N6_8 N 0.6996(4) 0.9445(7) 0.83990(19)
N12_8 N 0.7318(3) 0.9405(6) 0.77247(18)
Zn3_8 Zn 0.74043(6) 0.86704(10) 0.81141(3)
I6_8 I 0.82467(4) 0.87180(11) 0.82771(3)
I1_8 I 0.00297(3) 0.06369(11) 0.59696(2)
loop_
_geom_bond_atom_site_label_1
_geom_bond_atom_site_label_2
_geom_bond_site_symmetry_1
_geom_bond_site_symmetry_2
C1 H1 1_555 1_555
C2 C1 1_555 1_555
H2 C2 1_555 1_555
C3 C2 1_555 1_555
C4 C3 1_555 1_555
H3 C4 1_555 1_555
C5 C4 1_555 1_555
H4 C5 1_555 1_555
C6 C3 1_555 1_555
C7 C9 1_555 1_555
C8 C14 1_555 1_555
C9 C10 1_555 1_555
C10 H5 1_555 1_555
C11 C10 1_555 1_555
H6 C11 1_555 1_555
C13 C9 1_555 1_555
H8 C13 1_555 1_555
C14 C15 1_555 1_555
C15 H9 1_555 1_555
C16 C15 1_555 1_555
H10 C16 1_555 1_555
C17 H11 1_555 1_555
C18 C14 1_555 1_555
H12 C18 1_555 1_555
C19 H13 1_555 1_555
C20 C19 1_555 1_555
H14 C20 1_555 1_555
C21 C20 1_555 1_555
C22 C21 1_555 1_555
H15 C22 1_555 1_555
C23 C22 1_555 1_555
H16 C23 1_555 1_555
C24 C21 1_555 1_555
C25 C27 1_555 1_555
C26 C32 1_555 1_555
C27 C28 1_555 1_555
C28 H17 1_555 1_555
C29 C28 1_555 1_555
H18 C29 1_555 1_555
C30 H19 1_555 1_555
C31 C27 1_555 1_555
H20 C31 1_555 1_555
C32 C33 1_555 1_555
C33 H21 1_555 1_555
C34 C33 1_555 1_555
H22 C34 1_555 1_555
C35 H23 1_555 1_555
C36 C32 1_555 1_555
H24 C36 1_555 1_555
I1 Zn1 1_555 1_555
I2 Zn1 1_555 1_555
I5 Zn3 1_555 1_555
N1 C1 1_555 1_555
N2 C6 1_555 1_555
N3 C7 1_555 1_555
N4 C6 1_555 1_555
N6 C16 1_555 1_555
N7 C19 1_555 1_555
N8 C24 1_555 1_555
N9 C25 1_555 1_555
N10 C24 1_555 1_555
N11 C29 1_555 1_555
N12 C34 1_555 1_555
Zn1 N1 1_555 1_555
Zn3 N6 1_555 1_555
I6 Zn3 1_555 1_555
N13 Zn1 1_555 1_555
Zn4 N7 1_555 1_555
Zn5 N11 1_555 1_555
C5 N1 1_555 1_555
C7 N2 1_555 1_555
C8 N3 1_555 1_555
C8 N4 1_555 1_555
C12 C13 1_555 1_555
C17 C18 1_555 1_555
C17 N6 1_555 1_555
C23 N7 1_555 1_555
C25 N8 1_555 1_555
C26 N9 1_555 1_555
C26 N10 1_555 1_555
C30 C31 1_555 1_555
C30 N11 1_555 1_555
C35 C36 1_555 1_555
C35 N12 1_555 1_555
N12 Zn3 1_555 1_555
I3 Zn2 1_555 1_555
I4 Zn2 1_555 1_555
Zn2 N5 1_555 1_555
N14 Zn2 1_555 1_555
I3_2 Zn2_2 1_555 1_555
I4_2 Zn2_2 1_555 1_555
Zn2_2 N5_2 1_555 1_555
C1_2 H1_2 1_555 1_555
C2_2 C1_2 1_555 1_555
H2_2 C2_2 1_555 1_555
H4_2 C5_2 1_555 1_555
I2_2 Zn4 1_555 1_555
N1_2 C1_2 1_555 1_555
Zn4 N1_2 1_555 1_555
C5_2 N1_2 1_555 1_555
C4_2 C3_2 1_555 1_555
H3_2 C4_2 1_555 1_555
C6_2 C3_2 1_555 1_555
C7_2 C9_2 1_555 1_555
C8_2 C14_2 1_555 1_555
C9_2 C10_2 1_555 1_555
C10_2 H5_2 1_555 1_555
C11_2 C10_2 1_555 1_555
H6_2 C11_2 1_555 1_555
C13_2 C9_2 1_555 1_555
H8_2 C13_2 1_555 1_555
C14_2 C15_2 1_555 1_555
C15_2 H9_2 1_555 1_555
C16_2 C15_2 1_555 1_555
H10_2 C16_2 1_555 1_555
C17_2 H11_2 1_555 1_555
C18_2 C14_2 1_555 1_555
H12_2 C18_2 1_555 1_555
C19_2 H13_2 1_555 1_555
C20_2 C19_2 1_555 1_555
H14_2 C20_2 1_555 1_555
C21_2 C20_2 1_555 1_555
C22_2 C21_2 1_555 1_555
H15_2 C22_2 1_555 1_555
C23_2 C22_2 1_555 1_555
H16_2 C23_2 1_555 1_555
C24_2 C21_2 1_555 1_555
C25_2 C27_2 1_555 1_555
C26_2 C32_2 1_555 1_555
C27_2 C28_2 1_555 1_555
C28_2 H17_2 1_555 1_555
C29_2 C28_2 1_555 1_555
H18_2 C29_2 1_555 1_555
C30_2 H19_2 1_555 1_555
C31_2 C27_2 1_555 1_555
H20_2 C31_2 1_555 1_555
C32_2 C33_2 1_555 1_555
C33_2 H21_2 1_555 1_555
C34_2 C33_2 1_555 1_555
H22_2 C34_2 1_555 1_555
C35_2 H23_2 1_555 1_555
C36_2 C32_2 1_555 1_555
H24_2 C36_2 1_555 1_555
I5_2 Zn3_2 1_555 1_555
N2_2 C6_2 1_555 1_555
N3_2 C7_2 1_555 1_555
N4_2 C6_2 1_555 1_555
N6_2 C16_2 1_555 1_555
N13 C19_2 1_555 1_555
N8_2 C24_2 1_555 1_555
N9_2 C25_2 1_555 1_555
N10_2 C24_2 1_555 1_555
N11_2 C29_2 1_555 1_555
N12_2 C34_2 1_555 1_555
Zn3_2 N6_2 1_555 1_555
I6_2 Zn3_2 1_555 1_555
C7_2 N2_2 1_555 1_555
C8_2 N3_2 1_555 1_555
C8_2 N4_2 1_555 1_555
C12_2 C13_2 1_555 1_555
C17_2 C18_2 1_555 1_555
C17_2 N6_2 1_555 1_555
C23_2 N13 1_555 1_555
C25_2 N8_2 1_555 1_555
C26_2 N9_2 1_555 1_555
C26_2 N10_2 1_555 1_555
C30_2 C31_2 1_555 1_555
C30_2 N11_2 1_555 1_555
C35_2 C36_2 1_555 1_555
C35_2 N12_2 1_555 1_555
N12_2 Zn3_2 1_555 1_555
C6_3 C3_3 1_555 1_555
C7_3 C9_3 1_555 1_555
C8_3 C14_3 1_555 1_555
C9_3 C10_3 1_555 1_555
C10_3 H5_3 1_555 1_555
C11_3 C10_3 1_555 1_555
H6_3 C11_3 1_555 1_555
C12_3 H7_3 1_555 1_555
C13_3 C9_3 1_555 1_555
H8_3 C13_3 1_555 1_555
C14_3 C15_3 1_555 1_555
C15_3 H9_3 1_555 1_555
C16_3 C15_3 1_555 1_555
H10_3 C16_3 1_555 1_555
C19_3 H13_3 1_555 1_555
C20_3 C19_3 1_555 1_555
H14_3 C20_3 1_555 1_555
C21_3 C20_3 1_555 1_555
C22_3 C21_3 1_555 1_555
H15_3 C22_3 1_555 1_555
C23_3 C22_3 1_555 1_555
H16_3 C23_3 1_555 1_555
C24_3 C21_3 1_555 1_555
C25_3 C27_3 1_555 1_555
C26_3 C32_3 1_555 1_555
C27_3 C28_3 1_555 1_555
C28_3 H17_3 1_555 1_555
C29_3 C28_3 1_555 1_555
H18_3 C29_3 1_555 1_555
C30_3 H19_3 1_555 1_555
C31_3 C27_3 1_555 1_555
H20_3 C31_3 1_555 1_555
C36_3 C32_3 1_555 1_555
H24_3 C36_3 1_555 1_555
I3_3 Zn5 1_555 1_555
I4_3 Zn5 1_555 1_555
N2_3 C6_3 1_555 1_555
N3_3 C7_3 1_555 1_555
N4_3 C6_3 1_555 1_555
N5_3 C11_3 1_555 1_555
N7_2 C19_3 1_555 1_555
N8_3 C24_3 1_555 1_555
N9_3 C25_3 1_555 1_555
N10_3 C24_3 1_555 1_555
N14 C29_3 1_555 1_555
Zn5 N5_3 1_555 1_555
Zn4_2 N7_2 1_555 1_555
C7_3 N2_3 1_555 1_555
C8_3 N3_3 1_555 1_555
C8_3 N4_3 1_555 1_555
C12_3 C13_3 1_555 1_555
C12_3 N5_3 1_555 1_555
C23_3 N7_2 1_555 1_555
C25_3 N8_3 1_555 1_555
C26_3 N9_3 1_555 1_555
C26_3 N10_3 1_555 1_555
C30_3 C31_3 1_555 1_555
C30_3 N14 1_555 1_555
H3_3 C4_3 1_555 1_555
C5_3 C4_3 1_555 1_555
H4_3 C5_3 1_555 1_555
C17_3 H11_3 1_555 1_555
H12_3 C18_3 1_555 1_555
C33_3 H21_3 1_555 1_555
C34_3 C33_3 1_555 1_555
H22_3 C34_3 1_555 1_555
C35_3 H23_3 1_555 1_555
I2_3 Zn4_2 1_555 1_555
I5_3 Zn3_3 1_555 1_555
N12_3 C34_3 1_555 1_555
Zn4_2 N1_3 1_555 1_555
Zn3_3 N6_3 1_555 1_555
I6_3 Zn3_3 1_555 1_555
C5_3 N1_3 1_555 1_555
C17_3 C18_3 1_555 1_555
C17_3 N6_3 1_555 1_555
C35_3 N12_3 1_555 1_555
N12_3 Zn3_3 1_555 1_555
H4_4 C5_4 1_555 1_555
I1_2 Zn1_2 1_555 1_555
I2_4 Zn1_2 1_555 1_555
Zn1_2 N1_4 1_555 1_555
N13_2 Zn1_2 1_555 1_555
C5_4 N1_4 1_555 1_555
C1_3 H1_3 1_555 1_555
C2_3 C1_3 1_555 1_555
H2_3 C2_3 1_555 1_555
C3_4 C2_3 1_555 1_555
C6_4 C3_4 1_555 1_555
C7_4 C9_4 1_555 1_555
C8_4 C14_4 1_555 1_555
C9_4 C10_4 1_555 1_555
C10_4 H5_4 1_555 1_555
C11_4 C10_4 1_555 1_555
H6_4 C11_4 1_555 1_555
C12_4 H7_4 1_555 1_555
C13_4 C9_4 1_555 1_555
H8_4 C13_4 1_555 1_555
C14_4 C15_4 1_555 1_555
C15_4 H9_4 1_555 1_555
C16_4 C15_4 1_555 1_555
H10_4 C16_4 1_555 1_555
C19_4 H13_4 1_555 1_555
C20_4 C19_4 1_555 1_555
H14_4 C20_4 1_555 1_555
C21_4 C20_4 1_555 1_555
C22_4 C21_4 1_555 1_555
H15_4 C22_4 1_555 1_555
C23_4 C22_4 1_555 1_555
H16_4 C23_4 1_555 1_555
C24_4 C21_4 1_555 1_555
C25_4 C27_4 1_555 1_555
C26_4 C32_4 1_555 1_555
C27_4 C28_4 1_555 1_555
C28_4 H17_4 1_555 1_555
C29_4 C28_4 1_555 1_555
H18_4 C29_4 1_555 1_555
C30_4 H19_4 1_555 1_555
C31_4 C27_4 1_555 1_555
H20_4 C31_4 1_555 1_555
C36_4 C32_4 1_555 1_555
H24_4 C36_4 1_555 1_555
I3_4 Zn5_2 1_555 1_555
I4_4 Zn5_2 1_555 1_555
N2_4 C6_4 1_555 1_555
N3_4 C7_4 1_555 1_555
N4_4 C6_4 1_555 1_555
N5_4 C11_4 1_555 1_555
N13_2 C19_4 1_555 1_555
N8_4 C24_4 1_555 1_555
N9_4 C25_4 1_555 1_555
N10_4 C24_4 1_555 1_555
N14_2 C29_4 1_555 1_555
Zn5_2 N5_4 1_555 1_555
C7_4 N2_4 1_555 1_555
C8_4 N3_4 1_555 1_555
C8_4 N4_4 1_555 1_555
C12_4 C13_4 1_555 1_555
C12_4 N5_4 1_555 1_555
C23_4 N13_2 1_555 1_555
C25_4 N8_4 1_555 1_555
C26_4 N9_4 1_555 1_555
C26_4 N10_4 1_555 1_555
C30_4 C31_4 1_555 1_555
C30_4 N14_2 1_555 1_555
H3_4 C4_4 1_555 1_555
C17_4 H11_4 1_555 1_555
H12_4 C18_4 1_555 1_555
C33_4 H21_4 1_555 1_555
C34_4 C33_4 1_555 1_555
H22_4 C34_4 1_555 1_555
C35_4 H23_4 1_555 1_555
I5_4 Zn3_4 1_555 1_555
N12_4 C34_4 1_555 1_555
Zn3_4 N6_4 1_555 1_555
I6_4 Zn3_4 1_555 1_555
C17_4 C18_4 1_555 1_555
C17_4 N6_4 1_555 1_555
C35_4 N12_4 1_555 1_555
N12_4 Zn3_4 1_555 1_555
C1_4 H1_4 1_555 1_555
C2_4 C1_4 1_555 1_555
H2_4 C2_4 1_555 1_555
I3_5 Zn2_3 1_555 1_555
I4_5 Zn2_3 1_555 1_555
Zn2_3 N5_5 1_555 1_555
N14_3 Zn2_3 1_555 1_555
C1_5 H1_5 1_555 1_555
C2_5 C1_5 1_555 1_555
H2_5 C2_5 1_555 1_555
C3_5 C2_5 1_555 1_555
C4_5 C3_5 1_555 1_555
H3_5 C4_5 1_555 1_555
C5_5 C4_5 1_555 1_555
H4_5 C5_5 1_555 1_555
C6_5 C3_5 1_555 1_555
C7_5 C9_5 1_555 1_555
C8_5 C14_5 1_555 1_555
C9_5 C10_5 1_555 1_555
C10_5 H5_5 1_555 1_555
C11_5 C10_5 1_555 1_555
H6_5 C11_5 1_555 1_555
C13_5 C9_5 1_555 1_555
H8_5 C13_5 1_555 1_555
C14_5 C15_5 1_555 1_555
C15_5 H9_5 1_555 1_555
C16_5 C15_5 1_555 1_555
H10_5 C16_5 1_555 1_555
C17_5 H11_5 1_555 1_555
C18_5 C14_5 1_555 1_555
H12_5 C18_5 1_555 1_555
C19_5 H13_5 1_555 1_555
C20_5 C19_5 1_555 1_555
H14_5 C20_5 1_555 1_555
C21_5 C20_5 1_555 1_555
C22_5 C21_5 1_555 1_555
H15_5 C22_5 1_555 1_555
C23_5 C22_5 1_555 1_555
H16_5 C23_5 1_555 1_555
C24_5 C21_5 1_555 1_555
C25_5 C27_5 1_555 1_555
C26_5 C32_5 1_555 1_555
C27_5 C28_5 1_555 1_555
C28_5 H17_5 1_555 1_555
C29_5 C28_5 1_555 1_555
H18_5 C29_5 1_555 1_555
C30_5 H19_5 1_555 1_555
C31_5 C27_5 1_555 1_555
H20_5 C31_5 1_555 1_555
C32_5 C33_5 1_555 1_555
C33_5 H21_5 1_555 1_555
C34_5 C33_5 1_555 1_555
H22_5 C34_5 1_555 1_555
C35_5 H23_5 1_555 1_555
C36_5 C32_5 1_555 1_555
H24_5 C36_5 1_555 1_555
I1_5 Zn1_3 1_555 1_555
I2_5 Zn1_3 1_555 1_555
I5_5 Zn3_5 1_555 1_555
N1_5 C1_5 1_555 1_555
N2_5 C6_5 1_555 1_555
N3_5 C7_5 1_555 1_555
N4_5 C6_5 1_555 1_555
N6_5 C16_5 1_555 1_555
N7_3 C19_5 1_555 1_555
N8_5 C24_5 1_555 1_555
N9_5 C25_5 1_555 1_555
N10_5 C24_5 1_555 1_555
N11_3 C29_5 1_555 1_555
N12_5 C34_5 1_555 1_555
Zn1_3 N1_5 1_555 1_555
Zn3_5 N6_5 1_555 1_555
I6_5 Zn3_5 1_555 1_555
N13_3 Zn1_3 1_555 1_555
Zn4_3 N7_3 1_555 1_555
Zn5_3 N11_3 1_555 1_555
C5_5 N1_5 1_555 1_555
C7_5 N2_5 1_555 1_555
C8_5 N3_5 1_555 1_555
C8_5 N4_5 1_555 1_555
C12_5 C13_5 1_555 1_555
C17_5 C18_5 1_555 1_555
C17_5 N6_5 1_555 1_555
C23_5 N7_3 1_555 1_555
C25_5 N8_5 1_555 1_555
C26_5 N9_5 1_555 1_555
C26_5 N10_5 1_555 1_555
C30_5 C31_5 1_555 1_555
C30_5 N11_3 1_555 1_555
C35_5 C36_5 1_555 1_555
C35_5 N12_5 1_555 1_555
N12_5 Zn3_5 1_555 1_555
C4_6 C3_6 1_555 1_555
H3_6 C4_6 1_555 1_555
C6_6 C3_6 1_555 1_555
C7_6 C9_6 1_555 1_555
C8_6 C14_6 1_555 1_555
C9_6 C10_6 1_555 1_555
C10_6 H5_6 1_555 1_555
C11_6 C10_6 1_555 1_555
H6_6 C11_6 1_555 1_555
C13_6 C9_6 1_555 1_555
H8_6 C13_6 1_555 1_555
C14_6 C15_6 1_555 1_555
C15_6 H9_6 1_555 1_555
C16_6 C15_6 1_555 1_555
H10_6 C16_6 1_555 1_555
C17_6 H11_6 1_555 1_555
C18_6 C14_6 1_555 1_555
H12_6 C18_6 1_555 1_555
C19_6 H13_6 1_555 1_555
C20_6 C19_6 1_555 1_555
H14_6 C20_6 1_555 1_555
C21_6 C20_6 1_555 1_555
C22_6 C21_6 1_555 1_555
H15_6 C22_6 1_555 1_555
C23_6 C22_6 1_555 1_555
H16_6 C23_6 1_555 1_555
C24_6 C21_6 1_555 1_555
C25_6 C27_6 1_555 1_555
C26_6 C32_6 1_555 1_555
C27_6 C28_6 1_555 1_555
C28_6 H17_6 1_555 1_555
C29_6 C28_6 1_555 1_555
H18_6 C29_6 1_555 1_555
C30_6 H19_6 1_555 1_555
C31_6 C27_6 1_555 1_555
H20_6 C31_6 1_555 1_555
C32_6 C33_6 1_555 1_555
C33_6 H21_6 1_555 1_555
C34_6 C33_6 1_555 1_555
H22_6 C34_6 1_555 1_555
C35_6 H23_6 1_555 1_555
C36_6 C32_6 1_555 1_555
H24_6 C36_6 1_555 1_555
I5_6 Zn3_6 1_555 1_555
N2_6 C6_6 1_555 1_555
N3_6 C7_6 1_555 1_555
N4_6 C6_6 1_555 1_555
N6_6 C16_6 1_555 1_555
N13_3 C19_6 1_555 1_555
N8_6 C24_6 1_555 1_555
N9_6 C25_6 1_555 1_555
N10_6 C24_6 1_555 1_555
N11_4 C29_6 1_555 1_555
N12_6 C34_6 1_555 1_555
Zn3_6 N6_6 1_555 1_555
I6_6 Zn3_6 1_555 1_555
C7_6 N2_6 1_555 1_555
C8_6 N3_6 1_555 1_555
C8_6 N4_6 1_555 1_555
C12_6 C13_6 1_555 1_555
C17_6 C18_6 1_555 1_555
C17_6 N6_6 1_555 1_555
C23_6 N13_3 1_555 1_555
C25_6 N8_6 1_555 1_555
C26_6 N9_6 1_555 1_555
C26_6 N10_6 1_555 1_555
C30_6 C31_6 1_555 1_555
C30_6 N11_4 1_555 1_555
C35_6 C36_6 1_555 1_555
C35_6 N12_6 1_555 1_555
N12_6 Zn3_6 1_555 1_555
C1_6 H1_6 1_555 1_555
C2_6 C1_6 1_555 1_555
H2_6 C2_6 1_555 1_555
H4_6 C5_6 1_555 1_555
I2_6 Zn4_3 1_555 1_555
N1_6 C1_6 1_555 1_555
Zn4_3 N1_6 1_555 1_555
C5_6 N1_6 1_555 1_555
I3_6 Zn2_4 1_555 1_555
I4_6 Zn2_4 1_555 1_555
Zn2_4 N5_6 1_555 1_555
C6_7 C3_7 1_555 1_555
C7_7 C9_7 1_555 1_555
C8_7 C14_7 1_555 1_555
C9_7 C10_7 1_555 1_555
C10_7 H5_7 1_555 1_555
C11_7 C10_7 1_555 1_555
H6_7 C11_7 1_555 1_555
C12_7 H7_7 1_555 1_555
C13_7 C9_7 1_555 1_555
H8_7 C13_7 1_555 1_555
C14_7 C15_7 1_555 1_555
C15_7 H9_7 1_555 1_555
C16_7 C15_7 1_555 1_555
H10_7 C16_7 1_555 1_555
C19_7 H13_7 1_555 1_555
C20_7 C19_7 1_555 1_555
H14_7 C20_7 1_555 1_555
C21_7 C20_7 1_555 1_555
C22_7 C21_7 1_555 1_555
H15_7 C22_7 1_555 1_555
C23_7 C22_7 1_555 1_555
H16_7 C23_7 1_555 1_555
C24_7 C21_7 1_555 1_555
C25_7 C27_7 1_555 1_555
C26_7 C32_7 1_555 1_555
C27_7 C28_7 1_555 1_555
C28_7 H17_7 1_555 1_555
C29_7 C28_7 1_555 1_555
H18_7 C29_7 1_555 1_555
C30_7 H19_7 1_555 1_555
C31_7 C27_7 1_555 1_555
H20_7 C31_7 1_555 1_555
C36_7 C32_7 1_555 1_555
H24_7 C36_7 1_555 1_555
I3_7 Zn5_3 1_555 1_555
I4_7 Zn5_3 1_555 1_555
N2_7 C6_7 1_555 1_555
N3_7 C7_7 1_555 1_555
N4_7 C6_7 1_555 1_555
N5_7 C11_7 1_555 1_555
N7_4 C19_7 1_555 1_555
N8_7 C24_7 1_555 1_555
N9_7 C25_7 1_555 1_555
N10_7 C24_7 1_555 1_555
N14_3 C29_7 1_555 1_555
Zn5_3 N5_7 1_555 1_555
Zn4_4 N7_4 1_555 1_555
C7_7 N2_7 1_555 1_555
C8_7 N3_7 1_555 1_555
C8_7 N4_7 1_555 1_555
C12_7 C13_7 1_555 1_555
C12_7 N5_7 1_555 1_555
C23_7 N7_4 1_555 1_555
C25_7 N8_7 1_555 1_555
C26_7 N9_7 1_555 1_555
C26_7 N10_7 1_555 1_555
C30_7 C31_7 1_555 1_555
C30_7 N14_3 1_555 1_555
H3_7 C4_7 1_555 1_555
C5_7 C4_7 1_555 1_555
H4_7 C5_7 1_555 1_555
C17_7 H11_7 1_555 1_555
H12_7 C18_7 1_555 1_555
C33_7 H21_7 1_555 1_555
C34_7 C33_7 1_555 1_555
H22_7 C34_7 1_555 1_555
C35_7 H23_7 1_555 1_555
I2_7 Zn4_4 1_555 1_555
I5_7 Zn3_7 1_555 1_555
N12_7 C34_7 1_555 1_555
Zn4_4 N1_7 1_555 1_555
Zn3_7 N6_7 1_555 1_555
I6_7 Zn3_7 1_555 1_555
C5_7 N1_7 1_555 1_555
C17_7 C18_7 1_555 1_555
C17_7 N6_7 1_555 1_555
C35_7 N12_7 1_555 1_555
N12_7 Zn3_7 1_555 1_555
H4_8 C5_8 1_555 1_555
I1_6 Zn1_4 1_555 1_555
I2_8 Zn1_4 1_555 1_555
Zn1_4 N1_8 1_555 1_555
N13_4 Zn1_4 1_555 1_555
C5_8 N1_8 1_555 1_555
C1_7 H1_7 1_555 1_555
C2_7 C1_7 1_555 1_555
H2_7 C2_7 1_555 1_555
C3_8 C2_7 1_555 1_555
C6_8 C3_8 1_555 1_555
C7_8 C9_8 1_555 1_555
C8_8 C14_8 1_555 1_555
C9_8 C10_8 1_555 1_555
C10_8 H5_8 1_555 1_555
C11_8 C10_8 1_555 1_555
H6_8 C11_8 1_555 1_555
C12_8 H7_8 1_555 1_555
C13_8 C9_8 1_555 1_555
H8_8 C13_8 1_555 1_555
C14_8 C15_8 1_555 1_555
C15_8 H9_8 1_555 1_555
C16_8 C15_8 1_555 1_555
H10_8 C16_8 1_555 1_555
C19_8 H13_8 1_555 1_555
C20_8 C19_8 1_555 1_555
H14_8 C20_8 1_555 1_555
C21_8 C20_8 1_555 1_555
C22_8 C21_8 1_555 1_555
H15_8 C22_8 1_555 1_555
C23_8 C22_8 1_555 1_555
H16_8 C23_8 1_555 1_555
C24_8 C21_8 1_555 1_555
C25_8 C27_8 1_555 1_555
C26_8 C32_8 1_555 1_555
C27_8 C28_8 1_555 1_555
C28_8 H17_8 1_555 1_555
C29_8 C28_8 1_555 1_555
H18_8 C29_8 1_555 1_555
C30_8 H19_8 1_555 1_555
C31_8 C27_8 1_555 1_555
H20_8 C31_8 1_555 1_555
C36_8 C32_8 1_555 1_555
H24_8 C36_8 1_555 1_555
I3_8 Zn5_4 1_555 1_555
I4_8 Zn5_4 1_555 1_555
N2_8 C6_8 1_555 1_555
N3_8 C7_8 1_555 1_555
N4_8 C6_8 1_555 1_555
N5_8 C11_8 1_555 1_555
N13_4 C19_8 1_555 1_555
N8_8 C24_8 1_555 1_555
N9_8 C25_8 1_555 1_555
N10_8 C24_8 1_555 1_555
N14_4 C29_8 1_555 1_555
Zn5_4 N5_8 1_555 1_555
C7_8 N2_8 1_555 1_555
C8_8 N3_8 1_555 1_555
C8_8 N4_8 1_555 1_555
C12_8 C13_8 1_555 1_555
C12_8 N5_8 1_555 1_555
C23_8 N13_4 1_555 1_555
C25_8 N8_8 1_555 1_555
C26_8 N9_8 1_555 1_555
C26_8 N10_8 1_555 1_555
C30_8 C31_8 1_555 1_555
C30_8 N14_4 1_555 1_555
C1_8 H1_8 1_555 1_555
C2_8 C1_8 1_555 1_555
H2_8 C2_8 1_555 1_555
H3_8 C4_8 1_555 1_555
C17_8 H11_8 1_555 1_555
H12_8 C18_8 1_555 1_555
C33_8 H21_8 1_555 1_555
C34_8 C33_8 1_555 1_555
H22_8 C34_8 1_555 1_555
C35_8 H23_8 1_555 1_555
I5_8 Zn3_8 1_555 1_555
N12_8 C34_8 1_555 1_555
Zn3_8 N6_8 1_555 1_555
I6_8 Zn3_8 1_555 1_555
C17_8 C18_8 1_555 1_555
C17_8 N6_8 1_555 1_555
C35_8 N12_8 1_555 1_555
N12_8 Zn3_8 1_555 1_555

#END
