
###############################################################################
#
# This file contains modified crystal structure data generated from the
# MOF subset of the Cambridge Structural Database (CSD) v543 
# hosted by the Cambridge Crystallographic Data Centre (CCDC).
#
# This work is licensed under the Creative Commons
# Attribution-NonCommercial-ShareAlike 4.0 International License.
# To view a copy of this license, visit
# http://creativecommons.org/licenses/by-nc-sa/4.0/
# or send a letter to
# Creative Commons, PO Box 1866, Mountain View, CA 94042, USA.
#
# CIF created using the CSD Python API on 29 September 2022
# The structure has been converted into the P1 space group
# The structure has a 3D framework
# The original CSD entry KEVXOB is in the orthorhombic crystal system
# The framework has been calculated to contain at least 10.0% void space
# The void calculation uses a probe of radius 1.32A, grid spacing 0.4
#
###############################################################################

data_KEVXOB
_chemical_formula_moiety         '(C288 H192 I48 N96 Zn24)n'
_symmetry_cell_setting           triclinic
_symmetry_space_group_name_H-M   'P 1'
_symmetry_Int_Tables_number      1
_space_group_name_Hall           'P 1'
loop_
_symmetry_equiv_pos_site_id
_symmetry_equiv_pos_as_xyz
1 x,y,z
_cell_length_a                   28.6185(9)
_cell_length_b                   13.9534(3)
_cell_length_c                   45.9449(12)
_cell_angle_alpha                90
_cell_angle_beta                 90
_cell_angle_gamma                90
_cell_volume                     18347
loop_
_atom_site_label
_atom_site_type_symbol
_atom_site_fract_x
_atom_site_fract_y
_atom_site_fract_z
C1 C 0.5606(4) 0.4805(7) 0.5285(2)
H1 H 0.5446 0.4517 0.5438
C2 C 0.5707(4) 0.4259(7) 0.5045(2)
H2 H 0.5628 0.3613 0.5040
C3 C 0.5929(3) 0.4688(6) 0.48101(17)
C4 C 0.6022(5) 0.5637(7) 0.4823(2)
H3 H 0.6168 0.5940 0.4667
C5 C 0.5894(4) 0.6185(7) 0.5078(2)
H4 H 0.5929 0.6847 0.5077
C6 C 0.6033(3) 0.4149(6) 0.45405(17)
C7 C 0.6019(3) 0.2752(6) 0.42903(18)
C8 C 0.6337(3) 0.4087(6) 0.40921(18)
C9 C 0.5862(3) 0.1762(6) 0.4258(2)
C10 C 0.5591(4) 0.1318(7) 0.4481(2)
H5 H 0.5516 0.1650 0.4650
C11 C 0.5443(4) 0.0395(7) 0.4441(2)
H6 H 0.5281 0.0096 0.4591
C12 C 0.5779(4) 0.0323(7) 0.3993(2)
C13 C 0.5950(4) 0.1230(7) 0.4013(2)
H8 H 0.6125 0.1487 0.3862
C14 C 0.6560(3) 0.4588(5) 0.38447(18)
C15 C 0.6779(4) 0.4093(6) 0.3625(2)
H9 H 0.6771 0.3427 0.3620
C16 C 0.7014(4) 0.4611(6) 0.3408(2)
H10 H 0.7179 0.4282 0.3266
C17 C 0.6777(4) 0.6023(6) 0.3612(2)
H11 H 0.6762 0.6689 0.3605
C18 C 0.6562(4) 0.5564(6) 0.3836(2)
H12 H 0.6417 0.5915 0.3983
C19 C 0.8344(3) 0.3822(7) 0.0809(2)
H13 H 0.8326 0.3655 0.0613
C20 C 0.7945(3) 0.3963(6) 0.09519(17)
H14 H 0.7660 0.3900 0.0856
C21 C 0.7959(3) 0.4208(5) 0.12466(16)
C22 C 0.8397(3) 0.4294(6) 0.13697(17)
H15 H 0.8428 0.4461 0.1565
C23 C 0.8780(3) 0.4136(6) 0.12062(18)
H16 H 0.9071 0.4195 0.1294
C24 C 0.7517(3) 0.4326(4) 0.14191(16)
C25 C 0.6750(3) 0.4347(5) 0.14552(16)
C26 C 0.7191(3) 0.4662(5) 0.18530(15)
C27 C 0.6284(3) 0.4232(5) 0.13207(18)
C28 C 0.6230(3) 0.4152(7) 0.1022(2)
H17 H 0.6489 0.4186 0.0900
C29 C 0.5802(3) 0.4027(7) 0.0910(2)
H18 H 0.5775 0.4007 0.0708
C30 C 0.5455(4) 0.4017(9) 0.1350(2)
H19 H 0.5188 0.3962 0.1464
C31 C 0.5871(3) 0.4185(9) 0.1485(2)
H20 H 0.5881 0.4269 0.1685
C32 C 0.7234(3) 0.4944(5) 0.21568(15)
C33 C 0.6852(3) 0.5259(7) 0.23168(19)
H21 H 0.6557 0.5280 0.2232
C34 C 0.6914(3) 0.5543(7) 0.2603(2)
H22 H 0.6653 0.5715 0.2712
C35 C 0.7691(3) 0.5273(6) 0.25776(17)
H23 H 0.7981 0.5257 0.2669
C36 C 0.7663(3) 0.4971(6) 0.22901(17)
H24 H 0.7931 0.4790 0.2189
I1 I 0.49637(3) 0.56623(8) 0.59688(2)
I2 I 0.57191(4) 0.82491(6) 0.55875(3)
I5 I 0.70142(4) 0.79569(5) 0.30471(2)
N1 N 0.5728(3) 0.5756(5) 0.53137(16)
N2 N 0.5911(3) 0.3223(5) 0.45351(16)
N3 N 0.6233(3) 0.3163(5) 0.40636(15)
N4 N 0.6237(3) 0.4593(5) 0.43269(15)
N6 N 0.7007(3) 0.5569(5) 0.34031(15)
N7 N 0.8766(2) 0.3903(5) 0.09267(14)
N8 N 0.7121(2) 0.4231(4) 0.12894(13)
N9 N 0.6759(2) 0.4568(4) 0.17415(13)
N10 N 0.7582(2) 0.4557(4) 0.17035(13)
N11 N 0.5414(2) 0.3927(5) 0.10642(16)
N12 N 0.7330(3) 0.5579(5) 0.27256(14)
Zn1 Zn 0.56290(4) 0.64660(9) 0.56967(2)
Zn3 Zn 0.74089(4) 0.63333(7) 0.31148(2)
I6 I 0.82550(3) 0.62968(9) 0.32745(2)
N13 N 0.6234(2) 0.6097(5) 0.59267(14)
Zn4 Zn 0.93710(4) 0.35340(9) 0.06967(2)
Zn5 Zn 0.47811(4) 0.35744(7) 0.08686(3)
H7 H 0.5845 0.9972 0.3825
I3 I 0.56801(4) 0.76819(7) 0.37448(3)
I4 I 0.50462(4) 0.78627(7) 0.46307(2)
N5 N 0.5522(3) 0.9910(5) 0.41992(16)
Zn2 Zn 0.52189(4) 0.85744(7) 0.41314(3)
N14 N 0.4586(2) 0.8927(5) 0.39358(16)
H7_2 H 0.9155 0.0028 0.8825
I3_2 I 0.93199(4) 0.23181(7) 0.87448(3)
I4_2 I 0.99538(4) 0.21373(7) 0.96307(2)
N5_2 N 0.9478(3) 0.0090(5) 0.91992(16)
Zn2_2 Zn 0.97811(4) 0.14256(7) 0.91314(3)
C1_2 C 0.9394(4) 0.5195(7) 0.0285(2)
H1_2 H 0.9554 0.5483 0.0438
C2_2 C 0.9293(4) 0.5741(7) 0.0045(2)
H2_2 H 0.9372 0.6387 0.0040
C5_2 C 0.9106(4) 0.3815(7) 0.0078(2)
H4_2 H 0.9071 0.3153 0.0077
I2_2 I 0.92809(4) 0.17509(6) 0.05875(3)
N1_2 N 0.9272(3) 0.4244(5) 0.03137(16)
C3_2 C 0.9071(3) 0.5312(6) 0.98101(17)
C4_2 C 0.8978(5) 0.4363(7) 0.9823(2)
H3_2 H 0.8832 0.4060 0.9667
C6_2 C 0.8967(3) 0.5851(6) 0.95405(17)
C7_2 C 0.8981(3) 0.7248(6) 0.92903(18)
C8_2 C 0.8663(3) 0.5913(6) 0.90921(18)
C9_2 C 0.9138(3) 0.8238(6) 0.9258(2)
C10_2 C 0.9409(4) 0.8682(7) 0.9481(2)
H5_2 H 0.9484 0.8350 0.9650
C11_2 C 0.9557(4) 0.9605(7) 0.9441(2)
H6_2 H 0.9719 0.9904 0.9591
C12_2 C 0.9221(4) 0.9677(7) 0.8993(2)
C13_2 C 0.9050(4) 0.8770(7) 0.9013(2)
H8_2 H 0.8875 0.8513 0.8862
C14_2 C 0.8440(3) 0.5412(5) 0.88447(18)
C15_2 C 0.8221(4) 0.5907(6) 0.8625(2)
H9_2 H 0.8229 0.6573 0.8620
C16_2 C 0.7986(4) 0.5389(6) 0.8408(2)
H10_2 H 0.7821 0.5718 0.8266
C17_2 C 0.8223(4) 0.3977(6) 0.8612(2)
H11_2 H 0.8238 0.3311 0.8605
C18_2 C 0.8438(4) 0.4436(6) 0.8836(2)
H12_2 H 0.8583 0.4085 0.8983
C19_2 C 0.6656(3) 0.6178(7) 0.5809(2)
H13_2 H 0.6674 0.6345 0.5613
C20_2 C 0.7055(3) 0.6037(6) 0.59519(17)
H14_2 H 0.7340 0.6100 0.5856
C21_2 C 0.7041(3) 0.5792(5) 0.62466(16)
C22_2 C 0.6603(3) 0.5706(6) 0.63697(17)
H15_2 H 0.6572 0.5539 0.6565
C23_2 C 0.6220(3) 0.5864(6) 0.62062(18)
H16_2 H 0.5929 0.5805 0.6294
C24_2 C 0.7483(3) 0.5674(4) 0.64191(16)
C25_2 C 0.8250(3) 0.5653(5) 0.64552(16)
C26_2 C 0.7809(3) 0.5338(5) 0.68530(15)
C27_2 C 0.8716(3) 0.5768(5) 0.63207(18)
C28_2 C 0.8770(3) 0.5848(7) 0.6022(2)
H17_2 H 0.8511 0.5814 0.5900
C29_2 C 0.9198(3) 0.5973(7) 0.5910(2)
H18_2 H 0.9225 0.5993 0.5708
C30_2 C 0.9545(4) 0.5983(9) 0.6350(2)
H19_2 H 0.9812 0.6038 0.6464
C31_2 C 0.9129(3) 0.5815(9) 0.6485(2)
H20_2 H 0.9119 0.5731 0.6685
C32_2 C 0.7766(3) 0.5056(5) 0.71568(15)
C33_2 C 0.8148(3) 0.4741(7) 0.73168(19)
H21_2 H 0.8443 0.4720 0.7232
C34_2 C 0.8086(3) 0.4457(7) 0.7603(2)
H22_2 H 0.8347 0.4285 0.7712
C35_2 C 0.7309(3) 0.4727(6) 0.75776(17)
H23_2 H 0.7019 0.4743 0.7669
C36_2 C 0.7337(3) 0.5029(6) 0.72901(17)
H24_2 H 0.7069 0.5210 0.7189
I5_2 I 0.79858(4) 0.20431(5) 0.80471(2)
N2_2 N 0.9089(3) 0.6777(5) 0.95351(16)
N3_2 N 0.8767(3) 0.6837(5) 0.90636(15)
N4_2 N 0.8763(3) 0.5407(5) 0.93269(15)
N6_2 N 0.7993(3) 0.4431(5) 0.84031(15)
N8_2 N 0.7879(2) 0.5769(4) 0.62894(13)
N9_2 N 0.8241(2) 0.5432(4) 0.67415(13)
N10_2 N 0.7418(2) 0.5443(4) 0.67035(13)
N11_2 N 0.9586(2) 0.6073(5) 0.60642(16)
N12_2 N 0.7670(3) 0.4421(5) 0.77256(14)
Zn3_2 Zn 0.75911(4) 0.36667(7) 0.81148(2)
I6_2 I 0.67450(3) 0.37032(9) 0.82745(2)
C3_3 C 0.4071(3) 0.9688(6) 0.01899(17)
C6_3 C 0.3967(3) 0.9149(6) 0.04595(17)
C7_3 C 0.3981(3) 0.7752(6) 0.07097(18)
C8_3 C 0.3663(3) 0.9087(6) 0.09079(18)
C9_3 C 0.4138(3) 0.6762(6) 0.0742(2)
C10_3 C 0.4409(4) 0.6318(7) 0.0519(2)
H5_3 H 0.4484 0.6650 0.0350
C11_3 C 0.4557(4) 0.5395(7) 0.0559(2)
H6_3 H 0.4719 0.5096 0.0409
C12_3 C 0.4221(4) 0.5323(7) 0.1007(2)
H7_3 H 0.4155 0.4972 0.1175
C13_3 C 0.4050(4) 0.6230(7) 0.0987(2)
H8_3 H 0.3875 0.6487 0.1138
C14_3 C 0.3440(3) 0.9588(5) 0.11553(18)
C15_3 C 0.3221(4) 0.9093(6) 0.1375(2)
H9_3 H 0.3229 0.8427 0.1380
C16_3 C 0.2986(4) 0.9611(6) 0.1592(2)
H10_3 H 0.2821 0.9282 0.1734
C19_3 C 0.1656(3) 0.8822(7) 0.4191(2)
H13_3 H 0.1674 0.8655 0.4387
C20_3 C 0.2055(3) 0.8963(6) 0.40481(17)
H14_3 H 0.2340 0.8900 0.4144
C21_3 C 0.2041(3) 0.9208(5) 0.37534(16)
C22_3 C 0.1603(3) 0.9294(6) 0.36303(17)
H15_3 H 0.1572 0.9461 0.3435
C23_3 C 0.1220(3) 0.9136(6) 0.37938(18)
H16_3 H 0.0929 0.9195 0.3706
C24_3 C 0.2483(3) 0.9326(4) 0.35809(16)
C25_3 C 0.3250(3) 0.9347(5) 0.35448(16)
C26_3 C 0.2809(3) 0.9662(5) 0.31470(15)
C27_3 C 0.3716(3) 0.9232(5) 0.36793(18)
C28_3 C 0.3770(3) 0.9152(7) 0.3978(2)
H17_3 H 0.3511 0.9186 0.4100
C29_3 C 0.4198(3) 0.9027(7) 0.4090(2)
H18_3 H 0.4225 0.9007 0.4292
C30_3 C 0.4545(4) 0.9017(9) 0.3650(2)
H19_3 H 0.4812 0.8962 0.3536
C31_3 C 0.4129(3) 0.9185(9) 0.3515(2)
H20_3 H 0.4119 0.9269 0.3315
C32_3 C 0.2766(3) 0.9944(5) 0.28432(15)
C36_3 C 0.2337(3) 0.9971(6) 0.27099(17)
H24_3 H 0.2069 0.9790 0.2811
I3_3 I 0.43199(4) 0.26819(7) 0.12552(3)
I4_3 I 0.49538(4) 0.28627(7) 0.03693(2)
N2_3 N 0.4089(3) 0.8223(5) 0.04649(16)
N3_3 N 0.3767(3) 0.8163(5) 0.09364(15)
N4_3 N 0.3763(3) 0.9593(5) 0.06731(15)
N5_3 N 0.4478(3) 0.4910(5) 0.08008(16)
N7_2 N 0.1234(2) 0.8903(5) 0.40733(14)
N8_3 N 0.2879(2) 0.9231(4) 0.37106(13)
N9_3 N 0.3241(2) 0.9568(4) 0.32585(13)
N10_3 N 0.2418(2) 0.9557(4) 0.32965(13)
Zn4_2 Zn 0.06290(4) 0.85340(9) 0.43033(2)
C4_3 C 0.1022(5) 0.9363(7) 0.5177(2)
H3_3 H 0.1168 0.9060 0.5333
C5_3 C 0.0894(4) 0.8815(7) 0.4922(2)
H4_3 H 0.0929 0.8153 0.4923
C17_3 C 0.1777(4) 0.8977(6) 0.6388(2)
H11_3 H 0.1762 0.8311 0.6395
C18_3 C 0.1562(4) 0.9436(6) 0.6164(2)
H12_3 H 0.1417 0.9085 0.6017
C33_3 C 0.1852(3) 0.9741(7) 0.76832(19)
H21_3 H 0.1557 0.9720 0.7768
C34_3 C 0.1914(3) 0.9457(7) 0.7397(2)
H22_3 H 0.1653 0.9285 0.7288
C35_3 C 0.2691(3) 0.9727(6) 0.74224(17)
H23_3 H 0.2981 0.9743 0.7331
I2_3 I 0.07191(4) 0.67509(6) 0.44125(3)
I5_3 I 0.20142(4) 0.70431(5) 0.69529(2)
N1_3 N 0.0728(3) 0.9244(5) 0.46863(16)
N6_3 N 0.2007(3) 0.9431(5) 0.65969(15)
N12_3 N 0.2330(3) 0.9421(5) 0.72744(14)
Zn3_3 Zn 0.24089(4) 0.86667(7) 0.68852(2)
I6_3 I 0.32550(3) 0.87032(9) 0.67255(2)
N14_2 N 0.0414(2) 0.1073(5) 0.89358(16)
Zn5_2 Zn 0.02189(4) 0.64256(7) 0.58686(3)
C5_4 C 0.4106(4) 0.1185(7) 0.9922(2)
H4_4 H 0.4071 0.1847 0.9923
I1_2 I 0.50363(3) 0.06623(8) 0.90312(2)
I2_4 I 0.42809(4) 0.32491(6) 0.94125(3)
N1_4 N 0.4272(3) 0.0756(5) 0.96863(16)
Zn1_2 Zn 0.43710(4) 0.14660(9) 0.93033(2)
N13_2 N 0.3766(2) 0.1097(5) 0.90733(14)
C1_3 C 0.0606(4) 0.0195(7) 0.4715(2)
H1_3 H 0.0446 0.0483 0.4562
C2_3 C 0.0707(4) 0.0741(7) 0.4955(2)
H2_3 H 0.0628 0.1387 0.4960
C3_4 C 0.0929(3) 0.0312(6) 0.51899(17)
C6_4 C 0.1033(3) 0.0851(6) 0.54595(17)
C7_4 C 0.1019(3) 0.2248(6) 0.57097(18)
C8_4 C 0.1337(3) 0.0913(6) 0.59079(18)
C9_4 C 0.0862(3) 0.3238(6) 0.5742(2)
C10_4 C 0.0591(4) 0.3682(7) 0.5519(2)
H5_4 H 0.0516 0.3350 0.5350
C11_4 C 0.0443(4) 0.4605(7) 0.5559(2)
H6_4 H 0.0281 0.4904 0.5409
C12_4 C 0.0779(4) 0.4677(7) 0.6007(2)
H7_4 H 0.0845 0.5028 0.6175
C13_4 C 0.0950(4) 0.3770(7) 0.5987(2)
H8_4 H 0.1125 0.3513 0.6138
C14_4 C 0.1560(3) 0.0412(5) 0.61553(18)
C15_4 C 0.1779(4) 0.0907(6) 0.6375(2)
H9_4 H 0.1771 0.1573 0.6380
C16_4 C 0.2014(4) 0.0389(6) 0.6592(2)
H10_4 H 0.2179 0.0718 0.6734
C19_4 C 0.3344(3) 0.1178(7) 0.9191(2)
H13_4 H 0.3326 0.1345 0.9387
C20_4 C 0.2945(3) 0.1037(6) 0.90481(17)
H14_4 H 0.2660 0.1100 0.9144
C21_4 C 0.2959(3) 0.0792(5) 0.87534(16)
C22_4 C 0.3397(3) 0.0706(6) 0.86303(17)
H15_4 H 0.3428 0.0539 0.8435
C23_4 C 0.3780(3) 0.0864(6) 0.87938(18)
H16_4 H 0.4071 0.0805 0.8706
C24_4 C 0.2517(3) 0.0674(4) 0.85809(16)
C25_4 C 0.1750(3) 0.0653(5) 0.85448(16)
C26_4 C 0.2191(3) 0.0338(5) 0.81470(15)
C27_4 C 0.1284(3) 0.0768(5) 0.86793(18)
C28_4 C 0.1230(3) 0.0848(7) 0.8978(2)
H17_4 H 0.1489 0.0814 0.9100
C29_4 C 0.0802(3) 0.0973(7) 0.9090(2)
H18_4 H 0.0775 0.0993 0.9292
C30_4 C 0.0455(4) 0.0983(9) 0.8650(2)
H19_4 H 0.0188 0.1038 0.8536
C31_4 C 0.0871(3) 0.0815(9) 0.8515(2)
H20_4 H 0.0881 0.0731 0.8315
C32_4 C 0.2234(3) 0.0056(5) 0.78432(15)
C36_4 C 0.2663(3) 0.0029(6) 0.77099(17)
H24_4 H 0.2931 0.0210 0.7811
I3_4 I 0.06801(4) 0.73181(7) 0.62552(3)
I4_4 I 0.00462(4) 0.71373(7) 0.53693(2)
N2_4 N 0.0911(3) 0.1777(5) 0.54649(16)
N3_4 N 0.1233(3) 0.1837(5) 0.59364(15)
N4_4 N 0.1237(3) 0.0407(5) 0.56731(15)
N5_4 N 0.0522(3) 0.5090(5) 0.58008(16)
N8_4 N 0.2121(2) 0.0769(4) 0.87106(13)
N9_4 N 0.1759(2) 0.0432(4) 0.82585(13)
N10_4 N 0.2582(2) 0.0443(4) 0.82965(13)
I1_3 I 0.00363(3) 0.43377(8) 0.09688(2)
C4_4 C 0.3978(5) 0.0637(7) 0.0177(2)
H3_4 H 0.3832 0.0940 0.0333
C17_4 C 0.3223(4) 0.1023(6) 0.1388(2)
H11_4 H 0.3238 0.1689 0.1395
C18_4 C 0.3438(4) 0.0564(6) 0.1164(2)
H12_4 H 0.3583 0.0915 0.1017
C33_4 C 0.3148(3) 0.0259(7) 0.26832(19)
H21_4 H 0.3443 0.0280 0.2768
C34_4 C 0.3086(3) 0.0543(7) 0.2397(2)
H22_4 H 0.3347 0.0715 0.2288
C35_4 C 0.2309(3) 0.0273(6) 0.24224(17)
H23_4 H 0.2019 0.0257 0.2331
I5_4 I 0.29858(4) 0.29569(5) 0.19529(2)
N6_4 N 0.2993(3) 0.0569(5) 0.15969(15)
N12_4 N 0.2670(3) 0.0579(5) 0.22744(14)
Zn3_4 Zn 0.25911(4) 0.13333(7) 0.18852(2)
I6_4 I 0.17450(3) 0.12968(9) 0.17255(2)
C1_4 C 0.4394(4) 0.9805(7) 0.9715(2)
H1_4 H 0.4554 0.9517 0.9562
C2_4 C 0.4293(4) 0.9259(7) 0.9955(2)
H2_4 H 0.4372 0.8613 0.9960
I1_4 I 0.99637(3) 0.93377(8) 0.40312(2)
H7_5 H 0.4155 0.0028 0.6175
I3_5 I 0.43199(4) 0.23181(7) 0.62552(3)
I4_5 I 0.49538(4) 0.21373(7) 0.53693(2)
N5_5 N 0.4478(3) 0.0090(5) 0.58008(16)
Zn2_3 Zn 0.47811(4) 0.14256(7) 0.58686(3)
N14_3 N 0.5414(2) 0.1073(5) 0.60642(16)
C1_5 C 0.4394(4) 0.5195(7) 0.4715(2)
H1_5 H 0.4554 0.5483 0.4562
C2_5 C 0.4293(4) 0.5741(7) 0.4955(2)
H2_5 H 0.4372 0.6387 0.4960
C3_5 C 0.4071(3) 0.5312(6) 0.51899(17)
C4_5 C 0.3978(5) 0.4363(7) 0.5177(2)
H3_5 H 0.3832 0.4060 0.5333
C5_5 C 0.4106(4) 0.3815(7) 0.4922(2)
H4_5 H 0.4071 0.3153 0.4923
C6_5 C 0.3967(3) 0.5851(6) 0.54595(17)
C7_5 C 0.3981(3) 0.7248(6) 0.57097(18)
C8_5 C 0.3663(3) 0.5913(6) 0.59079(18)
C9_5 C 0.4138(3) 0.8238(6) 0.5742(2)
C10_5 C 0.4409(4) 0.8682(7) 0.5519(2)
H5_5 H 0.4484 0.8350 0.5350
C11_5 C 0.4557(4) 0.9605(7) 0.5559(2)
H6_5 H 0.4719 0.9904 0.5409
C12_5 C 0.4221(4) 0.9677(7) 0.6007(2)
C13_5 C 0.4050(4) 0.8770(7) 0.5987(2)
H8_5 H 0.3875 0.8513 0.6138
C14_5 C 0.3440(3) 0.5412(5) 0.61553(18)
C15_5 C 0.3221(4) 0.5907(6) 0.6375(2)
H9_5 H 0.3229 0.6573 0.6380
C16_5 C 0.2986(4) 0.5389(6) 0.6592(2)
H10_5 H 0.2821 0.5718 0.6734
C17_5 C 0.3223(4) 0.3977(6) 0.6388(2)
H11_5 H 0.3238 0.3311 0.6395
C18_5 C 0.3438(4) 0.4436(6) 0.6164(2)
H12_5 H 0.3583 0.4085 0.6017
C19_5 C 0.1656(3) 0.6178(7) 0.9191(2)
H13_5 H 0.1674 0.6345 0.9387
C20_5 C 0.2055(3) 0.6037(6) 0.90481(17)
H14_5 H 0.2340 0.6100 0.9144
C21_5 C 0.2041(3) 0.5792(5) 0.87534(16)
C22_5 C 0.1603(3) 0.5706(6) 0.86303(17)
H15_5 H 0.1572 0.5539 0.8435
C23_5 C 0.1220(3) 0.5864(6) 0.87938(18)
H16_5 H 0.0929 0.5805 0.8706
C24_5 C 0.2483(3) 0.5674(4) 0.85809(16)
C25_5 C 0.3250(3) 0.5653(5) 0.85448(16)
C26_5 C 0.2809(3) 0.5338(5) 0.81470(15)
C27_5 C 0.3716(3) 0.5768(5) 0.86793(18)
C28_5 C 0.3770(3) 0.5848(7) 0.8978(2)
H17_5 H 0.3511 0.5814 0.9100
C29_5 C 0.4198(3) 0.5973(7) 0.9090(2)
H18_5 H 0.4225 0.5993 0.9292
C30_5 C 0.4545(4) 0.5983(9) 0.8650(2)
H19_5 H 0.4812 0.6038 0.8536
C31_5 C 0.4129(3) 0.5815(9) 0.8515(2)
H20_5 H 0.4119 0.5731 0.8315
C32_5 C 0.2766(3) 0.5056(5) 0.78432(15)
C33_5 C 0.3148(3) 0.4741(7) 0.76832(19)
H21_5 H 0.3443 0.4720 0.7768
C34_5 C 0.3086(3) 0.4457(7) 0.7397(2)
H22_5 H 0.3347 0.4285 0.7288
C35_5 C 0.2309(3) 0.4727(6) 0.74224(17)
H23_5 H 0.2019 0.4743 0.7331
C36_5 C 0.2337(3) 0.5029(6) 0.77099(17)
H24_5 H 0.2069 0.5210 0.7811
I1_5 I 0.50363(3) 0.43377(8) 0.40312(2)
I2_5 I 0.42809(4) 0.17509(6) 0.44125(3)
I5_5 I 0.29858(4) 0.20431(5) 0.69529(2)
N1_5 N 0.4272(3) 0.4244(5) 0.46863(16)
N2_5 N 0.4089(3) 0.6777(5) 0.54649(16)
N3_5 N 0.3767(3) 0.6837(5) 0.59364(15)
N4_5 N 0.3763(3) 0.5407(5) 0.56731(15)
N6_5 N 0.2993(3) 0.4431(5) 0.65969(15)
N7_3 N 0.1234(2) 0.6097(5) 0.90733(14)
N8_5 N 0.2879(2) 0.5769(4) 0.87106(13)
N9_5 N 0.3241(2) 0.5432(4) 0.82585(13)
N10_5 N 0.2418(2) 0.5443(4) 0.82965(13)
N11_3 N 0.4586(2) 0.6073(5) 0.89358(16)
N12_5 N 0.2670(3) 0.4421(5) 0.72744(14)
Zn1_3 Zn 0.43710(4) 0.35340(9) 0.43033(2)
Zn3_5 Zn 0.25911(4) 0.36667(7) 0.68852(2)
I6_5 I 0.17450(3) 0.37032(9) 0.67255(2)
N13_3 N 0.3766(2) 0.3903(5) 0.40733(14)
Zn4_3 Zn 0.06290(4) 0.64660(9) 0.93033(2)
Zn5_3 Zn 0.52189(4) 0.64256(7) 0.91314(3)
C3_6 C 0.0929(3) 0.4688(6) 0.01899(17)
C4_6 C 0.1022(5) 0.5637(7) 0.0177(2)
H3_6 H 0.1168 0.5940 0.0333
C6_6 C 0.1033(3) 0.4149(6) 0.04595(17)
C7_6 C 0.1019(3) 0.2752(6) 0.07097(18)
C8_6 C 0.1337(3) 0.4087(6) 0.09079(18)
C9_6 C 0.0862(3) 0.1762(6) 0.0742(2)
C10_6 C 0.0591(4) 0.1318(7) 0.0519(2)
H5_6 H 0.0516 0.1650 0.0350
C11_6 C 0.0443(4) 0.0395(7) 0.0559(2)
H6_6 H 0.0281 0.0096 0.0409
C12_6 C 0.0779(4) 0.0323(7) 0.1007(2)
C13_6 C 0.0950(4) 0.1230(7) 0.0987(2)
H8_6 H 0.1125 0.1487 0.1138
C14_6 C 0.1560(3) 0.4588(5) 0.11553(18)
C15_6 C 0.1779(4) 0.4093(6) 0.1375(2)
H9_6 H 0.1771 0.3427 0.1380
C16_6 C 0.2014(4) 0.4611(6) 0.1592(2)
H10_6 H 0.2179 0.4282 0.1734
C17_6 C 0.1777(4) 0.6023(6) 0.1388(2)
H11_6 H 0.1762 0.6689 0.1395
C18_6 C 0.1562(4) 0.5564(6) 0.1164(2)
H12_6 H 0.1417 0.5915 0.1017
C19_6 C 0.3344(3) 0.3822(7) 0.4191(2)
H13_6 H 0.3326 0.3655 0.4387
C20_6 C 0.2945(3) 0.3963(6) 0.40481(17)
H14_6 H 0.2660 0.3900 0.4144
C21_6 C 0.2959(3) 0.4208(5) 0.37534(16)
C22_6 C 0.3397(3) 0.4294(6) 0.36303(17)
H15_6 H 0.3428 0.4461 0.3435
C23_6 C 0.3780(3) 0.4136(6) 0.37938(18)
H16_6 H 0.4071 0.4195 0.3706
C24_6 C 0.2517(3) 0.4326(4) 0.35809(16)
C25_6 C 0.1750(3) 0.4347(5) 0.35448(16)
C26_6 C 0.2191(3) 0.4662(5) 0.31470(15)
C27_6 C 0.1284(3) 0.4232(5) 0.36793(18)
C28_6 C 0.1230(3) 0.4152(7) 0.3978(2)
H17_6 H 0.1489 0.4186 0.4100
C29_6 C 0.0802(3) 0.4027(7) 0.4090(2)
H18_6 H 0.0775 0.4007 0.4292
C30_6 C 0.0455(4) 0.4017(9) 0.3650(2)
H19_6 H 0.0188 0.3962 0.3536
C31_6 C 0.0871(3) 0.4185(9) 0.3515(2)
H20_6 H 0.0881 0.4269 0.3315
C32_6 C 0.2234(3) 0.4944(5) 0.28432(15)
C33_6 C 0.1852(3) 0.5259(7) 0.26832(19)
H21_6 H 0.1557 0.5280 0.2768
C34_6 C 0.1914(3) 0.5543(7) 0.2397(2)
H22_6 H 0.1653 0.5715 0.2288
C35_6 C 0.2691(3) 0.5273(6) 0.24224(17)
H23_6 H 0.2981 0.5257 0.2331
C36_6 C 0.2663(3) 0.4971(6) 0.27099(17)
H24_6 H 0.2931 0.4790 0.2811
I5_6 I 0.20142(4) 0.79569(5) 0.19529(2)
N2_6 N 0.0911(3) 0.3223(5) 0.04649(16)
N3_6 N 0.1233(3) 0.3163(5) 0.09364(15)
N4_6 N 0.1237(3) 0.4593(5) 0.06731(15)
N6_6 N 0.2007(3) 0.5569(5) 0.15969(15)
N8_6 N 0.2121(2) 0.4231(4) 0.37106(13)
N9_6 N 0.1759(2) 0.4568(4) 0.32585(13)
N10_6 N 0.2582(2) 0.4557(4) 0.32965(13)
N11_4 N 0.0414(2) 0.3927(5) 0.39358(16)
N12_6 N 0.2330(3) 0.5579(5) 0.22744(14)
Zn3_6 Zn 0.24089(4) 0.63333(7) 0.18852(2)
I6_6 I 0.32550(3) 0.62968(9) 0.17255(2)
C1_6 C 0.0606(4) 0.4805(7) 0.9715(2)
H1_6 H 0.0446 0.4517 0.9562
C2_6 C 0.0707(4) 0.4259(7) 0.9955(2)
H2_6 H 0.0628 0.3613 0.9960
C5_6 C 0.0894(4) 0.6185(7) 0.9922(2)
H4_6 H 0.0929 0.6847 0.9923
I2_6 I 0.07191(4) 0.82491(6) 0.94125(3)
N1_6 N 0.0728(3) 0.5756(5) 0.96863(16)
H7_6 H 0.0845 0.9972 0.1175
I3_6 I 0.06801(4) 0.76819(7) 0.12552(3)
I4_6 I 0.00462(4) 0.78627(7) 0.03693(2)
N5_6 N 0.0522(3) 0.9910(5) 0.08008(16)
Zn2_4 Zn 0.02189(4) 0.85744(7) 0.08686(3)
C3_7 C 0.5929(3) 0.0312(6) 0.98101(17)
C6_7 C 0.6033(3) 0.0851(6) 0.95405(17)
C7_7 C 0.6019(3) 0.2248(6) 0.92903(18)
C8_7 C 0.6337(3) 0.0913(6) 0.90921(18)
C9_7 C 0.5862(3) 0.3238(6) 0.9258(2)
C10_7 C 0.5591(4) 0.3682(7) 0.9481(2)
H5_7 H 0.5516 0.3350 0.9650
C11_7 C 0.5443(4) 0.4605(7) 0.9441(2)
H6_7 H 0.5281 0.4904 0.9591
C12_7 C 0.5779(4) 0.4677(7) 0.8993(2)
H7_7 H 0.5845 0.5028 0.8825
C13_7 C 0.5950(4) 0.3770(7) 0.9013(2)
H8_7 H 0.6125 0.3513 0.8862
C14_7 C 0.6560(3) 0.0412(5) 0.88447(18)
C15_7 C 0.6779(4) 0.0907(6) 0.8625(2)
H9_7 H 0.6771 0.1573 0.8620
C16_7 C 0.7014(4) 0.0389(6) 0.8408(2)
H10_7 H 0.7179 0.0718 0.8266
C19_7 C 0.8344(3) 0.1178(7) 0.5809(2)
H13_7 H 0.8326 0.1345 0.5613
C20_7 C 0.7945(3) 0.1037(6) 0.59519(17)
H14_7 H 0.7660 0.1100 0.5856
C21_7 C 0.7959(3) 0.0792(5) 0.62466(16)
C22_7 C 0.8397(3) 0.0706(6) 0.63697(17)
H15_7 H 0.8428 0.0539 0.6565
C23_7 C 0.8780(3) 0.0864(6) 0.62062(18)
H16_7 H 0.9071 0.0805 0.6294
C24_7 C 0.7517(3) 0.0674(4) 0.64191(16)
C25_7 C 0.6750(3) 0.0653(5) 0.64552(16)
C26_7 C 0.7191(3) 0.0338(5) 0.68530(15)
C27_7 C 0.6284(3) 0.0768(5) 0.63207(18)
C28_7 C 0.6230(3) 0.0848(7) 0.6022(2)
H17_7 H 0.6489 0.0814 0.5900
C29_7 C 0.5802(3) 0.0973(7) 0.5910(2)
H18_7 H 0.5775 0.0993 0.5708
C30_7 C 0.5455(4) 0.0983(9) 0.6350(2)
H19_7 H 0.5188 0.1038 0.6464
C31_7 C 0.5871(3) 0.0815(9) 0.6485(2)
H20_7 H 0.5881 0.0731 0.6685
C32_7 C 0.7234(3) 0.0056(5) 0.71568(15)
C36_7 C 0.7663(3) 0.0029(6) 0.72901(17)
H24_7 H 0.7931 0.0210 0.7189
I3_7 I 0.56801(4) 0.73181(7) 0.87448(3)
I4_7 I 0.50462(4) 0.71373(7) 0.96307(2)
N2_7 N 0.5911(3) 0.1777(5) 0.95351(16)
N3_7 N 0.6233(3) 0.1837(5) 0.90636(15)
N4_7 N 0.6237(3) 0.0407(5) 0.93269(15)
N5_7 N 0.5522(3) 0.5090(5) 0.91992(16)
N7_4 N 0.8766(2) 0.1097(5) 0.59267(14)
N8_7 N 0.7121(2) 0.0769(4) 0.62894(13)
N9_7 N 0.6759(2) 0.0432(4) 0.67415(13)
N10_7 N 0.7582(2) 0.0443(4) 0.67035(13)
Zn4_4 Zn 0.93710(4) 0.14660(9) 0.56967(2)
C4_7 C 0.8978(5) 0.0637(7) 0.4823(2)
H3_7 H 0.8832 0.0940 0.4667
C5_7 C 0.9106(4) 0.1185(7) 0.5078(2)
H4_7 H 0.9071 0.1847 0.5077
C17_7 C 0.8223(4) 0.1023(6) 0.3612(2)
H11_7 H 0.8238 0.1689 0.3605
C18_7 C 0.8438(4) 0.0564(6) 0.3836(2)
H12_7 H 0.8583 0.0915 0.3983
C33_7 C 0.8148(3) 0.0259(7) 0.23168(19)
H21_7 H 0.8443 0.0280 0.2232
C34_7 C 0.8086(3) 0.0543(7) 0.2603(2)
H22_7 H 0.8347 0.0715 0.2712
C35_7 C 0.7309(3) 0.0273(6) 0.25776(17)
H23_7 H 0.7019 0.0257 0.2669
I2_7 I 0.92809(4) 0.32491(6) 0.55875(3)
I5_7 I 0.79858(4) 0.29569(5) 0.30471(2)
N1_7 N 0.9272(3) 0.0756(5) 0.53137(16)
N6_7 N 0.7993(3) 0.0569(5) 0.34031(15)
N12_7 N 0.7670(3) 0.0579(5) 0.27256(14)
Zn3_7 Zn 0.75911(4) 0.13333(7) 0.31148(2)
I6_7 I 0.67450(3) 0.12968(9) 0.32745(2)
Zn5_4 Zn 0.97811(4) 0.35744(7) 0.41314(3)
N14_4 N 0.9586(2) 0.8927(5) 0.10642(16)
C5_8 C 0.5894(4) 0.8815(7) 0.0078(2)
H4_8 H 0.5929 0.8153 0.0077
I1_6 I 0.49637(3) 0.93377(8) 0.09688(2)
I2_8 I 0.57191(4) 0.67509(6) 0.05875(3)
N1_8 N 0.5728(3) 0.9244(5) 0.03137(16)
Zn1_4 Zn 0.56290(4) 0.85340(9) 0.06967(2)
N13_4 N 0.6234(2) 0.8903(5) 0.09267(14)
C1_7 C 0.9394(4) 0.9805(7) 0.5285(2)
H1_7 H 0.9554 0.9517 0.5438
C2_7 C 0.9293(4) 0.9259(7) 0.5045(2)
H2_7 H 0.9372 0.8613 0.5040
C3_8 C 0.9071(3) 0.9688(6) 0.48101(17)
C6_8 C 0.8967(3) 0.9149(6) 0.45405(17)
C7_8 C 0.8981(3) 0.7752(6) 0.42903(18)
C8_8 C 0.8663(3) 0.9087(6) 0.40921(18)
C9_8 C 0.9138(3) 0.6762(6) 0.4258(2)
C10_8 C 0.9409(4) 0.6318(7) 0.4481(2)
H5_8 H 0.9484 0.6650 0.4650
C11_8 C 0.9557(4) 0.5395(7) 0.4441(2)
H6_8 H 0.9719 0.5096 0.4591
C12_8 C 0.9221(4) 0.5323(7) 0.3993(2)
H7_8 H 0.9155 0.4972 0.3825
C13_8 C 0.9050(4) 0.6230(7) 0.4013(2)
H8_8 H 0.8875 0.6487 0.3862
C14_8 C 0.8440(3) 0.9588(5) 0.38447(18)
C15_8 C 0.8221(4) 0.9093(6) 0.3625(2)
H9_8 H 0.8229 0.8427 0.3620
C16_8 C 0.7986(4) 0.9611(6) 0.3408(2)
H10_8 H 0.7821 0.9282 0.3266
C19_8 C 0.6656(3) 0.8822(7) 0.0809(2)
H13_8 H 0.6674 0.8655 0.0613
C20_8 C 0.7055(3) 0.8963(6) 0.09519(17)
H14_8 H 0.7340 0.8900 0.0856
C21_8 C 0.7041(3) 0.9208(5) 0.12466(16)
C22_8 C 0.6603(3) 0.9294(6) 0.13697(17)
H15_8 H 0.6572 0.9461 0.1565
C23_8 C 0.6220(3) 0.9136(6) 0.12062(18)
H16_8 H 0.5929 0.9195 0.1294
C24_8 C 0.7483(3) 0.9326(4) 0.14191(16)
C25_8 C 0.8250(3) 0.9347(5) 0.14552(16)
C26_8 C 0.7809(3) 0.9662(5) 0.18530(15)
C27_8 C 0.8716(3) 0.9232(5) 0.13207(18)
C28_8 C 0.8770(3) 0.9152(7) 0.1022(2)
H17_8 H 0.8511 0.9186 0.0900
C29_8 C 0.9198(3) 0.9027(7) 0.0910(2)
H18_8 H 0.9225 0.9007 0.0708
C30_8 C 0.9545(4) 0.9017(9) 0.1350(2)
H19_8 H 0.9812 0.8962 0.1464
C31_8 C 0.9129(3) 0.9185(9) 0.1485(2)
H20_8 H 0.9119 0.9269 0.1685
C32_8 C 0.7766(3) 0.9944(5) 0.21568(15)
C36_8 C 0.7337(3) 0.9971(6) 0.22901(17)
H24_8 H 0.7069 0.9790 0.2189
I3_8 I 0.93199(4) 0.26819(7) 0.37448(3)
I4_8 I 0.99538(4) 0.28627(7) 0.46307(2)
N2_8 N 0.9089(3) 0.8223(5) 0.45351(16)
N3_8 N 0.8767(3) 0.8163(5) 0.40636(15)
N4_8 N 0.8763(3) 0.9593(5) 0.43269(15)
N5_8 N 0.9478(3) 0.4910(5) 0.41992(16)
N8_8 N 0.7879(2) 0.9231(4) 0.12894(13)
N9_8 N 0.8241(2) 0.9568(4) 0.17415(13)
N10_8 N 0.7418(2) 0.9557(4) 0.17035(13)
I1_7 I 0.99637(3) 0.56623(8) 0.90312(2)
C1_8 C 0.5606(4) 0.0195(7) 0.0285(2)
H1_8 H 0.5446 0.0483 0.0438
C2_8 C 0.5707(4) 0.0741(7) 0.0045(2)
H2_8 H 0.5628 0.1387 0.0040
C4_8 C 0.6022(5) 0.9363(7) 0.9823(2)
H3_8 H 0.6168 0.9060 0.9667
C17_8 C 0.6777(4) 0.8977(6) 0.8612(2)
H11_8 H 0.6762 0.8311 0.8605
C18_8 C 0.6562(4) 0.9436(6) 0.8836(2)
H12_8 H 0.6417 0.9085 0.8983
C33_8 C 0.6852(3) 0.9741(7) 0.73168(19)
H21_8 H 0.6557 0.9720 0.7232
C34_8 C 0.6914(3) 0.9457(7) 0.7603(2)
H22_8 H 0.6653 0.9285 0.7712
C35_8 C 0.7691(3) 0.9727(6) 0.75776(17)
H23_8 H 0.7981 0.9743 0.7669
I5_8 I 0.70142(4) 0.70431(5) 0.80471(2)
N6_8 N 0.7007(3) 0.9431(5) 0.84031(15)
N12_8 N 0.7330(3) 0.9421(5) 0.77256(14)
Zn3_8 Zn 0.74089(4) 0.86667(7) 0.81148(2)
I6_8 I 0.82550(3) 0.87032(9) 0.82745(2)
I1_8 I 0.00363(3) 0.06623(8) 0.59688(2)
loop_
_geom_bond_atom_site_label_1
_geom_bond_atom_site_label_2
_geom_bond_site_symmetry_1
_geom_bond_site_symmetry_2
C1 H1 1_555 1_555
C2 C1 1_555 1_555
H2 C2 1_555 1_555
C3 C2 1_555 1_555
C4 C3 1_555 1_555
H3 C4 1_555 1_555
C5 C4 1_555 1_555
H4 C5 1_555 1_555
C6 C3 1_555 1_555
C7 C9 1_555 1_555
C8 C14 1_555 1_555
C9 C10 1_555 1_555
C10 H5 1_555 1_555
C11 C10 1_555 1_555
H6 C11 1_555 1_555
C13 C9 1_555 1_555
H8 C13 1_555 1_555
C14 C15 1_555 1_555
C15 H9 1_555 1_555
C16 C15 1_555 1_555
H10 C16 1_555 1_555
C17 H11 1_555 1_555
C18 C14 1_555 1_555
H12 C18 1_555 1_555
C19 H13 1_555 1_555
C20 C19 1_555 1_555
H14 C20 1_555 1_555
C21 C20 1_555 1_555
C22 C21 1_555 1_555
H15 C22 1_555 1_555
C23 C22 1_555 1_555
H16 C23 1_555 1_555
C24 C21 1_555 1_555
C25 C27 1_555 1_555
C26 C32 1_555 1_555
C27 C28 1_555 1_555
C28 H17 1_555 1_555
C29 C28 1_555 1_555
H18 C29 1_555 1_555
C30 H19 1_555 1_555
C31 C27 1_555 1_555
H20 C31 1_555 1_555
C32 C33 1_555 1_555
C33 H21 1_555 1_555
C34 C33 1_555 1_555
H22 C34 1_555 1_555
C35 H23 1_555 1_555
C36 C32 1_555 1_555
H24 C36 1_555 1_555
I1 Zn1 1_555 1_555
I2 Zn1 1_555 1_555
I5 Zn3 1_555 1_555
N1 C1 1_555 1_555
N2 C6 1_555 1_555
N3 C7 1_555 1_555
N4 C6 1_555 1_555
N6 C16 1_555 1_555
N7 C19 1_555 1_555
N8 C24 1_555 1_555
N9 C25 1_555 1_555
N10 C24 1_555 1_555
N11 C29 1_555 1_555
N12 C34 1_555 1_555
Zn1 N1 1_555 1_555
Zn3 N6 1_555 1_555
I6 Zn3 1_555 1_555
N13 Zn1 1_555 1_555
Zn4 N7 1_555 1_555
Zn5 N11 1_555 1_555
C5 N1 1_555 1_555
C7 N2 1_555 1_555
C8 N3 1_555 1_555
C8 N4 1_555 1_555
C12 C13 1_555 1_555
C17 C18 1_555 1_555
C17 N6 1_555 1_555
C23 N7 1_555 1_555
C25 N8 1_555 1_555
C26 N9 1_555 1_555
C26 N10 1_555 1_555
C30 C31 1_555 1_555
C30 N11 1_555 1_555
C35 C36 1_555 1_555
C35 N12 1_555 1_555
N12 Zn3 1_555 1_555
I3 Zn2 1_555 1_555
I4 Zn2 1_555 1_555
Zn2 N5 1_555 1_555
N14 Zn2 1_555 1_555
I3_2 Zn2_2 1_555 1_555
I4_2 Zn2_2 1_555 1_555
Zn2_2 N5_2 1_555 1_555
C1_2 H1_2 1_555 1_555
C2_2 C1_2 1_555 1_555
H2_2 C2_2 1_555 1_555
H4_2 C5_2 1_555 1_555
I2_2 Zn4 1_555 1_555
N1_2 C1_2 1_555 1_555
Zn4 N1_2 1_555 1_555
C5_2 N1_2 1_555 1_555
C4_2 C3_2 1_555 1_555
H3_2 C4_2 1_555 1_555
C6_2 C3_2 1_555 1_555
C7_2 C9_2 1_555 1_555
C8_2 C14_2 1_555 1_555
C9_2 C10_2 1_555 1_555
C10_2 H5_2 1_555 1_555
C11_2 C10_2 1_555 1_555
H6_2 C11_2 1_555 1_555
C13_2 C9_2 1_555 1_555
H8_2 C13_2 1_555 1_555
C14_2 C15_2 1_555 1_555
C15_2 H9_2 1_555 1_555
C16_2 C15_2 1_555 1_555
H10_2 C16_2 1_555 1_555
C17_2 H11_2 1_555 1_555
C18_2 C14_2 1_555 1_555
H12_2 C18_2 1_555 1_555
C19_2 H13_2 1_555 1_555
C20_2 C19_2 1_555 1_555
H14_2 C20_2 1_555 1_555
C21_2 C20_2 1_555 1_555
C22_2 C21_2 1_555 1_555
H15_2 C22_2 1_555 1_555
C23_2 C22_2 1_555 1_555
H16_2 C23_2 1_555 1_555
C24_2 C21_2 1_555 1_555
C25_2 C27_2 1_555 1_555
C26_2 C32_2 1_555 1_555
C27_2 C28_2 1_555 1_555
C28_2 H17_2 1_555 1_555
C29_2 C28_2 1_555 1_555
H18_2 C29_2 1_555 1_555
C30_2 H19_2 1_555 1_555
C31_2 C27_2 1_555 1_555
H20_2 C31_2 1_555 1_555
C32_2 C33_2 1_555 1_555
C33_2 H21_2 1_555 1_555
C34_2 C33_2 1_555 1_555
H22_2 C34_2 1_555 1_555
C35_2 H23_2 1_555 1_555
C36_2 C32_2 1_555 1_555
H24_2 C36_2 1_555 1_555
I5_2 Zn3_2 1_555 1_555
N2_2 C6_2 1_555 1_555
N3_2 C7_2 1_555 1_555
N4_2 C6_2 1_555 1_555
N6_2 C16_2 1_555 1_555
N13 C19_2 1_555 1_555
N8_2 C24_2 1_555 1_555
N9_2 C25_2 1_555 1_555
N10_2 C24_2 1_555 1_555
N11_2 C29_2 1_555 1_555
N12_2 C34_2 1_555 1_555
Zn3_2 N6_2 1_555 1_555
I6_2 Zn3_2 1_555 1_555
C7_2 N2_2 1_555 1_555
C8_2 N3_2 1_555 1_555
C8_2 N4_2 1_555 1_555
C12_2 C13_2 1_555 1_555
C17_2 C18_2 1_555 1_555
C17_2 N6_2 1_555 1_555
C23_2 N13 1_555 1_555
C25_2 N8_2 1_555 1_555
C26_2 N9_2 1_555 1_555
C26_2 N10_2 1_555 1_555
C30_2 C31_2 1_555 1_555
C30_2 N11_2 1_555 1_555
C35_2 C36_2 1_555 1_555
C35_2 N12_2 1_555 1_555
N12_2 Zn3_2 1_555 1_555
C6_3 C3_3 1_555 1_555
C7_3 C9_3 1_555 1_555
C8_3 C14_3 1_555 1_555
C9_3 C10_3 1_555 1_555
C10_3 H5_3 1_555 1_555
C11_3 C10_3 1_555 1_555
H6_3 C11_3 1_555 1_555
C12_3 H7_3 1_555 1_555
C13_3 C9_3 1_555 1_555
H8_3 C13_3 1_555 1_555
C14_3 C15_3 1_555 1_555
C15_3 H9_3 1_555 1_555
C16_3 C15_3 1_555 1_555
H10_3 C16_3 1_555 1_555
C19_3 H13_3 1_555 1_555
C20_3 C19_3 1_555 1_555
H14_3 C20_3 1_555 1_555
C21_3 C20_3 1_555 1_555
C22_3 C21_3 1_555 1_555
H15_3 C22_3 1_555 1_555
C23_3 C22_3 1_555 1_555
H16_3 C23_3 1_555 1_555
C24_3 C21_3 1_555 1_555
C25_3 C27_3 1_555 1_555
C26_3 C32_3 1_555 1_555
C27_3 C28_3 1_555 1_555
C28_3 H17_3 1_555 1_555
C29_3 C28_3 1_555 1_555
H18_3 C29_3 1_555 1_555
C30_3 H19_3 1_555 1_555
C31_3 C27_3 1_555 1_555
H20_3 C31_3 1_555 1_555
C36_3 C32_3 1_555 1_555
H24_3 C36_3 1_555 1_555
I3_3 Zn5 1_555 1_555
I4_3 Zn5 1_555 1_555
N2_3 C6_3 1_555 1_555
N3_3 C7_3 1_555 1_555
N4_3 C6_3 1_555 1_555
N5_3 C11_3 1_555 1_555
N7_2 C19_3 1_555 1_555
N8_3 C24_3 1_555 1_555
N9_3 C25_3 1_555 1_555
N10_3 C24_3 1_555 1_555
N14 C29_3 1_555 1_555
Zn5 N5_3 1_555 1_555
Zn4_2 N7_2 1_555 1_555
C7_3 N2_3 1_555 1_555
C8_3 N3_3 1_555 1_555
C8_3 N4_3 1_555 1_555
C12_3 C13_3 1_555 1_555
C12_3 N5_3 1_555 1_555
C23_3 N7_2 1_555 1_555
C25_3 N8_3 1_555 1_555
C26_3 N9_3 1_555 1_555
C26_3 N10_3 1_555 1_555
C30_3 C31_3 1_555 1_555
C30_3 N14 1_555 1_555
H3_3 C4_3 1_555 1_555
C5_3 C4_3 1_555 1_555
H4_3 C5_3 1_555 1_555
C17_3 H11_3 1_555 1_555
H12_3 C18_3 1_555 1_555
C33_3 H21_3 1_555 1_555
C34_3 C33_3 1_555 1_555
H22_3 C34_3 1_555 1_555
C35_3 H23_3 1_555 1_555
I2_3 Zn4_2 1_555 1_555
I5_3 Zn3_3 1_555 1_555
N12_3 C34_3 1_555 1_555
Zn4_2 N1_3 1_555 1_555
Zn3_3 N6_3 1_555 1_555
I6_3 Zn3_3 1_555 1_555
C5_3 N1_3 1_555 1_555
C17_3 C18_3 1_555 1_555
C17_3 N6_3 1_555 1_555
C35_3 N12_3 1_555 1_555
N12_3 Zn3_3 1_555 1_555
H4_4 C5_4 1_555 1_555
I1_2 Zn1_2 1_555 1_555
I2_4 Zn1_2 1_555 1_555
Zn1_2 N1_4 1_555 1_555
N13_2 Zn1_2 1_555 1_555
C5_4 N1_4 1_555 1_555
C1_3 H1_3 1_555 1_555
C2_3 C1_3 1_555 1_555
H2_3 C2_3 1_555 1_555
C3_4 C2_3 1_555 1_555
C6_4 C3_4 1_555 1_555
C7_4 C9_4 1_555 1_555
C8_4 C14_4 1_555 1_555
C9_4 C10_4 1_555 1_555
C10_4 H5_4 1_555 1_555
C11_4 C10_4 1_555 1_555
H6_4 C11_4 1_555 1_555
C12_4 H7_4 1_555 1_555
C13_4 C9_4 1_555 1_555
H8_4 C13_4 1_555 1_555
C14_4 C15_4 1_555 1_555
C15_4 H9_4 1_555 1_555
C16_4 C15_4 1_555 1_555
H10_4 C16_4 1_555 1_555
C19_4 H13_4 1_555 1_555
C20_4 C19_4 1_555 1_555
H14_4 C20_4 1_555 1_555
C21_4 C20_4 1_555 1_555
C22_4 C21_4 1_555 1_555
H15_4 C22_4 1_555 1_555
C23_4 C22_4 1_555 1_555
H16_4 C23_4 1_555 1_555
C24_4 C21_4 1_555 1_555
C25_4 C27_4 1_555 1_555
C26_4 C32_4 1_555 1_555
C27_4 C28_4 1_555 1_555
C28_4 H17_4 1_555 1_555
C29_4 C28_4 1_555 1_555
H18_4 C29_4 1_555 1_555
C30_4 H19_4 1_555 1_555
C31_4 C27_4 1_555 1_555
H20_4 C31_4 1_555 1_555
C36_4 C32_4 1_555 1_555
H24_4 C36_4 1_555 1_555
I3_4 Zn5_2 1_555 1_555
I4_4 Zn5_2 1_555 1_555
N2_4 C6_4 1_555 1_555
N3_4 C7_4 1_555 1_555
N4_4 C6_4 1_555 1_555
N5_4 C11_4 1_555 1_555
N13_2 C19_4 1_555 1_555
N8_4 C24_4 1_555 1_555
N9_4 C25_4 1_555 1_555
N10_4 C24_4 1_555 1_555
N14_2 C29_4 1_555 1_555
Zn5_2 N5_4 1_555 1_555
C7_4 N2_4 1_555 1_555
C8_4 N3_4 1_555 1_555
C8_4 N4_4 1_555 1_555
C12_4 C13_4 1_555 1_555
C12_4 N5_4 1_555 1_555
C23_4 N13_2 1_555 1_555
C25_4 N8_4 1_555 1_555
C26_4 N9_4 1_555 1_555
C26_4 N10_4 1_555 1_555
C30_4 C31_4 1_555 1_555
C30_4 N14_2 1_555 1_555
H3_4 C4_4 1_555 1_555
C17_4 H11_4 1_555 1_555
H12_4 C18_4 1_555 1_555
C33_4 H21_4 1_555 1_555
C34_4 C33_4 1_555 1_555
H22_4 C34_4 1_555 1_555
C35_4 H23_4 1_555 1_555
I5_4 Zn3_4 1_555 1_555
N12_4 C34_4 1_555 1_555
Zn3_4 N6_4 1_555 1_555
I6_4 Zn3_4 1_555 1_555
C17_4 C18_4 1_555 1_555
C17_4 N6_4 1_555 1_555
C35_4 N12_4 1_555 1_555
N12_4 Zn3_4 1_555 1_555
C1_4 H1_4 1_555 1_555
C2_4 C1_4 1_555 1_555
H2_4 C2_4 1_555 1_555
I3_5 Zn2_3 1_555 1_555
I4_5 Zn2_3 1_555 1_555
Zn2_3 N5_5 1_555 1_555
N14_3 Zn2_3 1_555 1_555
C1_5 H1_5 1_555 1_555
C2_5 C1_5 1_555 1_555
H2_5 C2_5 1_555 1_555
C3_5 C2_5 1_555 1_555
C4_5 C3_5 1_555 1_555
H3_5 C4_5 1_555 1_555
C5_5 C4_5 1_555 1_555
H4_5 C5_5 1_555 1_555
C6_5 C3_5 1_555 1_555
C7_5 C9_5 1_555 1_555
C8_5 C14_5 1_555 1_555
C9_5 C10_5 1_555 1_555
C10_5 H5_5 1_555 1_555
C11_5 C10_5 1_555 1_555
H6_5 C11_5 1_555 1_555
C13_5 C9_5 1_555 1_555
H8_5 C13_5 1_555 1_555
C14_5 C15_5 1_555 1_555
C15_5 H9_5 1_555 1_555
C16_5 C15_5 1_555 1_555
H10_5 C16_5 1_555 1_555
C17_5 H11_5 1_555 1_555
C18_5 C14_5 1_555 1_555
H12_5 C18_5 1_555 1_555
C19_5 H13_5 1_555 1_555
C20_5 C19_5 1_555 1_555
H14_5 C20_5 1_555 1_555
C21_5 C20_5 1_555 1_555
C22_5 C21_5 1_555 1_555
H15_5 C22_5 1_555 1_555
C23_5 C22_5 1_555 1_555
H16_5 C23_5 1_555 1_555
C24_5 C21_5 1_555 1_555
C25_5 C27_5 1_555 1_555
C26_5 C32_5 1_555 1_555
C27_5 C28_5 1_555 1_555
C28_5 H17_5 1_555 1_555
C29_5 C28_5 1_555 1_555
H18_5 C29_5 1_555 1_555
C30_5 H19_5 1_555 1_555
C31_5 C27_5 1_555 1_555
H20_5 C31_5 1_555 1_555
C32_5 C33_5 1_555 1_555
C33_5 H21_5 1_555 1_555
C34_5 C33_5 1_555 1_555
H22_5 C34_5 1_555 1_555
C35_5 H23_5 1_555 1_555
C36_5 C32_5 1_555 1_555
H24_5 C36_5 1_555 1_555
I1_5 Zn1_3 1_555 1_555
I2_5 Zn1_3 1_555 1_555
I5_5 Zn3_5 1_555 1_555
N1_5 C1_5 1_555 1_555
N2_5 C6_5 1_555 1_555
N3_5 C7_5 1_555 1_555
N4_5 C6_5 1_555 1_555
N6_5 C16_5 1_555 1_555
N7_3 C19_5 1_555 1_555
N8_5 C24_5 1_555 1_555
N9_5 C25_5 1_555 1_555
N10_5 C24_5 1_555 1_555
N11_3 C29_5 1_555 1_555
N12_5 C34_5 1_555 1_555
Zn1_3 N1_5 1_555 1_555
Zn3_5 N6_5 1_555 1_555
I6_5 Zn3_5 1_555 1_555
N13_3 Zn1_3 1_555 1_555
Zn4_3 N7_3 1_555 1_555
Zn5_3 N11_3 1_555 1_555
C5_5 N1_5 1_555 1_555
C7_5 N2_5 1_555 1_555
C8_5 N3_5 1_555 1_555
C8_5 N4_5 1_555 1_555
C12_5 C13_5 1_555 1_555
C17_5 C18_5 1_555 1_555
C17_5 N6_5 1_555 1_555
C23_5 N7_3 1_555 1_555
C25_5 N8_5 1_555 1_555
C26_5 N9_5 1_555 1_555
C26_5 N10_5 1_555 1_555
C30_5 C31_5 1_555 1_555
C30_5 N11_3 1_555 1_555
C35_5 C36_5 1_555 1_555
C35_5 N12_5 1_555 1_555
N12_5 Zn3_5 1_555 1_555
C4_6 C3_6 1_555 1_555
H3_6 C4_6 1_555 1_555
C6_6 C3_6 1_555 1_555
C7_6 C9_6 1_555 1_555
C8_6 C14_6 1_555 1_555
C9_6 C10_6 1_555 1_555
C10_6 H5_6 1_555 1_555
C11_6 C10_6 1_555 1_555
H6_6 C11_6 1_555 1_555
C13_6 C9_6 1_555 1_555
H8_6 C13_6 1_555 1_555
C14_6 C15_6 1_555 1_555
C15_6 H9_6 1_555 1_555
C16_6 C15_6 1_555 1_555
H10_6 C16_6 1_555 1_555
C17_6 H11_6 1_555 1_555
C18_6 C14_6 1_555 1_555
H12_6 C18_6 1_555 1_555
C19_6 H13_6 1_555 1_555
C20_6 C19_6 1_555 1_555
H14_6 C20_6 1_555 1_555
C21_6 C20_6 1_555 1_555
C22_6 C21_6 1_555 1_555
H15_6 C22_6 1_555 1_555
C23_6 C22_6 1_555 1_555
H16_6 C23_6 1_555 1_555
C24_6 C21_6 1_555 1_555
C25_6 C27_6 1_555 1_555
C26_6 C32_6 1_555 1_555
C27_6 C28_6 1_555 1_555
C28_6 H17_6 1_555 1_555
C29_6 C28_6 1_555 1_555
H18_6 C29_6 1_555 1_555
C30_6 H19_6 1_555 1_555
C31_6 C27_6 1_555 1_555
H20_6 C31_6 1_555 1_555
C32_6 C33_6 1_555 1_555
C33_6 H21_6 1_555 1_555
C34_6 C33_6 1_555 1_555
H22_6 C34_6 1_555 1_555
C35_6 H23_6 1_555 1_555
C36_6 C32_6 1_555 1_555
H24_6 C36_6 1_555 1_555
I5_6 Zn3_6 1_555 1_555
N2_6 C6_6 1_555 1_555
N3_6 C7_6 1_555 1_555
N4_6 C6_6 1_555 1_555
N6_6 C16_6 1_555 1_555
N13_3 C19_6 1_555 1_555
N8_6 C24_6 1_555 1_555
N9_6 C25_6 1_555 1_555
N10_6 C24_6 1_555 1_555
N11_4 C29_6 1_555 1_555
N12_6 C34_6 1_555 1_555
Zn3_6 N6_6 1_555 1_555
I6_6 Zn3_6 1_555 1_555
C7_6 N2_6 1_555 1_555
C8_6 N3_6 1_555 1_555
C8_6 N4_6 1_555 1_555
C12_6 C13_6 1_555 1_555
C17_6 C18_6 1_555 1_555
C17_6 N6_6 1_555 1_555
C23_6 N13_3 1_555 1_555
C25_6 N8_6 1_555 1_555
C26_6 N9_6 1_555 1_555
C26_6 N10_6 1_555 1_555
C30_6 C31_6 1_555 1_555
C30_6 N11_4 1_555 1_555
C35_6 C36_6 1_555 1_555
C35_6 N12_6 1_555 1_555
N12_6 Zn3_6 1_555 1_555
C1_6 H1_6 1_555 1_555
C2_6 C1_6 1_555 1_555
H2_6 C2_6 1_555 1_555
H4_6 C5_6 1_555 1_555
I2_6 Zn4_3 1_555 1_555
N1_6 C1_6 1_555 1_555
Zn4_3 N1_6 1_555 1_555
C5_6 N1_6 1_555 1_555
I3_6 Zn2_4 1_555 1_555
I4_6 Zn2_4 1_555 1_555
Zn2_4 N5_6 1_555 1_555
C6_7 C3_7 1_555 1_555
C7_7 C9_7 1_555 1_555
C8_7 C14_7 1_555 1_555
C9_7 C10_7 1_555 1_555
C10_7 H5_7 1_555 1_555
C11_7 C10_7 1_555 1_555
H6_7 C11_7 1_555 1_555
C12_7 H7_7 1_555 1_555
C13_7 C9_7 1_555 1_555
H8_7 C13_7 1_555 1_555
C14_7 C15_7 1_555 1_555
C15_7 H9_7 1_555 1_555
C16_7 C15_7 1_555 1_555
H10_7 C16_7 1_555 1_555
C19_7 H13_7 1_555 1_555
C20_7 C19_7 1_555 1_555
H14_7 C20_7 1_555 1_555
C21_7 C20_7 1_555 1_555
C22_7 C21_7 1_555 1_555
H15_7 C22_7 1_555 1_555
C23_7 C22_7 1_555 1_555
H16_7 C23_7 1_555 1_555
C24_7 C21_7 1_555 1_555
C25_7 C27_7 1_555 1_555
C26_7 C32_7 1_555 1_555
C27_7 C28_7 1_555 1_555
C28_7 H17_7 1_555 1_555
C29_7 C28_7 1_555 1_555
H18_7 C29_7 1_555 1_555
C30_7 H19_7 1_555 1_555
C31_7 C27_7 1_555 1_555
H20_7 C31_7 1_555 1_555
C36_7 C32_7 1_555 1_555
H24_7 C36_7 1_555 1_555
I3_7 Zn5_3 1_555 1_555
I4_7 Zn5_3 1_555 1_555
N2_7 C6_7 1_555 1_555
N3_7 C7_7 1_555 1_555
N4_7 C6_7 1_555 1_555
N5_7 C11_7 1_555 1_555
N7_4 C19_7 1_555 1_555
N8_7 C24_7 1_555 1_555
N9_7 C25_7 1_555 1_555
N10_7 C24_7 1_555 1_555
N14_3 C29_7 1_555 1_555
Zn5_3 N5_7 1_555 1_555
Zn4_4 N7_4 1_555 1_555
C7_7 N2_7 1_555 1_555
C8_7 N3_7 1_555 1_555
C8_7 N4_7 1_555 1_555
C12_7 C13_7 1_555 1_555
C12_7 N5_7 1_555 1_555
C23_7 N7_4 1_555 1_555
C25_7 N8_7 1_555 1_555
C26_7 N9_7 1_555 1_555
C26_7 N10_7 1_555 1_555
C30_7 C31_7 1_555 1_555
C30_7 N14_3 1_555 1_555
H3_7 C4_7 1_555 1_555
C5_7 C4_7 1_555 1_555
H4_7 C5_7 1_555 1_555
C17_7 H11_7 1_555 1_555
H12_7 C18_7 1_555 1_555
C33_7 H21_7 1_555 1_555
C34_7 C33_7 1_555 1_555
H22_7 C34_7 1_555 1_555
C35_7 H23_7 1_555 1_555
I2_7 Zn4_4 1_555 1_555
I5_7 Zn3_7 1_555 1_555
N12_7 C34_7 1_555 1_555
Zn4_4 N1_7 1_555 1_555
Zn3_7 N6_7 1_555 1_555
I6_7 Zn3_7 1_555 1_555
C5_7 N1_7 1_555 1_555
C17_7 C18_7 1_555 1_555
C17_7 N6_7 1_555 1_555
C35_7 N12_7 1_555 1_555
N12_7 Zn3_7 1_555 1_555
H4_8 C5_8 1_555 1_555
I1_6 Zn1_4 1_555 1_555
I2_8 Zn1_4 1_555 1_555
Zn1_4 N1_8 1_555 1_555
N13_4 Zn1_4 1_555 1_555
C5_8 N1_8 1_555 1_555
C1_7 H1_7 1_555 1_555
C2_7 C1_7 1_555 1_555
H2_7 C2_7 1_555 1_555
C3_8 C2_7 1_555 1_555
C6_8 C3_8 1_555 1_555
C7_8 C9_8 1_555 1_555
C8_8 C14_8 1_555 1_555
C9_8 C10_8 1_555 1_555
C10_8 H5_8 1_555 1_555
C11_8 C10_8 1_555 1_555
H6_8 C11_8 1_555 1_555
C12_8 H7_8 1_555 1_555
C13_8 C9_8 1_555 1_555
H8_8 C13_8 1_555 1_555
C14_8 C15_8 1_555 1_555
C15_8 H9_8 1_555 1_555
C16_8 C15_8 1_555 1_555
H10_8 C16_8 1_555 1_555
C19_8 H13_8 1_555 1_555
C20_8 C19_8 1_555 1_555
H14_8 C20_8 1_555 1_555
C21_8 C20_8 1_555 1_555
C22_8 C21_8 1_555 1_555
H15_8 C22_8 1_555 1_555
C23_8 C22_8 1_555 1_555
H16_8 C23_8 1_555 1_555
C24_8 C21_8 1_555 1_555
C25_8 C27_8 1_555 1_555
C26_8 C32_8 1_555 1_555
C27_8 C28_8 1_555 1_555
C28_8 H17_8 1_555 1_555
C29_8 C28_8 1_555 1_555
H18_8 C29_8 1_555 1_555
C30_8 H19_8 1_555 1_555
C31_8 C27_8 1_555 1_555
H20_8 C31_8 1_555 1_555
C36_8 C32_8 1_555 1_555
H24_8 C36_8 1_555 1_555
I3_8 Zn5_4 1_555 1_555
I4_8 Zn5_4 1_555 1_555
N2_8 C6_8 1_555 1_555
N3_8 C7_8 1_555 1_555
N4_8 C6_8 1_555 1_555
N5_8 C11_8 1_555 1_555
N13_4 C19_8 1_555 1_555
N8_8 C24_8 1_555 1_555
N9_8 C25_8 1_555 1_555
N10_8 C24_8 1_555 1_555
N14_4 C29_8 1_555 1_555
Zn5_4 N5_8 1_555 1_555
C7_8 N2_8 1_555 1_555
C8_8 N3_8 1_555 1_555
C8_8 N4_8 1_555 1_555
C12_8 C13_8 1_555 1_555
C12_8 N5_8 1_555 1_555
C23_8 N13_4 1_555 1_555
C25_8 N8_8 1_555 1_555
C26_8 N9_8 1_555 1_555
C26_8 N10_8 1_555 1_555
C30_8 C31_8 1_555 1_555
C30_8 N14_4 1_555 1_555
C1_8 H1_8 1_555 1_555
C2_8 C1_8 1_555 1_555
H2_8 C2_8 1_555 1_555
H3_8 C4_8 1_555 1_555
C17_8 H11_8 1_555 1_555
H12_8 C18_8 1_555 1_555
C33_8 H21_8 1_555 1_555
C34_8 C33_8 1_555 1_555
H22_8 C34_8 1_555 1_555
C35_8 H23_8 1_555 1_555
I5_8 Zn3_8 1_555 1_555
N12_8 C34_8 1_555 1_555
Zn3_8 N6_8 1_555 1_555
I6_8 Zn3_8 1_555 1_555
C17_8 C18_8 1_555 1_555
C17_8 N6_8 1_555 1_555
C35_8 N12_8 1_555 1_555
N12_8 Zn3_8 1_555 1_555

#END
