
###############################################################################
#
# This file contains modified crystal structure data generated from the
# MOF subset of the Cambridge Structural Database (CSD) v543 
# hosted by the Cambridge Crystallographic Data Centre (CCDC).
#
# This work is licensed under the Creative Commons
# Attribution-NonCommercial-ShareAlike 4.0 International License.
# To view a copy of this license, visit
# http://creativecommons.org/licenses/by-nc-sa/4.0/
# or send a letter to
# Creative Commons, PO Box 1866, Mountain View, CA 94042, USA.
#
# CIF created using the CSD Python API on 29 September 2022
# The structure has been converted into the P1 space group
# The structure has a 3D framework
# The original CSD entry KEVXIV is in the orthorhombic crystal system
# The framework has been calculated to contain at least 10.0% void space
# The void calculation uses a probe of radius 1.32A, grid spacing 0.4
#
###############################################################################

data_KEVXIV
_chemical_formula_moiety         '(C288 H192 I48 N96 Zn24)n'
_symmetry_cell_setting           triclinic
_symmetry_space_group_name_H-M   'P 1'
_symmetry_Int_Tables_number      1
_space_group_name_Hall           'P 1'
loop_
_symmetry_equiv_pos_site_id
_symmetry_equiv_pos_as_xyz
1 x,y,z
_cell_length_a                   28.7052(16)
_cell_length_b                   13.9754(6)
_cell_length_c                   46.056(2)
_cell_angle_alpha                90
_cell_angle_beta                 90
_cell_angle_gamma                90
_cell_volume                     18476.1
loop_
_atom_site_label
_atom_site_type_symbol
_atom_site_fract_x
_atom_site_fract_y
_atom_site_fract_z
C1 C 0.5612(3) 0.4809(6) 0.52897(16)
H1 H 0.5465 0.4514 0.5445
C2 C 0.5705(3) 0.4272(6) 0.50465(16)
H2 H 0.5621 0.3630 0.5040
C3 C 0.5927(2) 0.4694(5) 0.48096(13)
C4 C 0.6030(4) 0.5629(5) 0.48254(16)
H3 H 0.6179 0.5926 0.4670
C5 C 0.5911(4) 0.6181(6) 0.50807(17)
H4 H 0.5964 0.6837 0.5083
C6 C 0.6036(2) 0.4148(4) 0.45423(13)
C7 C 0.6019(2) 0.2751(4) 0.42927(13)
C8 C 0.6340(2) 0.4091(4) 0.40956(13)
C9 C 0.5865(2) 0.1746(5) 0.42578(14)
C10 C 0.5601(3) 0.1315(5) 0.44802(18)
H5 H 0.5532 0.1646 0.4650
C11 C 0.5448(3) 0.0397(5) 0.44399(17)
H6 H 0.5284 0.0103 0.4590
C12 C 0.5784(3) 0.0315(6) 0.39944(18)
C13 C 0.5955(3) 0.1229(6) 0.40198(17)
H8 H 0.6135 0.1489 0.3871
C14 C 0.6564(2) 0.4597(4) 0.38496(14)
C15 C 0.6788(3) 0.4085(5) 0.36238(16)
H9 H 0.6785 0.3420 0.3619
C16 C 0.7014(3) 0.4613(5) 0.34103(15)
H10 H 0.7173 0.4288 0.3265
C17 C 0.6778(3) 0.6022(5) 0.36149(17)
H11 H 0.6764 0.6687 0.3608
C18 C 0.6563(3) 0.5563(5) 0.38358(16)
H12 H 0.6413 0.5915 0.3979
C19 C 0.8344(2) 0.3799(5) 0.08117(15)
H13 H 0.8326 0.3618 0.0618
C20 C 0.7937(2) 0.3953(5) 0.09554(13)
H14 H 0.7652 0.3897 0.0861
C21 C 0.7959(2) 0.4198(4) 0.12484(12)
C22 C 0.8401(2) 0.4293(5) 0.13732(13)
H15 H 0.8431 0.4454 0.1568
C23 C 0.8787(2) 0.4148(5) 0.12078(13)
H16 H 0.9078 0.4233 0.1293
C24 C 0.7525(2) 0.4320(4) 0.14210(12)
C25 C 0.6745(2) 0.4349(4) 0.14572(12)
C26 C 0.7191(2) 0.4651(4) 0.18551(12)
C27 C 0.6288(2) 0.4231(4) 0.13238(13)
C28 C 0.6235(2) 0.4149(6) 0.10226(15)
H17 H 0.6493 0.4182 0.0901
C29 C 0.5796(2) 0.4020(6) 0.09072(16)
H18 H 0.5768 0.3999 0.0706
C30 C 0.5453(3) 0.4009(6) 0.13498(18)
H19 H 0.5187 0.3948 0.1463
C31 C 0.5871(3) 0.4182(7) 0.14890(17)
H20 H 0.5879 0.4265 0.1689
C32 C 0.7236(2) 0.4937(4) 0.21619(12)
C33 C 0.6850(2) 0.5255(6) 0.23197(14)
H21 H 0.6555 0.5260 0.2236
C34 C 0.6912(3) 0.5564(6) 0.26034(15)
H22 H 0.6655 0.5760 0.2711
C35 C 0.7696(2) 0.5278(4) 0.25787(13)
H23 H 0.7986 0.5269 0.2669
C36 C 0.7664(2) 0.4964(4) 0.22916(13)
H24 H 0.7929 0.4776 0.2190
I1 I 0.49621(2) 0.56771(7) 0.59681(2)
I2 I 0.57213(3) 0.82600(5) 0.55860(2)
I5 I 0.70105(3) 0.79556(4) 0.30469(2)
N1 N 0.5725(2) 0.5747(4) 0.53136(12)
N2 N 0.5914(2) 0.3222(4) 0.45388(12)
N3 N 0.62370(19) 0.3158(4) 0.40661(11)
N4 N 0.62437(19) 0.4595(4) 0.43284(11)
N6 N 0.7010(2) 0.5562(4) 0.34057(11)
N7 N 0.87669(19) 0.3888(4) 0.09292(11)
N8 N 0.71226(18) 0.4228(3) 0.12897(10)
N9 N 0.67585(18) 0.4565(3) 0.17431(10)
N10 N 0.75829(17) 0.4543(3) 0.17043(9)
N11 N 0.5411(2) 0.3924(4) 0.10640(13)
N12 N 0.73341(19) 0.5585(4) 0.27257(11)
Zn1 Zn 0.56294(3) 0.64776(7) 0.56968(2)
Zn3 Zn 0.74108(3) 0.63369(6) 0.31154(2)
I6 I 0.82587(3) 0.63086(7) 0.32730(2)
N13 N 0.62331(19) 0.6112(4) 0.59292(11)
Zn4 Zn 0.93706(3) 0.35224(7) 0.06968(2)
Zn5 Zn 0.47792(3) 0.35698(6) 0.08699(2)
H7 H 0.5855 0.9968 0.3828
I3 I 0.56830(3) 0.76812(6) 0.37440(2)
I4 I 0.50467(3) 0.78550(5) 0.46287(2)
N5 N 0.5521(2) 0.9902(4) 0.41960(13)
Zn2 Zn 0.52208(3) 0.85698(6) 0.41301(2)
N14 N 0.4589(2) 0.8924(4) 0.39360(13)
H7_2 H 0.9145 0.0032 0.8828
I3_2 I 0.93170(3) 0.23188(6) 0.87440(2)
I4_2 I 0.99533(3) 0.21450(5) 0.96287(2)
N5_2 N 0.9479(2) 0.0098(4) 0.91960(13)
Zn2_2 Zn 0.97792(3) 0.14302(6) 0.91301(2)
C1_2 C 0.9388(3) 0.5191(6) 0.02897(16)
H1_2 H 0.9535 0.5486 0.0445
C2_2 C 0.9295(3) 0.5728(6) 0.00465(16)
H2_2 H 0.9379 0.6370 0.0040
C5_2 C 0.9089(4) 0.3819(6) 0.00807(17)
H4_2 H 0.9036 0.3163 0.0083
I2_2 I 0.92787(3) 0.17400(5) 0.05860(2)
N1_2 N 0.9275(2) 0.4253(4) 0.03136(12)
C3_2 C 0.9073(2) 0.5306(5) 0.98096(13)
C4_2 C 0.8970(4) 0.4371(5) 0.98254(16)
H3_2 H 0.8821 0.4074 0.9670
C6_2 C 0.8964(2) 0.5852(4) 0.95423(13)
C7_2 C 0.8981(2) 0.7249(4) 0.92927(13)
C8_2 C 0.8660(2) 0.5909(4) 0.90956(13)
C9_2 C 0.9135(2) 0.8254(5) 0.92578(14)
C10_2 C 0.9399(3) 0.8685(5) 0.94802(18)
H5_2 H 0.9468 0.8354 0.9650
C11_2 C 0.9552(3) 0.9603(5) 0.94399(17)
H6_2 H 0.9716 0.9897 0.9590
C12_2 C 0.9216(3) 0.9685(6) 0.89944(18)
C13_2 C 0.9045(3) 0.8771(6) 0.90198(17)
H8_2 H 0.8865 0.8511 0.8871
C14_2 C 0.8436(2) 0.5403(4) 0.88496(14)
C15_2 C 0.8212(3) 0.5915(5) 0.86238(16)
H9_2 H 0.8215 0.6580 0.8619
C16_2 C 0.7986(3) 0.5387(5) 0.84103(15)
H10_2 H 0.7827 0.5712 0.8265
C17_2 C 0.8222(3) 0.3978(5) 0.86149(17)
H11_2 H 0.8236 0.3313 0.8608
C18_2 C 0.8437(3) 0.4437(5) 0.88358(16)
H12_2 H 0.8587 0.4085 0.8979
C19_2 C 0.6656(2) 0.6201(5) 0.58117(15)
H13_2 H 0.6674 0.6382 0.5618
C20_2 C 0.7063(2) 0.6047(5) 0.59554(13)
H14_2 H 0.7348 0.6103 0.5861
C21_2 C 0.7041(2) 0.5802(4) 0.62484(12)
C22_2 C 0.6599(2) 0.5707(5) 0.63732(13)
H15_2 H 0.6569 0.5546 0.6568
C23_2 C 0.6213(2) 0.5852(5) 0.62078(13)
H16_2 H 0.5922 0.5767 0.6293
C24_2 C 0.7475(2) 0.5680(4) 0.64210(12)
C25_2 C 0.8255(2) 0.5651(4) 0.64572(12)
C26_2 C 0.7809(2) 0.5349(4) 0.68551(12)
C27_2 C 0.8712(2) 0.5769(4) 0.63238(13)
C28_2 C 0.8765(2) 0.5851(6) 0.60226(15)
H17_2 H 0.8507 0.5818 0.5901
C29_2 C 0.9204(2) 0.5980(6) 0.59072(16)
H18_2 H 0.9232 0.6001 0.5706
C30_2 C 0.9547(3) 0.5991(6) 0.63498(18)
H19_2 H 0.9813 0.6052 0.6463
C31_2 C 0.9129(3) 0.5818(7) 0.64890(17)
H20_2 H 0.9121 0.5735 0.6689
C32_2 C 0.7764(2) 0.5063(4) 0.71619(12)
C33_2 C 0.8150(2) 0.4745(6) 0.73197(14)
H21_2 H 0.8445 0.4740 0.7236
C34_2 C 0.8088(3) 0.4436(6) 0.76034(15)
H22_2 H 0.8345 0.4240 0.7711
C35_2 C 0.7304(2) 0.4722(4) 0.75787(13)
H23_2 H 0.7014 0.4731 0.7669
C36_2 C 0.7336(2) 0.5036(4) 0.72916(13)
H24_2 H 0.7071 0.5224 0.7190
I5_2 I 0.79895(3) 0.20444(4) 0.80469(2)
N2_2 N 0.9086(2) 0.6778(4) 0.95388(12)
N3_2 N 0.87630(19) 0.6842(4) 0.90661(11)
N4_2 N 0.87563(19) 0.5405(4) 0.93284(11)
N6_2 N 0.7990(2) 0.4438(4) 0.84057(11)
N8_2 N 0.78774(18) 0.5772(3) 0.62897(10)
N9_2 N 0.82415(18) 0.5435(3) 0.67431(10)
N10_2 N 0.74171(17) 0.5457(3) 0.67043(9)
N11_2 N 0.9589(2) 0.6076(4) 0.60640(13)
N12_2 N 0.76659(19) 0.4415(4) 0.77257(11)
Zn3_2 Zn 0.75892(3) 0.36631(6) 0.81154(2)
I6_2 I 0.67413(3) 0.36914(7) 0.82730(2)
C3_3 C 0.4073(2) 0.9694(5) 0.01904(13)
C6_3 C 0.3964(2) 0.9148(4) 0.04577(13)
C7_3 C 0.3981(2) 0.7751(4) 0.07073(13)
C8_3 C 0.3660(2) 0.9091(4) 0.09044(13)
C9_3 C 0.4135(2) 0.6746(5) 0.07422(14)
C10_3 C 0.4399(3) 0.6315(5) 0.05198(18)
H5_3 H 0.4468 0.6646 0.0350
C11_3 C 0.4552(3) 0.5397(5) 0.05601(17)
H6_3 H 0.4716 0.5103 0.0410
C12_3 C 0.4216(3) 0.5315(6) 0.10056(18)
H7_3 H 0.4145 0.4968 0.1172
C13_3 C 0.4045(3) 0.6229(6) 0.09802(17)
H8_3 H 0.3865 0.6489 0.1129
C14_3 C 0.3436(2) 0.9597(4) 0.11504(14)
C15_3 C 0.3212(3) 0.9085(5) 0.13762(16)
H9_3 H 0.3215 0.8420 0.1381
C16_3 C 0.2986(3) 0.9613(5) 0.15897(15)
H10_3 H 0.2827 0.9288 0.1735
C19_3 C 0.1656(2) 0.8799(5) 0.41883(15)
H13_3 H 0.1674 0.8618 0.4382
C20_3 C 0.2063(2) 0.8953(5) 0.40446(13)
H14_3 H 0.2348 0.8897 0.4139
C21_3 C 0.2041(2) 0.9198(4) 0.37516(12)
C22_3 C 0.1599(2) 0.9293(5) 0.36268(13)
H15_3 H 0.1569 0.9454 0.3432
C23_3 C 0.1213(2) 0.9148(5) 0.37922(13)
H16_3 H 0.0922 0.9233 0.3707
C24_3 C 0.2475(2) 0.9320(4) 0.35790(12)
C25_3 C 0.3255(2) 0.9349(4) 0.35428(12)
C26_3 C 0.2809(2) 0.9651(4) 0.31449(12)
C27_3 C 0.3712(2) 0.9231(4) 0.36762(13)
C28_3 C 0.3765(2) 0.9149(6) 0.39774(15)
H17_3 H 0.3507 0.9182 0.4099
C29_3 C 0.4204(2) 0.9020(6) 0.40928(16)
H18_3 H 0.4232 0.8999 0.4294
C30_3 C 0.4547(3) 0.9009(6) 0.36502(18)
H19_3 H 0.4813 0.8948 0.3537
C31_3 C 0.4129(3) 0.9182(7) 0.35110(17)
H20_3 H 0.4121 0.9265 0.3311
C32_3 C 0.2764(2) 0.9937(4) 0.28381(12)
C36_3 C 0.2336(2) 0.9964(4) 0.27084(13)
H24_3 H 0.2071 0.9776 0.2810
I3_3 I 0.43170(3) 0.26812(6) 0.12560(2)
I4_3 I 0.49533(3) 0.28550(5) 0.03713(2)
N2_3 N 0.4086(2) 0.8222(4) 0.04612(12)
N3_3 N 0.37630(19) 0.8158(4) 0.09339(11)
N4_3 N 0.37563(19) 0.9595(4) 0.06716(11)
N5_3 N 0.4479(2) 0.4902(4) 0.08040(13)
N7_2 N 0.12331(19) 0.8888(4) 0.40708(11)
N8_3 N 0.28774(18) 0.9228(3) 0.37103(10)
N9_3 N 0.32415(18) 0.9565(3) 0.32569(10)
N10_3 N 0.24171(17) 0.9543(3) 0.32957(9)
Zn4_2 Zn 0.06294(3) 0.85224(7) 0.43032(2)
C4_3 C 0.1030(4) 0.9371(5) 0.51746(16)
H3_3 H 0.1179 0.9074 0.5330
C5_3 C 0.0911(4) 0.8819(6) 0.49193(17)
H4_3 H 0.0964 0.8163 0.4917
C17_3 C 0.1778(3) 0.8978(5) 0.63851(17)
H11_3 H 0.1764 0.8313 0.6392
C18_3 C 0.1563(3) 0.9437(5) 0.61642(16)
H12_3 H 0.1413 0.9085 0.6021
C33_3 C 0.1850(2) 0.9745(6) 0.76803(14)
H21_3 H 0.1555 0.9740 0.7764
C34_3 C 0.1912(3) 0.9436(6) 0.73966(15)
H22_3 H 0.1655 0.9240 0.7289
C35_3 C 0.2696(2) 0.9722(4) 0.74213(13)
H23_3 H 0.2986 0.9731 0.7331
I2_3 I 0.07213(3) 0.67400(5) 0.44140(2)
I5_3 I 0.20105(3) 0.70444(4) 0.69531(2)
N1_3 N 0.0725(2) 0.9253(4) 0.46864(12)
N6_3 N 0.2010(2) 0.9438(4) 0.65943(11)
N12_3 N 0.23341(19) 0.9415(4) 0.72743(11)
Zn3_3 Zn 0.24108(3) 0.86631(6) 0.68846(2)
I6_3 I 0.32587(3) 0.86914(7) 0.67270(2)
N14_2 N 0.0411(2) 0.1076(4) 0.89360(13)
Zn5_2 Zn 0.02208(3) 0.64302(6) 0.58699(2)
C5_4 C 0.4089(4) 0.1181(6) 0.99193(17)
H4_4 H 0.4036 0.1837 0.9917
I1_2 I 0.50379(2) 0.06771(7) 0.90319(2)
I2_4 I 0.42787(3) 0.32600(5) 0.94140(2)
N1_4 N 0.4275(2) 0.0747(4) 0.96864(12)
Zn1_2 Zn 0.43706(3) 0.14776(7) 0.93032(2)
N13_2 N 0.37669(19) 0.1112(4) 0.90708(11)
C1_3 C 0.0612(3) 0.0191(6) 0.47103(16)
H1_3 H 0.0465 0.0486 0.4555
C2_3 C 0.0705(3) 0.0728(6) 0.49535(16)
H2_3 H 0.0621 0.1370 0.4960
C3_4 C 0.0927(2) 0.0306(5) 0.51904(13)
C6_4 C 0.1036(2) 0.0852(4) 0.54577(13)
C7_4 C 0.1019(2) 0.2249(4) 0.57073(13)
C8_4 C 0.1340(2) 0.0909(4) 0.59044(13)
C9_4 C 0.0865(2) 0.3254(5) 0.57422(14)
C10_4 C 0.0601(3) 0.3685(5) 0.55198(18)
H5_4 H 0.0532 0.3354 0.5350
C11_4 C 0.0448(3) 0.4603(5) 0.55601(17)
H6_4 H 0.0284 0.4897 0.5410
C12_4 C 0.0784(3) 0.4685(6) 0.60056(18)
H7_4 H 0.0855 0.5032 0.6172
C13_4 C 0.0955(3) 0.3771(6) 0.59802(17)
H8_4 H 0.1135 0.3511 0.6129
C14_4 C 0.1564(2) 0.0403(4) 0.61504(14)
C15_4 C 0.1788(3) 0.0915(5) 0.63762(16)
H9_4 H 0.1785 0.1580 0.6381
C16_4 C 0.2014(3) 0.0387(5) 0.65897(15)
H10_4 H 0.2173 0.0712 0.6735
C19_4 C 0.3344(2) 0.1201(5) 0.91883(15)
H13_4 H 0.3326 0.1382 0.9382
C20_4 C 0.2937(2) 0.1047(5) 0.90446(13)
H14_4 H 0.2652 0.1103 0.9139
C21_4 C 0.2959(2) 0.0802(4) 0.87516(12)
C22_4 C 0.3401(2) 0.0707(5) 0.86268(13)
H15_4 H 0.3431 0.0546 0.8432
C23_4 C 0.3787(2) 0.0852(5) 0.87922(13)
H16_4 H 0.4078 0.0767 0.8707
C24_4 C 0.2525(2) 0.0680(4) 0.85790(12)
C25_4 C 0.1745(2) 0.0651(4) 0.85428(12)
C26_4 C 0.2191(2) 0.0349(4) 0.81449(12)
C27_4 C 0.1288(2) 0.0769(4) 0.86762(13)
C28_4 C 0.1235(2) 0.0851(6) 0.89774(15)
H17_4 H 0.1493 0.0818 0.9099
C29_4 C 0.0796(2) 0.0980(6) 0.90928(16)
H18_4 H 0.0768 0.1001 0.9294
C30_4 C 0.0453(3) 0.0991(6) 0.86502(18)
H19_4 H 0.0187 0.1052 0.8537
C31_4 C 0.0871(3) 0.0818(7) 0.85110(17)
H20_4 H 0.0879 0.0735 0.8311
C32_4 C 0.2236(2) 0.0063(4) 0.78381(12)
C36_4 C 0.2664(2) 0.0036(4) 0.77084(13)
H24_4 H 0.2929 0.0224 0.7810
I3_4 I 0.06830(3) 0.73188(6) 0.62560(2)
I4_4 I 0.00467(3) 0.71450(5) 0.53713(2)
N2_4 N 0.0914(2) 0.1778(4) 0.54612(12)
N3_4 N 0.12370(19) 0.1842(4) 0.59339(11)
N4_4 N 0.12437(19) 0.0405(4) 0.56716(11)
N5_4 N 0.0521(2) 0.5098(4) 0.58040(13)
N8_4 N 0.21226(18) 0.0772(3) 0.87103(10)
N9_4 N 0.17585(18) 0.0435(3) 0.82569(10)
N10_4 N 0.25829(17) 0.0457(3) 0.82957(9)
I1_3 I 0.00379(2) 0.43229(7) 0.09681(2)
C4_4 C 0.3970(4) 0.0629(5) 0.01746(16)
H3_4 H 0.3821 0.0926 0.0330
C17_4 C 0.3222(3) 0.1022(5) 0.13851(17)
H11_4 H 0.3236 0.1687 0.1392
C18_4 C 0.3437(3) 0.0563(5) 0.11642(16)
H12_4 H 0.3587 0.0915 0.1021
C33_4 C 0.3150(2) 0.0255(6) 0.26803(14)
H21_4 H 0.3445 0.0260 0.2764
C34_4 C 0.3088(3) 0.0564(6) 0.23966(15)
H22_4 H 0.3345 0.0760 0.2289
C35_4 C 0.2304(2) 0.0278(4) 0.24213(13)
H23_4 H 0.2014 0.0269 0.2331
I5_4 I 0.29895(3) 0.29556(4) 0.19531(2)
N6_4 N 0.2990(2) 0.0562(4) 0.15943(11)
N12_4 N 0.26659(19) 0.0585(4) 0.22743(11)
Zn3_4 Zn 0.25892(3) 0.13369(6) 0.18846(2)
I6_4 I 0.17413(3) 0.13086(7) 0.17270(2)
C1_4 C 0.4388(3) 0.9809(6) 0.97103(16)
H1_4 H 0.4535 0.9514 0.9555
C2_4 C 0.4295(3) 0.9272(6) 0.99535(16)
H2_4 H 0.4379 0.8630 0.9960
I1_4 I 0.99621(2) 0.93229(7) 0.40319(2)
H7_5 H 0.4145 0.0032 0.6172
I3_5 I 0.43170(3) 0.23188(6) 0.62560(2)
I4_5 I 0.49533(3) 0.21450(5) 0.53713(2)
N5_5 N 0.4479(2) 0.0098(4) 0.58040(13)
Zn2_3 Zn 0.47792(3) 0.14302(6) 0.58699(2)
N14_3 N 0.5411(2) 0.1076(4) 0.60640(13)
C1_5 C 0.4388(3) 0.5191(6) 0.47103(16)
H1_5 H 0.4535 0.5486 0.4555
C2_5 C 0.4295(3) 0.5728(6) 0.49535(16)
H2_5 H 0.4379 0.6370 0.4960
C3_5 C 0.4073(2) 0.5306(5) 0.51904(13)
C4_5 C 0.3970(4) 0.4371(5) 0.51746(16)
H3_5 H 0.3821 0.4074 0.5330
C5_5 C 0.4089(4) 0.3819(6) 0.49193(17)
H4_5 H 0.4036 0.3163 0.4917
C6_5 C 0.3964(2) 0.5852(4) 0.54577(13)
C7_5 C 0.3981(2) 0.7249(4) 0.57073(13)
C8_5 C 0.3660(2) 0.5909(4) 0.59044(13)
C9_5 C 0.4135(2) 0.8254(5) 0.57422(14)
C10_5 C 0.4399(3) 0.8685(5) 0.55198(18)
H5_5 H 0.4468 0.8354 0.5350
C11_5 C 0.4552(3) 0.9603(5) 0.55601(17)
H6_5 H 0.4716 0.9897 0.5410
C12_5 C 0.4216(3) 0.9685(6) 0.60056(18)
C13_5 C 0.4045(3) 0.8771(6) 0.59802(17)
H8_5 H 0.3865 0.8511 0.6129
C14_5 C 0.3436(2) 0.5403(4) 0.61504(14)
C15_5 C 0.3212(3) 0.5915(5) 0.63762(16)
H9_5 H 0.3215 0.6580 0.6381
C16_5 C 0.2986(3) 0.5387(5) 0.65897(15)
H10_5 H 0.2827 0.5712 0.6735
C17_5 C 0.3222(3) 0.3978(5) 0.63851(17)
H11_5 H 0.3236 0.3313 0.6392
C18_5 C 0.3437(3) 0.4437(5) 0.61642(16)
H12_5 H 0.3587 0.4085 0.6021
C19_5 C 0.1656(2) 0.6201(5) 0.91883(15)
H13_5 H 0.1674 0.6382 0.9382
C20_5 C 0.2063(2) 0.6047(5) 0.90446(13)
H14_5 H 0.2348 0.6103 0.9139
C21_5 C 0.2041(2) 0.5802(4) 0.87516(12)
C22_5 C 0.1599(2) 0.5707(5) 0.86268(13)
H15_5 H 0.1569 0.5546 0.8432
C23_5 C 0.1213(2) 0.5852(5) 0.87922(13)
H16_5 H 0.0922 0.5767 0.8707
C24_5 C 0.2475(2) 0.5680(4) 0.85790(12)
C25_5 C 0.3255(2) 0.5651(4) 0.85428(12)
C26_5 C 0.2809(2) 0.5349(4) 0.81449(12)
C27_5 C 0.3712(2) 0.5769(4) 0.86762(13)
C28_5 C 0.3765(2) 0.5851(6) 0.89774(15)
H17_5 H 0.3507 0.5818 0.9099
C29_5 C 0.4204(2) 0.5980(6) 0.90928(16)
H18_5 H 0.4232 0.6001 0.9294
C30_5 C 0.4547(3) 0.5991(6) 0.86502(18)
H19_5 H 0.4813 0.6052 0.8537
C31_5 C 0.4129(3) 0.5818(7) 0.85110(17)
H20_5 H 0.4121 0.5735 0.8311
C32_5 C 0.2764(2) 0.5063(4) 0.78381(12)
C33_5 C 0.3150(2) 0.4745(6) 0.76803(14)
H21_5 H 0.3445 0.4740 0.7764
C34_5 C 0.3088(3) 0.4436(6) 0.73966(15)
H22_5 H 0.3345 0.4240 0.7289
C35_5 C 0.2304(2) 0.4722(4) 0.74213(13)
H23_5 H 0.2014 0.4731 0.7331
C36_5 C 0.2336(2) 0.5036(4) 0.77084(13)
H24_5 H 0.2071 0.5224 0.7810
I1_5 I 0.50379(2) 0.43229(7) 0.40319(2)
I2_5 I 0.42787(3) 0.17400(5) 0.44140(2)
I5_5 I 0.29895(3) 0.20444(4) 0.69531(2)
N1_5 N 0.4275(2) 0.4253(4) 0.46864(12)
N2_5 N 0.4086(2) 0.6778(4) 0.54612(12)
N3_5 N 0.37630(19) 0.6842(4) 0.59339(11)
N4_5 N 0.37563(19) 0.5405(4) 0.56716(11)
N6_5 N 0.2990(2) 0.4438(4) 0.65943(11)
N7_3 N 0.12331(19) 0.6112(4) 0.90708(11)
N8_5 N 0.28774(18) 0.5772(3) 0.87103(10)
N9_5 N 0.32415(18) 0.5435(3) 0.82569(10)
N10_5 N 0.24171(17) 0.5457(3) 0.82957(9)
N11_3 N 0.4589(2) 0.6076(4) 0.89360(13)
N12_5 N 0.26659(19) 0.4415(4) 0.72743(11)
Zn1_3 Zn 0.43706(3) 0.35224(7) 0.43032(2)
Zn3_5 Zn 0.25892(3) 0.36631(6) 0.68846(2)
I6_5 I 0.17413(3) 0.36914(7) 0.67270(2)
N13_3 N 0.37669(19) 0.3888(4) 0.40708(11)
Zn4_3 Zn 0.06294(3) 0.64776(7) 0.93032(2)
Zn5_3 Zn 0.52208(3) 0.64302(6) 0.91301(2)
C3_6 C 0.0927(2) 0.4694(5) 0.01904(13)
C4_6 C 0.1030(4) 0.5629(5) 0.01746(16)
H3_6 H 0.1179 0.5926 0.0330
C6_6 C 0.1036(2) 0.4148(4) 0.04577(13)
C7_6 C 0.1019(2) 0.2751(4) 0.07073(13)
C8_6 C 0.1340(2) 0.4091(4) 0.09044(13)
C9_6 C 0.0865(2) 0.1746(5) 0.07422(14)
C10_6 C 0.0601(3) 0.1315(5) 0.05198(18)
H5_6 H 0.0532 0.1646 0.0350
C11_6 C 0.0448(3) 0.0397(5) 0.05601(17)
H6_6 H 0.0284 0.0103 0.0410
C12_6 C 0.0784(3) 0.0315(6) 0.10056(18)
C13_6 C 0.0955(3) 0.1229(6) 0.09802(17)
H8_6 H 0.1135 0.1489 0.1129
C14_6 C 0.1564(2) 0.4597(4) 0.11504(14)
C15_6 C 0.1788(3) 0.4085(5) 0.13762(16)
H9_6 H 0.1785 0.3420 0.1381
C16_6 C 0.2014(3) 0.4613(5) 0.15897(15)
H10_6 H 0.2173 0.4288 0.1735
C17_6 C 0.1778(3) 0.6022(5) 0.13851(17)
H11_6 H 0.1764 0.6687 0.1392
C18_6 C 0.1563(3) 0.5563(5) 0.11642(16)
H12_6 H 0.1413 0.5915 0.1021
C19_6 C 0.3344(2) 0.3799(5) 0.41883(15)
H13_6 H 0.3326 0.3618 0.4382
C20_6 C 0.2937(2) 0.3953(5) 0.40446(13)
H14_6 H 0.2652 0.3897 0.4139
C21_6 C 0.2959(2) 0.4198(4) 0.37516(12)
C22_6 C 0.3401(2) 0.4293(5) 0.36268(13)
H15_6 H 0.3431 0.4454 0.3432
C23_6 C 0.3787(2) 0.4148(5) 0.37922(13)
H16_6 H 0.4078 0.4233 0.3707
C24_6 C 0.2525(2) 0.4320(4) 0.35790(12)
C25_6 C 0.1745(2) 0.4349(4) 0.35428(12)
C26_6 C 0.2191(2) 0.4651(4) 0.31449(12)
C27_6 C 0.1288(2) 0.4231(4) 0.36762(13)
C28_6 C 0.1235(2) 0.4149(6) 0.39774(15)
H17_6 H 0.1493 0.4182 0.4099
C29_6 C 0.0796(2) 0.4020(6) 0.40928(16)
H18_6 H 0.0768 0.3999 0.4294
C30_6 C 0.0453(3) 0.4009(6) 0.36502(18)
H19_6 H 0.0187 0.3948 0.3537
C31_6 C 0.0871(3) 0.4182(7) 0.35110(17)
H20_6 H 0.0879 0.4265 0.3311
C32_6 C 0.2236(2) 0.4937(4) 0.28381(12)
C33_6 C 0.1850(2) 0.5255(6) 0.26803(14)
H21_6 H 0.1555 0.5260 0.2764
C34_6 C 0.1912(3) 0.5564(6) 0.23966(15)
H22_6 H 0.1655 0.5760 0.2289
C35_6 C 0.2696(2) 0.5278(4) 0.24213(13)
H23_6 H 0.2986 0.5269 0.2331
C36_6 C 0.2664(2) 0.4964(4) 0.27084(13)
H24_6 H 0.2929 0.4776 0.2810
I5_6 I 0.20105(3) 0.79556(4) 0.19531(2)
N2_6 N 0.0914(2) 0.3222(4) 0.04612(12)
N3_6 N 0.12370(19) 0.3158(4) 0.09339(11)
N4_6 N 0.12437(19) 0.4595(4) 0.06716(11)
N6_6 N 0.2010(2) 0.5562(4) 0.15943(11)
N8_6 N 0.21226(18) 0.4228(3) 0.37103(10)
N9_6 N 0.17585(18) 0.4565(3) 0.32569(10)
N10_6 N 0.25829(17) 0.4543(3) 0.32957(9)
N11_4 N 0.0411(2) 0.3924(4) 0.39360(13)
N12_6 N 0.23341(19) 0.5585(4) 0.22743(11)
Zn3_6 Zn 0.24108(3) 0.63369(6) 0.18846(2)
I6_6 I 0.32587(3) 0.63086(7) 0.17270(2)
C1_6 C 0.0612(3) 0.4809(6) 0.97103(16)
H1_6 H 0.0465 0.4514 0.9555
C2_6 C 0.0705(3) 0.4272(6) 0.99535(16)
H2_6 H 0.0621 0.3630 0.9960
C5_6 C 0.0911(4) 0.6181(6) 0.99193(17)
H4_6 H 0.0964 0.6837 0.9917
I2_6 I 0.07213(3) 0.82600(5) 0.94140(2)
N1_6 N 0.0725(2) 0.5747(4) 0.96864(12)
H7_6 H 0.0855 0.9968 0.1172
I3_6 I 0.06830(3) 0.76812(6) 0.12560(2)
I4_6 I 0.00467(3) 0.78550(5) 0.03713(2)
N5_6 N 0.0521(2) 0.9902(4) 0.08040(13)
Zn2_4 Zn 0.02208(3) 0.85698(6) 0.08699(2)
C3_7 C 0.5927(2) 0.0306(5) 0.98096(13)
C6_7 C 0.6036(2) 0.0852(4) 0.95423(13)
C7_7 C 0.6019(2) 0.2249(4) 0.92927(13)
C8_7 C 0.6340(2) 0.0909(4) 0.90956(13)
C9_7 C 0.5865(2) 0.3254(5) 0.92578(14)
C10_7 C 0.5601(3) 0.3685(5) 0.94802(18)
H5_7 H 0.5532 0.3354 0.9650
C11_7 C 0.5448(3) 0.4603(5) 0.94399(17)
H6_7 H 0.5284 0.4897 0.9590
C12_7 C 0.5784(3) 0.4685(6) 0.89944(18)
H7_7 H 0.5855 0.5032 0.8828
C13_7 C 0.5955(3) 0.3771(6) 0.90198(17)
H8_7 H 0.6135 0.3511 0.8871
C14_7 C 0.6564(2) 0.0403(4) 0.88496(14)
C15_7 C 0.6788(3) 0.0915(5) 0.86238(16)
H9_7 H 0.6785 0.1580 0.8619
C16_7 C 0.7014(3) 0.0387(5) 0.84103(15)
H10_7 H 0.7173 0.0712 0.8265
C19_7 C 0.8344(2) 0.1201(5) 0.58117(15)
H13_7 H 0.8326 0.1382 0.5618
C20_7 C 0.7937(2) 0.1047(5) 0.59554(13)
H14_7 H 0.7652 0.1103 0.5861
C21_7 C 0.7959(2) 0.0802(4) 0.62484(12)
C22_7 C 0.8401(2) 0.0707(5) 0.63732(13)
H15_7 H 0.8431 0.0546 0.6568
C23_7 C 0.8787(2) 0.0852(5) 0.62078(13)
H16_7 H 0.9078 0.0767 0.6293
C24_7 C 0.7525(2) 0.0680(4) 0.64210(12)
C25_7 C 0.6745(2) 0.0651(4) 0.64572(12)
C26_7 C 0.7191(2) 0.0349(4) 0.68551(12)
C27_7 C 0.6288(2) 0.0769(4) 0.63238(13)
C28_7 C 0.6235(2) 0.0851(6) 0.60226(15)
H17_7 H 0.6493 0.0818 0.5901
C29_7 C 0.5796(2) 0.0980(6) 0.59072(16)
H18_7 H 0.5768 0.1001 0.5706
C30_7 C 0.5453(3) 0.0991(6) 0.63498(18)
H19_7 H 0.5187 0.1052 0.6463
C31_7 C 0.5871(3) 0.0818(7) 0.64890(17)
H20_7 H 0.5879 0.0735 0.6689
C32_7 C 0.7236(2) 0.0063(4) 0.71619(12)
C36_7 C 0.7664(2) 0.0036(4) 0.72916(13)
H24_7 H 0.7929 0.0224 0.7190
I3_7 I 0.56830(3) 0.73188(6) 0.87440(2)
I4_7 I 0.50467(3) 0.71450(5) 0.96287(2)
N2_7 N 0.5914(2) 0.1778(4) 0.95388(12)
N3_7 N 0.62370(19) 0.1842(4) 0.90661(11)
N4_7 N 0.62437(19) 0.0405(4) 0.93284(11)
N5_7 N 0.5521(2) 0.5098(4) 0.91960(13)
N7_4 N 0.87669(19) 0.1112(4) 0.59292(11)
N8_7 N 0.71226(18) 0.0772(3) 0.62897(10)
N9_7 N 0.67585(18) 0.0435(3) 0.67431(10)
N10_7 N 0.75829(17) 0.0457(3) 0.67043(9)
Zn4_4 Zn 0.93706(3) 0.14776(7) 0.56968(2)
C4_7 C 0.8970(4) 0.0629(5) 0.48254(16)
H3_7 H 0.8821 0.0926 0.4670
C5_7 C 0.9089(4) 0.1181(6) 0.50807(17)
H4_7 H 0.9036 0.1837 0.5083
C17_7 C 0.8222(3) 0.1022(5) 0.36149(17)
H11_7 H 0.8236 0.1687 0.3608
C18_7 C 0.8437(3) 0.0563(5) 0.38358(16)
H12_7 H 0.8587 0.0915 0.3979
C33_7 C 0.8150(2) 0.0255(6) 0.23197(14)
H21_7 H 0.8445 0.0260 0.2236
C34_7 C 0.8088(3) 0.0564(6) 0.26034(15)
H22_7 H 0.8345 0.0760 0.2711
C35_7 C 0.7304(2) 0.0278(4) 0.25787(13)
H23_7 H 0.7014 0.0269 0.2669
I2_7 I 0.92787(3) 0.32600(5) 0.55860(2)
I5_7 I 0.79895(3) 0.29556(4) 0.30469(2)
N1_7 N 0.9275(2) 0.0747(4) 0.53136(12)
N6_7 N 0.7990(2) 0.0562(4) 0.34057(11)
N12_7 N 0.76659(19) 0.0585(4) 0.27257(11)
Zn3_7 Zn 0.75892(3) 0.13369(6) 0.31154(2)
I6_7 I 0.67413(3) 0.13086(7) 0.32730(2)
Zn5_4 Zn 0.97792(3) 0.35698(6) 0.41301(2)
N14_4 N 0.9589(2) 0.8924(4) 0.10640(13)
C5_8 C 0.5911(4) 0.8819(6) 0.00807(17)
H4_8 H 0.5964 0.8163 0.0083
I1_6 I 0.49621(2) 0.93229(7) 0.09681(2)
I2_8 I 0.57213(3) 0.67400(5) 0.05860(2)
N1_8 N 0.5725(2) 0.9253(4) 0.03136(12)
Zn1_4 Zn 0.56294(3) 0.85224(7) 0.06968(2)
N13_4 N 0.62331(19) 0.8888(4) 0.09292(11)
C1_7 C 0.9388(3) 0.9809(6) 0.52897(16)
H1_7 H 0.9535 0.9514 0.5445
C2_7 C 0.9295(3) 0.9272(6) 0.50465(16)
H2_7 H 0.9379 0.8630 0.5040
C3_8 C 0.9073(2) 0.9694(5) 0.48096(13)
C6_8 C 0.8964(2) 0.9148(4) 0.45423(13)
C7_8 C 0.8981(2) 0.7751(4) 0.42927(13)
C8_8 C 0.8660(2) 0.9091(4) 0.40956(13)
C9_8 C 0.9135(2) 0.6746(5) 0.42578(14)
C10_8 C 0.9399(3) 0.6315(5) 0.44802(18)
H5_8 H 0.9468 0.6646 0.4650
C11_8 C 0.9552(3) 0.5397(5) 0.44399(17)
H6_8 H 0.9716 0.5103 0.4590
C12_8 C 0.9216(3) 0.5315(6) 0.39944(18)
H7_8 H 0.9145 0.4968 0.3828
C13_8 C 0.9045(3) 0.6229(6) 0.40198(17)
H8_8 H 0.8865 0.6489 0.3871
C14_8 C 0.8436(2) 0.9597(4) 0.38496(14)
C15_8 C 0.8212(3) 0.9085(5) 0.36238(16)
H9_8 H 0.8215 0.8420 0.3619
C16_8 C 0.7986(3) 0.9613(5) 0.34103(15)
H10_8 H 0.7827 0.9288 0.3265
C19_8 C 0.6656(2) 0.8799(5) 0.08117(15)
H13_8 H 0.6674 0.8618 0.0618
C20_8 C 0.7063(2) 0.8953(5) 0.09554(13)
H14_8 H 0.7348 0.8897 0.0861
C21_8 C 0.7041(2) 0.9198(4) 0.12484(12)
C22_8 C 0.6599(2) 0.9293(5) 0.13732(13)
H15_8 H 0.6569 0.9454 0.1568
C23_8 C 0.6213(2) 0.9148(5) 0.12078(13)
H16_8 H 0.5922 0.9233 0.1293
C24_8 C 0.7475(2) 0.9320(4) 0.14210(12)
C25_8 C 0.8255(2) 0.9349(4) 0.14572(12)
C26_8 C 0.7809(2) 0.9651(4) 0.18551(12)
C27_8 C 0.8712(2) 0.9231(4) 0.13238(13)
C28_8 C 0.8765(2) 0.9149(6) 0.10226(15)
H17_8 H 0.8507 0.9182 0.0901
C29_8 C 0.9204(2) 0.9020(6) 0.09072(16)
H18_8 H 0.9232 0.8999 0.0706
C30_8 C 0.9547(3) 0.9009(6) 0.13498(18)
H19_8 H 0.9813 0.8948 0.1463
C31_8 C 0.9129(3) 0.9182(7) 0.14890(17)
H20_8 H 0.9121 0.9265 0.1689
C32_8 C 0.7764(2) 0.9937(4) 0.21619(12)
C36_8 C 0.7336(2) 0.9964(4) 0.22916(13)
H24_8 H 0.7071 0.9776 0.2190
I3_8 I 0.93170(3) 0.26812(6) 0.37440(2)
I4_8 I 0.99533(3) 0.28550(5) 0.46287(2)
N2_8 N 0.9086(2) 0.8222(4) 0.45388(12)
N3_8 N 0.87630(19) 0.8158(4) 0.40661(11)
N4_8 N 0.87563(19) 0.9595(4) 0.43284(11)
N5_8 N 0.9479(2) 0.4902(4) 0.41960(13)
N8_8 N 0.78774(18) 0.9228(3) 0.12897(10)
N9_8 N 0.82415(18) 0.9565(3) 0.17431(10)
N10_8 N 0.74171(17) 0.9543(3) 0.17043(9)
I1_7 I 0.99621(2) 0.56771(7) 0.90319(2)
C1_8 C 0.5612(3) 0.0191(6) 0.02897(16)
H1_8 H 0.5465 0.0486 0.0445
C2_8 C 0.5705(3) 0.0728(6) 0.00465(16)
H2_8 H 0.5621 0.1370 0.0040
C4_8 C 0.6030(4) 0.9371(5) 0.98254(16)
H3_8 H 0.6179 0.9074 0.9670
C17_8 C 0.6778(3) 0.8978(5) 0.86149(17)
H11_8 H 0.6764 0.8313 0.8608
C18_8 C 0.6563(3) 0.9437(5) 0.88358(16)
H12_8 H 0.6413 0.9085 0.8979
C33_8 C 0.6850(2) 0.9745(6) 0.73197(14)
H21_8 H 0.6555 0.9740 0.7236
C34_8 C 0.6912(3) 0.9436(6) 0.76034(15)
H22_8 H 0.6655 0.9240 0.7711
C35_8 C 0.7696(2) 0.9722(4) 0.75787(13)
H23_8 H 0.7986 0.9731 0.7669
I5_8 I 0.70105(3) 0.70444(4) 0.80469(2)
N6_8 N 0.7010(2) 0.9438(4) 0.84057(11)
N12_8 N 0.73341(19) 0.9415(4) 0.77257(11)
Zn3_8 Zn 0.74108(3) 0.86631(6) 0.81154(2)
I6_8 I 0.82587(3) 0.86914(7) 0.82730(2)
I1_8 I 0.00379(2) 0.06771(7) 0.59681(2)
loop_
_geom_bond_atom_site_label_1
_geom_bond_atom_site_label_2
_geom_bond_site_symmetry_1
_geom_bond_site_symmetry_2
C1 H1 1_555 1_555
C2 C1 1_555 1_555
H2 C2 1_555 1_555
C3 C2 1_555 1_555
C4 C3 1_555 1_555
H3 C4 1_555 1_555
C5 C4 1_555 1_555
H4 C5 1_555 1_555
C6 C3 1_555 1_555
C7 C9 1_555 1_555
C8 C14 1_555 1_555
C9 C10 1_555 1_555
C10 H5 1_555 1_555
C11 C10 1_555 1_555
H6 C11 1_555 1_555
C13 C9 1_555 1_555
H8 C13 1_555 1_555
C14 C15 1_555 1_555
C15 H9 1_555 1_555
C16 C15 1_555 1_555
H10 C16 1_555 1_555
C17 H11 1_555 1_555
C18 C14 1_555 1_555
H12 C18 1_555 1_555
C19 H13 1_555 1_555
C20 C19 1_555 1_555
H14 C20 1_555 1_555
C21 C20 1_555 1_555
C22 C21 1_555 1_555
H15 C22 1_555 1_555
C23 C22 1_555 1_555
H16 C23 1_555 1_555
C24 C21 1_555 1_555
C25 C27 1_555 1_555
C26 C32 1_555 1_555
C27 C28 1_555 1_555
C28 H17 1_555 1_555
C29 C28 1_555 1_555
H18 C29 1_555 1_555
C30 H19 1_555 1_555
C31 C27 1_555 1_555
H20 C31 1_555 1_555
C32 C33 1_555 1_555
C33 H21 1_555 1_555
C34 C33 1_555 1_555
H22 C34 1_555 1_555
C35 H23 1_555 1_555
C36 C32 1_555 1_555
H24 C36 1_555 1_555
I1 Zn1 1_555 1_555
I2 Zn1 1_555 1_555
I5 Zn3 1_555 1_555
N1 C1 1_555 1_555
N2 C6 1_555 1_555
N3 C7 1_555 1_555
N4 C6 1_555 1_555
N6 C16 1_555 1_555
N7 C19 1_555 1_555
N8 C24 1_555 1_555
N9 C25 1_555 1_555
N10 C24 1_555 1_555
N11 C29 1_555 1_555
N12 C34 1_555 1_555
Zn1 N1 1_555 1_555
Zn3 N6 1_555 1_555
I6 Zn3 1_555 1_555
N13 Zn1 1_555 1_555
Zn4 N7 1_555 1_555
Zn5 N11 1_555 1_555
C5 N1 1_555 1_555
C7 N2 1_555 1_555
C8 N3 1_555 1_555
C8 N4 1_555 1_555
C12 C13 1_555 1_555
C17 C18 1_555 1_555
C17 N6 1_555 1_555
C23 N7 1_555 1_555
C25 N8 1_555 1_555
C26 N9 1_555 1_555
C26 N10 1_555 1_555
C30 C31 1_555 1_555
C30 N11 1_555 1_555
C35 C36 1_555 1_555
C35 N12 1_555 1_555
N12 Zn3 1_555 1_555
I3 Zn2 1_555 1_555
I4 Zn2 1_555 1_555
Zn2 N5 1_555 1_555
N14 Zn2 1_555 1_555
I3_2 Zn2_2 1_555 1_555
I4_2 Zn2_2 1_555 1_555
Zn2_2 N5_2 1_555 1_555
C1_2 H1_2 1_555 1_555
C2_2 C1_2 1_555 1_555
H2_2 C2_2 1_555 1_555
H4_2 C5_2 1_555 1_555
I2_2 Zn4 1_555 1_555
N1_2 C1_2 1_555 1_555
Zn4 N1_2 1_555 1_555
C5_2 N1_2 1_555 1_555
C4_2 C3_2 1_555 1_555
H3_2 C4_2 1_555 1_555
C6_2 C3_2 1_555 1_555
C7_2 C9_2 1_555 1_555
C8_2 C14_2 1_555 1_555
C9_2 C10_2 1_555 1_555
C10_2 H5_2 1_555 1_555
C11_2 C10_2 1_555 1_555
H6_2 C11_2 1_555 1_555
C13_2 C9_2 1_555 1_555
H8_2 C13_2 1_555 1_555
C14_2 C15_2 1_555 1_555
C15_2 H9_2 1_555 1_555
C16_2 C15_2 1_555 1_555
H10_2 C16_2 1_555 1_555
C17_2 H11_2 1_555 1_555
C18_2 C14_2 1_555 1_555
H12_2 C18_2 1_555 1_555
C19_2 H13_2 1_555 1_555
C20_2 C19_2 1_555 1_555
H14_2 C20_2 1_555 1_555
C21_2 C20_2 1_555 1_555
C22_2 C21_2 1_555 1_555
H15_2 C22_2 1_555 1_555
C23_2 C22_2 1_555 1_555
H16_2 C23_2 1_555 1_555
C24_2 C21_2 1_555 1_555
C25_2 C27_2 1_555 1_555
C26_2 C32_2 1_555 1_555
C27_2 C28_2 1_555 1_555
C28_2 H17_2 1_555 1_555
C29_2 C28_2 1_555 1_555
H18_2 C29_2 1_555 1_555
C30_2 H19_2 1_555 1_555
C31_2 C27_2 1_555 1_555
H20_2 C31_2 1_555 1_555
C32_2 C33_2 1_555 1_555
C33_2 H21_2 1_555 1_555
C34_2 C33_2 1_555 1_555
H22_2 C34_2 1_555 1_555
C35_2 H23_2 1_555 1_555
C36_2 C32_2 1_555 1_555
H24_2 C36_2 1_555 1_555
I5_2 Zn3_2 1_555 1_555
N2_2 C6_2 1_555 1_555
N3_2 C7_2 1_555 1_555
N4_2 C6_2 1_555 1_555
N6_2 C16_2 1_555 1_555
N13 C19_2 1_555 1_555
N8_2 C24_2 1_555 1_555
N9_2 C25_2 1_555 1_555
N10_2 C24_2 1_555 1_555
N11_2 C29_2 1_555 1_555
N12_2 C34_2 1_555 1_555
Zn3_2 N6_2 1_555 1_555
I6_2 Zn3_2 1_555 1_555
C7_2 N2_2 1_555 1_555
C8_2 N3_2 1_555 1_555
C8_2 N4_2 1_555 1_555
C12_2 C13_2 1_555 1_555
C17_2 C18_2 1_555 1_555
C17_2 N6_2 1_555 1_555
C23_2 N13 1_555 1_555
C25_2 N8_2 1_555 1_555
C26_2 N9_2 1_555 1_555
C26_2 N10_2 1_555 1_555
C30_2 C31_2 1_555 1_555
C30_2 N11_2 1_555 1_555
C35_2 C36_2 1_555 1_555
C35_2 N12_2 1_555 1_555
N12_2 Zn3_2 1_555 1_555
C6_3 C3_3 1_555 1_555
C7_3 C9_3 1_555 1_555
C8_3 C14_3 1_555 1_555
C9_3 C10_3 1_555 1_555
C10_3 H5_3 1_555 1_555
C11_3 C10_3 1_555 1_555
H6_3 C11_3 1_555 1_555
C12_3 H7_3 1_555 1_555
C13_3 C9_3 1_555 1_555
H8_3 C13_3 1_555 1_555
C14_3 C15_3 1_555 1_555
C15_3 H9_3 1_555 1_555
C16_3 C15_3 1_555 1_555
H10_3 C16_3 1_555 1_555
C19_3 H13_3 1_555 1_555
C20_3 C19_3 1_555 1_555
H14_3 C20_3 1_555 1_555
C21_3 C20_3 1_555 1_555
C22_3 C21_3 1_555 1_555
H15_3 C22_3 1_555 1_555
C23_3 C22_3 1_555 1_555
H16_3 C23_3 1_555 1_555
C24_3 C21_3 1_555 1_555
C25_3 C27_3 1_555 1_555
C26_3 C32_3 1_555 1_555
C27_3 C28_3 1_555 1_555
C28_3 H17_3 1_555 1_555
C29_3 C28_3 1_555 1_555
H18_3 C29_3 1_555 1_555
C30_3 H19_3 1_555 1_555
C31_3 C27_3 1_555 1_555
H20_3 C31_3 1_555 1_555
C36_3 C32_3 1_555 1_555
H24_3 C36_3 1_555 1_555
I3_3 Zn5 1_555 1_555
I4_3 Zn5 1_555 1_555
N2_3 C6_3 1_555 1_555
N3_3 C7_3 1_555 1_555
N4_3 C6_3 1_555 1_555
N5_3 C11_3 1_555 1_555
N7_2 C19_3 1_555 1_555
N8_3 C24_3 1_555 1_555
N9_3 C25_3 1_555 1_555
N10_3 C24_3 1_555 1_555
N14 C29_3 1_555 1_555
Zn5 N5_3 1_555 1_555
Zn4_2 N7_2 1_555 1_555
C7_3 N2_3 1_555 1_555
C8_3 N3_3 1_555 1_555
C8_3 N4_3 1_555 1_555
C12_3 C13_3 1_555 1_555
C12_3 N5_3 1_555 1_555
C23_3 N7_2 1_555 1_555
C25_3 N8_3 1_555 1_555
C26_3 N9_3 1_555 1_555
C26_3 N10_3 1_555 1_555
C30_3 C31_3 1_555 1_555
C30_3 N14 1_555 1_555
H3_3 C4_3 1_555 1_555
C5_3 C4_3 1_555 1_555
H4_3 C5_3 1_555 1_555
C17_3 H11_3 1_555 1_555
H12_3 C18_3 1_555 1_555
C33_3 H21_3 1_555 1_555
C34_3 C33_3 1_555 1_555
H22_3 C34_3 1_555 1_555
C35_3 H23_3 1_555 1_555
I2_3 Zn4_2 1_555 1_555
I5_3 Zn3_3 1_555 1_555
N12_3 C34_3 1_555 1_555
Zn4_2 N1_3 1_555 1_555
Zn3_3 N6_3 1_555 1_555
I6_3 Zn3_3 1_555 1_555
C5_3 N1_3 1_555 1_555
C17_3 C18_3 1_555 1_555
C17_3 N6_3 1_555 1_555
C35_3 N12_3 1_555 1_555
N12_3 Zn3_3 1_555 1_555
H4_4 C5_4 1_555 1_555
I1_2 Zn1_2 1_555 1_555
I2_4 Zn1_2 1_555 1_555
Zn1_2 N1_4 1_555 1_555
N13_2 Zn1_2 1_555 1_555
C5_4 N1_4 1_555 1_555
C1_3 H1_3 1_555 1_555
C2_3 C1_3 1_555 1_555
H2_3 C2_3 1_555 1_555
C3_4 C2_3 1_555 1_555
C6_4 C3_4 1_555 1_555
C7_4 C9_4 1_555 1_555
C8_4 C14_4 1_555 1_555
C9_4 C10_4 1_555 1_555
C10_4 H5_4 1_555 1_555
C11_4 C10_4 1_555 1_555
H6_4 C11_4 1_555 1_555
C12_4 H7_4 1_555 1_555
C13_4 C9_4 1_555 1_555
H8_4 C13_4 1_555 1_555
C14_4 C15_4 1_555 1_555
C15_4 H9_4 1_555 1_555
C16_4 C15_4 1_555 1_555
H10_4 C16_4 1_555 1_555
C19_4 H13_4 1_555 1_555
C20_4 C19_4 1_555 1_555
H14_4 C20_4 1_555 1_555
C21_4 C20_4 1_555 1_555
C22_4 C21_4 1_555 1_555
H15_4 C22_4 1_555 1_555
C23_4 C22_4 1_555 1_555
H16_4 C23_4 1_555 1_555
C24_4 C21_4 1_555 1_555
C25_4 C27_4 1_555 1_555
C26_4 C32_4 1_555 1_555
C27_4 C28_4 1_555 1_555
C28_4 H17_4 1_555 1_555
C29_4 C28_4 1_555 1_555
H18_4 C29_4 1_555 1_555
C30_4 H19_4 1_555 1_555
C31_4 C27_4 1_555 1_555
H20_4 C31_4 1_555 1_555
C36_4 C32_4 1_555 1_555
H24_4 C36_4 1_555 1_555
I3_4 Zn5_2 1_555 1_555
I4_4 Zn5_2 1_555 1_555
N2_4 C6_4 1_555 1_555
N3_4 C7_4 1_555 1_555
N4_4 C6_4 1_555 1_555
N5_4 C11_4 1_555 1_555
N13_2 C19_4 1_555 1_555
N8_4 C24_4 1_555 1_555
N9_4 C25_4 1_555 1_555
N10_4 C24_4 1_555 1_555
N14_2 C29_4 1_555 1_555
Zn5_2 N5_4 1_555 1_555
C7_4 N2_4 1_555 1_555
C8_4 N3_4 1_555 1_555
C8_4 N4_4 1_555 1_555
C12_4 C13_4 1_555 1_555
C12_4 N5_4 1_555 1_555
C23_4 N13_2 1_555 1_555
C25_4 N8_4 1_555 1_555
C26_4 N9_4 1_555 1_555
C26_4 N10_4 1_555 1_555
C30_4 C31_4 1_555 1_555
C30_4 N14_2 1_555 1_555
H3_4 C4_4 1_555 1_555
C17_4 H11_4 1_555 1_555
H12_4 C18_4 1_555 1_555
C33_4 H21_4 1_555 1_555
C34_4 C33_4 1_555 1_555
H22_4 C34_4 1_555 1_555
C35_4 H23_4 1_555 1_555
I5_4 Zn3_4 1_555 1_555
N12_4 C34_4 1_555 1_555
Zn3_4 N6_4 1_555 1_555
I6_4 Zn3_4 1_555 1_555
C17_4 C18_4 1_555 1_555
C17_4 N6_4 1_555 1_555
C35_4 N12_4 1_555 1_555
N12_4 Zn3_4 1_555 1_555
C1_4 H1_4 1_555 1_555
C2_4 C1_4 1_555 1_555
H2_4 C2_4 1_555 1_555
I3_5 Zn2_3 1_555 1_555
I4_5 Zn2_3 1_555 1_555
Zn2_3 N5_5 1_555 1_555
N14_3 Zn2_3 1_555 1_555
C1_5 H1_5 1_555 1_555
C2_5 C1_5 1_555 1_555
H2_5 C2_5 1_555 1_555
C3_5 C2_5 1_555 1_555
C4_5 C3_5 1_555 1_555
H3_5 C4_5 1_555 1_555
C5_5 C4_5 1_555 1_555
H4_5 C5_5 1_555 1_555
C6_5 C3_5 1_555 1_555
C7_5 C9_5 1_555 1_555
C8_5 C14_5 1_555 1_555
C9_5 C10_5 1_555 1_555
C10_5 H5_5 1_555 1_555
C11_5 C10_5 1_555 1_555
H6_5 C11_5 1_555 1_555
C13_5 C9_5 1_555 1_555
H8_5 C13_5 1_555 1_555
C14_5 C15_5 1_555 1_555
C15_5 H9_5 1_555 1_555
C16_5 C15_5 1_555 1_555
H10_5 C16_5 1_555 1_555
C17_5 H11_5 1_555 1_555
C18_5 C14_5 1_555 1_555
H12_5 C18_5 1_555 1_555
C19_5 H13_5 1_555 1_555
C20_5 C19_5 1_555 1_555
H14_5 C20_5 1_555 1_555
C21_5 C20_5 1_555 1_555
C22_5 C21_5 1_555 1_555
H15_5 C22_5 1_555 1_555
C23_5 C22_5 1_555 1_555
H16_5 C23_5 1_555 1_555
C24_5 C21_5 1_555 1_555
C25_5 C27_5 1_555 1_555
C26_5 C32_5 1_555 1_555
C27_5 C28_5 1_555 1_555
C28_5 H17_5 1_555 1_555
C29_5 C28_5 1_555 1_555
H18_5 C29_5 1_555 1_555
C30_5 H19_5 1_555 1_555
C31_5 C27_5 1_555 1_555
H20_5 C31_5 1_555 1_555
C32_5 C33_5 1_555 1_555
C33_5 H21_5 1_555 1_555
C34_5 C33_5 1_555 1_555
H22_5 C34_5 1_555 1_555
C35_5 H23_5 1_555 1_555
C36_5 C32_5 1_555 1_555
H24_5 C36_5 1_555 1_555
I1_5 Zn1_3 1_555 1_555
I2_5 Zn1_3 1_555 1_555
I5_5 Zn3_5 1_555 1_555
N1_5 C1_5 1_555 1_555
N2_5 C6_5 1_555 1_555
N3_5 C7_5 1_555 1_555
N4_5 C6_5 1_555 1_555
N6_5 C16_5 1_555 1_555
N7_3 C19_5 1_555 1_555
N8_5 C24_5 1_555 1_555
N9_5 C25_5 1_555 1_555
N10_5 C24_5 1_555 1_555
N11_3 C29_5 1_555 1_555
N12_5 C34_5 1_555 1_555
Zn1_3 N1_5 1_555 1_555
Zn3_5 N6_5 1_555 1_555
I6_5 Zn3_5 1_555 1_555
N13_3 Zn1_3 1_555 1_555
Zn4_3 N7_3 1_555 1_555
Zn5_3 N11_3 1_555 1_555
C5_5 N1_5 1_555 1_555
C7_5 N2_5 1_555 1_555
C8_5 N3_5 1_555 1_555
C8_5 N4_5 1_555 1_555
C12_5 C13_5 1_555 1_555
C17_5 C18_5 1_555 1_555
C17_5 N6_5 1_555 1_555
C23_5 N7_3 1_555 1_555
C25_5 N8_5 1_555 1_555
C26_5 N9_5 1_555 1_555
C26_5 N10_5 1_555 1_555
C30_5 C31_5 1_555 1_555
C30_5 N11_3 1_555 1_555
C35_5 C36_5 1_555 1_555
C35_5 N12_5 1_555 1_555
N12_5 Zn3_5 1_555 1_555
C4_6 C3_6 1_555 1_555
H3_6 C4_6 1_555 1_555
C6_6 C3_6 1_555 1_555
C7_6 C9_6 1_555 1_555
C8_6 C14_6 1_555 1_555
C9_6 C10_6 1_555 1_555
C10_6 H5_6 1_555 1_555
C11_6 C10_6 1_555 1_555
H6_6 C11_6 1_555 1_555
C13_6 C9_6 1_555 1_555
H8_6 C13_6 1_555 1_555
C14_6 C15_6 1_555 1_555
C15_6 H9_6 1_555 1_555
C16_6 C15_6 1_555 1_555
H10_6 C16_6 1_555 1_555
C17_6 H11_6 1_555 1_555
C18_6 C14_6 1_555 1_555
H12_6 C18_6 1_555 1_555
C19_6 H13_6 1_555 1_555
C20_6 C19_6 1_555 1_555
H14_6 C20_6 1_555 1_555
C21_6 C20_6 1_555 1_555
C22_6 C21_6 1_555 1_555
H15_6 C22_6 1_555 1_555
C23_6 C22_6 1_555 1_555
H16_6 C23_6 1_555 1_555
C24_6 C21_6 1_555 1_555
C25_6 C27_6 1_555 1_555
C26_6 C32_6 1_555 1_555
C27_6 C28_6 1_555 1_555
C28_6 H17_6 1_555 1_555
C29_6 C28_6 1_555 1_555
H18_6 C29_6 1_555 1_555
C30_6 H19_6 1_555 1_555
C31_6 C27_6 1_555 1_555
H20_6 C31_6 1_555 1_555
C32_6 C33_6 1_555 1_555
C33_6 H21_6 1_555 1_555
C34_6 C33_6 1_555 1_555
H22_6 C34_6 1_555 1_555
C35_6 H23_6 1_555 1_555
C36_6 C32_6 1_555 1_555
H24_6 C36_6 1_555 1_555
I5_6 Zn3_6 1_555 1_555
N2_6 C6_6 1_555 1_555
N3_6 C7_6 1_555 1_555
N4_6 C6_6 1_555 1_555
N6_6 C16_6 1_555 1_555
N13_3 C19_6 1_555 1_555
N8_6 C24_6 1_555 1_555
N9_6 C25_6 1_555 1_555
N10_6 C24_6 1_555 1_555
N11_4 C29_6 1_555 1_555
N12_6 C34_6 1_555 1_555
Zn3_6 N6_6 1_555 1_555
I6_6 Zn3_6 1_555 1_555
C7_6 N2_6 1_555 1_555
C8_6 N3_6 1_555 1_555
C8_6 N4_6 1_555 1_555
C12_6 C13_6 1_555 1_555
C17_6 C18_6 1_555 1_555
C17_6 N6_6 1_555 1_555
C23_6 N13_3 1_555 1_555
C25_6 N8_6 1_555 1_555
C26_6 N9_6 1_555 1_555
C26_6 N10_6 1_555 1_555
C30_6 C31_6 1_555 1_555
C30_6 N11_4 1_555 1_555
C35_6 C36_6 1_555 1_555
C35_6 N12_6 1_555 1_555
N12_6 Zn3_6 1_555 1_555
C1_6 H1_6 1_555 1_555
C2_6 C1_6 1_555 1_555
H2_6 C2_6 1_555 1_555
H4_6 C5_6 1_555 1_555
I2_6 Zn4_3 1_555 1_555
N1_6 C1_6 1_555 1_555
Zn4_3 N1_6 1_555 1_555
C5_6 N1_6 1_555 1_555
I3_6 Zn2_4 1_555 1_555
I4_6 Zn2_4 1_555 1_555
Zn2_4 N5_6 1_555 1_555
C6_7 C3_7 1_555 1_555
C7_7 C9_7 1_555 1_555
C8_7 C14_7 1_555 1_555
C9_7 C10_7 1_555 1_555
C10_7 H5_7 1_555 1_555
C11_7 C10_7 1_555 1_555
H6_7 C11_7 1_555 1_555
C12_7 H7_7 1_555 1_555
C13_7 C9_7 1_555 1_555
H8_7 C13_7 1_555 1_555
C14_7 C15_7 1_555 1_555
C15_7 H9_7 1_555 1_555
C16_7 C15_7 1_555 1_555
H10_7 C16_7 1_555 1_555
C19_7 H13_7 1_555 1_555
C20_7 C19_7 1_555 1_555
H14_7 C20_7 1_555 1_555
C21_7 C20_7 1_555 1_555
C22_7 C21_7 1_555 1_555
H15_7 C22_7 1_555 1_555
C23_7 C22_7 1_555 1_555
H16_7 C23_7 1_555 1_555
C24_7 C21_7 1_555 1_555
C25_7 C27_7 1_555 1_555
C26_7 C32_7 1_555 1_555
C27_7 C28_7 1_555 1_555
C28_7 H17_7 1_555 1_555
C29_7 C28_7 1_555 1_555
H18_7 C29_7 1_555 1_555
C30_7 H19_7 1_555 1_555
C31_7 C27_7 1_555 1_555
H20_7 C31_7 1_555 1_555
C36_7 C32_7 1_555 1_555
H24_7 C36_7 1_555 1_555
I3_7 Zn5_3 1_555 1_555
I4_7 Zn5_3 1_555 1_555
N2_7 C6_7 1_555 1_555
N3_7 C7_7 1_555 1_555
N4_7 C6_7 1_555 1_555
N5_7 C11_7 1_555 1_555
N7_4 C19_7 1_555 1_555
N8_7 C24_7 1_555 1_555
N9_7 C25_7 1_555 1_555
N10_7 C24_7 1_555 1_555
N14_3 C29_7 1_555 1_555
Zn5_3 N5_7 1_555 1_555
Zn4_4 N7_4 1_555 1_555
C7_7 N2_7 1_555 1_555
C8_7 N3_7 1_555 1_555
C8_7 N4_7 1_555 1_555
C12_7 C13_7 1_555 1_555
C12_7 N5_7 1_555 1_555
C23_7 N7_4 1_555 1_555
C25_7 N8_7 1_555 1_555
C26_7 N9_7 1_555 1_555
C26_7 N10_7 1_555 1_555
C30_7 C31_7 1_555 1_555
C30_7 N14_3 1_555 1_555
H3_7 C4_7 1_555 1_555
C5_7 C4_7 1_555 1_555
H4_7 C5_7 1_555 1_555
C17_7 H11_7 1_555 1_555
H12_7 C18_7 1_555 1_555
C33_7 H21_7 1_555 1_555
C34_7 C33_7 1_555 1_555
H22_7 C34_7 1_555 1_555
C35_7 H23_7 1_555 1_555
I2_7 Zn4_4 1_555 1_555
I5_7 Zn3_7 1_555 1_555
N12_7 C34_7 1_555 1_555
Zn4_4 N1_7 1_555 1_555
Zn3_7 N6_7 1_555 1_555
I6_7 Zn3_7 1_555 1_555
C5_7 N1_7 1_555 1_555
C17_7 C18_7 1_555 1_555
C17_7 N6_7 1_555 1_555
C35_7 N12_7 1_555 1_555
N12_7 Zn3_7 1_555 1_555
H4_8 C5_8 1_555 1_555
I1_6 Zn1_4 1_555 1_555
I2_8 Zn1_4 1_555 1_555
Zn1_4 N1_8 1_555 1_555
N13_4 Zn1_4 1_555 1_555
C5_8 N1_8 1_555 1_555
C1_7 H1_7 1_555 1_555
C2_7 C1_7 1_555 1_555
H2_7 C2_7 1_555 1_555
C3_8 C2_7 1_555 1_555
C6_8 C3_8 1_555 1_555
C7_8 C9_8 1_555 1_555
C8_8 C14_8 1_555 1_555
C9_8 C10_8 1_555 1_555
C10_8 H5_8 1_555 1_555
C11_8 C10_8 1_555 1_555
H6_8 C11_8 1_555 1_555
C12_8 H7_8 1_555 1_555
C13_8 C9_8 1_555 1_555
H8_8 C13_8 1_555 1_555
C14_8 C15_8 1_555 1_555
C15_8 H9_8 1_555 1_555
C16_8 C15_8 1_555 1_555
H10_8 C16_8 1_555 1_555
C19_8 H13_8 1_555 1_555
C20_8 C19_8 1_555 1_555
H14_8 C20_8 1_555 1_555
C21_8 C20_8 1_555 1_555
C22_8 C21_8 1_555 1_555
H15_8 C22_8 1_555 1_555
C23_8 C22_8 1_555 1_555
H16_8 C23_8 1_555 1_555
C24_8 C21_8 1_555 1_555
C25_8 C27_8 1_555 1_555
C26_8 C32_8 1_555 1_555
C27_8 C28_8 1_555 1_555
C28_8 H17_8 1_555 1_555
C29_8 C28_8 1_555 1_555
H18_8 C29_8 1_555 1_555
C30_8 H19_8 1_555 1_555
C31_8 C27_8 1_555 1_555
H20_8 C31_8 1_555 1_555
C36_8 C32_8 1_555 1_555
H24_8 C36_8 1_555 1_555
I3_8 Zn5_4 1_555 1_555
I4_8 Zn5_4 1_555 1_555
N2_8 C6_8 1_555 1_555
N3_8 C7_8 1_555 1_555
N4_8 C6_8 1_555 1_555
N5_8 C11_8 1_555 1_555
N13_4 C19_8 1_555 1_555
N8_8 C24_8 1_555 1_555
N9_8 C25_8 1_555 1_555
N10_8 C24_8 1_555 1_555
N14_4 C29_8 1_555 1_555
Zn5_4 N5_8 1_555 1_555
C7_8 N2_8 1_555 1_555
C8_8 N3_8 1_555 1_555
C8_8 N4_8 1_555 1_555
C12_8 C13_8 1_555 1_555
C12_8 N5_8 1_555 1_555
C23_8 N13_4 1_555 1_555
C25_8 N8_8 1_555 1_555
C26_8 N9_8 1_555 1_555
C26_8 N10_8 1_555 1_555
C30_8 C31_8 1_555 1_555
C30_8 N14_4 1_555 1_555
C1_8 H1_8 1_555 1_555
C2_8 C1_8 1_555 1_555
H2_8 C2_8 1_555 1_555
H3_8 C4_8 1_555 1_555
C17_8 H11_8 1_555 1_555
H12_8 C18_8 1_555 1_555
C33_8 H21_8 1_555 1_555
C34_8 C33_8 1_555 1_555
H22_8 C34_8 1_555 1_555
C35_8 H23_8 1_555 1_555
I5_8 Zn3_8 1_555 1_555
N12_8 C34_8 1_555 1_555
Zn3_8 N6_8 1_555 1_555
I6_8 Zn3_8 1_555 1_555
C17_8 C18_8 1_555 1_555
C17_8 N6_8 1_555 1_555
C35_8 N12_8 1_555 1_555
N12_8 Zn3_8 1_555 1_555

#END
