
###############################################################################
#
# This file contains modified crystal structure data generated from the
# MOF subset of the Cambridge Structural Database (CSD) v543 
# hosted by the Cambridge Crystallographic Data Centre (CCDC).
#
# This work is licensed under the Creative Commons
# Attribution-NonCommercial-ShareAlike 4.0 International License.
# To view a copy of this license, visit
# http://creativecommons.org/licenses/by-nc-sa/4.0/
# or send a letter to
# Creative Commons, PO Box 1866, Mountain View, CA 94042, USA.
#
# CIF created using the CSD Python API on 29 September 2022
# The structure has been converted into the P1 space group
# The structure has a 3D framework
# The original CSD entry KEVXAN is in the orthorhombic crystal system
# The framework has been calculated to contain at least 10.0% void space
# The void calculation uses a probe of radius 1.32A, grid spacing 0.4
#
###############################################################################

data_KEVXAN
_chemical_formula_moiety         '(C288 H192 I48 N96 Zn24)n'
_symmetry_cell_setting           triclinic
_symmetry_space_group_name_H-M   'P 1'
_symmetry_Int_Tables_number      1
_space_group_name_Hall           'P 1'
loop_
_symmetry_equiv_pos_site_id
_symmetry_equiv_pos_as_xyz
1 x,y,z
_cell_length_a                   28.6866(12)
_cell_length_b                   13.9765(5)
_cell_length_c                   46.1032(19)
_cell_angle_alpha                90
_cell_angle_beta                 90
_cell_angle_gamma                90
_cell_volume                     18484.5
loop_
_atom_site_label
_atom_site_type_symbol
_atom_site_fract_x
_atom_site_fract_y
_atom_site_fract_z
C1 C 0.5610(4) 0.4809(7) 0.5289(2)
H1 H 0.5461 0.4518 0.5445
C2 C 0.5704(4) 0.4269(7) 0.50475(19)
H2 H 0.5620 0.3626 0.5042
C3 C 0.5928(3) 0.4692(5) 0.48069(16)
C4 C 0.6024(4) 0.5632(6) 0.48260(19)
H3 H 0.6171 0.5937 0.4672
C5 C 0.5904(4) 0.6172(7) 0.50781(19)
H4 H 0.5951 0.6831 0.5079
C6 C 0.6033(3) 0.4152(5) 0.45408(16)
C7 C 0.6020(3) 0.2749(5) 0.42872(16)
C8 C 0.6342(3) 0.4089(5) 0.40947(16)
C9 C 0.5868(3) 0.1751(6) 0.42588(17)
C10 C 0.5595(4) 0.1305(7) 0.4481(2)
H5 H 0.5520 0.1633 0.4650
C11 C 0.5448(4) 0.0395(6) 0.4438(2)
H6 H 0.5287 0.0093 0.4587
C12 C 0.5778(4) 0.0310(7) 0.3992(2)
C13 C 0.5953(4) 0.1224(6) 0.4015(2)
H8 H 0.6130 0.1481 0.3865
C14 C 0.6565(3) 0.4594(5) 0.38476(16)
C15 C 0.6778(3) 0.4084(6) 0.36241(19)
H9 H 0.6766 0.3419 0.3617
C16 C 0.7011(3) 0.4624(6) 0.34098(18)
H10 H 0.7172 0.4299 0.3265
C17 C 0.6784(4) 0.6030(6) 0.3616(2)
H11 H 0.6777 0.6695 0.3612
C18 C 0.6561(4) 0.5566(6) 0.38365(18)
H12 H 0.6407 0.5915 0.3979
C19 C 0.8345(3) 0.3816(6) 0.08127(18)
H13 H 0.8328 0.3648 0.0618
C20 C 0.7941(3) 0.3962(6) 0.09539(16)
H14 H 0.7657 0.3904 0.0859
C21 C 0.7960(2) 0.4202(5) 0.12474(14)
C22 C 0.8398(3) 0.4298(5) 0.13698(16)
H15 H 0.8428 0.4475 0.1563
C23 C 0.8785(3) 0.4133(6) 0.12070(16)
H16 H 0.9075 0.4192 0.1294
C24 C 0.7522(2) 0.4322(4) 0.14178(14)
C25 C 0.6749(3) 0.4351(4) 0.14562(15)
C26 C 0.7189(2) 0.4657(4) 0.18548(14)
C27 C 0.6285(3) 0.4228(5) 0.13210(16)
C28 C 0.6232(3) 0.4153(6) 0.10212(18)
H17 H 0.6491 0.4195 0.0900
C29 C 0.5804(3) 0.4017(6) 0.09069(19)
H18 H 0.5779 0.3981 0.0706
C30 C 0.5457(3) 0.4011(8) 0.1351(2)
H19 H 0.5192 0.3945 0.1465
C31 C 0.5873(3) 0.4188(8) 0.1487(2)
H20 H 0.5883 0.4281 0.1686
C32 C 0.7234(2) 0.4940(4) 0.21609(14)
C33 C 0.6846(3) 0.5265(7) 0.23175(17)
H21 H 0.6553 0.5287 0.2232
C34 C 0.6912(3) 0.5553(7) 0.26034(18)
H22 H 0.6653 0.5728 0.2713
C35 C 0.7690(3) 0.5277(5) 0.25798(16)
H23 H 0.7977 0.5259 0.2673
C36 C 0.7667(3) 0.4970(5) 0.22913(15)
H24 H 0.7935 0.4792 0.2191
I1 I 0.49631(2) 0.56690(8) 0.59684(2)
I2 I 0.57193(4) 0.82543(6) 0.55873(2)
I5 I 0.70125(3) 0.79568(5) 0.30471(2)
N1 N 0.5726(3) 0.5749(5) 0.53119(14)
N2 N 0.5912(2) 0.3230(5) 0.45372(14)
N3 N 0.6236(2) 0.3153(4) 0.40649(13)
N4 N 0.6238(2) 0.4594(4) 0.43300(13)
N6 N 0.7011(2) 0.5568(4) 0.34055(14)
N7 N 0.8766(2) 0.3893(4) 0.09300(13)
N8 N 0.7122(2) 0.4225(4) 0.12911(12)
N9 N 0.6757(2) 0.4567(4) 0.17415(12)
N10 N 0.7581(2) 0.4556(4) 0.17043(11)
N11 N 0.5410(2) 0.3929(4) 0.10638(15)
N12 N 0.7333(2) 0.5587(4) 0.27263(13)
Zn1 Zn 0.56287(4) 0.64724(8) 0.56970(2)
Zn3 Zn 0.74092(4) 0.63359(7) 0.31152(2)
I6 I 0.82569(3) 0.63026(8) 0.32741(2)
N13 N 0.6234(2) 0.6107(4) 0.59300(13)
Zn4 Zn 0.93713(4) 0.35276(8) 0.06970(2)
Zn5 Zn 0.47803(4) 0.35729(7) 0.08694(3)
H7 H 0.5842 0.9957 0.3826
I3 I 0.56814(3) 0.76820(7) 0.37447(3)
I4 I 0.50464(3) 0.78595(6) 0.46297(2)
N5 N 0.5521(2) 0.9918(5) 0.41983(15)
Zn2 Zn 0.52197(4) 0.85729(7) 0.41306(3)
N14 N 0.4590(2) 0.8929(4) 0.39362(15)
H7_2 H 0.9158 0.0043 0.8826
I3_2 I 0.93186(3) 0.23180(7) 0.87447(3)
I4_2 I 0.99536(3) 0.21405(6) 0.96297(2)
N5_2 N 0.9479(2) 0.0082(5) 0.91983(15)
Zn2_2 Zn 0.97803(4) 0.14271(7) 0.91306(3)
C1_2 C 0.9390(4) 0.5191(7) 0.0289(2)
H1_2 H 0.9539 0.5482 0.0445
C2_2 C 0.9296(4) 0.5731(7) 0.00475(19)
H2_2 H 0.9380 0.6374 0.0042
C5_2 C 0.9096(4) 0.3828(7) 0.00781(19)
H4_2 H 0.9049 0.3169 0.0079
I2_2 I 0.92807(4) 0.17457(6) 0.05873(2)
N1_2 N 0.9274(3) 0.4251(5) 0.03119(14)
C3_2 C 0.9072(3) 0.5308(5) 0.98069(16)
C4_2 C 0.8976(4) 0.4368(6) 0.98260(19)
H3_2 H 0.8829 0.4063 0.9672
C6_2 C 0.8967(3) 0.5848(5) 0.95408(16)
C7_2 C 0.8980(3) 0.7251(5) 0.92872(16)
C8_2 C 0.8658(3) 0.5911(5) 0.90947(16)
C9_2 C 0.9132(3) 0.8249(6) 0.92588(17)
C10_2 C 0.9405(4) 0.8695(7) 0.9481(2)
H5_2 H 0.9480 0.8367 0.9650
C11_2 C 0.9552(4) 0.9605(6) 0.9438(2)
H6_2 H 0.9713 0.9907 0.9587
C12_2 C 0.9222(4) 0.9690(7) 0.8992(2)
C13_2 C 0.9047(4) 0.8776(6) 0.9015(2)
H8_2 H 0.8870 0.8519 0.8865
C14_2 C 0.8435(3) 0.5406(5) 0.88476(16)
C15_2 C 0.8222(3) 0.5916(6) 0.86241(19)
H9_2 H 0.8234 0.6581 0.8617
C16_2 C 0.7989(3) 0.5376(6) 0.84098(18)
H10_2 H 0.7828 0.5701 0.8265
C17_2 C 0.8216(4) 0.3970(6) 0.8616(2)
H11_2 H 0.8223 0.3305 0.8612
C18_2 C 0.8439(4) 0.4434(6) 0.88365(18)
H12_2 H 0.8593 0.4085 0.8979
C19_2 C 0.6655(3) 0.6184(6) 0.58127(18)
H13_2 H 0.6672 0.6352 0.5618
C20_2 C 0.7059(3) 0.6038(6) 0.59539(16)
H14_2 H 0.7343 0.6096 0.5859
C21_2 C 0.7040(2) 0.5798(5) 0.62474(14)
C22_2 C 0.6602(3) 0.5702(5) 0.63698(16)
H15_2 H 0.6572 0.5525 0.6563
C23_2 C 0.6215(3) 0.5867(6) 0.62070(16)
H16_2 H 0.5925 0.5808 0.6294
C24_2 C 0.7478(2) 0.5678(4) 0.64178(14)
C25_2 C 0.8251(3) 0.5649(4) 0.64562(15)
C26_2 C 0.7811(2) 0.5343(4) 0.68548(14)
C27_2 C 0.8715(3) 0.5772(5) 0.63210(16)
C28_2 C 0.8768(3) 0.5847(6) 0.60212(18)
H17_2 H 0.8509 0.5805 0.5900
C29_2 C 0.9196(3) 0.5983(6) 0.59069(19)
H18_2 H 0.9221 0.6019 0.5706
C30_2 C 0.9543(3) 0.5989(8) 0.6351(2)
H19_2 H 0.9808 0.6055 0.6465
C31_2 C 0.9127(3) 0.5812(8) 0.6487(2)
H20_2 H 0.9117 0.5719 0.6686
C32_2 C 0.7766(2) 0.5060(4) 0.71609(14)
C33_2 C 0.8154(3) 0.4735(7) 0.73175(17)
H21_2 H 0.8447 0.4713 0.7232
C34_2 C 0.8088(3) 0.4447(7) 0.76034(18)
H22_2 H 0.8347 0.4272 0.7713
C35_2 C 0.7310(3) 0.4723(5) 0.75798(16)
H23_2 H 0.7023 0.4741 0.7673
C36_2 C 0.7333(3) 0.5030(5) 0.72913(15)
H24_2 H 0.7065 0.5208 0.7191
I5_2 I 0.79875(3) 0.20432(5) 0.80471(2)
N2_2 N 0.9088(2) 0.6770(5) 0.95372(14)
N3_2 N 0.8764(2) 0.6847(4) 0.90649(13)
N4_2 N 0.8762(2) 0.5406(4) 0.93300(13)
N6_2 N 0.7989(2) 0.4432(4) 0.84055(14)
N8_2 N 0.7878(2) 0.5775(4) 0.62911(12)
N9_2 N 0.8243(2) 0.5433(4) 0.67415(12)
N10_2 N 0.7419(2) 0.5444(4) 0.67043(11)
N11_2 N 0.9590(2) 0.6071(4) 0.60638(15)
N12_2 N 0.7667(2) 0.4413(4) 0.77263(13)
Zn3_2 Zn 0.75908(4) 0.36641(7) 0.81152(2)
I6_2 I 0.67431(3) 0.36974(8) 0.82741(2)
C3_3 C 0.4072(3) 0.9692(5) 0.01931(16)
C6_3 C 0.3967(3) 0.9152(5) 0.04592(16)
C7_3 C 0.3980(3) 0.7749(5) 0.07128(16)
C8_3 C 0.3658(3) 0.9089(5) 0.09053(16)
C9_3 C 0.4132(3) 0.6751(6) 0.07412(17)
C10_3 C 0.4405(4) 0.6305(7) 0.0519(2)
H5_3 H 0.4480 0.6633 0.0350
C11_3 C 0.4552(4) 0.5395(6) 0.0562(2)
H6_3 H 0.4713 0.5093 0.0413
C12_3 C 0.4222(4) 0.5310(7) 0.1008(2)
H7_3 H 0.4158 0.4957 0.1174
C13_3 C 0.4047(4) 0.6224(6) 0.0985(2)
H8_3 H 0.3870 0.6481 0.1135
C14_3 C 0.3435(3) 0.9594(5) 0.11524(16)
C15_3 C 0.3222(3) 0.9084(6) 0.13759(19)
H9_3 H 0.3234 0.8419 0.1383
C16_3 C 0.2989(3) 0.9624(6) 0.15902(18)
H10_3 H 0.2828 0.9299 0.1735
C19_3 C 0.1655(3) 0.8816(6) 0.41873(18)
H13_3 H 0.1672 0.8648 0.4382
C20_3 C 0.2059(3) 0.8962(6) 0.40461(16)
H14_3 H 0.2343 0.8904 0.4141
C21_3 C 0.2040(2) 0.9202(5) 0.37526(14)
C22_3 C 0.1602(3) 0.9298(5) 0.36302(16)
H15_3 H 0.1572 0.9475 0.3437
C23_3 C 0.1215(3) 0.9133(6) 0.37930(16)
H16_3 H 0.0925 0.9192 0.3706
C24_3 C 0.2478(2) 0.9322(4) 0.35822(14)
C25_3 C 0.3251(3) 0.9351(4) 0.35438(15)
C26_3 C 0.2811(2) 0.9657(4) 0.31452(14)
C27_3 C 0.3715(3) 0.9228(5) 0.36790(16)
C28_3 C 0.3768(3) 0.9153(6) 0.39788(18)
H17_3 H 0.3509 0.9195 0.4100
C29_3 C 0.4196(3) 0.9017(6) 0.40931(19)
H18_3 H 0.4221 0.8981 0.4294
C30_3 C 0.4543(3) 0.9011(8) 0.3649(2)
H19_3 H 0.4808 0.8945 0.3535
C31_3 C 0.4127(3) 0.9188(8) 0.3513(2)
H20_3 H 0.4117 0.9281 0.3314
C32_3 C 0.2766(2) 0.9940(4) 0.28391(14)
C36_3 C 0.2333(3) 0.9970(5) 0.27087(15)
H24_3 H 0.2065 0.9792 0.2809
I3_3 I 0.43186(3) 0.26820(7) 0.12553(3)
I4_3 I 0.49536(3) 0.28595(6) 0.03703(2)
N2_3 N 0.4088(2) 0.8230(5) 0.04628(14)
N3_3 N 0.3764(2) 0.8153(4) 0.09351(13)
N4_3 N 0.3762(2) 0.9594(4) 0.06700(13)
N5_3 N 0.4479(2) 0.4918(5) 0.08017(15)
N7_2 N 0.1234(2) 0.8893(4) 0.40700(13)
N8_3 N 0.2878(2) 0.9225(4) 0.37089(12)
N9_3 N 0.3243(2) 0.9567(4) 0.32585(12)
N10_3 N 0.2419(2) 0.9556(4) 0.32957(11)
Zn4_2 Zn 0.06287(4) 0.85276(8) 0.43030(2)
C4_3 C 0.1024(4) 0.9368(6) 0.51740(19)
H3_3 H 0.1171 0.9063 0.5328
C5_3 C 0.0904(4) 0.8828(7) 0.49219(19)
H4_3 H 0.0951 0.8169 0.4921
C17_3 C 0.1784(4) 0.8970(6) 0.6384(2)
H11_3 H 0.1777 0.8305 0.6388
C18_3 C 0.1561(4) 0.9434(6) 0.61635(18)
H12_3 H 0.1407 0.9085 0.6021
C33_3 C 0.1846(3) 0.9735(7) 0.76825(17)
H21_3 H 0.1553 0.9713 0.7768
C34_3 C 0.1912(3) 0.9447(7) 0.73966(18)
H22_3 H 0.1653 0.9272 0.7287
C35_3 C 0.2690(3) 0.9723(5) 0.74202(16)
H23_3 H 0.2977 0.9741 0.7327
I2_3 I 0.07193(4) 0.67457(6) 0.44127(2)
I5_3 I 0.20125(3) 0.70432(5) 0.69529(2)
N1_3 N 0.0726(3) 0.9251(5) 0.46881(14)
N6_3 N 0.2011(2) 0.9432(4) 0.65945(14)
N12_3 N 0.2333(2) 0.9413(4) 0.72737(13)
Zn3_3 Zn 0.24092(4) 0.86641(7) 0.68848(2)
I6_3 I 0.32569(3) 0.86974(8) 0.67259(2)
N14_2 N 0.0410(2) 0.1071(4) 0.89362(15)
Zn5_2 Zn 0.02197(4) 0.64271(7) 0.58694(3)
C5_4 C 0.4096(4) 0.1172(7) 0.99219(19)
H4_4 H 0.4049 0.1831 0.9921
I1_2 I 0.50369(2) 0.06690(8) 0.90316(2)
I2_4 I 0.42807(4) 0.32543(6) 0.94127(2)
N1_4 N 0.4274(3) 0.0749(5) 0.96881(14)
Zn1_2 Zn 0.43713(4) 0.14724(8) 0.93030(2)
N13_2 N 0.3766(2) 0.1107(4) 0.90700(13)
C1_3 C 0.0610(4) 0.0191(7) 0.4711(2)
H1_3 H 0.0461 0.0482 0.4555
C2_3 C 0.0704(4) 0.0731(7) 0.49525(19)
H2_3 H 0.0620 0.1374 0.4958
C3_4 C 0.0928(3) 0.0308(5) 0.51931(16)
C6_4 C 0.1033(3) 0.0848(5) 0.54592(16)
C7_4 C 0.1020(3) 0.2251(5) 0.57128(16)
C8_4 C 0.1342(3) 0.0911(5) 0.59053(16)
C9_4 C 0.0868(3) 0.3249(6) 0.57412(17)
C10_4 C 0.0595(4) 0.3695(7) 0.5519(2)
H5_4 H 0.0520 0.3367 0.5350
C11_4 C 0.0448(4) 0.4605(6) 0.5562(2)
H6_4 H 0.0287 0.4907 0.5413
C12_4 C 0.0778(4) 0.4690(7) 0.6008(2)
H7_4 H 0.0842 0.5043 0.6174
C13_4 C 0.0953(4) 0.3776(6) 0.5985(2)
H8_4 H 0.1130 0.3519 0.6135
C14_4 C 0.1565(3) 0.0406(5) 0.61524(16)
C15_4 C 0.1778(3) 0.0916(6) 0.63759(19)
H9_4 H 0.1766 0.1581 0.6383
C16_4 C 0.2011(3) 0.0376(6) 0.65902(18)
H10_4 H 0.2172 0.0701 0.6735
C19_4 C 0.3345(3) 0.1184(6) 0.91873(18)
H13_4 H 0.3328 0.1352 0.9382
C20_4 C 0.2941(3) 0.1038(6) 0.90461(16)
H14_4 H 0.2657 0.1096 0.9141
C21_4 C 0.2960(2) 0.0798(5) 0.87526(14)
C22_4 C 0.3398(3) 0.0702(5) 0.86302(16)
H15_4 H 0.3428 0.0525 0.8437
C23_4 C 0.3785(3) 0.0867(6) 0.87930(16)
H16_4 H 0.4075 0.0808 0.8706
C24_4 C 0.2522(2) 0.0678(4) 0.85822(14)
C25_4 C 0.1749(3) 0.0649(4) 0.85438(15)
C26_4 C 0.2189(2) 0.0343(4) 0.81452(14)
C27_4 C 0.1285(3) 0.0772(5) 0.86790(16)
C28_4 C 0.1232(3) 0.0847(6) 0.89788(18)
H17_4 H 0.1491 0.0805 0.9100
C29_4 C 0.0804(3) 0.0983(6) 0.90931(19)
H18_4 H 0.0779 0.1019 0.9294
C30_4 C 0.0457(3) 0.0989(8) 0.8649(2)
H19_4 H 0.0192 0.1055 0.8535
C31_4 C 0.0873(3) 0.0812(8) 0.8513(2)
H20_4 H 0.0883 0.0719 0.8314
C32_4 C 0.2234(2) 0.0060(4) 0.78391(14)
C36_4 C 0.2667(3) 0.0030(5) 0.77087(15)
H24_4 H 0.2935 0.0208 0.7809
I3_4 I 0.06814(3) 0.73180(7) 0.62553(3)
I4_4 I 0.00464(3) 0.71405(6) 0.53703(2)
N2_4 N 0.0912(2) 0.1770(5) 0.54628(14)
N3_4 N 0.1236(2) 0.1847(4) 0.59351(13)
N4_4 N 0.1238(2) 0.0406(4) 0.56700(13)
N5_4 N 0.0521(2) 0.5082(5) 0.58017(15)
N8_4 N 0.2122(2) 0.0775(4) 0.87089(12)
N9_4 N 0.1757(2) 0.0433(4) 0.82585(12)
N10_4 N 0.2581(2) 0.0444(4) 0.82957(11)
I1_3 I 0.00369(2) 0.43310(8) 0.09684(2)
C4_4 C 0.3976(4) 0.0632(6) 0.01740(19)
H3_4 H 0.3829 0.0937 0.0328
C17_4 C 0.3216(4) 0.1030(6) 0.1384(2)
H11_4 H 0.3223 0.1695 0.1388
C18_4 C 0.3439(4) 0.0566(6) 0.11635(18)
H12_4 H 0.3593 0.0915 0.1021
C33_4 C 0.3154(3) 0.0265(7) 0.26825(17)
H21_4 H 0.3447 0.0287 0.2768
C34_4 C 0.3088(3) 0.0553(7) 0.23966(18)
H22_4 H 0.3347 0.0728 0.2287
C35_4 C 0.2310(3) 0.0277(5) 0.24202(16)
H23_4 H 0.2023 0.0259 0.2327
I5_4 I 0.29875(3) 0.29568(5) 0.19529(2)
N6_4 N 0.2989(2) 0.0568(4) 0.15945(14)
N12_4 N 0.2667(2) 0.0587(4) 0.22737(13)
Zn3_4 Zn 0.25908(4) 0.13359(7) 0.18848(2)
I6_4 I 0.17431(3) 0.13026(8) 0.17259(2)
C1_4 C 0.4390(4) 0.9809(7) 0.9711(2)
H1_4 H 0.4539 0.9518 0.9555
C2_4 C 0.4296(4) 0.9269(7) 0.99525(19)
H2_4 H 0.4380 0.8626 0.9958
I1_4 I 0.99631(2) 0.93310(8) 0.40316(2)
H7_5 H 0.4158 0.0043 0.6174
I3_5 I 0.43186(3) 0.23180(7) 0.62553(3)
I4_5 I 0.49536(3) 0.21405(6) 0.53703(2)
N5_5 N 0.4479(2) 0.0082(5) 0.58017(15)
Zn2_3 Zn 0.47803(4) 0.14271(7) 0.58694(3)
N14_3 N 0.5410(2) 0.1071(4) 0.60638(15)
C1_5 C 0.4390(4) 0.5191(7) 0.4711(2)
H1_5 H 0.4539 0.5482 0.4555
C2_5 C 0.4296(4) 0.5731(7) 0.49525(19)
H2_5 H 0.4380 0.6374 0.4958
C3_5 C 0.4072(3) 0.5308(5) 0.51931(16)
C4_5 C 0.3976(4) 0.4368(6) 0.51740(19)
H3_5 H 0.3829 0.4063 0.5328
C5_5 C 0.4096(4) 0.3828(7) 0.49219(19)
H4_5 H 0.4049 0.3169 0.4921
C6_5 C 0.3967(3) 0.5848(5) 0.54592(16)
C7_5 C 0.3980(3) 0.7251(5) 0.57128(16)
C8_5 C 0.3658(3) 0.5911(5) 0.59053(16)
C9_5 C 0.4132(3) 0.8249(6) 0.57412(17)
C10_5 C 0.4405(4) 0.8695(7) 0.5519(2)
H5_5 H 0.4480 0.8367 0.5350
C11_5 C 0.4552(4) 0.9605(6) 0.5562(2)
H6_5 H 0.4713 0.9907 0.5413
C12_5 C 0.4222(4) 0.9690(7) 0.6008(2)
C13_5 C 0.4047(4) 0.8776(6) 0.5985(2)
H8_5 H 0.3870 0.8519 0.6135
C14_5 C 0.3435(3) 0.5406(5) 0.61524(16)
C15_5 C 0.3222(3) 0.5916(6) 0.63759(19)
H9_5 H 0.3234 0.6581 0.6383
C16_5 C 0.2989(3) 0.5376(6) 0.65902(18)
H10_5 H 0.2828 0.5701 0.6735
C17_5 C 0.3216(4) 0.3970(6) 0.6384(2)
H11_5 H 0.3223 0.3305 0.6388
C18_5 C 0.3439(4) 0.4434(6) 0.61635(18)
H12_5 H 0.3593 0.4085 0.6021
C19_5 C 0.1655(3) 0.6184(6) 0.91873(18)
H13_5 H 0.1672 0.6352 0.9382
C20_5 C 0.2059(3) 0.6038(6) 0.90461(16)
H14_5 H 0.2343 0.6096 0.9141
C21_5 C 0.2040(2) 0.5798(5) 0.87526(14)
C22_5 C 0.1602(3) 0.5702(5) 0.86302(16)
H15_5 H 0.1572 0.5525 0.8437
C23_5 C 0.1215(3) 0.5867(6) 0.87930(16)
H16_5 H 0.0925 0.5808 0.8706
C24_5 C 0.2478(2) 0.5678(4) 0.85822(14)
C25_5 C 0.3251(3) 0.5649(4) 0.85438(15)
C26_5 C 0.2811(2) 0.5343(4) 0.81452(14)
C27_5 C 0.3715(3) 0.5772(5) 0.86790(16)
C28_5 C 0.3768(3) 0.5847(6) 0.89788(18)
H17_5 H 0.3509 0.5805 0.9100
C29_5 C 0.4196(3) 0.5983(6) 0.90931(19)
H18_5 H 0.4221 0.6019 0.9294
C30_5 C 0.4543(3) 0.5989(8) 0.8649(2)
H19_5 H 0.4808 0.6055 0.8535
C31_5 C 0.4127(3) 0.5812(8) 0.8513(2)
H20_5 H 0.4117 0.5719 0.8314
C32_5 C 0.2766(2) 0.5060(4) 0.78391(14)
C33_5 C 0.3154(3) 0.4735(7) 0.76825(17)
H21_5 H 0.3447 0.4713 0.7768
C34_5 C 0.3088(3) 0.4447(7) 0.73966(18)
H22_5 H 0.3347 0.4272 0.7287
C35_5 C 0.2310(3) 0.4723(5) 0.74202(16)
H23_5 H 0.2023 0.4741 0.7327
C36_5 C 0.2333(3) 0.5030(5) 0.77087(15)
H24_5 H 0.2065 0.5208 0.7809
I1_5 I 0.50369(2) 0.43310(8) 0.40316(2)
I2_5 I 0.42807(4) 0.17457(6) 0.44127(2)
I5_5 I 0.29875(3) 0.20432(5) 0.69529(2)
N1_5 N 0.4274(3) 0.4251(5) 0.46881(14)
N2_5 N 0.4088(2) 0.6770(5) 0.54628(14)
N3_5 N 0.3764(2) 0.6847(4) 0.59351(13)
N4_5 N 0.3762(2) 0.5406(4) 0.56700(13)
N6_5 N 0.2989(2) 0.4432(4) 0.65945(14)
N7_3 N 0.1234(2) 0.6107(4) 0.90700(13)
N8_5 N 0.2878(2) 0.5775(4) 0.87089(12)
N9_5 N 0.3243(2) 0.5433(4) 0.82585(12)
N10_5 N 0.2419(2) 0.5444(4) 0.82957(11)
N11_3 N 0.4590(2) 0.6071(4) 0.89362(15)
N12_5 N 0.2667(2) 0.4413(4) 0.72737(13)
Zn1_3 Zn 0.43713(4) 0.35276(8) 0.43030(2)
Zn3_5 Zn 0.25908(4) 0.36641(7) 0.68848(2)
I6_5 I 0.17431(3) 0.36974(8) 0.67259(2)
N13_3 N 0.3766(2) 0.3893(4) 0.40700(13)
Zn4_3 Zn 0.06287(4) 0.64724(8) 0.93030(2)
Zn5_3 Zn 0.52197(4) 0.64271(7) 0.91306(3)
C3_6 C 0.0928(3) 0.4692(5) 0.01931(16)
C4_6 C 0.1024(4) 0.5632(6) 0.01740(19)
H3_6 H 0.1171 0.5937 0.0328
C6_6 C 0.1033(3) 0.4152(5) 0.04592(16)
C7_6 C 0.1020(3) 0.2749(5) 0.07128(16)
C8_6 C 0.1342(3) 0.4089(5) 0.09053(16)
C9_6 C 0.0868(3) 0.1751(6) 0.07412(17)
C10_6 C 0.0595(4) 0.1305(7) 0.0519(2)
H5_6 H 0.0520 0.1633 0.0350
C11_6 C 0.0448(4) 0.0395(6) 0.0562(2)
H6_6 H 0.0287 0.0093 0.0413
C12_6 C 0.0778(4) 0.0310(7) 0.1008(2)
C13_6 C 0.0953(4) 0.1224(6) 0.0985(2)
H8_6 H 0.1130 0.1481 0.1135
C14_6 C 0.1565(3) 0.4594(5) 0.11524(16)
C15_6 C 0.1778(3) 0.4084(6) 0.13759(19)
H9_6 H 0.1766 0.3419 0.1383
C16_6 C 0.2011(3) 0.4624(6) 0.15902(18)
H10_6 H 0.2172 0.4299 0.1735
C17_6 C 0.1784(4) 0.6030(6) 0.1384(2)
H11_6 H 0.1777 0.6695 0.1388
C18_6 C 0.1561(4) 0.5566(6) 0.11635(18)
H12_6 H 0.1407 0.5915 0.1021
C19_6 C 0.3345(3) 0.3816(6) 0.41873(18)
H13_6 H 0.3328 0.3648 0.4382
C20_6 C 0.2941(3) 0.3962(6) 0.40461(16)
H14_6 H 0.2657 0.3904 0.4141
C21_6 C 0.2960(2) 0.4202(5) 0.37526(14)
C22_6 C 0.3398(3) 0.4298(5) 0.36302(16)
H15_6 H 0.3428 0.4475 0.3437
C23_6 C 0.3785(3) 0.4133(6) 0.37930(16)
H16_6 H 0.4075 0.4192 0.3706
C24_6 C 0.2522(2) 0.4322(4) 0.35822(14)
C25_6 C 0.1749(3) 0.4351(4) 0.35438(15)
C26_6 C 0.2189(2) 0.4657(4) 0.31452(14)
C27_6 C 0.1285(3) 0.4228(5) 0.36790(16)
C28_6 C 0.1232(3) 0.4153(6) 0.39788(18)
H17_6 H 0.1491 0.4195 0.4100
C29_6 C 0.0804(3) 0.4017(6) 0.40931(19)
H18_6 H 0.0779 0.3981 0.4294
C30_6 C 0.0457(3) 0.4011(8) 0.3649(2)
H19_6 H 0.0192 0.3945 0.3535
C31_6 C 0.0873(3) 0.4188(8) 0.3513(2)
H20_6 H 0.0883 0.4281 0.3314
C32_6 C 0.2234(2) 0.4940(4) 0.28391(14)
C33_6 C 0.1846(3) 0.5265(7) 0.26825(17)
H21_6 H 0.1553 0.5287 0.2768
C34_6 C 0.1912(3) 0.5553(7) 0.23966(18)
H22_6 H 0.1653 0.5728 0.2287
C35_6 C 0.2690(3) 0.5277(5) 0.24202(16)
H23_6 H 0.2977 0.5259 0.2327
C36_6 C 0.2667(3) 0.4970(5) 0.27087(15)
H24_6 H 0.2935 0.4792 0.2809
I5_6 I 0.20125(3) 0.79568(5) 0.19529(2)
N2_6 N 0.0912(2) 0.3230(5) 0.04628(14)
N3_6 N 0.1236(2) 0.3153(4) 0.09351(13)
N4_6 N 0.1238(2) 0.4594(4) 0.06700(13)
N6_6 N 0.2011(2) 0.5568(4) 0.15945(14)
N8_6 N 0.2122(2) 0.4225(4) 0.37089(12)
N9_6 N 0.1757(2) 0.4567(4) 0.32585(12)
N10_6 N 0.2581(2) 0.4556(4) 0.32957(11)
N11_4 N 0.0410(2) 0.3929(4) 0.39362(15)
N12_6 N 0.2333(2) 0.5587(4) 0.22737(13)
Zn3_6 Zn 0.24092(4) 0.63359(7) 0.18848(2)
I6_6 I 0.32569(3) 0.63026(8) 0.17259(2)
C1_6 C 0.0610(4) 0.4809(7) 0.9711(2)
H1_6 H 0.0461 0.4518 0.9555
C2_6 C 0.0704(4) 0.4269(7) 0.99525(19)
H2_6 H 0.0620 0.3626 0.9958
C5_6 C 0.0904(4) 0.6172(7) 0.99219(19)
H4_6 H 0.0951 0.6831 0.9921
I2_6 I 0.07193(4) 0.82543(6) 0.94127(2)
N1_6 N 0.0726(3) 0.5749(5) 0.96881(14)
H7_6 H 0.0842 0.9957 0.1174
I3_6 I 0.06814(3) 0.76820(7) 0.12553(3)
I4_6 I 0.00464(3) 0.78595(6) 0.03703(2)
N5_6 N 0.0521(2) 0.9918(5) 0.08017(15)
Zn2_4 Zn 0.02197(4) 0.85729(7) 0.08694(3)
C3_7 C 0.5928(3) 0.0308(5) 0.98069(16)
C6_7 C 0.6033(3) 0.0848(5) 0.95408(16)
C7_7 C 0.6020(3) 0.2251(5) 0.92872(16)
C8_7 C 0.6342(3) 0.0911(5) 0.90947(16)
C9_7 C 0.5868(3) 0.3249(6) 0.92588(17)
C10_7 C 0.5595(4) 0.3695(7) 0.9481(2)
H5_7 H 0.5520 0.3367 0.9650
C11_7 C 0.5448(4) 0.4605(6) 0.9438(2)
H6_7 H 0.5287 0.4907 0.9587
C12_7 C 0.5778(4) 0.4690(7) 0.8992(2)
H7_7 H 0.5842 0.5043 0.8826
C13_7 C 0.5953(4) 0.3776(6) 0.9015(2)
H8_7 H 0.6130 0.3519 0.8865
C14_7 C 0.6565(3) 0.0406(5) 0.88476(16)
C15_7 C 0.6778(3) 0.0916(6) 0.86241(19)
H9_7 H 0.6766 0.1581 0.8617
C16_7 C 0.7011(3) 0.0376(6) 0.84098(18)
H10_7 H 0.7172 0.0701 0.8265
C19_7 C 0.8345(3) 0.1184(6) 0.58127(18)
H13_7 H 0.8328 0.1352 0.5618
C20_7 C 0.7941(3) 0.1038(6) 0.59539(16)
H14_7 H 0.7657 0.1096 0.5859
C21_7 C 0.7960(2) 0.0798(5) 0.62474(14)
C22_7 C 0.8398(3) 0.0702(5) 0.63698(16)
H15_7 H 0.8428 0.0525 0.6563
C23_7 C 0.8785(3) 0.0867(6) 0.62070(16)
H16_7 H 0.9075 0.0808 0.6294
C24_7 C 0.7522(2) 0.0678(4) 0.64178(14)
C25_7 C 0.6749(3) 0.0649(4) 0.64562(15)
C26_7 C 0.7189(2) 0.0343(4) 0.68548(14)
C27_7 C 0.6285(3) 0.0772(5) 0.63210(16)
C28_7 C 0.6232(3) 0.0847(6) 0.60212(18)
H17_7 H 0.6491 0.0805 0.5900
C29_7 C 0.5804(3) 0.0983(6) 0.59069(19)
H18_7 H 0.5779 0.1019 0.5706
C30_7 C 0.5457(3) 0.0989(8) 0.6351(2)
H19_7 H 0.5192 0.1055 0.6465
C31_7 C 0.5873(3) 0.0812(8) 0.6487(2)
H20_7 H 0.5883 0.0719 0.6686
C32_7 C 0.7234(2) 0.0060(4) 0.71609(14)
C36_7 C 0.7667(3) 0.0030(5) 0.72913(15)
H24_7 H 0.7935 0.0208 0.7191
I3_7 I 0.56814(3) 0.73180(7) 0.87447(3)
I4_7 I 0.50464(3) 0.71405(6) 0.96297(2)
N2_7 N 0.5912(2) 0.1770(5) 0.95372(14)
N3_7 N 0.6236(2) 0.1847(4) 0.90649(13)
N4_7 N 0.6238(2) 0.0406(4) 0.93300(13)
N5_7 N 0.5521(2) 0.5082(5) 0.91983(15)
N7_4 N 0.8766(2) 0.1107(4) 0.59300(13)
N8_7 N 0.7122(2) 0.0775(4) 0.62911(12)
N9_7 N 0.6757(2) 0.0433(4) 0.67415(12)
N10_7 N 0.7581(2) 0.0444(4) 0.67043(11)
Zn4_4 Zn 0.93713(4) 0.14724(8) 0.56970(2)
C4_7 C 0.8976(4) 0.0632(6) 0.48260(19)
H3_7 H 0.8829 0.0937 0.4672
C5_7 C 0.9096(4) 0.1172(7) 0.50781(19)
H4_7 H 0.9049 0.1831 0.5079
C17_7 C 0.8216(4) 0.1030(6) 0.3616(2)
H11_7 H 0.8223 0.1695 0.3612
C18_7 C 0.8439(4) 0.0566(6) 0.38365(18)
H12_7 H 0.8593 0.0915 0.3979
C33_7 C 0.8154(3) 0.0265(7) 0.23175(17)
H21_7 H 0.8447 0.0287 0.2232
C34_7 C 0.8088(3) 0.0553(7) 0.26034(18)
H22_7 H 0.8347 0.0728 0.2713
C35_7 C 0.7310(3) 0.0277(5) 0.25798(16)
H23_7 H 0.7023 0.0259 0.2673
I2_7 I 0.92807(4) 0.32543(6) 0.55873(2)
I5_7 I 0.79875(3) 0.29568(5) 0.30471(2)
N1_7 N 0.9274(3) 0.0749(5) 0.53119(14)
N6_7 N 0.7989(2) 0.0568(4) 0.34055(14)
N12_7 N 0.7667(2) 0.0587(4) 0.27263(13)
Zn3_7 Zn 0.75908(4) 0.13359(7) 0.31152(2)
I6_7 I 0.67431(3) 0.13026(8) 0.32741(2)
Zn5_4 Zn 0.97803(4) 0.35729(7) 0.41306(3)
N14_4 N 0.9590(2) 0.8929(4) 0.10638(15)
C5_8 C 0.5904(4) 0.8828(7) 0.00781(19)
H4_8 H 0.5951 0.8169 0.0079
I1_6 I 0.49631(2) 0.93310(8) 0.09684(2)
I2_8 I 0.57193(4) 0.67457(6) 0.05873(2)
N1_8 N 0.5726(3) 0.9251(5) 0.03119(14)
Zn1_4 Zn 0.56287(4) 0.85276(8) 0.06970(2)
N13_4 N 0.6234(2) 0.8893(4) 0.09300(13)
C1_7 C 0.9390(4) 0.9809(7) 0.5289(2)
H1_7 H 0.9539 0.9518 0.5445
C2_7 C 0.9296(4) 0.9269(7) 0.50475(19)
H2_7 H 0.9380 0.8626 0.5042
C3_8 C 0.9072(3) 0.9692(5) 0.48069(16)
C6_8 C 0.8967(3) 0.9152(5) 0.45408(16)
C7_8 C 0.8980(3) 0.7749(5) 0.42872(16)
C8_8 C 0.8658(3) 0.9089(5) 0.40947(16)
C9_8 C 0.9132(3) 0.6751(6) 0.42588(17)
C10_8 C 0.9405(4) 0.6305(7) 0.4481(2)
H5_8 H 0.9480 0.6633 0.4650
C11_8 C 0.9552(4) 0.5395(6) 0.4438(2)
H6_8 H 0.9713 0.5093 0.4587
C12_8 C 0.9222(4) 0.5310(7) 0.3992(2)
H7_8 H 0.9158 0.4957 0.3826
C13_8 C 0.9047(4) 0.6224(6) 0.4015(2)
H8_8 H 0.8870 0.6481 0.3865
C14_8 C 0.8435(3) 0.9594(5) 0.38476(16)
C15_8 C 0.8222(3) 0.9084(6) 0.36241(19)
H9_8 H 0.8234 0.8419 0.3617
C16_8 C 0.7989(3) 0.9624(6) 0.34098(18)
H10_8 H 0.7828 0.9299 0.3265
C19_8 C 0.6655(3) 0.8816(6) 0.08127(18)
H13_8 H 0.6672 0.8648 0.0618
C20_8 C 0.7059(3) 0.8962(6) 0.09539(16)
H14_8 H 0.7343 0.8904 0.0859
C21_8 C 0.7040(2) 0.9202(5) 0.12474(14)
C22_8 C 0.6602(3) 0.9298(5) 0.13698(16)
H15_8 H 0.6572 0.9475 0.1563
C23_8 C 0.6215(3) 0.9133(6) 0.12070(16)
H16_8 H 0.5925 0.9192 0.1294
C24_8 C 0.7478(2) 0.9322(4) 0.14178(14)
C25_8 C 0.8251(3) 0.9351(4) 0.14562(15)
C26_8 C 0.7811(2) 0.9657(4) 0.18548(14)
C27_8 C 0.8715(3) 0.9228(5) 0.13210(16)
C28_8 C 0.8768(3) 0.9153(6) 0.10212(18)
H17_8 H 0.8509 0.9195 0.0900
C29_8 C 0.9196(3) 0.9017(6) 0.09069(19)
H18_8 H 0.9221 0.8981 0.0706
C30_8 C 0.9543(3) 0.9011(8) 0.1351(2)
H19_8 H 0.9808 0.8945 0.1465
C31_8 C 0.9127(3) 0.9188(8) 0.1487(2)
H20_8 H 0.9117 0.9281 0.1686
C32_8 C 0.7766(2) 0.9940(4) 0.21609(14)
C36_8 C 0.7333(3) 0.9970(5) 0.22913(15)
H24_8 H 0.7065 0.9792 0.2191
I3_8 I 0.93186(3) 0.26820(7) 0.37447(3)
I4_8 I 0.99536(3) 0.28595(6) 0.46297(2)
N2_8 N 0.9088(2) 0.8230(5) 0.45372(14)
N3_8 N 0.8764(2) 0.8153(4) 0.40649(13)
N4_8 N 0.8762(2) 0.9594(4) 0.43300(13)
N5_8 N 0.9479(2) 0.4918(5) 0.41983(15)
N8_8 N 0.7878(2) 0.9225(4) 0.12911(12)
N9_8 N 0.8243(2) 0.9567(4) 0.17415(12)
N10_8 N 0.7419(2) 0.9556(4) 0.17043(11)
I1_7 I 0.99631(2) 0.56690(8) 0.90316(2)
C1_8 C 0.5610(4) 0.0191(7) 0.0289(2)
H1_8 H 0.5461 0.0482 0.0445
C2_8 C 0.5704(4) 0.0731(7) 0.00475(19)
H2_8 H 0.5620 0.1374 0.0042
C4_8 C 0.6024(4) 0.9368(6) 0.98260(19)
H3_8 H 0.6171 0.9063 0.9672
C17_8 C 0.6784(4) 0.8970(6) 0.8616(2)
H11_8 H 0.6777 0.8305 0.8612
C18_8 C 0.6561(4) 0.9434(6) 0.88365(18)
H12_8 H 0.6407 0.9085 0.8979
C33_8 C 0.6846(3) 0.9735(7) 0.73175(17)
H21_8 H 0.6553 0.9713 0.7232
C34_8 C 0.6912(3) 0.9447(7) 0.76034(18)
H22_8 H 0.6653 0.9272 0.7713
C35_8 C 0.7690(3) 0.9723(5) 0.75798(16)
H23_8 H 0.7977 0.9741 0.7673
I5_8 I 0.70125(3) 0.70432(5) 0.80471(2)
N6_8 N 0.7011(2) 0.9432(4) 0.84055(14)
N12_8 N 0.7333(2) 0.9413(4) 0.77263(13)
Zn3_8 Zn 0.74092(4) 0.86641(7) 0.81152(2)
I6_8 I 0.82569(3) 0.86974(8) 0.82741(2)
I1_8 I 0.00369(2) 0.06690(8) 0.59684(2)
loop_
_geom_bond_atom_site_label_1
_geom_bond_atom_site_label_2
_geom_bond_site_symmetry_1
_geom_bond_site_symmetry_2
C1 H1 1_555 1_555
C2 C1 1_555 1_555
H2 C2 1_555 1_555
C3 C2 1_555 1_555
C4 C3 1_555 1_555
H3 C4 1_555 1_555
C5 C4 1_555 1_555
H4 C5 1_555 1_555
C6 C3 1_555 1_555
C7 C9 1_555 1_555
C8 C14 1_555 1_555
C9 C10 1_555 1_555
C10 H5 1_555 1_555
C11 C10 1_555 1_555
H6 C11 1_555 1_555
C13 C9 1_555 1_555
H8 C13 1_555 1_555
C14 C15 1_555 1_555
C15 H9 1_555 1_555
C16 C15 1_555 1_555
H10 C16 1_555 1_555
C17 H11 1_555 1_555
C18 C14 1_555 1_555
H12 C18 1_555 1_555
C19 H13 1_555 1_555
C20 C19 1_555 1_555
H14 C20 1_555 1_555
C21 C20 1_555 1_555
C22 C21 1_555 1_555
H15 C22 1_555 1_555
C23 C22 1_555 1_555
H16 C23 1_555 1_555
C24 C21 1_555 1_555
C25 C27 1_555 1_555
C26 C32 1_555 1_555
C27 C28 1_555 1_555
C28 H17 1_555 1_555
C29 C28 1_555 1_555
H18 C29 1_555 1_555
C30 H19 1_555 1_555
C31 C27 1_555 1_555
H20 C31 1_555 1_555
C32 C33 1_555 1_555
C33 H21 1_555 1_555
C34 C33 1_555 1_555
H22 C34 1_555 1_555
C35 H23 1_555 1_555
C36 C32 1_555 1_555
H24 C36 1_555 1_555
I1 Zn1 1_555 1_555
I2 Zn1 1_555 1_555
I5 Zn3 1_555 1_555
N1 C1 1_555 1_555
N2 C6 1_555 1_555
N3 C7 1_555 1_555
N4 C6 1_555 1_555
N6 C16 1_555 1_555
N7 C19 1_555 1_555
N8 C24 1_555 1_555
N9 C25 1_555 1_555
N10 C24 1_555 1_555
N11 C29 1_555 1_555
N12 C34 1_555 1_555
Zn1 N1 1_555 1_555
Zn3 N6 1_555 1_555
I6 Zn3 1_555 1_555
N13 Zn1 1_555 1_555
Zn4 N7 1_555 1_555
Zn5 N11 1_555 1_555
C5 N1 1_555 1_555
C7 N2 1_555 1_555
C8 N3 1_555 1_555
C8 N4 1_555 1_555
C12 C13 1_555 1_555
C17 C18 1_555 1_555
C17 N6 1_555 1_555
C23 N7 1_555 1_555
C25 N8 1_555 1_555
C26 N9 1_555 1_555
C26 N10 1_555 1_555
C30 C31 1_555 1_555
C30 N11 1_555 1_555
C35 C36 1_555 1_555
C35 N12 1_555 1_555
N12 Zn3 1_555 1_555
I3 Zn2 1_555 1_555
I4 Zn2 1_555 1_555
Zn2 N5 1_555 1_555
N14 Zn2 1_555 1_555
I3_2 Zn2_2 1_555 1_555
I4_2 Zn2_2 1_555 1_555
Zn2_2 N5_2 1_555 1_555
C1_2 H1_2 1_555 1_555
C2_2 C1_2 1_555 1_555
H2_2 C2_2 1_555 1_555
H4_2 C5_2 1_555 1_555
I2_2 Zn4 1_555 1_555
N1_2 C1_2 1_555 1_555
Zn4 N1_2 1_555 1_555
C5_2 N1_2 1_555 1_555
C4_2 C3_2 1_555 1_555
H3_2 C4_2 1_555 1_555
C6_2 C3_2 1_555 1_555
C7_2 C9_2 1_555 1_555
C8_2 C14_2 1_555 1_555
C9_2 C10_2 1_555 1_555
C10_2 H5_2 1_555 1_555
C11_2 C10_2 1_555 1_555
H6_2 C11_2 1_555 1_555
C13_2 C9_2 1_555 1_555
H8_2 C13_2 1_555 1_555
C14_2 C15_2 1_555 1_555
C15_2 H9_2 1_555 1_555
C16_2 C15_2 1_555 1_555
H10_2 C16_2 1_555 1_555
C17_2 H11_2 1_555 1_555
C18_2 C14_2 1_555 1_555
H12_2 C18_2 1_555 1_555
C19_2 H13_2 1_555 1_555
C20_2 C19_2 1_555 1_555
H14_2 C20_2 1_555 1_555
C21_2 C20_2 1_555 1_555
C22_2 C21_2 1_555 1_555
H15_2 C22_2 1_555 1_555
C23_2 C22_2 1_555 1_555
H16_2 C23_2 1_555 1_555
C24_2 C21_2 1_555 1_555
C25_2 C27_2 1_555 1_555
C26_2 C32_2 1_555 1_555
C27_2 C28_2 1_555 1_555
C28_2 H17_2 1_555 1_555
C29_2 C28_2 1_555 1_555
H18_2 C29_2 1_555 1_555
C30_2 H19_2 1_555 1_555
C31_2 C27_2 1_555 1_555
H20_2 C31_2 1_555 1_555
C32_2 C33_2 1_555 1_555
C33_2 H21_2 1_555 1_555
C34_2 C33_2 1_555 1_555
H22_2 C34_2 1_555 1_555
C35_2 H23_2 1_555 1_555
C36_2 C32_2 1_555 1_555
H24_2 C36_2 1_555 1_555
I5_2 Zn3_2 1_555 1_555
N2_2 C6_2 1_555 1_555
N3_2 C7_2 1_555 1_555
N4_2 C6_2 1_555 1_555
N6_2 C16_2 1_555 1_555
N13 C19_2 1_555 1_555
N8_2 C24_2 1_555 1_555
N9_2 C25_2 1_555 1_555
N10_2 C24_2 1_555 1_555
N11_2 C29_2 1_555 1_555
N12_2 C34_2 1_555 1_555
Zn3_2 N6_2 1_555 1_555
I6_2 Zn3_2 1_555 1_555
C7_2 N2_2 1_555 1_555
C8_2 N3_2 1_555 1_555
C8_2 N4_2 1_555 1_555
C12_2 C13_2 1_555 1_555
C17_2 C18_2 1_555 1_555
C17_2 N6_2 1_555 1_555
C23_2 N13 1_555 1_555
C25_2 N8_2 1_555 1_555
C26_2 N9_2 1_555 1_555
C26_2 N10_2 1_555 1_555
C30_2 C31_2 1_555 1_555
C30_2 N11_2 1_555 1_555
C35_2 C36_2 1_555 1_555
C35_2 N12_2 1_555 1_555
N12_2 Zn3_2 1_555 1_555
C6_3 C3_3 1_555 1_555
C7_3 C9_3 1_555 1_555
C8_3 C14_3 1_555 1_555
C9_3 C10_3 1_555 1_555
C10_3 H5_3 1_555 1_555
C11_3 C10_3 1_555 1_555
H6_3 C11_3 1_555 1_555
C12_3 H7_3 1_555 1_555
C13_3 C9_3 1_555 1_555
H8_3 C13_3 1_555 1_555
C14_3 C15_3 1_555 1_555
C15_3 H9_3 1_555 1_555
C16_3 C15_3 1_555 1_555
H10_3 C16_3 1_555 1_555
C19_3 H13_3 1_555 1_555
C20_3 C19_3 1_555 1_555
H14_3 C20_3 1_555 1_555
C21_3 C20_3 1_555 1_555
C22_3 C21_3 1_555 1_555
H15_3 C22_3 1_555 1_555
C23_3 C22_3 1_555 1_555
H16_3 C23_3 1_555 1_555
C24_3 C21_3 1_555 1_555
C25_3 C27_3 1_555 1_555
C26_3 C32_3 1_555 1_555
C27_3 C28_3 1_555 1_555
C28_3 H17_3 1_555 1_555
C29_3 C28_3 1_555 1_555
H18_3 C29_3 1_555 1_555
C30_3 H19_3 1_555 1_555
C31_3 C27_3 1_555 1_555
H20_3 C31_3 1_555 1_555
C36_3 C32_3 1_555 1_555
H24_3 C36_3 1_555 1_555
I3_3 Zn5 1_555 1_555
I4_3 Zn5 1_555 1_555
N2_3 C6_3 1_555 1_555
N3_3 C7_3 1_555 1_555
N4_3 C6_3 1_555 1_555
N5_3 C11_3 1_555 1_555
N7_2 C19_3 1_555 1_555
N8_3 C24_3 1_555 1_555
N9_3 C25_3 1_555 1_555
N10_3 C24_3 1_555 1_555
N14 C29_3 1_555 1_555
Zn5 N5_3 1_555 1_555
Zn4_2 N7_2 1_555 1_555
C7_3 N2_3 1_555 1_555
C8_3 N3_3 1_555 1_555
C8_3 N4_3 1_555 1_555
C12_3 C13_3 1_555 1_555
C12_3 N5_3 1_555 1_555
C23_3 N7_2 1_555 1_555
C25_3 N8_3 1_555 1_555
C26_3 N9_3 1_555 1_555
C26_3 N10_3 1_555 1_555
C30_3 C31_3 1_555 1_555
C30_3 N14 1_555 1_555
H3_3 C4_3 1_555 1_555
C5_3 C4_3 1_555 1_555
H4_3 C5_3 1_555 1_555
C17_3 H11_3 1_555 1_555
H12_3 C18_3 1_555 1_555
C33_3 H21_3 1_555 1_555
C34_3 C33_3 1_555 1_555
H22_3 C34_3 1_555 1_555
C35_3 H23_3 1_555 1_555
I2_3 Zn4_2 1_555 1_555
I5_3 Zn3_3 1_555 1_555
N12_3 C34_3 1_555 1_555
Zn4_2 N1_3 1_555 1_555
Zn3_3 N6_3 1_555 1_555
I6_3 Zn3_3 1_555 1_555
C5_3 N1_3 1_555 1_555
C17_3 C18_3 1_555 1_555
C17_3 N6_3 1_555 1_555
C35_3 N12_3 1_555 1_555
N12_3 Zn3_3 1_555 1_555
H4_4 C5_4 1_555 1_555
I1_2 Zn1_2 1_555 1_555
I2_4 Zn1_2 1_555 1_555
Zn1_2 N1_4 1_555 1_555
N13_2 Zn1_2 1_555 1_555
C5_4 N1_4 1_555 1_555
C1_3 H1_3 1_555 1_555
C2_3 C1_3 1_555 1_555
H2_3 C2_3 1_555 1_555
C3_4 C2_3 1_555 1_555
C6_4 C3_4 1_555 1_555
C7_4 C9_4 1_555 1_555
C8_4 C14_4 1_555 1_555
C9_4 C10_4 1_555 1_555
C10_4 H5_4 1_555 1_555
C11_4 C10_4 1_555 1_555
H6_4 C11_4 1_555 1_555
C12_4 H7_4 1_555 1_555
C13_4 C9_4 1_555 1_555
H8_4 C13_4 1_555 1_555
C14_4 C15_4 1_555 1_555
C15_4 H9_4 1_555 1_555
C16_4 C15_4 1_555 1_555
H10_4 C16_4 1_555 1_555
C19_4 H13_4 1_555 1_555
C20_4 C19_4 1_555 1_555
H14_4 C20_4 1_555 1_555
C21_4 C20_4 1_555 1_555
C22_4 C21_4 1_555 1_555
H15_4 C22_4 1_555 1_555
C23_4 C22_4 1_555 1_555
H16_4 C23_4 1_555 1_555
C24_4 C21_4 1_555 1_555
C25_4 C27_4 1_555 1_555
C26_4 C32_4 1_555 1_555
C27_4 C28_4 1_555 1_555
C28_4 H17_4 1_555 1_555
C29_4 C28_4 1_555 1_555
H18_4 C29_4 1_555 1_555
C30_4 H19_4 1_555 1_555
C31_4 C27_4 1_555 1_555
H20_4 C31_4 1_555 1_555
C36_4 C32_4 1_555 1_555
H24_4 C36_4 1_555 1_555
I3_4 Zn5_2 1_555 1_555
I4_4 Zn5_2 1_555 1_555
N2_4 C6_4 1_555 1_555
N3_4 C7_4 1_555 1_555
N4_4 C6_4 1_555 1_555
N5_4 C11_4 1_555 1_555
N13_2 C19_4 1_555 1_555
N8_4 C24_4 1_555 1_555
N9_4 C25_4 1_555 1_555
N10_4 C24_4 1_555 1_555
N14_2 C29_4 1_555 1_555
Zn5_2 N5_4 1_555 1_555
C7_4 N2_4 1_555 1_555
C8_4 N3_4 1_555 1_555
C8_4 N4_4 1_555 1_555
C12_4 C13_4 1_555 1_555
C12_4 N5_4 1_555 1_555
C23_4 N13_2 1_555 1_555
C25_4 N8_4 1_555 1_555
C26_4 N9_4 1_555 1_555
C26_4 N10_4 1_555 1_555
C30_4 C31_4 1_555 1_555
C30_4 N14_2 1_555 1_555
H3_4 C4_4 1_555 1_555
C17_4 H11_4 1_555 1_555
H12_4 C18_4 1_555 1_555
C33_4 H21_4 1_555 1_555
C34_4 C33_4 1_555 1_555
H22_4 C34_4 1_555 1_555
C35_4 H23_4 1_555 1_555
I5_4 Zn3_4 1_555 1_555
N12_4 C34_4 1_555 1_555
Zn3_4 N6_4 1_555 1_555
I6_4 Zn3_4 1_555 1_555
C17_4 C18_4 1_555 1_555
C17_4 N6_4 1_555 1_555
C35_4 N12_4 1_555 1_555
N12_4 Zn3_4 1_555 1_555
C1_4 H1_4 1_555 1_555
C2_4 C1_4 1_555 1_555
H2_4 C2_4 1_555 1_555
I3_5 Zn2_3 1_555 1_555
I4_5 Zn2_3 1_555 1_555
Zn2_3 N5_5 1_555 1_555
N14_3 Zn2_3 1_555 1_555
C1_5 H1_5 1_555 1_555
C2_5 C1_5 1_555 1_555
H2_5 C2_5 1_555 1_555
C3_5 C2_5 1_555 1_555
C4_5 C3_5 1_555 1_555
H3_5 C4_5 1_555 1_555
C5_5 C4_5 1_555 1_555
H4_5 C5_5 1_555 1_555
C6_5 C3_5 1_555 1_555
C7_5 C9_5 1_555 1_555
C8_5 C14_5 1_555 1_555
C9_5 C10_5 1_555 1_555
C10_5 H5_5 1_555 1_555
C11_5 C10_5 1_555 1_555
H6_5 C11_5 1_555 1_555
C13_5 C9_5 1_555 1_555
H8_5 C13_5 1_555 1_555
C14_5 C15_5 1_555 1_555
C15_5 H9_5 1_555 1_555
C16_5 C15_5 1_555 1_555
H10_5 C16_5 1_555 1_555
C17_5 H11_5 1_555 1_555
C18_5 C14_5 1_555 1_555
H12_5 C18_5 1_555 1_555
C19_5 H13_5 1_555 1_555
C20_5 C19_5 1_555 1_555
H14_5 C20_5 1_555 1_555
C21_5 C20_5 1_555 1_555
C22_5 C21_5 1_555 1_555
H15_5 C22_5 1_555 1_555
C23_5 C22_5 1_555 1_555
H16_5 C23_5 1_555 1_555
C24_5 C21_5 1_555 1_555
C25_5 C27_5 1_555 1_555
C26_5 C32_5 1_555 1_555
C27_5 C28_5 1_555 1_555
C28_5 H17_5 1_555 1_555
C29_5 C28_5 1_555 1_555
H18_5 C29_5 1_555 1_555
C30_5 H19_5 1_555 1_555
C31_5 C27_5 1_555 1_555
H20_5 C31_5 1_555 1_555
C32_5 C33_5 1_555 1_555
C33_5 H21_5 1_555 1_555
C34_5 C33_5 1_555 1_555
H22_5 C34_5 1_555 1_555
C35_5 H23_5 1_555 1_555
C36_5 C32_5 1_555 1_555
H24_5 C36_5 1_555 1_555
I1_5 Zn1_3 1_555 1_555
I2_5 Zn1_3 1_555 1_555
I5_5 Zn3_5 1_555 1_555
N1_5 C1_5 1_555 1_555
N2_5 C6_5 1_555 1_555
N3_5 C7_5 1_555 1_555
N4_5 C6_5 1_555 1_555
N6_5 C16_5 1_555 1_555
N7_3 C19_5 1_555 1_555
N8_5 C24_5 1_555 1_555
N9_5 C25_5 1_555 1_555
N10_5 C24_5 1_555 1_555
N11_3 C29_5 1_555 1_555
N12_5 C34_5 1_555 1_555
Zn1_3 N1_5 1_555 1_555
Zn3_5 N6_5 1_555 1_555
I6_5 Zn3_5 1_555 1_555
N13_3 Zn1_3 1_555 1_555
Zn4_3 N7_3 1_555 1_555
Zn5_3 N11_3 1_555 1_555
C5_5 N1_5 1_555 1_555
C7_5 N2_5 1_555 1_555
C8_5 N3_5 1_555 1_555
C8_5 N4_5 1_555 1_555
C12_5 C13_5 1_555 1_555
C17_5 C18_5 1_555 1_555
C17_5 N6_5 1_555 1_555
C23_5 N7_3 1_555 1_555
C25_5 N8_5 1_555 1_555
C26_5 N9_5 1_555 1_555
C26_5 N10_5 1_555 1_555
C30_5 C31_5 1_555 1_555
C30_5 N11_3 1_555 1_555
C35_5 C36_5 1_555 1_555
C35_5 N12_5 1_555 1_555
N12_5 Zn3_5 1_555 1_555
C4_6 C3_6 1_555 1_555
H3_6 C4_6 1_555 1_555
C6_6 C3_6 1_555 1_555
C7_6 C9_6 1_555 1_555
C8_6 C14_6 1_555 1_555
C9_6 C10_6 1_555 1_555
C10_6 H5_6 1_555 1_555
C11_6 C10_6 1_555 1_555
H6_6 C11_6 1_555 1_555
C13_6 C9_6 1_555 1_555
H8_6 C13_6 1_555 1_555
C14_6 C15_6 1_555 1_555
C15_6 H9_6 1_555 1_555
C16_6 C15_6 1_555 1_555
H10_6 C16_6 1_555 1_555
C17_6 H11_6 1_555 1_555
C18_6 C14_6 1_555 1_555
H12_6 C18_6 1_555 1_555
C19_6 H13_6 1_555 1_555
C20_6 C19_6 1_555 1_555
H14_6 C20_6 1_555 1_555
C21_6 C20_6 1_555 1_555
C22_6 C21_6 1_555 1_555
H15_6 C22_6 1_555 1_555
C23_6 C22_6 1_555 1_555
H16_6 C23_6 1_555 1_555
C24_6 C21_6 1_555 1_555
C25_6 C27_6 1_555 1_555
C26_6 C32_6 1_555 1_555
C27_6 C28_6 1_555 1_555
C28_6 H17_6 1_555 1_555
C29_6 C28_6 1_555 1_555
H18_6 C29_6 1_555 1_555
C30_6 H19_6 1_555 1_555
C31_6 C27_6 1_555 1_555
H20_6 C31_6 1_555 1_555
C32_6 C33_6 1_555 1_555
C33_6 H21_6 1_555 1_555
C34_6 C33_6 1_555 1_555
H22_6 C34_6 1_555 1_555
C35_6 H23_6 1_555 1_555
C36_6 C32_6 1_555 1_555
H24_6 C36_6 1_555 1_555
I5_6 Zn3_6 1_555 1_555
N2_6 C6_6 1_555 1_555
N3_6 C7_6 1_555 1_555
N4_6 C6_6 1_555 1_555
N6_6 C16_6 1_555 1_555
N13_3 C19_6 1_555 1_555
N8_6 C24_6 1_555 1_555
N9_6 C25_6 1_555 1_555
N10_6 C24_6 1_555 1_555
N11_4 C29_6 1_555 1_555
N12_6 C34_6 1_555 1_555
Zn3_6 N6_6 1_555 1_555
I6_6 Zn3_6 1_555 1_555
C7_6 N2_6 1_555 1_555
C8_6 N3_6 1_555 1_555
C8_6 N4_6 1_555 1_555
C12_6 C13_6 1_555 1_555
C17_6 C18_6 1_555 1_555
C17_6 N6_6 1_555 1_555
C23_6 N13_3 1_555 1_555
C25_6 N8_6 1_555 1_555
C26_6 N9_6 1_555 1_555
C26_6 N10_6 1_555 1_555
C30_6 C31_6 1_555 1_555
C30_6 N11_4 1_555 1_555
C35_6 C36_6 1_555 1_555
C35_6 N12_6 1_555 1_555
N12_6 Zn3_6 1_555 1_555
C1_6 H1_6 1_555 1_555
C2_6 C1_6 1_555 1_555
H2_6 C2_6 1_555 1_555
H4_6 C5_6 1_555 1_555
I2_6 Zn4_3 1_555 1_555
N1_6 C1_6 1_555 1_555
Zn4_3 N1_6 1_555 1_555
C5_6 N1_6 1_555 1_555
I3_6 Zn2_4 1_555 1_555
I4_6 Zn2_4 1_555 1_555
Zn2_4 N5_6 1_555 1_555
C6_7 C3_7 1_555 1_555
C7_7 C9_7 1_555 1_555
C8_7 C14_7 1_555 1_555
C9_7 C10_7 1_555 1_555
C10_7 H5_7 1_555 1_555
C11_7 C10_7 1_555 1_555
H6_7 C11_7 1_555 1_555
C12_7 H7_7 1_555 1_555
C13_7 C9_7 1_555 1_555
H8_7 C13_7 1_555 1_555
C14_7 C15_7 1_555 1_555
C15_7 H9_7 1_555 1_555
C16_7 C15_7 1_555 1_555
H10_7 C16_7 1_555 1_555
C19_7 H13_7 1_555 1_555
C20_7 C19_7 1_555 1_555
H14_7 C20_7 1_555 1_555
C21_7 C20_7 1_555 1_555
C22_7 C21_7 1_555 1_555
H15_7 C22_7 1_555 1_555
C23_7 C22_7 1_555 1_555
H16_7 C23_7 1_555 1_555
C24_7 C21_7 1_555 1_555
C25_7 C27_7 1_555 1_555
C26_7 C32_7 1_555 1_555
C27_7 C28_7 1_555 1_555
C28_7 H17_7 1_555 1_555
C29_7 C28_7 1_555 1_555
H18_7 C29_7 1_555 1_555
C30_7 H19_7 1_555 1_555
C31_7 C27_7 1_555 1_555
H20_7 C31_7 1_555 1_555
C36_7 C32_7 1_555 1_555
H24_7 C36_7 1_555 1_555
I3_7 Zn5_3 1_555 1_555
I4_7 Zn5_3 1_555 1_555
N2_7 C6_7 1_555 1_555
N3_7 C7_7 1_555 1_555
N4_7 C6_7 1_555 1_555
N5_7 C11_7 1_555 1_555
N7_4 C19_7 1_555 1_555
N8_7 C24_7 1_555 1_555
N9_7 C25_7 1_555 1_555
N10_7 C24_7 1_555 1_555
N14_3 C29_7 1_555 1_555
Zn5_3 N5_7 1_555 1_555
Zn4_4 N7_4 1_555 1_555
C7_7 N2_7 1_555 1_555
C8_7 N3_7 1_555 1_555
C8_7 N4_7 1_555 1_555
C12_7 C13_7 1_555 1_555
C12_7 N5_7 1_555 1_555
C23_7 N7_4 1_555 1_555
C25_7 N8_7 1_555 1_555
C26_7 N9_7 1_555 1_555
C26_7 N10_7 1_555 1_555
C30_7 C31_7 1_555 1_555
C30_7 N14_3 1_555 1_555
H3_7 C4_7 1_555 1_555
C5_7 C4_7 1_555 1_555
H4_7 C5_7 1_555 1_555
C17_7 H11_7 1_555 1_555
H12_7 C18_7 1_555 1_555
C33_7 H21_7 1_555 1_555
C34_7 C33_7 1_555 1_555
H22_7 C34_7 1_555 1_555
C35_7 H23_7 1_555 1_555
I2_7 Zn4_4 1_555 1_555
I5_7 Zn3_7 1_555 1_555
N12_7 C34_7 1_555 1_555
Zn4_4 N1_7 1_555 1_555
Zn3_7 N6_7 1_555 1_555
I6_7 Zn3_7 1_555 1_555
C5_7 N1_7 1_555 1_555
C17_7 C18_7 1_555 1_555
C17_7 N6_7 1_555 1_555
C35_7 N12_7 1_555 1_555
N12_7 Zn3_7 1_555 1_555
H4_8 C5_8 1_555 1_555
I1_6 Zn1_4 1_555 1_555
I2_8 Zn1_4 1_555 1_555
Zn1_4 N1_8 1_555 1_555
N13_4 Zn1_4 1_555 1_555
C5_8 N1_8 1_555 1_555
C1_7 H1_7 1_555 1_555
C2_7 C1_7 1_555 1_555
H2_7 C2_7 1_555 1_555
C3_8 C2_7 1_555 1_555
C6_8 C3_8 1_555 1_555
C7_8 C9_8 1_555 1_555
C8_8 C14_8 1_555 1_555
C9_8 C10_8 1_555 1_555
C10_8 H5_8 1_555 1_555
C11_8 C10_8 1_555 1_555
H6_8 C11_8 1_555 1_555
C12_8 H7_8 1_555 1_555
C13_8 C9_8 1_555 1_555
H8_8 C13_8 1_555 1_555
C14_8 C15_8 1_555 1_555
C15_8 H9_8 1_555 1_555
C16_8 C15_8 1_555 1_555
H10_8 C16_8 1_555 1_555
C19_8 H13_8 1_555 1_555
C20_8 C19_8 1_555 1_555
H14_8 C20_8 1_555 1_555
C21_8 C20_8 1_555 1_555
C22_8 C21_8 1_555 1_555
H15_8 C22_8 1_555 1_555
C23_8 C22_8 1_555 1_555
H16_8 C23_8 1_555 1_555
C24_8 C21_8 1_555 1_555
C25_8 C27_8 1_555 1_555
C26_8 C32_8 1_555 1_555
C27_8 C28_8 1_555 1_555
C28_8 H17_8 1_555 1_555
C29_8 C28_8 1_555 1_555
H18_8 C29_8 1_555 1_555
C30_8 H19_8 1_555 1_555
C31_8 C27_8 1_555 1_555
H20_8 C31_8 1_555 1_555
C36_8 C32_8 1_555 1_555
H24_8 C36_8 1_555 1_555
I3_8 Zn5_4 1_555 1_555
I4_8 Zn5_4 1_555 1_555
N2_8 C6_8 1_555 1_555
N3_8 C7_8 1_555 1_555
N4_8 C6_8 1_555 1_555
N5_8 C11_8 1_555 1_555
N13_4 C19_8 1_555 1_555
N8_8 C24_8 1_555 1_555
N9_8 C25_8 1_555 1_555
N10_8 C24_8 1_555 1_555
N14_4 C29_8 1_555 1_555
Zn5_4 N5_8 1_555 1_555
C7_8 N2_8 1_555 1_555
C8_8 N3_8 1_555 1_555
C8_8 N4_8 1_555 1_555
C12_8 C13_8 1_555 1_555
C12_8 N5_8 1_555 1_555
C23_8 N13_4 1_555 1_555
C25_8 N8_8 1_555 1_555
C26_8 N9_8 1_555 1_555
C26_8 N10_8 1_555 1_555
C30_8 C31_8 1_555 1_555
C30_8 N14_4 1_555 1_555
C1_8 H1_8 1_555 1_555
C2_8 C1_8 1_555 1_555
H2_8 C2_8 1_555 1_555
H3_8 C4_8 1_555 1_555
C17_8 H11_8 1_555 1_555
H12_8 C18_8 1_555 1_555
C33_8 H21_8 1_555 1_555
C34_8 C33_8 1_555 1_555
H22_8 C34_8 1_555 1_555
C35_8 H23_8 1_555 1_555
I5_8 Zn3_8 1_555 1_555
N12_8 C34_8 1_555 1_555
Zn3_8 N6_8 1_555 1_555
I6_8 Zn3_8 1_555 1_555
C17_8 C18_8 1_555 1_555
C17_8 N6_8 1_555 1_555
C35_8 N12_8 1_555 1_555
N12_8 Zn3_8 1_555 1_555

#END
