
###############################################################################
#
# This file contains modified crystal structure data generated from the
# MOF subset of the Cambridge Structural Database (CSD) v543 
# hosted by the Cambridge Crystallographic Data Centre (CCDC).
#
# This work is licensed under the Creative Commons
# Attribution-NonCommercial-ShareAlike 4.0 International License.
# To view a copy of this license, visit
# http://creativecommons.org/licenses/by-nc-sa/4.0/
# or send a letter to
# Creative Commons, PO Box 1866, Mountain View, CA 94042, USA.
#
# CIF created using the CSD Python API on 29 September 2022
# The structure has been converted into the P1 space group
# The structure has a 3D framework
# The original CSD entry KEVXER is in the orthorhombic crystal system
# The framework has been calculated to contain at least 10.0% void space
# The void calculation uses a probe of radius 1.32A, grid spacing 0.4
#
###############################################################################

data_KEVXER
_chemical_formula_moiety         '(C288 H192 I48 N96 Zn24)n'
_symmetry_cell_setting           triclinic
_symmetry_space_group_name_H-M   'P 1'
_symmetry_Int_Tables_number      1
_space_group_name_Hall           'P 1'
loop_
_symmetry_equiv_pos_site_id
_symmetry_equiv_pos_as_xyz
1 x,y,z
_cell_length_a                   28.557(2)
_cell_length_b                   13.9501(6)
_cell_length_c                   45.919(3)
_cell_angle_alpha                90
_cell_angle_beta                 90
_cell_angle_gamma                90
_cell_volume                     18292.9
loop_
_atom_site_label
_atom_site_type_symbol
_atom_site_fract_x
_atom_site_fract_y
_atom_site_fract_z
C1 C 0.5609(5) 0.4792(9) 0.5289(3)
H1 H 0.5458 0.4495 0.5444
C2 C 0.5709(4) 0.4266(8) 0.5049(2)
H2 H 0.5631 0.3619 0.5043
C3 C 0.5929(4) 0.4686(7) 0.4809(2)
C4 C 0.6017(5) 0.5637(8) 0.4819(3)
H3 H 0.6158 0.5940 0.4661
C5 C 0.5890(5) 0.6185(8) 0.5077(2)
H4 H 0.5928 0.6848 0.5077
C6 C 0.6027(3) 0.4154(6) 0.4540(2)
C7 C 0.6021(3) 0.2750(7) 0.4290(2)
C8 C 0.6330(4) 0.4091(6) 0.4089(2)
C9 C 0.5860(4) 0.1770(7) 0.4256(2)
C10 C 0.5594(5) 0.1306(8) 0.4484(3)
H5 H 0.5525 0.1630 0.4655
C11 C 0.5446(5) 0.0396(8) 0.4444(3)
H6 H 0.5288 0.0092 0.4595
C12 C 0.5778(5) 0.0313(8) 0.3989(3)
C13 C 0.5945(5) 0.1221(8) 0.4011(3)
H8 H 0.6120 0.1478 0.3859
C14 C 0.6556(4) 0.4582(6) 0.3845(2)
C15 C 0.6780(5) 0.4086(8) 0.3626(3)
H9 H 0.6774 0.3419 0.3622
C16 C 0.7014(4) 0.4600(7) 0.3409(2)
H10 H 0.7183 0.4274 0.3268
C17 C 0.6771(5) 0.6025(7) 0.3607(3)
H11 H 0.6756 0.6690 0.3598
C18 C 0.6556(5) 0.5569(7) 0.3833(2)
H12 H 0.6409 0.5922 0.3978
C19 C 0.8344(4) 0.3822(7) 0.0814(2)
H13 H 0.8326 0.3641 0.0620
C20 C 0.7945(4) 0.3966(7) 0.0952(2)
H14 H 0.7660 0.3908 0.0855
C21 C 0.7964(3) 0.4208(6) 0.12442(19)
C22 C 0.8400(3) 0.4292(6) 0.1370(2)
H15 H 0.8432 0.4448 0.1566
C23 C 0.8773(4) 0.4144(7) 0.1202(2)
H16 H 0.9066 0.4214 0.1288
C24 C 0.7514(3) 0.4330(5) 0.14186(18)
C25 C 0.6750(3) 0.4356(6) 0.1454(2)
C26 C 0.7192(3) 0.4666(5) 0.18519(18)
C27 C 0.6280(3) 0.4232(6) 0.1321(2)
C28 C 0.6224(4) 0.4158(8) 0.1022(2)
H17 H 0.6484 0.4197 0.0901
C29 C 0.5803(4) 0.4030(8) 0.0909(3)
H18 H 0.5776 0.4010 0.0707
C30 C 0.5458(4) 0.4010(9) 0.1349(3)
H19 H 0.5192 0.3942 0.1463
C31 C 0.5875(4) 0.4191(10) 0.1484(3)
H20 H 0.5885 0.4285 0.1684
C32 C 0.7228(3) 0.4948(6) 0.21567(19)
C33 C 0.6847(4) 0.5265(8) 0.2317(2)
H21 H 0.6551 0.5286 0.2234
C34 C 0.6912(4) 0.5550(8) 0.2601(2)
H22 H 0.6651 0.5724 0.2709
C35 C 0.7694(4) 0.5268(7) 0.2577(2)
H23 H 0.7985 0.5237 0.2668
C36 C 0.7656(4) 0.4974(7) 0.2288(2)
H24 H 0.7923 0.4797 0.2185
I1 I 0.49662(3) 0.56527(10) 0.59692(2)
I2 I 0.57175(5) 0.82413(7) 0.55887(3)
I5 I 0.70176(4) 0.79553(6) 0.30477(2)
N1 N 0.5721(3) 0.5746(6) 0.53118(19)
N2 N 0.5905(3) 0.3229(6) 0.45335(18)
N3 N 0.6231(3) 0.3162(5) 0.40620(17)
N4 N 0.6232(3) 0.4595(5) 0.43272(18)
N6 N 0.6997(3) 0.5565(6) 0.34037(18)
N7 N 0.8764(3) 0.3908(5) 0.09257(17)
N8 N 0.7120(3) 0.4230(5) 0.12850(15)
N9 N 0.6763(3) 0.4571(5) 0.17402(16)
N10 N 0.7579(3) 0.4562(4) 0.17027(15)
N11 N 0.5415(3) 0.3929(5) 0.10659(19)
N12 N 0.7329(3) 0.5590(5) 0.27290(17)
Zn1 Zn 0.56293(5) 0.64575(10) 0.56972(3)
Zn3 Zn 0.74072(5) 0.63299(8) 0.31146(3)
I6 I 0.82514(4) 0.62881(10) 0.32758(3)
N13 N 0.6236(3) 0.6092(5) 0.59257(17)
Zn4 Zn 0.93707(5) 0.35425(10) 0.06972(3)
Zn5 Zn 0.47828(5) 0.35786(8) 0.08675(3)
H7 H 0.5848 0.9957 0.3823
I3 I 0.56779(4) 0.76814(8) 0.37465(3)
I4 I 0.50439(4) 0.78681(8) 0.46319(3)
N5 N 0.5517(3) 0.9918(6) 0.4197(2)
Zn2 Zn 0.52172(5) 0.85786(8) 0.41325(3)
N14 N 0.4585(3) 0.8929(5) 0.39341(19)
H7_2 H 0.9152 0.0043 0.8823
I3_2 I 0.93221(4) 0.23186(8) 0.87465(3)
I4_2 I 0.99561(4) 0.21319(8) 0.96319(3)
N5_2 N 0.9483(3) 0.0082(6) 0.9197(2)
Zn2_2 Zn 0.97828(5) 0.14214(8) 0.91325(3)
C1_2 C 0.9391(5) 0.5208(9) 0.0289(3)
H1_2 H 0.9542 0.5505 0.0444
C2_2 C 0.9291(4) 0.5734(8) 0.0049(2)
H2_2 H 0.9369 0.6381 0.0043
C5_2 C 0.9110(5) 0.3815(8) 0.0077(2)
H4_2 H 0.9072 0.3152 0.0077
I2_2 I 0.92825(5) 0.17587(7) 0.05887(3)
N1_2 N 0.9279(3) 0.4254(6) 0.03118(19)
C3_2 C 0.9071(4) 0.5314(7) 0.9809(2)
C4_2 C 0.8983(5) 0.4363(8) 0.9819(3)
H3_2 H 0.8842 0.4060 0.9661
C6_2 C 0.8973(3) 0.5846(6) 0.9540(2)
C7_2 C 0.8979(3) 0.7250(7) 0.9290(2)
C8_2 C 0.8670(4) 0.5909(6) 0.9089(2)
C9_2 C 0.9140(4) 0.8230(7) 0.9256(2)
C10_2 C 0.9406(5) 0.8694(8) 0.9484(3)
H5_2 H 0.9475 0.8370 0.9655
C11_2 C 0.9554(5) 0.9604(8) 0.9444(3)
H6_2 H 0.9712 0.9908 0.9595
C12_2 C 0.9222(5) 0.9687(8) 0.8989(3)
C13_2 C 0.9055(5) 0.8779(8) 0.9011(3)
H8_2 H 0.8880 0.8522 0.8859
C14_2 C 0.8444(4) 0.5418(6) 0.8845(2)
C15_2 C 0.8220(5) 0.5914(8) 0.8626(3)
H9_2 H 0.8226 0.6581 0.8622
C16_2 C 0.7986(4) 0.5400(7) 0.8409(2)
H10_2 H 0.7817 0.5726 0.8268
C17_2 C 0.8229(5) 0.3975(7) 0.8607(3)
H11_2 H 0.8244 0.3310 0.8598
C18_2 C 0.8444(5) 0.4431(7) 0.8833(2)
H12_2 H 0.8591 0.4078 0.8978
C19_2 C 0.6656(4) 0.6178(7) 0.5814(2)
H13_2 H 0.6674 0.6359 0.5620
C20_2 C 0.7055(4) 0.6034(7) 0.5952(2)
H14_2 H 0.7340 0.6092 0.5855
C21_2 C 0.7036(3) 0.5792(6) 0.62442(19)
C22_2 C 0.6600(3) 0.5708(6) 0.6370(2)
H15_2 H 0.6568 0.5552 0.6566
C23_2 C 0.6227(4) 0.5856(7) 0.6202(2)
H16_2 H 0.5934 0.5786 0.6288
C24_2 C 0.7486(3) 0.5670(5) 0.64186(18)
C25_2 C 0.8250(3) 0.5644(6) 0.6454(2)
C26_2 C 0.7808(3) 0.5334(5) 0.68519(18)
C27_2 C 0.8720(3) 0.5768(6) 0.6321(2)
C28_2 C 0.8776(4) 0.5842(8) 0.6022(2)
H17_2 H 0.8516 0.5803 0.5901
C29_2 C 0.9197(4) 0.5970(8) 0.5909(3)
H18_2 H 0.9224 0.5990 0.5707
C30_2 C 0.9542(4) 0.5990(9) 0.6349(3)
H19_2 H 0.9808 0.6058 0.6463
C31_2 C 0.9125(4) 0.5809(10) 0.6484(3)
H20_2 H 0.9115 0.5715 0.6684
C32_2 C 0.7772(3) 0.5052(6) 0.71567(19)
C33_2 C 0.8153(4) 0.4735(8) 0.7317(2)
H21_2 H 0.8449 0.4714 0.7234
C34_2 C 0.8088(4) 0.4450(8) 0.7601(2)
H22_2 H 0.8349 0.4276 0.7709
C35_2 C 0.7306(4) 0.4732(7) 0.7577(2)
H23_2 H 0.7015 0.4763 0.7668
C36_2 C 0.7344(4) 0.5026(7) 0.7288(2)
H24_2 H 0.7077 0.5203 0.7185
I5_2 I 0.79824(4) 0.20447(6) 0.80477(2)
N2_2 N 0.9095(3) 0.6771(6) 0.95335(18)
N3_2 N 0.8769(3) 0.6838(5) 0.90620(17)
N4_2 N 0.8768(3) 0.5405(5) 0.93272(18)
N6_2 N 0.8003(3) 0.4435(6) 0.84037(18)
N8_2 N 0.7880(3) 0.5770(5) 0.62850(15)
N9_2 N 0.8237(3) 0.5429(5) 0.67402(16)
N10_2 N 0.7421(3) 0.5438(4) 0.67027(15)
N11_2 N 0.9585(3) 0.6071(5) 0.60659(19)
N12_2 N 0.7671(3) 0.4410(5) 0.77290(17)
Zn3_2 Zn 0.75928(5) 0.36701(8) 0.81146(3)
I6_2 I 0.67486(4) 0.37119(10) 0.82758(3)
C3_3 C 0.4071(4) 0.9686(7) 0.0191(2)
C6_3 C 0.3973(3) 0.9154(6) 0.0460(2)
C7_3 C 0.3979(3) 0.7750(7) 0.0710(2)
C8_3 C 0.3670(4) 0.9091(6) 0.0911(2)
C9_3 C 0.4140(4) 0.6770(7) 0.0744(2)
C10_3 C 0.4406(5) 0.6306(8) 0.0516(3)
H5_3 H 0.4475 0.6630 0.0345
C11_3 C 0.4554(5) 0.5396(8) 0.0556(3)
H6_3 H 0.4712 0.5092 0.0405
C12_3 C 0.4222(5) 0.5313(8) 0.1011(3)
H7_3 H 0.4152 0.4957 0.1177
C13_3 C 0.4055(5) 0.6221(8) 0.0989(3)
H8_3 H 0.3880 0.6478 0.1141
C14_3 C 0.3444(4) 0.9582(6) 0.1155(2)
C15_3 C 0.3220(5) 0.9086(8) 0.1374(3)
H9_3 H 0.3226 0.8419 0.1378
C16_3 C 0.2986(4) 0.9600(7) 0.1591(2)
H10_3 H 0.2817 0.9274 0.1732
C19_3 C 0.1656(4) 0.8822(7) 0.4186(2)
H13_3 H 0.1674 0.8641 0.4380
C20_3 C 0.2055(4) 0.8966(7) 0.4048(2)
H14_3 H 0.2340 0.8908 0.4145
C21_3 C 0.2036(3) 0.9208(6) 0.37558(19)
C22_3 C 0.1600(3) 0.9292(6) 0.3630(2)
H15_3 H 0.1568 0.9448 0.3434
C23_3 C 0.1227(4) 0.9144(7) 0.3798(2)
H16_3 H 0.0934 0.9214 0.3712
C24_3 C 0.2486(3) 0.9330(5) 0.35814(18)
C25_3 C 0.3250(3) 0.9356(6) 0.3546(2)
C26_3 C 0.2808(3) 0.9666(5) 0.31481(18)
C27_3 C 0.3720(3) 0.9232(6) 0.3679(2)
C28_3 C 0.3776(4) 0.9158(8) 0.3978(2)
H17_3 H 0.3516 0.9197 0.4099
C29_3 C 0.4197(4) 0.9030(8) 0.4091(3)
H18_3 H 0.4224 0.9010 0.4293
C30_3 C 0.4542(4) 0.9010(9) 0.3651(3)
H19_3 H 0.4808 0.8942 0.3537
C31_3 C 0.4125(4) 0.9191(10) 0.3516(3)
H20_3 H 0.4115 0.9285 0.3316
C32_3 C 0.2772(3) 0.9948(6) 0.28433(19)
C36_3 C 0.2344(4) 0.9974(7) 0.2712(2)
H24_3 H 0.2077 0.9797 0.2815
I3_3 I 0.43221(4) 0.26814(8) 0.12535(3)
I4_3 I 0.49561(4) 0.28681(8) 0.03681(3)
N2_3 N 0.4095(3) 0.8229(6) 0.04665(18)
N3_3 N 0.3769(3) 0.8162(5) 0.09380(17)
N4_3 N 0.3768(3) 0.9595(5) 0.06728(18)
N5_3 N 0.4483(3) 0.4918(6) 0.0803(2)
N7_2 N 0.1236(3) 0.8908(5) 0.40743(17)
N8_3 N 0.2880(3) 0.9230(5) 0.37150(15)
N9_3 N 0.3237(3) 0.9571(5) 0.32598(16)
N10_3 N 0.2421(3) 0.9562(4) 0.32973(15)
Zn4_2 Zn 0.06293(5) 0.85425(10) 0.43028(3)
C4_3 C 0.1017(5) 0.9363(8) 0.5181(3)
H3_3 H 0.1158 0.9060 0.5339
C5_3 C 0.0890(5) 0.8815(8) 0.4923(2)
H4_3 H 0.0928 0.8152 0.4923
C17_3 C 0.1771(5) 0.8975(7) 0.6393(3)
H11_3 H 0.1756 0.8310 0.6402
C18_3 C 0.1556(5) 0.9431(7) 0.6167(2)
H12_3 H 0.1409 0.9078 0.6022
C33_3 C 0.1847(4) 0.9735(8) 0.7683(2)
H21_3 H 0.1551 0.9714 0.7766
C34_3 C 0.1912(4) 0.9450(8) 0.7399(2)
H22_3 H 0.1651 0.9276 0.7291
C35_3 C 0.2694(4) 0.9732(7) 0.7423(2)
H23_3 H 0.2985 0.9763 0.7332
I2_3 I 0.07175(5) 0.67587(7) 0.44113(3)
I5_3 I 0.20176(4) 0.70447(6) 0.69523(2)
N1_3 N 0.0721(3) 0.9254(6) 0.46882(19)
N6_3 N 0.1997(3) 0.9435(6) 0.65963(18)
N12_3 N 0.2329(3) 0.9410(5) 0.72710(17)
Zn3_3 Zn 0.24072(5) 0.86701(8) 0.68854(3)
I6_3 I 0.32514(4) 0.87119(10) 0.67242(3)
N14_2 N 0.0415(3) 0.1071(5) 0.89341(19)
Zn5_2 Zn 0.02172(5) 0.64214(8) 0.58675(3)
C5_4 C 0.4110(5) 0.1185(8) 0.9923(2)
H4_4 H 0.4072 0.1848 0.9923
I1_2 I 0.50338(3) 0.06527(10) 0.90308(2)
I2_4 I 0.42825(5) 0.32413(7) 0.94113(3)
N1_4 N 0.4279(3) 0.0746(6) 0.96882(19)
Zn1_2 Zn 0.43707(5) 0.14575(10) 0.93028(3)
N13_2 N 0.3764(3) 0.1092(5) 0.90743(17)
C1_3 C 0.0609(5) 0.0208(9) 0.4711(3)
H1_3 H 0.0458 0.0505 0.4556
C2_3 C 0.0709(4) 0.0734(8) 0.4951(2)
H2_3 H 0.0631 0.1381 0.4957
C3_4 C 0.0929(4) 0.0314(7) 0.5191(2)
C6_4 C 0.1027(3) 0.0846(6) 0.5460(2)
C7_4 C 0.1021(3) 0.2250(7) 0.5710(2)
C8_4 C 0.1330(4) 0.0909(6) 0.5911(2)
C9_4 C 0.0860(4) 0.3230(7) 0.5744(2)
C10_4 C 0.0594(5) 0.3694(8) 0.5516(3)
H5_4 H 0.0525 0.3370 0.5345
C11_4 C 0.0446(5) 0.4604(8) 0.5556(3)
H6_4 H 0.0288 0.4908 0.5405
C12_4 C 0.0778(5) 0.4687(8) 0.6011(3)
H7_4 H 0.0848 0.5043 0.6177
C13_4 C 0.0945(5) 0.3779(8) 0.5989(3)
H8_4 H 0.1120 0.3522 0.6141
C14_4 C 0.1556(4) 0.0418(6) 0.6155(2)
C15_4 C 0.1780(5) 0.0914(8) 0.6374(3)
H9_4 H 0.1774 0.1581 0.6378
C16_4 C 0.2014(4) 0.0400(7) 0.6591(2)
H10_4 H 0.2183 0.0726 0.6732
C19_4 C 0.3344(4) 0.1178(7) 0.9186(2)
H13_4 H 0.3326 0.1359 0.9380
C20_4 C 0.2945(4) 0.1034(7) 0.9048(2)
H14_4 H 0.2660 0.1092 0.9145
C21_4 C 0.2964(3) 0.0792(6) 0.87558(19)
C22_4 C 0.3400(3) 0.0708(6) 0.8630(2)
H15_4 H 0.3432 0.0552 0.8434
C23_4 C 0.3773(4) 0.0856(7) 0.8798(2)
H16_4 H 0.4066 0.0786 0.8712
C24_4 C 0.2514(3) 0.0670(5) 0.85814(18)
C25_4 C 0.1750(3) 0.0644(6) 0.8546(2)
C26_4 C 0.2192(3) 0.0334(5) 0.81481(18)
C27_4 C 0.1280(3) 0.0768(6) 0.8679(2)
C28_4 C 0.1224(4) 0.0842(8) 0.8978(2)
H17_4 H 0.1484 0.0803 0.9099
C29_4 C 0.0803(4) 0.0970(8) 0.9091(3)
H18_4 H 0.0776 0.0990 0.9293
C30_4 C 0.0458(4) 0.0990(9) 0.8651(3)
H19_4 H 0.0192 0.1058 0.8537
C31_4 C 0.0875(4) 0.0809(10) 0.8516(3)
H20_4 H 0.0885 0.0715 0.8316
C32_4 C 0.2228(3) 0.0052(6) 0.78433(19)
C36_4 C 0.2656(4) 0.0026(7) 0.7712(2)
H24_4 H 0.2923 0.0203 0.7815
I3_4 I 0.06779(4) 0.73186(8) 0.62535(3)
I4_4 I 0.00439(4) 0.71319(8) 0.53681(3)
N2_4 N 0.0905(3) 0.1771(6) 0.54665(18)
N3_4 N 0.1231(3) 0.1838(5) 0.59380(17)
N4_4 N 0.1232(3) 0.0405(5) 0.56728(18)
N5_4 N 0.0517(3) 0.5082(6) 0.5803(2)
N8_4 N 0.2120(3) 0.0770(5) 0.87150(15)
N9_4 N 0.1763(3) 0.0429(5) 0.82598(16)
N10_4 N 0.2579(3) 0.0438(4) 0.82973(15)
I1_3 I 0.00338(3) 0.43473(10) 0.09692(2)
C4_4 C 0.3983(5) 0.0637(8) 0.0181(3)
H3_4 H 0.3842 0.0940 0.0339
C17_4 C 0.3229(5) 0.1025(7) 0.1393(3)
H11_4 H 0.3244 0.1690 0.1402
C18_4 C 0.3444(5) 0.0569(7) 0.1167(2)
H12_4 H 0.3591 0.0922 0.1022
C33_4 C 0.3153(4) 0.0265(8) 0.2683(2)
H21_4 H 0.3449 0.0286 0.2766
C34_4 C 0.3088(4) 0.0550(8) 0.2399(2)
H22_4 H 0.3349 0.0724 0.2291
C35_4 C 0.2306(4) 0.0268(7) 0.2423(2)
H23_4 H 0.2015 0.0237 0.2332
I5_4 I 0.29824(4) 0.29553(6) 0.19523(2)
N6_4 N 0.3003(3) 0.0565(6) 0.15963(18)
N12_4 N 0.2671(3) 0.0590(5) 0.22710(17)
Zn3_4 Zn 0.25928(5) 0.13299(8) 0.18854(3)
I6_4 I 0.17486(4) 0.12881(10) 0.17242(3)
C1_4 C 0.4391(5) 0.9792(9) 0.9711(3)
H1_4 H 0.4542 0.9495 0.9556
C2_4 C 0.4291(4) 0.9266(8) 0.9951(2)
H2_4 H 0.4369 0.8619 0.9957
I1_4 I 0.99662(3) 0.93473(10) 0.40308(2)
H7_5 H 0.4152 0.0043 0.6177
I3_5 I 0.43221(4) 0.23186(8) 0.62535(3)
I4_5 I 0.49561(4) 0.21319(8) 0.53681(3)
N5_5 N 0.4483(3) 0.0082(6) 0.5803(2)
Zn2_3 Zn 0.47828(5) 0.14214(8) 0.58675(3)
N14_3 N 0.5415(3) 0.1071(5) 0.60659(19)
C1_5 C 0.4391(5) 0.5208(9) 0.4711(3)
H1_5 H 0.4542 0.5505 0.4556
C2_5 C 0.4291(4) 0.5734(8) 0.4951(2)
H2_5 H 0.4369 0.6381 0.4957
C3_5 C 0.4071(4) 0.5314(7) 0.5191(2)
C4_5 C 0.3983(5) 0.4363(8) 0.5181(3)
H3_5 H 0.3842 0.4060 0.5339
C5_5 C 0.4110(5) 0.3815(8) 0.4923(2)
H4_5 H 0.4072 0.3152 0.4923
C6_5 C 0.3973(3) 0.5846(6) 0.5460(2)
C7_5 C 0.3979(3) 0.7250(7) 0.5710(2)
C8_5 C 0.3670(4) 0.5909(6) 0.5911(2)
C9_5 C 0.4140(4) 0.8230(7) 0.5744(2)
C10_5 C 0.4406(5) 0.8694(8) 0.5516(3)
H5_5 H 0.4475 0.8370 0.5345
C11_5 C 0.4554(5) 0.9604(8) 0.5556(3)
H6_5 H 0.4712 0.9908 0.5405
C12_5 C 0.4222(5) 0.9687(8) 0.6011(3)
C13_5 C 0.4055(5) 0.8779(8) 0.5989(3)
H8_5 H 0.3880 0.8522 0.6141
C14_5 C 0.3444(4) 0.5418(6) 0.6155(2)
C15_5 C 0.3220(5) 0.5914(8) 0.6374(3)
H9_5 H 0.3226 0.6581 0.6378
C16_5 C 0.2986(4) 0.5400(7) 0.6591(2)
H10_5 H 0.2817 0.5726 0.6732
C17_5 C 0.3229(5) 0.3975(7) 0.6393(3)
H11_5 H 0.3244 0.3310 0.6402
C18_5 C 0.3444(5) 0.4431(7) 0.6167(2)
H12_5 H 0.3591 0.4078 0.6022
C19_5 C 0.1656(4) 0.6178(7) 0.9186(2)
H13_5 H 0.1674 0.6359 0.9380
C20_5 C 0.2055(4) 0.6034(7) 0.9048(2)
H14_5 H 0.2340 0.6092 0.9145
C21_5 C 0.2036(3) 0.5792(6) 0.87558(19)
C22_5 C 0.1600(3) 0.5708(6) 0.8630(2)
H15_5 H 0.1568 0.5552 0.8434
C23_5 C 0.1227(4) 0.5856(7) 0.8798(2)
H16_5 H 0.0934 0.5786 0.8712
C24_5 C 0.2486(3) 0.5670(5) 0.85814(18)
C25_5 C 0.3250(3) 0.5644(6) 0.8546(2)
C26_5 C 0.2808(3) 0.5334(5) 0.81481(18)
C27_5 C 0.3720(3) 0.5768(6) 0.8679(2)
C28_5 C 0.3776(4) 0.5842(8) 0.8978(2)
H17_5 H 0.3516 0.5803 0.9099
C29_5 C 0.4197(4) 0.5970(8) 0.9091(3)
H18_5 H 0.4224 0.5990 0.9293
C30_5 C 0.4542(4) 0.5990(9) 0.8651(3)
H19_5 H 0.4808 0.6058 0.8537
C31_5 C 0.4125(4) 0.5809(10) 0.8516(3)
H20_5 H 0.4115 0.5715 0.8316
C32_5 C 0.2772(3) 0.5052(6) 0.78433(19)
C33_5 C 0.3153(4) 0.4735(8) 0.7683(2)
H21_5 H 0.3449 0.4714 0.7766
C34_5 C 0.3088(4) 0.4450(8) 0.7399(2)
H22_5 H 0.3349 0.4276 0.7291
C35_5 C 0.2306(4) 0.4732(7) 0.7423(2)
H23_5 H 0.2015 0.4763 0.7332
C36_5 C 0.2344(4) 0.5026(7) 0.7712(2)
H24_5 H 0.2077 0.5203 0.7815
I1_5 I 0.50338(3) 0.43473(10) 0.40308(2)
I2_5 I 0.42825(5) 0.17587(7) 0.44113(3)
I5_5 I 0.29824(4) 0.20447(6) 0.69523(2)
N1_5 N 0.4279(3) 0.4254(6) 0.46882(19)
N2_5 N 0.4095(3) 0.6771(6) 0.54665(18)
N3_5 N 0.3769(3) 0.6838(5) 0.59380(17)
N4_5 N 0.3768(3) 0.5405(5) 0.56728(18)
N6_5 N 0.3003(3) 0.4435(6) 0.65963(18)
N7_3 N 0.1236(3) 0.6092(5) 0.90743(17)
N8_5 N 0.2880(3) 0.5770(5) 0.87150(15)
N9_5 N 0.3237(3) 0.5429(5) 0.82598(16)
N10_5 N 0.2421(3) 0.5438(4) 0.82973(15)
N11_3 N 0.4585(3) 0.6071(5) 0.89341(19)
N12_5 N 0.2671(3) 0.4410(5) 0.72710(17)
Zn1_3 Zn 0.43707(5) 0.35425(10) 0.43028(3)
Zn3_5 Zn 0.25928(5) 0.36701(8) 0.68854(3)
I6_5 I 0.17486(4) 0.37119(10) 0.67242(3)
N13_3 N 0.3764(3) 0.3908(5) 0.40743(17)
Zn4_3 Zn 0.06293(5) 0.64575(10) 0.93028(3)
Zn5_3 Zn 0.52172(5) 0.64214(8) 0.91325(3)
C3_6 C 0.0929(4) 0.4686(7) 0.0191(2)
C4_6 C 0.1017(5) 0.5637(8) 0.0181(3)
H3_6 H 0.1158 0.5940 0.0339
C6_6 C 0.1027(3) 0.4154(6) 0.0460(2)
C7_6 C 0.1021(3) 0.2750(7) 0.0710(2)
C8_6 C 0.1330(4) 0.4091(6) 0.0911(2)
C9_6 C 0.0860(4) 0.1770(7) 0.0744(2)
C10_6 C 0.0594(5) 0.1306(8) 0.0516(3)
H5_6 H 0.0525 0.1630 0.0345
C11_6 C 0.0446(5) 0.0396(8) 0.0556(3)
H6_6 H 0.0288 0.0092 0.0405
C12_6 C 0.0778(5) 0.0313(8) 0.1011(3)
C13_6 C 0.0945(5) 0.1221(8) 0.0989(3)
H8_6 H 0.1120 0.1478 0.1141
C14_6 C 0.1556(4) 0.4582(6) 0.1155(2)
C15_6 C 0.1780(5) 0.4086(8) 0.1374(3)
H9_6 H 0.1774 0.3419 0.1378
C16_6 C 0.2014(4) 0.4600(7) 0.1591(2)
H10_6 H 0.2183 0.4274 0.1732
C17_6 C 0.1771(5) 0.6025(7) 0.1393(3)
H11_6 H 0.1756 0.6690 0.1402
C18_6 C 0.1556(5) 0.5569(7) 0.1167(2)
H12_6 H 0.1409 0.5922 0.1022
C19_6 C 0.3344(4) 0.3822(7) 0.4186(2)
H13_6 H 0.3326 0.3641 0.4380
C20_6 C 0.2945(4) 0.3966(7) 0.4048(2)
H14_6 H 0.2660 0.3908 0.4145
C21_6 C 0.2964(3) 0.4208(6) 0.37558(19)
C22_6 C 0.3400(3) 0.4292(6) 0.3630(2)
H15_6 H 0.3432 0.4448 0.3434
C23_6 C 0.3773(4) 0.4144(7) 0.3798(2)
H16_6 H 0.4066 0.4214 0.3712
C24_6 C 0.2514(3) 0.4330(5) 0.35814(18)
C25_6 C 0.1750(3) 0.4356(6) 0.3546(2)
C26_6 C 0.2192(3) 0.4666(5) 0.31481(18)
C27_6 C 0.1280(3) 0.4232(6) 0.3679(2)
C28_6 C 0.1224(4) 0.4158(8) 0.3978(2)
H17_6 H 0.1484 0.4197 0.4099
C29_6 C 0.0803(4) 0.4030(8) 0.4091(3)
H18_6 H 0.0776 0.4010 0.4293
C30_6 C 0.0458(4) 0.4010(9) 0.3651(3)
H19_6 H 0.0192 0.3942 0.3537
C31_6 C 0.0875(4) 0.4191(10) 0.3516(3)
H20_6 H 0.0885 0.4285 0.3316
C32_6 C 0.2228(3) 0.4948(6) 0.28433(19)
C33_6 C 0.1847(4) 0.5265(8) 0.2683(2)
H21_6 H 0.1551 0.5286 0.2766
C34_6 C 0.1912(4) 0.5550(8) 0.2399(2)
H22_6 H 0.1651 0.5724 0.2291
C35_6 C 0.2694(4) 0.5268(7) 0.2423(2)
H23_6 H 0.2985 0.5237 0.2332
C36_6 C 0.2656(4) 0.4974(7) 0.2712(2)
H24_6 H 0.2923 0.4797 0.2815
I5_6 I 0.20176(4) 0.79553(6) 0.19523(2)
N2_6 N 0.0905(3) 0.3229(6) 0.04665(18)
N3_6 N 0.1231(3) 0.3162(5) 0.09380(17)
N4_6 N 0.1232(3) 0.4595(5) 0.06728(18)
N6_6 N 0.1997(3) 0.5565(6) 0.15963(18)
N8_6 N 0.2120(3) 0.4230(5) 0.37150(15)
N9_6 N 0.1763(3) 0.4571(5) 0.32598(16)
N10_6 N 0.2579(3) 0.4562(4) 0.32973(15)
N11_4 N 0.0415(3) 0.3929(5) 0.39341(19)
N12_6 N 0.2329(3) 0.5590(5) 0.22710(17)
Zn3_6 Zn 0.24072(5) 0.63299(8) 0.18854(3)
I6_6 I 0.32514(4) 0.62881(10) 0.17242(3)
C1_6 C 0.0609(5) 0.4792(9) 0.9711(3)
H1_6 H 0.0458 0.4495 0.9556
C2_6 C 0.0709(4) 0.4266(8) 0.9951(2)
H2_6 H 0.0631 0.3619 0.9957
C5_6 C 0.0890(5) 0.6185(8) 0.9923(2)
H4_6 H 0.0928 0.6848 0.9923
I2_6 I 0.07175(5) 0.82413(7) 0.94113(3)
N1_6 N 0.0721(3) 0.5746(6) 0.96882(19)
H7_6 H 0.0848 0.9957 0.1177
I3_6 I 0.06779(4) 0.76814(8) 0.12535(3)
I4_6 I 0.00439(4) 0.78681(8) 0.03681(3)
N5_6 N 0.0517(3) 0.9918(6) 0.0803(2)
Zn2_4 Zn 0.02172(5) 0.85786(8) 0.08675(3)
C3_7 C 0.5929(4) 0.0314(7) 0.9809(2)
C6_7 C 0.6027(3) 0.0846(6) 0.9540(2)
C7_7 C 0.6021(3) 0.2250(7) 0.9290(2)
C8_7 C 0.6330(4) 0.0909(6) 0.9089(2)
C9_7 C 0.5860(4) 0.3230(7) 0.9256(2)
C10_7 C 0.5594(5) 0.3694(8) 0.9484(3)
H5_7 H 0.5525 0.3370 0.9655
C11_7 C 0.5446(5) 0.4604(8) 0.9444(3)
H6_7 H 0.5288 0.4908 0.9595
C12_7 C 0.5778(5) 0.4687(8) 0.8989(3)
H7_7 H 0.5848 0.5043 0.8823
C13_7 C 0.5945(5) 0.3779(8) 0.9011(3)
H8_7 H 0.6120 0.3522 0.8859
C14_7 C 0.6556(4) 0.0418(6) 0.8845(2)
C15_7 C 0.6780(5) 0.0914(8) 0.8626(3)
H9_7 H 0.6774 0.1581 0.8622
C16_7 C 0.7014(4) 0.0400(7) 0.8409(2)
H10_7 H 0.7183 0.0726 0.8268
C19_7 C 0.8344(4) 0.1178(7) 0.5814(2)
H13_7 H 0.8326 0.1359 0.5620
C20_7 C 0.7945(4) 0.1034(7) 0.5952(2)
H14_7 H 0.7660 0.1092 0.5855
C21_7 C 0.7964(3) 0.0792(6) 0.62442(19)
C22_7 C 0.8400(3) 0.0708(6) 0.6370(2)
H15_7 H 0.8432 0.0552 0.6566
C23_7 C 0.8773(4) 0.0856(7) 0.6202(2)
H16_7 H 0.9066 0.0786 0.6288
C24_7 C 0.7514(3) 0.0670(5) 0.64186(18)
C25_7 C 0.6750(3) 0.0644(6) 0.6454(2)
C26_7 C 0.7192(3) 0.0334(5) 0.68519(18)
C27_7 C 0.6280(3) 0.0768(6) 0.6321(2)
C28_7 C 0.6224(4) 0.0842(8) 0.6022(2)
H17_7 H 0.6484 0.0803 0.5901
C29_7 C 0.5803(4) 0.0970(8) 0.5909(3)
H18_7 H 0.5776 0.0990 0.5707
C30_7 C 0.5458(4) 0.0990(9) 0.6349(3)
H19_7 H 0.5192 0.1058 0.6463
C31_7 C 0.5875(4) 0.0809(10) 0.6484(3)
H20_7 H 0.5885 0.0715 0.6684
C32_7 C 0.7228(3) 0.0052(6) 0.71567(19)
C36_7 C 0.7656(4) 0.0026(7) 0.7288(2)
H24_7 H 0.7923 0.0203 0.7185
I3_7 I 0.56779(4) 0.73186(8) 0.87465(3)
I4_7 I 0.50439(4) 0.71319(8) 0.96319(3)
N2_7 N 0.5905(3) 0.1771(6) 0.95335(18)
N3_7 N 0.6231(3) 0.1838(5) 0.90620(17)
N4_7 N 0.6232(3) 0.0405(5) 0.93272(18)
N5_7 N 0.5517(3) 0.5082(6) 0.9197(2)
N7_4 N 0.8764(3) 0.1092(5) 0.59257(17)
N8_7 N 0.7120(3) 0.0770(5) 0.62850(15)
N9_7 N 0.6763(3) 0.0429(5) 0.67402(16)
N10_7 N 0.7579(3) 0.0438(4) 0.67027(15)
Zn4_4 Zn 0.93707(5) 0.14575(10) 0.56972(3)
C4_7 C 0.8983(5) 0.0637(8) 0.4819(3)
H3_7 H 0.8842 0.0940 0.4661
C5_7 C 0.9110(5) 0.1185(8) 0.5077(2)
H4_7 H 0.9072 0.1848 0.5077
C17_7 C 0.8229(5) 0.1025(7) 0.3607(3)
H11_7 H 0.8244 0.1690 0.3598
C18_7 C 0.8444(5) 0.0569(7) 0.3833(2)
H12_7 H 0.8591 0.0922 0.3978
C33_7 C 0.8153(4) 0.0265(8) 0.2317(2)
H21_7 H 0.8449 0.0286 0.2234
C34_7 C 0.8088(4) 0.0550(8) 0.2601(2)
H22_7 H 0.8349 0.0724 0.2709
C35_7 C 0.7306(4) 0.0268(7) 0.2577(2)
H23_7 H 0.7015 0.0237 0.2668
I2_7 I 0.92825(5) 0.32413(7) 0.55887(3)
I5_7 I 0.79824(4) 0.29553(6) 0.30477(2)
N1_7 N 0.9279(3) 0.0746(6) 0.53118(19)
N6_7 N 0.8003(3) 0.0565(6) 0.34037(18)
N12_7 N 0.7671(3) 0.0590(5) 0.27290(17)
Zn3_7 Zn 0.75928(5) 0.13299(8) 0.31146(3)
I6_7 I 0.67486(4) 0.12881(10) 0.32758(3)
Zn5_4 Zn 0.97828(5) 0.35786(8) 0.41325(3)
N14_4 N 0.9585(3) 0.8929(5) 0.10659(19)
C5_8 C 0.5890(5) 0.8815(8) 0.0077(2)
H4_8 H 0.5928 0.8152 0.0077
I1_6 I 0.49662(3) 0.93473(10) 0.09692(2)
I2_8 I 0.57175(5) 0.67587(7) 0.05887(3)
N1_8 N 0.5721(3) 0.9254(6) 0.03118(19)
Zn1_4 Zn 0.56293(5) 0.85425(10) 0.06972(3)
N13_4 N 0.6236(3) 0.8908(5) 0.09257(17)
C1_7 C 0.9391(5) 0.9792(9) 0.5289(3)
H1_7 H 0.9542 0.9495 0.5444
C2_7 C 0.9291(4) 0.9266(8) 0.5049(2)
H2_7 H 0.9369 0.8619 0.5043
C3_8 C 0.9071(4) 0.9686(7) 0.4809(2)
C6_8 C 0.8973(3) 0.9154(6) 0.4540(2)
C7_8 C 0.8979(3) 0.7750(7) 0.4290(2)
C8_8 C 0.8670(4) 0.9091(6) 0.4089(2)
C9_8 C 0.9140(4) 0.6770(7) 0.4256(2)
C10_8 C 0.9406(5) 0.6306(8) 0.4484(3)
H5_8 H 0.9475 0.6630 0.4655
C11_8 C 0.9554(5) 0.5396(8) 0.4444(3)
H6_8 H 0.9712 0.5092 0.4595
C12_8 C 0.9222(5) 0.5313(8) 0.3989(3)
H7_8 H 0.9152 0.4957 0.3823
C13_8 C 0.9055(5) 0.6221(8) 0.4011(3)
H8_8 H 0.8880 0.6478 0.3859
C14_8 C 0.8444(4) 0.9582(6) 0.3845(2)
C15_8 C 0.8220(5) 0.9086(8) 0.3626(3)
H9_8 H 0.8226 0.8419 0.3622
C16_8 C 0.7986(4) 0.9600(7) 0.3409(2)
H10_8 H 0.7817 0.9274 0.3268
C19_8 C 0.6656(4) 0.8822(7) 0.0814(2)
H13_8 H 0.6674 0.8641 0.0620
C20_8 C 0.7055(4) 0.8966(7) 0.0952(2)
H14_8 H 0.7340 0.8908 0.0855
C21_8 C 0.7036(3) 0.9208(6) 0.12442(19)
C22_8 C 0.6600(3) 0.9292(6) 0.1370(2)
H15_8 H 0.6568 0.9448 0.1566
C23_8 C 0.6227(4) 0.9144(7) 0.1202(2)
H16_8 H 0.5934 0.9214 0.1288
C24_8 C 0.7486(3) 0.9330(5) 0.14186(18)
C25_8 C 0.8250(3) 0.9356(6) 0.1454(2)
C26_8 C 0.7808(3) 0.9666(5) 0.18519(18)
C27_8 C 0.8720(3) 0.9232(6) 0.1321(2)
C28_8 C 0.8776(4) 0.9158(8) 0.1022(2)
H17_8 H 0.8516 0.9197 0.0901
C29_8 C 0.9197(4) 0.9030(8) 0.0909(3)
H18_8 H 0.9224 0.9010 0.0707
C30_8 C 0.9542(4) 0.9010(9) 0.1349(3)
H19_8 H 0.9808 0.8942 0.1463
C31_8 C 0.9125(4) 0.9191(10) 0.1484(3)
H20_8 H 0.9115 0.9285 0.1684
C32_8 C 0.7772(3) 0.9948(6) 0.21567(19)
C36_8 C 0.7344(4) 0.9974(7) 0.2288(2)
H24_8 H 0.7077 0.9797 0.2185
I3_8 I 0.93221(4) 0.26814(8) 0.37465(3)
I4_8 I 0.99561(4) 0.28681(8) 0.46319(3)
N2_8 N 0.9095(3) 0.8229(6) 0.45335(18)
N3_8 N 0.8769(3) 0.8162(5) 0.40620(17)
N4_8 N 0.8768(3) 0.9595(5) 0.43272(18)
N5_8 N 0.9483(3) 0.4918(6) 0.4197(2)
N8_8 N 0.7880(3) 0.9230(5) 0.12850(15)
N9_8 N 0.8237(3) 0.9571(5) 0.17402(16)
N10_8 N 0.7421(3) 0.9562(4) 0.17027(15)
I1_7 I 0.99662(3) 0.56527(10) 0.90308(2)
C1_8 C 0.5609(5) 0.0208(9) 0.0289(3)
H1_8 H 0.5458 0.0505 0.0444
C2_8 C 0.5709(4) 0.0734(8) 0.0049(2)
H2_8 H 0.5631 0.1381 0.0043
C4_8 C 0.6017(5) 0.9363(8) 0.9819(3)
H3_8 H 0.6158 0.9060 0.9661
C17_8 C 0.6771(5) 0.8975(7) 0.8607(3)
H11_8 H 0.6756 0.8310 0.8598
C18_8 C 0.6556(5) 0.9431(7) 0.8833(2)
H12_8 H 0.6409 0.9078 0.8978
C33_8 C 0.6847(4) 0.9735(8) 0.7317(2)
H21_8 H 0.6551 0.9714 0.7234
C34_8 C 0.6912(4) 0.9450(8) 0.7601(2)
H22_8 H 0.6651 0.9276 0.7709
C35_8 C 0.7694(4) 0.9732(7) 0.7577(2)
H23_8 H 0.7985 0.9763 0.7668
I5_8 I 0.70176(4) 0.70447(6) 0.80477(2)
N6_8 N 0.6997(3) 0.9435(6) 0.84037(18)
N12_8 N 0.7329(3) 0.9410(5) 0.77290(17)
Zn3_8 Zn 0.74072(5) 0.86701(8) 0.81146(3)
I6_8 I 0.82514(4) 0.87119(10) 0.82758(3)
I1_8 I 0.00338(3) 0.06527(10) 0.59692(2)
loop_
_geom_bond_atom_site_label_1
_geom_bond_atom_site_label_2
_geom_bond_site_symmetry_1
_geom_bond_site_symmetry_2
C1 H1 1_555 1_555
C2 C1 1_555 1_555
H2 C2 1_555 1_555
C3 C2 1_555 1_555
C4 C3 1_555 1_555
H3 C4 1_555 1_555
C5 C4 1_555 1_555
H4 C5 1_555 1_555
C6 C3 1_555 1_555
C7 C9 1_555 1_555
C8 C14 1_555 1_555
C9 C10 1_555 1_555
C10 H5 1_555 1_555
C11 C10 1_555 1_555
H6 C11 1_555 1_555
C13 C9 1_555 1_555
H8 C13 1_555 1_555
C14 C15 1_555 1_555
C15 H9 1_555 1_555
C16 C15 1_555 1_555
H10 C16 1_555 1_555
C17 H11 1_555 1_555
C18 C14 1_555 1_555
H12 C18 1_555 1_555
C19 H13 1_555 1_555
C20 C19 1_555 1_555
H14 C20 1_555 1_555
C21 C20 1_555 1_555
C22 C21 1_555 1_555
H15 C22 1_555 1_555
C23 C22 1_555 1_555
H16 C23 1_555 1_555
C24 C21 1_555 1_555
C25 C27 1_555 1_555
C26 C32 1_555 1_555
C27 C28 1_555 1_555
C28 H17 1_555 1_555
C29 C28 1_555 1_555
H18 C29 1_555 1_555
C30 H19 1_555 1_555
C31 C27 1_555 1_555
H20 C31 1_555 1_555
C32 C33 1_555 1_555
C33 H21 1_555 1_555
C34 C33 1_555 1_555
H22 C34 1_555 1_555
C35 H23 1_555 1_555
C36 C32 1_555 1_555
H24 C36 1_555 1_555
I1 Zn1 1_555 1_555
I2 Zn1 1_555 1_555
I5 Zn3 1_555 1_555
N1 C1 1_555 1_555
N2 C6 1_555 1_555
N3 C7 1_555 1_555
N4 C6 1_555 1_555
N6 C16 1_555 1_555
N7 C19 1_555 1_555
N8 C24 1_555 1_555
N9 C25 1_555 1_555
N10 C24 1_555 1_555
N11 C29 1_555 1_555
N12 C34 1_555 1_555
Zn1 N1 1_555 1_555
Zn3 N6 1_555 1_555
I6 Zn3 1_555 1_555
N13 Zn1 1_555 1_555
Zn4 N7 1_555 1_555
Zn5 N11 1_555 1_555
C5 N1 1_555 1_555
C7 N2 1_555 1_555
C8 N3 1_555 1_555
C8 N4 1_555 1_555
C12 C13 1_555 1_555
C17 C18 1_555 1_555
C17 N6 1_555 1_555
C23 N7 1_555 1_555
C25 N8 1_555 1_555
C26 N9 1_555 1_555
C26 N10 1_555 1_555
C30 C31 1_555 1_555
C30 N11 1_555 1_555
C35 C36 1_555 1_555
C35 N12 1_555 1_555
N12 Zn3 1_555 1_555
I3 Zn2 1_555 1_555
I4 Zn2 1_555 1_555
Zn2 N5 1_555 1_555
N14 Zn2 1_555 1_555
I3_2 Zn2_2 1_555 1_555
I4_2 Zn2_2 1_555 1_555
Zn2_2 N5_2 1_555 1_555
C1_2 H1_2 1_555 1_555
C2_2 C1_2 1_555 1_555
H2_2 C2_2 1_555 1_555
H4_2 C5_2 1_555 1_555
I2_2 Zn4 1_555 1_555
N1_2 C1_2 1_555 1_555
Zn4 N1_2 1_555 1_555
C5_2 N1_2 1_555 1_555
C4_2 C3_2 1_555 1_555
H3_2 C4_2 1_555 1_555
C6_2 C3_2 1_555 1_555
C7_2 C9_2 1_555 1_555
C8_2 C14_2 1_555 1_555
C9_2 C10_2 1_555 1_555
C10_2 H5_2 1_555 1_555
C11_2 C10_2 1_555 1_555
H6_2 C11_2 1_555 1_555
C13_2 C9_2 1_555 1_555
H8_2 C13_2 1_555 1_555
C14_2 C15_2 1_555 1_555
C15_2 H9_2 1_555 1_555
C16_2 C15_2 1_555 1_555
H10_2 C16_2 1_555 1_555
C17_2 H11_2 1_555 1_555
C18_2 C14_2 1_555 1_555
H12_2 C18_2 1_555 1_555
C19_2 H13_2 1_555 1_555
C20_2 C19_2 1_555 1_555
H14_2 C20_2 1_555 1_555
C21_2 C20_2 1_555 1_555
C22_2 C21_2 1_555 1_555
H15_2 C22_2 1_555 1_555
C23_2 C22_2 1_555 1_555
H16_2 C23_2 1_555 1_555
C24_2 C21_2 1_555 1_555
C25_2 C27_2 1_555 1_555
C26_2 C32_2 1_555 1_555
C27_2 C28_2 1_555 1_555
C28_2 H17_2 1_555 1_555
C29_2 C28_2 1_555 1_555
H18_2 C29_2 1_555 1_555
C30_2 H19_2 1_555 1_555
C31_2 C27_2 1_555 1_555
H20_2 C31_2 1_555 1_555
C32_2 C33_2 1_555 1_555
C33_2 H21_2 1_555 1_555
C34_2 C33_2 1_555 1_555
H22_2 C34_2 1_555 1_555
C35_2 H23_2 1_555 1_555
C36_2 C32_2 1_555 1_555
H24_2 C36_2 1_555 1_555
I5_2 Zn3_2 1_555 1_555
N2_2 C6_2 1_555 1_555
N3_2 C7_2 1_555 1_555
N4_2 C6_2 1_555 1_555
N6_2 C16_2 1_555 1_555
N13 C19_2 1_555 1_555
N8_2 C24_2 1_555 1_555
N9_2 C25_2 1_555 1_555
N10_2 C24_2 1_555 1_555
N11_2 C29_2 1_555 1_555
N12_2 C34_2 1_555 1_555
Zn3_2 N6_2 1_555 1_555
I6_2 Zn3_2 1_555 1_555
C7_2 N2_2 1_555 1_555
C8_2 N3_2 1_555 1_555
C8_2 N4_2 1_555 1_555
C12_2 C13_2 1_555 1_555
C17_2 C18_2 1_555 1_555
C17_2 N6_2 1_555 1_555
C23_2 N13 1_555 1_555
C25_2 N8_2 1_555 1_555
C26_2 N9_2 1_555 1_555
C26_2 N10_2 1_555 1_555
C30_2 C31_2 1_555 1_555
C30_2 N11_2 1_555 1_555
C35_2 C36_2 1_555 1_555
C35_2 N12_2 1_555 1_555
N12_2 Zn3_2 1_555 1_555
C6_3 C3_3 1_555 1_555
C7_3 C9_3 1_555 1_555
C8_3 C14_3 1_555 1_555
C9_3 C10_3 1_555 1_555
C10_3 H5_3 1_555 1_555
C11_3 C10_3 1_555 1_555
H6_3 C11_3 1_555 1_555
C12_3 H7_3 1_555 1_555
C13_3 C9_3 1_555 1_555
H8_3 C13_3 1_555 1_555
C14_3 C15_3 1_555 1_555
C15_3 H9_3 1_555 1_555
C16_3 C15_3 1_555 1_555
H10_3 C16_3 1_555 1_555
C19_3 H13_3 1_555 1_555
C20_3 C19_3 1_555 1_555
H14_3 C20_3 1_555 1_555
C21_3 C20_3 1_555 1_555
C22_3 C21_3 1_555 1_555
H15_3 C22_3 1_555 1_555
C23_3 C22_3 1_555 1_555
H16_3 C23_3 1_555 1_555
C24_3 C21_3 1_555 1_555
C25_3 C27_3 1_555 1_555
C26_3 C32_3 1_555 1_555
C27_3 C28_3 1_555 1_555
C28_3 H17_3 1_555 1_555
C29_3 C28_3 1_555 1_555
H18_3 C29_3 1_555 1_555
C30_3 H19_3 1_555 1_555
C31_3 C27_3 1_555 1_555
H20_3 C31_3 1_555 1_555
C36_3 C32_3 1_555 1_555
H24_3 C36_3 1_555 1_555
I3_3 Zn5 1_555 1_555
I4_3 Zn5 1_555 1_555
N2_3 C6_3 1_555 1_555
N3_3 C7_3 1_555 1_555
N4_3 C6_3 1_555 1_555
N5_3 C11_3 1_555 1_555
N7_2 C19_3 1_555 1_555
N8_3 C24_3 1_555 1_555
N9_3 C25_3 1_555 1_555
N10_3 C24_3 1_555 1_555
N14 C29_3 1_555 1_555
Zn5 N5_3 1_555 1_555
Zn4_2 N7_2 1_555 1_555
C7_3 N2_3 1_555 1_555
C8_3 N3_3 1_555 1_555
C8_3 N4_3 1_555 1_555
C12_3 C13_3 1_555 1_555
C12_3 N5_3 1_555 1_555
C23_3 N7_2 1_555 1_555
C25_3 N8_3 1_555 1_555
C26_3 N9_3 1_555 1_555
C26_3 N10_3 1_555 1_555
C30_3 C31_3 1_555 1_555
C30_3 N14 1_555 1_555
H3_3 C4_3 1_555 1_555
C5_3 C4_3 1_555 1_555
H4_3 C5_3 1_555 1_555
C17_3 H11_3 1_555 1_555
H12_3 C18_3 1_555 1_555
C33_3 H21_3 1_555 1_555
C34_3 C33_3 1_555 1_555
H22_3 C34_3 1_555 1_555
C35_3 H23_3 1_555 1_555
I2_3 Zn4_2 1_555 1_555
I5_3 Zn3_3 1_555 1_555
N12_3 C34_3 1_555 1_555
Zn4_2 N1_3 1_555 1_555
Zn3_3 N6_3 1_555 1_555
I6_3 Zn3_3 1_555 1_555
C5_3 N1_3 1_555 1_555
C17_3 C18_3 1_555 1_555
C17_3 N6_3 1_555 1_555
C35_3 N12_3 1_555 1_555
N12_3 Zn3_3 1_555 1_555
H4_4 C5_4 1_555 1_555
I1_2 Zn1_2 1_555 1_555
I2_4 Zn1_2 1_555 1_555
Zn1_2 N1_4 1_555 1_555
N13_2 Zn1_2 1_555 1_555
C5_4 N1_4 1_555 1_555
C1_3 H1_3 1_555 1_555
C2_3 C1_3 1_555 1_555
H2_3 C2_3 1_555 1_555
C3_4 C2_3 1_555 1_555
C6_4 C3_4 1_555 1_555
C7_4 C9_4 1_555 1_555
C8_4 C14_4 1_555 1_555
C9_4 C10_4 1_555 1_555
C10_4 H5_4 1_555 1_555
C11_4 C10_4 1_555 1_555
H6_4 C11_4 1_555 1_555
C12_4 H7_4 1_555 1_555
C13_4 C9_4 1_555 1_555
H8_4 C13_4 1_555 1_555
C14_4 C15_4 1_555 1_555
C15_4 H9_4 1_555 1_555
C16_4 C15_4 1_555 1_555
H10_4 C16_4 1_555 1_555
C19_4 H13_4 1_555 1_555
C20_4 C19_4 1_555 1_555
H14_4 C20_4 1_555 1_555
C21_4 C20_4 1_555 1_555
C22_4 C21_4 1_555 1_555
H15_4 C22_4 1_555 1_555
C23_4 C22_4 1_555 1_555
H16_4 C23_4 1_555 1_555
C24_4 C21_4 1_555 1_555
C25_4 C27_4 1_555 1_555
C26_4 C32_4 1_555 1_555
C27_4 C28_4 1_555 1_555
C28_4 H17_4 1_555 1_555
C29_4 C28_4 1_555 1_555
H18_4 C29_4 1_555 1_555
C30_4 H19_4 1_555 1_555
C31_4 C27_4 1_555 1_555
H20_4 C31_4 1_555 1_555
C36_4 C32_4 1_555 1_555
H24_4 C36_4 1_555 1_555
I3_4 Zn5_2 1_555 1_555
I4_4 Zn5_2 1_555 1_555
N2_4 C6_4 1_555 1_555
N3_4 C7_4 1_555 1_555
N4_4 C6_4 1_555 1_555
N5_4 C11_4 1_555 1_555
N13_2 C19_4 1_555 1_555
N8_4 C24_4 1_555 1_555
N9_4 C25_4 1_555 1_555
N10_4 C24_4 1_555 1_555
N14_2 C29_4 1_555 1_555
Zn5_2 N5_4 1_555 1_555
C7_4 N2_4 1_555 1_555
C8_4 N3_4 1_555 1_555
C8_4 N4_4 1_555 1_555
C12_4 C13_4 1_555 1_555
C12_4 N5_4 1_555 1_555
C23_4 N13_2 1_555 1_555
C25_4 N8_4 1_555 1_555
C26_4 N9_4 1_555 1_555
C26_4 N10_4 1_555 1_555
C30_4 C31_4 1_555 1_555
C30_4 N14_2 1_555 1_555
H3_4 C4_4 1_555 1_555
C17_4 H11_4 1_555 1_555
H12_4 C18_4 1_555 1_555
C33_4 H21_4 1_555 1_555
C34_4 C33_4 1_555 1_555
H22_4 C34_4 1_555 1_555
C35_4 H23_4 1_555 1_555
I5_4 Zn3_4 1_555 1_555
N12_4 C34_4 1_555 1_555
Zn3_4 N6_4 1_555 1_555
I6_4 Zn3_4 1_555 1_555
C17_4 C18_4 1_555 1_555
C17_4 N6_4 1_555 1_555
C35_4 N12_4 1_555 1_555
N12_4 Zn3_4 1_555 1_555
C1_4 H1_4 1_555 1_555
C2_4 C1_4 1_555 1_555
H2_4 C2_4 1_555 1_555
I3_5 Zn2_3 1_555 1_555
I4_5 Zn2_3 1_555 1_555
Zn2_3 N5_5 1_555 1_555
N14_3 Zn2_3 1_555 1_555
C1_5 H1_5 1_555 1_555
C2_5 C1_5 1_555 1_555
H2_5 C2_5 1_555 1_555
C3_5 C2_5 1_555 1_555
C4_5 C3_5 1_555 1_555
H3_5 C4_5 1_555 1_555
C5_5 C4_5 1_555 1_555
H4_5 C5_5 1_555 1_555
C6_5 C3_5 1_555 1_555
C7_5 C9_5 1_555 1_555
C8_5 C14_5 1_555 1_555
C9_5 C10_5 1_555 1_555
C10_5 H5_5 1_555 1_555
C11_5 C10_5 1_555 1_555
H6_5 C11_5 1_555 1_555
C13_5 C9_5 1_555 1_555
H8_5 C13_5 1_555 1_555
C14_5 C15_5 1_555 1_555
C15_5 H9_5 1_555 1_555
C16_5 C15_5 1_555 1_555
H10_5 C16_5 1_555 1_555
C17_5 H11_5 1_555 1_555
C18_5 C14_5 1_555 1_555
H12_5 C18_5 1_555 1_555
C19_5 H13_5 1_555 1_555
C20_5 C19_5 1_555 1_555
H14_5 C20_5 1_555 1_555
C21_5 C20_5 1_555 1_555
C22_5 C21_5 1_555 1_555
H15_5 C22_5 1_555 1_555
C23_5 C22_5 1_555 1_555
H16_5 C23_5 1_555 1_555
C24_5 C21_5 1_555 1_555
C25_5 C27_5 1_555 1_555
C26_5 C32_5 1_555 1_555
C27_5 C28_5 1_555 1_555
C28_5 H17_5 1_555 1_555
C29_5 C28_5 1_555 1_555
H18_5 C29_5 1_555 1_555
C30_5 H19_5 1_555 1_555
C31_5 C27_5 1_555 1_555
H20_5 C31_5 1_555 1_555
C32_5 C33_5 1_555 1_555
C33_5 H21_5 1_555 1_555
C34_5 C33_5 1_555 1_555
H22_5 C34_5 1_555 1_555
C35_5 H23_5 1_555 1_555
C36_5 C32_5 1_555 1_555
H24_5 C36_5 1_555 1_555
I1_5 Zn1_3 1_555 1_555
I2_5 Zn1_3 1_555 1_555
I5_5 Zn3_5 1_555 1_555
N1_5 C1_5 1_555 1_555
N2_5 C6_5 1_555 1_555
N3_5 C7_5 1_555 1_555
N4_5 C6_5 1_555 1_555
N6_5 C16_5 1_555 1_555
N7_3 C19_5 1_555 1_555
N8_5 C24_5 1_555 1_555
N9_5 C25_5 1_555 1_555
N10_5 C24_5 1_555 1_555
N11_3 C29_5 1_555 1_555
N12_5 C34_5 1_555 1_555
Zn1_3 N1_5 1_555 1_555
Zn3_5 N6_5 1_555 1_555
I6_5 Zn3_5 1_555 1_555
N13_3 Zn1_3 1_555 1_555
Zn4_3 N7_3 1_555 1_555
Zn5_3 N11_3 1_555 1_555
C5_5 N1_5 1_555 1_555
C7_5 N2_5 1_555 1_555
C8_5 N3_5 1_555 1_555
C8_5 N4_5 1_555 1_555
C12_5 C13_5 1_555 1_555
C17_5 C18_5 1_555 1_555
C17_5 N6_5 1_555 1_555
C23_5 N7_3 1_555 1_555
C25_5 N8_5 1_555 1_555
C26_5 N9_5 1_555 1_555
C26_5 N10_5 1_555 1_555
C30_5 C31_5 1_555 1_555
C30_5 N11_3 1_555 1_555
C35_5 C36_5 1_555 1_555
C35_5 N12_5 1_555 1_555
N12_5 Zn3_5 1_555 1_555
C4_6 C3_6 1_555 1_555
H3_6 C4_6 1_555 1_555
C6_6 C3_6 1_555 1_555
C7_6 C9_6 1_555 1_555
C8_6 C14_6 1_555 1_555
C9_6 C10_6 1_555 1_555
C10_6 H5_6 1_555 1_555
C11_6 C10_6 1_555 1_555
H6_6 C11_6 1_555 1_555
C13_6 C9_6 1_555 1_555
H8_6 C13_6 1_555 1_555
C14_6 C15_6 1_555 1_555
C15_6 H9_6 1_555 1_555
C16_6 C15_6 1_555 1_555
H10_6 C16_6 1_555 1_555
C17_6 H11_6 1_555 1_555
C18_6 C14_6 1_555 1_555
H12_6 C18_6 1_555 1_555
C19_6 H13_6 1_555 1_555
C20_6 C19_6 1_555 1_555
H14_6 C20_6 1_555 1_555
C21_6 C20_6 1_555 1_555
C22_6 C21_6 1_555 1_555
H15_6 C22_6 1_555 1_555
C23_6 C22_6 1_555 1_555
H16_6 C23_6 1_555 1_555
C24_6 C21_6 1_555 1_555
C25_6 C27_6 1_555 1_555
C26_6 C32_6 1_555 1_555
C27_6 C28_6 1_555 1_555
C28_6 H17_6 1_555 1_555
C29_6 C28_6 1_555 1_555
H18_6 C29_6 1_555 1_555
C30_6 H19_6 1_555 1_555
C31_6 C27_6 1_555 1_555
H20_6 C31_6 1_555 1_555
C32_6 C33_6 1_555 1_555
C33_6 H21_6 1_555 1_555
C34_6 C33_6 1_555 1_555
H22_6 C34_6 1_555 1_555
C35_6 H23_6 1_555 1_555
C36_6 C32_6 1_555 1_555
H24_6 C36_6 1_555 1_555
I5_6 Zn3_6 1_555 1_555
N2_6 C6_6 1_555 1_555
N3_6 C7_6 1_555 1_555
N4_6 C6_6 1_555 1_555
N6_6 C16_6 1_555 1_555
N13_3 C19_6 1_555 1_555
N8_6 C24_6 1_555 1_555
N9_6 C25_6 1_555 1_555
N10_6 C24_6 1_555 1_555
N11_4 C29_6 1_555 1_555
N12_6 C34_6 1_555 1_555
Zn3_6 N6_6 1_555 1_555
I6_6 Zn3_6 1_555 1_555
C7_6 N2_6 1_555 1_555
C8_6 N3_6 1_555 1_555
C8_6 N4_6 1_555 1_555
C12_6 C13_6 1_555 1_555
C17_6 C18_6 1_555 1_555
C17_6 N6_6 1_555 1_555
C23_6 N13_3 1_555 1_555
C25_6 N8_6 1_555 1_555
C26_6 N9_6 1_555 1_555
C26_6 N10_6 1_555 1_555
C30_6 C31_6 1_555 1_555
C30_6 N11_4 1_555 1_555
C35_6 C36_6 1_555 1_555
C35_6 N12_6 1_555 1_555
N12_6 Zn3_6 1_555 1_555
C1_6 H1_6 1_555 1_555
C2_6 C1_6 1_555 1_555
H2_6 C2_6 1_555 1_555
H4_6 C5_6 1_555 1_555
I2_6 Zn4_3 1_555 1_555
N1_6 C1_6 1_555 1_555
Zn4_3 N1_6 1_555 1_555
C5_6 N1_6 1_555 1_555
I3_6 Zn2_4 1_555 1_555
I4_6 Zn2_4 1_555 1_555
Zn2_4 N5_6 1_555 1_555
C6_7 C3_7 1_555 1_555
C7_7 C9_7 1_555 1_555
C8_7 C14_7 1_555 1_555
C9_7 C10_7 1_555 1_555
C10_7 H5_7 1_555 1_555
C11_7 C10_7 1_555 1_555
H6_7 C11_7 1_555 1_555
C12_7 H7_7 1_555 1_555
C13_7 C9_7 1_555 1_555
H8_7 C13_7 1_555 1_555
C14_7 C15_7 1_555 1_555
C15_7 H9_7 1_555 1_555
C16_7 C15_7 1_555 1_555
H10_7 C16_7 1_555 1_555
C19_7 H13_7 1_555 1_555
C20_7 C19_7 1_555 1_555
H14_7 C20_7 1_555 1_555
C21_7 C20_7 1_555 1_555
C22_7 C21_7 1_555 1_555
H15_7 C22_7 1_555 1_555
C23_7 C22_7 1_555 1_555
H16_7 C23_7 1_555 1_555
C24_7 C21_7 1_555 1_555
C25_7 C27_7 1_555 1_555
C26_7 C32_7 1_555 1_555
C27_7 C28_7 1_555 1_555
C28_7 H17_7 1_555 1_555
C29_7 C28_7 1_555 1_555
H18_7 C29_7 1_555 1_555
C30_7 H19_7 1_555 1_555
C31_7 C27_7 1_555 1_555
H20_7 C31_7 1_555 1_555
C36_7 C32_7 1_555 1_555
H24_7 C36_7 1_555 1_555
I3_7 Zn5_3 1_555 1_555
I4_7 Zn5_3 1_555 1_555
N2_7 C6_7 1_555 1_555
N3_7 C7_7 1_555 1_555
N4_7 C6_7 1_555 1_555
N5_7 C11_7 1_555 1_555
N7_4 C19_7 1_555 1_555
N8_7 C24_7 1_555 1_555
N9_7 C25_7 1_555 1_555
N10_7 C24_7 1_555 1_555
N14_3 C29_7 1_555 1_555
Zn5_3 N5_7 1_555 1_555
Zn4_4 N7_4 1_555 1_555
C7_7 N2_7 1_555 1_555
C8_7 N3_7 1_555 1_555
C8_7 N4_7 1_555 1_555
C12_7 C13_7 1_555 1_555
C12_7 N5_7 1_555 1_555
C23_7 N7_4 1_555 1_555
C25_7 N8_7 1_555 1_555
C26_7 N9_7 1_555 1_555
C26_7 N10_7 1_555 1_555
C30_7 C31_7 1_555 1_555
C30_7 N14_3 1_555 1_555
H3_7 C4_7 1_555 1_555
C5_7 C4_7 1_555 1_555
H4_7 C5_7 1_555 1_555
C17_7 H11_7 1_555 1_555
H12_7 C18_7 1_555 1_555
C33_7 H21_7 1_555 1_555
C34_7 C33_7 1_555 1_555
H22_7 C34_7 1_555 1_555
C35_7 H23_7 1_555 1_555
I2_7 Zn4_4 1_555 1_555
I5_7 Zn3_7 1_555 1_555
N12_7 C34_7 1_555 1_555
Zn4_4 N1_7 1_555 1_555
Zn3_7 N6_7 1_555 1_555
I6_7 Zn3_7 1_555 1_555
C5_7 N1_7 1_555 1_555
C17_7 C18_7 1_555 1_555
C17_7 N6_7 1_555 1_555
C35_7 N12_7 1_555 1_555
N12_7 Zn3_7 1_555 1_555
H4_8 C5_8 1_555 1_555
I1_6 Zn1_4 1_555 1_555
I2_8 Zn1_4 1_555 1_555
Zn1_4 N1_8 1_555 1_555
N13_4 Zn1_4 1_555 1_555
C5_8 N1_8 1_555 1_555
C1_7 H1_7 1_555 1_555
C2_7 C1_7 1_555 1_555
H2_7 C2_7 1_555 1_555
C3_8 C2_7 1_555 1_555
C6_8 C3_8 1_555 1_555
C7_8 C9_8 1_555 1_555
C8_8 C14_8 1_555 1_555
C9_8 C10_8 1_555 1_555
C10_8 H5_8 1_555 1_555
C11_8 C10_8 1_555 1_555
H6_8 C11_8 1_555 1_555
C12_8 H7_8 1_555 1_555
C13_8 C9_8 1_555 1_555
H8_8 C13_8 1_555 1_555
C14_8 C15_8 1_555 1_555
C15_8 H9_8 1_555 1_555
C16_8 C15_8 1_555 1_555
H10_8 C16_8 1_555 1_555
C19_8 H13_8 1_555 1_555
C20_8 C19_8 1_555 1_555
H14_8 C20_8 1_555 1_555
C21_8 C20_8 1_555 1_555
C22_8 C21_8 1_555 1_555
H15_8 C22_8 1_555 1_555
C23_8 C22_8 1_555 1_555
H16_8 C23_8 1_555 1_555
C24_8 C21_8 1_555 1_555
C25_8 C27_8 1_555 1_555
C26_8 C32_8 1_555 1_555
C27_8 C28_8 1_555 1_555
C28_8 H17_8 1_555 1_555
C29_8 C28_8 1_555 1_555
H18_8 C29_8 1_555 1_555
C30_8 H19_8 1_555 1_555
C31_8 C27_8 1_555 1_555
H20_8 C31_8 1_555 1_555
C36_8 C32_8 1_555 1_555
H24_8 C36_8 1_555 1_555
I3_8 Zn5_4 1_555 1_555
I4_8 Zn5_4 1_555 1_555
N2_8 C6_8 1_555 1_555
N3_8 C7_8 1_555 1_555
N4_8 C6_8 1_555 1_555
N5_8 C11_8 1_555 1_555
N13_4 C19_8 1_555 1_555
N8_8 C24_8 1_555 1_555
N9_8 C25_8 1_555 1_555
N10_8 C24_8 1_555 1_555
N14_4 C29_8 1_555 1_555
Zn5_4 N5_8 1_555 1_555
C7_8 N2_8 1_555 1_555
C8_8 N3_8 1_555 1_555
C8_8 N4_8 1_555 1_555
C12_8 C13_8 1_555 1_555
C12_8 N5_8 1_555 1_555
C23_8 N13_4 1_555 1_555
C25_8 N8_8 1_555 1_555
C26_8 N9_8 1_555 1_555
C26_8 N10_8 1_555 1_555
C30_8 C31_8 1_555 1_555
C30_8 N14_4 1_555 1_555
C1_8 H1_8 1_555 1_555
C2_8 C1_8 1_555 1_555
H2_8 C2_8 1_555 1_555
H3_8 C4_8 1_555 1_555
C17_8 H11_8 1_555 1_555
H12_8 C18_8 1_555 1_555
C33_8 H21_8 1_555 1_555
C34_8 C33_8 1_555 1_555
H22_8 C34_8 1_555 1_555
C35_8 H23_8 1_555 1_555
I5_8 Zn3_8 1_555 1_555
N12_8 C34_8 1_555 1_555
Zn3_8 N6_8 1_555 1_555
I6_8 Zn3_8 1_555 1_555
C17_8 C18_8 1_555 1_555
C17_8 N6_8 1_555 1_555
C35_8 N12_8 1_555 1_555
N12_8 Zn3_8 1_555 1_555

#END
