
###############################################################################
#
# This file contains modified crystal structure data generated from the
# MOF subset of the Cambridge Structural Database (CSD) v543 
# hosted by the Cambridge Crystallographic Data Centre (CCDC).
#
# This work is licensed under the Creative Commons
# Attribution-NonCommercial-ShareAlike 4.0 International License.
# To view a copy of this license, visit
# http://creativecommons.org/licenses/by-nc-sa/4.0/
# or send a letter to
# Creative Commons, PO Box 1866, Mountain View, CA 94042, USA.
#
# CIF created using the CSD Python API on 29 September 2022
# The structure has been converted into the P1 space group
# The structure has a 3D framework
# The original CSD entry KEVXUH is in the orthorhombic crystal system
# The framework has been calculated to contain at least 10.0% void space
# The void calculation uses a probe of radius 1.32A, grid spacing 0.4
#
###############################################################################

data_KEVXUH
_chemical_formula_moiety         '(C288 H192 I48 N96 Zn24)n'
_symmetry_cell_setting           triclinic
_symmetry_space_group_name_H-M   'P 1'
_symmetry_Int_Tables_number      1
_space_group_name_Hall           'P 1'
loop_
_symmetry_equiv_pos_site_id
_symmetry_equiv_pos_as_xyz
1 x,y,z
_cell_length_a                   28.5919(3)
_cell_length_b                   13.93260(11)
_cell_length_c                   45.9352(4)
_cell_angle_alpha                90
_cell_angle_beta                 90
_cell_angle_gamma                90
_cell_volume                     18298.7
loop_
_atom_site_label
_atom_site_type_symbol
_atom_site_fract_x
_atom_site_fract_y
_atom_site_fract_z
C1 C 0.5612(3) 0.4820(5) 0.52914(14)
H1 H 0.5463 0.4528 0.5448
C2 C 0.5706(3) 0.4278(5) 0.50488(14)
H2 H 0.5621 0.3634 0.5044
C3 C 0.5929(2) 0.4692(4) 0.48083(11)
C4 C 0.6038(3) 0.5634(5) 0.48305(14)
H3 H 0.6195 0.5933 0.4678
C5 C 0.5918(3) 0.6170(5) 0.50783(14)
H4 H 0.5973 0.6828 0.5082
C6 C 0.6036(2) 0.4139(4) 0.45464(11)
C7 C 0.6021(2) 0.2753(4) 0.42935(12)
C8 C 0.63395(19) 0.4088(4) 0.40985(11)
C9 C 0.5862(2) 0.1736(4) 0.42597(12)
C10 C 0.5599(2) 0.1310(5) 0.44727(15)
H5 H 0.5528 0.1644 0.4642
C11 C 0.5444(3) 0.0396(4) 0.44362(15)
H6 H 0.5278 0.0106 0.4587
C12 C 0.5780(3) 0.0309(5) 0.39926(16)
C13 C 0.5959(3) 0.1236(5) 0.40218(15)
H8 H 0.6145 0.1500 0.3876
C14 C 0.6565(2) 0.4595(4) 0.38497(12)
C15 C 0.6789(2) 0.4085(4) 0.36248(13)
H9 H 0.6786 0.3418 0.3621
C16 C 0.7013(2) 0.4605(4) 0.34108(13)
H10 H 0.7172 0.4275 0.3265
C17 C 0.6772(3) 0.6024(4) 0.36141(14)
H11 H 0.6752 0.6690 0.3606
C18 C 0.6561(3) 0.5556(4) 0.38352(14)
H12 H 0.6411 0.5905 0.3980
C19 C 0.8346(2) 0.3792(4) 0.08096(13)
H13 H 0.8327 0.3600 0.0616
C20 C 0.7935(2) 0.3960(4) 0.09562(11)
H14 H 0.7648 0.3920 0.0862
C21 C 0.79617(18) 0.4193(3) 0.12503(10)
C22 C 0.83981(18) 0.4290(4) 0.13726(11)
H15 H 0.8426 0.4453 0.1568
C23 C 0.8791(2) 0.4148(4) 0.12084(12)
H16 H 0.9083 0.4234 0.1294
C24 C 0.75284(17) 0.4322(3) 0.14245(10)
C25 C 0.67480(18) 0.4340(3) 0.14594(11)
C26 C 0.71938(18) 0.4655(3) 0.18554(10)
C27 C 0.62827(18) 0.4225(4) 0.13250(11)
C28 C 0.6233(2) 0.4158(5) 0.10253(13)
H17 H 0.6495 0.4210 0.0906
C29 C 0.5799(2) 0.4015(5) 0.09045(14)
H18 H 0.5775 0.3979 0.0703
C30 C 0.5456(2) 0.4002(6) 0.13519(15)
H19 H 0.5189 0.3943 0.1466
C31 C 0.5878(2) 0.4164(6) 0.14895(14)
H20 H 0.5890 0.4232 0.1691
C32 C 0.72413(18) 0.4936(3) 0.21610(10)
C33 C 0.6844(2) 0.5262(5) 0.23221(12)
H21 H 0.6548 0.5274 0.2239
C34 C 0.6917(2) 0.5557(5) 0.26035(13)
H22 H 0.6659 0.5745 0.2713
C35 C 0.7703(2) 0.5279(4) 0.25783(11)
H23 H 0.7995 0.5281 0.2668
C36 C 0.76659(19) 0.4957(4) 0.22946(11)
H24 H 0.7931 0.4755 0.2195
I1 I 0.49613(2) 0.56847(6) 0.59674(2)
I2 I 0.57237(3) 0.82625(4) 0.55844(2)
I5 I 0.70082(2) 0.79536(3) 0.30469(2)
N1 N 0.57239(19) 0.5738(4) 0.53126(10)
N2 N 0.59164(17) 0.3226(3) 0.45404(10)
N3 N 0.62397(16) 0.3151(3) 0.40658(10)
N4 N 0.62479(17) 0.4603(3) 0.43301(10)
N6 N 0.70120(18) 0.5561(3) 0.34040(10)
N7 N 0.87660(16) 0.3886(3) 0.09254(9)
N8 N 0.71221(15) 0.4225(3) 0.12910(9)
N9 N 0.67567(15) 0.4565(3) 0.17424(9)
N10 N 0.75848(15) 0.4541(3) 0.17053(8)
N11 N 0.54134(17) 0.3926(3) 0.10633(11)
N12 N 0.73327(17) 0.5585(3) 0.27266(9)
Zn1 Zn 0.56293(3) 0.64827(6) 0.56966(2)
Zn3 Zn 0.74120(3) 0.63373(5) 0.31160(2)
I6 I 0.82603(2) 0.63149(5) 0.32725(2)
N13 N 0.62340(16) 0.6114(3) 0.59254(9)
Zn4 Zn 0.93707(3) 0.35173(6) 0.06966(2)
Zn5 Zn 0.47786(3) 0.35673(5) 0.08713(2)
H7 H 0.5847 0.9965 0.3824
I3 I 0.56845(2) 0.76822(5) 0.37424(2)
I4 I 0.50475(2) 0.78495(5) 0.46267(2)
N5 N 0.55191(17) 0.9900(3) 0.41939(11)
Zn2 Zn 0.52214(3) 0.85673(5) 0.41287(2)
N14 N 0.45866(17) 0.8926(3) 0.39367(11)
H7_2 H 0.9153 0.0035 0.8824
I3_2 I 0.93155(2) 0.23178(5) 0.87424(2)
I4_2 I 0.99525(2) 0.21505(5) 0.96267(2)
N5_2 N 0.94809(17) 0.0100(3) 0.91939(11)
Zn2_2 Zn 0.97786(3) 0.14327(5) 0.91287(2)
C1_2 C 0.9388(3) 0.5180(5) 0.02914(14)
H1_2 H 0.9537 0.5472 0.0448
C2_2 C 0.9294(3) 0.5722(5) 0.00488(14)
H2_2 H 0.9379 0.6366 0.0044
C5_2 C 0.9082(3) 0.3830(5) 0.00783(14)
H4_2 H 0.9027 0.3172 0.0082
I2_2 I 0.92763(3) 0.17375(4) 0.05844(2)
N1_2 N 0.92761(19) 0.4262(4) 0.03126(10)
C3_2 C 0.9071(2) 0.5308(4) 0.98083(11)
C4_2 C 0.8962(3) 0.4366(5) 0.98305(14)
H3_2 H 0.8805 0.4067 0.9678
C6_2 C 0.8964(2) 0.5861(4) 0.95464(11)
C7_2 C 0.8979(2) 0.7247(4) 0.92935(12)
C8_2 C 0.86605(19) 0.5912(4) 0.90985(11)
C9_2 C 0.9138(2) 0.8264(4) 0.92597(12)
C10_2 C 0.9401(2) 0.8690(5) 0.94727(15)
H5_2 H 0.9472 0.8356 0.9642
C11_2 C 0.9556(3) 0.9604(4) 0.94362(15)
H6_2 H 0.9722 0.9894 0.9587
C12_2 C 0.9220(3) 0.9691(5) 0.89926(16)
C13_2 C 0.9041(3) 0.8764(5) 0.90218(15)
H8_2 H 0.8855 0.8500 0.8876
C14_2 C 0.8435(2) 0.5405(4) 0.88497(12)
C15_2 C 0.8211(2) 0.5915(4) 0.86248(13)
H9_2 H 0.8214 0.6582 0.8621
C16_2 C 0.7987(2) 0.5395(4) 0.84108(13)
H10_2 H 0.7828 0.5725 0.8265
C17_2 C 0.8228(3) 0.3976(4) 0.86141(14)
H11_2 H 0.8248 0.3310 0.8606
C18_2 C 0.8439(3) 0.4444(4) 0.88352(14)
H12_2 H 0.8589 0.4095 0.8980
C19_2 C 0.6654(2) 0.6208(4) 0.58096(13)
H13_2 H 0.6673 0.6400 0.5616
C20_2 C 0.7065(2) 0.6040(4) 0.59562(11)
H14_2 H 0.7352 0.6080 0.5862
C21_2 C 0.70383(18) 0.5807(3) 0.62503(10)
C22_2 C 0.66019(18) 0.5710(4) 0.63726(11)
H15_2 H 0.6574 0.5547 0.6568
C23_2 C 0.6209(2) 0.5852(4) 0.62084(12)
H16_2 H 0.5917 0.5766 0.6294
C24_2 C 0.74716(17) 0.5678(3) 0.64245(10)
C25_2 C 0.82520(18) 0.5660(3) 0.64594(11)
C26_2 C 0.78062(18) 0.5345(3) 0.68554(10)
C27_2 C 0.87173(18) 0.5775(4) 0.63250(11)
C28_2 C 0.8767(2) 0.5842(5) 0.60253(13)
H17_2 H 0.8505 0.5790 0.5906
C29_2 C 0.9201(2) 0.5985(5) 0.59045(14)
H18_2 H 0.9225 0.6021 0.5703
C30_2 C 0.9544(2) 0.5998(6) 0.63519(15)
H19_2 H 0.9811 0.6057 0.6466
C31_2 C 0.9122(2) 0.5836(6) 0.64895(14)
H20_2 H 0.9110 0.5768 0.6691
C32_2 C 0.77587(18) 0.5064(3) 0.71610(10)
C33_2 C 0.8156(2) 0.4738(5) 0.73221(12)
H21_2 H 0.8452 0.4726 0.7239
C34_2 C 0.8083(2) 0.4443(5) 0.76035(13)
H22_2 H 0.8341 0.4255 0.7713
C35_2 C 0.7297(2) 0.4721(4) 0.75783(11)
H23_2 H 0.7005 0.4719 0.7668
C36_2 C 0.73341(19) 0.5043(4) 0.72946(11)
H24_2 H 0.7069 0.5245 0.7195
I5_2 I 0.79918(2) 0.20464(3) 0.80469(2)
N2_2 N 0.90836(17) 0.6774(3) 0.95404(10)
N3_2 N 0.87603(16) 0.6849(3) 0.90658(10)
N4_2 N 0.87521(17) 0.5397(3) 0.93301(10)
N6_2 N 0.79880(18) 0.4439(3) 0.84040(10)
N8_2 N 0.78779(15) 0.5775(3) 0.62910(9)
N9_2 N 0.82433(15) 0.5435(3) 0.67424(9)
N10_2 N 0.74152(15) 0.5459(3) 0.67053(8)
N11_2 N 0.95866(17) 0.6074(3) 0.60633(11)
N12_2 N 0.76673(17) 0.4415(3) 0.77266(9)
Zn3_2 Zn 0.75880(3) 0.36627(5) 0.81160(2)
I6_2 I 0.67397(2) 0.36851(5) 0.82725(2)
C3_3 C 0.4071(2) 0.9692(4) 0.01917(11)
C6_3 C 0.3964(2) 0.9139(4) 0.04536(11)
C7_3 C 0.3979(2) 0.7753(4) 0.07065(12)
C8_3 C 0.36605(19) 0.9088(4) 0.09015(11)
C9_3 C 0.4138(2) 0.6736(4) 0.07403(12)
C10_3 C 0.4401(2) 0.6310(5) 0.05273(15)
H5_3 H 0.4472 0.6644 0.0358
C11_3 C 0.4556(3) 0.5396(4) 0.05638(15)
H6_3 H 0.4722 0.5106 0.0413
C12_3 C 0.4220(3) 0.5309(5) 0.10074(16)
H7_3 H 0.4153 0.4965 0.1176
C13_3 C 0.4041(3) 0.6236(5) 0.09782(15)
H8_3 H 0.3855 0.6500 0.1124
C14_3 C 0.3435(2) 0.9595(4) 0.11503(12)
C15_3 C 0.3211(2) 0.9085(4) 0.13752(13)
H9_3 H 0.3214 0.8418 0.1379
C16_3 C 0.2987(2) 0.9605(4) 0.15892(13)
H10_3 H 0.2828 0.9275 0.1735
C19_3 C 0.1654(2) 0.8792(4) 0.41904(13)
H13_3 H 0.1673 0.8600 0.4384
C20_3 C 0.2065(2) 0.8960(4) 0.40438(11)
H14_3 H 0.2352 0.8920 0.4138
C21_3 C 0.20383(18) 0.9193(3) 0.37497(10)
C22_3 C 0.16019(18) 0.9290(4) 0.36274(11)
H15_3 H 0.1574 0.9453 0.3432
C23_3 C 0.1209(2) 0.9148(4) 0.37916(12)
H16_3 H 0.0917 0.9234 0.3706
C24_3 C 0.24716(17) 0.9322(3) 0.35755(10)
C25_3 C 0.32520(18) 0.9340(3) 0.35406(11)
C26_3 C 0.28062(18) 0.9655(3) 0.31446(10)
C27_3 C 0.37173(18) 0.9225(4) 0.36750(11)
C28_3 C 0.3767(2) 0.9158(5) 0.39747(13)
H17_3 H 0.3505 0.9210 0.4094
C29_3 C 0.4201(2) 0.9015(5) 0.40955(14)
H18_3 H 0.4225 0.8979 0.4297
C30_3 C 0.4544(2) 0.9002(6) 0.36481(15)
H19_3 H 0.4811 0.8943 0.3534
C31_3 C 0.4122(2) 0.9164(6) 0.35105(14)
H20_3 H 0.4110 0.9232 0.3309
C32_3 C 0.27587(18) 0.9936(3) 0.28390(10)
C36_3 C 0.23341(19) 0.9957(4) 0.27054(11)
H24_3 H 0.2069 0.9755 0.2805
I3_3 I 0.43155(2) 0.26822(5) 0.12576(2)
I4_3 I 0.49525(2) 0.28495(5) 0.03733(2)
N2_3 N 0.40836(17) 0.8226(3) 0.04596(10)
N3_3 N 0.37603(16) 0.8151(3) 0.09342(10)
N4_3 N 0.37521(17) 0.9603(3) 0.06699(10)
N5_3 N 0.44809(17) 0.4900(3) 0.08061(11)
N7_2 N 0.12340(16) 0.8886(3) 0.40746(9)
N8_3 N 0.28779(15) 0.9225(3) 0.37090(9)
N9_3 N 0.32433(15) 0.9565(3) 0.32576(9)
N10_3 N 0.24152(15) 0.9541(3) 0.32947(8)
Zn4_2 Zn 0.06293(3) 0.85173(6) 0.43034(2)
C4_3 C 0.1038(3) 0.9366(5) 0.51695(14)
H3_3 H 0.1195 0.9067 0.5322
C5_3 C 0.0918(3) 0.8830(5) 0.49217(14)
H4_3 H 0.0973 0.8172 0.4918
C17_3 C 0.1772(3) 0.8976(4) 0.63859(14)
H11_3 H 0.1752 0.8310 0.6394
C18_3 C 0.1561(3) 0.9444(4) 0.61648(14)
H12_3 H 0.1411 0.9095 0.6020
C33_3 C 0.1844(2) 0.9738(5) 0.76779(12)
H21_3 H 0.1548 0.9726 0.7761
C34_3 C 0.1917(2) 0.9443(5) 0.73965(13)
H22_3 H 0.1659 0.9255 0.7287
C35_3 C 0.2703(2) 0.9721(4) 0.74217(11)
H23_3 H 0.2995 0.9719 0.7332
I2_3 I 0.07237(3) 0.67375(4) 0.44156(2)
I5_3 I 0.20082(2) 0.70464(3) 0.69531(2)
N1_3 N 0.07239(19) 0.9262(4) 0.46874(10)
N6_3 N 0.20120(18) 0.9439(3) 0.65960(10)
N12_3 N 0.23327(17) 0.9415(3) 0.72734(9)
Zn3_3 Zn 0.24120(3) 0.86627(5) 0.68840(2)
I6_3 I 0.32603(2) 0.86851(5) 0.67275(2)
N14_2 N 0.04134(17) 0.1074(3) 0.89367(11)
Zn5_2 Zn 0.02214(3) 0.64327(5) 0.58713(2)
C5_4 C 0.4082(3) 0.1170(5) 0.99217(14)
H4_4 H 0.4027 0.1828 0.9918
I1_2 I 0.50387(2) 0.06847(6) 0.90326(2)
I2_4 I 0.42763(3) 0.32625(4) 0.94156(2)
N1_4 N 0.42761(19) 0.0738(4) 0.96874(10)
Zn1_2 Zn 0.43707(3) 0.14827(6) 0.93034(2)
N13_2 N 0.37660(16) 0.1114(3) 0.90746(9)
C1_3 C 0.0612(3) 0.0180(5) 0.47086(14)
H1_3 H 0.0463 0.0472 0.4552
C2_3 C 0.0706(3) 0.0722(5) 0.49512(14)
H2_3 H 0.0621 0.1366 0.4956
C3_4 C 0.0929(2) 0.0308(4) 0.51917(11)
C6_4 C 0.1036(2) 0.0861(4) 0.54536(11)
C7_4 C 0.1021(2) 0.2247(4) 0.57065(12)
C8_4 C 0.13395(19) 0.0912(4) 0.59015(11)
C9_4 C 0.0862(2) 0.3264(4) 0.57403(12)
C10_4 C 0.0599(2) 0.3690(5) 0.55273(15)
H5_4 H 0.0528 0.3356 0.5358
C11_4 C 0.0444(3) 0.4604(4) 0.55638(15)
H6_4 H 0.0278 0.4894 0.5413
C12_4 C 0.0780(3) 0.4691(5) 0.60074(16)
H7_4 H 0.0847 0.5035 0.6176
C13_4 C 0.0959(3) 0.3764(5) 0.59782(15)
H8_4 H 0.1145 0.3500 0.6124
C14_4 C 0.1565(2) 0.0405(4) 0.61503(12)
C15_4 C 0.1789(2) 0.0915(4) 0.63752(13)
H9_4 H 0.1786 0.1582 0.6379
C16_4 C 0.2013(2) 0.0395(4) 0.65892(13)
H10_4 H 0.2172 0.0725 0.6735
C19_4 C 0.3346(2) 0.1208(4) 0.91904(13)
H13_4 H 0.3327 0.1400 0.9384
C20_4 C 0.2935(2) 0.1040(4) 0.90438(11)
H14_4 H 0.2648 0.1080 0.9138
C21_4 C 0.29617(18) 0.0807(3) 0.87497(10)
C22_4 C 0.33981(18) 0.0710(4) 0.86274(11)
H15_4 H 0.3426 0.0547 0.8432
C23_4 C 0.3791(2) 0.0852(4) 0.87916(12)
H16_4 H 0.4083 0.0766 0.8706
C24_4 C 0.25284(17) 0.0678(3) 0.85755(10)
C25_4 C 0.17480(18) 0.0660(3) 0.85406(11)
C26_4 C 0.21938(18) 0.0345(3) 0.81446(10)
C27_4 C 0.12827(18) 0.0775(4) 0.86750(11)
C28_4 C 0.1233(2) 0.0842(5) 0.89747(13)
H17_4 H 0.1495 0.0790 0.9094
C29_4 C 0.0799(2) 0.0985(5) 0.90955(14)
H18_4 H 0.0775 0.1021 0.9297
C30_4 C 0.0456(2) 0.0998(6) 0.86481(15)
H19_4 H 0.0189 0.1057 0.8534
C31_4 C 0.0878(2) 0.0836(6) 0.85105(14)
H20_4 H 0.0890 0.0768 0.8309
C32_4 C 0.22413(18) 0.0064(3) 0.78390(10)
C36_4 C 0.26659(19) 0.0043(4) 0.77054(11)
H24_4 H 0.2931 0.0245 0.7805
I3_4 I 0.06845(2) 0.73178(5) 0.62576(2)
I4_4 I 0.00475(2) 0.71505(5) 0.53733(2)
N2_4 N 0.09164(17) 0.1774(3) 0.54596(10)
N3_4 N 0.12397(16) 0.1849(3) 0.59342(10)
N4_4 N 0.12479(17) 0.0397(3) 0.56699(10)
N5_4 N 0.05191(17) 0.5100(3) 0.58061(11)
N8_4 N 0.21221(15) 0.0775(3) 0.87090(9)
N9_4 N 0.17567(15) 0.0435(3) 0.82576(9)
N10_4 N 0.25848(15) 0.0459(3) 0.82947(8)
I1_3 I 0.00387(2) 0.43153(6) 0.09674(2)
C4_4 C 0.3962(3) 0.0634(5) 0.01695(14)
H3_4 H 0.3805 0.0933 0.0322
C17_4 C 0.3228(3) 0.1024(4) 0.13859(14)
H11_4 H 0.3248 0.1690 0.1394
C18_4 C 0.3439(3) 0.0556(4) 0.11648(14)
H12_4 H 0.3589 0.0905 0.1020
C33_4 C 0.3156(2) 0.0262(5) 0.26779(12)
H21_4 H 0.3452 0.0274 0.2761
C34_4 C 0.3083(2) 0.0557(5) 0.23965(13)
H22_4 H 0.3341 0.0745 0.2287
C35_4 C 0.2297(2) 0.0279(4) 0.24217(11)
H23_4 H 0.2005 0.0281 0.2332
I5_4 I 0.29918(2) 0.29536(3) 0.19531(2)
N6_4 N 0.29880(18) 0.0561(3) 0.15960(10)
N12_4 N 0.26673(17) 0.0585(3) 0.22734(9)
Zn3_4 Zn 0.25880(3) 0.13373(5) 0.18840(2)
I6_4 I 0.17397(2) 0.13149(5) 0.17275(2)
C1_4 C 0.4388(3) 0.9820(5) 0.97086(14)
H1_4 H 0.4537 0.9528 0.9552
C2_4 C 0.4294(3) 0.9278(5) 0.99512(14)
H2_4 H 0.4379 0.8634 0.9956
I1_4 I 0.99613(2) 0.93153(6) 0.40326(2)
H7_5 H 0.4153 0.0035 0.6176
I3_5 I 0.43155(2) 0.23178(5) 0.62576(2)
I4_5 I 0.49525(2) 0.21505(5) 0.53733(2)
N5_5 N 0.44809(17) 0.0100(3) 0.58061(11)
Zn2_3 Zn 0.47786(3) 0.14327(5) 0.58713(2)
N14_3 N 0.54134(17) 0.1074(3) 0.60633(11)
C1_5 C 0.4388(3) 0.5180(5) 0.47086(14)
H1_5 H 0.4537 0.5472 0.4552
C2_5 C 0.4294(3) 0.5722(5) 0.49512(14)
H2_5 H 0.4379 0.6366 0.4956
C3_5 C 0.4071(2) 0.5308(4) 0.51917(11)
C4_5 C 0.3962(3) 0.4366(5) 0.51695(14)
H3_5 H 0.3805 0.4067 0.5322
C5_5 C 0.4082(3) 0.3830(5) 0.49217(14)
H4_5 H 0.4027 0.3172 0.4918
C6_5 C 0.3964(2) 0.5861(4) 0.54536(11)
C7_5 C 0.3979(2) 0.7247(4) 0.57065(12)
C8_5 C 0.36605(19) 0.5912(4) 0.59015(11)
C9_5 C 0.4138(2) 0.8264(4) 0.57403(12)
C10_5 C 0.4401(2) 0.8690(5) 0.55273(15)
H5_5 H 0.4472 0.8356 0.5358
C11_5 C 0.4556(3) 0.9604(4) 0.55638(15)
H6_5 H 0.4722 0.9894 0.5413
C12_5 C 0.4220(3) 0.9691(5) 0.60074(16)
C13_5 C 0.4041(3) 0.8764(5) 0.59782(15)
H8_5 H 0.3855 0.8500 0.6124
C14_5 C 0.3435(2) 0.5405(4) 0.61503(12)
C15_5 C 0.3211(2) 0.5915(4) 0.63752(13)
H9_5 H 0.3214 0.6582 0.6379
C16_5 C 0.2987(2) 0.5395(4) 0.65892(13)
H10_5 H 0.2828 0.5725 0.6735
C17_5 C 0.3228(3) 0.3976(4) 0.63859(14)
H11_5 H 0.3248 0.3310 0.6394
C18_5 C 0.3439(3) 0.4444(4) 0.61648(14)
H12_5 H 0.3589 0.4095 0.6020
C19_5 C 0.1654(2) 0.6208(4) 0.91904(13)
H13_5 H 0.1673 0.6400 0.9384
C20_5 C 0.2065(2) 0.6040(4) 0.90438(11)
H14_5 H 0.2352 0.6080 0.9138
C21_5 C 0.20383(18) 0.5807(3) 0.87497(10)
C22_5 C 0.16019(18) 0.5710(4) 0.86274(11)
H15_5 H 0.1574 0.5547 0.8432
C23_5 C 0.1209(2) 0.5852(4) 0.87916(12)
H16_5 H 0.0917 0.5766 0.8706
C24_5 C 0.24716(17) 0.5678(3) 0.85755(10)
C25_5 C 0.32520(18) 0.5660(3) 0.85406(11)
C26_5 C 0.28062(18) 0.5345(3) 0.81446(10)
C27_5 C 0.37173(18) 0.5775(4) 0.86750(11)
C28_5 C 0.3767(2) 0.5842(5) 0.89747(13)
H17_5 H 0.3505 0.5790 0.9094
C29_5 C 0.4201(2) 0.5985(5) 0.90955(14)
H18_5 H 0.4225 0.6021 0.9297
C30_5 C 0.4544(2) 0.5998(6) 0.86481(15)
H19_5 H 0.4811 0.6057 0.8534
C31_5 C 0.4122(2) 0.5836(6) 0.85105(14)
H20_5 H 0.4110 0.5768 0.8309
C32_5 C 0.27587(18) 0.5064(3) 0.78390(10)
C33_5 C 0.3156(2) 0.4738(5) 0.76779(12)
H21_5 H 0.3452 0.4726 0.7761
C34_5 C 0.3083(2) 0.4443(5) 0.73965(13)
H22_5 H 0.3341 0.4255 0.7287
C35_5 C 0.2297(2) 0.4721(4) 0.74217(11)
H23_5 H 0.2005 0.4719 0.7332
C36_5 C 0.23341(19) 0.5043(4) 0.77054(11)
H24_5 H 0.2069 0.5245 0.7805
I1_5 I 0.50387(2) 0.43153(6) 0.40326(2)
I2_5 I 0.42763(3) 0.17375(4) 0.44156(2)
I5_5 I 0.29918(2) 0.20464(3) 0.69531(2)
N1_5 N 0.42761(19) 0.4262(4) 0.46874(10)
N2_5 N 0.40836(17) 0.6774(3) 0.54596(10)
N3_5 N 0.37603(16) 0.6849(3) 0.59342(10)
N4_5 N 0.37521(17) 0.5397(3) 0.56699(10)
N6_5 N 0.29880(18) 0.4439(3) 0.65960(10)
N7_3 N 0.12340(16) 0.6114(3) 0.90746(9)
N8_5 N 0.28779(15) 0.5775(3) 0.87090(9)
N9_5 N 0.32433(15) 0.5435(3) 0.82576(9)
N10_5 N 0.24152(15) 0.5459(3) 0.82947(8)
N11_3 N 0.45866(17) 0.6074(3) 0.89367(11)
N12_5 N 0.26673(17) 0.4415(3) 0.72734(9)
Zn1_3 Zn 0.43707(3) 0.35173(6) 0.43034(2)
Zn3_5 Zn 0.25880(3) 0.36627(5) 0.68840(2)
I6_5 I 0.17397(2) 0.36851(5) 0.67275(2)
N13_3 N 0.37660(16) 0.3886(3) 0.40746(9)
Zn4_3 Zn 0.06293(3) 0.64827(6) 0.93034(2)
Zn5_3 Zn 0.52214(3) 0.64327(5) 0.91287(2)
C3_6 C 0.0929(2) 0.4692(4) 0.01917(11)
C4_6 C 0.1038(3) 0.5634(5) 0.01695(14)
H3_6 H 0.1195 0.5933 0.0322
C6_6 C 0.1036(2) 0.4139(4) 0.04536(11)
C7_6 C 0.1021(2) 0.2753(4) 0.07065(12)
C8_6 C 0.13395(19) 0.4088(4) 0.09015(11)
C9_6 C 0.0862(2) 0.1736(4) 0.07403(12)
C10_6 C 0.0599(2) 0.1310(5) 0.05273(15)
H5_6 H 0.0528 0.1644 0.0358
C11_6 C 0.0444(3) 0.0396(4) 0.05638(15)
H6_6 H 0.0278 0.0106 0.0413
C12_6 C 0.0780(3) 0.0309(5) 0.10074(16)
C13_6 C 0.0959(3) 0.1236(5) 0.09782(15)
H8_6 H 0.1145 0.1500 0.1124
C14_6 C 0.1565(2) 0.4595(4) 0.11503(12)
C15_6 C 0.1789(2) 0.4085(4) 0.13752(13)
H9_6 H 0.1786 0.3418 0.1379
C16_6 C 0.2013(2) 0.4605(4) 0.15892(13)
H10_6 H 0.2172 0.4275 0.1735
C17_6 C 0.1772(3) 0.6024(4) 0.13859(14)
H11_6 H 0.1752 0.6690 0.1394
C18_6 C 0.1561(3) 0.5556(4) 0.11648(14)
H12_6 H 0.1411 0.5905 0.1020
C19_6 C 0.3346(2) 0.3792(4) 0.41904(13)
H13_6 H 0.3327 0.3600 0.4384
C20_6 C 0.2935(2) 0.3960(4) 0.40438(11)
H14_6 H 0.2648 0.3920 0.4138
C21_6 C 0.29617(18) 0.4193(3) 0.37497(10)
C22_6 C 0.33981(18) 0.4290(4) 0.36274(11)
H15_6 H 0.3426 0.4453 0.3432
C23_6 C 0.3791(2) 0.4148(4) 0.37916(12)
H16_6 H 0.4083 0.4234 0.3706
C24_6 C 0.25284(17) 0.4322(3) 0.35755(10)
C25_6 C 0.17480(18) 0.4340(3) 0.35406(11)
C26_6 C 0.21938(18) 0.4655(3) 0.31446(10)
C27_6 C 0.12827(18) 0.4225(4) 0.36750(11)
C28_6 C 0.1233(2) 0.4158(5) 0.39747(13)
H17_6 H 0.1495 0.4210 0.4094
C29_6 C 0.0799(2) 0.4015(5) 0.40955(14)
H18_6 H 0.0775 0.3979 0.4297
C30_6 C 0.0456(2) 0.4002(6) 0.36481(15)
H19_6 H 0.0189 0.3943 0.3534
C31_6 C 0.0878(2) 0.4164(6) 0.35105(14)
H20_6 H 0.0890 0.4232 0.3309
C32_6 C 0.22413(18) 0.4936(3) 0.28390(10)
C33_6 C 0.1844(2) 0.5262(5) 0.26779(12)
H21_6 H 0.1548 0.5274 0.2761
C34_6 C 0.1917(2) 0.5557(5) 0.23965(13)
H22_6 H 0.1659 0.5745 0.2287
C35_6 C 0.2703(2) 0.5279(4) 0.24217(11)
H23_6 H 0.2995 0.5281 0.2332
C36_6 C 0.26659(19) 0.4957(4) 0.27054(11)
H24_6 H 0.2931 0.4755 0.2805
I5_6 I 0.20082(2) 0.79536(3) 0.19531(2)
N2_6 N 0.09164(17) 0.3226(3) 0.04596(10)
N3_6 N 0.12397(16) 0.3151(3) 0.09342(10)
N4_6 N 0.12479(17) 0.4603(3) 0.06699(10)
N6_6 N 0.20120(18) 0.5561(3) 0.15960(10)
N8_6 N 0.21221(15) 0.4225(3) 0.37090(9)
N9_6 N 0.17567(15) 0.4565(3) 0.32576(9)
N10_6 N 0.25848(15) 0.4541(3) 0.32947(8)
N11_4 N 0.04134(17) 0.3926(3) 0.39367(11)
N12_6 N 0.23327(17) 0.5585(3) 0.22734(9)
Zn3_6 Zn 0.24120(3) 0.63373(5) 0.18840(2)
I6_6 I 0.32603(2) 0.63149(5) 0.17275(2)
C1_6 C 0.0612(3) 0.4820(5) 0.97086(14)
H1_6 H 0.0463 0.4528 0.9552
C2_6 C 0.0706(3) 0.4278(5) 0.99512(14)
H2_6 H 0.0621 0.3634 0.9956
C5_6 C 0.0918(3) 0.6170(5) 0.99217(14)
H4_6 H 0.0973 0.6828 0.9918
I2_6 I 0.07237(3) 0.82625(4) 0.94156(2)
N1_6 N 0.07239(19) 0.5738(4) 0.96874(10)
H7_6 H 0.0847 0.9965 0.1176
I3_6 I 0.06845(2) 0.76822(5) 0.12576(2)
I4_6 I 0.00475(2) 0.78495(5) 0.03733(2)
N5_6 N 0.05191(17) 0.9900(3) 0.08061(11)
Zn2_4 Zn 0.02214(3) 0.85673(5) 0.08713(2)
C3_7 C 0.5929(2) 0.0308(4) 0.98083(11)
C6_7 C 0.6036(2) 0.0861(4) 0.95464(11)
C7_7 C 0.6021(2) 0.2247(4) 0.92935(12)
C8_7 C 0.63395(19) 0.0912(4) 0.90985(11)
C9_7 C 0.5862(2) 0.3264(4) 0.92597(12)
C10_7 C 0.5599(2) 0.3690(5) 0.94727(15)
H5_7 H 0.5528 0.3356 0.9642
C11_7 C 0.5444(3) 0.4604(4) 0.94362(15)
H6_7 H 0.5278 0.4894 0.9587
C12_7 C 0.5780(3) 0.4691(5) 0.89926(16)
H7_7 H 0.5847 0.5035 0.8824
C13_7 C 0.5959(3) 0.3764(5) 0.90218(15)
H8_7 H 0.6145 0.3500 0.8876
C14_7 C 0.6565(2) 0.0405(4) 0.88497(12)
C15_7 C 0.6789(2) 0.0915(4) 0.86248(13)
H9_7 H 0.6786 0.1582 0.8621
C16_7 C 0.7013(2) 0.0395(4) 0.84108(13)
H10_7 H 0.7172 0.0725 0.8265
C19_7 C 0.8346(2) 0.1208(4) 0.58096(13)
H13_7 H 0.8327 0.1400 0.5616
C20_7 C 0.7935(2) 0.1040(4) 0.59562(11)
H14_7 H 0.7648 0.1080 0.5862
C21_7 C 0.79617(18) 0.0807(3) 0.62503(10)
C22_7 C 0.83981(18) 0.0710(4) 0.63726(11)
H15_7 H 0.8426 0.0547 0.6568
C23_7 C 0.8791(2) 0.0852(4) 0.62084(12)
H16_7 H 0.9083 0.0766 0.6294
C24_7 C 0.75284(17) 0.0678(3) 0.64245(10)
C25_7 C 0.67480(18) 0.0660(3) 0.64594(11)
C26_7 C 0.71938(18) 0.0345(3) 0.68554(10)
C27_7 C 0.62827(18) 0.0775(4) 0.63250(11)
C28_7 C 0.6233(2) 0.0842(5) 0.60253(13)
H17_7 H 0.6495 0.0790 0.5906
C29_7 C 0.5799(2) 0.0985(5) 0.59045(14)
H18_7 H 0.5775 0.1021 0.5703
C30_7 C 0.5456(2) 0.0998(6) 0.63519(15)
H19_7 H 0.5189 0.1057 0.6466
C31_7 C 0.5878(2) 0.0836(6) 0.64895(14)
H20_7 H 0.5890 0.0768 0.6691
C32_7 C 0.72413(18) 0.0064(3) 0.71610(10)
C36_7 C 0.76659(19) 0.0043(4) 0.72946(11)
H24_7 H 0.7931 0.0245 0.7195
I3_7 I 0.56845(2) 0.73178(5) 0.87424(2)
I4_7 I 0.50475(2) 0.71505(5) 0.96267(2)
N2_7 N 0.59164(17) 0.1774(3) 0.95404(10)
N3_7 N 0.62397(16) 0.1849(3) 0.90658(10)
N4_7 N 0.62479(17) 0.0397(3) 0.93301(10)
N5_7 N 0.55191(17) 0.5100(3) 0.91939(11)
N7_4 N 0.87660(16) 0.1114(3) 0.59254(9)
N8_7 N 0.71221(15) 0.0775(3) 0.62910(9)
N9_7 N 0.67567(15) 0.0435(3) 0.67424(9)
N10_7 N 0.75848(15) 0.0459(3) 0.67053(8)
Zn4_4 Zn 0.93707(3) 0.14827(6) 0.56966(2)
C4_7 C 0.8962(3) 0.0634(5) 0.48305(14)
H3_7 H 0.8805 0.0933 0.4678
C5_7 C 0.9082(3) 0.1170(5) 0.50783(14)
H4_7 H 0.9027 0.1828 0.5082
C17_7 C 0.8228(3) 0.1024(4) 0.36141(14)
H11_7 H 0.8248 0.1690 0.3606
C18_7 C 0.8439(3) 0.0556(4) 0.38352(14)
H12_7 H 0.8589 0.0905 0.3980
C33_7 C 0.8156(2) 0.0262(5) 0.23221(12)
H21_7 H 0.8452 0.0274 0.2239
C34_7 C 0.8083(2) 0.0557(5) 0.26035(13)
H22_7 H 0.8341 0.0745 0.2713
C35_7 C 0.7297(2) 0.0279(4) 0.25783(11)
H23_7 H 0.7005 0.0281 0.2668
I2_7 I 0.92763(3) 0.32625(4) 0.55844(2)
I5_7 I 0.79918(2) 0.29536(3) 0.30469(2)
N1_7 N 0.92761(19) 0.0738(4) 0.53126(10)
N6_7 N 0.79880(18) 0.0561(3) 0.34040(10)
N12_7 N 0.76673(17) 0.0585(3) 0.27266(9)
Zn3_7 Zn 0.75880(3) 0.13373(5) 0.31160(2)
I6_7 I 0.67397(2) 0.13149(5) 0.32725(2)
Zn5_4 Zn 0.97786(3) 0.35673(5) 0.41287(2)
N14_4 N 0.95866(17) 0.8926(3) 0.10633(11)
C5_8 C 0.5918(3) 0.8830(5) 0.00783(14)
H4_8 H 0.5973 0.8172 0.0082
I1_6 I 0.49613(2) 0.93153(6) 0.09674(2)
I2_8 I 0.57237(3) 0.67375(4) 0.05844(2)
N1_8 N 0.57239(19) 0.9262(4) 0.03126(10)
Zn1_4 Zn 0.56293(3) 0.85173(6) 0.06966(2)
N13_4 N 0.62340(16) 0.8886(3) 0.09254(9)
C1_7 C 0.9388(3) 0.9820(5) 0.52914(14)
H1_7 H 0.9537 0.9528 0.5448
C2_7 C 0.9294(3) 0.9278(5) 0.50488(14)
H2_7 H 0.9379 0.8634 0.5044
C3_8 C 0.9071(2) 0.9692(4) 0.48083(11)
C6_8 C 0.8964(2) 0.9139(4) 0.45464(11)
C7_8 C 0.8979(2) 0.7753(4) 0.42935(12)
C8_8 C 0.86605(19) 0.9088(4) 0.40985(11)
C9_8 C 0.9138(2) 0.6736(4) 0.42597(12)
C10_8 C 0.9401(2) 0.6310(5) 0.44727(15)
H5_8 H 0.9472 0.6644 0.4642
C11_8 C 0.9556(3) 0.5396(4) 0.44362(15)
H6_8 H 0.9722 0.5106 0.4587
C12_8 C 0.9220(3) 0.5309(5) 0.39926(16)
H7_8 H 0.9153 0.4965 0.3824
C13_8 C 0.9041(3) 0.6236(5) 0.40218(15)
H8_8 H 0.8855 0.6500 0.3876
C14_8 C 0.8435(2) 0.9595(4) 0.38497(12)
C15_8 C 0.8211(2) 0.9085(4) 0.36248(13)
H9_8 H 0.8214 0.8418 0.3621
C16_8 C 0.7987(2) 0.9605(4) 0.34108(13)
H10_8 H 0.7828 0.9275 0.3265
C19_8 C 0.6654(2) 0.8792(4) 0.08096(13)
H13_8 H 0.6673 0.8600 0.0616
C20_8 C 0.7065(2) 0.8960(4) 0.09562(11)
H14_8 H 0.7352 0.8920 0.0862
C21_8 C 0.70383(18) 0.9193(3) 0.12503(10)
C22_8 C 0.66019(18) 0.9290(4) 0.13726(11)
H15_8 H 0.6574 0.9453 0.1568
C23_8 C 0.6209(2) 0.9148(4) 0.12084(12)
H16_8 H 0.5917 0.9234 0.1294
C24_8 C 0.74716(17) 0.9322(3) 0.14245(10)
C25_8 C 0.82520(18) 0.9340(3) 0.14594(11)
C26_8 C 0.78062(18) 0.9655(3) 0.18554(10)
C27_8 C 0.87173(18) 0.9225(4) 0.13250(11)
C28_8 C 0.8767(2) 0.9158(5) 0.10253(13)
H17_8 H 0.8505 0.9210 0.0906
C29_8 C 0.9201(2) 0.9015(5) 0.09045(14)
H18_8 H 0.9225 0.8979 0.0703
C30_8 C 0.9544(2) 0.9002(6) 0.13519(15)
H19_8 H 0.9811 0.8943 0.1466
C31_8 C 0.9122(2) 0.9164(6) 0.14895(14)
H20_8 H 0.9110 0.9232 0.1691
C32_8 C 0.77587(18) 0.9936(3) 0.21610(10)
C36_8 C 0.73341(19) 0.9957(4) 0.22946(11)
H24_8 H 0.7069 0.9755 0.2195
I3_8 I 0.93155(2) 0.26822(5) 0.37424(2)
I4_8 I 0.99525(2) 0.28495(5) 0.46267(2)
N2_8 N 0.90836(17) 0.8226(3) 0.45404(10)
N3_8 N 0.87603(16) 0.8151(3) 0.40658(10)
N4_8 N 0.87521(17) 0.9603(3) 0.43301(10)
N5_8 N 0.94809(17) 0.4900(3) 0.41939(11)
N8_8 N 0.78779(15) 0.9225(3) 0.12910(9)
N9_8 N 0.82433(15) 0.9565(3) 0.17424(9)
N10_8 N 0.74152(15) 0.9541(3) 0.17053(8)
I1_7 I 0.99613(2) 0.56847(6) 0.90326(2)
C1_8 C 0.5612(3) 0.0180(5) 0.02914(14)
H1_8 H 0.5463 0.0472 0.0448
C2_8 C 0.5706(3) 0.0722(5) 0.00488(14)
H2_8 H 0.5621 0.1366 0.0044
C4_8 C 0.6038(3) 0.9366(5) 0.98305(14)
H3_8 H 0.6195 0.9067 0.9678
C17_8 C 0.6772(3) 0.8976(4) 0.86141(14)
H11_8 H 0.6752 0.8310 0.8606
C18_8 C 0.6561(3) 0.9444(4) 0.88352(14)
H12_8 H 0.6411 0.9095 0.8980
C33_8 C 0.6844(2) 0.9738(5) 0.73221(12)
H21_8 H 0.6548 0.9726 0.7239
C34_8 C 0.6917(2) 0.9443(5) 0.76035(13)
H22_8 H 0.6659 0.9255 0.7713
C35_8 C 0.7703(2) 0.9721(4) 0.75783(11)
H23_8 H 0.7995 0.9719 0.7668
I5_8 I 0.70082(2) 0.70464(3) 0.80469(2)
N6_8 N 0.70120(18) 0.9439(3) 0.84040(10)
N12_8 N 0.73327(17) 0.9415(3) 0.77266(9)
Zn3_8 Zn 0.74120(3) 0.86627(5) 0.81160(2)
I6_8 I 0.82603(2) 0.86851(5) 0.82725(2)
I1_8 I 0.00387(2) 0.06847(6) 0.59674(2)
loop_
_geom_bond_atom_site_label_1
_geom_bond_atom_site_label_2
_geom_bond_site_symmetry_1
_geom_bond_site_symmetry_2
C1 H1 1_555 1_555
C2 C1 1_555 1_555
H2 C2 1_555 1_555
C3 C2 1_555 1_555
C4 C3 1_555 1_555
H3 C4 1_555 1_555
C5 C4 1_555 1_555
H4 C5 1_555 1_555
C6 C3 1_555 1_555
C7 C9 1_555 1_555
C8 C14 1_555 1_555
C9 C10 1_555 1_555
C10 H5 1_555 1_555
C11 C10 1_555 1_555
H6 C11 1_555 1_555
C13 C9 1_555 1_555
H8 C13 1_555 1_555
C14 C15 1_555 1_555
C15 H9 1_555 1_555
C16 C15 1_555 1_555
H10 C16 1_555 1_555
C17 H11 1_555 1_555
C18 C14 1_555 1_555
H12 C18 1_555 1_555
C19 H13 1_555 1_555
C20 C19 1_555 1_555
H14 C20 1_555 1_555
C21 C20 1_555 1_555
C22 C21 1_555 1_555
H15 C22 1_555 1_555
C23 C22 1_555 1_555
H16 C23 1_555 1_555
C24 C21 1_555 1_555
C25 C27 1_555 1_555
C26 C32 1_555 1_555
C27 C28 1_555 1_555
C28 H17 1_555 1_555
C29 C28 1_555 1_555
H18 C29 1_555 1_555
C30 H19 1_555 1_555
C31 C27 1_555 1_555
H20 C31 1_555 1_555
C32 C33 1_555 1_555
C33 H21 1_555 1_555
C34 C33 1_555 1_555
H22 C34 1_555 1_555
C35 H23 1_555 1_555
C36 C32 1_555 1_555
H24 C36 1_555 1_555
I1 Zn1 1_555 1_555
I2 Zn1 1_555 1_555
I5 Zn3 1_555 1_555
N1 C1 1_555 1_555
N2 C6 1_555 1_555
N3 C7 1_555 1_555
N4 C6 1_555 1_555
N6 C16 1_555 1_555
N7 C19 1_555 1_555
N8 C24 1_555 1_555
N9 C25 1_555 1_555
N10 C24 1_555 1_555
N11 C29 1_555 1_555
N12 C34 1_555 1_555
Zn1 N1 1_555 1_555
Zn3 N6 1_555 1_555
I6 Zn3 1_555 1_555
N13 Zn1 1_555 1_555
Zn4 N7 1_555 1_555
Zn5 N11 1_555 1_555
C5 N1 1_555 1_555
C7 N2 1_555 1_555
C8 N3 1_555 1_555
C8 N4 1_555 1_555
C12 C13 1_555 1_555
C17 C18 1_555 1_555
C17 N6 1_555 1_555
C23 N7 1_555 1_555
C25 N8 1_555 1_555
C26 N9 1_555 1_555
C26 N10 1_555 1_555
C30 C31 1_555 1_555
C30 N11 1_555 1_555
C35 C36 1_555 1_555
C35 N12 1_555 1_555
N12 Zn3 1_555 1_555
I3 Zn2 1_555 1_555
I4 Zn2 1_555 1_555
Zn2 N5 1_555 1_555
N14 Zn2 1_555 1_555
I3_2 Zn2_2 1_555 1_555
I4_2 Zn2_2 1_555 1_555
Zn2_2 N5_2 1_555 1_555
C1_2 H1_2 1_555 1_555
C2_2 C1_2 1_555 1_555
H2_2 C2_2 1_555 1_555
H4_2 C5_2 1_555 1_555
I2_2 Zn4 1_555 1_555
N1_2 C1_2 1_555 1_555
Zn4 N1_2 1_555 1_555
C5_2 N1_2 1_555 1_555
C4_2 C3_2 1_555 1_555
H3_2 C4_2 1_555 1_555
C6_2 C3_2 1_555 1_555
C7_2 C9_2 1_555 1_555
C8_2 C14_2 1_555 1_555
C9_2 C10_2 1_555 1_555
C10_2 H5_2 1_555 1_555
C11_2 C10_2 1_555 1_555
H6_2 C11_2 1_555 1_555
C13_2 C9_2 1_555 1_555
H8_2 C13_2 1_555 1_555
C14_2 C15_2 1_555 1_555
C15_2 H9_2 1_555 1_555
C16_2 C15_2 1_555 1_555
H10_2 C16_2 1_555 1_555
C17_2 H11_2 1_555 1_555
C18_2 C14_2 1_555 1_555
H12_2 C18_2 1_555 1_555
C19_2 H13_2 1_555 1_555
C20_2 C19_2 1_555 1_555
H14_2 C20_2 1_555 1_555
C21_2 C20_2 1_555 1_555
C22_2 C21_2 1_555 1_555
H15_2 C22_2 1_555 1_555
C23_2 C22_2 1_555 1_555
H16_2 C23_2 1_555 1_555
C24_2 C21_2 1_555 1_555
C25_2 C27_2 1_555 1_555
C26_2 C32_2 1_555 1_555
C27_2 C28_2 1_555 1_555
C28_2 H17_2 1_555 1_555
C29_2 C28_2 1_555 1_555
H18_2 C29_2 1_555 1_555
C30_2 H19_2 1_555 1_555
C31_2 C27_2 1_555 1_555
H20_2 C31_2 1_555 1_555
C32_2 C33_2 1_555 1_555
C33_2 H21_2 1_555 1_555
C34_2 C33_2 1_555 1_555
H22_2 C34_2 1_555 1_555
C35_2 H23_2 1_555 1_555
C36_2 C32_2 1_555 1_555
H24_2 C36_2 1_555 1_555
I5_2 Zn3_2 1_555 1_555
N2_2 C6_2 1_555 1_555
N3_2 C7_2 1_555 1_555
N4_2 C6_2 1_555 1_555
N6_2 C16_2 1_555 1_555
N13 C19_2 1_555 1_555
N8_2 C24_2 1_555 1_555
N9_2 C25_2 1_555 1_555
N10_2 C24_2 1_555 1_555
N11_2 C29_2 1_555 1_555
N12_2 C34_2 1_555 1_555
Zn3_2 N6_2 1_555 1_555
I6_2 Zn3_2 1_555 1_555
C7_2 N2_2 1_555 1_555
C8_2 N3_2 1_555 1_555
C8_2 N4_2 1_555 1_555
C12_2 C13_2 1_555 1_555
C17_2 C18_2 1_555 1_555
C17_2 N6_2 1_555 1_555
C23_2 N13 1_555 1_555
C25_2 N8_2 1_555 1_555
C26_2 N9_2 1_555 1_555
C26_2 N10_2 1_555 1_555
C30_2 C31_2 1_555 1_555
C30_2 N11_2 1_555 1_555
C35_2 C36_2 1_555 1_555
C35_2 N12_2 1_555 1_555
N12_2 Zn3_2 1_555 1_555
C6_3 C3_3 1_555 1_555
C7_3 C9_3 1_555 1_555
C8_3 C14_3 1_555 1_555
C9_3 C10_3 1_555 1_555
C10_3 H5_3 1_555 1_555
C11_3 C10_3 1_555 1_555
H6_3 C11_3 1_555 1_555
C12_3 H7_3 1_555 1_555
C13_3 C9_3 1_555 1_555
H8_3 C13_3 1_555 1_555
C14_3 C15_3 1_555 1_555
C15_3 H9_3 1_555 1_555
C16_3 C15_3 1_555 1_555
H10_3 C16_3 1_555 1_555
C19_3 H13_3 1_555 1_555
C20_3 C19_3 1_555 1_555
H14_3 C20_3 1_555 1_555
C21_3 C20_3 1_555 1_555
C22_3 C21_3 1_555 1_555
H15_3 C22_3 1_555 1_555
C23_3 C22_3 1_555 1_555
H16_3 C23_3 1_555 1_555
C24_3 C21_3 1_555 1_555
C25_3 C27_3 1_555 1_555
C26_3 C32_3 1_555 1_555
C27_3 C28_3 1_555 1_555
C28_3 H17_3 1_555 1_555
C29_3 C28_3 1_555 1_555
H18_3 C29_3 1_555 1_555
C30_3 H19_3 1_555 1_555
C31_3 C27_3 1_555 1_555
H20_3 C31_3 1_555 1_555
C36_3 C32_3 1_555 1_555
H24_3 C36_3 1_555 1_555
I3_3 Zn5 1_555 1_555
I4_3 Zn5 1_555 1_555
N2_3 C6_3 1_555 1_555
N3_3 C7_3 1_555 1_555
N4_3 C6_3 1_555 1_555
N5_3 C11_3 1_555 1_555
N7_2 C19_3 1_555 1_555
N8_3 C24_3 1_555 1_555
N9_3 C25_3 1_555 1_555
N10_3 C24_3 1_555 1_555
N14 C29_3 1_555 1_555
Zn5 N5_3 1_555 1_555
Zn4_2 N7_2 1_555 1_555
C7_3 N2_3 1_555 1_555
C8_3 N3_3 1_555 1_555
C8_3 N4_3 1_555 1_555
C12_3 C13_3 1_555 1_555
C12_3 N5_3 1_555 1_555
C23_3 N7_2 1_555 1_555
C25_3 N8_3 1_555 1_555
C26_3 N9_3 1_555 1_555
C26_3 N10_3 1_555 1_555
C30_3 C31_3 1_555 1_555
C30_3 N14 1_555 1_555
H3_3 C4_3 1_555 1_555
C5_3 C4_3 1_555 1_555
H4_3 C5_3 1_555 1_555
C17_3 H11_3 1_555 1_555
H12_3 C18_3 1_555 1_555
C33_3 H21_3 1_555 1_555
C34_3 C33_3 1_555 1_555
H22_3 C34_3 1_555 1_555
C35_3 H23_3 1_555 1_555
I2_3 Zn4_2 1_555 1_555
I5_3 Zn3_3 1_555 1_555
N12_3 C34_3 1_555 1_555
Zn4_2 N1_3 1_555 1_555
Zn3_3 N6_3 1_555 1_555
I6_3 Zn3_3 1_555 1_555
C5_3 N1_3 1_555 1_555
C17_3 C18_3 1_555 1_555
C17_3 N6_3 1_555 1_555
C35_3 N12_3 1_555 1_555
N12_3 Zn3_3 1_555 1_555
H4_4 C5_4 1_555 1_555
I1_2 Zn1_2 1_555 1_555
I2_4 Zn1_2 1_555 1_555
Zn1_2 N1_4 1_555 1_555
N13_2 Zn1_2 1_555 1_555
C5_4 N1_4 1_555 1_555
C1_3 H1_3 1_555 1_555
C2_3 C1_3 1_555 1_555
H2_3 C2_3 1_555 1_555
C3_4 C2_3 1_555 1_555
C6_4 C3_4 1_555 1_555
C7_4 C9_4 1_555 1_555
C8_4 C14_4 1_555 1_555
C9_4 C10_4 1_555 1_555
C10_4 H5_4 1_555 1_555
C11_4 C10_4 1_555 1_555
H6_4 C11_4 1_555 1_555
C12_4 H7_4 1_555 1_555
C13_4 C9_4 1_555 1_555
H8_4 C13_4 1_555 1_555
C14_4 C15_4 1_555 1_555
C15_4 H9_4 1_555 1_555
C16_4 C15_4 1_555 1_555
H10_4 C16_4 1_555 1_555
C19_4 H13_4 1_555 1_555
C20_4 C19_4 1_555 1_555
H14_4 C20_4 1_555 1_555
C21_4 C20_4 1_555 1_555
C22_4 C21_4 1_555 1_555
H15_4 C22_4 1_555 1_555
C23_4 C22_4 1_555 1_555
H16_4 C23_4 1_555 1_555
C24_4 C21_4 1_555 1_555
C25_4 C27_4 1_555 1_555
C26_4 C32_4 1_555 1_555
C27_4 C28_4 1_555 1_555
C28_4 H17_4 1_555 1_555
C29_4 C28_4 1_555 1_555
H18_4 C29_4 1_555 1_555
C30_4 H19_4 1_555 1_555
C31_4 C27_4 1_555 1_555
H20_4 C31_4 1_555 1_555
C36_4 C32_4 1_555 1_555
H24_4 C36_4 1_555 1_555
I3_4 Zn5_2 1_555 1_555
I4_4 Zn5_2 1_555 1_555
N2_4 C6_4 1_555 1_555
N3_4 C7_4 1_555 1_555
N4_4 C6_4 1_555 1_555
N5_4 C11_4 1_555 1_555
N13_2 C19_4 1_555 1_555
N8_4 C24_4 1_555 1_555
N9_4 C25_4 1_555 1_555
N10_4 C24_4 1_555 1_555
N14_2 C29_4 1_555 1_555
Zn5_2 N5_4 1_555 1_555
C7_4 N2_4 1_555 1_555
C8_4 N3_4 1_555 1_555
C8_4 N4_4 1_555 1_555
C12_4 C13_4 1_555 1_555
C12_4 N5_4 1_555 1_555
C23_4 N13_2 1_555 1_555
C25_4 N8_4 1_555 1_555
C26_4 N9_4 1_555 1_555
C26_4 N10_4 1_555 1_555
C30_4 C31_4 1_555 1_555
C30_4 N14_2 1_555 1_555
H3_4 C4_4 1_555 1_555
C17_4 H11_4 1_555 1_555
H12_4 C18_4 1_555 1_555
C33_4 H21_4 1_555 1_555
C34_4 C33_4 1_555 1_555
H22_4 C34_4 1_555 1_555
C35_4 H23_4 1_555 1_555
I5_4 Zn3_4 1_555 1_555
N12_4 C34_4 1_555 1_555
Zn3_4 N6_4 1_555 1_555
I6_4 Zn3_4 1_555 1_555
C17_4 C18_4 1_555 1_555
C17_4 N6_4 1_555 1_555
C35_4 N12_4 1_555 1_555
N12_4 Zn3_4 1_555 1_555
C1_4 H1_4 1_555 1_555
C2_4 C1_4 1_555 1_555
H2_4 C2_4 1_555 1_555
I3_5 Zn2_3 1_555 1_555
I4_5 Zn2_3 1_555 1_555
Zn2_3 N5_5 1_555 1_555
N14_3 Zn2_3 1_555 1_555
C1_5 H1_5 1_555 1_555
C2_5 C1_5 1_555 1_555
H2_5 C2_5 1_555 1_555
C3_5 C2_5 1_555 1_555
C4_5 C3_5 1_555 1_555
H3_5 C4_5 1_555 1_555
C5_5 C4_5 1_555 1_555
H4_5 C5_5 1_555 1_555
C6_5 C3_5 1_555 1_555
C7_5 C9_5 1_555 1_555
C8_5 C14_5 1_555 1_555
C9_5 C10_5 1_555 1_555
C10_5 H5_5 1_555 1_555
C11_5 C10_5 1_555 1_555
H6_5 C11_5 1_555 1_555
C13_5 C9_5 1_555 1_555
H8_5 C13_5 1_555 1_555
C14_5 C15_5 1_555 1_555
C15_5 H9_5 1_555 1_555
C16_5 C15_5 1_555 1_555
H10_5 C16_5 1_555 1_555
C17_5 H11_5 1_555 1_555
C18_5 C14_5 1_555 1_555
H12_5 C18_5 1_555 1_555
C19_5 H13_5 1_555 1_555
C20_5 C19_5 1_555 1_555
H14_5 C20_5 1_555 1_555
C21_5 C20_5 1_555 1_555
C22_5 C21_5 1_555 1_555
H15_5 C22_5 1_555 1_555
C23_5 C22_5 1_555 1_555
H16_5 C23_5 1_555 1_555
C24_5 C21_5 1_555 1_555
C25_5 C27_5 1_555 1_555
C26_5 C32_5 1_555 1_555
C27_5 C28_5 1_555 1_555
C28_5 H17_5 1_555 1_555
C29_5 C28_5 1_555 1_555
H18_5 C29_5 1_555 1_555
C30_5 H19_5 1_555 1_555
C31_5 C27_5 1_555 1_555
H20_5 C31_5 1_555 1_555
C32_5 C33_5 1_555 1_555
C33_5 H21_5 1_555 1_555
C34_5 C33_5 1_555 1_555
H22_5 C34_5 1_555 1_555
C35_5 H23_5 1_555 1_555
C36_5 C32_5 1_555 1_555
H24_5 C36_5 1_555 1_555
I1_5 Zn1_3 1_555 1_555
I2_5 Zn1_3 1_555 1_555
I5_5 Zn3_5 1_555 1_555
N1_5 C1_5 1_555 1_555
N2_5 C6_5 1_555 1_555
N3_5 C7_5 1_555 1_555
N4_5 C6_5 1_555 1_555
N6_5 C16_5 1_555 1_555
N7_3 C19_5 1_555 1_555
N8_5 C24_5 1_555 1_555
N9_5 C25_5 1_555 1_555
N10_5 C24_5 1_555 1_555
N11_3 C29_5 1_555 1_555
N12_5 C34_5 1_555 1_555
Zn1_3 N1_5 1_555 1_555
Zn3_5 N6_5 1_555 1_555
I6_5 Zn3_5 1_555 1_555
N13_3 Zn1_3 1_555 1_555
Zn4_3 N7_3 1_555 1_555
Zn5_3 N11_3 1_555 1_555
C5_5 N1_5 1_555 1_555
C7_5 N2_5 1_555 1_555
C8_5 N3_5 1_555 1_555
C8_5 N4_5 1_555 1_555
C12_5 C13_5 1_555 1_555
C17_5 C18_5 1_555 1_555
C17_5 N6_5 1_555 1_555
C23_5 N7_3 1_555 1_555
C25_5 N8_5 1_555 1_555
C26_5 N9_5 1_555 1_555
C26_5 N10_5 1_555 1_555
C30_5 C31_5 1_555 1_555
C30_5 N11_3 1_555 1_555
C35_5 C36_5 1_555 1_555
C35_5 N12_5 1_555 1_555
N12_5 Zn3_5 1_555 1_555
C4_6 C3_6 1_555 1_555
H3_6 C4_6 1_555 1_555
C6_6 C3_6 1_555 1_555
C7_6 C9_6 1_555 1_555
C8_6 C14_6 1_555 1_555
C9_6 C10_6 1_555 1_555
C10_6 H5_6 1_555 1_555
C11_6 C10_6 1_555 1_555
H6_6 C11_6 1_555 1_555
C13_6 C9_6 1_555 1_555
H8_6 C13_6 1_555 1_555
C14_6 C15_6 1_555 1_555
C15_6 H9_6 1_555 1_555
C16_6 C15_6 1_555 1_555
H10_6 C16_6 1_555 1_555
C17_6 H11_6 1_555 1_555
C18_6 C14_6 1_555 1_555
H12_6 C18_6 1_555 1_555
C19_6 H13_6 1_555 1_555
C20_6 C19_6 1_555 1_555
H14_6 C20_6 1_555 1_555
C21_6 C20_6 1_555 1_555
C22_6 C21_6 1_555 1_555
H15_6 C22_6 1_555 1_555
C23_6 C22_6 1_555 1_555
H16_6 C23_6 1_555 1_555
C24_6 C21_6 1_555 1_555
C25_6 C27_6 1_555 1_555
C26_6 C32_6 1_555 1_555
C27_6 C28_6 1_555 1_555
C28_6 H17_6 1_555 1_555
C29_6 C28_6 1_555 1_555
H18_6 C29_6 1_555 1_555
C30_6 H19_6 1_555 1_555
C31_6 C27_6 1_555 1_555
H20_6 C31_6 1_555 1_555
C32_6 C33_6 1_555 1_555
C33_6 H21_6 1_555 1_555
C34_6 C33_6 1_555 1_555
H22_6 C34_6 1_555 1_555
C35_6 H23_6 1_555 1_555
C36_6 C32_6 1_555 1_555
H24_6 C36_6 1_555 1_555
I5_6 Zn3_6 1_555 1_555
N2_6 C6_6 1_555 1_555
N3_6 C7_6 1_555 1_555
N4_6 C6_6 1_555 1_555
N6_6 C16_6 1_555 1_555
N13_3 C19_6 1_555 1_555
N8_6 C24_6 1_555 1_555
N9_6 C25_6 1_555 1_555
N10_6 C24_6 1_555 1_555
N11_4 C29_6 1_555 1_555
N12_6 C34_6 1_555 1_555
Zn3_6 N6_6 1_555 1_555
I6_6 Zn3_6 1_555 1_555
C7_6 N2_6 1_555 1_555
C8_6 N3_6 1_555 1_555
C8_6 N4_6 1_555 1_555
C12_6 C13_6 1_555 1_555
C17_6 C18_6 1_555 1_555
C17_6 N6_6 1_555 1_555
C23_6 N13_3 1_555 1_555
C25_6 N8_6 1_555 1_555
C26_6 N9_6 1_555 1_555
C26_6 N10_6 1_555 1_555
C30_6 C31_6 1_555 1_555
C30_6 N11_4 1_555 1_555
C35_6 C36_6 1_555 1_555
C35_6 N12_6 1_555 1_555
N12_6 Zn3_6 1_555 1_555
C1_6 H1_6 1_555 1_555
C2_6 C1_6 1_555 1_555
H2_6 C2_6 1_555 1_555
H4_6 C5_6 1_555 1_555
I2_6 Zn4_3 1_555 1_555
N1_6 C1_6 1_555 1_555
Zn4_3 N1_6 1_555 1_555
C5_6 N1_6 1_555 1_555
I3_6 Zn2_4 1_555 1_555
I4_6 Zn2_4 1_555 1_555
Zn2_4 N5_6 1_555 1_555
C6_7 C3_7 1_555 1_555
C7_7 C9_7 1_555 1_555
C8_7 C14_7 1_555 1_555
C9_7 C10_7 1_555 1_555
C10_7 H5_7 1_555 1_555
C11_7 C10_7 1_555 1_555
H6_7 C11_7 1_555 1_555
C12_7 H7_7 1_555 1_555
C13_7 C9_7 1_555 1_555
H8_7 C13_7 1_555 1_555
C14_7 C15_7 1_555 1_555
C15_7 H9_7 1_555 1_555
C16_7 C15_7 1_555 1_555
H10_7 C16_7 1_555 1_555
C19_7 H13_7 1_555 1_555
C20_7 C19_7 1_555 1_555
H14_7 C20_7 1_555 1_555
C21_7 C20_7 1_555 1_555
C22_7 C21_7 1_555 1_555
H15_7 C22_7 1_555 1_555
C23_7 C22_7 1_555 1_555
H16_7 C23_7 1_555 1_555
C24_7 C21_7 1_555 1_555
C25_7 C27_7 1_555 1_555
C26_7 C32_7 1_555 1_555
C27_7 C28_7 1_555 1_555
C28_7 H17_7 1_555 1_555
C29_7 C28_7 1_555 1_555
H18_7 C29_7 1_555 1_555
C30_7 H19_7 1_555 1_555
C31_7 C27_7 1_555 1_555
H20_7 C31_7 1_555 1_555
C36_7 C32_7 1_555 1_555
H24_7 C36_7 1_555 1_555
I3_7 Zn5_3 1_555 1_555
I4_7 Zn5_3 1_555 1_555
N2_7 C6_7 1_555 1_555
N3_7 C7_7 1_555 1_555
N4_7 C6_7 1_555 1_555
N5_7 C11_7 1_555 1_555
N7_4 C19_7 1_555 1_555
N8_7 C24_7 1_555 1_555
N9_7 C25_7 1_555 1_555
N10_7 C24_7 1_555 1_555
N14_3 C29_7 1_555 1_555
Zn5_3 N5_7 1_555 1_555
Zn4_4 N7_4 1_555 1_555
C7_7 N2_7 1_555 1_555
C8_7 N3_7 1_555 1_555
C8_7 N4_7 1_555 1_555
C12_7 C13_7 1_555 1_555
C12_7 N5_7 1_555 1_555
C23_7 N7_4 1_555 1_555
C25_7 N8_7 1_555 1_555
C26_7 N9_7 1_555 1_555
C26_7 N10_7 1_555 1_555
C30_7 C31_7 1_555 1_555
C30_7 N14_3 1_555 1_555
H3_7 C4_7 1_555 1_555
C5_7 C4_7 1_555 1_555
H4_7 C5_7 1_555 1_555
C17_7 H11_7 1_555 1_555
H12_7 C18_7 1_555 1_555
C33_7 H21_7 1_555 1_555
C34_7 C33_7 1_555 1_555
H22_7 C34_7 1_555 1_555
C35_7 H23_7 1_555 1_555
I2_7 Zn4_4 1_555 1_555
I5_7 Zn3_7 1_555 1_555
N12_7 C34_7 1_555 1_555
Zn4_4 N1_7 1_555 1_555
Zn3_7 N6_7 1_555 1_555
I6_7 Zn3_7 1_555 1_555
C5_7 N1_7 1_555 1_555
C17_7 C18_7 1_555 1_555
C17_7 N6_7 1_555 1_555
C35_7 N12_7 1_555 1_555
N12_7 Zn3_7 1_555 1_555
H4_8 C5_8 1_555 1_555
I1_6 Zn1_4 1_555 1_555
I2_8 Zn1_4 1_555 1_555
Zn1_4 N1_8 1_555 1_555
N13_4 Zn1_4 1_555 1_555
C5_8 N1_8 1_555 1_555
C1_7 H1_7 1_555 1_555
C2_7 C1_7 1_555 1_555
H2_7 C2_7 1_555 1_555
C3_8 C2_7 1_555 1_555
C6_8 C3_8 1_555 1_555
C7_8 C9_8 1_555 1_555
C8_8 C14_8 1_555 1_555
C9_8 C10_8 1_555 1_555
C10_8 H5_8 1_555 1_555
C11_8 C10_8 1_555 1_555
H6_8 C11_8 1_555 1_555
C12_8 H7_8 1_555 1_555
C13_8 C9_8 1_555 1_555
H8_8 C13_8 1_555 1_555
C14_8 C15_8 1_555 1_555
C15_8 H9_8 1_555 1_555
C16_8 C15_8 1_555 1_555
H10_8 C16_8 1_555 1_555
C19_8 H13_8 1_555 1_555
C20_8 C19_8 1_555 1_555
H14_8 C20_8 1_555 1_555
C21_8 C20_8 1_555 1_555
C22_8 C21_8 1_555 1_555
H15_8 C22_8 1_555 1_555
C23_8 C22_8 1_555 1_555
H16_8 C23_8 1_555 1_555
C24_8 C21_8 1_555 1_555
C25_8 C27_8 1_555 1_555
C26_8 C32_8 1_555 1_555
C27_8 C28_8 1_555 1_555
C28_8 H17_8 1_555 1_555
C29_8 C28_8 1_555 1_555
H18_8 C29_8 1_555 1_555
C30_8 H19_8 1_555 1_555
C31_8 C27_8 1_555 1_555
H20_8 C31_8 1_555 1_555
C36_8 C32_8 1_555 1_555
H24_8 C36_8 1_555 1_555
I3_8 Zn5_4 1_555 1_555
I4_8 Zn5_4 1_555 1_555
N2_8 C6_8 1_555 1_555
N3_8 C7_8 1_555 1_555
N4_8 C6_8 1_555 1_555
N5_8 C11_8 1_555 1_555
N13_4 C19_8 1_555 1_555
N8_8 C24_8 1_555 1_555
N9_8 C25_8 1_555 1_555
N10_8 C24_8 1_555 1_555
N14_4 C29_8 1_555 1_555
Zn5_4 N5_8 1_555 1_555
C7_8 N2_8 1_555 1_555
C8_8 N3_8 1_555 1_555
C8_8 N4_8 1_555 1_555
C12_8 C13_8 1_555 1_555
C12_8 N5_8 1_555 1_555
C23_8 N13_4 1_555 1_555
C25_8 N8_8 1_555 1_555
C26_8 N9_8 1_555 1_555
C26_8 N10_8 1_555 1_555
C30_8 C31_8 1_555 1_555
C30_8 N14_4 1_555 1_555
C1_8 H1_8 1_555 1_555
C2_8 C1_8 1_555 1_555
H2_8 C2_8 1_555 1_555
H3_8 C4_8 1_555 1_555
C17_8 H11_8 1_555 1_555
H12_8 C18_8 1_555 1_555
C33_8 H21_8 1_555 1_555
C34_8 C33_8 1_555 1_555
H22_8 C34_8 1_555 1_555
C35_8 H23_8 1_555 1_555
I5_8 Zn3_8 1_555 1_555
N12_8 C34_8 1_555 1_555
Zn3_8 N6_8 1_555 1_555
I6_8 Zn3_8 1_555 1_555
C17_8 C18_8 1_555 1_555
C17_8 N6_8 1_555 1_555
C35_8 N12_8 1_555 1_555
N12_8 Zn3_8 1_555 1_555

#END
