
###############################################################################
#
# This file contains modified crystal structure data generated from the
# MOF subset of the Cambridge Structural Database (CSD) v543 
# hosted by the Cambridge Crystallographic Data Centre (CCDC).
#
# This work is licensed under the Creative Commons
# Attribution-NonCommercial-ShareAlike 4.0 International License.
# To view a copy of this license, visit
# http://creativecommons.org/licenses/by-nc-sa/4.0/
# or send a letter to
# Creative Commons, PO Box 1866, Mountain View, CA 94042, USA.
#
# CIF created using the CSD Python API on 29 September 2022
# The structure has been converted into the P1 space group
# The structure has a 3D framework
# The original CSD entry KEVYES is in the orthorhombic crystal system
# The framework has been calculated to contain at least 10.0% void space
# The void calculation uses a probe of radius 1.32A, grid spacing 0.4
#
###############################################################################

data_KEVYES
_chemical_formula_moiety         '(C288 H192 I48 N96 Zn24)n'
_symmetry_cell_setting           triclinic
_symmetry_space_group_name_H-M   'P 1'
_symmetry_Int_Tables_number      1
_space_group_name_Hall           'P 1'
loop_
_symmetry_equiv_pos_site_id
_symmetry_equiv_pos_as_xyz
1 x,y,z
_cell_length_a                   28.738(2)
_cell_length_b                   14.0274(6)
_cell_length_c                   46.203(3)
_cell_angle_alpha                90
_cell_angle_beta                 90
_cell_angle_gamma                90
_cell_volume                     18625.3
loop_
_atom_site_label
_atom_site_type_symbol
_atom_site_fract_x
_atom_site_fract_y
_atom_site_fract_z
C1 C 0.5592(6) 0.4793(9) 0.5288(3)
H1 H 0.5435 0.4501 0.5440
C2 C 0.5695(5) 0.4260(9) 0.5041(3)
H2 H 0.5614 0.3618 0.5035
C3 C 0.5912(4) 0.4667(7) 0.4807(2)
C4 C 0.6009(5) 0.5624(8) 0.4818(3)
H3 H 0.6153 0.5928 0.4663
C5 C 0.5880(6) 0.6160(9) 0.5079(3)
H4 H 0.5913 0.6819 0.5080
C6 C 0.6024(4) 0.4150(7) 0.4538(2)
C7 C 0.6007(4) 0.2773(7) 0.4290(2)
C8 C 0.6326(4) 0.4074(7) 0.4083(2)
C9 C 0.5855(4) 0.1754(7) 0.4248(2)
C10 C 0.5574(5) 0.1313(9) 0.4482(3)
H5 H 0.5501 0.1652 0.4648
C11 C 0.5430(5) 0.0431(9) 0.4447(3)
H6 H 0.5265 0.0147 0.4597
C12 C 0.5763(6) 0.0328(10) 0.3977(3)
C13 C 0.5941(5) 0.1232(8) 0.4007(3)
H8 H 0.6123 0.1490 0.3860
C14 C 0.6535(4) 0.4574(7) 0.3842(2)
C15 C 0.6784(6) 0.4076(9) 0.3623(3)
H9 H 0.6802 0.3414 0.3625
C16 C 0.7000(5) 0.4602(8) 0.3406(3)
H10 H 0.7160 0.4279 0.3261
C17 C 0.6756(5) 0.6022(8) 0.3603(3)
H11 H 0.6741 0.6684 0.3594
C18 C 0.6540(5) 0.5569(8) 0.3828(3)
H12 H 0.6396 0.5925 0.3972
C19 C 0.8338(4) 0.3824(8) 0.0808(3)
H13 H 0.8322 0.3632 0.0616
C20 C 0.7931(4) 0.3980(8) 0.0946(2)
H14 H 0.7647 0.3937 0.0850
C21 C 0.7955(4) 0.4211(7) 0.1243(2)
C22 C 0.8388(4) 0.4318(7) 0.1369(2)
H15 H 0.8416 0.4498 0.1562
C23 C 0.8783(4) 0.4149(8) 0.1200(2)
H16 H 0.9074 0.4201 0.1287
C24 C 0.7516(4) 0.4345(6) 0.1415(2)
C25 C 0.6748(4) 0.4370(6) 0.1450(2)
C26 C 0.7187(4) 0.4674(6) 0.1847(2)
C27 C 0.6280(4) 0.4244(7) 0.1321(2)
C28 C 0.6235(4) 0.4148(8) 0.1011(2)
H17 H 0.6492 0.4166 0.0889
C29 C 0.5809(4) 0.4033(9) 0.0911(3)
H18 H 0.5776 0.4020 0.0711
C30 C 0.5455(5) 0.4008(10) 0.1339(3)
H19 H 0.5188 0.3928 0.1450
C31 C 0.5885(4) 0.4206(11) 0.1484(3)
H20 H 0.5894 0.4306 0.1683
C32 C 0.7230(4) 0.4963(6) 0.2158(2)
C33 C 0.6852(4) 0.5255(9) 0.2316(2)
H21 H 0.6557 0.5248 0.2232
C34 C 0.6904(4) 0.5558(9) 0.2595(3)
H22 H 0.6642 0.5741 0.2699
C35 C 0.7696(4) 0.5286(7) 0.2581(2)
H23 H 0.7985 0.5265 0.2671
C36 C 0.7650(4) 0.4975(7) 0.2281(2)
H24 H 0.7911 0.4787 0.2177
I1 I 0.49733(3) 0.56325(11) 0.59701(3)
I2 I 0.57142(6) 0.82201(8) 0.55897(3)
I5 I 0.70237(4) 0.79546(6) 0.30486(2)
N1 N 0.5717(4) 0.5737(6) 0.5314(2)
N2 N 0.5902(3) 0.3221(6) 0.45303(19)
N3 N 0.6227(3) 0.3168(6) 0.40557(19)
N4 N 0.6224(3) 0.4594(6) 0.43260(19)
N6 N 0.6986(3) 0.5568(6) 0.33966(19)
N7 N 0.8764(3) 0.3921(6) 0.09232(18)
N8 N 0.7120(3) 0.4230(5) 0.12845(17)
N9 N 0.6753(3) 0.4577(5) 0.17395(17)
N10 N 0.7583(3) 0.4564(5) 0.16994(16)
N11 N 0.5424(3) 0.3936(6) 0.1064(2)
N12 N 0.7326(3) 0.5600(6) 0.27264(18)
Zn1 Zn 0.56311(5) 0.64373(11) 0.56967(3)
Zn3 Zn 0.74022(5) 0.63199(9) 0.31141(3)
I6 I 0.82421(4) 0.62649(11) 0.32782(3)
N13 N 0.6236(3) 0.6079(6) 0.59232(18)
Zn4 Zn 0.93689(5) 0.35627(11) 0.06967(3)
Zn5 Zn 0.47899(5) 0.35822(9) 0.08664(4)
H7 H 0.5812 0.9998 0.3805
I3 I 0.56717(4) 0.76819(9) 0.37491(4)
I4 I 0.50403(4) 0.78822(9) 0.46345(3)
N5 N 0.5513(3) 0.9898(6) 0.4197(2)
Zn2 Zn 0.52101(5) 0.85822(9) 0.41336(4)
N14 N 0.4576(3) 0.8936(6) 0.3936(2)
H7_2 H 0.9188 0.0002 0.8805
I3_2 I 0.93283(4) 0.23181(9) 0.87491(4)
I4_2 I 0.99597(4) 0.21178(9) 0.96345(3)
N5_2 N 0.9487(3) 0.0102(6) 0.9197(2)
Zn2_2 Zn 0.97899(5) 0.14178(9) 0.91336(4)
C1_2 C 0.9408(6) 0.5207(9) 0.0288(3)
H1_2 H 0.9565 0.5499 0.0440
C2_2 C 0.9305(5) 0.5740(9) 0.0041(3)
H2_2 H 0.9386 0.6382 0.0035
C5_2 C 0.9120(6) 0.3840(9) 0.0079(3)
H4_2 H 0.9087 0.3181 0.0080
I2_2 I 0.92858(6) 0.17799(8) 0.05897(3)
N1_2 N 0.9283(4) 0.4263(6) 0.0314(2)
C3_2 C 0.9088(4) 0.5333(7) 0.9807(2)
C4_2 C 0.8991(5) 0.4376(8) 0.9818(3)
H3_2 H 0.8847 0.4072 0.9663
C6_2 C 0.8976(4) 0.5850(7) 0.9538(2)
C7_2 C 0.8993(4) 0.7227(7) 0.9290(2)
C8_2 C 0.8674(4) 0.5926(7) 0.9083(2)
C9_2 C 0.9145(4) 0.8246(7) 0.9248(2)
C10_2 C 0.9426(5) 0.8687(9) 0.9482(3)
H5_2 H 0.9499 0.8348 0.9648
C11_2 C 0.9570(5) 0.9569(9) 0.9447(3)
H6_2 H 0.9735 0.9853 0.9597
C12_2 C 0.9237(6) 0.9672(10) 0.8977(3)
C13_2 C 0.9059(5) 0.8768(8) 0.9007(3)
H8_2 H 0.8877 0.8510 0.8860
C14_2 C 0.8465(4) 0.5426(7) 0.8842(2)
C15_2 C 0.8216(6) 0.5924(9) 0.8623(3)
H9_2 H 0.8198 0.6586 0.8625
C16_2 C 0.8000(5) 0.5398(8) 0.8406(3)
H10_2 H 0.7840 0.5721 0.8261
C17_2 C 0.8244(5) 0.3978(8) 0.8603(3)
H11_2 H 0.8259 0.3316 0.8594
C18_2 C 0.8460(5) 0.4431(8) 0.8828(3)
H12_2 H 0.8604 0.4075 0.8972
C19_2 C 0.6662(4) 0.6176(8) 0.5808(3)
H13_2 H 0.6678 0.6368 0.5616
C20_2 C 0.7069(4) 0.6020(8) 0.5946(2)
H14_2 H 0.7353 0.6063 0.5850
C21_2 C 0.7045(4) 0.5789(7) 0.6243(2)
C22_2 C 0.6612(4) 0.5682(7) 0.6369(2)
H15_2 H 0.6584 0.5502 0.6562
C23_2 C 0.6217(4) 0.5851(8) 0.6200(2)
H16_2 H 0.5926 0.5799 0.6287
C24_2 C 0.7484(4) 0.5655(6) 0.6415(2)
C25_2 C 0.8252(4) 0.5630(6) 0.6450(2)
C26_2 C 0.7813(4) 0.5326(6) 0.6847(2)
C27_2 C 0.8720(4) 0.5756(7) 0.6321(2)
C28_2 C 0.8765(4) 0.5852(8) 0.6011(2)
H17_2 H 0.8508 0.5834 0.5889
C29_2 C 0.9191(4) 0.5967(9) 0.5911(3)
H18_2 H 0.9224 0.5980 0.5711
C30_2 C 0.9545(5) 0.5992(10) 0.6339(3)
H19_2 H 0.9812 0.6072 0.6450
C31_2 C 0.9115(4) 0.5794(11) 0.6484(3)
H20_2 H 0.9106 0.5694 0.6683
C32_2 C 0.7770(4) 0.5037(6) 0.7158(2)
C33_2 C 0.8148(4) 0.4745(9) 0.7316(2)
H21_2 H 0.8443 0.4752 0.7232
C34_2 C 0.8096(4) 0.4442(9) 0.7595(3)
H22_2 H 0.8358 0.4259 0.7699
C35_2 C 0.7304(4) 0.4714(7) 0.7581(2)
H23_2 H 0.7015 0.4735 0.7671
C36_2 C 0.7350(4) 0.5025(7) 0.7281(2)
H24_2 H 0.7089 0.5213 0.7177
I5_2 I 0.79763(4) 0.20454(6) 0.80486(2)
N2_2 N 0.9098(3) 0.6779(6) 0.95303(19)
N3_2 N 0.8773(3) 0.6832(6) 0.90557(19)
N4_2 N 0.8776(3) 0.5406(6) 0.93260(19)
N6_2 N 0.8014(3) 0.4432(6) 0.83966(19)
N8_2 N 0.7880(3) 0.5770(5) 0.62845(17)
N9_2 N 0.8247(3) 0.5423(5) 0.67395(17)
N10_2 N 0.7417(3) 0.5436(5) 0.66994(16)
N11_2 N 0.9576(3) 0.6064(6) 0.6064(2)
N12_2 N 0.7674(3) 0.4400(6) 0.77264(18)
Zn3_2 Zn 0.75978(5) 0.36801(9) 0.81141(3)
I6_2 I 0.67579(4) 0.37351(11) 0.82782(3)
C3_3 C 0.4088(4) 0.9667(7) 0.0193(2)
C6_3 C 0.3976(4) 0.9150(7) 0.0462(2)
C7_3 C 0.3993(4) 0.7773(7) 0.0710(2)
C8_3 C 0.3674(4) 0.9074(7) 0.0917(2)
C9_3 C 0.4145(4) 0.6754(7) 0.0752(2)
C10_3 C 0.4426(5) 0.6313(9) 0.0518(3)
H5_3 H 0.4499 0.6652 0.0352
C11_3 C 0.4570(5) 0.5431(9) 0.0553(3)
H6_3 H 0.4735 0.5147 0.0403
C12_3 C 0.4237(6) 0.5328(10) 0.1023(3)
H7_3 H 0.4188 0.4998 0.1195
C13_3 C 0.4059(5) 0.6232(8) 0.0993(3)
H8_3 H 0.3877 0.6490 0.1140
C14_3 C 0.3465(4) 0.9574(7) 0.1158(2)
C15_3 C 0.3216(6) 0.9076(9) 0.1377(3)
H9_3 H 0.3198 0.8414 0.1375
C16_3 C 0.3000(5) 0.9602(8) 0.1594(3)
H10_3 H 0.2840 0.9279 0.1739
C19_3 C 0.1662(4) 0.8824(8) 0.4192(3)
H13_3 H 0.1678 0.8632 0.4384
C20_3 C 0.2069(4) 0.8980(8) 0.4054(2)
H14_3 H 0.2353 0.8937 0.4150
C21_3 C 0.2045(4) 0.9211(7) 0.3757(2)
C22_3 C 0.1612(4) 0.9318(7) 0.3631(2)
H15_3 H 0.1584 0.9498 0.3438
C23_3 C 0.1217(4) 0.9149(8) 0.3800(2)
H16_3 H 0.0926 0.9201 0.3713
C24_3 C 0.2484(4) 0.9345(6) 0.3585(2)
C25_3 C 0.3252(4) 0.9370(6) 0.3550(2)
C26_3 C 0.2813(4) 0.9674(6) 0.3153(2)
C27_3 C 0.3720(4) 0.9244(7) 0.3679(2)
C28_3 C 0.3765(4) 0.9148(8) 0.3989(2)
H17_3 H 0.3508 0.9166 0.4111
C29_3 C 0.4191(4) 0.9033(9) 0.4089(3)
H18_3 H 0.4224 0.9020 0.4289
C30_3 C 0.4545(5) 0.9008(10) 0.3661(3)
H19_3 H 0.4812 0.8928 0.3550
C31_3 C 0.4115(4) 0.9206(11) 0.3516(3)
H20_3 H 0.4106 0.9306 0.3317
C32_3 C 0.2770(4) 0.9963(6) 0.2842(2)
C36_3 C 0.2350(4) 0.9975(7) 0.2719(2)
H24_3 H 0.2089 0.9787 0.2823
I3_3 I 0.43283(4) 0.26819(9) 0.12509(4)
I4_3 I 0.49597(4) 0.28822(9) 0.03655(3)
N2_3 N 0.4098(3) 0.8221(6) 0.04697(19)
N3_3 N 0.3773(3) 0.8168(6) 0.09443(19)
N4_3 N 0.3776(3) 0.9594(6) 0.06740(19)
N5_3 N 0.4487(3) 0.4898(6) 0.0803(2)
N7_2 N 0.1236(3) 0.8921(6) 0.40768(18)
N8_3 N 0.2880(3) 0.9230(5) 0.37155(17)
N9_3 N 0.3247(3) 0.9577(5) 0.32605(17)
N10_3 N 0.2417(3) 0.9564(5) 0.33006(16)
Zn4_2 Zn 0.06311(5) 0.85627(11) 0.43033(3)
C4_3 C 0.1009(5) 0.9376(8) 0.5182(3)
H3_3 H 0.1153 0.9072 0.5337
C5_3 C 0.0880(6) 0.8840(9) 0.4921(3)
H4_3 H 0.0913 0.8181 0.4920
C17_3 C 0.1756(5) 0.8978(8) 0.6397(3)
H11_3 H 0.1741 0.8316 0.6406
C18_3 C 0.1540(5) 0.9431(8) 0.6172(3)
H12_3 H 0.1396 0.9075 0.6028
C33_3 C 0.1852(4) 0.9745(9) 0.7684(2)
H21_3 H 0.1557 0.9752 0.7768
C34_3 C 0.1904(4) 0.9442(9) 0.7405(3)
H22_3 H 0.1642 0.9259 0.7301
C35_3 C 0.2696(4) 0.9714(7) 0.7419(2)
H23_3 H 0.2985 0.9735 0.7329
I2_3 I 0.07142(6) 0.67799(8) 0.44103(3)
I5_3 I 0.20237(4) 0.70454(6) 0.69514(2)
N1_3 N 0.0717(4) 0.9263(6) 0.4686(2)
N6_3 N 0.1986(3) 0.9432(6) 0.66034(19)
N12_3 N 0.2326(3) 0.9400(6) 0.72736(18)
Zn3_3 Zn 0.24022(5) 0.86801(9) 0.68859(3)
I6_3 I 0.32421(4) 0.87351(11) 0.67218(3)
N14_2 N 0.0424(3) 0.1064(6) 0.8936(2)
Zn5_2 Zn 0.02101(5) 0.64178(9) 0.58664(4)
C5_4 C 0.4120(6) 0.1160(9) 0.9921(3)
H4_4 H 0.4087 0.1819 0.9920
I1_2 I 0.50267(3) 0.06325(11) 0.90299(3)
I2_4 I 0.42858(6) 0.32201(8) 0.94103(3)
N1_4 N 0.4283(4) 0.0737(6) 0.9686(2)
Zn1_2 Zn 0.43689(5) 0.14373(11) 0.93033(3)
N13_2 N 0.3764(3) 0.1079(6) 0.90768(18)
C1_3 C 0.0592(6) 0.0207(9) 0.4712(3)
H1_3 H 0.0435 0.0499 0.4560
C2_3 C 0.0695(5) 0.0740(9) 0.4959(3)
H2_3 H 0.0614 0.1382 0.4965
C3_4 C 0.0912(4) 0.0333(7) 0.5193(2)
C6_4 C 0.1024(4) 0.0850(7) 0.5462(2)
C7_4 C 0.1007(4) 0.2227(7) 0.5710(2)
C8_4 C 0.1326(4) 0.0926(7) 0.5917(2)
C9_4 C 0.0855(4) 0.3246(7) 0.5752(2)
C10_4 C 0.0574(5) 0.3687(9) 0.5518(3)
H5_4 H 0.0501 0.3348 0.5352
C11_4 C 0.0430(5) 0.4569(9) 0.5553(3)
H6_4 H 0.0265 0.4853 0.5403
C12_4 C 0.0763(6) 0.4672(10) 0.6023(3)
H7_4 H 0.0812 0.5002 0.6195
C13_4 C 0.0941(5) 0.3768(8) 0.5993(3)
H8_4 H 0.1123 0.3510 0.6140
C14_4 C 0.1535(4) 0.0426(7) 0.6158(2)
C15_4 C 0.1784(6) 0.0924(9) 0.6377(3)
H9_4 H 0.1802 0.1586 0.6375
C16_4 C 0.2000(5) 0.0398(8) 0.6594(3)
H10_4 H 0.2160 0.0721 0.6739
C19_4 C 0.3338(4) 0.1176(8) 0.9192(3)
H13_4 H 0.3322 0.1368 0.9384
C20_4 C 0.2931(4) 0.1020(8) 0.9054(2)
H14_4 H 0.2647 0.1063 0.9150
C21_4 C 0.2955(4) 0.0789(7) 0.8757(2)
C22_4 C 0.3388(4) 0.0682(7) 0.8631(2)
H15_4 H 0.3416 0.0502 0.8438
C23_4 C 0.3783(4) 0.0851(8) 0.8800(2)
H16_4 H 0.4074 0.0799 0.8713
C24_4 C 0.2516(4) 0.0655(6) 0.8585(2)
C25_4 C 0.1748(4) 0.0630(6) 0.8550(2)
C26_4 C 0.2187(4) 0.0326(6) 0.8153(2)
C27_4 C 0.1280(4) 0.0756(7) 0.8679(2)
C28_4 C 0.1235(4) 0.0852(8) 0.8989(2)
H17_4 H 0.1492 0.0834 0.9111
C29_4 C 0.0809(4) 0.0967(9) 0.9089(3)
H18_4 H 0.0776 0.0980 0.9289
C30_4 C 0.0455(5) 0.0992(10) 0.8661(3)
H19_4 H 0.0188 0.1072 0.8550
C31_4 C 0.0885(4) 0.0794(11) 0.8516(3)
H20_4 H 0.0894 0.0694 0.8317
C32_4 C 0.2230(4) 0.0037(6) 0.7842(2)
C36_4 C 0.2650(4) 0.0025(7) 0.7719(2)
H24_4 H 0.2911 0.0213 0.7823
I3_4 I 0.06717(4) 0.73181(9) 0.62509(4)
I4_4 I 0.00403(4) 0.71178(9) 0.53655(3)
N2_4 N 0.0902(3) 0.1779(6) 0.54697(19)
N3_4 N 0.1227(3) 0.1832(6) 0.59443(19)
N4_4 N 0.1224(3) 0.0406(6) 0.56740(19)
N5_4 N 0.0513(3) 0.5102(6) 0.5803(2)
N8_4 N 0.2120(3) 0.0770(5) 0.87155(17)
N9_4 N 0.1753(3) 0.0423(5) 0.82605(17)
N10_4 N 0.2583(3) 0.0436(5) 0.83006(16)
I1_3 I 0.00267(3) 0.43675(11) 0.09701(3)
C4_4 C 0.3991(5) 0.0624(8) 0.0182(3)
H3_4 H 0.3847 0.0928 0.0337
C17_4 C 0.3244(5) 0.1022(8) 0.1397(3)
H11_4 H 0.3259 0.1684 0.1406
C18_4 C 0.3460(5) 0.0569(8) 0.1172(3)
H12_4 H 0.3604 0.0925 0.1028
C33_4 C 0.3148(4) 0.0255(9) 0.2684(2)
H21_4 H 0.3443 0.0248 0.2768
C34_4 C 0.3096(4) 0.0558(9) 0.2405(3)
H22_4 H 0.3358 0.0741 0.2301
C35_4 C 0.2304(4) 0.0286(7) 0.2419(2)
H23_4 H 0.2015 0.0265 0.2329
I5_4 I 0.29763(4) 0.29546(6) 0.19514(2)
N6_4 N 0.3014(3) 0.0568(6) 0.16034(19)
N12_4 N 0.2674(3) 0.0600(6) 0.22736(18)
Zn3_4 Zn 0.25978(5) 0.13199(9) 0.18859(3)
I6_4 I 0.17579(4) 0.12649(11) 0.17218(3)
C1_4 C 0.4408(6) 0.9793(9) 0.9712(3)
H1_4 H 0.4565 0.9501 0.9560
C2_4 C 0.4305(5) 0.9260(9) 0.9959(3)
H2_4 H 0.4386 0.8618 0.9965
I1_4 I 0.99733(3) 0.93675(11) 0.40299(3)
H7_5 H 0.4188 0.0002 0.6195
I3_5 I 0.43283(4) 0.23181(9) 0.62509(4)
I4_5 I 0.49597(4) 0.21178(9) 0.53655(3)
N5_5 N 0.4487(3) 0.0102(6) 0.5803(2)
Zn2_3 Zn 0.47899(5) 0.14178(9) 0.58664(4)
N14_3 N 0.5424(3) 0.1064(6) 0.6064(2)
C1_5 C 0.4408(6) 0.5207(9) 0.4712(3)
H1_5 H 0.4565 0.5499 0.4560
C2_5 C 0.4305(5) 0.5740(9) 0.4959(3)
H2_5 H 0.4386 0.6382 0.4965
C3_5 C 0.4088(4) 0.5333(7) 0.5193(2)
C4_5 C 0.3991(5) 0.4376(8) 0.5182(3)
H3_5 H 0.3847 0.4072 0.5337
C5_5 C 0.4120(6) 0.3840(9) 0.4921(3)
H4_5 H 0.4087 0.3181 0.4920
C6_5 C 0.3976(4) 0.5850(7) 0.5462(2)
C7_5 C 0.3993(4) 0.7227(7) 0.5710(2)
C8_5 C 0.3674(4) 0.5926(7) 0.5917(2)
C9_5 C 0.4145(4) 0.8246(7) 0.5752(2)
C10_5 C 0.4426(5) 0.8687(9) 0.5518(3)
H5_5 H 0.4499 0.8348 0.5352
C11_5 C 0.4570(5) 0.9569(9) 0.5553(3)
H6_5 H 0.4735 0.9853 0.5403
C12_5 C 0.4237(6) 0.9672(10) 0.6023(3)
C13_5 C 0.4059(5) 0.8768(8) 0.5993(3)
H8_5 H 0.3877 0.8510 0.6140
C14_5 C 0.3465(4) 0.5426(7) 0.6158(2)
C15_5 C 0.3216(6) 0.5924(9) 0.6377(3)
H9_5 H 0.3198 0.6586 0.6375
C16_5 C 0.3000(5) 0.5398(8) 0.6594(3)
H10_5 H 0.2840 0.5721 0.6739
C17_5 C 0.3244(5) 0.3978(8) 0.6397(3)
H11_5 H 0.3259 0.3316 0.6406
C18_5 C 0.3460(5) 0.4431(8) 0.6172(3)
H12_5 H 0.3604 0.4075 0.6028
C19_5 C 0.1662(4) 0.6176(8) 0.9192(3)
H13_5 H 0.1678 0.6368 0.9384
C20_5 C 0.2069(4) 0.6020(8) 0.9054(2)
H14_5 H 0.2353 0.6063 0.9150
C21_5 C 0.2045(4) 0.5789(7) 0.8757(2)
C22_5 C 0.1612(4) 0.5682(7) 0.8631(2)
H15_5 H 0.1584 0.5502 0.8438
C23_5 C 0.1217(4) 0.5851(8) 0.8800(2)
H16_5 H 0.0926 0.5799 0.8713
C24_5 C 0.2484(4) 0.5655(6) 0.8585(2)
C25_5 C 0.3252(4) 0.5630(6) 0.8550(2)
C26_5 C 0.2813(4) 0.5326(6) 0.8153(2)
C27_5 C 0.3720(4) 0.5756(7) 0.8679(2)
C28_5 C 0.3765(4) 0.5852(8) 0.8989(2)
H17_5 H 0.3508 0.5834 0.9111
C29_5 C 0.4191(4) 0.5967(9) 0.9089(3)
H18_5 H 0.4224 0.5980 0.9289
C30_5 C 0.4545(5) 0.5992(10) 0.8661(3)
H19_5 H 0.4812 0.6072 0.8550
C31_5 C 0.4115(4) 0.5794(11) 0.8516(3)
H20_5 H 0.4106 0.5694 0.8317
C32_5 C 0.2770(4) 0.5037(6) 0.7842(2)
C33_5 C 0.3148(4) 0.4745(9) 0.7684(2)
H21_5 H 0.3443 0.4752 0.7768
C34_5 C 0.3096(4) 0.4442(9) 0.7405(3)
H22_5 H 0.3358 0.4259 0.7301
C35_5 C 0.2304(4) 0.4714(7) 0.7419(2)
H23_5 H 0.2015 0.4735 0.7329
C36_5 C 0.2350(4) 0.5025(7) 0.7719(2)
H24_5 H 0.2089 0.5213 0.7823
I1_5 I 0.50267(3) 0.43675(11) 0.40299(3)
I2_5 I 0.42858(6) 0.17799(8) 0.44103(3)
I5_5 I 0.29763(4) 0.20454(6) 0.69514(2)
N1_5 N 0.4283(4) 0.4263(6) 0.4686(2)
N2_5 N 0.4098(3) 0.6779(6) 0.54697(19)
N3_5 N 0.3773(3) 0.6832(6) 0.59443(19)
N4_5 N 0.3776(3) 0.5406(6) 0.56740(19)
N6_5 N 0.3014(3) 0.4432(6) 0.66034(19)
N7_3 N 0.1236(3) 0.6079(6) 0.90768(18)
N8_5 N 0.2880(3) 0.5770(5) 0.87155(17)
N9_5 N 0.3247(3) 0.5423(5) 0.82605(17)
N10_5 N 0.2417(3) 0.5436(5) 0.83006(16)
N11_3 N 0.4576(3) 0.6064(6) 0.8936(2)
N12_5 N 0.2674(3) 0.4400(6) 0.72736(18)
Zn1_3 Zn 0.43689(5) 0.35627(11) 0.43033(3)
Zn3_5 Zn 0.25978(5) 0.36801(9) 0.68859(3)
I6_5 I 0.17579(4) 0.37351(11) 0.67218(3)
N13_3 N 0.3764(3) 0.3921(6) 0.40768(18)
Zn4_3 Zn 0.06311(5) 0.64373(11) 0.93033(3)
Zn5_3 Zn 0.52101(5) 0.64178(9) 0.91336(4)
C3_6 C 0.0912(4) 0.4667(7) 0.0193(2)
C4_6 C 0.1009(5) 0.5624(8) 0.0182(3)
H3_6 H 0.1153 0.5928 0.0337
C6_6 C 0.1024(4) 0.4150(7) 0.0462(2)
C7_6 C 0.1007(4) 0.2773(7) 0.0710(2)
C8_6 C 0.1326(4) 0.4074(7) 0.0917(2)
C9_6 C 0.0855(4) 0.1754(7) 0.0752(2)
C10_6 C 0.0574(5) 0.1313(9) 0.0518(3)
H5_6 H 0.0501 0.1652 0.0352
C11_6 C 0.0430(5) 0.0431(9) 0.0553(3)
H6_6 H 0.0265 0.0147 0.0403
C12_6 C 0.0763(6) 0.0328(10) 0.1023(3)
C13_6 C 0.0941(5) 0.1232(8) 0.0993(3)
H8_6 H 0.1123 0.1490 0.1140
C14_6 C 0.1535(4) 0.4574(7) 0.1158(2)
C15_6 C 0.1784(6) 0.4076(9) 0.1377(3)
H9_6 H 0.1802 0.3414 0.1375
C16_6 C 0.2000(5) 0.4602(8) 0.1594(3)
H10_6 H 0.2160 0.4279 0.1739
C17_6 C 0.1756(5) 0.6022(8) 0.1397(3)
H11_6 H 0.1741 0.6684 0.1406
C18_6 C 0.1540(5) 0.5569(8) 0.1172(3)
H12_6 H 0.1396 0.5925 0.1028
C19_6 C 0.3338(4) 0.3824(8) 0.4192(3)
H13_6 H 0.3322 0.3632 0.4384
C20_6 C 0.2931(4) 0.3980(8) 0.4054(2)
H14_6 H 0.2647 0.3937 0.4150
C21_6 C 0.2955(4) 0.4211(7) 0.3757(2)
C22_6 C 0.3388(4) 0.4318(7) 0.3631(2)
H15_6 H 0.3416 0.4498 0.3438
C23_6 C 0.3783(4) 0.4149(8) 0.3800(2)
H16_6 H 0.4074 0.4201 0.3713
C24_6 C 0.2516(4) 0.4345(6) 0.3585(2)
C25_6 C 0.1748(4) 0.4370(6) 0.3550(2)
C26_6 C 0.2187(4) 0.4674(6) 0.3153(2)
C27_6 C 0.1280(4) 0.4244(7) 0.3679(2)
C28_6 C 0.1235(4) 0.4148(8) 0.3989(2)
H17_6 H 0.1492 0.4166 0.4111
C29_6 C 0.0809(4) 0.4033(9) 0.4089(3)
H18_6 H 0.0776 0.4020 0.4289
C30_6 C 0.0455(5) 0.4008(10) 0.3661(3)
H19_6 H 0.0188 0.3928 0.3550
C31_6 C 0.0885(4) 0.4206(11) 0.3516(3)
H20_6 H 0.0894 0.4306 0.3317
C32_6 C 0.2230(4) 0.4963(6) 0.2842(2)
C33_6 C 0.1852(4) 0.5255(9) 0.2684(2)
H21_6 H 0.1557 0.5248 0.2768
C34_6 C 0.1904(4) 0.5558(9) 0.2405(3)
H22_6 H 0.1642 0.5741 0.2301
C35_6 C 0.2696(4) 0.5286(7) 0.2419(2)
H23_6 H 0.2985 0.5265 0.2329
C36_6 C 0.2650(4) 0.4975(7) 0.2719(2)
H24_6 H 0.2911 0.4787 0.2823
I5_6 I 0.20237(4) 0.79546(6) 0.19514(2)
N2_6 N 0.0902(3) 0.3221(6) 0.04697(19)
N3_6 N 0.1227(3) 0.3168(6) 0.09443(19)
N4_6 N 0.1224(3) 0.4594(6) 0.06740(19)
N6_6 N 0.1986(3) 0.5568(6) 0.16034(19)
N8_6 N 0.2120(3) 0.4230(5) 0.37155(17)
N9_6 N 0.1753(3) 0.4577(5) 0.32605(17)
N10_6 N 0.2583(3) 0.4564(5) 0.33006(16)
N11_4 N 0.0424(3) 0.3936(6) 0.3936(2)
N12_6 N 0.2326(3) 0.5600(6) 0.22736(18)
Zn3_6 Zn 0.24022(5) 0.63199(9) 0.18859(3)
I6_6 I 0.32421(4) 0.62649(11) 0.17218(3)
C1_6 C 0.0592(6) 0.4793(9) 0.9712(3)
H1_6 H 0.0435 0.4501 0.9560
C2_6 C 0.0695(5) 0.4260(9) 0.9959(3)
H2_6 H 0.0614 0.3618 0.9965
C5_6 C 0.0880(6) 0.6160(9) 0.9921(3)
H4_6 H 0.0913 0.6819 0.9920
I2_6 I 0.07142(6) 0.82201(8) 0.94103(3)
N1_6 N 0.0717(4) 0.5737(6) 0.9686(2)
H7_6 H 0.0812 0.9998 0.1195
I3_6 I 0.06717(4) 0.76819(9) 0.12509(4)
I4_6 I 0.00403(4) 0.78822(9) 0.03655(3)
N5_6 N 0.0513(3) 0.9898(6) 0.0803(2)
Zn2_4 Zn 0.02101(5) 0.85822(9) 0.08664(4)
C3_7 C 0.5912(4) 0.0333(7) 0.9807(2)
C6_7 C 0.6024(4) 0.0850(7) 0.9538(2)
C7_7 C 0.6007(4) 0.2227(7) 0.9290(2)
C8_7 C 0.6326(4) 0.0926(7) 0.9083(2)
C9_7 C 0.5855(4) 0.3246(7) 0.9248(2)
C10_7 C 0.5574(5) 0.3687(9) 0.9482(3)
H5_7 H 0.5501 0.3348 0.9648
C11_7 C 0.5430(5) 0.4569(9) 0.9447(3)
H6_7 H 0.5265 0.4853 0.9597
C12_7 C 0.5763(6) 0.4672(10) 0.8977(3)
H7_7 H 0.5812 0.5002 0.8805
C13_7 C 0.5941(5) 0.3768(8) 0.9007(3)
H8_7 H 0.6123 0.3510 0.8860
C14_7 C 0.6535(4) 0.0426(7) 0.8842(2)
C15_7 C 0.6784(6) 0.0924(9) 0.8623(3)
H9_7 H 0.6802 0.1586 0.8625
C16_7 C 0.7000(5) 0.0398(8) 0.8406(3)
H10_7 H 0.7160 0.0721 0.8261
C19_7 C 0.8338(4) 0.1176(8) 0.5808(3)
H13_7 H 0.8322 0.1368 0.5616
C20_7 C 0.7931(4) 0.1020(8) 0.5946(2)
H14_7 H 0.7647 0.1063 0.5850
C21_7 C 0.7955(4) 0.0789(7) 0.6243(2)
C22_7 C 0.8388(4) 0.0682(7) 0.6369(2)
H15_7 H 0.8416 0.0502 0.6562
C23_7 C 0.8783(4) 0.0851(8) 0.6200(2)
H16_7 H 0.9074 0.0799 0.6287
C24_7 C 0.7516(4) 0.0655(6) 0.6415(2)
C25_7 C 0.6748(4) 0.0630(6) 0.6450(2)
C26_7 C 0.7187(4) 0.0326(6) 0.6847(2)
C27_7 C 0.6280(4) 0.0756(7) 0.6321(2)
C28_7 C 0.6235(4) 0.0852(8) 0.6011(2)
H17_7 H 0.6492 0.0834 0.5889
C29_7 C 0.5809(4) 0.0967(9) 0.5911(3)
H18_7 H 0.5776 0.0980 0.5711
C30_7 C 0.5455(5) 0.0992(10) 0.6339(3)
H19_7 H 0.5188 0.1072 0.6450
C31_7 C 0.5885(4) 0.0794(11) 0.6484(3)
H20_7 H 0.5894 0.0694 0.6683
C32_7 C 0.7230(4) 0.0037(6) 0.7158(2)
C36_7 C 0.7650(4) 0.0025(7) 0.7281(2)
H24_7 H 0.7911 0.0213 0.7177
I3_7 I 0.56717(4) 0.73181(9) 0.87491(4)
I4_7 I 0.50403(4) 0.71178(9) 0.96345(3)
N2_7 N 0.5902(3) 0.1779(6) 0.95303(19)
N3_7 N 0.6227(3) 0.1832(6) 0.90557(19)
N4_7 N 0.6224(3) 0.0406(6) 0.93260(19)
N5_7 N 0.5513(3) 0.5102(6) 0.9197(2)
N7_4 N 0.8764(3) 0.1079(6) 0.59232(18)
N8_7 N 0.7120(3) 0.0770(5) 0.62845(17)
N9_7 N 0.6753(3) 0.0423(5) 0.67395(17)
N10_7 N 0.7583(3) 0.0436(5) 0.66994(16)
Zn4_4 Zn 0.93689(5) 0.14373(11) 0.56967(3)
C4_7 C 0.8991(5) 0.0624(8) 0.4818(3)
H3_7 H 0.8847 0.0928 0.4663
C5_7 C 0.9120(6) 0.1160(9) 0.5079(3)
H4_7 H 0.9087 0.1819 0.5080
C17_7 C 0.8244(5) 0.1022(8) 0.3603(3)
H11_7 H 0.8259 0.1684 0.3594
C18_7 C 0.8460(5) 0.0569(8) 0.3828(3)
H12_7 H 0.8604 0.0925 0.3972
C33_7 C 0.8148(4) 0.0255(9) 0.2316(2)
H21_7 H 0.8443 0.0248 0.2232
C34_7 C 0.8096(4) 0.0558(9) 0.2595(3)
H22_7 H 0.8358 0.0741 0.2699
C35_7 C 0.7304(4) 0.0286(7) 0.2581(2)
H23_7 H 0.7015 0.0265 0.2671
I2_7 I 0.92858(6) 0.32201(8) 0.55897(3)
I5_7 I 0.79763(4) 0.29546(6) 0.30486(2)
N1_7 N 0.9283(4) 0.0737(6) 0.5314(2)
N6_7 N 0.8014(3) 0.0568(6) 0.33966(19)
N12_7 N 0.7674(3) 0.0600(6) 0.27264(18)
Zn3_7 Zn 0.75978(5) 0.13199(9) 0.31141(3)
I6_7 I 0.67579(4) 0.12649(11) 0.32782(3)
Zn5_4 Zn 0.97899(5) 0.35822(9) 0.41336(4)
N14_4 N 0.9576(3) 0.8936(6) 0.1064(2)
C5_8 C 0.5880(6) 0.8840(9) 0.0079(3)
H4_8 H 0.5913 0.8181 0.0080
I1_6 I 0.49733(3) 0.93675(11) 0.09701(3)
I2_8 I 0.57142(6) 0.67799(8) 0.05897(3)
N1_8 N 0.5717(4) 0.9263(6) 0.0314(2)
Zn1_4 Zn 0.56311(5) 0.85627(11) 0.06967(3)
N13_4 N 0.6236(3) 0.8921(6) 0.09232(18)
C1_7 C 0.9408(6) 0.9793(9) 0.5288(3)
H1_7 H 0.9565 0.9501 0.5440
C2_7 C 0.9305(5) 0.9260(9) 0.5041(3)
H2_7 H 0.9386 0.8618 0.5035
C3_8 C 0.9088(4) 0.9667(7) 0.4807(2)
C6_8 C 0.8976(4) 0.9150(7) 0.4538(2)
C7_8 C 0.8993(4) 0.7773(7) 0.4290(2)
C8_8 C 0.8674(4) 0.9074(7) 0.4083(2)
C9_8 C 0.9145(4) 0.6754(7) 0.4248(2)
C10_8 C 0.9426(5) 0.6313(9) 0.4482(3)
H5_8 H 0.9499 0.6652 0.4648
C11_8 C 0.9570(5) 0.5431(9) 0.4447(3)
H6_8 H 0.9735 0.5147 0.4597
C12_8 C 0.9237(6) 0.5328(10) 0.3977(3)
H7_8 H 0.9188 0.4998 0.3805
C13_8 C 0.9059(5) 0.6232(8) 0.4007(3)
H8_8 H 0.8877 0.6490 0.3860
C14_8 C 0.8465(4) 0.9574(7) 0.3842(2)
C15_8 C 0.8216(6) 0.9076(9) 0.3623(3)
H9_8 H 0.8198 0.8414 0.3625
C16_8 C 0.8000(5) 0.9602(8) 0.3406(3)
H10_8 H 0.7840 0.9279 0.3261
C19_8 C 0.6662(4) 0.8824(8) 0.0808(3)
H13_8 H 0.6678 0.8632 0.0616
C20_8 C 0.7069(4) 0.8980(8) 0.0946(2)
H14_8 H 0.7353 0.8937 0.0850
C21_8 C 0.7045(4) 0.9211(7) 0.1243(2)
C22_8 C 0.6612(4) 0.9318(7) 0.1369(2)
H15_8 H 0.6584 0.9498 0.1562
C23_8 C 0.6217(4) 0.9149(8) 0.1200(2)
H16_8 H 0.5926 0.9201 0.1287
C24_8 C 0.7484(4) 0.9345(6) 0.1415(2)
C25_8 C 0.8252(4) 0.9370(6) 0.1450(2)
C26_8 C 0.7813(4) 0.9674(6) 0.1847(2)
C27_8 C 0.8720(4) 0.9244(7) 0.1321(2)
C28_8 C 0.8765(4) 0.9148(8) 0.1011(2)
H17_8 H 0.8508 0.9166 0.0889
C29_8 C 0.9191(4) 0.9033(9) 0.0911(3)
H18_8 H 0.9224 0.9020 0.0711
C30_8 C 0.9545(5) 0.9008(10) 0.1339(3)
H19_8 H 0.9812 0.8928 0.1450
C31_8 C 0.9115(4) 0.9206(11) 0.1484(3)
H20_8 H 0.9106 0.9306 0.1683
C32_8 C 0.7770(4) 0.9963(6) 0.2158(2)
C36_8 C 0.7350(4) 0.9975(7) 0.2281(2)
H24_8 H 0.7089 0.9787 0.2177
I3_8 I 0.93283(4) 0.26819(9) 0.37491(4)
I4_8 I 0.99597(4) 0.28822(9) 0.46345(3)
N2_8 N 0.9098(3) 0.8221(6) 0.45303(19)
N3_8 N 0.8773(3) 0.8168(6) 0.40557(19)
N4_8 N 0.8776(3) 0.9594(6) 0.43260(19)
N5_8 N 0.9487(3) 0.4898(6) 0.4197(2)
N8_8 N 0.7880(3) 0.9230(5) 0.12845(17)
N9_8 N 0.8247(3) 0.9577(5) 0.17395(17)
N10_8 N 0.7417(3) 0.9564(5) 0.16994(16)
I1_7 I 0.99733(3) 0.56325(11) 0.90299(3)
C1_8 C 0.5592(6) 0.0207(9) 0.0288(3)
H1_8 H 0.5435 0.0499 0.0440
C2_8 C 0.5695(5) 0.0740(9) 0.0041(3)
H2_8 H 0.5614 0.1382 0.0035
C4_8 C 0.6009(5) 0.9376(8) 0.9818(3)
H3_8 H 0.6153 0.9072 0.9663
C17_8 C 0.6756(5) 0.8978(8) 0.8603(3)
H11_8 H 0.6741 0.8316 0.8594
C18_8 C 0.6540(5) 0.9431(8) 0.8828(3)
H12_8 H 0.6396 0.9075 0.8972
C33_8 C 0.6852(4) 0.9745(9) 0.7316(2)
H21_8 H 0.6557 0.9752 0.7232
C34_8 C 0.6904(4) 0.9442(9) 0.7595(3)
H22_8 H 0.6642 0.9259 0.7699
C35_8 C 0.7696(4) 0.9714(7) 0.7581(2)
H23_8 H 0.7985 0.9735 0.7671
I5_8 I 0.70237(4) 0.70454(6) 0.80486(2)
N6_8 N 0.6986(3) 0.9432(6) 0.83966(19)
N12_8 N 0.7326(3) 0.9400(6) 0.77264(18)
Zn3_8 Zn 0.74022(5) 0.86801(9) 0.81141(3)
I6_8 I 0.82421(4) 0.87351(11) 0.82782(3)
I1_8 I 0.00267(3) 0.06325(11) 0.59701(3)
loop_
_geom_bond_atom_site_label_1
_geom_bond_atom_site_label_2
_geom_bond_site_symmetry_1
_geom_bond_site_symmetry_2
C1 H1 1_555 1_555
C2 C1 1_555 1_555
H2 C2 1_555 1_555
C3 C2 1_555 1_555
C4 C3 1_555 1_555
H3 C4 1_555 1_555
C5 C4 1_555 1_555
H4 C5 1_555 1_555
C6 C3 1_555 1_555
C7 C9 1_555 1_555
C8 C14 1_555 1_555
C9 C10 1_555 1_555
C10 H5 1_555 1_555
C11 C10 1_555 1_555
H6 C11 1_555 1_555
C13 C9 1_555 1_555
H8 C13 1_555 1_555
C14 C15 1_555 1_555
C15 H9 1_555 1_555
C16 C15 1_555 1_555
H10 C16 1_555 1_555
C17 H11 1_555 1_555
C18 C14 1_555 1_555
H12 C18 1_555 1_555
C19 H13 1_555 1_555
C20 C19 1_555 1_555
H14 C20 1_555 1_555
C21 C20 1_555 1_555
C22 C21 1_555 1_555
H15 C22 1_555 1_555
C23 C22 1_555 1_555
H16 C23 1_555 1_555
C24 C21 1_555 1_555
C25 C27 1_555 1_555
C26 C32 1_555 1_555
C27 C28 1_555 1_555
C28 H17 1_555 1_555
C29 C28 1_555 1_555
H18 C29 1_555 1_555
C30 H19 1_555 1_555
C31 C27 1_555 1_555
H20 C31 1_555 1_555
C32 C33 1_555 1_555
C33 H21 1_555 1_555
C34 C33 1_555 1_555
H22 C34 1_555 1_555
C35 H23 1_555 1_555
C36 C32 1_555 1_555
H24 C36 1_555 1_555
I1 Zn1 1_555 1_555
I2 Zn1 1_555 1_555
I5 Zn3 1_555 1_555
N1 C1 1_555 1_555
N2 C6 1_555 1_555
N3 C7 1_555 1_555
N4 C6 1_555 1_555
N6 C16 1_555 1_555
N7 C19 1_555 1_555
N8 C24 1_555 1_555
N9 C25 1_555 1_555
N10 C24 1_555 1_555
N11 C29 1_555 1_555
N12 C34 1_555 1_555
Zn1 N1 1_555 1_555
Zn3 N6 1_555 1_555
I6 Zn3 1_555 1_555
N13 Zn1 1_555 1_555
Zn4 N7 1_555 1_555
Zn5 N11 1_555 1_555
C5 N1 1_555 1_555
C7 N2 1_555 1_555
C8 N3 1_555 1_555
C8 N4 1_555 1_555
C12 C13 1_555 1_555
C17 C18 1_555 1_555
C17 N6 1_555 1_555
C23 N7 1_555 1_555
C25 N8 1_555 1_555
C26 N9 1_555 1_555
C26 N10 1_555 1_555
C30 C31 1_555 1_555
C30 N11 1_555 1_555
C35 C36 1_555 1_555
C35 N12 1_555 1_555
N12 Zn3 1_555 1_555
I3 Zn2 1_555 1_555
I4 Zn2 1_555 1_555
Zn2 N5 1_555 1_555
N14 Zn2 1_555 1_555
I3_2 Zn2_2 1_555 1_555
I4_2 Zn2_2 1_555 1_555
Zn2_2 N5_2 1_555 1_555
C1_2 H1_2 1_555 1_555
C2_2 C1_2 1_555 1_555
H2_2 C2_2 1_555 1_555
H4_2 C5_2 1_555 1_555
I2_2 Zn4 1_555 1_555
N1_2 C1_2 1_555 1_555
Zn4 N1_2 1_555 1_555
C5_2 N1_2 1_555 1_555
C4_2 C3_2 1_555 1_555
H3_2 C4_2 1_555 1_555
C6_2 C3_2 1_555 1_555
C7_2 C9_2 1_555 1_555
C8_2 C14_2 1_555 1_555
C9_2 C10_2 1_555 1_555
C10_2 H5_2 1_555 1_555
C11_2 C10_2 1_555 1_555
H6_2 C11_2 1_555 1_555
C13_2 C9_2 1_555 1_555
H8_2 C13_2 1_555 1_555
C14_2 C15_2 1_555 1_555
C15_2 H9_2 1_555 1_555
C16_2 C15_2 1_555 1_555
H10_2 C16_2 1_555 1_555
C17_2 H11_2 1_555 1_555
C18_2 C14_2 1_555 1_555
H12_2 C18_2 1_555 1_555
C19_2 H13_2 1_555 1_555
C20_2 C19_2 1_555 1_555
H14_2 C20_2 1_555 1_555
C21_2 C20_2 1_555 1_555
C22_2 C21_2 1_555 1_555
H15_2 C22_2 1_555 1_555
C23_2 C22_2 1_555 1_555
H16_2 C23_2 1_555 1_555
C24_2 C21_2 1_555 1_555
C25_2 C27_2 1_555 1_555
C26_2 C32_2 1_555 1_555
C27_2 C28_2 1_555 1_555
C28_2 H17_2 1_555 1_555
C29_2 C28_2 1_555 1_555
H18_2 C29_2 1_555 1_555
C30_2 H19_2 1_555 1_555
C31_2 C27_2 1_555 1_555
H20_2 C31_2 1_555 1_555
C32_2 C33_2 1_555 1_555
C33_2 H21_2 1_555 1_555
C34_2 C33_2 1_555 1_555
H22_2 C34_2 1_555 1_555
C35_2 H23_2 1_555 1_555
C36_2 C32_2 1_555 1_555
H24_2 C36_2 1_555 1_555
I5_2 Zn3_2 1_555 1_555
N2_2 C6_2 1_555 1_555
N3_2 C7_2 1_555 1_555
N4_2 C6_2 1_555 1_555
N6_2 C16_2 1_555 1_555
N13 C19_2 1_555 1_555
N8_2 C24_2 1_555 1_555
N9_2 C25_2 1_555 1_555
N10_2 C24_2 1_555 1_555
N11_2 C29_2 1_555 1_555
N12_2 C34_2 1_555 1_555
Zn3_2 N6_2 1_555 1_555
I6_2 Zn3_2 1_555 1_555
C7_2 N2_2 1_555 1_555
C8_2 N3_2 1_555 1_555
C8_2 N4_2 1_555 1_555
C12_2 C13_2 1_555 1_555
C17_2 C18_2 1_555 1_555
C17_2 N6_2 1_555 1_555
C23_2 N13 1_555 1_555
C25_2 N8_2 1_555 1_555
C26_2 N9_2 1_555 1_555
C26_2 N10_2 1_555 1_555
C30_2 C31_2 1_555 1_555
C30_2 N11_2 1_555 1_555
C35_2 C36_2 1_555 1_555
C35_2 N12_2 1_555 1_555
N12_2 Zn3_2 1_555 1_555
C6_3 C3_3 1_555 1_555
C7_3 C9_3 1_555 1_555
C8_3 C14_3 1_555 1_555
C9_3 C10_3 1_555 1_555
C10_3 H5_3 1_555 1_555
C11_3 C10_3 1_555 1_555
H6_3 C11_3 1_555 1_555
C12_3 H7_3 1_555 1_555
C13_3 C9_3 1_555 1_555
H8_3 C13_3 1_555 1_555
C14_3 C15_3 1_555 1_555
C15_3 H9_3 1_555 1_555
C16_3 C15_3 1_555 1_555
H10_3 C16_3 1_555 1_555
C19_3 H13_3 1_555 1_555
C20_3 C19_3 1_555 1_555
H14_3 C20_3 1_555 1_555
C21_3 C20_3 1_555 1_555
C22_3 C21_3 1_555 1_555
H15_3 C22_3 1_555 1_555
C23_3 C22_3 1_555 1_555
H16_3 C23_3 1_555 1_555
C24_3 C21_3 1_555 1_555
C25_3 C27_3 1_555 1_555
C26_3 C32_3 1_555 1_555
C27_3 C28_3 1_555 1_555
C28_3 H17_3 1_555 1_555
C29_3 C28_3 1_555 1_555
H18_3 C29_3 1_555 1_555
C30_3 H19_3 1_555 1_555
C31_3 C27_3 1_555 1_555
H20_3 C31_3 1_555 1_555
C36_3 C32_3 1_555 1_555
H24_3 C36_3 1_555 1_555
I3_3 Zn5 1_555 1_555
I4_3 Zn5 1_555 1_555
N2_3 C6_3 1_555 1_555
N3_3 C7_3 1_555 1_555
N4_3 C6_3 1_555 1_555
N5_3 C11_3 1_555 1_555
N7_2 C19_3 1_555 1_555
N8_3 C24_3 1_555 1_555
N9_3 C25_3 1_555 1_555
N10_3 C24_3 1_555 1_555
N14 C29_3 1_555 1_555
Zn5 N5_3 1_555 1_555
Zn4_2 N7_2 1_555 1_555
C7_3 N2_3 1_555 1_555
C8_3 N3_3 1_555 1_555
C8_3 N4_3 1_555 1_555
C12_3 C13_3 1_555 1_555
C12_3 N5_3 1_555 1_555
C23_3 N7_2 1_555 1_555
C25_3 N8_3 1_555 1_555
C26_3 N9_3 1_555 1_555
C26_3 N10_3 1_555 1_555
C30_3 C31_3 1_555 1_555
C30_3 N14 1_555 1_555
H3_3 C4_3 1_555 1_555
C5_3 C4_3 1_555 1_555
H4_3 C5_3 1_555 1_555
C17_3 H11_3 1_555 1_555
H12_3 C18_3 1_555 1_555
C33_3 H21_3 1_555 1_555
C34_3 C33_3 1_555 1_555
H22_3 C34_3 1_555 1_555
C35_3 H23_3 1_555 1_555
I2_3 Zn4_2 1_555 1_555
I5_3 Zn3_3 1_555 1_555
N12_3 C34_3 1_555 1_555
Zn4_2 N1_3 1_555 1_555
Zn3_3 N6_3 1_555 1_555
I6_3 Zn3_3 1_555 1_555
C5_3 N1_3 1_555 1_555
C17_3 C18_3 1_555 1_555
C17_3 N6_3 1_555 1_555
C35_3 N12_3 1_555 1_555
N12_3 Zn3_3 1_555 1_555
H4_4 C5_4 1_555 1_555
I1_2 Zn1_2 1_555 1_555
I2_4 Zn1_2 1_555 1_555
Zn1_2 N1_4 1_555 1_555
N13_2 Zn1_2 1_555 1_555
C5_4 N1_4 1_555 1_555
C1_3 H1_3 1_555 1_555
C2_3 C1_3 1_555 1_555
H2_3 C2_3 1_555 1_555
C3_4 C2_3 1_555 1_555
C6_4 C3_4 1_555 1_555
C7_4 C9_4 1_555 1_555
C8_4 C14_4 1_555 1_555
C9_4 C10_4 1_555 1_555
C10_4 H5_4 1_555 1_555
C11_4 C10_4 1_555 1_555
H6_4 C11_4 1_555 1_555
C12_4 H7_4 1_555 1_555
C13_4 C9_4 1_555 1_555
H8_4 C13_4 1_555 1_555
C14_4 C15_4 1_555 1_555
C15_4 H9_4 1_555 1_555
C16_4 C15_4 1_555 1_555
H10_4 C16_4 1_555 1_555
C19_4 H13_4 1_555 1_555
C20_4 C19_4 1_555 1_555
H14_4 C20_4 1_555 1_555
C21_4 C20_4 1_555 1_555
C22_4 C21_4 1_555 1_555
H15_4 C22_4 1_555 1_555
C23_4 C22_4 1_555 1_555
H16_4 C23_4 1_555 1_555
C24_4 C21_4 1_555 1_555
C25_4 C27_4 1_555 1_555
C26_4 C32_4 1_555 1_555
C27_4 C28_4 1_555 1_555
C28_4 H17_4 1_555 1_555
C29_4 C28_4 1_555 1_555
H18_4 C29_4 1_555 1_555
C30_4 H19_4 1_555 1_555
C31_4 C27_4 1_555 1_555
H20_4 C31_4 1_555 1_555
C36_4 C32_4 1_555 1_555
H24_4 C36_4 1_555 1_555
I3_4 Zn5_2 1_555 1_555
I4_4 Zn5_2 1_555 1_555
N2_4 C6_4 1_555 1_555
N3_4 C7_4 1_555 1_555
N4_4 C6_4 1_555 1_555
N5_4 C11_4 1_555 1_555
N13_2 C19_4 1_555 1_555
N8_4 C24_4 1_555 1_555
N9_4 C25_4 1_555 1_555
N10_4 C24_4 1_555 1_555
N14_2 C29_4 1_555 1_555
Zn5_2 N5_4 1_555 1_555
C7_4 N2_4 1_555 1_555
C8_4 N3_4 1_555 1_555
C8_4 N4_4 1_555 1_555
C12_4 C13_4 1_555 1_555
C12_4 N5_4 1_555 1_555
C23_4 N13_2 1_555 1_555
C25_4 N8_4 1_555 1_555
C26_4 N9_4 1_555 1_555
C26_4 N10_4 1_555 1_555
C30_4 C31_4 1_555 1_555
C30_4 N14_2 1_555 1_555
H3_4 C4_4 1_555 1_555
C17_4 H11_4 1_555 1_555
H12_4 C18_4 1_555 1_555
C33_4 H21_4 1_555 1_555
C34_4 C33_4 1_555 1_555
H22_4 C34_4 1_555 1_555
C35_4 H23_4 1_555 1_555
I5_4 Zn3_4 1_555 1_555
N12_4 C34_4 1_555 1_555
Zn3_4 N6_4 1_555 1_555
I6_4 Zn3_4 1_555 1_555
C17_4 C18_4 1_555 1_555
C17_4 N6_4 1_555 1_555
C35_4 N12_4 1_555 1_555
N12_4 Zn3_4 1_555 1_555
C1_4 H1_4 1_555 1_555
C2_4 C1_4 1_555 1_555
H2_4 C2_4 1_555 1_555
I3_5 Zn2_3 1_555 1_555
I4_5 Zn2_3 1_555 1_555
Zn2_3 N5_5 1_555 1_555
N14_3 Zn2_3 1_555 1_555
C1_5 H1_5 1_555 1_555
C2_5 C1_5 1_555 1_555
H2_5 C2_5 1_555 1_555
C3_5 C2_5 1_555 1_555
C4_5 C3_5 1_555 1_555
H3_5 C4_5 1_555 1_555
C5_5 C4_5 1_555 1_555
H4_5 C5_5 1_555 1_555
C6_5 C3_5 1_555 1_555
C7_5 C9_5 1_555 1_555
C8_5 C14_5 1_555 1_555
C9_5 C10_5 1_555 1_555
C10_5 H5_5 1_555 1_555
C11_5 C10_5 1_555 1_555
H6_5 C11_5 1_555 1_555
C13_5 C9_5 1_555 1_555
H8_5 C13_5 1_555 1_555
C14_5 C15_5 1_555 1_555
C15_5 H9_5 1_555 1_555
C16_5 C15_5 1_555 1_555
H10_5 C16_5 1_555 1_555
C17_5 H11_5 1_555 1_555
C18_5 C14_5 1_555 1_555
H12_5 C18_5 1_555 1_555
C19_5 H13_5 1_555 1_555
C20_5 C19_5 1_555 1_555
H14_5 C20_5 1_555 1_555
C21_5 C20_5 1_555 1_555
C22_5 C21_5 1_555 1_555
H15_5 C22_5 1_555 1_555
C23_5 C22_5 1_555 1_555
H16_5 C23_5 1_555 1_555
C24_5 C21_5 1_555 1_555
C25_5 C27_5 1_555 1_555
C26_5 C32_5 1_555 1_555
C27_5 C28_5 1_555 1_555
C28_5 H17_5 1_555 1_555
C29_5 C28_5 1_555 1_555
H18_5 C29_5 1_555 1_555
C30_5 H19_5 1_555 1_555
C31_5 C27_5 1_555 1_555
H20_5 C31_5 1_555 1_555
C32_5 C33_5 1_555 1_555
C33_5 H21_5 1_555 1_555
C34_5 C33_5 1_555 1_555
H22_5 C34_5 1_555 1_555
C35_5 H23_5 1_555 1_555
C36_5 C32_5 1_555 1_555
H24_5 C36_5 1_555 1_555
I1_5 Zn1_3 1_555 1_555
I2_5 Zn1_3 1_555 1_555
I5_5 Zn3_5 1_555 1_555
N1_5 C1_5 1_555 1_555
N2_5 C6_5 1_555 1_555
N3_5 C7_5 1_555 1_555
N4_5 C6_5 1_555 1_555
N6_5 C16_5 1_555 1_555
N7_3 C19_5 1_555 1_555
N8_5 C24_5 1_555 1_555
N9_5 C25_5 1_555 1_555
N10_5 C24_5 1_555 1_555
N11_3 C29_5 1_555 1_555
N12_5 C34_5 1_555 1_555
Zn1_3 N1_5 1_555 1_555
Zn3_5 N6_5 1_555 1_555
I6_5 Zn3_5 1_555 1_555
N13_3 Zn1_3 1_555 1_555
Zn4_3 N7_3 1_555 1_555
Zn5_3 N11_3 1_555 1_555
C5_5 N1_5 1_555 1_555
C7_5 N2_5 1_555 1_555
C8_5 N3_5 1_555 1_555
C8_5 N4_5 1_555 1_555
C12_5 C13_5 1_555 1_555
C17_5 C18_5 1_555 1_555
C17_5 N6_5 1_555 1_555
C23_5 N7_3 1_555 1_555
C25_5 N8_5 1_555 1_555
C26_5 N9_5 1_555 1_555
C26_5 N10_5 1_555 1_555
C30_5 C31_5 1_555 1_555
C30_5 N11_3 1_555 1_555
C35_5 C36_5 1_555 1_555
C35_5 N12_5 1_555 1_555
N12_5 Zn3_5 1_555 1_555
C4_6 C3_6 1_555 1_555
H3_6 C4_6 1_555 1_555
C6_6 C3_6 1_555 1_555
C7_6 C9_6 1_555 1_555
C8_6 C14_6 1_555 1_555
C9_6 C10_6 1_555 1_555
C10_6 H5_6 1_555 1_555
C11_6 C10_6 1_555 1_555
H6_6 C11_6 1_555 1_555
C13_6 C9_6 1_555 1_555
H8_6 C13_6 1_555 1_555
C14_6 C15_6 1_555 1_555
C15_6 H9_6 1_555 1_555
C16_6 C15_6 1_555 1_555
H10_6 C16_6 1_555 1_555
C17_6 H11_6 1_555 1_555
C18_6 C14_6 1_555 1_555
H12_6 C18_6 1_555 1_555
C19_6 H13_6 1_555 1_555
C20_6 C19_6 1_555 1_555
H14_6 C20_6 1_555 1_555
C21_6 C20_6 1_555 1_555
C22_6 C21_6 1_555 1_555
H15_6 C22_6 1_555 1_555
C23_6 C22_6 1_555 1_555
H16_6 C23_6 1_555 1_555
C24_6 C21_6 1_555 1_555
C25_6 C27_6 1_555 1_555
C26_6 C32_6 1_555 1_555
C27_6 C28_6 1_555 1_555
C28_6 H17_6 1_555 1_555
C29_6 C28_6 1_555 1_555
H18_6 C29_6 1_555 1_555
C30_6 H19_6 1_555 1_555
C31_6 C27_6 1_555 1_555
H20_6 C31_6 1_555 1_555
C32_6 C33_6 1_555 1_555
C33_6 H21_6 1_555 1_555
C34_6 C33_6 1_555 1_555
H22_6 C34_6 1_555 1_555
C35_6 H23_6 1_555 1_555
C36_6 C32_6 1_555 1_555
H24_6 C36_6 1_555 1_555
I5_6 Zn3_6 1_555 1_555
N2_6 C6_6 1_555 1_555
N3_6 C7_6 1_555 1_555
N4_6 C6_6 1_555 1_555
N6_6 C16_6 1_555 1_555
N13_3 C19_6 1_555 1_555
N8_6 C24_6 1_555 1_555
N9_6 C25_6 1_555 1_555
N10_6 C24_6 1_555 1_555
N11_4 C29_6 1_555 1_555
N12_6 C34_6 1_555 1_555
Zn3_6 N6_6 1_555 1_555
I6_6 Zn3_6 1_555 1_555
C7_6 N2_6 1_555 1_555
C8_6 N3_6 1_555 1_555
C8_6 N4_6 1_555 1_555
C12_6 C13_6 1_555 1_555
C17_6 C18_6 1_555 1_555
C17_6 N6_6 1_555 1_555
C23_6 N13_3 1_555 1_555
C25_6 N8_6 1_555 1_555
C26_6 N9_6 1_555 1_555
C26_6 N10_6 1_555 1_555
C30_6 C31_6 1_555 1_555
C30_6 N11_4 1_555 1_555
C35_6 C36_6 1_555 1_555
C35_6 N12_6 1_555 1_555
N12_6 Zn3_6 1_555 1_555
C1_6 H1_6 1_555 1_555
C2_6 C1_6 1_555 1_555
H2_6 C2_6 1_555 1_555
H4_6 C5_6 1_555 1_555
I2_6 Zn4_3 1_555 1_555
N1_6 C1_6 1_555 1_555
Zn4_3 N1_6 1_555 1_555
C5_6 N1_6 1_555 1_555
I3_6 Zn2_4 1_555 1_555
I4_6 Zn2_4 1_555 1_555
Zn2_4 N5_6 1_555 1_555
C6_7 C3_7 1_555 1_555
C7_7 C9_7 1_555 1_555
C8_7 C14_7 1_555 1_555
C9_7 C10_7 1_555 1_555
C10_7 H5_7 1_555 1_555
C11_7 C10_7 1_555 1_555
H6_7 C11_7 1_555 1_555
C12_7 H7_7 1_555 1_555
C13_7 C9_7 1_555 1_555
H8_7 C13_7 1_555 1_555
C14_7 C15_7 1_555 1_555
C15_7 H9_7 1_555 1_555
C16_7 C15_7 1_555 1_555
H10_7 C16_7 1_555 1_555
C19_7 H13_7 1_555 1_555
C20_7 C19_7 1_555 1_555
H14_7 C20_7 1_555 1_555
C21_7 C20_7 1_555 1_555
C22_7 C21_7 1_555 1_555
H15_7 C22_7 1_555 1_555
C23_7 C22_7 1_555 1_555
H16_7 C23_7 1_555 1_555
C24_7 C21_7 1_555 1_555
C25_7 C27_7 1_555 1_555
C26_7 C32_7 1_555 1_555
C27_7 C28_7 1_555 1_555
C28_7 H17_7 1_555 1_555
C29_7 C28_7 1_555 1_555
H18_7 C29_7 1_555 1_555
C30_7 H19_7 1_555 1_555
C31_7 C27_7 1_555 1_555
H20_7 C31_7 1_555 1_555
C36_7 C32_7 1_555 1_555
H24_7 C36_7 1_555 1_555
I3_7 Zn5_3 1_555 1_555
I4_7 Zn5_3 1_555 1_555
N2_7 C6_7 1_555 1_555
N3_7 C7_7 1_555 1_555
N4_7 C6_7 1_555 1_555
N5_7 C11_7 1_555 1_555
N7_4 C19_7 1_555 1_555
N8_7 C24_7 1_555 1_555
N9_7 C25_7 1_555 1_555
N10_7 C24_7 1_555 1_555
N14_3 C29_7 1_555 1_555
Zn5_3 N5_7 1_555 1_555
Zn4_4 N7_4 1_555 1_555
C7_7 N2_7 1_555 1_555
C8_7 N3_7 1_555 1_555
C8_7 N4_7 1_555 1_555
C12_7 C13_7 1_555 1_555
C12_7 N5_7 1_555 1_555
C23_7 N7_4 1_555 1_555
C25_7 N8_7 1_555 1_555
C26_7 N9_7 1_555 1_555
C26_7 N10_7 1_555 1_555
C30_7 C31_7 1_555 1_555
C30_7 N14_3 1_555 1_555
H3_7 C4_7 1_555 1_555
C5_7 C4_7 1_555 1_555
H4_7 C5_7 1_555 1_555
C17_7 H11_7 1_555 1_555
H12_7 C18_7 1_555 1_555
C33_7 H21_7 1_555 1_555
C34_7 C33_7 1_555 1_555
H22_7 C34_7 1_555 1_555
C35_7 H23_7 1_555 1_555
I2_7 Zn4_4 1_555 1_555
I5_7 Zn3_7 1_555 1_555
N12_7 C34_7 1_555 1_555
Zn4_4 N1_7 1_555 1_555
Zn3_7 N6_7 1_555 1_555
I6_7 Zn3_7 1_555 1_555
C5_7 N1_7 1_555 1_555
C17_7 C18_7 1_555 1_555
C17_7 N6_7 1_555 1_555
C35_7 N12_7 1_555 1_555
N12_7 Zn3_7 1_555 1_555
H4_8 C5_8 1_555 1_555
I1_6 Zn1_4 1_555 1_555
I2_8 Zn1_4 1_555 1_555
Zn1_4 N1_8 1_555 1_555
N13_4 Zn1_4 1_555 1_555
C5_8 N1_8 1_555 1_555
C1_7 H1_7 1_555 1_555
C2_7 C1_7 1_555 1_555
H2_7 C2_7 1_555 1_555
C3_8 C2_7 1_555 1_555
C6_8 C3_8 1_555 1_555
C7_8 C9_8 1_555 1_555
C8_8 C14_8 1_555 1_555
C9_8 C10_8 1_555 1_555
C10_8 H5_8 1_555 1_555
C11_8 C10_8 1_555 1_555
H6_8 C11_8 1_555 1_555
C12_8 H7_8 1_555 1_555
C13_8 C9_8 1_555 1_555
H8_8 C13_8 1_555 1_555
C14_8 C15_8 1_555 1_555
C15_8 H9_8 1_555 1_555
C16_8 C15_8 1_555 1_555
H10_8 C16_8 1_555 1_555
C19_8 H13_8 1_555 1_555
C20_8 C19_8 1_555 1_555
H14_8 C20_8 1_555 1_555
C21_8 C20_8 1_555 1_555
C22_8 C21_8 1_555 1_555
H15_8 C22_8 1_555 1_555
C23_8 C22_8 1_555 1_555
H16_8 C23_8 1_555 1_555
C24_8 C21_8 1_555 1_555
C25_8 C27_8 1_555 1_555
C26_8 C32_8 1_555 1_555
C27_8 C28_8 1_555 1_555
C28_8 H17_8 1_555 1_555
C29_8 C28_8 1_555 1_555
H18_8 C29_8 1_555 1_555
C30_8 H19_8 1_555 1_555
C31_8 C27_8 1_555 1_555
H20_8 C31_8 1_555 1_555
C36_8 C32_8 1_555 1_555
H24_8 C36_8 1_555 1_555
I3_8 Zn5_4 1_555 1_555
I4_8 Zn5_4 1_555 1_555
N2_8 C6_8 1_555 1_555
N3_8 C7_8 1_555 1_555
N4_8 C6_8 1_555 1_555
N5_8 C11_8 1_555 1_555
N13_4 C19_8 1_555 1_555
N8_8 C24_8 1_555 1_555
N9_8 C25_8 1_555 1_555
N10_8 C24_8 1_555 1_555
N14_4 C29_8 1_555 1_555
Zn5_4 N5_8 1_555 1_555
C7_8 N2_8 1_555 1_555
C8_8 N3_8 1_555 1_555
C8_8 N4_8 1_555 1_555
C12_8 C13_8 1_555 1_555
C12_8 N5_8 1_555 1_555
C23_8 N13_4 1_555 1_555
C25_8 N8_8 1_555 1_555
C26_8 N9_8 1_555 1_555
C26_8 N10_8 1_555 1_555
C30_8 C31_8 1_555 1_555
C30_8 N14_4 1_555 1_555
C1_8 H1_8 1_555 1_555
C2_8 C1_8 1_555 1_555
H2_8 C2_8 1_555 1_555
H3_8 C4_8 1_555 1_555
C17_8 H11_8 1_555 1_555
H12_8 C18_8 1_555 1_555
C33_8 H21_8 1_555 1_555
C34_8 C33_8 1_555 1_555
H22_8 C34_8 1_555 1_555
C35_8 H23_8 1_555 1_555
I5_8 Zn3_8 1_555 1_555
N12_8 C34_8 1_555 1_555
Zn3_8 N6_8 1_555 1_555
I6_8 Zn3_8 1_555 1_555
C17_8 C18_8 1_555 1_555
C17_8 N6_8 1_555 1_555
C35_8 N12_8 1_555 1_555
N12_8 Zn3_8 1_555 1_555

#END
