
###############################################################################
#
# This file contains modified crystal structure data generated from the
# MOF subset of the Cambridge Structural Database (CSD) v543 
# hosted by the Cambridge Crystallographic Data Centre (CCDC).
#
# This work is licensed under the Creative Commons
# Attribution-NonCommercial-ShareAlike 4.0 International License.
# To view a copy of this license, visit
# http://creativecommons.org/licenses/by-nc-sa/4.0/
# or send a letter to
# Creative Commons, PO Box 1866, Mountain View, CA 94042, USA.
#
# CIF created using the CSD Python API on 29 September 2022
# The structure has been converted into the P1 space group
# The structure has a 3D framework
# The original CSD entry KEVYAO is in the orthorhombic crystal system
# The framework has been calculated to contain at least 10.0% void space
# The void calculation uses a probe of radius 1.32A, grid spacing 0.4
#
###############################################################################

data_KEVYAO
_chemical_formula_moiety         '(C288 H192 I48 N96 Zn24)n'
_symmetry_cell_setting           triclinic
_symmetry_space_group_name_H-M   'P 1'
_symmetry_Int_Tables_number      1
_space_group_name_Hall           'P 1'
loop_
_symmetry_equiv_pos_site_id
_symmetry_equiv_pos_as_xyz
1 x,y,z
_cell_length_a                   28.6035(3)
_cell_length_b                   13.93600(12)
_cell_length_c                   45.9198(5)
_cell_angle_alpha                90
_cell_angle_beta                 90
_cell_angle_gamma                90
_cell_volume                     18304.5
loop_
_atom_site_label
_atom_site_type_symbol
_atom_site_fract_x
_atom_site_fract_y
_atom_site_fract_z
C1 C 0.5613(3) 0.4813(5) 0.52899(14)
H1 H 0.5465 0.4520 0.5447
C2 C 0.5707(3) 0.4276(5) 0.50491(15)
H2 H 0.5625 0.3630 0.5046
C3 C 0.5927(2) 0.4689(4) 0.48058(12)
C4 C 0.6036(3) 0.5634(5) 0.48296(15)
H3 H 0.6194 0.5934 0.4677
C5 C 0.5918(3) 0.6175(5) 0.50793(15)
H4 H 0.5973 0.6832 0.5083
C6 C 0.6036(2) 0.4140(4) 0.45449(12)
C7 C 0.6018(2) 0.2753(4) 0.42935(12)
C8 C 0.6338(2) 0.4087(4) 0.40980(12)
C9 C 0.5864(2) 0.1736(4) 0.42586(13)
C10 C 0.5595(3) 0.1311(5) 0.44717(16)
H5 H 0.5516 0.1652 0.4639
C11 C 0.5446(3) 0.0399(5) 0.44379(15)
H6 H 0.5284 0.0108 0.4590
C12 C 0.5780(3) 0.0301(5) 0.39929(17)
C13 C 0.5963(3) 0.1234(5) 0.40198(16)
H8 H 0.6149 0.1495 0.3874
C14 C 0.6562(2) 0.4598(4) 0.38478(12)
C15 C 0.6787(3) 0.4084(4) 0.36218(14)
H9 H 0.6780 0.3417 0.3617
C16 C 0.7014(3) 0.4602(4) 0.34104(13)
H10 H 0.7175 0.4272 0.3266
C17 C 0.6768(3) 0.6021(4) 0.36158(15)
H11 H 0.6747 0.6686 0.3609
C18 C 0.6557(3) 0.5551(4) 0.38345(14)
H12 H 0.6404 0.5898 0.3979
C19 C 0.8344(2) 0.3792(5) 0.08090(13)
H13 H 0.8325 0.3598 0.0616
C20 C 0.7934(2) 0.3960(4) 0.09561(12)
H14 H 0.7647 0.3918 0.0862
C21 C 0.79602(18) 0.4194(3) 0.12494(10)
C22 C 0.83992(19) 0.4283(4) 0.13709(12)
H15 H 0.8428 0.4439 0.1567
C23 C 0.8789(2) 0.4148(4) 0.12090(12)
H16 H 0.9080 0.4235 0.1295
C24 C 0.75279(18) 0.4322(3) 0.14236(11)
C25 C 0.67478(19) 0.4340(3) 0.14586(11)
C26 C 0.71917(19) 0.4655(3) 0.18545(10)
C27 C 0.62831(19) 0.4226(4) 0.13246(12)
C28 C 0.6234(2) 0.4161(5) 0.10221(13)
H17 H 0.6495 0.4218 0.0902
C29 C 0.5801(2) 0.4013(5) 0.09025(15)
H18 H 0.5776 0.3974 0.0701
C30 C 0.5457(2) 0.4003(6) 0.13512(16)
H19 H 0.5190 0.3944 0.1466
C31 C 0.5875(2) 0.4167(6) 0.14865(15)
H20 H 0.5885 0.4239 0.1688
C32 C 0.72382(19) 0.4939(3) 0.21614(10)
C33 C 0.6843(2) 0.5263(5) 0.23205(13)
H21 H 0.6547 0.5276 0.2237
C34 C 0.6916(2) 0.5559(5) 0.26036(13)
H22 H 0.6659 0.5748 0.2714
C35 C 0.7703(2) 0.5277(4) 0.25782(12)
H23 H 0.7994 0.5273 0.2668
C36 C 0.7665(2) 0.4960(4) 0.22945(11)
H24 H 0.7930 0.4761 0.2194
I1 I 0.49619(2) 0.56808(6) 0.59676(2)
I2 I 0.57233(3) 0.82603(4) 0.55848(2)
I5 I 0.70098(2) 0.79538(3) 0.30468(2)
N1 N 0.5724(2) 0.5740(4) 0.53118(11)
N2 N 0.59157(18) 0.3223(3) 0.45397(10)
N3 N 0.62391(17) 0.3153(3) 0.40655(10)
N4 N 0.62461(17) 0.4600(3) 0.43292(10)
N6 N 0.70123(19) 0.5557(3) 0.34036(10)
N7 N 0.87675(17) 0.3889(3) 0.09257(10)
N8 N 0.71206(15) 0.4227(3) 0.12912(9)
N9 N 0.67568(16) 0.4565(3) 0.17428(9)
N10 N 0.75861(15) 0.4543(3) 0.17044(8)
N11 N 0.54110(17) 0.3923(3) 0.10633(11)
N12 N 0.73328(17) 0.5587(3) 0.27251(10)
Zn1 Zn 0.56295(3) 0.64794(6) 0.56965(2)
Zn3 Zn 0.74113(3) 0.63357(5) 0.31157(2)
I6 I 0.82592(2) 0.63106(6) 0.32729(2)
N13 N 0.62325(17) 0.6111(3) 0.59257(10)
Zn4 Zn 0.93705(3) 0.35206(6) 0.06965(2)
Zn5 Zn 0.47792(3) 0.35684(5) 0.08705(2)
H7 H 0.5845 0.9956 0.3825
I3 I 0.56834(2) 0.76818(5) 0.37435(2)
I4 I 0.50469(2) 0.78521(5) 0.46276(2)
N5 N 0.55216(17) 0.9896(3) 0.41940(11)
Zn2 Zn 0.52208(3) 0.85684(5) 0.41295(2)
N14 N 0.45890(17) 0.8923(3) 0.39367(11)
H7_2 H 0.9155 0.0044 0.8825
I3_2 I 0.93166(2) 0.23182(5) 0.87435(2)
I4_2 I 0.99531(2) 0.21479(5) 0.96276(2)
N5_2 N 0.94784(17) 0.0104(3) 0.91940(11)
Zn2_2 Zn 0.97792(3) 0.14316(5) 0.91295(2)
C1_2 C 0.9387(3) 0.5187(5) 0.02899(14)
H1_2 H 0.9535 0.5480 0.0447
C2_2 C 0.9293(3) 0.5724(5) 0.00491(15)
H2_2 H 0.9375 0.6370 0.0046
C5_2 C 0.9082(3) 0.3825(5) 0.00793(15)
H4_2 H 0.9027 0.3168 0.0083
I2_2 I 0.92767(3) 0.17397(4) 0.05848(2)
N1_2 N 0.9276(2) 0.4260(4) 0.03118(11)
C3_2 C 0.9073(2) 0.5311(4) 0.98058(12)
C4_2 C 0.8964(3) 0.4366(5) 0.98296(15)
H3_2 H 0.8806 0.4066 0.9677
C6_2 C 0.8964(2) 0.5860(4) 0.95449(12)
C7_2 C 0.8982(2) 0.7247(4) 0.92935(12)
C8_2 C 0.8662(2) 0.5913(4) 0.90980(12)
C9_2 C 0.9136(2) 0.8264(4) 0.92586(13)
C10_2 C 0.9405(3) 0.8689(5) 0.94717(16)
H5_2 H 0.9484 0.8348 0.9639
C11_2 C 0.9554(3) 0.9601(5) 0.94379(15)
H6_2 H 0.9716 0.9892 0.9590
C12_2 C 0.9220(3) 0.9699(5) 0.89929(17)
C13_2 C 0.9037(3) 0.8766(5) 0.90198(16)
H8_2 H 0.8851 0.8505 0.8874
C14_2 C 0.8438(2) 0.5402(4) 0.88478(12)
C15_2 C 0.8213(3) 0.5916(4) 0.86218(14)
H9_2 H 0.8220 0.6583 0.8617
C16_2 C 0.7986(3) 0.5398(4) 0.84104(13)
H10_2 H 0.7825 0.5728 0.8266
C17_2 C 0.8232(3) 0.3979(4) 0.86158(15)
H11_2 H 0.8253 0.3314 0.8609
C18_2 C 0.8443(3) 0.4449(4) 0.88345(14)
H12_2 H 0.8596 0.4102 0.8979
C19_2 C 0.6656(2) 0.6208(5) 0.58090(13)
H13_2 H 0.6675 0.6402 0.5616
C20_2 C 0.7066(2) 0.6040(4) 0.59561(12)
H14_2 H 0.7353 0.6082 0.5862
C21_2 C 0.70398(18) 0.5806(3) 0.62494(10)
C22_2 C 0.66008(19) 0.5717(4) 0.63709(12)
H15_2 H 0.6572 0.5561 0.6567
C23_2 C 0.6211(2) 0.5852(4) 0.62090(12)
H16_2 H 0.5920 0.5765 0.6295
C24_2 C 0.74721(18) 0.5678(3) 0.64236(11)
C25_2 C 0.82522(19) 0.5660(3) 0.64586(11)
C26_2 C 0.78083(19) 0.5345(3) 0.68545(10)
C27_2 C 0.87169(19) 0.5774(4) 0.63246(12)
C28_2 C 0.8766(2) 0.5839(5) 0.60221(13)
H17_2 H 0.8505 0.5782 0.5902
C29_2 C 0.9199(2) 0.5987(5) 0.59025(15)
H18_2 H 0.9224 0.6026 0.5701
C30_2 C 0.9543(2) 0.5997(6) 0.63512(16)
H19_2 H 0.9810 0.6056 0.6466
C31_2 C 0.9125(2) 0.5833(6) 0.64865(15)
H20_2 H 0.9115 0.5761 0.6688
C32_2 C 0.77618(19) 0.5061(3) 0.71614(10)
C33_2 C 0.8157(2) 0.4737(5) 0.73205(13)
H21_2 H 0.8453 0.4724 0.7237
C34_2 C 0.8084(2) 0.4441(5) 0.76036(13)
H22_2 H 0.8341 0.4252 0.7714
C35_2 C 0.7297(2) 0.4723(4) 0.75782(12)
H23_2 H 0.7006 0.4727 0.7668
C36_2 C 0.7335(2) 0.5040(4) 0.72945(11)
H24_2 H 0.7070 0.5239 0.7194
I5_2 I 0.79902(2) 0.20462(3) 0.80468(2)
N2_2 N 0.90843(18) 0.6777(3) 0.95397(10)
N3_2 N 0.87609(17) 0.6847(3) 0.90655(10)
N4_2 N 0.87539(17) 0.5400(3) 0.93292(10)
N6_2 N 0.79877(19) 0.4443(3) 0.84036(10)
N8_2 N 0.78794(15) 0.5773(3) 0.62912(9)
N9_2 N 0.82432(16) 0.5435(3) 0.67428(9)
N10_2 N 0.74139(15) 0.5457(3) 0.67044(8)
N11_2 N 0.95890(17) 0.6077(3) 0.60633(11)
N12_2 N 0.76672(17) 0.4413(3) 0.77251(10)
Zn3_2 Zn 0.75887(3) 0.36643(5) 0.81157(2)
I6_2 I 0.67408(2) 0.36894(6) 0.82729(2)
C3_3 C 0.4073(2) 0.9689(4) 0.01942(12)
C6_3 C 0.3964(2) 0.9140(4) 0.04551(12)
C7_3 C 0.3982(2) 0.7753(4) 0.07065(12)
C8_3 C 0.3662(2) 0.9087(4) 0.09020(12)
C9_3 C 0.4136(2) 0.6736(4) 0.07414(13)
C10_3 C 0.4405(3) 0.6311(5) 0.05283(16)
H5_3 H 0.4484 0.6652 0.0361
C11_3 C 0.4554(3) 0.5399(5) 0.05621(15)
H6_3 H 0.4716 0.5108 0.0410
C12_3 C 0.4220(3) 0.5301(5) 0.10071(17)
H7_3 H 0.4155 0.4956 0.1175
C13_3 C 0.4037(3) 0.6234(5) 0.09802(16)
H8_3 H 0.3851 0.6495 0.1126
C14_3 C 0.3438(2) 0.9598(4) 0.11522(12)
C15_3 C 0.3213(3) 0.9084(4) 0.13782(14)
H9_3 H 0.3220 0.8417 0.1383
C16_3 C 0.2986(3) 0.9602(4) 0.15896(13)
H10_3 H 0.2825 0.9272 0.1734
C19_3 C 0.1656(2) 0.8792(5) 0.41910(13)
H13_3 H 0.1675 0.8598 0.4384
C20_3 C 0.2066(2) 0.8960(4) 0.40439(12)
H14_3 H 0.2353 0.8918 0.4138
C21_3 C 0.20398(18) 0.9194(3) 0.37506(10)
C22_3 C 0.16008(19) 0.9283(4) 0.36291(12)
H15_3 H 0.1572 0.9439 0.3433
C23_3 C 0.1211(2) 0.9148(4) 0.37910(12)
H16_3 H 0.0920 0.9235 0.3705
C24_3 C 0.24721(18) 0.9322(3) 0.35764(11)
C25_3 C 0.32522(19) 0.9340(3) 0.35414(11)
C26_3 C 0.28083(19) 0.9655(3) 0.31455(10)
C27_3 C 0.37169(19) 0.9226(4) 0.36754(12)
C28_3 C 0.3766(2) 0.9161(5) 0.39779(13)
H17_3 H 0.3505 0.9218 0.4098
C29_3 C 0.4199(2) 0.9013(5) 0.40975(15)
H18_3 H 0.4224 0.8974 0.4299
C30_3 C 0.4543(2) 0.9003(6) 0.36488(16)
H19_3 H 0.4810 0.8944 0.3534
C31_3 C 0.4125(2) 0.9167(6) 0.35135(15)
H20_3 H 0.4115 0.9239 0.3312
C32_3 C 0.27618(19) 0.9939(3) 0.28386(10)
C36_3 C 0.2335(2) 0.9960(4) 0.27055(11)
H24_3 H 0.2070 0.9761 0.2806
I3_3 I 0.43166(2) 0.26818(5) 0.12565(2)
I4_3 I 0.49531(2) 0.28521(5) 0.03724(2)
N2_3 N 0.40843(18) 0.8223(3) 0.04603(10)
N3_3 N 0.37609(17) 0.8153(3) 0.09345(10)
N4_3 N 0.37539(17) 0.9600(3) 0.06708(10)
N5_3 N 0.44784(17) 0.4896(3) 0.08060(11)
N7_2 N 0.12325(17) 0.8889(3) 0.40743(10)
N8_3 N 0.28794(15) 0.9227(3) 0.37088(9)
N9_3 N 0.32432(16) 0.9565(3) 0.32572(9)
N10_3 N 0.24139(15) 0.9543(3) 0.32956(8)
Zn4_2 Zn 0.06295(3) 0.85206(6) 0.43035(2)
C4_3 C 0.1036(3) 0.9366(5) 0.51704(15)
H3_3 H 0.1194 0.9066 0.5323
C5_3 C 0.0918(3) 0.8825(5) 0.49207(15)
H4_3 H 0.0973 0.8168 0.4917
C17_3 C 0.1768(3) 0.8979(4) 0.63842(15)
H11_3 H 0.1747 0.8314 0.6391
C18_3 C 0.1557(3) 0.9449(4) 0.61655(14)
H12_3 H 0.1404 0.9102 0.6021
C33_3 C 0.1843(2) 0.9737(5) 0.76795(13)
H21_3 H 0.1547 0.9724 0.7763
C34_3 C 0.1916(2) 0.9441(5) 0.73964(13)
H22_3 H 0.1659 0.9252 0.7286
C35_3 C 0.2703(2) 0.9723(4) 0.74218(12)
H23_3 H 0.2994 0.9727 0.7332
I2_3 I 0.07233(3) 0.67397(4) 0.44152(2)
I5_3 I 0.20098(2) 0.70462(3) 0.69532(2)
N1_3 N 0.0724(2) 0.9260(4) 0.46882(11)
N6_3 N 0.20123(19) 0.9443(3) 0.65964(10)
N12_3 N 0.23328(17) 0.9413(3) 0.72749(10)
Zn3_3 Zn 0.24113(3) 0.86643(5) 0.68843(2)
I6_3 I 0.32592(2) 0.86894(6) 0.67271(2)
N14_2 N 0.04110(17) 0.1077(3) 0.89367(11)
Zn5_2 Zn 0.02208(3) 0.64316(5) 0.58705(2)
C5_4 C 0.4082(3) 0.1175(5) 0.99207(15)
H4_4 H 0.4027 0.1832 0.9917
I1_2 I 0.50381(2) 0.06808(6) 0.90324(2)
I2_4 I 0.42767(3) 0.32603(4) 0.94152(2)
N1_4 N 0.4276(2) 0.0740(4) 0.96882(11)
Zn1_2 Zn 0.43705(3) 0.14794(6) 0.93035(2)
N13_2 N 0.37675(17) 0.1111(3) 0.90743(10)
C1_3 C 0.0613(3) 0.0187(5) 0.47101(14)
H1_3 H 0.0465 0.0480 0.4553
C2_3 C 0.0707(3) 0.0724(5) 0.49509(15)
H2_3 H 0.0625 0.1370 0.4954
C3_4 C 0.0927(2) 0.0311(4) 0.51942(12)
C6_4 C 0.1036(2) 0.0860(4) 0.54551(12)
C7_4 C 0.1018(2) 0.2247(4) 0.57065(12)
C8_4 C 0.1338(2) 0.0913(4) 0.59020(12)
C9_4 C 0.0864(2) 0.3264(4) 0.57414(13)
C10_4 C 0.0595(3) 0.3689(5) 0.55283(16)
H5_4 H 0.0516 0.3348 0.5361
C11_4 C 0.0446(3) 0.4601(5) 0.55621(15)
H6_4 H 0.0284 0.4892 0.5410
C12_4 C 0.0780(3) 0.4699(5) 0.60071(17)
H7_4 H 0.0845 0.5044 0.6175
C13_4 C 0.0963(3) 0.3766(5) 0.59802(16)
H8_4 H 0.1149 0.3505 0.6126
C14_4 C 0.1562(2) 0.0402(4) 0.61522(12)
C15_4 C 0.1787(3) 0.0916(4) 0.63782(14)
H9_4 H 0.1780 0.1583 0.6383
C16_4 C 0.2014(3) 0.0398(4) 0.65896(13)
H10_4 H 0.2175 0.0728 0.6734
C19_4 C 0.3344(2) 0.1208(5) 0.91910(13)
H13_4 H 0.3325 0.1402 0.9384
C20_4 C 0.2934(2) 0.1040(4) 0.90439(12)
H14_4 H 0.2647 0.1082 0.9138
C21_4 C 0.29602(18) 0.0806(3) 0.87506(10)
C22_4 C 0.33992(19) 0.0717(4) 0.86291(12)
H15_4 H 0.3428 0.0561 0.8433
C23_4 C 0.3789(2) 0.0852(4) 0.87910(12)
H16_4 H 0.4080 0.0765 0.8705
C24_4 C 0.25279(18) 0.0678(3) 0.85764(11)
C25_4 C 0.17478(19) 0.0660(3) 0.85414(11)
C26_4 C 0.21917(19) 0.0345(3) 0.81455(10)
C27_4 C 0.12831(19) 0.0774(4) 0.86754(12)
C28_4 C 0.1234(2) 0.0839(5) 0.89779(13)
H17_4 H 0.1495 0.0782 0.9098
C29_4 C 0.0801(2) 0.0987(5) 0.90975(15)
H18_4 H 0.0776 0.1026 0.9299
C30_4 C 0.0457(2) 0.0997(6) 0.86488(16)
H19_4 H 0.0190 0.1056 0.8534
C31_4 C 0.0875(2) 0.0833(6) 0.85135(15)
H20_4 H 0.0885 0.0761 0.8312
C32_4 C 0.22382(19) 0.0061(3) 0.78386(10)
C36_4 C 0.2665(2) 0.0040(4) 0.77055(11)
H24_4 H 0.2930 0.0239 0.7806
I3_4 I 0.06834(2) 0.73182(5) 0.62565(2)
I4_4 I 0.00469(2) 0.71479(5) 0.53724(2)
N2_4 N 0.09157(18) 0.1777(3) 0.54603(10)
N3_4 N 0.12391(17) 0.1847(3) 0.59345(10)
N4_4 N 0.12461(17) 0.0400(3) 0.56708(10)
N5_4 N 0.05216(17) 0.5104(3) 0.58060(11)
N8_4 N 0.21206(15) 0.0773(3) 0.87088(9)
N9_4 N 0.17568(16) 0.0435(3) 0.82572(9)
N10_4 N 0.25861(15) 0.0457(3) 0.82956(8)
I1_3 I 0.00381(2) 0.43192(6) 0.09676(2)
C4_4 C 0.3964(3) 0.0634(5) 0.01704(15)
H3_4 H 0.3806 0.0934 0.0323
C17_4 C 0.3232(3) 0.1021(4) 0.13842(15)
H11_4 H 0.3253 0.1686 0.1391
C18_4 C 0.3443(3) 0.0551(4) 0.11655(14)
H12_4 H 0.3596 0.0898 0.1021
C33_4 C 0.3157(2) 0.0263(5) 0.26795(13)
H21_4 H 0.3453 0.0276 0.2763
C34_4 C 0.3084(2) 0.0559(5) 0.23964(13)
H22_4 H 0.3341 0.0748 0.2286
C35_4 C 0.2297(2) 0.0277(4) 0.24218(12)
H23_4 H 0.2006 0.0273 0.2332
I5_4 I 0.29902(2) 0.29538(3) 0.19532(2)
N6_4 N 0.29877(19) 0.0557(3) 0.15964(10)
N12_4 N 0.26672(17) 0.0587(3) 0.22749(10)
Zn3_4 Zn 0.25887(3) 0.13357(5) 0.18843(2)
I6_4 I 0.17408(2) 0.13106(6) 0.17271(2)
C1_4 C 0.4387(3) 0.9813(5) 0.97101(14)
H1_4 H 0.4535 0.9520 0.9553
C2_4 C 0.4293(3) 0.9276(5) 0.99509(15)
H2_4 H 0.4375 0.8630 0.9954
I1_4 I 0.99619(2) 0.93192(6) 0.40324(2)
H7_5 H 0.4155 0.0044 0.6175
I3_5 I 0.43166(2) 0.23182(5) 0.62565(2)
I4_5 I 0.49531(2) 0.21479(5) 0.53724(2)
N5_5 N 0.44784(17) 0.0104(3) 0.58060(11)
Zn2_3 Zn 0.47792(3) 0.14316(5) 0.58705(2)
N14_3 N 0.54110(17) 0.1077(3) 0.60633(11)
C1_5 C 0.4387(3) 0.5187(5) 0.47101(14)
H1_5 H 0.4535 0.5480 0.4553
C2_5 C 0.4293(3) 0.5724(5) 0.49509(15)
H2_5 H 0.4375 0.6370 0.4954
C3_5 C 0.4073(2) 0.5311(4) 0.51942(12)
C4_5 C 0.3964(3) 0.4366(5) 0.51704(15)
H3_5 H 0.3806 0.4066 0.5323
C5_5 C 0.4082(3) 0.3825(5) 0.49207(15)
H4_5 H 0.4027 0.3168 0.4917
C6_5 C 0.3964(2) 0.5860(4) 0.54551(12)
C7_5 C 0.3982(2) 0.7247(4) 0.57065(12)
C8_5 C 0.3662(2) 0.5913(4) 0.59020(12)
C9_5 C 0.4136(2) 0.8264(4) 0.57414(13)
C10_5 C 0.4405(3) 0.8689(5) 0.55283(16)
H5_5 H 0.4484 0.8348 0.5361
C11_5 C 0.4554(3) 0.9601(5) 0.55621(15)
H6_5 H 0.4716 0.9892 0.5410
C12_5 C 0.4220(3) 0.9699(5) 0.60071(17)
C13_5 C 0.4037(3) 0.8766(5) 0.59802(16)
H8_5 H 0.3851 0.8505 0.6126
C14_5 C 0.3438(2) 0.5402(4) 0.61522(12)
C15_5 C 0.3213(3) 0.5916(4) 0.63782(14)
H9_5 H 0.3220 0.6583 0.6383
C16_5 C 0.2986(3) 0.5398(4) 0.65896(13)
H10_5 H 0.2825 0.5728 0.6734
C17_5 C 0.3232(3) 0.3979(4) 0.63842(15)
H11_5 H 0.3253 0.3314 0.6391
C18_5 C 0.3443(3) 0.4449(4) 0.61655(14)
H12_5 H 0.3596 0.4102 0.6021
C19_5 C 0.1656(2) 0.6208(5) 0.91910(13)
H13_5 H 0.1675 0.6402 0.9384
C20_5 C 0.2066(2) 0.6040(4) 0.90439(12)
H14_5 H 0.2353 0.6082 0.9138
C21_5 C 0.20398(18) 0.5806(3) 0.87506(10)
C22_5 C 0.16008(19) 0.5717(4) 0.86291(12)
H15_5 H 0.1572 0.5561 0.8433
C23_5 C 0.1211(2) 0.5852(4) 0.87910(12)
H16_5 H 0.0920 0.5765 0.8705
C24_5 C 0.24721(18) 0.5678(3) 0.85764(11)
C25_5 C 0.32522(19) 0.5660(3) 0.85414(11)
C26_5 C 0.28083(19) 0.5345(3) 0.81455(10)
C27_5 C 0.37169(19) 0.5774(4) 0.86754(12)
C28_5 C 0.3766(2) 0.5839(5) 0.89779(13)
H17_5 H 0.3505 0.5782 0.9098
C29_5 C 0.4199(2) 0.5987(5) 0.90975(15)
H18_5 H 0.4224 0.6026 0.9299
C30_5 C 0.4543(2) 0.5997(6) 0.86488(16)
H19_5 H 0.4810 0.6056 0.8534
C31_5 C 0.4125(2) 0.5833(6) 0.85135(15)
H20_5 H 0.4115 0.5761 0.8312
C32_5 C 0.27618(19) 0.5061(3) 0.78386(10)
C33_5 C 0.3157(2) 0.4737(5) 0.76795(13)
H21_5 H 0.3453 0.4724 0.7763
C34_5 C 0.3084(2) 0.4441(5) 0.73964(13)
H22_5 H 0.3341 0.4252 0.7286
C35_5 C 0.2297(2) 0.4723(4) 0.74218(12)
H23_5 H 0.2006 0.4727 0.7332
C36_5 C 0.2335(2) 0.5040(4) 0.77055(11)
H24_5 H 0.2070 0.5239 0.7806
I1_5 I 0.50381(2) 0.43192(6) 0.40324(2)
I2_5 I 0.42767(3) 0.17397(4) 0.44152(2)
I5_5 I 0.29902(2) 0.20462(3) 0.69532(2)
N1_5 N 0.4276(2) 0.4260(4) 0.46882(11)
N2_5 N 0.40843(18) 0.6777(3) 0.54603(10)
N3_5 N 0.37609(17) 0.6847(3) 0.59345(10)
N4_5 N 0.37539(17) 0.5400(3) 0.56708(10)
N6_5 N 0.29877(19) 0.4443(3) 0.65964(10)
N7_3 N 0.12325(17) 0.6111(3) 0.90743(10)
N8_5 N 0.28794(15) 0.5773(3) 0.87088(9)
N9_5 N 0.32432(16) 0.5435(3) 0.82572(9)
N10_5 N 0.24139(15) 0.5457(3) 0.82956(8)
N11_3 N 0.45890(17) 0.6077(3) 0.89367(11)
N12_5 N 0.26672(17) 0.4413(3) 0.72749(10)
Zn1_3 Zn 0.43705(3) 0.35206(6) 0.43035(2)
Zn3_5 Zn 0.25887(3) 0.36643(5) 0.68843(2)
I6_5 I 0.17408(2) 0.36894(6) 0.67271(2)
N13_3 N 0.37675(17) 0.3889(3) 0.40743(10)
Zn4_3 Zn 0.06295(3) 0.64794(6) 0.93035(2)
Zn5_3 Zn 0.52208(3) 0.64316(5) 0.91295(2)
C3_6 C 0.0927(2) 0.4689(4) 0.01942(12)
C4_6 C 0.1036(3) 0.5634(5) 0.01704(15)
H3_6 H 0.1194 0.5934 0.0323
C6_6 C 0.1036(2) 0.4140(4) 0.04551(12)
C7_6 C 0.1018(2) 0.2753(4) 0.07065(12)
C8_6 C 0.1338(2) 0.4087(4) 0.09020(12)
C9_6 C 0.0864(2) 0.1736(4) 0.07414(13)
C10_6 C 0.0595(3) 0.1311(5) 0.05283(16)
H5_6 H 0.0516 0.1652 0.0361
C11_6 C 0.0446(3) 0.0399(5) 0.05621(15)
H6_6 H 0.0284 0.0108 0.0410
C12_6 C 0.0780(3) 0.0301(5) 0.10071(17)
C13_6 C 0.0963(3) 0.1234(5) 0.09802(16)
H8_6 H 0.1149 0.1495 0.1126
C14_6 C 0.1562(2) 0.4598(4) 0.11522(12)
C15_6 C 0.1787(3) 0.4084(4) 0.13782(14)
H9_6 H 0.1780 0.3417 0.1383
C16_6 C 0.2014(3) 0.4602(4) 0.15896(13)
H10_6 H 0.2175 0.4272 0.1734
C17_6 C 0.1768(3) 0.6021(4) 0.13842(15)
H11_6 H 0.1747 0.6686 0.1391
C18_6 C 0.1557(3) 0.5551(4) 0.11655(14)
H12_6 H 0.1404 0.5898 0.1021
C19_6 C 0.3344(2) 0.3792(5) 0.41910(13)
H13_6 H 0.3325 0.3598 0.4384
C20_6 C 0.2934(2) 0.3960(4) 0.40439(12)
H14_6 H 0.2647 0.3918 0.4138
C21_6 C 0.29602(18) 0.4194(3) 0.37506(10)
C22_6 C 0.33992(19) 0.4283(4) 0.36291(12)
H15_6 H 0.3428 0.4439 0.3433
C23_6 C 0.3789(2) 0.4148(4) 0.37910(12)
H16_6 H 0.4080 0.4235 0.3705
C24_6 C 0.25279(18) 0.4322(3) 0.35764(11)
C25_6 C 0.17478(19) 0.4340(3) 0.35414(11)
C26_6 C 0.21917(19) 0.4655(3) 0.31455(10)
C27_6 C 0.12831(19) 0.4226(4) 0.36754(12)
C28_6 C 0.1234(2) 0.4161(5) 0.39779(13)
H17_6 H 0.1495 0.4218 0.4098
C29_6 C 0.0801(2) 0.4013(5) 0.40975(15)
H18_6 H 0.0776 0.3974 0.4299
C30_6 C 0.0457(2) 0.4003(6) 0.36488(16)
H19_6 H 0.0190 0.3944 0.3534
C31_6 C 0.0875(2) 0.4167(6) 0.35135(15)
H20_6 H 0.0885 0.4239 0.3312
C32_6 C 0.22382(19) 0.4939(3) 0.28386(10)
C33_6 C 0.1843(2) 0.5263(5) 0.26795(13)
H21_6 H 0.1547 0.5276 0.2763
C34_6 C 0.1916(2) 0.5559(5) 0.23964(13)
H22_6 H 0.1659 0.5748 0.2286
C35_6 C 0.2703(2) 0.5277(4) 0.24218(12)
H23_6 H 0.2994 0.5273 0.2332
C36_6 C 0.2665(2) 0.4960(4) 0.27055(11)
H24_6 H 0.2930 0.4761 0.2806
I5_6 I 0.20098(2) 0.79538(3) 0.19532(2)
N2_6 N 0.09157(18) 0.3223(3) 0.04603(10)
N3_6 N 0.12391(17) 0.3153(3) 0.09345(10)
N4_6 N 0.12461(17) 0.4600(3) 0.06708(10)
N6_6 N 0.20123(19) 0.5557(3) 0.15964(10)
N8_6 N 0.21206(15) 0.4227(3) 0.37088(9)
N9_6 N 0.17568(16) 0.4565(3) 0.32572(9)
N10_6 N 0.25861(15) 0.4543(3) 0.32956(8)
N11_4 N 0.04110(17) 0.3923(3) 0.39367(11)
N12_6 N 0.23328(17) 0.5587(3) 0.22749(10)
Zn3_6 Zn 0.24113(3) 0.63357(5) 0.18843(2)
I6_6 I 0.32592(2) 0.63106(6) 0.17271(2)
C1_6 C 0.0613(3) 0.4813(5) 0.97101(14)
H1_6 H 0.0465 0.4520 0.9553
C2_6 C 0.0707(3) 0.4276(5) 0.99509(15)
H2_6 H 0.0625 0.3630 0.9954
C5_6 C 0.0918(3) 0.6175(5) 0.99207(15)
H4_6 H 0.0973 0.6832 0.9917
I2_6 I 0.07233(3) 0.82603(4) 0.94152(2)
N1_6 N 0.0724(2) 0.5740(4) 0.96882(11)
H7_6 H 0.0845 0.9956 0.1175
I3_6 I 0.06834(2) 0.76818(5) 0.12565(2)
I4_6 I 0.00469(2) 0.78521(5) 0.03724(2)
N5_6 N 0.05216(17) 0.9896(3) 0.08060(11)
Zn2_4 Zn 0.02208(3) 0.85684(5) 0.08705(2)
C3_7 C 0.5927(2) 0.0311(4) 0.98058(12)
C6_7 C 0.6036(2) 0.0860(4) 0.95449(12)
C7_7 C 0.6018(2) 0.2247(4) 0.92935(12)
C8_7 C 0.6338(2) 0.0913(4) 0.90980(12)
C9_7 C 0.5864(2) 0.3264(4) 0.92586(13)
C10_7 C 0.5595(3) 0.3689(5) 0.94717(16)
H5_7 H 0.5516 0.3348 0.9639
C11_7 C 0.5446(3) 0.4601(5) 0.94379(15)
H6_7 H 0.5284 0.4892 0.9590
C12_7 C 0.5780(3) 0.4699(5) 0.89929(17)
H7_7 H 0.5845 0.5044 0.8825
C13_7 C 0.5963(3) 0.3766(5) 0.90198(16)
H8_7 H 0.6149 0.3505 0.8874
C14_7 C 0.6562(2) 0.0402(4) 0.88478(12)
C15_7 C 0.6787(3) 0.0916(4) 0.86218(14)
H9_7 H 0.6780 0.1583 0.8617
C16_7 C 0.7014(3) 0.0398(4) 0.84104(13)
H10_7 H 0.7175 0.0728 0.8266
C19_7 C 0.8344(2) 0.1208(5) 0.58090(13)
H13_7 H 0.8325 0.1402 0.5616
C20_7 C 0.7934(2) 0.1040(4) 0.59561(12)
H14_7 H 0.7647 0.1082 0.5862
C21_7 C 0.79602(18) 0.0806(3) 0.62494(10)
C22_7 C 0.83992(19) 0.0717(4) 0.63709(12)
H15_7 H 0.8428 0.0561 0.6567
C23_7 C 0.8789(2) 0.0852(4) 0.62090(12)
H16_7 H 0.9080 0.0765 0.6295
C24_7 C 0.75279(18) 0.0678(3) 0.64236(11)
C25_7 C 0.67478(19) 0.0660(3) 0.64586(11)
C26_7 C 0.71917(19) 0.0345(3) 0.68545(10)
C27_7 C 0.62831(19) 0.0774(4) 0.63246(12)
C28_7 C 0.6234(2) 0.0839(5) 0.60221(13)
H17_7 H 0.6495 0.0782 0.5902
C29_7 C 0.5801(2) 0.0987(5) 0.59025(15)
H18_7 H 0.5776 0.1026 0.5701
C30_7 C 0.5457(2) 0.0997(6) 0.63512(16)
H19_7 H 0.5190 0.1056 0.6466
C31_7 C 0.5875(2) 0.0833(6) 0.64865(15)
H20_7 H 0.5885 0.0761 0.6688
C32_7 C 0.72382(19) 0.0061(3) 0.71614(10)
C36_7 C 0.7665(2) 0.0040(4) 0.72945(11)
H24_7 H 0.7930 0.0239 0.7194
I3_7 I 0.56834(2) 0.73182(5) 0.87435(2)
I4_7 I 0.50469(2) 0.71479(5) 0.96276(2)
N2_7 N 0.59157(18) 0.1777(3) 0.95397(10)
N3_7 N 0.62391(17) 0.1847(3) 0.90655(10)
N4_7 N 0.62461(17) 0.0400(3) 0.93292(10)
N5_7 N 0.55216(17) 0.5104(3) 0.91940(11)
N7_4 N 0.87675(17) 0.1111(3) 0.59257(10)
N8_7 N 0.71206(15) 0.0773(3) 0.62912(9)
N9_7 N 0.67568(16) 0.0435(3) 0.67428(9)
N10_7 N 0.75861(15) 0.0457(3) 0.67044(8)
Zn4_4 Zn 0.93705(3) 0.14794(6) 0.56965(2)
C4_7 C 0.8964(3) 0.0634(5) 0.48296(15)
H3_7 H 0.8806 0.0934 0.4677
C5_7 C 0.9082(3) 0.1175(5) 0.50793(15)
H4_7 H 0.9027 0.1832 0.5083
C17_7 C 0.8232(3) 0.1021(4) 0.36158(15)
H11_7 H 0.8253 0.1686 0.3609
C18_7 C 0.8443(3) 0.0551(4) 0.38345(14)
H12_7 H 0.8596 0.0898 0.3979
C33_7 C 0.8157(2) 0.0263(5) 0.23205(13)
H21_7 H 0.8453 0.0276 0.2237
C34_7 C 0.8084(2) 0.0559(5) 0.26036(13)
H22_7 H 0.8341 0.0748 0.2714
C35_7 C 0.7297(2) 0.0277(4) 0.25782(12)
H23_7 H 0.7006 0.0273 0.2668
I2_7 I 0.92767(3) 0.32603(4) 0.55848(2)
I5_7 I 0.79902(2) 0.29538(3) 0.30468(2)
N1_7 N 0.9276(2) 0.0740(4) 0.53118(11)
N6_7 N 0.79877(19) 0.0557(3) 0.34036(10)
N12_7 N 0.76672(17) 0.0587(3) 0.27251(10)
Zn3_7 Zn 0.75887(3) 0.13357(5) 0.31157(2)
I6_7 I 0.67408(2) 0.13106(6) 0.32729(2)
Zn5_4 Zn 0.97792(3) 0.35684(5) 0.41295(2)
N14_4 N 0.95890(17) 0.8923(3) 0.10633(11)
C5_8 C 0.5918(3) 0.8825(5) 0.00793(15)
H4_8 H 0.5973 0.8168 0.0083
I1_6 I 0.49619(2) 0.93192(6) 0.09676(2)
I2_8 I 0.57233(3) 0.67397(4) 0.05848(2)
N1_8 N 0.5724(2) 0.9260(4) 0.03118(11)
Zn1_4 Zn 0.56295(3) 0.85206(6) 0.06965(2)
N13_4 N 0.62325(17) 0.8889(3) 0.09257(10)
C1_7 C 0.9387(3) 0.9813(5) 0.52899(14)
H1_7 H 0.9535 0.9520 0.5447
C2_7 C 0.9293(3) 0.9276(5) 0.50491(15)
H2_7 H 0.9375 0.8630 0.5046
C3_8 C 0.9073(2) 0.9689(4) 0.48058(12)
C6_8 C 0.8964(2) 0.9140(4) 0.45449(12)
C7_8 C 0.8982(2) 0.7753(4) 0.42935(12)
C8_8 C 0.8662(2) 0.9087(4) 0.40980(12)
C9_8 C 0.9136(2) 0.6736(4) 0.42586(13)
C10_8 C 0.9405(3) 0.6311(5) 0.44717(16)
H5_8 H 0.9484 0.6652 0.4639
C11_8 C 0.9554(3) 0.5399(5) 0.44379(15)
H6_8 H 0.9716 0.5108 0.4590
C12_8 C 0.9220(3) 0.5301(5) 0.39929(17)
H7_8 H 0.9155 0.4956 0.3825
C13_8 C 0.9037(3) 0.6234(5) 0.40198(16)
H8_8 H 0.8851 0.6495 0.3874
C14_8 C 0.8438(2) 0.9598(4) 0.38478(12)
C15_8 C 0.8213(3) 0.9084(4) 0.36218(14)
H9_8 H 0.8220 0.8417 0.3617
C16_8 C 0.7986(3) 0.9602(4) 0.34104(13)
H10_8 H 0.7825 0.9272 0.3266
C19_8 C 0.6656(2) 0.8792(5) 0.08090(13)
H13_8 H 0.6675 0.8598 0.0616
C20_8 C 0.7066(2) 0.8960(4) 0.09561(12)
H14_8 H 0.7353 0.8918 0.0862
C21_8 C 0.70398(18) 0.9194(3) 0.12494(10)
C22_8 C 0.66008(19) 0.9283(4) 0.13709(12)
H15_8 H 0.6572 0.9439 0.1567
C23_8 C 0.6211(2) 0.9148(4) 0.12090(12)
H16_8 H 0.5920 0.9235 0.1295
C24_8 C 0.74721(18) 0.9322(3) 0.14236(11)
C25_8 C 0.82522(19) 0.9340(3) 0.14586(11)
C26_8 C 0.78083(19) 0.9655(3) 0.18545(10)
C27_8 C 0.87169(19) 0.9226(4) 0.13246(12)
C28_8 C 0.8766(2) 0.9161(5) 0.10221(13)
H17_8 H 0.8505 0.9218 0.0902
C29_8 C 0.9199(2) 0.9013(5) 0.09025(15)
H18_8 H 0.9224 0.8974 0.0701
C30_8 C 0.9543(2) 0.9003(6) 0.13512(16)
H19_8 H 0.9810 0.8944 0.1466
C31_8 C 0.9125(2) 0.9167(6) 0.14865(15)
H20_8 H 0.9115 0.9239 0.1688
C32_8 C 0.77618(19) 0.9939(3) 0.21614(10)
C36_8 C 0.7335(2) 0.9960(4) 0.22945(11)
H24_8 H 0.7070 0.9761 0.2194
I3_8 I 0.93166(2) 0.26818(5) 0.37435(2)
I4_8 I 0.99531(2) 0.28521(5) 0.46276(2)
N2_8 N 0.90843(18) 0.8223(3) 0.45397(10)
N3_8 N 0.87609(17) 0.8153(3) 0.40655(10)
N4_8 N 0.87539(17) 0.9600(3) 0.43292(10)
N5_8 N 0.94784(17) 0.4896(3) 0.41940(11)
N8_8 N 0.78794(15) 0.9227(3) 0.12912(9)
N9_8 N 0.82432(16) 0.9565(3) 0.17428(9)
N10_8 N 0.74139(15) 0.9543(3) 0.17044(8)
I1_7 I 0.99619(2) 0.56808(6) 0.90324(2)
C1_8 C 0.5613(3) 0.0187(5) 0.02899(14)
H1_8 H 0.5465 0.0480 0.0447
C2_8 C 0.5707(3) 0.0724(5) 0.00491(15)
H2_8 H 0.5625 0.1370 0.0046
C4_8 C 0.6036(3) 0.9366(5) 0.98296(15)
H3_8 H 0.6194 0.9066 0.9677
C17_8 C 0.6768(3) 0.8979(4) 0.86158(15)
H11_8 H 0.6747 0.8314 0.8609
C18_8 C 0.6557(3) 0.9449(4) 0.88345(14)
H12_8 H 0.6404 0.9102 0.8979
C33_8 C 0.6843(2) 0.9737(5) 0.73205(13)
H21_8 H 0.6547 0.9724 0.7237
C34_8 C 0.6916(2) 0.9441(5) 0.76036(13)
H22_8 H 0.6659 0.9252 0.7714
C35_8 C 0.7703(2) 0.9723(4) 0.75782(12)
H23_8 H 0.7994 0.9727 0.7668
I5_8 I 0.70098(2) 0.70462(3) 0.80468(2)
N6_8 N 0.70123(19) 0.9443(3) 0.84036(10)
N12_8 N 0.73328(17) 0.9413(3) 0.77251(10)
Zn3_8 Zn 0.74113(3) 0.86643(5) 0.81157(2)
I6_8 I 0.82592(2) 0.86894(6) 0.82729(2)
I1_8 I 0.00381(2) 0.06808(6) 0.59676(2)
loop_
_geom_bond_atom_site_label_1
_geom_bond_atom_site_label_2
_geom_bond_site_symmetry_1
_geom_bond_site_symmetry_2
C1 H1 1_555 1_555
C2 C1 1_555 1_555
H2 C2 1_555 1_555
C3 C2 1_555 1_555
C4 C3 1_555 1_555
H3 C4 1_555 1_555
C5 C4 1_555 1_555
H4 C5 1_555 1_555
C6 C3 1_555 1_555
C7 C9 1_555 1_555
C8 C14 1_555 1_555
C9 C10 1_555 1_555
C10 H5 1_555 1_555
C11 C10 1_555 1_555
H6 C11 1_555 1_555
C13 C9 1_555 1_555
H8 C13 1_555 1_555
C14 C15 1_555 1_555
C15 H9 1_555 1_555
C16 C15 1_555 1_555
H10 C16 1_555 1_555
C17 H11 1_555 1_555
C18 C14 1_555 1_555
H12 C18 1_555 1_555
C19 H13 1_555 1_555
C20 C19 1_555 1_555
H14 C20 1_555 1_555
C21 C20 1_555 1_555
C22 C21 1_555 1_555
H15 C22 1_555 1_555
C23 C22 1_555 1_555
H16 C23 1_555 1_555
C24 C21 1_555 1_555
C25 C27 1_555 1_555
C26 C32 1_555 1_555
C27 C28 1_555 1_555
C28 H17 1_555 1_555
C29 C28 1_555 1_555
H18 C29 1_555 1_555
C30 H19 1_555 1_555
C31 C27 1_555 1_555
H20 C31 1_555 1_555
C32 C33 1_555 1_555
C33 H21 1_555 1_555
C34 C33 1_555 1_555
H22 C34 1_555 1_555
C35 H23 1_555 1_555
C36 C32 1_555 1_555
H24 C36 1_555 1_555
I1 Zn1 1_555 1_555
I2 Zn1 1_555 1_555
I5 Zn3 1_555 1_555
N1 C1 1_555 1_555
N2 C6 1_555 1_555
N3 C7 1_555 1_555
N4 C6 1_555 1_555
N6 C16 1_555 1_555
N7 C19 1_555 1_555
N8 C24 1_555 1_555
N9 C25 1_555 1_555
N10 C24 1_555 1_555
N11 C29 1_555 1_555
N12 C34 1_555 1_555
Zn1 N1 1_555 1_555
Zn3 N6 1_555 1_555
I6 Zn3 1_555 1_555
N13 Zn1 1_555 1_555
Zn4 N7 1_555 1_555
Zn5 N11 1_555 1_555
C5 N1 1_555 1_555
C7 N2 1_555 1_555
C8 N3 1_555 1_555
C8 N4 1_555 1_555
C12 C13 1_555 1_555
C17 C18 1_555 1_555
C17 N6 1_555 1_555
C23 N7 1_555 1_555
C25 N8 1_555 1_555
C26 N9 1_555 1_555
C26 N10 1_555 1_555
C30 C31 1_555 1_555
C30 N11 1_555 1_555
C35 C36 1_555 1_555
C35 N12 1_555 1_555
N12 Zn3 1_555 1_555
I3 Zn2 1_555 1_555
I4 Zn2 1_555 1_555
Zn2 N5 1_555 1_555
N14 Zn2 1_555 1_555
I3_2 Zn2_2 1_555 1_555
I4_2 Zn2_2 1_555 1_555
Zn2_2 N5_2 1_555 1_555
C1_2 H1_2 1_555 1_555
C2_2 C1_2 1_555 1_555
H2_2 C2_2 1_555 1_555
H4_2 C5_2 1_555 1_555
I2_2 Zn4 1_555 1_555
N1_2 C1_2 1_555 1_555
Zn4 N1_2 1_555 1_555
C5_2 N1_2 1_555 1_555
C4_2 C3_2 1_555 1_555
H3_2 C4_2 1_555 1_555
C6_2 C3_2 1_555 1_555
C7_2 C9_2 1_555 1_555
C8_2 C14_2 1_555 1_555
C9_2 C10_2 1_555 1_555
C10_2 H5_2 1_555 1_555
C11_2 C10_2 1_555 1_555
H6_2 C11_2 1_555 1_555
C13_2 C9_2 1_555 1_555
H8_2 C13_2 1_555 1_555
C14_2 C15_2 1_555 1_555
C15_2 H9_2 1_555 1_555
C16_2 C15_2 1_555 1_555
H10_2 C16_2 1_555 1_555
C17_2 H11_2 1_555 1_555
C18_2 C14_2 1_555 1_555
H12_2 C18_2 1_555 1_555
C19_2 H13_2 1_555 1_555
C20_2 C19_2 1_555 1_555
H14_2 C20_2 1_555 1_555
C21_2 C20_2 1_555 1_555
C22_2 C21_2 1_555 1_555
H15_2 C22_2 1_555 1_555
C23_2 C22_2 1_555 1_555
H16_2 C23_2 1_555 1_555
C24_2 C21_2 1_555 1_555
C25_2 C27_2 1_555 1_555
C26_2 C32_2 1_555 1_555
C27_2 C28_2 1_555 1_555
C28_2 H17_2 1_555 1_555
C29_2 C28_2 1_555 1_555
H18_2 C29_2 1_555 1_555
C30_2 H19_2 1_555 1_555
C31_2 C27_2 1_555 1_555
H20_2 C31_2 1_555 1_555
C32_2 C33_2 1_555 1_555
C33_2 H21_2 1_555 1_555
C34_2 C33_2 1_555 1_555
H22_2 C34_2 1_555 1_555
C35_2 H23_2 1_555 1_555
C36_2 C32_2 1_555 1_555
H24_2 C36_2 1_555 1_555
I5_2 Zn3_2 1_555 1_555
N2_2 C6_2 1_555 1_555
N3_2 C7_2 1_555 1_555
N4_2 C6_2 1_555 1_555
N6_2 C16_2 1_555 1_555
N13 C19_2 1_555 1_555
N8_2 C24_2 1_555 1_555
N9_2 C25_2 1_555 1_555
N10_2 C24_2 1_555 1_555
N11_2 C29_2 1_555 1_555
N12_2 C34_2 1_555 1_555
Zn3_2 N6_2 1_555 1_555
I6_2 Zn3_2 1_555 1_555
C7_2 N2_2 1_555 1_555
C8_2 N3_2 1_555 1_555
C8_2 N4_2 1_555 1_555
C12_2 C13_2 1_555 1_555
C17_2 C18_2 1_555 1_555
C17_2 N6_2 1_555 1_555
C23_2 N13 1_555 1_555
C25_2 N8_2 1_555 1_555
C26_2 N9_2 1_555 1_555
C26_2 N10_2 1_555 1_555
C30_2 C31_2 1_555 1_555
C30_2 N11_2 1_555 1_555
C35_2 C36_2 1_555 1_555
C35_2 N12_2 1_555 1_555
N12_2 Zn3_2 1_555 1_555
C6_3 C3_3 1_555 1_555
C7_3 C9_3 1_555 1_555
C8_3 C14_3 1_555 1_555
C9_3 C10_3 1_555 1_555
C10_3 H5_3 1_555 1_555
C11_3 C10_3 1_555 1_555
H6_3 C11_3 1_555 1_555
C12_3 H7_3 1_555 1_555
C13_3 C9_3 1_555 1_555
H8_3 C13_3 1_555 1_555
C14_3 C15_3 1_555 1_555
C15_3 H9_3 1_555 1_555
C16_3 C15_3 1_555 1_555
H10_3 C16_3 1_555 1_555
C19_3 H13_3 1_555 1_555
C20_3 C19_3 1_555 1_555
H14_3 C20_3 1_555 1_555
C21_3 C20_3 1_555 1_555
C22_3 C21_3 1_555 1_555
H15_3 C22_3 1_555 1_555
C23_3 C22_3 1_555 1_555
H16_3 C23_3 1_555 1_555
C24_3 C21_3 1_555 1_555
C25_3 C27_3 1_555 1_555
C26_3 C32_3 1_555 1_555
C27_3 C28_3 1_555 1_555
C28_3 H17_3 1_555 1_555
C29_3 C28_3 1_555 1_555
H18_3 C29_3 1_555 1_555
C30_3 H19_3 1_555 1_555
C31_3 C27_3 1_555 1_555
H20_3 C31_3 1_555 1_555
C36_3 C32_3 1_555 1_555
H24_3 C36_3 1_555 1_555
I3_3 Zn5 1_555 1_555
I4_3 Zn5 1_555 1_555
N2_3 C6_3 1_555 1_555
N3_3 C7_3 1_555 1_555
N4_3 C6_3 1_555 1_555
N5_3 C11_3 1_555 1_555
N7_2 C19_3 1_555 1_555
N8_3 C24_3 1_555 1_555
N9_3 C25_3 1_555 1_555
N10_3 C24_3 1_555 1_555
N14 C29_3 1_555 1_555
Zn5 N5_3 1_555 1_555
Zn4_2 N7_2 1_555 1_555
C7_3 N2_3 1_555 1_555
C8_3 N3_3 1_555 1_555
C8_3 N4_3 1_555 1_555
C12_3 C13_3 1_555 1_555
C12_3 N5_3 1_555 1_555
C23_3 N7_2 1_555 1_555
C25_3 N8_3 1_555 1_555
C26_3 N9_3 1_555 1_555
C26_3 N10_3 1_555 1_555
C30_3 C31_3 1_555 1_555
C30_3 N14 1_555 1_555
H3_3 C4_3 1_555 1_555
C5_3 C4_3 1_555 1_555
H4_3 C5_3 1_555 1_555
C17_3 H11_3 1_555 1_555
H12_3 C18_3 1_555 1_555
C33_3 H21_3 1_555 1_555
C34_3 C33_3 1_555 1_555
H22_3 C34_3 1_555 1_555
C35_3 H23_3 1_555 1_555
I2_3 Zn4_2 1_555 1_555
I5_3 Zn3_3 1_555 1_555
N12_3 C34_3 1_555 1_555
Zn4_2 N1_3 1_555 1_555
Zn3_3 N6_3 1_555 1_555
I6_3 Zn3_3 1_555 1_555
C5_3 N1_3 1_555 1_555
C17_3 C18_3 1_555 1_555
C17_3 N6_3 1_555 1_555
C35_3 N12_3 1_555 1_555
N12_3 Zn3_3 1_555 1_555
H4_4 C5_4 1_555 1_555
I1_2 Zn1_2 1_555 1_555
I2_4 Zn1_2 1_555 1_555
Zn1_2 N1_4 1_555 1_555
N13_2 Zn1_2 1_555 1_555
C5_4 N1_4 1_555 1_555
C1_3 H1_3 1_555 1_555
C2_3 C1_3 1_555 1_555
H2_3 C2_3 1_555 1_555
C3_4 C2_3 1_555 1_555
C6_4 C3_4 1_555 1_555
C7_4 C9_4 1_555 1_555
C8_4 C14_4 1_555 1_555
C9_4 C10_4 1_555 1_555
C10_4 H5_4 1_555 1_555
C11_4 C10_4 1_555 1_555
H6_4 C11_4 1_555 1_555
C12_4 H7_4 1_555 1_555
C13_4 C9_4 1_555 1_555
H8_4 C13_4 1_555 1_555
C14_4 C15_4 1_555 1_555
C15_4 H9_4 1_555 1_555
C16_4 C15_4 1_555 1_555
H10_4 C16_4 1_555 1_555
C19_4 H13_4 1_555 1_555
C20_4 C19_4 1_555 1_555
H14_4 C20_4 1_555 1_555
C21_4 C20_4 1_555 1_555
C22_4 C21_4 1_555 1_555
H15_4 C22_4 1_555 1_555
C23_4 C22_4 1_555 1_555
H16_4 C23_4 1_555 1_555
C24_4 C21_4 1_555 1_555
C25_4 C27_4 1_555 1_555
C26_4 C32_4 1_555 1_555
C27_4 C28_4 1_555 1_555
C28_4 H17_4 1_555 1_555
C29_4 C28_4 1_555 1_555
H18_4 C29_4 1_555 1_555
C30_4 H19_4 1_555 1_555
C31_4 C27_4 1_555 1_555
H20_4 C31_4 1_555 1_555
C36_4 C32_4 1_555 1_555
H24_4 C36_4 1_555 1_555
I3_4 Zn5_2 1_555 1_555
I4_4 Zn5_2 1_555 1_555
N2_4 C6_4 1_555 1_555
N3_4 C7_4 1_555 1_555
N4_4 C6_4 1_555 1_555
N5_4 C11_4 1_555 1_555
N13_2 C19_4 1_555 1_555
N8_4 C24_4 1_555 1_555
N9_4 C25_4 1_555 1_555
N10_4 C24_4 1_555 1_555
N14_2 C29_4 1_555 1_555
Zn5_2 N5_4 1_555 1_555
C7_4 N2_4 1_555 1_555
C8_4 N3_4 1_555 1_555
C8_4 N4_4 1_555 1_555
C12_4 C13_4 1_555 1_555
C12_4 N5_4 1_555 1_555
C23_4 N13_2 1_555 1_555
C25_4 N8_4 1_555 1_555
C26_4 N9_4 1_555 1_555
C26_4 N10_4 1_555 1_555
C30_4 C31_4 1_555 1_555
C30_4 N14_2 1_555 1_555
H3_4 C4_4 1_555 1_555
C17_4 H11_4 1_555 1_555
H12_4 C18_4 1_555 1_555
C33_4 H21_4 1_555 1_555
C34_4 C33_4 1_555 1_555
H22_4 C34_4 1_555 1_555
C35_4 H23_4 1_555 1_555
I5_4 Zn3_4 1_555 1_555
N12_4 C34_4 1_555 1_555
Zn3_4 N6_4 1_555 1_555
I6_4 Zn3_4 1_555 1_555
C17_4 C18_4 1_555 1_555
C17_4 N6_4 1_555 1_555
C35_4 N12_4 1_555 1_555
N12_4 Zn3_4 1_555 1_555
C1_4 H1_4 1_555 1_555
C2_4 C1_4 1_555 1_555
H2_4 C2_4 1_555 1_555
I3_5 Zn2_3 1_555 1_555
I4_5 Zn2_3 1_555 1_555
Zn2_3 N5_5 1_555 1_555
N14_3 Zn2_3 1_555 1_555
C1_5 H1_5 1_555 1_555
C2_5 C1_5 1_555 1_555
H2_5 C2_5 1_555 1_555
C3_5 C2_5 1_555 1_555
C4_5 C3_5 1_555 1_555
H3_5 C4_5 1_555 1_555
C5_5 C4_5 1_555 1_555
H4_5 C5_5 1_555 1_555
C6_5 C3_5 1_555 1_555
C7_5 C9_5 1_555 1_555
C8_5 C14_5 1_555 1_555
C9_5 C10_5 1_555 1_555
C10_5 H5_5 1_555 1_555
C11_5 C10_5 1_555 1_555
H6_5 C11_5 1_555 1_555
C13_5 C9_5 1_555 1_555
H8_5 C13_5 1_555 1_555
C14_5 C15_5 1_555 1_555
C15_5 H9_5 1_555 1_555
C16_5 C15_5 1_555 1_555
H10_5 C16_5 1_555 1_555
C17_5 H11_5 1_555 1_555
C18_5 C14_5 1_555 1_555
H12_5 C18_5 1_555 1_555
C19_5 H13_5 1_555 1_555
C20_5 C19_5 1_555 1_555
H14_5 C20_5 1_555 1_555
C21_5 C20_5 1_555 1_555
C22_5 C21_5 1_555 1_555
H15_5 C22_5 1_555 1_555
C23_5 C22_5 1_555 1_555
H16_5 C23_5 1_555 1_555
C24_5 C21_5 1_555 1_555
C25_5 C27_5 1_555 1_555
C26_5 C32_5 1_555 1_555
C27_5 C28_5 1_555 1_555
C28_5 H17_5 1_555 1_555
C29_5 C28_5 1_555 1_555
H18_5 C29_5 1_555 1_555
C30_5 H19_5 1_555 1_555
C31_5 C27_5 1_555 1_555
H20_5 C31_5 1_555 1_555
C32_5 C33_5 1_555 1_555
C33_5 H21_5 1_555 1_555
C34_5 C33_5 1_555 1_555
H22_5 C34_5 1_555 1_555
C35_5 H23_5 1_555 1_555
C36_5 C32_5 1_555 1_555
H24_5 C36_5 1_555 1_555
I1_5 Zn1_3 1_555 1_555
I2_5 Zn1_3 1_555 1_555
I5_5 Zn3_5 1_555 1_555
N1_5 C1_5 1_555 1_555
N2_5 C6_5 1_555 1_555
N3_5 C7_5 1_555 1_555
N4_5 C6_5 1_555 1_555
N6_5 C16_5 1_555 1_555
N7_3 C19_5 1_555 1_555
N8_5 C24_5 1_555 1_555
N9_5 C25_5 1_555 1_555
N10_5 C24_5 1_555 1_555
N11_3 C29_5 1_555 1_555
N12_5 C34_5 1_555 1_555
Zn1_3 N1_5 1_555 1_555
Zn3_5 N6_5 1_555 1_555
I6_5 Zn3_5 1_555 1_555
N13_3 Zn1_3 1_555 1_555
Zn4_3 N7_3 1_555 1_555
Zn5_3 N11_3 1_555 1_555
C5_5 N1_5 1_555 1_555
C7_5 N2_5 1_555 1_555
C8_5 N3_5 1_555 1_555
C8_5 N4_5 1_555 1_555
C12_5 C13_5 1_555 1_555
C17_5 C18_5 1_555 1_555
C17_5 N6_5 1_555 1_555
C23_5 N7_3 1_555 1_555
C25_5 N8_5 1_555 1_555
C26_5 N9_5 1_555 1_555
C26_5 N10_5 1_555 1_555
C30_5 C31_5 1_555 1_555
C30_5 N11_3 1_555 1_555
C35_5 C36_5 1_555 1_555
C35_5 N12_5 1_555 1_555
N12_5 Zn3_5 1_555 1_555
C4_6 C3_6 1_555 1_555
H3_6 C4_6 1_555 1_555
C6_6 C3_6 1_555 1_555
C7_6 C9_6 1_555 1_555
C8_6 C14_6 1_555 1_555
C9_6 C10_6 1_555 1_555
C10_6 H5_6 1_555 1_555
C11_6 C10_6 1_555 1_555
H6_6 C11_6 1_555 1_555
C13_6 C9_6 1_555 1_555
H8_6 C13_6 1_555 1_555
C14_6 C15_6 1_555 1_555
C15_6 H9_6 1_555 1_555
C16_6 C15_6 1_555 1_555
H10_6 C16_6 1_555 1_555
C17_6 H11_6 1_555 1_555
C18_6 C14_6 1_555 1_555
H12_6 C18_6 1_555 1_555
C19_6 H13_6 1_555 1_555
C20_6 C19_6 1_555 1_555
H14_6 C20_6 1_555 1_555
C21_6 C20_6 1_555 1_555
C22_6 C21_6 1_555 1_555
H15_6 C22_6 1_555 1_555
C23_6 C22_6 1_555 1_555
H16_6 C23_6 1_555 1_555
C24_6 C21_6 1_555 1_555
C25_6 C27_6 1_555 1_555
C26_6 C32_6 1_555 1_555
C27_6 C28_6 1_555 1_555
C28_6 H17_6 1_555 1_555
C29_6 C28_6 1_555 1_555
H18_6 C29_6 1_555 1_555
C30_6 H19_6 1_555 1_555
C31_6 C27_6 1_555 1_555
H20_6 C31_6 1_555 1_555
C32_6 C33_6 1_555 1_555
C33_6 H21_6 1_555 1_555
C34_6 C33_6 1_555 1_555
H22_6 C34_6 1_555 1_555
C35_6 H23_6 1_555 1_555
C36_6 C32_6 1_555 1_555
H24_6 C36_6 1_555 1_555
I5_6 Zn3_6 1_555 1_555
N2_6 C6_6 1_555 1_555
N3_6 C7_6 1_555 1_555
N4_6 C6_6 1_555 1_555
N6_6 C16_6 1_555 1_555
N13_3 C19_6 1_555 1_555
N8_6 C24_6 1_555 1_555
N9_6 C25_6 1_555 1_555
N10_6 C24_6 1_555 1_555
N11_4 C29_6 1_555 1_555
N12_6 C34_6 1_555 1_555
Zn3_6 N6_6 1_555 1_555
I6_6 Zn3_6 1_555 1_555
C7_6 N2_6 1_555 1_555
C8_6 N3_6 1_555 1_555
C8_6 N4_6 1_555 1_555
C12_6 C13_6 1_555 1_555
C17_6 C18_6 1_555 1_555
C17_6 N6_6 1_555 1_555
C23_6 N13_3 1_555 1_555
C25_6 N8_6 1_555 1_555
C26_6 N9_6 1_555 1_555
C26_6 N10_6 1_555 1_555
C30_6 C31_6 1_555 1_555
C30_6 N11_4 1_555 1_555
C35_6 C36_6 1_555 1_555
C35_6 N12_6 1_555 1_555
N12_6 Zn3_6 1_555 1_555
C1_6 H1_6 1_555 1_555
C2_6 C1_6 1_555 1_555
H2_6 C2_6 1_555 1_555
H4_6 C5_6 1_555 1_555
I2_6 Zn4_3 1_555 1_555
N1_6 C1_6 1_555 1_555
Zn4_3 N1_6 1_555 1_555
C5_6 N1_6 1_555 1_555
I3_6 Zn2_4 1_555 1_555
I4_6 Zn2_4 1_555 1_555
Zn2_4 N5_6 1_555 1_555
C6_7 C3_7 1_555 1_555
C7_7 C9_7 1_555 1_555
C8_7 C14_7 1_555 1_555
C9_7 C10_7 1_555 1_555
C10_7 H5_7 1_555 1_555
C11_7 C10_7 1_555 1_555
H6_7 C11_7 1_555 1_555
C12_7 H7_7 1_555 1_555
C13_7 C9_7 1_555 1_555
H8_7 C13_7 1_555 1_555
C14_7 C15_7 1_555 1_555
C15_7 H9_7 1_555 1_555
C16_7 C15_7 1_555 1_555
H10_7 C16_7 1_555 1_555
C19_7 H13_7 1_555 1_555
C20_7 C19_7 1_555 1_555
H14_7 C20_7 1_555 1_555
C21_7 C20_7 1_555 1_555
C22_7 C21_7 1_555 1_555
H15_7 C22_7 1_555 1_555
C23_7 C22_7 1_555 1_555
H16_7 C23_7 1_555 1_555
C24_7 C21_7 1_555 1_555
C25_7 C27_7 1_555 1_555
C26_7 C32_7 1_555 1_555
C27_7 C28_7 1_555 1_555
C28_7 H17_7 1_555 1_555
C29_7 C28_7 1_555 1_555
H18_7 C29_7 1_555 1_555
C30_7 H19_7 1_555 1_555
C31_7 C27_7 1_555 1_555
H20_7 C31_7 1_555 1_555
C36_7 C32_7 1_555 1_555
H24_7 C36_7 1_555 1_555
I3_7 Zn5_3 1_555 1_555
I4_7 Zn5_3 1_555 1_555
N2_7 C6_7 1_555 1_555
N3_7 C7_7 1_555 1_555
N4_7 C6_7 1_555 1_555
N5_7 C11_7 1_555 1_555
N7_4 C19_7 1_555 1_555
N8_7 C24_7 1_555 1_555
N9_7 C25_7 1_555 1_555
N10_7 C24_7 1_555 1_555
N14_3 C29_7 1_555 1_555
Zn5_3 N5_7 1_555 1_555
Zn4_4 N7_4 1_555 1_555
C7_7 N2_7 1_555 1_555
C8_7 N3_7 1_555 1_555
C8_7 N4_7 1_555 1_555
C12_7 C13_7 1_555 1_555
C12_7 N5_7 1_555 1_555
C23_7 N7_4 1_555 1_555
C25_7 N8_7 1_555 1_555
C26_7 N9_7 1_555 1_555
C26_7 N10_7 1_555 1_555
C30_7 C31_7 1_555 1_555
C30_7 N14_3 1_555 1_555
H3_7 C4_7 1_555 1_555
C5_7 C4_7 1_555 1_555
H4_7 C5_7 1_555 1_555
C17_7 H11_7 1_555 1_555
H12_7 C18_7 1_555 1_555
C33_7 H21_7 1_555 1_555
C34_7 C33_7 1_555 1_555
H22_7 C34_7 1_555 1_555
C35_7 H23_7 1_555 1_555
I2_7 Zn4_4 1_555 1_555
I5_7 Zn3_7 1_555 1_555
N12_7 C34_7 1_555 1_555
Zn4_4 N1_7 1_555 1_555
Zn3_7 N6_7 1_555 1_555
I6_7 Zn3_7 1_555 1_555
C5_7 N1_7 1_555 1_555
C17_7 C18_7 1_555 1_555
C17_7 N6_7 1_555 1_555
C35_7 N12_7 1_555 1_555
N12_7 Zn3_7 1_555 1_555
H4_8 C5_8 1_555 1_555
I1_6 Zn1_4 1_555 1_555
I2_8 Zn1_4 1_555 1_555
Zn1_4 N1_8 1_555 1_555
N13_4 Zn1_4 1_555 1_555
C5_8 N1_8 1_555 1_555
C1_7 H1_7 1_555 1_555
C2_7 C1_7 1_555 1_555
H2_7 C2_7 1_555 1_555
C3_8 C2_7 1_555 1_555
C6_8 C3_8 1_555 1_555
C7_8 C9_8 1_555 1_555
C8_8 C14_8 1_555 1_555
C9_8 C10_8 1_555 1_555
C10_8 H5_8 1_555 1_555
C11_8 C10_8 1_555 1_555
H6_8 C11_8 1_555 1_555
C12_8 H7_8 1_555 1_555
C13_8 C9_8 1_555 1_555
H8_8 C13_8 1_555 1_555
C14_8 C15_8 1_555 1_555
C15_8 H9_8 1_555 1_555
C16_8 C15_8 1_555 1_555
H10_8 C16_8 1_555 1_555
C19_8 H13_8 1_555 1_555
C20_8 C19_8 1_555 1_555
H14_8 C20_8 1_555 1_555
C21_8 C20_8 1_555 1_555
C22_8 C21_8 1_555 1_555
H15_8 C22_8 1_555 1_555
C23_8 C22_8 1_555 1_555
H16_8 C23_8 1_555 1_555
C24_8 C21_8 1_555 1_555
C25_8 C27_8 1_555 1_555
C26_8 C32_8 1_555 1_555
C27_8 C28_8 1_555 1_555
C28_8 H17_8 1_555 1_555
C29_8 C28_8 1_555 1_555
H18_8 C29_8 1_555 1_555
C30_8 H19_8 1_555 1_555
C31_8 C27_8 1_555 1_555
H20_8 C31_8 1_555 1_555
C36_8 C32_8 1_555 1_555
H24_8 C36_8 1_555 1_555
I3_8 Zn5_4 1_555 1_555
I4_8 Zn5_4 1_555 1_555
N2_8 C6_8 1_555 1_555
N3_8 C7_8 1_555 1_555
N4_8 C6_8 1_555 1_555
N5_8 C11_8 1_555 1_555
N13_4 C19_8 1_555 1_555
N8_8 C24_8 1_555 1_555
N9_8 C25_8 1_555 1_555
N10_8 C24_8 1_555 1_555
N14_4 C29_8 1_555 1_555
Zn5_4 N5_8 1_555 1_555
C7_8 N2_8 1_555 1_555
C8_8 N3_8 1_555 1_555
C8_8 N4_8 1_555 1_555
C12_8 C13_8 1_555 1_555
C12_8 N5_8 1_555 1_555
C23_8 N13_4 1_555 1_555
C25_8 N8_8 1_555 1_555
C26_8 N9_8 1_555 1_555
C26_8 N10_8 1_555 1_555
C30_8 C31_8 1_555 1_555
C30_8 N14_4 1_555 1_555
C1_8 H1_8 1_555 1_555
C2_8 C1_8 1_555 1_555
H2_8 C2_8 1_555 1_555
H3_8 C4_8 1_555 1_555
C17_8 H11_8 1_555 1_555
H12_8 C18_8 1_555 1_555
C33_8 H21_8 1_555 1_555
C34_8 C33_8 1_555 1_555
H22_8 C34_8 1_555 1_555
C35_8 H23_8 1_555 1_555
I5_8 Zn3_8 1_555 1_555
N12_8 C34_8 1_555 1_555
Zn3_8 N6_8 1_555 1_555
I6_8 Zn3_8 1_555 1_555
C17_8 C18_8 1_555 1_555
C17_8 N6_8 1_555 1_555
C35_8 N12_8 1_555 1_555
N12_8 Zn3_8 1_555 1_555

#END
