
###############################################################################
#
# This file contains modified crystal structure data generated from the
# MOF subset of the Cambridge Structural Database (CSD) v543 
# hosted by the Cambridge Crystallographic Data Centre (CCDC).
#
# This work is licensed under the Creative Commons
# Attribution-NonCommercial-ShareAlike 4.0 International License.
# To view a copy of this license, visit
# http://creativecommons.org/licenses/by-nc-sa/4.0/
# or send a letter to
# Creative Commons, PO Box 1866, Mountain View, CA 94042, USA.
#
# CIF created using the CSD Python API on 29 September 2022
# The structure has been converted into the P1 space group
# The structure has a 3D framework
# The original CSD entry KEWDUO is in the orthorhombic crystal system
# The framework has been calculated to contain at least 10.0% void space
# The void calculation uses a probe of radius 1.32A, grid spacing 0.4
#
###############################################################################

data_KEWDUO
_chemical_formula_moiety         '(C288 H192 I48 N96 Zn24)n'
_symmetry_cell_setting           triclinic
_symmetry_space_group_name_H-M   'P 1'
_symmetry_Int_Tables_number      1
_space_group_name_Hall           'P 1'
loop_
_symmetry_equiv_pos_site_id
_symmetry_equiv_pos_as_xyz
1 x,y,z
_cell_length_a                   28.764(4)
_cell_length_b                   14.0285(18)
_cell_length_c                   45.892(6)
_cell_angle_alpha                90
_cell_angle_beta                 90
_cell_angle_gamma                90
_cell_volume                     18518.1
loop_
_atom_site_label
_atom_site_type_symbol
_atom_site_fract_x
_atom_site_fract_y
_atom_site_fract_z
C1 C 0.5591(8) 0.4802(14) 0.5278(4)
H1 H 0.5400 0.4541 0.5422
C2 C 0.5710(8) 0.4200(15) 0.5043(4)
H2 H 0.5666 0.3543 0.5046
C3 C 0.5908(7) 0.4694(13) 0.4797(3)
C4 C 0.5975(8) 0.5638(14) 0.4827(4)
H3 H 0.6074 0.5970 0.4663
C5 C 0.5914(9) 0.6134(15) 0.5066(4)
H4 H 0.5997 0.6774 0.5070
C6 C 0.5992(6) 0.4122(12) 0.4535(3)
C7 C 0.6002(6) 0.2763(12) 0.4289(4)
C8 C 0.6310(6) 0.4070(12) 0.4077(3)
C9 C 0.5856(6) 0.1766(12) 0.4243(4)
C10 C 0.5567(7) 0.1321(14) 0.4474(4)
H5 H 0.5493 0.1656 0.4642
C11 C 0.5421(7) 0.0467(13) 0.4436(4)
H6 H 0.5237 0.0194 0.4580
C12 C 0.5756(10) 0.0332(16) 0.3982(5)
C13 C 0.5891(10) 0.1259(15) 0.3993(5)
H8 H 0.6009 0.1549 0.3827
C14 C 0.6533(6) 0.4572(11) 0.3840(3)
C15 C 0.6770(8) 0.4094(14) 0.3619(4)
H9 H 0.6791 0.3432 0.3616
C16 C 0.6971(8) 0.4641(13) 0.3405(4)
H10 H 0.7127 0.4327 0.3255
C17 C 0.6753(7) 0.6010(12) 0.3601(3)
H11 H 0.6765 0.6673 0.3597
C18 C 0.6515(7) 0.5567(12) 0.3825(4)
H12 H 0.6349 0.5918 0.3962
C19 C 0.8347(7) 0.3876(14) 0.0802(4)
H13 H 0.8337 0.3723 0.0605
C20 C 0.7926(6) 0.4009(11) 0.0939(3)
H14 H 0.7644 0.3971 0.0841
C21 C 0.7956(6) 0.4209(10) 0.1244(3)
C22 C 0.8381(6) 0.4316(11) 0.1376(3)
H15 H 0.8406 0.4486 0.1571
C23 C 0.8780(7) 0.4157(15) 0.1201(4)
H16 H 0.9071 0.4205 0.1289
C24 C 0.7515(6) 0.4345(9) 0.1412(3)
C25 C 0.6747(6) 0.4369(10) 0.1443(3)
C26 C 0.7195(6) 0.4668(9) 0.1845(3)
C27 C 0.6277(6) 0.4241(12) 0.1325(3)
C28 C 0.6248(7) 0.4162(15) 0.1012(4)
H17 H 0.6503 0.4200 0.0888
C29 C 0.5807(7) 0.4027(16) 0.0920(4)
H18 H 0.5773 0.3999 0.0719
C30 C 0.5449(7) 0.4057(15) 0.1346(4)
H19 H 0.5176 0.4053 0.1455
C31 C 0.5884(7) 0.4200(15) 0.1487(4)
H20 H 0.5898 0.4264 0.1688
C32 C 0.7227(6) 0.4963(9) 0.2159(3)
C33 C 0.6833(6) 0.5254(14) 0.2312(3)
H21 H 0.6542 0.5273 0.2223
C34 C 0.6892(7) 0.5515(19) 0.2602(4)
H22 H 0.6630 0.5646 0.2714
C35 C 0.7689(6) 0.5275(11) 0.2570(3)
H23 H 0.7979 0.5249 0.2660
C36 C 0.7646(6) 0.5005(11) 0.2288(3)
H24 H 0.7910 0.4845 0.2183
I1 I 0.57011(9) 0.81922(13) 0.55898(5)
I4 I 0.70308(7) 0.79569(10) 0.30492(3)
N1 N 0.5723(5) 0.5713(11) 0.5317(3)
N2 N 0.5883(5) 0.3216(10) 0.4523(3)
N3 N 0.6224(5) 0.3159(9) 0.4043(3)
N4 N 0.6214(5) 0.4610(9) 0.4318(3)
N6 N 0.6957(5) 0.5535(10) 0.3396(3)
N7 N 0.8761(5) 0.3944(10) 0.0920(3)
N8 N 0.7129(5) 0.4223(9) 0.1285(2)
N9 N 0.6756(5) 0.4580(9) 0.1739(2)
N10 N 0.7575(4) 0.4565(8) 0.1702(2)
N11 N 0.5434(5) 0.3931(9) 0.1062(3)
N12 N 0.7314(5) 0.5584(9) 0.2725(3)
Zn1 Zn 0.56323(8) 0.64005(18) 0.56955(5)
Zn3 Zn 0.73977(9) 0.63108(15) 0.31118(4)
I5 I 0.49788(5) 0.55951(16) 0.59703(4)
I6 I 0.82348(7) 0.62428(17) 0.32796(4)
N13 N 0.6239(5) 0.6056(10) 0.5920(3)
Zn4 Zn 0.93677(8) 0.35995(18) 0.06955(5)
Zn5 Zn 0.47948(9) 0.35744(15) 0.08690(6)
H7 H 0.5832 0.9974 0.3818
I2 I 0.56655(7) 0.76759(15) 0.37474(6)
I3 I 0.50417(7) 0.78825(14) 0.46339(4)
N5 N 0.5527(5) 0.9929(10) 0.4191(3)
Zn2 Zn 0.52052(9) 0.85744(15) 0.41310(6)
N14 N 0.4566(5) 0.8931(9) 0.3938(3)
H7_2 H 0.9168 0.0026 0.8818
I2_2 I 0.93345(7) 0.23241(15) 0.87474(6)
I3_2 I 0.99583(7) 0.21175(14) 0.96339(4)
N5_2 N 0.9473(5) 0.0071(10) 0.9191(3)
Zn2_2 Zn 0.97948(9) 0.14256(15) 0.91310(6)
C1_2 C 0.9409(8) 0.5198(14) 0.0278(4)
H1_2 H 0.9600 0.5459 0.0422
C2_2 C 0.9290(8) 0.5800(15) 0.0043(4)
H2_2 H 0.9334 0.6457 0.0046
C5_2 C 0.9086(9) 0.3866(15) 0.0066(4)
H4_2 H 0.9003 0.3226 0.0070
I1_2 I 0.92989(9) 0.18078(13) 0.05898(5)
N1_2 N 0.9277(5) 0.4287(11) 0.0317(3)
C3_2 C 0.9092(7) 0.5306(13) 0.9797(3)
C4_2 C 0.9025(8) 0.4362(14) 0.9827(4)
H3_2 H 0.8926 0.4030 0.9663
C6_2 C 0.9008(6) 0.5878(12) 0.9535(3)
C7_2 C 0.8998(6) 0.7237(12) 0.9289(4)
C8_2 C 0.8690(6) 0.5930(12) 0.9077(3)
C9_2 C 0.9144(6) 0.8234(12) 0.9243(4)
C10_2 C 0.9433(7) 0.8679(14) 0.9474(4)
H5_2 H 0.9507 0.8344 0.9642
C11_2 C 0.9579(7) 0.9533(13) 0.9436(4)
H6_2 H 0.9763 0.9806 0.9580
C12_2 C 0.9244(10) 0.9668(16) 0.8982(5)
C13_2 C 0.9109(10) 0.8741(15) 0.8993(5)
H8_2 H 0.8991 0.8451 0.8827
C14_2 C 0.8467(6) 0.5428(11) 0.8840(3)
C15_2 C 0.8230(8) 0.5906(14) 0.8619(4)
H9_2 H 0.8209 0.6568 0.8616
C16_2 C 0.8029(8) 0.5359(13) 0.8405(4)
H10_2 H 0.7873 0.5673 0.8255
C17_2 C 0.8247(7) 0.3990(12) 0.8601(3)
H11_2 H 0.8235 0.3327 0.8597
C18_2 C 0.8485(7) 0.4433(12) 0.8825(4)
H12_2 H 0.8651 0.4082 0.8962
C19_2 C 0.6653(7) 0.6124(14) 0.5802(4)
H13_2 H 0.6663 0.6277 0.5605
C20_2 C 0.7074(6) 0.5991(11) 0.5939(3)
H14_2 H 0.7356 0.6029 0.5841
C21_2 C 0.7044(6) 0.5791(10) 0.6244(3)
C22_2 C 0.6619(6) 0.5684(11) 0.6376(3)
H15_2 H 0.6594 0.5514 0.6571
C23_2 C 0.6220(7) 0.5843(15) 0.6201(4)
H16_2 H 0.5929 0.5795 0.6289
C24_2 C 0.7485(6) 0.5655(9) 0.6412(3)
C25_2 C 0.8253(6) 0.5631(10) 0.6443(3)
C26_2 C 0.7805(6) 0.5332(9) 0.6845(3)
C27_2 C 0.8723(6) 0.5759(12) 0.6325(3)
C28_2 C 0.8752(7) 0.5838(15) 0.6012(4)
H17_2 H 0.8497 0.5800 0.5888
C29_2 C 0.9193(7) 0.5973(16) 0.5920(4)
H18_2 H 0.9227 0.6001 0.5719
C30_2 C 0.9551(7) 0.5943(15) 0.6346(4)
H19_2 H 0.9824 0.5947 0.6455
C31_2 C 0.9116(7) 0.5800(15) 0.6487(4)
H20_2 H 0.9102 0.5736 0.6688
C32_2 C 0.7773(6) 0.5037(9) 0.7159(3)
C33_2 C 0.8167(6) 0.4746(14) 0.7312(3)
H21_2 H 0.8458 0.4727 0.7223
C34_2 C 0.8108(7) 0.4485(19) 0.7602(4)
H22_2 H 0.8370 0.4354 0.7714
C35_2 C 0.7311(6) 0.4725(11) 0.7570(3)
H23_2 H 0.7021 0.4751 0.7660
C36_2 C 0.7354(6) 0.4995(11) 0.7288(3)
H24_2 H 0.7090 0.5155 0.7183
I4_2 I 0.79692(7) 0.20431(10) 0.80492(3)
N2_2 N 0.9117(5) 0.6784(10) 0.9523(3)
N3_2 N 0.8776(5) 0.6841(9) 0.9043(3)
N4_2 N 0.8786(5) 0.5390(9) 0.9318(3)
N6_2 N 0.8043(5) 0.4465(10) 0.8396(3)
N8_2 N 0.7871(5) 0.5777(9) 0.6285(2)
N9_2 N 0.8244(5) 0.5420(9) 0.6739(2)
N10_2 N 0.7425(4) 0.5435(8) 0.6702(2)
N11_2 N 0.9566(5) 0.6069(9) 0.6062(3)
N12_2 N 0.7686(5) 0.4416(9) 0.7725(3)
Zn3_2 Zn 0.76023(9) 0.36892(15) 0.81118(4)
I6_2 I 0.67652(7) 0.37572(17) 0.82796(4)
C3_3 C 0.4092(7) 0.9694(13) 0.0203(3)
C6_3 C 0.4008(6) 0.9122(12) 0.0465(3)
C7_3 C 0.3998(6) 0.7763(12) 0.0711(4)
C8_3 C 0.3690(6) 0.9070(12) 0.0923(3)
C9_3 C 0.4144(6) 0.6766(12) 0.0757(4)
C10_3 C 0.4433(7) 0.6321(14) 0.0526(4)
H5_3 H 0.4507 0.6656 0.0358
C11_3 C 0.4579(7) 0.5467(13) 0.0564(4)
H6_3 H 0.4763 0.5194 0.0420
C12_3 C 0.4244(10) 0.5332(16) 0.1018(5)
H7_3 H 0.4168 0.4974 0.1182
C13_3 C 0.4109(10) 0.6259(15) 0.1007(5)
H8_3 H 0.3991 0.6549 0.1173
C14_3 C 0.3467(6) 0.9572(11) 0.1160(3)
C15_3 C 0.3230(8) 0.9094(14) 0.1381(4)
H9_3 H 0.3209 0.8432 0.1384
C16_3 C 0.3029(8) 0.9641(13) 0.1595(4)
H10_3 H 0.2873 0.9327 0.1745
C19_3 C 0.1653(7) 0.8876(14) 0.4198(4)
H13_3 H 0.1663 0.8723 0.4395
C20_3 C 0.2074(6) 0.9009(11) 0.4061(3)
H14_3 H 0.2356 0.8971 0.4159
C21_3 C 0.2044(6) 0.9209(10) 0.3756(3)
C22_3 C 0.1619(6) 0.9316(11) 0.3624(3)
H15_3 H 0.1594 0.9486 0.3429
C23_3 C 0.1220(7) 0.9157(15) 0.3799(4)
H16_3 H 0.0929 0.9205 0.3711
C24_3 C 0.2485(6) 0.9345(9) 0.3588(3)
C25_3 C 0.3253(6) 0.9369(10) 0.3557(3)
C26_3 C 0.2805(6) 0.9668(9) 0.3155(3)
C27_3 C 0.3723(6) 0.9241(12) 0.3675(3)
C28_3 C 0.3752(7) 0.9162(15) 0.3988(4)
H17_3 H 0.3497 0.9200 0.4112
C29_3 C 0.4193(7) 0.9027(16) 0.4080(4)
H18_3 H 0.4227 0.8999 0.4281
C30_3 C 0.4551(7) 0.9057(15) 0.3654(4)
H19_3 H 0.4824 0.9053 0.3545
C31_3 C 0.4116(7) 0.9200(15) 0.3513(4)
H20_3 H 0.4102 0.9264 0.3312
C32_3 C 0.2773(6) 0.9963(9) 0.2841(3)
H24_3 H 0.2090 0.9845 0.2817
I2_3 I 0.43345(7) 0.26759(15) 0.12526(6)
I3_3 I 0.49583(7) 0.28825(14) 0.03661(4)
N2_3 N 0.4117(5) 0.8216(10) 0.0477(3)
N3_3 N 0.3776(5) 0.8159(9) 0.0957(3)
N4_3 N 0.3786(5) 0.9610(9) 0.0682(3)
N5_3 N 0.4473(5) 0.4929(10) 0.0809(3)
N7_2 N 0.1239(5) 0.8944(10) 0.4080(3)
N8_3 N 0.2871(5) 0.9223(9) 0.3715(2)
N9_3 N 0.3244(5) 0.9580(9) 0.3261(2)
N10_3 N 0.2425(4) 0.9565(8) 0.3298(2)
Zn4_2 Zn 0.06323(8) 0.85995(18) 0.43045(5)
C4_3 C 0.0975(8) 0.9362(14) 0.5173(4)
H3_3 H 0.1074 0.9030 0.5337
C5_3 C 0.0914(9) 0.8866(15) 0.4934(4)
H4_3 H 0.0997 0.8226 0.4930
C17_3 C 0.1753(7) 0.8990(12) 0.6399(3)
H11_3 H 0.1765 0.8327 0.6403
C18_3 C 0.1515(7) 0.9433(12) 0.6175(4)
H12_3 H 0.1349 0.9082 0.6038
C33_3 C 0.1833(6) 0.9746(14) 0.7688(3)
H21_3 H 0.1542 0.9727 0.7777
C34_3 C 0.1892(7) 0.9485(19) 0.7398(4)
H22_3 H 0.1630 0.9354 0.7286
C35_3 C 0.2689(6) 0.9725(11) 0.7430(3)
H23_3 H 0.2979 0.9751 0.7340
C36_3 C 0.2646(6) 0.9995(11) 0.7712(3)
I1_3 I 0.07011(9) 0.68078(13) 0.44102(5)
I4_3 I 0.20308(7) 0.70431(10) 0.69508(3)
N1_3 N 0.0723(5) 0.9287(11) 0.4683(3)
N6_3 N 0.1957(5) 0.9465(10) 0.6604(3)
N12_3 N 0.2314(5) 0.9416(9) 0.7275(3)
Zn3_3 Zn 0.23977(9) 0.86892(15) 0.68882(4)
I6_3 I 0.32348(7) 0.87572(17) 0.67204(4)
N14_2 N 0.0434(5) 0.1069(9) 0.8938(3)
Zn5_2 Zn 0.02052(9) 0.64256(15) 0.58690(6)
C5_4 C 0.4086(9) 0.1134(15) 0.9934(4)
H4_4 H 0.4003 0.1774 0.9930
I1_4 I 0.42989(9) 0.31922(13) 0.94102(5)
N1_4 N 0.4277(5) 0.0713(11) 0.9683(3)
Zn1_2 Zn 0.43677(8) 0.14005(18) 0.93045(5)
I5_2 I 0.50212(5) 0.05951(16) 0.90297(4)
N13_2 N 0.3761(5) 0.1056(10) 0.9080(3)
C1_3 C 0.0591(8) 0.0198(14) 0.4722(4)
H1_3 H 0.0400 0.0459 0.4578
C2_3 C 0.0710(8) 0.0800(15) 0.4957(4)
H2_3 H 0.0666 0.1457 0.4954
C3_4 C 0.0908(7) 0.0306(13) 0.5203(3)
C6_4 C 0.0992(6) 0.0878(12) 0.5465(3)
C7_4 C 0.1002(6) 0.2237(12) 0.5711(4)
C8_4 C 0.1310(6) 0.0930(12) 0.5923(3)
C9_4 C 0.0856(6) 0.3234(12) 0.5757(4)
C10_4 C 0.0567(7) 0.3679(14) 0.5526(4)
H5_4 H 0.0493 0.3344 0.5358
C11_4 C 0.0421(7) 0.4533(13) 0.5564(4)
H6_4 H 0.0237 0.4806 0.5420
C12_4 C 0.0756(10) 0.4668(16) 0.6018(5)
H7_4 H 0.0832 0.5026 0.6182
C13_4 C 0.0891(10) 0.3741(15) 0.6007(5)
H8_4 H 0.1009 0.3451 0.6173
C14_4 C 0.1533(6) 0.0428(11) 0.6160(3)
C15_4 C 0.1770(8) 0.0906(14) 0.6381(4)
H9_4 H 0.1791 0.1568 0.6384
C16_4 C 0.1971(8) 0.0359(13) 0.6595(4)
H10_4 H 0.2127 0.0673 0.6745
C19_4 C 0.3347(7) 0.1124(14) 0.9198(4)
H13_4 H 0.3337 0.1277 0.9395
C20_4 C 0.2926(6) 0.0991(11) 0.9061(3)
H14_4 H 0.2644 0.1029 0.9159
C21_4 C 0.2956(6) 0.0791(10) 0.8756(3)
C22_4 C 0.3381(6) 0.0684(11) 0.8624(3)
H15_4 H 0.3406 0.0514 0.8429
C23_4 C 0.3780(7) 0.0843(15) 0.8799(4)
H16_4 H 0.4071 0.0795 0.8711
C24_4 C 0.2515(6) 0.0655(9) 0.8588(3)
C25_4 C 0.1747(6) 0.0631(10) 0.8557(3)
C26_4 C 0.2195(6) 0.0332(9) 0.8155(3)
C27_4 C 0.1277(6) 0.0759(12) 0.8675(3)
C28_4 C 0.1248(7) 0.0838(15) 0.8988(4)
H17_4 H 0.1503 0.0800 0.9112
C29_4 C 0.0807(7) 0.0973(16) 0.9080(4)
H18_4 H 0.0773 0.1001 0.9281
C30_4 C 0.0449(7) 0.0943(15) 0.8654(4)
H19_4 H 0.0176 0.0947 0.8545
C31_4 C 0.0884(7) 0.0800(15) 0.8513(4)
H20_4 H 0.0898 0.0736 0.8312
C32_4 C 0.2227(6) 0.0037(9) 0.7841(3)
H24_4 H 0.2910 0.0155 0.7817
I2_4 I 0.06655(7) 0.73241(15) 0.62526(6)
I3_4 I 0.00417(7) 0.71175(14) 0.53661(4)
N2_4 N 0.0883(5) 0.1784(10) 0.5477(3)
N3_4 N 0.1224(5) 0.1841(9) 0.5957(3)
N4_4 N 0.1214(5) 0.0390(9) 0.5682(3)
N5_4 N 0.0527(5) 0.5071(10) 0.5809(3)
N8_4 N 0.2129(5) 0.0777(9) 0.8715(2)
N9_4 N 0.1756(5) 0.0420(9) 0.8261(2)
N10_4 N 0.2575(4) 0.0435(8) 0.8298(2)
I5_3 I 0.00212(5) 0.44049(16) 0.09703(4)
C4_4 C 0.4025(8) 0.0638(14) 0.0173(4)
H3_4 H 0.3926 0.0970 0.0337
C17_4 C 0.3247(7) 0.1010(12) 0.1399(3)
H11_4 H 0.3235 0.1673 0.1403
C18_4 C 0.3485(7) 0.0567(12) 0.1175(4)
H12_4 H 0.3651 0.0918 0.1038
C33_4 C 0.3167(6) 0.0254(14) 0.2688(3)
H21_4 H 0.3458 0.0273 0.2777
C34_4 C 0.3108(7) 0.0515(19) 0.2398(4)
H22_4 H 0.3370 0.0646 0.2286
C35_4 C 0.2311(6) 0.0275(11) 0.2430(3)
H23_4 H 0.2021 0.0249 0.2340
C36_4 C 0.2354(6) 0.0005(11) 0.2712(3)
I4_4 I 0.29692(7) 0.29569(10) 0.19508(3)
N6_4 N 0.3043(5) 0.0535(10) 0.1604(3)
N12_4 N 0.2686(5) 0.0584(9) 0.2275(3)
Zn3_4 Zn 0.26023(9) 0.13108(15) 0.18882(4)
I6_4 I 0.17652(7) 0.12428(17) 0.17204(4)
C1_4 C 0.4409(8) 0.9802(14) 0.9722(4)
H1_4 H 0.4600 0.9541 0.9578
C2_4 C 0.4290(8) 0.9200(15) 0.9957(4)
H2_4 H 0.4334 0.8543 0.9954
I5_4 I 0.99788(5) 0.94049(16) 0.40297(4)
H7_5 H 0.4168 0.0026 0.6182
I2_5 I 0.43345(7) 0.23241(15) 0.62526(6)
I3_5 I 0.49583(7) 0.21175(14) 0.53661(4)
N5_5 N 0.4473(5) 0.0071(10) 0.5809(3)
Zn2_3 Zn 0.47948(9) 0.14256(15) 0.58690(6)
N14_3 N 0.5434(5) 0.1069(9) 0.6062(3)
C1_5 C 0.4409(8) 0.5198(14) 0.4722(4)
H1_5 H 0.4600 0.5459 0.4578
C2_5 C 0.4290(8) 0.5800(15) 0.4957(4)
H2_5 H 0.4334 0.6457 0.4954
C3_5 C 0.4092(7) 0.5306(13) 0.5203(3)
C4_5 C 0.4025(8) 0.4362(14) 0.5173(4)
H3_5 H 0.3926 0.4030 0.5337
C5_5 C 0.4086(9) 0.3866(15) 0.4934(4)
H4_5 H 0.4003 0.3226 0.4930
C6_5 C 0.4008(6) 0.5878(12) 0.5465(3)
C7_5 C 0.3998(6) 0.7237(12) 0.5711(4)
C8_5 C 0.3690(6) 0.5930(12) 0.5923(3)
C9_5 C 0.4144(6) 0.8234(12) 0.5757(4)
C10_5 C 0.4433(7) 0.8679(14) 0.5526(4)
H5_5 H 0.4507 0.8344 0.5358
C11_5 C 0.4579(7) 0.9533(13) 0.5564(4)
H6_5 H 0.4763 0.9806 0.5420
C12_5 C 0.4244(10) 0.9668(16) 0.6018(5)
C13_5 C 0.4109(10) 0.8741(15) 0.6007(5)
H8_5 H 0.3991 0.8451 0.6173
C14_5 C 0.3467(6) 0.5428(11) 0.6160(3)
C15_5 C 0.3230(8) 0.5906(14) 0.6381(4)
H9_5 H 0.3209 0.6568 0.6384
C16_5 C 0.3029(8) 0.5359(13) 0.6595(4)
H10_5 H 0.2873 0.5673 0.6745
C17_5 C 0.3247(7) 0.3990(12) 0.6399(3)
H11_5 H 0.3235 0.3327 0.6403
C18_5 C 0.3485(7) 0.4433(12) 0.6175(4)
H12_5 H 0.3651 0.4082 0.6038
C19_5 C 0.1653(7) 0.6124(14) 0.9198(4)
H13_5 H 0.1663 0.6277 0.9395
C20_5 C 0.2074(6) 0.5991(11) 0.9061(3)
H14_5 H 0.2356 0.6029 0.9159
C21_5 C 0.2044(6) 0.5791(10) 0.8756(3)
C22_5 C 0.1619(6) 0.5684(11) 0.8624(3)
H15_5 H 0.1594 0.5514 0.8429
C23_5 C 0.1220(7) 0.5843(15) 0.8799(4)
H16_5 H 0.0929 0.5795 0.8711
C24_5 C 0.2485(6) 0.5655(9) 0.8588(3)
C25_5 C 0.3253(6) 0.5631(10) 0.8557(3)
C26_5 C 0.2805(6) 0.5332(9) 0.8155(3)
C27_5 C 0.3723(6) 0.5759(12) 0.8675(3)
C28_5 C 0.3752(7) 0.5838(15) 0.8988(4)
H17_5 H 0.3497 0.5800 0.9112
C29_5 C 0.4193(7) 0.5973(16) 0.9080(4)
H18_5 H 0.4227 0.6001 0.9281
C30_5 C 0.4551(7) 0.5943(15) 0.8654(4)
H19_5 H 0.4824 0.5947 0.8545
C31_5 C 0.4116(7) 0.5800(15) 0.8513(4)
H20_5 H 0.4102 0.5736 0.8312
C32_5 C 0.2773(6) 0.5037(9) 0.7841(3)
C33_5 C 0.3167(6) 0.4746(14) 0.7688(3)
H21_5 H 0.3458 0.4727 0.7777
C34_5 C 0.3108(7) 0.4485(19) 0.7398(4)
H22_5 H 0.3370 0.4354 0.7286
C35_5 C 0.2311(6) 0.4725(11) 0.7430(3)
H23_5 H 0.2021 0.4751 0.7340
C36_5 C 0.2354(6) 0.4995(11) 0.7712(3)
H24_5 H 0.2090 0.5155 0.7817
I1_5 I 0.42989(9) 0.18078(13) 0.44102(5)
I4_5 I 0.29692(7) 0.20431(10) 0.69508(3)
N1_5 N 0.4277(5) 0.4287(11) 0.4683(3)
N2_5 N 0.4117(5) 0.6784(10) 0.5477(3)
N3_5 N 0.3776(5) 0.6841(9) 0.5957(3)
N4_5 N 0.3786(5) 0.5390(9) 0.5682(3)
N6_5 N 0.3043(5) 0.4465(10) 0.6604(3)
N7_3 N 0.1239(5) 0.6056(10) 0.9080(3)
N8_5 N 0.2871(5) 0.5777(9) 0.8715(2)
N9_5 N 0.3244(5) 0.5420(9) 0.8261(2)
N10_5 N 0.2425(4) 0.5435(8) 0.8298(2)
N11_3 N 0.4566(5) 0.6069(9) 0.8938(3)
N12_5 N 0.2686(5) 0.4416(9) 0.7275(3)
Zn1_3 Zn 0.43677(8) 0.35995(18) 0.43045(5)
Zn3_5 Zn 0.26023(9) 0.36892(15) 0.68882(4)
I5_5 I 0.50212(5) 0.44049(16) 0.40297(4)
I6_5 I 0.17652(7) 0.37572(17) 0.67204(4)
N13_3 N 0.3761(5) 0.3944(10) 0.4080(3)
Zn4_3 Zn 0.06323(8) 0.64005(18) 0.93045(5)
Zn5_3 Zn 0.52052(9) 0.64256(15) 0.91310(6)
C3_6 C 0.0908(7) 0.4694(13) 0.0203(3)
C4_6 C 0.0975(8) 0.5638(14) 0.0173(4)
H3_6 H 0.1074 0.5970 0.0337
C6_6 C 0.0992(6) 0.4122(12) 0.0465(3)
C7_6 C 0.1002(6) 0.2763(12) 0.0711(4)
C8_6 C 0.1310(6) 0.4070(12) 0.0923(3)
C9_6 C 0.0856(6) 0.1766(12) 0.0757(4)
C10_6 C 0.0567(7) 0.1321(14) 0.0526(4)
H5_6 H 0.0493 0.1656 0.0358
C11_6 C 0.0421(7) 0.0467(13) 0.0564(4)
H6_6 H 0.0237 0.0194 0.0420
C12_6 C 0.0756(10) 0.0332(16) 0.1018(5)
C13_6 C 0.0891(10) 0.1259(15) 0.1007(5)
H8_6 H 0.1009 0.1549 0.1173
C14_6 C 0.1533(6) 0.4572(11) 0.1160(3)
C15_6 C 0.1770(8) 0.4094(14) 0.1381(4)
H9_6 H 0.1791 0.3432 0.1384
C16_6 C 0.1971(8) 0.4641(13) 0.1595(4)
H10_6 H 0.2127 0.4327 0.1745
C17_6 C 0.1753(7) 0.6010(12) 0.1399(3)
H11_6 H 0.1765 0.6673 0.1403
C18_6 C 0.1515(7) 0.5567(12) 0.1175(4)
H12_6 H 0.1349 0.5918 0.1038
C19_6 C 0.3347(7) 0.3876(14) 0.4198(4)
H13_6 H 0.3337 0.3723 0.4395
C20_6 C 0.2926(6) 0.4009(11) 0.4061(3)
H14_6 H 0.2644 0.3971 0.4159
C21_6 C 0.2956(6) 0.4209(10) 0.3756(3)
C22_6 C 0.3381(6) 0.4316(11) 0.3624(3)
H15_6 H 0.3406 0.4486 0.3429
C23_6 C 0.3780(7) 0.4157(15) 0.3799(4)
H16_6 H 0.4071 0.4205 0.3711
C24_6 C 0.2515(6) 0.4345(9) 0.3588(3)
C25_6 C 0.1747(6) 0.4369(10) 0.3557(3)
C26_6 C 0.2195(6) 0.4668(9) 0.3155(3)
C27_6 C 0.1277(6) 0.4241(12) 0.3675(3)
C28_6 C 0.1248(7) 0.4162(15) 0.3988(4)
H17_6 H 0.1503 0.4200 0.4112
C29_6 C 0.0807(7) 0.4027(16) 0.4080(4)
H18_6 H 0.0773 0.3999 0.4281
C30_6 C 0.0449(7) 0.4057(15) 0.3654(4)
H19_6 H 0.0176 0.4053 0.3545
C31_6 C 0.0884(7) 0.4200(15) 0.3513(4)
H20_6 H 0.0898 0.4264 0.3312
C32_6 C 0.2227(6) 0.4963(9) 0.2841(3)
C33_6 C 0.1833(6) 0.5254(14) 0.2688(3)
H21_6 H 0.1542 0.5273 0.2777
C34_6 C 0.1892(7) 0.5515(19) 0.2398(4)
H22_6 H 0.1630 0.5646 0.2286
C35_6 C 0.2689(6) 0.5275(11) 0.2430(3)
H23_6 H 0.2979 0.5249 0.2340
C36_6 C 0.2646(6) 0.5005(11) 0.2712(3)
H24_6 H 0.2910 0.4845 0.2817
I4_6 I 0.20308(7) 0.79569(10) 0.19508(3)
N2_6 N 0.0883(5) 0.3216(10) 0.0477(3)
N3_6 N 0.1224(5) 0.3159(9) 0.0957(3)
N4_6 N 0.1214(5) 0.4610(9) 0.0682(3)
N6_6 N 0.1957(5) 0.5535(10) 0.1604(3)
N8_6 N 0.2129(5) 0.4223(9) 0.3715(2)
N9_6 N 0.1756(5) 0.4580(9) 0.3261(2)
N10_6 N 0.2575(4) 0.4565(8) 0.3298(2)
N11_4 N 0.0434(5) 0.3931(9) 0.3938(3)
N12_6 N 0.2314(5) 0.5584(9) 0.2275(3)
Zn3_6 Zn 0.23977(9) 0.63108(15) 0.18882(4)
I6_6 I 0.32348(7) 0.62428(17) 0.17204(4)
C1_6 C 0.0591(8) 0.4802(14) 0.9722(4)
H1_6 H 0.0400 0.4541 0.9578
C2_6 C 0.0710(8) 0.4200(15) 0.9957(4)
H2_6 H 0.0666 0.3543 0.9954
C5_6 C 0.0914(9) 0.6134(15) 0.9934(4)
H4_6 H 0.0997 0.6774 0.9930
I1_6 I 0.07011(9) 0.81922(13) 0.94102(5)
N1_6 N 0.0723(5) 0.5713(11) 0.9683(3)
H7_6 H 0.0832 0.9974 0.1182
I2_6 I 0.06655(7) 0.76759(15) 0.12526(6)
I3_6 I 0.00417(7) 0.78825(14) 0.03661(4)
N5_6 N 0.0527(5) 0.9929(10) 0.0809(3)
Zn2_4 Zn 0.02052(9) 0.85744(15) 0.08690(6)
C3_7 C 0.5908(7) 0.0306(13) 0.9797(3)
C6_7 C 0.5992(6) 0.0878(12) 0.9535(3)
C7_7 C 0.6002(6) 0.2237(12) 0.9289(4)
C8_7 C 0.6310(6) 0.0930(12) 0.9077(3)
C9_7 C 0.5856(6) 0.3234(12) 0.9243(4)
C10_7 C 0.5567(7) 0.3679(14) 0.9474(4)
H5_7 H 0.5493 0.3344 0.9642
C11_7 C 0.5421(7) 0.4533(13) 0.9436(4)
H6_7 H 0.5237 0.4806 0.9580
C12_7 C 0.5756(10) 0.4668(16) 0.8982(5)
H7_7 H 0.5832 0.5026 0.8818
C13_7 C 0.5891(10) 0.3741(15) 0.8993(5)
H8_7 H 0.6009 0.3451 0.8827
C14_7 C 0.6533(6) 0.0428(11) 0.8840(3)
C15_7 C 0.6770(8) 0.0906(14) 0.8619(4)
H9_7 H 0.6791 0.1568 0.8616
C16_7 C 0.6971(8) 0.0359(13) 0.8405(4)
H10_7 H 0.7127 0.0673 0.8255
C19_7 C 0.8347(7) 0.1124(14) 0.5802(4)
H13_7 H 0.8337 0.1277 0.5605
C20_7 C 0.7926(6) 0.0991(11) 0.5939(3)
H14_7 H 0.7644 0.1029 0.5841
C21_7 C 0.7956(6) 0.0791(10) 0.6244(3)
C22_7 C 0.8381(6) 0.0684(11) 0.6376(3)
H15_7 H 0.8406 0.0514 0.6571
C23_7 C 0.8780(7) 0.0843(15) 0.6201(4)
H16_7 H 0.9071 0.0795 0.6289
C24_7 C 0.7515(6) 0.0655(9) 0.6412(3)
C25_7 C 0.6747(6) 0.0631(10) 0.6443(3)
C26_7 C 0.7195(6) 0.0332(9) 0.6845(3)
C27_7 C 0.6277(6) 0.0759(12) 0.6325(3)
C28_7 C 0.6248(7) 0.0838(15) 0.6012(4)
H17_7 H 0.6503 0.0800 0.5888
C29_7 C 0.5807(7) 0.0973(16) 0.5920(4)
H18_7 H 0.5773 0.1001 0.5719
C30_7 C 0.5449(7) 0.0943(15) 0.6346(4)
H19_7 H 0.5176 0.0947 0.6455
C31_7 C 0.5884(7) 0.0800(15) 0.6487(4)
H20_7 H 0.5898 0.0736 0.6688
C32_7 C 0.7227(6) 0.0037(9) 0.7159(3)
H24_7 H 0.7910 0.0155 0.7183
I2_7 I 0.56655(7) 0.73241(15) 0.87474(6)
I3_7 I 0.50417(7) 0.71175(14) 0.96339(4)
N2_7 N 0.5883(5) 0.1784(10) 0.9523(3)
N3_7 N 0.6224(5) 0.1841(9) 0.9043(3)
N4_7 N 0.6214(5) 0.0390(9) 0.9318(3)
N5_7 N 0.5527(5) 0.5071(10) 0.9191(3)
N7_4 N 0.8761(5) 0.1056(10) 0.5920(3)
N8_7 N 0.7129(5) 0.0777(9) 0.6285(2)
N9_7 N 0.6756(5) 0.0420(9) 0.6739(2)
N10_7 N 0.7575(4) 0.0435(8) 0.6702(2)
Zn4_4 Zn 0.93677(8) 0.14005(18) 0.56955(5)
C4_7 C 0.9025(8) 0.0638(14) 0.4827(4)
H3_7 H 0.8926 0.0970 0.4663
C5_7 C 0.9086(9) 0.1134(15) 0.5066(4)
H4_7 H 0.9003 0.1774 0.5070
C17_7 C 0.8247(7) 0.1010(12) 0.3601(3)
H11_7 H 0.8235 0.1673 0.3597
C18_7 C 0.8485(7) 0.0567(12) 0.3825(4)
H12_7 H 0.8651 0.0918 0.3962
C33_7 C 0.8167(6) 0.0254(14) 0.2312(3)
H21_7 H 0.8458 0.0273 0.2223
C34_7 C 0.8108(7) 0.0515(19) 0.2602(4)
H22_7 H 0.8370 0.0646 0.2714
C35_7 C 0.7311(6) 0.0275(11) 0.2570(3)
H23_7 H 0.7021 0.0249 0.2660
C36_7 C 0.7354(6) 0.0005(11) 0.2288(3)
I1_7 I 0.92989(9) 0.31922(13) 0.55898(5)
I4_7 I 0.79692(7) 0.29569(10) 0.30492(3)
N1_7 N 0.9277(5) 0.0713(11) 0.5317(3)
N6_7 N 0.8043(5) 0.0535(10) 0.3396(3)
N12_7 N 0.7686(5) 0.0584(9) 0.2725(3)
Zn3_7 Zn 0.76023(9) 0.13108(15) 0.31118(4)
I6_7 I 0.67652(7) 0.12428(17) 0.32796(4)
Zn5_4 Zn 0.97948(9) 0.35744(15) 0.41310(6)
N14_4 N 0.9566(5) 0.8931(9) 0.1062(3)
C5_8 C 0.5914(9) 0.8866(15) 0.0066(4)
H4_8 H 0.5997 0.8226 0.0070
I1_8 I 0.57011(9) 0.68078(13) 0.05898(5)
N1_8 N 0.5723(5) 0.9287(11) 0.0317(3)
Zn1_4 Zn 0.56323(8) 0.85995(18) 0.06955(5)
I5_6 I 0.49788(5) 0.94049(16) 0.09703(4)
N13_4 N 0.6239(5) 0.8944(10) 0.0920(3)
C1_7 C 0.9409(8) 0.9802(14) 0.5278(4)
H1_7 H 0.9600 0.9541 0.5422
C2_7 C 0.9290(8) 0.9200(15) 0.5043(4)
H2_7 H 0.9334 0.8543 0.5046
C3_8 C 0.9092(7) 0.9694(13) 0.4797(3)
C6_8 C 0.9008(6) 0.9122(12) 0.4535(3)
C7_8 C 0.8998(6) 0.7763(12) 0.4289(4)
C8_8 C 0.8690(6) 0.9070(12) 0.4077(3)
C9_8 C 0.9144(6) 0.6766(12) 0.4243(4)
C10_8 C 0.9433(7) 0.6321(14) 0.4474(4)
H5_8 H 0.9507 0.6656 0.4642
C11_8 C 0.9579(7) 0.5467(13) 0.4436(4)
H6_8 H 0.9763 0.5194 0.4580
C12_8 C 0.9244(10) 0.5332(16) 0.3982(5)
H7_8 H 0.9168 0.4974 0.3818
C13_8 C 0.9109(10) 0.6259(15) 0.3993(5)
H8_8 H 0.8991 0.6549 0.3827
C14_8 C 0.8467(6) 0.9572(11) 0.3840(3)
C15_8 C 0.8230(8) 0.9094(14) 0.3619(4)
H9_8 H 0.8209 0.8432 0.3616
C16_8 C 0.8029(8) 0.9641(13) 0.3405(4)
H10_8 H 0.7873 0.9327 0.3255
C19_8 C 0.6653(7) 0.8876(14) 0.0802(4)
H13_8 H 0.6663 0.8723 0.0605
C20_8 C 0.7074(6) 0.9009(11) 0.0939(3)
H14_8 H 0.7356 0.8971 0.0841
C21_8 C 0.7044(6) 0.9209(10) 0.1244(3)
C22_8 C 0.6619(6) 0.9316(11) 0.1376(3)
H15_8 H 0.6594 0.9486 0.1571
C23_8 C 0.6220(7) 0.9157(15) 0.1201(4)
H16_8 H 0.5929 0.9205 0.1289
C24_8 C 0.7485(6) 0.9345(9) 0.1412(3)
C25_8 C 0.8253(6) 0.9369(10) 0.1443(3)
C26_8 C 0.7805(6) 0.9668(9) 0.1845(3)
C27_8 C 0.8723(6) 0.9241(12) 0.1325(3)
C28_8 C 0.8752(7) 0.9162(15) 0.1012(4)
H17_8 H 0.8497 0.9200 0.0888
C29_8 C 0.9193(7) 0.9027(16) 0.0920(4)
H18_8 H 0.9227 0.8999 0.0719
C30_8 C 0.9551(7) 0.9057(15) 0.1346(4)
H19_8 H 0.9824 0.9053 0.1455
C31_8 C 0.9116(7) 0.9200(15) 0.1487(4)
H20_8 H 0.9102 0.9264 0.1688
C32_8 C 0.7773(6) 0.9963(9) 0.2159(3)
H24_8 H 0.7090 0.9845 0.2183
I2_8 I 0.93345(7) 0.26759(15) 0.37474(6)
I3_8 I 0.99583(7) 0.28825(14) 0.46339(4)
N2_8 N 0.9117(5) 0.8216(10) 0.4523(3)
N3_8 N 0.8776(5) 0.8159(9) 0.4043(3)
N4_8 N 0.8786(5) 0.9610(9) 0.4318(3)
N5_8 N 0.9473(5) 0.4929(10) 0.4191(3)
N8_8 N 0.7871(5) 0.9223(9) 0.1285(2)
N9_8 N 0.8244(5) 0.9580(9) 0.1739(2)
N10_8 N 0.7425(4) 0.9565(8) 0.1702(2)
I5_7 I 0.99788(5) 0.55951(16) 0.90297(4)
C1_8 C 0.5591(8) 0.0198(14) 0.0278(4)
H1_8 H 0.5400 0.0459 0.0422
C2_8 C 0.5710(8) 0.0800(15) 0.0043(4)
H2_8 H 0.5666 0.1457 0.0046
C4_8 C 0.5975(8) 0.9362(14) 0.9827(4)
H3_8 H 0.6074 0.9030 0.9663
C17_8 C 0.6753(7) 0.8990(12) 0.8601(3)
H11_8 H 0.6765 0.8327 0.8597
C18_8 C 0.6515(7) 0.9433(12) 0.8825(4)
H12_8 H 0.6349 0.9082 0.8962
C33_8 C 0.6833(6) 0.9746(14) 0.7312(3)
H21_8 H 0.6542 0.9727 0.7223
C34_8 C 0.6892(7) 0.9485(19) 0.7602(4)
H22_8 H 0.6630 0.9354 0.7714
C35_8 C 0.7689(6) 0.9725(11) 0.7570(3)
H23_8 H 0.7979 0.9751 0.7660
C36_8 C 0.7646(6) 0.9995(11) 0.7288(3)
I4_8 I 0.70308(7) 0.70431(10) 0.80492(3)
N6_8 N 0.6957(5) 0.9465(10) 0.8396(3)
N12_8 N 0.7314(5) 0.9416(9) 0.7725(3)
Zn3_8 Zn 0.73977(9) 0.86892(15) 0.81118(4)
I6_8 I 0.82348(7) 0.87572(17) 0.82796(4)
I5_8 I 0.00212(5) 0.05951(16) 0.59703(4)
loop_
_geom_bond_atom_site_label_1
_geom_bond_atom_site_label_2
_geom_bond_site_symmetry_1
_geom_bond_site_symmetry_2
C1 H1 1_555 1_555
C2 C1 1_555 1_555
H2 C2 1_555 1_555
C3 C2 1_555 1_555
C4 C3 1_555 1_555
H3 C4 1_555 1_555
C5 C4 1_555 1_555
H4 C5 1_555 1_555
C6 C3 1_555 1_555
C7 C9 1_555 1_555
C8 C14 1_555 1_555
C9 C10 1_555 1_555
C10 H5 1_555 1_555
C11 C10 1_555 1_555
H6 C11 1_555 1_555
C13 C9 1_555 1_555
H8 C13 1_555 1_555
C14 C15 1_555 1_555
C15 H9 1_555 1_555
C16 C15 1_555 1_555
H10 C16 1_555 1_555
C17 H11 1_555 1_555
C18 C14 1_555 1_555
H12 C18 1_555 1_555
C19 H13 1_555 1_555
C20 C19 1_555 1_555
H14 C20 1_555 1_555
C21 C20 1_555 1_555
C22 C21 1_555 1_555
H15 C22 1_555 1_555
C23 C22 1_555 1_555
H16 C23 1_555 1_555
C24 C21 1_555 1_555
C25 C27 1_555 1_555
C26 C32 1_555 1_555
C27 C28 1_555 1_555
C28 H17 1_555 1_555
C29 C28 1_555 1_555
H18 C29 1_555 1_555
C30 H19 1_555 1_555
C31 C27 1_555 1_555
H20 C31 1_555 1_555
C32 C33 1_555 1_555
C33 H21 1_555 1_555
C34 C33 1_555 1_555
H22 C34 1_555 1_555
C35 H23 1_555 1_555
C36 C32 1_555 1_555
H24 C36 1_555 1_555
I1 Zn1 1_555 1_555
I4 Zn3 1_555 1_555
N1 C1 1_555 1_555
N2 C6 1_555 1_555
N3 C7 1_555 1_555
N4 C6 1_555 1_555
N6 C16 1_555 1_555
N7 C19 1_555 1_555
N8 C24 1_555 1_555
N9 C25 1_555 1_555
N10 C24 1_555 1_555
N11 C29 1_555 1_555
N12 C34 1_555 1_555
Zn1 N1 1_555 1_555
Zn3 N6 1_555 1_555
I5 Zn1 1_555 1_555
I6 Zn3 1_555 1_555
N13 Zn1 1_555 1_555
Zn4 N7 1_555 1_555
Zn5 N11 1_555 1_555
C5 N1 1_555 1_555
C7 N2 1_555 1_555
C8 N3 1_555 1_555
C8 N4 1_555 1_555
C12 C13 1_555 1_555
C17 C18 1_555 1_555
C17 N6 1_555 1_555
C23 N7 1_555 1_555
C25 N8 1_555 1_555
C26 N9 1_555 1_555
C26 N10 1_555 1_555
C30 C31 1_555 1_555
C30 N11 1_555 1_555
C35 C36 1_555 1_555
C35 N12 1_555 1_555
N12 Zn3 1_555 1_555
I2 Zn2 1_555 1_555
I3 Zn2 1_555 1_555
Zn2 N5 1_555 1_555
N14 Zn2 1_555 1_555
I2_2 Zn2_2 1_555 1_555
I3_2 Zn2_2 1_555 1_555
Zn2_2 N5_2 1_555 1_555
C1_2 H1_2 1_555 1_555
C2_2 C1_2 1_555 1_555
H2_2 C2_2 1_555 1_555
H4_2 C5_2 1_555 1_555
I1_2 Zn4 1_555 1_555
N1_2 C1_2 1_555 1_555
Zn4 N1_2 1_555 1_555
C5_2 N1_2 1_555 1_555
C4_2 C3_2 1_555 1_555
H3_2 C4_2 1_555 1_555
C6_2 C3_2 1_555 1_555
C7_2 C9_2 1_555 1_555
C8_2 C14_2 1_555 1_555
C9_2 C10_2 1_555 1_555
C10_2 H5_2 1_555 1_555
C11_2 C10_2 1_555 1_555
H6_2 C11_2 1_555 1_555
C13_2 C9_2 1_555 1_555
H8_2 C13_2 1_555 1_555
C14_2 C15_2 1_555 1_555
C15_2 H9_2 1_555 1_555
C16_2 C15_2 1_555 1_555
H10_2 C16_2 1_555 1_555
C17_2 H11_2 1_555 1_555
C18_2 C14_2 1_555 1_555
H12_2 C18_2 1_555 1_555
C19_2 H13_2 1_555 1_555
C20_2 C19_2 1_555 1_555
H14_2 C20_2 1_555 1_555
C21_2 C20_2 1_555 1_555
C22_2 C21_2 1_555 1_555
H15_2 C22_2 1_555 1_555
C23_2 C22_2 1_555 1_555
H16_2 C23_2 1_555 1_555
C24_2 C21_2 1_555 1_555
C25_2 C27_2 1_555 1_555
C26_2 C32_2 1_555 1_555
C27_2 C28_2 1_555 1_555
C28_2 H17_2 1_555 1_555
C29_2 C28_2 1_555 1_555
H18_2 C29_2 1_555 1_555
C30_2 H19_2 1_555 1_555
C31_2 C27_2 1_555 1_555
H20_2 C31_2 1_555 1_555
C32_2 C33_2 1_555 1_555
C33_2 H21_2 1_555 1_555
C34_2 C33_2 1_555 1_555
H22_2 C34_2 1_555 1_555
C35_2 H23_2 1_555 1_555
C36_2 C32_2 1_555 1_555
H24_2 C36_2 1_555 1_555
I4_2 Zn3_2 1_555 1_555
N2_2 C6_2 1_555 1_555
N3_2 C7_2 1_555 1_555
N4_2 C6_2 1_555 1_555
N6_2 C16_2 1_555 1_555
N13 C19_2 1_555 1_555
N8_2 C24_2 1_555 1_555
N9_2 C25_2 1_555 1_555
N10_2 C24_2 1_555 1_555
N11_2 C29_2 1_555 1_555
N12_2 C34_2 1_555 1_555
Zn3_2 N6_2 1_555 1_555
I6_2 Zn3_2 1_555 1_555
C7_2 N2_2 1_555 1_555
C8_2 N3_2 1_555 1_555
C8_2 N4_2 1_555 1_555
C12_2 C13_2 1_555 1_555
C17_2 C18_2 1_555 1_555
C17_2 N6_2 1_555 1_555
C23_2 N13 1_555 1_555
C25_2 N8_2 1_555 1_555
C26_2 N9_2 1_555 1_555
C26_2 N10_2 1_555 1_555
C30_2 C31_2 1_555 1_555
C30_2 N11_2 1_555 1_555
C35_2 C36_2 1_555 1_555
C35_2 N12_2 1_555 1_555
N12_2 Zn3_2 1_555 1_555
C6_3 C3_3 1_555 1_555
C7_3 C9_3 1_555 1_555
C8_3 C14_3 1_555 1_555
C9_3 C10_3 1_555 1_555
C10_3 H5_3 1_555 1_555
C11_3 C10_3 1_555 1_555
H6_3 C11_3 1_555 1_555
C12_3 H7_3 1_555 1_555
C13_3 C9_3 1_555 1_555
H8_3 C13_3 1_555 1_555
C14_3 C15_3 1_555 1_555
C15_3 H9_3 1_555 1_555
C16_3 C15_3 1_555 1_555
H10_3 C16_3 1_555 1_555
C19_3 H13_3 1_555 1_555
C20_3 C19_3 1_555 1_555
H14_3 C20_3 1_555 1_555
C21_3 C20_3 1_555 1_555
C22_3 C21_3 1_555 1_555
H15_3 C22_3 1_555 1_555
C23_3 C22_3 1_555 1_555
H16_3 C23_3 1_555 1_555
C24_3 C21_3 1_555 1_555
C25_3 C27_3 1_555 1_555
C26_3 C32_3 1_555 1_555
C27_3 C28_3 1_555 1_555
C28_3 H17_3 1_555 1_555
C29_3 C28_3 1_555 1_555
H18_3 C29_3 1_555 1_555
C30_3 H19_3 1_555 1_555
C31_3 C27_3 1_555 1_555
H20_3 C31_3 1_555 1_555
I2_3 Zn5 1_555 1_555
I3_3 Zn5 1_555 1_555
N2_3 C6_3 1_555 1_555
N3_3 C7_3 1_555 1_555
N4_3 C6_3 1_555 1_555
N5_3 C11_3 1_555 1_555
N7_2 C19_3 1_555 1_555
N8_3 C24_3 1_555 1_555
N9_3 C25_3 1_555 1_555
N10_3 C24_3 1_555 1_555
N14 C29_3 1_555 1_555
Zn5 N5_3 1_555 1_555
Zn4_2 N7_2 1_555 1_555
C7_3 N2_3 1_555 1_555
C8_3 N3_3 1_555 1_555
C8_3 N4_3 1_555 1_555
C12_3 C13_3 1_555 1_555
C12_3 N5_3 1_555 1_555
C23_3 N7_2 1_555 1_555
C25_3 N8_3 1_555 1_555
C26_3 N9_3 1_555 1_555
C26_3 N10_3 1_555 1_555
C30_3 C31_3 1_555 1_555
C30_3 N14 1_555 1_555
H3_3 C4_3 1_555 1_555
C5_3 C4_3 1_555 1_555
H4_3 C5_3 1_555 1_555
C17_3 H11_3 1_555 1_555
H12_3 C18_3 1_555 1_555
C33_3 H21_3 1_555 1_555
C34_3 C33_3 1_555 1_555
H22_3 C34_3 1_555 1_555
C35_3 H23_3 1_555 1_555
I1_3 Zn4_2 1_555 1_555
I4_3 Zn3_3 1_555 1_555
N12_3 C34_3 1_555 1_555
Zn4_2 N1_3 1_555 1_555
Zn3_3 N6_3 1_555 1_555
I6_3 Zn3_3 1_555 1_555
C5_3 N1_3 1_555 1_555
C17_3 C18_3 1_555 1_555
C17_3 N6_3 1_555 1_555
C35_3 C36_3 1_555 1_555
C35_3 N12_3 1_555 1_555
N12_3 Zn3_3 1_555 1_555
H4_4 C5_4 1_555 1_555
I1_4 Zn1_2 1_555 1_555
Zn1_2 N1_4 1_555 1_555
I5_2 Zn1_2 1_555 1_555
N13_2 Zn1_2 1_555 1_555
C5_4 N1_4 1_555 1_555
C1_3 H1_3 1_555 1_555
C2_3 C1_3 1_555 1_555
H2_3 C2_3 1_555 1_555
C3_4 C2_3 1_555 1_555
C6_4 C3_4 1_555 1_555
C7_4 C9_4 1_555 1_555
C8_4 C14_4 1_555 1_555
C9_4 C10_4 1_555 1_555
C10_4 H5_4 1_555 1_555
C11_4 C10_4 1_555 1_555
H6_4 C11_4 1_555 1_555
C12_4 H7_4 1_555 1_555
C13_4 C9_4 1_555 1_555
H8_4 C13_4 1_555 1_555
C14_4 C15_4 1_555 1_555
C15_4 H9_4 1_555 1_555
C16_4 C15_4 1_555 1_555
H10_4 C16_4 1_555 1_555
C19_4 H13_4 1_555 1_555
C20_4 C19_4 1_555 1_555
H14_4 C20_4 1_555 1_555
C21_4 C20_4 1_555 1_555
C22_4 C21_4 1_555 1_555
H15_4 C22_4 1_555 1_555
C23_4 C22_4 1_555 1_555
H16_4 C23_4 1_555 1_555
C24_4 C21_4 1_555 1_555
C25_4 C27_4 1_555 1_555
C26_4 C32_4 1_555 1_555
C27_4 C28_4 1_555 1_555
C28_4 H17_4 1_555 1_555
C29_4 C28_4 1_555 1_555
H18_4 C29_4 1_555 1_555
C30_4 H19_4 1_555 1_555
C31_4 C27_4 1_555 1_555
H20_4 C31_4 1_555 1_555
I2_4 Zn5_2 1_555 1_555
I3_4 Zn5_2 1_555 1_555
N2_4 C6_4 1_555 1_555
N3_4 C7_4 1_555 1_555
N4_4 C6_4 1_555 1_555
N5_4 C11_4 1_555 1_555
N13_2 C19_4 1_555 1_555
N8_4 C24_4 1_555 1_555
N9_4 C25_4 1_555 1_555
N10_4 C24_4 1_555 1_555
N14_2 C29_4 1_555 1_555
Zn5_2 N5_4 1_555 1_555
C7_4 N2_4 1_555 1_555
C8_4 N3_4 1_555 1_555
C8_4 N4_4 1_555 1_555
C12_4 C13_4 1_555 1_555
C12_4 N5_4 1_555 1_555
C23_4 N13_2 1_555 1_555
C25_4 N8_4 1_555 1_555
C26_4 N9_4 1_555 1_555
C26_4 N10_4 1_555 1_555
C30_4 C31_4 1_555 1_555
C30_4 N14_2 1_555 1_555
H3_4 C4_4 1_555 1_555
C17_4 H11_4 1_555 1_555
H12_4 C18_4 1_555 1_555
C33_4 H21_4 1_555 1_555
C34_4 C33_4 1_555 1_555
H22_4 C34_4 1_555 1_555
C35_4 H23_4 1_555 1_555
I4_4 Zn3_4 1_555 1_555
N12_4 C34_4 1_555 1_555
Zn3_4 N6_4 1_555 1_555
I6_4 Zn3_4 1_555 1_555
C17_4 C18_4 1_555 1_555
C17_4 N6_4 1_555 1_555
C35_4 C36_4 1_555 1_555
C35_4 N12_4 1_555 1_555
N12_4 Zn3_4 1_555 1_555
C1_4 H1_4 1_555 1_555
C2_4 C1_4 1_555 1_555
H2_4 C2_4 1_555 1_555
I2_5 Zn2_3 1_555 1_555
I3_5 Zn2_3 1_555 1_555
Zn2_3 N5_5 1_555 1_555
N14_3 Zn2_3 1_555 1_555
C1_5 H1_5 1_555 1_555
C2_5 C1_5 1_555 1_555
H2_5 C2_5 1_555 1_555
C3_5 C2_5 1_555 1_555
C4_5 C3_5 1_555 1_555
H3_5 C4_5 1_555 1_555
C5_5 C4_5 1_555 1_555
H4_5 C5_5 1_555 1_555
C6_5 C3_5 1_555 1_555
C7_5 C9_5 1_555 1_555
C8_5 C14_5 1_555 1_555
C9_5 C10_5 1_555 1_555
C10_5 H5_5 1_555 1_555
C11_5 C10_5 1_555 1_555
H6_5 C11_5 1_555 1_555
C13_5 C9_5 1_555 1_555
H8_5 C13_5 1_555 1_555
C14_5 C15_5 1_555 1_555
C15_5 H9_5 1_555 1_555
C16_5 C15_5 1_555 1_555
H10_5 C16_5 1_555 1_555
C17_5 H11_5 1_555 1_555
C18_5 C14_5 1_555 1_555
H12_5 C18_5 1_555 1_555
C19_5 H13_5 1_555 1_555
C20_5 C19_5 1_555 1_555
H14_5 C20_5 1_555 1_555
C21_5 C20_5 1_555 1_555
C22_5 C21_5 1_555 1_555
H15_5 C22_5 1_555 1_555
C23_5 C22_5 1_555 1_555
H16_5 C23_5 1_555 1_555
C24_5 C21_5 1_555 1_555
C25_5 C27_5 1_555 1_555
C26_5 C32_5 1_555 1_555
C27_5 C28_5 1_555 1_555
C28_5 H17_5 1_555 1_555
C29_5 C28_5 1_555 1_555
H18_5 C29_5 1_555 1_555
C30_5 H19_5 1_555 1_555
C31_5 C27_5 1_555 1_555
H20_5 C31_5 1_555 1_555
C32_5 C33_5 1_555 1_555
C33_5 H21_5 1_555 1_555
C34_5 C33_5 1_555 1_555
H22_5 C34_5 1_555 1_555
C35_5 H23_5 1_555 1_555
C36_5 C32_5 1_555 1_555
H24_5 C36_5 1_555 1_555
I1_5 Zn1_3 1_555 1_555
I4_5 Zn3_5 1_555 1_555
N1_5 C1_5 1_555 1_555
N2_5 C6_5 1_555 1_555
N3_5 C7_5 1_555 1_555
N4_5 C6_5 1_555 1_555
N6_5 C16_5 1_555 1_555
N7_3 C19_5 1_555 1_555
N8_5 C24_5 1_555 1_555
N9_5 C25_5 1_555 1_555
N10_5 C24_5 1_555 1_555
N11_3 C29_5 1_555 1_555
N12_5 C34_5 1_555 1_555
Zn1_3 N1_5 1_555 1_555
Zn3_5 N6_5 1_555 1_555
I5_5 Zn1_3 1_555 1_555
I6_5 Zn3_5 1_555 1_555
N13_3 Zn1_3 1_555 1_555
Zn4_3 N7_3 1_555 1_555
Zn5_3 N11_3 1_555 1_555
C5_5 N1_5 1_555 1_555
C7_5 N2_5 1_555 1_555
C8_5 N3_5 1_555 1_555
C8_5 N4_5 1_555 1_555
C12_5 C13_5 1_555 1_555
C17_5 C18_5 1_555 1_555
C17_5 N6_5 1_555 1_555
C23_5 N7_3 1_555 1_555
C25_5 N8_5 1_555 1_555
C26_5 N9_5 1_555 1_555
C26_5 N10_5 1_555 1_555
C30_5 C31_5 1_555 1_555
C30_5 N11_3 1_555 1_555
C35_5 C36_5 1_555 1_555
C35_5 N12_5 1_555 1_555
N12_5 Zn3_5 1_555 1_555
C4_6 C3_6 1_555 1_555
H3_6 C4_6 1_555 1_555
C6_6 C3_6 1_555 1_555
C7_6 C9_6 1_555 1_555
C8_6 C14_6 1_555 1_555
C9_6 C10_6 1_555 1_555
C10_6 H5_6 1_555 1_555
C11_6 C10_6 1_555 1_555
H6_6 C11_6 1_555 1_555
C13_6 C9_6 1_555 1_555
H8_6 C13_6 1_555 1_555
C14_6 C15_6 1_555 1_555
C15_6 H9_6 1_555 1_555
C16_6 C15_6 1_555 1_555
H10_6 C16_6 1_555 1_555
C17_6 H11_6 1_555 1_555
C18_6 C14_6 1_555 1_555
H12_6 C18_6 1_555 1_555
C19_6 H13_6 1_555 1_555
C20_6 C19_6 1_555 1_555
H14_6 C20_6 1_555 1_555
C21_6 C20_6 1_555 1_555
C22_6 C21_6 1_555 1_555
H15_6 C22_6 1_555 1_555
C23_6 C22_6 1_555 1_555
H16_6 C23_6 1_555 1_555
C24_6 C21_6 1_555 1_555
C25_6 C27_6 1_555 1_555
C26_6 C32_6 1_555 1_555
C27_6 C28_6 1_555 1_555
C28_6 H17_6 1_555 1_555
C29_6 C28_6 1_555 1_555
H18_6 C29_6 1_555 1_555
C30_6 H19_6 1_555 1_555
C31_6 C27_6 1_555 1_555
H20_6 C31_6 1_555 1_555
C32_6 C33_6 1_555 1_555
C33_6 H21_6 1_555 1_555
C34_6 C33_6 1_555 1_555
H22_6 C34_6 1_555 1_555
C35_6 H23_6 1_555 1_555
C36_6 C32_6 1_555 1_555
H24_6 C36_6 1_555 1_555
I4_6 Zn3_6 1_555 1_555
N2_6 C6_6 1_555 1_555
N3_6 C7_6 1_555 1_555
N4_6 C6_6 1_555 1_555
N6_6 C16_6 1_555 1_555
N13_3 C19_6 1_555 1_555
N8_6 C24_6 1_555 1_555
N9_6 C25_6 1_555 1_555
N10_6 C24_6 1_555 1_555
N11_4 C29_6 1_555 1_555
N12_6 C34_6 1_555 1_555
Zn3_6 N6_6 1_555 1_555
I6_6 Zn3_6 1_555 1_555
C7_6 N2_6 1_555 1_555
C8_6 N3_6 1_555 1_555
C8_6 N4_6 1_555 1_555
C12_6 C13_6 1_555 1_555
C17_6 C18_6 1_555 1_555
C17_6 N6_6 1_555 1_555
C23_6 N13_3 1_555 1_555
C25_6 N8_6 1_555 1_555
C26_6 N9_6 1_555 1_555
C26_6 N10_6 1_555 1_555
C30_6 C31_6 1_555 1_555
C30_6 N11_4 1_555 1_555
C35_6 C36_6 1_555 1_555
C35_6 N12_6 1_555 1_555
N12_6 Zn3_6 1_555 1_555
C1_6 H1_6 1_555 1_555
C2_6 C1_6 1_555 1_555
H2_6 C2_6 1_555 1_555
H4_6 C5_6 1_555 1_555
I1_6 Zn4_3 1_555 1_555
N1_6 C1_6 1_555 1_555
Zn4_3 N1_6 1_555 1_555
C5_6 N1_6 1_555 1_555
I2_6 Zn2_4 1_555 1_555
I3_6 Zn2_4 1_555 1_555
Zn2_4 N5_6 1_555 1_555
C6_7 C3_7 1_555 1_555
C7_7 C9_7 1_555 1_555
C8_7 C14_7 1_555 1_555
C9_7 C10_7 1_555 1_555
C10_7 H5_7 1_555 1_555
C11_7 C10_7 1_555 1_555
H6_7 C11_7 1_555 1_555
C12_7 H7_7 1_555 1_555
C13_7 C9_7 1_555 1_555
H8_7 C13_7 1_555 1_555
C14_7 C15_7 1_555 1_555
C15_7 H9_7 1_555 1_555
C16_7 C15_7 1_555 1_555
H10_7 C16_7 1_555 1_555
C19_7 H13_7 1_555 1_555
C20_7 C19_7 1_555 1_555
H14_7 C20_7 1_555 1_555
C21_7 C20_7 1_555 1_555
C22_7 C21_7 1_555 1_555
H15_7 C22_7 1_555 1_555
C23_7 C22_7 1_555 1_555
H16_7 C23_7 1_555 1_555
C24_7 C21_7 1_555 1_555
C25_7 C27_7 1_555 1_555
C26_7 C32_7 1_555 1_555
C27_7 C28_7 1_555 1_555
C28_7 H17_7 1_555 1_555
C29_7 C28_7 1_555 1_555
H18_7 C29_7 1_555 1_555
C30_7 H19_7 1_555 1_555
C31_7 C27_7 1_555 1_555
H20_7 C31_7 1_555 1_555
I2_7 Zn5_3 1_555 1_555
I3_7 Zn5_3 1_555 1_555
N2_7 C6_7 1_555 1_555
N3_7 C7_7 1_555 1_555
N4_7 C6_7 1_555 1_555
N5_7 C11_7 1_555 1_555
N7_4 C19_7 1_555 1_555
N8_7 C24_7 1_555 1_555
N9_7 C25_7 1_555 1_555
N10_7 C24_7 1_555 1_555
N14_3 C29_7 1_555 1_555
Zn5_3 N5_7 1_555 1_555
Zn4_4 N7_4 1_555 1_555
C7_7 N2_7 1_555 1_555
C8_7 N3_7 1_555 1_555
C8_7 N4_7 1_555 1_555
C12_7 C13_7 1_555 1_555
C12_7 N5_7 1_555 1_555
C23_7 N7_4 1_555 1_555
C25_7 N8_7 1_555 1_555
C26_7 N9_7 1_555 1_555
C26_7 N10_7 1_555 1_555
C30_7 C31_7 1_555 1_555
C30_7 N14_3 1_555 1_555
H3_7 C4_7 1_555 1_555
C5_7 C4_7 1_555 1_555
H4_7 C5_7 1_555 1_555
C17_7 H11_7 1_555 1_555
H12_7 C18_7 1_555 1_555
C33_7 H21_7 1_555 1_555
C34_7 C33_7 1_555 1_555
H22_7 C34_7 1_555 1_555
C35_7 H23_7 1_555 1_555
I1_7 Zn4_4 1_555 1_555
I4_7 Zn3_7 1_555 1_555
N12_7 C34_7 1_555 1_555
Zn4_4 N1_7 1_555 1_555
Zn3_7 N6_7 1_555 1_555
I6_7 Zn3_7 1_555 1_555
C5_7 N1_7 1_555 1_555
C17_7 C18_7 1_555 1_555
C17_7 N6_7 1_555 1_555
C35_7 C36_7 1_555 1_555
C35_7 N12_7 1_555 1_555
N12_7 Zn3_7 1_555 1_555
H4_8 C5_8 1_555 1_555
I1_8 Zn1_4 1_555 1_555
Zn1_4 N1_8 1_555 1_555
I5_6 Zn1_4 1_555 1_555
N13_4 Zn1_4 1_555 1_555
C5_8 N1_8 1_555 1_555
C1_7 H1_7 1_555 1_555
C2_7 C1_7 1_555 1_555
H2_7 C2_7 1_555 1_555
C3_8 C2_7 1_555 1_555
C6_8 C3_8 1_555 1_555
C7_8 C9_8 1_555 1_555
C8_8 C14_8 1_555 1_555
C9_8 C10_8 1_555 1_555
C10_8 H5_8 1_555 1_555
C11_8 C10_8 1_555 1_555
H6_8 C11_8 1_555 1_555
C12_8 H7_8 1_555 1_555
C13_8 C9_8 1_555 1_555
H8_8 C13_8 1_555 1_555
C14_8 C15_8 1_555 1_555
C15_8 H9_8 1_555 1_555
C16_8 C15_8 1_555 1_555
H10_8 C16_8 1_555 1_555
C19_8 H13_8 1_555 1_555
C20_8 C19_8 1_555 1_555
H14_8 C20_8 1_555 1_555
C21_8 C20_8 1_555 1_555
C22_8 C21_8 1_555 1_555
H15_8 C22_8 1_555 1_555
C23_8 C22_8 1_555 1_555
H16_8 C23_8 1_555 1_555
C24_8 C21_8 1_555 1_555
C25_8 C27_8 1_555 1_555
C26_8 C32_8 1_555 1_555
C27_8 C28_8 1_555 1_555
C28_8 H17_8 1_555 1_555
C29_8 C28_8 1_555 1_555
H18_8 C29_8 1_555 1_555
C30_8 H19_8 1_555 1_555
C31_8 C27_8 1_555 1_555
H20_8 C31_8 1_555 1_555
I2_8 Zn5_4 1_555 1_555
I3_8 Zn5_4 1_555 1_555
N2_8 C6_8 1_555 1_555
N3_8 C7_8 1_555 1_555
N4_8 C6_8 1_555 1_555
N5_8 C11_8 1_555 1_555
N13_4 C19_8 1_555 1_555
N8_8 C24_8 1_555 1_555
N9_8 C25_8 1_555 1_555
N10_8 C24_8 1_555 1_555
N14_4 C29_8 1_555 1_555
Zn5_4 N5_8 1_555 1_555
C7_8 N2_8 1_555 1_555
C8_8 N3_8 1_555 1_555
C8_8 N4_8 1_555 1_555
C12_8 C13_8 1_555 1_555
C12_8 N5_8 1_555 1_555
C23_8 N13_4 1_555 1_555
C25_8 N8_8 1_555 1_555
C26_8 N9_8 1_555 1_555
C26_8 N10_8 1_555 1_555
C30_8 C31_8 1_555 1_555
C30_8 N14_4 1_555 1_555
C1_8 H1_8 1_555 1_555
C2_8 C1_8 1_555 1_555
H2_8 C2_8 1_555 1_555
H3_8 C4_8 1_555 1_555
C17_8 H11_8 1_555 1_555
H12_8 C18_8 1_555 1_555
C33_8 H21_8 1_555 1_555
C34_8 C33_8 1_555 1_555
H22_8 C34_8 1_555 1_555
C35_8 H23_8 1_555 1_555
I4_8 Zn3_8 1_555 1_555
N12_8 C34_8 1_555 1_555
Zn3_8 N6_8 1_555 1_555
I6_8 Zn3_8 1_555 1_555
C17_8 C18_8 1_555 1_555
C17_8 N6_8 1_555 1_555
C35_8 C36_8 1_555 1_555
C35_8 N12_8 1_555 1_555
N12_8 Zn3_8 1_555 1_555

#END
