
###############################################################################
#
# This file contains modified crystal structure data generated from the
# MOF subset of the Cambridge Structural Database (CSD) v543 
# hosted by the Cambridge Crystallographic Data Centre (CCDC).
#
# This work is licensed under the Creative Commons
# Attribution-NonCommercial-ShareAlike 4.0 International License.
# To view a copy of this license, visit
# http://creativecommons.org/licenses/by-nc-sa/4.0/
# or send a letter to
# Creative Commons, PO Box 1866, Mountain View, CA 94042, USA.
#
# CIF created using the CSD Python API on 29 September 2022
# The structure has been converted into the P1 space group
# The structure has a 3D framework
# The original CSD entry KEWFAW is in the orthorhombic crystal system
# The framework has been calculated to contain at least 10.0% void space
# The void calculation uses a probe of radius 1.32A, grid spacing 0.4
#
###############################################################################

data_KEWFAW
_chemical_formula_moiety         '(C288 H192 I48 N96 Zn24)n'
_symmetry_cell_setting           triclinic
_symmetry_space_group_name_H-M   'P 1'
_symmetry_Int_Tables_number      1
_space_group_name_Hall           'P 1'
loop_
_symmetry_equiv_pos_site_id
_symmetry_equiv_pos_as_xyz
1 x,y,z
_cell_length_a                   28.635(3)
_cell_length_b                   13.9803(13)
_cell_length_c                   45.876(5)
_cell_angle_alpha                90
_cell_angle_beta                 90
_cell_angle_gamma                90
_cell_volume                     18365.4
loop_
_atom_site_label
_atom_site_type_symbol
_atom_site_fract_x
_atom_site_fract_y
_atom_site_fract_z
C1 C 0.5575(7) 0.4800(12) 0.5283(3)
H1 H 0.5377 0.4540 0.5422
C2 C 0.5713(6) 0.4213(13) 0.5044(3)
H2 H 0.5671 0.3554 0.5047
C3 C 0.5920(5) 0.4691(11) 0.4799(3)
C4 C 0.5981(8) 0.5645(12) 0.4827(3)
H3 H 0.6081 0.5984 0.4664
C5 C 0.5909(7) 0.6123(13) 0.5065(3)
H4 H 0.5990 0.6767 0.5066
C6 C 0.6000(5) 0.4127(11) 0.4539(3)
C7 C 0.6007(5) 0.2751(10) 0.4290(3)
C8 C 0.6315(5) 0.4072(10) 0.4080(3)
C9 C 0.5855(5) 0.1763(10) 0.4247(3)
C10 C 0.5570(6) 0.1289(12) 0.4467(4)
H5 H 0.5492 0.1625 0.4635
C11 C 0.5428(6) 0.0462(11) 0.4440(4)
H6 H 0.5249 0.0198 0.4589
C12 C 0.5736(9) 0.0372(14) 0.3970(4)
H7 H 0.5744 0.0085 0.3787
C13 C 0.5929(8) 0.1227(12) 0.4001(4)
H8 H 0.6118 0.1468 0.3854
C14 C 0.6535(5) 0.4589(9) 0.3842(3)
C15 C 0.6762(7) 0.4086(12) 0.3612(4)
H9 H 0.6764 0.3422 0.3602
C16 C 0.6977(7) 0.4643(11) 0.3404(3)
H10 H 0.7139 0.4328 0.3257
C17 C 0.6763(6) 0.6006(11) 0.3604(3)
H11 H 0.6771 0.6671 0.3604
C18 C 0.6532(7) 0.5556(11) 0.3822(3)
H12 H 0.6369 0.5914 0.3960
C19 C 0.8350(6) 0.3847(12) 0.0804(3)
H13 H 0.8341 0.3650 0.0611
C20 C 0.7929(5) 0.4005(10) 0.0941(3)
H14 H 0.7647 0.3976 0.0841
C21 C 0.7951(5) 0.4215(9) 0.1243(3)
C22 C 0.8390(5) 0.4319(9) 0.1371(3)
H15 H 0.8419 0.4496 0.1566
C23 C 0.8781(5) 0.4154(11) 0.1202(3)
H16 H 0.9073 0.4188 0.1291
C24 C 0.7513(5) 0.4332(8) 0.1409(3)
C25 C 0.6750(5) 0.4381(8) 0.1446(3)
C26 C 0.7185(5) 0.4675(8) 0.1851(3)
C27 C 0.6276(5) 0.4243(10) 0.1324(3)
C28 C 0.6237(6) 0.4145(12) 0.1014(3)
H17 H 0.6496 0.4178 0.0891
C29 C 0.5806(6) 0.4002(12) 0.0912(4)
H18 H 0.5776 0.3940 0.0711
C30 C 0.5458(6) 0.4032(13) 0.1341(4)
H19 H 0.5188 0.3988 0.1453
C31 C 0.5877(6) 0.4192(12) 0.1481(3)
H20 H 0.5885 0.4263 0.1683
C32 C 0.7216(5) 0.4958(8) 0.2156(3)
C33 C 0.6842(5) 0.5243(11) 0.2315(3)
H21 H 0.6545 0.5255 0.2233
C34 C 0.6907(6) 0.5509(13) 0.2596(3)
H22 H 0.6643 0.5644 0.2706
C35 C 0.7691(5) 0.5278(10) 0.2573(3)
H23 H 0.7980 0.5255 0.2665
C36 C 0.7655(5) 0.4994(9) 0.2289(3)
H24 H 0.7920 0.4826 0.2184
I1 I 0.49752(4) 0.56108(14) 0.59699(3)
I2 I 0.57068(7) 0.82079(11) 0.55890(4)
I5 I 0.70253(6) 0.79559(9) 0.30485(3)
N1 N 0.5722(5) 0.5746(9) 0.5319(3)
N2 N 0.5897(4) 0.3210(8) 0.4524(3)
N3 N 0.6223(5) 0.3161(8) 0.4046(3)
N4 N 0.6227(4) 0.4599(8) 0.4324(2)
N6 N 0.6974(5) 0.5550(9) 0.3397(2)
N7 N 0.8761(4) 0.3951(8) 0.0924(2)
N8 N 0.7129(4) 0.4221(8) 0.1287(2)
N9 N 0.6755(4) 0.4581(7) 0.1740(2)
N10 N 0.7576(4) 0.4550(7) 0.1700(2)
N11 N 0.5425(4) 0.3940(8) 0.1061(3)
N12 N 0.7317(4) 0.5591(8) 0.2725(2)
Zn1 Zn 0.56322(7) 0.64195(15) 0.56957(4)
Zn3 Zn 0.74017(7) 0.63191(13) 0.31123(3)
I6 I 0.82392(6) 0.62580(14) 0.32787(4)
N13 N 0.6239(4) 0.6049(8) 0.5924(2)
Zn4 Zn 0.93678(7) 0.35805(15) 0.06957(4)
Zn5 Zn 0.47902(7) 0.35736(13) 0.08700(5)
I3 I 0.56694(6) 0.76754(13) 0.37467(5)
I4 I 0.50432(6) 0.78735(12) 0.46319(4)
N5 N 0.5527(4) 0.9899(9) 0.4191(3)
Zn2 Zn 0.52098(7) 0.85736(13) 0.41300(5)
N14 N 0.4575(4) 0.8940(8) 0.3939(3)
I3_2 I 0.93306(6) 0.23246(13) 0.87467(5)
I4_2 I 0.99568(6) 0.21265(12) 0.96319(4)
N5_2 N 0.9473(4) 0.0101(9) 0.9191(3)
Zn2_2 Zn 0.97902(7) 0.14264(13) 0.91300(5)
C1_2 C 0.9425(7) 0.5200(12) 0.0283(3)
H1_2 H 0.9623 0.5460 0.0422
C2_2 C 0.9287(6) 0.5787(13) 0.0044(3)
H2_2 H 0.9329 0.6446 0.0047
C5_2 C 0.9091(7) 0.3877(13) 0.0065(3)
H4_2 H 0.9010 0.3233 0.0066
I2_2 I 0.92932(7) 0.17921(11) 0.05890(4)
N1_2 N 0.9278(5) 0.4254(9) 0.0319(3)
C3_2 C 0.9080(5) 0.5309(11) 0.9799(3)
C4_2 C 0.9019(8) 0.4355(12) 0.9827(3)
H3_2 H 0.8919 0.4016 0.9664
C6_2 C 0.9000(5) 0.5873(11) 0.9539(3)
C7_2 C 0.8993(5) 0.7249(10) 0.9290(3)
C8_2 C 0.8685(5) 0.5928(10) 0.9080(3)
C9_2 C 0.9145(5) 0.8237(10) 0.9247(3)
C10_2 C 0.9430(6) 0.8711(12) 0.9467(4)
H5_2 H 0.9508 0.8375 0.9635
C11_2 C 0.9572(6) 0.9538(11) 0.9440(4)
H6_2 H 0.9751 0.9802 0.9589
C12_2 C 0.9264(9) 0.9628(14) 0.8970(4)
H7_2 H 0.9256 0.9915 0.8787
C13_2 C 0.9071(8) 0.8773(12) 0.9001(4)
H8_2 H 0.8882 0.8532 0.8854
C14_2 C 0.8465(5) 0.5411(9) 0.8842(3)
C15_2 C 0.8238(7) 0.5914(12) 0.8612(4)
H9_2 H 0.8236 0.6578 0.8602
C16_2 C 0.8023(7) 0.5357(11) 0.8404(3)
H10_2 H 0.7861 0.5672 0.8257
C17_2 C 0.8237(6) 0.3994(11) 0.8604(3)
H11_2 H 0.8229 0.3329 0.8604
C18_2 C 0.8468(7) 0.4444(11) 0.8822(3)
H12_2 H 0.8631 0.4086 0.8960
C19_2 C 0.6650(6) 0.6153(12) 0.5804(3)
H13_2 H 0.6659 0.6350 0.5611
C20_2 C 0.7071(5) 0.5995(10) 0.5941(3)
H14_2 H 0.7353 0.6024 0.5841
C21_2 C 0.7049(5) 0.5785(9) 0.6243(3)
C22_2 C 0.6610(5) 0.5681(9) 0.6371(3)
H15_2 H 0.6581 0.5504 0.6566
C23_2 C 0.6219(5) 0.5846(11) 0.6202(3)
H16_2 H 0.5927 0.5812 0.6291
C24_2 C 0.7487(5) 0.5668(8) 0.6409(3)
C25_2 C 0.8250(5) 0.5619(8) 0.6446(3)
C26_2 C 0.7815(5) 0.5325(8) 0.6851(3)
C27_2 C 0.8724(5) 0.5757(10) 0.6324(3)
C28_2 C 0.8763(6) 0.5855(12) 0.6014(3)
H17_2 H 0.8504 0.5822 0.5891
C29_2 C 0.9194(6) 0.5998(12) 0.5912(4)
H18_2 H 0.9224 0.6060 0.5711
C30_2 C 0.9542(6) 0.5968(13) 0.6341(4)
H19_2 H 0.9812 0.6012 0.6453
C31_2 C 0.9123(6) 0.5808(12) 0.6481(3)
H20_2 H 0.9115 0.5737 0.6683
C32_2 C 0.7784(5) 0.5042(8) 0.7156(3)
C33_2 C 0.8158(5) 0.4757(11) 0.7315(3)
H21_2 H 0.8455 0.4745 0.7233
C34_2 C 0.8093(6) 0.4491(13) 0.7596(3)
H22_2 H 0.8357 0.4356 0.7706
C35_2 C 0.7309(5) 0.4722(10) 0.7573(3)
H23_2 H 0.7020 0.4745 0.7665
C36_2 C 0.7345(5) 0.5006(9) 0.7289(3)
H24_2 H 0.7080 0.5174 0.7184
I5_2 I 0.79747(6) 0.20441(9) 0.80485(3)
N2_2 N 0.9103(4) 0.6790(8) 0.9524(3)
N3_2 N 0.8777(5) 0.6839(8) 0.9046(3)
N4_2 N 0.8773(4) 0.5401(8) 0.9324(2)
N6_2 N 0.8026(5) 0.4450(9) 0.8397(2)
N8_2 N 0.7871(4) 0.5779(8) 0.6287(2)
N9_2 N 0.8245(4) 0.5419(7) 0.6740(2)
N10_2 N 0.7424(4) 0.5450(7) 0.6700(2)
N11_2 N 0.9575(4) 0.6060(8) 0.6061(3)
N12_2 N 0.7683(4) 0.4409(8) 0.7725(2)
Zn3_2 Zn 0.75983(7) 0.36809(13) 0.81123(3)
I6_2 I 0.67608(6) 0.37420(14) 0.82787(4)
C3_3 C 0.4080(5) 0.9691(11) 0.0201(3)
C6_3 C 0.4000(5) 0.9127(11) 0.0461(3)
C7_3 C 0.3993(5) 0.7751(10) 0.0710(3)
C8_3 C 0.3685(5) 0.9072(10) 0.0920(3)
C9_3 C 0.4145(5) 0.6763(10) 0.0753(3)
C10_3 C 0.4430(6) 0.6289(12) 0.0533(4)
H5_3 H 0.4508 0.6625 0.0365
C11_3 C 0.4572(6) 0.5462(11) 0.0560(4)
H6_3 H 0.4751 0.5198 0.0411
C12_3 C 0.4264(9) 0.5372(14) 0.1030(4)
H7_3 H 0.4256 0.5085 0.1213
C13_3 C 0.4071(8) 0.6227(12) 0.0999(4)
H8_3 H 0.3882 0.6468 0.1146
C14_3 C 0.3465(5) 0.9589(9) 0.1158(3)
C15_3 C 0.3238(7) 0.9086(12) 0.1388(4)
H9_3 H 0.3236 0.8422 0.1398
C16_3 C 0.3023(7) 0.9643(11) 0.1596(3)
H10_3 H 0.2861 0.9328 0.1743
C19_3 C 0.1650(6) 0.8847(12) 0.4196(3)
H13_3 H 0.1659 0.8650 0.4389
C20_3 C 0.2071(5) 0.9005(10) 0.4059(3)
H14_3 H 0.2353 0.8976 0.4159
C21_3 C 0.2049(5) 0.9215(9) 0.3757(3)
C22_3 C 0.1610(5) 0.9319(9) 0.3629(3)
H15_3 H 0.1581 0.9496 0.3434
C23_3 C 0.1219(5) 0.9154(11) 0.3798(3)
H16_3 H 0.0927 0.9188 0.3709
C24_3 C 0.2487(5) 0.9332(8) 0.3591(3)
C25_3 C 0.3250(5) 0.9381(8) 0.3554(3)
C26_3 C 0.2815(5) 0.9675(8) 0.3149(3)
C27_3 C 0.3724(5) 0.9243(10) 0.3676(3)
C28_3 C 0.3763(6) 0.9145(12) 0.3986(3)
H17_3 H 0.3504 0.9178 0.4109
C29_3 C 0.4194(6) 0.9002(12) 0.4088(4)
H18_3 H 0.4224 0.8940 0.4289
C30_3 C 0.4542(6) 0.9032(13) 0.3659(4)
H19_3 H 0.4812 0.8988 0.3547
C31_3 C 0.4123(6) 0.9192(12) 0.3519(3)
H20_3 H 0.4115 0.9263 0.3317
C32_3 C 0.2784(5) 0.9958(8) 0.2844(3)
C36_3 C 0.2345(5) 0.9994(9) 0.2711(3)
H24_3 H 0.2080 0.9826 0.2816
I3_3 I 0.43306(6) 0.26754(13) 0.12533(5)
I4_3 I 0.49568(6) 0.28735(12) 0.03681(4)
N2_3 N 0.4103(4) 0.8210(8) 0.0476(3)
N3_3 N 0.3777(5) 0.8161(8) 0.0954(3)
N4_3 N 0.3773(4) 0.9599(8) 0.0676(2)
N5_3 N 0.4473(4) 0.4899(9) 0.0809(3)
N7_2 N 0.1239(4) 0.8951(8) 0.4076(2)
N8_3 N 0.2871(4) 0.9221(8) 0.3713(2)
N9_3 N 0.3245(4) 0.9581(7) 0.3260(2)
N10_3 N 0.2424(4) 0.9550(7) 0.3300(2)
Zn4_2 Zn 0.06322(7) 0.85805(15) 0.43043(4)
C4_3 C 0.0981(8) 0.9355(12) 0.5173(3)
H3_3 H 0.1081 0.9016 0.5336
C5_3 C 0.0909(7) 0.8877(13) 0.4935(3)
H4_3 H 0.0990 0.8233 0.4934
C17_3 C 0.1763(6) 0.8994(11) 0.6396(3)
H11_3 H 0.1771 0.8329 0.6396
C18_3 C 0.1532(7) 0.9444(11) 0.6178(3)
H12_3 H 0.1369 0.9086 0.6040
C33_3 C 0.1842(5) 0.9757(11) 0.7685(3)
H21_3 H 0.1545 0.9745 0.7767
C34_3 C 0.1907(6) 0.9491(13) 0.7404(3)
H22_3 H 0.1643 0.9356 0.7294
C35_3 C 0.2691(5) 0.9722(10) 0.7427(3)
H23_3 H 0.2980 0.9745 0.7335
I2_3 I 0.07068(7) 0.67921(11) 0.44110(4)
I5_3 I 0.20253(6) 0.70441(9) 0.69515(3)
N1_3 N 0.0722(5) 0.9254(9) 0.4681(3)
N6_3 N 0.1974(5) 0.9450(9) 0.6603(2)
N12_3 N 0.2317(4) 0.9409(8) 0.7275(2)
Zn3_3 Zn 0.24017(7) 0.86809(13) 0.68877(3)
I6_3 I 0.32392(6) 0.87420(14) 0.67213(4)
N14_2 N 0.0425(4) 0.1060(8) 0.8939(3)
Zn5_2 Zn 0.02098(7) 0.64264(13) 0.58700(5)
C5_4 C 0.4091(7) 0.1123(13) 0.9935(3)
H4_4 H 0.4010 0.1767 0.9934
I1_2 I 0.50248(4) 0.06108(14) 0.90301(3)
I2_4 I 0.42932(7) 0.32079(11) 0.94110(4)
N1_4 N 0.4278(5) 0.0746(9) 0.9681(3)
Zn1_2 Zn 0.43678(7) 0.14195(15) 0.93043(4)
N13_2 N 0.3761(4) 0.1049(8) 0.9076(2)
C1_3 C 0.0575(7) 0.0200(12) 0.4717(3)
H1_3 H 0.0377 0.0460 0.4578
C2_3 C 0.0713(6) 0.0787(13) 0.4956(3)
H2_3 H 0.0671 0.1446 0.4953
C3_4 C 0.0920(5) 0.0309(11) 0.5201(3)
C6_4 C 0.1000(5) 0.0873(11) 0.5461(3)
C7_4 C 0.1007(5) 0.2249(10) 0.5710(3)
C8_4 C 0.1315(5) 0.0928(10) 0.5920(3)
C9_4 C 0.0855(5) 0.3237(10) 0.5753(3)
C10_4 C 0.0570(6) 0.3711(12) 0.5533(4)
H5_4 H 0.0492 0.3375 0.5365
C11_4 C 0.0428(6) 0.4538(11) 0.5560(4)
H6_4 H 0.0249 0.4802 0.5411
C12_4 C 0.0736(9) 0.4628(14) 0.6030(4)
H7_4 H 0.0744 0.4915 0.6213
C13_4 C 0.0929(8) 0.3773(12) 0.5999(4)
H8_4 H 0.1118 0.3532 0.6146
C14_4 C 0.1535(5) 0.0411(9) 0.6158(3)
C15_4 C 0.1762(7) 0.0914(12) 0.6388(4)
H9_4 H 0.1764 0.1578 0.6398
C16_4 C 0.1977(7) 0.0357(11) 0.6596(3)
H10_4 H 0.2139 0.0672 0.6743
C19_4 C 0.3350(6) 0.1153(12) 0.9196(3)
H13_4 H 0.3341 0.1350 0.9389
C20_4 C 0.2929(5) 0.0995(10) 0.9059(3)
H14_4 H 0.2647 0.1024 0.9159
C21_4 C 0.2951(5) 0.0785(9) 0.8757(3)
C22_4 C 0.3390(5) 0.0681(9) 0.8629(3)
H15_4 H 0.3419 0.0504 0.8434
C23_4 C 0.3781(5) 0.0846(11) 0.8798(3)
H16_4 H 0.4073 0.0812 0.8709
C24_4 C 0.2513(5) 0.0668(8) 0.8591(3)
C25_4 C 0.1750(5) 0.0619(8) 0.8554(3)
C26_4 C 0.2185(5) 0.0325(8) 0.8149(3)
C27_4 C 0.1276(5) 0.0757(10) 0.8676(3)
C28_4 C 0.1237(6) 0.0855(12) 0.8986(3)
H17_4 H 0.1496 0.0822 0.9109
C29_4 C 0.0806(6) 0.0998(12) 0.9088(4)
H18_4 H 0.0776 0.1060 0.9289
C30_4 C 0.0458(6) 0.0968(13) 0.8659(4)
H19_4 H 0.0188 0.1012 0.8547
C31_4 C 0.0877(6) 0.0808(12) 0.8519(3)
H20_4 H 0.0885 0.0737 0.8317
C32_4 C 0.2216(5) 0.0042(8) 0.7844(3)
C36_4 C 0.2655(5) 0.0006(9) 0.7711(3)
H24_4 H 0.2920 0.0174 0.7816
I3_4 I 0.06694(6) 0.73246(13) 0.62533(5)
I4_4 I 0.00432(6) 0.71265(12) 0.53681(4)
N2_4 N 0.0897(4) 0.1790(8) 0.5476(3)
N3_4 N 0.1223(5) 0.1839(8) 0.5954(3)
N4_4 N 0.1227(4) 0.0401(8) 0.5676(2)
N5_4 N 0.0527(4) 0.5101(9) 0.5809(3)
N8_4 N 0.2129(4) 0.0779(8) 0.8713(2)
N9_4 N 0.1755(4) 0.0419(7) 0.8260(2)
N10_4 N 0.2576(4) 0.0450(7) 0.8300(2)
I1_3 I 0.00248(4) 0.43892(14) 0.09699(3)
C4_4 C 0.4019(8) 0.0645(12) 0.0173(3)
H3_4 H 0.3919 0.0984 0.0336
C17_4 C 0.3237(6) 0.1006(11) 0.1396(3)
H11_4 H 0.3229 0.1671 0.1396
C18_4 C 0.3468(7) 0.0556(11) 0.1178(3)
H12_4 H 0.3631 0.0914 0.1040
C33_4 C 0.3158(5) 0.0243(11) 0.2685(3)
H21_4 H 0.3455 0.0255 0.2767
C34_4 C 0.3093(6) 0.0509(13) 0.2404(3)
H22_4 H 0.3357 0.0644 0.2294
C35_4 C 0.2309(5) 0.0278(10) 0.2427(3)
H23_4 H 0.2020 0.0255 0.2335
I5_4 I 0.29747(6) 0.29559(9) 0.19515(3)
N6_4 N 0.3026(5) 0.0550(9) 0.1603(2)
N12_4 N 0.2683(4) 0.0591(8) 0.2275(2)
Zn3_4 Zn 0.25983(7) 0.13191(13) 0.18877(3)
I6_4 I 0.17608(6) 0.12580(14) 0.17213(4)
C1_4 C 0.4425(7) 0.9800(12) 0.9717(3)
H1_4 H 0.4623 0.9540 0.9578
C2_4 C 0.4287(6) 0.9213(13) 0.9956(3)
H2_4 H 0.4329 0.8554 0.9953
I1_4 I 0.99752(4) 0.93892(14) 0.40301(3)
I3_5 I 0.43306(6) 0.23246(13) 0.62533(5)
I4_5 I 0.49568(6) 0.21265(12) 0.53681(4)
N5_5 N 0.4473(4) 0.0101(9) 0.5809(3)
Zn2_3 Zn 0.47902(7) 0.14264(13) 0.58700(5)
N14_3 N 0.5425(4) 0.1060(8) 0.6061(3)
C1_5 C 0.4425(7) 0.5200(12) 0.4717(3)
H1_5 H 0.4623 0.5460 0.4578
C2_5 C 0.4287(6) 0.5787(13) 0.4956(3)
H2_5 H 0.4329 0.6446 0.4953
C3_5 C 0.4080(5) 0.5309(11) 0.5201(3)
C4_5 C 0.4019(8) 0.4355(12) 0.5173(3)
H3_5 H 0.3919 0.4016 0.5336
C5_5 C 0.4091(7) 0.3877(13) 0.4935(3)
H4_5 H 0.4010 0.3233 0.4934
C6_5 C 0.4000(5) 0.5873(11) 0.5461(3)
C7_5 C 0.3993(5) 0.7249(10) 0.5710(3)
C8_5 C 0.3685(5) 0.5928(10) 0.5920(3)
C9_5 C 0.4145(5) 0.8237(10) 0.5753(3)
C10_5 C 0.4430(6) 0.8711(12) 0.5533(4)
H5_5 H 0.4508 0.8375 0.5365
C11_5 C 0.4572(6) 0.9538(11) 0.5560(4)
H6_5 H 0.4751 0.9802 0.5411
C12_5 C 0.4264(9) 0.9628(14) 0.6030(4)
H7_5 H 0.4256 0.9915 0.6213
C13_5 C 0.4071(8) 0.8773(12) 0.5999(4)
H8_5 H 0.3882 0.8532 0.6146
C14_5 C 0.3465(5) 0.5411(9) 0.6158(3)
C15_5 C 0.3238(7) 0.5914(12) 0.6388(4)
H9_5 H 0.3236 0.6578 0.6398
C16_5 C 0.3023(7) 0.5357(11) 0.6596(3)
H10_5 H 0.2861 0.5672 0.6743
C17_5 C 0.3237(6) 0.3994(11) 0.6396(3)
H11_5 H 0.3229 0.3329 0.6396
C18_5 C 0.3468(7) 0.4444(11) 0.6178(3)
H12_5 H 0.3631 0.4086 0.6040
C19_5 C 0.1650(6) 0.6153(12) 0.9196(3)
H13_5 H 0.1659 0.6350 0.9389
C20_5 C 0.2071(5) 0.5995(10) 0.9059(3)
H14_5 H 0.2353 0.6024 0.9159
C21_5 C 0.2049(5) 0.5785(9) 0.8757(3)
C22_5 C 0.1610(5) 0.5681(9) 0.8629(3)
H15_5 H 0.1581 0.5504 0.8434
C23_5 C 0.1219(5) 0.5846(11) 0.8798(3)
H16_5 H 0.0927 0.5812 0.8709
C24_5 C 0.2487(5) 0.5668(8) 0.8591(3)
C25_5 C 0.3250(5) 0.5619(8) 0.8554(3)
C26_5 C 0.2815(5) 0.5325(8) 0.8149(3)
C27_5 C 0.3724(5) 0.5757(10) 0.8676(3)
C28_5 C 0.3763(6) 0.5855(12) 0.8986(3)
H17_5 H 0.3504 0.5822 0.9109
C29_5 C 0.4194(6) 0.5998(12) 0.9088(4)
H18_5 H 0.4224 0.6060 0.9289
C30_5 C 0.4542(6) 0.5968(13) 0.8659(4)
H19_5 H 0.4812 0.6012 0.8547
C31_5 C 0.4123(6) 0.5808(12) 0.8519(3)
H20_5 H 0.4115 0.5737 0.8317
C32_5 C 0.2784(5) 0.5042(8) 0.7844(3)
C33_5 C 0.3158(5) 0.4757(11) 0.7685(3)
H21_5 H 0.3455 0.4745 0.7767
C34_5 C 0.3093(6) 0.4491(13) 0.7404(3)
H22_5 H 0.3357 0.4356 0.7294
C35_5 C 0.2309(5) 0.4722(10) 0.7427(3)
H23_5 H 0.2020 0.4745 0.7335
C36_5 C 0.2345(5) 0.5006(9) 0.7711(3)
H24_5 H 0.2080 0.5174 0.7816
I1_5 I 0.50248(4) 0.43892(14) 0.40301(3)
I2_5 I 0.42932(7) 0.17921(11) 0.44110(4)
I5_5 I 0.29747(6) 0.20441(9) 0.69515(3)
N1_5 N 0.4278(5) 0.4254(9) 0.4681(3)
N2_5 N 0.4103(4) 0.6790(8) 0.5476(3)
N3_5 N 0.3777(5) 0.6839(8) 0.5954(3)
N4_5 N 0.3773(4) 0.5401(8) 0.5676(2)
N6_5 N 0.3026(5) 0.4450(9) 0.6603(2)
N7_3 N 0.1239(4) 0.6049(8) 0.9076(2)
N8_5 N 0.2871(4) 0.5779(8) 0.8713(2)
N9_5 N 0.3245(4) 0.5419(7) 0.8260(2)
N10_5 N 0.2424(4) 0.5450(7) 0.8300(2)
N11_3 N 0.4575(4) 0.6060(8) 0.8939(3)
N12_5 N 0.2683(4) 0.4409(8) 0.7275(2)
Zn1_3 Zn 0.43678(7) 0.35805(15) 0.43043(4)
Zn3_5 Zn 0.25983(7) 0.36809(13) 0.68877(3)
I6_5 I 0.17608(6) 0.37420(14) 0.67213(4)
N13_3 N 0.3761(4) 0.3951(8) 0.4076(2)
Zn4_3 Zn 0.06322(7) 0.64195(15) 0.93043(4)
Zn5_3 Zn 0.52098(7) 0.64264(13) 0.91300(5)
C3_6 C 0.0920(5) 0.4691(11) 0.0201(3)
C4_6 C 0.0981(8) 0.5645(12) 0.0173(3)
H3_6 H 0.1081 0.5984 0.0336
C6_6 C 0.1000(5) 0.4127(11) 0.0461(3)
C7_6 C 0.1007(5) 0.2751(10) 0.0710(3)
C8_6 C 0.1315(5) 0.4072(10) 0.0920(3)
C9_6 C 0.0855(5) 0.1763(10) 0.0753(3)
C10_6 C 0.0570(6) 0.1289(12) 0.0533(4)
H5_6 H 0.0492 0.1625 0.0365
C11_6 C 0.0428(6) 0.0462(11) 0.0560(4)
H6_6 H 0.0249 0.0198 0.0411
C12_6 C 0.0736(9) 0.0372(14) 0.1030(4)
H7_6 H 0.0744 0.0085 0.1213
C13_6 C 0.0929(8) 0.1227(12) 0.0999(4)
H8_6 H 0.1118 0.1468 0.1146
C14_6 C 0.1535(5) 0.4589(9) 0.1158(3)
C15_6 C 0.1762(7) 0.4086(12) 0.1388(4)
H9_6 H 0.1764 0.3422 0.1398
C16_6 C 0.1977(7) 0.4643(11) 0.1596(3)
H10_6 H 0.2139 0.4328 0.1743
C17_6 C 0.1763(6) 0.6006(11) 0.1396(3)
H11_6 H 0.1771 0.6671 0.1396
C18_6 C 0.1532(7) 0.5556(11) 0.1178(3)
H12_6 H 0.1369 0.5914 0.1040
C19_6 C 0.3350(6) 0.3847(12) 0.4196(3)
H13_6 H 0.3341 0.3650 0.4389
C20_6 C 0.2929(5) 0.4005(10) 0.4059(3)
H14_6 H 0.2647 0.3976 0.4159
C21_6 C 0.2951(5) 0.4215(9) 0.3757(3)
C22_6 C 0.3390(5) 0.4319(9) 0.3629(3)
H15_6 H 0.3419 0.4496 0.3434
C23_6 C 0.3781(5) 0.4154(11) 0.3798(3)
H16_6 H 0.4073 0.4188 0.3709
C24_6 C 0.2513(5) 0.4332(8) 0.3591(3)
C25_6 C 0.1750(5) 0.4381(8) 0.3554(3)
C26_6 C 0.2185(5) 0.4675(8) 0.3149(3)
C27_6 C 0.1276(5) 0.4243(10) 0.3676(3)
C28_6 C 0.1237(6) 0.4145(12) 0.3986(3)
H17_6 H 0.1496 0.4178 0.4109
C29_6 C 0.0806(6) 0.4002(12) 0.4088(4)
H18_6 H 0.0776 0.3940 0.4289
C30_6 C 0.0458(6) 0.4032(13) 0.3659(4)
H19_6 H 0.0188 0.3988 0.3547
C31_6 C 0.0877(6) 0.4192(12) 0.3519(3)
H20_6 H 0.0885 0.4263 0.3317
C32_6 C 0.2216(5) 0.4958(8) 0.2844(3)
C33_6 C 0.1842(5) 0.5243(11) 0.2685(3)
H21_6 H 0.1545 0.5255 0.2767
C34_6 C 0.1907(6) 0.5509(13) 0.2404(3)
H22_6 H 0.1643 0.5644 0.2294
C35_6 C 0.2691(5) 0.5278(10) 0.2427(3)
H23_6 H 0.2980 0.5255 0.2335
C36_6 C 0.2655(5) 0.4994(9) 0.2711(3)
H24_6 H 0.2920 0.4826 0.2816
I5_6 I 0.20253(6) 0.79559(9) 0.19515(3)
N2_6 N 0.0897(4) 0.3210(8) 0.0476(3)
N3_6 N 0.1223(5) 0.3161(8) 0.0954(3)
N4_6 N 0.1227(4) 0.4599(8) 0.0676(2)
N6_6 N 0.1974(5) 0.5550(9) 0.1603(2)
N8_6 N 0.2129(4) 0.4221(8) 0.3713(2)
N9_6 N 0.1755(4) 0.4581(7) 0.3260(2)
N10_6 N 0.2576(4) 0.4550(7) 0.3300(2)
N11_4 N 0.0425(4) 0.3940(8) 0.3939(3)
N12_6 N 0.2317(4) 0.5591(8) 0.2275(2)
Zn3_6 Zn 0.24017(7) 0.63191(13) 0.18877(3)
I6_6 I 0.32392(6) 0.62580(14) 0.17213(4)
C1_6 C 0.0575(7) 0.4800(12) 0.9717(3)
H1_6 H 0.0377 0.4540 0.9578
C2_6 C 0.0713(6) 0.4213(13) 0.9956(3)
H2_6 H 0.0671 0.3554 0.9953
C5_6 C 0.0909(7) 0.6123(13) 0.9935(3)
H4_6 H 0.0990 0.6767 0.9934
I2_6 I 0.07068(7) 0.82079(11) 0.94110(4)
N1_6 N 0.0722(5) 0.5746(9) 0.9681(3)
I3_6 I 0.06694(6) 0.76754(13) 0.12533(5)
I4_6 I 0.00432(6) 0.78735(12) 0.03681(4)
N5_6 N 0.0527(4) 0.9899(9) 0.0809(3)
Zn2_4 Zn 0.02098(7) 0.85736(13) 0.08700(5)
C3_7 C 0.5920(5) 0.0309(11) 0.9799(3)
C6_7 C 0.6000(5) 0.0873(11) 0.9539(3)
C7_7 C 0.6007(5) 0.2249(10) 0.9290(3)
C8_7 C 0.6315(5) 0.0928(10) 0.9080(3)
C9_7 C 0.5855(5) 0.3237(10) 0.9247(3)
C10_7 C 0.5570(6) 0.3711(12) 0.9467(4)
H5_7 H 0.5492 0.3375 0.9635
C11_7 C 0.5428(6) 0.4538(11) 0.9440(4)
H6_7 H 0.5249 0.4802 0.9589
C12_7 C 0.5736(9) 0.4628(14) 0.8970(4)
H7_7 H 0.5744 0.4915 0.8787
C13_7 C 0.5929(8) 0.3773(12) 0.9001(4)
H8_7 H 0.6118 0.3532 0.8854
C14_7 C 0.6535(5) 0.0411(9) 0.8842(3)
C15_7 C 0.6762(7) 0.0914(12) 0.8612(4)
H9_7 H 0.6764 0.1578 0.8602
C16_7 C 0.6977(7) 0.0357(11) 0.8404(3)
H10_7 H 0.7139 0.0672 0.8257
C19_7 C 0.8350(6) 0.1153(12) 0.5804(3)
H13_7 H 0.8341 0.1350 0.5611
C20_7 C 0.7929(5) 0.0995(10) 0.5941(3)
H14_7 H 0.7647 0.1024 0.5841
C21_7 C 0.7951(5) 0.0785(9) 0.6243(3)
C22_7 C 0.8390(5) 0.0681(9) 0.6371(3)
H15_7 H 0.8419 0.0504 0.6566
C23_7 C 0.8781(5) 0.0846(11) 0.6202(3)
H16_7 H 0.9073 0.0812 0.6291
C24_7 C 0.7513(5) 0.0668(8) 0.6409(3)
C25_7 C 0.6750(5) 0.0619(8) 0.6446(3)
C26_7 C 0.7185(5) 0.0325(8) 0.6851(3)
C27_7 C 0.6276(5) 0.0757(10) 0.6324(3)
C28_7 C 0.6237(6) 0.0855(12) 0.6014(3)
H17_7 H 0.6496 0.0822 0.5891
C29_7 C 0.5806(6) 0.0998(12) 0.5912(4)
H18_7 H 0.5776 0.1060 0.5711
C30_7 C 0.5458(6) 0.0968(13) 0.6341(4)
H19_7 H 0.5188 0.1012 0.6453
C31_7 C 0.5877(6) 0.0808(12) 0.6481(3)
H20_7 H 0.5885 0.0737 0.6683
C32_7 C 0.7216(5) 0.0042(8) 0.7156(3)
C36_7 C 0.7655(5) 0.0006(9) 0.7289(3)
H24_7 H 0.7920 0.0174 0.7184
I3_7 I 0.56694(6) 0.73246(13) 0.87467(5)
I4_7 I 0.50432(6) 0.71265(12) 0.96319(4)
N2_7 N 0.5897(4) 0.1790(8) 0.9524(3)
N3_7 N 0.6223(5) 0.1839(8) 0.9046(3)
N4_7 N 0.6227(4) 0.0401(8) 0.9324(2)
N5_7 N 0.5527(4) 0.5101(9) 0.9191(3)
N7_4 N 0.8761(4) 0.1049(8) 0.5924(2)
N8_7 N 0.7129(4) 0.0779(8) 0.6287(2)
N9_7 N 0.6755(4) 0.0419(7) 0.6740(2)
N10_7 N 0.7576(4) 0.0450(7) 0.6700(2)
Zn4_4 Zn 0.93678(7) 0.14195(15) 0.56957(4)
C4_7 C 0.9019(8) 0.0645(12) 0.4827(3)
H3_7 H 0.8919 0.0984 0.4664
C5_7 C 0.9091(7) 0.1123(13) 0.5065(3)
H4_7 H 0.9010 0.1767 0.5066
C17_7 C 0.8237(6) 0.1006(11) 0.3604(3)
H11_7 H 0.8229 0.1671 0.3604
C18_7 C 0.8468(7) 0.0556(11) 0.3822(3)
H12_7 H 0.8631 0.0914 0.3960
C33_7 C 0.8158(5) 0.0243(11) 0.2315(3)
H21_7 H 0.8455 0.0255 0.2233
C34_7 C 0.8093(6) 0.0509(13) 0.2596(3)
H22_7 H 0.8357 0.0644 0.2706
C35_7 C 0.7309(5) 0.0278(10) 0.2573(3)
H23_7 H 0.7020 0.0255 0.2665
I2_7 I 0.92932(7) 0.32079(11) 0.55890(4)
I5_7 I 0.79747(6) 0.29559(9) 0.30485(3)
N1_7 N 0.9278(5) 0.0746(9) 0.5319(3)
N6_7 N 0.8026(5) 0.0550(9) 0.3397(2)
N12_7 N 0.7683(4) 0.0591(8) 0.2725(2)
Zn3_7 Zn 0.75983(7) 0.13191(13) 0.31123(3)
I6_7 I 0.67608(6) 0.12580(14) 0.32787(4)
Zn5_4 Zn 0.97902(7) 0.35736(13) 0.41300(5)
N14_4 N 0.9575(4) 0.8940(8) 0.1061(3)
C5_8 C 0.5909(7) 0.8877(13) 0.0065(3)
H4_8 H 0.5990 0.8233 0.0066
I1_6 I 0.49752(4) 0.93892(14) 0.09699(3)
I2_8 I 0.57068(7) 0.67921(11) 0.05890(4)
N1_8 N 0.5722(5) 0.9254(9) 0.0319(3)
Zn1_4 Zn 0.56322(7) 0.85805(15) 0.06957(4)
N13_4 N 0.6239(4) 0.8951(8) 0.0924(2)
C1_7 C 0.9425(7) 0.9800(12) 0.5283(3)
H1_7 H 0.9623 0.9540 0.5422
C2_7 C 0.9287(6) 0.9213(13) 0.5044(3)
H2_7 H 0.9329 0.8554 0.5047
C3_8 C 0.9080(5) 0.9691(11) 0.4799(3)
C6_8 C 0.9000(5) 0.9127(11) 0.4539(3)
C7_8 C 0.8993(5) 0.7751(10) 0.4290(3)
C8_8 C 0.8685(5) 0.9072(10) 0.4080(3)
C9_8 C 0.9145(5) 0.6763(10) 0.4247(3)
C10_8 C 0.9430(6) 0.6289(12) 0.4467(4)
H5_8 H 0.9508 0.6625 0.4635
C11_8 C 0.9572(6) 0.5462(11) 0.4440(4)
H6_8 H 0.9751 0.5198 0.4589
C12_8 C 0.9264(9) 0.5372(14) 0.3970(4)
H7_8 H 0.9256 0.5085 0.3787
C13_8 C 0.9071(8) 0.6227(12) 0.4001(4)
H8_8 H 0.8882 0.6468 0.3854
C14_8 C 0.8465(5) 0.9589(9) 0.3842(3)
C15_8 C 0.8238(7) 0.9086(12) 0.3612(4)
H9_8 H 0.8236 0.8422 0.3602
C16_8 C 0.8023(7) 0.9643(11) 0.3404(3)
H10_8 H 0.7861 0.9328 0.3257
C19_8 C 0.6650(6) 0.8847(12) 0.0804(3)
H13_8 H 0.6659 0.8650 0.0611
C20_8 C 0.7071(5) 0.9005(10) 0.0941(3)
H14_8 H 0.7353 0.8976 0.0841
C21_8 C 0.7049(5) 0.9215(9) 0.1243(3)
C22_8 C 0.6610(5) 0.9319(9) 0.1371(3)
H15_8 H 0.6581 0.9496 0.1566
C23_8 C 0.6219(5) 0.9154(11) 0.1202(3)
H16_8 H 0.5927 0.9188 0.1291
C24_8 C 0.7487(5) 0.9332(8) 0.1409(3)
C25_8 C 0.8250(5) 0.9381(8) 0.1446(3)
C26_8 C 0.7815(5) 0.9675(8) 0.1851(3)
C27_8 C 0.8724(5) 0.9243(10) 0.1324(3)
C28_8 C 0.8763(6) 0.9145(12) 0.1014(3)
H17_8 H 0.8504 0.9178 0.0891
C29_8 C 0.9194(6) 0.9002(12) 0.0912(4)
H18_8 H 0.9224 0.8940 0.0711
C30_8 C 0.9542(6) 0.9032(13) 0.1341(4)
H19_8 H 0.9812 0.8988 0.1453
C31_8 C 0.9123(6) 0.9192(12) 0.1481(3)
H20_8 H 0.9115 0.9263 0.1683
C32_8 C 0.7784(5) 0.9958(8) 0.2156(3)
C36_8 C 0.7345(5) 0.9994(9) 0.2289(3)
H24_8 H 0.7080 0.9826 0.2184
I3_8 I 0.93306(6) 0.26754(13) 0.37467(5)
I4_8 I 0.99568(6) 0.28735(12) 0.46319(4)
N2_8 N 0.9103(4) 0.8210(8) 0.4524(3)
N3_8 N 0.8777(5) 0.8161(8) 0.4046(3)
N4_8 N 0.8773(4) 0.9599(8) 0.4324(2)
N5_8 N 0.9473(4) 0.4899(9) 0.4191(3)
N8_8 N 0.7871(4) 0.9221(8) 0.1287(2)
N9_8 N 0.8245(4) 0.9581(7) 0.1740(2)
N10_8 N 0.7424(4) 0.9550(7) 0.1700(2)
I1_7 I 0.99752(4) 0.56108(14) 0.90301(3)
C1_8 C 0.5575(7) 0.0200(12) 0.0283(3)
H1_8 H 0.5377 0.0460 0.0422
C2_8 C 0.5713(6) 0.0787(13) 0.0044(3)
H2_8 H 0.5671 0.1446 0.0047
C4_8 C 0.5981(8) 0.9355(12) 0.9827(3)
H3_8 H 0.6081 0.9016 0.9664
C17_8 C 0.6763(6) 0.8994(11) 0.8604(3)
H11_8 H 0.6771 0.8329 0.8604
C18_8 C 0.6532(7) 0.9444(11) 0.8822(3)
H12_8 H 0.6369 0.9086 0.8960
C33_8 C 0.6842(5) 0.9757(11) 0.7315(3)
H21_8 H 0.6545 0.9745 0.7233
C34_8 C 0.6907(6) 0.9491(13) 0.7596(3)
H22_8 H 0.6643 0.9356 0.7706
C35_8 C 0.7691(5) 0.9722(10) 0.7573(3)
H23_8 H 0.7980 0.9745 0.7665
I5_8 I 0.70253(6) 0.70441(9) 0.80485(3)
N6_8 N 0.6974(5) 0.9450(9) 0.8397(2)
N12_8 N 0.7317(4) 0.9409(8) 0.7725(2)
Zn3_8 Zn 0.74017(7) 0.86809(13) 0.81123(3)
I6_8 I 0.82392(6) 0.87420(14) 0.82787(4)
I1_8 I 0.00248(4) 0.06108(14) 0.59699(3)
loop_
_geom_bond_atom_site_label_1
_geom_bond_atom_site_label_2
_geom_bond_site_symmetry_1
_geom_bond_site_symmetry_2
C1 H1 1_555 1_555
C2 C1 1_555 1_555
H2 C2 1_555 1_555
C3 C2 1_555 1_555
C4 C3 1_555 1_555
H3 C4 1_555 1_555
C5 C4 1_555 1_555
H4 C5 1_555 1_555
C6 C3 1_555 1_555
C7 C9 1_555 1_555
C8 C14 1_555 1_555
C9 C10 1_555 1_555
C10 H5 1_555 1_555
C11 C10 1_555 1_555
H6 C11 1_555 1_555
C12 H7 1_555 1_555
C13 C9 1_555 1_555
H8 C13 1_555 1_555
C14 C15 1_555 1_555
C15 H9 1_555 1_555
C16 C15 1_555 1_555
H10 C16 1_555 1_555
C17 H11 1_555 1_555
C18 C14 1_555 1_555
H12 C18 1_555 1_555
C19 H13 1_555 1_555
C20 C19 1_555 1_555
H14 C20 1_555 1_555
C21 C20 1_555 1_555
C22 C21 1_555 1_555
H15 C22 1_555 1_555
C23 C22 1_555 1_555
H16 C23 1_555 1_555
C24 C21 1_555 1_555
C25 C27 1_555 1_555
C26 C32 1_555 1_555
C27 C28 1_555 1_555
C28 H17 1_555 1_555
C29 C28 1_555 1_555
H18 C29 1_555 1_555
C30 H19 1_555 1_555
C31 C27 1_555 1_555
H20 C31 1_555 1_555
C32 C33 1_555 1_555
C33 H21 1_555 1_555
C34 C33 1_555 1_555
H22 C34 1_555 1_555
C35 H23 1_555 1_555
C36 C32 1_555 1_555
H24 C36 1_555 1_555
I1 Zn1 1_555 1_555
I2 Zn1 1_555 1_555
I5 Zn3 1_555 1_555
N1 C1 1_555 1_555
N2 C6 1_555 1_555
N3 C7 1_555 1_555
N4 C6 1_555 1_555
N6 C16 1_555 1_555
N7 C19 1_555 1_555
N8 C24 1_555 1_555
N9 C25 1_555 1_555
N10 C24 1_555 1_555
N11 C29 1_555 1_555
N12 C34 1_555 1_555
Zn1 N1 1_555 1_555
Zn3 N6 1_555 1_555
I6 Zn3 1_555 1_555
N13 Zn1 1_555 1_555
Zn4 N7 1_555 1_555
Zn5 N11 1_555 1_555
C5 N1 1_555 1_555
C7 N2 1_555 1_555
C8 N3 1_555 1_555
C8 N4 1_555 1_555
C12 C13 1_555 1_555
C17 C18 1_555 1_555
C17 N6 1_555 1_555
C23 N7 1_555 1_555
C25 N8 1_555 1_555
C26 N9 1_555 1_555
C26 N10 1_555 1_555
C30 C31 1_555 1_555
C30 N11 1_555 1_555
C35 C36 1_555 1_555
C35 N12 1_555 1_555
N12 Zn3 1_555 1_555
I3 Zn2 1_555 1_555
I4 Zn2 1_555 1_555
Zn2 N5 1_555 1_555
N14 Zn2 1_555 1_555
I3_2 Zn2_2 1_555 1_555
I4_2 Zn2_2 1_555 1_555
Zn2_2 N5_2 1_555 1_555
C1_2 H1_2 1_555 1_555
C2_2 C1_2 1_555 1_555
H2_2 C2_2 1_555 1_555
H4_2 C5_2 1_555 1_555
I2_2 Zn4 1_555 1_555
N1_2 C1_2 1_555 1_555
Zn4 N1_2 1_555 1_555
C5_2 N1_2 1_555 1_555
C4_2 C3_2 1_555 1_555
H3_2 C4_2 1_555 1_555
C6_2 C3_2 1_555 1_555
C7_2 C9_2 1_555 1_555
C8_2 C14_2 1_555 1_555
C9_2 C10_2 1_555 1_555
C10_2 H5_2 1_555 1_555
C11_2 C10_2 1_555 1_555
H6_2 C11_2 1_555 1_555
C12_2 H7_2 1_555 1_555
C13_2 C9_2 1_555 1_555
H8_2 C13_2 1_555 1_555
C14_2 C15_2 1_555 1_555
C15_2 H9_2 1_555 1_555
C16_2 C15_2 1_555 1_555
H10_2 C16_2 1_555 1_555
C17_2 H11_2 1_555 1_555
C18_2 C14_2 1_555 1_555
H12_2 C18_2 1_555 1_555
C19_2 H13_2 1_555 1_555
C20_2 C19_2 1_555 1_555
H14_2 C20_2 1_555 1_555
C21_2 C20_2 1_555 1_555
C22_2 C21_2 1_555 1_555
H15_2 C22_2 1_555 1_555
C23_2 C22_2 1_555 1_555
H16_2 C23_2 1_555 1_555
C24_2 C21_2 1_555 1_555
C25_2 C27_2 1_555 1_555
C26_2 C32_2 1_555 1_555
C27_2 C28_2 1_555 1_555
C28_2 H17_2 1_555 1_555
C29_2 C28_2 1_555 1_555
H18_2 C29_2 1_555 1_555
C30_2 H19_2 1_555 1_555
C31_2 C27_2 1_555 1_555
H20_2 C31_2 1_555 1_555
C32_2 C33_2 1_555 1_555
C33_2 H21_2 1_555 1_555
C34_2 C33_2 1_555 1_555
H22_2 C34_2 1_555 1_555
C35_2 H23_2 1_555 1_555
C36_2 C32_2 1_555 1_555
H24_2 C36_2 1_555 1_555
I5_2 Zn3_2 1_555 1_555
N2_2 C6_2 1_555 1_555
N3_2 C7_2 1_555 1_555
N4_2 C6_2 1_555 1_555
N6_2 C16_2 1_555 1_555
N13 C19_2 1_555 1_555
N8_2 C24_2 1_555 1_555
N9_2 C25_2 1_555 1_555
N10_2 C24_2 1_555 1_555
N11_2 C29_2 1_555 1_555
N12_2 C34_2 1_555 1_555
Zn3_2 N6_2 1_555 1_555
I6_2 Zn3_2 1_555 1_555
C7_2 N2_2 1_555 1_555
C8_2 N3_2 1_555 1_555
C8_2 N4_2 1_555 1_555
C12_2 C13_2 1_555 1_555
C17_2 C18_2 1_555 1_555
C17_2 N6_2 1_555 1_555
C23_2 N13 1_555 1_555
C25_2 N8_2 1_555 1_555
C26_2 N9_2 1_555 1_555
C26_2 N10_2 1_555 1_555
C30_2 C31_2 1_555 1_555
C30_2 N11_2 1_555 1_555
C35_2 C36_2 1_555 1_555
C35_2 N12_2 1_555 1_555
N12_2 Zn3_2 1_555 1_555
C6_3 C3_3 1_555 1_555
C7_3 C9_3 1_555 1_555
C8_3 C14_3 1_555 1_555
C9_3 C10_3 1_555 1_555
C10_3 H5_3 1_555 1_555
C11_3 C10_3 1_555 1_555
H6_3 C11_3 1_555 1_555
C12_3 H7_3 1_555 1_555
C13_3 C9_3 1_555 1_555
H8_3 C13_3 1_555 1_555
C14_3 C15_3 1_555 1_555
C15_3 H9_3 1_555 1_555
C16_3 C15_3 1_555 1_555
H10_3 C16_3 1_555 1_555
C19_3 H13_3 1_555 1_555
C20_3 C19_3 1_555 1_555
H14_3 C20_3 1_555 1_555
C21_3 C20_3 1_555 1_555
C22_3 C21_3 1_555 1_555
H15_3 C22_3 1_555 1_555
C23_3 C22_3 1_555 1_555
H16_3 C23_3 1_555 1_555
C24_3 C21_3 1_555 1_555
C25_3 C27_3 1_555 1_555
C26_3 C32_3 1_555 1_555
C27_3 C28_3 1_555 1_555
C28_3 H17_3 1_555 1_555
C29_3 C28_3 1_555 1_555
H18_3 C29_3 1_555 1_555
C30_3 H19_3 1_555 1_555
C31_3 C27_3 1_555 1_555
H20_3 C31_3 1_555 1_555
C36_3 C32_3 1_555 1_555
H24_3 C36_3 1_555 1_555
I3_3 Zn5 1_555 1_555
I4_3 Zn5 1_555 1_555
N2_3 C6_3 1_555 1_555
N3_3 C7_3 1_555 1_555
N4_3 C6_3 1_555 1_555
N5_3 C11_3 1_555 1_555
N7_2 C19_3 1_555 1_555
N8_3 C24_3 1_555 1_555
N9_3 C25_3 1_555 1_555
N10_3 C24_3 1_555 1_555
N14 C29_3 1_555 1_555
Zn5 N5_3 1_555 1_555
Zn4_2 N7_2 1_555 1_555
C7_3 N2_3 1_555 1_555
C8_3 N3_3 1_555 1_555
C8_3 N4_3 1_555 1_555
C12_3 C13_3 1_555 1_555
C12_3 N5_3 1_555 1_555
C23_3 N7_2 1_555 1_555
C25_3 N8_3 1_555 1_555
C26_3 N9_3 1_555 1_555
C26_3 N10_3 1_555 1_555
C30_3 C31_3 1_555 1_555
C30_3 N14 1_555 1_555
H3_3 C4_3 1_555 1_555
C5_3 C4_3 1_555 1_555
H4_3 C5_3 1_555 1_555
C17_3 H11_3 1_555 1_555
H12_3 C18_3 1_555 1_555
C33_3 H21_3 1_555 1_555
C34_3 C33_3 1_555 1_555
H22_3 C34_3 1_555 1_555
C35_3 H23_3 1_555 1_555
I2_3 Zn4_2 1_555 1_555
I5_3 Zn3_3 1_555 1_555
N12_3 C34_3 1_555 1_555
Zn4_2 N1_3 1_555 1_555
Zn3_3 N6_3 1_555 1_555
I6_3 Zn3_3 1_555 1_555
C5_3 N1_3 1_555 1_555
C17_3 C18_3 1_555 1_555
C17_3 N6_3 1_555 1_555
C35_3 N12_3 1_555 1_555
N12_3 Zn3_3 1_555 1_555
H4_4 C5_4 1_555 1_555
I1_2 Zn1_2 1_555 1_555
I2_4 Zn1_2 1_555 1_555
Zn1_2 N1_4 1_555 1_555
N13_2 Zn1_2 1_555 1_555
C5_4 N1_4 1_555 1_555
C1_3 H1_3 1_555 1_555
C2_3 C1_3 1_555 1_555
H2_3 C2_3 1_555 1_555
C3_4 C2_3 1_555 1_555
C6_4 C3_4 1_555 1_555
C7_4 C9_4 1_555 1_555
C8_4 C14_4 1_555 1_555
C9_4 C10_4 1_555 1_555
C10_4 H5_4 1_555 1_555
C11_4 C10_4 1_555 1_555
H6_4 C11_4 1_555 1_555
C12_4 H7_4 1_555 1_555
C13_4 C9_4 1_555 1_555
H8_4 C13_4 1_555 1_555
C14_4 C15_4 1_555 1_555
C15_4 H9_4 1_555 1_555
C16_4 C15_4 1_555 1_555
H10_4 C16_4 1_555 1_555
C19_4 H13_4 1_555 1_555
C20_4 C19_4 1_555 1_555
H14_4 C20_4 1_555 1_555
C21_4 C20_4 1_555 1_555
C22_4 C21_4 1_555 1_555
H15_4 C22_4 1_555 1_555
C23_4 C22_4 1_555 1_555
H16_4 C23_4 1_555 1_555
C24_4 C21_4 1_555 1_555
C25_4 C27_4 1_555 1_555
C26_4 C32_4 1_555 1_555
C27_4 C28_4 1_555 1_555
C28_4 H17_4 1_555 1_555
C29_4 C28_4 1_555 1_555
H18_4 C29_4 1_555 1_555
C30_4 H19_4 1_555 1_555
C31_4 C27_4 1_555 1_555
H20_4 C31_4 1_555 1_555
C36_4 C32_4 1_555 1_555
H24_4 C36_4 1_555 1_555
I3_4 Zn5_2 1_555 1_555
I4_4 Zn5_2 1_555 1_555
N2_4 C6_4 1_555 1_555
N3_4 C7_4 1_555 1_555
N4_4 C6_4 1_555 1_555
N5_4 C11_4 1_555 1_555
N13_2 C19_4 1_555 1_555
N8_4 C24_4 1_555 1_555
N9_4 C25_4 1_555 1_555
N10_4 C24_4 1_555 1_555
N14_2 C29_4 1_555 1_555
Zn5_2 N5_4 1_555 1_555
C7_4 N2_4 1_555 1_555
C8_4 N3_4 1_555 1_555
C8_4 N4_4 1_555 1_555
C12_4 C13_4 1_555 1_555
C12_4 N5_4 1_555 1_555
C23_4 N13_2 1_555 1_555
C25_4 N8_4 1_555 1_555
C26_4 N9_4 1_555 1_555
C26_4 N10_4 1_555 1_555
C30_4 C31_4 1_555 1_555
C30_4 N14_2 1_555 1_555
H3_4 C4_4 1_555 1_555
C17_4 H11_4 1_555 1_555
H12_4 C18_4 1_555 1_555
C33_4 H21_4 1_555 1_555
C34_4 C33_4 1_555 1_555
H22_4 C34_4 1_555 1_555
C35_4 H23_4 1_555 1_555
I5_4 Zn3_4 1_555 1_555
N12_4 C34_4 1_555 1_555
Zn3_4 N6_4 1_555 1_555
I6_4 Zn3_4 1_555 1_555
C17_4 C18_4 1_555 1_555
C17_4 N6_4 1_555 1_555
C35_4 N12_4 1_555 1_555
N12_4 Zn3_4 1_555 1_555
C1_4 H1_4 1_555 1_555
C2_4 C1_4 1_555 1_555
H2_4 C2_4 1_555 1_555
I3_5 Zn2_3 1_555 1_555
I4_5 Zn2_3 1_555 1_555
Zn2_3 N5_5 1_555 1_555
N14_3 Zn2_3 1_555 1_555
C1_5 H1_5 1_555 1_555
C2_5 C1_5 1_555 1_555
H2_5 C2_5 1_555 1_555
C3_5 C2_5 1_555 1_555
C4_5 C3_5 1_555 1_555
H3_5 C4_5 1_555 1_555
C5_5 C4_5 1_555 1_555
H4_5 C5_5 1_555 1_555
C6_5 C3_5 1_555 1_555
C7_5 C9_5 1_555 1_555
C8_5 C14_5 1_555 1_555
C9_5 C10_5 1_555 1_555
C10_5 H5_5 1_555 1_555
C11_5 C10_5 1_555 1_555
H6_5 C11_5 1_555 1_555
C12_5 H7_5 1_555 1_555
C13_5 C9_5 1_555 1_555
H8_5 C13_5 1_555 1_555
C14_5 C15_5 1_555 1_555
C15_5 H9_5 1_555 1_555
C16_5 C15_5 1_555 1_555
H10_5 C16_5 1_555 1_555
C17_5 H11_5 1_555 1_555
C18_5 C14_5 1_555 1_555
H12_5 C18_5 1_555 1_555
C19_5 H13_5 1_555 1_555
C20_5 C19_5 1_555 1_555
H14_5 C20_5 1_555 1_555
C21_5 C20_5 1_555 1_555
C22_5 C21_5 1_555 1_555
H15_5 C22_5 1_555 1_555
C23_5 C22_5 1_555 1_555
H16_5 C23_5 1_555 1_555
C24_5 C21_5 1_555 1_555
C25_5 C27_5 1_555 1_555
C26_5 C32_5 1_555 1_555
C27_5 C28_5 1_555 1_555
C28_5 H17_5 1_555 1_555
C29_5 C28_5 1_555 1_555
H18_5 C29_5 1_555 1_555
C30_5 H19_5 1_555 1_555
C31_5 C27_5 1_555 1_555
H20_5 C31_5 1_555 1_555
C32_5 C33_5 1_555 1_555
C33_5 H21_5 1_555 1_555
C34_5 C33_5 1_555 1_555
H22_5 C34_5 1_555 1_555
C35_5 H23_5 1_555 1_555
C36_5 C32_5 1_555 1_555
H24_5 C36_5 1_555 1_555
I1_5 Zn1_3 1_555 1_555
I2_5 Zn1_3 1_555 1_555
I5_5 Zn3_5 1_555 1_555
N1_5 C1_5 1_555 1_555
N2_5 C6_5 1_555 1_555
N3_5 C7_5 1_555 1_555
N4_5 C6_5 1_555 1_555
N6_5 C16_5 1_555 1_555
N7_3 C19_5 1_555 1_555
N8_5 C24_5 1_555 1_555
N9_5 C25_5 1_555 1_555
N10_5 C24_5 1_555 1_555
N11_3 C29_5 1_555 1_555
N12_5 C34_5 1_555 1_555
Zn1_3 N1_5 1_555 1_555
Zn3_5 N6_5 1_555 1_555
I6_5 Zn3_5 1_555 1_555
N13_3 Zn1_3 1_555 1_555
Zn4_3 N7_3 1_555 1_555
Zn5_3 N11_3 1_555 1_555
C5_5 N1_5 1_555 1_555
C7_5 N2_5 1_555 1_555
C8_5 N3_5 1_555 1_555
C8_5 N4_5 1_555 1_555
C12_5 C13_5 1_555 1_555
C17_5 C18_5 1_555 1_555
C17_5 N6_5 1_555 1_555
C23_5 N7_3 1_555 1_555
C25_5 N8_5 1_555 1_555
C26_5 N9_5 1_555 1_555
C26_5 N10_5 1_555 1_555
C30_5 C31_5 1_555 1_555
C30_5 N11_3 1_555 1_555
C35_5 C36_5 1_555 1_555
C35_5 N12_5 1_555 1_555
N12_5 Zn3_5 1_555 1_555
C4_6 C3_6 1_555 1_555
H3_6 C4_6 1_555 1_555
C6_6 C3_6 1_555 1_555
C7_6 C9_6 1_555 1_555
C8_6 C14_6 1_555 1_555
C9_6 C10_6 1_555 1_555
C10_6 H5_6 1_555 1_555
C11_6 C10_6 1_555 1_555
H6_6 C11_6 1_555 1_555
C12_6 H7_6 1_555 1_555
C13_6 C9_6 1_555 1_555
H8_6 C13_6 1_555 1_555
C14_6 C15_6 1_555 1_555
C15_6 H9_6 1_555 1_555
C16_6 C15_6 1_555 1_555
H10_6 C16_6 1_555 1_555
C17_6 H11_6 1_555 1_555
C18_6 C14_6 1_555 1_555
H12_6 C18_6 1_555 1_555
C19_6 H13_6 1_555 1_555
C20_6 C19_6 1_555 1_555
H14_6 C20_6 1_555 1_555
C21_6 C20_6 1_555 1_555
C22_6 C21_6 1_555 1_555
H15_6 C22_6 1_555 1_555
C23_6 C22_6 1_555 1_555
H16_6 C23_6 1_555 1_555
C24_6 C21_6 1_555 1_555
C25_6 C27_6 1_555 1_555
C26_6 C32_6 1_555 1_555
C27_6 C28_6 1_555 1_555
C28_6 H17_6 1_555 1_555
C29_6 C28_6 1_555 1_555
H18_6 C29_6 1_555 1_555
C30_6 H19_6 1_555 1_555
C31_6 C27_6 1_555 1_555
H20_6 C31_6 1_555 1_555
C32_6 C33_6 1_555 1_555
C33_6 H21_6 1_555 1_555
C34_6 C33_6 1_555 1_555
H22_6 C34_6 1_555 1_555
C35_6 H23_6 1_555 1_555
C36_6 C32_6 1_555 1_555
H24_6 C36_6 1_555 1_555
I5_6 Zn3_6 1_555 1_555
N2_6 C6_6 1_555 1_555
N3_6 C7_6 1_555 1_555
N4_6 C6_6 1_555 1_555
N6_6 C16_6 1_555 1_555
N13_3 C19_6 1_555 1_555
N8_6 C24_6 1_555 1_555
N9_6 C25_6 1_555 1_555
N10_6 C24_6 1_555 1_555
N11_4 C29_6 1_555 1_555
N12_6 C34_6 1_555 1_555
Zn3_6 N6_6 1_555 1_555
I6_6 Zn3_6 1_555 1_555
C7_6 N2_6 1_555 1_555
C8_6 N3_6 1_555 1_555
C8_6 N4_6 1_555 1_555
C12_6 C13_6 1_555 1_555
C17_6 C18_6 1_555 1_555
C17_6 N6_6 1_555 1_555
C23_6 N13_3 1_555 1_555
C25_6 N8_6 1_555 1_555
C26_6 N9_6 1_555 1_555
C26_6 N10_6 1_555 1_555
C30_6 C31_6 1_555 1_555
C30_6 N11_4 1_555 1_555
C35_6 C36_6 1_555 1_555
C35_6 N12_6 1_555 1_555
N12_6 Zn3_6 1_555 1_555
C1_6 H1_6 1_555 1_555
C2_6 C1_6 1_555 1_555
H2_6 C2_6 1_555 1_555
H4_6 C5_6 1_555 1_555
I2_6 Zn4_3 1_555 1_555
N1_6 C1_6 1_555 1_555
Zn4_3 N1_6 1_555 1_555
C5_6 N1_6 1_555 1_555
I3_6 Zn2_4 1_555 1_555
I4_6 Zn2_4 1_555 1_555
Zn2_4 N5_6 1_555 1_555
C6_7 C3_7 1_555 1_555
C7_7 C9_7 1_555 1_555
C8_7 C14_7 1_555 1_555
C9_7 C10_7 1_555 1_555
C10_7 H5_7 1_555 1_555
C11_7 C10_7 1_555 1_555
H6_7 C11_7 1_555 1_555
C12_7 H7_7 1_555 1_555
C13_7 C9_7 1_555 1_555
H8_7 C13_7 1_555 1_555
C14_7 C15_7 1_555 1_555
C15_7 H9_7 1_555 1_555
C16_7 C15_7 1_555 1_555
H10_7 C16_7 1_555 1_555
C19_7 H13_7 1_555 1_555
C20_7 C19_7 1_555 1_555
H14_7 C20_7 1_555 1_555
C21_7 C20_7 1_555 1_555
C22_7 C21_7 1_555 1_555
H15_7 C22_7 1_555 1_555
C23_7 C22_7 1_555 1_555
H16_7 C23_7 1_555 1_555
C24_7 C21_7 1_555 1_555
C25_7 C27_7 1_555 1_555
C26_7 C32_7 1_555 1_555
C27_7 C28_7 1_555 1_555
C28_7 H17_7 1_555 1_555
C29_7 C28_7 1_555 1_555
H18_7 C29_7 1_555 1_555
C30_7 H19_7 1_555 1_555
C31_7 C27_7 1_555 1_555
H20_7 C31_7 1_555 1_555
C36_7 C32_7 1_555 1_555
H24_7 C36_7 1_555 1_555
I3_7 Zn5_3 1_555 1_555
I4_7 Zn5_3 1_555 1_555
N2_7 C6_7 1_555 1_555
N3_7 C7_7 1_555 1_555
N4_7 C6_7 1_555 1_555
N5_7 C11_7 1_555 1_555
N7_4 C19_7 1_555 1_555
N8_7 C24_7 1_555 1_555
N9_7 C25_7 1_555 1_555
N10_7 C24_7 1_555 1_555
N14_3 C29_7 1_555 1_555
Zn5_3 N5_7 1_555 1_555
Zn4_4 N7_4 1_555 1_555
C7_7 N2_7 1_555 1_555
C8_7 N3_7 1_555 1_555
C8_7 N4_7 1_555 1_555
C12_7 C13_7 1_555 1_555
C12_7 N5_7 1_555 1_555
C23_7 N7_4 1_555 1_555
C25_7 N8_7 1_555 1_555
C26_7 N9_7 1_555 1_555
C26_7 N10_7 1_555 1_555
C30_7 C31_7 1_555 1_555
C30_7 N14_3 1_555 1_555
H3_7 C4_7 1_555 1_555
C5_7 C4_7 1_555 1_555
H4_7 C5_7 1_555 1_555
C17_7 H11_7 1_555 1_555
H12_7 C18_7 1_555 1_555
C33_7 H21_7 1_555 1_555
C34_7 C33_7 1_555 1_555
H22_7 C34_7 1_555 1_555
C35_7 H23_7 1_555 1_555
I2_7 Zn4_4 1_555 1_555
I5_7 Zn3_7 1_555 1_555
N12_7 C34_7 1_555 1_555
Zn4_4 N1_7 1_555 1_555
Zn3_7 N6_7 1_555 1_555
I6_7 Zn3_7 1_555 1_555
C5_7 N1_7 1_555 1_555
C17_7 C18_7 1_555 1_555
C17_7 N6_7 1_555 1_555
C35_7 N12_7 1_555 1_555
N12_7 Zn3_7 1_555 1_555
H4_8 C5_8 1_555 1_555
I1_6 Zn1_4 1_555 1_555
I2_8 Zn1_4 1_555 1_555
Zn1_4 N1_8 1_555 1_555
N13_4 Zn1_4 1_555 1_555
C5_8 N1_8 1_555 1_555
C1_7 H1_7 1_555 1_555
C2_7 C1_7 1_555 1_555
H2_7 C2_7 1_555 1_555
C3_8 C2_7 1_555 1_555
C6_8 C3_8 1_555 1_555
C7_8 C9_8 1_555 1_555
C8_8 C14_8 1_555 1_555
C9_8 C10_8 1_555 1_555
C10_8 H5_8 1_555 1_555
C11_8 C10_8 1_555 1_555
H6_8 C11_8 1_555 1_555
C12_8 H7_8 1_555 1_555
C13_8 C9_8 1_555 1_555
H8_8 C13_8 1_555 1_555
C14_8 C15_8 1_555 1_555
C15_8 H9_8 1_555 1_555
C16_8 C15_8 1_555 1_555
H10_8 C16_8 1_555 1_555
C19_8 H13_8 1_555 1_555
C20_8 C19_8 1_555 1_555
H14_8 C20_8 1_555 1_555
C21_8 C20_8 1_555 1_555
C22_8 C21_8 1_555 1_555
H15_8 C22_8 1_555 1_555
C23_8 C22_8 1_555 1_555
H16_8 C23_8 1_555 1_555
C24_8 C21_8 1_555 1_555
C25_8 C27_8 1_555 1_555
C26_8 C32_8 1_555 1_555
C27_8 C28_8 1_555 1_555
C28_8 H17_8 1_555 1_555
C29_8 C28_8 1_555 1_555
H18_8 C29_8 1_555 1_555
C30_8 H19_8 1_555 1_555
C31_8 C27_8 1_555 1_555
H20_8 C31_8 1_555 1_555
C36_8 C32_8 1_555 1_555
H24_8 C36_8 1_555 1_555
I3_8 Zn5_4 1_555 1_555
I4_8 Zn5_4 1_555 1_555
N2_8 C6_8 1_555 1_555
N3_8 C7_8 1_555 1_555
N4_8 C6_8 1_555 1_555
N5_8 C11_8 1_555 1_555
N13_4 C19_8 1_555 1_555
N8_8 C24_8 1_555 1_555
N9_8 C25_8 1_555 1_555
N10_8 C24_8 1_555 1_555
N14_4 C29_8 1_555 1_555
Zn5_4 N5_8 1_555 1_555
C7_8 N2_8 1_555 1_555
C8_8 N3_8 1_555 1_555
C8_8 N4_8 1_555 1_555
C12_8 C13_8 1_555 1_555
C12_8 N5_8 1_555 1_555
C23_8 N13_4 1_555 1_555
C25_8 N8_8 1_555 1_555
C26_8 N9_8 1_555 1_555
C26_8 N10_8 1_555 1_555
C30_8 C31_8 1_555 1_555
C30_8 N14_4 1_555 1_555
C1_8 H1_8 1_555 1_555
C2_8 C1_8 1_555 1_555
H2_8 C2_8 1_555 1_555
H3_8 C4_8 1_555 1_555
C17_8 H11_8 1_555 1_555
H12_8 C18_8 1_555 1_555
C33_8 H21_8 1_555 1_555
C34_8 C33_8 1_555 1_555
H22_8 C34_8 1_555 1_555
C35_8 H23_8 1_555 1_555
I5_8 Zn3_8 1_555 1_555
N12_8 C34_8 1_555 1_555
Zn3_8 N6_8 1_555 1_555
I6_8 Zn3_8 1_555 1_555
C17_8 C18_8 1_555 1_555
C17_8 N6_8 1_555 1_555
C35_8 N12_8 1_555 1_555
N12_8 Zn3_8 1_555 1_555

#END
