
###############################################################################
#
# This file contains modified crystal structure data generated from the
# MOF subset of the Cambridge Structural Database (CSD) v543 
# hosted by the Cambridge Crystallographic Data Centre (CCDC).
#
# This work is licensed under the Creative Commons
# Attribution-NonCommercial-ShareAlike 4.0 International License.
# To view a copy of this license, visit
# http://creativecommons.org/licenses/by-nc-sa/4.0/
# or send a letter to
# Creative Commons, PO Box 1866, Mountain View, CA 94042, USA.
#
# CIF created using the CSD Python API on 29 September 2022
# The structure has been converted into the P1 space group
# The structure has a 3D framework
# The original CSD entry KEWNUX is in the rhombohedral crystal system
# The original CSD entry KEWNUX is in a Sohncke space group
# The framework has been calculated to contain at least 10.0% void space
# The void calculation uses a probe of radius 1.32A, grid spacing 0.4
# H atom positions have been added when not included in the experimental data
#
###############################################################################

data_KEWNUX
_chemical_formula_moiety         '(C288 H234 Cu33 N72 O370 P24 W108)n'
_symmetry_cell_setting           triclinic
_symmetry_space_group_name_H-M   'P 1'
_symmetry_Int_Tables_number      1
_space_group_name_Hall           'P 1'
loop_
_symmetry_equiv_pos_site_id
_symmetry_equiv_pos_as_xyz
1 x,y,z
_cell_length_a                   20.9112(3)
_cell_length_b                   20.9112(3)
_cell_length_c                   38.3502(10)
_cell_angle_alpha                90
_cell_angle_beta                 90
_cell_angle_gamma                120
_cell_volume                     14523
loop_
_atom_site_label
_atom_site_type_symbol
_atom_site_fract_x
_atom_site_fract_y
_atom_site_fract_z
W5 W 0.19294(4) 0.08330(4) 0.509882(19)
W6 W 0.19322(4) 0.08564(4) 0.60782(2)
Cu2 Cu 0.30506(16) 0.00942(16) 0.48790(7)
Cu4 Cu 0.3192(3) 0.0447(2) 0.31823(11)
P1 P -0.0000 0.0000 0.6082(2)
P2 P -0.0000 0.0000 0.5045(2)
O2 O -0.0000 0.0000 0.6502(6)
O3 O 0.1558(7) 0.0565(8) 0.6525(4)
O16 O 0.0000 0.0000 0.4636(6)
O17 O 0.1586(8) 0.0578(8) 0.4612(4)
O20 O 0.2011(8) 0.0983(8) 0.5569(4)
O21 O 0.2818(8) 0.1020(8) 0.5009(4)
O22 O 0.2833(8) 0.1084(8) 0.6140(4)
N5 N 0.2962(12) 0.0148(12) 0.4390(5)
N6 N 0.3080(13) 0.0336(12) 0.3676(6)
C17 C 0.3986(13) 0.0145(13) 0.5428(6)
C18 C 0.4565(13) 0.0430(13) 0.5170(6)
H13 H 0.4439 0.0424 0.4932
C19 C 0.5273(13) 0.0700(13) 0.5255(6)
H14 H 0.5647 0.0911 0.5082
C20 C 0.5455(13) 0.0667(13) 0.5606(6)
H15 H 0.5948 0.0802 0.5666
C21 C 0.4925(13) 0.0442(13) 0.5866(6)
H16 H 0.5054 0.0469 0.6105
C22 C 0.4225(13) 0.0184(13) 0.5768(6)
C31 C 0.3246(15) 0.0872(16) 0.3885(7)
H23 H 0.3405 0.1351 0.3795
C32 C 0.3195(14) 0.0760(14) 0.4252(7)
H24 H 0.3348 0.1177 0.4400
O46 O 0.0735(8) 0.0662(11) 0.5970(4)
O48 O 0.0748(8) 0.0659(11) 0.5163(4)
W38 W 0.01656(5) 0.10049(7) 0.68496(2)
W39 W 0.11583(5) 0.19157(7) 0.60304(2)
W40 W 0.11881(4) 0.19216(6) 0.505129(19)
W42 W 0.00454(4) 0.09565(6) 0.42818(2)
Cu18 Cu 0.3922(4) 0.0141(3) 0.65156(11)
O129 O 0.0804(8) 0.0694(11) 0.7040(4)
O133 O 0.1967(8) 0.1774(11) 0.6126(4)
O137 O 0.1985(8) 0.1767(11) 0.4999(4)
O140 O 0.0750(8) 0.0696(11) 0.4097(4)
N29 N 0.3370(11) 0.0414(16) 0.2694(5)
W1 W 0.08393(5) 0.98344(5) 0.68496(2)
W2 W 0.07574(5) 0.88417(5) 0.60304(2)
W3 W 0.07335(4) 0.88119(4) 0.505129(19)
W4 W 0.09111(4) 0.99546(4) 0.42818(2)
W7 W 0.35480(5) 0.76922(5) 0.57871(2)
W8 W 0.27235(5) 0.79606(5) 0.65922(2)
W9 W 0.27588(5) 0.79804(5) 0.75646(2)
W10 W 0.36144(5) 0.77056(5) 0.83478(2)
W11 W 0.47248(5) 0.85258(5) 0.75461(2)
W12 W 0.46903(5) 0.85356(4) 0.65693(2)
Cu1 Cu 0.06442(15) 0.71792(15) 0.62962(7)
Cu3 Cu 0.0758(2) 0.6303(2) 0.46406(9)
P1_2 P -0.0000 1.0000 0.6082(2)
P2_2 P -0.0000 1.0000 0.5045(2)
P3 P 0.3333 0.6667 0.6550(3)
P4 P 0.3333 0.6667 0.7590(2)
O1 O 0.0749(8) 0.9170(8) 0.6522(4)
O2_2 O -0.0000 1.0000 0.6502(6)
O5 O 0.1375(8) 0.9758(8) 0.7154(4)
O7 O 0.0622(8) 0.8680(8) 0.5553(4)
O8 O 0.1477(8) 0.9823(8) 0.5971(4)
O9 O 0.1282(8) 0.8432(8) 0.6121(4)
O11 O 0.0754(8) 0.9169(8) 0.4605(4)
O13 O 0.1481(8) 0.9796(8) 0.5163(4)
O14 O 0.1245(8) 0.8385(8) 0.4988(4)
O16_2 O 0.0000 1.0000 0.4636(6)
O18 O 0.1465(9) 0.9893(9) 0.3974(4)
O23 O 0.2968(8) 0.7814(8) 0.6111(4)
O24 O 0.3333 0.6667 0.6133(6)
O25 O 0.4332(8) 0.8211(8) 0.6107(4)
O26 O 0.2712(8) 0.6849(8) 0.5597(4)
O27 O 0.3683(9) 0.8321(9) 0.5483(4)
O28 O 0.2568(8) 0.7878(8) 0.7080(4)
O29 O 0.3788(8) 0.8434(8) 0.6668(4)
O30 O 0.1744(8) 0.7182(8) 0.6503(4)
O31 O 0.2636(8) 0.8711(8) 0.6519(4)
O32 O 0.2980(8) 0.7841(8) 0.8026(4)
O33 O 0.3770(8) 0.8416(8) 0.7467(4)
O34 O 0.2753(8) 0.6871(8) 0.7469(4)
O35 O 0.2658(8) 0.8743(8) 0.7629(4)
O36 O 0.3333 0.6667 0.8001(6)
O37 O 0.4372(8) 0.8249(8) 0.8020(4)
O38 O 0.2733(8) 0.6872(8) 0.8527(4)
O39 O 0.3773(8) 0.8348(8) 0.8650(4)
O40 O 0.4836(8) 0.8564(8) 0.7061(4)
O41 O 0.5221(8) 0.9422(8) 0.7634(4)
O42 O 0.5434(8) 0.8247(8) 0.7628(4)
O43 O 0.5213(8) 0.9457(8) 0.6474(4)
O44 O 0.3131(8) 0.5892(8) 0.6665(4)
O45 O 0.0619(12) 0.5123(12) 0.4666(6)
N1 N 0.0478(10) 0.7300(10) 0.6774(5)
N2 N 0.0380(10) 0.7567(10) 0.7489(5)
N3 N 0.3289(11) 0.9930(11) 0.5336(5)
N4 N 0.3710(11) 0.9963(11) 0.6027(5)
N7 N 0.0737(11) 0.6611(11) 0.5116(5)
N8 N 0.0656(10) 0.6950(10) 0.5811(5)
C7 C 0.0874(12) 0.8061(12) 0.7283(6)
H5 H 0.1205 0.8533 0.7378
C8 C 0.0951(12) 0.7941(12) 0.6928(6)
H6 H 0.1341 0.8319 0.6795
C9 C 0.0057(13) 0.6688(13) 0.5606(6)
C14 C 0.0105(13) 0.6517(13) 0.5237(6)
C15 C 0.1347(13) 0.6897(13) 0.5323(6)
H11 H 0.1812 0.6997 0.5233
C16 C 0.1269(13) 0.7032(12) 0.5659(6)
H12 H 0.1693 0.7204 0.5803
C23 C 0.3022(13) 0.9715(12) 0.5938(6)
H17 H 0.2658 0.9552 0.6116
C24 C 0.2792(13) 0.9680(12) 0.5574(6)
H18 H 0.2286 0.9475 0.5516
C25 C 0.2690(15) 0.9535(15) 0.4181(7)
C26 C 0.2389(14) 0.8829(14) 0.4316(7)
H19 H 0.2395 0.8772 0.4562
C27 C 0.2102(15) 0.8245(15) 0.4125(7)
H20 H 0.1873 0.7775 0.4235
C28 C 0.2118(15) 0.8285(15) 0.3746(7)
H21 H 0.1920 0.7854 0.3605
C29 C 0.2482(15) 0.9084(15) 0.3584(7)
H22 H 0.2509 0.9160 0.3339
C30 C 0.2755(16) 0.9654(15) 0.3811(7)
O50 O 0.4108(8) 0.7239(11) 0.6665(4)
O51 O 0.2761(11) 0.6869(8) 0.6665(4)
O52 O 0.3129(8) 0.5882(11) 0.7469(4)
O53 O 0.4118(11) 0.7247(8) 0.7469(4)
W19 W 0.23078(5) 0.58558(7) 0.57871(2)
W20 W 0.20394(5) 0.47629(7) 0.65922(2)
W21 W 0.20196(5) 0.47784(7) 0.75646(2)
W22 W 0.22944(5) 0.59088(7) 0.83478(2)
W23 W 0.14742(5) 0.61990(7) 0.75461(2)
W24 W 0.14644(4) 0.61547(6) 0.65693(2)
Cu5 Cu 0.28208(15) 0.34650(21) 0.62962(7)
Cu7 Cu 0.3697(2) 0.4455(3) 0.46406(9)
O54 O 0.0830(8) 0.1579(11) 0.6522(4)
O57 O 0.0242(8) 0.1617(11) 0.7154(4)
O58 O 0.1320(8) 0.1942(11) 0.5553(4)
O59 O 0.0177(8) 0.1654(11) 0.5971(4)
O60 O 0.1568(8) 0.2850(11) 0.6121(4)
O62 O 0.0831(8) 0.1585(11) 0.4605(4)
O63 O 0.0204(8) 0.1685(11) 0.5163(4)
O64 O 0.1615(8) 0.2860(11) 0.4988(4)
O67 O 0.0107(9) 0.1572(13) 0.3974(4)
O72 O 0.2186(8) 0.5154(11) 0.6111(4)
O73 O 0.1789(8) 0.6121(11) 0.6107(4)
O74 O 0.3151(8) 0.5863(11) 0.5597(4)
O75 O 0.1679(9) 0.5362(13) 0.5483(4)
O76 O 0.2122(8) 0.4690(11) 0.7080(4)
O77 O 0.1566(8) 0.5354(11) 0.6668(4)
O78 O 0.2818(8) 0.4562(11) 0.6503(4)
O79 O 0.1289(8) 0.3925(11) 0.6519(4)
O80 O 0.2159(8) 0.5139(11) 0.8026(4)
O81 O 0.1584(8) 0.5354(11) 0.7467(4)
O82 O 0.1257(8) 0.3915(11) 0.7629(4)
O83 O 0.1751(8) 0.6123(11) 0.8020(4)
O84 O 0.3128(8) 0.5861(11) 0.8527(4)
O85 O 0.1652(8) 0.5425(11) 0.8650(4)
O86 O 0.1436(8) 0.6272(11) 0.7061(4)
O87 O 0.0578(8) 0.5799(11) 0.7634(4)
O88 O 0.1753(8) 0.7187(11) 0.7628(4)
O89 O 0.0543(8) 0.5756(11) 0.6474(4)
O90 O 0.4877(12) 0.5496(17) 0.4666(6)
N9 N 0.2700(10) 0.3178(14) 0.6774(5)
N10 N 0.2433(10) 0.2813(14) 0.7489(5)
N11 N 0.0070(11) 0.3359(16) 0.5336(5)
N12 N 0.0037(11) 0.3747(16) 0.6027(5)
N15 N 0.3389(11) 0.4126(16) 0.5116(5)
N16 N 0.3050(10) 0.3706(14) 0.5811(5)
C33 C 0.3242(12) 0.3175(17) 0.6985(6)
C34 C 0.3902(12) 0.3358(17) 0.6835(6)
H25 H 0.3986 0.3451 0.6592
C35 C 0.4442(13) 0.3403(18) 0.7057(6)
H26 H 0.4908 0.3533 0.6958
C36 C 0.4359(13) 0.3273(18) 0.7411(6)
H27 H 0.4752 0.3323 0.7555
C37 C 0.3636(12) 0.3054(17) 0.7549(6)
H28 H 0.3546 0.2936 0.7790
C38 C 0.3112(12) 0.3011(17) 0.7363(6)
C39 C 0.1939(12) 0.2813(17) 0.7283(6)
H29 H 0.1467 0.2672 0.7378
C40 C 0.2059(12) 0.3010(17) 0.6928(6)
H30 H 0.1681 0.3022 0.6795
C41 C 0.3312(13) 0.3369(18) 0.5606(6)
C42 C 0.3428(12) 0.2818(17) 0.5744(6)
H31 H 0.3347 0.2701 0.5985
C43 C 0.3657(12) 0.2446(18) 0.5533(6)
H32 H 0.3703 0.2050 0.5626
C44 C 0.3830(13) 0.2645(18) 0.5173(6)
H33 H 0.4014 0.2406 0.5027
C45 C 0.3723(13) 0.3178(18) 0.5054(6)
H34 H 0.3823 0.3293 0.4813
C46 C 0.3483(13) 0.3588(18) 0.5237(6)
C47 C 0.3103(13) 0.4450(18) 0.5323(6)
H35 H 0.3003 0.4815 0.5233
C48 C 0.2968(12) 0.4237(18) 0.5659(6)
H36 H 0.2796 0.4489 0.5803
C55 C 0.0285(12) 0.3307(18) 0.5938(6)
H41 H 0.0448 0.3106 0.6116
C56 C 0.0320(12) 0.3112(18) 0.5574(6)
H42 H 0.0525 0.2811 0.5516
C57 C 0.0465(15) 0.3155(21) 0.4181(7)
C58 C 0.1171(14) 0.3560(20) 0.4316(7)
H43 H 0.1228 0.3623 0.4562
C59 C 0.1755(15) 0.3857(21) 0.4125(7)
H44 H 0.2225 0.4098 0.4235
C60 C 0.1715(15) 0.3833(21) 0.3746(7)
H45 H 0.2146 0.4066 0.3605
C61 C 0.0916(15) 0.3398(21) 0.3584(7)
H46 H 0.0840 0.3349 0.3339
C62 C 0.0346(15) 0.3101(22) 0.3811(7)
W48 W 0.41442(7) 0.64520(5) 0.57871(2)
W49 W 0.52371(7) 0.72765(5) 0.65922(2)
W51 W 0.52216(7) 0.72412(5) 0.75646(2)
W53 W 0.40912(7) 0.63856(5) 0.83478(2)
W54 W 0.38010(7) 0.52752(5) 0.75461(2)
W56 W 0.38453(6) 0.53097(5) 0.65693(2)
Cu14 Cu 0.0364(2) 0.7788(3) 0.79739(9)
Cu15 Cu 0.2212(3) 0.2575(2) 0.79739(9)
O144 O 0.4137(11) 0.7288(8) 0.5597(4)
O146 O 0.5438(11) 0.8256(8) 0.6503(4)
O151 O 0.4139(11) 0.7267(8) 0.8527(4)
O153 O 0.2813(11) 0.4566(8) 0.7628(4)
N25 N 0.3713(10) 0.4234(10) 0.4156(5)
N27 N 0.0520(14) 0.6287(10) 0.4156(5)
H73 H 0.0140836 0.477813 0.477884
H74 H 0.062741 0.494861 0.442611
H75 H 0.522187 0.53627 0.477884
H76 H 0.505139 0.56788 0.442611
P1_3 P 1.0000 0.0000 0.6082(2)
P2_3 P 1.0000 0.0000 0.5045(2)
O2_3 O 1.0000 0.0000 0.6502(6)
O16_3 O 1.0000 0.0000 0.4636(6)
O47 O 0.9338(11) 0.0073(8) 0.5970(4)
O49 O 0.9341(11) 0.0089(8) 0.5163(4)
O93 O 0.9306(11) 0.0110(8) 0.7040(4)
O98 O 0.8226(11) 0.0193(8) 0.6126(4)
O102 O 0.8233(11) 0.0218(8) 0.4999(4)
O105 O 0.9304(11) 0.0054(8) 0.4097(4)
C65 C 0.6825(17) 0.0067(12) 0.6985(6)
C66 C 0.6642(17) 0.0544(12) 0.6835(6)
H49 H 0.6549 0.0535 0.6592
C67 C 0.6597(18) 0.1039(13) 0.7057(6)
H50 H 0.6467 0.1375 0.6958
C68 C 0.6727(18) 0.1086(12) 0.7411(6)
H51 H 0.6677 0.1429 0.7555
C69 C 0.6946(17) 0.0582(12) 0.7549(6)
H52 H 0.7064 0.0610 0.7790
C70 C 0.6989(17) 0.0101(12) 0.7363(6)
C74 C 0.7182(17) 0.0610(12) 0.5744(6)
H55 H 0.7299 0.0646 0.5985
C75 C 0.7554(18) 0.1211(13) 0.5533(6)
H56 H 0.7950 0.1653 0.5626
C76 C 0.7355(18) 0.1185(13) 0.5173(6)
H57 H 0.7594 0.1608 0.5027
C77 C 0.6822(18) 0.0545(13) 0.5054(6)
H58 H 0.6707 0.0530 0.4813
W44 W 0.91670(4) 0.10964(6) 0.509882(19)
W46 W 0.91436(4) 0.10758(6) 0.60782(2)
P1_4 P 1.0000 1.0000 0.6082(2)
P2_4 P 1.0000 1.0000 0.5045(2)
O2_4 O 1.0000 1.0000 0.6502(6)
O4 O 0.9890(8) 0.9196(8) 0.7040(4)
O6 O 0.9927(8) 0.9265(8) 0.5970(4)
O10 O 0.9807(8) 0.8033(8) 0.6126(4)
O12 O 0.9911(8) 0.9252(8) 0.5163(4)
O15 O 0.9782(8) 0.8015(8) 0.4999(4)
O16_4 O 1.0000 1.0000 0.4636(6)
O19 O 0.9946(8) 0.9250(8) 0.4097(4)
C1 C 0.9933(12) 0.6758(12) 0.6985(6)
C2 C 0.9456(12) 0.6098(12) 0.6835(6)
H1 H 0.9465 0.6014 0.6592
C3 C 0.8961(13) 0.5558(13) 0.7057(6)
H2 H 0.8625 0.5092 0.6958
C4 C 0.8914(12) 0.5641(13) 0.7411(6)
H3 H 0.8571 0.5248 0.7555
C5 C 0.9418(12) 0.6364(12) 0.7549(6)
H4 H 0.9390 0.6454 0.7790
C6 C 0.9899(12) 0.6888(12) 0.7363(6)
C10 C 0.9390(12) 0.6572(12) 0.5744(6)
H7 H 0.9354 0.6653 0.5985
C11 C 0.8789(13) 0.6343(12) 0.5533(6)
H8 H 0.8347 0.6297 0.5626
C12 C 0.8815(13) 0.6170(13) 0.5173(6)
H9 H 0.8392 0.5986 0.5027
C13 C 0.9455(13) 0.6277(13) 0.5054(6)
H10 H 0.9470 0.6177 0.4813
Cu6 Cu 0.99058(16) 0.29564(23) 0.48790(7)
Cu8 Cu 0.9553(2) 0.2745(4) 0.31823(11)
O55 O 0.9435(8) 0.0993(11) 0.6525(4)
O66 O 0.9422(8) 0.1008(11) 0.4612(4)
O69 O 0.9017(8) 0.1028(11) 0.5569(4)
O70 O 0.8980(8) 0.1798(11) 0.5009(4)
O71 O 0.8916(8) 0.1749(11) 0.6140(4)
N13 N 0.9852(12) 0.2814(17) 0.4390(5)
N14 N 0.9664(12) 0.2744(18) 0.3676(6)
C49 C 0.9855(13) 0.3841(18) 0.5428(6)
C50 C 0.9570(13) 0.4135(18) 0.5170(6)
H37 H 0.9576 0.4015 0.4932
C51 C 0.9300(13) 0.4573(18) 0.5255(6)
H38 H 0.9089 0.4736 0.5082
C52 C 0.9333(13) 0.4788(18) 0.5606(6)
H39 H 0.9198 0.5146 0.5666
C53 C 0.9558(13) 0.4483(18) 0.5866(6)
H40 H 0.9531 0.4585 0.6105
C54 C 0.9816(13) 0.4041(18) 0.5768(6)
C63 C 0.9128(16) 0.2374(22) 0.3885(7)
H47 H 0.8649 0.2054 0.3795
C64 C 0.9240(14) 0.2435(20) 0.4252(7)
H48 H 0.8823 0.2171 0.4400
W25 W 0.89951(7) 0.91607(5) 0.68496(2)
W26 W 0.80843(7) 0.92426(5) 0.60304(2)
W27 W 0.80784(6) 0.92665(4) 0.505129(19)
W28 W 0.90435(6) 0.90889(4) 0.42818(2)
W29 W 0.89036(6) 0.80706(4) 0.509882(19)
W30 W 0.89242(6) 0.80678(4) 0.60782(2)
Cu9 Cu 0.65350(21) 0.93558(15) 0.62962(7)
Cu10 Cu 0.70436(23) 0.69494(16) 0.48790(7)
Cu11 Cu 0.5545(3) 0.9242(2) 0.46406(9)
Cu12 Cu 0.7255(4) 0.6808(3) 0.31823(11)
O91 O 0.8421(11) 0.9251(8) 0.6522(4)
O92 O 0.9007(11) 0.8442(7) 0.6525(4)
O94 O 0.8383(11) 0.8625(8) 0.7154(4)
O95 O 0.8058(11) 0.9378(8) 0.5553(4)
O96 O 0.8346(11) 0.8523(8) 0.5971(4)
O97 O 0.7150(11) 0.8718(8) 0.6121(4)
O99 O 0.8415(11) 0.9246(8) 0.4605(4)
O100 O 0.8315(11) 0.8519(8) 0.5163(4)
O101 O 0.7140(11) 0.8755(8) 0.4988(4)
O103 O 0.8992(11) 0.8414(8) 0.4612(4)
O104 O 0.8428(13) 0.8535(9) 0.3974(4)
O106 O 0.8972(11) 0.7989(8) 0.5569(4)
O107 O 0.8202(11) 0.7182(8) 0.5009(4)
O108 O 0.8251(11) 0.7167(8) 0.6140(4)
O109 O 0.4846(11) 0.7032(8) 0.6111(4)
O110 O 0.3879(11) 0.5668(8) 0.6107(4)
O112 O 0.4638(13) 0.6317(9) 0.5483(4)
O113 O 0.5310(11) 0.7432(8) 0.7080(4)
O114 O 0.4646(11) 0.6212(8) 0.6668(4)
O116 O 0.6075(11) 0.7364(8) 0.6519(4)
O117 O 0.4861(11) 0.7020(8) 0.8026(4)
O118 O 0.4646(11) 0.6230(8) 0.7467(4)
O119 O 0.6085(11) 0.7342(8) 0.7629(4)
O120 O 0.3877(11) 0.5628(8) 0.8020(4)
O122 O 0.4575(11) 0.6227(8) 0.8650(4)
O123 O 0.3728(11) 0.5164(8) 0.7061(4)
O124 O 0.4201(11) 0.4779(8) 0.7634(4)
O126 O 0.4244(11) 0.4787(8) 0.6474(4)
O127 O 0.4504(17) 0.9381(12) 0.4666(6)
N17 N 0.6822(14) 0.9522(10) 0.6774(5)
N18 N 0.7187(14) 0.9620(10) 0.7489(5)
N19 N 0.6641(16) 0.6711(11) 0.5336(5)
N20 N 0.6253(16) 0.6290(11) 0.6027(5)
N21 N 0.7186(17) 0.7038(12) 0.4390(5)
N22 N 0.7256(18) 0.6920(13) 0.3676(6)
N23 N 0.5874(16) 0.9263(11) 0.5116(5)
N24 N 0.6294(14) 0.9344(10) 0.5811(5)
C71 C 0.7187(17) 0.9126(12) 0.7283(6)
H53 H 0.7328 0.8795 0.7378
C72 C 0.6990(17) 0.9049(12) 0.6928(6)
H54 H 0.6978 0.8659 0.6795
C73 C 0.6631(18) 0.9943(13) 0.5606(6)
C78 C 0.6412(18) 0.9895(13) 0.5237(6)
C79 C 0.5550(18) 0.8653(13) 0.5323(6)
H59 H 0.5185 0.8188 0.5233
C80 C 0.5763(18) 0.8731(13) 0.5659(6)
H60 H 0.5511 0.8307 0.5803
C81 C 0.6159(18) 0.6014(13) 0.5428(6)
C82 C 0.5865(18) 0.5435(13) 0.5170(6)
H61 H 0.5985 0.5561 0.4932
C83 C 0.5427(18) 0.4727(13) 0.5255(6)
H62 H 0.5264 0.4353 0.5082
C84 C 0.5212(18) 0.4545(13) 0.5606(6)
H63 H 0.4854 0.4052 0.5666
C85 C 0.5517(18) 0.5075(13) 0.5866(6)
H64 H 0.5415 0.4946 0.6105
C86 C 0.5959(18) 0.5775(13) 0.5768(6)
C87 C 0.6693(18) 0.6978(13) 0.5938(6)
H65 H 0.6894 0.7342 0.6116
C88 C 0.6888(18) 0.7208(13) 0.5574(6)
H66 H 0.7189 0.7714 0.5516
C89 C 0.6845(21) 0.7310(15) 0.4181(7)
C90 C 0.6440(20) 0.7611(14) 0.4316(7)
H67 H 0.6377 0.7605 0.4562
C91 C 0.6143(21) 0.7898(15) 0.4125(7)
H68 H 0.5902 0.8127 0.4235
C92 C 0.6167(21) 0.7882(15) 0.3746(7)
H69 H 0.5934 0.8080 0.3605
C93 C 0.6602(21) 0.7518(15) 0.3584(7)
H70 H 0.6651 0.7491 0.3339
C94 C 0.6899(22) 0.7245(16) 0.3811(7)
C95 C 0.7626(22) 0.6754(15) 0.3885(7)
H71 H 0.7946 0.6595 0.3795
C96 C 0.7565(20) 0.6805(14) 0.4252(7)
H72 H 0.7829 0.6652 0.4400
Cu13 Cu 0.7425(2) 0.9636(2) 0.79739(9)
Cu16 Cu 0.9859(3) 0.3780(2) 0.65156(11)
Cu17 Cu 0.6220(2) 0.6078(4) 0.65156(11)
N26 N 0.5766(10) 0.9480(14) 0.4156(5)
N28 N 0.7043(11) 0.6630(11) 0.2694(5)
N30 N 0.9586(16) 0.2957(11) 0.2694(5)
H77 H 0.46373 0.985916 0.477884
H78 H 0.43212 0.937259 0.442611
W10_2 W 0.02811(5) 0.10389(5) 0.16811(2)
W11_2 W 0.13915(5) 0.18591(5) 0.08794(2)
P4_2 P -0.0000 0.0000 0.0923(2)
O29_2 O 0.0455(8) 0.1767(8) 0.0001(4)
O33_2 O 0.0437(8) 0.1749(8) 0.0800(4)
O36_2 O -0.0000 0.0000 0.1334(6)
O37_2 O 0.1039(8) 0.1582(8) 0.1353(4)
O39_2 O 0.0440(8) 0.1681(8) 0.1983(4)
O40_2 O 0.1503(8) 0.1897(8) 0.0394(4)
O41_2 O 0.1888(8) 0.2755(8) 0.0967(4)
O42_2 O 0.2101(8) 0.1580(8) 0.0961(4)
O53_2 O 0.0785(11) 0.0580(8) 0.0802(4)
W51_2 W 0.18883(7) 0.05745(5) 0.08979(2)
O151_2 O 0.0806(11) 0.0600(8) 0.1860(4)
W7_2 W 0.02147(5) 0.10255(5) 0.91204(2)
W12_2 W 0.13570(5) 0.18689(4) 0.99026(2)
P3_2 P -0.0000 0.0000 0.9883(3)
O24_2 O -0.0000 0.0000 0.9466(6)
O25_2 O 0.0999(8) 0.1544(8) 0.9440(4)
O27_2 O 0.0350(9) 0.1654(9) 0.8816(4)
O43_2 O 0.1880(8) 0.2790(8) 0.9807(4)
N4_2 N 0.0377(11) 0.3296(11) 0.9360(5)
C17_2 C 0.0653(13) 0.3478(13) 0.8761(6)
C18_2 C 0.1232(13) 0.3763(13) 0.8503(6)
H13_2 H 0.1106 0.3757 0.8265
C19_2 C 0.1940(13) 0.4033(13) 0.8588(6)
H14_2 H 0.2314 0.4244 0.8415
C20_2 C 0.2122(13) 0.4000(13) 0.8939(6)
H15_2 H 0.2615 0.4135 0.8999
C21_2 C 0.1592(13) 0.3775(13) 0.9199(6)
H16_2 H 0.1721 0.3802 0.9438
C22_2 C 0.0892(13) 0.3517(13) 0.9101(6)
H23_2 H 0.0072 0.4684 0.7128
H24_2 H 0.0015 0.4510 0.7733
O50_2 O 0.0775(8) 0.0572(11) 0.9998(4)
W49_2 W 0.19038(7) 0.06098(5) 0.99255(2)
Cu18_2 Cu 0.0588(4) 0.3475(3) 0.98490(11)
O144_2 O 0.0804(11) 0.0621(8) 0.8930(4)
O146_2 O 0.2105(11) 0.1589(8) 0.9836(4)
P4_3 P -0.0000 1.0000 0.0923(2)
O36_3 O -0.0000 1.0000 0.1334(6)
C34_2 C 0.0569(12) 0.6691(17) 0.0168(6)
C35_2 C 0.1109(13) 0.6736(18) 0.0390(6)
H26_2 H 0.1575 0.6866 0.0291
C36_2 C 0.1026(13) 0.6606(18) 0.0744(6)
H27_2 H 0.1419 0.6656 0.0888
C37_2 C 0.0303(12) 0.6387(17) 0.0882(6)
H28_2 H 0.0213 0.6269 0.1123
W53_2 W 0.07579(7) 0.97189(5) 0.16811(2)
W54_2 W 0.04677(7) 0.86085(5) 0.08794(2)
P3_3 P -0.0000 1.0000 0.9883(3)
O24_3 O -0.0000 1.0000 0.9466(6)
O90_2 O 0.1544(12) 0.8829(17) 0.7999(6)
N15_2 N 0.0056(11) 0.7459(16) 0.8449(5)
H25_2 H 0.0653 0.6784 0.9925
C42_2 C 0.0095(12) 0.6151(17) 0.9077(6)
H31_2 H 0.0014 0.6034 0.9318
C43_2 C 0.0324(12) 0.5779(18) 0.8866(6)
H32_2 H 0.0370 0.5383 0.8959
C44_2 C 0.0497(13) 0.5978(18) 0.8506(6)
H33_2 H 0.0681 0.5739 0.8360
C45_2 C 0.0390(13) 0.6511(18) 0.8387(6)
H34_2 H 0.0490 0.6626 0.8146
C46_2 C 0.0150(13) 0.6921(18) 0.8570(6)
W48_2 W 0.08109(7) 0.97853(5) 0.91204(2)
W56_2 W 0.05120(6) 0.86430(5) 0.99026(2)
H75_2 H 0.188853 0.869604 0.811217
H76_2 H 0.171806 0.901214 0.775945
W1_2 W 0.75060(5) 0.31677(5) 0.01829(2)
W9_2 W 0.94255(5) 0.13137(5) 0.08979(2)
P4_4 P 1.0000 0.0000 0.0923(2)
O4_2 O 0.6557(8) 0.2529(8) 0.0373(4)
O5_2 O 0.8042(8) 0.3091(8) 0.0487(4)
O28_2 O 0.9235(8) 0.1211(8) 0.0413(4)
O32_2 O 0.9647(8) 0.1174(8) 0.1359(4)
O34_2 O 0.9420(8) 0.0204(8) 0.0802(4)
O35_2 O 0.9325(8) 0.2076(8) 0.0962(4)
O36_4 O 1.0000 0.0000 0.1334(6)
O38_2 O 0.9400(8) 0.0205(8) 0.1860(4)
N1_2 N 0.7145(10) 0.0633(10) 0.0107(5)
N2_2 N 0.7047(10) 0.0900(10) 0.0822(5)
C1_2 C 0.6600(12) 0.0091(12) 0.0318(6)
C6_2 C 0.6566(12) 0.0221(12) 0.0696(6)
C7_2 C 0.7541(12) 0.1394(12) 0.0616(6)
H5_2 H 0.7872 0.1866 0.0711
C8_2 C 0.7618(12) 0.1274(12) 0.0261(6)
H6_2 H 0.8008 0.1652 0.0128
O88_2 O 0.8420(8) 0.0520(11) 0.0961(4)
W25_2 W 0.56618(7) 0.24940(5) 0.01829(2)
O93_2 O 0.5973(11) 0.3443(8) 0.0373(4)
O94_2 O 0.5050(11) 0.1958(8) 0.0487(4)
O113_2 O 0.1977(11) 0.0765(8) 0.0413(4)
O117_2 O 0.1528(11) 0.0353(8) 0.1359(4)
O119_2 O 0.2752(11) 0.0675(8) 0.0962(4)
N17_2 N 0.3489(14) 0.2855(10) 0.0107(5)
N18_2 N 0.3854(14) 0.2953(10) 0.0822(5)
C65_2 C 0.3492(17) 0.3400(12) 0.0318(6)
C66_2 C 0.3309(17) 0.3877(12) 0.0168(6)
C67_2 C 0.3264(18) 0.4372(13) 0.0390(6)
H50_2 H 0.3134 0.4708 0.0291
C68_2 C 0.3394(18) 0.4419(12) 0.0744(6)
H51_2 H 0.3344 0.4762 0.0888
C69_2 C 0.3613(17) 0.3915(12) 0.0882(6)
H52_2 H 0.3731 0.3943 0.1123
C70_2 C 0.3656(17) 0.3434(12) 0.0696(6)
C71_2 C 0.3854(17) 0.2459(12) 0.0616(6)
H53_2 H 0.3995 0.2128 0.0711
C72_2 C 0.3657(17) 0.2382(12) 0.0261(6)
H54_2 H 0.3645 0.1992 0.0128
W38_2 W 0.68323(5) 0.43382(7) 0.01829(2)
Cu13_2 Cu 0.4091(2) 0.2970(2) 0.13073(9)
Cu14_2 Cu 0.7030(2) 0.1122(3) 0.13073(9)
O129_2 O 0.7471(8) 0.4027(11) 0.0373(4)
W2_2 W 0.74241(5) 0.21750(5) 0.93637(2)
W3_2 W 0.74002(4) 0.21452(4) 0.838462(19)
W4_2 W 0.75778(4) 0.32879(4) 0.76151(2)
W5_2 W 0.85961(4) 0.41663(4) 0.843215(19)
W6_2 W 0.85989(4) 0.41897(4) 0.94115(2)
W8_2 W 0.93902(5) 0.12939(5) 0.99255(2)
Cu1_2 Cu 0.73109(15) 0.05125(15) 0.96295(7)
Cu2_2 Cu 0.97173(16) 0.34275(16) 0.82123(7)
P1_5 P 0.6667 0.3333 0.9415(2)
P2_5 P 0.6667 0.3333 0.8378(2)
P3_4 P 1.0000 0.0000 0.9883(3)
O1_2 O 0.7416(8) 0.2503(8) 0.9855(4)
O2_5 O 0.6667 0.3333 0.9835(6)
O3_2 O 0.8225(7) 0.3898(8) 0.9858(4)
O6_2 O 0.6594(8) 0.2598(8) 0.9303(4)
O7_2 O 0.7289(8) 0.2013(8) 0.8886(4)
O8_2 O 0.8144(8) 0.3156(8) 0.9304(4)
O9_2 O 0.7949(8) 0.1765(8) 0.9454(4)
O10_2 O 0.6474(8) 0.1366(8) 0.9459(4)
O11_2 O 0.7421(8) 0.2502(8) 0.7938(4)
O12_2 O 0.6578(8) 0.2585(8) 0.8496(4)
O13_2 O 0.8148(8) 0.3129(8) 0.8496(4)
O14_2 O 0.7912(8) 0.1718(8) 0.8321(4)
O15_2 O 0.6449(8) 0.1348(8) 0.8332(4)
O16_5 O 0.6667 0.3333 0.7969(6)
O17_2 O 0.8253(8) 0.3911(8) 0.7945(4)
O18_2 O 0.8132(9) 0.3226(9) 0.7307(4)
O19_2 O 0.6613(8) 0.2583(8) 0.7430(4)
O20_2 O 0.8678(8) 0.4316(8) 0.8902(4)
O21_2 O 0.9485(8) 0.4353(8) 0.8342(4)
O22_2 O 0.9500(8) 0.4417(8) 0.9473(4)
O23_2 O 0.9635(8) 0.1147(8) 0.9444(4)
O24_4 O 1.0000 0.0000 0.9466(6)
O26_2 O 0.9379(8) 0.0182(8) 0.8930(4)
O30_2 O 0.8411(8) 0.0515(8) 0.9836(4)
O31_2 O 0.9303(8) 0.2044(8) 0.9852(4)
N3_2 N 0.9956(11) 0.3263(11) 0.8669(5)
N5_2 N 0.9629(12) 0.3481(12) 0.7723(5)
N6_2 N 0.9747(13) 0.3669(12) 0.7009(6)
N8_2 N 0.7323(10) 0.0283(10) 0.9144(5)
C9_2 C 0.6724(13) 0.0021(13) 0.8939(6)
C15_2 C 0.8014(13) 0.0230(13) 0.8656(6)
H11_2 H 0.8479 0.0330 0.8566
C16_2 C 0.7936(13) 0.0365(12) 0.8992(6)
H12_2 H 0.8360 0.0537 0.9136
C23_2 C 0.9689(13) 0.3048(12) 0.9271(6)
H17_2 H 0.9325 0.2885 0.9449
C24_2 C 0.9459(13) 0.3013(12) 0.8907(6)
H18_2 H 0.8953 0.2808 0.8849
C25_2 C 0.9357(15) 0.2868(15) 0.7514(7)
C26_2 C 0.9056(14) 0.2162(14) 0.7649(7)
H19_2 H 0.9062 0.2105 0.7895
C27_2 C 0.8769(15) 0.1578(15) 0.7458(7)
H20_2 H 0.8540 0.1108 0.7568
C28_2 C 0.8785(15) 0.1618(15) 0.7079(7)
H21_2 H 0.8587 0.1187 0.6938
C29_2 C 0.9149(15) 0.2417(15) 0.6917(7)
H22_2 H 0.9176 0.2493 0.6672
C30_2 C 0.9422(16) 0.2987(15) 0.7144(7)
C31_2 C 0.9913(15) 0.4205(16) 0.7218(7)
C32_2 C 0.9862(14) 0.4093(14) 0.7585(7)
O46_2 O 0.7402(8) 0.3995(11) 0.9303(4)
O47_2 O 0.6005(11) 0.3406(8) 0.9303(4)
O48_2 O 0.7415(8) 0.3992(11) 0.8496(4)
O49_2 O 0.6008(11) 0.3422(8) 0.8496(4)
O51_2 O 0.9428(11) 0.0202(8) 0.9998(4)
W26_2 W 0.47510(7) 0.25759(5) 0.93637(2)
W27_2 W 0.47451(6) 0.25998(4) 0.838462(19)
W28_2 W 0.57102(6) 0.24222(4) 0.76151(2)
W29_2 W 0.55703(6) 0.14039(4) 0.843215(19)
W30_2 W 0.55909(6) 0.14011(4) 0.94115(2)
Cu9_2 Cu 0.32017(21) 0.26891(15) 0.96295(7)
Cu10_2 Cu 0.37103(23) 0.02827(16) 0.82123(7)
O91_2 O 0.5088(11) 0.2584(8) 0.9855(4)
O92_2 O 0.5674(11) 0.1775(7) 0.9858(4)
O95_2 O 0.4725(11) 0.2711(8) 0.8886(4)
O96_2 O 0.5013(11) 0.1856(8) 0.9304(4)
O97_2 O 0.3817(11) 0.2051(8) 0.9454(4)
O98_2 O 0.4893(11) 0.3526(8) 0.9459(4)
O99_2 O 0.5082(11) 0.2579(8) 0.7938(4)
O100_2 O 0.4982(11) 0.1852(8) 0.8496(4)
O101_2 O 0.3807(11) 0.2088(8) 0.8321(4)
O102_2 O 0.4900(11) 0.3551(8) 0.8332(4)
O103_2 O 0.5659(11) 0.1747(8) 0.7945(4)
O104_2 O 0.5095(13) 0.1868(9) 0.7307(4)
O105_2 O 0.5971(11) 0.3387(8) 0.7430(4)
O106_2 O 0.5639(11) 0.1322(8) 0.8902(4)
O107_2 O 0.4869(11) 0.0515(8) 0.8342(4)
O108_2 O 0.4918(11) 0.0500(8) 0.9473(4)
O109_2 O 0.1513(11) 0.0365(8) 0.9444(4)
O116_2 O 0.2742(11) 0.0697(8) 0.9852(4)
O127_2 O 0.1171(17) 0.2714(12) 0.7999(6)
N19_2 N 0.3308(16) 0.0044(11) 0.8669(5)
N21_2 N 0.3853(17) 0.0371(12) 0.7723(5)
N22_2 N 0.3923(18) 0.0253(13) 0.7009(6)
N23_2 N 0.2541(16) 0.2596(11) 0.8449(5)
N24_2 N 0.2961(14) 0.2677(10) 0.9144(5)
H49_2 H 0.3216 0.3868 0.9925
C73_2 C 0.3298(18) 0.3276(13) 0.8939(6)
C74_2 C 0.3849(17) 0.3943(12) 0.9077(6)
H55_2 H 0.3966 0.3979 0.9318
C75_2 C 0.4221(18) 0.4544(13) 0.8866(6)
H56_2 H 0.4617 0.4986 0.8959
C76_2 C 0.4022(18) 0.4518(13) 0.8506(6)
H57_2 H 0.4261 0.4941 0.8360
C77_2 C 0.3489(18) 0.3878(13) 0.8387(6)
H58_2 H 0.3374 0.3863 0.8146
C78_2 C 0.3079(18) 0.3228(13) 0.8570(6)
C79_2 C 0.2217(18) 0.1986(13) 0.8656(6)
H59_2 H 0.1852 0.1521 0.8566
C80_2 C 0.2430(18) 0.2064(13) 0.8992(6)
H60_2 H 0.2178 0.1640 0.9136
C87_2 C 0.3360(18) 0.0311(13) 0.9271(6)
H65_2 H 0.3561 0.0675 0.9449
C88_2 C 0.3555(18) 0.0541(13) 0.8907(6)
H66_2 H 0.3856 0.1047 0.8849
C89_2 C 0.3512(21) 0.0643(15) 0.7514(7)
C90_2 C 0.3107(20) 0.0944(14) 0.7649(7)
H67_2 H 0.3044 0.0938 0.7895
C91_2 C 0.2810(21) 0.1231(15) 0.7458(7)
H68_2 H 0.2569 0.1460 0.7568
C92_2 C 0.2834(21) 0.1215(15) 0.7079(7)
H69_2 H 0.2601 0.1413 0.6938
C93_2 C 0.3269(21) 0.0851(15) 0.6917(7)
H70_2 H 0.3318 0.0824 0.6672
C94_2 C 0.3566(22) 0.0578(16) 0.7144(7)
C95_2 C 0.4293(22) 0.0087(15) 0.7218(7)
C96_2 C 0.4232(20) 0.0138(14) 0.7585(7)
W39_2 W 0.78250(5) 0.52490(7) 0.93637(2)
W40_2 W 0.78548(4) 0.52549(6) 0.838462(19)
W42_2 W 0.67121(4) 0.42898(6) 0.76151(2)
W44_2 W 0.58337(4) 0.44297(6) 0.843215(19)
W46_2 W 0.58103(4) 0.44091(6) 0.94115(2)
O133_2 O 0.8634(8) 0.5107(11) 0.9459(4)
O137_2 O 0.8652(8) 0.5100(11) 0.8332(4)
O140_2 O 0.7417(8) 0.4029(11) 0.7430(4)
H77_2 H 0.130396 0.31925 0.811217
H78_2 H 0.0987864 0.270592 0.775945
P4_5 P 1.0000 1.0000 0.0923(2)
O36_5 O 1.0000 1.0000 0.1334(6)
C2_2 C 0.6123(12) 0.9431(12) 0.0168(6)
C3_2 C 0.5628(13) 0.8891(13) 0.0390(6)
H2_2 H 0.5292 0.8425 0.0291
C4_2 C 0.5581(12) 0.8974(13) 0.0744(6)
H3_2 H 0.5238 0.8581 0.0888
C5_2 C 0.6085(12) 0.9697(12) 0.0882(6)
H4_2 H 0.6057 0.9787 0.1123
O52_2 O 0.9796(8) 0.9215(11) 0.0802(4)
W21_2 W 0.86863(5) 0.81117(7) 0.08979(2)
W22_2 W 0.89611(5) 0.92421(7) 0.16811(2)
W23_2 W 0.81409(5) 0.95323(7) 0.08794(2)
O57_2 O 0.6909(8) 0.4950(11) 0.0487(4)
O76_2 O 0.8789(8) 0.8023(11) 0.0413(4)
O77_2 O 0.8233(8) 0.8687(11) 0.0001(4)
O80_2 O 0.8826(8) 0.8472(11) 0.1359(4)
O81_2 O 0.8251(8) 0.8687(11) 0.0800(4)
O82_2 O 0.7924(8) 0.7248(11) 0.0962(4)
O83_2 O 0.8418(8) 0.9456(11) 0.1353(4)
O84_2 O 0.9795(8) 0.9194(11) 0.1860(4)
O85_2 O 0.8319(8) 0.8758(11) 0.1983(4)
O86_2 O 0.8103(8) 0.9605(11) 0.0394(4)
O87_2 O 0.7245(8) 0.9132(11) 0.0967(4)
N9_2 N 0.9367(10) 0.6511(14) 0.0107(5)
N10_2 N 0.9100(10) 0.6146(14) 0.0822(5)
C33_2 C 0.9909(12) 0.6508(17) 0.0318(6)
C38_2 C 0.9779(12) 0.6344(17) 0.0696(6)
C39_2 C 0.8606(12) 0.6146(17) 0.0616(6)
H29_2 H 0.8134 0.6005 0.0711
C40_2 C 0.8726(12) 0.6343(17) 0.0261(6)
H30_2 H 0.8348 0.6355 0.0128
O114_2 O 0.1313(11) 0.9545(8) 0.0001(4)
O118_2 O 0.1313(11) 0.9563(8) 0.0800(4)
O120_2 O 0.0544(11) 0.8961(8) 0.1353(4)
O122_2 O 0.1242(11) 0.9560(8) 0.1983(4)
O123_2 O 0.0395(11) 0.8497(8) 0.0394(4)
O124_2 O 0.0868(11) 0.8112(8) 0.0967(4)
Cu15_2 Cu 0.8878(3) 0.5909(2) 0.13073(9)
O153_2 O 0.9480(11) 0.7899(8) 0.0961(4)
P3_5 P 1.0000 1.0000 0.9883(3)
O24_5 O 1.0000 1.0000 0.9466(6)
O44_2 O 0.9798(8) 0.9225(8) 0.9998(4)
O45_2 O 0.7286(12) 0.8456(12) 0.7999(6)
N7_2 N 0.7404(11) 0.9944(11) 0.8449(5)
H1_2 H 0.6132 0.9347 0.9925
C10_2 C 0.6057(12) 0.9905(12) 0.9077(6)
H7_2 H 0.6021 0.9986 0.9318
C11_2 C 0.5456(13) 0.9676(12) 0.8866(6)
H8_2 H 0.5014 0.9630 0.8959
C12_2 C 0.5482(13) 0.9503(13) 0.8506(6)
H9_2 H 0.5059 0.9319 0.8360
C13_2 C 0.6122(13) 0.9610(13) 0.8387(6)
H10_2 H 0.6137 0.9510 0.8146
C14_2 C 0.6772(13) 0.9850(13) 0.8570(6)
W19_2 W 0.89745(5) 0.91891(7) 0.91204(2)
W20_2 W 0.87061(5) 0.80962(7) 0.99255(2)
W24_2 W 0.81311(4) 0.94880(6) 0.99026(2)
Cu5_2 Cu 0.94875(15) 0.67983(21) 0.96295(7)
Cu6_2 Cu 0.65725(16) 0.62897(23) 0.82123(7)
O54_2 O 0.7497(8) 0.4912(11) 0.9855(4)
O55_2 O 0.6102(8) 0.4326(11) 0.9858(4)
O58_2 O 0.7987(8) 0.5275(11) 0.8886(4)
O59_2 O 0.6844(8) 0.4987(11) 0.9304(4)
O60_2 O 0.8235(8) 0.6183(11) 0.9454(4)
O62_2 O 0.7498(8) 0.4918(11) 0.7938(4)
O63_2 O 0.6871(8) 0.5018(11) 0.8496(4)
O64_2 O 0.8282(8) 0.6193(11) 0.8321(4)
O66_2 O 0.6089(8) 0.4341(11) 0.7945(4)
O67_2 O 0.6774(9) 0.4905(13) 0.7307(4)
O69_2 O 0.5684(8) 0.4361(11) 0.8902(4)
O70_2 O 0.5647(8) 0.5131(11) 0.8342(4)
O71_2 O 0.5583(8) 0.5082(11) 0.9473(4)
O72_2 O 0.8853(8) 0.8487(11) 0.9444(4)
O73_2 O 0.8456(8) 0.9454(11) 0.9440(4)
O74_2 O 0.9818(8) 0.9196(11) 0.8930(4)
O75_2 O 0.8346(9) 0.8695(13) 0.8816(4)
O78_2 O 0.9485(8) 0.7895(11) 0.9836(4)
O79_2 O 0.7956(8) 0.7258(11) 0.9852(4)
O89_2 O 0.7210(8) 0.9089(11) 0.9807(4)
N11_2 N 0.6737(11) 0.6692(16) 0.8669(5)
N12_2 N 0.6704(11) 0.7080(16) 0.9360(5)
N13_2 N 0.6519(12) 0.6147(17) 0.7723(5)
N14_2 N 0.6331(12) 0.6077(18) 0.7009(6)
N16_2 N 0.9717(10) 0.7039(14) 0.9144(5)
C41_2 C 0.9979(13) 0.6702(18) 0.8939(6)
C47_2 C 0.9770(13) 0.7783(18) 0.8656(6)
H35_2 H 0.9670 0.8148 0.8566
C48_2 C 0.9635(12) 0.7570(18) 0.8992(6)
H36_2 H 0.9463 0.7822 0.9136
C49_2 C 0.6522(13) 0.7174(18) 0.8761(6)
C50_2 C 0.6237(13) 0.7468(18) 0.8503(6)
H37_2 H 0.6243 0.7348 0.8265
C51_2 C 0.5967(13) 0.7906(18) 0.8588(6)
H38_2 H 0.5756 0.8069 0.8415
C52_2 C 0.6000(13) 0.8121(18) 0.8939(6)
H39_2 H 0.5865 0.8479 0.8999
C53_2 C 0.6225(13) 0.7816(18) 0.9199(6)
H40_2 H 0.6198 0.7918 0.9438
C54_2 C 0.6483(13) 0.7374(18) 0.9101(6)
C55_2 C 0.6952(12) 0.6640(18) 0.9271(6)
H41_2 H 0.7115 0.6439 0.9449
C56_2 C 0.6987(12) 0.6445(18) 0.8907(6)
H42_2 H 0.7192 0.6144 0.8849
C57_2 C 0.7132(15) 0.6488(21) 0.7514(7)
C58_2 C 0.7838(14) 0.6893(20) 0.7649(7)
H43_2 H 0.7895 0.6956 0.7895
C59_2 C 0.8422(15) 0.7190(21) 0.7458(7)
H44_2 H 0.8892 0.7431 0.7568
C60_2 C 0.8382(15) 0.7166(21) 0.7079(7)
H45_2 H 0.8813 0.7399 0.6938
C61_2 C 0.7583(15) 0.6731(21) 0.6917(7)
H46_2 H 0.7507 0.6682 0.6672
C62_2 C 0.7013(15) 0.6434(22) 0.7144(7)
C63_2 C 0.5795(16) 0.5707(22) 0.7218(7)
H47_2 H 0.5316 0.5387 0.7128
C64_2 C 0.5907(14) 0.5768(20) 0.7585(7)
H48_2 H 0.5490 0.5504 0.7733
O110_2 O 0.0546(11) 0.9001(8) 0.9440(4)
O112_2 O 0.1305(13) 0.9650(9) 0.8816(4)
O126_2 O 0.0911(11) 0.8120(8) 0.9807(4)
N20_2 N 0.2920(16) 0.9623(11) 0.9360(5)
C81_2 C 0.2826(18) 0.9347(13) 0.8761(6)
C82_2 C 0.2532(18) 0.8768(13) 0.8503(6)
H61_2 H 0.2652 0.8894 0.8265
C83_2 C 0.2094(18) 0.8060(13) 0.8588(6)
H62_2 H 0.1931 0.7686 0.8415
C84_2 C 0.1879(18) 0.7878(13) 0.8939(6)
H63_2 H 0.1521 0.7385 0.8999
C85_2 C 0.2184(18) 0.8408(13) 0.9199(6)
H64_2 H 0.2082 0.8279 0.9438
C86_2 C 0.2626(18) 0.9108(13) 0.9101(6)
H71_2 H 0.4613 0.9928 0.7128
H72_2 H 0.4496 0.9985 0.7733
Cu16_2 Cu 0.6525(3) 0.7114(2) 0.98490(11)
Cu17_2 Cu 0.2886(2) 0.9412(4) 0.98490(11)
H73_2 H 0.68075 0.811147 0.811217
H74_2 H 0.729408 0.828194 0.775945
W1_3 W 0.41726(5) 0.65011(5) 0.35163(2)
W2_3 W 0.40907(5) 0.55084(5) 0.26971(2)
W3_3 W 0.40668(4) 0.54786(4) 0.171796(19)
W4_3 W 0.42444(4) 0.66213(4) 0.09485(2)
W5_3 W 0.52627(4) 0.74997(4) 0.176549(19)
W6_3 W 0.52655(4) 0.75231(4) 0.27449(2)
W7_3 W 0.68813(5) 0.43589(5) 0.24538(2)
W8_3 W 0.60568(5) 0.46273(5) 0.32589(2)
W9_3 W 0.60921(5) 0.46471(5) 0.42313(2)
W10_3 W 0.69477(5) 0.43723(5) 0.50145(2)
W11_3 W 0.80581(5) 0.51925(5) 0.42128(2)
W12_3 W 0.80236(5) 0.52023(4) 0.32360(2)
Cu1_3 Cu 0.39775(15) 0.38459(15) 0.29629(7)
Cu2_3 Cu 0.63839(16) 0.67609(16) 0.15457(7)
P1_6 P 0.3333 0.6667 0.2749(2)
P2_6 P 0.3333 0.6667 0.1712(2)
P3_6 P 0.6666 0.3334 0.3217(3)
P4_6 P 0.6666 0.3334 0.4257(2)
O1_3 O 0.4082(8) 0.5837(8) 0.3189(4)
O2_6 O 0.3333 0.6667 0.3169(6)
O3_3 O 0.4891(7) 0.7232(8) 0.3192(4)
O4_3 O 0.3223(8) 0.5863(8) 0.3707(4)
O5_3 O 0.4708(8) 0.6425(8) 0.3821(4)
O6_3 O 0.3260(8) 0.5932(8) 0.2637(4)
O7_3 O 0.3955(8) 0.5347(8) 0.2220(4)
O8_3 O 0.4810(8) 0.6490(8) 0.2638(4)
O9_3 O 0.4615(8) 0.5099(8) 0.2788(4)
O10_3 O 0.3140(8) 0.4700(8) 0.2793(4)
O11_3 O 0.4087(8) 0.5836(8) 0.1272(4)
O12_3 O 0.3244(8) 0.5919(8) 0.1830(4)
O13_3 O 0.4814(8) 0.6463(8) 0.1830(4)
O14_3 O 0.4578(8) 0.5052(8) 0.1655(4)
O15_3 O 0.3115(8) 0.4682(8) 0.1666(4)
O16_6 O 0.3333 0.6667 0.1303(6)
O17_3 O 0.4919(8) 0.7245(8) 0.1279(4)
O18_3 O 0.4798(9) 0.6560(9) 0.0641(4)
O19_3 O 0.3279(8) 0.5917(8) 0.0764(4)
O20_3 O 0.5344(8) 0.7650(8) 0.2236(4)
O21_3 O 0.6151(8) 0.7687(8) 0.1676(4)
O22_3 O 0.6166(8) 0.7751(8) 0.2807(4)
O23_3 O 0.6301(8) 0.4481(8) 0.2778(4)
O24_6 O 0.6666 0.3334 0.2800(6)
O25_3 O 0.7665(8) 0.4878(8) 0.2774(4)
O26_3 O 0.6045(8) 0.3516(8) 0.2264(4)
O27_3 O 0.7016(9) 0.4988(9) 0.2150(4)
O28_3 O 0.5901(8) 0.4545(8) 0.3747(4)
O29_3 O 0.7121(8) 0.5101(8) 0.3335(4)
O30_3 O 0.5077(8) 0.3849(8) 0.3170(4)
O31_3 O 0.5969(8) 0.5378(8) 0.3186(4)
O32_3 O 0.6313(8) 0.4508(8) 0.4693(4)
O33_3 O 0.7103(8) 0.5083(8) 0.4134(4)
O34_3 O 0.6086(8) 0.3538(8) 0.4136(4)
O35_3 O 0.5991(8) 0.5410(8) 0.4296(4)
O36_6 O 0.6666 0.3334 0.4668(6)
O37_3 O 0.7705(8) 0.4916(8) 0.4687(4)
O38_3 O 0.6066(8) 0.3539(8) 0.5194(4)
O39_3 O 0.7106(8) 0.5015(8) 0.5317(4)
O40_3 O 0.8169(8) 0.5231(8) 0.3728(4)
O41_3 O 0.8554(8) 0.6089(8) 0.4301(4)
O42_3 O 0.8767(8) 0.4914(8) 0.4295(4)
O43_3 O 0.8546(8) 0.6124(8) 0.3141(4)
O44_3 O 0.6464(8) 0.2559(8) 0.3332(4)
O45_3 O 0.3952(12) 0.1790(12) 0.1333(6)
N1_3 N 0.3811(10) 0.3967(10) 0.3441(5)
N3_3 N 0.6622(11) 0.6597(11) 0.2003(5)
N5_3 N 0.6295(12) 0.6815(12) 0.1057(5)
N6_3 N 0.6413(13) 0.7003(12) 0.0343(6)
N7_3 N 0.4070(11) 0.3278(11) 0.1783(5)
N8_3 N 0.3989(10) 0.3617(10) 0.2478(5)
C1_3 C 0.3266(12) 0.3425(12) 0.3652(6)
C2_3 C 0.2789(12) 0.2765(12) 0.3502(6)
H1_3 H 0.2798 0.2681 0.3259
C3_3 C 0.2294(13) 0.2225(13) 0.3724(6)
H2_3 H 0.1958 0.1759 0.3625
C4_3 C 0.2247(12) 0.2308(13) 0.4078(6)
H3_3 H 0.1904 0.1915 0.4222
C5_3 C 0.2751(12) 0.3031(12) 0.4216(6)
H4_3 H 0.2723 0.3121 0.4457
C6_3 C 0.3232(12) 0.3555(12) 0.4030(6)
C7_3 C 0.4207(12) 0.4728(12) 0.3950(6)
H5_3 H 0.4538 0.5200 0.4045
C8_3 C 0.4284(12) 0.4608(12) 0.3595(6)
H6_3 H 0.4674 0.4986 0.3462
C9_3 C 0.3390(13) 0.3355(13) 0.2273(6)
C10_3 C 0.2723(12) 0.3239(12) 0.2411(6)
H7_3 H 0.2687 0.3320 0.2652
C11_3 C 0.2122(13) 0.3010(12) 0.2200(6)
H8_3 H 0.1680 0.2964 0.2293
C12_3 C 0.2148(13) 0.2837(13) 0.1840(6)
H9_3 H 0.1725 0.2653 0.1694
C13_3 C 0.2788(13) 0.2944(13) 0.1721(6)
H10_3 H 0.2803 0.2844 0.1480
C14_3 C 0.3438(13) 0.3184(13) 0.1904(6)
C15_3 C 0.4680(13) 0.3564(13) 0.1990(6)
H11_3 H 0.5145 0.3664 0.1900
C16_3 C 0.4602(13) 0.3699(12) 0.2326(6)
H12_3 H 0.5026 0.3871 0.2470
C17_3 C 0.7319(13) 0.6812(13) 0.2095(6)
C18_3 C 0.7898(13) 0.7097(13) 0.1837(6)
H13_3 H 0.7772 0.7091 0.1599
C19_3 C 0.8606(13) 0.7367(13) 0.1922(6)
H14_3 H 0.8980 0.7578 0.1749
C20_3 C 0.8788(13) 0.7334(13) 0.2273(6)
H15_3 H 0.9281 0.7469 0.2333
C21_3 C 0.8258(13) 0.7109(13) 0.2533(6)
H16_3 H 0.8387 0.7136 0.2772
C22_3 C 0.7558(13) 0.6851(13) 0.2435(6)
C23_3 C 0.6355(13) 0.6382(12) 0.2605(6)
H17_3 H 0.5991 0.6219 0.2783
C24_3 C 0.6125(13) 0.6347(12) 0.2241(6)
H18_3 H 0.5619 0.6142 0.2183
C25_3 C 0.6023(15) 0.6202(15) 0.0848(7)
C26_3 C 0.5722(14) 0.5496(14) 0.0983(7)
H19_3 H 0.5728 0.5439 0.1229
C27_3 C 0.5435(15) 0.4912(15) 0.0792(7)
H20_3 H 0.5206 0.4442 0.0902
C28_3 C 0.5451(15) 0.4952(15) 0.0413(7)
H21_3 H 0.5253 0.4521 0.0272
C29_3 C 0.5815(15) 0.5751(15) 0.0251(7)
H22_3 H 0.5842 0.5827 0.0006
C30_3 C 0.6088(16) 0.6321(15) 0.0478(7)
C31_3 C 0.6579(15) 0.7539(16) 0.0552(7)
H23_3 H 0.6738 0.8018 0.0462
C32_3 C 0.6528(14) 0.7427(14) 0.0919(7)
H24_3 H 0.6681 0.7844 0.1067
O46_3 O 0.4068(8) 0.7329(11) 0.2637(4)
O47_3 O 0.2671(11) 0.6740(8) 0.2637(4)
O48_3 O 0.4081(8) 0.7326(11) 0.1830(4)
O49_3 O 0.2674(11) 0.6756(8) 0.1830(4)
O50_3 O 0.7441(8) 0.3906(11) 0.3332(4)
O51_3 O 0.6094(11) 0.3536(8) 0.3332(4)
O52_3 O 0.6462(8) 0.2549(11) 0.4136(4)
O53_3 O 0.7451(11) 0.3914(8) 0.4136(4)
W19_3 W 0.56411(5) 0.25225(7) 0.24538(2)
W20_3 W 0.53727(5) 0.14296(7) 0.32589(2)
W21_3 W 0.53529(5) 0.14451(7) 0.42313(2)
W22_3 W 0.56277(5) 0.25755(7) 0.50145(2)
W23_3 W 0.48075(5) 0.28657(7) 0.42128(2)
W24_3 W 0.47977(4) 0.28214(6) 0.32360(2)
Cu5_3 Cu 0.61541(15) 0.01317(21) 0.29629(7)
O72_3 O 0.5519(8) 0.1821(11) 0.2778(4)
O73_3 O 0.5122(8) 0.2788(11) 0.2774(4)
O74_3 O 0.6484(8) 0.2530(11) 0.2264(4)
O75_3 O 0.5012(9) 0.2029(13) 0.2150(4)
O76_3 O 0.5455(8) 0.1357(11) 0.3747(4)
O77_3 O 0.4899(8) 0.2021(11) 0.3335(4)
O78_3 O 0.6151(8) 0.1229(11) 0.3170(4)
O79_3 O 0.4622(8) 0.0592(11) 0.3186(4)
O80_3 O 0.5492(8) 0.1806(11) 0.4693(4)
O81_3 O 0.4917(8) 0.2021(11) 0.4134(4)
O82_3 O 0.4590(8) 0.0582(11) 0.4296(4)
O83_3 O 0.5084(8) 0.2790(11) 0.4687(4)
O84_3 O 0.6461(8) 0.2528(11) 0.5194(4)
O85_3 O 0.4985(8) 0.2092(11) 0.5317(4)
O86_3 O 0.4769(8) 0.2939(11) 0.3728(4)
O87_3 O 0.3911(8) 0.2466(11) 0.4301(4)
O88_3 O 0.5086(8) 0.3854(11) 0.4295(4)
O89_3 O 0.3876(8) 0.2423(11) 0.3141(4)
O90_3 O 0.8210(12) 0.2163(17) 0.1333(6)
N11_3 N 0.3403(11) 0.0026(16) 0.2003(5)
N15_3 N 0.6722(11) 0.0793(16) 0.1783(5)
N16_3 N 0.6383(10) 0.0373(14) 0.2478(5)
C34_3 C 0.7235(12) 0.0025(17) 0.3502(6)
H25_3 H 0.7319 0.0118 0.3259
C35_3 C 0.7775(13) 0.0070(18) 0.3724(6)
H26_3 H 0.8241 0.0200 0.3625
C41_3 C 0.6645(13) 0.0036(18) 0.2273(6)
C46_3 C 0.6816(13) 0.0255(18) 0.1904(6)
C47_3 C 0.6436(13) 0.1117(18) 0.1990(6)
H35_3 H 0.6336 0.1482 0.1900
C48_3 C 0.6301(12) 0.0904(18) 0.2326(6)
H36_3 H 0.6129 0.1156 0.2470
C49_3 C 0.3188(13) 0.0508(18) 0.2095(6)
C50_3 C 0.2903(13) 0.0802(18) 0.1837(6)
H37_3 H 0.2909 0.0682 0.1599
C51_3 C 0.2633(13) 0.1240(18) 0.1922(6)
H38_3 H 0.2422 0.1403 0.1749
C52_3 C 0.2666(13) 0.1455(18) 0.2273(6)
H39_3 H 0.2531 0.1813 0.2333
C53_3 C 0.2891(13) 0.1150(18) 0.2533(6)
H40_3 H 0.2864 0.1252 0.2772
C54_3 C 0.3149(13) 0.0708(18) 0.2435(6)
C58_3 C 0.4504(14) 0.0227(20) 0.0983(7)
H43_3 H 0.4561 0.0290 0.1229
C59_3 C 0.5088(15) 0.0524(21) 0.0792(7)
H44_3 H 0.5558 0.0765 0.0902
C60_3 C 0.5048(15) 0.0500(21) 0.0413(7)
H45_3 H 0.5479 0.0733 0.0272
C61_3 C 0.4249(15) 0.0065(21) 0.0251(7)
H46_3 H 0.4173 0.0016 0.0006
W25_3 W 0.23284(7) 0.58274(5) 0.35163(2)
W26_3 W 0.14176(7) 0.59093(5) 0.26971(2)
W27_3 W 0.14117(6) 0.59332(4) 0.171796(19)
W28_3 W 0.23768(6) 0.57556(4) 0.09485(2)
W29_3 W 0.22369(6) 0.47373(4) 0.176549(19)
W30_3 W 0.22575(6) 0.47345(4) 0.27449(2)
Cu10_3 Cu 0.03769(23) 0.36161(16) 0.15457(7)
O91_3 O 0.1754(11) 0.5918(8) 0.3189(4)
O92_3 O 0.2340(11) 0.5109(7) 0.3192(4)
O93_3 O 0.2639(11) 0.6777(8) 0.3707(4)
O94_3 O 0.1716(11) 0.5292(8) 0.3821(4)
O95_3 O 0.1391(11) 0.6045(8) 0.2220(4)
O96_3 O 0.1679(11) 0.5190(8) 0.2638(4)
O97_3 O 0.0483(11) 0.5385(8) 0.2788(4)
O98_3 O 0.1559(11) 0.6860(8) 0.2793(4)
O99_3 O 0.1748(11) 0.5913(8) 0.1272(4)
O100_3 O 0.1648(11) 0.5186(8) 0.1830(4)
O101_3 O 0.0473(11) 0.5422(8) 0.1655(4)
O102_3 O 0.1566(11) 0.6885(8) 0.1666(4)
O103_3 O 0.2325(11) 0.5081(8) 0.1279(4)
O104_3 O 0.1761(13) 0.5202(9) 0.0641(4)
O105_3 O 0.2637(11) 0.6721(8) 0.0764(4)
O106_3 O 0.2305(11) 0.4656(8) 0.2236(4)
O107_3 O 0.1535(11) 0.3849(8) 0.1676(4)
O108_3 O 0.1584(11) 0.3834(8) 0.2807(4)
N17_3 N 0.0155(14) 0.6189(10) 0.3441(5)
N21_3 N 0.0519(17) 0.3705(12) 0.1057(5)
N22_3 N 0.0589(18) 0.3587(13) 0.0343(6)
C65_3 C 0.0158(17) 0.6734(12) 0.3652(6)
C68_3 C 0.0060(18) 0.7753(12) 0.4078(6)
H51_3 H 0.0010 0.8096 0.4222
C69_3 C 0.0279(17) 0.7249(12) 0.4216(6)
H52_3 H 0.0397 0.7277 0.4457
C70_3 C 0.0322(17) 0.6768(12) 0.4030(6)
C71_3 C 0.0520(17) 0.5793(12) 0.3950(6)
H53_3 H 0.0661 0.5462 0.4045
C72_3 C 0.0323(17) 0.5716(12) 0.3595(6)
H54_3 H 0.0311 0.5326 0.3462
C74_3 C 0.0515(17) 0.7277(12) 0.2411(6)
H55_3 H 0.0632 0.7313 0.2652
C75_3 C 0.0887(18) 0.7878(13) 0.2200(6)
H56_3 H 0.1283 0.8320 0.2293
C76_3 C 0.0688(18) 0.7852(13) 0.1840(6)
H57_3 H 0.0927 0.8275 0.1694
C77_3 C 0.0155(18) 0.7212(13) 0.1721(6)
H58_3 H 0.0040 0.7197 0.1480
C87_3 C 0.0026(18) 0.3645(13) 0.2605(6)
H65_3 H 0.0227 0.4009 0.2783
C88_3 C 0.0221(18) 0.3875(13) 0.2241(6)
H66_3 H 0.0522 0.4381 0.2183
C89_3 C 0.0178(21) 0.3977(15) 0.0848(7)
C94_3 C 0.0232(22) 0.3912(16) 0.0478(7)
C95_3 C 0.0959(22) 0.3421(15) 0.0552(7)
H71_3 H 0.1279 0.3262 0.0462
C96_3 C 0.0898(20) 0.3472(14) 0.0919(7)
H72_3 H 0.1162 0.3319 0.1067
W38_3 W 0.34989(5) 0.76716(7) 0.35163(2)
W39_3 W 0.44916(5) 0.85824(7) 0.26971(2)
W40_3 W 0.45214(4) 0.85883(6) 0.171796(19)
W42_3 W 0.33787(4) 0.76232(6) 0.09485(2)
W44_3 W 0.25003(4) 0.77631(6) 0.176549(19)
W46_3 W 0.24769(4) 0.77425(6) 0.27449(2)
W48_3 W 0.74775(7) 0.31187(5) 0.24538(2)
W49_3 W 0.85704(7) 0.39432(5) 0.32589(2)
W51_3 W 0.85549(7) 0.39079(5) 0.42313(2)
W53_3 W 0.74245(7) 0.30523(5) 0.50145(2)
W54_3 W 0.71343(7) 0.19419(5) 0.42128(2)
W56_3 W 0.71786(6) 0.19764(5) 0.32360(2)
O129_3 O 0.4137(8) 0.7361(11) 0.3707(4)
O133_3 O 0.5300(8) 0.8441(11) 0.2793(4)
O137_3 O 0.5318(8) 0.8434(11) 0.1666(4)
O140_3 O 0.4083(8) 0.7363(11) 0.0764(4)
O144_3 O 0.7470(11) 0.3955(8) 0.2264(4)
O146_3 O 0.8771(11) 0.4923(8) 0.3170(4)
O151_3 O 0.7472(11) 0.3934(8) 0.5194(4)
O153_3 O 0.6146(11) 0.1233(8) 0.4295(4)
H73_3 H 0.347417 0.14448 0.144551
H74_3 H 0.396074 0.161527 0.109278
H75_3 H 0.85552 0.202937 0.144551
H76_3 H 0.838473 0.234547 0.109278
Cu6_3 Cu 0.32391(16) 0.96231(23) 0.15457(7)
O54_3 O 0.4163(8) 0.8246(11) 0.3189(4)
O55_3 O 0.2768(8) 0.7660(11) 0.3192(4)
O57_3 O 0.3575(8) 0.8284(11) 0.3821(4)
O58_3 O 0.4653(8) 0.8609(11) 0.2220(4)
O59_3 O 0.3510(8) 0.8321(11) 0.2638(4)
O60_3 O 0.4901(8) 0.9517(11) 0.2788(4)
O62_3 O 0.4164(8) 0.8252(11) 0.1272(4)
O63_3 O 0.3537(8) 0.8352(11) 0.1830(4)
O64_3 O 0.4948(8) 0.9527(11) 0.1655(4)
O66_3 O 0.2755(8) 0.7675(11) 0.1279(4)
O67_3 O 0.3440(9) 0.8239(13) 0.0641(4)
O69_3 O 0.2350(8) 0.7695(11) 0.2236(4)
O70_3 O 0.2313(8) 0.8465(11) 0.1676(4)
O71_3 O 0.2249(8) 0.8416(11) 0.2807(4)
N9_3 N 0.6033(10) 0.9845(14) 0.3441(5)
N13_3 N 0.3185(12) 0.9481(17) 0.1057(5)
N14_3 N 0.2997(12) 0.9411(18) 0.0343(6)
C33_3 C 0.6575(12) 0.9842(17) 0.3652(6)
C36_3 C 0.7692(13) 0.9940(18) 0.4078(6)
H27_3 H 0.8085 0.9990 0.4222
C37_3 C 0.6969(12) 0.9721(17) 0.4216(6)
H28_3 H 0.6879 0.9603 0.4457
C38_3 C 0.6445(12) 0.9678(17) 0.4030(6)
C39_3 C 0.5272(12) 0.9480(17) 0.3950(6)
H29_3 H 0.4800 0.9339 0.4045
C40_3 C 0.5392(12) 0.9677(17) 0.3595(6)
H30_3 H 0.5014 0.9689 0.3462
C42_3 C 0.6761(12) 0.9485(17) 0.2411(6)
H31_3 H 0.6680 0.9368 0.2652
C43_3 C 0.6990(12) 0.9113(18) 0.2200(6)
H32_3 H 0.7036 0.8717 0.2293
C44_3 C 0.7163(13) 0.9312(18) 0.1840(6)
H33_3 H 0.7347 0.9073 0.1694
C45_3 C 0.7056(13) 0.9845(18) 0.1721(6)
H34_3 H 0.7156 0.9960 0.1480
C55_3 C 0.3618(12) 0.9974(18) 0.2605(6)
H41_3 H 0.3781 0.9773 0.2783
C56_3 C 0.3653(12) 0.9779(18) 0.2241(6)
H42_3 H 0.3858 0.9478 0.2183
C57_3 C 0.3798(15) 0.9822(21) 0.0848(7)
C62_3 C 0.3679(15) 0.9768(22) 0.0478(7)
C63_3 C 0.2461(16) 0.9041(22) 0.0552(7)
H47_3 H 0.1982 0.8721 0.0462
C64_3 C 0.2573(14) 0.9102(20) 0.0919(7)
H48_3 H 0.2156 0.8838 0.1067
Cu9_3 Cu 0.98683(21) 0.60225(15) 0.29629(7)
O109_3 O 0.8179(11) 0.3699(8) 0.2778(4)
O110_3 O 0.7212(11) 0.2335(8) 0.2774(4)
O112_3 O 0.7971(13) 0.2984(9) 0.2150(4)
O113_3 O 0.8643(11) 0.4099(8) 0.3747(4)
O114_3 O 0.7979(11) 0.2879(8) 0.3335(4)
O116_3 O 0.9408(11) 0.4031(8) 0.3186(4)
O117_3 O 0.8194(11) 0.3687(8) 0.4693(4)
O118_3 O 0.7979(11) 0.2897(8) 0.4134(4)
O119_3 O 0.9418(11) 0.4009(8) 0.4296(4)
O120_3 O 0.7210(11) 0.2295(8) 0.4687(4)
O122_3 O 0.7908(11) 0.2894(8) 0.5317(4)
O123_3 O 0.7061(11) 0.1831(8) 0.3728(4)
O124_3 O 0.7534(11) 0.1446(8) 0.4301(4)
O126_3 O 0.7577(11) 0.1454(8) 0.3141(4)
O127_3 O 0.7837(17) 0.6048(12) 0.1333(6)
N19_3 N 0.9974(16) 0.3378(11) 0.2003(5)
N23_3 N 0.9207(16) 0.5930(11) 0.1783(5)
N24_3 N 0.9627(14) 0.6011(10) 0.2478(5)
C66_3 C 0.9975(17) 0.7211(12) 0.3502(6)
H49_3 H 0.9882 0.7202 0.3259
C67_3 C 0.9930(18) 0.7706(13) 0.3724(6)
H50_3 H 0.9800 0.8042 0.3625
C73_3 C 0.9964(18) 0.6610(13) 0.2273(6)
C78_3 C 0.9745(18) 0.6562(13) 0.1904(6)
C79_3 C 0.8883(18) 0.5320(13) 0.1990(6)
H59_3 H 0.8518 0.4855 0.1900
C80_3 C 0.9096(18) 0.5398(13) 0.2326(6)
H60_3 H 0.8844 0.4974 0.2470
C81_3 C 0.9492(18) 0.2681(13) 0.2095(6)
C82_3 C 0.9198(18) 0.2102(13) 0.1837(6)
H61_3 H 0.9318 0.2228 0.1599
C83_3 C 0.8760(18) 0.1394(13) 0.1922(6)
H62_3 H 0.8597 0.1020 0.1749
C84_3 C 0.8545(18) 0.1212(13) 0.2273(6)
H63_3 H 0.8187 0.0719 0.2333
C85_3 C 0.8850(18) 0.1742(13) 0.2533(6)
H64_3 H 0.8748 0.1613 0.2772
C86_3 C 0.9292(18) 0.2442(13) 0.2435(6)
C90_3 C 0.9773(20) 0.4278(14) 0.0983(7)
H67_3 H 0.9710 0.4272 0.1229
C91_3 C 0.9476(21) 0.4565(15) 0.0792(7)
H68_3 H 0.9235 0.4794 0.0902
C92_3 C 0.9500(21) 0.4549(15) 0.0413(7)
H69_3 H 0.9267 0.4747 0.0272
C93_3 C 0.9935(21) 0.4185(15) 0.0251(7)
H70_3 H 0.9984 0.4158 0.0006
H77_3 H 0.797063 0.652583 0.144551
H78_3 H 0.765453 0.603926 0.109278
loop_
_geom_bond_atom_site_label_1
_geom_bond_atom_site_label_2
_geom_bond_site_symmetry_1
_geom_bond_site_symmetry_2
W6 O3 1_555 1_555
Cu2 O21 1_555 1_555
Cu4 N6 1_555 1_555
P1 O2 1_555 1_555
O20 W5 1_555 1_555
O21 W5 1_555 1_555
O22 W6 1_555 1_555
N5 Cu2 1_555 1_555
C18 C17 1_555 1_555
H13 C18 1_555 1_555
C19 C18 1_555 1_555
H14 C19 1_555 1_555
C20 C19 1_555 1_555
H15 C20 1_555 1_555
C21 C20 1_555 1_555
H16 C21 1_555 1_555
C22 C17 1_555 1_555
C31 N6 1_555 1_555
H23 C31 1_555 1_555
C32 N5 1_555 1_555
H24 C32 1_555 1_555
O46 W6 1_555 1_555
O48 W5 1_555 1_555
W38 O2 1_555 1_555
W39 O46 1_555 1_555
W40 O48 1_555 1_555
W42 O16 1_555 1_555
O133 W6 1_555 1_555
O137 W5 1_555 1_555
N29 Cu4 1_555 1_555
W5 O17 1_555 1_555
W6 O20 1_555 1_555
P1 O46 1_555 1_555
P2 O16 1_555 1_555
P2 O48 1_555 1_555
C21 C22 1_555 1_555
C31 C32 1_555 1_555
W38 O129 1_555 1_555
W39 O133 1_555 1_555
W40 O137 1_555 1_555
W42 O140 1_555 1_555
W1 O1 1_555 1_555
W2 O1 1_555 1_555
W3 O7 1_555 1_555
W4 O11 1_555 1_555
W7 O23 1_555 1_555
W8 O23 1_555 1_555
W9 O28 1_555 1_555
W10 O32 1_555 1_555
W11 O33 1_555 1_555
W12 O25 1_555 1_555
Cu1 O9 1_555 1_555
Cu3 O45 1_555 1_555
P1_2 O2_2 1_555 1_555
P3 O24 1_555 1_555
P4 O34 1_555 1_555
O2_2 W1 1_555 1_555
O5 W1 1_555 1_555
O7 W2 1_555 1_555
O8 W2 1_555 1_555
O9 W2 1_555 1_555
O11 W3 1_555 1_555
O13 W3 1_555 1_555
O14 W3 1_555 1_555
O16_2 W4 1_555 1_555
O18 W4 1_555 1_555
O24 W7 1_555 1_555
O25 W7 1_555 1_555
O26 W7 1_555 1_555
O27 W7 1_555 1_555
O28 W8 1_555 1_555
O29 W8 1_555 1_555
O30 W8 1_555 1_555
O31 W8 1_555 1_555
O32 W9 1_555 1_555
O33 W9 1_555 1_555
O34 W9 1_555 1_555
O35 W9 1_555 1_555
O36 W10 1_555 1_555
O37 W10 1_555 1_555
O38 W10 1_555 1_555
O39 W10 1_555 1_555
O40 W11 1_555 1_555
O41 W11 1_555 1_555
O42 W11 1_555 1_555
O43 W12 1_555 1_555
O44 P3 1_555 1_555
N1 Cu1 1_555 1_555
N7 Cu3 1_555 1_555
N8 Cu1 1_555 1_555
C7 N2 1_555 1_555
H5 C7 1_555 1_555
C8 N1 1_555 1_555
H6 C8 1_555 1_555
C9 N8 1_555 1_555
C14 N7 1_555 1_555
C15 N7 1_555 1_555
H11 C15 1_555 1_555
C16 N8 1_555 1_555
H12 C16 1_555 1_555
C23 N4 1_555 1_555
H17 C23 1_555 1_555
C24 N3 1_555 1_555
H18 C24 1_555 1_555
C26 C25 1_555 1_555
H19 C26 1_555 1_555
C27 C26 1_555 1_555
H20 C27 1_555 1_555
C28 C27 1_555 1_555
H21 C28 1_555 1_555
C29 C28 1_555 1_555
H22 C29 1_555 1_555
C30 C25 1_555 1_555
O50 W12 1_555 1_555
O51 W8 1_555 1_555
O52 P4 1_555 1_555
O53 W11 1_555 1_555
W38 O54 1_555 1_555
W39 O54 1_555 1_555
W40 O58 1_555 1_555
W42 O62 1_555 1_555
W19 O24 1_555 1_555
W20 O44 1_555 1_555
W21 O52 1_555 1_555
W22 O36 1_555 1_555
W23 O34 1_555 1_555
W24 O30 1_555 1_555
Cu5 O60 1_555 1_555
Cu7 O90 1_555 1_555
O57 W38 1_555 1_555
O58 W39 1_555 1_555
O59 W39 1_555 1_555
O60 W39 1_555 1_555
O62 W40 1_555 1_555
O63 W40 1_555 1_555
O64 W40 1_555 1_555
O67 W42 1_555 1_555
O72 W19 1_555 1_555
O73 W19 1_555 1_555
O74 W19 1_555 1_555
O75 W19 1_555 1_555
O76 W20 1_555 1_555
O77 W20 1_555 1_555
O78 W20 1_555 1_555
O79 W20 1_555 1_555
O80 W21 1_555 1_555
O81 W21 1_555 1_555
O82 W21 1_555 1_555
O83 W22 1_555 1_555
O84 W22 1_555 1_555
O85 W22 1_555 1_555
O86 W23 1_555 1_555
O87 W23 1_555 1_555
O88 W9 1_555 1_555
O89 W24 1_555 1_555
N9 Cu5 1_555 1_555
N10 C38 1_555 1_555
N15 Cu7 1_555 1_555
N16 Cu5 1_555 1_555
C33 N9 1_555 1_555
C34 C33 1_555 1_555
H25 C34 1_555 1_555
C35 C34 1_555 1_555
H26 C35 1_555 1_555
C36 C35 1_555 1_555
H27 C36 1_555 1_555
C37 C36 1_555 1_555
H28 C37 1_555 1_555
C38 C33 1_555 1_555
C39 N10 1_555 1_555
H29 C39 1_555 1_555
C40 N9 1_555 1_555
H30 C40 1_555 1_555
C41 N16 1_555 1_555
C42 C41 1_555 1_555
H31 C42 1_555 1_555
C43 C42 1_555 1_555
H32 C43 1_555 1_555
C44 C43 1_555 1_555
H33 C44 1_555 1_555
C45 C44 1_555 1_555
H34 C45 1_555 1_555
C46 N15 1_555 1_555
C47 N15 1_555 1_555
H35 C47 1_555 1_555
C48 N16 1_555 1_555
H36 C48 1_555 1_555
C55 N12 1_555 1_555
H41 C55 1_555 1_555
C56 N11 1_555 1_555
H42 C56 1_555 1_555
C58 C57 1_555 1_555
H43 C58 1_555 1_555
C59 C58 1_555 1_555
H44 C59 1_555 1_555
C60 C59 1_555 1_555
H45 C60 1_555 1_555
C61 C60 1_555 1_555
H46 C61 1_555 1_555
C62 C57 1_555 1_555
W48 O24 1_555 1_555
W49 O50 1_555 1_555
W51 O42 1_555 1_555
W53 O36 1_555 1_555
W54 O52 1_555 1_555
W56 O44 1_555 1_555
Cu14 N2 1_555 1_555
Cu15 N10 1_555 1_555
O144 W7 1_555 1_555
O146 W12 1_555 1_555
O151 W10 1_555 1_555
O153 W21 1_555 1_555
N25 Cu7 1_555 1_555
N27 Cu3 1_555 1_555
W11 O37 1_555 1_555
W12 O29 1_555 1_555
W12 O40 1_555 1_555
Cu1 O30 1_555 1_555
P2_2 O16_2 1_555 1_555
P3 O50 1_555 1_555
P3 O51 1_555 1_555
P4 O36 1_555 1_555
P4 O53 1_555 1_555
O26 W19 1_555 1_555
O38 W22 1_555 1_555
C7 C8 1_555 1_555
C9 C14 1_555 1_555
C15 C16 1_555 1_555
C23 C24 1_555 1_555
C29 C30 1_555 1_555
O51 W24 1_555 1_555
O53 W51 1_555 1_555
W20 O72 1_555 1_555
W21 O76 1_555 1_555
W22 O80 1_555 1_555
W23 O81 1_555 1_555
W23 O83 1_555 1_555
W23 O88 1_555 1_555
W24 O73 1_555 1_555
W24 O77 1_555 1_555
W24 O86 1_555 1_555
Cu5 O78 1_555 1_555
O74 W48 1_555 1_555
O78 W56 1_555 1_555
O84 W53 1_555 1_555
C37 C38 1_555 1_555
C39 C40 1_555 1_555
C41 C46 1_555 1_555
C45 C46 1_555 1_555
C47 C48 1_555 1_555
C55 C56 1_555 1_555
C61 C62 1_555 1_555
W48 O144 1_555 1_555
W49 O146 1_555 1_555
W53 O151 1_555 1_555
W54 O153 1_555 1_555
O45 H73 1_555 1_555
O45 H74 1_555 1_555
O90 H75 1_555 1_555
O90 H76 1_555 1_555
P1_3 O2_3 1_555 1_555
O47 P1_3 1_555 1_555
O49 P2_3 1_555 1_555
C66 C65 1_555 1_555
H49 C66 1_555 1_555
C67 C66 1_555 1_555
H50 C67 1_555 1_555
C68 C67 1_555 1_555
H51 C68 1_555 1_555
C69 C68 1_555 1_555
H52 C69 1_555 1_555
C70 C65 1_555 1_555
H55 C74 1_555 1_555
C75 C74 1_555 1_555
H56 C75 1_555 1_555
C76 C75 1_555 1_555
H57 C76 1_555 1_555
C77 C76 1_555 1_555
H58 C77 1_555 1_555
W44 O49 1_555 1_555
W46 O47 1_555 1_555
P2_3 O16_3 1_555 1_555
O98 W46 1_555 1_555
O102 W44 1_555 1_555
C69 C70 1_555 1_555
P1_4 O2_4 1_555 1_555
P2_4 O12 1_555 1_555
C2 C1 1_555 1_555
H1 C2 1_555 1_555
C3 C2 1_555 1_555
H2 C3 1_555 1_555
C4 C3 1_555 1_555
H3 C4 1_555 1_555
C5 C4 1_555 1_555
H4 C5 1_555 1_555
C6 C1 1_555 1_555
H7 C10 1_555 1_555
C11 C10 1_555 1_555
H8 C11 1_555 1_555
C12 C11 1_555 1_555
H9 C12 1_555 1_555
C13 C12 1_555 1_555
H10 C13 1_555 1_555
W46 O55 1_555 1_555
Cu6 O70 1_555 1_555
Cu8 N14 1_555 1_555
O69 W44 1_555 1_555
O70 W44 1_555 1_555
O71 W46 1_555 1_555
N13 Cu6 1_555 1_555
C50 C49 1_555 1_555
H37 C50 1_555 1_555
C51 C50 1_555 1_555
H38 C51 1_555 1_555
C52 C51 1_555 1_555
H39 C52 1_555 1_555
C53 C52 1_555 1_555
H40 C53 1_555 1_555
C54 C49 1_555 1_555
C63 N14 1_555 1_555
H47 C63 1_555 1_555
C64 N13 1_555 1_555
H48 C64 1_555 1_555
W25 O2_4 1_555 1_555
W28 O16_4 1_555 1_555
W29 O12 1_555 1_555
W30 O6 1_555 1_555
W48 O109 1_555 1_555
W49 O109 1_555 1_555
W51 O113 1_555 1_555
W53 O117 1_555 1_555
W54 O118 1_555 1_555
W56 O110 1_555 1_555
Cu9 O97 1_555 1_555
Cu10 O107 1_555 1_555
Cu11 O127 1_555 1_555
Cu12 N22 1_555 1_555
O91 W25 1_555 1_555
O92 W25 1_555 1_555
O94 W25 1_555 1_555
O95 W26 1_555 1_555
O96 W26 1_555 1_555
O97 W26 1_555 1_555
O99 W27 1_555 1_555
O100 W27 1_555 1_555
O101 W27 1_555 1_555
O103 W28 1_555 1_555
O104 W28 1_555 1_555
O106 W29 1_555 1_555
O107 W29 1_555 1_555
O108 W30 1_555 1_555
O110 W48 1_555 1_555
O112 W48 1_555 1_555
O113 W49 1_555 1_555
O114 W49 1_555 1_555
O116 W49 1_555 1_555
O117 W51 1_555 1_555
O118 W51 1_555 1_555
O119 W51 1_555 1_555
O120 W53 1_555 1_555
O122 W53 1_555 1_555
O123 W54 1_555 1_555
O124 W54 1_555 1_555
O126 W56 1_555 1_555
N17 Cu9 1_555 1_555
N19 Cu10 1_555 1_555
N20 C86 1_555 1_555
N21 Cu10 1_555 1_555
N22 C94 1_555 1_555
N23 Cu11 1_555 1_555
N24 Cu9 1_555 1_555
C71 N18 1_555 1_555
H53 C71 1_555 1_555
C72 N17 1_555 1_555
H54 C72 1_555 1_555
C73 N24 1_555 1_555
C78 N23 1_555 1_555
C79 N23 1_555 1_555
H59 C79 1_555 1_555
C80 N24 1_555 1_555
H60 C80 1_555 1_555
C81 N19 1_555 1_555
C82 C81 1_555 1_555
H61 C82 1_555 1_555
C83 C82 1_555 1_555
H62 C83 1_555 1_555
C84 C83 1_555 1_555
H63 C84 1_555 1_555
C85 C84 1_555 1_555
H64 C85 1_555 1_555
C86 C81 1_555 1_555
C87 N20 1_555 1_555
H65 C87 1_555 1_555
C88 N19 1_555 1_555
H66 C88 1_555 1_555
C89 N21 1_555 1_555
C90 C89 1_555 1_555
H67 C90 1_555 1_555
C91 C90 1_555 1_555
H68 C91 1_555 1_555
C92 C91 1_555 1_555
H69 C92 1_555 1_555
C93 C92 1_555 1_555
H70 C93 1_555 1_555
C94 C89 1_555 1_555
C95 N22 1_555 1_555
H71 C95 1_555 1_555
C96 N21 1_555 1_555
H72 C96 1_555 1_555
Cu13 N18 1_555 1_555
Cu17 N20 1_555 1_555
N26 Cu11 1_555 1_555
N28 Cu12 1_555 1_555
N30 Cu8 1_555 1_555
P1_4 O6 1_555 1_555
P2_4 O16_4 1_555 1_555
O4 W25 1_555 1_555
O10 W30 1_555 1_555
O15 W29 1_555 1_555
O19 W28 1_555 1_555
C5 C6 1_555 1_555
W44 O66 1_555 1_555
W46 O69 1_555 1_555
C53 C54 1_555 1_555
C63 C64 1_555 1_555
W26 O91 1_555 1_555
W27 O95 1_555 1_555
W28 O99 1_555 1_555
W29 O100 1_555 1_555
W29 O103 1_555 1_555
W30 O92 1_555 1_555
W30 O96 1_555 1_555
W30 O106 1_555 1_555
W54 O120 1_555 1_555
W56 O114 1_555 1_555
W56 O123 1_555 1_555
Cu9 O146 1_555 1_555
C71 C72 1_555 1_555
C73 C78 1_555 1_555
C79 C80 1_555 1_555
C85 C86 1_555 1_555
C87 C88 1_555 1_555
C93 C94 1_555 1_555
C95 C96 1_555 1_555
O127 H77 1_555 1_555
O127 H78 1_555 1_555
W11_2 O33_2 1_555 1_555
O36_2 W10_2 1_555 1_555
O37_2 W10_2 1_555 1_555
O39_2 W10_2 1_555 1_555
O40_2 W11_2 1_555 1_555
O41_2 W11_2 1_555 1_555
O42_2 W11_2 1_555 1_555
O53_2 W11_2 1_555 1_555
W51_2 O42_2 1_555 1_555
O151_2 W10_2 1_555 1_555
W11_2 O37_2 1_555 1_555
P4_2 O36_2 1_555 1_555
P4_2 O53_2 1_555 1_555
O53_2 W51_2 1_555 1_555
W12_2 O25_2 1_555 1_555
P3_2 O24_2 1_555 1_555
O24_2 W7_2 1_555 1_555
O25_2 W7_2 1_555 1_555
O27_2 W7_2 1_555 1_555
O43_2 W12_2 1_555 1_555
N4_2 C22_2 1_555 1_555
C18_2 C17_2 1_555 1_555
H13_2 C18_2 1_555 1_555
C19_2 C18_2 1_555 1_555
H14_2 C19_2 1_555 1_555
C20_2 C19_2 1_555 1_555
H15_2 C20_2 1_555 1_555
C21_2 C20_2 1_555 1_555
H16_2 C21_2 1_555 1_555
C22_2 C17_2 1_555 1_555
O50_2 W12_2 1_555 1_555
W49_2 O50_2 1_555 1_555
Cu18_2 N4_2 1_555 1_555
O144_2 W7_2 1_555 1_555
O146_2 W12_2 1_555 1_555
P3_2 O50_2 1_555 1_555
C21_2 C22_2 1_555 1_555
W49_2 O146_2 1_555 1_555
C35_2 C34_2 1_555 1_555
H26_2 C35_2 1_555 1_555
C36_2 C35_2 1_555 1_555
H27_2 C36_2 1_555 1_555
C37_2 C36_2 1_555 1_555
H28_2 C37_2 1_555 1_555
W53_2 O36_3 1_555 1_555
P4_3 O36_3 1_555 1_555
P3_3 O24_3 1_555 1_555
Cu14 O90_2 1_555 1_555
N15_2 Cu14 1_555 1_555
H31_2 C42_2 1_555 1_555
C43_2 C42_2 1_555 1_555
H32_2 C43_2 1_555 1_555
C44_2 C43_2 1_555 1_555
H33_2 C44_2 1_555 1_555
C45_2 C44_2 1_555 1_555
H34_2 C45_2 1_555 1_555
C46_2 N15_2 1_555 1_555
W48_2 O24_3 1_555 1_555
C45_2 C46_2 1_555 1_555
O90_2 H75_2 1_555 1_555
O90_2 H76_2 1_555 1_555
W9_2 O28_2 1_555 1_555
P4_4 O34_2 1_555 1_555
O4_2 W1_2 1_555 1_555
O5_2 W1_2 1_555 1_555
O32_2 W9_2 1_555 1_555
O34_2 W9_2 1_555 1_555
O35_2 W9_2 1_555 1_555
N2_2 C6_2 1_555 1_555
C1_2 N1_2 1_555 1_555
C6_2 C1_2 1_555 1_555
C7_2 N2_2 1_555 1_555
H5_2 C7_2 1_555 1_555
C8_2 N1_2 1_555 1_555
H6_2 C8_2 1_555 1_555
O88_2 W9_2 1_555 1_555
W51_2 O113_2 1_555 1_555
O93_2 W25_2 1_555 1_555
O94_2 W25_2 1_555 1_555
O117_2 W51_2 1_555 1_555
O119_2 W51_2 1_555 1_555
N18_2 C70_2 1_555 1_555
C65_2 N17_2 1_555 1_555
C66_2 C65_2 1_555 1_555
C67_2 C66_2 1_555 1_555
H50_2 C67_2 1_555 1_555
C68_2 C67_2 1_555 1_555
H51_2 C68_2 1_555 1_555
C69_2 C68_2 1_555 1_555
H52_2 C69_2 1_555 1_555
C70_2 C65_2 1_555 1_555
C71_2 N18_2 1_555 1_555
H53_2 C71_2 1_555 1_555
C72_2 N17_2 1_555 1_555
H54_2 C72_2 1_555 1_555
Cu13_2 N18_2 1_555 1_555
Cu14_2 N2_2 1_555 1_555
O129_2 W1_2 1_555 1_555
P4_4 O36_4 1_555 1_555
O4_2 W25_2 1_555 1_555
C7_2 C8_2 1_555 1_555
O93_2 W38_2 1_555 1_555
C69_2 C70_2 1_555 1_555
C71_2 C72_2 1_555 1_555
W38_2 O129_2 1_555 1_555
W2_2 O1_2 1_555 1_555
W3_2 O7_2 1_555 1_555
W4_2 O11_2 1_555 1_555
W5_2 O13_2 1_555 1_555
W6_2 O3_2 1_555 1_555
W8_2 O23_2 1_555 1_555
Cu1_2 O9_2 1_555 1_555
Cu2_2 O21_2 1_555 1_555
Cu16 N6_2 1_555 1_555
P1_5 O2_5 1_555 1_555
P2_5 O12_2 1_555 1_555
P3_4 O24_4 1_555 1_555
O6_2 W2_2 1_555 1_555
O7_2 W2_2 1_555 1_555
O8_2 W2_2 1_555 1_555
O9_2 W2_2 1_555 1_555
O10_2 W2_2 1_555 1_555
O11_2 W3_2 1_555 1_555
O12_2 W3_2 1_555 1_555
O13_2 W3_2 1_555 1_555
O14_2 W3_2 1_555 1_555
O15_2 W3_2 1_555 1_555
O16_5 W4_2 1_555 1_555
O17_2 W4_2 1_555 1_555
O18_2 W4_2 1_555 1_555
O19_2 W4_2 1_555 1_555
O20_2 W5_2 1_555 1_555
O21_2 W5_2 1_555 1_555
O22_2 W6_2 1_555 1_555
O30_2 W8_2 1_555 1_555
O31_2 W8_2 1_555 1_555
N3_2 Cu2_2 1_555 1_555
N5_2 Cu2_2 1_555 1_555
N6_2 C30_2 1_555 1_555
N8_2 Cu1_2 1_555 1_555
C9_2 N8_2 1_555 1_555
H11_2 C15_2 1_555 1_555
C16_2 N8_2 1_555 1_555
H12_2 C16_2 1_555 1_555
H17_2 C23_2 1_555 1_555
C24_2 N3_2 1_555 1_555
H18_2 C24_2 1_555 1_555
C25_2 N5_2 1_555 1_555
C26_2 C25_2 1_555 1_555
H19_2 C26_2 1_555 1_555
C27_2 C26_2 1_555 1_555
H20_2 C27_2 1_555 1_555
C28_2 C27_2 1_555 1_555
H21_2 C28_2 1_555 1_555
C29_2 C28_2 1_555 1_555
H22_2 C29_2 1_555 1_555
C30_2 C25_2 1_555 1_555
C31_2 N6_2 1_555 1_555
C32_2 N5_2 1_555 1_555
O46_2 W6_2 1_555 1_555
O47_2 P1_5 1_555 1_555
O48_2 W5_2 1_555 1_555
O49_2 P2_5 1_555 1_555
O51_2 W8_2 1_555 1_555
W26_2 O47_2 1_555 1_555
W27_2 O49_2 1_555 1_555
W28_2 O16_5 1_555 1_555
W29_2 O12_2 1_555 1_555
W30_2 O6_2 1_555 1_555
W49_2 O109_2 1_555 1_555
Cu9_2 O97_2 1_555 1_555
Cu10_2 O107_2 1_555 1_555
Cu15 O127_2 1_555 1_555
Cu18 N22_2 1_555 1_555
O95_2 W26_2 1_555 1_555
O96_2 W26_2 1_555 1_555
O97_2 W26_2 1_555 1_555
O98_2 W26_2 1_555 1_555
O99_2 W27_2 1_555 1_555
O100_2 W27_2 1_555 1_555
O101_2 W27_2 1_555 1_555
O102_2 W27_2 1_555 1_555
O103_2 W28_2 1_555 1_555
O104_2 W28_2 1_555 1_555
O105_2 W28_2 1_555 1_555
O106_2 W29_2 1_555 1_555
O107_2 W29_2 1_555 1_555
O108_2 W30_2 1_555 1_555
O116_2 W49_2 1_555 1_555
N19_2 Cu10_2 1_555 1_555
N21_2 Cu10_2 1_555 1_555
N22_2 C94_2 1_555 1_555
N23_2 Cu15 1_555 1_555
N24_2 Cu9_2 1_555 1_555
C73_2 N24_2 1_555 1_555
C74_2 C73_2 1_555 1_555
H55_2 C74_2 1_555 1_555
C75_2 C74_2 1_555 1_555
H56_2 C75_2 1_555 1_555
C76_2 C75_2 1_555 1_555
H57_2 C76_2 1_555 1_555
C77_2 C76_2 1_555 1_555
H58_2 C77_2 1_555 1_555
C78_2 N23_2 1_555 1_555
C79_2 N23_2 1_555 1_555
H59_2 C79_2 1_555 1_555
C80_2 N24_2 1_555 1_555
H60_2 C80_2 1_555 1_555
H65_2 C87_2 1_555 1_555
C88_2 N19_2 1_555 1_555
H66_2 C88_2 1_555 1_555
C89_2 N21_2 1_555 1_555
C90_2 C89_2 1_555 1_555
H67_2 C90_2 1_555 1_555
C91_2 C90_2 1_555 1_555
H68_2 C91_2 1_555 1_555
C92_2 C91_2 1_555 1_555
H69_2 C92_2 1_555 1_555
C93_2 C92_2 1_555 1_555
H70_2 C93_2 1_555 1_555
C94_2 C89_2 1_555 1_555
C95_2 N22_2 1_555 1_555
C96_2 N21_2 1_555 1_555
W39_2 O46_2 1_555 1_555
W40_2 O48_2 1_555 1_555
W42_2 O16_5 1_555 1_555
W44_2 O49_2 1_555 1_555
W46_2 O47_2 1_555 1_555
O133_2 W6_2 1_555 1_555
O137_2 W5_2 1_555 1_555
O140_2 W4_2 1_555 1_555
W5_2 O17_2 1_555 1_555
W6_2 O8_2 1_555 1_555
W6_2 O20_2 1_555 1_555
Cu1_2 O30_2 1_555 1_555
P1_5 O6_2 1_555 1_555
P1_5 O46_2 1_555 1_555
P2_5 O16_5 1_555 1_555
P2_5 O48_2 1_555 1_555
P3_4 O51_2 1_555 1_555
O10_2 W30_2 1_555 1_555
O15_2 W29_2 1_555 1_555
O19_2 W28_2 1_555 1_555
C15_2 C16_2 1_555 1_555
C23_2 C24_2 1_555 1_555
C29_2 C30_2 1_555 1_555
C31_2 C32_2 1_555 1_555
W26_2 O91_2 1_555 1_555
W27_2 O95_2 1_555 1_555
W28_2 O99_2 1_555 1_555
W29_2 O100_2 1_555 1_555
W29_2 O103_2 1_555 1_555
W30_2 O92_2 1_555 1_555
W30_2 O96_2 1_555 1_555
W30_2 O106_2 1_555 1_555
Cu9_2 O146_2 1_555 1_555
O98_2 W46_2 1_555 1_555
O102_2 W44_2 1_555 1_555
O105_2 W42_2 1_555 1_555
C73_2 C78_2 1_555 1_555
C77_2 C78_2 1_555 1_555
C79_2 C80_2 1_555 1_555
C87_2 C88_2 1_555 1_555
C93_2 C94_2 1_555 1_555
C95_2 C96_2 1_555 1_555
W39_2 O133_2 1_555 1_555
W40_2 O137_2 1_555 1_555
W42_2 O140_2 1_555 1_555
O127_2 H77_2 1_555 1_555
O127_2 H78_2 1_555 1_555
C3_2 C2_2 1_555 1_555
H2_2 C3_2 1_555 1_555
C4_2 C3_2 1_555 1_555
H3_2 C4_2 1_555 1_555
C5_2 C4_2 1_555 1_555
H4_2 C5_2 1_555 1_555
O52_2 P4_5 1_555 1_555
W21_2 O52_2 1_555 1_555
W22_2 O36_5 1_555 1_555
O57_2 W38_2 1_555 1_555
O80_2 W21_2 1_555 1_555
O81_2 W21_2 1_555 1_555
O82_2 W21_2 1_555 1_555
O83_2 W22_2 1_555 1_555
O84_2 W22_2 1_555 1_555
O85_2 W22_2 1_555 1_555
O86_2 W23_2 1_555 1_555
O87_2 W23_2 1_555 1_555
N10_2 C38_2 1_555 1_555
C33_2 N9_2 1_555 1_555
C38_2 C33_2 1_555 1_555
C39_2 N10_2 1_555 1_555
H29_2 C39_2 1_555 1_555
C40_2 N9_2 1_555 1_555
H30_2 C40_2 1_555 1_555
W54_2 O118_2 1_555 1_555
O120_2 W53_2 1_555 1_555
O122_2 W53_2 1_555 1_555
O123_2 W54_2 1_555 1_555
O124_2 W54_2 1_555 1_555
Cu15_2 N10_2 1_555 1_555
O153_2 W21_2 1_555 1_555
P4_5 O36_5 1_555 1_555
W21_2 O76_2 1_555 1_555
W22_2 O80_2 1_555 1_555
W23_2 O81_2 1_555 1_555
W23_2 O83_2 1_555 1_555
C39_2 C40_2 1_555 1_555
W54_2 O120_2 1_555 1_555
Cu13 O45_2 1_555 1_555
P3_5 O24_5 1_555 1_555
O44_2 P3_5 1_555 1_555
N7_2 Cu13 1_555 1_555
H7_2 C10_2 1_555 1_555
C11_2 C10_2 1_555 1_555
H8_2 C11_2 1_555 1_555
C12_2 C11_2 1_555 1_555
H9_2 C12_2 1_555 1_555
C13_2 C12_2 1_555 1_555
H10_2 C13_2 1_555 1_555
C14_2 N7_2 1_555 1_555
W39_2 O54_2 1_555 1_555
W40_2 O58_2 1_555 1_555
W42_2 O62_2 1_555 1_555
W44_2 O63_2 1_555 1_555
W46_2 O55_2 1_555 1_555
W19_2 O24_5 1_555 1_555
W20_2 O44_2 1_555 1_555
Cu5_2 O60_2 1_555 1_555
Cu6_2 O70_2 1_555 1_555
Cu17 N14_2 1_555 1_555
O58_2 W39_2 1_555 1_555
O59_2 W39_2 1_555 1_555
O60_2 W39_2 1_555 1_555
O62_2 W40_2 1_555 1_555
O63_2 W40_2 1_555 1_555
O64_2 W40_2 1_555 1_555
O66_2 W42_2 1_555 1_555
O67_2 W42_2 1_555 1_555
O69_2 W44_2 1_555 1_555
O70_2 W44_2 1_555 1_555
O71_2 W46_2 1_555 1_555
O72_2 W19_2 1_555 1_555
O73_2 W19_2 1_555 1_555
O74_2 W19_2 1_555 1_555
O75_2 W19_2 1_555 1_555
O78_2 W20_2 1_555 1_555
O79_2 W20_2 1_555 1_555
O89_2 W24_2 1_555 1_555
N11_2 Cu6_2 1_555 1_555
N12_2 C54_2 1_555 1_555
N13_2 Cu6_2 1_555 1_555
N14_2 C62_2 1_555 1_555
N16_2 Cu5_2 1_555 1_555
C41_2 N16_2 1_555 1_555
H35_2 C47_2 1_555 1_555
C48_2 N16_2 1_555 1_555
H36_2 C48_2 1_555 1_555
C49_2 N11_2 1_555 1_555
C50_2 C49_2 1_555 1_555
H37_2 C50_2 1_555 1_555
C51_2 C50_2 1_555 1_555
H38_2 C51_2 1_555 1_555
C52_2 C51_2 1_555 1_555
H39_2 C52_2 1_555 1_555
C53_2 C52_2 1_555 1_555
H40_2 C53_2 1_555 1_555
C54_2 C49_2 1_555 1_555
C55_2 N12_2 1_555 1_555
H41_2 C55_2 1_555 1_555
C56_2 N11_2 1_555 1_555
H42_2 C56_2 1_555 1_555
C57_2 N13_2 1_555 1_555
C58_2 C57_2 1_555 1_555
H43_2 C58_2 1_555 1_555
C59_2 C58_2 1_555 1_555
H44_2 C59_2 1_555 1_555
C60_2 C59_2 1_555 1_555
H45_2 C60_2 1_555 1_555
C61_2 C60_2 1_555 1_555
H46_2 C61_2 1_555 1_555
C62_2 C57_2 1_555 1_555
C63_2 N14_2 1_555 1_555
H47_2 C63_2 1_555 1_555
C64_2 N13_2 1_555 1_555
H48_2 C64_2 1_555 1_555
W56_2 O110_2 1_555 1_555
O110_2 W48_2 1_555 1_555
O112_2 W48_2 1_555 1_555
O126_2 W56_2 1_555 1_555
N20_2 C86_2 1_555 1_555
C82_2 C81_2 1_555 1_555
H61_2 C82_2 1_555 1_555
C83_2 C82_2 1_555 1_555
H62_2 C83_2 1_555 1_555
C84_2 C83_2 1_555 1_555
H63_2 C84_2 1_555 1_555
C85_2 C84_2 1_555 1_555
H64_2 C85_2 1_555 1_555
C86_2 C81_2 1_555 1_555
Cu16_2 N12_2 1_555 1_555
Cu17_2 N20_2 1_555 1_555
C13_2 C14_2 1_555 1_555
W44_2 O66_2 1_555 1_555
W46_2 O59_2 1_555 1_555
W46_2 O69_2 1_555 1_555
W20_2 O72_2 1_555 1_555
W24_2 O73_2 1_555 1_555
Cu5_2 O78_2 1_555 1_555
C47_2 C48_2 1_555 1_555
C53_2 C54_2 1_555 1_555
C55_2 C56_2 1_555 1_555
C61_2 C62_2 1_555 1_555
C63_2 C64_2 1_555 1_555
C85_2 C86_2 1_555 1_555
O45_2 H73_2 1_555 1_555
O45_2 H74_2 1_555 1_555
W1_3 O1_3 1_555 1_555
W2_3 O1_3 1_555 1_555
W3_3 O7_3 1_555 1_555
W4_3 O11_3 1_555 1_555
W5_3 O13_3 1_555 1_555
W6_3 O3_3 1_555 1_555
W7_3 O23_3 1_555 1_555
W8_3 O23_3 1_555 1_555
W9_3 O28_3 1_555 1_555
W10_3 O32_3 1_555 1_555
W11_3 O33_3 1_555 1_555
W12_3 O25_3 1_555 1_555
Cu1_3 O9_3 1_555 1_555
Cu2_3 O21_3 1_555 1_555
Cu13_2 O45_3 1_555 1_555
P1_6 O2_6 1_555 1_555
P2_6 O12_3 1_555 1_555
P3_6 O24_6 1_555 1_555
P4_6 O34_3 1_555 1_555
O2_6 W1_3 1_555 1_555
O3_3 W1_3 1_555 1_555
O4_3 W1_3 1_555 1_555
O5_3 W1_3 1_555 1_555
O6_3 W2_3 1_555 1_555
O7_3 W2_3 1_555 1_555
O8_3 W2_3 1_555 1_555
O9_3 W2_3 1_555 1_555
O10_3 W2_3 1_555 1_555
O11_3 W3_3 1_555 1_555
O12_3 W3_3 1_555 1_555
O13_3 W3_3 1_555 1_555
O14_3 W3_3 1_555 1_555
O15_3 W3_3 1_555 1_555
O16_6 W4_3 1_555 1_555
O17_3 W4_3 1_555 1_555
O18_3 W4_3 1_555 1_555
O19_3 W4_3 1_555 1_555
O20_3 W5_3 1_555 1_555
O21_3 W5_3 1_555 1_555
O22_3 W6_3 1_555 1_555
O24_6 W7_3 1_555 1_555
O25_3 W7_3 1_555 1_555
O26_3 W7_3 1_555 1_555
O27_3 W7_3 1_555 1_555
O28_3 W8_3 1_555 1_555
O29_3 W8_3 1_555 1_555
O30_3 W8_3 1_555 1_555
O31_3 W8_3 1_555 1_555
O32_3 W9_3 1_555 1_555
O33_3 W9_3 1_555 1_555
O34_3 W9_3 1_555 1_555
O35_3 W9_3 1_555 1_555
O36_6 W10_3 1_555 1_555
O37_3 W10_3 1_555 1_555
O38_3 W10_3 1_555 1_555
O39_3 W10_3 1_555 1_555
O40_3 W11_3 1_555 1_555
O41_3 W11_3 1_555 1_555
O42_3 W11_3 1_555 1_555
O43_3 W12_3 1_555 1_555
O44_3 P3_6 1_555 1_555
N1_3 Cu1_3 1_555 1_555
N25 C6_3 1_555 1_555
N3_3 Cu2_3 1_555 1_555
N28 C22_3 1_555 1_555
N5_3 Cu2_3 1_555 1_555
N6_3 C30_3 1_555 1_555
N7_3 Cu13_2 1_555 1_555
N8_3 Cu1_3 1_555 1_555
C1_3 N1_3 1_555 1_555
C2_3 C1_3 1_555 1_555
H1_3 C2_3 1_555 1_555
C3_3 C2_3 1_555 1_555
H2_3 C3_3 1_555 1_555
C4_3 C3_3 1_555 1_555
H3_3 C4_3 1_555 1_555
C5_3 C4_3 1_555 1_555
H4_3 C5_3 1_555 1_555
C6_3 C1_3 1_555 1_555
C7_3 N25 1_555 1_555
H5_3 C7_3 1_555 1_555
C8_3 N1_3 1_555 1_555
H6_3 C8_3 1_555 1_555
C9_3 N8_3 1_555 1_555
C10_3 C9_3 1_555 1_555
H7_3 C10_3 1_555 1_555
C11_3 C10_3 1_555 1_555
H8_3 C11_3 1_555 1_555
C12_3 C11_3 1_555 1_555
H9_3 C12_3 1_555 1_555
C13_3 C12_3 1_555 1_555
H10_3 C13_3 1_555 1_555
C14_3 N7_3 1_555 1_555
C15_3 N7_3 1_555 1_555
H11_3 C15_3 1_555 1_555
C16_3 N8_3 1_555 1_555
H12_3 C16_3 1_555 1_555
C17_3 N3_3 1_555 1_555
C18_3 C17_3 1_555 1_555
H13_3 C18_3 1_555 1_555
C19_3 C18_3 1_555 1_555
H14_3 C19_3 1_555 1_555
C20_3 C19_3 1_555 1_555
H15_3 C20_3 1_555 1_555
C21_3 C20_3 1_555 1_555
H16_3 C21_3 1_555 1_555
C22_3 C17_3 1_555 1_555
C23_3 N28 1_555 1_555
H17_3 C23_3 1_555 1_555
C24_3 N3_3 1_555 1_555
H18_3 C24_3 1_555 1_555
C25_3 N5_3 1_555 1_555
C26_3 C25_3 1_555 1_555
H19_3 C26_3 1_555 1_555
C27_3 C26_3 1_555 1_555
H20_3 C27_3 1_555 1_555
C28_3 C27_3 1_555 1_555
H21_3 C28_3 1_555 1_555
C29_3 C28_3 1_555 1_555
H22_3 C29_3 1_555 1_555
C30_3 C25_3 1_555 1_555
C31_3 N6_3 1_555 1_555
H23_3 C31_3 1_555 1_555
C32_3 N5_3 1_555 1_555
H24_3 C32_3 1_555 1_555
O46_3 W6_3 1_555 1_555
O47_3 P1_6 1_555 1_555
O48_3 W5_3 1_555 1_555
O49_3 P2_6 1_555 1_555
O50_3 W12_3 1_555 1_555
O51_3 W8_3 1_555 1_555
O52_3 P4_6 1_555 1_555
O53_3 W11_3 1_555 1_555
W19_3 O24_6 1_555 1_555
W20_3 O44_3 1_555 1_555
W21_3 O52_3 1_555 1_555
W22_3 O36_6 1_555 1_555
W23_3 O34_3 1_555 1_555
W24_3 O30_3 1_555 1_555
Cu14_2 O90_3 1_555 1_555
O72_3 W19_3 1_555 1_555
O73_3 W19_3 1_555 1_555
O74_3 W19_3 1_555 1_555
O75_3 W19_3 1_555 1_555
O76_3 W20_3 1_555 1_555
O77_3 W20_3 1_555 1_555
O78_3 W20_3 1_555 1_555
O79_3 W20_3 1_555 1_555
O80_3 W21_3 1_555 1_555
O81_3 W21_3 1_555 1_555
O82_3 W21_3 1_555 1_555
O83_3 W22_3 1_555 1_555
O84_3 W22_3 1_555 1_555
O85_3 W22_3 1_555 1_555
O86_3 W23_3 1_555 1_555
O87_3 W23_3 1_555 1_555
O88_3 W9_3 1_555 1_555
O89_3 W24_3 1_555 1_555
N29 C54_3 1_555 1_555
N15_3 Cu14_2 1_555 1_555
N16_3 Cu5_3 1_555 1_555
H25_3 C34_3 1_555 1_555
C35_3 C34_3 1_555 1_555
H26_3 C35_3 1_555 1_555
C41_3 N16_3 1_555 1_555
C46_3 N15_3 1_555 1_555
C47_3 N15_3 1_555 1_555
H35_3 C47_3 1_555 1_555
C48_3 N16_3 1_555 1_555
H36_3 C48_3 1_555 1_555
C49_3 N11_3 1_555 1_555
C50_3 C49_3 1_555 1_555
H37_3 C50_3 1_555 1_555
C51_3 C50_3 1_555 1_555
H38_3 C51_3 1_555 1_555
C52_3 C51_3 1_555 1_555
H39_3 C52_3 1_555 1_555
C53_3 C52_3 1_555 1_555
H40_3 C53_3 1_555 1_555
C54_3 C49_3 1_555 1_555
H43_3 C58_3 1_555 1_555
C59_3 C58_3 1_555 1_555
H44_3 C59_3 1_555 1_555
C60_3 C59_3 1_555 1_555
H45_3 C60_3 1_555 1_555
C61_3 C60_3 1_555 1_555
H46_3 C61_3 1_555 1_555
W25_3 O2_6 1_555 1_555
W26_3 O47_3 1_555 1_555
W27_3 O49_3 1_555 1_555
W28_3 O16_6 1_555 1_555
W29_3 O12_3 1_555 1_555
W30_3 O6_3 1_555 1_555
Cu10_3 O107_3 1_555 1_555
O91_3 W25_3 1_555 1_555
O92_3 W25_3 1_555 1_555
O93_3 W25_3 1_555 1_555
O94_3 W25_3 1_555 1_555
O95_3 W26_3 1_555 1_555
O96_3 W26_3 1_555 1_555
O97_3 W26_3 1_555 1_555
O98_3 W26_3 1_555 1_555
O99_3 W27_3 1_555 1_555
O100_3 W27_3 1_555 1_555
O101_3 W27_3 1_555 1_555
O102_3 W27_3 1_555 1_555
O103_3 W28_3 1_555 1_555
O104_3 W28_3 1_555 1_555
O105_3 W28_3 1_555 1_555
O106_3 W29_3 1_555 1_555
O107_3 W29_3 1_555 1_555
O108_3 W30_3 1_555 1_555
N27 C70_3 1_555 1_555
N21_3 Cu10_3 1_555 1_555
N22_3 C94_3 1_555 1_555
C65_3 N17_3 1_555 1_555
H51_3 C68_3 1_555 1_555
C69_3 C68_3 1_555 1_555
H52_3 C69_3 1_555 1_555
C70_3 C65_3 1_555 1_555
C71_3 N27 1_555 1_555
H53_3 C71_3 1_555 1_555
C72_3 N17_3 1_555 1_555
H54_3 C72_3 1_555 1_555
H55_3 C74_3 1_555 1_555
C75_3 C74_3 1_555 1_555
H56_3 C75_3 1_555 1_555
C76_3 C75_3 1_555 1_555
H57_3 C76_3 1_555 1_555
C77_3 C76_3 1_555 1_555
H58_3 C77_3 1_555 1_555
H65_3 C87_3 1_555 1_555
H66_3 C88_3 1_555 1_555
C89_3 N21_3 1_555 1_555
C94_3 C89_3 1_555 1_555
C95_3 N22_3 1_555 1_555
H71_3 C95_3 1_555 1_555
C96_3 N21_3 1_555 1_555
H72_3 C96_3 1_555 1_555
W38_3 O2_6 1_555 1_555
W39_3 O46_3 1_555 1_555
W40_3 O48_3 1_555 1_555
W42_3 O16_6 1_555 1_555
W44_3 O49_3 1_555 1_555
W46_3 O47_3 1_555 1_555
W48_3 O24_6 1_555 1_555
W49_3 O50_3 1_555 1_555
W51_3 O42_3 1_555 1_555
W53_3 O36_6 1_555 1_555
W54_3 O52_3 1_555 1_555
W56_3 O44_3 1_555 1_555
O129_3 W1_3 1_555 1_555
O133_3 W6_3 1_555 1_555
O137_3 W5_3 1_555 1_555
O140_3 W4_3 1_555 1_555
O144_3 W7_3 1_555 1_555
O146_3 W12_3 1_555 1_555
O151_3 W10_3 1_555 1_555
O153_3 W21_3 1_555 1_555
W5_3 O17_3 1_555 1_555
W6_3 O8_3 1_555 1_555
W6_3 O20_3 1_555 1_555
W11_3 O37_3 1_555 1_555
W12_3 O29_3 1_555 1_555
W12_3 O40_3 1_555 1_555
Cu1_3 O30_3 1_555 1_555
P1_6 O6_3 1_555 1_555
P1_6 O46_3 1_555 1_555
P2_6 O16_6 1_555 1_555
P2_6 O48_3 1_555 1_555
P3_6 O50_3 1_555 1_555
P3_6 O51_3 1_555 1_555
P4_6 O36_6 1_555 1_555
P4_6 O53_3 1_555 1_555
O4_3 W25_3 1_555 1_555
O10_3 W30_3 1_555 1_555
O15_3 W29_3 1_555 1_555
O19_3 W28_3 1_555 1_555
O26_3 W19_3 1_555 1_555
O38_3 W22_3 1_555 1_555
C5_3 C6_3 1_555 1_555
C7_3 C8_3 1_555 1_555
C9_3 C14_3 1_555 1_555
C13_3 C14_3 1_555 1_555
C15_3 C16_3 1_555 1_555
C21_3 C22_3 1_555 1_555
C23_3 C24_3 1_555 1_555
C29_3 C30_3 1_555 1_555
C31_3 C32_3 1_555 1_555
O51_3 W24_3 1_555 1_555
O53_3 W51_3 1_555 1_555
W20_3 O72_3 1_555 1_555
W21_3 O76_3 1_555 1_555
W22_3 O80_3 1_555 1_555
W23_3 O81_3 1_555 1_555
W23_3 O83_3 1_555 1_555
W23_3 O88_3 1_555 1_555
W24_3 O73_3 1_555 1_555
W24_3 O77_3 1_555 1_555
W24_3 O86_3 1_555 1_555
Cu5_3 O78_3 1_555 1_555
O74_3 W48_3 1_555 1_555
O78_3 W56_3 1_555 1_555
O84_3 W53_3 1_555 1_555
C41_3 C46_3 1_555 1_555
C47_3 C48_3 1_555 1_555
C53_3 C54_3 1_555 1_555
W26_3 O91_3 1_555 1_555
W27_3 O95_3 1_555 1_555
W28_3 O99_3 1_555 1_555
W29_3 O100_3 1_555 1_555
W29_3 O103_3 1_555 1_555
W30_3 O92_3 1_555 1_555
W30_3 O96_3 1_555 1_555
W30_3 O106_3 1_555 1_555
O93_3 W38_3 1_555 1_555
O98_3 W46_3 1_555 1_555
O102_3 W44_3 1_555 1_555
O105_3 W42_3 1_555 1_555
C69_3 C70_3 1_555 1_555
C71_3 C72_3 1_555 1_555
C87_3 C88_3 1_555 1_555
C95_3 C96_3 1_555 1_555
W38_3 O129_3 1_555 1_555
W39_3 O133_3 1_555 1_555
W40_3 O137_3 1_555 1_555
W42_3 O140_3 1_555 1_555
W48_3 O144_3 1_555 1_555
W49_3 O146_3 1_555 1_555
W53_3 O151_3 1_555 1_555
W54_3 O153_3 1_555 1_555
O45_3 H73_3 1_555 1_555
O45_3 H74_3 1_555 1_555
O90_3 H75_3 1_555 1_555
O90_3 H76_3 1_555 1_555
W38_3 O54_3 1_555 1_555
W39_3 O54_3 1_555 1_555
W40_3 O58_3 1_555 1_555
W42_3 O62_3 1_555 1_555
W44_3 O63_3 1_555 1_555
W46_3 O55_3 1_555 1_555
Cu6_3 O70_3 1_555 1_555
O55_3 W38_3 1_555 1_555
O57_3 W38_3 1_555 1_555
O58_3 W39_3 1_555 1_555
O59_3 W39_3 1_555 1_555
O60_3 W39_3 1_555 1_555
O62_3 W40_3 1_555 1_555
O63_3 W40_3 1_555 1_555
O64_3 W40_3 1_555 1_555
O66_3 W42_3 1_555 1_555
O67_3 W42_3 1_555 1_555
O69_3 W44_3 1_555 1_555
O70_3 W44_3 1_555 1_555
O71_3 W46_3 1_555 1_555
N26 C38_3 1_555 1_555
N13_3 Cu6_3 1_555 1_555
N14_3 C62_3 1_555 1_555
C33_3 N9_3 1_555 1_555
H27_3 C36_3 1_555 1_555
C37_3 C36_3 1_555 1_555
H28_3 C37_3 1_555 1_555
C38_3 C33_3 1_555 1_555
C39_3 N26 1_555 1_555
H29_3 C39_3 1_555 1_555
C40_3 N9_3 1_555 1_555
H30_3 C40_3 1_555 1_555
H31_3 C42_3 1_555 1_555
C43_3 C42_3 1_555 1_555
H32_3 C43_3 1_555 1_555
C44_3 C43_3 1_555 1_555
H33_3 C44_3 1_555 1_555
C45_3 C44_3 1_555 1_555
H34_3 C45_3 1_555 1_555
H41_3 C55_3 1_555 1_555
H42_3 C56_3 1_555 1_555
C57_3 N13_3 1_555 1_555
C62_3 C57_3 1_555 1_555
C63_3 N14_3 1_555 1_555
H47_3 C63_3 1_555 1_555
C64_3 N13_3 1_555 1_555
H48_3 C64_3 1_555 1_555
W44_3 O66_3 1_555 1_555
W46_3 O59_3 1_555 1_555
W46_3 O69_3 1_555 1_555
C37_3 C38_3 1_555 1_555
C39_3 C40_3 1_555 1_555
C55_3 C56_3 1_555 1_555
C63_3 C64_3 1_555 1_555
W48_3 O109_3 1_555 1_555
W49_3 O109_3 1_555 1_555
W51_3 O113_3 1_555 1_555
W53_3 O117_3 1_555 1_555
W54_3 O118_3 1_555 1_555
W56_3 O110_3 1_555 1_555
Cu15_2 O127_3 1_555 1_555
O110_3 W48_3 1_555 1_555
O112_3 W48_3 1_555 1_555
O113_3 W49_3 1_555 1_555
O114_3 W49_3 1_555 1_555
O116_3 W49_3 1_555 1_555
O117_3 W51_3 1_555 1_555
O118_3 W51_3 1_555 1_555
O119_3 W51_3 1_555 1_555
O120_3 W53_3 1_555 1_555
O122_3 W53_3 1_555 1_555
O123_3 W54_3 1_555 1_555
O124_3 W54_3 1_555 1_555
O126_3 W56_3 1_555 1_555
N30 C86_3 1_555 1_555
N23_3 Cu15_2 1_555 1_555
N24_3 Cu9_3 1_555 1_555
H49_3 C66_3 1_555 1_555
C67_3 C66_3 1_555 1_555
H50_3 C67_3 1_555 1_555
C73_3 N24_3 1_555 1_555
C78_3 N23_3 1_555 1_555
C79_3 N23_3 1_555 1_555
H59_3 C79_3 1_555 1_555
C80_3 N24_3 1_555 1_555
H60_3 C80_3 1_555 1_555
C81_3 N19_3 1_555 1_555
C82_3 C81_3 1_555 1_555
H61_3 C82_3 1_555 1_555
C83_3 C82_3 1_555 1_555
H62_3 C83_3 1_555 1_555
C84_3 C83_3 1_555 1_555
H63_3 C84_3 1_555 1_555
C85_3 C84_3 1_555 1_555
H64_3 C85_3 1_555 1_555
C86_3 C81_3 1_555 1_555
H67_3 C90_3 1_555 1_555
C91_3 C90_3 1_555 1_555
H68_3 C91_3 1_555 1_555
C92_3 C91_3 1_555 1_555
H69_3 C92_3 1_555 1_555
C93_3 C92_3 1_555 1_555
H70_3 C93_3 1_555 1_555
W54_3 O120_3 1_555 1_555
W56_3 O114_3 1_555 1_555
W56_3 O123_3 1_555 1_555
Cu9_3 O146_3 1_555 1_555
C73_3 C78_3 1_555 1_555
C79_3 C80_3 1_555 1_555
C85_3 C86_3 1_555 1_555
O127_3 H77_3 1_555 1_555
O127_3 H78_3 1_555 1_555

#END
