
###############################################################################
#
# This file contains modified crystal structure data generated from the
# MOF subset of the Cambridge Structural Database (CSD) v543 
# hosted by the Cambridge Crystallographic Data Centre (CCDC).
#
# This work is licensed under the Creative Commons
# Attribution-NonCommercial-ShareAlike 4.0 International License.
# To view a copy of this license, visit
# http://creativecommons.org/licenses/by-nc-sa/4.0/
# or send a letter to
# Creative Commons, PO Box 1866, Mountain View, CA 94042, USA.
#
# CIF created using the CSD Python API on 29 September 2022
# The structure has been converted into the P1 space group
# The structure has a 3D framework
# The original CSD entry KEWZOD is in the orthorhombic crystal system
# The framework has been calculated to contain at least 10.0% void space
# The void calculation uses a probe of radius 1.32A, grid spacing 0.4
#
###############################################################################

data_KEWZOD
_chemical_formula_moiety         '(C76 H44 N8 O16 Zn4)n'
_symmetry_cell_setting           triclinic
_symmetry_space_group_name_H-M   'P 1'
_symmetry_Int_Tables_number      1
_space_group_name_Hall           'P 1'
loop_
_symmetry_equiv_pos_site_id
_symmetry_equiv_pos_as_xyz
1 x,y,z
_cell_length_a                   15.1309(8)
_cell_length_b                   18.0855(9)
_cell_length_c                   11.4414(6)
_cell_angle_alpha                90
_cell_angle_beta                 90
_cell_angle_gamma                90
_cell_volume                     3130.94
loop_
_atom_site_label
_atom_site_type_symbol
_atom_site_fract_x
_atom_site_fract_y
_atom_site_fract_z
O2 O 0.4196(4) 0.1002(3) 0.5000
O3 O 0.0718(5) 0.2936(3) 0.5000
O4 O 0.2116(6) 0.3158(4) 0.5000
C1 C 0.1661(5) 0.1916(4) 0.5000
C2 C 0.0952(5) 0.1443(5) 0.5000
H1 H 0.0382 0.1635 0.5000
C3 C 0.1075(5) 0.0661(5) 0.5000
C4 C 0.1940(5) 0.0386(4) 0.5000
C5 C 0.2651(5) 0.0858(4) 0.5000
C6 C 0.2521(5) 0.1632(4) 0.5000
H3 H 0.3004 0.1950 0.5000
C7 C 0.1510(6) 0.2738(5) 0.5000
C8 C 0.3569(4) 0.0553(4) 0.5000
C9 C 0.0328(6) 0.0187(6) 0.5000
Zn6 Zn 0.55213(5) 0.09842(4) 0.5000
Zn7 Zn 0.05213(5) 0.40158(4) 0.5000
Zn1 Zn 0.44787(5) 0.90158(4) 0.5000
O1 O 0.3641(4) 0.9865(3) 0.5000
N1 N 0.4473(3) 0.9055(3) 0.3092(5)
H2 H 0.2034 0.9878 0.5000
C10 C 0.3811(6) 0.9303(6) 0.2492(7)
H4 H 0.3330 0.9497 0.2894
C11 C 0.3783(6) 0.9295(6) 0.1263(7)
H5 H 0.3290 0.9484 0.0880
C12 C 0.4444(6) 0.9023(6) 0.0646(8)
C13 C 0.5133(7) 0.8796(7) 0.1296(7)
H6 H 0.5642 0.8631 0.0920
C14 C 0.5113(7) 0.8798(7) 0.2464(8)
H7 H 0.5596 0.8599 0.2855
O10 O 0.5804(4) 0.8998(3) 0.5000
O11 O 0.4282(5) 0.7936(3) 0.5000
N6 N 0.4473(3) 0.9055(3) 0.6908(5)
C24 C 0.3811(6) 0.9303(6) 0.7508(7)
H11 H 0.3330 0.9497 0.7106
C25 C 0.3783(6) 0.9295(6) 0.8737(7)
H12 H 0.3290 0.9484 0.9120
C26 C 0.4444(6) 0.9023(6) 0.9354(8)
C27 C 0.5133(7) 0.8796(7) 0.8704(7)
H13 H 0.5642 0.8631 0.9080
C28 C 0.5113(7) 0.8798(7) 0.7536(8)
H14 H 0.5596 0.8599 0.7145
O5 O 0.6359(4) 0.0135(3) 0.5000
H9 H 0.7966 0.0122 0.5000
N3 N 0.5527(3) 0.0945(3) 0.3092(5)
C29 C 0.6189(6) 0.0697(6) 0.2492(7)
H15 H 0.6670 0.0503 0.2894
C30 C 0.6217(6) 0.0705(6) 0.1263(7)
H16 H 0.6710 0.0516 0.0880
C31 C 0.5556(6) 0.0977(6) 0.0646(8)
C32 C 0.4867(7) 0.1204(7) 0.1296(7)
H17 H 0.4358 0.1369 0.0920
C33 C 0.4887(7) 0.1202(7) 0.2464(8)
H18 H 0.4404 0.1401 0.2855
O12 O 0.5718(5) 0.2064(3) 0.5000
N5 N 0.5527(3) 0.0945(3) 0.6908(5)
C34 C 0.6189(6) 0.0697(6) 0.7508(7)
H19 H 0.6670 0.0503 0.7106
C35 C 0.6217(6) 0.0705(6) 0.8737(7)
H20 H 0.6710 0.0516 0.9120
C36 C 0.5556(6) 0.0977(6) 0.9354(8)
C37 C 0.4867(7) 0.1204(7) 0.8704(7)
H21 H 0.4358 0.1369 0.9080
C38 C 0.4887(7) 0.1202(7) 0.7536(8)
H22 H 0.4404 0.1401 0.7145
O7 O 0.9282(5) 0.7064(3) 0.5000
O8 O 0.7884(6) 0.6842(4) 0.5000
C15 C 0.8339(5) 0.8084(4) 0.5000
C16 C 0.9048(5) 0.8557(5) 0.5000
H8 H 0.9618 0.8365 0.5000
C17 C 0.8925(5) 0.9339(5) 0.5000
C18 C 0.8060(5) 0.9614(4) 0.5000
C19 C 0.7349(5) 0.9142(4) 0.5000
C20 C 0.7479(5) 0.8368(4) 0.5000
H10 H 0.6996 0.8050 0.5000
C21 C 0.8490(6) 0.7262(5) 0.5000
C22 C 0.6431(4) 0.9447(4) 0.5000
C23 C 0.9672(6) 0.9813(6) 0.5000
Zn8 Zn 0.94787(5) 0.59842(4) 0.5000
C37_2 C 0.0133(7) 0.6204(7) 0.1296(7)
H21_2 H 0.0642 0.6369 0.0920
C38_2 C 0.0113(7) 0.6202(7) 0.2464(8)
H22_2 H 0.0596 0.6401 0.2855
C32_2 C 0.0133(7) 0.6204(7) 0.8704(7)
H17_2 H 0.0642 0.6369 0.9080
C33_2 C 0.0113(7) 0.6202(7) 0.7536(8)
H18_2 H 0.0596 0.6401 0.7145
O9 O 0.0804(4) 0.6002(3) 0.5000
N2 N 0.0527(3) 0.4055(3) 0.3092(5)
C24_2 C 0.1189(6) 0.4303(6) 0.2492(7)
H11_2 H 0.1670 0.4497 0.2894
C25_2 C 0.1217(6) 0.4295(6) 0.1263(7)
H12_2 H 0.1710 0.4484 0.0880
C26_2 C 0.0556(6) 0.4023(6) 0.0646(8)
N4 N 0.9473(3) 0.5945(3) 0.3092(5)
C34_2 C 0.8811(6) 0.5697(6) 0.2492(7)
H19_2 H 0.8330 0.5503 0.2894
C35_2 C 0.8783(6) 0.5705(6) 0.1263(7)
H20_2 H 0.8290 0.5516 0.0880
C36_2 C 0.9444(6) 0.5977(6) 0.0646(8)
O1_2 O 0.1359(4) 0.4865(3) 0.5000
O4_2 O 0.2884(6) 0.8158(4) 0.5000
N1_2 N 0.0527(3) 0.4055(3) 0.6908(5)
C1_2 C 0.3339(5) 0.6916(4) 0.5000
C2_2 C 0.4048(5) 0.6443(5) 0.5000
H1_2 H 0.4618 0.6635 0.5000
C3_2 C 0.3925(5) 0.5661(5) 0.5000
C4_2 C 0.3060(5) 0.5386(4) 0.5000
H2_2 H 0.2966 0.4878 0.5000
C5_2 C 0.2349(5) 0.5858(4) 0.5000
C6_2 C 0.2479(5) 0.6632(4) 0.5000
H3_2 H 0.1996 0.6950 0.5000
C7_2 C 0.3490(6) 0.7738(5) 0.5000
C8_2 C 0.1431(4) 0.5553(4) 0.5000
C9_2 C 0.4672(6) 0.5187(6) 0.5000
C10_2 C 0.1189(6) 0.4303(6) 0.7508(7)
H4_2 H 0.1670 0.4497 0.7106
C11_2 C 0.1217(6) 0.4295(6) 0.8737(7)
H5_2 H 0.1710 0.4484 0.9120
C12_2 C 0.0556(6) 0.4023(6) 0.9354(8)
O5_2 O 0.8641(4) 0.5135(3) 0.5000
O6 O 0.9196(4) 0.3998(3) 0.5000
O8_2 O 0.7116(6) 0.1842(4) 0.5000
C15_2 C 0.6661(5) 0.3084(4) 0.5000
C16_2 C 0.5952(5) 0.3557(5) 0.5000
H8_2 H 0.5382 0.3365 0.5000
C17_2 C 0.6075(5) 0.4339(5) 0.5000
C18_2 C 0.6940(5) 0.4614(4) 0.5000
H9_2 H 0.7034 0.5122 0.5000
C19_2 C 0.7651(5) 0.4142(4) 0.5000
C20_2 C 0.7521(5) 0.3368(4) 0.5000
H10_2 H 0.8004 0.3050 0.5000
C21_2 C 0.6510(6) 0.2262(5) 0.5000
C22_2 C 0.8569(4) 0.4447(4) 0.5000
C23_2 C 0.5328(6) 0.4813(6) 0.5000
N3_2 N 0.9473(3) 0.5945(3) 0.6908(5)
C29_2 C 0.8811(6) 0.5697(6) 0.7508(7)
H15_2 H 0.8330 0.5503 0.7106
C30_2 C 0.8783(6) 0.5705(6) 0.8737(7)
H16_2 H 0.8290 0.5516 0.9120
C31_2 C 0.9444(6) 0.5977(6) 0.9354(8)
C27_2 C 0.9867(7) 0.3796(7) 0.1296(7)
H13_2 H 0.9358 0.3631 0.0920
C28_2 C 0.9887(7) 0.3798(7) 0.2464(8)
H14_2 H 0.9404 0.3599 0.2855
C13_2 C 0.9867(7) 0.3796(7) 0.8704(7)
H6_2 H 0.9358 0.3631 0.9080
C14_2 C 0.9887(7) 0.3798(7) 0.7536(8)
H7_2 H 0.9404 0.3599 0.7145
loop_
_geom_bond_atom_site_label_1
_geom_bond_atom_site_label_2
_geom_bond_site_symmetry_1
_geom_bond_site_symmetry_2
O2 C8 1_555 1_555
O3 C7 1_555 1_555
O4 C7 1_555 1_555
C1 C2 1_555 1_555
C2 H1 1_555 1_555
C3 C2 1_555 1_555
C4 C3 1_555 1_555
C5 C4 1_555 1_555
C6 C1 1_555 1_555
H3 C6 1_555 1_555
C7 C1 1_555 1_555
C8 C5 1_555 1_555
C9 C3 1_555 1_555
Zn6 O2 1_555 1_555
Zn7 O3 1_555 1_555
C5 C6 1_555 1_555
Zn1 O1 1_555 1_555
N1 Zn1 1_555 1_555
C10 N1 1_555 1_555
H4 C10 1_555 1_555
C11 C10 1_555 1_555
H5 C11 1_555 1_555
C12 C11 1_555 1_555
C13 C12 1_555 1_555
H6 C13 1_555 1_555
C14 N1 1_555 1_555
H7 C14 1_555 1_555
O10 Zn1 1_555 1_555
O11 Zn1 1_555 1_555
N6 Zn1 1_555 1_555
C13 C14 1_555 1_555
N6 C24 1_555 1_555
C24 H11 1_555 1_555
C25 C24 1_555 1_555
H12 C25 1_555 1_555
C27 C26 1_555 1_555
H13 C27 1_555 1_555
C28 N6 1_555 1_555
H14 C28 1_555 1_555
C25 C26 1_555 1_555
C27 C28 1_555 1_555
Zn6 O5 1_555 1_555
N3 Zn6 1_555 1_555
C29 N3 1_555 1_555
H15 C29 1_555 1_555
C30 C29 1_555 1_555
H16 C30 1_555 1_555
C31 C30 1_555 1_555
C32 C31 1_555 1_555
H17 C32 1_555 1_555
C33 N3 1_555 1_555
H18 C33 1_555 1_555
O12 Zn6 1_555 1_555
N5 Zn6 1_555 1_555
C32 C33 1_555 1_555
N5 C34 1_555 1_555
C34 H19 1_555 1_555
C35 C34 1_555 1_555
H20 C35 1_555 1_555
C37 C36 1_555 1_555
H21 C37 1_555 1_555
C38 N5 1_555 1_555
H22 C38 1_555 1_555
C35 C36 1_555 1_555
C37 C38 1_555 1_555
O10 C22 1_555 1_555
O7 C21 1_555 1_555
O8 C21 1_555 1_555
C15 C16 1_555 1_555
C16 H8 1_555 1_555
C17 C16 1_555 1_555
C18 C17 1_555 1_555
C19 C18 1_555 1_555
C20 C15 1_555 1_555
H10 C20 1_555 1_555
C21 C15 1_555 1_555
C22 C19 1_555 1_555
Zn8 O7 1_555 1_555
C17 C23 1_555 1_555
C19 C20 1_555 1_555
H21_2 C37_2 1_555 1_555
H22_2 C38_2 1_555 1_555
C37_2 C38_2 1_555 1_555
H17_2 C32_2 1_555 1_555
H18_2 C33_2 1_555 1_555
C32_2 C33_2 1_555 1_555
N2 C24_2 1_555 1_555
C24_2 H11_2 1_555 1_555
C25_2 C24_2 1_555 1_555
H12_2 C25_2 1_555 1_555
N4 C34_2 1_555 1_555
C34_2 H19_2 1_555 1_555
C35_2 C34_2 1_555 1_555
H20_2 C35_2 1_555 1_555
Zn7 N2 1_555 1_555
Zn8 N4 1_555 1_555
C25_2 C26_2 1_555 1_555
C35_2 C36_2 1_555 1_555
Zn7 O1_2 1_555 1_555
O1_2 C8_2 1_555 1_555
O9 C8_2 1_555 1_555
O11 C7_2 1_555 1_555
O4_2 C7_2 1_555 1_555
N1_2 Zn7 1_555 1_555
C1_2 C2_2 1_555 1_555
C2_2 H1_2 1_555 1_555
C3_2 C2_2 1_555 1_555
C4_2 C3_2 1_555 1_555
H2_2 C4_2 1_555 1_555
C5_2 C4_2 1_555 1_555
C6_2 C1_2 1_555 1_555
H3_2 C6_2 1_555 1_555
C7_2 C1_2 1_555 1_555
C8_2 C5_2 1_555 1_555
C9_2 C3_2 1_555 1_555
C10_2 N1_2 1_555 1_555
H4_2 C10_2 1_555 1_555
C11_2 C10_2 1_555 1_555
H5_2 C11_2 1_555 1_555
C12_2 C11_2 1_555 1_555
O5_2 C22_2 1_555 1_555
O6 C22_2 1_555 1_555
O12 C21_2 1_555 1_555
O8_2 C21_2 1_555 1_555
C15_2 C16_2 1_555 1_555
C16_2 H8_2 1_555 1_555
C17_2 C16_2 1_555 1_555
C18_2 C17_2 1_555 1_555
H9_2 C18_2 1_555 1_555
C19_2 C18_2 1_555 1_555
C20_2 C15_2 1_555 1_555
H10_2 C20_2 1_555 1_555
C21_2 C15_2 1_555 1_555
C22_2 C19_2 1_555 1_555
C23_2 C9_2 1_555 1_555
Zn8 O5_2 1_555 1_555
N3_2 Zn8 1_555 1_555
C29_2 N3_2 1_555 1_555
H15_2 C29_2 1_555 1_555
C30_2 C29_2 1_555 1_555
H16_2 C30_2 1_555 1_555
C31_2 C30_2 1_555 1_555
C5_2 C6_2 1_555 1_555
C17_2 C23_2 1_555 1_555
C19_2 C20_2 1_555 1_555
H13_2 C27_2 1_555 1_555
H14_2 C28_2 1_555 1_555
C27_2 C28_2 1_555 1_555
H6_2 C13_2 1_555 1_555
H7_2 C14_2 1_555 1_555
C13_2 C14_2 1_555 1_555

#END
