
###############################################################################
#
# This file contains modified crystal structure data generated from the
# MOF subset of the Cambridge Structural Database (CSD) v543 
# hosted by the Cambridge Crystallographic Data Centre (CCDC).
#
# This work is licensed under the Creative Commons
# Attribution-NonCommercial-ShareAlike 4.0 International License.
# To view a copy of this license, visit
# http://creativecommons.org/licenses/by-nc-sa/4.0/
# or send a letter to
# Creative Commons, PO Box 1866, Mountain View, CA 94042, USA.
#
# CIF created using the CSD Python API on 29 September 2022
# The structure has been converted into the P1 space group
# The structure has a 3D framework
# The original CSD entry KEYFIF01 is in the rhombohedral crystal system
# The framework has been calculated to contain at least 10.0% void space
# The void calculation uses a probe of radius 1.32A, grid spacing 0.4
#
###############################################################################

data_KEYFIF01
_chemical_formula_moiety         '(C162 H126 Cu18 N18 O47)n'
_symmetry_cell_setting           triclinic
_symmetry_space_group_name_H-M   'P 1'
_symmetry_Int_Tables_number      1
_space_group_name_Hall           'P 1'
loop_
_symmetry_equiv_pos_site_id
_symmetry_equiv_pos_as_xyz
1 x,y,z
_cell_length_a                   26.9848(10)
_cell_length_b                   26.9848(10)
_cell_length_c                   6.9461(2)
_cell_angle_alpha                90
_cell_angle_beta                 90
_cell_angle_gamma                120
_cell_volume                     4380.36
loop_
_atom_site_label
_atom_site_type_symbol
_atom_site_fract_x
_atom_site_fract_y
_atom_site_fract_z
Cu1 Cu 0.345939(17) 0.123933(16) 0.26206(5)
N1 N 0.33152(10) 0.09334(10) 0.5199(3)
O1 O 0.29470(8) 0.15488(8) 0.2917(3)
O2 O 0.40009(10) 0.09679(11) 0.2535(3)
O3 O 0.43789(11) 0.05440(11) 0.4215(3)
C1 C 0.25541(12) 0.11191(11) 0.5991(4)
C2 C 0.25457(12) 0.13949(11) 0.4269(4)
C3 C 0.20936(15) 0.15095(15) 0.4028(6)
H1 H 0.2063 0.1670 0.2881
C4 C 0.16954(16) 0.13871(17) 0.5465(7)
H2 H 0.1404 0.1470 0.5273
C5 C 0.17223(17) 0.11428(18) 0.7186(6)
H3 H 0.1457 0.1071 0.8156
C6 C 0.21431(15) 0.10076(14) 0.7444(5)
H4 H 0.2160 0.0840 0.8593
C7 C 0.29512(12) 0.09229(12) 0.6392(4)
H5 H 0.2941 0.0777 0.7614
C8 C 0.36848(14) 0.07068(14) 0.5762(4)
H6 H 0.3453 0.0313 0.6183
H7 H 0.3928 0.0928 0.6825
C9 C 0.40514(13) 0.07360(13) 0.4064(4)
Cu3 Cu 0.320728(17) 0.209400(16) 0.07127(5)
O4 O 0.37197(8) 0.17845(8) 0.0416(3)
O5 O 0.27893(11) 0.05016(16) 0.0882(3)
Cu2 Cu 0.444661(23) 0.987394(17) 0.59539(5)
Cu2_2 Cu 0.012606(17) 0.457266(29) 0.59539(5)
Cu1_2 Cu 0.876067(16) 0.222006(23) 0.26206(5)
N1_2 N 0.90666(10) 0.23818(14) 0.5199(3)
O1_2 O 0.84512(8) 0.13982(11) 0.2917(3)
O2_2 O 0.90321(11) 0.30330(15) 0.2535(3)
O3_2 O 0.94560(11) 0.38349(16) 0.4215(3)
C1_2 C 0.88809(11) 0.14350(16) 0.5991(4)
C2_2 C 0.86051(11) 0.11508(16) 0.4269(4)
C3_2 C 0.84905(15) 0.05841(21) 0.4028(6)
H1_2 H 0.8330 0.0393 0.2881
C4_2 C 0.86129(17) 0.03083(23) 0.5465(7)
C5_2 C 0.88572(18) 0.05795(25) 0.7186(6)
H3_2 H 0.8929 0.0386 0.8156
C6_2 C 0.89924(14) 0.11355(21) 0.7444(5)
H4_2 H 0.9160 0.1320 0.8593
C7_2 C 0.90771(12) 0.20283(17) 0.6392(4)
H5_2 H 0.9223 0.2164 0.7614
C8_2 C 0.92932(14) 0.29780(20) 0.5762(4)
H6_2 H 0.9687 0.3140 0.6183
H7_2 H 0.9072 0.3000 0.6825
C9_2 C 0.92640(13) 0.33154(18) 0.4064(4)
Cu3_2 Cu 0.790600(16) 0.111327(23) 0.07127(5)
O4_2 O 0.82155(8) 0.19351(11) 0.0416(3)
O5_2 O 0.94984(16) 0.22878(19) 0.0882(3)
Cu1_3 Cu 0.777994(23) 0.654061(17) 0.26206(5)
N1_3 N 0.76182(14) 0.66848(10) 0.5199(3)
O1_3 O 0.86018(11) 0.70530(8) 0.2917(3)
O2_3 O 0.69670(15) 0.59991(10) 0.2535(3)
O3_3 O 0.61651(16) 0.56211(11) 0.4215(3)
C1_3 C 0.85650(16) 0.74459(12) 0.5991(4)
C2_3 C 0.88492(16) 0.74543(12) 0.4269(4)
C3_3 C 0.94159(21) 0.79064(15) 0.4028(6)
H1_3 H 0.9607 0.7937 0.2881
C4_3 C 0.96917(23) 0.83046(16) 0.5465(7)
C5_3 C 0.94205(25) 0.82777(17) 0.7186(6)
H3_3 H 0.9614 0.8543 0.8156
C6_3 C 0.88645(21) 0.78569(15) 0.7444(5)
H4_3 H 0.8680 0.7840 0.8593
C7_3 C 0.79717(17) 0.70488(12) 0.6392(4)
H5_3 H 0.7836 0.7059 0.7614
C8_3 C 0.70220(20) 0.63152(14) 0.5762(4)
H6_3 H 0.6860 0.6547 0.6183
H7_3 H 0.7000 0.6072 0.6825
C9_3 C 0.66846(18) 0.59486(13) 0.4064(4)
Cu2_3 Cu 0.542734(29) 0.555339(23) 0.59539(5)
Cu3_3 Cu 0.888673(23) 0.679272(17) 0.07127(5)
O4_3 O 0.80649(11) 0.62803(8) 0.0416(3)
O5_3 O 0.77122(19) 0.72107(11) 0.0882(3)
O2_4 O 0.06676(10) 0.43012(11) 0.5868(3)
O3_4 O 0.10456(11) 0.38773(11) 0.7548(3)
C8_4 C 0.03515(14) 0.40401(14) 0.9095(4)
H6_4 H 0.0120 0.3646 0.9516
C9_4 C 0.07181(13) 0.40693(13) 0.7397(4)
Cu2_4 Cu 0.111327(23) 0.320728(17) 0.92873(5)
O4_4 O 0.03863(8) 0.51179(8) 0.3750(3)
N1_4 N 0.99819(10) 0.42667(10) 0.8532(3)
O1_4 O 0.96137(8) 0.48821(8) 0.6250(3)
C1_4 C 0.92208(12) 0.44524(11) 0.9324(4)
C2_4 C 0.92124(12) 0.47282(11) 0.7602(4)
C3_4 C 0.87603(15) 0.48428(15) 0.7361(6)
H1_4 H 0.8730 0.5003 0.6214
C4_4 C 0.83621(16) 0.47204(17) 0.8798(7)
H2_2 H 0.8071 0.4803 0.8606
C7_4 C 0.96179(12) 0.42562(12) 0.9725(4)
Cu3_4 Cu 0.987394(17) 0.542734(16) 0.40461(5)
N1_5 N 0.57333(10) 0.57151(14) 0.8532(3)
O1_5 O 0.51179(8) 0.47315(11) 0.6250(3)
O2_5 O 0.56988(11) 0.63663(15) 0.5868(3)
O3_5 O 0.61227(11) 0.71682(16) 0.7548(3)
C1_5 C 0.55476(11) 0.47683(16) 0.9324(4)
C2_5 C 0.52718(11) 0.44841(16) 0.7602(4)
C3_5 C 0.51572(15) 0.39174(21) 0.7361(6)
H1_5 H 0.4997 0.3726 0.6214
C4_5 C 0.52796(17) 0.36416(23) 0.8798(7)
H2_3 H 0.5197 0.3267 0.8606
C7_5 C 0.57438(12) 0.53616(17) 0.9725(4)
C8_5 C 0.59599(14) 0.63113(20) 0.9095(4)
H6_5 H 0.6354 0.6473 0.9516
C9_5 C 0.59307(13) 0.66487(18) 0.7397(4)
Cu2_5 Cu 0.679272(17) 0.790600(29) 0.92873(5)
Cu3_5 Cu 0.457266(16) 0.444661(23) 0.40461(5)
O4_5 O 0.48821(8) 0.52685(11) 0.3750(3)
N1_6 N 0.42849(14) 0.00181(10) 0.8532(3)
O1_6 O 0.52685(11) 0.03863(8) 0.6250(3)
C1_6 C 0.52317(16) 0.07792(12) 0.9324(4)
C2_6 C 0.55159(16) 0.07876(12) 0.7602(4)
C3_6 C 0.60826(21) 0.12397(15) 0.7361(6)
H1_6 H 0.6274 0.1270 0.6214
C4_6 C 0.63584(23) 0.16379(16) 0.8798(7)
H2_4 H 0.6733 0.1929 0.8606
C7_6 C 0.46384(17) 0.03821(12) 0.9725(4)
Cu3_6 Cu 0.555339(23) 0.012606(17) 0.40461(5)
O2_6 O 0.36337(15) 0.93324(10) 0.5868(3)
O3_6 O 0.28318(16) 0.89544(11) 0.7548(3)
C8_6 C 0.36887(20) 0.96485(14) 0.9095(4)
H6_6 H 0.3527 0.9880 0.9516
C9_6 C 0.33513(18) 0.92819(13) 0.7397(4)
Cu2_6 Cu 0.209400(29) 0.888673(23) 0.92873(5)
O4_6 O 0.47315(11) 0.96137(8) 0.3750(3)
N1_7 N 0.66485(10) 0.76001(10) 0.1866(3)
C1_7 C 0.58874(12) 0.77858(11) 0.2658(4)
C2_7 C 0.58790(12) 0.80616(11) 0.0936(4)
C3_7 C 0.54269(15) 0.81762(15) 0.0695(6)
C4_7 C 0.50287(16) 0.80538(17) 0.2132(7)
H2_5 H 0.4737 0.8137 0.1940
C5_4 C 0.50556(17) 0.78095(18) 0.3853(6)
H3_4 H 0.4790 0.7738 0.4823
C6_4 C 0.54764(15) 0.76743(14) 0.4111(5)
H4_4 H 0.5493 0.7507 0.5260
C7_7 C 0.62845(12) 0.75896(12) 0.3059(4)
H5_4 H 0.6274 0.7444 0.4281
C8_7 C 0.70181(14) 0.73735(14) 0.2429(4)
H6_7 H 0.6786 0.6980 0.2850
H7_4 H 0.7261 0.7595 0.3492
C9_7 C 0.73847(13) 0.74027(13) 0.0731(4)
O1_7 O 0.62803(8) 0.82155(8) 0.9584(3)
O2_7 O 0.73342(10) 0.76346(11) 0.9202(3)
H1_7 H 0.5396 0.8337 0.9548
Cu3_7 Cu 0.654061(17) 0.876067(16) 0.73794(5)
O4_7 O 0.70530(8) 0.84512(8) 0.7083(3)
O1_8 O 0.17845(8) 0.80649(11) 0.9584(3)
O2_8 O 0.23654(11) 0.96997(15) 0.9202(3)
H1_8 H 0.1663 0.7060 0.9548
Cu3_8 Cu 0.123933(16) 0.777994(23) 0.73794(5)
O4_8 O 0.15488(8) 0.86018(11) 0.7083(3)
O1_9 O 0.19351(11) 0.37197(8) 0.9584(3)
O2_9 O 0.03003(15) 0.26658(10) 0.9202(3)
H1_9 H 0.2940 0.4604 0.9548
Cu3_9 Cu 0.222006(23) 0.345939(17) 0.73794(5)
O4_9 O 0.13982(11) 0.29470(8) 0.7083(3)
N1_8 N 0.66848(10) 0.90666(10) 0.4801(3)
O2_10 O 0.59991(10) 0.90321(11) 0.7465(3)
O3_7 O 0.56211(11) 0.94560(11) 0.5785(3)
C1_8 C 0.74459(12) 0.88809(11) 0.4009(4)
C2_8 C 0.74543(12) 0.86051(11) 0.5731(4)
C3_8 C 0.79064(15) 0.84905(15) 0.5972(6)
H1_10 H 0.7937 0.8330 0.7119
C4_8 C 0.83046(16) 0.86129(17) 0.4535(7)
H2_6 H 0.8596 0.8530 0.4727
C5_5 C 0.82777(17) 0.88572(18) 0.2814(6)
H3_5 H 0.8543 0.8929 0.1844
C6_5 C 0.78569(15) 0.89924(14) 0.2556(5)
H4_5 H 0.7840 0.9160 0.1407
C7_8 C 0.70488(12) 0.90771(12) 0.3608(4)
H5_5 H 0.7059 0.9223 0.2386
C8_8 C 0.63152(14) 0.92932(14) 0.4238(4)
H6_8 H 0.6547 0.9687 0.3817
H7_5 H 0.6072 0.9072 0.3175
C9_8 C 0.59486(13) 0.92640(13) 0.5936(4)
O5_4 O 0.72107(11) 0.94984(16) 0.9118(3)
N1_9 N 0.09334(10) 0.76182(14) 0.4801(3)
O2_11 O 0.09679(11) 0.69670(15) 0.7465(3)
O3_8 O 0.05440(11) 0.61651(16) 0.5785(3)
C1_9 C 0.11191(11) 0.85650(16) 0.4009(4)
C2_9 C 0.13949(11) 0.88492(16) 0.5731(4)
C3_9 C 0.15095(15) 0.94159(21) 0.5972(6)
H1_11 H 0.1670 0.9607 0.7119
C4_9 C 0.13871(17) 0.96917(23) 0.4535(7)
C5_6 C 0.11428(18) 0.94205(25) 0.2814(6)
H3_6 H 0.1071 0.9614 0.1844
C6_6 C 0.10076(14) 0.88645(21) 0.2556(5)
H4_6 H 0.0840 0.8680 0.1407
C7_9 C 0.09229(12) 0.79717(17) 0.3608(4)
H5_6 H 0.0777 0.7836 0.2386
C8_9 C 0.07068(14) 0.70220(20) 0.4238(4)
H6_9 H 0.0313 0.6860 0.3817
H7_6 H 0.0928 0.7000 0.3175
C9_9 C 0.07360(13) 0.66846(18) 0.5936(4)
O5_5 O 0.05016(16) 0.77122(19) 0.9118(3)
N1_10 N 0.23818(14) 0.33152(10) 0.4801(3)
O2_12 O 0.30330(15) 0.40009(10) 0.7465(3)
O3_9 O 0.38349(16) 0.43789(11) 0.5785(3)
C1_10 C 0.14350(16) 0.25541(12) 0.4009(4)
C2_10 C 0.11508(16) 0.25457(12) 0.5731(4)
C3_10 C 0.05841(21) 0.20936(15) 0.5972(6)
H1_12 H 0.0393 0.2063 0.7119
C4_10 C 0.03083(23) 0.16954(16) 0.4535(7)
C5_7 C 0.05795(25) 0.17223(17) 0.2814(6)
H3_7 H 0.0386 0.1457 0.1844
C6_7 C 0.11355(21) 0.21431(15) 0.2556(5)
H4_7 H 0.1320 0.2160 0.1407
C7_10 C 0.20283(17) 0.29512(12) 0.3608(4)
H5_7 H 0.2164 0.2941 0.2386
C8_10 C 0.29780(20) 0.36848(14) 0.4238(4)
H6_10 H 0.3140 0.3453 0.3817
H7_7 H 0.3000 0.3928 0.3175
C9_10 C 0.33154(18) 0.40514(13) 0.5936(4)
O5_6 O 0.22878(19) 0.27893(11) 0.9118(3)
N1_11 N 0.00181(10) 0.57333(10) 0.1468(3)
C1_11 C 0.07792(12) 0.55476(11) 0.0676(4)
C2_11 C 0.07876(12) 0.52718(11) 0.2398(4)
C3_11 C 0.12397(15) 0.51572(15) 0.2639(6)
H1_13 H 0.1270 0.4997 0.3786
C4_11 C 0.16379(16) 0.52796(17) 0.1202(7)
H2_7 H 0.1929 0.5197 0.1394
C7_11 C 0.03821(12) 0.57438(12) 0.0275(4)
O2_13 O 0.93324(10) 0.56988(11) 0.4132(3)
O3_10 O 0.89544(11) 0.61227(11) 0.2452(3)
C8_11 C 0.96485(14) 0.59599(14) 0.0905(4)
H6_11 H 0.9880 0.6354 0.0484
C9_11 C 0.92819(13) 0.59307(13) 0.2603(4)
N1_12 N 0.42667(10) 0.42849(14) 0.1468(3)
O2_14 O 0.43012(11) 0.36337(15) 0.4132(3)
O3_11 O 0.38773(11) 0.28318(16) 0.2452(3)
C1_12 C 0.44524(11) 0.52317(16) 0.0676(4)
C2_12 C 0.47282(11) 0.55159(16) 0.2398(4)
C3_12 C 0.48428(15) 0.60826(21) 0.2639(6)
H1_14 H 0.5003 0.6274 0.3786
C4_12 C 0.47204(17) 0.63584(23) 0.1202(7)
H2_8 H 0.4803 0.6733 0.1394
C7_12 C 0.42562(12) 0.46384(17) 0.0275(4)
C8_12 C 0.40401(14) 0.36887(20) 0.0905(4)
H6_12 H 0.3646 0.3527 0.0484
C9_12 C 0.40693(13) 0.33513(18) 0.2603(4)
O2_15 O 0.63663(15) 0.06676(10) 0.4132(3)
O3_12 O 0.71682(16) 0.10456(11) 0.2452(3)
C8_13 C 0.63113(20) 0.03515(14) 0.0905(4)
H6_13 H 0.6473 0.0120 0.0484
C9_13 C 0.66487(18) 0.07181(13) 0.2603(4)
N1_13 N 0.57151(14) 0.99819(10) 0.1468(3)
C1_13 C 0.47683(16) 0.92208(12) 0.0676(4)
C2_13 C 0.44841(16) 0.92124(12) 0.2398(4)
C3_13 C 0.39174(21) 0.87603(15) 0.2639(6)
H1_15 H 0.3726 0.8730 0.3786
C4_13 C 0.36416(23) 0.83621(16) 0.1202(7)
H2_9 H 0.3267 0.8071 0.1394
C7_13 C 0.53616(17) 0.96179(12) 0.0275(4)
O2_16 O 0.26658(10) 0.23654(11) 0.0798(3)
H1_16 H 0.4604 0.1663 0.0452
N1_14 N 0.33515(10) 0.23999(10) 0.8134(3)
C1_14 C 0.41126(12) 0.22142(11) 0.7342(4)
C2_14 C 0.41210(12) 0.19384(11) 0.9064(4)
C3_14 C 0.45731(15) 0.18238(15) 0.9305(6)
C4_14 C 0.49713(16) 0.19462(17) 0.7868(7)
H2_10 H 0.5263 0.1863 0.8060
C5_8 C 0.49444(17) 0.21905(18) 0.6147(6)
H3_8 H 0.5210 0.2262 0.5177
C6_8 C 0.45236(15) 0.23257(14) 0.5889(5)
H4_8 H 0.4507 0.2493 0.4740
C7_14 C 0.37155(12) 0.24104(12) 0.6941(4)
H5_8 H 0.3726 0.2556 0.5719
C8_14 C 0.29819(14) 0.26265(14) 0.7571(4)
H6_14 H 0.3214 0.3020 0.7150
H7_8 H 0.2739 0.2405 0.6508
C9_14 C 0.26153(13) 0.25973(13) 0.9269(4)
O2_17 O 0.76346(11) 0.03003(15) 0.0798(3)
H1_17 H 0.8337 0.2940 0.0452
O2_18 O 0.96997(15) 0.73342(10) 0.0798(3)
H1_18 H 0.7060 0.5396 0.0452
H2_11 H 0.8530 0.9934 0.5273
H2_12 H 0.0066 0.8596 0.5273
H7_9 H 0.0595 0.4261 0.0158
C5_9 C 0.83890(17) 0.44761(18) 0.0519(6)
H3_9 H 0.8124 0.4404 0.1489
C6_9 C 0.88098(15) 0.43409(14) 0.0777(5)
H4_9 H 0.8827 0.4173 0.1926
H5_9 H 0.9608 0.4110 0.0947
C5_10 C 0.55239(18) 0.39128(25) 0.0519(6)
H3_10 H 0.5596 0.3719 0.1489
C6_10 C 0.56591(14) 0.44688(21) 0.0777(5)
H4_10 H 0.5827 0.4653 0.1926
H5_10 H 0.5890 0.5497 0.0947
H7_10 H 0.5739 0.6333 0.0158
C5_11 C 0.60872(25) 0.16110(17) 0.0519(6)
H3_11 H 0.6281 0.1876 0.1489
C6_11 C 0.55312(21) 0.11902(15) 0.0777(5)
H4_11 H 0.5347 0.1173 0.1926
H5_11 H 0.4503 0.0392 0.0947
H7_11 H 0.3667 0.9405 0.0158
N1_15 N 0.23999(10) 0.90485(14) 0.1866(3)
C1_15 C 0.22142(11) 0.81017(16) 0.2658(4)
C2_15 C 0.19384(11) 0.78175(16) 0.0936(4)
C3_15 C 0.18238(15) 0.72508(21) 0.0695(6)
C4_15 C 0.19462(17) 0.69750(23) 0.2132(7)
H2_13 H 0.1863 0.6601 0.1940
C5_12 C 0.21905(18) 0.72462(25) 0.3853(6)
H3_12 H 0.2262 0.7053 0.4823
C6_12 C 0.23257(14) 0.78022(21) 0.4111(5)
H4_12 H 0.2493 0.7987 0.5260
C7_15 C 0.24104(12) 0.86950(17) 0.3059(4)
H5_12 H 0.2556 0.8831 0.4281
C8_15 C 0.26265(14) 0.96447(20) 0.2429(4)
H6_15 H 0.3020 0.9807 0.2850
H7_12 H 0.2405 0.9667 0.3492
C9_15 C 0.25973(13) 0.99821(18) 0.0731(4)
N1_16 N 0.09515(14) 0.33515(10) 0.1866(3)
C1_16 C 0.18983(16) 0.41126(12) 0.2658(4)
C2_16 C 0.21825(16) 0.41210(12) 0.0936(4)
C3_16 C 0.27492(21) 0.45731(15) 0.0695(6)
C4_16 C 0.30250(23) 0.49713(16) 0.2132(7)
H2_14 H 0.3399 0.5263 0.1940
C5_13 C 0.27538(25) 0.49444(17) 0.3853(6)
H3_13 H 0.2947 0.5210 0.4823
C6_13 C 0.21978(21) 0.45236(15) 0.4111(5)
H4_13 H 0.2013 0.4507 0.5260
C7_16 C 0.13050(17) 0.37155(12) 0.3059(4)
H5_13 H 0.1169 0.3726 0.4281
C8_16 C 0.03553(20) 0.29819(14) 0.2429(4)
H6_16 H 0.0193 0.3214 0.2850
H7_13 H 0.0333 0.2739 0.3492
C9_16 C 0.00179(18) 0.26153(13) 0.0731(4)
H2_15 H 0.1470 0.0066 0.4727
H2_16 H 0.9934 0.1404 0.4727
C5_14 C 0.16110(17) 0.55239(18) 0.9481(6)
H3_14 H 0.1876 0.5596 0.8511
C6_14 C 0.11902(15) 0.56591(14) 0.9223(5)
H4_14 H 0.1173 0.5827 0.8074
H5_14 H 0.0392 0.5890 0.9053
H7_14 H 0.9405 0.5739 0.9842
C5_15 C 0.44761(18) 0.60872(25) 0.9481(6)
H3_15 H 0.4404 0.6281 0.8511
C6_15 C 0.43409(14) 0.55312(21) 0.9223(5)
H4_15 H 0.4173 0.5347 0.8074
H5_15 H 0.4110 0.4503 0.9053
H7_15 H 0.4261 0.3667 0.9842
H7_16 H 0.6333 0.0595 0.9842
C5_16 C 0.39128(25) 0.83890(17) 0.9481(6)
H3_16 H 0.3719 0.8124 0.8511
C6_16 C 0.44688(21) 0.88098(15) 0.9223(5)
H4_16 H 0.4653 0.8827 0.8074
H5_16 H 0.5497 0.9608 0.9053
N1_17 N 0.76001(10) 0.09515(14) 0.8134(3)
C1_17 C 0.77858(11) 0.18983(16) 0.7342(4)
C2_17 C 0.80616(11) 0.21825(16) 0.9064(4)
C3_17 C 0.81762(15) 0.27492(21) 0.9305(6)
C4_17 C 0.80538(17) 0.30250(23) 0.7868(7)
H2_17 H 0.8137 0.3399 0.8060
C5_17 C 0.78095(18) 0.27538(25) 0.6147(6)
H3_17 H 0.7738 0.2947 0.5177
C6_17 C 0.76743(14) 0.21978(21) 0.5889(5)
H4_17 H 0.7507 0.2013 0.4740
C7_17 C 0.75896(12) 0.13050(17) 0.6941(4)
H5_17 H 0.7444 0.1169 0.5719
C8_17 C 0.73735(14) 0.03553(20) 0.7571(4)
H6_17 H 0.6980 0.0193 0.7150
H7_17 H 0.7595 0.0333 0.6508
C9_17 C 0.74027(13) 0.00179(18) 0.9269(4)
N1_18 N 0.90485(14) 0.66485(10) 0.8134(3)
C1_18 C 0.81017(16) 0.58874(12) 0.7342(4)
C2_18 C 0.78175(16) 0.58790(12) 0.9064(4)
C3_18 C 0.72508(21) 0.54269(15) 0.9305(6)
C4_18 C 0.69750(23) 0.50287(16) 0.7868(7)
H2_18 H 0.6601 0.4737 0.8060
C5_18 C 0.72462(25) 0.50556(17) 0.6147(6)
H3_18 H 0.7053 0.4790 0.5177
C6_18 C 0.78022(21) 0.54764(15) 0.5889(5)
H4_18 H 0.7987 0.5493 0.4740
C7_18 C 0.86950(17) 0.62845(12) 0.6941(4)
H5_18 H 0.8831 0.6274 0.5719
C8_18 C 0.96447(20) 0.70181(14) 0.7571(4)
H6_18 H 0.9807 0.6786 0.7150
H7_18 H 0.9667 0.7261 0.6508
C9_18 C 0.99821(18) 0.73847(13) 0.9269(4)
loop_
_geom_bond_atom_site_label_1
_geom_bond_atom_site_label_2
_geom_bond_site_symmetry_1
_geom_bond_site_symmetry_2
Cu1 N1 1_555 1_555
N1 C7 1_555 1_555
O1 Cu1 1_555 1_555
O2 Cu1 1_555 1_555
O3 C9 1_555 1_555
C1 C2 1_555 1_555
C2 O1 1_555 1_555
C3 C2 1_555 1_555
H1 C3 1_555 1_555
C4 C3 1_555 1_555
H2 C4 1_555 1_555
C5 C4 1_555 1_555
H3 C5 1_555 1_555
C6 C1 1_555 1_555
H4 C6 1_555 1_555
C7 C1 1_555 1_555
H5 C7 1_555 1_555
C8 N1 1_555 1_555
H6 C8 1_555 1_555
H7 C8 1_555 1_555
C9 O2 1_555 1_555
Cu3 O1 1_555 1_555
O4 Cu1 1_555 1_555
O5 Cu1 1_555 1_555
C5 C6 1_555 1_555
C8 C9 1_555 1_555
Cu3 O4 1_555 1_555
Cu1_2 N1_2 1_555 1_555
N1_2 C7_2 1_555 1_555
O1_2 Cu1_2 1_555 1_555
O2_2 Cu1_2 1_555 1_555
O3_2 C9_2 1_555 1_555
C1_2 C2_2 1_555 1_555
C2_2 O1_2 1_555 1_555
C3_2 C2_2 1_555 1_555
H1_2 C3_2 1_555 1_555
C4_2 C3_2 1_555 1_555
C5_2 C4_2 1_555 1_555
H3_2 C5_2 1_555 1_555
C6_2 C1_2 1_555 1_555
H4_2 C6_2 1_555 1_555
C7_2 C1_2 1_555 1_555
H5_2 C7_2 1_555 1_555
C8_2 N1_2 1_555 1_555
H6_2 C8_2 1_555 1_555
H7_2 C8_2 1_555 1_555
C9_2 O2_2 1_555 1_555
Cu3_2 O1_2 1_555 1_555
O4_2 Cu1_2 1_555 1_555
O5_2 Cu1_2 1_555 1_555
C5_2 C6_2 1_555 1_555
C8_2 C9_2 1_555 1_555
Cu3_2 O4_2 1_555 1_555
Cu1_3 N1_3 1_555 1_555
N1_3 C7_3 1_555 1_555
O1_3 Cu1_3 1_555 1_555
O2_3 Cu1_3 1_555 1_555
O3_3 C9_3 1_555 1_555
C1_3 C2_3 1_555 1_555
C2_3 O1_3 1_555 1_555
C3_3 C2_3 1_555 1_555
H1_3 C3_3 1_555 1_555
C4_3 C3_3 1_555 1_555
C5_3 C4_3 1_555 1_555
H3_3 C5_3 1_555 1_555
C6_3 C1_3 1_555 1_555
H4_3 C6_3 1_555 1_555
C7_3 C1_3 1_555 1_555
H5_3 C7_3 1_555 1_555
C8_3 N1_3 1_555 1_555
H6_3 C8_3 1_555 1_555
H7_3 C8_3 1_555 1_555
C9_3 O2_3 1_555 1_555
Cu2_3 O3_3 1_555 1_555
Cu3_3 O1_3 1_555 1_555
O4_3 Cu1_3 1_555 1_555
O5_3 Cu1_3 1_555 1_555
C5_3 C6_3 1_555 1_555
C8_3 C9_3 1_555 1_555
Cu3_3 O4_3 1_555 1_555
O2_4 Cu2_2 1_555 1_555
O3_4 C9_4 1_555 1_555
H6_4 C8_4 1_555 1_555
C9_4 O2_4 1_555 1_555
Cu2_4 O3_4 1_555 1_555
O4_4 Cu2_2 1_555 1_555
C8_4 C9_4 1_555 1_555
N1_4 C7_4 1_555 1_555
C1_4 C2_4 1_555 1_555
C2_4 O1_4 1_555 1_555
C3_4 C2_4 1_555 1_555
H1_4 C3_4 1_555 1_555
C4_4 C3_4 1_555 1_555
H2_2 C4_4 1_555 1_555
C7_4 C1_4 1_555 1_555
Cu3_4 O1_4 1_555 1_555
Cu2_3 N1_5 1_555 1_555
N1_5 C7_5 1_555 1_555
O1_5 Cu2_3 1_555 1_555
O2_5 Cu2_3 1_555 1_555
O3_5 C9_5 1_555 1_555
C1_5 C2_5 1_555 1_555
C2_5 O1_5 1_555 1_555
C3_5 C2_5 1_555 1_555
H1_5 C3_5 1_555 1_555
C4_5 C3_5 1_555 1_555
H2_3 C4_5 1_555 1_555
C7_5 C1_5 1_555 1_555
C8_5 N1_5 1_555 1_555
H6_5 C8_5 1_555 1_555
C9_5 O2_5 1_555 1_555
Cu2_5 O3_5 1_555 1_555
Cu3_5 O1_5 1_555 1_555
O4_5 Cu2_3 1_555 1_555
C8_5 C9_5 1_555 1_555
Cu3_5 O4_5 1_555 1_555
N1_6 C7_6 1_555 1_555
C1_6 C2_6 1_555 1_555
C2_6 O1_6 1_555 1_555
C3_6 C2_6 1_555 1_555
H1_6 C3_6 1_555 1_555
C4_6 C3_6 1_555 1_555
H2_4 C4_6 1_555 1_555
C7_6 C1_6 1_555 1_555
Cu3_6 O1_6 1_555 1_555
O2_6 Cu2 1_555 1_555
O3_6 C9_6 1_555 1_555
H6_6 C8_6 1_555 1_555
C9_6 O2_6 1_555 1_555
Cu2_6 O3_6 1_555 1_555
O4_6 Cu2 1_555 1_555
C8_6 C9_6 1_555 1_555
N1_7 C7_7 1_555 1_555
O5_3 C9_7 1_555 1_555
C1_7 C2_7 1_555 1_555
C3_7 C2_7 1_555 1_555
C4_7 C3_7 1_555 1_555
H2_5 C4_7 1_555 1_555
C5_4 C4_7 1_555 1_555
H3_4 C5_4 1_555 1_555
C6_4 C1_7 1_555 1_555
H4_4 C6_4 1_555 1_555
C7_7 C1_7 1_555 1_555
H5_4 C7_7 1_555 1_555
C8_7 N1_7 1_555 1_555
H6_7 C8_7 1_555 1_555
H7_4 C8_7 1_555 1_555
C5_4 C6_4 1_555 1_555
C8_7 C9_7 1_555 1_555
O1_7 Cu2_5 1_555 1_555
O2_7 Cu2_5 1_555 1_555
Cu3_7 O1_7 1_555 1_555
O4_7 Cu2_5 1_555 1_555
Cu3_7 O4_7 1_555 1_555
O1_8 Cu2_6 1_555 1_555
O2_8 Cu2_6 1_555 1_555
Cu3_8 O1_8 1_555 1_555
O4_8 Cu2_6 1_555 1_555
Cu3_8 O4_8 1_555 1_555
O1_9 Cu2_4 1_555 1_555
O2_9 Cu2_4 1_555 1_555
Cu3_9 O1_9 1_555 1_555
O4_9 Cu2_4 1_555 1_555
Cu3_9 O4_9 1_555 1_555
Cu3_7 N1_8 1_555 1_555
N1_8 C7_8 1_555 1_555
O2_10 Cu3_7 1_555 1_555
O3_7 C9_8 1_555 1_555
C1_8 C2_8 1_555 1_555
C2_8 O4_7 1_555 1_555
C3_8 C2_8 1_555 1_555
H1_10 C3_8 1_555 1_555
C4_8 C3_8 1_555 1_555
H2_6 C4_8 1_555 1_555
C5_5 C4_8 1_555 1_555
H3_5 C5_5 1_555 1_555
C6_5 C1_8 1_555 1_555
H4_5 C6_5 1_555 1_555
C7_8 C1_8 1_555 1_555
H5_5 C7_8 1_555 1_555
C8_8 N1_8 1_555 1_555
H6_8 C8_8 1_555 1_555
H7_5 C8_8 1_555 1_555
C9_8 O2_10 1_555 1_555
O5_4 Cu3_7 1_555 1_555
C5_5 C6_5 1_555 1_555
C8_8 C9_8 1_555 1_555
Cu3_8 N1_9 1_555 1_555
N1_9 C7_9 1_555 1_555
O2_11 Cu3_8 1_555 1_555
O3_8 C9_9 1_555 1_555
C1_9 C2_9 1_555 1_555
C2_9 O4_8 1_555 1_555
C3_9 C2_9 1_555 1_555
H1_11 C3_9 1_555 1_555
C4_9 C3_9 1_555 1_555
C5_6 C4_9 1_555 1_555
H3_6 C5_6 1_555 1_555
C6_6 C1_9 1_555 1_555
H4_6 C6_6 1_555 1_555
C7_9 C1_9 1_555 1_555
H5_6 C7_9 1_555 1_555
C8_9 N1_9 1_555 1_555
H6_9 C8_9 1_555 1_555
H7_6 C8_9 1_555 1_555
C9_9 O2_11 1_555 1_555
O5_5 Cu3_8 1_555 1_555
C5_6 C6_6 1_555 1_555
C8_9 C9_9 1_555 1_555
Cu3_9 N1_10 1_555 1_555
N1_10 C7_10 1_555 1_555
O2_12 Cu3_9 1_555 1_555
O3_9 C9_10 1_555 1_555
C1_10 C2_10 1_555 1_555
C2_10 O4_9 1_555 1_555
C3_10 C2_10 1_555 1_555
H1_12 C3_10 1_555 1_555
C4_10 C3_10 1_555 1_555
C5_7 C4_10 1_555 1_555
H3_7 C5_7 1_555 1_555
C6_7 C1_10 1_555 1_555
H4_7 C6_7 1_555 1_555
C7_10 C1_10 1_555 1_555
H5_7 C7_10 1_555 1_555
C8_10 N1_10 1_555 1_555
H6_10 C8_10 1_555 1_555
H7_7 C8_10 1_555 1_555
C9_10 O2_12 1_555 1_555
Cu3_5 O3_9 1_555 1_555
O5_6 Cu3_9 1_555 1_555
C5_7 C6_7 1_555 1_555
C8_10 C9_10 1_555 1_555
N1_11 C7_11 1_555 1_555
C1_11 C2_11 1_555 1_555
C2_11 O4_4 1_555 1_555
C3_11 C2_11 1_555 1_555
H1_13 C3_11 1_555 1_555
C4_11 C3_11 1_555 1_555
H2_7 C4_11 1_555 1_555
C7_11 C1_11 1_555 1_555
O2_13 Cu3_4 1_555 1_555
O3_10 C9_11 1_555 1_555
H6_11 C8_11 1_555 1_555
C9_11 O2_13 1_555 1_555
Cu3_3 O3_10 1_555 1_555
C8_11 C9_11 1_555 1_555
Cu3_5 N1_12 1_555 1_555
N1_12 C7_12 1_555 1_555
O2_14 Cu3_5 1_555 1_555
O3_11 C9_12 1_555 1_555
C1_12 C2_12 1_555 1_555
C2_12 O4_5 1_555 1_555
C3_12 C2_12 1_555 1_555
H1_14 C3_12 1_555 1_555
C4_12 C3_12 1_555 1_555
H2_8 C4_12 1_555 1_555
C7_12 C1_12 1_555 1_555
C8_12 N1_12 1_555 1_555
H6_12 C8_12 1_555 1_555
C9_12 O2_14 1_555 1_555
Cu3 O3_11 1_555 1_555
C8_12 C9_12 1_555 1_555
O2_15 Cu3_6 1_555 1_555
O3_12 C9_13 1_555 1_555
H6_13 C8_13 1_555 1_555
C9_13 O2_15 1_555 1_555
Cu3_2 O3_12 1_555 1_555
C8_13 C9_13 1_555 1_555
N1_13 C7_13 1_555 1_555
C1_13 C2_13 1_555 1_555
C2_13 O4_6 1_555 1_555
C3_13 C2_13 1_555 1_555
H1_15 C3_13 1_555 1_555
C4_13 C3_13 1_555 1_555
H2_9 C4_13 1_555 1_555
C7_13 C1_13 1_555 1_555
O2_16 Cu3 1_555 1_555
N1_14 C7_14 1_555 1_555
O5_6 C9_14 1_555 1_555
C1_14 C2_14 1_555 1_555
C3_14 C2_14 1_555 1_555
C4_14 C3_14 1_555 1_555
H2_10 C4_14 1_555 1_555
C5_8 C4_14 1_555 1_555
H3_8 C5_8 1_555 1_555
C6_8 C1_14 1_555 1_555
H4_8 C6_8 1_555 1_555
C7_14 C1_14 1_555 1_555
H5_8 C7_14 1_555 1_555
C8_14 N1_14 1_555 1_555
H6_14 C8_14 1_555 1_555
H7_8 C8_14 1_555 1_555
C5_8 C6_8 1_555 1_555
C8_14 C9_14 1_555 1_555
O2_17 Cu3_2 1_555 1_555
O2_18 Cu3_3 1_555 1_555
H3_9 C5_9 1_555 1_555
H4_9 C6_9 1_555 1_555
C5_9 C6_9 1_555 1_555
H3_10 C5_10 1_555 1_555
H4_10 C6_10 1_555 1_555
C5_10 C6_10 1_555 1_555
H3_11 C5_11 1_555 1_555
H4_11 C6_11 1_555 1_555
C5_11 C6_11 1_555 1_555
N1_15 C7_15 1_555 1_555
C1_15 C2_15 1_555 1_555
C3_15 C2_15 1_555 1_555
C4_15 C3_15 1_555 1_555
H2_13 C4_15 1_555 1_555
C5_12 C4_15 1_555 1_555
H3_12 C5_12 1_555 1_555
C6_12 C1_15 1_555 1_555
H4_12 C6_12 1_555 1_555
C7_15 C1_15 1_555 1_555
H5_12 C7_15 1_555 1_555
C8_15 N1_15 1_555 1_555
H6_15 C8_15 1_555 1_555
H7_12 C8_15 1_555 1_555
C5_12 C6_12 1_555 1_555
C8_15 C9_15 1_555 1_555
N1_16 C7_16 1_555 1_555
C1_16 C2_16 1_555 1_555
C3_16 C2_16 1_555 1_555
C4_16 C3_16 1_555 1_555
H2_14 C4_16 1_555 1_555
C5_13 C4_16 1_555 1_555
H3_13 C5_13 1_555 1_555
C6_13 C1_16 1_555 1_555
H4_13 C6_13 1_555 1_555
C7_16 C1_16 1_555 1_555
H5_13 C7_16 1_555 1_555
C8_16 N1_16 1_555 1_555
H6_16 C8_16 1_555 1_555
H7_13 C8_16 1_555 1_555
C5_13 C6_13 1_555 1_555
C8_16 C9_16 1_555 1_555
H3_14 C5_14 1_555 1_555
H4_14 C6_14 1_555 1_555
C5_14 C6_14 1_555 1_555
H3_15 C5_15 1_555 1_555
H4_15 C6_15 1_555 1_555
C5_15 C6_15 1_555 1_555
H3_16 C5_16 1_555 1_555
H4_16 C6_16 1_555 1_555
C5_16 C6_16 1_555 1_555
N1_17 C7_17 1_555 1_555
C1_17 C2_17 1_555 1_555
C3_17 C2_17 1_555 1_555
C4_17 C3_17 1_555 1_555
H2_17 C4_17 1_555 1_555
C5_17 C4_17 1_555 1_555
H3_17 C5_17 1_555 1_555
C6_17 C1_17 1_555 1_555
H4_17 C6_17 1_555 1_555
C7_17 C1_17 1_555 1_555
H5_17 C7_17 1_555 1_555
C8_17 N1_17 1_555 1_555
H6_17 C8_17 1_555 1_555
H7_17 C8_17 1_555 1_555
C5_17 C6_17 1_555 1_555
C8_17 C9_17 1_555 1_555
N1_18 C7_18 1_555 1_555
C1_18 C2_18 1_555 1_555
C3_18 C2_18 1_555 1_555
C4_18 C3_18 1_555 1_555
H2_18 C4_18 1_555 1_555
C5_18 C4_18 1_555 1_555
H3_18 C5_18 1_555 1_555
C6_18 C1_18 1_555 1_555
H4_18 C6_18 1_555 1_555
C7_18 C1_18 1_555 1_555
H5_18 C7_18 1_555 1_555
C8_18 N1_18 1_555 1_555
H6_18 C8_18 1_555 1_555
H7_18 C8_18 1_555 1_555
C5_18 C6_18 1_555 1_555
C8_18 C9_18 1_555 1_555

#END
