
###############################################################################
#
# This file contains modified crystal structure data generated from the
# MOF subset of the Cambridge Structural Database (CSD) v543 
# hosted by the Cambridge Crystallographic Data Centre (CCDC).
#
# This work is licensed under the Creative Commons
# Attribution-NonCommercial-ShareAlike 4.0 International License.
# To view a copy of this license, visit
# http://creativecommons.org/licenses/by-nc-sa/4.0/
# or send a letter to
# Creative Commons, PO Box 1866, Mountain View, CA 94042, USA.
#
# CIF created using the CSD Python API on 29 September 2022
# The structure has been converted into the P1 space group
# The structure has a 3D framework
# The original CSD entry KEYFIF is in the rhombohedral crystal system
# The framework has been calculated to contain at least 10.0% void space
# The void calculation uses a probe of radius 1.32A, grid spacing 0.4
#
###############################################################################

data_KEYFIF
_chemical_formula_moiety         '(C162 H126 Cu18 N18 O47)n'
_symmetry_cell_setting           triclinic
_symmetry_space_group_name_H-M   'P 1'
_symmetry_Int_Tables_number      1
_space_group_name_Hall           'P 1'
loop_
_symmetry_equiv_pos_site_id
_symmetry_equiv_pos_as_xyz
1 x,y,z
_cell_length_a                   27.0212(12)
_cell_length_b                   27.0212(12)
_cell_length_c                   6.9705(6)
_cell_angle_alpha                90
_cell_angle_beta                 90
_cell_angle_gamma                120
_cell_volume                     4407.62
loop_
_atom_site_label
_atom_site_type_symbol
_atom_site_fract_x
_atom_site_fract_y
_atom_site_fract_z
Cu1 Cu 0.320807(12) 0.209472(12) 0.07174(4)
O1 O 0.37203(7) 0.17849(7) 0.0420(2)
O2 O 0.26646(9) 0.23669(9) 0.0800(2)
H1 H 0.4597 0.1654 0.0429
Cu3 Cu 0.345860(12) 0.123861(12) 0.26159(4)
O4 O 0.29464(7) 0.15484(7) 0.2913(2)
O5 O 0.38748(10) 0.28318(13) 0.2464(3)
N1 N 0.33525(8) 0.24020(8) 0.8145(3)
O3 O 0.22904(9) 0.27919(10) 0.9131(3)
C1 C 0.41110(10) 0.22118(10) 0.7342(4)
C2 C 0.41206(10) 0.19353(10) 0.9065(3)
C3 C 0.45673(12) 0.18167(13) 0.9290(4)
C4 C 0.49632(14) 0.19370(15) 0.7855(5)
H2 H 0.5254 0.1854 0.8044
C5 C 0.49348(15) 0.21808(15) 0.6132(5)
H3 H 0.5196 0.2248 0.5156
C6 C 0.45171(13) 0.23190(12) 0.5896(4)
H4 H 0.4500 0.2488 0.4755
C7 C 0.37135(11) 0.24098(10) 0.6959(3)
H5 H 0.3722 0.2555 0.5742
C8 C 0.29851(12) 0.26304(12) 0.7599(3)
H6 H 0.2745 0.2414 0.6528
H7 H 0.3218 0.3025 0.7196
C9 C 0.26138(11) 0.25966(11) 0.9279(3)
Cu2 Cu 0.221998(17) 0.345860(12) 0.73841(4)
Cu1_2 Cu 0.790528(12) 0.111335(17) 0.07174(4)
O1_2 O 0.82151(7) 0.19354(10) 0.0420(2)
O2_2 O 0.76331(9) 0.02977(13) 0.0800(2)
H1_2 H 0.8346 0.2943 0.0429
Cu3_2 Cu 0.876139(12) 0.221998(17) 0.26159(4)
O4_2 O 0.84516(7) 0.13979(10) 0.2913(2)
O5_2 O 0.71682(13) 0.10429(16) 0.2464(3)
O3_2 O 0.72081(10) 0.94985(13) 0.9131(3)
Cu2_2 Cu 0.654140(12) 0.876139(21) 0.73841(4)
O3_3 O 0.05015(13) 0.77096(9) 0.9131(3)
Cu2_3 Cu 0.123861(21) 0.778002(17) 0.73841(4)
Cu1_3 Cu 0.888665(17) 0.679193(12) 0.07174(4)
O1_3 O 0.80646(10) 0.62797(7) 0.0420(2)
O2_3 O 0.97023(13) 0.73354(9) 0.0800(2)
H1_3 H 0.7057 0.5403 0.0429
Cu3_3 Cu 0.778002(17) 0.654140(12) 0.26159(4)
O4_3 O 0.86021(10) 0.70536(7) 0.2913(2)
O5_3 O 0.89571(16) 0.61252(10) 0.2464(3)
N1_2 N 0.00192(8) 0.57353(8) 0.1478(3)
O1_4 O 0.03870(7) 0.51182(7) 0.3753(2)
C1_2 C 0.07777(10) 0.55451(10) 0.0675(4)
C2_2 C 0.07873(10) 0.52686(10) 0.2398(3)
C3_2 C 0.12340(12) 0.51500(13) 0.2623(4)
H1_4 H 0.1264 0.4987 0.3762
C4_2 C 0.16299(14) 0.52703(15) 0.1188(5)
H2_2 H 0.1921 0.5187 0.1377
C7_2 C 0.03802(11) 0.57431(10) 0.0292(3)
Cu3_4 Cu 0.012526(12) 0.457195(12) 0.59493(4)
O5_4 O 0.05414(10) 0.61652(13) 0.5798(3)
Cu1_4 Cu 0.987474(12) 0.542805(12) 0.40507(4)
O2_4 O 0.93313(9) 0.57002(9) 0.4133(2)
C8_2 C 0.96518(12) 0.59637(12) 0.0932(3)
H7_2 H 0.9885 0.6358 0.0529
C9_2 C 0.92805(11) 0.59299(11) 0.2612(3)
O4_4 O 0.96130(7) 0.48818(7) 0.6247(2)
Cu1_5 Cu 0.457195(12) 0.444668(17) 0.40507(4)
N1_3 N 0.42647(8) 0.42838(11) 0.1478(3)
O1_5 O 0.48818(7) 0.52687(10) 0.3753(2)
O2_5 O 0.42998(9) 0.36310(13) 0.4133(2)
C1_3 C 0.44549(10) 0.52325(14) 0.0675(4)
C2_3 C 0.47314(10) 0.55186(14) 0.2398(3)
C3_3 C 0.48500(13) 0.60839(18) 0.2623(4)
H1_5 H 0.5013 0.6276 0.3762
C4_3 C 0.47297(15) 0.63595(21) 0.1188(5)
H2_3 H 0.4813 0.6733 0.1377
C7_3 C 0.42569(10) 0.46370(15) 0.0292(3)
C8_3 C 0.40363(12) 0.36880(17) 0.0932(3)
H7_3 H 0.3642 0.3526 0.0529
C9_3 C 0.40701(11) 0.33505(16) 0.2612(3)
Cu3_5 Cu 0.542805(12) 0.555332(17) 0.59493(4)
O4_5 O 0.51182(7) 0.47313(10) 0.6247(2)
O5_5 O 0.38348(13) 0.43763(16) 0.5798(3)
Cu1_6 Cu 0.555332(17) 0.012526(12) 0.40507(4)
O2_6 O 0.63690(13) 0.06687(9) 0.4133(2)
C8_4 C 0.63120(17) 0.03482(12) 0.0932(3)
H7_4 H 0.6474 0.0115 0.0529
C9_4 C 0.66495(16) 0.07195(11) 0.2612(3)
O4_6 O 0.52687(10) 0.03870(7) 0.6247(2)
N1_4 N 0.57162(11) 0.99808(8) 0.1478(3)
O1_6 O 0.47313(10) 0.96130(7) 0.3753(2)
C1_4 C 0.47675(14) 0.92223(10) 0.0675(4)
C2_4 C 0.44814(14) 0.92127(10) 0.2398(3)
C3_4 C 0.39161(18) 0.87660(12) 0.2623(4)
H1_6 H 0.3724 0.8736 0.3762
C4_4 C 0.36405(21) 0.83701(14) 0.1188(5)
H2_4 H 0.3267 0.8079 0.1377
C7_4 C 0.53630(15) 0.96198(11) 0.0292(3)
Cu3_6 Cu 0.444668(17) 0.987474(12) 0.59493(4)
O5_6 O 0.56237(16) 0.94586(10) 0.5798(3)
N1_5 N 0.66858(8) 0.90687(8) 0.4812(3)
O1_7 O 0.70536(7) 0.84516(7) 0.7087(2)
O2_7 O 0.59979(9) 0.90336(9) 0.7467(2)
C1_5 C 0.74443(10) 0.88785(10) 0.4009(4)
C2_5 C 0.74539(10) 0.86020(10) 0.5732(3)
C3_5 C 0.79006(12) 0.84834(13) 0.5957(4)
H1_7 H 0.7930 0.8321 0.7096
C4_5 C 0.82965(14) 0.86037(15) 0.4522(5)
H2_5 H 0.8587 0.8521 0.4711
C5_2 C 0.82681(15) 0.88475(15) 0.2799(5)
H3_2 H 0.8529 0.8915 0.1823
C6_2 C 0.78504(13) 0.89857(12) 0.2563(4)
H4_2 H 0.7833 0.9155 0.1422
C7_5 C 0.70468(11) 0.90765(10) 0.3626(3)
H5_2 H 0.7055 0.9222 0.2409
C8_5 C 0.63184(12) 0.92971(12) 0.4266(3)
H6_2 H 0.6078 0.9081 0.3195
H7_5 H 0.6551 0.9692 0.3863
C9_5 C 0.59471(11) 0.92633(11) 0.5946(3)
Cu3_7 Cu 0.679193(12) 0.790528(12) 0.92826(4)
O4_7 O 0.62797(7) 0.82151(7) 0.9580(2)
N1_6 N 0.09313(8) 0.76172(11) 0.4812(3)
O1_8 O 0.15484(7) 0.86021(10) 0.7087(2)
O2_8 O 0.09664(9) 0.69644(13) 0.7467(2)
C1_6 C 0.11215(10) 0.85659(14) 0.4009(4)
C2_6 C 0.13980(10) 0.88520(14) 0.5732(3)
C3_6 C 0.15166(13) 0.94173(18) 0.5957(4)
H1_8 H 0.1679 0.9610 0.7096
C4_6 C 0.13963(15) 0.96929(21) 0.4522(5)
C5_3 C 0.11525(15) 0.94207(21) 0.2799(5)
H3_3 H 0.1085 0.9615 0.1823
C6_3 C 0.10143(12) 0.88648(18) 0.2563(4)
H4_3 H 0.0845 0.8679 0.1422
C7_6 C 0.09235(10) 0.79704(15) 0.3626(3)
H5_3 H 0.0778 0.7834 0.2409
C8_6 C 0.07029(12) 0.70214(17) 0.4266(3)
H6_3 H 0.0919 0.6998 0.3195
H7_6 H 0.0308 0.6860 0.3863
C9_6 C 0.07367(11) 0.66839(16) 0.5946(3)
Cu3_8 Cu 0.209472(12) 0.888665(17) 0.92826(4)
O4_8 O 0.17849(7) 0.80646(10) 0.9580(2)
N1_7 N 0.23828(11) 0.33142(8) 0.4812(3)
O1_9 O 0.13979(10) 0.29464(7) 0.7087(2)
O2_9 O 0.30356(13) 0.40021(9) 0.7467(2)
C1_7 C 0.14341(14) 0.25557(10) 0.4009(4)
C2_7 C 0.11480(14) 0.25461(10) 0.5732(3)
C3_7 C 0.05827(18) 0.20994(12) 0.5957(4)
H1_9 H 0.0390 0.2070 0.7096
C4_7 C 0.03071(21) 0.17035(14) 0.4522(5)
C5_4 C 0.05793(21) 0.17319(15) 0.2799(5)
H3_4 H 0.0385 0.1471 0.1823
C6_4 C 0.11352(18) 0.21496(13) 0.2563(4)
H4_4 H 0.1321 0.2167 0.1422
C7_7 C 0.20296(15) 0.29532(11) 0.3626(3)
H5_4 H 0.2166 0.2945 0.2409
C8_7 C 0.29786(17) 0.36816(12) 0.4266(3)
H6_4 H 0.3002 0.3922 0.3195
H7_7 H 0.3140 0.3449 0.3863
C9_7 C 0.33161(16) 0.40529(11) 0.5946(3)
Cu3_9 Cu 0.111335(17) 0.320807(12) 0.92826(4)
O4_9 O 0.19354(10) 0.37203(7) 0.9580(2)
N1_8 N 0.66475(8) 0.75980(8) 0.1855(3)
O3_4 O 0.77096(9) 0.72081(10) 0.0869(3)
C1_8 C 0.58890(10) 0.77882(10) 0.2658(4)
C2_8 C 0.58794(10) 0.80647(10) 0.0935(3)
C3_8 C 0.54327(12) 0.81833(13) 0.0710(4)
C4_8 C 0.50368(14) 0.80630(15) 0.2145(5)
H2_6 H 0.4746 0.8146 0.1956
C5_5 C 0.50652(15) 0.78192(15) 0.3868(5)
H3_5 H 0.4804 0.7752 0.4844
C6_5 C 0.54829(13) 0.76810(12) 0.4104(4)
H4_5 H 0.5500 0.7512 0.5245
C7_8 C 0.62865(11) 0.75902(10) 0.3041(3)
H5_5 H 0.6278 0.7445 0.4258
C8_8 C 0.70149(12) 0.73696(12) 0.2401(3)
H6_5 H 0.7255 0.7586 0.3472
H7_8 H 0.6782 0.6975 0.2804
C9_8 C 0.73862(11) 0.74034(11) 0.0721(3)
O2_10 O 0.73354(9) 0.76331(9) 0.9200(2)
H1_10 H 0.5403 0.8346 0.9571
O5_7 O 0.61252(10) 0.71682(13) 0.7536(3)
O3_5 O 0.27919(10) 0.05015(13) 0.0869(3)
O2_11 O 0.23669(9) 0.97023(13) 0.9200(2)
H1_11 H 0.1654 0.7057 0.9571
O5_8 O 0.28318(13) 0.89571(16) 0.7536(3)
O2_12 O 0.02977(13) 0.26646(9) 0.9200(2)
H1_12 H 0.2943 0.4597 0.9571
O5_9 O 0.10429(16) 0.38748(10) 0.7536(3)
O3_6 O 0.94985(13) 0.22904(9) 0.0869(3)
O2_13 O 0.06687(9) 0.42998(9) 0.5867(2)
C8_9 C 0.03482(12) 0.40363(12) 0.9068(3)
H7_9 H 0.0115 0.3642 0.9471
C9_9 C 0.07195(11) 0.40701(11) 0.7388(3)
N1_9 N 0.99808(8) 0.42647(8) 0.8522(3)
C1_9 C 0.92223(10) 0.44549(10) 0.9325(4)
C2_9 C 0.92127(10) 0.47314(10) 0.7602(3)
C3_9 C 0.87660(12) 0.48500(13) 0.7377(4)
H1_13 H 0.8736 0.5013 0.6238
C4_9 C 0.83701(14) 0.47297(15) 0.8812(5)
H2_7 H 0.8079 0.4813 0.8623
C7_9 C 0.96198(11) 0.42569(10) 0.9708(3)
O5_10 O 0.94586(10) 0.38348(13) 0.4202(3)
N1_10 N 0.57353(8) 0.57162(11) 0.8522(3)
O2_14 O 0.57002(9) 0.63690(13) 0.5867(2)
C1_10 C 0.55451(10) 0.47675(14) 0.9325(4)
C2_10 C 0.52686(10) 0.44814(14) 0.7602(3)
C3_10 C 0.51500(13) 0.39161(18) 0.7377(4)
H1_14 H 0.4987 0.3724 0.6238
C4_10 C 0.52703(15) 0.36405(21) 0.8812(5)
H2_8 H 0.5187 0.3267 0.8623
C7_10 C 0.57431(10) 0.53630(15) 0.9708(3)
C8_10 C 0.59637(12) 0.63120(17) 0.9068(3)
H7_10 H 0.6358 0.6474 0.9471
C9_10 C 0.59299(11) 0.66495(16) 0.7388(3)
O5_11 O 0.61652(13) 0.56237(16) 0.4202(3)
N1_11 N 0.42838(11) 0.00192(8) 0.8522(3)
C1_11 C 0.52325(14) 0.07777(10) 0.9325(4)
C2_11 C 0.55186(14) 0.07873(10) 0.7602(3)
C3_11 C 0.60839(18) 0.12340(12) 0.7377(4)
H1_15 H 0.6276 0.1264 0.6238
C4_11 C 0.63595(21) 0.16299(14) 0.8812(5)
H2_9 H 0.6733 0.1921 0.8623
C7_11 C 0.46370(15) 0.03802(11) 0.9708(3)
O5_12 O 0.43763(16) 0.05414(10) 0.4202(3)
O2_15 O 0.36310(13) 0.93313(9) 0.5867(2)
C8_11 C 0.36880(17) 0.96518(12) 0.9068(3)
H7_11 H 0.3526 0.9885 0.9471
C9_11 C 0.33505(16) 0.92805(11) 0.7388(3)
N1_12 N 0.33142(8) 0.09313(8) 0.5188(3)
O2_16 O 0.40021(9) 0.09664(9) 0.2533(2)
C1_12 C 0.25557(10) 0.11215(10) 0.5991(4)
C2_12 C 0.25461(10) 0.13980(10) 0.4268(3)
C3_12 C 0.20994(12) 0.15166(13) 0.4043(4)
H1_16 H 0.2070 0.1679 0.2904
C4_12 C 0.17035(14) 0.13963(15) 0.5478(5)
H2_10 H 0.1413 0.1479 0.5289
C5_6 C 0.17319(15) 0.11525(15) 0.7201(5)
H3_6 H 0.1471 0.1085 0.8177
C6_6 C 0.21496(13) 0.10143(12) 0.7437(4)
H4_6 H 0.2167 0.0845 0.8578
C7_12 C 0.29532(11) 0.09235(10) 0.6374(3)
H5_6 H 0.2945 0.0778 0.7591
C8_12 C 0.36816(12) 0.07029(12) 0.5734(3)
H6_6 H 0.3922 0.0919 0.6805
H7_12 H 0.3449 0.0308 0.6137
C9_12 C 0.40529(11) 0.07367(11) 0.4054(3)
N1_13 N 0.90687(8) 0.23828(11) 0.5188(3)
O2_17 O 0.90336(9) 0.30356(13) 0.2533(2)
C1_13 C 0.88785(10) 0.14341(14) 0.5991(4)
C2_13 C 0.86020(10) 0.11480(14) 0.4268(3)
C3_13 C 0.84834(13) 0.05827(18) 0.4043(4)
H1_17 H 0.8321 0.0390 0.2904
C4_13 C 0.86037(15) 0.03071(21) 0.5478(5)
C5_7 C 0.88475(15) 0.05793(21) 0.7201(5)
H3_7 H 0.8915 0.0385 0.8177
C6_7 C 0.89857(12) 0.11352(18) 0.7437(4)
H4_7 H 0.9155 0.1321 0.8578
C7_13 C 0.90765(10) 0.20296(15) 0.6374(3)
H5_7 H 0.9222 0.2166 0.7591
C8_13 C 0.92971(12) 0.29786(17) 0.5734(3)
H6_7 H 0.9081 0.3002 0.6805
H7_13 H 0.9692 0.3140 0.6137
C9_13 C 0.92633(11) 0.33161(16) 0.4054(3)
N1_14 N 0.76172(11) 0.66858(8) 0.5188(3)
O2_18 O 0.69644(13) 0.59979(9) 0.2533(2)
C1_14 C 0.85659(14) 0.74443(10) 0.5991(4)
C2_14 C 0.88520(14) 0.74539(10) 0.4268(3)
C3_14 C 0.94173(18) 0.79006(12) 0.4043(4)
H1_18 H 0.9610 0.7930 0.2904
C4_14 C 0.96929(21) 0.82965(14) 0.5478(5)
C5_8 C 0.94207(21) 0.82681(15) 0.7201(5)
H3_8 H 0.9615 0.8529 0.8177
C6_8 C 0.88648(18) 0.78504(13) 0.7437(4)
H4_8 H 0.8679 0.7833 0.8578
C7_14 C 0.79704(15) 0.70468(11) 0.6374(3)
H5_8 H 0.7834 0.7055 0.7591
C8_14 C 0.70214(17) 0.63184(12) 0.5734(3)
H6_8 H 0.6998 0.6078 0.6805
H7_14 H 0.6860 0.6551 0.6137
C9_14 C 0.66839(16) 0.59471(11) 0.4054(3)
N1_15 N 0.75980(8) 0.09505(11) 0.8145(3)
C1_15 C 0.77882(10) 0.18992(14) 0.7342(4)
C2_15 C 0.80647(10) 0.21853(14) 0.9065(3)
C3_15 C 0.81833(13) 0.27506(18) 0.9290(4)
C4_15 C 0.80630(15) 0.30262(21) 0.7855(5)
H2_11 H 0.8146 0.3400 0.8044
C5_9 C 0.78192(15) 0.27540(21) 0.6132(5)
H3_9 H 0.7752 0.2948 0.5156
C6_9 C 0.76810(12) 0.21981(18) 0.5896(4)
H4_9 H 0.7512 0.2012 0.4755
C7_15 C 0.75902(10) 0.13037(15) 0.6959(3)
H5_9 H 0.7445 0.1167 0.5742
C8_15 C 0.73696(12) 0.03547(17) 0.7599(3)
H6_9 H 0.7586 0.0331 0.6528
H7_15 H 0.6975 0.0193 0.7196
C9_15 C 0.74034(11) 0.00172(16) 0.9279(3)
N1_16 N 0.90495(11) 0.66475(8) 0.8145(3)
C1_16 C 0.81008(14) 0.58890(10) 0.7342(4)
C2_16 C 0.78147(14) 0.58794(10) 0.9065(3)
C3_16 C 0.72494(18) 0.54327(12) 0.9290(4)
C4_16 C 0.69738(21) 0.50368(14) 0.7855(5)
H2_12 H 0.6600 0.4746 0.8044
C5_10 C 0.72460(21) 0.50652(15) 0.6132(5)
H3_10 H 0.7052 0.4804 0.5156
C6_10 C 0.78019(18) 0.54829(13) 0.5896(4)
H4_10 H 0.7988 0.5500 0.4755
C7_16 C 0.86963(15) 0.62865(11) 0.6959(3)
H5_10 H 0.8833 0.6278 0.5742
C8_16 C 0.96453(17) 0.70149(12) 0.7599(3)
H6_10 H 0.9669 0.7255 0.6528
H7_16 H 0.9807 0.6782 0.7196
C9_16 C 0.99828(16) 0.73862(11) 0.9279(3)
C5_11 C 0.16015(15) 0.55141(15) 0.9465(5)
H3_11 H 0.1863 0.5581 0.8489
C6_11 C 0.11838(13) 0.56523(12) 0.9229(4)
H4_11 H 0.1167 0.5821 0.8088
H5_11 H 0.0389 0.5888 0.9075
H6_11 H 0.9412 0.5747 0.9861
C5_12 C 0.44859(15) 0.60873(21) 0.9465(5)
H3_12 H 0.4419 0.6281 0.8489
C6_12 C 0.43477(12) 0.55314(18) 0.9229(4)
H4_12 H 0.4179 0.5345 0.8088
H5_12 H 0.4112 0.4500 0.9075
H6_12 H 0.4253 0.3664 0.9861
H6_13 H 0.6336 0.0588 0.9861
C5_13 C 0.39127(21) 0.83985(15) 0.9465(5)
H3_13 H 0.3719 0.8137 0.8489
C6_13 C 0.44686(18) 0.88162(13) 0.9229(4)
H4_13 H 0.4655 0.8833 0.8088
H5_13 H 0.5500 0.9611 0.9075
H2_13 H 0.1479 0.0067 0.4711
H2_14 H 0.9933 0.1413 0.4711
N1_17 N 0.24020(8) 0.90495(11) 0.1855(3)
C1_17 C 0.22118(10) 0.81008(14) 0.2658(4)
C2_17 C 0.19353(10) 0.78147(14) 0.0935(3)
C3_17 C 0.18167(13) 0.72494(18) 0.0710(4)
C4_17 C 0.19370(15) 0.69738(21) 0.2145(5)
H2_15 H 0.1854 0.6600 0.1956
C5_14 C 0.21808(15) 0.72460(21) 0.3868(5)
H3_14 H 0.2248 0.7052 0.4844
C6_14 C 0.23190(12) 0.78019(18) 0.4104(4)
H4_14 H 0.2488 0.7988 0.5245
C7_17 C 0.24098(10) 0.86963(15) 0.3041(3)
H5_14 H 0.2555 0.8833 0.4258
C8_17 C 0.26304(12) 0.96453(17) 0.2401(3)
H6_14 H 0.2414 0.9669 0.3472
H7_17 H 0.3025 0.9807 0.2804
C9_17 C 0.25966(11) 0.99828(16) 0.0721(3)
N1_18 N 0.09505(11) 0.33525(8) 0.1855(3)
C1_18 C 0.18992(14) 0.41110(10) 0.2658(4)
C2_18 C 0.21853(14) 0.41206(10) 0.0935(3)
C3_18 C 0.27506(18) 0.45673(12) 0.0710(4)
C4_18 C 0.30262(21) 0.49632(14) 0.2145(5)
H2_16 H 0.3400 0.5254 0.1956
C5_15 C 0.27540(21) 0.49348(15) 0.3868(5)
H3_15 H 0.2948 0.5196 0.4844
C6_15 C 0.21981(18) 0.45171(13) 0.4104(4)
H4_15 H 0.2012 0.4500 0.5245
C7_18 C 0.13037(15) 0.37135(11) 0.3041(3)
H5_15 H 0.1167 0.3722 0.4258
C8_18 C 0.03547(17) 0.29851(12) 0.2401(3)
H6_15 H 0.0331 0.2745 0.3472
H7_18 H 0.0193 0.3218 0.2804
C9_18 C 0.00172(16) 0.26138(11) 0.0721(3)
H6_16 H 0.0588 0.4253 0.0139
C5_16 C 0.83985(15) 0.44859(15) 0.0535(5)
H3_16 H 0.8137 0.4419 0.1511
C6_16 C 0.88162(13) 0.43477(12) 0.0771(4)
H4_16 H 0.8833 0.4179 0.1912
H5_16 H 0.9611 0.4112 0.0925
C5_17 C 0.55141(15) 0.39127(21) 0.0535(5)
H3_17 H 0.5581 0.3719 0.1511
C6_17 C 0.56523(12) 0.44686(18) 0.0771(4)
H4_17 H 0.5821 0.4655 0.1912
H5_17 H 0.5888 0.5500 0.0925
H6_17 H 0.5747 0.6336 0.0139
C5_18 C 0.60873(21) 0.16015(15) 0.0535(5)
H3_18 H 0.6281 0.1863 0.1511
C6_18 C 0.55314(18) 0.11838(13) 0.0771(4)
H4_18 H 0.5345 0.1167 0.1912
H5_18 H 0.4500 0.0389 0.0925
H6_18 H 0.3664 0.9412 0.0139
H2_17 H 0.8521 0.9933 0.5289
H2_18 H 0.0067 0.8587 0.5289
loop_
_geom_bond_atom_site_label_1
_geom_bond_atom_site_label_2
_geom_bond_site_symmetry_1
_geom_bond_site_symmetry_2
O1 Cu1 1_555 1_555
O2 Cu1 1_555 1_555
Cu3 O1 1_555 1_555
O4 Cu1 1_555 1_555
O5 Cu1 1_555 1_555
Cu3 O4 1_555 1_555
N1 C7 1_555 1_555
O3 C9 1_555 1_555
C1 C2 1_555 1_555
C3 C2 1_555 1_555
C4 C3 1_555 1_555
H2 C4 1_555 1_555
C5 C4 1_555 1_555
H3 C5 1_555 1_555
C6 C1 1_555 1_555
H4 C6 1_555 1_555
C7 C1 1_555 1_555
H5 C7 1_555 1_555
C8 N1 1_555 1_555
H6 C8 1_555 1_555
H7 C8 1_555 1_555
Cu2 O3 1_555 1_555
C5 C6 1_555 1_555
C8 C9 1_555 1_555
O1_2 Cu1_2 1_555 1_555
O2_2 Cu1_2 1_555 1_555
Cu3_2 O1_2 1_555 1_555
O4_2 Cu1_2 1_555 1_555
O5_2 Cu1_2 1_555 1_555
Cu3_2 O4_2 1_555 1_555
Cu2_2 O3_2 1_555 1_555
Cu2_3 O3_3 1_555 1_555
O1_3 Cu1_3 1_555 1_555
O2_3 Cu1_3 1_555 1_555
Cu3_3 O1_3 1_555 1_555
O4_3 Cu1_3 1_555 1_555
O5_3 Cu1_3 1_555 1_555
Cu3_3 O4_3 1_555 1_555
N1_2 C7_2 1_555 1_555
C1_2 C2_2 1_555 1_555
C2_2 O1_4 1_555 1_555
C3_2 C2_2 1_555 1_555
H1_4 C3_2 1_555 1_555
C4_2 C3_2 1_555 1_555
H2_2 C4_2 1_555 1_555
C7_2 C1_2 1_555 1_555
Cu3_4 O1_4 1_555 1_555
O2_4 Cu1_4 1_555 1_555
O5_3 C9_2 1_555 1_555
H7_2 C8_2 1_555 1_555
C9_2 O2_4 1_555 1_555
O4_4 Cu1_4 1_555 1_555
C8_2 C9_2 1_555 1_555
Cu1_5 N1_3 1_555 1_555
N1_3 C7_3 1_555 1_555
O1_5 Cu1_5 1_555 1_555
O2_5 Cu1_5 1_555 1_555
O5 C9_3 1_555 1_555
C1_3 C2_3 1_555 1_555
C2_3 O1_5 1_555 1_555
C3_3 C2_3 1_555 1_555
H1_5 C3_3 1_555 1_555
C4_3 C3_3 1_555 1_555
H2_3 C4_3 1_555 1_555
C7_3 C1_3 1_555 1_555
C8_3 N1_3 1_555 1_555
H7_3 C8_3 1_555 1_555
C9_3 O2_5 1_555 1_555
Cu3_5 O1_5 1_555 1_555
O4_5 Cu1_5 1_555 1_555
O5_5 Cu1_5 1_555 1_555
C8_3 C9_3 1_555 1_555
Cu3_5 O4_5 1_555 1_555
O2_6 Cu1_6 1_555 1_555
O5_2 C9_4 1_555 1_555
H7_4 C8_4 1_555 1_555
C9_4 O2_6 1_555 1_555
O4_6 Cu1_6 1_555 1_555
C8_4 C9_4 1_555 1_555
N1_4 C7_4 1_555 1_555
C1_4 C2_4 1_555 1_555
C2_4 O1_6 1_555 1_555
C3_4 C2_4 1_555 1_555
H1_6 C3_4 1_555 1_555
C4_4 C3_4 1_555 1_555
H2_4 C4_4 1_555 1_555
C7_4 C1_4 1_555 1_555
Cu3_6 O1_6 1_555 1_555
Cu2_2 N1_5 1_555 1_555
N1_5 C7_5 1_555 1_555
O1_7 Cu2_2 1_555 1_555
O2_7 Cu2_2 1_555 1_555
O5_6 C9_5 1_555 1_555
C1_5 C2_5 1_555 1_555
C2_5 O1_7 1_555 1_555
C3_5 C2_5 1_555 1_555
H1_7 C3_5 1_555 1_555
C4_5 C3_5 1_555 1_555
H2_5 C4_5 1_555 1_555
C5_2 C4_5 1_555 1_555
H3_2 C5_2 1_555 1_555
C6_2 C1_5 1_555 1_555
H4_2 C6_2 1_555 1_555
C7_5 C1_5 1_555 1_555
H5_2 C7_5 1_555 1_555
C8_5 N1_5 1_555 1_555
H6_2 C8_5 1_555 1_555
H7_5 C8_5 1_555 1_555
C9_5 O2_7 1_555 1_555
Cu3_7 O1_7 1_555 1_555
O4_7 Cu2_2 1_555 1_555
C5_2 C6_2 1_555 1_555
C8_5 C9_5 1_555 1_555
Cu3_7 O4_7 1_555 1_555
Cu2_3 N1_6 1_555 1_555
N1_6 C7_6 1_555 1_555
O1_8 Cu2_3 1_555 1_555
O2_8 Cu2_3 1_555 1_555
O5_4 C9_6 1_555 1_555
C1_6 C2_6 1_555 1_555
C2_6 O1_8 1_555 1_555
C3_6 C2_6 1_555 1_555
H1_8 C3_6 1_555 1_555
C4_6 C3_6 1_555 1_555
C5_3 C4_6 1_555 1_555
H3_3 C5_3 1_555 1_555
C6_3 C1_6 1_555 1_555
H4_3 C6_3 1_555 1_555
C7_6 C1_6 1_555 1_555
H5_3 C7_6 1_555 1_555
C8_6 N1_6 1_555 1_555
H6_3 C8_6 1_555 1_555
H7_6 C8_6 1_555 1_555
C9_6 O2_8 1_555 1_555
Cu3_8 O1_8 1_555 1_555
O4_8 Cu2_3 1_555 1_555
C5_3 C6_3 1_555 1_555
C8_6 C9_6 1_555 1_555
Cu3_8 O4_8 1_555 1_555
Cu2 N1_7 1_555 1_555
N1_7 C7_7 1_555 1_555
O1_9 Cu2 1_555 1_555
O2_9 Cu2 1_555 1_555
O5_5 C9_7 1_555 1_555
C1_7 C2_7 1_555 1_555
C2_7 O1_9 1_555 1_555
C3_7 C2_7 1_555 1_555
H1_9 C3_7 1_555 1_555
C4_7 C3_7 1_555 1_555
C5_4 C4_7 1_555 1_555
H3_4 C5_4 1_555 1_555
C6_4 C1_7 1_555 1_555
H4_4 C6_4 1_555 1_555
C7_7 C1_7 1_555 1_555
H5_4 C7_7 1_555 1_555
C8_7 N1_7 1_555 1_555
H6_4 C8_7 1_555 1_555
H7_7 C8_7 1_555 1_555
C9_7 O2_9 1_555 1_555
Cu3_9 O1_9 1_555 1_555
O4_9 Cu2 1_555 1_555
C5_4 C6_4 1_555 1_555
C8_7 C9_7 1_555 1_555
Cu3_9 O4_9 1_555 1_555
N1_8 C7_8 1_555 1_555
O3_4 C9_8 1_555 1_555
C1_8 C2_8 1_555 1_555
C3_8 C2_8 1_555 1_555
C4_8 C3_8 1_555 1_555
H2_6 C4_8 1_555 1_555
C5_5 C4_8 1_555 1_555
H3_5 C5_5 1_555 1_555
C6_5 C1_8 1_555 1_555
H4_5 C6_5 1_555 1_555
C7_8 C1_8 1_555 1_555
H5_5 C7_8 1_555 1_555
C8_8 N1_8 1_555 1_555
H6_5 C8_8 1_555 1_555
H7_8 C8_8 1_555 1_555
Cu3_3 O3_4 1_555 1_555
C5_5 C6_5 1_555 1_555
C8_8 C9_8 1_555 1_555
O2_10 Cu3_7 1_555 1_555
O5_7 Cu3_7 1_555 1_555
Cu3 O3_5 1_555 1_555
O2_11 Cu3_8 1_555 1_555
O5_8 Cu3_8 1_555 1_555
O2_12 Cu3_9 1_555 1_555
O5_9 Cu3_9 1_555 1_555
Cu3_2 O3_6 1_555 1_555
O2_13 Cu3_4 1_555 1_555
O5_9 C9_9 1_555 1_555
H7_9 C8_9 1_555 1_555
C9_9 O2_13 1_555 1_555
C8_9 C9_9 1_555 1_555
N1_9 C7_9 1_555 1_555
C1_9 C2_9 1_555 1_555
C2_9 O4_4 1_555 1_555
C3_9 C2_9 1_555 1_555
H1_13 C3_9 1_555 1_555
C4_9 C3_9 1_555 1_555
H2_7 C4_9 1_555 1_555
C7_9 C1_9 1_555 1_555
Cu3_5 N1_10 1_555 1_555
N1_10 C7_10 1_555 1_555
O2_14 Cu3_5 1_555 1_555
O5_7 C9_10 1_555 1_555
C1_10 C2_10 1_555 1_555
C2_10 O4_5 1_555 1_555
C3_10 C2_10 1_555 1_555
H1_14 C3_10 1_555 1_555
C4_10 C3_10 1_555 1_555
H2_8 C4_10 1_555 1_555
C7_10 C1_10 1_555 1_555
C8_10 N1_10 1_555 1_555
H7_10 C8_10 1_555 1_555
C9_10 O2_14 1_555 1_555
O5_11 Cu3_5 1_555 1_555
C8_10 C9_10 1_555 1_555
N1_11 C7_11 1_555 1_555
C1_11 C2_11 1_555 1_555
C2_11 O4_6 1_555 1_555
C3_11 C2_11 1_555 1_555
H1_15 C3_11 1_555 1_555
C4_11 C3_11 1_555 1_555
H2_9 C4_11 1_555 1_555
C7_11 C1_11 1_555 1_555
O2_15 Cu3_6 1_555 1_555
O5_8 C9_11 1_555 1_555
H7_11 C8_11 1_555 1_555
C9_11 O2_15 1_555 1_555
C8_11 C9_11 1_555 1_555
Cu3 N1_12 1_555 1_555
N1_12 C7_12 1_555 1_555
O2_16 Cu3 1_555 1_555
O5_12 C9_12 1_555 1_555
C1_12 C2_12 1_555 1_555
C2_12 O4 1_555 1_555
C3_12 C2_12 1_555 1_555
H1_16 C3_12 1_555 1_555
C4_12 C3_12 1_555 1_555
H2_10 C4_12 1_555 1_555
C5_6 C4_12 1_555 1_555
H3_6 C5_6 1_555 1_555
C6_6 C1_12 1_555 1_555
H4_6 C6_6 1_555 1_555
C7_12 C1_12 1_555 1_555
H5_6 C7_12 1_555 1_555
C8_12 N1_12 1_555 1_555
H6_6 C8_12 1_555 1_555
H7_12 C8_12 1_555 1_555
C9_12 O2_16 1_555 1_555
C5_6 C6_6 1_555 1_555
C8_12 C9_12 1_555 1_555
Cu3_2 N1_13 1_555 1_555
N1_13 C7_13 1_555 1_555
O2_17 Cu3_2 1_555 1_555
O5_10 C9_13 1_555 1_555
C1_13 C2_13 1_555 1_555
C2_13 O4_2 1_555 1_555
C3_13 C2_13 1_555 1_555
H1_17 C3_13 1_555 1_555
C4_13 C3_13 1_555 1_555
C5_7 C4_13 1_555 1_555
H3_7 C5_7 1_555 1_555
C6_7 C1_13 1_555 1_555
H4_7 C6_7 1_555 1_555
C7_13 C1_13 1_555 1_555
H5_7 C7_13 1_555 1_555
C8_13 N1_13 1_555 1_555
H6_7 C8_13 1_555 1_555
H7_13 C8_13 1_555 1_555
C9_13 O2_17 1_555 1_555
C5_7 C6_7 1_555 1_555
C8_13 C9_13 1_555 1_555
Cu3_3 N1_14 1_555 1_555
N1_14 C7_14 1_555 1_555
O2_18 Cu3_3 1_555 1_555
O5_11 C9_14 1_555 1_555
C1_14 C2_14 1_555 1_555
C2_14 O4_3 1_555 1_555
C3_14 C2_14 1_555 1_555
H1_18 C3_14 1_555 1_555
C4_14 C3_14 1_555 1_555
C5_8 C4_14 1_555 1_555
H3_8 C5_8 1_555 1_555
C6_8 C1_14 1_555 1_555
H4_8 C6_8 1_555 1_555
C7_14 C1_14 1_555 1_555
H5_8 C7_14 1_555 1_555
C8_14 N1_14 1_555 1_555
H6_8 C8_14 1_555 1_555
H7_14 C8_14 1_555 1_555
C9_14 O2_18 1_555 1_555
C5_8 C6_8 1_555 1_555
C8_14 C9_14 1_555 1_555
N1_15 C7_15 1_555 1_555
C1_15 C2_15 1_555 1_555
C3_15 C2_15 1_555 1_555
C4_15 C3_15 1_555 1_555
H2_11 C4_15 1_555 1_555
C5_9 C4_15 1_555 1_555
H3_9 C5_9 1_555 1_555
C6_9 C1_15 1_555 1_555
H4_9 C6_9 1_555 1_555
C7_15 C1_15 1_555 1_555
H5_9 C7_15 1_555 1_555
C8_15 N1_15 1_555 1_555
H6_9 C8_15 1_555 1_555
H7_15 C8_15 1_555 1_555
C5_9 C6_9 1_555 1_555
C8_15 C9_15 1_555 1_555
N1_16 C7_16 1_555 1_555
C1_16 C2_16 1_555 1_555
C3_16 C2_16 1_555 1_555
C4_16 C3_16 1_555 1_555
H2_12 C4_16 1_555 1_555
C5_10 C4_16 1_555 1_555
H3_10 C5_10 1_555 1_555
C6_10 C1_16 1_555 1_555
H4_10 C6_10 1_555 1_555
C7_16 C1_16 1_555 1_555
H5_10 C7_16 1_555 1_555
C8_16 N1_16 1_555 1_555
H6_10 C8_16 1_555 1_555
H7_16 C8_16 1_555 1_555
C5_10 C6_10 1_555 1_555
C8_16 C9_16 1_555 1_555
H3_11 C5_11 1_555 1_555
H4_11 C6_11 1_555 1_555
C5_11 C6_11 1_555 1_555
H3_12 C5_12 1_555 1_555
H4_12 C6_12 1_555 1_555
C5_12 C6_12 1_555 1_555
H3_13 C5_13 1_555 1_555
H4_13 C6_13 1_555 1_555
C5_13 C6_13 1_555 1_555
N1_17 C7_17 1_555 1_555
C1_17 C2_17 1_555 1_555
C3_17 C2_17 1_555 1_555
C4_17 C3_17 1_555 1_555
H2_15 C4_17 1_555 1_555
C5_14 C4_17 1_555 1_555
H3_14 C5_14 1_555 1_555
C6_14 C1_17 1_555 1_555
H4_14 C6_14 1_555 1_555
C7_17 C1_17 1_555 1_555
H5_14 C7_17 1_555 1_555
C8_17 N1_17 1_555 1_555
H6_14 C8_17 1_555 1_555
H7_17 C8_17 1_555 1_555
C5_14 C6_14 1_555 1_555
C8_17 C9_17 1_555 1_555
N1_18 C7_18 1_555 1_555
C1_18 C2_18 1_555 1_555
C3_18 C2_18 1_555 1_555
C4_18 C3_18 1_555 1_555
H2_16 C4_18 1_555 1_555
C5_15 C4_18 1_555 1_555
H3_15 C5_15 1_555 1_555
C6_15 C1_18 1_555 1_555
H4_15 C6_15 1_555 1_555
C7_18 C1_18 1_555 1_555
H5_15 C7_18 1_555 1_555
C8_18 N1_18 1_555 1_555
H6_15 C8_18 1_555 1_555
H7_18 C8_18 1_555 1_555
C5_15 C6_15 1_555 1_555
C8_18 C9_18 1_555 1_555
H3_16 C5_16 1_555 1_555
H4_16 C6_16 1_555 1_555
C5_16 C6_16 1_555 1_555
H3_17 C5_17 1_555 1_555
H4_17 C6_17 1_555 1_555
C5_17 C6_17 1_555 1_555
H3_18 C5_18 1_555 1_555
H4_18 C6_18 1_555 1_555
C5_18 C6_18 1_555 1_555

#END
