
###############################################################################
#
# This file contains modified crystal structure data generated from the
# MOF subset of the Cambridge Structural Database (CSD) v543 
# hosted by the Cambridge Crystallographic Data Centre (CCDC).
#
# This work is licensed under the Creative Commons
# Attribution-NonCommercial-ShareAlike 4.0 International License.
# To view a copy of this license, visit
# http://creativecommons.org/licenses/by-nc-sa/4.0/
# or send a letter to
# Creative Commons, PO Box 1866, Mountain View, CA 94042, USA.
#
# CIF created using the CSD Python API on 29 September 2022
# The structure has been converted into the P1 space group
# The structure has a 3D framework
# The original CSD entry KEYMUY is in the orthorhombic crystal system
# The framework has been calculated to contain at least 10.0% void space
# The void calculation uses a probe of radius 1.32A, grid spacing 0.4
# The framework is charged, counterions have been retained in the structure
# H atom positions have been added when not included in the experimental data
#
###############################################################################

data_KEYMUY
_chemical_formula_moiety         '(C72 H80 Cd4 N4 Na4 O48)n'
_symmetry_cell_setting           triclinic
_symmetry_space_group_name_H-M   'P 1'
_symmetry_Int_Tables_number      1
_space_group_name_Hall           'P 1'
loop_
_symmetry_equiv_pos_site_id
_symmetry_equiv_pos_as_xyz
1 x,y,z
_cell_length_a                   18.6294(10)
_cell_length_b                   9.9345(5)
_cell_length_c                   14.7424(8)
_cell_angle_alpha                90
_cell_angle_beta                 90
_cell_angle_gamma                90
_cell_volume                     2728.43
loop_
_atom_site_label
_atom_site_type_symbol
_atom_site_fract_x
_atom_site_fract_y
_atom_site_fract_z
O7 O 0.5228(2) 0.1280(5) 0.2632(4)
O8 O 0.8427(2) 0.0942(6) 0.1096(5)
O9 O 0.9024(3) 0.0672(6) 0.2353(4)
O10 O 0.7365(3) 0.2185(7) 0.4800(4)
H2 H 0.7103 0.1760 0.5144
C9 C 0.5763(3) 0.0728(7) 0.2315(4)
C10 C 0.6501(3) 0.1029(7) 0.2696(4)
C11 C 0.7106(4) 0.0869(8) 0.2156(5)
H6 H 0.7059 0.0556 0.1564
C12 C 0.7786(3) 0.1181(7) 0.2503(4)
C13 C 0.8453(4) 0.0910(7) 0.1940(4)
C14 C 0.7844(4) 0.1651(9) 0.3391(5)
H7 H 0.8293 0.1883 0.3618
C15 C 0.7248(4) 0.1780(8) 0.3937(5)
C16 C 0.6566(4) 0.1457(7) 0.3580(5)
H8 H 0.6160 0.1534 0.3943
Cd3 Cd 0.968450(19) 0.04069(3) 0.10302(5)
Na3 Na 0.44033(17) 0.0548(3) 0.3757(2)
O13 O 0.4570(3) 0.1817(5) 0.0709(4)
O14 O 0.4823(5) 0.0943(6) 0.9401(5)
O18 O 0.5976(3) 0.0672(6) 0.7353(4)
H19 H 0.683627 0.0504111 0.972661
Cd1 Cd 0.468450(19) 0.95931(3) 0.10302(5)
O2 O 0.4729(3) 0.6865(5) 0.1162(4)
O6 O 0.5758(3) 0.9888(7) 0.1655(4)
C1 C 0.4842(4) 0.6968(6) 0.0330(4)
C3 C 0.4795(4) 0.4431(7) 0.0094(5)
H3 H 0.4711 0.4301 0.0709
Na4 Na 0.94033(17) 0.9452(3) 0.3757(2)
O16 O 0.3427(2) 0.9058(6) 0.1096(5)
O17 O 0.4024(3) 0.9328(6) 0.2353(4)
H18 H 0.665118 0.906487 0.0189759
Na1 Na 0.55967(17) 0.9452(3) 0.8757(2)
O1 O 0.4930(3) 0.8100(4) 0.9948(3)
O5 O 0.5206(4) 0.5077(7) 0.7355(4)
H1 H 0.5391 0.5824 0.7316
O11 O 0.6445(6) 0.9923(15) 0.9963(6)
O12 O 0.6406(3) 0.7712(7) 0.8336(5)
C2 C 0.4866(4) 0.5735(7) 0.9742(4)
C4 C 0.4853(4) 0.3332(6) 0.9515(4)
C5 C 0.4751(3) 0.1929(6) 0.9902(5)
C6 C 0.4996(4) 0.3486(7) 0.8591(4)
H4 H 0.5048 0.2741 0.8214
C7 C 0.5060(5) 0.4800(8) 0.8245(5)
C8 C 0.4973(4) 0.5902(7) 0.8804(5)
H5 H 0.4986 0.6764 0.8559
O15 O 0.4772(2) 0.8720(5) 0.7632(4)
H16 H 0.613096 0.692636 0.810663
H17 H 0.67322 0.804495 0.785285
Cd2 Cd 0.531550(19) 0.04069(3) 0.60302(5)
O1_2 O 0.5070(3) 0.1900(4) 0.4948(3)
O2_2 O 0.5271(3) 0.3135(5) 0.6162(4)
O3 O 0.5430(3) 0.8183(5) 0.5709(4)
O4 O 0.5177(5) 0.9057(6) 0.4401(5)
O5_2 O 0.4794(4) 0.4923(7) 0.2355(4)
H1_2 H 0.4609 0.4176 0.2316
O6_2 O 0.4242(3) 0.0112(7) 0.6655(4)
O11_2 O 0.3555(6) 0.0077(15) 0.4963(6)
O12_2 O 0.3594(3) 0.2288(7) 0.3336(5)
C1_2 C 0.5158(4) 0.3032(6) 0.5330(4)
C2_2 C 0.5134(4) 0.4265(7) 0.4742(4)
C3_2 C 0.5205(4) 0.5569(7) 0.5094(5)
H3_2 H 0.5289 0.5699 0.5709
C4_2 C 0.5147(4) 0.6668(6) 0.4515(4)
C5_2 C 0.5249(3) 0.8071(6) 0.4902(5)
C6_2 C 0.5004(4) 0.6514(7) 0.3591(4)
H4_2 H 0.4952 0.7259 0.3214
C7_2 C 0.4940(5) 0.5200(8) 0.3245(5)
C8_2 C 0.5027(4) 0.4098(7) 0.3804(5)
H5_2 H 0.5014 0.3236 0.3559
Na4_2 Na 0.05967(17) 0.0548(3) 0.8757(2)
O16_2 O 0.6573(2) 0.0942(6) 0.6096(5)
H16_2 H 0.386904 0.307364 0.310663
H17_2 H 0.32678 0.195505 0.285285
H18_2 H 0.334882 0.0935126 0.518976
O8_2 O 0.1573(2) 0.9058(6) 0.6096(5)
O9_2 O 0.0976(3) 0.9328(6) 0.7353(4)
O10_2 O 0.2635(3) 0.7815(7) 0.9800(4)
C9_2 C 0.4237(3) 0.9272(7) 0.7315(4)
C10_2 C 0.3499(3) 0.8971(7) 0.7696(4)
C11_2 C 0.2894(4) 0.9131(8) 0.7156(5)
H6_2 H 0.2941 0.9444 0.6564
C12_2 C 0.2214(3) 0.8819(7) 0.7503(4)
C13_2 C 0.1547(4) 0.9090(7) 0.6940(4)
C14_2 C 0.2156(4) 0.8349(9) 0.8391(5)
H7_2 H 0.1707 0.8117 0.8618
C15_2 C 0.2752(4) 0.8220(8) 0.8937(5)
C16_2 C 0.3434(4) 0.8543(7) 0.8580(5)
H8_2 H 0.3840 0.8466 0.8943
Cd3_2 Cd 0.031550(19) 0.95931(3) 0.60302(5)
H19_2 H 0.316373 0.949589 0.472661
O6_3 O 0.0758(3) 0.0112(7) 0.1655(4)
H18_3 H 0.165118 0.0935126 0.0189759
O5_3 O 0.0206(4) 0.4923(7) 0.7355(4)
H1_3 H 0.0391 0.4176 0.7316
O11_3 O 0.1445(6) 0.0077(15) 0.9963(6)
O12_3 O 0.1406(3) 0.2288(7) 0.8336(5)
H4_3 H 0.0048 0.7259 0.8214
C7_3 C 0.0060(5) 0.5200(8) 0.8245(5)
H16_3 H 0.113096 0.307364 0.810663
H17_3 H 0.17322 0.195505 0.785285
O7_2 O 0.0228(2) 0.8720(5) 0.2632(4)
O10_3 O 0.2365(3) 0.7815(7) 0.4800(4)
H2_2 H 0.2103 0.8240 0.5144
C9_3 C 0.0763(3) 0.9272(7) 0.2315(4)
C10_3 C 0.1501(3) 0.8971(7) 0.2696(4)
C11_3 C 0.2106(4) 0.9131(8) 0.2156(5)
H6_3 H 0.2059 0.9444 0.1564
C12_3 C 0.2786(3) 0.8819(7) 0.2503(4)
C13_3 C 0.3453(4) 0.9090(7) 0.1940(4)
C14_3 C 0.2844(4) 0.8349(9) 0.3391(5)
H7_3 H 0.3293 0.8117 0.3618
C15_3 C 0.2248(4) 0.8220(8) 0.3937(5)
C16_3 C 0.1566(4) 0.8543(7) 0.3580(5)
H8_3 H 0.1160 0.8466 0.3943
H19_3 H 0.183627 0.949589 0.972661
O2_3 O 0.9729(3) 0.3135(5) 0.1162(4)
O3_2 O 0.9570(3) 0.8183(5) 0.0709(4)
C1_3 C 0.9842(4) 0.3032(6) 0.0330(4)
C3_3 C 0.9795(4) 0.5569(7) 0.0094(5)
H3_3 H 0.9711 0.5699 0.0709
O1_3 O 0.9930(3) 0.1900(4) 0.9948(3)
O4_2 O 0.9823(5) 0.9057(6) 0.9401(5)
C2_3 C 0.9866(4) 0.4265(7) 0.9742(4)
C4_3 C 0.9853(4) 0.6668(6) 0.9515(4)
C5_3 C 0.9751(3) 0.8071(6) 0.9902(5)
C6_3 C 0.9996(4) 0.6514(7) 0.8591(4)
C8_3 C 0.9973(4) 0.4098(7) 0.8804(5)
H5_3 H 0.9986 0.3236 0.8559
O15_2 O 0.9772(2) 0.1280(5) 0.7632(4)
O13_2 O 0.0430(3) 0.1817(5) 0.5709(4)
O14_2 O 0.0177(5) 0.0943(6) 0.4401(5)
O1_4 O 0.0070(3) 0.8100(4) 0.4948(3)
O2_4 O 0.0271(3) 0.6865(5) 0.6162(4)
C1_4 C 0.0158(4) 0.6968(6) 0.5330(4)
C2_4 C 0.0134(4) 0.5735(7) 0.4742(4)
C3_4 C 0.0205(4) 0.4431(7) 0.5094(5)
H3_4 H 0.0289 0.4301 0.5709
C4_4 C 0.0147(4) 0.3332(6) 0.4515(4)
C5_4 C 0.0249(3) 0.1929(6) 0.4902(5)
C6_4 C 0.0004(4) 0.3486(7) 0.3591(4)
C8_4 C 0.0027(4) 0.5902(7) 0.3804(5)
H5_4 H 0.0014 0.6764 0.3559
O10_4 O 0.7635(3) 0.2185(7) 0.9800(4)
C9_4 C 0.9237(3) 0.0728(7) 0.7315(4)
C10_4 C 0.8499(3) 0.1029(7) 0.7696(4)
C11_4 C 0.7894(4) 0.0869(8) 0.7156(5)
H6_4 H 0.7941 0.0556 0.6564
C12_4 C 0.7214(3) 0.1181(7) 0.7503(4)
C13_4 C 0.6547(4) 0.0910(7) 0.6940(4)
C14_4 C 0.7156(4) 0.1651(9) 0.8391(5)
H7_4 H 0.6707 0.1883 0.8618
C15_4 C 0.7752(4) 0.1780(8) 0.8937(5)
C16_4 C 0.8434(4) 0.1457(7) 0.8580(5)
H8_4 H 0.8840 0.1534 0.8943
H19_4 H 0.816373 0.0504111 0.472661
O5_4 O 0.9794(4) 0.5077(7) 0.2355(4)
H1_4 H 0.9609 0.5824 0.2316
O6_4 O 0.9242(3) 0.9888(7) 0.6655(4)
O11_4 O 0.8555(6) 0.9923(15) 0.4963(6)
O12_4 O 0.8594(3) 0.7712(7) 0.3336(5)
H4_4 H 0.9952 0.2741 0.3214
C7_4 C 0.9940(5) 0.4800(8) 0.3245(5)
H16_4 H 0.886904 0.692636 0.310663
H17_4 H 0.82678 0.804495 0.285285
H18_4 H 0.834882 0.906487 0.518976
H2_3 H 0.2897 0.8240 0.0144
H2_4 H 0.7897 0.1760 0.0144
N1 N 0.2079(6) 0.4472(12) 0.1417(9)
H9 H 0.1805 0.5156 0.1328
C17 C 0.2771(9) 0.4733(15) 0.1487(13)
H10 H 0.2844 0.5690 0.1485
H11 H 0.3021 0.4339 0.0983
H12 H 0.2951 0.4361 0.2043
C18 C 0.1780(9) 0.339(2) 0.146(2)
H13 H 0.1271 0.3515 0.1406
H14 H 0.1885 0.2976 0.2036
H15 H 0.1947 0.2818 0.0981
H20 H 0.202305 0.458698 0.209745
N1_2 N 0.7921(6) 0.5528(12) 0.6417(9)
H9_2 H 0.8195 0.4844 0.6328
C17_2 C 0.7229(9) 0.5267(15) 0.6487(13)
H10_2 H 0.7156 0.4310 0.6485
H11_2 H 0.6979 0.5661 0.5983
H12_2 H 0.7049 0.5639 0.7043
C18_2 C 0.8220(9) 0.661(2) 0.646(2)
H13_2 H 0.8729 0.6485 0.6406
H14_2 H 0.8115 0.7024 0.7036
H15_2 H 0.8053 0.7182 0.5981
H20_2 H 0.797695 0.541302 0.709745
N1_3 N 0.7079(6) 0.5528(12) 0.1417(9)
H9_3 H 0.6805 0.4844 0.1328
C17_3 C 0.7771(9) 0.5267(15) 0.1487(13)
H10_3 H 0.7844 0.4310 0.1485
H11_3 H 0.8021 0.5661 0.0983
H12_3 H 0.7951 0.5639 0.2043
C18_3 C 0.6780(9) 0.661(2) 0.146(2)
H13_3 H 0.6271 0.6485 0.1406
H14_3 H 0.6885 0.7024 0.2036
H15_3 H 0.6947 0.7182 0.0981
H20_3 H 0.702305 0.541302 0.209745
N1_4 N 0.2921(6) 0.4472(12) 0.6417(9)
H9_4 H 0.3195 0.5156 0.6328
C17_4 C 0.2229(9) 0.4733(15) 0.6487(13)
H10_4 H 0.2156 0.5690 0.6485
H11_4 H 0.1979 0.4339 0.5983
H12_4 H 0.2049 0.4361 0.7043
C18_4 C 0.3220(9) 0.339(2) 0.646(2)
H13_4 H 0.3729 0.3515 0.6406
H14_4 H 0.3115 0.2976 0.7036
H15_4 H 0.3053 0.2818 0.5981
H20_4 H 0.297695 0.458698 0.709745
loop_
_geom_bond_atom_site_label_1
_geom_bond_atom_site_label_2
_geom_bond_site_symmetry_1
_geom_bond_site_symmetry_2
O7 C9 1_555 1_555
O8 C13 1_555 1_555
O9 C13 1_555 1_555
O10 H2 1_555 1_555
C10 C9 1_555 1_555
C11 C10 1_555 1_555
H6 C11 1_555 1_555
C12 C11 1_555 1_555
C13 C12 1_555 1_555
C14 C12 1_555 1_555
H7 C14 1_555 1_555
C15 O10 1_555 1_555
C16 C10 1_555 1_555
H8 C16 1_555 1_555
Cd3 O8 1_555 1_555
Na3 O7 1_555 1_555
O9 Cd3 1_555 1_555
C14 C15 1_555 1_555
C15 C16 1_555 1_555
O2 Cd1 1_555 1_555
O6 Cd1 1_555 1_555
C1 O2 1_555 1_555
H3 C3 1_555 1_555
O16 Cd1 1_555 1_555
O17 Cd1 1_555 1_555
Na1 O1 1_555 1_555
O14 C5 1_555 1_555
O5 H1 1_555 1_555
O11 Na1 1_555 1_555
O12 Na1 1_555 1_555
C5 C4 1_555 1_555
C6 C4 1_555 1_555
H4 C6 1_555 1_555
C7 O5 1_555 1_555
C8 C2 1_555 1_555
H5 C8 1_555 1_555
O15 Na1 1_555 1_555
C6 C7 1_555 1_555
C7 C8 1_555 1_555
O12 H16 1_555 1_555
O12 H17 1_555 1_555
Cd2 O1_2 1_555 1_555
Na3 O1_2 1_555 1_555
O1_2 C1_2 1_555 1_555
O2_2 Cd2 1_555 1_555
O3 C5_2 1_555 1_555
O4 C5_2 1_555 1_555
O5_2 H1_2 1_555 1_555
O6_2 Cd2 1_555 1_555
O11_2 Na3 1_555 1_555
O12_2 Na3 1_555 1_555
C1_2 O2_2 1_555 1_555
C2_2 C1_2 1_555 1_555
C3_2 C2_2 1_555 1_555
H3_2 C3_2 1_555 1_555
C4_2 C3_2 1_555 1_555
C5_2 C4_2 1_555 1_555
C6_2 C4_2 1_555 1_555
H4_2 C6_2 1_555 1_555
C7_2 O5_2 1_555 1_555
C8_2 C2_2 1_555 1_555
H5_2 C8_2 1_555 1_555
O16_2 Cd2 1_555 1_555
O18 Cd2 1_555 1_555
C6_2 C7_2 1_555 1_555
C7_2 C8_2 1_555 1_555
O12_2 H16_2 1_555 1_555
O12_2 H17_2 1_555 1_555
O11_2 H18_2 1_555 1_555
O15 C9_2 1_555 1_555
O8_2 C13_2 1_555 1_555
O9_2 C13_2 1_555 1_555
C10_2 C9_2 1_555 1_555
C11_2 C10_2 1_555 1_555
H6_2 C11_2 1_555 1_555
C12_2 C11_2 1_555 1_555
C13_2 C12_2 1_555 1_555
C14_2 C12_2 1_555 1_555
H7_2 C14_2 1_555 1_555
C15_2 O10_2 1_555 1_555
C16_2 C10_2 1_555 1_555
H8_2 C16_2 1_555 1_555
Cd3_2 O8_2 1_555 1_555
O9_2 Cd3_2 1_555 1_555
C14_2 C15_2 1_555 1_555
C15_2 C16_2 1_555 1_555
O5_3 H1_3 1_555 1_555
O11_3 Na4_2 1_555 1_555
O12_3 Na4_2 1_555 1_555
C7_3 O5_3 1_555 1_555
O12_3 H16_3 1_555 1_555
O12_3 H17_3 1_555 1_555
O7_2 C9_3 1_555 1_555
O16 C13_3 1_555 1_555
O17 C13_3 1_555 1_555
O10_3 H2_2 1_555 1_555
C10_3 C9_3 1_555 1_555
C11_3 C10_3 1_555 1_555
H6_3 C11_3 1_555 1_555
C12_3 C11_3 1_555 1_555
C13_3 C12_3 1_555 1_555
C14_3 C12_3 1_555 1_555
H7_3 C14_3 1_555 1_555
C15_3 O10_3 1_555 1_555
C16_3 C10_3 1_555 1_555
H8_3 C16_3 1_555 1_555
C14_3 C15_3 1_555 1_555
C15_3 C16_3 1_555 1_555
O2_3 Cd3 1_555 1_555
C1_3 O2_3 1_555 1_555
H3_3 C3_3 1_555 1_555
O4_2 C5_3 1_555 1_555
C5_3 C4_3 1_555 1_555
C6_3 C4_3 1_555 1_555
C8_3 C2_3 1_555 1_555
H5_3 C8_3 1_555 1_555
Cd3_2 O1_4 1_555 1_555
O1_4 C1_4 1_555 1_555
O2_4 Cd3_2 1_555 1_555
O13_2 C5_4 1_555 1_555
O14_2 C5_4 1_555 1_555
C1_4 O2_4 1_555 1_555
C2_4 C1_4 1_555 1_555
C3_4 C2_4 1_555 1_555
H3_4 C3_4 1_555 1_555
C4_4 C3_4 1_555 1_555
C5_4 C4_4 1_555 1_555
C6_4 C4_4 1_555 1_555
C8_4 C2_4 1_555 1_555
H5_4 C8_4 1_555 1_555
O15_2 C9_4 1_555 1_555
O16_2 C13_4 1_555 1_555
O18 C13_4 1_555 1_555
C10_4 C9_4 1_555 1_555
C11_4 C10_4 1_555 1_555
H6_4 C11_4 1_555 1_555
C12_4 C11_4 1_555 1_555
C13_4 C12_4 1_555 1_555
C14_4 C12_4 1_555 1_555
H7_4 C14_4 1_555 1_555
C15_4 O10_4 1_555 1_555
C16_4 C10_4 1_555 1_555
H8_4 C16_4 1_555 1_555
C14_4 C15_4 1_555 1_555
C15_4 C16_4 1_555 1_555
O5_4 H1_4 1_555 1_555
O11_4 Na4 1_555 1_555
O12_4 Na4 1_555 1_555
C7_4 O5_4 1_555 1_555
O12_4 H16_4 1_555 1_555
O12_4 H17_4 1_555 1_555
O11_4 H18_4 1_555 1_555
N1 H9 1_555 1_555
C17 N1 1_555 1_555
H10 C17 1_555 1_555
H11 C17 1_555 1_555
H12 C17 1_555 1_555
C18 N1 1_555 1_555
H13 C18 1_555 1_555
H14 C18 1_555 1_555
H15 C18 1_555 1_555
N1 H20 1_555 1_555
N1_2 H9_2 1_555 1_555
C17_2 N1_2 1_555 1_555
H10_2 C17_2 1_555 1_555
H11_2 C17_2 1_555 1_555
H12_2 C17_2 1_555 1_555
C18_2 N1_2 1_555 1_555
H13_2 C18_2 1_555 1_555
H14_2 C18_2 1_555 1_555
H15_2 C18_2 1_555 1_555
N1_2 H20_2 1_555 1_555
N1_3 H9_3 1_555 1_555
C17_3 N1_3 1_555 1_555
H10_3 C17_3 1_555 1_555
H11_3 C17_3 1_555 1_555
H12_3 C17_3 1_555 1_555
C18_3 N1_3 1_555 1_555
H13_3 C18_3 1_555 1_555
H14_3 C18_3 1_555 1_555
H15_3 C18_3 1_555 1_555
N1_3 H20_3 1_555 1_555
N1_4 H9_4 1_555 1_555
C17_4 N1_4 1_555 1_555
H10_4 C17_4 1_555 1_555
H11_4 C17_4 1_555 1_555
H12_4 C17_4 1_555 1_555
C18_4 N1_4 1_555 1_555
H13_4 C18_4 1_555 1_555
H14_4 C18_4 1_555 1_555
H15_4 C18_4 1_555 1_555
N1_4 H20_4 1_555 1_555

#END
