
###############################################################################
#
# This file contains modified crystal structure data generated from the
# MOF subset of the Cambridge Structural Database (CSD) v543 
# hosted by the Cambridge Crystallographic Data Centre (CCDC).
#
# This work is licensed under the Creative Commons
# Attribution-NonCommercial-ShareAlike 4.0 International License.
# To view a copy of this license, visit
# http://creativecommons.org/licenses/by-nc-sa/4.0/
# or send a letter to
# Creative Commons, PO Box 1866, Mountain View, CA 94042, USA.
#
# CIF created using the CSD Python API on 29 September 2022
# The structure has been converted into the P1 space group
# The structure has a 3D framework
# The original CSD entry KEZLEJ is in the orthorhombic crystal system
# The framework has been calculated to contain at least 10.0% void space
# The void calculation uses a probe of radius 1.32A, grid spacing 0.4
#
###############################################################################

data_KEZLEJ
_chemical_formula_moiety         '(C352 H272 N64 O64 Zn16)n'
_symmetry_cell_setting           triclinic
_symmetry_space_group_name_H-M   'P 1'
_symmetry_Int_Tables_number      1
_space_group_name_Hall           'P 1'
loop_
_symmetry_equiv_pos_site_id
_symmetry_equiv_pos_as_xyz
1 x,y,z
_cell_length_a                   34.026(4)
_cell_length_b                   15.3300(17)
_cell_length_c                   20.610(2)
_cell_angle_alpha                90
_cell_angle_beta                 90
_cell_angle_gamma                90
_cell_volume                     10750.6
loop_
_atom_site_label
_atom_site_type_symbol
_atom_site_fract_x
_atom_site_fract_y
_atom_site_fract_z
O8 O 0.00374(10) 0.9393(3) 0.02259(18)
Zn8 Zn 0.045572(14) 0.93247(3) 0.14898(2)
C61 C 0.79445(15) 0.0941(3) 0.2730(2)
H41 H 0.8197 0.0724 0.2787
C62 C 0.7339(2) 0.1081(5) 0.2438(4)
H42 H 0.7096 0.0993 0.2240
C63 C 0.7449(3) 0.1773(4) 0.2788(4)
H43 H 0.7286 0.2234 0.2907
C64 C 0.8079(2) 0.2318(4) 0.3306(3)
H44 H 0.8068 0.2888 0.3103
H45 H 0.8350 0.2123 0.3308
C65 C 0.79249(19) 0.2372(3) 0.3997(2)
C66 C 0.8077(2) 0.1787(5) 0.4447(3)
H46 H 0.8270 0.1386 0.4334
C67 C 0.7928(3) 0.1828(5) 0.5067(3)
H47 H 0.8015 0.1417 0.5366
C68 C 0.76599(18) 0.2435(3) 0.5272(2)
C69 C 0.7543(2) 0.3030(4) 0.4847(3)
H48 H 0.7369 0.3465 0.4975
C70 C 0.7681(2) 0.3008(5) 0.4201(3)
H49 H 0.7602 0.3438 0.3911
C71 C 0.7518(3) 0.2476(4) 0.5956(3)
H50 H 0.7742 0.2550 0.6243
H51 H 0.7350 0.2982 0.6007
C72 C 0.74233(17) 0.1047(4) 0.6540(2)
H52 H 0.7671 0.1035 0.6732
C73 C 0.6854(2) 0.0704(6) 0.6245(5)
H53 H 0.6622 0.0392 0.6189
C74 C 0.6933(2) 0.1480(6) 0.5967(5)
H54 H 0.6768 0.1806 0.5701
O14 O 0.71405(11) 0.0027(3) 0.0949(2)
N11 N 0.76659(11) 0.0509(3) 0.2428(2)
N12 N 0.78342(15) 0.1698(3) 0.2942(2)
N13 N 0.72970(15) 0.1683(3) 0.6154(2)
N14 N 0.71586(12) 0.0442(3) 0.6617(2)
Zn9 Zn 0.954428(14) 0.06753(3) 0.64898(2)
H40 H 0.6458 0.0009 0.2670
O2 O 0.77847(13) 0.0173(3) 0.8141(3)
Zn6 Zn 0.556706(13) 0.07521(3) 0.26871(2)
N19 N 0.41078(11) 0.0254(3) 0.79480(17)
Zn1 Zn 0.767704(13) 0.93479(3) 0.20115(2)
Zn3 Zn 0.545572(14) 0.56753(3) 0.14898(2)
C10 C 0.85823(12) 0.9145(3) 0.0256(2)
H4 H 0.8316 0.9101 0.0162
C11 C 0.86976(12) 0.9326(3) 0.08963(19)
C12 C 0.90965(13) 0.9388(3) 0.10347(19)
H5 H 0.9179 0.9499 0.1457
C13 C 0.93747(12) 0.9285(3) 0.0540(2)
C15 C 0.84008(12) 0.9385(3) 0.1435(2)
C16 C 0.98014(13) 0.9374(3) 0.0673(2)
C25 C 0.61843(11) 0.8756(3) 0.00645(18)
C26 C 0.60069(12) 0.8078(3) 0.03896(18)
H10 H 0.5794 0.7795 0.0202
C27 C 0.61470(12) 0.7803(3) 0.1015(2)
C28 C 0.64626(12) 0.8237(3) 0.12701(19)
H11 H 0.6559 0.8064 0.1672
C29 C 0.66436(11) 0.8920(3) 0.09554(18)
C30 C 0.65022(12) 0.9176(3) 0.03520(19)
H12 H 0.6622 0.9637 0.0136
C31 C 0.59757(14) 0.7023(4) 0.1316(2)
C32 C 0.69953(13) 0.9374(3) 0.1246(2)
C33 C 0.50609(15) 0.5740(3) 0.2780(2)
H13 H 0.4823 0.5877 0.2583
C34 C 0.56712(16) 0.5421(4) 0.2917(2)
H14 H 0.5933 0.5293 0.2828
C35 C 0.55096(18) 0.5446(4) 0.3511(2)
H15 H 0.5636 0.5349 0.3905
C36 C 0.4803(2) 0.5808(4) 0.3919(3)
H16 H 0.4547 0.5807 0.3711
H17 H 0.4807 0.5340 0.4235
C37 C 0.48622(16) 0.6648(4) 0.4252(2)
C38 C 0.4975(2) 0.6708(4) 0.4891(2)
H18 H 0.5022 0.6196 0.5120
C39 C 0.50202(19) 0.7485(4) 0.5201(2)
H19 H 0.5093 0.7498 0.5636
C40 C 0.49566(14) 0.8264(4) 0.4862(2)
C41 C 0.48435(17) 0.8233(4) 0.4229(2)
H20 H 0.4799 0.8745 0.3998
C42 C 0.47939(18) 0.7405(4) 0.3925(2)
H21 H 0.4713 0.7382 0.3494
C43 C 0.50115(17) 0.9151(4) 0.5202(2)
H22 H 0.5275 0.9188 0.5378
H23 H 0.4980 0.9617 0.4888
C44 C 0.47980(14) 0.9222(3) 0.6365(2)
H24 H 0.5047 0.9153 0.6544
C45 C 0.43381(16) 0.9378(4) 0.5659(2)
H25 H 0.4198 0.9420 0.5273
C46 C 0.41892(15) 0.9425(3) 0.6277(2)
H26 H 0.3928 0.9531 0.6384
C75 C 0.81313(15) 0.7968(3) 0.2760(3)
H55 H 0.8373 0.8223 0.2667
C76 C 0.7696(2) 0.7042(4) 0.3075(4)
H56 H 0.7575 0.6548 0.3243
C77 C 0.75158(17) 0.7712(4) 0.2788(3)
H57 H 0.7246 0.7764 0.2730
C78 C 0.8406(2) 0.6686(4) 0.3346(3)
H58 H 0.8646 0.6785 0.3101
H59 H 0.8340 0.6072 0.3315
C79 C 0.84706(18) 0.6933(4) 0.4052(3)
C80 C 0.8729(3) 0.7592(6) 0.4209(4)
H60 H 0.8850 0.7909 0.3881
C81 C 0.8808(2) 0.7783(5) 0.4840(3)
H61 H 0.9019 0.8148 0.4932
C82 C 0.8596(2) 0.7469(4) 0.5333(3)
C83 C 0.83437(18) 0.6792(4) 0.5201(3)
H62 H 0.8219 0.6506 0.5541
C84 C 0.8273(2) 0.6532(4) 0.4577(3)
H63 H 0.8094 0.6087 0.4497
C85 C 0.8636(3) 0.7735(7) 0.6052(4)
H64 H 0.8378 0.7905 0.6209
H65 H 0.8717 0.7226 0.6297
N1 N 0.88897(14) 0.8391(3) 0.6183(2)
C86 C 0.89053(15) 0.9267(3) 0.6209(3)
H66 H 0.8696 0.9647 0.6145
N2 N 0.92776(16) 0.9499(3) 0.6347(2)
C87 C 0.94919(15) 0.8766(4) 0.6405(4)
H67 H 0.9759 0.8737 0.6499
C88 C 0.92522(17) 0.8081(3) 0.6303(4)
H68 H 0.9324 0.7496 0.6315
O5 O 0.85071(9) 0.9564(2) 0.19974(15)
O6 O 0.80435(9) 0.9271(2) 0.12697(16)
O7 O 0.98969(9) 0.9420(2) 0.12775(16)
O13 O 0.71362(8) 0.9030(2) 0.17587(13)
O15 O 0.61204(14) 0.6696(4) 0.1806(2)
O16 O 0.56593(10) 0.6719(3) 0.10826(17)
N3 N 0.53940(12) 0.5611(2) 0.24664(17)
N4 N 0.51130(15) 0.5647(3) 0.34209(18)
N5 N 0.47249(12) 0.9259(3) 0.57260(18)
N6 N 0.44802(11) 0.9294(2) 0.66999(17)
N15 N 0.77869(11) 0.8308(3) 0.25931(18)
N16 N 0.80873(15) 0.7213(3) 0.3077(2)
Zn5 Zn 0.443294(13) 0.92479(3) 0.76871(2)
Zn10 Zn 0.719529(13) 0.93817(3) 0.71587(2)
N17 N 0.57224(16) 0.4499(3) 0.1347(2)
O18 O 0.48969(9) 0.5580(2) 0.12775(16)
C1 C 0.82385(11) 0.9011(3) 0.8214(2)
C2 C 0.83864(13) 0.9247(3) 0.8811(2)
H1 H 0.8267 0.9701 0.9037
C3 C 0.87115(11) 0.8828(3) 0.90895(19)
C4 C 0.88866(12) 0.8148(3) 0.87504(19)
H2 H 0.9106 0.7871 0.8923
C5 C 0.87361(12) 0.7876(3) 0.81536(19)
C6 C 0.84112(11) 0.8296(3) 0.78873(19)
H3 H 0.8308 0.8107 0.7494
C7 C 0.78850(13) 0.9478(3) 0.7930(3)
C8 C 0.89042(12) 0.7098(3) 0.78167(19)
C9 C 0.88447(11) 0.9032(3) 0.97707(18)
C14 C 0.92424(12) 0.9088(3) 0.99065(18)
H6 H 0.9425 0.8996 0.9577
C17 C 0.55204(11) 0.9293(3) 0.8641(2)
C18 C 0.56412(12) 0.9098(3) 0.92668(19)
H7 H 0.5456 0.9018 0.9593
C19 C 0.60416(11) 0.9019(3) 0.9408(2)
C20 C 0.63124(11) 0.9169(3) 0.89057(19)
H8 H 0.6580 0.9159 0.8997
C21 C 0.61905(11) 0.9331(3) 0.8283(2)
C22 C 0.57916(12) 0.9402(3) 0.8157(2)
H9 H 0.5707 0.9526 0.7738
C23 C 0.50816(12) 0.9338(3) 0.8493(2)
C24 C 0.64863(12) 0.9404(3) 0.7746(2)
C47 C 0.68336(18) 0.7814(4) 0.6466(3)
H27 H 0.6579 0.7919 0.6609
C48 C 0.7439(2) 0.7872(9) 0.6314(7)
H28 H 0.7701 0.8038 0.6336
C49 C 0.7299(3) 0.7141(9) 0.5986(6)
H29 H 0.7445 0.6749 0.5739
C50 C 0.6663(3) 0.6466(4) 0.5820(3)
H30 H 0.6799 0.5916 0.5763
H31 H 0.6452 0.6373 0.6129
C51 C 0.6494(2) 0.6735(3) 0.5198(3)
C52 C 0.6153(3) 0.7176(7) 0.5172(4)
H32 H 0.6018 0.7302 0.5553
C53 C 0.6002(2) 0.7442(7) 0.4583(5)
H33 H 0.5779 0.7795 0.4585
C54 C 0.6153(2) 0.7229(4) 0.4030(3)
C55 C 0.6487(3) 0.6754(5) 0.4048(3)
H34 H 0.6607 0.6571 0.3666
C56 C 0.6652(3) 0.6541(5) 0.4652(4)
H35 H 0.6889 0.6242 0.4657
C57 C 0.5967(2) 0.7470(4) 0.3395(3)
H36 H 0.6072 0.7093 0.3059
H37 H 0.5687 0.7362 0.3423
C58 C 0.57461(16) 0.9018(4) 0.3184(3)
H38 H 0.5487 0.8946 0.3319
C59 C 0.6354(2) 0.8738(5) 0.2964(3)
H39 H 0.6592 0.8454 0.2901
C60 C 0.62777(16) 0.9602(5) 0.2823(3)
O1 O 0.77257(9) 0.9102(2) 0.74642(15)
O3 O 0.87118(10) 0.6697(2) 0.74109(16)
O4 O 0.92477(9) 0.6871(2) 0.80131(16)
O9 O 0.49884(9) 0.9351(2) 0.79107(16)
O10 O 0.48474(11) 0.9407(4) 0.89519(19)
O11 O 0.68416(8) 0.9402(2) 0.79075(15)
O12 O 0.63793(10) 0.9422(3) 0.71809(16)
N7 N 0.71345(12) 0.8310(3) 0.65990(19)
N8 N 0.69409(19) 0.7119(3) 0.6089(2)
N9 N 0.60300(14) 0.8380(3) 0.3204(2)
N10 N 0.58922(11) 0.9746(3) 0.29480(17)
Zn7 Zn 0.943294(13) 0.57521(3) 0.76871(2)
O17 O 0.42477(9) 0.8129(2) 0.80131(16)
H18_2 H 0.4978 0.3804 0.0120
C39_2 C 0.49798(19) 0.2515(4) 0.0201(2)
H19_2 H 0.4907 0.2502 0.0636
C43_2 C 0.49885(17) 0.0849(4) 0.0202(2)
H22_2 H 0.4725 0.0812 0.0378
C44_2 C 0.52020(14) 0.0778(3) 0.1365(2)
H24_2 H 0.4953 0.0847 0.1544
C45_2 C 0.56619(16) 0.0622(4) 0.0659(2)
H25_2 H 0.5802 0.0580 0.0273
C46_2 C 0.58108(15) 0.0575(3) 0.1277(2)
H26_2 H 0.6072 0.0469 0.1384
C82_2 C 0.1404(2) 0.2531(4) 0.0333(3)
C83_2 C 0.16563(18) 0.3208(4) 0.0201(3)
H62_2 H 0.1781 0.3494 0.0541
C85_2 C 0.1364(3) 0.2265(7) 0.1052(4)
H64_2 H 0.1622 0.2095 0.1209
H65_2 H 0.1283 0.2774 0.1297
N1_2 N 0.11103(14) 0.1609(3) 0.1183(2)
C86_2 C 0.10947(15) 0.0733(3) 0.1209(3)
H66_2 H 0.1304 0.0353 0.1145
N2_2 N 0.07224(16) 0.0501(3) 0.1347(2)
C87_2 C 0.05081(15) 0.1234(4) 0.1405(4)
H67_2 H 0.0241 0.1263 0.1499
C88_2 C 0.07478(17) 0.1919(3) 0.1303(4)
H68_2 H 0.0676 0.2504 0.1315
N5_2 N 0.52751(12) 0.0741(3) 0.07260(18)
N6_2 N 0.55198(11) 0.0706(2) 0.16999(17)
Zn10_2 Zn 0.280471(13) 0.06183(3) 0.21587(2)
Zn1_2 Zn 0.232296(13) 0.06521(3) 0.70115(2)
Zn3_2 Zn 0.454428(14) 0.43247(3) 0.64898(2)
C1_2 C 0.17615(11) 0.0989(3) 0.3214(2)
C2_2 C 0.16136(13) 0.0753(3) 0.3811(2)
H1_2 H 0.1733 0.0299 0.4037
C3_2 C 0.12885(11) 0.1172(3) 0.40895(19)
C4_2 C 0.11134(12) 0.1852(3) 0.37504(19)
H2_2 H 0.0894 0.2129 0.3923
C5_2 C 0.12639(12) 0.2124(3) 0.31536(19)
C6_2 C 0.15888(11) 0.1704(3) 0.28873(19)
H3_2 H 0.1692 0.1893 0.2494
C7_2 C 0.21150(13) 0.0522(3) 0.2930(3)
C8_2 C 0.10958(12) 0.2902(3) 0.28167(19)
C9_2 C 0.11553(11) 0.0968(3) 0.47707(18)
C10_2 C 0.14177(12) 0.0855(3) 0.5256(2)
H4_2 H 0.1684 0.0899 0.5162
C11_2 C 0.13024(12) 0.0674(3) 0.58963(19)
C12_2 C 0.09035(13) 0.0612(3) 0.60347(19)
H5_2 H 0.0821 0.0501 0.6457
C13_2 C 0.06253(12) 0.0715(3) 0.5540(2)
C14_2 C 0.07576(12) 0.0912(3) 0.49065(18)
H6_2 H 0.0575 0.1004 0.4577
C15_2 C 0.15992(12) 0.0615(3) 0.6435(2)
C16_2 C 0.01986(13) 0.0626(3) 0.5673(2)
C17_2 C 0.44796(11) 0.0707(3) 0.3641(2)
C18_2 C 0.43588(12) 0.0902(3) 0.42668(19)
H7_2 H 0.4544 0.0982 0.4593
C19_2 C 0.39584(11) 0.0981(3) 0.4408(2)
C20_2 C 0.36876(11) 0.0831(3) 0.39057(19)
H8_2 H 0.3420 0.0841 0.3997
C21_2 C 0.38095(11) 0.0669(3) 0.3283(2)
C22_2 C 0.42084(12) 0.0598(3) 0.3157(2)
H9_2 H 0.4293 0.0474 0.2738
C23_2 C 0.49184(12) 0.0662(3) 0.3493(2)
C24_2 C 0.35137(12) 0.0596(3) 0.2746(2)
C25_2 C 0.38157(11) 0.1244(3) 0.50645(18)
C26_2 C 0.39931(12) 0.1922(3) 0.53896(18)
H10_2 H 0.4206 0.2205 0.5202
C27_2 C 0.38530(12) 0.2197(3) 0.6015(2)
C28_2 C 0.35374(12) 0.1763(3) 0.62701(19)
H11_2 H 0.3441 0.1936 0.6672
C29_2 C 0.33564(11) 0.1080(3) 0.59554(18)
C30_2 C 0.34978(12) 0.0824(3) 0.53520(19)
H12_2 H 0.3378 0.0363 0.5136
C31_2 C 0.40243(14) 0.2977(4) 0.6316(2)
C32_2 C 0.30047(13) 0.0626(3) 0.6246(2)
C33_2 C 0.49391(15) 0.4260(3) 0.7780(2)
H13_2 H 0.5177 0.4123 0.7583
C34_2 C 0.43288(16) 0.4579(4) 0.7917(2)
H14_2 H 0.4067 0.4707 0.7828
C35_2 C 0.44904(18) 0.4554(4) 0.8511(2)
H15_2 H 0.4364 0.4651 0.8905
C36_2 C 0.5197(2) 0.4192(4) 0.8919(3)
H16_2 H 0.5453 0.4193 0.8711
H17_2 H 0.5193 0.4660 0.9235
C37_2 C 0.51378(16) 0.3352(4) 0.9252(2)
C38_2 C 0.5025(2) 0.3292(4) 0.9891(2)
C40_2 C 0.50434(14) 0.1736(4) 0.9862(2)
C41_2 C 0.51565(17) 0.1767(4) 0.9229(2)
H20_2 H 0.5201 0.1255 0.8998
C42_2 C 0.52061(18) 0.2595(4) 0.8925(2)
H21_2 H 0.5287 0.2618 0.8494
H23_2 H 0.5020 0.0383 0.9888
C47_2 C 0.31664(18) 0.2186(4) 0.1466(3)
H27_2 H 0.3421 0.2081 0.1609
C48_2 C 0.2561(2) 0.2128(9) 0.1314(7)
H28_2 H 0.2299 0.1962 0.1336
C49_2 C 0.2701(3) 0.2859(9) 0.0986(6)
H29_2 H 0.2555 0.3251 0.0739
C50_2 C 0.3337(3) 0.3534(4) 0.0820(3)
H30_2 H 0.3201 0.4084 0.0763
H31_2 H 0.3548 0.3627 0.1129
C51_2 C 0.3506(2) 0.3265(3) 0.0198(3)
C52_2 C 0.3847(3) 0.2824(7) 0.0172(4)
H32_2 H 0.3982 0.2698 0.0553
C75_2 C 0.18687(15) 0.2032(3) 0.7760(3)
H55_2 H 0.1627 0.1777 0.7667
C76_2 C 0.2304(2) 0.2958(4) 0.8075(4)
H56_2 H 0.2425 0.3452 0.8243
C77_2 C 0.24842(17) 0.2288(4) 0.7788(3)
H57_2 H 0.2754 0.2236 0.7730
C78_2 C 0.1594(2) 0.3314(4) 0.8346(3)
H58_2 H 0.1354 0.3215 0.8101
H59_2 H 0.1660 0.3928 0.8315
C79_2 C 0.15294(18) 0.3067(4) 0.9052(3)
C80_2 C 0.1271(3) 0.2408(6) 0.9209(4)
H60_2 H 0.1150 0.2091 0.8881
C81_2 C 0.1192(2) 0.2217(5) 0.9840(3)
H61_2 H 0.0981 0.1852 0.9932
C84_2 C 0.1727(2) 0.3468(4) 0.9577(3)
H63_2 H 0.1906 0.3913 0.9497
O1_2 O 0.22743(9) 0.0898(2) 0.24642(15)
O3_2 O 0.12882(10) 0.3303(2) 0.24109(16)
O4_2 O 0.07523(9) 0.3129(2) 0.30131(16)
O5_2 O 0.14929(9) 0.0436(2) 0.69974(15)
O6_2 O 0.19565(9) 0.0729(2) 0.62697(16)
O7_2 O 0.01031(9) 0.0580(2) 0.62775(16)
O9_2 O 0.50116(9) 0.0649(2) 0.29107(16)
O10_2 O 0.51526(11) 0.0593(4) 0.39519(19)
O11_2 O 0.31584(8) 0.0598(2) 0.29075(15)
O12_2 O 0.36207(10) 0.0578(3) 0.21809(16)
O13_2 O 0.28638(8) 0.0970(2) 0.67587(13)
O15_2 O 0.38796(14) 0.3304(4) 0.6806(2)
O16_2 O 0.43407(10) 0.3281(3) 0.60826(17)
N3_2 N 0.46060(12) 0.4389(2) 0.74664(17)
N4_2 N 0.48870(15) 0.4353(3) 0.84209(18)
N7_2 N 0.28655(12) 0.1690(3) 0.15990(19)
N8_2 N 0.30591(19) 0.2881(3) 0.1089(2)
N15_2 N 0.22131(11) 0.1692(3) 0.75931(18)
N16_2 N 0.19127(15) 0.2787(3) 0.8077(2)
Zn7_2 Zn 0.056706(13) 0.42479(3) 0.26871(2)
N17_2 N 0.42776(16) 0.5501(3) 0.6347(2)
O17_2 O 0.57523(9) 0.1871(2) 0.30131(16)
O18_2 O 0.51031(9) 0.4420(2) 0.62775(16)
C53_2 C 0.3998(2) 0.2558(7) 0.9583(5)
H33_2 H 0.4221 0.2205 0.9585
C54_2 C 0.3847(2) 0.2771(4) 0.9030(3)
C55_2 C 0.3513(3) 0.3246(5) 0.9048(3)
H34_2 H 0.3393 0.3429 0.8666
C56_2 C 0.3348(3) 0.3459(5) 0.9652(4)
H35_2 H 0.3111 0.3758 0.9657
C57_2 C 0.4033(2) 0.2530(4) 0.8395(3)
H36_2 H 0.3928 0.2907 0.8059
H37_2 H 0.4313 0.2638 0.8423
C58_2 C 0.42539(16) 0.0982(4) 0.8184(3)
H38_2 H 0.4513 0.1054 0.8319
C59_2 C 0.3646(2) 0.1262(5) 0.7964(3)
H39_2 H 0.3408 0.1546 0.7901
C60_2 C 0.37223(16) 0.0398(5) 0.7823(3)
N9_2 N 0.39700(14) 0.1620(3) 0.8204(2)
C67_2 C 0.2072(3) 0.8172(5) 0.0067(3)
H47_2 H 0.1985 0.8583 0.0366
C68_2 C 0.23401(18) 0.7565(3) 0.0272(2)
C71_2 C 0.2482(3) 0.7524(4) 0.0956(3)
H50_2 H 0.2258 0.7450 0.1243
H51_2 H 0.2650 0.7018 0.1007
C72_2 C 0.25767(17) 0.8953(4) 0.1540(2)
H52_2 H 0.2329 0.8965 0.1732
C73_2 C 0.3146(2) 0.9296(6) 0.1245(5)
H53_2 H 0.3378 0.9608 0.1189
C74_2 C 0.3067(2) 0.8520(6) 0.0967(5)
H54_2 H 0.3232 0.8194 0.0701
N13_2 N 0.27030(15) 0.8317(3) 0.1154(2)
N14_2 N 0.28414(12) 0.9558(3) 0.1617(2)
C61_2 C 0.20555(15) 0.9059(3) 0.7730(2)
H41_2 H 0.1803 0.9276 0.7787
C62_2 C 0.2661(2) 0.8919(5) 0.7438(4)
H42_2 H 0.2904 0.9007 0.7240
C63_2 C 0.2551(3) 0.8227(4) 0.7788(4)
H43_2 H 0.2714 0.7766 0.7907
C64_2 C 0.1921(2) 0.7682(4) 0.8306(3)
H44_2 H 0.1932 0.7112 0.8103
H45_2 H 0.1650 0.7877 0.8308
C65_2 C 0.20751(19) 0.7628(3) 0.8997(2)
C66_2 C 0.1923(2) 0.8213(5) 0.9447(3)
H46_2 H 0.1730 0.8614 0.9334
C69_2 C 0.2457(2) 0.6970(4) 0.9847(3)
H48_2 H 0.2631 0.6535 0.9975
C70_2 C 0.2319(2) 0.6992(5) 0.9201(3)
H49_2 H 0.2398 0.6562 0.8911
O2_2 O 0.22153(13) 0.9827(3) 0.3141(3)
O14_2 O 0.28595(11) 0.9973(3) 0.5949(2)
N11_2 N 0.23341(11) 0.9491(3) 0.7428(2)
N12_2 N 0.21658(15) 0.8302(3) 0.7942(2)
H40_2 H 0.3542 0.9991 0.7670
O8_2 O 0.99626(10) 0.0607(3) 0.52259(18)
Zn1_3 Zn 0.267704(13) 0.56521(3) 0.20115(2)
C10_3 C 0.35823(12) 0.5855(3) 0.0256(2)
H4_3 H 0.3316 0.5899 0.0162
C11_3 C 0.36976(12) 0.5674(3) 0.08963(19)
C12_3 C 0.40965(13) 0.5612(3) 0.10347(19)
H5_3 H 0.4179 0.5501 0.1457
C13_3 C 0.43747(12) 0.5715(3) 0.0540(2)
C15_3 C 0.34008(12) 0.5615(3) 0.1435(2)
C16_3 C 0.48014(13) 0.5626(3) 0.0673(2)
C25_3 C 0.11843(11) 0.6244(3) 0.00645(18)
C26_3 C 0.10069(12) 0.6922(3) 0.03896(18)
H10_3 H 0.0794 0.7205 0.0202
C27_3 C 0.11470(12) 0.7197(3) 0.1015(2)
C28_3 C 0.14626(12) 0.6763(3) 0.12701(19)
H11_3 H 0.1559 0.6936 0.1672
C29_3 C 0.16436(11) 0.6080(3) 0.09554(18)
C30_3 C 0.15022(12) 0.5824(3) 0.03520(19)
H12_3 H 0.1622 0.5363 0.0136
C31_3 C 0.09757(14) 0.7977(4) 0.1316(2)
C32_3 C 0.19953(13) 0.5626(3) 0.1246(2)
C33_3 C 0.00609(15) 0.9260(3) 0.2780(2)
C34_3 C 0.06712(16) 0.9579(4) 0.2917(2)
H14_3 H 0.0933 0.9707 0.2828
C35_3 C 0.05096(18) 0.9554(4) 0.3511(2)
H15_3 H 0.0636 0.9651 0.3905
H18_3 H 0.0022 0.8804 0.5120
C39_3 C 0.00202(19) 0.7515(4) 0.5201(2)
H19_3 H 0.0093 0.7502 0.5636
C43_3 C 0.00115(17) 0.5849(4) 0.5202(2)
H22_3 H 0.0275 0.5812 0.5378
H24_3 H 0.0047 0.5847 0.6544
C61_3 C 0.29445(15) 0.4059(3) 0.2730(2)
H41_3 H 0.3197 0.4276 0.2787
C62_3 C 0.2339(2) 0.3919(5) 0.2438(4)
H42_3 H 0.2096 0.4007 0.2240
C63_3 C 0.2449(3) 0.3227(4) 0.2788(4)
H43_3 H 0.2286 0.2766 0.2907
C64_3 C 0.3079(2) 0.2682(4) 0.3306(3)
H44_3 H 0.3068 0.2112 0.3103
H45_3 H 0.3350 0.2877 0.3308
C65_3 C 0.29249(19) 0.2628(3) 0.3997(2)
C66_3 C 0.3077(2) 0.3213(5) 0.4447(3)
H46_3 H 0.3270 0.3614 0.4334
C67_3 C 0.2928(3) 0.3172(5) 0.5067(3)
H47_3 H 0.3015 0.3583 0.5366
C68_3 C 0.26599(18) 0.2565(3) 0.5272(2)
C69_3 C 0.2543(2) 0.1970(4) 0.4847(3)
H48_3 H 0.2369 0.1535 0.4975
C70_3 C 0.2681(2) 0.1992(5) 0.4201(3)
H49_3 H 0.2602 0.1562 0.3911
C71_3 C 0.2518(3) 0.2524(4) 0.5956(3)
H50_3 H 0.2742 0.2450 0.6243
H51_3 H 0.2350 0.2018 0.6007
C72_3 C 0.24233(17) 0.3953(4) 0.6540(2)
H52_3 H 0.2671 0.3965 0.6732
C73_3 C 0.1854(2) 0.4296(6) 0.6245(5)
H53_3 H 0.1622 0.4608 0.6189
C74_3 C 0.1933(2) 0.3520(6) 0.5967(5)
H54_3 H 0.1768 0.3194 0.5701
C75_3 C 0.31313(15) 0.7032(3) 0.2760(3)
H55_3 H 0.3373 0.6777 0.2667
C76_3 C 0.2696(2) 0.7958(4) 0.3075(4)
H56_3 H 0.2575 0.8452 0.3243
C77_3 C 0.25158(17) 0.7288(4) 0.2788(3)
H57_3 H 0.2246 0.7236 0.2730
C78_3 C 0.3406(2) 0.8314(4) 0.3346(3)
H58_3 H 0.3646 0.8215 0.3101
H59_3 H 0.3340 0.8928 0.3315
C79_3 C 0.34706(18) 0.8067(4) 0.4052(3)
C80_3 C 0.3729(3) 0.7408(6) 0.4209(4)
H60_3 H 0.3850 0.7091 0.3881
C81_3 C 0.3808(2) 0.7217(5) 0.4840(3)
H61_3 H 0.4019 0.6852 0.4932
C82_3 C 0.3596(2) 0.7531(4) 0.5333(3)
C83_3 C 0.33437(18) 0.8208(4) 0.5201(3)
H62_3 H 0.3219 0.8494 0.5541
C84_3 C 0.3273(2) 0.8468(4) 0.4577(3)
H63_3 H 0.3094 0.8913 0.4497
C85_3 C 0.3636(3) 0.7265(7) 0.6052(4)
H64_3 H 0.3378 0.7095 0.6209
H65_3 H 0.3717 0.7774 0.6297
N1_3 N 0.38897(14) 0.6609(3) 0.6183(2)
C86_3 C 0.39053(15) 0.5733(3) 0.6209(3)
H66_3 H 0.3696 0.5353 0.6145
C87_3 C 0.44919(15) 0.6234(4) 0.6405(4)
H67_3 H 0.4759 0.6263 0.6499
C88_3 C 0.42522(17) 0.6919(3) 0.6303(4)
H68_3 H 0.4324 0.7504 0.6315
O5_3 O 0.35071(9) 0.5436(2) 0.19974(15)
O6_3 O 0.30435(9) 0.5729(2) 0.12697(16)
O8_3 O 0.50374(10) 0.5607(3) 0.02259(18)
O13_3 O 0.21362(8) 0.5970(2) 0.17587(13)
O14_3 O 0.21405(11) 0.4973(3) 0.0949(2)
O15_3 O 0.11204(14) 0.8304(4) 0.1806(2)
O16_3 O 0.06593(10) 0.8281(3) 0.10826(17)
N3_3 N 0.03940(12) 0.9389(2) 0.24664(17)
N4_3 N 0.01130(15) 0.9353(3) 0.34209(18)
N11_3 N 0.26659(11) 0.4491(3) 0.2428(2)
N12_3 N 0.28342(15) 0.3302(3) 0.2942(2)
N13_3 N 0.22970(15) 0.3317(3) 0.6154(2)
N14_3 N 0.21586(12) 0.4558(3) 0.6617(2)
N15_3 N 0.27869(11) 0.6692(3) 0.25931(18)
N16_3 N 0.30873(15) 0.7787(3) 0.3077(2)
Zn10_3 Zn 0.219529(13) 0.56183(3) 0.71587(2)
C1_3 C 0.32385(11) 0.5989(3) 0.8214(2)
C2_3 C 0.33864(13) 0.5753(3) 0.8811(2)
H1_3 H 0.3267 0.5299 0.9037
C3_3 C 0.37115(11) 0.6172(3) 0.90895(19)
C4_3 C 0.38866(12) 0.6852(3) 0.87504(19)
H2_3 H 0.4106 0.7129 0.8923
C5_3 C 0.37361(12) 0.7124(3) 0.81536(19)
C6_3 C 0.34112(11) 0.6704(3) 0.78873(19)
H3_3 H 0.3308 0.6893 0.7494
C7_3 C 0.28850(13) 0.5522(3) 0.7930(3)
C8_3 C 0.39042(12) 0.7902(3) 0.78167(19)
C9_3 C 0.38447(11) 0.5968(3) 0.97707(18)
C14_3 C 0.42424(12) 0.5912(3) 0.99065(18)
H6_3 H 0.4425 0.6004 0.9577
C17_3 C 0.05204(11) 0.5707(3) 0.8641(2)
C18_3 C 0.06412(12) 0.5902(3) 0.92668(19)
H7_3 H 0.0456 0.5982 0.9593
C19_3 C 0.10416(11) 0.5981(3) 0.9408(2)
C20_3 C 0.13124(11) 0.5831(3) 0.89057(19)
H8_3 H 0.1580 0.5841 0.8997
C21_3 C 0.11905(11) 0.5669(3) 0.8283(2)
C22_3 C 0.07916(12) 0.5598(3) 0.8157(2)
H9_3 H 0.0707 0.5474 0.7738
C23_3 C 0.00816(12) 0.5662(3) 0.8493(2)
C24_3 C 0.14863(12) 0.5596(3) 0.7746(2)
C47_3 C 0.18336(18) 0.7186(4) 0.6466(3)
H27_3 H 0.1579 0.7081 0.6609
C48_3 C 0.2439(2) 0.7128(9) 0.6314(7)
H28_3 H 0.2701 0.6962 0.6336
C49_3 C 0.2299(3) 0.7859(9) 0.5986(6)
H29_3 H 0.2445 0.8251 0.5739
C50_3 C 0.1663(3) 0.8534(4) 0.5820(3)
H30_3 H 0.1799 0.9084 0.5763
H31_3 H 0.1452 0.8627 0.6129
C51_3 C 0.1494(2) 0.8265(3) 0.5198(3)
C52_3 C 0.1153(3) 0.7824(7) 0.5172(4)
H32_3 H 0.1018 0.7698 0.5553
C53_3 C 0.1002(2) 0.7558(7) 0.4583(5)
H33_3 H 0.0779 0.7205 0.4585
C54_3 C 0.1153(2) 0.7771(4) 0.4030(3)
C55_3 C 0.1487(3) 0.8246(5) 0.4048(3)
H34_3 H 0.1607 0.8429 0.3666
C56_3 C 0.1652(3) 0.8459(5) 0.4652(4)
H35_3 H 0.1889 0.8758 0.4657
C57_3 C 0.0967(2) 0.7530(4) 0.3395(3)
H36_3 H 0.1072 0.7907 0.3059
H37_3 H 0.0687 0.7638 0.3423
C58_3 C 0.07461(16) 0.5982(4) 0.3184(3)
H38_3 H 0.0487 0.6054 0.3319
C59_3 C 0.1354(2) 0.6262(5) 0.2964(3)
H39_3 H 0.1592 0.6546 0.2901
C60_3 C 0.12777(16) 0.5398(5) 0.2823(3)
H40_3 H 0.1458 0.4991 0.2670
O1_3 O 0.27257(9) 0.5898(2) 0.74642(15)
O2_3 O 0.27847(13) 0.4827(3) 0.8141(3)
O3_3 O 0.37118(10) 0.8303(2) 0.74109(16)
O11_3 O 0.18416(8) 0.5598(2) 0.79075(15)
O12_3 O 0.13793(10) 0.5578(3) 0.71809(16)
N7_3 N 0.21345(12) 0.6690(3) 0.65990(19)
N8_3 N 0.19409(19) 0.7881(3) 0.6089(2)
N9_3 N 0.10300(14) 0.6620(3) 0.3204(2)
N10_2 N 0.08922(11) 0.5254(3) 0.29480(17)
H13_3 H 0.9823 0.9123 0.2583
C36_3 C 0.9803(2) 0.9192(4) 0.3919(3)
H16_3 H 0.9547 0.9193 0.3711
H17_3 H 0.9807 0.9660 0.4235
C37_3 C 0.98622(16) 0.8352(4) 0.4252(2)
C38_3 C 0.9975(2) 0.8292(4) 0.4891(2)
C40_3 C 0.99566(14) 0.6736(4) 0.4862(2)
C41_3 C 0.98435(17) 0.6767(4) 0.4229(2)
H20_3 H 0.9799 0.6255 0.3998
C42_3 C 0.97939(18) 0.7595(4) 0.3925(2)
H21_3 H 0.9713 0.7618 0.3494
H23_3 H 0.9980 0.5383 0.4888
C44_3 C 0.97980(14) 0.5778(3) 0.6365(2)
C45_3 C 0.93381(16) 0.5622(4) 0.5659(2)
H25_3 H 0.9198 0.5580 0.5273
C46_3 C 0.91892(15) 0.5575(3) 0.6277(2)
H26_3 H 0.8928 0.5469 0.6384
N5_3 N 0.97249(12) 0.5741(3) 0.57260(18)
N6_3 N 0.94802(11) 0.5706(2) 0.66999(17)
O9_3 O 0.99884(9) 0.5649(2) 0.79107(16)
O10_3 O 0.98474(11) 0.5593(4) 0.89519(19)
N19_2 N 0.91078(11) 0.4746(3) 0.79480(17)
C44_4 C 0.02020(14) 0.4222(3) 0.1365(2)
C45_4 C 0.06619(16) 0.4378(4) 0.0659(2)
H25_4 H 0.0802 0.4420 0.0273
C46_4 C 0.08108(15) 0.4425(3) 0.1277(2)
H26_4 H 0.1072 0.4531 0.1384
N5_4 N 0.02751(12) 0.4259(3) 0.07260(18)
N6_4 N 0.05198(11) 0.4294(2) 0.16999(17)
H13_4 H 0.0177 0.0877 0.7583
C36_4 C 0.0197(2) 0.0808(4) 0.8919(3)
H16_4 H 0.0453 0.0807 0.8711
H17_4 H 0.0193 0.0340 0.9235
C37_4 C 0.01378(16) 0.1648(4) 0.9252(2)
C38_4 C 0.0025(2) 0.1708(4) 0.9891(2)
C40_4 C 0.00434(14) 0.3264(4) 0.9862(2)
C41_4 C 0.01565(17) 0.3233(4) 0.9229(2)
H20_4 H 0.0201 0.3745 0.8998
C42_4 C 0.02061(18) 0.2405(4) 0.8925(2)
H21_4 H 0.0287 0.2382 0.8494
H23_4 H 0.0020 0.4617 0.9888
O9_4 O 0.00116(9) 0.4351(2) 0.29107(16)
O10_4 O 0.01526(11) 0.4407(4) 0.39519(19)
H18_4 H 0.9978 0.1196 0.0120
C39_4 C 0.99798(19) 0.2485(4) 0.0201(2)
H19_4 H 0.9907 0.2498 0.0636
C43_4 C 0.99885(17) 0.4151(4) 0.0202(2)
H22_4 H 0.9725 0.4188 0.0378
H24_4 H 0.9953 0.4153 0.1544
C67_4 C 0.7072(3) 0.6828(5) 0.0067(3)
H47_4 H 0.6985 0.6417 0.0366
C68_4 C 0.73401(18) 0.7435(3) 0.0272(2)
C71_4 C 0.7482(3) 0.7476(4) 0.0956(3)
H50_4 H 0.7258 0.7550 0.1243
H51_4 H 0.7650 0.7982 0.1007
C72_4 C 0.75767(17) 0.6047(4) 0.1540(2)
H52_4 H 0.7329 0.6035 0.1732
C73_4 C 0.8146(2) 0.5704(6) 0.1245(5)
H53_4 H 0.8378 0.5392 0.1189
C74_4 C 0.8067(2) 0.6480(6) 0.0967(5)
H54_4 H 0.8232 0.6806 0.0701
C82_4 C 0.6404(2) 0.2469(4) 0.0333(3)
C83_4 C 0.66563(18) 0.1792(4) 0.0201(3)
H62_4 H 0.6781 0.1506 0.0541
C85_4 C 0.6364(3) 0.2735(7) 0.1052(4)
H64_4 H 0.6622 0.2905 0.1209
H65_4 H 0.6283 0.2226 0.1297
N1_4 N 0.61103(14) 0.3391(3) 0.1183(2)
C86_4 C 0.60947(15) 0.4267(3) 0.1209(3)
H66_4 H 0.6304 0.4647 0.1145
C87_4 C 0.55081(15) 0.3766(4) 0.1405(4)
H67_4 H 0.5241 0.3737 0.1499
C88_4 C 0.57478(17) 0.3081(3) 0.1303(4)
H68_4 H 0.5676 0.2496 0.1315
N13_4 N 0.77030(15) 0.6683(3) 0.1154(2)
N14_4 N 0.78414(12) 0.5442(3) 0.1617(2)
Zn10_4 Zn 0.780471(13) 0.43817(3) 0.21587(2)
Zn1_4 Zn 0.732296(13) 0.43479(3) 0.70115(2)
C1_4 C 0.67615(11) 0.4011(3) 0.3214(2)
C2_4 C 0.66136(13) 0.4247(3) 0.3811(2)
H1_4 H 0.6733 0.4701 0.4037
C3_4 C 0.62885(11) 0.3828(3) 0.40895(19)
C4_4 C 0.61134(12) 0.3148(3) 0.37504(19)
H2_4 H 0.5894 0.2871 0.3923
C5_4 C 0.62639(12) 0.2876(3) 0.31536(19)
C6_4 C 0.65888(11) 0.3296(3) 0.28873(19)
H3_4 H 0.6692 0.3107 0.2494
C7_4 C 0.71150(13) 0.4478(3) 0.2930(3)
C8_4 C 0.60958(12) 0.2098(3) 0.28167(19)
C9_4 C 0.61553(11) 0.4032(3) 0.47707(18)
C10_4 C 0.64177(12) 0.4145(3) 0.5256(2)
H4_4 H 0.6684 0.4101 0.5162
C11_4 C 0.63024(12) 0.4326(3) 0.58963(19)
C12_4 C 0.59035(13) 0.4388(3) 0.60347(19)
H5_4 H 0.5821 0.4499 0.6457
C13_4 C 0.56253(12) 0.4285(3) 0.5540(2)
C14_4 C 0.57576(12) 0.4088(3) 0.49065(18)
H6_4 H 0.5575 0.3996 0.4577
C15_4 C 0.65992(12) 0.4385(3) 0.6435(2)
C16_4 C 0.51986(13) 0.4374(3) 0.5673(2)
C17_4 C 0.94796(11) 0.4293(3) 0.3641(2)
C18_4 C 0.93588(12) 0.4098(3) 0.42668(19)
H7_4 H 0.9544 0.4018 0.4593
C19_4 C 0.89584(11) 0.4019(3) 0.4408(2)
C20_4 C 0.86876(11) 0.4169(3) 0.39057(19)
H8_4 H 0.8420 0.4159 0.3997
C21_4 C 0.88095(11) 0.4331(3) 0.3283(2)
C22_4 C 0.92084(12) 0.4402(3) 0.3157(2)
H9_4 H 0.9293 0.4526 0.2738
C23_4 C 0.99184(12) 0.4338(3) 0.3493(2)
C24_4 C 0.85137(12) 0.4404(3) 0.2746(2)
C25_4 C 0.88157(11) 0.3756(3) 0.50645(18)
C26_4 C 0.89931(12) 0.3078(3) 0.53896(18)
H10_4 H 0.9206 0.2795 0.5202
C27_4 C 0.88530(12) 0.2803(3) 0.6015(2)
C28_4 C 0.85374(12) 0.3237(3) 0.62701(19)
H11_4 H 0.8441 0.3064 0.6672
C29_4 C 0.83564(11) 0.3920(3) 0.59554(18)
C30_4 C 0.84978(12) 0.4176(3) 0.53520(19)
H12_4 H 0.8378 0.4637 0.5136
C31_4 C 0.90243(14) 0.2023(4) 0.6316(2)
C32_4 C 0.80047(13) 0.4374(3) 0.6246(2)
C33_4 C 0.99391(15) 0.0740(3) 0.7780(2)
C34_4 C 0.93288(16) 0.0421(4) 0.7917(2)
H14_4 H 0.9067 0.0293 0.7828
C35_4 C 0.94904(18) 0.0446(4) 0.8511(2)
H15_4 H 0.9364 0.0349 0.8905
C47_4 C 0.81664(18) 0.2814(4) 0.1466(3)
H27_4 H 0.8421 0.2919 0.1609
C48_4 C 0.7561(2) 0.2872(9) 0.1314(7)
H28_4 H 0.7299 0.3038 0.1336
C49_4 C 0.7701(3) 0.2141(9) 0.0986(6)
H29_4 H 0.7555 0.1749 0.0739
C50_4 C 0.8337(3) 0.1466(4) 0.0820(3)
H30_4 H 0.8201 0.0916 0.0763
H31_4 H 0.8548 0.1373 0.1129
C51_4 C 0.8506(2) 0.1735(3) 0.0198(3)
C52_4 C 0.8847(3) 0.2176(7) 0.0172(4)
H32_4 H 0.8982 0.2302 0.0553
C61_4 C 0.70555(15) 0.5941(3) 0.7730(2)
H41_4 H 0.6803 0.5724 0.7787
C62_4 C 0.7661(2) 0.6081(5) 0.7438(4)
H42_4 H 0.7904 0.5993 0.7240
C63_4 C 0.7551(3) 0.6773(4) 0.7788(4)
H43_4 H 0.7714 0.7234 0.7907
C64_4 C 0.6921(2) 0.7318(4) 0.8306(3)
H44_4 H 0.6932 0.7888 0.8103
H45_4 H 0.6650 0.7123 0.8308
C65_4 C 0.70751(19) 0.7372(3) 0.8997(2)
C66_4 C 0.6923(2) 0.6787(5) 0.9447(3)
H46_4 H 0.6730 0.6386 0.9334
C69_4 C 0.7457(2) 0.8030(4) 0.9847(3)
H48_4 H 0.7631 0.8465 0.9975
C70_4 C 0.7319(2) 0.8008(5) 0.9201(3)
H49_4 H 0.7398 0.8438 0.8911
C75_4 C 0.68687(15) 0.2968(3) 0.7760(3)
H55_4 H 0.6627 0.3223 0.7667
C76_4 C 0.7304(2) 0.2042(4) 0.8075(4)
H56_4 H 0.7425 0.1548 0.8243
C77_4 C 0.74842(17) 0.2712(4) 0.7788(3)
H57_4 H 0.7754 0.2764 0.7730
C78_4 C 0.6594(2) 0.1686(4) 0.8346(3)
H58_4 H 0.6354 0.1785 0.8101
H59_4 H 0.6660 0.1072 0.8315
C79_4 C 0.65294(18) 0.1933(4) 0.9052(3)
C80_4 C 0.6271(3) 0.2592(6) 0.9209(4)
H60_4 H 0.6150 0.2909 0.8881
C81_4 C 0.6192(2) 0.2783(5) 0.9840(3)
H61_4 H 0.5981 0.3148 0.9932
C84_4 C 0.6727(2) 0.1532(4) 0.9577(3)
H63_4 H 0.6906 0.1087 0.9497
O1_4 O 0.72743(9) 0.4102(2) 0.24642(15)
O2_4 O 0.72153(13) 0.5173(3) 0.3141(3)
O3_4 O 0.62882(10) 0.1697(2) 0.24109(16)
O5_4 O 0.64929(9) 0.4564(2) 0.69974(15)
O6_4 O 0.69565(9) 0.4271(2) 0.62697(16)
O8_4 O 0.49626(10) 0.4393(3) 0.52259(18)
O11_4 O 0.81584(8) 0.4402(2) 0.29075(15)
O12_4 O 0.86207(10) 0.4422(3) 0.21809(16)
O13_4 O 0.78638(8) 0.4030(2) 0.67587(13)
O14_4 O 0.78595(11) 0.5027(3) 0.5949(2)
O15_4 O 0.88796(14) 0.1696(4) 0.6806(2)
O16_4 O 0.93407(10) 0.1719(3) 0.60826(17)
N3_4 N 0.96060(12) 0.0611(2) 0.74664(17)
N4_4 N 0.98870(15) 0.0647(3) 0.84209(18)
N7_4 N 0.78655(12) 0.3310(3) 0.15990(19)
N8_4 N 0.80591(19) 0.2119(3) 0.1089(2)
N11_4 N 0.73341(11) 0.5509(3) 0.7428(2)
N12_4 N 0.71658(15) 0.6698(3) 0.7942(2)
N15_4 N 0.72131(11) 0.3308(3) 0.75931(18)
N16_4 N 0.69127(15) 0.2213(3) 0.8077(2)
C53_4 C 0.8998(2) 0.2442(7) 0.9583(5)
H33_4 H 0.9221 0.2795 0.9585
C54_4 C 0.8847(2) 0.2229(4) 0.9030(3)
C55_4 C 0.8513(3) 0.1754(5) 0.9048(3)
H34_4 H 0.8393 0.1571 0.8666
C56_4 C 0.8348(3) 0.1541(5) 0.9652(4)
H35_4 H 0.8111 0.1242 0.9657
C57_4 C 0.9033(2) 0.2470(4) 0.8395(3)
H36_4 H 0.8928 0.2093 0.8059
H37_4 H 0.9313 0.2362 0.8423
C58_4 C 0.92539(16) 0.4018(4) 0.8184(3)
H38_4 H 0.9513 0.3946 0.8319
C59_4 C 0.8646(2) 0.3738(5) 0.7964(3)
H39_4 H 0.8408 0.3454 0.7901
C60_4 C 0.87223(16) 0.4602(5) 0.7823(3)
H40_4 H 0.8542 0.5009 0.7670
N9_4 N 0.89700(14) 0.3380(3) 0.8204(2)
loop_
_geom_bond_atom_site_label_1
_geom_bond_atom_site_label_2
_geom_bond_site_symmetry_1
_geom_bond_site_symmetry_2
C61 H41 1_555 1_555
C62 H42 1_555 1_555
C63 C62 1_555 1_555
H43 C63 1_555 1_555
C64 H44 1_555 1_555
H45 C64 1_555 1_555
C65 C64 1_555 1_555
C66 C65 1_555 1_555
H46 C66 1_555 1_555
C67 C66 1_555 1_555
H47 C67 1_555 1_555
C68 C67 1_555 1_555
C69 C68 1_555 1_555
H48 C69 1_555 1_555
C70 C65 1_555 1_555
H49 C70 1_555 1_555
C71 C68 1_555 1_555
H50 C71 1_555 1_555
H51 C71 1_555 1_555
C72 H52 1_555 1_555
C73 H53 1_555 1_555
C74 C73 1_555 1_555
H54 C74 1_555 1_555
N12 C61 1_555 1_555
N13 C71 1_555 1_555
N14 C72 1_555 1_555
C61 N11 1_555 1_555
C62 N11 1_555 1_555
C63 N12 1_555 1_555
C64 N12 1_555 1_555
C69 C70 1_555 1_555
C72 N13 1_555 1_555
C73 N14 1_555 1_555
C74 N13 1_555 1_555
Zn1 O6 1_555 1_555
Zn3 O16 1_555 1_555
H4 C10 1_555 1_555
C11 C10 1_555 1_555
C12 C11 1_555 1_555
H5 C12 1_555 1_555
C13 C12 1_555 1_555
C15 C11 1_555 1_555
C16 C13 1_555 1_555
C26 C25 1_555 1_555
H10 C26 1_555 1_555
C27 C26 1_555 1_555
C28 C27 1_555 1_555
H11 C28 1_555 1_555
C29 C28 1_555 1_555
C30 C25 1_555 1_555
H12 C30 1_555 1_555
C31 C27 1_555 1_555
C32 C29 1_555 1_555
C33 H13 1_555 1_555
C34 H14 1_555 1_555
C35 C34 1_555 1_555
H15 C35 1_555 1_555
C36 H16 1_555 1_555
H17 C36 1_555 1_555
C37 C36 1_555 1_555
C38 C37 1_555 1_555
H18 C38 1_555 1_555
C39 C38 1_555 1_555
H19 C39 1_555 1_555
C40 C39 1_555 1_555
C41 C40 1_555 1_555
H20 C41 1_555 1_555
C42 C37 1_555 1_555
H21 C42 1_555 1_555
C43 C40 1_555 1_555
H22 C43 1_555 1_555
H23 C43 1_555 1_555
C44 H24 1_555 1_555
C45 H25 1_555 1_555
C46 C45 1_555 1_555
H26 C46 1_555 1_555
C75 H55 1_555 1_555
C76 H56 1_555 1_555
C77 C76 1_555 1_555
H57 C77 1_555 1_555
C78 H58 1_555 1_555
H59 C78 1_555 1_555
C79 C78 1_555 1_555
C80 C79 1_555 1_555
H60 C80 1_555 1_555
C81 C80 1_555 1_555
H61 C81 1_555 1_555
C82 C81 1_555 1_555
C83 C82 1_555 1_555
H62 C83 1_555 1_555
C84 C79 1_555 1_555
H63 C84 1_555 1_555
C85 C82 1_555 1_555
H64 C85 1_555 1_555
H65 C85 1_555 1_555
N1 C85 1_555 1_555
C86 N1 1_555 1_555
H66 C86 1_555 1_555
N2 C86 1_555 1_555
C87 N2 1_555 1_555
H67 C87 1_555 1_555
C88 N1 1_555 1_555
H68 C88 1_555 1_555
O5 C15 1_555 1_555
O6 C15 1_555 1_555
O7 C16 1_555 1_555
O13 Zn1 1_555 1_555
O15 C31 1_555 1_555
O16 C31 1_555 1_555
N3 Zn3 1_555 1_555
N4 C33 1_555 1_555
N5 C43 1_555 1_555
N6 C44 1_555 1_555
N15 Zn1 1_555 1_555
N16 C75 1_555 1_555
Zn5 N6 1_555 1_555
N17 Zn3 1_555 1_555
O18 Zn3 1_555 1_555
C29 C30 1_555 1_555
C32 O13 1_555 1_555
C33 N3 1_555 1_555
C34 N3 1_555 1_555
C35 N4 1_555 1_555
C36 N4 1_555 1_555
C41 C42 1_555 1_555
C44 N5 1_555 1_555
C45 N5 1_555 1_555
C46 N6 1_555 1_555
C75 N15 1_555 1_555
C76 N16 1_555 1_555
C77 N15 1_555 1_555
C78 N16 1_555 1_555
C83 C84 1_555 1_555
C87 C88 1_555 1_555
Zn5 O9 1_555 1_555
Zn10 O1 1_555 1_555
C1 C2 1_555 1_555
C2 H1 1_555 1_555
C3 C2 1_555 1_555
C4 C3 1_555 1_555
H2 C4 1_555 1_555
C5 C4 1_555 1_555
C6 C1 1_555 1_555
H3 C6 1_555 1_555
C7 C1 1_555 1_555
C8 C5 1_555 1_555
C9 C3 1_555 1_555
C14 C9 1_555 1_555
H6 C14 1_555 1_555
C17 C18 1_555 1_555
C18 H7 1_555 1_555
C19 C18 1_555 1_555
C20 C19 1_555 1_555
H8 C20 1_555 1_555
C21 C20 1_555 1_555
C22 C17 1_555 1_555
H9 C22 1_555 1_555
C23 C17 1_555 1_555
C24 C21 1_555 1_555
C47 H27 1_555 1_555
C48 H28 1_555 1_555
C49 C48 1_555 1_555
H29 C49 1_555 1_555
C50 H30 1_555 1_555
H31 C50 1_555 1_555
C51 C50 1_555 1_555
C52 C51 1_555 1_555
H32 C52 1_555 1_555
C53 C52 1_555 1_555
H33 C53 1_555 1_555
C54 C53 1_555 1_555
C55 C54 1_555 1_555
H34 C55 1_555 1_555
C56 C51 1_555 1_555
H35 C56 1_555 1_555
C57 C54 1_555 1_555
H36 C57 1_555 1_555
H37 C57 1_555 1_555
C58 H38 1_555 1_555
C59 H39 1_555 1_555
C60 C59 1_555 1_555
O1 C7 1_555 1_555
O3 C8 1_555 1_555
O4 C8 1_555 1_555
O9 C23 1_555 1_555
O10 C23 1_555 1_555
O11 Zn10 1_555 1_555
O12 C24 1_555 1_555
N7 Zn10 1_555 1_555
N8 C47 1_555 1_555
N9 C57 1_555 1_555
N10 C58 1_555 1_555
Zn7 O4 1_555 1_555
O17 Zn5 1_555 1_555
C5 C6 1_555 1_555
C21 C22 1_555 1_555
C24 O11 1_555 1_555
C47 N7 1_555 1_555
C48 N7 1_555 1_555
C49 N8 1_555 1_555
C50 N8 1_555 1_555
C55 C56 1_555 1_555
C58 N9 1_555 1_555
C59 N9 1_555 1_555
C60 N10 1_555 1_555
H19_2 C39_2 1_555 1_555
H22_2 C43_2 1_555 1_555
C44_2 H24_2 1_555 1_555
C45_2 H25_2 1_555 1_555
C46_2 C45_2 1_555 1_555
H26_2 C46_2 1_555 1_555
C83_2 C82_2 1_555 1_555
H62_2 C83_2 1_555 1_555
C85_2 C82_2 1_555 1_555
H64_2 C85_2 1_555 1_555
H65_2 C85_2 1_555 1_555
N1_2 C85_2 1_555 1_555
C86_2 N1_2 1_555 1_555
H66_2 C86_2 1_555 1_555
N2_2 C86_2 1_555 1_555
C87_2 N2_2 1_555 1_555
H67_2 C87_2 1_555 1_555
C88_2 N1_2 1_555 1_555
H68_2 C88_2 1_555 1_555
N5_2 C43_2 1_555 1_555
N6_2 C44_2 1_555 1_555
Zn6 N6_2 1_555 1_555
C44_2 N5_2 1_555 1_555
C45_2 N5_2 1_555 1_555
C46_2 N6_2 1_555 1_555
C87_2 C88_2 1_555 1_555
Zn1_2 O6_2 1_555 1_555
Zn6 O9_2 1_555 1_555
Zn3_2 O16_2 1_555 1_555
Zn10_2 O1_2 1_555 1_555
C1_2 C2_2 1_555 1_555
C2_2 H1_2 1_555 1_555
C3_2 C2_2 1_555 1_555
C4_2 C3_2 1_555 1_555
H2_2 C4_2 1_555 1_555
C5_2 C4_2 1_555 1_555
C6_2 C1_2 1_555 1_555
H3_2 C6_2 1_555 1_555
C7_2 C1_2 1_555 1_555
C8_2 C5_2 1_555 1_555
C9_2 C3_2 1_555 1_555
C10_2 C9_2 1_555 1_555
H4_2 C10_2 1_555 1_555
C11_2 C10_2 1_555 1_555
C12_2 C11_2 1_555 1_555
H5_2 C12_2 1_555 1_555
C13_2 C12_2 1_555 1_555
C14_2 C9_2 1_555 1_555
H6_2 C14_2 1_555 1_555
C15_2 C11_2 1_555 1_555
C16_2 C13_2 1_555 1_555
C17_2 C18_2 1_555 1_555
C18_2 H7_2 1_555 1_555
C19_2 C18_2 1_555 1_555
C20_2 C19_2 1_555 1_555
H8_2 C20_2 1_555 1_555
C21_2 C20_2 1_555 1_555
C22_2 C17_2 1_555 1_555
H9_2 C22_2 1_555 1_555
C23_2 C17_2 1_555 1_555
C24_2 C21_2 1_555 1_555
C25_2 C19_2 1_555 1_555
C26_2 C25_2 1_555 1_555
H10_2 C26_2 1_555 1_555
C27_2 C26_2 1_555 1_555
C28_2 C27_2 1_555 1_555
H11_2 C28_2 1_555 1_555
C29_2 C28_2 1_555 1_555
C30_2 C25_2 1_555 1_555
H12_2 C30_2 1_555 1_555
C31_2 C27_2 1_555 1_555
C32_2 C29_2 1_555 1_555
C33_2 H13_2 1_555 1_555
C34_2 H14_2 1_555 1_555
C35_2 C34_2 1_555 1_555
H15_2 C35_2 1_555 1_555
C36_2 H16_2 1_555 1_555
H17_2 C36_2 1_555 1_555
C37_2 C36_2 1_555 1_555
C38_2 C37_2 1_555 1_555
C41_2 C40_2 1_555 1_555
H20_2 C41_2 1_555 1_555
C42_2 C37_2 1_555 1_555
H21_2 C42_2 1_555 1_555
C47_2 H27_2 1_555 1_555
C48_2 H28_2 1_555 1_555
C49_2 C48_2 1_555 1_555
H29_2 C49_2 1_555 1_555
C50_2 H30_2 1_555 1_555
H31_2 C50_2 1_555 1_555
C51_2 C50_2 1_555 1_555
C52_2 C51_2 1_555 1_555
H32_2 C52_2 1_555 1_555
C75_2 H55_2 1_555 1_555
C76_2 H56_2 1_555 1_555
C77_2 C76_2 1_555 1_555
H57_2 C77_2 1_555 1_555
C78_2 H58_2 1_555 1_555
H59_2 C78_2 1_555 1_555
C79_2 C78_2 1_555 1_555
C80_2 C79_2 1_555 1_555
H60_2 C80_2 1_555 1_555
C81_2 C80_2 1_555 1_555
H61_2 C81_2 1_555 1_555
C84_2 C79_2 1_555 1_555
H63_2 C84_2 1_555 1_555
O1_2 C7_2 1_555 1_555
O3_2 C8_2 1_555 1_555
O4_2 C8_2 1_555 1_555
O5_2 C15_2 1_555 1_555
O6_2 C15_2 1_555 1_555
O7_2 C16_2 1_555 1_555
O9_2 C23_2 1_555 1_555
O10_2 C23_2 1_555 1_555
O11_2 Zn10_2 1_555 1_555
O12_2 C24_2 1_555 1_555
O13_2 Zn1_2 1_555 1_555
O15_2 C31_2 1_555 1_555
O16_2 C31_2 1_555 1_555
N3_2 Zn3_2 1_555 1_555
N4_2 C33_2 1_555 1_555
N7_2 Zn10_2 1_555 1_555
N8_2 C47_2 1_555 1_555
N15_2 Zn1_2 1_555 1_555
N16_2 C75_2 1_555 1_555
Zn7_2 O4_2 1_555 1_555
N17_2 Zn3_2 1_555 1_555
O17_2 Zn6 1_555 1_555
O18_2 Zn3_2 1_555 1_555
C5_2 C6_2 1_555 1_555
C13_2 C14_2 1_555 1_555
C21_2 C22_2 1_555 1_555
C24_2 O11_2 1_555 1_555
C29_2 C30_2 1_555 1_555
C32_2 O13_2 1_555 1_555
C33_2 N3_2 1_555 1_555
C34_2 N3_2 1_555 1_555
C35_2 N4_2 1_555 1_555
C36_2 N4_2 1_555 1_555
C41_2 C42_2 1_555 1_555
C47_2 N7_2 1_555 1_555
C48_2 N7_2 1_555 1_555
C49_2 N8_2 1_555 1_555
C50_2 N8_2 1_555 1_555
C75_2 N15_2 1_555 1_555
C76_2 N16_2 1_555 1_555
C77_2 N15_2 1_555 1_555
C78_2 N16_2 1_555 1_555
H33_2 C53_2 1_555 1_555
C54_2 C53_2 1_555 1_555
C55_2 C54_2 1_555 1_555
H34_2 C55_2 1_555 1_555
H35_2 C56_2 1_555 1_555
C57_2 C54_2 1_555 1_555
H36_2 C57_2 1_555 1_555
H37_2 C57_2 1_555 1_555
C58_2 H38_2 1_555 1_555
C59_2 H39_2 1_555 1_555
C60_2 C59_2 1_555 1_555
N9_2 C57_2 1_555 1_555
N19 C58_2 1_555 1_555
C55_2 C56_2 1_555 1_555
C58_2 N9_2 1_555 1_555
C59_2 N9_2 1_555 1_555
C60_2 N19 1_555 1_555
H47_2 C67_2 1_555 1_555
C68_2 C67_2 1_555 1_555
C71_2 C68_2 1_555 1_555
H50_2 C71_2 1_555 1_555
H51_2 C71_2 1_555 1_555
C72_2 H52_2 1_555 1_555
C73_2 H53_2 1_555 1_555
C74_2 C73_2 1_555 1_555
H54_2 C74_2 1_555 1_555
N13_2 C71_2 1_555 1_555
N14_2 C72_2 1_555 1_555
C72_2 N13_2 1_555 1_555
C73_2 N14_2 1_555 1_555
C74_2 N13_2 1_555 1_555
C61_2 H41_2 1_555 1_555
C62_2 H42_2 1_555 1_555
C63_2 C62_2 1_555 1_555
H43_2 C63_2 1_555 1_555
C64_2 H44_2 1_555 1_555
H45_2 C64_2 1_555 1_555
C65_2 C64_2 1_555 1_555
C66_2 C65_2 1_555 1_555
H46_2 C66_2 1_555 1_555
H48_2 C69_2 1_555 1_555
C70_2 C65_2 1_555 1_555
H49_2 C70_2 1_555 1_555
N12_2 C61_2 1_555 1_555
C61_2 N11_2 1_555 1_555
C62_2 N11_2 1_555 1_555
C63_2 N12_2 1_555 1_555
C64_2 N12_2 1_555 1_555
C69_2 C70_2 1_555 1_555
Zn1_3 O6_3 1_555 1_555
Zn8 O16_3 1_555 1_555
H4_3 C10_3 1_555 1_555
C11_3 C10_3 1_555 1_555
C12_3 C11_3 1_555 1_555
H5_3 C12_3 1_555 1_555
C13_3 C12_3 1_555 1_555
C15_3 C11_3 1_555 1_555
C16_3 C13_3 1_555 1_555
C26_3 C25_3 1_555 1_555
H10_3 C26_3 1_555 1_555
C27_3 C26_3 1_555 1_555
C28_3 C27_3 1_555 1_555
H11_3 C28_3 1_555 1_555
C29_3 C28_3 1_555 1_555
C30_3 C25_3 1_555 1_555
H12_3 C30_3 1_555 1_555
C31_3 C27_3 1_555 1_555
C32_3 C29_3 1_555 1_555
C34_3 H14_3 1_555 1_555
C35_3 C34_3 1_555 1_555
H15_3 C35_3 1_555 1_555
H19_3 C39_3 1_555 1_555
H22_3 C43_3 1_555 1_555
C61_3 H41_3 1_555 1_555
C62_3 H42_3 1_555 1_555
C63_3 C62_3 1_555 1_555
H43_3 C63_3 1_555 1_555
C64_3 H44_3 1_555 1_555
H45_3 C64_3 1_555 1_555
C65_3 C64_3 1_555 1_555
C66_3 C65_3 1_555 1_555
H46_3 C66_3 1_555 1_555
C67_3 C66_3 1_555 1_555
H47_3 C67_3 1_555 1_555
C68_3 C67_3 1_555 1_555
C69_3 C68_3 1_555 1_555
H48_3 C69_3 1_555 1_555
C70_3 C65_3 1_555 1_555
H49_3 C70_3 1_555 1_555
C71_3 C68_3 1_555 1_555
H50_3 C71_3 1_555 1_555
H51_3 C71_3 1_555 1_555
C72_3 H52_3 1_555 1_555
C73_3 H53_3 1_555 1_555
C74_3 C73_3 1_555 1_555
H54_3 C74_3 1_555 1_555
C75_3 H55_3 1_555 1_555
C76_3 H56_3 1_555 1_555
C77_3 C76_3 1_555 1_555
H57_3 C77_3 1_555 1_555
C78_3 H58_3 1_555 1_555
H59_3 C78_3 1_555 1_555
C79_3 C78_3 1_555 1_555
C80_3 C79_3 1_555 1_555
H60_3 C80_3 1_555 1_555
C81_3 C80_3 1_555 1_555
H61_3 C81_3 1_555 1_555
C82_3 C81_3 1_555 1_555
C83_3 C82_3 1_555 1_555
H62_3 C83_3 1_555 1_555
C84_3 C79_3 1_555 1_555
H63_3 C84_3 1_555 1_555
C85_3 C82_3 1_555 1_555
H64_3 C85_3 1_555 1_555
H65_3 C85_3 1_555 1_555
N1_3 C85_3 1_555 1_555
C86_3 N1_3 1_555 1_555
H66_3 C86_3 1_555 1_555
N17_2 C86_3 1_555 1_555
C87_3 N17_2 1_555 1_555
H67_3 C87_3 1_555 1_555
C88_3 N1_3 1_555 1_555
H68_3 C88_3 1_555 1_555
O5_3 C15_3 1_555 1_555
O6_3 C15_3 1_555 1_555
O18 C16_3 1_555 1_555
O8_3 C16_3 1_555 1_555
O13_3 Zn1_3 1_555 1_555
O14_3 C32_3 1_555 1_555
O15_3 C31_3 1_555 1_555
O16_3 C31_3 1_555 1_555
N3_3 Zn8 1_555 1_555
N4_3 C33_3 1_555 1_555
N11_3 Zn1_3 1_555 1_555
N12_3 C61_3 1_555 1_555
N13_3 C71_3 1_555 1_555
N14_3 C72_3 1_555 1_555
N15_3 Zn1_3 1_555 1_555
N16_3 C75_3 1_555 1_555
Zn10_3 N14_3 1_555 1_555
C29_3 C30_3 1_555 1_555
C32_3 O13_3 1_555 1_555
C33_3 N3_3 1_555 1_555
C34_3 N3_3 1_555 1_555
C35_3 N4_3 1_555 1_555
C61_3 N11_3 1_555 1_555
C62_3 N11_3 1_555 1_555
C63_3 N12_3 1_555 1_555
C64_3 N12_3 1_555 1_555
C69_3 C70_3 1_555 1_555
C72_3 N13_3 1_555 1_555
C73_3 N14_3 1_555 1_555
C74_3 N13_3 1_555 1_555
C75_3 N15_3 1_555 1_555
C76_3 N16_3 1_555 1_555
C77_3 N15_3 1_555 1_555
C78_3 N16_3 1_555 1_555
C83_3 C84_3 1_555 1_555
C87_3 C88_3 1_555 1_555
Zn10_3 O1_3 1_555 1_555
C1_3 C2_3 1_555 1_555
C2_3 H1_3 1_555 1_555
C3_3 C2_3 1_555 1_555
C4_3 C3_3 1_555 1_555
H2_3 C4_3 1_555 1_555
C5_3 C4_3 1_555 1_555
C6_3 C1_3 1_555 1_555
H3_3 C6_3 1_555 1_555
C7_3 C1_3 1_555 1_555
C8_3 C5_3 1_555 1_555
C9_3 C3_3 1_555 1_555
C14_3 C9_3 1_555 1_555
H6_3 C14_3 1_555 1_555
C17_3 C18_3 1_555 1_555
C18_3 H7_3 1_555 1_555
C19_3 C18_3 1_555 1_555
C20_3 C19_3 1_555 1_555
H8_3 C20_3 1_555 1_555
C21_3 C20_3 1_555 1_555
C22_3 C17_3 1_555 1_555
H9_3 C22_3 1_555 1_555
C23_3 C17_3 1_555 1_555
C24_3 C21_3 1_555 1_555
C47_3 H27_3 1_555 1_555
C48_3 H28_3 1_555 1_555
C49_3 C48_3 1_555 1_555
H29_3 C49_3 1_555 1_555
C50_3 H30_3 1_555 1_555
H31_3 C50_3 1_555 1_555
C51_3 C50_3 1_555 1_555
C52_3 C51_3 1_555 1_555
H32_3 C52_3 1_555 1_555
C53_3 C52_3 1_555 1_555
H33_3 C53_3 1_555 1_555
C54_3 C53_3 1_555 1_555
C55_3 C54_3 1_555 1_555
H34_3 C55_3 1_555 1_555
C56_3 C51_3 1_555 1_555
H35_3 C56_3 1_555 1_555
C57_3 C54_3 1_555 1_555
H36_3 C57_3 1_555 1_555
H37_3 C57_3 1_555 1_555
C58_3 H38_3 1_555 1_555
C59_3 H39_3 1_555 1_555
C60_3 C59_3 1_555 1_555
H40_3 C60_3 1_555 1_555
O1_3 C7_3 1_555 1_555
O2_3 C7_3 1_555 1_555
O3_3 C8_3 1_555 1_555
O17 C8_3 1_555 1_555
O11_3 Zn10_3 1_555 1_555
O12_3 C24_3 1_555 1_555
N7_3 Zn10_3 1_555 1_555
N8_3 C47_3 1_555 1_555
N9_3 C57_3 1_555 1_555
N10_2 C58_3 1_555 1_555
Zn7_2 N10_2 1_555 1_555
C5_3 C6_3 1_555 1_555
C21_3 C22_3 1_555 1_555
C24_3 O11_3 1_555 1_555
C47_3 N7_3 1_555 1_555
C48_3 N7_3 1_555 1_555
C49_3 N8_3 1_555 1_555
C50_3 N8_3 1_555 1_555
C55_3 C56_3 1_555 1_555
C58_3 N9_3 1_555 1_555
C59_3 N9_3 1_555 1_555
C60_3 N10_2 1_555 1_555
C36_3 H16_3 1_555 1_555
H17_3 C36_3 1_555 1_555
C37_3 C36_3 1_555 1_555
C38_3 C37_3 1_555 1_555
C41_3 C40_3 1_555 1_555
H20_3 C41_3 1_555 1_555
C42_3 C37_3 1_555 1_555
H21_3 C42_3 1_555 1_555
C45_3 H25_3 1_555 1_555
C46_3 C45_3 1_555 1_555
H26_3 C46_3 1_555 1_555
N6_3 C44_3 1_555 1_555
Zn7 N6_3 1_555 1_555
C41_3 C42_3 1_555 1_555
C44_3 N5_3 1_555 1_555
C45_3 N5_3 1_555 1_555
C46_3 N6_3 1_555 1_555
Zn7 O9_3 1_555 1_555
N19_2 Zn7 1_555 1_555
C45_4 H25_4 1_555 1_555
C46_4 C45_4 1_555 1_555
H26_4 C46_4 1_555 1_555
N6_4 C44_4 1_555 1_555
Zn7_2 N6_4 1_555 1_555
C44_4 N5_4 1_555 1_555
C45_4 N5_4 1_555 1_555
C46_4 N6_4 1_555 1_555
Zn7_2 O9_4 1_555 1_555
C36_4 H16_4 1_555 1_555
H17_4 C36_4 1_555 1_555
C37_4 C36_4 1_555 1_555
C38_4 C37_4 1_555 1_555
C41_4 C40_4 1_555 1_555
H20_4 C41_4 1_555 1_555
C42_4 C37_4 1_555 1_555
H21_4 C42_4 1_555 1_555
C41_4 C42_4 1_555 1_555
H19_4 C39_4 1_555 1_555
H22_4 C43_4 1_555 1_555
H47_4 C67_4 1_555 1_555
C68_4 C67_4 1_555 1_555
C71_4 C68_4 1_555 1_555
H50_4 C71_4 1_555 1_555
H51_4 C71_4 1_555 1_555
C72_4 H52_4 1_555 1_555
C73_4 H53_4 1_555 1_555
C74_4 C73_4 1_555 1_555
H54_4 C74_4 1_555 1_555
C83_4 C82_4 1_555 1_555
H62_4 C83_4 1_555 1_555
C85_4 C82_4 1_555 1_555
H64_4 C85_4 1_555 1_555
H65_4 C85_4 1_555 1_555
N1_4 C85_4 1_555 1_555
C86_4 N1_4 1_555 1_555
H66_4 C86_4 1_555 1_555
N17 C86_4 1_555 1_555
C87_4 N17 1_555 1_555
H67_4 C87_4 1_555 1_555
C88_4 N1_4 1_555 1_555
H68_4 C88_4 1_555 1_555
N13_4 C71_4 1_555 1_555
N14_4 C72_4 1_555 1_555
Zn10_4 N14_4 1_555 1_555
C72_4 N13_4 1_555 1_555
C73_4 N14_4 1_555 1_555
C74_4 N13_4 1_555 1_555
C87_4 C88_4 1_555 1_555
Zn1_4 O6_4 1_555 1_555
Zn9 O16_4 1_555 1_555
Zn10_4 O1_4 1_555 1_555
C1_4 C2_4 1_555 1_555
C2_4 H1_4 1_555 1_555
C3_4 C2_4 1_555 1_555
C4_4 C3_4 1_555 1_555
H2_4 C4_4 1_555 1_555
C5_4 C4_4 1_555 1_555
C6_4 C1_4 1_555 1_555
H3_4 C6_4 1_555 1_555
C7_4 C1_4 1_555 1_555
C8_4 C5_4 1_555 1_555
C9_4 C3_4 1_555 1_555
C10_4 C9_4 1_555 1_555
H4_4 C10_4 1_555 1_555
C11_4 C10_4 1_555 1_555
C12_4 C11_4 1_555 1_555
H5_4 C12_4 1_555 1_555
C13_4 C12_4 1_555 1_555
C14_4 C9_4 1_555 1_555
H6_4 C14_4 1_555 1_555
C15_4 C11_4 1_555 1_555
C16_4 C13_4 1_555 1_555
C17_4 C18_4 1_555 1_555
C18_4 H7_4 1_555 1_555
C19_4 C18_4 1_555 1_555
C20_4 C19_4 1_555 1_555
H8_4 C20_4 1_555 1_555
C21_4 C20_4 1_555 1_555
C22_4 C17_4 1_555 1_555
H9_4 C22_4 1_555 1_555
C23_4 C17_4 1_555 1_555
C24_4 C21_4 1_555 1_555
C25_4 C19_4 1_555 1_555
C26_4 C25_4 1_555 1_555
H10_4 C26_4 1_555 1_555
C27_4 C26_4 1_555 1_555
C28_4 C27_4 1_555 1_555
H11_4 C28_4 1_555 1_555
C29_4 C28_4 1_555 1_555
C30_4 C25_4 1_555 1_555
H12_4 C30_4 1_555 1_555
C31_4 C27_4 1_555 1_555
C32_4 C29_4 1_555 1_555
C34_4 H14_4 1_555 1_555
C35_4 C34_4 1_555 1_555
H15_4 C35_4 1_555 1_555
C47_4 H27_4 1_555 1_555
C48_4 H28_4 1_555 1_555
C49_4 C48_4 1_555 1_555
H29_4 C49_4 1_555 1_555
C50_4 H30_4 1_555 1_555
H31_4 C50_4 1_555 1_555
C51_4 C50_4 1_555 1_555
C52_4 C51_4 1_555 1_555
H32_4 C52_4 1_555 1_555
C61_4 H41_4 1_555 1_555
C62_4 H42_4 1_555 1_555
C63_4 C62_4 1_555 1_555
H43_4 C63_4 1_555 1_555
C64_4 H44_4 1_555 1_555
H45_4 C64_4 1_555 1_555
C65_4 C64_4 1_555 1_555
C66_4 C65_4 1_555 1_555
H46_4 C66_4 1_555 1_555
H48_4 C69_4 1_555 1_555
C70_4 C65_4 1_555 1_555
H49_4 C70_4 1_555 1_555
C75_4 H55_4 1_555 1_555
C76_4 H56_4 1_555 1_555
C77_4 C76_4 1_555 1_555
H57_4 C77_4 1_555 1_555
C78_4 H58_4 1_555 1_555
H59_4 C78_4 1_555 1_555
C79_4 C78_4 1_555 1_555
C80_4 C79_4 1_555 1_555
H60_4 C80_4 1_555 1_555
C81_4 C80_4 1_555 1_555
H61_4 C81_4 1_555 1_555
C84_4 C79_4 1_555 1_555
H63_4 C84_4 1_555 1_555
O1_4 C7_4 1_555 1_555
O2_4 C7_4 1_555 1_555
O3_4 C8_4 1_555 1_555
O17_2 C8_4 1_555 1_555
O5_4 C15_4 1_555 1_555
O6_4 C15_4 1_555 1_555
O18_2 C16_4 1_555 1_555
O8_4 C16_4 1_555 1_555
O11_4 Zn10_4 1_555 1_555
O12_4 C24_4 1_555 1_555
O13_4 Zn1_4 1_555 1_555
O14_4 C32_4 1_555 1_555
O15_4 C31_4 1_555 1_555
O16_4 C31_4 1_555 1_555
N3_4 Zn9 1_555 1_555
N4_4 C33_4 1_555 1_555
N7_4 Zn10_4 1_555 1_555
N8_4 C47_4 1_555 1_555
N11_4 Zn1_4 1_555 1_555
N12_4 C61_4 1_555 1_555
N15_4 Zn1_4 1_555 1_555
N16_4 C75_4 1_555 1_555
C5_4 C6_4 1_555 1_555
C13_4 C14_4 1_555 1_555
C21_4 C22_4 1_555 1_555
C24_4 O11_4 1_555 1_555
C29_4 C30_4 1_555 1_555
C32_4 O13_4 1_555 1_555
C33_4 N3_4 1_555 1_555
C34_4 N3_4 1_555 1_555
C35_4 N4_4 1_555 1_555
C47_4 N7_4 1_555 1_555
C48_4 N7_4 1_555 1_555
C49_4 N8_4 1_555 1_555
C50_4 N8_4 1_555 1_555
C61_4 N11_4 1_555 1_555
C62_4 N11_4 1_555 1_555
C63_4 N12_4 1_555 1_555
C64_4 N12_4 1_555 1_555
C69_4 C70_4 1_555 1_555
C75_4 N15_4 1_555 1_555
C76_4 N16_4 1_555 1_555
C77_4 N15_4 1_555 1_555
C78_4 N16_4 1_555 1_555
H33_4 C53_4 1_555 1_555
C54_4 C53_4 1_555 1_555
C55_4 C54_4 1_555 1_555
H34_4 C55_4 1_555 1_555
H35_4 C56_4 1_555 1_555
C57_4 C54_4 1_555 1_555
H36_4 C57_4 1_555 1_555
H37_4 C57_4 1_555 1_555
C58_4 H38_4 1_555 1_555
C59_4 H39_4 1_555 1_555
C60_4 C59_4 1_555 1_555
H40_4 C60_4 1_555 1_555
N9_4 C57_4 1_555 1_555
N19_2 C58_4 1_555 1_555
C55_4 C56_4 1_555 1_555
C58_4 N9_4 1_555 1_555
C59_4 N9_4 1_555 1_555
C60_4 N19_2 1_555 1_555

#END
