
###############################################################################
#
# This file contains modified crystal structure data generated from the
# MOF subset of the Cambridge Structural Database (CSD) v543 
# hosted by the Cambridge Crystallographic Data Centre (CCDC).
#
# This work is licensed under the Creative Commons
# Attribution-NonCommercial-ShareAlike 4.0 International License.
# To view a copy of this license, visit
# http://creativecommons.org/licenses/by-nc-sa/4.0/
# or send a letter to
# Creative Commons, PO Box 1866, Mountain View, CA 94042, USA.
#
# CIF created using the CSD Python API on 29 September 2022
# The structure has been converted into the P1 space group
# The structure has a 3D framework
# The original CSD entry KIBYEA is in the monoclinic crystal system
# The framework has been calculated to contain at least 10.0% void space
# The void calculation uses a probe of radius 1.32A, grid spacing 0.4
# The framework is charged, counterions have been retained in the structure
#
###############################################################################

data_KIBYEA
_chemical_formula_moiety         '(C136 H136 Ag8 N16 S16 8+)n'
_symmetry_cell_setting           triclinic
_symmetry_space_group_name_H-M   'P 1'
_symmetry_Int_Tables_number      1
_space_group_name_Hall           'P 1'
loop_
_symmetry_equiv_pos_site_id
_symmetry_equiv_pos_as_xyz
1 x,y,z
_cell_length_a                   20.100(11)
_cell_length_b                   22.556(13)
_cell_length_c                   14.617(9)
_cell_angle_alpha                90
_cell_angle_beta                 123.276(10)
_cell_angle_gamma                90
_cell_volume                     5540.41
loop_
_atom_site_label
_atom_site_type_symbol
_atom_site_fract_x
_atom_site_fract_y
_atom_site_fract_z
C1 C 0.2276(5) 0.0553(3) 0.1173(9)
H1 H 0.1890 0.0547 0.1338
C2 C 0.2152(4) 0.0221(3) 0.0264(8)
C3 C 0.2750(5) 0.0204(3) 0.0058(7)
C4 C 0.3419(4) 0.0520(3) 0.0757(8)
H3 H 0.3840 0.0517 0.0661
C5 C 0.3484(5) 0.0836(4) 0.1583(8)
H4 H 0.3953 0.1044 0.2043
N1 N 0.2911(4) 0.0864(3) 0.1773(6)
Ag1 Ag 0.29991(3) 0.14189(2) 0.30878(6)
N5 N 0.4098(4) 0.2029(3) 0.3978(5)
S4 S 0.30306(10) 0.09184(7) 0.46247(18)
S7 S 0.18663(11) 0.21689(8) 0.20900(18)
C11 C 0.2893(4) 0.7895(3) 0.0838(6)
H9 H 0.3159 0.8173 0.1395
H11 H 0.2163 0.8934 0.0209
H19 H 0.3323 0.4982 0.0186
C23 C 0.5229(6) 0.8125(4) 0.5839(8)
H22 H 0.5192 0.8492 0.6097
C24 C 0.4549(5) 0.7778(6) 0.5276(8)
H23 H 0.4072 0.7903 0.5173
C25 C 0.4606(6) 0.7238(5) 0.4874(8)
C26 C 0.5311(5) 0.7079(4) 0.5047(8)
H24 H 0.5368 0.6728 0.4764
C27 C 0.5955(5) 0.7463(4) 0.5671(8)
H25 H 0.6453 0.7342 0.5841
C29 C 0.2667(4) 0.6908(3) 0.0199(8)
C30 C 0.3082(4) 0.7290(3) 0.1093(7)
C31 C 0.2806(3) 0.6239(2) 0.0374(6)
H27 H 0.3301 0.6160 0.1065
C32 C 0.3666(4) 0.7129(3) 0.2260(6)
H29 H 0.4109 0.7404 0.2596
H30 H 0.3869 0.6732 0.2314
C33 C 0.2349(4) 0.5167(3) 0.0884(7)
H31 H 0.2906 0.5184 0.1476
H32 H 0.2055 0.4987 0.1162
C34 C 0.3851(4) 0.6843(4) 0.4195(7)
H33 H 0.4007 0.6459 0.4071
H34 H 0.3612 0.6780 0.4611
N4 N 0.5902(4) 0.7971(3) 0.6022(5)
S3 S 0.19694(10) 0.59184(7) 0.03753(18)
S6 S 0.31337(11) 0.71689(8) 0.29100(18)
Ag5 Ag 0.20009(3) 0.64189(2) 0.19122(6)
Ag6 Ag 0.70009(3) 0.85811(2) 0.69122(6)
C7 C 0.0451(5) 0.7222(6) 0.4724(8)
H6 H 0.0928 0.7097 0.4827
C8 C 0.0394(6) 0.7762(5) 0.5126(8)
C12 C 0.2333(4) 0.8092(3) 0.9801(8)
C13 C 0.1918(4) 0.7710(3) 0.8907(7)
C14 C 0.2194(3) 0.8761(2) 0.9626(6)
H10 H 0.1699 0.8840 0.8935
C15 C 0.1334(4) 0.7871(3) 0.7740(6)
H12 H 0.0891 0.7596 0.7404
H13 H 0.1131 0.8268 0.7686
C16 C 0.2651(4) 0.9833(3) 0.9116(7)
H14 H 0.2094 0.9816 0.8524
C17 C 0.1149(4) 0.8157(4) 0.5805(7)
H16 H 0.0993 0.8541 0.5929
H17 H 0.1388 0.8220 0.5389
S1 S 0.30306(10) 0.90816(7) 0.96247(18)
S2 S 0.18663(11) 0.78311(8) 0.70900(18)
C18 C 0.2724(5) 0.4447(3) 0.8827(9)
H18 H 0.3110 0.4453 0.8662
C19 C 0.2848(4) 0.4779(3) 0.9736(8)
C20 C 0.2250(5) 0.4796(3) 0.9942(7)
C21 C 0.1581(4) 0.4480(3) 0.9243(8)
H20 H 0.1160 0.4483 0.9339
C22 C 0.1516(5) 0.4164(4) 0.8417(8)
H21 H 0.1047 0.3956 0.7957
C28 C 0.2107(4) 0.7105(3) 0.9162(6)
H26 H 0.1841 0.6827 0.8605
H28 H 0.2837 0.6066 0.9791
N3 N 0.2089(4) 0.4136(3) 0.8227(6)
N6 N 0.0902(4) 0.2971(3) 0.6022(5)
S5 S 0.19694(10) 0.40816(7) 0.53753(18)
S8 S 0.31337(11) 0.28311(8) 0.79100(18)
Ag2 Ag 0.20009(3) 0.35811(2) 0.69122(6)
Ag4 Ag 0.29991(3) 0.85811(2) 0.80878(6)
C6 C 0.9771(6) 0.6875(4) 0.4161(8)
H5 H 0.9808 0.6508 0.3903
C9 C 0.9689(5) 0.7921(4) 0.4953(8)
H7 H 0.9632 0.8272 0.5236
C10 C 0.9045(5) 0.7537(4) 0.4329(8)
H8 H 0.8547 0.7658 0.4159
N2 N 0.9098(4) 0.7029(3) 0.3978(5)
Ag3 Ag 0.79991(3) 0.64189(2) 0.30878(6)
C23_2 C 0.0229(6) 0.3125(4) 0.5839(8)
H22_2 H 0.0192 0.3492 0.6097
C26_2 C 0.0311(5) 0.2079(4) 0.5047(8)
H24_2 H 0.0368 0.1728 0.4764
C27_2 C 0.0955(5) 0.2463(4) 0.5671(8)
H25_2 H 0.1453 0.2342 0.5841
C1_2 C 0.7276(5) 0.5553(3) 0.1173(9)
H1_2 H 0.6890 0.5547 0.1338
C2_2 C 0.7152(4) 0.5221(3) 0.0264(8)
C3_2 C 0.7750(5) 0.5204(3) 0.0058(7)
C4_2 C 0.8419(4) 0.5520(3) 0.0757(8)
H3_2 H 0.8840 0.5517 0.0661
C5_2 C 0.8484(5) 0.5836(4) 0.1583(8)
H4_2 H 0.8953 0.6044 0.2043
C11_2 C 0.7893(4) 0.2895(3) 0.0838(6)
H9_2 H 0.8159 0.3173 0.1395
H11_2 H 0.7163 0.3934 0.0209
N1_2 N 0.7911(4) 0.5864(3) 0.1773(6)
C24_2 C 0.9549(5) 0.2778(6) 0.5276(8)
H23_2 H 0.9072 0.2903 0.5173
C25_2 C 0.9606(6) 0.2238(5) 0.4874(8)
C29_2 C 0.7667(4) 0.1908(3) 0.0199(8)
C30_2 C 0.8082(4) 0.2290(3) 0.1093(7)
C31_2 C 0.7806(3) 0.1239(2) 0.0374(6)
H27_2 H 0.8301 0.1160 0.1065
C32_2 C 0.8666(4) 0.2129(3) 0.2260(6)
H29_2 H 0.9109 0.2404 0.2596
H30_2 H 0.8869 0.1732 0.2314
C33_2 C 0.7349(4) 0.0167(3) 0.0884(7)
H31_2 H 0.7906 0.0184 0.1476
C34_2 C 0.8851(4) 0.1843(4) 0.4195(7)
H33_2 H 0.9007 0.1459 0.4071
H34_2 H 0.8612 0.1780 0.4611
S3_2 S 0.69694(10) 0.09184(7) 0.03753(18)
S4_2 S 0.80306(10) 0.59184(7) 0.46247(18)
S6_2 S 0.81337(11) 0.21689(8) 0.29100(18)
S7_2 S 0.68663(11) 0.71689(8) 0.20900(18)
Ag5_2 Ag 0.70009(3) 0.14189(2) 0.19122(6)
H2 H 0.6677 0.5018 0.9814
C6_2 C 0.4771(6) 0.1875(4) 0.4161(8)
H5_2 H 0.4808 0.1508 0.3903
C7_2 C 0.5451(5) 0.2222(6) 0.4724(8)
H6_2 H 0.5928 0.2097 0.4827
C8_2 C 0.5394(6) 0.2762(5) 0.5126(8)
C9_2 C 0.4689(5) 0.2921(4) 0.4953(8)
H7_2 H 0.4632 0.3272 0.5236
C10_2 C 0.4045(5) 0.2537(4) 0.4329(8)
H8_2 H 0.3547 0.2658 0.4159
C12_2 C 0.7333(4) 0.3092(3) 0.9801(8)
C13_2 C 0.6918(4) 0.2710(3) 0.8907(7)
C14_2 C 0.7194(3) 0.3761(2) 0.9626(6)
H10_2 H 0.6699 0.3840 0.8935
C15_2 C 0.6334(4) 0.2871(3) 0.7740(6)
H12_2 H 0.5891 0.2596 0.7404
H13_2 H 0.6131 0.3268 0.7686
C16_2 C 0.7651(4) 0.4833(3) 0.9116(7)
H14_2 H 0.7094 0.4816 0.8524
H15 H 0.7945 0.5013 0.8838
C17_2 C 0.6149(4) 0.3157(4) 0.5805(7)
H16_2 H 0.5993 0.3541 0.5929
H17_2 H 0.6388 0.3220 0.5389
S1_2 S 0.80306(10) 0.40816(7) 0.96247(18)
S2_2 S 0.68663(11) 0.28311(8) 0.70900(18)
C28_2 C 0.7107(4) 0.2105(3) 0.9162(6)
H26_2 H 0.6841 0.1827 0.8605
H28_2 H 0.7837 0.1066 0.9791
Ag4_2 Ag 0.79991(3) 0.35811(2) 0.80878(6)
C18_2 C 0.7724(5) 0.9447(3) 0.8827(9)
H18_2 H 0.8110 0.9453 0.8662
C19_2 C 0.7848(4) 0.9779(3) 0.9736(8)
C20_2 C 0.7250(5) 0.9796(3) 0.9942(7)
C21_2 C 0.6581(4) 0.9480(3) 0.9243(8)
H20_2 H 0.6160 0.9483 0.9339
C22_2 C 0.6516(5) 0.9164(4) 0.8417(8)
H21_2 H 0.6047 0.8956 0.7957
N3_2 N 0.7089(4) 0.9136(3) 0.8227(6)
S5_2 S 0.69694(10) 0.90816(7) 0.53753(18)
S8_2 S 0.81337(11) 0.78311(8) 0.79100(18)
C6_3 C 0.0229(6) 0.6875(4) 0.0839(8)
H5_3 H 0.0192 0.6508 0.1097
C9_3 C 0.0311(5) 0.7921(4) 0.0047(8)
C10_3 C 0.0955(5) 0.7537(4) 0.0671(8)
H8_3 H 0.1453 0.7658 0.0841
N2_2 N 0.0902(4) 0.7029(3) 0.1022(5)
C1_3 C 0.7724(5) 0.0553(3) 0.3827(9)
H1_3 H 0.8110 0.0547 0.3662
C2_3 C 0.7848(4) 0.0221(3) 0.4736(8)
H2_2 H 0.8323 0.0018 0.5186
C3_3 C 0.7250(5) 0.0204(3) 0.4942(7)
C4_3 C 0.6581(4) 0.0520(3) 0.4243(8)
H3_3 H 0.6160 0.0517 0.4339
C5_3 C 0.6516(5) 0.0836(4) 0.3417(8)
H4_3 H 0.6047 0.1044 0.2957
H15_2 H 0.7055 0.0013 0.6162
N1_3 N 0.7089(4) 0.0864(3) 0.3227(6)
N5_2 N 0.5902(4) 0.2029(3) 0.1022(5)
C8_3 C 0.9606(6) 0.7762(5) 0.9874(8)
C11_3 C 0.7107(4) 0.7895(3) 0.4162(6)
H9_3 H 0.6841 0.8173 0.3605
C12_3 C 0.7667(4) 0.8092(3) 0.5199(8)
C13_3 C 0.8082(4) 0.7710(3) 0.6093(7)
C14_3 C 0.7806(3) 0.8761(2) 0.5374(6)
H10_3 H 0.8301 0.8840 0.6065
H11_3 H 0.7837 0.8934 0.4791
C15_3 C 0.8666(4) 0.7871(3) 0.7260(6)
H12_3 H 0.9109 0.7596 0.7596
H13_3 H 0.8869 0.8268 0.7314
C16_3 C 0.7349(4) 0.9833(3) 0.5884(7)
H14_3 H 0.7906 0.9816 0.6476
C17_3 C 0.8851(4) 0.8157(4) 0.9195(7)
H16_3 H 0.9007 0.8541 0.9071
H17_3 H 0.8612 0.8220 0.9611
C18_3 C 0.7276(5) 0.4447(3) 0.6173(9)
H18_3 H 0.6890 0.4453 0.6338
C19_3 C 0.7152(4) 0.4779(3) 0.5264(8)
H19_2 H 0.6677 0.4982 0.4814
C20_3 C 0.7750(5) 0.4796(3) 0.5058(7)
C21_3 C 0.8419(4) 0.4480(3) 0.5757(8)
H20_3 H 0.8840 0.4483 0.5661
C22_3 C 0.8484(5) 0.4164(4) 0.6583(8)
H21_3 H 0.8953 0.3956 0.7043
C25_3 C 0.5394(6) 0.7238(5) 0.0126(8)
H24_3 H 0.4632 0.6728 0.0236
C28_3 C 0.7893(4) 0.7105(3) 0.5838(6)
H26_3 H 0.8159 0.6827 0.6395
C29_3 C 0.7333(4) 0.6908(3) 0.4801(8)
C30_3 C 0.6918(4) 0.7290(3) 0.3907(7)
C31_3 C 0.7194(3) 0.6239(2) 0.4626(6)
H27_3 H 0.6699 0.6160 0.3935
H28_3 H 0.7163 0.6066 0.5209
C32_3 C 0.6334(4) 0.7129(3) 0.2740(6)
H29_3 H 0.5891 0.7404 0.2404
H30_3 H 0.6131 0.6732 0.2686
C33_3 C 0.7651(4) 0.5167(3) 0.4116(7)
H31_3 H 0.7094 0.5184 0.3524
H32_2 H 0.7945 0.4987 0.3838
C34_3 C 0.6149(4) 0.6843(4) 0.0805(7)
H33_3 H 0.5993 0.6459 0.0929
H34_3 H 0.6388 0.6780 0.0389
N3_3 N 0.7911(4) 0.4136(3) 0.6773(6)
N6_2 N 0.9098(4) 0.2971(3) 0.8978(5)
C23_3 C 0.4771(6) 0.8125(4) 0.9161(8)
H22_3 H 0.4808 0.8492 0.8903
C24_3 C 0.5451(5) 0.7778(6) 0.9724(8)
H23_3 H 0.5928 0.7903 0.9827
C26_3 C 0.4689(5) 0.7079(4) 0.9953(8)
C27_3 C 0.4045(5) 0.7463(4) 0.9329(8)
H25_3 H 0.3547 0.7342 0.9159
N4_2 N 0.4098(4) 0.7971(3) 0.8978(5)
C6_4 C 0.5229(6) 0.1875(4) 0.0839(8)
H5_4 H 0.5192 0.1508 0.1097
C7_3 C 0.4549(5) 0.2222(6) 0.0276(8)
H6_3 H 0.4072 0.2097 0.0173
C9_4 C 0.5311(5) 0.2921(4) 0.0047(8)
C10_4 C 0.5955(5) 0.2537(4) 0.0671(8)
H8_4 H 0.6453 0.2658 0.0841
C1_4 C 0.2724(5) 0.5553(3) 0.3827(9)
H1_4 H 0.3110 0.5547 0.3662
C2_4 C 0.2848(4) 0.5221(3) 0.4736(8)
H2_3 H 0.3323 0.5018 0.5186
C3_4 C 0.2250(5) 0.5204(3) 0.4942(7)
C4_4 C 0.1581(4) 0.5520(3) 0.4243(8)
H3_4 H 0.1160 0.5517 0.4339
C5_4 C 0.1516(5) 0.5836(4) 0.3417(8)
H4_4 H 0.1047 0.6044 0.2957
C8_4 C 0.4606(6) 0.2762(5) 0.9874(8)
H7_3 H 0.5368 0.3272 0.9764
C11_4 C 0.2107(4) 0.2895(3) 0.4162(6)
H9_4 H 0.1841 0.3173 0.3605
C12_4 C 0.2667(4) 0.3092(3) 0.5199(8)
C13_4 C 0.3082(4) 0.2710(3) 0.6093(7)
C14_4 C 0.2806(3) 0.3761(2) 0.5374(6)
H10_4 H 0.3301 0.3840 0.6065
H11_4 H 0.2837 0.3934 0.4791
C15_4 C 0.3666(4) 0.2871(3) 0.7260(6)
H12_4 H 0.4109 0.2596 0.7596
H13_4 H 0.3869 0.3268 0.7314
C16_4 C 0.2349(4) 0.4833(3) 0.5884(7)
H14_4 H 0.2906 0.4816 0.6476
H15_3 H 0.2055 0.5013 0.6162
C17_4 C 0.3851(4) 0.3157(4) 0.9195(7)
H16_4 H 0.4007 0.3541 0.9071
H17_4 H 0.3612 0.3220 0.9611
N1_4 N 0.2089(4) 0.5864(3) 0.3227(6)
C25_4 C 0.0394(6) 0.2238(5) 0.0126(8)
C28_4 C 0.2893(4) 0.2105(3) 0.5838(6)
H26_4 H 0.3159 0.1827 0.6395
C29_4 C 0.2333(4) 0.1908(3) 0.4801(8)
C30_4 C 0.1918(4) 0.2290(3) 0.3907(7)
C31_4 C 0.2194(3) 0.1239(2) 0.4626(6)
H27_4 H 0.1699 0.1160 0.3935
H28_4 H 0.2163 0.1066 0.5209
C32_4 C 0.1334(4) 0.2129(3) 0.2740(6)
H29_4 H 0.0891 0.2404 0.2404
H30_4 H 0.1131 0.1732 0.2686
C33_4 C 0.2651(4) 0.0167(3) 0.4116(7)
H31_4 H 0.2094 0.0184 0.3524
C34_4 C 0.1149(4) 0.1843(4) 0.0805(7)
H33_4 H 0.0993 0.1459 0.0929
H34_4 H 0.1388 0.1780 0.0389
C18_4 C 0.2276(5) 0.9447(3) 0.6173(9)
H18_4 H 0.1890 0.9453 0.6338
C19_4 C 0.2152(4) 0.9779(3) 0.5264(8)
H19_3 H 0.1677 0.9982 0.4814
C20_4 C 0.2750(5) 0.9796(3) 0.5058(7)
C21_4 C 0.3419(4) 0.9480(3) 0.5757(8)
H20_4 H 0.3840 0.9483 0.5661
C22_4 C 0.3484(5) 0.9164(4) 0.6583(8)
H21_4 H 0.3953 0.8956 0.7043
H32_3 H 0.2945 0.9987 0.3838
N3_4 N 0.2911(4) 0.9136(3) 0.6773(6)
C23_4 C 0.9771(6) 0.3125(4) 0.9161(8)
H22_4 H 0.9808 0.3492 0.8903
C26_4 C 0.9689(5) 0.2079(4) 0.9953(8)
C27_4 C 0.9045(5) 0.2463(4) 0.9329(8)
H25_4 H 0.8547 0.2342 0.9159
H2_4 H 0.1677 0.0018 0.9814
H15_4 H 0.2945 0.0013 0.8838
H19_4 H 0.8323 0.9982 0.0186
H32_4 H 0.7055 0.9987 0.1162
H7_4 H 0.0368 0.8272 0.9764
C7_4 C 0.9549(5) 0.7222(6) 0.0276(8)
H6_4 H 0.9072 0.7097 0.0173
C24_4 C 0.0451(5) 0.2778(6) 0.9724(8)
H23_4 H 0.0928 0.2903 0.9827
H24_4 H 0.9632 0.1728 0.0236
loop_
_geom_bond_atom_site_label_1
_geom_bond_atom_site_label_2
_geom_bond_site_symmetry_1
_geom_bond_site_symmetry_2
C1 H1 1_555 1_555
C2 C1 1_555 1_555
C3 C2 1_555 1_555
C4 C3 1_555 1_555
H3 C4 1_555 1_555
C5 C4 1_555 1_555
H4 C5 1_555 1_555
N1 C1 1_555 1_555
Ag1 N1 1_555 1_555
N5 Ag1 1_555 1_555
S4 Ag1 1_555 1_555
S7 Ag1 1_555 1_555
C5 N1 1_555 1_555
C11 H9 1_555 1_555
C23 H22 1_555 1_555
C24 C23 1_555 1_555
H23 C24 1_555 1_555
C25 C24 1_555 1_555
C26 C25 1_555 1_555
H24 C26 1_555 1_555
C27 C26 1_555 1_555
H25 C27 1_555 1_555
C30 C11 1_555 1_555
C31 C29 1_555 1_555
H27 C31 1_555 1_555
C32 C30 1_555 1_555
H29 C32 1_555 1_555
H30 C32 1_555 1_555
H31 C33 1_555 1_555
H32 C33 1_555 1_555
C34 C25 1_555 1_555
H33 C34 1_555 1_555
H34 C34 1_555 1_555
N4 C23 1_555 1_555
S3 C31 1_555 1_555
S6 C32 1_555 1_555
Ag5 S3 1_555 1_555
Ag6 N4 1_555 1_555
C27 N4 1_555 1_555
C29 C30 1_555 1_555
C33 S3 1_555 1_555
C34 S6 1_555 1_555
S6 Ag5 1_555 1_555
H6 C7 1_555 1_555
C8 C7 1_555 1_555
C13 C12 1_555 1_555
C14 C12 1_555 1_555
H10 C14 1_555 1_555
C15 C13 1_555 1_555
H12 C15 1_555 1_555
H13 C15 1_555 1_555
H14 C16 1_555 1_555
C17 C8 1_555 1_555
H16 C17 1_555 1_555
H17 C17 1_555 1_555
S1 C14 1_555 1_555
S2 C15 1_555 1_555
C18 H18 1_555 1_555
C19 C18 1_555 1_555
C20 C19 1_555 1_555
C21 C20 1_555 1_555
H20 C21 1_555 1_555
C22 C21 1_555 1_555
H21 C22 1_555 1_555
C28 C13 1_555 1_555
H26 C28 1_555 1_555
N3 C18 1_555 1_555
N6 Ag2 1_555 1_555
S5 Ag2 1_555 1_555
S8 Ag2 1_555 1_555
Ag2 N3 1_555 1_555
Ag4 S1 1_555 1_555
C16 S1 1_555 1_555
C17 S2 1_555 1_555
S2 Ag4 1_555 1_555
C22 N3 1_555 1_555
C6 H5 1_555 1_555
H7 C9 1_555 1_555
C10 C9 1_555 1_555
H8 C10 1_555 1_555
N2 C6 1_555 1_555
Ag3 N2 1_555 1_555
C10 N2 1_555 1_555
C23_2 H22_2 1_555 1_555
H24_2 C26_2 1_555 1_555
C27_2 C26_2 1_555 1_555
H25_2 C27_2 1_555 1_555
N6 C23_2 1_555 1_555
C27_2 N6 1_555 1_555
C1_2 H1_2 1_555 1_555
C2_2 C1_2 1_555 1_555
C3_2 C2_2 1_555 1_555
C4_2 C3_2 1_555 1_555
H3_2 C4_2 1_555 1_555
C5_2 C4_2 1_555 1_555
H4_2 C5_2 1_555 1_555
C11_2 H9_2 1_555 1_555
N1_2 C1_2 1_555 1_555
Ag3 N1_2 1_555 1_555
H23_2 C24_2 1_555 1_555
C25_2 C24_2 1_555 1_555
C30_2 C11_2 1_555 1_555
C31_2 C29_2 1_555 1_555
H27_2 C31_2 1_555 1_555
C32_2 C30_2 1_555 1_555
H29_2 C32_2 1_555 1_555
H30_2 C32_2 1_555 1_555
H31_2 C33_2 1_555 1_555
C34_2 C25_2 1_555 1_555
H33_2 C34_2 1_555 1_555
H34_2 C34_2 1_555 1_555
S3_2 C31_2 1_555 1_555
S4_2 Ag3 1_555 1_555
S6_2 C32_2 1_555 1_555
S7_2 Ag3 1_555 1_555
Ag5_2 S3_2 1_555 1_555
C5_2 N1_2 1_555 1_555
C29_2 C30_2 1_555 1_555
C33_2 S3_2 1_555 1_555
C34_2 S6_2 1_555 1_555
S6_2 Ag5_2 1_555 1_555
C6_2 H5_2 1_555 1_555
C7_2 C6_2 1_555 1_555
H6_2 C7_2 1_555 1_555
C8_2 C7_2 1_555 1_555
C9_2 C8_2 1_555 1_555
H7_2 C9_2 1_555 1_555
C10_2 C9_2 1_555 1_555
H8_2 C10_2 1_555 1_555
C13_2 C12_2 1_555 1_555
C14_2 C12_2 1_555 1_555
H10_2 C14_2 1_555 1_555
C15_2 C13_2 1_555 1_555
H12_2 C15_2 1_555 1_555
H13_2 C15_2 1_555 1_555
H14_2 C16_2 1_555 1_555
H15 C16_2 1_555 1_555
C17_2 C8_2 1_555 1_555
H16_2 C17_2 1_555 1_555
H17_2 C17_2 1_555 1_555
N5 C6_2 1_555 1_555
S1_2 C14_2 1_555 1_555
S2_2 C15_2 1_555 1_555
C28_2 C13_2 1_555 1_555
H26_2 C28_2 1_555 1_555
Ag4_2 S1_2 1_555 1_555
C10_2 N5 1_555 1_555
C16_2 S1_2 1_555 1_555
C17_2 S2_2 1_555 1_555
S2_2 Ag4_2 1_555 1_555
C18_2 H18_2 1_555 1_555
C19_2 C18_2 1_555 1_555
C20_2 C19_2 1_555 1_555
C21_2 C20_2 1_555 1_555
H20_2 C21_2 1_555 1_555
C22_2 C21_2 1_555 1_555
H21_2 C22_2 1_555 1_555
N3_2 C18_2 1_555 1_555
S5_2 Ag6 1_555 1_555
S8_2 Ag6 1_555 1_555
Ag6 N3_2 1_555 1_555
C22_2 N3_2 1_555 1_555
C6_3 H5_3 1_555 1_555
C10_3 C9_3 1_555 1_555
H8_3 C10_3 1_555 1_555
N2_2 C6_3 1_555 1_555
Ag5 N2_2 1_555 1_555
C10_3 N2_2 1_555 1_555
C1_3 H1_3 1_555 1_555
C2_3 C1_3 1_555 1_555
H2_2 C2_3 1_555 1_555
C3_3 C2_3 1_555 1_555
C4_3 C3_3 1_555 1_555
H3_3 C4_3 1_555 1_555
C5_3 C4_3 1_555 1_555
H4_3 C5_3 1_555 1_555
N1_3 C1_3 1_555 1_555
Ag5_2 N1_3 1_555 1_555
N5_2 Ag5_2 1_555 1_555
C5_3 N1_3 1_555 1_555
C11_3 H9_3 1_555 1_555
C12_3 C11_3 1_555 1_555
C13_3 C12_3 1_555 1_555
C14_3 C12_3 1_555 1_555
H10_3 C14_3 1_555 1_555
H11_3 C14_3 1_555 1_555
C15_3 C13_3 1_555 1_555
H12_3 C15_3 1_555 1_555
H13_3 C15_3 1_555 1_555
H14_3 C16_3 1_555 1_555
C17_3 C8_3 1_555 1_555
H16_3 C17_3 1_555 1_555
H17_3 C17_3 1_555 1_555
S5_2 C14_3 1_555 1_555
S8_2 C15_3 1_555 1_555
C18_3 H18_3 1_555 1_555
C19_3 C18_3 1_555 1_555
H19_2 C19_3 1_555 1_555
C20_3 C19_3 1_555 1_555
C21_3 C20_3 1_555 1_555
H20_3 C21_3 1_555 1_555
C22_3 C21_3 1_555 1_555
H21_3 C22_3 1_555 1_555
C28_3 C13_3 1_555 1_555
H26_3 C28_3 1_555 1_555
C29_3 C28_3 1_555 1_555
C30_3 C11_3 1_555 1_555
C31_3 C29_3 1_555 1_555
H27_3 C31_3 1_555 1_555
H28_3 C31_3 1_555 1_555
C32_3 C30_3 1_555 1_555
H29_3 C32_3 1_555 1_555
H30_3 C32_3 1_555 1_555
C33_3 C20_3 1_555 1_555
H31_3 C33_3 1_555 1_555
H32_2 C33_3 1_555 1_555
C34_3 C25_3 1_555 1_555
H33_3 C34_3 1_555 1_555
H34_3 C34_3 1_555 1_555
N3_3 C18_3 1_555 1_555
N6_2 Ag4_2 1_555 1_555
S4_2 C31_3 1_555 1_555
S7_2 C32_3 1_555 1_555
Ag4_2 N3_3 1_555 1_555
C16_3 S5_2 1_555 1_555
C17_3 S8_2 1_555 1_555
C22_3 N3_3 1_555 1_555
C29_3 C30_3 1_555 1_555
C33_3 S4_2 1_555 1_555
C34_3 S7_2 1_555 1_555
C23_3 H22_3 1_555 1_555
C24_3 C23_3 1_555 1_555
H23_3 C24_3 1_555 1_555
C27_3 C26_3 1_555 1_555
H25_3 C27_3 1_555 1_555
N4_2 C23_3 1_555 1_555
Ag4 N4_2 1_555 1_555
C27_3 N4_2 1_555 1_555
C6_4 H5_4 1_555 1_555
C7_3 C6_4 1_555 1_555
H6_3 C7_3 1_555 1_555
C10_4 C9_4 1_555 1_555
H8_4 C10_4 1_555 1_555
N5_2 C6_4 1_555 1_555
C10_4 N5_2 1_555 1_555
C1_4 H1_4 1_555 1_555
C2_4 C1_4 1_555 1_555
H2_3 C2_4 1_555 1_555
C3_4 C2_4 1_555 1_555
C4_4 C3_4 1_555 1_555
H3_4 C4_4 1_555 1_555
C5_4 C4_4 1_555 1_555
H4_4 C5_4 1_555 1_555
C11_4 H9_4 1_555 1_555
C12_4 C11_4 1_555 1_555
C13_4 C12_4 1_555 1_555
C14_4 C12_4 1_555 1_555
H10_4 C14_4 1_555 1_555
H11_4 C14_4 1_555 1_555
C15_4 C13_4 1_555 1_555
H12_4 C15_4 1_555 1_555
H13_4 C15_4 1_555 1_555
C16_4 C3_4 1_555 1_555
H14_4 C16_4 1_555 1_555
H15_3 C16_4 1_555 1_555
C17_4 C8_4 1_555 1_555
H16_4 C17_4 1_555 1_555
H17_4 C17_4 1_555 1_555
N1_4 C1_4 1_555 1_555
S5 C14_4 1_555 1_555
S8 C15_4 1_555 1_555
Ag5 N1_4 1_555 1_555
C28_4 C13_4 1_555 1_555
H26_4 C28_4 1_555 1_555
C29_4 C28_4 1_555 1_555
C30_4 C11_4 1_555 1_555
C31_4 C29_4 1_555 1_555
H27_4 C31_4 1_555 1_555
H28_4 C31_4 1_555 1_555
C32_4 C30_4 1_555 1_555
H29_4 C32_4 1_555 1_555
H30_4 C32_4 1_555 1_555
H31_4 C33_4 1_555 1_555
C34_4 C25_4 1_555 1_555
H33_4 C34_4 1_555 1_555
H34_4 C34_4 1_555 1_555
S4 C31_4 1_555 1_555
S7 C32_4 1_555 1_555
C5_4 N1_4 1_555 1_555
C16_4 S5 1_555 1_555
C17_4 S8 1_555 1_555
C29_4 C30_4 1_555 1_555
C33_4 S4 1_555 1_555
C34_4 S7 1_555 1_555
C18_4 H18_4 1_555 1_555
C19_4 C18_4 1_555 1_555
H19_3 C19_4 1_555 1_555
C20_4 C19_4 1_555 1_555
C21_4 C20_4 1_555 1_555
H20_4 C21_4 1_555 1_555
C22_4 C21_4 1_555 1_555
H21_4 C22_4 1_555 1_555
N3_4 C18_4 1_555 1_555
Ag4 N3_4 1_555 1_555
C22_4 N3_4 1_555 1_555
C23_4 H22_4 1_555 1_555
C27_4 C26_4 1_555 1_555
H25_4 C27_4 1_555 1_555
N6_2 C23_4 1_555 1_555
C27_4 N6_2 1_555 1_555
H6_4 C7_4 1_555 1_555
H23_4 C24_4 1_555 1_555

#END
