
###############################################################################
#
# This file contains modified crystal structure data generated from the
# MOF subset of the Cambridge Structural Database (CSD) v543 
# hosted by the Cambridge Crystallographic Data Centre (CCDC).
#
# This work is licensed under the Creative Commons
# Attribution-NonCommercial-ShareAlike 4.0 International License.
# To view a copy of this license, visit
# http://creativecommons.org/licenses/by-nc-sa/4.0/
# or send a letter to
# Creative Commons, PO Box 1866, Mountain View, CA 94042, USA.
#
# CIF created using the CSD Python API on 29 September 2022
# The structure has been converted into the P1 space group
# The structure has a 3D framework
# The original CSD entry KIBYAW is in the monoclinic crystal system
# The framework has been calculated to contain at least 10.0% void space
# The void calculation uses a probe of radius 1.32A, grid spacing 0.4
# The framework is charged, counterions have been retained in the structure
#
###############################################################################

data_KIBYAW
_chemical_formula_moiety         '(C68 H68 Ag2 F24 N8 P4 S8 2-)n'
_symmetry_cell_setting           triclinic
_symmetry_space_group_name_H-M   'P 1'
_symmetry_Int_Tables_number      1
_space_group_name_Hall           'P 1'
loop_
_symmetry_equiv_pos_site_id
_symmetry_equiv_pos_as_xyz
1 x,y,z
_cell_length_a                   14.044(3)
_cell_length_b                   16.321(3)
_cell_length_c                   13.627(3)
_cell_angle_alpha                90
_cell_angle_beta                 115.186(2)
_cell_angle_gamma                90
_cell_volume                     2826.53
loop_
_atom_site_label
_atom_site_type_symbol
_atom_site_fract_x
_atom_site_fract_y
_atom_site_fract_z
C14 C 0.0351(3) 0.5177(2) 0.2085(3)
H14 H 0.0373 0.5581 0.2576
C16 C 0.0356(3) 0.4024(2) 0.0666(3)
H16 H 0.0351 0.3630 0.0170
C17 C 0.1224(3) 0.5023(2) 0.1897(3)
H17 H 0.1828 0.5332 0.2269
N2 N 0.1243(2) 0.44493(16) 0.1205(2)
Ag3 Ag 0.271027(19) 0.430723(16) 0.09012(2)
C9 C 0.5861(2) 0.54818(17) 0.0682(2)
C11 C 0.6802(2) 0.59600(19) 0.1455(3)
H10 H 0.6994 0.5761 0.2185
H11 H 0.6603 0.6531 0.1434
C12 C 0.8464(2) 0.4887(2) 0.1720(3)
H12 H 0.8637 0.4874 0.2489
H13 H 0.7938 0.4469 0.1361
C13 C 0.9438(2) 0.47272(19) 0.1539(3)
C15 C 0.9448(2) 0.41400(19) 0.0808(3)
H15 H 0.8852 0.3828 0.0419
S2 S 0.79560(6) 0.58941(5) 0.11605(6)
C18 C 0.5670(3) 0.0472(2) 0.2215(3)
H18 H 0.5716 0.0019 0.1823
C19 C 0.4900(3) 0.1051(2) 0.1685(3)
H19 H 0.4451 0.0987 0.0954
C20 C 0.4805(2) 0.1724(2) 0.2251(3)
C21 C 0.5526(3) 0.1793(2) 0.3328(3)
H20 H 0.5504 0.2242 0.3737
C22 C 0.6275(3) 0.1191(2) 0.3789(3)
H21 H 0.6754 0.1252 0.4510
C23 C 0.3918(3) 0.2329(2) 0.1730(3)
H22 H 0.3497 0.2160 0.0987
H23 H 0.3470 0.2308 0.2109
C24 C 0.4816(2) 0.33338(18) 0.0674(3)
H24 H 0.4342 0.3007 0.0068
H25 H 0.5505 0.3078 0.0963
C25 C 0.4884(2) 0.41929(18) 0.0298(3)
C27 C 0.5721(2) 0.46843(18) 0.0959(2)
H26 H 0.6208 0.4471 0.1613
N3 N 0.6351(2) 0.05267(17) 0.3259(2)
S3 S 0.43315(6) 0.33815(5) 0.17243(7)
N6 N 0.8757(2) 0.94493(16) 0.3795(2)
S5 S 0.56685(6) 0.83815(5) 0.32757(7)
S8 S 0.79560(6) 0.91059(5) 0.61605(6)
Ag2 Ag 0.728973(19) 0.930723(16) 0.40988(2)
C12_2 C 0.1536(2) 0.9887(2) 0.3280(3)
H12_2 H 0.1363 0.9874 0.2511
H13_2 H 0.2062 0.9469 0.3639
C13_2 C 0.0562(2) 0.97272(19) 0.3461(3)
C15_2 C 0.0552(2) 0.91400(19) 0.4192(3)
H15_2 H 0.1148 0.8828 0.4581
C18_2 C 0.4330(3) 0.5472(2) 0.2785(3)
H18_2 H 0.4284 0.5019 0.3177
C19_2 C 0.5100(3) 0.6051(2) 0.3315(3)
H19_2 H 0.5549 0.5987 0.4046
C20_2 C 0.5195(2) 0.6724(2) 0.2749(3)
C21_2 C 0.4474(3) 0.6793(2) 0.1672(3)
H20_2 H 0.4496 0.7242 0.1263
C22_2 C 0.3725(3) 0.6191(2) 0.1211(3)
H21_2 H 0.3246 0.6252 0.0490
C23_2 C 0.6082(3) 0.7329(2) 0.3270(3)
H22_2 H 0.6503 0.7160 0.4013
H23_2 H 0.6530 0.7308 0.2891
C24_2 C 0.5184(2) 0.83338(18) 0.4326(3)
H24_2 H 0.5658 0.8007 0.4932
H25_2 H 0.4495 0.8078 0.4037
C25_2 C 0.5116(2) 0.91929(18) 0.4702(3)
C26 C 0.5861(2) 0.95182(17) 0.5682(2)
C27_2 C 0.4279(2) 0.96843(18) 0.4041(2)
H26_2 H 0.3792 0.9471 0.3387
C28 C 0.6802(2) 0.90400(19) 0.6455(3)
H27 H 0.6994 0.9239 0.7185
H28 H 0.6603 0.8469 0.6434
N3_2 N 0.3649(2) 0.55267(17) 0.1741(2)
C16_2 C 0.9644(3) 0.9024(2) 0.4334(3)
H16_2 H 0.9649 0.8630 0.4830
Ag1 Ag 0.271027(19) 0.069277(16) 0.59012(2)
N5 N 0.1243(2) 0.05507(16) 0.6205(2)
S4 S 0.43315(6) 0.16185(5) 0.67243(7)
S7 S 0.20440(6) 0.08941(5) 0.38395(6)
C1 C 0.4330(3) 0.9528(2) 0.7785(3)
H1 H 0.4284 0.9981 0.8177
C2 C 0.5100(3) 0.8949(2) 0.8315(3)
H2 H 0.5549 0.9013 0.9046
C3 C 0.5195(2) 0.8276(2) 0.7749(3)
C4 C 0.4474(3) 0.8207(2) 0.6672(3)
H3 H 0.4496 0.7758 0.6263
C5 C 0.3725(3) 0.8809(2) 0.6211(3)
H4 H 0.3246 0.8748 0.5490
C6 C 0.6082(3) 0.7671(2) 0.8270(3)
H5 H 0.6503 0.7840 0.9013
H6 H 0.6530 0.7692 0.7891
C7 C 0.5184(2) 0.66662(18) 0.9326(3)
H7 H 0.5658 0.6993 0.9932
H8 H 0.4495 0.6922 0.9037
C8 C 0.5116(2) 0.58071(18) 0.9702(3)
C10 C 0.4279(2) 0.53157(18) 0.9041(2)
H9 H 0.3792 0.5529 0.8387
N1 N 0.3649(2) 0.94733(17) 0.6741(2)
S1 S 0.56685(6) 0.66185(5) 0.82757(7)
C26_2 C 0.4139(2) 0.45182(17) 0.9318(2)
C28_2 C 0.3198(2) 0.40400(19) 0.8545(3)
H27_2 H 0.3006 0.4239 0.7815
H28_2 H 0.3397 0.3469 0.8566
C29 C 0.1536(2) 0.5113(2) 0.8280(3)
H29 H 0.1363 0.5126 0.7511
H30 H 0.2062 0.5531 0.8639
C30 C 0.0562(2) 0.52728(19) 0.8461(3)
C32 C 0.0552(2) 0.58600(19) 0.9192(3)
H32 H 0.1148 0.6172 0.9581
S6 S 0.20440(6) 0.41059(5) 0.88395(6)
Ag4 Ag 0.728973(19) 0.569277(16) 0.90988(2)
C31 C 0.9649(3) 0.4823(2) 0.7915(3)
H31 H 0.9627 0.4419 0.7424
C33 C 0.9644(3) 0.5976(2) 0.9334(3)
H33 H 0.9649 0.6370 0.9830
C34 C 0.8776(3) 0.4977(2) 0.8103(3)
H34 H 0.8172 0.4668 0.7731
N4 N 0.8757(2) 0.55507(16) 0.8795(2)
C33_2 C 0.0356(3) 0.0976(2) 0.5666(3)
H33_2 H 0.0351 0.1370 0.5170
C1_2 C 0.5670(3) 0.4528(2) 0.7215(3)
H1_2 H 0.5716 0.4981 0.6823
C2_2 C 0.4900(3) 0.3949(2) 0.6685(3)
H2_2 H 0.4451 0.4013 0.5954
C3_2 C 0.4805(2) 0.3276(2) 0.7251(3)
C4_2 C 0.5526(3) 0.3207(2) 0.8328(3)
H3_2 H 0.5504 0.2758 0.8737
C5_2 C 0.6275(3) 0.3809(2) 0.8789(3)
H4_2 H 0.6754 0.3748 0.9510
C6_2 C 0.3918(3) 0.2671(2) 0.6730(3)
H5_2 H 0.3497 0.2840 0.5987
H6_2 H 0.3470 0.2692 0.7109
C7_2 C 0.4816(2) 0.16662(18) 0.5674(3)
H7_2 H 0.4342 0.1993 0.5068
H8_2 H 0.5505 0.1922 0.5963
C8_2 C 0.4884(2) 0.08071(18) 0.5298(3)
C9_2 C 0.4139(2) 0.04818(17) 0.4318(2)
C10_2 C 0.5721(2) 0.03157(18) 0.5959(2)
H9_2 H 0.6208 0.0529 0.6613
C11_2 C 0.3198(2) 0.09600(19) 0.3545(3)
H10_2 H 0.3006 0.0761 0.2815
H11_2 H 0.3397 0.1531 0.3566
N1_2 N 0.6351(2) 0.44733(17) 0.8259(2)
C29_2 C 0.8464(2) 0.0113(2) 0.6720(3)
H29_2 H 0.8637 0.0126 0.7489
H30_2 H 0.7938 0.0531 0.6361
C30_2 C 0.9438(2) 0.02728(19) 0.6539(3)
C32_2 C 0.9448(2) 0.08600(19) 0.5808(3)
H32_2 H 0.8852 0.1172 0.5419
C31_2 C 0.0351(3) 0.9823(2) 0.7085(3)
H31_2 H 0.0373 0.9419 0.7576
C34_2 C 0.1224(3) 0.9977(2) 0.6897(3)
H34_2 H 0.1828 0.9668 0.7269
C14_2 C 0.9649(3) 0.0177(2) 0.2915(3)
H14_2 H 0.9627 0.0581 0.2424
C17_2 C 0.8776(3) 0.0023(2) 0.3103(3)
H17_2 H 0.8172 0.0332 0.2731
F1 F 0.2542(3) 0.8109(3) 0.2222(3)
F2 F 0.1280(4) 0.6940(3) 0.3054(4)
F3 F 0.1372(3) 0.7112(2) 0.1456(3)
F4 F 0.0993(3) 0.8190(2) 0.2238(3)
F5 F 0.2805(3) 0.6870(2) 0.2985(3)
F6 F 0.2433(2) 0.79326(17) 0.3787(2)
P1 P 0.18886(8) 0.75178(6) 0.26109(9)
F1_2 F 0.7458(3) 0.3109(3) 0.2778(3)
F2_2 F 0.8720(4) 0.1940(3) 0.1946(4)
F3_2 F 0.8628(3) 0.2112(2) 0.3544(3)
F4_2 F 0.9007(3) 0.3190(2) 0.2762(3)
F5_2 F 0.7195(3) 0.1870(2) 0.2015(3)
F6_2 F 0.7567(2) 0.29326(17) 0.1213(2)
P1_2 P 0.81114(8) 0.25178(6) 0.23891(9)
F1_3 F 0.7458(3) 0.1891(3) 0.7778(3)
F2_3 F 0.8720(4) 0.3060(3) 0.6946(4)
F3_3 F 0.8628(3) 0.2888(2) 0.8544(3)
F4_3 F 0.9007(3) 0.1810(2) 0.7762(3)
F5_3 F 0.7195(3) 0.3130(2) 0.7015(3)
F6_3 F 0.7567(2) 0.20674(17) 0.6213(2)
P1_3 P 0.81114(8) 0.24822(6) 0.73891(9)
F1_4 F 0.2542(3) 0.6891(3) 0.7222(3)
F2_4 F 0.1280(4) 0.8060(3) 0.8054(4)
F3_4 F 0.1372(3) 0.7888(2) 0.6456(3)
F4_4 F 0.0993(3) 0.6810(2) 0.7238(3)
F5_4 F 0.2805(3) 0.8130(2) 0.7985(3)
F6_4 F 0.2433(2) 0.70674(17) 0.8787(2)
P1_4 P 0.18886(8) 0.74822(6) 0.76109(9)
loop_
_geom_bond_atom_site_label_1
_geom_bond_atom_site_label_2
_geom_bond_site_symmetry_1
_geom_bond_site_symmetry_2
H14 C14 1_555 1_555
H16 C16 1_555 1_555
C17 C14 1_555 1_555
H17 C17 1_555 1_555
N2 C16 1_555 1_555
Ag3 N2 1_555 1_555
C17 N2 1_555 1_555
C11 C9 1_555 1_555
H10 C11 1_555 1_555
H11 C11 1_555 1_555
C12 H12 1_555 1_555
H13 C12 1_555 1_555
C13 C12 1_555 1_555
C15 C13 1_555 1_555
H15 C15 1_555 1_555
S2 C11 1_555 1_555
C18 H18 1_555 1_555
C19 C18 1_555 1_555
H19 C19 1_555 1_555
C20 C19 1_555 1_555
C21 C20 1_555 1_555
H20 C21 1_555 1_555
C22 C21 1_555 1_555
H21 C22 1_555 1_555
C23 C20 1_555 1_555
H22 C23 1_555 1_555
H23 C23 1_555 1_555
C24 H24 1_555 1_555
H25 C24 1_555 1_555
C25 C24 1_555 1_555
C27 C9 1_555 1_555
H26 C27 1_555 1_555
N3 C18 1_555 1_555
S3 C23 1_555 1_555
Ag3 S3 1_555 1_555
C12 S2 1_555 1_555
C22 N3 1_555 1_555
C24 S3 1_555 1_555
C25 C27 1_555 1_555
N6 Ag2 1_555 1_555
S5 Ag2 1_555 1_555
S8 Ag2 1_555 1_555
C12_2 H12_2 1_555 1_555
H13_2 C12_2 1_555 1_555
C13_2 C12_2 1_555 1_555
C15_2 C13_2 1_555 1_555
H15_2 C15_2 1_555 1_555
C18_2 H18_2 1_555 1_555
C19_2 C18_2 1_555 1_555
H19_2 C19_2 1_555 1_555
C20_2 C19_2 1_555 1_555
C21_2 C20_2 1_555 1_555
H20_2 C21_2 1_555 1_555
C22_2 C21_2 1_555 1_555
H21_2 C22_2 1_555 1_555
C23_2 C20_2 1_555 1_555
H22_2 C23_2 1_555 1_555
H23_2 C23_2 1_555 1_555
C24_2 H24_2 1_555 1_555
H25_2 C24_2 1_555 1_555
C25_2 C24_2 1_555 1_555
H26_2 C27_2 1_555 1_555
C28 C26 1_555 1_555
H27 C28 1_555 1_555
H28 C28 1_555 1_555
N3_2 C18_2 1_555 1_555
S5 C23_2 1_555 1_555
S8 C28 1_555 1_555
Ag3 N3_2 1_555 1_555
C22_2 N3_2 1_555 1_555
C24_2 S5 1_555 1_555
C25_2 C26 1_555 1_555
C25_2 C27_2 1_555 1_555
H16_2 C16_2 1_555 1_555
N6 C16_2 1_555 1_555
N5 Ag1 1_555 1_555
S4 Ag1 1_555 1_555
S7 Ag1 1_555 1_555
C1 H1 1_555 1_555
C2 C1 1_555 1_555
H2 C2 1_555 1_555
C3 C2 1_555 1_555
C4 C3 1_555 1_555
H3 C4 1_555 1_555
C5 C4 1_555 1_555
H4 C5 1_555 1_555
C6 C3 1_555 1_555
H5 C6 1_555 1_555
H6 C6 1_555 1_555
C7 H7 1_555 1_555
H8 C7 1_555 1_555
C8 C7 1_555 1_555
C10 C8 1_555 1_555
H9 C10 1_555 1_555
N1 C1 1_555 1_555
S1 C6 1_555 1_555
C26_2 C10 1_555 1_555
C28_2 C26_2 1_555 1_555
H27_2 C28_2 1_555 1_555
H28_2 C28_2 1_555 1_555
C29 H29 1_555 1_555
H30 C29 1_555 1_555
C30 C29 1_555 1_555
C32 C30 1_555 1_555
H32 C32 1_555 1_555
S6 C28_2 1_555 1_555
Ag4 S1 1_555 1_555
C5 N1 1_555 1_555
C7 S1 1_555 1_555
C29 S6 1_555 1_555
H31 C31 1_555 1_555
H33 C33 1_555 1_555
C34 C31 1_555 1_555
H34 C34 1_555 1_555
N4 C33 1_555 1_555
Ag4 N4 1_555 1_555
C34 N4 1_555 1_555
H33_2 C33_2 1_555 1_555
N5 C33_2 1_555 1_555
C1_2 H1_2 1_555 1_555
C2_2 C1_2 1_555 1_555
H2_2 C2_2 1_555 1_555
C3_2 C2_2 1_555 1_555
C4_2 C3_2 1_555 1_555
H3_2 C4_2 1_555 1_555
C5_2 C4_2 1_555 1_555
H4_2 C5_2 1_555 1_555
C6_2 C3_2 1_555 1_555
H5_2 C6_2 1_555 1_555
H6_2 C6_2 1_555 1_555
C7_2 H7_2 1_555 1_555
H8_2 C7_2 1_555 1_555
C8_2 C7_2 1_555 1_555
C9_2 C8_2 1_555 1_555
C10_2 C8_2 1_555 1_555
H9_2 C10_2 1_555 1_555
C11_2 C9_2 1_555 1_555
H10_2 C11_2 1_555 1_555
H11_2 C11_2 1_555 1_555
N1_2 C1_2 1_555 1_555
S4 C6_2 1_555 1_555
S7 C11_2 1_555 1_555
Ag4 N1_2 1_555 1_555
C29_2 H29_2 1_555 1_555
H30_2 C29_2 1_555 1_555
C30_2 C29_2 1_555 1_555
C32_2 C30_2 1_555 1_555
H32_2 C32_2 1_555 1_555
C5_2 N1_2 1_555 1_555
C7_2 S4 1_555 1_555
H31_2 C31_2 1_555 1_555
C34_2 C31_2 1_555 1_555
H34_2 C34_2 1_555 1_555
H14_2 C14_2 1_555 1_555
C17_2 C14_2 1_555 1_555
H17_2 C17_2 1_555 1_555
F1 P1 1_555 1_555
F2 P1 1_555 1_555
F3 P1 1_555 1_555
F4 P1 1_555 1_555
F5 P1 1_555 1_555
F6 P1 1_555 1_555
F1_2 P1_2 1_555 1_555
F2_2 P1_2 1_555 1_555
F3_2 P1_2 1_555 1_555
F4_2 P1_2 1_555 1_555
F5_2 P1_2 1_555 1_555
F6_2 P1_2 1_555 1_555
F1_3 P1_3 1_555 1_555
F2_3 P1_3 1_555 1_555
F3_3 P1_3 1_555 1_555
F4_3 P1_3 1_555 1_555
F5_3 P1_3 1_555 1_555
F6_3 P1_3 1_555 1_555
F1_4 P1_4 1_555 1_555
F2_4 P1_4 1_555 1_555
F3_4 P1_4 1_555 1_555
F4_4 P1_4 1_555 1_555
F5_4 P1_4 1_555 1_555
F6_4 P1_4 1_555 1_555

#END
