
###############################################################################
#
# This file contains modified crystal structure data generated from the
# MOF subset of the Cambridge Structural Database (CSD) v543 
# hosted by the Cambridge Crystallographic Data Centre (CCDC).
#
# This work is licensed under the Creative Commons
# Attribution-NonCommercial-ShareAlike 4.0 International License.
# To view a copy of this license, visit
# http://creativecommons.org/licenses/by-nc-sa/4.0/
# or send a letter to
# Creative Commons, PO Box 1866, Mountain View, CA 94042, USA.
#
# CIF created using the CSD Python API on 29 September 2022
# The structure has been converted into the P1 space group
# The structure has a 3D framework
# The original CSD entry KICXEB is in the triclinic crystal system
# The framework has been calculated to contain at least 10.0% void space
# The void calculation uses a probe of radius 1.32A, grid spacing 0.4
# H atom positions have been added when not included in the experimental data
# Generated hydrogen atom positions removed from atoms on special positions
#
###############################################################################

data_KICXEB
_chemical_formula_moiety         '(C64 H102 Co8 N48 O126 P4 W36)n'
_symmetry_cell_setting           triclinic
_symmetry_space_group_name_H-M   'P 1'
_symmetry_Int_Tables_number      1
_space_group_name_Hall           'P 1'
loop_
_symmetry_equiv_pos_site_id
_symmetry_equiv_pos_as_xyz
1 x,y,z
_cell_length_a                   14.868(3)
_cell_length_b                   14.943(3)
_cell_length_c                   22.117(5)
_cell_angle_alpha                88.543(3)
_cell_angle_beta                 86.822(4)
_cell_angle_gamma                75.615(3)
_cell_volume                     4752.07
loop_
_atom_site_label
_atom_site_type_symbol
_atom_site_fract_x
_atom_site_fract_y
_atom_site_fract_z
Co11 Co -0.0000 0.5000 -0.0000
N8 N 0.016(2) 0.262(2) 0.3616(16)
N11 N 0.399(2) 0.206(2) 0.3856(16)
N13 N 0.466(2) 0.201(2) 0.4223(16)
N20 N 0.480(2) 0.281(2) 0.3382(16)
N22 N 0.028(2) 0.315(2) 0.4058(16)
C3 C 0.099(3) 0.360(3) 0.405(2)
H4 H 0.0818 0.4113 0.4324
H5 H 0.1051 0.3859 0.3642
C7 C 0.194(3) 0.302(3) 0.4203(19)
H10 H 0.2383 0.3398 0.4154
H11 H 0.1910 0.2841 0.4627
C8 C 0.229(3) 0.217(3) 0.3837(19)
H12 H 0.1938 0.2022 0.3537
C9 C 0.319(3) 0.158(3) 0.396(2)
H13 H 0.3316 0.1044 0.3708
H14 H 0.3183 0.1373 0.4381
C13 C 0.407(3) 0.250(3) 0.3356(19)
H21 H 0.3680 0.2568 0.3036
C14 C 0.519(3) 0.248(3) 0.3924(19)
H22 H 0.5737 0.2569 0.4057
Co11_2 Co -0.0000 0.5000 1.0000
H96 H 0.26165 0.255746 0.350586
O2 O 0.1109(15) 0.7620(16) 0.2580(11)
O56 O 0.0720(15) 0.4753(16) 0.2502(11)
N49 N 0.041(2) 0.378(2) 0.0550(16)
N53 N 0.105(2) 0.551(2) 0.0418(16)
O129 O 0.0956(15) 0.4431(16) 0.9300(11)
H23 H 0.7733 0.5186 0.0083
Co8 Co 0.5000 0.0000 -0.0000
Co11_3 Co 1.0000 0.5000 -0.0000
W2 W 0.66140(9) 0.11055(9) 0.22959(7)
W9 W 0.89567(9) 0.02639(10) 0.22919(7)
W10 W 0.76895(10) 0.06517(9) 0.36155(7)
Co1 Co 0.7777(3) 0.2512(3) 0.4797(2)
O9 O 0.8723(15) 0.0780(16) 0.3073(11)
O15 O 0.6583(15) 0.0285(16) 0.1671(11)
O25 O 0.6423(15) 0.2334(16) 0.5036(11)
O29 O 0.7872(15) 0.1171(16) 0.2068(11)
O30 O 0.9792(15) 0.0756(16) 0.2019(11)
O34 O 0.5949(15) 0.2138(16) 0.2032(11)
O35 O 0.5679(15) 0.0580(16) 0.2705(11)
O36 O 0.6758(15) 0.0097(16) 0.3916(11)
O58 O 0.3964(15) 0.0229(16) 0.2740(11)
O61 O 0.7769(15) 0.1423(16) 0.4164(11)
O63 O 0.6877(15) 0.1460(16) 0.3091(11)
N1 N 0.857(2) 0.054(2) 0.6167(16)
N2 N 0.900(2) 0.268(2) 0.4339(16)
N4 N 0.758(2) 0.360(2) 0.5409(16)
N5 N 0.615(2) 0.044(2) 0.9572(16)
N6 N 0.438(2) 0.128(2) 0.0455(16)
N7 N 0.703(2) 0.084(2) 0.8840(16)
N9 N 0.919(2) 0.012(2) 0.5741(16)
N10 N 0.764(2) 0.027(2) 0.9222(16)
N12 N 0.352(2) 0.265(2) 0.0696(16)
N14 N 0.091(2) 0.233(2) 0.0838(16)
N15 N 0.813(2) 0.420(2) 0.8899(16)
N16 N 0.757(2) 0.436(2) 0.6228(16)
N17 N 0.689(2) 0.491(2) 0.5908(16)
N18 N 0.083(2) 0.286(2) 0.1307(16)
N19 N 0.750(2) 0.468(2) 0.9269(16)
N21 N 0.384(2) 0.217(2) 0.1222(16)
N23 N 0.895(2) 0.449(2) 0.9582(16)
N24 N 0.833(2) 0.147(2) 0.5395(16)
C1 C 0.737(3) 0.472(3) 0.7916(19)
H1 H 0.7821 0.5086 0.7870
H2 H 0.6810 0.5096 0.8112
C2 C 0.618(3) 0.093(3) 0.9064(19)
H3 H 0.5651 0.1286 0.8889
C4 C 0.706(3) 0.008(3) 0.967(2)
C5 C 0.383(3) 0.208(3) 0.030(2)
C6 C 0.851(3) 0.008(3) 0.6777(19)
C10 C 0.736(3) 0.116(3) 0.8250(19)
H15 H 0.7784 0.1539 0.8316
H16 H 0.6832 0.1536 0.8043
C11 C 0.784(3) 0.035(3) 0.7858(19)
H18 H 0.8454 0.0080 0.7998
C12 C 0.791(3) 0.072(3) 0.7207(19)
H19 H 0.7287 0.0888 0.7055
H20 H 0.8126 0.1278 0.7216
C15 C 0.798(3) 0.487(3) 0.9732(19)
C16 C 0.715(3) 0.448(3) 0.7307(19)
H24 H 0.7134 0.3833 0.7310
H25 H 0.6529 0.4842 0.7222
C17 C 0.774(3) 0.392(3) 0.8314(19)
H26 H 0.8228 0.3484 0.8093
H27 H 0.7247 0.3619 0.8426
C18 C 0.779(3) 0.463(3) 0.6825(19)
H28 H 0.8411 0.4282 0.6915
H29 H 0.7789 0.5280 0.6813
C19 C 0.688(3) 0.442(3) 0.5411(19)
H30 H 0.6459 0.4604 0.5107
C20 C 0.100(3) 0.246(3) 0.1915(19)
H31 H 0.0701 0.1953 0.1980
H32 H 0.0747 0.2923 0.2218
C21 C 0.208(3) 0.209(3) 0.197(2)
H33 H 0.2205 0.1769 0.2357
H34 H 0.2337 0.1660 0.1650
C22 C 0.254(3) 0.290(3) 0.193(2)
H35 H 0.2393 0.3250 0.2302
H36 H 0.2301 0.3301 0.1598
C23 C 0.362(3) 0.256(3) 0.1838(19)
H37 H 0.3901 0.3067 0.1881
H38 H 0.3857 0.2087 0.2139
C24 C 0.795(3) 0.363(3) 0.5941(19)
H39 H 0.8426 0.3170 0.6087
C25 C 0.899(3) 0.069(3) 0.530(2)
H40 H 0.9302 0.0573 0.4919
C26 C 0.811(3) 0.134(3) 0.5983(19)
H41 H 0.7684 0.1762 0.6222
C27 C 0.083(3) 0.292(3) 0.036(2)
C28 C 0.956(3) 0.322(3) 0.4475(19)
H43 H 0.9467 0.3599 0.4813
C29 C 0.939(3) 0.231(3) 0.3816(19)
H44 H 0.9160 0.1881 0.3607
C30 C 0.044(3) 0.372(3) 0.1141(19)
H45 H 0.0215 0.4205 0.1405
C31 C 0.435(3) 0.134(3) 0.1058(19)
H46 H 0.4645 0.0882 0.1322
C32 C 0.897(3) 0.417(3) 0.9011(19)
H47 H 0.9496 0.3976 0.8753
O127 O 0.6945(15) 0.3472(16) 0.4133(11)
Co8_2 Co 0.5000 0.0000 1.0000
Co11_4 Co 1.0000 0.5000 1.0000
H7 H 0.3672 0.2199 0.9899
H42 H 0.1023 0.2757 0.9958
W19 W 0.40549(10) 0.34027(10) 0.58681(7)
W21 W 0.12694(9) 0.16183(10) 0.86851(7)
W22 W 0.39981(9) 0.32713(10) 0.86121(7)
W23 W 0.35841(9) 0.08817(9) 0.86281(6)
W24 W 0.03958(9) 0.46337(9) 0.73072(7)
W25 W 0.42404(9) 0.52438(9) 0.76398(7)
W26 W 0.19035(9) 0.60831(9) 0.77949(7)
W29 W 0.29592(9) 0.57558(9) 0.64062(7)
W30 W 0.15003(10) 0.41932(9) 0.59471(6)
W31 W 0.00582(9) 0.22090(10) 0.72748(7)
W32 W 0.52336(9) 0.28175(9) 0.71262(7)
W33 W 0.16815(9) 0.40022(10) 0.86958(6)
W34 W 0.37681(9) 0.09589(10) 0.58832(6)
W35 W 0.49141(9) 0.03884(9) 0.71674(6)
W36 W 0.12146(9) 0.17541(9) 0.59333(7)
O64 O 0.2766(15) 0.3556(16) 0.5774(11)
O66 O 0.2936(15) 0.4821(16) 0.7269(11)
O67 O 0.2365(15) 0.0200(16) 0.7260(11)
O68 O 0.1623(15) 0.2777(16) 0.8788(11)
O69 O 0.1157(15) 0.3076(16) 0.5946(11)
O70 O 0.3412(15) 0.1223(16) 0.6913(11)
O71 O 0.2176(15) 0.6491(16) 0.6973(11)
O73 O 0.4907(15) 0.4159(16) 0.7281(11)
O74 O 0.0151(15) 0.3425(16) 0.7189(11)
O75 O 0.0959(15) 0.5605(16) 0.7432(11)
O76 O 0.2837(15) 0.3792(16) 0.9062(11)
O77 O 0.3146(15) 0.6087(16) 0.7988(11)
O79 O 0.4504(15) 0.0737(16) 0.7957(11)
O80 O 0.2486(15) 0.1488(16) 0.7907(11)
O81 O 0.5148(15) 0.1595(16) 0.7025(11)
O82 O 0.1867(15) 0.5205(16) 0.8399(11)
O83 O 0.0487(15) 0.1695(16) 0.9278(11)
O84 O 0.4095(15) 0.2092(16) 0.5860(11)
O85 O 0.3659(15) 0.2092(16) 0.8712(11)
O86 O 0.5196(15) 0.3064(16) 0.6282(11)
O87 O 0.2494(15) 0.1600(16) 0.5767(11)
O89 O 0.4853(15) 0.0335(16) 0.6310(11)
O90 O 0.1465(15) 0.0488(16) 0.6116(11)
O91 O 0.2031(15) 0.5274(16) 0.6169(11)
O94 O 0.3838(15) 0.4633(16) 0.6069(11)
O95 O 0.4079(15) 0.4437(16) 0.8314(11)
O96 O 0.0817(15) 0.1724(16) 0.5239(11)
O100 O 0.5074(15) 0.5727(16) 0.7889(11)
O101 O 0.1233(15) 0.0486(16) 0.8390(11)
O102 O 0.2423(15) 0.1052(16) 0.9057(11)
O103 O 0.6409(15) 0.2608(16) 0.7194(11)
O104 O 0.4142(15) 0.0627(16) 0.5140(11)
O105 O 0.4498(15) 0.3490(16) 0.5130(11)
O106 O 0.1646(15) 0.1851(16) 0.6960(11)
O107 O 0.2776(15) 0.3497(16) 0.7922(11)
O108 O 0.1902(15) 0.3825(16) 0.6958(11)
O109 O 0.0456(15) 0.4797(16) 0.6442(11)
O110 O 0.0800(15) 0.4154(16) 0.8076(11)
O111 O 0.4787(15) 0.2767(16) 0.7935(11)
O112 O 0.4752(15) 0.3125(16) 0.9162(11)
O113 O 0.0353(15) 0.0870(16) 0.7398(11)
O114 O 0.4009(15) 0.5819(16) 0.6882(11)
O115 O 0.0511(15) 0.2210(16) 0.8086(11)
O116 O 0.0090(15) 0.2016(16) 0.6432(11)
O117 O 0.1123(15) 0.4652(16) 0.5249(11)
O118 O 0.3651(15) 0.3177(16) 0.6911(11)
O120 O 0.3055(15) 0.6528(16) 0.5867(11)
O122 O 0.4256(15) 0.0424(16) 0.9225(11)
O125 O 0.1302(15) 0.7063(16) 0.8124(11)
P3 P 0.2817(6) 0.3802(6) 0.7258(4)
H55 H 0.1724 0.0458 0.3263
H56 H 0.0868 0.0115 0.3069
H64 H 0.2514 0.0113 0.2123
P4 P 0.2482(6) 0.1238(6) 0.7255(4)
Co6 Co 0.2223(3) 0.7488(3) 0.5203(2)
H53 H 0.2729 0.0266 0.9984
H6 H 0.7271 0.9734 0.0016
Co8_3 Co 0.5000 1.0000 -0.0000
W1 W 0.59451(10) 0.65973(10) 0.41319(7)
W3 W 0.87306(9) 0.83817(10) 0.13149(7)
W4 W 0.60019(9) 0.67287(10) 0.13879(7)
W5 W 0.64159(9) 0.91183(9) 0.13719(6)
W6 W 0.96042(9) 0.53663(9) 0.26928(7)
W7 W 0.57596(9) 0.47562(9) 0.23602(7)
W8 W 0.80965(9) 0.39169(9) 0.22051(7)
W11 W 0.70408(9) 0.42442(9) 0.35938(7)
W12 W 0.84997(10) 0.58068(9) 0.40529(6)
W13 W 0.99418(9) 0.77910(10) 0.27252(7)
W14 W 0.47664(9) 0.71825(9) 0.28738(7)
W15 W 0.83185(9) 0.59978(10) 0.13042(6)
W16 W 0.62319(9) 0.90411(10) 0.41168(6)
W17 W 0.50859(9) 0.96116(9) 0.28326(6)
W18 W 0.87854(9) 0.82459(9) 0.40667(7)
O1 O 0.7234(15) 0.6444(16) 0.4226(11)
O3 O 0.7064(15) 0.5179(16) 0.2731(11)
O4 O 0.7635(15) 0.9800(16) 0.2740(11)
O5 O 0.8377(15) 0.7223(16) 0.1212(11)
O6 O 0.8843(15) 0.6924(16) 0.4054(11)
O7 O 0.6588(15) 0.8777(16) 0.3087(11)
O8 O 0.7824(15) 0.3509(16) 0.3027(11)
O10 O 0.5093(15) 0.5841(16) 0.2719(11)
O11 O 0.9849(15) 0.6575(16) 0.2811(11)
O12 O 0.9041(15) 0.4395(16) 0.2568(11)
O13 O 0.7163(15) 0.6208(16) 0.0938(11)
O14 O 0.6854(15) 0.3913(16) 0.2012(11)
O16 O 0.5496(15) 0.9263(16) 0.2043(11)
O17 O 0.7514(15) 0.8512(16) 0.2093(11)
O18 O 0.4852(15) 0.8405(16) 0.2975(11)
O19 O 0.8133(15) 0.4795(16) 0.1601(11)
O20 O 0.9513(15) 0.8305(16) 0.0722(11)
O21 O 0.5905(15) 0.7908(16) 0.4140(11)
O22 O 0.6341(15) 0.7908(16) 0.1288(11)
O23 O 0.4804(15) 0.6936(16) 0.3718(11)
O24 O 0.7506(15) 0.8400(16) 0.4233(11)
O26 O 0.5147(15) 0.9665(16) 0.3690(11)
O27 O 0.8535(15) 0.9512(16) 0.3884(11)
O28 O 0.7969(15) 0.4726(16) 0.3831(11)
O31 O 0.6162(15) 0.5367(16) 0.3931(11)
O32 O 0.5921(15) 0.5563(16) 0.1686(11)
O33 O 0.9183(15) 0.8276(16) 0.4761(11)
O37 O 0.4926(15) 0.4273(16) 0.2111(11)
O38 O 0.8767(15) 0.9514(16) 0.1610(11)
O39 O 0.7577(15) 0.8948(16) 0.0943(11)
O40 O 0.3591(15) 0.7392(16) 0.2806(11)
O41 O 0.5858(15) 0.9373(16) 0.4860(11)
O42 O 0.5502(15) 0.6510(16) 0.4870(11)
O43 O 0.8354(15) 0.8149(16) 0.3040(11)
O44 O 0.7224(15) 0.6503(16) 0.2078(11)
O45 O 0.8098(15) 0.6175(16) 0.3042(11)
O46 O 0.9544(15) 0.5203(16) 0.3558(11)
O47 O 0.9200(15) 0.5846(16) 0.1924(11)
O48 O 0.5213(15) 0.7233(16) 0.2065(11)
O49 O 0.5248(15) 0.6875(16) 0.0838(11)
O50 O 0.9647(15) 0.9130(16) 0.2602(11)
O51 O 0.5991(15) 0.4181(16) 0.3118(11)
O52 O 0.9489(15) 0.7790(16) 0.1914(11)
O53 O 0.9910(15) 0.7984(16) 0.3568(11)
O54 O 0.8877(15) 0.5348(16) 0.4751(11)
O55 O 0.6349(15) 0.6823(16) 0.3089(11)
O59 O 0.5744(15) 0.9576(16) 0.0775(11)
O60 O 0.9044(15) 0.5569(16) 0.0700(11)
O62 O 0.8698(15) 0.2937(16) 0.1876(11)
P1 P 0.7183(6) 0.6198(6) 0.2742(4)
H8 H 0.8276 0.9542 0.6737
H9 H 0.9132 0.9885 0.6931
H17 H 0.7486 0.9887 0.7877
P2 P 0.7518(6) 0.8762(6) 0.2745(4)
H54 H 0.6328 0.7801 0.0101
H89 H 0.8977 0.7243 0.0042
N51 N 0.385(2) 0.956(2) 0.0428(16)
Co8_4 Co 0.5000 1.0000 1.0000
W20 W 0.33860(9) 0.88945(9) 0.77041(7)
W27 W 0.10433(9) 0.97361(10) 0.77081(7)
W28 W 0.23105(10) 0.93483(9) 0.63845(7)
O72 O 0.1277(15) 0.9220(16) 0.6927(11)
O78 O 0.3417(15) 0.9715(16) 0.8329(11)
O88 O 0.3577(15) 0.7666(16) 0.4964(11)
O92 O 0.2128(15) 0.8829(16) 0.7932(11)
O93 O 0.0208(15) 0.9244(16) 0.7981(11)
O97 O 0.4051(15) 0.7862(16) 0.7968(11)
O98 O 0.4321(15) 0.9420(16) 0.7295(11)
O99 O 0.3242(15) 0.9903(16) 0.6084(11)
O121 O 0.6036(15) 0.9771(16) 0.7260(11)
O124 O 0.2231(15) 0.8577(16) 0.5836(11)
O126 O 0.3123(15) 0.8540(16) 0.6909(11)
N25 N 0.143(2) 0.946(2) 0.3833(16)
N26 N 0.100(2) 0.732(2) 0.5661(16)
N27 N 0.959(2) 0.622(2) 0.9450(16)
N28 N 0.242(2) 0.640(2) 0.4591(16)
N30 N 0.562(2) 0.872(2) 0.9545(16)
N31 N 0.297(2) 0.916(2) 0.1160(16)
N33 N 0.081(2) 0.988(2) 0.4259(16)
N34 N 0.236(2) 0.973(2) 0.0778(16)
N36 N 0.648(2) 0.735(2) 0.9304(16)
N38 N 0.909(2) 0.767(2) 0.9162(16)
N39 N 0.187(2) 0.580(2) 0.1101(16)
N40 N 0.243(2) 0.564(2) 0.3772(16)
N41 N 0.311(2) 0.509(2) 0.4092(16)
N42 N 0.917(2) 0.714(2) 0.8693(16)
N43 N 0.250(2) 0.532(2) 0.0731(16)
N45 N 0.616(2) 0.783(2) 0.8778(16)
N48 N 0.167(2) 0.853(2) 0.4605(16)
C33 C 0.263(3) 0.528(3) 0.2084(19)
H48 H 0.2179 0.4914 0.2130
H49 H 0.3190 0.4904 0.1888
C34 C 0.382(3) 0.907(3) 0.0936(19)
H50 H 0.4349 0.8714 0.1111
C36 C 0.294(3) 0.992(3) 0.033(2)
C37 C 0.617(3) 0.792(3) 0.970(2)
C38 C 0.149(3) 0.992(3) 0.3223(19)
C42 C 0.264(3) 0.884(3) 0.1750(19)
H62 H 0.2216 0.8461 0.1684
H63 H 0.3168 0.8464 0.1957
C43 C 0.216(3) 0.965(3) 0.2142(19)
H65 H 0.1546 0.9920 0.2002
C44 C 0.209(3) 0.928(3) 0.2793(19)
H66 H 0.2713 0.9112 0.2945
H67 H 0.1874 0.8722 0.2784
C47 C 0.202(3) 0.513(3) 0.0268(19)
C48 C 0.285(3) 0.552(3) 0.2693(19)
H71 H 0.2866 0.6167 0.2690
H72 H 0.3471 0.5158 0.2778
C49 C 0.226(3) 0.608(3) 0.1686(19)
H73 H 0.1772 0.6516 0.1907
H74 H 0.2753 0.6381 0.1574
C50 C 0.221(3) 0.537(3) 0.3175(19)
H75 H 0.1589 0.5718 0.3085
H76 H 0.2211 0.4720 0.3187
C51 C 0.312(3) 0.558(3) 0.4589(19)
H77 H 0.3541 0.5396 0.4893
C52 C 0.900(3) 0.754(3) 0.8085(19)
H78 H 0.9299 0.8047 0.8020
H79 H 0.9253 0.7077 0.7782
C53 C 0.792(3) 0.791(3) 0.803(2)
H80 H 0.7795 0.8231 0.7643
H81 H 0.7663 0.8340 0.8350
C54 C 0.746(3) 0.710(3) 0.807(2)
H82 H 0.7607 0.6750 0.7698
H83 H 0.7699 0.6699 0.8402
C55 C 0.638(3) 0.744(3) 0.8162(19)
H84 H 0.6099 0.6933 0.8119
H85 H 0.6143 0.7913 0.7861
C56 C 0.205(3) 0.637(3) 0.4059(19)
H86 H 0.1574 0.6830 0.3913
C57 C 0.101(3) 0.931(3) 0.470(2)
H87 H 0.0698 0.9427 0.5081
C58 C 0.189(3) 0.866(3) 0.4017(19)
H88 H 0.2316 0.8238 0.3778
C59 C 0.917(3) 0.708(3) 0.964(2)
C60 C 0.044(3) 0.678(3) 0.5525(19)
H90 H 0.0533 0.6401 0.5187
C61 C 0.061(3) 0.769(3) 0.6184(19)
H91 H 0.0840 0.8119 0.6393
C62 C 0.956(3) 0.628(3) 0.8859(19)
H92 H 0.9785 0.5795 0.8595
C63 C 0.565(3) 0.866(3) 0.8942(19)
H93 H 0.5355 0.9118 0.8678
C64 C 0.103(3) 0.583(3) 0.0989(19)
H94 H 0.0504 0.6024 0.1247
H70 H 0.2267 0.4814 0.9917
O65 O 0.8891(15) 0.2380(16) 0.7420(11)
O119 O 0.9280(15) 0.5247(16) 0.7498(11)
N32 N 0.984(2) 0.738(2) 0.6384(16)
N35 N 0.601(2) 0.794(2) 0.6144(16)
N37 N 0.534(2) 0.799(2) 0.5777(16)
N44 N 0.520(2) 0.719(2) 0.6618(16)
N46 N 0.972(2) 0.685(2) 0.5942(16)
C35 C 0.901(3) 0.640(3) 0.595(2)
H51 H 0.9182 0.5887 0.5676
H52 H 0.8949 0.6141 0.6358
C39 C 0.806(3) 0.698(3) 0.5797(19)
H57 H 0.7617 0.6602 0.5846
H58 H 0.8090 0.7159 0.5373
C40 C 0.771(3) 0.783(3) 0.6163(19)
H59 H 0.8062 0.7978 0.6463
C41 C 0.681(3) 0.842(3) 0.604(2)
H60 H 0.6684 0.8956 0.6292
H61 H 0.6817 0.8627 0.5619
C45 C 0.593(3) 0.750(3) 0.6644(19)
H68 H 0.6320 0.7432 0.6964
C46 C 0.481(3) 0.752(3) 0.6076(19)
H69 H 0.4263 0.7431 0.5943
H95 H 0.73835 0.744254 0.649414
loop_
_geom_bond_atom_site_label_1
_geom_bond_atom_site_label_2
_geom_bond_site_symmetry_1
_geom_bond_site_symmetry_2
N8 N22 1_555 1_555
N11 N13 1_555 1_555
N13 C14 1_555 1_555
N20 C13 1_555 1_555
N22 C3 1_555 1_555
C3 H4 1_555 1_555
H5 C3 1_555 1_555
C7 C3 1_555 1_555
H10 C7 1_555 1_555
H11 C7 1_555 1_555
C8 C7 1_555 1_555
H12 C8 1_555 1_555
C9 N11 1_555 1_555
H13 C9 1_555 1_555
H14 C9 1_555 1_555
C13 N11 1_555 1_555
H21 C13 1_555 1_555
C14 N20 1_555 1_555
H22 C14 1_555 1_555
C8 C9 1_555 1_555
C8 H96 1_555 1_555
N49 Co11 1_555 1_555
N53 Co11 1_555 1_555
O129 Co11_2 1_555 1_555
Co1 O25 1_555 1_555
O9 W9 1_555 1_555
O15 W2 1_555 1_555
O29 W2 1_555 1_555
O30 W9 1_555 1_555
O34 W2 1_555 1_555
O35 W2 1_555 1_555
O36 W10 1_555 1_555
O61 W10 1_555 1_555
O63 W2 1_555 1_555
N1 N9 1_555 1_555
N2 Co1 1_555 1_555
N49 C27 1_555 1_555
N4 Co1 1_555 1_555
N5 C2 1_555 1_555
N6 C5 1_555 1_555
N7 N10 1_555 1_555
N9 C25 1_555 1_555
N10 C4 1_555 1_555
N12 N21 1_555 1_555
N14 N18 1_555 1_555
N15 N19 1_555 1_555
N16 N17 1_555 1_555
N17 C19 1_555 1_555
N18 C20 1_555 1_555
N19 C15 1_555 1_555
N21 C23 1_555 1_555
N23 C15 1_555 1_555
N24 Co1 1_555 1_555
C1 H1 1_555 1_555
H2 C1 1_555 1_555
C2 N7 1_555 1_555
H3 C2 1_555 1_555
C4 N5 1_555 1_555
C5 N12 1_555 1_555
C6 N1 1_555 1_555
C10 N7 1_555 1_555
H15 C10 1_555 1_555
H16 C10 1_555 1_555
C11 C10 1_555 1_555
H18 C11 1_555 1_555
C12 C6 1_555 1_555
H19 C12 1_555 1_555
H20 C12 1_555 1_555
C16 C1 1_555 1_555
H24 C16 1_555 1_555
H25 C16 1_555 1_555
C17 N15 1_555 1_555
H26 C17 1_555 1_555
H27 C17 1_555 1_555
C18 N16 1_555 1_555
H28 C18 1_555 1_555
H29 C18 1_555 1_555
C19 N4 1_555 1_555
H30 C19 1_555 1_555
C20 H31 1_555 1_555
H32 C20 1_555 1_555
C21 C20 1_555 1_555
H33 C21 1_555 1_555
H34 C21 1_555 1_555
C22 C21 1_555 1_555
H35 C22 1_555 1_555
H36 C22 1_555 1_555
C23 C22 1_555 1_555
H37 C23 1_555 1_555
H38 C23 1_555 1_555
C24 N4 1_555 1_555
H39 C24 1_555 1_555
C25 N24 1_555 1_555
H40 C25 1_555 1_555
C26 N1 1_555 1_555
H41 C26 1_555 1_555
C27 N14 1_555 1_555
C28 N2 1_555 1_555
H43 C28 1_555 1_555
C29 N2 1_555 1_555
H44 C29 1_555 1_555
C30 N49 1_555 1_555
H45 C30 1_555 1_555
C31 N6 1_555 1_555
H46 C31 1_555 1_555
C32 N15 1_555 1_555
H47 C32 1_555 1_555
O127 Co1 1_555 1_555
Co8_2 N5 1_555 1_555
Co11_4 N23 1_555 1_555
W9 O29 1_555 1_555
W10 O9 1_555 1_555
W10 O63 1_555 1_555
Co1 O61 1_555 1_555
N6 Co8 1_555 1_555
N16 C24 1_555 1_555
N18 C30 1_555 1_555
N21 C31 1_555 1_555
N23 C32 1_555 1_555
N24 C26 1_555 1_555
C1 C17 1_555 1_555
C11 C12 1_555 1_555
C16 C18 1_555 1_555
W19 O64 1_555 1_555
W21 O68 1_555 1_555
W22 O76 1_555 1_555
W24 O74 1_555 1_555
W25 O66 1_555 1_555
W26 O66 1_555 1_555
W29 O66 1_555 1_555
W30 O64 1_555 1_555
W32 O73 1_555 1_555
W33 O68 1_555 1_555
W34 O70 1_555 1_555
W35 O70 1_555 1_555
W36 O69 1_555 1_555
O66 P3 1_555 1_555
O67 P4 1_555 1_555
O69 W30 1_555 1_555
O70 P4 1_555 1_555
O71 W26 1_555 1_555
O73 W25 1_555 1_555
O74 W31 1_555 1_555
O75 W24 1_555 1_555
O76 W33 1_555 1_555
O77 W25 1_555 1_555
O79 W23 1_555 1_555
O80 W21 1_555 1_555
O81 W32 1_555 1_555
O82 W26 1_555 1_555
O83 W21 1_555 1_555
O84 W19 1_555 1_555
O85 W22 1_555 1_555
O86 W19 1_555 1_555
O87 W34 1_555 1_555
O89 W34 1_555 1_555
O91 W29 1_555 1_555
O94 W19 1_555 1_555
O95 W22 1_555 1_555
O96 W36 1_555 1_555
O100 W25 1_555 1_555
O101 W21 1_555 1_555
O102 W21 1_555 1_555
O103 W32 1_555 1_555
O104 W34 1_555 1_555
O105 W19 1_555 1_555
O106 W31 1_555 1_555
O107 W22 1_555 1_555
O108 W24 1_555 1_555
O109 W24 1_555 1_555
O110 W24 1_555 1_555
O111 W22 1_555 1_555
O112 W22 1_555 1_555
O114 W25 1_555 1_555
O115 W21 1_555 1_555
O116 W31 1_555 1_555
O117 W30 1_555 1_555
O118 W19 1_555 1_555
O120 W29 1_555 1_555
O122 Co8_2 1_555 1_555
O129 W33 1_555 1_555
O125 W26 1_555 1_555
P3 O107 1_555 1_555
P4 O80 1_555 1_555
Co6 O120 1_555 1_555
W23 O80 1_555 1_555
W23 O85 1_555 1_555
W23 O102 1_555 1_555
W23 O122 1_555 1_555
W25 O95 1_555 1_555
W26 O75 1_555 1_555
W26 O77 1_555 1_555
W29 O71 1_555 1_555
W29 O94 1_555 1_555
W29 O114 1_555 1_555
W30 O91 1_555 1_555
W30 O108 1_555 1_555
W30 O109 1_555 1_555
W31 O113 1_555 1_555
W31 O115 1_555 1_555
W32 O86 1_555 1_555
W32 O111 1_555 1_555
W32 O118 1_555 1_555
W33 O82 1_555 1_555
W33 O107 1_555 1_555
W33 O110 1_555 1_555
W34 O84 1_555 1_555
W35 O79 1_555 1_555
W35 O81 1_555 1_555
W35 O89 1_555 1_555
W36 O87 1_555 1_555
W36 O90 1_555 1_555
W36 O106 1_555 1_555
W36 O116 1_555 1_555
O106 P4 1_555 1_555
O108 P3 1_555 1_555
O118 P3 1_555 1_555
W1 O1 1_555 1_555
W3 O5 1_555 1_555
W4 O13 1_555 1_555
W6 O11 1_555 1_555
W7 O3 1_555 1_555
W8 O3 1_555 1_555
W11 O3 1_555 1_555
W12 O1 1_555 1_555
W14 O10 1_555 1_555
W15 O5 1_555 1_555
W16 O7 1_555 1_555
W17 O7 1_555 1_555
W18 O6 1_555 1_555
O3 P1 1_555 1_555
O4 P2 1_555 1_555
O6 W12 1_555 1_555
O7 P2 1_555 1_555
O8 W8 1_555 1_555
O10 W7 1_555 1_555
O11 W13 1_555 1_555
O12 W6 1_555 1_555
O13 W15 1_555 1_555
O14 W7 1_555 1_555
O16 W5 1_555 1_555
O17 W3 1_555 1_555
O18 W14 1_555 1_555
O19 W8 1_555 1_555
O20 W3 1_555 1_555
O21 W1 1_555 1_555
O22 W4 1_555 1_555
O23 W1 1_555 1_555
O24 W16 1_555 1_555
O26 W16 1_555 1_555
O28 W11 1_555 1_555
O31 W1 1_555 1_555
O32 W4 1_555 1_555
O33 W18 1_555 1_555
O37 W7 1_555 1_555
O38 W3 1_555 1_555
O39 W3 1_555 1_555
O40 W14 1_555 1_555
O41 W16 1_555 1_555
O42 W1 1_555 1_555
O43 W13 1_555 1_555
O44 W4 1_555 1_555
O45 W6 1_555 1_555
O46 W6 1_555 1_555
O47 W6 1_555 1_555
O48 W4 1_555 1_555
O49 W4 1_555 1_555
O51 W7 1_555 1_555
O52 W3 1_555 1_555
O53 W13 1_555 1_555
O54 W12 1_555 1_555
O55 W1 1_555 1_555
O127 W11 1_555 1_555
O59 W5 1_555 1_555
O60 W15 1_555 1_555
O62 W8 1_555 1_555
P1 O44 1_555 1_555
Co8_3 O59 1_555 1_555
P2 O17 1_555 1_555
Co11_3 O60 1_555 1_555
N51 Co8_3 1_555 1_555
W5 O17 1_555 1_555
W5 O22 1_555 1_555
W5 O39 1_555 1_555
W7 O32 1_555 1_555
W8 O12 1_555 1_555
W8 O14 1_555 1_555
W11 O8 1_555 1_555
W11 O31 1_555 1_555
W11 O51 1_555 1_555
W12 O28 1_555 1_555
W12 O45 1_555 1_555
W12 O46 1_555 1_555
W13 O50 1_555 1_555
W13 O52 1_555 1_555
W14 O23 1_555 1_555
W14 O48 1_555 1_555
W14 O55 1_555 1_555
W15 O19 1_555 1_555
W15 O44 1_555 1_555
W15 O47 1_555 1_555
W16 O21 1_555 1_555
W17 O16 1_555 1_555
W17 O18 1_555 1_555
W17 O26 1_555 1_555
W18 O24 1_555 1_555
W18 O27 1_555 1_555
W18 O43 1_555 1_555
W18 O53 1_555 1_555
O43 P2 1_555 1_555
O45 P1 1_555 1_555
O55 P1 1_555 1_555
Co6 O88 1_555 1_555
O72 W27 1_555 1_555
O78 W20 1_555 1_555
O92 W20 1_555 1_555
O93 W27 1_555 1_555
O97 W20 1_555 1_555
O98 W20 1_555 1_555
O99 W28 1_555 1_555
O124 W28 1_555 1_555
O126 W20 1_555 1_555
N25 N33 1_555 1_555
N26 Co6 1_555 1_555
N27 Co11_4 1_555 1_555
N28 Co6 1_555 1_555
N51 C34 1_555 1_555
N30 Co8_4 1_555 1_555
N31 N34 1_555 1_555
N33 C57 1_555 1_555
N34 C36 1_555 1_555
N36 N45 1_555 1_555
N38 N42 1_555 1_555
N39 N43 1_555 1_555
N40 N41 1_555 1_555
N41 C51 1_555 1_555
N42 C52 1_555 1_555
N43 C47 1_555 1_555
N45 C55 1_555 1_555
N53 C47 1_555 1_555
N48 Co6 1_555 1_555
C33 H48 1_555 1_555
H49 C33 1_555 1_555
C34 N31 1_555 1_555
H50 C34 1_555 1_555
C36 N51 1_555 1_555
C37 N30 1_555 1_555
C38 N25 1_555 1_555
C42 N31 1_555 1_555
H62 C42 1_555 1_555
H63 C42 1_555 1_555
C43 C42 1_555 1_555
H65 C43 1_555 1_555
C44 C38 1_555 1_555
H66 C44 1_555 1_555
H67 C44 1_555 1_555
C48 C33 1_555 1_555
H71 C48 1_555 1_555
H72 C48 1_555 1_555
C49 N39 1_555 1_555
H73 C49 1_555 1_555
H74 C49 1_555 1_555
C50 N40 1_555 1_555
H75 C50 1_555 1_555
H76 C50 1_555 1_555
C51 N28 1_555 1_555
H77 C51 1_555 1_555
C52 H78 1_555 1_555
H79 C52 1_555 1_555
C53 C52 1_555 1_555
H80 C53 1_555 1_555
H81 C53 1_555 1_555
C54 C53 1_555 1_555
H82 C54 1_555 1_555
H83 C54 1_555 1_555
C55 C54 1_555 1_555
H84 C55 1_555 1_555
H85 C55 1_555 1_555
C56 N28 1_555 1_555
H86 C56 1_555 1_555
C57 N48 1_555 1_555
H87 C57 1_555 1_555
C58 N25 1_555 1_555
H88 C58 1_555 1_555
C59 N27 1_555 1_555
C60 N26 1_555 1_555
H90 C60 1_555 1_555
C61 N26 1_555 1_555
H91 C61 1_555 1_555
C62 N27 1_555 1_555
H92 C62 1_555 1_555
C63 N30 1_555 1_555
H93 C63 1_555 1_555
C64 N39 1_555 1_555
H94 C64 1_555 1_555
W27 O92 1_555 1_555
W28 O72 1_555 1_555
W28 O126 1_555 1_555
Co6 O124 1_555 1_555
N36 C37 1_555 1_555
N38 C59 1_555 1_555
N40 C56 1_555 1_555
N42 C62 1_555 1_555
N45 C63 1_555 1_555
N53 C64 1_555 1_555
N48 C58 1_555 1_555
C33 C49 1_555 1_555
C43 C44 1_555 1_555
C48 C50 1_555 1_555
N32 N46 1_555 1_555
N35 N37 1_555 1_555
N37 C46 1_555 1_555
N44 C45 1_555 1_555
N46 C35 1_555 1_555
C35 H51 1_555 1_555
H52 C35 1_555 1_555
C39 C35 1_555 1_555
H57 C39 1_555 1_555
H58 C39 1_555 1_555
C40 C39 1_555 1_555
H59 C40 1_555 1_555
C41 N35 1_555 1_555
H60 C41 1_555 1_555
H61 C41 1_555 1_555
C45 N35 1_555 1_555
H68 C45 1_555 1_555
C46 N44 1_555 1_555
H69 C46 1_555 1_555
C40 C41 1_555 1_555
C40 H95 1_555 1_555

#END
