
###############################################################################
#
# This file contains modified crystal structure data generated from the
# MOF subset of the Cambridge Structural Database (CSD) v543 
# hosted by the Cambridge Crystallographic Data Centre (CCDC).
#
# This work is licensed under the Creative Commons
# Attribution-NonCommercial-ShareAlike 4.0 International License.
# To view a copy of this license, visit
# http://creativecommons.org/licenses/by-nc-sa/4.0/
# or send a letter to
# Creative Commons, PO Box 1866, Mountain View, CA 94042, USA.
#
# CIF created using the CSD Python API on 29 September 2022
# The structure has been converted into the P1 space group
# The structure has a 3D framework
# The original CSD entry KIDVIE is in the triclinic crystal system
# The framework has been calculated to contain at least 10.0% void space
# The void calculation uses a probe of radius 1.32A, grid spacing 0.4
# H atom positions have been added when not included in the experimental data
# Generated hydrogen atom positions removed from atoms on special positions
#
###############################################################################

data_KIDVIE
_chemical_formula_moiety         '(C16 H14 La4 O36)n'
_symmetry_cell_setting           triclinic
_symmetry_space_group_name_H-M   'P 1'
_symmetry_Int_Tables_number      1
_space_group_name_Hall           'P 1'
loop_
_symmetry_equiv_pos_site_id
_symmetry_equiv_pos_as_xyz
1 x,y,z
_cell_length_a                   10.016(2)
_cell_length_b                   11.380(2)
_cell_length_c                   12.821(3)
_cell_angle_alpha                80.39(3)
_cell_angle_beta                 80.65(3)
_cell_angle_gamma                66.34(3)
_cell_volume                     1312.35
loop_
_atom_site_label
_atom_site_type_symbol
_atom_site_fract_x
_atom_site_fract_y
_atom_site_fract_z
_atom_site_U_iso_or_equiv
_atom_site_thermal_displace_type
C15 C 0.0567(19) 0.7369(18) 0.8034(14) 0.0583 Uani
C16 C 0.020(3) 0.6379(18) 0.7592(12) 0.0555 Uani
O33 O 0.1222(11) 0.5363(10) 0.7417(9) 0.0585 Uani
O34 O 0.1867(13) 0.7165(10) 0.8066(9) 0.0624 Uani
La9 La 0.38025(10) 0.51211(9) 0.74961(8) 0.0406 Uani
La1 La 0.30138(10) 0.10814(9) 0.21182(7) 0.0390 Uani
La2 La 0.61975(10) 0.48789(9) 0.25039(8) 0.0406 Uani
C1 C 0.4530(17) 0.3234(17) 0.1735(13) 0.0349 Uani
C2 C 0.4804(19) 0.2602(17) 0.2838(14) 0.0445 Uani
O1 O 0.5494(12) 0.3017(10) 0.3324(8) 0.0547 Uani
O2 O 0.4347(13) 0.1735(11) 0.3184(9) 0.0612 Uani
O3 O 0.3924(12) 0.2830(11) 0.1190(9) 0.0560 Uani
O4 O 0.4909(11) 0.4189(11) 0.1378(8) 0.0531 Uani
O9 O 0.0486(11) 0.1598(10) 0.1709(9) 0.0562 Uani
O10 O 0.1117(13) 0.3281(11) 0.2519(9) 0.0608 Uani
C7 C 0.420(2) 0.5343(14) 0.4902(17) 0.0504 Uani
O13 O 0.4006(10) 0.5606(10) 0.3903(10) 0.0577 Uani
O14 O 0.3223(12) 0.5656(11) 0.5645(9) 0.0596 Uani
O17 O 0.1653(13) 0.0773(11) 0.3904(9) 0.0850 Uani
O18 O 0.7189(12) 0.5568(11) 0.0620(8) 0.0770 Uani
C9 C 0.580(2) 0.4657(14) 0.5098(17) 0.0504 Uani
O19 O 0.5994(10) 0.4394(10) 0.6097(10) 0.0577 Uani
O20 O 0.6777(12) 0.4344(11) 0.4355(9) 0.0596 Uani
O22 O 0.3157(12) 0.1034(11) 0.0159(9) 0.0613 Uani
O37 O 0.6018(12) 0.6999(11) 0.3038(10) 0.0742 Uani
O39 O 0.4200(13) 0.6895(12) 0.1736(10) 0.0782 Uani
O41 O 0.8778(11) 0.4637(10) 0.2583(9) 0.0585 Uani
O43 O 0.8133(13) 0.2835(10) 0.1934(9) 0.0624 Uani
C10 C 0.4322(16) 0.0298(16) 0.9668(15) 0.0467 Uani
O21 O 0.4477(12) 0.0087(11) 0.8749(10) 0.0655 Uani
C13 C 0.6001(19) 0.2061(19) 0.7893(14) 0.0540 Uiso
C14 C 0.508(2) 0.2018(19) 0.7137(14) 0.0590 Uiso
O27 O 0.3982(12) 0.3001(11) 0.6962(10) 0.0742 Uani
O28 O 0.5800(13) 0.3105(12) 0.8264(10) 0.0782 Uani
O29 O 0.5415(9) 0.0928(9) 0.6891(7) 0.0280 Uiso
O30 O 0.7112(12) 0.1003(11) 0.8184(10) 0.0747 Uani
C3 C 0.3999(19) 0.7939(19) 0.2107(14) 0.0540 Uiso
C4 C 0.492(2) 0.7982(19) 0.2863(14) 0.0590 Uiso
O7 O 0.4585(9) 0.9072(9) 0.3109(7) 0.0280 Uiso
O8 O 0.2888(12) 0.8997(11) 0.1816(10) 0.0747 Uani
C8 C 0.5678(16) 0.9702(16) 0.0332(15) 0.0467 Uani
O15 O 0.5523(12) 0.9913(11) 0.1251(10) 0.0655 Uani
O16 O 0.6843(12) 0.8966(11) 0.9841(9) 0.0613 Uani
La3 La 0.69862(10) 0.89186(9) 0.78818(7) 0.0390 Uani
C11 C 0.5470(17) 0.6766(17) 0.8265(13) 0.0349 Uani
C12 C 0.5196(19) 0.7398(17) 0.7162(14) 0.0445 Uani
O23 O 0.4506(12) 0.6983(10) 0.6676(8) 0.0547 Uani
O24 O 0.5653(13) 0.8265(11) 0.6816(9) 0.0612 Uani
O25 O 0.6076(12) 0.7170(11) 0.8810(9) 0.0560 Uani
O26 O 0.5091(11) 0.5811(11) 0.8622(8) 0.0531 Uani
O31 O 0.9514(11) 0.8402(10) 0.8291(9) 0.0562 Uani
O32 O 0.8883(13) 0.6719(11) 0.7481(9) 0.0608 Uani
O35 O 0.8347(13) 0.9227(11) 0.6096(9) 0.0850 Uani
O36 O 0.2811(12) 0.4432(11) 0.9380(8) 0.0770 Uani
C5 C 0.9433(19) 0.2631(18) 0.1966(14) 0.0583 Uani
C6 C 0.980(3) 0.3621(18) 0.2408(12) 0.0555 Uani
loop_
_atom_site_aniso_label
_atom_site_aniso_U_11
_atom_site_aniso_U_22
_atom_site_aniso_U_33
_atom_site_aniso_U_23
_atom_site_aniso_U_13
_atom_site_aniso_U_12
C15 0.012 0.08 0.085 -0.056 0.017 -0.01
C16 0.084 0.046 0.035 -0.004 -0.021 -0.018
O33 0.032 0.026 0.097 -0.014 -0.002 0.011
O34 0.048 0.049 0.094 -0.034 -0.009 -0.012
La9 0.0374 0.0297 0.0446 -0.0058 -0.001 -0.0032
La1 0.0355 0.0285 0.0428 -0.0099 0.0014 -0.0016
La2 0.0374 0.0297 0.0446 -0.0058 -0.001 -0.0032
C1 0.034 0.037 0.027 0.003 -0.009 -0.007
C2 0.057 0.033 0.034 -0.021 -0.004 -0.001
O1 0.069 0.048 0.038 -0.002 -0.017 -0.01
O2 0.09 0.04 0.061 0.012 -0.02 -0.035
O3 0.054 0.057 0.049 0.001 -0.01 -0.014
O4 0.055 0.058 0.035 0.011 0 -0.018
O9 0.04 0.041 0.087 -0.034 0.002 -0.008
O10 0.042 0.064 0.066 -0.011 -0.004 -0.009
C7 0.075 0.02 0.065 -0.007 -0.035 -0.016
O13 0.024 0.049 0.079 -0.014 0.001 0.008
O14 0.047 0.065 0.053 -0.011 0.009 -0.011
O17 0.09 0.062 0.069 0.005 0.013 -0.007
O18 0.069 0.085 0.049 0.002 0.017 -0.013
C9 0.075 0.02 0.065 -0.007 -0.035 -0.016
O19 0.024 0.049 0.079 -0.014 0.001 0.008
O20 0.047 0.065 0.053 -0.011 0.009 -0.011
O22 0.051 0.06 0.059 -0.016 -0.004 -0.004
O37 0.066 0.042 0.101 -0.011 0.008 -0.012
O39 0.072 0.058 0.094 -0.007 -0.005 -0.016
O41 0.032 0.026 0.097 -0.014 -0.002 0.011
O43 0.048 0.049 0.094 -0.034 -0.009 -0.012
C10 0.026 0.051 0.06 -0.015 0.019 -0.017
O21 0.053 0.074 0.057 -0.03 0.008 -0.008
O27 0.066 0.042 0.101 -0.011 0.008 -0.012
O28 0.072 0.058 0.094 -0.007 -0.005 -0.016
O30 0.051 0.046 0.11 -0.013 -0.007 0
O8 0.051 0.046 0.11 -0.013 -0.007 0
C8 0.026 0.051 0.06 -0.015 0.019 -0.017
O15 0.053 0.074 0.057 -0.03 0.008 -0.008
O16 0.051 0.06 0.059 -0.016 -0.004 -0.004
La3 0.0355 0.0285 0.0428 -0.0099 0.0014 -0.0016
C11 0.034 0.037 0.027 0.003 -0.009 -0.007
C12 0.057 0.033 0.034 -0.021 -0.004 -0.001
O23 0.069 0.048 0.038 -0.002 -0.017 -0.01
O24 0.09 0.04 0.061 0.012 -0.02 -0.035
O25 0.054 0.057 0.049 0.001 -0.01 -0.014
O26 0.055 0.058 0.035 0.011 0 -0.018
O31 0.04 0.041 0.087 -0.034 0.002 -0.008
O32 0.042 0.064 0.066 -0.011 -0.004 -0.009
O35 0.09 0.062 0.069 0.005 0.013 -0.007
O36 0.069 0.085 0.049 0.002 0.017 -0.013
C5 0.012 0.08 0.085 -0.056 0.017 -0.01
C6 0.084 0.046 0.035 -0.004 -0.021 -0.018
loop_
_geom_bond_atom_site_label_1
_geom_bond_atom_site_label_2
_geom_bond_site_symmetry_1
_geom_bond_site_symmetry_2
C15 C16 1_555 1_555
O33 C16 1_555 1_555
O34 C15 1_555 1_555
La9 O33 1_555 1_555
O34 La9 1_555 1_555
La1 O2 1_555 1_555
La2 O1 1_555 1_555
C1 C2 1_555 1_555
C2 O1 1_555 1_555
O2 C2 1_555 1_555
O3 La1 1_555 1_555
O4 La2 1_555 1_555
O9 La1 1_555 1_555
O10 La1 1_555 1_555
C7 O13 1_555 1_555
O13 La2 1_555 1_555
O14 C7 1_555 1_555
O17 La1 1_555 1_555
O18 La2 1_555 1_555
C9 C7 1_555 1_555
O19 C9 1_555 1_555
O20 La2 1_555 1_555
O22 La1 1_555 1_555
La9 O14 1_555 1_555
O37 La2 1_555 1_555
O39 La2 1_555 1_555
O41 La2 1_555 1_555
O43 La2 1_555 1_555
C1 O3 1_555 1_555
C1 O4 1_555 1_555
C9 O20 1_555 1_555
O19 La9 1_555 1_555
O21 C10 1_555 1_555
C13 C14 1_555 1_555
C14 O27 1_555 1_555
O27 La9 1_555 1_555
O28 C13 1_555 1_555
La9 O28 1_555 1_555
C13 O30 1_555 1_555
C14 O29 1_555 1_555
C3 C4 1_555 1_555
C4 O37 1_555 1_555
O39 C3 1_555 1_555
C8 O15 1_555 1_555
C3 O8 1_555 1_555
C4 O7 1_555 1_555
La3 O16 1_555 1_555
La9 O23 1_555 1_555
C11 C12 1_555 1_555
C12 O23 1_555 1_555
O24 La3 1_555 1_555
O25 La3 1_555 1_555
O26 La9 1_555 1_555
O31 La3 1_555 1_555
O32 La3 1_555 1_555
O35 La3 1_555 1_555
O36 La9 1_555 1_555
C11 O25 1_555 1_555
C11 O26 1_555 1_555
C12 O24 1_555 1_555
C5 C6 1_555 1_555
O41 C6 1_555 1_555
O43 C5 1_555 1_555

#END
