
###############################################################################
#
# This file contains modified crystal structure data generated from the
# MOF subset of the Cambridge Structural Database (CSD) v543 
# hosted by the Cambridge Crystallographic Data Centre (CCDC).
#
# This work is licensed under the Creative Commons
# Attribution-NonCommercial-ShareAlike 4.0 International License.
# To view a copy of this license, visit
# http://creativecommons.org/licenses/by-nc-sa/4.0/
# or send a letter to
# Creative Commons, PO Box 1866, Mountain View, CA 94042, USA.
#
# CIF created using the CSD Python API on 29 September 2022
# The structure has been converted into the P1 space group
# The structure has a 3D framework
# The original CSD entry KIFWUT is in the monoclinic crystal system
# The framework has been calculated to contain at least 10.0% void space
# The void calculation uses a probe of radius 1.32A, grid spacing 0.4
#
###############################################################################

data_KIFWUT
_chemical_formula_moiety         '(C208 H176 Co14 N32 O72 S6)n'
_symmetry_cell_setting           triclinic
_symmetry_space_group_name_H-M   'P 1'
_symmetry_Int_Tables_number      1
_space_group_name_Hall           'P 1'
loop_
_symmetry_equiv_pos_site_id
_symmetry_equiv_pos_as_xyz
1 x,y,z
_cell_length_a                   29.685(8)
_cell_length_b                   18.809(5)
_cell_length_c                   10.441(3)
_cell_angle_alpha                90
_cell_angle_beta                 97.500(3)
_cell_angle_gamma                90
_cell_volume                     5779.81
loop_
_atom_site_label
_atom_site_type_symbol
_atom_site_fract_x
_atom_site_fract_y
_atom_site_fract_z
H6 H 0.3909 0.0197 0.1081
Co1 Co 0.083767(15) 0.12842(2) 0.48867(4)
Co2 Co 0.0000 0.23479(3) 0.2500
N1 N 0.13391(10) 0.14663(17) 0.3609(3)
N2 N 0.27872(11) 0.2100(2) 0.1817(3)
N3 N 0.31012(11) 0.2109(2) 0.0914(3)
O1 O 0.13856(9) 0.12152(15) 0.6319(3)
O2 O 0.11399(11) 0.05915(19) 0.7874(3)
O3 O 0.32925(13) 0.04572(19) 0.9328(6)
O4 O 0.03920(9) 0.10675(15) 0.6300(3)
H1 H 0.0619 0.0899 0.7072
H2 H 0.0280 0.0671 0.6173
O5 O 0.08467(10) 0.01594(14) 0.4738(3)
H4 H 0.0919 0.0044 0.4035
O6 O 0.03158(7) 0.13534(12) 0.3286(2)
O7 O 0.02434(10) 0.04199(16) 0.1661(3)
S1 S 0.0000 0.08429(6) 0.2500
C8 C 0.28357(18) 0.0484(3) 0.8806(7)
C9 C 0.2507(2) 0.0131(3) 0.9331(7)
C10 C 0.20572(18) 0.0236(2) 0.8865(5)
H10 H 0.1832 0.0001 0.9239
C11 C 0.19408(14) 0.0697(2) 0.7833(4)
C12 C 0.22812(15) 0.1047(3) 0.7305(5)
H11 H 0.2206 0.1359 0.6620
C13 C 0.27314(17) 0.0939(3) 0.7783(6)
H12 H 0.2960 0.1171 0.7417
C14 C 0.14532(13) 0.0839(2) 0.7308(4)
C15 C 0.16980(13) 0.1882(2) 0.4035(4)
H13 H 0.1705 0.2102 0.4836
C16 C 0.20545(13) 0.1996(2) 0.3342(4)
H14 H 0.2295 0.2287 0.3673
C17 C 0.20532(13) 0.1675(2) 0.2145(4)
C18 C 0.16806(13) 0.1252(2) 0.1700(4)
H15 H 0.1664 0.1031 0.0899
C19 C 0.13362(13) 0.1163(2) 0.2452(4)
H16 H 0.1090 0.0879 0.2138
C20 C 0.24274(13) 0.1770(2) 0.1375(4)
H17 H 0.2401 0.1583 0.0543
C21 C 0.34633(14) 0.2438(2) 0.1315(4)
H18 H 0.3501 0.2653 0.2124
C22 C 0.38266(13) 0.2474(2) 0.0475(4)
C23 C 0.42146(17) 0.2868(3) 0.0800(5)
H19 H 0.4264 0.3104 0.1588
H22 H 0.4792 0.3177 0.0177
N9 N 0.05143(10) 0.24099(17) 0.1195(3)
O20 O 0.03789(8) 0.29823(14) 0.3743(3)
O22 O 0.08293(10) 0.23647(14) 0.5234(3)
H3 H 0.0621 0.9916 0.5067
O9 O 0.41707(10) 0.73647(14) 0.9766(3)
C5 C 0.3381(2) 0.9209(3) 0.8923(6)
H7 H 0.3124 0.9202 0.8312
C6 C 0.36426(19) 0.8598(3) 0.9170(5)
H8 H 0.3558 0.8187 0.8705
C7 C 0.35039(18) 0.9803(2) 0.9570(7)
N4 N 0.94857(10) 0.75901(17) 0.8805(3)
C24 C 0.87883(14) 0.7112(3) 0.9333(4)
H20 H 0.8540 0.6817 0.9096
C25 C 0.91173(13) 0.7186(2) 0.8536(4)
H21 H 0.9081 0.6938 0.7759
C26 C 0.95315(15) 0.7909(3) 0.9940(5)
O12 O 0.36144(9) 0.62152(15) 0.8681(3)
O13 O 0.38601(11) 0.55915(19) 0.7126(3)
O14 O 0.17075(13) 0.54572(19) 0.5672(6)
O15 O 0.46080(9) 0.60675(15) 0.8700(3)
H23 H 0.4381 0.5899 0.7928
H24 H 0.4720 0.5671 0.8827
H25 H 0.4379 0.4916 0.9933
C27 C 0.07078(13) 0.2925(2) 0.4630(4)
C28 C 0.09820(14) 0.3583(2) 0.4929(4)
C29 C 0.08954(19) 0.4190(3) 0.4186(6)
H27 H 0.0659 0.4188 0.3507
C30 C 0.1152(2) 0.4796(3) 0.4432(7)
H28 H 0.1091 0.5197 0.3919
C31 C 0.1619(2) 0.4209(3) 0.6077(6)
H29 H 0.1876 0.4202 0.6688
C32 C 0.13574(19) 0.3598(3) 0.5830(5)
H30 H 0.1442 0.3187 0.6295
C33 C 0.14961(18) 0.4803(2) 0.5430(7)
C34 C 0.21643(18) 0.5484(3) 0.6194(7)
C35 C 0.2493(2) 0.5131(3) 0.5669(7)
H31 H 0.2414 0.4816 0.4991
C36 C 0.29428(18) 0.5236(2) 0.6135(5)
H32 H 0.3168 0.5001 0.5761
C37 C 0.30592(14) 0.5697(2) 0.7167(4)
C38 C 0.27188(15) 0.6047(3) 0.7695(5)
H33 H 0.2794 0.6359 0.8380
C39 C 0.22686(17) 0.5939(3) 0.7217(6)
H34 H 0.2040 0.6171 0.7583
C40 C 0.35468(13) 0.5839(2) 0.7692(4)
Co9 Co 1.0000 0.76521(3) 0.7500
H3_2 H 0.9379 0.0084 0.4933
O9_2 O 0.58293(10) 0.26353(14) 0.0234(3)
C5_2 C 0.6619(2) 0.0791(3) 0.1077(6)
H7_2 H 0.6876 0.0798 0.1688
C6_2 C 0.63574(19) 0.1402(3) 0.0830(5)
H8_2 H 0.6442 0.1813 0.1295
C7_2 C 0.64961(18) 0.0197(2) 0.0430(7)
Co1_2 Co 0.916233(15) 0.87158(2) 0.51133(4)
N1_2 N 0.86609(10) 0.85337(17) 0.6391(3)
N2_2 N 0.72128(11) 0.7900(2) 0.8183(3)
N3_2 N 0.68988(11) 0.7891(2) 0.9086(3)
O1_2 O 0.86144(9) 0.87848(15) 0.3681(3)
O2_2 O 0.88601(11) 0.94085(19) 0.2126(3)
O3_2 O 0.67075(13) 0.95428(19) 0.0672(6)
O4_2 O 0.96080(9) 0.89325(15) 0.3700(3)
H1_2 H 0.9381 0.9101 0.2928
H2_2 H 0.9720 0.9329 0.3827
O5_2 O 0.91533(10) 0.98406(14) 0.5262(3)
H4_2 H 0.9081 0.9956 0.5965
O6_2 O 0.96842(7) 0.86466(12) 0.6714(2)
O7_2 O 0.97566(10) 0.95801(16) 0.8339(3)
S1_2 S 1.0000 0.91571(6) 0.7500
C8_2 C 0.71643(18) 0.9516(3) 0.1194(7)
C9_2 C 0.7493(2) 0.9869(3) 0.0669(7)
C10_2 C 0.79428(18) 0.9764(2) 0.1135(5)
H10_2 H 0.8168 0.9999 0.0761
C11_2 C 0.80592(14) 0.9303(2) 0.2167(4)
C12_2 C 0.77188(15) 0.8953(3) 0.2695(5)
H11_2 H 0.7794 0.8641 0.3380
C13_2 C 0.72686(17) 0.9061(3) 0.2217(6)
H12_2 H 0.7040 0.8829 0.2583
C14_2 C 0.85468(13) 0.9161(2) 0.2692(4)
C15_2 C 0.83020(13) 0.8118(2) 0.5965(4)
H13_2 H 0.8295 0.7898 0.5164
C16_2 C 0.79455(13) 0.8004(2) 0.6658(4)
H14_2 H 0.7705 0.7713 0.6327
C17_2 C 0.79468(13) 0.8325(2) 0.7855(4)
C18_2 C 0.83194(13) 0.8748(2) 0.8300(4)
H15_2 H 0.8336 0.8969 0.9101
C19_2 C 0.86638(13) 0.8837(2) 0.7548(4)
H16_2 H 0.8910 0.9121 0.7862
C20_2 C 0.75726(13) 0.8230(2) 0.8625(4)
H17_2 H 0.7599 0.8417 0.9457
C21_2 C 0.65367(14) 0.7562(2) 0.8685(4)
H18_2 H 0.6499 0.7347 0.7876
C22_2 C 0.61734(13) 0.7526(2) 0.9525(4)
C23_2 C 0.57854(17) 0.7132(3) 0.9200(5)
H19_2 H 0.5736 0.6896 0.8412
H22_2 H 0.5208 0.6823 0.9823
O20_2 O 0.96211(8) 0.70177(14) 0.6257(3)
O22_2 O 0.91707(10) 0.76353(14) 0.4766(3)
C24_2 C 0.12117(14) 0.2888(3) 0.0667(4)
H20_2 H 0.1460 0.3183 0.0904
C25_2 C 0.08827(13) 0.2814(2) 0.1464(4)
H21_2 H 0.0919 0.3062 0.2241
C26_2 C 0.04685(15) 0.2091(3) 0.0060(5)
O12_2 O 0.63856(9) 0.37848(15) 0.1319(3)
O13_2 O 0.61399(11) 0.44085(19) 0.2874(3)
O14_2 O 0.82925(13) 0.45428(19) 0.4328(6)
O15_2 O 0.53920(9) 0.39325(15) 0.1300(3)
H23_2 H 0.5619 0.4101 0.2072
H24_2 H 0.5280 0.4329 0.1173
H25_2 H 0.5621 0.5084 0.0067
C27_2 C 0.92922(13) 0.7075(2) 0.5370(4)
C28_2 C 0.90180(14) 0.6417(2) 0.5071(4)
C29_2 C 0.91046(19) 0.5810(3) 0.5814(6)
H27_2 H 0.9341 0.5812 0.6493
C30_2 C 0.8848(2) 0.5204(3) 0.5568(7)
H28_2 H 0.8909 0.4803 0.6081
C31_2 C 0.8381(2) 0.5791(3) 0.3923(6)
H29_2 H 0.8124 0.5798 0.3312
C32_2 C 0.86426(19) 0.6402(3) 0.4170(5)
H30_2 H 0.8558 0.6813 0.3705
C33_2 C 0.85039(18) 0.5197(2) 0.4570(7)
C34_2 C 0.78357(18) 0.4516(3) 0.3806(7)
C35_2 C 0.7507(2) 0.4869(3) 0.4331(7)
H31_2 H 0.7586 0.5184 0.5009
C36_2 C 0.70572(18) 0.4764(2) 0.3865(5)
H32_2 H 0.6832 0.4999 0.4239
C37_2 C 0.69408(14) 0.4303(2) 0.2833(4)
C38_2 C 0.72812(15) 0.3953(3) 0.2305(5)
H33_2 H 0.7206 0.3641 0.1620
C39_2 C 0.77314(17) 0.4061(3) 0.2783(6)
H34_2 H 0.7960 0.3829 0.2417
C40_2 C 0.64532(13) 0.4161(2) 0.2308(4)
N4_2 N 0.44857(10) 0.25901(17) 0.8805(3)
C24_3 C 0.37883(14) 0.2112(3) 0.9333(4)
H20_3 H 0.3540 0.1817 0.9096
C25_3 C 0.41173(13) 0.2186(2) 0.8536(4)
H21_3 H 0.4081 0.1938 0.7759
C26_3 C 0.45315(15) 0.2909(3) 0.9940(5)
Co9_2 Co 0.5000 0.26521(3) 0.7500
Co2_2 Co 1.0000 0.23479(3) 0.2500
S1_3 S 1.0000 0.08429(6) 0.2500
O10 O 0.96842(7) 0.13534(12) 0.1714(2)
O11 O 0.97566(10) 0.04199(16) 0.3339(3)
Co3 Co 0.916233(15) 0.12842(2) 0.01133(4)
N5 N 0.86609(10) 0.14663(17) 0.1391(3)
N6 N 0.72128(11) 0.2100(2) 0.3183(3)
N7 N 0.68988(11) 0.2109(2) 0.4086(3)
N8 N 0.55143(10) 0.25901(17) 0.6195(3)
O16 O 0.91533(10) 0.01594(14) 0.0262(3)
H26 H 0.9081 0.0044 0.0965
C41 C 0.83020(13) 0.1882(2) 0.0965(4)
H35 H 0.8295 0.2102 0.0164
C42 C 0.79455(13) 0.1996(2) 0.1658(4)
H36 H 0.7705 0.2287 0.1327
C43 C 0.79468(13) 0.1675(2) 0.2855(4)
C44 C 0.83194(13) 0.1252(2) 0.3300(4)
H37 H 0.8336 0.1031 0.4101
C45 C 0.86638(13) 0.1163(2) 0.2548(4)
H38 H 0.8910 0.0879 0.2862
C46 C 0.75726(13) 0.1770(2) 0.3625(4)
H39 H 0.7599 0.1583 0.4457
C47 C 0.65367(14) 0.2438(2) 0.3685(4)
H40 H 0.6499 0.2653 0.2876
C48 C 0.61734(13) 0.2474(2) 0.4525(4)
C49 C 0.57854(17) 0.2868(3) 0.4200(5)
H41 H 0.5736 0.3104 0.3412
C50 C 0.62117(14) 0.2112(3) 0.5667(4)
H42 H 0.6460 0.1817 0.5904
C51 C 0.58827(13) 0.2186(2) 0.6464(4)
H43 H 0.5919 0.1938 0.7241
C52 C 0.54685(15) 0.2909(3) 0.5060(5)
H44 H 0.5208 0.3177 0.4823
N10 N 0.94857(10) 0.24099(17) 0.3805(3)
O19 O 0.96211(8) 0.29823(14) 0.1257(3)
C1 C 0.92922(13) 0.2925(2) 0.0370(4)
C2 C 0.90180(14) 0.3583(2) 0.0071(4)
C3 C 0.91046(19) 0.4190(3) 0.0814(6)
H5 H 0.9341 0.4188 0.1493
C4 C 0.8848(2) 0.4796(3) 0.0568(7)
H6_2 H 0.8909 0.5197 0.1081
H9 H 0.7586 0.4816 0.0009
H25_3 H 0.0621 0.0084 0.0067
O17 O 0.46211(8) 0.20177(14) 0.6257(3)
O18 O 0.41707(10) 0.26353(14) 0.4766(3)
C27_3 C 0.42922(13) 0.2075(2) 0.5370(4)
C28_3 C 0.40180(14) 0.1417(2) 0.5071(4)
C29_3 C 0.41046(19) 0.0810(3) 0.5814(6)
H27_3 H 0.4341 0.0812 0.6493
C30_3 C 0.3848(2) 0.0204(3) 0.5568(7)
C31_3 C 0.3381(2) 0.0791(3) 0.3923(6)
H29_3 H 0.3124 0.0798 0.3312
C32_3 C 0.36426(19) 0.1402(3) 0.4170(5)
H30_3 H 0.3558 0.1813 0.3705
C33_3 C 0.35039(18) 0.0197(2) 0.4570(7)
H31_3 H 0.2586 0.0184 0.5009
Co4 Co 0.416233(15) 0.37158(2) 0.51133(4)
O12_3 O 0.13856(9) 0.87848(15) 0.1319(3)
O13_3 O 0.11399(11) 0.94085(19) 0.2874(3)
O14_3 O 0.32925(13) 0.95428(19) 0.4328(6)
O15_3 O 0.03920(9) 0.89325(15) 0.1300(3)
H23_3 H 0.0619 0.9101 0.2072
H24_3 H 0.0280 0.9329 0.1173
H28_3 H 0.3909 0.9803 0.6081
C34_3 C 0.28357(18) 0.9516(3) 0.3806(7)
C35_3 C 0.2507(2) 0.9869(3) 0.4331(7)
C36_3 C 0.20572(18) 0.9764(2) 0.3865(5)
H32_3 H 0.1832 0.9999 0.4239
C37_3 C 0.19408(14) 0.9303(2) 0.2833(4)
C38_3 C 0.22812(15) 0.8953(3) 0.2305(5)
H33_3 H 0.2206 0.8641 0.1620
C39_3 C 0.27314(17) 0.9061(3) 0.2783(6)
H34_3 H 0.2960 0.8829 0.2417
C40_3 C 0.14532(13) 0.9161(2) 0.2308(4)
O21 O 0.08293(10) 0.76353(14) 0.0234(3)
O8 O 0.53789(8) 0.20177(14) 0.8743(3)
C1_2 C 0.57078(13) 0.2075(2) 0.9630(4)
C2_2 C 0.59820(14) 0.1417(2) 0.9929(4)
C3_2 C 0.58954(19) 0.0810(3) 0.9186(6)
H5_2 H 0.5659 0.0812 0.8507
C4_2 C 0.6152(2) 0.0204(3) 0.9432(7)
H9_2 H 0.7414 0.0184 0.9991
Co5 Co 0.583767(15) 0.37158(2) 0.98867(4)
N1_3 N 0.36609(10) 0.35337(17) 0.6391(3)
N2_3 N 0.22128(11) 0.2900(2) 0.8183(3)
N3_3 N 0.18988(11) 0.2891(2) 0.9086(3)
O1_3 O 0.36144(9) 0.37848(15) 0.3681(3)
O2_3 O 0.38601(11) 0.44085(19) 0.2126(3)
O3_3 O 0.17075(13) 0.45428(19) 0.0672(6)
O4_3 O 0.46080(9) 0.39325(15) 0.3700(3)
H1_3 H 0.4381 0.4101 0.2928
H2_3 H 0.4720 0.4329 0.3827
O5_3 O 0.41533(10) 0.48406(14) 0.5262(3)
H3_3 H 0.4379 0.5084 0.4933
H4_3 H 0.4081 0.4956 0.5965
O6_3 O 0.46842(7) 0.36466(12) 0.6714(2)
O7_3 O 0.47566(10) 0.45801(16) 0.8339(3)
S1_4 S 0.5000 0.41571(6) 0.7500
C5_3 C 0.1619(2) 0.5791(3) 0.1077(6)
H7_3 H 0.1876 0.5798 0.1688
C6_3 C 0.13574(19) 0.6402(3) 0.0830(5)
H8_3 H 0.1442 0.6813 0.1295
C7_3 C 0.14961(18) 0.5197(2) 0.0430(7)
C8_3 C 0.21643(18) 0.4516(3) 0.1194(7)
C9_3 C 0.2493(2) 0.4869(3) 0.0669(7)
C10_3 C 0.29428(18) 0.4764(2) 0.1135(5)
H10_3 H 0.3168 0.4999 0.0761
C11_3 C 0.30592(14) 0.4303(2) 0.2167(4)
C12_3 C 0.27188(15) 0.3953(3) 0.2695(5)
H11_3 H 0.2794 0.3641 0.3380
C13_3 C 0.22686(17) 0.4061(3) 0.2217(6)
H12_3 H 0.2040 0.3829 0.2583
C14_3 C 0.35468(13) 0.4161(2) 0.2692(4)
C15_3 C 0.33020(13) 0.3118(2) 0.5965(4)
H13_3 H 0.3295 0.2898 0.5164
C16_3 C 0.29455(13) 0.3004(2) 0.6658(4)
H14_3 H 0.2705 0.2713 0.6327
C17_3 C 0.29468(13) 0.3325(2) 0.7855(4)
C18_3 C 0.33194(13) 0.3748(2) 0.8300(4)
H15_3 H 0.3336 0.3969 0.9101
C19_3 C 0.36638(13) 0.3837(2) 0.7548(4)
H16_3 H 0.3910 0.4121 0.7862
C20_3 C 0.25726(13) 0.3230(2) 0.8625(4)
H17_3 H 0.2599 0.3417 0.9457
C21_3 C 0.15367(14) 0.2562(2) 0.8685(4)
H18_3 H 0.1499 0.2347 0.7876
C22_3 C 0.11734(13) 0.2526(2) 0.9525(4)
C23_3 C 0.07854(17) 0.2132(3) 0.9200(5)
H19_3 H 0.0736 0.1896 0.8412
H22_3 H 0.0208 0.1823 0.9823
O10_2 O 0.53158(7) 0.36466(12) 0.8286(2)
O11_2 O 0.52434(10) 0.45801(16) 0.6661(3)
N5_2 N 0.63391(10) 0.35337(17) 0.8609(3)
N6_2 N 0.77872(11) 0.2900(2) 0.6817(3)
N7_2 N 0.81012(11) 0.2891(2) 0.5914(3)
O16_2 O 0.58467(10) 0.48406(14) 0.9738(3)
H26_2 H 0.5919 0.4956 0.9035
C41_2 C 0.66980(13) 0.3118(2) 0.9035(4)
H35_2 H 0.6705 0.2898 0.9836
C42_2 C 0.70545(13) 0.3004(2) 0.8342(4)
H36_2 H 0.7295 0.2713 0.8673
C43_2 C 0.70532(13) 0.3325(2) 0.7145(4)
C44_2 C 0.66806(13) 0.3748(2) 0.6700(4)
H37_2 H 0.6664 0.3969 0.5899
C45_2 C 0.63362(13) 0.3837(2) 0.7452(4)
H38_2 H 0.6090 0.4121 0.7138
C46_2 C 0.74274(13) 0.3230(2) 0.6375(4)
H39_2 H 0.7401 0.3417 0.5543
C47_2 C 0.84633(14) 0.2562(2) 0.6315(4)
H40_2 H 0.8501 0.2347 0.7124
C48_2 C 0.88266(13) 0.2526(2) 0.5475(4)
C49_2 C 0.92146(17) 0.2132(3) 0.5800(5)
H41_2 H 0.9264 0.1896 0.6588
C50_2 C 0.87883(14) 0.2888(3) 0.4333(4)
H42_2 H 0.8540 0.3183 0.4096
C51_2 C 0.91173(13) 0.2814(2) 0.3536(4)
H43_2 H 0.9081 0.3062 0.2759
C52_2 C 0.95315(15) 0.2091(3) 0.4940(5)
H44_2 H 0.9792 0.1823 0.5177
O8_2 O 0.46211(8) 0.79823(14) 0.1257(3)
C1_3 C 0.42922(13) 0.7925(2) 0.0370(4)
C2_3 C 0.40180(14) 0.8583(2) 0.0071(4)
C3_3 C 0.41046(19) 0.9190(3) 0.0814(6)
H5_3 H 0.4341 0.9188 0.1493
C4_3 C 0.3848(2) 0.9796(3) 0.0568(7)
H9_3 H 0.2586 0.9816 0.0009
Co5_2 Co 0.416233(15) 0.62842(2) 0.01133(4)
Co7 Co 0.5000 0.73479(3) 0.2500
O12_4 O 0.86144(9) 0.12152(15) 0.8681(3)
O13_4 O 0.88601(11) 0.05915(19) 0.7126(3)
O14_4 O 0.67075(13) 0.04572(19) 0.5672(6)
O15_4 O 0.96080(9) 0.10675(15) 0.8700(3)
H23_4 H 0.9381 0.0899 0.7928
H24_4 H 0.9720 0.0671 0.8827
H28_4 H 0.6091 0.0197 0.3919
C34_4 C 0.71643(18) 0.0484(3) 0.6194(7)
C35_4 C 0.7493(2) 0.0131(3) 0.5669(7)
C36_4 C 0.79428(18) 0.0236(2) 0.6135(5)
H32_4 H 0.8168 0.0001 0.5761
C37_4 C 0.80592(14) 0.0697(2) 0.7167(4)
C38_4 C 0.77188(15) 0.1047(3) 0.7695(5)
H33_4 H 0.7794 0.1359 0.8380
C39_4 C 0.72686(17) 0.0939(3) 0.7217(6)
H34_4 H 0.7040 0.1171 0.7583
C40_4 C 0.85468(13) 0.0839(2) 0.7692(4)
O21_2 O 0.91707(10) 0.23647(14) 0.9766(3)
H25_4 H 0.9379 0.9916 0.9933
O17_2 O 0.53789(8) 0.79823(14) 0.3743(3)
O18_2 O 0.58293(10) 0.73647(14) 0.5234(3)
C27_4 C 0.57078(13) 0.7925(2) 0.4630(4)
C28_4 C 0.59820(14) 0.8583(2) 0.4929(4)
C29_4 C 0.58954(19) 0.9190(3) 0.4186(6)
H27_4 H 0.5659 0.9188 0.3507
C30_4 C 0.6152(2) 0.9796(3) 0.4432(7)
C31_4 C 0.6619(2) 0.9209(3) 0.6077(6)
H29_4 H 0.6876 0.9202 0.6688
C32_4 C 0.63574(19) 0.8598(3) 0.5830(5)
H30_4 H 0.6442 0.8187 0.6295
C33_4 C 0.64961(18) 0.9803(2) 0.5430(7)
H31_4 H 0.7414 0.9816 0.4991
Co4_2 Co 0.583767(15) 0.62842(2) 0.48867(4)
Co9_3 Co 0.0000 0.76521(3) 0.7500
N1_4 N 0.63391(10) 0.64663(17) 0.3609(3)
N2_4 N 0.77872(11) 0.7100(2) 0.1817(3)
N3_4 N 0.81012(11) 0.7109(2) 0.0914(3)
O1_4 O 0.63856(9) 0.62152(15) 0.6319(3)
O2_4 O 0.61399(11) 0.55915(19) 0.7874(3)
O3_4 O 0.82925(13) 0.54572(19) 0.9328(6)
O4_4 O 0.53920(9) 0.60675(15) 0.6300(3)
H1_4 H 0.5619 0.5899 0.7072
H2_4 H 0.5280 0.5671 0.6173
O5_4 O 0.58467(10) 0.51594(14) 0.4738(3)
H3_4 H 0.5621 0.4916 0.5067
H4_4 H 0.5919 0.5044 0.4035
O6_4 O 0.53158(7) 0.63534(12) 0.3286(2)
O7_4 O 0.52434(10) 0.54199(16) 0.1661(3)
S1_5 S 0.5000 0.58429(6) 0.2500
C5_4 C 0.8381(2) 0.4209(3) 0.8923(6)
H7_4 H 0.8124 0.4202 0.8312
C6_4 C 0.86426(19) 0.3598(3) 0.9170(5)
H8_4 H 0.8558 0.3187 0.8705
C7_4 C 0.85039(18) 0.4803(2) 0.9570(7)
C8_4 C 0.78357(18) 0.5484(3) 0.8806(7)
C9_4 C 0.7507(2) 0.5131(3) 0.9331(7)
C10_4 C 0.70572(18) 0.5236(2) 0.8865(5)
H10_4 H 0.6832 0.5001 0.9239
C11_4 C 0.69408(14) 0.5697(2) 0.7833(4)
C12_4 C 0.72812(15) 0.6047(3) 0.7305(5)
H11_4 H 0.7206 0.6359 0.6620
C13_4 C 0.77314(17) 0.5939(3) 0.7783(6)
H12_4 H 0.7960 0.6171 0.7417
C14_4 C 0.64532(13) 0.5839(2) 0.7308(4)
C15_4 C 0.66980(13) 0.6882(2) 0.4035(4)
H13_4 H 0.6705 0.7102 0.4836
C16_4 C 0.70545(13) 0.6996(2) 0.3342(4)
H14_4 H 0.7295 0.7287 0.3673
C17_4 C 0.70532(13) 0.6675(2) 0.2145(4)
C18_4 C 0.66806(13) 0.6252(2) 0.1700(4)
H15_4 H 0.6664 0.6031 0.0899
C19_4 C 0.63362(13) 0.6163(2) 0.2452(4)
H16_4 H 0.6090 0.5879 0.2138
C20_4 C 0.74274(13) 0.6770(2) 0.1375(4)
H17_4 H 0.7401 0.6583 0.0543
C21_4 C 0.84633(14) 0.7438(2) 0.1315(4)
H18_4 H 0.8501 0.7653 0.2124
C22_4 C 0.88266(13) 0.7474(2) 0.0475(4)
C23_4 C 0.92146(17) 0.7868(3) 0.0800(5)
H19_4 H 0.9264 0.8104 0.1588
H22_4 H 0.9792 0.8177 0.0177
O10_3 O 0.46842(7) 0.63534(12) 0.1714(2)
O11_3 O 0.47566(10) 0.54199(16) 0.3339(3)
N5_3 N 0.36609(10) 0.64663(17) 0.1391(3)
N6_3 N 0.22128(11) 0.7100(2) 0.3183(3)
N7_3 N 0.18988(11) 0.7109(2) 0.4086(3)
N8_2 N 0.05143(10) 0.75901(17) 0.6195(3)
O16_3 O 0.41533(10) 0.51594(14) 0.0262(3)
H26_3 H 0.4081 0.5044 0.0965
C41_3 C 0.33020(13) 0.6882(2) 0.0965(4)
H35_3 H 0.3295 0.7102 0.0164
C42_3 C 0.29455(13) 0.6996(2) 0.1658(4)
H36_3 H 0.2705 0.7287 0.1327
C43_3 C 0.29468(13) 0.6675(2) 0.2855(4)
C44_3 C 0.33194(13) 0.6252(2) 0.3300(4)
H37_3 H 0.3336 0.6031 0.4101
C45_3 C 0.36638(13) 0.6163(2) 0.2548(4)
H38_3 H 0.3910 0.5879 0.2862
C46_3 C 0.25726(13) 0.6770(2) 0.3625(4)
H39_3 H 0.2599 0.6583 0.4457
C47_3 C 0.15367(14) 0.7438(2) 0.3685(4)
H40_3 H 0.1499 0.7653 0.2876
C48_3 C 0.11734(13) 0.7474(2) 0.4525(4)
C49_3 C 0.07854(17) 0.7868(3) 0.4200(5)
H41_3 H 0.0736 0.8104 0.3412
C50_3 C 0.12117(14) 0.7112(3) 0.5667(4)
H42_3 H 0.1460 0.6817 0.5904
C51_3 C 0.08827(13) 0.7186(2) 0.6464(4)
H43_3 H 0.0919 0.6938 0.7241
C52_3 C 0.04685(15) 0.7909(3) 0.5060(5)
H44_3 H 0.0208 0.8177 0.4823
N9_2 N 0.55143(10) 0.74099(17) 0.1195(3)
N10_2 N 0.44857(10) 0.74099(17) 0.3805(3)
S1_6 S 0.0000 0.91571(6) 0.7500
O10_4 O 0.03158(7) 0.86466(12) 0.8286(2)
O11_4 O 0.02434(10) 0.95801(16) 0.6661(3)
Co3_2 Co 0.083767(15) 0.87158(2) 0.98867(4)
N5_4 N 0.13391(10) 0.85337(17) 0.8609(3)
N6_4 N 0.27872(11) 0.7900(2) 0.6817(3)
N7_4 N 0.31012(11) 0.7891(2) 0.5914(3)
O16_4 O 0.08467(10) 0.98406(14) 0.9738(3)
H26_4 H 0.0919 0.9956 0.9035
C41_4 C 0.16980(13) 0.8118(2) 0.9035(4)
H35_4 H 0.1705 0.7898 0.9836
C42_4 C 0.20545(13) 0.8004(2) 0.8342(4)
H36_4 H 0.2295 0.7713 0.8673
C43_4 C 0.20532(13) 0.8325(2) 0.7145(4)
C44_4 C 0.16806(13) 0.8748(2) 0.6700(4)
H37_4 H 0.1664 0.8969 0.5899
C45_4 C 0.13362(13) 0.8837(2) 0.7452(4)
H38_4 H 0.1090 0.9121 0.7138
C46_4 C 0.24274(13) 0.8230(2) 0.6375(4)
H39_4 H 0.2401 0.8417 0.5543
C47_4 C 0.34633(14) 0.7562(2) 0.6315(4)
H40_4 H 0.3501 0.7347 0.7124
C48_4 C 0.38266(13) 0.7526(2) 0.5475(4)
C49_4 C 0.42146(17) 0.7132(3) 0.5800(5)
H41_4 H 0.4264 0.6896 0.6588
C50_4 C 0.37883(14) 0.7888(3) 0.4333(4)
H42_4 H 0.3540 0.8183 0.4096
C51_4 C 0.41173(13) 0.7814(2) 0.3536(4)
H43_4 H 0.4081 0.8062 0.2759
C52_4 C 0.45315(15) 0.7091(3) 0.4940(5)
H44_4 H 0.4792 0.6823 0.5177
O19_2 O 0.03789(8) 0.70177(14) 0.8743(3)
C24_4 C 0.62117(14) 0.7888(3) 0.0667(4)
H20_4 H 0.6460 0.8183 0.0904
C25_4 C 0.58827(13) 0.7814(2) 0.1464(4)
H21_4 H 0.5919 0.8062 0.2241
C26_4 C 0.54685(15) 0.7091(3) 0.0060(5)
C1_4 C 0.07078(13) 0.7075(2) 0.9630(4)
C2_4 C 0.09820(14) 0.6417(2) 0.9929(4)
C3_4 C 0.08954(19) 0.5810(3) 0.9186(6)
H5_4 H 0.0659 0.5812 0.8507
C4_4 C 0.1152(2) 0.5204(3) 0.9432(7)
H6_3 H 0.1091 0.4803 0.8919
H9_4 H 0.2414 0.5184 0.9991
H6_4 H 0.6091 0.9803 0.8919
loop_
_geom_bond_atom_site_label_1
_geom_bond_atom_site_label_2
_geom_bond_site_symmetry_1
_geom_bond_site_symmetry_2
Co1 N1 1_555 1_555
Co2 O6 1_555 1_555
N1 C15 1_555 1_555
N2 N3 1_555 1_555
N3 C21 1_555 1_555
O1 Co1 1_555 1_555
O2 C14 1_555 1_555
O4 Co1 1_555 1_555
H1 O4 1_555 1_555
H2 O4 1_555 1_555
O5 Co1 1_555 1_555
H4 O5 1_555 1_555
O6 Co1 1_555 1_555
O7 S1 1_555 1_555
S1 O6 1_555 1_555
C8 O3 1_555 1_555
C9 C8 1_555 1_555
C10 C9 1_555 1_555
H10 C10 1_555 1_555
C11 C10 1_555 1_555
C12 C11 1_555 1_555
H11 C12 1_555 1_555
C13 C8 1_555 1_555
H12 C13 1_555 1_555
C14 O1 1_555 1_555
C15 H13 1_555 1_555
C16 C15 1_555 1_555
H14 C16 1_555 1_555
C17 C16 1_555 1_555
C18 C17 1_555 1_555
H15 C18 1_555 1_555
C19 N1 1_555 1_555
H16 C19 1_555 1_555
C20 N2 1_555 1_555
H17 C20 1_555 1_555
C21 H18 1_555 1_555
C22 C21 1_555 1_555
C23 C22 1_555 1_555
H19 C23 1_555 1_555
N9 Co2 1_555 1_555
O20 Co2 1_555 1_555
O22 Co1 1_555 1_555
C11 C14 1_555 1_555
C12 C13 1_555 1_555
C17 C20 1_555 1_555
C18 C19 1_555 1_555
C5 H7 1_555 1_555
H8 C6 1_555 1_555
C5 C6 1_555 1_555
C5 C7 1_555 1_555
N4 C25 1_555 1_555
H20 C24 1_555 1_555
C25 C24 1_555 1_555
H21 C25 1_555 1_555
C26 N4 1_555 1_555
O13 C40 1_555 1_555
O14 C33 1_555 1_555
H23 O15 1_555 1_555
H24 O15 1_555 1_555
O20 C27 1_555 1_555
O22 C27 1_555 1_555
C27 C28 1_555 1_555
C28 C29 1_555 1_555
C29 H27 1_555 1_555
C30 C29 1_555 1_555
H28 C30 1_555 1_555
C31 H29 1_555 1_555
C32 C28 1_555 1_555
H30 C32 1_555 1_555
C33 C30 1_555 1_555
C34 O14 1_555 1_555
C35 C34 1_555 1_555
H31 C35 1_555 1_555
C36 C35 1_555 1_555
H32 C36 1_555 1_555
C37 C36 1_555 1_555
C38 C37 1_555 1_555
H33 C38 1_555 1_555
C39 C34 1_555 1_555
H34 C39 1_555 1_555
C40 O12 1_555 1_555
Co9 N4 1_555 1_555
C31 C32 1_555 1_555
C31 C33 1_555 1_555
C37 C40 1_555 1_555
C38 C39 1_555 1_555
C5_2 H7_2 1_555 1_555
H8_2 C6_2 1_555 1_555
C5_2 C6_2 1_555 1_555
C5_2 C7_2 1_555 1_555
Co1_2 N1_2 1_555 1_555
Co9 O6_2 1_555 1_555
N1_2 C15_2 1_555 1_555
N2_2 N3_2 1_555 1_555
N3_2 C21_2 1_555 1_555
O1_2 Co1_2 1_555 1_555
O2_2 C14_2 1_555 1_555
O4_2 Co1_2 1_555 1_555
H1_2 O4_2 1_555 1_555
H2_2 O4_2 1_555 1_555
O5_2 Co1_2 1_555 1_555
H4_2 O5_2 1_555 1_555
O6_2 Co1_2 1_555 1_555
O7_2 S1_2 1_555 1_555
S1_2 O6_2 1_555 1_555
C8_2 O3_2 1_555 1_555
C9_2 C8_2 1_555 1_555
C10_2 C9_2 1_555 1_555
H10_2 C10_2 1_555 1_555
C11_2 C10_2 1_555 1_555
C12_2 C11_2 1_555 1_555
H11_2 C12_2 1_555 1_555
C13_2 C8_2 1_555 1_555
H12_2 C13_2 1_555 1_555
C14_2 O1_2 1_555 1_555
C15_2 H13_2 1_555 1_555
C16_2 C15_2 1_555 1_555
H14_2 C16_2 1_555 1_555
C17_2 C16_2 1_555 1_555
C18_2 C17_2 1_555 1_555
H15_2 C18_2 1_555 1_555
C19_2 N1_2 1_555 1_555
H16_2 C19_2 1_555 1_555
C20_2 N2_2 1_555 1_555
H17_2 C20_2 1_555 1_555
C21_2 H18_2 1_555 1_555
C22_2 C21_2 1_555 1_555
C23_2 C22_2 1_555 1_555
H19_2 C23_2 1_555 1_555
O20_2 Co9 1_555 1_555
O22_2 Co1_2 1_555 1_555
C11_2 C14_2 1_555 1_555
C12_2 C13_2 1_555 1_555
C17_2 C20_2 1_555 1_555
C18_2 C19_2 1_555 1_555
N9 C25_2 1_555 1_555
H20_2 C24_2 1_555 1_555
C25_2 C24_2 1_555 1_555
H21_2 C25_2 1_555 1_555
C26_2 N9 1_555 1_555
O13_2 C40_2 1_555 1_555
O14_2 C33_2 1_555 1_555
H23_2 O15_2 1_555 1_555
H24_2 O15_2 1_555 1_555
O20_2 C27_2 1_555 1_555
O22_2 C27_2 1_555 1_555
C27_2 C28_2 1_555 1_555
C28_2 C29_2 1_555 1_555
C29_2 H27_2 1_555 1_555
C30_2 C29_2 1_555 1_555
H28_2 C30_2 1_555 1_555
C31_2 H29_2 1_555 1_555
C32_2 C28_2 1_555 1_555
H30_2 C32_2 1_555 1_555
C33_2 C30_2 1_555 1_555
C34_2 O14_2 1_555 1_555
C35_2 C34_2 1_555 1_555
H31_2 C35_2 1_555 1_555
C36_2 C35_2 1_555 1_555
H32_2 C36_2 1_555 1_555
C37_2 C36_2 1_555 1_555
C38_2 C37_2 1_555 1_555
H33_2 C38_2 1_555 1_555
C39_2 C34_2 1_555 1_555
H34_2 C39_2 1_555 1_555
C40_2 O12_2 1_555 1_555
C31_2 C32_2 1_555 1_555
C31_2 C33_2 1_555 1_555
C37_2 C40_2 1_555 1_555
C38_2 C39_2 1_555 1_555
N4_2 C25_3 1_555 1_555
H20_3 C24_3 1_555 1_555
C25_3 C24_3 1_555 1_555
H21_3 C25_3 1_555 1_555
C26_3 N4_2 1_555 1_555
Co9_2 N4_2 1_555 1_555
O10 Co2_2 1_555 1_555
O11 S1_3 1_555 1_555
Co3 O10 1_555 1_555
N5 Co3 1_555 1_555
N6 N7 1_555 1_555
N7 C47 1_555 1_555
N8 C51 1_555 1_555
O16 Co3 1_555 1_555
H26 O16 1_555 1_555
C41 N5 1_555 1_555
H35 C41 1_555 1_555
C42 C41 1_555 1_555
H36 C42 1_555 1_555
C43 C42 1_555 1_555
C44 C43 1_555 1_555
H37 C44 1_555 1_555
C45 N5 1_555 1_555
H38 C45 1_555 1_555
C46 N6 1_555 1_555
H39 C46 1_555 1_555
C47 H40 1_555 1_555
C48 C47 1_555 1_555
C49 C48 1_555 1_555
H41 C49 1_555 1_555
C50 C48 1_555 1_555
H42 C50 1_555 1_555
C51 C50 1_555 1_555
H43 C51 1_555 1_555
C52 N8 1_555 1_555
H44 C52 1_555 1_555
Co9_2 N8 1_555 1_555
N10 Co2_2 1_555 1_555
O19 Co2_2 1_555 1_555
S1_3 O10 1_555 1_555
C43 C46 1_555 1_555
C44 C45 1_555 1_555
C49 C52 1_555 1_555
O19 C1 1_555 1_555
C1 C2 1_555 1_555
C2 C3 1_555 1_555
C3 H5 1_555 1_555
C4 C3 1_555 1_555
H6_2 C4 1_555 1_555
O17 C27_3 1_555 1_555
O18 C27_3 1_555 1_555
C27_3 C28_3 1_555 1_555
C28_3 C29_3 1_555 1_555
C29_3 H27_3 1_555 1_555
C30_3 C29_3 1_555 1_555
C31_3 H29_3 1_555 1_555
C32_3 C28_3 1_555 1_555
H30_3 C32_3 1_555 1_555
C33_3 C30_3 1_555 1_555
Co4 O18 1_555 1_555
Co9_2 O17 1_555 1_555
C31_3 C32_3 1_555 1_555
C31_3 C33_3 1_555 1_555
O13_3 C40_3 1_555 1_555
H23_3 O15_3 1_555 1_555
H24_3 O15_3 1_555 1_555
C34_3 O14_3 1_555 1_555
C35_3 C34_3 1_555 1_555
C36_3 C35_3 1_555 1_555
H32_3 C36_3 1_555 1_555
C37_3 C36_3 1_555 1_555
C38_3 C37_3 1_555 1_555
H33_3 C38_3 1_555 1_555
C39_3 C34_3 1_555 1_555
H34_3 C39_3 1_555 1_555
C40_3 O12_3 1_555 1_555
C37_3 C40_3 1_555 1_555
C38_3 C39_3 1_555 1_555
O8 C1_2 1_555 1_555
C1_2 C2_2 1_555 1_555
C2_2 C3_2 1_555 1_555
C3_2 H5_2 1_555 1_555
C4_2 C3_2 1_555 1_555
Co9_2 O8 1_555 1_555
Co4 N1_3 1_555 1_555
Co9_2 O6_3 1_555 1_555
N1_3 C15_3 1_555 1_555
N2_3 N3_3 1_555 1_555
N3_3 C21_3 1_555 1_555
O1_3 Co4 1_555 1_555
O2_3 C14_3 1_555 1_555
O3_3 C7_3 1_555 1_555
O4_3 Co4 1_555 1_555
H1_3 O4_3 1_555 1_555
H2_3 O4_3 1_555 1_555
O5_3 Co4 1_555 1_555
H3_3 O5_3 1_555 1_555
H4_3 O5_3 1_555 1_555
O6_3 Co4 1_555 1_555
O7_3 S1_4 1_555 1_555
S1_4 O6_3 1_555 1_555
C5_3 H7_3 1_555 1_555
H8_3 C6_3 1_555 1_555
C8_3 O3_3 1_555 1_555
C9_3 C8_3 1_555 1_555
C10_3 C9_3 1_555 1_555
H10_3 C10_3 1_555 1_555
C11_3 C10_3 1_555 1_555
C12_3 C11_3 1_555 1_555
H11_3 C12_3 1_555 1_555
C13_3 C8_3 1_555 1_555
H12_3 C13_3 1_555 1_555
C14_3 O1_3 1_555 1_555
C15_3 H13_3 1_555 1_555
C16_3 C15_3 1_555 1_555
H14_3 C16_3 1_555 1_555
C17_3 C16_3 1_555 1_555
C18_3 C17_3 1_555 1_555
H15_3 C18_3 1_555 1_555
C19_3 N1_3 1_555 1_555
H16_3 C19_3 1_555 1_555
C20_3 N2_3 1_555 1_555
H17_3 C20_3 1_555 1_555
C21_3 H18_3 1_555 1_555
C22_3 C21_3 1_555 1_555
C23_3 C22_3 1_555 1_555
H19_3 C23_3 1_555 1_555
O10_2 Co9_2 1_555 1_555
O11_2 S1_4 1_555 1_555
Co5 O10_2 1_555 1_555
N5_2 Co5 1_555 1_555
N6_2 N7_2 1_555 1_555
N7_2 C47_2 1_555 1_555
N10 C51_2 1_555 1_555
O16_2 Co5 1_555 1_555
H26_2 O16_2 1_555 1_555
C41_2 N5_2 1_555 1_555
H35_2 C41_2 1_555 1_555
C42_2 C41_2 1_555 1_555
H36_2 C42_2 1_555 1_555
C43_2 C42_2 1_555 1_555
C44_2 C43_2 1_555 1_555
H37_2 C44_2 1_555 1_555
C45_2 N5_2 1_555 1_555
H38_2 C45_2 1_555 1_555
C46_2 N6_2 1_555 1_555
H39_2 C46_2 1_555 1_555
C47_2 H40_2 1_555 1_555
C48_2 C47_2 1_555 1_555
C49_2 C48_2 1_555 1_555
H41_2 C49_2 1_555 1_555
C50_2 C48_2 1_555 1_555
H42_2 C50_2 1_555 1_555
C51_2 C50_2 1_555 1_555
H43_2 C51_2 1_555 1_555
C52_2 N10 1_555 1_555
H44_2 C52_2 1_555 1_555
S1_4 O10_2 1_555 1_555
C5_3 C6_3 1_555 1_555
C5_3 C7_3 1_555 1_555
C11_3 C14_3 1_555 1_555
C12_3 C13_3 1_555 1_555
C17_3 C20_3 1_555 1_555
C18_3 C19_3 1_555 1_555
C43_2 C46_2 1_555 1_555
C44_2 C45_2 1_555 1_555
C49_2 C52_2 1_555 1_555
O8_2 C1_3 1_555 1_555
C1_3 C2_3 1_555 1_555
C2_3 C3_3 1_555 1_555
C3_3 H5_3 1_555 1_555
C4_3 C3_3 1_555 1_555
Co7 O8_2 1_555 1_555
O13_4 C40_4 1_555 1_555
H23_4 O15_4 1_555 1_555
H24_4 O15_4 1_555 1_555
C34_4 O14_4 1_555 1_555
C35_4 C34_4 1_555 1_555
C36_4 C35_4 1_555 1_555
H32_4 C36_4 1_555 1_555
C37_4 C36_4 1_555 1_555
C38_4 C37_4 1_555 1_555
H33_4 C38_4 1_555 1_555
C39_4 C34_4 1_555 1_555
H34_4 C39_4 1_555 1_555
C40_4 O12_4 1_555 1_555
C37_4 C40_4 1_555 1_555
C38_4 C39_4 1_555 1_555
O17_2 C27_4 1_555 1_555
O18_2 C27_4 1_555 1_555
C27_4 C28_4 1_555 1_555
C28_4 C29_4 1_555 1_555
C29_4 H27_4 1_555 1_555
C30_4 C29_4 1_555 1_555
C31_4 H29_4 1_555 1_555
C32_4 C28_4 1_555 1_555
H30_4 C32_4 1_555 1_555
C33_4 C30_4 1_555 1_555
Co4_2 O18_2 1_555 1_555
Co7 O17_2 1_555 1_555
C31_4 C32_4 1_555 1_555
C31_4 C33_4 1_555 1_555
Co4_2 N1_4 1_555 1_555
Co7 O6_4 1_555 1_555
N1_4 C15_4 1_555 1_555
N2_4 N3_4 1_555 1_555
N3_4 C21_4 1_555 1_555
O1_4 Co4_2 1_555 1_555
O2_4 C14_4 1_555 1_555
O3_4 C7_4 1_555 1_555
O4_4 Co4_2 1_555 1_555
H1_4 O4_4 1_555 1_555
H2_4 O4_4 1_555 1_555
O5_4 Co4_2 1_555 1_555
H3_4 O5_4 1_555 1_555
H4_4 O5_4 1_555 1_555
O6_4 Co4_2 1_555 1_555
O7_4 S1_5 1_555 1_555
S1_5 O6_4 1_555 1_555
C5_4 H7_4 1_555 1_555
H8_4 C6_4 1_555 1_555
C8_4 O3_4 1_555 1_555
C9_4 C8_4 1_555 1_555
C10_4 C9_4 1_555 1_555
H10_4 C10_4 1_555 1_555
C11_4 C10_4 1_555 1_555
C12_4 C11_4 1_555 1_555
H11_4 C12_4 1_555 1_555
C13_4 C8_4 1_555 1_555
H12_4 C13_4 1_555 1_555
C14_4 O1_4 1_555 1_555
C15_4 H13_4 1_555 1_555
C16_4 C15_4 1_555 1_555
H14_4 C16_4 1_555 1_555
C17_4 C16_4 1_555 1_555
C18_4 C17_4 1_555 1_555
H15_4 C18_4 1_555 1_555
C19_4 N1_4 1_555 1_555
H16_4 C19_4 1_555 1_555
C20_4 N2_4 1_555 1_555
H17_4 C20_4 1_555 1_555
C21_4 H18_4 1_555 1_555
C22_4 C21_4 1_555 1_555
C23_4 C22_4 1_555 1_555
H19_4 C23_4 1_555 1_555
O10_3 Co7 1_555 1_555
O11_3 S1_5 1_555 1_555
Co5_2 O10_3 1_555 1_555
N5_3 Co5_2 1_555 1_555
N6_3 N7_3 1_555 1_555
N7_3 C47_3 1_555 1_555
N8_2 C51_3 1_555 1_555
O16_3 Co5_2 1_555 1_555
H26_3 O16_3 1_555 1_555
C41_3 N5_3 1_555 1_555
H35_3 C41_3 1_555 1_555
C42_3 C41_3 1_555 1_555
H36_3 C42_3 1_555 1_555
C43_3 C42_3 1_555 1_555
C44_3 C43_3 1_555 1_555
H37_3 C44_3 1_555 1_555
C45_3 N5_3 1_555 1_555
H38_3 C45_3 1_555 1_555
C46_3 N6_3 1_555 1_555
H39_3 C46_3 1_555 1_555
C47_3 H40_3 1_555 1_555
C48_3 C47_3 1_555 1_555
C49_3 C48_3 1_555 1_555
H41_3 C49_3 1_555 1_555
C50_3 C48_3 1_555 1_555
H42_3 C50_3 1_555 1_555
C51_3 C50_3 1_555 1_555
H43_3 C51_3 1_555 1_555
C52_3 N8_2 1_555 1_555
H44_3 C52_3 1_555 1_555
Co9_3 N8_2 1_555 1_555
N9_2 Co7 1_555 1_555
N10_2 Co7 1_555 1_555
S1_5 O10_3 1_555 1_555
C5_4 C6_4 1_555 1_555
C5_4 C7_4 1_555 1_555
C11_4 C14_4 1_555 1_555
C12_4 C13_4 1_555 1_555
C17_4 C20_4 1_555 1_555
C18_4 C19_4 1_555 1_555
C43_3 C46_3 1_555 1_555
C44_3 C45_3 1_555 1_555
C49_3 C52_3 1_555 1_555
O10_4 Co9_3 1_555 1_555
O11_4 S1_6 1_555 1_555
Co3_2 O10_4 1_555 1_555
N5_4 Co3_2 1_555 1_555
N6_4 N7_4 1_555 1_555
N7_4 C47_4 1_555 1_555
N10_2 C51_4 1_555 1_555
O16_4 Co3_2 1_555 1_555
H26_4 O16_4 1_555 1_555
C41_4 N5_4 1_555 1_555
H35_4 C41_4 1_555 1_555
C42_4 C41_4 1_555 1_555
H36_4 C42_4 1_555 1_555
C43_4 C42_4 1_555 1_555
C44_4 C43_4 1_555 1_555
H37_4 C44_4 1_555 1_555
C45_4 N5_4 1_555 1_555
H38_4 C45_4 1_555 1_555
C46_4 N6_4 1_555 1_555
H39_4 C46_4 1_555 1_555
C47_4 H40_4 1_555 1_555
C48_4 C47_4 1_555 1_555
C49_4 C48_4 1_555 1_555
H41_4 C49_4 1_555 1_555
C50_4 C48_4 1_555 1_555
H42_4 C50_4 1_555 1_555
C51_4 C50_4 1_555 1_555
H43_4 C51_4 1_555 1_555
C52_4 N10_2 1_555 1_555
H44_4 C52_4 1_555 1_555
O19_2 Co9_3 1_555 1_555
S1_6 O10_4 1_555 1_555
C43_4 C46_4 1_555 1_555
C44_4 C45_4 1_555 1_555
C49_4 C52_4 1_555 1_555
N9_2 C25_4 1_555 1_555
H20_4 C24_4 1_555 1_555
C25_4 C24_4 1_555 1_555
H21_4 C25_4 1_555 1_555
C26_4 N9_2 1_555 1_555
O19_2 C1_4 1_555 1_555
C1_4 C2_4 1_555 1_555
C2_4 C3_4 1_555 1_555
C3_4 H5_4 1_555 1_555
C4_4 C3_4 1_555 1_555
H6_3 C4_4 1_555 1_555

#END
