
###############################################################################
#
# This file contains modified crystal structure data generated from the
# MOF subset of the Cambridge Structural Database (CSD) v543 
# hosted by the Cambridge Crystallographic Data Centre (CCDC).
#
# This work is licensed under the Creative Commons
# Attribution-NonCommercial-ShareAlike 4.0 International License.
# To view a copy of this license, visit
# http://creativecommons.org/licenses/by-nc-sa/4.0/
# or send a letter to
# Creative Commons, PO Box 1866, Mountain View, CA 94042, USA.
#
# CIF created using the CSD Python API on 29 September 2022
# The structure has been converted into the P1 space group
# The structure has a 3D framework
# The original CSD entry KIGCEK is in the hexagonal crystal system
# The original CSD entry KIGCEK is in a Sohncke space group
# The framework has been calculated to contain at least 10.0% void space
# The void calculation uses a probe of radius 1.32A, grid spacing 0.4
#
###############################################################################

data_KIGCEK
_chemical_formula_moiety         '(C72 H96 N12 O29 Zn6)n'
_symmetry_cell_setting           triclinic
_symmetry_space_group_name_H-M   'P 1'
_symmetry_Int_Tables_number      1
_space_group_name_Hall           'P 1'
loop_
_symmetry_equiv_pos_site_id
_symmetry_equiv_pos_as_xyz
1 x,y,z
_cell_length_a                   17.4807(3)
_cell_length_b                   17.4807(3)
_cell_length_c                   10.4350(2)
_cell_angle_alpha                90
_cell_angle_beta                 90
_cell_angle_gamma                120
_cell_volume                     2761.47
loop_
_atom_site_label
_atom_site_type_symbol
_atom_site_fract_x
_atom_site_fract_y
_atom_site_fract_z
Zn1 Zn 0.46481(4) 0.53607(4) 0.08799(8)
O1 O 0.4905(2) 0.5164(2) 0.2809(4)
O2 O 0.5605(3) 0.4615(3) 0.3931(4)
O3 O 0.6707(4) 0.5461(5) 0.0502(7)
H1 H 0.6525 0.5789 0.0742
O4 O 0.5360(3) 0.6651(3) 0.0943(5)
O5 O 0.6627(8) 0.6851(8) 0.1796(12)
N2 N 0.4960(3) 0.4366(3) 0.0625(4)
C3 C 0.4343(4) 0.2783(4) 0.0108(6)
C4 C 0.4206(4) 0.2132(4) 0.0978(7)
H5 H 0.3925 0.2088 0.1754
C5 C 0.4493(4) 0.1541(4) 0.0682(6)
H6 H 0.4390 0.1100 0.1270
C6 C 0.4126(3) 0.3496(4) 0.0414(6)
H8 H 0.3763 0.3335 0.1179
C7 C 0.5471(3) 0.4340(4) 0.1719(5)
H9 H 0.5264 0.3717 0.1911
C8 C 0.5311(3) 0.4750(4) 0.2911(5)
C9 C 0.6478(4) 0.4790(4) 0.1397(6)
H10 H 0.6825 0.5035 0.2181
C10 C 0.6732(7) 0.4173(7) 0.0769(13)
H11 H 0.6308 0.3574 0.0990
H12 H 0.7307 0.4307 0.1062
C11 C 0.6139(7) 0.7097(7) 0.1010(12)
C12 C 0.6595(5) 0.8065(5) 0.0946(15)
H14 H 0.6474 0.8243 0.0136
H15 H 0.7220 0.8300 0.1033
H16 H 0.6389 0.8286 0.1626
Zn2 Zn 0.53519(4) 0.46393(4) 0.58799(8)
N3 N 0.3335(4) 0.4912(3) 0.1257(4)
N1 N 0.4912(3) 0.1577(3) 0.9590(4)
H2 H 0.5300 0.4493 0.9910
C1 C 0.5026(4) 0.2201(4) 0.8736(6)
H3 H 0.5305 0.2229 0.7963
C2 C 0.4748(5) 0.2801(4) 0.8957(6)
H4 H 0.4832 0.3218 0.8336
H7 H 0.3793 0.3551 0.9713
H13 H 0.6743 0.4243 0.9856
Zn3 Zn 0.53607(4) 0.07126(6) 0.92132(8)
O6 O 0.4395(3) 0.5385(3) 0.8931(4)
O2_2 O 0.0990(4) 0.5605(3) 0.5598(4)
O3_2 O 0.1246(6) 0.6707(4) 0.2169(7)
H1_2 H 0.0736 0.6525 0.2409
N2_2 N 0.0594(4) 0.4960(3) 0.2292(4)
H2_2 H 0.0807 0.5300 0.1577
C1_2 C 0.2825(6) 0.5026(4) 0.0403(6)
C2_2 C 0.1947(6) 0.4748(5) 0.0624(6)
H4_2 H 0.1614 0.4832 0.0003
C3_2 C 0.1560(6) 0.4343(4) 0.1775(6)
C4_2 C 0.2074(6) 0.4206(4) 0.2645(7)
H5_2 H 0.1837 0.3925 0.3421
C5_2 C 0.2952(6) 0.4493(4) 0.2349(6)
H6_2 H 0.3290 0.4390 0.2937
C6_2 C 0.0630(5) 0.4126(3) 0.2081(6)
H7_2 H 0.0242 0.3793 0.1380
H8_2 H 0.0428 0.3763 0.2846
C7_2 C 0.1131(5) 0.5471(3) 0.3386(5)
H9_2 H 0.1547 0.5264 0.3578
C8_2 C 0.0561(5) 0.5311(3) 0.4578(5)
C9_2 C 0.1688(6) 0.6478(4) 0.3064(6)
H10_2 H 0.1790 0.6825 0.3848
C10_2 C 0.2559(10) 0.6732(7) 0.2436(13)
H11_2 H 0.2734 0.6308 0.2657
H12_2 H 0.3000 0.7307 0.2729
H13_2 H 0.2500 0.6743 0.1523
Zn2_2 Zn 0.07126(6) 0.53519(4) 0.75466(8)
Zn1_2 Zn 0.92874(6) 0.46481(4) 0.25466(8)
O1_2 O 0.9741(3) 0.4905(2) 0.4476(4)
O4_2 O 0.8709(4) 0.5360(3) 0.2610(5)
O5_2 O 0.9776(11) 0.6627(8) 0.3463(12)
C11_2 C 0.9042(10) 0.6139(7) 0.2677(12)
C12_2 C 0.8530(7) 0.6595(5) 0.2613(15)
H14_2 H 0.8231 0.6474 0.1803
H15_2 H 0.8920 0.7220 0.2700
H16_2 H 0.8103 0.6389 0.3293
O6_2 O 0.9010(4) 0.4395(3) 0.0598(4)
N3_2 N 0.8423(5) 0.3335(4) 0.2923(4)
O2_3 O 0.5385(3) 0.0990(4) 0.7264(4)
O3_3 O 0.4539(5) 0.1246(6) 0.3835(7)
H1_3 H 0.4211 0.0736 0.4075
N2_3 N 0.5634(3) 0.0594(4) 0.3958(4)
H2_3 H 0.5507 0.0807 0.3243
C1_3 C 0.7799(4) 0.2825(6) 0.2069(6)
H3_2 H 0.7771 0.3076 0.1296
C2_3 C 0.7199(4) 0.1947(6) 0.2290(6)
H4_3 H 0.6782 0.1614 0.1669
C3_3 C 0.7217(4) 0.1560(6) 0.3441(6)
C4_3 C 0.7868(4) 0.2074(6) 0.4311(7)
H5_3 H 0.7912 0.1837 0.5087
C5_3 C 0.8459(4) 0.2952(6) 0.4015(6)
H6_3 H 0.8900 0.3290 0.4603
C6_3 C 0.6504(4) 0.0630(5) 0.3747(6)
H7_3 H 0.6449 0.0242 0.3046
H8_3 H 0.6665 0.0428 0.4512
C7_3 C 0.5660(4) 0.1131(5) 0.5052(5)
H9_3 H 0.6283 0.1547 0.5244
C8_3 C 0.5250(4) 0.0561(5) 0.6244(5)
C9_3 C 0.5210(4) 0.1688(6) 0.4730(6)
H10_3 H 0.4965 0.1790 0.5514
C10_3 C 0.5827(7) 0.2559(10) 0.4102(13)
H11_3 H 0.6426 0.2734 0.4323
H12_3 H 0.5693 0.3000 0.4395
H13_3 H 0.5757 0.2500 0.3189
Zn1_3 Zn 0.46393(4) 0.92874(6) 0.42132(8)
O1_3 O 0.4836(2) 0.9741(3) 0.6142(4)
O4_3 O 0.3349(3) 0.8709(4) 0.4276(5)
O5_3 O 0.3149(8) 0.9776(11) 0.5129(12)
C11_3 C 0.2903(7) 0.9042(10) 0.4343(12)
C12_3 C 0.1935(5) 0.8530(7) 0.4279(15)
H14_3 H 0.1757 0.8231 0.3469
H15_3 H 0.1700 0.8920 0.4366
H16_3 H 0.1714 0.8103 0.4959
O6_3 O 0.4615(3) 0.9010(4) 0.2264(4)
N3_3 N 0.5088(3) 0.8423(5) 0.4590(4)
O1_4 O 0.5095(2) 0.4836(2) 0.7809(4)
O3_4 O 0.3293(4) 0.4539(5) 0.5502(7)
H1_4 H 0.3475 0.4211 0.5742
O4_4 O 0.4640(3) 0.3349(3) 0.5943(5)
O5_4 O 0.3373(8) 0.3149(8) 0.6796(12)
N2_4 N 0.5040(3) 0.5634(3) 0.5625(4)
H2_4 H 0.4700 0.5507 0.4910
C1_4 C 0.4974(4) 0.7799(4) 0.3736(6)
H3_3 H 0.4695 0.7771 0.2963
C2_4 C 0.5252(5) 0.7199(4) 0.3957(6)
H4_4 H 0.5168 0.6782 0.3336
C3_4 C 0.5657(4) 0.7217(4) 0.5108(6)
C4_4 C 0.5794(4) 0.7868(4) 0.5978(7)
H5_4 H 0.6075 0.7912 0.6754
C5_4 C 0.5507(4) 0.8459(4) 0.5682(6)
H6_4 H 0.5610 0.8900 0.6270
C6_4 C 0.5874(3) 0.6504(4) 0.5414(6)
H7_4 H 0.6207 0.6449 0.4713
H8_4 H 0.6237 0.6665 0.6179
C7_4 C 0.4529(3) 0.5660(4) 0.6719(5)
H9_4 H 0.4736 0.6283 0.6911
C8_4 C 0.4689(3) 0.5250(4) 0.7911(5)
C9_4 C 0.3522(4) 0.5210(4) 0.6397(6)
H10_4 H 0.3175 0.4965 0.7181
C10_4 C 0.3268(7) 0.5827(7) 0.5769(13)
H11_4 H 0.3692 0.6426 0.5990
H12_4 H 0.2693 0.5693 0.6062
H13_4 H 0.3257 0.5757 0.4856
C11_4 C 0.3861(7) 0.2903(7) 0.6010(12)
C12_4 C 0.3405(5) 0.1935(5) 0.5946(15)
H14_4 H 0.3526 0.1757 0.5136
H15_4 H 0.2780 0.1700 0.6033
H16_4 H 0.3611 0.1714 0.6626
N3_4 N 0.6665(4) 0.5088(3) 0.6257(4)
O1_5 O 0.0259(3) 0.5095(2) 0.9476(4)
O4_5 O 0.1291(4) 0.4640(3) 0.7610(5)
O5_5 O 0.0224(11) 0.3373(8) 0.8463(12)
C11_5 C 0.0958(10) 0.3861(7) 0.7677(12)
C12_5 C 0.1470(7) 0.3405(5) 0.7613(15)
H14_5 H 0.1769 0.3526 0.6803
H15_5 H 0.1080 0.2780 0.7700
H16_5 H 0.1897 0.3611 0.8293
N3_5 N 0.1577(5) 0.6665(4) 0.7923(4)
O3_5 O 0.8754(6) 0.3293(4) 0.7169(7)
H1_5 H 0.9264 0.3475 0.7409
N2_5 N 0.9406(4) 0.5040(3) 0.7292(4)
H2_5 H 0.9193 0.4700 0.6577
C1_5 C 0.7175(6) 0.4974(4) 0.5403(6)
H3_4 H 0.6924 0.4695 0.4630
C2_5 C 0.8053(6) 0.5252(5) 0.5624(6)
H4_5 H 0.8386 0.5168 0.5003
C3_5 C 0.8440(6) 0.5657(4) 0.6775(6)
C4_5 C 0.7926(6) 0.5794(4) 0.7645(7)
H5_5 H 0.8163 0.6075 0.8421
C5_5 C 0.7048(6) 0.5507(4) 0.7349(6)
H6_5 H 0.6710 0.5610 0.7937
C6_5 C 0.9370(5) 0.5874(3) 0.7081(6)
H7_5 H 0.9758 0.6207 0.6380
H8_5 H 0.9572 0.6237 0.7846
C7_5 C 0.8869(5) 0.4529(3) 0.8386(5)
H9_5 H 0.8453 0.4736 0.8578
C8_5 C 0.9439(5) 0.4689(3) 0.9578(5)
C9_5 C 0.8312(6) 0.3522(4) 0.8064(6)
H10_5 H 0.8210 0.3175 0.8848
C10_5 C 0.7441(10) 0.3268(7) 0.7436(13)
H11_5 H 0.7266 0.3692 0.7657
H12_5 H 0.7000 0.2693 0.7729
H13_5 H 0.7500 0.3257 0.6523
O4_6 O 0.6651(3) 0.1291(4) 0.9276(5)
C11_6 C 0.7097(7) 0.0958(10) 0.9343(12)
C12_6 C 0.8065(5) 0.1470(7) 0.9279(15)
H14_6 H 0.8243 0.1769 0.8469
H15_6 H 0.8300 0.1080 0.9366
H16_6 H 0.8286 0.1897 0.9959
H5_6 H 0.2088 0.8163 0.0087
C7_6 C 0.4340(4) 0.8869(5) 0.0052(5)
H9_6 H 0.3717 0.8453 0.0244
C8_6 C 0.4750(4) 0.9439(5) 0.1244(5)
H10_6 H 0.5035 0.8210 0.0514
O3_6 O 0.5461(5) 0.8754(6) 0.8835(7)
H1_6 H 0.5789 0.9264 0.9075
N2_6 N 0.4366(3) 0.9406(4) 0.8958(4)
H2_6 H 0.4493 0.9193 0.8243
C1_6 C 0.2201(4) 0.7175(6) 0.7069(6)
H3_5 H 0.2229 0.6924 0.6296
C2_6 C 0.2801(4) 0.8053(6) 0.7290(6)
H4_6 H 0.3218 0.8386 0.6669
C3_6 C 0.2783(4) 0.8440(6) 0.8441(6)
C4_6 C 0.2132(4) 0.7926(6) 0.9311(7)
C5_6 C 0.1541(4) 0.7048(6) 0.9015(6)
H6_6 H 0.1100 0.6710 0.9603
C6_6 C 0.3496(4) 0.9370(5) 0.8747(6)
H7_6 H 0.3551 0.9758 0.8046
H8_6 H 0.3335 0.9572 0.9512
C9_6 C 0.4790(4) 0.8312(6) 0.9730(6)
C10_6 C 0.4173(7) 0.7441(10) 0.9102(13)
H11_6 H 0.3574 0.7266 0.9323
H12_6 H 0.4307 0.7000 0.9395
H13_6 H 0.4243 0.7500 0.8189
H3_6 H 0.3076 0.5305 0.9630
O1_6 O 0.5164(2) 0.0259(3) 0.1142(4)
O5_6 O 0.6851(8) 0.0224(11) 0.0129(12)
loop_
_geom_bond_atom_site_label_1
_geom_bond_atom_site_label_2
_geom_bond_site_symmetry_1
_geom_bond_site_symmetry_2
Zn1 O1 1_555 1_555
O1 C8 1_555 1_555
O2 C8 1_555 1_555
O3 H1 1_555 1_555
O4 Zn1 1_555 1_555
O5 C11 1_555 1_555
N2 Zn1 1_555 1_555
C4 C3 1_555 1_555
H5 C4 1_555 1_555
H6 C5 1_555 1_555
C6 N2 1_555 1_555
H8 C6 1_555 1_555
C7 N2 1_555 1_555
H9 C7 1_555 1_555
C8 C7 1_555 1_555
C9 O3 1_555 1_555
H10 C9 1_555 1_555
C10 C9 1_555 1_555
H11 C10 1_555 1_555
H12 C10 1_555 1_555
C11 O4 1_555 1_555
C12 C11 1_555 1_555
H14 C12 1_555 1_555
H15 C12 1_555 1_555
H16 C12 1_555 1_555
Zn2 O2 1_555 1_555
N3 Zn1 1_555 1_555
C3 C6 1_555 1_555
C4 C5 1_555 1_555
C7 C9 1_555 1_555
N1 C1 1_555 1_555
C1 H3 1_555 1_555
C2 C1 1_555 1_555
H4 C2 1_555 1_555
Zn3 N1 1_555 1_555
O2_2 C8_2 1_555 1_555
O3_2 H1_2 1_555 1_555
N3 C1_2 1_555 1_555
H2_2 N2_2 1_555 1_555
C2_2 C1_2 1_555 1_555
H4_2 C2_2 1_555 1_555
C3_2 C2_2 1_555 1_555
C4_2 C3_2 1_555 1_555
H5_2 C4_2 1_555 1_555
C5_2 N3 1_555 1_555
H6_2 C5_2 1_555 1_555
C6_2 N2_2 1_555 1_555
H7_2 C6_2 1_555 1_555
H8_2 C6_2 1_555 1_555
C7_2 N2_2 1_555 1_555
H9_2 C7_2 1_555 1_555
C8_2 C7_2 1_555 1_555
C9_2 O3_2 1_555 1_555
H10_2 C9_2 1_555 1_555
C10_2 C9_2 1_555 1_555
H11_2 C10_2 1_555 1_555
H12_2 C10_2 1_555 1_555
H13_2 C10_2 1_555 1_555
Zn2_2 O2_2 1_555 1_555
C3_2 C6_2 1_555 1_555
C4_2 C5_2 1_555 1_555
C7_2 C9_2 1_555 1_555
Zn1_2 O1_2 1_555 1_555
O4_2 Zn1_2 1_555 1_555
O5_2 C11_2 1_555 1_555
C11_2 O4_2 1_555 1_555
C12_2 C11_2 1_555 1_555
H14_2 C12_2 1_555 1_555
H15_2 C12_2 1_555 1_555
H16_2 C12_2 1_555 1_555
O6_2 Zn1_2 1_555 1_555
N3_2 Zn1_2 1_555 1_555
O2_3 C8_3 1_555 1_555
O3_3 H1_3 1_555 1_555
N3_2 C1_3 1_555 1_555
H2_3 N2_3 1_555 1_555
C1_3 H3_2 1_555 1_555
C2_3 C1_3 1_555 1_555
H4_3 C2_3 1_555 1_555
C3_3 C2_3 1_555 1_555
C4_3 C3_3 1_555 1_555
H5_3 C4_3 1_555 1_555
C5_3 N3_2 1_555 1_555
H6_3 C5_3 1_555 1_555
C6_3 N2_3 1_555 1_555
H7_3 C6_3 1_555 1_555
H8_3 C6_3 1_555 1_555
C7_3 N2_3 1_555 1_555
H9_3 C7_3 1_555 1_555
C8_3 C7_3 1_555 1_555
C9_3 O3_3 1_555 1_555
H10_3 C9_3 1_555 1_555
C10_3 C9_3 1_555 1_555
H11_3 C10_3 1_555 1_555
H12_3 C10_3 1_555 1_555
H13_3 C10_3 1_555 1_555
Zn3 O2_3 1_555 1_555
C3_3 C6_3 1_555 1_555
C4_3 C5_3 1_555 1_555
C7_3 C9_3 1_555 1_555
Zn1_3 O1_3 1_555 1_555
O4_3 Zn1_3 1_555 1_555
O5_3 C11_3 1_555 1_555
C11_3 O4_3 1_555 1_555
C12_3 C11_3 1_555 1_555
H14_3 C12_3 1_555 1_555
H15_3 C12_3 1_555 1_555
H16_3 C12_3 1_555 1_555
O6_3 Zn1_3 1_555 1_555
N3_3 Zn1_3 1_555 1_555
Zn2 O1_4 1_555 1_555
O1_4 C8_4 1_555 1_555
O6 C8_4 1_555 1_555
O3_4 H1_4 1_555 1_555
O4_4 Zn2 1_555 1_555
O5_4 C11_4 1_555 1_555
N3_3 C1_4 1_555 1_555
N2_4 Zn2 1_555 1_555
H2_4 N2_4 1_555 1_555
C1_4 H3_3 1_555 1_555
C2_4 C1_4 1_555 1_555
H4_4 C2_4 1_555 1_555
C3_4 C2_4 1_555 1_555
C4_4 C3_4 1_555 1_555
H5_4 C4_4 1_555 1_555
C5_4 N3_3 1_555 1_555
H6_4 C5_4 1_555 1_555
C6_4 N2_4 1_555 1_555
H7_4 C6_4 1_555 1_555
H8_4 C6_4 1_555 1_555
C7_4 N2_4 1_555 1_555
H9_4 C7_4 1_555 1_555
C8_4 C7_4 1_555 1_555
C9_4 O3_4 1_555 1_555
H10_4 C9_4 1_555 1_555
C10_4 C9_4 1_555 1_555
H11_4 C10_4 1_555 1_555
H12_4 C10_4 1_555 1_555
H13_4 C10_4 1_555 1_555
C11_4 O4_4 1_555 1_555
C12_4 C11_4 1_555 1_555
H14_4 C12_4 1_555 1_555
H15_4 C12_4 1_555 1_555
H16_4 C12_4 1_555 1_555
N3_4 Zn2 1_555 1_555
C3_4 C6_4 1_555 1_555
C4_4 C5_4 1_555 1_555
C7_4 C9_4 1_555 1_555
Zn2_2 O1_5 1_555 1_555
O4_5 Zn2_2 1_555 1_555
O5_5 C11_5 1_555 1_555
C11_5 O4_5 1_555 1_555
C12_5 C11_5 1_555 1_555
H14_5 C12_5 1_555 1_555
H15_5 C12_5 1_555 1_555
H16_5 C12_5 1_555 1_555
N3_5 Zn2_2 1_555 1_555
O3_5 H1_5 1_555 1_555
N3_4 C1_5 1_555 1_555
H2_5 N2_5 1_555 1_555
C1_5 H3_4 1_555 1_555
C2_5 C1_5 1_555 1_555
H4_5 C2_5 1_555 1_555
C3_5 C2_5 1_555 1_555
C4_5 C3_5 1_555 1_555
H5_5 C4_5 1_555 1_555
C5_5 N3_4 1_555 1_555
H6_5 C5_5 1_555 1_555
C6_5 N2_5 1_555 1_555
H7_5 C6_5 1_555 1_555
H8_5 C6_5 1_555 1_555
C7_5 N2_5 1_555 1_555
H9_5 C7_5 1_555 1_555
C8_5 C7_5 1_555 1_555
C9_5 O3_5 1_555 1_555
H10_5 C9_5 1_555 1_555
C10_5 C9_5 1_555 1_555
H11_5 C10_5 1_555 1_555
H12_5 C10_5 1_555 1_555
H13_5 C10_5 1_555 1_555
C3_5 C6_5 1_555 1_555
C4_5 C5_5 1_555 1_555
C7_5 C9_5 1_555 1_555
O4_6 Zn3 1_555 1_555
C11_6 O4_6 1_555 1_555
C12_6 C11_6 1_555 1_555
H14_6 C12_6 1_555 1_555
H15_6 C12_6 1_555 1_555
H16_6 C12_6 1_555 1_555
O6_3 C8_6 1_555 1_555
H9_6 C7_6 1_555 1_555
C8_6 C7_6 1_555 1_555
O3_6 H1_6 1_555 1_555
N3_5 C1_6 1_555 1_555
H2_6 N2_6 1_555 1_555
C1_6 H3_5 1_555 1_555
C2_6 C1_6 1_555 1_555
H4_6 C2_6 1_555 1_555
C3_6 C2_6 1_555 1_555
C4_6 C3_6 1_555 1_555
C5_6 N3_5 1_555 1_555
H6_6 C5_6 1_555 1_555
C6_6 N2_6 1_555 1_555
H7_6 C6_6 1_555 1_555
H8_6 C6_6 1_555 1_555
C9_6 O3_6 1_555 1_555
C10_6 C9_6 1_555 1_555
H11_6 C10_6 1_555 1_555
H12_6 C10_6 1_555 1_555
H13_6 C10_6 1_555 1_555
C3_6 C6_6 1_555 1_555
C4_6 C5_6 1_555 1_555

#END
