
###############################################################################
#
# This file contains modified crystal structure data generated from the
# MOF subset of the Cambridge Structural Database (CSD) v543 
# hosted by the Cambridge Crystallographic Data Centre (CCDC).
#
# This work is licensed under the Creative Commons
# Attribution-NonCommercial-ShareAlike 4.0 International License.
# To view a copy of this license, visit
# http://creativecommons.org/licenses/by-nc-sa/4.0/
# or send a letter to
# Creative Commons, PO Box 1866, Mountain View, CA 94042, USA.
#
# CIF created using the CSD Python API on 29 September 2022
# The structure has been converted into the P1 space group
# The structure has a 3D framework
# The original CSD entry KIHXUX is in the orthorhombic crystal system
# The framework has been calculated to contain at least 10.0% void space
# The void calculation uses a probe of radius 1.32A, grid spacing 0.4
# H atom positions have been added when not included in the experimental data
#
###############################################################################

data_KIHXUX
_chemical_formula_moiety         '(C192 H114 N30 O32 Ti8)n'
_symmetry_cell_setting           triclinic
_symmetry_space_group_name_H-M   'P 1'
_symmetry_Int_Tables_number      1
_space_group_name_Hall           'P 1'
loop_
_symmetry_equiv_pos_site_id
_symmetry_equiv_pos_as_xyz
1 x,y,z
_cell_length_a                   32.244(6)
_cell_length_b                   6.7620(14)
_cell_length_c                   33.761(7)
_cell_angle_alpha                90
_cell_angle_beta                 90
_cell_angle_gamma                90
_cell_volume                     7361.04
loop_
_atom_site_label
_atom_site_type_symbol
_atom_site_fract_x
_atom_site_fract_y
_atom_site_fract_z
Ti1 Ti 0.25516(3) 0.1223(2) 0.2500
O1 O 0.21294(10) 0.0662(5) 0.20770(10)
N2 N 0.06344(15) 0.0000 0.0000
C3 C 0.15633(12) 0.1004(4) 0.14746(12)
H1 H 0.1690 0.2169 0.1575
C4 C 0.12642(13) 0.1140(4) 0.11794(12)
H2 H 0.1187 0.2397 0.1078
O12 O 0.21294(10) 0.0662(5) 0.29230(10)
O14 O 0.29318(9) 0.2334(5) 0.29216(10)
O16 O 0.29318(9) 0.2334(5) 0.20784(10)
O18 O 0.22508(13) 0.3920(7) 0.2500
H25 H 0.0319613 0 0
N2_2 N 0.06344(15) 0.0000 1.0000
O5 O 0.20682(9) 0.2666(5) 0.79216(10)
N3 N 0.0000 0.0381(10) 0.93968(16)
C13 C 0.19879(14) 0.0940(8) 0.80410(15)
C14 C 0.16767(10) 0.0835(5) 0.83769(10)
C17 C 0.10784(10) 0.0564(6) 0.89674(10)
C18 C 0.11917(12) 0.2404(5) 0.88189(12)
H9 H 0.1065 0.3568 0.8919
C19 C 0.14909(12) 0.2539(4) 0.85237(12)
H10 H 0.1568 0.3797 0.8422
C20 C 0.02051(14) 0.0647(9) 0.87530(14)
H11 H 0.0380 0.0746 0.8527
C21 C 0.03383(14) 0.0468(9) 0.91590(14)
C22 C 0.07569(13) 0.0413(9) 0.92855(15)
C23 C 0.08879(13) 0.0201(9) 0.96753(14)
C24 C 0.13143(13) 0.0128(11) 0.97999(15)
H12 H 0.1551 0.0239 0.9634
Ti6 Ti 0.24484(3) 0.3777(2) 0.7500
H25_2 H 0.0319613 0 1
O2 O 0.20682(9) 0.7334(5) 0.20784(10)
O3 O 0.27492(13) 0.8920(7) 0.2500
N1 N 0.0000 0.9619(10) 0.06032(16)
N2_3 N 0.06344(15) 1.0000 0.0000
C1 C 0.19879(14) 0.9060(8) 0.19590(15)
C2 C 0.16767(10) 0.9165(5) 0.16231(10)
C5 C 0.10784(10) 0.9436(6) 0.10326(10)
C6 C 0.11917(12) 0.7596(5) 0.11811(12)
H3 H 0.1065 0.6432 0.1081
C7 C 0.14909(12) 0.7461(4) 0.14763(12)
H4 H 0.1568 0.6203 0.1578
C8 C 0.02051(14) 0.9353(9) 0.12470(14)
H5 H 0.0380 0.9254 0.1473
C9 C 0.03383(14) 0.9532(9) 0.08410(14)
C10 C 0.07569(13) 0.9587(9) 0.07145(15)
C11 C 0.08879(13) 0.9799(9) 0.03247(14)
C12 C 0.13143(13) 0.9872(11) 0.02001(15)
H6 H 0.1551 0.9761 0.0366
Ti8 Ti 0.24484(3) 0.6223(2) 0.2500
H25_3 H 0.0319613 1 0
N2_4 N 0.06344(15) 1.0000 1.0000
O4 O 0.21294(10) 0.9338(5) 0.79230(10)
C15 C 0.15633(12) 0.8996(4) 0.85254(12)
H7 H 0.1690 0.7831 0.8425
C16 C 0.12642(13) 0.8860(4) 0.88206(12)
H8 H 0.1187 0.7603 0.8922
Ti4 Ti 0.25516(3) 0.8777(2) 0.7500
H25_4 H 0.0319613 1 1
O6 O 0.78706(10) 0.0662(5) 0.20770(10)
N4 N 0.93656(15) 0.0000 0.0000
C27 C 0.84367(12) 0.1004(4) 0.14746(12)
H13 H 0.8310 0.2169 0.1575
C28 C 0.87358(13) 0.1140(4) 0.11794(12)
H14 H 0.8813 0.2397 0.1078
Ti2 Ti 0.74484(3) 0.1223(2) 0.2500
O11 O 0.78706(10) 0.0662(5) 0.29230(10)
O13 O 0.70682(9) 0.2334(5) 0.20784(10)
O15 O 0.70682(9) 0.2334(5) 0.29216(10)
O17 O 0.77492(13) 0.3920(7) 0.2500
H26 H 0.968039 0 0
N3_2 N 1.0000 0.0381(10) 0.93968(16)
N4_2 N 0.93656(15) 0.0000 1.0000
O9 O 0.79318(9) 0.2666(5) 0.79216(10)
C37 C 0.80121(14) 0.0940(8) 0.80410(15)
C38 C 0.83233(10) 0.0835(5) 0.83769(10)
C41 C 0.89216(10) 0.0564(6) 0.89674(10)
C42 C 0.88083(12) 0.2404(5) 0.88189(12)
H21 H 0.8935 0.3568 0.8919
C43 C 0.85091(12) 0.2539(4) 0.85237(12)
H22 H 0.8432 0.3797 0.8422
C44 C 0.97949(14) 0.0647(9) 0.87530(14)
H23 H 0.9620 0.0746 0.8527
C45 C 0.96617(14) 0.0468(9) 0.91590(14)
C46 C 0.92431(13) 0.0413(9) 0.92855(15)
C47 C 0.91121(13) 0.0201(9) 0.96753(14)
C48 C 0.86857(13) 0.0128(11) 0.97999(15)
H24 H 0.8449 0.0239 0.9634
Ti7 Ti 0.75516(3) 0.3777(2) 0.7500
H26_2 H 0.968039 0 1
N1_2 N 1.0000 0.9619(10) 0.06032(16)
O7 O 0.79318(9) 0.7334(5) 0.20784(10)
N4_3 N 0.93656(15) 1.0000 0.0000
C25 C 0.80121(14) 0.9060(8) 0.19590(15)
C26 C 0.83233(10) 0.9165(5) 0.16231(10)
C29 C 0.89216(10) 0.9436(6) 0.10326(10)
C30 C 0.88083(12) 0.7596(5) 0.11811(12)
H15 H 0.8935 0.6432 0.1081
C31 C 0.85091(12) 0.7461(4) 0.14763(12)
H16 H 0.8432 0.6203 0.1578
C32 C 0.97949(14) 0.9353(9) 0.12470(14)
H17 H 0.9620 0.9254 0.1473
C33 C 0.96617(14) 0.9532(9) 0.08410(14)
C34 C 0.92431(13) 0.9587(9) 0.07145(15)
C35 C 0.91121(13) 0.9799(9) 0.03247(14)
C36 C 0.86857(13) 0.9872(11) 0.02001(15)
H18 H 0.8449 0.9761 0.0366
O10 O 0.72508(13) 0.8920(7) 0.2500
Ti5 Ti 0.75516(3) 0.6223(2) 0.2500
H26_3 H 0.968039 1 0
N4_4 N 0.93656(15) 1.0000 1.0000
O8 O 0.78706(10) 0.9338(5) 0.79230(10)
C39 C 0.84367(12) 0.8996(4) 0.85254(12)
H19 H 0.8310 0.7831 0.8425
C40 C 0.87358(13) 0.8860(4) 0.88206(12)
H20 H 0.8813 0.7603 0.8922
Ti3 Ti 0.74484(3) 0.8777(2) 0.7500
H26_4 H 0.968039 1 1
N1_3 N -0.0000 0.0381(10) 0.56032(16)
O7_2 O 0.20682(9) 0.2666(5) 0.70784(10)
N4_5 N 0.06344(15) 0.0000 0.5000
C25_2 C 0.19879(14) 0.0940(8) 0.69590(15)
C26_2 C 0.16767(10) 0.0835(5) 0.66231(10)
C29_2 C 0.10784(10) 0.0564(6) 0.60326(10)
C30_2 C 0.11917(12) 0.2404(5) 0.61811(12)
H15_2 H 0.1065 0.3568 0.6081
C31_2 C 0.14909(12) 0.2539(4) 0.64763(12)
H16_2 H 0.1568 0.3797 0.6578
C32_2 C 0.02051(14) 0.0647(9) 0.62470(14)
H17_2 H 0.0380 0.0746 0.6473
C33_2 C 0.03383(14) 0.0468(9) 0.58410(14)
C34_2 C 0.07569(13) 0.0413(9) 0.57145(15)
C35_2 C 0.08879(13) 0.0201(9) 0.53247(14)
C36_2 C 0.13143(13) 0.0128(11) 0.52001(15)
H18_2 H 0.1551 0.0239 0.5366
C39_2 C 0.15633(12) 0.1004(4) 0.35254(12)
H19_2 H 0.1690 0.2169 0.3425
C40_2 C 0.12642(13) 0.1140(4) 0.38206(12)
H20_2 H 0.1187 0.2397 0.3922
O10_2 O 0.27492(13) 0.1080(7) 0.7500
H26_5 H 0.0319613 0 0.5
N3_3 N -0.0000 0.9619(10) 0.43968(16)
O6_2 O 0.21294(10) 0.9338(5) 0.70770(10)
N4_6 N 0.06344(15) 1.0000 0.5000
C27_2 C 0.15633(12) 0.8996(4) 0.64746(12)
H13_2 H 0.1690 0.7831 0.6575
C28_2 C 0.12642(13) 0.8860(4) 0.61794(12)
H14_2 H 0.1187 0.7603 0.6078
O9_2 O 0.20682(9) 0.7334(5) 0.29216(10)
C37_2 C 0.19879(14) 0.9060(8) 0.30410(15)
C38_2 C 0.16767(10) 0.9165(5) 0.33769(10)
C41_2 C 0.10784(10) 0.9436(6) 0.39674(10)
C42_2 C 0.11917(12) 0.7596(5) 0.38189(12)
H21_2 H 0.1065 0.6432 0.3919
C43_2 C 0.14909(12) 0.7461(4) 0.35237(12)
H22_2 H 0.1568 0.6203 0.3422
C44_2 C 0.02051(14) 0.9353(9) 0.37530(14)
H23_2 H 0.0380 0.9254 0.3527
C45_2 C 0.03383(14) 0.9532(9) 0.41590(14)
C46_2 C 0.07569(13) 0.9587(9) 0.42855(15)
C47_2 C 0.08879(13) 0.9799(9) 0.46753(14)
C48_2 C 0.13143(13) 0.9872(11) 0.47999(15)
H24_2 H 0.1551 0.9761 0.4634
O13_2 O 0.29318(9) 0.7666(5) 0.70784(10)
O15_2 O 0.29318(9) 0.7666(5) 0.79216(10)
O17_2 O 0.22508(13) 0.6080(7) 0.7500
H26_6 H 0.0319613 1 0.5
O2_2 O 0.79318(9) 0.2666(5) 0.70784(10)
O3_2 O 0.72508(13) 0.1080(7) 0.7500
N1_4 N 1.0000 0.0381(10) 0.56032(16)
N2_5 N 0.93656(15) 0.0000 0.5000
C1_2 C 0.80121(14) 0.0940(8) 0.69590(15)
C2_2 C 0.83233(10) 0.0835(5) 0.66231(10)
C5_2 C 0.89216(10) 0.0564(6) 0.60326(10)
C6_2 C 0.88083(12) 0.2404(5) 0.61811(12)
H3_2 H 0.8935 0.3568 0.6081
C7_2 C 0.85091(12) 0.2539(4) 0.64763(12)
H4_2 H 0.8432 0.3797 0.6578
C8_2 C 0.97949(14) 0.0647(9) 0.62470(14)
H5_2 H 0.9620 0.0746 0.6473
C9_2 C 0.96617(14) 0.0468(9) 0.58410(14)
C10_2 C 0.92431(13) 0.0413(9) 0.57145(15)
C11_2 C 0.91121(13) 0.0201(9) 0.53247(14)
C12_2 C 0.86857(13) 0.0128(11) 0.52001(15)
H6_2 H 0.8449 0.0239 0.5366
C15_2 C 0.84367(12) 0.1004(4) 0.35254(12)
H7_2 H 0.8310 0.2169 0.3425
C16_2 C 0.87358(13) 0.1140(4) 0.38206(12)
H8_2 H 0.8813 0.2397 0.3922
H25_5 H 0.968039 0 0.5
O1_2 O 0.78706(10) 0.9338(5) 0.70770(10)
N2_6 N 0.93656(15) 1.0000 0.5000
C3_2 C 0.84367(12) 0.8996(4) 0.64746(12)
H1_2 H 0.8310 0.7831 0.6575
C4_2 C 0.87358(13) 0.8860(4) 0.61794(12)
H2_2 H 0.8813 0.7603 0.6078
O5_2 O 0.79318(9) 0.7334(5) 0.29216(10)
N3_4 N 1.0000 0.9619(10) 0.43968(16)
C13_2 C 0.80121(14) 0.9060(8) 0.30410(15)
C14_2 C 0.83233(10) 0.9165(5) 0.33769(10)
C17_2 C 0.89216(10) 0.9436(6) 0.39674(10)
C18_2 C 0.88083(12) 0.7596(5) 0.38189(12)
H9_2 H 0.8935 0.6432 0.3919
C19_2 C 0.85091(12) 0.7461(4) 0.35237(12)
H10_2 H 0.8432 0.6203 0.3422
C20_2 C 0.97949(14) 0.9353(9) 0.37530(14)
H11_2 H 0.9620 0.9254 0.3527
C21_2 C 0.96617(14) 0.9532(9) 0.41590(14)
C22_2 C 0.92431(13) 0.9587(9) 0.42855(15)
C23_2 C 0.91121(13) 0.9799(9) 0.46753(14)
C24_2 C 0.86857(13) 0.9872(11) 0.47999(15)
H12_2 H 0.8449 0.9761 0.4634
O14_2 O 0.70682(9) 0.7666(5) 0.79216(10)
O16_2 O 0.70682(9) 0.7666(5) 0.70784(10)
O18_2 O 0.77492(13) 0.6080(7) 0.7500
H25_6 H 0.968039 1 0.5
O1_3 O 0.71294(10) 0.5662(5) 0.20770(10)
N1_5 N 0.5000 0.4619(10) 0.06032(16)
N2_7 N 0.56344(15) 0.5000 0.0000
C1_3 C 0.69879(14) 0.4060(8) 0.19590(15)
C2_3 C 0.66767(10) 0.4165(5) 0.16231(10)
C3_3 C 0.65633(12) 0.6004(4) 0.14746(12)
H1_3 H 0.6690 0.7169 0.1575
C4_3 C 0.62642(13) 0.6140(4) 0.11794(12)
H2_3 H 0.6187 0.7397 0.1078
C5_3 C 0.60784(10) 0.4436(6) 0.10326(10)
C6_3 C 0.61917(12) 0.2596(5) 0.11811(12)
H3_3 H 0.6065 0.1432 0.1081
C7_3 C 0.64909(12) 0.2461(4) 0.14763(12)
H4_3 H 0.6568 0.1203 0.1578
C8_3 C 0.52051(14) 0.4353(9) 0.12470(14)
H5_3 H 0.5380 0.4254 0.1473
C9_3 C 0.53383(14) 0.4532(9) 0.08410(14)
C10_3 C 0.57569(13) 0.4587(9) 0.07145(15)
C11_3 C 0.58879(13) 0.4799(9) 0.03247(14)
C12_3 C 0.63143(13) 0.4872(11) 0.02001(15)
H6_3 H 0.6551 0.4761 0.0366
O6_3 O 0.28706(10) 0.5662(5) 0.20770(10)
N4_7 N 0.43656(15) 0.5000 0.0000
C25_3 C 0.30121(14) 0.4060(8) 0.19590(15)
C26_3 C 0.33233(10) 0.4165(5) 0.16231(10)
C27_3 C 0.34367(12) 0.6004(4) 0.14746(12)
H13_3 H 0.3310 0.7169 0.1575
C28_3 C 0.37358(13) 0.6140(4) 0.11794(12)
H14_3 H 0.3813 0.7397 0.1078
C29_3 C 0.39216(10) 0.4436(6) 0.10326(10)
C30_3 C 0.38083(12) 0.2596(5) 0.11811(12)
H15_3 H 0.3935 0.1432 0.1081
C31_3 C 0.35091(12) 0.2461(4) 0.14763(12)
H16_3 H 0.3432 0.1203 0.1578
C32_3 C 0.47949(14) 0.4353(9) 0.12470(14)
H17_3 H 0.4620 0.4254 0.1473
C33_3 C 0.46617(14) 0.4532(9) 0.08410(14)
C34_3 C 0.42431(13) 0.4587(9) 0.07145(15)
C35_3 C 0.41121(13) 0.4799(9) 0.03247(14)
C36_3 C 0.36857(13) 0.4872(11) 0.02001(15)
H18_3 H 0.3449 0.4761 0.0366
O11_2 O 0.28706(10) 0.5662(5) 0.29230(10)
O12_2 O 0.71294(10) 0.5662(5) 0.29230(10)
H25_7 H 0.531961 0.5 0
H26_7 H 0.468039 0.5 0
N2_8 N 0.56344(15) 0.5000 1.0000
O4_2 O 0.71294(10) 0.4338(5) 0.79230(10)
N3_5 N 0.5000 0.5381(10) 0.93968(16)
C13_3 C 0.69879(14) 0.5940(8) 0.80410(15)
C14_3 C 0.66767(10) 0.5835(5) 0.83769(10)
C15_3 C 0.65633(12) 0.3996(4) 0.85254(12)
H7_3 H 0.6690 0.2831 0.8425
C16_3 C 0.62642(13) 0.3860(4) 0.88206(12)
H8_3 H 0.6187 0.2603 0.8922
C17_3 C 0.60784(10) 0.5564(6) 0.89674(10)
C18_3 C 0.61917(12) 0.7404(5) 0.88189(12)
H9_3 H 0.6065 0.8568 0.8919
C19_3 C 0.64909(12) 0.7539(4) 0.85237(12)
H10_3 H 0.6568 0.8797 0.8422
C20_3 C 0.52051(14) 0.5647(9) 0.87530(14)
H11_3 H 0.5380 0.5746 0.8527
C21_3 C 0.53383(14) 0.5468(9) 0.91590(14)
C22_3 C 0.57569(13) 0.5413(9) 0.92855(15)
C23_3 C 0.58879(13) 0.5201(9) 0.96753(14)
C24_3 C 0.63143(13) 0.5128(11) 0.97999(15)
H12_3 H 0.6551 0.5239 0.9634
N4_8 N 0.43656(15) 0.5000 1.0000
O8_2 O 0.28706(10) 0.4338(5) 0.79230(10)
C37_3 C 0.30121(14) 0.5940(8) 0.80410(15)
C38_3 C 0.33233(10) 0.5835(5) 0.83769(10)
C39_3 C 0.34367(12) 0.3996(4) 0.85254(12)
H19_3 H 0.3310 0.2831 0.8425
C40_3 C 0.37358(13) 0.3860(4) 0.88206(12)
H20_3 H 0.3813 0.2603 0.8922
C41_3 C 0.39216(10) 0.5564(6) 0.89674(10)
C42_3 C 0.38083(12) 0.7404(5) 0.88189(12)
H21_3 H 0.3935 0.8568 0.8919
C43_3 C 0.35091(12) 0.7539(4) 0.85237(12)
H22_3 H 0.3432 0.8797 0.8422
C44_3 C 0.47949(14) 0.5647(9) 0.87530(14)
H23_3 H 0.4620 0.5746 0.8527
C45_3 C 0.46617(14) 0.5468(9) 0.91590(14)
C46_3 C 0.42431(13) 0.5413(9) 0.92855(15)
C47_3 C 0.41121(13) 0.5201(9) 0.96753(14)
C48_3 C 0.36857(13) 0.5128(11) 0.97999(15)
H24_3 H 0.3449 0.5239 0.9634
H25_8 H 0.531961 0.5 1
H26_8 H 0.468039 0.5 1
O1_4 O 0.28706(10) 0.4338(5) 0.70770(10)
N1_6 N 0.5000 0.5381(10) 0.56032(16)
N2_9 N 0.43656(15) 0.5000 0.5000
C1_4 C 0.30121(14) 0.5940(8) 0.69590(15)
C2_4 C 0.33233(10) 0.5835(5) 0.66231(10)
C3_4 C 0.34367(12) 0.3996(4) 0.64746(12)
H1_4 H 0.3310 0.2831 0.6575
C4_4 C 0.37358(13) 0.3860(4) 0.61794(12)
H2_4 H 0.3813 0.2603 0.6078
C5_4 C 0.39216(10) 0.5564(6) 0.60326(10)
C6_4 C 0.38083(12) 0.7404(5) 0.61811(12)
H3_4 H 0.3935 0.8568 0.6081
C7_4 C 0.35091(12) 0.7539(4) 0.64763(12)
H4_4 H 0.3432 0.8797 0.6578
C8_4 C 0.47949(14) 0.5647(9) 0.62470(14)
H5_4 H 0.4620 0.5746 0.6473
C9_4 C 0.46617(14) 0.5468(9) 0.58410(14)
C10_4 C 0.42431(13) 0.5413(9) 0.57145(15)
C11_4 C 0.41121(13) 0.5201(9) 0.53247(14)
C12_4 C 0.36857(13) 0.5128(11) 0.52001(15)
H6_4 H 0.3449 0.5239 0.5366
N3_6 N 0.5000 0.4619(10) 0.43968(16)
C13_4 C 0.30121(14) 0.4060(8) 0.30410(15)
C14_4 C 0.33233(10) 0.4165(5) 0.33769(10)
C15_4 C 0.34367(12) 0.6004(4) 0.35254(12)
H7_4 H 0.3310 0.7169 0.3425
C16_4 C 0.37358(13) 0.6140(4) 0.38206(12)
H8_4 H 0.3813 0.7397 0.3922
C17_4 C 0.39216(10) 0.4436(6) 0.39674(10)
C18_4 C 0.38083(12) 0.2596(5) 0.38189(12)
H9_4 H 0.3935 0.1432 0.3919
C19_4 C 0.35091(12) 0.2461(4) 0.35237(12)
H10_4 H 0.3432 0.1203 0.3422
C20_4 C 0.47949(14) 0.4353(9) 0.37530(14)
H11_4 H 0.4620 0.4254 0.3527
C21_4 C 0.46617(14) 0.4532(9) 0.41590(14)
C22_4 C 0.42431(13) 0.4587(9) 0.42855(15)
C23_4 C 0.41121(13) 0.4799(9) 0.46753(14)
C24_4 C 0.36857(13) 0.4872(11) 0.47999(15)
H12_4 H 0.3449 0.4761 0.4634
O6_4 O 0.71294(10) 0.4338(5) 0.70770(10)
N4_9 N 0.56344(15) 0.5000 0.5000
C25_4 C 0.69879(14) 0.5940(8) 0.69590(15)
C26_4 C 0.66767(10) 0.5835(5) 0.66231(10)
C27_4 C 0.65633(12) 0.3996(4) 0.64746(12)
H13_4 H 0.6690 0.2831 0.6575
C28_4 C 0.62642(13) 0.3860(4) 0.61794(12)
H14_4 H 0.6187 0.2603 0.6078
C29_4 C 0.60784(10) 0.5564(6) 0.60326(10)
C30_4 C 0.61917(12) 0.7404(5) 0.61811(12)
H15_4 H 0.6065 0.8568 0.6081
C31_4 C 0.64909(12) 0.7539(4) 0.64763(12)
H16_4 H 0.6568 0.8797 0.6578
C32_4 C 0.52051(14) 0.5647(9) 0.62470(14)
H17_4 H 0.5380 0.5746 0.6473
C33_4 C 0.53383(14) 0.5468(9) 0.58410(14)
C34_4 C 0.57569(13) 0.5413(9) 0.57145(15)
C35_4 C 0.58879(13) 0.5201(9) 0.53247(14)
C36_4 C 0.63143(13) 0.5128(11) 0.52001(15)
H18_4 H 0.6551 0.5239 0.5366
C37_4 C 0.69879(14) 0.4060(8) 0.30410(15)
C38_4 C 0.66767(10) 0.4165(5) 0.33769(10)
C39_4 C 0.65633(12) 0.6004(4) 0.35254(12)
H19_4 H 0.6690 0.7169 0.3425
C40_4 C 0.62642(13) 0.6140(4) 0.38206(12)
H20_4 H 0.6187 0.7397 0.3922
C41_4 C 0.60784(10) 0.4436(6) 0.39674(10)
C42_4 C 0.61917(12) 0.2596(5) 0.38189(12)
H21_4 H 0.6065 0.1432 0.3919
C43_4 C 0.64909(12) 0.2461(4) 0.35237(12)
H22_4 H 0.6568 0.1203 0.3422
C44_4 C 0.52051(14) 0.4353(9) 0.37530(14)
H23_4 H 0.5380 0.4254 0.3527
C45_4 C 0.53383(14) 0.4532(9) 0.41590(14)
C46_4 C 0.57569(13) 0.4587(9) 0.42855(15)
C47_4 C 0.58879(13) 0.4799(9) 0.46753(14)
C48_4 C 0.63143(13) 0.4872(11) 0.47999(15)
H24_4 H 0.6551 0.4761 0.4634
H25_9 H 0.468039 0.5 0.5
H26_9 H 0.531961 0.5 0.5
loop_
_geom_bond_atom_site_label_1
_geom_bond_atom_site_label_2
_geom_bond_site_symmetry_1
_geom_bond_site_symmetry_2
Ti1 O1 1_555 1_555
C3 H1 1_555 1_555
C4 C3 1_555 1_555
H2 C4 1_555 1_555
O12 Ti1 1_555 1_555
O14 Ti1 1_555 1_555
O16 Ti1 1_555 1_555
O18 Ti1 1_555 1_555
N2 H25 1_555 1_555
O5 C13 1_555 1_555
N3 C21 1_555 1_555
C13 C14 1_555 1_555
C18 C17 1_555 1_555
H9 C18 1_555 1_555
C19 C14 1_555 1_555
H10 C19 1_555 1_555
C20 H11 1_555 1_555
C21 C20 1_555 1_555
C22 C17 1_555 1_555
C23 N2_2 1_555 1_555
H12 C24 1_555 1_555
Ti6 O5 1_555 1_555
C18 C19 1_555 1_555
C21 C22 1_555 1_555
C22 C23 1_555 1_555
C23 C24 1_555 1_555
N2_2 H25_2 1_555 1_555
O2 C1 1_555 1_555
N1 C9 1_555 1_555
N2_3 C11 1_555 1_555
C1 C2 1_555 1_555
C6 C5 1_555 1_555
H3 C6 1_555 1_555
C7 C2 1_555 1_555
H4 C7 1_555 1_555
C8 H5 1_555 1_555
C9 C8 1_555 1_555
C10 C5 1_555 1_555
C11 C10 1_555 1_555
C12 C11 1_555 1_555
H6 C12 1_555 1_555
Ti8 O2 1_555 1_555
O3 Ti8 1_555 1_555
C6 C7 1_555 1_555
C9 C10 1_555 1_555
N2_3 H25_3 1_555 1_555
C15 H7 1_555 1_555
C16 C15 1_555 1_555
H8 C16 1_555 1_555
Ti4 O4 1_555 1_555
N2_4 H25_4 1_555 1_555
C27 H13 1_555 1_555
C28 C27 1_555 1_555
H14 C28 1_555 1_555
Ti2 O6 1_555 1_555
O11 Ti2 1_555 1_555
O13 Ti2 1_555 1_555
O15 Ti2 1_555 1_555
O17 Ti2 1_555 1_555
N4 H26 1_555 1_555
O9 C37 1_555 1_555
C37 C38 1_555 1_555
C42 C41 1_555 1_555
H21 C42 1_555 1_555
C43 C38 1_555 1_555
H22 C43 1_555 1_555
H23 C44 1_555 1_555
C45 N3_2 1_555 1_555
C46 C41 1_555 1_555
C47 N4_2 1_555 1_555
H24 C48 1_555 1_555
Ti7 O9 1_555 1_555
C42 C43 1_555 1_555
C44 C45 1_555 1_555
C45 C46 1_555 1_555
C46 C47 1_555 1_555
C47 C48 1_555 1_555
N4_2 H26_2 1_555 1_555
O7 C25 1_555 1_555
N4_3 C35 1_555 1_555
C25 C26 1_555 1_555
C30 C29 1_555 1_555
H15 C30 1_555 1_555
C31 C26 1_555 1_555
H16 C31 1_555 1_555
H17 C32 1_555 1_555
C33 N1_2 1_555 1_555
C34 C29 1_555 1_555
C35 C34 1_555 1_555
C36 C35 1_555 1_555
H18 C36 1_555 1_555
Ti5 O7 1_555 1_555
C30 C31 1_555 1_555
C32 C33 1_555 1_555
C33 C34 1_555 1_555
O10 Ti5 1_555 1_555
N4_3 H26_3 1_555 1_555
C39 H19 1_555 1_555
C40 C39 1_555 1_555
H20 C40 1_555 1_555
Ti3 O8 1_555 1_555
N4_4 H26_4 1_555 1_555
O7_2 C25_2 1_555 1_555
N4_5 C35_2 1_555 1_555
C25_2 C26_2 1_555 1_555
C30_2 C29_2 1_555 1_555
H15_2 C30_2 1_555 1_555
C31_2 C26_2 1_555 1_555
H16_2 C31_2 1_555 1_555
H17_2 C32_2 1_555 1_555
C33_2 N1_3 1_555 1_555
C34_2 C29_2 1_555 1_555
C35_2 C34_2 1_555 1_555
C36_2 C35_2 1_555 1_555
H18_2 C36_2 1_555 1_555
C39_2 H19_2 1_555 1_555
C40_2 C39_2 1_555 1_555
H20_2 C40_2 1_555 1_555
Ti6 O7_2 1_555 1_555
C30_2 C31_2 1_555 1_555
C32_2 C33_2 1_555 1_555
C33_2 C34_2 1_555 1_555
O10_2 Ti6 1_555 1_555
N4_5 H26_5 1_555 1_555
C27_2 H13_2 1_555 1_555
C28_2 C27_2 1_555 1_555
H14_2 C28_2 1_555 1_555
O9_2 C37_2 1_555 1_555
C37_2 C38_2 1_555 1_555
C42_2 C41_2 1_555 1_555
H21_2 C42_2 1_555 1_555
C43_2 C38_2 1_555 1_555
H22_2 C43_2 1_555 1_555
H23_2 C44_2 1_555 1_555
C45_2 N3_3 1_555 1_555
C46_2 C41_2 1_555 1_555
C47_2 N4_6 1_555 1_555
H24_2 C48_2 1_555 1_555
Ti4 O6_2 1_555 1_555
Ti8 O9_2 1_555 1_555
O13_2 Ti4 1_555 1_555
O15_2 Ti4 1_555 1_555
O17_2 Ti4 1_555 1_555
C42_2 C43_2 1_555 1_555
C44_2 C45_2 1_555 1_555
C45_2 C46_2 1_555 1_555
C46_2 C47_2 1_555 1_555
C47_2 C48_2 1_555 1_555
N4_6 H26_6 1_555 1_555
O2_2 C1_2 1_555 1_555
N1_4 C9_2 1_555 1_555
N2_5 C11_2 1_555 1_555
C1_2 C2_2 1_555 1_555
C6_2 C5_2 1_555 1_555
H3_2 C6_2 1_555 1_555
C7_2 C2_2 1_555 1_555
H4_2 C7_2 1_555 1_555
C8_2 H5_2 1_555 1_555
C9_2 C8_2 1_555 1_555
C10_2 C5_2 1_555 1_555
C11_2 C10_2 1_555 1_555
C12_2 C11_2 1_555 1_555
H6_2 C12_2 1_555 1_555
C15_2 H7_2 1_555 1_555
C16_2 C15_2 1_555 1_555
H8_2 C16_2 1_555 1_555
Ti7 O2_2 1_555 1_555
O3_2 Ti7 1_555 1_555
C6_2 C7_2 1_555 1_555
C9_2 C10_2 1_555 1_555
N2_5 H25_5 1_555 1_555
Ti3 O1_2 1_555 1_555
C3_2 H1_2 1_555 1_555
C4_2 C3_2 1_555 1_555
H2_2 C4_2 1_555 1_555
O5_2 C13_2 1_555 1_555
N3_4 C21_2 1_555 1_555
C13_2 C14_2 1_555 1_555
C18_2 C17_2 1_555 1_555
H9_2 C18_2 1_555 1_555
C19_2 C14_2 1_555 1_555
H10_2 C19_2 1_555 1_555
C20_2 H11_2 1_555 1_555
C21_2 C20_2 1_555 1_555
C22_2 C17_2 1_555 1_555
C23_2 N2_6 1_555 1_555
H12_2 C24_2 1_555 1_555
Ti5 O5_2 1_555 1_555
O14_2 Ti3 1_555 1_555
O16_2 Ti3 1_555 1_555
O18_2 Ti3 1_555 1_555
C18_2 C19_2 1_555 1_555
C21_2 C22_2 1_555 1_555
C22_2 C23_2 1_555 1_555
C23_2 C24_2 1_555 1_555
N2_6 H25_6 1_555 1_555
Ti5 O1_3 1_555 1_555
O1_3 C1_3 1_555 1_555
O13 C1_3 1_555 1_555
O17 Ti5 1_555 1_555
N1_5 C9_3 1_555 1_555
N2_7 C11_3 1_555 1_555
C1_3 C2_3 1_555 1_555
C2_3 C3_3 1_555 1_555
C3_3 H1_3 1_555 1_555
C4_3 C3_3 1_555 1_555
H2_3 C4_3 1_555 1_555
C5_3 C4_3 1_555 1_555
C6_3 C5_3 1_555 1_555
H3_3 C6_3 1_555 1_555
C7_3 C2_3 1_555 1_555
H4_3 C7_3 1_555 1_555
C8_3 H5_3 1_555 1_555
C9_3 C8_3 1_555 1_555
C10_3 C5_3 1_555 1_555
C11_3 C10_3 1_555 1_555
C12_3 C11_3 1_555 1_555
H6_3 C12_3 1_555 1_555
O6_3 C25_3 1_555 1_555
O16 C25_3 1_555 1_555
N4_7 C35_3 1_555 1_555
C25_3 C26_3 1_555 1_555
C26_3 C27_3 1_555 1_555
C27_3 H13_3 1_555 1_555
C28_3 C27_3 1_555 1_555
H14_3 C28_3 1_555 1_555
C29_3 C28_3 1_555 1_555
C30_3 C29_3 1_555 1_555
H15_3 C30_3 1_555 1_555
C31_3 C26_3 1_555 1_555
H16_3 C31_3 1_555 1_555
C32_3 C8_3 1_555 1_555
H17_3 C32_3 1_555 1_555
C33_3 N1_5 1_555 1_555
C34_3 C29_3 1_555 1_555
C35_3 C34_3 1_555 1_555
C36_3 C35_3 1_555 1_555
H18_3 C36_3 1_555 1_555
Ti8 O6_3 1_555 1_555
O18 Ti8 1_555 1_555
O11_2 Ti8 1_555 1_555
O12_2 Ti5 1_555 1_555
C6_3 C7_3 1_555 1_555
C9_3 C10_3 1_555 1_555
C30_3 C31_3 1_555 1_555
C32_3 C33_3 1_555 1_555
C33_3 C34_3 1_555 1_555
N2_7 H25_7 1_555 1_555
N4_7 H26_7 1_555 1_555
O4_2 C13_3 1_555 1_555
O14_2 C13_3 1_555 1_555
N3_5 C21_3 1_555 1_555
C13_3 C14_3 1_555 1_555
C14_3 C15_3 1_555 1_555
C15_3 H7_3 1_555 1_555
C16_3 C15_3 1_555 1_555
H8_3 C16_3 1_555 1_555
C17_3 C16_3 1_555 1_555
C18_3 C17_3 1_555 1_555
H9_3 C18_3 1_555 1_555
C19_3 C14_3 1_555 1_555
H10_3 C19_3 1_555 1_555
C20_3 H11_3 1_555 1_555
C21_3 C20_3 1_555 1_555
C22_3 C17_3 1_555 1_555
C23_3 N2_8 1_555 1_555
H12_3 C24_3 1_555 1_555
O8_2 C37_3 1_555 1_555
O15_2 C37_3 1_555 1_555
C37_3 C38_3 1_555 1_555
C38_3 C39_3 1_555 1_555
C39_3 H19_3 1_555 1_555
C40_3 C39_3 1_555 1_555
H20_3 C40_3 1_555 1_555
C41_3 C40_3 1_555 1_555
C42_3 C41_3 1_555 1_555
H21_3 C42_3 1_555 1_555
C43_3 C38_3 1_555 1_555
H22_3 C43_3 1_555 1_555
C44_3 C20_3 1_555 1_555
H23_3 C44_3 1_555 1_555
C45_3 N3_5 1_555 1_555
C46_3 C41_3 1_555 1_555
C47_3 N4_8 1_555 1_555
H24_3 C48_3 1_555 1_555
Ti6 O8_2 1_555 1_555
Ti7 O4_2 1_555 1_555
C18_3 C19_3 1_555 1_555
C21_3 C22_3 1_555 1_555
C22_3 C23_3 1_555 1_555
C23_3 C24_3 1_555 1_555
C42_3 C43_3 1_555 1_555
C44_3 C45_3 1_555 1_555
C45_3 C46_3 1_555 1_555
C46_3 C47_3 1_555 1_555
C47_3 C48_3 1_555 1_555
N2_8 H25_8 1_555 1_555
N4_8 H26_8 1_555 1_555
Ti6 O1_4 1_555 1_555
O1_4 C1_4 1_555 1_555
O13_2 C1_4 1_555 1_555
O17_2 Ti6 1_555 1_555
N1_6 C9_4 1_555 1_555
N2_9 C11_4 1_555 1_555
C1_4 C2_4 1_555 1_555
C2_4 C3_4 1_555 1_555
C3_4 H1_4 1_555 1_555
C4_4 C3_4 1_555 1_555
H2_4 C4_4 1_555 1_555
C5_4 C4_4 1_555 1_555
C6_4 C5_4 1_555 1_555
H3_4 C6_4 1_555 1_555
C7_4 C2_4 1_555 1_555
H4_4 C7_4 1_555 1_555
C8_4 H5_4 1_555 1_555
C9_4 C8_4 1_555 1_555
C10_4 C5_4 1_555 1_555
C11_4 C10_4 1_555 1_555
C12_4 C11_4 1_555 1_555
H6_4 C12_4 1_555 1_555
O11_2 C13_4 1_555 1_555
O14 C13_4 1_555 1_555
N3_6 C21_4 1_555 1_555
C13_4 C14_4 1_555 1_555
C14_4 C15_4 1_555 1_555
C15_4 H7_4 1_555 1_555
C16_4 C15_4 1_555 1_555
H8_4 C16_4 1_555 1_555
C17_4 C16_4 1_555 1_555
C18_4 C17_4 1_555 1_555
H9_4 C18_4 1_555 1_555
C19_4 C14_4 1_555 1_555
H10_4 C19_4 1_555 1_555
C20_4 H11_4 1_555 1_555
C21_4 C20_4 1_555 1_555
C22_4 C17_4 1_555 1_555
C23_4 N2_9 1_555 1_555
C24_4 C12_4 1_555 1_555
H12_4 C24_4 1_555 1_555
O6_4 C25_4 1_555 1_555
O16_2 C25_4 1_555 1_555
N4_9 C35_4 1_555 1_555
C25_4 C26_4 1_555 1_555
C26_4 C27_4 1_555 1_555
C27_4 H13_4 1_555 1_555
C28_4 C27_4 1_555 1_555
H14_4 C28_4 1_555 1_555
C29_4 C28_4 1_555 1_555
C30_4 C29_4 1_555 1_555
H15_4 C30_4 1_555 1_555
C31_4 C26_4 1_555 1_555
H16_4 C31_4 1_555 1_555
C32_4 C8_4 1_555 1_555
H17_4 C32_4 1_555 1_555
C33_4 N1_6 1_555 1_555
C34_4 C29_4 1_555 1_555
C35_4 C34_4 1_555 1_555
C36_4 C35_4 1_555 1_555
H18_4 C36_4 1_555 1_555
O12_2 C37_4 1_555 1_555
O15 C37_4 1_555 1_555
C37_4 C38_4 1_555 1_555
C38_4 C39_4 1_555 1_555
C39_4 H19_4 1_555 1_555
C40_4 C39_4 1_555 1_555
H20_4 C40_4 1_555 1_555
C41_4 C40_4 1_555 1_555
C42_4 C41_4 1_555 1_555
H21_4 C42_4 1_555 1_555
C43_4 C38_4 1_555 1_555
H22_4 C43_4 1_555 1_555
C44_4 C20_4 1_555 1_555
H23_4 C44_4 1_555 1_555
C45_4 N3_6 1_555 1_555
C46_4 C41_4 1_555 1_555
C47_4 N4_9 1_555 1_555
C48_4 C36_4 1_555 1_555
H24_4 C48_4 1_555 1_555
Ti7 O6_4 1_555 1_555
O18_2 Ti7 1_555 1_555
C6_4 C7_4 1_555 1_555
C9_4 C10_4 1_555 1_555
C18_4 C19_4 1_555 1_555
C21_4 C22_4 1_555 1_555
C22_4 C23_4 1_555 1_555
C23_4 C24_4 1_555 1_555
C30_4 C31_4 1_555 1_555
C32_4 C33_4 1_555 1_555
C33_4 C34_4 1_555 1_555
C42_4 C43_4 1_555 1_555
C44_4 C45_4 1_555 1_555
C45_4 C46_4 1_555 1_555
C46_4 C47_4 1_555 1_555
C47_4 C48_4 1_555 1_555
N2_9 H25_9 1_555 1_555
N4_9 H26_9 1_555 1_555

#END
