
###############################################################################
#
# This file contains modified crystal structure data generated from the
# MOF subset of the Cambridge Structural Database (CSD) v543 
# hosted by the Cambridge Crystallographic Data Centre (CCDC).
#
# This work is licensed under the Creative Commons
# Attribution-NonCommercial-ShareAlike 4.0 International License.
# To view a copy of this license, visit
# http://creativecommons.org/licenses/by-nc-sa/4.0/
# or send a letter to
# Creative Commons, PO Box 1866, Mountain View, CA 94042, USA.
#
# CIF created using the CSD Python API on 29 September 2022
# The structure has been converted into the P1 space group
# The structure has a 3D framework
# The original CSD entry KIJPUQ is in the orthorhombic crystal system
# The original CSD entry KIJPUQ is in a Sohncke space group
# The framework has been calculated to contain at least 10.0% void space
# The void calculation uses a probe of radius 1.32A, grid spacing 0.4
# The framework is charged, counterions have been retained in the structure
#
###############################################################################

data_KIJPUQ
_chemical_formula_moiety         '(C68 H60 Cd4 Cl8 N12 O50)n'
_symmetry_cell_setting           triclinic
_symmetry_space_group_name_H-M   'P 1'
_symmetry_Int_Tables_number      1
_space_group_name_Hall           'P 1'
loop_
_symmetry_equiv_pos_site_id
_symmetry_equiv_pos_as_xyz
1 x,y,z
_cell_length_a                   9.7355(10)
_cell_length_b                   10.0002(10)
_cell_length_c                   26.295(3)
_cell_angle_alpha                90
_cell_angle_beta                 90
_cell_angle_gamma                90
_cell_volume                     2560
loop_
_atom_site_label
_atom_site_type_symbol
_atom_site_fract_x
_atom_site_fract_y
_atom_site_fract_z
C6 C 0.1759(11) 0.1390(9) 0.0401(3)
O1 O 0.0452(7) 0.3678(7) 0.1920(2)
C7 C 0.2616(9) 0.2188(9) 0.0765(3)
C8 C 0.4036(10) 0.2272(10) 0.0732(4)
H5 H 0.4516 0.1841 0.0474
C9 C 0.4724(11) 0.3027(11) 0.1102(3)
H6 H 0.5679 0.3060 0.1107
C10 C 0.3971(10) 0.3720(10) 0.1459(3)
H7 H 0.4395 0.4288 0.1691
C11 C 0.2529(9) 0.3539(8) 0.1461(3)
N2 N 0.1887(7) 0.2763(7) 0.1131(2)
C12 C 0.1605(10) 0.4177(10) 0.1848(3)
O2 O 0.0593(7) 0.1065(6) 0.0514(2)
C13 C 0.2384(12) 0.7574(10) 0.2725(4)
H8 H 0.2527 0.8336 0.2921
C14 C 0.3006(12) 0.7488(10) 0.2261(4)
H9 H 0.3565 0.8184 0.2150
C15 C 0.2817(11) 0.6374(10) 0.1952(4)
H10 H 0.3217 0.6317 0.1631
C16 C 0.2004(9) 0.5349(9) 0.2144(3)
C17 C 0.1421(10) 0.5521(10) 0.2619(3)
H11 H 0.0880 0.4832 0.2747
N3 N 0.1584(8) 0.6614(8) 0.2907(3)
Cd2 Cd 0.03138(7) 0.68658(6) 0.36616(2)
Cd1 Cd 0.46862(7) 0.31342(6) 0.86616(2)
N1 N 0.3506(8) 0.1529(7) 0.9121(2)
C1 C 0.3059(9) 0.1847(10) 0.9598(3)
H1 H 0.3258 0.2692 0.9726
C2 C 0.2328(10) 0.0975(9) 0.9897(3)
C4 C 0.3232(12) 0.0292(10) 0.8956(3)
H3 H 0.3541 0.0046 0.8635
O3 O 0.6034(9) 0.4893(8) 0.8381(3)
O4 O 0.3098(10) 0.4680(9) 0.8964(3)
H12 H 0.6556 0.5627 0.8395
H13 H 0.3645 0.5078 0.9173
H14 H 0.2416 0.5305 0.8910
H15 H 0.5814 0.4492 0.8060
O5 O 0.5452(7) 0.1322(7) 0.8080(2)
N4 N 0.6887(7) 0.2237(7) 0.8869(2)
O6 O 0.5593(7) 0.3935(6) 0.9486(2)
N5 N 0.3416(8) 0.3386(8) 0.7907(3)
N1_2 N 0.1494(8) 0.8471(7) 0.4121(2)
C1_2 C 0.1941(9) 0.8153(10) 0.4598(3)
H1_2 H 0.1742 0.7308 0.4726
C2_2 C 0.2672(10) 0.9025(9) 0.4897(3)
C4_2 C 0.1768(12) 0.9708(10) 0.3956(3)
H3_2 H 0.1459 0.9954 0.3635
C6_2 C 0.3241(11) 0.8610(9) 0.5401(3)
O1_2 O 0.4548(7) 0.6322(7) 0.6920(2)
C7_2 C 0.2384(9) 0.7812(9) 0.5765(3)
C8_2 C 0.0964(10) 0.7728(10) 0.5732(4)
H5_2 H 0.0484 0.8159 0.5474
C9_2 C 0.0276(11) 0.6973(11) 0.6102(3)
C10_2 C 0.1029(10) 0.6280(10) 0.6459(3)
H7_2 H 0.0605 0.5712 0.6691
C11_2 C 0.2471(9) 0.6461(8) 0.6461(3)
N2_2 N 0.3113(7) 0.7237(7) 0.6131(2)
C12_2 C 0.3395(10) 0.5823(10) 0.6848(3)
O2_2 O 0.4407(7) 0.8935(6) 0.5514(2)
C13_2 C 0.2616(12) 0.2426(10) 0.7725(4)
H8_2 H 0.2473 0.1664 0.7921
C14_2 C 0.1994(12) 0.2512(10) 0.7261(4)
H9_2 H 0.1435 0.1816 0.7150
C15_2 C 0.2183(11) 0.3626(10) 0.6952(4)
H10_2 H 0.1783 0.3683 0.6631
C16_2 C 0.2996(9) 0.4651(9) 0.7144(3)
C17_2 C 0.3579(10) 0.4479(10) 0.7619(3)
H11_2 H 0.4120 0.5168 0.7747
O4_2 O 0.1902(10) 0.5320(9) 0.3964(3)
H13_2 H 0.1355 0.4922 0.4173
H14_2 H 0.2584 0.4695 0.3910
Cd3 Cd 0.53138(7) 0.81342(6) 0.63384(2)
H6_2 H 0.9321 0.6940 0.6107
O3_2 O 0.8966(9) 0.5107(8) 0.3381(3)
H12_2 H 0.8444 0.4373 0.3395
H15_2 H 0.9186 0.5508 0.3060
O5_2 O 0.9548(7) 0.8678(7) 0.3080(2)
N4_2 N 0.8113(7) 0.7763(7) 0.3869(2)
O6_2 O 0.9407(7) 0.6065(6) 0.4486(2)
N1_3 N 0.6494(8) 0.6529(7) 0.5879(2)
C1_3 C 0.6941(9) 0.6847(10) 0.5402(3)
H1_3 H 0.6742 0.7692 0.5274
C2_3 C 0.7672(10) 0.5975(9) 0.5103(3)
C3 C 0.7485(15) 0.4364(10) 0.5761(4)
H2 H 0.7615 0.3500 0.5882
C4_3 C 0.6768(12) 0.5292(10) 0.6044(3)
H3_3 H 0.6459 0.5046 0.6365
C5 C 0.8000(14) 0.4736(9) 0.5301(4)
H4 H 0.8571 0.4159 0.5122
C6_3 C 0.8241(11) 0.6390(9) 0.4599(3)
C7_3 C 0.7384(9) 0.7188(9) 0.4235(3)
C8_3 C 0.5964(10) 0.7272(10) 0.4268(4)
H5_3 H 0.5484 0.6841 0.4526
C9_3 C 0.5276(11) 0.8027(11) 0.3898(3)
H6_3 H 0.4321 0.8060 0.3893
C10_3 C 0.6029(10) 0.8720(10) 0.3541(3)
H7_3 H 0.5605 0.9288 0.3309
C11_3 C 0.7471(9) 0.8539(8) 0.3539(3)
C12_3 C 0.8395(10) 0.9177(10) 0.3152(3)
H11_3 H 0.9120 0.9832 0.2253
O3_3 O 0.3966(9) 0.9893(8) 0.6619(3)
O4_3 O 0.6902(10) 0.9680(9) 0.6036(3)
H15_3 H 0.4186 0.9492 0.6940
N5_2 N 0.6584(8) 0.8386(8) 0.7093(3)
O3_4 O 0.1034(9) 0.0107(8) 0.1619(3)
H15_4 H 0.0814 0.0508 0.1940
C6_4 C 0.6759(11) 0.3610(9) 0.9599(3)
C7_4 C 0.7616(9) 0.2812(9) 0.9235(3)
C8_4 C 0.9036(10) 0.2728(10) 0.9268(4)
H5_4 H 0.9516 0.3159 0.9526
C9_4 C 0.9724(11) 0.1973(11) 0.8898(3)
C10_4 C 0.8971(10) 0.1280(10) 0.8541(3)
H7_4 H 0.9395 0.0712 0.8309
C11_4 C 0.7529(9) 0.1461(8) 0.8539(3)
C12_4 C 0.6605(10) 0.0823(10) 0.8152(3)
H11_4 H 0.5880 0.0168 0.7253
C13_3 C 0.7384(12) 0.7426(10) 0.7275(4)
H8_3 H 0.7527 0.6664 0.7079
C14_3 C 0.8006(12) 0.7512(10) 0.7739(4)
H9_3 H 0.8565 0.6816 0.7850
C15_3 C 0.7817(11) 0.8626(10) 0.8048(4)
H10_3 H 0.8217 0.8683 0.8369
C16_3 C 0.7004(9) 0.9651(9) 0.7856(3)
C17_3 C 0.6421(10) 0.9479(10) 0.7381(3)
C3_2 C 0.2515(15) 0.9364(10) 0.9239(4)
H2_2 H 0.2385 0.8500 0.9118
C5_2 C 0.2000(14) 0.9736(9) 0.9699(4)
H4_2 H 0.1429 0.9159 0.9878
Cd3_2 Cd 0.96862(7) 0.18658(6) 0.13384(2)
C13_4 C 0.7616(12) 0.2574(10) 0.2275(4)
H8_4 H 0.7473 0.3336 0.2079
C14_4 C 0.6994(12) 0.2488(10) 0.2739(4)
H9_4 H 0.6435 0.3184 0.2850
C15_4 C 0.7183(11) 0.1374(10) 0.3048(4)
H10_4 H 0.6783 0.1317 0.3369
C16_4 C 0.7996(9) 0.0349(9) 0.2856(3)
C17_4 C 0.8579(10) 0.0521(10) 0.2381(3)
N3_2 N 0.8416(8) 0.1614(8) 0.2093(3)
H12_3 H 0.3444 0.0627 0.6605
H13_3 H 0.6355 0.0078 0.5827
H14_3 H 0.7584 0.0305 0.6090
N1_4 N 0.8506(8) 0.3471(7) 0.0879(2)
C1_4 C 0.8059(9) 0.3153(10) 0.0402(3)
H1_4 H 0.8258 0.2308 0.0274
C2_4 C 0.7328(10) 0.4025(9) 0.0103(3)
C3_3 C 0.7515(15) 0.5636(10) 0.0761(4)
H2_3 H 0.7385 0.6500 0.0882
C4_4 C 0.8232(12) 0.4708(10) 0.1044(3)
H3_4 H 0.8541 0.4954 0.1365
C5_3 C 0.7000(14) 0.5264(9) 0.0301(4)
H4_3 H 0.6429 0.5841 0.0122
O4_4 O 0.8098(10) 0.0320(9) 0.1036(3)
C3_4 C 0.2485(15) 0.0636(10) 0.4239(4)
H2_4 H 0.2615 0.1500 0.4118
C5_4 C 0.3000(14) 0.0264(9) 0.4699(4)
H4_4 H 0.3571 0.0841 0.4878
H6_4 H 0.0679 0.1940 0.8893
H12_4 H 0.1556 0.9373 0.1605
H13_4 H 0.8645 0.9922 0.0827
H14_4 H 0.7416 0.9695 0.1090
Cl1 Cl 0.3154(4) 0.1486(3) 0.26884(14)
O7 O 0.1736(11) 0.1160(15) 0.2711(6)
O8 O 0.3829(13) 0.0870(13) 0.3093(4)
O9 O 0.3464(14) 0.2841(9) 0.2634(4)
O10 O 0.361(2) 0.0977(17) 0.2211(5)
Cl1_2 Cl 0.1846(4) 0.8514(3) 0.76884(14)
O7_2 O 0.3264(11) 0.8840(15) 0.7711(6)
O8_2 O 0.1171(13) 0.9130(13) 0.8093(4)
O9_2 O 0.1536(14) 0.7159(9) 0.7634(4)
O10_2 O 0.139(2) 0.9023(17) 0.7211(5)
Cl1_3 Cl 0.6846(4) 0.6486(3) 0.23116(14)
O7_3 O 0.8264(11) 0.6160(15) 0.2289(6)
O8_3 O 0.6171(13) 0.5870(13) 0.1907(4)
O9_3 O 0.6536(14) 0.7841(9) 0.2366(4)
O10_3 O 0.639(2) 0.5977(17) 0.2789(5)
Cl1_4 Cl 0.8154(4) 0.3514(3) 0.73116(14)
O7_4 O 0.6736(11) 0.3840(15) 0.7289(6)
O8_4 O 0.8829(13) 0.4130(13) 0.6907(4)
O9_4 O 0.8464(14) 0.2159(9) 0.7366(4)
O10_4 O 0.861(2) 0.4023(17) 0.7789(5)
O13 O 0.6172(13) 0.0613(9) 0.9912(4)
O12 O 0.576(2) 0.8409(18) 0.0000(8)
O14 O 0.7856(18) 0.910(2) 0.0049(8)
Cl2 Cl 0.6648(4) 0.9354(4) 0.98058(14)
O11 O 0.659(2) 0.9125(16) 0.9291(4)
O12_2 O 0.576(2) 0.8409(18) 1.0000(8)
Cl2_2 Cl 0.8352(4) 0.0646(4) 0.48058(14)
O11_2 O 0.841(2) 0.0875(16) 0.4291(4)
O12_3 O 0.924(2) 0.1591(18) 0.5000(8)
O14_2 O 0.7144(18) 0.090(2) 0.5049(8)
O13_2 O 0.8828(13) 0.9387(9) 0.4912(4)
Cl2_3 Cl 0.3352(4) 0.4354(4) 0.51942(14)
O11_3 O 0.341(2) 0.4125(16) 0.5709(4)
O12_4 O 0.424(2) 0.3409(18) 0.5000(8)
O13_3 O 0.3828(13) 0.5613(9) 0.5088(4)
O14_3 O 0.2144(18) 0.410(2) 0.4951(8)
Cl2_4 Cl 0.1648(4) 0.5646(4) 0.01942(14)
O11_4 O 0.159(2) 0.5875(16) 0.0709(4)
O12_5 O 0.076(2) 0.6591(18) 0.0000(8)
O13_4 O 0.1172(13) 0.4387(9) 0.0088(4)
O12_6 O 0.076(2) 0.6591(18) 1.0000(8)
O14_4 O 0.2856(18) 0.590(2) 0.9951(8)
loop_
_geom_bond_atom_site_label_1
_geom_bond_atom_site_label_2
_geom_bond_site_symmetry_1
_geom_bond_site_symmetry_2
O1 C12 1_555 1_555
C7 C6 1_555 1_555
C8 C7 1_555 1_555
H5 C8 1_555 1_555
C9 C8 1_555 1_555
H6 C9 1_555 1_555
C10 C9 1_555 1_555
H7 C10 1_555 1_555
C11 C10 1_555 1_555
N2 C7 1_555 1_555
C12 C11 1_555 1_555
O2 C6 1_555 1_555
C13 H8 1_555 1_555
C14 C13 1_555 1_555
H9 C14 1_555 1_555
C15 C14 1_555 1_555
H10 C15 1_555 1_555
C16 C12 1_555 1_555
C17 C16 1_555 1_555
H11 C17 1_555 1_555
N3 C13 1_555 1_555
Cd2 N3 1_555 1_555
C11 N2 1_555 1_555
C15 C16 1_555 1_555
C17 N3 1_555 1_555
Cd1 N1 1_555 1_555
N1 C1 1_555 1_555
C1 H1 1_555 1_555
C2 C1 1_555 1_555
C4 N1 1_555 1_555
H3 C4 1_555 1_555
O3 Cd1 1_555 1_555
O4 Cd1 1_555 1_555
H12 O3 1_555 1_555
H13 O4 1_555 1_555
H14 O4 1_555 1_555
H15 O3 1_555 1_555
O5 Cd1 1_555 1_555
N4 Cd1 1_555 1_555
O6 Cd1 1_555 1_555
N5 Cd1 1_555 1_555
Cd2 N1_2 1_555 1_555
N1_2 C1_2 1_555 1_555
C1_2 H1_2 1_555 1_555
C2_2 C1_2 1_555 1_555
C4_2 N1_2 1_555 1_555
H3_2 C4_2 1_555 1_555
C6_2 C2_2 1_555 1_555
O1_2 C12_2 1_555 1_555
C7_2 C6_2 1_555 1_555
C8_2 C7_2 1_555 1_555
H5_2 C8_2 1_555 1_555
C9_2 C8_2 1_555 1_555
C10_2 C9_2 1_555 1_555
H7_2 C10_2 1_555 1_555
C11_2 C10_2 1_555 1_555
N2_2 C7_2 1_555 1_555
C12_2 C11_2 1_555 1_555
O2_2 C6_2 1_555 1_555
C13_2 H8_2 1_555 1_555
C14_2 C13_2 1_555 1_555
H9_2 C14_2 1_555 1_555
C15_2 C14_2 1_555 1_555
H10_2 C15_2 1_555 1_555
C16_2 C12_2 1_555 1_555
C17_2 C16_2 1_555 1_555
H11_2 C17_2 1_555 1_555
N5 C13_2 1_555 1_555
O4_2 Cd2 1_555 1_555
H13_2 O4_2 1_555 1_555
H14_2 O4_2 1_555 1_555
Cd3 O1_2 1_555 1_555
C11_2 N2_2 1_555 1_555
N2_2 Cd3 1_555 1_555
O2_2 Cd3 1_555 1_555
C15_2 C16_2 1_555 1_555
C17_2 N5 1_555 1_555
H12_2 O3_2 1_555 1_555
H15_2 O3_2 1_555 1_555
Cd3 N1_3 1_555 1_555
N1_3 C1_3 1_555 1_555
C1_3 H1_3 1_555 1_555
C2_3 C1_3 1_555 1_555
C3 H2 1_555 1_555
C4_3 N1_3 1_555 1_555
H3_3 C4_3 1_555 1_555
C5 C2_3 1_555 1_555
H4 C5 1_555 1_555
C6_3 C2_3 1_555 1_555
O5_2 C12_3 1_555 1_555
C7_3 C6_3 1_555 1_555
C8_3 C7_3 1_555 1_555
H5_3 C8_3 1_555 1_555
C9_3 C8_3 1_555 1_555
H6_3 C9_3 1_555 1_555
C10_3 C9_3 1_555 1_555
H7_3 C10_3 1_555 1_555
C11_3 C10_3 1_555 1_555
N4_2 C7_3 1_555 1_555
C12_3 C11_3 1_555 1_555
O6_2 C6_3 1_555 1_555
O3_3 Cd3 1_555 1_555
O4_3 Cd3 1_555 1_555
H15_3 O3_3 1_555 1_555
N5_2 Cd3 1_555 1_555
C3 C4_3 1_555 1_555
C3 C5 1_555 1_555
C11_3 N4_2 1_555 1_555
H15_4 O3_4 1_555 1_555
O5 C12_4 1_555 1_555
C7_4 C6_4 1_555 1_555
C8_4 C7_4 1_555 1_555
H5_4 C8_4 1_555 1_555
C9_4 C8_4 1_555 1_555
C10_4 C9_4 1_555 1_555
H7_4 C10_4 1_555 1_555
C11_4 C10_4 1_555 1_555
N4 C7_4 1_555 1_555
C12_4 C11_4 1_555 1_555
O6 C6_4 1_555 1_555
C11_4 N4 1_555 1_555
C13_3 H8_3 1_555 1_555
C14_3 C13_3 1_555 1_555
H9_3 C14_3 1_555 1_555
C15_3 C14_3 1_555 1_555
H10_3 C15_3 1_555 1_555
C17_3 C16_3 1_555 1_555
N5_2 C13_3 1_555 1_555
C15_3 C16_3 1_555 1_555
C17_3 N5_2 1_555 1_555
C3_2 H2_2 1_555 1_555
H4_2 C5_2 1_555 1_555
C3_2 C5_2 1_555 1_555
C13_4 H8_4 1_555 1_555
C14_4 C13_4 1_555 1_555
H9_4 C14_4 1_555 1_555
C15_4 C14_4 1_555 1_555
H10_4 C15_4 1_555 1_555
C17_4 C16_4 1_555 1_555
N3_2 C13_4 1_555 1_555
Cd3_2 N3_2 1_555 1_555
C15_4 C16_4 1_555 1_555
C17_4 N3_2 1_555 1_555
Cd3_2 N1_4 1_555 1_555
N1_4 C1_4 1_555 1_555
C1_4 H1_4 1_555 1_555
C2_4 C1_4 1_555 1_555
C3_3 H2_3 1_555 1_555
C4_4 N1_4 1_555 1_555
H3_4 C4_4 1_555 1_555
C5_3 C2_4 1_555 1_555
H4_3 C5_3 1_555 1_555
O4_4 Cd3_2 1_555 1_555
C3_3 C4_4 1_555 1_555
C3_3 C5_3 1_555 1_555
C3_4 H2_4 1_555 1_555
H4_4 C5_4 1_555 1_555
C3_4 C5_4 1_555 1_555
Cl1 O7 1_555 1_555
O8 Cl1 1_555 1_555
O9 Cl1 1_555 1_555
O10 Cl1 1_555 1_555
Cl1_2 O7_2 1_555 1_555
O8_2 Cl1_2 1_555 1_555
O9_2 Cl1_2 1_555 1_555
O10_2 Cl1_2 1_555 1_555
Cl1_3 O7_3 1_555 1_555
O8_3 Cl1_3 1_555 1_555
O9_3 Cl1_3 1_555 1_555
O10_3 Cl1_3 1_555 1_555
Cl1_4 O7_4 1_555 1_555
O8_4 Cl1_4 1_555 1_555
O9_4 Cl1_4 1_555 1_555
O10_4 Cl1_4 1_555 1_555
Cl2 O11 1_555 1_555
O12_2 Cl2 1_555 1_555
Cl2_2 O11_2 1_555 1_555
O12_3 Cl2_2 1_555 1_555
O14_2 Cl2_2 1_555 1_555
Cl2_3 O11_3 1_555 1_555
O12_4 Cl2_3 1_555 1_555
O13_3 Cl2_3 1_555 1_555
O14_3 Cl2_3 1_555 1_555
Cl2_4 O11_4 1_555 1_555
O12_5 Cl2_4 1_555 1_555
O13_4 Cl2_4 1_555 1_555

#END
