
###############################################################################
#
# This file contains modified crystal structure data generated from the
# MOF subset of the Cambridge Structural Database (CSD) v543 
# hosted by the Cambridge Crystallographic Data Centre (CCDC).
#
# This work is licensed under the Creative Commons
# Attribution-NonCommercial-ShareAlike 4.0 International License.
# To view a copy of this license, visit
# http://creativecommons.org/licenses/by-nc-sa/4.0/
# or send a letter to
# Creative Commons, PO Box 1866, Mountain View, CA 94042, USA.
#
# CIF created using the CSD Python API on 29 September 2022
# The structure has been converted into the P1 space group
# The structure has a 3D framework
# The original CSD entry KIJPEB is in the triclinic crystal system
# The framework has been calculated to contain at least 10.0% void space
# The void calculation uses a probe of radius 1.32A, grid spacing 0.4
# The framework is charged, counterions have been retained in the structure
#
###############################################################################

data_KIJPEB
_chemical_formula_moiety         '(C4 H12 In4 O37 P8 2-)n'
_symmetry_cell_setting           triclinic
_symmetry_space_group_name_H-M   'P 1'
_symmetry_Int_Tables_number      1
_space_group_name_Hall           'P 1'
loop_
_symmetry_equiv_pos_site_id
_symmetry_equiv_pos_as_xyz
1 x,y,z
_cell_length_a                   7.8398(3)
_cell_length_b                   12.0428(3)
_cell_length_c                   12.4877(5)
_cell_angle_alpha                90.013(3)
_cell_angle_beta                 96.335(3)
_cell_angle_gamma                92.640(3)
_cell_volume                     1170.54
loop_
_atom_site_label
_atom_site_type_symbol
_atom_site_fract_x
_atom_site_fract_y
_atom_site_fract_z
_atom_site_U_iso_or_equiv
_atom_site_thermal_displace_type
In2 In 0.30411(4) 0.14014(2) 0.00920(2) 0.0156 Uani
O24 O 0.0615(4) 0.1150(3) 0.0835(3) 0.0213 Uani
O42 O 0.3795(5) 0.2755(3) 0.1150(3) 0.0273 Uani
O46 O 0.4292(4) 0.0374(3) 0.1307(3) 0.0230 Uani
In1 In 0.30433(4) 0.49332(2) 0.64433(2) 0.0165 Uani
P1 P 0.50815(18) 0.71044(11) 0.78039(10) 0.0278 Uani
P2 P 0.61623(15) 0.34434(10) 0.57187(9) 0.0194 Uani
P3 P 0.13397(15) 0.28695(10) 0.79211(9) 0.0187 Uani
P4 P 0.59046(15) 0.08610(10) 0.84279(9) 0.0188 Uani
O1 O 0.4034(5) 0.6030(3) 0.7718(3) 0.0292 Uani
O2 O 0.6288(9) 0.7205(6) 0.6895(4) 0.0822 Uani
H1 H 0.5824 0.6888 0.6351 0.1230 Uiso
O3 O 0.3808(9) 0.8052(4) 0.7644(6) 0.0822 Uani
H2 H 0.4246 0.8619 0.7944 0.1230 Uiso
O4 O 0.6205(5) 0.7245(3) 0.8850(3) 0.0273 Uani
O5 O 0.5137(5) 0.3925(3) 0.6540(3) 0.0261 Uani
O6 O 0.5743(7) 0.2161(3) 0.5629(3) 0.0432 Uani
H3 H 0.5537 0.1920 0.6217 0.0650 Uiso
O7 O 0.8082(5) 0.3664(5) 0.6058(3) 0.0442 Uani
O8 O 0.5748(4) 0.3899(3) 0.4590(3) 0.0227 Uani
O9 O 0.2010(5) 0.4022(3) 0.7670(3) 0.0291 Uani
O10 O 0.1854(5) 0.2603(3) 0.9090(3) 0.0263 Uani
O12 O 0.1991(5) 0.1995(4) 0.7157(3) 0.0363 Uani
H5 H 0.2981 0.1851 0.7375 0.0550 Uiso
O13 O 0.5218(5) 0.1562(3) 0.9278(3) 0.0275 Uani
O14 O 0.5028(5) 0.1104(3) 0.7314(3) 0.0304 Uani
O16 O 0.7892(5) 0.1112(3) 0.8496(3) 0.0310 Uani
H6 H 0.8085 0.1695 0.8183 0.0470 Uiso
O17 O 0.1654(4) 0.4064(3) 0.5054(3) 0.0241 Uani
C1 C 0.0295(6) 0.4484(4) 0.4697(4) 0.0198 Uani
O22 O 0.0664(4) 0.5843(3) 0.6133(3) 0.0222 Uani
In7 In 0.69567(4) 0.50668(2) 0.35567(2) 0.0165 Uani
In11 In 0.69589(4) 0.85986(2) 0.99080(2) 0.0156 Uani
O44 O 0.4252(4) 0.6101(3) 0.5410(3) 0.0227 Uani
O35 O 0.0613(5) 0.7206(3) 0.2306(3) 0.0327 Uani
H10 H 0.0906 0.6888 0.2872 0.0490 Uiso
O15 O 0.5708(4) 0.9626(3) 0.8693(3) 0.0230 Uani
O19 O 0.1695(4) 0.9994(3) 0.9196(3) 0.0215 Uani
C2 C 0.0307(6) 0.9667(4) 0.9531(3) 0.0160 Uani
O23 O 0.8305(4) 0.0006(3) 0.0804(3) 0.0215 Uani
C4 C 0.9693(6) 0.0333(4) 0.0469(3) 0.0160 Uani
O11 O 0.9387(5) 0.2794(3) 0.7694(3) 0.0327 Uani
H4 H 0.9094 0.3112 0.7128 0.0490 Uiso
O18 O 0.9336(4) 0.4157(3) 0.3867(3) 0.0222 Uani
O21 O 0.8346(4) 0.5936(3) 0.4946(3) 0.0241 Uani
C3 C 0.9705(6) 0.5516(4) 0.5303(4) 0.0198 Uani
P5 P 0.49185(18) 0.28956(11) 0.21961(10) 0.0278 Uani
P6 P 0.38377(15) 0.65566(10) 0.42813(9) 0.0194 Uani
P7 P 0.86603(15) 0.71305(10) 0.20789(9) 0.0187 Uani
P8 P 0.40954(15) 0.91390(10) 0.15721(9) 0.0188 Uani
O25 O 0.5966(5) 0.3970(3) 0.2282(3) 0.0292 Uani
O26 O 0.3712(9) 0.2795(6) 0.3105(4) 0.0822 Uani
H7 H 0.4176 0.3112 0.3649 0.1230 Uiso
O27 O 0.6192(9) 0.1948(4) 0.2356(6) 0.0822 Uani
H8 H 0.5754 0.1381 0.2056 0.1230 Uiso
O29 O 0.4863(5) 0.6075(3) 0.3460(3) 0.0261 Uani
O30 O 0.4257(7) 0.7839(3) 0.4371(3) 0.0432 Uani
H9 H 0.4463 0.8080 0.3783 0.0650 Uiso
O31 O 0.1918(5) 0.6336(5) 0.3942(3) 0.0442 Uani
O33 O 0.7990(5) 0.5978(3) 0.2330(3) 0.0291 Uani
O34 O 0.8146(5) 0.7397(3) 0.0910(3) 0.0263 Uani
O36 O 0.8009(5) 0.8005(4) 0.2843(3) 0.0363 Uani
H11 H 0.7019 0.8149 0.2625 0.0550 Uiso
O37 O 0.4782(5) 0.8438(3) 0.0722(3) 0.0275 Uani
O38 O 0.4972(5) 0.8896(3) 0.2686(3) 0.0304 Uani
O40 O 0.2108(5) 0.8888(3) 0.1504(3) 0.0310 Uani
H12 H 0.1915 0.8305 0.1817 0.0470 Uiso
O20 O 0.9385(4) 0.8850(3) 0.9165(3) 0.0213 Uani
loop_
_atom_site_aniso_label
_atom_site_aniso_U_11
_atom_site_aniso_U_22
_atom_site_aniso_U_33
_atom_site_aniso_U_23
_atom_site_aniso_U_13
_atom_site_aniso_U_12
In2 0.01498 0.01471 0.01653 0.00192 -0.00073 -0.00046
O24 0.0199 0.0216 0.0227 -0.0029 0.0065 -0.0057
O42 0.039 0.0147 0.0251 -0.0048 -0.0097 -0.0005
O46 0.0214 0.0192 0.0267 0.0081 -0.0047 -0.0007
In1 0.01616 0.01647 0.01605 0.00254 -0.00142 -0.00067
P1 0.0344 0.0224 0.023 0.0029 -0.0086 -0.0106
P2 0.0196 0.0216 0.0175 0.0068 0.003 0.0037
P3 0.0163 0.0201 0.019 0.005 -0.001 0.0011
P4 0.0189 0.0156 0.0223 0.0054 0.0034 0.0024
O1 0.04 0.0274 0.0176 -0.0062 -0.001 -0.0162
O2 0.097 0.11 0.033 -0.012 0.012 -0.077
O3 0.092 0.032 0.105 -0.005 -0.071 0.009
O4 0.039 0.0147 0.0251 -0.0048 -0.0097 -0.0005
O5 0.0266 0.034 0.0193 0.0062 0.005 0.0142
O6 0.079 0.025 0.029 0.0046 0.02 0.004
O7 0.023 0.076 0.034 0.031 0.0033 0.005
O8 0.0233 0.0228 0.0215 0.0058 0.0027 -0.0056
O9 0.035 0.0273 0.0246 0.0086 0.0054 -0.007
O10 0.0277 0.0275 0.0236 0.0092 -0.0002 0.008
O12 0.037 0.041 0.03 -0.0119 -0.0044 0.0121
O13 0.0199 0.032 0.0321 -0.0026 0.0119 -0.0031
O14 0.037 0.0278 0.0265 0.0117 0.0028 0.0038
O16 0.0229 0.0243 0.047 0.0148 0.0073 0.0041
O17 0.0221 0.0268 0.0218 -0.0021 -0.0053 0.0032
C1 0.017 0.023 0.019 0.0042 0.0002 0.0017
O22 0.0207 0.0236 0.0212 0.0004 -0.0042 0.0054
In7 0.01616 0.01647 0.01605 0.00254 -0.00142 -0.00067
In11 0.01498 0.01471 0.01653 0.00192 -0.00073 -0.00046
O44 0.0233 0.0228 0.0215 0.0058 0.0027 -0.0056
O35 0.0212 0.041 0.035 0.0204 -0.0007 0.0007
O15 0.0214 0.0192 0.0267 0.0081 -0.0047 -0.0007
O19 0.0209 0.0181 0.0254 -0.0053 0.0036 -0.0021
C2 0.018 0.013 0.017 -0.0005 0.0024 0.0009
O23 0.0209 0.0181 0.0254 -0.0053 0.0036 -0.0021
C4 0.018 0.013 0.017 -0.0005 0.0024 0.0009
O11 0.0212 0.041 0.035 0.0204 -0.0007 0.0007
O18 0.0207 0.0236 0.0212 0.0004 -0.0042 0.0054
O21 0.0221 0.0268 0.0218 -0.0021 -0.0053 0.0032
C3 0.017 0.023 0.019 0.0042 0.0002 0.0017
P5 0.0344 0.0224 0.023 0.0029 -0.0086 -0.0106
P6 0.0196 0.0216 0.0175 0.0068 0.003 0.0037
P7 0.0163 0.0201 0.019 0.005 -0.001 0.0011
P8 0.0189 0.0156 0.0223 0.0054 0.0034 0.0024
O25 0.04 0.0274 0.0176 -0.0062 -0.001 -0.0162
O26 0.097 0.11 0.033 -0.012 0.012 -0.077
O27 0.092 0.032 0.105 -0.005 -0.071 0.009
O29 0.0266 0.034 0.0193 0.0062 0.005 0.0142
O30 0.079 0.025 0.029 0.0046 0.02 0.004
O31 0.023 0.076 0.034 0.031 0.0033 0.005
O33 0.035 0.0273 0.0246 0.0086 0.0054 -0.007
O34 0.0277 0.0275 0.0236 0.0092 -0.0002 0.008
O36 0.037 0.041 0.03 -0.0119 -0.0044 0.0121
O37 0.0199 0.032 0.0321 -0.0026 0.0119 -0.0031
O38 0.037 0.0278 0.0265 0.0117 0.0028 0.0038
O40 0.0229 0.0243 0.047 0.0148 0.0073 0.0041
O20 0.0199 0.0216 0.0227 -0.0029 0.0065 -0.0057
loop_
_geom_bond_atom_site_label_1
_geom_bond_atom_site_label_2
_geom_bond_site_symmetry_1
_geom_bond_site_symmetry_2
O24 In2 1_555 1_555
O42 In2 1_555 1_555
O46 In2 1_555 1_555
In1 O1 1_555 1_555
P1 O1 1_555 1_555
P2 O5 1_555 1_555
P3 O9 1_555 1_555
P4 O13 1_555 1_555
O2 P1 1_555 1_555
H1 O2 1_555 1_555
O3 P1 1_555 1_555
H2 O3 1_555 1_555
O4 P1 1_555 1_555
O5 In1 1_555 1_555
O6 P2 1_555 1_555
H3 O6 1_555 1_555
O7 P2 1_555 1_555
O8 P2 1_555 1_555
O9 In1 1_555 1_555
O10 P3 1_555 1_555
O12 P3 1_555 1_555
H5 O12 1_555 1_555
O14 P4 1_555 1_555
O16 P4 1_555 1_555
H6 O16 1_555 1_555
O17 In1 1_555 1_555
C1 O17 1_555 1_555
O22 In1 1_555 1_555
In7 O8 1_555 1_555
In11 O4 1_555 1_555
O44 In1 1_555 1_555
H10 O35 1_555 1_555
C2 O19 1_555 1_555
In11 O15 1_555 1_555
O23 C4 1_555 1_555
H4 O11 1_555 1_555
O21 C3 1_555 1_555
In7 O18 1_555 1_555
O21 In7 1_555 1_555
In7 O25 1_555 1_555
P5 O25 1_555 1_555
P6 O29 1_555 1_555
P7 O33 1_555 1_555
P8 O37 1_555 1_555
O26 P5 1_555 1_555
H7 O26 1_555 1_555
O27 P5 1_555 1_555
H8 O27 1_555 1_555
O42 P5 1_555 1_555
O29 In7 1_555 1_555
O30 P6 1_555 1_555
H9 O30 1_555 1_555
O31 P6 1_555 1_555
O44 P6 1_555 1_555
O33 In7 1_555 1_555
O36 P7 1_555 1_555
H11 O36 1_555 1_555
O38 P8 1_555 1_555
O40 P8 1_555 1_555
H12 O40 1_555 1_555
P7 O34 1_555 1_555
In11 O20 1_555 1_555

#END
