
###############################################################################
#
# This file contains modified crystal structure data generated from the
# MOF subset of the Cambridge Structural Database (CSD) v543 
# hosted by the Cambridge Crystallographic Data Centre (CCDC).
#
# This work is licensed under the Creative Commons
# Attribution-NonCommercial-ShareAlike 4.0 International License.
# To view a copy of this license, visit
# http://creativecommons.org/licenses/by-nc-sa/4.0/
# or send a letter to
# Creative Commons, PO Box 1866, Mountain View, CA 94042, USA.
#
# CIF created using the CSD Python API on 29 September 2022
# The structure has been converted into the P1 space group
# The structure has a 3D framework
# The original CSD entry KIJRUS is in the tetragonal crystal system
# The framework has been calculated to contain at least 10.0% void space
# The void calculation uses a probe of radius 1.32A, grid spacing 0.4
# H atom positions have been added when not included in the experimental data
# Generated hydrogen atom positions removed from atoms on special positions
#
###############################################################################

data_KIJRUS
_chemical_formula_moiety         '(C320 H240 Cu20 O80)n'
_symmetry_cell_setting           triclinic
_symmetry_space_group_name_H-M   'P 1'
_symmetry_Int_Tables_number      1
_space_group_name_Hall           'P 1'
loop_
_symmetry_equiv_pos_site_id
_symmetry_equiv_pos_as_xyz
1 x,y,z
_cell_length_a                   28.1968(13)
_cell_length_b                   28.1968(13)
_cell_length_c                   18.1399(10)
_cell_angle_alpha                90
_cell_angle_beta                 90
_cell_angle_gamma                90
_cell_volume                     14422.3
loop_
_atom_site_label
_atom_site_type_symbol
_atom_site_fract_x
_atom_site_fract_y
_atom_site_fract_z
Cu1 Cu 0.27619(2) -0.0000 0.11281(4)
Cu2 Cu 0.213792(19) 0.0000 0.00492(3)
O1 O 0.18180(9) 0.04991(9) 0.06171(17)
O2 O 0.23538(10) 0.04941(9) 0.15489(16)
O3 O 0.24618(10) 0.45068(10) 0.46301(16)
O4 O 0.19209(9) 0.45169(10) 0.55381(17)
O6 O 0.32805(19) 0.0000 0.2004(3)
C1 C 0.19855(13) 0.06504(12) 0.1206(3)
C2 C 0.17310(13) 0.10571(13) 0.1583(2)
C3 C 0.18736(16) 0.12113(17) 0.2269(3)
H1 H 0.2125 0.1062 0.2505
C4 C 0.16463(15) 0.15873(17) 0.2609(3)
H2 H 0.1751 0.1693 0.3067
C5 C 0.12648(14) 0.18071(14) 0.2275(3)
C6 C 0.11180(16) 0.16475(15) 0.1573(3)
H3 H 0.0866 0.1793 0.1332
C7 C 0.13539(14) 0.12715(15) 0.1247(2)
H4 H 0.1254 0.1162 0.0789
C8 C 0.10058(13) 0.22153(14) 0.2639(3)
C9 C 0.05150(14) 0.22309(14) 0.2621(3)
H5 H 0.0352 0.2000 0.2357
C10 C 0.02575(12) 0.25812(13) 0.2986(3)
C11 C 0.05328(14) 0.29232(14) 0.3377(3)
H6 H 0.0375 0.3165 0.3624
C12 C 0.10147(13) 0.29120(14) 0.3406(3)
C13 C 0.12606(14) 0.25495(14) 0.3060(3)
H7 H 0.1588 0.2527 0.3104
C14 C 0.12962(14) 0.32762(14) 0.3820(3)
C15 C 0.17293(16) 0.3420(2) 0.3568(3)
H8 H 0.1866 0.3269 0.3164
C16 C 0.19661(18) 0.3789(2) 0.3913(3)
H9 H 0.2246 0.3902 0.3706
C17 C 0.18038(13) 0.39891(14) 0.4537(2)
C18 C 0.13758(17) 0.38342(17) 0.4804(3)
H10 H 0.1252 0.3968 0.5231
C19 C 0.11288(17) 0.34820(17) 0.4446(3)
H11 H 0.0839 0.3382 0.4636
C20 C 0.20892(13) 0.43697(12) 0.4931(2)
Cu5 Cu 0.22381(2) 0.5000 0.61281(4)
Cu8 Cu 0.286208(19) 0.5000 0.50492(3)
O15 O 0.30791(9) 0.04831(10) 0.05381(17)
O5 O 0.15735(16) 0.0000 0.9207(2)
O13 O 0.25382(10) 0.04932(10) 0.96301(16)
H23 H 0.155148 0.031946 0.897917
Cu1_2 Cu 0.27619(2) 1.0000 0.11281(4)
Cu2_2 Cu 0.213792(19) 1.0000 0.00492(3)
O6_2 O 0.32805(19) 1.0000 0.2004(3)
O11 O 0.18180(9) 0.95009(9) 0.06171(17)
O12 O 0.23538(10) 0.95059(9) 0.15489(16)
O16 O 0.30791(9) 0.95169(10) 0.05381(17)
H25 H 0.312335 0.991751 0.247681
H26 H 0.353088 0.976272 0.18938
O5_2 O 0.15735(16) 1.0000 0.9207(2)
O14 O 0.25382(10) 0.95068(10) 0.96301(16)
H24 H 0.164907 0.976191 0.882113
O7 O 0.81820(9) 0.04991(9) 0.06171(17)
O8 O 0.76462(10) 0.04941(9) 0.15489(16)
O9 O 0.75382(10) 0.45068(10) 0.46301(16)
O10 O 0.80791(9) 0.45169(10) 0.55381(17)
C21 C 0.80145(13) 0.06504(12) 0.1206(3)
C22 C 0.82690(13) 0.10571(13) 0.1583(2)
C23 C 0.81264(16) 0.12113(17) 0.2269(3)
H12 H 0.7875 0.1062 0.2505
C24 C 0.83537(15) 0.15873(17) 0.2609(3)
H13 H 0.8249 0.1693 0.3067
C25 C 0.87352(14) 0.18071(14) 0.2275(3)
C26 C 0.88820(16) 0.16475(15) 0.1573(3)
H14 H 0.9134 0.1793 0.1332
C27 C 0.86461(14) 0.12715(15) 0.1247(2)
H15 H 0.8746 0.1162 0.0789
C28 C 0.89942(13) 0.22153(14) 0.2639(3)
C29 C 0.94850(14) 0.22309(14) 0.2621(3)
H16 H 0.9648 0.2000 0.2357
C30 C 0.97425(12) 0.25812(13) 0.2986(3)
C31 C 0.94672(14) 0.29232(14) 0.3377(3)
H17 H 0.9625 0.3165 0.3624
C32 C 0.89853(13) 0.29120(14) 0.3406(3)
C33 C 0.87394(14) 0.25495(14) 0.3060(3)
H18 H 0.8412 0.2527 0.3104
C34 C 0.87038(14) 0.32762(14) 0.3820(3)
C35 C 0.82707(16) 0.3420(2) 0.3568(3)
H19 H 0.8134 0.3269 0.3164
C36 C 0.80339(18) 0.3789(2) 0.3913(3)
H20 H 0.7754 0.3902 0.3706
C37 C 0.81962(13) 0.39891(14) 0.4537(2)
C38 C 0.86242(17) 0.38342(17) 0.4804(3)
H21 H 0.8748 0.3968 0.5231
C39 C 0.88712(17) 0.34820(17) 0.4446(3)
H22 H 0.9161 0.3382 0.4636
C40 C 0.79108(13) 0.43697(12) 0.4931(2)
Cu3 Cu 0.72381(2) -0.0000 0.11281(4)
Cu4 Cu 0.77619(2) 0.5000 0.61281(4)
Cu6 Cu 0.786208(19) 0.0000 0.00492(3)
Cu7 Cu 0.713792(19) 0.5000 0.50492(3)
Cu3_2 Cu 0.72381(2) 1.0000 0.11281(4)
Cu6_2 Cu 0.786208(19) 1.0000 0.00492(3)
O9_2 O 0.24618(10) 0.54932(10) 0.46301(16)
O10_2 O 0.19209(9) 0.54831(10) 0.55381(17)
C21_2 C 0.19855(13) 0.93496(12) 0.1206(3)
C22_2 C 0.17310(13) 0.89429(13) 0.1583(2)
C23_2 C 0.18736(16) 0.87887(17) 0.2269(3)
H12_2 H 0.2125 0.8938 0.2505
C24_2 C 0.16463(15) 0.84127(17) 0.2609(3)
H13_2 H 0.1751 0.8307 0.3067
C25_2 C 0.12648(14) 0.81929(14) 0.2275(3)
C26_2 C 0.11180(16) 0.83525(15) 0.1573(3)
H14_2 H 0.0866 0.8207 0.1332
C27_2 C 0.13539(14) 0.87285(15) 0.1247(2)
H15_2 H 0.1254 0.8838 0.0789
C28_2 C 0.10058(13) 0.77847(14) 0.2639(3)
C29_2 C 0.05150(14) 0.77691(14) 0.2621(3)
H16_2 H 0.0352 0.8000 0.2357
C30_2 C 0.02575(12) 0.74188(13) 0.2986(3)
C31_2 C 0.05328(14) 0.70768(14) 0.3377(3)
H17_2 H 0.0375 0.6835 0.3624
C32_2 C 0.10147(13) 0.70880(14) 0.3406(3)
C33_2 C 0.12606(14) 0.74505(14) 0.3060(3)
H18_2 H 0.1588 0.7473 0.3104
C34_2 C 0.12962(14) 0.67238(14) 0.3820(3)
C35_2 C 0.17293(16) 0.6580(2) 0.3568(3)
H19_2 H 0.1866 0.6731 0.3164
C36_2 C 0.19661(18) 0.6211(2) 0.3913(3)
H20_2 H 0.2246 0.6098 0.3706
C37_2 C 0.18038(13) 0.60109(14) 0.4537(2)
C38_2 C 0.13758(17) 0.61658(17) 0.4804(3)
H21_2 H 0.1252 0.6032 0.5231
C39_2 C 0.11288(17) 0.65180(17) 0.4446(3)
H22_2 H 0.0839 0.6618 0.4636
C40_2 C 0.20892(13) 0.56303(12) 0.4931(2)
O6_3 O 0.67195(19) 0.0000 0.2004(3)
O16_2 O 0.69209(9) 0.04831(10) 0.05381(17)
H25_2 H 0.687665 0.00824886 0.247681
H26_2 H 0.646912 0.0237284 0.18938
O5_3 O 0.84265(16) 0.0000 0.9207(2)
O14_2 O 0.74618(10) 0.04932(10) 0.96301(16)
H24_2 H 0.835093 0.0238091 0.882113
O1_2 O 0.81820(9) 0.95009(9) 0.06171(17)
O2_2 O 0.76462(10) 0.95059(9) 0.15489(16)
O3_2 O 0.75382(10) 0.54932(10) 0.46301(16)
O4_2 O 0.80791(9) 0.54831(10) 0.55381(17)
O6_4 O 0.67195(19) 1.0000 0.2004(3)
C1_2 C 0.80145(13) 0.93496(12) 0.1206(3)
C2_2 C 0.82690(13) 0.89429(13) 0.1583(2)
C3_2 C 0.81264(16) 0.87887(17) 0.2269(3)
H1_2 H 0.7875 0.8938 0.2505
C4_2 C 0.83537(15) 0.84127(17) 0.2609(3)
H2_2 H 0.8249 0.8307 0.3067
C5_2 C 0.87352(14) 0.81929(14) 0.2275(3)
C6_2 C 0.88820(16) 0.83525(15) 0.1573(3)
H3_2 H 0.9134 0.8207 0.1332
C7_2 C 0.86461(14) 0.87285(15) 0.1247(2)
H4_2 H 0.8746 0.8838 0.0789
C8_2 C 0.89942(13) 0.77847(14) 0.2639(3)
C9_2 C 0.94850(14) 0.77691(14) 0.2621(3)
H5_2 H 0.9648 0.8000 0.2357
C10_2 C 0.97425(12) 0.74188(13) 0.2986(3)
C11_2 C 0.94672(14) 0.70768(14) 0.3377(3)
H6_2 H 0.9625 0.6835 0.3624
C12_2 C 0.89853(13) 0.70880(14) 0.3406(3)
C13_2 C 0.87394(14) 0.74505(14) 0.3060(3)
H7_2 H 0.8412 0.7473 0.3104
C14_2 C 0.87038(14) 0.67238(14) 0.3820(3)
C15_2 C 0.82707(16) 0.6580(2) 0.3568(3)
H8_2 H 0.8134 0.6731 0.3164
C16_2 C 0.80339(18) 0.6211(2) 0.3913(3)
H9_2 H 0.7754 0.6098 0.3706
C17_2 C 0.81962(13) 0.60109(14) 0.4537(2)
C18_2 C 0.86242(17) 0.61658(17) 0.4804(3)
H10_2 H 0.8748 0.6032 0.5231
C19_2 C 0.88712(17) 0.65180(17) 0.4446(3)
H11_2 H 0.9161 0.6618 0.4636
C20_2 C 0.79108(13) 0.56303(12) 0.4931(2)
O15_2 O 0.69209(9) 0.95169(10) 0.05381(17)
O5_4 O 0.84265(16) 1.0000 0.9207(2)
O13_2 O 0.74618(10) 0.95068(10) 0.96301(16)
H23_2 H 0.844852 0.968054 0.897917
H23_3 H 0.844852 0.031946 0.897917
H25_3 H 0.687665 0.991751 0.247681
H26_3 H 0.646912 0.976272 0.18938
H24_3 H 0.835093 0.976191 0.882113
H25_4 H 0.312335 0.00824886 0.247681
H26_4 H 0.353088 0.0237284 0.18938
H24_4 H 0.164907 0.0238091 0.882113
H23_4 H 0.155148 0.968054 0.897917
H10_3 H 0.6252 0.8968 0.0231
H21_3 H 0.3748 0.8968 0.0231
O1_3 O 0.68180(9) 0.54991(9) 0.56171(17)
O2_3 O 0.73538(10) 0.54941(9) 0.65489(16)
O5_5 O 0.65735(16) 0.5000 0.4207(2)
O6_5 O 0.82805(19) 0.5000 0.7004(3)
C1_3 C 0.69855(13) 0.56504(12) 0.6206(3)
C2_3 C 0.67310(13) 0.60571(13) 0.6583(2)
C3_3 C 0.68736(16) 0.62113(17) 0.7269(3)
H1_3 H 0.7125 0.6062 0.7505
C4_3 C 0.66463(15) 0.65873(17) 0.7609(3)
H2_3 H 0.6751 0.6693 0.8067
C5_3 C 0.62648(14) 0.68071(14) 0.7275(3)
C6_3 C 0.61180(16) 0.66475(15) 0.6573(3)
H3_3 H 0.5866 0.6793 0.6332
C7_3 C 0.63539(14) 0.62715(15) 0.6247(2)
H4_3 H 0.6254 0.6162 0.5789
C8_3 C 0.60058(13) 0.72153(14) 0.7639(3)
C9_3 C 0.55150(14) 0.72309(14) 0.7621(3)
H5_3 H 0.5352 0.7000 0.7357
C10_3 C 0.52575(12) 0.75812(13) 0.7986(3)
C11_3 C 0.55328(14) 0.79232(14) 0.8377(3)
H6_3 H 0.5375 0.8165 0.8624
C12_3 C 0.60147(13) 0.79120(14) 0.8406(3)
C13_3 C 0.62606(14) 0.75495(14) 0.8060(3)
H7_3 H 0.6588 0.7527 0.8104
C14_3 C 0.62962(14) 0.82762(14) 0.8820(3)
C15_3 C 0.67293(16) 0.8420(2) 0.8568(3)
H8_3 H 0.6866 0.8269 0.8164
C16_3 C 0.69661(18) 0.8789(2) 0.8913(3)
H9_3 H 0.7246 0.8902 0.8706
C17_3 C 0.68038(13) 0.89891(14) 0.9537(2)
C18_3 C 0.63758(17) 0.88342(17) 0.9804(3)
C19_3 C 0.61288(17) 0.84820(17) 0.9446(3)
H11_3 H 0.5839 0.8382 0.9636
C20_3 C 0.70892(13) 0.93697(12) 0.9931(2)
O7_2 O 0.31820(9) 0.54991(9) 0.56171(17)
O8_2 O 0.26462(10) 0.54941(9) 0.65489(16)
C21_3 C 0.30145(13) 0.56504(12) 0.6206(3)
C22_3 C 0.32690(13) 0.60571(13) 0.6583(2)
C23_3 C 0.31264(16) 0.62113(17) 0.7269(3)
H12_3 H 0.2875 0.6062 0.7505
C24_3 C 0.33537(15) 0.65873(17) 0.7609(3)
H13_3 H 0.3249 0.6693 0.8067
C25_3 C 0.37352(14) 0.68071(14) 0.7275(3)
C26_3 C 0.38820(16) 0.66475(15) 0.6573(3)
H14_3 H 0.4134 0.6793 0.6332
C27_3 C 0.36461(14) 0.62715(15) 0.6247(2)
H15_3 H 0.3746 0.6162 0.5789
C28_3 C 0.39942(13) 0.72153(14) 0.7639(3)
C29_3 C 0.44850(14) 0.72309(14) 0.7621(3)
H16_3 H 0.4648 0.7000 0.7357
C30_3 C 0.47425(12) 0.75812(13) 0.7986(3)
C31_3 C 0.44672(14) 0.79232(14) 0.8377(3)
H17_3 H 0.4625 0.8165 0.8624
C32_3 C 0.39853(13) 0.79120(14) 0.8406(3)
C33_3 C 0.37394(14) 0.75495(14) 0.8060(3)
H18_3 H 0.3412 0.7527 0.8104
C34_3 C 0.37038(14) 0.82762(14) 0.8820(3)
C35_3 C 0.32707(16) 0.8420(2) 0.8568(3)
H19_3 H 0.3134 0.8269 0.8164
C36_3 C 0.30339(18) 0.8789(2) 0.8913(3)
H20_3 H 0.2754 0.8902 0.8706
C37_3 C 0.31962(13) 0.89891(14) 0.9537(2)
C38_3 C 0.36242(17) 0.88342(17) 0.9804(3)
C39_3 C 0.38712(17) 0.84820(17) 0.9446(3)
H22_3 H 0.4161 0.8382 0.9636
C40_3 C 0.29108(13) 0.93697(12) 0.9931(2)
O11_2 O 0.68180(9) 0.45009(9) 0.56171(17)
O12_2 O 0.73538(10) 0.45059(9) 0.65489(16)
H10_4 H 0.3748 0.1032 0.0231
H21_4 H 0.6252 0.1032 0.0231
O1_4 O 0.31820(9) 0.45009(9) 0.56171(17)
O2_4 O 0.26462(10) 0.45059(9) 0.65489(16)
O5_6 O 0.34265(16) 0.5000 0.4207(2)
O6_6 O 0.17195(19) 0.5000 0.7004(3)
C1_4 C 0.30145(13) 0.43496(12) 0.6206(3)
C2_4 C 0.32690(13) 0.39429(13) 0.6583(2)
C3_4 C 0.31264(16) 0.37887(17) 0.7269(3)
H1_4 H 0.2875 0.3938 0.7505
C4_4 C 0.33537(15) 0.34127(17) 0.7609(3)
H2_4 H 0.3249 0.3307 0.8067
C5_4 C 0.37352(14) 0.31929(14) 0.7275(3)
C6_4 C 0.38820(16) 0.33525(15) 0.6573(3)
H3_4 H 0.4134 0.3207 0.6332
C7_4 C 0.36461(14) 0.37285(15) 0.6247(2)
H4_4 H 0.3746 0.3838 0.5789
C8_4 C 0.39942(13) 0.27847(14) 0.7639(3)
C9_4 C 0.44850(14) 0.27691(14) 0.7621(3)
H5_4 H 0.4648 0.3000 0.7357
C10_4 C 0.47425(12) 0.24188(13) 0.7986(3)
C11_4 C 0.44672(14) 0.20768(14) 0.8377(3)
H6_4 H 0.4625 0.1835 0.8624
C12_4 C 0.39853(13) 0.20880(14) 0.8406(3)
C13_4 C 0.37394(14) 0.24505(14) 0.8060(3)
H7_4 H 0.3412 0.2473 0.8104
C14_4 C 0.37038(14) 0.17238(14) 0.8820(3)
C15_4 C 0.32707(16) 0.1580(2) 0.8568(3)
H8_4 H 0.3134 0.1731 0.8164
C16_4 C 0.30339(18) 0.1211(2) 0.8913(3)
H9_4 H 0.2754 0.1098 0.8706
C17_4 C 0.31962(13) 0.10109(14) 0.9537(2)
C18_4 C 0.36242(17) 0.11658(17) 0.9804(3)
C19_4 C 0.38712(17) 0.15180(17) 0.9446(3)
H11_4 H 0.4161 0.1618 0.9636
C20_4 C 0.29108(13) 0.06303(12) 0.9931(2)
C21_4 C 0.69855(13) 0.43496(12) 0.6206(3)
C22_4 C 0.67310(13) 0.39429(13) 0.6583(2)
C23_4 C 0.68736(16) 0.37887(17) 0.7269(3)
H12_4 H 0.7125 0.3938 0.7505
C24_4 C 0.66463(15) 0.34127(17) 0.7609(3)
H13_4 H 0.6751 0.3307 0.8067
C25_4 C 0.62648(14) 0.31929(14) 0.7275(3)
C26_4 C 0.61180(16) 0.33525(15) 0.6573(3)
H14_4 H 0.5866 0.3207 0.6332
C27_4 C 0.63539(14) 0.37285(15) 0.6247(2)
H15_4 H 0.6254 0.3838 0.5789
C28_4 C 0.60058(13) 0.27847(14) 0.7639(3)
C29_4 C 0.55150(14) 0.27691(14) 0.7621(3)
H16_4 H 0.5352 0.3000 0.7357
C30_4 C 0.52575(12) 0.24188(13) 0.7986(3)
C31_4 C 0.55328(14) 0.20768(14) 0.8377(3)
H17_4 H 0.5375 0.1835 0.8624
C32_4 C 0.60147(13) 0.20880(14) 0.8406(3)
C33_4 C 0.62606(14) 0.24505(14) 0.8060(3)
H18_4 H 0.6588 0.2473 0.8104
C34_4 C 0.62962(14) 0.17238(14) 0.8820(3)
C35_4 C 0.67293(16) 0.1580(2) 0.8568(3)
H19_4 H 0.6866 0.1731 0.8164
C36_4 C 0.69661(18) 0.1211(2) 0.8913(3)
H20_4 H 0.7246 0.1098 0.8706
C37_4 C 0.68038(13) 0.10109(14) 0.9537(2)
C38_4 C 0.63758(17) 0.11658(17) 0.9804(3)
C39_4 C 0.61288(17) 0.15180(17) 0.9446(3)
H22_4 H 0.5839 0.1618 0.9636
C40_4 C 0.70892(13) 0.06303(12) 0.9931(2)
O7_3 O 0.04991(9) 0.18180(9) 0.93829(17)
O8_3 O 0.04941(9) 0.23538(10) 0.84511(16)
O9_3 O 0.45068(10) 0.24618(10) 0.53699(16)
O10_3 O 0.45169(10) 0.19209(9) 0.44619(17)
C21_5 C 0.06504(12) 0.19855(13) 0.8794(3)
C22_5 C 0.10571(13) 0.17310(13) 0.8417(2)
C23_5 C 0.12113(17) 0.18736(16) 0.7731(3)
H12_5 H 0.1062 0.2125 0.7495
C24_5 C 0.15873(17) 0.16463(15) 0.7391(3)
H13_5 H 0.1693 0.1751 0.6933
C25_5 C 0.18071(14) 0.12648(14) 0.7725(3)
C26_5 C 0.16475(15) 0.11180(16) 0.8427(3)
H14_5 H 0.1793 0.0866 0.8668
C27_5 C 0.12715(15) 0.13539(14) 0.8753(2)
H15_5 H 0.1162 0.1254 0.9211
C28_5 C 0.22153(14) 0.10058(13) 0.7361(3)
C29_5 C 0.22309(14) 0.05150(14) 0.7379(3)
H16_5 H 0.2000 0.0352 0.7643
C30_5 C 0.25812(13) 0.02575(12) 0.7014(3)
C31_5 C 0.29232(14) 0.05328(14) 0.6623(3)
H17_5 H 0.3165 0.0375 0.6376
C32_5 C 0.29120(14) 0.10147(13) 0.6594(3)
C33_5 C 0.25495(14) 0.12606(14) 0.6940(3)
H18_5 H 0.2527 0.1588 0.6896
C34_5 C 0.32762(14) 0.12962(14) 0.6180(3)
C35_5 C 0.3420(2) 0.17293(16) 0.6432(3)
H19_5 H 0.3269 0.1866 0.6836
C36_5 C 0.3789(2) 0.19661(18) 0.6087(3)
H20_5 H 0.3902 0.2246 0.6294
C37_5 C 0.39891(14) 0.18038(13) 0.5463(2)
C38_5 C 0.38342(17) 0.13758(17) 0.5196(3)
H21_5 H 0.3968 0.1252 0.4769
C39_5 C 0.34820(17) 0.11288(17) 0.5554(3)
H22_5 H 0.3382 0.0839 0.5364
C40_5 C 0.43697(12) 0.20892(13) 0.5069(2)
Cu3_3 Cu 0.0000 0.27619(2) 0.88719(4)
Cu4_2 Cu 0.5000 0.22381(2) 0.38719(4)
Cu6_3 Cu 0.0000 0.213792(19) 0.99508(3)
Cu7_2 Cu 0.5000 0.286208(19) 0.49508(3)
O5_7 O 0.0000 0.84265(16) 0.0793(2)
O13_3 O 0.04932(10) 0.74618(10) 0.03699(16)
H23_5 H 0.031946 0.844852 0.102083
Cu1_3 Cu 0.0000 0.72381(2) 0.88719(4)
Cu2_3 Cu 0.0000 0.786208(19) 0.99508(3)
O1_5 O 0.04991(9) 0.81820(9) 0.93829(17)
O2_5 O 0.04941(9) 0.76462(10) 0.84511(16)
O3_3 O 0.45068(10) 0.75382(10) 0.53699(16)
O4_3 O 0.45169(10) 0.80791(9) 0.44619(17)
O6_7 O 0.0000 0.67195(19) 0.7996(3)
C1_5 C 0.06504(12) 0.80145(13) 0.8794(3)
C2_5 C 0.10571(13) 0.82690(13) 0.8417(2)
C3_5 C 0.12113(17) 0.81264(16) 0.7731(3)
H1_5 H 0.1062 0.7875 0.7495
C4_5 C 0.15873(17) 0.83537(15) 0.7391(3)
H2_5 H 0.1693 0.8249 0.6933
C5_5 C 0.18071(14) 0.87352(14) 0.7725(3)
C6_5 C 0.16475(15) 0.88820(16) 0.8427(3)
H3_5 H 0.1793 0.9134 0.8668
C7_5 C 0.12715(15) 0.86461(14) 0.8753(2)
H4_5 H 0.1162 0.8746 0.9211
C8_5 C 0.22153(14) 0.89942(13) 0.7361(3)
C9_5 C 0.22309(14) 0.94850(14) 0.7379(3)
H5_5 H 0.2000 0.9648 0.7643
C10_5 C 0.25812(13) 0.97425(12) 0.7014(3)
C11_5 C 0.29232(14) 0.94672(14) 0.6623(3)
H6_5 H 0.3165 0.9625 0.6376
C12_5 C 0.29120(14) 0.89853(13) 0.6594(3)
C13_5 C 0.25495(14) 0.87394(14) 0.6940(3)
H7_5 H 0.2527 0.8412 0.6896
C14_5 C 0.32762(14) 0.87038(14) 0.6180(3)
C15_5 C 0.3420(2) 0.82707(16) 0.6432(3)
H8_5 H 0.3269 0.8134 0.6836
C16_5 C 0.3789(2) 0.80339(18) 0.6087(3)
H9_5 H 0.3902 0.7754 0.6294
C17_5 C 0.39891(14) 0.81962(13) 0.5463(2)
C18_5 C 0.38342(17) 0.86242(17) 0.5196(3)
H10_5 H 0.3968 0.8748 0.4769
C19_5 C 0.34820(17) 0.88712(17) 0.5554(3)
H11_5 H 0.3382 0.9161 0.5364
C20_5 C 0.43697(12) 0.79108(13) 0.5069(2)
Cu5_2 Cu 0.5000 0.77619(2) 0.38719(4)
Cu8_2 Cu 0.5000 0.713792(19) 0.49508(3)
O15_3 O 0.04831(10) 0.69209(9) 0.94619(17)
Cu3_4 Cu 1.0000 0.27619(2) 0.88719(4)
Cu6_4 Cu 1.0000 0.213792(19) 0.99508(3)
O5_8 O 1.0000 0.84265(16) 0.0793(2)
O14_3 O 0.95068(10) 0.74618(10) 0.03699(16)
H24_5 H 0.976191 0.835093 0.117887
Cu1_4 Cu 1.0000 0.72381(2) 0.88719(4)
Cu2_4 Cu 1.0000 0.786208(19) 0.99508(3)
O6_8 O 1.0000 0.67195(19) 0.7996(3)
O11_3 O 0.95009(9) 0.81820(9) 0.93829(17)
O12_3 O 0.95059(9) 0.76462(10) 0.84511(16)
O16_3 O 0.95169(10) 0.69209(9) 0.94619(17)
H25_5 H 0.991751 0.687665 0.752319
H26_5 H 0.976272 0.646912 0.81062
O5_9 O 0.0000 0.15735(16) 0.0793(2)
O14_4 O 0.04932(10) 0.25382(10) 0.03699(16)
H24_6 H 0.0238091 0.164907 0.117887
O6_9 O 0.0000 0.32805(19) 0.7996(3)
O16_4 O 0.04831(10) 0.30791(9) 0.94619(17)
H25_6 H 0.00824886 0.312335 0.752319
H26_6 H 0.0237284 0.353088 0.81062
O5_10 O 1.0000 0.15735(16) 0.0793(2)
O13_4 O 0.95068(10) 0.25382(10) 0.03699(16)
H23_6 H 0.968054 0.155148 0.102083
O1_6 O 0.95009(9) 0.18180(9) 0.93829(17)
O2_6 O 0.95059(9) 0.23538(10) 0.84511(16)
O3_4 O 0.54932(10) 0.24618(10) 0.53699(16)
O4_4 O 0.54831(10) 0.19209(9) 0.44619(17)
O6_10 O 1.0000 0.32805(19) 0.7996(3)
C1_6 C 0.93496(12) 0.19855(13) 0.8794(3)
C2_6 C 0.89429(13) 0.17310(13) 0.8417(2)
C3_6 C 0.87887(17) 0.18736(16) 0.7731(3)
H1_6 H 0.8938 0.2125 0.7495
C4_6 C 0.84127(17) 0.16463(15) 0.7391(3)
H2_6 H 0.8307 0.1751 0.6933
C5_6 C 0.81929(14) 0.12648(14) 0.7725(3)
C6_6 C 0.83525(15) 0.11180(16) 0.8427(3)
H3_6 H 0.8207 0.0866 0.8668
C7_6 C 0.87285(15) 0.13539(14) 0.8753(2)
H4_6 H 0.8838 0.1254 0.9211
C8_6 C 0.77847(14) 0.10058(13) 0.7361(3)
C9_6 C 0.77691(14) 0.05150(14) 0.7379(3)
H5_6 H 0.8000 0.0352 0.7643
C10_6 C 0.74188(13) 0.02575(12) 0.7014(3)
C11_6 C 0.70768(14) 0.05328(14) 0.6623(3)
H6_6 H 0.6835 0.0375 0.6376
C12_6 C 0.70880(14) 0.10147(13) 0.6594(3)
C13_6 C 0.74505(14) 0.12606(14) 0.6940(3)
H7_6 H 0.7473 0.1588 0.6896
C14_6 C 0.67238(14) 0.12962(14) 0.6180(3)
C15_6 C 0.6580(2) 0.17293(16) 0.6432(3)
H8_6 H 0.6731 0.1866 0.6836
C16_6 C 0.6211(2) 0.19661(18) 0.6087(3)
H9_6 H 0.6098 0.2246 0.6294
C17_6 C 0.60109(14) 0.18038(13) 0.5463(2)
C18_6 C 0.61658(17) 0.13758(17) 0.5196(3)
H10_6 H 0.6032 0.1252 0.4769
C19_6 C 0.65180(17) 0.11288(17) 0.5554(3)
H11_6 H 0.6618 0.0839 0.5364
C20_6 C 0.56303(12) 0.20892(13) 0.5069(2)
O15_4 O 0.95169(10) 0.30791(9) 0.94619(17)
O9_4 O 0.54932(10) 0.75382(10) 0.53699(16)
O10_4 O 0.54831(10) 0.80791(9) 0.44619(17)
C21_6 C 0.93496(12) 0.80145(13) 0.8794(3)
C22_6 C 0.89429(13) 0.82690(13) 0.8417(2)
C23_6 C 0.87887(17) 0.81264(16) 0.7731(3)
H12_6 H 0.8938 0.7875 0.7495
C24_6 C 0.84127(17) 0.83537(15) 0.7391(3)
H13_6 H 0.8307 0.8249 0.6933
C25_6 C 0.81929(14) 0.87352(14) 0.7725(3)
C26_6 C 0.83525(15) 0.88820(16) 0.8427(3)
H14_6 H 0.8207 0.9134 0.8668
C27_6 C 0.87285(15) 0.86461(14) 0.8753(2)
H15_6 H 0.8838 0.8746 0.9211
C28_6 C 0.77847(14) 0.89942(13) 0.7361(3)
C29_6 C 0.77691(14) 0.94850(14) 0.7379(3)
H16_6 H 0.8000 0.9648 0.7643
C30_6 C 0.74188(13) 0.97425(12) 0.7014(3)
C31_6 C 0.70768(14) 0.94672(14) 0.6623(3)
H17_6 H 0.6835 0.9625 0.6376
C32_6 C 0.70880(14) 0.89853(13) 0.6594(3)
C33_6 C 0.74505(14) 0.87394(14) 0.6940(3)
H18_6 H 0.7473 0.8412 0.6896
C34_6 C 0.67238(14) 0.87038(14) 0.6180(3)
C35_6 C 0.6580(2) 0.82707(16) 0.6432(3)
H19_6 H 0.6731 0.8134 0.6836
C36_6 C 0.6211(2) 0.80339(18) 0.6087(3)
H20_6 H 0.6098 0.7754 0.6294
C37_6 C 0.60109(14) 0.81962(13) 0.5463(2)
C38_6 C 0.61658(17) 0.86242(17) 0.5196(3)
H21_6 H 0.6032 0.8748 0.4769
C39_6 C 0.65180(17) 0.88712(17) 0.5554(3)
H22_6 H 0.6618 0.9161 0.5364
C40_6 C 0.56303(12) 0.79108(13) 0.5069(2)
H23_7 H 0.031946 0.155148 0.102083
H24_7 H 0.976191 0.164907 0.117887
H25_7 H 0.991751 0.312335 0.752319
H26_7 H 0.976272 0.353088 0.81062
H24_8 H 0.0238091 0.835093 0.117887
H25_8 H 0.00824886 0.687665 0.752319
H26_8 H 0.0237284 0.646912 0.81062
H23_8 H 0.968054 0.844852 0.102083
O1_7 O 0.54991(9) 0.31820(9) 0.43829(17)
O2_7 O 0.54941(9) 0.26462(10) 0.34511(16)
O5_11 O 0.5000 0.34265(16) 0.5793(2)
O6_11 O 0.5000 0.17195(19) 0.2996(3)
C1_7 C 0.56504(12) 0.30145(13) 0.3794(3)
C2_7 C 0.60571(13) 0.32690(13) 0.3417(2)
C3_7 C 0.62113(17) 0.31264(16) 0.2731(3)
H1_7 H 0.6062 0.2875 0.2495
C4_7 C 0.65873(17) 0.33537(15) 0.2391(3)
H2_7 H 0.6693 0.3249 0.1933
C5_7 C 0.68071(14) 0.37352(14) 0.2725(3)
C6_7 C 0.66475(15) 0.38820(16) 0.3427(3)
H3_7 H 0.6793 0.4134 0.3668
C7_7 C 0.62715(15) 0.36461(14) 0.3753(2)
H4_7 H 0.6162 0.3746 0.4211
C8_7 C 0.72153(14) 0.39942(13) 0.2361(3)
C9_7 C 0.72309(14) 0.44850(14) 0.2379(3)
H5_7 H 0.7000 0.4648 0.2643
C10_7 C 0.75812(13) 0.47425(12) 0.2014(3)
C11_7 C 0.79232(14) 0.44672(14) 0.1623(3)
H6_7 H 0.8165 0.4625 0.1376
C12_7 C 0.79120(14) 0.39853(13) 0.1594(3)
C13_7 C 0.75495(14) 0.37394(14) 0.1940(3)
H7_7 H 0.7527 0.3412 0.1896
C14_7 C 0.82762(14) 0.37038(14) 0.1180(3)
C15_7 C 0.8420(2) 0.32707(16) 0.1432(3)
H8_7 H 0.8269 0.3134 0.1836
C16_7 C 0.8789(2) 0.30339(18) 0.1087(3)
H9_7 H 0.8902 0.2754 0.1294
C17_7 C 0.89891(14) 0.31962(13) 0.0463(2)
C18_7 C 0.88342(17) 0.36242(17) 0.0196(3)
C19_7 C 0.84820(17) 0.38712(17) 0.0554(3)
H11_7 H 0.8382 0.4161 0.0364
C20_7 C 0.93697(12) 0.29108(13) 0.0069(2)
O7_4 O 0.54991(9) 0.68180(9) 0.43829(17)
O8_4 O 0.54941(9) 0.73538(10) 0.34511(16)
C21_7 C 0.56504(12) 0.69855(13) 0.3794(3)
C22_7 C 0.60571(13) 0.67310(13) 0.3417(2)
C23_7 C 0.62113(17) 0.68736(16) 0.2731(3)
H12_7 H 0.6062 0.7125 0.2495
C24_7 C 0.65873(17) 0.66463(15) 0.2391(3)
H13_7 H 0.6693 0.6751 0.1933
C25_7 C 0.68071(14) 0.62648(14) 0.2725(3)
C26_7 C 0.66475(15) 0.61180(16) 0.3427(3)
H14_7 H 0.6793 0.5866 0.3668
C27_7 C 0.62715(15) 0.63539(14) 0.3753(2)
H15_7 H 0.6162 0.6254 0.4211
C28_7 C 0.72153(14) 0.60058(13) 0.2361(3)
C29_7 C 0.72309(14) 0.55150(14) 0.2379(3)
H16_7 H 0.7000 0.5352 0.2643
C30_7 C 0.75812(13) 0.52575(12) 0.2014(3)
C31_7 C 0.79232(14) 0.55328(14) 0.1623(3)
H17_7 H 0.8165 0.5375 0.1376
C32_7 C 0.79120(14) 0.60147(13) 0.1594(3)
C33_7 C 0.75495(14) 0.62606(14) 0.1940(3)
H18_7 H 0.7527 0.6588 0.1896
C34_7 C 0.82762(14) 0.62962(14) 0.1180(3)
C35_7 C 0.8420(2) 0.67293(16) 0.1432(3)
H19_7 H 0.8269 0.6866 0.1836
C36_7 C 0.8789(2) 0.69661(18) 0.1087(3)
H20_7 H 0.8902 0.7246 0.1294
C37_7 C 0.89891(14) 0.68038(13) 0.0463(2)
C38_7 C 0.88342(17) 0.63758(17) 0.0196(3)
C39_7 C 0.84820(17) 0.61288(17) 0.0554(3)
H22_7 H 0.8382 0.5839 0.0364
C40_7 C 0.93697(12) 0.70892(13) 0.0069(2)
O11_4 O 0.45009(9) 0.31820(9) 0.43829(17)
O12_4 O 0.45059(9) 0.26462(10) 0.34511(16)
H10_7 H 0.8968 0.3748 0.9769
H21_7 H 0.8968 0.6252 0.9769
O1_8 O 0.45009(9) 0.68180(9) 0.43829(17)
O2_8 O 0.45059(9) 0.73538(10) 0.34511(16)
O5_12 O 0.5000 0.65735(16) 0.5793(2)
O6_12 O 0.5000 0.82805(19) 0.2996(3)
C1_8 C 0.43496(12) 0.69855(13) 0.3794(3)
C2_8 C 0.39429(13) 0.67310(13) 0.3417(2)
C3_8 C 0.37887(17) 0.68736(16) 0.2731(3)
H1_8 H 0.3938 0.7125 0.2495
C4_8 C 0.34127(17) 0.66463(15) 0.2391(3)
H2_8 H 0.3307 0.6751 0.1933
C5_8 C 0.31929(14) 0.62648(14) 0.2725(3)
C6_8 C 0.33525(15) 0.61180(16) 0.3427(3)
H3_8 H 0.3207 0.5866 0.3668
C7_8 C 0.37285(15) 0.63539(14) 0.3753(2)
H4_8 H 0.3838 0.6254 0.4211
C8_8 C 0.27847(14) 0.60058(13) 0.2361(3)
C9_8 C 0.27691(14) 0.55150(14) 0.2379(3)
H5_8 H 0.3000 0.5352 0.2643
C10_8 C 0.24188(13) 0.52575(12) 0.2014(3)
C11_8 C 0.20768(14) 0.55328(14) 0.1623(3)
H6_8 H 0.1835 0.5375 0.1376
C12_8 C 0.20880(14) 0.60147(13) 0.1594(3)
C13_8 C 0.24505(14) 0.62606(14) 0.1940(3)
H7_8 H 0.2473 0.6588 0.1896
C14_8 C 0.17238(14) 0.62962(14) 0.1180(3)
C15_8 C 0.1580(2) 0.67293(16) 0.1432(3)
H8_8 H 0.1731 0.6866 0.1836
C16_8 C 0.1211(2) 0.69661(18) 0.1087(3)
H9_8 H 0.1098 0.7246 0.1294
C17_8 C 0.10109(14) 0.68038(13) 0.0463(2)
C18_8 C 0.11658(17) 0.63758(17) 0.0196(3)
C19_8 C 0.15180(17) 0.61288(17) 0.0554(3)
H11_8 H 0.1618 0.5839 0.0364
C20_8 C 0.06303(12) 0.70892(13) 0.0069(2)
C21_8 C 0.43496(12) 0.30145(13) 0.3794(3)
C22_8 C 0.39429(13) 0.32690(13) 0.3417(2)
C23_8 C 0.37887(17) 0.31264(16) 0.2731(3)
H12_8 H 0.3938 0.2875 0.2495
C24_8 C 0.34127(17) 0.33537(15) 0.2391(3)
H13_8 H 0.3307 0.3249 0.1933
C25_8 C 0.31929(14) 0.37352(14) 0.2725(3)
C26_8 C 0.33525(15) 0.38820(16) 0.3427(3)
H14_8 H 0.3207 0.4134 0.3668
C27_8 C 0.37285(15) 0.36461(14) 0.3753(2)
H15_8 H 0.3838 0.3746 0.4211
C28_8 C 0.27847(14) 0.39942(13) 0.2361(3)
C29_8 C 0.27691(14) 0.44850(14) 0.2379(3)
H16_8 H 0.3000 0.4648 0.2643
C30_8 C 0.24188(13) 0.47425(12) 0.2014(3)
C31_8 C 0.20768(14) 0.44672(14) 0.1623(3)
H17_8 H 0.1835 0.4625 0.1376
C32_8 C 0.20880(14) 0.39853(13) 0.1594(3)
C33_8 C 0.24505(14) 0.37394(14) 0.1940(3)
H18_8 H 0.2473 0.3412 0.1896
C34_8 C 0.17238(14) 0.37038(14) 0.1180(3)
C35_8 C 0.1580(2) 0.32707(16) 0.1432(3)
H19_8 H 0.1731 0.3134 0.1836
C36_8 C 0.1211(2) 0.30339(18) 0.1087(3)
H20_8 H 0.1098 0.2754 0.1294
C37_8 C 0.10109(14) 0.31962(13) 0.0463(2)
C38_8 C 0.11658(17) 0.36242(17) 0.0196(3)
C39_8 C 0.15180(17) 0.38712(17) 0.0554(3)
H22_8 H 0.1618 0.4161 0.0364
C40_8 C 0.06303(12) 0.29108(13) 0.0069(2)
H10_8 H 0.1032 0.6252 0.9769
H21_8 H 0.1032 0.3748 0.9769
loop_
_geom_bond_atom_site_label_1
_geom_bond_atom_site_label_2
_geom_bond_site_symmetry_1
_geom_bond_site_symmetry_2
Cu1 O2 1_555 1_555
Cu2 O1 1_555 1_555
O1 C1 1_555 1_555
O2 C1 1_555 1_555
O3 C20 1_555 1_555
O4 C20 1_555 1_555
O6 Cu1 1_555 1_555
C1 C2 1_555 1_555
C2 C3 1_555 1_555
C3 H1 1_555 1_555
C4 C3 1_555 1_555
H2 C4 1_555 1_555
C5 C4 1_555 1_555
C6 C5 1_555 1_555
H3 C6 1_555 1_555
C7 C2 1_555 1_555
H4 C7 1_555 1_555
C8 C5 1_555 1_555
C9 C8 1_555 1_555
H5 C9 1_555 1_555
C10 C9 1_555 1_555
C11 C10 1_555 1_555
H6 C11 1_555 1_555
C12 C11 1_555 1_555
C13 C8 1_555 1_555
H7 C13 1_555 1_555
C14 C12 1_555 1_555
C15 C14 1_555 1_555
H8 C15 1_555 1_555
C16 C15 1_555 1_555
H9 C16 1_555 1_555
C17 C16 1_555 1_555
C18 C17 1_555 1_555
H10 C18 1_555 1_555
C19 C14 1_555 1_555
H11 C19 1_555 1_555
C20 C17 1_555 1_555
Cu5 O4 1_555 1_555
Cu8 O3 1_555 1_555
O15 Cu1 1_555 1_555
C6 C7 1_555 1_555
C12 C13 1_555 1_555
C18 C19 1_555 1_555
O5 H23 1_555 1_555
O6_2 Cu1_2 1_555 1_555
O11 Cu2_2 1_555 1_555
O12 Cu1_2 1_555 1_555
O16 Cu1_2 1_555 1_555
O6_2 H25 1_555 1_555
O6_2 H26 1_555 1_555
O5_2 H24 1_555 1_555
O7 C21 1_555 1_555
O8 C21 1_555 1_555
O9 C40 1_555 1_555
O10 C40 1_555 1_555
C21 C22 1_555 1_555
C22 C23 1_555 1_555
C23 H12 1_555 1_555
C24 C23 1_555 1_555
H13 C24 1_555 1_555
C25 C24 1_555 1_555
C26 C25 1_555 1_555
H14 C26 1_555 1_555
C27 C22 1_555 1_555
H15 C27 1_555 1_555
C28 C25 1_555 1_555
C29 C28 1_555 1_555
H16 C29 1_555 1_555
C31 C30 1_555 1_555
H17 C31 1_555 1_555
C32 C31 1_555 1_555
C33 C28 1_555 1_555
H18 C33 1_555 1_555
C34 C32 1_555 1_555
C35 C34 1_555 1_555
H19 C35 1_555 1_555
C36 C35 1_555 1_555
H20 C36 1_555 1_555
C37 C36 1_555 1_555
C38 C37 1_555 1_555
H21 C38 1_555 1_555
C39 C34 1_555 1_555
H22 C39 1_555 1_555
C40 C37 1_555 1_555
Cu3 O8 1_555 1_555
Cu4 O10 1_555 1_555
Cu6 O7 1_555 1_555
Cu7 O9 1_555 1_555
C26 C27 1_555 1_555
C29 C30 1_555 1_555
C32 C33 1_555 1_555
C38 C39 1_555 1_555
O11 C21_2 1_555 1_555
O12 C21_2 1_555 1_555
O9_2 C40_2 1_555 1_555
O10_2 C40_2 1_555 1_555
C21_2 C22_2 1_555 1_555
C22_2 C23_2 1_555 1_555
C23_2 H12_2 1_555 1_555
C24_2 C23_2 1_555 1_555
H13_2 C24_2 1_555 1_555
C25_2 C24_2 1_555 1_555
C26_2 C25_2 1_555 1_555
H14_2 C26_2 1_555 1_555
C27_2 C22_2 1_555 1_555
H15_2 C27_2 1_555 1_555
C28_2 C25_2 1_555 1_555
C29_2 C28_2 1_555 1_555
H16_2 C29_2 1_555 1_555
C31_2 C30_2 1_555 1_555
H17_2 C31_2 1_555 1_555
C32_2 C31_2 1_555 1_555
C33_2 C28_2 1_555 1_555
H18_2 C33_2 1_555 1_555
C34_2 C32_2 1_555 1_555
C35_2 C34_2 1_555 1_555
H19_2 C35_2 1_555 1_555
C36_2 C35_2 1_555 1_555
H20_2 C36_2 1_555 1_555
C37_2 C36_2 1_555 1_555
C38_2 C37_2 1_555 1_555
H21_2 C38_2 1_555 1_555
C39_2 C34_2 1_555 1_555
H22_2 C39_2 1_555 1_555
C40_2 C37_2 1_555 1_555
Cu5 O10_2 1_555 1_555
Cu8 O9_2 1_555 1_555
C26_2 C27_2 1_555 1_555
C29_2 C30_2 1_555 1_555
C32_2 C33_2 1_555 1_555
C38_2 C39_2 1_555 1_555
O6_3 Cu3 1_555 1_555
O16_2 Cu3 1_555 1_555
O6_3 H25_2 1_555 1_555
O6_3 H26_2 1_555 1_555
O5_3 H24_2 1_555 1_555
Cu3_2 O2_2 1_555 1_555
Cu6_2 O1_2 1_555 1_555
O1_2 C1_2 1_555 1_555
O2_2 C1_2 1_555 1_555
O3_2 C20_2 1_555 1_555
O4_2 C20_2 1_555 1_555
O6_4 Cu3_2 1_555 1_555
C1_2 C2_2 1_555 1_555
C2_2 C3_2 1_555 1_555
C3_2 H1_2 1_555 1_555
C4_2 C3_2 1_555 1_555
H2_2 C4_2 1_555 1_555
C5_2 C4_2 1_555 1_555
C6_2 C5_2 1_555 1_555
H3_2 C6_2 1_555 1_555
C7_2 C2_2 1_555 1_555
H4_2 C7_2 1_555 1_555
C8_2 C5_2 1_555 1_555
C9_2 C8_2 1_555 1_555
H5_2 C9_2 1_555 1_555
C10_2 C9_2 1_555 1_555
C11_2 C10_2 1_555 1_555
H6_2 C11_2 1_555 1_555
C12_2 C11_2 1_555 1_555
C13_2 C8_2 1_555 1_555
H7_2 C13_2 1_555 1_555
C14_2 C12_2 1_555 1_555
C15_2 C14_2 1_555 1_555
H8_2 C15_2 1_555 1_555
C16_2 C15_2 1_555 1_555
H9_2 C16_2 1_555 1_555
C17_2 C16_2 1_555 1_555
C18_2 C17_2 1_555 1_555
H10_2 C18_2 1_555 1_555
C19_2 C14_2 1_555 1_555
H11_2 C19_2 1_555 1_555
C20_2 C17_2 1_555 1_555
Cu4 O4_2 1_555 1_555
Cu7 O3_2 1_555 1_555
O15_2 Cu3_2 1_555 1_555
C6_2 C7_2 1_555 1_555
C12_2 C13_2 1_555 1_555
C18_2 C19_2 1_555 1_555
O5_4 H23_2 1_555 1_555
O5_3 H23_3 1_555 1_555
O6_4 H25_3 1_555 1_555
O6_4 H26_3 1_555 1_555
O5_4 H24_3 1_555 1_555
O6 H25_4 1_555 1_555
O6 H26_4 1_555 1_555
O5 H24_4 1_555 1_555
O5_2 H23_4 1_555 1_555
Cu4 O2_3 1_555 1_555
Cu7 O1_3 1_555 1_555
O1_3 C1_3 1_555 1_555
O2_3 C1_3 1_555 1_555
O13_2 C20_3 1_555 1_555
O5_5 Cu7 1_555 1_555
O6_5 Cu4 1_555 1_555
C1_3 C2_3 1_555 1_555
C2_3 C3_3 1_555 1_555
C3_3 H1_3 1_555 1_555
C4_3 C3_3 1_555 1_555
H2_3 C4_3 1_555 1_555
C5_3 C4_3 1_555 1_555
C6_3 C5_3 1_555 1_555
H3_3 C6_3 1_555 1_555
C7_3 C2_3 1_555 1_555
H4_3 C7_3 1_555 1_555
C8_3 C5_3 1_555 1_555
C9_3 C8_3 1_555 1_555
H5_3 C9_3 1_555 1_555
C10_3 C9_3 1_555 1_555
C11_3 C10_3 1_555 1_555
H6_3 C11_3 1_555 1_555
C12_3 C11_3 1_555 1_555
C13_3 C8_3 1_555 1_555
H7_3 C13_3 1_555 1_555
C14_3 C12_3 1_555 1_555
C15_3 C14_3 1_555 1_555
H8_3 C15_3 1_555 1_555
C16_3 C15_3 1_555 1_555
H9_3 C16_3 1_555 1_555
C17_3 C16_3 1_555 1_555
C18_3 C17_3 1_555 1_555
C19_3 C14_3 1_555 1_555
H11_3 C19_3 1_555 1_555
C20_3 C17_3 1_555 1_555
O7_2 C21_3 1_555 1_555
O8_2 C21_3 1_555 1_555
O14 C40_3 1_555 1_555
C21_3 C22_3 1_555 1_555
C22_3 C23_3 1_555 1_555
C23_3 H12_3 1_555 1_555
C24_3 C23_3 1_555 1_555
H13_3 C24_3 1_555 1_555
C25_3 C24_3 1_555 1_555
C26_3 C25_3 1_555 1_555
H14_3 C26_3 1_555 1_555
C27_3 C22_3 1_555 1_555
H15_3 C27_3 1_555 1_555
C28_3 C25_3 1_555 1_555
C29_3 C28_3 1_555 1_555
H16_3 C29_3 1_555 1_555
C30_3 C10_3 1_555 1_555
C31_3 C30_3 1_555 1_555
H17_3 C31_3 1_555 1_555
C32_3 C31_3 1_555 1_555
C33_3 C28_3 1_555 1_555
H18_3 C33_3 1_555 1_555
C34_3 C32_3 1_555 1_555
C35_3 C34_3 1_555 1_555
H19_3 C35_3 1_555 1_555
C36_3 C35_3 1_555 1_555
H20_3 C36_3 1_555 1_555
C37_3 C36_3 1_555 1_555
C38_3 C37_3 1_555 1_555
C39_3 C34_3 1_555 1_555
H22_3 C39_3 1_555 1_555
C40_3 C37_3 1_555 1_555
Cu5 O8_2 1_555 1_555
Cu8 O7_2 1_555 1_555
O11_2 Cu7 1_555 1_555
O12_2 Cu4 1_555 1_555
C6_3 C7_3 1_555 1_555
C12_3 C13_3 1_555 1_555
C18_3 C19_3 1_555 1_555
C26_3 C27_3 1_555 1_555
C29_3 C30_3 1_555 1_555
C32_3 C33_3 1_555 1_555
C38_3 C39_3 1_555 1_555
Cu5 O2_4 1_555 1_555
Cu8 O1_4 1_555 1_555
O1_4 C1_4 1_555 1_555
O2_4 C1_4 1_555 1_555
O13 C20_4 1_555 1_555
O5_6 Cu8 1_555 1_555
O6_6 Cu5 1_555 1_555
C1_4 C2_4 1_555 1_555
C2_4 C3_4 1_555 1_555
C3_4 H1_4 1_555 1_555
C4_4 C3_4 1_555 1_555
H2_4 C4_4 1_555 1_555
C5_4 C4_4 1_555 1_555
C6_4 C5_4 1_555 1_555
H3_4 C6_4 1_555 1_555
C7_4 C2_4 1_555 1_555
H4_4 C7_4 1_555 1_555
C8_4 C5_4 1_555 1_555
C9_4 C8_4 1_555 1_555
H5_4 C9_4 1_555 1_555
C10_4 C9_4 1_555 1_555
C11_4 C10_4 1_555 1_555
H6_4 C11_4 1_555 1_555
C12_4 C11_4 1_555 1_555
C13_4 C8_4 1_555 1_555
H7_4 C13_4 1_555 1_555
C14_4 C12_4 1_555 1_555
C15_4 C14_4 1_555 1_555
H8_4 C15_4 1_555 1_555
C16_4 C15_4 1_555 1_555
H9_4 C16_4 1_555 1_555
C17_4 C16_4 1_555 1_555
C18_4 C17_4 1_555 1_555
C19_4 C14_4 1_555 1_555
H11_4 C19_4 1_555 1_555
C20_4 C17_4 1_555 1_555
O11_2 C21_4 1_555 1_555
O12_2 C21_4 1_555 1_555
O14_2 C40_4 1_555 1_555
C21_4 C22_4 1_555 1_555
C22_4 C23_4 1_555 1_555
C23_4 H12_4 1_555 1_555
C24_4 C23_4 1_555 1_555
H13_4 C24_4 1_555 1_555
C25_4 C24_4 1_555 1_555
C26_4 C25_4 1_555 1_555
H14_4 C26_4 1_555 1_555
C27_4 C22_4 1_555 1_555
H15_4 C27_4 1_555 1_555
C28_4 C25_4 1_555 1_555
C29_4 C28_4 1_555 1_555
H16_4 C29_4 1_555 1_555
C30_4 C10_4 1_555 1_555
C31_4 C30_4 1_555 1_555
H17_4 C31_4 1_555 1_555
C32_4 C31_4 1_555 1_555
C33_4 C28_4 1_555 1_555
H18_4 C33_4 1_555 1_555
C34_4 C32_4 1_555 1_555
C35_4 C34_4 1_555 1_555
H19_4 C35_4 1_555 1_555
C36_4 C35_4 1_555 1_555
H20_4 C36_4 1_555 1_555
C37_4 C36_4 1_555 1_555
C38_4 C37_4 1_555 1_555
C39_4 C34_4 1_555 1_555
H22_4 C39_4 1_555 1_555
C40_4 C37_4 1_555 1_555
C6_4 C7_4 1_555 1_555
C12_4 C13_4 1_555 1_555
C18_4 C19_4 1_555 1_555
C26_4 C27_4 1_555 1_555
C29_4 C30_4 1_555 1_555
C32_4 C33_4 1_555 1_555
C38_4 C39_4 1_555 1_555
O7_3 C21_5 1_555 1_555
O8_3 C21_5 1_555 1_555
O9_3 C40_5 1_555 1_555
O10_3 C40_5 1_555 1_555
C21_5 C22_5 1_555 1_555
C22_5 C23_5 1_555 1_555
C23_5 H12_5 1_555 1_555
C24_5 C23_5 1_555 1_555
H13_5 C24_5 1_555 1_555
C25_5 C24_5 1_555 1_555
C26_5 C25_5 1_555 1_555
H14_5 C26_5 1_555 1_555
C27_5 C22_5 1_555 1_555
H15_5 C27_5 1_555 1_555
C28_5 C25_5 1_555 1_555
C29_5 C28_5 1_555 1_555
H16_5 C29_5 1_555 1_555
C31_5 C30_5 1_555 1_555
H17_5 C31_5 1_555 1_555
C32_5 C31_5 1_555 1_555
C33_5 C28_5 1_555 1_555
H18_5 C33_5 1_555 1_555
C34_5 C32_5 1_555 1_555
C35_5 C34_5 1_555 1_555
H19_5 C35_5 1_555 1_555
C36_5 C35_5 1_555 1_555
H20_5 C36_5 1_555 1_555
C37_5 C36_5 1_555 1_555
C38_5 C37_5 1_555 1_555
H21_5 C38_5 1_555 1_555
C39_5 C34_5 1_555 1_555
H22_5 C39_5 1_555 1_555
C40_5 C37_5 1_555 1_555
Cu3_3 O8_3 1_555 1_555
Cu4_2 O10_3 1_555 1_555
Cu6_3 O7_3 1_555 1_555
Cu7_2 O9_3 1_555 1_555
C26_5 C27_5 1_555 1_555
C29_5 C30_5 1_555 1_555
C32_5 C33_5 1_555 1_555
C38_5 C39_5 1_555 1_555
O5_7 H23_5 1_555 1_555
Cu1_3 O2_5 1_555 1_555
Cu2_3 O1_5 1_555 1_555
O1_5 C1_5 1_555 1_555
O2_5 C1_5 1_555 1_555
O3_3 C20_5 1_555 1_555
O4_3 C20_5 1_555 1_555
O6_7 Cu1_3 1_555 1_555
C1_5 C2_5 1_555 1_555
C2_5 C3_5 1_555 1_555
C3_5 H1_5 1_555 1_555
C4_5 C3_5 1_555 1_555
H2_5 C4_5 1_555 1_555
C5_5 C4_5 1_555 1_555
C6_5 C5_5 1_555 1_555
H3_5 C6_5 1_555 1_555
C7_5 C2_5 1_555 1_555
H4_5 C7_5 1_555 1_555
C8_5 C5_5 1_555 1_555
C9_5 C8_5 1_555 1_555
H5_5 C9_5 1_555 1_555
C10_5 C9_5 1_555 1_555
C11_5 C10_5 1_555 1_555
H6_5 C11_5 1_555 1_555
C12_5 C11_5 1_555 1_555
C13_5 C8_5 1_555 1_555
H7_5 C13_5 1_555 1_555
C14_5 C12_5 1_555 1_555
C15_5 C14_5 1_555 1_555
H8_5 C15_5 1_555 1_555
C16_5 C15_5 1_555 1_555
H9_5 C16_5 1_555 1_555
C17_5 C16_5 1_555 1_555
C18_5 C17_5 1_555 1_555
H10_5 C18_5 1_555 1_555
C19_5 C14_5 1_555 1_555
H11_5 C19_5 1_555 1_555
C20_5 C17_5 1_555 1_555
Cu5_2 O4_3 1_555 1_555
Cu8_2 O3_3 1_555 1_555
O15_3 Cu1_3 1_555 1_555
C6_5 C7_5 1_555 1_555
C12_5 C13_5 1_555 1_555
C18_5 C19_5 1_555 1_555
O5_8 H24_5 1_555 1_555
O6_8 Cu1_4 1_555 1_555
O11_3 Cu2_4 1_555 1_555
O12_3 Cu1_4 1_555 1_555
O16_3 Cu1_4 1_555 1_555
O6_8 H25_5 1_555 1_555
O6_8 H26_5 1_555 1_555
O5_9 H24_6 1_555 1_555
O6_9 Cu3_3 1_555 1_555
O16_4 Cu3_3 1_555 1_555
O6_9 H25_6 1_555 1_555
O6_9 H26_6 1_555 1_555
O5_10 H23_6 1_555 1_555
Cu3_4 O2_6 1_555 1_555
Cu6_4 O1_6 1_555 1_555
O1_6 C1_6 1_555 1_555
O2_6 C1_6 1_555 1_555
O3_4 C20_6 1_555 1_555
O4_4 C20_6 1_555 1_555
O6_10 Cu3_4 1_555 1_555
C1_6 C2_6 1_555 1_555
C2_6 C3_6 1_555 1_555
C3_6 H1_6 1_555 1_555
C4_6 C3_6 1_555 1_555
H2_6 C4_6 1_555 1_555
C5_6 C4_6 1_555 1_555
C6_6 C5_6 1_555 1_555
H3_6 C6_6 1_555 1_555
C7_6 C2_6 1_555 1_555
H4_6 C7_6 1_555 1_555
C8_6 C5_6 1_555 1_555
C9_6 C8_6 1_555 1_555
H5_6 C9_6 1_555 1_555
C10_6 C9_6 1_555 1_555
C11_6 C10_6 1_555 1_555
H6_6 C11_6 1_555 1_555
C12_6 C11_6 1_555 1_555
C13_6 C8_6 1_555 1_555
H7_6 C13_6 1_555 1_555
C14_6 C12_6 1_555 1_555
C15_6 C14_6 1_555 1_555
H8_6 C15_6 1_555 1_555
C16_6 C15_6 1_555 1_555
H9_6 C16_6 1_555 1_555
C17_6 C16_6 1_555 1_555
C18_6 C17_6 1_555 1_555
H10_6 C18_6 1_555 1_555
C19_6 C14_6 1_555 1_555
H11_6 C19_6 1_555 1_555
C20_6 C17_6 1_555 1_555
Cu4_2 O4_4 1_555 1_555
Cu7_2 O3_4 1_555 1_555
O15_4 Cu3_4 1_555 1_555
C6_6 C7_6 1_555 1_555
C12_6 C13_6 1_555 1_555
C18_6 C19_6 1_555 1_555
O11_3 C21_6 1_555 1_555
O12_3 C21_6 1_555 1_555
O9_4 C40_6 1_555 1_555
O10_4 C40_6 1_555 1_555
C21_6 C22_6 1_555 1_555
C22_6 C23_6 1_555 1_555
C23_6 H12_6 1_555 1_555
C24_6 C23_6 1_555 1_555
H13_6 C24_6 1_555 1_555
C25_6 C24_6 1_555 1_555
C26_6 C25_6 1_555 1_555
H14_6 C26_6 1_555 1_555
C27_6 C22_6 1_555 1_555
H15_6 C27_6 1_555 1_555
C28_6 C25_6 1_555 1_555
C29_6 C28_6 1_555 1_555
H16_6 C29_6 1_555 1_555
C31_6 C30_6 1_555 1_555
H17_6 C31_6 1_555 1_555
C32_6 C31_6 1_555 1_555
C33_6 C28_6 1_555 1_555
H18_6 C33_6 1_555 1_555
C34_6 C32_6 1_555 1_555
C35_6 C34_6 1_555 1_555
H19_6 C35_6 1_555 1_555
C36_6 C35_6 1_555 1_555
H20_6 C36_6 1_555 1_555
C37_6 C36_6 1_555 1_555
C38_6 C37_6 1_555 1_555
H21_6 C38_6 1_555 1_555
C39_6 C34_6 1_555 1_555
H22_6 C39_6 1_555 1_555
C40_6 C37_6 1_555 1_555
Cu5_2 O10_4 1_555 1_555
Cu8_2 O9_4 1_555 1_555
C26_6 C27_6 1_555 1_555
C29_6 C30_6 1_555 1_555
C32_6 C33_6 1_555 1_555
C38_6 C39_6 1_555 1_555
O5_9 H23_7 1_555 1_555
O5_10 H24_7 1_555 1_555
O6_10 H25_7 1_555 1_555
O6_10 H26_7 1_555 1_555
O5_7 H24_8 1_555 1_555
O6_7 H25_8 1_555 1_555
O6_7 H26_8 1_555 1_555
O5_8 H23_8 1_555 1_555
Cu4_2 O2_7 1_555 1_555
Cu7_2 O1_7 1_555 1_555
O1_7 C1_7 1_555 1_555
O2_7 C1_7 1_555 1_555
O13_4 C20_7 1_555 1_555
O5_11 Cu7_2 1_555 1_555
O6_11 Cu4_2 1_555 1_555
C1_7 C2_7 1_555 1_555
C2_7 C3_7 1_555 1_555
C3_7 H1_7 1_555 1_555
C4_7 C3_7 1_555 1_555
H2_7 C4_7 1_555 1_555
C5_7 C4_7 1_555 1_555
C6_7 C5_7 1_555 1_555
H3_7 C6_7 1_555 1_555
C7_7 C2_7 1_555 1_555
H4_7 C7_7 1_555 1_555
C8_7 C5_7 1_555 1_555
C9_7 C8_7 1_555 1_555
H5_7 C9_7 1_555 1_555
C10_7 C9_7 1_555 1_555
C11_7 C10_7 1_555 1_555
H6_7 C11_7 1_555 1_555
C12_7 C11_7 1_555 1_555
C13_7 C8_7 1_555 1_555
H7_7 C13_7 1_555 1_555
C14_7 C12_7 1_555 1_555
C15_7 C14_7 1_555 1_555
H8_7 C15_7 1_555 1_555
C16_7 C15_7 1_555 1_555
H9_7 C16_7 1_555 1_555
C17_7 C16_7 1_555 1_555
C18_7 C17_7 1_555 1_555
C19_7 C14_7 1_555 1_555
H11_7 C19_7 1_555 1_555
C20_7 C17_7 1_555 1_555
O7_4 C21_7 1_555 1_555
O8_4 C21_7 1_555 1_555
O14_3 C40_7 1_555 1_555
C21_7 C22_7 1_555 1_555
C22_7 C23_7 1_555 1_555
C23_7 H12_7 1_555 1_555
C24_7 C23_7 1_555 1_555
H13_7 C24_7 1_555 1_555
C25_7 C24_7 1_555 1_555
C26_7 C25_7 1_555 1_555
H14_7 C26_7 1_555 1_555
C27_7 C22_7 1_555 1_555
H15_7 C27_7 1_555 1_555
C28_7 C25_7 1_555 1_555
C29_7 C28_7 1_555 1_555
H16_7 C29_7 1_555 1_555
C30_7 C10_7 1_555 1_555
C31_7 C30_7 1_555 1_555
H17_7 C31_7 1_555 1_555
C32_7 C31_7 1_555 1_555
C33_7 C28_7 1_555 1_555
H18_7 C33_7 1_555 1_555
C34_7 C32_7 1_555 1_555
C35_7 C34_7 1_555 1_555
H19_7 C35_7 1_555 1_555
C36_7 C35_7 1_555 1_555
H20_7 C36_7 1_555 1_555
C37_7 C36_7 1_555 1_555
C38_7 C37_7 1_555 1_555
C39_7 C34_7 1_555 1_555
H22_7 C39_7 1_555 1_555
C40_7 C37_7 1_555 1_555
Cu5_2 O8_4 1_555 1_555
Cu8_2 O7_4 1_555 1_555
O11_4 Cu7_2 1_555 1_555
O12_4 Cu4_2 1_555 1_555
C6_7 C7_7 1_555 1_555
C12_7 C13_7 1_555 1_555
C18_7 C19_7 1_555 1_555
C26_7 C27_7 1_555 1_555
C29_7 C30_7 1_555 1_555
C32_7 C33_7 1_555 1_555
C38_7 C39_7 1_555 1_555
Cu5_2 O2_8 1_555 1_555
Cu8_2 O1_8 1_555 1_555
O1_8 C1_8 1_555 1_555
O2_8 C1_8 1_555 1_555
O13_3 C20_8 1_555 1_555
O5_12 Cu8_2 1_555 1_555
O6_12 Cu5_2 1_555 1_555
C1_8 C2_8 1_555 1_555
C2_8 C3_8 1_555 1_555
C3_8 H1_8 1_555 1_555
C4_8 C3_8 1_555 1_555
H2_8 C4_8 1_555 1_555
C5_8 C4_8 1_555 1_555
C6_8 C5_8 1_555 1_555
H3_8 C6_8 1_555 1_555
C7_8 C2_8 1_555 1_555
H4_8 C7_8 1_555 1_555
C8_8 C5_8 1_555 1_555
C9_8 C8_8 1_555 1_555
H5_8 C9_8 1_555 1_555
C10_8 C9_8 1_555 1_555
C11_8 C10_8 1_555 1_555
H6_8 C11_8 1_555 1_555
C12_8 C11_8 1_555 1_555
C13_8 C8_8 1_555 1_555
H7_8 C13_8 1_555 1_555
C14_8 C12_8 1_555 1_555
C15_8 C14_8 1_555 1_555
H8_8 C15_8 1_555 1_555
C16_8 C15_8 1_555 1_555
H9_8 C16_8 1_555 1_555
C17_8 C16_8 1_555 1_555
C18_8 C17_8 1_555 1_555
C19_8 C14_8 1_555 1_555
H11_8 C19_8 1_555 1_555
C20_8 C17_8 1_555 1_555
O11_4 C21_8 1_555 1_555
O12_4 C21_8 1_555 1_555
O14_4 C40_8 1_555 1_555
C21_8 C22_8 1_555 1_555
C22_8 C23_8 1_555 1_555
C23_8 H12_8 1_555 1_555
C24_8 C23_8 1_555 1_555
H13_8 C24_8 1_555 1_555
C25_8 C24_8 1_555 1_555
C26_8 C25_8 1_555 1_555
H14_8 C26_8 1_555 1_555
C27_8 C22_8 1_555 1_555
H15_8 C27_8 1_555 1_555
C28_8 C25_8 1_555 1_555
C29_8 C28_8 1_555 1_555
H16_8 C29_8 1_555 1_555
C30_8 C10_8 1_555 1_555
C31_8 C30_8 1_555 1_555
H17_8 C31_8 1_555 1_555
C32_8 C31_8 1_555 1_555
C33_8 C28_8 1_555 1_555
H18_8 C33_8 1_555 1_555
C34_8 C32_8 1_555 1_555
C35_8 C34_8 1_555 1_555
H19_8 C35_8 1_555 1_555
C36_8 C35_8 1_555 1_555
H20_8 C36_8 1_555 1_555
C37_8 C36_8 1_555 1_555
C38_8 C37_8 1_555 1_555
C39_8 C34_8 1_555 1_555
H22_8 C39_8 1_555 1_555
C40_8 C37_8 1_555 1_555
C6_8 C7_8 1_555 1_555
C12_8 C13_8 1_555 1_555
C18_8 C19_8 1_555 1_555
C26_8 C27_8 1_555 1_555
C29_8 C30_8 1_555 1_555
C32_8 C33_8 1_555 1_555
C38_8 C39_8 1_555 1_555

#END
