
###############################################################################
#
# This file contains modified crystal structure data generated from the
# MOF subset of the Cambridge Structural Database (CSD) v543 
# hosted by the Cambridge Crystallographic Data Centre (CCDC).
#
# This work is licensed under the Creative Commons
# Attribution-NonCommercial-ShareAlike 4.0 International License.
# To view a copy of this license, visit
# http://creativecommons.org/licenses/by-nc-sa/4.0/
# or send a letter to
# Creative Commons, PO Box 1866, Mountain View, CA 94042, USA.
#
# CIF created using the CSD Python API on 29 September 2022
# The structure has been converted into the P1 space group
# The structure has a 3D framework
# The original CSD entry KIKDIT is in the tetragonal crystal system
# The framework has been calculated to contain at least 10.0% void space
# The void calculation uses a probe of radius 1.32A, grid spacing 0.4
#
###############################################################################

data_KIKDIT
_chemical_formula_moiety         '(C340 H448 Cd20 F76 N148 S20 Si23)n'
_symmetry_cell_setting           triclinic
_symmetry_space_group_name_H-M   'P 1'
_symmetry_Int_Tables_number      1
_space_group_name_Hall           'P 1'
loop_
_symmetry_equiv_pos_site_id
_symmetry_equiv_pos_as_xyz
1 x,y,z
_cell_length_a                   19.5220(8)
_cell_length_b                   19.5220(8)
_cell_length_c                   33.791(3)
_cell_angle_alpha                90
_cell_angle_beta                 90
_cell_angle_gamma                90
_cell_volume                     12878
loop_
_atom_site_label
_atom_site_type_symbol
_atom_site_fract_x
_atom_site_fract_y
_atom_site_fract_z
Si2 Si 0.5000 0.0000 0.25234(8)
Si3 Si 0.0000 0.0000 0.5000
F5 F 0.5000 0.0000 0.30138(17)
F6 F 0.4375(2) 0.05893(19) 0.25208(14)
F7 F 0.5000 0.0000 0.20200(17)
F9 F 0.0783(3) 0.0356(3) 0.5000
F10 F 0.0000 -0.0000 0.55000(15)
H7 H 0.3591 0.0068 0.2239
N15 N 0.1995(3) 0.0347(3) 0.05546(18)
N16 N 0.1421(3) 0.0200(3) 0.07708(19)
H8 H 0.1008 0.0233 0.0676
H26 H 0.3905 0.0350 0.3884
C20 C 0.2006(5) 0.0548(5) 0.4073(3)
H30 H 0.2424 0.0760 0.4169
H31 H 0.1613 0.0768 0.4195
H32 H 0.1978 0.0600 0.3788
C34 C 0.3069(4) 0.0280(4) 0.1766(3)
C35 C 0.3246(5) 0.1013(5) 0.1703(3)
H48 H 0.3041 0.1288 0.1911
H49 H 0.3073 0.1161 0.1448
H50 H 0.3739 0.1067 0.1710
C36 C 0.3243(4) 0.0331(6) 0.0677(3)
H52 H 0.3523 0.0470 0.0901
H53 H 0.3262 0.0682 0.0474
C37 C 0.2509(3) 0.0238(4) 0.0811(2)
C38 C 0.2260(3) 0.0020(4) 0.1180(2)
C39 C 0.1555(3) 0.0002(4) 0.1141(2)
H54 H 0.0631 0.0167 0.1394
F14 F 0.55943(18) 0.06270(18) 0.25222(13)
F18 F 0.0000 0.0000 0.45000(15)
Cd14 Cd 0.64422(2) 0.15790(2) 0.250853(16)
Cd18 Cd 0.17985(3) 0.10872(3) 0.0000
Si4 Si 0.5000 0.0000 0.74766(8)
F20 F 0.5000 0.0000 0.69862(17)
F21 F 0.4375(2) 0.05893(19) 0.74792(14)
F22 F 0.5000 0.0000 0.79800(17)
H175 H 0.3591 0.0068 0.7761
N70 N 0.1995(3) 0.0347(3) 0.94454(18)
N71 N 0.1421(3) 0.0200(3) 0.92292(19)
H176 H 0.1008 0.0233 0.9324
H194 H 0.3905 0.0350 0.6116
C147 C 0.2006(5) 0.0548(5) 0.5927(3)
H198 H 0.2424 0.0760 0.5831
H199 H 0.1613 0.0768 0.5805
H200 H 0.1978 0.0600 0.6212
C161 C 0.3069(4) 0.0280(4) 0.8234(3)
C162 C 0.3246(5) 0.1013(5) 0.8297(3)
H216 H 0.3041 0.1288 0.8089
H217 H 0.3073 0.1161 0.8552
H218 H 0.3739 0.1067 0.8290
C163 C 0.3243(4) 0.0331(6) 0.9323(3)
H220 H 0.3523 0.0470 0.9099
H221 H 0.3262 0.0682 0.9526
C164 C 0.2509(3) 0.0238(4) 0.9189(2)
C165 C 0.2260(3) 0.0020(4) 0.8820(2)
C166 C 0.1555(3) 0.0002(4) 0.8859(2)
H222 H 0.0631 0.0167 0.8606
F23 F 0.55943(18) 0.06270(18) 0.74778(13)
Cd15 Cd 0.64422(2) 0.15790(2) 0.749147(16)
Cd18_2 Cd 0.17985(3) 0.10872(3) 1.0000
Cd1 Cd 0.32864(3) 0.62227(3) 0.0000
Cd2 Cd 0.35578(2) 0.84210(2) 0.250853(16)
Cd3 Cd 0.10872(3) 0.82015(3) 0.5000
Si1 Si 0.5000 0.5000 0.0000
Si2_2 Si 0.5000 1.0000 0.25234(8)
Si3_2 Si 0.0000 1.0000 0.5000
S1 S 0.0896(2) 0.6988(3) 0.0000
S2 S 0.26179(19) 0.61937(16) 0.27696(15)
S3 S 0.1889(3) 0.5807(2) 0.5000
F1 F 0.4248(2) 0.5440(2) 0.0000
F2 F 0.5000 0.5000 0.04956(15)
F3 F 0.4581(2) 0.4247(2) 0.0000
F4 F 0.44057(18) 0.93730(18) 0.25222(13)
F5_2 F 0.5000 1.0000 0.30138(17)
F7_2 F 0.5000 1.0000 0.20200(17)
F8 F 0.0362(2) 0.9216(2) 0.5000
F10_2 F 0.0000 1.0000 0.55000(15)
N1 N 0.4011(3) 0.6748(3) 0.04789(18)
N2 N 0.4694(3) 0.6682(3) 0.05089(19)
H1 H 0.4940 0.6446 0.0343
N3 N 0.4252(4) 0.8149(3) 0.19841(19)
N4 N 0.4507(3) 0.8665(3) 0.17463(18)
H2 H 0.4593 0.9078 0.1829
N5 N 0.3173(3) 0.9061(3) 0.30467(17)
N6 N 0.3640(3) 0.9399(3) 0.32649(18)
H3 H 0.4040 0.9521 0.3177
N7 N 0.1685(3) 0.8871(3) 0.45266(19)
N8 N 0.1633(3) 0.9558(3) 0.44865(19)
H4 H 0.1387 0.9814 0.4642
N9 N 0.4395(3) 0.8032(3) 0.29526(18)
N10 N 0.5053(3) 0.8229(3) 0.29275(18)
H5 H 0.5213 0.8476 0.2734
N11 N 0.5489(3) 0.6961(3) 0.44535(18)
N12 N 0.5300(3) 0.6398(3) 0.42455(19)
H6 H 0.5298 0.5987 0.4345
N13 N 0.3072(3) 0.9257(3) 0.20593(18)
N14 N 0.3309(3) 0.9910(3) 0.20616(19)
N17 N 0.2336(4) 0.6807(5) 0.0000
N18 N 0.2828(5) 0.7540(4) 0.2530(3)
N19 N 0.1597(5) 0.7203(5) 0.5000
C1 C 0.3107(5) 0.7335(6) 0.0850(4)
H9 H 0.2858 0.7335 0.0601
H10 H 0.3086 0.7787 0.0968
H11 H 0.2903 0.7004 0.1028
C2 C 0.3821(4) 0.7151(4) 0.0777(3)
C3 C 0.4405(4) 0.7331(3) 0.1004(2)
C4 C 0.4959(4) 0.7018(3) 0.0820(2)
C5 C 0.5681(5) 0.7029(5) 0.0929(4)
H12 H 0.5920 0.6666 0.0791
H13 H 0.5724 0.6961 0.1213
H14 H 0.5878 0.7468 0.0857
C6 C 0.3978(8) 0.6939(4) 0.1881(3)
H15 H 0.3918 0.6962 0.2165
H16 H 0.4327 0.6601 0.1818
H17 H 0.3549 0.6808 0.1757
C7 C 0.4192(5) 0.7612(4) 0.1731(3)
C8 C 0.4413(4) 0.7791(3) 0.1354(2)
C9 C 0.4609(3) 0.8454(3) 0.1370(2)
C10 C 0.4898(5) 0.8927(4) 0.1061(3)
H18 H 0.4530 0.9196 0.0945
H19 H 0.5119 0.8660 0.0855
H20 H 0.5230 0.9231 0.1182
C11 C 0.2007(4) 0.8609(5) 0.3134(3)
H21 H 0.1958 0.8677 0.2851
H22 H 0.1608 0.8791 0.3269
H23 H 0.2046 0.8123 0.3189
C12 C 0.2641(3) 0.8973(4) 0.3278(2)
C13 C 0.2765(3) 0.9248(4) 0.3659(2)
C14 C 0.3420(3) 0.9528(4) 0.3633(2)
C15 C 0.3862(5) 0.9866(7) 0.3943(4)
H24 H 0.4313 0.9657 0.3942
H25 H 0.3654 0.9808 0.4201
C16 C 0.2250(6) 0.7933(5) 0.4162(3)
H27 H 0.1941 0.7743 0.3966
H28 H 0.2194 0.7689 0.4410
H29 H 0.2718 0.7886 0.4071
C17 C 0.2090(3) 0.8668(4) 0.4222(2)
C18 C 0.2306(4) 0.9240(4) 0.4009(2)
C19 C 0.2008(3) 0.9810(4) 0.4175(3)
C21 C 0.3713(4) 0.7351(4) 0.3432(3)
H33 H 0.3341 0.7499 0.3261
H34 H 0.3623 0.7501 0.3701
H35 H 0.3746 0.6856 0.3426
C22 C 0.4369(4) 0.7657(3) 0.3291(2)
C23 C 0.5006(4) 0.7635(3) 0.3475(2)
C24 C 0.5442(4) 0.8005(4) 0.3232(2)
C25 C 0.6188(4) 0.8165(5) 0.3255(3)
H36 H 0.6445 0.7823 0.3109
H37 H 0.6333 0.8162 0.3530
H38 H 0.6272 0.8614 0.3142
C26 C 0.5547(6) 0.8209(4) 0.4315(3)
H39 H 0.5483 0.8257 0.4598
H40 H 0.5224 0.8502 0.4177
H41 H 0.6010 0.8341 0.4245
C27 C 0.5427(4) 0.7473(3) 0.4197(2)
C28 C 0.5185(4) 0.7247(3) 0.3832(2)
C29 C 0.5118(3) 0.6536(3) 0.3874(2)
C30 C 0.4911(5) 0.5989(4) 0.3588(3)
H42 H 0.4937 0.5546 0.3717
H43 H 0.5217 0.5995 0.3362
H44 H 0.4446 0.6071 0.3500
C31 C 0.2335(5) 0.8548(4) 0.1630(3)
H45 H 0.2683 0.8210 0.1570
H46 H 0.2047 0.8618 0.1400
H47 H 0.2057 0.8389 0.1849
C32 C 0.2672(3) 0.9212(4) 0.1741(2)
C33 C 0.2643(3) 0.9846(4) 0.1545(2)
H51 H 0.3415 0.9903 0.0571
C40 C 0.1005(4) 0.9845(5) 0.1429(3)
H55 H 0.1185 0.9884 0.1695
H56 H 0.0840 0.9383 0.1385
C41 C 0.1733(9) 0.6856(7) 0.0000
C42 C 0.2762(5) 0.6967(6) 0.2632(3)
C43 C 0.1745(8) 0.6647(7) 0.5000
F11 F 0.5752(2) 0.4560(2) 0.0000
F12 F 0.5419(2) 0.5753(2) 0.0000
F15 F 0.5625(2) 0.94107(19) 0.25208(14)
F18_2 F 0.0000 1.0000 0.45000(15)
Cd9 Cd 0.67136(3) 0.37773(3) 0.0000
Cd13 Cd 0.62227(3) 0.67136(3) 0.5000
N74 N 0.1685(3) 0.8871(3) 0.54734(19)
N78 N 0.3039(3) 0.5489(3) 0.05465(18)
N80 N 0.0347(3) 0.8005(3) 0.55546(18)
N81 N 0.0347(3) 0.8005(3) 0.44454(18)
Cd1_2 Cd 0.32864(3) 0.62227(3) 1.0000
Si1_2 Si 0.5000 0.5000 1.0000
S1_2 S 0.0896(2) 0.6988(3) 1.0000
F1_2 F 0.4248(2) 0.5440(2) 1.0000
F3_2 F 0.4581(2) 0.4247(2) 1.0000
N17_2 N 0.2336(4) 0.6807(5) 1.0000
C41_2 C 0.1733(9) 0.6856(7) 1.0000
F11_2 F 0.5752(2) 0.4560(2) 1.0000
F12_2 F 0.5419(2) 0.5753(2) 1.0000
F13 F 0.5000 0.5000 0.95044(15)
Cd8 Cd 0.35578(2) 0.84210(2) 0.749147(16)
Si4_2 Si 0.5000 1.0000 0.74766(8)
S8 S 0.26179(19) 0.61937(16) 0.72304(15)
F19 F 0.44057(18) 0.93730(18) 0.74778(13)
F20_2 F 0.5000 1.0000 0.69862(17)
F22_2 F 0.5000 1.0000 0.79800(17)
N56 N 0.4011(3) 0.6748(3) 0.95211(18)
N57 N 0.4694(3) 0.6682(3) 0.94911(19)
H169 H 0.4940 0.6446 0.9657
N58 N 0.4252(4) 0.8149(3) 0.80159(19)
N59 N 0.4507(3) 0.8665(3) 0.82537(18)
H170 H 0.4593 0.9078 0.8171
N60 N 0.3173(3) 0.9061(3) 0.69533(17)
N61 N 0.3640(3) 0.9399(3) 0.67351(18)
H171 H 0.4040 0.9521 0.6823
N63 N 0.1633(3) 0.9558(3) 0.55135(19)
H172 H 0.1387 0.9814 0.5358
N64 N 0.4395(3) 0.8032(3) 0.70474(18)
N65 N 0.5053(3) 0.8229(3) 0.70725(18)
H173 H 0.5213 0.8476 0.7266
N66 N 0.5489(3) 0.6961(3) 0.55465(18)
N67 N 0.5300(3) 0.6398(3) 0.57545(19)
H174 H 0.5298 0.5987 0.5655
N68 N 0.3072(3) 0.9257(3) 0.79407(18)
N69 N 0.3309(3) 0.9910(3) 0.79384(19)
N72 N 0.2828(5) 0.7540(4) 0.7470(3)
C128 C 0.3107(5) 0.7335(6) 0.9150(4)
H177 H 0.2858 0.7335 0.9399
H178 H 0.3086 0.7787 0.9032
H179 H 0.2903 0.7004 0.8972
C129 C 0.3821(4) 0.7151(4) 0.9223(3)
C130 C 0.4405(4) 0.7331(3) 0.8996(2)
C131 C 0.4959(4) 0.7018(3) 0.9180(2)
C132 C 0.5681(5) 0.7029(5) 0.9071(4)
H180 H 0.5920 0.6666 0.9209
H181 H 0.5724 0.6961 0.8787
H182 H 0.5878 0.7468 0.9143
C133 C 0.3978(8) 0.6939(4) 0.8119(3)
H183 H 0.3918 0.6962 0.7835
H184 H 0.4327 0.6601 0.8182
H185 H 0.3549 0.6808 0.8243
C134 C 0.4192(5) 0.7612(4) 0.8269(3)
C135 C 0.4413(4) 0.7791(3) 0.8646(2)
C136 C 0.4609(3) 0.8454(3) 0.8630(2)
C137 C 0.4898(5) 0.8927(4) 0.8939(3)
H186 H 0.4530 0.9196 0.9055
H187 H 0.5119 0.8660 0.9145
H188 H 0.5230 0.9231 0.8818
C138 C 0.2007(4) 0.8609(5) 0.6866(3)
H189 H 0.1958 0.8677 0.7149
H190 H 0.1608 0.8791 0.6731
H191 H 0.2046 0.8123 0.6811
C139 C 0.2641(3) 0.8973(4) 0.6722(2)
C140 C 0.2765(3) 0.9248(4) 0.6341(2)
C141 C 0.3420(3) 0.9528(4) 0.6367(2)
C142 C 0.3862(5) 0.9866(7) 0.6057(4)
H192 H 0.4313 0.9657 0.6058
H193 H 0.3654 0.9808 0.5799
C143 C 0.2250(6) 0.7933(5) 0.5838(3)
H195 H 0.1941 0.7743 0.6034
H196 H 0.2194 0.7689 0.5590
H197 H 0.2718 0.7886 0.5929
C144 C 0.2090(3) 0.8668(4) 0.5778(2)
C145 C 0.2306(4) 0.9240(4) 0.5991(2)
C146 C 0.2008(3) 0.9810(4) 0.5825(3)
C148 C 0.3713(4) 0.7351(4) 0.6568(3)
H201 H 0.3341 0.7499 0.6739
H202 H 0.3623 0.7501 0.6299
H203 H 0.3746 0.6856 0.6574
C149 C 0.4369(4) 0.7657(3) 0.6709(2)
C150 C 0.5006(4) 0.7635(3) 0.6525(2)
C151 C 0.5442(4) 0.8005(4) 0.6768(2)
C152 C 0.6188(4) 0.8165(5) 0.6745(3)
H204 H 0.6445 0.7823 0.6891
H205 H 0.6333 0.8162 0.6470
H206 H 0.6272 0.8614 0.6858
C153 C 0.5547(6) 0.8209(4) 0.5685(3)
H207 H 0.5483 0.8257 0.5402
H208 H 0.5224 0.8502 0.5823
H209 H 0.6010 0.8341 0.5755
C154 C 0.5427(4) 0.7473(3) 0.5803(2)
C155 C 0.5185(4) 0.7247(3) 0.6168(2)
C156 C 0.5118(3) 0.6536(3) 0.6126(2)
C157 C 0.4911(5) 0.5989(4) 0.6412(3)
H210 H 0.4937 0.5546 0.6283
H211 H 0.5217 0.5995 0.6638
H212 H 0.4446 0.6071 0.6500
C158 C 0.2335(5) 0.8548(4) 0.8370(3)
H213 H 0.2683 0.8210 0.8430
H214 H 0.2047 0.8618 0.8600
H215 H 0.2057 0.8389 0.8151
C159 C 0.2672(3) 0.9212(4) 0.8259(2)
C160 C 0.2643(3) 0.9846(4) 0.8455(2)
H219 H 0.3415 0.9903 0.9429
C167 C 0.1005(4) 0.9845(5) 0.8571(3)
H223 H 0.1185 0.9884 0.8305
H224 H 0.0840 0.9383 0.8615
C168 C 0.2762(5) 0.6967(6) 0.7368(3)
F24 F 0.5625(2) 0.94107(19) 0.74792(14)
Cd9_2 Cd 0.67136(3) 0.37773(3) 1.0000
N75 N 0.3039(3) 0.5489(3) 0.94535(18)
Si3_3 Si 1.0000 0.0000 0.5000
F10_3 F 1.0000 -0.0000 0.55000(15)
F16 F 0.9638(2) 0.0784(2) 0.5000
F18_3 F 1.0000 0.0000 0.45000(15)
Cd6 Cd 0.89128(3) 0.17985(3) 0.5000
S4 S 0.9104(2) 0.3012(3) 0.0000
S5 S 0.73821(19) 0.38063(16) 0.27696(15)
S6 S 0.8111(3) 0.4193(2) 0.5000
N20 N 0.5989(3) 0.3252(3) 0.04789(18)
N21 N 0.5306(3) 0.3318(3) 0.05089(19)
H57 H 0.5060 0.3554 0.0343
N22 N 0.5748(4) 0.1851(3) 0.19841(19)
N23 N 0.5493(3) 0.1335(3) 0.17463(18)
H58 H 0.5407 0.0922 0.1829
N24 N 0.6827(3) 0.0939(3) 0.30467(17)
N25 N 0.6360(3) 0.0601(3) 0.32649(18)
H59 H 0.5960 0.0479 0.3177
N26 N 0.8315(3) 0.1129(3) 0.45266(19)
N27 N 0.8367(3) 0.0442(3) 0.44865(19)
H60 H 0.8613 0.0186 0.4642
N28 N 0.5605(3) 0.1968(3) 0.29526(18)
N29 N 0.4947(3) 0.1771(3) 0.29275(18)
H61 H 0.4787 0.1524 0.2734
N30 N 0.4511(3) 0.3039(3) 0.44535(18)
N31 N 0.4700(3) 0.3602(3) 0.42455(19)
H62 H 0.4702 0.4013 0.4345
N32 N 0.6928(3) 0.0743(3) 0.20593(18)
N33 N 0.6691(3) 0.0090(3) 0.20616(19)
N36 N 0.7664(4) 0.3193(5) 0.0000
N37 N 0.7172(5) 0.2460(4) 0.2530(3)
N38 N 0.8403(5) 0.2797(5) 0.5000
C44 C 0.6893(5) 0.2665(6) 0.0850(4)
H65 H 0.7142 0.2665 0.0601
H66 H 0.6914 0.2213 0.0968
H67 H 0.7097 0.2996 0.1028
C45 C 0.6179(4) 0.2849(4) 0.0777(3)
C46 C 0.5595(4) 0.2669(3) 0.1004(2)
C47 C 0.5041(4) 0.2982(3) 0.0820(2)
C48 C 0.4319(5) 0.2971(5) 0.0929(4)
H68 H 0.4080 0.3334 0.0791
H69 H 0.4276 0.3039 0.1213
H70 H 0.4122 0.2532 0.0857
C49 C 0.6022(8) 0.3061(4) 0.1881(3)
H71 H 0.6082 0.3038 0.2165
H72 H 0.5673 0.3399 0.1818
H73 H 0.6451 0.3192 0.1757
C50 C 0.5808(5) 0.2388(4) 0.1731(3)
C51 C 0.5587(4) 0.2209(3) 0.1354(2)
C52 C 0.5391(3) 0.1546(3) 0.1370(2)
C53 C 0.5102(5) 0.1073(4) 0.1061(3)
H74 H 0.5470 0.0804 0.0945
H75 H 0.4881 0.1340 0.0855
H76 H 0.4770 0.0769 0.1182
C54 C 0.7993(4) 0.1391(5) 0.3134(3)
H77 H 0.8042 0.1323 0.2851
H78 H 0.8392 0.1209 0.3269
H79 H 0.7954 0.1877 0.3189
C55 C 0.7359(3) 0.1027(4) 0.3278(2)
C56 C 0.7235(3) 0.0752(4) 0.3659(2)
C57 C 0.6580(3) 0.0472(4) 0.3633(2)
C58 C 0.6138(5) 0.0134(7) 0.3943(4)
H80 H 0.5687 0.0343 0.3942
H81 H 0.6346 0.0192 0.4201
C59 C 0.7750(6) 0.2067(5) 0.4162(3)
H83 H 0.8059 0.2257 0.3966
H84 H 0.7806 0.2311 0.4410
H85 H 0.7282 0.2114 0.4071
C60 C 0.7910(3) 0.1332(4) 0.4222(2)
C61 C 0.7694(4) 0.0760(4) 0.4009(2)
C62 C 0.7992(3) 0.0190(4) 0.4175(3)
C64 C 0.6287(4) 0.2649(4) 0.3432(3)
H89 H 0.6659 0.2501 0.3261
H90 H 0.6377 0.2499 0.3701
H91 H 0.6254 0.3144 0.3426
C65 C 0.5631(4) 0.2343(3) 0.3291(2)
C66 C 0.4994(4) 0.2365(3) 0.3475(2)
C67 C 0.4558(4) 0.1995(4) 0.3232(2)
C68 C 0.3812(4) 0.1835(5) 0.3255(3)
H92 H 0.3555 0.2177 0.3109
H93 H 0.3667 0.1838 0.3530
H94 H 0.3728 0.1386 0.3142
C69 C 0.4453(6) 0.1791(4) 0.4315(3)
H95 H 0.4517 0.1743 0.4598
H96 H 0.4776 0.1498 0.4177
H97 H 0.3990 0.1659 0.4245
C70 C 0.4573(4) 0.2527(3) 0.4197(2)
C71 C 0.4815(4) 0.2753(3) 0.3832(2)
C72 C 0.4882(3) 0.3464(3) 0.3874(2)
C73 C 0.5089(5) 0.4011(4) 0.3588(3)
H98 H 0.5063 0.4454 0.3717
H99 H 0.4783 0.4005 0.3362
H100 H 0.5554 0.3929 0.3500
C74 C 0.7665(5) 0.1452(4) 0.1630(3)
H101 H 0.7317 0.1790 0.1570
H102 H 0.7953 0.1382 0.1400
H103 H 0.7943 0.1611 0.1849
C75 C 0.7328(3) 0.0788(4) 0.1741(2)
C76 C 0.7357(3) 0.0154(4) 0.1545(2)
H107 H 0.6585 0.0097 0.0571
C83 C 0.8995(4) 0.0155(5) 0.1429(3)
H111 H 0.8815 0.0116 0.1695
H112 H 0.9160 0.0617 0.1385
C84 C 0.8267(9) 0.3144(7) 0.0000
C85 C 0.7238(5) 0.3033(6) 0.2632(3)
C86 C 0.8255(8) 0.3353(7) 0.5000
Cd11 Cd 0.37773(3) 0.32864(3) 0.5000
N73 N 0.8315(3) 0.1129(3) 0.54734(19)
N77 N 0.6961(3) 0.4511(3) 0.05465(18)
N79 N 0.9653(3) 0.1995(3) 0.55546(18)
N82 N 0.9653(3) 0.1995(3) 0.44454(18)
S4_2 S 0.9104(2) 0.3012(3) 1.0000
N36_2 N 0.7664(4) 0.3193(5) 1.0000
C84_2 C 0.8267(9) 0.3144(7) 1.0000
S7 S 0.73821(19) 0.38063(16) 0.72304(15)
N39 N 0.5989(3) 0.3252(3) 0.95211(18)
N40 N 0.5306(3) 0.3318(3) 0.94911(19)
H113 H 0.5060 0.3554 0.9657
N41 N 0.5748(4) 0.1851(3) 0.80159(19)
N42 N 0.5493(3) 0.1335(3) 0.82537(18)
H114 H 0.5407 0.0922 0.8171
N43 N 0.6827(3) 0.0939(3) 0.69533(17)
N44 N 0.6360(3) 0.0601(3) 0.67351(18)
H115 H 0.5960 0.0479 0.6823
N46 N 0.8367(3) 0.0442(3) 0.55135(19)
H116 H 0.8613 0.0186 0.5358
N47 N 0.5605(3) 0.1968(3) 0.70474(18)
N48 N 0.4947(3) 0.1771(3) 0.70725(18)
H117 H 0.4787 0.1524 0.7266
N49 N 0.4511(3) 0.3039(3) 0.55465(18)
N50 N 0.4700(3) 0.3602(3) 0.57545(19)
H118 H 0.4702 0.4013 0.5655
N51 N 0.6928(3) 0.0743(3) 0.79407(18)
N52 N 0.6691(3) 0.0090(3) 0.79384(19)
N55 N 0.7172(5) 0.2460(4) 0.7470(3)
C87 C 0.6893(5) 0.2665(6) 0.9150(4)
H121 H 0.7142 0.2665 0.9399
H122 H 0.6914 0.2213 0.9032
H123 H 0.7097 0.2996 0.8972
C88 C 0.6179(4) 0.2849(4) 0.9223(3)
C89 C 0.5595(4) 0.2669(3) 0.8996(2)
C90 C 0.5041(4) 0.2982(3) 0.9180(2)
C91 C 0.4319(5) 0.2971(5) 0.9071(4)
H124 H 0.4080 0.3334 0.9209
H125 H 0.4276 0.3039 0.8787
H126 H 0.4122 0.2532 0.9143
C92 C 0.6022(8) 0.3061(4) 0.8119(3)
H127 H 0.6082 0.3038 0.7835
H128 H 0.5673 0.3399 0.8182
H129 H 0.6451 0.3192 0.8243
C93 C 0.5808(5) 0.2388(4) 0.8269(3)
C94 C 0.5587(4) 0.2209(3) 0.8646(2)
C95 C 0.5391(3) 0.1546(3) 0.8630(2)
C96 C 0.5102(5) 0.1073(4) 0.8939(3)
H130 H 0.5470 0.0804 0.9055
H131 H 0.4881 0.1340 0.9145
H132 H 0.4770 0.0769 0.8818
C97 C 0.7993(4) 0.1391(5) 0.6866(3)
H133 H 0.8042 0.1323 0.7149
H134 H 0.8392 0.1209 0.6731
H135 H 0.7954 0.1877 0.6811
C98 C 0.7359(3) 0.1027(4) 0.6722(2)
C99 C 0.7235(3) 0.0752(4) 0.6341(2)
C100 C 0.6580(3) 0.0472(4) 0.6367(2)
C101 C 0.6138(5) 0.0134(7) 0.6057(4)
H136 H 0.5687 0.0343 0.6058
H137 H 0.6346 0.0192 0.5799
C102 C 0.7750(6) 0.2067(5) 0.5838(3)
H139 H 0.8059 0.2257 0.6034
H140 H 0.7806 0.2311 0.5590
H141 H 0.7282 0.2114 0.5929
C103 C 0.7910(3) 0.1332(4) 0.5778(2)
C104 C 0.7694(4) 0.0760(4) 0.5991(2)
C105 C 0.7992(3) 0.0190(4) 0.5825(3)
C107 C 0.6287(4) 0.2649(4) 0.6568(3)
H145 H 0.6659 0.2501 0.6739
H146 H 0.6377 0.2499 0.6299
H147 H 0.6254 0.3144 0.6574
C108 C 0.5631(4) 0.2343(3) 0.6709(2)
C109 C 0.4994(4) 0.2365(3) 0.6525(2)
C110 C 0.4558(4) 0.1995(4) 0.6768(2)
C111 C 0.3812(4) 0.1835(5) 0.6745(3)
H148 H 0.3555 0.2177 0.6891
H149 H 0.3667 0.1838 0.6470
H150 H 0.3728 0.1386 0.6858
C112 C 0.4453(6) 0.1791(4) 0.5685(3)
H151 H 0.4517 0.1743 0.5402
H152 H 0.4776 0.1498 0.5823
H153 H 0.3990 0.1659 0.5755
C113 C 0.4573(4) 0.2527(3) 0.5803(2)
C114 C 0.4815(4) 0.2753(3) 0.6168(2)
C115 C 0.4882(3) 0.3464(3) 0.6126(2)
C116 C 0.5089(5) 0.4011(4) 0.6412(3)
H154 H 0.5063 0.4454 0.6283
H155 H 0.4783 0.4005 0.6638
H156 H 0.5554 0.3929 0.6500
C117 C 0.7665(5) 0.1452(4) 0.8370(3)
H157 H 0.7317 0.1790 0.8430
H158 H 0.7953 0.1382 0.8600
H159 H 0.7943 0.1611 0.8151
C118 C 0.7328(3) 0.0788(4) 0.8259(2)
C119 C 0.7357(3) 0.0154(4) 0.8455(2)
H163 H 0.6585 0.0097 0.9429
C126 C 0.8995(4) 0.0155(5) 0.8571(3)
H167 H 0.8815 0.0116 0.8305
H168 H 0.9160 0.0617 0.8615
C127 C 0.7238(5) 0.3033(6) 0.7368(3)
N76 N 0.6961(3) 0.4511(3) 0.94535(18)
Si3_4 Si 1.0000 1.0000 0.5000
F10_4 F 1.0000 1.0000 0.55000(15)
F17 F 0.9217(3) 0.9644(3) 0.5000
F18_4 F 1.0000 1.0000 0.45000(15)
H63 H 0.6409 0.9932 0.2239
N34 N 0.8005(3) 0.9653(3) 0.05546(18)
N35 N 0.8579(3) 0.9800(3) 0.07708(19)
H64 H 0.8992 0.9767 0.0676
H82 H 0.6095 0.9650 0.3884
C63 C 0.7994(5) 0.9452(5) 0.4073(3)
H86 H 0.7576 0.9240 0.4169
H87 H 0.8387 0.9232 0.4195
H88 H 0.8022 0.9400 0.3788
C77 C 0.6931(4) 0.9720(4) 0.1766(3)
C78 C 0.6754(5) 0.8987(5) 0.1703(3)
H104 H 0.6959 0.8712 0.1911
H105 H 0.6927 0.8839 0.1448
H106 H 0.6261 0.8933 0.1710
C79 C 0.6757(4) 0.9669(6) 0.0677(3)
H108 H 0.6477 0.9530 0.0901
H109 H 0.6738 0.9318 0.0474
C80 C 0.7491(3) 0.9762(4) 0.0811(2)
C81 C 0.7740(3) 0.9980(4) 0.1180(2)
C82 C 0.8445(3) 0.9998(4) 0.1141(2)
H110 H 0.9369 0.9833 0.1394
Cd19 Cd 0.82015(3) 0.89128(3) 0.0000
H119 H 0.6409 0.9932 0.7761
N53 N 0.8005(3) 0.9653(3) 0.94454(18)
N54 N 0.8579(3) 0.9800(3) 0.92292(19)
H120 H 0.8992 0.9767 0.9324
H138 H 0.6095 0.9650 0.6116
C106 C 0.7994(5) 0.9452(5) 0.5927(3)
H142 H 0.7576 0.9240 0.5831
H143 H 0.8387 0.9232 0.5805
H144 H 0.8022 0.9400 0.6212
C120 C 0.6931(4) 0.9720(4) 0.8234(3)
C121 C 0.6754(5) 0.8987(5) 0.8297(3)
H160 H 0.6959 0.8712 0.8089
H161 H 0.6927 0.8839 0.8552
H162 H 0.6261 0.8933 0.8290
C122 C 0.6757(4) 0.9669(6) 0.9323(3)
H164 H 0.6477 0.9530 0.9099
H165 H 0.6738 0.9318 0.9526
C123 C 0.7491(3) 0.9762(4) 0.9189(2)
C124 C 0.7740(3) 0.9980(4) 0.8820(2)
C125 C 0.8445(3) 0.9998(4) 0.8859(2)
H166 H 0.9369 0.9833 0.8606
Cd19_2 Cd 0.82015(3) 0.89128(3) 1.0000
Si3_5 Si -0.0000 0.0000 -0.0000
S3_2 S 0.4193(2) 0.1889(3) -0.0000
F8_2 F 0.0784(2) 0.0362(2) -0.0000
F10_5 F 0.0000 0.0000 0.05000(15)
N19_2 N 0.2797(5) 0.1597(5) -0.0000
C43_2 C 0.3353(7) 0.1745(8) -0.0000
N74_2 N 0.1129(3) 0.1685(3) 0.04734(19)
Cd2_2 Cd 0.15790(2) 0.35578(2) 0.750853(16)
Si1_3 Si 0.5000 0.5000 0.5000
Si2_3 Si -0.0000 0.5000 0.75234(8)
Si3_6 Si 0.0000 0.0000 1.0000
S1_3 S 0.3012(3) 0.0896(2) 0.5000
S2_2 S 0.38063(16) 0.26179(19) 0.77696(15)
S3_3 S 0.4193(2) 0.1889(3) 1.0000
F1_3 F 0.4560(2) 0.4248(2) 0.5000
F2_2 F 0.5000 0.5000 0.54956(15)
F3_3 F 0.5753(2) 0.4581(2) 0.5000
F4_2 F 0.06270(18) 0.44057(18) 0.75222(13)
F5_3 F 0.0000 0.5000 0.80138(17)
F7_3 F 0.0000 0.5000 0.70200(17)
F8_3 F 0.0784(2) 0.0362(2) 1.0000
N1_2 N 0.3252(3) 0.4011(3) 0.54789(18)
N2_2 N 0.3318(3) 0.4694(3) 0.55089(19)
H1_2 H 0.3554 0.4940 0.5343
N3_2 N 0.1851(3) 0.4252(4) 0.69841(19)
N4_2 N 0.1335(3) 0.4507(3) 0.67463(18)
H2_2 H 0.0922 0.4593 0.6829
N5_2 N 0.0939(3) 0.3173(3) 0.80467(17)
N6_2 N 0.0601(3) 0.3640(3) 0.82649(18)
H3_2 H 0.0479 0.4040 0.8177
N7_2 N 0.1129(3) 0.1685(3) 0.95266(19)
N8_2 N 0.0442(3) 0.1633(3) 0.94865(19)
H4_2 H 0.0186 0.1387 0.9642
N9_2 N 0.1968(3) 0.4395(3) 0.79526(18)
N10_2 N 0.1771(3) 0.5053(3) 0.79275(18)
H5_2 H 0.1524 0.5213 0.7734
N12_2 N 0.3602(3) 0.5300(3) 0.92455(19)
H6_2 H 0.4013 0.5298 0.9345
N13_2 N 0.0743(3) 0.3072(3) 0.70593(18)
N14_2 N 0.0090(3) 0.3309(3) 0.70616(19)
N17_3 N 0.3193(5) 0.2336(4) 0.5000
N18_2 N 0.2460(4) 0.2828(5) 0.7530(3)
N19_3 N 0.2797(5) 0.1597(5) 1.0000
C1_2 C 0.2665(6) 0.3107(5) 0.5850(4)
H9_2 H 0.2665 0.2858 0.5601
H10_2 H 0.2213 0.3086 0.5968
H11_2 H 0.2996 0.2903 0.6028
C2_2 C 0.2849(4) 0.3821(4) 0.5777(3)
C3_2 C 0.2669(3) 0.4405(4) 0.6004(2)
C4_2 C 0.2982(3) 0.4959(4) 0.5820(2)
C5_2 C 0.2971(5) 0.5681(5) 0.5929(4)
H12_2 H 0.3334 0.5920 0.5791
H13_2 H 0.3039 0.5724 0.6213
H14_2 H 0.2532 0.5878 0.5857
C6_2 C 0.3061(4) 0.3978(8) 0.6881(3)
H15_2 H 0.3038 0.3918 0.7165
H16_2 H 0.3399 0.4327 0.6818
H17_2 H 0.3192 0.3549 0.6757
C7_2 C 0.2388(4) 0.4192(5) 0.6731(3)
C8_2 C 0.2209(3) 0.4413(4) 0.6354(2)
C9_2 C 0.1546(3) 0.4609(3) 0.6370(2)
C10_2 C 0.1073(4) 0.4898(5) 0.6061(3)
H18_2 H 0.0804 0.4530 0.5945
H19_2 H 0.1340 0.5119 0.5855
H20_2 H 0.0769 0.5230 0.6182
C11_2 C 0.1391(5) 0.2007(4) 0.8134(3)
H21_2 H 0.1323 0.1958 0.7851
H22_2 H 0.1209 0.1608 0.8269
H23_2 H 0.1877 0.2046 0.8189
C12_2 C 0.1027(4) 0.2641(3) 0.8278(2)
C13_2 C 0.0752(4) 0.2765(3) 0.8659(2)
C14_2 C 0.0472(4) 0.3420(3) 0.8633(2)
C15_2 C 0.0134(7) 0.3862(5) 0.8943(4)
H24_2 H 0.0343 0.4313 0.8942
H25_2 H 0.0192 0.3654 0.9201
C16_2 C 0.2067(5) 0.2250(6) 0.9162(3)
H27_2 H 0.2257 0.1941 0.8966
H28_2 H 0.2311 0.2194 0.9410
H29_2 H 0.2114 0.2718 0.9071
C17_2 C 0.1332(4) 0.2090(3) 0.9222(2)
C18_2 C 0.0760(4) 0.2306(4) 0.9009(2)
C19_2 C 0.0190(4) 0.2008(3) 0.9175(3)
C21_2 C 0.2649(4) 0.3713(4) 0.8432(3)
H33_2 H 0.2501 0.3341 0.8261
H34_2 H 0.2499 0.3623 0.8701
H35_2 H 0.3144 0.3746 0.8426
C22_2 C 0.2343(3) 0.4369(4) 0.8291(2)
C23_2 C 0.2365(3) 0.5006(4) 0.8475(2)
C24_2 C 0.1995(4) 0.5442(4) 0.8232(2)
C25_2 C 0.1835(5) 0.6188(4) 0.8255(3)
H36_2 H 0.2177 0.6445 0.8109
H37_2 H 0.1838 0.6333 0.8530
H38_2 H 0.1386 0.6272 0.8142
C26_2 C 0.1791(4) 0.5547(6) 0.9315(3)
H39_2 H 0.1743 0.5483 0.9598
H40_2 H 0.1498 0.5224 0.9177
H41_2 H 0.1659 0.6010 0.9245
C27_2 C 0.2527(3) 0.5427(4) 0.9197(2)
C28_2 C 0.2753(3) 0.5185(4) 0.8832(2)
C29_2 C 0.3464(3) 0.5118(3) 0.8874(2)
C30_2 C 0.4011(4) 0.4911(5) 0.8588(3)
H42_2 H 0.4454 0.4937 0.8717
H43_2 H 0.4005 0.5217 0.8362
H44_2 H 0.3929 0.4446 0.8500
C31_2 C 0.1452(4) 0.2335(5) 0.6630(3)
H45_2 H 0.1790 0.2683 0.6570
H46_2 H 0.1382 0.2047 0.6400
H47_2 H 0.1611 0.2057 0.6849
C32_2 C 0.0788(4) 0.2672(3) 0.6741(2)
C33_2 C 0.0154(4) 0.2643(3) 0.6545(2)
H51_2 H 0.0097 0.3415 0.5571
C40_2 C 0.0155(5) 0.1005(4) 0.6429(3)
H55_2 H 0.0116 0.1185 0.6695
H56_2 H 0.0617 0.0840 0.6385
C41_3 C 0.3144(7) 0.1733(9) 0.5000
C42_2 C 0.3033(6) 0.2762(5) 0.7632(3)
C43_3 C 0.3353(7) 0.1745(8) 1.0000
F11_3 F 0.5440(2) 0.5752(2) 0.5000
F12_3 F 0.4247(2) 0.5419(2) 0.5000
F13_2 F 0.5000 0.5000 0.45044(15)
F15_2 F 0.05893(19) 0.5625(2) 0.75208(14)
F18_5 F 0.0000 0.0000 0.95000(15)
Cd8_2 Cd 0.15790(2) 0.35578(2) 0.249147(16)
Si4_3 Si 0.0000 0.5000 0.24766(8)
S8_2 S 0.38063(16) 0.26179(19) 0.22304(15)
F19_2 F 0.06270(18) 0.44057(18) 0.24778(13)
F20_3 F 0.0000 0.5000 0.19862(17)
F22_3 F -0.0000 0.5000 0.29800(17)
N56_2 N 0.3252(3) 0.4011(3) 0.45211(18)
N57_2 N 0.3318(3) 0.4694(3) 0.44911(19)
H169_2 H 0.3554 0.4940 0.4657
N58_2 N 0.1851(3) 0.4252(4) 0.30159(19)
N59_2 N 0.1335(3) 0.4507(3) 0.32537(18)
H170_2 H 0.0922 0.4593 0.3171
N60_2 N 0.0939(3) 0.3173(3) 0.19533(17)
N61_2 N 0.0601(3) 0.3640(3) 0.17351(18)
H171_2 H 0.0479 0.4040 0.1823
N63_2 N 0.0442(3) 0.1633(3) 0.05135(19)
H172_2 H 0.0186 0.1387 0.0358
N64_2 N 0.1968(3) 0.4395(3) 0.20474(18)
N65_2 N 0.1771(3) 0.5053(3) 0.20725(18)
H173_2 H 0.1524 0.5213 0.2266
N67_2 N 0.3602(3) 0.5300(3) 0.07545(19)
H174_2 H 0.4013 0.5298 0.0655
N68_2 N 0.0743(3) 0.3072(3) 0.29407(18)
N69_2 N 0.0090(3) 0.3309(3) 0.29384(19)
N72_2 N 0.2460(4) 0.2828(5) 0.2470(3)
C128_2 C 0.2665(6) 0.3107(5) 0.4150(4)
H177_2 H 0.2665 0.2858 0.4399
H178_2 H 0.2213 0.3086 0.4032
H179_2 H 0.2996 0.2903 0.3972
C129_2 C 0.2849(4) 0.3821(4) 0.4223(3)
C130_2 C 0.2669(3) 0.4405(4) 0.3996(2)
C131_2 C 0.2982(3) 0.4959(4) 0.4180(2)
C132_2 C 0.2971(5) 0.5681(5) 0.4071(4)
H180_2 H 0.3334 0.5920 0.4209
H181_2 H 0.3039 0.5724 0.3787
H182_2 H 0.2532 0.5878 0.4143
C133_2 C 0.3061(4) 0.3978(8) 0.3119(3)
H183_2 H 0.3038 0.3918 0.2835
H184_2 H 0.3399 0.4327 0.3182
H185_2 H 0.3192 0.3549 0.3243
C134_2 C 0.2388(4) 0.4192(5) 0.3269(3)
C135_2 C 0.2209(3) 0.4413(4) 0.3646(2)
C136_2 C 0.1546(3) 0.4609(3) 0.3630(2)
C137_2 C 0.1073(4) 0.4898(5) 0.3939(3)
H186_2 H 0.0804 0.4530 0.4055
H187_2 H 0.1340 0.5119 0.4145
H188_2 H 0.0769 0.5230 0.3818
C138_2 C 0.1391(5) 0.2007(4) 0.1866(3)
H189_2 H 0.1323 0.1958 0.2149
H190_2 H 0.1209 0.1608 0.1731
H191_2 H 0.1877 0.2046 0.1811
C139_2 C 0.1027(4) 0.2641(3) 0.1722(2)
C140_2 C 0.0752(4) 0.2765(3) 0.1341(2)
C141_2 C 0.0472(4) 0.3420(3) 0.1367(2)
C142_2 C 0.0134(7) 0.3862(5) 0.1057(4)
H192_2 H 0.0343 0.4313 0.1058
H193_2 H 0.0192 0.3654 0.0799
C143_2 C 0.2067(5) 0.2250(6) 0.0838(3)
H195_2 H 0.2257 0.1941 0.1034
H196_2 H 0.2311 0.2194 0.0590
H197_2 H 0.2114 0.2718 0.0929
C144_2 C 0.1332(4) 0.2090(3) 0.0778(2)
C145_2 C 0.0760(4) 0.2306(4) 0.0991(2)
C146_2 C 0.0190(4) 0.2008(3) 0.0825(3)
C148_2 C 0.2649(4) 0.3713(4) 0.1568(3)
H201_2 H 0.2501 0.3341 0.1739
H202_2 H 0.2499 0.3623 0.1299
H203_2 H 0.3144 0.3746 0.1574
C149_2 C 0.2343(3) 0.4369(4) 0.1709(2)
C150_2 C 0.2365(3) 0.5006(4) 0.1525(2)
C151_2 C 0.1995(4) 0.5442(4) 0.1768(2)
C152_2 C 0.1835(5) 0.6188(4) 0.1745(3)
H204_2 H 0.2177 0.6445 0.1891
H205_2 H 0.1838 0.6333 0.1470
H206_2 H 0.1386 0.6272 0.1858
C153_2 C 0.1791(4) 0.5547(6) 0.0685(3)
H207_2 H 0.1743 0.5483 0.0402
H208_2 H 0.1498 0.5224 0.0823
H209_2 H 0.1659 0.6010 0.0755
C154_2 C 0.2527(3) 0.5427(4) 0.0803(2)
C155_2 C 0.2753(3) 0.5185(4) 0.1168(2)
C156_2 C 0.3464(3) 0.5118(3) 0.1126(2)
C157_2 C 0.4011(4) 0.4911(5) 0.1412(3)
H210_2 H 0.4454 0.4937 0.1283
H211_2 H 0.4005 0.5217 0.1638
H212_2 H 0.3929 0.4446 0.1500
C158_2 C 0.1452(4) 0.2335(5) 0.3370(3)
H213_2 H 0.1790 0.2683 0.3430
H214_2 H 0.1382 0.2047 0.3600
H215_2 H 0.1611 0.2057 0.3151
C159_2 C 0.0788(4) 0.2672(3) 0.3259(2)
C160_2 C 0.0154(4) 0.2643(3) 0.3455(2)
H219_2 H 0.0097 0.3415 0.4429
C167_2 C 0.0155(5) 0.1005(4) 0.3571(3)
H223_2 H 0.0116 0.1185 0.3305
H224_2 H 0.0617 0.0840 0.3615
C168_2 C 0.3033(6) 0.2762(5) 0.2368(3)
F24_2 F 0.05893(19) 0.5625(2) 0.24792(14)
Si3_7 Si -0.0000 1.0000 -0.0000
F10_6 F 0.0000 1.0000 0.05000(15)
F17_2 F 0.0356(3) 0.9217(3) -0.0000
Si3_8 Si 0.0000 1.0000 1.0000
F17_3 F 0.0356(3) 0.9217(3) 1.0000
F18_6 F 0.0000 1.0000 0.95000(15)
H63_2 H 0.0068 0.6409 0.7239
N35_2 N 0.0200(3) 0.8579(3) 0.57708(19)
H64_2 H 0.0233 0.8992 0.5676
H82_2 H 0.0350 0.6095 0.8884
C63_2 C 0.0548(5) 0.7994(5) 0.9073(3)
H86_2 H 0.0760 0.7576 0.9169
H87_2 H 0.0768 0.8387 0.9195
H88_2 H 0.0600 0.8022 0.8788
C77_2 C 0.0280(4) 0.6931(4) 0.6766(3)
C78_2 C 0.1013(5) 0.6754(5) 0.6703(3)
H104_2 H 0.1288 0.6959 0.6911
H105_2 H 0.1161 0.6927 0.6448
H106_2 H 0.1067 0.6261 0.6710
C79_2 C 0.0331(6) 0.6757(4) 0.5677(3)
H108_2 H 0.0470 0.6477 0.5901
H109_2 H 0.0682 0.6738 0.5474
C80_2 C 0.0238(4) 0.7491(3) 0.5811(2)
C81_2 C 0.0020(4) 0.7740(3) 0.6180(2)
C82_2 C 0.0002(4) 0.8445(3) 0.6141(2)
H110_2 H 0.0167 0.9369 0.6394
H119_2 H 0.0068 0.6409 0.2761
N54_2 N 0.0200(3) 0.8579(3) 0.42292(19)
H120_2 H 0.0233 0.8992 0.4324
H138_2 H 0.0350 0.6095 0.1116
C106_2 C 0.0548(5) 0.7994(5) 0.0927(3)
H142_2 H 0.0760 0.7576 0.0831
H143_2 H 0.0768 0.8387 0.0805
H144_2 H 0.0600 0.8022 0.1212
C120_2 C 0.0280(4) 0.6931(4) 0.3234(3)
C121_2 C 0.1013(5) 0.6754(5) 0.3297(3)
H160_2 H 0.1288 0.6959 0.3089
H161_2 H 0.1161 0.6927 0.3552
H162_2 H 0.1067 0.6261 0.3290
C122_2 C 0.0331(6) 0.6757(4) 0.4323(3)
H164_2 H 0.0470 0.6477 0.4099
H165_2 H 0.0682 0.6738 0.4526
C123_2 C 0.0238(4) 0.7491(3) 0.4189(2)
C124_2 C 0.0020(4) 0.7740(3) 0.3820(2)
C125_2 C 0.0002(4) 0.8445(3) 0.3859(2)
H166_2 H 0.0167 0.9369 0.3606
Si3_9 Si 1.0000 0.0000 -0.0000
F9_2 F 0.9644(3) 0.0783(3) -0.0000
F10_7 F 1.0000 0.0000 0.05000(15)
Si2_4 Si 1.0000 0.5000 0.75234(8)
Si3_10 Si 1.0000 0.0000 1.0000
F5_4 F 1.0000 0.5000 0.80138(17)
F6_2 F 0.94107(19) 0.4375(2) 0.75208(14)
F7_4 F 1.0000 0.5000 0.70200(17)
F9_3 F 0.9644(3) 0.0783(3) 1.0000
H7_2 H 0.9932 0.3591 0.7239
N16_2 N 0.9800(3) 0.1421(3) 0.57708(19)
H8_2 H 0.9767 0.1008 0.5676
H26_2 H 0.9650 0.3905 0.8884
C20_2 C 0.9452(5) 0.2006(5) 0.9073(3)
H30_2 H 0.9240 0.2424 0.9169
H31_2 H 0.9232 0.1613 0.9195
H32_2 H 0.9400 0.1978 0.8788
C34_2 C 0.9720(4) 0.3069(4) 0.6766(3)
C35_2 C 0.8987(5) 0.3246(5) 0.6703(3)
H48_2 H 0.8712 0.3041 0.6911
H49_2 H 0.8839 0.3073 0.6448
H50_2 H 0.8933 0.3739 0.6710
C36_2 C 0.9669(6) 0.3243(4) 0.5677(3)
H52_2 H 0.9530 0.3523 0.5901
H53_2 H 0.9318 0.3262 0.5474
C37_2 C 0.9762(4) 0.2509(3) 0.5811(2)
C38_2 C 0.9980(4) 0.2260(3) 0.6180(2)
C39_2 C 0.9998(4) 0.1555(3) 0.6141(2)
H54_2 H 0.9833 0.0631 0.6394
F14_2 F 0.93730(18) 0.55943(18) 0.75222(13)
F18_7 F 1.0000 0.0000 0.95000(15)
Si4_4 Si 1.0000 0.5000 0.24766(8)
F20_4 F 1.0000 0.5000 0.19862(17)
F21_2 F 0.94107(19) 0.4375(2) 0.24792(14)
F22_4 F 1.0000 0.5000 0.29800(17)
H175_2 H 0.9932 0.3591 0.2761
N71_2 N 0.9800(3) 0.1421(3) 0.42292(19)
H176_2 H 0.9767 0.1008 0.4324
H194_2 H 0.9650 0.3905 0.1116
C147_2 C 0.9452(5) 0.2006(5) 0.0927(3)
H198_2 H 0.9240 0.2424 0.0831
H199_2 H 0.9232 0.1613 0.0805
H200_2 H 0.9400 0.1978 0.1212
C161_2 C 0.9720(4) 0.3069(4) 0.3234(3)
C162_2 C 0.8987(5) 0.3246(5) 0.3297(3)
H216_2 H 0.8712 0.3041 0.3089
H217_2 H 0.8839 0.3073 0.3552
H218_2 H 0.8933 0.3739 0.3290
C163_2 C 0.9669(6) 0.3243(4) 0.4323(3)
H220_2 H 0.9530 0.3523 0.4099
H221_2 H 0.9318 0.3262 0.4526
C164_2 C 0.9762(4) 0.2509(3) 0.4189(2)
C165_2 C 0.9980(4) 0.2260(3) 0.3820(2)
C166_2 C 0.9998(4) 0.1555(3) 0.3859(2)
H222_2 H 0.9833 0.0631 0.3606
F23_2 F 0.93730(18) 0.55943(18) 0.24778(13)
Cd14_2 Cd 0.84210(2) 0.64422(2) 0.750853(16)
Cd15_2 Cd 0.84210(2) 0.64422(2) 0.249147(16)
Si3_11 Si 1.0000 1.0000 -0.0000
F10_8 F 1.0000 1.0000 0.05000(15)
F16_2 F 0.9216(2) 0.9638(2) -0.0000
S6_2 S 0.5807(2) 0.8111(3) -0.0000
N38_2 N 0.7203(5) 0.8403(5) -0.0000
C86_2 C 0.6647(7) 0.8255(8) -0.0000
N73_2 N 0.8871(3) 0.8315(3) 0.04734(19)
Si3_12 Si 1.0000 1.0000 1.0000
F16_3 F 0.9216(2) 0.9638(2) 1.0000
F18_8 F 1.0000 1.0000 0.95000(15)
S4_3 S 0.6988(3) 0.9104(2) 0.5000
S5_2 S 0.61937(16) 0.73821(19) 0.77696(15)
S6_3 S 0.5807(2) 0.8111(3) 1.0000
N20_2 N 0.6748(3) 0.5989(3) 0.54789(18)
N21_2 N 0.6682(3) 0.5306(3) 0.55089(19)
H57_2 H 0.6446 0.5060 0.5343
N22_2 N 0.8149(3) 0.5748(4) 0.69841(19)
N23_2 N 0.8665(3) 0.5493(3) 0.67463(18)
H58_2 H 0.9078 0.5407 0.6829
N24_2 N 0.9061(3) 0.6827(3) 0.80467(17)
N25_2 N 0.9399(3) 0.6360(3) 0.82649(18)
H59_2 H 0.9521 0.5960 0.8177
N26_2 N 0.8871(3) 0.8315(3) 0.95266(19)
N27_2 N 0.9558(3) 0.8367(3) 0.94865(19)
H60_2 H 0.9814 0.8613 0.9642
N28_2 N 0.8032(3) 0.5605(3) 0.79526(18)
N29_2 N 0.8229(3) 0.4947(3) 0.79275(18)
H61_2 H 0.8476 0.4787 0.7734
N31_2 N 0.6398(3) 0.4700(3) 0.92455(19)
H62_2 H 0.5987 0.4702 0.9345
N32_2 N 0.9257(3) 0.6928(3) 0.70593(18)
N33_2 N 0.9910(3) 0.6691(3) 0.70616(19)
N36_3 N 0.6807(5) 0.7664(4) 0.5000
N37_2 N 0.7540(4) 0.7172(5) 0.7530(3)
N38_3 N 0.7203(5) 0.8403(5) 1.0000
C44_2 C 0.7335(6) 0.6893(5) 0.5850(4)
H65_2 H 0.7335 0.7142 0.5601
H66_2 H 0.7787 0.6914 0.5968
H67_2 H 0.7004 0.7097 0.6028
C45_2 C 0.7151(4) 0.6179(4) 0.5777(3)
C46_2 C 0.7331(3) 0.5595(4) 0.6004(2)
C47_2 C 0.7018(3) 0.5041(4) 0.5820(2)
C48_2 C 0.7029(5) 0.4319(5) 0.5929(4)
H68_2 H 0.6666 0.4080 0.5791
H69_2 H 0.6961 0.4276 0.6213
H70_2 H 0.7468 0.4122 0.5857
C49_2 C 0.6939(4) 0.6022(8) 0.6881(3)
H71_2 H 0.6962 0.6082 0.7165
H72_2 H 0.6601 0.5673 0.6818
H73_2 H 0.6808 0.6451 0.6757
C50_2 C 0.7612(4) 0.5808(5) 0.6731(3)
C51_2 C 0.7791(3) 0.5587(4) 0.6354(2)
C52_2 C 0.8454(3) 0.5391(3) 0.6370(2)
C53_2 C 0.8927(4) 0.5102(5) 0.6061(3)
H74_2 H 0.9196 0.5470 0.5945
H75_2 H 0.8660 0.4881 0.5855
H76_2 H 0.9231 0.4770 0.6182
C54_2 C 0.8609(5) 0.7993(4) 0.8134(3)
H77_2 H 0.8677 0.8042 0.7851
H78_2 H 0.8791 0.8392 0.8269
H79_2 H 0.8123 0.7954 0.8189
C55_2 C 0.8973(4) 0.7359(3) 0.8278(2)
C56_2 C 0.9248(4) 0.7235(3) 0.8659(2)
C57_2 C 0.9528(4) 0.6580(3) 0.8633(2)
C58_2 C 0.9866(7) 0.6138(5) 0.8943(4)
H80_2 H 0.9657 0.5687 0.8942
H81_2 H 0.9808 0.6346 0.9201
C59_2 C 0.7933(5) 0.7750(6) 0.9162(3)
H83_2 H 0.7743 0.8059 0.8966
H84_2 H 0.7689 0.7806 0.9410
H85_2 H 0.7886 0.7282 0.9071
C60_2 C 0.8668(4) 0.7910(3) 0.9222(2)
C61_2 C 0.9240(4) 0.7694(4) 0.9009(2)
C62_2 C 0.9810(4) 0.7992(3) 0.9175(3)
C64_2 C 0.7351(4) 0.6287(4) 0.8432(3)
H89_2 H 0.7499 0.6659 0.8261
H90_2 H 0.7501 0.6377 0.8701
H91_2 H 0.6856 0.6254 0.8426
C65_2 C 0.7657(3) 0.5631(4) 0.8291(2)
C66_2 C 0.7635(3) 0.4994(4) 0.8475(2)
C67_2 C 0.8005(4) 0.4558(4) 0.8232(2)
C68_2 C 0.8165(5) 0.3812(4) 0.8255(3)
H92_2 H 0.7823 0.3555 0.8109
H93_2 H 0.8162 0.3667 0.8530
H94_2 H 0.8614 0.3728 0.8142
C69_2 C 0.8209(4) 0.4453(6) 0.9315(3)
H95_2 H 0.8257 0.4517 0.9598
H96_2 H 0.8502 0.4776 0.9177
H97_2 H 0.8341 0.3990 0.9245
C70_2 C 0.7473(3) 0.4573(4) 0.9197(2)
C71_2 C 0.7247(3) 0.4815(4) 0.8832(2)
C72_2 C 0.6536(3) 0.4882(3) 0.8874(2)
C73_2 C 0.5989(4) 0.5089(5) 0.8588(3)
H98_2 H 0.5546 0.5063 0.8717
H99_2 H 0.5995 0.4783 0.8362
H100_2 H 0.6071 0.5554 0.8500
C74_2 C 0.8548(4) 0.7665(5) 0.6630(3)
H101_2 H 0.8210 0.7317 0.6570
H102_2 H 0.8618 0.7953 0.6400
H103_2 H 0.8389 0.7943 0.6849
C75_2 C 0.9212(4) 0.7328(3) 0.6741(2)
C76_2 C 0.9846(4) 0.7357(3) 0.6545(2)
H107_2 H 0.9903 0.6585 0.5571
C83_2 C 0.9845(5) 0.8995(4) 0.6429(3)
H111_2 H 0.9884 0.8815 0.6695
H112_2 H 0.9383 0.9160 0.6385
C84_3 C 0.6856(7) 0.8267(9) 0.5000
C85_2 C 0.6967(6) 0.7238(5) 0.7632(3)
C86_3 C 0.6647(7) 0.8255(8) 1.0000
S7_2 S 0.61937(16) 0.73821(19) 0.22304(15)
N39_2 N 0.6748(3) 0.5989(3) 0.45211(18)
N40_2 N 0.6682(3) 0.5306(3) 0.44911(19)
H113_2 H 0.6446 0.5060 0.4657
N41_2 N 0.8149(3) 0.5748(4) 0.30159(19)
N42_2 N 0.8665(3) 0.5493(3) 0.32537(18)
H114_2 H 0.9078 0.5407 0.3171
N43_2 N 0.9061(3) 0.6827(3) 0.19533(17)
N44_2 N 0.9399(3) 0.6360(3) 0.17351(18)
H115_2 H 0.9521 0.5960 0.1823
N46_2 N 0.9558(3) 0.8367(3) 0.05135(19)
H116_2 H 0.9814 0.8613 0.0358
N47_2 N 0.8032(3) 0.5605(3) 0.20474(18)
N48_2 N 0.8229(3) 0.4947(3) 0.20725(18)
H117_2 H 0.8476 0.4787 0.2266
N50_2 N 0.6398(3) 0.4700(3) 0.07545(19)
H118_2 H 0.5987 0.4702 0.0655
N51_2 N 0.9257(3) 0.6928(3) 0.29407(18)
N52_2 N 0.9910(3) 0.6691(3) 0.29384(19)
N55_2 N 0.7540(4) 0.7172(5) 0.2470(3)
C87_2 C 0.7335(6) 0.6893(5) 0.4150(4)
H121_2 H 0.7335 0.7142 0.4399
H122_2 H 0.7787 0.6914 0.4032
H123_2 H 0.7004 0.7097 0.3972
C88_2 C 0.7151(4) 0.6179(4) 0.4223(3)
C89_2 C 0.7331(3) 0.5595(4) 0.3996(2)
C90_2 C 0.7018(3) 0.5041(4) 0.4180(2)
C91_2 C 0.7029(5) 0.4319(5) 0.4071(4)
H124_2 H 0.6666 0.4080 0.4209
H125_2 H 0.6961 0.4276 0.3787
H126_2 H 0.7468 0.4122 0.4143
C92_2 C 0.6939(4) 0.6022(8) 0.3119(3)
H127_2 H 0.6962 0.6082 0.2835
H128_2 H 0.6601 0.5673 0.3182
H129_2 H 0.6808 0.6451 0.3243
C93_2 C 0.7612(4) 0.5808(5) 0.3269(3)
C94_2 C 0.7791(3) 0.5587(4) 0.3646(2)
C95_2 C 0.8454(3) 0.5391(3) 0.3630(2)
C96_2 C 0.8927(4) 0.5102(5) 0.3939(3)
H130_2 H 0.9196 0.5470 0.4055
H131_2 H 0.8660 0.4881 0.4145
H132_2 H 0.9231 0.4770 0.3818
C97_2 C 0.8609(5) 0.7993(4) 0.1866(3)
H133_2 H 0.8677 0.8042 0.2149
H134_2 H 0.8791 0.8392 0.1731
H135_2 H 0.8123 0.7954 0.1811
C98_2 C 0.8973(4) 0.7359(3) 0.1722(2)
C99_2 C 0.9248(4) 0.7235(3) 0.1341(2)
C100_2 C 0.9528(4) 0.6580(3) 0.1367(2)
C101_2 C 0.9866(7) 0.6138(5) 0.1057(4)
H136_2 H 0.9657 0.5687 0.1058
H137_2 H 0.9808 0.6346 0.0799
C102_2 C 0.7933(5) 0.7750(6) 0.0838(3)
H139_2 H 0.7743 0.8059 0.1034
H140_2 H 0.7689 0.7806 0.0590
H141_2 H 0.7886 0.7282 0.0929
C103_2 C 0.8668(4) 0.7910(3) 0.0778(2)
C104_2 C 0.9240(4) 0.7694(4) 0.0991(2)
C105_2 C 0.9810(4) 0.7992(3) 0.0825(3)
C107_2 C 0.7351(4) 0.6287(4) 0.1568(3)
H145_2 H 0.7499 0.6659 0.1739
H146_2 H 0.7501 0.6377 0.1299
H147_2 H 0.6856 0.6254 0.1574
C108_2 C 0.7657(3) 0.5631(4) 0.1709(2)
C109_2 C 0.7635(3) 0.4994(4) 0.1525(2)
C110_2 C 0.8005(4) 0.4558(4) 0.1768(2)
C111_2 C 0.8165(5) 0.3812(4) 0.1745(3)
H148_2 H 0.7823 0.3555 0.1891
H149_2 H 0.8162 0.3667 0.1470
H150_2 H 0.8614 0.3728 0.1858
C112_2 C 0.8209(4) 0.4453(6) 0.0685(3)
H151_2 H 0.8257 0.4517 0.0402
H152_2 H 0.8502 0.4776 0.0823
H153_2 H 0.8341 0.3990 0.0755
C113_2 C 0.7473(3) 0.4573(4) 0.0803(2)
C114_2 C 0.7247(3) 0.4815(4) 0.1168(2)
C115_2 C 0.6536(3) 0.4882(3) 0.1126(2)
C116_2 C 0.5989(4) 0.5089(5) 0.1412(3)
H154_2 H 0.5546 0.5063 0.1283
H155_2 H 0.5995 0.4783 0.1638
H156_2 H 0.6071 0.5554 0.1500
C117_2 C 0.8548(4) 0.7665(5) 0.3370(3)
H157_2 H 0.8210 0.7317 0.3430
H158_2 H 0.8618 0.7953 0.3600
H159_2 H 0.8389 0.7943 0.3151
C118_2 C 0.9212(4) 0.7328(3) 0.3259(2)
C119_2 C 0.9846(4) 0.7357(3) 0.3455(2)
H163_2 H 0.9903 0.6585 0.4429
C126_2 C 0.9845(5) 0.8995(4) 0.3571(3)
H167_2 H 0.9884 0.8815 0.3305
H168_2 H 0.9383 0.9160 0.3615
C127_2 C 0.6967(6) 0.7238(5) 0.2368(3)
loop_
_geom_bond_atom_site_label_1
_geom_bond_atom_site_label_2
_geom_bond_site_symmetry_1
_geom_bond_site_symmetry_2
F5 Si2 1_555 1_555
F6 Si2 1_555 1_555
F7 Si2 1_555 1_555
F9 Si3 1_555 1_555
F10 Si3 1_555 1_555
N15 N16 1_555 1_555
N16 H8 1_555 1_555
H30 C20 1_555 1_555
H31 C20 1_555 1_555
H32 C20 1_555 1_555
C35 C34 1_555 1_555
H48 C35 1_555 1_555
H49 C35 1_555 1_555
H50 C35 1_555 1_555
H52 C36 1_555 1_555
H53 C36 1_555 1_555
C37 N15 1_555 1_555
C39 N16 1_555 1_555
F14 Si2 1_555 1_555
F18 Si3 1_555 1_555
Cd14 F14 1_555 1_555
Cd18 N15 1_555 1_555
C36 C37 1_555 1_555
C37 C38 1_555 1_555
C38 C39 1_555 1_555
F20 Si4 1_555 1_555
F21 Si4 1_555 1_555
F22 Si4 1_555 1_555
N70 N71 1_555 1_555
N71 H176 1_555 1_555
H198 C147 1_555 1_555
H199 C147 1_555 1_555
H200 C147 1_555 1_555
C162 C161 1_555 1_555
H216 C162 1_555 1_555
H217 C162 1_555 1_555
H218 C162 1_555 1_555
H220 C163 1_555 1_555
H221 C163 1_555 1_555
C164 N70 1_555 1_555
C166 N71 1_555 1_555
F23 Si4 1_555 1_555
Cd15 F23 1_555 1_555
N70 Cd18_2 1_555 1_555
C163 C164 1_555 1_555
C164 C165 1_555 1_555
C165 C166 1_555 1_555
Cd1 F1 1_555 1_555
Cd2 F4 1_555 1_555
Cd3 F8 1_555 1_555
Si1 F1 1_555 1_555
Si2_2 F4 1_555 1_555
Si3_2 F8 1_555 1_555
S1 C41 1_555 1_555
S2 C42 1_555 1_555
S3 C43 1_555 1_555
F2 Si1 1_555 1_555
F3 Si1 1_555 1_555
F5_2 Si2_2 1_555 1_555
F7_2 Si2_2 1_555 1_555
F10_2 Si3_2 1_555 1_555
N1 Cd1 1_555 1_555
N2 N1 1_555 1_555
H1 N2 1_555 1_555
N3 Cd2 1_555 1_555
N4 N3 1_555 1_555
H2 N4 1_555 1_555
N5 Cd2 1_555 1_555
N6 N5 1_555 1_555
H3 N6 1_555 1_555
N7 Cd3 1_555 1_555
N8 N7 1_555 1_555
H4 N8 1_555 1_555
N9 Cd2 1_555 1_555
N10 N9 1_555 1_555
H5 N10 1_555 1_555
N11 N12 1_555 1_555
N12 H6 1_555 1_555
N13 Cd2 1_555 1_555
N14 N13 1_555 1_555
N17 Cd1 1_555 1_555
N18 Cd2 1_555 1_555
N19 Cd3 1_555 1_555
C1 H9 1_555 1_555
H10 C1 1_555 1_555
H11 C1 1_555 1_555
C2 N1 1_555 1_555
C3 C2 1_555 1_555
C4 N2 1_555 1_555
C5 C4 1_555 1_555
H12 C5 1_555 1_555
H13 C5 1_555 1_555
H14 C5 1_555 1_555
C6 H15 1_555 1_555
H16 C6 1_555 1_555
H17 C6 1_555 1_555
C7 N3 1_555 1_555
C8 C3 1_555 1_555
C9 N4 1_555 1_555
C10 C9 1_555 1_555
H18 C10 1_555 1_555
H19 C10 1_555 1_555
H20 C10 1_555 1_555
C11 H21 1_555 1_555
H22 C11 1_555 1_555
H23 C11 1_555 1_555
C12 N5 1_555 1_555
C13 C12 1_555 1_555
C14 N6 1_555 1_555
C15 C14 1_555 1_555
H24 C15 1_555 1_555
H25 C15 1_555 1_555
C16 H27 1_555 1_555
H28 C16 1_555 1_555
H29 C16 1_555 1_555
C17 N7 1_555 1_555
C18 C13 1_555 1_555
C19 N8 1_555 1_555
C21 H33 1_555 1_555
H34 C21 1_555 1_555
H35 C21 1_555 1_555
C22 N9 1_555 1_555
C23 C22 1_555 1_555
C24 N10 1_555 1_555
C25 C24 1_555 1_555
H36 C25 1_555 1_555
H37 C25 1_555 1_555
H38 C25 1_555 1_555
C26 H39 1_555 1_555
H40 C26 1_555 1_555
H41 C26 1_555 1_555
C27 N11 1_555 1_555
C28 C23 1_555 1_555
C29 N12 1_555 1_555
C30 C29 1_555 1_555
H42 C30 1_555 1_555
H43 C30 1_555 1_555
H44 C30 1_555 1_555
C31 H45 1_555 1_555
H46 C31 1_555 1_555
H47 C31 1_555 1_555
C32 N13 1_555 1_555
C33 C32 1_555 1_555
H55 C40 1_555 1_555
H56 C40 1_555 1_555
C41 N17 1_555 1_555
C42 N18 1_555 1_555
C43 N19 1_555 1_555
F11 Si1 1_555 1_555
F12 Si1 1_555 1_555
F15 Si2_2 1_555 1_555
F18_2 Si3_2 1_555 1_555
Cd9 F11 1_555 1_555
Cd13 N11 1_555 1_555
N74 Cd3 1_555 1_555
N78 Cd1 1_555 1_555
N80 Cd3 1_555 1_555
N81 Cd3 1_555 1_555
C1 C2 1_555 1_555
C3 C4 1_555 1_555
C6 C7 1_555 1_555
C7 C8 1_555 1_555
C8 C9 1_555 1_555
C11 C12 1_555 1_555
C13 C14 1_555 1_555
C16 C17 1_555 1_555
C17 C18 1_555 1_555
C18 C19 1_555 1_555
C21 C22 1_555 1_555
C23 C24 1_555 1_555
C26 C27 1_555 1_555
C27 C28 1_555 1_555
C28 C29 1_555 1_555
C31 C32 1_555 1_555
Cd1_2 F1_2 1_555 1_555
Si1_2 F1_2 1_555 1_555
S1_2 C41_2 1_555 1_555
F3_2 Si1_2 1_555 1_555
N17_2 Cd1_2 1_555 1_555
C41_2 N17_2 1_555 1_555
F11_2 Si1_2 1_555 1_555
F12_2 Si1_2 1_555 1_555
F13 Si1_2 1_555 1_555
Cd8 F19 1_555 1_555
Si4_2 F19 1_555 1_555
S8 C168 1_555 1_555
F20_2 Si4_2 1_555 1_555
F22_2 Si4_2 1_555 1_555
N56 Cd1_2 1_555 1_555
N57 N56 1_555 1_555
H169 N57 1_555 1_555
N58 Cd8 1_555 1_555
N59 N58 1_555 1_555
H170 N59 1_555 1_555
N60 Cd8 1_555 1_555
N61 N60 1_555 1_555
H171 N61 1_555 1_555
N74 N63 1_555 1_555
N63 H172 1_555 1_555
N64 Cd8 1_555 1_555
N65 N64 1_555 1_555
H173 N65 1_555 1_555
N66 N67 1_555 1_555
N67 H174 1_555 1_555
N68 Cd8 1_555 1_555
N69 N68 1_555 1_555
N72 Cd8 1_555 1_555
C128 H177 1_555 1_555
H178 C128 1_555 1_555
H179 C128 1_555 1_555
C129 N56 1_555 1_555
C130 C129 1_555 1_555
C131 N57 1_555 1_555
C132 C131 1_555 1_555
H180 C132 1_555 1_555
H181 C132 1_555 1_555
H182 C132 1_555 1_555
C133 H183 1_555 1_555
H184 C133 1_555 1_555
H185 C133 1_555 1_555
C134 N58 1_555 1_555
C135 C130 1_555 1_555
C136 N59 1_555 1_555
C137 C136 1_555 1_555
H186 C137 1_555 1_555
H187 C137 1_555 1_555
H188 C137 1_555 1_555
C138 H189 1_555 1_555
H190 C138 1_555 1_555
H191 C138 1_555 1_555
C139 N60 1_555 1_555
C140 C139 1_555 1_555
C141 N61 1_555 1_555
C142 C141 1_555 1_555
H192 C142 1_555 1_555
H193 C142 1_555 1_555
C143 H195 1_555 1_555
H196 C143 1_555 1_555
H197 C143 1_555 1_555
C144 N74 1_555 1_555
C145 C140 1_555 1_555
C146 N63 1_555 1_555
C148 H201 1_555 1_555
H202 C148 1_555 1_555
H203 C148 1_555 1_555
C149 N64 1_555 1_555
C150 C149 1_555 1_555
C151 N65 1_555 1_555
C152 C151 1_555 1_555
H204 C152 1_555 1_555
H205 C152 1_555 1_555
H206 C152 1_555 1_555
C153 H207 1_555 1_555
H208 C153 1_555 1_555
H209 C153 1_555 1_555
C154 N66 1_555 1_555
C155 C150 1_555 1_555
C156 N67 1_555 1_555
C157 C156 1_555 1_555
H210 C157 1_555 1_555
H211 C157 1_555 1_555
H212 C157 1_555 1_555
C158 H213 1_555 1_555
H214 C158 1_555 1_555
H215 C158 1_555 1_555
C159 N68 1_555 1_555
C160 C159 1_555 1_555
H223 C167 1_555 1_555
H224 C167 1_555 1_555
C168 N72 1_555 1_555
F24 Si4_2 1_555 1_555
Cd9_2 F11_2 1_555 1_555
Cd13 N66 1_555 1_555
N75 Cd1_2 1_555 1_555
C128 C129 1_555 1_555
C130 C131 1_555 1_555
C133 C134 1_555 1_555
C134 C135 1_555 1_555
C135 C136 1_555 1_555
C138 C139 1_555 1_555
C140 C141 1_555 1_555
C143 C144 1_555 1_555
C144 C145 1_555 1_555
C145 C146 1_555 1_555
C148 C149 1_555 1_555
C150 C151 1_555 1_555
C153 C154 1_555 1_555
C154 C155 1_555 1_555
C155 C156 1_555 1_555
C158 C159 1_555 1_555
F10_3 Si3_3 1_555 1_555
F16 Si3_3 1_555 1_555
F18_3 Si3_3 1_555 1_555
Cd9 N20 1_555 1_555
Cd14 N22 1_555 1_555
Cd6 F16 1_555 1_555
S4 C84 1_555 1_555
S5 C85 1_555 1_555
S6 C86 1_555 1_555
N20 N21 1_555 1_555
N21 H57 1_555 1_555
N22 N23 1_555 1_555
N23 H58 1_555 1_555
N24 Cd14 1_555 1_555
N25 N24 1_555 1_555
H59 N25 1_555 1_555
N26 Cd6 1_555 1_555
N27 N26 1_555 1_555
H60 N27 1_555 1_555
N28 Cd14 1_555 1_555
N29 N28 1_555 1_555
H61 N29 1_555 1_555
N30 N31 1_555 1_555
N31 H62 1_555 1_555
N32 Cd14 1_555 1_555
N33 N32 1_555 1_555
N36 Cd9 1_555 1_555
N37 Cd14 1_555 1_555
N38 Cd6 1_555 1_555
C44 H65 1_555 1_555
H66 C44 1_555 1_555
H67 C44 1_555 1_555
C45 N20 1_555 1_555
C46 C45 1_555 1_555
C47 N21 1_555 1_555
C48 C47 1_555 1_555
H68 C48 1_555 1_555
H69 C48 1_555 1_555
H70 C48 1_555 1_555
C49 H71 1_555 1_555
H72 C49 1_555 1_555
H73 C49 1_555 1_555
C50 N22 1_555 1_555
C51 C46 1_555 1_555
C52 N23 1_555 1_555
C53 C52 1_555 1_555
H74 C53 1_555 1_555
H75 C53 1_555 1_555
H76 C53 1_555 1_555
C54 H77 1_555 1_555
H78 C54 1_555 1_555
H79 C54 1_555 1_555
C55 N24 1_555 1_555
C56 C55 1_555 1_555
C57 N25 1_555 1_555
C58 C57 1_555 1_555
H80 C58 1_555 1_555
H81 C58 1_555 1_555
C59 H83 1_555 1_555
H84 C59 1_555 1_555
H85 C59 1_555 1_555
C60 N26 1_555 1_555
C61 C56 1_555 1_555
C62 N27 1_555 1_555
C64 H89 1_555 1_555
H90 C64 1_555 1_555
H91 C64 1_555 1_555
C65 N28 1_555 1_555
C66 C65 1_555 1_555
C67 N29 1_555 1_555
C68 C67 1_555 1_555
H92 C68 1_555 1_555
H93 C68 1_555 1_555
H94 C68 1_555 1_555
C69 H95 1_555 1_555
H96 C69 1_555 1_555
H97 C69 1_555 1_555
C70 N30 1_555 1_555
C71 C66 1_555 1_555
C72 N31 1_555 1_555
C73 C72 1_555 1_555
H98 C73 1_555 1_555
H99 C73 1_555 1_555
H100 C73 1_555 1_555
C74 H101 1_555 1_555
H102 C74 1_555 1_555
H103 C74 1_555 1_555
C75 N32 1_555 1_555
C76 C75 1_555 1_555
H111 C83 1_555 1_555
H112 C83 1_555 1_555
C84 N36 1_555 1_555
C85 N37 1_555 1_555
C86 N38 1_555 1_555
Cd11 N30 1_555 1_555
N73 Cd6 1_555 1_555
N77 Cd9 1_555 1_555
N79 Cd6 1_555 1_555
N82 Cd6 1_555 1_555
C44 C45 1_555 1_555
C46 C47 1_555 1_555
C49 C50 1_555 1_555
C50 C51 1_555 1_555
C51 C52 1_555 1_555
C54 C55 1_555 1_555
C56 C57 1_555 1_555
C59 C60 1_555 1_555
C60 C61 1_555 1_555
C61 C62 1_555 1_555
C64 C65 1_555 1_555
C66 C67 1_555 1_555
C69 C70 1_555 1_555
C70 C71 1_555 1_555
C71 C72 1_555 1_555
C74 C75 1_555 1_555
S4_2 C84_2 1_555 1_555
N36_2 Cd9_2 1_555 1_555
C84_2 N36_2 1_555 1_555
Cd15 N41 1_555 1_555
S7 C127 1_555 1_555
N39 Cd9_2 1_555 1_555
N40 N39 1_555 1_555
H113 N40 1_555 1_555
N41 N42 1_555 1_555
N42 H114 1_555 1_555
N43 Cd15 1_555 1_555
N44 N43 1_555 1_555
H115 N44 1_555 1_555
N73 N46 1_555 1_555
N46 H116 1_555 1_555
N47 Cd15 1_555 1_555
N48 N47 1_555 1_555
H117 N48 1_555 1_555
N49 N50 1_555 1_555
N50 H118 1_555 1_555
N51 Cd15 1_555 1_555
N52 N51 1_555 1_555
N55 Cd15 1_555 1_555
C87 H121 1_555 1_555
H122 C87 1_555 1_555
H123 C87 1_555 1_555
C88 N39 1_555 1_555
C89 C88 1_555 1_555
C90 N40 1_555 1_555
C91 C90 1_555 1_555
H124 C91 1_555 1_555
H125 C91 1_555 1_555
H126 C91 1_555 1_555
C92 H127 1_555 1_555
H128 C92 1_555 1_555
H129 C92 1_555 1_555
C93 N41 1_555 1_555
C94 C89 1_555 1_555
C95 N42 1_555 1_555
C96 C95 1_555 1_555
H130 C96 1_555 1_555
H131 C96 1_555 1_555
H132 C96 1_555 1_555
C97 H133 1_555 1_555
H134 C97 1_555 1_555
H135 C97 1_555 1_555
C98 N43 1_555 1_555
C99 C98 1_555 1_555
C100 N44 1_555 1_555
C101 C100 1_555 1_555
H136 C101 1_555 1_555
H137 C101 1_555 1_555
C102 H139 1_555 1_555
H140 C102 1_555 1_555
H141 C102 1_555 1_555
C103 N73 1_555 1_555
C104 C99 1_555 1_555
C105 N46 1_555 1_555
C107 H145 1_555 1_555
H146 C107 1_555 1_555
H147 C107 1_555 1_555
C108 N47 1_555 1_555
C109 C108 1_555 1_555
C110 N48 1_555 1_555
C111 C110 1_555 1_555
H148 C111 1_555 1_555
H149 C111 1_555 1_555
H150 C111 1_555 1_555
C112 H151 1_555 1_555
H152 C112 1_555 1_555
H153 C112 1_555 1_555
C113 N49 1_555 1_555
C114 C109 1_555 1_555
C115 N50 1_555 1_555
C116 C115 1_555 1_555
H154 C116 1_555 1_555
H155 C116 1_555 1_555
H156 C116 1_555 1_555
C117 H157 1_555 1_555
H158 C117 1_555 1_555
H159 C117 1_555 1_555
C118 N51 1_555 1_555
C119 C118 1_555 1_555
H167 C126 1_555 1_555
H168 C126 1_555 1_555
C127 N55 1_555 1_555
Cd11 N49 1_555 1_555
N76 Cd9_2 1_555 1_555
C87 C88 1_555 1_555
C89 C90 1_555 1_555
C92 C93 1_555 1_555
C93 C94 1_555 1_555
C94 C95 1_555 1_555
C97 C98 1_555 1_555
C99 C100 1_555 1_555
C102 C103 1_555 1_555
C103 C104 1_555 1_555
C104 C105 1_555 1_555
C107 C108 1_555 1_555
C109 C110 1_555 1_555
C112 C113 1_555 1_555
C113 C114 1_555 1_555
C114 C115 1_555 1_555
C117 C118 1_555 1_555
F10_4 Si3_4 1_555 1_555
F17 Si3_4 1_555 1_555
F18_4 Si3_4 1_555 1_555
N34 N35 1_555 1_555
N35 H64 1_555 1_555
H86 C63 1_555 1_555
H87 C63 1_555 1_555
H88 C63 1_555 1_555
C78 C77 1_555 1_555
H104 C78 1_555 1_555
H105 C78 1_555 1_555
H106 C78 1_555 1_555
H108 C79 1_555 1_555
H109 C79 1_555 1_555
C80 N34 1_555 1_555
C82 N35 1_555 1_555
Cd19 N34 1_555 1_555
C79 C80 1_555 1_555
C80 C81 1_555 1_555
C81 C82 1_555 1_555
N53 N54 1_555 1_555
N54 H120 1_555 1_555
H142 C106 1_555 1_555
H143 C106 1_555 1_555
H144 C106 1_555 1_555
C121 C120 1_555 1_555
H160 C121 1_555 1_555
H161 C121 1_555 1_555
H162 C121 1_555 1_555
H164 C122 1_555 1_555
H165 C122 1_555 1_555
C123 N53 1_555 1_555
C125 N54 1_555 1_555
N53 Cd19_2 1_555 1_555
C122 C123 1_555 1_555
C123 C124 1_555 1_555
C124 C125 1_555 1_555
Cd18 F8_2 1_555 1_555
Si3_5 F8_2 1_555 1_555
S3_2 C43_2 1_555 1_555
F10_5 Si3_5 1_555 1_555
N19_2 Cd18 1_555 1_555
C43_2 N19_2 1_555 1_555
N74_2 Cd18 1_555 1_555
Cd11 F1_3 1_555 1_555
Cd2_2 F4_2 1_555 1_555
Cd18_2 F8_3 1_555 1_555
Si1_3 F1_3 1_555 1_555
Si2_3 F4_2 1_555 1_555
Si3_6 F8_3 1_555 1_555
S1_3 C41_3 1_555 1_555
S2_2 C42_2 1_555 1_555
S3_3 C43_3 1_555 1_555
F2_2 Si1_3 1_555 1_555
F3_3 Si1_3 1_555 1_555
F5_3 Si2_3 1_555 1_555
F7_3 Si2_3 1_555 1_555
N1_2 Cd11 1_555 1_555
N2_2 N1_2 1_555 1_555
H1_2 N2_2 1_555 1_555
N3_2 Cd2_2 1_555 1_555
N4_2 N3_2 1_555 1_555
H2_2 N4_2 1_555 1_555
N5_2 Cd2_2 1_555 1_555
N6_2 N5_2 1_555 1_555
H3_2 N6_2 1_555 1_555
N7_2 Cd18_2 1_555 1_555
N8_2 N7_2 1_555 1_555
H4_2 N8_2 1_555 1_555
N9_2 Cd2_2 1_555 1_555
N10_2 N9_2 1_555 1_555
H5_2 N10_2 1_555 1_555
N75 N12_2 1_555 1_555
N12_2 H6_2 1_555 1_555
N13_2 Cd2_2 1_555 1_555
N14_2 N13_2 1_555 1_555
N17_3 Cd11 1_555 1_555
N18_2 Cd2_2 1_555 1_555
N19_3 Cd18_2 1_555 1_555
C1_2 H9_2 1_555 1_555
H10_2 C1_2 1_555 1_555
H11_2 C1_2 1_555 1_555
C2_2 N1_2 1_555 1_555
C3_2 C2_2 1_555 1_555
C4_2 N2_2 1_555 1_555
C5_2 C4_2 1_555 1_555
H12_2 C5_2 1_555 1_555
H13_2 C5_2 1_555 1_555
H14_2 C5_2 1_555 1_555
C6_2 H15_2 1_555 1_555
H16_2 C6_2 1_555 1_555
H17_2 C6_2 1_555 1_555
C7_2 N3_2 1_555 1_555
C8_2 C3_2 1_555 1_555
C9_2 N4_2 1_555 1_555
C10_2 C9_2 1_555 1_555
H18_2 C10_2 1_555 1_555
H19_2 C10_2 1_555 1_555
H20_2 C10_2 1_555 1_555
C11_2 H21_2 1_555 1_555
H22_2 C11_2 1_555 1_555
H23_2 C11_2 1_555 1_555
C12_2 N5_2 1_555 1_555
C13_2 C12_2 1_555 1_555
C14_2 N6_2 1_555 1_555
C15_2 C14_2 1_555 1_555
H24_2 C15_2 1_555 1_555
H25_2 C15_2 1_555 1_555
C16_2 H27_2 1_555 1_555
H28_2 C16_2 1_555 1_555
H29_2 C16_2 1_555 1_555
C17_2 N7_2 1_555 1_555
C18_2 C13_2 1_555 1_555
C19_2 N8_2 1_555 1_555
C21_2 H33_2 1_555 1_555
H34_2 C21_2 1_555 1_555
H35_2 C21_2 1_555 1_555
C22_2 N9_2 1_555 1_555
C23_2 C22_2 1_555 1_555
C24_2 N10_2 1_555 1_555
C25_2 C24_2 1_555 1_555
H36_2 C25_2 1_555 1_555
H37_2 C25_2 1_555 1_555
H38_2 C25_2 1_555 1_555
C26_2 H39_2 1_555 1_555
H40_2 C26_2 1_555 1_555
H41_2 C26_2 1_555 1_555
C27_2 N75 1_555 1_555
C28_2 C23_2 1_555 1_555
C29_2 N12_2 1_555 1_555
C30_2 C29_2 1_555 1_555
H42_2 C30_2 1_555 1_555
H43_2 C30_2 1_555 1_555
H44_2 C30_2 1_555 1_555
C31_2 H45_2 1_555 1_555
H46_2 C31_2 1_555 1_555
H47_2 C31_2 1_555 1_555
C32_2 N13_2 1_555 1_555
C33_2 C32_2 1_555 1_555
H55_2 C40_2 1_555 1_555
H56_2 C40_2 1_555 1_555
C41_3 N17_3 1_555 1_555
C42_2 N18_2 1_555 1_555
C43_3 N19_3 1_555 1_555
F11_3 Si1_3 1_555 1_555
F12_3 Si1_3 1_555 1_555
F13_2 Si1_3 1_555 1_555
F15_2 Si2_3 1_555 1_555
F18_5 Si3_6 1_555 1_555
Cd8_2 F19_2 1_555 1_555
Si4_3 F19_2 1_555 1_555
S8_2 C168_2 1_555 1_555
F20_3 Si4_3 1_555 1_555
F22_3 Si4_3 1_555 1_555
N56_2 Cd11 1_555 1_555
N57_2 N56_2 1_555 1_555
H169_2 N57_2 1_555 1_555
N58_2 Cd8_2 1_555 1_555
N59_2 N58_2 1_555 1_555
H170_2 N59_2 1_555 1_555
N60_2 Cd8_2 1_555 1_555
N61_2 N60_2 1_555 1_555
H171_2 N61_2 1_555 1_555
N74_2 N63_2 1_555 1_555
N63_2 H172_2 1_555 1_555
N64_2 Cd8_2 1_555 1_555
N65_2 N64_2 1_555 1_555
H173_2 N65_2 1_555 1_555
N78 N67_2 1_555 1_555
N67_2 H174_2 1_555 1_555
N68_2 Cd8_2 1_555 1_555
N69_2 N68_2 1_555 1_555
N72_2 Cd8_2 1_555 1_555
C128_2 H177_2 1_555 1_555
H178_2 C128_2 1_555 1_555
H179_2 C128_2 1_555 1_555
C129_2 N56_2 1_555 1_555
C130_2 C129_2 1_555 1_555
C131_2 N57_2 1_555 1_555
C132_2 C131_2 1_555 1_555
H180_2 C132_2 1_555 1_555
H181_2 C132_2 1_555 1_555
H182_2 C132_2 1_555 1_555
C133_2 H183_2 1_555 1_555
H184_2 C133_2 1_555 1_555
H185_2 C133_2 1_555 1_555
C134_2 N58_2 1_555 1_555
C135_2 C130_2 1_555 1_555
C136_2 N59_2 1_555 1_555
C137_2 C136_2 1_555 1_555
H186_2 C137_2 1_555 1_555
H187_2 C137_2 1_555 1_555
H188_2 C137_2 1_555 1_555
C138_2 H189_2 1_555 1_555
H190_2 C138_2 1_555 1_555
H191_2 C138_2 1_555 1_555
C139_2 N60_2 1_555 1_555
C140_2 C139_2 1_555 1_555
C141_2 N61_2 1_555 1_555
C142_2 C141_2 1_555 1_555
H192_2 C142_2 1_555 1_555
H193_2 C142_2 1_555 1_555
C143_2 H195_2 1_555 1_555
H196_2 C143_2 1_555 1_555
H197_2 C143_2 1_555 1_555
C144_2 N74_2 1_555 1_555
C145_2 C140_2 1_555 1_555
C146_2 N63_2 1_555 1_555
C148_2 H201_2 1_555 1_555
H202_2 C148_2 1_555 1_555
H203_2 C148_2 1_555 1_555
C149_2 N64_2 1_555 1_555
C150_2 C149_2 1_555 1_555
C151_2 N65_2 1_555 1_555
C152_2 C151_2 1_555 1_555
H204_2 C152_2 1_555 1_555
H205_2 C152_2 1_555 1_555
H206_2 C152_2 1_555 1_555
C153_2 H207_2 1_555 1_555
H208_2 C153_2 1_555 1_555
H209_2 C153_2 1_555 1_555
C154_2 N78 1_555 1_555
C155_2 C150_2 1_555 1_555
C156_2 N67_2 1_555 1_555
C157_2 C156_2 1_555 1_555
H210_2 C157_2 1_555 1_555
H211_2 C157_2 1_555 1_555
H212_2 C157_2 1_555 1_555
C158_2 H213_2 1_555 1_555
H214_2 C158_2 1_555 1_555
H215_2 C158_2 1_555 1_555
C159_2 N68_2 1_555 1_555
C160_2 C159_2 1_555 1_555
H223_2 C167_2 1_555 1_555
H224_2 C167_2 1_555 1_555
C168_2 N72_2 1_555 1_555
F24_2 Si4_3 1_555 1_555
Cd13 F11_3 1_555 1_555
C1_2 C2_2 1_555 1_555
C3_2 C4_2 1_555 1_555
C6_2 C7_2 1_555 1_555
C7_2 C8_2 1_555 1_555
C8_2 C9_2 1_555 1_555
C11_2 C12_2 1_555 1_555
C13_2 C14_2 1_555 1_555
C16_2 C17_2 1_555 1_555
C17_2 C18_2 1_555 1_555
C18_2 C19_2 1_555 1_555
C21_2 C22_2 1_555 1_555
C23_2 C24_2 1_555 1_555
C26_2 C27_2 1_555 1_555
C27_2 C28_2 1_555 1_555
C28_2 C29_2 1_555 1_555
C31_2 C32_2 1_555 1_555
C128_2 C129_2 1_555 1_555
C130_2 C131_2 1_555 1_555
C133_2 C134_2 1_555 1_555
C134_2 C135_2 1_555 1_555
C135_2 C136_2 1_555 1_555
C138_2 C139_2 1_555 1_555
C140_2 C141_2 1_555 1_555
C143_2 C144_2 1_555 1_555
C144_2 C145_2 1_555 1_555
C145_2 C146_2 1_555 1_555
C148_2 C149_2 1_555 1_555
C150_2 C151_2 1_555 1_555
C153_2 C154_2 1_555 1_555
C154_2 C155_2 1_555 1_555
C155_2 C156_2 1_555 1_555
C158_2 C159_2 1_555 1_555
F10_6 Si3_7 1_555 1_555
F17_2 Si3_7 1_555 1_555
F17_3 Si3_8 1_555 1_555
F18_6 Si3_8 1_555 1_555
N80 N35_2 1_555 1_555
N35_2 H64_2 1_555 1_555
H86_2 C63_2 1_555 1_555
H87_2 C63_2 1_555 1_555
H88_2 C63_2 1_555 1_555
C78_2 C77_2 1_555 1_555
H104_2 C78_2 1_555 1_555
H105_2 C78_2 1_555 1_555
H106_2 C78_2 1_555 1_555
H108_2 C79_2 1_555 1_555
H109_2 C79_2 1_555 1_555
C80_2 N80 1_555 1_555
C82_2 N35_2 1_555 1_555
N81 N54_2 1_555 1_555
N54_2 H120_2 1_555 1_555
H142_2 C106_2 1_555 1_555
H143_2 C106_2 1_555 1_555
H144_2 C106_2 1_555 1_555
C121_2 C120_2 1_555 1_555
H160_2 C121_2 1_555 1_555
H161_2 C121_2 1_555 1_555
H162_2 C121_2 1_555 1_555
H164_2 C122_2 1_555 1_555
H165_2 C122_2 1_555 1_555
C123_2 N81 1_555 1_555
C125_2 N54_2 1_555 1_555
C79_2 C80_2 1_555 1_555
C80_2 C81_2 1_555 1_555
C81_2 C82_2 1_555 1_555
C122_2 C123_2 1_555 1_555
C123_2 C124_2 1_555 1_555
C124_2 C125_2 1_555 1_555
F9_2 Si3_9 1_555 1_555
F10_7 Si3_9 1_555 1_555
F5_4 Si2_4 1_555 1_555
F6_2 Si2_4 1_555 1_555
F7_4 Si2_4 1_555 1_555
F9_3 Si3_10 1_555 1_555
N79 N16_2 1_555 1_555
N16_2 H8_2 1_555 1_555
H30_2 C20_2 1_555 1_555
H31_2 C20_2 1_555 1_555
H32_2 C20_2 1_555 1_555
C35_2 C34_2 1_555 1_555
H48_2 C35_2 1_555 1_555
H49_2 C35_2 1_555 1_555
H50_2 C35_2 1_555 1_555
H52_2 C36_2 1_555 1_555
H53_2 C36_2 1_555 1_555
C37_2 N79 1_555 1_555
C39_2 N16_2 1_555 1_555
F14_2 Si2_4 1_555 1_555
F18_7 Si3_10 1_555 1_555
F20_4 Si4_4 1_555 1_555
F21_2 Si4_4 1_555 1_555
F22_4 Si4_4 1_555 1_555
N82 N71_2 1_555 1_555
N71_2 H176_2 1_555 1_555
H198_2 C147_2 1_555 1_555
H199_2 C147_2 1_555 1_555
H200_2 C147_2 1_555 1_555
C162_2 C161_2 1_555 1_555
H216_2 C162_2 1_555 1_555
H217_2 C162_2 1_555 1_555
H218_2 C162_2 1_555 1_555
H220_2 C163_2 1_555 1_555
H221_2 C163_2 1_555 1_555
C164_2 N82 1_555 1_555
C166_2 N71_2 1_555 1_555
F23_2 Si4_4 1_555 1_555
Cd14_2 F14_2 1_555 1_555
Cd15_2 F23_2 1_555 1_555
C36_2 C37_2 1_555 1_555
C37_2 C38_2 1_555 1_555
C38_2 C39_2 1_555 1_555
C163_2 C164_2 1_555 1_555
C164_2 C165_2 1_555 1_555
C165_2 C166_2 1_555 1_555
F10_8 Si3_11 1_555 1_555
F16_2 Si3_11 1_555 1_555
Cd19 F16_2 1_555 1_555
S6_2 C86_2 1_555 1_555
N38_2 Cd19 1_555 1_555
C86_2 N38_2 1_555 1_555
N73_2 Cd19 1_555 1_555
F16_3 Si3_12 1_555 1_555
F18_8 Si3_12 1_555 1_555
Cd13 N20_2 1_555 1_555
Cd14_2 N22_2 1_555 1_555
Cd19_2 F16_3 1_555 1_555
S4_3 C84_3 1_555 1_555
S5_2 C85_2 1_555 1_555
S6_3 C86_3 1_555 1_555
N20_2 N21_2 1_555 1_555
N21_2 H57_2 1_555 1_555
N22_2 N23_2 1_555 1_555
N23_2 H58_2 1_555 1_555
N24_2 Cd14_2 1_555 1_555
N25_2 N24_2 1_555 1_555
H59_2 N25_2 1_555 1_555
N26_2 Cd19_2 1_555 1_555
N27_2 N26_2 1_555 1_555
H60_2 N27_2 1_555 1_555
N28_2 Cd14_2 1_555 1_555
N29_2 N28_2 1_555 1_555
H61_2 N29_2 1_555 1_555
N76 N31_2 1_555 1_555
N31_2 H62_2 1_555 1_555
N32_2 Cd14_2 1_555 1_555
N33_2 N32_2 1_555 1_555
N36_3 Cd13 1_555 1_555
N37_2 Cd14_2 1_555 1_555
N38_3 Cd19_2 1_555 1_555
C44_2 H65_2 1_555 1_555
H66_2 C44_2 1_555 1_555
H67_2 C44_2 1_555 1_555
C45_2 N20_2 1_555 1_555
C46_2 C45_2 1_555 1_555
C47_2 N21_2 1_555 1_555
C48_2 C47_2 1_555 1_555
H68_2 C48_2 1_555 1_555
H69_2 C48_2 1_555 1_555
H70_2 C48_2 1_555 1_555
C49_2 H71_2 1_555 1_555
H72_2 C49_2 1_555 1_555
H73_2 C49_2 1_555 1_555
C50_2 N22_2 1_555 1_555
C51_2 C46_2 1_555 1_555
C52_2 N23_2 1_555 1_555
C53_2 C52_2 1_555 1_555
H74_2 C53_2 1_555 1_555
H75_2 C53_2 1_555 1_555
H76_2 C53_2 1_555 1_555
C54_2 H77_2 1_555 1_555
H78_2 C54_2 1_555 1_555
H79_2 C54_2 1_555 1_555
C55_2 N24_2 1_555 1_555
C56_2 C55_2 1_555 1_555
C57_2 N25_2 1_555 1_555
C58_2 C57_2 1_555 1_555
H80_2 C58_2 1_555 1_555
H81_2 C58_2 1_555 1_555
C59_2 H83_2 1_555 1_555
H84_2 C59_2 1_555 1_555
H85_2 C59_2 1_555 1_555
C60_2 N26_2 1_555 1_555
C61_2 C56_2 1_555 1_555
C62_2 N27_2 1_555 1_555
C64_2 H89_2 1_555 1_555
H90_2 C64_2 1_555 1_555
H91_2 C64_2 1_555 1_555
C65_2 N28_2 1_555 1_555
C66_2 C65_2 1_555 1_555
C67_2 N29_2 1_555 1_555
C68_2 C67_2 1_555 1_555
H92_2 C68_2 1_555 1_555
H93_2 C68_2 1_555 1_555
H94_2 C68_2 1_555 1_555
C69_2 H95_2 1_555 1_555
H96_2 C69_2 1_555 1_555
H97_2 C69_2 1_555 1_555
C70_2 N76 1_555 1_555
C71_2 C66_2 1_555 1_555
C72_2 N31_2 1_555 1_555
C73_2 C72_2 1_555 1_555
H98_2 C73_2 1_555 1_555
H99_2 C73_2 1_555 1_555
H100_2 C73_2 1_555 1_555
C74_2 H101_2 1_555 1_555
H102_2 C74_2 1_555 1_555
H103_2 C74_2 1_555 1_555
C75_2 N32_2 1_555 1_555
C76_2 C75_2 1_555 1_555
H111_2 C83_2 1_555 1_555
H112_2 C83_2 1_555 1_555
C84_3 N36_3 1_555 1_555
C85_2 N37_2 1_555 1_555
C86_3 N38_3 1_555 1_555
Cd15_2 N41_2 1_555 1_555
S7_2 C127_2 1_555 1_555
N39_2 Cd13 1_555 1_555
N40_2 N39_2 1_555 1_555
H113_2 N40_2 1_555 1_555
N41_2 N42_2 1_555 1_555
N42_2 H114_2 1_555 1_555
N43_2 Cd15_2 1_555 1_555
N44_2 N43_2 1_555 1_555
H115_2 N44_2 1_555 1_555
N73_2 N46_2 1_555 1_555
N46_2 H116_2 1_555 1_555
N47_2 Cd15_2 1_555 1_555
N48_2 N47_2 1_555 1_555
H117_2 N48_2 1_555 1_555
N77 N50_2 1_555 1_555
N50_2 H118_2 1_555 1_555
N51_2 Cd15_2 1_555 1_555
N52_2 N51_2 1_555 1_555
N55_2 Cd15_2 1_555 1_555
C87_2 H121_2 1_555 1_555
H122_2 C87_2 1_555 1_555
H123_2 C87_2 1_555 1_555
C88_2 N39_2 1_555 1_555
C89_2 C88_2 1_555 1_555
C90_2 N40_2 1_555 1_555
C91_2 C90_2 1_555 1_555
H124_2 C91_2 1_555 1_555
H125_2 C91_2 1_555 1_555
H126_2 C91_2 1_555 1_555
C92_2 H127_2 1_555 1_555
H128_2 C92_2 1_555 1_555
H129_2 C92_2 1_555 1_555
C93_2 N41_2 1_555 1_555
C94_2 C89_2 1_555 1_555
C95_2 N42_2 1_555 1_555
C96_2 C95_2 1_555 1_555
H130_2 C96_2 1_555 1_555
H131_2 C96_2 1_555 1_555
H132_2 C96_2 1_555 1_555
C97_2 H133_2 1_555 1_555
H134_2 C97_2 1_555 1_555
H135_2 C97_2 1_555 1_555
C98_2 N43_2 1_555 1_555
C99_2 C98_2 1_555 1_555
C100_2 N44_2 1_555 1_555
C101_2 C100_2 1_555 1_555
H136_2 C101_2 1_555 1_555
H137_2 C101_2 1_555 1_555
C102_2 H139_2 1_555 1_555
H140_2 C102_2 1_555 1_555
H141_2 C102_2 1_555 1_555
C103_2 N73_2 1_555 1_555
C104_2 C99_2 1_555 1_555
C105_2 N46_2 1_555 1_555
C107_2 H145_2 1_555 1_555
H146_2 C107_2 1_555 1_555
H147_2 C107_2 1_555 1_555
C108_2 N47_2 1_555 1_555
C109_2 C108_2 1_555 1_555
C110_2 N48_2 1_555 1_555
C111_2 C110_2 1_555 1_555
H148_2 C111_2 1_555 1_555
H149_2 C111_2 1_555 1_555
H150_2 C111_2 1_555 1_555
C112_2 H151_2 1_555 1_555
H152_2 C112_2 1_555 1_555
H153_2 C112_2 1_555 1_555
C113_2 N77 1_555 1_555
C114_2 C109_2 1_555 1_555
C115_2 N50_2 1_555 1_555
C116_2 C115_2 1_555 1_555
H154_2 C116_2 1_555 1_555
H155_2 C116_2 1_555 1_555
H156_2 C116_2 1_555 1_555
C117_2 H157_2 1_555 1_555
H158_2 C117_2 1_555 1_555
H159_2 C117_2 1_555 1_555
C118_2 N51_2 1_555 1_555
C119_2 C118_2 1_555 1_555
H167_2 C126_2 1_555 1_555
H168_2 C126_2 1_555 1_555
C127_2 N55_2 1_555 1_555
C44_2 C45_2 1_555 1_555
C46_2 C47_2 1_555 1_555
C49_2 C50_2 1_555 1_555
C50_2 C51_2 1_555 1_555
C51_2 C52_2 1_555 1_555
C54_2 C55_2 1_555 1_555
C56_2 C57_2 1_555 1_555
C59_2 C60_2 1_555 1_555
C60_2 C61_2 1_555 1_555
C61_2 C62_2 1_555 1_555
C64_2 C65_2 1_555 1_555
C66_2 C67_2 1_555 1_555
C69_2 C70_2 1_555 1_555
C70_2 C71_2 1_555 1_555
C71_2 C72_2 1_555 1_555
C74_2 C75_2 1_555 1_555
C87_2 C88_2 1_555 1_555
C89_2 C90_2 1_555 1_555
C92_2 C93_2 1_555 1_555
C93_2 C94_2 1_555 1_555
C94_2 C95_2 1_555 1_555
C97_2 C98_2 1_555 1_555
C99_2 C100_2 1_555 1_555
C102_2 C103_2 1_555 1_555
C103_2 C104_2 1_555 1_555
C104_2 C105_2 1_555 1_555
C107_2 C108_2 1_555 1_555
C109_2 C110_2 1_555 1_555
C112_2 C113_2 1_555 1_555
C113_2 C114_2 1_555 1_555
C114_2 C115_2 1_555 1_555
C117_2 C118_2 1_555 1_555

#END
