
###############################################################################
#
# This file contains modified crystal structure data generated from the
# MOF subset of the Cambridge Structural Database (CSD) v543 
# hosted by the Cambridge Crystallographic Data Centre (CCDC).
#
# This work is licensed under the Creative Commons
# Attribution-NonCommercial-ShareAlike 4.0 International License.
# To view a copy of this license, visit
# http://creativecommons.org/licenses/by-nc-sa/4.0/
# or send a letter to
# Creative Commons, PO Box 1866, Mountain View, CA 94042, USA.
#
# CIF created using the CSD Python API on 29 September 2022
# The structure has been converted into the P1 space group
# The structure has a 3D framework
# The original CSD entry KIKFIV is in the triclinic crystal system
# The framework has been calculated to contain at least 10.0% void space
# The void calculation uses a probe of radius 1.32A, grid spacing 0.4
# H atom positions have been added when not included in the experimental data
# Generated hydrogen atom positions removed from atoms on special positions
#
###############################################################################

data_KIKFIV
_chemical_formula_moiety         '(C96 H72 Eu2 O16)n'
_symmetry_cell_setting           triclinic
_symmetry_space_group_name_H-M   'P 1'
_symmetry_Int_Tables_number      1
_space_group_name_Hall           'P 1'
loop_
_symmetry_equiv_pos_site_id
_symmetry_equiv_pos_as_xyz
1 x,y,z
_cell_length_a                   9.9355(10)
_cell_length_b                   12.1661(13)
_cell_length_c                   23.473(3)
_cell_angle_alpha                75.392(2)
_cell_angle_beta                 80.660(2)
_cell_angle_gamma                79.549(2)
_cell_volume                     2679.74
loop_
_atom_site_label
_atom_site_type_symbol
_atom_site_fract_x
_atom_site_fract_y
_atom_site_fract_z
_atom_site_U_iso_or_equiv
_atom_site_thermal_displace_type
C52 C 0.0727(5) 0.5181(5) 0.0433(2) 0.0390 Uani
C59 C 0.1502(6) 0.5377(5) 0.0847(2) 0.0510 Uani
H27 H 0.1135 0.5267 0.1244 0.0610 Uiso
C62 C 0.3336(6) 0.5886(6) 0.0091(3) 0.0629 Uani
C64 C 0.2757(6) 0.5718(6) 0.0679(3) 0.0601 Uani
H32 H 0.3236 0.5842 0.0961 0.0720 Uiso
O13 O 0.1227(3) 0.3937(3) 0.57945(14) 0.0497 Uani
C83 C 0.0421(6) 0.2615(6) 0.6935(2) 0.0591 Uani
H37 H 0.1307 0.2407 0.6757 0.0710 Uiso
C90 C 0.0019(6) 0.2063(6) 0.7507(2) 0.0669 Uani
H42 H 0.0632 0.1489 0.7714 0.0800 Uiso
Eu7 Eu 0.26369(3) 0.48216(3) 0.495498(10) 0.0347 Uani
O10 O 0.3942(4) 0.5292(3) 0.55834(14) 0.0471 Uani
O11 O 0.5809(4) 0.5587(4) 0.58862(14) 0.0486 Uani
C49 C 0.4560(5) 0.5427(5) 0.5971(2) 0.0357 Uani
C50 C 0.1313(5) 0.5352(5) 0.9824(2) 0.0370 Uani
C51 C 0.3825(5) 0.5388(5) 0.6581(2) 0.0387 Uani
C53 C 0.0602(5) 0.5149(5) 0.9408(2) 0.0357 Uani
C54 C 0.2512(6) 0.5136(6) 0.6730(2) 0.0611 Uani
H25 H 0.2065 0.4993 0.6443 0.0740 Uiso
C55 C 0.1232(6) 0.5225(5) 0.8798(2) 0.0464 Uani
C56 C 0.1789(6) 0.5263(5) 0.8319(2) 0.0510 Uani
C57 C 0.2641(6) 0.5714(5) 0.9674(3) 0.0509 Uani
H26 H 0.3042 0.5834 0.9281 0.0610 Uiso
C58 C 0.2456(6) 0.5283(5) 0.7721(2) 0.0497 Uani
C60 C 0.1834(6) 0.5088(6) 0.7291(2) 0.0655 Uani
H28 H 0.0936 0.4920 0.7378 0.0790 Uiso
C61 C 0.4455(6) 0.5595(6) 0.7007(2) 0.0654 Uani
H29 H 0.5346 0.5776 0.6914 0.0780 Uiso
H30 H 0.4202 0.6118 0.9980 0.0750 Uiso
C63 C 0.3789(7) 0.5539(7) 0.7583(2) 0.0737 Uani
H31 H 0.4238 0.5674 0.7872 0.0880 Uiso
Eu4 Eu 0.73631(3) 0.51784(3) 0.504502(10) 0.0347 Uani
O1 O 0.6683(3) 0.3368(3) 0.56214(15) 0.0475 Uani
O3 O 0.6058(4) 0.4708(3) 0.44166(14) 0.0471 Uani
O5 O 0.4191(4) 0.4413(4) 0.41138(14) 0.0486 Uani
C2 C 0.5440(5) 0.4573(5) 0.4029(2) 0.0357 Uani
O6 O 0.8964(3) 0.3591(3) 0.46870(14) 0.0482 Uani
O7 O 0.8404(4) 0.1928(4) 0.56834(17) 0.0672 Uani
O8 O 0.8027(4) 0.6920(4) 0.52698(17) 0.0584 Uani
C3 C 0.8687(5) 0.4648(5) 0.0176(2) 0.0370 Uani
C4 C 0.5362(6) 0.2378(5) 0.6724(2) 0.0551 Uani
H1 H 0.4905 0.3036 0.6496 0.0660 Uiso
O9 O 0.5844(4) 0.6923(3) 0.46122(16) 0.0546 Uani
C5 C 0.6175(5) 0.4612(5) 0.3419(2) 0.0387 Uani
C8 C 0.9398(5) 0.4851(5) 0.0592(2) 0.0357 Uani
C9 C 0.7488(6) 0.4864(6) 0.3270(2) 0.0611 Uani
H2 H 0.7935 0.5007 0.3557 0.0740 Uiso
C12 C 0.7290(6) 0.2422(5) 0.5887(2) 0.0450 Uani
C13 C 0.2614(6) 0.0364(5) 0.9560(2) 0.0409 Uani
C17 C 0.8768(6) 0.4775(5) 0.1202(2) 0.0464 Uani
C18 C 0.8211(6) 0.4737(5) 0.1681(2) 0.0510 Uani
C19 C 0.6623(6) 0.1864(5) 0.6496(2) 0.0435 Uani
C22 C 0.5466(7) 0.0948(5) 0.7639(2) 0.0545 Uani
C25 C 0.7359(6) 0.4286(5) 0.0326(3) 0.0509 Uani
H5 H 0.6958 0.4166 0.0719 0.0610 Uiso
C26 C 0.4777(6) 0.1909(6) 0.7294(2) 0.0605 Uani
H6 H 0.3919 0.2244 0.7443 0.0730 Uiso
C29 C 0.4416(6) 0.0153(5) 0.8728(2) 0.0494 Uani
C31 C 0.4881(6) 0.0503(5) 0.8239(2) 0.0564 Uani
C32 C 0.7544(6) 0.4717(5) 0.2279(2) 0.0497 Uani
C35 C 0.8166(6) 0.4912(6) 0.2709(2) 0.0655 Uani
H11 H 0.9064 0.5080 0.2622 0.0790 Uiso
C37 C 0.1856(6) 0.1299(5) 0.9199(3) 0.0529 Uani
H13 H 0.2181 0.1524 0.8799 0.0640 Uiso
C38 C 0.5545(6) 0.4405(6) 0.2993(2) 0.0654 Uani
H14 H 0.4654 0.4224 0.3086 0.0780 Uiso
C41 C 0.0689(7) 0.1869(6) 0.9413(3) 0.0669 Uani
H17 H 0.0214 0.2483 0.9163 0.0800 Uiso
H18 H 0.5798 0.3882 0.0020 0.0750 Uiso
C44 C 0.7282(6) 0.0892(6) 0.6831(3) 0.0653 Uani
H20 H 0.8107 0.0525 0.6671 0.0780 Uiso
C45 C 0.6211(7) 0.4461(7) 0.2417(2) 0.0737 Uani
H21 H 0.5762 0.4326 0.2128 0.0880 Uiso
C47 C 0.6727(7) 0.0447(6) 0.7409(3) 0.0787 Uani
C65 C 0.9982(6) 0.4055(5) 0.5986(2) 0.0373 Uani
O14 O 0.9053(4) 0.4635(4) 0.56838(15) 0.0535 Uani
C67 C 0.9550(5) 0.3460(5) 0.6622(2) 0.0379 Uani
C68 C 0.5900(5) 0.1472(5) 0.9671(2) 0.0384 Uani
C69 C 0.7759(6) 0.1332(5) 0.8854(2) 0.0486 Uani
C74 C 0.7180(6) 0.0903(5) 0.9451(2) 0.0412 Uani
C77 C 0.8251(6) 0.3768(6) 0.6889(2) 0.0555 Uani
H34 H 0.7643 0.4343 0.6680 0.0670 Uiso
C79 C 0.8708(6) 0.2359(6) 0.7775(2) 0.0521 Uani
C80 C 0.5088(6) 0.2358(5) 0.9308(2) 0.0486 Uani
H35 H 0.5398 0.2578 0.8906 0.0580 Uiso
C82 C 0.8227(6) 0.1763(6) 0.8375(2) 0.0544 Uani
C87 C 0.7842(6) 0.3229(6) 0.7466(2) 0.0607 Uani
H39 H 0.6968 0.3460 0.7648 0.0730 Uiso
C91 C 0.3881(6) 0.2896(5) 0.9522(3) 0.0550 Uani
H43 H 0.3363 0.3471 0.9269 0.0670 Uiso
O19 O 0.8773(3) 0.6063(3) 0.42055(14) 0.0497 Uani
C7 C 0.9273(5) 0.4819(5) 0.9567(2) 0.0390 Uani
C34 C 0.8498(6) 0.4623(5) 0.9153(2) 0.0510 Uani
H10 H 0.8865 0.4733 0.8756 0.0610 Uiso
C42 C 0.6664(6) 0.4114(6) 0.9909(3) 0.0629 Uani
C46 C 0.7243(6) 0.4282(6) 0.9321(3) 0.0601 Uani
H22 H 0.6764 0.4158 0.9039 0.0720 Uiso
C1 C 0.0018(6) 0.5945(5) 0.4014(2) 0.0373 Uani
O4 O 0.0947(4) 0.5365(4) 0.43162(15) 0.0535 Uani
C6 C 0.0450(5) 0.6540(5) 0.3378(2) 0.0379 Uani
C10 C 0.4100(5) 0.8528(5) 0.0329(2) 0.0384 Uani
C11 C 0.2241(6) 0.8668(5) 0.1146(2) 0.0486 Uani
C16 C 0.2820(6) 0.9097(5) 0.0549(2) 0.0412 Uani
C21 C 0.1749(6) 0.6232(6) 0.3111(2) 0.0555 Uani
H3 H 0.2357 0.5657 0.3320 0.0670 Uiso
C23 C 0.1292(6) 0.7641(6) 0.2225(2) 0.0521 Uani
C24 C 0.4912(6) 0.7642(5) 0.0692(2) 0.0486 Uani
H4 H 0.4602 0.7422 0.1094 0.0580 Uiso
C27 C 0.1773(6) 0.8237(6) 0.1625(2) 0.0544 Uani
C33 C 0.2158(6) 0.6771(6) 0.2534(2) 0.0607 Uani
H9 H 0.3032 0.6540 0.2352 0.0730 Uiso
C40 C 0.6119(6) 0.7104(5) 0.0478(3) 0.0550 Uani
H16 H 0.6637 0.6529 0.0731 0.0670 Uiso
O12 O 0.3317(3) 0.6632(3) 0.43786(15) 0.0475 Uani
O15 O 0.1036(3) 0.6409(3) 0.53130(14) 0.0482 Uani
O16 O 0.1596(4) 0.8072(4) 0.43166(17) 0.0672 Uani
O17 O 0.1973(4) 0.3080(4) 0.47302(17) 0.0584 Uani
C66 C 0.4638(6) 0.7622(5) 0.3276(2) 0.0551 Uani
H33 H 0.5095 0.6964 0.3504 0.0660 Uiso
O18 O 0.4156(4) 0.3077(3) 0.53878(16) 0.0546 Uani
C70 C 0.2710(6) 0.7578(5) 0.4113(2) 0.0450 Uani
C71 C 0.7386(6) 0.9636(5) 0.0440(2) 0.0409 Uani
C75 C 0.3377(6) 0.8136(5) 0.3504(2) 0.0435 Uani
C78 C 0.4534(7) 0.9052(5) 0.2361(2) 0.0545 Uani
C81 C 0.5223(6) 0.8091(6) 0.2706(2) 0.0605 Uani
H36 H 0.6081 0.7756 0.2557 0.0730 Uiso
C84 C 0.5584(6) 0.9847(5) 0.1272(2) 0.0494 Uani
C86 C 0.5119(6) 0.9497(5) 0.1761(2) 0.0564 Uani
C89 C 0.8144(6) 0.8701(5) 0.0801(3) 0.0529 Uani
H41 H 0.7819 0.8476 0.1201 0.0640 Uiso
C92 C 0.9311(7) 0.8131(6) 0.0587(3) 0.0669 Uani
H44 H 0.9786 0.7517 0.0837 0.0800 Uiso
C94 C 0.2718(6) 0.9108(6) 0.3169(3) 0.0653 Uani
H46 H 0.1893 0.9475 0.3329 0.0780 Uiso
C95 C 0.3273(7) 0.9553(6) 0.2591(3) 0.0787 Uani
C28 C 0.9579(6) 0.7385(6) 0.3065(2) 0.0591 Uani
H7 H 0.8693 0.7593 0.3243 0.0710 Uiso
C39 C 0.9981(6) 0.7937(6) 0.2493(2) 0.0669 Uani
H15 H 0.9368 0.8511 0.2286 0.0800 Uiso
H48 H 0.0632 0.8044 0.9841 0.0760 Uiso
C20 C 0.2092(5) 0.0024(5) 0.0171(2) 0.0396 Uani
C36 C 0.0848(6) 0.0636(6) 0.0388(3) 0.0562 Uani
H12 H 0.0486 0.0422 0.0784 0.0670 Uiso
C48 C 0.0177(6) 0.1546(6) 0.0013(3) 0.0632 Uani
C72 C 0.6132(6) 0.0218(5) 0.0656(2) 0.0403 Uani
C73 C 0.5384(5) 0.1125(5) 0.0285(2) 0.0400 Uani
C85 C 0.4121(6) 0.1731(5) 0.0491(3) 0.0523 Uani
H38 H 0.3777 0.1531 0.0890 0.0630 Uiso
C93 C 0.3404(6) 0.2588(6) 0.0127(3) 0.0602 Uani
H45 H 0.2585 0.2980 0.0278 0.0720 Uiso
H47 H 0.2791 0.0190 0.2358 0.0940 Uiso
C14 C 0.3868(6) 0.9782(5) 0.9344(2) 0.0403 Uani
C15 C 0.4616(5) 0.8875(5) 0.9715(2) 0.0400 Uani
C30 C 0.5879(6) 0.8269(5) 0.9509(3) 0.0523 Uani
H8 H 0.6223 0.8469 0.9110 0.0630 Uiso
C43 C 0.6596(6) 0.7412(6) 0.9873(3) 0.0602 Uani
H19 H 0.7415 0.7020 0.9722 0.0720 Uiso
H23 H 0.7209 0.9810 0.7642 0.0940 Uiso
C76 C 0.7908(5) 0.9976(5) 0.9829(2) 0.0396 Uani
C88 C 0.9152(6) 0.9364(6) 0.9612(3) 0.0562 Uani
H40 H 0.9514 0.9578 0.9216 0.0670 Uiso
C96 C 0.9823(6) 0.8454(6) 0.9987(3) 0.0632 Uani
H24 H 0.9368 0.1956 0.0159 0.0760 Uiso
loop_
_atom_site_aniso_label
_atom_site_aniso_U_11
_atom_site_aniso_U_22
_atom_site_aniso_U_33
_atom_site_aniso_U_23
_atom_site_aniso_U_13
_atom_site_aniso_U_12
C52 0.043 0.036 0.035 -0.008 0.002 -0.004
C59 0.059 0.058 0.036 -0.016 -0.002 -0.005
C62 0.04 0.072 0.08 -0.025 0.005 -0.017
C64 0.056 0.075 0.056 -0.023 -0.008 -0.015
O13 0.03 0.071 0.033 0.006 0.0093 -0.006
C83 0.038 0.079 0.038 0.014 0.004 0.002
C90 0.057 0.085 0.031 0.023 0.004 0.001
Eu7 0.02786 0.0528 0.01783 0.00088 0.00286 -0.00909
O10 0.044 0.075 0.0203 -0.0089 0.0024 -0.012
O11 0.038 0.079 0.029 -0.016 0.0082 -0.015
C49 0.036 0.047 0.02 -0.006 0.003 -0.004
C50 0.038 0.038 0.031 -0.011 0.01 -0.004
C51 0.035 0.058 0.023 -0.012 0.002 -0.008
C53 0.039 0.04 0.025 -0.011 0.006 -0.002
C54 0.044 0.116 0.033 -0.027 0.007 -0.033
C55 0.044 0.058 0.033 -0.01 0.003 -0.004
C56 0.052 0.067 0.03 -0.008 0.004 -0.011
C57 0.046 0.06 0.046 -0.018 0.014 -0.015
C58 0.045 0.062 0.032 -0.007 0.012 -0.002
C60 0.051 0.118 0.032 -0.019 0.012 -0.037
C61 0.048 0.116 0.038 -0.028 0.009 -0.025
C63 0.071 0.128 0.027 -0.028 0.001 -0.019
Eu4 0.02786 0.0528 0.01783 0.00088 0.00286 -0.00909
O1 0.036 0.057 0.034 0.016 -0.0014 -0.007
O3 0.044 0.075 0.0203 -0.0089 0.0024 -0.012
O5 0.038 0.079 0.029 -0.016 0.0082 -0.015
C2 0.036 0.047 0.02 -0.006 0.003 -0.004
O6 0.038 0.067 0.033 -0.006 0.0072 -0.009
O7 0.056 0.068 0.051 0.009 0.016 0.007
O8 0.044 0.07 0.067 -0.022 -0.003 -0.018
C3 0.038 0.038 0.031 -0.011 0.01 -0.004
C4 0.055 0.056 0.035 0.013 0.005 -0.001
O9 0.044 0.059 0.052 0.007 -0.0117 -0.008
C5 0.035 0.058 0.023 -0.012 0.002 -0.008
C8 0.039 0.04 0.025 -0.011 0.006 -0.002
C9 0.044 0.116 0.033 -0.027 0.007 -0.033
C12 0.042 0.054 0.034 0.002 -0.002 -0.014
C13 0.047 0.039 0.031 0.006 -0.003 -0.013
C17 0.044 0.058 0.033 -0.01 0.003 -0.004
C18 0.052 0.067 0.03 -0.008 0.004 -0.011
C19 0.047 0.048 0.028 0.003 0.002 -0.01
C22 0.07 0.051 0.031 0.01 0.005 -0.017
C25 0.046 0.06 0.046 -0.018 0.014 -0.015
C26 0.064 0.064 0.033 0.006 0.014 0.001
C29 0.055 0.046 0.04 0.007 -0.002 -0.016
C31 0.071 0.055 0.035 0.006 0 -0.017
C32 0.045 0.062 0.032 -0.007 0.012 -0.002
C35 0.051 0.118 0.032 -0.019 0.012 -0.037
C37 0.052 0.05 0.049 0.006 -0.006 -0.012
C38 0.048 0.116 0.038 -0.028 0.009 -0.025
C41 0.072 0.054 0.067 0.012 -0.023 -0.013
C44 0.057 0.063 0.047 0.016 0.012 0.009
C45 0.071 0.128 0.027 -0.028 0.001 -0.019
C47 0.082 0.065 0.051 0.026 0.012 0.014
C65 0.045 0.046 0.019 0.002 -0.002 -0.017
O14 0.039 0.087 0.027 0.009 -0.004 -0.021
C67 0.036 0.053 0.023 0 -0.002 -0.016
C68 0.044 0.045 0.024 0.005 -0.002 -0.021
C69 0.054 0.059 0.029 0.002 0 -0.02
C74 0.047 0.048 0.024 0.005 0 -0.018
C77 0.043 0.075 0.032 0.011 0.001 -0.004
C79 0.053 0.064 0.03 0.005 0.007 -0.018
C80 0.059 0.045 0.038 0.005 -0.014 -0.011
C82 0.055 0.071 0.029 0.006 0.004 -0.021
C87 0.039 0.091 0.039 -0.002 0.015 -0.012
C91 0.058 0.04 0.064 0.003 -0.027 -0.003
O19 0.03 0.071 0.033 0.006 0.0093 -0.006
C7 0.043 0.036 0.035 -0.008 0.002 -0.004
C34 0.059 0.058 0.036 -0.016 -0.002 -0.005
C42 0.04 0.072 0.08 -0.025 0.005 -0.017
C46 0.056 0.075 0.056 -0.023 -0.008 -0.015
C1 0.045 0.046 0.019 0.002 -0.002 -0.017
O4 0.039 0.087 0.027 0.009 -0.004 -0.021
C6 0.036 0.053 0.023 0 -0.002 -0.016
C10 0.044 0.045 0.024 0.005 -0.002 -0.021
C11 0.054 0.059 0.029 0.002 0 -0.02
C16 0.047 0.048 0.024 0.005 0 -0.018
C21 0.043 0.075 0.032 0.011 0.001 -0.004
C23 0.053 0.064 0.03 0.005 0.007 -0.018
C24 0.059 0.045 0.038 0.005 -0.014 -0.011
C27 0.055 0.071 0.029 0.006 0.004 -0.021
C33 0.039 0.091 0.039 -0.002 0.015 -0.012
C40 0.058 0.04 0.064 0.003 -0.027 -0.003
O12 0.036 0.057 0.034 0.016 -0.0014 -0.007
O15 0.038 0.067 0.033 -0.006 0.0072 -0.009
O16 0.056 0.068 0.051 0.009 0.016 0.007
O17 0.044 0.07 0.067 -0.022 -0.003 -0.018
C66 0.055 0.056 0.035 0.013 0.005 -0.001
O18 0.044 0.059 0.052 0.007 -0.0117 -0.008
C70 0.042 0.054 0.034 0.002 -0.002 -0.014
C71 0.047 0.039 0.031 0.006 -0.003 -0.013
C75 0.047 0.048 0.028 0.003 0.002 -0.01
C78 0.07 0.051 0.031 0.01 0.005 -0.017
C81 0.064 0.064 0.033 0.006 0.014 0.001
C84 0.055 0.046 0.04 0.007 -0.002 -0.016
C86 0.071 0.055 0.035 0.006 0 -0.017
C89 0.052 0.05 0.049 0.006 -0.006 -0.012
C92 0.072 0.054 0.067 0.012 -0.023 -0.013
C94 0.057 0.063 0.047 0.016 0.012 0.009
C95 0.082 0.065 0.051 0.026 0.012 0.014
C28 0.038 0.079 0.038 0.014 0.004 0.002
C39 0.057 0.085 0.031 0.023 0.004 0.001
C20 0.04 0.041 0.034 0 0.001 -0.013
C36 0.05 0.063 0.053 -0.016 0.007 -0.01
C48 0.042 0.054 0.091 -0.023 0.003 -0.001
C72 0.045 0.047 0.025 0.002 0.002 -0.017
C73 0.041 0.047 0.028 0.001 -0.001 -0.013
C85 0.047 0.058 0.044 -0.003 0.006 -0.01
C93 0.044 0.057 0.073 -0.012 0.002 -0.003
C14 0.045 0.047 0.025 0.002 0.002 -0.017
C15 0.041 0.047 0.028 0.001 -0.001 -0.013
C30 0.047 0.058 0.044 -0.003 0.006 -0.01
C43 0.044 0.057 0.073 -0.012 0.002 -0.003
C76 0.04 0.041 0.034 0 0.001 -0.013
C88 0.05 0.063 0.053 -0.016 0.007 -0.01
C96 0.042 0.054 0.091 -0.023 0.003 -0.001
loop_
_geom_bond_atom_site_label_1
_geom_bond_atom_site_label_2
_geom_bond_site_symmetry_1
_geom_bond_site_symmetry_2
C59 C52 1_555 1_555
H27 C59 1_555 1_555
C64 C59 1_555 1_555
H32 C64 1_555 1_555
H37 C83 1_555 1_555
H42 C90 1_555 1_555
Eu7 O13 1_555 1_555
C62 C64 1_555 1_555
C83 C90 1_555 1_555
O10 C49 1_555 1_555
O11 C49 1_555 1_555
C49 C51 1_555 1_555
C51 C54 1_555 1_555
C54 H25 1_555 1_555
C55 C53 1_555 1_555
C56 C55 1_555 1_555
C57 C50 1_555 1_555
H26 C57 1_555 1_555
C58 C56 1_555 1_555
C60 C54 1_555 1_555
H28 C60 1_555 1_555
C61 C51 1_555 1_555
H29 C61 1_555 1_555
C63 C58 1_555 1_555
H31 C63 1_555 1_555
Eu4 O11 1_555 1_555
Eu7 O10 1_555 1_555
C50 C53 1_555 1_555
C58 C60 1_555 1_555
C61 C63 1_555 1_555
Eu4 O1 1_555 1_555
O1 C12 1_555 1_555
O3 Eu4 1_555 1_555
O5 C2 1_555 1_555
C2 O3 1_555 1_555
O6 Eu4 1_555 1_555
O7 C12 1_555 1_555
O8 Eu4 1_555 1_555
C4 H1 1_555 1_555
O9 Eu4 1_555 1_555
C5 C2 1_555 1_555
C8 C3 1_555 1_555
C9 C5 1_555 1_555
H2 C9 1_555 1_555
C12 C19 1_555 1_555
C17 C8 1_555 1_555
C18 C17 1_555 1_555
C19 C4 1_555 1_555
C22 C26 1_555 1_555
C25 C3 1_555 1_555
H5 C25 1_555 1_555
C26 C4 1_555 1_555
H6 C26 1_555 1_555
C31 C22 1_555 1_555
C32 C18 1_555 1_555
C35 C9 1_555 1_555
H11 C35 1_555 1_555
C37 C13 1_555 1_555
H13 C37 1_555 1_555
C38 C5 1_555 1_555
H14 C38 1_555 1_555
C41 C37 1_555 1_555
H17 C41 1_555 1_555
C44 C19 1_555 1_555
H20 C44 1_555 1_555
C45 C32 1_555 1_555
H21 C45 1_555 1_555
C47 C22 1_555 1_555
C65 O14 1_555 1_555
O14 Eu4 1_555 1_555
C67 C65 1_555 1_555
C69 C74 1_555 1_555
C74 C68 1_555 1_555
C77 C67 1_555 1_555
H34 C77 1_555 1_555
C79 C82 1_555 1_555
C80 C68 1_555 1_555
H35 C80 1_555 1_555
C82 C69 1_555 1_555
C87 C77 1_555 1_555
H39 C87 1_555 1_555
C91 C80 1_555 1_555
H43 C91 1_555 1_555
Eu7 O5 1_555 1_555
O19 Eu4 1_555 1_555
C29 C31 1_555 1_555
C32 C35 1_555 1_555
C38 C45 1_555 1_555
C44 C47 1_555 1_555
C79 C87 1_555 1_555
C7 C34 1_555 1_555
C34 H10 1_555 1_555
C46 C34 1_555 1_555
H22 C46 1_555 1_555
C42 C46 1_555 1_555
C1 O4 1_555 1_555
O4 Eu7 1_555 1_555
C6 C1 1_555 1_555
C11 C16 1_555 1_555
C16 C10 1_555 1_555
C21 C6 1_555 1_555
H3 C21 1_555 1_555
C23 C27 1_555 1_555
C24 C10 1_555 1_555
H4 C24 1_555 1_555
C27 C11 1_555 1_555
C33 C21 1_555 1_555
H9 C33 1_555 1_555
C40 C24 1_555 1_555
H16 C40 1_555 1_555
Eu7 O12 1_555 1_555
O12 C70 1_555 1_555
O15 Eu7 1_555 1_555
O16 C70 1_555 1_555
O17 Eu7 1_555 1_555
C66 H33 1_555 1_555
O18 Eu7 1_555 1_555
C70 C75 1_555 1_555
C75 C66 1_555 1_555
C78 C81 1_555 1_555
C81 C66 1_555 1_555
H36 C81 1_555 1_555
C86 C78 1_555 1_555
C89 C71 1_555 1_555
H41 C89 1_555 1_555
C92 C89 1_555 1_555
H44 C92 1_555 1_555
C94 C75 1_555 1_555
H46 C94 1_555 1_555
C95 C78 1_555 1_555
C23 C33 1_555 1_555
C84 C86 1_555 1_555
C94 C95 1_555 1_555
H7 C28 1_555 1_555
H15 C39 1_555 1_555
C28 C39 1_555 1_555
C36 C20 1_555 1_555
H12 C36 1_555 1_555
C48 C36 1_555 1_555
C72 C73 1_555 1_555
C73 C85 1_555 1_555
C85 H38 1_555 1_555
C93 C85 1_555 1_555
H45 C93 1_555 1_555
C14 C15 1_555 1_555
C15 C30 1_555 1_555
C30 H8 1_555 1_555
C43 C30 1_555 1_555
H19 C43 1_555 1_555
C88 C76 1_555 1_555
H40 C88 1_555 1_555
C96 C88 1_555 1_555

#END
