
###############################################################################
#
# This file contains modified crystal structure data generated from the
# MOF subset of the Cambridge Structural Database (CSD) v543 
# hosted by the Cambridge Crystallographic Data Centre (CCDC).
#
# This work is licensed under the Creative Commons
# Attribution-NonCommercial-ShareAlike 4.0 International License.
# To view a copy of this license, visit
# http://creativecommons.org/licenses/by-nc-sa/4.0/
# or send a letter to
# Creative Commons, PO Box 1866, Mountain View, CA 94042, USA.
#
# CIF created using the CSD Python API on 29 September 2022
# The structure has been converted into the P1 space group
# The structure has a 3D framework
# The original CSD entry KIKLUO is in the monoclinic crystal system
# The framework has been calculated to contain at least 10.0% void space
# The void calculation uses a probe of radius 1.32A, grid spacing 0.4
#
###############################################################################

data_KIKLUO
_chemical_formula_moiety         '(C112 H136 N32 O70 Yb8)n'
_symmetry_cell_setting           triclinic
_symmetry_space_group_name_H-M   'P 1'
_symmetry_Int_Tables_number      1
_space_group_name_Hall           'P 1'
loop_
_symmetry_equiv_pos_site_id
_symmetry_equiv_pos_as_xyz
1 x,y,z
_cell_length_a                   27.826(6)
_cell_length_b                   9.2716(19)
_cell_length_c                   21.156(4)
_cell_angle_alpha                90
_cell_angle_beta                 122.03(3)
_cell_angle_gamma                90
_cell_volume                     4627.19
loop_
_atom_site_label
_atom_site_type_symbol
_atom_site_fract_x
_atom_site_fract_y
_atom_site_fract_z
Yb1 Yb 0.081940(13) 0.07691(3) 0.630836(17)
C1 C 0.0506(3) 0.0663(7) 0.4561(4)
N1 N 0.2323(3) 0.2468(8) 0.5099(4)
O1 O 0.0614(2) 0.1221(5) 0.5154(3)
O2 O 0.0374(2) 0.2951(5) 0.6082(3)
O3 O 0.1549(2) 0.2350(6) 0.6856(3)
O4 O 0.0055(2) 0.0006(6) 0.4112(3)
C2 C 0.0930(3) 0.0786(7) 0.4337(4)
C3 C 0.1432(3) 0.1496(8) 0.4795(4)
H1 H 0.1513 0.1836 0.5256
C4 C 0.0823(3) 0.0251(8) 0.3667(4)
C5 C 0.1817(3) 0.1710(9) 0.4581(4)
N3 N 0.1947(3) 0.4515(7) 0.7334(5)
C6 C 0.1693(3) 0.1233(9) 0.3891(5)
H3 H 0.1941 0.1423 0.3732
C7 C 0.1612(4) 0.3437(10) 0.7240(5)
H4 H 0.1409 0.3483 0.7473
C8 C 0.0101(5) 0.5856(9) 0.5879(7)
H5 H 0.0482 0.5491 0.6146
H6 H 0.0049 0.6482 0.6199
H7 H 0.0035 0.6385 0.5450
C9 C 0.2248(4) 0.4567(10) 0.6947(6)
H8 H 0.2172 0.3703 0.6658
H9 H 0.2648 0.4642 0.7304
H10 H 0.2124 0.5389 0.6622
C11 C 0.2021(6) 0.5730(10) 0.7811(8)
H12 H 0.1799 0.5580 0.8031
H13 H 0.1899 0.6599 0.7520
H14 H 0.2414 0.5815 0.8198
O9 O 0.1283(3) 0.0647(6) 0.2378(3)
C13 C 0.1196(3) 0.0466(8) 0.3437(5)
C15 C 0.4494(3) 0.4337(7) 0.5439(4)
N5 N 0.2677(3) 0.2532(8) 0.4901(4)
O10 O 0.4386(2) 0.3779(5) 0.4846(3)
O11 O 0.4945(2) 0.4994(6) 0.5888(3)
C16 C 0.4070(3) 0.4214(7) 0.5663(4)
C17 C 0.3568(3) 0.3504(8) 0.5205(4)
H18 H 0.3487 0.3164 0.4744
C18 C 0.4177(3) 0.4749(8) 0.6333(4)
H19 H 0.4509 0.5266 0.6636
C19 C 0.3183(3) 0.3290(9) 0.5419(4)
C20 C 0.3307(3) 0.3767(9) 0.6109(5)
H20 H 0.3059 0.3577 0.6268
O12 O 0.4257(2) 0.6091(6) 0.7625(3)
O13 O 0.3717(3) 0.4353(6) 0.7622(3)
C21 C 0.3804(3) 0.4534(8) 0.6563(5)
C22 C 0.3934(3) 0.5028(9) 0.7309(5)
Yb3 Yb 0.581940(13) 0.57691(3) 0.630836(17)
Yb4 Yb 0.418060(13) 0.57691(3) 0.869164(17)
Yb6 Yb 0.418060(13) 0.42309(3) 0.369164(17)
O22 O 0.0743(2) 0.1091(6) 0.7375(3)
O5 O 0.1605(3) 0.9667(8) 0.6297(4)
H2 H 0.0491 0.9734 0.3364
O6 O 0.0853(4) 0.8411(6) 0.5857(4)
N4 N 0.1368(4) 0.8510(11) 0.6027(5)
O7 O 0.1598(4) 0.7493(10) 0.5930(6)
O8 O 0.0743(2) 0.8909(6) 0.2375(3)
C14 C 0.1066(3) 0.9972(9) 0.2691(5)
N6 N 0.0280(3) 0.5296(7) 0.4349(4)
C26 C 0.0129(4) 0.6636(9) 0.4240(5)
H28 H 0.0412 0.7333 0.4411
C28 C 0.0875(5) 0.4883(13) 0.4756(9)
H32 H 0.1107 0.5733 0.4898
H33 H 0.0963 0.4351 0.5194
H34 H 0.0948 0.4292 0.4443
Yb5 Yb 0.081940(13) 0.92309(3) 0.130836(17)
O24 O 0.1283(3) 0.9353(6) 0.7378(3)
N2 N 0.9720(3) 0.4704(7) 0.5651(4)
C10 C 0.9871(4) 0.3364(9) 0.5760(5)
H11 H 0.9588 0.2667 0.5589
C12 C 0.9125(5) 0.5117(13) 0.5244(9)
H15 H 0.8893 0.4267 0.5102
H16 H 0.9037 0.5649 0.4806
H17 H 0.9052 0.5708 0.5557
O16 O 0.8395(3) 0.0333(8) 0.3703(4)
O17 O 0.9147(4) 0.1589(6) 0.4143(4)
N8 N 0.8632(4) 0.1490(11) 0.3973(5)
O18 O 0.8402(4) 0.2507(10) 0.4070(6)
O23 O 0.8717(3) 0.0647(6) 0.2622(3)
Yb2 Yb 0.918060(13) 0.92309(3) 0.369164(17)
O14 O 0.9626(2) 0.7049(5) 0.3918(3)
O15 O 0.8451(2) 0.7650(6) 0.3144(3)
N7 N 0.8053(3) 0.5485(7) 0.2666(5)
C23 C 0.8388(4) 0.6563(10) 0.2760(5)
H21 H 0.8591 0.6517 0.2527
C24 C 0.9899(5) 0.4144(9) 0.4121(7)
H22 H 0.9518 0.4509 0.3854
H23 H 0.9951 0.3518 0.3801
H24 H 0.9965 0.3615 0.4550
C25 C 0.7752(4) 0.5433(10) 0.3053(6)
H25 H 0.7828 0.6297 0.3342
H26 H 0.7352 0.5358 0.2696
H27 H 0.7876 0.4611 0.3378
C27 C 0.7979(6) 0.4270(10) 0.2189(8)
H29 H 0.8201 0.4420 0.1969
H30 H 0.8101 0.3401 0.2480
H31 H 0.7586 0.4185 0.1802
O19 O 0.9386(2) 0.8779(5) 0.4846(3)
O20 O 0.9945(2) 0.9994(6) 0.5888(3)
O21 O 0.9257(2) 0.8909(6) 0.2625(3)
H16_2 H 0.0963 0.5649 0.0194
O16_2 O 0.1605(3) 0.0333(8) 0.1297(4)
O17_2 O 0.0853(4) 0.1589(6) 0.0857(4)
N8_2 N 0.1368(4) 0.1490(11) 0.1027(5)
O18_2 O 0.1598(4) 0.2507(10) 0.0930(6)
N2_2 N 0.0280(3) 0.4704(7) 0.9349(4)
C10_2 C 0.0129(4) 0.3364(9) 0.9240(5)
H11_2 H 0.0412 0.2667 0.9411
C12_2 C 0.0875(5) 0.5117(13) 0.9756(9)
H15_2 H 0.1107 0.4267 0.9898
H17_2 H 0.0948 0.5708 0.9443
O14_2 O 0.0374(2) 0.7049(5) 0.1082(3)
O15_2 O 0.1549(2) 0.7650(6) 0.1856(3)
N7_2 N 0.1947(3) 0.5485(7) 0.2334(5)
C23_2 C 0.1612(4) 0.6563(10) 0.2240(5)
H21_2 H 0.1409 0.6517 0.2473
C24_2 C 0.0101(5) 0.4144(9) 0.0879(7)
H22_2 H 0.0482 0.4509 0.1146
H23_2 H 0.0049 0.3518 0.1199
H24_2 H 0.0035 0.3615 0.0450
C25_2 C 0.2248(4) 0.5433(10) 0.1947(6)
H25_2 H 0.2172 0.6297 0.1658
H26_2 H 0.2648 0.5358 0.2304
H27_2 H 0.2124 0.4611 0.1622
C27_2 C 0.2021(6) 0.4270(10) 0.2811(8)
H29_2 H 0.1799 0.4420 0.3031
H30_2 H 0.1899 0.3401 0.2520
H31_2 H 0.2414 0.4185 0.3198
O19_2 O 0.0614(2) 0.8779(5) 0.0154(3)
O20_2 O 0.0055(2) 0.9994(6) 0.9112(3)
C1_2 C 0.9494(3) 0.0663(7) 0.0439(4)
O4_2 O 0.9945(2) 0.0006(6) 0.0888(3)
C2_2 C 0.9070(3) 0.0786(7) 0.0663(4)
C3_2 C 0.8568(3) 0.1496(8) 0.0205(4)
C4_2 C 0.9177(3) 0.0251(8) 0.1333(4)
C5_2 C 0.8183(3) 0.1710(9) 0.0419(4)
C6_2 C 0.8307(3) 0.1233(9) 0.1109(5)
H3_2 H 0.8059 0.1423 0.1268
C13_2 C 0.8804(3) 0.0466(8) 0.1563(5)
N5_2 N 0.7323(3) 0.2532(8) 0.0099(4)
O10_2 O 0.5614(2) 0.3779(5) 0.0154(3)
H18_2 H 0.6513 0.3164 0.0256
Yb6_2 Yb 0.581940(13) 0.42309(3) 0.130836(17)
Yb1_2 Yb 0.918060(13) 0.07691(3) 0.869164(17)
N1_2 N 0.7677(3) 0.2468(8) 0.9901(4)
O1_2 O 0.9386(2) 0.1221(5) 0.9846(3)
O2_2 O 0.9626(2) 0.2951(5) 0.8918(3)
O3_2 O 0.8451(2) 0.2350(6) 0.8144(3)
H1_2 H 0.8487 0.1836 0.9744
N3_2 N 0.8053(3) 0.4515(7) 0.7666(5)
C7_2 C 0.8388(4) 0.3437(10) 0.7760(5)
H4_2 H 0.8591 0.3483 0.7527
C8_2 C 0.9899(5) 0.5856(9) 0.9121(7)
H5_2 H 0.9518 0.5491 0.8854
H6_2 H 0.9951 0.6482 0.8801
H7_2 H 0.9965 0.6385 0.9550
C9_2 C 0.7752(4) 0.4567(10) 0.8053(6)
H8_2 H 0.7828 0.3703 0.8342
H9_2 H 0.7352 0.4642 0.7696
H10_2 H 0.7876 0.5389 0.8378
C11_2 C 0.7979(6) 0.5730(10) 0.7189(8)
H12_2 H 0.8201 0.5580 0.6969
H13_2 H 0.8101 0.6599 0.7480
H14_2 H 0.7586 0.5815 0.6802
C15_2 C 0.5506(3) 0.4337(7) 0.9561(4)
O11_2 O 0.5055(2) 0.4994(6) 0.9112(3)
C16_2 C 0.5930(3) 0.4214(7) 0.9337(4)
C17_2 C 0.6432(3) 0.3504(8) 0.9795(4)
C18_2 C 0.5823(3) 0.4749(8) 0.8667(4)
H19_2 H 0.5491 0.5266 0.8364
C19_2 C 0.6817(3) 0.3290(9) 0.9581(4)
C20_2 C 0.6693(3) 0.3767(9) 0.8891(5)
H20_2 H 0.6941 0.3577 0.8732
O12_2 O 0.5743(2) 0.6091(6) 0.7375(3)
O13_2 O 0.6283(3) 0.4353(6) 0.7378(3)
C21_2 C 0.6196(3) 0.4534(8) 0.8437(5)
C22_2 C 0.6066(3) 0.5028(9) 0.7691(5)
O22_2 O 0.9257(2) 0.1091(6) 0.7625(3)
H2_2 H 0.9509 0.9734 0.1636
C14_2 C 0.8934(3) 0.9972(9) 0.2309(5)
N6_2 N 0.9720(3) 0.5296(7) 0.0651(4)
C26_2 C 0.9871(4) 0.6636(9) 0.0760(5)
H28_2 H 0.9588 0.7333 0.0589
C28_2 C 0.9125(5) 0.4883(13) 0.0244(9)
H32_2 H 0.8893 0.5733 0.0102
H34_2 H 0.9052 0.4292 0.0557
O5_2 O 0.8395(3) 0.9667(8) 0.8703(4)
O6_2 O 0.9147(4) 0.8411(6) 0.9143(4)
N4_2 N 0.8632(4) 0.8510(11) 0.8973(5)
O7_2 O 0.8402(4) 0.7493(10) 0.9070(6)
H33_2 H 0.9037 0.4351 0.9806
O24_2 O 0.8717(3) 0.9353(6) 0.7622(3)
C8_3 C 0.5101(5) 0.0856(9) 0.5879(7)
H5_3 H 0.5482 0.0491 0.6146
H6_3 H 0.5049 0.1482 0.6199
H7_3 H 0.5035 0.1385 0.5450
H10_3 H 0.7124 0.0389 0.6622
C11_3 C 0.7021(6) 0.0730(10) 0.7811(8)
H12_3 H 0.6799 0.0580 0.8031
H13_3 H 0.6899 0.1599 0.7520
H14_3 H 0.7414 0.0815 0.8198
C12_3 C 0.4125(5) 0.0117(13) 0.5244(9)
H16_3 H 0.4037 0.0649 0.4806
H17_3 H 0.4052 0.0708 0.5557
H19_3 H 0.9509 0.0266 0.6636
C22_3 C 0.8934(3) 0.0028(9) 0.7309(5)
C1_3 C 0.5506(3) 0.5663(7) 0.4561(4)
N1_3 N 0.7323(3) 0.7468(8) 0.5099(4)
O1_3 O 0.5614(2) 0.6221(5) 0.5154(3)
O2_3 O 0.5374(2) 0.7951(5) 0.6082(3)
O3_3 O 0.6549(2) 0.7350(6) 0.6856(3)
O4_3 O 0.5055(2) 0.5006(6) 0.4112(3)
C2_3 C 0.5930(3) 0.5786(7) 0.4337(4)
O5_3 O 0.6605(3) 0.4667(8) 0.6297(4)
C3_3 C 0.6432(3) 0.6496(8) 0.4795(4)
H1_3 H 0.6513 0.6836 0.5256
N2_3 N 0.4720(3) 0.9704(7) 0.5651(4)
C4_3 C 0.5823(3) 0.5251(8) 0.3667(4)
H2_3 H 0.5491 0.4734 0.3364
C5_3 C 0.6817(3) 0.6710(9) 0.4581(4)
N3_3 N 0.6947(3) 0.9515(7) 0.7334(5)
C6_3 C 0.6693(3) 0.6233(9) 0.3891(5)
H3_3 H 0.6941 0.6423 0.3732
O6_3 O 0.5853(4) 0.3411(6) 0.5857(4)
C7_3 C 0.6612(4) 0.8437(10) 0.7240(5)
H4_3 H 0.6409 0.8483 0.7473
N4_3 N 0.6368(4) 0.3510(11) 0.6027(5)
C9_3 C 0.7248(4) 0.9567(10) 0.6947(6)
H8_3 H 0.7172 0.8703 0.6658
H9_3 H 0.7648 0.9642 0.7304
C10_3 C 0.4871(4) 0.8364(9) 0.5760(5)
H11_3 H 0.4588 0.7667 0.5589
O7_3 O 0.6598(4) 0.2493(10) 0.5930(6)
H15_3 H 0.3893 0.9267 0.5102
O8_2 O 0.5743(2) 0.3909(6) 0.2375(3)
O9_2 O 0.6283(3) 0.5647(6) 0.2378(3)
C13_3 C 0.6196(3) 0.5466(8) 0.3437(5)
C14_3 C 0.6066(3) 0.4972(9) 0.2691(5)
C15_3 C 0.9494(3) 0.9337(7) 0.5439(4)
N5_3 N 0.7677(3) 0.7532(8) 0.4901(4)
C16_3 C 0.9070(3) 0.9214(7) 0.5663(4)
C17_3 C 0.8568(3) 0.8504(8) 0.5205(4)
H18_3 H 0.8487 0.8164 0.4744
C18_3 C 0.9177(3) 0.9749(8) 0.6333(4)
C19_3 C 0.8183(3) 0.8290(9) 0.5419(4)
C20_3 C 0.8307(3) 0.8767(9) 0.6109(5)
H20_3 H 0.8059 0.8577 0.6268
C21_3 C 0.8804(3) 0.9534(8) 0.6563(5)
O14_3 O 0.4626(2) 0.2049(5) 0.3918(3)
O15_3 O 0.3451(2) 0.2650(6) 0.3144(3)
O16_3 O 0.3395(3) 0.5333(8) 0.3703(4)
N6_3 N 0.5280(3) 0.0296(7) 0.4349(4)
N7_3 N 0.3053(3) 0.0485(7) 0.2666(5)
O17_3 O 0.4147(4) 0.6589(6) 0.4143(4)
C23_3 C 0.3388(4) 0.1563(10) 0.2760(5)
H21_3 H 0.3591 0.1517 0.2527
N8_3 N 0.3632(4) 0.6490(11) 0.3973(5)
C25_3 C 0.2752(4) 0.0433(10) 0.3053(6)
H25_3 H 0.2828 0.1297 0.3342
H26_3 H 0.2352 0.0358 0.2696
C26_3 C 0.5129(4) 0.1636(9) 0.4240(5)
H28_3 H 0.5412 0.2333 0.4411
O18_3 O 0.3402(4) 0.7507(10) 0.4070(6)
H32_3 H 0.6107 0.0733 0.4898
O21_2 O 0.4257(2) 0.3909(6) 0.2625(3)
O23_2 O 0.3717(3) 0.5647(6) 0.2622(3)
C24_3 C 0.4899(5) 0.9144(9) 0.4121(7)
H22_3 H 0.4518 0.9509 0.3854
H23_3 H 0.4951 0.8518 0.3801
H24_3 H 0.4965 0.8615 0.4550
H27_3 H 0.2876 0.9611 0.3378
C27_3 C 0.2979(6) 0.9270(10) 0.2189(8)
H29_3 H 0.3201 0.9420 0.1969
H30_3 H 0.3101 0.8401 0.2480
H31_3 H 0.2586 0.9185 0.1802
C28_3 C 0.5875(5) 0.9883(13) 0.4756(9)
H33_3 H 0.5963 0.9351 0.5194
H34_3 H 0.5948 0.9292 0.4443
C8_4 C 0.4899(5) 0.0856(9) 0.9121(7)
H5_4 H 0.4518 0.0491 0.8854
H6_4 H 0.4951 0.1482 0.8801
H7_4 H 0.4965 0.1385 0.9550
H10_4 H 0.2876 0.0389 0.8378
C11_4 C 0.2979(6) 0.0730(10) 0.7189(8)
H12_4 H 0.3201 0.0580 0.6969
H13_4 H 0.3101 0.1599 0.7480
H14_4 H 0.2586 0.0815 0.6802
C12_4 C 0.5875(5) 0.0117(13) 0.9756(9)
H17_4 H 0.5948 0.0708 0.9443
H19_4 H 0.0491 0.0266 0.8364
C22_4 C 0.1066(3) 0.0028(9) 0.7691(5)
C1_4 C 0.4494(3) 0.5663(7) 0.0439(4)
O4_4 O 0.4945(2) 0.5006(6) 0.0888(3)
C2_4 C 0.4070(3) 0.5786(7) 0.0663(4)
C3_4 C 0.3568(3) 0.6496(8) 0.0205(4)
C4_4 C 0.4177(3) 0.5251(8) 0.1333(4)
H2_4 H 0.4509 0.4734 0.1636
C5_4 C 0.3183(3) 0.6710(9) 0.0419(4)
C6_4 C 0.3307(3) 0.6233(9) 0.1109(5)
H3_4 H 0.3059 0.6423 0.1268
C13_4 C 0.3804(3) 0.5466(8) 0.1563(5)
C14_4 C 0.3934(3) 0.4972(9) 0.2309(5)
N5_4 N 0.2323(3) 0.7532(8) 0.0099(4)
H18_4 H 0.1513 0.8164 0.0256
O14_4 O 0.5374(2) 0.2049(5) 0.1082(3)
O15_4 O 0.6549(2) 0.2650(6) 0.1856(3)
O16_4 O 0.6605(3) 0.5333(8) 0.1297(4)
N6_4 N 0.4720(3) 0.0296(7) 0.0651(4)
N7_4 N 0.6947(3) 0.0485(7) 0.2334(5)
O17_4 O 0.5853(4) 0.6589(6) 0.0857(4)
C23_4 C 0.6612(4) 0.1563(10) 0.2240(5)
H21_4 H 0.6409 0.1517 0.2473
N8_4 N 0.6368(4) 0.6490(11) 0.1027(5)
C25_4 C 0.7248(4) 0.0433(10) 0.1947(6)
H25_4 H 0.7172 0.1297 0.1658
H26_4 H 0.7648 0.0358 0.2304
C26_4 C 0.4871(4) 0.1636(9) 0.0760(5)
H28_4 H 0.4588 0.2333 0.0589
O18_4 O 0.6598(4) 0.7507(10) 0.0930(6)
H32_4 H 0.3893 0.0733 0.0102
N1_4 N 0.2677(3) 0.7468(8) 0.9901(4)
O1_4 O 0.4386(2) 0.6221(5) 0.9846(3)
O2_4 O 0.4626(2) 0.7951(5) 0.8918(3)
O3_4 O 0.3451(2) 0.7350(6) 0.8144(3)
O5_4 O 0.3395(3) 0.4667(8) 0.8703(4)
H1_4 H 0.3487 0.6836 0.9744
N2_4 N 0.5280(3) 0.9704(7) 0.9349(4)
N3_4 N 0.3053(3) 0.9515(7) 0.7666(5)
O6_4 O 0.4147(4) 0.3411(6) 0.9143(4)
C7_4 C 0.3388(4) 0.8437(10) 0.7760(5)
H4_4 H 0.3591 0.8483 0.7527
N4_4 N 0.3632(4) 0.3510(11) 0.8973(5)
C9_4 C 0.2752(4) 0.9567(10) 0.8053(6)
H8_4 H 0.2828 0.8703 0.8342
H9_4 H 0.2352 0.9642 0.7696
C10_4 C 0.5129(4) 0.8364(9) 0.9240(5)
H11_4 H 0.5412 0.7667 0.9411
O7_4 O 0.3402(4) 0.2493(10) 0.9070(6)
H15_4 H 0.6107 0.9267 0.9898
C15_4 C 0.0506(3) 0.9337(7) 0.9561(4)
C16_4 C 0.0930(3) 0.9214(7) 0.9337(4)
C17_4 C 0.1432(3) 0.8504(8) 0.9795(4)
C18_4 C 0.0823(3) 0.9749(8) 0.8667(4)
C19_4 C 0.1817(3) 0.8290(9) 0.9581(4)
C20_4 C 0.1693(3) 0.8767(9) 0.8891(5)
H20_4 H 0.1941 0.8577 0.8732
C21_4 C 0.1196(3) 0.9534(8) 0.8437(5)
C24_4 C 0.5101(5) 0.9144(9) 0.0879(7)
H22_4 H 0.5482 0.9509 0.1146
H23_4 H 0.5049 0.8518 0.1199
H24_4 H 0.5035 0.8615 0.0450
H27_4 H 0.7124 0.9611 0.1622
C27_4 C 0.7021(6) 0.9270(10) 0.2811(8)
H29_4 H 0.6799 0.9420 0.3031
H30_4 H 0.6899 0.8401 0.2520
H31_4 H 0.7414 0.9185 0.3198
C28_4 C 0.4125(5) 0.9883(13) 0.0244(9)
H34_4 H 0.4052 0.9292 0.0557
H16_4 H 0.5963 0.0649 0.0194
H33_4 H 0.4037 0.9351 0.9806
loop_
_geom_bond_atom_site_label_1
_geom_bond_atom_site_label_2
_geom_bond_site_symmetry_1
_geom_bond_site_symmetry_2
Yb1 O1 1_555 1_555
C1 O1 1_555 1_555
N1 C5 1_555 1_555
O2 Yb1 1_555 1_555
O3 Yb1 1_555 1_555
O4 C1 1_555 1_555
C2 C1 1_555 1_555
C3 C2 1_555 1_555
H1 C3 1_555 1_555
C4 C2 1_555 1_555
C5 C3 1_555 1_555
N3 C7 1_555 1_555
C6 C5 1_555 1_555
H3 C6 1_555 1_555
C7 O3 1_555 1_555
H4 C7 1_555 1_555
C8 H5 1_555 1_555
H6 C8 1_555 1_555
H7 C8 1_555 1_555
C9 N3 1_555 1_555
H8 C9 1_555 1_555
H9 C9 1_555 1_555
H10 C9 1_555 1_555
C11 N3 1_555 1_555
H12 C11 1_555 1_555
H13 C11 1_555 1_555
H14 C11 1_555 1_555
C13 C4 1_555 1_555
C15 O10 1_555 1_555
N5 N1 1_555 1_555
O10 Yb6 1_555 1_555
O11 C15 1_555 1_555
C16 C15 1_555 1_555
C17 C16 1_555 1_555
H18 C17 1_555 1_555
C18 C16 1_555 1_555
H19 C18 1_555 1_555
C19 N5 1_555 1_555
C20 C19 1_555 1_555
H20 C20 1_555 1_555
O12 C22 1_555 1_555
O13 C22 1_555 1_555
C21 C18 1_555 1_555
C22 C21 1_555 1_555
Yb3 O11 1_555 1_555
Yb4 O12 1_555 1_555
O22 Yb1 1_555 1_555
C6 C13 1_555 1_555
C17 C19 1_555 1_555
C20 C21 1_555 1_555
O13 Yb4 1_555 1_555
N4 O5 1_555 1_555
O7 N4 1_555 1_555
O8 C14 1_555 1_555
H28 C26 1_555 1_555
C28 N6 1_555 1_555
H32 C28 1_555 1_555
H33 C28 1_555 1_555
H34 C28 1_555 1_555
Yb5 O8 1_555 1_555
O6 N4 1_555 1_555
N6 C26 1_555 1_555
H11 C10 1_555 1_555
C12 N2 1_555 1_555
H15 C12 1_555 1_555
H16 C12 1_555 1_555
H17 C12 1_555 1_555
N8 O16 1_555 1_555
O18 N8 1_555 1_555
N2 C10 1_555 1_555
O17 N8 1_555 1_555
O14 Yb2 1_555 1_555
O15 Yb2 1_555 1_555
N7 C23 1_555 1_555
C23 O15 1_555 1_555
H21 C23 1_555 1_555
C24 H22 1_555 1_555
H23 C24 1_555 1_555
H24 C24 1_555 1_555
C25 N7 1_555 1_555
H25 C25 1_555 1_555
H26 C25 1_555 1_555
H27 C25 1_555 1_555
C27 N7 1_555 1_555
H29 C27 1_555 1_555
H30 C27 1_555 1_555
H31 C27 1_555 1_555
O19 Yb2 1_555 1_555
O21 Yb2 1_555 1_555
N8_2 O16_2 1_555 1_555
O18_2 N8_2 1_555 1_555
O17_2 N8_2 1_555 1_555
H11_2 C10_2 1_555 1_555
C12_2 N2_2 1_555 1_555
H15_2 C12_2 1_555 1_555
H17_2 C12_2 1_555 1_555
N2_2 C10_2 1_555 1_555
O14_2 Yb5 1_555 1_555
O15_2 Yb5 1_555 1_555
N7_2 C23_2 1_555 1_555
C23_2 O15_2 1_555 1_555
H21_2 C23_2 1_555 1_555
C24_2 H22_2 1_555 1_555
H23_2 C24_2 1_555 1_555
H24_2 C24_2 1_555 1_555
C25_2 N7_2 1_555 1_555
H25_2 C25_2 1_555 1_555
H26_2 C25_2 1_555 1_555
H27_2 C25_2 1_555 1_555
C27_2 N7_2 1_555 1_555
H29_2 C27_2 1_555 1_555
H30_2 C27_2 1_555 1_555
H31_2 C27_2 1_555 1_555
O19_2 Yb5 1_555 1_555
O4_2 C1_2 1_555 1_555
C2_2 C1_2 1_555 1_555
C3_2 C2_2 1_555 1_555
C4_2 C2_2 1_555 1_555
C5_2 C3_2 1_555 1_555
C6_2 C5_2 1_555 1_555
H3_2 C6_2 1_555 1_555
C13_2 C4_2 1_555 1_555
O10_2 Yb6_2 1_555 1_555
C6_2 C13_2 1_555 1_555
Yb1_2 O1_2 1_555 1_555
O2_2 Yb1_2 1_555 1_555
O3_2 Yb1_2 1_555 1_555
N3_2 C7_2 1_555 1_555
C7_2 O3_2 1_555 1_555
H4_2 C7_2 1_555 1_555
C8_2 H5_2 1_555 1_555
H6_2 C8_2 1_555 1_555
H7_2 C8_2 1_555 1_555
C9_2 N3_2 1_555 1_555
H8_2 C9_2 1_555 1_555
H9_2 C9_2 1_555 1_555
H10_2 C9_2 1_555 1_555
C11_2 N3_2 1_555 1_555
H12_2 C11_2 1_555 1_555
H13_2 C11_2 1_555 1_555
H14_2 C11_2 1_555 1_555
O11_2 C15_2 1_555 1_555
C16_2 C15_2 1_555 1_555
C17_2 C16_2 1_555 1_555
C18_2 C16_2 1_555 1_555
H19_2 C18_2 1_555 1_555
C20_2 C19_2 1_555 1_555
H20_2 C20_2 1_555 1_555
O12_2 C22_2 1_555 1_555
O13_2 C22_2 1_555 1_555
C21_2 C18_2 1_555 1_555
C22_2 C21_2 1_555 1_555
Yb4 O11_2 1_555 1_555
Yb3 O12_2 1_555 1_555
O22_2 Yb1_2 1_555 1_555
C17_2 C19_2 1_555 1_555
C20_2 C21_2 1_555 1_555
O13_2 Yb3 1_555 1_555
O21 C14_2 1_555 1_555
H28_2 C26_2 1_555 1_555
C28_2 N6_2 1_555 1_555
H32_2 C28_2 1_555 1_555
H34_2 C28_2 1_555 1_555
N6_2 C26_2 1_555 1_555
N4_2 O5_2 1_555 1_555
O7_2 N4_2 1_555 1_555
O6_2 N4_2 1_555 1_555
C8_3 H5_3 1_555 1_555
H6_3 C8_3 1_555 1_555
H7_3 C8_3 1_555 1_555
H12_3 C11_3 1_555 1_555
H13_3 C11_3 1_555 1_555
H14_3 C11_3 1_555 1_555
H16_3 C12_3 1_555 1_555
H17_3 C12_3 1_555 1_555
O22_2 C22_3 1_555 1_555
Yb3 O1_3 1_555 1_555
C1_3 O1_3 1_555 1_555
N1_3 C5_3 1_555 1_555
O2_3 Yb3 1_555 1_555
O3_3 Yb3 1_555 1_555
O4_3 C1_3 1_555 1_555
C2_3 C1_3 1_555 1_555
O5_3 Yb3 1_555 1_555
C3_3 C2_3 1_555 1_555
H1_3 C3_3 1_555 1_555
C4_3 C2_3 1_555 1_555
H2_3 C4_3 1_555 1_555
C5_3 C3_3 1_555 1_555
N3_3 C7_3 1_555 1_555
C6_3 C5_3 1_555 1_555
H3_3 C6_3 1_555 1_555
O6_3 Yb3 1_555 1_555
C7_3 O3_3 1_555 1_555
H4_3 C7_3 1_555 1_555
N4_3 O5_3 1_555 1_555
C9_3 N3_3 1_555 1_555
H8_3 C9_3 1_555 1_555
H9_3 C9_3 1_555 1_555
C10_3 O2_3 1_555 1_555
H11_3 C10_3 1_555 1_555
O7_3 N4_3 1_555 1_555
O8_2 C14_3 1_555 1_555
O9_2 C14_3 1_555 1_555
C13_3 C4_3 1_555 1_555
C14_3 C13_3 1_555 1_555
C15_3 O19 1_555 1_555
N5_3 N1_3 1_555 1_555
O20 C15_3 1_555 1_555
C16_3 C15_3 1_555 1_555
C17_3 C16_3 1_555 1_555
H18_3 C17_3 1_555 1_555
C18_3 C16_3 1_555 1_555
C19_3 N5_3 1_555 1_555
C20_3 C19_3 1_555 1_555
H20_3 C20_3 1_555 1_555
C21_3 C18_3 1_555 1_555
Yb6 O4_3 1_555 1_555
O14_3 Yb6 1_555 1_555
O15_3 Yb6 1_555 1_555
O16_3 Yb6 1_555 1_555
N7_3 C23_3 1_555 1_555
O17_3 Yb6 1_555 1_555
C23_3 O15_3 1_555 1_555
H21_3 C23_3 1_555 1_555
N8_3 O16_3 1_555 1_555
C25_3 N7_3 1_555 1_555
H25_3 C25_3 1_555 1_555
H26_3 C25_3 1_555 1_555
C26_3 O14_3 1_555 1_555
H28_3 C26_3 1_555 1_555
O18_3 N8_3 1_555 1_555
Yb6_2 O8_2 1_555 1_555
O21_2 Yb6 1_555 1_555
O23_2 Yb6 1_555 1_555
N2_3 C10_3 1_555 1_555
C6_3 C13_3 1_555 1_555
O6_3 N4_3 1_555 1_555
O9_2 Yb6_2 1_555 1_555
C17_3 C19_3 1_555 1_555
C20_3 C21_3 1_555 1_555
N6_3 C26_3 1_555 1_555
O17_3 N8_3 1_555 1_555
C24_3 H22_3 1_555 1_555
H23_3 C24_3 1_555 1_555
H24_3 C24_3 1_555 1_555
H29_3 C27_3 1_555 1_555
H30_3 C27_3 1_555 1_555
H31_3 C27_3 1_555 1_555
H33_3 C28_3 1_555 1_555
H34_3 C28_3 1_555 1_555
C8_4 H5_4 1_555 1_555
H6_4 C8_4 1_555 1_555
H7_4 C8_4 1_555 1_555
H12_4 C11_4 1_555 1_555
H13_4 C11_4 1_555 1_555
H14_4 C11_4 1_555 1_555
H17_4 C12_4 1_555 1_555
O22 C22_4 1_555 1_555
O4_4 C1_4 1_555 1_555
C2_4 C1_4 1_555 1_555
C3_4 C2_4 1_555 1_555
C4_4 C2_4 1_555 1_555
H2_4 C4_4 1_555 1_555
C5_4 C3_4 1_555 1_555
C6_4 C5_4 1_555 1_555
H3_4 C6_4 1_555 1_555
O21_2 C14_4 1_555 1_555
O23_2 C14_4 1_555 1_555
C13_4 C4_4 1_555 1_555
C14_4 C13_4 1_555 1_555
Yb6_2 O4_4 1_555 1_555
O14_4 Yb6_2 1_555 1_555
O15_4 Yb6_2 1_555 1_555
O16_4 Yb6_2 1_555 1_555
N7_4 C23_4 1_555 1_555
O17_4 Yb6_2 1_555 1_555
C23_4 O15_4 1_555 1_555
H21_4 C23_4 1_555 1_555
N8_4 O16_4 1_555 1_555
C25_4 N7_4 1_555 1_555
H25_4 C25_4 1_555 1_555
H26_4 C25_4 1_555 1_555
C26_4 O14_4 1_555 1_555
H28_4 C26_4 1_555 1_555
O18_4 N8_4 1_555 1_555
C6_4 C13_4 1_555 1_555
N6_4 C26_4 1_555 1_555
O17_4 N8_4 1_555 1_555
Yb4 O1_4 1_555 1_555
O2_4 Yb4 1_555 1_555
O3_4 Yb4 1_555 1_555
O5_4 Yb4 1_555 1_555
N3_4 C7_4 1_555 1_555
O6_4 Yb4 1_555 1_555
C7_4 O3_4 1_555 1_555
H4_4 C7_4 1_555 1_555
N4_4 O5_4 1_555 1_555
C9_4 N3_4 1_555 1_555
H8_4 C9_4 1_555 1_555
H9_4 C9_4 1_555 1_555
C10_4 O2_4 1_555 1_555
H11_4 C10_4 1_555 1_555
O7_4 N4_4 1_555 1_555
O20_2 C15_4 1_555 1_555
C16_4 C15_4 1_555 1_555
C17_4 C16_4 1_555 1_555
C18_4 C16_4 1_555 1_555
C20_4 C19_4 1_555 1_555
H20_4 C20_4 1_555 1_555
C21_4 C18_4 1_555 1_555
N2_4 C10_4 1_555 1_555
O6_4 N4_4 1_555 1_555
C17_4 C19_4 1_555 1_555
C20_4 C21_4 1_555 1_555
C24_4 H22_4 1_555 1_555
H23_4 C24_4 1_555 1_555
H24_4 C24_4 1_555 1_555
H29_4 C27_4 1_555 1_555
H30_4 C27_4 1_555 1_555
H31_4 C27_4 1_555 1_555
H34_4 C28_4 1_555 1_555

#END
