
###############################################################################
#
# This file contains modified crystal structure data generated from the
# MOF subset of the Cambridge Structural Database (CSD) v543 
# hosted by the Cambridge Crystallographic Data Centre (CCDC).
#
# This work is licensed under the Creative Commons
# Attribution-NonCommercial-ShareAlike 4.0 International License.
# To view a copy of this license, visit
# http://creativecommons.org/licenses/by-nc-sa/4.0/
# or send a letter to
# Creative Commons, PO Box 1866, Mountain View, CA 94042, USA.
#
# CIF created using the CSD Python API on 29 September 2022
# The structure has been converted into the P1 space group
# The structure has a 3D framework
# The original CSD entry KIKTIK is in the monoclinic crystal system
# The framework has been calculated to contain at least 10.0% void space
# The void calculation uses a probe of radius 1.32A, grid spacing 0.4
# The framework is charged, counterions have been retained in the structure
#
###############################################################################

data_KIKTIK
_chemical_formula_moiety         '(C240 H96 Cd3 N16 O93 8-)n'
_symmetry_cell_setting           triclinic
_symmetry_space_group_name_H-M   'P 1'
_symmetry_Int_Tables_number      1
_space_group_name_Hall           'P 1'
loop_
_symmetry_equiv_pos_site_id
_symmetry_equiv_pos_as_xyz
1 x,y,z
_cell_length_a                   23.1270(12)
_cell_length_b                   23.1401(9)
_cell_length_c                   18.6690(9)
_cell_angle_alpha                90
_cell_angle_beta                 123.083(2)
_cell_angle_gamma                90
_cell_volume                     8371.2
loop_
_atom_site_label
_atom_site_type_symbol
_atom_site_fract_x
_atom_site_fract_y
_atom_site_fract_z
O15 O 0.19366(15) 0.25524(17) 0.1080(3)
H13 H 0.2270 0.2728 0.1467
O16 O 0.13811(12) 0.30755(11) 0.14689(16)
C32 C 0.14120(17) 0.26844(15) 0.1068(2)
C35 C 0.07756(13) 0.23351(11) 0.04734(17)
C36 C 0.01913(14) 0.24258(11) 0.04891(17)
H15 H 0.0199 0.2701 0.0858
N4 N 0.14535(10) 0.46064(9) 0.49579(14)
O19 O 0.40410(8) 0.49403(8) 0.68597(11)
O20 O 0.44286(9) 0.47369(8) 0.60346(13)
O21 O 0.28981(9) 0.36804(9) 0.33042(12)
O22 O 0.17790(9) 0.36344(11) 0.27988(14)
H19 H 0.1755 0.3504 0.2375
O23 O 0.15970(10) 0.55465(9) 0.47318(16)
O24 O 0.12734(10) 0.36709(9) 0.50988(16)
C46 C 0.39715(13) 0.47378(10) 0.61895(17)
C47 C 0.24225(13) 0.37784(11) 0.33762(17)
C48 C 0.32613(11) 0.45124(11) 0.55099(15)
C49 C 0.31614(12) 0.42353(10) 0.47954(16)
H20 H 0.3536 0.4164 0.4751
C50 C 0.25054(12) 0.40619(11) 0.41431(16)
C51 C 0.19458(13) 0.41787(11) 0.42065(18)
H21 H 0.1504 0.4068 0.3770
C52 C 0.20467(12) 0.44586(11) 0.49146(17)
C53 C 0.27009(11) 0.46196(11) 0.55703(16)
H22 H 0.2765 0.4800 0.6054
C54 C 0.12661(14) 0.51918(13) 0.4843(2)
C55 C 0.06653(13) 0.53545(11) 0.4883(2)
C56 C 0.02951(12) 0.49225(11) 0.49925(17)
C57 C 0.04903(13) 0.43382(11) 0.50892(19)
C58 C 0.10946(14) 0.41651(12) 0.50580(19)
C59 C 0.04658(15) 0.59161(13) 0.4796(2)
H23 H 0.0717 0.6200 0.4729
C60 C 0.01183(15) 0.39290(12) 0.5194(2)
H24 H 0.0252 0.3544 0.5259
Cd2 Cd 0.5000 0.548448(11) 0.7500
O19_2 O 0.59590(8) 0.49403(8) 0.81403(11)
O20_2 O 0.55714(9) 0.47369(8) 0.89654(13)
O24_2 O 0.87266(10) 0.36709(9) 0.99012(16)
C46_2 C 0.60285(13) 0.47378(10) 0.88105(17)
C48_2 C 0.67387(11) 0.45124(11) 0.94901(15)
C53_2 C 0.72991(11) 0.46196(11) 0.94297(16)
H22_2 H 0.7235 0.4800 0.8946
C57_2 C 0.95097(13) 0.43382(11) 0.99108(19)
C58_2 C 0.89054(14) 0.41651(12) 0.99420(19)
C60_2 C 0.98817(15) 0.39290(12) 0.9806(2)
H24_2 H 0.9748 0.3544 0.9741
O6 O 0.04649(11) 0.81164(10) 0.86634(14)
C11 C 0.21984(12) 0.75556(10) 0.99982(17)
C12 C 0.16042(14) 0.77728(11) 0.92652(18)
C13 C 0.09773(15) 0.79060(12) 0.9267(2)
C15 C 0.16060(15) 0.78807(12) 0.85405(19)
H7 H 0.1211 0.8024 0.8052
N3 N 0.39875(11) 0.72204(9) 0.99710(14)
O13 O 0.45987(8) 0.58732(7) 0.83347(11)
O14 O 0.55964(10) 0.61810(8) 0.86205(13)
O17 O 0.34545(10) 0.75967(8) 0.86318(13)
C31 C 0.51136(12) 0.61903(10) 0.87338(16)
C33 C 0.51548(12) 0.66115(10) 0.93792(16)
C34 C 0.57510(13) 0.69311(11) 0.99057(17)
H14 H 0.6136 0.6874 0.9878
C37 C 0.45964(13) 0.71127(10) 0.99627(17)
C38 C 0.45758(13) 0.67026(10) 0.94128(16)
H16 H 0.4177 0.6488 0.9066
C39 C 0.34186(14) 0.74733(11) 0.92382(19)
C40 C 0.27871(13) 0.75689(11) 0.92508(18)
C44 C 0.22034(15) 0.77746(13) 0.85382(19)
H17 H 0.2200 0.7845 0.8046
Cd1 Cd 1.0000 0.951552(11) 0.2500
O2 O 0.94036(10) 0.88190(8) 0.13795(13)
C1 C 0.98864(12) 0.88097(10) 0.12662(16)
C3 C 0.98452(12) 0.83885(10) 0.06208(16)
C4 C 0.92490(13) 0.80689(11) 0.00943(17)
H3 H 0.8864 0.8126 0.0122
O25 O 0.95987(8) 0.91268(7) 0.33347(11)
N1 N 0.89875(11) 0.77796(9) 0.49710(14)
O5 O 0.84545(10) 0.74033(8) 0.36318(13)
O6_2 O 0.95351(11) 0.81164(10) 0.63366(14)
C7 C 0.95964(13) 0.78873(10) 0.49627(17)
C8 C 0.95758(13) 0.82974(10) 0.44128(16)
H5 H 0.9177 0.8512 0.4066
C9 C 0.84186(14) 0.75267(11) 0.42382(19)
C10 C 0.77871(13) 0.74311(11) 0.42508(18)
C11_2 C 0.78016(12) 0.75556(10) 0.50018(17)
C12_2 C 0.83958(14) 0.77728(11) 0.57348(18)
C13_2 C 0.90227(15) 0.79060(12) 0.5733(2)
C14 C 0.72034(15) 0.72254(13) 0.35382(19)
H6 H 0.7200 0.7155 0.3046
C15_2 C 0.83940(15) 0.78807(12) 0.64595(19)
H7_2 H 0.8789 0.8024 0.6948
N3_2 N 0.60125(11) 0.72204(9) 0.50290(14)
O13_2 O 0.54013(8) 0.58732(7) 0.66653(11)
O14_2 O 0.44036(10) 0.61810(8) 0.63795(13)
O15_2 O 0.30634(15) 0.75524(17) 0.3920(3)
H13_2 H 0.2730 0.7728 0.3533
O16_2 O 0.36189(12) 0.80755(11) 0.35311(16)
O17_2 O 0.65455(10) 0.75967(8) 0.63682(13)
O18 O 0.54649(11) 0.68836(10) 0.36634(14)
C31_2 C 0.48864(12) 0.61903(10) 0.62662(16)
C32_2 C 0.35880(17) 0.76844(15) 0.3932(2)
C33_2 C 0.48452(12) 0.66115(10) 0.56208(16)
C34_2 C 0.42490(13) 0.69311(11) 0.50943(17)
H14_2 H 0.3864 0.6874 0.5122
C35_2 C 0.42244(13) 0.73351(11) 0.45266(17)
C36_2 C 0.48087(14) 0.74258(11) 0.45109(17)
H15_2 H 0.4801 0.7701 0.4142
C37_2 C 0.54036(13) 0.71127(10) 0.50373(17)
C38_2 C 0.54242(13) 0.67026(10) 0.55872(16)
H16_2 H 0.5823 0.6488 0.5934
C39_2 C 0.65814(14) 0.74733(11) 0.57618(19)
C40_2 C 0.72129(13) 0.75689(11) 0.57492(18)
C41 C 0.71984(12) 0.74444(10) 0.49982(17)
C42 C 0.66042(14) 0.72272(11) 0.42652(18)
C43 C 0.59773(15) 0.70940(12) 0.4267(2)
C44_2 C 0.77966(15) 0.77746(13) 0.64618(19)
H17_2 H 0.7800 0.7845 0.6954
C45 C 0.66060(15) 0.71193(12) 0.35405(19)
H18 H 0.6211 0.6976 0.3052
N4_2 N 0.35465(10) 0.96064(9) 0.00421(14)
O21_2 O 0.21019(9) 0.86804(9) 0.16958(12)
O22_2 O 0.32210(9) 0.86344(11) 0.22012(14)
H19_2 H 0.3245 0.8504 0.2625
C47_2 C 0.25775(13) 0.87784(11) 0.16238(17)
C49_2 C 0.18386(12) 0.92353(10) 0.02046(16)
H20_2 H 0.1464 0.9164 0.0249
C50_2 C 0.24946(12) 0.90619(11) 0.08569(16)
C51_2 C 0.30542(13) 0.91787(11) 0.07935(18)
H21_2 H 0.3496 0.9068 0.1230
C52_2 C 0.29533(12) 0.94586(11) 0.00854(17)
C56_2 C 0.47049(12) 0.99225(11) 0.00075(17)
O14_3 O 0.05964(10) 0.11810(8) 0.86205(13)
C31_3 C 0.01136(12) 0.11903(10) 0.87338(16)
C33_3 C 0.01548(12) 0.16115(10) 0.93792(16)
C34_3 C 0.07510(13) 0.19311(11) 0.99057(17)
H14_3 H 0.1136 0.1874 0.9878
Cd3 Cd 0.0000 0.048448(11) 0.7500
Cd1_2 Cd 0.5000 0.451552(11) 0.2500
N1_2 N 0.60125(11) 0.27796(9) 0.00290(14)
N2 N 0.85465(10) 0.53936(9) 0.50421(14)
O1 O 0.54013(8) 0.41268(7) 0.16653(11)
O2_2 O 0.44036(10) 0.38190(8) 0.13795(13)
O5_2 O 0.65455(10) 0.24033(8) 0.13682(13)
O7 O 0.59590(8) 0.50597(8) 0.31403(11)
O8 O 0.55714(9) 0.52631(8) 0.39654(13)
O9 O 0.71019(9) 0.63196(9) 0.66958(12)
O10 O 0.82210(9) 0.63656(11) 0.72012(14)
H2 H 0.8245 0.6496 0.7625
O11 O 0.84030(10) 0.44535(9) 0.52682(16)
O12 O 0.87266(10) 0.63291(9) 0.49012(16)
C1_2 C 0.48864(12) 0.38097(10) 0.12662(16)
C3_2 C 0.48452(12) 0.33885(10) 0.06208(16)
C4_2 C 0.42490(13) 0.30689(11) 0.00943(17)
H3_2 H 0.3864 0.3126 0.0122
C7_2 C 0.54036(13) 0.28873(10) 0.00373(17)
C8_2 C 0.54242(13) 0.32974(10) 0.05872(16)
H5_2 H 0.5823 0.3512 0.0934
C9_2 C 0.65814(14) 0.25267(11) 0.07618(19)
C10_2 C 0.72129(13) 0.24311(11) 0.07492(18)
C14_2 C 0.77966(15) 0.22254(13) 0.14618(19)
H6_2 H 0.7800 0.2155 0.1954
C16 C 0.60285(13) 0.52622(10) 0.38105(17)
C17 C 0.75775(13) 0.62216(11) 0.66238(17)
C18 C 0.67387(11) 0.54876(11) 0.44901(15)
C19 C 0.68386(12) 0.57647(10) 0.52046(16)
H8 H 0.6464 0.5836 0.5249
C20 C 0.74946(12) 0.59381(11) 0.58569(16)
C21 C 0.80542(13) 0.58213(11) 0.57935(18)
H9 H 0.8496 0.5932 0.6230
C22 C 0.79533(12) 0.55414(11) 0.50854(17)
C23 C 0.72991(11) 0.53804(11) 0.44297(16)
H10 H 0.7235 0.5200 0.3946
C24 C 0.87339(14) 0.48082(13) 0.5157(2)
C25 C 0.93347(13) 0.46455(11) 0.5117(2)
C26 C 0.97049(12) 0.50775(11) 0.50075(17)
C27 C 0.95097(13) 0.56618(11) 0.49108(19)
C28 C 0.89054(14) 0.58349(12) 0.49420(19)
C29 C 0.95342(15) 0.40839(13) 0.5204(2)
H11 H 0.9283 0.3800 0.5271
C30 C 0.98817(15) 0.60710(12) 0.4806(2)
H12 H 0.9748 0.6456 0.4741
O18_2 O 0.95351(11) 0.18836(10) 0.13366(14)
C41_2 C 0.78016(12) 0.24444(10) 0.00018(17)
C42_2 C 0.83958(14) 0.22272(11) 0.07348(18)
C43_2 C 0.90227(15) 0.20940(12) 0.0733(2)
C45_2 C 0.83940(15) 0.21193(12) 0.14595(19)
H18_2 H 0.8789 0.1976 0.1948
O25_2 O 0.45987(8) 0.41268(7) 0.33347(11)
O26 O 0.55964(10) 0.38190(8) 0.36205(13)
O27 O 0.40410(8) 0.50597(8) 0.18597(11)
N1_3 N 0.39875(11) 0.27796(9) 0.49710(14)
O3 O 0.69366(15) 0.24476(17) 0.6080(3)
H1 H 0.7270 0.2272 0.6467
O4 O 0.63811(12) 0.19245(11) 0.64689(16)
O5_3 O 0.34545(10) 0.24033(8) 0.36318(13)
O6_3 O 0.45351(11) 0.31164(10) 0.63366(14)
O8_2 O 0.44286(9) 0.52631(8) 0.10346(13)
O12_2 O 0.12734(10) 0.63291(9) 0.00988(16)
C1_3 C 0.51136(12) 0.38097(10) 0.37338(16)
C2 C 0.64120(17) 0.23156(15) 0.6068(2)
C3_3 C 0.51548(12) 0.33885(10) 0.43792(16)
C4_3 C 0.57510(13) 0.30689(11) 0.49057(17)
H3_3 H 0.6136 0.3126 0.4878
C5 C 0.57756(13) 0.26649(11) 0.54734(17)
C6 C 0.51913(14) 0.25742(11) 0.54891(17)
H4 H 0.5199 0.2299 0.5858
C7_3 C 0.45964(13) 0.28873(10) 0.49627(17)
C8_3 C 0.45758(13) 0.32974(10) 0.44128(16)
H5_3 H 0.4177 0.3512 0.4066
C9_3 C 0.34186(14) 0.25267(11) 0.42382(19)
C10_3 C 0.27871(13) 0.24311(11) 0.42508(18)
C11_3 C 0.28016(12) 0.25556(10) 0.50018(17)
C12_3 C 0.33958(14) 0.27728(11) 0.57348(18)
C13_3 C 0.40227(15) 0.29060(12) 0.5733(2)
C14_3 C 0.22034(15) 0.22254(13) 0.35382(19)
H6_3 H 0.2200 0.2155 0.3046
C15_3 C 0.33940(15) 0.28807(12) 0.64595(19)
H7_3 H 0.3789 0.3024 0.6948
C16_2 C 0.39715(13) 0.52622(10) 0.11895(17)
C18_2 C 0.32613(11) 0.54876(11) 0.05099(15)
C23_2 C 0.27009(11) 0.53804(11) 0.05703(16)
H10_2 H 0.2765 0.5200 0.1054
C27_2 C 0.04903(13) 0.56618(11) 0.00892(19)
C28_2 C 0.10946(14) 0.58349(12) 0.00580(19)
C30_2 C 0.01183(15) 0.60710(12) 0.0194(2)
H12_2 H 0.0252 0.6456 0.0259
N3_3 N 0.10125(11) 0.22204(9) 0.50290(14)
O13_3 O 0.04013(8) 0.08732(7) 0.66653(11)
O17_3 O 0.15455(10) 0.25967(8) 0.63682(13)
O18_3 O 0.04649(11) 0.18836(10) 0.36634(14)
C37_3 C 0.04036(13) 0.21127(10) 0.50373(17)
C38_3 C 0.04242(13) 0.17026(10) 0.55872(16)
H16_3 H 0.0823 0.1488 0.5934
C39_3 C 0.15814(14) 0.24733(11) 0.57618(19)
C40_3 C 0.22129(13) 0.25689(11) 0.57492(18)
C41_3 C 0.21984(12) 0.24444(10) 0.49982(17)
C42_3 C 0.16042(14) 0.22272(11) 0.42652(18)
C43_3 C 0.09773(15) 0.20940(12) 0.4267(2)
C44_3 C 0.27966(15) 0.27746(13) 0.64618(19)
H17_3 H 0.2800 0.2845 0.6954
C45_3 C 0.16060(15) 0.21193(12) 0.35405(19)
H18_3 H 0.1211 0.1976 0.3052
O3_2 O 0.80634(15) 0.74476(17) 0.8920(3)
H1_2 H 0.7730 0.7272 0.8533
O4_2 O 0.86189(12) 0.69245(11) 0.85311(16)
C2_2 C 0.85880(17) 0.73156(15) 0.8932(2)
C5_2 C 0.92244(13) 0.76649(11) 0.95266(17)
C6_2 C 0.98087(14) 0.75742(11) 0.95109(17)
H4_2 H 0.9801 0.7299 0.9142
N2_2 N 0.64535(10) 0.03936(9) 0.99579(14)
O9_2 O 0.78981(9) 0.13196(9) 0.83042(12)
O10_2 O 0.67790(9) 0.13656(11) 0.77988(14)
H2_2 H 0.6755 0.1496 0.7375
C17_2 C 0.74225(13) 0.12216(11) 0.83762(17)
C19_2 C 0.81614(12) 0.07647(10) 0.97954(16)
H8_2 H 0.8536 0.0836 0.9751
C20_2 C 0.75054(12) 0.09381(11) 0.91431(16)
C21_2 C 0.69458(13) 0.08213(11) 0.92065(18)
H9_2 H 0.6504 0.0932 0.8770
C22_2 C 0.70467(12) 0.05414(11) 0.99146(17)
C26_2 C 0.52951(12) 0.00775(11) 0.99925(17)
O3_3 O 0.30634(15) 0.24476(17) 0.8920(3)
H1_3 H 0.2730 0.2272 0.8533
O4_3 O 0.36189(12) 0.19245(11) 0.85311(16)
O6_4 O 0.54649(11) 0.31164(10) 0.86634(14)
C2_3 C 0.35880(17) 0.23156(15) 0.8932(2)
C5_3 C 0.42244(13) 0.26649(11) 0.95266(17)
C6_3 C 0.48087(14) 0.25742(11) 0.95109(17)
H4_3 H 0.4801 0.2299 0.9142
C11_4 C 0.71984(12) 0.25556(10) 0.99982(17)
C12_4 C 0.66042(14) 0.27728(11) 0.92652(18)
C13_4 C 0.59773(15) 0.29060(12) 0.9267(2)
C15_4 C 0.66060(15) 0.28807(12) 0.85405(19)
H7_4 H 0.6211 0.3024 0.8052
N3_4 N 0.89875(11) 0.22204(9) 0.99710(14)
O13_4 O 0.95987(8) 0.08732(7) 0.83347(11)
O17_4 O 0.84545(10) 0.25967(8) 0.86318(13)
C37_4 C 0.95964(13) 0.21127(10) 0.99627(17)
C38_4 C 0.95758(13) 0.17026(10) 0.94128(16)
H16_4 H 0.9177 0.1488 0.9066
C39_4 C 0.84186(14) 0.24733(11) 0.92382(19)
C40_4 C 0.77871(13) 0.25689(11) 0.92508(18)
C44_4 C 0.72034(15) 0.27746(13) 0.85382(19)
H17_4 H 0.7200 0.2845 0.8046
Cd3_2 Cd 1.0000 0.048448(11) 0.7500
O14_4 O 0.94036(10) 0.11810(8) 0.63795(13)
O15_3 O 0.80634(15) 0.25524(17) 0.3920(3)
H13_3 H 0.7730 0.2728 0.3533
O16_3 O 0.86189(12) 0.30755(11) 0.35311(16)
C31_4 C 0.98864(12) 0.11903(10) 0.62662(16)
C32_3 C 0.85880(17) 0.26844(15) 0.3932(2)
C33_4 C 0.98452(12) 0.16115(10) 0.56208(16)
C34_4 C 0.92490(13) 0.19311(11) 0.50943(17)
H14_4 H 0.8864 0.1874 0.5122
C35_3 C 0.92244(13) 0.23351(11) 0.45266(17)
C36_3 C 0.98087(14) 0.24258(11) 0.45109(17)
H15_3 H 0.9801 0.2701 0.4142
N4_3 N 0.85465(10) 0.46064(9) 0.00421(14)
O21_3 O 0.71019(9) 0.36804(9) 0.16958(12)
O22_3 O 0.82210(9) 0.36344(11) 0.22012(14)
H19_3 H 0.8245 0.3504 0.2625
O23_2 O 0.84030(10) 0.55465(9) 0.02682(16)
C47_3 C 0.75775(13) 0.37784(11) 0.16238(17)
C49_3 C 0.68386(12) 0.42353(10) 0.02046(16)
H20_3 H 0.6464 0.4164 0.0249
C50_3 C 0.74946(12) 0.40619(11) 0.08569(16)
C51_3 C 0.80542(13) 0.41787(11) 0.07935(18)
H21_3 H 0.8496 0.4068 0.1230
C52_3 C 0.79533(12) 0.44586(11) 0.00854(17)
C54_2 C 0.87339(14) 0.51918(13) 0.0157(2)
C55_2 C 0.93347(13) 0.53545(11) 0.0117(2)
C56_3 C 0.97049(12) 0.49225(11) 0.00075(17)
C59_2 C 0.95342(15) 0.59161(13) 0.0204(2)
H23_2 H 0.9283 0.6200 0.0271
N2_3 N 0.35465(10) 0.03936(9) 0.50421(14)
O7_2 O 0.09590(8) 0.00597(8) 0.31403(11)
O8_3 O 0.05714(9) 0.02631(8) 0.39654(13)
O9_3 O 0.21019(9) 0.13196(9) 0.66958(12)
O10_3 O 0.32210(9) 0.13656(11) 0.72012(14)
H2_3 H 0.3245 0.1496 0.7625
O12_3 O 0.37266(10) 0.13291(9) 0.49012(16)
C16_3 C 0.10285(13) 0.02622(10) 0.38105(17)
C17_3 C 0.25775(13) 0.12216(11) 0.66238(17)
C18_3 C 0.17387(11) 0.04876(11) 0.44901(15)
C19_3 C 0.18386(12) 0.07647(10) 0.52046(16)
H8_3 H 0.1464 0.0836 0.5249
C20_3 C 0.24946(12) 0.09381(11) 0.58569(16)
C21_3 C 0.30542(13) 0.08213(11) 0.57935(18)
H9_3 H 0.3496 0.0932 0.6230
C22_3 C 0.29533(12) 0.05414(11) 0.50854(17)
C23_3 C 0.22991(11) 0.03804(11) 0.44297(16)
H10_3 H 0.2235 0.0200 0.3946
C26_3 C 0.47049(12) 0.00775(11) 0.50075(17)
C27_3 C 0.45097(13) 0.06618(11) 0.49108(19)
C28_3 C 0.39054(14) 0.08349(12) 0.49420(19)
C30_3 C 0.48817(15) 0.10710(12) 0.4806(2)
H12_3 H 0.4748 0.1456 0.4741
O23_3 O 0.65970(10) 0.05465(9) 0.47318(16)
C54_3 C 0.62661(14) 0.01918(13) 0.4843(2)
C55_3 C 0.56653(13) 0.03545(11) 0.4883(2)
C59_3 C 0.54658(15) 0.09161(13) 0.4796(2)
H23_3 H 0.5717 0.1200 0.4729
N2_4 N 0.14535(10) 0.53936(9) 0.99579(14)
O9_4 O 0.28981(9) 0.63196(9) 0.83042(12)
O10_4 O 0.17790(9) 0.63656(11) 0.77988(14)
H2_4 H 0.1755 0.6496 0.7375
O11_2 O 0.15970(10) 0.44535(9) 0.97318(16)
C17_4 C 0.24225(13) 0.62216(11) 0.83762(17)
C19_4 C 0.31614(12) 0.57647(10) 0.97954(16)
H8_4 H 0.3536 0.5836 0.9751
C20_4 C 0.25054(12) 0.59381(11) 0.91431(16)
C21_4 C 0.19458(13) 0.58213(11) 0.92065(18)
H9_4 H 0.1504 0.5932 0.8770
C22_4 C 0.20467(12) 0.55414(11) 0.99146(17)
C24_2 C 0.12661(14) 0.48082(13) 0.9843(2)
C25_2 C 0.06653(13) 0.46455(11) 0.9883(2)
C26_4 C 0.02951(12) 0.50775(11) 0.99925(17)
C29_2 C 0.04658(15) 0.40839(13) 0.9796(2)
H11_2 H 0.0717 0.3800 0.9729
Cd1_3 Cd 0.0000 0.951552(11) 0.2500
N1_4 N 0.10125(11) 0.77796(9) 0.00290(14)
O1_2 O 0.04013(8) 0.91268(7) 0.16653(11)
O5_4 O 0.15455(10) 0.74033(8) 0.13682(13)
O11_3 O 0.34030(10) 0.94535(9) 0.52682(16)
C7_4 C 0.04036(13) 0.78873(10) 0.00373(17)
C8_4 C 0.04242(13) 0.82974(10) 0.05872(16)
H5_4 H 0.0823 0.8512 0.0934
C9_4 C 0.15814(14) 0.75267(11) 0.07618(19)
C10_4 C 0.22129(13) 0.74311(11) 0.07492(18)
C14_4 C 0.27966(15) 0.72254(13) 0.14618(19)
H6_4 H 0.2800 0.7155 0.1954
C24_3 C 0.37339(14) 0.98082(13) 0.5157(2)
C25_3 C 0.43347(13) 0.96455(11) 0.5117(2)
C29_3 C 0.45342(15) 0.90839(13) 0.5204(2)
H11_3 H 0.4283 0.8800 0.5271
O15_4 O 0.69366(15) 0.75524(17) 0.1080(3)
H13_4 H 0.7270 0.7728 0.1467
O16_4 O 0.63811(12) 0.80755(11) 0.14689(16)
O18_4 O 0.45351(11) 0.68836(10) 0.13366(14)
C32_4 C 0.64120(17) 0.76844(15) 0.1068(2)
C35_4 C 0.57756(13) 0.73351(11) 0.04734(17)
C36_4 C 0.51913(14) 0.74258(11) 0.04891(17)
H15_4 H 0.5199 0.7701 0.0858
C41_4 C 0.28016(12) 0.74444(10) 0.00018(17)
C42_4 C 0.33958(14) 0.72272(11) 0.07348(18)
C43_4 C 0.40227(15) 0.70940(12) 0.0733(2)
C45_4 C 0.33940(15) 0.71193(12) 0.14595(19)
H18_4 H 0.3789 0.6976 0.1948
N4_4 N 0.64535(10) 0.96064(9) 0.49579(14)
O19_3 O 0.90410(8) 0.99403(8) 0.68597(11)
O20_3 O 0.94286(9) 0.97369(8) 0.60346(13)
O21_4 O 0.78981(9) 0.86804(9) 0.33042(12)
O22_4 O 0.67790(9) 0.86344(11) 0.27988(14)
H19_4 H 0.6755 0.8504 0.2375
O24_3 O 0.62734(10) 0.86709(9) 0.50988(16)
C46_3 C 0.89715(13) 0.97378(10) 0.61895(17)
C47_4 C 0.74225(13) 0.87784(11) 0.33762(17)
C48_3 C 0.82613(11) 0.95124(11) 0.55099(15)
C49_4 C 0.81614(12) 0.92353(10) 0.47954(16)
H20_4 H 0.8536 0.9164 0.4751
C50_4 C 0.75054(12) 0.90619(11) 0.41431(16)
C51_4 C 0.69458(13) 0.91787(11) 0.42065(18)
H21_4 H 0.6504 0.9068 0.3770
C52_4 C 0.70467(12) 0.94586(11) 0.49146(17)
C53_3 C 0.77009(11) 0.96196(11) 0.55703(16)
H22_3 H 0.7765 0.9800 0.6054
C56_4 C 0.52951(12) 0.99225(11) 0.49925(17)
C57_3 C 0.54903(13) 0.93382(11) 0.50892(19)
C58_3 C 0.60946(14) 0.91651(12) 0.50580(19)
C60_3 C 0.51183(15) 0.89290(12) 0.5194(2)
H24_3 H 0.5252 0.8544 0.5259
O26_2 O 0.05964(10) 0.88190(8) 0.36205(13)
O3_4 O 0.19366(15) 0.74476(17) 0.6080(3)
H1_4 H 0.2270 0.7272 0.6467
O4_4 O 0.13811(12) 0.69245(11) 0.64689(16)
C1_4 C 0.01136(12) 0.88097(10) 0.37338(16)
C2_4 C 0.14120(17) 0.73156(15) 0.6068(2)
C3_4 C 0.01548(12) 0.83885(10) 0.43792(16)
C4_4 C 0.07510(13) 0.80689(11) 0.49057(17)
H3_4 H 0.1136 0.8126 0.4878
C5_4 C 0.07756(13) 0.76649(11) 0.54734(17)
C6_4 C 0.01913(14) 0.75742(11) 0.54891(17)
H4_4 H 0.0199 0.7299 0.5858
O27_2 O 0.90410(8) 0.00597(8) 0.18597(11)
O8_4 O 0.94286(9) 0.02631(8) 0.10346(13)
O12_4 O 0.62734(10) 0.13291(9) 0.00988(16)
C16_4 C 0.89715(13) 0.02622(10) 0.11895(17)
C18_4 C 0.82613(11) 0.04876(11) 0.05099(15)
C23_4 C 0.77009(11) 0.03804(11) 0.05703(16)
H10_4 H 0.7765 0.0200 0.1054
C27_4 C 0.54903(13) 0.06618(11) 0.00892(19)
C28_4 C 0.60946(14) 0.08349(12) 0.00580(19)
C30_4 C 0.51183(15) 0.10710(12) 0.0194(2)
H12_4 H 0.5252 0.1456 0.0259
O23_4 O 0.34030(10) 0.05465(9) 0.02682(16)
C54_4 C 0.37339(14) 0.01918(13) 0.0157(2)
C55_4 C 0.43347(13) 0.03545(11) 0.0117(2)
C59_4 C 0.45342(15) 0.09161(13) 0.0204(2)
H23_4 H 0.4283 0.1200 0.0271
O11_4 O 0.65970(10) 0.94535(9) 0.97318(16)
C24_4 C 0.62661(14) 0.98082(13) 0.9843(2)
C25_4 C 0.56653(13) 0.96455(11) 0.9883(2)
C29_4 C 0.54658(15) 0.90839(13) 0.9796(2)
H11_4 H 0.5717 0.8800 0.9729
O19_4 O 0.09590(8) 0.99403(8) 0.81403(11)
O20_4 O 0.05714(9) 0.97369(8) 0.89654(13)
O24_4 O 0.37266(10) 0.86709(9) 0.99012(16)
C46_4 C 0.10285(13) 0.97378(10) 0.88105(17)
C48_4 C 0.17387(11) 0.95124(11) 0.94901(15)
C53_4 C 0.22991(11) 0.96196(11) 0.94297(16)
H22_4 H 0.2235 0.9800 0.8946
C57_4 C 0.45097(13) 0.93382(11) 0.99108(19)
C58_4 C 0.39054(14) 0.91651(12) 0.99420(19)
C60_4 C 0.48817(15) 0.89290(12) 0.9806(2)
H24_4 H 0.4748 0.8544 0.9741
loop_
_geom_bond_atom_site_label_1
_geom_bond_atom_site_label_2
_geom_bond_site_symmetry_1
_geom_bond_site_symmetry_2
O15 H13 1_555 1_555
O16 C32 1_555 1_555
C32 O15 1_555 1_555
C35 C32 1_555 1_555
C36 C35 1_555 1_555
H15 C36 1_555 1_555
N4 C52 1_555 1_555
O19 C46 1_555 1_555
O20 C46 1_555 1_555
O21 C47 1_555 1_555
O22 H19 1_555 1_555
O23 C54 1_555 1_555
O24 C58 1_555 1_555
C46 C48 1_555 1_555
C47 O22 1_555 1_555
C48 C49 1_555 1_555
C49 H20 1_555 1_555
C50 C47 1_555 1_555
C51 C50 1_555 1_555
H21 C51 1_555 1_555
C52 C51 1_555 1_555
C53 C48 1_555 1_555
H22 C53 1_555 1_555
C54 N4 1_555 1_555
C55 C54 1_555 1_555
C57 C56 1_555 1_555
C58 N4 1_555 1_555
H23 C59 1_555 1_555
H24 C60 1_555 1_555
Cd2 O19 1_555 1_555
C49 C50 1_555 1_555
C52 C53 1_555 1_555
C55 C56 1_555 1_555
C55 C59 1_555 1_555
C57 C58 1_555 1_555
C57 C60 1_555 1_555
O19_2 C46_2 1_555 1_555
O20_2 C46_2 1_555 1_555
O24_2 C58_2 1_555 1_555
C46_2 C48_2 1_555 1_555
C53_2 C48_2 1_555 1_555
H22_2 C53_2 1_555 1_555
H24_2 C60_2 1_555 1_555
Cd2 O19_2 1_555 1_555
C57_2 C58_2 1_555 1_555
C57_2 C60_2 1_555 1_555
O6 C13 1_555 1_555
C12 C11 1_555 1_555
C15 C12 1_555 1_555
H7 C15 1_555 1_555
N3 C37 1_555 1_555
O13 C31 1_555 1_555
O14 C31 1_555 1_555
O17 C39 1_555 1_555
C31 C33 1_555 1_555
C33 C34 1_555 1_555
C34 H14 1_555 1_555
C38 C33 1_555 1_555
H16 C38 1_555 1_555
C39 N3 1_555 1_555
C40 C39 1_555 1_555
C44 C15 1_555 1_555
H17 C44 1_555 1_555
Cd2 O13 1_555 1_555
C12 C13 1_555 1_555
O14 Cd2 1_555 1_555
C37 C38 1_555 1_555
C40 C44 1_555 1_555
O2 Cd1 1_555 1_555
C1 O2 1_555 1_555
C3 C1 1_555 1_555
C4 C3 1_555 1_555
H3 C4 1_555 1_555
O25 Cd1 1_555 1_555
N1 C7 1_555 1_555
O5 C9 1_555 1_555
O6_2 C13_2 1_555 1_555
H5 C8 1_555 1_555
C9 N1 1_555 1_555
C10 C9 1_555 1_555
C11_2 C10 1_555 1_555
C12_2 C11_2 1_555 1_555
C13_2 N1 1_555 1_555
C14 C10 1_555 1_555
H6 C14 1_555 1_555
C15_2 C12_2 1_555 1_555
H7_2 C15_2 1_555 1_555
N3_2 C37_2 1_555 1_555
O13_2 C31_2 1_555 1_555
O14_2 C31_2 1_555 1_555
O15_2 H13_2 1_555 1_555
O16_2 C32_2 1_555 1_555
O17_2 C39_2 1_555 1_555
O18 C43 1_555 1_555
C31_2 C33_2 1_555 1_555
C32_2 O15_2 1_555 1_555
C33_2 C34_2 1_555 1_555
C34_2 H14_2 1_555 1_555
C35_2 C32_2 1_555 1_555
C36_2 C35_2 1_555 1_555
H15_2 C36_2 1_555 1_555
C37_2 C36_2 1_555 1_555
C38_2 C33_2 1_555 1_555
H16_2 C38_2 1_555 1_555
C39_2 N3_2 1_555 1_555
C40_2 C39_2 1_555 1_555
C41 C11_2 1_555 1_555
C42 C41 1_555 1_555
C43 N3_2 1_555 1_555
C44_2 C15_2 1_555 1_555
H17_2 C44_2 1_555 1_555
C45 C14 1_555 1_555
H18 C45 1_555 1_555
N4_2 C52_2 1_555 1_555
O21_2 C47_2 1_555 1_555
O22_2 H19_2 1_555 1_555
C47_2 O22_2 1_555 1_555
C49_2 H20_2 1_555 1_555
C50_2 C47_2 1_555 1_555
C51_2 C50_2 1_555 1_555
H21_2 C51_2 1_555 1_555
C52_2 C51_2 1_555 1_555
Cd2 O13_2 1_555 1_555
C7 C8 1_555 1_555
C12_2 C13_2 1_555 1_555
O14_2 Cd2 1_555 1_555
C34_2 C35_2 1_555 1_555
C37_2 C38_2 1_555 1_555
C40_2 C41 1_555 1_555
C40_2 C44_2 1_555 1_555
C42 C43 1_555 1_555
C42 C45 1_555 1_555
C49_2 C50_2 1_555 1_555
O14_3 C31_3 1_555 1_555
C31_3 C33_3 1_555 1_555
C33_3 C34_3 1_555 1_555
C34_3 H14_3 1_555 1_555
O14_3 Cd3 1_555 1_555
Cd1_2 O1 1_555 1_555
N1_2 C7_2 1_555 1_555
N2 C22 1_555 1_555
O1 C1_2 1_555 1_555
O2_2 Cd1_2 1_555 1_555
O5_2 C9_2 1_555 1_555
O7 Cd1_2 1_555 1_555
O8 C16 1_555 1_555
O9 C17 1_555 1_555
O10 H2 1_555 1_555
O11 C24 1_555 1_555
O12 C28 1_555 1_555
C1_2 O2_2 1_555 1_555
C3_2 C1_2 1_555 1_555
C4_2 C3_2 1_555 1_555
H3_2 C4_2 1_555 1_555
C8_2 C3_2 1_555 1_555
H5_2 C8_2 1_555 1_555
C9_2 N1_2 1_555 1_555
C10_2 C9_2 1_555 1_555
C14_2 C10_2 1_555 1_555
H6_2 C14_2 1_555 1_555
C16 O7 1_555 1_555
C17 O10 1_555 1_555
C18 C16 1_555 1_555
C19 C18 1_555 1_555
H8 C19 1_555 1_555
C20 C17 1_555 1_555
C21 C20 1_555 1_555
H9 C21 1_555 1_555
C22 C21 1_555 1_555
C23 C18 1_555 1_555
H10 C23 1_555 1_555
C24 N2 1_555 1_555
C25 C24 1_555 1_555
C26 C25 1_555 1_555
C27 C26 1_555 1_555
C28 N2 1_555 1_555
C29 C25 1_555 1_555
H11 C29 1_555 1_555
C30 C27 1_555 1_555
H12 C30 1_555 1_555
O18_2 C43_2 1_555 1_555
C42_2 C41_2 1_555 1_555
C45_2 C14_2 1_555 1_555
H18_2 C45_2 1_555 1_555
O25_2 Cd1_2 1_555 1_555
O26 Cd1_2 1_555 1_555
O27 Cd1_2 1_555 1_555
C7_2 C8_2 1_555 1_555
C19 C20 1_555 1_555
C22 C23 1_555 1_555
C27 C28 1_555 1_555
C42_2 C43_2 1_555 1_555
C42_2 C45_2 1_555 1_555
N1_3 C7_3 1_555 1_555
O25_2 C1_3 1_555 1_555
O3 H1 1_555 1_555
O4 C2 1_555 1_555
O5_3 C9_3 1_555 1_555
O6_3 C13_3 1_555 1_555
O8_2 C16_2 1_555 1_555
O12_2 C28_2 1_555 1_555
C1_3 O26 1_555 1_555
C2 O3 1_555 1_555
C3_3 C1_3 1_555 1_555
C4_3 C3_3 1_555 1_555
H3_3 C4_3 1_555 1_555
C5 C2 1_555 1_555
C6 C5 1_555 1_555
H4 C6 1_555 1_555
C7_3 C6 1_555 1_555
C8_3 C3_3 1_555 1_555
H5_3 C8_3 1_555 1_555
C9_3 N1_3 1_555 1_555
C10_3 C9_3 1_555 1_555
C11_3 C10_3 1_555 1_555
C12_3 C11_3 1_555 1_555
C13_3 N1_3 1_555 1_555
C14_3 C10_3 1_555 1_555
H6_3 C14_3 1_555 1_555
C15_3 C12_3 1_555 1_555
H7_3 C15_3 1_555 1_555
C16_2 O27 1_555 1_555
C18_2 C16_2 1_555 1_555
C23_2 C18_2 1_555 1_555
H10_2 C23_2 1_555 1_555
C30_2 C27_2 1_555 1_555
H12_2 C30_2 1_555 1_555
N3_3 C37_3 1_555 1_555
O17_3 C39_3 1_555 1_555
O18_3 C43_3 1_555 1_555
H16_3 C38_3 1_555 1_555
C39_3 N3_3 1_555 1_555
C40_3 C39_3 1_555 1_555
C41_3 C11_3 1_555 1_555
C42_3 C41_3 1_555 1_555
C43_3 N3_3 1_555 1_555
C44_3 C15_3 1_555 1_555
H17_3 C44_3 1_555 1_555
C45_3 C14_3 1_555 1_555
H18_3 C45_3 1_555 1_555
Cd3 O13_3 1_555 1_555
C4_3 C5 1_555 1_555
C7_3 C8_3 1_555 1_555
C12_3 C13_3 1_555 1_555
C27_2 C28_2 1_555 1_555
C37_3 C38_3 1_555 1_555
C40_3 C41_3 1_555 1_555
C40_3 C44_3 1_555 1_555
C42_3 C43_3 1_555 1_555
C42_3 C45_3 1_555 1_555
O3_2 H1_2 1_555 1_555
O4_2 C2_2 1_555 1_555
C2_2 O3_2 1_555 1_555
C5_2 C2_2 1_555 1_555
C6_2 C5_2 1_555 1_555
H4_2 C6_2 1_555 1_555
N2_2 C22_2 1_555 1_555
O9_2 C17_2 1_555 1_555
O10_2 H2_2 1_555 1_555
C17_2 O10_2 1_555 1_555
H8_2 C19_2 1_555 1_555
C20_2 C17_2 1_555 1_555
C21_2 C20_2 1_555 1_555
H9_2 C21_2 1_555 1_555
C22_2 C21_2 1_555 1_555
C19_2 C20_2 1_555 1_555
O3_3 H1_3 1_555 1_555
O4_3 C2_3 1_555 1_555
O6_4 C13_4 1_555 1_555
C2_3 O3_3 1_555 1_555
C5_3 C2_3 1_555 1_555
C6_3 C5_3 1_555 1_555
H4_3 C6_3 1_555 1_555
C12_4 C11_4 1_555 1_555
C15_4 C12_4 1_555 1_555
H7_4 C15_4 1_555 1_555
N3_4 C37_4 1_555 1_555
O17_4 C39_4 1_555 1_555
H16_4 C38_4 1_555 1_555
C39_4 N3_4 1_555 1_555
C40_4 C39_4 1_555 1_555
C44_4 C15_4 1_555 1_555
H17_4 C44_4 1_555 1_555
Cd3_2 O13_4 1_555 1_555
C12_4 C13_4 1_555 1_555
C37_4 C38_4 1_555 1_555
C40_4 C44_4 1_555 1_555
O14_4 C31_4 1_555 1_555
O15_3 H13_3 1_555 1_555
O16_3 C32_3 1_555 1_555
C31_4 C33_4 1_555 1_555
C32_3 O15_3 1_555 1_555
C33_4 C34_4 1_555 1_555
C34_4 H14_4 1_555 1_555
C35_3 C32_3 1_555 1_555
C36_3 C35_3 1_555 1_555
H15_3 C36_3 1_555 1_555
N4_3 C52_3 1_555 1_555
O21_3 C47_3 1_555 1_555
O22_3 H19_3 1_555 1_555
O23_2 C54_2 1_555 1_555
C47_3 O22_3 1_555 1_555
C49_3 H20_3 1_555 1_555
C50_3 C47_3 1_555 1_555
C51_3 C50_3 1_555 1_555
H21_3 C51_3 1_555 1_555
C52_3 C51_3 1_555 1_555
C54_2 N4_3 1_555 1_555
C55_2 C54_2 1_555 1_555
H23_2 C59_2 1_555 1_555
O14_4 Cd3_2 1_555 1_555
C34_4 C35_3 1_555 1_555
C49_3 C50_3 1_555 1_555
C55_2 C56_3 1_555 1_555
C55_2 C59_2 1_555 1_555
N2_3 C22_3 1_555 1_555
O8_3 C16_3 1_555 1_555
O9_3 C17_3 1_555 1_555
O10_3 H2_3 1_555 1_555
O12_3 C28_3 1_555 1_555
C16_3 O7_2 1_555 1_555
C17_3 O10_3 1_555 1_555
C18_3 C16_3 1_555 1_555
C19_3 C18_3 1_555 1_555
H8_3 C19_3 1_555 1_555
C20_3 C17_3 1_555 1_555
C21_3 C20_3 1_555 1_555
H9_3 C21_3 1_555 1_555
C22_3 C21_3 1_555 1_555
C23_3 C18_3 1_555 1_555
H10_3 C23_3 1_555 1_555
C27_3 C26_3 1_555 1_555
C28_3 N2_3 1_555 1_555
C30_3 C27_3 1_555 1_555
H12_3 C30_3 1_555 1_555
O23_3 C54_3 1_555 1_555
C55_3 C54_3 1_555 1_555
C59_3 C30_3 1_555 1_555
H23_3 C59_3 1_555 1_555
C19_3 C20_3 1_555 1_555
C22_3 C23_3 1_555 1_555
C27_3 C28_3 1_555 1_555
C55_3 C59_3 1_555 1_555
N2_4 C22_4 1_555 1_555
O9_4 C17_4 1_555 1_555
O10_4 H2_4 1_555 1_555
O11_2 C24_2 1_555 1_555
C17_4 O10_4 1_555 1_555
H8_4 C19_4 1_555 1_555
C20_4 C17_4 1_555 1_555
C21_4 C20_4 1_555 1_555
H9_4 C21_4 1_555 1_555
C22_4 C21_4 1_555 1_555
C24_2 N2_4 1_555 1_555
C25_2 C24_2 1_555 1_555
C26_4 C25_2 1_555 1_555
C29_2 C25_2 1_555 1_555
H11_2 C29_2 1_555 1_555
C19_4 C20_4 1_555 1_555
Cd1_3 O1_2 1_555 1_555
N1_4 C7_4 1_555 1_555
O5_4 C9_4 1_555 1_555
O11_3 C24_3 1_555 1_555
H5_4 C8_4 1_555 1_555
C9_4 N1_4 1_555 1_555
C10_4 C9_4 1_555 1_555
C14_4 C10_4 1_555 1_555
H6_4 C14_4 1_555 1_555
C25_3 C24_3 1_555 1_555
C29_3 C25_3 1_555 1_555
H11_3 C29_3 1_555 1_555
O15_4 H13_4 1_555 1_555
O16_4 C32_4 1_555 1_555
O18_4 C43_4 1_555 1_555
C32_4 O15_4 1_555 1_555
C35_4 C32_4 1_555 1_555
C36_4 C35_4 1_555 1_555
H15_4 C36_4 1_555 1_555
C42_4 C41_4 1_555 1_555
C45_4 C14_4 1_555 1_555
H18_4 C45_4 1_555 1_555
N4_4 C52_4 1_555 1_555
O19_3 C46_3 1_555 1_555
O20_3 C46_3 1_555 1_555
O21_4 C47_4 1_555 1_555
O22_4 H19_4 1_555 1_555
O24_3 C58_3 1_555 1_555
C46_3 C48_3 1_555 1_555
C47_4 O22_4 1_555 1_555
C48_3 C49_4 1_555 1_555
C49_4 H20_4 1_555 1_555
C50_4 C47_4 1_555 1_555
C51_4 C50_4 1_555 1_555
H21_4 C51_4 1_555 1_555
C52_4 C51_4 1_555 1_555
C53_3 C48_3 1_555 1_555
H22_3 C53_3 1_555 1_555
C57_3 C56_4 1_555 1_555
C58_3 N4_4 1_555 1_555
C60_3 C29_3 1_555 1_555
H24_3 C60_3 1_555 1_555
O26_2 Cd1_3 1_555 1_555
C7_4 C8_4 1_555 1_555
C42_4 C43_4 1_555 1_555
C42_4 C45_4 1_555 1_555
C49_4 C50_4 1_555 1_555
C52_4 C53_3 1_555 1_555
C57_3 C58_3 1_555 1_555
C57_3 C60_3 1_555 1_555
O3_4 H1_4 1_555 1_555
O4_4 C2_4 1_555 1_555
C1_4 O26_2 1_555 1_555
C2_4 O3_4 1_555 1_555
C3_4 C1_4 1_555 1_555
C4_4 C3_4 1_555 1_555
H3_4 C4_4 1_555 1_555
C5_4 C2_4 1_555 1_555
C6_4 C5_4 1_555 1_555
H4_4 C6_4 1_555 1_555
C4_4 C5_4 1_555 1_555
O8_4 C16_4 1_555 1_555
O12_4 C28_4 1_555 1_555
C16_4 O27_2 1_555 1_555
C18_4 C16_4 1_555 1_555
C23_4 C18_4 1_555 1_555
H10_4 C23_4 1_555 1_555
C30_4 C27_4 1_555 1_555
H12_4 C30_4 1_555 1_555
O23_4 C54_4 1_555 1_555
C55_4 C54_4 1_555 1_555
C59_4 C30_4 1_555 1_555
H23_4 C59_4 1_555 1_555
C27_4 C28_4 1_555 1_555
C55_4 C59_4 1_555 1_555
O11_4 C24_4 1_555 1_555
C25_4 C24_4 1_555 1_555
C29_4 C25_4 1_555 1_555
H11_4 C29_4 1_555 1_555
O19_4 C46_4 1_555 1_555
O20_4 C46_4 1_555 1_555
O24_4 C58_4 1_555 1_555
C46_4 C48_4 1_555 1_555
C53_4 C48_4 1_555 1_555
H22_4 C53_4 1_555 1_555
C60_4 C29_4 1_555 1_555
H24_4 C60_4 1_555 1_555
C57_4 C58_4 1_555 1_555
C57_4 C60_4 1_555 1_555

#END
