
###############################################################################
#
# This file contains modified crystal structure data generated from the
# MOF subset of the Cambridge Structural Database (CSD) v543 
# hosted by the Cambridge Crystallographic Data Centre (CCDC).
#
# This work is licensed under the Creative Commons
# Attribution-NonCommercial-ShareAlike 4.0 International License.
# To view a copy of this license, visit
# http://creativecommons.org/licenses/by-nc-sa/4.0/
# or send a letter to
# Creative Commons, PO Box 1866, Mountain View, CA 94042, USA.
#
# CIF created using the CSD Python API on 29 September 2022
# The structure has been converted into the P1 space group
# The structure has a 3D framework
# The original CSD entry KIKYOV01 is in the orthorhombic crystal system
# The framework has been calculated to contain at least 10.0% void space
# The void calculation uses a probe of radius 1.32A, grid spacing 0.4
#
###############################################################################

data_KIKYOV01
_chemical_formula_moiety         '(C248 H120 Au16 Fe8 N56)n'
_symmetry_cell_setting           triclinic
_symmetry_space_group_name_H-M   'P 1'
_symmetry_Int_Tables_number      1
_space_group_name_Hall           'P 1'
loop_
_symmetry_equiv_pos_site_id
_symmetry_equiv_pos_as_xyz
1 x,y,z
_cell_length_a                   36.9053(11)
_cell_length_b                   15.9660(5)
_cell_length_c                   13.0127(4)
_cell_angle_alpha                90
_cell_angle_beta                 90
_cell_angle_gamma                90
_cell_volume                     7667.47
loop_
_atom_site_label
_atom_site_type_symbol
_atom_site_fract_x
_atom_site_fract_y
_atom_site_fract_z
N7 N 0.5574(10) 0.0369(12) 0.328(4)
H14 H 0.503193 0.027064 0.356206
H15 H 0.611680 0.019415 0.306764
Fe4 Fe 0.79594(5) 0.75173(11) 0.09261(14)
C1 C 0.7716(4) 0.0937(9) 0.7403(11)
N1 N 0.7726(3) 0.1533(7) 0.6897(9)
Fe1 Fe 0.79594(5) 0.24827(11) 0.59261(14)
N3 N 0.7417(3) 0.2969(7) 0.5515(8)
N4 N 0.8016(3) 0.3329(7) 0.7207(9)
N5 N 0.8160(3) 0.6503(8) 0.9972(10)
N6 N 0.3509(3) 0.2983(8) 0.3768(9)
C3 C 0.7190(4) 0.2554(9) 0.4883(11)
C4 C 0.7319(4) 0.3731(9) 0.5815(11)
C5 C 0.8056(4) 0.3876(8) 0.7752(10)
C6 C 0.8148(4) 0.5916(8) 0.9502(11)
H1 H 0.725368 0.200638 0.466348
C7 C 0.6870(4) 0.2891(10) 0.4544(11)
C8 C 0.7002(4) 0.4112(9) 0.5512(12)
H2 H 0.747619 0.402987 0.626221
Au2 Au 0.80967(2) 0.48757(3) 0.86552(4)
H3 H 0.671789 0.258061 0.409391
C9 C 0.6769(4) 0.3681(9) 0.4859(11)
H4 H 0.694279 0.465980 0.574522
C10 C 0.6433(4) 0.4056(10) 0.4532(11)
C11 C 0.6160(4) 0.4411(10) 0.4292(11)
C12 C 0.5829(4) 0.4847(11) 0.4050(10)
C13 C 0.5506(4) 0.4395(12) 0.3973(11)
C14 C 0.5829(4) 0.5701(11) 0.3937(11)
H5 H 0.550292 0.380370 0.405208
C15 C 0.5181(4) 0.4844(11) 0.3775(11)
C16 C 0.5506(4) 0.6134(12) 0.3769(12)
H6 H 0.605126 0.600052 0.397376
C17 C 0.5180(4) 0.5701(12) 0.3692(11)
C18 C 0.4846(4) 0.4372(13) 0.3698(12)
C19 C 0.5517(5) 0.7030(14) 0.3680(18)
H7 H 0.495968 0.599463 0.358273
C20 C 0.4566(4) 0.4021(13) 0.3626(12)
C21 C 0.5532(7) 0.7753(17) 0.363(3)
C22 C 0.4211(4) 0.3638(12) 0.3616(12)
C23 C 0.5574(7) 0.8651(11) 0.367(3)
C24 C 0.4149(5) 0.2788(13) 0.3763(15)
C25 C 0.3906(4) 0.4155(11) 0.3527(12)
C26 C 0.5251(6) 0.9104(17) 0.372(4)
C27 C 0.5897(6) 0.9058(14) 0.343(3)
C28 C 0.3792(4) 0.2503(11) 0.3801(15)
H8 H 0.434531 0.240922 0.383548
H9 H 0.393348 0.474126 0.342643
C29 C 0.3568(4) 0.3801(10) 0.3586(12)
H10 H 0.503118 0.882647 0.388678
C30 C 0.5252(8) 0.9963(17) 0.353(4)
C31 C 0.5897(8) 0.9917(14) 0.323(4)
H11 H 0.611697 0.875033 0.339292
H12 H 0.375385 0.191573 0.385494
H13 H 0.336311 0.415389 0.349400
N8 N 0.7931(3) 0.1605(8) 0.4671(9)
Fe2 Fe 0.29594(5) 0.25173(11) 0.40739(14)
N9 N 0.8160(3) 0.3497(8) 0.4972(10)
N10 N 0.8509(3) 0.2017(8) 0.6232(9)
Au1 Au 0.77666(2) 0.99373(3) 0.82692(4)
C2 C 0.7872(4) 0.8946(9) 0.9118(11)
N2 N 0.7931(3) 0.8395(8) 0.9671(9)
Au1_2 Au 0.27666(2) 0.50627(3) 0.17308(4)
C1_2 C 0.2716(4) 0.4063(9) 0.2597(11)
C2_2 C 0.2872(4) 0.6054(9) 0.0882(11)
N1_2 N 0.2726(3) 0.3467(7) 0.3103(9)
N2_2 N 0.2931(3) 0.6605(8) 0.0329(9)
N3_2 N 0.2417(3) 0.2031(7) 0.4485(8)
N4_2 N 0.3016(3) 0.1671(7) 0.2793(9)
C3_2 C 0.2190(4) 0.2446(9) 0.5117(11)
C4_2 C 0.2319(4) 0.1269(9) 0.4185(11)
C5_2 C 0.3056(4) 0.1124(8) 0.2248(10)
H1_2 H 0.225368 0.299362 0.533652
C7_2 C 0.1870(4) 0.2109(10) 0.5456(11)
C8_2 C 0.2002(4) 0.0888(9) 0.4488(12)
H2_2 H 0.247619 0.097013 0.373779
Au2_2 Au 0.30967(2) 0.01243(3) 0.13448(4)
H3_2 H 0.171789 0.241939 0.590609
C9_2 C 0.1769(4) 0.1319(9) 0.5141(11)
H4_2 H 0.194279 0.034020 0.425478
C10_2 C 0.1433(4) 0.0944(10) 0.5468(11)
C11_2 C 0.1160(4) 0.0589(10) 0.5708(11)
C12_2 C 0.0829(4) 0.0153(11) 0.5950(10)
C13_2 C 0.0506(4) 0.0605(12) 0.6027(11)
H5_2 H 0.050292 0.119630 0.594792
C15_2 C 0.0181(4) 0.0156(11) 0.6225(11)
N8_2 N 0.2931(3) 0.3395(8) 0.5329(9)
N9_2 N 0.3160(3) 0.1503(8) 0.5028(10)
Fe3 Fe 0.29594(5) 0.74827(11) 0.90739(14)
N5_2 N 0.3160(3) 0.8497(8) 0.0028(10)
C6_2 C 0.3148(4) 0.9084(8) 0.0498(11)
C14_2 C 0.0829(4) 0.9299(11) 0.6063(11)
C16_2 C 0.0506(4) 0.8866(12) 0.6231(12)
H6_2 H 0.105126 0.899948 0.602624
C17_2 C 0.0180(4) 0.9299(12) 0.6308(11)
C19_2 C 0.0517(5) 0.7970(14) 0.6320(18)
C21_2 C 0.0532(7) 0.7247(17) 0.637(3)
C23_2 C 0.0574(7) 0.6349(11) 0.633(3)
C26_2 C 0.0251(6) 0.5896(17) 0.628(4)
C27_2 C 0.0897(6) 0.5942(14) 0.657(3)
H10_2 H 0.003118 0.617353 0.611322
C30_2 C 0.0252(8) 0.5037(17) 0.647(4)
C31_2 C 0.0897(8) 0.5083(14) 0.677(4)
H11_2 H 0.111697 0.624967 0.660708
N7_2 N 0.0574(10) 0.4631(12) 0.672(4)
H14_2 H 0.003193 0.472936 0.643794
H15_2 H 0.111680 0.480585 0.693236
C18_2 C 0.9846(4) 0.0628(13) 0.6302(12)
C20_2 C 0.9566(4) 0.0979(13) 0.6374(12)
C22_2 C 0.9211(4) 0.1362(12) 0.6384(12)
C24_2 C 0.9149(5) 0.2212(13) 0.6237(15)
C25_2 C 0.8906(4) 0.0845(11) 0.6473(12)
C28_2 C 0.8792(4) 0.2497(11) 0.6199(15)
H8_2 H 0.934531 0.259078 0.616452
H9_2 H 0.893348 0.025874 0.657357
C29_2 C 0.8568(4) 0.1199(10) 0.6414(12)
H12_2 H 0.875385 0.308427 0.614506
H13_2 H 0.836311 0.084611 0.650600
C6_3 C 0.3148(4) 0.0916(8) 0.5498(11)
C3_3 C 0.2190(4) 0.7554(9) 0.0117(11)
H1_3 H 0.225368 0.700638 0.033652
C7_3 C 0.1870(4) 0.7891(10) 0.0456(11)
H3_3 H 0.171789 0.758061 0.090609
C9_3 C 0.1769(4) 0.8681(9) 0.0141(11)
C10_3 C 0.1433(4) 0.9056(10) 0.0468(11)
C11_3 C 0.1160(4) 0.9411(10) 0.0708(11)
C12_3 C 0.0829(4) 0.9847(11) 0.0950(10)
C13_3 C 0.0506(4) 0.9395(12) 0.1027(11)
H5_3 H 0.050292 0.880370 0.094792
C15_3 C 0.0181(4) 0.9844(11) 0.1225(11)
Au1_3 Au 0.27666(2) 0.49373(3) 0.67308(4)
C1_3 C 0.2716(4) 0.5937(9) 0.7597(11)
C2_3 C 0.2872(4) 0.3946(9) 0.5882(11)
N1_3 N 0.2726(3) 0.6533(7) 0.8103(9)
N3_3 N 0.2417(3) 0.7969(7) 0.9485(8)
N4_3 N 0.3016(3) 0.8329(7) 0.7793(9)
C4_3 C 0.2319(4) 0.8731(9) 0.9185(11)
C5_3 C 0.3056(4) 0.8876(8) 0.7248(10)
C8_3 C 0.2002(4) 0.9112(9) 0.9488(12)
H2_3 H 0.247619 0.902987 0.873779
Au2_3 Au 0.30967(2) 0.98757(3) 0.63448(4)
H4_3 H 0.194279 0.965980 0.925478
N10_2 N 0.3509(3) 0.7017(8) 0.8768(9)
N6_2 N 0.8509(3) 0.7983(8) 0.1232(9)
C18_3 C 0.9846(4) 0.9372(13) 0.1302(12)
C20_3 C 0.9566(4) 0.9021(13) 0.1374(12)
C22_3 C 0.9211(4) 0.8638(12) 0.1384(12)
C24_3 C 0.9149(5) 0.7788(13) 0.1237(15)
C25_3 C 0.8906(4) 0.9155(11) 0.1473(12)
C28_3 C 0.8792(4) 0.7503(11) 0.1199(15)
H8_3 H 0.934531 0.740922 0.116452
H9_3 H 0.893348 0.974126 0.157357
C29_3 C 0.8568(4) 0.8801(10) 0.1414(12)
H12_3 H 0.875385 0.691573 0.114506
H13_3 H 0.836311 0.915389 0.150600
Au1_4 Au 0.77666(2) 0.00627(3) 0.32692(4)
C2_4 C 0.7872(4) 0.1054(9) 0.4118(11)
C1_4 C 0.7716(4) 0.9063(9) 0.2403(11)
N1_4 N 0.7726(3) 0.8467(7) 0.1897(9)
N3_4 N 0.7417(3) 0.7031(7) 0.0515(8)
N4_4 N 0.8016(3) 0.6671(7) 0.2207(9)
C4_4 C 0.7319(4) 0.6269(9) 0.0815(11)
C5_4 C 0.8056(4) 0.6124(8) 0.2752(10)
C6_4 C 0.8148(4) 0.4084(8) 0.4502(11)
C8_4 C 0.7002(4) 0.5888(9) 0.0512(12)
H2_4 H 0.747619 0.597013 0.126221
Au2_4 Au 0.80967(2) 0.51243(3) 0.36552(4)
H4_4 H 0.694279 0.534020 0.074522
C3_4 C 0.7190(4) 0.7446(9) 0.9883(11)
H1_4 H 0.725368 0.799362 0.966348
C7_4 C 0.6870(4) 0.7109(10) 0.9544(11)
H3_4 H 0.671789 0.741939 0.909391
C9_4 C 0.6769(4) 0.6319(9) 0.9859(11)
C10_4 C 0.6433(4) 0.5944(10) 0.9532(11)
C11_4 C 0.6160(4) 0.5589(10) 0.9292(11)
C12_4 C 0.5829(4) 0.5153(11) 0.9050(10)
C13_4 C 0.5506(4) 0.5605(12) 0.8973(11)
C14_3 C 0.5829(4) 0.4299(11) 0.8937(11)
H5_4 H 0.550292 0.619630 0.905208
C15_4 C 0.5181(4) 0.5156(11) 0.8775(11)
C16_3 C 0.5506(4) 0.3866(12) 0.8769(12)
H6_3 H 0.605126 0.399948 0.897376
C17_3 C 0.5180(4) 0.4299(12) 0.8692(11)
C18_4 C 0.4846(4) 0.5628(13) 0.8698(12)
C19_3 C 0.5517(5) 0.2970(14) 0.8680(18)
H7_2 H 0.495968 0.400537 0.858273
C20_4 C 0.4566(4) 0.5979(13) 0.8626(12)
C21_3 C 0.5532(7) 0.2247(17) 0.863(3)
C22_4 C 0.4211(4) 0.6362(12) 0.8616(12)
C23_3 C 0.5574(7) 0.1349(11) 0.867(3)
C24_4 C 0.4149(5) 0.7212(13) 0.8763(15)
C25_4 C 0.3906(4) 0.5845(11) 0.8527(12)
C26_3 C 0.5251(6) 0.0896(17) 0.872(4)
C27_3 C 0.5897(6) 0.0942(14) 0.843(3)
C28_4 C 0.3792(4) 0.7497(11) 0.8801(15)
H8_4 H 0.434531 0.759078 0.883548
H9_4 H 0.393348 0.525874 0.842643
C29_4 C 0.3568(4) 0.6199(10) 0.8586(12)
H10_3 H 0.503118 0.117353 0.888678
C30_3 C 0.5252(8) 0.0037(17) 0.853(4)
C31_3 C 0.5897(8) 0.0083(14) 0.823(4)
H11_3 H 0.611697 0.124967 0.839292
H12_4 H 0.375385 0.808427 0.885494
H13_4 H 0.336311 0.584611 0.849400
N6_3 N 0.1491(3) 0.2017(8) 0.8768(9)
C18_5 C 0.0154(4) 0.0628(13) 0.8698(12)
C20_5 C 0.0434(4) 0.0979(13) 0.8626(12)
C22_5 C 0.0789(4) 0.1362(12) 0.8616(12)
C24_5 C 0.0851(5) 0.2212(13) 0.8763(15)
C25_5 C 0.1094(4) 0.0845(11) 0.8527(12)
C28_5 C 0.1208(4) 0.2497(11) 0.8801(15)
H8_5 H 0.065469 0.259078 0.883548
H9_5 H 0.106652 0.025874 0.842643
C29_5 C 0.1432(4) 0.1199(10) 0.8586(12)
H12_5 H 0.124615 0.308427 0.885494
H13_5 H 0.163689 0.084611 0.849400
Fe2_2 Fe 0.20406(5) 0.24827(11) 0.90739(14)
Au1_5 Au 0.72334(2) 0.50627(3) 0.32692(4)
C1_5 C 0.7284(4) 0.4063(9) 0.2403(11)
C2_5 C 0.7128(4) 0.6054(9) 0.4118(11)
N1_5 N 0.7274(3) 0.3467(7) 0.1897(9)
N2_3 N 0.7069(3) 0.6605(8) 0.4671(9)
Fe1_2 Fe 0.70406(5) 0.25173(11) 0.09261(14)
N3_5 N 0.7583(3) 0.2031(7) 0.0515(8)
N4_5 N 0.6984(3) 0.1671(7) 0.2207(9)
C4_5 C 0.7681(4) 0.1269(9) 0.0815(11)
C5_5 C 0.6944(4) 0.1124(8) 0.2752(10)
C8_5 C 0.7998(4) 0.0888(9) 0.0512(12)
H2_5 H 0.752381 0.097013 0.126221
Au2_5 Au 0.69033(2) 0.01243(3) 0.36552(4)
H4_5 H 0.805721 0.034020 0.074522
Fe3_2 Fe 0.70406(5) 0.74827(11) 0.59261(14)
N10_3 N 0.6491(3) 0.2983(8) 0.1232(9)
C3_5 C 0.7810(4) 0.2446(9) 0.9883(11)
H1_5 H 0.774632 0.299362 0.966348
C7_5 C 0.8130(4) 0.2109(10) 0.9544(11)
H3_5 H 0.828211 0.241939 0.909391
C9_5 C 0.8231(4) 0.1319(9) 0.9859(11)
C10_5 C 0.8567(4) 0.0944(10) 0.9532(11)
C11_5 C 0.8840(4) 0.0589(10) 0.9292(11)
C12_5 C 0.9171(4) 0.0153(11) 0.9050(10)
C13_5 C 0.9494(4) 0.0605(12) 0.8973(11)
H5_5 H 0.949708 0.119630 0.905208
C15_5 C 0.9819(4) 0.0156(11) 0.8775(11)
N8_3 N 0.7069(3) 0.3395(8) 0.9671(9)
N9_3 N 0.6840(3) 0.1503(8) 0.9972(10)
N5_3 N 0.6840(3) 0.8497(8) 0.4972(10)
C6_5 C 0.6852(4) 0.9084(8) 0.4502(11)
C3_6 C 0.2810(4) 0.2554(9) 0.0117(11)
H1_6 H 0.274632 0.200638 0.033652
C7_6 C 0.3130(4) 0.2891(10) 0.0456(11)
H3_6 H 0.328211 0.258061 0.090609
C9_6 C 0.3231(4) 0.3681(9) 0.0141(11)
C10_6 C 0.3567(4) 0.4056(10) 0.0468(11)
C11_6 C 0.3840(4) 0.4411(10) 0.0708(11)
C12_6 C 0.4171(4) 0.4847(11) 0.0950(10)
C13_6 C 0.4494(4) 0.4395(12) 0.1027(11)
C14_4 C 0.4171(4) 0.5701(11) 0.1063(11)
H5_6 H 0.449708 0.380370 0.094792
C15_6 C 0.4819(4) 0.4844(11) 0.1225(11)
C16_4 C 0.4494(4) 0.6134(12) 0.1231(12)
H6_4 H 0.394874 0.600052 0.102624
C17_4 C 0.4820(4) 0.5701(12) 0.1308(11)
C18_6 C 0.5154(4) 0.4372(13) 0.1302(12)
C19_4 C 0.4483(5) 0.7030(14) 0.1320(18)
H7_3 H 0.504032 0.599463 0.141727
C20_6 C 0.5434(4) 0.4021(13) 0.1374(12)
C21_4 C 0.4468(7) 0.7753(17) 0.137(3)
C22_6 C 0.5789(4) 0.3638(12) 0.1384(12)
C23_4 C 0.4426(7) 0.8651(11) 0.133(3)
C24_6 C 0.5851(5) 0.2788(13) 0.1237(15)
C25_6 C 0.6094(4) 0.4155(11) 0.1473(12)
C26_4 C 0.4749(6) 0.9104(17) 0.128(4)
C27_4 C 0.4103(6) 0.9058(14) 0.157(3)
C28_6 C 0.6208(4) 0.2503(11) 0.1199(15)
H8_6 H 0.565469 0.240922 0.116452
H9_6 H 0.606652 0.474126 0.157357
C29_6 C 0.6432(4) 0.3801(10) 0.1414(12)
H10_4 H 0.496882 0.882647 0.111322
C30_4 C 0.4748(8) 0.9963(17) 0.147(4)
C31_4 C 0.4103(8) 0.9917(14) 0.177(4)
H11_4 H 0.388303 0.875033 0.160708
H12_6 H 0.624615 0.191573 0.114506
H13_6 H 0.663689 0.415389 0.150600
N8_4 N 0.2069(3) 0.1605(8) 0.0329(9)
N9_4 N 0.1840(3) 0.3497(8) 0.0028(10)
C1_6 C 0.2284(4) 0.0937(9) 0.7597(11)
N1_6 N 0.2274(3) 0.1533(7) 0.8103(9)
N3_6 N 0.2583(3) 0.2969(7) 0.9485(8)
N4_6 N 0.1984(3) 0.3329(7) 0.7793(9)
N5_4 N 0.1840(3) 0.6503(8) 0.5028(10)
C4_6 C 0.2681(4) 0.3731(9) 0.9185(11)
C5_6 C 0.1944(4) 0.3876(8) 0.7248(10)
C6_6 C 0.1852(4) 0.5916(8) 0.5498(11)
C8_6 C 0.2998(4) 0.4112(9) 0.9488(12)
H2_6 H 0.252381 0.402987 0.873779
Au2_6 Au 0.19033(2) 0.48757(3) 0.63448(4)
H4_6 H 0.305721 0.465980 0.925478
Fe4_2 Fe 0.20406(5) 0.75173(11) 0.40739(14)
Au1_6 Au 0.22334(2) 0.99373(3) 0.67308(4)
C2_6 C 0.2128(4) 0.8946(9) 0.5882(11)
N2_4 N 0.2069(3) 0.8395(8) 0.5329(9)
Au1_7 Au 0.22334(2) 0.00627(3) 0.17308(4)
C2_7 C 0.2128(4) 0.1054(9) 0.0882(11)
C1_7 C 0.2284(4) 0.9063(9) 0.2597(11)
N1_7 N 0.2274(3) 0.8467(7) 0.3103(9)
N3_7 N 0.2583(3) 0.7031(7) 0.4485(8)
N4_7 N 0.1984(3) 0.6671(7) 0.2793(9)
N6_4 N 0.6491(3) 0.7017(8) 0.6232(9)
C3_7 C 0.2810(4) 0.7446(9) 0.5117(11)
C4_7 C 0.2681(4) 0.6269(9) 0.4185(11)
C5_7 C 0.1944(4) 0.6124(8) 0.2248(10)
C6_7 C 0.1852(4) 0.4084(8) 0.0498(11)
H1_7 H 0.274632 0.799362 0.533652
C7_7 C 0.3130(4) 0.7109(10) 0.5456(11)
C8_7 C 0.2998(4) 0.5888(9) 0.4488(12)
H2_7 H 0.252381 0.597013 0.373779
Au2_7 Au 0.19033(2) 0.51243(3) 0.13448(4)
H3_7 H 0.328211 0.741939 0.590609
C9_7 C 0.3231(4) 0.6319(9) 0.5141(11)
H4_7 H 0.305721 0.534020 0.425478
C10_7 C 0.3567(4) 0.5944(10) 0.5468(11)
C11_7 C 0.3840(4) 0.5589(10) 0.5708(11)
C12_7 C 0.4171(4) 0.5153(11) 0.5950(10)
C13_7 C 0.4494(4) 0.5605(12) 0.6027(11)
C14_5 C 0.4171(4) 0.4299(11) 0.6063(11)
H5_7 H 0.449708 0.619630 0.594792
C15_7 C 0.4819(4) 0.5156(11) 0.6225(11)
C16_5 C 0.4494(4) 0.3866(12) 0.6231(12)
H6_5 H 0.394874 0.399948 0.602624
C17_5 C 0.4820(4) 0.4299(12) 0.6308(11)
C18_7 C 0.5154(4) 0.5628(13) 0.6302(12)
C19_5 C 0.4483(5) 0.2970(14) 0.6320(18)
H7_4 H 0.504032 0.400537 0.641727
C20_7 C 0.5434(4) 0.5979(13) 0.6374(12)
C21_5 C 0.4468(7) 0.2247(17) 0.637(3)
C22_7 C 0.5789(4) 0.6362(12) 0.6384(12)
C23_5 C 0.4426(7) 0.1349(11) 0.633(3)
C24_7 C 0.5851(5) 0.7212(13) 0.6237(15)
C25_7 C 0.6094(4) 0.5845(11) 0.6473(12)
C26_5 C 0.4749(6) 0.0896(17) 0.628(4)
C27_5 C 0.4103(6) 0.0942(14) 0.657(3)
C28_7 C 0.6208(4) 0.7497(11) 0.6199(15)
H8_7 H 0.565469 0.759078 0.616452
H9_7 H 0.606652 0.525874 0.657357
C29_7 C 0.6432(4) 0.6199(10) 0.6414(12)
H10_5 H 0.496882 0.117353 0.611322
C30_5 C 0.4748(8) 0.0037(17) 0.647(4)
C31_5 C 0.4103(8) 0.0083(14) 0.677(4)
H11_5 H 0.388303 0.124967 0.660708
H12_7 H 0.624615 0.808427 0.614506
H13_7 H 0.663689 0.584611 0.650600
N10_4 N 0.1491(3) 0.7983(8) 0.3768(9)
C18_8 C 0.0154(4) 0.9372(13) 0.3698(12)
C20_8 C 0.0434(4) 0.9021(13) 0.3626(12)
C22_8 C 0.0789(4) 0.8638(12) 0.3616(12)
C24_8 C 0.0851(5) 0.7788(13) 0.3763(15)
C25_8 C 0.1094(4) 0.9155(11) 0.3527(12)
C28_8 C 0.1208(4) 0.7503(11) 0.3801(15)
H8_8 H 0.065469 0.740922 0.383548
H9_8 H 0.106652 0.974126 0.342643
C29_8 C 0.1432(4) 0.8801(10) 0.3586(12)
H12_8 H 0.124615 0.691573 0.385494
H13_8 H 0.163689 0.915389 0.349400
C6_8 C 0.6852(4) 0.0916(8) 0.9502(11)
C14_6 C 0.9171(4) 0.0701(11) 0.3937(11)
C16_6 C 0.9494(4) 0.1134(12) 0.3769(12)
H6_6 H 0.894874 0.100052 0.397376
C17_6 C 0.9820(4) 0.0701(12) 0.3692(11)
C19_6 C 0.9483(5) 0.2030(14) 0.3680(18)
C21_6 C 0.9468(7) 0.2753(17) 0.363(3)
C23_6 C 0.9426(7) 0.3651(11) 0.367(3)
C26_6 C 0.9749(6) 0.4104(17) 0.372(4)
C27_6 C 0.9103(6) 0.4058(14) 0.343(3)
H10_6 H 0.996882 0.382647 0.388678
C30_6 C 0.9748(8) 0.4963(17) 0.353(4)
C31_6 C 0.9103(8) 0.4917(14) 0.323(4)
H11_6 H 0.888303 0.375033 0.339292
N7_3 N 0.9426(10) 0.5369(12) 0.328(4)
H14_3 H 0.996807 0.527064 0.356206
H15_3 H 0.888320 0.519415 0.306764
Au1_8 Au 0.72334(2) 0.49373(3) 0.82692(4)
C1_8 C 0.7284(4) 0.5937(9) 0.7403(11)
C2_8 C 0.7128(4) 0.3946(9) 0.9118(11)
N1_8 N 0.7274(3) 0.6533(7) 0.6897(9)
N3_8 N 0.7583(3) 0.7969(7) 0.5515(8)
N4_8 N 0.6984(3) 0.8329(7) 0.7207(9)
C3_8 C 0.7810(4) 0.7554(9) 0.4883(11)
C4_8 C 0.7681(4) 0.8731(9) 0.5815(11)
C5_8 C 0.6944(4) 0.8876(8) 0.7752(10)
H1_8 H 0.774632 0.700638 0.466348
C7_8 C 0.8130(4) 0.7891(10) 0.4544(11)
C8_8 C 0.7998(4) 0.9112(9) 0.5512(12)
H2_8 H 0.752381 0.902987 0.626221
Au2_8 Au 0.69033(2) 0.98757(3) 0.86552(4)
H3_8 H 0.828211 0.758061 0.409391
C9_8 C 0.8231(4) 0.8681(9) 0.4859(11)
H4_8 H 0.805721 0.965980 0.574522
C10_8 C 0.8567(4) 0.9056(10) 0.4532(11)
C11_8 C 0.8840(4) 0.9411(10) 0.4292(11)
C12_8 C 0.9171(4) 0.9847(11) 0.4050(10)
C13_8 C 0.9494(4) 0.9395(12) 0.3973(11)
H5_8 H 0.949708 0.880370 0.405208
C15_8 C 0.9819(4) 0.9844(11) 0.3775(11)
H7_5 H 0.004032 0.900537 0.858273
C14_7 C 0.9171(4) 0.9299(11) 0.8937(11)
C16_7 C 0.9494(4) 0.8866(12) 0.8769(12)
H6_7 H 0.894874 0.899948 0.897376
C17_7 C 0.9820(4) 0.9299(12) 0.8692(11)
C19_7 C 0.9483(5) 0.7970(14) 0.8680(18)
C21_7 C 0.9468(7) 0.7247(17) 0.863(3)
C23_7 C 0.9426(7) 0.6349(11) 0.867(3)
C26_7 C 0.9749(6) 0.5896(17) 0.872(4)
C27_7 C 0.9103(6) 0.5942(14) 0.843(3)
H10_7 H 0.996882 0.617353 0.888678
C30_7 C 0.9748(8) 0.5037(17) 0.853(4)
C31_7 C 0.9103(8) 0.5083(14) 0.823(4)
H11_7 H 0.888303 0.624967 0.839292
N7_4 N 0.9426(10) 0.4631(12) 0.828(4)
H14_4 H 0.996807 0.472936 0.856206
H15_4 H 0.888320 0.480585 0.806764
N7_5 N 0.4426(10) 0.0369(12) 0.172(4)
H14_5 H 0.496807 0.027064 0.143794
H15_5 H 0.388320 0.019415 0.193236
H7_6 H 0.995968 0.900537 0.641727
N7_6 N 0.4426(10) 0.9631(12) 0.672(4)
H14_6 H 0.496807 0.972936 0.643794
H15_6 H 0.388320 0.980585 0.693236
C14_8 C 0.0829(4) 0.0701(11) 0.1063(11)
C16_8 C 0.0506(4) 0.1134(12) 0.1231(12)
H6_8 H 0.105126 0.100052 0.102624
C17_8 C 0.0180(4) 0.0701(12) 0.1308(11)
C19_8 C 0.0517(5) 0.2030(14) 0.1320(18)
C21_8 C 0.0532(7) 0.2753(17) 0.137(3)
C23_8 C 0.0574(7) 0.3651(11) 0.133(3)
C26_8 C 0.0251(6) 0.4104(17) 0.128(4)
C27_8 C 0.0897(6) 0.4058(14) 0.157(3)
H10_8 H 0.003118 0.382647 0.111322
C30_8 C 0.0252(8) 0.4963(17) 0.147(4)
C31_8 C 0.0897(8) 0.4917(14) 0.177(4)
H11_8 H 0.111697 0.375033 0.160708
N7_7 N 0.0574(10) 0.5369(12) 0.172(4)
H14_7 H 0.003193 0.527064 0.143794
H15_7 H 0.111680 0.519415 0.193236
H7_7 H 0.995968 0.099463 0.141727
N7_8 N 0.5574(10) 0.9631(12) 0.828(4)
H14_8 H 0.503193 0.972936 0.856206
H15_8 H 0.611680 0.980585 0.806764
H7_8 H 0.004032 0.099463 0.358273
loop_
_geom_bond_atom_site_label_1
_geom_bond_atom_site_label_2
_geom_bond_site_symmetry_1
_geom_bond_site_symmetry_2
C1 N1 1_555 1_555
N1 Fe1 1_555 1_555
Fe1 N3 1_555 1_555
N3 C3 1_555 1_555
N4 Fe1 1_555 1_555
N5 C6 1_555 1_555
N6 C28 1_555 1_555
C3 H1 1_555 1_555
C4 N3 1_555 1_555
C5 N4 1_555 1_555
C6 Au2 1_555 1_555
C7 C3 1_555 1_555
C8 C4 1_555 1_555
H2 C4 1_555 1_555
Au2 C5 1_555 1_555
H3 C7 1_555 1_555
C9 C7 1_555 1_555
H4 C8 1_555 1_555
C10 C9 1_555 1_555
C11 C10 1_555 1_555
C12 C11 1_555 1_555
C13 C12 1_555 1_555
C14 C12 1_555 1_555
H5 C13 1_555 1_555
C15 C13 1_555 1_555
C16 C14 1_555 1_555
H6 C14 1_555 1_555
C17 C15 1_555 1_555
C18 C15 1_555 1_555
C19 C16 1_555 1_555
H7 C17 1_555 1_555
C20 C18 1_555 1_555
C21 C19 1_555 1_555
C22 C20 1_555 1_555
C23 C21 1_555 1_555
C24 C22 1_555 1_555
C25 C22 1_555 1_555
C26 C23 1_555 1_555
C27 C23 1_555 1_555
C28 C24 1_555 1_555
H8 C24 1_555 1_555
H9 C25 1_555 1_555
C29 N6 1_555 1_555
H10 C26 1_555 1_555
C30 C26 1_555 1_555
C31 C27 1_555 1_555
H11 C27 1_555 1_555
H12 C28 1_555 1_555
H13 C29 1_555 1_555
N8 Fe1 1_555 1_555
Fe2 N6 1_555 1_555
N9 Fe1 1_555 1_555
N10 Fe1 1_555 1_555
C8 C9 1_555 1_555
C16 C17 1_555 1_555
C25 C29 1_555 1_555
C2 Au1 1_555 1_555
N2 C2 1_555 1_555
Au1_2 C1_2 1_555 1_555
C1_2 N1_2 1_555 1_555
C2_2 Au1_2 1_555 1_555
N1_2 Fe2 1_555 1_555
N2_2 C2_2 1_555 1_555
Fe2 N3_2 1_555 1_555
N3_2 C3_2 1_555 1_555
N4_2 Fe2 1_555 1_555
C3_2 H1_2 1_555 1_555
C4_2 N3_2 1_555 1_555
C5_2 N4_2 1_555 1_555
C7_2 C3_2 1_555 1_555
C8_2 C4_2 1_555 1_555
H2_2 C4_2 1_555 1_555
Au2_2 C5_2 1_555 1_555
H3_2 C7_2 1_555 1_555
C9_2 C7_2 1_555 1_555
H4_2 C8_2 1_555 1_555
C10_2 C9_2 1_555 1_555
C11_2 C10_2 1_555 1_555
C12_2 C11_2 1_555 1_555
C13_2 C12_2 1_555 1_555
H5_2 C13_2 1_555 1_555
C15_2 C13_2 1_555 1_555
N8_2 Fe2 1_555 1_555
N9_2 Fe2 1_555 1_555
C8_2 C9_2 1_555 1_555
N5_2 C6_2 1_555 1_555
C16_2 C14_2 1_555 1_555
H6_2 C14_2 1_555 1_555
C19_2 C16_2 1_555 1_555
C21_2 C19_2 1_555 1_555
C23_2 C21_2 1_555 1_555
C26_2 C23_2 1_555 1_555
C27_2 C23_2 1_555 1_555
H10_2 C26_2 1_555 1_555
C30_2 C26_2 1_555 1_555
C31_2 C27_2 1_555 1_555
H11_2 C27_2 1_555 1_555
N7_2 C30_2 1_555 1_555
H14_2 C30_2 1_555 1_555
H15_2 C31_2 1_555 1_555
C16_2 C17_2 1_555 1_555
C31_2 N7_2 1_555 1_555
N10 C28_2 1_555 1_555
C20_2 C18_2 1_555 1_555
C22_2 C20_2 1_555 1_555
C24_2 C22_2 1_555 1_555
C25_2 C22_2 1_555 1_555
C28_2 C24_2 1_555 1_555
H8_2 C24_2 1_555 1_555
H9_2 C25_2 1_555 1_555
C29_2 N10 1_555 1_555
H12_2 C28_2 1_555 1_555
H13_2 C29_2 1_555 1_555
C25_2 C29_2 1_555 1_555
N9_2 C6_3 1_555 1_555
C3_3 H1_3 1_555 1_555
C7_3 C3_3 1_555 1_555
H3_3 C7_3 1_555 1_555
C9_3 C7_3 1_555 1_555
C10_3 C9_3 1_555 1_555
C11_3 C10_3 1_555 1_555
C12_3 C11_3 1_555 1_555
C13_3 C12_3 1_555 1_555
H5_3 C13_3 1_555 1_555
C15_3 C13_3 1_555 1_555
Au1_3 C1_3 1_555 1_555
C1_3 N1_3 1_555 1_555
C2_3 Au1_3 1_555 1_555
N1_3 Fe3 1_555 1_555
N8_2 C2_3 1_555 1_555
Fe3 N3_3 1_555 1_555
N4_3 Fe3 1_555 1_555
C4_3 N3_3 1_555 1_555
C5_3 N4_3 1_555 1_555
C8_3 C4_3 1_555 1_555
H2_3 C4_3 1_555 1_555
Au2_3 C5_3 1_555 1_555
H4_3 C8_3 1_555 1_555
N10_2 Fe3 1_555 1_555
N6_2 C28_3 1_555 1_555
C20_3 C18_3 1_555 1_555
C22_3 C20_3 1_555 1_555
C24_3 C22_3 1_555 1_555
C25_3 C22_3 1_555 1_555
C28_3 C24_3 1_555 1_555
H8_3 C24_3 1_555 1_555
H9_3 C25_3 1_555 1_555
C29_3 N6_2 1_555 1_555
H12_3 C28_3 1_555 1_555
H13_3 C29_3 1_555 1_555
Fe4 N6_2 1_555 1_555
C25_3 C29_3 1_555 1_555
C2_4 Au1_4 1_555 1_555
N8 C2_4 1_555 1_555
C1_4 N1_4 1_555 1_555
N1_4 Fe4 1_555 1_555
Fe4 N3_4 1_555 1_555
N4_4 Fe4 1_555 1_555
N9 C6_4 1_555 1_555
C4_4 N3_4 1_555 1_555
C5_4 N4_4 1_555 1_555
C6_4 Au2_4 1_555 1_555
C8_4 C4_4 1_555 1_555
H2_4 C4_4 1_555 1_555
Au2_4 C5_4 1_555 1_555
H4_4 C8_4 1_555 1_555
N10_2 C28_4 1_555 1_555
C3_4 H1_4 1_555 1_555
C7_4 C3_4 1_555 1_555
H3_4 C7_4 1_555 1_555
C9_4 C7_4 1_555 1_555
C10_4 C9_4 1_555 1_555
C11_4 C10_4 1_555 1_555
C12_4 C11_4 1_555 1_555
C13_4 C12_4 1_555 1_555
C14_3 C12_4 1_555 1_555
H5_4 C13_4 1_555 1_555
C15_4 C13_4 1_555 1_555
C16_3 C14_3 1_555 1_555
H6_3 C14_3 1_555 1_555
C17_3 C15_4 1_555 1_555
C18_4 C15_4 1_555 1_555
C19_3 C16_3 1_555 1_555
H7_2 C17_3 1_555 1_555
C20_4 C18_4 1_555 1_555
C21_3 C19_3 1_555 1_555
C22_4 C20_4 1_555 1_555
C23_3 C21_3 1_555 1_555
C24_4 C22_4 1_555 1_555
C25_4 C22_4 1_555 1_555
C26_3 C23_3 1_555 1_555
C27_3 C23_3 1_555 1_555
C28_4 C24_4 1_555 1_555
H8_4 C24_4 1_555 1_555
H9_4 C25_4 1_555 1_555
C29_4 N10_2 1_555 1_555
H10_3 C26_3 1_555 1_555
C30_3 C26_3 1_555 1_555
C31_3 C27_3 1_555 1_555
H11_3 C27_3 1_555 1_555
H12_4 C28_4 1_555 1_555
H13_4 C29_4 1_555 1_555
C16_3 C17_3 1_555 1_555
C25_4 C29_4 1_555 1_555
N6_3 C28_5 1_555 1_555
C20_5 C18_5 1_555 1_555
C22_5 C20_5 1_555 1_555
C24_5 C22_5 1_555 1_555
C25_5 C22_5 1_555 1_555
C28_5 C24_5 1_555 1_555
H8_5 C24_5 1_555 1_555
H9_5 C25_5 1_555 1_555
C29_5 N6_3 1_555 1_555
H12_5 C28_5 1_555 1_555
H13_5 C29_5 1_555 1_555
Fe2_2 N6_3 1_555 1_555
C25_5 C29_5 1_555 1_555
Au1_5 C1_5 1_555 1_555
C1_5 N1_5 1_555 1_555
C2_5 Au1_5 1_555 1_555
N1_5 Fe1_2 1_555 1_555
N2_3 C2_5 1_555 1_555
Fe1_2 N3_5 1_555 1_555
N4_5 Fe1_2 1_555 1_555
C4_5 N3_5 1_555 1_555
C5_5 N4_5 1_555 1_555
C8_5 C4_5 1_555 1_555
H2_5 C4_5 1_555 1_555
Au2_5 C5_5 1_555 1_555
H4_5 C8_5 1_555 1_555
Fe3_2 N2_3 1_555 1_555
N10_3 Fe1_2 1_555 1_555
C3_5 H1_5 1_555 1_555
C7_5 C3_5 1_555 1_555
H3_5 C7_5 1_555 1_555
C9_5 C7_5 1_555 1_555
C10_5 C9_5 1_555 1_555
C11_5 C10_5 1_555 1_555
C12_5 C11_5 1_555 1_555
C13_5 C12_5 1_555 1_555
H5_5 C13_5 1_555 1_555
C15_5 C13_5 1_555 1_555
N5_3 C6_5 1_555 1_555
Fe3_2 N5_3 1_555 1_555
N10_3 C28_6 1_555 1_555
C3_6 H1_6 1_555 1_555
C7_6 C3_6 1_555 1_555
H3_6 C7_6 1_555 1_555
C9_6 C7_6 1_555 1_555
C10_6 C9_6 1_555 1_555
C11_6 C10_6 1_555 1_555
C12_6 C11_6 1_555 1_555
C13_6 C12_6 1_555 1_555
C14_4 C12_6 1_555 1_555
H5_6 C13_6 1_555 1_555
C15_6 C13_6 1_555 1_555
C16_4 C14_4 1_555 1_555
H6_4 C14_4 1_555 1_555
C17_4 C15_6 1_555 1_555
C18_6 C15_6 1_555 1_555
C19_4 C16_4 1_555 1_555
H7_3 C17_4 1_555 1_555
C20_6 C18_6 1_555 1_555
C21_4 C19_4 1_555 1_555
C22_6 C20_6 1_555 1_555
C23_4 C21_4 1_555 1_555
C24_6 C22_6 1_555 1_555
C25_6 C22_6 1_555 1_555
C26_4 C23_4 1_555 1_555
C27_4 C23_4 1_555 1_555
C28_6 C24_6 1_555 1_555
H8_6 C24_6 1_555 1_555
H9_6 C25_6 1_555 1_555
C29_6 N10_3 1_555 1_555
H10_4 C26_4 1_555 1_555
C30_4 C26_4 1_555 1_555
C31_4 C27_4 1_555 1_555
H11_4 C27_4 1_555 1_555
H12_6 C28_6 1_555 1_555
H13_6 C29_6 1_555 1_555
C16_4 C17_4 1_555 1_555
C25_6 C29_6 1_555 1_555
C1_6 N1_6 1_555 1_555
N1_6 Fe2_2 1_555 1_555
Fe2_2 N3_6 1_555 1_555
N4_6 Fe2_2 1_555 1_555
N5_4 C6_6 1_555 1_555
C4_6 N3_6 1_555 1_555
C5_6 N4_6 1_555 1_555
C6_6 Au2_6 1_555 1_555
C8_6 C4_6 1_555 1_555
H2_6 C4_6 1_555 1_555
Au2_6 C5_6 1_555 1_555
H4_6 C8_6 1_555 1_555
Fe4_2 N5_4 1_555 1_555
C2_6 Au1_6 1_555 1_555
N2_4 C2_6 1_555 1_555
Fe4_2 N2_4 1_555 1_555
C2_7 Au1_7 1_555 1_555
N8_4 C2_7 1_555 1_555
C1_7 N1_7 1_555 1_555
N1_7 Fe4_2 1_555 1_555
Fe4_2 N3_7 1_555 1_555
N3_7 C3_7 1_555 1_555
N4_7 Fe4_2 1_555 1_555
N9_4 C6_7 1_555 1_555
N6_4 C28_7 1_555 1_555
C3_7 H1_7 1_555 1_555
C4_7 N3_7 1_555 1_555
C5_7 N4_7 1_555 1_555
C6_7 Au2_7 1_555 1_555
C7_7 C3_7 1_555 1_555
C8_7 C4_7 1_555 1_555
H2_7 C4_7 1_555 1_555
Au2_7 C5_7 1_555 1_555
H3_7 C7_7 1_555 1_555
C9_7 C7_7 1_555 1_555
H4_7 C8_7 1_555 1_555
C10_7 C9_7 1_555 1_555
C11_7 C10_7 1_555 1_555
C12_7 C11_7 1_555 1_555
C13_7 C12_7 1_555 1_555
C14_5 C12_7 1_555 1_555
H5_7 C13_7 1_555 1_555
C15_7 C13_7 1_555 1_555
C16_5 C14_5 1_555 1_555
H6_5 C14_5 1_555 1_555
C17_5 C15_7 1_555 1_555
C18_7 C15_7 1_555 1_555
C19_5 C16_5 1_555 1_555
H7_4 C17_5 1_555 1_555
C20_7 C18_7 1_555 1_555
C21_5 C19_5 1_555 1_555
C22_7 C20_7 1_555 1_555
C23_5 C21_5 1_555 1_555
C24_7 C22_7 1_555 1_555
C25_7 C22_7 1_555 1_555
C26_5 C23_5 1_555 1_555
C27_5 C23_5 1_555 1_555
C28_7 C24_7 1_555 1_555
H8_7 C24_7 1_555 1_555
H9_7 C25_7 1_555 1_555
C29_7 N6_4 1_555 1_555
H10_5 C26_5 1_555 1_555
C30_5 C26_5 1_555 1_555
C31_5 C27_5 1_555 1_555
H11_5 C27_5 1_555 1_555
H12_7 C28_7 1_555 1_555
H13_7 C29_7 1_555 1_555
Fe3_2 N6_4 1_555 1_555
N10_4 Fe4_2 1_555 1_555
C8_7 C9_7 1_555 1_555
C16_5 C17_5 1_555 1_555
C25_7 C29_7 1_555 1_555
N10_4 C28_8 1_555 1_555
C20_8 C18_8 1_555 1_555
C22_8 C20_8 1_555 1_555
C24_8 C22_8 1_555 1_555
C25_8 C22_8 1_555 1_555
C28_8 C24_8 1_555 1_555
H8_8 C24_8 1_555 1_555
H9_8 C25_8 1_555 1_555
C29_8 N10_4 1_555 1_555
H12_8 C28_8 1_555 1_555
H13_8 C29_8 1_555 1_555
C25_8 C29_8 1_555 1_555
N9_3 C6_8 1_555 1_555
C16_6 C14_6 1_555 1_555
H6_6 C14_6 1_555 1_555
C19_6 C16_6 1_555 1_555
C21_6 C19_6 1_555 1_555
C23_6 C21_6 1_555 1_555
C26_6 C23_6 1_555 1_555
C27_6 C23_6 1_555 1_555
H10_6 C26_6 1_555 1_555
C30_6 C26_6 1_555 1_555
C31_6 C27_6 1_555 1_555
H11_6 C27_6 1_555 1_555
N7_3 C30_6 1_555 1_555
H14_3 C30_6 1_555 1_555
H15_3 C31_6 1_555 1_555
C16_6 C17_6 1_555 1_555
C31_6 N7_3 1_555 1_555
Au1_8 C1_8 1_555 1_555
C1_8 N1_8 1_555 1_555
C2_8 Au1_8 1_555 1_555
N1_8 Fe3_2 1_555 1_555
N8_3 C2_8 1_555 1_555
Fe3_2 N3_8 1_555 1_555
N3_8 C3_8 1_555 1_555
N4_8 Fe3_2 1_555 1_555
C3_8 H1_8 1_555 1_555
C4_8 N3_8 1_555 1_555
C5_8 N4_8 1_555 1_555
C7_8 C3_8 1_555 1_555
C8_8 C4_8 1_555 1_555
H2_8 C4_8 1_555 1_555
Au2_8 C5_8 1_555 1_555
H3_8 C7_8 1_555 1_555
C9_8 C7_8 1_555 1_555
H4_8 C8_8 1_555 1_555
C10_8 C9_8 1_555 1_555
C11_8 C10_8 1_555 1_555
C12_8 C11_8 1_555 1_555
C13_8 C12_8 1_555 1_555
H5_8 C13_8 1_555 1_555
C15_8 C13_8 1_555 1_555
C8_8 C9_8 1_555 1_555
C16_7 C14_7 1_555 1_555
H6_7 C14_7 1_555 1_555
C19_7 C16_7 1_555 1_555
C21_7 C19_7 1_555 1_555
C23_7 C21_7 1_555 1_555
C26_7 C23_7 1_555 1_555
C27_7 C23_7 1_555 1_555
H10_7 C26_7 1_555 1_555
C30_7 C26_7 1_555 1_555
C31_7 C27_7 1_555 1_555
H11_7 C27_7 1_555 1_555
N7_4 C30_7 1_555 1_555
H14_4 C30_7 1_555 1_555
H15_4 C31_7 1_555 1_555
C16_7 C17_7 1_555 1_555
C31_7 N7_4 1_555 1_555
C16_8 C14_8 1_555 1_555
H6_8 C14_8 1_555 1_555
C19_8 C16_8 1_555 1_555
C21_8 C19_8 1_555 1_555
C23_8 C21_8 1_555 1_555
C26_8 C23_8 1_555 1_555
C27_8 C23_8 1_555 1_555
H10_8 C26_8 1_555 1_555
C30_8 C26_8 1_555 1_555
C31_8 C27_8 1_555 1_555
H11_8 C27_8 1_555 1_555
N7_7 C30_8 1_555 1_555
H14_7 C30_8 1_555 1_555
H15_7 C31_8 1_555 1_555
C16_8 C17_8 1_555 1_555
C31_8 N7_7 1_555 1_555

#END
