
###############################################################################
#
# This file contains modified crystal structure data generated from the
# MOF subset of the Cambridge Structural Database (CSD) v543 
# hosted by the Cambridge Crystallographic Data Centre (CCDC).
#
# This work is licensed under the Creative Commons
# Attribution-NonCommercial-ShareAlike 4.0 International License.
# To view a copy of this license, visit
# http://creativecommons.org/licenses/by-nc-sa/4.0/
# or send a letter to
# Creative Commons, PO Box 1866, Mountain View, CA 94042, USA.
#
# CIF created using the CSD Python API on 29 September 2022
# The structure has been converted into the P1 space group
# The structure has a 3D framework
# The original CSD entry KIKYEL01 is in the orthorhombic crystal system
# The framework has been calculated to contain at least 10.0% void space
# The void calculation uses a probe of radius 1.32A, grid spacing 0.4
#
###############################################################################

data_KIKYEL01
_chemical_formula_moiety         '(C248 H120 Ag16 Fe8 N56)n'
_symmetry_cell_setting           triclinic
_symmetry_space_group_name_H-M   'P 1'
_symmetry_Int_Tables_number      1
_space_group_name_Hall           'P 1'
loop_
_symmetry_equiv_pos_site_id
_symmetry_equiv_pos_as_xyz
1 x,y,z
_cell_length_a                   36.8058(19)
_cell_length_b                   15.8826(5)
_cell_length_c                   13.4475(5)
_cell_angle_alpha                90
_cell_angle_beta                 90
_cell_angle_gamma                90
_cell_volume                     7861.03
loop_
_atom_site_label
_atom_site_type_symbol
_atom_site_fract_x
_atom_site_fract_y
_atom_site_fract_z
N5 N 0.5639(4) 0.0385(7) 0.2397(13)
C25 C 0.5914(3) 0.0010(9) 0.1847(14)
H12 H 0.612316 0.031195 0.169348
H15 H 0.514188 0.018518 0.299486
Fe1 Fe 0.29628(2) 0.25136(4) 0.10376(6)
N1 N 0.35186(16) 0.2983(3) 0.1349(4)
N3 N 0.31665(16) 0.1496(3) 0.0121(4)
C1 C 0.3803(2) 0.2498(5) 0.1268(9)
H1 H 0.376940 0.192263 0.118058
C2 C 0.4156(3) 0.2814(7) 0.1306(10)
H2 H 0.435123 0.244400 0.125261
C3 C 0.4222(2) 0.3648(5) 0.1420(6)
C4 C 0.3925(2) 0.4136(4) 0.1568(6)
H3 H 0.395236 0.470484 0.171212
C5 C 0.3587(2) 0.3790(4) 0.1505(6)
H4 H 0.338861 0.414903 0.157632
C6 C 0.4578(2) 0.3999(6) 0.1387(6)
C7 C 0.4856(2) 0.4371(6) 0.1311(6)
C8 C 0.51929(19) 0.4844(5) 0.1207(5)
C9 C 0.5519(2) 0.4403(5) 0.0996(5)
H5 H 0.552239 0.381947 0.093510
C10 C 0.58316(19) 0.4880(5) 0.0885(5)
C11 C 0.5833(2) 0.5731(5) 0.0996(5)
H6 H 0.605051 0.602630 0.093340
C12 C 0.5514(2) 0.6163(5) 0.1202(6)
C13 C 0.5193(2) 0.5714(6) 0.1301(6)
H7 H 0.497696 0.599704 0.143054
C14 C 0.6171(2) 0.4445(5) 0.0627(5)
C15 C 0.5519(3) 0.7086(6) 0.1287(9)
C16 C 0.5531(3) 0.7782(8) 0.1357(14)
H8 H 0.724960 0.203250 0.018537
C18 C 0.6875(2) 0.2927(5) 0.0340(6)
H9 H 0.672779 0.262326 0.077253
C19 C 0.67746(18) 0.3730(4) 0.0053(5)
C22 C 0.64501(19) 0.4106(4) 0.0397(6)
C26 C 0.5877(3) 0.9183(9) 0.1525(12)
H13 H 0.606132 0.893119 0.115659
C27 C 0.5565(4) 0.8731(6) 0.1754(13)
C28 C 0.5289(3) 0.9107(8) 0.2305(14)
H14 H 0.508005 0.880442 0.245797
C29 C 0.5326(4) 0.9934(9) 0.2626(13)
N8 N 0.24177(15) 0.2017(3) 0.0617(4)
N9 N 0.30122(17) 0.1677(3) 0.2283(4)
N10 N 0.27327(15) 0.3485(3) 0.1957(4)
N2 N 0.74177(15) 0.2983(3) 0.9383(4)
C17 C 0.7191(2) 0.2578(4) 0.9990(6)
C20 C 0.70116(19) 0.4151(4) 0.9429(6)
H10 H 0.695891 0.469532 0.921924
C21 C 0.7323(2) 0.3765(4) 0.9121(5)
H11 H 0.747838 0.406310 0.870512
C23 C 0.3161(2) 0.0892(4) 0.9655(5)
Ag2 Ag 0.27613(2) 0.49047(3) 0.83577(4)
N6 N 0.29381(17) 0.3372(3) 0.9802(4)
N7 N 0.27327(15) 0.6515(3) 0.6957(4)
C30 C 0.2885(2) 0.3896(4) 0.9250(5)
C31 C 0.27058(19) 0.5940(4) 0.7447(5)
Fe2 Fe 0.79628(2) 0.24864(4) 0.89624(6)
Fe4 Fe 0.29628(2) 0.74864(4) 0.60376(6)
Ag1 Ag 0.31071(2) 0.98594(3) 0.87766(5)
N4 N 0.30122(17) 0.8323(3) 0.7283(4)
C24 C 0.3054(2) 0.8847(4) 0.7844(5)
C17_2 C 0.2191(2) 0.2422(4) 0.0010(6)
C20_2 C 0.20116(19) 0.0849(4) 0.0571(6)
H10_2 H 0.195891 0.030468 0.078076
C21_2 C 0.2323(2) 0.1235(4) 0.0879(5)
H11_2 H 0.247838 0.093690 0.129488
Ag1_2 Ag 0.81071(2) 0.51406(3) 0.12234(5)
N4_2 N 0.80122(17) 0.6677(3) 0.2717(4)
C23_2 C 0.8161(2) 0.4108(4) 0.0345(5)
C24_2 C 0.8054(2) 0.6153(4) 0.2156(5)
Ag2_2 Ag 0.77613(2) 0.00953(3) 0.16423(4)
N6_2 N 0.79381(17) 0.1628(3) 0.0198(4)
C30_2 C 0.7885(2) 0.1104(4) 0.0750(5)
Fe3 Fe 0.79628(2) 0.75136(4) 0.39624(6)
N1_2 N 0.85186(16) 0.2017(3) 0.8651(4)
N3_2 N 0.81665(16) 0.3504(3) 0.9879(4)
C1_2 C 0.8803(2) 0.2502(5) 0.8732(9)
H1_2 H 0.876940 0.307737 0.881942
C2_2 C 0.9156(3) 0.2186(7) 0.8694(10)
H2_2 H 0.935123 0.255600 0.874739
C3_2 C 0.9222(2) 0.1352(5) 0.8580(6)
C4_2 C 0.8925(2) 0.0864(4) 0.8432(6)
H3_2 H 0.895236 0.029516 0.828788
C5_2 C 0.8587(2) 0.1210(4) 0.8495(6)
H4_2 H 0.838861 0.085097 0.842368
C6_2 C 0.9578(2) 0.1001(6) 0.8613(6)
C7_2 C 0.9856(2) 0.0629(6) 0.8689(6)
N9_2 N 0.80122(17) 0.3323(3) 0.7717(4)
N10_2 N 0.77327(15) 0.1515(3) 0.8043(4)
N7_2 N 0.77327(15) 0.8485(3) 0.3043(4)
C31_2 C 0.77058(19) 0.9060(4) 0.2553(5)
N2_2 N 0.24177(15) 0.7983(3) 0.5617(4)
C8_2 C 0.01929(19) 0.9844(5) 0.3793(5)
C9_2 C 0.0519(2) 0.9403(5) 0.4004(5)
H5_2 H 0.052239 0.881947 0.406490
C10_2 C 0.08316(19) 0.9880(5) 0.4115(5)
C14_2 C 0.1171(2) 0.9445(5) 0.4373(5)
C17_3 C 0.2191(2) 0.7578(4) 0.5010(6)
H8_2 H 0.224960 0.703250 0.481463
C18_2 C 0.1875(2) 0.7927(5) 0.4660(6)
H9_2 H 0.172779 0.762326 0.422747
C19_2 C 0.17746(18) 0.8730(4) 0.4947(5)
C20_3 C 0.20116(19) 0.9151(4) 0.5571(6)
H10_3 H 0.195891 0.969532 0.578076
C21_3 C 0.2323(2) 0.8765(4) 0.5879(5)
H11_3 H 0.247838 0.906310 0.629488
C22_2 C 0.14501(19) 0.9106(4) 0.4603(6)
H7_2 H 0.997696 0.099704 0.356946
C31_3 C 0.77058(19) 0.0940(4) 0.7553(5)
Ag1_3 Ag 0.81071(2) 0.48594(3) 0.62234(5)
N1_3 N 0.85186(16) 0.7983(3) 0.3651(4)
N3_3 N 0.81665(16) 0.6496(3) 0.4879(4)
C1_3 C 0.8803(2) 0.7498(5) 0.3732(9)
H1_3 H 0.876940 0.692263 0.381942
C2_3 C 0.9156(3) 0.7814(7) 0.3694(10)
H2_3 H 0.935123 0.744400 0.374739
C3_3 C 0.9222(2) 0.8648(5) 0.3580(6)
C4_3 C 0.8925(2) 0.9136(4) 0.3432(6)
H3_3 H 0.895236 0.970484 0.328788
C5_3 C 0.8587(2) 0.8790(4) 0.3495(6)
H4_3 H 0.838861 0.914903 0.342368
C6_3 C 0.9578(2) 0.8999(6) 0.3613(6)
C7_3 C 0.9856(2) 0.9371(6) 0.3689(6)
C23_3 C 0.8161(2) 0.5892(4) 0.5345(5)
C24_3 C 0.8054(2) 0.3847(4) 0.7156(5)
Ag2_3 Ag 0.77613(2) 0.99047(3) 0.66423(4)
N6_3 N 0.79381(17) 0.8372(3) 0.5198(4)
C30_3 C 0.7885(2) 0.8896(4) 0.5750(5)
N8_2 N 0.74177(15) 0.7017(3) 0.4383(4)
Ag1_4 Ag 0.31071(2) 0.01406(3) 0.37766(5)
C24_4 C 0.3054(2) 0.1153(4) 0.2844(5)
N1_4 N 0.35186(16) 0.7017(3) 0.6349(4)
N3_4 N 0.31665(16) 0.8504(3) 0.5121(4)
C1_4 C 0.3803(2) 0.7502(5) 0.6268(9)
H1_4 H 0.376940 0.807737 0.618058
C2_4 C 0.4156(3) 0.7186(7) 0.6306(10)
H2_4 H 0.435123 0.755600 0.625261
C3_4 C 0.4222(2) 0.6352(5) 0.6420(6)
C4_4 C 0.3925(2) 0.5864(4) 0.6568(6)
H3_4 H 0.395236 0.529516 0.671212
C5_4 C 0.3587(2) 0.6210(4) 0.6505(6)
H4_4 H 0.338861 0.585097 0.657632
C6_4 C 0.4578(2) 0.6001(6) 0.6387(6)
C7_4 C 0.4856(2) 0.5629(6) 0.6311(6)
C8_3 C 0.51929(19) 0.5156(5) 0.6207(5)
C9_3 C 0.5519(2) 0.5597(5) 0.5996(5)
H5_3 H 0.552239 0.618053 0.593510
C10_3 C 0.58316(19) 0.5120(5) 0.5885(5)
C11_2 C 0.5833(2) 0.4269(5) 0.5996(5)
H6_2 H 0.605051 0.397370 0.593340
C12_2 C 0.5514(2) 0.3837(5) 0.6202(6)
C13_2 C 0.5193(2) 0.4286(6) 0.6301(6)
H7_3 H 0.497696 0.400296 0.643054
C14_3 C 0.6171(2) 0.5555(5) 0.5627(5)
C15_2 C 0.5519(3) 0.2914(6) 0.6287(9)
C16_2 C 0.5531(3) 0.2218(8) 0.6357(14)
C17_4 C 0.7191(2) 0.7422(4) 0.4990(6)
H8_3 H 0.724960 0.796750 0.518537
C18_3 C 0.6875(2) 0.7073(5) 0.5340(6)
H9_3 H 0.672779 0.737674 0.577253
C19_3 C 0.67746(18) 0.6270(4) 0.5053(5)
C20_4 C 0.70116(19) 0.5849(4) 0.4429(6)
H10_4 H 0.695891 0.530468 0.421924
C21_4 C 0.7323(2) 0.6235(4) 0.4121(5)
H11_4 H 0.747838 0.593690 0.370512
C22_3 C 0.64501(19) 0.5894(4) 0.5397(6)
C23_4 C 0.3161(2) 0.9108(4) 0.4655(5)
C26_2 C 0.5877(3) 0.0817(9) 0.6525(12)
H13_2 H 0.606132 0.106881 0.615659
C27_2 C 0.5565(4) 0.1269(6) 0.6754(13)
C28_2 C 0.5289(3) 0.0893(8) 0.7305(14)
H14_2 H 0.508005 0.119558 0.745797
C29_2 C 0.5326(4) 0.0066(9) 0.7626(13)
Ag2_4 Ag 0.27613(2) 0.50953(3) 0.33577(4)
N6_4 N 0.29381(17) 0.6628(3) 0.4802(4)
C30_4 C 0.2885(2) 0.6104(4) 0.4250(5)
C31_4 C 0.27058(19) 0.4060(4) 0.2447(5)
Ag1_5 Ag 0.18929(2) 0.51406(3) 0.37766(5)
Fe1_2 Fe 0.20372(2) 0.24864(4) 0.60376(6)
N1_5 N 0.14814(16) 0.2017(3) 0.6349(4)
N3_5 N 0.18335(16) 0.3504(3) 0.5121(4)
N4_3 N 0.19878(17) 0.6677(3) 0.2283(4)
C1_5 C 0.1197(2) 0.2502(5) 0.6268(9)
H1_5 H 0.123060 0.307737 0.618058
C2_5 C 0.0844(3) 0.2186(7) 0.6306(10)
H2_5 H 0.064877 0.255600 0.625261
C3_5 C 0.0778(2) 0.1352(5) 0.6420(6)
C4_5 C 0.1075(2) 0.0864(4) 0.6568(6)
H3_5 H 0.104764 0.029516 0.671212
C5_5 C 0.1413(2) 0.1210(4) 0.6505(6)
H4_5 H 0.161139 0.085097 0.657632
C6_5 C 0.0422(2) 0.1001(6) 0.6387(6)
C7_5 C 0.0144(2) 0.0629(6) 0.6311(6)
C23_5 C 0.1839(2) 0.4108(4) 0.4655(5)
C24_5 C 0.1946(2) 0.6153(4) 0.2844(5)
Ag2_5 Ag 0.22387(2) 0.00953(3) 0.33577(4)
N6_5 N 0.20619(17) 0.1628(3) 0.4802(4)
C30_5 C 0.2115(2) 0.1104(4) 0.4250(5)
Fe3_2 Fe 0.20372(2) 0.75136(4) 0.10376(6)
N8_3 N 0.25823(15) 0.2983(3) 0.5617(4)
N9_3 N 0.19878(17) 0.3323(3) 0.7283(4)
N10_3 N 0.22673(15) 0.1515(3) 0.6957(4)
H7_4 H 0.002304 0.900296 0.643054
N7_3 N 0.22673(15) 0.8485(3) 0.1957(4)
C31_5 C 0.22942(19) 0.9060(4) 0.2447(5)
N2_3 N 0.75823(15) 0.2017(3) 0.4383(4)
C8_4 C 0.98071(19) 0.0156(5) 0.6207(5)
C9_4 C 0.9481(2) 0.0597(5) 0.5996(5)
H5_4 H 0.947761 0.118053 0.593510
C10_4 C 0.91684(19) 0.0120(5) 0.5885(5)
C14_4 C 0.8829(2) 0.0555(5) 0.5627(5)
C17_5 C 0.7809(2) 0.2422(4) 0.4990(6)
H8_4 H 0.775040 0.296750 0.518537
C18_4 C 0.8125(2) 0.2073(5) 0.5340(6)
H9_4 H 0.827221 0.237674 0.577253
C19_4 C 0.82254(18) 0.1270(4) 0.5053(5)
C20_5 C 0.79884(19) 0.0849(4) 0.4429(6)
H10_5 H 0.804109 0.030468 0.421924
C21_5 C 0.7677(2) 0.1235(4) 0.4121(5)
H11_5 H 0.752162 0.093690 0.370512
C22_4 C 0.85499(19) 0.0894(4) 0.5397(6)
Fe2_2 Fe 0.70372(2) 0.25136(4) 0.39624(6)
N1_6 N 0.64814(16) 0.2983(3) 0.3651(4)
N3_6 N 0.68335(16) 0.1496(3) 0.4879(4)
C1_6 C 0.6197(2) 0.2498(5) 0.3732(9)
H1_6 H 0.623060 0.192263 0.381942
C2_6 C 0.5844(3) 0.2814(7) 0.3694(10)
H2_6 H 0.564877 0.244400 0.374739
C3_6 C 0.5778(2) 0.3648(5) 0.3580(6)
C4_6 C 0.6075(2) 0.4136(4) 0.3432(6)
H3_6 H 0.604764 0.470484 0.328788
C5_6 C 0.6413(2) 0.3790(4) 0.3495(6)
H4_6 H 0.661139 0.414903 0.342368
C6_6 C 0.5422(2) 0.3999(6) 0.3613(6)
C7_6 C 0.5144(2) 0.4371(6) 0.3689(6)
C8_5 C 0.48071(19) 0.4844(5) 0.3793(5)
C9_5 C 0.4481(2) 0.4403(5) 0.4004(5)
H5_5 H 0.447761 0.381947 0.406490
C10_5 C 0.41684(19) 0.4880(5) 0.4115(5)
C11_3 C 0.4167(2) 0.5731(5) 0.4004(5)
H6_3 H 0.394949 0.602630 0.406660
C12_3 C 0.4486(2) 0.6163(5) 0.3798(6)
C13_3 C 0.4807(2) 0.5714(6) 0.3699(6)
H7_5 H 0.502304 0.599704 0.356946
C14_5 C 0.3829(2) 0.4445(5) 0.4373(5)
C15_3 C 0.4481(3) 0.7086(6) 0.3713(9)
C16_3 C 0.4469(3) 0.7782(8) 0.3643(14)
C17_6 C 0.2809(2) 0.2578(4) 0.5010(6)
H8_5 H 0.275040 0.203250 0.481463
C18_5 C 0.3125(2) 0.2927(5) 0.4660(6)
H9_5 H 0.327221 0.262326 0.422747
C19_5 C 0.32254(18) 0.3730(4) 0.4947(5)
C20_6 C 0.29884(19) 0.4151(4) 0.5571(6)
H10_6 H 0.304109 0.469532 0.578076
C21_6 C 0.2677(2) 0.3765(4) 0.5879(5)
H11_6 H 0.252162 0.406310 0.629488
C22_5 C 0.35499(19) 0.4106(4) 0.4603(6)
C23_6 C 0.6839(2) 0.0892(4) 0.5345(5)
C26_3 C 0.4123(3) 0.9183(9) 0.3475(12)
H13_3 H 0.393868 0.893119 0.384341
C27_3 C 0.4435(4) 0.8731(6) 0.3246(13)
C28_3 C 0.4711(3) 0.9107(8) 0.2695(14)
H14_3 H 0.491995 0.880442 0.254203
C29_3 C 0.4674(4) 0.9934(9) 0.2374(13)
Ag2_6 Ag 0.72387(2) 0.49047(3) 0.66423(4)
N6_6 N 0.70619(17) 0.3372(3) 0.5198(4)
N7_4 N 0.72673(15) 0.6515(3) 0.8043(4)
C30_6 C 0.7115(2) 0.3896(4) 0.5750(5)
C31_6 C 0.72942(19) 0.5940(4) 0.7553(5)
Fe4_2 Fe 0.70372(2) 0.74864(4) 0.89624(6)
N9_4 N 0.69878(17) 0.1677(3) 0.2717(4)
N10_4 N 0.72673(15) 0.3485(3) 0.3043(4)
Ag1_6 Ag 0.68929(2) 0.98594(3) 0.62234(5)
N4_4 N 0.69878(17) 0.8323(3) 0.7717(4)
C24_6 C 0.6946(2) 0.8847(4) 0.7156(5)
Ag1_7 Ag 0.68929(2) 0.01406(3) 0.12234(5)
C24_7 C 0.6946(2) 0.1153(4) 0.2156(5)
N2_4 N 0.25823(15) 0.7017(3) 0.0617(4)
C17_7 C 0.2809(2) 0.7422(4) 0.0010(6)
C20_7 C 0.29884(19) 0.5849(4) 0.0571(6)
H10_7 H 0.304109 0.530468 0.078076
C21_7 C 0.2677(2) 0.6235(4) 0.0879(5)
H11_7 H 0.252162 0.593690 0.129488
C23_7 C 0.6839(2) 0.9108(4) 0.0345(5)
Ag2_7 Ag 0.72387(2) 0.50953(3) 0.16423(4)
N6_7 N 0.70619(17) 0.6628(3) 0.0198(4)
C30_7 C 0.7115(2) 0.6104(4) 0.0750(5)
C31_7 C 0.72942(19) 0.4060(4) 0.2553(5)
N1_7 N 0.64814(16) 0.7017(3) 0.8651(4)
N3_7 N 0.68335(16) 0.8504(3) 0.9879(4)
C1_7 C 0.6197(2) 0.7502(5) 0.8732(9)
H1_7 H 0.623060 0.807737 0.881942
C2_7 C 0.5844(3) 0.7186(7) 0.8694(10)
H2_7 H 0.564877 0.755600 0.874739
C3_7 C 0.5778(2) 0.6352(5) 0.8580(6)
C4_7 C 0.6075(2) 0.5864(4) 0.8432(6)
H3_7 H 0.604764 0.529516 0.828788
C5_7 C 0.6413(2) 0.6210(4) 0.8495(6)
H4_7 H 0.661139 0.585097 0.842368
C6_7 C 0.5422(2) 0.6001(6) 0.8613(6)
C7_7 C 0.5144(2) 0.5629(6) 0.8689(6)
C8_6 C 0.48071(19) 0.5156(5) 0.8793(5)
C9_6 C 0.4481(2) 0.5597(5) 0.9004(5)
H5_6 H 0.447761 0.618053 0.906490
C10_6 C 0.41684(19) 0.5120(5) 0.9115(5)
C11_4 C 0.4167(2) 0.4269(5) 0.9004(5)
H6_4 H 0.394949 0.397370 0.906660
C12_4 C 0.4486(2) 0.3837(5) 0.8798(6)
C13_4 C 0.4807(2) 0.4286(6) 0.8699(6)
H7_6 H 0.502304 0.400296 0.856946
C14_6 C 0.3829(2) 0.5555(5) 0.9373(5)
C15_4 C 0.4481(3) 0.2914(6) 0.8713(9)
C16_4 C 0.4469(3) 0.2218(8) 0.8643(14)
H8_6 H 0.275040 0.796750 0.981463
C18_6 C 0.3125(2) 0.7073(5) 0.9660(6)
H9_6 H 0.327221 0.737674 0.922747
C19_6 C 0.32254(18) 0.6270(4) 0.9947(5)
C22_6 C 0.35499(19) 0.5894(4) 0.9603(6)
C26_4 C 0.4123(3) 0.0817(9) 0.8475(12)
H13_4 H 0.393868 0.106881 0.884341
C27_4 C 0.4435(4) 0.1269(6) 0.8246(13)
C28_4 C 0.4711(3) 0.0893(8) 0.7695(14)
H14_4 H 0.491995 0.119558 0.754203
C29_4 C 0.4674(4) 0.0066(9) 0.7374(13)
N8_4 N 0.75823(15) 0.7983(3) 0.9383(4)
C31_8 C 0.22942(19) 0.0940(4) 0.7447(5)
N1_8 N 0.14814(16) 0.7983(3) 0.1349(4)
N3_8 N 0.18335(16) 0.6496(3) 0.0121(4)
C1_8 C 0.1197(2) 0.7498(5) 0.1268(9)
H1_8 H 0.123060 0.692263 0.118058
C2_8 C 0.0844(3) 0.7814(7) 0.1306(10)
H2_8 H 0.064877 0.744400 0.125261
C3_8 C 0.0778(2) 0.8648(5) 0.1420(6)
C4_8 C 0.1075(2) 0.9136(4) 0.1568(6)
H3_8 H 0.104764 0.970484 0.171212
C5_8 C 0.1413(2) 0.8790(4) 0.1505(6)
H4_8 H 0.161139 0.914903 0.157632
C6_8 C 0.0422(2) 0.8999(6) 0.1387(6)
C7_8 C 0.0144(2) 0.9371(6) 0.1311(6)
Ag1_8 Ag 0.18929(2) 0.48594(3) 0.87766(5)
C23_8 C 0.1839(2) 0.5892(4) 0.9655(5)
C24_8 C 0.1946(2) 0.3847(4) 0.7844(5)
Ag2_8 Ag 0.22387(2) 0.99047(3) 0.83577(4)
N6_8 N 0.20619(17) 0.8372(3) 0.9802(4)
C30_8 C 0.2115(2) 0.8896(4) 0.9250(5)
C17_8 C 0.7809(2) 0.7578(4) 0.9990(6)
C20_8 C 0.79884(19) 0.9151(4) 0.9429(6)
H10_8 H 0.804109 0.969532 0.921924
C21_8 C 0.7677(2) 0.8765(4) 0.9121(5)
H11_8 H 0.752162 0.906310 0.870512
C11_5 C 0.9167(2) 0.9269(5) 0.5996(5)
H6_5 H 0.894949 0.897370 0.593340
C12_5 C 0.9486(2) 0.8837(5) 0.6202(6)
C13_5 C 0.9807(2) 0.9286(6) 0.6301(6)
C15_5 C 0.9481(3) 0.7914(6) 0.6287(9)
C16_5 C 0.9469(3) 0.7218(8) 0.6357(14)
N5_2 N 0.9361(4) 0.4615(7) 0.7397(13)
C25_2 C 0.9086(3) 0.4990(9) 0.6847(14)
H12_2 H 0.887684 0.468805 0.669348
C26_5 C 0.9123(3) 0.5817(9) 0.6525(12)
H13_5 H 0.893868 0.606881 0.615659
C27_5 C 0.9435(4) 0.6269(6) 0.6754(13)
C28_5 C 0.9711(3) 0.5893(8) 0.7305(14)
H14_5 H 0.991995 0.619558 0.745797
C29_5 C 0.9674(4) 0.5066(9) 0.7626(13)
H15_2 H 0.985812 0.481482 0.799486
C8_7 C 0.01929(19) 0.0156(5) 0.8793(5)
C9_7 C 0.0519(2) 0.0597(5) 0.9004(5)
H5_7 H 0.052239 0.118053 0.906490
C10_7 C 0.08316(19) 0.0120(5) 0.9115(5)
C14_7 C 0.1171(2) 0.0555(5) 0.9373(5)
H8_7 H 0.224960 0.296750 0.981463
C18_7 C 0.1875(2) 0.2073(5) 0.9660(6)
H9_7 H 0.172779 0.237674 0.922747
C19_7 C 0.17746(18) 0.1270(4) 0.9947(5)
C22_7 C 0.14501(19) 0.0894(4) 0.9603(6)
C11_6 C 0.0833(2) 0.9269(5) 0.9004(5)
H6_6 H 0.105051 0.897370 0.906660
C12_6 C 0.0514(2) 0.8837(5) 0.8798(6)
C13_6 C 0.0193(2) 0.9286(6) 0.8699(6)
C15_6 C 0.0519(3) 0.7914(6) 0.8713(9)
C16_6 C 0.0531(3) 0.7218(8) 0.8643(14)
N5_3 N 0.0639(4) 0.4615(7) 0.7603(13)
C25_3 C 0.0914(3) 0.4990(9) 0.8153(14)
H12_3 H 0.112316 0.468805 0.830652
C26_6 C 0.0877(3) 0.5817(9) 0.8475(12)
H13_6 H 0.106132 0.606881 0.884341
C27_6 C 0.0565(4) 0.6269(6) 0.8246(13)
C28_6 C 0.0289(3) 0.5893(8) 0.7695(14)
H14_6 H 0.008005 0.619558 0.754203
C29_6 C 0.0326(4) 0.5066(9) 0.7374(13)
H15_3 H 0.014188 0.481482 0.700514
H7_7 H 0.997696 0.900296 0.856946
N5_4 N 0.4361(4) 0.0385(7) 0.2603(13)
C25_4 C 0.4086(3) 0.0010(9) 0.3153(14)
H12_4 H 0.387684 0.031195 0.330652
H15_4 H 0.485812 0.018518 0.200514
N5_5 N 0.4361(4) 0.9615(7) 0.7603(13)
C25_5 C 0.4086(3) 0.9990(9) 0.8153(14)
H12_5 H 0.387684 0.968805 0.830652
H15_5 H 0.485812 0.981482 0.700514
C11_7 C 0.0833(2) 0.0731(5) 0.4004(5)
H6_7 H 0.105051 0.102630 0.406660
C12_7 C 0.0514(2) 0.1163(5) 0.3798(6)
C13_7 C 0.0193(2) 0.0714(6) 0.3699(6)
C15_7 C 0.0519(3) 0.2086(6) 0.3713(9)
C16_7 C 0.0531(3) 0.2782(8) 0.3643(14)
N5_6 N 0.0639(4) 0.5385(7) 0.2603(13)
C25_6 C 0.0914(3) 0.5010(9) 0.3153(14)
H12_6 H 0.112316 0.531195 0.330652
C26_7 C 0.0877(3) 0.4183(9) 0.3475(12)
H13_7 H 0.106132 0.393119 0.384341
C27_7 C 0.0565(4) 0.3731(6) 0.3246(13)
C28_7 C 0.0289(3) 0.4107(8) 0.2695(14)
H14_7 H 0.008005 0.380442 0.254203
C29_7 C 0.0326(4) 0.4934(9) 0.2374(13)
H15_6 H 0.014188 0.518518 0.200514
H7_8 H 0.002304 0.099704 0.143054
C11_8 C 0.9167(2) 0.0731(5) 0.0996(5)
H6_8 H 0.894949 0.102630 0.093340
C12_8 C 0.9486(2) 0.1163(5) 0.1202(6)
C13_8 C 0.9807(2) 0.0714(6) 0.1301(6)
C15_8 C 0.9481(3) 0.2086(6) 0.1287(9)
C16_8 C 0.9469(3) 0.2782(8) 0.1357(14)
N5_7 N 0.9361(4) 0.5385(7) 0.2397(13)
C25_7 C 0.9086(3) 0.5010(9) 0.1847(14)
H12_7 H 0.887684 0.531195 0.169348
C26_8 C 0.9123(3) 0.4183(9) 0.1525(12)
H13_8 H 0.893868 0.393119 0.115659
C27_8 C 0.9435(4) 0.3731(6) 0.1754(13)
C28_8 C 0.9711(3) 0.4107(8) 0.2305(14)
H14_8 H 0.991995 0.380442 0.245797
C29_8 C 0.9674(4) 0.4934(9) 0.2626(13)
H15_7 H 0.985812 0.518518 0.299486
C8_8 C 0.98071(19) 0.9844(5) 0.1207(5)
C9_8 C 0.9481(2) 0.9403(5) 0.0996(5)
H5_8 H 0.947761 0.881947 0.093510
C10_8 C 0.91684(19) 0.9880(5) 0.0885(5)
C14_8 C 0.8829(2) 0.9445(5) 0.0627(5)
H8_8 H 0.775040 0.703250 0.018537
C18_8 C 0.8125(2) 0.7927(5) 0.0340(6)
H9_8 H 0.827221 0.762326 0.077253
C19_8 C 0.82254(18) 0.8730(4) 0.0053(5)
C22_8 C 0.85499(19) 0.9106(4) 0.0397(6)
N5_8 N 0.5639(4) 0.9615(7) 0.7397(13)
C25_8 C 0.5914(3) 0.9990(9) 0.6847(14)
H12_8 H 0.612316 0.968805 0.669348
H15_8 H 0.514188 0.981482 0.799486
loop_
_geom_bond_atom_site_label_1
_geom_bond_atom_site_label_2
_geom_bond_site_symmetry_1
_geom_bond_site_symmetry_2
N5 C25 1_555 1_555
C25 H12 1_555 1_555
Fe1 N1 1_555 1_555
N1 C1 1_555 1_555
N3 Fe1 1_555 1_555
C1 H1 1_555 1_555
C2 C1 1_555 1_555
H2 C2 1_555 1_555
C3 C2 1_555 1_555
C4 C3 1_555 1_555
H3 C4 1_555 1_555
C5 N1 1_555 1_555
H4 C5 1_555 1_555
C6 C3 1_555 1_555
C7 C6 1_555 1_555
C8 C7 1_555 1_555
C9 C8 1_555 1_555
H5 C9 1_555 1_555
C10 C9 1_555 1_555
C11 C10 1_555 1_555
H6 C11 1_555 1_555
C12 C11 1_555 1_555
C13 C8 1_555 1_555
H7 C13 1_555 1_555
C14 C10 1_555 1_555
C15 C12 1_555 1_555
C16 C15 1_555 1_555
H9 C18 1_555 1_555
C19 C18 1_555 1_555
C22 C14 1_555 1_555
H13 C26 1_555 1_555
C27 C16 1_555 1_555
C28 C27 1_555 1_555
H14 C28 1_555 1_555
N8 Fe1 1_555 1_555
N9 Fe1 1_555 1_555
N10 Fe1 1_555 1_555
C4 C5 1_555 1_555
C12 C13 1_555 1_555
C19 C22 1_555 1_555
C26 C27 1_555 1_555
C28 C29 1_555 1_555
N2 C17 1_555 1_555
H10 C20 1_555 1_555
C21 N2 1_555 1_555
H11 C21 1_555 1_555
Ag2 C30 1_555 1_555
N7 C31 1_555 1_555
C30 N6 1_555 1_555
C31 Ag2 1_555 1_555
Fe2 N2 1_555 1_555
Fe4 N7 1_555 1_555
C20 C21 1_555 1_555
N4 C24 1_555 1_555
C24 Ag1 1_555 1_555
Fe4 N4 1_555 1_555
N8 C17_2 1_555 1_555
H10_2 C20_2 1_555 1_555
C21_2 N8 1_555 1_555
H11_2 C21_2 1_555 1_555
C20_2 C21_2 1_555 1_555
Ag1_2 C23_2 1_555 1_555
N4_2 C24_2 1_555 1_555
C24_2 Ag1_2 1_555 1_555
Ag2_2 C30_2 1_555 1_555
C30_2 N6_2 1_555 1_555
Fe3 N4_2 1_555 1_555
Fe2 N1_2 1_555 1_555
N1_2 C1_2 1_555 1_555
N3_2 Fe2 1_555 1_555
C1_2 H1_2 1_555 1_555
C2_2 C1_2 1_555 1_555
H2_2 C2_2 1_555 1_555
C3_2 C2_2 1_555 1_555
C4_2 C3_2 1_555 1_555
H3_2 C4_2 1_555 1_555
C5_2 N1_2 1_555 1_555
H4_2 C5_2 1_555 1_555
C6_2 C3_2 1_555 1_555
C7_2 C6_2 1_555 1_555
N9_2 Fe2 1_555 1_555
N10_2 Fe2 1_555 1_555
C4_2 C5_2 1_555 1_555
N7_2 C31_2 1_555 1_555
Fe3 N7_2 1_555 1_555
N2_2 C17_3 1_555 1_555
C9_2 C8_2 1_555 1_555
H5_2 C9_2 1_555 1_555
C10_2 C9_2 1_555 1_555
C14_2 C10_2 1_555 1_555
C17_3 H8_2 1_555 1_555
C18_2 C17_3 1_555 1_555
H9_2 C18_2 1_555 1_555
C19_2 C18_2 1_555 1_555
C20_3 C19_2 1_555 1_555
H10_3 C20_3 1_555 1_555
C21_3 N2_2 1_555 1_555
H11_3 C21_3 1_555 1_555
C22_2 C14_2 1_555 1_555
Fe4 N2_2 1_555 1_555
C19_2 C22_2 1_555 1_555
C20_3 C21_3 1_555 1_555
N10_2 C31_3 1_555 1_555
Ag1_3 C23_3 1_555 1_555
Fe3 N1_3 1_555 1_555
N1_3 C1_3 1_555 1_555
N3_3 Fe3 1_555 1_555
N9_2 C24_3 1_555 1_555
C1_3 H1_3 1_555 1_555
C2_3 C1_3 1_555 1_555
H2_3 C2_3 1_555 1_555
C3_3 C2_3 1_555 1_555
C4_3 C3_3 1_555 1_555
H3_3 C4_3 1_555 1_555
C5_3 N1_3 1_555 1_555
H4_3 C5_3 1_555 1_555
C6_3 C3_3 1_555 1_555
C7_3 C6_3 1_555 1_555
C23_3 N3_3 1_555 1_555
C24_3 Ag1_3 1_555 1_555
Ag2_3 C30_3 1_555 1_555
N6_3 Fe3 1_555 1_555
C30_3 N6_3 1_555 1_555
N8_2 Fe3 1_555 1_555
C4_3 C5_3 1_555 1_555
N9 C24_4 1_555 1_555
C24_4 Ag1_4 1_555 1_555
Fe4 N1_4 1_555 1_555
N1_4 C1_4 1_555 1_555
N8_2 C17_4 1_555 1_555
N3_4 Fe4 1_555 1_555
C1_4 H1_4 1_555 1_555
C2_4 C1_4 1_555 1_555
H2_4 C2_4 1_555 1_555
C3_4 C2_4 1_555 1_555
C4_4 C3_4 1_555 1_555
H3_4 C4_4 1_555 1_555
C5_4 N1_4 1_555 1_555
H4_4 C5_4 1_555 1_555
C6_4 C3_4 1_555 1_555
C7_4 C6_4 1_555 1_555
C8_3 C7_4 1_555 1_555
C9_3 C8_3 1_555 1_555
H5_3 C9_3 1_555 1_555
C10_3 C9_3 1_555 1_555
C11_2 C10_3 1_555 1_555
H6_2 C11_2 1_555 1_555
C12_2 C11_2 1_555 1_555
C13_2 C8_3 1_555 1_555
H7_3 C13_2 1_555 1_555
C14_3 C10_3 1_555 1_555
C15_2 C12_2 1_555 1_555
C16_2 C15_2 1_555 1_555
C17_4 H8_3 1_555 1_555
C18_3 C17_4 1_555 1_555
H9_3 C18_3 1_555 1_555
C19_3 C18_3 1_555 1_555
C20_4 C19_3 1_555 1_555
H10_4 C20_4 1_555 1_555
C21_4 N8_2 1_555 1_555
H11_4 C21_4 1_555 1_555
C22_3 C14_3 1_555 1_555
C23_4 N3_4 1_555 1_555
H13_2 C26_2 1_555 1_555
C27_2 C16_2 1_555 1_555
C28_2 C27_2 1_555 1_555
H14_2 C28_2 1_555 1_555
Ag2_4 C30_4 1_555 1_555
N6_4 Fe4 1_555 1_555
N10 C31_4 1_555 1_555
C30_4 N6_4 1_555 1_555
C31_4 Ag2_4 1_555 1_555
C4_4 C5_4 1_555 1_555
C12_2 C13_2 1_555 1_555
C19_3 C22_3 1_555 1_555
C20_4 C21_4 1_555 1_555
C26_2 C27_2 1_555 1_555
C28_2 C29_2 1_555 1_555
Ag1_5 C23_5 1_555 1_555
Fe1_2 N1_5 1_555 1_555
N1_5 C1_5 1_555 1_555
N3_5 Fe1_2 1_555 1_555
N4_3 C24_5 1_555 1_555
C1_5 H1_5 1_555 1_555
C2_5 C1_5 1_555 1_555
H2_5 C2_5 1_555 1_555
C3_5 C2_5 1_555 1_555
C4_5 C3_5 1_555 1_555
H3_5 C4_5 1_555 1_555
C5_5 N1_5 1_555 1_555
H4_5 C5_5 1_555 1_555
C6_5 C3_5 1_555 1_555
C7_5 C6_5 1_555 1_555
C23_5 N3_5 1_555 1_555
C24_5 Ag1_5 1_555 1_555
Ag2_5 C30_5 1_555 1_555
N6_5 Fe1_2 1_555 1_555
C30_5 N6_5 1_555 1_555
Fe3_2 N4_3 1_555 1_555
N8_3 Fe1_2 1_555 1_555
N9_3 Fe1_2 1_555 1_555
N10_3 Fe1_2 1_555 1_555
C4_5 C5_5 1_555 1_555
N7_3 C31_5 1_555 1_555
Fe3_2 N7_3 1_555 1_555
N2_3 C17_5 1_555 1_555
C9_4 C8_4 1_555 1_555
H5_4 C9_4 1_555 1_555
C10_4 C9_4 1_555 1_555
C14_4 C10_4 1_555 1_555
C17_5 H8_4 1_555 1_555
C18_4 C17_5 1_555 1_555
H9_4 C18_4 1_555 1_555
C19_4 C18_4 1_555 1_555
C20_5 C19_4 1_555 1_555
H10_5 C20_5 1_555 1_555
C21_5 N2_3 1_555 1_555
H11_5 C21_5 1_555 1_555
C22_4 C14_4 1_555 1_555
Fe2_2 N2_3 1_555 1_555
C19_4 C22_4 1_555 1_555
C20_5 C21_5 1_555 1_555
Fe2_2 N1_6 1_555 1_555
N1_6 C1_6 1_555 1_555
N8_3 C17_6 1_555 1_555
N3_6 Fe2_2 1_555 1_555
C1_6 H1_6 1_555 1_555
C2_6 C1_6 1_555 1_555
H2_6 C2_6 1_555 1_555
C3_6 C2_6 1_555 1_555
C4_6 C3_6 1_555 1_555
H3_6 C4_6 1_555 1_555
C5_6 N1_6 1_555 1_555
H4_6 C5_6 1_555 1_555
C6_6 C3_6 1_555 1_555
C7_6 C6_6 1_555 1_555
C8_5 C7_6 1_555 1_555
C9_5 C8_5 1_555 1_555
H5_5 C9_5 1_555 1_555
C10_5 C9_5 1_555 1_555
C11_3 C10_5 1_555 1_555
H6_3 C11_3 1_555 1_555
C12_3 C11_3 1_555 1_555
C13_3 C8_5 1_555 1_555
H7_5 C13_3 1_555 1_555
C14_5 C10_5 1_555 1_555
C15_3 C12_3 1_555 1_555
C16_3 C15_3 1_555 1_555
C17_6 H8_5 1_555 1_555
C18_5 C17_6 1_555 1_555
H9_5 C18_5 1_555 1_555
C19_5 C18_5 1_555 1_555
C20_6 C19_5 1_555 1_555
H10_6 C20_6 1_555 1_555
C21_6 N8_3 1_555 1_555
H11_6 C21_6 1_555 1_555
C22_5 C14_5 1_555 1_555
C23_6 N3_6 1_555 1_555
H13_3 C26_3 1_555 1_555
C27_3 C16_3 1_555 1_555
C28_3 C27_3 1_555 1_555
H14_3 C28_3 1_555 1_555
Ag2_6 C30_6 1_555 1_555
N6_6 Fe2_2 1_555 1_555
N7_4 C31_6 1_555 1_555
C30_6 N6_6 1_555 1_555
C31_6 Ag2_6 1_555 1_555
Fe4_2 N7_4 1_555 1_555
N9_4 Fe2_2 1_555 1_555
N10_4 Fe2_2 1_555 1_555
C4_6 C5_6 1_555 1_555
C12_3 C13_3 1_555 1_555
C19_5 C22_5 1_555 1_555
C20_6 C21_6 1_555 1_555
C26_3 C27_3 1_555 1_555
C28_3 C29_3 1_555 1_555
N4_4 C24_6 1_555 1_555
C24_6 Ag1_6 1_555 1_555
Fe4_2 N4_4 1_555 1_555
N9_4 C24_7 1_555 1_555
C24_7 Ag1_7 1_555 1_555
N2_4 C17_7 1_555 1_555
H10_7 C20_7 1_555 1_555
C21_7 N2_4 1_555 1_555
H11_7 C21_7 1_555 1_555
Ag2_7 C30_7 1_555 1_555
N10_4 C31_7 1_555 1_555
C30_7 N6_7 1_555 1_555
C31_7 Ag2_7 1_555 1_555
Fe3_2 N2_4 1_555 1_555
C20_7 C21_7 1_555 1_555
Fe4_2 N1_7 1_555 1_555
N1_7 C1_7 1_555 1_555
N3_7 Fe4_2 1_555 1_555
C1_7 H1_7 1_555 1_555
C2_7 C1_7 1_555 1_555
H2_7 C2_7 1_555 1_555
C3_7 C2_7 1_555 1_555
C4_7 C3_7 1_555 1_555
H3_7 C4_7 1_555 1_555
C5_7 N1_7 1_555 1_555
H4_7 C5_7 1_555 1_555
C6_7 C3_7 1_555 1_555
C7_7 C6_7 1_555 1_555
C8_6 C7_7 1_555 1_555
C9_6 C8_6 1_555 1_555
H5_6 C9_6 1_555 1_555
C10_6 C9_6 1_555 1_555
C11_4 C10_6 1_555 1_555
H6_4 C11_4 1_555 1_555
C12_4 C11_4 1_555 1_555
C13_4 C8_6 1_555 1_555
H7_6 C13_4 1_555 1_555
C14_6 C10_6 1_555 1_555
C15_4 C12_4 1_555 1_555
C16_4 C15_4 1_555 1_555
H9_6 C18_6 1_555 1_555
C19_6 C18_6 1_555 1_555
C22_6 C14_6 1_555 1_555
H13_4 C26_4 1_555 1_555
C27_4 C16_4 1_555 1_555
C28_4 C27_4 1_555 1_555
H14_4 C28_4 1_555 1_555
N8_4 Fe4_2 1_555 1_555
C4_7 C5_7 1_555 1_555
C12_4 C13_4 1_555 1_555
C19_6 C22_6 1_555 1_555
C26_4 C27_4 1_555 1_555
C28_4 C29_4 1_555 1_555
N10_3 C31_8 1_555 1_555
Fe3_2 N1_8 1_555 1_555
N1_8 C1_8 1_555 1_555
N3_8 Fe3_2 1_555 1_555
C1_8 H1_8 1_555 1_555
C2_8 C1_8 1_555 1_555
H2_8 C2_8 1_555 1_555
C3_8 C2_8 1_555 1_555
C4_8 C3_8 1_555 1_555
H3_8 C4_8 1_555 1_555
C5_8 N1_8 1_555 1_555
H4_8 C5_8 1_555 1_555
C6_8 C3_8 1_555 1_555
C7_8 C6_8 1_555 1_555
C4_8 C5_8 1_555 1_555
Ag1_8 C23_8 1_555 1_555
N9_3 C24_8 1_555 1_555
C24_8 Ag1_8 1_555 1_555
Ag2_8 C30_8 1_555 1_555
C30_8 N6_8 1_555 1_555
N8_4 C17_8 1_555 1_555
H10_8 C20_8 1_555 1_555
C21_8 N8_4 1_555 1_555
H11_8 C21_8 1_555 1_555
C20_8 C21_8 1_555 1_555
H6_5 C11_5 1_555 1_555
C12_5 C11_5 1_555 1_555
C15_5 C12_5 1_555 1_555
C16_5 C15_5 1_555 1_555
N5_2 C25_2 1_555 1_555
C25_2 H12_2 1_555 1_555
C26_5 C25_2 1_555 1_555
H13_5 C26_5 1_555 1_555
C27_5 C16_5 1_555 1_555
C28_5 C27_5 1_555 1_555
H14_5 C28_5 1_555 1_555
C29_5 N5_2 1_555 1_555
H15_2 C29_5 1_555 1_555
C12_5 C13_5 1_555 1_555
C26_5 C27_5 1_555 1_555
C28_5 C29_5 1_555 1_555
C9_7 C8_7 1_555 1_555
H5_7 C9_7 1_555 1_555
C10_7 C9_7 1_555 1_555
C14_7 C10_7 1_555 1_555
H9_7 C18_7 1_555 1_555
C19_7 C18_7 1_555 1_555
C22_7 C14_7 1_555 1_555
C19_7 C22_7 1_555 1_555
H6_6 C11_6 1_555 1_555
C12_6 C11_6 1_555 1_555
C15_6 C12_6 1_555 1_555
C16_6 C15_6 1_555 1_555
N5_3 C25_3 1_555 1_555
C25_3 H12_3 1_555 1_555
C26_6 C25_3 1_555 1_555
H13_6 C26_6 1_555 1_555
C27_6 C16_6 1_555 1_555
C28_6 C27_6 1_555 1_555
H14_6 C28_6 1_555 1_555
C29_6 N5_3 1_555 1_555
H15_3 C29_6 1_555 1_555
C12_6 C13_6 1_555 1_555
C26_6 C27_6 1_555 1_555
C28_6 C29_6 1_555 1_555
N5_4 C25_4 1_555 1_555
C25_4 H12_4 1_555 1_555
N5_5 C25_5 1_555 1_555
C25_5 H12_5 1_555 1_555
H6_7 C11_7 1_555 1_555
C12_7 C11_7 1_555 1_555
C15_7 C12_7 1_555 1_555
C16_7 C15_7 1_555 1_555
N5_6 C25_6 1_555 1_555
C25_6 H12_6 1_555 1_555
C26_7 C25_6 1_555 1_555
H13_7 C26_7 1_555 1_555
C27_7 C16_7 1_555 1_555
C28_7 C27_7 1_555 1_555
H14_7 C28_7 1_555 1_555
C29_7 N5_6 1_555 1_555
H15_6 C29_7 1_555 1_555
C12_7 C13_7 1_555 1_555
C26_7 C27_7 1_555 1_555
C28_7 C29_7 1_555 1_555
H6_8 C11_8 1_555 1_555
C12_8 C11_8 1_555 1_555
C15_8 C12_8 1_555 1_555
C16_8 C15_8 1_555 1_555
N5_7 C25_7 1_555 1_555
C25_7 H12_7 1_555 1_555
C26_8 C25_7 1_555 1_555
H13_8 C26_8 1_555 1_555
C27_8 C16_8 1_555 1_555
C28_8 C27_8 1_555 1_555
H14_8 C28_8 1_555 1_555
C29_8 N5_7 1_555 1_555
H15_7 C29_8 1_555 1_555
C12_8 C13_8 1_555 1_555
C26_8 C27_8 1_555 1_555
C28_8 C29_8 1_555 1_555
C9_8 C8_8 1_555 1_555
H5_8 C9_8 1_555 1_555
C10_8 C9_8 1_555 1_555
C14_8 C10_8 1_555 1_555
H9_8 C18_8 1_555 1_555
C19_8 C18_8 1_555 1_555
C22_8 C14_8 1_555 1_555
C19_8 C22_8 1_555 1_555
N5_8 C25_8 1_555 1_555
C25_8 H12_8 1_555 1_555

#END
