
###############################################################################
#
# This file contains modified crystal structure data generated from the
# MOF subset of the Cambridge Structural Database (CSD) v543 
# hosted by the Cambridge Crystallographic Data Centre (CCDC).
#
# This work is licensed under the Creative Commons
# Attribution-NonCommercial-ShareAlike 4.0 International License.
# To view a copy of this license, visit
# http://creativecommons.org/licenses/by-nc-sa/4.0/
# or send a letter to
# Creative Commons, PO Box 1866, Mountain View, CA 94042, USA.
#
# CIF created using the CSD Python API on 29 September 2022
# The structure has been converted into the P1 space group
# The structure has a 3D framework
# The original CSD entry KIKYEL is in the orthorhombic crystal system
# The framework has been calculated to contain at least 10.0% void space
# The void calculation uses a probe of radius 1.32A, grid spacing 0.4
#
###############################################################################

data_KIKYEL
_chemical_formula_moiety         '(C248 H120 Ag16 Fe8 N52)n'
_symmetry_cell_setting           triclinic
_symmetry_space_group_name_H-M   'P 1'
_symmetry_Int_Tables_number      1
_space_group_name_Hall           'P 1'
loop_
_symmetry_equiv_pos_site_id
_symmetry_equiv_pos_as_xyz
1 x,y,z
_cell_length_a                   36.5834(10)
_cell_length_b                   15.2354(4)
_cell_length_c                   13.2204(3)
_cell_angle_alpha                90
_cell_angle_beta                 90
_cell_angle_gamma                90
_cell_volume                     7368.56
loop_
_atom_site_label
_atom_site_type_symbol
_atom_site_fract_x
_atom_site_fract_y
_atom_site_fract_z
Fe4 Fe 0.20285(2) 0.74888(4) 0.09563(5)
Ag1 Ag 0.18902(2) 0.01707(3) 0.87139(3)
Fe1 Fe 0.20285(2) 0.25112(4) 0.59563(5)
N1 N 0.15093(12) 0.2924(3) 0.6227(3)
N3 N 0.19898(12) 0.1722(3) 0.7130(3)
C1 C 0.12270(18) 0.2371(5) 0.6270(5)
H1 H 0.127457 0.177185 0.624709
C2 C 0.08670(18) 0.2642(5) 0.6346(6)
H2 H 0.067917 0.223163 0.636743
C3 C 0.07897(15) 0.3524(5) 0.6389(4)
C4 C 0.10837(16) 0.4109(5) 0.6403(5)
H3 H 0.104431 0.470870 0.647119
C5 C 0.14329(15) 0.3780(4) 0.6314(5)
H4 H 0.162668 0.417529 0.631354
C6 C 0.04253(17) 0.3882(6) 0.6384(5)
C7 C 0.01396(17) 0.4254(6) 0.6313(5)
H7 H 0.003012 0.592111 0.641280
H11 H 0.001389 0.893964 0.630743
C28 C 0.19510(15) 0.1211(3) 0.7754(4)
Ag2 Ag 0.22318(2) 0.51441(3) 0.82306(3)
N6 N 0.22232(12) 0.3455(3) 0.6822(3)
N7 N 0.20521(12) 0.6692(3) 0.9782(3)
C30 C 0.22827(15) 0.4055(4) 0.7327(4)
C31 C 0.21024(15) 0.6180(4) 0.9164(4)
N8 N 0.25424(11) 0.2069(3) 0.5619(3)
N9 N 0.18573(12) 0.1542(3) 0.5092(3)
N10 N 0.20521(12) 0.3308(3) 0.4782(3)
N4 N 0.18573(12) 0.8458(3) 0.0092(3)
N2 N 0.75424(11) 0.2931(3) 0.4381(3)
C8 C 0.98049(15) 0.4737(6) 0.6226(4)
C9 C 0.94748(16) 0.4302(5) 0.6039(4)
H5 H 0.946990 0.369378 0.598122
C10 C 0.91540(15) 0.4785(5) 0.5940(4)
C11 C 0.91593(16) 0.5674(6) 0.6032(4)
H6 H 0.894198 0.598691 0.597475
C12 C 0.94869(16) 0.6128(5) 0.6212(5)
C13 C 0.98094(16) 0.5634(6) 0.6301(4)
C14 C 0.88166(16) 0.4345(5) 0.5690(5)
C15 C 0.95011(17) 0.7082(5) 0.6291(5)
C16 C 0.9475(2) 0.7863(5) 0.6318(7)
C17 C 0.9467(3) 0.8807(8) 0.6364(12)
C18 C 0.9155(3) 0.9272(9) 0.6474(10)
H8 H 0.893308 0.897422 0.649897
C21 C 0.9791(8) 0.9234(18) 0.634(3)
C22 C 0.77898(16) 0.2435(4) 0.4860(5)
H12 H 0.773923 0.184181 0.494747
C23 C 0.81154(16) 0.2756(5) 0.5230(5)
H13 H 0.827422 0.238890 0.558053
C24 C 0.82048(14) 0.3634(4) 0.5075(4)
C25 C 0.79545(14) 0.4144(4) 0.4537(4)
H14 H 0.800633 0.472860 0.439472
C26 C 0.76293(14) 0.3776(3) 0.4216(4)
H15 H 0.746326 0.412808 0.387162
C27 C 0.85377(15) 0.4013(5) 0.5434(4)
Fe2 Fe 0.70285(2) 0.24888(4) 0.40437(5)
Ag1_2 Ag 0.68902(2) 0.48293(3) 0.12861(3)
N1_2 N 0.65093(12) 0.2076(3) 0.3773(3)
N3_2 N 0.69898(12) 0.3278(3) 0.2870(3)
C1_2 C 0.62270(18) 0.2629(5) 0.3730(5)
H1_2 H 0.627457 0.322815 0.375291
C2_2 C 0.58670(18) 0.2358(5) 0.3654(6)
H2_2 H 0.567917 0.276837 0.363257
C3_2 C 0.57897(15) 0.1476(5) 0.3611(4)
C4_2 C 0.60837(16) 0.0891(5) 0.3597(5)
H3_2 H 0.604431 0.029130 0.352881
C5_2 C 0.64329(15) 0.1220(4) 0.3686(5)
H4_2 H 0.662668 0.082471 0.368646
C6_2 C 0.54253(17) 0.1118(6) 0.3616(5)
C7_2 C 0.51396(17) 0.0746(6) 0.3687(5)
C8_2 C 0.48049(15) 0.0263(6) 0.3774(4)
C9_2 C 0.44748(16) 0.0698(5) 0.3961(4)
H5_2 H 0.446990 0.130622 0.401878
C10_2 C 0.41540(15) 0.0215(5) 0.4060(4)
C14_2 C 0.38166(16) 0.0655(5) 0.4310(5)
C22_2 C 0.27898(16) 0.2565(4) 0.5140(5)
H12_2 H 0.273923 0.315819 0.505253
C23_2 C 0.31154(16) 0.2244(5) 0.4770(5)
H13_2 H 0.327422 0.261110 0.441947
C24_2 C 0.32048(14) 0.1366(4) 0.4925(4)
C25_2 C 0.29545(14) 0.0856(4) 0.5463(4)
H14_2 H 0.300633 0.027140 0.560528
C26_2 C 0.26293(14) 0.1224(3) 0.5784(4)
H15_2 H 0.246326 0.087192 0.612838
C27_2 C 0.35377(15) 0.0987(5) 0.4566(4)
C28_2 C 0.69510(15) 0.3789(3) 0.2246(4)
C29 C 0.68365(15) 0.5917(4) 0.0393(4)
N6_2 N 0.72232(12) 0.1545(3) 0.3178(3)
C30_2 C 0.72827(15) 0.0945(4) 0.2673(4)
N9_2 N 0.68573(12) 0.3458(3) 0.4908(3)
N10_2 N 0.70521(12) 0.1692(3) 0.5218(3)
N4_2 N 0.68573(12) 0.6542(3) 0.9908(3)
Fe3 Fe 0.70285(2) 0.75112(4) 0.90437(5)
N5 N 0.4450(6) 0.4366(14) 0.352(3)
C11_2 C 0.41593(16) 0.9326(6) 0.3968(4)
H6_2 H 0.394198 0.901309 0.402525
C12_2 C 0.44869(16) 0.8872(5) 0.3788(5)
C13_2 C 0.48094(16) 0.9366(6) 0.3699(4)
H7_2 H 0.503012 0.907889 0.358720
C15_2 C 0.45011(17) 0.7918(5) 0.3709(5)
C16_2 C 0.4475(2) 0.7137(5) 0.3682(7)
C17_2 C 0.4467(3) 0.6193(8) 0.3636(12)
C18_2 C 0.4155(3) 0.5728(9) 0.3526(10)
H8_2 H 0.393308 0.602578 0.350103
C19 C 0.4156(5) 0.4825(10) 0.3448(14)
H9 H 0.393510 0.453627 0.334188
C20 C 0.4767(8) 0.486(3) 0.365(4)
H10 H 0.498407 0.454416 0.372803
C21_2 C 0.4791(8) 0.5766(18) 0.366(3)
H11_2 H 0.501389 0.606036 0.369257
Ag2_2 Ag 0.72318(2) 0.98559(3) 0.17694(3)
N7_2 N 0.70521(12) 0.8308(3) 0.0218(3)
C31_2 C 0.71024(15) 0.8820(4) 0.0836(4)
N5_2 N 0.4450(6) 0.5634(14) 0.852(3)
C11_3 C 0.41593(16) 0.0674(6) 0.8968(4)
H6_3 H 0.394198 0.098691 0.902525
C12_3 C 0.44869(16) 0.1128(5) 0.8788(5)
C13_3 C 0.48094(16) 0.0634(6) 0.8699(4)
H7_3 H 0.503012 0.092111 0.858720
C15_3 C 0.45011(17) 0.2082(5) 0.8709(5)
C16_3 C 0.4475(2) 0.2863(5) 0.8682(7)
C17_3 C 0.4467(3) 0.3807(8) 0.8636(12)
C18_3 C 0.4155(3) 0.4272(9) 0.8526(10)
H8_3 H 0.393308 0.397422 0.850103
C19_2 C 0.4156(5) 0.5175(10) 0.8448(14)
H9_2 H 0.393510 0.546373 0.834188
C20_2 C 0.4767(8) 0.514(3) 0.865(4)
H10_2 H 0.498407 0.545584 0.872803
C21_3 C 0.4791(8) 0.4234(18) 0.866(3)
H11_3 H 0.501389 0.393964 0.869257
Ag2_3 Ag 0.72318(2) 0.01441(3) 0.67694(3)
C31_3 C 0.71024(15) 0.1180(4) 0.5836(4)
N2_2 N 0.25424(11) 0.7931(3) 0.0619(3)
C22_3 C 0.27898(16) 0.7435(4) 0.0140(5)
H12_3 H 0.273923 0.684181 0.005253
C25_3 C 0.29545(14) 0.9144(4) 0.0463(4)
H14_3 H 0.300633 0.972860 0.060528
C26_3 C 0.26293(14) 0.8776(3) 0.0784(4)
H15_3 H 0.246326 0.912808 0.112838
Ag1_3 Ag 0.68902(2) 0.51707(3) 0.62861(3)
N1_3 N 0.65093(12) 0.7924(3) 0.8773(3)
N3_3 N 0.69898(12) 0.6722(3) 0.7870(3)
C1_3 C 0.62270(18) 0.7371(5) 0.8730(5)
H1_3 H 0.627457 0.677185 0.875291
C2_3 C 0.58670(18) 0.7642(5) 0.8654(6)
H2_3 H 0.567917 0.723163 0.863257
C3_3 C 0.57897(15) 0.8524(5) 0.8611(4)
C4_3 C 0.60837(16) 0.9109(5) 0.8597(5)
H3_3 H 0.604431 0.970870 0.852881
C5_3 C 0.64329(15) 0.8780(4) 0.8686(5)
H4_3 H 0.662668 0.917529 0.868646
C6_3 C 0.54253(17) 0.8882(6) 0.8616(5)
C7_3 C 0.51396(17) 0.9254(6) 0.8687(5)
C8_3 C 0.48049(15) 0.9737(6) 0.8774(4)
C9_3 C 0.44748(16) 0.9302(5) 0.8961(4)
H5_3 H 0.446990 0.869378 0.901878
C10_3 C 0.41540(15) 0.9785(5) 0.9060(4)
C14_3 C 0.38166(16) 0.9345(5) 0.9310(5)
C23_3 C 0.31154(16) 0.7756(5) 0.9770(5)
H13_3 H 0.327422 0.738890 0.941947
C24_3 C 0.32048(14) 0.8634(4) 0.9925(4)
C27_3 C 0.35377(15) 0.9013(5) 0.9566(4)
C28_3 C 0.69510(15) 0.6211(3) 0.7246(4)
C29_2 C 0.68365(15) 0.4083(4) 0.5393(4)
N6_3 N 0.72232(12) 0.8455(3) 0.8178(3)
C30_3 C 0.72827(15) 0.9055(4) 0.7673(4)
N8_2 N 0.75424(11) 0.7069(3) 0.9381(3)
C29_3 C 0.18365(15) 0.0917(4) 0.4607(4)
Ag1_4 Ag 0.18902(2) 0.98293(3) 0.37139(3)
N1_4 N 0.15093(12) 0.7076(3) 0.1227(3)
N3_4 N 0.19898(12) 0.8278(3) 0.2130(3)
C1_4 C 0.12270(18) 0.7629(5) 0.1270(5)
H1_4 H 0.127457 0.822815 0.124709
C2_4 C 0.08670(18) 0.7358(5) 0.1346(6)
H2_4 H 0.067917 0.776837 0.136743
C3_4 C 0.07897(15) 0.6476(5) 0.1389(4)
C4_4 C 0.10837(16) 0.5891(5) 0.1403(5)
H3_4 H 0.104431 0.529130 0.147119
C5_4 C 0.14329(15) 0.6220(4) 0.1314(5)
H4_4 H 0.162668 0.582471 0.131354
C6_4 C 0.04253(17) 0.6118(6) 0.1384(5)
C7_4 C 0.01396(17) 0.5746(6) 0.1313(5)
H7_4 H 0.003012 0.407889 0.141280
H11_4 H 0.001389 0.106036 0.130743
C28_4 C 0.19510(15) 0.8789(3) 0.2754(4)
Ag2_4 Ag 0.22318(2) 0.48559(3) 0.32306(3)
N6_4 N 0.22232(12) 0.6545(3) 0.1822(3)
C30_4 C 0.22827(15) 0.5945(4) 0.2327(4)
C31_4 C 0.21024(15) 0.3820(4) 0.4164(4)
C22_4 C 0.77898(16) 0.7565(4) 0.9860(5)
H12_4 H 0.773923 0.815819 0.994747
C25_4 C 0.79545(14) 0.5856(4) 0.9537(4)
H14_4 H 0.800633 0.527140 0.939472
C26_4 C 0.76293(14) 0.6224(3) 0.9216(4)
H15_4 H 0.746326 0.587192 0.887162
C29_4 C 0.18365(15) 0.9083(4) 0.9607(4)
N5_3 N 0.9450(6) 0.0634(14) 0.648(3)
C19_3 C 0.9156(5) 0.0175(10) 0.6552(14)
H9_3 H 0.893510 0.046373 0.665812
C20_3 C 0.9767(8) 0.014(3) 0.635(4)
H10_3 H 0.998407 0.045584 0.627197
Ag1_5 Ag 0.31098(2) 0.48293(3) 0.37139(3)
Fe1_2 Fe 0.29715(2) 0.24888(4) 0.09563(5)
N1_5 N 0.34907(12) 0.2076(3) 0.1227(3)
N3_5 N 0.30102(12) 0.3278(3) 0.2130(3)
N4_3 N 0.31427(12) 0.6542(3) 0.5092(3)
C1_5 C 0.37730(18) 0.2629(5) 0.1270(5)
H1_5 H 0.372543 0.322815 0.124709
C2_5 C 0.41330(18) 0.2358(5) 0.1346(6)
H2_5 H 0.432083 0.276837 0.136743
C3_5 C 0.42103(15) 0.1476(5) 0.1389(4)
C4_5 C 0.39163(16) 0.0891(5) 0.1403(5)
H3_5 H 0.395569 0.029130 0.147119
C5_5 C 0.35671(15) 0.1220(4) 0.1314(5)
H4_5 H 0.337332 0.082471 0.131354
C6_5 C 0.45747(17) 0.1118(6) 0.1384(5)
C7_5 C 0.48604(17) 0.0746(6) 0.1313(5)
C8_4 C 0.51951(15) 0.0263(6) 0.1226(4)
C9_4 C 0.55252(16) 0.0698(5) 0.1039(4)
H5_4 H 0.553010 0.130622 0.098122
C10_4 C 0.58460(15) 0.0215(5) 0.0940(4)
C14_4 C 0.61834(16) 0.0655(5) 0.0690(5)
C23_4 C 0.68846(16) 0.2244(5) 0.0230(5)
H13_4 H 0.672578 0.261110 0.058053
C24_4 C 0.67952(14) 0.1366(4) 0.0075(4)
C27_4 C 0.64623(15) 0.0987(5) 0.0434(4)
C28_5 C 0.30490(15) 0.3789(3) 0.2754(4)
C29_5 C 0.31635(15) 0.5917(4) 0.4607(4)
N6_5 N 0.27768(12) 0.1545(3) 0.1822(3)
C30_5 C 0.27173(15) 0.0945(4) 0.2327(4)
Fe3_2 Fe 0.29715(2) 0.75112(4) 0.59563(5)
N8_3 N 0.24576(11) 0.2931(3) 0.0619(3)
N9_3 N 0.31427(12) 0.3458(3) 0.0092(3)
N2_3 N 0.74576(11) 0.2069(3) 0.9381(3)
C22_5 C 0.72102(16) 0.2565(4) 0.9860(5)
H12_5 H 0.726077 0.315819 0.994747
C25_5 C 0.70455(14) 0.0856(4) 0.9537(4)
H14_5 H 0.699367 0.027140 0.939472
C26_5 C 0.73707(14) 0.1224(3) 0.9216(4)
H15_5 H 0.753674 0.087192 0.887162
Fe2_2 Fe 0.79715(2) 0.25112(4) 0.90437(5)
N10_3 N 0.29479(12) 0.1692(3) 0.9782(3)
N5_4 N 0.5550(6) 0.4366(14) 0.148(3)
C11_4 C 0.58407(16) 0.9326(6) 0.1032(4)
H6_4 H 0.605802 0.901309 0.097475
C12_4 C 0.55131(16) 0.8872(5) 0.1212(5)
C13_4 C 0.51906(16) 0.9366(6) 0.1301(4)
H7_5 H 0.496988 0.907889 0.141280
C15_4 C 0.54989(17) 0.7918(5) 0.1291(5)
C16_4 C 0.5525(2) 0.7137(5) 0.1318(7)
C17_4 C 0.5533(3) 0.6193(8) 0.1364(12)
C18_4 C 0.5845(3) 0.5728(9) 0.1474(10)
H8_4 H 0.606692 0.602578 0.149897
C19_4 C 0.5844(5) 0.4825(10) 0.1552(14)
H9_4 H 0.606490 0.453627 0.165812
C20_4 C 0.5233(8) 0.486(3) 0.135(4)
H10_4 H 0.501593 0.454416 0.127197
C21_4 C 0.5209(8) 0.5766(18) 0.134(3)
H11_5 H 0.498611 0.606036 0.130743
Ag2_5 Ag 0.27682(2) 0.98559(3) 0.32306(3)
N7_3 N 0.29479(12) 0.8308(3) 0.4782(3)
C31_5 C 0.28976(15) 0.8820(4) 0.4164(4)
C22_6 C 0.22102(16) 0.2435(4) 0.0140(5)
H12_6 H 0.226077 0.184181 0.005253
C25_6 C 0.20455(14) 0.4144(4) 0.0463(4)
H14_6 H 0.199367 0.472860 0.060528
C26_6 C 0.23707(14) 0.3776(3) 0.0784(4)
H15_6 H 0.253674 0.412808 0.112838
N10_4 N 0.79479(12) 0.3308(3) 0.0218(3)
Ag1_6 Ag 0.81098(2) 0.01707(3) 0.62861(3)
N1_6 N 0.84907(12) 0.2924(3) 0.8773(3)
N3_6 N 0.80102(12) 0.1722(3) 0.7870(3)
C1_6 C 0.87730(18) 0.2371(5) 0.8730(5)
H1_6 H 0.872543 0.177185 0.875291
C2_6 C 0.91330(18) 0.2642(5) 0.8654(6)
H2_6 H 0.932083 0.223163 0.863257
C3_6 C 0.92103(15) 0.3524(5) 0.8611(4)
C4_6 C 0.89163(16) 0.4109(5) 0.8597(5)
H3_6 H 0.895569 0.470870 0.852881
C5_6 C 0.85671(15) 0.3780(4) 0.8686(5)
H4_6 H 0.837332 0.417529 0.868646
C6_6 C 0.95747(17) 0.3882(6) 0.8616(5)
C7_6 C 0.98604(17) 0.4254(6) 0.8687(5)
H7_6 H 0.996988 0.592111 0.858720
H11_6 H 0.998611 0.893964 0.869257
C28_6 C 0.80490(15) 0.1211(3) 0.7246(4)
Ag2_6 Ag 0.77682(2) 0.51441(3) 0.67694(3)
N6_6 N 0.77768(12) 0.3455(3) 0.8178(3)
N7_4 N 0.79479(12) 0.6692(3) 0.5218(3)
C30_6 C 0.77173(15) 0.4055(4) 0.7673(4)
C31_6 C 0.78976(15) 0.6180(4) 0.5836(4)
Fe4_2 Fe 0.79715(2) 0.74888(4) 0.40437(5)
N9_4 N 0.81427(12) 0.1542(3) 0.9908(3)
N4_4 N 0.81427(12) 0.8458(3) 0.4908(3)
C29_6 C 0.81635(15) 0.9083(4) 0.5393(4)
N2_4 N 0.24576(11) 0.7069(3) 0.5619(3)
C8_5 C 0.01951(15) 0.5263(6) 0.3774(4)
C9_5 C 0.05252(16) 0.5698(5) 0.3961(4)
H5_5 H 0.053010 0.630622 0.401878
C10_5 C 0.08460(15) 0.5215(5) 0.4060(4)
C11_5 C 0.08407(16) 0.4326(6) 0.3968(4)
H6_5 H 0.105802 0.401309 0.402525
C12_5 C 0.05131(16) 0.3872(5) 0.3788(5)
C13_5 C 0.01906(16) 0.4366(6) 0.3699(4)
C14_5 C 0.11834(16) 0.5655(5) 0.4310(5)
C15_5 C 0.04989(17) 0.2918(5) 0.3709(5)
C16_5 C 0.0525(2) 0.2137(5) 0.3682(7)
C17_5 C 0.0533(3) 0.1193(8) 0.3636(12)
C18_5 C 0.0845(3) 0.0728(9) 0.3526(10)
H8_5 H 0.106692 0.102578 0.350103
C21_5 C 0.0209(8) 0.0766(18) 0.366(3)
C22_7 C 0.22102(16) 0.7565(4) 0.5140(5)
H12_7 H 0.226077 0.815819 0.505253
C23_5 C 0.18846(16) 0.7244(5) 0.4770(5)
H13_5 H 0.172578 0.761110 0.441947
C24_5 C 0.17952(14) 0.6366(4) 0.4925(4)
C25_7 C 0.20455(14) 0.5856(4) 0.5463(4)
H14_7 H 0.199367 0.527140 0.560528
C26_7 C 0.23707(14) 0.6224(3) 0.5784(4)
H15_7 H 0.253674 0.587192 0.612838
C27_5 C 0.14623(15) 0.5987(5) 0.4566(4)
Ag1_7 Ag 0.81098(2) 0.98293(3) 0.12861(3)
N1_7 N 0.84907(12) 0.7076(3) 0.3773(3)
N3_7 N 0.80102(12) 0.8278(3) 0.2870(3)
C1_7 C 0.87730(18) 0.7629(5) 0.3730(5)
H1_7 H 0.872543 0.822815 0.375291
C2_7 C 0.91330(18) 0.7358(5) 0.3654(6)
H2_7 H 0.932083 0.776837 0.363257
C3_7 C 0.92103(15) 0.6476(5) 0.3611(4)
C4_7 C 0.89163(16) 0.5891(5) 0.3597(5)
H3_7 H 0.895569 0.529130 0.352881
C5_7 C 0.85671(15) 0.6220(4) 0.3686(5)
H4_7 H 0.837332 0.582471 0.368646
C6_7 C 0.95747(17) 0.6118(6) 0.3616(5)
C7_7 C 0.98604(17) 0.5746(6) 0.3687(5)
H7_7 H 0.996988 0.407889 0.358720
H11_7 H 0.998611 0.106036 0.369257
C28_7 C 0.80490(15) 0.8789(3) 0.2246(4)
Ag2_7 Ag 0.77682(2) 0.48559(3) 0.17694(3)
N6_7 N 0.77768(12) 0.6545(3) 0.3178(3)
C30_7 C 0.77173(15) 0.5945(4) 0.2673(4)
C31_7 C 0.78976(15) 0.3820(4) 0.0836(4)
N8_4 N 0.74576(11) 0.7931(3) 0.4381(3)
N5_5 N 0.5550(6) 0.5634(14) 0.648(3)
C11_6 C 0.58407(16) 0.0674(6) 0.6032(4)
H6_6 H 0.605802 0.098691 0.597475
C12_6 C 0.55131(16) 0.1128(5) 0.6212(5)
C13_6 C 0.51906(16) 0.0634(6) 0.6301(4)
H7_8 H 0.496988 0.092111 0.641280
C15_6 C 0.54989(17) 0.2082(5) 0.6291(5)
C16_6 C 0.5525(2) 0.2863(5) 0.6318(7)
C17_6 C 0.5533(3) 0.3807(8) 0.6364(12)
C18_6 C 0.5845(3) 0.4272(9) 0.6474(10)
H8_6 H 0.606692 0.397422 0.649897
C19_5 C 0.5844(5) 0.5175(10) 0.6552(14)
H9_5 H 0.606490 0.546373 0.665812
C20_5 C 0.5233(8) 0.514(3) 0.635(4)
H10_5 H 0.501593 0.545584 0.627197
C21_6 C 0.5209(8) 0.4234(18) 0.634(3)
H11_8 H 0.498611 0.393964 0.630743
Ag2_8 Ag 0.27682(2) 0.01441(3) 0.82306(3)
C31_8 C 0.28976(15) 0.1180(4) 0.9164(4)
Ag1_8 Ag 0.31098(2) 0.51707(3) 0.87139(3)
N1_8 N 0.34907(12) 0.7924(3) 0.6227(3)
N3_8 N 0.30102(12) 0.6722(3) 0.7130(3)
C1_8 C 0.37730(18) 0.7371(5) 0.6270(5)
H1_8 H 0.372543 0.677185 0.624709
C2_8 C 0.41330(18) 0.7642(5) 0.6346(6)
H2_8 H 0.432083 0.723163 0.636743
C3_8 C 0.42103(15) 0.8524(5) 0.6389(4)
C4_8 C 0.39163(16) 0.9109(5) 0.6403(5)
H3_8 H 0.395569 0.970870 0.647119
C5_8 C 0.35671(15) 0.8780(4) 0.6314(5)
H4_8 H 0.337332 0.917529 0.631354
C6_8 C 0.45747(17) 0.8882(6) 0.6384(5)
C7_8 C 0.48604(17) 0.9254(6) 0.6313(5)
C8_6 C 0.51951(15) 0.9737(6) 0.6226(4)
C9_6 C 0.55252(16) 0.9302(5) 0.6039(4)
H5_6 H 0.553010 0.869378 0.598122
C10_6 C 0.58460(15) 0.9785(5) 0.5940(4)
C14_6 C 0.61834(16) 0.9345(5) 0.5690(5)
C22_8 C 0.72102(16) 0.7435(4) 0.4860(5)
H12_8 H 0.726077 0.684181 0.494747
C23_6 C 0.68846(16) 0.7756(5) 0.5230(5)
H13_6 H 0.672578 0.738890 0.558053
C24_6 C 0.67952(14) 0.8634(4) 0.5075(4)
C25_8 C 0.70455(14) 0.9144(4) 0.4537(4)
H14_8 H 0.699367 0.972860 0.439472
C26_8 C 0.73707(14) 0.8776(3) 0.4216(4)
H15_8 H 0.753674 0.912808 0.387162
C27_6 C 0.64623(15) 0.9013(5) 0.5434(4)
C28_8 C 0.30490(15) 0.6211(3) 0.7754(4)
C29_7 C 0.31635(15) 0.4083(4) 0.9607(4)
N6_8 N 0.27768(12) 0.8455(3) 0.6822(3)
C30_8 C 0.27173(15) 0.9055(4) 0.7327(4)
N5_6 N 0.0550(6) 0.0634(14) 0.852(3)
C19_6 C 0.0844(5) 0.0175(10) 0.8448(14)
H9_6 H 0.106490 0.046373 0.834188
C20_6 C 0.0233(8) 0.014(3) 0.865(4)
H10_6 H 0.001593 0.045584 0.872803
C8_7 C 0.01951(15) 0.4737(6) 0.8774(4)
C9_7 C 0.05252(16) 0.4302(5) 0.8961(4)
H5_7 H 0.053010 0.369378 0.901878
C10_7 C 0.08460(15) 0.4785(5) 0.9060(4)
C11_7 C 0.08407(16) 0.5674(6) 0.8968(4)
H6_7 H 0.105802 0.598691 0.902525
C12_7 C 0.05131(16) 0.6128(5) 0.8788(5)
C13_7 C 0.01906(16) 0.5634(6) 0.8699(4)
C14_7 C 0.11834(16) 0.4345(5) 0.9310(5)
C15_7 C 0.04989(17) 0.7082(5) 0.8709(5)
C16_7 C 0.0525(2) 0.7863(5) 0.8682(7)
C17_7 C 0.0533(3) 0.8807(8) 0.8636(12)
C18_7 C 0.0845(3) 0.9272(9) 0.8526(10)
H8_7 H 0.106692 0.897422 0.850103
C21_7 C 0.0209(8) 0.9234(18) 0.866(3)
C23_7 C 0.18846(16) 0.2756(5) 0.9770(5)
H13_7 H 0.172578 0.238890 0.941947
C24_7 C 0.17952(14) 0.3634(4) 0.9925(4)
C27_7 C 0.14623(15) 0.4013(5) 0.9566(4)
N5_7 N 0.0550(6) 0.9366(14) 0.352(3)
C19_7 C 0.0844(5) 0.9825(10) 0.3448(14)
H9_7 H 0.106490 0.953627 0.334188
C20_7 C 0.0233(8) 0.986(3) 0.365(4)
H10_7 H 0.001593 0.954416 0.372803
C29_8 C 0.81635(15) 0.0917(4) 0.0393(4)
C8_8 C 0.98049(15) 0.5263(6) 0.1226(4)
C9_8 C 0.94748(16) 0.5698(5) 0.1039(4)
H5_8 H 0.946990 0.630622 0.098122
C10_8 C 0.91540(15) 0.5215(5) 0.0940(4)
C11_8 C 0.91593(16) 0.4326(6) 0.1032(4)
H6_8 H 0.894198 0.401309 0.097475
C12_8 C 0.94869(16) 0.3872(5) 0.1212(5)
C13_8 C 0.98094(16) 0.4366(6) 0.1301(4)
C14_8 C 0.88166(16) 0.5655(5) 0.0690(5)
C15_8 C 0.95011(17) 0.2918(5) 0.1291(5)
C16_8 C 0.9475(2) 0.2137(5) 0.1318(7)
C17_8 C 0.9467(3) 0.1193(8) 0.1364(12)
C18_8 C 0.9155(3) 0.0728(9) 0.1474(10)
H8_8 H 0.893308 0.102578 0.149897
C21_8 C 0.9791(8) 0.0766(18) 0.134(3)
C23_8 C 0.81154(16) 0.7244(5) 0.0230(5)
H13_8 H 0.827422 0.761110 0.058053
C24_8 C 0.82048(14) 0.6366(4) 0.0075(4)
C27_8 C 0.85377(15) 0.5987(5) 0.0434(4)
N5_8 N 0.9450(6) 0.9366(14) 0.148(3)
C19_8 C 0.9156(5) 0.9825(10) 0.1552(14)
H9_8 H 0.893510 0.953627 0.165812
C20_8 C 0.9767(8) 0.986(3) 0.135(4)
H10_8 H 0.998407 0.954416 0.127197
loop_
_geom_bond_atom_site_label_1
_geom_bond_atom_site_label_2
_geom_bond_site_symmetry_1
_geom_bond_site_symmetry_2
Ag1 C28 1_555 1_555
Fe1 N1 1_555 1_555
N1 C1 1_555 1_555
N3 Fe1 1_555 1_555
C1 H1 1_555 1_555
C2 C1 1_555 1_555
H2 C2 1_555 1_555
C3 C2 1_555 1_555
C4 C3 1_555 1_555
H3 C4 1_555 1_555
C5 N1 1_555 1_555
H4 C5 1_555 1_555
C6 C3 1_555 1_555
C7 C6 1_555 1_555
C28 N3 1_555 1_555
Ag2 C30 1_555 1_555
N6 Fe1 1_555 1_555
N7 C31 1_555 1_555
C30 N6 1_555 1_555
C31 Ag2 1_555 1_555
N8 Fe1 1_555 1_555
N9 Fe1 1_555 1_555
N10 Fe1 1_555 1_555
C4 C5 1_555 1_555
Fe4 N4 1_555 1_555
N2 C22 1_555 1_555
C9 C8 1_555 1_555
H5 C9 1_555 1_555
C10 C9 1_555 1_555
C11 C10 1_555 1_555
H6 C11 1_555 1_555
C12 C11 1_555 1_555
C13 C8 1_555 1_555
C14 C10 1_555 1_555
C15 C12 1_555 1_555
C16 C15 1_555 1_555
C17 C16 1_555 1_555
C18 C17 1_555 1_555
H8 C18 1_555 1_555
C21 C17 1_555 1_555
C22 H12 1_555 1_555
C23 C22 1_555 1_555
H13 C23 1_555 1_555
C24 C23 1_555 1_555
C25 C24 1_555 1_555
H14 C25 1_555 1_555
C26 N2 1_555 1_555
H15 C26 1_555 1_555
C27 C14 1_555 1_555
Fe2 N2 1_555 1_555
C12 C13 1_555 1_555
C24 C27 1_555 1_555
C25 C26 1_555 1_555
Ag1_2 C28_2 1_555 1_555
Fe2 N1_2 1_555 1_555
N1_2 C1_2 1_555 1_555
N8 C22_2 1_555 1_555
N3_2 Fe2 1_555 1_555
C1_2 H1_2 1_555 1_555
C2_2 C1_2 1_555 1_555
H2_2 C2_2 1_555 1_555
C3_2 C2_2 1_555 1_555
C4_2 C3_2 1_555 1_555
H3_2 C4_2 1_555 1_555
C5_2 N1_2 1_555 1_555
H4_2 C5_2 1_555 1_555
C6_2 C3_2 1_555 1_555
C7_2 C6_2 1_555 1_555
C8_2 C7_2 1_555 1_555
C9_2 C8_2 1_555 1_555
H5_2 C9_2 1_555 1_555
C10_2 C9_2 1_555 1_555
C14_2 C10_2 1_555 1_555
C22_2 H12_2 1_555 1_555
C23_2 C22_2 1_555 1_555
H13_2 C23_2 1_555 1_555
C24_2 C23_2 1_555 1_555
C25_2 C24_2 1_555 1_555
H14_2 C25_2 1_555 1_555
C26_2 N8 1_555 1_555
H15_2 C26_2 1_555 1_555
C27_2 C14_2 1_555 1_555
C28_2 N3_2 1_555 1_555
C29 Ag1_2 1_555 1_555
N6_2 Fe2 1_555 1_555
C30_2 N6_2 1_555 1_555
N9_2 Fe2 1_555 1_555
N10_2 Fe2 1_555 1_555
C4_2 C5_2 1_555 1_555
C24_2 C27_2 1_555 1_555
C25_2 C26_2 1_555 1_555
Fe3 N4_2 1_555 1_555
N5 C19 1_555 1_555
H6_2 C11_2 1_555 1_555
C12_2 C11_2 1_555 1_555
H7_2 C13_2 1_555 1_555
C15_2 C12_2 1_555 1_555
C16_2 C15_2 1_555 1_555
C17_2 C16_2 1_555 1_555
C18_2 C17_2 1_555 1_555
H8_2 C18_2 1_555 1_555
C19 C18_2 1_555 1_555
H9 C19 1_555 1_555
C20 N5 1_555 1_555
H10 C20 1_555 1_555
C21_2 C17_2 1_555 1_555
H11_2 C21_2 1_555 1_555
N7_2 C31_2 1_555 1_555
C31_2 Ag2_2 1_555 1_555
C12_2 C13_2 1_555 1_555
C20 C21_2 1_555 1_555
N5_2 C19_2 1_555 1_555
H6_3 C11_3 1_555 1_555
C12_3 C11_3 1_555 1_555
H7_3 C13_3 1_555 1_555
C15_3 C12_3 1_555 1_555
C16_3 C15_3 1_555 1_555
C17_3 C16_3 1_555 1_555
C18_3 C17_3 1_555 1_555
H8_3 C18_3 1_555 1_555
C19_2 C18_3 1_555 1_555
H9_2 C19_2 1_555 1_555
C20_2 N5_2 1_555 1_555
H10_2 C20_2 1_555 1_555
C21_3 C17_3 1_555 1_555
H11_3 C21_3 1_555 1_555
N10_2 C31_3 1_555 1_555
C31_3 Ag2_3 1_555 1_555
C12_3 C13_3 1_555 1_555
C20_2 C21_3 1_555 1_555
N2_2 C22_3 1_555 1_555
C22_3 H12_3 1_555 1_555
H14_3 C25_3 1_555 1_555
C26_3 N2_2 1_555 1_555
H15_3 C26_3 1_555 1_555
Fe4 N2_2 1_555 1_555
C25_3 C26_3 1_555 1_555
Ag1_3 C28_3 1_555 1_555
Fe3 N1_3 1_555 1_555
N1_3 C1_3 1_555 1_555
N3_3 Fe3 1_555 1_555
N9_2 C29_2 1_555 1_555
C1_3 H1_3 1_555 1_555
C2_3 C1_3 1_555 1_555
H2_3 C2_3 1_555 1_555
C3_3 C2_3 1_555 1_555
C4_3 C3_3 1_555 1_555
H3_3 C4_3 1_555 1_555
C5_3 N1_3 1_555 1_555
H4_3 C5_3 1_555 1_555
C6_3 C3_3 1_555 1_555
C7_3 C6_3 1_555 1_555
C8_3 C7_3 1_555 1_555
C9_3 C8_3 1_555 1_555
H5_3 C9_3 1_555 1_555
C10_3 C9_3 1_555 1_555
C14_3 C10_3 1_555 1_555
H13_3 C23_3 1_555 1_555
C24_3 C23_3 1_555 1_555
C27_3 C14_3 1_555 1_555
C28_3 N3_3 1_555 1_555
C29_2 Ag1_3 1_555 1_555
N6_3 Fe3 1_555 1_555
C30_3 N6_3 1_555 1_555
N8_2 Fe3 1_555 1_555
C4_3 C5_3 1_555 1_555
C24_3 C27_3 1_555 1_555
N9 C29_3 1_555 1_555
Ag1_4 C28_4 1_555 1_555
Fe4 N1_4 1_555 1_555
N1_4 C1_4 1_555 1_555
N3_4 Fe4 1_555 1_555
C1_4 H1_4 1_555 1_555
C2_4 C1_4 1_555 1_555
H2_4 C2_4 1_555 1_555
C3_4 C2_4 1_555 1_555
C4_4 C3_4 1_555 1_555
H3_4 C4_4 1_555 1_555
C5_4 N1_4 1_555 1_555
H4_4 C5_4 1_555 1_555
C6_4 C3_4 1_555 1_555
C7_4 C6_4 1_555 1_555
C28_4 N3_4 1_555 1_555
Ag2_4 C30_4 1_555 1_555
N6_4 Fe4 1_555 1_555
N10 C31_4 1_555 1_555
C30_4 N6_4 1_555 1_555
C31_4 Ag2_4 1_555 1_555
C4_4 C5_4 1_555 1_555
N8_2 C22_4 1_555 1_555
C22_4 H12_4 1_555 1_555
H14_4 C25_4 1_555 1_555
C26_4 N8_2 1_555 1_555
H15_4 C26_4 1_555 1_555
C25_4 C26_4 1_555 1_555
N5_3 C19_3 1_555 1_555
H9_3 C19_3 1_555 1_555
C20_3 N5_3 1_555 1_555
H10_3 C20_3 1_555 1_555
Ag1_5 C28_5 1_555 1_555
Fe1_2 N1_5 1_555 1_555
N1_5 C1_5 1_555 1_555
N3_5 Fe1_2 1_555 1_555
N4_3 C29_5 1_555 1_555
C1_5 H1_5 1_555 1_555
C2_5 C1_5 1_555 1_555
H2_5 C2_5 1_555 1_555
C3_5 C2_5 1_555 1_555
C4_5 C3_5 1_555 1_555
H3_5 C4_5 1_555 1_555
C5_5 N1_5 1_555 1_555
H4_5 C5_5 1_555 1_555
C6_5 C3_5 1_555 1_555
C7_5 C6_5 1_555 1_555
C8_4 C7_5 1_555 1_555
C9_4 C8_4 1_555 1_555
H5_4 C9_4 1_555 1_555
C10_4 C9_4 1_555 1_555
C14_4 C10_4 1_555 1_555
H13_4 C23_4 1_555 1_555
C24_4 C23_4 1_555 1_555
C27_4 C14_4 1_555 1_555
C28_5 N3_5 1_555 1_555
C29_5 Ag1_5 1_555 1_555
N6_5 Fe1_2 1_555 1_555
C30_5 N6_5 1_555 1_555
Fe3_2 N4_3 1_555 1_555
N8_3 Fe1_2 1_555 1_555
N9_3 Fe1_2 1_555 1_555
C4_5 C5_5 1_555 1_555
C24_4 C27_4 1_555 1_555
N2_3 C22_5 1_555 1_555
C22_5 H12_5 1_555 1_555
H14_5 C25_5 1_555 1_555
C26_5 N2_3 1_555 1_555
H15_5 C26_5 1_555 1_555
Fe2_2 N2_3 1_555 1_555
C25_5 C26_5 1_555 1_555
N5_4 C19_4 1_555 1_555
H6_4 C11_4 1_555 1_555
C12_4 C11_4 1_555 1_555
H7_5 C13_4 1_555 1_555
C15_4 C12_4 1_555 1_555
C16_4 C15_4 1_555 1_555
C17_4 C16_4 1_555 1_555
C18_4 C17_4 1_555 1_555
H8_4 C18_4 1_555 1_555
C19_4 C18_4 1_555 1_555
H9_4 C19_4 1_555 1_555
C20_4 N5_4 1_555 1_555
H10_4 C20_4 1_555 1_555
C21_4 C17_4 1_555 1_555
H11_5 C21_4 1_555 1_555
N7_3 C31_5 1_555 1_555
C31_5 Ag2_5 1_555 1_555
Fe3_2 N7_3 1_555 1_555
C12_4 C13_4 1_555 1_555
C20_4 C21_4 1_555 1_555
N8_3 C22_6 1_555 1_555
C22_6 H12_6 1_555 1_555
H14_6 C25_6 1_555 1_555
C26_6 N8_3 1_555 1_555
H15_6 C26_6 1_555 1_555
C25_6 C26_6 1_555 1_555
Ag1_6 C28_6 1_555 1_555
Fe2_2 N1_6 1_555 1_555
N1_6 C1_6 1_555 1_555
N3_6 Fe2_2 1_555 1_555
C1_6 H1_6 1_555 1_555
C2_6 C1_6 1_555 1_555
H2_6 C2_6 1_555 1_555
C3_6 C2_6 1_555 1_555
C4_6 C3_6 1_555 1_555
H3_6 C4_6 1_555 1_555
C5_6 N1_6 1_555 1_555
H4_6 C5_6 1_555 1_555
C6_6 C3_6 1_555 1_555
C7_6 C6_6 1_555 1_555
C28_6 N3_6 1_555 1_555
Ag2_6 C30_6 1_555 1_555
N6_6 Fe2_2 1_555 1_555
N7_4 C31_6 1_555 1_555
C30_6 N6_6 1_555 1_555
C31_6 Ag2_6 1_555 1_555
Fe4_2 N7_4 1_555 1_555
N9_4 Fe2_2 1_555 1_555
C4_6 C5_6 1_555 1_555
N4_4 C29_6 1_555 1_555
Fe4_2 N4_4 1_555 1_555
N2_4 C22_7 1_555 1_555
C9_5 C8_5 1_555 1_555
H5_5 C9_5 1_555 1_555
C10_5 C9_5 1_555 1_555
C11_5 C10_5 1_555 1_555
H6_5 C11_5 1_555 1_555
C12_5 C11_5 1_555 1_555
C13_5 C8_5 1_555 1_555
C14_5 C10_5 1_555 1_555
C15_5 C12_5 1_555 1_555
C16_5 C15_5 1_555 1_555
C17_5 C16_5 1_555 1_555
C18_5 C17_5 1_555 1_555
H8_5 C18_5 1_555 1_555
C21_5 C17_5 1_555 1_555
C22_7 H12_7 1_555 1_555
C23_5 C22_7 1_555 1_555
H13_5 C23_5 1_555 1_555
C24_5 C23_5 1_555 1_555
C25_7 C24_5 1_555 1_555
H14_7 C25_7 1_555 1_555
C26_7 N2_4 1_555 1_555
H15_7 C26_7 1_555 1_555
C27_5 C14_5 1_555 1_555
Fe3_2 N2_4 1_555 1_555
C12_5 C13_5 1_555 1_555
C24_5 C27_5 1_555 1_555
C25_7 C26_7 1_555 1_555
Ag1_7 C28_7 1_555 1_555
Fe4_2 N1_7 1_555 1_555
N1_7 C1_7 1_555 1_555
N3_7 Fe4_2 1_555 1_555
C1_7 H1_7 1_555 1_555
C2_7 C1_7 1_555 1_555
H2_7 C2_7 1_555 1_555
C3_7 C2_7 1_555 1_555
C4_7 C3_7 1_555 1_555
H3_7 C4_7 1_555 1_555
C5_7 N1_7 1_555 1_555
H4_7 C5_7 1_555 1_555
C6_7 C3_7 1_555 1_555
C7_7 C6_7 1_555 1_555
C28_7 N3_7 1_555 1_555
Ag2_7 C30_7 1_555 1_555
N6_7 Fe4_2 1_555 1_555
N10_4 C31_7 1_555 1_555
C30_7 N6_7 1_555 1_555
C31_7 Ag2_7 1_555 1_555
N8_4 Fe4_2 1_555 1_555
C4_7 C5_7 1_555 1_555
N5_5 C19_5 1_555 1_555
H6_6 C11_6 1_555 1_555
C12_6 C11_6 1_555 1_555
H7_8 C13_6 1_555 1_555
C15_6 C12_6 1_555 1_555
C16_6 C15_6 1_555 1_555
C17_6 C16_6 1_555 1_555
C18_6 C17_6 1_555 1_555
H8_6 C18_6 1_555 1_555
C19_5 C18_6 1_555 1_555
H9_5 C19_5 1_555 1_555
C20_5 N5_5 1_555 1_555
H10_5 C20_5 1_555 1_555
C21_6 C17_6 1_555 1_555
H11_8 C21_6 1_555 1_555
N10_3 C31_8 1_555 1_555
C31_8 Ag2_8 1_555 1_555
C12_6 C13_6 1_555 1_555
C20_5 C21_6 1_555 1_555
Ag1_8 C28_8 1_555 1_555
Fe3_2 N1_8 1_555 1_555
N1_8 C1_8 1_555 1_555
N8_4 C22_8 1_555 1_555
N3_8 Fe3_2 1_555 1_555
C1_8 H1_8 1_555 1_555
C2_8 C1_8 1_555 1_555
H2_8 C2_8 1_555 1_555
C3_8 C2_8 1_555 1_555
C4_8 C3_8 1_555 1_555
H3_8 C4_8 1_555 1_555
C5_8 N1_8 1_555 1_555
H4_8 C5_8 1_555 1_555
C6_8 C3_8 1_555 1_555
C7_8 C6_8 1_555 1_555
C8_6 C7_8 1_555 1_555
C9_6 C8_6 1_555 1_555
H5_6 C9_6 1_555 1_555
C10_6 C9_6 1_555 1_555
C14_6 C10_6 1_555 1_555
C22_8 H12_8 1_555 1_555
C23_6 C22_8 1_555 1_555
H13_6 C23_6 1_555 1_555
C24_6 C23_6 1_555 1_555
C25_8 C24_6 1_555 1_555
H14_8 C25_8 1_555 1_555
C26_8 N8_4 1_555 1_555
H15_8 C26_8 1_555 1_555
C27_6 C14_6 1_555 1_555
C28_8 N3_8 1_555 1_555
C29_7 Ag1_8 1_555 1_555
N6_8 Fe3_2 1_555 1_555
C30_8 N6_8 1_555 1_555
C4_8 C5_8 1_555 1_555
C24_6 C27_6 1_555 1_555
C25_8 C26_8 1_555 1_555
N5_6 C19_6 1_555 1_555
H9_6 C19_6 1_555 1_555
C20_6 N5_6 1_555 1_555
H10_6 C20_6 1_555 1_555
C9_7 C8_7 1_555 1_555
H5_7 C9_7 1_555 1_555
C10_7 C9_7 1_555 1_555
C11_7 C10_7 1_555 1_555
H6_7 C11_7 1_555 1_555
C12_7 C11_7 1_555 1_555
C13_7 C8_7 1_555 1_555
C14_7 C10_7 1_555 1_555
C15_7 C12_7 1_555 1_555
C16_7 C15_7 1_555 1_555
C17_7 C16_7 1_555 1_555
C18_7 C17_7 1_555 1_555
H8_7 C18_7 1_555 1_555
C21_7 C17_7 1_555 1_555
H13_7 C23_7 1_555 1_555
C24_7 C23_7 1_555 1_555
C27_7 C14_7 1_555 1_555
C12_7 C13_7 1_555 1_555
C24_7 C27_7 1_555 1_555
N5_7 C19_7 1_555 1_555
H9_7 C19_7 1_555 1_555
C20_7 N5_7 1_555 1_555
H10_7 C20_7 1_555 1_555
C9_8 C8_8 1_555 1_555
H5_8 C9_8 1_555 1_555
C10_8 C9_8 1_555 1_555
C11_8 C10_8 1_555 1_555
H6_8 C11_8 1_555 1_555
C12_8 C11_8 1_555 1_555
C13_8 C8_8 1_555 1_555
C14_8 C10_8 1_555 1_555
C15_8 C12_8 1_555 1_555
C16_8 C15_8 1_555 1_555
C17_8 C16_8 1_555 1_555
C18_8 C17_8 1_555 1_555
H8_8 C18_8 1_555 1_555
C21_8 C17_8 1_555 1_555
H13_8 C23_8 1_555 1_555
C24_8 C23_8 1_555 1_555
C27_8 C14_8 1_555 1_555
C12_8 C13_8 1_555 1_555
C24_8 C27_8 1_555 1_555
N5_8 C19_8 1_555 1_555
H9_8 C19_8 1_555 1_555
C20_8 N5_8 1_555 1_555
H10_8 C20_8 1_555 1_555

#END
