
###############################################################################
#
# This file contains modified crystal structure data generated from the
# MOF subset of the Cambridge Structural Database (CSD) v543 
# hosted by the Cambridge Crystallographic Data Centre (CCDC).
#
# This work is licensed under the Creative Commons
# Attribution-NonCommercial-ShareAlike 4.0 International License.
# To view a copy of this license, visit
# http://creativecommons.org/licenses/by-nc-sa/4.0/
# or send a letter to
# Creative Commons, PO Box 1866, Mountain View, CA 94042, USA.
#
# CIF created using the CSD Python API on 29 September 2022
# The structure has been converted into the P1 space group
# The structure has a 3D framework
# The original CSD entry KIKYOV is in the orthorhombic crystal system
# The framework has been calculated to contain at least 10.0% void space
# The void calculation uses a probe of radius 1.32A, grid spacing 0.4
#
###############################################################################

data_KIKYOV
_chemical_formula_moiety         '(C248 H120 Au16 Fe8 N52)n'
_symmetry_cell_setting           triclinic
_symmetry_space_group_name_H-M   'P 1'
_symmetry_Int_Tables_number      1
_space_group_name_Hall           'P 1'
loop_
_symmetry_equiv_pos_site_id
_symmetry_equiv_pos_as_xyz
1 x,y,z
_cell_length_a                   36.7927(12)
_cell_length_b                   15.1716(5)
_cell_length_c                   13.1200(4)
_cell_angle_alpha                90
_cell_angle_beta                 90
_cell_angle_gamma                90
_cell_volume                     7323.64
loop_
_atom_site_label
_atom_site_type_symbol
_atom_site_fract_x
_atom_site_fract_y
_atom_site_fract_z
Fe4 Fe 0.79668(2) 0.24881(5) 0.09881(6)
N6 N 0.79422(12) 0.1671(3) 0.9808(4)
C31 C 0.78913(16) 0.1130(4) 0.9213(4)
Au2 Au 0.77901(2) 0.01185(2) 0.82985(2)
N4 N 0.81236(13) 0.3483(3) 0.0098(4)
Au1 Au 0.80844(2) 0.51656(2) 0.87310(2)
Fe1 Fe 0.79668(2) 0.75119(5) 0.59881(6)
N1 N 0.34917(13) 0.7093(4) 0.3762(4)
N2 N 0.74463(12) 0.7093(3) 0.5670(4)
N3 N 0.80080(12) 0.6709(3) 0.7168(4)
N5 N 0.77831(13) 0.8467(4) 0.6880(4)
C1 C 0.37654(18) 0.7662(5) 0.3724(5)
H1 H 0.371198 0.827455 0.374681
C2 C 0.4125(2) 0.7404(6) 0.3654(6)
H2 H 0.431253 0.783337 0.364245
C3 C 0.42091(17) 0.6526(6) 0.3601(5)
C4 C 0.39213(17) 0.5919(6) 0.3585(5)
H3 H 0.396639 0.530553 0.351713
C5 C 0.35711(16) 0.6236(5) 0.3671(5)
H4 H 0.337639 0.582524 0.366440
C6 C 0.45689(18) 0.6174(7) 0.3621(5)
C7 C 0.48566(19) 0.5805(7) 0.3691(5)
C8 C 0.51905(19) 0.5324(7) 0.3779(5)
C9 C 0.55177(17) 0.5767(6) 0.3963(5)
H5 H 0.552028 0.639196 0.400468
C10 C 0.58398(17) 0.5295(6) 0.4086(5)
C11 C 0.58358(16) 0.4393(7) 0.3982(5)
H6 H 0.605668 0.407134 0.403443
C12 C 0.55093(19) 0.3941(7) 0.3799(5)
C13 C 0.51856(18) 0.4420(8) 0.3709(5)
H7 H 0.496241 0.411932 0.359893
C14 C 0.61711(17) 0.5724(6) 0.4341(5)
C15 C 0.5509(2) 0.3017(10) 0.3733(6)
C16 C 0.5517(2) 0.2208(9) 0.3723(6)
C17 C 0.5519(3) 0.1258(10) 0.3693(8)
C18 C 0.5831(4) 0.0791(9) 0.3602(9)
H8 H 0.605563 0.109900 0.356884
C21 C 0.5202(5) 0.0813(14) 0.3719(18)
H11 H 0.497535 0.110953 0.376081
C22 C 0.72052(16) 0.7603(4) 0.5172(6)
H12 H 0.726493 0.820414 0.506160
C23 C 0.68776(15) 0.7299(5) 0.4816(5)
H13 H 0.671762 0.768134 0.445934
C24 C 0.67827(14) 0.6422(4) 0.4985(4)
C25 C 0.70263(15) 0.5901(4) 0.5533(4)
H14 H 0.696924 0.530440 0.568442
C26 C 0.73488(15) 0.6259(4) 0.5852(4)
H15 H 0.751194 0.589420 0.622262
C27 C 0.64497(16) 0.6052(5) 0.4610(5)
C28 C 0.80419(15) 0.6181(4) 0.7783(5)
C29 C 0.81275(15) 0.4119(4) 0.9612(4)
C30 C 0.77459(15) 0.9064(4) 0.7405(5)
Fe2 Fe 0.29668(2) 0.74881(5) 0.40119(6)
N8 N 0.84917(13) 0.7907(4) 0.6238(4)
N9 N 0.81236(13) 0.6517(3) 0.5098(4)
N10 N 0.79422(12) 0.8329(3) 0.4808(4)
N4_2 N 0.31236(13) 0.1517(3) 0.9902(4)
Fe3 Fe 0.29668(2) 0.25119(5) 0.90119(6)
Au1_2 Au 0.30844(2) 0.98344(2) 0.12690(2)
N2_2 N 0.24463(12) 0.7907(3) 0.4330(4)
N3_2 N 0.30080(12) 0.8291(3) 0.2832(4)
N5_2 N 0.27831(13) 0.6533(4) 0.3120(4)
N6_2 N 0.29422(12) 0.3329(3) 0.0192(4)
C8_2 C 0.01905(19) 0.9676(7) 0.6221(5)
C9_2 C 0.05177(17) 0.9233(6) 0.6037(5)
H5_2 H 0.052028 0.860804 0.599532
C10_2 C 0.08398(17) 0.9705(6) 0.5914(5)
C14_2 C 0.11711(17) 0.9276(6) 0.5659(5)
C22_2 C 0.22052(16) 0.7397(4) 0.4828(6)
H12_2 H 0.226493 0.679586 0.493840
C23_2 C 0.18776(15) 0.7701(5) 0.5184(5)
H13_2 H 0.171762 0.731866 0.554066
C24_2 C 0.17827(14) 0.8578(4) 0.5015(4)
C25_2 C 0.20263(15) 0.9099(4) 0.4467(4)
H14_2 H 0.196924 0.969560 0.431558
C26_2 C 0.23488(15) 0.8741(4) 0.4148(4)
H15_2 H 0.251194 0.910580 0.377738
C27_2 C 0.14497(16) 0.8948(5) 0.5390(5)
C28_2 C 0.30419(15) 0.8819(4) 0.2217(5)
C30_2 C 0.27459(15) 0.5936(4) 0.2595(5)
C31_2 C 0.28913(16) 0.3870(4) 0.0787(4)
Au2_2 Au 0.27901(2) 0.48815(2) 0.17015(2)
N9_2 N 0.31236(13) 0.8483(3) 0.4902(4)
N10_2 N 0.29422(12) 0.6671(3) 0.5192(4)
C1_2 C 0.87654(18) 0.7338(5) 0.6276(5)
H1_2 H 0.871198 0.672545 0.625319
C2_2 C 0.9125(2) 0.7596(6) 0.6346(6)
H2_2 H 0.931253 0.716663 0.635755
C3_2 C 0.92091(17) 0.8474(6) 0.6399(5)
C4_2 C 0.89213(17) 0.9081(6) 0.6415(5)
H3_2 H 0.896639 0.969447 0.648287
C5_2 C 0.85711(16) 0.8764(5) 0.6329(5)
H4_2 H 0.837639 0.917476 0.633560
C6_2 C 0.95689(18) 0.8826(7) 0.6379(5)
C7_2 C 0.98566(19) 0.9195(7) 0.6309(5)
Au1_3 Au 0.80844(2) 0.48344(2) 0.37310(2)
N2_3 N 0.74463(12) 0.2907(3) 0.0670(4)
N3_3 N 0.80080(12) 0.3291(3) 0.2168(4)
N5_3 N 0.77831(13) 0.1533(4) 0.1880(4)
C22_3 C 0.72052(16) 0.2397(4) 0.0172(6)
H12_3 H 0.726493 0.179586 0.006160
C25_3 C 0.70263(15) 0.4099(4) 0.0533(4)
H14_3 H 0.696924 0.469560 0.068442
C26_3 C 0.73488(15) 0.3741(4) 0.0852(4)
H15_3 H 0.751194 0.410580 0.122262
C28_3 C 0.80419(15) 0.3819(4) 0.2783(5)
C29_2 C 0.81275(15) 0.5881(4) 0.4612(4)
C30_3 C 0.77459(15) 0.0936(4) 0.2405(5)
N8_2 N 0.84917(13) 0.2093(4) 0.1238(4)
N1_2 N 0.34917(13) 0.2907(4) 0.8762(4)
C1_3 C 0.37654(18) 0.2338(5) 0.8724(5)
H1_3 H 0.371198 0.172545 0.874681
C2_3 C 0.4125(2) 0.2596(6) 0.8654(6)
H2_3 H 0.431253 0.216663 0.864245
C3_3 C 0.42091(17) 0.3474(6) 0.8601(5)
C4_3 C 0.39213(17) 0.4081(6) 0.8585(5)
H3_3 H 0.396639 0.469447 0.851713
C5_3 C 0.35711(16) 0.3764(5) 0.8671(5)
H4_3 H 0.337639 0.417476 0.866440
C6_3 C 0.45689(18) 0.3826(7) 0.8621(5)
C7_3 C 0.48566(19) 0.4195(7) 0.8691(5)
C8_3 C 0.51905(19) 0.4676(7) 0.8779(5)
C9_3 C 0.55177(17) 0.4233(6) 0.8963(5)
H5_3 H 0.552028 0.360804 0.900468
C10_3 C 0.58398(17) 0.4705(6) 0.9086(5)
C11_2 C 0.58358(16) 0.5607(7) 0.8982(5)
H6_2 H 0.605668 0.592866 0.903443
C12_2 C 0.55093(19) 0.6059(7) 0.8799(5)
C13_2 C 0.51856(18) 0.5580(8) 0.8709(5)
H7_2 H 0.496241 0.588068 0.859893
C14_3 C 0.61711(17) 0.4276(6) 0.9341(5)
C15_2 C 0.5509(2) 0.6983(10) 0.8733(6)
C16_2 C 0.5517(2) 0.7792(9) 0.8723(6)
C17_2 C 0.5519(3) 0.8742(10) 0.8693(8)
C18_2 C 0.5831(4) 0.9209(9) 0.8602(9)
H8_2 H 0.605563 0.890100 0.856884
C21_2 C 0.5202(5) 0.9187(14) 0.8719(18)
H11_2 H 0.497535 0.889047 0.876081
C23_3 C 0.68776(15) 0.2701(5) 0.9816(5)
H13_3 H 0.671762 0.231866 0.945934
C24_3 C 0.67827(14) 0.3578(4) 0.9985(4)
C27_3 C 0.64497(16) 0.3948(5) 0.9610(5)
C31_3 C 0.78913(16) 0.8870(4) 0.4213(4)
Au2_3 Au 0.77901(2) 0.98815(2) 0.32985(2)
C8_4 C 0.01905(19) 0.0324(7) 0.1221(5)
C9_4 C 0.05177(17) 0.0767(6) 0.1037(5)
H5_4 H 0.052028 0.139196 0.099532
C10_4 C 0.08398(17) 0.0295(6) 0.0914(5)
C14_4 C 0.11711(17) 0.0724(6) 0.0659(5)
C23_4 C 0.18776(15) 0.2299(5) 0.0184(5)
H13_4 H 0.171762 0.268134 0.054066
C24_4 C 0.17827(14) 0.1422(4) 0.0015(4)
C27_4 C 0.14497(16) 0.1052(5) 0.0390(5)
Au1_4 Au 0.30844(2) 0.01656(2) 0.62690(2)
N2_4 N 0.24463(12) 0.2093(3) 0.9330(4)
N3_4 N 0.30080(12) 0.1709(3) 0.7832(4)
N5_4 N 0.27831(13) 0.3467(4) 0.8120(4)
C22_4 C 0.22052(16) 0.2603(4) 0.9828(6)
H12_4 H 0.226493 0.320414 0.993840
C25_4 C 0.20263(15) 0.0901(4) 0.9467(4)
H14_4 H 0.196924 0.030440 0.931558
C26_4 C 0.23488(15) 0.1259(4) 0.9148(4)
H15_4 H 0.251194 0.089420 0.877738
C28_4 C 0.30419(15) 0.1181(4) 0.7217(5)
C30_4 C 0.27459(15) 0.4064(4) 0.7595(5)
C31_4 C 0.28913(16) 0.6130(4) 0.5787(4)
Au2_4 Au 0.27901(2) 0.51185(2) 0.67015(2)
C29_3 C 0.31275(15) 0.9119(4) 0.5388(4)
C1_4 C 0.87654(18) 0.2662(5) 0.1276(5)
H1_4 H 0.871198 0.327455 0.125319
C2_4 C 0.9125(2) 0.2404(6) 0.1346(6)
H2_4 H 0.931253 0.283337 0.135755
C3_4 C 0.92091(17) 0.1526(6) 0.1399(5)
C4_4 C 0.89213(17) 0.0919(6) 0.1415(5)
H3_4 H 0.896639 0.030553 0.148287
C5_4 C 0.85711(16) 0.1236(5) 0.1329(5)
H4_4 H 0.837639 0.082524 0.133560
C6_4 C 0.95689(18) 0.1174(7) 0.1379(5)
C7_4 C 0.98566(19) 0.0805(7) 0.1309(5)
N7 N 0.5528(6) 0.9396(11) 0.3611(14)
C19 C 0.5834(4) 0.9887(11) 0.3555(11)
H9 H 0.606047 0.959408 0.348046
C20 C 0.5223(5) 0.9922(16) 0.368(2)
H10 H 0.499774 0.961886 0.371253
N7_2 N 0.0528(6) 0.5604(11) 0.6389(14)
C11_3 C 0.08358(16) 0.0607(7) 0.6018(5)
H6_3 H 0.105668 0.092866 0.596557
C12_3 C 0.05093(19) 0.1059(7) 0.6201(5)
C13_3 C 0.01856(18) 0.0580(8) 0.6291(5)
C15_3 C 0.0509(2) 0.1983(10) 0.6267(6)
C16_3 C 0.0517(2) 0.2792(9) 0.6277(6)
C17_3 C 0.0519(3) 0.3742(10) 0.6307(8)
C18_3 C 0.0831(4) 0.4209(9) 0.6398(9)
H8_3 H 0.105563 0.390100 0.643116
C19_2 C 0.0834(4) 0.5113(11) 0.6445(11)
H9_2 H 0.106047 0.540592 0.651954
C20_2 C 0.0223(5) 0.5078(16) 0.632(2)
C21_3 C 0.0202(5) 0.4187(14) 0.6281(18)
C29_4 C 0.31275(15) 0.0881(4) 0.0388(4)
H7_3 H 0.996241 0.088068 0.640107
H10_2 H 0.999774 0.538114 0.628747
H11_3 H 0.997535 0.389047 0.623919
N6_3 N 0.20578(12) 0.1671(3) 0.5192(4)
C31_5 C 0.21087(16) 0.1130(4) 0.5787(4)
Au2_5 Au 0.22099(2) 0.01185(2) 0.67015(2)
Fe4_2 Fe 0.20332(2) 0.24881(5) 0.40119(6)
N1_3 N 0.65083(13) 0.7093(4) 0.1238(4)
C1_5 C 0.62346(18) 0.7662(5) 0.1276(5)
H1_5 H 0.628802 0.827455 0.125319
C2_5 C 0.5875(2) 0.7404(6) 0.1346(6)
H2_5 H 0.568747 0.783337 0.135755
C3_5 C 0.57909(17) 0.6526(6) 0.1399(5)
C4_5 C 0.60787(17) 0.5919(6) 0.1415(5)
H3_5 H 0.603361 0.530553 0.148287
C5_5 C 0.64289(16) 0.6236(5) 0.1329(5)
H4_5 H 0.662361 0.582524 0.133560
C6_5 C 0.54311(18) 0.6174(7) 0.1379(5)
C7_5 C 0.51434(19) 0.5805(7) 0.1309(5)
C8_5 C 0.48095(19) 0.5324(7) 0.1221(5)
C9_5 C 0.44823(17) 0.5767(6) 0.1037(5)
H5_5 H 0.447972 0.639196 0.099532
C10_5 C 0.41602(17) 0.5295(6) 0.0914(5)
C11_4 C 0.41642(16) 0.4393(7) 0.1018(5)
H6_4 H 0.394332 0.407134 0.096557
C12_4 C 0.44907(19) 0.3941(7) 0.1201(5)
C13_4 C 0.48144(18) 0.4420(8) 0.1291(5)
H7_4 H 0.503759 0.411932 0.140107
C14_5 C 0.38289(17) 0.5724(6) 0.0659(5)
C15_4 C 0.4491(2) 0.3017(10) 0.1267(6)
C16_4 C 0.4483(2) 0.2208(9) 0.1277(6)
C17_4 C 0.4481(3) 0.1258(10) 0.1307(8)
C18_4 C 0.4169(4) 0.0791(9) 0.1398(9)
H8_4 H 0.394437 0.109900 0.143116
C21_4 C 0.4798(5) 0.0813(14) 0.1281(18)
H11_4 H 0.502465 0.110953 0.123919
C23_5 C 0.31224(15) 0.7299(5) 0.0184(5)
H13_5 H 0.328238 0.768134 0.054066
C24_5 C 0.32173(14) 0.6422(4) 0.0015(4)
C27_5 C 0.35503(16) 0.6052(5) 0.0390(5)
Fe2_2 Fe 0.70332(2) 0.74881(5) 0.09881(6)
N10_3 N 0.20578(12) 0.8329(3) 0.0192(4)
Au1_5 Au 0.19156(2) 0.51656(2) 0.62690(2)
Fe1_2 Fe 0.20332(2) 0.75119(5) 0.90119(6)
N2_5 N 0.25537(12) 0.7093(3) 0.9330(4)
N3_5 N 0.19920(12) 0.6709(3) 0.7832(4)
N4_3 N 0.18764(13) 0.3483(3) 0.4902(4)
N5_5 N 0.22169(13) 0.8467(4) 0.8120(4)
C22_5 C 0.27948(16) 0.7603(4) 0.9828(6)
H12_5 H 0.273507 0.820414 0.993840
C25_5 C 0.29737(15) 0.5901(4) 0.9467(4)
H14_5 H 0.303076 0.530440 0.931558
C26_5 C 0.26512(15) 0.6259(4) 0.9148(4)
H15_5 H 0.248806 0.589420 0.877738
C28_5 C 0.19581(15) 0.6181(4) 0.7217(5)
C29_5 C 0.18725(15) 0.4119(4) 0.5388(4)
C30_5 C 0.22541(15) 0.9064(4) 0.7595(5)
N8_3 N 0.15083(13) 0.7907(4) 0.8762(4)
N9_3 N 0.18764(13) 0.6517(3) 0.9902(4)
C1_6 C 0.12346(18) 0.7338(5) 0.8724(5)
H1_6 H 0.128802 0.672545 0.874681
C2_6 C 0.0875(2) 0.7596(6) 0.8654(6)
H2_6 H 0.068747 0.716663 0.864245
C3_6 C 0.07909(17) 0.8474(6) 0.8601(5)
C4_6 C 0.10787(17) 0.9081(6) 0.8585(5)
H3_6 H 0.103361 0.969447 0.851713
C5_6 C 0.14289(16) 0.8764(5) 0.8671(5)
H4_6 H 0.162361 0.917476 0.866440
C6_6 C 0.04311(18) 0.8826(7) 0.8621(5)
C7_6 C 0.01434(19) 0.9195(7) 0.8691(5)
N4_4 N 0.68764(13) 0.1517(3) 0.5098(4)
C29_6 C 0.68725(15) 0.0881(4) 0.4612(4)
Fe3_2 Fe 0.70332(2) 0.25119(5) 0.59881(6)
Au1_6 Au 0.69156(2) 0.98344(2) 0.37310(2)
N2_6 N 0.75537(12) 0.7907(3) 0.0670(4)
N3_6 N 0.69920(12) 0.8291(3) 0.2168(4)
N5_6 N 0.72169(13) 0.6533(4) 0.1880(4)
N6_4 N 0.70578(12) 0.3329(3) 0.4808(4)
C22_6 C 0.77948(16) 0.7397(4) 0.0172(6)
H12_6 H 0.773507 0.679586 0.006160
C25_6 C 0.79737(15) 0.9099(4) 0.0533(4)
H14_6 H 0.803076 0.969560 0.068442
C26_6 C 0.76512(15) 0.8741(4) 0.0852(4)
H15_6 H 0.748806 0.910580 0.122262
C28_6 C 0.69581(15) 0.8819(4) 0.2783(5)
C30_6 C 0.72541(15) 0.5936(4) 0.2405(5)
C31_6 C 0.71087(16) 0.3870(4) 0.4213(4)
Au2_6 Au 0.72099(2) 0.48815(2) 0.32985(2)
N9_4 N 0.68764(13) 0.8483(3) 0.0098(4)
C8_6 C 0.98095(19) 0.9676(7) 0.8779(5)
C9_6 C 0.94823(17) 0.9233(6) 0.8963(5)
H5_6 H 0.947972 0.860804 0.900468
C10_6 C 0.91602(17) 0.9705(6) 0.9086(5)
C14_6 C 0.88289(17) 0.9276(6) 0.9341(5)
C23_6 C 0.81224(15) 0.7701(5) 0.9816(5)
H13_6 H 0.828238 0.731866 0.945934
C24_6 C 0.82173(14) 0.8578(4) 0.9985(4)
C27_6 C 0.85503(16) 0.8948(5) 0.9610(5)
N10_4 N 0.70578(12) 0.6671(3) 0.9808(4)
Au1_7 Au 0.19156(2) 0.48344(2) 0.12690(2)
N1_4 N 0.65083(13) 0.2907(4) 0.6238(4)
N2_7 N 0.25537(12) 0.2907(3) 0.4330(4)
N3_7 N 0.19920(12) 0.3291(3) 0.2832(4)
N5_7 N 0.22169(13) 0.1533(4) 0.3120(4)
C1_7 C 0.62346(18) 0.2338(5) 0.6276(5)
H1_7 H 0.628802 0.172545 0.625319
C2_7 C 0.5875(2) 0.2596(6) 0.6346(6)
H2_7 H 0.568747 0.216663 0.635755
C3_7 C 0.57909(17) 0.3474(6) 0.6399(5)
C4_7 C 0.60787(17) 0.4081(6) 0.6415(5)
H3_7 H 0.603361 0.469447 0.648287
C5_7 C 0.64289(16) 0.3764(5) 0.6329(5)
H4_7 H 0.662361 0.417476 0.633560
C6_7 C 0.54311(18) 0.3826(7) 0.6379(5)
C7_7 C 0.51434(19) 0.4195(7) 0.6309(5)
C8_7 C 0.48095(19) 0.4676(7) 0.6221(5)
C9_7 C 0.44823(17) 0.4233(6) 0.6037(5)
H5_7 H 0.447972 0.360804 0.599532
C10_7 C 0.41602(17) 0.4705(6) 0.5914(5)
C11_5 C 0.41642(16) 0.5607(7) 0.6018(5)
H6_5 H 0.394332 0.592866 0.596557
C12_5 C 0.44907(19) 0.6059(7) 0.6201(5)
C13_5 C 0.48144(18) 0.5580(8) 0.6291(5)
H7_5 H 0.503759 0.588068 0.640107
C14_7 C 0.38289(17) 0.4276(6) 0.5659(5)
C15_5 C 0.4491(2) 0.6983(10) 0.6267(6)
C16_5 C 0.4483(2) 0.7792(9) 0.6277(6)
C17_5 C 0.4481(3) 0.8742(10) 0.6307(8)
C18_5 C 0.4169(4) 0.9209(9) 0.6398(9)
H8_5 H 0.394437 0.890100 0.643116
C21_5 C 0.4798(5) 0.9187(14) 0.6281(18)
H11_5 H 0.502465 0.889047 0.623919
C22_7 C 0.27948(16) 0.2397(4) 0.4828(6)
H12_7 H 0.273507 0.179586 0.493840
C23_7 C 0.31224(15) 0.2701(5) 0.5184(5)
H13_7 H 0.328238 0.231866 0.554066
C24_7 C 0.32173(14) 0.3578(4) 0.5015(4)
C25_7 C 0.29737(15) 0.4099(4) 0.4467(4)
H14_7 H 0.303076 0.469560 0.431558
C26_7 C 0.26512(15) 0.3741(4) 0.4148(4)
H15_7 H 0.248806 0.410580 0.377738
C27_7 C 0.35503(16) 0.3948(5) 0.5390(5)
C28_7 C 0.19581(15) 0.3819(4) 0.2217(5)
C29_7 C 0.18725(15) 0.5881(4) 0.0388(4)
C30_7 C 0.22541(15) 0.0936(4) 0.2595(5)
N8_4 N 0.15083(13) 0.2093(4) 0.3762(4)
C31_7 C 0.21087(16) 0.8870(4) 0.0787(4)
Au2_7 Au 0.22099(2) 0.98815(2) 0.17015(2)
C1_8 C 0.12346(18) 0.2662(5) 0.3724(5)
H1_8 H 0.128802 0.327455 0.374681
C2_8 C 0.0875(2) 0.2404(6) 0.3654(6)
H2_8 H 0.068747 0.283337 0.364245
C3_8 C 0.07909(17) 0.1526(6) 0.3601(5)
C4_8 C 0.10787(17) 0.0919(6) 0.3585(5)
H3_8 H 0.103361 0.030553 0.351713
C5_8 C 0.14289(16) 0.1236(5) 0.3671(5)
H4_8 H 0.162361 0.082524 0.366440
C6_8 C 0.04311(18) 0.1174(7) 0.3621(5)
C7_8 C 0.01434(19) 0.0805(7) 0.3691(5)
Au1_8 Au 0.69156(2) 0.01656(2) 0.87310(2)
N2_8 N 0.75537(12) 0.2093(3) 0.5670(4)
N3_8 N 0.69920(12) 0.1709(3) 0.7168(4)
N5_8 N 0.72169(13) 0.3467(4) 0.6880(4)
C8_8 C 0.98095(19) 0.0324(7) 0.3779(5)
C9_8 C 0.94823(17) 0.0767(6) 0.3963(5)
H5_8 H 0.947972 0.139196 0.400468
C10_8 C 0.91602(17) 0.0295(6) 0.4086(5)
C14_8 C 0.88289(17) 0.0724(6) 0.4341(5)
C22_8 C 0.77948(16) 0.2603(4) 0.5172(6)
H12_8 H 0.773507 0.320414 0.506160
C23_8 C 0.81224(15) 0.2299(5) 0.4816(5)
H13_8 H 0.828238 0.268134 0.445934
C24_8 C 0.82173(14) 0.1422(4) 0.4985(4)
C25_8 C 0.79737(15) 0.0901(4) 0.5533(4)
H14_8 H 0.803076 0.030440 0.568442
C26_8 C 0.76512(15) 0.1259(4) 0.5852(4)
H15_8 H 0.748806 0.089420 0.622262
C27_8 C 0.85503(16) 0.1052(5) 0.4610(5)
C28_8 C 0.69581(15) 0.1181(4) 0.7783(5)
C30_8 C 0.72541(15) 0.4064(4) 0.7405(5)
C31_8 C 0.71087(16) 0.6130(4) 0.9213(4)
Au2_8 Au 0.72099(2) 0.51185(2) 0.82985(2)
N7_3 N 0.4472(6) 0.9396(11) 0.1389(14)
C19_3 C 0.4166(4) 0.9887(11) 0.1445(11)
H9_3 H 0.393953 0.959408 0.151954
C20_3 C 0.4777(5) 0.9922(16) 0.132(2)
H10_3 H 0.500226 0.961886 0.128747
H7_6 H 0.003759 0.088068 0.859893
H10_4 H 0.000226 0.538114 0.871253
H11_6 H 0.002465 0.389047 0.876081
N7_4 N 0.9472(6) 0.5604(11) 0.8611(14)
C11_6 C 0.91642(16) 0.0607(7) 0.8982(5)
H6_6 H 0.894332 0.092866 0.903443
C12_6 C 0.94907(19) 0.1059(7) 0.8799(5)
C13_6 C 0.98144(18) 0.0580(8) 0.8709(5)
C15_6 C 0.9491(2) 0.1983(10) 0.8733(6)
C16_6 C 0.9483(2) 0.2792(9) 0.8723(6)
C17_6 C 0.9481(3) 0.3742(10) 0.8693(8)
C18_6 C 0.9169(4) 0.4209(9) 0.8602(9)
H8_6 H 0.894437 0.390100 0.856884
C19_4 C 0.9166(4) 0.5113(11) 0.8555(11)
H9_4 H 0.893953 0.540592 0.848046
C20_4 C 0.9777(5) 0.5078(16) 0.868(2)
C21_6 C 0.9798(5) 0.4187(14) 0.8719(18)
N7_5 N 0.4472(6) 0.0604(11) 0.6389(14)
C19_5 C 0.4166(4) 0.0113(11) 0.6445(11)
H9_5 H 0.393953 0.040592 0.651954
C20_5 C 0.4777(5) 0.0078(16) 0.632(2)
H10_5 H 0.500226 0.038114 0.628747
H7_7 H 0.003759 0.911932 0.359893
H10_6 H 0.000226 0.461886 0.371253
H11_7 H 0.002465 0.610953 0.376081
N7_6 N 0.9472(6) 0.4396(11) 0.3611(14)
C11_7 C 0.91642(16) 0.9393(7) 0.3982(5)
H6_7 H 0.894332 0.907134 0.403443
C12_7 C 0.94907(19) 0.8941(7) 0.3799(5)
C13_7 C 0.98144(18) 0.9420(8) 0.3709(5)
C15_7 C 0.9491(2) 0.8017(10) 0.3733(6)
C16_7 C 0.9483(2) 0.7208(9) 0.3723(6)
C17_7 C 0.9481(3) 0.6258(10) 0.3693(8)
C18_7 C 0.9169(4) 0.5791(9) 0.3602(9)
H8_7 H 0.894437 0.609900 0.356884
C19_6 C 0.9166(4) 0.4887(11) 0.3555(11)
H9_6 H 0.893953 0.459408 0.348046
C20_6 C 0.9777(5) 0.4922(16) 0.368(2)
C21_7 C 0.9798(5) 0.5813(14) 0.3719(18)
C29_8 C 0.68725(15) 0.9119(4) 0.9612(4)
N7_7 N 0.5528(6) 0.0604(11) 0.8611(14)
C19_7 C 0.5834(4) 0.0113(11) 0.8555(11)
H9_7 H 0.606047 0.040592 0.848046
C20_7 C 0.5223(5) 0.0078(16) 0.868(2)
H10_7 H 0.499774 0.038114 0.871253
N7_8 N 0.0528(6) 0.4396(11) 0.1389(14)
C11_8 C 0.08358(16) 0.9393(7) 0.1018(5)
H6_8 H 0.105668 0.907134 0.096557
C12_8 C 0.05093(19) 0.8941(7) 0.1201(5)
C13_8 C 0.01856(18) 0.9420(8) 0.1291(5)
C15_8 C 0.0509(2) 0.8017(10) 0.1267(6)
C16_8 C 0.0517(2) 0.7208(9) 0.1277(6)
C17_8 C 0.0519(3) 0.6258(10) 0.1307(8)
C18_8 C 0.0831(4) 0.5791(9) 0.1398(9)
H8_8 H 0.105563 0.609900 0.143116
C19_8 C 0.0834(4) 0.4887(11) 0.1445(11)
H9_8 H 0.106047 0.459408 0.151954
C20_8 C 0.0223(5) 0.4922(16) 0.132(2)
C21_8 C 0.0202(5) 0.5813(14) 0.1281(18)
H7_8 H 0.996241 0.911932 0.140107
H10_8 H 0.999774 0.461886 0.128747
H11_8 H 0.997535 0.610953 0.123919
loop_
_geom_bond_atom_site_label_1
_geom_bond_atom_site_label_2
_geom_bond_site_symmetry_1
_geom_bond_site_symmetry_2
N6 C31 1_555 1_555
C31 Au2 1_555 1_555
Fe4 N4 1_555 1_555
Au1 C28 1_555 1_555
Fe1 N2 1_555 1_555
N1 C1 1_555 1_555
N2 C22 1_555 1_555
N3 Fe1 1_555 1_555
N5 Fe1 1_555 1_555
C1 H1 1_555 1_555
C2 C1 1_555 1_555
H2 C2 1_555 1_555
C3 C2 1_555 1_555
C4 C3 1_555 1_555
H3 C4 1_555 1_555
C5 N1 1_555 1_555
H4 C5 1_555 1_555
C6 C3 1_555 1_555
C7 C6 1_555 1_555
C8 C7 1_555 1_555
C9 C8 1_555 1_555
H5 C9 1_555 1_555
C10 C9 1_555 1_555
C11 C10 1_555 1_555
H6 C11 1_555 1_555
C12 C11 1_555 1_555
C13 C8 1_555 1_555
H7 C13 1_555 1_555
C14 C10 1_555 1_555
C15 C12 1_555 1_555
C16 C15 1_555 1_555
C17 C16 1_555 1_555
C18 C17 1_555 1_555
H8 C18 1_555 1_555
C21 C17 1_555 1_555
H11 C21 1_555 1_555
C22 H12 1_555 1_555
C23 C22 1_555 1_555
H13 C23 1_555 1_555
C24 C23 1_555 1_555
C25 C24 1_555 1_555
H14 C25 1_555 1_555
C26 N2 1_555 1_555
H15 C26 1_555 1_555
C27 C14 1_555 1_555
C28 N3 1_555 1_555
C29 Au1 1_555 1_555
C30 N5 1_555 1_555
Fe2 N1 1_555 1_555
N8 Fe1 1_555 1_555
N9 Fe1 1_555 1_555
N10 Fe1 1_555 1_555
C4 C5 1_555 1_555
C12 C13 1_555 1_555
C24 C27 1_555 1_555
C25 C26 1_555 1_555
Fe3 N4_2 1_555 1_555
Au1_2 C28_2 1_555 1_555
Fe2 N2_2 1_555 1_555
N2_2 C22_2 1_555 1_555
N3_2 Fe2 1_555 1_555
N5_2 Fe2 1_555 1_555
N6_2 C31_2 1_555 1_555
C9_2 C8_2 1_555 1_555
H5_2 C9_2 1_555 1_555
C10_2 C9_2 1_555 1_555
C14_2 C10_2 1_555 1_555
C22_2 H12_2 1_555 1_555
C23_2 C22_2 1_555 1_555
H13_2 C23_2 1_555 1_555
C24_2 C23_2 1_555 1_555
C25_2 C24_2 1_555 1_555
H14_2 C25_2 1_555 1_555
C26_2 N2_2 1_555 1_555
H15_2 C26_2 1_555 1_555
C27_2 C14_2 1_555 1_555
C28_2 N3_2 1_555 1_555
C30_2 N5_2 1_555 1_555
C31_2 Au2_2 1_555 1_555
Au2_2 C30_2 1_555 1_555
N9_2 Fe2 1_555 1_555
N10_2 Fe2 1_555 1_555
C24_2 C27_2 1_555 1_555
C25_2 C26_2 1_555 1_555
N8 C1_2 1_555 1_555
C1_2 H1_2 1_555 1_555
C2_2 C1_2 1_555 1_555
H2_2 C2_2 1_555 1_555
C3_2 C2_2 1_555 1_555
C4_2 C3_2 1_555 1_555
H3_2 C4_2 1_555 1_555
C5_2 N8 1_555 1_555
H4_2 C5_2 1_555 1_555
C6_2 C3_2 1_555 1_555
C7_2 C6_2 1_555 1_555
C4_2 C5_2 1_555 1_555
Au1_3 C28_3 1_555 1_555
Fe4 N2_3 1_555 1_555
N2_3 C22_3 1_555 1_555
N3_3 Fe4 1_555 1_555
N9 C29_2 1_555 1_555
N5_3 Fe4 1_555 1_555
C22_3 H12_3 1_555 1_555
H14_3 C25_3 1_555 1_555
C26_3 N2_3 1_555 1_555
H15_3 C26_3 1_555 1_555
C28_3 N3_3 1_555 1_555
C29_2 Au1_3 1_555 1_555
C30_3 N5_3 1_555 1_555
N8_2 Fe4 1_555 1_555
C25_3 C26_3 1_555 1_555
N1_2 C1_3 1_555 1_555
C1_3 H1_3 1_555 1_555
C2_3 C1_3 1_555 1_555
H2_3 C2_3 1_555 1_555
C3_3 C2_3 1_555 1_555
C4_3 C3_3 1_555 1_555
H3_3 C4_3 1_555 1_555
C5_3 N1_2 1_555 1_555
H4_3 C5_3 1_555 1_555
C6_3 C3_3 1_555 1_555
C7_3 C6_3 1_555 1_555
C8_3 C7_3 1_555 1_555
C9_3 C8_3 1_555 1_555
H5_3 C9_3 1_555 1_555
C10_3 C9_3 1_555 1_555
C11_2 C10_3 1_555 1_555
H6_2 C11_2 1_555 1_555
C12_2 C11_2 1_555 1_555
C13_2 C8_3 1_555 1_555
H7_2 C13_2 1_555 1_555
C14_3 C10_3 1_555 1_555
C15_2 C12_2 1_555 1_555
C16_2 C15_2 1_555 1_555
C17_2 C16_2 1_555 1_555
C18_2 C17_2 1_555 1_555
H8_2 C18_2 1_555 1_555
C21_2 C17_2 1_555 1_555
H11_2 C21_2 1_555 1_555
H13_3 C23_3 1_555 1_555
C24_3 C23_3 1_555 1_555
C27_3 C14_3 1_555 1_555
Fe3 N1_2 1_555 1_555
C4_3 C5_3 1_555 1_555
C12_2 C13_2 1_555 1_555
C24_3 C27_3 1_555 1_555
N10 C31_3 1_555 1_555
C31_3 Au2_3 1_555 1_555
C9_4 C8_4 1_555 1_555
H5_4 C9_4 1_555 1_555
C10_4 C9_4 1_555 1_555
C14_4 C10_4 1_555 1_555
H13_4 C23_4 1_555 1_555
C24_4 C23_4 1_555 1_555
C27_4 C14_4 1_555 1_555
C24_4 C27_4 1_555 1_555
Au1_4 C28_4 1_555 1_555
Fe3 N2_4 1_555 1_555
N2_4 C22_4 1_555 1_555
N3_4 Fe3 1_555 1_555
N5_4 Fe3 1_555 1_555
N10_2 C31_4 1_555 1_555
C22_4 H12_4 1_555 1_555
H14_4 C25_4 1_555 1_555
C26_4 N2_4 1_555 1_555
H15_4 C26_4 1_555 1_555
C28_4 N3_4 1_555 1_555
C30_4 N5_4 1_555 1_555
C31_4 Au2_4 1_555 1_555
Au2_4 C30_4 1_555 1_555
C25_4 C26_4 1_555 1_555
N9_2 C29_3 1_555 1_555
N8_2 C1_4 1_555 1_555
C1_4 H1_4 1_555 1_555
C2_4 C1_4 1_555 1_555
H2_4 C2_4 1_555 1_555
C3_4 C2_4 1_555 1_555
C4_4 C3_4 1_555 1_555
H3_4 C4_4 1_555 1_555
C5_4 N8_2 1_555 1_555
H4_4 C5_4 1_555 1_555
C6_4 C3_4 1_555 1_555
C7_4 C6_4 1_555 1_555
C4_4 C5_4 1_555 1_555
N7 C19 1_555 1_555
H9 C19 1_555 1_555
C20 N7 1_555 1_555
H10 C20 1_555 1_555
N7_2 C19_2 1_555 1_555
H6_3 C11_3 1_555 1_555
C12_3 C11_3 1_555 1_555
C15_3 C12_3 1_555 1_555
C16_3 C15_3 1_555 1_555
C17_3 C16_3 1_555 1_555
C18_3 C17_3 1_555 1_555
H8_3 C18_3 1_555 1_555
C19_2 C18_3 1_555 1_555
H9_2 C19_2 1_555 1_555
C20_2 N7_2 1_555 1_555
C21_3 C17_3 1_555 1_555
C12_3 C13_3 1_555 1_555
C20_2 C21_3 1_555 1_555
N6_3 C31_5 1_555 1_555
C31_5 Au2_5 1_555 1_555
Fe4_2 N6_3 1_555 1_555
N1_3 C1_5 1_555 1_555
C1_5 H1_5 1_555 1_555
C2_5 C1_5 1_555 1_555
H2_5 C2_5 1_555 1_555
C3_5 C2_5 1_555 1_555
C4_5 C3_5 1_555 1_555
H3_5 C4_5 1_555 1_555
C5_5 N1_3 1_555 1_555
H4_5 C5_5 1_555 1_555
C6_5 C3_5 1_555 1_555
C7_5 C6_5 1_555 1_555
C8_5 C7_5 1_555 1_555
C9_5 C8_5 1_555 1_555
H5_5 C9_5 1_555 1_555
C10_5 C9_5 1_555 1_555
C11_4 C10_5 1_555 1_555
H6_4 C11_4 1_555 1_555
C12_4 C11_4 1_555 1_555
C13_4 C8_5 1_555 1_555
H7_4 C13_4 1_555 1_555
C14_5 C10_5 1_555 1_555
C15_4 C12_4 1_555 1_555
C16_4 C15_4 1_555 1_555
C17_4 C16_4 1_555 1_555
C18_4 C17_4 1_555 1_555
H8_4 C18_4 1_555 1_555
C21_4 C17_4 1_555 1_555
H11_4 C21_4 1_555 1_555
H13_5 C23_5 1_555 1_555
C24_5 C23_5 1_555 1_555
C27_5 C14_5 1_555 1_555
Fe2_2 N1_3 1_555 1_555
C4_5 C5_5 1_555 1_555
C12_4 C13_4 1_555 1_555
C24_5 C27_5 1_555 1_555
Au1_5 C28_5 1_555 1_555
Fe1_2 N2_5 1_555 1_555
N2_5 C22_5 1_555 1_555
N3_5 Fe1_2 1_555 1_555
N4_3 C29_5 1_555 1_555
N5_5 Fe1_2 1_555 1_555
C22_5 H12_5 1_555 1_555
H14_5 C25_5 1_555 1_555
C26_5 N2_5 1_555 1_555
H15_5 C26_5 1_555 1_555
C28_5 N3_5 1_555 1_555
C29_5 Au1_5 1_555 1_555
C30_5 N5_5 1_555 1_555
Fe4_2 N4_3 1_555 1_555
N8_3 Fe1_2 1_555 1_555
N9_3 Fe1_2 1_555 1_555
C25_5 C26_5 1_555 1_555
N8_3 C1_6 1_555 1_555
C1_6 H1_6 1_555 1_555
C2_6 C1_6 1_555 1_555
H2_6 C2_6 1_555 1_555
C3_6 C2_6 1_555 1_555
C4_6 C3_6 1_555 1_555
H3_6 C4_6 1_555 1_555
C5_6 N8_3 1_555 1_555
H4_6 C5_6 1_555 1_555
C6_6 C3_6 1_555 1_555
C7_6 C6_6 1_555 1_555
C4_6 C5_6 1_555 1_555
N4_4 C29_6 1_555 1_555
Fe3_2 N4_4 1_555 1_555
Au1_6 C28_6 1_555 1_555
Fe2_2 N2_6 1_555 1_555
N2_6 C22_6 1_555 1_555
N3_6 Fe2_2 1_555 1_555
N5_6 Fe2_2 1_555 1_555
N6_4 C31_6 1_555 1_555
C22_6 H12_6 1_555 1_555
H14_6 C25_6 1_555 1_555
C26_6 N2_6 1_555 1_555
H15_6 C26_6 1_555 1_555
C28_6 N3_6 1_555 1_555
C30_6 N5_6 1_555 1_555
C31_6 Au2_6 1_555 1_555
Au2_6 C30_6 1_555 1_555
Fe3_2 N6_4 1_555 1_555
N9_4 Fe2_2 1_555 1_555
C25_6 C26_6 1_555 1_555
C9_6 C8_6 1_555 1_555
H5_6 C9_6 1_555 1_555
C10_6 C9_6 1_555 1_555
C14_6 C10_6 1_555 1_555
H13_6 C23_6 1_555 1_555
C24_6 C23_6 1_555 1_555
C27_6 C14_6 1_555 1_555
C24_6 C27_6 1_555 1_555
Au1_7 C28_7 1_555 1_555
Fe4_2 N2_7 1_555 1_555
N1_4 C1_7 1_555 1_555
N2_7 C22_7 1_555 1_555
N3_7 Fe4_2 1_555 1_555
N5_7 Fe4_2 1_555 1_555
C1_7 H1_7 1_555 1_555
C2_7 C1_7 1_555 1_555
H2_7 C2_7 1_555 1_555
C3_7 C2_7 1_555 1_555
C4_7 C3_7 1_555 1_555
H3_7 C4_7 1_555 1_555
C5_7 N1_4 1_555 1_555
H4_7 C5_7 1_555 1_555
C6_7 C3_7 1_555 1_555
C7_7 C6_7 1_555 1_555
C8_7 C7_7 1_555 1_555
C9_7 C8_7 1_555 1_555
H5_7 C9_7 1_555 1_555
C10_7 C9_7 1_555 1_555
C11_5 C10_7 1_555 1_555
H6_5 C11_5 1_555 1_555
C12_5 C11_5 1_555 1_555
C13_5 C8_7 1_555 1_555
H7_5 C13_5 1_555 1_555
C14_7 C10_7 1_555 1_555
C15_5 C12_5 1_555 1_555
C16_5 C15_5 1_555 1_555
C17_5 C16_5 1_555 1_555
C18_5 C17_5 1_555 1_555
H8_5 C18_5 1_555 1_555
C21_5 C17_5 1_555 1_555
H11_5 C21_5 1_555 1_555
C22_7 H12_7 1_555 1_555
C23_7 C22_7 1_555 1_555
H13_7 C23_7 1_555 1_555
C24_7 C23_7 1_555 1_555
C25_7 C24_7 1_555 1_555
H14_7 C25_7 1_555 1_555
C26_7 N2_7 1_555 1_555
H15_7 C26_7 1_555 1_555
C27_7 C14_7 1_555 1_555
C28_7 N3_7 1_555 1_555
C29_7 Au1_7 1_555 1_555
C30_7 N5_7 1_555 1_555
Fe3_2 N1_4 1_555 1_555
N8_4 Fe4_2 1_555 1_555
C4_7 C5_7 1_555 1_555
C12_5 C13_5 1_555 1_555
C24_7 C27_7 1_555 1_555
C25_7 C26_7 1_555 1_555
N10_3 C31_7 1_555 1_555
C31_7 Au2_7 1_555 1_555
N8_4 C1_8 1_555 1_555
C1_8 H1_8 1_555 1_555
C2_8 C1_8 1_555 1_555
H2_8 C2_8 1_555 1_555
C3_8 C2_8 1_555 1_555
C4_8 C3_8 1_555 1_555
H3_8 C4_8 1_555 1_555
C5_8 N8_4 1_555 1_555
H4_8 C5_8 1_555 1_555
C6_8 C3_8 1_555 1_555
C7_8 C6_8 1_555 1_555
C4_8 C5_8 1_555 1_555
Au1_8 C28_8 1_555 1_555
Fe3_2 N2_8 1_555 1_555
N2_8 C22_8 1_555 1_555
N3_8 Fe3_2 1_555 1_555
N5_8 Fe3_2 1_555 1_555
N10_4 C31_8 1_555 1_555
C9_8 C8_8 1_555 1_555
H5_8 C9_8 1_555 1_555
C10_8 C9_8 1_555 1_555
C14_8 C10_8 1_555 1_555
C22_8 H12_8 1_555 1_555
C23_8 C22_8 1_555 1_555
H13_8 C23_8 1_555 1_555
C24_8 C23_8 1_555 1_555
C25_8 C24_8 1_555 1_555
H14_8 C25_8 1_555 1_555
C26_8 N2_8 1_555 1_555
H15_8 C26_8 1_555 1_555
C27_8 C14_8 1_555 1_555
C28_8 N3_8 1_555 1_555
C30_8 N5_8 1_555 1_555
C31_8 Au2_8 1_555 1_555
Au2_8 C30_8 1_555 1_555
C24_8 C27_8 1_555 1_555
C25_8 C26_8 1_555 1_555
N7_3 C19_3 1_555 1_555
H9_3 C19_3 1_555 1_555
C20_3 N7_3 1_555 1_555
H10_3 C20_3 1_555 1_555
N7_4 C19_4 1_555 1_555
H6_6 C11_6 1_555 1_555
C12_6 C11_6 1_555 1_555
C15_6 C12_6 1_555 1_555
C16_6 C15_6 1_555 1_555
C17_6 C16_6 1_555 1_555
C18_6 C17_6 1_555 1_555
H8_6 C18_6 1_555 1_555
C19_4 C18_6 1_555 1_555
H9_4 C19_4 1_555 1_555
C20_4 N7_4 1_555 1_555
C21_6 C17_6 1_555 1_555
C12_6 C13_6 1_555 1_555
C20_4 C21_6 1_555 1_555
N7_5 C19_5 1_555 1_555
H9_5 C19_5 1_555 1_555
C20_5 N7_5 1_555 1_555
H10_5 C20_5 1_555 1_555
N7_6 C19_6 1_555 1_555
H6_7 C11_7 1_555 1_555
C12_7 C11_7 1_555 1_555
C15_7 C12_7 1_555 1_555
C16_7 C15_7 1_555 1_555
C17_7 C16_7 1_555 1_555
C18_7 C17_7 1_555 1_555
H8_7 C18_7 1_555 1_555
C19_6 C18_7 1_555 1_555
H9_6 C19_6 1_555 1_555
C20_6 N7_6 1_555 1_555
C21_7 C17_7 1_555 1_555
C12_7 C13_7 1_555 1_555
C20_6 C21_7 1_555 1_555
N7_7 C19_7 1_555 1_555
H9_7 C19_7 1_555 1_555
C20_7 N7_7 1_555 1_555
H10_7 C20_7 1_555 1_555
N7_8 C19_8 1_555 1_555
H6_8 C11_8 1_555 1_555
C12_8 C11_8 1_555 1_555
C15_8 C12_8 1_555 1_555
C16_8 C15_8 1_555 1_555
C17_8 C16_8 1_555 1_555
C18_8 C17_8 1_555 1_555
H8_8 C18_8 1_555 1_555
C19_8 C18_8 1_555 1_555
H9_8 C19_8 1_555 1_555
C20_8 N7_8 1_555 1_555
C21_8 C17_8 1_555 1_555
C12_8 C13_8 1_555 1_555
C20_8 C21_8 1_555 1_555

#END
