
###############################################################################
#
# This file contains modified crystal structure data generated from the
# MOF subset of the Cambridge Structural Database (CSD) v543 
# hosted by the Cambridge Crystallographic Data Centre (CCDC).
#
# This work is licensed under the Creative Commons
# Attribution-NonCommercial-ShareAlike 4.0 International License.
# To view a copy of this license, visit
# http://creativecommons.org/licenses/by-nc-sa/4.0/
# or send a letter to
# Creative Commons, PO Box 1866, Mountain View, CA 94042, USA.
#
# CIF created using the CSD Python API on 29 September 2022
# The structure has been converted into the P1 space group
# The structure has a 3D framework
# The original CSD entry KIKYOV02 is in the orthorhombic crystal system
# The framework has been calculated to contain at least 10.0% void space
# The void calculation uses a probe of radius 1.32A, grid spacing 0.4
#
###############################################################################

data_KIKYOV02
_chemical_formula_moiety         '(C248 H120 Au16 Fe8 N56)n'
_symmetry_cell_setting           triclinic
_symmetry_space_group_name_H-M   'P 1'
_symmetry_Int_Tables_number      1
_space_group_name_Hall           'P 1'
loop_
_symmetry_equiv_pos_site_id
_symmetry_equiv_pos_as_xyz
1 x,y,z
_cell_length_a                   36.9311(15)
_cell_length_b                   15.6980(4)
_cell_length_c                   13.3384(4)
_cell_angle_alpha                90
_cell_angle_beta                 90
_cell_angle_gamma                90
_cell_volume                     7732.86
loop_
_atom_site_label
_atom_site_type_symbol
_atom_site_fract_x
_atom_site_fract_y
_atom_site_fract_z
Au1 Au 0.69052(2) 0.51338(2) 0.37335(2)
Fe1 Fe 0.70347(2) 0.24829(5) 0.60100(6)
N1 N 0.64768(14) 0.2028(3) 0.6322(4)
N2 N 0.25810(14) 0.2041(3) 0.4391(4)
N3 N 0.68398(16) 0.3508(3) 0.5078(4)
N4 N 0.69830(15) 0.6666(3) 0.2262(4)
C1 C 0.6190(2) 0.2523(5) 0.6266(6)
H1 H 0.622796 0.310545 0.619304
C2 C 0.5839(2) 0.2237(6) 0.6308(7)
H2 H 0.564726 0.261702 0.625270
C3 C 0.5775(2) 0.1381(5) 0.6434(5)
C4 C 0.60700(19) 0.0856(5) 0.6531(6)
H3 H 0.603867 0.027466 0.663577
C5 C 0.6416(2) 0.1200(4) 0.6471(6)
H4 H 0.661344 0.083787 0.653685
C6 C 0.5421(2) 0.1008(6) 0.6403(5)
C7 C 0.5141(2) 0.0626(6) 0.6315(5)
C8 C 0.48042(19) 0.0163(5) 0.6205(5)
C10 C 0.41638(19) 0.0143(5) 0.5897(5)
C13 C 0.44843(19) 0.0583(5) 0.6015(5)
H7 H 0.448428 0.117445 0.596593
C14 C 0.38317(19) 0.0578(5) 0.5631(5)
C22 C 0.2807(2) 0.2451(5) 0.5020(6)
H12 H 0.274105 0.299015 0.524491
C23 C 0.31288(19) 0.2117(5) 0.5347(6)
H13 H 0.327653 0.242934 0.577624
C24 C 0.32313(17) 0.1324(4) 0.5040(5)
C25 C 0.30010(19) 0.0887(5) 0.4408(6)
H14 H 0.305949 0.033994 0.419332
C26 C 0.2685(2) 0.1265(5) 0.4097(5)
H15 H 0.253552 0.096573 0.365903
C27 C 0.35588(19) 0.0917(5) 0.5383(5)
C28 C 0.6857(2) 0.4113(4) 0.4604(6)
C29 C 0.69482(18) 0.6127(4) 0.2824(5)
Au2 Au 0.72209(2) 0.00802(2) 0.33425(2)
N6 N 0.70555(16) 0.1610(4) 0.4770(4)
C30 C 0.7115(2) 0.1067(4) 0.4230(5)
Fe2 Fe 0.20347(2) 0.25171(5) 0.39900(6)
Fe4 Fe 0.70347(2) 0.75171(5) 0.10100(6)
N8 N 0.75810(14) 0.2959(3) 0.5609(4)
N9 N 0.69830(15) 0.3334(3) 0.7262(4)
N10 N 0.72641(15) 0.1502(4) 0.6944(4)
N5 N 0.4447(5) 0.4467(9) 0.6406(19)
C9 C 0.4804(2) 0.9284(5) 0.6302(5)
H5 H 0.501971 0.900076 0.644153
C11 C 0.41666(19) 0.9261(5) 0.6003(5)
H6 H 0.395073 0.896010 0.594704
C12 C 0.4486(2) 0.8824(5) 0.6193(5)
C15 C 0.4476(3) 0.7184(7) 0.6313(8)
C16 C 0.4488(2) 0.7897(6) 0.6275(6)
C17 C 0.4472(4) 0.6238(7) 0.6363(12)
C18 C 0.4173(4) 0.5783(7) 0.6486(11)
H8 H 0.395503 0.607543 0.655724
C19 C 0.4163(6) 0.4913(8) 0.6514(16)
H9 H 0.394218 0.463977 0.661441
C20 C 0.4791(5) 0.5824(10) 0.6278(17)
H10 H 0.500977 0.610822 0.619897
C21 C 0.4766(6) 0.4883(11) 0.632(2)
H11 H 0.497789 0.456532 0.628233
N7 N 0.72641(15) 0.8498(4) 0.1944(4)
C31 C 0.72759(18) 0.9072(4) 0.2467(5)
N1_2 N 0.14768(14) 0.2972(3) 0.3678(4)
N3_2 N 0.18398(16) 0.1492(3) 0.4922(4)
C1_2 C 0.1190(2) 0.2477(5) 0.3734(6)
H1_2 H 0.122796 0.189455 0.380696
C2_2 C 0.0839(2) 0.2763(6) 0.3692(7)
H2_2 H 0.064726 0.238298 0.374730
C3_2 C 0.0775(2) 0.3619(5) 0.3566(5)
C4_2 C 0.10700(19) 0.4144(5) 0.3469(6)
H3_2 H 0.103867 0.472534 0.336423
C5_2 C 0.1416(2) 0.3800(4) 0.3529(6)
H4_2 H 0.161344 0.416213 0.346315
C6_2 C 0.0421(2) 0.3992(6) 0.3597(5)
C7_2 C 0.0141(2) 0.4374(6) 0.3685(5)
H5_2 H 0.001971 0.599924 0.355847
H10_2 H 0.000977 0.889178 0.380103
C28_2 C 0.1857(2) 0.0887(4) 0.5396(6)
Au2_2 Au 0.22209(2) 0.49198(2) 0.66575(2)
N6_2 N 0.20555(16) 0.3390(4) 0.5230(4)
N7_2 N 0.22641(15) 0.6502(4) 0.8056(4)
C30_2 C 0.2115(2) 0.3933(4) 0.5770(5)
C31_2 C 0.22759(18) 0.5928(4) 0.7533(5)
Fe3 Fe 0.20347(2) 0.74829(5) 0.89900(6)
N9_2 N 0.19830(15) 0.1666(3) 0.2738(4)
N10_2 N 0.22641(15) 0.3498(4) 0.3056(4)
Au1_2 Au 0.19052(2) 0.98662(2) 0.62665(2)
N4_2 N 0.19830(15) 0.8334(3) 0.7738(4)
C29_2 C 0.19482(18) 0.8873(4) 0.7176(5)
C8_2 C 0.98042(19) 0.4837(5) 0.3795(5)
C9_2 C 0.9804(2) 0.5716(5) 0.3698(5)
C10_2 C 0.91638(19) 0.4857(5) 0.4103(5)
C11_2 C 0.91666(19) 0.5739(5) 0.3997(5)
H6_2 H 0.895073 0.603990 0.405296
C12_2 C 0.9486(2) 0.6176(5) 0.3807(5)
C13_2 C 0.94843(19) 0.4417(5) 0.3985(5)
H7_2 H 0.948428 0.382555 0.403407
C14_2 C 0.88317(19) 0.4422(5) 0.4369(5)
C15_2 C 0.9476(3) 0.7816(7) 0.3687(8)
C16_2 C 0.9488(2) 0.7103(6) 0.3725(6)
C17_2 C 0.9472(4) 0.8762(7) 0.3637(12)
C18_2 C 0.9173(4) 0.9217(7) 0.3514(11)
H8_2 H 0.895503 0.892457 0.344276
C20_2 C 0.9791(5) 0.9176(10) 0.3722(17)
C22_2 C 0.7807(2) 0.2549(5) 0.4980(6)
H12_2 H 0.774105 0.200985 0.475509
C23_2 C 0.81288(19) 0.2883(5) 0.4653(6)
H13_2 H 0.827653 0.257066 0.422376
C24_2 C 0.82313(17) 0.3676(4) 0.4960(5)
C25_2 C 0.80010(19) 0.4113(5) 0.5592(6)
H14_2 H 0.805949 0.466006 0.580668
C26_2 C 0.7685(2) 0.3735(5) 0.5903(5)
H15_2 H 0.753552 0.403427 0.634097
C27_2 C 0.85588(19) 0.4083(5) 0.4617(5)
Au1_3 Au 0.19052(2) 0.01338(2) 0.12665(2)
C29_3 C 0.19482(18) 0.1127(4) 0.2176(5)
C28_3 C 0.1857(2) 0.9113(4) 0.0396(6)
Au2_3 Au 0.22209(2) 0.50802(2) 0.16575(2)
N6_3 N 0.20555(16) 0.6610(4) 0.0230(4)
C30_3 C 0.2115(2) 0.6067(4) 0.0770(5)
C31_3 C 0.22759(18) 0.4072(4) 0.2533(5)
N1_3 N 0.14768(14) 0.7028(3) 0.8678(4)
N3_3 N 0.18398(16) 0.8508(3) 0.9922(4)
C1_3 C 0.1190(2) 0.7523(5) 0.8734(6)
H1_3 H 0.122796 0.810545 0.880696
C2_3 C 0.0839(2) 0.7237(6) 0.8692(7)
H2_3 H 0.064726 0.761702 0.874730
C3_3 C 0.0775(2) 0.6381(5) 0.8566(5)
C4_3 C 0.10700(19) 0.5856(5) 0.8469(6)
H3_3 H 0.103867 0.527466 0.836423
C5_3 C 0.1416(2) 0.6200(4) 0.8529(6)
H4_3 H 0.161344 0.583787 0.846315
C6_3 C 0.0421(2) 0.6008(6) 0.8597(5)
C7_3 C 0.0141(2) 0.5626(6) 0.8685(5)
H5_3 H 0.001971 0.400076 0.855847
H10_3 H 0.000977 0.110822 0.880103
N8_2 N 0.25810(14) 0.7959(3) 0.9391(4)
N2_2 N 0.75810(14) 0.7041(3) 0.0609(4)
C25_3 C 0.80010(19) 0.5887(5) 0.0592(6)
H14_3 H 0.805949 0.533994 0.080668
C26_3 C 0.7685(2) 0.6265(5) 0.0903(5)
H15_3 H 0.753552 0.596573 0.134097
C31_4 C 0.72759(18) 0.0928(4) 0.7467(5)
N1_4 N 0.64768(14) 0.7972(3) 0.1322(4)
N3_4 N 0.68398(16) 0.6492(3) 0.0078(4)
C1_4 C 0.6190(2) 0.7477(5) 0.1266(6)
H1_4 H 0.622796 0.689455 0.119304
C2_4 C 0.5839(2) 0.7763(6) 0.1308(7)
H2_4 H 0.564726 0.738298 0.125270
C3_4 C 0.5775(2) 0.8619(5) 0.1434(5)
C4_4 C 0.60700(19) 0.9144(5) 0.1531(6)
H3_4 H 0.603867 0.972534 0.163577
C5_4 C 0.6416(2) 0.8800(4) 0.1471(6)
H4_4 H 0.661344 0.916213 0.153685
C6_4 C 0.5421(2) 0.8992(6) 0.1403(5)
C7_4 C 0.5141(2) 0.9374(6) 0.1315(5)
C8_3 C 0.48042(19) 0.9837(5) 0.1205(5)
C10_3 C 0.41638(19) 0.9857(5) 0.0897(5)
C13_3 C 0.44843(19) 0.9417(5) 0.1015(5)
H7_3 H 0.448428 0.882555 0.096593
C14_3 C 0.38317(19) 0.9422(5) 0.0631(5)
C22_3 C 0.2807(2) 0.7549(5) 0.0020(6)
H12_3 H 0.274105 0.700985 0.024491
C23_3 C 0.31288(19) 0.7883(5) 0.0347(6)
H13_3 H 0.327653 0.757066 0.077624
C24_3 C 0.32313(17) 0.8676(4) 0.0040(5)
C27_3 C 0.35588(19) 0.9083(5) 0.0383(5)
Au1_4 Au 0.69052(2) 0.48662(2) 0.87335(2)
C25_4 C 0.30010(19) 0.9113(5) 0.9408(6)
H14_4 H 0.305949 0.966006 0.919332
C26_4 C 0.2685(2) 0.8735(5) 0.9097(5)
H15_4 H 0.253552 0.903427 0.865903
C28_4 C 0.6857(2) 0.5887(4) 0.9604(6)
C29_4 C 0.69482(18) 0.3873(4) 0.7824(5)
Au2_4 Au 0.72209(2) 0.99198(2) 0.83425(2)
N6_4 N 0.70555(16) 0.8390(4) 0.9770(4)
C30_4 C 0.7115(2) 0.8933(4) 0.9230(5)
N5_2 N 0.0553(5) 0.0533(9) 0.1406(19)
C19_2 C 0.0837(6) 0.0087(8) 0.1514(16)
H9_2 H 0.105782 0.036023 0.161441
C21_2 C 0.0234(6) 0.0117(11) 0.132(2)
H11_2 H 0.002211 0.043468 0.128233
C8_4 C 0.01958(19) 0.4837(5) 0.1205(5)
C9_3 C 0.0196(2) 0.5716(5) 0.1302(5)
C10_4 C 0.08362(19) 0.4857(5) 0.0897(5)
C11_3 C 0.08334(19) 0.5739(5) 0.1003(5)
H6_3 H 0.104927 0.603990 0.094704
C12_3 C 0.0514(2) 0.6176(5) 0.1193(5)
C13_4 C 0.05157(19) 0.4417(5) 0.1015(5)
H7_4 H 0.051572 0.382555 0.096593
C14_4 C 0.11683(19) 0.4422(5) 0.0631(5)
C15_3 C 0.0524(3) 0.7816(7) 0.1313(8)
C16_3 C 0.0512(2) 0.7103(6) 0.1275(6)
C17_3 C 0.0528(4) 0.8762(7) 0.1363(12)
C18_3 C 0.0827(4) 0.9217(7) 0.1486(11)
H8_3 H 0.104497 0.892457 0.155724
C20_3 C 0.0209(5) 0.9176(10) 0.1278(17)
C22_4 C 0.2193(2) 0.2549(5) 0.0020(6)
H12_4 H 0.225895 0.200985 0.024491
C23_4 C 0.18712(19) 0.2883(5) 0.0347(6)
H13_4 H 0.172347 0.257066 0.077624
C24_4 C 0.17687(17) 0.3676(4) 0.0040(5)
C27_4 C 0.14412(19) 0.4083(5) 0.0383(5)
N2_3 N 0.24190(14) 0.2959(3) 0.9391(4)
C25_5 C 0.19990(19) 0.4113(5) 0.9408(6)
H14_5 H 0.194051 0.466006 0.919332
C26_5 C 0.2315(2) 0.3735(5) 0.9097(5)
H15_5 H 0.246448 0.403427 0.865903
Fe2_2 Fe 0.29653(2) 0.24829(5) 0.89900(6)
Fe1_2 Fe 0.79653(2) 0.25171(5) 0.10100(6)
N1_5 N 0.85232(14) 0.2972(3) 0.1322(4)
N3_5 N 0.81602(16) 0.1492(3) 0.0078(4)
C1_5 C 0.8810(2) 0.2477(5) 0.1266(6)
H1_5 H 0.877204 0.189455 0.119304
C2_5 C 0.9161(2) 0.2763(6) 0.1308(7)
H2_5 H 0.935274 0.238298 0.125270
C3_5 C 0.9225(2) 0.3619(5) 0.1434(5)
C4_5 C 0.89300(19) 0.4144(5) 0.1531(6)
H3_5 H 0.896133 0.472534 0.163577
C5_5 C 0.8584(2) 0.3800(4) 0.1471(6)
H4_5 H 0.838656 0.416213 0.153685
C6_5 C 0.9579(2) 0.3992(6) 0.1403(5)
C7_5 C 0.9859(2) 0.4374(6) 0.1315(5)
H5_4 H 0.998029 0.599924 0.144153
H10_4 H 0.999023 0.889178 0.119897
N8_3 N 0.74190(14) 0.2041(3) 0.0609(4)
N9_3 N 0.80170(15) 0.1666(3) 0.2262(4)
N10_3 N 0.77359(15) 0.3498(4) 0.1944(4)
C28_5 C 0.8143(2) 0.0887(4) 0.9604(6)
Au2_5 Au 0.77791(2) 0.49198(2) 0.83425(2)
N6_5 N 0.79445(16) 0.3390(4) 0.9770(4)
N7_3 N 0.77359(15) 0.6502(4) 0.6944(4)
C30_5 C 0.7885(2) 0.3933(4) 0.9230(5)
C31_5 C 0.77241(18) 0.5928(4) 0.7467(5)
Fe3_2 Fe 0.79653(2) 0.74829(5) 0.60100(6)
Au1_5 Au 0.80948(2) 0.98662(2) 0.87335(2)
N4_3 N 0.80170(15) 0.8334(3) 0.7262(4)
C29_5 C 0.80518(18) 0.8873(4) 0.7824(5)
Au1_6 Au 0.30948(2) 0.51338(2) 0.12665(2)
N4_4 N 0.30170(15) 0.6666(3) 0.2738(4)
C25_6 C 0.69990(19) 0.0887(5) 0.0592(6)
H14_6 H 0.694051 0.033994 0.080668
C26_6 C 0.7315(2) 0.1265(5) 0.0903(5)
H15_6 H 0.746448 0.096573 0.134097
C28_6 C 0.3143(2) 0.4113(4) 0.0396(6)
C29_6 C 0.30518(18) 0.6127(4) 0.2176(5)
Au2_6 Au 0.27791(2) 0.00802(2) 0.16575(2)
N6_6 N 0.29445(16) 0.1610(4) 0.0230(4)
C30_6 C 0.2885(2) 0.1067(4) 0.0770(5)
Fe4_2 Fe 0.29653(2) 0.75171(5) 0.39900(6)
N1_6 N 0.35232(14) 0.2028(3) 0.8678(4)
N3_6 N 0.31602(16) 0.3508(3) 0.9922(4)
C1_6 C 0.3810(2) 0.2523(5) 0.8734(6)
H1_6 H 0.377204 0.310545 0.880696
C2_6 C 0.4161(2) 0.2237(6) 0.8692(7)
H2_6 H 0.435274 0.261702 0.874730
C3_6 C 0.4225(2) 0.1381(5) 0.8566(5)
C4_6 C 0.39300(19) 0.0856(5) 0.8469(6)
H3_6 H 0.396133 0.027466 0.836423
C5_6 C 0.3584(2) 0.1200(4) 0.8529(6)
H4_6 H 0.338656 0.083787 0.846315
C6_6 C 0.4579(2) 0.1008(6) 0.8597(5)
C7_6 C 0.4859(2) 0.0626(6) 0.8685(5)
C8_5 C 0.51958(19) 0.0163(5) 0.8795(5)
C10_5 C 0.58362(19) 0.0143(5) 0.9103(5)
C13_5 C 0.55157(19) 0.0583(5) 0.8985(5)
H7_5 H 0.551572 0.117445 0.903407
C14_5 C 0.61683(19) 0.0578(5) 0.9369(5)
C22_5 C 0.7193(2) 0.2451(5) 0.9980(6)
H12_5 H 0.725895 0.299015 0.975509
C23_5 C 0.68712(19) 0.2117(5) 0.9653(6)
H13_5 H 0.672347 0.242934 0.922376
C24_5 C 0.67687(17) 0.1324(4) 0.9960(5)
C27_5 C 0.64412(19) 0.0917(5) 0.9617(5)
N9_4 N 0.30170(15) 0.3334(3) 0.7738(4)
N10_4 N 0.27359(15) 0.1502(4) 0.8056(4)
N7_4 N 0.27359(15) 0.8498(4) 0.3056(4)
C31_6 C 0.27241(18) 0.9072(4) 0.2533(5)
N5_3 N 0.5553(5) 0.5533(9) 0.3594(19)
C9_4 C 0.5196(2) 0.0716(5) 0.3698(5)
H5_5 H 0.498029 0.099924 0.355847
C11_4 C 0.58334(19) 0.0739(5) 0.3997(5)
H6_4 H 0.604927 0.103990 0.405296
C12_4 C 0.5514(2) 0.1176(5) 0.3807(5)
C15_4 C 0.5524(3) 0.2816(7) 0.3687(8)
C16_4 C 0.5512(2) 0.2103(6) 0.3725(6)
C17_4 C 0.5528(4) 0.3762(7) 0.3637(12)
C18_4 C 0.5827(4) 0.4217(7) 0.3514(11)
H8_4 H 0.604497 0.392457 0.344276
C19_3 C 0.5837(6) 0.5087(8) 0.3486(16)
H9_3 H 0.605782 0.536023 0.338559
C20_4 C 0.5209(5) 0.4176(10) 0.3722(17)
H10_5 H 0.499023 0.389178 0.380103
C21_3 C 0.5234(6) 0.5117(11) 0.368(2)
H11_3 H 0.502211 0.543468 0.371767
C31_7 C 0.27241(18) 0.0928(4) 0.7533(5)
Au1_7 Au 0.30948(2) 0.48662(2) 0.62665(2)
N1_7 N 0.35232(14) 0.7972(3) 0.3678(4)
N2_4 N 0.74190(14) 0.7959(3) 0.5609(4)
N3_7 N 0.31602(16) 0.6492(3) 0.4922(4)
C1_7 C 0.3810(2) 0.7477(5) 0.3734(6)
H1_7 H 0.377204 0.689455 0.380696
C2_7 C 0.4161(2) 0.7763(6) 0.3692(7)
H2_7 H 0.435274 0.738298 0.374730
C3_7 C 0.4225(2) 0.8619(5) 0.3566(5)
C4_7 C 0.39300(19) 0.9144(5) 0.3469(6)
H3_7 H 0.396133 0.972534 0.336423
C5_7 C 0.3584(2) 0.8800(4) 0.3529(6)
H4_7 H 0.338656 0.916213 0.346315
C6_7 C 0.4579(2) 0.8992(6) 0.3597(5)
C7_7 C 0.4859(2) 0.9374(6) 0.3685(5)
C8_6 C 0.51958(19) 0.9837(5) 0.3795(5)
C10_6 C 0.58362(19) 0.9857(5) 0.4103(5)
C13_6 C 0.55157(19) 0.9417(5) 0.3985(5)
H7_6 H 0.551572 0.882555 0.403407
C14_6 C 0.61683(19) 0.9422(5) 0.4369(5)
C22_6 C 0.7193(2) 0.7549(5) 0.4980(6)
H12_6 H 0.725895 0.700985 0.475509
C23_6 C 0.68712(19) 0.7883(5) 0.4653(6)
H13_6 H 0.672347 0.757066 0.422376
C24_6 C 0.67687(17) 0.8676(4) 0.4960(5)
C25_7 C 0.69990(19) 0.9113(5) 0.5592(6)
H14_7 H 0.694051 0.966006 0.580668
C26_7 C 0.7315(2) 0.8735(5) 0.5903(5)
H15_7 H 0.746448 0.903427 0.634097
C27_6 C 0.64412(19) 0.9083(5) 0.4617(5)
C28_7 C 0.3143(2) 0.5887(4) 0.5396(6)
C29_7 C 0.30518(18) 0.3873(4) 0.7176(5)
Au2_7 Au 0.27791(2) 0.99198(2) 0.66575(2)
N6_7 N 0.29445(16) 0.8390(4) 0.5230(4)
C30_7 C 0.2885(2) 0.8933(4) 0.5770(5)
N8_4 N 0.24190(14) 0.7041(3) 0.4391(4)
C8_7 C 0.01958(19) 0.5163(5) 0.6205(5)
C9_5 C 0.0196(2) 0.4284(5) 0.6302(5)
C10_7 C 0.08362(19) 0.5143(5) 0.5897(5)
C11_5 C 0.08334(19) 0.4261(5) 0.6003(5)
H6_5 H 0.104927 0.396010 0.594704
C12_5 C 0.0514(2) 0.3824(5) 0.6193(5)
C13_7 C 0.05157(19) 0.5583(5) 0.6015(5)
H7_7 H 0.051572 0.617445 0.596593
C14_7 C 0.11683(19) 0.5578(5) 0.5631(5)
C15_5 C 0.0524(3) 0.2184(7) 0.6313(8)
C16_5 C 0.0512(2) 0.2897(6) 0.6275(6)
C17_5 C 0.0528(4) 0.1238(7) 0.6363(12)
C18_5 C 0.0827(4) 0.0783(7) 0.6486(11)
H8_5 H 0.104497 0.107543 0.655724
C20_5 C 0.0209(5) 0.0824(10) 0.6278(17)
C22_7 C 0.2193(2) 0.7451(5) 0.5020(6)
H12_7 H 0.225895 0.799015 0.524491
C23_7 C 0.18712(19) 0.7117(5) 0.5347(6)
H13_7 H 0.172347 0.742934 0.577624
C24_7 C 0.17687(17) 0.6324(4) 0.5040(5)
C25_8 C 0.19990(19) 0.5887(5) 0.4408(6)
H14_8 H 0.194051 0.533994 0.419332
C26_8 C 0.2315(2) 0.6265(5) 0.4097(5)
H15_8 H 0.246448 0.596573 0.365903
C27_7 C 0.14412(19) 0.5917(5) 0.5383(5)
Au1_8 Au 0.80948(2) 0.01338(2) 0.37335(2)
C29_8 C 0.80518(18) 0.1127(4) 0.2824(5)
N1_8 N 0.85232(14) 0.7028(3) 0.6322(4)
N3_8 N 0.81602(16) 0.8508(3) 0.5078(4)
C1_8 C 0.8810(2) 0.7523(5) 0.6266(6)
H1_8 H 0.877204 0.810545 0.619304
C2_8 C 0.9161(2) 0.7237(6) 0.6308(7)
H2_8 H 0.935274 0.761702 0.625270
C3_8 C 0.9225(2) 0.6381(5) 0.6434(5)
C4_8 C 0.89300(19) 0.5856(5) 0.6531(6)
H3_8 H 0.896133 0.527466 0.663577
C5_8 C 0.8584(2) 0.6200(4) 0.6471(6)
H4_8 H 0.838656 0.583787 0.653685
C6_8 C 0.9579(2) 0.6008(6) 0.6403(5)
C7_8 C 0.9859(2) 0.5626(6) 0.6315(5)
H5_6 H 0.998029 0.400076 0.644153
H10_6 H 0.999023 0.110822 0.619897
C28_8 C 0.8143(2) 0.9113(4) 0.4604(6)
Au2_8 Au 0.77791(2) 0.50802(2) 0.33425(2)
N6_8 N 0.79445(16) 0.6610(4) 0.4770(4)
C30_8 C 0.7885(2) 0.6067(4) 0.4230(5)
C31_8 C 0.77241(18) 0.4072(4) 0.2467(5)
N5_4 N 0.9447(5) 0.0533(9) 0.3594(19)
C19_4 C 0.9163(6) 0.0087(8) 0.3486(16)
H9_4 H 0.894218 0.036023 0.338559
C21_4 C 0.9766(6) 0.0117(11) 0.368(2)
H11_4 H 0.997789 0.043468 0.371767
N5_5 N 0.5553(5) 0.4467(9) 0.8594(19)
C9_6 C 0.5196(2) 0.9284(5) 0.8698(5)
H5_7 H 0.498029 0.900076 0.855847
C11_6 C 0.58334(19) 0.9261(5) 0.8997(5)
H6_6 H 0.604927 0.896010 0.905296
C12_6 C 0.5514(2) 0.8824(5) 0.8807(5)
C15_6 C 0.5524(3) 0.7184(7) 0.8687(8)
C16_6 C 0.5512(2) 0.7897(6) 0.8725(6)
C17_6 C 0.5528(4) 0.6238(7) 0.8637(12)
C18_6 C 0.5827(4) 0.5783(7) 0.8514(11)
H8_6 H 0.604497 0.607543 0.844276
C19_5 C 0.5837(6) 0.4913(8) 0.8486(16)
H9_5 H 0.605782 0.463977 0.838559
C20_6 C 0.5209(5) 0.5824(10) 0.8722(17)
H10_7 H 0.499023 0.610822 0.880103
C21_5 C 0.5234(6) 0.4883(11) 0.868(2)
H11_5 H 0.502211 0.456532 0.871767
C8_8 C 0.98042(19) 0.5163(5) 0.8795(5)
C9_7 C 0.9804(2) 0.4284(5) 0.8698(5)
C10_8 C 0.91638(19) 0.5143(5) 0.9103(5)
C11_7 C 0.91666(19) 0.4261(5) 0.8997(5)
H6_7 H 0.895073 0.396010 0.905296
C12_7 C 0.9486(2) 0.3824(5) 0.8807(5)
C13_8 C 0.94843(19) 0.5583(5) 0.8985(5)
H7_8 H 0.948428 0.617445 0.903407
C14_8 C 0.88317(19) 0.5578(5) 0.9369(5)
C15_7 C 0.9476(3) 0.2184(7) 0.8687(8)
C16_7 C 0.9488(2) 0.2897(6) 0.8725(6)
C17_7 C 0.9472(4) 0.1238(7) 0.8637(12)
C18_7 C 0.9173(4) 0.0783(7) 0.8514(11)
H8_7 H 0.895503 0.107543 0.844276
C20_7 C 0.9791(5) 0.0824(10) 0.8722(17)
C22_8 C 0.7807(2) 0.7451(5) 0.9980(6)
H12_8 H 0.774105 0.799015 0.975509
C23_8 C 0.81288(19) 0.7117(5) 0.9653(6)
H13_8 H 0.827653 0.742934 0.922376
C24_8 C 0.82313(17) 0.6324(4) 0.9960(5)
C27_8 C 0.85588(19) 0.5917(5) 0.9617(5)
N5_6 N 0.9447(5) 0.9467(9) 0.8594(19)
C19_6 C 0.9163(6) 0.9913(8) 0.8486(16)
H9_6 H 0.894218 0.963977 0.838559
C21_6 C 0.9766(6) 0.9883(11) 0.868(2)
H11_6 H 0.997789 0.956532 0.871767
N5_7 N 0.0553(5) 0.9467(9) 0.6406(19)
C19_7 C 0.0837(6) 0.9913(8) 0.6514(16)
H9_7 H 0.105782 0.963977 0.661441
C21_7 C 0.0234(6) 0.9883(11) 0.632(2)
H11_7 H 0.002211 0.956532 0.628233
N5_8 N 0.4447(5) 0.5533(9) 0.1406(19)
C9_8 C 0.4804(2) 0.0716(5) 0.1302(5)
H5_8 H 0.501971 0.099924 0.144153
C11_8 C 0.41666(19) 0.0739(5) 0.1003(5)
H6_8 H 0.395073 0.103990 0.094704
C12_8 C 0.4486(2) 0.1176(5) 0.1193(5)
C15_8 C 0.4476(3) 0.2816(7) 0.1313(8)
C16_8 C 0.4488(2) 0.2103(6) 0.1275(6)
C17_8 C 0.4472(4) 0.3762(7) 0.1363(12)
C18_8 C 0.4173(4) 0.4217(7) 0.1486(11)
H8_8 H 0.395503 0.392457 0.155724
C19_8 C 0.4163(6) 0.5087(8) 0.1514(16)
H9_8 H 0.394218 0.536023 0.161441
C20_8 C 0.4791(5) 0.4176(10) 0.1278(17)
H10_8 H 0.500977 0.389178 0.119897
C21_8 C 0.4766(6) 0.5117(11) 0.132(2)
H11_8 H 0.497789 0.543468 0.128233
loop_
_geom_bond_atom_site_label_1
_geom_bond_atom_site_label_2
_geom_bond_site_symmetry_1
_geom_bond_site_symmetry_2
Au1 C28 1_555 1_555
Fe1 N1 1_555 1_555
N1 C1 1_555 1_555
N2 C22 1_555 1_555
N3 Fe1 1_555 1_555
N4 C29 1_555 1_555
C1 H1 1_555 1_555
C2 C1 1_555 1_555
H2 C2 1_555 1_555
C3 C2 1_555 1_555
C4 C3 1_555 1_555
H3 C4 1_555 1_555
C5 N1 1_555 1_555
H4 C5 1_555 1_555
C6 C3 1_555 1_555
C7 C6 1_555 1_555
C8 C7 1_555 1_555
C13 C8 1_555 1_555
H7 C13 1_555 1_555
C14 C10 1_555 1_555
C22 H12 1_555 1_555
C23 C22 1_555 1_555
H13 C23 1_555 1_555
C24 C23 1_555 1_555
C25 C24 1_555 1_555
H14 C25 1_555 1_555
C26 N2 1_555 1_555
H15 C26 1_555 1_555
C27 C14 1_555 1_555
C28 N3 1_555 1_555
C29 Au1 1_555 1_555
Au2 C30 1_555 1_555
N6 Fe1 1_555 1_555
C30 N6 1_555 1_555
Fe2 N2 1_555 1_555
Fe4 N4 1_555 1_555
N8 Fe1 1_555 1_555
N9 Fe1 1_555 1_555
N10 Fe1 1_555 1_555
C4 C5 1_555 1_555
C10 C13 1_555 1_555
C24 C27 1_555 1_555
C25 C26 1_555 1_555
N5 C19 1_555 1_555
H5 C9 1_555 1_555
C11 H6 1_555 1_555
C12 C9 1_555 1_555
C15 C16 1_555 1_555
C16 C12 1_555 1_555
C17 C15 1_555 1_555
C18 C17 1_555 1_555
H8 C18 1_555 1_555
C19 C18 1_555 1_555
H9 C19 1_555 1_555
C20 C17 1_555 1_555
H10 C20 1_555 1_555
C21 N5 1_555 1_555
H11 C21 1_555 1_555
N7 C31 1_555 1_555
Fe4 N7 1_555 1_555
C11 C12 1_555 1_555
C20 C21 1_555 1_555
Fe2 N1_2 1_555 1_555
N1_2 C1_2 1_555 1_555
N3_2 Fe2 1_555 1_555
C1_2 H1_2 1_555 1_555
C2_2 C1_2 1_555 1_555
H2_2 C2_2 1_555 1_555
C3_2 C2_2 1_555 1_555
C4_2 C3_2 1_555 1_555
H3_2 C4_2 1_555 1_555
C5_2 N1_2 1_555 1_555
H4_2 C5_2 1_555 1_555
C6_2 C3_2 1_555 1_555
C7_2 C6_2 1_555 1_555
C28_2 N3_2 1_555 1_555
Au2_2 C30_2 1_555 1_555
N6_2 Fe2 1_555 1_555
N7_2 C31_2 1_555 1_555
C30_2 N6_2 1_555 1_555
C31_2 Au2_2 1_555 1_555
Fe3 N7_2 1_555 1_555
N9_2 Fe2 1_555 1_555
N10_2 Fe2 1_555 1_555
C4_2 C5_2 1_555 1_555
N4_2 C29_2 1_555 1_555
C29_2 Au1_2 1_555 1_555
Fe3 N4_2 1_555 1_555
N8 C22_2 1_555 1_555
C9_2 C8_2 1_555 1_555
C10_2 C11_2 1_555 1_555
C11_2 H6_2 1_555 1_555
C12_2 C9_2 1_555 1_555
C13_2 C8_2 1_555 1_555
H7_2 C13_2 1_555 1_555
C14_2 C10_2 1_555 1_555
C15_2 C16_2 1_555 1_555
C16_2 C12_2 1_555 1_555
C17_2 C15_2 1_555 1_555
C18_2 C17_2 1_555 1_555
H8_2 C18_2 1_555 1_555
C20_2 C17_2 1_555 1_555
C22_2 H12_2 1_555 1_555
C23_2 C22_2 1_555 1_555
H13_2 C23_2 1_555 1_555
C24_2 C23_2 1_555 1_555
C25_2 C24_2 1_555 1_555
H14_2 C25_2 1_555 1_555
C26_2 N8 1_555 1_555
H15_2 C26_2 1_555 1_555
C27_2 C14_2 1_555 1_555
C10_2 C13_2 1_555 1_555
C11_2 C12_2 1_555 1_555
C24_2 C27_2 1_555 1_555
C25_2 C26_2 1_555 1_555
N9_2 C29_3 1_555 1_555
C29_3 Au1_3 1_555 1_555
Au2_3 C30_3 1_555 1_555
N10_2 C31_3 1_555 1_555
C30_3 N6_3 1_555 1_555
C31_3 Au2_3 1_555 1_555
Fe3 N1_3 1_555 1_555
N1_3 C1_3 1_555 1_555
N3_3 Fe3 1_555 1_555
C1_3 H1_3 1_555 1_555
C2_3 C1_3 1_555 1_555
H2_3 C2_3 1_555 1_555
C3_3 C2_3 1_555 1_555
C4_3 C3_3 1_555 1_555
H3_3 C4_3 1_555 1_555
C5_3 N1_3 1_555 1_555
H4_3 C5_3 1_555 1_555
C6_3 C3_3 1_555 1_555
C7_3 C6_3 1_555 1_555
N8_2 Fe3 1_555 1_555
C4_3 C5_3 1_555 1_555
H14_3 C25_3 1_555 1_555
C26_3 N2_2 1_555 1_555
H15_3 C26_3 1_555 1_555
Fe4 N2_2 1_555 1_555
C25_3 C26_3 1_555 1_555
N10 C31_4 1_555 1_555
Fe4 N1_4 1_555 1_555
N1_4 C1_4 1_555 1_555
N3_4 Fe4 1_555 1_555
C1_4 H1_4 1_555 1_555
C2_4 C1_4 1_555 1_555
H2_4 C2_4 1_555 1_555
C3_4 C2_4 1_555 1_555
C4_4 C3_4 1_555 1_555
H3_4 C4_4 1_555 1_555
C5_4 N1_4 1_555 1_555
H4_4 C5_4 1_555 1_555
C6_4 C3_4 1_555 1_555
C7_4 C6_4 1_555 1_555
C8_3 C7_4 1_555 1_555
C13_3 C8_3 1_555 1_555
H7_3 C13_3 1_555 1_555
C14_3 C10_3 1_555 1_555
C22_3 H12_3 1_555 1_555
C23_3 C22_3 1_555 1_555
H13_3 C23_3 1_555 1_555
C24_3 C23_3 1_555 1_555
C27_3 C14_3 1_555 1_555
C4_4 C5_4 1_555 1_555
C10_3 C13_3 1_555 1_555
C24_3 C27_3 1_555 1_555
Au1_4 C28_4 1_555 1_555
N9 C29_4 1_555 1_555
H14_4 C25_4 1_555 1_555
C26_4 N8_2 1_555 1_555
H15_4 C26_4 1_555 1_555
C29_4 Au1_4 1_555 1_555
Au2_4 C30_4 1_555 1_555
C30_4 N6_4 1_555 1_555
C25_4 C26_4 1_555 1_555
N5_2 C19_2 1_555 1_555
H9_2 C19_2 1_555 1_555
C21_2 N5_2 1_555 1_555
H11_2 C21_2 1_555 1_555
C9_3 C8_4 1_555 1_555
C10_4 C11_3 1_555 1_555
C11_3 H6_3 1_555 1_555
C12_3 C9_3 1_555 1_555
C13_4 C8_4 1_555 1_555
H7_4 C13_4 1_555 1_555
C14_4 C10_4 1_555 1_555
C15_3 C16_3 1_555 1_555
C16_3 C12_3 1_555 1_555
C17_3 C15_3 1_555 1_555
C18_3 C17_3 1_555 1_555
H8_3 C18_3 1_555 1_555
C20_3 C17_3 1_555 1_555
C22_4 H12_4 1_555 1_555
C23_4 C22_4 1_555 1_555
H13_4 C23_4 1_555 1_555
C24_4 C23_4 1_555 1_555
C27_4 C14_4 1_555 1_555
C10_4 C13_4 1_555 1_555
C11_3 C12_3 1_555 1_555
C24_4 C27_4 1_555 1_555
H14_5 C25_5 1_555 1_555
C26_5 N2_3 1_555 1_555
H15_5 C26_5 1_555 1_555
Fe2_2 N2_3 1_555 1_555
C25_5 C26_5 1_555 1_555
Fe1_2 N1_5 1_555 1_555
N1_5 C1_5 1_555 1_555
N3_5 Fe1_2 1_555 1_555
C1_5 H1_5 1_555 1_555
C2_5 C1_5 1_555 1_555
H2_5 C2_5 1_555 1_555
C3_5 C2_5 1_555 1_555
C4_5 C3_5 1_555 1_555
H3_5 C4_5 1_555 1_555
C5_5 N1_5 1_555 1_555
H4_5 C5_5 1_555 1_555
C6_5 C3_5 1_555 1_555
C7_5 C6_5 1_555 1_555
N8_3 Fe1_2 1_555 1_555
N9_3 Fe1_2 1_555 1_555
N10_3 Fe1_2 1_555 1_555
C4_5 C5_5 1_555 1_555
Au2_5 C30_5 1_555 1_555
N7_3 C31_5 1_555 1_555
C30_5 N6_5 1_555 1_555
C31_5 Au2_5 1_555 1_555
Fe3_2 N7_3 1_555 1_555
N4_3 C29_5 1_555 1_555
C29_5 Au1_5 1_555 1_555
Fe3_2 N4_3 1_555 1_555
Au1_6 C28_6 1_555 1_555
N4_4 C29_6 1_555 1_555
H14_6 C25_6 1_555 1_555
C26_6 N8_3 1_555 1_555
H15_6 C26_6 1_555 1_555
C29_6 Au1_6 1_555 1_555
Au2_6 C30_6 1_555 1_555
C30_6 N6_6 1_555 1_555
Fe4_2 N4_4 1_555 1_555
C25_6 C26_6 1_555 1_555
Fe2_2 N1_6 1_555 1_555
N1_6 C1_6 1_555 1_555
N3_6 Fe2_2 1_555 1_555
C1_6 H1_6 1_555 1_555
C2_6 C1_6 1_555 1_555
H2_6 C2_6 1_555 1_555
C3_6 C2_6 1_555 1_555
C4_6 C3_6 1_555 1_555
H3_6 C4_6 1_555 1_555
C5_6 N1_6 1_555 1_555
H4_6 C5_6 1_555 1_555
C6_6 C3_6 1_555 1_555
C7_6 C6_6 1_555 1_555
C8_5 C7_6 1_555 1_555
C13_5 C8_5 1_555 1_555
H7_5 C13_5 1_555 1_555
C14_5 C10_5 1_555 1_555
C22_5 H12_5 1_555 1_555
C23_5 C22_5 1_555 1_555
H13_5 C23_5 1_555 1_555
C24_5 C23_5 1_555 1_555
C27_5 C14_5 1_555 1_555
N9_4 Fe2_2 1_555 1_555
N10_4 Fe2_2 1_555 1_555
C4_6 C5_6 1_555 1_555
C10_5 C13_5 1_555 1_555
C24_5 C27_5 1_555 1_555
N7_4 C31_6 1_555 1_555
Fe4_2 N7_4 1_555 1_555
N5_3 C19_3 1_555 1_555
H5_5 C9_4 1_555 1_555
C11_4 H6_4 1_555 1_555
C12_4 C9_4 1_555 1_555
C15_4 C16_4 1_555 1_555
C16_4 C12_4 1_555 1_555
C17_4 C15_4 1_555 1_555
C18_4 C17_4 1_555 1_555
H8_4 C18_4 1_555 1_555
C19_3 C18_4 1_555 1_555
H9_3 C19_3 1_555 1_555
C20_4 C17_4 1_555 1_555
H10_5 C20_4 1_555 1_555
C21_3 N5_3 1_555 1_555
H11_3 C21_3 1_555 1_555
N10_4 C31_7 1_555 1_555
C11_4 C12_4 1_555 1_555
C20_4 C21_3 1_555 1_555
Au1_7 C28_7 1_555 1_555
Fe4_2 N1_7 1_555 1_555
N1_7 C1_7 1_555 1_555
N2_4 C22_6 1_555 1_555
N3_7 Fe4_2 1_555 1_555
N9_4 C29_7 1_555 1_555
C1_7 H1_7 1_555 1_555
C2_7 C1_7 1_555 1_555
H2_7 C2_7 1_555 1_555
C3_7 C2_7 1_555 1_555
C4_7 C3_7 1_555 1_555
H3_7 C4_7 1_555 1_555
C5_7 N1_7 1_555 1_555
H4_7 C5_7 1_555 1_555
C6_7 C3_7 1_555 1_555
C7_7 C6_7 1_555 1_555
C8_6 C7_7 1_555 1_555
C13_6 C8_6 1_555 1_555
H7_6 C13_6 1_555 1_555
C14_6 C10_6 1_555 1_555
C22_6 H12_6 1_555 1_555
C23_6 C22_6 1_555 1_555
H13_6 C23_6 1_555 1_555
C24_6 C23_6 1_555 1_555
C25_7 C24_6 1_555 1_555
H14_7 C25_7 1_555 1_555
C26_7 N2_4 1_555 1_555
H15_7 C26_7 1_555 1_555
C27_6 C14_6 1_555 1_555
C28_7 N3_7 1_555 1_555
C29_7 Au1_7 1_555 1_555
Au2_7 C30_7 1_555 1_555
N6_7 Fe4_2 1_555 1_555
C30_7 N6_7 1_555 1_555
Fe3_2 N2_4 1_555 1_555
N8_4 Fe4_2 1_555 1_555
C4_7 C5_7 1_555 1_555
C10_6 C13_6 1_555 1_555
C24_6 C27_6 1_555 1_555
C25_7 C26_7 1_555 1_555
N8_4 C22_7 1_555 1_555
C9_5 C8_7 1_555 1_555
C10_7 C11_5 1_555 1_555
C11_5 H6_5 1_555 1_555
C12_5 C9_5 1_555 1_555
C13_7 C8_7 1_555 1_555
H7_7 C13_7 1_555 1_555
C14_7 C10_7 1_555 1_555
C15_5 C16_5 1_555 1_555
C16_5 C12_5 1_555 1_555
C17_5 C15_5 1_555 1_555
C18_5 C17_5 1_555 1_555
H8_5 C18_5 1_555 1_555
C20_5 C17_5 1_555 1_555
C22_7 H12_7 1_555 1_555
C23_7 C22_7 1_555 1_555
H13_7 C23_7 1_555 1_555
C24_7 C23_7 1_555 1_555
C25_8 C24_7 1_555 1_555
H14_8 C25_8 1_555 1_555
C26_8 N8_4 1_555 1_555
H15_8 C26_8 1_555 1_555
C27_7 C14_7 1_555 1_555
C10_7 C13_7 1_555 1_555
C11_5 C12_5 1_555 1_555
C24_7 C27_7 1_555 1_555
C25_8 C26_8 1_555 1_555
N9_3 C29_8 1_555 1_555
C29_8 Au1_8 1_555 1_555
Fe3_2 N1_8 1_555 1_555
N1_8 C1_8 1_555 1_555
N3_8 Fe3_2 1_555 1_555
C1_8 H1_8 1_555 1_555
C2_8 C1_8 1_555 1_555
H2_8 C2_8 1_555 1_555
C3_8 C2_8 1_555 1_555
C4_8 C3_8 1_555 1_555
H3_8 C4_8 1_555 1_555
C5_8 N1_8 1_555 1_555
H4_8 C5_8 1_555 1_555
C6_8 C3_8 1_555 1_555
C7_8 C6_8 1_555 1_555
C28_8 N3_8 1_555 1_555
Au2_8 C30_8 1_555 1_555
N6_8 Fe3_2 1_555 1_555
N10_3 C31_8 1_555 1_555
C30_8 N6_8 1_555 1_555
C31_8 Au2_8 1_555 1_555
C4_8 C5_8 1_555 1_555
N5_4 C19_4 1_555 1_555
H9_4 C19_4 1_555 1_555
C21_4 N5_4 1_555 1_555
H11_4 C21_4 1_555 1_555
N5_5 C19_5 1_555 1_555
H5_7 C9_6 1_555 1_555
C11_6 H6_6 1_555 1_555
C12_6 C9_6 1_555 1_555
C15_6 C16_6 1_555 1_555
C16_6 C12_6 1_555 1_555
C17_6 C15_6 1_555 1_555
C18_6 C17_6 1_555 1_555
H8_6 C18_6 1_555 1_555
C19_5 C18_6 1_555 1_555
H9_5 C19_5 1_555 1_555
C20_6 C17_6 1_555 1_555
H10_7 C20_6 1_555 1_555
C21_5 N5_5 1_555 1_555
H11_5 C21_5 1_555 1_555
C11_6 C12_6 1_555 1_555
C20_6 C21_5 1_555 1_555
C9_7 C8_8 1_555 1_555
C10_8 C11_7 1_555 1_555
C11_7 H6_7 1_555 1_555
C12_7 C9_7 1_555 1_555
C13_8 C8_8 1_555 1_555
H7_8 C13_8 1_555 1_555
C14_8 C10_8 1_555 1_555
C15_7 C16_7 1_555 1_555
C16_7 C12_7 1_555 1_555
C17_7 C15_7 1_555 1_555
C18_7 C17_7 1_555 1_555
H8_7 C18_7 1_555 1_555
C20_7 C17_7 1_555 1_555
C22_8 H12_8 1_555 1_555
C23_8 C22_8 1_555 1_555
H13_8 C23_8 1_555 1_555
C24_8 C23_8 1_555 1_555
C27_8 C14_8 1_555 1_555
C10_8 C13_8 1_555 1_555
C11_7 C12_7 1_555 1_555
C24_8 C27_8 1_555 1_555
N5_6 C19_6 1_555 1_555
H9_6 C19_6 1_555 1_555
C21_6 N5_6 1_555 1_555
H11_6 C21_6 1_555 1_555
N5_7 C19_7 1_555 1_555
H9_7 C19_7 1_555 1_555
C21_7 N5_7 1_555 1_555
H11_7 C21_7 1_555 1_555
N5_8 C19_8 1_555 1_555
H5_8 C9_8 1_555 1_555
C11_8 H6_8 1_555 1_555
C12_8 C9_8 1_555 1_555
C15_8 C16_8 1_555 1_555
C16_8 C12_8 1_555 1_555
C17_8 C15_8 1_555 1_555
C18_8 C17_8 1_555 1_555
H8_8 C18_8 1_555 1_555
C19_8 C18_8 1_555 1_555
H9_8 C19_8 1_555 1_555
C20_8 C17_8 1_555 1_555
H10_8 C20_8 1_555 1_555
C21_8 N5_8 1_555 1_555
H11_8 C21_8 1_555 1_555
C11_8 C12_8 1_555 1_555
C20_8 C21_8 1_555 1_555

#END
