
###############################################################################
#
# This file contains modified crystal structure data generated from the
# MOF subset of the Cambridge Structural Database (CSD) v543 
# hosted by the Cambridge Crystallographic Data Centre (CCDC).
#
# This work is licensed under the Creative Commons
# Attribution-NonCommercial-ShareAlike 4.0 International License.
# To view a copy of this license, visit
# http://creativecommons.org/licenses/by-nc-sa/4.0/
# or send a letter to
# Creative Commons, PO Box 1866, Mountain View, CA 94042, USA.
#
# CIF created using the CSD Python API on 29 September 2022
# The structure has been converted into the P1 space group
# The structure has a 3D framework
# The original CSD entry KILFUI is in the monoclinic crystal system
# The framework has been calculated to contain at least 10.0% void space
# The void calculation uses a probe of radius 1.32A, grid spacing 0.4
#
###############################################################################

data_KILFUI
_chemical_formula_moiety         '(C152 H176 N64 Ni8 W4)n'
_symmetry_cell_setting           triclinic
_symmetry_space_group_name_H-M   'P 1'
_symmetry_Int_Tables_number      1
_space_group_name_Hall           'P 1'
loop_
_symmetry_equiv_pos_site_id
_symmetry_equiv_pos_as_xyz
1 x,y,z
_cell_length_a                   15.031(2)
_cell_length_b                   30.103(5)
_cell_length_c                   13.367(2)
_cell_angle_alpha                90
_cell_angle_beta                 119.837(3)
_cell_angle_gamma                90
_cell_volume                     5246.54
loop_
_atom_site_label
_atom_site_type_symbol
_atom_site_fract_x
_atom_site_fract_y
_atom_site_fract_z
Ni1 Ni 0.0048(2) 0.53817(9) 0.0789(2)
Ni2 Ni 0.2155(3) 0.23227(12) 0.1102(3)
N3 N 0.340(2) 0.1923(8) 0.224(2)
N5 N 0.153(2) 0.3812(8) 0.2038(19)
N9 N 0.140(2) 0.5623(8) 0.127(2)
N10 N 0.096(3) 0.5023(7) 0.225(2)
N14 N 0.120(3) 0.1825(12) 0.107(4)
N15 N 0.250(5) 0.2728(11) 0.243(3)
H2 H 0.2044 0.2949 0.2049
N16 N 0.315(3) 0.2639(11) 0.065(4)
C3 C 0.396(2) 0.1691(8) 0.291(2)
C5 C 0.102(2) 0.3816(8) 0.114(2)
C9 C 0.223(3) 0.5447(10) 0.223(3)
C10 C 0.319(3) 0.5590(15) 0.248(4)
H3 H 0.3777 0.5482 0.3119
C11 C 0.323(4) 0.5911(19) 0.176(4)
H4 H 0.3887 0.6002 0.1959
C12 C 0.244(3) 0.6099(12) 0.077(4)
H5 H 0.2518 0.6315 0.0326
C13 C 0.152(3) 0.5926(11) 0.058(3)
C16 C 0.187(3) 0.5096(10) 0.285(3)
C17 C 0.267(4) 0.4940(16) 0.396(3)
H9 H 0.2551 0.5057 0.4555
H10 H 0.3325 0.5035 0.4092
H11 H 0.2647 0.4621 0.3974
C18 C 0.029(4) 0.4688(10) 0.271(3)
H12 H 0.0689 0.4425 0.3097
H13 H 0.0156 0.4850 0.3245
C29 C 0.087(3) 0.1561(13) 0.029(4)
C30 C 0.047(4) 0.1104(16) 0.008(5)
H29 H 0.0927 0.0911 0.0693
C33 C 0.089(8) 0.186(4) 0.180(7)
H33 H 0.1096 0.1590 0.2252
H34 H 0.0153 0.1846 0.1318
C34 C 0.107(10) 0.223(2) 0.263(5)
H35 H 0.0470 0.2416 0.2288
H36 H 0.1111 0.2091 0.3302
C35 C 0.198(6) 0.252(2) 0.303(5)
H37 H 0.2518 0.2361 0.3685
H38 H 0.1806 0.2770 0.3344
C36 C 0.346(5) 0.2992(19) 0.291(4)
H39 H 0.3469 0.3212 0.3449
H40 H 0.4047 0.2798 0.3328
C37 C 0.350(4) 0.3203(14) 0.195(6)
H41 H 0.3969 0.3451 0.2297
H42 H 0.2829 0.3332 0.1465
C38 C 0.381(4) 0.2989(16) 0.117(5)
H43 H 0.3732 0.3198 0.0583
H44 H 0.4514 0.2890 0.1591
W3 W 0.49653(13) 0.12235(5) 0.42341(13)
N4 N 0.9781(18) 0.5853(7) 0.1793(17)
N8 N 0.868(3) 0.3399(14) 0.047(3)
N11 N 0.867(2) 0.5113(8) 0.021(2)
C4 C 0.979(2) 0.5970(8) 0.262(2)
C8 C 0.907(2) 0.3533(10) 0.003(2)
C19 C 0.932(3) 0.4573(10) 0.172(3)
H14 H 0.9040 0.4334 0.1965
H15 H 0.9501 0.4444 0.1178
C20 C 0.854(3) 0.4879(11) 0.112(3)
H16 H 0.7893 0.4720 0.0754
H17 H 0.8522 0.5096 0.1641
H19 H 0.7880 0.5695 0.0004
H28 H 0.9817 0.1112 0.0052
W2 W 0.99653(13) 0.62235(5) 0.42341(13)
W1 W 0.99653(13) 0.37765(5) 0.92341(13)
N6 N 0.781(2) 0.4308(10) 0.815(4)
H1 H 0.8609 0.4899 0.9702
N12 N 0.970(2) 0.5855(7) 0.956(2)
C6 C 0.854(2) 0.4105(8) 0.849(2)
H6 H 0.9719 0.6501 0.8297
C21 C 0.783(3) 0.5446(12) 0.952(3)
H18 H 0.7167 0.5308 0.9231
C22 C 0.795(3) 0.5607(12) 0.852(3)
H20 H 0.7269 0.5692 0.7908
H21 H 0.8170 0.5360 0.8235
C23 C 0.868(3) 0.5990(11) 0.873(3)
H22 H 0.8644 0.6078 0.8012
H23 H 0.8488 0.6242 0.9031
C39 C 0.896(2) 0.3309(8) 0.791(2)
C40 C 0.979(2) 0.4030(8) 0.762(2)
N4_2 N 0.9781(18) 0.4147(7) 0.6793(17)
N6_2 N 0.781(2) 0.5692(10) 0.315(4)
N8_2 N 0.868(3) 0.6601(14) 0.547(3)
N11_2 N 0.867(2) 0.4887(8) 0.521(2)
H1_2 H 0.8609 0.5101 0.4702
N12_2 N 0.970(2) 0.4145(7) 0.456(2)
C6_2 C 0.854(2) 0.5895(8) 0.349(2)
C8_2 C 0.907(2) 0.6467(10) 0.503(2)
H6_2 H 0.9719 0.3499 0.3297
C19_2 C 0.932(3) 0.5427(10) 0.672(3)
H14_2 H 0.9040 0.5666 0.6965
H15_2 H 0.9501 0.5556 0.6178
C20_2 C 0.854(3) 0.5121(11) 0.612(3)
H16_2 H 0.7893 0.5280 0.5754
H17_2 H 0.8522 0.4904 0.6641
C21_2 C 0.783(3) 0.4554(12) 0.452(3)
H18_2 H 0.7167 0.4692 0.4231
H19_2 H 0.7880 0.4305 0.5004
C22_2 C 0.795(3) 0.4393(12) 0.352(3)
H20_2 H 0.7269 0.4308 0.2908
H21_2 H 0.8170 0.4640 0.3235
C23_2 C 0.868(3) 0.4010(11) 0.373(3)
H22_2 H 0.8644 0.3922 0.3012
H23_2 H 0.8488 0.3758 0.4031
H28_2 H 0.9817 0.8888 0.5052
C39_2 C 0.896(2) 0.6691(8) 0.291(2)
Ni1_2 Ni 0.5048(2) 0.03817(9) 0.0789(2)
N4_3 N 0.4781(18) 0.0853(7) 0.1793(17)
N9_2 N 0.640(2) 0.0623(8) 0.127(2)
N10_2 N 0.596(3) 0.0023(7) 0.225(2)
N11_3 N 0.367(2) 0.0113(8) 0.021(2)
C4_2 C 0.479(2) 0.0970(8) 0.262(2)
C9_2 C 0.723(3) 0.0447(10) 0.223(3)
C10_2 C 0.819(3) 0.0590(15) 0.248(4)
H3_2 H 0.8777 0.0482 0.3119
C11_2 C 0.823(4) 0.0911(19) 0.176(4)
H4_2 H 0.8887 0.1002 0.1959
C12_2 C 0.744(3) 0.1099(12) 0.077(4)
H5_2 H 0.7518 0.1315 0.0326
C13_2 C 0.652(3) 0.0926(11) 0.058(3)
C16_2 C 0.687(3) 0.0096(10) 0.285(3)
H9_2 H 0.7551 0.0057 0.4555
H10_2 H 0.8325 0.0035 0.4092
H17_3 H 0.3522 0.0096 0.1641
H19_3 H 0.2880 0.0695 0.0004
Ni2_2 Ni 0.7155(3) 0.73227(12) 0.1102(3)
N3_2 N 0.840(2) 0.6923(8) 0.224(2)
N5_2 N 0.653(2) 0.8812(8) 0.2038(19)
N8_3 N 0.368(3) 0.8399(14) 0.047(3)
N14_2 N 0.620(3) 0.6825(12) 0.107(4)
N15_2 N 0.750(5) 0.7728(11) 0.243(3)
H2_2 H 0.7044 0.7949 0.2049
N16_2 N 0.815(3) 0.7639(11) 0.065(4)
C5_2 C 0.602(2) 0.8816(8) 0.114(2)
C8_3 C 0.407(2) 0.8533(10) 0.003(2)
C17_2 C 0.767(4) 0.9940(16) 0.396(3)
H11_2 H 0.7647 0.9621 0.3974
C18_2 C 0.529(4) 0.9688(10) 0.271(3)
H12_2 H 0.5689 0.9425 0.3097
H13_2 H 0.5156 0.9850 0.3245
C19_3 C 0.432(3) 0.9573(10) 0.172(3)
H14_3 H 0.4040 0.9334 0.1965
H15_3 H 0.4501 0.9444 0.1178
C20_3 C 0.354(3) 0.9879(11) 0.112(3)
H16_3 H 0.2893 0.9720 0.0754
C29_2 C 0.587(3) 0.6561(13) 0.029(4)
C30_2 C 0.547(4) 0.6104(16) 0.008(5)
H28_3 H 0.4817 0.6112 0.0052
H29_2 H 0.5927 0.5911 0.0693
C33_2 C 0.589(8) 0.686(4) 0.180(7)
H33_2 H 0.6096 0.6590 0.2252
H34_2 H 0.5153 0.6846 0.1318
C34_2 C 0.607(10) 0.723(2) 0.263(5)
H35_2 H 0.5470 0.7416 0.2288
H36_2 H 0.6111 0.7091 0.3302
C35_2 C 0.698(6) 0.752(2) 0.303(5)
H37_2 H 0.7518 0.7361 0.3685
H38_2 H 0.6806 0.7770 0.3344
C36_2 C 0.846(5) 0.7992(19) 0.291(4)
H39_2 H 0.8469 0.8212 0.3449
H40_2 H 0.9047 0.7798 0.3328
C37_2 C 0.850(4) 0.8203(14) 0.195(6)
H41_2 H 0.8969 0.8451 0.2297
H42_2 H 0.7829 0.8332 0.1465
C38_2 C 0.881(4) 0.7989(16) 0.117(5)
H43_2 H 0.8732 0.8198 0.0583
H44_2 H 0.9514 0.7890 0.1591
Ni2_3 Ni 0.7155(3) 0.26773(12) 0.6102(3)
N1 N 0.5339(17) 0.0150(6) 0.4910(17)
N2 N 0.600(2) 0.2221(7) 0.499(2)
N3_3 N 0.840(2) 0.3077(8) 0.724(2)
N5_3 N 0.653(2) 0.1188(8) 0.7038(19)
N6_3 N 0.281(2) 0.0692(10) 0.315(4)
N7 N 0.727(2) 0.1080(11) 0.453(2)
N8_4 N 0.368(3) 0.1601(14) 0.547(3)
H1_3 H 0.3609 0.0101 0.4702
N13 N 0.693(2) 0.3028(9) 0.476(3)
N14_3 N 0.620(3) 0.3175(12) 0.607(4)
N15_3 N 0.750(5) 0.2272(11) 0.743(3)
H2_3 H 0.7044 0.2051 0.7049
N16_3 N 0.815(3) 0.2361(11) 0.565(4)
C1 C 0.528(2) 0.0521(9) 0.468(2)
C2 C 0.564(2) 0.1886(9) 0.471(2)
C5_3 C 0.602(2) 0.1184(8) 0.614(2)
C6_3 C 0.354(2) 0.0895(8) 0.349(2)
C7 C 0.650(3) 0.1157(9) 0.443(2)
C8_4 C 0.407(2) 0.1467(10) 0.503(2)
C17_3 C 0.767(4) 0.0060(16) 0.896(3)
H11_3 H 0.7647 0.0379 0.8974
C18_3 C 0.529(4) 0.0312(10) 0.771(3)
H12_3 H 0.5689 0.0575 0.8097
H13_3 H 0.5156 0.0150 0.8245
C19_4 C 0.432(3) 0.0427(10) 0.672(3)
H14_4 H 0.4040 0.0666 0.6965
H15_4 H 0.4501 0.0556 0.6178
C20_4 C 0.354(3) 0.0121(11) 0.612(3)
H16_4 H 0.2893 0.0280 0.5754
C24 C 0.628(3) 0.3376(12) 0.447(4)
C25 C 0.600(3) 0.3582(14) 0.342(4)
H24 H 0.5559 0.3823 0.3173
C26 C 0.638(4) 0.343(2) 0.273(5)
H25 H 0.6190 0.3570 0.2033
C27 C 0.704(4) 0.3069(15) 0.306(4)
H26 H 0.7302 0.2969 0.2599
C28 C 0.731(3) 0.2868(14) 0.411(4)
C29_3 C 0.587(3) 0.3439(13) 0.529(4)
C30_3 C 0.547(4) 0.3896(16) 0.508(5)
H27 H 0.5375 0.4006 0.4359
H28_4 H 0.4817 0.3888 0.5052
H29_3 H 0.5927 0.4089 0.5693
C31 C 0.804(3) 0.2495(15) 0.479(5)
C32 C 0.859(5) 0.230(2) 0.424(5)
H30 H 0.8543 0.2513 0.3681
H31 H 0.9301 0.2245 0.4787
H32 H 0.8274 0.2026 0.3853
C33_3 C 0.589(8) 0.314(4) 0.680(7)
H33_3 H 0.6096 0.3410 0.7252
H34_3 H 0.5153 0.3154 0.6318
C34_3 C 0.607(10) 0.277(2) 0.763(5)
H35_3 H 0.5470 0.2584 0.7288
H36_3 H 0.6111 0.2909 0.8302
C35_3 C 0.698(6) 0.248(2) 0.803(5)
H37_3 H 0.7518 0.2639 0.8685
H38_3 H 0.6806 0.2230 0.8344
C36_3 C 0.846(5) 0.2008(19) 0.791(4)
H39_3 H 0.8469 0.1788 0.8449
H40_3 H 0.9047 0.2202 0.8328
C37_3 C 0.850(4) 0.1797(14) 0.695(6)
H41_3 H 0.8969 0.1549 0.7297
H42_3 H 0.7829 0.1668 0.6465
C38_3 C 0.881(4) 0.2011(16) 0.617(5)
H43_3 H 0.8732 0.1802 0.5583
H44_3 H 0.9514 0.2110 0.6591
N1_2 N 0.0339(17) 0.4850(6) 0.9910(17)
N2_2 N 0.100(2) 0.2779(7) 0.999(2)
N7_2 N 0.227(2) 0.3920(11) 0.953(2)
N13_2 N 0.193(2) 0.1972(9) 0.976(3)
C1_2 C 0.028(2) 0.4479(9) 0.968(2)
C2_2 C 0.064(2) 0.3114(9) 0.971(2)
C7_2 C 0.150(3) 0.3843(9) 0.943(2)
C14 C 0.055(3) 0.6078(9) 0.963(3)
C15 C 0.043(3) 0.6463(10) 0.888(3)
H7 H 0.0827 0.6414 0.8509
H8 H 0.0666 0.6726 0.9343
C24_2 C 0.128(3) 0.1624(12) 0.947(4)
C25_2 C 0.100(3) 0.1418(14) 0.842(4)
H24_2 H 0.0559 0.1177 0.8173
C26_2 C 0.138(4) 0.157(2) 0.773(5)
H25_2 H 0.1190 0.1430 0.7033
C27_2 C 0.204(4) 0.1931(15) 0.806(4)
H26_2 H 0.2302 0.2031 0.7599
C28_2 C 0.231(3) 0.2132(14) 0.911(4)
H27_2 H 0.0375 0.0994 0.9359
C31_2 C 0.304(3) 0.2505(15) 0.979(5)
C32_2 C 0.359(5) 0.270(2) 0.924(5)
H30_2 H 0.3543 0.2487 0.8681
H31_2 H 0.4301 0.2755 0.9787
H32_2 H 0.3274 0.2974 0.8853
Ni1_3 Ni 0.0048(2) 0.46183(9) 0.5789(2)
Ni2_4 Ni 0.2155(3) 0.76773(12) 0.6102(3)
N1_3 N 0.0339(17) 0.5150(6) 0.4910(17)
N2_3 N 0.100(2) 0.7221(7) 0.499(2)
N3_4 N 0.340(2) 0.8077(8) 0.724(2)
N5_4 N 0.153(2) 0.6188(8) 0.7038(19)
N7_3 N 0.227(2) 0.6080(11) 0.453(2)
N9_3 N 0.140(2) 0.4377(8) 0.627(2)
N10_3 N 0.096(3) 0.4977(7) 0.725(2)
N13_3 N 0.193(2) 0.8028(9) 0.476(3)
N14_4 N 0.120(3) 0.8175(12) 0.607(4)
N15_4 N 0.250(5) 0.7272(11) 0.743(3)
H2_4 H 0.2044 0.7051 0.7049
N16_4 N 0.315(3) 0.7361(11) 0.565(4)
C1_3 C 0.028(2) 0.5521(9) 0.468(2)
C2_3 C 0.064(2) 0.6886(9) 0.471(2)
C3_2 C 0.396(2) 0.8309(8) 0.791(2)
C5_4 C 0.102(2) 0.6184(8) 0.614(2)
C7_3 C 0.150(3) 0.6157(9) 0.443(2)
C9_3 C 0.223(3) 0.4553(10) 0.723(3)
C10_3 C 0.319(3) 0.4410(15) 0.748(4)
H3_3 H 0.3777 0.4518 0.8119
C11_3 C 0.323(4) 0.4089(19) 0.676(4)
H4_3 H 0.3887 0.3998 0.6959
C12_3 C 0.244(3) 0.3901(12) 0.577(4)
H5_3 H 0.2518 0.3685 0.5326
C13_3 C 0.152(3) 0.4074(11) 0.558(3)
C14_2 C 0.055(3) 0.3922(9) 0.463(3)
C15_2 C 0.043(3) 0.3537(10) 0.388(3)
H7_2 H 0.0827 0.3586 0.3509
H8_2 H 0.0666 0.3274 0.4343
C16_3 C 0.187(3) 0.4904(10) 0.785(3)
C17_4 C 0.267(4) 0.5060(16) 0.896(3)
H9_3 H 0.2551 0.4943 0.9555
H10_3 H 0.3325 0.4965 0.9092
H11_4 H 0.2647 0.5379 0.8974
C18_4 C 0.029(4) 0.5312(10) 0.771(3)
H12_4 H 0.0689 0.5575 0.8097
H13_4 H 0.0156 0.5150 0.8245
C24_3 C 0.128(3) 0.8376(12) 0.447(4)
C25_3 C 0.100(3) 0.8582(14) 0.342(4)
H24_3 H 0.0559 0.8823 0.3173
C26_3 C 0.138(4) 0.843(2) 0.273(5)
H25_3 H 0.1190 0.8570 0.2033
C27_3 C 0.204(4) 0.8069(15) 0.306(4)
H26_3 H 0.2302 0.7969 0.2599
C28_3 C 0.231(3) 0.7868(14) 0.411(4)
C29_4 C 0.087(3) 0.8439(13) 0.529(4)
C30_4 C 0.047(4) 0.8896(16) 0.508(5)
H27_3 H 0.0375 0.9006 0.4359
H29_4 H 0.0927 0.9089 0.5693
C31_3 C 0.304(3) 0.7495(15) 0.479(5)
C32_3 C 0.359(5) 0.730(2) 0.424(5)
H30_3 H 0.3543 0.7513 0.3681
H31_3 H 0.4301 0.7245 0.4787
H32_3 H 0.3274 0.7026 0.3853
C33_4 C 0.089(8) 0.814(4) 0.680(7)
H33_4 H 0.1096 0.8410 0.7252
H34_4 H 0.0153 0.8154 0.6318
C34_4 C 0.107(10) 0.777(2) 0.763(5)
H35_4 H 0.0470 0.7584 0.7288
H36_4 H 0.1111 0.7909 0.8302
C35_4 C 0.198(6) 0.748(2) 0.803(5)
H37_4 H 0.2518 0.7639 0.8685
H38_4 H 0.1806 0.7230 0.8344
C36_4 C 0.346(5) 0.7008(19) 0.791(4)
H39_4 H 0.3469 0.6788 0.8449
H40_4 H 0.4047 0.7202 0.8328
C37_4 C 0.350(4) 0.6797(14) 0.695(6)
H41_4 H 0.3969 0.6549 0.7297
H42_4 H 0.2829 0.6668 0.6465
C38_4 C 0.381(4) 0.7011(16) 0.617(5)
H43_4 H 0.3732 0.6802 0.5583
H44_4 H 0.4514 0.7110 0.6591
W3_2 W 0.49653(13) 0.87765(5) 0.92341(13)
N1_4 N 0.5339(17) 0.9850(6) 0.9910(17)
N2_4 N 0.600(2) 0.7779(7) 0.999(2)
N6_4 N 0.281(2) 0.9308(10) 0.815(4)
N7_4 N 0.727(2) 0.8920(11) 0.953(2)
H1_4 H 0.3609 0.9899 0.9702
N13_4 N 0.693(2) 0.6972(9) 0.976(3)
C1_4 C 0.528(2) 0.9479(9) 0.968(2)
C2_4 C 0.564(2) 0.8114(9) 0.971(2)
C6_4 C 0.354(2) 0.9105(8) 0.849(2)
C7_4 C 0.650(3) 0.8843(9) 0.943(2)
C24_4 C 0.628(3) 0.6624(12) 0.947(4)
C25_4 C 0.600(3) 0.6418(14) 0.842(4)
H24_4 H 0.5559 0.6177 0.8173
C26_4 C 0.638(4) 0.657(2) 0.773(5)
H25_4 H 0.6190 0.6430 0.7033
C27_4 C 0.704(4) 0.6931(15) 0.806(4)
H26_4 H 0.7302 0.7031 0.7599
C28_4 C 0.731(3) 0.7132(14) 0.911(4)
H27_4 H 0.5375 0.5994 0.9359
C31_4 C 0.804(3) 0.7505(15) 0.979(5)
C32_4 C 0.859(5) 0.770(2) 0.924(5)
H30_4 H 0.8543 0.7487 0.8681
H31_4 H 0.9301 0.7755 0.9787
H32_4 H 0.8274 0.7974 0.8853
C40_2 C 0.479(2) 0.9030(8) 0.762(2)
Ni1_4 Ni 0.5048(2) 0.96183(9) 0.5789(2)
N4_4 N 0.4781(18) 0.9147(7) 0.6793(17)
N9_4 N 0.640(2) 0.9377(8) 0.627(2)
N10_4 N 0.596(3) 0.9977(7) 0.725(2)
N11_4 N 0.367(2) 0.9887(8) 0.521(2)
N12_3 N 0.470(2) 0.9145(7) 0.456(2)
C9_4 C 0.723(3) 0.9553(10) 0.723(3)
C10_4 C 0.819(3) 0.9410(15) 0.748(4)
H3_4 H 0.8777 0.9518 0.8119
C11_4 C 0.823(4) 0.9089(19) 0.676(4)
H4_4 H 0.8887 0.8998 0.6959
C12_4 C 0.744(3) 0.8901(12) 0.577(4)
H5_4 H 0.7518 0.8685 0.5326
C13_4 C 0.652(3) 0.9074(11) 0.558(3)
C14_3 C 0.555(3) 0.8922(9) 0.463(3)
C15_3 C 0.543(3) 0.8537(10) 0.388(3)
H6_3 H 0.4719 0.8499 0.3297
H7_3 H 0.5827 0.8586 0.3509
H8_3 H 0.5666 0.8274 0.4343
C16_4 C 0.687(3) 0.9904(10) 0.785(3)
H9_4 H 0.7551 0.9943 0.9555
H10_4 H 0.8325 0.9965 0.9092
H17_4 H 0.3522 0.9904 0.6641
C21_3 C 0.283(3) 0.9554(12) 0.452(3)
H18_3 H 0.2167 0.9692 0.4231
H19_4 H 0.2880 0.9305 0.5004
C22_3 C 0.295(3) 0.9393(12) 0.352(3)
H20_3 H 0.2269 0.9308 0.2908
H21_3 H 0.3170 0.9640 0.3235
C23_3 C 0.368(3) 0.9010(11) 0.373(3)
H22_3 H 0.3644 0.8922 0.3012
H23_3 H 0.3488 0.8758 0.4031
N12_4 N 0.470(2) 0.0855(7) 0.956(2)
C14_4 C 0.555(3) 0.1078(9) 0.963(3)
C15_4 C 0.543(3) 0.1463(10) 0.888(3)
H6_4 H 0.4719 0.1501 0.8297
H7_4 H 0.5827 0.1414 0.8509
H8_4 H 0.5666 0.1726 0.9343
C21_4 C 0.283(3) 0.0446(12) 0.952(3)
H18_4 H 0.2167 0.0308 0.9231
C22_4 C 0.295(3) 0.0607(12) 0.852(3)
H20_4 H 0.2269 0.0692 0.7908
H21_4 H 0.3170 0.0360 0.8235
C23_4 C 0.368(3) 0.0990(11) 0.873(3)
H22_4 H 0.3644 0.1078 0.8012
H23_4 H 0.3488 0.1242 0.9031
loop_
_geom_bond_atom_site_label_1
_geom_bond_atom_site_label_2
_geom_bond_site_symmetry_1
_geom_bond_site_symmetry_2
N3 Ni2 1_555 1_555
N5 C5 1_555 1_555
N9 Ni1 1_555 1_555
N10 Ni1 1_555 1_555
N14 Ni2 1_555 1_555
N15 Ni2 1_555 1_555
H2 N15 1_555 1_555
N16 Ni2 1_555 1_555
C3 N3 1_555 1_555
C9 N9 1_555 1_555
C10 C9 1_555 1_555
H3 C10 1_555 1_555
C11 C10 1_555 1_555
H4 C11 1_555 1_555
C12 C11 1_555 1_555
H5 C12 1_555 1_555
C13 N9 1_555 1_555
C16 N10 1_555 1_555
C17 C16 1_555 1_555
H9 C17 1_555 1_555
H10 C17 1_555 1_555
H11 C17 1_555 1_555
C18 N10 1_555 1_555
H12 C18 1_555 1_555
H13 C18 1_555 1_555
C29 N14 1_555 1_555
C30 C29 1_555 1_555
H29 C30 1_555 1_555
C33 N14 1_555 1_555
H33 C33 1_555 1_555
H34 C33 1_555 1_555
C34 C33 1_555 1_555
H35 C34 1_555 1_555
H36 C34 1_555 1_555
C35 N15 1_555 1_555
H37 C35 1_555 1_555
H38 C35 1_555 1_555
C36 N15 1_555 1_555
H39 C36 1_555 1_555
H40 C36 1_555 1_555
C37 C36 1_555 1_555
H41 C37 1_555 1_555
H42 C37 1_555 1_555
C38 N16 1_555 1_555
H43 C38 1_555 1_555
H44 C38 1_555 1_555
W3 C3 1_555 1_555
C9 C16 1_555 1_555
C12 C13 1_555 1_555
C34 C35 1_555 1_555
C37 C38 1_555 1_555
N8 C8 1_555 1_555
C4 N4 1_555 1_555
H14 C19 1_555 1_555
H15 C19 1_555 1_555
C20 N11 1_555 1_555
H16 C20 1_555 1_555
H17 C20 1_555 1_555
W2 C4 1_555 1_555
C19 C20 1_555 1_555
N6 C6 1_555 1_555
C6 W1 1_555 1_555
H18 C21 1_555 1_555
C22 C21 1_555 1_555
H20 C22 1_555 1_555
H21 C22 1_555 1_555
C23 N12 1_555 1_555
H22 C23 1_555 1_555
H23 C23 1_555 1_555
C39 W1 1_555 1_555
C40 W1 1_555 1_555
C22 C23 1_555 1_555
N6_2 C6_2 1_555 1_555
N8_2 C8_2 1_555 1_555
H1_2 N11_2 1_555 1_555
C40 N4_2 1_555 1_555
C6_2 W2 1_555 1_555
C8_2 W2 1_555 1_555
H14_2 C19_2 1_555 1_555
H15_2 C19_2 1_555 1_555
C20_2 N11_2 1_555 1_555
H16_2 C20_2 1_555 1_555
H17_2 C20_2 1_555 1_555
C21_2 N11_2 1_555 1_555
H18_2 C21_2 1_555 1_555
H19_2 C21_2 1_555 1_555
C22_2 C21_2 1_555 1_555
H20_2 C22_2 1_555 1_555
H21_2 C22_2 1_555 1_555
C23_2 N12_2 1_555 1_555
H22_2 C23_2 1_555 1_555
H23_2 C23_2 1_555 1_555
C39_2 W2 1_555 1_555
C19_2 C20_2 1_555 1_555
C22_2 C23_2 1_555 1_555
N4_3 Ni1_2 1_555 1_555
N9_2 Ni1_2 1_555 1_555
N10_2 Ni1_2 1_555 1_555
N11_3 Ni1_2 1_555 1_555
C4_2 N4_3 1_555 1_555
C9_2 N9_2 1_555 1_555
C10_2 C9_2 1_555 1_555
H3_2 C10_2 1_555 1_555
C11_2 C10_2 1_555 1_555
H4_2 C11_2 1_555 1_555
C12_2 C11_2 1_555 1_555
H5_2 C12_2 1_555 1_555
C13_2 N9_2 1_555 1_555
C16_2 N10_2 1_555 1_555
W3 C4_2 1_555 1_555
C9_2 C16_2 1_555 1_555
C12_2 C13_2 1_555 1_555
N3_2 Ni2_2 1_555 1_555
N5_2 C5_2 1_555 1_555
N8_3 C8_3 1_555 1_555
N14_2 Ni2_2 1_555 1_555
N15_2 Ni2_2 1_555 1_555
H2_2 N15_2 1_555 1_555
N16_2 Ni2_2 1_555 1_555
C39_2 N3_2 1_555 1_555
H11_2 C17_2 1_555 1_555
H12_2 C18_2 1_555 1_555
H13_2 C18_2 1_555 1_555
C19_3 C18_2 1_555 1_555
H14_3 C19_3 1_555 1_555
H15_3 C19_3 1_555 1_555
H16_3 C20_3 1_555 1_555
C29_2 N14_2 1_555 1_555
C30_2 C29_2 1_555 1_555
H28_3 C30_2 1_555 1_555
H29_2 C30_2 1_555 1_555
C33_2 N14_2 1_555 1_555
H33_2 C33_2 1_555 1_555
H34_2 C33_2 1_555 1_555
C34_2 C33_2 1_555 1_555
H35_2 C34_2 1_555 1_555
H36_2 C34_2 1_555 1_555
C35_2 N15_2 1_555 1_555
H37_2 C35_2 1_555 1_555
H38_2 C35_2 1_555 1_555
C36_2 N15_2 1_555 1_555
H39_2 C36_2 1_555 1_555
H40_2 C36_2 1_555 1_555
C37_2 C36_2 1_555 1_555
H41_2 C37_2 1_555 1_555
H42_2 C37_2 1_555 1_555
C38_2 N16_2 1_555 1_555
H43_2 C38_2 1_555 1_555
H44_2 C38_2 1_555 1_555
C19_3 C20_3 1_555 1_555
C34_2 C35_2 1_555 1_555
C37_2 C38_2 1_555 1_555
W3 C1 1_555 1_555
Ni2_3 N2 1_555 1_555
N1 C1 1_555 1_555
N2 C2 1_555 1_555
N3_3 Ni2_3 1_555 1_555
N5_3 C5_3 1_555 1_555
N6_3 C6_3 1_555 1_555
N7 C7 1_555 1_555
N8_4 C8_4 1_555 1_555
N13 Ni2_3 1_555 1_555
N14_3 Ni2_3 1_555 1_555
N15_3 Ni2_3 1_555 1_555
H2_3 N15_3 1_555 1_555
N16_3 Ni2_3 1_555 1_555
C2 W3 1_555 1_555
C39 N3_3 1_555 1_555
C5_3 W3 1_555 1_555
C6_3 W3 1_555 1_555
C7 W3 1_555 1_555
C8_4 W3 1_555 1_555
H11_3 C17_3 1_555 1_555
H12_3 C18_3 1_555 1_555
H13_3 C18_3 1_555 1_555
C19_4 C18_3 1_555 1_555
H14_4 C19_4 1_555 1_555
H15_4 C19_4 1_555 1_555
H16_4 C20_4 1_555 1_555
C24 N13 1_555 1_555
C25 C24 1_555 1_555
H24 C25 1_555 1_555
C26 C25 1_555 1_555
H25 C26 1_555 1_555
C27 C26 1_555 1_555
H26 C27 1_555 1_555
C28 N13 1_555 1_555
C29_3 N14_3 1_555 1_555
C30_3 C29_3 1_555 1_555
H27 C30_3 1_555 1_555
H28_4 C30_3 1_555 1_555
H29_3 C30_3 1_555 1_555
C31 N16_3 1_555 1_555
C32 C31 1_555 1_555
H30 C32 1_555 1_555
H31 C32 1_555 1_555
H32 C32 1_555 1_555
C33_3 N14_3 1_555 1_555
H33_3 C33_3 1_555 1_555
H34_3 C33_3 1_555 1_555
C34_3 C33_3 1_555 1_555
H35_3 C34_3 1_555 1_555
H36_3 C34_3 1_555 1_555
C35_3 N15_3 1_555 1_555
H37_3 C35_3 1_555 1_555
H38_3 C35_3 1_555 1_555
C36_3 N15_3 1_555 1_555
H39_3 C36_3 1_555 1_555
H40_3 C36_3 1_555 1_555
C37_3 C36_3 1_555 1_555
H41_3 C37_3 1_555 1_555
H42_3 C37_3 1_555 1_555
C38_3 N16_3 1_555 1_555
H43_3 C38_3 1_555 1_555
H44_3 C38_3 1_555 1_555
C19_4 C20_4 1_555 1_555
C24 C29_3 1_555 1_555
C27 C28 1_555 1_555
C28 C31 1_555 1_555
C34_3 C35_3 1_555 1_555
C37_3 C38_3 1_555 1_555
N1_2 C1_2 1_555 1_555
N2_2 C2_2 1_555 1_555
N7_2 C7_2 1_555 1_555
C15 C14 1_555 1_555
H7 C15 1_555 1_555
H8 C15 1_555 1_555
C24_2 N13_2 1_555 1_555
C25_2 C24_2 1_555 1_555
H24_2 C25_2 1_555 1_555
C26_2 C25_2 1_555 1_555
H25_2 C26_2 1_555 1_555
C27_2 C26_2 1_555 1_555
H26_2 C27_2 1_555 1_555
C28_2 N13_2 1_555 1_555
C32_2 C31_2 1_555 1_555
H30_2 C32_2 1_555 1_555
H31_2 C32_2 1_555 1_555
H32_2 C32_2 1_555 1_555
C27_2 C28_2 1_555 1_555
C28_2 C31_2 1_555 1_555
Ni1_3 N1_3 1_555 1_555
Ni2_4 N2_3 1_555 1_555
N1_3 C1_3 1_555 1_555
N2_3 C2_3 1_555 1_555
N3_4 Ni2_4 1_555 1_555
N5_4 C5_4 1_555 1_555
N7_3 C7_3 1_555 1_555
N9_3 Ni1_3 1_555 1_555
N10_3 Ni1_3 1_555 1_555
N13_3 Ni2_4 1_555 1_555
N14_4 Ni2_4 1_555 1_555
N15_4 Ni2_4 1_555 1_555
H2_4 N15_4 1_555 1_555
N16_4 Ni2_4 1_555 1_555
C3_2 N3_4 1_555 1_555
C9_3 N9_3 1_555 1_555
C10_3 C9_3 1_555 1_555
H3_3 C10_3 1_555 1_555
C11_3 C10_3 1_555 1_555
H4_3 C11_3 1_555 1_555
C12_3 C11_3 1_555 1_555
H5_3 C12_3 1_555 1_555
C13_3 N9_3 1_555 1_555
C15_2 C14_2 1_555 1_555
H7_2 C15_2 1_555 1_555
H8_2 C15_2 1_555 1_555
C16_3 N10_3 1_555 1_555
C17_4 C16_3 1_555 1_555
H9_3 C17_4 1_555 1_555
H10_3 C17_4 1_555 1_555
H11_4 C17_4 1_555 1_555
C18_4 N10_3 1_555 1_555
H12_4 C18_4 1_555 1_555
H13_4 C18_4 1_555 1_555
C24_3 N13_3 1_555 1_555
C25_3 C24_3 1_555 1_555
H24_3 C25_3 1_555 1_555
C26_3 C25_3 1_555 1_555
H25_3 C26_3 1_555 1_555
C27_3 C26_3 1_555 1_555
H26_3 C27_3 1_555 1_555
C28_3 N13_3 1_555 1_555
C29_4 N14_4 1_555 1_555
C30_4 C29_4 1_555 1_555
H27_3 C30_4 1_555 1_555
H29_4 C30_4 1_555 1_555
C31_3 N16_4 1_555 1_555
C32_3 C31_3 1_555 1_555
H30_3 C32_3 1_555 1_555
H31_3 C32_3 1_555 1_555
H32_3 C32_3 1_555 1_555
C33_4 N14_4 1_555 1_555
H33_4 C33_4 1_555 1_555
H34_4 C33_4 1_555 1_555
C34_4 C33_4 1_555 1_555
H35_4 C34_4 1_555 1_555
H36_4 C34_4 1_555 1_555
C35_4 N15_4 1_555 1_555
H37_4 C35_4 1_555 1_555
H38_4 C35_4 1_555 1_555
C36_4 N15_4 1_555 1_555
H39_4 C36_4 1_555 1_555
H40_4 C36_4 1_555 1_555
C37_4 C36_4 1_555 1_555
H41_4 C37_4 1_555 1_555
H42_4 C37_4 1_555 1_555
C38_4 N16_4 1_555 1_555
H43_4 C38_4 1_555 1_555
H44_4 C38_4 1_555 1_555
W3_2 C3_2 1_555 1_555
C9_3 C16_3 1_555 1_555
C12_3 C13_3 1_555 1_555
C13_3 C14_2 1_555 1_555
C24_3 C29_4 1_555 1_555
C27_3 C28_3 1_555 1_555
C28_3 C31_3 1_555 1_555
C34_4 C35_4 1_555 1_555
C37_4 C38_4 1_555 1_555
W3_2 C1_4 1_555 1_555
N1_4 C1_4 1_555 1_555
N2_4 C2_4 1_555 1_555
N6_4 C6_4 1_555 1_555
N7_4 C7_4 1_555 1_555
C2_4 W3_2 1_555 1_555
C6_4 W3_2 1_555 1_555
C7_4 W3_2 1_555 1_555
C24_4 N13_4 1_555 1_555
C25_4 C24_4 1_555 1_555
H24_4 C25_4 1_555 1_555
C26_4 C25_4 1_555 1_555
H25_4 C26_4 1_555 1_555
C27_4 C26_4 1_555 1_555
H26_4 C27_4 1_555 1_555
C28_4 N13_4 1_555 1_555
C32_4 C31_4 1_555 1_555
H30_4 C32_4 1_555 1_555
H31_4 C32_4 1_555 1_555
H32_4 C32_4 1_555 1_555
C40_2 W3_2 1_555 1_555
C27_4 C28_4 1_555 1_555
C28_4 C31_4 1_555 1_555
N4_4 Ni1_4 1_555 1_555
N9_4 Ni1_4 1_555 1_555
N10_4 Ni1_4 1_555 1_555
N11_4 Ni1_4 1_555 1_555
N12_3 Ni1_4 1_555 1_555
C40_2 N4_4 1_555 1_555
C9_4 N9_4 1_555 1_555
C10_4 C9_4 1_555 1_555
H3_4 C10_4 1_555 1_555
C11_4 C10_4 1_555 1_555
H4_4 C11_4 1_555 1_555
C12_4 C11_4 1_555 1_555
H5_4 C12_4 1_555 1_555
C13_4 N9_4 1_555 1_555
C14_3 N12_3 1_555 1_555
C15_3 C14_3 1_555 1_555
H6_3 C15_3 1_555 1_555
H7_3 C15_3 1_555 1_555
H8_3 C15_3 1_555 1_555
C16_4 N10_4 1_555 1_555
C21_3 N11_4 1_555 1_555
H18_3 C21_3 1_555 1_555
H19_4 C21_3 1_555 1_555
C22_3 C21_3 1_555 1_555
H20_3 C22_3 1_555 1_555
H21_3 C22_3 1_555 1_555
C23_3 N12_3 1_555 1_555
H22_3 C23_3 1_555 1_555
H23_3 C23_3 1_555 1_555
C9_4 C16_4 1_555 1_555
C12_4 C13_4 1_555 1_555
C13_4 C14_3 1_555 1_555
C22_3 C23_3 1_555 1_555
C14_4 N12_4 1_555 1_555
C15_4 C14_4 1_555 1_555
H6_4 C15_4 1_555 1_555
H7_4 C15_4 1_555 1_555
H8_4 C15_4 1_555 1_555
H18_4 C21_4 1_555 1_555
C22_4 C21_4 1_555 1_555
H20_4 C22_4 1_555 1_555
H21_4 C22_4 1_555 1_555
C23_4 N12_4 1_555 1_555
H22_4 C23_4 1_555 1_555
H23_4 C23_4 1_555 1_555
C22_4 C23_4 1_555 1_555

#END
