
###############################################################################
#
# This file contains modified crystal structure data generated from the
# MOF subset of the Cambridge Structural Database (CSD) v543 
# hosted by the Cambridge Crystallographic Data Centre (CCDC).
#
# This work is licensed under the Creative Commons
# Attribution-NonCommercial-ShareAlike 4.0 International License.
# To view a copy of this license, visit
# http://creativecommons.org/licenses/by-nc-sa/4.0/
# or send a letter to
# Creative Commons, PO Box 1866, Mountain View, CA 94042, USA.
#
# CIF created using the CSD Python API on 29 September 2022
# The structure has been converted into the P1 space group
# The structure has a 3D framework
# The original CSD entry KILPAZ is in the triclinic crystal system
# The framework has been calculated to contain at least 10.0% void space
# The void calculation uses a probe of radius 1.32A, grid spacing 0.4
# The framework is charged, counterions have been retained in the structure
#
###############################################################################

data_KILPAZ
_chemical_formula_moiety         '(C160 H116 Cd8 N40 O46)n'
_symmetry_cell_setting           triclinic
_symmetry_space_group_name_H-M   'P 1'
_symmetry_Int_Tables_number      1
_space_group_name_Hall           'P 1'
loop_
_symmetry_equiv_pos_site_id
_symmetry_equiv_pos_as_xyz
1 x,y,z
_cell_length_a                   15.6021(11)
_cell_length_b                   19.0255(13)
_cell_length_c                   20.8531(14)
_cell_angle_alpha                74.896(2)
_cell_angle_beta                 70.657(2)
_cell_angle_gamma                85.229(2)
_cell_volume                     5638.78
loop_
_atom_site_label
_atom_site_type_symbol
_atom_site_fract_x
_atom_site_fract_y
_atom_site_fract_z
Cd3 Cd 0.34034(3) 0.77525(3) 0.25269(3)
O10 O 0.4032(4) 0.6826(3) 0.3221(4)
H1 H 0.456523 0.671455 0.297381
H2 H 0.372311 0.642799 0.334680
N14 N 0.1993(4) 0.7509(4) 0.3330(3)
O14 O 0.3727(5) 0.8242(4) 0.3536(4)
N17 N 0.3399(5) 0.8818(4) 0.3321(4)
O16 O 0.3269(6) 0.9330(4) 0.3630(4)
O18 O 0.3147(5) 0.8939(4) 0.2780(4)
C32 C 0.1844(5) 0.6975(4) 0.3927(4)
H26 H 0.234200 0.673037 0.403093
C55 C 0.0993(5) 0.6780(4) 0.4387(4)
H40 H 0.092519 0.639897 0.478431
C66 C 0.0233(5) 0.7140(4) 0.4268(4)
C76 C 0.1268(6) 0.7867(6) 0.3224(5)
H54 H 0.135813 0.824898 0.282561
C78 C 0.0386(6) 0.7714(6) 0.3665(5)
O22 O 0.3255(4) 0.6717(3) 0.2085(3)
O23 O 0.2779(4) 0.8468(3) 0.1733(3)
N21 N 0.4918(4) 0.8041(3) 0.1928(3)
N8 N 0.1956(4) 0.7403(4) 0.0636(4)
C14 C 0.0948(5) 0.8209(4) 0.0143(4)
C27 C 0.1800(5) 0.7993(4) 0.0164(4)
C46 C 0.0348(6) 0.7182(5) 0.1095(5)
C51 C 0.0195(5) 0.7818(4) 0.0633(4)
C60 C 0.1229(6) 0.7014(5) 0.1078(5)
H43 H 0.132358 0.659954 0.139985
Cd12 Cd 0.34106(4) 0.71062(3) 0.06881(3)
O11 O 0.6447(5) 0.3628(4) 0.0127(4)
H3 H 0.698400 0.380021 0.007513
H4 H 0.627544 0.336364 0.056764
O15 O 0.6393(5) 0.1441(4) 0.1626(4)
O19 O 0.6081(5) 0.2064(7) 0.0620(4)
O20 O 0.6040(5) 0.2686(6) 0.1378(4)
N19 N 0.6172(7) 0.1993(6) 0.1219(5)
H51 H 0.667408 0.078547 0.025065
Cd6 Cd 0.65334(4) 0.21239(3) 0.24455(3)
N11 N 0.8245(4) 0.8724(3) 0.0325(3)
N12 N 0.9157(4) 0.8614(3) 0.0137(3)
C8 C 0.6798(5) 0.8208(4) 0.1263(4)
C9 C 0.7790(5) 0.8242(4) 0.0935(4)
C12 C 0.5274(5) 0.8255(4) 0.1234(4)
H11 H 0.488074 0.834898 0.097008
C13 C 0.8446(5) 0.7800(4) 0.1154(4)
H12 H 0.835774 0.742157 0.155527
C16 C 0.5505(5) 0.7930(4) 0.2303(4)
H14 H 0.526999 0.780177 0.278972
C25 C 0.6203(5) 0.8348(4) 0.0878(4)
H20 H 0.641917 0.850094 0.039155
C38 C 0.7362(5) 0.9840(4) 0.0344(5)
H30 H 0.720700 0.972072 0.083004
C44 C 0.9273(5) 0.8051(4) 0.0635(4)
H35 H 0.986874 0.687980 0.140495
C47 C 0.6424(5) 0.8000(5) 0.1996(4)
H36 H 0.680134 0.791000 0.227199
O1 O 0.7183(4) 0.3477(4) 0.3114(3)
O2 O 0.7160(4) 0.1074(3) 0.2888(3)
O7 O 0.6739(4) 0.1713(3) 0.3682(3)
O9 O 0.6359(4) 0.3270(3) 0.2488(3)
N9 N 0.4953(4) 0.6915(4) 0.0521(4)
N10 N 0.8262(4) 0.6228(3) 0.0488(3)
N16 N 0.9180(4) 0.6319(3) 0.0215(3)
C5 C 0.6829(5) 0.6764(4) 0.0267(4)
C19 C 0.7354(5) 0.5126(4) 0.0938(5)
H17 H 0.720580 0.523506 0.052626
C20 C 0.7091(5) 0.1186(5) 0.3469(4)
C21 C 0.7917(5) 0.5592(4) 0.1037(4)
C26 C 0.6216(5) 0.6575(4) 0.0935(4)
H21 H 0.642582 0.639138 0.131515
C28 C 0.5293(5) 0.6655(4) 0.1048(4)
H23 H 0.489519 0.652419 0.150444
C34 C 0.7016(5) 0.4501(4) 0.1455(5)
H28 H 0.662266 0.419572 0.140137
C39 C 0.7819(5) 0.6708(4) 0.0102(4)
C53 C 0.6917(5) 0.3630(5) 0.2599(5)
C54 C 0.7425(5) 0.0549(4) 0.3967(4)
C56 C 0.7270(5) 0.4340(4) 0.2047(5)
C61 C 0.7183(6) 0.0504(4) 0.4669(5)
H44 H 0.682447 0.086616 0.485088
C70 C 0.8168(6) 0.5441(5) 0.1634(5)
H49 H 0.854136 0.575647 0.169573
C71 C 0.7840(6) 0.4799(5) 0.2141(5)
H50 H 0.800516 0.467741 0.254641
C79 C 0.7975(6) 0.0026(5) 0.3687(5)
H57 H 0.814804 0.006464 0.320707
Cd5 Cd 0.65513(3) 0.27473(3) 0.42211(3)
N20 N 0.5002(4) 0.1886(3) 0.3073(3)
N24 N 0.7999(4) 0.2474(4) 0.1684(4)
N5 N 0.0758(4) 0.1312(3) 0.4887(3)
N13 N 0.1665(4) 0.1214(3) 0.4720(3)
C4 C 0.3126(5) 0.1714(4) 0.3767(4)
C6 C 0.2132(5) 0.1669(4) 0.4090(4)
C10 C 0.1475(5) 0.2079(4) 0.3842(4)
H9 H 0.156864 0.243703 0.342533
C11 C 0.4660(5) 0.1632(4) 0.3771(4)
H10 H 0.506376 0.150556 0.402427
C23 C 0.3741(5) 0.1547(4) 0.4135(4)
H18 H 0.353789 0.137867 0.462109
C37 C 0.0647(5) 0.1837(4) 0.4351(4)
C45 C 0.3469(5) 0.1971(5) 0.3042(5)
H34 H 0.307889 0.208901 0.277574
C50 C 0.4394(5) 0.2047(5) 0.2722(4)
H39 H 0.461226 0.222003 0.223718
C57 C 0.1988(5) 0.0616(4) 0.5162(4)
H41 H 0.007427 0.273333 0.336374
C59 C 0.2529(5) 0.0088(4) 0.4877(5)
H42 H 0.269968 0.011986 0.439883
C77 C 0.1726(6) 0.0561(5) 0.5880(5)
H55 H 0.135370 0.091314 0.606928
N1 N 0.5034(4) 0.3073(3) 0.4367(3)
O3 O 0.6269(5) 0.3248(4) 0.5382(4)
O6 O 0.2823(4) 0.6082(4) 0.1488(3)
O8 O 0.3557(4) 0.8249(3) 0.0700(3)
N4 N 0.1701(4) 0.3735(3) 0.4413(3)
N6 N 0.0791(4) 0.3625(3) 0.4690(3)
N7 N 0.7971(4) 0.2445(3) 0.4303(3)
O12 O 0.5922(4) 0.1813(4) 0.5229(4)
H5 H 0.587874 0.194374 0.561450
H6 H 0.535067 0.173158 0.528107
O13 O 0.6891(5) 0.3897(4) 0.4347(4)
C1 C 0.4683(5) 0.3296(4) 0.3844(4)
H7 H 0.507536 0.339459 0.338428
C2 C 0.3153(5) 0.3255(4) 0.4636(4)
N18 N 0.6650(6) 0.3812(5) 0.5004(4)
C3 C 0.2159(5) 0.3290(4) 0.4809(3)
O17 O 0.6807(6) 0.4299(4) 0.5256(4)
C7 C 0.4456(5) 0.2962(4) 0.5028(4)
H8 H 0.469579 0.282486 0.539547
C15 C 0.2011(5) 0.4352(4) 0.3831(4)
C17 C 0.3755(5) 0.3388(4) 0.3957(4)
H15 H 0.353795 0.353723 0.357734
C18 C 0.8969(5) 0.1782(4) 0.4903(4)
H16 H 0.903525 0.145946 0.530401
C22 C 0.9734(5) 0.2061(4) 0.4336(4)
C24 C 0.1512(5) 0.2856(4) 0.5371(4)
H19 H 0.161131 0.248940 0.573266
C30 C 0.3526(5) 0.3040(4) 0.5189(4)
H25 H 0.315199 0.295304 0.565389
C31 C 0.2559(5) 0.5542(5) 0.2701(4)
C33 C 0.8111(5) 0.1986(4) 0.4867(4)
H27 H 0.760943 0.179752 0.525140
C36 C 0.2900(5) 0.6172(5) 0.2046(4)
C40 C 0.2829(6) 0.5477(4) 0.3285(5)
H31 H 0.319105 0.583613 0.329453
C42 C 0.2555(5) 0.4869(4) 0.3866(4)
H32 H 0.273528 0.481831 0.425810
C49 C 0.8711(5) 0.2708(5) 0.3763(4)
H38 H 0.862769 0.302891 0.336775
C52 C 0.3034(6) 0.8610(5) 0.1091(5)
C58 C 0.9586(6) 0.2535(5) 0.3755(5)
C63 C 0.2707(5) 0.9338(4) 0.0724(5)
C64 C 0.2013(6) 0.5027(5) 0.2686(4)
H46 H 0.182897 0.507853 0.229544
C65 C 0.0682(5) 0.3087(4) 0.5275(4)
C68 C 0.1731(6) 0.4429(5) 0.3250(4)
H47 H 0.135505 0.407972 0.323937
C72 C 0.2950(5) 0.9521(4) 0.0004(5)
C75 C 0.2149(6) 0.9802(5) 0.1108(5)
H53 H 0.197877 0.967134 0.159540
H56 H 0.009674 0.201387 0.643815
C35 C 0.8156(5) 0.2978(4) 0.1066(4)
H29 H 0.766164 0.318456 0.093018
C43 C 0.9013(5) 0.3199(4) 0.0633(4)
H33 H 0.908374 0.356017 0.022064
C73 C 0.9767(5) 0.2897(4) 0.0793(4)
C74 C 0.8719(6) 0.2212(6) 0.1869(6)
H52 H 0.862635 0.188457 0.230361
C80 C 0.9610(6) 0.2401(6) 0.1447(6)
H13 H 0.087400 0.861524 0.980400
H22 H 0.229505 0.826536 0.983658
N15 N 0.2001(4) 0.7526(4) 0.8316(4)
C35_2 C 0.1844(5) 0.7022(4) 0.8934(4)
H29_2 H 0.233836 0.681544 0.906982
C43_2 C 0.0987(5) 0.6801(4) 0.9367(4)
H33_2 H 0.091626 0.643983 0.977936
C73_2 C 0.0233(5) 0.7103(4) 0.9207(4)
C74_2 C 0.1281(6) 0.7788(6) 0.8131(6)
H52_2 H 0.137365 0.811543 0.769639
C80_2 C 0.0390(6) 0.7599(6) 0.8553(6)
Cd8 Cd 0.34666(4) 0.78761(3) 0.75545(3)
Cd1 Cd 0.34487(3) 0.72527(3) 0.57789(3)
Cd4 Cd 0.65894(4) 0.28938(3) 0.93119(3)
N1_2 N 0.4966(4) 0.6927(3) 0.5633(3)
O3_2 O 0.3731(5) 0.6752(4) 0.4618(4)
O4 O 0.6745(4) 0.3283(3) 0.7915(3)
O5 O 0.7221(4) 0.1532(3) 0.8267(3)
O6_2 O 0.7177(4) 0.3918(4) 0.8512(3)
O8_2 O 0.6443(4) 0.1751(3) 0.9300(3)
N4_2 N 0.8299(4) 0.6265(3) 0.5587(3)
N6_2 N 0.9209(4) 0.6375(3) 0.5310(3)
N7_2 N 0.2029(4) 0.7555(3) 0.5697(3)
O12_2 O 0.4078(4) 0.8187(4) 0.4771(4)
H5_2 H 0.412126 0.805626 0.438550
H6_2 H 0.464933 0.826842 0.471893
O13_2 O 0.3109(5) 0.6103(4) 0.5653(4)
C1_2 C 0.5317(5) 0.6704(4) 0.6156(4)
H7_2 H 0.492464 0.660541 0.661572
C2_2 C 0.6847(5) 0.6745(4) 0.5364(4)
N18_2 N 0.3350(6) 0.6188(5) 0.4996(4)
C3_2 C 0.7841(5) 0.6710(4) 0.5191(3)
O17_2 O 0.3193(6) 0.5701(4) 0.4744(4)
C7_2 C 0.5544(5) 0.7038(4) 0.4972(4)
H8_2 H 0.530421 0.717514 0.460453
C15_2 C 0.7989(5) 0.5648(4) 0.6169(4)
C17_2 C 0.6245(5) 0.6612(4) 0.6043(4)
H15_2 H 0.646205 0.646277 0.642266
C18_2 C 0.1031(5) 0.8218(4) 0.5097(4)
H16_2 H 0.096475 0.854054 0.469599
C22_2 C 0.0266(5) 0.7939(4) 0.5664(4)
C24_2 C 0.8488(5) 0.7144(4) 0.4629(4)
H19_2 H 0.838869 0.751060 0.426734
C30_2 C 0.6474(5) 0.6960(4) 0.4811(4)
H25_2 H 0.684801 0.704696 0.434611
C31_2 C 0.7441(5) 0.4458(5) 0.7299(4)
C33_2 C 0.1889(5) 0.8014(4) 0.5133(4)
H27_2 H 0.239057 0.820248 0.474860
C36_2 C 0.7100(5) 0.3828(5) 0.7954(4)
C40_2 C 0.7171(6) 0.4523(4) 0.6715(5)
H31_2 H 0.680895 0.416387 0.670547
C42_2 C 0.7445(5) 0.5131(4) 0.6134(4)
H32_2 H 0.726472 0.518169 0.574190
C49_2 C 0.1289(5) 0.7292(5) 0.6237(4)
H38_2 H 0.137231 0.697109 0.663225
C52_2 C 0.6966(6) 0.1390(5) 0.8909(5)
C58_2 C 0.0414(6) 0.7465(5) 0.6245(5)
C63_2 C 0.7293(5) 0.0662(4) 0.9276(5)
C64_2 C 0.7987(6) 0.4973(5) 0.7314(4)
H46_2 H 0.817103 0.492147 0.770456
C65_2 C 0.9318(5) 0.6913(4) 0.4725(4)
C68_2 C 0.8269(6) 0.5571(5) 0.6750(4)
H47_2 H 0.864495 0.592028 0.676063
C72_2 C 0.7050(5) 0.0479(4) 0.9996(5)
C75_2 C 0.7851(6) 0.0198(5) 0.8892(5)
H53_2 H 0.802123 0.032866 0.840460
H56_2 H 0.990326 0.798613 0.356185
Cd10 Cd 0.65966(3) 0.22475(3) 0.74731(3)
O21 O 0.2817(4) 0.6523(4) 0.6886(3)
O24 O 0.3261(4) 0.8287(3) 0.6318(3)
N22 N 0.8044(4) 0.2597(4) 0.9364(4)
N23 N 0.5047(4) 0.3085(4) 0.9479(4)
N2 N 0.4998(4) 0.8114(3) 0.6927(3)
N5_2 N 0.9242(4) 0.8688(3) 0.5113(3)
N13_2 N 0.8335(4) 0.8786(3) 0.5280(3)
C4_2 C 0.6874(5) 0.8286(4) 0.6233(4)
C6_2 C 0.7868(5) 0.8331(4) 0.5910(4)
C10_2 C 0.8525(5) 0.7921(4) 0.6158(4)
H9_2 H 0.843136 0.756297 0.657467
C11_2 C 0.5340(5) 0.8368(4) 0.6229(4)
H10_2 H 0.493624 0.849444 0.597573
C23_2 C 0.6259(5) 0.8453(4) 0.5865(4)
H18_2 H 0.646211 0.862133 0.537891
C37_2 C 0.9353(5) 0.8163(4) 0.5649(4)
C45_2 C 0.6531(5) 0.8029(5) 0.6958(5)
H34_2 H 0.692111 0.791099 0.722426
C50_2 C 0.5606(5) 0.7953(5) 0.7278(4)
H39_2 H 0.538774 0.777997 0.776282
C57_2 C 0.8012(5) 0.9384(4) 0.4838(4)
H41_2 H 0.992573 0.726667 0.663626
C59_2 C 0.7471(5) 0.9912(4) 0.5123(5)
H42_2 H 0.730032 0.988014 0.560117
C77_2 C 0.8274(6) 0.9439(5) 0.4120(5)
H55_2 H 0.864630 0.908686 0.393072
O2_2 O 0.2840(4) 0.8926(3) 0.7112(3)
O9_2 O 0.3641(4) 0.6730(3) 0.7512(3)
N10_2 N 0.1738(4) 0.3772(3) 0.9512(3)
N16_2 N 0.0820(4) 0.3681(3) 0.9785(3)
C5_2 C 0.3171(5) 0.3236(4) 0.9733(4)
C19_2 C 0.2646(5) 0.4874(4) 0.9062(5)
H17_2 H 0.279420 0.476494 0.947374
C20_2 C 0.2909(5) 0.8814(5) 0.6531(4)
C21_2 C 0.2083(5) 0.4408(4) 0.8963(4)
C26_2 C 0.3784(5) 0.3425(4) 0.9065(4)
H21_2 H 0.357418 0.360862 0.868485
C28_2 C 0.4707(5) 0.3345(4) 0.8952(4)
H23_2 H 0.510481 0.347581 0.849556
C34_2 C 0.2984(5) 0.5499(4) 0.8545(5)
H28_2 H 0.337734 0.580428 0.859863
C39_2 C 0.2181(5) 0.3292(4) 0.9898(4)
C53_2 C 0.3083(5) 0.6370(5) 0.7401(5)
C54_2 C 0.2575(5) 0.9451(4) 0.6033(4)
C56_2 C 0.2730(5) 0.5660(4) 0.7953(5)
C61_2 C 0.2817(6) 0.9496(4) 0.5331(5)
H44_2 H 0.317553 0.913384 0.514912
C70_2 C 0.1832(6) 0.4559(5) 0.8366(5)
H49_2 H 0.145864 0.424353 0.830427
C71_2 C 0.2160(6) 0.5201(5) 0.7859(5)
H50_2 H 0.199484 0.532259 0.745359
C79_2 C 0.2025(6) 0.9974(5) 0.6313(5)
H57_2 H 0.185196 0.993536 0.679293
O25 O 0.3607(5) 0.8559(4) 0.8374(4)
O26 O 0.3960(5) 0.7314(6) 0.8622(4)
N3 N 0.5082(4) 0.1959(3) 0.8072(3)
N11_2 N 0.1755(4) 0.1276(3) 0.9675(3)
N12_2 N 0.0843(4) 0.1386(3) 0.9863(3)
C8_2 C 0.3202(5) 0.1792(4) 0.8737(4)
C9_2 C 0.2210(5) 0.1758(4) 0.9065(4)
C12_2 C 0.4726(5) 0.1745(4) 0.8766(4)
H11_2 H 0.511926 0.165102 0.902992
C13_2 C 0.1554(5) 0.2200(4) 0.8846(4)
H12_2 H 0.164226 0.257843 0.844473
C16_2 C 0.4495(5) 0.2070(4) 0.7697(4)
H14_2 H 0.473001 0.219823 0.721028
C25_2 C 0.3797(5) 0.1652(4) 0.9122(4)
H20_2 H 0.358083 0.149906 0.960845
C38_2 C 0.2638(5) 0.0160(4) 0.9656(5)
H30_2 H 0.279300 0.027928 0.916996
C44_2 C 0.0727(5) 0.1949(4) 0.9365(4)
H35_2 H 0.013126 0.312020 0.859505
C47_2 C 0.3576(5) 0.2000(5) 0.8004(4)
H36_2 H 0.319866 0.209000 0.772801
O11_2 O 0.3553(5) 0.6372(4) 0.9873(4)
H3_2 H 0.301600 0.619979 0.992487
H4_2 H 0.372456 0.663636 0.943236
O19_2 O 0.3919(5) 0.7936(7) 0.9380(4)
N19_2 N 0.3828(7) 0.8007(6) 0.8781(5)
H51_2 H 0.332592 0.921453 0.974935
C14_2 C 0.9052(5) 0.1791(4) 0.9857(4)
C27_2 C 0.8200(5) 0.2007(4) 0.9836(4)
C46_2 C 0.9652(6) 0.2818(5) 0.8905(5)
C51_2 C 0.9805(5) 0.2182(4) 0.9367(4)
C60_2 C 0.8771(6) 0.2986(5) 0.8922(5)
H43_2 H 0.867642 0.340046 0.860015
O10_2 O 0.5968(4) 0.3174(3) 0.6779(4)
H1_2 H 0.543477 0.328545 0.702619
H2_2 H 0.627689 0.357201 0.665320
N14_2 N 0.8007(4) 0.2491(4) 0.6670(3)
O14_2 O 0.6273(5) 0.1758(4) 0.6464(4)
N17_2 N 0.6601(5) 0.1182(4) 0.6679(4)
O16_2 O 0.6731(6) 0.0670(4) 0.6370(4)
O18_2 O 0.6853(5) 0.1061(4) 0.7220(4)
C32_2 C 0.8156(5) 0.3025(4) 0.6073(4)
H26_2 H 0.765800 0.326963 0.596907
C55_2 C 0.9007(5) 0.3220(4) 0.5613(4)
H40_2 H 0.907481 0.360103 0.521569
C66_2 C 0.9767(5) 0.2860(4) 0.5732(4)
C76_2 C 0.8732(6) 0.2133(6) 0.6776(5)
H54_2 H 0.864187 0.175102 0.717439
C78_2 C 0.9614(6) 0.2286(6) 0.6335(5)
C41 C 0.7913(5) 0.9375(4) 0.9956(4)
C69 C 0.8158(5) 0.9538(5) 0.9233(5)
H48 H 0.851525 0.922142 0.898098
C29 C 0.6464(5) 0.7031(4) 0.9719(4)
H24 H 0.684675 0.716185 0.925666
C48 C 0.8489(5) 0.7137(4) 0.9549(4)
H37 H 0.840572 0.752084 0.919404
C62 C 0.5536(6) 0.7099(5) 0.9868(4)
H45 H 0.530637 0.728057 0.949908
C67 C 0.9309(5) 0.6868(4) 0.9642(4)
H58 H 0.990559 0.780042 0.840207
C29_2 C 0.3536(5) 0.2969(4) 0.0281(4)
H24_2 H 0.315325 0.283815 0.074334
C48_2 C 0.1511(5) 0.2863(4) 0.0451(4)
H37_2 H 0.159428 0.247916 0.080596
C62_2 C 0.4464(6) 0.2901(5) 0.0132(4)
H45_2 H 0.469363 0.271943 0.050092
C67_2 C 0.0691(5) 0.3132(4) 0.0358(4)
H58_2 H 0.009441 0.219958 0.159793
C41_2 C 0.2087(5) 0.0625(4) 0.0044(4)
C69_2 C 0.1842(5) 0.0462(5) 0.0767(5)
H48_2 H 0.148475 0.077858 0.101902
H13_2 H 0.912600 0.138476 0.019600
H22_2 H 0.770495 0.173464 0.016342
O27 O 0.2413(7) 0.2559(6) 0.6931(5)
O28 O 0.1598(7) 0.1778(6) 0.6853(5)
N25 N 0.1660(8) 0.2353(7) 0.7080(5)
O29 O 0.0919(9) 0.2548(7) 0.7421(7)
O27_2 O 0.7587(7) 0.7441(6) 0.3069(5)
O28_2 O 0.8402(7) 0.8222(6) 0.3147(5)
N25_2 N 0.8340(8) 0.7647(7) 0.2920(5)
O29_2 O 0.9081(9) 0.7452(7) 0.2579(7)
loop_
_geom_bond_atom_site_label_1
_geom_bond_atom_site_label_2
_geom_bond_site_symmetry_1
_geom_bond_site_symmetry_2
Cd3 O10 1_555 1_555
O10 H1 1_555 1_555
H2 O10 1_555 1_555
N14 Cd3 1_555 1_555
O14 Cd3 1_555 1_555
N17 O14 1_555 1_555
O16 N17 1_555 1_555
O18 Cd3 1_555 1_555
C32 N14 1_555 1_555
H26 C32 1_555 1_555
C55 C32 1_555 1_555
H40 C55 1_555 1_555
C66 C55 1_555 1_555
C76 N14 1_555 1_555
H54 C76 1_555 1_555
C78 C66 1_555 1_555
O22 Cd3 1_555 1_555
O23 Cd3 1_555 1_555
N21 Cd3 1_555 1_555
N17 O18 1_555 1_555
C76 C78 1_555 1_555
N8 C27 1_555 1_555
C27 C14 1_555 1_555
C51 C14 1_555 1_555
C60 N8 1_555 1_555
H43 C60 1_555 1_555
Cd12 N8 1_555 1_555
C46 C51 1_555 1_555
C46 C60 1_555 1_555
H3 O11 1_555 1_555
H4 O11 1_555 1_555
O15 N19 1_555 1_555
O20 N19 1_555 1_555
N19 O19 1_555 1_555
Cd6 O15 1_555 1_555
O20 Cd6 1_555 1_555
N21 C12 1_555 1_555
N11 N12 1_555 1_555
N12 C44 1_555 1_555
C8 C9 1_555 1_555
C9 N11 1_555 1_555
C12 H11 1_555 1_555
C13 C9 1_555 1_555
H12 C13 1_555 1_555
C16 N21 1_555 1_555
H14 C16 1_555 1_555
C25 C8 1_555 1_555
H20 C25 1_555 1_555
C38 H30 1_555 1_555
C44 C13 1_555 1_555
C47 C8 1_555 1_555
H36 C47 1_555 1_555
C12 C25 1_555 1_555
C16 C47 1_555 1_555
Cd6 O2 1_555 1_555
O1 C53 1_555 1_555
O2 C20 1_555 1_555
O7 Cd6 1_555 1_555
O9 Cd6 1_555 1_555
N9 C28 1_555 1_555
N10 N16 1_555 1_555
C5 C26 1_555 1_555
C19 H17 1_555 1_555
C20 O7 1_555 1_555
C21 N10 1_555 1_555
C26 H21 1_555 1_555
C28 C26 1_555 1_555
H23 C28 1_555 1_555
C34 C19 1_555 1_555
H28 C34 1_555 1_555
C39 N10 1_555 1_555
C53 O9 1_555 1_555
C54 C20 1_555 1_555
C56 C34 1_555 1_555
C61 C54 1_555 1_555
H44 C61 1_555 1_555
C70 C21 1_555 1_555
H49 C70 1_555 1_555
C71 C56 1_555 1_555
H50 C71 1_555 1_555
C79 C54 1_555 1_555
H57 C79 1_555 1_555
Cd5 O1 1_555 1_555
Cd12 N9 1_555 1_555
N20 Cd6 1_555 1_555
N24 Cd6 1_555 1_555
O7 Cd5 1_555 1_555
C5 C39 1_555 1_555
C19 C21 1_555 1_555
C53 C56 1_555 1_555
C70 C71 1_555 1_555
N20 C11 1_555 1_555
N5 N13 1_555 1_555
N13 C6 1_555 1_555
C4 C6 1_555 1_555
C6 C10 1_555 1_555
C10 H9 1_555 1_555
C11 H10 1_555 1_555
C23 C4 1_555 1_555
H18 C23 1_555 1_555
C37 N5 1_555 1_555
C45 C4 1_555 1_555
H34 C45 1_555 1_555
C50 N20 1_555 1_555
H39 C50 1_555 1_555
C57 N13 1_555 1_555
C59 C57 1_555 1_555
H42 C59 1_555 1_555
C77 C57 1_555 1_555
H55 C77 1_555 1_555
C10 C37 1_555 1_555
C11 C23 1_555 1_555
C45 C50 1_555 1_555
Cd5 N1 1_555 1_555
Cd12 O22 1_555 1_555
N1 C1 1_555 1_555
O3 Cd5 1_555 1_555
O22 C36 1_555 1_555
O23 C52 1_555 1_555
O6 Cd12 1_555 1_555
O8 Cd12 1_555 1_555
N4 N6 1_555 1_555
N6 C65 1_555 1_555
N7 Cd5 1_555 1_555
O12 Cd5 1_555 1_555
H5 O12 1_555 1_555
H6 O12 1_555 1_555
O13 Cd5 1_555 1_555
C1 H7 1_555 1_555
C2 C3 1_555 1_555
N18 O3 1_555 1_555
C3 N4 1_555 1_555
O17 N18 1_555 1_555
C7 N1 1_555 1_555
H8 C7 1_555 1_555
C15 N4 1_555 1_555
C17 C1 1_555 1_555
H15 C17 1_555 1_555
C18 H16 1_555 1_555
C22 C18 1_555 1_555
C24 C3 1_555 1_555
H19 C24 1_555 1_555
C30 C2 1_555 1_555
H25 C30 1_555 1_555
C31 C36 1_555 1_555
C33 N7 1_555 1_555
H27 C33 1_555 1_555
C36 O6 1_555 1_555
C40 C31 1_555 1_555
H31 C40 1_555 1_555
C42 C15 1_555 1_555
H32 C42 1_555 1_555
C49 N7 1_555 1_555
H38 C49 1_555 1_555
C52 O8 1_555 1_555
C58 C22 1_555 1_555
C63 C52 1_555 1_555
C64 C31 1_555 1_555
H46 C64 1_555 1_555
C65 C24 1_555 1_555
C68 C15 1_555 1_555
H47 C68 1_555 1_555
C75 C63 1_555 1_555
H53 C75 1_555 1_555
O13 N18 1_555 1_555
C2 C17 1_555 1_555
C7 C30 1_555 1_555
C18 C33 1_555 1_555
C40 C42 1_555 1_555
C49 C58 1_555 1_555
C63 C72 1_555 1_555
C64 C68 1_555 1_555
N24 C35 1_555 1_555
C35 H29 1_555 1_555
C43 C35 1_555 1_555
H33 C43 1_555 1_555
C73 C43 1_555 1_555
C74 N24 1_555 1_555
H52 C74 1_555 1_555
C80 C73 1_555 1_555
C74 C80 1_555 1_555
N15 C35_2 1_555 1_555
C35_2 H29_2 1_555 1_555
C43_2 C35_2 1_555 1_555
H33_2 C43_2 1_555 1_555
C73_2 C43_2 1_555 1_555
C74_2 N15 1_555 1_555
H52_2 C74_2 1_555 1_555
C80_2 C73_2 1_555 1_555
Cd8 N15 1_555 1_555
C74_2 C80_2 1_555 1_555
Cd1 N1_2 1_555 1_555
Cd4 O4 1_555 1_555
N1_2 C1_2 1_555 1_555
O3_2 Cd1 1_555 1_555
O4 C36_2 1_555 1_555
O5 C52_2 1_555 1_555
O6_2 Cd4 1_555 1_555
O8_2 Cd4 1_555 1_555
N4_2 N6_2 1_555 1_555
N6_2 C65_2 1_555 1_555
N7_2 Cd1 1_555 1_555
O12_2 Cd1 1_555 1_555
H5_2 O12_2 1_555 1_555
H6_2 O12_2 1_555 1_555
O13_2 Cd1 1_555 1_555
C1_2 H7_2 1_555 1_555
C2_2 C3_2 1_555 1_555
N18_2 O3_2 1_555 1_555
C3_2 N4_2 1_555 1_555
O17_2 N18_2 1_555 1_555
C7_2 N1_2 1_555 1_555
H8_2 C7_2 1_555 1_555
C15_2 N4_2 1_555 1_555
C17_2 C1_2 1_555 1_555
H15_2 C17_2 1_555 1_555
C18_2 H16_2 1_555 1_555
C22_2 C18_2 1_555 1_555
C24_2 C3_2 1_555 1_555
H19_2 C24_2 1_555 1_555
C30_2 C2_2 1_555 1_555
H25_2 C30_2 1_555 1_555
C31_2 C36_2 1_555 1_555
C33_2 N7_2 1_555 1_555
H27_2 C33_2 1_555 1_555
C36_2 O6_2 1_555 1_555
C40_2 C31_2 1_555 1_555
H31_2 C40_2 1_555 1_555
C42_2 C15_2 1_555 1_555
H32_2 C42_2 1_555 1_555
C49_2 N7_2 1_555 1_555
H38_2 C49_2 1_555 1_555
C52_2 O8_2 1_555 1_555
C58_2 C22_2 1_555 1_555
C63_2 C52_2 1_555 1_555
C64_2 C31_2 1_555 1_555
H46_2 C64_2 1_555 1_555
C65_2 C24_2 1_555 1_555
C68_2 C15_2 1_555 1_555
H47_2 C68_2 1_555 1_555
C75_2 C63_2 1_555 1_555
H53_2 C75_2 1_555 1_555
Cd10 O4 1_555 1_555
O21 Cd1 1_555 1_555
O24 Cd1 1_555 1_555
N22 Cd4 1_555 1_555
N23 Cd4 1_555 1_555
O5 Cd10 1_555 1_555
O13_2 N18_2 1_555 1_555
C2_2 C17_2 1_555 1_555
C7_2 C30_2 1_555 1_555
C18_2 C33_2 1_555 1_555
C40_2 C42_2 1_555 1_555
C49_2 C58_2 1_555 1_555
C63_2 C72_2 1_555 1_555
C64_2 C68_2 1_555 1_555
N2 C11_2 1_555 1_555
N5_2 N13_2 1_555 1_555
N13_2 C6_2 1_555 1_555
C4_2 C6_2 1_555 1_555
C6_2 C10_2 1_555 1_555
C10_2 H9_2 1_555 1_555
C11_2 H10_2 1_555 1_555
C23_2 C4_2 1_555 1_555
H18_2 C23_2 1_555 1_555
C37_2 N5_2 1_555 1_555
C45_2 C4_2 1_555 1_555
H34_2 C45_2 1_555 1_555
C50_2 N2 1_555 1_555
H39_2 C50_2 1_555 1_555
C57_2 N13_2 1_555 1_555
C59_2 C57_2 1_555 1_555
H42_2 C59_2 1_555 1_555
C77_2 C57_2 1_555 1_555
H55_2 C77_2 1_555 1_555
Cd8 N2 1_555 1_555
C10_2 C37_2 1_555 1_555
C11_2 C23_2 1_555 1_555
C45_2 C50_2 1_555 1_555
Cd8 O2_2 1_555 1_555
O21 C53_2 1_555 1_555
O2_2 C20_2 1_555 1_555
O24 Cd8 1_555 1_555
O9_2 Cd8 1_555 1_555
N23 C28_2 1_555 1_555
N10_2 N16_2 1_555 1_555
C5_2 C26_2 1_555 1_555
C19_2 H17_2 1_555 1_555
C20_2 O24 1_555 1_555
C21_2 N10_2 1_555 1_555
C26_2 H21_2 1_555 1_555
C28_2 C26_2 1_555 1_555
H23_2 C28_2 1_555 1_555
C34_2 C19_2 1_555 1_555
H28_2 C34_2 1_555 1_555
C39_2 N10_2 1_555 1_555
C53_2 O9_2 1_555 1_555
C54_2 C20_2 1_555 1_555
C56_2 C34_2 1_555 1_555
C61_2 C54_2 1_555 1_555
H44_2 C61_2 1_555 1_555
C70_2 C21_2 1_555 1_555
H49_2 C70_2 1_555 1_555
C71_2 C56_2 1_555 1_555
H50_2 C71_2 1_555 1_555
C79_2 C54_2 1_555 1_555
H57_2 C79_2 1_555 1_555
O25 Cd8 1_555 1_555
O26 Cd8 1_555 1_555
C5_2 C39_2 1_555 1_555
C19_2 C21_2 1_555 1_555
C53_2 C56_2 1_555 1_555
C70_2 C71_2 1_555 1_555
N3 C12_2 1_555 1_555
N11_2 N12_2 1_555 1_555
N12_2 C44_2 1_555 1_555
C8_2 C9_2 1_555 1_555
C9_2 N11_2 1_555 1_555
C12_2 H11_2 1_555 1_555
C13_2 C9_2 1_555 1_555
H12_2 C13_2 1_555 1_555
C16_2 N3 1_555 1_555
H14_2 C16_2 1_555 1_555
C25_2 C8_2 1_555 1_555
H20_2 C25_2 1_555 1_555
C38_2 H30_2 1_555 1_555
C44_2 C13_2 1_555 1_555
C47_2 C8_2 1_555 1_555
H36_2 C47_2 1_555 1_555
Cd10 N3 1_555 1_555
C12_2 C25_2 1_555 1_555
C16_2 C47_2 1_555 1_555
H3_2 O11_2 1_555 1_555
H4_2 O11_2 1_555 1_555
O25 N19_2 1_555 1_555
O26 N19_2 1_555 1_555
N19_2 O19_2 1_555 1_555
N22 C27_2 1_555 1_555
C27_2 C14_2 1_555 1_555
C51_2 C14_2 1_555 1_555
C60_2 N22 1_555 1_555
H43_2 C60_2 1_555 1_555
C46_2 C51_2 1_555 1_555
C46_2 C60_2 1_555 1_555
Cd10 O10_2 1_555 1_555
O10_2 H1_2 1_555 1_555
H2_2 O10_2 1_555 1_555
N14_2 Cd10 1_555 1_555
O14_2 Cd10 1_555 1_555
N17_2 O14_2 1_555 1_555
O16_2 N17_2 1_555 1_555
O18_2 Cd10 1_555 1_555
C32_2 N14_2 1_555 1_555
H26_2 C32_2 1_555 1_555
C55_2 C32_2 1_555 1_555
H40_2 C55_2 1_555 1_555
C66_2 C55_2 1_555 1_555
C76_2 N14_2 1_555 1_555
H54_2 C76_2 1_555 1_555
C78_2 C66_2 1_555 1_555
N17_2 O18_2 1_555 1_555
C76_2 C78_2 1_555 1_555
C69 C41 1_555 1_555
H48 C69 1_555 1_555
H24 C29 1_555 1_555
H37 C48 1_555 1_555
H45 C62 1_555 1_555
C67 C48 1_555 1_555
C29 C62 1_555 1_555
H24_2 C29_2 1_555 1_555
H37_2 C48_2 1_555 1_555
H45_2 C62_2 1_555 1_555
C67_2 C48_2 1_555 1_555
C29_2 C62_2 1_555 1_555
C69_2 C41_2 1_555 1_555
H48_2 C69_2 1_555 1_555
O27 N25 1_555 1_555
O28 N25 1_555 1_555
N25 O29 1_555 1_555
O27_2 N25_2 1_555 1_555
O28_2 N25_2 1_555 1_555
N25_2 O29_2 1_555 1_555

#END
