
###############################################################################
#
# This file contains modified crystal structure data generated from the
# MOF subset of the Cambridge Structural Database (CSD) v543 
# hosted by the Cambridge Crystallographic Data Centre (CCDC).
#
# This work is licensed under the Creative Commons
# Attribution-NonCommercial-ShareAlike 4.0 International License.
# To view a copy of this license, visit
# http://creativecommons.org/licenses/by-nc-sa/4.0/
# or send a letter to
# Creative Commons, PO Box 1866, Mountain View, CA 94042, USA.
#
# CIF created using the CSD Python API on 29 September 2022
# The structure has been converted into the P1 space group
# The structure has a 3D framework
# The original CSD entry KIMYIQ is in the triclinic crystal system
# The framework has been calculated to contain at least 10.0% void space
# The void calculation uses a probe of radius 1.32A, grid spacing 0.4
#
###############################################################################

data_KIMYIQ
_chemical_formula_moiety         '(C60 H36 Cu3 N8 O18)n'
_symmetry_cell_setting           triclinic
_symmetry_space_group_name_H-M   'P 1'
_symmetry_Int_Tables_number      1
_space_group_name_Hall           'P 1'
loop_
_symmetry_equiv_pos_site_id
_symmetry_equiv_pos_as_xyz
1 x,y,z
_cell_length_a                   9.7258(8)
_cell_length_b                   12.0425(8)
_cell_length_c                   14.3006(13)
_cell_angle_alpha                68.0810(10)
_cell_angle_beta                 76.7560(10)
_cell_angle_gamma                69.9110(10)
_cell_volume                     1449.5
loop_
_atom_site_label
_atom_site_type_symbol
_atom_site_fract_x
_atom_site_fract_y
_atom_site_fract_z
_atom_site_U_iso_or_equiv
_atom_site_thermal_displace_type
H13 H 0.0329 0.2982 0.0563 0.0370 Uiso
C29 C 0.1395(14) 0.1414(12) 0.8339(8) 0.0566 Uani
H17 H 0.2327 0.1445 0.8001 0.0680 Uiso
C30 C 0.0719(11) 0.2183(10) 0.8949(7) 0.0397 Uani
H18 H 0.1188 0.2704 0.9010 0.0480 Uiso
N4 N 0.0804(14) 0.0649(10) 0.8210(7) 0.0655 Uani
C34 C 0.4220(9) 0.1623(8) 0.0093(6) 0.0246 Uani
H21 H 0.3946 0.1444 0.0789 0.0290 Uiso
H30 H 0.3533 0.6935 0.0040 0.0290 Uiso
C56 C 0.0664(10) 0.7858(9) 0.0545(7) 0.0310 Uani
C57 C 0.1321(13) 0.8622(9) 0.0703(8) 0.0404 Uani
H33 H 0.2267 0.8650 0.0399 0.0480 Uiso
C58 C 0.0543(16) 0.9344(11) 0.1323(9) 0.0588 Uani
H34 H 0.0996 0.9854 0.1416 0.0700 Uiso
C31 C 0.4977(12) 0.2229(8) 0.8048(7) 0.0391 Uani
H19 H 0.5230 0.2420 0.7350 0.0470 Uiso
C32 C 0.5219(13) 0.1006(9) 0.8638(7) 0.0453 Uani
H20 H 0.5640 0.0387 0.8333 0.0540 Uiso
C33 C 0.4855(10) 0.0670(7) 0.9670(6) 0.0228 Uani
C35 C 0.4003(9) 0.2851(8) 0.9454(6) 0.0194 Uani
H22 H 0.3571 0.3487 0.9740 0.0240 Uiso
N5 N 0.4381(8) 0.3171(6) 0.8445(5) 0.0207 Uani
Cu11 Cu 0.41091(11) 0.49399(9) 0.74920(7) 0.0184 Uani
C9 C 0.1186(9) 0.6712(7) 0.4088(6) 0.0155 Uani
H4 H 0.1938 0.6962 0.4177 0.0180 Uiso
C10 C 0.1470(9) 0.5997(7) 0.3456(6) 0.0202 Uani
C11 C 0.0308(9) 0.5665(7) 0.3302(6) 0.0182 Uani
H5 H 0.0477 0.5220 0.2857 0.0220 Uiso
C15 C 0.2978(9) 0.5573(7) 0.2960(6) 0.0167 Uani
C16 C 0.5023(12) 0.7771(8) 0.1952(7) 0.0391 Uani
H7 H 0.4770 0.7580 0.2650 0.0470 Uiso
C17 C 0.4781(13) 0.8994(9) 0.1362(7) 0.0453 Uani
H8 H 0.4360 0.9613 0.1667 0.0540 Uiso
C18 C 0.5145(10) 0.9330(7) 0.0330(6) 0.0228 Uani
C20 C 0.5997(9) 0.7149(8) 0.0546(6) 0.0194 Uani
H10 H 0.6429 0.6513 0.0260 0.0240 Uiso
C21 C 0.6331(10) 0.3954(8) 0.0935(7) 0.0258 Uani
H11 H 0.5307 0.4204 0.1033 0.0310 Uiso
C22 C 0.7019(9) 0.3271(8) 0.0289(6) 0.0246 Uani
C23 C 0.8541(10) 0.2892(8) 0.0134(6) 0.0229 Uani
C24 C 0.9304(10) 0.3230(9) 0.0642(7) 0.0309 Uani
C25 C 0.8526(10) 0.3942(9) 0.1274(7) 0.0299 Uani
H14 H 0.9045 0.4189 0.1595 0.0360 Uiso
N2 N 0.5619(8) 0.6829(6) 0.1555(5) 0.0207 Uani
N3 N 0.7062(7) 0.4277(6) 0.1428(5) 0.0181 Uani
O8 O 0.4028(6) 0.5638(5) 0.3328(4) 0.0203 Uani
O9 O 0.3208(6) 0.5188(6) 0.2231(5) 0.0274 Uani
Cu2 Cu 0.58909(11) 0.50601(9) 0.25080(7) 0.0184 Uani
O20 O 0.6114(6) 0.3324(5) 0.3378(4) 0.0210 Uani
O23 O 0.7785(6) 0.5176(5) 0.3013(4) 0.0241 Uani
Cu6 Cu 0.5000 0.5000 0.5000 0.0157 Uani
C1 C 0.6506(9) 0.2832(7) 0.4264(6) 0.0214 Uani
C2 C 0.7338(9) 0.1469(7) 0.4546(6) 0.0190 Uani
C3 C 0.7587(9) 0.0742(7) 0.5534(6) 0.0206 Uani
H1 H 0.7251 0.1109 0.6043 0.0250 Uiso
C7 C 0.7850(10) 0.0879(8) 0.3799(7) 0.0246 Uani
H3 H 0.7669 0.1343 0.3132 0.0300 Uiso
O1 O 0.6248(6) 0.3343(5) 0.4924(4) 0.0191 Uani
C39 C 0.1676(9) 0.0517(7) 0.4217(6) 0.0158 Uani
C40 C 0.1162(9) 0.1092(7) 0.4968(6) 0.0189 Uani
C41 C 0.1384(9) 0.0371(7) 0.5970(6) 0.0175 Uani
H24 H 0.1018 0.0732 0.6482 0.0210 Uiso
C43 C 0.0212(9) 0.2949(7) 0.5419(6) 0.0201 Uani
C47 C 0.1102(10) 0.3998(7) 0.6185(6) 0.0202 Uani
C48 C 0.1350(8) 0.3292(7) 0.5543(6) 0.0152 Uani
H28 H 0.2283 0.3056 0.5203 0.0180 Uiso
C49 C 0.2356(9) 0.4382(7) 0.6294(6) 0.0190 Uani
N6 N 0.1495(8) 0.1193(6) 0.3160(5) 0.0248 Uani
O12 O 0.2066(10) 0.0667(6) 0.2533(5) 0.0549 Uani
O13 O 0.0768(9) 0.2285(6) 0.2906(5) 0.0458 Uani
O14 O 0.0433(6) 0.2337(5) 0.4710(4) 0.0194 Uani
O15 O 0.3486(6) 0.4188(5) 0.5666(4) 0.0211 Uani
O16 O 0.2215(6) 0.4824(5) 0.6987(4) 0.0241 Uani
O19 O 0.3752(6) 0.6657(5) 0.5076(4) 0.0191 Uani
O22 O 0.6514(6) 0.5812(5) 0.4334(4) 0.0211 Uani
O26 O 0.5972(6) 0.4362(5) 0.6672(4) 0.0203 Uani
C4 C 0.8324(9) 0.9483(7) 0.5783(6) 0.0158 Uani
C5 C 0.8838(9) 0.8908(7) 0.5032(6) 0.0189 Uani
C6 C 0.8616(9) 0.9629(7) 0.4030(6) 0.0175 Uani
H2 H 0.8982 0.9268 0.3518 0.0210 Uiso
C8 C 0.9788(9) 0.7051(7) 0.4581(6) 0.0201 Uani
C12 C 0.8898(10) 0.6002(7) 0.3815(6) 0.0202 Uani
C13 C 0.8650(8) 0.6708(7) 0.4457(6) 0.0152 Uani
H6 H 0.7717 0.6944 0.4797 0.0180 Uiso
C14 C 0.7644(9) 0.5618(7) 0.3706(6) 0.0190 Uani
N1 N 0.8505(8) 0.8807(6) 0.6840(5) 0.0248 Uani
O3 O 0.7934(10) 0.9333(6) 0.7467(5) 0.0549 Uani
O4 O 0.9232(9) 0.7715(6) 0.7094(5) 0.0458 Uani
O5 O 0.9567(6) 0.7663(5) 0.5290(4) 0.0194 Uani
C36 C 0.3494(9) 0.7168(7) 0.5736(6) 0.0214 Uani
C37 C 0.2662(9) 0.8531(7) 0.5454(6) 0.0190 Uani
C38 C 0.2413(9) 0.9258(7) 0.4466(6) 0.0206 Uani
H23 H 0.2749 0.8891 0.3957 0.0250 Uiso
C42 C 0.2150(10) 0.9121(8) 0.6201(7) 0.0246 Uani
H25 H 0.2331 0.8657 0.6868 0.0300 Uiso
O11 O 0.3886(6) 0.6676(5) 0.6622(4) 0.0210 Uani
C44 C 0.8814(9) 0.3288(7) 0.5912(6) 0.0155 Uani
H26 H 0.8062 0.3038 0.5823 0.0180 Uiso
C45 C 0.8530(9) 0.4003(7) 0.6544(6) 0.0202 Uani
C46 C 0.9692(9) 0.4335(7) 0.6698(6) 0.0182 Uani
H27 H 0.9523 0.4780 0.7143 0.0220 Uiso
C50 C 0.7022(9) 0.4427(7) 0.7040(6) 0.0167 Uani
C51 C 0.3669(10) 0.6046(8) 0.9065(7) 0.0258 Uani
H29 H 0.4693 0.5796 0.8967 0.0310 Uiso
C52 C 0.2981(9) 0.6729(8) 0.9711(6) 0.0246 Uani
C53 C 0.1459(10) 0.7108(8) 0.9866(6) 0.0229 Uani
C54 C 0.0696(10) 0.6770(9) 0.9358(7) 0.0309 Uani
C55 C 0.1474(10) 0.6058(9) 0.8726(7) 0.0299 Uani
H32 H 0.0955 0.5811 0.8405 0.0360 Uiso
N7 N 0.2938(7) 0.5723(6) 0.8572(5) 0.0181 Uani
O18 O 0.6792(6) 0.4812(6) 0.7769(5) 0.0274 Uani
C19 C 0.5780(9) 0.8377(8) 0.9907(6) 0.0246 Uani
H9 H 0.6054 0.8556 0.9211 0.0290 Uiso
H12 H 0.6467 0.3065 0.9960 0.0290 Uiso
C26 C 0.9336(10) 0.2142(9) 0.9455(7) 0.0310 Uani
C27 C 0.8679(13) 0.1378(9) 0.9297(8) 0.0404 Uani
H15 H 0.7733 0.1350 0.9601 0.0480 Uiso
C28 C 0.9457(16) 0.0656(11) 0.8677(9) 0.0588 Uani
H16 H 0.9004 0.0146 0.8584 0.0700 Uiso
C59 C 0.8605(14) 0.8586(12) 0.1661(8) 0.0566 Uani
H35 H 0.7673 0.8555 0.1999 0.0680 Uiso
C60 C 0.9281(11) 0.7817(10) 0.1051(7) 0.0397 Uani
H36 H 0.8812 0.7296 0.0990 0.0480 Uiso
N8 N 0.9196(14) 0.9351(10) 0.1790(7) 0.0655 Uani
H31 H 0.9671 0.7018 0.9437 0.0370 Uiso
loop_
_atom_site_aniso_label
_atom_site_aniso_U_11
_atom_site_aniso_U_22
_atom_site_aniso_U_33
_atom_site_aniso_U_23
_atom_site_aniso_U_13
_atom_site_aniso_U_12
C29 0.052 0.065 0.032 -0.017 -0.005 0.01
C30 0.032 0.047 0.03 -0.015 -0.007 0.006
N4 0.089 0.051 0.033 -0.025 -0.01 0.023
C34 0.027 0.025 0.016 -0.008 0.007 -0.005
C56 0.032 0.028 0.022 -0.005 -0.012 0.007
C57 0.054 0.029 0.034 -0.015 -0.009 0.001
C58 0.082 0.045 0.046 -0.031 -0.017 0.01
C31 0.073 0.011 0.019 -0.004 0.011 -0.006
C32 0.072 0.018 0.028 -0.005 0.007 -0.002
C33 0.03 0.019 0.016 -0.003 0.004 -0.01
C35 0.022 0.02 0.015 -0.009 0.001 -0.003
N5 0.028 0.013 0.017 -0.005 0.001 -0.003
Cu11 0.0245 0.0126 0.0147 -0.0051 -0.0002 -0.0017
C9 0.019 0.016 0.016 -0.008 -0.001 -0.008
C10 0.023 0.014 0.019 0 -0.005 -0.004
C11 0.026 0.014 0.011 -0.005 0.002 -0.003
C15 0.023 0.009 0.014 0.004 -0.004 -0.007
C16 0.073 0.011 0.019 -0.004 0.011 -0.006
C17 0.072 0.018 0.028 -0.005 0.007 -0.002
C18 0.03 0.019 0.016 -0.003 0.004 -0.01
C20 0.022 0.02 0.015 -0.009 0.001 -0.003
C21 0.019 0.033 0.029 -0.017 0 -0.006
C22 0.024 0.026 0.027 -0.009 -0.004 -0.01
C23 0.029 0.018 0.021 -0.006 0 -0.008
C24 0.022 0.04 0.029 -0.011 -0.006 -0.005
C25 0.034 0.038 0.025 -0.02 0.004 -0.013
N2 0.028 0.013 0.017 -0.005 0.001 -0.003
N3 0.019 0.012 0.019 -0.003 -0.003 -0.001
O8 0.023 0.021 0.012 -0.004 -0.002 -0.002
O9 0.021 0.037 0.03 -0.023 -0.001 -0.003
Cu2 0.0245 0.0126 0.0147 -0.0051 -0.0002 -0.0017
O20 0.033 0.011 0.015 -0.003 -0.004 -0.002
O23 0.024 0.026 0.019 -0.008 0 -0.004
Cu6 0.0179 0.0121 0.0153 -0.0059 0.0009 -0.0022
C1 0.023 0.015 0.021 -0.006 0.002 -0.002
C2 0.02 0.018 0.02 -0.006 -0.002 -0.007
C3 0.029 0.014 0.021 -0.013 -0.001 -0.002
C7 0.027 0.016 0.027 -0.001 -0.003 -0.008
O1 0.024 0.012 0.019 -0.009 0.002 -0.001
C39 0.025 0.007 0.012 0.002 -0.002 -0.006
C40 0.027 0.014 0.017 -0.005 -0.003 -0.007
C41 0.029 0.015 0.014 -0.011 -0.001 -0.007
C43 0.028 0.011 0.018 -0.007 -0.001 0
C47 0.032 0.017 0.013 -0.004 -0.002 -0.01
C48 0.013 0.018 0.017 -0.012 -0.002 0
C49 0.02 0.017 0.02 -0.006 -0.009 -0.001
N6 0.035 0.015 0.021 -0.001 -0.004 -0.008
O12 0.098 0.027 0.013 -0.011 -0.006 0.019
O13 0.072 0.024 0.024 -0.006 -0.013 0.01
O14 0.028 0.014 0.016 -0.01 0.002 -0.003
O15 0.017 0.019 0.028 -0.015 -0.001 0.001
O16 0.024 0.026 0.019 -0.008 0 -0.004
O19 0.024 0.012 0.019 -0.009 0.002 -0.001
O22 0.017 0.019 0.028 -0.015 -0.001 0.001
O26 0.023 0.021 0.012 -0.004 -0.002 -0.002
C4 0.025 0.007 0.012 0.002 -0.002 -0.006
C5 0.027 0.014 0.017 -0.005 -0.003 -0.007
C6 0.029 0.015 0.014 -0.011 -0.001 -0.007
C8 0.028 0.011 0.018 -0.007 -0.001 0
C12 0.032 0.017 0.013 -0.004 -0.002 -0.01
C13 0.013 0.018 0.017 -0.012 -0.002 0
C14 0.02 0.017 0.02 -0.006 -0.009 -0.001
N1 0.035 0.015 0.021 -0.001 -0.004 -0.008
O3 0.098 0.027 0.013 -0.011 -0.006 0.019
O4 0.072 0.024 0.024 -0.006 -0.013 0.01
O5 0.028 0.014 0.016 -0.01 0.002 -0.003
C36 0.023 0.015 0.021 -0.006 0.002 -0.002
C37 0.02 0.018 0.02 -0.006 -0.002 -0.007
C38 0.029 0.014 0.021 -0.013 -0.001 -0.002
C42 0.027 0.016 0.027 -0.001 -0.003 -0.008
O11 0.033 0.011 0.015 -0.003 -0.004 -0.002
C44 0.019 0.016 0.016 -0.008 -0.001 -0.008
C45 0.023 0.014 0.019 0 -0.005 -0.004
C46 0.026 0.014 0.011 -0.005 0.002 -0.003
C50 0.023 0.009 0.014 0.004 -0.004 -0.007
C51 0.019 0.033 0.029 -0.017 0 -0.006
C52 0.024 0.026 0.027 -0.009 -0.004 -0.01
C53 0.029 0.018 0.021 -0.006 0 -0.008
C54 0.022 0.04 0.029 -0.011 -0.006 -0.005
C55 0.034 0.038 0.025 -0.02 0.004 -0.013
N7 0.019 0.012 0.019 -0.003 -0.003 -0.001
O18 0.021 0.037 0.03 -0.023 -0.001 -0.003
C19 0.027 0.025 0.016 -0.008 0.007 -0.005
C26 0.032 0.028 0.022 -0.005 -0.012 0.007
C27 0.054 0.029 0.034 -0.015 -0.009 0.001
C28 0.082 0.045 0.046 -0.031 -0.017 0.01
C59 0.052 0.065 0.032 -0.017 -0.005 0.01
C60 0.032 0.047 0.03 -0.015 -0.007 0.006
N8 0.089 0.051 0.033 -0.025 -0.01 0.023
loop_
_geom_bond_atom_site_label_1
_geom_bond_atom_site_label_2
_geom_bond_site_symmetry_1
_geom_bond_site_symmetry_2
C29 H17 1_555 1_555
H18 C30 1_555 1_555
C29 C30 1_555 1_555
C29 N4 1_555 1_555
H21 C34 1_555 1_555
C57 C56 1_555 1_555
H33 C57 1_555 1_555
C58 C57 1_555 1_555
H34 C58 1_555 1_555
C31 H19 1_555 1_555
C32 C31 1_555 1_555
H20 C32 1_555 1_555
H22 C35 1_555 1_555
N5 C31 1_555 1_555
Cu11 N5 1_555 1_555
C32 C33 1_555 1_555
C35 N5 1_555 1_555
C9 H4 1_555 1_555
C10 C9 1_555 1_555
C11 C10 1_555 1_555
H5 C11 1_555 1_555
C15 C10 1_555 1_555
C16 H7 1_555 1_555
C17 C16 1_555 1_555
H8 C17 1_555 1_555
C18 C17 1_555 1_555
H10 C20 1_555 1_555
C21 H11 1_555 1_555
C22 C21 1_555 1_555
C23 C22 1_555 1_555
C24 C23 1_555 1_555
C25 C24 1_555 1_555
H14 C25 1_555 1_555
N2 C16 1_555 1_555
N3 C21 1_555 1_555
O8 C15 1_555 1_555
O9 C15 1_555 1_555
Cu2 N2 1_555 1_555
O20 Cu2 1_555 1_555
O23 Cu2 1_555 1_555
Cu6 O8 1_555 1_555
C20 N2 1_555 1_555
C25 N3 1_555 1_555
N3 Cu2 1_555 1_555
O8 Cu2 1_555 1_555
O9 Cu2 1_555 1_555
C1 C2 1_555 1_555
C2 C3 1_555 1_555
C3 H1 1_555 1_555
C7 C2 1_555 1_555
H3 C7 1_555 1_555
O1 C1 1_555 1_555
O20 C1 1_555 1_555
Cu6 O1 1_555 1_555
C40 C39 1_555 1_555
C41 C40 1_555 1_555
H24 C41 1_555 1_555
C48 C43 1_555 1_555
H28 C48 1_555 1_555
C49 C47 1_555 1_555
N6 C39 1_555 1_555
O12 N6 1_555 1_555
O13 N6 1_555 1_555
O14 C40 1_555 1_555
O15 Cu6 1_555 1_555
O16 C49 1_555 1_555
O19 Cu6 1_555 1_555
O22 Cu6 1_555 1_555
O26 Cu6 1_555 1_555
Cu11 O16 1_555 1_555
C43 O14 1_555 1_555
C47 C48 1_555 1_555
C49 O15 1_555 1_555
O26 Cu11 1_555 1_555
C5 C4 1_555 1_555
C6 C5 1_555 1_555
H2 C6 1_555 1_555
C13 C8 1_555 1_555
H6 C13 1_555 1_555
C14 C12 1_555 1_555
N1 C4 1_555 1_555
O3 N1 1_555 1_555
O4 N1 1_555 1_555
O5 C5 1_555 1_555
O22 C14 1_555 1_555
O23 C14 1_555 1_555
C36 C37 1_555 1_555
C37 C38 1_555 1_555
C38 H23 1_555 1_555
C42 C37 1_555 1_555
H25 C42 1_555 1_555
O19 C36 1_555 1_555
O11 C36 1_555 1_555
Cu11 O11 1_555 1_555
C8 O5 1_555 1_555
C12 C13 1_555 1_555
C44 H26 1_555 1_555
C45 C44 1_555 1_555
C46 C45 1_555 1_555
H27 C46 1_555 1_555
C50 C45 1_555 1_555
C51 H29 1_555 1_555
C52 C51 1_555 1_555
C53 C52 1_555 1_555
C54 C53 1_555 1_555
C55 C54 1_555 1_555
H32 C55 1_555 1_555
N7 C51 1_555 1_555
O26 C50 1_555 1_555
O18 C50 1_555 1_555
Cu11 N7 1_555 1_555
C55 N7 1_555 1_555
O18 Cu11 1_555 1_555
H9 C19 1_555 1_555
C27 C26 1_555 1_555
H15 C27 1_555 1_555
C28 C27 1_555 1_555
H16 C28 1_555 1_555
C59 H35 1_555 1_555
H36 C60 1_555 1_555
C59 C60 1_555 1_555
C59 N8 1_555 1_555

#END
