
###############################################################################
#
# This file contains modified crystal structure data generated from the
# MOF subset of the Cambridge Structural Database (CSD) v543 
# hosted by the Cambridge Crystallographic Data Centre (CCDC).
#
# This work is licensed under the Creative Commons
# Attribution-NonCommercial-ShareAlike 4.0 International License.
# To view a copy of this license, visit
# http://creativecommons.org/licenses/by-nc-sa/4.0/
# or send a letter to
# Creative Commons, PO Box 1866, Mountain View, CA 94042, USA.
#
# CIF created using the CSD Python API on 29 September 2022
# The structure has been converted into the P1 space group
# The structure has a 3D framework
# The original CSD entry KINDOC is in the triclinic crystal system
# The framework has been calculated to contain at least 10.0% void space
# The void calculation uses a probe of radius 1.32A, grid spacing 0.4
#
###############################################################################

data_KINDOC
_chemical_formula_moiety         '(C42 H54 N2 O16 Tm2)n'
_symmetry_cell_setting           triclinic
_symmetry_space_group_name_H-M   'P 1'
_symmetry_Int_Tables_number      1
_space_group_name_Hall           'P 1'
loop_
_symmetry_equiv_pos_site_id
_symmetry_equiv_pos_as_xyz
1 x,y,z
_cell_length_a                   9.955(3)
_cell_length_b                   12.795(3)
_cell_length_c                   13.801(4)
_cell_angle_alpha                69.415(4)
_cell_angle_beta                 82.562(4)
_cell_angle_gamma                83.117(4)
_cell_volume                     1626.57
loop_
_atom_site_label
_atom_site_type_symbol
_atom_site_fract_x
_atom_site_fract_y
_atom_site_fract_z
_atom_site_U_iso_or_equiv
_atom_site_thermal_displace_type
C28 C 0.2683(6) 0.5730(5) 0.4515(5) 0.0268 Uani
C29 C 0.1284(6) 0.5343(5) 0.4781(5) 0.0269 Uani
C30 C 0.0851(6) 0.4801(5) 0.4183(5) 0.0293 Uani
C31 C 0.1793(8) 0.4614(7) 0.3307(6) 0.0456 Uani
H34 H 0.2683 0.4359 0.3534 0.0680 Uiso
H35 H 0.1459 0.4060 0.3098 0.0680 Uiso
H36 H 0.1837 0.5304 0.2730 0.0680 Uiso
C32 C 0.0456(7) 0.5556(5) 0.5596(5) 0.0312 Uani
C33 C 0.0969(8) 0.6142(8) 0.6222(7) 0.0501 Uani
H37 H 0.1793 0.6472 0.5872 0.0750 Uiso
H38 H 0.0298 0.6718 0.6303 0.0750 Uiso
H39 H 0.1146 0.5613 0.6894 0.0750 Uiso
O11 O 0.2897(5) 0.6641(4) 0.3825(4) 0.0434 Uani
O12 O 0.3668(4) 0.5131(3) 0.4967(3) 0.0278 Uani
Tm3 Tm 0.46981(2) 0.359648(19) 0.625193(18) 0.0232 Uani
Tm6 Tm 0.53019(2) 0.640352(19) 0.374807(18) 0.0232 Uani
H17 H 0.2195 0.1658 0.0191 0.1220 Uiso
H41 H 0.2542 0.0253 0.1813 0.1150 Uiso
C1 C 0.5256(7) 0.2358(5) 0.4437(5) 0.0370 Uani
C2 C 0.5114(8) 0.1119(5) 0.4735(5) 0.0358 Uani
C3 C 0.6125(8) 0.0375(6) 0.5264(6) 0.0398 Uani
C4 C 0.7291(9) 0.0798(7) 0.5523(8) 0.0567 Uani
H1 H 0.8103 0.0620 0.5135 0.0850 Uiso
H2 H 0.7386 0.0455 0.6254 0.0850 Uiso
H3 H 0.7145 0.1595 0.5350 0.0850 Uiso
C5 C 0.3992(8) 0.0764(6) 0.4468(6) 0.0414 Uani
C6 C 0.2929(11) 0.1589(7) 0.3885(8) 0.0654 Uani
H4 H 0.3107 0.2331 0.3824 0.0980 Uiso
H5 H 0.2051 0.1422 0.4253 0.0980 Uiso
H6 H 0.2948 0.1542 0.3204 0.0980 Uiso
C7 C 0.7317(6) 0.4270(5) 0.5485(5) 0.0268 Uani
C8 C 0.8716(6) 0.4657(5) 0.5219(5) 0.0269 Uani
C9 C 0.9149(6) 0.5199(5) 0.5817(5) 0.0293 Uani
C10 C 0.8207(8) 0.5386(7) 0.6693(6) 0.0456 Uani
H7 H 0.7317 0.5641 0.6466 0.0680 Uiso
H8 H 0.8541 0.5940 0.6902 0.0680 Uiso
H9 H 0.8163 0.4696 0.7270 0.0680 Uiso
C11 C 0.9544(7) 0.4444(5) 0.4404(5) 0.0312 Uani
C12 C 0.9031(8) 0.3858(8) 0.3778(7) 0.0501 Uani
H10 H 0.8207 0.3528 0.4128 0.0750 Uiso
H11 H 0.9702 0.3282 0.3697 0.0750 Uiso
H12 H 0.8854 0.4387 0.3106 0.0750 Uiso
C13 C 0.4948(7) 0.1825(6) 0.8063(6) 0.0389 Uani
C14 C 0.4982(7) 0.0869(6) 0.9080(5) 0.0373 Uani
C15 C 0.6130(8) 0.0139(7) 0.9264(6) 0.0438 Uani
C16 C 0.7351(10) 0.0313(10) 0.8505(7) 0.0761 Uani
H13 H 0.7249 0.1039 0.7980 0.1150 Uiso
H15 H 0.8139 0.0265 0.8858 0.1150 Uiso
C17 C 0.3861(8) 0.0740(6) 0.9792(5) 0.0432 Uani
C18 C 0.2601(10) 0.1544(9) 0.9563(8) 0.0818 Uani
H16 H 0.2848 0.2247 0.9059 0.1220 Uiso
H18 H 0.1964 0.1236 0.9292 0.1220 Uiso
C19 C 0.1898(8) 0.2627(7) 0.6457(7) 0.0548 Uani
H19 H 0.2310 0.2408 0.5906 0.0660 Uiso
H20 H 0.0076 0.1963 0.8335 0.1000 Uiso
H22 H 0.0341 0.3218 0.7714 0.1000 Uiso
C21 C 0.0062(12) 0.1542(11) 0.6474(10) 0.0881 Uani
H23 H 0.0666 0.1393 0.5928 0.1330 Uiso
N1 N 0.0682(7) 0.2255(7) 0.6874(6) 0.0611 Uani
O1 O 0.4715(6) 0.2849(4) 0.5056(4) 0.0394 Uani
O2 O 0.4417(6) 0.4961(4) 0.6962(4) 0.0441 Uani
H26 H 0.3831 0.5506 0.6639 0.0660 Uiso
H27 H 0.4105 0.4698 0.7622 0.0660 Uiso
O3 O 0.5893(8) 0.2844(5) 0.3613(5) 0.0759 Uani
O4 O 0.7103(5) 0.3359(4) 0.6175(4) 0.0434 Uani
O5 O 0.6332(4) 0.4869(3) 0.5033(3) 0.0278 Uani
O6 O 0.4921(6) 0.1636(4) 0.7235(4) 0.0433 Uani
O7 O 0.4943(7) 0.2806(4) 0.8036(4) 0.0513 Uani
O8 O 0.2500(5) 0.3210(4) 0.6722(4) 0.0429 Uani
C34 C 0.5052(7) 0.8175(6) 0.1937(6) 0.0389 Uani
C35 C 0.5018(7) 0.9131(6) 0.0920(5) 0.0373 Uani
C36 C 0.3870(8) 0.9861(7) 0.0736(6) 0.0438 Uani
C37 C 0.2649(10) 0.9687(10) 0.1495(7) 0.0761 Uani
H40 H 0.2751 0.8961 0.2020 0.1150 Uiso
H42 H 0.1861 0.9735 0.1142 0.1150 Uiso
C38 C 0.6139(8) 0.9260(6) 0.0208(5) 0.0432 Uani
C39 C 0.7399(10) 0.8456(9) 0.0437(8) 0.0818 Uani
H43 H 0.7152 0.7753 0.0941 0.1220 Uiso
H45 H 0.8036 0.8764 0.0708 0.1220 Uiso
O13 O 0.5079(6) 0.8364(4) 0.2765(4) 0.0433 Uani
O14 O 0.5057(7) 0.7194(4) 0.1964(4) 0.0513 Uani
H14 H 0.7458 0.9747 0.8187 0.1150 Uiso
C22 C 0.4744(7) 0.7642(5) 0.5563(5) 0.0370 Uani
C23 C 0.4886(8) 0.8881(5) 0.5265(5) 0.0358 Uani
C24 C 0.3875(8) 0.9625(6) 0.4736(6) 0.0398 Uani
C25 C 0.2709(9) 0.9202(7) 0.4477(8) 0.0567 Uani
H28 H 0.1897 0.9380 0.4865 0.0850 Uiso
H29 H 0.2614 0.9545 0.3746 0.0850 Uiso
H30 H 0.2855 0.8405 0.4650 0.0850 Uiso
C26 C 0.6008(8) 0.9236(6) 0.5532(6) 0.0414 Uani
C27 C 0.7071(11) 0.8411(7) 0.6115(8) 0.0654 Uani
H31 H 0.6893 0.7669 0.6176 0.0980 Uiso
H32 H 0.7949 0.8578 0.5747 0.0980 Uiso
H33 H 0.7052 0.8458 0.6796 0.0980 Uiso
O9 O 0.5285(6) 0.7151(4) 0.4944(4) 0.0394 Uani
O10 O 0.4107(8) 0.7156(5) 0.6387(5) 0.0759 Uani
H44 H 0.7805 0.8342 0.9809 0.1220 Uiso
C40 C 0.8102(8) 0.7373(7) 0.3543(7) 0.0548 Uani
H46 H 0.7690 0.7592 0.4094 0.0660 Uiso
H47 H 0.9924 0.8037 0.1665 0.1000 Uiso
H49 H 0.9659 0.6782 0.2286 0.1000 Uiso
C42 C 0.9938(12) 0.8458(11) 0.3526(10) 0.0881 Uani
H50 H 0.9334 0.8607 0.4072 0.1330 Uiso
N2 N 0.9318(7) 0.7745(7) 0.3126(6) 0.0611 Uani
O15 O 0.5583(6) 0.5039(4) 0.3038(4) 0.0441 Uani
H53 H 0.6169 0.4494 0.3361 0.0660 Uiso
H54 H 0.5895 0.5302 0.2378 0.0660 Uiso
O16 O 0.7500(5) 0.6790(4) 0.3278(4) 0.0429 Uani
C41 C 0.0023(10) 0.7433(9) 0.2311(8) 0.0661 Uani
H48 H 0.0968 0.7266 0.2423 0.1000 Uiso
H51 H 0.0777 0.8088 0.3796 0.1330 Uiso
H52 H 0.0115 0.9150 0.2977 0.1330 Uiso
C20 C 0.9977(10) 0.2567(9) 0.7689(8) 0.0661 Uani
H21 H 0.9032 0.2734 0.7577 0.1000 Uiso
H24 H 0.9223 0.1912 0.6204 0.1330 Uiso
H25 H 0.9885 0.0850 0.7023 0.1330 Uiso
loop_
_atom_site_aniso_label
_atom_site_aniso_U_11
_atom_site_aniso_U_22
_atom_site_aniso_U_33
_atom_site_aniso_U_23
_atom_site_aniso_U_13
_atom_site_aniso_U_12
C28 0.02 0.022 0.034 -0.003 -0.004 -0.004
C29 0.017 0.021 0.036 0.001 -0.01 -0.001
C30 0.019 0.026 0.036 -0.001 -0.007 0
C31 0.035 0.046 0.054 -0.017 0.003 -0.004
C32 0.023 0.028 0.04 -0.006 -0.009 -0.003
C33 0.037 0.065 0.059 -0.031 0 -0.019
O11 0.025 0.03 0.054 0.017 -0.013 -0.008
O12 0.022 0.022 0.032 0.0023 -0.0069 -0.004
Tm3 0.02227 0.01728 0.02426 0.00264 -0.00504 -0.00597
Tm6 0.02227 0.01728 0.02426 0.00264 -0.00504 -0.00597
C1 0.042 0.021 0.041 0.002 -0.007 -0.011
C2 0.05 0.021 0.037 -0.009 -0.005 -0.007
C3 0.048 0.026 0.046 -0.009 -0.011 -0.008
C4 0.057 0.041 0.078 -0.019 -0.022 -0.014
C5 0.053 0.027 0.045 -0.01 -0.012 -0.005
C6 0.074 0.037 0.088 -0.016 -0.041 0.004
C7 0.02 0.022 0.034 -0.003 -0.004 -0.004
C8 0.017 0.021 0.036 0.001 -0.01 -0.001
C9 0.019 0.026 0.036 -0.001 -0.007 0
C10 0.035 0.046 0.054 -0.017 0.003 -0.004
C11 0.023 0.028 0.04 -0.006 -0.009 -0.003
C12 0.037 0.065 0.059 -0.031 0 -0.019
C13 0.033 0.037 0.036 0.003 -0.004 -0.009
C14 0.038 0.028 0.036 0.005 -0.009 -0.008
C15 0.036 0.042 0.035 0.009 -0.002 -0.003
C16 0.05 0.089 0.047 0.024 0.004 0.001
C17 0.039 0.035 0.033 0.016 -0.009 0.004
C18 0.049 0.078 0.066 0.027 0.005 0.025
C19 0.039 0.051 0.061 -0.002 0 -0.01
C21 0.059 0.101 0.112 -0.037 -0.003 -0.039
N1 0.031 0.062 0.075 0.001 -0.008 -0.018
O1 0.065 0.019 0.034 -0.007 -0.008 -0.005
O2 0.068 0.03 0.031 -0.006 -0.009 0
O3 0.118 0.032 0.069 -0.015 0.03 -0.021
O4 0.025 0.03 0.054 0.017 -0.013 -0.008
O5 0.022 0.022 0.032 0.0023 -0.0069 -0.004
O6 0.055 0.028 0.035 0.006 -0.009 -0.005
O7 0.088 0.025 0.03 0.009 -0.016 -0.009
O8 0.029 0.039 0.053 -0.002 -0.005 -0.015
C34 0.033 0.037 0.036 0.003 -0.004 -0.009
C35 0.038 0.028 0.036 0.005 -0.009 -0.008
C36 0.036 0.042 0.035 0.009 -0.002 -0.003
C37 0.05 0.089 0.047 0.024 0.004 0.001
C38 0.039 0.035 0.033 0.016 -0.009 0.004
C39 0.049 0.078 0.066 0.027 0.005 0.025
O13 0.055 0.028 0.035 0.006 -0.009 -0.005
O14 0.088 0.025 0.03 0.009 -0.016 -0.009
C22 0.042 0.021 0.041 0.002 -0.007 -0.011
C23 0.05 0.021 0.037 -0.009 -0.005 -0.007
C24 0.048 0.026 0.046 -0.009 -0.011 -0.008
C25 0.057 0.041 0.078 -0.019 -0.022 -0.014
C26 0.053 0.027 0.045 -0.01 -0.012 -0.005
C27 0.074 0.037 0.088 -0.016 -0.041 0.004
O9 0.065 0.019 0.034 -0.007 -0.008 -0.005
O10 0.118 0.032 0.069 -0.015 0.03 -0.021
C40 0.039 0.051 0.061 -0.002 0 -0.01
C42 0.059 0.101 0.112 -0.037 -0.003 -0.039
N2 0.031 0.062 0.075 0.001 -0.008 -0.018
O15 0.068 0.03 0.031 -0.006 -0.009 0
O16 0.029 0.039 0.053 -0.002 -0.005 -0.015
C41 0.046 0.066 0.076 -0.009 -0.011 -0.006
C20 0.046 0.066 0.076 -0.009 -0.011 -0.006
loop_
_geom_bond_atom_site_label_1
_geom_bond_atom_site_label_2
_geom_bond_site_symmetry_1
_geom_bond_site_symmetry_2
C28 C29 1_555 1_555
C29 C30 1_555 1_555
C31 C30 1_555 1_555
H34 C31 1_555 1_555
H35 C31 1_555 1_555
H36 C31 1_555 1_555
C33 C32 1_555 1_555
H37 C33 1_555 1_555
H38 C33 1_555 1_555
H39 C33 1_555 1_555
O11 C28 1_555 1_555
O12 C28 1_555 1_555
Tm3 O12 1_555 1_555
Tm6 O11 1_555 1_555
C29 C32 1_555 1_555
O12 Tm6 1_555 1_555
Tm3 O1 1_555 1_555
C1 C2 1_555 1_555
C2 C3 1_555 1_555
C3 C4 1_555 1_555
C4 H1 1_555 1_555
H2 C4 1_555 1_555
H3 C4 1_555 1_555
C5 C2 1_555 1_555
C6 C5 1_555 1_555
H4 C6 1_555 1_555
H5 C6 1_555 1_555
H6 C6 1_555 1_555
C7 C8 1_555 1_555
C8 C9 1_555 1_555
C9 C10 1_555 1_555
C10 H7 1_555 1_555
H8 C10 1_555 1_555
H9 C10 1_555 1_555
C11 C8 1_555 1_555
C12 C11 1_555 1_555
H10 C12 1_555 1_555
H11 C12 1_555 1_555
H12 C12 1_555 1_555
C13 C14 1_555 1_555
C14 C15 1_555 1_555
C15 C16 1_555 1_555
C16 H13 1_555 1_555
H15 C16 1_555 1_555
C17 C14 1_555 1_555
C18 C17 1_555 1_555
H16 C18 1_555 1_555
H18 C18 1_555 1_555
C19 H19 1_555 1_555
C21 H23 1_555 1_555
N1 C19 1_555 1_555
O1 C1 1_555 1_555
O2 Tm3 1_555 1_555
H26 O2 1_555 1_555
H27 O2 1_555 1_555
O3 C1 1_555 1_555
O4 Tm3 1_555 1_555
O5 Tm3 1_555 1_555
O6 Tm3 1_555 1_555
O7 Tm3 1_555 1_555
O8 Tm3 1_555 1_555
Tm6 O5 1_555 1_555
C7 O4 1_555 1_555
C7 O5 1_555 1_555
C13 O6 1_555 1_555
C13 O7 1_555 1_555
C19 O8 1_555 1_555
C21 N1 1_555 1_555
C34 C35 1_555 1_555
C35 C36 1_555 1_555
C37 C36 1_555 1_555
H40 C37 1_555 1_555
H42 C37 1_555 1_555
C39 C38 1_555 1_555
H43 C39 1_555 1_555
H45 C39 1_555 1_555
O13 C34 1_555 1_555
O14 C34 1_555 1_555
Tm6 O13 1_555 1_555
C35 C38 1_555 1_555
O14 Tm6 1_555 1_555
C22 C23 1_555 1_555
C23 C24 1_555 1_555
C25 C24 1_555 1_555
H28 C25 1_555 1_555
H29 C25 1_555 1_555
H30 C25 1_555 1_555
C27 C26 1_555 1_555
H31 C27 1_555 1_555
H32 C27 1_555 1_555
H33 C27 1_555 1_555
O9 C22 1_555 1_555
O10 C22 1_555 1_555
Tm6 O9 1_555 1_555
C40 H46 1_555 1_555
C42 H50 1_555 1_555
N2 C40 1_555 1_555
O15 Tm6 1_555 1_555
H53 O15 1_555 1_555
H54 O15 1_555 1_555
O16 Tm6 1_555 1_555
C23 C26 1_555 1_555
C40 O16 1_555 1_555
C42 N2 1_555 1_555
H48 C41 1_555 1_555
H21 C20 1_555 1_555

#END
