
###############################################################################
#
# This file contains modified crystal structure data generated from the
# MOF subset of the Cambridge Structural Database (CSD) v543 
# hosted by the Cambridge Crystallographic Data Centre (CCDC).
#
# This work is licensed under the Creative Commons
# Attribution-NonCommercial-ShareAlike 4.0 International License.
# To view a copy of this license, visit
# http://creativecommons.org/licenses/by-nc-sa/4.0/
# or send a letter to
# Creative Commons, PO Box 1866, Mountain View, CA 94042, USA.
#
# CIF created using the CSD Python API on 29 September 2022
# The structure has been converted into the P1 space group
# The structure has a 3D framework
# The original CSD entry KINDIW is in the triclinic crystal system
# The framework has been calculated to contain at least 10.0% void space
# The void calculation uses a probe of radius 1.32A, grid spacing 0.4
#
###############################################################################

data_KINDIW
_chemical_formula_moiety         '(C48 H28 Er2 N4 O10)n'
_symmetry_cell_setting           triclinic
_symmetry_space_group_name_H-M   'P 1'
_symmetry_Int_Tables_number      1
_space_group_name_Hall           'P 1'
loop_
_symmetry_equiv_pos_site_id
_symmetry_equiv_pos_as_xyz
1 x,y,z
_cell_length_a                   10.0691(6)
_cell_length_b                   10.9491(7)
_cell_length_c                   13.2211(8)
_cell_angle_alpha                99.7550(10)
_cell_angle_beta                 110.2450(10)
_cell_angle_gamma                107.7930(10)
_cell_volume                     1238.82
loop_
_atom_site_label
_atom_site_type_symbol
_atom_site_fract_x
_atom_site_fract_y
_atom_site_fract_z
_atom_site_U_iso_or_equiv
_atom_site_thermal_displace_type
C17 C 0.2277(13) 0.1458(9) 0.0096(8) 0.0794 Uani
C18 C 0.3378(13) 0.2189(9) 0.1179(8) 0.0839 Uani
H11 H 0.3891 0.3115 0.1360 0.1000 Uiso
C19 C 0.3741(12) 0.1547(8) 0.2025(7) 0.0636 Uani
C20 C 0.4888(11) 0.2223(8) 0.3122(7) 0.0607 Uani
H12 H 0.5414 0.3154 0.3354 0.0730 Uiso
C21 C 0.5232(11) 0.1509(8) 0.3852(6) 0.0554 Uani
H13 H 0.6005 0.1943 0.4584 0.0670 Uiso
C22 C 0.4411(9) 0.0123(8) 0.3489(6) 0.0437 Uani
C23 C 0.2957(10) 0.0127(8) 0.1732(7) 0.0475 Uani
C31 C 0.0962(10) 0.0504(9) 0.6127(6) 0.0554 Uani
H17 H 0.1629 0.0846 0.6894 0.0670 Uiso
Er1 Er 0.15494(3) 0.70651(3) 0.19581(2) 0.0234 Uani
C5 C 0.0769(9) 0.8513(7) 0.3426(6) 0.0362 Uani
C6 C 0.0387(9) 0.9298(7) 0.4242(6) 0.0378 Uani
C8 C 0.1335(10) 0.9806(9) 0.5373(6) 0.0589 Uani
H4 H 0.2251 0.9677 0.5640 0.0700 Uiso
C9 C 0.3257(8) 0.6007(6) 0.3363(5) 0.0263 Uani
C10 C 0.4158(8) 0.5476(7) 0.4208(5) 0.0315 Uani
C11 C 0.3405(8) 0.4460(7) 0.4557(5) 0.0320 Uani
H5 H 0.2336 0.4098 0.4259 0.0380 Uiso
C12 C 0.5759(8) 0.6016(6) 0.4655(6) 0.0318 Uani
H6 H 0.6266 0.6698 0.4423 0.0380 Uiso
H14 H 0.4649 0.9652 0.4002 0.0530 Uiso
C24 C 0.1779(10) 0.9377(8) 0.0580(6) 0.0486 Uani
N1 N 0.1088(7) 0.8040(5) 0.0371(5) 0.0345 Uani
N2 N 0.3314(7) 0.9430(6) 0.2460(4) 0.0350 Uani
O3 O 0.0118(6) 0.8341(5) 0.2382(4) 0.0394 Uani
O4 O 0.1761(6) 0.8011(5) 0.3804(4) 0.0459 Uani
O5 O 0.1810(5) 0.5377(5) 0.2827(4) 0.0333 Uani
O6 O 0.3940(5) 0.7089(4) 0.3206(4) 0.0321 Uani
C33 C 0.6743(8) 0.3993(6) 0.6637(5) 0.0263 Uani
C34 C 0.5842(8) 0.4524(7) 0.5792(5) 0.0315 Uani
C35 C 0.6595(8) 0.5540(7) 0.5443(5) 0.0320 Uani
H19 H 0.7664 0.5902 0.5741 0.0380 Uiso
C36 C 0.4241(8) 0.3984(6) 0.5345(6) 0.0318 Uani
H20 H 0.3734 0.3302 0.5577 0.0380 Uiso
O11 O 0.8190(5) 0.4623(5) 0.7173(4) 0.0333 Uani
O12 O 0.6060(5) 0.2911(4) 0.6794(4) 0.0321 Uani
Er6 Er 0.84506(3) 0.29349(3) 0.80419(2) 0.0234 Uani
O14 O 0.2193(5) 0.5931(5) 0.0736(4) 0.0338 Uani
C29 C 0.9231(9) 0.1487(7) 0.6574(6) 0.0362 Uani
C30 C 0.9613(9) 0.0702(7) 0.5758(6) 0.0378 Uani
C32 C 0.8665(10) 0.0194(9) 0.4627(6) 0.0589 Uani
H18 H 0.7749 0.0323 0.4360 0.0700 Uiso
O9 O 0.9882(6) 0.1659(5) 0.7618(4) 0.0394 Uani
O10 O 0.8239(6) 0.1989(5) 0.6196(4) 0.0459 Uani
C1 C 0.7873(8) 0.4856(6) 0.0109(5) 0.0259 Uani
C2 C 0.6374(7) 0.4920(6) 0.0052(5) 0.0245 Uani
C3 C 0.6340(7) 0.5709(6) 0.0972(5) 0.0286 Uani
H1 H 0.7243 0.6190 0.1630 0.0340 Uiso
C7 C 0.9038(10) 0.9496(9) 0.3873(6) 0.0554 Uani
H3 H 0.8371 0.9154 0.3106 0.0670 Uiso
O1 O 0.9088(5) 0.5597(5) 0.0959(4) 0.0353 Uani
C28 C 0.4972(8) 0.5790(7) 0.0923(5) 0.0312 Uani
H16 H 0.4961 0.6322 0.1545 0.0380 Uiso
H21 H 0.0365 0.3585 0.0868 0.0610 Uiso
C38 C 0.0266(12) 0.2114(9) 0.1573(7) 0.0692 Uani
H22 H 0.0980 0.2661 0.2301 0.0830 Uiso
C4 C 0.5028(8) 0.4210(7) 0.9077(5) 0.0312 Uani
H2 H 0.5039 0.3678 0.8455 0.0380 Uiso
H7 H 0.9635 0.6415 0.9132 0.0610 Uiso
C14 C 0.9734(12) 0.7886(9) 0.8427(7) 0.0692 Uani
H8 H 0.9020 0.7339 0.7699 0.0830 Uiso
O2 O 0.7807(5) 0.4069(5) 0.9264(4) 0.0338 Uani
C25 C 0.2127(8) 0.5144(6) 0.9891(5) 0.0259 Uani
C26 C 0.3626(7) 0.5080(6) 0.9948(5) 0.0245 Uani
C27 C 0.3660(7) 0.4291(6) 0.9028(5) 0.0286 Uani
H15 H 0.2757 0.3810 0.8370 0.0340 Uiso
O7 O 0.0912(5) 0.4403(5) 0.9041(4) 0.0353 Uani
H28 H 0.5351 0.0348 0.5998 0.0530 Uiso
C48 C 0.8221(10) 0.0623(8) 0.9420(6) 0.0486 Uani
N3 N 0.8912(7) 0.1960(5) 0.9629(5) 0.0345 Uani
N4 N 0.6686(7) 0.0570(6) 0.7540(4) 0.0350 Uani
C41 C 0.7723(13) 0.8542(9) 0.9904(8) 0.0794 Uani
C42 C 0.6622(13) 0.7811(9) 0.8821(8) 0.0839 Uani
H25 H 0.6109 0.6885 0.8640 0.1000 Uiso
C43 C 0.6259(12) 0.8453(8) 0.7975(7) 0.0636 Uani
C44 C 0.5112(11) 0.7777(8) 0.6878(7) 0.0607 Uani
H26 H 0.4586 0.6846 0.6646 0.0730 Uiso
C45 C 0.4768(11) 0.8491(8) 0.6148(6) 0.0554 Uani
H27 H 0.3995 0.8057 0.5416 0.0670 Uiso
C46 C 0.5589(9) 0.9877(8) 0.6511(6) 0.0437 Uani
C47 C 0.7043(10) 0.9873(8) 0.8268(7) 0.0475 Uani
C16 C 0.1501(11) 0.0039(8) 0.9776(7) 0.0645 Uani
H10 H 0.2035 0.1904 0.9563 0.0950 Uiso
C13 C 0.0109(10) 0.7345(8) 0.9304(6) 0.0507 Uani
C15 C 0.0446(12) 0.9256(10) 0.8658(7) 0.0756 Uani
H9 H 0.0232 0.9655 0.8087 0.0910 Uiso
C37 C 0.9891(10) 0.2655(8) 0.0696(6) 0.0507 Uani
C39 C 0.9554(12) 0.0744(10) 0.1342(7) 0.0756 Uani
H23 H 0.9768 0.0345 0.1913 0.0910 Uiso
C40 C 0.8499(11) 0.9961(8) 0.0224(7) 0.0645 Uani
H24 H 0.7965 0.8096 0.0437 0.0950 Uiso
loop_
_atom_site_aniso_label
_atom_site_aniso_U_11
_atom_site_aniso_U_22
_atom_site_aniso_U_33
_atom_site_aniso_U_23
_atom_site_aniso_U_13
_atom_site_aniso_U_12
C17 0.101 0.044 0.065 0.024 0.006 0.022
C18 0.102 0.038 0.071 0.017 -0.003 0.021
C19 0.085 0.033 0.045 0.01 0.002 0.018
C20 0.067 0.035 0.051 0.007 0 0.015
C21 0.066 0.051 0.027 0.001 0.002 0.021
C22 0.051 0.044 0.03 0.006 0.01 0.022
C23 0.054 0.042 0.041 0.012 0.01 0.024
C31 0.072 0.083 0.023 0.007 0.011 0.061
Er1 0.02855 0.03072 0.01692 0.00578 0.0082 0.02179
C5 0.047 0.043 0.031 0.009 0.019 0.032
C6 0.051 0.051 0.025 0.008 0.02 0.035
C8 0.064 0.091 0.034 0.006 0.014 0.061
C9 0.036 0.028 0.019 0.005 0.009 0.022
C10 0.041 0.033 0.023 0.009 0.007 0.025
C11 0.022 0.04 0.03 0.011 0.005 0.014
C12 0.032 0.029 0.035 0.015 0.01 0.015
C24 0.054 0.046 0.035 0.01 0.006 0.022
N1 0.042 0.029 0.028 0.007 0.007 0.018
N2 0.044 0.034 0.024 0.009 0.007 0.02
O3 0.053 0.052 0.025 0.007 0.015 0.04
O4 0.07 0.068 0.025 0.017 0.022 0.056
O5 0.03 0.039 0.031 0.011 0.009 0.018
O6 0.035 0.034 0.028 0.011 0.008 0.02
C33 0.036 0.028 0.019 0.005 0.009 0.022
C34 0.041 0.033 0.023 0.009 0.007 0.025
C35 0.022 0.04 0.03 0.011 0.005 0.014
C36 0.032 0.029 0.035 0.015 0.01 0.015
O11 0.03 0.039 0.031 0.011 0.009 0.018
O12 0.035 0.034 0.028 0.011 0.008 0.02
Er6 0.02855 0.03072 0.01692 0.00578 0.0082 0.02179
O14 0.032 0.052 0.027 0.004 0.017 0.028
C29 0.047 0.043 0.031 0.009 0.019 0.032
C30 0.051 0.051 0.025 0.008 0.02 0.035
C32 0.064 0.091 0.034 0.006 0.014 0.061
O9 0.053 0.052 0.025 0.007 0.015 0.04
O10 0.07 0.068 0.025 0.017 0.022 0.056
C1 0.031 0.034 0.026 0.013 0.019 0.02
C2 0.023 0.028 0.029 0.009 0.012 0.017
C3 0.021 0.039 0.02 -0.001 0.005 0.014
C7 0.072 0.083 0.023 0.007 0.011 0.061
O1 0.022 0.05 0.027 0.002 0.005 0.017
C28 0.03 0.037 0.024 -0.001 0.01 0.017
C38 0.094 0.049 0.037 0.018 0.001 0.021
C4 0.03 0.037 0.024 -0.001 0.01 0.017
C14 0.094 0.049 0.037 0.018 0.001 0.021
O2 0.032 0.052 0.027 0.004 0.017 0.028
C25 0.031 0.034 0.026 0.013 0.019 0.02
C26 0.023 0.028 0.029 0.009 0.012 0.017
C27 0.021 0.039 0.02 -0.001 0.005 0.014
O7 0.022 0.05 0.027 0.002 0.005 0.017
C48 0.054 0.046 0.035 0.01 0.006 0.022
N3 0.042 0.029 0.028 0.007 0.007 0.018
N4 0.044 0.034 0.024 0.009 0.007 0.02
C41 0.101 0.044 0.065 0.024 0.006 0.022
C42 0.102 0.038 0.071 0.017 -0.003 0.021
C43 0.085 0.033 0.045 0.01 0.002 0.018
C44 0.067 0.035 0.051 0.007 0 0.015
C45 0.066 0.051 0.027 0.001 0.002 0.021
C46 0.051 0.044 0.03 0.006 0.01 0.022
C47 0.054 0.042 0.041 0.012 0.01 0.024
C16 0.075 0.041 0.052 0.019 -0.002 0.021
C13 0.071 0.038 0.028 0.004 0.005 0.024
C15 0.089 0.069 0.043 0.029 0.001 0.023
C37 0.071 0.038 0.028 0.004 0.005 0.024
C39 0.089 0.069 0.043 0.029 0.001 0.023
C40 0.075 0.041 0.052 0.019 -0.002 0.021
loop_
_geom_bond_atom_site_label_1
_geom_bond_atom_site_label_2
_geom_bond_site_symmetry_1
_geom_bond_site_symmetry_2
C18 C17 1_555 1_555
H11 C18 1_555 1_555
C19 C18 1_555 1_555
C20 C19 1_555 1_555
H12 C20 1_555 1_555
C21 C20 1_555 1_555
H13 C21 1_555 1_555
C22 C21 1_555 1_555
C23 C19 1_555 1_555
H17 C31 1_555 1_555
Er1 N1 1_555 1_555
C5 C6 1_555 1_555
C8 C6 1_555 1_555
H4 C8 1_555 1_555
C9 C10 1_555 1_555
C10 C11 1_555 1_555
C11 H5 1_555 1_555
C12 C10 1_555 1_555
H6 C12 1_555 1_555
N2 Er1 1_555 1_555
O3 Er1 1_555 1_555
O4 Er1 1_555 1_555
O5 Er1 1_555 1_555
O6 Er1 1_555 1_555
C33 C34 1_555 1_555
C34 C35 1_555 1_555
C35 C12 1_555 1_555
H19 C35 1_555 1_555
C36 C11 1_555 1_555
H20 C36 1_555 1_555
O11 C33 1_555 1_555
O12 C33 1_555 1_555
Er6 O11 1_555 1_555
O14 Er1 1_555 1_555
C5 O3 1_555 1_555
C5 O4 1_555 1_555
C9 O5 1_555 1_555
C9 O6 1_555 1_555
C24 N1 1_555 1_555
C34 C36 1_555 1_555
O12 Er6 1_555 1_555
C29 C30 1_555 1_555
H18 C32 1_555 1_555
O9 C29 1_555 1_555
O10 C29 1_555 1_555
Er6 O9 1_555 1_555
C30 C32 1_555 1_555
O10 Er6 1_555 1_555
C1 C2 1_555 1_555
C2 C3 1_555 1_555
C3 H1 1_555 1_555
C7 H3 1_555 1_555
C28 C3 1_555 1_555
H16 C28 1_555 1_555
H22 C38 1_555 1_555
C1 O1 1_555 1_555
H2 C4 1_555 1_555
H8 C14 1_555 1_555
C25 C26 1_555 1_555
C26 C27 1_555 1_555
C27 C4 1_555 1_555
H15 C27 1_555 1_555
O7 C25 1_555 1_555
Er6 O2 1_555 1_555
N3 Er6 1_555 1_555
N4 Er6 1_555 1_555
C48 N3 1_555 1_555
C42 C41 1_555 1_555
H25 C42 1_555 1_555
C43 C42 1_555 1_555
C44 C43 1_555 1_555
H26 C44 1_555 1_555
C45 C44 1_555 1_555
H27 C45 1_555 1_555
C46 C45 1_555 1_555
C47 C43 1_555 1_555
H9 C15 1_555 1_555
H23 C39 1_555 1_555

#END
