
###############################################################################
#
# This file contains modified crystal structure data generated from the
# MOF subset of the Cambridge Structural Database (CSD) v543 
# hosted by the Cambridge Crystallographic Data Centre (CCDC).
#
# This work is licensed under the Creative Commons
# Attribution-NonCommercial-ShareAlike 4.0 International License.
# To view a copy of this license, visit
# http://creativecommons.org/licenses/by-nc-sa/4.0/
# or send a letter to
# Creative Commons, PO Box 1866, Mountain View, CA 94042, USA.
#
# CIF created using the CSD Python API on 29 September 2022
# The structure has been converted into the P1 space group
# The structure has a 3D framework
# The original CSD entry KINFEU is in the triclinic crystal system
# The framework has been calculated to contain at least 10.0% void space
# The void calculation uses a probe of radius 1.32A, grid spacing 0.4
#
###############################################################################

data_KINFEU
_chemical_formula_moiety         '(C108 H84 N4 O50 Tm8)n'
_symmetry_cell_setting           triclinic
_symmetry_space_group_name_H-M   'P 1'
_symmetry_Int_Tables_number      1
_space_group_name_Hall           'P 1'
loop_
_symmetry_equiv_pos_site_id
_symmetry_equiv_pos_as_xyz
1 x,y,z
_cell_length_a                   10.8639(15)
_cell_length_b                   18.667(3)
_cell_length_c                   19.840(3)
_cell_angle_alpha                98.035(2)
_cell_angle_beta                 96.535(2)
_cell_angle_gamma                106.185(2)
_cell_volume                     3776.39
loop_
_atom_site_label
_atom_site_type_symbol
_atom_site_fract_x
_atom_site_fract_y
_atom_site_fract_z
_atom_site_U_iso_or_equiv
_atom_site_thermal_displace_type
O63 O 0.8168(10) 0.0072(5) 0.3491(4) 0.0621 Uani
H1 H 0.0030 0.1112 0.0985 0.2080 Uiso
C9 C 0.179(2) 0.3895(15) 0.0601(13) 0.1780 Uiso
H8 H 0.2184 0.3611 0.0297 0.2680 Uiso
H9 H 0.1719 0.3687 0.1016 0.2680 Uiso
H10 H 0.2324 0.4415 0.0714 0.2680 Uiso
C16 C 0.0025(11) 0.2204(6) 0.5292(6) 0.0376 Uani
H14 H 0.0278 0.2727 0.5436 0.0460 Uiso
C17 C 0.0151(10) 0.1729(6) 0.5759(5) 0.0275 Uani
C18 C 0.0863(10) 0.2062(6) 0.6494(6) 0.0287 Uani
C29 C 0.0143(10) 0.2910(6) 0.2416(6) 0.0296 Uani
C30 C 0.1570(10) 0.3277(6) 0.2470(6) 0.0309 Uani
C31 C 0.2135(10) 0.4024(6) 0.2780(6) 0.0314 Uani
H21 H 0.1638 0.4306 0.2974 0.0380 Uiso
C32 C 0.3444(10) 0.4348(6) 0.2800(7) 0.0390 Uani
H22 H 0.3829 0.4851 0.3013 0.0470 Uiso
C33 C 0.4202(9) 0.3944(7) 0.2509(6) 0.0336 Uani
C34 C 0.5661(11) 0.4371(8) 0.2560(6) 0.0388 Uani
C35 C 0.3649(10) 0.3196(6) 0.2218(7) 0.0374 Uani
H23 H 0.4158 0.2913 0.2041 0.0450 Uiso
C36 C 0.2355(10) 0.2869(6) 0.2189(7) 0.0404 Uani
H24 H 0.1982 0.2364 0.1978 0.0490 Uiso
C37 C 0.0193(10) 0.5836(8) 0.2170(6) 0.0358 Uani
C38 C 0.1568(10) 0.6151(6) 0.2065(6) 0.0312 Uani
C39 C 0.2123(10) 0.6946(7) 0.2120(7) 0.0452 Uani
H25 H 0.1602 0.7264 0.2163 0.0540 Uiso
C40 C 0.3440(10) 0.7249(7) 0.2111(6) 0.0411 Uani
H26 H 0.3786 0.7763 0.2105 0.0490 Uiso
C41 C 0.4231(10) 0.6792(6) 0.2110(6) 0.0306 Uani
C42 C 0.5681(10) 0.7126(6) 0.2222(5) 0.0212 Uani
C43 C 0.3701(10) 0.6017(6) 0.2040(6) 0.0363 Uani
H27 H 0.4230 0.5702 0.2010 0.0440 Uiso
C44 C 0.2358(11) 0.5706(7) 0.2015(6) 0.0387 Uani
H28 H 0.2004 0.5183 0.1963 0.0460 Uiso
C52 C 0.0014(11) 0.4462(6) 0.4447(5) 0.0332 Uani
H32 H 0.0034 0.4098 0.4081 0.0400 Uiso
N2 N 0.0496(19) 0.3854(10) 0.0261(10) 0.1300 Uiso
O7 O 0.1087(7) 0.2756(4) 0.6670(4) 0.0402 Uani
O8 O 0.1165(7) 0.1619(4) 0.6853(4) 0.0434 Uani
O15 O 0.6017(7) 0.5054(5) 0.2759(5) 0.0506 Uani
O16 O 0.6297(7) 0.3961(5) 0.2314(5) 0.0500 Uani
O19 O 0.6112(7) 0.7805(4) 0.2314(5) 0.0525 Uani
O20 O 0.6363(7) 0.6692(4) 0.2204(4) 0.0358 Uani
O26 O 0.6591(8) 0.6391(5) 0.3632(4) 0.0504 Uani
H33 H 0.6440 0.6027 0.3864 0.0760 Uiso
H34 H 0.7080 0.6799 0.3901 0.0760 Uiso
O27 O 0.6597(9) 0.8645(5) 0.3696(5) 0.0648 Uani
H35 H 0.7168 0.8571 0.3996 0.0970 Uiso
H36 H 0.6313 0.9000 0.3883 0.0970 Uiso
Tm3 Tm 0.76366(4) 0.61027(3) 0.27155(2) 0.0205 Uani
Tm4 Tm 0.75087(4) 0.89848(3) 0.27409(2) 0.0215 Uani
C59 C 0.1101(10) 0.4963(7) 0.6387(6) 0.0297 Uani
C60 C 0.0537(9) 0.4983(6) 0.5657(5) 0.0199 Uani
C61 C 0.0552(11) 0.4456(7) 0.5125(5) 0.0378 Uani
H45 H 0.0926 0.4078 0.5207 0.0450 Uiso
O31 O 0.1274(8) 0.5546(5) 0.6831(4) 0.0446 Uani
O32 O 0.1309(7) 0.4355(5) 0.6481(4) 0.0438 Uani
O57 O 0.5700(7) 0.9375(5) 0.2622(6) 0.0636 Uani
O61 O 0.9416(7) 0.9570(6) 0.2462(5) 0.0666 Uani
O66 O 0.8913(7) 0.7244(4) 0.3330(4) 0.0402 Uani
O68 O 0.8835(7) 0.8381(4) 0.3147(4) 0.0434 Uani
O70 O 0.7139(10) 0.8897(6) 0.1590(5) 0.0796 Uani
O73 O 0.9583(8) 0.6299(5) 0.2315(5) 0.0517 Uani
O76 O 0.7142(7) 0.5431(5) 0.1633(4) 0.0395 Uani
O79 O 0.8691(7) 0.5645(5) 0.3519(4) 0.0438 Uani
Tm11 Tm 0.82746(4) 0.40084(3) 0.20225(2) 0.0194 Uani
Tm14 Tm 0.17254(4) 0.59916(3) 0.79775(2) 0.0194 Uani
Tm19 Tm 0.23634(4) 0.38973(3) 0.72845(2) 0.0205 Uani
Tm25 Tm 0.24913(4) 0.10152(3) 0.72591(2) 0.0215 Uani
C3 C 0.021(3) 0.386(2) 0.9520(19) 0.2870 Uiso
H3 H 0.0521 0.3491 0.9264 0.4310 Uiso
H4 H 0.0626 0.4354 0.9429 0.4310 Uiso
C53 C 0.071(3) 0.099(2) 0.964(2) 0.3000 Uiso
H37 H 0.1508 0.1395 0.9748 0.4430 Uiso
H38 H 0.0418 0.0879 0.9152 0.4430 Uiso
H39 H 0.0848 0.0545 0.9790 0.4430 Uiso
O36 O 0.0584(7) 0.0430(6) 0.7538(5) 0.0666 Uani
O35 O 0.0008(7) 0.9346(5) 0.7911(5) 0.0502 Uani
Tm10 Tm 0.17663(4) 0.89198(3) 0.79485(2) 0.0209 Uani
C1 C 0.940(3) 0.1247(17) 0.0715(18) 0.1730 Uiso
N1 N 0.967(3) 0.1221(17) 0.0016(17) 0.2260 Uiso
C5 C 0.9565(19) 0.3810(11) 0.0666(11) 0.0980 Uiso
H5 H 0.8762 0.3789 0.0429 0.1180 Uiso
C6 C 0.3796(11) 0.0576(7) 0.2196(6) 0.0428 Uani
H6 H 0.4438 0.0956 0.2070 0.0510 Uiso
C7 C 0.2563(10) 0.0615(6) 0.2132(6) 0.0336 Uani
H7 H 0.2361 0.1013 0.1957 0.0400 Uiso
C8 C 0.1592(9) 0.0051(6) 0.2332(5) 0.0243 Uani
C10 C 0.0237(11) 0.0097(8) 0.2294(6) 0.0398 Uani
C13 C 0.8639(11) 0.0782(7) 0.3653(6) 0.0322 Uani
C14 C 0.9090(10) 0.1112(6) 0.4405(6) 0.0326 Uani
C15 C 0.9520(12) 0.1889(7) 0.4611(6) 0.0445 Uani
H13 H 0.9469 0.2202 0.4289 0.0530 Uiso
C19 C 0.9620(11) 0.0952(6) 0.5558(6) 0.0349 Uani
H15 H 0.9599 0.0635 0.5882 0.0420 Uiso
C20 C 0.9142(12) 0.0664(6) 0.4903(6) 0.0452 Uani
H16 H 0.8828 0.0139 0.4770 0.0540 Uiso
C21 C 0.6618(11) 0.2160(7) 0.1346(6) 0.0342 Uani
C22 C 0.5642(11) 0.1790(6) 0.0710(6) 0.0330 Uani
C23 C 0.5321(15) 0.2197(7) 0.0222(8) 0.0792 Uani
H17 H 0.5667 0.2723 0.0316 0.0950 Uiso
C28 C 0.5045(11) 0.1025(6) 0.0580(6) 0.0370 Uani
H20 H 0.5214 0.0732 0.0902 0.0440 Uiso
C45 C 0.6844(10) 0.4910(7) 0.1145(6) 0.0266 Uani
C46 C 0.5899(10) 0.4952(7) 0.0544(6) 0.0307 Uani
C47 C 0.5409(10) 0.5576(6) 0.0560(6) 0.0322 Uani
H29 H 0.5678 0.5965 0.0942 0.0390 Uiso
C49 C 0.8899(10) 0.5037(7) 0.3613(6) 0.0297 Uani
C50 C 0.9463(9) 0.5017(6) 0.4343(5) 0.0199 Uani
C51 C 0.9448(11) 0.5544(7) 0.4875(5) 0.0378 Uani
H31 H 0.9074 0.5922 0.4793 0.0450 Uiso
O1 O 0.6319(7) 0.0525(5) 0.2394(5) 0.0479 Uani
O5 O 0.8715(7) 0.1213(5) 0.3216(4) 0.0419 Uani
O9 O 0.6936(7) 0.1751(4) 0.1717(4) 0.0361 Uani
O10 O 0.7031(8) 0.2870(4) 0.1466(4) 0.0541 Uani
O13 O 0.9772(7) 0.2211(4) 0.2351(5) 0.0490 Uani
O14 O 0.9428(6) 0.3329(4) 0.2473(4) 0.0292 Uani
O17 O 0.9738(7) 0.5152(4) 0.2090(4) 0.0388 Uani
O21 O 0.7292(8) 0.4363(4) 0.1090(4) 0.0421 Uani
O23 O 0.8726(8) 0.4454(5) 0.3169(4) 0.0446 Uani
O25 O 0.8768(13) 0.1360(7) 0.0997(6) 0.1038 Uani
O28 O 0.9563(10) 0.3795(6) 0.1216(5) 0.0737 Uani
H42 H 0.8042 0.1358 0.0025 0.3780 Uiso
Tm1 Tm 0.82337(4) 0.10802(3) 0.20515(2) 0.0209 Uani
C58 C 0.4540(11) 0.5617(7) 0.0018(6) 0.0409 Uani
H44 H 0.4244 0.6040 0.0034 0.0490 Uiso
C62 C 0.9986(11) 0.5538(6) 0.5553(5) 0.0332 Uani
H46 H 0.9966 0.5902 0.5919 0.0400 Uiso
O59 O 0.9992(7) 0.0654(5) 0.2089(5) 0.0502 Uani
H2 H 0.9286 0.3737 0.9384 0.4310 Uiso
C24 C 0.4508(13) 0.1860(8) 0.9598(7) 0.0660 Uani
H18 H 0.4378 0.2147 0.9265 0.0790 Uiso
C25 C 0.3910(11) 0.1107(6) 0.9488(6) 0.0349 Uani
C26 C 0.3106(12) 0.0704(9) 0.8838(7) 0.0475 Uani
C27 C 0.4192(12) 0.0683(7) 0.9975(6) 0.0463 Uani
H19 H 0.3800 0.0161 0.9891 0.0550 Uiso
C48 C 0.5460(11) 0.4383(7) 0.9982(6) 0.0409 Uani
H30 H 0.5756 0.3960 0.9966 0.0490 Uiso
O11 O 0.2861(10) 0.1103(6) 0.8410(5) 0.0796 Uani
O12 O 0.2660(8) 0.0005(5) 0.8725(4) 0.0496 Uani
C54 C 0.863(3) 0.1330(19) 0.9704(17) 0.2520 Uiso
H40 H 0.8222 0.0916 0.9329 0.3780 Uiso
H41 H 0.8870 0.1796 0.9530 0.3780 Uiso
C55 C 0.3156(10) 0.5090(7) 0.8855(6) 0.0266 Uani
C56 C 0.4101(10) 0.5048(7) 0.9456(6) 0.0307 Uani
C57 C 0.4591(10) 0.4424(6) 0.9440(6) 0.0322 Uani
H43 H 0.4322 0.4035 0.9058 0.0390 Uiso
O29 O 0.2708(8) 0.5637(4) 0.8910(4) 0.0421 Uani
O30 O 0.2858(7) 0.4569(5) 0.8367(4) 0.0395 Uani
C64 C 0.4485(11) 0.0034(7) 0.7509(6) 0.0359 Uani
C66 C 0.5878(10) 0.0001(6) 0.7562(6) 0.0316 Uani
C73 C 0.8062(10) 0.0535(7) 0.7424(7) 0.0409 Uani
H57 H 0.8686 0.0912 0.7282 0.0490 Uiso
C74 C 0.6849(11) 0.0570(7) 0.7389(7) 0.0520 Uani
H58 H 0.6650 0.0983 0.7245 0.0620 Uiso
O34 O 0.4300(7) 0.0625(5) 0.7378(6) 0.0636 Uani
C2 C 0.5515(11) 0.9966(7) 0.2491(6) 0.0359 Uani
C4 C 0.4122(10) 0.9999(6) 0.2438(6) 0.0316 Uani
C11 C 0.1938(10) 0.9465(7) 0.2576(7) 0.0409 Uani
H11 H 0.1314 0.9088 0.2718 0.0490 Uiso
C12 C 0.3151(11) 0.9430(7) 0.2611(7) 0.0520 Uani
H12 H 0.3350 0.9017 0.2755 0.0620 Uiso
H48 H 0.0714 0.6263 0.0616 0.4310 Uiso
C86 C 0.5492(13) 0.8140(8) 0.0402(7) 0.0660 Uani
H64 H 0.5622 0.7853 0.0735 0.0790 Uiso
C87 C 0.6090(11) 0.8893(6) 0.0512(6) 0.0349 Uani
C88 C 0.6894(12) 0.9296(9) 0.1162(7) 0.0475 Uani
C89 C 0.5808(12) 0.9317(7) 0.0025(6) 0.0463 Uani
H65 H 0.6200 0.9839 0.0109 0.0550 Uiso
O44 O 0.7340(8) 0.9995(5) 0.1275(4) 0.0496 Uani
C108 C 0.137(3) 0.8670(19) 0.0296(17) 0.2520 Uiso
H82 H 0.1778 0.9084 0.0671 0.3780 Uiso
H83 H 0.1130 0.8204 0.0470 0.3780 Uiso
C63 C 0.060(3) 0.8753(17) 0.9285(18) 0.1730 Uiso
N3 N 0.033(3) 0.8779(17) 0.9984(17) 0.2260 Uiso
C67 C 0.0435(19) 0.6190(11) 0.9334(11) 0.0980 Uiso
H51 H 0.1238 0.6211 0.9571 0.1180 Uiso
C68 C 0.6204(11) 0.9424(7) 0.7804(6) 0.0428 Uani
H52 H 0.5562 0.9044 0.7930 0.0510 Uiso
C69 C 0.7437(10) 0.9385(6) 0.7868(6) 0.0336 Uani
H53 H 0.7639 0.8987 0.8043 0.0400 Uiso
C70 C 0.8408(9) 0.9949(6) 0.7668(5) 0.0243 Uani
C72 C 0.9763(11) 0.9903(8) 0.7706(6) 0.0398 Uani
C75 C 0.1361(11) 0.9218(7) 0.6347(6) 0.0322 Uani
C76 C 0.0910(10) 0.8888(6) 0.5595(6) 0.0326 Uani
C77 C 0.0480(12) 0.8111(7) 0.5389(6) 0.0445 Uani
H59 H 0.0531 0.7798 0.5711 0.0530 Uiso
C81 C 0.0380(11) 0.9048(6) 0.4442(6) 0.0349 Uani
H61 H 0.0401 0.9365 0.4118 0.0420 Uiso
C82 C 0.0858(12) 0.9336(6) 0.5097(6) 0.0452 Uani
H62 H 0.1172 0.9861 0.5230 0.0540 Uiso
C83 C 0.3382(11) 0.7840(7) 0.8654(6) 0.0342 Uani
C84 C 0.4358(11) 0.8210(6) 0.9290(6) 0.0330 Uani
C85 C 0.4679(15) 0.7803(7) 0.9778(8) 0.0792 Uani
H63 H 0.4333 0.7277 0.9684 0.0950 Uiso
C90 C 0.4955(11) 0.8975(6) 0.9420(6) 0.0370 Uani
H66 H 0.4786 0.9268 0.9098 0.0440 Uiso
O33 O 0.3681(7) 0.9475(5) 0.7606(5) 0.0479 Uani
O37 O 0.1285(7) 0.8787(5) 0.6784(4) 0.0419 Uani
O38 O 0.1832(10) 0.9928(5) 0.6509(4) 0.0621 Uani
O41 O 0.3064(7) 0.8249(4) 0.8283(4) 0.0361 Uani
O42 O 0.2969(8) 0.7130(4) 0.8534(4) 0.0541 Uani
O45 O 0.0228(7) 0.7789(4) 0.7649(5) 0.0490 Uani
O46 O 0.0572(6) 0.6671(4) 0.7527(4) 0.0292 Uani
O49 O 0.0262(7) 0.4848(4) 0.7910(4) 0.0388 Uani
O50 O 0.0417(8) 0.3701(5) 0.7685(5) 0.0517 Uani
O53 O 0.1232(13) 0.8640(7) 0.9003(6) 0.1038 Uani
O56 O 0.0437(10) 0.6205(6) 0.8784(5) 0.0737 Uani
H84 H 0.1958 0.8642 0.9975 0.3780 Uiso
O72 O 0.3703(7) 0.6039(5) 0.7686(5) 0.0500 Uani
C65 C 0.979(3) 0.614(2) 0.0480(19) 0.2870 Uiso
H49 H 0.9479 0.6509 0.0736 0.4310 Uiso
H50 H 0.9374 0.5646 0.0571 0.4310 Uiso
C107 C 0.929(3) 0.901(2) 0.036(2) 0.3000 Uiso
H79 H 0.8492 0.8605 0.0252 0.4430 Uiso
H80 H 0.9582 0.9121 0.0848 0.4430 Uiso
H81 H 0.9152 0.9455 0.0210 0.4430 Uiso
H47 H 0.9970 0.8888 0.9015 0.2080 Uiso
C71 C 0.821(2) 0.6105(15) 0.9399(13) 0.1780 Uiso
H54 H 0.7816 0.6389 0.9703 0.2680 Uiso
H55 H 0.8281 0.6313 0.8984 0.2680 Uiso
H56 H 0.7676 0.5585 0.9286 0.2680 Uiso
C78 C 0.9975(11) 0.7796(6) 0.4708(6) 0.0376 Uani
H60 H 0.9722 0.7273 0.4564 0.0460 Uiso
C79 C 0.9849(10) 0.8271(6) 0.4241(5) 0.0275 Uani
C80 C 0.9137(10) 0.7938(6) 0.3506(6) 0.0287 Uani
C91 C 0.9857(10) 0.7090(6) 0.7584(6) 0.0296 Uani
C92 C 0.8430(10) 0.6723(6) 0.7530(6) 0.0309 Uani
C93 C 0.7865(10) 0.5976(6) 0.7220(6) 0.0314 Uani
H67 H 0.8362 0.5694 0.7026 0.0380 Uiso
C94 C 0.6556(10) 0.5652(6) 0.7200(7) 0.0390 Uani
H68 H 0.6171 0.5149 0.6987 0.0470 Uiso
C95 C 0.5798(9) 0.6056(7) 0.7491(6) 0.0336 Uani
C96 C 0.4339(11) 0.5629(8) 0.7440(6) 0.0388 Uani
C97 C 0.6351(10) 0.6804(6) 0.7782(7) 0.0374 Uani
H69 H 0.5842 0.7087 0.7959 0.0450 Uiso
C98 C 0.7645(10) 0.7131(6) 0.7811(7) 0.0404 Uani
H70 H 0.8018 0.7636 0.8022 0.0490 Uiso
C99 C 0.9807(10) 0.4164(8) 0.7830(6) 0.0358 Uani
C100 C 0.8432(10) 0.3849(6) 0.7935(6) 0.0312 Uani
C101 C 0.7877(10) 0.3054(7) 0.7880(7) 0.0452 Uani
H71 H 0.8398 0.2736 0.7837 0.0540 Uiso
C102 C 0.6560(10) 0.2751(7) 0.7889(6) 0.0411 Uani
H72 H 0.6214 0.2237 0.7895 0.0490 Uiso
C103 C 0.5769(10) 0.3208(6) 0.7890(6) 0.0306 Uani
C104 C 0.4319(10) 0.2874(6) 0.7778(5) 0.0212 Uani
C105 C 0.6299(10) 0.3983(6) 0.7960(6) 0.0363 Uani
H73 H 0.5770 0.4298 0.7990 0.0440 Uiso
C106 C 0.7642(11) 0.4294(7) 0.7985(6) 0.0387 Uani
H74 H 0.7996 0.4817 0.8037 0.0460 Uiso
N4 N 0.9504(19) 0.6146(10) 0.9739(10) 0.1300 Uiso
O47 O 0.3983(7) 0.4946(5) 0.7241(5) 0.0506 Uani
O51 O 0.3888(7) 0.2195(4) 0.7686(5) 0.0525 Uani
O52 O 0.3637(7) 0.3308(4) 0.7796(4) 0.0358 Uani
O54 O 0.3409(8) 0.3609(5) 0.6368(4) 0.0504 Uani
H75 H 0.3560 0.3973 0.6136 0.0760 Uiso
H76 H 0.2920 0.3201 0.6099 0.0760 Uiso
O55 O 0.3403(9) 0.1355(5) 0.6304(5) 0.0648 Uani
H77 H 0.2832 0.1429 0.6004 0.0970 Uiso
H78 H 0.3687 0.1000 0.6117 0.0970 Uiso
loop_
_atom_site_aniso_label
_atom_site_aniso_U_11
_atom_site_aniso_U_22
_atom_site_aniso_U_33
_atom_site_aniso_U_23
_atom_site_aniso_U_13
_atom_site_aniso_U_12
O63 0.101 0.042 0.033 -0.014 -0.01 0.023
C16 0.052 0.02 0.03 -0.004 0 0
C17 0.036 0.03 0.022 0.008 0.002 0.018
C18 0.019 0.024 0.036 0.003 -0.003 -0.001
C29 0.028 0.024 0.038 0.014 0.014 0.002
C30 0.028 0.03 0.045 0.021 0.007 0.018
C31 0.018 0.015 0.052 -0.004 -0.005 -0.001
C32 0.025 0.004 0.079 0.005 -0.001 -0.005
C33 0.008 0.043 0.054 0.013 0.008 0.011
C34 0.019 0.052 0.038 0.012 -0.008 0.002
C35 0.014 0.019 0.078 0.011 0.012 0
C36 0.025 0.019 0.066 0.006 0.008 -0.011
C37 0.014 0.055 0.032 -0.003 -0.003 0.008
C38 0.026 0.02 0.033 0.003 0.003 -0.015
C39 0.019 0.048 0.07 0.008 0.003 0.015
C40 0.012 0.046 0.062 0.009 0.021 -0.002
C41 0.025 0.024 0.044 0.01 0.006 0.007
C42 0.018 0.014 0.027 -0.005 0.003 0.002
C43 0.024 0.024 0.064 0.016 0.015 0.005
C44 0.035 0.029 0.05 0.006 -0.001 0.01
C52 0.052 0.037 0.019 0.008 0.004 0.026
O7 0.049 0.026 0.032 -0.008 -0.019 0.006
O8 0.055 0.035 0.038 0.009 -0.016 0.018
O15 0.019 0.039 0.079 0.001 0.002 -0.008
O16 0.029 0.049 0.078 0.017 0.03 0.01
O19 0.034 0.019 0.1 0.007 0.005 0.005
O20 0.023 0.035 0.048 0.004 -0.007 0.013
O26 0.067 0.052 0.042 0.007 0.027 0.027
O27 0.092 0.075 0.066 0.052 0.045 0.055
Tm3 0.0207 0.0181 0.0217 0.0011 -0.0018 0.0073
Tm4 0.0195 0.0173 0.0276 0.0048 0.0009 0.0061
C59 0.025 0.039 0.026 0.004 0.006 0.011
C60 0.02 0.02 0.017 -0.003 0 0.006
C61 0.06 0.035 0.02 0.005 -0.014 0.025
O31 0.061 0.05 0.026 0.006 0.007 0.022
O32 0.049 0.043 0.04 0.017 -0.016 0.019
O57 0.016 0.041 0.139 0.026 0.008 0.014
O61 0.019 0.109 0.084 0.057 0.02 0.015
O66 0.049 0.026 0.032 -0.008 -0.019 0.006
O68 0.055 0.035 0.038 0.009 -0.016 0.018
O70 0.086 0.084 0.035 0.014 -0.027 -0.016
O73 0.035 0.047 0.067 -0.001 0.021 0.003
O76 0.035 0.051 0.026 -0.013 -0.01 0.018
O79 0.049 0.043 0.04 0.017 -0.016 0.019
Tm11 0.0219 0.0176 0.0186 0.0029 -0.0002 0.0074
Tm14 0.0219 0.0176 0.0186 0.0029 -0.0002 0.0074
Tm19 0.0207 0.0181 0.0217 0.0011 -0.0018 0.0073
Tm25 0.0195 0.0173 0.0276 0.0048 0.0009 0.0061
O36 0.019 0.109 0.084 0.057 0.02 0.015
O35 0.035 0.056 0.061 -0.006 -0.003 0.028
Tm10 0.0202 0.0176 0.0253 0.0048 0.0019 0.0065
C6 0.023 0.052 0.059 0.024 0.013 0.011
C7 0.031 0.033 0.05 0.023 0.007 0.023
C8 0.017 0.044 0.021 0.012 0.007 0.019
C10 0.03 0.067 0.021 0 -0.011 0.022
C13 0.029 0.038 0.028 -0.005 -0.003 0.016
C14 0.032 0.031 0.025 -0.009 0.003 0.001
C15 0.084 0.033 0.019 0.01 0.011 0.018
C19 0.055 0.016 0.025 0.001 -0.011 0.005
C20 0.073 0.006 0.048 0.007 0.004 -0.001
C21 0.037 0.027 0.046 0.01 -0.012 0.027
C22 0.045 0.026 0.026 -0.006 -0.01 0.019
C23 0.112 0.016 0.087 0.024 -0.043 -0.001
C28 0.052 0.022 0.031 0.002 -0.019 0.013
C45 0.022 0.036 0.021 0.011 -0.003 0.007
C46 0.026 0.045 0.024 0.012 -0.012 0.019
C47 0.041 0.027 0.029 -0.005 -0.01 0.022
C49 0.025 0.039 0.026 0.004 0.006 0.011
C50 0.02 0.02 0.017 -0.003 0 0.006
C51 0.06 0.035 0.02 0.005 -0.014 0.025
O1 0.02 0.053 0.081 0.026 0.023 0.015
O5 0.048 0.037 0.031 -0.005 0 0.005
O9 0.042 0.023 0.042 0 -0.017 0.02
O10 0.074 0.019 0.054 -0.001 -0.038 0.012
O13 0.022 0.018 0.103 0.017 0.001 0
O14 0.025 0.032 0.032 0.012 -0.001 0.01
O17 0.019 0.023 0.073 0.021 0 0.001
O21 0.056 0.023 0.034 -0.004 -0.026 0.008
O23 0.061 0.05 0.026 0.006 0.007 0.022
O25 0.163 0.12 0.095 0.059 0.099 0.099
O28 0.115 0.103 0.04 0.032 0.044 0.07
Tm1 0.0202 0.0176 0.0253 0.0048 0.0019 0.0065
C58 0.055 0.031 0.035 0.005 -0.009 0.017
C62 0.052 0.037 0.019 0.008 0.004 0.026
O59 0.035 0.056 0.061 -0.006 -0.003 0.028
C24 0.072 0.056 0.046 0.026 -0.04 -0.008
C25 0.05 0.021 0.021 0.002 -0.02 0.001
C26 0.032 0.057 0.039 0.003 0 -0.005
C27 0.068 0.018 0.046 -0.006 -0.002 0.012
C48 0.055 0.031 0.035 0.005 -0.009 0.017
O11 0.086 0.084 0.035 0.014 -0.027 -0.016
O12 0.044 0.046 0.043 -0.025 -0.015 0.013
C55 0.022 0.036 0.021 0.011 -0.003 0.007
C56 0.026 0.045 0.024 0.012 -0.012 0.019
C57 0.041 0.027 0.029 -0.005 -0.01 0.022
O29 0.056 0.023 0.034 -0.004 -0.026 0.008
O30 0.035 0.051 0.026 -0.013 -0.01 0.018
C64 0.025 0.04 0.052 0.014 0.009 0.021
C66 0.017 0.027 0.057 0.016 0.01 0.011
C73 0.015 0.034 0.072 0.022 0.016 -0.005
C74 0.028 0.038 0.094 0.034 0.001 0.009
O34 0.016 0.041 0.139 0.026 0.008 0.014
C2 0.025 0.04 0.052 0.014 0.009 0.021
C4 0.017 0.027 0.057 0.016 0.01 0.011
C11 0.015 0.034 0.072 0.022 0.016 -0.005
C12 0.028 0.038 0.094 0.034 0.001 0.009
C86 0.072 0.056 0.046 0.026 -0.04 -0.008
C87 0.05 0.021 0.021 0.002 -0.02 0.001
C88 0.032 0.057 0.039 0.003 0 -0.005
C89 0.068 0.018 0.046 -0.006 -0.002 0.012
O44 0.044 0.046 0.043 -0.025 -0.015 0.013
C68 0.023 0.052 0.059 0.024 0.013 0.011
C69 0.031 0.033 0.05 0.023 0.007 0.023
C70 0.017 0.044 0.021 0.012 0.007 0.019
C72 0.03 0.067 0.021 0 -0.011 0.022
C75 0.029 0.038 0.028 -0.005 -0.003 0.016
C76 0.032 0.031 0.025 -0.009 0.003 0.001
C77 0.084 0.033 0.019 0.01 0.011 0.018
C81 0.055 0.016 0.025 0.001 -0.011 0.005
C82 0.073 0.006 0.048 0.007 0.004 -0.001
C83 0.037 0.027 0.046 0.01 -0.012 0.027
C84 0.045 0.026 0.026 -0.006 -0.01 0.019
C85 0.112 0.016 0.087 0.024 -0.043 -0.001
C90 0.052 0.022 0.031 0.002 -0.019 0.013
O33 0.02 0.053 0.081 0.026 0.023 0.015
O37 0.048 0.037 0.031 -0.005 0 0.005
O38 0.101 0.042 0.033 -0.014 -0.01 0.023
O41 0.042 0.023 0.042 0 -0.017 0.02
O42 0.074 0.019 0.054 -0.001 -0.038 0.012
O45 0.022 0.018 0.103 0.017 0.001 0
O46 0.025 0.032 0.032 0.012 -0.001 0.01
O49 0.019 0.023 0.073 0.021 0 0.001
O50 0.035 0.047 0.067 -0.001 0.021 0.003
O53 0.163 0.12 0.095 0.059 0.099 0.099
O56 0.115 0.103 0.04 0.032 0.044 0.07
O72 0.029 0.049 0.078 0.017 0.03 0.01
C78 0.052 0.02 0.03 -0.004 0 0
C79 0.036 0.03 0.022 0.008 0.002 0.018
C80 0.019 0.024 0.036 0.003 -0.003 -0.001
C91 0.028 0.024 0.038 0.014 0.014 0.002
C92 0.028 0.03 0.045 0.021 0.007 0.018
C93 0.018 0.015 0.052 -0.004 -0.005 -0.001
C94 0.025 0.004 0.079 0.005 -0.001 -0.005
C95 0.008 0.043 0.054 0.013 0.008 0.011
C96 0.019 0.052 0.038 0.012 -0.008 0.002
C97 0.014 0.019 0.078 0.011 0.012 0
C98 0.025 0.019 0.066 0.006 0.008 -0.011
C99 0.014 0.055 0.032 -0.003 -0.003 0.008
C100 0.026 0.02 0.033 0.003 0.003 -0.015
C101 0.019 0.048 0.07 0.008 0.003 0.015
C102 0.012 0.046 0.062 0.009 0.021 -0.002
C103 0.025 0.024 0.044 0.01 0.006 0.007
C104 0.018 0.014 0.027 -0.005 0.003 0.002
C105 0.024 0.024 0.064 0.016 0.015 0.005
C106 0.035 0.029 0.05 0.006 -0.001 0.01
O47 0.019 0.039 0.079 0.001 0.002 -0.008
O51 0.034 0.019 0.1 0.007 0.005 0.005
O52 0.023 0.035 0.048 0.004 -0.007 0.013
O54 0.067 0.052 0.042 0.007 0.027 0.027
O55 0.092 0.075 0.066 0.052 0.045 0.055
loop_
_geom_bond_atom_site_label_1
_geom_bond_atom_site_label_2
_geom_bond_site_symmetry_1
_geom_bond_site_symmetry_2
C9 H8 1_555 1_555
H9 C9 1_555 1_555
H10 C9 1_555 1_555
H14 C16 1_555 1_555
C17 C16 1_555 1_555
C18 C17 1_555 1_555
C29 C30 1_555 1_555
C30 C31 1_555 1_555
C31 H21 1_555 1_555
C32 C31 1_555 1_555
H22 C32 1_555 1_555
C33 C32 1_555 1_555
C34 C33 1_555 1_555
C35 C33 1_555 1_555
H23 C35 1_555 1_555
C36 C30 1_555 1_555
H24 C36 1_555 1_555
C37 C38 1_555 1_555
C38 C39 1_555 1_555
C39 H25 1_555 1_555
C40 C39 1_555 1_555
H26 C40 1_555 1_555
C41 C40 1_555 1_555
C42 C41 1_555 1_555
C43 C41 1_555 1_555
H27 C43 1_555 1_555
C44 C38 1_555 1_555
H28 C44 1_555 1_555
H32 C52 1_555 1_555
O7 C18 1_555 1_555
O8 C18 1_555 1_555
O15 C34 1_555 1_555
O16 C34 1_555 1_555
O19 C42 1_555 1_555
O20 C42 1_555 1_555
O26 H33 1_555 1_555
H34 O26 1_555 1_555
O27 H35 1_555 1_555
H36 O27 1_555 1_555
Tm3 O15 1_555 1_555
Tm4 O19 1_555 1_555
C59 C60 1_555 1_555
C60 C61 1_555 1_555
C61 C52 1_555 1_555
H45 C61 1_555 1_555
O31 C59 1_555 1_555
O32 C59 1_555 1_555
O57 Tm4 1_555 1_555
O61 Tm4 1_555 1_555
O66 Tm3 1_555 1_555
O68 Tm4 1_555 1_555
O70 Tm4 1_555 1_555
O73 Tm3 1_555 1_555
O76 Tm3 1_555 1_555
O79 Tm3 1_555 1_555
Tm11 O16 1_555 1_555
Tm14 O31 1_555 1_555
Tm19 O7 1_555 1_555
Tm25 O8 1_555 1_555
C9 N2 1_555 1_555
C35 C36 1_555 1_555
C43 C44 1_555 1_555
O20 Tm3 1_555 1_555
O26 Tm3 1_555 1_555
O27 Tm4 1_555 1_555
O32 Tm19 1_555 1_555
H3 C3 1_555 1_555
H4 C3 1_555 1_555
H37 C53 1_555 1_555
H38 C53 1_555 1_555
H39 C53 1_555 1_555
Tm25 O36 1_555 1_555
Tm10 O35 1_555 1_555
N1 C1 1_555 1_555
C5 H5 1_555 1_555
C6 H6 1_555 1_555
C7 C6 1_555 1_555
H7 C7 1_555 1_555
C8 C7 1_555 1_555
C10 C8 1_555 1_555
C13 C14 1_555 1_555
C14 C15 1_555 1_555
C15 H13 1_555 1_555
H15 C19 1_555 1_555
C20 C14 1_555 1_555
H16 C20 1_555 1_555
C21 C22 1_555 1_555
C22 C23 1_555 1_555
C23 H17 1_555 1_555
C28 C22 1_555 1_555
H20 C28 1_555 1_555
C45 C46 1_555 1_555
C46 C47 1_555 1_555
C47 H29 1_555 1_555
C49 C50 1_555 1_555
C50 C51 1_555 1_555
C51 H31 1_555 1_555
O5 C13 1_555 1_555
O63 C13 1_555 1_555
O9 C21 1_555 1_555
O10 C21 1_555 1_555
O21 C45 1_555 1_555
O76 C45 1_555 1_555
O23 C49 1_555 1_555
O79 C49 1_555 1_555
O25 C1 1_555 1_555
O28 C5 1_555 1_555
Tm1 O1 1_555 1_555
Tm11 O10 1_555 1_555
C58 C47 1_555 1_555
H44 C58 1_555 1_555
C62 C51 1_555 1_555
H46 C62 1_555 1_555
O59 Tm1 1_555 1_555
C19 C20 1_555 1_555
O5 Tm1 1_555 1_555
O9 Tm1 1_555 1_555
O13 Tm1 1_555 1_555
O14 Tm11 1_555 1_555
O17 Tm11 1_555 1_555
O21 Tm11 1_555 1_555
O23 Tm11 1_555 1_555
O25 Tm1 1_555 1_555
O28 Tm11 1_555 1_555
H18 C24 1_555 1_555
C25 C24 1_555 1_555
C26 C25 1_555 1_555
C27 C25 1_555 1_555
H19 C27 1_555 1_555
H30 C48 1_555 1_555
O11 C26 1_555 1_555
O12 C26 1_555 1_555
H40 C54 1_555 1_555
H41 C54 1_555 1_555
C55 C56 1_555 1_555
C56 C57 1_555 1_555
C57 C48 1_555 1_555
H43 C57 1_555 1_555
O29 C55 1_555 1_555
O30 C55 1_555 1_555
C64 C66 1_555 1_555
H57 C73 1_555 1_555
C74 C66 1_555 1_555
H58 C74 1_555 1_555
O34 C64 1_555 1_555
Tm14 O29 1_555 1_555
Tm19 O30 1_555 1_555
Tm25 O11 1_555 1_555
C73 C74 1_555 1_555
O34 Tm25 1_555 1_555
C2 C4 1_555 1_555
H11 C11 1_555 1_555
C12 C4 1_555 1_555
H12 C12 1_555 1_555
O57 C2 1_555 1_555
H64 C86 1_555 1_555
C87 C86 1_555 1_555
C88 C87 1_555 1_555
C89 C87 1_555 1_555
H65 C89 1_555 1_555
O70 C88 1_555 1_555
H82 C108 1_555 1_555
H83 C108 1_555 1_555
C11 C12 1_555 1_555
C88 O44 1_555 1_555
N3 C63 1_555 1_555
C67 H51 1_555 1_555
C68 H52 1_555 1_555
C69 C68 1_555 1_555
H53 C69 1_555 1_555
C70 C69 1_555 1_555
C72 C70 1_555 1_555
C75 C76 1_555 1_555
C76 C77 1_555 1_555
C77 H59 1_555 1_555
H61 C81 1_555 1_555
C82 C76 1_555 1_555
H62 C82 1_555 1_555
C83 C84 1_555 1_555
C84 C85 1_555 1_555
C85 H63 1_555 1_555
C90 C84 1_555 1_555
H66 C90 1_555 1_555
O37 C75 1_555 1_555
O38 C75 1_555 1_555
O41 C83 1_555 1_555
O42 C83 1_555 1_555
O53 C63 1_555 1_555
O56 C67 1_555 1_555
Tm14 O42 1_555 1_555
O72 Tm14 1_555 1_555
Tm19 O50 1_555 1_555
C81 C82 1_555 1_555
O33 Tm10 1_555 1_555
O37 Tm10 1_555 1_555
O41 Tm10 1_555 1_555
O45 Tm10 1_555 1_555
O46 Tm14 1_555 1_555
O49 Tm14 1_555 1_555
O53 Tm10 1_555 1_555
O56 Tm14 1_555 1_555
H49 C65 1_555 1_555
H50 C65 1_555 1_555
H79 C107 1_555 1_555
H80 C107 1_555 1_555
H81 C107 1_555 1_555
C71 H54 1_555 1_555
H55 C71 1_555 1_555
H56 C71 1_555 1_555
H60 C78 1_555 1_555
C79 C78 1_555 1_555
C80 C79 1_555 1_555
C91 C92 1_555 1_555
C92 C93 1_555 1_555
C93 H67 1_555 1_555
C94 C93 1_555 1_555
H68 C94 1_555 1_555
C95 C94 1_555 1_555
C96 C95 1_555 1_555
C97 C95 1_555 1_555
H69 C97 1_555 1_555
C98 C92 1_555 1_555
H70 C98 1_555 1_555
C99 C100 1_555 1_555
C100 C101 1_555 1_555
C101 H71 1_555 1_555
C102 C101 1_555 1_555
H72 C102 1_555 1_555
C103 C102 1_555 1_555
C104 C103 1_555 1_555
C105 C103 1_555 1_555
H73 C105 1_555 1_555
C106 C100 1_555 1_555
H74 C106 1_555 1_555
O66 C80 1_555 1_555
O68 C80 1_555 1_555
O47 C96 1_555 1_555
O72 C96 1_555 1_555
O51 C104 1_555 1_555
O52 C104 1_555 1_555
O54 H75 1_555 1_555
H76 O54 1_555 1_555
O55 H77 1_555 1_555
H78 O55 1_555 1_555
Tm19 O47 1_555 1_555
Tm25 O51 1_555 1_555
C71 N4 1_555 1_555
C97 C98 1_555 1_555
C105 C106 1_555 1_555
O52 Tm19 1_555 1_555
O54 Tm19 1_555 1_555
O55 Tm25 1_555 1_555

#END
