
###############################################################################
#
# This file contains modified crystal structure data generated from the
# MOF subset of the Cambridge Structural Database (CSD) v543 
# hosted by the Cambridge Crystallographic Data Centre (CCDC).
#
# This work is licensed under the Creative Commons
# Attribution-NonCommercial-ShareAlike 4.0 International License.
# To view a copy of this license, visit
# http://creativecommons.org/licenses/by-nc-sa/4.0/
# or send a letter to
# Creative Commons, PO Box 1866, Mountain View, CA 94042, USA.
#
# CIF created using the CSD Python API on 29 September 2022
# The structure has been converted into the P1 space group
# The structure has a 3D framework
# The original CSD entry KINGIZ is in the monoclinic crystal system
# The framework has been calculated to contain at least 10.0% void space
# The void calculation uses a probe of radius 1.32A, grid spacing 0.4
#
###############################################################################

data_KINGIZ
_chemical_formula_moiety         '(C104 H56 Cd4 F24 N4 O16 S4)n'
_symmetry_cell_setting           triclinic
_symmetry_space_group_name_H-M   'P 1'
_symmetry_Int_Tables_number      1
_space_group_name_Hall           'P 1'
loop_
_symmetry_equiv_pos_site_id
_symmetry_equiv_pos_as_xyz
1 x,y,z
_cell_length_a                   15.9717(15)
_cell_length_b                   7.6328(7)
_cell_length_c                   23.774(2)
_cell_angle_alpha                90
_cell_angle_beta                 96.924(2)
_cell_angle_gamma                90
_cell_volume                     2877.12
loop_
_atom_site_label
_atom_site_type_symbol
_atom_site_fract_x
_atom_site_fract_y
_atom_site_fract_z
C27 C 0.3306(2) 0.0132(4) 0.51024(15)
C30 C 0.1825(2) 0.1059(6) 0.4511(2)
H17 H 0.1324 0.1422 0.4303
C31 C 0.2534(2) 0.2099(5) 0.45462(18)
H18 H 0.2500 0.3156 0.4350
N2 N 0.32591(16) 0.1684(3) 0.48411(11)
Cd5 Cd 0.439156(12) 0.34200(2) 0.490538(8)
C1 C 0.4002(2) 0.7044(5) 0.42380(14)
C2 C 0.3457(2) 0.8005(4) 0.37832(13)
C3 C 0.2740(2) 0.7243(5) 0.35122(15)
H1 H 0.2579 0.6144 0.3629
C4 C 0.2254(2) 0.8067(5) 0.30709(16)
H2 H 0.1772 0.7520 0.2895
C5 C 0.24796(19) 0.9697(4) 0.28883(13)
C7 C 0.3673(2) 0.9667(5) 0.36133(14)
C9 C 0.1407(2) 0.9476(5) 0.19920(14)
H8 H 0.3365 0.9538 0.2042
C18 C 0.6694(2) 0.9868(4) 0.48976(15)
C21 C 0.8175(2) 0.8941(6) 0.5489(2)
H11 H 0.8676 0.8578 0.5697
C22 C 0.7466(2) 0.7901(5) 0.54538(18)
H12 H 0.7500 0.6844 0.5650
Cd1 Cd 0.560844(12) 0.65800(2) 0.509462(8)
F1 F 0.18294(18) 0.8120(3) 0.18284(11)
F3 F 0.07484(15) 0.8841(4) 0.22289(12)
N1 N 0.67409(16) 0.8316(3) 0.51589(11)
O1 O 0.37827(17) 0.5533(3) 0.43580(11)
O2 O 0.46546(16) 0.7828(4) 0.44660(10)
C36 C 0.5998(2) 0.2956(5) 0.57620(14)
C37 C 0.6543(2) 0.1995(4) 0.62168(13)
C38 C 0.7260(2) 0.2757(5) 0.64878(15)
H21 H 0.7421 0.3856 0.6371
C39 C 0.7746(2) 0.1933(5) 0.69291(16)
H22 H 0.8228 0.2480 0.7105
C40 C 0.75204(19) 0.0303(4) 0.71117(13)
C42 C 0.6327(2) 0.0333(5) 0.63867(14)
C44 C 0.8593(2) 0.0524(5) 0.80080(14)
H28 H 0.6635 0.0462 0.7958
F7 F 0.81706(18) 0.1880(3) 0.81716(11)
F9 F 0.92516(15) 0.1159(4) 0.77711(12)
O5 O 0.62173(17) 0.4467(3) 0.56420(11)
O6 O 0.53454(16) 0.2172(4) 0.55340(10)
O9 O 0.51737(16) 0.2706(3) 0.42305(10)
O10 O 0.48263(16) 0.7294(3) 0.57695(10)
O11 O 0.59966(18) 0.5064(3) 0.43594(11)
O12 O 0.40034(18) 0.4936(3) 0.56406(11)
C6 C 0.6813(2) 0.0497(4) 0.18278(13)
H3 H 0.6662 0.1613 0.1936
H4 H 0.5854 0.0224 0.1203
C8 C 0.8022(2) 0.0710(5) 0.26047(14)
C10 C 0.8584(2) 0.2032(6) 0.23380(17)
C11 C 0.7420(2) 0.1583(4) 0.29832(14)
C12 C 0.7552(2) 0.3252(5) 0.32177(15)
H5 H 0.8008 0.3920 0.3133
C13 C 0.7013(2) 0.3910(5) 0.35725(14)
H6 H 0.7104 0.5029 0.3722
C14 C 0.6338(2) 0.2948(5) 0.37113(13)
C15 C 0.6198(2) 0.1293(5) 0.34751(14)
H7 H 0.5742 0.0627 0.3560
C16 C 0.6737(2) 0.0644(5) 0.31160(13)
C17 C 0.5786(2) 0.3631(4) 0.41349(14)
H9 H 0.3814 0.0199 0.0307
C19 C 0.2634(2) 0.0988(5) 0.00803(17)
H10 H 0.2696 0.2064 0.0264
F2 F 0.89133(18) 0.0328(4) 0.34736(10)
F4 F 0.91545(15) 0.2802(4) 0.27114(11)
F5 F 0.90082(16) 0.1271(4) 0.19540(12)
F6 F 0.81260(17) 0.3307(3) 0.20706(11)
S1 S 0.11803(7) 0.35915(15) 0.01621(6)
C34 C 0.0163(3) 0.7002(8) 0.0457(3)
H20 H 0.0713 0.6921 0.0635
C41 C 0.3187(2) 0.9503(4) 0.81722(13)
H23 H 0.3338 0.8387 0.8064
H24 H 0.4146 0.9776 0.8797
C43 C 0.1978(2) 0.9290(5) 0.73953(14)
C45 C 0.1416(2) 0.7968(6) 0.76620(17)
C46 C 0.2580(2) 0.8417(4) 0.70168(14)
C47 C 0.2448(2) 0.6748(5) 0.67823(15)
H25 H 0.1992 0.6080 0.6867
C48 C 0.2987(2) 0.6090(5) 0.64275(14)
H26 H 0.2896 0.4971 0.6278
C49 C 0.3662(2) 0.7052(5) 0.62887(13)
C50 C 0.3802(2) 0.8707(5) 0.65249(14)
H27 H 0.4258 0.9373 0.6440
C51 C 0.3263(2) 0.9356(5) 0.68840(13)
C52 C 0.4214(2) 0.6369(4) 0.58651(14)
F8 F 0.10867(18) 0.9672(4) 0.65264(10)
F10 F 0.08455(15) 0.7198(4) 0.72886(11)
F11 F 0.09918(16) 0.8729(4) 0.80460(12)
F12 F 0.18740(17) 0.6693(3) 0.79294(11)
C25 C 0.9837(3) 0.2998(8) 0.9543(3)
H14 H 0.9287 0.3079 0.9365
H15 H 0.6186 0.9801 0.9693
C28 C 0.7366(2) 0.9012(5) 0.99197(17)
H16 H 0.7304 0.7936 0.9736
S2 S 0.88197(7) 0.64085(15) 0.98379(6)
C25_2 C 0.0163(3) 0.2998(8) 0.5457(3)
H14_2 H 0.0713 0.3079 0.5635
H15_2 H 0.3814 0.9801 0.5307
C28_2 C 0.2634(2) 0.9012(5) 0.50803(17)
H16_2 H 0.2696 0.7936 0.5264
C29 C 0.1872(2) 0.9458(5) 0.47910(16)
C32 C 0.1143(3) 0.8272(5) 0.4758(2)
C33 C 0.0384(3) 0.8429(7) 0.4456(3)
H19 H 0.0229 0.9365 0.4215
C35 C 0.0183(3) 0.5803(7) 0.4902(2)
S2_2 S 0.11803(7) 0.64085(15) 0.51621(6)
Cd4 Cd 0.439156(12) 0.65800(2) 0.990538(8)
C41_2 C 0.6813(2) 0.9503(4) 0.68278(13)
H23_2 H 0.6662 0.8387 0.6936
H24_2 H 0.5854 0.9776 0.6203
C43_2 C 0.8022(2) 0.9290(5) 0.76047(14)
C45_2 C 0.8584(2) 0.7968(6) 0.73380(17)
C46_2 C 0.7420(2) 0.8417(4) 0.79832(14)
C47_2 C 0.7552(2) 0.6748(5) 0.82177(15)
H25_2 H 0.8008 0.6080 0.8133
C48_2 C 0.7013(2) 0.6090(5) 0.85725(14)
H26_2 H 0.7104 0.4971 0.8722
C49_2 C 0.6338(2) 0.7052(5) 0.87113(13)
C50_2 C 0.6198(2) 0.8707(5) 0.84751(14)
H27_2 H 0.5742 0.9373 0.8560
C51_2 C 0.6737(2) 0.9356(5) 0.81160(13)
C52_2 C 0.5786(2) 0.6369(4) 0.91349(14)
F8_2 F 0.89133(18) 0.9672(4) 0.84736(10)
F10_2 F 0.91545(15) 0.7198(4) 0.77114(11)
F11_2 F 0.90082(16) 0.8729(4) 0.69540(12)
F12_2 F 0.81260(17) 0.6693(3) 0.70706(11)
O7 O 0.51737(16) 0.7294(3) 0.92305(10)
O8 O 0.59966(18) 0.4936(3) 0.93594(11)
C21_2 C 0.1825(2) 0.8941(6) 0.9511(2)
H11_2 H 0.1324 0.8578 0.9303
C22_2 C 0.2534(2) 0.7901(5) 0.95462(18)
H12_2 H 0.2500 0.6844 0.9350
N1_2 N 0.32591(16) 0.8316(3) 0.98411(11)
C36_2 C 0.4002(2) 0.2956(5) 0.92380(14)
C37_2 C 0.3457(2) 0.1995(4) 0.87832(13)
C38_2 C 0.2740(2) 0.2757(5) 0.85122(15)
H21_2 H 0.2579 0.3856 0.8629
C39_2 C 0.2254(2) 0.1933(5) 0.80709(16)
H22_2 H 0.1772 0.2480 0.7895
C40_2 C 0.24796(19) 0.0303(4) 0.78883(13)
C42_2 C 0.3673(2) 0.0333(5) 0.86133(14)
C44_2 C 0.1407(2) 0.0524(5) 0.69920(14)
H28_2 H 0.3365 0.0462 0.7042
F7_2 F 0.18294(18) 0.1880(3) 0.68284(11)
F9_2 F 0.07484(15) 0.1159(4) 0.72289(12)
O5_2 O 0.37827(17) 0.4467(3) 0.93580(11)
O6_2 O 0.46546(16) 0.2172(4) 0.94660(10)
C27_2 C 0.6694(2) 0.0132(4) 0.98976(15)
C6_2 C 0.3187(2) 0.0497(4) 0.31722(13)
H3_2 H 0.3338 0.1613 0.3064
H4_2 H 0.4146 0.0224 0.3797
C8_2 C 0.1978(2) 0.0710(5) 0.23953(14)
C10_2 C 0.1416(2) 0.2032(6) 0.26620(17)
C11_2 C 0.2580(2) 0.1583(4) 0.20168(14)
C12_2 C 0.2448(2) 0.3252(5) 0.17823(15)
H5_2 H 0.1992 0.3920 0.1867
C13_2 C 0.2987(2) 0.3910(5) 0.14275(14)
H6_2 H 0.2896 0.5029 0.1278
C14_2 C 0.3662(2) 0.2948(5) 0.12887(13)
C15_2 C 0.3802(2) 0.1293(5) 0.15249(14)
H7_2 H 0.4258 0.0627 0.1440
C16_2 C 0.3263(2) 0.0644(5) 0.18840(13)
C17_2 C 0.4214(2) 0.3631(4) 0.08651(14)
H9_2 H 0.6186 0.0199 0.4693
C19_2 C 0.7366(2) 0.0988(5) 0.49197(17)
H10_2 H 0.7304 0.2064 0.4736
C20 C 0.8128(2) 0.0542(5) 0.52090(16)
C23 C 0.8857(3) 0.1728(5) 0.5242(2)
C24 C 0.9616(3) 0.1571(7) 0.5544(3)
H13 H 0.9771 0.0635 0.5785
C26 C 0.9817(3) 0.4197(7) 0.5098(2)
F2_2 F 0.10867(18) 0.0328(4) 0.15264(10)
F4_2 F 0.08455(15) 0.2802(4) 0.22886(11)
F5_2 F 0.09918(16) 0.1271(4) 0.30460(12)
F6_2 F 0.18740(17) 0.3307(3) 0.29294(11)
O3 O 0.48263(16) 0.2706(3) 0.07695(10)
O4 O 0.40034(18) 0.5064(3) 0.06406(11)
S1_2 S 0.88197(7) 0.35915(15) 0.48379(6)
C34_2 C 0.9837(3) 0.7002(8) 0.4543(3)
H20_2 H 0.9287 0.6921 0.4365
Cd7 Cd 0.560844(12) 0.34200(2) 0.009462(8)
C1_2 C 0.5998(2) 0.7044(5) 0.07620(14)
C2_2 C 0.6543(2) 0.8005(4) 0.12168(13)
C3_2 C 0.7260(2) 0.7243(5) 0.14878(15)
H1_2 H 0.7421 0.6144 0.1371
C4_2 C 0.7746(2) 0.8067(5) 0.19291(16)
H2_2 H 0.8228 0.7520 0.2105
C5_2 C 0.75204(19) 0.9697(4) 0.21117(13)
C7_2 C 0.6327(2) 0.9667(5) 0.13867(14)
C9_2 C 0.8593(2) 0.9476(5) 0.30080(14)
H8_2 H 0.6635 0.9538 0.2958
C18_2 C 0.3306(2) 0.9868(4) 0.01024(15)
F1_2 F 0.81706(18) 0.8120(3) 0.31716(11)
F3_2 F 0.92516(15) 0.8841(4) 0.27711(12)
O1_2 O 0.62173(17) 0.5533(3) 0.06420(11)
O2_2 O 0.53454(16) 0.7828(4) 0.05340(10)
N3 N 0.67409(16) 0.1684(3) 0.01589(11)
C30_2 C 0.8175(2) 0.1059(6) 0.0489(2)
H17_2 H 0.8676 0.1422 0.0697
C31_2 C 0.7466(2) 0.2099(5) 0.04538(18)
H18_2 H 0.7500 0.3156 0.0650
C20_2 C 0.1872(2) 0.0542(5) 0.97910(16)
C23_2 C 0.1143(3) 0.1728(5) 0.9758(2)
C24_2 C 0.0384(3) 0.1571(7) 0.9456(3)
H13_2 H 0.0229 0.0635 0.9215
C26_2 C 0.0183(3) 0.4197(7) 0.9902(2)
C29_2 C 0.8128(2) 0.9458(5) 0.02090(16)
C32_2 C 0.8857(3) 0.8272(5) 0.0242(2)
C33_2 C 0.9616(3) 0.8429(7) 0.0544(3)
H19_2 H 0.9771 0.9365 0.0785
C35_2 C 0.9817(3) 0.5803(7) 0.0098(2)
loop_
_geom_bond_atom_site_label_1
_geom_bond_atom_site_label_2
_geom_bond_site_symmetry_1
_geom_bond_site_symmetry_2
H17 C30 1_555 1_555
C31 C30 1_555 1_555
H18 C31 1_555 1_555
N2 C27 1_555 1_555
Cd5 N2 1_555 1_555
C31 N2 1_555 1_555
C1 C2 1_555 1_555
C2 C3 1_555 1_555
C3 H1 1_555 1_555
C4 C3 1_555 1_555
H2 C4 1_555 1_555
C5 C4 1_555 1_555
C7 C2 1_555 1_555
H11 C21 1_555 1_555
C22 C21 1_555 1_555
H12 C22 1_555 1_555
Cd1 N1 1_555 1_555
F1 C9 1_555 1_555
F3 C9 1_555 1_555
N1 C18 1_555 1_555
O1 C1 1_555 1_555
O2 C1 1_555 1_555
C36 C37 1_555 1_555
C37 C38 1_555 1_555
C38 H21 1_555 1_555
C39 C38 1_555 1_555
H22 C39 1_555 1_555
C40 C39 1_555 1_555
C42 C37 1_555 1_555
Cd5 O1 1_555 1_555
F7 C44 1_555 1_555
F9 C44 1_555 1_555
O5 Cd1 1_555 1_555
O6 C36 1_555 1_555
O9 Cd5 1_555 1_555
O10 Cd1 1_555 1_555
O11 Cd1 1_555 1_555
O12 Cd5 1_555 1_555
C22 N1 1_555 1_555
Cd1 O2 1_555 1_555
C36 O5 1_555 1_555
Cd5 O6 1_555 1_555
H3 C6 1_555 1_555
C10 C8 1_555 1_555
C11 C8 1_555 1_555
C12 C11 1_555 1_555
H5 C12 1_555 1_555
C13 C12 1_555 1_555
H6 C13 1_555 1_555
C14 C13 1_555 1_555
C15 C14 1_555 1_555
H7 C15 1_555 1_555
C16 C11 1_555 1_555
C17 C14 1_555 1_555
H10 C19 1_555 1_555
F4 C10 1_555 1_555
F5 C10 1_555 1_555
F6 C10 1_555 1_555
O9 C17 1_555 1_555
O11 C17 1_555 1_555
H20 C34 1_555 1_555
C15 C16 1_555 1_555
H23 C41 1_555 1_555
C45 C43 1_555 1_555
C46 C43 1_555 1_555
C47 C46 1_555 1_555
H25 C47 1_555 1_555
C48 C47 1_555 1_555
H26 C48 1_555 1_555
C49 C48 1_555 1_555
C50 C49 1_555 1_555
H27 C50 1_555 1_555
C51 C46 1_555 1_555
C52 C49 1_555 1_555
F10 C45 1_555 1_555
F11 C45 1_555 1_555
F12 C45 1_555 1_555
O10 C52 1_555 1_555
O12 C52 1_555 1_555
C50 C51 1_555 1_555
H14 C25 1_555 1_555
H16 C28 1_555 1_555
H14_2 C25_2 1_555 1_555
H16_2 C28_2 1_555 1_555
C29 C28_2 1_555 1_555
C32 C29 1_555 1_555
C33 C32 1_555 1_555
H19 C33 1_555 1_555
S2_2 C32 1_555 1_555
C35 S2_2 1_555 1_555
H23_2 C41_2 1_555 1_555
C45_2 C43_2 1_555 1_555
C46_2 C43_2 1_555 1_555
C47_2 C46_2 1_555 1_555
H25_2 C47_2 1_555 1_555
C48_2 C47_2 1_555 1_555
H26_2 C48_2 1_555 1_555
C49_2 C48_2 1_555 1_555
C50_2 C49_2 1_555 1_555
H27_2 C50_2 1_555 1_555
C51_2 C46_2 1_555 1_555
C52_2 C49_2 1_555 1_555
F10_2 C45_2 1_555 1_555
F11_2 C45_2 1_555 1_555
F12_2 C45_2 1_555 1_555
O7 C52_2 1_555 1_555
O8 C52_2 1_555 1_555
Cd4 O7 1_555 1_555
C50_2 C51_2 1_555 1_555
H11_2 C21_2 1_555 1_555
C22_2 C21_2 1_555 1_555
H12_2 C22_2 1_555 1_555
Cd4 N1_2 1_555 1_555
C36_2 C37_2 1_555 1_555
C37_2 C38_2 1_555 1_555
C38_2 H21_2 1_555 1_555
C39_2 C38_2 1_555 1_555
H22_2 C39_2 1_555 1_555
C40_2 C39_2 1_555 1_555
C42_2 C37_2 1_555 1_555
F7_2 C44_2 1_555 1_555
F9_2 C44_2 1_555 1_555
O5_2 Cd4 1_555 1_555
O6_2 C36_2 1_555 1_555
C22_2 N1_2 1_555 1_555
C36_2 O5_2 1_555 1_555
H3_2 C6_2 1_555 1_555
C10_2 C8_2 1_555 1_555
C11_2 C8_2 1_555 1_555
C12_2 C11_2 1_555 1_555
H5_2 C12_2 1_555 1_555
C13_2 C12_2 1_555 1_555
H6_2 C13_2 1_555 1_555
C14_2 C13_2 1_555 1_555
C15_2 C14_2 1_555 1_555
H7_2 C15_2 1_555 1_555
C16_2 C11_2 1_555 1_555
C17_2 C14_2 1_555 1_555
H10_2 C19_2 1_555 1_555
C20 C19_2 1_555 1_555
C23 C20 1_555 1_555
C24 C23 1_555 1_555
H13 C24 1_555 1_555
F4_2 C10_2 1_555 1_555
F5_2 C10_2 1_555 1_555
F6_2 C10_2 1_555 1_555
O3 C17_2 1_555 1_555
O4 C17_2 1_555 1_555
S1_2 C23 1_555 1_555
H20_2 C34_2 1_555 1_555
Cd7 O3 1_555 1_555
C15_2 C16_2 1_555 1_555
C26 S1_2 1_555 1_555
C1_2 C2_2 1_555 1_555
C2_2 C3_2 1_555 1_555
C3_2 H1_2 1_555 1_555
C4_2 C3_2 1_555 1_555
H2_2 C4_2 1_555 1_555
C5_2 C4_2 1_555 1_555
C7_2 C2_2 1_555 1_555
F1_2 C9_2 1_555 1_555
F3_2 C9_2 1_555 1_555
O1_2 C1_2 1_555 1_555
O2_2 C1_2 1_555 1_555
Cd7 O1_2 1_555 1_555
N3 Cd7 1_555 1_555
H17_2 C30_2 1_555 1_555
C31_2 C30_2 1_555 1_555
H18_2 C31_2 1_555 1_555
C31_2 N3 1_555 1_555
C23_2 C20_2 1_555 1_555
C24_2 C23_2 1_555 1_555
H13_2 C24_2 1_555 1_555
C32_2 C29_2 1_555 1_555
C33_2 C32_2 1_555 1_555
H19_2 C33_2 1_555 1_555

#END
