
###############################################################################
#
# This file contains modified crystal structure data generated from the
# MOF subset of the Cambridge Structural Database (CSD) v543 
# hosted by the Cambridge Crystallographic Data Centre (CCDC).
#
# This work is licensed under the Creative Commons
# Attribution-NonCommercial-ShareAlike 4.0 International License.
# To view a copy of this license, visit
# http://creativecommons.org/licenses/by-nc-sa/4.0/
# or send a letter to
# Creative Commons, PO Box 1866, Mountain View, CA 94042, USA.
#
# CIF created using the CSD Python API on 29 September 2022
# The structure has been converted into the P1 space group
# The structure has a 3D framework
# The original CSD entry KINHIA is in the monoclinic crystal system
# The framework has been calculated to contain at least 10.0% void space
# The void calculation uses a probe of radius 1.32A, grid spacing 0.4
#
###############################################################################

data_KINHIA
_chemical_formula_moiety         '(C184 H112 N8 O36 S8 Zn8)n'
_symmetry_cell_setting           triclinic
_symmetry_space_group_name_H-M   'P 1'
_symmetry_Int_Tables_number      1
_space_group_name_Hall           'P 1'
loop_
_symmetry_equiv_pos_site_id
_symmetry_equiv_pos_as_xyz
1 x,y,z
_cell_length_a                   14.3794(12)
_cell_length_b                   23.893(2)
_cell_length_c                   15.9117(11)
_cell_angle_alpha                90
_cell_angle_beta                 117.102(6)
_cell_angle_gamma                90
_cell_volume                     4866.47
loop_
_atom_site_label
_atom_site_type_symbol
_atom_site_fract_x
_atom_site_fract_y
_atom_site_fract_z
O8 O 0.1822(3) 0.00139(14) 0.6310(2)
O9 O 0.1503(3) 0.25872(13) 0.5322(2)
O10 O 0.1976(3) 0.26297(14) 0.6877(2)
C18 C 0.0371(4) 0.0013(2) 0.6701(4)
H10 H 0.0329 0.0401 0.6687
C22 C 0.1820(4) 0.0599(2) 0.6290(3)
C23 C 0.2066(4) 0.0906(2) 0.7104(4)
H13 H 0.2238 0.0726 0.7674
C24 C 0.2050(4) 0.1479(2) 0.7053(4)
H14 H 0.2209 0.1691 0.7592
C25 C 0.1796(4) 0.1747(2) 0.6191(3)
C26 C 0.1584(4) 0.1428(2) 0.5407(4)
H15 H 0.1438 0.1604 0.4839
C27 C 0.1584(4) 0.0846(2) 0.5446(4)
H16 H 0.1426 0.0632 0.4909
C28 C 0.1758(3) 0.2368(2) 0.6127(3)
Zn4 Zn 0.10715(4) 0.33877(2) 0.50521(4)
Zn5 Zn 0.23596(5) 0.33570(2) 0.74912(4)
C19 C 0.1096(4) 0.9746(2) 0.6510(3)
C20 C 0.1131(4) 0.9163(2) 0.6486(4)
H11 H 0.1605 0.8984 0.6329
C21 C 0.0459(4) 0.8858(2) 0.6695(4)
H12 H 0.0490 0.8469 0.6689
O11 O 0.0006(3) 0.83748(17) 0.9440(3)
Zn1 Zn 0.89285(4) 0.83877(2) 0.99479(4)
Zn2 Zn 0.76404(5) 0.83570(2) 0.75088(4)
O1 O 0.7547(2) 0.87135(14) 0.9613(2)
O2 O 0.6785(3) 0.87370(15) 0.8029(2)
O3 O 0.3257(3) 0.98751(15) 0.8754(2)
O6 O 0.8932(3) 0.82558(14) 0.7006(3)
O7 O 0.8391(3) 0.90289(14) 0.7390(2)
C1 C 0.6802(4) 0.8833(2) 0.8805(3)
C2 C 0.5872(4) 0.9106(2) 0.8806(3)
C3 C 0.5680(4) 0.9057(2) 0.9583(3)
C4 C 0.4800(4) 0.9303(2) 0.9579(3)
C5 C 0.4115(4) 0.9593(2) 0.8782(3)
C6 C 0.4304(4) 0.9650(2) 0.7993(3)
H3 H 0.3845 0.9848 0.7462
C7 C 0.5182(4) 0.9405(2) 0.8029(3)
H4 H 0.5319 0.9442 0.7515
C8 C 0.2578(4) 0.9605(2) 0.9007(3)
C9 C 0.1998(4) 0.9948(2) 0.9297(3)
C10 C 0.1221(4) 0.9714(2) 0.9466(3)
H6 H 0.0820 0.9943 0.9648
C11 C 0.1029(4) 0.9142(2) 0.9369(3)
C12 C 0.1635(4) 0.8807(2) 0.9089(4)
H7 H 0.1522 0.8422 0.9032
C13 C 0.2386(4) 0.9033(2) 0.8897(4)
H8 H 0.2768 0.8806 0.8693
C14 C 0.0192(4) 0.8894(2) 0.9558(4)
C15 C 0.8988(4) 0.8774(2) 0.7118(3)
C16 C 0.9735(4) 0.9114(2) 0.6917(3)
C17 C 0.9693(4) 0.9693(2) 0.6917(3)
H9 H 0.9209 0.9871 0.7062
O12 O 0.9667(3) 0.92044(18) 0.9820(3)
O13 O 0.8497(3) 0.75872(13) 0.9678(2)
O14 O 0.8024(3) 0.76297(14) 0.8123(2)
N3 N 0.6485(3) 0.8098(2) 0.6227(3)
O5 O 0.0333(3) 0.42044(18) 0.5180(3)
O1_2 O 0.2453(2) 0.37135(14) 0.5387(2)
O2_2 O 0.3215(3) 0.37370(15) 0.6971(2)
O3_2 O 0.6743(3) 0.48751(15) 0.6246(2)
O4 O 0.9994(3) 0.33748(17) 0.5560(3)
O6_2 O 0.1068(3) 0.32558(14) 0.7994(3)
O7_2 O 0.1609(3) 0.40289(14) 0.7610(2)
N1 N 0.0290(3) 0.33827(16) 0.3607(3)
C1_2 C 0.3198(4) 0.3833(2) 0.6195(3)
C2_2 C 0.4128(4) 0.4106(2) 0.6194(3)
C3_2 C 0.4320(4) 0.4057(2) 0.5417(3)
H1 H 0.3856 0.3858 0.4889
C4_2 C 0.5200(4) 0.4303(2) 0.5421(3)
H2 H 0.5327 0.4273 0.4899
C5_2 C 0.5885(4) 0.4593(2) 0.6218(3)
C6_2 C 0.5696(4) 0.4650(2) 0.7007(3)
H3_2 H 0.6155 0.4848 0.7538
C7_2 C 0.4818(4) 0.4405(2) 0.6971(3)
H4_2 H 0.4681 0.4442 0.7485
C8_2 C 0.7422(4) 0.4605(2) 0.5993(3)
C9_2 C 0.8002(4) 0.4948(2) 0.5703(3)
H5 H 0.7869 0.5330 0.5624
C10_2 C 0.8779(4) 0.4714(2) 0.5534(3)
H6_2 H 0.9180 0.4943 0.5352
C11_2 C 0.8971(4) 0.4142(2) 0.5631(3)
C12_2 C 0.8365(4) 0.3807(2) 0.5911(4)
H7_2 H 0.8478 0.3422 0.5968
C13_2 C 0.7614(4) 0.4033(2) 0.6103(4)
H8_2 H 0.7232 0.3806 0.6307
C14_2 C 0.9808(4) 0.3894(2) 0.5442(4)
C15_2 C 0.1012(4) 0.3774(2) 0.7882(3)
C16_2 C 0.0265(4) 0.4114(2) 0.8083(3)
C17_2 C 0.0307(4) 0.4693(2) 0.8083(3)
H9_2 H 0.0791 0.4871 0.7938
C29 C 0.0326(4) 0.2948(2) 0.3080(3)
H17 H 0.0763 0.2648 0.3382
N3_2 N 0.3515(3) 0.3098(2) 0.8773(3)
O8_2 O 0.8178(3) 0.50139(14) 0.8690(2)
C18_2 C 0.9629(4) 0.5013(2) 0.8299(4)
H10_2 H 0.9671 0.5401 0.8313
C19_2 C 0.8904(4) 0.4746(2) 0.8490(3)
C20_2 C 0.8869(4) 0.4163(2) 0.8514(4)
H11_2 H 0.8395 0.3984 0.8671
C21_2 C 0.9541(4) 0.3858(2) 0.8305(4)
H12_2 H 0.9510 0.3469 0.8311
C22_2 C 0.8180(4) 0.5599(2) 0.8710(3)
C23_2 C 0.7934(4) 0.5906(2) 0.7896(4)
H13_2 H 0.7762 0.5726 0.7326
C24_2 C 0.7950(4) 0.6479(2) 0.7947(4)
H14_2 H 0.7791 0.6691 0.7408
C25_2 C 0.8204(4) 0.6747(2) 0.8809(3)
C26_2 C 0.8416(4) 0.6428(2) 0.9593(4)
C27_2 C 0.8416(4) 0.5846(2) 0.9554(4)
C28_2 C 0.8242(3) 0.7368(2) 0.8873(3)
C30 C 0.9744(4) 0.2931(2) 0.2117(3)
H18 H 0.9795 0.2624 0.1781
C31 C 0.9070(4) 0.3377(2) 0.1634(3)
C32 C 0.9062(4) 0.3824(2) 0.2199(4)
H19 H 0.8630 0.4130 0.1919
C33 C 0.9672(4) 0.3820(2) 0.3145(3)
H20 H 0.9666 0.4131 0.3493
C34 C 0.8392(4) 0.3371(2) 0.0629(4)
C35 C 0.7593(4) 0.3739(2) 0.0094(4)
H21 H 0.7447 0.4059 0.0343
C42 C 0.5297(5) 0.3040(3) 0.9894(4)
C43 C 0.4504(5) 0.3222(3) 0.9040(4)
H26 H 0.4674 0.3439 0.8644
C44 C 0.3313(4) 0.2780(3) 0.9368(4)
H27 H 0.2621 0.2684 0.9190
S1 S 0.15675(11) 0.71705(6) 0.00786(10)
S2 S 0.42208(11) 0.71031(7) 0.28315(10)
C36 C 0.2975(4) 0.6418(3) 0.0861(4)
H22 H 0.3537 0.6215 0.1304
C37 C 0.2617(4) 0.6892(3) 0.1064(4)
C38 C 0.2970(4) 0.7182(3) 0.1970(4)
C39 C 0.2492(5) 0.7558(4) 0.2250(5)
H23 H 0.1801 0.7663 0.1878
C40 C 0.3089(5) 0.7783(4) 0.3129(5)
H24 H 0.2848 0.8060 0.3390
C41 C 0.4067(4) 0.7561(3) 0.3582(4)
C42_2 C 0.4703(5) 0.8040(3) 0.5106(4)
H25 H 0.4016 0.8137 0.4946
C43_2 C 0.5496(5) 0.8222(3) 0.5960(4)
H26_2 H 0.5326 0.8439 0.6356
C44_2 C 0.6687(4) 0.7780(3) 0.5632(4)
H27_2 H 0.7379 0.7684 0.5810
C45 C 0.5937(4) 0.7587(3) 0.4779(4)
H28 H 0.6125 0.7367 0.4399
C46 C 0.4905(4) 0.7720(3) 0.4490(4)
N2 N 0.6485(3) 0.6902(2) 0.1227(3)
C42_3 C 0.4703(5) 0.6960(3) 0.0106(4)
C43_3 C 0.5496(5) 0.6778(3) 0.0960(4)
H26_3 H 0.5326 0.6561 0.1356
C44_3 C 0.6687(4) 0.7220(3) 0.0632(4)
H27_3 H 0.7379 0.7316 0.0810
Zn6 Zn 0.76404(5) 0.66430(2) 0.25088(4)
S1_2 S 0.84325(11) 0.28295(6) 0.99214(10)
S2_2 S 0.57792(11) 0.28969(7) 0.71685(10)
N2_2 N 0.3515(3) 0.1902(2) 0.3773(3)
C36_2 C 0.7025(4) 0.3582(3) 0.9139(4)
H22_2 H 0.6463 0.3785 0.8696
C37_2 C 0.7383(4) 0.3108(3) 0.8936(4)
C38_2 C 0.7030(4) 0.2818(3) 0.8030(4)
C39_2 C 0.7508(5) 0.2442(4) 0.7750(5)
H23_2 H 0.8199 0.2337 0.8122
C40_2 C 0.6911(5) 0.2217(4) 0.6871(5)
H24_2 H 0.7152 0.1940 0.6610
C41_2 C 0.5933(4) 0.2439(3) 0.6418(4)
C42_4 C 0.5297(5) 0.1960(3) 0.4894(4)
H25_2 H 0.5984 0.1863 0.5054
C43_4 C 0.4504(5) 0.1778(3) 0.4040(4)
H26_4 H 0.4674 0.1561 0.3644
C44_4 C 0.3313(4) 0.2220(3) 0.4368(4)
H27_4 H 0.2621 0.2316 0.4190
C45_2 C 0.4063(4) 0.2413(3) 0.5221(4)
H28_2 H 0.3875 0.2633 0.5601
C46_2 C 0.5095(4) 0.2280(3) 0.5510(4)
Zn6_2 Zn 0.23596(5) 0.16430(2) 0.24912(4)
O5_2 O 0.0333(3) 0.07956(18) 0.0180(3)
Zn3 Zn 0.10715(4) 0.16123(2) 0.00521(4)
O1_3 O 0.2453(2) 0.12865(14) 0.0387(2)
O2_3 O 0.3215(3) 0.12630(15) 0.1971(2)
O3_3 O 0.6743(3) 0.01249(15) 0.1246(2)
O4_2 O 0.9994(3) 0.16252(17) 0.0560(3)
O6_3 O 0.1068(3) 0.17442(14) 0.2994(3)
O7_3 O 0.1609(3) 0.09711(14) 0.2610(2)
C1_3 C 0.3198(4) 0.1167(2) 0.1195(3)
C2_3 C 0.4128(4) 0.0894(2) 0.1194(3)
C3_3 C 0.4320(4) 0.0943(2) 0.0417(3)
C4_3 C 0.5200(4) 0.0697(2) 0.0421(3)
C5_3 C 0.5885(4) 0.0407(2) 0.1218(3)
C6_3 C 0.5696(4) 0.0350(2) 0.2007(3)
H3_3 H 0.6155 0.0152 0.2538
C7_3 C 0.4818(4) 0.0595(2) 0.1971(3)
H4_3 H 0.4681 0.0558 0.2485
C8_3 C 0.7422(4) 0.0395(2) 0.0993(3)
C9_3 C 0.8002(4) 0.0052(2) 0.0703(3)
C10_3 C 0.8779(4) 0.0286(2) 0.0534(3)
H6_3 H 0.9180 0.0057 0.0352
C11_3 C 0.8971(4) 0.0858(2) 0.0631(3)
C12_3 C 0.8365(4) 0.1193(2) 0.0911(4)
H7_3 H 0.8478 0.1578 0.0968
C13_3 C 0.7614(4) 0.0967(2) 0.1103(4)
H8_3 H 0.7232 0.1194 0.1307
C14_3 C 0.9808(4) 0.1106(2) 0.0442(4)
C15_3 C 0.1012(4) 0.1226(2) 0.2882(3)
C16_3 C 0.0265(4) 0.0886(2) 0.3083(3)
C17_3 C 0.0307(4) 0.0307(2) 0.3083(3)
H9_3 H 0.0791 0.0129 0.2938
O13_2 O 0.1503(3) 0.24128(13) 0.0322(2)
O14_2 O 0.1976(3) 0.23703(14) 0.1877(2)
C19_3 C 0.8904(4) 0.0254(2) 0.3490(3)
C20_3 C 0.8869(4) 0.0837(2) 0.3514(4)
H11_3 H 0.8395 0.1016 0.3671
C21_3 C 0.9541(4) 0.1142(2) 0.3305(4)
H12_3 H 0.9510 0.1531 0.3311
O8_3 O 0.8178(3) 0.99861(14) 0.3690(2)
O9_2 O 0.8497(3) 0.74128(13) 0.4678(2)
O10_2 O 0.8024(3) 0.73703(14) 0.3123(2)
C18_3 C 0.9629(4) 0.9987(2) 0.3299(4)
H10_3 H 0.9671 0.9599 0.3313
C22_3 C 0.8180(4) 0.9401(2) 0.3710(3)
C23_3 C 0.7934(4) 0.9094(2) 0.2896(4)
H13_3 H 0.7762 0.9274 0.2326
C24_3 C 0.7950(4) 0.8521(2) 0.2947(4)
H14_3 H 0.7791 0.8309 0.2408
C25_3 C 0.8204(4) 0.8253(2) 0.3809(3)
C26_3 C 0.8416(4) 0.8572(2) 0.4593(4)
H15_2 H 0.8562 0.8396 0.5161
C27_3 C 0.8416(4) 0.9154(2) 0.4554(4)
H16_2 H 0.8574 0.9368 0.5091
C28_3 C 0.8242(3) 0.7632(2) 0.3873(3)
Zn4_2 Zn 0.89285(4) 0.66123(2) 0.49479(4)
O8_4 O 0.1822(3) 0.49861(14) 0.1310(2)
C18_4 C 0.0371(4) 0.4987(2) 0.1701(4)
H10_4 H 0.0329 0.4599 0.1687
C19_4 C 0.1096(4) 0.5254(2) 0.1510(3)
C20_4 C 0.1131(4) 0.5837(2) 0.1486(4)
H11_4 H 0.1605 0.6016 0.1329
C21_4 C 0.0459(4) 0.6142(2) 0.1695(4)
H12_4 H 0.0490 0.6531 0.1689
C22_4 C 0.1820(4) 0.4401(2) 0.1290(3)
C23_4 C 0.2066(4) 0.4094(2) 0.2104(4)
H13_4 H 0.2238 0.4274 0.2674
C24_4 C 0.2050(4) 0.3521(2) 0.2053(4)
H14_4 H 0.2209 0.3309 0.2592
C25_4 C 0.1796(4) 0.3253(2) 0.1191(3)
C26_4 C 0.1584(4) 0.3572(2) 0.0407(4)
C27_4 C 0.1584(4) 0.4154(2) 0.0446(4)
C28_4 C 0.1758(3) 0.2632(2) 0.1127(3)
C30_2 C 0.0256(4) 0.7069(2) 0.7883(3)
H18_2 H 0.0205 0.7376 0.8219
C31_2 C 0.0930(4) 0.6623(2) 0.8366(3)
C32_2 C 0.0938(4) 0.6176(2) 0.7801(4)
H19_2 H 0.1370 0.5870 0.8081
C33_2 C 0.0328(4) 0.6180(2) 0.6855(3)
H20_2 H 0.0334 0.5869 0.6507
C34_2 C 0.1608(4) 0.6629(2) 0.9371(4)
C35_2 C 0.2407(4) 0.6261(2) 0.9906(4)
H21_2 H 0.2553 0.5941 0.9657
O11_2 O 0.0006(3) 0.66252(17) 0.4440(3)
O1_4 O 0.7547(2) 0.62865(14) 0.4613(2)
O2_4 O 0.6785(3) 0.62630(15) 0.3029(2)
O3_4 O 0.3257(3) 0.51249(15) 0.3754(2)
O6_4 O 0.8932(3) 0.67442(14) 0.2006(3)
O7_4 O 0.8391(3) 0.59711(14) 0.2390(2)
N1_2 N 0.9710(3) 0.66173(16) 0.6393(3)
C1_4 C 0.6802(4) 0.6167(2) 0.3805(3)
C2_4 C 0.5872(4) 0.5894(2) 0.3806(3)
C3_4 C 0.5680(4) 0.5943(2) 0.4583(3)
H1_2 H 0.6144 0.6142 0.5111
C4_4 C 0.4800(4) 0.5697(2) 0.4579(3)
H2_2 H 0.4673 0.5727 0.5101
C5_4 C 0.4115(4) 0.5407(2) 0.3782(3)
C6_4 C 0.4304(4) 0.5350(2) 0.2993(3)
H3_4 H 0.3845 0.5152 0.2462
C7_4 C 0.5182(4) 0.5595(2) 0.3029(3)
H4_4 H 0.5319 0.5558 0.2515
C8_4 C 0.2578(4) 0.5395(2) 0.4007(3)
C9_4 C 0.1998(4) 0.5052(2) 0.4297(3)
H5_2 H 0.2131 0.4670 0.4376
C10_4 C 0.1221(4) 0.5286(2) 0.4466(3)
H6_4 H 0.0820 0.5057 0.4648
C11_4 C 0.1029(4) 0.5858(2) 0.4369(3)
C12_4 C 0.1635(4) 0.6193(2) 0.4089(4)
H7_4 H 0.1522 0.6578 0.4032
C13_4 C 0.2386(4) 0.5967(2) 0.3897(4)
H8_4 H 0.2768 0.6194 0.3693
C14_4 C 0.0192(4) 0.6106(2) 0.4558(4)
C15_4 C 0.8988(4) 0.6226(2) 0.2118(3)
C16_4 C 0.9735(4) 0.5886(2) 0.1917(3)
C17_4 C 0.9693(4) 0.5307(2) 0.1917(3)
H9_4 H 0.9209 0.5129 0.2062
C29_2 C 0.9674(4) 0.7052(2) 0.6920(3)
H17_2 H 0.9237 0.7352 0.6618
O12_2 O 0.9667(3) 0.57956(18) 0.4820(3)
S1_3 S 0.15675(11) 0.78295(6) 0.50786(10)
S2_3 S 0.42208(11) 0.78969(7) 0.78315(10)
C30_3 C 0.0256(4) 0.7931(2) 0.2883(3)
H18_3 H 0.0205 0.7624 0.3219
C31_3 C 0.0930(4) 0.8377(2) 0.3366(3)
C32_3 C 0.0938(4) 0.8824(2) 0.2801(4)
H19_3 H 0.1370 0.9130 0.3081
C33_3 C 0.0328(4) 0.8820(2) 0.1855(3)
H20_3 H 0.0334 0.9131 0.1507
C34_3 C 0.1608(4) 0.8371(2) 0.4371(4)
C35_3 C 0.2407(4) 0.8739(2) 0.4906(4)
H21_3 H 0.2553 0.9059 0.4657
C36_3 C 0.2975(4) 0.8582(3) 0.5861(4)
H22_3 H 0.3537 0.8785 0.6304
C37_3 C 0.2617(4) 0.8108(3) 0.6064(4)
C38_3 C 0.2970(4) 0.7818(3) 0.6970(4)
C39_3 C 0.2492(5) 0.7442(4) 0.7250(5)
H23_3 H 0.1801 0.7337 0.6878
C40_3 C 0.3089(5) 0.7217(4) 0.8129(5)
H24_3 H 0.2848 0.6940 0.8390
C41_3 C 0.4067(4) 0.7439(3) 0.8582(4)
H25_3 H 0.4016 0.6863 0.9946
C45_3 C 0.5937(4) 0.7413(3) 0.9779(4)
H28_3 H 0.6125 0.7633 0.9399
C46_3 C 0.4905(4) 0.7280(3) 0.9490(4)
H5_3 H 0.2131 0.0330 0.9376
N1_3 N 0.9710(3) 0.83827(16) 0.1393(3)
H1_3 H 0.6144 0.8858 0.0111
H2_3 H 0.4673 0.9273 0.0101
C29_3 C 0.9674(4) 0.7948(2) 0.1920(3)
H17_3 H 0.9237 0.7648 0.1618
H15_3 H 0.8562 0.6604 0.0161
H16_3 H 0.8574 0.5632 0.0091
N1_4 N 0.0290(3) 0.16173(16) 0.8607(3)
H1_4 H 0.3856 0.1142 0.9889
H2_4 H 0.5327 0.0727 0.9899
C29_4 C 0.0326(4) 0.2052(2) 0.8080(3)
H17_4 H 0.0763 0.2352 0.8382
H5_4 H 0.7869 0.9670 0.0624
S1_4 S 0.84325(11) 0.21705(6) 0.49214(10)
S2_4 S 0.57792(11) 0.21031(7) 0.21685(10)
C30_4 C 0.9744(4) 0.2069(2) 0.7117(3)
H18_4 H 0.9795 0.2376 0.6781
C31_4 C 0.9070(4) 0.1623(2) 0.6634(3)
C32_4 C 0.9062(4) 0.1176(2) 0.7199(4)
H19_4 H 0.8630 0.0870 0.6919
C33_4 C 0.9672(4) 0.1180(2) 0.8145(3)
H20_4 H 0.9666 0.0869 0.8493
C34_4 C 0.8392(4) 0.1629(2) 0.5629(4)
C35_4 C 0.7593(4) 0.1261(2) 0.5094(4)
H21_4 H 0.7447 0.0941 0.5343
C36_4 C 0.7025(4) 0.1418(3) 0.4139(4)
H22_4 H 0.6463 0.1215 0.3696
C37_4 C 0.7383(4) 0.1892(3) 0.3936(4)
C38_4 C 0.7030(4) 0.2182(3) 0.3030(4)
C39_4 C 0.7508(5) 0.2558(4) 0.2750(5)
H23_4 H 0.8199 0.2663 0.3122
C40_4 C 0.6911(5) 0.2783(4) 0.1871(5)
H24_4 H 0.7152 0.3060 0.1610
C41_4 C 0.5933(4) 0.2561(3) 0.1418(4)
H25_4 H 0.5984 0.3137 0.0054
C45_4 C 0.4063(4) 0.2587(3) 0.0221(4)
H28_4 H 0.3875 0.2367 0.0601
C46_4 C 0.5095(4) 0.2720(3) 0.0510(4)
H15_4 H 0.1438 0.3396 0.9839
H16_4 H 0.1426 0.4368 0.9909
loop_
_geom_bond_atom_site_label_1
_geom_bond_atom_site_label_2
_geom_bond_site_symmetry_1
_geom_bond_site_symmetry_2
O9 C28 1_555 1_555
O10 C28 1_555 1_555
H10 C18 1_555 1_555
C22 O8 1_555 1_555
C23 C22 1_555 1_555
H13 C23 1_555 1_555
C24 C23 1_555 1_555
H14 C24 1_555 1_555
C25 C24 1_555 1_555
C26 C25 1_555 1_555
H15 C26 1_555 1_555
C27 C22 1_555 1_555
H16 C27 1_555 1_555
C28 C25 1_555 1_555
Zn4 O9 1_555 1_555
Zn5 O10 1_555 1_555
C26 C27 1_555 1_555
C20 C19 1_555 1_555
H11 C20 1_555 1_555
H12 C21 1_555 1_555
C20 C21 1_555 1_555
Zn1 O1 1_555 1_555
Zn2 O2 1_555 1_555
O1 C1 1_555 1_555
O2 C1 1_555 1_555
O3 C5 1_555 1_555
O11 C14 1_555 1_555
O6 Zn2 1_555 1_555
O7 Zn2 1_555 1_555
C1 C2 1_555 1_555
C2 C3 1_555 1_555
C4 C3 1_555 1_555
C5 C4 1_555 1_555
C6 C5 1_555 1_555
H3 C6 1_555 1_555
C7 C2 1_555 1_555
H4 C7 1_555 1_555
C8 O3 1_555 1_555
C9 C8 1_555 1_555
C10 C9 1_555 1_555
H6 C10 1_555 1_555
C11 C10 1_555 1_555
C12 C11 1_555 1_555
H7 C12 1_555 1_555
C13 C8 1_555 1_555
H8 C13 1_555 1_555
C14 C11 1_555 1_555
C15 O6 1_555 1_555
C16 C15 1_555 1_555
C17 C16 1_555 1_555
H9 C17 1_555 1_555
O12 Zn1 1_555 1_555
O13 Zn1 1_555 1_555
O14 Zn2 1_555 1_555
N3 Zn2 1_555 1_555
O7 C15 1_555 1_555
C6 C7 1_555 1_555
C12 C13 1_555 1_555
O5 Zn4 1_555 1_555
Zn4 O1_2 1_555 1_555
Zn5 O2_2 1_555 1_555
O1_2 C1_2 1_555 1_555
O2_2 C1_2 1_555 1_555
O3_2 C5_2 1_555 1_555
O4 C14_2 1_555 1_555
O6_2 Zn5 1_555 1_555
O7_2 Zn5 1_555 1_555
N1 Zn4 1_555 1_555
C1_2 C2_2 1_555 1_555
C2_2 C3_2 1_555 1_555
C3_2 H1 1_555 1_555
C4_2 C3_2 1_555 1_555
H2 C4_2 1_555 1_555
C5_2 C4_2 1_555 1_555
C6_2 C5_2 1_555 1_555
H3_2 C6_2 1_555 1_555
C7_2 C2_2 1_555 1_555
H4_2 C7_2 1_555 1_555
C8_2 O3_2 1_555 1_555
C9_2 C8_2 1_555 1_555
H5 C9_2 1_555 1_555
C10_2 C9_2 1_555 1_555
H6_2 C10_2 1_555 1_555
C11_2 C10_2 1_555 1_555
C12_2 C11_2 1_555 1_555
H7_2 C12_2 1_555 1_555
C13_2 C8_2 1_555 1_555
H8_2 C13_2 1_555 1_555
C14_2 C11_2 1_555 1_555
C15_2 O6_2 1_555 1_555
C16_2 C15_2 1_555 1_555
C17_2 C16_2 1_555 1_555
H9_2 C17_2 1_555 1_555
C29 N1 1_555 1_555
H17 C29 1_555 1_555
N3_2 Zn5 1_555 1_555
O7_2 C15_2 1_555 1_555
C6_2 C7_2 1_555 1_555
C12_2 C13_2 1_555 1_555
O8_2 C19_2 1_555 1_555
O13 C28_2 1_555 1_555
O14 C28_2 1_555 1_555
H10_2 C18_2 1_555 1_555
C19_2 C18_2 1_555 1_555
C20_2 C19_2 1_555 1_555
H11_2 C20_2 1_555 1_555
H12_2 C21_2 1_555 1_555
C22_2 O8_2 1_555 1_555
C23_2 C22_2 1_555 1_555
H13_2 C23_2 1_555 1_555
C24_2 C23_2 1_555 1_555
H14_2 C24_2 1_555 1_555
C25_2 C24_2 1_555 1_555
C26_2 C25_2 1_555 1_555
C27_2 C22_2 1_555 1_555
C28_2 C25_2 1_555 1_555
H18 C30 1_555 1_555
C31 C30 1_555 1_555
C32 C31 1_555 1_555
H19 C32 1_555 1_555
H20 C33 1_555 1_555
C34 C31 1_555 1_555
C35 C34 1_555 1_555
H21 C35 1_555 1_555
C20_2 C21_2 1_555 1_555
C26_2 C27_2 1_555 1_555
C32 C33 1_555 1_555
N3_2 C43 1_555 1_555
C43 C42 1_555 1_555
H26 C43 1_555 1_555
C44 N3_2 1_555 1_555
H27 C44 1_555 1_555
S2 C38 1_555 1_555
N3 C43_2 1_555 1_555
H22 C36 1_555 1_555
C37 S1 1_555 1_555
C38 C37 1_555 1_555
C39 C38 1_555 1_555
H23 C39 1_555 1_555
C40 C39 1_555 1_555
H24 C40 1_555 1_555
C41 S2 1_555 1_555
C42_2 H25 1_555 1_555
C43_2 C42_2 1_555 1_555
H26_2 C43_2 1_555 1_555
C44_2 N3 1_555 1_555
H27_2 C44_2 1_555 1_555
C45 C44_2 1_555 1_555
H28 C45 1_555 1_555
C46 C41 1_555 1_555
C36 C37 1_555 1_555
C40 C41 1_555 1_555
C42_2 C46 1_555 1_555
C45 C46 1_555 1_555
N2 C43_3 1_555 1_555
C43_3 C42_3 1_555 1_555
H26_3 C43_3 1_555 1_555
C44_3 N2 1_555 1_555
H27_3 C44_3 1_555 1_555
Zn6 N2 1_555 1_555
S2_2 C38_2 1_555 1_555
N2_2 C43_4 1_555 1_555
H22_2 C36_2 1_555 1_555
C37_2 S1_2 1_555 1_555
C38_2 C37_2 1_555 1_555
C39_2 C38_2 1_555 1_555
H23_2 C39_2 1_555 1_555
C40_2 C39_2 1_555 1_555
H24_2 C40_2 1_555 1_555
C41_2 S2_2 1_555 1_555
C42_4 H25_2 1_555 1_555
C43_4 C42_4 1_555 1_555
H26_4 C43_4 1_555 1_555
C44_4 N2_2 1_555 1_555
H27_4 C44_4 1_555 1_555
C45_2 C44_4 1_555 1_555
H28_2 C45_2 1_555 1_555
C46_2 C41_2 1_555 1_555
Zn6_2 N2_2 1_555 1_555
C36_2 C37_2 1_555 1_555
C40_2 C41_2 1_555 1_555
C42_4 C46_2 1_555 1_555
C45_2 C46_2 1_555 1_555
O5_2 Zn3 1_555 1_555
Zn3 O1_3 1_555 1_555
Zn6_2 O2_3 1_555 1_555
O1_3 C1_3 1_555 1_555
O2_3 C1_3 1_555 1_555
O3_3 C5_3 1_555 1_555
O4_2 C14_3 1_555 1_555
O6_3 Zn6_2 1_555 1_555
O7_3 Zn6_2 1_555 1_555
C1_3 C2_3 1_555 1_555
C2_3 C3_3 1_555 1_555
C4_3 C3_3 1_555 1_555
C5_3 C4_3 1_555 1_555
C6_3 C5_3 1_555 1_555
H3_3 C6_3 1_555 1_555
C7_3 C2_3 1_555 1_555
H4_3 C7_3 1_555 1_555
C8_3 O3_3 1_555 1_555
C9_3 C8_3 1_555 1_555
C10_3 C9_3 1_555 1_555
H6_3 C10_3 1_555 1_555
C11_3 C10_3 1_555 1_555
C12_3 C11_3 1_555 1_555
H7_3 C12_3 1_555 1_555
C13_3 C8_3 1_555 1_555
H8_3 C13_3 1_555 1_555
C14_3 C11_3 1_555 1_555
C15_3 O6_3 1_555 1_555
C16_3 C15_3 1_555 1_555
C17_3 C16_3 1_555 1_555
H9_3 C17_3 1_555 1_555
O13_2 Zn3 1_555 1_555
O14_2 Zn6_2 1_555 1_555
O7_3 C15_3 1_555 1_555
C6_3 C7_3 1_555 1_555
C12_3 C13_3 1_555 1_555
C20_3 C19_3 1_555 1_555
H11_3 C20_3 1_555 1_555
H12_3 C21_3 1_555 1_555
C20_3 C21_3 1_555 1_555
O9_2 C28_3 1_555 1_555
O10_2 C28_3 1_555 1_555
H10_3 C18_3 1_555 1_555
C22_3 O8_3 1_555 1_555
C23_3 C22_3 1_555 1_555
H13_3 C23_3 1_555 1_555
C24_3 C23_3 1_555 1_555
H14_3 C24_3 1_555 1_555
C25_3 C24_3 1_555 1_555
C26_3 C25_3 1_555 1_555
H15_2 C26_3 1_555 1_555
C27_3 C22_3 1_555 1_555
H16_2 C27_3 1_555 1_555
C28_3 C25_3 1_555 1_555
Zn4_2 O9_2 1_555 1_555
Zn6 O10_2 1_555 1_555
C26_3 C27_3 1_555 1_555
O8_4 C19_4 1_555 1_555
O13_2 C28_4 1_555 1_555
O14_2 C28_4 1_555 1_555
H10_4 C18_4 1_555 1_555
C19_4 C18_4 1_555 1_555
C20_4 C19_4 1_555 1_555
H11_4 C20_4 1_555 1_555
H12_4 C21_4 1_555 1_555
C22_4 O8_4 1_555 1_555
C23_4 C22_4 1_555 1_555
H13_4 C23_4 1_555 1_555
C24_4 C23_4 1_555 1_555
H14_4 C24_4 1_555 1_555
C25_4 C24_4 1_555 1_555
C26_4 C25_4 1_555 1_555
C27_4 C22_4 1_555 1_555
C28_4 C25_4 1_555 1_555
H18_2 C30_2 1_555 1_555
C31_2 C30_2 1_555 1_555
C32_2 C31_2 1_555 1_555
H19_2 C32_2 1_555 1_555
H20_2 C33_2 1_555 1_555
C34_2 C31_2 1_555 1_555
C35_2 C34_2 1_555 1_555
H21_2 C35_2 1_555 1_555
C20_4 C21_4 1_555 1_555
C26_4 C27_4 1_555 1_555
C32_2 C33_2 1_555 1_555
Zn4_2 O1_4 1_555 1_555
Zn6 O2_4 1_555 1_555
O1_4 C1_4 1_555 1_555
O2_4 C1_4 1_555 1_555
O3_4 C5_4 1_555 1_555
O11_2 C14_4 1_555 1_555
O6_4 Zn6 1_555 1_555
O7_4 Zn6 1_555 1_555
N1_2 Zn4_2 1_555 1_555
C1_4 C2_4 1_555 1_555
C2_4 C3_4 1_555 1_555
C3_4 H1_2 1_555 1_555
C4_4 C3_4 1_555 1_555
H2_2 C4_4 1_555 1_555
C5_4 C4_4 1_555 1_555
C6_4 C5_4 1_555 1_555
H3_4 C6_4 1_555 1_555
C7_4 C2_4 1_555 1_555
H4_4 C7_4 1_555 1_555
C8_4 O3_4 1_555 1_555
C9_4 C8_4 1_555 1_555
H5_2 C9_4 1_555 1_555
C10_4 C9_4 1_555 1_555
H6_4 C10_4 1_555 1_555
C11_4 C10_4 1_555 1_555
C12_4 C11_4 1_555 1_555
H7_4 C12_4 1_555 1_555
C13_4 C8_4 1_555 1_555
H8_4 C13_4 1_555 1_555
C14_4 C11_4 1_555 1_555
C15_4 O6_4 1_555 1_555
C16_4 C15_4 1_555 1_555
C17_4 C16_4 1_555 1_555
H9_4 C17_4 1_555 1_555
C29_2 N1_2 1_555 1_555
H17_2 C29_2 1_555 1_555
O12_2 Zn4_2 1_555 1_555
O7_4 C15_4 1_555 1_555
C6_4 C7_4 1_555 1_555
C12_4 C13_4 1_555 1_555
S1_3 C34_3 1_555 1_555
S2_3 C38_3 1_555 1_555
H18_3 C30_3 1_555 1_555
C31_3 C30_3 1_555 1_555
C32_3 C31_3 1_555 1_555
H19_3 C32_3 1_555 1_555
H20_3 C33_3 1_555 1_555
C34_3 C31_3 1_555 1_555
C35_3 C34_3 1_555 1_555
H21_3 C35_3 1_555 1_555
C36_3 C35_3 1_555 1_555
H22_3 C36_3 1_555 1_555
C37_3 S1_3 1_555 1_555
C38_3 C37_3 1_555 1_555
C39_3 C38_3 1_555 1_555
H23_3 C39_3 1_555 1_555
C40_3 C39_3 1_555 1_555
H24_3 C40_3 1_555 1_555
C41_3 S2_3 1_555 1_555
H28_3 C45_3 1_555 1_555
C46_3 C41_3 1_555 1_555
C32_3 C33_3 1_555 1_555
C36_3 C37_3 1_555 1_555
C40_3 C41_3 1_555 1_555
C45_3 C46_3 1_555 1_555
C29_3 N1_3 1_555 1_555
H17_3 C29_3 1_555 1_555
C29_4 N1_4 1_555 1_555
H17_4 C29_4 1_555 1_555
S1_4 C34_4 1_555 1_555
S2_4 C38_4 1_555 1_555
H18_4 C30_4 1_555 1_555
C31_4 C30_4 1_555 1_555
C32_4 C31_4 1_555 1_555
H19_4 C32_4 1_555 1_555
H20_4 C33_4 1_555 1_555
C34_4 C31_4 1_555 1_555
C35_4 C34_4 1_555 1_555
H21_4 C35_4 1_555 1_555
C36_4 C35_4 1_555 1_555
H22_4 C36_4 1_555 1_555
C37_4 S1_4 1_555 1_555
C38_4 C37_4 1_555 1_555
C39_4 C38_4 1_555 1_555
H23_4 C39_4 1_555 1_555
C40_4 C39_4 1_555 1_555
H24_4 C40_4 1_555 1_555
C41_4 S2_4 1_555 1_555
H28_4 C45_4 1_555 1_555
C46_4 C41_4 1_555 1_555
C32_4 C33_4 1_555 1_555
C36_4 C37_4 1_555 1_555
C40_4 C41_4 1_555 1_555
C45_4 C46_4 1_555 1_555

#END
