
###############################################################################
#
# This file contains modified crystal structure data generated from the
# MOF subset of the Cambridge Structural Database (CSD) v543 
# hosted by the Cambridge Crystallographic Data Centre (CCDC).
#
# This work is licensed under the Creative Commons
# Attribution-NonCommercial-ShareAlike 4.0 International License.
# To view a copy of this license, visit
# http://creativecommons.org/licenses/by-nc-sa/4.0/
# or send a letter to
# Creative Commons, PO Box 1866, Mountain View, CA 94042, USA.
#
# CIF created using the CSD Python API on 29 September 2022
# The structure has been converted into the P1 space group
# The structure has a 3D framework
# The original CSD entry KINJUO is in the monoclinic crystal system
# The framework has been calculated to contain at least 10.0% void space
# The void calculation uses a probe of radius 1.32A, grid spacing 0.4
#
###############################################################################

data_KINJUO
_chemical_formula_moiety         '(C160 H120 Cd2 N24 O16)n'
_symmetry_cell_setting           triclinic
_symmetry_space_group_name_H-M   'P 1'
_symmetry_Int_Tables_number      1
_space_group_name_Hall           'P 1'
loop_
_symmetry_equiv_pos_site_id
_symmetry_equiv_pos_as_xyz
1 x,y,z
_cell_length_a                   16.023(5)
_cell_length_b                   24.182(6)
_cell_length_c                   10.566(5)
_cell_angle_alpha                90
_cell_angle_beta                 104.666(5)
_cell_angle_gamma                90
_cell_volume                     3960.6
loop_
_atom_site_label
_atom_site_type_symbol
_atom_site_fract_x
_atom_site_fract_y
_atom_site_fract_z
C42 C 0.9152(3) 0.0175(2) 0.1120(5)
H32 H 0.9665 0.0348 0.1546
C43 C 0.8603(3) 0.0356(2) 0.0011(5)
N2 N 0.2062(2) 0.00067(16) 0.0289(3)
C5 C 0.3226(3) 0.0443(2) 0.1912(5)
H4 H 0.3053 0.0787 0.1545
C6 C 0.3930(3) 0.0398(2) 0.3013(5)
H5 H 0.4235 0.0711 0.3375
N9 N 0.5146(3) 0.02196(18) 0.5276(4)
H33 H 0.8668 0.0671 0.9541
C44 C 0.7208(3) 0.0033(2) 0.8619(4)
C47 C 0.5830(3) 0.0127(2) 0.6436(5)
C48 C 0.6253(3) 0.0595(2) 0.7005(4)
H36 H 0.6076 0.0942 0.6659
C49 C 0.6947(3) 0.0548(2) 0.8100(5)
H37 H 0.7236 0.0863 0.8483
Cd1 Cd 0.039080(19) 0.090556(14) 0.69975(3)
N1 N 0.1161(2) 0.03041(16) 0.8475(4)
C1 C 0.1899(3) 0.0399(2) 0.9347(4)
H1 H 0.2259 0.0698 0.9316
O10 O 0.1663(2) 0.14611(14) 0.7504(3)
O12 O 0.1156(2) 0.11248(15) 0.5521(3)
N12 N 0.9299(2) 0.46660(17) 0.0952(3)
C51 C 0.8763(3) 0.4921(2) 0.1615(5)
H39 H 0.8908 0.4998 0.2506
C52 C 0.8002(3) 0.5041(2) 0.0779(5)
H40 H 0.7534 0.5215 0.0980
O5 O 0.9662(2) 0.37911(15) 0.3525(3)
O6 O 0.9266(2) 0.34012(14) 0.1557(4)
C59 C 0.9150(3) 0.3484(2) 0.2694(5)
C60 C 0.8397(3) 0.32376(19) 0.3035(5)
C61 C 0.7695(3) 0.3056(2) 0.2084(5)
H45 H 0.7713 0.3067 0.1212
C62 C 0.6952(3) 0.2856(2) 0.2404(5)
H46 H 0.6488 0.2727 0.1754
C63 C 0.6920(3) 0.28550(19) 0.3717(5)
C64 C 0.7623(3) 0.3035(2) 0.4674(5)
H47 H 0.7604 0.3026 0.5546
C65 C 0.8355(3) 0.3230(2) 0.4359(5)
H48 H 0.8820 0.3355 0.5014
C66 C 0.6126(3) 0.2654(2) 0.4071(4)
C67 C 0.5875(3) 0.2098(2) 0.3941(4)
C68 C 0.5138(3) 0.19493(19) 0.4344(4)
H49 H 0.4966 0.1581 0.4265
C69 C 0.4655(3) 0.23206(19) 0.4850(4)
C70 C 0.4895(3) 0.2879(2) 0.4974(4)
C71 C 0.5629(3) 0.3028(2) 0.4572(4)
H50 H 0.5797 0.3397 0.4642
C72 C 0.6376(3) 0.1666(2) 0.3421(5)
H51 H 0.6098 0.1313 0.3408
H52 H 0.6398 0.1763 0.2549
H53 H 0.6952 0.1645 0.3973
C73 C 0.4398(3) 0.3315(2) 0.5492(5)
H54 H 0.3911 0.3149 0.5715
H55 H 0.4765 0.3482 0.6256
H56 H 0.4202 0.3593 0.4834
C74 C 0.3873(3) 0.2103(2) 0.5228(4)
C75 C 0.3238(3) 0.1823(2) 0.4321(4)
H57 H 0.3280 0.1793 0.3462
C76 C 0.2551(3) 0.1590(2) 0.4665(4)
H58 H 0.2138 0.1395 0.4048
C77 C 0.2468(3) 0.1643(2) 0.5946(4)
C78 C 0.3103(3) 0.1930(2) 0.6867(5)
H59 H 0.3057 0.1969 0.7723
C79 C 0.3802(3) 0.2155(2) 0.6490(5)
H60 H 0.4227 0.2344 0.7101
C80 C 0.1718(3) 0.13932(19) 0.6360(5)
N7 N 0.8839(2) 0.96959(16) 0.1525(4)
C41 C 0.8101(3) 0.9601(2) 0.0653(4)
H31 H 0.7741 0.9302 0.0684
Cd4 Cd 0.960920(19) 0.909444(14) 0.30025(3)
O9 O 0.8337(2) 0.85389(14) 0.2496(3)
O11 O 0.8844(2) 0.88752(15) 0.4479(3)
O1 O 0.0338(2) 0.62089(15) 0.6475(3)
O2 O 0.0734(2) 0.65988(14) 0.8443(4)
N6 N 0.0701(2) 0.53340(17) 0.9048(3)
C11 C 0.1237(3) 0.5079(2) 0.8385(5)
H9 H 0.1092 0.5002 0.7494
C12 C 0.1998(3) 0.4959(2) 0.9221(5)
H10 H 0.2466 0.4785 0.9020
C19 C 0.0850(3) 0.6516(2) 0.7306(5)
C20 C 0.1603(3) 0.67624(19) 0.6965(5)
C21 C 0.2305(3) 0.6944(2) 0.7916(5)
H15 H 0.2287 0.6933 0.8788
C22 C 0.3048(3) 0.7144(2) 0.7596(5)
H16 H 0.3512 0.7273 0.8246
C23 C 0.3080(3) 0.71450(19) 0.6283(5)
C24 C 0.2377(3) 0.6965(2) 0.5326(5)
H17 H 0.2396 0.6974 0.4454
C25 C 0.1645(3) 0.6770(2) 0.5641(5)
H18 H 0.1180 0.6645 0.4986
C26 C 0.3874(3) 0.7346(2) 0.5929(4)
C27 C 0.4125(3) 0.7902(2) 0.6059(4)
C28 C 0.4862(3) 0.80507(19) 0.5656(4)
H19 H 0.5034 0.8419 0.5735
C29 C 0.5345(3) 0.76794(19) 0.5150(4)
C30 C 0.5105(3) 0.7121(2) 0.5026(4)
C31 C 0.4371(3) 0.6972(2) 0.5428(4)
H20 H 0.4203 0.6603 0.5358
C32 C 0.3624(3) 0.8334(2) 0.6579(5)
H21 H 0.3902 0.8687 0.6592
H22 H 0.3602 0.8237 0.7451
H23 H 0.3048 0.8355 0.6027
C33 C 0.5602(3) 0.6685(2) 0.4508(5)
H24 H 0.6089 0.6851 0.4285
H25 H 0.5235 0.6518 0.3744
H26 H 0.5798 0.6407 0.5166
C34 C 0.6127(3) 0.7897(2) 0.4772(4)
C35 C 0.6762(3) 0.8177(2) 0.5679(4)
H27 H 0.6720 0.8207 0.6538
C36 C 0.7449(3) 0.8410(2) 0.5335(4)
H28 H 0.7862 0.8605 0.5952
C37 C 0.7532(3) 0.8357(2) 0.4054(4)
C38 C 0.6897(3) 0.8070(2) 0.3133(5)
H29 H 0.6943 0.8031 0.2277
C39 C 0.6198(3) 0.7845(2) 0.3510(5)
H30 H 0.5773 0.7656 0.2899
C40 C 0.8282(3) 0.86068(19) 0.3640(5)
N3 N 0.4854(3) 0.97804(18) 0.4724(4)
H3 H 0.1332 0.9329 0.0459
C4 C 0.2792(3) 0.9967(2) 0.1381(4)
C7 C 0.4170(3) 0.9873(2) 0.3564(5)
C8 C 0.3747(3) 0.9405(2) 0.2995(4)
H6 H 0.3924 0.9058 0.3341
C9 C 0.3053(3) 0.9452(2) 0.1900(5)
H7 H 0.2764 0.9137 0.1517
N8 N 0.7938(2) 0.99933(16) 0.9711(3)
C45 C 0.6774(3) 0.9557(2) 0.8088(5)
H34 H 0.6947 0.9213 0.8455
C46 C 0.6070(3) 0.9602(2) 0.6987(5)
H35 H 0.5765 0.9289 0.6625
C2 C 0.0848(3) 0.9825(2) 0.8880(5)
H2 H 0.0335 0.9652 0.8454
C3 C 0.1397(3) 0.9644(2) 0.9989(5)
O3 O 0.1663(2) 0.35389(14) 0.2504(3)
O4 O 0.1156(2) 0.38752(15) 0.0521(3)
H17_2 H 0.7604 0.1974 0.0546
H18_2 H 0.8820 0.1645 0.0014
C33_2 C 0.4398(3) 0.1685(2) 0.0492(5)
H24_2 H 0.3911 0.1851 0.0715
H25_2 H 0.4765 0.1518 0.1256
C34_2 C 0.3873(3) 0.2897(2) 0.0228(4)
C37_2 C 0.2468(3) 0.3357(2) 0.0946(4)
C38_2 C 0.3103(3) 0.3070(2) 0.1867(5)
H29_2 H 0.3057 0.3031 0.2723
C39_2 C 0.3802(3) 0.2845(2) 0.1490(5)
H30_2 H 0.4227 0.2656 0.2101
C40_2 C 0.1718(3) 0.36068(19) 0.1360(5)
Cd5 Cd 0.039080(19) 0.409444(14) 0.19975(3)
N13 N 0.1161(2) 0.46959(16) 0.3475(4)
N8_2 N 0.2062(2) 0.49933(16) 0.5289(3)
N9_2 N 0.4854(3) 0.52196(18) 0.9724(4)
C41_2 C 0.1899(3) 0.4601(2) 0.4347(4)
H31_2 H 0.2259 0.4302 0.4316
C42_2 C 0.0848(3) 0.5175(2) 0.3880(5)
H32_2 H 0.0335 0.5348 0.3454
C43_2 C 0.1397(3) 0.5356(2) 0.4989(5)
H33_2 H 0.1332 0.5671 0.5459
C44_2 C 0.2792(3) 0.5033(2) 0.6381(4)
C45_2 C 0.3226(3) 0.4557(2) 0.6912(5)
H34_2 H 0.3053 0.4213 0.6545
C46_2 C 0.3930(3) 0.4602(2) 0.8013(5)
H35_2 H 0.4235 0.4289 0.8375
C47_2 C 0.4170(3) 0.5127(2) 0.8564(5)
C48_2 C 0.3747(3) 0.5595(2) 0.7995(4)
H36_2 H 0.3924 0.5942 0.8341
C49_2 C 0.3053(3) 0.5548(2) 0.6900(5)
H37_2 H 0.2764 0.5863 0.6517
O1_2 O 0.9662(2) 0.12089(15) 0.8525(3)
O2_2 O 0.9266(2) 0.15988(14) 0.6557(4)
N4 N 0.5283(2) 0.01816(17) 0.0051(4)
N5 N 0.8049(2) 0.01454(16) 0.4564(3)
N6_2 N 0.9299(2) 0.03340(17) 0.5952(3)
C10 C 0.8845(3) 0.0372(2) 0.4724(4)
H8 H 0.9044 0.0532 0.4056
C11_2 C 0.8763(3) 0.0079(2) 0.6615(5)
H9_2 H 0.8908 0.0002 0.7506
C13 C 0.7356(3) 0.0131(2) 0.3406(4)
C14 C 0.7312(3) 0.0529(2) 0.2445(4)
H11 H 0.7741 0.0796 0.2532
C15 C 0.6617(3) 0.0520(2) 0.1353(5)
H12 H 0.6584 0.0784 0.0703
C16 C 0.5980(3) 0.0132(2) 0.1208(4)
C19_2 C 0.9150(3) 0.1516(2) 0.7694(5)
C20_2 C 0.8397(3) 0.17624(19) 0.8035(5)
C21_2 C 0.7695(3) 0.1944(2) 0.7084(5)
H15_2 H 0.7713 0.1933 0.6212
C22_2 C 0.6952(3) 0.2144(2) 0.7404(5)
H16_2 H 0.6488 0.2273 0.6754
C23_2 C 0.6920(3) 0.21450(19) 0.8717(5)
C24_2 C 0.7623(3) 0.1965(2) 0.9674(5)
C25_2 C 0.8355(3) 0.1770(2) 0.9359(5)
C26_2 C 0.6126(3) 0.2346(2) 0.9071(4)
C27_2 C 0.5875(3) 0.2902(2) 0.8941(4)
C28_2 C 0.5138(3) 0.30507(19) 0.9344(4)
H19_2 H 0.4966 0.3419 0.9265
C29_2 C 0.4655(3) 0.26794(19) 0.9850(4)
C30_2 C 0.4895(3) 0.2121(2) 0.9974(4)
C31_2 C 0.5629(3) 0.1972(2) 0.9572(4)
H20_2 H 0.5797 0.1603 0.9642
C32_2 C 0.6376(3) 0.3334(2) 0.8421(5)
H21_2 H 0.6098 0.3687 0.8408
H22_2 H 0.6398 0.3237 0.7549
H23_2 H 0.6952 0.3355 0.8973
H26_2 H 0.4202 0.1407 0.9834
C35_2 C 0.3238(3) 0.3177(2) 0.9321(4)
H27_2 H 0.3280 0.3207 0.8462
C36_2 C 0.2551(3) 0.3410(2) 0.9665(4)
H28_2 H 0.2138 0.3605 0.9048
C52_2 C 0.1998(3) 0.0041(2) 0.4221(5)
H40_2 H 0.2466 0.0215 0.4020
C57 C 0.3958(3) 0.0268(2) 0.7857(5)
H43 H 0.4379 0.0541 0.7964
C58 C 0.3269(3) 0.0269(2) 0.6747(5)
H44 H 0.3232 0.0540 0.6111
C12_2 C 0.8002(3) 0.9959(2) 0.5779(5)
H10_2 H 0.7534 0.9785 0.5980
C17 C 0.6042(3) 0.9732(2) 0.2143(5)
H13 H 0.5621 0.9459 0.2036
C18 C 0.6731(3) 0.9731(2) 0.3253(5)
H14 H 0.6768 0.9460 0.3889
N10 N 0.4717(2) 0.98184(17) 0.9949(4)
N11 N 0.1951(2) 0.98546(16) 0.5436(3)
N12_2 N 0.0701(2) 0.96660(17) 0.4048(3)
C50 C 0.1155(3) 0.9628(2) 0.5276(4)
H38 H 0.0956 0.9468 0.5944
C51_2 C 0.1237(3) 0.9921(2) 0.3385(5)
H39_2 H 0.1092 0.9998 0.2494
C53 C 0.2644(3) 0.9869(2) 0.6594(4)
C54 C 0.2688(3) 0.9471(2) 0.7555(4)
H41 H 0.2259 0.9204 0.7468
C55 C 0.3383(3) 0.9480(2) 0.8647(5)
H42 H 0.3416 0.9216 0.9297
C56 C 0.4020(3) 0.9868(2) 0.8792(4)
O5_2 O 0.0338(2) 0.87911(15) 0.1475(3)
O6_2 O 0.0734(2) 0.84012(14) 0.3443(4)
C59_2 C 0.0850(3) 0.8484(2) 0.2306(5)
C60_2 C 0.1603(3) 0.82376(19) 0.1965(5)
C61_2 C 0.2305(3) 0.8056(2) 0.2916(5)
H45_2 H 0.2287 0.8067 0.3788
C62_2 C 0.3048(3) 0.7856(2) 0.2596(5)
H46_2 H 0.3512 0.7727 0.3246
C63_2 C 0.3080(3) 0.78550(19) 0.1283(5)
C64_2 C 0.2377(3) 0.8035(2) 0.0326(5)
C65_2 C 0.1645(3) 0.8230(2) 0.0641(5)
C66_2 C 0.3874(3) 0.7654(2) 0.0929(4)
C67_2 C 0.4125(3) 0.7098(2) 0.1059(4)
C68_2 C 0.4862(3) 0.69493(19) 0.0656(4)
H49_2 H 0.5034 0.6581 0.0735
C69_2 C 0.5345(3) 0.73206(19) 0.0150(4)
C70_2 C 0.5105(3) 0.7879(2) 0.0026(4)
C71_2 C 0.4371(3) 0.8028(2) 0.0428(4)
H50_2 H 0.4203 0.8397 0.0358
C72_2 C 0.3624(3) 0.6666(2) 0.1579(5)
H51_2 H 0.3902 0.6313 0.1592
H52_2 H 0.3602 0.6763 0.2451
H53_2 H 0.3048 0.6645 0.1027
H56_2 H 0.5798 0.8593 0.0166
C75_2 C 0.6762(3) 0.6823(2) 0.0679(4)
H57_2 H 0.6720 0.6793 0.1538
C76_2 C 0.7449(3) 0.6590(2) 0.0335(4)
H58_2 H 0.7862 0.6395 0.0952
O7 O 0.8337(2) 0.64611(14) 0.7496(3)
O8 O 0.8844(2) 0.61248(15) 0.9479(3)
H47_2 H 0.2396 0.8026 0.9454
H48_2 H 0.1180 0.8355 0.9986
C73_2 C 0.5602(3) 0.8315(2) 0.9508(5)
H54_2 H 0.6089 0.8149 0.9285
H55_2 H 0.5235 0.8482 0.8744
C74_2 C 0.6127(3) 0.7103(2) 0.9772(4)
C77_2 C 0.7532(3) 0.6643(2) 0.9054(4)
C78_2 C 0.6897(3) 0.6930(2) 0.8133(5)
H59_2 H 0.6943 0.6969 0.7277
C79_2 C 0.6198(3) 0.7155(2) 0.8510(5)
H60_2 H 0.5773 0.7344 0.7899
C80_2 C 0.8282(3) 0.63932(19) 0.8640(5)
Cd3 Cd 0.960920(19) 0.590556(14) 0.80025(3)
N1_2 N 0.8839(2) 0.53041(16) 0.6525(4)
N2_2 N 0.7938(2) 0.50067(16) 0.4711(3)
N3_2 N 0.5146(3) 0.47804(18) 0.0276(4)
C1_2 C 0.8101(3) 0.5399(2) 0.5653(4)
H1_2 H 0.7741 0.5698 0.5684
C2_2 C 0.9152(3) 0.4825(2) 0.6120(5)
H2_2 H 0.9665 0.4652 0.6546
C3_2 C 0.8603(3) 0.4644(2) 0.5011(5)
H3_2 H 0.8668 0.4329 0.4541
C4_2 C 0.7208(3) 0.4967(2) 0.3619(4)
C5_2 C 0.6774(3) 0.5443(2) 0.3088(5)
H4_2 H 0.6947 0.5787 0.3455
C6_2 C 0.6070(3) 0.5398(2) 0.1987(5)
H5_2 H 0.5765 0.5711 0.1625
C7_2 C 0.5830(3) 0.4873(2) 0.1436(5)
C8_2 C 0.6253(3) 0.4405(2) 0.2005(4)
H6_2 H 0.6076 0.4058 0.1659
C9_2 C 0.6947(3) 0.4452(2) 0.3100(5)
H7_2 H 0.7236 0.4137 0.3483
N4_2 N 0.4717(2) 0.51816(17) 0.4949(4)
N5_2 N 0.1951(2) 0.51454(16) 0.0436(3)
C10_2 C 0.1155(3) 0.5372(2) 0.0276(4)
H8_2 H 0.0956 0.5532 0.0944
C13_2 C 0.2644(3) 0.5131(2) 0.1594(4)
C14_2 C 0.2688(3) 0.5529(2) 0.2555(4)
H11_2 H 0.2259 0.5796 0.2468
C15_2 C 0.3383(3) 0.5520(2) 0.3647(5)
H12_2 H 0.3416 0.5784 0.4297
C16_2 C 0.4020(3) 0.5132(2) 0.3792(4)
C17_2 C 0.3958(3) 0.4732(2) 0.2857(5)
H13_2 H 0.4379 0.4459 0.2964
C18_2 C 0.3269(3) 0.4731(2) 0.1747(5)
H14_2 H 0.3232 0.4460 0.1111
N10_2 N 0.5283(2) 0.48184(17) 0.5051(4)
N11_2 N 0.8049(2) 0.48546(16) 0.9564(3)
C50_2 C 0.8845(3) 0.4628(2) 0.9724(4)
H38_2 H 0.9044 0.4468 0.9056
C53_2 C 0.7356(3) 0.4869(2) 0.8406(4)
C54_2 C 0.7312(3) 0.4471(2) 0.7445(4)
H41_2 H 0.7741 0.4204 0.7532
C55_2 C 0.6617(3) 0.4480(2) 0.6353(5)
H42_2 H 0.6584 0.4216 0.5703
C56_2 C 0.5980(3) 0.4868(2) 0.6208(4)
C57_2 C 0.6042(3) 0.5268(2) 0.7143(5)
H43_2 H 0.5621 0.5541 0.7036
C58_2 C 0.6731(3) 0.5269(2) 0.8253(5)
H44_2 H 0.6768 0.5540 0.8889
loop_
_geom_bond_atom_site_label_1
_geom_bond_atom_site_label_2
_geom_bond_site_symmetry_1
_geom_bond_site_symmetry_2
H32 C42 1_555 1_555
C42 C43 1_555 1_555
H4 C5 1_555 1_555
C6 C5 1_555 1_555
H5 C6 1_555 1_555
C47 N9 1_555 1_555
C48 C47 1_555 1_555
H36 C48 1_555 1_555
C49 C44 1_555 1_555
H37 C49 1_555 1_555
C48 C49 1_555 1_555
N1 Cd1 1_555 1_555
C1 N1 1_555 1_555
H1 C1 1_555 1_555
O10 Cd1 1_555 1_555
O12 Cd1 1_555 1_555
C51 N12 1_555 1_555
H39 C51 1_555 1_555
H40 C52 1_555 1_555
O10 C80 1_555 1_555
O12 C80 1_555 1_555
C59 O5 1_555 1_555
C60 C59 1_555 1_555
C61 C60 1_555 1_555
H45 C61 1_555 1_555
C62 C61 1_555 1_555
H46 C62 1_555 1_555
C63 C62 1_555 1_555
C64 C63 1_555 1_555
H47 C64 1_555 1_555
C65 C60 1_555 1_555
H48 C65 1_555 1_555
C66 C63 1_555 1_555
C67 C66 1_555 1_555
C68 C67 1_555 1_555
H49 C68 1_555 1_555
C69 C68 1_555 1_555
C70 C69 1_555 1_555
C71 C66 1_555 1_555
H50 C71 1_555 1_555
C72 C67 1_555 1_555
H51 C72 1_555 1_555
H52 C72 1_555 1_555
H53 C72 1_555 1_555
C73 C70 1_555 1_555
H54 C73 1_555 1_555
H55 C73 1_555 1_555
H56 C73 1_555 1_555
C74 C69 1_555 1_555
C75 C74 1_555 1_555
H57 C75 1_555 1_555
C76 C75 1_555 1_555
H58 C76 1_555 1_555
C77 C76 1_555 1_555
C78 C77 1_555 1_555
H59 C78 1_555 1_555
C79 C74 1_555 1_555
H60 C79 1_555 1_555
C80 C77 1_555 1_555
C51 C52 1_555 1_555
O6 C59 1_555 1_555
C64 C65 1_555 1_555
C70 C71 1_555 1_555
C78 C79 1_555 1_555
N7 C41 1_555 1_555
C41 H31 1_555 1_555
Cd4 N7 1_555 1_555
O9 Cd4 1_555 1_555
O11 Cd4 1_555 1_555
O1 C19 1_555 1_555
O9 C40 1_555 1_555
O11 C40 1_555 1_555
C11 N6 1_555 1_555
H9 C11 1_555 1_555
H10 C12 1_555 1_555
C19 O2 1_555 1_555
C20 C19 1_555 1_555
C21 C20 1_555 1_555
H15 C21 1_555 1_555
C22 C21 1_555 1_555
H16 C22 1_555 1_555
C23 C22 1_555 1_555
C24 C23 1_555 1_555
H17 C24 1_555 1_555
C25 C20 1_555 1_555
H18 C25 1_555 1_555
C26 C23 1_555 1_555
C27 C26 1_555 1_555
C28 C27 1_555 1_555
H19 C28 1_555 1_555
C29 C28 1_555 1_555
C30 C29 1_555 1_555
C31 C26 1_555 1_555
H20 C31 1_555 1_555
C32 C27 1_555 1_555
H21 C32 1_555 1_555
H22 C32 1_555 1_555
H23 C32 1_555 1_555
C33 C30 1_555 1_555
H24 C33 1_555 1_555
H25 C33 1_555 1_555
H26 C33 1_555 1_555
C34 C29 1_555 1_555
C35 C34 1_555 1_555
H27 C35 1_555 1_555
C36 C35 1_555 1_555
H28 C36 1_555 1_555
C37 C36 1_555 1_555
C38 C37 1_555 1_555
H29 C38 1_555 1_555
C39 C34 1_555 1_555
H30 C39 1_555 1_555
C40 C37 1_555 1_555
C11 C12 1_555 1_555
C24 C25 1_555 1_555
C30 C31 1_555 1_555
C38 C39 1_555 1_555
N3 C7 1_555 1_555
C8 C7 1_555 1_555
H6 C8 1_555 1_555
C9 C4 1_555 1_555
H7 C9 1_555 1_555
H34 C45 1_555 1_555
C46 C45 1_555 1_555
H35 C46 1_555 1_555
C8 C9 1_555 1_555
H2 C2 1_555 1_555
C2 C3 1_555 1_555
O3 C40_2 1_555 1_555
O4 C40_2 1_555 1_555
H24_2 C33_2 1_555 1_555
H25_2 C33_2 1_555 1_555
C38_2 C37_2 1_555 1_555
H29_2 C38_2 1_555 1_555
C39_2 C34_2 1_555 1_555
H30_2 C39_2 1_555 1_555
C40_2 C37_2 1_555 1_555
Cd5 O3 1_555 1_555
O4 Cd5 1_555 1_555
C38_2 C39_2 1_555 1_555
N13 Cd5 1_555 1_555
N13 C41_2 1_555 1_555
N8_2 C41_2 1_555 1_555
C41_2 H31_2 1_555 1_555
C42_2 N13 1_555 1_555
H32_2 C42_2 1_555 1_555
C43_2 N8_2 1_555 1_555
H33_2 C43_2 1_555 1_555
C44_2 N8_2 1_555 1_555
C45_2 C44_2 1_555 1_555
H34_2 C45_2 1_555 1_555
C46_2 C45_2 1_555 1_555
H35_2 C46_2 1_555 1_555
C47_2 N9_2 1_555 1_555
C48_2 C47_2 1_555 1_555
H36_2 C48_2 1_555 1_555
C49_2 C44_2 1_555 1_555
H37_2 C49_2 1_555 1_555
C42_2 C43_2 1_555 1_555
C46_2 C47_2 1_555 1_555
C48_2 C49_2 1_555 1_555
O1_2 C19_2 1_555 1_555
N4 C16 1_555 1_555
N5 C10 1_555 1_555
C10 N6_2 1_555 1_555
H8 C10 1_555 1_555
C11_2 N6_2 1_555 1_555
H9_2 C11_2 1_555 1_555
C13 N5 1_555 1_555
C14 C13 1_555 1_555
H11 C14 1_555 1_555
C15 C14 1_555 1_555
H12 C15 1_555 1_555
C16 C15 1_555 1_555
C19_2 O2_2 1_555 1_555
C20_2 C19_2 1_555 1_555
C21_2 C20_2 1_555 1_555
H15_2 C21_2 1_555 1_555
C22_2 C21_2 1_555 1_555
H16_2 C22_2 1_555 1_555
C23_2 C22_2 1_555 1_555
C24_2 C23_2 1_555 1_555
C25_2 C20_2 1_555 1_555
C26_2 C23_2 1_555 1_555
C27_2 C26_2 1_555 1_555
C28_2 C27_2 1_555 1_555
H19_2 C28_2 1_555 1_555
C29_2 C28_2 1_555 1_555
C30_2 C29_2 1_555 1_555
C31_2 C26_2 1_555 1_555
H20_2 C31_2 1_555 1_555
C32_2 C27_2 1_555 1_555
H21_2 C32_2 1_555 1_555
H22_2 C32_2 1_555 1_555
H23_2 C32_2 1_555 1_555
H27_2 C35_2 1_555 1_555
C36_2 C35_2 1_555 1_555
H28_2 C36_2 1_555 1_555
C24_2 C25_2 1_555 1_555
C30_2 C31_2 1_555 1_555
H40_2 C52_2 1_555 1_555
H43 C57 1_555 1_555
H44 C58 1_555 1_555
C57 C58 1_555 1_555
H10_2 C12_2 1_555 1_555
H13 C17 1_555 1_555
H14 C18 1_555 1_555
C17 C18 1_555 1_555
N11 C50 1_555 1_555
N12_2 C50 1_555 1_555
C50 H38 1_555 1_555
C51_2 N12_2 1_555 1_555
H39_2 C51_2 1_555 1_555
C53 N11 1_555 1_555
C54 C53 1_555 1_555
H41 C54 1_555 1_555
C55 C54 1_555 1_555
H42 C55 1_555 1_555
C56 N10 1_555 1_555
C59_2 O5_2 1_555 1_555
C60_2 C59_2 1_555 1_555
C61_2 C60_2 1_555 1_555
H45_2 C61_2 1_555 1_555
C62_2 C61_2 1_555 1_555
H46_2 C62_2 1_555 1_555
C63_2 C62_2 1_555 1_555
C64_2 C63_2 1_555 1_555
C65_2 C60_2 1_555 1_555
C66_2 C63_2 1_555 1_555
C67_2 C66_2 1_555 1_555
C68_2 C67_2 1_555 1_555
H49_2 C68_2 1_555 1_555
C69_2 C68_2 1_555 1_555
C70_2 C69_2 1_555 1_555
C71_2 C66_2 1_555 1_555
H50_2 C71_2 1_555 1_555
C72_2 C67_2 1_555 1_555
H51_2 C72_2 1_555 1_555
H52_2 C72_2 1_555 1_555
H53_2 C72_2 1_555 1_555
H57_2 C75_2 1_555 1_555
C76_2 C75_2 1_555 1_555
H58_2 C76_2 1_555 1_555
C55 C56 1_555 1_555
O6_2 C59_2 1_555 1_555
C64_2 C65_2 1_555 1_555
C70_2 C71_2 1_555 1_555
O7 C80_2 1_555 1_555
O8 C80_2 1_555 1_555
H54_2 C73_2 1_555 1_555
H55_2 C73_2 1_555 1_555
C78_2 C77_2 1_555 1_555
H59_2 C78_2 1_555 1_555
C79_2 C74_2 1_555 1_555
H60_2 C79_2 1_555 1_555
C80_2 C77_2 1_555 1_555
Cd3 O7 1_555 1_555
O8 Cd3 1_555 1_555
C78_2 C79_2 1_555 1_555
N1_2 Cd3 1_555 1_555
N2_2 C1_2 1_555 1_555
N3_2 C7_2 1_555 1_555
C1_2 N1_2 1_555 1_555
H1_2 C1_2 1_555 1_555
C2_2 N1_2 1_555 1_555
H2_2 C2_2 1_555 1_555
C3_2 N2_2 1_555 1_555
H3_2 C3_2 1_555 1_555
C4_2 N2_2 1_555 1_555
C5_2 C4_2 1_555 1_555
H4_2 C5_2 1_555 1_555
C6_2 C5_2 1_555 1_555
H5_2 C6_2 1_555 1_555
C7_2 C6_2 1_555 1_555
C8_2 C7_2 1_555 1_555
H6_2 C8_2 1_555 1_555
C9_2 C4_2 1_555 1_555
H7_2 C9_2 1_555 1_555
C2_2 C3_2 1_555 1_555
C8_2 C9_2 1_555 1_555
N4_2 C16_2 1_555 1_555
N5_2 C10_2 1_555 1_555
H8_2 C10_2 1_555 1_555
C13_2 N5_2 1_555 1_555
C14_2 C13_2 1_555 1_555
H11_2 C14_2 1_555 1_555
C15_2 C14_2 1_555 1_555
H12_2 C15_2 1_555 1_555
C16_2 C15_2 1_555 1_555
C17_2 C16_2 1_555 1_555
H13_2 C17_2 1_555 1_555
C18_2 C13_2 1_555 1_555
H14_2 C18_2 1_555 1_555
N10_2 N4_2 1_555 1_555
N11_2 C50_2 1_555 1_555
C50_2 H38_2 1_555 1_555
C53_2 N11_2 1_555 1_555
C54_2 C53_2 1_555 1_555
H41_2 C54_2 1_555 1_555
C55_2 C54_2 1_555 1_555
H42_2 C55_2 1_555 1_555
C56_2 N10_2 1_555 1_555
C57_2 C56_2 1_555 1_555
H43_2 C57_2 1_555 1_555
C58_2 C53_2 1_555 1_555
H44_2 C58_2 1_555 1_555
C17_2 C18_2 1_555 1_555
C55_2 C56_2 1_555 1_555
C57_2 C58_2 1_555 1_555

#END
