
###############################################################################
#
# This file contains modified crystal structure data generated from the
# MOF subset of the Cambridge Structural Database (CSD) v543 
# hosted by the Cambridge Crystallographic Data Centre (CCDC).
#
# This work is licensed under the Creative Commons
# Attribution-NonCommercial-ShareAlike 4.0 International License.
# To view a copy of this license, visit
# http://creativecommons.org/licenses/by-nc-sa/4.0/
# or send a letter to
# Creative Commons, PO Box 1866, Mountain View, CA 94042, USA.
#
# CIF created using the CSD Python API on 29 September 2022
# The structure has been converted into the P1 space group
# The structure has a 3D framework
# The original CSD entry KINKUP is in the triclinic crystal system
# The original CSD entry KINKUP is in a Sohncke space group
# The framework has been calculated to contain at least 10.0% void space
# The void calculation uses a probe of radius 1.32A, grid spacing 0.4
#
###############################################################################

data_KINKUP
_chemical_formula_moiety         '(C98 H76 N30 O9 Zn3)n'
_symmetry_cell_setting           triclinic
_symmetry_space_group_name_H-M   'P 1'
_symmetry_Int_Tables_number      1
_space_group_name_Hall           'P 1'
loop_
_symmetry_equiv_pos_site_id
_symmetry_equiv_pos_as_xyz
1 x,y,z
_cell_length_a                   11.443(5)
_cell_length_b                   12.965(3)
_cell_length_c                   17.669(5)
_cell_angle_alpha                99.748(5)
_cell_angle_beta                 101.328(5)
_cell_angle_gamma                103.586(5)
_cell_volume                     2433.68
loop_
_atom_site_label
_atom_site_type_symbol
_atom_site_fract_x
_atom_site_fract_y
_atom_site_fract_z
_atom_site_U_iso_or_equiv
_atom_site_thermal_displace_type
Zn8 Zn 0.44878(12) 0.40330(11) 0.09527(8) 0.0270 Uani
O6 O 0.4739(7) 0.5161(7) 0.0243(4) 0.0187 Uani
O8 O 0.6005(7) 0.5213(7) 0.1829(5) 0.0223 Uani
O9 O 0.6044(7) 0.3572(7) 0.0670(5) 0.0199 Uani
O10 O 0.8046(7) 0.4319(8) 0.0771(5) 0.0315 Uani
N15 N 0.0179(11) 0.5861(10) 0.5256(7) 0.0389 Uani
N17 N 0.1907(8) 0.5161(8) 0.2082(5) 0.0150 Uiso
N18 N 0.3185(9) 0.4735(9) 0.1371(6) 0.0230 Uani
N25 N 0.4490(8) 0.2903(8) 0.1693(5) 0.0180 Uani
N26 N 0.5303(9) 0.2206(8) 0.2686(5) 0.0175 Uani
N27 N 0.8157(8) 0.1908(9) 0.5550(6) 0.0222 Uani
N28 N 0.8482(9) 0.2735(8) 0.6148(6) 0.0240 Uani
C44 C 0.0061(13) 0.6186(13) 0.6580(9) 0.0382 Uani
H34 H 0.0902 0.6227 0.6679 0.0460 Uiso
H35 H 0.0029 0.6524 0.7727 0.0370 Uiso
C46 C 0.0249(12) 0.5606(11) 0.3980(8) 0.0302 Uani
C48 C 0.0068(12) 0.5110(11) 0.2586(7) 0.0234 Uani
C49 C 0.1335(10) 0.5337(10) 0.2747(7) 0.0154 Uani
C50 C 0.2087(14) 0.5676(13) 0.3507(7) 0.0327 Uani
H38 H 0.2942 0.5801 0.3600 0.0390 Uiso
C51 C 0.1516(14) 0.5823(11) 0.4133(8) 0.0360 Uani
H39 H 0.1995 0.6067 0.4652 0.0430 Uiso
C52 C 0.2900(11) 0.4739(11) 0.2061(7) 0.0229 Uani
H40 H 0.3311 0.4493 0.2472 0.0270 Uiso
C53 C 0.1551(12) 0.5403(11) 0.1384(8) 0.0269 Uani
H41 H 0.0898 0.5697 0.1233 0.0320 Uiso
C54 C 0.2332(9) 0.5135(10) 0.0929(6) 0.0143 Uani
H42 H 0.2292 0.5211 0.0411 0.0170 Uiso
C73 C 0.5221(11) 0.3091(9) 0.2406(7) 0.0165 Uani
H57 H 0.5652 0.3792 0.2697 0.0200 Uiso
C74 C 0.4055(11) 0.1778(11) 0.1473(7) 0.0255 Uani
H58 H 0.3509 0.1386 0.0993 0.0310 Uiso
C75 C 0.4560(11) 0.1310(13) 0.2084(7) 0.0344 Uani
H59 H 0.4427 0.0575 0.2085 0.0410 Uiso
C76 C 0.6035(11) 0.2128(11) 0.3387(7) 0.0239 Uani
C77 C 0.6259(10) 0.1181(10) 0.3521(7) 0.0174 Uani
H60 H 0.5946 0.0552 0.3119 0.0210 Uiso
C78 C 0.6924(11) 0.1140(11) 0.4226(7) 0.0275 Uani
H61 H 0.7055 0.0478 0.4296 0.0330 Uiso
C79 C 0.7434(11) 0.2057(11) 0.4864(6) 0.0209 Uani
C80 C 0.7215(12) 0.3017(11) 0.4762(8) 0.0305 Uani
H62 H 0.7516 0.3622 0.5185 0.0370 Uiso
C81 C 0.6543(12) 0.3117(10) 0.4031(7) 0.0254 Uani
H63 H 0.6425 0.3783 0.3959 0.0310 Uiso
C87 C 0.9528(11) 0.1633(10) 0.6892(7) 0.0241 Uani
H68 H 0.9180 0.1036 0.6466 0.0290 Uiso
C88 C 0.9240(11) 0.2580(10) 0.6833(7) 0.0240 Uani
C89 C 0.9627(16) 0.3380(14) 0.7479(8) 0.0427 Uani
H69 H 0.9352 0.4001 0.7481 0.0510 Uiso
C95 C 0.5635(11) 0.5902(10) 0.0283(7) 0.0177 Uani
C96 C 0.6869(11) 0.6246(10) 0.0908(6) 0.0240 Uani
H74 H 0.6943 0.6941 0.1248 0.0280 Uiso
H75 H 0.7541 0.6349 0.0644 0.0280 Uiso
C97 C 0.7016(10) 0.5395(10) 0.1440(6) 0.0194 Uani
H76 H 0.7797 0.5703 0.1849 0.0230 Uiso
C98 C 0.7061(13) 0.4312(12) 0.0951(7) 0.0308 Uani
N29 N 0.1815(9) 0.2375(8) 0.8826(5) 0.0188 Uani
N30 N 0.3230(8) 0.2930(8) 0.9976(5) 0.0191 Uani
C82 C 0.2210(12) 0.3037(11) 0.9550(7) 0.0255 Uani
H64 H 0.1798 0.3528 0.9734 0.0310 Uiso
C83 C 0.3578(12) 0.2167(11) 0.9437(7) 0.0263 Uani
H65 H 0.4282 0.1924 0.9552 0.0310 Uiso
C84 C 0.2718(11) 0.1857(10) 0.8733(6) 0.0198 Uani
H66 H 0.2735 0.1387 0.8278 0.0240 Uiso
C85 C 0.0855(10) 0.2438(10) 0.8197(7) 0.0201 Uani
C86 C 0.0298(12) 0.1512(10) 0.7542(7) 0.0258 Uani
H67 H 0.0460 0.0846 0.7562 0.0310 Uiso
C90 C 0.0450(17) 0.3305(14) 0.8165(9) 0.0507 Uani
H70 H 0.0712 0.3884 0.8606 0.0610 Uiso
N11 N 0.3055(8) 0.3994(8) 0.7042(5) 0.0176 Uani
N12 N 0.4011(8) 0.5317(8) 0.8097(5) 0.0185 Uani
C28 C 0.0747(11) 0.2363(9) 0.4800(7) 0.0171 Uani
C29 C 0.0997(12) 0.3452(12) 0.5009(7) 0.0312 Uani
H22 H 0.0649 0.3837 0.4671 0.0370 Uiso
C30 C 0.1808(13) 0.4001(11) 0.5760(8) 0.0323 Uani
H23 H 0.2012 0.4755 0.5919 0.0390 Uiso
C31 C 0.2304(11) 0.3390(10) 0.6265(7) 0.0213 Uani
C32 C 0.2016(12) 0.2261(10) 0.6024(7) 0.0258 Uani
H24 H 0.2344 0.1854 0.6350 0.0310 Uiso
C33 C 0.1246(12) 0.1774(10) 0.5301(6) 0.0255 Uani
H25 H 0.1045 0.1020 0.5135 0.0310 Uiso
C34 C 0.3322(11) 0.5031(11) 0.7353(6) 0.0219 Uani
H26 H 0.3059 0.5524 0.7082 0.0260 Uiso
C35 C 0.3581(11) 0.3515(10) 0.7618(7) 0.0235 Uani
H27 H 0.3545 0.2782 0.7572 0.0280 Uiso
C36 C 0.4162(11) 0.4351(10) 0.8265(7) 0.0224 Uani
H28 H 0.4596 0.4278 0.8747 0.0270 Uiso
Zn5 Zn 0.48046(13) 0.69780(14) 0.87998(8) 0.0280 Uani
O7 O 0.5721(7) 0.6562(7) 0.9782(4) 0.0238 Uani
Zn2 Zn 0.54935(11) 0.98878(11) 0.69202(8) 0.0270 Uani
O1 O 0.3924(7) 0.7412(6) 0.7806(4) 0.0164 Uani
O2 O 0.5417(7) 0.8670(7) 0.7570(4) 0.0185 Uani
O3 O 0.4108(7) 0.8491(7) 0.6077(4) 0.0204 Uani
N1 N 0.3224(8) 0.6950(9) 0.9257(5) 0.0186 Uani
N7 N 0.5611(8) 0.8643(8) 0.9517(5) 0.0168 Uani
N13 N 0.6453(9) 0.6994(9) 0.8395(5) 0.0176 Uani
N14 N 0.7799(9) 0.6732(9) 0.7701(6) 0.0233 Uani
N16 N 0.9526(11) 0.5726(10) 0.4566(6) 0.0317 Uani
C1 C 0.3195(10) 0.7485(11) 0.9938(7) 0.0188 Uani
C2 C 0.2018(11) 0.6328(11) 0.8916(7) 0.0254 Uani
H2 H 0.1755 0.5884 0.8407 0.0310 Uiso
C3 C 0.1292(11) 0.6435(11) 0.9389(7) 0.0220 Uiso
H3 H 0.0469 0.6037 0.9305 0.0270 Uiso
C20 C 0.5340(11) 0.9547(11) 0.9368(7) 0.0274 Uani
H16 H 0.4889 0.9604 0.8885 0.0330 Uiso
C37 C 0.6606(11) 0.6506(9) 0.7714(6) 0.0142 Uani
H29 H 0.5960 0.6060 0.7296 0.0170 Uiso
C38 C 0.7625(10) 0.7613(11) 0.8823(6) 0.0181 Uani
H30 H 0.7824 0.8069 0.9324 0.0220 Uiso
C39 C 0.8459(13) 0.7432(12) 0.8369(8) 0.0327 Uani
H31 H 0.9313 0.7742 0.8510 0.0390 Uiso
C40 C 0.8296(13) 0.6357(13) 0.7061(7) 0.0323 Uani
C41 C 0.7615(14) 0.6086(12) 0.6293(8) 0.0364 Uani
H32 H 0.6773 0.6039 0.6172 0.0440 Uiso
C42 C 0.8217(16) 0.5883(11) 0.5698(7) 0.0418 Uani
H33 H 0.7766 0.5696 0.5173 0.0500 Uiso
C43 C 0.9432(12) 0.5950(11) 0.5861(7) 0.0260 Uiso
C45 C 0.9552(12) 0.6380(12) 0.7210(9) 0.0307 Uani
C47 C 0.9529(13) 0.5309(13) 0.3226(8) 0.0322 Uani
H36 H 0.8682 0.5236 0.3135 0.0390 Uiso
H37 H 0.9581 0.4834 0.2070 0.0280 Uiso
H54 H 0.0289 0.9917 0.0537 0.0650 Uiso
C91 C 0.4362(12) 0.7988(11) 0.7388(7) 0.0254 Uani
C92 C 0.3468(10) 0.7936(9) 0.6603(6) 0.0178 Uani
H71 H 0.3090 0.7169 0.6332 0.0210 Uiso
C93 C 0.2450(10) 0.8456(11) 0.6700(7) 0.0296 Uani
H72 H 0.1879 0.8313 0.6186 0.0350 Uiso
H73 H 0.1996 0.8103 0.7039 0.0350 Uiso
C94 C 0.2844(12) 0.9651(11) 0.7038(7) 0.0270 Uiso
N32 N 0.6910(9) 0.9343(8) 0.6514(5) 0.0161 Uani
N3 N 0.9887(17) 0.8220(16) 0.2688(12) 0.1271 Uani
N20 N 0.8136(9) 0.8900(9) 0.5757(5) 0.0204 Uani
C8 C 0.9990(15) 0.7820(13) 0.1350(9) 0.0712 Uani
H6 H 0.9157 0.7793 0.1291 0.0850 Uiso
H7 H 0.9829 0.7486 0.0177 0.0610 Uiso
C55 C 0.7155(11) 0.9271(10) 0.5791(6) 0.0190 Uani
H43 H 0.6692 0.9459 0.5368 0.0220 Uiso
C56 C 0.7821(10) 0.8949(10) 0.6948(7) 0.0184 Uani
H44 H 0.7892 0.8880 0.7469 0.0220 Uiso
C57 C 0.8578(12) 0.8686(11) 0.6484(7) 0.0255 Uani
H45 H 0.9254 0.8418 0.6628 0.0300 Uiso
C58 C 0.8623(12) 0.8736(13) 0.5079(7) 0.0322 Uani
C59 C 0.7838(15) 0.8303(15) 0.4299(8) 0.0457 Uani
H46 H 0.6977 0.8104 0.4201 0.0540 Uiso
C60 C 0.846(2) 0.8200(17) 0.3692(9) 0.0775 Uani
H47 H 0.7950 0.7966 0.3180 0.0940 Uiso
C61 C 0.9742(19) 0.8401(15) 0.3746(9) 0.0836 Uani
C63 C 0.9922(12) 0.8913(14) 0.5185(8) 0.0359 Uani
N9 N 0.9587(9) 0.2276(8) 0.3595(5) 0.0222 Uani
N10 N 0.9961(10) 0.1706(9) 0.4058(6) 0.0295 Uani
C21 C 0.5855(12) 0.0429(11) 0.0071(7) 0.0285 Uani
H17 H 0.5787 0.1138 0.0139 0.0340 Uiso
C22 C 0.7261(10) 0.0530(10) 0.1370(7) 0.0206 Uani
C23 C 0.7470(10) 0.1628(11) 0.1618(7) 0.0259 Uani
H18 H 0.7068 0.2007 0.1302 0.0310 Uiso
C24 C 0.8284(12) 0.2178(10) 0.2344(7) 0.0237 Uani
H19 H 0.8474 0.2934 0.2486 0.0290 Uiso
C25 C 0.8814(12) 0.1640(13) 0.2853(7) 0.0279 Uani
C26 C 0.8622(12) 0.0506(11) 0.2591(7) 0.0271 Uani
H20 H 0.9055 0.0133 0.2896 0.0330 Uiso
O4 O 0.3938(7) 0.0171(7) 0.7268(5) 0.0227 Uani
O5 O 0.1937(8) 0.0061(9) 0.7136(6) 0.0491 Uani
N4 N 0.1674(10) 0.2154(10) 0.2399(6) 0.0298 Uani
N5 N 0.4489(9) 0.1713(9) 0.5266(5) 0.0231 Uani
N6 N 0.5333(9) 0.0972(8) 0.6175(6) 0.0219 Uani
N22 N 0.1310(9) 0.1325(9) 0.1821(5) 0.0245 Uani
C10 C 0.4624(11) 0.0771(11) 0.5480(7) 0.0197 Uani
H8 H 0.4249 0.0076 0.5161 0.0240 Uiso
C11 C 0.5708(12) 0.2135(10) 0.6449(7) 0.0241 Uani
H9 H 0.6222 0.2526 0.6939 0.0290 Uiso
C12 C 0.5201(11) 0.2546(10) 0.5890(7) 0.0257 Uani
H10 H 0.5304 0.3284 0.5911 0.0310 Uiso
C13 C 0.3788(11) 0.1799(10) 0.4497(6) 0.0192 Uani
C14 C 0.3218(13) 0.0867(12) 0.3906(7) 0.0332 Uani
H11 H 0.3316 0.0195 0.3975 0.0400 Uiso
C15 C 0.2499(12) 0.0963(11) 0.3212(7) 0.0276 Uani
H12 H 0.2093 0.0344 0.2810 0.0330 Uiso
C16 C 0.2381(10) 0.1932(10) 0.3110(7) 0.0186 Uani
C17 C 0.2952(10) 0.2862(10) 0.3713(7) 0.0187 Uani
H13 H 0.2870 0.3537 0.3637 0.0220 Uiso
C18 C 0.3633(11) 0.2780(11) 0.4414(7) 0.0236 Uani
H14 H 0.3986 0.3390 0.4830 0.0290 Uiso
C69 C 0.0093(17) 0.0566(15) 0.0499(9) 0.0545 Uani
C70 C 0.0574(10) 0.1520(10) 0.1136(7) 0.0180 Uani
C71 C 0.0233(11) 0.2434(11) 0.1085(7) 0.0236 Uani
H55 H 0.0545 0.3037 0.1509 0.0280 Uiso
N33 N 0.6668(9) 0.1047(8) 0.7952(5) 0.0175 Uani
N23 N 0.8029(9) 0.1620(9) 0.9121(5) 0.0242 Uani
C64 C 0.7690(10) 0.0956(10) 0.8386(7) 0.0199 Uani
H50 H 0.8135 0.0490 0.8210 0.0230 Uiso
C65 C 0.6323(11) 0.1831(11) 0.8432(6) 0.0219 Uani
H51 H 0.5620 0.2061 0.8277 0.0270 Uiso
C66 C 0.7113(11) 0.2209(11) 0.9133(7) 0.0220 Uiso
H52 H 0.7083 0.2743 0.9546 0.0270 Uiso
C67 C 0.8970(11) 0.1613(11) 0.9790(7) 0.0227 Uani
C68 C 0.9309(14) 0.0671(12) 0.9815(8) 0.0371 Uani
H53 H 0.9015 0.0093 0.9372 0.0450 Uiso
N2 N 0.2005(9) 0.7280(9) 0.0060(6) 0.0237 Uani
N8 N 0.6469(9) 0.9963(8) 0.0614(5) 0.0173 Uani
N21 N 0.0630(13) 0.8350(13) 0.3178(9) 0.0689 Uani
H1 H 0.3893 0.7955 0.0305 0.0220 Uiso
C4 C 0.1599(10) 0.7641(13) 0.0730(7) 0.0290 Uani
C5 C 0.2455(14) 0.7959(12) 0.1482(6) 0.0347 Uani
H4 H 0.3290 0.8005 0.1527 0.0420 Uiso
C6 C 0.2013(16) 0.8201(14) 0.2148(8) 0.0559 Uani
H5 H 0.2583 0.8471 0.2637 0.0670 Uiso
C7 C 0.0713(14) 0.8053(15) 0.2118(9) 0.0510 Uiso
C9 C 0.0378(13) 0.7626(16) 0.0671(9) 0.0513 Uani
C19 C 0.6303(10) 0.8876(9) 0.0272(7) 0.0172 Uani
H15 H 0.6617 0.8387 0.0521 0.0210 Uiso
C27 C 0.7799(14) 0.9965(11) 0.1889(7) 0.0340 Uani
H21 H 0.7589 0.9208 0.1750 0.0410 Uiso
C62 C 0.0399(16) 0.8719(13) 0.4522(9) 0.0540 Uani
H48 H 0.1251 0.8815 0.4617 0.0650 Uiso
H49 H 0.0449 0.9156 0.5691 0.0440 Uiso
C72 C 0.9403(9) 0.2491(11) 0.0393(6) 0.0192 Uani
H56 H 0.9166 0.3123 0.0358 0.0230 Uiso
loop_
_atom_site_aniso_label
_atom_site_aniso_U_11
_atom_site_aniso_U_22
_atom_site_aniso_U_33
_atom_site_aniso_U_23
_atom_site_aniso_U_13
_atom_site_aniso_U_12
Zn8 0.0271 0.0316 0.0208 0.0043 0.0037 0.0083
O6 0.009 0.023 0.021 0 0.005 0.001
O8 0.008 0.034 0.022 0.004 -0.005 0.009
O9 0.016 0.019 0.022 -0.004 0.002 0.008
O10 0.019 0.055 0.022 -0.009 0.006 0.025
N15 0.038 0.029 0.038 -0.004 -0.002 0.005
N18 0.018 0.033 0.021 0.01 0.011 0.005
N25 0.014 0.024 0.022 0.01 0.012 0.007
N26 0.024 0.01 0.018 -0.002 0.008 0.005
N27 0.01 0.033 0.021 0.005 0.001 0.004
N28 0.025 0.012 0.028 0.007 0.002 -0.006
C44 0.025 0.046 0.049 0.005 0.031 0.006
C46 0.038 0.024 0.049 0.016 0.042 0.016
C48 0.027 0.022 0.027 0.007 0.015 0.01
C49 0.016 0.01 0.022 0 0.009 0.006
C50 0.052 0.044 0.011 -0.002 0.009 0.035
C51 0.063 0.021 0.02 0.002 -0.003 0.017
C52 0.017 0.034 0.011 -0.003 -0.007 0.009
C53 0.026 0.023 0.032 0.007 0.003 0.01
C54 0.011 0.023 0.014 0.008 0.005 0.01
C73 0.019 0.007 0.025 0.003 0.005 0.007
C74 0.022 0.029 0.017 0.004 -0.006 0.001
C75 0.014 0.05 0.026 0.001 -0.008 0
C76 0.021 0.025 0.017 -0.003 -0.001 0
C77 0.016 0.019 0.019 0.001 0.01 0.006
C78 0.017 0.026 0.034 0.007 0.001 0
C79 0.015 0.037 0.009 0.012 0.002 0
C80 0.035 0.025 0.026 -0.007 0.005 0.009
C81 0.033 0.014 0.021 0.004 -0.009 0.004
C87 0.021 0.02 0.024 0.005 -0.004 0
C88 0.018 0.016 0.025 0.001 -0.011 -0.004
C89 0.067 0.036 0.024 0.004 0.003 0.021
C95 0.021 0.011 0.021 -0.005 0.003 0.012
C96 0.023 0.032 0.008 -0.003 -0.001 0
C97 0.012 0.03 0.014 0.005 -0.001 0.005
C98 0.04 0.038 0.015 0.008 -0.007 0.022
N29 0.018 0.021 0.01 -0.003 -0.01 0.007
N30 0.015 0.019 0.018 0.007 0 -0.004
C82 0.029 0.031 0.016 0.008 0.001 0.009
C83 0.021 0.029 0.029 0.001 0.009 0.009
C84 0.024 0.022 0.01 0 -0.005 0.01
C85 0.016 0.015 0.022 -0.001 -0.001 -0.001
C86 0.035 0.016 0.022 -0.003 -0.009 0.017
C90 0.075 0.032 0.032 -0.01 -0.011 0.022
N11 0.011 0.023 0.014 0.001 -0.004 0.004
N12 0.017 0.021 0.014 0.006 0.005 -0.004
C28 0.02 0.01 0.021 0.005 0.009 -0.001
C29 0.036 0.049 0.01 0.004 0.004 0.018
C30 0.042 0.015 0.031 0.003 -0.011 0.009
C31 0.022 0.018 0.017 0.001 0.002 -0.003
C32 0.033 0.016 0.034 0.015 0.007 0.012
C33 0.045 0.013 0.011 -0.008 0 0.007
C34 0.024 0.035 0.011 0.01 0.008 0.01
C35 0.029 0.02 0.021 -0.002 0.002 0.014
C36 0.021 0.025 0.015 0 -0.002 0.003
Zn5 0.0224 0.0352 0.0232 0.0033 0.0075 0.0028
O7 0.024 0.037 0.006 0.009 0.005 -0.004
Zn2 0.025 0.0333 0.021 0.0052 0.0027 0.008
O1 0.022 0.02 0.006 0.004 0.003 0.003
O2 0.018 0.023 0.016 0.009 0.007 0.003
O3 0.017 0.03 0.008 0.003 0 -0.002
N1 0.013 0.023 0.022 0.003 0.012 0.004
N7 0.008 0.027 0.011 0.004 0.001 -0.002
N13 0.024 0.021 0.011 0.006 0.009 0.007
N14 0.032 0.029 0.018 0.005 0.018 0.016
N16 0.041 0.034 0.019 0.001 0 0.018
C1 0.01 0.03 0.019 0.012 0.006 0.004
C2 0.019 0.035 0.017 -0.005 -0.006 0.014
C20 0.016 0.042 0.023 0.012 -0.004 0.01
C37 0.02 0.013 0.014 0 0.009 0.011
C38 0.012 0.032 0.014 0.007 0.008 0.008
C39 0.026 0.034 0.037 0.01 -0.002 0.013
C40 0.045 0.039 0.014 0.008 0.021 0.001
C41 0.038 0.029 0.034 0 0.012 -0.004
C42 0.085 0.016 0.011 -0.001 -0.006 0.006
C45 0.017 0.037 0.044 0.01 0.016 0.011
C47 0.033 0.037 0.027 0.012 0.009 0.006
C91 0.025 0.033 0.019 0.003 -0.007 0.022
C92 0.018 0.025 0.005 -0.001 0.004 -0.002
C93 0.015 0.055 0.018 0.015 -0.004 0.01
N32 0.023 0.013 0.009 0 -0.003 0.006
N3 0.098 0.087 0.136 -0.083 -0.069 0.069
N20 0.03 0.029 0.008 0.009 0.007 0.014
C8 0.047 0.026 0.115 -0.045 0.051 -0.021
C55 0.02 0.026 0.005 0.007 -0.005 -0.001
C56 0.018 0.018 0.02 0.003 0.004 0.008
C57 0.023 0.028 0.019 0.002 -0.003 0.004
C58 0.04 0.04 0.025 0.011 0.01 0.023
C59 0.06 0.06 0.039 0.024 0.021 0.042
C60 0.17 0.087 0.025 0.023 0.045 0.105
C61 0.2 0.077 0.056 0.053 0.094 0.116
C63 0.037 0.054 0.027 0.009 0.02 0.022
N9 0.037 0.016 0.01 -0.002 0.012 -0.001
N10 0.02 0.032 0.032 -0.004 0.001 0.011
C21 0.036 0.03 0.024 0.008 0.004 0.019
C22 0.015 0.026 0.017 -0.004 0.001 0.007
C23 0.015 0.045 0.012 0.002 -0.004 0.007
C24 0.031 0.01 0.021 0 0 -0.004
C25 0.023 0.053 0.012 -0.001 0.003 0.026
C26 0.035 0.023 0.015 -0.004 -0.003 0.006
O4 0.01 0.03 0.027 0.002 0.002 0.009
O5 0.024 0.073 0.039 -0.028 -0.003 0.03
N4 0.025 0.051 0.012 0.012 -0.007 0.014
N5 0.026 0.034 0.009 0.009 -0.003 0.011
N6 0.016 0.011 0.032 -0.004 0 0.002
N22 0.02 0.028 0.015 -0.005 -0.009 0.005
C10 0.021 0.03 0.012 0.017 0.004 0.006
C11 0.032 0.013 0.018 0.009 0.002 -0.012
C12 0.032 0.007 0.021 0.001 -0.016 -0.007
C13 0.027 0.017 0.014 0.015 0.002 0.001
C14 0.045 0.036 0.015 0.013 -0.001 0.006
C15 0.031 0.025 0.012 0 -0.012 -0.003
C16 0.012 0.02 0.025 0.008 0.005 0.004
C17 0.022 0.009 0.023 0.002 0.004 0.003
C18 0.02 0.033 0.016 0.008 0.001 0.005
C69 0.077 0.049 0.031 -0.019 -0.017 0.05
C70 0.01 0.015 0.021 -0.002 -0.009 0.003
C71 0.029 0.029 0.012 -0.003 0 0.016
N33 0.031 0.017 0.009 0 0.004 0.018
N23 0.018 0.027 0.016 0.006 -0.004 -0.01
C64 0.009 0.02 0.024 -0.008 0.005 0
C65 0.017 0.029 0.015 0.007 -0.006 0.004
C67 0.023 0.025 0.017 0 0.003 0.006
C68 0.053 0.027 0.02 -0.008 -0.021 0.024
N2 0.022 0.029 0.018 0.007 0.005 0.002
N8 0.025 0.016 0.01 0.001 0.005 0.005
N21 0.052 0.042 0.082 0.02 -0.031 -0.01
C4 0.017 0.039 0.031 0.006 0.007 0.008
C5 0.063 0.031 0.019 0.009 0.025 0.015
C6 0.101 0.041 0.024 -0.007 0.02 0.023
C9 0.032 0.064 0.064 -0.004 0.03 0.023
C19 0.014 0.012 0.024 -0.005 0.013 0
C27 0.053 0.023 0.019 0.004 -0.008 0.012
C62 0.078 0.026 0.093 0.019 0.075 0.032
C72 0.006 0.034 0.013 0.008 -0.004 0
loop_
_geom_bond_atom_site_label_1
_geom_bond_atom_site_label_2
_geom_bond_site_symmetry_1
_geom_bond_site_symmetry_2
Zn8 O6 1_555 1_555
O6 C95 1_555 1_555
O8 Zn8 1_555 1_555
O9 Zn8 1_555 1_555
O10 C98 1_555 1_555
N17 C49 1_555 1_555
N18 Zn8 1_555 1_555
N25 Zn8 1_555 1_555
N26 C73 1_555 1_555
N27 N28 1_555 1_555
N28 C88 1_555 1_555
H34 C44 1_555 1_555
C49 C48 1_555 1_555
C50 C49 1_555 1_555
H38 C50 1_555 1_555
C51 C46 1_555 1_555
H39 C51 1_555 1_555
C52 N17 1_555 1_555
H40 C52 1_555 1_555
C53 N17 1_555 1_555
H41 C53 1_555 1_555
C54 N18 1_555 1_555
H42 C54 1_555 1_555
C73 N25 1_555 1_555
H57 C73 1_555 1_555
C74 N25 1_555 1_555
H58 C74 1_555 1_555
C75 N26 1_555 1_555
H59 C75 1_555 1_555
C76 N26 1_555 1_555
C77 C76 1_555 1_555
H60 C77 1_555 1_555
C78 C77 1_555 1_555
H61 C78 1_555 1_555
C79 N27 1_555 1_555
C80 C79 1_555 1_555
H62 C80 1_555 1_555
C81 C76 1_555 1_555
H63 C81 1_555 1_555
H68 C87 1_555 1_555
C88 C87 1_555 1_555
C89 C88 1_555 1_555
H69 C89 1_555 1_555
C95 C96 1_555 1_555
C96 H74 1_555 1_555
H75 C96 1_555 1_555
C97 O8 1_555 1_555
H76 C97 1_555 1_555
C98 O9 1_555 1_555
N18 C52 1_555 1_555
C50 C51 1_555 1_555
C53 C54 1_555 1_555
C74 C75 1_555 1_555
C78 C79 1_555 1_555
C80 C81 1_555 1_555
C96 C97 1_555 1_555
C97 C98 1_555 1_555
N29 C82 1_555 1_555
N30 C82 1_555 1_555
C82 H64 1_555 1_555
C83 N30 1_555 1_555
H65 C83 1_555 1_555
C84 N29 1_555 1_555
H66 C84 1_555 1_555
C85 N29 1_555 1_555
C86 C85 1_555 1_555
H67 C86 1_555 1_555
C90 C85 1_555 1_555
H70 C90 1_555 1_555
C83 C84 1_555 1_555
N11 C31 1_555 1_555
N12 C34 1_555 1_555
C28 C29 1_555 1_555
C29 H22 1_555 1_555
C30 C29 1_555 1_555
H23 C30 1_555 1_555
C31 C30 1_555 1_555
C32 C31 1_555 1_555
H24 C32 1_555 1_555
C33 C28 1_555 1_555
H25 C33 1_555 1_555
C34 N11 1_555 1_555
H26 C34 1_555 1_555
C35 N11 1_555 1_555
H27 C35 1_555 1_555
C36 N12 1_555 1_555
H28 C36 1_555 1_555
Zn5 N12 1_555 1_555
C32 C33 1_555 1_555
C35 C36 1_555 1_555
Zn5 O7 1_555 1_555
Zn5 O1 1_555 1_555
Zn2 O2 1_555 1_555
O1 C91 1_555 1_555
O2 C91 1_555 1_555
O3 Zn2 1_555 1_555
N1 Zn5 1_555 1_555
N7 Zn5 1_555 1_555
N13 Zn5 1_555 1_555
N14 C37 1_555 1_555
C1 N1 1_555 1_555
C2 N1 1_555 1_555
H2 C2 1_555 1_555
H3 C3 1_555 1_555
C20 N7 1_555 1_555
H16 C20 1_555 1_555
C37 N13 1_555 1_555
H29 C37 1_555 1_555
C38 N13 1_555 1_555
H30 C38 1_555 1_555
C39 N14 1_555 1_555
H31 C39 1_555 1_555
C40 N14 1_555 1_555
C41 C40 1_555 1_555
H32 C41 1_555 1_555
C42 C41 1_555 1_555
H33 C42 1_555 1_555
C45 C40 1_555 1_555
C47 H36 1_555 1_555
C91 C92 1_555 1_555
C92 O3 1_555 1_555
H71 C92 1_555 1_555
C93 C92 1_555 1_555
H72 C93 1_555 1_555
H73 C93 1_555 1_555
N32 Zn2 1_555 1_555
C2 C3 1_555 1_555
C38 C39 1_555 1_555
C42 C43 1_555 1_555
C93 C94 1_555 1_555
N32 C55 1_555 1_555
N20 C55 1_555 1_555
H6 C8 1_555 1_555
C55 H43 1_555 1_555
C56 N32 1_555 1_555
H44 C56 1_555 1_555
C57 N20 1_555 1_555
H45 C57 1_555 1_555
C58 N20 1_555 1_555
C59 C58 1_555 1_555
H46 C59 1_555 1_555
C60 C59 1_555 1_555
H47 C60 1_555 1_555
C61 C60 1_555 1_555
C63 C58 1_555 1_555
C56 C57 1_555 1_555
N9 N10 1_555 1_555
H17 C21 1_555 1_555
C23 C22 1_555 1_555
H18 C23 1_555 1_555
C24 C23 1_555 1_555
H19 C24 1_555 1_555
C25 N9 1_555 1_555
C26 C25 1_555 1_555
H20 C26 1_555 1_555
C24 C25 1_555 1_555
N4 N22 1_555 1_555
N5 C10 1_555 1_555
N22 C70 1_555 1_555
C10 N6 1_555 1_555
H8 C10 1_555 1_555
C11 N6 1_555 1_555
H9 C11 1_555 1_555
C12 N5 1_555 1_555
H10 C12 1_555 1_555
C13 N5 1_555 1_555
C14 C13 1_555 1_555
H11 C14 1_555 1_555
C15 C14 1_555 1_555
H12 C15 1_555 1_555
C16 N4 1_555 1_555
C17 C16 1_555 1_555
H13 C17 1_555 1_555
C18 C13 1_555 1_555
H14 C18 1_555 1_555
C70 C69 1_555 1_555
C71 C70 1_555 1_555
H55 C71 1_555 1_555
C11 C12 1_555 1_555
C15 C16 1_555 1_555
C17 C18 1_555 1_555
N23 C64 1_555 1_555
N33 C64 1_555 1_555
C64 H50 1_555 1_555
C65 N33 1_555 1_555
H51 C65 1_555 1_555
C66 N23 1_555 1_555
H52 C66 1_555 1_555
C67 N23 1_555 1_555
C68 C67 1_555 1_555
H53 C68 1_555 1_555
C65 C66 1_555 1_555
N8 C19 1_555 1_555
C4 N2 1_555 1_555
C5 C4 1_555 1_555
H4 C5 1_555 1_555
C6 C5 1_555 1_555
H5 C6 1_555 1_555
C9 C4 1_555 1_555
H15 C19 1_555 1_555
H21 C27 1_555 1_555
H48 C62 1_555 1_555
C6 C7 1_555 1_555
H56 C72 1_555 1_555

#END
