
###############################################################################
#
# This file contains modified crystal structure data generated from the
# MOF subset of the Cambridge Structural Database (CSD) v543 
# hosted by the Cambridge Crystallographic Data Centre (CCDC).
#
# This work is licensed under the Creative Commons
# Attribution-NonCommercial-ShareAlike 4.0 International License.
# To view a copy of this license, visit
# http://creativecommons.org/licenses/by-nc-sa/4.0/
# or send a letter to
# Creative Commons, PO Box 1866, Mountain View, CA 94042, USA.
#
# CIF created using the CSD Python API on 29 September 2022
# The structure has been converted into the P1 space group
# The structure has a 3D framework
# The original CSD entry KINKAV is in the monoclinic crystal system
# The framework has been calculated to contain at least 10.0% void space
# The void calculation uses a probe of radius 1.32A, grid spacing 0.4
#
###############################################################################

data_KINKAV
_chemical_formula_moiety         '(C80 H60 N12 O8 Zn1)n'
_symmetry_cell_setting           triclinic
_symmetry_space_group_name_H-M   'P 1'
_symmetry_Int_Tables_number      1
_space_group_name_Hall           'P 1'
loop_
_symmetry_equiv_pos_site_id
_symmetry_equiv_pos_as_xyz
1 x,y,z
_cell_length_a                   15.526(4)
_cell_length_b                   12.813(3)
_cell_length_c                   10.324(2)
_cell_angle_alpha                90
_cell_angle_beta                 104.633(4)
_cell_angle_gamma                90
_cell_volume                     1987.18
loop_
_atom_site_label
_atom_site_type_symbol
_atom_site_fract_x
_atom_site_fract_y
_atom_site_fract_z
N6 N 0.0158(3) 0.0401(4) 0.0272(6)
C33 C 0.3880(4) 0.0166(4) 0.6867(6)
H25 H 0.4176 0.0477 0.7669
C34 C 0.3185(4) 0.0595(5) 0.5967(6)
H26 H 0.2911 0.1233 0.6022
C38 C 0.0860(4) 0.0175(5) 0.1506(6)
C39 C 0.1268(4) 0.1025(5) 0.2142(6)
H29 H 0.1079 0.1686 0.1818
C40 C 0.1962(4) 0.0925(5) 0.3268(6)
H30 H 0.2240 0.1517 0.3701
H16 H 0.3424 0.6958 0.0424
C24 C 0.2246(3) 0.6210(3) 0.0143(4)
H17 H 0.2209 0.6267 0.1025
C31 C 0.0255(3) 0.6029(3) 0.0125(4)
H23 H 0.0429 0.6725 0.0205
O3 O 0.3884(2) 0.6905(2) 0.6876(3)
O4 O 0.43306(19) 0.7617(2) 0.8858(3)
C21 C 0.3795(3) 0.7034(3) 0.8033(4)
C22 C 0.3036(3) 0.6538(3) 0.8454(4)
C23 C 0.2977(3) 0.6625(4) 0.9788(5)
C25 C 0.1563(3) 0.5708(3) 0.9209(4)
C26 C 0.1641(3) 0.5613(4) 0.7905(4)
H18 H 0.1198 0.5270 0.7272
C27 C 0.2367(3) 0.6021(3) 0.7530(4)
H19 H 0.2407 0.5948 0.6651
C28 C 0.0757(3) 0.5315(3) 0.9598(4)
C29 C 0.0500(3) 0.4268(4) 0.9466(4)
C30 C 0.1010(3) 0.3432(4) 0.8946(5)
H20 H 0.1512 0.3739 0.8707
H21 H 0.1214 0.2915 0.9629
H22 H 0.0628 0.3109 0.8172
Zn3 Zn 0.5000 0.81232(6) 0.7500
N4 N 0.4096(2) 0.9181(3) 0.6422(4)
N5 N 0.2966(3) 0.9843(3) 0.4906(4)
C32 C 0.3475(3) 0.9014(4) 0.5330(5)
H24 H 0.3395 0.8375 0.4888
C35 C 0.2243(3) 0.9954(5) 0.3751(6)
C36 C 0.1821(4) 0.9082(5) 0.3114(7)
H27 H 0.2013 0.8419 0.3426
C37 C 0.1102(4) 0.9199(5) 0.1997(7)
H28 H 0.0789 0.8617 0.1590
O3_2 O 0.6116(2) 0.6905(2) 0.8124(3)
O4_2 O 0.56694(19) 0.7617(2) 0.6142(3)
C21_2 C 0.6205(3) 0.7034(3) 0.6967(4)
C22_2 C 0.6964(3) 0.6538(3) 0.6546(4)
C23_2 C 0.7023(3) 0.6625(4) 0.5212(5)
H16_2 H 0.6576 0.6958 0.4576
C24_2 C 0.7754(3) 0.6210(3) 0.4857(4)
H17_2 H 0.7791 0.6267 0.3975
C25_2 C 0.8437(3) 0.5708(3) 0.5791(4)
C26_2 C 0.8359(3) 0.5613(4) 0.7095(4)
H18_2 H 0.8802 0.5270 0.7728
C27_2 C 0.7633(3) 0.6021(3) 0.7470(4)
H19_2 H 0.7593 0.5948 0.8349
C28_2 C 0.9243(3) 0.5315(3) 0.5402(4)
C29_2 C 0.9500(3) 0.4268(4) 0.5534(4)
C30_2 C 0.8990(3) 0.3432(4) 0.6054(5)
H20_2 H 0.8488 0.3739 0.6293
H21_2 H 0.8786 0.2915 0.5371
H22_2 H 0.9372 0.3109 0.6828
C31_2 C 0.9745(3) 0.6029(3) 0.4875(4)
H23_2 H 0.9571 0.6725 0.4795
N4_2 N 0.5904(2) 0.9181(3) 0.8578(4)
C32_2 C 0.6525(3) 0.9014(4) 0.9670(5)
Zn1 Zn 0.5000 0.18768(6) 0.2500
O1 O 0.6116(2) 0.3095(2) 0.3124(3)
O2 O 0.56694(19) 0.2383(2) 0.1142(3)
N1 N 0.5904(2) 0.0819(3) 0.3578(4)
N2 N 0.7034(3) 0.0157(3) 0.5094(4)
C1 C 0.6525(3) 0.0986(4) 0.4670(5)
H1 H 0.6605 0.1625 0.5112
C4 C 0.7757(3) 0.0046(5) 0.6249(6)
C5 C 0.8179(4) 0.0918(5) 0.6886(7)
H4 H 0.7987 0.1581 0.6574
C6 C 0.8898(4) 0.0801(5) 0.8003(7)
H5 H 0.9211 0.1383 0.8410
C10 C 0.6205(3) 0.2966(3) 0.1967(4)
C11 C 0.6964(3) 0.3462(3) 0.1546(4)
C12 C 0.7023(3) 0.3375(4) 0.0212(5)
C14 C 0.8437(3) 0.4292(3) 0.0791(4)
C15 C 0.8359(3) 0.4387(4) 0.2095(4)
H10 H 0.8802 0.4730 0.2728
C16 C 0.7633(3) 0.3979(3) 0.2470(4)
H11 H 0.7593 0.4052 0.3349
C17 C 0.9243(3) 0.4685(3) 0.0402(4)
C18 C 0.9500(3) 0.5732(4) 0.0534(4)
C19 C 0.8990(3) 0.6568(4) 0.1054(5)
H12 H 0.8488 0.6261 0.1293
H13 H 0.8786 0.7085 0.0371
H14 H 0.9372 0.6891 0.1828
O5 O 0.3884(2) 0.3095(2) 0.1876(3)
O6 O 0.43306(19) 0.2383(2) 0.3858(3)
N7 N 0.4096(2) 0.0819(3) 0.1422(4)
C1_2 C 0.3475(3) 0.0986(4) 0.0330(5)
C10_2 C 0.3795(3) 0.2966(3) 0.3033(4)
C11_2 C 0.3036(3) 0.3462(3) 0.3454(4)
C12_2 C 0.2977(3) 0.3375(4) 0.4788(5)
H8 H 0.3424 0.3042 0.5424
C13 C 0.2246(3) 0.3790(3) 0.5143(4)
H9 H 0.2209 0.3733 0.6025
C14_2 C 0.1563(3) 0.4292(3) 0.4209(4)
C15_2 C 0.1641(3) 0.4387(4) 0.2905(4)
H10_2 H 0.1198 0.4730 0.2272
C16_2 C 0.2367(3) 0.3979(3) 0.2530(4)
H11_2 H 0.2407 0.4052 0.1651
C17_2 C 0.0757(3) 0.4685(3) 0.4598(4)
C18_2 C 0.0500(3) 0.5732(4) 0.4466(4)
C19_2 C 0.1010(3) 0.6568(4) 0.3946(5)
H12_2 H 0.1512 0.6261 0.3707
H13_2 H 0.1214 0.7085 0.4629
H14_2 H 0.0628 0.6891 0.3172
C20 C 0.0255(3) 0.3971(3) 0.5125(4)
H15 H 0.0429 0.3275 0.5205
H8_2 H 0.6576 0.3042 0.9576
C13_2 C 0.7754(3) 0.3790(3) 0.9857(4)
H9_2 H 0.7791 0.3733 0.8975
C20_2 C 0.9745(3) 0.3971(3) 0.9875(4)
H15_2 H 0.9571 0.3275 0.9795
N3 N 0.9842(3) 0.9599(4) 0.9728(6)
C2 C 0.6120(4) 0.9834(4) 0.3133(6)
H2 H 0.5824 0.9523 0.2331
C3 C 0.6815(4) 0.9405(5) 0.4033(6)
H3 H 0.7089 0.8767 0.3978
C7 C 0.9140(4) 0.9825(5) 0.8494(6)
C8 C 0.8732(4) 0.8975(5) 0.7858(6)
H6 H 0.8921 0.8314 0.8182
C9 C 0.8038(4) 0.9075(5) 0.6732(6)
H7 H 0.7760 0.8483 0.6299
N2_2 N 0.2966(3) 0.0157(3) 0.9906(4)
H1_2 H 0.3395 0.1625 0.9888
C4_2 C 0.2243(3) 0.0046(5) 0.8751(6)
C5_2 C 0.1821(4) 0.0918(5) 0.8114(7)
H4_2 H 0.2013 0.1581 0.8426
C6_2 C 0.1102(4) 0.0801(5) 0.6997(7)
H5_2 H 0.0789 0.1383 0.6590
C2_2 C 0.3880(4) 0.9834(4) 0.1867(6)
H2_2 H 0.4176 0.9523 0.2669
C3_2 C 0.3185(4) 0.9405(5) 0.0967(6)
H3_2 H 0.2911 0.8767 0.1022
N3_2 N 0.0158(3) 0.9599(4) 0.5272(6)
C7_2 C 0.0860(4) 0.9825(5) 0.6506(6)
C8_2 C 0.1268(4) 0.8975(5) 0.7142(6)
H6_2 H 0.1079 0.8314 0.6818
C9_2 C 0.1962(4) 0.9075(5) 0.8268(6)
H7_2 H 0.2240 0.8483 0.8701
N6_2 N 0.9842(3) 0.0401(4) 0.4728(6)
C38_2 C 0.9140(4) 0.0175(5) 0.3494(6)
C39_2 C 0.8732(4) 0.1025(5) 0.2858(6)
H29_2 H 0.8921 0.1686 0.3182
C40_2 C 0.8038(4) 0.0925(5) 0.1732(6)
H30_2 H 0.7760 0.1517 0.1299
C33_2 C 0.6120(4) 0.0166(4) 0.8133(6)
H25_2 H 0.5824 0.0477 0.7331
C34_2 C 0.6815(4) 0.0595(5) 0.9033(6)
H26_2 H 0.7089 0.1233 0.8978
N5_2 N 0.7034(3) 0.9843(3) 0.0094(4)
H24_2 H 0.6605 0.8375 0.0112
C35_2 C 0.7757(3) 0.9954(5) 0.1249(6)
C36_2 C 0.8179(4) 0.9082(5) 0.1886(7)
H27_2 H 0.7987 0.8419 0.1574
C37_2 C 0.8898(4) 0.9199(5) 0.3003(7)
H28_2 H 0.9211 0.8617 0.3410
loop_
_geom_bond_atom_site_label_1
_geom_bond_atom_site_label_2
_geom_bond_site_symmetry_1
_geom_bond_site_symmetry_2
H25 C33 1_555 1_555
H26 C34 1_555 1_555
C38 N6 1_555 1_555
C39 C38 1_555 1_555
H29 C39 1_555 1_555
H30 C40 1_555 1_555
C33 C34 1_555 1_555
C39 C40 1_555 1_555
H17 C24 1_555 1_555
H23 C31 1_555 1_555
O3 C21 1_555 1_555
O4 C21 1_555 1_555
C21 C22 1_555 1_555
C22 C23 1_555 1_555
C26 C25 1_555 1_555
H18 C26 1_555 1_555
C27 C22 1_555 1_555
H19 C27 1_555 1_555
C28 C25 1_555 1_555
C30 C29 1_555 1_555
H20 C30 1_555 1_555
H21 C30 1_555 1_555
H22 C30 1_555 1_555
Zn3 O3 1_555 1_555
O4 Zn3 1_555 1_555
C26 C27 1_555 1_555
C28 C29 1_555 1_555
N4 C32 1_555 1_555
N5 C32 1_555 1_555
C32 H24 1_555 1_555
C35 N5 1_555 1_555
C36 C35 1_555 1_555
H27 C36 1_555 1_555
C37 C36 1_555 1_555
H28 C37 1_555 1_555
Zn3 N4 1_555 1_555
O3_2 C21_2 1_555 1_555
O4_2 C21_2 1_555 1_555
C21_2 C22_2 1_555 1_555
C22_2 C23_2 1_555 1_555
C23_2 H16_2 1_555 1_555
C24_2 C23_2 1_555 1_555
H17_2 C24_2 1_555 1_555
C25_2 C24_2 1_555 1_555
C26_2 C25_2 1_555 1_555
H18_2 C26_2 1_555 1_555
C27_2 C22_2 1_555 1_555
H19_2 C27_2 1_555 1_555
C28_2 C25_2 1_555 1_555
C30_2 C29_2 1_555 1_555
H20_2 C30_2 1_555 1_555
H21_2 C30_2 1_555 1_555
H22_2 C30_2 1_555 1_555
H23_2 C31_2 1_555 1_555
Zn3 O3_2 1_555 1_555
O4_2 Zn3 1_555 1_555
C26_2 C27_2 1_555 1_555
C28_2 C29_2 1_555 1_555
C28_2 C31_2 1_555 1_555
N4_2 C32_2 1_555 1_555
Zn3 N4_2 1_555 1_555
Zn1 O1 1_555 1_555
O1 C10 1_555 1_555
O2 Zn1 1_555 1_555
N1 Zn1 1_555 1_555
N2 C1 1_555 1_555
C1 N1 1_555 1_555
H1 C1 1_555 1_555
C4 N2 1_555 1_555
C5 C4 1_555 1_555
H4 C5 1_555 1_555
C6 C5 1_555 1_555
H5 C6 1_555 1_555
C10 O2 1_555 1_555
C11 C10 1_555 1_555
C12 C11 1_555 1_555
C15 C14 1_555 1_555
H10 C15 1_555 1_555
C16 C11 1_555 1_555
H11 C16 1_555 1_555
C17 C14 1_555 1_555
C18 C17 1_555 1_555
C19 C18 1_555 1_555
H12 C19 1_555 1_555
H13 C19 1_555 1_555
H14 C19 1_555 1_555
O5 Zn1 1_555 1_555
O6 Zn1 1_555 1_555
N7 Zn1 1_555 1_555
C15 C16 1_555 1_555
O5 C10_2 1_555 1_555
C1_2 N7 1_555 1_555
C10_2 O6 1_555 1_555
C11_2 C10_2 1_555 1_555
C12_2 C11_2 1_555 1_555
H8 C12_2 1_555 1_555
C13 C12_2 1_555 1_555
H9 C13 1_555 1_555
C14_2 C13 1_555 1_555
C15_2 C14_2 1_555 1_555
H10_2 C15_2 1_555 1_555
C16_2 C11_2 1_555 1_555
H11_2 C16_2 1_555 1_555
C17_2 C14_2 1_555 1_555
C18_2 C17_2 1_555 1_555
C19_2 C18_2 1_555 1_555
H12_2 C19_2 1_555 1_555
H13_2 C19_2 1_555 1_555
H14_2 C19_2 1_555 1_555
C20 C17_2 1_555 1_555
H15 C20 1_555 1_555
C15_2 C16_2 1_555 1_555
H9_2 C13_2 1_555 1_555
H15_2 C20_2 1_555 1_555
N3 C7 1_555 1_555
H2 C2 1_555 1_555
H3 C3 1_555 1_555
C8 C7 1_555 1_555
H6 C8 1_555 1_555
H7 C9 1_555 1_555
C2 C3 1_555 1_555
C8 C9 1_555 1_555
C4_2 N2_2 1_555 1_555
C5_2 C4_2 1_555 1_555
H4_2 C5_2 1_555 1_555
C6_2 C5_2 1_555 1_555
H5_2 C6_2 1_555 1_555
H2_2 C2_2 1_555 1_555
H3_2 C3_2 1_555 1_555
C2_2 C3_2 1_555 1_555
N3_2 C7_2 1_555 1_555
C8_2 C7_2 1_555 1_555
H6_2 C8_2 1_555 1_555
H7_2 C9_2 1_555 1_555
C8_2 C9_2 1_555 1_555
C38_2 N6_2 1_555 1_555
C39_2 C38_2 1_555 1_555
H29_2 C39_2 1_555 1_555
H30_2 C40_2 1_555 1_555
C39_2 C40_2 1_555 1_555
H25_2 C33_2 1_555 1_555
H26_2 C34_2 1_555 1_555
C33_2 C34_2 1_555 1_555
C35_2 N5_2 1_555 1_555
C36_2 C35_2 1_555 1_555
H27_2 C36_2 1_555 1_555
C37_2 C36_2 1_555 1_555
H28_2 C37_2 1_555 1_555

#END
