
###############################################################################
#
# This file contains modified crystal structure data generated from the
# MOF subset of the Cambridge Structural Database (CSD) v543 
# hosted by the Cambridge Crystallographic Data Centre (CCDC).
#
# This work is licensed under the Creative Commons
# Attribution-NonCommercial-ShareAlike 4.0 International License.
# To view a copy of this license, visit
# http://creativecommons.org/licenses/by-nc-sa/4.0/
# or send a letter to
# Creative Commons, PO Box 1866, Mountain View, CA 94042, USA.
#
# CIF created using the CSD Python API on 29 September 2022
# The structure has been converted into the P1 space group
# The structure has a 3D framework
# The original CSD entry KINNUS is in the triclinic crystal system
# The framework has been calculated to contain at least 10.0% void space
# The void calculation uses a probe of radius 1.32A, grid spacing 0.4
# The framework is charged, counterions have been retained in the structure
#
###############################################################################

data_KINNUS
_chemical_formula_moiety         '(C62 H36 Cu2 F8 N8 P2)n'
_symmetry_cell_setting           triclinic
_symmetry_space_group_name_H-M   'P 1'
_symmetry_Int_Tables_number      1
_space_group_name_Hall           'P 1'
loop_
_symmetry_equiv_pos_site_id
_symmetry_equiv_pos_as_xyz
1 x,y,z
_cell_length_a                   7.5735(3)
_cell_length_b                   11.7547(4)
_cell_length_c                   17.0842(5)
_cell_angle_alpha                82.190(3)
_cell_angle_beta                 86.285(3)
_cell_angle_gamma                88.218(3)
_cell_volume                     1503.25
loop_
_atom_site_label
_atom_site_type_symbol
_atom_site_fract_x
_atom_site_fract_y
_atom_site_fract_z
F1 F 0.30760(18) 0.05975(14) 0.41788(8)
C12 C 0.1527(3) 0.02790(19) 0.45737(13)
F6 F 0.25381(18) 0.11221(13) 0.56129(8)
N5 N 0.2022(2) 0.07696(16) 0.74577(11)
C13 C 0.1241(3) 0.05552(19) 0.53280(13)
C16 C 0.0844(3) 0.06831(18) 0.70738(12)
Cu7 Cu 0.41627(4) 0.05273(3) 0.805865(18)
N4 N 0.3649(3) 0.93520(18) 0.26676(11)
C4 C 0.0591(3) 0.94453(19) 0.33854(12)
C5 C 0.0301(3) 0.97123(18) 0.41974(12)
C11 C 0.2277(3) 0.93899(19) 0.30076(13)
Cu4 Cu 0.58373(4) 0.94727(3) 0.194135(18)
F2 F 0.62202(18) 0.37435(11) 0.13092(8)
N3 N 0.5826(3) 0.10763(16) 0.13064(12)
C3 C 0.5059(3) 0.37395(18) 0.00474(12)
C6 C 0.5534(3) 0.17517(18) 0.07665(13)
C8 C 0.5606(3) 0.43389(18) 0.06388(13)
C9 C 0.5125(3) 0.24984(18) 0.00843(13)
C14 C 0.9409(3) 0.05547(19) 0.66146(12)
C15 C 0.9699(3) 0.02877(18) 0.58026(12)
N6 N 0.6351(3) 0.06480(18) 0.73324(11)
C18 C 0.7723(3) 0.06101(19) 0.69924(13)
F8 F 0.61820(18) 0.59632(11) 0.12093(8)
C19 C 0.5562(3) 0.55175(19) 0.05929(13)
N8 N 0.5546(3) 0.85515(16) 0.10775(11)
C24 C 0.5246(3) 0.80638(18) 0.05580(13)
F3 F 0.38180(18) 0.40368(11) 0.87907(8)
N2 N 0.4454(3) 0.14485(16) 0.89225(11)
C2 C 0.4438(3) 0.44825(19) 0.94071(13)
C7 C 0.4754(3) 0.19362(18) 0.94420(13)
F7 F 0.37798(18) 0.62565(11) 0.86908(8)
N7 N 0.4174(3) 0.89237(16) 0.86936(12)
C20 C 0.4941(3) 0.62605(18) 0.99526(12)
C21 C 0.4466(3) 0.82483(18) 0.92335(13)
C22 C 0.4394(3) 0.56611(18) 0.93612(13)
C23 C 0.4875(3) 0.75016(18) 0.99157(13)
F4 F 0.74619(18) 0.88779(13) 0.43871(8)
N1 N 0.7978(2) 0.92304(16) 0.25423(11)
C1 C 0.8759(3) 0.94448(19) 0.46720(13)
C10 C 0.9156(3) 0.93169(18) 0.29262(12)
F5 F 0.69240(18) 0.94025(14) 0.58212(8)
C17 C 0.8473(3) 0.97210(19) 0.54263(13)
P1 P 0.10479(7) 0.32386(5) 0.23452(3)
C26 C 0.2643(3) 0.5352(2) 0.22205(16)
H2 H 0.3727 0.4930 0.2283
C27 C 0.1058(3) 0.47766(19) 0.22311(13)
C29 C 0.0784(3) 0.2735(2) 0.14165(14)
C30 C 0.0148(3) 0.3455(2) 0.07758(15)
C31 C 0.1208(4) 0.1582(2) 0.13450(16)
H4 H 0.1638 0.1084 0.1780
C33 C 0.0348(4) 0.1888(2) 0.00053(16)
C34 C 0.1048(4) 0.7151(2) 0.20202(15)
H7 H 0.1046 0.7967 0.1943
C35 C 0.2629(4) 0.6546(2) 0.21183(16)
H8 H 0.3702 0.6944 0.2116
H9 H 0.0155 0.3584 0.3922
C37 C 0.3092(3) 0.2673(2) 0.27249(15)
H10 H 0.3269 0.2971 0.3222
H11 H 0.4071 0.2906 0.2339
H12 H 0.3053 0.1833 0.2822
C40 C 0.0995(4) 0.1176(2) 0.06358(17)
H15 H 0.1297 0.0399 0.0582
H6 H 0.0192 0.1598 0.9522
C25 C 0.8016(3) 0.20073(19) 0.28714(14)
H1 H 0.8024 0.1784 0.2357
C28 C 0.9283(3) 0.2750(2) 0.30501(14)
H3 H 0.9868 0.4238 0.0820
C32 C 0.9925(4) 0.3028(2) 0.00744(15)
C36 C 0.9279(4) 0.3083(3) 0.38028(17)
C38 C 0.9471(3) 0.5391(2) 0.21454(15)
H13 H 0.8392 0.4995 0.2163
C39 C 0.6740(3) 0.1596(2) 0.34548(15)
H14 H 0.5882 0.1079 0.3341
C41 C 0.9461(4) 0.6584(2) 0.20333(15)
H16 H 0.8380 0.7008 0.1966
C42 C 0.7983(4) 0.2677(3) 0.43761(17)
H17 H 0.7965 0.2906 0.4889
C43 C 0.6712(3) 0.1935(2) 0.42016(16)
H18 H 0.5824 0.1662 0.4594
H5 H 0.9480 0.3517 0.9639
H5_2 H 0.0520 0.6483 0.0361
C25_2 C 0.1984(3) 0.79927(19) 0.71286(14)
H1_2 H 0.1976 0.8216 0.7643
C28_2 C 0.0717(3) 0.7250(2) 0.69499(14)
H3_2 H 0.0132 0.5762 0.9180
C32_2 C 0.0075(4) 0.6972(2) 0.99256(15)
C36_2 C 0.0721(4) 0.6917(3) 0.61972(17)
C38_2 C 0.0529(3) 0.4609(2) 0.78546(15)
H13_2 H 0.1608 0.5005 0.7837
C39_2 C 0.3260(3) 0.8404(2) 0.65452(15)
H14_2 H 0.4118 0.8921 0.6659
C41_2 C 0.0539(4) 0.3416(2) 0.79667(15)
H16_2 H 0.1620 0.2992 0.8034
C42_2 C 0.2017(4) 0.7323(3) 0.56239(17)
H17_2 H 0.2035 0.7094 0.5111
C43_2 C 0.3288(3) 0.8065(2) 0.57984(16)
H18_2 H 0.4176 0.8338 0.5406
H6_2 H 0.9808 0.8402 0.0478
P1_2 P 0.89521(7) 0.67614(5) 0.76548(3)
C26_2 C 0.7357(3) 0.4648(2) 0.77795(16)
H2_2 H 0.6273 0.5070 0.7717
C27_2 C 0.8942(3) 0.52234(19) 0.77689(13)
C29_2 C 0.9216(3) 0.7265(2) 0.85835(14)
C30_2 C 0.9852(3) 0.6545(2) 0.92242(15)
C31_2 C 0.8792(4) 0.8418(2) 0.86550(16)
H4_2 H 0.8362 0.8916 0.8220
C33_2 C 0.9652(4) 0.8112(2) 0.99947(16)
C34_2 C 0.8952(4) 0.2849(2) 0.79798(15)
H7_2 H 0.8954 0.2033 0.8057
C35_2 C 0.7371(4) 0.3454(2) 0.78817(16)
H8_2 H 0.6298 0.3056 0.7884
H9_2 H 0.9845 0.6416 0.6078
C37_2 C 0.6908(3) 0.7327(2) 0.72751(15)
H10_2 H 0.6731 0.7029 0.6778
H11_2 H 0.5929 0.7094 0.7661
H12_2 H 0.6947 0.8167 0.7178
C40_2 C 0.9005(4) 0.8824(2) 0.93642(17)
H15_2 H 0.8703 0.9601 0.9418
loop_
_geom_bond_atom_site_label_1
_geom_bond_atom_site_label_2
_geom_bond_site_symmetry_1
_geom_bond_site_symmetry_2
F1 C12 1_555 1_555
C12 C13 1_555 1_555
F6 C13 1_555 1_555
N5 C16 1_555 1_555
Cu7 N5 1_555 1_555
N4 C11 1_555 1_555
C4 C5 1_555 1_555
C11 C4 1_555 1_555
Cu4 N4 1_555 1_555
F2 C8 1_555 1_555
C3 C8 1_555 1_555
C6 N3 1_555 1_555
C8 C19 1_555 1_555
C9 C3 1_555 1_555
C14 C15 1_555 1_555
N6 C18 1_555 1_555
C18 C14 1_555 1_555
F8 C19 1_555 1_555
N8 C24 1_555 1_555
Cu4 N8 1_555 1_555
Cu7 N6 1_555 1_555
C6 C9 1_555 1_555
F3 C2 1_555 1_555
N2 C7 1_555 1_555
F7 C22 1_555 1_555
N7 C21 1_555 1_555
C20 C22 1_555 1_555
C21 C23 1_555 1_555
C22 C2 1_555 1_555
C23 C20 1_555 1_555
Cu7 N2 1_555 1_555
Cu4 N1 1_555 1_555
F4 C1 1_555 1_555
N1 C10 1_555 1_555
F5 C17 1_555 1_555
C17 C1 1_555 1_555
P1 C27 1_555 1_555
C26 H2 1_555 1_555
C27 C26 1_555 1_555
C29 P1 1_555 1_555
C30 C29 1_555 1_555
C31 C29 1_555 1_555
H4 C31 1_555 1_555
C34 H7 1_555 1_555
C35 C26 1_555 1_555
H8 C35 1_555 1_555
C37 P1 1_555 1_555
H10 C37 1_555 1_555
H11 C37 1_555 1_555
H12 C37 1_555 1_555
C40 C31 1_555 1_555
H15 C40 1_555 1_555
C33 C40 1_555 1_555
C34 C35 1_555 1_555
C25 H1 1_555 1_555
C36 C28 1_555 1_555
H13 C38 1_555 1_555
C39 C25 1_555 1_555
H14 C39 1_555 1_555
H16 C41 1_555 1_555
C42 C36 1_555 1_555
H17 C42 1_555 1_555
C43 C39 1_555 1_555
H18 C43 1_555 1_555
C25 C28 1_555 1_555
C38 C41 1_555 1_555
C42 C43 1_555 1_555
C25_2 H1_2 1_555 1_555
C36_2 C28_2 1_555 1_555
H13_2 C38_2 1_555 1_555
C39_2 C25_2 1_555 1_555
H14_2 C39_2 1_555 1_555
H16_2 C41_2 1_555 1_555
C42_2 C36_2 1_555 1_555
H17_2 C42_2 1_555 1_555
C43_2 C39_2 1_555 1_555
H18_2 C43_2 1_555 1_555
C25_2 C28_2 1_555 1_555
C38_2 C41_2 1_555 1_555
C42_2 C43_2 1_555 1_555
P1_2 C27_2 1_555 1_555
C26_2 H2_2 1_555 1_555
C27_2 C26_2 1_555 1_555
C29_2 P1_2 1_555 1_555
C30_2 C29_2 1_555 1_555
C31_2 C29_2 1_555 1_555
H4_2 C31_2 1_555 1_555
C34_2 H7_2 1_555 1_555
C35_2 C26_2 1_555 1_555
H8_2 C35_2 1_555 1_555
C37_2 P1_2 1_555 1_555
H10_2 C37_2 1_555 1_555
H11_2 C37_2 1_555 1_555
H12_2 C37_2 1_555 1_555
C40_2 C31_2 1_555 1_555
H15_2 C40_2 1_555 1_555
C33_2 C40_2 1_555 1_555
C34_2 C35_2 1_555 1_555

#END
