
###############################################################################
#
# This file contains modified crystal structure data generated from the
# MOF subset of the Cambridge Structural Database (CSD) v543 
# hosted by the Cambridge Crystallographic Data Centre (CCDC).
#
# This work is licensed under the Creative Commons
# Attribution-NonCommercial-ShareAlike 4.0 International License.
# To view a copy of this license, visit
# http://creativecommons.org/licenses/by-nc-sa/4.0/
# or send a letter to
# Creative Commons, PO Box 1866, Mountain View, CA 94042, USA.
#
# CIF created using the CSD Python API on 29 September 2022
# The structure has been converted into the P1 space group
# The structure has a 3D framework
# The original CSD entry KINNAY is in the tetragonal crystal system
# The framework has been calculated to contain at least 10.0% void space
# The void calculation uses a probe of radius 1.32A, grid spacing 0.4
# The framework is charged, counterions have been retained in the structure
#
###############################################################################

data_KINNAY
_chemical_formula_moiety         '(C32 Cu2 F8 N8 2-)n'
_symmetry_cell_setting           triclinic
_symmetry_space_group_name_H-M   'P 1'
_symmetry_Int_Tables_number      1
_space_group_name_Hall           'P 1'
loop_
_symmetry_equiv_pos_site_id
_symmetry_equiv_pos_as_xyz
1 x,y,z
_cell_length_a                   7.4617(3)
_cell_length_b                   7.4617(3)
_cell_length_c                   22.0049(11)
_cell_angle_alpha                90
_cell_angle_beta                 90
_cell_angle_gamma                90
_cell_volume                     1225.17
loop_
_atom_site_label
_atom_site_type_symbol
_atom_site_fract_x
_atom_site_fract_y
_atom_site_fract_z
Cu1 Cu 0.5000 0.5000 0.2500
C1 C 0.5000 0.0000 0.0664(2)
C2 C 0.5000 0.1584(5) 0.16761(17)
N1 N 0.5000 0.2814(5) 0.19817(14)
C3 C 0.5000 0.0000 0.1327(2)
F1 F 0.5000 0.3127(4) 0.05878(12)
C4 C 0.5000 0.1552(5) 0.03149(18)
N5 N 0.5000 0.7186(5) 0.19817(14)
N6 N 0.2814(5) 0.5000 0.30183(14)
N7 N 0.7186(5) 0.5000 0.30183(14)
C7 C 0.5000 0.0000 0.9336(2)
C8 C 0.5000 0.1584(5) 0.83239(17)
N3 N 0.5000 0.2814(5) 0.80183(14)
C9 C 0.5000 0.0000 0.8673(2)
F3 F 0.5000 0.3127(4) 0.94122(12)
C10 C 0.5000 0.1552(5) 0.96851(18)
Cu4 Cu 0.5000 0.5000 0.7500
C1_2 C 0.5000 1.0000 0.0664(2)
C3_2 C 0.5000 1.0000 0.1327(2)
C5 C 0.5000 0.8416(5) 0.16761(17)
F2 F 0.5000 0.6873(4) 0.05878(12)
C6 C 0.5000 0.8448(5) 0.03149(18)
C7_2 C 0.5000 1.0000 0.9336(2)
C9_2 C 0.5000 1.0000 0.8673(2)
C11 C 0.5000 0.8416(5) 0.83239(17)
N4 N 0.5000 0.7186(5) 0.80183(14)
F4 F 0.5000 0.6873(4) 0.94122(12)
C12 C 0.5000 0.8448(5) 0.96851(18)
C1_3 C 0.0000 0.5000 0.5664(2)
C3_3 C 0.0000 0.5000 0.6327(2)
C5_2 C 0.1584(5) 0.5000 0.66761(17)
N2 N 0.2814(5) 0.5000 0.69817(14)
F2_2 F 0.3127(4) 0.5000 0.55878(12)
C6_2 C 0.1552(5) 0.5000 0.53149(18)
C7_3 C 0.0000 0.5000 0.4336(2)
C9_3 C 0.0000 0.5000 0.3673(2)
C11_2 C 0.1584(5) 0.5000 0.33239(17)
F4_2 F 0.3127(4) 0.5000 0.44122(12)
C12_2 C 0.1552(5) 0.5000 0.46851(18)
C1_4 C 1.0000 0.5000 0.5664(2)
C2_2 C 0.8416(5) 0.5000 0.66761(17)
N1_2 N 0.7186(5) 0.5000 0.69817(14)
C3_4 C 1.0000 0.5000 0.6327(2)
F1_2 F 0.6873(4) 0.5000 0.55878(12)
C4_2 C 0.8448(5) 0.5000 0.53149(18)
C7_4 C 1.0000 0.5000 0.4336(2)
C8_2 C 0.8416(5) 0.5000 0.33239(17)
C9_4 C 1.0000 0.5000 0.3673(2)
F3_2 F 0.6873(4) 0.5000 0.44122(12)
C10_2 C 0.8448(5) 0.5000 0.46851(18)
loop_
_geom_bond_atom_site_label_1
_geom_bond_atom_site_label_2
_geom_bond_site_symmetry_1
_geom_bond_site_symmetry_2
Cu1 N1 1_555 1_555
C1 C3 1_555 1_555
C2 N1 1_555 1_555
C3 C2 1_555 1_555
F1 C4 1_555 1_555
C4 C1 1_555 1_555
N5 Cu1 1_555 1_555
N6 Cu1 1_555 1_555
N7 Cu1 1_555 1_555
C7 C9 1_555 1_555
C8 N3 1_555 1_555
N3 Cu4 1_555 1_555
C9 C8 1_555 1_555
F3 C10 1_555 1_555
C7 C10 1_555 1_555
C1_2 C3_2 1_555 1_555
C5 C3_2 1_555 1_555
N5 C5 1_555 1_555
F2 C6 1_555 1_555
C6 C1_2 1_555 1_555
C7_2 C9_2 1_555 1_555
C11 C9_2 1_555 1_555
N4 C11 1_555 1_555
F4 C12 1_555 1_555
Cu4 N4 1_555 1_555
C7_2 C12 1_555 1_555
C1_3 C3_3 1_555 1_555
C5_2 C3_3 1_555 1_555
N2 C5_2 1_555 1_555
F2_2 C6_2 1_555 1_555
C6_2 C1_3 1_555 1_555
C7_3 C9_3 1_555 1_555
C11_2 C9_3 1_555 1_555
N6 C11_2 1_555 1_555
F4_2 C12_2 1_555 1_555
C12_2 C6_2 1_555 1_555
Cu4 N2 1_555 1_555
C7_3 C12_2 1_555 1_555
Cu4 N1_2 1_555 1_555
C1_4 C3_4 1_555 1_555
C2_2 N1_2 1_555 1_555
C3_4 C2_2 1_555 1_555
F1_2 C4_2 1_555 1_555
C4_2 C1_4 1_555 1_555
C7_4 C9_4 1_555 1_555
C8_2 N7 1_555 1_555
C9_4 C8_2 1_555 1_555
F3_2 C10_2 1_555 1_555
C10_2 C4_2 1_555 1_555
C7_4 C10_2 1_555 1_555

#END
