
###############################################################################
#
# This file contains modified crystal structure data generated from the
# MOF subset of the Cambridge Structural Database (CSD) v543 
# hosted by the Cambridge Crystallographic Data Centre (CCDC).
#
# This work is licensed under the Creative Commons
# Attribution-NonCommercial-ShareAlike 4.0 International License.
# To view a copy of this license, visit
# http://creativecommons.org/licenses/by-nc-sa/4.0/
# or send a letter to
# Creative Commons, PO Box 1866, Mountain View, CA 94042, USA.
#
# CIF created using the CSD Python API on 29 September 2022
# The structure has been converted into the P1 space group
# The structure has a 3D framework
# The original CSD entry KINROQ is in the rhombohedral crystal system
# The framework has been calculated to contain at least 10.0% void space
# The void calculation uses a probe of radius 1.32A, grid spacing 0.4
# The framework is charged, counterions have been retained in the structure
# H atom positions have been added when not included in the experimental data
#
###############################################################################

data_KINROQ
_chemical_formula_moiety         '(C270 H810 Cu108 N108 O594 Tb36 108+)n'
_symmetry_cell_setting           triclinic
_symmetry_space_group_name_H-M   'P 1'
_symmetry_Int_Tables_number      1
_space_group_name_Hall           'P 1'
loop_
_symmetry_equiv_pos_site_id
_symmetry_equiv_pos_as_xyz
1 x,y,z
_cell_length_a                   38.002(5)
_cell_length_b                   38.002(5)
_cell_length_c                   24.348(6)
_cell_angle_alpha                90
_cell_angle_beta                 90
_cell_angle_gamma                120
_cell_volume                     30451.4
loop_
_atom_site_label
_atom_site_type_symbol
_atom_site_fract_x
_atom_site_fract_y
_atom_site_fract_z
Tb1 Tb 0.217790(11) 0.431270(11) 0.008169(13)
Tb2 Tb 0.103536(12) 0.208090(12) 0.166988(16)
Cu1 Cu 0.14078(3) 0.33418(3) 0.04339(4)
Cu2 Cu 0.29850(3) 0.43601(3) 0.08276(4)
Cu3 Cu 0.19177(3) 0.48678(3) 0.09446(4)
O1 O 0.15879(14) 0.39044(14) 0.06876(18)
O2 O 0.14834(18) 0.42434(19) 0.1347(2)
O3 O 0.24008(13) 0.39617(14) 0.07124(19)
O4 O 0.19269(17) 0.33348(16) 0.0938(2)
O5 O 0.23479(13) 0.47214(14) 0.09208(17)
O6 O 0.28267(17) 0.47195(17) 0.1434(2)
O14 O 0.29147(13) 0.46514(13) 0.02253(17)
O15 O 0.18092(14) 0.46659(14) 0.01955(17)
O17 O 0.3122(2) 0.3982(2) 0.0080(3)
O18 O 0.24475(19) 0.55342(17) 0.0482(2)
O20 O 0.35773(15) 0.47551(16) 0.0907(2)
O21 O 0.14839(18) 0.50040(19) 0.0906(2)
O22 O 0.12269(17) 0.28077(15) 0.01065(19)
O23 O 0.10917(17) 0.24717(16) 0.0900(2)
O28 O 0.0968(2) 0.14072(18) 0.1887(3)
O29 O 0.17284(17) 0.26867(18) 0.1590(3)
O30 O 0.1089(2) 0.26766(19) 0.2168(3)
O31 O 0.03908(18) 0.2106(2) 0.1567(3)
O32 O 0.0573(2) 0.1559(2) 0.1042(3)
O33 O 0.1478(2) 0.1946(2) 0.1098(3)
N1 N 0.1029(2) 0.3189(2) 0.1058(3)
H1 H 0.0772 0.3048 0.0934
H2 H 0.1069 0.3027 0.1288
N2 N 0.2955(2) 0.3969(2) 0.1381(3)
H3 H 0.3158 0.3915 0.1328
H4 H 0.2982 0.4074 0.1720
N3 N 0.2153(2) 0.5123(2) 0.1654(3)
H5 H 0.2296 0.5395 0.1618
H6 H 0.1955 0.5059 0.1903
C1 C 0.1411(3) 0.3927(3) 0.1114(4)
C2 C 0.2566(3) 0.3598(3) 0.1332(4)
H13 H 0.2447 0.3517 0.1695
H14 H 0.2611 0.3385 0.1193
C3 C 0.2276(3) 0.3632(3) 0.0972(3)
C4 C 0.2546(3) 0.4786(3) 0.1355(3)
C11 C 0.1132(3) 0.2489(3) 0.0390(4)
H21 H 0.1090 0.2257 0.0205
C14 C 0.2414(3) 0.4973(3) 0.1829(4)
H24 H 0.2275 0.4768 0.2109
H25 H 0.2655 0.5194 0.1995
C15 C 0.1086(3) 0.3548(3) 0.1355(4)
H26 H 0.1153 0.3530 0.1735
H27 H 0.0834 0.3553 0.1352
O34 O 0.14722(16) 0.21286(22) 0.2399(3)
O35 O 0.05722(27) 0.1778(2) 0.2397(2)
H28 H 0.138348 0.500546 0.128203
H29 H 0.15916 0.527686 0.0737792
H30 H 0.366204 0.497186 0.0625711
H31 H 0.363152 0.487832 0.12791
H34 H 0.120717 0.139803 0.174059
H35 H 0.0953574 0.136794 0.229129
H36 H 0.1709 0.293766 0.160156
H37 H 0.189944 0.268881 0.189973
H38 H 0.072366 0.155897 0.0708796
H39 H 0.045273 0.128962 0.122432
H40 H 0.173125 0.220512 0.101807
H41 H 0.154645 0.17588 0.129378
H42 H 0.0264251 0.198848 0.120658
H43 H 0.0199815 0.194684 0.186669
H44 H 0.0861127 0.271862 0.20575
H45 H 0.107595 0.26267 0.256979
Cu4 Cu 0.15418(3) 0.35940(3) 0.91416(3)
Cu5 Cu 0.31345(3) 0.46019(3) 0.95224(4)
Cu6 Cu 0.20492(3) 0.51091(3) 0.96599(4)
O7 O 0.17183(14) 0.41671(14) 0.92834(18)
O8 O 0.16439(18) 0.46727(17) 0.8971(2)
O9 O 0.25525(14) 0.42151(13) 0.93382(18)
O10 O 0.21604(16) 0.38270(15) 0.86646(18)
O11 O 0.24685(15) 0.49455(14) 0.95698(19)
O12 O 0.30596(17) 0.51236(16) 0.9169(2)
O13 O 0.17978(14) 0.36047(13) 0.98380(17)
O16 O 0.09336(18) 0.34107(18) 0.9760(3)
O19 O 0.13749(17) 0.30227(14) 0.9042(2)
O24 O 0.36852(16) 0.48632(17) 0.9810(2)
O25 O 0.39898(15) 0.51945(16) 0.9066(3)
O26 O 0.16448(18) 0.52570(18) 0.9882(2)
O27 O 0.1555(2) 0.54605(18) 0.9064(2)
N4 N 0.1278(2) 0.36606(19) 0.8487(2)
H7 H 0.1363 0.3588 0.8185
H8 H 0.1007 0.3500 0.8513
N5 N 0.3241(2) 0.4456(2) 0.8799(3)
H9 H 0.3404 0.4683 0.8608
H10 H 0.3370 0.4313 0.8836
N6 N 0.2387(2) 0.55378(19) 0.9137(3)
H11 H 0.2250 0.5497 0.8820
H12 H 0.2441 0.5780 0.9273
C5 C 0.1378(3) 0.4072(3) 0.8443(4)
H15 H 0.1131 0.4081 0.8380
H16 H 0.1552 0.4192 0.8125
C6 C 0.1589(3) 0.4326(3) 0.8939(3)
C7 C 0.2870(3) 0.4219(3) 0.8506(4)
H17 H 0.2872 0.3986 0.8346
H18 H 0.2858 0.4381 0.8206
C8 C 0.2495(3) 0.4070(2) 0.8850(3)
C9 C 0.2766(3) 0.5543(3) 0.9033(4)
H19 H 0.2988 0.5787 0.9193
H20 H 0.2811 0.5555 0.8639
C10 C 0.2775(3) 0.5175(2) 0.9264(3)
C12 C 0.3988(3) 0.5081(3) 0.9540(4)
H22 H 0.4238 0.5168 0.9706
C13 C 0.1464(3) 0.5364(3) 0.9554(4)
H23 H 0.1239 0.5372 0.9689
Tb3 Tb 0.125243(12) 0.562113(17) 0.833655(16)
Tb4 Tb 0.437887(17) 0.563131(12) 0.833655(16)
H32 H 0.115714 0.285573 0.930935
H33 H 0.127107 0.293767 0.866257
Tb1_2 Tb 0.568730(11) 0.786520(16) 0.008169(13)
Tb2_2 Tb 0.791910(12) 0.895446(17) 0.166988(16)
Cu1_2 Cu 0.66582(3) 0.80660(4) 0.04339(4)
Cu2_2 Cu 0.56399(3) 0.86249(4) 0.08276(4)
Cu3_2 Cu 0.51322(3) 0.70499(4) 0.09446(4)
O1_2 O 0.60956(14) 0.76835(20) 0.06876(18)
O2_2 O 0.57566(19) 0.72400(26) 0.1347(2)
O3_2 O 0.60383(14) 0.84391(19) 0.07124(19)
O4_2 O 0.66652(16) 0.85921(23) 0.0938(2)
O5_2 O 0.52786(14) 0.76265(19) 0.09208(17)
O6_2 O 0.52805(17) 0.81072(24) 0.1434(2)
O14_2 O 0.53486(13) 0.82633(18) 0.02253(17)
O15_2 O 0.53341(14) 0.71433(20) 0.01955(17)
O17_2 O 0.6018(2) 0.9140(3) 0.0080(3)
O18_2 O 0.44658(17) 0.69133(25) 0.0482(2)
O20_2 O 0.52449(16) 0.88222(22) 0.0907(2)
O21_2 O 0.49960(19) 0.64799(26) 0.0906(2)
O22_2 O 0.71923(15) 0.84192(23) 0.01065(19)
O23_2 O 0.75283(16) 0.86200(23) 0.0900(2)
O28_2 O 0.85928(18) 0.95608(27) 0.1887(3)
O29_2 O 0.73133(18) 0.90417(25) 0.1590(3)
O30_2 O 0.73234(19) 0.84124(28) 0.2168(3)
O31_2 O 0.7894(2) 0.82848(27) 0.1567(3)
O32_2 O 0.8441(2) 0.9014(3) 0.1042(3)
O33_2 O 0.8054(2) 0.9532(3) 0.1098(3)
N1_2 N 0.6811(2) 0.7840(3) 0.1058(3)
H1_2 H 0.6952 0.7724 0.0934
H2_2 H 0.6973 0.8042 0.1288
N2_2 N 0.6031(2) 0.8986(3) 0.1381(3)
H3_2 H 0.6085 0.9243 0.1328
H4_2 H 0.5926 0.8908 0.1720
N3_2 N 0.4877(2) 0.7030(3) 0.1654(3)
H5_2 H 0.4605 0.6901 0.1618
H6_2 H 0.4941 0.6896 0.1903
C1_2 C 0.6073(3) 0.7484(4) 0.1114(4)
C2_2 C 0.6402(3) 0.8968(4) 0.1332(4)
H13_2 H 0.6483 0.8930 0.1695
H14_2 H 0.6615 0.9226 0.1193
C3_2 C 0.6368(3) 0.8644(4) 0.0972(3)
C4_2 C 0.5214(3) 0.7760(4) 0.1355(3)
C11_2 C 0.7511(3) 0.8643(4) 0.0390(4)
H21_2 H 0.7743 0.8833 0.0205
C14_2 C 0.5027(3) 0.7441(4) 0.1829(4)
H24_2 H 0.5232 0.7507 0.2109
H25_2 H 0.4806 0.7461 0.1995
C15_2 C 0.6452(3) 0.7538(4) 0.1355(4)
H26_2 H 0.6470 0.7623 0.1735
H27_2 H 0.6447 0.7281 0.1352
O34_2 O 0.78714(22) 0.93435(27) 0.2399(3)
O35_2 O 0.8222(2) 0.87938(34) 0.2397(2)
H28_2 H 0.499454 0.637802 0.128203
H29_2 H 0.472314 0.631474 0.0737792
H30_2 H 0.502814 0.869018 0.0625711
H31_2 H 0.512168 0.87532 0.12791
H34_2 H 0.860197 0.980914 0.174059
H35_2 H 0.863206 0.958563 0.229129
H36_2 H 0.706234 0.877134 0.160156
H37_2 H 0.731119 0.921063 0.189973
H38_2 H 0.844103 0.916469 0.0708796
H39_2 H 0.871038 0.916311 0.122432
H40_2 H 0.779488 0.952613 0.101807
H41_2 H 0.82412 0.978765 0.129378
H42_2 H 0.801152 0.827577 0.120658
H43_2 H 0.805316 0.825297 0.186669
H44_2 H 0.728138 0.814251 0.20575
H45_2 H 0.73733 0.844925 0.256979
Cu4_2 Cu 0.64060(3) 0.79478(4) 0.91416(3)
Cu5_2 Cu 0.53981(3) 0.85326(4) 0.95224(4)
Cu6_2 Cu 0.48909(3) 0.69401(4) 0.96599(4)
O7_2 O 0.58329(14) 0.75512(20) 0.92834(18)
O8_2 O 0.53273(17) 0.69712(25) 0.8971(2)
O9_2 O 0.57849(13) 0.83374(19) 0.93382(18)
O10_2 O 0.61730(15) 0.83334(22) 0.86646(18)
O11_2 O 0.50545(14) 0.75230(21) 0.95698(19)
O12_2 O 0.48764(16) 0.79360(23) 0.9169(2)
O13_2 O 0.63953(13) 0.81931(19) 0.98380(17)
O16_2 O 0.65893(18) 0.75229(25) 0.9760(3)
O19_2 O 0.69773(14) 0.83522(22) 0.9042(2)
O24_2 O 0.51368(17) 0.88220(23) 0.9810(2)
O25_2 O 0.48055(16) 0.87953(22) 0.9066(3)
O26_2 O 0.47430(18) 0.63878(25) 0.9882(2)
O27_2 O 0.45395(18) 0.60945(27) 0.9064(2)
N4_2 N 0.63394(19) 0.76174(28) 0.8487(2)
H7_2 H 0.6412 0.7775 0.8185
H8_2 H 0.6500 0.7507 0.8513
N5_2 N 0.5544(2) 0.8785(3) 0.8799(3)
H9_2 H 0.5317 0.8721 0.8608
H10_2 H 0.5687 0.9057 0.8836
N6_2 N 0.44622(19) 0.68492(28) 0.9137(3)
H11_2 H 0.4503 0.6753 0.8820
H12_2 H 0.4220 0.6661 0.9273
C5_2 C 0.5928(3) 0.7306(4) 0.8443(4)
H15_2 H 0.5919 0.7050 0.8380
H16_2 H 0.5808 0.7360 0.8125
C6_2 C 0.5674(3) 0.7263(4) 0.8939(3)
C7_2 C 0.5781(3) 0.8651(4) 0.8506(4)
H17_2 H 0.6014 0.8886 0.8346
H18_2 H 0.5619 0.8477 0.8206
C8_2 C 0.5930(2) 0.8425(4) 0.8850(3)
C9_2 C 0.4457(3) 0.7223(4) 0.9033(4)
H19_2 H 0.4213 0.7201 0.9193
H20_2 H 0.4445 0.7256 0.8639
C10_2 C 0.4825(2) 0.7600(4) 0.9264(3)
C12_2 C 0.4919(3) 0.8907(4) 0.9540(4)
H22_2 H 0.4832 0.9070 0.9706
C13_2 C 0.4636(3) 0.6100(4) 0.9554(4)
H23_2 H 0.4628 0.5867 0.9689
Tb4_2 Tb 0.436869(12) 0.874757(21) 0.833655(16)
H32_2 H 0.714427 0.830141 0.930935
H33_2 H 0.706233 0.83334 0.866257
Cu4_3 Cu 0.20522(4) 0.84582(3) 0.91416(3)
Cu5_3 Cu 0.14674(4) 0.68655(3) 0.95224(4)
Cu6_3 Cu 0.30599(4) 0.79508(3) 0.96599(4)
O7_3 O 0.24488(20) 0.82817(14) 0.92834(18)
O8_3 O 0.30288(25) 0.83561(18) 0.8971(2)
O9_3 O 0.16626(19) 0.74475(14) 0.93382(18)
O10_3 O 0.16666(22) 0.78396(16) 0.86646(18)
O11_3 O 0.24770(21) 0.75315(15) 0.95698(19)
O12_3 O 0.20640(23) 0.69404(17) 0.9169(2)
O13_3 O 0.18069(19) 0.82022(14) 0.98380(17)
O16_3 O 0.24771(25) 0.90664(18) 0.9760(3)
O19_3 O 0.16478(22) 0.86251(17) 0.9042(2)
O24_3 O 0.11780(23) 0.63148(16) 0.9810(2)
O25_3 O 0.12047(22) 0.60102(15) 0.9066(3)
O26_3 O 0.36122(25) 0.83552(18) 0.9882(2)
O27_3 O 0.39055(27) 0.8445(2) 0.9064(2)
N4_3 N 0.23826(28) 0.8722(2) 0.8487(2)
H7_3 H 0.2225 0.8637 0.8185
H8_3 H 0.2493 0.8993 0.8513
N5_3 N 0.1215(3) 0.6759(2) 0.8799(3)
H9_3 H 0.1279 0.6596 0.8608
H10_3 H 0.0943 0.6630 0.8836
N6_3 N 0.31508(28) 0.7613(2) 0.9137(3)
H11_3 H 0.3247 0.7750 0.8820
H12_3 H 0.3339 0.7559 0.9273
C5_3 C 0.2694(4) 0.8622(3) 0.8443(4)
H15_3 H 0.2950 0.8869 0.8380
H16_3 H 0.2640 0.8448 0.8125
C6_3 C 0.2737(4) 0.8411(3) 0.8939(3)
C7_3 C 0.1349(4) 0.7130(3) 0.8506(4)
H17_3 H 0.1114 0.7128 0.8346
H18_3 H 0.1523 0.7142 0.8206
C8_3 C 0.1575(4) 0.7505(3) 0.8850(3)
C9_3 C 0.2777(4) 0.7234(3) 0.9033(4)
H19_3 H 0.2799 0.7012 0.9193
H20_3 H 0.2744 0.7189 0.8639
C10_3 C 0.2400(4) 0.7225(3) 0.9264(3)
C12_3 C 0.1093(4) 0.6012(3) 0.9540(4)
H22_3 H 0.0930 0.5762 0.9706
C13_3 C 0.3900(4) 0.8536(3) 0.9554(4)
H23_3 H 0.4133 0.8761 0.9689
H32_3 H 0.169859 0.884286 0.930935
H33_3 H 0.16666 0.872893 0.866257
Tb1_3 Tb 0.884457(11) 0.764603(11) 0.341502(13)
Tb2_3 Tb 0.770203(12) 0.541423(12) 0.500321(16)
Cu1_3 Cu 0.80745(3) 0.66751(3) 0.37672(4)
Cu2_3 Cu 0.96517(3) 0.76934(3) 0.41609(4)
Cu3_3 Cu 0.85844(3) 0.82011(3) 0.42779(4)
Cu4_4 Cu 0.82085(3) 0.69273(3) 0.24749(3)
Cu5_4 Cu 0.98012(3) 0.79352(3) 0.28557(4)
Cu6_4 Cu 0.87159(3) 0.84424(3) 0.29932(4)
O1_3 O 0.82546(14) 0.72377(14) 0.40209(18)
O2_3 O 0.81501(18) 0.75767(19) 0.4680(2)
O3_3 O 0.90675(13) 0.72950(14) 0.40457(19)
O4_3 O 0.85936(17) 0.66681(16) 0.4271(2)
O5_3 O 0.90146(13) 0.80547(14) 0.42541(17)
O6_3 O 0.94934(17) 0.80528(17) 0.4767(2)
O7_4 O 0.83850(14) 0.75004(14) 0.26167(18)
O8_4 O 0.83106(18) 0.80060(17) 0.2304(2)
O9_4 O 0.92192(14) 0.75484(13) 0.26715(18)
O10_4 O 0.88271(16) 0.71603(15) 0.19979(18)
O11_4 O 0.91352(15) 0.82788(14) 0.29031(19)
O12_4 O 0.97263(17) 0.84569(16) 0.2502(2)
O13_4 O 0.84645(14) 0.69380(13) 0.31713(17)
O14_3 O 0.95814(13) 0.79847(13) 0.35586(17)
O15_3 O 0.84759(14) 0.79992(14) 0.35288(17)
O16_4 O 0.76003(18) 0.67440(18) 0.3093(3)
O17_3 O 0.9789(2) 0.7315(2) 0.3413(3)
O18_3 O 0.91142(19) 0.88675(17) 0.3815(2)
O19_4 O 0.80416(17) 0.63560(14) 0.2375(2)
O21_3 O 0.81506(18) 0.83373(19) 0.4239(2)
O22_3 O 0.78936(17) 0.61410(15) 0.34398(19)
O23_3 O 0.77584(17) 0.58050(16) 0.4233(2)
O26_4 O 0.83115(18) 0.85903(18) 0.3215(2)
O28_3 O 0.7635(2) 0.47405(18) 0.5220(3)
O29_3 O 0.83951(17) 0.60200(18) 0.4923(3)
O30_3 O 0.7756(2) 0.60099(19) 0.5501(3)
O31_3 O 0.70575(18) 0.5439(2) 0.4900(3)
O32_3 O 0.7240(2) 0.4892(2) 0.4375(3)
O33_3 O 0.8145(2) 0.5279(2) 0.4431(3)
N1_3 N 0.7696(2) 0.6522(2) 0.4391(3)
H1_3 H 0.7439 0.6381 0.4267
H2_3 H 0.7736 0.6360 0.4621
N2_3 N 0.9622(2) 0.7302(2) 0.4714(3)
H3_3 H 0.9825 0.7248 0.4661
H4_3 H 0.9649 0.7407 0.5053
N3_3 N 0.8820(2) 0.8456(2) 0.4987(3)
H5_3 H 0.8963 0.8728 0.4951
H6_3 H 0.8622 0.8392 0.5236
N4_4 N 0.7945(2) 0.69939(19) 0.1820(2)
H7_4 H 0.8030 0.6921 0.1518
H8_4 H 0.7674 0.6833 0.1846
N5_4 N 0.9908(2) 0.7789(2) 0.2132(3)
N6_4 N 0.9054(2) 0.88711(19) 0.2470(3)
H11_4 H 0.8917 0.8830 0.2153
H12_4 H 0.9108 0.9113 0.2606
C1_3 C 0.8078(3) 0.7260(3) 0.4447(4)
C2_3 C 0.9233(3) 0.6931(3) 0.4665(4)
H13_3 H 0.9114 0.6850 0.5028
H14_3 H 0.9278 0.6718 0.4526
C3_3 C 0.8943(3) 0.6965(3) 0.4305(3)
C4_3 C 0.9213(3) 0.8119(3) 0.4688(3)
C5_4 C 0.8045(3) 0.7405(3) 0.1776(4)
H15_4 H 0.7798 0.7414 0.1713
H16_4 H 0.8219 0.7525 0.1458
C6_4 C 0.8256(3) 0.7659(3) 0.2272(3)
C7_4 C 0.9537(3) 0.7552(3) 0.1839(4)
H17_4 H 0.9539 0.7319 0.1679
H18_4 H 0.9525 0.7714 0.1539
C8_4 C 0.9162(3) 0.7403(2) 0.2183(3)
C9_4 C 0.9433(3) 0.8876(3) 0.2366(4)
H19_4 H 0.9655 0.9120 0.2526
H20_4 H 0.9478 0.8888 0.1972
C10_4 C 0.9442(3) 0.8508(2) 0.2597(3)
C11_3 C 0.7799(3) 0.5822(3) 0.3723(4)
H21_3 H 0.7757 0.5590 0.3538
C13_4 C 0.8131(3) 0.8697(3) 0.2887(4)
H23_4 H 0.7906 0.8705 0.3022
C14_3 C 0.9081(3) 0.8306(3) 0.5162(4)
H24_3 H 0.8942 0.8101 0.5442
H25_3 H 0.9322 0.8527 0.5328
C15_3 C 0.7753(3) 0.6881(3) 0.4688(4)
H26_3 H 0.7820 0.6863 0.5068
H27_3 H 0.7501 0.6886 0.4685
O34_3 O 0.81388(16) 0.54620(22) 0.5733(3)
O35_3 O 0.72388(27) 0.5112(2) 0.5731(2)
H28_3 H 0.805015 0.83388 0.461537
H29_3 H 0.825826 0.861019 0.407113
H32_4 H 0.782381 0.618907 0.264268
H33_4 H 0.793774 0.6271 0.199591
H34_3 H 0.787384 0.473136 0.507392
H35_3 H 0.762024 0.470127 0.562462
H36_3 H 0.837567 0.627099 0.49349
H37_3 H 0.856611 0.602214 0.523306
H38_3 H 0.739033 0.48923 0.404213
H39_3 H 0.71194 0.462295 0.455766
H40_3 H 0.839792 0.553845 0.43514
H41_3 H 0.821312 0.509213 0.462711
H42_3 H 0.693092 0.532181 0.453991
H43_3 H 0.686648 0.528018 0.520002
H44_3 H 0.752779 0.605195 0.539084
H45_3 H 0.774262 0.596004 0.590313
Tb1_4 Tb 0.235397(11) 0.119853(16) 0.341502(13)
Tb2_4 Tb 0.458577(12) 0.228779(17) 0.500321(16)
Cu1_4 Cu 0.33249(3) 0.13993(4) 0.37672(4)
Cu2_4 Cu 0.23066(3) 0.19582(4) 0.41609(4)
Cu3_4 Cu 0.17989(3) 0.03832(4) 0.42779(4)
Cu4_5 Cu 0.30727(3) 0.12811(4) 0.24749(3)
Cu5_5 Cu 0.20648(3) 0.18659(4) 0.28557(4)
Cu6_5 Cu 0.15576(3) 0.02734(4) 0.29932(4)
O1_4 O 0.27623(14) 0.10168(20) 0.40209(18)
O2_4 O 0.24233(19) 0.05733(26) 0.4680(2)
O3_4 O 0.27050(14) 0.17724(19) 0.40457(19)
O4_4 O 0.33319(16) 0.19254(23) 0.4271(2)
O5_4 O 0.19453(14) 0.09598(19) 0.42541(17)
O6_4 O 0.19472(17) 0.14405(24) 0.4767(2)
O7_5 O 0.24996(14) 0.08845(20) 0.26167(18)
O8_5 O 0.19940(17) 0.03045(25) 0.2304(2)
O9_5 O 0.24516(13) 0.16707(19) 0.26715(18)
O10_5 O 0.28397(15) 0.16667(22) 0.19979(18)
O11_5 O 0.17212(14) 0.08563(21) 0.29031(19)
O12_5 O 0.15431(16) 0.12693(23) 0.2502(2)
O13_5 O 0.30620(13) 0.15264(19) 0.31713(17)
O14_4 O 0.20153(13) 0.15966(18) 0.35586(17)
O15_4 O 0.20008(14) 0.04766(20) 0.35288(17)
O16_5 O 0.32560(18) 0.08562(25) 0.3093(3)
O17_4 O 0.2685(2) 0.2473(3) 0.3413(3)
O18_4 O 0.11325(17) 0.02466(25) 0.3815(2)
O19_5 O 0.36440(14) 0.16855(22) 0.2375(2)
O20_3 O 0.19116(16) 0.21555(22) 0.4240(2)
O22_4 O 0.38590(15) 0.17525(23) 0.34398(19)
O23_4 O 0.41950(16) 0.19533(23) 0.4233(2)
O24_4 O 0.18035(17) 0.21553(23) 0.3143(2)
O28_4 O 0.52595(18) 0.28941(27) 0.5220(3)
O29_4 O 0.39800(18) 0.23750(25) 0.4923(3)
O30_4 O 0.39901(19) 0.17457(28) 0.5501(3)
O31_4 O 0.4561(2) 0.16181(27) 0.4900(3)
O32_4 O 0.5108(2) 0.2347(3) 0.4375(3)
O33_4 O 0.4721(2) 0.2865(3) 0.4431(3)
N1_4 N 0.3478(2) 0.1173(3) 0.4391(3)
H1_4 H 0.3619 0.1057 0.4267
H2_4 H 0.3640 0.1375 0.4621
N2_4 N 0.2698(2) 0.2319(3) 0.4714(3)
H3_4 H 0.2752 0.2576 0.4661
H4_4 H 0.2593 0.2241 0.5053
N3_4 N 0.1544(2) 0.0363(3) 0.4987(3)
H5_4 H 0.1272 0.0234 0.4951
H6_4 H 0.1608 0.0229 0.5236
N4_5 N 0.30061(19) 0.09507(28) 0.1820(2)
H7_5 H 0.3079 0.1108 0.1518
H8_5 H 0.3167 0.0840 0.1846
N5_5 N 0.2211(2) 0.2118(3) 0.2132(3)
H9_4 H 0.1984 0.2054 0.1941
H10_4 H 0.2354 0.2390 0.2169
N6_5 N 0.11289(19) 0.01825(28) 0.2470(3)
H11_5 H 0.1170 0.0086 0.2153
C1_4 C 0.2740(3) 0.0817(4) 0.4447(4)
C2_4 C 0.3069(3) 0.2301(4) 0.4665(4)
H13_4 H 0.3150 0.2263 0.5028
H14_4 H 0.3282 0.2559 0.4526
C3_4 C 0.3035(3) 0.1977(4) 0.4305(3)
C4_4 C 0.1881(3) 0.1093(4) 0.4688(3)
C5_5 C 0.2595(3) 0.0639(4) 0.1776(4)
H15_5 H 0.2586 0.0383 0.1713
H16_5 H 0.2475 0.0693 0.1458
C6_5 C 0.2341(3) 0.0596(4) 0.2272(3)
C7_5 C 0.2448(3) 0.1984(4) 0.1839(4)
H17_5 H 0.2681 0.2219 0.1679
H18_5 H 0.2286 0.1810 0.1539
C8_5 C 0.2597(2) 0.1758(4) 0.2183(3)
C9_5 C 0.1124(3) 0.0556(4) 0.2366(4)
H19_5 H 0.0880 0.0534 0.2526
H20_5 H 0.1112 0.0589 0.1972
C10_5 C 0.1492(2) 0.0933(4) 0.2597(3)
C11_4 C 0.4178(3) 0.1976(4) 0.3723(4)
H21_4 H 0.4410 0.2166 0.3538
C12_4 C 0.1586(3) 0.2240(4) 0.2873(4)
H22_4 H 0.1499 0.2403 0.3039
C14_4 C 0.1694(3) 0.0774(4) 0.5162(4)
H24_4 H 0.1899 0.0840 0.5442
H25_4 H 0.1473 0.0794 0.5328
C15_4 C 0.3119(3) 0.0871(4) 0.4688(4)
H26_4 H 0.3137 0.0956 0.5068
H27_4 H 0.3114 0.0614 0.4685
O34_4 O 0.45380(22) 0.26769(27) 0.5733(3)
O35_4 O 0.4888(2) 0.21272(34) 0.5731(2)
H30_3 H 0.16948 0.202351 0.395904
H31_3 H 0.178835 0.208654 0.461243
H32_5 H 0.381093 0.163474 0.264268
H33_5 H 0.3729 0.166674 0.199591
H34_4 H 0.526864 0.314247 0.507392
H35_4 H 0.529873 0.291897 0.562462
H36_4 H 0.372901 0.210468 0.49349
H37_4 H 0.397786 0.254396 0.523306
H38_4 H 0.51077 0.249802 0.404213
H39_4 H 0.537705 0.249645 0.455766
H40_4 H 0.446155 0.285947 0.43514
H41_4 H 0.490787 0.312099 0.462711
H42_4 H 0.467819 0.160911 0.453991
H43_4 H 0.471982 0.158631 0.520002
H44_4 H 0.394805 0.147584 0.539084
H45_4 H 0.403996 0.178258 0.590313
O21_4 O 0.01868(26) 0.18494(18) 0.4239(2)
O26_5 O 0.02789(25) 0.16885(18) 0.3215(2)
H12_5 H 0.0006 0.0892 0.2606
C13_5 C 0.0567(4) 0.1869(3) 0.2887(4)
H23_5 H 0.0800 0.2094 0.3022
H28_4 H 0.0288648 0.194985 0.461537
H29_4 H 0.0351928 0.174174 0.407113
Tb1_5 Tb 0.880147(16) 0.115543(11) 0.341502(13)
Tb2_5 Tb 0.771221(17) 0.229797(12) 0.500321(16)
Cu1_5 Cu 0.86007(4) 0.19255(3) 0.37672(4)
Cu2_5 Cu 0.80418(4) 0.03483(3) 0.41609(4)
Cu3_5 Cu 0.96168(4) 0.14156(3) 0.42779(4)
Cu4_6 Cu 0.87189(4) 0.17915(3) 0.24749(3)
Cu5_6 Cu 0.81341(4) 0.01988(3) 0.28557(4)
Cu6_6 Cu 0.97266(4) 0.12841(3) 0.29932(4)
O1_5 O 0.89832(20) 0.17454(14) 0.40209(18)
O2_5 O 0.94267(26) 0.18499(18) 0.4680(2)
O3_5 O 0.82276(19) 0.09325(13) 0.40457(19)
O4_5 O 0.80746(23) 0.14064(17) 0.4271(2)
O5_5 O 0.90402(19) 0.09854(13) 0.42541(17)
O6_5 O 0.85595(24) 0.05066(17) 0.4767(2)
O7_6 O 0.91155(20) 0.16150(14) 0.26167(18)
O8_6 O 0.96955(25) 0.16894(18) 0.2304(2)
O9_6 O 0.83293(19) 0.07808(14) 0.26715(18)
O10_6 O 0.83333(22) 0.11729(16) 0.19979(18)
O11_6 O 0.91437(21) 0.08648(15) 0.29031(19)
O12_6 O 0.87307(23) 0.02737(17) 0.2502(2)
O13_6 O 0.84736(19) 0.15355(14) 0.31713(17)
O14_5 O 0.84034(18) 0.04186(13) 0.35586(17)
O15_5 O 0.95234(20) 0.15241(14) 0.35288(17)
O16_6 O 0.91438(25) 0.23997(18) 0.3093(3)
O17_5 O 0.7527(3) 0.0211(2) 0.3413(3)
O18_5 O 0.97534(25) 0.08858(19) 0.3815(2)
O19_6 O 0.83145(22) 0.19584(17) 0.2375(2)
O22_5 O 0.82475(23) 0.21064(17) 0.34398(19)
O23_5 O 0.80467(23) 0.22416(17) 0.4233(2)
O28_5 O 0.71059(27) 0.2365(2) 0.5220(3)
O29_5 O 0.76250(25) 0.16049(17) 0.4923(3)
O30_5 O 0.82543(28) 0.2244(2) 0.5501(3)
O31_5 O 0.83819(27) 0.29425(18) 0.4900(3)
O32_5 O 0.7653(3) 0.2760(2) 0.4375(3)
O33_5 O 0.7135(3) 0.1855(2) 0.4431(3)
N1_5 N 0.8827(3) 0.2304(2) 0.4391(3)
H1_5 H 0.8943 0.2561 0.4267
H2_5 H 0.8625 0.2264 0.4621
N2_5 N 0.7681(3) 0.0378(2) 0.4714(3)
H3_5 H 0.7424 0.0175 0.4661
H4_5 H 0.7759 0.0351 0.5053
N3_5 N 0.9637(3) 0.1180(2) 0.4987(3)
H5_5 H 0.9766 0.1037 0.4951
H6_5 H 0.9771 0.1378 0.5236
N4_6 N 0.90493(28) 0.2055(2) 0.1820(2)
H7_6 H 0.8892 0.1970 0.1518
H8_6 H 0.9160 0.2326 0.1846
N5_6 N 0.7882(3) 0.0092(2) 0.2132(3)
N6_6 N 0.98175(28) 0.0946(2) 0.2470(3)
H11_6 H 0.9914 0.1083 0.2153
C1_5 C 0.9183(4) 0.1922(3) 0.4447(4)
C2_5 C 0.7699(4) 0.0767(3) 0.4665(4)
H13_5 H 0.7737 0.0886 0.5028
H14_5 H 0.7441 0.0722 0.4526
C3_5 C 0.8023(4) 0.1057(3) 0.4305(3)
C4_5 C 0.8907(4) 0.0787(3) 0.4688(3)
C5_6 C 0.9361(4) 0.1955(3) 0.1776(4)
H15_6 H 0.9617 0.2202 0.1713
H16_6 H 0.9307 0.1781 0.1458
C6_6 C 0.9404(4) 0.1744(3) 0.2272(3)
C7_6 C 0.8016(4) 0.0463(3) 0.1839(4)
H17_6 H 0.7781 0.0461 0.1679
H18_6 H 0.8190 0.0475 0.1539
C8_6 C 0.8242(4) 0.0838(3) 0.2183(3)
C9_6 C 0.9444(4) 0.0567(3) 0.2366(4)
H19_6 H 0.9466 0.0345 0.2526
H20_6 H 0.9411 0.0522 0.1972
C10_6 C 0.9067(4) 0.0558(3) 0.2597(3)
C11_5 C 0.8024(4) 0.2201(3) 0.3723(4)
H21_5 H 0.7834 0.2243 0.3538
C14_5 C 0.9226(4) 0.0919(3) 0.5162(4)
H24_5 H 0.9160 0.1058 0.5442
H25_5 H 0.9206 0.0678 0.5328
C15_5 C 0.9129(4) 0.2247(3) 0.4688(4)
H26_5 H 0.9044 0.2180 0.5068
H27_5 H 0.9386 0.2499 0.4685
O34_5 O 0.73231(27) 0.18612(16) 0.5733(3)
O35_5 O 0.78728(34) 0.27612(27) 0.5731(2)
H32_6 H 0.836526 0.217619 0.264268
H33_6 H 0.833326 0.206226 0.199591
H34_5 H 0.685753 0.212616 0.507392
H35_5 H 0.708103 0.237976 0.562462
H36_5 H 0.789532 0.162433 0.49349
H37_5 H 0.745604 0.143389 0.523306
H38_5 H 0.750198 0.260967 0.404213
H39_5 H 0.750355 0.28806 0.455766
H40_5 H 0.714053 0.160208 0.43514
H41_5 H 0.687901 0.178688 0.462711
H42_5 H 0.839089 0.306908 0.453991
H43_5 H 0.841369 0.313352 0.520002
H44_5 H 0.852416 0.247221 0.539084
H45_5 H 0.821742 0.225738 0.590313
O20_4 O 0.78445(22) 0.97560(15) 0.4240(2)
O24_5 O 0.78447(23) 0.96481(16) 0.3143(2)
H9_5 H 0.7946 0.9929 0.1941
H10_5 H 0.7610 0.9963 0.2169
C12_5 C 0.7760(4) 0.9345(3) 0.2873(4)
H22_5 H 0.7597 0.9095 0.3039
H30_4 H 0.797649 0.967129 0.395904
H31_4 H 0.791346 0.970181 0.461243
Tb1_6 Tb 0.551123(11) 0.097937(11) 0.674836(13)
Cu1_6 Cu 0.47411(3) 0.00085(3) 0.71006(4)
Cu2_6 Cu 0.63183(3) 0.10268(3) 0.74943(4)
Cu3_6 Cu 0.52510(3) 0.15345(3) 0.76113(4)
Cu4_7 Cu 0.48751(3) 0.02607(3) 0.58083(3)
Cu5_7 Cu 0.64678(3) 0.12686(3) 0.61891(4)
Cu6_7 Cu 0.53825(3) 0.17758(3) 0.63266(4)
O1_6 O 0.49212(14) 0.05711(14) 0.73543(18)
O2_6 O 0.48167(18) 0.09101(19) 0.8014(2)
O3_6 O 0.57341(13) 0.06284(14) 0.73791(19)
O4_6 O 0.52602(17) 0.00015(16) 0.7605(2)
O5_6 O 0.56812(13) 0.13881(14) 0.75875(17)
O6_6 O 0.61600(17) 0.13862(17) 0.8101(2)
O7_7 O 0.50516(14) 0.08338(14) 0.59501(18)
O8_7 O 0.49772(18) 0.13394(17) 0.5638(2)
O9_7 O 0.58858(14) 0.08818(13) 0.60049(18)
O10_7 O 0.54937(16) 0.04937(15) 0.53313(18)
O11_7 O 0.58018(15) 0.16122(14) 0.62365(19)
O12_7 O 0.63929(17) 0.17903(16) 0.5836(2)
O13_7 O 0.51311(14) 0.02714(13) 0.65047(17)
O14_6 O 0.62480(13) 0.13181(13) 0.68920(17)
O15_6 O 0.51425(14) 0.13326(14) 0.68622(17)
O16_7 O 0.42669(18) 0.00774(18) 0.6427(3)
O17_6 O 0.6455(2) 0.0649(2) 0.6747(3)
O18_6 O 0.57808(19) 0.22009(17) 0.7149(2)
O20_5 O 0.69106(15) 0.14218(16) 0.7574(2)
O21_5 O 0.48172(18) 0.16707(19) 0.7573(2)
O24_6 O 0.70185(16) 0.15299(17) 0.6477(2)
O26_6 O 0.49781(18) 0.19237(18) 0.6549(2)
N2_6 N 0.6288(2) 0.0636(2) 0.8048(3)
H3_6 H 0.6491 0.0582 0.7995
H4_6 H 0.6315 0.0741 0.8387
N3_6 N 0.5486(2) 0.1790(2) 0.8321(3)
H5_6 H 0.5629 0.2062 0.8285
H6_6 H 0.5288 0.1726 0.8570
N4_7 N 0.4611(2) 0.03273(19) 0.5154(2)
H7_7 H 0.4696 0.0255 0.4852
H8_7 H 0.4340 0.0167 0.5180
N5_7 N 0.6574(2) 0.1123(2) 0.5466(3)
H9_6 H 0.6737 0.1350 0.5275
H10_6 H 0.6703 0.0980 0.5503
N6_7 N 0.5720(2) 0.22045(19) 0.5804(3)
H11_7 H 0.5583 0.2164 0.5487
H12_6 H 0.5774 0.2447 0.5940
C1_6 C 0.4744(3) 0.0594(3) 0.7781(4)
C2_6 C 0.5899(3) 0.0265(3) 0.7999(4)
H13_6 H 0.5780 0.0184 0.8362
H14_6 H 0.5944 0.0052 0.7860
C3_6 C 0.5609(3) 0.0299(3) 0.7639(3)
C4_6 C 0.5879(3) 0.1453(3) 0.8022(3)
C5_7 C 0.4711(3) 0.0739(3) 0.5110(4)
H15_7 H 0.4464 0.0748 0.5047
H16_7 H 0.4885 0.0859 0.4792
C6_7 C 0.4922(3) 0.0993(3) 0.5606(3)
C7_7 C 0.6203(3) 0.0886(3) 0.5173(4)
H17_7 H 0.6205 0.0653 0.5013
H18_7 H 0.6191 0.1048 0.4873
C8_7 C 0.5828(3) 0.0737(2) 0.5517(3)
C9_7 C 0.6099(3) 0.2210(3) 0.5700(4)
H19_7 H 0.6321 0.2454 0.5860
H20_7 H 0.6144 0.2222 0.5306
C10_7 C 0.6108(3) 0.1842(2) 0.5931(3)
C12_6 C 0.7321(3) 0.1748(3) 0.6207(4)
H22_6 H 0.7571 0.1835 0.6373
C13_6 C 0.4797(3) 0.2031(3) 0.6221(4)
H23_6 H 0.4572 0.2039 0.6356
C14_6 C 0.5747(3) 0.1640(3) 0.8496(4)
H24_6 H 0.5608 0.1435 0.8776
H25_6 H 0.5988 0.1861 0.8662
C15_6 C 0.4419(3) 0.0215(3) 0.8022(4)
H26_6 H 0.4486 0.0197 0.8402
H27_6 H 0.4167 0.0220 0.8019
H28_5 H 0.471681 0.167213 0.79487
H29_5 H 0.492493 0.194352 0.740446
H30_5 H 0.699538 0.163853 0.729238
H31_5 H 0.696486 0.154498 0.794577
O19_7 O 0.47082(17) 0.96894(14) 0.5709(2)
O22_6 O 0.45602(17) 0.94744(15) 0.67732(19)
O23_6 O 0.44250(17) 0.91384(16) 0.7567(2)
O28_6 O 0.4301(2) 0.80739(18) 0.8554(3)
O29_6 O 0.50617(17) 0.93534(18) 0.8257(3)
O30_6 O 0.4422(2) 0.93433(19) 0.8835(3)
O31_6 O 0.37241(18) 0.8773(2) 0.8234(3)
O32_6 O 0.3906(2) 0.8226(2) 0.7709(3)
O33_6 O 0.4811(2) 0.8613(2) 0.7765(3)
N1_6 N 0.4362(2) 0.9856(2) 0.7725(3)
H1_6 H 0.4105 0.9715 0.7601
H2_6 H 0.4402 0.9694 0.7955
C11_6 C 0.4465(3) 0.9156(3) 0.7057(4)
H21_6 H 0.4423 0.8924 0.6872
H32_7 H 0.449047 0.95224 0.597601
H33_7 H 0.460441 0.960434 0.532924
H34_6 H 0.45405 0.80647 0.840726
H35_6 H 0.428691 0.803461 0.895795
H36_6 H 0.504233 0.960432 0.826823
H37_6 H 0.523277 0.935548 0.85664
H38_6 H 0.405699 0.822564 0.737546
H39_6 H 0.378606 0.795628 0.789099
H40_6 H 0.506458 0.887178 0.768473
H41_6 H 0.487979 0.842547 0.796045
H42_6 H 0.359758 0.865514 0.787325
H43_6 H 0.353315 0.861351 0.853336
H44_6 H 0.419446 0.938529 0.872417
H45_6 H 0.440929 0.929337 0.923646
O19_8 O 0.03106(14) 0.50189(22) 0.5709(2)
O22_7 O 0.05256(15) 0.50859(23) 0.67732(19)
O23_7 O 0.08616(16) 0.52867(23) 0.7567(2)
O28_7 O 0.19261(18) 0.62275(27) 0.8554(3)
O29_7 O 0.06466(18) 0.57084(25) 0.8257(3)
O30_7 O 0.06567(19) 0.50791(28) 0.8835(3)
O31_7 O 0.1227(2) 0.49515(27) 0.8234(3)
O32_7 O 0.1774(2) 0.5681(3) 0.7709(3)
O33_7 O 0.1387(2) 0.6199(3) 0.7765(3)
N1_7 N 0.0144(2) 0.4507(3) 0.7725(3)
H1_7 H 0.0285 0.4391 0.7601
H2_7 H 0.0306 0.4709 0.7955
C11_7 C 0.0844(3) 0.5310(4) 0.7057(4)
H21_7 H 0.1076 0.5500 0.6872
H32_8 H 0.04776 0.496807 0.597601
H33_8 H 0.0395662 0.500007 0.532924
H34_7 H 0.19353 0.647581 0.840726
H35_7 H 0.196539 0.62523 0.895795
H36_7 H 0.0395677 0.543801 0.826823
H37_7 H 0.0644523 0.58773 0.85664
H38_7 H 0.177436 0.583136 0.737546
H39_7 H 0.204372 0.582978 0.789099
H40_7 H 0.112822 0.61928 0.768473
H41_7 H 0.157453 0.645432 0.796045
H42_7 H 0.134486 0.494244 0.787325
H43_7 H 0.138649 0.491964 0.853336
H44_7 H 0.0614714 0.480917 0.872417
H45_7 H 0.070663 0.511592 0.923646
Tb1_7 Tb 0.902063(11) 0.453187(16) 0.674836(13)
Cu1_7 Cu 0.99915(3) 0.47327(4) 0.71006(4)
Cu2_7 Cu 0.89732(3) 0.52916(4) 0.74943(4)
Cu3_7 Cu 0.84655(3) 0.37166(4) 0.76113(4)
Cu4_8 Cu 0.97393(3) 0.46145(4) 0.58083(3)
Cu5_8 Cu 0.87314(3) 0.51993(4) 0.61891(4)
Cu6_8 Cu 0.82242(3) 0.36068(4) 0.63266(4)
O1_7 O 0.94289(14) 0.43502(20) 0.73543(18)
O2_7 O 0.90899(19) 0.39067(26) 0.8014(2)
O3_7 O 0.93716(14) 0.51058(19) 0.73791(19)
O4_7 O 0.99985(16) 0.52588(23) 0.7605(2)
O5_7 O 0.86119(14) 0.42932(19) 0.75875(17)
O6_7 O 0.86138(17) 0.47739(24) 0.8101(2)
O7_8 O 0.91662(14) 0.42179(20) 0.59501(18)
O8_8 O 0.86606(17) 0.36379(25) 0.5638(2)
O9_8 O 0.91182(13) 0.50041(19) 0.60049(18)
O10_8 O 0.95063(15) 0.50001(22) 0.53313(18)
O11_8 O 0.83878(14) 0.41897(21) 0.62365(19)
O12_8 O 0.82097(16) 0.46027(23) 0.5836(2)
O13_8 O 0.97286(13) 0.48598(19) 0.65047(17)
O14_7 O 0.86819(13) 0.49300(18) 0.68920(17)
O15_7 O 0.86674(14) 0.38100(20) 0.68622(17)
O16_8 O 0.99226(18) 0.41896(25) 0.6427(3)
O17_7 O 0.9351(2) 0.5807(3) 0.6747(3)
O18_7 O 0.77991(17) 0.35800(25) 0.7149(2)
O20_6 O 0.85782(16) 0.54889(22) 0.7574(2)
O21_6 O 0.83293(19) 0.31466(26) 0.7573(2)
O24_7 O 0.84701(17) 0.54887(23) 0.6477(2)
O26_7 O 0.80763(18) 0.30545(25) 0.6549(2)
N2_7 N 0.9364(2) 0.5653(3) 0.8048(3)
H3_7 H 0.9418 0.5910 0.7995
H4_7 H 0.9259 0.5575 0.8387
N3_7 N 0.8210(2) 0.3697(3) 0.8321(3)
H5_7 H 0.7938 0.3568 0.8285
H6_7 H 0.8274 0.3563 0.8570
N4_8 N 0.96727(19) 0.42841(28) 0.5154(2)
H7_8 H 0.9745 0.4442 0.4852
H8_8 H 0.9833 0.4174 0.5180
N5_8 N 0.8877(2) 0.5452(3) 0.5466(3)
H9_7 H 0.8650 0.5388 0.5275
H10_7 H 0.9020 0.5724 0.5503
N6_8 N 0.77955(19) 0.35159(28) 0.5804(3)
H11_8 H 0.7836 0.3420 0.5487
H12_7 H 0.7553 0.3328 0.5940
C1_7 C 0.9406(3) 0.4151(4) 0.7781(4)
C2_7 C 0.9735(3) 0.5635(4) 0.7999(4)
H13_7 H 0.9816 0.5597 0.8362
H14_7 H 0.9948 0.5893 0.7860
C3_7 C 0.9701(3) 0.5311(4) 0.7639(3)
C4_7 C 0.8547(3) 0.4427(4) 0.8022(3)
C5_8 C 0.9261(3) 0.3973(4) 0.5110(4)
H15_8 H 0.9252 0.3717 0.5047
H16_8 H 0.9141 0.4027 0.4792
C6_8 C 0.9007(3) 0.3930(4) 0.5606(3)
C7_8 C 0.9114(3) 0.5318(4) 0.5173(4)
H17_8 H 0.9347 0.5553 0.5013
H18_8 H 0.8952 0.5144 0.4873
C8_8 C 0.9263(2) 0.5092(4) 0.5517(3)
C9_8 C 0.7790(3) 0.3890(4) 0.5700(4)
H19_8 H 0.7546 0.3868 0.5860
H20_8 H 0.7778 0.3923 0.5306
C10_8 C 0.8158(2) 0.4267(4) 0.5931(3)
C12_7 C 0.8252(3) 0.5574(4) 0.6207(4)
H22_7 H 0.8165 0.5737 0.6373
C13_7 C 0.7969(3) 0.2767(4) 0.6221(4)
H23_7 H 0.7961 0.2534 0.6356
C14_7 C 0.8360(3) 0.4108(4) 0.8496(4)
H24_7 H 0.8565 0.4174 0.8776
H25_7 H 0.8139 0.4128 0.8662
C15_7 C 0.9785(3) 0.4205(4) 0.8022(4)
H26_7 H 0.9803 0.4290 0.8402
H27_7 H 0.9780 0.3948 0.8019
H28_6 H 0.832787 0.304469 0.79487
H29_6 H 0.805648 0.298141 0.740446
H30_6 H 0.836147 0.535685 0.729238
H31_6 H 0.845502 0.541987 0.794577
Tb1_8 Tb 0.546813(16) 0.448877(11) 0.674836(13)
Cu1_8 Cu 0.52673(4) 0.52589(3) 0.71006(4)
Cu2_8 Cu 0.47084(4) 0.36817(3) 0.74943(4)
Cu3_8 Cu 0.62834(4) 0.47490(3) 0.76113(4)
Cu4_9 Cu 0.53855(4) 0.51249(3) 0.58083(3)
Cu5_9 Cu 0.48007(4) 0.35322(3) 0.61891(4)
Cu6_9 Cu 0.63932(4) 0.46175(3) 0.63266(4)
O1_8 O 0.56498(20) 0.50788(14) 0.73543(18)
O2_8 O 0.60933(26) 0.51833(18) 0.8014(2)
O3_8 O 0.48942(19) 0.42659(13) 0.73791(19)
O4_8 O 0.47412(23) 0.47398(17) 0.7605(2)
O5_8 O 0.57068(19) 0.43188(13) 0.75875(17)
O6_8 O 0.52261(24) 0.38400(17) 0.8101(2)
O7_9 O 0.57821(20) 0.49484(14) 0.59501(18)
O8_9 O 0.63621(25) 0.50228(18) 0.5638(2)
O9_9 O 0.49959(19) 0.41142(14) 0.60049(18)
O10_9 O 0.49999(22) 0.45063(16) 0.53313(18)
O11_9 O 0.58103(21) 0.41982(15) 0.62365(19)
O12_9 O 0.53973(23) 0.36071(17) 0.5836(2)
O13_9 O 0.51402(19) 0.48689(14) 0.65047(17)
O14_8 O 0.50700(18) 0.37520(13) 0.68920(17)
O15_8 O 0.61900(20) 0.48575(14) 0.68622(17)
O16_9 O 0.58104(25) 0.57331(18) 0.6427(3)
O17_8 O 0.4193(3) 0.3545(2) 0.6747(3)
O18_8 O 0.64200(25) 0.42192(19) 0.7149(2)
O19_9 O 0.49811(22) 0.52918(17) 0.5709(2)
O20_7 O 0.45111(22) 0.30894(15) 0.7574(2)
O21_7 O 0.68534(26) 0.51828(18) 0.7573(2)
O22_8 O 0.49141(23) 0.54398(17) 0.67732(19)
O23_8 O 0.47133(23) 0.55750(17) 0.7567(2)
O24_8 O 0.45113(23) 0.29815(16) 0.6477(2)
O26_8 O 0.69455(25) 0.50219(18) 0.6549(2)
O28_8 O 0.37725(27) 0.5699(2) 0.8554(3)
O29_8 O 0.42916(25) 0.49383(17) 0.8257(3)
O30_8 O 0.49209(28) 0.5578(2) 0.8835(3)
O31_8 O 0.50485(27) 0.62759(18) 0.8234(3)
O32_8 O 0.4319(3) 0.6094(2) 0.7709(3)
O33_8 O 0.3801(3) 0.5189(2) 0.7765(3)
N1_8 N 0.5493(3) 0.5638(2) 0.7725(3)
H1_8 H 0.5609 0.5895 0.7601
H2_8 H 0.5291 0.5598 0.7955
N2_8 N 0.4347(3) 0.3712(2) 0.8048(3)
H3_8 H 0.4090 0.3509 0.7995
H4_8 H 0.4425 0.3685 0.8387
N3_8 N 0.6303(3) 0.4514(2) 0.8321(3)
H5_8 H 0.6432 0.4371 0.8285
H6_8 H 0.6437 0.4712 0.8570
N4_9 N 0.57159(28) 0.5389(2) 0.5154(2)
H7_9 H 0.5558 0.5304 0.4852
H8_9 H 0.5826 0.5660 0.5180
N5_9 N 0.4548(3) 0.3426(2) 0.5466(3)
H9_8 H 0.4612 0.3263 0.5275
H10_8 H 0.4276 0.3297 0.5503
N6_9 N 0.64841(28) 0.4280(2) 0.5804(3)
H11_9 H 0.6580 0.4417 0.5487
H12_8 H 0.6672 0.4226 0.5940
C1_8 C 0.5849(4) 0.5256(3) 0.7781(4)
C2_8 C 0.4365(4) 0.4101(3) 0.7999(4)
H13_8 H 0.4403 0.4220 0.8362
H14_8 H 0.4107 0.4056 0.7860
C3_8 C 0.4689(4) 0.4391(3) 0.7639(3)
C4_8 C 0.5573(4) 0.4121(3) 0.8022(3)
C5_9 C 0.6027(4) 0.5289(3) 0.5110(4)
H15_9 H 0.6283 0.5536 0.5047
H16_9 H 0.5973 0.5115 0.4792
C6_9 C 0.6070(4) 0.5078(3) 0.5606(3)
C7_9 C 0.4682(4) 0.3797(3) 0.5173(4)
H17_9 H 0.4447 0.3795 0.5013
H18_9 H 0.4856 0.3809 0.4873
C8_9 C 0.4908(4) 0.4172(3) 0.5517(3)
C9_9 C 0.6110(4) 0.3901(3) 0.5700(4)
H19_9 H 0.6132 0.3679 0.5860
H20_9 H 0.6077 0.3856 0.5306
C10_9 C 0.5733(4) 0.3892(3) 0.5931(3)
C11_8 C 0.4690(4) 0.5535(3) 0.7057(4)
H21_8 H 0.4500 0.5577 0.6872
C12_8 C 0.4426(4) 0.2679(3) 0.6207(4)
H22_8 H 0.4263 0.2429 0.6373
C13_8 C 0.7233(4) 0.5203(3) 0.6221(4)
H23_8 H 0.7466 0.5428 0.6356
C14_8 C 0.5892(4) 0.4253(3) 0.8496(4)
H24_8 H 0.5826 0.4392 0.8776
H25_8 H 0.5872 0.4012 0.8662
C15_8 C 0.5795(4) 0.5581(3) 0.8022(4)
H26_8 H 0.5710 0.5514 0.8402
H27_8 H 0.6052 0.5833 0.8019
H28_7 H 0.695531 0.528319 0.79487
H29_7 H 0.701859 0.507507 0.740446
H30_7 H 0.464315 0.300462 0.729238
H31_7 H 0.458013 0.303514 0.794577
H32_9 H 0.503193 0.550953 0.597601
H33_9 H 0.499993 0.539559 0.532924
H34_8 H 0.352419 0.54595 0.840726
H35_8 H 0.37477 0.571309 0.895795
H36_8 H 0.456199 0.495767 0.826823
H37_8 H 0.41227 0.476723 0.85664
H38_8 H 0.416864 0.594301 0.737546
H39_8 H 0.417022 0.621394 0.789099
H40_8 H 0.38072 0.493542 0.768473
H41_8 H 0.354568 0.512021 0.796045
H42_8 H 0.505756 0.640242 0.787325
H43_8 H 0.508036 0.646685 0.853336
H44_8 H 0.519083 0.580554 0.872417
H45_8 H 0.488408 0.559071 0.923646
Tb1_9 Tb 0.213480(16) 0.782210(11) 0.008169(13)
Tb2_6 Tb 0.104554(17) 0.896464(12) 0.166988(16)
Cu1_9 Cu 0.19340(4) 0.85922(3) 0.04339(4)
Cu2_9 Cu 0.13751(4) 0.70150(3) 0.08276(4)
Cu3_9 Cu 0.29501(4) 0.80823(3) 0.09446(4)
O1_9 O 0.23165(20) 0.84121(14) 0.06876(18)
O2_9 O 0.27600(26) 0.85166(18) 0.1347(2)
O3_9 O 0.15609(19) 0.75992(13) 0.07124(19)
O4_9 O 0.14079(23) 0.80731(17) 0.0938(2)
O5_9 O 0.23735(19) 0.76521(13) 0.09208(17)
O6_9 O 0.18928(24) 0.71733(17) 0.1434(2)
O14_9 O 0.17367(18) 0.70853(13) 0.02253(17)
O15_9 O 0.28567(20) 0.81908(14) 0.01955(17)
O17_9 O 0.0860(3) 0.6878(2) 0.0080(3)
O18_9 O 0.30867(25) 0.75525(19) 0.0482(2)
O20_8 O 0.11778(22) 0.64227(15) 0.0907(2)
O21_8 O 0.35201(26) 0.85161(18) 0.0906(2)
O22_9 O 0.15808(23) 0.87731(17) 0.01065(19)
O23_9 O 0.13800(23) 0.89083(17) 0.0900(2)
O28_9 O 0.04392(27) 0.9032(2) 0.1887(3)
O29_9 O 0.09583(25) 0.82716(17) 0.1590(3)
O30_9 O 0.15876(28) 0.8911(2) 0.2168(3)
O31_9 O 0.17152(27) 0.96092(18) 0.1567(3)
O32_9 O 0.0986(3) 0.9427(2) 0.1042(3)
O33_9 O 0.0468(3) 0.8522(2) 0.1098(3)
N1_9 N 0.2160(3) 0.8971(2) 0.1058(3)
H1_9 H 0.2276 0.9228 0.0934
H2_9 H 0.1958 0.8931 0.1288
N2_9 N 0.1014(3) 0.7045(2) 0.1381(3)
H3_9 H 0.0757 0.6842 0.1328
H4_9 H 0.1092 0.7018 0.1720
N3_9 N 0.2970(3) 0.7847(2) 0.1654(3)
H5_9 H 0.3099 0.7704 0.1618
H6_9 H 0.3104 0.8045 0.1903
C1_9 C 0.2516(4) 0.8589(3) 0.1114(4)
C2_9 C 0.1032(4) 0.7434(3) 0.1332(4)
H13_9 H 0.1070 0.7553 0.1695
H14_9 H 0.0774 0.7389 0.1193
C3_9 C 0.1356(4) 0.7724(3) 0.0972(3)
C4_9 C 0.2240(4) 0.7454(3) 0.1355(3)
C11_9 C 0.1357(4) 0.8868(3) 0.0390(4)
H21_9 H 0.1167 0.8910 0.0205
C14_9 C 0.2559(4) 0.7586(3) 0.1829(4)
H24_9 H 0.2493 0.7725 0.2109
H25_9 H 0.2539 0.7345 0.1995
C15_9 C 0.2462(4) 0.8914(3) 0.1355(4)
H26_9 H 0.2377 0.8847 0.1735
H27_9 H 0.2719 0.9166 0.1352
O34_6 O 0.06565(27) 0.85278(16) 0.2399(3)
O35_6 O 0.12062(34) 0.94278(27) 0.2397(2)
H28_8 H 0.362198 0.861652 0.128203
H29_8 H 0.368526 0.84084 0.0737792
H30_8 H 0.130982 0.633796 0.0625711
H31_8 H 0.12468 0.636848 0.12791
H34_9 H 0.019086 0.879283 0.174059
H35_9 H 0.0414365 0.904643 0.229129
H36_9 H 0.122866 0.8291 0.160156
H37_9 H 0.078937 0.810056 0.189973
H38_9 H 0.0835311 0.927634 0.0708796
H39_9 H 0.0836888 0.954727 0.122432
H40_9 H 0.0473868 0.826875 0.101807
H41_9 H 0.0212346 0.845355 0.129378
H42_9 H 0.172423 0.973575 0.120658
H43_9 H 0.174703 0.980018 0.186669
H44_9 H 0.185749 0.913887 0.20575
H45_9 H 0.155075 0.892405 0.256979
O20_9 O 0.02440(15) 0.80884(16) 0.4240(2)
O24_9 O 0.03519(16) 0.81965(17) 0.3143(2)
H9_9 H 0.0071 0.8016 0.1941
H10_9 H 0.0037 0.7646 0.2169
C12_9 C 0.0655(3) 0.8414(3) 0.2873(4)
H22_9 H 0.0905 0.8501 0.3039
H30_9 H 0.032871 0.83052 0.395904
H31_9 H 0.0298189 0.821165 0.461243
O21_9 O 0.16627(19) 0.98132(26) 0.4239(2)
O26_9 O 0.14097(18) 0.97211(25) 0.3215(2)
H12_9 H 0.0887 0.9994 0.2606
C13_9 C 0.1303(3) 0.9433(4) 0.2887(4)
H23_9 H 0.1295 0.9200 0.3022
H28_9 H 0.16612 0.971135 0.461537
H29_9 H 0.138981 0.964807 0.407113
Cu4_10 Cu 0.84582(3) 0.64060(3) 0.08584(3)
Cu5_10 Cu 0.68655(3) 0.53981(3) 0.04776(4)
Cu6_10 Cu 0.79508(3) 0.48909(3) 0.03401(4)
O7_10 O 0.82817(14) 0.58329(14) 0.07166(18)
O8_10 O 0.83561(18) 0.53273(17) 0.1029(2)
O9_10 O 0.74475(14) 0.57849(13) 0.06618(18)
O10_10 O 0.78396(16) 0.61730(15) 0.13354(18)
O11_10 O 0.75315(15) 0.50545(14) 0.04302(19)
O12_10 O 0.69404(17) 0.48764(16) 0.0831(2)
O13_10 O 0.82022(14) 0.63953(13) 0.01620(17)
O16_10 O 0.90664(18) 0.65893(18) 0.0240(3)
O19_10 O 0.86251(17) 0.69773(14) 0.0958(2)
O24_10 O 0.63148(16) 0.51368(17) 0.0190(2)
O25_4 O 0.60102(15) 0.48055(16) 0.0934(3)
O26_10 O 0.83552(18) 0.47430(18) 0.0118(2)
O27_4 O 0.8445(2) 0.45395(18) 0.0936(2)
N4_10 N 0.8722(2) 0.63394(19) 0.1513(2)
H7_10 H 0.8637 0.6412 0.1815
H8_10 H 0.8993 0.6500 0.1487
N5_10 N 0.6759(2) 0.5544(2) 0.1201(3)
H9_10 H 0.6596 0.5317 0.1392
H10_10 H 0.6630 0.5687 0.1164
N6_10 N 0.7613(2) 0.44622(19) 0.0863(3)
H11_10 H 0.7750 0.4503 0.1180
H12_10 H 0.7559 0.4220 0.0727
C5_10 C 0.8622(3) 0.5928(3) 0.1557(4)
H15_10 H 0.8869 0.5919 0.1620
H16_10 H 0.8448 0.5808 0.1875
C6_10 C 0.8411(3) 0.5674(3) 0.1061(3)
C7_10 C 0.7130(3) 0.5781(3) 0.1494(4)
H17_10 H 0.7128 0.6014 0.1654
H18_10 H 0.7142 0.5619 0.1794
C8_10 C 0.7505(3) 0.5930(2) 0.1150(3)
C9_10 C 0.7234(3) 0.4457(3) 0.0967(4)
H19_10 H 0.7012 0.4213 0.0807
H20_10 H 0.7189 0.4445 0.1361
C10_10 C 0.7225(3) 0.4825(2) 0.0736(3)
C12_10 C 0.6012(3) 0.4919(3) 0.0460(4)
H22_10 H 0.5762 0.4832 0.0294
C13_10 C 0.8536(3) 0.4636(3) 0.0446(4)
H23_10 H 0.8761 0.4628 0.0311
Tb3_2 Tb 0.874757(12) 0.437887(17) 0.166345(16)
Tb4_3 Tb 0.562113(17) 0.436869(12) 0.166345(16)
H32_10 H 0.884286 0.714427 0.0690654
H33_10 H 0.872893 0.706233 0.133743
Tb1_10 Tb 0.782210(11) 0.568730(11) 0.991831(13)
Tb2_7 Tb 0.896464(12) 0.791910(12) 0.833012(16)
Cu1_10 Cu 0.85922(3) 0.66582(3) 0.95661(4)
Cu2_10 Cu 0.70150(3) 0.56399(3) 0.91724(4)
Cu3_10 Cu 0.80823(3) 0.51322(3) 0.90554(4)
O1_10 O 0.84121(14) 0.60956(14) 0.93124(18)
O2_10 O 0.85166(18) 0.57566(19) 0.8653(2)
O3_10 O 0.75992(13) 0.60383(14) 0.92876(19)
O4_10 O 0.80731(17) 0.66652(16) 0.9062(2)
O5_10 O 0.76521(13) 0.52786(14) 0.90792(17)
O6_10 O 0.71733(17) 0.52805(17) 0.8566(2)
O14_10 O 0.70853(13) 0.53486(13) 0.97747(17)
O15_10 O 0.81908(14) 0.53341(14) 0.98045(17)
O17_10 O 0.6878(2) 0.6018(2) 0.9920(3)
O18_10 O 0.75525(19) 0.44658(17) 0.9518(2)
O20_10 O 0.64227(15) 0.52449(16) 0.9093(2)
O21_10 O 0.85161(18) 0.49960(19) 0.9094(2)
O22_10 O 0.87731(17) 0.71923(15) 0.98935(19)
O23_10 O 0.89083(17) 0.75283(16) 0.9100(2)
O28_10 O 0.9032(2) 0.85928(18) 0.8113(3)
O29_10 O 0.82716(17) 0.73133(18) 0.8410(3)
O30_10 O 0.8911(2) 0.73234(19) 0.7832(3)
O31_10 O 0.96092(18) 0.7894(2) 0.8433(3)
O32_10 O 0.9427(2) 0.8441(2) 0.8958(3)
O33_10 O 0.8522(2) 0.8054(2) 0.8902(3)
N1_10 N 0.8971(2) 0.6811(2) 0.8942(3)
H1_10 H 0.9228 0.6952 0.9066
H2_10 H 0.8931 0.6973 0.8712
N2_10 N 0.7045(2) 0.6031(2) 0.8619(3)
H3_10 H 0.6842 0.6085 0.8672
H4_10 H 0.7018 0.5926 0.8280
N3_10 N 0.7847(2) 0.4877(2) 0.8346(3)
H5_10 H 0.7704 0.4605 0.8382
H6_10 H 0.8045 0.4941 0.8097
C1_10 C 0.8589(3) 0.6073(3) 0.8886(4)
C2_10 C 0.7434(3) 0.6402(3) 0.8668(4)
H13_10 H 0.7553 0.6483 0.8305
H14_10 H 0.7389 0.6615 0.8807
C3_10 C 0.7724(3) 0.6368(3) 0.9028(3)
C4_10 C 0.7454(3) 0.5214(3) 0.8645(3)
C11_10 C 0.8868(3) 0.7511(3) 0.9610(4)
H21_10 H 0.8910 0.7743 0.9795
C14_10 C 0.7586(3) 0.5027(3) 0.8171(4)
H24_10 H 0.7725 0.5232 0.7891
H25_10 H 0.7345 0.4806 0.8005
C15_10 C 0.8914(3) 0.6452(3) 0.8645(4)
H26_10 H 0.8847 0.6470 0.8265
H27_10 H 0.9166 0.6447 0.8648
O34_7 O 0.85278(16) 0.78714(22) 0.7601(3)
O35_7 O 0.94278(27) 0.8222(2) 0.7603(2)
H28_10 H 0.861652 0.499454 0.871797
H29_10 H 0.84084 0.472314 0.926221
H30_10 H 0.633796 0.502814 0.937429
H31_10 H 0.636848 0.512168 0.87209
H34_10 H 0.879283 0.860197 0.825941
H35_10 H 0.904643 0.863206 0.770871
H36_10 H 0.8291 0.706234 0.839844
H37_10 H 0.810056 0.731119 0.810027
H38_10 H 0.927634 0.844103 0.92912
H39_10 H 0.954727 0.871038 0.877568
H40_10 H 0.826875 0.779488 0.898193
H41_10 H 0.845355 0.82412 0.870622
H42_10 H 0.973575 0.801152 0.879342
H43_10 H 0.980018 0.805316 0.813331
H44_10 H 0.913887 0.728138 0.79425
H45_10 H 0.892405 0.73733 0.743021
Cu4_11 Cu 0.35940(3) 0.20522(4) 0.08584(3)
Cu5_11 Cu 0.46019(3) 0.14674(4) 0.04776(4)
Cu6_11 Cu 0.51091(3) 0.30599(4) 0.03401(4)
O7_11 O 0.41671(14) 0.24488(20) 0.07166(18)
O8_11 O 0.46727(17) 0.30288(25) 0.1029(2)
O9_11 O 0.42151(13) 0.16626(19) 0.06618(18)
O10_11 O 0.38270(15) 0.16666(22) 0.13354(18)
O11_11 O 0.49455(14) 0.24770(21) 0.04302(19)
O12_11 O 0.51236(16) 0.20640(23) 0.0831(2)
O13_11 O 0.36047(13) 0.18069(19) 0.01620(17)
O16_11 O 0.34107(18) 0.24771(25) 0.0240(3)
O19_11 O 0.30227(14) 0.16478(22) 0.0958(2)
O24_11 O 0.48632(17) 0.11780(23) 0.0190(2)
O25_5 O 0.51945(16) 0.12047(22) 0.0934(3)
O26_11 O 0.52570(18) 0.36122(25) 0.0118(2)
O27_5 O 0.54605(18) 0.39055(27) 0.0936(2)
N4_11 N 0.36606(19) 0.23826(28) 0.1513(2)
H7_11 H 0.3588 0.2225 0.1815
H8_11 H 0.3500 0.2493 0.1487
N5_11 N 0.4456(2) 0.1215(3) 0.1201(3)
H9_11 H 0.4683 0.1279 0.1392
H10_11 H 0.4313 0.0943 0.1164
N6_11 N 0.55378(19) 0.31508(28) 0.0863(3)
H11_11 H 0.5497 0.3247 0.1180
H12_11 H 0.5780 0.3339 0.0727
C5_11 C 0.4072(3) 0.2694(4) 0.1557(4)
H15_11 H 0.4081 0.2950 0.1620
H16_11 H 0.4192 0.2640 0.1875
C6_11 C 0.4326(3) 0.2737(4) 0.1061(3)
C7_11 C 0.4219(3) 0.1349(4) 0.1494(4)
H17_11 H 0.3986 0.1114 0.1654
H18_11 H 0.4381 0.1523 0.1794
C8_11 C 0.4070(2) 0.1575(4) 0.1150(3)
C9_11 C 0.5543(3) 0.2777(4) 0.0967(4)
H19_11 H 0.5787 0.2799 0.0807
H20_11 H 0.5555 0.2744 0.1361
C10_11 C 0.5175(2) 0.2400(4) 0.0736(3)
C12_11 C 0.5081(3) 0.1093(4) 0.0460(4)
H22_11 H 0.5168 0.0930 0.0294
C13_11 C 0.5364(3) 0.3900(4) 0.0446(4)
H23_11 H 0.5372 0.4133 0.0311
Tb4_4 Tb 0.563131(12) 0.125243(21) 0.166345(16)
H32_11 H 0.285573 0.169859 0.0690654
H33_11 H 0.293767 0.16666 0.133743
Tb1_11 Tb 0.431270(11) 0.213480(16) 0.991831(13)
Tb2_8 Tb 0.208090(12) 0.104554(17) 0.833012(16)
Cu1_11 Cu 0.33418(3) 0.19340(4) 0.95661(4)
Cu2_11 Cu 0.43601(3) 0.13751(4) 0.91724(4)
Cu3_11 Cu 0.48678(3) 0.29501(4) 0.90554(4)
O1_11 O 0.39044(14) 0.23165(20) 0.93124(18)
O2_11 O 0.42434(19) 0.27600(26) 0.8653(2)
O3_11 O 0.39617(14) 0.15609(19) 0.92876(19)
O4_11 O 0.33348(16) 0.14079(23) 0.9062(2)
O5_11 O 0.47214(14) 0.23735(19) 0.90792(17)
O6_11 O 0.47195(17) 0.18928(24) 0.8566(2)
O14_11 O 0.46514(13) 0.17367(18) 0.97747(17)
O15_11 O 0.46659(14) 0.28567(20) 0.98045(17)
O17_11 O 0.3982(2) 0.0860(3) 0.9920(3)
O18_11 O 0.55342(17) 0.30867(25) 0.9518(2)
O20_11 O 0.47551(16) 0.11778(22) 0.9093(2)
O21_11 O 0.50040(19) 0.35201(26) 0.9094(2)
O22_11 O 0.28077(15) 0.15808(23) 0.98935(19)
O23_11 O 0.24717(16) 0.13800(23) 0.9100(2)
O28_11 O 0.14072(18) 0.04392(27) 0.8113(3)
O29_11 O 0.26867(18) 0.09583(25) 0.8410(3)
O30_11 O 0.26766(19) 0.15876(28) 0.7832(3)
O31_11 O 0.2106(2) 0.17152(27) 0.8433(3)
O32_11 O 0.1559(2) 0.0986(3) 0.8958(3)
O33_11 O 0.1946(2) 0.0468(3) 0.8902(3)
N1_11 N 0.3189(2) 0.2160(3) 0.8942(3)
H1_11 H 0.3048 0.2276 0.9066
H2_11 H 0.3027 0.1958 0.8712
N2_11 N 0.3969(2) 0.1014(3) 0.8619(3)
H3_11 H 0.3915 0.0757 0.8672
H4_11 H 0.4074 0.1092 0.8280
N3_11 N 0.5123(2) 0.2970(3) 0.8346(3)
H5_11 H 0.5395 0.3099 0.8382
H6_11 H 0.5059 0.3104 0.8097
C1_11 C 0.3927(3) 0.2516(4) 0.8886(4)
C2_11 C 0.3598(3) 0.1032(4) 0.8668(4)
H13_11 H 0.3517 0.1070 0.8305
H14_11 H 0.3385 0.0774 0.8807
C3_11 C 0.3632(3) 0.1356(4) 0.9028(3)
C4_11 C 0.4786(3) 0.2240(4) 0.8645(3)
C11_11 C 0.2489(3) 0.1357(4) 0.9610(4)
H21_11 H 0.2257 0.1167 0.9795
C14_11 C 0.4973(3) 0.2559(4) 0.8171(4)
H24_11 H 0.4768 0.2493 0.7891
H25_11 H 0.5194 0.2539 0.8005
C15_11 C 0.3548(3) 0.2462(4) 0.8645(4)
H26_11 H 0.3530 0.2377 0.8265
H27_11 H 0.3553 0.2719 0.8648
O34_8 O 0.21286(22) 0.06565(27) 0.7601(3)
O35_8 O 0.1778(2) 0.12062(34) 0.7603(2)
H28_11 H 0.500546 0.362198 0.871797
H29_11 H 0.527686 0.368526 0.926221
H30_11 H 0.497186 0.130982 0.937429
H31_11 H 0.487832 0.12468 0.87209
H34_11 H 0.139803 0.019086 0.825941
H35_11 H 0.136794 0.0414365 0.770871
H36_11 H 0.293766 0.122866 0.839844
H37_11 H 0.268881 0.078937 0.810027
H38_11 H 0.155897 0.0835311 0.92912
H39_11 H 0.128962 0.0836888 0.877568
H40_11 H 0.220512 0.0473868 0.898193
H41_11 H 0.17588 0.0212346 0.870622
H42_11 H 0.198848 0.172423 0.879342
H43_11 H 0.194684 0.174703 0.813331
H44_11 H 0.271862 0.185749 0.79425
H45_11 H 0.26267 0.155075 0.743021
Cu4_12 Cu 0.79478(4) 0.15418(3) 0.08584(3)
Cu5_12 Cu 0.85326(4) 0.31345(3) 0.04776(4)
Cu6_12 Cu 0.69401(4) 0.20492(3) 0.03401(4)
O7_12 O 0.75512(20) 0.17183(14) 0.07166(18)
O8_12 O 0.69712(25) 0.16439(18) 0.1029(2)
O9_12 O 0.83374(19) 0.25525(14) 0.06618(18)
O10_12 O 0.83334(22) 0.21604(16) 0.13354(18)
O11_12 O 0.75230(21) 0.24685(15) 0.04302(19)
O12_12 O 0.79360(23) 0.30596(17) 0.0831(2)
O13_12 O 0.81931(19) 0.17978(14) 0.01620(17)
O16_12 O 0.75229(25) 0.09336(18) 0.0240(3)
O19_12 O 0.83522(22) 0.13749(17) 0.0958(2)
O24_12 O 0.88220(23) 0.36852(16) 0.0190(2)
O25_6 O 0.87953(22) 0.39898(15) 0.0934(3)
O26_12 O 0.63878(25) 0.16448(18) 0.0118(2)
O27_6 O 0.60945(27) 0.1555(2) 0.0936(2)
N4_12 N 0.76174(28) 0.1278(2) 0.1513(2)
H7_12 H 0.7775 0.1363 0.1815
H8_12 H 0.7507 0.1007 0.1487
N5_12 N 0.8785(3) 0.3241(2) 0.1201(3)
H9_12 H 0.8721 0.3404 0.1392
H10_12 H 0.9057 0.3370 0.1164
N6_12 N 0.68492(28) 0.2387(2) 0.0863(3)
H11_12 H 0.6753 0.2250 0.1180
H12_12 H 0.6661 0.2441 0.0727
C5_12 C 0.7306(4) 0.1378(3) 0.1557(4)
H15_12 H 0.7050 0.1131 0.1620
H16_12 H 0.7360 0.1552 0.1875
C6_12 C 0.7263(4) 0.1589(3) 0.1061(3)
C7_12 C 0.8651(4) 0.2870(3) 0.1494(4)
H17_12 H 0.8886 0.2872 0.1654
H18_12 H 0.8477 0.2858 0.1794
C8_12 C 0.8425(4) 0.2495(3) 0.1150(3)
C9_12 C 0.7223(4) 0.2766(3) 0.0967(4)
H19_12 H 0.7201 0.2988 0.0807
H20_12 H 0.7256 0.2811 0.1361
C10_12 C 0.7600(4) 0.2775(3) 0.0736(3)
C12_12 C 0.8907(4) 0.3988(3) 0.0460(4)
H22_12 H 0.9070 0.4238 0.0294
C13_12 C 0.6100(4) 0.1464(3) 0.0446(4)
H23_12 H 0.5867 0.1239 0.0311
H32_12 H 0.830141 0.115714 0.0690654
H33_12 H 0.83334 0.127107 0.133743
Tb1_12 Tb 0.115543(11) 0.235397(11) 0.658498(13)
Tb2_9 Tb 0.229797(12) 0.458577(12) 0.499679(16)
Cu1_12 Cu 0.19255(3) 0.33249(3) 0.62328(4)
Cu2_12 Cu 0.03483(3) 0.23066(3) 0.58391(4)
Cu3_12 Cu 0.14156(3) 0.17989(3) 0.57221(4)
Cu4_13 Cu 0.17915(3) 0.30727(3) 0.75251(3)
Cu5_13 Cu 0.01988(3) 0.20648(3) 0.71443(4)
Cu6_13 Cu 0.12841(3) 0.15576(3) 0.70068(4)
O1_12 O 0.17454(14) 0.27623(14) 0.59791(18)
O2_12 O 0.18499(18) 0.24233(19) 0.5320(2)
O3_12 O 0.09325(13) 0.27050(14) 0.59543(19)
O4_12 O 0.14064(17) 0.33319(16) 0.5729(2)
O5_12 O 0.09854(13) 0.19453(14) 0.57459(17)
O6_12 O 0.05066(17) 0.19472(17) 0.5233(2)
O7_13 O 0.16150(14) 0.24996(14) 0.73833(18)
O8_13 O 0.16894(18) 0.19940(17) 0.7696(2)
O9_13 O 0.07808(14) 0.24516(13) 0.73285(18)
O10_13 O 0.11729(16) 0.28397(15) 0.80021(18)
O11_13 O 0.08648(15) 0.17212(14) 0.70969(19)
O12_13 O 0.02737(17) 0.15431(16) 0.7498(2)
O13_13 O 0.15355(14) 0.30620(13) 0.68287(17)
O14_12 O 0.04186(13) 0.20153(13) 0.64414(17)
O15_12 O 0.15241(14) 0.20008(14) 0.64712(17)
O16_13 O 0.23997(18) 0.32560(18) 0.6907(3)
O17_12 O 0.0211(2) 0.2685(2) 0.6587(3)
O18_12 O 0.08858(19) 0.11325(17) 0.6185(2)
O19_13 O 0.19584(17) 0.36440(14) 0.7625(2)
O21_12 O 0.18494(18) 0.16627(19) 0.5761(2)
O22_12 O 0.21064(17) 0.38590(15) 0.65602(19)
O23_12 O 0.22416(17) 0.41950(16) 0.5767(2)
O26_13 O 0.16885(18) 0.14097(18) 0.6785(2)
O28_12 O 0.2365(2) 0.52595(18) 0.4780(3)
O29_12 O 0.16049(17) 0.39800(18) 0.5077(3)
O30_12 O 0.2244(2) 0.39901(19) 0.4499(3)
O31_12 O 0.29425(18) 0.4561(2) 0.5100(3)
O32_12 O 0.2760(2) 0.5108(2) 0.5625(3)
O33_12 O 0.1855(2) 0.4721(2) 0.5569(3)
N1_12 N 0.2304(2) 0.3478(2) 0.5609(3)
H1_12 H 0.2561 0.3619 0.5733
H2_12 H 0.2264 0.3640 0.5379
N2_12 N 0.0378(2) 0.2698(2) 0.5286(3)
H3_12 H 0.0175 0.2752 0.5339
H4_12 H 0.0351 0.2593 0.4947
N3_12 N 0.1180(2) 0.1544(2) 0.5013(3)
H5_12 H 0.1037 0.1272 0.5049
H6_12 H 0.1378 0.1608 0.4764
N4_13 N 0.2055(2) 0.30061(19) 0.8180(2)
H7_13 H 0.1970 0.3079 0.8482
H8_13 H 0.2326 0.3167 0.8154
N5_13 N 0.0092(2) 0.2211(2) 0.7868(3)
N6_13 N 0.0946(2) 0.11289(19) 0.7530(3)
H11_13 H 0.1083 0.1170 0.7847
H12_13 H 0.0892 0.0887 0.7394
C1_12 C 0.1922(3) 0.2740(3) 0.5553(4)
C2_12 C 0.0767(3) 0.3069(3) 0.5335(4)
H13_12 H 0.0886 0.3150 0.4972
H14_12 H 0.0722 0.3282 0.5474
C3_12 C 0.1057(3) 0.3035(3) 0.5695(3)
C4_12 C 0.0787(3) 0.1881(3) 0.5312(3)
C5_13 C 0.1955(3) 0.2595(3) 0.8224(4)
H15_13 H 0.2202 0.2586 0.8287
H16_13 H 0.1781 0.2475 0.8542
C6_13 C 0.1744(3) 0.2341(3) 0.7728(3)
C7_13 C 0.0463(3) 0.2448(3) 0.8161(4)
H17_13 H 0.0461 0.2681 0.8321
H18_13 H 0.0475 0.2286 0.8461
C8_13 C 0.0838(3) 0.2597(2) 0.7817(3)
C9_13 C 0.0567(3) 0.1124(3) 0.7634(4)
H19_13 H 0.0345 0.0880 0.7474
H20_13 H 0.0522 0.1112 0.8028
C10_13 C 0.0558(3) 0.1492(2) 0.7403(3)
C11_12 C 0.2201(3) 0.4178(3) 0.6277(4)
H21_12 H 0.2243 0.4410 0.6462
C13_13 C 0.1869(3) 0.1303(3) 0.7113(4)
H23_13 H 0.2094 0.1295 0.6978
C14_12 C 0.0919(3) 0.1694(3) 0.4838(4)
H24_12 H 0.1058 0.1899 0.4558
H25_12 H 0.0678 0.1473 0.4672
C15_12 C 0.2247(3) 0.3119(3) 0.5312(4)
H26_12 H 0.2180 0.3137 0.4932
H27_12 H 0.2499 0.3114 0.5315
O34_9 O 0.18612(16) 0.45380(22) 0.4267(3)
O35_9 O 0.27612(27) 0.4888(2) 0.4269(2)
H28_12 H 0.194985 0.16612 0.538463
H29_12 H 0.174174 0.138981 0.592887
H32_13 H 0.217619 0.381093 0.735732
H33_13 H 0.206226 0.3729 0.800409
H34_12 H 0.212616 0.526864 0.492608
H35_12 H 0.237976 0.529873 0.437538
H36_12 H 0.162433 0.372901 0.50651
H37_12 H 0.143389 0.397786 0.476694
H38_12 H 0.260967 0.51077 0.595787
H39_12 H 0.28806 0.537705 0.544234
H40_12 H 0.160208 0.446155 0.56486
H41_12 H 0.178688 0.490787 0.537289
H42_12 H 0.306908 0.467819 0.546009
H43_12 H 0.313352 0.471982 0.479998
H44_12 H 0.247221 0.394805 0.460916
H45_12 H 0.225738 0.403996 0.409687
Tb1_13 Tb 0.764603(11) 0.880147(16) 0.658498(13)
Tb2_10 Tb 0.541423(12) 0.771221(17) 0.499679(16)
Cu1_13 Cu 0.66751(3) 0.86007(4) 0.62328(4)
Cu2_13 Cu 0.76934(3) 0.80418(4) 0.58391(4)
Cu3_13 Cu 0.82011(3) 0.96168(4) 0.57221(4)
Cu4_14 Cu 0.69273(3) 0.87189(4) 0.75251(3)
Cu5_14 Cu 0.79352(3) 0.81341(4) 0.71443(4)
Cu6_14 Cu 0.84424(3) 0.97266(4) 0.70068(4)
O1_13 O 0.72377(14) 0.89832(20) 0.59791(18)
O2_13 O 0.75767(19) 0.94267(26) 0.5320(2)
O3_13 O 0.72950(14) 0.82276(19) 0.59543(19)
O4_13 O 0.66681(16) 0.80746(23) 0.5729(2)
O5_13 O 0.80547(14) 0.90402(19) 0.57459(17)
O6_13 O 0.80528(17) 0.85595(24) 0.5233(2)
O7_14 O 0.75004(14) 0.91155(20) 0.73833(18)
O8_14 O 0.80060(17) 0.96955(25) 0.7696(2)
O9_14 O 0.75484(13) 0.83293(19) 0.73285(18)
O10_14 O 0.71603(15) 0.83333(22) 0.80021(18)
O11_14 O 0.82788(14) 0.91437(21) 0.70969(19)
O12_14 O 0.84569(16) 0.87307(23) 0.7498(2)
O13_14 O 0.69380(13) 0.84736(19) 0.68287(17)
O14_13 O 0.79847(13) 0.84034(18) 0.64414(17)
O15_13 O 0.79992(14) 0.95234(20) 0.64712(17)
O16_14 O 0.67440(18) 0.91438(25) 0.6907(3)
O17_13 O 0.7315(2) 0.7527(3) 0.6587(3)
O18_13 O 0.88675(17) 0.97534(25) 0.6185(2)
O19_14 O 0.63560(14) 0.83145(22) 0.7625(2)
O20_12 O 0.80884(16) 0.78445(22) 0.5760(2)
O22_13 O 0.61410(15) 0.82475(23) 0.65602(19)
O23_13 O 0.58050(16) 0.80467(23) 0.5767(2)
O24_13 O 0.81965(17) 0.78447(23) 0.6857(2)
O28_13 O 0.47405(18) 0.71059(27) 0.4780(3)
O29_13 O 0.60200(18) 0.76250(25) 0.5077(3)
O30_13 O 0.60099(19) 0.82543(28) 0.4499(3)
O31_13 O 0.5439(2) 0.83819(27) 0.5100(3)
O32_13 O 0.4892(2) 0.7653(3) 0.5625(3)
O33_13 O 0.5279(2) 0.7135(3) 0.5569(3)
N1_13 N 0.6522(2) 0.8827(3) 0.5609(3)
H1_13 H 0.6381 0.8943 0.5733
H2_13 H 0.6360 0.8625 0.5379
N2_13 N 0.7302(2) 0.7681(3) 0.5286(3)
H3_13 H 0.7248 0.7424 0.5339
H4_13 H 0.7407 0.7759 0.4947
N3_13 N 0.8456(2) 0.9637(3) 0.5013(3)
H5_13 H 0.8728 0.9766 0.5049
H6_13 H 0.8392 0.9771 0.4764
N4_14 N 0.69939(19) 0.90493(28) 0.8180(2)
H7_14 H 0.6921 0.8892 0.8482
H8_14 H 0.6833 0.9160 0.8154
N5_14 N 0.7789(2) 0.7882(3) 0.7868(3)
H9_13 H 0.8016 0.7946 0.8059
H10_13 H 0.7646 0.7610 0.7831
N6_14 N 0.88711(19) 0.98175(28) 0.7530(3)
H11_14 H 0.8830 0.9914 0.7847
C1_13 C 0.7260(3) 0.9183(4) 0.5553(4)
C2_13 C 0.6931(3) 0.7699(4) 0.5335(4)
H13_13 H 0.6850 0.7737 0.4972
H14_13 H 0.6718 0.7441 0.5474
C3_13 C 0.6965(3) 0.8023(4) 0.5695(3)
C4_13 C 0.8119(3) 0.8907(4) 0.5312(3)
C5_14 C 0.7405(3) 0.9361(4) 0.8224(4)
H15_14 H 0.7414 0.9617 0.8287
H16_14 H 0.7525 0.9307 0.8542
C6_14 C 0.7659(3) 0.9404(4) 0.7728(3)
C7_14 C 0.7552(3) 0.8016(4) 0.8161(4)
H17_14 H 0.7319 0.7781 0.8321
H18_14 H 0.7714 0.8190 0.8461
C8_14 C 0.7403(2) 0.8242(4) 0.7817(3)
C9_14 C 0.8876(3) 0.9444(4) 0.7634(4)
H19_14 H 0.9120 0.9466 0.7474
H20_14 H 0.8888 0.9411 0.8028
C10_14 C 0.8508(2) 0.9067(4) 0.7403(3)
C11_13 C 0.5822(3) 0.8024(4) 0.6277(4)
H21_13 H 0.5590 0.7834 0.6462
C12_13 C 0.8414(3) 0.7760(4) 0.7127(4)
H22_13 H 0.8501 0.7597 0.6961
C14_13 C 0.8306(3) 0.9226(4) 0.4838(4)
H24_13 H 0.8101 0.9160 0.4558
H25_13 H 0.8527 0.9206 0.4672
C15_13 C 0.6881(3) 0.9129(4) 0.5312(4)
H26_13 H 0.6863 0.9044 0.4932
H27_13 H 0.6886 0.9386 0.5315
O34_10 O 0.54620(22) 0.73231(27) 0.4267(3)
O35_10 O 0.5112(2) 0.78728(34) 0.4269(2)
H30_12 H 0.83052 0.797649 0.604096
H31_12 H 0.821165 0.791346 0.538757
H32_14 H 0.618907 0.836526 0.735732
H33_14 H 0.6271 0.833326 0.800409
H34_13 H 0.473136 0.685753 0.492608
H35_13 H 0.470127 0.708103 0.437538
H36_13 H 0.627099 0.789532 0.50651
H37_13 H 0.602214 0.745604 0.476694
H38_13 H 0.48923 0.750198 0.595787
H39_13 H 0.462295 0.750355 0.544234
H40_13 H 0.553845 0.714053 0.56486
H41_13 H 0.509213 0.687901 0.537289
H42_13 H 0.532181 0.839089 0.546009
H43_13 H 0.528018 0.841369 0.479998
H44_13 H 0.605195 0.852416 0.460916
H45_13 H 0.596004 0.821742 0.409687
O20_13 O 0.21555(22) 0.02440(15) 0.5760(2)
O24_14 O 0.21553(23) 0.03519(16) 0.6857(2)
H9_14 H 0.2054 0.0071 0.8059
H10_14 H 0.2390 0.0037 0.7831
C12_14 C 0.2240(4) 0.0655(3) 0.7127(4)
H22_14 H 0.2403 0.0905 0.6961
H30_13 H 0.202351 0.032871 0.604096
H31_13 H 0.208654 0.0298189 0.538757
Tb1_14 Tb 0.119853(16) 0.884457(11) 0.658498(13)
Tb2_11 Tb 0.228779(17) 0.770203(12) 0.499679(16)
Cu1_14 Cu 0.13993(4) 0.80745(3) 0.62328(4)
Cu2_14 Cu 0.19582(4) 0.96517(3) 0.58391(4)
Cu3_14 Cu 0.03832(4) 0.85844(3) 0.57221(4)
Cu4_15 Cu 0.12811(4) 0.82085(3) 0.75251(3)
Cu5_15 Cu 0.18659(4) 0.98012(3) 0.71443(4)
Cu6_15 Cu 0.02734(4) 0.87159(3) 0.70068(4)
O1_14 O 0.10168(20) 0.82546(14) 0.59791(18)
O2_14 O 0.05733(26) 0.81501(18) 0.5320(2)
O3_14 O 0.17724(19) 0.90675(13) 0.59543(19)
O4_14 O 0.19254(23) 0.85936(17) 0.5729(2)
O5_14 O 0.09598(19) 0.90146(13) 0.57459(17)
O6_14 O 0.14405(24) 0.94934(17) 0.5233(2)
O7_15 O 0.08845(20) 0.83850(14) 0.73833(18)
O8_15 O 0.03045(25) 0.83106(18) 0.7696(2)
O9_15 O 0.16707(19) 0.92192(14) 0.73285(18)
O10_15 O 0.16667(22) 0.88271(16) 0.80021(18)
O11_15 O 0.08563(21) 0.91352(15) 0.70969(19)
O12_15 O 0.12693(23) 0.97263(17) 0.7498(2)
O13_15 O 0.15264(19) 0.84645(14) 0.68287(17)
O14_14 O 0.15966(18) 0.95814(13) 0.64414(17)
O15_14 O 0.04766(20) 0.84759(14) 0.64712(17)
O16_15 O 0.08562(25) 0.76003(18) 0.6907(3)
O17_14 O 0.2473(3) 0.9789(2) 0.6587(3)
O18_14 O 0.02466(25) 0.91142(19) 0.6185(2)
O19_15 O 0.16855(22) 0.80416(17) 0.7625(2)
O22_14 O 0.17525(23) 0.78936(17) 0.65602(19)
O23_14 O 0.19533(23) 0.77584(17) 0.5767(2)
O28_14 O 0.28941(27) 0.7635(2) 0.4780(3)
O29_14 O 0.23750(25) 0.83951(17) 0.5077(3)
O30_14 O 0.17457(28) 0.7756(2) 0.4499(3)
O31_14 O 0.16181(27) 0.70575(18) 0.5100(3)
O32_14 O 0.2347(3) 0.7240(2) 0.5625(3)
O33_14 O 0.2865(3) 0.8145(2) 0.5569(3)
N1_14 N 0.1173(3) 0.7696(2) 0.5609(3)
H1_14 H 0.1057 0.7439 0.5733
H2_14 H 0.1375 0.7736 0.5379
N2_14 N 0.2319(3) 0.9622(2) 0.5286(3)
H3_14 H 0.2576 0.9825 0.5339
H4_14 H 0.2241 0.9649 0.4947
N3_14 N 0.0363(3) 0.8820(2) 0.5013(3)
H5_14 H 0.0234 0.8963 0.5049
H6_14 H 0.0229 0.8622 0.4764
N4_15 N 0.09507(28) 0.7945(2) 0.8180(2)
H7_15 H 0.1108 0.8030 0.8482
H8_15 H 0.0840 0.7674 0.8154
N5_15 N 0.2118(3) 0.9908(2) 0.7868(3)
N6_15 N 0.01825(28) 0.9054(2) 0.7530(3)
H11_15 H 0.0086 0.8917 0.7847
C1_14 C 0.0817(4) 0.8078(3) 0.5553(4)
C2_14 C 0.2301(4) 0.9233(3) 0.5335(4)
H13_14 H 0.2263 0.9114 0.4972
H14_14 H 0.2559 0.9278 0.5474
C3_14 C 0.1977(4) 0.8943(3) 0.5695(3)
C4_14 C 0.1093(4) 0.9213(3) 0.5312(3)
C5_15 C 0.0639(4) 0.8045(3) 0.8224(4)
H15_15 H 0.0383 0.7798 0.8287
H16_15 H 0.0693 0.8219 0.8542
C6_15 C 0.0596(4) 0.8256(3) 0.7728(3)
C7_15 C 0.1984(4) 0.9537(3) 0.8161(4)
H17_15 H 0.2219 0.9539 0.8321
H18_15 H 0.1810 0.9525 0.8461
C8_15 C 0.1758(4) 0.9162(3) 0.7817(3)
C9_15 C 0.0556(4) 0.9433(3) 0.7634(4)
H19_15 H 0.0534 0.9655 0.7474
H20_15 H 0.0589 0.9478 0.8028
C10_15 C 0.0933(4) 0.9442(3) 0.7403(3)
C11_14 C 0.1976(4) 0.7799(3) 0.6277(4)
H21_14 H 0.2166 0.7757 0.6462
C14_14 C 0.0774(4) 0.9081(3) 0.4838(4)
H24_14 H 0.0840 0.8942 0.4558
H25_14 H 0.0794 0.9322 0.4672
C15_14 C 0.0871(4) 0.7753(3) 0.5312(4)
H26_14 H 0.0956 0.7820 0.4932
H27_14 H 0.0614 0.7501 0.5315
O34_11 O 0.26769(27) 0.81388(16) 0.4267(3)
O35_11 O 0.21272(34) 0.72388(27) 0.4269(2)
H32_15 H 0.163474 0.782381 0.735732
H33_15 H 0.166674 0.793774 0.800409
H34_14 H 0.314247 0.787384 0.492608
H35_14 H 0.291897 0.762024 0.437538
H36_14 H 0.210468 0.837567 0.50651
H37_14 H 0.254396 0.856611 0.476694
H38_14 H 0.249802 0.739033 0.595787
H39_14 H 0.249645 0.71194 0.544234
H40_14 H 0.285947 0.839792 0.56486
H41_14 H 0.312099 0.821312 0.537289
H42_14 H 0.160911 0.693092 0.546009
H43_14 H 0.158631 0.686648 0.479998
H44_14 H 0.147584 0.752779 0.460916
H45_14 H 0.178258 0.774262 0.409687
O21_13 O 0.98132(26) 0.81506(18) 0.5761(2)
O26_14 O 0.97211(25) 0.83115(18) 0.6785(2)
H12_14 H 0.9994 0.9108 0.7394
C13_14 C 0.9433(4) 0.8131(3) 0.7113(4)
H23_14 H 0.9200 0.7906 0.6978
H28_13 H 0.971135 0.805015 0.538463
H29_13 H 0.964807 0.825826 0.592887
O19_16 O 0.52918(17) 0.03106(14) 0.4291(2)
O22_15 O 0.54398(17) 0.05256(15) 0.32268(19)
O23_15 O 0.55750(17) 0.08616(16) 0.2433(2)
O28_15 O 0.5699(2) 0.19261(18) 0.1446(3)
O29_15 O 0.49383(17) 0.06466(18) 0.1743(3)
O30_15 O 0.5578(2) 0.06567(19) 0.1165(3)
O31_15 O 0.62759(18) 0.1227(2) 0.1766(3)
O32_15 O 0.6094(2) 0.1774(2) 0.2291(3)
O33_15 O 0.5189(2) 0.1387(2) 0.2235(3)
N1_15 N 0.5638(2) 0.0144(2) 0.2275(3)
H1_15 H 0.5895 0.0285 0.2399
H2_15 H 0.5598 0.0306 0.2045
C11_15 C 0.5535(3) 0.0844(3) 0.2943(4)
H21_15 H 0.5577 0.1076 0.3128
H32_16 H 0.550953 0.04776 0.402399
H33_16 H 0.539559 0.0395662 0.467076
H34_15 H 0.54595 0.19353 0.159274
H35_15 H 0.571309 0.196539 0.104205
H36_15 H 0.495767 0.0395677 0.173177
H37_15 H 0.476723 0.0644523 0.14336
H38_15 H 0.594301 0.177436 0.262454
H39_15 H 0.621394 0.204372 0.210901
H40_15 H 0.493542 0.112822 0.231527
H41_15 H 0.512021 0.157453 0.203955
H42_15 H 0.640242 0.134486 0.212675
H43_15 H 0.646685 0.138649 0.146664
H44_15 H 0.580554 0.0614714 0.127583
H45_15 H 0.559071 0.070663 0.0763542
Tb1_15 Tb 0.448877(11) 0.902063(11) 0.325164(13)
Cu1_15 Cu 0.52589(3) 0.99915(3) 0.28994(4)
Cu2_15 Cu 0.36817(3) 0.89732(3) 0.25057(4)
Cu3_15 Cu 0.47490(3) 0.84655(3) 0.23887(4)
Cu4_16 Cu 0.51249(3) 0.97393(3) 0.41917(3)
Cu5_16 Cu 0.35322(3) 0.87314(3) 0.38109(4)
Cu6_16 Cu 0.46175(3) 0.82242(3) 0.36734(4)
O1_15 O 0.50788(14) 0.94289(14) 0.26457(18)
O2_15 O 0.51833(18) 0.90899(19) 0.1986(2)
O3_15 O 0.42659(13) 0.93716(14) 0.26209(19)
O4_15 O 0.47398(17) 0.99985(16) 0.2395(2)
O5_15 O 0.43188(13) 0.86119(14) 0.24125(17)
O6_15 O 0.38400(17) 0.86138(17) 0.1899(2)
O7_16 O 0.49484(14) 0.91662(14) 0.40499(18)
O8_16 O 0.50228(18) 0.86606(17) 0.4362(2)
O9_16 O 0.41142(14) 0.91182(13) 0.39951(18)
O10_16 O 0.45063(16) 0.95063(15) 0.46687(18)
O11_16 O 0.41982(15) 0.83878(14) 0.37635(19)
O12_16 O 0.36071(17) 0.82097(16) 0.4164(2)
O13_16 O 0.48689(14) 0.97286(13) 0.34953(17)
O14_15 O 0.37520(13) 0.86819(13) 0.31080(17)
O15_15 O 0.48575(14) 0.86674(14) 0.31378(17)
O16_16 O 0.57331(18) 0.99226(18) 0.3573(3)
O17_15 O 0.3545(2) 0.9351(2) 0.3253(3)
O18_15 O 0.42192(19) 0.77991(17) 0.2851(2)
O20_14 O 0.30894(15) 0.85782(16) 0.2426(2)
O21_14 O 0.51828(18) 0.83293(19) 0.2427(2)
O24_15 O 0.29815(16) 0.84701(17) 0.3523(2)
O26_15 O 0.50219(18) 0.80763(18) 0.3451(2)
N2_15 N 0.3712(2) 0.9364(2) 0.1952(3)
H3_15 H 0.3509 0.9418 0.2005
H4_15 H 0.3685 0.9259 0.1613
N3_15 N 0.4514(2) 0.8210(2) 0.1679(3)
H5_15 H 0.4371 0.7938 0.1715
H6_15 H 0.4712 0.8274 0.1430
N4_16 N 0.5389(2) 0.96727(19) 0.4846(2)
H7_16 H 0.5304 0.9745 0.5148
H8_16 H 0.5660 0.9833 0.4820
N5_16 N 0.3426(2) 0.8877(2) 0.4534(3)
H9_15 H 0.3263 0.8650 0.4725
H10_15 H 0.3297 0.9020 0.4497
N6_16 N 0.4280(2) 0.77955(19) 0.4196(3)
H11_16 H 0.4417 0.7836 0.4513
H12_15 H 0.4226 0.7553 0.4060
C1_15 C 0.5256(3) 0.9406(3) 0.2219(4)
C2_15 C 0.4101(3) 0.9735(3) 0.2001(4)
H13_15 H 0.4220 0.9816 0.1638
H14_15 H 0.4056 0.9948 0.2140
C3_15 C 0.4391(3) 0.9701(3) 0.2361(3)
C4_15 C 0.4121(3) 0.8547(3) 0.1978(3)
C5_16 C 0.5289(3) 0.9261(3) 0.4890(4)
H15_16 H 0.5536 0.9252 0.4953
H16_16 H 0.5115 0.9141 0.5208
C6_16 C 0.5078(3) 0.9007(3) 0.4394(3)
C7_16 C 0.3797(3) 0.9114(3) 0.4827(4)
H17_16 H 0.3795 0.9347 0.4987
H18_16 H 0.3809 0.8952 0.5127
C8_16 C 0.4172(3) 0.9263(2) 0.4483(3)
C9_16 C 0.3901(3) 0.7790(3) 0.4300(4)
H19_16 H 0.3679 0.7546 0.4140
H20_16 H 0.3856 0.7778 0.4694
C10_16 C 0.3892(3) 0.8158(2) 0.4069(3)
C12_15 C 0.2679(3) 0.8252(3) 0.3793(4)
H22_15 H 0.2429 0.8165 0.3627
C13_15 C 0.5203(3) 0.7969(3) 0.3779(4)
H23_15 H 0.5428 0.7961 0.3644
C14_15 C 0.4253(3) 0.8360(3) 0.1504(4)
H24_15 H 0.4392 0.8565 0.1224
H25_15 H 0.4012 0.8139 0.1338
C15_15 C 0.5581(3) 0.9785(3) 0.1978(4)
H26_15 H 0.5514 0.9803 0.1598
H27_15 H 0.5833 0.9780 0.1981
H28_14 H 0.528319 0.832787 0.20513
H29_14 H 0.507507 0.805648 0.259554
H30_14 H 0.300462 0.836147 0.270762
H31_14 H 0.303514 0.845502 0.205423
Tb1_16 Tb 0.097937(11) 0.546813(16) 0.325164(13)
Cu1_16 Cu 0.00085(3) 0.52673(4) 0.28994(4)
Cu2_16 Cu 0.10268(3) 0.47084(4) 0.25057(4)
Cu3_16 Cu 0.15345(3) 0.62834(4) 0.23887(4)
Cu4_17 Cu 0.02607(3) 0.53855(4) 0.41917(3)
Cu5_17 Cu 0.12686(3) 0.48007(4) 0.38109(4)
Cu6_17 Cu 0.17758(3) 0.63932(4) 0.36734(4)
O1_16 O 0.05711(14) 0.56498(20) 0.26457(18)
O2_16 O 0.09101(19) 0.60933(26) 0.1986(2)
O3_16 O 0.06284(14) 0.48942(19) 0.26209(19)
O4_16 O 0.00015(16) 0.47412(23) 0.2395(2)
O5_16 O 0.13881(14) 0.57068(19) 0.24125(17)
O6_16 O 0.13862(17) 0.52261(24) 0.1899(2)
O7_17 O 0.08338(14) 0.57821(20) 0.40499(18)
O8_17 O 0.13394(17) 0.63621(25) 0.4362(2)
O9_17 O 0.08818(13) 0.49959(19) 0.39951(18)
O10_17 O 0.04937(15) 0.49999(22) 0.46687(18)
O11_17 O 0.16122(14) 0.58103(21) 0.37635(19)
O12_17 O 0.17903(16) 0.53973(23) 0.4164(2)
O13_17 O 0.02714(13) 0.51402(19) 0.34953(17)
O14_16 O 0.13181(13) 0.50700(18) 0.31080(17)
O15_16 O 0.13326(14) 0.61900(20) 0.31378(17)
O16_17 O 0.00774(18) 0.58104(25) 0.3573(3)
O17_16 O 0.0649(2) 0.4193(3) 0.3253(3)
O18_16 O 0.22009(17) 0.64200(25) 0.2851(2)
O20_15 O 0.14218(16) 0.45111(22) 0.2426(2)
O21_15 O 0.16707(19) 0.68534(26) 0.2427(2)
O24_16 O 0.15299(17) 0.45113(23) 0.3523(2)
O26_16 O 0.19237(18) 0.69455(25) 0.3451(2)
N2_16 N 0.0636(2) 0.4347(3) 0.1952(3)
H3_16 H 0.0582 0.4090 0.2005
H4_16 H 0.0741 0.4425 0.1613
N3_16 N 0.1790(2) 0.6303(3) 0.1679(3)
H5_16 H 0.2062 0.6432 0.1715
H6_16 H 0.1726 0.6437 0.1430
N4_17 N 0.03273(19) 0.57159(28) 0.4846(2)
H7_17 H 0.0255 0.5558 0.5148
H8_17 H 0.0167 0.5826 0.4820
N5_17 N 0.1123(2) 0.4548(3) 0.4534(3)
H9_16 H 0.1350 0.4612 0.4725
H10_16 H 0.0980 0.4276 0.4497
N6_17 N 0.22045(19) 0.64841(28) 0.4196(3)
H11_17 H 0.2164 0.6580 0.4513
H12_16 H 0.2447 0.6672 0.4060
C1_16 C 0.0594(3) 0.5849(4) 0.2219(4)
C2_16 C 0.0265(3) 0.4365(4) 0.2001(4)
H13_16 H 0.0184 0.4403 0.1638
H14_16 H 0.0052 0.4107 0.2140
C3_16 C 0.0299(3) 0.4689(4) 0.2361(3)
C4_16 C 0.1453(3) 0.5573(4) 0.1978(3)
C5_17 C 0.0739(3) 0.6027(4) 0.4890(4)
H15_17 H 0.0748 0.6283 0.4953
H16_17 H 0.0859 0.5973 0.5208
C6_17 C 0.0993(3) 0.6070(4) 0.4394(3)
C7_17 C 0.0886(3) 0.4682(4) 0.4827(4)
H17_17 H 0.0653 0.4447 0.4987
H18_17 H 0.1048 0.4856 0.5127
C8_17 C 0.0737(2) 0.4908(4) 0.4483(3)
C9_17 C 0.2210(3) 0.6110(4) 0.4300(4)
H19_17 H 0.2454 0.6132 0.4140
H20_17 H 0.2222 0.6077 0.4694
C10_17 C 0.1842(2) 0.5733(4) 0.4069(3)
C12_16 C 0.1748(3) 0.4426(4) 0.3793(4)
H22_16 H 0.1835 0.4263 0.3627
C13_16 C 0.2031(3) 0.7233(4) 0.3779(4)
H23_16 H 0.2039 0.7466 0.3644
C14_16 C 0.1640(3) 0.5892(4) 0.1504(4)
H24_16 H 0.1435 0.5826 0.1224
H25_16 H 0.1861 0.5872 0.1338
C15_16 C 0.0215(3) 0.5795(4) 0.1978(4)
H26_16 H 0.0197 0.5710 0.1598
H27_16 H 0.0220 0.6052 0.1981
H28_15 H 0.167213 0.695531 0.20513
H29_15 H 0.194352 0.701859 0.259554
H30_15 H 0.163853 0.464315 0.270762
H31_15 H 0.154498 0.458013 0.205423
O19_17 O 0.96894(14) 0.49811(22) 0.4291(2)
O22_16 O 0.94744(15) 0.49141(23) 0.32268(19)
O23_16 O 0.91384(16) 0.47133(23) 0.2433(2)
O28_16 O 0.80739(18) 0.37725(27) 0.1446(3)
O29_16 O 0.93534(18) 0.42916(25) 0.1743(3)
O30_16 O 0.93433(19) 0.49209(28) 0.1165(3)
O31_16 O 0.8773(2) 0.50485(27) 0.1766(3)
O32_16 O 0.8226(2) 0.4319(3) 0.2291(3)
O33_16 O 0.8613(2) 0.3801(3) 0.2235(3)
N1_16 N 0.9856(2) 0.5493(3) 0.2275(3)
H1_16 H 0.9715 0.5609 0.2399
H2_16 H 0.9694 0.5291 0.2045
C11_16 C 0.9156(3) 0.4690(4) 0.2943(4)
H21_16 H 0.8924 0.4500 0.3128
H32_17 H 0.95224 0.503193 0.402399
H33_17 H 0.960434 0.499993 0.467076
H34_16 H 0.80647 0.352419 0.159274
H35_16 H 0.803461 0.37477 0.104205
H36_16 H 0.960432 0.456199 0.173177
H37_16 H 0.935548 0.41227 0.14336
H38_16 H 0.822564 0.416864 0.262454
H39_16 H 0.795628 0.417022 0.210901
H40_16 H 0.887178 0.38072 0.231527
H41_16 H 0.842547 0.354568 0.203955
H42_16 H 0.865514 0.505756 0.212675
H43_16 H 0.861351 0.508036 0.146664
H44_16 H 0.938529 0.519083 0.127583
H45_16 H 0.929337 0.488408 0.0763542
Tb1_17 Tb 0.453187(16) 0.551123(11) 0.325164(13)
Cu1_17 Cu 0.47327(4) 0.47411(3) 0.28994(4)
Cu2_17 Cu 0.52916(4) 0.63183(3) 0.25057(4)
Cu3_17 Cu 0.37166(4) 0.52510(3) 0.23887(4)
Cu4_18 Cu 0.46145(4) 0.48751(3) 0.41917(3)
Cu5_18 Cu 0.51993(4) 0.64678(3) 0.38109(4)
Cu6_18 Cu 0.36068(4) 0.53825(3) 0.36734(4)
O1_17 O 0.43502(20) 0.49212(14) 0.26457(18)
O2_17 O 0.39067(26) 0.48167(18) 0.1986(2)
O3_17 O 0.51058(19) 0.57341(13) 0.26209(19)
O4_17 O 0.52588(23) 0.52602(17) 0.2395(2)
O5_17 O 0.42932(19) 0.56812(13) 0.24125(17)
O6_17 O 0.47739(24) 0.61600(17) 0.1899(2)
O7_18 O 0.42179(20) 0.50516(14) 0.40499(18)
O8_18 O 0.36379(25) 0.49772(18) 0.4362(2)
O9_18 O 0.50041(19) 0.58858(14) 0.39951(18)
O10_18 O 0.50001(22) 0.54937(16) 0.46687(18)
O11_18 O 0.41897(21) 0.58018(15) 0.37635(19)
O12_18 O 0.46027(23) 0.63929(17) 0.4164(2)
O13_18 O 0.48598(19) 0.51311(14) 0.34953(17)
O14_17 O 0.49300(18) 0.62480(13) 0.31080(17)
O15_17 O 0.38100(20) 0.51425(14) 0.31378(17)
O16_18 O 0.41896(25) 0.42669(18) 0.3573(3)
O17_17 O 0.5807(3) 0.6455(2) 0.3253(3)
O18_17 O 0.35800(25) 0.57808(19) 0.2851(2)
O19_18 O 0.50189(22) 0.47082(17) 0.4291(2)
O20_16 O 0.54889(22) 0.69106(15) 0.2426(2)
O21_16 O 0.31466(26) 0.48172(18) 0.2427(2)
O22_17 O 0.50859(23) 0.45602(17) 0.32268(19)
O23_17 O 0.52867(23) 0.44250(17) 0.2433(2)
O24_17 O 0.54887(23) 0.70185(16) 0.3523(2)
O26_17 O 0.30545(25) 0.49781(18) 0.3451(2)
O28_17 O 0.62275(27) 0.4301(2) 0.1446(3)
O29_17 O 0.57084(25) 0.50617(17) 0.1743(3)
O30_17 O 0.50791(28) 0.4422(2) 0.1165(3)
O31_17 O 0.49515(27) 0.37241(18) 0.1766(3)
O32_17 O 0.5681(3) 0.3906(2) 0.2291(3)
O33_17 O 0.6199(3) 0.4811(2) 0.2235(3)
N1_17 N 0.4507(3) 0.4362(2) 0.2275(3)
H1_17 H 0.4391 0.4105 0.2399
H2_17 H 0.4709 0.4402 0.2045
N2_17 N 0.5653(3) 0.6288(2) 0.1952(3)
H3_17 H 0.5910 0.6491 0.2005
H4_17 H 0.5575 0.6315 0.1613
N3_17 N 0.3697(3) 0.5486(2) 0.1679(3)
H5_17 H 0.3568 0.5629 0.1715
H6_17 H 0.3563 0.5288 0.1430
N4_18 N 0.42841(28) 0.4611(2) 0.4846(2)
H7_18 H 0.4442 0.4696 0.5148
H8_18 H 0.4174 0.4340 0.4820
N5_18 N 0.5452(3) 0.6574(2) 0.4534(3)
H9_17 H 0.5388 0.6737 0.4725
H10_17 H 0.5724 0.6703 0.4497
N6_18 N 0.35159(28) 0.5720(2) 0.4196(3)
H11_18 H 0.3420 0.5583 0.4513
H12_17 H 0.3328 0.5774 0.4060
C1_17 C 0.4151(4) 0.4744(3) 0.2219(4)
C2_17 C 0.5635(4) 0.5899(3) 0.2001(4)
H13_17 H 0.5597 0.5780 0.1638
H14_17 H 0.5893 0.5944 0.2140
C3_17 C 0.5311(4) 0.5609(3) 0.2361(3)
C4_17 C 0.4427(4) 0.5879(3) 0.1978(3)
C5_18 C 0.3973(4) 0.4711(3) 0.4890(4)
H15_18 H 0.3717 0.4464 0.4953
H16_18 H 0.4027 0.4885 0.5208
C6_18 C 0.3930(4) 0.4922(3) 0.4394(3)
C7_18 C 0.5318(4) 0.6203(3) 0.4827(4)
H17_18 H 0.5553 0.6205 0.4987
H18_18 H 0.5144 0.6191 0.5127
C8_18 C 0.5092(4) 0.5828(3) 0.4483(3)
C9_18 C 0.3890(4) 0.6099(3) 0.4300(4)
H19_18 H 0.3868 0.6321 0.4140
H20_18 H 0.3923 0.6144 0.4694
C10_18 C 0.4267(4) 0.6108(3) 0.4069(3)
C11_17 C 0.5310(4) 0.4465(3) 0.2943(4)
H21_17 H 0.5500 0.4423 0.3128
C12_17 C 0.5574(4) 0.7321(3) 0.3793(4)
H22_17 H 0.5737 0.7571 0.3627
C13_17 C 0.2767(4) 0.4797(3) 0.3779(4)
H23_17 H 0.2534 0.4572 0.3644
C14_17 C 0.4108(4) 0.5747(3) 0.1504(4)
H24_17 H 0.4174 0.5608 0.1224
H25_17 H 0.4128 0.5988 0.1338
C15_17 C 0.4205(4) 0.4419(3) 0.1978(4)
H26_17 H 0.4290 0.4486 0.1598
H27_17 H 0.3948 0.4167 0.1981
H28_16 H 0.304469 0.471681 0.20513
H29_16 H 0.298141 0.492493 0.259554
H30_16 H 0.535685 0.699538 0.270762
H31_16 H 0.541987 0.696486 0.205423
H32_18 H 0.496807 0.449047 0.402399
H33_18 H 0.500007 0.460441 0.467076
H34_17 H 0.647581 0.45405 0.159274
H35_17 H 0.62523 0.428691 0.104205
H36_17 H 0.543801 0.504233 0.173177
H37_17 H 0.58773 0.523277 0.14336
H38_17 H 0.583136 0.405699 0.262454
H39_17 H 0.582978 0.378606 0.210901
H40_17 H 0.61928 0.506458 0.231527
H41_17 H 0.645432 0.487979 0.203955
H42_17 H 0.494244 0.359758 0.212675
H43_17 H 0.491964 0.353315 0.146664
H44_17 H 0.480917 0.419446 0.127583
H45_17 H 0.511592 0.440929 0.0763542
Tb1_18 Tb 0.786520(16) 0.217790(11) 0.991831(13)
Tb2_12 Tb 0.895446(17) 0.103536(12) 0.833012(16)
Cu1_18 Cu 0.80660(4) 0.14078(3) 0.95661(4)
Cu2_18 Cu 0.86249(4) 0.29850(3) 0.91724(4)
Cu3_18 Cu 0.70499(4) 0.19177(3) 0.90554(4)
O1_18 O 0.76835(20) 0.15879(14) 0.93124(18)
O2_18 O 0.72400(26) 0.14834(18) 0.8653(2)
O3_18 O 0.84391(19) 0.24008(13) 0.92876(19)
O4_18 O 0.85921(23) 0.19269(17) 0.9062(2)
O5_18 O 0.76265(19) 0.23479(13) 0.90792(17)
O6_18 O 0.81072(24) 0.28267(17) 0.8566(2)
O14_18 O 0.82633(18) 0.29147(13) 0.97747(17)
O15_18 O 0.71433(20) 0.18092(14) 0.98045(17)
O17_18 O 0.9140(3) 0.3122(2) 0.9920(3)
O18_18 O 0.69133(25) 0.24475(19) 0.9518(2)
O20_17 O 0.88222(22) 0.35773(15) 0.9093(2)
O21_17 O 0.64799(26) 0.14839(18) 0.9094(2)
O22_18 O 0.84192(23) 0.12269(17) 0.98935(19)
O23_18 O 0.86200(23) 0.10917(17) 0.9100(2)
O28_18 O 0.95608(27) 0.0968(2) 0.8113(3)
O29_18 O 0.90417(25) 0.17284(17) 0.8410(3)
O30_18 O 0.84124(28) 0.1089(2) 0.7832(3)
O31_18 O 0.82848(27) 0.03908(18) 0.8433(3)
O32_18 O 0.9014(3) 0.0573(2) 0.8958(3)
O33_18 O 0.9532(3) 0.1478(2) 0.8902(3)
N1_18 N 0.7840(3) 0.1029(2) 0.8942(3)
H1_18 H 0.7724 0.0772 0.9066
H2_18 H 0.8042 0.1069 0.8712
N2_18 N 0.8986(3) 0.2955(2) 0.8619(3)
H3_18 H 0.9243 0.3158 0.8672
H4_18 H 0.8908 0.2982 0.8280
N3_18 N 0.7030(3) 0.2153(2) 0.8346(3)
H5_18 H 0.6901 0.2296 0.8382
H6_18 H 0.6896 0.1955 0.8097
C1_18 C 0.7484(4) 0.1411(3) 0.8886(4)
C2_18 C 0.8968(4) 0.2566(3) 0.8668(4)
H13_18 H 0.8930 0.2447 0.8305
H14_18 H 0.9226 0.2611 0.8807
C3_18 C 0.8644(4) 0.2276(3) 0.9028(3)
C4_18 C 0.7760(4) 0.2546(3) 0.8645(3)
C11_18 C 0.8643(4) 0.1132(3) 0.9610(4)
H21_18 H 0.8833 0.1090 0.9795
C14_18 C 0.7441(4) 0.2414(3) 0.8171(4)
H24_18 H 0.7507 0.2275 0.7891
H25_18 H 0.7461 0.2655 0.8005
C15_18 C 0.7538(4) 0.1086(3) 0.8645(4)
H26_18 H 0.7623 0.1153 0.8265
H27_18 H 0.7281 0.0834 0.8648
O34_12 O 0.93435(27) 0.14722(16) 0.7601(3)
O35_12 O 0.87938(34) 0.05722(27) 0.7603(2)
H28_17 H 0.637802 0.138348 0.871797
H29_17 H 0.631474 0.15916 0.926221
H30_17 H 0.869018 0.366204 0.937429
H31_17 H 0.87532 0.363152 0.87209
H34_18 H 0.980914 0.120717 0.825941
H35_18 H 0.958563 0.0953574 0.770871
H36_18 H 0.877134 0.1709 0.839844
H37_18 H 0.921063 0.189944 0.810027
H38_18 H 0.916469 0.072366 0.92912
H39_18 H 0.916311 0.045273 0.877568
H40_18 H 0.952613 0.173125 0.898193
H41_18 H 0.978765 0.154645 0.870622
H42_18 H 0.827577 0.0264251 0.879342
H43_18 H 0.825297 0.0199815 0.813331
H44_18 H 0.814251 0.0861127 0.79425
H45_18 H 0.844925 0.107595 0.743021
O20_18 O 0.97560(15) 0.19116(16) 0.5760(2)
O24_18 O 0.96481(16) 0.18035(17) 0.6857(2)
H9_18 H 0.9929 0.1984 0.8059
H10_18 H 0.9963 0.2354 0.7831
C12_18 C 0.9345(3) 0.1586(3) 0.7127(4)
H22_18 H 0.9095 0.1499 0.6961
H30_18 H 0.967129 0.16948 0.604096
H31_18 H 0.970181 0.178835 0.538757
O21_18 O 0.83373(19) 0.01868(26) 0.5761(2)
O26_18 O 0.85903(18) 0.02789(25) 0.6785(2)
H12_18 H 0.9113 0.0006 0.7394
C13_18 C 0.8697(3) 0.0567(4) 0.7113(4)
H23_18 H 0.8705 0.0800 0.6978
H28_18 H 0.83388 0.0288648 0.538463
H29_18 H 0.861019 0.0351928 0.592887
loop_
_geom_bond_atom_site_label_1
_geom_bond_atom_site_label_2
_geom_bond_site_symmetry_1
_geom_bond_site_symmetry_2
Tb1 O1 1_555 1_555
Tb2 O23 1_555 1_555
Cu1 O1 1_555 1_555
Cu2 O3 1_555 1_555
Cu3 O2 1_555 1_555
O1 C1 1_555 1_555
O2 C1 1_555 1_555
O3 Tb1 1_555 1_555
O4 Cu1 1_555 1_555
O5 Tb1 1_555 1_555
O6 Cu2 1_555 1_555
O14 Tb1 1_555 1_555
O15 Tb1 1_555 1_555
O17 Cu2 1_555 1_555
O18 Cu3 1_555 1_555
O20 Cu2 1_555 1_555
O21 Cu3 1_555 1_555
O22 Cu1 1_555 1_555
O23 C11 1_555 1_555
O28 Tb2 1_555 1_555
O29 Tb2 1_555 1_555
O30 Tb2 1_555 1_555
O31 Tb2 1_555 1_555
O32 Tb2 1_555 1_555
O33 Tb2 1_555 1_555
N1 Cu1 1_555 1_555
H1 N1 1_555 1_555
H2 N1 1_555 1_555
N2 Cu2 1_555 1_555
H3 N2 1_555 1_555
H4 N2 1_555 1_555
N3 Cu3 1_555 1_555
H5 N3 1_555 1_555
H6 N3 1_555 1_555
C1 C15 1_555 1_555
C2 N2 1_555 1_555
H13 C2 1_555 1_555
H14 C2 1_555 1_555
C3 O3 1_555 1_555
C4 O5 1_555 1_555
C11 O22 1_555 1_555
H21 C11 1_555 1_555
C14 N3 1_555 1_555
H24 C14 1_555 1_555
H25 C14 1_555 1_555
C15 N1 1_555 1_555
H26 C15 1_555 1_555
H27 C15 1_555 1_555
O34 Tb2 1_555 1_555
O35 Tb2 1_555 1_555
Cu2 O14 1_555 1_555
Cu3 O5 1_555 1_555
Cu3 O15 1_555 1_555
O4 C3 1_555 1_555
O6 C4 1_555 1_555
C2 C3 1_555 1_555
C4 C14 1_555 1_555
O21 H28 1_555 1_555
O21 H29 1_555 1_555
O20 H30 1_555 1_555
O20 H31 1_555 1_555
O28 H34 1_555 1_555
O28 H35 1_555 1_555
O29 H36 1_555 1_555
O29 H37 1_555 1_555
O32 H38 1_555 1_555
O32 H39 1_555 1_555
O33 H40 1_555 1_555
O33 H41 1_555 1_555
O31 H42 1_555 1_555
O31 H43 1_555 1_555
O30 H44 1_555 1_555
O30 H45 1_555 1_555
Cu4 O7 1_555 1_555
Cu5 O9 1_555 1_555
Cu6 O8 1_555 1_555
O8 C6 1_555 1_555
O10 Cu4 1_555 1_555
O12 Cu5 1_555 1_555
O19 Cu4 1_555 1_555
O24 Cu5 1_555 1_555
O25 C12 1_555 1_555
O26 Cu6 1_555 1_555
O27 C13 1_555 1_555
N4 Cu4 1_555 1_555
H7 N4 1_555 1_555
H8 N4 1_555 1_555
N5 Cu5 1_555 1_555
H9 N5 1_555 1_555
H10 N5 1_555 1_555
N6 Cu6 1_555 1_555
H11 N6 1_555 1_555
H12 N6 1_555 1_555
C5 N4 1_555 1_555
H15 C5 1_555 1_555
H16 C5 1_555 1_555
C6 O7 1_555 1_555
C7 N5 1_555 1_555
H17 C7 1_555 1_555
H18 C7 1_555 1_555
C8 O9 1_555 1_555
C9 N6 1_555 1_555
H19 C9 1_555 1_555
H20 C9 1_555 1_555
C10 O11 1_555 1_555
C12 O24 1_555 1_555
H22 C12 1_555 1_555
C13 O26 1_555 1_555
H23 C13 1_555 1_555
Tb3 O27 1_555 1_555
Tb4 O25 1_555 1_555
Cu4 O13 1_555 1_555
Cu4 O16 1_555 1_555
Cu6 O11 1_555 1_555
O10 C8 1_555 1_555
O12 C10 1_555 1_555
C5 C6 1_555 1_555
C7 C8 1_555 1_555
C9 C10 1_555 1_555
O19 H32 1_555 1_555
O19 H33 1_555 1_555
Tb1_2 O1_2 1_555 1_555
Tb2_2 O23_2 1_555 1_555
Cu1_2 O1_2 1_555 1_555
Cu2_2 O3_2 1_555 1_555
Cu3_2 O2_2 1_555 1_555
O1_2 C1_2 1_555 1_555
O2_2 C1_2 1_555 1_555
O3_2 Tb1_2 1_555 1_555
O4_2 Cu1_2 1_555 1_555
O5_2 Tb1_2 1_555 1_555
O6_2 Cu2_2 1_555 1_555
O14_2 Tb1_2 1_555 1_555
O15_2 Tb1_2 1_555 1_555
O17_2 Cu2_2 1_555 1_555
O18_2 Cu3_2 1_555 1_555
O20_2 Cu2_2 1_555 1_555
O21_2 Cu3_2 1_555 1_555
O22_2 Cu1_2 1_555 1_555
O23_2 C11_2 1_555 1_555
O28_2 Tb2_2 1_555 1_555
O29_2 Tb2_2 1_555 1_555
O30_2 Tb2_2 1_555 1_555
O31_2 Tb2_2 1_555 1_555
O32_2 Tb2_2 1_555 1_555
O33_2 Tb2_2 1_555 1_555
N1_2 Cu1_2 1_555 1_555
H1_2 N1_2 1_555 1_555
H2_2 N1_2 1_555 1_555
N2_2 Cu2_2 1_555 1_555
H3_2 N2_2 1_555 1_555
H4_2 N2_2 1_555 1_555
N3_2 Cu3_2 1_555 1_555
H5_2 N3_2 1_555 1_555
H6_2 N3_2 1_555 1_555
C1_2 C15_2 1_555 1_555
C2_2 N2_2 1_555 1_555
H13_2 C2_2 1_555 1_555
H14_2 C2_2 1_555 1_555
C3_2 O3_2 1_555 1_555
C4_2 O5_2 1_555 1_555
C11_2 O22_2 1_555 1_555
H21_2 C11_2 1_555 1_555
C14_2 N3_2 1_555 1_555
H24_2 C14_2 1_555 1_555
H25_2 C14_2 1_555 1_555
C15_2 N1_2 1_555 1_555
H26_2 C15_2 1_555 1_555
H27_2 C15_2 1_555 1_555
O34_2 Tb2_2 1_555 1_555
O35_2 Tb2_2 1_555 1_555
Cu2_2 O14_2 1_555 1_555
Cu3_2 O5_2 1_555 1_555
Cu3_2 O15_2 1_555 1_555
O4_2 C3_2 1_555 1_555
O6_2 C4_2 1_555 1_555
C2_2 C3_2 1_555 1_555
C4_2 C14_2 1_555 1_555
O21_2 H28_2 1_555 1_555
O21_2 H29_2 1_555 1_555
O20_2 H30_2 1_555 1_555
O20_2 H31_2 1_555 1_555
O28_2 H34_2 1_555 1_555
O28_2 H35_2 1_555 1_555
O29_2 H36_2 1_555 1_555
O29_2 H37_2 1_555 1_555
O32_2 H38_2 1_555 1_555
O32_2 H39_2 1_555 1_555
O33_2 H40_2 1_555 1_555
O33_2 H41_2 1_555 1_555
O31_2 H42_2 1_555 1_555
O31_2 H43_2 1_555 1_555
O30_2 H44_2 1_555 1_555
O30_2 H45_2 1_555 1_555
Cu4_2 O7_2 1_555 1_555
Cu5_2 O9_2 1_555 1_555
Cu6_2 O8_2 1_555 1_555
O8_2 C6_2 1_555 1_555
O10_2 Cu4_2 1_555 1_555
O12_2 Cu5_2 1_555 1_555
O19_2 Cu4_2 1_555 1_555
O24_2 Cu5_2 1_555 1_555
O25_2 C12_2 1_555 1_555
O26_2 Cu6_2 1_555 1_555
O27_2 C13_2 1_555 1_555
N4_2 Cu4_2 1_555 1_555
H7_2 N4_2 1_555 1_555
H8_2 N4_2 1_555 1_555
N5_2 Cu5_2 1_555 1_555
H9_2 N5_2 1_555 1_555
H10_2 N5_2 1_555 1_555
N6_2 Cu6_2 1_555 1_555
H11_2 N6_2 1_555 1_555
H12_2 N6_2 1_555 1_555
C5_2 N4_2 1_555 1_555
H15_2 C5_2 1_555 1_555
H16_2 C5_2 1_555 1_555
C6_2 O7_2 1_555 1_555
C7_2 N5_2 1_555 1_555
H17_2 C7_2 1_555 1_555
H18_2 C7_2 1_555 1_555
C8_2 O9_2 1_555 1_555
C9_2 N6_2 1_555 1_555
H19_2 C9_2 1_555 1_555
H20_2 C9_2 1_555 1_555
C10_2 O11_2 1_555 1_555
C12_2 O24_2 1_555 1_555
H22_2 C12_2 1_555 1_555
C13_2 O26_2 1_555 1_555
H23_2 C13_2 1_555 1_555
Tb4 O27_2 1_555 1_555
Tb4_2 O25_2 1_555 1_555
Cu4_2 O13_2 1_555 1_555
Cu4_2 O16_2 1_555 1_555
Cu6_2 O11_2 1_555 1_555
O10_2 C8_2 1_555 1_555
O12_2 C10_2 1_555 1_555
C5_2 C6_2 1_555 1_555
C7_2 C8_2 1_555 1_555
C9_2 C10_2 1_555 1_555
O19_2 H32_2 1_555 1_555
O19_2 H33_2 1_555 1_555
Cu4_3 O7_3 1_555 1_555
Cu5_3 O9_3 1_555 1_555
Cu6_3 O8_3 1_555 1_555
O8_3 C6_3 1_555 1_555
O10_3 Cu4_3 1_555 1_555
O12_3 Cu5_3 1_555 1_555
O19_3 Cu4_3 1_555 1_555
O24_3 Cu5_3 1_555 1_555
O25_3 C12_3 1_555 1_555
O26_3 Cu6_3 1_555 1_555
O27_3 C13_3 1_555 1_555
N4_3 Cu4_3 1_555 1_555
H7_3 N4_3 1_555 1_555
H8_3 N4_3 1_555 1_555
N5_3 Cu5_3 1_555 1_555
H9_3 N5_3 1_555 1_555
H10_3 N5_3 1_555 1_555
N6_3 Cu6_3 1_555 1_555
H11_3 N6_3 1_555 1_555
H12_3 N6_3 1_555 1_555
C5_3 N4_3 1_555 1_555
H15_3 C5_3 1_555 1_555
H16_3 C5_3 1_555 1_555
C6_3 O7_3 1_555 1_555
C7_3 N5_3 1_555 1_555
H17_3 C7_3 1_555 1_555
H18_3 C7_3 1_555 1_555
C8_3 O9_3 1_555 1_555
C9_3 N6_3 1_555 1_555
H19_3 C9_3 1_555 1_555
H20_3 C9_3 1_555 1_555
C10_3 O11_3 1_555 1_555
C12_3 O24_3 1_555 1_555
H22_3 C12_3 1_555 1_555
C13_3 O26_3 1_555 1_555
H23_3 C13_3 1_555 1_555
Tb4_2 O27_3 1_555 1_555
Tb3 O25_3 1_555 1_555
Cu4_3 O13_3 1_555 1_555
Cu4_3 O16_3 1_555 1_555
Cu6_3 O11_3 1_555 1_555
O10_3 C8_3 1_555 1_555
O12_3 C10_3 1_555 1_555
C5_3 C6_3 1_555 1_555
C7_3 C8_3 1_555 1_555
C9_3 C10_3 1_555 1_555
O19_3 H32_3 1_555 1_555
O19_3 H33_3 1_555 1_555
Tb1_3 O1_3 1_555 1_555
Tb2_3 O23_3 1_555 1_555
Cu1_3 O1_3 1_555 1_555
Cu2_3 O3_3 1_555 1_555
Cu3_3 O2_3 1_555 1_555
Cu4_4 O7_4 1_555 1_555
Cu5_4 O9_4 1_555 1_555
Cu6_4 O8_4 1_555 1_555
O1_3 C1_3 1_555 1_555
O2_3 C1_3 1_555 1_555
O3_3 Tb1_3 1_555 1_555
O4_3 Cu1_3 1_555 1_555
O5_3 Tb1_3 1_555 1_555
O6_3 Cu2_3 1_555 1_555
O7_4 Tb1_3 1_555 1_555
O8_4 C6_4 1_555 1_555
O9_4 Tb1_3 1_555 1_555
O10_4 Cu4_4 1_555 1_555
O11_4 Tb1_3 1_555 1_555
O12_4 Cu5_4 1_555 1_555
O13_4 Tb1_3 1_555 1_555
O14_3 Tb1_3 1_555 1_555
O15_3 Tb1_3 1_555 1_555
O16_4 Cu1_3 1_555 1_555
O17_3 Cu2_3 1_555 1_555
O18_3 Cu3_3 1_555 1_555
O19_4 Cu4_4 1_555 1_555
O21_3 Cu3_3 1_555 1_555
O22_3 Cu1_3 1_555 1_555
O23_3 C11_3 1_555 1_555
O26_4 Cu6_4 1_555 1_555
O35_2 C13_4 1_555 1_555
O28_3 Tb2_3 1_555 1_555
O29_3 Tb2_3 1_555 1_555
O30_3 Tb2_3 1_555 1_555
O31_3 Tb2_3 1_555 1_555
O32_3 Tb2_3 1_555 1_555
O33_3 Tb2_3 1_555 1_555
N1_3 Cu1_3 1_555 1_555
H1_3 N1_3 1_555 1_555
H2_3 N1_3 1_555 1_555
N2_3 Cu2_3 1_555 1_555
H3_3 N2_3 1_555 1_555
H4_3 N2_3 1_555 1_555
N3_3 Cu3_3 1_555 1_555
H5_3 N3_3 1_555 1_555
H6_3 N3_3 1_555 1_555
N4_4 Cu4_4 1_555 1_555
H7_4 N4_4 1_555 1_555
H8_4 N4_4 1_555 1_555
N5_4 Cu5_4 1_555 1_555
N6_4 Cu6_4 1_555 1_555
H11_4 N6_4 1_555 1_555
H12_4 N6_4 1_555 1_555
C1_3 C15_3 1_555 1_555
C2_3 N2_3 1_555 1_555
H13_3 C2_3 1_555 1_555
H14_3 C2_3 1_555 1_555
C3_3 O3_3 1_555 1_555
C4_3 O5_3 1_555 1_555
C5_4 N4_4 1_555 1_555
H15_4 C5_4 1_555 1_555
H16_4 C5_4 1_555 1_555
C6_4 O7_4 1_555 1_555
C7_4 N5_4 1_555 1_555
H17_4 C7_4 1_555 1_555
H18_4 C7_4 1_555 1_555
C8_4 O9_4 1_555 1_555
C9_4 N6_4 1_555 1_555
H19_4 C9_4 1_555 1_555
H20_4 C9_4 1_555 1_555
C10_4 O11_4 1_555 1_555
C11_3 O22_3 1_555 1_555
H21_3 C11_3 1_555 1_555
C13_4 O26_4 1_555 1_555
H23_4 C13_4 1_555 1_555
C14_3 N3_3 1_555 1_555
H24_3 C14_3 1_555 1_555
H25_3 C14_3 1_555 1_555
C15_3 N1_3 1_555 1_555
H26_3 C15_3 1_555 1_555
H27_3 C15_3 1_555 1_555
O34_3 Tb2_3 1_555 1_555
O35_3 Tb2_3 1_555 1_555
Cu1_3 O13_4 1_555 1_555
Cu2_3 O14_3 1_555 1_555
Cu3_3 O5_3 1_555 1_555
Cu3_3 O15_3 1_555 1_555
Cu4_4 O13_4 1_555 1_555
Cu4_4 O16_4 1_555 1_555
Cu5_4 O14_3 1_555 1_555
Cu5_4 O17_3 1_555 1_555
Cu6_4 O11_4 1_555 1_555
Cu6_4 O15_3 1_555 1_555
Cu6_4 O18_3 1_555 1_555
O4_3 C3_3 1_555 1_555
O6_3 C4_3 1_555 1_555
O10_4 C8_4 1_555 1_555
O12_4 C10_4 1_555 1_555
C2_3 C3_3 1_555 1_555
C4_3 C14_3 1_555 1_555
C5_4 C6_4 1_555 1_555
C7_4 C8_4 1_555 1_555
C9_4 C10_4 1_555 1_555
O21_3 H28_3 1_555 1_555
O21_3 H29_3 1_555 1_555
O19_4 H32_4 1_555 1_555
O19_4 H33_4 1_555 1_555
O28_3 H34_3 1_555 1_555
O28_3 H35_3 1_555 1_555
O29_3 H36_3 1_555 1_555
O29_3 H37_3 1_555 1_555
O32_3 H38_3 1_555 1_555
O32_3 H39_3 1_555 1_555
O33_3 H40_3 1_555 1_555
O33_3 H41_3 1_555 1_555
O31_3 H42_3 1_555 1_555
O31_3 H43_3 1_555 1_555
O30_3 H44_3 1_555 1_555
O30_3 H45_3 1_555 1_555
Tb1_4 O1_4 1_555 1_555
Tb2_4 O23_4 1_555 1_555
Cu1_4 O1_4 1_555 1_555
Cu2_4 O3_4 1_555 1_555
Cu3_4 O2_4 1_555 1_555
Cu4_5 O7_5 1_555 1_555
Cu5_5 O9_5 1_555 1_555
Cu6_5 O8_5 1_555 1_555
O1_4 C1_4 1_555 1_555
O2_4 C1_4 1_555 1_555
O3_4 Tb1_4 1_555 1_555
O4_4 Cu1_4 1_555 1_555
O5_4 Tb1_4 1_555 1_555
O6_4 Cu2_4 1_555 1_555
O7_5 Tb1_4 1_555 1_555
O8_5 C6_5 1_555 1_555
O9_5 Tb1_4 1_555 1_555
O10_5 Cu4_5 1_555 1_555
O11_5 Tb1_4 1_555 1_555
O12_5 Cu5_5 1_555 1_555
O13_5 Tb1_4 1_555 1_555
O14_4 Tb1_4 1_555 1_555
O15_4 Tb1_4 1_555 1_555
O16_5 Cu1_4 1_555 1_555
O17_4 Cu2_4 1_555 1_555
O18_4 Cu3_4 1_555 1_555
O19_5 Cu4_5 1_555 1_555
O20_3 Cu2_4 1_555 1_555
O22_4 Cu1_4 1_555 1_555
O23_4 C11_4 1_555 1_555
O24_4 Cu5_5 1_555 1_555
O34 C12_4 1_555 1_555
O28_4 Tb2_4 1_555 1_555
O29_4 Tb2_4 1_555 1_555
O30_4 Tb2_4 1_555 1_555
O31_4 Tb2_4 1_555 1_555
O32_4 Tb2_4 1_555 1_555
O33_4 Tb2_4 1_555 1_555
N1_4 Cu1_4 1_555 1_555
H1_4 N1_4 1_555 1_555
H2_4 N1_4 1_555 1_555
N2_4 Cu2_4 1_555 1_555
H3_4 N2_4 1_555 1_555
H4_4 N2_4 1_555 1_555
N3_4 Cu3_4 1_555 1_555
H5_4 N3_4 1_555 1_555
H6_4 N3_4 1_555 1_555
N4_5 Cu4_5 1_555 1_555
H7_5 N4_5 1_555 1_555
H8_5 N4_5 1_555 1_555
N5_5 Cu5_5 1_555 1_555
H9_4 N5_5 1_555 1_555
H10_4 N5_5 1_555 1_555
N6_5 Cu6_5 1_555 1_555
H11_5 N6_5 1_555 1_555
C1_4 C15_4 1_555 1_555
C2_4 N2_4 1_555 1_555
H13_4 C2_4 1_555 1_555
H14_4 C2_4 1_555 1_555
C3_4 O3_4 1_555 1_555
C4_4 O5_4 1_555 1_555
C5_5 N4_5 1_555 1_555
H15_5 C5_5 1_555 1_555
H16_5 C5_5 1_555 1_555
C6_5 O7_5 1_555 1_555
C7_5 N5_5 1_555 1_555
H17_5 C7_5 1_555 1_555
H18_5 C7_5 1_555 1_555
C8_5 O9_5 1_555 1_555
C9_5 N6_5 1_555 1_555
H19_5 C9_5 1_555 1_555
H20_5 C9_5 1_555 1_555
C10_5 O11_5 1_555 1_555
C11_4 O22_4 1_555 1_555
H21_4 C11_4 1_555 1_555
C12_4 O24_4 1_555 1_555
H22_4 C12_4 1_555 1_555
C14_4 N3_4 1_555 1_555
H24_4 C14_4 1_555 1_555
H25_4 C14_4 1_555 1_555
C15_4 N1_4 1_555 1_555
H26_4 C15_4 1_555 1_555
H27_4 C15_4 1_555 1_555
O34_4 Tb2_4 1_555 1_555
O35_4 Tb2_4 1_555 1_555
Cu1_4 O13_5 1_555 1_555
Cu2_4 O14_4 1_555 1_555
Cu3_4 O5_4 1_555 1_555
Cu3_4 O15_4 1_555 1_555
Cu4_5 O13_5 1_555 1_555
Cu4_5 O16_5 1_555 1_555
Cu5_5 O14_4 1_555 1_555
Cu5_5 O17_4 1_555 1_555
Cu6_5 O11_5 1_555 1_555
Cu6_5 O15_4 1_555 1_555
Cu6_5 O18_4 1_555 1_555
O4_4 C3_4 1_555 1_555
O6_4 C4_4 1_555 1_555
O10_5 C8_5 1_555 1_555
O12_5 C10_5 1_555 1_555
C2_4 C3_4 1_555 1_555
C4_4 C14_4 1_555 1_555
C5_5 C6_5 1_555 1_555
C7_5 C8_5 1_555 1_555
C9_5 C10_5 1_555 1_555
O20_3 H30_3 1_555 1_555
O20_3 H31_3 1_555 1_555
O19_5 H32_5 1_555 1_555
O19_5 H33_5 1_555 1_555
O28_4 H34_4 1_555 1_555
O28_4 H35_4 1_555 1_555
O29_4 H36_4 1_555 1_555
O29_4 H37_4 1_555 1_555
O32_4 H38_4 1_555 1_555
O32_4 H39_4 1_555 1_555
O33_4 H40_4 1_555 1_555
O33_4 H41_4 1_555 1_555
O31_4 H42_4 1_555 1_555
O31_4 H43_4 1_555 1_555
O30_4 H44_4 1_555 1_555
O30_4 H45_4 1_555 1_555
O35 C13_5 1_555 1_555
C13_5 O26_5 1_555 1_555
H23_5 C13_5 1_555 1_555
O21_4 H28_4 1_555 1_555
O21_4 H29_4 1_555 1_555
Tb1_5 O1_5 1_555 1_555
Tb2_5 O23_5 1_555 1_555
Cu1_5 O1_5 1_555 1_555
Cu2_5 O3_5 1_555 1_555
Cu3_5 O2_5 1_555 1_555
Cu4_6 O7_6 1_555 1_555
Cu5_6 O9_6 1_555 1_555
Cu6_6 O8_6 1_555 1_555
O1_5 C1_5 1_555 1_555
O2_5 C1_5 1_555 1_555
O3_5 Tb1_5 1_555 1_555
O4_5 Cu1_5 1_555 1_555
O5_5 Tb1_5 1_555 1_555
O6_5 Cu2_5 1_555 1_555
O7_6 Tb1_5 1_555 1_555
O8_6 C6_6 1_555 1_555
O9_6 Tb1_5 1_555 1_555
O10_6 Cu4_6 1_555 1_555
O11_6 Tb1_5 1_555 1_555
O12_6 Cu5_6 1_555 1_555
O13_6 Tb1_5 1_555 1_555
O14_5 Tb1_5 1_555 1_555
O15_5 Tb1_5 1_555 1_555
O16_6 Cu1_5 1_555 1_555
O17_5 Cu2_5 1_555 1_555
O18_5 Cu3_5 1_555 1_555
O19_6 Cu4_6 1_555 1_555
O22_5 Cu1_5 1_555 1_555
O23_5 C11_5 1_555 1_555
O28_5 Tb2_5 1_555 1_555
O29_5 Tb2_5 1_555 1_555
O30_5 Tb2_5 1_555 1_555
O31_5 Tb2_5 1_555 1_555
O32_5 Tb2_5 1_555 1_555
O33_5 Tb2_5 1_555 1_555
N1_5 Cu1_5 1_555 1_555
H1_5 N1_5 1_555 1_555
H2_5 N1_5 1_555 1_555
N2_5 Cu2_5 1_555 1_555
H3_5 N2_5 1_555 1_555
H4_5 N2_5 1_555 1_555
N3_5 Cu3_5 1_555 1_555
H5_5 N3_5 1_555 1_555
H6_5 N3_5 1_555 1_555
N4_6 Cu4_6 1_555 1_555
H7_6 N4_6 1_555 1_555
H8_6 N4_6 1_555 1_555
N5_6 Cu5_6 1_555 1_555
N6_6 Cu6_6 1_555 1_555
H11_6 N6_6 1_555 1_555
C1_5 C15_5 1_555 1_555
C2_5 N2_5 1_555 1_555
H13_5 C2_5 1_555 1_555
H14_5 C2_5 1_555 1_555
C3_5 O3_5 1_555 1_555
C4_5 O5_5 1_555 1_555
C5_6 N4_6 1_555 1_555
H15_6 C5_6 1_555 1_555
H16_6 C5_6 1_555 1_555
C6_6 O7_6 1_555 1_555
C7_6 N5_6 1_555 1_555
H17_6 C7_6 1_555 1_555
H18_6 C7_6 1_555 1_555
C8_6 O9_6 1_555 1_555
C9_6 N6_6 1_555 1_555
H19_6 C9_6 1_555 1_555
H20_6 C9_6 1_555 1_555
C10_6 O11_6 1_555 1_555
C11_5 O22_5 1_555 1_555
H21_5 C11_5 1_555 1_555
C14_5 N3_5 1_555 1_555
H24_5 C14_5 1_555 1_555
H25_5 C14_5 1_555 1_555
C15_5 N1_5 1_555 1_555
H26_5 C15_5 1_555 1_555
H27_5 C15_5 1_555 1_555
O34_5 Tb2_5 1_555 1_555
O35_5 Tb2_5 1_555 1_555
Cu1_5 O13_6 1_555 1_555
Cu2_5 O14_5 1_555 1_555
Cu3_5 O5_5 1_555 1_555
Cu3_5 O15_5 1_555 1_555
Cu4_6 O13_6 1_555 1_555
Cu4_6 O16_6 1_555 1_555
Cu5_6 O14_5 1_555 1_555
Cu5_6 O17_5 1_555 1_555
Cu6_6 O11_6 1_555 1_555
Cu6_6 O15_5 1_555 1_555
Cu6_6 O18_5 1_555 1_555
O4_5 C3_5 1_555 1_555
O6_5 C4_5 1_555 1_555
O10_6 C8_6 1_555 1_555
O12_6 C10_6 1_555 1_555
C2_5 C3_5 1_555 1_555
C4_5 C14_5 1_555 1_555
C5_6 C6_6 1_555 1_555
C7_6 C8_6 1_555 1_555
C9_6 C10_6 1_555 1_555
O19_6 H32_6 1_555 1_555
O19_6 H33_6 1_555 1_555
O28_5 H34_5 1_555 1_555
O28_5 H35_5 1_555 1_555
O29_5 H36_5 1_555 1_555
O29_5 H37_5 1_555 1_555
O32_5 H38_5 1_555 1_555
O32_5 H39_5 1_555 1_555
O33_5 H40_5 1_555 1_555
O33_5 H41_5 1_555 1_555
O31_5 H42_5 1_555 1_555
O31_5 H43_5 1_555 1_555
O30_5 H44_5 1_555 1_555
O30_5 H45_5 1_555 1_555
O34_2 C12_5 1_555 1_555
C12_5 O24_5 1_555 1_555
H22_5 C12_5 1_555 1_555
O20_4 H30_4 1_555 1_555
O20_4 H31_4 1_555 1_555
Tb1_6 O1_6 1_555 1_555
Cu1_6 O1_6 1_555 1_555
Cu2_6 O3_6 1_555 1_555
Cu3_6 O2_6 1_555 1_555
Cu4_7 O7_7 1_555 1_555
Cu5_7 O9_7 1_555 1_555
Cu6_7 O8_7 1_555 1_555
O1_6 C1_6 1_555 1_555
O2_6 C1_6 1_555 1_555
O3_6 Tb1_6 1_555 1_555
O4_6 Cu1_6 1_555 1_555
O5_6 Tb1_6 1_555 1_555
O6_6 Cu2_6 1_555 1_555
O7_7 Tb1_6 1_555 1_555
O8_7 C6_7 1_555 1_555
O9_7 Tb1_6 1_555 1_555
O10_7 Cu4_7 1_555 1_555
O11_7 Tb1_6 1_555 1_555
O12_7 Cu5_7 1_555 1_555
O13_7 Tb1_6 1_555 1_555
O14_6 Tb1_6 1_555 1_555
O15_6 Tb1_6 1_555 1_555
O16_7 Cu1_6 1_555 1_555
O17_6 Cu2_6 1_555 1_555
O18_6 Cu3_6 1_555 1_555
O20_5 Cu2_6 1_555 1_555
O21_5 Cu3_6 1_555 1_555
O24_6 Cu5_7 1_555 1_555
O34_5 C12_6 1_555 1_555
O26_6 Cu6_7 1_555 1_555
O35_4 C13_6 1_555 1_555
N2_6 Cu2_6 1_555 1_555
H3_6 N2_6 1_555 1_555
H4_6 N2_6 1_555 1_555
N3_6 Cu3_6 1_555 1_555
H5_6 N3_6 1_555 1_555
H6_6 N3_6 1_555 1_555
N4_7 Cu4_7 1_555 1_555
H7_7 N4_7 1_555 1_555
H8_7 N4_7 1_555 1_555
N5_7 Cu5_7 1_555 1_555
H9_6 N5_7 1_555 1_555
H10_6 N5_7 1_555 1_555
N6_7 Cu6_7 1_555 1_555
H11_7 N6_7 1_555 1_555
H12_6 N6_7 1_555 1_555
C1_6 C15_6 1_555 1_555
C2_6 N2_6 1_555 1_555
H13_6 C2_6 1_555 1_555
H14_6 C2_6 1_555 1_555
C3_6 O3_6 1_555 1_555
C4_6 O5_6 1_555 1_555
C5_7 N4_7 1_555 1_555
H15_7 C5_7 1_555 1_555
H16_7 C5_7 1_555 1_555
C6_7 O7_7 1_555 1_555
C7_7 N5_7 1_555 1_555
H17_7 C7_7 1_555 1_555
H18_7 C7_7 1_555 1_555
C8_7 O9_7 1_555 1_555
C9_7 N6_7 1_555 1_555
H19_7 C9_7 1_555 1_555
H20_7 C9_7 1_555 1_555
C10_7 O11_7 1_555 1_555
C12_6 O24_6 1_555 1_555
H22_6 C12_6 1_555 1_555
C13_6 O26_6 1_555 1_555
H23_6 C13_6 1_555 1_555
C14_6 N3_6 1_555 1_555
H24_6 C14_6 1_555 1_555
H25_6 C14_6 1_555 1_555
H26_6 C15_6 1_555 1_555
H27_6 C15_6 1_555 1_555
Cu1_6 O13_7 1_555 1_555
Cu2_6 O14_6 1_555 1_555
Cu3_6 O5_6 1_555 1_555
Cu3_6 O15_6 1_555 1_555
Cu4_7 O13_7 1_555 1_555
Cu4_7 O16_7 1_555 1_555
Cu5_7 O14_6 1_555 1_555
Cu5_7 O17_6 1_555 1_555
Cu6_7 O11_7 1_555 1_555
Cu6_7 O15_6 1_555 1_555
Cu6_7 O18_6 1_555 1_555
O4_6 C3_6 1_555 1_555
O6_6 C4_6 1_555 1_555
O10_7 C8_7 1_555 1_555
O12_7 C10_7 1_555 1_555
C2_6 C3_6 1_555 1_555
C4_6 C14_6 1_555 1_555
C5_7 C6_7 1_555 1_555
C7_7 C8_7 1_555 1_555
C9_7 C10_7 1_555 1_555
O21_5 H28_5 1_555 1_555
O21_5 H29_5 1_555 1_555
O20_5 H30_5 1_555 1_555
O20_5 H31_5 1_555 1_555
Tb4_2 O23_6 1_555 1_555
O23_6 C11_6 1_555 1_555
O28_6 Tb4_2 1_555 1_555
O29_6 Tb4_2 1_555 1_555
O30_6 Tb4_2 1_555 1_555
O31_6 Tb4_2 1_555 1_555
O32_6 Tb4_2 1_555 1_555
O33_6 Tb4_2 1_555 1_555
H1_6 N1_6 1_555 1_555
H2_6 N1_6 1_555 1_555
C11_6 O22_6 1_555 1_555
H21_6 C11_6 1_555 1_555
O19_7 H32_7 1_555 1_555
O19_7 H33_7 1_555 1_555
O28_6 H34_6 1_555 1_555
O28_6 H35_6 1_555 1_555
O29_6 H36_6 1_555 1_555
O29_6 H37_6 1_555 1_555
O32_6 H38_6 1_555 1_555
O32_6 H39_6 1_555 1_555
O33_6 H40_6 1_555 1_555
O33_6 H41_6 1_555 1_555
O31_6 H42_6 1_555 1_555
O31_6 H43_6 1_555 1_555
O30_6 H44_6 1_555 1_555
O30_6 H45_6 1_555 1_555
Tb3 O23_7 1_555 1_555
O23_7 C11_7 1_555 1_555
O28_7 Tb3 1_555 1_555
O29_7 Tb3 1_555 1_555
O30_7 Tb3 1_555 1_555
O31_7 Tb3 1_555 1_555
O32_7 Tb3 1_555 1_555
O33_7 Tb3 1_555 1_555
H1_7 N1_7 1_555 1_555
H2_7 N1_7 1_555 1_555
C11_7 O22_7 1_555 1_555
H21_7 C11_7 1_555 1_555
O19_8 H32_8 1_555 1_555
O19_8 H33_8 1_555 1_555
O28_7 H34_7 1_555 1_555
O28_7 H35_7 1_555 1_555
O29_7 H36_7 1_555 1_555
O29_7 H37_7 1_555 1_555
O32_7 H38_7 1_555 1_555
O32_7 H39_7 1_555 1_555
O33_7 H40_7 1_555 1_555
O33_7 H41_7 1_555 1_555
O31_7 H42_7 1_555 1_555
O31_7 H43_7 1_555 1_555
O30_7 H44_7 1_555 1_555
O30_7 H45_7 1_555 1_555
Tb1_7 O1_7 1_555 1_555
Cu1_7 O1_7 1_555 1_555
Cu2_7 O3_7 1_555 1_555
Cu3_7 O2_7 1_555 1_555
Cu4_8 O7_8 1_555 1_555
Cu5_8 O9_8 1_555 1_555
Cu6_8 O8_8 1_555 1_555
O1_7 C1_7 1_555 1_555
O2_7 C1_7 1_555 1_555
O3_7 Tb1_7 1_555 1_555
O4_7 Cu1_7 1_555 1_555
O5_7 Tb1_7 1_555 1_555
O6_7 Cu2_7 1_555 1_555
O7_8 Tb1_7 1_555 1_555
O8_8 C6_8 1_555 1_555
O9_8 Tb1_7 1_555 1_555
O10_8 Cu4_8 1_555 1_555
O11_8 Tb1_7 1_555 1_555
O12_8 Cu5_8 1_555 1_555
O13_8 Tb1_7 1_555 1_555
O14_7 Tb1_7 1_555 1_555
O15_7 Tb1_7 1_555 1_555
O16_8 Cu1_7 1_555 1_555
O17_7 Cu2_7 1_555 1_555
O18_7 Cu3_7 1_555 1_555
O20_6 Cu2_7 1_555 1_555
O21_6 Cu3_7 1_555 1_555
O24_7 Cu5_8 1_555 1_555
O34_3 C12_7 1_555 1_555
O26_7 Cu6_8 1_555 1_555
O35_5 C13_7 1_555 1_555
N2_7 Cu2_7 1_555 1_555
H3_7 N2_7 1_555 1_555
H4_7 N2_7 1_555 1_555
N3_7 Cu3_7 1_555 1_555
H5_7 N3_7 1_555 1_555
H6_7 N3_7 1_555 1_555
N4_8 Cu4_8 1_555 1_555
H7_8 N4_8 1_555 1_555
H8_8 N4_8 1_555 1_555
N5_8 Cu5_8 1_555 1_555
H9_7 N5_8 1_555 1_555
H10_7 N5_8 1_555 1_555
N6_8 Cu6_8 1_555 1_555
H11_8 N6_8 1_555 1_555
H12_7 N6_8 1_555 1_555
C1_7 C15_7 1_555 1_555
C2_7 N2_7 1_555 1_555
H13_7 C2_7 1_555 1_555
H14_7 C2_7 1_555 1_555
C3_7 O3_7 1_555 1_555
C4_7 O5_7 1_555 1_555
C5_8 N4_8 1_555 1_555
H15_8 C5_8 1_555 1_555
H16_8 C5_8 1_555 1_555
C6_8 O7_8 1_555 1_555
C7_8 N5_8 1_555 1_555
H17_8 C7_8 1_555 1_555
H18_8 C7_8 1_555 1_555
C8_8 O9_8 1_555 1_555
C9_8 N6_8 1_555 1_555
H19_8 C9_8 1_555 1_555
H20_8 C9_8 1_555 1_555
C10_8 O11_8 1_555 1_555
C12_7 O24_7 1_555 1_555
H22_7 C12_7 1_555 1_555
C13_7 O26_7 1_555 1_555
H23_7 C13_7 1_555 1_555
C14_7 N3_7 1_555 1_555
H24_7 C14_7 1_555 1_555
H25_7 C14_7 1_555 1_555
H26_7 C15_7 1_555 1_555
H27_7 C15_7 1_555 1_555
Cu1_7 O13_8 1_555 1_555
Cu2_7 O14_7 1_555 1_555
Cu3_7 O5_7 1_555 1_555
Cu3_7 O15_7 1_555 1_555
Cu4_8 O13_8 1_555 1_555
Cu4_8 O16_8 1_555 1_555
Cu5_8 O14_7 1_555 1_555
Cu5_8 O17_7 1_555 1_555
Cu6_8 O11_8 1_555 1_555
Cu6_8 O15_7 1_555 1_555
Cu6_8 O18_7 1_555 1_555
O4_7 C3_7 1_555 1_555
O6_7 C4_7 1_555 1_555
O10_8 C8_8 1_555 1_555
O12_8 C10_8 1_555 1_555
C2_7 C3_7 1_555 1_555
C4_7 C14_7 1_555 1_555
C5_8 C6_8 1_555 1_555
C7_8 C8_8 1_555 1_555
C9_8 C10_8 1_555 1_555
O21_6 H28_6 1_555 1_555
O21_6 H29_6 1_555 1_555
O20_6 H30_6 1_555 1_555
O20_6 H31_6 1_555 1_555
Tb1_8 O1_8 1_555 1_555
Tb4 O23_8 1_555 1_555
Cu1_8 O1_8 1_555 1_555
Cu2_8 O3_8 1_555 1_555
Cu3_8 O2_8 1_555 1_555
Cu4_9 O7_9 1_555 1_555
Cu5_9 O9_9 1_555 1_555
Cu6_9 O8_9 1_555 1_555
O1_8 C1_8 1_555 1_555
O2_8 C1_8 1_555 1_555
O3_8 Tb1_8 1_555 1_555
O4_8 Cu1_8 1_555 1_555
O5_8 Tb1_8 1_555 1_555
O6_8 Cu2_8 1_555 1_555
O7_9 Tb1_8 1_555 1_555
O8_9 C6_9 1_555 1_555
O9_9 Tb1_8 1_555 1_555
O10_9 Cu4_9 1_555 1_555
O11_9 Tb1_8 1_555 1_555
O12_9 Cu5_9 1_555 1_555
O13_9 Tb1_8 1_555 1_555
O14_8 Tb1_8 1_555 1_555
O15_8 Tb1_8 1_555 1_555
O16_9 Cu1_8 1_555 1_555
O17_8 Cu2_8 1_555 1_555
O18_8 Cu3_8 1_555 1_555
O19_9 Cu4_9 1_555 1_555
O20_7 Cu2_8 1_555 1_555
O21_7 Cu3_8 1_555 1_555
O22_8 Cu1_8 1_555 1_555
O23_8 C11_8 1_555 1_555
O24_8 Cu5_9 1_555 1_555
O34_4 C12_8 1_555 1_555
O26_8 Cu6_9 1_555 1_555
O35_3 C13_8 1_555 1_555
O28_8 Tb4 1_555 1_555
O29_8 Tb4 1_555 1_555
O30_8 Tb4 1_555 1_555
O31_8 Tb4 1_555 1_555
O32_8 Tb4 1_555 1_555
O33_8 Tb4 1_555 1_555
N1_8 Cu1_8 1_555 1_555
H1_8 N1_8 1_555 1_555
H2_8 N1_8 1_555 1_555
N2_8 Cu2_8 1_555 1_555
H3_8 N2_8 1_555 1_555
H4_8 N2_8 1_555 1_555
N3_8 Cu3_8 1_555 1_555
H5_8 N3_8 1_555 1_555
H6_8 N3_8 1_555 1_555
N4_9 Cu4_9 1_555 1_555
H7_9 N4_9 1_555 1_555
H8_9 N4_9 1_555 1_555
N5_9 Cu5_9 1_555 1_555
H9_8 N5_9 1_555 1_555
H10_8 N5_9 1_555 1_555
N6_9 Cu6_9 1_555 1_555
H11_9 N6_9 1_555 1_555
H12_8 N6_9 1_555 1_555
C1_8 C15_8 1_555 1_555
C2_8 N2_8 1_555 1_555
H13_8 C2_8 1_555 1_555
H14_8 C2_8 1_555 1_555
C3_8 O3_8 1_555 1_555
C4_8 O5_8 1_555 1_555
C5_9 N4_9 1_555 1_555
H15_9 C5_9 1_555 1_555
H16_9 C5_9 1_555 1_555
C6_9 O7_9 1_555 1_555
C7_9 N5_9 1_555 1_555
H17_9 C7_9 1_555 1_555
H18_9 C7_9 1_555 1_555
C8_9 O9_9 1_555 1_555
C9_9 N6_9 1_555 1_555
H19_9 C9_9 1_555 1_555
H20_9 C9_9 1_555 1_555
C10_9 O11_9 1_555 1_555
C11_8 O22_8 1_555 1_555
H21_8 C11_8 1_555 1_555
C12_8 O24_8 1_555 1_555
H22_8 C12_8 1_555 1_555
C13_8 O26_8 1_555 1_555
H23_8 C13_8 1_555 1_555
C14_8 N3_8 1_555 1_555
H24_8 C14_8 1_555 1_555
H25_8 C14_8 1_555 1_555
C15_8 N1_8 1_555 1_555
H26_8 C15_8 1_555 1_555
H27_8 C15_8 1_555 1_555
Cu1_8 O13_9 1_555 1_555
Cu2_8 O14_8 1_555 1_555
Cu3_8 O5_8 1_555 1_555
Cu3_8 O15_8 1_555 1_555
Cu4_9 O13_9 1_555 1_555
Cu4_9 O16_9 1_555 1_555
Cu5_9 O14_8 1_555 1_555
Cu5_9 O17_8 1_555 1_555
Cu6_9 O11_9 1_555 1_555
Cu6_9 O15_8 1_555 1_555
Cu6_9 O18_8 1_555 1_555
O4_8 C3_8 1_555 1_555
O6_8 C4_8 1_555 1_555
O10_9 C8_9 1_555 1_555
O12_9 C10_9 1_555 1_555
C2_8 C3_8 1_555 1_555
C4_8 C14_8 1_555 1_555
C5_9 C6_9 1_555 1_555
C7_9 C8_9 1_555 1_555
C9_9 C10_9 1_555 1_555
O21_7 H28_7 1_555 1_555
O21_7 H29_7 1_555 1_555
O20_7 H30_7 1_555 1_555
O20_7 H31_7 1_555 1_555
O19_9 H32_9 1_555 1_555
O19_9 H33_9 1_555 1_555
O28_8 H34_8 1_555 1_555
O28_8 H35_8 1_555 1_555
O29_8 H36_8 1_555 1_555
O29_8 H37_8 1_555 1_555
O32_8 H38_8 1_555 1_555
O32_8 H39_8 1_555 1_555
O33_8 H40_8 1_555 1_555
O33_8 H41_8 1_555 1_555
O31_8 H42_8 1_555 1_555
O31_8 H43_8 1_555 1_555
O30_8 H44_8 1_555 1_555
O30_8 H45_8 1_555 1_555
Tb1_9 O1_9 1_555 1_555
Tb2_6 O23_9 1_555 1_555
Cu1_9 O1_9 1_555 1_555
Cu2_9 O3_9 1_555 1_555
Cu3_9 O2_9 1_555 1_555
O1_9 C1_9 1_555 1_555
O2_9 C1_9 1_555 1_555
O3_9 Tb1_9 1_555 1_555
O4_9 Cu1_9 1_555 1_555
O5_9 Tb1_9 1_555 1_555
O6_9 Cu2_9 1_555 1_555
O14_9 Tb1_9 1_555 1_555
O15_9 Tb1_9 1_555 1_555
O17_9 Cu2_9 1_555 1_555
O18_9 Cu3_9 1_555 1_555
O20_8 Cu2_9 1_555 1_555
O21_8 Cu3_9 1_555 1_555
O22_9 Cu1_9 1_555 1_555
O23_9 C11_9 1_555 1_555
O28_9 Tb2_6 1_555 1_555
O29_9 Tb2_6 1_555 1_555
O30_9 Tb2_6 1_555 1_555
O31_9 Tb2_6 1_555 1_555
O32_9 Tb2_6 1_555 1_555
O33_9 Tb2_6 1_555 1_555
N1_9 Cu1_9 1_555 1_555
H1_9 N1_9 1_555 1_555
H2_9 N1_9 1_555 1_555
N2_9 Cu2_9 1_555 1_555
H3_9 N2_9 1_555 1_555
H4_9 N2_9 1_555 1_555
N3_9 Cu3_9 1_555 1_555
H5_9 N3_9 1_555 1_555
H6_9 N3_9 1_555 1_555
C1_9 C15_9 1_555 1_555
C2_9 N2_9 1_555 1_555
H13_9 C2_9 1_555 1_555
H14_9 C2_9 1_555 1_555
C3_9 O3_9 1_555 1_555
C4_9 O5_9 1_555 1_555
C11_9 O22_9 1_555 1_555
H21_9 C11_9 1_555 1_555
C14_9 N3_9 1_555 1_555
H24_9 C14_9 1_555 1_555
H25_9 C14_9 1_555 1_555
C15_9 N1_9 1_555 1_555
H26_9 C15_9 1_555 1_555
H27_9 C15_9 1_555 1_555
O34_6 Tb2_6 1_555 1_555
O35_6 Tb2_6 1_555 1_555
Cu2_9 O14_9 1_555 1_555
Cu3_9 O5_9 1_555 1_555
Cu3_9 O15_9 1_555 1_555
O4_9 C3_9 1_555 1_555
O6_9 C4_9 1_555 1_555
C2_9 C3_9 1_555 1_555
C4_9 C14_9 1_555 1_555
O21_8 H28_8 1_555 1_555
O21_8 H29_8 1_555 1_555
O20_8 H30_8 1_555 1_555
O20_8 H31_8 1_555 1_555
O28_9 H34_9 1_555 1_555
O28_9 H35_9 1_555 1_555
O29_9 H36_9 1_555 1_555
O29_9 H37_9 1_555 1_555
O32_9 H38_9 1_555 1_555
O32_9 H39_9 1_555 1_555
O33_9 H40_9 1_555 1_555
O33_9 H41_9 1_555 1_555
O31_9 H42_9 1_555 1_555
O31_9 H43_9 1_555 1_555
O30_9 H44_9 1_555 1_555
O30_9 H45_9 1_555 1_555
O34_6 C12_9 1_555 1_555
C12_9 O24_9 1_555 1_555
H22_9 C12_9 1_555 1_555
O20_9 H30_9 1_555 1_555
O20_9 H31_9 1_555 1_555
O35_6 C13_9 1_555 1_555
C13_9 O26_9 1_555 1_555
H23_9 C13_9 1_555 1_555
O21_9 H28_9 1_555 1_555
O21_9 H29_9 1_555 1_555
Cu4_10 O7_10 1_555 1_555
Cu5_10 O9_10 1_555 1_555
Cu6_10 O8_10 1_555 1_555
O8_10 C6_10 1_555 1_555
O10_10 Cu4_10 1_555 1_555
O12_10 Cu5_10 1_555 1_555
O19_10 Cu4_10 1_555 1_555
O24_10 Cu5_10 1_555 1_555
O25_4 C12_10 1_555 1_555
O26_10 Cu6_10 1_555 1_555
O27_4 C13_10 1_555 1_555
N4_10 Cu4_10 1_555 1_555
H7_10 N4_10 1_555 1_555
H8_10 N4_10 1_555 1_555
N5_10 Cu5_10 1_555 1_555
H9_10 N5_10 1_555 1_555
H10_10 N5_10 1_555 1_555
N6_10 Cu6_10 1_555 1_555
H11_10 N6_10 1_555 1_555
H12_10 N6_10 1_555 1_555
C5_10 N4_10 1_555 1_555
H15_10 C5_10 1_555 1_555
H16_10 C5_10 1_555 1_555
C6_10 O7_10 1_555 1_555
C7_10 N5_10 1_555 1_555
H17_10 C7_10 1_555 1_555
H18_10 C7_10 1_555 1_555
C8_10 O9_10 1_555 1_555
C9_10 N6_10 1_555 1_555
H19_10 C9_10 1_555 1_555
H20_10 C9_10 1_555 1_555
C10_10 O11_10 1_555 1_555
C12_10 O24_10 1_555 1_555
H22_10 C12_10 1_555 1_555
C13_10 O26_10 1_555 1_555
H23_10 C13_10 1_555 1_555
Tb3_2 O27_4 1_555 1_555
Tb4_3 O25_4 1_555 1_555
Cu4_10 O13_10 1_555 1_555
Cu4_10 O16_10 1_555 1_555
Cu6_10 O11_10 1_555 1_555
O10_10 C8_10 1_555 1_555
O12_10 C10_10 1_555 1_555
C5_10 C6_10 1_555 1_555
C7_10 C8_10 1_555 1_555
C9_10 C10_10 1_555 1_555
O19_10 H32_10 1_555 1_555
O19_10 H33_10 1_555 1_555
Tb1_10 O1_10 1_555 1_555
Tb2_7 O23_10 1_555 1_555
Cu1_10 O1_10 1_555 1_555
Cu2_10 O3_10 1_555 1_555
Cu3_10 O2_10 1_555 1_555
O1_10 C1_10 1_555 1_555
O2_10 C1_10 1_555 1_555
O3_10 Tb1_10 1_555 1_555
O4_10 Cu1_10 1_555 1_555
O5_10 Tb1_10 1_555 1_555
O6_10 Cu2_10 1_555 1_555
O14_10 Tb1_10 1_555 1_555
O15_10 Tb1_10 1_555 1_555
O17_10 Cu2_10 1_555 1_555
O18_10 Cu3_10 1_555 1_555
O20_10 Cu2_10 1_555 1_555
O21_10 Cu3_10 1_555 1_555
O22_10 Cu1_10 1_555 1_555
O23_10 C11_10 1_555 1_555
O28_10 Tb2_7 1_555 1_555
O29_10 Tb2_7 1_555 1_555
O30_10 Tb2_7 1_555 1_555
O31_10 Tb2_7 1_555 1_555
O32_10 Tb2_7 1_555 1_555
O33_10 Tb2_7 1_555 1_555
N1_10 Cu1_10 1_555 1_555
H1_10 N1_10 1_555 1_555
H2_10 N1_10 1_555 1_555
N2_10 Cu2_10 1_555 1_555
H3_10 N2_10 1_555 1_555
H4_10 N2_10 1_555 1_555
N3_10 Cu3_10 1_555 1_555
H5_10 N3_10 1_555 1_555
H6_10 N3_10 1_555 1_555
C1_10 C15_10 1_555 1_555
C2_10 N2_10 1_555 1_555
H13_10 C2_10 1_555 1_555
H14_10 C2_10 1_555 1_555
C3_10 O3_10 1_555 1_555
C4_10 O5_10 1_555 1_555
C11_10 O22_10 1_555 1_555
H21_10 C11_10 1_555 1_555
C14_10 N3_10 1_555 1_555
H24_10 C14_10 1_555 1_555
H25_10 C14_10 1_555 1_555
C15_10 N1_10 1_555 1_555
H26_10 C15_10 1_555 1_555
H27_10 C15_10 1_555 1_555
O34_7 Tb2_7 1_555 1_555
O35_7 Tb2_7 1_555 1_555
Cu2_10 O14_10 1_555 1_555
Cu3_10 O5_10 1_555 1_555
Cu3_10 O15_10 1_555 1_555
O4_10 C3_10 1_555 1_555
O6_10 C4_10 1_555 1_555
C2_10 C3_10 1_555 1_555
C4_10 C14_10 1_555 1_555
O21_10 H28_10 1_555 1_555
O21_10 H29_10 1_555 1_555
O20_10 H30_10 1_555 1_555
O20_10 H31_10 1_555 1_555
O28_10 H34_10 1_555 1_555
O28_10 H35_10 1_555 1_555
O29_10 H36_10 1_555 1_555
O29_10 H37_10 1_555 1_555
O32_10 H38_10 1_555 1_555
O32_10 H39_10 1_555 1_555
O33_10 H40_10 1_555 1_555
O33_10 H41_10 1_555 1_555
O31_10 H42_10 1_555 1_555
O31_10 H43_10 1_555 1_555
O30_10 H44_10 1_555 1_555
O30_10 H45_10 1_555 1_555
Cu4_11 O7_11 1_555 1_555
Cu5_11 O9_11 1_555 1_555
Cu6_11 O8_11 1_555 1_555
O8_11 C6_11 1_555 1_555
O10_11 Cu4_11 1_555 1_555
O12_11 Cu5_11 1_555 1_555
O19_11 Cu4_11 1_555 1_555
O24_11 Cu5_11 1_555 1_555
O25_5 C12_11 1_555 1_555
O26_11 Cu6_11 1_555 1_555
O27_5 C13_11 1_555 1_555
N4_11 Cu4_11 1_555 1_555
H7_11 N4_11 1_555 1_555
H8_11 N4_11 1_555 1_555
N5_11 Cu5_11 1_555 1_555
H9_11 N5_11 1_555 1_555
H10_11 N5_11 1_555 1_555
N6_11 Cu6_11 1_555 1_555
H11_11 N6_11 1_555 1_555
H12_11 N6_11 1_555 1_555
C5_11 N4_11 1_555 1_555
H15_11 C5_11 1_555 1_555
H16_11 C5_11 1_555 1_555
C6_11 O7_11 1_555 1_555
C7_11 N5_11 1_555 1_555
H17_11 C7_11 1_555 1_555
H18_11 C7_11 1_555 1_555
C8_11 O9_11 1_555 1_555
C9_11 N6_11 1_555 1_555
H19_11 C9_11 1_555 1_555
H20_11 C9_11 1_555 1_555
C10_11 O11_11 1_555 1_555
C12_11 O24_11 1_555 1_555
H22_11 C12_11 1_555 1_555
C13_11 O26_11 1_555 1_555
H23_11 C13_11 1_555 1_555
Tb4_3 O27_5 1_555 1_555
Tb4_4 O25_5 1_555 1_555
Cu4_11 O13_11 1_555 1_555
Cu4_11 O16_11 1_555 1_555
Cu6_11 O11_11 1_555 1_555
O10_11 C8_11 1_555 1_555
O12_11 C10_11 1_555 1_555
C5_11 C6_11 1_555 1_555
C7_11 C8_11 1_555 1_555
C9_11 C10_11 1_555 1_555
O19_11 H32_11 1_555 1_555
O19_11 H33_11 1_555 1_555
Tb1_11 O1_11 1_555 1_555
Tb2_8 O23_11 1_555 1_555
Cu1_11 O1_11 1_555 1_555
Cu2_11 O3_11 1_555 1_555
Cu3_11 O2_11 1_555 1_555
O1_11 C1_11 1_555 1_555
O2_11 C1_11 1_555 1_555
O3_11 Tb1_11 1_555 1_555
O4_11 Cu1_11 1_555 1_555
O5_11 Tb1_11 1_555 1_555
O6_11 Cu2_11 1_555 1_555
O14_11 Tb1_11 1_555 1_555
O15_11 Tb1_11 1_555 1_555
O17_11 Cu2_11 1_555 1_555
O18_11 Cu3_11 1_555 1_555
O20_11 Cu2_11 1_555 1_555
O21_11 Cu3_11 1_555 1_555
O22_11 Cu1_11 1_555 1_555
O23_11 C11_11 1_555 1_555
O28_11 Tb2_8 1_555 1_555
O29_11 Tb2_8 1_555 1_555
O30_11 Tb2_8 1_555 1_555
O31_11 Tb2_8 1_555 1_555
O32_11 Tb2_8 1_555 1_555
O33_11 Tb2_8 1_555 1_555
N1_11 Cu1_11 1_555 1_555
H1_11 N1_11 1_555 1_555
H2_11 N1_11 1_555 1_555
N2_11 Cu2_11 1_555 1_555
H3_11 N2_11 1_555 1_555
H4_11 N2_11 1_555 1_555
N3_11 Cu3_11 1_555 1_555
H5_11 N3_11 1_555 1_555
H6_11 N3_11 1_555 1_555
C1_11 C15_11 1_555 1_555
C2_11 N2_11 1_555 1_555
H13_11 C2_11 1_555 1_555
H14_11 C2_11 1_555 1_555
C3_11 O3_11 1_555 1_555
C4_11 O5_11 1_555 1_555
C11_11 O22_11 1_555 1_555
H21_11 C11_11 1_555 1_555
C14_11 N3_11 1_555 1_555
H24_11 C14_11 1_555 1_555
H25_11 C14_11 1_555 1_555
C15_11 N1_11 1_555 1_555
H26_11 C15_11 1_555 1_555
H27_11 C15_11 1_555 1_555
O34_8 Tb2_8 1_555 1_555
O35_8 Tb2_8 1_555 1_555
Cu2_11 O14_11 1_555 1_555
Cu3_11 O5_11 1_555 1_555
Cu3_11 O15_11 1_555 1_555
O4_11 C3_11 1_555 1_555
O6_11 C4_11 1_555 1_555
C2_11 C3_11 1_555 1_555
C4_11 C14_11 1_555 1_555
O21_11 H28_11 1_555 1_555
O21_11 H29_11 1_555 1_555
O20_11 H30_11 1_555 1_555
O20_11 H31_11 1_555 1_555
O28_11 H34_11 1_555 1_555
O28_11 H35_11 1_555 1_555
O29_11 H36_11 1_555 1_555
O29_11 H37_11 1_555 1_555
O32_11 H38_11 1_555 1_555
O32_11 H39_11 1_555 1_555
O33_11 H40_11 1_555 1_555
O33_11 H41_11 1_555 1_555
O31_11 H42_11 1_555 1_555
O31_11 H43_11 1_555 1_555
O30_11 H44_11 1_555 1_555
O30_11 H45_11 1_555 1_555
Cu4_12 O7_12 1_555 1_555
Cu5_12 O9_12 1_555 1_555
Cu6_12 O8_12 1_555 1_555
O8_12 C6_12 1_555 1_555
O10_12 Cu4_12 1_555 1_555
O12_12 Cu5_12 1_555 1_555
O19_12 Cu4_12 1_555 1_555
O24_12 Cu5_12 1_555 1_555
O25_6 C12_12 1_555 1_555
O26_12 Cu6_12 1_555 1_555
O27_6 C13_12 1_555 1_555
N4_12 Cu4_12 1_555 1_555
H7_12 N4_12 1_555 1_555
H8_12 N4_12 1_555 1_555
N5_12 Cu5_12 1_555 1_555
H9_12 N5_12 1_555 1_555
H10_12 N5_12 1_555 1_555
N6_12 Cu6_12 1_555 1_555
H11_12 N6_12 1_555 1_555
H12_12 N6_12 1_555 1_555
C5_12 N4_12 1_555 1_555
H15_12 C5_12 1_555 1_555
H16_12 C5_12 1_555 1_555
C6_12 O7_12 1_555 1_555
C7_12 N5_12 1_555 1_555
H17_12 C7_12 1_555 1_555
H18_12 C7_12 1_555 1_555
C8_12 O9_12 1_555 1_555
C9_12 N6_12 1_555 1_555
H19_12 C9_12 1_555 1_555
H20_12 C9_12 1_555 1_555
C10_12 O11_12 1_555 1_555
C12_12 O24_12 1_555 1_555
H22_12 C12_12 1_555 1_555
C13_12 O26_12 1_555 1_555
H23_12 C13_12 1_555 1_555
Tb4_4 O27_6 1_555 1_555
Tb3_2 O25_6 1_555 1_555
Cu4_12 O13_12 1_555 1_555
Cu4_12 O16_12 1_555 1_555
Cu6_12 O11_12 1_555 1_555
O10_12 C8_12 1_555 1_555
O12_12 C10_12 1_555 1_555
C5_12 C6_12 1_555 1_555
C7_12 C8_12 1_555 1_555
C9_12 C10_12 1_555 1_555
O19_12 H32_12 1_555 1_555
O19_12 H33_12 1_555 1_555
Tb1_12 O1_12 1_555 1_555
Tb2_9 O23_12 1_555 1_555
Cu1_12 O1_12 1_555 1_555
Cu2_12 O3_12 1_555 1_555
Cu3_12 O2_12 1_555 1_555
Cu4_13 O7_13 1_555 1_555
Cu5_13 O9_13 1_555 1_555
Cu6_13 O8_13 1_555 1_555
O1_12 C1_12 1_555 1_555
O2_12 C1_12 1_555 1_555
O3_12 Tb1_12 1_555 1_555
O4_12 Cu1_12 1_555 1_555
O5_12 Tb1_12 1_555 1_555
O6_12 Cu2_12 1_555 1_555
O7_13 Tb1_12 1_555 1_555
O8_13 C6_13 1_555 1_555
O9_13 Tb1_12 1_555 1_555
O10_13 Cu4_13 1_555 1_555
O11_13 Tb1_12 1_555 1_555
O12_13 Cu5_13 1_555 1_555
O13_13 Tb1_12 1_555 1_555
O14_12 Tb1_12 1_555 1_555
O15_12 Tb1_12 1_555 1_555
O16_13 Cu1_12 1_555 1_555
O17_12 Cu2_12 1_555 1_555
O18_12 Cu3_12 1_555 1_555
O19_13 Cu4_13 1_555 1_555
O21_12 Cu3_12 1_555 1_555
O22_12 Cu1_12 1_555 1_555
O23_12 C11_12 1_555 1_555
O26_13 Cu6_13 1_555 1_555
O35_8 C13_13 1_555 1_555
O28_12 Tb2_9 1_555 1_555
O29_12 Tb2_9 1_555 1_555
O30_12 Tb2_9 1_555 1_555
O31_12 Tb2_9 1_555 1_555
O32_12 Tb2_9 1_555 1_555
O33_12 Tb2_9 1_555 1_555
N1_12 Cu1_12 1_555 1_555
H1_12 N1_12 1_555 1_555
H2_12 N1_12 1_555 1_555
N2_12 Cu2_12 1_555 1_555
H3_12 N2_12 1_555 1_555
H4_12 N2_12 1_555 1_555
N3_12 Cu3_12 1_555 1_555
H5_12 N3_12 1_555 1_555
H6_12 N3_12 1_555 1_555
N4_13 Cu4_13 1_555 1_555
H7_13 N4_13 1_555 1_555
H8_13 N4_13 1_555 1_555
N5_13 Cu5_13 1_555 1_555
N6_13 Cu6_13 1_555 1_555
H11_13 N6_13 1_555 1_555
H12_13 N6_13 1_555 1_555
C1_12 C15_12 1_555 1_555
C2_12 N2_12 1_555 1_555
H13_12 C2_12 1_555 1_555
H14_12 C2_12 1_555 1_555
C3_12 O3_12 1_555 1_555
C4_12 O5_12 1_555 1_555
C5_13 N4_13 1_555 1_555
H15_13 C5_13 1_555 1_555
H16_13 C5_13 1_555 1_555
C6_13 O7_13 1_555 1_555
C7_13 N5_13 1_555 1_555
H17_13 C7_13 1_555 1_555
H18_13 C7_13 1_555 1_555
C8_13 O9_13 1_555 1_555
C9_13 N6_13 1_555 1_555
H19_13 C9_13 1_555 1_555
H20_13 C9_13 1_555 1_555
C10_13 O11_13 1_555 1_555
C11_12 O22_12 1_555 1_555
H21_12 C11_12 1_555 1_555
C13_13 O26_13 1_555 1_555
H23_13 C13_13 1_555 1_555
C14_12 N3_12 1_555 1_555
H24_12 C14_12 1_555 1_555
H25_12 C14_12 1_555 1_555
C15_12 N1_12 1_555 1_555
H26_12 C15_12 1_555 1_555
H27_12 C15_12 1_555 1_555
O34_9 Tb2_9 1_555 1_555
O35_9 Tb2_9 1_555 1_555
Cu1_12 O13_13 1_555 1_555
Cu2_12 O14_12 1_555 1_555
Cu3_12 O5_12 1_555 1_555
Cu3_12 O15_12 1_555 1_555
Cu4_13 O13_13 1_555 1_555
Cu4_13 O16_13 1_555 1_555
Cu5_13 O14_12 1_555 1_555
Cu5_13 O17_12 1_555 1_555
Cu6_13 O11_13 1_555 1_555
Cu6_13 O15_12 1_555 1_555
Cu6_13 O18_12 1_555 1_555
O4_12 C3_12 1_555 1_555
O6_12 C4_12 1_555 1_555
O10_13 C8_13 1_555 1_555
O12_13 C10_13 1_555 1_555
C2_12 C3_12 1_555 1_555
C4_12 C14_12 1_555 1_555
C5_13 C6_13 1_555 1_555
C7_13 C8_13 1_555 1_555
C9_13 C10_13 1_555 1_555
O21_12 H28_12 1_555 1_555
O21_12 H29_12 1_555 1_555
O19_13 H32_13 1_555 1_555
O19_13 H33_13 1_555 1_555
O28_12 H34_12 1_555 1_555
O28_12 H35_12 1_555 1_555
O29_12 H36_12 1_555 1_555
O29_12 H37_12 1_555 1_555
O32_12 H38_12 1_555 1_555
O32_12 H39_12 1_555 1_555
O33_12 H40_12 1_555 1_555
O33_12 H41_12 1_555 1_555
O31_12 H42_12 1_555 1_555
O31_12 H43_12 1_555 1_555
O30_12 H44_12 1_555 1_555
O30_12 H45_12 1_555 1_555
Tb1_13 O1_13 1_555 1_555
Tb2_10 O23_13 1_555 1_555
Cu1_13 O1_13 1_555 1_555
Cu2_13 O3_13 1_555 1_555
Cu3_13 O2_13 1_555 1_555
Cu4_14 O7_14 1_555 1_555
Cu5_14 O9_14 1_555 1_555
Cu6_14 O8_14 1_555 1_555
O1_13 C1_13 1_555 1_555
O2_13 C1_13 1_555 1_555
O3_13 Tb1_13 1_555 1_555
O4_13 Cu1_13 1_555 1_555
O5_13 Tb1_13 1_555 1_555
O6_13 Cu2_13 1_555 1_555
O7_14 Tb1_13 1_555 1_555
O8_14 C6_14 1_555 1_555
O9_14 Tb1_13 1_555 1_555
O10_14 Cu4_14 1_555 1_555
O11_14 Tb1_13 1_555 1_555
O12_14 Cu5_14 1_555 1_555
O13_14 Tb1_13 1_555 1_555
O14_13 Tb1_13 1_555 1_555
O15_13 Tb1_13 1_555 1_555
O16_14 Cu1_13 1_555 1_555
O17_13 Cu2_13 1_555 1_555
O18_13 Cu3_13 1_555 1_555
O19_14 Cu4_14 1_555 1_555
O20_12 Cu2_13 1_555 1_555
O22_13 Cu1_13 1_555 1_555
O23_13 C11_13 1_555 1_555
O24_13 Cu5_14 1_555 1_555
O34_7 C12_13 1_555 1_555
O28_13 Tb2_10 1_555 1_555
O29_13 Tb2_10 1_555 1_555
O30_13 Tb2_10 1_555 1_555
O31_13 Tb2_10 1_555 1_555
O32_13 Tb2_10 1_555 1_555
O33_13 Tb2_10 1_555 1_555
N1_13 Cu1_13 1_555 1_555
H1_13 N1_13 1_555 1_555
H2_13 N1_13 1_555 1_555
N2_13 Cu2_13 1_555 1_555
H3_13 N2_13 1_555 1_555
H4_13 N2_13 1_555 1_555
N3_13 Cu3_13 1_555 1_555
H5_13 N3_13 1_555 1_555
H6_13 N3_13 1_555 1_555
N4_14 Cu4_14 1_555 1_555
H7_14 N4_14 1_555 1_555
H8_14 N4_14 1_555 1_555
N5_14 Cu5_14 1_555 1_555
H9_13 N5_14 1_555 1_555
H10_13 N5_14 1_555 1_555
N6_14 Cu6_14 1_555 1_555
H11_14 N6_14 1_555 1_555
C1_13 C15_13 1_555 1_555
C2_13 N2_13 1_555 1_555
H13_13 C2_13 1_555 1_555
H14_13 C2_13 1_555 1_555
C3_13 O3_13 1_555 1_555
C4_13 O5_13 1_555 1_555
C5_14 N4_14 1_555 1_555
H15_14 C5_14 1_555 1_555
H16_14 C5_14 1_555 1_555
C6_14 O7_14 1_555 1_555
C7_14 N5_14 1_555 1_555
H17_14 C7_14 1_555 1_555
H18_14 C7_14 1_555 1_555
C8_14 O9_14 1_555 1_555
C9_14 N6_14 1_555 1_555
H19_14 C9_14 1_555 1_555
H20_14 C9_14 1_555 1_555
C10_14 O11_14 1_555 1_555
C11_13 O22_13 1_555 1_555
H21_13 C11_13 1_555 1_555
C12_13 O24_13 1_555 1_555
H22_13 C12_13 1_555 1_555
C14_13 N3_13 1_555 1_555
H24_13 C14_13 1_555 1_555
H25_13 C14_13 1_555 1_555
C15_13 N1_13 1_555 1_555
H26_13 C15_13 1_555 1_555
H27_13 C15_13 1_555 1_555
O34_10 Tb2_10 1_555 1_555
O35_10 Tb2_10 1_555 1_555
Cu1_13 O13_14 1_555 1_555
Cu2_13 O14_13 1_555 1_555
Cu3_13 O5_13 1_555 1_555
Cu3_13 O15_13 1_555 1_555
Cu4_14 O13_14 1_555 1_555
Cu4_14 O16_14 1_555 1_555
Cu5_14 O14_13 1_555 1_555
Cu5_14 O17_13 1_555 1_555
Cu6_14 O11_14 1_555 1_555
Cu6_14 O15_13 1_555 1_555
Cu6_14 O18_13 1_555 1_555
O4_13 C3_13 1_555 1_555
O6_13 C4_13 1_555 1_555
O10_14 C8_14 1_555 1_555
O12_14 C10_14 1_555 1_555
C2_13 C3_13 1_555 1_555
C4_13 C14_13 1_555 1_555
C5_14 C6_14 1_555 1_555
C7_14 C8_14 1_555 1_555
C9_14 C10_14 1_555 1_555
O20_12 H30_12 1_555 1_555
O20_12 H31_12 1_555 1_555
O19_14 H32_14 1_555 1_555
O19_14 H33_14 1_555 1_555
O28_13 H34_13 1_555 1_555
O28_13 H35_13 1_555 1_555
O29_13 H36_13 1_555 1_555
O29_13 H37_13 1_555 1_555
O32_13 H38_13 1_555 1_555
O32_13 H39_13 1_555 1_555
O33_13 H40_13 1_555 1_555
O33_13 H41_13 1_555 1_555
O31_13 H42_13 1_555 1_555
O31_13 H43_13 1_555 1_555
O30_13 H44_13 1_555 1_555
O30_13 H45_13 1_555 1_555
O34_8 C12_14 1_555 1_555
C12_14 O24_14 1_555 1_555
H22_14 C12_14 1_555 1_555
O20_13 H30_13 1_555 1_555
O20_13 H31_13 1_555 1_555
Tb1_14 O1_14 1_555 1_555
Tb2_11 O23_14 1_555 1_555
Cu1_14 O1_14 1_555 1_555
Cu2_14 O3_14 1_555 1_555
Cu3_14 O2_14 1_555 1_555
Cu4_15 O7_15 1_555 1_555
Cu5_15 O9_15 1_555 1_555
Cu6_15 O8_15 1_555 1_555
O1_14 C1_14 1_555 1_555
O2_14 C1_14 1_555 1_555
O3_14 Tb1_14 1_555 1_555
O4_14 Cu1_14 1_555 1_555
O5_14 Tb1_14 1_555 1_555
O6_14 Cu2_14 1_555 1_555
O7_15 Tb1_14 1_555 1_555
O8_15 C6_15 1_555 1_555
O9_15 Tb1_14 1_555 1_555
O10_15 Cu4_15 1_555 1_555
O11_15 Tb1_14 1_555 1_555
O12_15 Cu5_15 1_555 1_555
O13_15 Tb1_14 1_555 1_555
O14_14 Tb1_14 1_555 1_555
O15_14 Tb1_14 1_555 1_555
O16_15 Cu1_14 1_555 1_555
O17_14 Cu2_14 1_555 1_555
O18_14 Cu3_14 1_555 1_555
O19_15 Cu4_15 1_555 1_555
O22_14 Cu1_14 1_555 1_555
O23_14 C11_14 1_555 1_555
O28_14 Tb2_11 1_555 1_555
O29_14 Tb2_11 1_555 1_555
O30_14 Tb2_11 1_555 1_555
O31_14 Tb2_11 1_555 1_555
O32_14 Tb2_11 1_555 1_555
O33_14 Tb2_11 1_555 1_555
N1_14 Cu1_14 1_555 1_555
H1_14 N1_14 1_555 1_555
H2_14 N1_14 1_555 1_555
N2_14 Cu2_14 1_555 1_555
H3_14 N2_14 1_555 1_555
H4_14 N2_14 1_555 1_555
N3_14 Cu3_14 1_555 1_555
H5_14 N3_14 1_555 1_555
H6_14 N3_14 1_555 1_555
N4_15 Cu4_15 1_555 1_555
H7_15 N4_15 1_555 1_555
H8_15 N4_15 1_555 1_555
N5_15 Cu5_15 1_555 1_555
N6_15 Cu6_15 1_555 1_555
H11_15 N6_15 1_555 1_555
C1_14 C15_14 1_555 1_555
C2_14 N2_14 1_555 1_555
H13_14 C2_14 1_555 1_555
H14_14 C2_14 1_555 1_555
C3_14 O3_14 1_555 1_555
C4_14 O5_14 1_555 1_555
C5_15 N4_15 1_555 1_555
H15_15 C5_15 1_555 1_555
H16_15 C5_15 1_555 1_555
C6_15 O7_15 1_555 1_555
C7_15 N5_15 1_555 1_555
H17_15 C7_15 1_555 1_555
H18_15 C7_15 1_555 1_555
C8_15 O9_15 1_555 1_555
C9_15 N6_15 1_555 1_555
H19_15 C9_15 1_555 1_555
H20_15 C9_15 1_555 1_555
C10_15 O11_15 1_555 1_555
C11_14 O22_14 1_555 1_555
H21_14 C11_14 1_555 1_555
C14_14 N3_14 1_555 1_555
H24_14 C14_14 1_555 1_555
H25_14 C14_14 1_555 1_555
C15_14 N1_14 1_555 1_555
H26_14 C15_14 1_555 1_555
H27_14 C15_14 1_555 1_555
O34_11 Tb2_11 1_555 1_555
O35_11 Tb2_11 1_555 1_555
Cu1_14 O13_15 1_555 1_555
Cu2_14 O14_14 1_555 1_555
Cu3_14 O5_14 1_555 1_555
Cu3_14 O15_14 1_555 1_555
Cu4_15 O13_15 1_555 1_555
Cu4_15 O16_15 1_555 1_555
Cu5_15 O14_14 1_555 1_555
Cu5_15 O17_14 1_555 1_555
Cu6_15 O11_15 1_555 1_555
Cu6_15 O15_14 1_555 1_555
Cu6_15 O18_14 1_555 1_555
O4_14 C3_14 1_555 1_555
O6_14 C4_14 1_555 1_555
O10_15 C8_15 1_555 1_555
O12_15 C10_15 1_555 1_555
C2_14 C3_14 1_555 1_555
C4_14 C14_14 1_555 1_555
C5_15 C6_15 1_555 1_555
C7_15 C8_15 1_555 1_555
C9_15 C10_15 1_555 1_555
O19_15 H32_15 1_555 1_555
O19_15 H33_15 1_555 1_555
O28_14 H34_14 1_555 1_555
O28_14 H35_14 1_555 1_555
O29_14 H36_14 1_555 1_555
O29_14 H37_14 1_555 1_555
O32_14 H38_14 1_555 1_555
O32_14 H39_14 1_555 1_555
O33_14 H40_14 1_555 1_555
O33_14 H41_14 1_555 1_555
O31_14 H42_14 1_555 1_555
O31_14 H43_14 1_555 1_555
O30_14 H44_14 1_555 1_555
O30_14 H45_14 1_555 1_555
O35_7 C13_14 1_555 1_555
C13_14 O26_14 1_555 1_555
H23_14 C13_14 1_555 1_555
O21_13 H28_13 1_555 1_555
O21_13 H29_13 1_555 1_555
Tb4_4 O23_15 1_555 1_555
O23_15 C11_15 1_555 1_555
O28_15 Tb4_4 1_555 1_555
O29_15 Tb4_4 1_555 1_555
O30_15 Tb4_4 1_555 1_555
O31_15 Tb4_4 1_555 1_555
O32_15 Tb4_4 1_555 1_555
O33_15 Tb4_4 1_555 1_555
H1_15 N1_15 1_555 1_555
H2_15 N1_15 1_555 1_555
C11_15 O22_15 1_555 1_555
H21_15 C11_15 1_555 1_555
O19_16 H32_16 1_555 1_555
O19_16 H33_16 1_555 1_555
O28_15 H34_15 1_555 1_555
O28_15 H35_15 1_555 1_555
O29_15 H36_15 1_555 1_555
O29_15 H37_15 1_555 1_555
O32_15 H38_15 1_555 1_555
O32_15 H39_15 1_555 1_555
O33_15 H40_15 1_555 1_555
O33_15 H41_15 1_555 1_555
O31_15 H42_15 1_555 1_555
O31_15 H43_15 1_555 1_555
O30_15 H44_15 1_555 1_555
O30_15 H45_15 1_555 1_555
Tb1_15 O1_15 1_555 1_555
Cu1_15 O1_15 1_555 1_555
Cu2_15 O3_15 1_555 1_555
Cu3_15 O2_15 1_555 1_555
Cu4_16 O7_16 1_555 1_555
Cu5_16 O9_16 1_555 1_555
Cu6_16 O8_16 1_555 1_555
O1_15 C1_15 1_555 1_555
O2_15 C1_15 1_555 1_555
O3_15 Tb1_15 1_555 1_555
O4_15 Cu1_15 1_555 1_555
O5_15 Tb1_15 1_555 1_555
O6_15 Cu2_15 1_555 1_555
O7_16 Tb1_15 1_555 1_555
O8_16 C6_16 1_555 1_555
O9_16 Tb1_15 1_555 1_555
O10_16 Cu4_16 1_555 1_555
O11_16 Tb1_15 1_555 1_555
O12_16 Cu5_16 1_555 1_555
O13_16 Tb1_15 1_555 1_555
O14_15 Tb1_15 1_555 1_555
O15_15 Tb1_15 1_555 1_555
O16_16 Cu1_15 1_555 1_555
O17_15 Cu2_15 1_555 1_555
O18_15 Cu3_15 1_555 1_555
O20_14 Cu2_15 1_555 1_555
O21_14 Cu3_15 1_555 1_555
O24_15 Cu5_16 1_555 1_555
O34_11 C12_15 1_555 1_555
O26_15 Cu6_16 1_555 1_555
O35_10 C13_15 1_555 1_555
N2_15 Cu2_15 1_555 1_555
H3_15 N2_15 1_555 1_555
H4_15 N2_15 1_555 1_555
N3_15 Cu3_15 1_555 1_555
H5_15 N3_15 1_555 1_555
H6_15 N3_15 1_555 1_555
N4_16 Cu4_16 1_555 1_555
H7_16 N4_16 1_555 1_555
H8_16 N4_16 1_555 1_555
N5_16 Cu5_16 1_555 1_555
H9_15 N5_16 1_555 1_555
H10_15 N5_16 1_555 1_555
N6_16 Cu6_16 1_555 1_555
H11_16 N6_16 1_555 1_555
H12_15 N6_16 1_555 1_555
C1_15 C15_15 1_555 1_555
C2_15 N2_15 1_555 1_555
H13_15 C2_15 1_555 1_555
H14_15 C2_15 1_555 1_555
C3_15 O3_15 1_555 1_555
C4_15 O5_15 1_555 1_555
C5_16 N4_16 1_555 1_555
H15_16 C5_16 1_555 1_555
H16_16 C5_16 1_555 1_555
C6_16 O7_16 1_555 1_555
C7_16 N5_16 1_555 1_555
H17_16 C7_16 1_555 1_555
H18_16 C7_16 1_555 1_555
C8_16 O9_16 1_555 1_555
C9_16 N6_16 1_555 1_555
H19_16 C9_16 1_555 1_555
H20_16 C9_16 1_555 1_555
C10_16 O11_16 1_555 1_555
C12_15 O24_15 1_555 1_555
H22_15 C12_15 1_555 1_555
C13_15 O26_15 1_555 1_555
H23_15 C13_15 1_555 1_555
C14_15 N3_15 1_555 1_555
H24_15 C14_15 1_555 1_555
H25_15 C14_15 1_555 1_555
H26_15 C15_15 1_555 1_555
H27_15 C15_15 1_555 1_555
Cu1_15 O13_16 1_555 1_555
Cu2_15 O14_15 1_555 1_555
Cu3_15 O5_15 1_555 1_555
Cu3_15 O15_15 1_555 1_555
Cu4_16 O13_16 1_555 1_555
Cu4_16 O16_16 1_555 1_555
Cu5_16 O14_15 1_555 1_555
Cu5_16 O17_15 1_555 1_555
Cu6_16 O11_16 1_555 1_555
Cu6_16 O15_15 1_555 1_555
Cu6_16 O18_15 1_555 1_555
O4_15 C3_15 1_555 1_555
O6_15 C4_15 1_555 1_555
O10_16 C8_16 1_555 1_555
O12_16 C10_16 1_555 1_555
C2_15 C3_15 1_555 1_555
C4_15 C14_15 1_555 1_555
C5_16 C6_16 1_555 1_555
C7_16 C8_16 1_555 1_555
C9_16 C10_16 1_555 1_555
O21_14 H28_14 1_555 1_555
O21_14 H29_14 1_555 1_555
O20_14 H30_14 1_555 1_555
O20_14 H31_14 1_555 1_555
Tb1_16 O1_16 1_555 1_555
Cu1_16 O1_16 1_555 1_555
Cu2_16 O3_16 1_555 1_555
Cu3_16 O2_16 1_555 1_555
Cu4_17 O7_17 1_555 1_555
Cu5_17 O9_17 1_555 1_555
Cu6_17 O8_17 1_555 1_555
O1_16 C1_16 1_555 1_555
O2_16 C1_16 1_555 1_555
O3_16 Tb1_16 1_555 1_555
O4_16 Cu1_16 1_555 1_555
O5_16 Tb1_16 1_555 1_555
O6_16 Cu2_16 1_555 1_555
O7_17 Tb1_16 1_555 1_555
O8_17 C6_17 1_555 1_555
O9_17 Tb1_16 1_555 1_555
O10_17 Cu4_17 1_555 1_555
O11_17 Tb1_16 1_555 1_555
O12_17 Cu5_17 1_555 1_555
O13_17 Tb1_16 1_555 1_555
O14_16 Tb1_16 1_555 1_555
O15_16 Tb1_16 1_555 1_555
O16_17 Cu1_16 1_555 1_555
O17_16 Cu2_16 1_555 1_555
O18_16 Cu3_16 1_555 1_555
O20_15 Cu2_16 1_555 1_555
O21_15 Cu3_16 1_555 1_555
O24_16 Cu5_17 1_555 1_555
O34_9 C12_16 1_555 1_555
O26_16 Cu6_17 1_555 1_555
O35_11 C13_16 1_555 1_555
N2_16 Cu2_16 1_555 1_555
H3_16 N2_16 1_555 1_555
H4_16 N2_16 1_555 1_555
N3_16 Cu3_16 1_555 1_555
H5_16 N3_16 1_555 1_555
H6_16 N3_16 1_555 1_555
N4_17 Cu4_17 1_555 1_555
H7_17 N4_17 1_555 1_555
H8_17 N4_17 1_555 1_555
N5_17 Cu5_17 1_555 1_555
H9_16 N5_17 1_555 1_555
H10_16 N5_17 1_555 1_555
N6_17 Cu6_17 1_555 1_555
H11_17 N6_17 1_555 1_555
H12_16 N6_17 1_555 1_555
C1_16 C15_16 1_555 1_555
C2_16 N2_16 1_555 1_555
H13_16 C2_16 1_555 1_555
H14_16 C2_16 1_555 1_555
C3_16 O3_16 1_555 1_555
C4_16 O5_16 1_555 1_555
C5_17 N4_17 1_555 1_555
H15_17 C5_17 1_555 1_555
H16_17 C5_17 1_555 1_555
C6_17 O7_17 1_555 1_555
C7_17 N5_17 1_555 1_555
H17_17 C7_17 1_555 1_555
H18_17 C7_17 1_555 1_555
C8_17 O9_17 1_555 1_555
C9_17 N6_17 1_555 1_555
H19_17 C9_17 1_555 1_555
H20_17 C9_17 1_555 1_555
C10_17 O11_17 1_555 1_555
C12_16 O24_16 1_555 1_555
H22_16 C12_16 1_555 1_555
C13_16 O26_16 1_555 1_555
H23_16 C13_16 1_555 1_555
C14_16 N3_16 1_555 1_555
H24_16 C14_16 1_555 1_555
H25_16 C14_16 1_555 1_555
H26_16 C15_16 1_555 1_555
H27_16 C15_16 1_555 1_555
Cu1_16 O13_17 1_555 1_555
Cu2_16 O14_16 1_555 1_555
Cu3_16 O5_16 1_555 1_555
Cu3_16 O15_16 1_555 1_555
Cu4_17 O13_17 1_555 1_555
Cu4_17 O16_17 1_555 1_555
Cu5_17 O14_16 1_555 1_555
Cu5_17 O17_16 1_555 1_555
Cu6_17 O11_17 1_555 1_555
Cu6_17 O15_16 1_555 1_555
Cu6_17 O18_16 1_555 1_555
O4_16 C3_16 1_555 1_555
O6_16 C4_16 1_555 1_555
O10_17 C8_17 1_555 1_555
O12_17 C10_17 1_555 1_555
C2_16 C3_16 1_555 1_555
C4_16 C14_16 1_555 1_555
C5_17 C6_17 1_555 1_555
C7_17 C8_17 1_555 1_555
C9_17 C10_17 1_555 1_555
O21_15 H28_15 1_555 1_555
O21_15 H29_15 1_555 1_555
O20_15 H30_15 1_555 1_555
O20_15 H31_15 1_555 1_555
Tb3_2 O23_16 1_555 1_555
O23_16 C11_16 1_555 1_555
O28_16 Tb3_2 1_555 1_555
O29_16 Tb3_2 1_555 1_555
O30_16 Tb3_2 1_555 1_555
O31_16 Tb3_2 1_555 1_555
O32_16 Tb3_2 1_555 1_555
O33_16 Tb3_2 1_555 1_555
H1_16 N1_16 1_555 1_555
H2_16 N1_16 1_555 1_555
C11_16 O22_16 1_555 1_555
H21_16 C11_16 1_555 1_555
O19_17 H32_17 1_555 1_555
O19_17 H33_17 1_555 1_555
O28_16 H34_16 1_555 1_555
O28_16 H35_16 1_555 1_555
O29_16 H36_16 1_555 1_555
O29_16 H37_16 1_555 1_555
O32_16 H38_16 1_555 1_555
O32_16 H39_16 1_555 1_555
O33_16 H40_16 1_555 1_555
O33_16 H41_16 1_555 1_555
O31_16 H42_16 1_555 1_555
O31_16 H43_16 1_555 1_555
O30_16 H44_16 1_555 1_555
O30_16 H45_16 1_555 1_555
Tb1_17 O1_17 1_555 1_555
Tb4_3 O23_17 1_555 1_555
Cu1_17 O1_17 1_555 1_555
Cu2_17 O3_17 1_555 1_555
Cu3_17 O2_17 1_555 1_555
Cu4_18 O7_18 1_555 1_555
Cu5_18 O9_18 1_555 1_555
Cu6_18 O8_18 1_555 1_555
O1_17 C1_17 1_555 1_555
O2_17 C1_17 1_555 1_555
O3_17 Tb1_17 1_555 1_555
O4_17 Cu1_17 1_555 1_555
O5_17 Tb1_17 1_555 1_555
O6_17 Cu2_17 1_555 1_555
O7_18 Tb1_17 1_555 1_555
O8_18 C6_18 1_555 1_555
O9_18 Tb1_17 1_555 1_555
O10_18 Cu4_18 1_555 1_555
O11_18 Tb1_17 1_555 1_555
O12_18 Cu5_18 1_555 1_555
O13_18 Tb1_17 1_555 1_555
O14_17 Tb1_17 1_555 1_555
O15_17 Tb1_17 1_555 1_555
O16_18 Cu1_17 1_555 1_555
O17_17 Cu2_17 1_555 1_555
O18_17 Cu3_17 1_555 1_555
O19_18 Cu4_18 1_555 1_555
O20_16 Cu2_17 1_555 1_555
O21_16 Cu3_17 1_555 1_555
O22_17 Cu1_17 1_555 1_555
O23_17 C11_17 1_555 1_555
O24_17 Cu5_18 1_555 1_555
O34_10 C12_17 1_555 1_555
O26_17 Cu6_18 1_555 1_555
O35_9 C13_17 1_555 1_555
O28_17 Tb4_3 1_555 1_555
O29_17 Tb4_3 1_555 1_555
O30_17 Tb4_3 1_555 1_555
O31_17 Tb4_3 1_555 1_555
O32_17 Tb4_3 1_555 1_555
O33_17 Tb4_3 1_555 1_555
N1_17 Cu1_17 1_555 1_555
H1_17 N1_17 1_555 1_555
H2_17 N1_17 1_555 1_555
N2_17 Cu2_17 1_555 1_555
H3_17 N2_17 1_555 1_555
H4_17 N2_17 1_555 1_555
N3_17 Cu3_17 1_555 1_555
H5_17 N3_17 1_555 1_555
H6_17 N3_17 1_555 1_555
N4_18 Cu4_18 1_555 1_555
H7_18 N4_18 1_555 1_555
H8_18 N4_18 1_555 1_555
N5_18 Cu5_18 1_555 1_555
H9_17 N5_18 1_555 1_555
H10_17 N5_18 1_555 1_555
N6_18 Cu6_18 1_555 1_555
H11_18 N6_18 1_555 1_555
H12_17 N6_18 1_555 1_555
C1_17 C15_17 1_555 1_555
C2_17 N2_17 1_555 1_555
H13_17 C2_17 1_555 1_555
H14_17 C2_17 1_555 1_555
C3_17 O3_17 1_555 1_555
C4_17 O5_17 1_555 1_555
C5_18 N4_18 1_555 1_555
H15_18 C5_18 1_555 1_555
H16_18 C5_18 1_555 1_555
C6_18 O7_18 1_555 1_555
C7_18 N5_18 1_555 1_555
H17_18 C7_18 1_555 1_555
H18_18 C7_18 1_555 1_555
C8_18 O9_18 1_555 1_555
C9_18 N6_18 1_555 1_555
H19_18 C9_18 1_555 1_555
H20_18 C9_18 1_555 1_555
C10_18 O11_18 1_555 1_555
C11_17 O22_17 1_555 1_555
H21_17 C11_17 1_555 1_555
C12_17 O24_17 1_555 1_555
H22_17 C12_17 1_555 1_555
C13_17 O26_17 1_555 1_555
H23_17 C13_17 1_555 1_555
C14_17 N3_17 1_555 1_555
H24_17 C14_17 1_555 1_555
H25_17 C14_17 1_555 1_555
C15_17 N1_17 1_555 1_555
H26_17 C15_17 1_555 1_555
H27_17 C15_17 1_555 1_555
Cu1_17 O13_18 1_555 1_555
Cu2_17 O14_17 1_555 1_555
Cu3_17 O5_17 1_555 1_555
Cu3_17 O15_17 1_555 1_555
Cu4_18 O13_18 1_555 1_555
Cu4_18 O16_18 1_555 1_555
Cu5_18 O14_17 1_555 1_555
Cu5_18 O17_17 1_555 1_555
Cu6_18 O11_18 1_555 1_555
Cu6_18 O15_17 1_555 1_555
Cu6_18 O18_17 1_555 1_555
O4_17 C3_17 1_555 1_555
O6_17 C4_17 1_555 1_555
O10_18 C8_18 1_555 1_555
O12_18 C10_18 1_555 1_555
C2_17 C3_17 1_555 1_555
C4_17 C14_17 1_555 1_555
C5_18 C6_18 1_555 1_555
C7_18 C8_18 1_555 1_555
C9_18 C10_18 1_555 1_555
O21_16 H28_16 1_555 1_555
O21_16 H29_16 1_555 1_555
O20_16 H30_16 1_555 1_555
O20_16 H31_16 1_555 1_555
O19_18 H32_18 1_555 1_555
O19_18 H33_18 1_555 1_555
O28_17 H34_17 1_555 1_555
O28_17 H35_17 1_555 1_555
O29_17 H36_17 1_555 1_555
O29_17 H37_17 1_555 1_555
O32_17 H38_17 1_555 1_555
O32_17 H39_17 1_555 1_555
O33_17 H40_17 1_555 1_555
O33_17 H41_17 1_555 1_555
O31_17 H42_17 1_555 1_555
O31_17 H43_17 1_555 1_555
O30_17 H44_17 1_555 1_555
O30_17 H45_17 1_555 1_555
Tb1_18 O1_18 1_555 1_555
Tb2_12 O23_18 1_555 1_555
Cu1_18 O1_18 1_555 1_555
Cu2_18 O3_18 1_555 1_555
Cu3_18 O2_18 1_555 1_555
O1_18 C1_18 1_555 1_555
O2_18 C1_18 1_555 1_555
O3_18 Tb1_18 1_555 1_555
O4_18 Cu1_18 1_555 1_555
O5_18 Tb1_18 1_555 1_555
O6_18 Cu2_18 1_555 1_555
O14_18 Tb1_18 1_555 1_555
O15_18 Tb1_18 1_555 1_555
O17_18 Cu2_18 1_555 1_555
O18_18 Cu3_18 1_555 1_555
O20_17 Cu2_18 1_555 1_555
O21_17 Cu3_18 1_555 1_555
O22_18 Cu1_18 1_555 1_555
O23_18 C11_18 1_555 1_555
O28_18 Tb2_12 1_555 1_555
O29_18 Tb2_12 1_555 1_555
O30_18 Tb2_12 1_555 1_555
O31_18 Tb2_12 1_555 1_555
O32_18 Tb2_12 1_555 1_555
O33_18 Tb2_12 1_555 1_555
N1_18 Cu1_18 1_555 1_555
H1_18 N1_18 1_555 1_555
H2_18 N1_18 1_555 1_555
N2_18 Cu2_18 1_555 1_555
H3_18 N2_18 1_555 1_555
H4_18 N2_18 1_555 1_555
N3_18 Cu3_18 1_555 1_555
H5_18 N3_18 1_555 1_555
H6_18 N3_18 1_555 1_555
C1_18 C15_18 1_555 1_555
C2_18 N2_18 1_555 1_555
H13_18 C2_18 1_555 1_555
H14_18 C2_18 1_555 1_555
C3_18 O3_18 1_555 1_555
C4_18 O5_18 1_555 1_555
C11_18 O22_18 1_555 1_555
H21_18 C11_18 1_555 1_555
C14_18 N3_18 1_555 1_555
H24_18 C14_18 1_555 1_555
H25_18 C14_18 1_555 1_555
C15_18 N1_18 1_555 1_555
H26_18 C15_18 1_555 1_555
H27_18 C15_18 1_555 1_555
O34_12 Tb2_12 1_555 1_555
O35_12 Tb2_12 1_555 1_555
Cu2_18 O14_18 1_555 1_555
Cu3_18 O5_18 1_555 1_555
Cu3_18 O15_18 1_555 1_555
O4_18 C3_18 1_555 1_555
O6_18 C4_18 1_555 1_555
C2_18 C3_18 1_555 1_555
C4_18 C14_18 1_555 1_555
O21_17 H28_17 1_555 1_555
O21_17 H29_17 1_555 1_555
O20_17 H30_17 1_555 1_555
O20_17 H31_17 1_555 1_555
O28_18 H34_18 1_555 1_555
O28_18 H35_18 1_555 1_555
O29_18 H36_18 1_555 1_555
O29_18 H37_18 1_555 1_555
O32_18 H38_18 1_555 1_555
O32_18 H39_18 1_555 1_555
O33_18 H40_18 1_555 1_555
O33_18 H41_18 1_555 1_555
O31_18 H42_18 1_555 1_555
O31_18 H43_18 1_555 1_555
O30_18 H44_18 1_555 1_555
O30_18 H45_18 1_555 1_555
O34_12 C12_18 1_555 1_555
C12_18 O24_18 1_555 1_555
H22_18 C12_18 1_555 1_555
O20_18 H30_18 1_555 1_555
O20_18 H31_18 1_555 1_555
O35_12 C13_18 1_555 1_555
C13_18 O26_18 1_555 1_555
H23_18 C13_18 1_555 1_555
O21_18 H28_18 1_555 1_555
O21_18 H29_18 1_555 1_555

#END
