
###############################################################################
#
# This file contains modified crystal structure data generated from the
# MOF subset of the Cambridge Structural Database (CSD) v543 
# hosted by the Cambridge Crystallographic Data Centre (CCDC).
#
# This work is licensed under the Creative Commons
# Attribution-NonCommercial-ShareAlike 4.0 International License.
# To view a copy of this license, visit
# http://creativecommons.org/licenses/by-nc-sa/4.0/
# or send a letter to
# Creative Commons, PO Box 1866, Mountain View, CA 94042, USA.
#
# CIF created using the CSD Python API on 29 September 2022
# The structure has been converted into the P1 space group
# The structure has a 3D framework
# The original CSD entry KINRIK is in the rhombohedral crystal system
# The framework has been calculated to contain at least 10.0% void space
# The void calculation uses a probe of radius 1.32A, grid spacing 0.4
# The framework is charged, counterions have been retained in the structure
# H atom positions have been added when not included in the experimental data
#
###############################################################################

data_KINRIK
_chemical_formula_moiety         '(C270 H810 Cu108 Gd36 N108 O594 108+)n'
_symmetry_cell_setting           triclinic
_symmetry_space_group_name_H-M   'P 1'
_symmetry_Int_Tables_number      1
_space_group_name_Hall           'P 1'
loop_
_symmetry_equiv_pos_site_id
_symmetry_equiv_pos_as_xyz
1 x,y,z
_cell_length_a                   38.074(10)
_cell_length_b                   38.074(10)
_cell_length_c                   24.316(13)
_cell_angle_alpha                90
_cell_angle_beta                 90
_cell_angle_gamma                120
_cell_volume                     30526.7
loop_
_atom_site_label
_atom_site_type_symbol
_atom_site_fract_x
_atom_site_fract_y
_atom_site_fract_z
Gd1 Gd 0.562809(19) 0.12459(2) 0.66625(2)
O13 O 0.5563(2) 0.0853(2) 0.7423(3)
O14 O 0.5435(2) 0.0511(2) 0.8230(3)
O27 O 0.5289(2) 0.0306(2) 0.9301(3)
O28 O 0.5691(3) 0.1925(2) 0.6460(3)
O29 O 0.4938(2) 0.0634(2) 0.6746(4)
O30 O 0.5577(3) 0.0655(3) 0.6154(4)
O31 O 0.6273(3) 0.1229(3) 0.6779(4)
O32 O 0.6102(3) 0.1769(3) 0.7289(4)
O33 O 0.5196(4) 0.1378(3) 0.7246(4)
N1 N 0.5638(3) 0.0133(3) 0.7257(4)
H1 H 0.5589 0.0283 0.7016
H2 H 0.5895 0.0284 0.7376
C13 C 0.5534(4) 0.0832(4) 0.7955(5)
H25 H 0.5587 0.1065 0.8147
O34 O 0.5193(2) 0.1195(3) 0.5925(4)
O35 O 0.6093(4) 0.1562(3) 0.5938(3)
H30 H 0.504632 0.0331104 0.937782
H31 H 0.547934 0.0415357 0.961668
H32 H 0.533841 0.149976 0.759701
H33 H 0.512931 0.156893 0.705818
H36 H 0.481321 0.0644828 0.709954
H37 H 0.476566 0.0628579 0.643589
H38 H 0.593731 0.214247 0.664276
H39 H 0.57127 0.197178 0.605659
H40 H 0.631851 0.170891 0.739432
H41 H 0.62254 0.203722 0.710406
H42 H 0.621436 0.0944307 0.675546
H43 H 0.646682 0.13924 0.648429
H44 H 0.531368 0.0409241 0.623975
H45 H 0.559439 0.0709281 0.575261
Gd2 Gd 0.448856(17) 0.901832(17) 0.825129(19)
Cu1 Cu 0.52574(4) 0.99857(4) 0.78976(5)
Cu2 Cu 0.36845(4) 0.89711(4) 0.75036(5)
Cu3 Cu 0.47464(5) 0.84620(5) 0.73877(5)
Cu4 Cu 0.51230(4) 0.97353(4) 0.91923(5)
Cu5 Cu 0.46192(5) 0.82253(4) 0.86765(5)
Cu6 Cu 0.35375(4) 0.87325(4) 0.88086(5)
O1 O 0.5074(2) 0.9421(2) 0.7649(3)
O2 O 0.5176(3) 0.9075(3) 0.6972(3)
O3 O 0.4267(2) 0.9375(2) 0.7621(3)
O4 O 0.4748(3) 0.9998(2) 0.7389(3)
O5 O 0.4329(2) 0.8615(2) 0.7412(3)
O6 O 0.3848(2) 0.8618(2) 0.6892(3)
O7 O 0.4941(2) 0.9167(2) 0.9053(3)
O8 O 0.5022(3) 0.8658(3) 0.9360(3)
O9 O 0.4199(2) 0.8394(2) 0.8772(3)
O10 O 0.3605(3) 0.8211(2) 0.9172(3)
O11 O 0.4119(2) 0.91213(19) 0.8991(3)
O12 O 0.4506(2) 0.9505(2) 0.9669(3)
O15 O 0.2668(2) 0.8140(2) 0.9258(4)
O16 O 0.2984(2) 0.8462(2) 0.8512(3)
O17 O 0.5105(3) 0.7865(3) 0.9271(3)
O18 O 0.5023(3) 0.8078(3) 0.8446(3)
O19 O 0.48628(19) 0.97176(19) 0.8494(2)
O20 O 0.3746(2) 0.86696(19) 0.8110(2)
O21 O 0.4861(2) 0.8672(2) 0.8138(2)
O22 O 0.5725(2) 0.9919(3) 0.8571(3)
O23 O 0.3531(3) 0.9337(3) 0.8236(4)
O24 O 0.4216(3) 0.7803(3) 0.7852(3)
O25 O 0.3094(2) 0.8574(2) 0.7425(3)
O26 O 0.5177(3) 0.8320(3) 0.7432(3)
N2 N 0.3725(3) 0.9368(3) 0.6961(4)
H3 H 0.3699 0.9264 0.6620
H4 H 0.3523 0.9422 0.7013
N3 N 0.4504(3) 0.8195(3) 0.6689(4)
H5 H 0.4699 0.8254 0.6437
H6 H 0.4362 0.7925 0.6734
N4 N 0.5390(3) 0.9672(3) 0.9840(4)
H7 H 0.5660 0.9836 0.9813
N5 N 0.4315(4) 0.7808(3) 0.9191(4)
H9 H 0.4268 0.7568 0.9057
H10 H 0.4454 0.7857 0.9507
N6 N 0.3422(3) 0.8891(3) 0.9545(4)
H11 H 0.3316 0.9055 0.9502
H12 H 0.3242 0.8669 0.9732
C1 C 0.5588(4) 0.9764(4) 0.6979(6)
H13 H 0.5837 0.9756 0.7020
H14 H 0.5547 0.9785 0.6590
C2 C 0.5237(4) 0.9367(5) 0.7195(6)
C3 C 0.4108(4) 0.9734(4) 0.7008(6)
H15 H 0.4061 0.9948 0.7138
H16 H 0.4228 0.9811 0.6644
C4 C 0.4399(4) 0.9711(4) 0.7374(4)
C5 C 0.4253(4) 0.8336(4) 0.6520(5)
H17 H 0.4009 0.8109 0.6370
H18 H 0.4387 0.8526 0.6222
C6 C 0.4125(4) 0.8546(4) 0.6961(5)
C7 C 0.5296(4) 0.9260(4) 0.9879(5)
H20 H 0.5546 0.9254 0.9931
C8 C 0.5085(4) 0.9018(4) 0.9390(4)
C9 C 0.3893(5) 0.7794(4) 0.9303(5)
H21 H 0.3674 0.7551 0.9137
H22 H 0.3844 0.7778 0.9696
C10 C 0.3888(4) 0.8158(4) 0.9076(4)
C11 C 0.3809(4) 0.9104(4) 0.9848(5)
C12 C 0.4179(4) 0.9263(4) 0.9479(5)
C14 C 0.2688(4) 0.8255(4) 0.8777(5)
H26 H 0.2441 0.8168 0.8600
C15 C 0.5192(5) 0.7970(4) 0.8766(5)
H27 H 0.5415 0.7961 0.8628
Gd3 Gd 0.54208(2) 0.771552(28) 0.99958(2)
Gd4 Gd 0.228448(28) 0.770524(19) 0.99958(2)
H28 H 0.293859 0.871942 0.744244
H29 H 0.304392 0.843263 0.706586
H34 H 0.540577 0.852658 0.765492
H35 H 0.506779 0.80497 0.760743
Gd2_2 Gd 0.098168(17) 0.547024(24) 0.825129(19)
Cu1_2 Cu 0.00143(4) 0.52717(6) 0.78976(5)
Cu2_2 Cu 0.10289(4) 0.47134(6) 0.75036(5)
Cu3_2 Cu 0.15380(5) 0.62844(7) 0.73877(5)
Cu4_2 Cu 0.02647(4) 0.53877(6) 0.91923(5)
Cu5_2 Cu 0.17747(4) 0.63939(6) 0.86765(5)
Cu6_2 Cu 0.12675(4) 0.48050(6) 0.88086(5)
O1_2 O 0.0579(2) 0.5653(3) 0.7649(3)
O2_2 O 0.0925(3) 0.6101(4) 0.6972(3)
O3_2 O 0.0625(2) 0.4892(3) 0.7621(3)
O4_2 O 0.0002(2) 0.4750(4) 0.7389(3)
O5_2 O 0.1385(2) 0.5714(3) 0.7412(3)
O6_2 O 0.1382(2) 0.5230(3) 0.6892(3)
O7_2 O 0.0833(2) 0.5774(3) 0.9053(3)
O8_2 O 0.1342(3) 0.6364(4) 0.9360(3)
O9_2 O 0.1606(2) 0.5805(3) 0.8772(3)
O10_2 O 0.1789(2) 0.5394(4) 0.9172(3)
O11_2 O 0.08787(19) 0.49977(28) 0.8991(3)
O12_2 O 0.0495(2) 0.5001(3) 0.9669(3)
O15_2 O 0.1860(2) 0.4528(3) 0.9258(4)
O16_2 O 0.1538(2) 0.4522(3) 0.8512(3)
O17_2 O 0.2135(3) 0.7240(4) 0.9271(3)
O18_2 O 0.1922(3) 0.6945(4) 0.8446(3)
O19_2 O 0.02824(19) 0.51452(27) 0.8494(2)
O20_2 O 0.13304(19) 0.50764(28) 0.8110(2)
O21_2 O 0.1328(2) 0.6189(3) 0.8138(2)
O22_2 O 0.0081(3) 0.5806(4) 0.8571(3)
O23_2 O 0.0663(3) 0.4194(4) 0.8236(4)
O24_2 O 0.2197(3) 0.6413(4) 0.7852(3)
O25_2 O 0.1426(2) 0.4520(3) 0.7425(3)
O26_2 O 0.1680(3) 0.6857(4) 0.7432(3)
N2_2 N 0.0632(3) 0.4357(4) 0.6961(4)
H3_2 H 0.0736 0.4435 0.6620
H4_2 H 0.0578 0.4101 0.7013
N3_2 N 0.1805(3) 0.6309(4) 0.6689(4)
H5_2 H 0.1746 0.6445 0.6437
H6_2 H 0.2075 0.6437 0.6734
N4_2 N 0.0328(3) 0.5718(4) 0.9840(4)
H7_2 H 0.0164 0.5824 0.9813
N5_2 N 0.2192(3) 0.6507(5) 0.9191(4)
H9_2 H 0.2432 0.6700 0.9057
H10_2 H 0.2143 0.6597 0.9507
N6_2 N 0.1109(3) 0.4531(4) 0.9545(4)
H11_2 H 0.0945 0.4261 0.9502
H12_2 H 0.1331 0.4573 0.9732
C1_2 C 0.0236(4) 0.5824(6) 0.6979(6)
H13_2 H 0.0244 0.6081 0.7020
H14_2 H 0.0215 0.5762 0.6590
C2_2 C 0.0633(5) 0.5870(6) 0.7195(6)
C3_2 C 0.0266(4) 0.4374(6) 0.7008(6)
H15_2 H 0.0052 0.4113 0.7138
H16_2 H 0.0189 0.4417 0.6644
C4_2 C 0.0289(4) 0.4688(6) 0.7374(4)
C5_2 C 0.1664(4) 0.5917(6) 0.6520(5)
H17_2 H 0.1891 0.5900 0.6370
H18_2 H 0.1474 0.5861 0.6222
C6_2 C 0.1454(4) 0.5579(6) 0.6961(5)
C7_2 C 0.0740(4) 0.6036(6) 0.9879(5)
H20_2 H 0.0746 0.6292 0.9931
C8_2 C 0.0982(4) 0.6067(6) 0.9390(4)
C9_2 C 0.2206(4) 0.6099(6) 0.9303(5)
H21_2 H 0.2449 0.6123 0.9137
H22_2 H 0.2222 0.6066 0.9696
C10_2 C 0.1842(4) 0.5730(6) 0.9076(4)
C11_2 C 0.0896(4) 0.4705(6) 0.9848(5)
C12_2 C 0.0737(4) 0.4916(6) 0.9479(5)
C14_2 C 0.1745(4) 0.4433(6) 0.8777(5)
H26_2 H 0.1832 0.4273 0.8600
C15_2 C 0.2030(4) 0.7222(6) 0.8766(5)
H27_2 H 0.2039 0.7454 0.8628
Gd4_2 Gd 0.229476(19) 0.457923(34) 0.99958(2)
H28_2 H 0.128058 0.421918 0.744244
H29_2 H 0.156737 0.461129 0.706586
H34_2 H 0.147342 0.687918 0.765492
H35_2 H 0.19503 0.701808 0.760743
Gd1_2 Gd 0.87541(2) 0.438219(28) 0.66625(2)
O13_2 O 0.9147(2) 0.4710(3) 0.7423(3)
O14_2 O 0.9489(2) 0.4924(3) 0.8230(3)
O27_2 O 0.9694(2) 0.4983(3) 0.9301(3)
O28_2 O 0.8075(2) 0.3766(4) 0.6460(3)
O29_2 O 0.9366(2) 0.4304(3) 0.6746(4)
O30_2 O 0.9345(3) 0.4922(4) 0.6154(4)
O31_2 O 0.8771(3) 0.5044(4) 0.6779(4)
O32_2 O 0.8231(3) 0.4333(4) 0.7289(4)
O33_2 O 0.8622(3) 0.3818(5) 0.7246(4)
N1_2 N 0.9867(3) 0.5505(4) 0.7257(4)
H1_2 H 0.9717 0.5306 0.7016
H2_2 H 0.9716 0.5611 0.7376
C13_2 C 0.9168(4) 0.4702(6) 0.7955(5)
H25_2 H 0.8935 0.4522 0.8147
O34_2 O 0.8805(3) 0.3999(4) 0.5925(4)
O35_2 O 0.8438(3) 0.4532(5) 0.5938(3)
H30_2 H 0.96689 0.471522 0.937782
H31_2 H 0.958464 0.506398 0.961668
H32_2 H 0.850024 0.383865 0.759701
H33_2 H 0.843107 0.356039 0.705818
H36_2 H 0.935517 0.416838 0.709954
H37_2 H 0.937142 0.413708 0.643589
H38_2 H 0.785753 0.379484 0.664276
H39_2 H 0.802822 0.374093 0.605659
H40_2 H 0.829109 0.46096 0.739432
H41_2 H 0.796278 0.418818 0.710406
H42_2 H 0.905569 0.527006 0.675546
H43_2 H 0.86076 0.507442 0.648429
H44_2 H 0.959076 0.490444 0.623975
H45_2 H 0.929072 0.488511 0.575261
Gd1_3 Gd 0.561781(28) 0.437191(19) 0.66625(2)
Gd2_3 Gd 0.452976(24) 0.551144(17) 0.825129(19)
Cu1_3 Cu 0.47283(6) 0.47426(4) 0.78976(5)
Cu2_3 Cu 0.52866(6) 0.63155(4) 0.75036(5)
Cu3_3 Cu 0.37156(7) 0.52536(5) 0.73877(5)
Cu4_3 Cu 0.46123(6) 0.48770(4) 0.91923(5)
Cu5_3 Cu 0.36061(6) 0.53808(5) 0.86765(5)
Cu6_3 Cu 0.51950(6) 0.64625(4) 0.88086(5)
O1_3 O 0.4347(3) 0.4926(2) 0.7649(3)
O2_3 O 0.3899(4) 0.4824(3) 0.6972(3)
O3_3 O 0.5108(3) 0.5733(2) 0.7621(3)
O4_3 O 0.5250(4) 0.5252(3) 0.7389(3)
O5_3 O 0.4286(3) 0.5671(2) 0.7412(3)
O6_3 O 0.4770(3) 0.6152(2) 0.6892(3)
O7_3 O 0.4226(3) 0.5059(2) 0.9053(3)
O8_3 O 0.3636(4) 0.4978(3) 0.9360(3)
O9_3 O 0.4195(3) 0.5801(2) 0.8772(3)
O10_3 O 0.4606(4) 0.6395(3) 0.9172(3)
O11_3 O 0.50023(28) 0.5881(2) 0.8991(3)
O12_3 O 0.4999(3) 0.5494(2) 0.9669(3)
O13_3 O 0.5290(3) 0.4437(2) 0.7423(3)
O14_3 O 0.5076(3) 0.4565(2) 0.8230(3)
O15_3 O 0.5472(3) 0.7332(2) 0.9258(4)
O16_3 O 0.5478(3) 0.7016(2) 0.8512(3)
O17_3 O 0.2760(4) 0.4895(3) 0.9271(3)
O18_3 O 0.3055(4) 0.4977(3) 0.8446(3)
O19_3 O 0.48548(27) 0.51372(19) 0.8494(2)
O20_3 O 0.49236(28) 0.6254(2) 0.8110(2)
O21_3 O 0.3811(3) 0.5139(2) 0.8138(2)
O22_3 O 0.4194(4) 0.4275(2) 0.8571(3)
O23_3 O 0.5806(4) 0.6469(3) 0.8236(4)
O24_3 O 0.3587(4) 0.5784(3) 0.7852(3)
O25_3 O 0.5480(3) 0.6906(2) 0.7425(3)
O26_3 O 0.3143(4) 0.4823(3) 0.7432(3)
O27_3 O 0.5017(3) 0.4711(2) 0.9301(3)
O28_3 O 0.6234(4) 0.4309(3) 0.6460(3)
O29_3 O 0.5696(3) 0.5062(2) 0.6746(4)
O30_3 O 0.5078(4) 0.4423(3) 0.6154(4)
O31_3 O 0.4956(4) 0.3727(3) 0.6779(4)
O32_3 O 0.5667(4) 0.3898(3) 0.7289(4)
O33_3 O 0.6182(5) 0.4804(4) 0.7246(4)
N1_3 N 0.4495(4) 0.4362(3) 0.7257(4)
H1_3 H 0.4694 0.4411 0.7016
H2_3 H 0.4389 0.4105 0.7376
N2_3 N 0.5643(4) 0.6275(3) 0.6961(4)
H3_3 H 0.5565 0.6301 0.6620
H4_3 H 0.5899 0.6477 0.7013
N3_3 N 0.3691(4) 0.5496(3) 0.6689(4)
H5_3 H 0.3555 0.5301 0.6437
H6_3 H 0.3563 0.5638 0.6734
N4_3 N 0.4282(4) 0.4610(3) 0.9840(4)
H7_3 H 0.4176 0.4340 0.9813
N5_3 N 0.3493(5) 0.5685(4) 0.9191(4)
H9_3 H 0.3300 0.5732 0.9057
H10_3 H 0.3403 0.5546 0.9507
N6_3 N 0.5469(4) 0.6578(3) 0.9545(4)
H11_3 H 0.5739 0.6684 0.9502
H12_3 H 0.5427 0.6758 0.9732
C1_3 C 0.4176(6) 0.4412(4) 0.6979(6)
H13_3 H 0.3919 0.4163 0.7020
H14_3 H 0.4238 0.4453 0.6590
C2_3 C 0.4130(6) 0.4763(4) 0.7195(6)
C3_3 C 0.5626(6) 0.5892(4) 0.7008(6)
H15_3 H 0.5887 0.5939 0.7138
H16_3 H 0.5583 0.5772 0.6644
C4_3 C 0.5312(6) 0.5601(4) 0.7374(4)
C5_3 C 0.4083(6) 0.5747(4) 0.6520(5)
H17_3 H 0.4100 0.5991 0.6370
H18_3 H 0.4139 0.5613 0.6222
C6_3 C 0.4421(6) 0.5875(4) 0.6961(5)
C7_3 C 0.3964(6) 0.4704(4) 0.9879(5)
H20_3 H 0.3708 0.4454 0.9931
C8_3 C 0.3933(6) 0.4915(4) 0.9390(4)
C9_3 C 0.3901(6) 0.6107(5) 0.9303(5)
H21_3 H 0.3877 0.6326 0.9137
H22_3 H 0.3934 0.6156 0.9696
C10_3 C 0.4270(6) 0.6112(4) 0.9076(4)
C11_3 C 0.5295(6) 0.6191(4) 0.9848(5)
C12_3 C 0.5084(6) 0.5821(4) 0.9479(5)
C13_3 C 0.5298(6) 0.4466(4) 0.7955(5)
H25_3 H 0.5478 0.4413 0.8147
C14_3 C 0.5567(6) 0.7312(4) 0.8777(5)
H26_3 H 0.5727 0.7559 0.8600
C15_3 C 0.2778(6) 0.4808(5) 0.8766(5)
H27_3 H 0.2546 0.4585 0.8628
O34_3 O 0.6001(4) 0.4807(2) 0.5925(4)
O35_3 O 0.5468(5) 0.3907(4) 0.5938(3)
H28_3 H 0.578082 0.706141 0.744244
H29_3 H 0.538871 0.695608 0.706586
H30_3 H 0.528478 0.495368 0.937782
H31_3 H 0.493602 0.452066 0.961668
H32_3 H 0.616135 0.466159 0.759701
H33_3 H 0.643961 0.487069 0.705818
H34_3 H 0.312082 0.459423 0.765492
H35_3 H 0.298192 0.493221 0.760743
H36_3 H 0.583162 0.518679 0.709954
H37_3 H 0.586292 0.523434 0.643589
H38_3 H 0.620516 0.406269 0.664276
H39_3 H 0.625907 0.42873 0.605659
H40_3 H 0.53904 0.368149 0.739432
H41_3 H 0.581182 0.37746 0.710406
H42_3 H 0.472994 0.378564 0.675546
H43_3 H 0.492558 0.353318 0.648429
H44_3 H 0.509556 0.468632 0.623975
H45_3 H 0.511489 0.440561 0.575261
Gd2_4 Gd 0.115523(17) 0.235165(17) 0.158462(19)
Cu1_4 Cu 0.19241(4) 0.33190(4) 0.12309(5)
Cu2_4 Cu 0.03512(4) 0.23044(4) 0.08369(5)
Cu3_4 Cu 0.14131(5) 0.17953(5) 0.07210(5)
Cu4_4 Cu 0.17897(4) 0.30686(4) 0.25256(5)
Cu5_4 Cu 0.12859(5) 0.15586(4) 0.20098(5)
Cu6_4 Cu 0.02042(4) 0.20658(4) 0.21419(5)
O1_4 O 0.1741(2) 0.2754(2) 0.0982(3)
O2_4 O 0.1843(3) 0.2408(3) 0.0305(3)
O3_4 O 0.0934(2) 0.2708(2) 0.0954(3)
O4_4 O 0.1415(3) 0.3331(2) 0.0722(3)
O5_4 O 0.0996(2) 0.1948(2) 0.0745(3)
O6_4 O 0.0515(2) 0.1951(2) 0.0225(3)
O7_4 O 0.1608(2) 0.2500(2) 0.2386(3)
O8_4 O 0.1689(3) 0.1991(3) 0.2693(3)
O9_4 O 0.0866(2) 0.1727(2) 0.2105(3)
O10_4 O 0.0272(3) 0.1544(2) 0.2505(3)
O11_4 O 0.0786(2) 0.24546(19) 0.2324(3)
O12_4 O 0.1173(2) 0.2838(2) 0.3002(3)
O13_4 O 0.2230(2) 0.4186(2) 0.0756(3)
O14_4 O 0.2102(2) 0.3844(2) 0.1563(3)
O17_4 O 0.1772(3) 0.1198(3) 0.2604(3)
O18_4 O 0.1690(3) 0.1411(3) 0.1779(3)
O19_4 O 0.15295(19) 0.30509(19) 0.1827(2)
O20_4 O 0.0413(2) 0.20029(19) 0.1443(2)
O21_4 O 0.1528(2) 0.2005(2) 0.1471(2)
O22_4 O 0.2392(2) 0.3252(3) 0.1904(3)
O23_4 O 0.0198(3) 0.2670(3) 0.1569(4)
O24_4 O 0.0883(3) 0.1136(3) 0.1185(3)
O26_4 O 0.1844(3) 0.1653(3) 0.0765(3)
O27_4 O 0.1956(2) 0.3639(2) 0.2634(3)
O29_4 O 0.1605(2) 0.3967(2) 0.0079(4)
O31_4 O 0.2940(3) 0.4562(3) 0.0112(4)
O32_4 O 0.2769(3) 0.5102(3) 0.0622(4)
O33_4 O 0.1863(4) 0.4711(3) 0.0579(4)
N1_4 N 0.2305(3) 0.3466(3) 0.0590(4)
H1_4 H 0.2256 0.3616 0.0349
H2_4 H 0.2562 0.3617 0.0709
N2_4 N 0.0392(3) 0.2701(3) 0.0294(4)
H4_4 H 0.0190 0.2755 0.0346
N3_4 N 0.1171(3) 0.1528(3) 0.0022(4)
H6_4 H 0.1029 0.1258 0.0067
N4_4 N 0.2057(3) 0.3005(3) 0.3173(4)
H7_4 H 0.2327 0.3169 0.3146
H8 H 0.1972 0.3074 0.3478
N5_4 N 0.0982(4) 0.1141(3) 0.2524(4)
H9_4 H 0.0935 0.0901 0.2390
H10_4 H 0.1121 0.1190 0.2840
N6_4 N 0.0089(3) 0.2224(3) 0.2878(4)
C1_4 C 0.2255(4) 0.3097(4) 0.0312(6)
H13_4 H 0.2504 0.3089 0.0353
C2_4 C 0.1904(4) 0.2700(5) 0.0528(6)
C3_4 C 0.0775(4) 0.3067(4) 0.0341(6)
H15_4 H 0.0728 0.3281 0.0471
C4_4 C 0.1066(4) 0.3044(4) 0.0707(4)
C6_4 C 0.0792(4) 0.1879(4) 0.0294(5)
C7_4 C 0.1963(4) 0.2593(4) 0.3212(5)
H19 H 0.1794 0.2470 0.3533
H20_4 H 0.2213 0.2587 0.3264
C8_4 C 0.1752(4) 0.2351(4) 0.2723(4)
C9_4 C 0.0560(5) 0.1127(4) 0.2636(5)
H21_4 H 0.0341 0.0884 0.2470
H22_4 H 0.0511 0.1111 0.3029
C10_4 C 0.0555(4) 0.1491(4) 0.2409(4)
C11_4 C 0.0476(4) 0.2437(4) 0.3181(5)
H23 H 0.0485 0.2253 0.3449
H24 H 0.0486 0.2663 0.3380
C12_4 C 0.0846(4) 0.2596(4) 0.2812(5)
C13_4 C 0.2201(4) 0.4165(4) 0.1288(5)
H25_4 H 0.2254 0.4398 0.1480
C15_4 C 0.1859(5) 0.1303(4) 0.2099(5)
H27_4 H 0.2082 0.1294 0.1961
Gd3_2 Gd 0.20874(2) 0.104886(28) 0.33292(2)
H30_4 H 0.171299 0.366444 0.271116
H31_4 H 0.214601 0.374869 0.295002
H32_4 H 0.200508 0.48331 0.0930345
H33_4 H 0.179598 0.490226 0.0391516
H34_4 H 0.207243 0.185992 0.0988256
H35_4 H 0.173445 0.138304 0.0940765
H36_4 H 0.147987 0.397816 0.0432868
H40_4 H 0.298517 0.504224 0.0727653
H41_4 H 0.289207 0.537055 0.0437389
H42_4 H 0.288103 0.427764 0.00887915
O28_4 O 0.2358(3) 0.5258(2) 0.9793(3)
O30_4 O 0.2244(3) 0.3988(3) 0.9487(4)
H3_4 H 0.0366 0.2597 0.9953
H5_4 H 0.1366 0.1587 0.9770
H14_4 H 0.2214 0.3118 0.9923
H16_4 H 0.0895 0.3144 0.9977
C5_4 C 0.0920(4) 0.1669(4) 0.9853(5)
H17_4 H 0.0676 0.1442 0.9703
H18_4 H 0.1054 0.1859 0.9555
H37_4 H 0.143232 0.396191 0.976923
H38_4 H 0.260398 0.547581 0.997609
H39_4 H 0.237937 0.530511 0.938993
H43_4 H 0.313349 0.472573 0.981763
H44_4 H 0.198035 0.374257 0.957308
H45_4 H 0.226105 0.404261 0.908594
O15_4 O 0.9335(2) 0.1473(2) 0.2591(4)
O16_4 O 0.9651(2) 0.1795(2) 0.1845(3)
O25_4 O 0.9761(2) 0.1907(2) 0.0758(3)
H11_4 H 0.9983 0.2388 0.2835
H12_4 H 0.9909 0.2002 0.3065
C14_4 C 0.9355(4) 0.1588(4) 0.2110(5)
H26_4 H 0.9108 0.1501 0.1933
Gd4_3 Gd 0.895114(28) 0.103858(19) 0.33292(2)
H28_4 H 0.960526 0.205275 0.0775777
H29_4 H 0.971059 0.176597 0.0399196
O17_5 O 0.8802(3) 0.0573(4) 0.2604(3)
O18_5 O 0.8589(3) 0.0278(4) 0.1779(3)
O26_5 O 0.8347(3) 0.0190(4) 0.0765(3)
H9_5 H 0.9099 0.0033 0.2390
C15_5 C 0.8697(4) 0.0555(6) 0.2099(5)
H27_5 H 0.8706 0.0787 0.1961
H34_5 H 0.814008 0.0212518 0.0988256
H35_5 H 0.861696 0.0351417 0.0940765
Gd2_5 Gd 0.764835(17) 0.880357(24) 0.158462(19)
Cu1_5 Cu 0.66810(4) 0.86050(6) 0.12309(5)
Cu2_5 Cu 0.76956(4) 0.80467(6) 0.08369(5)
Cu3_5 Cu 0.82047(5) 0.96177(7) 0.07210(5)
Cu4_5 Cu 0.69314(4) 0.87210(6) 0.25256(5)
Cu5_5 Cu 0.84414(4) 0.97272(6) 0.20098(5)
Cu6_5 Cu 0.79342(4) 0.81383(6) 0.21419(5)
O1_5 O 0.7246(2) 0.8986(3) 0.0982(3)
O2_5 O 0.7592(3) 0.9434(4) 0.0305(3)
O3_5 O 0.7292(2) 0.8225(3) 0.0954(3)
O4_5 O 0.6669(2) 0.8083(4) 0.0722(3)
O5_5 O 0.8052(2) 0.9047(3) 0.0745(3)
O6_5 O 0.8049(2) 0.8563(3) 0.0225(3)
O7_5 O 0.7500(2) 0.9107(3) 0.2386(3)
O8_5 O 0.8009(3) 0.9697(4) 0.2693(3)
O9_5 O 0.8273(2) 0.9138(3) 0.2105(3)
O10_5 O 0.8456(2) 0.8727(4) 0.2505(3)
O11_5 O 0.75454(19) 0.83310(28) 0.2324(3)
O12_5 O 0.7162(2) 0.8334(3) 0.3002(3)
O13_5 O 0.5814(2) 0.8043(3) 0.0756(3)
O14_5 O 0.6156(2) 0.8257(3) 0.1563(3)
O15_5 O 0.8527(2) 0.7861(3) 0.2591(4)
O16_5 O 0.8205(2) 0.7855(3) 0.1845(3)
O19_5 O 0.69491(19) 0.84785(27) 0.1827(2)
O20_5 O 0.79971(19) 0.84097(28) 0.1443(2)
O21_5 O 0.7995(2) 0.9522(3) 0.1471(2)
O22_5 O 0.6748(3) 0.9139(4) 0.1904(3)
O23_5 O 0.7330(3) 0.7527(4) 0.1569(4)
O24_5 O 0.8864(3) 0.9746(4) 0.1185(3)
O25_5 O 0.8093(2) 0.7853(3) 0.0758(3)
O27_5 O 0.6361(2) 0.8316(3) 0.2634(3)
O29_5 O 0.6033(2) 0.7637(3) 0.0079(4)
O31_5 O 0.5438(3) 0.8377(4) 0.0112(4)
O32_5 O 0.4898(3) 0.7666(4) 0.0622(4)
O33_5 O 0.5289(3) 0.7151(5) 0.0579(4)
N1_5 N 0.6534(3) 0.8838(4) 0.0590(4)
H1_5 H 0.6384 0.8639 0.0349
H2_5 H 0.6383 0.8944 0.0709
N2_5 N 0.7299(3) 0.7690(4) 0.0294(4)
H4_5 H 0.7245 0.7434 0.0346
N3_5 N 0.8472(3) 0.9642(4) 0.0022(4)
H6_5 H 0.8742 0.9770 0.0067
N4_5 N 0.6995(3) 0.9051(4) 0.3173(4)
H7_5 H 0.6831 0.9157 0.3146
H8_2 H 0.6926 0.8897 0.3478
N5_5 N 0.8859(3) 0.9840(5) 0.2524(4)
H10_5 H 0.8810 0.9930 0.2840
N6_5 N 0.7776(3) 0.7864(4) 0.2878(4)
H11_5 H 0.7612 0.7594 0.2835
H12_5 H 0.7998 0.7906 0.3065
C1_5 C 0.6903(4) 0.9157(6) 0.0312(6)
H13_5 H 0.6911 0.9414 0.0353
C2_5 C 0.7300(5) 0.9203(6) 0.0528(6)
C3_5 C 0.6933(4) 0.7707(6) 0.0341(6)
H15_5 H 0.6719 0.7446 0.0471
C4_5 C 0.6956(4) 0.8021(6) 0.0707(4)
C6_5 C 0.8121(4) 0.8912(6) 0.0294(5)
C7_5 C 0.7407(4) 0.9369(6) 0.3212(5)
H19_2 H 0.7530 0.9323 0.3533
H20_5 H 0.7413 0.9625 0.3264
C8_5 C 0.7649(4) 0.9400(6) 0.2723(4)
C9_5 C 0.8873(4) 0.9432(6) 0.2636(5)
H21_5 H 0.9116 0.9456 0.2470
H22_5 H 0.8889 0.9399 0.3029
C10_5 C 0.8509(4) 0.9063(6) 0.2409(4)
C11_5 C 0.7563(4) 0.8038(6) 0.3181(5)
H23_2 H 0.7747 0.8231 0.3449
H24_2 H 0.7337 0.7822 0.3380
C12_5 C 0.7404(4) 0.8249(6) 0.2812(5)
C13_5 C 0.5835(4) 0.8035(6) 0.1288(5)
H25_5 H 0.5602 0.7855 0.1480
C14_5 C 0.8412(4) 0.7766(6) 0.2110(5)
H26_5 H 0.8499 0.7606 0.1933
Gd4_4 Gd 0.896142(19) 0.791257(34) 0.33292(2)
H28_5 H 0.794725 0.755251 0.0775777
H29_5 H 0.823403 0.794462 0.0399196
H30_5 H 0.633556 0.804855 0.271116
H31_5 H 0.625131 0.839732 0.295002
H32_5 H 0.51669 0.717198 0.0930345
H33_5 H 0.509774 0.689372 0.0391516
H36_5 H 0.602184 0.750171 0.0432868
H40_5 H 0.495776 0.794293 0.0727653
H41_5 H 0.462945 0.752152 0.0437389
H42_5 H 0.572236 0.860339 0.00887915
O28_5 O 0.4742(2) 0.7099(4) 0.9793(3)
O30_5 O 0.6012(3) 0.8255(4) 0.9487(4)
H3_5 H 0.7403 0.7768 0.9953
H5_5 H 0.8413 0.9778 0.9770
H14_5 H 0.6882 0.9095 0.9923
H16_5 H 0.6856 0.7750 0.9977
C5_5 C 0.8331(4) 0.9250(6) 0.9853(5)
H17_5 H 0.8558 0.9233 0.9703
H18_5 H 0.8141 0.9194 0.9555
H37_5 H 0.603809 0.747041 0.976923
H38_5 H 0.452419 0.712817 0.997609
H39_5 H 0.469489 0.707426 0.938993
H43_5 H 0.527427 0.840776 0.981763
H44_5 H 0.625743 0.823777 0.957308
H45_5 H 0.595739 0.821844 0.908594
O15_6 O 0.2139(3) 0.0665(2) 0.2591(4)
O16_6 O 0.2145(3) 0.0349(2) 0.1845(3)
O25_6 O 0.2147(3) 0.0239(2) 0.0758(3)
H11_6 H 0.2406 0.0017 0.2835
H12_6 H 0.2094 0.0091 0.3065
C14_6 C 0.2234(6) 0.0645(4) 0.2110(5)
H26_6 H 0.2394 0.0892 0.1933
H28_6 H 0.244749 0.0394738 0.0775777
H29_6 H 0.205538 0.0289413 0.0399196
O28_6 O 0.2901(4) 0.7642(3) 0.9793(3)
O30_6 O 0.1745(4) 0.7756(3) 0.9487(4)
H3_6 H 0.2232 0.9634 0.9953
H5_6 H 0.0222 0.8634 0.9770
H14_6 H 0.0905 0.7786 0.9923
H16_6 H 0.2250 0.9105 0.9977
C5_6 C 0.0750(6) 0.9080(4) 0.9853(5)
H17_6 H 0.0767 0.9324 0.9703
H18_6 H 0.0806 0.8946 0.9555
H37_6 H 0.252959 0.856768 0.976923
H38_6 H 0.287183 0.739602 0.997609
H39_6 H 0.292574 0.762063 0.938993
H43_6 H 0.159224 0.686651 0.981763
H44_6 H 0.176223 0.801965 0.957308
H45_6 H 0.178156 0.773895 0.908594
O17_6 O 0.9427(4) 0.8228(3) 0.2604(3)
O18_6 O 0.9722(4) 0.8310(3) 0.1779(3)
O26_6 O 0.9810(4) 0.8156(3) 0.0765(3)
H9_6 H 0.9967 0.9065 0.2390
C15_6 C 0.9445(6) 0.8141(5) 0.2099(5)
H27_6 H 0.9213 0.7918 0.1961
H34_6 H 0.978748 0.792757 0.0988256
H35_6 H 0.964858 0.826555 0.0940765
Gd2_6 Gd 0.782189(17) 0.568499(17) 0.491796(19)
Cu1_6 Cu 0.85907(4) 0.66524(4) 0.45643(5)
Cu2_6 Cu 0.70178(4) 0.56378(4) 0.41703(5)
Cu3_6 Cu 0.80797(5) 0.51287(5) 0.40544(5)
Cu4_6 Cu 0.84563(4) 0.64020(4) 0.58590(5)
Cu5_6 Cu 0.79525(5) 0.48920(4) 0.53432(5)
Cu6_6 Cu 0.68708(4) 0.53992(4) 0.54753(5)
O1_6 O 0.8407(2) 0.6088(2) 0.4316(3)
O2_6 O 0.8509(3) 0.5742(3) 0.3639(3)
O3_6 O 0.7600(2) 0.6042(2) 0.4288(3)
O4_6 O 0.8081(3) 0.6665(2) 0.4056(3)
O5_6 O 0.7662(2) 0.5282(2) 0.4079(3)
O6_6 O 0.7181(2) 0.5285(2) 0.3559(3)
O7_6 O 0.8274(2) 0.5834(2) 0.5720(3)
O8_6 O 0.8355(3) 0.5325(3) 0.6027(3)
O9_6 O 0.7532(2) 0.5061(2) 0.5439(3)
O10_6 O 0.6938(3) 0.4878(2) 0.5839(3)
O11_6 O 0.7452(2) 0.57880(19) 0.5658(3)
O12_6 O 0.7839(2) 0.6172(2) 0.6336(3)
O13_6 O 0.8896(2) 0.7520(2) 0.4090(3)
O14_6 O 0.8768(2) 0.7178(2) 0.4897(3)
O16_7 O 0.6317(2) 0.5129(2) 0.5179(3)
O18_7 O 0.8356(3) 0.4745(3) 0.5113(3)
O19_6 O 0.81961(19) 0.63843(19) 0.5161(2)
O20_6 O 0.7079(2) 0.53363(19) 0.4777(2)
O21_6 O 0.8194(2) 0.5339(2) 0.4805(2)
O22_6 O 0.9058(2) 0.6586(3) 0.5238(3)
O23_6 O 0.6864(3) 0.6004(3) 0.4903(4)
O24_6 O 0.7549(3) 0.4470(3) 0.4519(3)
O25_7 O 0.6427(2) 0.5241(2) 0.4092(3)
O26_7 O 0.8510(3) 0.4987(3) 0.4099(3)
O27_6 O 0.8622(2) 0.6973(2) 0.5968(3)
O28_7 O 0.9024(3) 0.8592(2) 0.3127(3)
O29_6 O 0.8271(2) 0.7301(2) 0.3413(4)
O30_7 O 0.8910(3) 0.7322(3) 0.2821(4)
O31_6 O 0.9606(3) 0.7896(3) 0.3446(4)
O32_6 O 0.9435(3) 0.8436(3) 0.3956(4)
O33_6 O 0.8529(4) 0.8045(3) 0.3913(4)
N1_6 N 0.8971(3) 0.6800(3) 0.3924(4)
H1_6 H 0.8922 0.6950 0.3683
H2_6 H 0.9228 0.6951 0.4043
N2_6 N 0.7058(3) 0.6035(3) 0.3628(4)
H3_7 H 0.7032 0.5931 0.3287
H4_6 H 0.6856 0.6089 0.3680
N3_6 N 0.7837(3) 0.4862(3) 0.3356(4)
H5_7 H 0.8032 0.4921 0.3104
H6_6 H 0.7695 0.4592 0.3401
N4_6 N 0.8723(3) 0.6339(3) 0.6507(4)
H7_6 H 0.8993 0.6503 0.6480
H8_3 H 0.8638 0.6408 0.6812
N5_6 N 0.7648(4) 0.4475(3) 0.5858(4)
H9_7 H 0.7601 0.4235 0.5724
H10_6 H 0.7787 0.4524 0.6174
N6_6 N 0.6755(3) 0.5558(3) 0.6212(4)
H11_7 H 0.6649 0.5722 0.6169
H12_7 H 0.6575 0.5336 0.6399
C1_6 C 0.8921(4) 0.6431(4) 0.3646(6)
H13_6 H 0.9170 0.6423 0.3687
H14_7 H 0.8880 0.6452 0.3257
C2_6 C 0.8570(4) 0.6034(5) 0.3862(6)
C3_6 C 0.7441(4) 0.6401(4) 0.3675(6)
H15_6 H 0.7394 0.6615 0.3805
H16_7 H 0.7561 0.6478 0.3311
C4_6 C 0.7732(4) 0.6378(4) 0.4041(4)
C5_7 C 0.7586(4) 0.5003(4) 0.3187(5)
H17_7 H 0.7342 0.4776 0.3037
H18_7 H 0.7720 0.5193 0.2889
C6_6 C 0.7458(4) 0.5213(4) 0.3628(5)
C7_6 C 0.8629(4) 0.5927(4) 0.6546(5)
H19_3 H 0.8460 0.5804 0.6867
H20_6 H 0.8879 0.5921 0.6598
C8_6 C 0.8418(4) 0.5685(4) 0.6057(4)
C9_6 C 0.7226(5) 0.4461(4) 0.5970(5)
H21_6 H 0.7007 0.4218 0.5804
H22_6 H 0.7177 0.4445 0.6363
C10_6 C 0.7221(4) 0.4825(4) 0.5743(4)
C11_6 C 0.7142(4) 0.5771(4) 0.6515(5)
H23_3 H 0.7151 0.5587 0.6783
H24_3 H 0.7152 0.5997 0.6714
C12_6 C 0.7512(4) 0.5930(4) 0.6146(5)
C13_6 C 0.8867(4) 0.7499(4) 0.4622(5)
H25_6 H 0.8920 0.7732 0.4814
C14_7 C 0.6021(4) 0.4922(4) 0.5444(5)
H26_7 H 0.5774 0.4835 0.5267
C15_7 C 0.8525(5) 0.4637(4) 0.5433(5)
H27_7 H 0.8748 0.4628 0.5295
H28_7 H 0.627193 0.538609 0.410911
H29_7 H 0.637725 0.50993 0.373253
H30_6 H 0.837966 0.699777 0.604449
H31_6 H 0.881267 0.708202 0.628335
H32_6 H 0.867174 0.816643 0.426368
H33_6 H 0.846265 0.823559 0.372485
H34_7 H 0.87391 0.519325 0.432159
H35_7 H 0.840112 0.471637 0.42741
H36_6 H 0.814654 0.731149 0.37662
H37_7 H 0.809899 0.729525 0.310256
H38_7 H 0.927064 0.880914 0.330943
H39_7 H 0.904604 0.863844 0.272326
H40_6 H 0.965184 0.837557 0.406099
H41_6 H 0.955873 0.870388 0.377072
H42_6 H 0.95477 0.761097 0.342212
H43_7 H 0.980016 0.805907 0.315096
H44_7 H 0.864701 0.707591 0.290641
H45_7 H 0.892772 0.737595 0.241927
Gd2_7 Gd 0.431501(17) 0.213691(24) 0.491796(19)
Cu1_7 Cu 0.33476(4) 0.19384(6) 0.45643(5)
Cu2_7 Cu 0.43622(4) 0.13801(6) 0.41703(5)
Cu3_7 Cu 0.48713(5) 0.29511(7) 0.40544(5)
Cu4_7 Cu 0.35980(4) 0.20544(6) 0.58590(5)
Cu5_7 Cu 0.51080(4) 0.30606(6) 0.53432(5)
Cu6_7 Cu 0.46008(4) 0.14717(6) 0.54753(5)
O1_7 O 0.3912(2) 0.2320(3) 0.4316(3)
O2_7 O 0.4258(3) 0.2768(4) 0.3639(3)
O3_7 O 0.3958(2) 0.1559(3) 0.4288(3)
O4_7 O 0.3335(2) 0.1417(4) 0.4056(3)
O5_7 O 0.4718(2) 0.2381(3) 0.4079(3)
O6_7 O 0.4715(2) 0.1897(3) 0.3559(3)
O7_7 O 0.4166(2) 0.2441(3) 0.5720(3)
O8_7 O 0.4675(3) 0.3031(4) 0.6027(3)
O9_7 O 0.4939(2) 0.2472(3) 0.5439(3)
O10_7 O 0.5122(2) 0.2061(4) 0.5839(3)
O11_7 O 0.42120(19) 0.16644(28) 0.5658(3)
O12_7 O 0.3828(2) 0.1668(3) 0.6336(3)
O13_7 O 0.2480(2) 0.1377(3) 0.4090(3)
O14_7 O 0.2822(2) 0.1591(3) 0.4897(3)
O16_8 O 0.4871(2) 0.1189(3) 0.5179(3)
O18_8 O 0.5255(3) 0.3612(4) 0.5113(3)
O19_7 O 0.36157(19) 0.18119(27) 0.5161(2)
O20_7 O 0.46637(19) 0.17431(28) 0.4777(2)
O21_7 O 0.4661(2) 0.2856(3) 0.4805(2)
O22_7 O 0.3414(3) 0.2473(4) 0.5238(3)
O23_7 O 0.3996(3) 0.0861(4) 0.4903(4)
O24_7 O 0.5530(3) 0.3080(4) 0.4519(3)
O25_8 O 0.4759(2) 0.1187(3) 0.4092(3)
O26_8 O 0.5013(3) 0.3524(4) 0.4099(3)
O27_7 O 0.3027(2) 0.1650(3) 0.5968(3)
O28_8 O 0.1408(2) 0.0433(4) 0.3127(3)
O29_7 O 0.2699(2) 0.0971(3) 0.3413(4)
O30_8 O 0.2678(3) 0.1589(4) 0.2821(4)
O31_7 O 0.2104(3) 0.1711(4) 0.3446(4)
O32_7 O 0.1564(3) 0.1000(4) 0.3956(4)
O33_7 O 0.1955(3) 0.0485(5) 0.3913(4)
N1_7 N 0.3200(3) 0.2172(4) 0.3924(4)
H1_7 H 0.3050 0.1973 0.3683
H2_7 H 0.3049 0.2278 0.4043
N2_7 N 0.3965(3) 0.1024(4) 0.3628(4)
H3_8 H 0.4069 0.1102 0.3287
H4_7 H 0.3911 0.0768 0.3680
N3_7 N 0.5138(3) 0.2976(4) 0.3356(4)
H5_8 H 0.5079 0.3112 0.3104
H6_7 H 0.5408 0.3104 0.3401
N4_7 N 0.3661(3) 0.2385(4) 0.6507(4)
H7_7 H 0.3497 0.2491 0.6480
H8_4 H 0.3592 0.2231 0.6812
N5_7 N 0.5525(3) 0.3174(5) 0.5858(4)
H9_8 H 0.5765 0.3367 0.5724
H10_7 H 0.5476 0.3264 0.6174
N6_7 N 0.4442(3) 0.1198(4) 0.6212(4)
H11_8 H 0.4278 0.0928 0.6169
H12_8 H 0.4664 0.1240 0.6399
C1_7 C 0.3569(4) 0.2491(6) 0.3646(6)
H13_7 H 0.3577 0.2748 0.3687
H14_8 H 0.3548 0.2429 0.3257
C2_7 C 0.3966(5) 0.2537(6) 0.3862(6)
C3_7 C 0.3599(4) 0.1041(6) 0.3675(6)
H15_7 H 0.3385 0.0780 0.3805
H16_8 H 0.3522 0.1084 0.3311
C4_7 C 0.3622(4) 0.1355(6) 0.4041(4)
C5_8 C 0.4997(4) 0.2584(6) 0.3187(5)
H17_8 H 0.5224 0.2567 0.3037
H18_8 H 0.4807 0.2528 0.2889
C6_7 C 0.4787(4) 0.2246(6) 0.3628(5)
C7_7 C 0.4073(4) 0.2703(6) 0.6546(5)
H19_4 H 0.4196 0.2657 0.6867
H20_7 H 0.4079 0.2959 0.6598
C8_7 C 0.4315(4) 0.2734(6) 0.6057(4)
C9_7 C 0.5539(4) 0.2766(6) 0.5970(5)
H21_7 H 0.5782 0.2790 0.5804
H22_7 H 0.5555 0.2733 0.6363
C10_7 C 0.5175(4) 0.2397(6) 0.5743(4)
C11_7 C 0.4229(4) 0.1372(6) 0.6515(5)
H23_4 H 0.4413 0.1565 0.6783
H24_4 H 0.4003 0.1156 0.6714
C12_7 C 0.4070(4) 0.1583(6) 0.6146(5)
C13_7 C 0.2501(4) 0.1369(6) 0.4622(5)
H25_7 H 0.2268 0.1189 0.4814
C14_8 C 0.5078(4) 0.1100(6) 0.5444(5)
H26_8 H 0.5165 0.0940 0.5267
C15_8 C 0.5363(4) 0.3889(6) 0.5433(5)
H27_8 H 0.5372 0.4121 0.5295
H28_8 H 0.461391 0.0885842 0.410911
H29_8 H 0.49007 0.127795 0.373253
H30_7 H 0.300223 0.138189 0.604449
H31_7 H 0.291798 0.173065 0.628335
H32_7 H 0.183357 0.0505314 0.426368
H33_7 H 0.176441 0.0227052 0.372485
H34_8 H 0.480675 0.354585 0.432159
H35_8 H 0.528363 0.368475 0.42741
H36_7 H 0.268851 0.0835046 0.37662
H37_8 H 0.270475 0.0803745 0.310256
H38_8 H 0.119086 0.0461506 0.330943
H39_8 H 0.136156 0.0407593 0.272326
H40_7 H 0.162443 0.127627 0.406099
H41_7 H 0.129612 0.085485 0.377072
H42_7 H 0.238903 0.193672 0.342212
H43_8 H 0.194093 0.174109 0.315096
H44_8 H 0.292409 0.157111 0.290641
H45_8 H 0.262405 0.155177 0.241927
Gd2_8 Gd 0.786309(24) 0.217811(17) 0.491796(19)
Cu1_8 Cu 0.80616(6) 0.14093(4) 0.45643(5)
Cu2_8 Cu 0.86199(6) 0.29822(4) 0.41703(5)
Cu3_8 Cu 0.70489(7) 0.19203(5) 0.40544(5)
Cu4_8 Cu 0.79456(6) 0.15437(4) 0.58590(5)
Cu5_8 Cu 0.69394(6) 0.20475(5) 0.53432(5)
Cu6_8 Cu 0.85283(6) 0.31292(4) 0.54753(5)
O1_8 O 0.7680(3) 0.1593(2) 0.4316(3)
O2_8 O 0.7232(4) 0.1491(3) 0.3639(3)
O3_8 O 0.8441(3) 0.2400(2) 0.4288(3)
O4_8 O 0.8583(4) 0.1919(3) 0.4056(3)
O5_8 O 0.7619(3) 0.2338(2) 0.4079(3)
O6_8 O 0.8103(3) 0.2819(2) 0.3559(3)
O7_8 O 0.7559(3) 0.1726(2) 0.5720(3)
O8_8 O 0.6969(4) 0.1645(3) 0.6027(3)
O9_8 O 0.7528(3) 0.2468(2) 0.5439(3)
O10_8 O 0.7939(4) 0.3062(3) 0.5839(3)
O11_8 O 0.83356(28) 0.2548(2) 0.5658(3)
O12_8 O 0.8332(3) 0.2161(2) 0.6336(3)
O13_8 O 0.8623(3) 0.1104(2) 0.4090(3)
O14_8 O 0.8409(3) 0.1232(2) 0.4897(3)
O16_9 O 0.8811(3) 0.3683(2) 0.5179(3)
O18_9 O 0.6388(4) 0.1644(3) 0.5113(3)
O19_8 O 0.81881(27) 0.18039(19) 0.5161(2)
O20_8 O 0.82569(28) 0.2921(2) 0.4777(2)
O21_8 O 0.7144(3) 0.1806(2) 0.4805(2)
O22_8 O 0.7527(4) 0.0942(2) 0.5238(3)
O23_8 O 0.9139(4) 0.3136(3) 0.4903(4)
O24_8 O 0.6920(4) 0.2451(3) 0.4519(3)
O25_9 O 0.8813(3) 0.3573(2) 0.4092(3)
O26_9 O 0.6476(4) 0.1490(3) 0.4099(3)
O27_8 O 0.8350(3) 0.1378(2) 0.5968(3)
O28_9 O 0.9567(4) 0.0976(3) 0.3127(3)
O29_8 O 0.9029(3) 0.1729(2) 0.3413(4)
O30_9 O 0.8411(4) 0.1090(3) 0.2821(4)
O31_8 O 0.8289(4) 0.0394(3) 0.3446(4)
O32_8 O 0.9000(4) 0.0565(3) 0.3956(4)
O33_8 O 0.9515(5) 0.1471(4) 0.3913(4)
N1_8 N 0.7828(4) 0.1029(3) 0.3924(4)
H1_8 H 0.8027 0.1078 0.3683
H2_8 H 0.7722 0.0772 0.4043
N2_8 N 0.8976(4) 0.2942(3) 0.3628(4)
H3_9 H 0.8898 0.2968 0.3287
H4_8 H 0.9232 0.3144 0.3680
N3_8 N 0.7024(4) 0.2163(3) 0.3356(4)
H5_9 H 0.6888 0.1968 0.3104
H6_8 H 0.6896 0.2305 0.3401
N4_8 N 0.7615(4) 0.1277(3) 0.6507(4)
H7_8 H 0.7509 0.1007 0.6480
H8_5 H 0.7769 0.1362 0.6812
N5_8 N 0.6826(5) 0.2352(4) 0.5858(4)
H9_9 H 0.6633 0.2399 0.5724
H10_8 H 0.6736 0.2213 0.6174
N6_8 N 0.8802(4) 0.3245(3) 0.6212(4)
H11_9 H 0.9072 0.3351 0.6169
H12_9 H 0.8760 0.3425 0.6399
C1_8 C 0.7509(6) 0.1079(4) 0.3646(6)
H13_8 H 0.7252 0.0830 0.3687
H14_9 H 0.7571 0.1120 0.3257
C2_8 C 0.7463(6) 0.1430(4) 0.3862(6)
C3_8 C 0.8959(6) 0.2559(4) 0.3675(6)
H15_8 H 0.9220 0.2606 0.3805
H16_9 H 0.8916 0.2439 0.3311
C4_8 C 0.8645(6) 0.2268(4) 0.4041(4)
C5_9 C 0.7416(6) 0.2414(4) 0.3187(5)
H17_9 H 0.7433 0.2658 0.3037
H18_9 H 0.7472 0.2280 0.2889
C6_8 C 0.7754(6) 0.2542(4) 0.3628(5)
C7_8 C 0.7297(6) 0.1371(4) 0.6546(5)
H19_5 H 0.7343 0.1540 0.6867
H20_8 H 0.7041 0.1121 0.6598
C8_8 C 0.7266(6) 0.1582(4) 0.6057(4)
C9_8 C 0.7234(6) 0.2774(5) 0.5970(5)
H21_8 H 0.7210 0.2993 0.5804
H22_8 H 0.7267 0.2823 0.6363
C10_8 C 0.7603(6) 0.2779(4) 0.5743(4)
C11_8 C 0.8628(6) 0.2858(4) 0.6515(5)
H23_5 H 0.8435 0.2849 0.6783
H24_5 H 0.8844 0.2848 0.6714
C12_8 C 0.8417(6) 0.2488(4) 0.6146(5)
C13_8 C 0.8631(6) 0.1133(4) 0.4622(5)
H25_8 H 0.8811 0.1080 0.4814
C14_9 C 0.8900(6) 0.3979(4) 0.5444(5)
H26_9 H 0.9060 0.4226 0.5267
C15_9 C 0.6111(6) 0.1475(5) 0.5433(5)
H27_9 H 0.5879 0.1252 0.5295
H28_9 H 0.911416 0.372807 0.410911
H29_9 H 0.872205 0.362275 0.373253
H30_8 H 0.861811 0.162034 0.604449
H31_8 H 0.826935 0.118733 0.628335
H32_8 H 0.949469 0.132826 0.426368
H33_8 H 0.977295 0.153735 0.372485
H34_9 H 0.645415 0.12609 0.432159
H35_9 H 0.631525 0.159888 0.42741
H36_8 H 0.916495 0.185346 0.37662
H37_9 H 0.919625 0.190101 0.310256
H38_9 H 0.953849 0.0729356 0.330943
H39_9 H 0.959241 0.0953964 0.272326
H40_8 H 0.872373 0.0348161 0.406099
H41_8 H 0.914515 0.0441267 0.377072
H42_8 H 0.806328 0.0452304 0.342212
H43_9 H 0.825891 0.0199844 0.315096
H44_9 H 0.842889 0.135299 0.290641
H45_9 H 0.844823 0.107228 0.241927
H8_6 H 0.5305 0.9741 0.0145
H19_6 H 0.5127 0.9137 0.0200
H23_6 H 0.3818 0.8920 0.0116
H24_6 H 0.3819 0.9330 0.0047
H8_7 H 0.0259 0.5564 0.0145
H19_7 H 0.0863 0.5990 0.0200
H23_7 H 0.1080 0.4898 0.0116
H24_7 H 0.0670 0.4489 0.0047
H8_8 H 0.4436 0.4695 0.0145
H19_8 H 0.4010 0.4873 0.0200
H23_8 H 0.5102 0.6182 0.0116
H24_8 H 0.5511 0.6181 0.0047
Gd2_9 Gd 0.119643(24) 0.884477(17) 0.158462(19)
Cu1_9 Cu 0.13950(6) 0.80759(4) 0.12309(5)
Cu2_9 Cu 0.19533(6) 0.96488(4) 0.08369(5)
Cu3_9 Cu 0.03823(7) 0.85869(5) 0.07210(5)
Cu4_9 Cu 0.12790(6) 0.82103(4) 0.25256(5)
Cu5_9 Cu 0.02728(6) 0.87141(5) 0.20098(5)
Cu6_9 Cu 0.18617(6) 0.97958(4) 0.21419(5)
O1_9 O 0.1014(3) 0.8259(2) 0.0982(3)
O2_9 O 0.0566(4) 0.8157(3) 0.0305(3)
O3_9 O 0.1775(3) 0.9066(2) 0.0954(3)
O4_9 O 0.1917(4) 0.8585(3) 0.0722(3)
O5_9 O 0.0953(3) 0.9004(2) 0.0745(3)
O6_9 O 0.1437(3) 0.9485(2) 0.0225(3)
O7_9 O 0.0893(3) 0.8392(2) 0.2386(3)
O8_9 O 0.0303(4) 0.8311(3) 0.2693(3)
O9_9 O 0.0862(3) 0.9134(2) 0.2105(3)
O10_9 O 0.1273(4) 0.9728(3) 0.2505(3)
O11_9 O 0.16690(28) 0.9214(2) 0.2324(3)
O12_9 O 0.1666(3) 0.8827(2) 0.3002(3)
O13_9 O 0.1957(3) 0.7770(2) 0.0756(3)
O14_9 O 0.1743(3) 0.7898(2) 0.1563(3)
O19_9 O 0.15215(27) 0.84705(19) 0.1827(2)
O20_9 O 0.15903(28) 0.9587(2) 0.1443(2)
O21_9 O 0.0478(3) 0.8472(2) 0.1471(2)
O22_9 O 0.0861(4) 0.7608(2) 0.1904(3)
O23_9 O 0.2473(4) 0.9802(3) 0.1569(4)
O24_9 O 0.0254(4) 0.9117(3) 0.1185(3)
O27_9 O 0.1684(3) 0.8044(2) 0.2634(3)
O29_9 O 0.2363(3) 0.8395(2) 0.0079(4)
O31_9 O 0.1623(4) 0.7060(3) 0.0112(4)
O32_9 O 0.2334(4) 0.7231(3) 0.0622(4)
O33_9 O 0.2849(5) 0.8137(4) 0.0579(4)
N1_9 N 0.1162(4) 0.7695(3) 0.0590(4)
H1_9 H 0.1361 0.7744 0.0349
H2_9 H 0.1056 0.7438 0.0709
N2_9 N 0.2310(4) 0.9608(3) 0.0294(4)
H4_9 H 0.2566 0.9810 0.0346
N3_9 N 0.0358(4) 0.8829(3) 0.0022(4)
H6_9 H 0.0230 0.8971 0.0067
N4_9 N 0.0949(4) 0.7943(3) 0.3173(4)
H7_9 H 0.0843 0.7673 0.3146
H8_9 H 0.1103 0.8028 0.3478
N5_9 N 0.0160(5) 0.9018(4) 0.2524(4)
H10_9 H 0.0070 0.8879 0.2840
N6_9 N 0.2136(4) 0.9911(3) 0.2878(4)
C1_9 C 0.0843(6) 0.7745(4) 0.0312(6)
H13_9 H 0.0586 0.7496 0.0353
C2_9 C 0.0797(6) 0.8096(4) 0.0528(6)
C3_9 C 0.2293(6) 0.9225(4) 0.0341(6)
H15_9 H 0.2554 0.9272 0.0471
C4_9 C 0.1979(6) 0.8934(4) 0.0707(4)
C6_9 C 0.1088(6) 0.9208(4) 0.0294(5)
C7_9 C 0.0631(6) 0.8037(4) 0.3212(5)
H19_9 H 0.0677 0.8206 0.3533
H20_9 H 0.0375 0.7787 0.3264
C8_9 C 0.0600(6) 0.8248(4) 0.2723(4)
C9_9 C 0.0568(6) 0.9440(5) 0.2636(5)
H21_9 H 0.0544 0.9659 0.2470
H22_9 H 0.0601 0.9489 0.3029
C10_9 C 0.0937(6) 0.9445(4) 0.2409(4)
C11_9 C 0.1962(6) 0.9524(4) 0.3181(5)
H23_9 H 0.1769 0.9515 0.3449
H24_9 H 0.2178 0.9514 0.3380
C12_9 C 0.1751(6) 0.9154(4) 0.2812(5)
C13_9 C 0.1965(6) 0.7799(4) 0.1288(5)
H25_9 H 0.2145 0.7746 0.1480
H30_9 H 0.195145 0.828701 0.271116
H31_9 H 0.160268 0.785399 0.295002
H32_9 H 0.282802 0.799492 0.0930345
H33_9 H 0.310628 0.820402 0.0391516
H36_9 H 0.249829 0.852013 0.0432868
H40_9 H 0.205707 0.701483 0.0727653
H41_9 H 0.247848 0.710793 0.0437389
H42_9 H 0.139661 0.711897 0.00887915
Gd2_10 Gd 0.551144(17) 0.098168(17) 0.174871(19)
Cu1_10 Cu 0.47426(4) 0.00143(4) 0.21024(5)
Cu2_10 Cu 0.63155(4) 0.10289(4) 0.24964(5)
Cu3_10 Cu 0.52536(5) 0.15380(5) 0.26123(5)
Cu4_10 Cu 0.48770(4) 0.02647(4) 0.08077(5)
Cu5_10 Cu 0.53808(5) 0.17747(4) 0.13235(5)
Cu6_10 Cu 0.64625(4) 0.12675(4) 0.11914(5)
O1_10 O 0.4926(2) 0.0579(2) 0.2351(3)
O2_10 O 0.4824(3) 0.0925(3) 0.3028(3)
O3_10 O 0.5733(2) 0.0625(2) 0.2379(3)
O4_10 O 0.5252(3) 0.0002(2) 0.2611(3)
O5_10 O 0.5671(2) 0.1385(2) 0.2588(3)
O6_10 O 0.6152(2) 0.1382(2) 0.3108(3)
O7_10 O 0.5059(2) 0.0833(2) 0.0947(3)
O8_10 O 0.4978(3) 0.1342(3) 0.0640(3)
O9_10 O 0.5801(2) 0.1606(2) 0.1228(3)
O10_10 O 0.6395(3) 0.1789(2) 0.0828(3)
O11_10 O 0.5881(2) 0.08787(19) 0.1009(3)
O12_10 O 0.5494(2) 0.0495(2) 0.0331(3)
O15_7 O 0.7332(2) 0.1860(2) 0.0742(4)
O16_10 O 0.7016(2) 0.1538(2) 0.1488(3)
O17_7 O 0.4895(3) 0.2135(3) 0.0729(3)
O18_10 O 0.4977(3) 0.1922(3) 0.1554(3)
O19_10 O 0.51372(19) 0.02824(19) 0.1506(2)
O20_10 O 0.6254(2) 0.13304(19) 0.1890(2)
O21_10 O 0.5139(2) 0.1328(2) 0.1862(2)
O22_10 O 0.4275(2) 0.0081(3) 0.1429(3)
O23_10 O 0.6469(3) 0.0663(3) 0.1764(4)
O24_10 O 0.5784(3) 0.2197(3) 0.2148(3)
O25_10 O 0.6906(2) 0.1426(2) 0.2575(3)
O26_10 O 0.4823(3) 0.1680(3) 0.2568(3)
N2_10 N 0.6275(3) 0.0632(3) 0.3039(4)
H3_10 H 0.6301 0.0736 0.3380
H4_10 H 0.6477 0.0578 0.2987
N3_10 N 0.5496(3) 0.1805(3) 0.3311(4)
H5_10 H 0.5301 0.1746 0.3563
H6_10 H 0.5638 0.2075 0.3266
N4_10 N 0.4610(3) 0.0328(3) 0.0160(4)
H7_10 H 0.4340 0.0164 0.0187
N5_10 N 0.5685(4) 0.2192(3) 0.0809(4)
H9_10 H 0.5732 0.2432 0.0943
H10_10 H 0.5546 0.2143 0.0493
N6_10 N 0.6578(3) 0.1109(3) 0.0455(4)
H11_10 H 0.6684 0.0945 0.0498
H12_10 H 0.6758 0.1331 0.0268
C1_10 C 0.4412(4) 0.0236(4) 0.3021(6)
H13_10 H 0.4163 0.0244 0.2980
H14_10 H 0.4453 0.0215 0.3410
C2_10 C 0.4763(4) 0.0633(5) 0.2805(6)
C3_10 C 0.5892(4) 0.0266(4) 0.2992(6)
H15_10 H 0.5939 0.0052 0.2862
H16_10 H 0.5772 0.0189 0.3356
C4_10 C 0.5601(4) 0.0289(4) 0.2626(4)
C5_10 C 0.5747(4) 0.1664(4) 0.3480(5)
H17_10 H 0.5991 0.1891 0.3630
H18_10 H 0.5613 0.1474 0.3778
C6_10 C 0.5875(4) 0.1454(4) 0.3039(5)
C7_10 C 0.4704(4) 0.0740(4) 0.0121(5)
H20_10 H 0.4454 0.0746 0.0069
C8_10 C 0.4915(4) 0.0982(4) 0.0610(4)
C9_10 C 0.6107(5) 0.2206(4) 0.0697(5)
H21_10 H 0.6326 0.2449 0.0863
H22_10 H 0.6156 0.2222 0.0304
C10_10 C 0.6112(4) 0.1842(4) 0.0924(4)
C11_10 C 0.6191(4) 0.0896(4) 0.0152(5)
C12_10 C 0.5821(4) 0.0737(4) 0.0521(5)
C14_10 C 0.7312(4) 0.1745(4) 0.1223(5)
H26_10 H 0.7559 0.1832 0.1400
C15_10 C 0.4808(5) 0.2030(4) 0.1234(5)
H27_10 H 0.4585 0.2039 0.1372
Gd3_3 Gd 0.45792(2) 0.228448(28) 0.00042(2)
Gd4_5 Gd 0.771552(28) 0.229476(19) 0.00042(2)
H28_10 H 0.706141 0.128058 0.255756
H29_10 H 0.695608 0.156737 0.293414
H34_10 H 0.459423 0.147342 0.234508
H35_10 H 0.493221 0.19503 0.239257
Gd1_4 Gd 0.437191(19) 0.87541(2) 0.33375(2)
O13_10 O 0.4437(2) 0.9147(2) 0.2577(3)
O14_10 O 0.4565(2) 0.9489(2) 0.1770(3)
O27_10 O 0.4711(2) 0.9694(2) 0.0699(3)
O28_10 O 0.4309(3) 0.8075(2) 0.3540(3)
O29_10 O 0.5062(2) 0.9366(2) 0.3254(4)
O30_10 O 0.4423(3) 0.9345(3) 0.3846(4)
O31_10 O 0.3727(3) 0.8771(3) 0.3221(4)
O32_10 O 0.3898(3) 0.8231(3) 0.2711(4)
O33_10 O 0.4804(4) 0.8622(3) 0.2754(4)
N1_10 N 0.4362(3) 0.9867(3) 0.2743(4)
H1_10 H 0.4411 0.9717 0.2984
H2_10 H 0.4105 0.9716 0.2624
C13_10 C 0.4466(4) 0.9168(4) 0.2045(5)
H25_10 H 0.4413 0.8935 0.1853
O34_4 O 0.4807(2) 0.8805(3) 0.4075(4)
O35_4 O 0.3907(4) 0.8438(3) 0.4062(3)
H30_10 H 0.495368 0.96689 0.0622175
H31_10 H 0.452066 0.958464 0.0383315
H32_10 H 0.466159 0.850024 0.240299
H33_10 H 0.487069 0.843107 0.294182
H36_10 H 0.518679 0.935517 0.290046
H37_10 H 0.523434 0.937142 0.356411
H38_10 H 0.406269 0.785753 0.335724
H39_10 H 0.42873 0.802822 0.394341
H40_10 H 0.368149 0.829109 0.260568
H41_10 H 0.37746 0.796278 0.289594
H42_10 H 0.378564 0.905569 0.324454
H43_10 H 0.353318 0.86076 0.351571
H44_10 H 0.468632 0.959076 0.376025
H45_10 H 0.440561 0.929072 0.424739
Gd1_5 Gd 0.12459(2) 0.561781(28) 0.33375(2)
O13_11 O 0.0853(2) 0.5290(3) 0.2577(3)
O14_11 O 0.0511(2) 0.5076(3) 0.1770(3)
O27_11 O 0.0306(2) 0.5017(3) 0.0699(3)
O28_11 O 0.1925(2) 0.6234(4) 0.3540(3)
O29_11 O 0.0634(2) 0.5696(3) 0.3254(4)
O30_11 O 0.0655(3) 0.5078(4) 0.3846(4)
O31_11 O 0.1229(3) 0.4956(4) 0.3221(4)
O32_11 O 0.1769(3) 0.5667(4) 0.2711(4)
O33_11 O 0.1378(3) 0.6182(5) 0.2754(4)
N1_11 N 0.0133(3) 0.4495(4) 0.2743(4)
H1_11 H 0.0283 0.4694 0.2984
H2_11 H 0.0284 0.4389 0.2624
C13_11 C 0.0832(4) 0.5298(6) 0.2045(5)
H25_11 H 0.1065 0.5478 0.1853
O34_5 O 0.1195(3) 0.6001(4) 0.4075(4)
O35_5 O 0.1562(3) 0.5468(5) 0.4062(3)
H30_11 H 0.0331104 0.528478 0.0622175
H31_11 H 0.0415357 0.493602 0.0383315
H32_11 H 0.149976 0.616135 0.240299
H33_11 H 0.156893 0.643961 0.294182
H36_11 H 0.0644828 0.583162 0.290046
H37_11 H 0.0628579 0.586292 0.356411
H38_11 H 0.214247 0.620516 0.335724
H39_11 H 0.197178 0.625907 0.394341
H40_11 H 0.170891 0.53904 0.260568
H41_11 H 0.203722 0.581182 0.289594
H42_11 H 0.0944307 0.472994 0.324454
H43_11 H 0.13924 0.492558 0.351571
H44_11 H 0.0409241 0.509556 0.376025
H45_11 H 0.0709281 0.511489 0.424739
Gd2_11 Gd 0.901832(17) 0.452976(24) 0.174871(19)
Cu1_11 Cu 0.99857(4) 0.47283(6) 0.21024(5)
Cu2_11 Cu 0.89711(4) 0.52866(6) 0.24964(5)
Cu3_11 Cu 0.84620(5) 0.37156(7) 0.26123(5)
Cu4_11 Cu 0.97353(4) 0.46123(6) 0.08077(5)
Cu5_11 Cu 0.82253(4) 0.36061(6) 0.13235(5)
Cu6_11 Cu 0.87325(4) 0.51950(6) 0.11914(5)
O1_11 O 0.9421(2) 0.4347(3) 0.2351(3)
O2_11 O 0.9075(3) 0.3899(4) 0.3028(3)
O3_11 O 0.9375(2) 0.5108(3) 0.2379(3)
O4_11 O 0.9998(2) 0.5250(4) 0.2611(3)
O5_11 O 0.8615(2) 0.4286(3) 0.2588(3)
O6_11 O 0.8618(2) 0.4770(3) 0.3108(3)
O7_11 O 0.9167(2) 0.4226(3) 0.0947(3)
O8_11 O 0.8658(3) 0.3636(4) 0.0640(3)
O9_11 O 0.8394(2) 0.4195(3) 0.1228(3)
O10_11 O 0.8211(2) 0.4606(4) 0.0828(3)
O11_11 O 0.91213(19) 0.50023(28) 0.1009(3)
O12_11 O 0.9505(2) 0.4999(3) 0.0331(3)
O15_8 O 0.8140(2) 0.5472(3) 0.0742(4)
O16_11 O 0.8462(2) 0.5478(3) 0.1488(3)
O17_8 O 0.7865(3) 0.2760(4) 0.0729(3)
O18_11 O 0.8078(3) 0.3055(4) 0.1554(3)
O19_11 O 0.97176(19) 0.48548(27) 0.1506(2)
O20_11 O 0.86696(19) 0.49236(28) 0.1890(2)
O21_11 O 0.8672(2) 0.3811(3) 0.1862(2)
O22_11 O 0.9919(3) 0.4194(4) 0.1429(3)
O23_11 O 0.9337(3) 0.5806(4) 0.1764(4)
O24_11 O 0.7803(3) 0.3587(4) 0.2148(3)
O25_11 O 0.8574(2) 0.5480(3) 0.2575(3)
O26_11 O 0.8320(3) 0.3143(4) 0.2568(3)
N2_11 N 0.9368(3) 0.5643(4) 0.3039(4)
H3_11 H 0.9264 0.5565 0.3380
H4_11 H 0.9422 0.5899 0.2987
N3_11 N 0.8195(3) 0.3691(4) 0.3311(4)
H5_11 H 0.8254 0.3555 0.3563
H6_11 H 0.7925 0.3563 0.3266
N4_11 N 0.9672(3) 0.4282(4) 0.0160(4)
H7_11 H 0.9836 0.4176 0.0187
N5_11 N 0.7808(3) 0.3493(5) 0.0809(4)
H9_11 H 0.7568 0.3300 0.0943
H10_11 H 0.7857 0.3403 0.0493
N6_11 N 0.8891(3) 0.5469(4) 0.0455(4)
H11_11 H 0.9055 0.5739 0.0498
H12_11 H 0.8669 0.5427 0.0268
C1_11 C 0.9764(4) 0.4176(6) 0.3021(6)
H13_11 H 0.9756 0.3919 0.2980
H14_11 H 0.9785 0.4238 0.3410
C2_11 C 0.9367(5) 0.4130(6) 0.2805(6)
C3_11 C 0.9734(4) 0.5626(6) 0.2992(6)
H15_11 H 0.9948 0.5887 0.2862
H16_11 H 0.9811 0.5583 0.3356
C4_11 C 0.9711(4) 0.5312(6) 0.2626(4)
C5_11 C 0.8336(4) 0.4083(6) 0.3480(5)
H17_11 H 0.8109 0.4100 0.3630
H18_11 H 0.8526 0.4139 0.3778
C6_11 C 0.8546(4) 0.4421(6) 0.3039(5)
C7_11 C 0.9260(4) 0.3964(6) 0.0121(5)
H20_11 H 0.9254 0.3708 0.0069
C8_11 C 0.9018(4) 0.3933(6) 0.0610(4)
C9_11 C 0.7794(4) 0.3901(6) 0.0697(5)
H21_11 H 0.7551 0.3877 0.0863
H22_11 H 0.7778 0.3934 0.0304
C10_11 C 0.8158(4) 0.4270(6) 0.0924(4)
C11_11 C 0.9104(4) 0.5295(6) 0.0152(5)
C12_11 C 0.9263(4) 0.5084(6) 0.0521(5)
C14_11 C 0.8255(4) 0.5567(6) 0.1223(5)
H26_11 H 0.8168 0.5727 0.1400
C15_11 C 0.7970(4) 0.2778(6) 0.1234(5)
H27_11 H 0.7961 0.2546 0.1372
Gd4_6 Gd 0.770524(19) 0.542077(34) 0.00042(2)
H28_11 H 0.871942 0.578082 0.255756
H29_11 H 0.843263 0.538871 0.293414
H34_11 H 0.852658 0.312082 0.234508
H35_11 H 0.80497 0.298192 0.239257
Gd1_6 Gd 0.438219(28) 0.562809(19) 0.33375(2)
Gd2_12 Gd 0.547024(24) 0.448856(17) 0.174871(19)
Cu1_12 Cu 0.52717(6) 0.52574(4) 0.21024(5)
Cu2_12 Cu 0.47134(6) 0.36845(4) 0.24964(5)
Cu3_12 Cu 0.62844(7) 0.47464(5) 0.26123(5)
Cu4_12 Cu 0.53877(6) 0.51230(4) 0.08077(5)
Cu5_12 Cu 0.63939(6) 0.46192(5) 0.13235(5)
Cu6_12 Cu 0.48050(6) 0.35375(4) 0.11914(5)
O1_12 O 0.5653(3) 0.5074(2) 0.2351(3)
O2_12 O 0.6101(4) 0.5176(3) 0.3028(3)
O3_12 O 0.4892(3) 0.4267(2) 0.2379(3)
O4_12 O 0.4750(4) 0.4748(3) 0.2611(3)
O5_12 O 0.5714(3) 0.4329(2) 0.2588(3)
O6_12 O 0.5230(3) 0.3848(2) 0.3108(3)
O7_12 O 0.5774(3) 0.4941(2) 0.0947(3)
O8_12 O 0.6364(4) 0.5022(3) 0.0640(3)
O9_12 O 0.5805(3) 0.4199(2) 0.1228(3)
O10_12 O 0.5394(4) 0.3605(3) 0.0828(3)
O11_12 O 0.49977(28) 0.4119(2) 0.1009(3)
O12_12 O 0.5001(3) 0.4506(2) 0.0331(3)
O13_12 O 0.4710(3) 0.5563(2) 0.2577(3)
O14_12 O 0.4924(3) 0.5435(2) 0.1770(3)
O15_9 O 0.4528(3) 0.2668(2) 0.0742(4)
O16_12 O 0.4522(3) 0.2984(2) 0.1488(3)
O17_9 O 0.7240(4) 0.5105(3) 0.0729(3)
O18_12 O 0.6945(4) 0.5023(3) 0.1554(3)
O19_12 O 0.51452(27) 0.48628(19) 0.1506(2)
O20_12 O 0.50764(28) 0.3746(2) 0.1890(2)
O21_12 O 0.6189(3) 0.4861(2) 0.1862(2)
O22_12 O 0.5806(4) 0.5725(2) 0.1429(3)
O23_12 O 0.4194(4) 0.3531(3) 0.1764(4)
O24_12 O 0.6413(4) 0.4216(3) 0.2148(3)
O25_12 O 0.4520(3) 0.3094(2) 0.2575(3)
O26_12 O 0.6857(4) 0.5177(3) 0.2568(3)
O27_12 O 0.4983(3) 0.5289(2) 0.0699(3)
O28_12 O 0.3766(4) 0.5691(3) 0.3540(3)
O29_12 O 0.4304(3) 0.4938(2) 0.3254(4)
O30_12 O 0.4922(4) 0.5577(3) 0.3846(4)
O31_12 O 0.5044(4) 0.6273(3) 0.3221(4)
O32_12 O 0.4333(4) 0.6102(3) 0.2711(4)
O33_12 O 0.3818(5) 0.5196(4) 0.2754(4)
N1_12 N 0.5505(4) 0.5638(3) 0.2743(4)
H1_12 H 0.5306 0.5589 0.2984
H2_12 H 0.5611 0.5895 0.2624
N2_12 N 0.4357(4) 0.3725(3) 0.3039(4)
H3_12 H 0.4435 0.3699 0.3380
H4_12 H 0.4101 0.3523 0.2987
N3_12 N 0.6309(4) 0.4504(3) 0.3311(4)
H5_12 H 0.6445 0.4699 0.3563
H6_12 H 0.6437 0.4362 0.3266
N4_12 N 0.5718(4) 0.5390(3) 0.0160(4)
H7_12 H 0.5824 0.5660 0.0187
N5_12 N 0.6507(5) 0.4315(4) 0.0809(4)
H9_12 H 0.6700 0.4268 0.0943
H10_12 H 0.6597 0.4454 0.0493
N6_12 N 0.4531(4) 0.3422(3) 0.0455(4)
H11_12 H 0.4261 0.3316 0.0498
H12_12 H 0.4573 0.3242 0.0268
C1_12 C 0.5824(6) 0.5588(4) 0.3021(6)
H13_12 H 0.6081 0.5837 0.2980
H14_12 H 0.5762 0.5547 0.3410
C2_12 C 0.5870(6) 0.5237(4) 0.2805(6)
C3_12 C 0.4374(6) 0.4108(4) 0.2992(6)
H15_12 H 0.4113 0.4061 0.2862
H16_12 H 0.4417 0.4228 0.3356
C4_12 C 0.4688(6) 0.4399(4) 0.2626(4)
C5_12 C 0.5917(6) 0.4253(4) 0.3480(5)
H17_12 H 0.5900 0.4009 0.3630
H18_12 H 0.5861 0.4387 0.3778
C6_12 C 0.5579(6) 0.4125(4) 0.3039(5)
C7_12 C 0.6036(6) 0.5296(4) 0.0121(5)
H20_12 H 0.6292 0.5546 0.0069
C8_12 C 0.6067(6) 0.5085(4) 0.0610(4)
C9_12 C 0.6099(6) 0.3893(5) 0.0697(5)
H21_12 H 0.6123 0.3674 0.0863
H22_12 H 0.6066 0.3844 0.0304
C10_12 C 0.5730(6) 0.3888(4) 0.0924(4)
C11_12 C 0.4705(6) 0.3809(4) 0.0152(5)
C12_12 C 0.4916(6) 0.4179(4) 0.0521(5)
C13_12 C 0.4702(6) 0.5534(4) 0.2045(5)
H25_12 H 0.4522 0.5587 0.1853
C14_12 C 0.4433(6) 0.2688(4) 0.1223(5)
H26_12 H 0.4273 0.2441 0.1400
C15_12 C 0.7222(6) 0.5192(5) 0.1234(5)
H27_12 H 0.7454 0.5415 0.1372
O34_6 O 0.3999(4) 0.5193(2) 0.4075(4)
O35_6 O 0.4532(5) 0.6093(4) 0.4062(3)
H28_12 H 0.421918 0.293859 0.255756
H29_12 H 0.461129 0.304392 0.293414
H30_12 H 0.471522 0.504632 0.0622175
H31_12 H 0.506398 0.547934 0.0383315
H32_12 H 0.383865 0.533841 0.240299
H33_12 H 0.356039 0.512931 0.294182
H34_12 H 0.687918 0.540577 0.234508
H35_12 H 0.701808 0.506779 0.239257
H36_12 H 0.416838 0.481321 0.290046
H37_12 H 0.413708 0.476566 0.356411
H38_12 H 0.379484 0.593731 0.335724
H39_12 H 0.374093 0.57127 0.394341
H40_12 H 0.46096 0.631851 0.260568
H41_12 H 0.418818 0.62254 0.289594
H42_12 H 0.527006 0.621436 0.324454
H43_12 H 0.507442 0.646682 0.351571
H44_12 H 0.490444 0.531368 0.376025
H45_12 H 0.488511 0.559439 0.424739
O15_10 O 0.0665(2) 0.8527(2) 0.7409(4)
O16_13 O 0.0349(2) 0.8205(2) 0.8155(3)
O25_13 O 0.0239(2) 0.8093(2) 0.9242(3)
H11_13 H 0.0017 0.7612 0.7165
H12_13 H 0.0091 0.7998 0.6935
C14_13 C 0.0645(4) 0.8412(4) 0.7890(5)
H26_13 H 0.0892 0.8499 0.8067
Gd4_7 Gd 0.104886(28) 0.896142(19) 0.66708(2)
H28_13 H 0.0394738 0.794725 0.922422
H29_13 H 0.0289413 0.823403 0.96008
O28_13 O 0.7642(3) 0.4742(2) 0.0207(3)
O30_13 O 0.7756(3) 0.6012(3) 0.0513(4)
H3_13 H 0.9634 0.7403 0.0047
H5_13 H 0.8634 0.8413 0.0230
H14_13 H 0.7786 0.6882 0.0077
H16_13 H 0.9105 0.6856 0.0023
C5_13 C 0.9080(4) 0.8331(4) 0.0147(5)
H17_13 H 0.9324 0.8558 0.0297
H18_13 H 0.8946 0.8141 0.0445
H37_13 H 0.856768 0.603809 0.0230773
H38_13 H 0.739602 0.452419 0.00239076
H39_13 H 0.762063 0.469489 0.0610075
H43_13 H 0.686651 0.527427 0.0182373
H44_13 H 0.801965 0.625743 0.0426919
H45_13 H 0.773895 0.595739 0.0914061
Gd2_13 Gd 0.884477(17) 0.764835(17) 0.841538(19)
Cu1_13 Cu 0.80759(4) 0.66810(4) 0.87691(5)
Cu2_13 Cu 0.96488(4) 0.76956(4) 0.91631(5)
Cu3_13 Cu 0.85869(5) 0.82047(5) 0.92790(5)
Cu4_13 Cu 0.82103(4) 0.69314(4) 0.74744(5)
Cu5_13 Cu 0.87141(5) 0.84414(4) 0.79902(5)
Cu6_13 Cu 0.97958(4) 0.79342(4) 0.78581(5)
O1_13 O 0.8259(2) 0.7246(2) 0.9018(3)
O2_13 O 0.8157(3) 0.7592(3) 0.9695(3)
O3_13 O 0.9066(2) 0.7292(2) 0.9046(3)
O4_13 O 0.8585(3) 0.6669(2) 0.9278(3)
O5_13 O 0.9004(2) 0.8052(2) 0.9255(3)
O6_13 O 0.9485(2) 0.8049(2) 0.9775(3)
O7_13 O 0.8392(2) 0.7500(2) 0.7614(3)
O8_13 O 0.8311(3) 0.8009(3) 0.7307(3)
O9_13 O 0.9134(2) 0.8273(2) 0.7895(3)
O10_13 O 0.9728(3) 0.8456(2) 0.7495(3)
O11_13 O 0.9214(2) 0.75454(19) 0.7676(3)
O12_13 O 0.8827(2) 0.7162(2) 0.6998(3)
O13_13 O 0.7770(2) 0.5814(2) 0.9244(3)
O14_13 O 0.7898(2) 0.6156(2) 0.8437(3)
O17_10 O 0.8228(3) 0.8802(3) 0.7396(3)
O18_13 O 0.8310(3) 0.8589(3) 0.8221(3)
O19_13 O 0.84705(19) 0.69491(19) 0.8173(2)
O20_13 O 0.9587(2) 0.79971(19) 0.8557(2)
O21_13 O 0.8472(2) 0.7995(2) 0.8529(2)
O22_13 O 0.7608(2) 0.6748(3) 0.8096(3)
O23_13 O 0.9802(3) 0.7330(3) 0.8431(4)
O24_13 O 0.9117(3) 0.8864(3) 0.8815(3)
O26_13 O 0.8156(3) 0.8347(3) 0.9235(3)
O27_13 O 0.8044(2) 0.6361(2) 0.7366(3)
O29_13 O 0.8395(2) 0.6033(2) 0.9921(4)
O31_13 O 0.7060(3) 0.5438(3) 0.9888(4)
O32_13 O 0.7231(3) 0.4898(3) 0.9378(4)
O33_13 O 0.8137(4) 0.5289(3) 0.9421(4)
N1_13 N 0.7695(3) 0.6534(3) 0.9410(4)
H1_13 H 0.7744 0.6384 0.9651
H2_13 H 0.7438 0.6383 0.9291
N2_13 N 0.9608(3) 0.7299(3) 0.9706(4)
H4_13 H 0.9810 0.7245 0.9654
N3_13 N 0.8829(3) 0.8472(3) 0.9978(4)
H6_13 H 0.8971 0.8742 0.9933
N4_13 N 0.7943(3) 0.6995(3) 0.6827(4)
H7_13 H 0.7673 0.6831 0.6854
H8_10 H 0.8028 0.6926 0.6522
N5_13 N 0.9018(4) 0.8859(3) 0.7476(4)
H9_13 H 0.9065 0.9099 0.7610
H10_13 H 0.8879 0.8810 0.7160
N6_13 N 0.9911(3) 0.7776(3) 0.7122(4)
C1_13 C 0.7745(4) 0.6903(4) 0.9688(6)
H13_13 H 0.7496 0.6911 0.9647
C2_13 C 0.8096(4) 0.7300(5) 0.9472(6)
C3_13 C 0.9225(4) 0.6933(4) 0.9659(6)
H15_13 H 0.9272 0.6719 0.9529
C4_13 C 0.8934(4) 0.6956(4) 0.9293(4)
C6_13 C 0.9208(4) 0.8121(4) 0.9706(5)
C7_13 C 0.8037(4) 0.7407(4) 0.6788(5)
H19_10 H 0.8206 0.7530 0.6467
H20_13 H 0.7787 0.7413 0.6736
C8_13 C 0.8248(4) 0.7649(4) 0.7277(4)
C9_13 C 0.9440(5) 0.8873(4) 0.7364(5)
H21_13 H 0.9659 0.9116 0.7530
H22_13 H 0.9489 0.8889 0.6971
C10_13 C 0.9445(4) 0.8509(4) 0.7591(4)
C11_13 C 0.9524(4) 0.7563(4) 0.6819(5)
H23_10 H 0.9515 0.7747 0.6551
H24_10 H 0.9514 0.7337 0.6620
C12_13 C 0.9154(4) 0.7404(4) 0.7188(5)
C13_13 C 0.7799(4) 0.5835(4) 0.8712(5)
H25_13 H 0.7746 0.5602 0.8520
C15_13 C 0.8141(5) 0.8697(4) 0.7901(5)
H27_13 H 0.7918 0.8706 0.8039
Gd3_4 Gd 0.79126(2) 0.895114(28) 0.66708(2)
H30_13 H 0.828701 0.633556 0.728884
H31_13 H 0.785399 0.625131 0.704998
H32_13 H 0.799492 0.51669 0.906965
H33_13 H 0.820402 0.509774 0.960848
H34_13 H 0.792757 0.814008 0.901174
H35_13 H 0.826555 0.861696 0.905924
H36_13 H 0.852013 0.602184 0.956713
H40_13 H 0.701483 0.495776 0.927235
H41_13 H 0.710793 0.462945 0.956261
H42_13 H 0.711897 0.572236 0.991121
O28_14 O 0.5258(2) 0.2901(4) 0.0207(3)
O30_14 O 0.3988(3) 0.1745(4) 0.0513(4)
H3_14 H 0.2597 0.2232 0.0047
H5_14 H 0.1587 0.0222 0.0230
H14_14 H 0.3118 0.0905 0.0077
H16_14 H 0.3144 0.2250 0.0023
C5_14 C 0.1669(4) 0.0750(6) 0.0147(5)
H17_14 H 0.1442 0.0767 0.0297
H18_14 H 0.1859 0.0806 0.0445
H37_14 H 0.396191 0.252959 0.0230773
H38_14 H 0.547581 0.287183 0.00239076
H39_14 H 0.530511 0.292574 0.0610075
H43_14 H 0.472573 0.159224 0.0182373
H44_14 H 0.374257 0.176223 0.0426919
H45_14 H 0.404261 0.178156 0.0914061
Gd2_14 Gd 0.235165(17) 0.119643(24) 0.841538(19)
Cu1_14 Cu 0.33190(4) 0.13950(6) 0.87691(5)
Cu2_14 Cu 0.23044(4) 0.19533(6) 0.91631(5)
Cu3_14 Cu 0.17953(5) 0.03823(7) 0.92790(5)
Cu4_14 Cu 0.30686(4) 0.12790(6) 0.74744(5)
Cu5_14 Cu 0.15586(4) 0.02728(6) 0.79902(5)
Cu6_14 Cu 0.20658(4) 0.18617(6) 0.78581(5)
O1_14 O 0.2754(2) 0.1014(3) 0.9018(3)
O2_14 O 0.2408(3) 0.0566(4) 0.9695(3)
O3_14 O 0.2708(2) 0.1775(3) 0.9046(3)
O4_14 O 0.3331(2) 0.1917(4) 0.9278(3)
O5_14 O 0.1948(2) 0.0953(3) 0.9255(3)
O6_14 O 0.1951(2) 0.1437(3) 0.9775(3)
O7_14 O 0.2500(2) 0.0893(3) 0.7614(3)
O8_14 O 0.1991(3) 0.0303(4) 0.7307(3)
O9_14 O 0.1727(2) 0.0862(3) 0.7895(3)
O10_14 O 0.1544(2) 0.1273(4) 0.7495(3)
O11_14 O 0.24546(19) 0.16690(28) 0.7676(3)
O12_14 O 0.2838(2) 0.1666(3) 0.6998(3)
O13_14 O 0.4186(2) 0.1957(3) 0.9244(3)
O14_14 O 0.3844(2) 0.1743(3) 0.8437(3)
O15_11 O 0.1473(2) 0.2139(3) 0.7409(4)
O16_14 O 0.1795(2) 0.2145(3) 0.8155(3)
O19_14 O 0.30509(19) 0.15215(27) 0.8173(2)
O20_14 O 0.20029(19) 0.15903(28) 0.8557(2)
O21_14 O 0.2005(2) 0.0478(3) 0.8529(2)
O22_14 O 0.3252(3) 0.0861(4) 0.8096(3)
O23_14 O 0.2670(3) 0.2473(4) 0.8431(4)
O24_14 O 0.1136(3) 0.0254(4) 0.8815(3)
O25_14 O 0.1907(2) 0.2147(3) 0.9242(3)
O27_14 O 0.3639(2) 0.1684(3) 0.7366(3)
O29_14 O 0.3967(2) 0.2363(3) 0.9921(4)
O31_14 O 0.4562(3) 0.1623(4) 0.9888(4)
O32_14 O 0.5102(3) 0.2334(4) 0.9378(4)
O33_14 O 0.4711(3) 0.2849(5) 0.9421(4)
N1_14 N 0.3466(3) 0.1162(4) 0.9410(4)
H1_14 H 0.3616 0.1361 0.9651
H2_14 H 0.3617 0.1056 0.9291
N2_14 N 0.2701(3) 0.2310(4) 0.9706(4)
H4_14 H 0.2755 0.2566 0.9654
N3_14 N 0.1528(3) 0.0358(4) 0.9978(4)
H6_14 H 0.1258 0.0230 0.9933
N4_14 N 0.3005(3) 0.0949(4) 0.6827(4)
H7_14 H 0.3169 0.0843 0.6854
H8_11 H 0.3074 0.1103 0.6522
N5_14 N 0.1141(3) 0.0160(5) 0.7476(4)
H10_14 H 0.1190 0.0070 0.7160
N6_14 N 0.2224(3) 0.2136(4) 0.7122(4)
H11_14 H 0.2388 0.2406 0.7165
H12_14 H 0.2002 0.2094 0.6935
C1_14 C 0.3097(4) 0.0843(6) 0.9688(6)
H13_14 H 0.3089 0.0586 0.9647
C2_14 C 0.2700(5) 0.0797(6) 0.9472(6)
C3_14 C 0.3067(4) 0.2293(6) 0.9659(6)
H15_14 H 0.3281 0.2554 0.9529
C4_14 C 0.3044(4) 0.1979(6) 0.9293(4)
C6_14 C 0.1879(4) 0.1088(6) 0.9706(5)
C7_14 C 0.2593(4) 0.0631(6) 0.6788(5)
H19_11 H 0.2470 0.0677 0.6467
H20_14 H 0.2587 0.0375 0.6736
C8_14 C 0.2351(4) 0.0600(6) 0.7277(4)
C9_14 C 0.1127(4) 0.0568(6) 0.7364(5)
H21_14 H 0.0884 0.0544 0.7530
H22_14 H 0.1111 0.0601 0.6971
C10_14 C 0.1491(4) 0.0937(6) 0.7591(4)
C11_14 C 0.2437(4) 0.1962(6) 0.6819(5)
H23_11 H 0.2253 0.1769 0.6551
H24_11 H 0.2663 0.2178 0.6620
C12_14 C 0.2596(4) 0.1751(6) 0.7188(5)
C13_14 C 0.4165(4) 0.1965(6) 0.8712(5)
H25_14 H 0.4398 0.2145 0.8520
C14_14 C 0.1588(4) 0.2234(6) 0.7890(5)
H26_14 H 0.1501 0.2394 0.8067
Gd4_8 Gd 0.103858(19) 0.208743(34) 0.66708(2)
H28_14 H 0.205275 0.244749 0.922422
H29_14 H 0.176597 0.205538 0.96008
H30_14 H 0.366444 0.195145 0.728884
H31_14 H 0.374869 0.160268 0.704998
H32_14 H 0.48331 0.282802 0.906965
H33_14 H 0.490226 0.310628 0.960848
H36_14 H 0.397816 0.249829 0.956713
H40_14 H 0.504224 0.205707 0.927235
H41_14 H 0.537055 0.247848 0.956261
H42_14 H 0.427764 0.139661 0.991121
O17_11 O 0.1198(3) 0.9427(4) 0.7396(3)
O18_14 O 0.1411(3) 0.9722(4) 0.8221(3)
O26_14 O 0.1653(3) 0.9810(4) 0.9235(3)
H9_14 H 0.0901 0.9967 0.7610
C15_14 C 0.1303(4) 0.9445(6) 0.7901(5)
H27_14 H 0.1294 0.9213 0.8039
H34_14 H 0.185992 0.978748 0.901174
H35_14 H 0.138304 0.964858 0.905924
O17_12 O 0.0573(4) 0.1772(3) 0.7396(3)
O18_15 O 0.0278(4) 0.1690(3) 0.8221(3)
O26_15 O 0.0190(4) 0.1844(3) 0.9235(3)
H9_15 H 0.0033 0.0935 0.7610
C15_15 C 0.0555(6) 0.1859(5) 0.7901(5)
H27_15 H 0.0787 0.2082 0.8039
H34_15 H 0.0212518 0.207243 0.901174
H35_15 H 0.0351417 0.173445 0.905924
O28_15 O 0.7099(4) 0.2358(3) 0.0207(3)
O30_15 O 0.8255(4) 0.2244(3) 0.0513(4)
H3_15 H 0.7768 0.0366 0.0047
H5_15 H 0.9778 0.1366 0.0230
H14_15 H 0.9095 0.2214 0.0077
H16_15 H 0.7750 0.0895 0.0023
C5_15 C 0.9250(6) 0.0920(4) 0.0147(5)
H17_15 H 0.9233 0.0676 0.0297
H18_15 H 0.9194 0.1054 0.0445
H37_15 H 0.747041 0.143232 0.0230773
H38_15 H 0.712817 0.260398 0.00239076
H39_15 H 0.707426 0.237937 0.0610075
H43_15 H 0.840776 0.313349 0.0182373
H44_15 H 0.823777 0.198035 0.0426919
H45_15 H 0.821844 0.226105 0.0914061
O15_12 O 0.7861(3) 0.9335(2) 0.7409(4)
O16_15 O 0.7855(3) 0.9651(2) 0.8155(3)
O25_15 O 0.7853(3) 0.9761(2) 0.9242(3)
H11_15 H 0.7594 0.9983 0.7165
H12_15 H 0.7906 0.9909 0.6935
C14_15 C 0.7766(6) 0.9355(4) 0.7890(5)
H26_15 H 0.7606 0.9108 0.8067
H28_15 H 0.755251 0.960526 0.922422
H29_15 H 0.794462 0.971059 0.96008
Gd2_15 Gd 0.217811(17) 0.431501(17) 0.508204(19)
Cu1_15 Cu 0.14093(4) 0.33476(4) 0.54357(5)
Cu2_15 Cu 0.29822(4) 0.43622(4) 0.58297(5)
Cu3_15 Cu 0.19203(5) 0.48713(5) 0.59456(5)
Cu4_15 Cu 0.15437(4) 0.35980(4) 0.41410(5)
Cu5_15 Cu 0.20475(5) 0.51080(4) 0.46568(5)
Cu6_15 Cu 0.31292(4) 0.46008(4) 0.45247(5)
O1_15 O 0.1593(2) 0.3912(2) 0.5684(3)
O2_15 O 0.1491(3) 0.4258(3) 0.6361(3)
O3_15 O 0.2400(2) 0.3958(2) 0.5712(3)
O4_15 O 0.1919(3) 0.3335(2) 0.5944(3)
O5_15 O 0.2338(2) 0.4718(2) 0.5921(3)
O6_15 O 0.2819(2) 0.4715(2) 0.6441(3)
O7_15 O 0.1726(2) 0.4166(2) 0.4280(3)
O8_15 O 0.1645(3) 0.4675(3) 0.3973(3)
O9_15 O 0.2468(2) 0.4939(2) 0.4561(3)
O10_15 O 0.3062(3) 0.5122(2) 0.4161(3)
O11_15 O 0.2548(2) 0.42120(19) 0.4342(3)
O12_15 O 0.2161(2) 0.3828(2) 0.3664(3)
O13_15 O 0.1104(2) 0.2480(2) 0.5910(3)
O14_15 O 0.1232(2) 0.2822(2) 0.5103(3)
O16_16 O 0.3683(2) 0.4871(2) 0.4821(3)
O18_16 O 0.1644(3) 0.5255(3) 0.4887(3)
O19_15 O 0.18039(19) 0.36157(19) 0.4839(2)
O20_15 O 0.2921(2) 0.46637(19) 0.5223(2)
O21_15 O 0.1806(2) 0.4661(2) 0.5195(2)
O22_15 O 0.0942(2) 0.3414(3) 0.4762(3)
O23_15 O 0.3136(3) 0.3996(3) 0.5097(4)
O24_15 O 0.2451(3) 0.5530(3) 0.5481(3)
O25_16 O 0.3573(2) 0.4759(2) 0.5908(3)
O26_16 O 0.1490(3) 0.5013(3) 0.5901(3)
O27_15 O 0.1378(2) 0.3027(2) 0.4032(3)
O28_16 O 0.0976(3) 0.1408(2) 0.6873(3)
O29_15 O 0.1729(2) 0.2699(2) 0.6587(4)
O30_16 O 0.1090(3) 0.2678(3) 0.7179(4)
O31_15 O 0.0394(3) 0.2104(3) 0.6554(4)
O32_15 O 0.0565(3) 0.1564(3) 0.6044(4)
O33_15 O 0.1471(4) 0.1955(3) 0.6087(4)
N1_15 N 0.1029(3) 0.3200(3) 0.6076(4)
H1_15 H 0.1078 0.3050 0.6317
H2_15 H 0.0772 0.3049 0.5957
N2_15 N 0.2942(3) 0.3965(3) 0.6372(4)
H3_16 H 0.2968 0.4069 0.6713
H4_15 H 0.3144 0.3911 0.6320
N3_15 N 0.2163(3) 0.5138(3) 0.6644(4)
H5_16 H 0.1968 0.5079 0.6896
H6_15 H 0.2305 0.5408 0.6599
N4_15 N 0.1277(3) 0.3661(3) 0.3493(4)
H7_15 H 0.1007 0.3497 0.3520
H8_12 H 0.1362 0.3592 0.3188
N5_15 N 0.2352(4) 0.5525(3) 0.4142(4)
H9_16 H 0.2399 0.5765 0.4276
H10_15 H 0.2213 0.5476 0.3826
N6_15 N 0.3245(3) 0.4442(3) 0.3788(4)
H11_16 H 0.3351 0.4278 0.3831
H12_16 H 0.3425 0.4664 0.3601
C1_15 C 0.1079(4) 0.3569(4) 0.6354(6)
H13_15 H 0.0830 0.3577 0.6313
H14_16 H 0.1120 0.3548 0.6743
C2_15 C 0.1430(4) 0.3966(5) 0.6138(6)
C3_15 C 0.2559(4) 0.3599(4) 0.6325(6)
H15_15 H 0.2606 0.3385 0.6195
H16_16 H 0.2439 0.3522 0.6689
C4_15 C 0.2268(4) 0.3622(4) 0.5959(4)
C5_16 C 0.2414(4) 0.4997(4) 0.6813(5)
H17_16 H 0.2658 0.5224 0.6963
H18_16 H 0.2280 0.4807 0.7111
C6_15 C 0.2542(4) 0.4787(4) 0.6372(5)
C7_15 C 0.1371(4) 0.4073(4) 0.3454(5)
H19_12 H 0.1540 0.4196 0.3133
H20_15 H 0.1121 0.4079 0.3402
C8_15 C 0.1582(4) 0.4315(4) 0.3943(4)
C9_15 C 0.2774(5) 0.5539(4) 0.4030(5)
H21_15 H 0.2993 0.5782 0.4196
H22_15 H 0.2823 0.5555 0.3637
C10_15 C 0.2779(4) 0.5175(4) 0.4257(4)
C11_15 C 0.2858(4) 0.4229(4) 0.3485(5)
H23_12 H 0.2849 0.4413 0.3217
H24_12 H 0.2848 0.4003 0.3286
C12_15 C 0.2488(4) 0.4070(4) 0.3854(5)
C13_15 C 0.1133(4) 0.2501(4) 0.5378(5)
H25_15 H 0.1080 0.2268 0.5186
C14_16 C 0.3979(4) 0.5078(4) 0.4556(5)
H26_16 H 0.4226 0.5165 0.4733
C15_16 C 0.1475(5) 0.5363(4) 0.4567(5)
H27_16 H 0.1252 0.5372 0.4705
H28_16 H 0.372807 0.461391 0.589089
H29_16 H 0.362275 0.49007 0.626747
H30_15 H 0.162034 0.300223 0.395551
H31_15 H 0.118733 0.291798 0.371665
H32_15 H 0.132826 0.183357 0.573632
H33_15 H 0.153735 0.176441 0.627515
H34_16 H 0.12609 0.480675 0.567841
H35_16 H 0.159888 0.528363 0.57259
H36_15 H 0.185346 0.268851 0.62338
H37_16 H 0.190101 0.270475 0.689744
H38_16 H 0.0729356 0.119086 0.669057
H39_16 H 0.0953964 0.136156 0.727674
H40_15 H 0.0348161 0.162443 0.593901
H41_15 H 0.0441267 0.129612 0.622928
H42_15 H 0.0452304 0.238903 0.657788
H43_16 H 0.0199844 0.194093 0.684904
H44_16 H 0.135299 0.292409 0.709359
H45_16 H 0.107228 0.262405 0.758073
Gd2_16 Gd 0.568499(17) 0.786309(24) 0.508204(19)
Cu1_16 Cu 0.66524(4) 0.80616(6) 0.54357(5)
Cu2_16 Cu 0.56378(4) 0.86199(6) 0.58297(5)
Cu3_16 Cu 0.51287(5) 0.70489(7) 0.59456(5)
Cu4_16 Cu 0.64020(4) 0.79456(6) 0.41410(5)
Cu5_16 Cu 0.48920(4) 0.69394(6) 0.46568(5)
Cu6_16 Cu 0.53992(4) 0.85283(6) 0.45247(5)
O1_16 O 0.6088(2) 0.7680(3) 0.5684(3)
O2_16 O 0.5742(3) 0.7232(4) 0.6361(3)
O3_16 O 0.6042(2) 0.8441(3) 0.5712(3)
O4_16 O 0.6665(2) 0.8583(4) 0.5944(3)
O5_16 O 0.5282(2) 0.7619(3) 0.5921(3)
O6_16 O 0.5285(2) 0.8103(3) 0.6441(3)
O7_16 O 0.5834(2) 0.7559(3) 0.4280(3)
O8_16 O 0.5325(3) 0.6969(4) 0.3973(3)
O9_16 O 0.5061(2) 0.7528(3) 0.4561(3)
O10_16 O 0.4878(2) 0.7939(4) 0.4161(3)
O11_16 O 0.57880(19) 0.83356(28) 0.4342(3)
O12_16 O 0.6172(2) 0.8332(3) 0.3664(3)
O13_16 O 0.7520(2) 0.8623(3) 0.5910(3)
O14_16 O 0.7178(2) 0.8409(3) 0.5103(3)
O16_17 O 0.5129(2) 0.8811(3) 0.4821(3)
O18_17 O 0.4745(3) 0.6388(4) 0.4887(3)
O19_16 O 0.63843(19) 0.81881(27) 0.4839(2)
O20_16 O 0.53363(19) 0.82569(28) 0.5223(2)
O21_16 O 0.5339(2) 0.7144(3) 0.5195(2)
O22_16 O 0.6586(3) 0.7527(4) 0.4762(3)
O23_16 O 0.6004(3) 0.9139(4) 0.5097(4)
O24_16 O 0.4470(3) 0.6920(4) 0.5481(3)
O25_17 O 0.5241(2) 0.8813(3) 0.5908(3)
O26_17 O 0.4987(3) 0.6476(4) 0.5901(3)
O27_16 O 0.6973(2) 0.8350(3) 0.4032(3)
O28_17 O 0.8592(2) 0.9567(4) 0.6873(3)
O29_16 O 0.7301(2) 0.9029(3) 0.6587(4)
O30_17 O 0.7322(3) 0.8411(4) 0.7179(4)
O31_16 O 0.7896(3) 0.8289(4) 0.6554(4)
O32_16 O 0.8436(3) 0.9000(4) 0.6044(4)
O33_16 O 0.8045(3) 0.9515(5) 0.6087(4)
N1_16 N 0.6800(3) 0.7828(4) 0.6076(4)
H1_16 H 0.6950 0.8027 0.6317
H2_16 H 0.6951 0.7722 0.5957
N2_16 N 0.6035(3) 0.8976(4) 0.6372(4)
H3_17 H 0.5931 0.8898 0.6713
H4_16 H 0.6089 0.9232 0.6320
N3_16 N 0.4862(3) 0.7024(4) 0.6644(4)
H5_17 H 0.4921 0.6888 0.6896
H6_16 H 0.4592 0.6896 0.6599
N4_16 N 0.6339(3) 0.7615(4) 0.3493(4)
H7_16 H 0.6503 0.7509 0.3520
H8_13 H 0.6408 0.7769 0.3188
N5_16 N 0.4475(3) 0.6826(5) 0.4142(4)
H9_17 H 0.4235 0.6633 0.4276
H10_16 H 0.4524 0.6736 0.3826
N6_16 N 0.5558(3) 0.8802(4) 0.3788(4)
H11_17 H 0.5722 0.9072 0.3831
H12_17 H 0.5336 0.8760 0.3601
C1_16 C 0.6431(4) 0.7509(6) 0.6354(6)
H13_16 H 0.6423 0.7252 0.6313
H14_17 H 0.6452 0.7571 0.6743
C2_16 C 0.6034(5) 0.7463(6) 0.6138(6)
C3_16 C 0.6401(4) 0.8959(6) 0.6325(6)
H15_16 H 0.6615 0.9220 0.6195
H16_17 H 0.6478 0.8916 0.6689
C4_16 C 0.6378(4) 0.8645(6) 0.5959(4)
C5_17 C 0.5003(4) 0.7416(6) 0.6813(5)
H17_17 H 0.4776 0.7433 0.6963
H18_17 H 0.5193 0.7472 0.7111
C6_16 C 0.5213(4) 0.7754(6) 0.6372(5)
C7_16 C 0.5927(4) 0.7297(6) 0.3454(5)
H19_13 H 0.5804 0.7343 0.3133
H20_16 H 0.5921 0.7041 0.3402
C8_16 C 0.5685(4) 0.7266(6) 0.3943(4)
C9_16 C 0.4461(4) 0.7234(6) 0.4030(5)
H21_16 H 0.4218 0.7210 0.4196
H22_16 H 0.4445 0.7267 0.3637
C10_16 C 0.4825(4) 0.7603(6) 0.4257(4)
C11_16 C 0.5771(4) 0.8628(6) 0.3485(5)
H23_13 H 0.5587 0.8435 0.3217
H24_13 H 0.5997 0.8844 0.3286
C12_16 C 0.5930(4) 0.8417(6) 0.3854(5)
C13_16 C 0.7499(4) 0.8631(6) 0.5378(5)
H25_16 H 0.7732 0.8811 0.5186
C14_17 C 0.4922(4) 0.8900(6) 0.4556(5)
H26_17 H 0.4835 0.9060 0.4733
C15_17 C 0.4637(4) 0.6111(6) 0.4567(5)
H27_17 H 0.4628 0.5879 0.4705
H28_17 H 0.538609 0.911416 0.589089
H29_17 H 0.50993 0.872205 0.626747
H30_16 H 0.699777 0.861811 0.395551
H31_16 H 0.708202 0.826935 0.371665
H32_16 H 0.816643 0.949469 0.573632
H33_16 H 0.823559 0.977295 0.627515
H34_17 H 0.519325 0.645415 0.567841
H35_17 H 0.471637 0.631525 0.57259
H36_16 H 0.731149 0.916495 0.62338
H37_17 H 0.729525 0.919625 0.689744
H38_17 H 0.880914 0.953849 0.669057
H39_17 H 0.863844 0.959241 0.727674
H40_16 H 0.837557 0.872373 0.593901
H41_16 H 0.870388 0.914515 0.622928
H42_16 H 0.761097 0.806328 0.657788
H43_17 H 0.805907 0.825891 0.684904
H44_17 H 0.707591 0.842889 0.709359
H45_17 H 0.737595 0.844823 0.758073
Gd2_17 Gd 0.213691(24) 0.782189(17) 0.508204(19)
Cu1_17 Cu 0.19384(6) 0.85907(4) 0.54357(5)
Cu2_17 Cu 0.13801(6) 0.70178(4) 0.58297(5)
Cu3_17 Cu 0.29511(7) 0.80797(5) 0.59456(5)
Cu4_17 Cu 0.20544(6) 0.84563(4) 0.41410(5)
Cu5_17 Cu 0.30606(6) 0.79525(5) 0.46568(5)
Cu6_17 Cu 0.14717(6) 0.68708(4) 0.45247(5)
O1_17 O 0.2320(3) 0.8407(2) 0.5684(3)
O2_17 O 0.2768(4) 0.8509(3) 0.6361(3)
O3_17 O 0.1559(3) 0.7600(2) 0.5712(3)
O4_17 O 0.1417(4) 0.8081(3) 0.5944(3)
O5_17 O 0.2381(3) 0.7662(2) 0.5921(3)
O6_17 O 0.1897(3) 0.7181(2) 0.6441(3)
O7_17 O 0.2441(3) 0.8274(2) 0.4280(3)
O8_17 O 0.3031(4) 0.8355(3) 0.3973(3)
O9_17 O 0.2472(3) 0.7532(2) 0.4561(3)
O10_17 O 0.2061(4) 0.6938(3) 0.4161(3)
O11_17 O 0.16644(28) 0.7452(2) 0.4342(3)
O12_17 O 0.1668(3) 0.7839(2) 0.3664(3)
O13_17 O 0.1377(3) 0.8896(2) 0.5910(3)
O14_17 O 0.1591(3) 0.8768(2) 0.5103(3)
O16_18 O 0.1189(3) 0.6317(2) 0.4821(3)
O18_18 O 0.3612(4) 0.8356(3) 0.4887(3)
O19_17 O 0.18119(27) 0.81961(19) 0.4839(2)
O20_17 O 0.17431(28) 0.7079(2) 0.5223(2)
O21_17 O 0.2856(3) 0.8194(2) 0.5195(2)
O22_17 O 0.2473(4) 0.9058(2) 0.4762(3)
O23_17 O 0.0861(4) 0.6864(3) 0.5097(4)
O24_17 O 0.3080(4) 0.7549(3) 0.5481(3)
O25_18 O 0.1187(3) 0.6427(2) 0.5908(3)
O26_18 O 0.3524(4) 0.8510(3) 0.5901(3)
O27_17 O 0.1650(3) 0.8622(2) 0.4032(3)
O28_18 O 0.0433(4) 0.9024(3) 0.6873(3)
O29_17 O 0.0971(3) 0.8271(2) 0.6587(4)
O30_18 O 0.1589(4) 0.8910(3) 0.7179(4)
O31_17 O 0.1711(4) 0.9606(3) 0.6554(4)
O32_17 O 0.1000(4) 0.9435(3) 0.6044(4)
O33_17 O 0.0485(5) 0.8529(4) 0.6087(4)
N1_17 N 0.2172(4) 0.8971(3) 0.6076(4)
H1_17 H 0.1973 0.8922 0.6317
H2_17 H 0.2278 0.9228 0.5957
N2_17 N 0.1024(4) 0.7058(3) 0.6372(4)
H3_18 H 0.1102 0.7032 0.6713
H4_17 H 0.0768 0.6856 0.6320
N3_17 N 0.2976(4) 0.7837(3) 0.6644(4)
H5_18 H 0.3112 0.8032 0.6896
H6_17 H 0.3104 0.7695 0.6599
N4_17 N 0.2385(4) 0.8723(3) 0.3493(4)
H7_17 H 0.2491 0.8993 0.3520
H8_14 H 0.2231 0.8638 0.3188
N5_17 N 0.3174(5) 0.7648(4) 0.4142(4)
H9_18 H 0.3367 0.7601 0.4276
H10_17 H 0.3264 0.7787 0.3826
N6_17 N 0.1198(4) 0.6755(3) 0.3788(4)
H11_18 H 0.0928 0.6649 0.3831
H12_18 H 0.1240 0.6575 0.3601
C1_17 C 0.2491(6) 0.8921(4) 0.6354(6)
H13_17 H 0.2748 0.9170 0.6313
H14_18 H 0.2429 0.8880 0.6743
C2_17 C 0.2537(6) 0.8570(4) 0.6138(6)
C3_17 C 0.1041(6) 0.7441(4) 0.6325(6)
H15_17 H 0.0780 0.7394 0.6195
H16_18 H 0.1084 0.7561 0.6689
C4_17 C 0.1355(6) 0.7732(4) 0.5959(4)
C5_18 C 0.2584(6) 0.7586(4) 0.6813(5)
H17_18 H 0.2567 0.7342 0.6963
H18_18 H 0.2528 0.7720 0.7111
C6_17 C 0.2246(6) 0.7458(4) 0.6372(5)
C7_17 C 0.2703(6) 0.8629(4) 0.3454(5)
H19_14 H 0.2657 0.8460 0.3133
H20_17 H 0.2959 0.8879 0.3402
C8_17 C 0.2734(6) 0.8418(4) 0.3943(4)
C9_17 C 0.2766(6) 0.7226(5) 0.4030(5)
H21_17 H 0.2790 0.7007 0.4196
H22_17 H 0.2733 0.7177 0.3637
C10_17 C 0.2397(6) 0.7221(4) 0.4257(4)
C11_17 C 0.1372(6) 0.7142(4) 0.3485(5)
H23_14 H 0.1565 0.7151 0.3217
H24_14 H 0.1156 0.7152 0.3286
C12_17 C 0.1583(6) 0.7512(4) 0.3854(5)
C13_17 C 0.1369(6) 0.8867(4) 0.5378(5)
H25_17 H 0.1189 0.8920 0.5186
C14_18 C 0.1100(6) 0.6021(4) 0.4556(5)
H26_18 H 0.0940 0.5774 0.4733
C15_18 C 0.3889(6) 0.8525(5) 0.4567(5)
H27_18 H 0.4121 0.8748 0.4705
H28_18 H 0.0885842 0.627193 0.589089
H29_18 H 0.127795 0.637725 0.626747
H30_17 H 0.138189 0.837966 0.395551
H31_17 H 0.173065 0.881267 0.371665
H32_17 H 0.0505314 0.867174 0.573632
H33_17 H 0.0227052 0.846265 0.627515
H34_18 H 0.354585 0.87391 0.567841
H35_18 H 0.368475 0.840112 0.57259
H36_17 H 0.0835046 0.814654 0.62338
H37_18 H 0.0803745 0.809899 0.689744
H38_18 H 0.0461506 0.927064 0.669057
H39_18 H 0.0407593 0.904604 0.727674
H40_17 H 0.127627 0.965184 0.593901
H41_17 H 0.085485 0.955873 0.622928
H42_17 H 0.193672 0.95477 0.657788
H43_18 H 0.174109 0.980016 0.684904
H44_18 H 0.157111 0.864701 0.709359
H45_18 H 0.155177 0.892772 0.758073
H8_15 H 0.4695 0.0259 0.9855
H19_15 H 0.4873 0.0863 0.9800
H23_15 H 0.6182 0.1080 0.9884
H24_15 H 0.6181 0.0670 0.9953
H8_16 H 0.9741 0.4436 0.9855
H19_16 H 0.9137 0.4010 0.9800
H23_16 H 0.8920 0.5102 0.9884
H24_16 H 0.9330 0.5511 0.9953
H8_17 H 0.5564 0.5305 0.9855
H19_17 H 0.5990 0.5127 0.9800
H23_17 H 0.4898 0.3818 0.9884
H24_17 H 0.4489 0.3819 0.9953
Gd2_18 Gd 0.880357(24) 0.115523(17) 0.841538(19)
Cu1_18 Cu 0.86050(6) 0.19241(4) 0.87691(5)
Cu2_18 Cu 0.80467(6) 0.03512(4) 0.91631(5)
Cu3_18 Cu 0.96177(7) 0.14131(5) 0.92790(5)
Cu4_18 Cu 0.87210(6) 0.17897(4) 0.74744(5)
Cu5_18 Cu 0.97272(6) 0.12859(5) 0.79902(5)
Cu6_18 Cu 0.81383(6) 0.02042(4) 0.78581(5)
O1_18 O 0.8986(3) 0.1741(2) 0.9018(3)
O2_18 O 0.9434(4) 0.1843(3) 0.9695(3)
O3_18 O 0.8225(3) 0.0934(2) 0.9046(3)
O4_18 O 0.8083(4) 0.1415(3) 0.9278(3)
O5_18 O 0.9047(3) 0.0996(2) 0.9255(3)
O6_18 O 0.8563(3) 0.0515(2) 0.9775(3)
O7_18 O 0.9107(3) 0.1608(2) 0.7614(3)
O8_18 O 0.9697(4) 0.1689(3) 0.7307(3)
O9_18 O 0.9138(3) 0.0866(2) 0.7895(3)
O10_18 O 0.8727(4) 0.0272(3) 0.7495(3)
O11_18 O 0.83310(28) 0.0786(2) 0.7676(3)
O12_18 O 0.8334(3) 0.1173(2) 0.6998(3)
O13_18 O 0.8043(3) 0.2230(2) 0.9244(3)
O14_18 O 0.8257(3) 0.2102(2) 0.8437(3)
O19_18 O 0.84785(27) 0.15295(19) 0.8173(2)
O20_18 O 0.84097(28) 0.0413(2) 0.8557(2)
O21_18 O 0.9522(3) 0.1528(2) 0.8529(2)
O22_18 O 0.9139(4) 0.2392(2) 0.8096(3)
O23_18 O 0.7527(4) 0.0198(3) 0.8431(4)
O24_18 O 0.9746(4) 0.0883(3) 0.8815(3)
O27_18 O 0.8316(3) 0.1956(2) 0.7366(3)
O29_18 O 0.7637(3) 0.1605(2) 0.9921(4)
O31_18 O 0.8377(4) 0.2940(3) 0.9888(4)
O32_18 O 0.7666(4) 0.2769(3) 0.9378(4)
O33_18 O 0.7151(5) 0.1863(4) 0.9421(4)
N1_18 N 0.8838(4) 0.2305(3) 0.9410(4)
H1_18 H 0.8639 0.2256 0.9651
H2_18 H 0.8944 0.2562 0.9291
N2_18 N 0.7690(4) 0.0392(3) 0.9706(4)
H4_18 H 0.7434 0.0190 0.9654
N3_18 N 0.9642(4) 0.1171(3) 0.9978(4)
H6_18 H 0.9770 0.1029 0.9933
N4_18 N 0.9051(4) 0.2057(3) 0.6827(4)
H7_18 H 0.9157 0.2327 0.6854
H8_18 H 0.8897 0.1972 0.6522
N5_18 N 0.9840(5) 0.0982(4) 0.7476(4)
H10_18 H 0.9930 0.1121 0.7160
N6_18 N 0.7864(4) 0.0089(3) 0.7122(4)
C1_18 C 0.9157(6) 0.2255(4) 0.9688(6)
H13_18 H 0.9414 0.2504 0.9647
C2_18 C 0.9203(6) 0.1904(4) 0.9472(6)
C3_18 C 0.7707(6) 0.0775(4) 0.9659(6)
H15_18 H 0.7446 0.0728 0.9529
C4_18 C 0.8021(6) 0.1066(4) 0.9293(4)
C6_18 C 0.8912(6) 0.0792(4) 0.9706(5)
C7_18 C 0.9369(6) 0.1963(4) 0.6788(5)
H19_18 H 0.9323 0.1794 0.6467
H20_18 H 0.9625 0.2213 0.6736
C8_18 C 0.9400(6) 0.1752(4) 0.7277(4)
C9_18 C 0.9432(6) 0.0560(5) 0.7364(5)
H21_18 H 0.9456 0.0341 0.7530
H22_18 H 0.9399 0.0511 0.6971
C10_18 C 0.9063(6) 0.0555(4) 0.7591(4)
C11_18 C 0.8038(6) 0.0476(4) 0.6819(5)
H23_18 H 0.8231 0.0485 0.6551
H24_18 H 0.7822 0.0486 0.6620
C12_18 C 0.8249(6) 0.0846(4) 0.7188(5)
C13_18 C 0.8035(6) 0.2201(4) 0.8712(5)
H25_18 H 0.7855 0.2254 0.8520
H30_18 H 0.804855 0.171299 0.728884
H31_18 H 0.839732 0.214601 0.704998
H32_18 H 0.717198 0.200508 0.906965
H33_18 H 0.689372 0.179598 0.960848
H36_18 H 0.750171 0.147987 0.956713
H40_18 H 0.794293 0.298517 0.927235
H41_18 H 0.752152 0.289207 0.956261
H42_18 H 0.860339 0.288103 0.991121
loop_
_geom_bond_atom_site_label_1
_geom_bond_atom_site_label_2
_geom_bond_site_symmetry_1
_geom_bond_site_symmetry_2
Gd1 O13 1_555 1_555
O13 C13 1_555 1_555
O28 Gd1 1_555 1_555
O29 Gd1 1_555 1_555
O30 Gd1 1_555 1_555
O31 Gd1 1_555 1_555
O32 Gd1 1_555 1_555
O33 Gd1 1_555 1_555
H1 N1 1_555 1_555
H2 N1 1_555 1_555
C13 O14 1_555 1_555
H25 C13 1_555 1_555
O34 Gd1 1_555 1_555
O35 Gd1 1_555 1_555
O27 H30 1_555 1_555
O27 H31 1_555 1_555
O33 H32 1_555 1_555
O33 H33 1_555 1_555
O29 H36 1_555 1_555
O29 H37 1_555 1_555
O28 H38 1_555 1_555
O28 H39 1_555 1_555
O32 H40 1_555 1_555
O32 H41 1_555 1_555
O31 H42 1_555 1_555
O31 H43 1_555 1_555
O30 H44 1_555 1_555
O30 H45 1_555 1_555
Gd2 O1 1_555 1_555
Cu1 O1 1_555 1_555
Cu2 O3 1_555 1_555
Cu3 O2 1_555 1_555
Cu4 O7 1_555 1_555
Cu5 O8 1_555 1_555
Cu6 O10 1_555 1_555
O1 C2 1_555 1_555
O2 C2 1_555 1_555
O3 Gd2 1_555 1_555
O4 Cu1 1_555 1_555
O5 Gd2 1_555 1_555
O6 Cu2 1_555 1_555
O7 Gd2 1_555 1_555
O8 C8 1_555 1_555
O9 Gd2 1_555 1_555
O10 C10 1_555 1_555
O11 Gd2 1_555 1_555
O12 Cu4 1_555 1_555
O15 C14 1_555 1_555
O16 Cu6 1_555 1_555
O17 C15 1_555 1_555
O18 Cu5 1_555 1_555
O19 Gd2 1_555 1_555
O20 Gd2 1_555 1_555
O21 Gd2 1_555 1_555
O22 Cu1 1_555 1_555
O23 Cu2 1_555 1_555
O24 Cu3 1_555 1_555
O25 Cu2 1_555 1_555
O26 Cu3 1_555 1_555
N2 Cu2 1_555 1_555
H3 N2 1_555 1_555
H4 N2 1_555 1_555
N3 Cu3 1_555 1_555
H5 N3 1_555 1_555
H6 N3 1_555 1_555
N4 Cu4 1_555 1_555
H7 N4 1_555 1_555
N5 Cu5 1_555 1_555
H9 N5 1_555 1_555
H10 N5 1_555 1_555
N6 Cu6 1_555 1_555
H11 N6 1_555 1_555
H12 N6 1_555 1_555
H13 C1 1_555 1_555
H14 C1 1_555 1_555
C2 C1 1_555 1_555
C3 N2 1_555 1_555
H15 C3 1_555 1_555
H16 C3 1_555 1_555
C4 O3 1_555 1_555
C5 N3 1_555 1_555
H17 C5 1_555 1_555
H18 C5 1_555 1_555
C6 O5 1_555 1_555
C7 N4 1_555 1_555
H20 C7 1_555 1_555
C8 O7 1_555 1_555
C9 N5 1_555 1_555
H21 C9 1_555 1_555
H22 C9 1_555 1_555
C10 O9 1_555 1_555
C11 N6 1_555 1_555
C12 O11 1_555 1_555
C14 O16 1_555 1_555
H26 C14 1_555 1_555
C15 O18 1_555 1_555
H27 C15 1_555 1_555
Gd3 O17 1_555 1_555
Gd4 O15 1_555 1_555
Cu1 O19 1_555 1_555
Cu2 O20 1_555 1_555
Cu3 O5 1_555 1_555
Cu3 O21 1_555 1_555
Cu4 O19 1_555 1_555
Cu4 O22 1_555 1_555
Cu5 O9 1_555 1_555
Cu5 O21 1_555 1_555
Cu5 O24 1_555 1_555
Cu6 O11 1_555 1_555
Cu6 O20 1_555 1_555
Cu6 O23 1_555 1_555
O4 C4 1_555 1_555
O6 C6 1_555 1_555
O12 C12 1_555 1_555
C3 C4 1_555 1_555
C5 C6 1_555 1_555
C7 C8 1_555 1_555
C9 C10 1_555 1_555
C11 C12 1_555 1_555
O25 H28 1_555 1_555
O25 H29 1_555 1_555
O26 H34 1_555 1_555
O26 H35 1_555 1_555
Gd2_2 O1_2 1_555 1_555
Cu1_2 O1_2 1_555 1_555
Cu2_2 O3_2 1_555 1_555
Cu3_2 O2_2 1_555 1_555
Cu4_2 O7_2 1_555 1_555
Cu5_2 O8_2 1_555 1_555
Cu6_2 O10_2 1_555 1_555
O1_2 C2_2 1_555 1_555
O2_2 C2_2 1_555 1_555
O3_2 Gd2_2 1_555 1_555
O4_2 Cu1_2 1_555 1_555
O5_2 Gd2_2 1_555 1_555
O6_2 Cu2_2 1_555 1_555
O7_2 Gd2_2 1_555 1_555
O8_2 C8_2 1_555 1_555
O9_2 Gd2_2 1_555 1_555
O10_2 C10_2 1_555 1_555
O11_2 Gd2_2 1_555 1_555
O12_2 Cu4_2 1_555 1_555
O15_2 C14_2 1_555 1_555
O16_2 Cu6_2 1_555 1_555
O17_2 C15_2 1_555 1_555
O18_2 Cu5_2 1_555 1_555
O19_2 Gd2_2 1_555 1_555
O20_2 Gd2_2 1_555 1_555
O21_2 Gd2_2 1_555 1_555
O22_2 Cu1_2 1_555 1_555
O23_2 Cu2_2 1_555 1_555
O24_2 Cu3_2 1_555 1_555
O25_2 Cu2_2 1_555 1_555
O26_2 Cu3_2 1_555 1_555
N2_2 Cu2_2 1_555 1_555
H3_2 N2_2 1_555 1_555
H4_2 N2_2 1_555 1_555
N3_2 Cu3_2 1_555 1_555
H5_2 N3_2 1_555 1_555
H6_2 N3_2 1_555 1_555
N4_2 Cu4_2 1_555 1_555
H7_2 N4_2 1_555 1_555
N5_2 Cu5_2 1_555 1_555
H9_2 N5_2 1_555 1_555
H10_2 N5_2 1_555 1_555
N6_2 Cu6_2 1_555 1_555
H11_2 N6_2 1_555 1_555
H12_2 N6_2 1_555 1_555
H13_2 C1_2 1_555 1_555
H14_2 C1_2 1_555 1_555
C2_2 C1_2 1_555 1_555
C3_2 N2_2 1_555 1_555
H15_2 C3_2 1_555 1_555
H16_2 C3_2 1_555 1_555
C4_2 O3_2 1_555 1_555
C5_2 N3_2 1_555 1_555
H17_2 C5_2 1_555 1_555
H18_2 C5_2 1_555 1_555
C6_2 O5_2 1_555 1_555
C7_2 N4_2 1_555 1_555
H20_2 C7_2 1_555 1_555
C8_2 O7_2 1_555 1_555
C9_2 N5_2 1_555 1_555
H21_2 C9_2 1_555 1_555
H22_2 C9_2 1_555 1_555
C10_2 O9_2 1_555 1_555
C11_2 N6_2 1_555 1_555
C12_2 O11_2 1_555 1_555
C14_2 O16_2 1_555 1_555
H26_2 C14_2 1_555 1_555
C15_2 O18_2 1_555 1_555
H27_2 C15_2 1_555 1_555
Gd4 O17_2 1_555 1_555
Gd4_2 O15_2 1_555 1_555
Cu1_2 O19_2 1_555 1_555
Cu2_2 O20_2 1_555 1_555
Cu3_2 O5_2 1_555 1_555
Cu3_2 O21_2 1_555 1_555
Cu4_2 O19_2 1_555 1_555
Cu4_2 O22_2 1_555 1_555
Cu5_2 O9_2 1_555 1_555
Cu5_2 O21_2 1_555 1_555
Cu5_2 O24_2 1_555 1_555
Cu6_2 O11_2 1_555 1_555
Cu6_2 O20_2 1_555 1_555
Cu6_2 O23_2 1_555 1_555
O4_2 C4_2 1_555 1_555
O6_2 C6_2 1_555 1_555
O12_2 C12_2 1_555 1_555
C3_2 C4_2 1_555 1_555
C5_2 C6_2 1_555 1_555
C7_2 C8_2 1_555 1_555
C9_2 C10_2 1_555 1_555
C11_2 C12_2 1_555 1_555
O25_2 H28_2 1_555 1_555
O25_2 H29_2 1_555 1_555
O26_2 H34_2 1_555 1_555
O26_2 H35_2 1_555 1_555
Gd1_2 O13_2 1_555 1_555
O13_2 C13_2 1_555 1_555
O28_2 Gd1_2 1_555 1_555
O29_2 Gd1_2 1_555 1_555
O30_2 Gd1_2 1_555 1_555
O31_2 Gd1_2 1_555 1_555
O32_2 Gd1_2 1_555 1_555
O33_2 Gd1_2 1_555 1_555
H1_2 N1_2 1_555 1_555
H2_2 N1_2 1_555 1_555
C13_2 O14_2 1_555 1_555
H25_2 C13_2 1_555 1_555
O34_2 Gd1_2 1_555 1_555
O35_2 Gd1_2 1_555 1_555
O27_2 H30_2 1_555 1_555
O27_2 H31_2 1_555 1_555
O33_2 H32_2 1_555 1_555
O33_2 H33_2 1_555 1_555
O29_2 H36_2 1_555 1_555
O29_2 H37_2 1_555 1_555
O28_2 H38_2 1_555 1_555
O28_2 H39_2 1_555 1_555
O32_2 H40_2 1_555 1_555
O32_2 H41_2 1_555 1_555
O31_2 H42_2 1_555 1_555
O31_2 H43_2 1_555 1_555
O30_2 H44_2 1_555 1_555
O30_2 H45_2 1_555 1_555
Gd1_3 O13_3 1_555 1_555
Gd2_3 O1_3 1_555 1_555
Cu1_3 O1_3 1_555 1_555
Cu2_3 O3_3 1_555 1_555
Cu3_3 O2_3 1_555 1_555
Cu4_3 O7_3 1_555 1_555
Cu5_3 O8_3 1_555 1_555
Cu6_3 O10_3 1_555 1_555
O1_3 C2_3 1_555 1_555
O2_3 C2_3 1_555 1_555
O3_3 Gd2_3 1_555 1_555
O4_3 Cu1_3 1_555 1_555
O5_3 Gd2_3 1_555 1_555
O6_3 Cu2_3 1_555 1_555
O7_3 Gd2_3 1_555 1_555
O8_3 C8_3 1_555 1_555
O9_3 Gd2_3 1_555 1_555
O10_3 C10_3 1_555 1_555
O11_3 Gd2_3 1_555 1_555
O12_3 Cu4_3 1_555 1_555
O13_3 C13_3 1_555 1_555
O14_3 Cu1_3 1_555 1_555
O15_3 C14_3 1_555 1_555
O16_3 Cu6_3 1_555 1_555
O17_3 C15_3 1_555 1_555
O18_3 Cu5_3 1_555 1_555
O19_3 Gd2_3 1_555 1_555
O20_3 Gd2_3 1_555 1_555
O21_3 Gd2_3 1_555 1_555
O22_3 Cu1_3 1_555 1_555
O23_3 Cu2_3 1_555 1_555
O24_3 Cu3_3 1_555 1_555
O25_3 Cu2_3 1_555 1_555
O26_3 Cu3_3 1_555 1_555
O27_3 Cu4_3 1_555 1_555
O28_3 Gd1_3 1_555 1_555
O29_3 Gd1_3 1_555 1_555
O30_3 Gd1_3 1_555 1_555
O31_3 Gd1_3 1_555 1_555
O32_3 Gd1_3 1_555 1_555
O33_3 Gd1_3 1_555 1_555
N1_3 Cu1_3 1_555 1_555
H1_3 N1_3 1_555 1_555
H2_3 N1_3 1_555 1_555
N2_3 Cu2_3 1_555 1_555
H3_3 N2_3 1_555 1_555
H4_3 N2_3 1_555 1_555
N3_3 Cu3_3 1_555 1_555
H5_3 N3_3 1_555 1_555
H6_3 N3_3 1_555 1_555
N4_3 Cu4_3 1_555 1_555
H7_3 N4_3 1_555 1_555
N5_3 Cu5_3 1_555 1_555
H9_3 N5_3 1_555 1_555
H10_3 N5_3 1_555 1_555
N6_3 Cu6_3 1_555 1_555
H11_3 N6_3 1_555 1_555
H12_3 N6_3 1_555 1_555
C1_3 N1_3 1_555 1_555
H13_3 C1_3 1_555 1_555
H14_3 C1_3 1_555 1_555
C2_3 C1_3 1_555 1_555
C3_3 N2_3 1_555 1_555
H15_3 C3_3 1_555 1_555
H16_3 C3_3 1_555 1_555
C4_3 O3_3 1_555 1_555
C5_3 N3_3 1_555 1_555
H17_3 C5_3 1_555 1_555
H18_3 C5_3 1_555 1_555
C6_3 O5_3 1_555 1_555
C7_3 N4_3 1_555 1_555
H20_3 C7_3 1_555 1_555
C8_3 O7_3 1_555 1_555
C9_3 N5_3 1_555 1_555
H21_3 C9_3 1_555 1_555
H22_3 C9_3 1_555 1_555
C10_3 O9_3 1_555 1_555
C11_3 N6_3 1_555 1_555
C12_3 O11_3 1_555 1_555
C13_3 O14_3 1_555 1_555
H25_3 C13_3 1_555 1_555
C14_3 O16_3 1_555 1_555
H26_3 C14_3 1_555 1_555
C15_3 O18_3 1_555 1_555
H27_3 C15_3 1_555 1_555
Gd4_2 O17_3 1_555 1_555
Gd3 O15_3 1_555 1_555
O34_3 Gd1_3 1_555 1_555
O35_3 Gd1_3 1_555 1_555
Cu1_3 O19_3 1_555 1_555
Cu2_3 O20_3 1_555 1_555
Cu3_3 O5_3 1_555 1_555
Cu3_3 O21_3 1_555 1_555
Cu4_3 O19_3 1_555 1_555
Cu4_3 O22_3 1_555 1_555
Cu5_3 O9_3 1_555 1_555
Cu5_3 O21_3 1_555 1_555
Cu5_3 O24_3 1_555 1_555
Cu6_3 O11_3 1_555 1_555
Cu6_3 O20_3 1_555 1_555
Cu6_3 O23_3 1_555 1_555
O4_3 C4_3 1_555 1_555
O6_3 C6_3 1_555 1_555
O12_3 C12_3 1_555 1_555
C3_3 C4_3 1_555 1_555
C5_3 C6_3 1_555 1_555
C7_3 C8_3 1_555 1_555
C9_3 C10_3 1_555 1_555
C11_3 C12_3 1_555 1_555
O25_3 H28_3 1_555 1_555
O25_3 H29_3 1_555 1_555
O27_3 H30_3 1_555 1_555
O27_3 H31_3 1_555 1_555
O33_3 H32_3 1_555 1_555
O33_3 H33_3 1_555 1_555
O26_3 H34_3 1_555 1_555
O26_3 H35_3 1_555 1_555
O29_3 H36_3 1_555 1_555
O29_3 H37_3 1_555 1_555
O28_3 H38_3 1_555 1_555
O28_3 H39_3 1_555 1_555
O32_3 H40_3 1_555 1_555
O32_3 H41_3 1_555 1_555
O31_3 H42_3 1_555 1_555
O31_3 H43_3 1_555 1_555
O30_3 H44_3 1_555 1_555
O30_3 H45_3 1_555 1_555
Gd2_4 O1_4 1_555 1_555
Cu1_4 O1_4 1_555 1_555
Cu2_4 O3_4 1_555 1_555
Cu3_4 O2_4 1_555 1_555
Cu4_4 O7_4 1_555 1_555
Cu5_4 O8_4 1_555 1_555
Cu6_4 O10_4 1_555 1_555
O1_4 C2_4 1_555 1_555
O2_4 C2_4 1_555 1_555
O3_4 Gd2_4 1_555 1_555
O4_4 Cu1_4 1_555 1_555
O5_4 Gd2_4 1_555 1_555
O6_4 Cu2_4 1_555 1_555
O7_4 Gd2_4 1_555 1_555
O8_4 C8_4 1_555 1_555
O9_4 Gd2_4 1_555 1_555
O10_4 C10_4 1_555 1_555
O11_4 Gd2_4 1_555 1_555
O12_4 Cu4_4 1_555 1_555
O13_4 C13_4 1_555 1_555
O14_4 Cu1_4 1_555 1_555
O17_4 C15_4 1_555 1_555
O18_4 Cu5_4 1_555 1_555
O19_4 Gd2_4 1_555 1_555
O20_4 Gd2_4 1_555 1_555
O21_4 Gd2_4 1_555 1_555
O22_4 Cu1_4 1_555 1_555
O23_4 Cu2_4 1_555 1_555
O24_4 Cu3_4 1_555 1_555
O26_4 Cu3_4 1_555 1_555
O27_4 Cu4_4 1_555 1_555
N1_4 Cu1_4 1_555 1_555
H1_4 N1_4 1_555 1_555
H2_4 N1_4 1_555 1_555
N2_4 Cu2_4 1_555 1_555
H4_4 N2_4 1_555 1_555
N3_4 Cu3_4 1_555 1_555
H6_4 N3_4 1_555 1_555
N4_4 Cu4_4 1_555 1_555
H7_4 N4_4 1_555 1_555
H8 N4_4 1_555 1_555
N5_4 Cu5_4 1_555 1_555
H9_4 N5_4 1_555 1_555
H10_4 N5_4 1_555 1_555
N6_4 Cu6_4 1_555 1_555
C1_4 N1_4 1_555 1_555
H13_4 C1_4 1_555 1_555
C2_4 C1_4 1_555 1_555
C3_4 N2_4 1_555 1_555
H15_4 C3_4 1_555 1_555
C4_4 O3_4 1_555 1_555
C6_4 O5_4 1_555 1_555
C7_4 N4_4 1_555 1_555
H19 C7_4 1_555 1_555
H20_4 C7_4 1_555 1_555
C8_4 O7_4 1_555 1_555
C9_4 N5_4 1_555 1_555
H21_4 C9_4 1_555 1_555
H22_4 C9_4 1_555 1_555
C10_4 O9_4 1_555 1_555
C11_4 N6_4 1_555 1_555
H23 C11_4 1_555 1_555
H24 C11_4 1_555 1_555
C12_4 O11_4 1_555 1_555
C13_4 O14_4 1_555 1_555
H25_4 C13_4 1_555 1_555
C15_4 O18_4 1_555 1_555
H27_4 C15_4 1_555 1_555
Gd3_2 O17_4 1_555 1_555
Cu1_4 O19_4 1_555 1_555
Cu2_4 O20_4 1_555 1_555
Cu3_4 O5_4 1_555 1_555
Cu3_4 O21_4 1_555 1_555
Cu4_4 O19_4 1_555 1_555
Cu4_4 O22_4 1_555 1_555
Cu5_4 O9_4 1_555 1_555
Cu5_4 O21_4 1_555 1_555
Cu5_4 O24_4 1_555 1_555
Cu6_4 O11_4 1_555 1_555
Cu6_4 O20_4 1_555 1_555
Cu6_4 O23_4 1_555 1_555
O4_4 C4_4 1_555 1_555
O6_4 C6_4 1_555 1_555
O12_4 C12_4 1_555 1_555
C3_4 C4_4 1_555 1_555
C7_4 C8_4 1_555 1_555
C9_4 C10_4 1_555 1_555
C11_4 C12_4 1_555 1_555
O27_4 H30_4 1_555 1_555
O27_4 H31_4 1_555 1_555
O33_4 H32_4 1_555 1_555
O33_4 H33_4 1_555 1_555
O26_4 H34_4 1_555 1_555
O26_4 H35_4 1_555 1_555
O29_4 H36_4 1_555 1_555
O32_4 H40_4 1_555 1_555
O32_4 H41_4 1_555 1_555
O31_4 H42_4 1_555 1_555
O28_4 Gd4_2 1_555 1_555
O30_4 Gd4_2 1_555 1_555
H17_4 C5_4 1_555 1_555
H18_4 C5_4 1_555 1_555
O28_4 H38_4 1_555 1_555
O28_4 H39_4 1_555 1_555
O30_4 H44_4 1_555 1_555
O30_4 H45_4 1_555 1_555
O15_4 C14_4 1_555 1_555
C14_4 O16_4 1_555 1_555
H26_4 C14_4 1_555 1_555
Gd4_3 O15_4 1_555 1_555
O25_4 H28_4 1_555 1_555
O25_4 H29_4 1_555 1_555
O17_5 C15_5 1_555 1_555
C15_5 O18_5 1_555 1_555
H27_5 C15_5 1_555 1_555
Gd4_3 O17_5 1_555 1_555
O26_5 H34_5 1_555 1_555
O26_5 H35_5 1_555 1_555
Gd2_5 O1_5 1_555 1_555
Cu1_5 O1_5 1_555 1_555
Cu2_5 O3_5 1_555 1_555
Cu3_5 O2_5 1_555 1_555
Cu4_5 O7_5 1_555 1_555
Cu5_5 O8_5 1_555 1_555
Cu6_5 O10_5 1_555 1_555
O1_5 C2_5 1_555 1_555
O2_5 C2_5 1_555 1_555
O3_5 Gd2_5 1_555 1_555
O4_5 Cu1_5 1_555 1_555
O5_5 Gd2_5 1_555 1_555
O6_5 Cu2_5 1_555 1_555
O7_5 Gd2_5 1_555 1_555
O8_5 C8_5 1_555 1_555
O9_5 Gd2_5 1_555 1_555
O10_5 C10_5 1_555 1_555
O11_5 Gd2_5 1_555 1_555
O12_5 Cu4_5 1_555 1_555
O13_5 C13_5 1_555 1_555
O14_5 Cu1_5 1_555 1_555
O15_5 C14_5 1_555 1_555
O16_5 Cu6_5 1_555 1_555
O19_5 Gd2_5 1_555 1_555
O20_5 Gd2_5 1_555 1_555
O21_5 Gd2_5 1_555 1_555
O22_5 Cu1_5 1_555 1_555
O23_5 Cu2_5 1_555 1_555
O24_5 Cu3_5 1_555 1_555
O25_5 Cu2_5 1_555 1_555
O27_5 Cu4_5 1_555 1_555
N1_5 Cu1_5 1_555 1_555
H1_5 N1_5 1_555 1_555
H2_5 N1_5 1_555 1_555
N2_5 Cu2_5 1_555 1_555
H4_5 N2_5 1_555 1_555
N3_5 Cu3_5 1_555 1_555
H6_5 N3_5 1_555 1_555
N4_5 Cu4_5 1_555 1_555
H7_5 N4_5 1_555 1_555
H8_2 N4_5 1_555 1_555
N5_5 Cu5_5 1_555 1_555
H10_5 N5_5 1_555 1_555
N6_5 Cu6_5 1_555 1_555
H11_5 N6_5 1_555 1_555
H12_5 N6_5 1_555 1_555
C1_5 N1_5 1_555 1_555
H13_5 C1_5 1_555 1_555
C2_5 C1_5 1_555 1_555
C3_5 N2_5 1_555 1_555
H15_5 C3_5 1_555 1_555
C4_5 O3_5 1_555 1_555
C6_5 O5_5 1_555 1_555
C7_5 N4_5 1_555 1_555
H19_2 C7_5 1_555 1_555
H20_5 C7_5 1_555 1_555
C8_5 O7_5 1_555 1_555
C9_5 N5_5 1_555 1_555
H21_5 C9_5 1_555 1_555
H22_5 C9_5 1_555 1_555
C10_5 O9_5 1_555 1_555
C11_5 N6_5 1_555 1_555
H23_2 C11_5 1_555 1_555
H24_2 C11_5 1_555 1_555
C12_5 O11_5 1_555 1_555
C13_5 O14_5 1_555 1_555
H25_5 C13_5 1_555 1_555
C14_5 O16_5 1_555 1_555
H26_5 C14_5 1_555 1_555
Gd4_4 O15_5 1_555 1_555
Cu1_5 O19_5 1_555 1_555
Cu2_5 O20_5 1_555 1_555
Cu3_5 O5_5 1_555 1_555
Cu3_5 O21_5 1_555 1_555
Cu4_5 O19_5 1_555 1_555
Cu4_5 O22_5 1_555 1_555
Cu5_5 O9_5 1_555 1_555
Cu5_5 O21_5 1_555 1_555
Cu5_5 O24_5 1_555 1_555
Cu6_5 O11_5 1_555 1_555
Cu6_5 O20_5 1_555 1_555
Cu6_5 O23_5 1_555 1_555
O4_5 C4_5 1_555 1_555
O6_5 C6_5 1_555 1_555
O12_5 C12_5 1_555 1_555
C3_5 C4_5 1_555 1_555
C7_5 C8_5 1_555 1_555
C9_5 C10_5 1_555 1_555
C11_5 C12_5 1_555 1_555
O25_5 H28_5 1_555 1_555
O25_5 H29_5 1_555 1_555
O27_5 H30_5 1_555 1_555
O27_5 H31_5 1_555 1_555
O33_5 H32_5 1_555 1_555
O33_5 H33_5 1_555 1_555
O29_5 H36_5 1_555 1_555
O32_5 H40_5 1_555 1_555
O32_5 H41_5 1_555 1_555
O31_5 H42_5 1_555 1_555
O28_5 Gd3 1_555 1_555
O30_5 Gd3 1_555 1_555
H17_5 C5_5 1_555 1_555
H18_5 C5_5 1_555 1_555
O28_5 H38_5 1_555 1_555
O28_5 H39_5 1_555 1_555
O30_5 H44_5 1_555 1_555
O30_5 H45_5 1_555 1_555
O15_6 C14_6 1_555 1_555
C14_6 O16_6 1_555 1_555
H26_6 C14_6 1_555 1_555
Gd3_2 O15_6 1_555 1_555
O25_6 H28_6 1_555 1_555
O25_6 H29_6 1_555 1_555
O28_6 Gd4 1_555 1_555
O30_6 Gd4 1_555 1_555
H17_6 C5_6 1_555 1_555
H18_6 C5_6 1_555 1_555
O28_6 H38_6 1_555 1_555
O28_6 H39_6 1_555 1_555
O30_6 H44_6 1_555 1_555
O30_6 H45_6 1_555 1_555
O17_6 C15_6 1_555 1_555
C15_6 O18_6 1_555 1_555
H27_6 C15_6 1_555 1_555
Gd4_4 O17_6 1_555 1_555
O26_6 H34_6 1_555 1_555
O26_6 H35_6 1_555 1_555
Gd4_4 O13_6 1_555 1_555
Gd2_6 O1_6 1_555 1_555
Cu1_6 O1_6 1_555 1_555
Cu2_6 O3_6 1_555 1_555
Cu3_6 O2_6 1_555 1_555
Cu4_6 O7_6 1_555 1_555
Cu5_6 O8_6 1_555 1_555
Cu6_6 O10_6 1_555 1_555
O1_6 C2_6 1_555 1_555
O2_6 C2_6 1_555 1_555
O3_6 Gd2_6 1_555 1_555
O4_6 Cu1_6 1_555 1_555
O5_6 Gd2_6 1_555 1_555
O6_6 Cu2_6 1_555 1_555
O7_6 Gd2_6 1_555 1_555
O8_6 C8_6 1_555 1_555
O9_6 Gd2_6 1_555 1_555
O10_6 C10_6 1_555 1_555
O11_6 Gd2_6 1_555 1_555
O12_6 Cu4_6 1_555 1_555
O13_6 C13_6 1_555 1_555
O14_6 Cu1_6 1_555 1_555
O34_3 C14_7 1_555 1_555
O16_7 Cu6_6 1_555 1_555
O35_2 C15_7 1_555 1_555
O18_7 Cu5_6 1_555 1_555
O19_6 Gd2_6 1_555 1_555
O20_6 Gd2_6 1_555 1_555
O21_6 Gd2_6 1_555 1_555
O22_6 Cu1_6 1_555 1_555
O23_6 Cu2_6 1_555 1_555
O24_6 Cu3_6 1_555 1_555
O25_7 Cu2_6 1_555 1_555
O26_7 Cu3_6 1_555 1_555
O27_6 Cu4_6 1_555 1_555
O28_7 Gd4_4 1_555 1_555
O29_6 Gd4_4 1_555 1_555
O30_7 Gd4_4 1_555 1_555
O31_6 Gd4_4 1_555 1_555
O32_6 Gd4_4 1_555 1_555
O33_6 Gd4_4 1_555 1_555
N1_6 Cu1_6 1_555 1_555
H1_6 N1_6 1_555 1_555
H2_6 N1_6 1_555 1_555
N2_6 Cu2_6 1_555 1_555
H3_7 N2_6 1_555 1_555
H4_6 N2_6 1_555 1_555
N3_6 Cu3_6 1_555 1_555
H5_7 N3_6 1_555 1_555
H6_6 N3_6 1_555 1_555
N4_6 Cu4_6 1_555 1_555
H7_6 N4_6 1_555 1_555
H8_3 N4_6 1_555 1_555
N5_6 Cu5_6 1_555 1_555
H9_7 N5_6 1_555 1_555
H10_6 N5_6 1_555 1_555
N6_6 Cu6_6 1_555 1_555
H11_7 N6_6 1_555 1_555
H12_7 N6_6 1_555 1_555
C1_6 N1_6 1_555 1_555
H13_6 C1_6 1_555 1_555
H14_7 C1_6 1_555 1_555
C2_6 C1_6 1_555 1_555
C3_6 N2_6 1_555 1_555
H15_6 C3_6 1_555 1_555
H16_7 C3_6 1_555 1_555
C4_6 O3_6 1_555 1_555
C5_7 N3_6 1_555 1_555
H17_7 C5_7 1_555 1_555
H18_7 C5_7 1_555 1_555
C6_6 O5_6 1_555 1_555
C7_6 N4_6 1_555 1_555
H19_3 C7_6 1_555 1_555
H20_6 C7_6 1_555 1_555
C8_6 O7_6 1_555 1_555
C9_6 N5_6 1_555 1_555
H21_6 C9_6 1_555 1_555
H22_6 C9_6 1_555 1_555
C10_6 O9_6 1_555 1_555
C11_6 N6_6 1_555 1_555
H23_3 C11_6 1_555 1_555
H24_3 C11_6 1_555 1_555
C12_6 O11_6 1_555 1_555
C13_6 O14_6 1_555 1_555
H25_6 C13_6 1_555 1_555
C14_7 O16_7 1_555 1_555
H26_7 C14_7 1_555 1_555
C15_7 O18_7 1_555 1_555
H27_7 C15_7 1_555 1_555
Cu1_6 O19_6 1_555 1_555
Cu2_6 O20_6 1_555 1_555
Cu3_6 O5_6 1_555 1_555
Cu3_6 O21_6 1_555 1_555
Cu4_6 O19_6 1_555 1_555
Cu4_6 O22_6 1_555 1_555
Cu5_6 O9_6 1_555 1_555
Cu5_6 O21_6 1_555 1_555
Cu5_6 O24_6 1_555 1_555
Cu6_6 O11_6 1_555 1_555
Cu6_6 O20_6 1_555 1_555
Cu6_6 O23_6 1_555 1_555
O4_6 C4_6 1_555 1_555
O6_6 C6_6 1_555 1_555
O12_6 C12_6 1_555 1_555
C3_6 C4_6 1_555 1_555
C5_7 C6_6 1_555 1_555
C7_6 C8_6 1_555 1_555
C9_6 C10_6 1_555 1_555
C11_6 C12_6 1_555 1_555
O25_7 H28_7 1_555 1_555
O25_7 H29_7 1_555 1_555
O27_6 H30_6 1_555 1_555
O27_6 H31_6 1_555 1_555
O33_6 H32_6 1_555 1_555
O33_6 H33_6 1_555 1_555
O26_7 H34_7 1_555 1_555
O26_7 H35_7 1_555 1_555
O29_6 H36_6 1_555 1_555
O29_6 H37_7 1_555 1_555
O28_7 H38_7 1_555 1_555
O28_7 H39_7 1_555 1_555
O32_6 H40_6 1_555 1_555
O32_6 H41_6 1_555 1_555
O31_6 H42_6 1_555 1_555
O31_6 H43_7 1_555 1_555
O30_7 H44_7 1_555 1_555
O30_7 H45_7 1_555 1_555
Gd3_2 O13_7 1_555 1_555
Gd2_7 O1_7 1_555 1_555
Cu1_7 O1_7 1_555 1_555
Cu2_7 O3_7 1_555 1_555
Cu3_7 O2_7 1_555 1_555
Cu4_7 O7_7 1_555 1_555
Cu5_7 O8_7 1_555 1_555
Cu6_7 O10_7 1_555 1_555
O1_7 C2_7 1_555 1_555
O2_7 C2_7 1_555 1_555
O3_7 Gd2_7 1_555 1_555
O4_7 Cu1_7 1_555 1_555
O5_7 Gd2_7 1_555 1_555
O6_7 Cu2_7 1_555 1_555
O7_7 Gd2_7 1_555 1_555
O8_7 C8_7 1_555 1_555
O9_7 Gd2_7 1_555 1_555
O10_7 C10_7 1_555 1_555
O11_7 Gd2_7 1_555 1_555
O12_7 Cu4_7 1_555 1_555
O13_7 C13_7 1_555 1_555
O14_7 Cu1_7 1_555 1_555
O34 C14_8 1_555 1_555
O16_8 Cu6_7 1_555 1_555
O35_3 C15_8 1_555 1_555
O18_8 Cu5_7 1_555 1_555
O19_7 Gd2_7 1_555 1_555
O20_7 Gd2_7 1_555 1_555
O21_7 Gd2_7 1_555 1_555
O22_7 Cu1_7 1_555 1_555
O23_7 Cu2_7 1_555 1_555
O24_7 Cu3_7 1_555 1_555
O25_8 Cu2_7 1_555 1_555
O26_8 Cu3_7 1_555 1_555
O27_7 Cu4_7 1_555 1_555
O28_8 Gd3_2 1_555 1_555
O29_7 Gd3_2 1_555 1_555
O30_8 Gd3_2 1_555 1_555
O31_7 Gd3_2 1_555 1_555
O32_7 Gd3_2 1_555 1_555
O33_7 Gd3_2 1_555 1_555
N1_7 Cu1_7 1_555 1_555
H1_7 N1_7 1_555 1_555
H2_7 N1_7 1_555 1_555
N2_7 Cu2_7 1_555 1_555
H3_8 N2_7 1_555 1_555
H4_7 N2_7 1_555 1_555
N3_7 Cu3_7 1_555 1_555
H5_8 N3_7 1_555 1_555
H6_7 N3_7 1_555 1_555
N4_7 Cu4_7 1_555 1_555
H7_7 N4_7 1_555 1_555
H8_4 N4_7 1_555 1_555
N5_7 Cu5_7 1_555 1_555
H9_8 N5_7 1_555 1_555
H10_7 N5_7 1_555 1_555
N6_7 Cu6_7 1_555 1_555
H11_8 N6_7 1_555 1_555
H12_8 N6_7 1_555 1_555
C1_7 N1_7 1_555 1_555
H13_7 C1_7 1_555 1_555
H14_8 C1_7 1_555 1_555
C2_7 C1_7 1_555 1_555
C3_7 N2_7 1_555 1_555
H15_7 C3_7 1_555 1_555
H16_8 C3_7 1_555 1_555
C4_7 O3_7 1_555 1_555
C5_8 N3_7 1_555 1_555
H17_8 C5_8 1_555 1_555
H18_8 C5_8 1_555 1_555
C6_7 O5_7 1_555 1_555
C7_7 N4_7 1_555 1_555
H19_4 C7_7 1_555 1_555
H20_7 C7_7 1_555 1_555
C8_7 O7_7 1_555 1_555
C9_7 N5_7 1_555 1_555
H21_7 C9_7 1_555 1_555
H22_7 C9_7 1_555 1_555
C10_7 O9_7 1_555 1_555
C11_7 N6_7 1_555 1_555
H23_4 C11_7 1_555 1_555
H24_4 C11_7 1_555 1_555
C12_7 O11_7 1_555 1_555
C13_7 O14_7 1_555 1_555
H25_7 C13_7 1_555 1_555
C14_8 O16_8 1_555 1_555
H26_8 C14_8 1_555 1_555
C15_8 O18_8 1_555 1_555
H27_8 C15_8 1_555 1_555
Cu1_7 O19_7 1_555 1_555
Cu2_7 O20_7 1_555 1_555
Cu3_7 O5_7 1_555 1_555
Cu3_7 O21_7 1_555 1_555
Cu4_7 O19_7 1_555 1_555
Cu4_7 O22_7 1_555 1_555
Cu5_7 O9_7 1_555 1_555
Cu5_7 O21_7 1_555 1_555
Cu5_7 O24_7 1_555 1_555
Cu6_7 O11_7 1_555 1_555
Cu6_7 O20_7 1_555 1_555
Cu6_7 O23_7 1_555 1_555
O4_7 C4_7 1_555 1_555
O6_7 C6_7 1_555 1_555
O12_7 C12_7 1_555 1_555
C3_7 C4_7 1_555 1_555
C5_8 C6_7 1_555 1_555
C7_7 C8_7 1_555 1_555
C9_7 C10_7 1_555 1_555
C11_7 C12_7 1_555 1_555
O25_8 H28_8 1_555 1_555
O25_8 H29_8 1_555 1_555
O27_7 H30_7 1_555 1_555
O27_7 H31_7 1_555 1_555
O33_7 H32_7 1_555 1_555
O33_7 H33_7 1_555 1_555
O26_8 H34_8 1_555 1_555
O26_8 H35_8 1_555 1_555
O29_7 H36_7 1_555 1_555
O29_7 H37_8 1_555 1_555
O28_8 H38_8 1_555 1_555
O28_8 H39_8 1_555 1_555
O32_7 H40_7 1_555 1_555
O32_7 H41_7 1_555 1_555
O31_7 H42_7 1_555 1_555
O31_7 H43_8 1_555 1_555
O30_8 H44_8 1_555 1_555
O30_8 H45_8 1_555 1_555
Gd4_3 O13_8 1_555 1_555
Gd2_8 O1_8 1_555 1_555
Cu1_8 O1_8 1_555 1_555
Cu2_8 O3_8 1_555 1_555
Cu3_8 O2_8 1_555 1_555
Cu4_8 O7_8 1_555 1_555
Cu5_8 O8_8 1_555 1_555
Cu6_8 O10_8 1_555 1_555
O1_8 C2_8 1_555 1_555
O2_8 C2_8 1_555 1_555
O3_8 Gd2_8 1_555 1_555
O4_8 Cu1_8 1_555 1_555
O5_8 Gd2_8 1_555 1_555
O6_8 Cu2_8 1_555 1_555
O7_8 Gd2_8 1_555 1_555
O8_8 C8_8 1_555 1_555
O9_8 Gd2_8 1_555 1_555
O10_8 C10_8 1_555 1_555
O11_8 Gd2_8 1_555 1_555
O12_8 Cu4_8 1_555 1_555
O13_8 C13_8 1_555 1_555
O14_8 Cu1_8 1_555 1_555
O34_2 C14_9 1_555 1_555
O16_9 Cu6_8 1_555 1_555
O35 C15_9 1_555 1_555
O18_9 Cu5_8 1_555 1_555
O19_8 Gd2_8 1_555 1_555
O20_8 Gd2_8 1_555 1_555
O21_8 Gd2_8 1_555 1_555
O22_8 Cu1_8 1_555 1_555
O23_8 Cu2_8 1_555 1_555
O24_8 Cu3_8 1_555 1_555
O25_9 Cu2_8 1_555 1_555
O26_9 Cu3_8 1_555 1_555
O27_8 Cu4_8 1_555 1_555
O28_9 Gd4_3 1_555 1_555
O29_8 Gd4_3 1_555 1_555
O30_9 Gd4_3 1_555 1_555
O31_8 Gd4_3 1_555 1_555
O32_8 Gd4_3 1_555 1_555
O33_8 Gd4_3 1_555 1_555
N1_8 Cu1_8 1_555 1_555
H1_8 N1_8 1_555 1_555
H2_8 N1_8 1_555 1_555
N2_8 Cu2_8 1_555 1_555
H3_9 N2_8 1_555 1_555
H4_8 N2_8 1_555 1_555
N3_8 Cu3_8 1_555 1_555
H5_9 N3_8 1_555 1_555
H6_8 N3_8 1_555 1_555
N4_8 Cu4_8 1_555 1_555
H7_8 N4_8 1_555 1_555
H8_5 N4_8 1_555 1_555
N5_8 Cu5_8 1_555 1_555
H9_9 N5_8 1_555 1_555
H10_8 N5_8 1_555 1_555
N6_8 Cu6_8 1_555 1_555
H11_9 N6_8 1_555 1_555
H12_9 N6_8 1_555 1_555
C1_8 N1_8 1_555 1_555
H13_8 C1_8 1_555 1_555
H14_9 C1_8 1_555 1_555
C2_8 C1_8 1_555 1_555
C3_8 N2_8 1_555 1_555
H15_8 C3_8 1_555 1_555
H16_9 C3_8 1_555 1_555
C4_8 O3_8 1_555 1_555
C5_9 N3_8 1_555 1_555
H17_9 C5_9 1_555 1_555
H18_9 C5_9 1_555 1_555
C6_8 O5_8 1_555 1_555
C7_8 N4_8 1_555 1_555
H19_5 C7_8 1_555 1_555
H20_8 C7_8 1_555 1_555
C8_8 O7_8 1_555 1_555
C9_8 N5_8 1_555 1_555
H21_8 C9_8 1_555 1_555
H22_8 C9_8 1_555 1_555
C10_8 O9_8 1_555 1_555
C11_8 N6_8 1_555 1_555
H23_5 C11_8 1_555 1_555
H24_5 C11_8 1_555 1_555
C12_8 O11_8 1_555 1_555
C13_8 O14_8 1_555 1_555
H25_8 C13_8 1_555 1_555
C14_9 O16_9 1_555 1_555
H26_9 C14_9 1_555 1_555
C15_9 O18_9 1_555 1_555
H27_9 C15_9 1_555 1_555
Cu1_8 O19_8 1_555 1_555
Cu2_8 O20_8 1_555 1_555
Cu3_8 O5_8 1_555 1_555
Cu3_8 O21_8 1_555 1_555
Cu4_8 O19_8 1_555 1_555
Cu4_8 O22_8 1_555 1_555
Cu5_8 O9_8 1_555 1_555
Cu5_8 O21_8 1_555 1_555
Cu5_8 O24_8 1_555 1_555
Cu6_8 O11_8 1_555 1_555
Cu6_8 O20_8 1_555 1_555
Cu6_8 O23_8 1_555 1_555
O4_8 C4_8 1_555 1_555
O6_8 C6_8 1_555 1_555
O12_8 C12_8 1_555 1_555
C3_8 C4_8 1_555 1_555
C5_9 C6_8 1_555 1_555
C7_8 C8_8 1_555 1_555
C9_8 C10_8 1_555 1_555
C11_8 C12_8 1_555 1_555
O25_9 H28_9 1_555 1_555
O25_9 H29_9 1_555 1_555
O27_8 H30_8 1_555 1_555
O27_8 H31_8 1_555 1_555
O33_8 H32_8 1_555 1_555
O33_8 H33_8 1_555 1_555
O26_9 H34_9 1_555 1_555
O26_9 H35_9 1_555 1_555
O29_8 H36_8 1_555 1_555
O29_8 H37_9 1_555 1_555
O28_9 H38_9 1_555 1_555
O28_9 H39_9 1_555 1_555
O32_8 H40_8 1_555 1_555
O32_8 H41_8 1_555 1_555
O31_8 H42_8 1_555 1_555
O31_8 H43_9 1_555 1_555
O30_9 H44_9 1_555 1_555
O30_9 H45_9 1_555 1_555
Gd2_9 O1_9 1_555 1_555
Cu1_9 O1_9 1_555 1_555
Cu2_9 O3_9 1_555 1_555
Cu3_9 O2_9 1_555 1_555
Cu4_9 O7_9 1_555 1_555
Cu5_9 O8_9 1_555 1_555
Cu6_9 O10_9 1_555 1_555
O1_9 C2_9 1_555 1_555
O2_9 C2_9 1_555 1_555
O3_9 Gd2_9 1_555 1_555
O4_9 Cu1_9 1_555 1_555
O5_9 Gd2_9 1_555 1_555
O6_9 Cu2_9 1_555 1_555
O7_9 Gd2_9 1_555 1_555
O8_9 C8_9 1_555 1_555
O9_9 Gd2_9 1_555 1_555
O10_9 C10_9 1_555 1_555
O11_9 Gd2_9 1_555 1_555
O12_9 Cu4_9 1_555 1_555
O13_9 C13_9 1_555 1_555
O14_9 Cu1_9 1_555 1_555
O19_9 Gd2_9 1_555 1_555
O20_9 Gd2_9 1_555 1_555
O21_9 Gd2_9 1_555 1_555
O22_9 Cu1_9 1_555 1_555
O23_9 Cu2_9 1_555 1_555
O24_9 Cu3_9 1_555 1_555
O27_9 Cu4_9 1_555 1_555
N1_9 Cu1_9 1_555 1_555
H1_9 N1_9 1_555 1_555
H2_9 N1_9 1_555 1_555
N2_9 Cu2_9 1_555 1_555
H4_9 N2_9 1_555 1_555
N3_9 Cu3_9 1_555 1_555
H6_9 N3_9 1_555 1_555
N4_9 Cu4_9 1_555 1_555
H7_9 N4_9 1_555 1_555
H8_9 N4_9 1_555 1_555
N5_9 Cu5_9 1_555 1_555
H10_9 N5_9 1_555 1_555
N6_9 Cu6_9 1_555 1_555
C1_9 N1_9 1_555 1_555
H13_9 C1_9 1_555 1_555
C2_9 C1_9 1_555 1_555
C3_9 N2_9 1_555 1_555
H15_9 C3_9 1_555 1_555
C4_9 O3_9 1_555 1_555
C6_9 O5_9 1_555 1_555
C7_9 N4_9 1_555 1_555
H19_9 C7_9 1_555 1_555
H20_9 C7_9 1_555 1_555
C8_9 O7_9 1_555 1_555
C9_9 N5_9 1_555 1_555
H21_9 C9_9 1_555 1_555
H22_9 C9_9 1_555 1_555
C10_9 O9_9 1_555 1_555
C11_9 N6_9 1_555 1_555
H23_9 C11_9 1_555 1_555
H24_9 C11_9 1_555 1_555
C12_9 O11_9 1_555 1_555
C13_9 O14_9 1_555 1_555
H25_9 C13_9 1_555 1_555
Cu1_9 O19_9 1_555 1_555
Cu2_9 O20_9 1_555 1_555
Cu3_9 O5_9 1_555 1_555
Cu3_9 O21_9 1_555 1_555
Cu4_9 O19_9 1_555 1_555
Cu4_9 O22_9 1_555 1_555
Cu5_9 O9_9 1_555 1_555
Cu5_9 O21_9 1_555 1_555
Cu5_9 O24_9 1_555 1_555
Cu6_9 O11_9 1_555 1_555
Cu6_9 O20_9 1_555 1_555
Cu6_9 O23_9 1_555 1_555
O4_9 C4_9 1_555 1_555
O6_9 C6_9 1_555 1_555
O12_9 C12_9 1_555 1_555
C3_9 C4_9 1_555 1_555
C7_9 C8_9 1_555 1_555
C9_9 C10_9 1_555 1_555
C11_9 C12_9 1_555 1_555
O27_9 H30_9 1_555 1_555
O27_9 H31_9 1_555 1_555
O33_9 H32_9 1_555 1_555
O33_9 H33_9 1_555 1_555
O29_9 H36_9 1_555 1_555
O32_9 H40_9 1_555 1_555
O32_9 H41_9 1_555 1_555
O31_9 H42_9 1_555 1_555
Gd2_10 O1_10 1_555 1_555
Cu1_10 O1_10 1_555 1_555
Cu2_10 O3_10 1_555 1_555
Cu3_10 O2_10 1_555 1_555
Cu4_10 O7_10 1_555 1_555
Cu5_10 O8_10 1_555 1_555
Cu6_10 O10_10 1_555 1_555
O1_10 C2_10 1_555 1_555
O2_10 C2_10 1_555 1_555
O3_10 Gd2_10 1_555 1_555
O4_10 Cu1_10 1_555 1_555
O5_10 Gd2_10 1_555 1_555
O6_10 Cu2_10 1_555 1_555
O7_10 Gd2_10 1_555 1_555
O8_10 C8_10 1_555 1_555
O9_10 Gd2_10 1_555 1_555
O10_10 C10_10 1_555 1_555
O11_10 Gd2_10 1_555 1_555
O12_10 Cu4_10 1_555 1_555
O15_7 C14_10 1_555 1_555
O16_10 Cu6_10 1_555 1_555
O17_7 C15_10 1_555 1_555
O18_10 Cu5_10 1_555 1_555
O19_10 Gd2_10 1_555 1_555
O20_10 Gd2_10 1_555 1_555
O21_10 Gd2_10 1_555 1_555
O22_10 Cu1_10 1_555 1_555
O23_10 Cu2_10 1_555 1_555
O24_10 Cu3_10 1_555 1_555
O25_10 Cu2_10 1_555 1_555
O26_10 Cu3_10 1_555 1_555
N2_10 Cu2_10 1_555 1_555
H3_10 N2_10 1_555 1_555
H4_10 N2_10 1_555 1_555
N3_10 Cu3_10 1_555 1_555
H5_10 N3_10 1_555 1_555
H6_10 N3_10 1_555 1_555
N4_10 Cu4_10 1_555 1_555
H7_10 N4_10 1_555 1_555
N5_10 Cu5_10 1_555 1_555
H9_10 N5_10 1_555 1_555
H10_10 N5_10 1_555 1_555
N6_10 Cu6_10 1_555 1_555
H11_10 N6_10 1_555 1_555
H12_10 N6_10 1_555 1_555
H13_10 C1_10 1_555 1_555
H14_10 C1_10 1_555 1_555
C2_10 C1_10 1_555 1_555
C3_10 N2_10 1_555 1_555
H15_10 C3_10 1_555 1_555
H16_10 C3_10 1_555 1_555
C4_10 O3_10 1_555 1_555
C5_10 N3_10 1_555 1_555
H17_10 C5_10 1_555 1_555
H18_10 C5_10 1_555 1_555
C6_10 O5_10 1_555 1_555
C7_10 N4_10 1_555 1_555
H20_10 C7_10 1_555 1_555
C8_10 O7_10 1_555 1_555
C9_10 N5_10 1_555 1_555
H21_10 C9_10 1_555 1_555
H22_10 C9_10 1_555 1_555
C10_10 O9_10 1_555 1_555
C11_10 N6_10 1_555 1_555
C12_10 O11_10 1_555 1_555
C14_10 O16_10 1_555 1_555
H26_10 C14_10 1_555 1_555
C15_10 O18_10 1_555 1_555
H27_10 C15_10 1_555 1_555
Gd3_3 O17_7 1_555 1_555
Gd4_5 O15_7 1_555 1_555
Cu1_10 O19_10 1_555 1_555
Cu2_10 O20_10 1_555 1_555
Cu3_10 O5_10 1_555 1_555
Cu3_10 O21_10 1_555 1_555
Cu4_10 O19_10 1_555 1_555
Cu4_10 O22_10 1_555 1_555
Cu5_10 O9_10 1_555 1_555
Cu5_10 O21_10 1_555 1_555
Cu5_10 O24_10 1_555 1_555
Cu6_10 O11_10 1_555 1_555
Cu6_10 O20_10 1_555 1_555
Cu6_10 O23_10 1_555 1_555
O4_10 C4_10 1_555 1_555
O6_10 C6_10 1_555 1_555
O12_10 C12_10 1_555 1_555
C3_10 C4_10 1_555 1_555
C5_10 C6_10 1_555 1_555
C7_10 C8_10 1_555 1_555
C9_10 C10_10 1_555 1_555
C11_10 C12_10 1_555 1_555
O25_10 H28_10 1_555 1_555
O25_10 H29_10 1_555 1_555
O26_10 H34_10 1_555 1_555
O26_10 H35_10 1_555 1_555
Gd1_4 O13_10 1_555 1_555
O13_10 C13_10 1_555 1_555
O28_10 Gd1_4 1_555 1_555
O29_10 Gd1_4 1_555 1_555
O30_10 Gd1_4 1_555 1_555
O31_10 Gd1_4 1_555 1_555
O32_10 Gd1_4 1_555 1_555
O33_10 Gd1_4 1_555 1_555
H1_10 N1_10 1_555 1_555
H2_10 N1_10 1_555 1_555
C13_10 O14_10 1_555 1_555
H25_10 C13_10 1_555 1_555
O34_4 Gd1_4 1_555 1_555
O35_4 Gd1_4 1_555 1_555
O27_10 H30_10 1_555 1_555
O27_10 H31_10 1_555 1_555
O33_10 H32_10 1_555 1_555
O33_10 H33_10 1_555 1_555
O29_10 H36_10 1_555 1_555
O29_10 H37_10 1_555 1_555
O28_10 H38_10 1_555 1_555
O28_10 H39_10 1_555 1_555
O32_10 H40_10 1_555 1_555
O32_10 H41_10 1_555 1_555
O31_10 H42_10 1_555 1_555
O31_10 H43_10 1_555 1_555
O30_10 H44_10 1_555 1_555
O30_10 H45_10 1_555 1_555
Gd1_5 O13_11 1_555 1_555
O13_11 C13_11 1_555 1_555
O28_11 Gd1_5 1_555 1_555
O29_11 Gd1_5 1_555 1_555
O30_11 Gd1_5 1_555 1_555
O31_11 Gd1_5 1_555 1_555
O32_11 Gd1_5 1_555 1_555
O33_11 Gd1_5 1_555 1_555
H1_11 N1_11 1_555 1_555
H2_11 N1_11 1_555 1_555
C13_11 O14_11 1_555 1_555
H25_11 C13_11 1_555 1_555
O34_5 Gd1_5 1_555 1_555
O35_5 Gd1_5 1_555 1_555
O27_11 H30_11 1_555 1_555
O27_11 H31_11 1_555 1_555
O33_11 H32_11 1_555 1_555
O33_11 H33_11 1_555 1_555
O29_11 H36_11 1_555 1_555
O29_11 H37_11 1_555 1_555
O28_11 H38_11 1_555 1_555
O28_11 H39_11 1_555 1_555
O32_11 H40_11 1_555 1_555
O32_11 H41_11 1_555 1_555
O31_11 H42_11 1_555 1_555
O31_11 H43_11 1_555 1_555
O30_11 H44_11 1_555 1_555
O30_11 H45_11 1_555 1_555
Gd2_11 O1_11 1_555 1_555
Cu1_11 O1_11 1_555 1_555
Cu2_11 O3_11 1_555 1_555
Cu3_11 O2_11 1_555 1_555
Cu4_11 O7_11 1_555 1_555
Cu5_11 O8_11 1_555 1_555
Cu6_11 O10_11 1_555 1_555
O1_11 C2_11 1_555 1_555
O2_11 C2_11 1_555 1_555
O3_11 Gd2_11 1_555 1_555
O4_11 Cu1_11 1_555 1_555
O5_11 Gd2_11 1_555 1_555
O6_11 Cu2_11 1_555 1_555
O7_11 Gd2_11 1_555 1_555
O8_11 C8_11 1_555 1_555
O9_11 Gd2_11 1_555 1_555
O10_11 C10_11 1_555 1_555
O11_11 Gd2_11 1_555 1_555
O12_11 Cu4_11 1_555 1_555
O15_8 C14_11 1_555 1_555
O16_11 Cu6_11 1_555 1_555
O17_8 C15_11 1_555 1_555
O18_11 Cu5_11 1_555 1_555
O19_11 Gd2_11 1_555 1_555
O20_11 Gd2_11 1_555 1_555
O21_11 Gd2_11 1_555 1_555
O22_11 Cu1_11 1_555 1_555
O23_11 Cu2_11 1_555 1_555
O24_11 Cu3_11 1_555 1_555
O25_11 Cu2_11 1_555 1_555
O26_11 Cu3_11 1_555 1_555
N2_11 Cu2_11 1_555 1_555
H3_11 N2_11 1_555 1_555
H4_11 N2_11 1_555 1_555
N3_11 Cu3_11 1_555 1_555
H5_11 N3_11 1_555 1_555
H6_11 N3_11 1_555 1_555
N4_11 Cu4_11 1_555 1_555
H7_11 N4_11 1_555 1_555
N5_11 Cu5_11 1_555 1_555
H9_11 N5_11 1_555 1_555
H10_11 N5_11 1_555 1_555
N6_11 Cu6_11 1_555 1_555
H11_11 N6_11 1_555 1_555
H12_11 N6_11 1_555 1_555
H13_11 C1_11 1_555 1_555
H14_11 C1_11 1_555 1_555
C2_11 C1_11 1_555 1_555
C3_11 N2_11 1_555 1_555
H15_11 C3_11 1_555 1_555
H16_11 C3_11 1_555 1_555
C4_11 O3_11 1_555 1_555
C5_11 N3_11 1_555 1_555
H17_11 C5_11 1_555 1_555
H18_11 C5_11 1_555 1_555
C6_11 O5_11 1_555 1_555
C7_11 N4_11 1_555 1_555
H20_11 C7_11 1_555 1_555
C8_11 O7_11 1_555 1_555
C9_11 N5_11 1_555 1_555
H21_11 C9_11 1_555 1_555
H22_11 C9_11 1_555 1_555
C10_11 O9_11 1_555 1_555
C11_11 N6_11 1_555 1_555
C12_11 O11_11 1_555 1_555
C14_11 O16_11 1_555 1_555
H26_11 C14_11 1_555 1_555
C15_11 O18_11 1_555 1_555
H27_11 C15_11 1_555 1_555
Gd4_5 O17_8 1_555 1_555
Gd4_6 O15_8 1_555 1_555
Cu1_11 O19_11 1_555 1_555
Cu2_11 O20_11 1_555 1_555
Cu3_11 O5_11 1_555 1_555
Cu3_11 O21_11 1_555 1_555
Cu4_11 O19_11 1_555 1_555
Cu4_11 O22_11 1_555 1_555
Cu5_11 O9_11 1_555 1_555
Cu5_11 O21_11 1_555 1_555
Cu5_11 O24_11 1_555 1_555
Cu6_11 O11_11 1_555 1_555
Cu6_11 O20_11 1_555 1_555
Cu6_11 O23_11 1_555 1_555
O4_11 C4_11 1_555 1_555
O6_11 C6_11 1_555 1_555
O12_11 C12_11 1_555 1_555
C3_11 C4_11 1_555 1_555
C5_11 C6_11 1_555 1_555
C7_11 C8_11 1_555 1_555
C9_11 C10_11 1_555 1_555
C11_11 C12_11 1_555 1_555
O25_11 H28_11 1_555 1_555
O25_11 H29_11 1_555 1_555
O26_11 H34_11 1_555 1_555
O26_11 H35_11 1_555 1_555
Gd1_6 O13_12 1_555 1_555
Gd2_12 O1_12 1_555 1_555
Cu1_12 O1_12 1_555 1_555
Cu2_12 O3_12 1_555 1_555
Cu3_12 O2_12 1_555 1_555
Cu4_12 O7_12 1_555 1_555
Cu5_12 O8_12 1_555 1_555
Cu6_12 O10_12 1_555 1_555
O1_12 C2_12 1_555 1_555
O2_12 C2_12 1_555 1_555
O3_12 Gd2_12 1_555 1_555
O4_12 Cu1_12 1_555 1_555
O5_12 Gd2_12 1_555 1_555
O6_12 Cu2_12 1_555 1_555
O7_12 Gd2_12 1_555 1_555
O8_12 C8_12 1_555 1_555
O9_12 Gd2_12 1_555 1_555
O10_12 C10_12 1_555 1_555
O11_12 Gd2_12 1_555 1_555
O12_12 Cu4_12 1_555 1_555
O13_12 C13_12 1_555 1_555
O14_12 Cu1_12 1_555 1_555
O15_9 C14_12 1_555 1_555
O16_12 Cu6_12 1_555 1_555
O17_9 C15_12 1_555 1_555
O18_12 Cu5_12 1_555 1_555
O19_12 Gd2_12 1_555 1_555
O20_12 Gd2_12 1_555 1_555
O21_12 Gd2_12 1_555 1_555
O22_12 Cu1_12 1_555 1_555
O23_12 Cu2_12 1_555 1_555
O24_12 Cu3_12 1_555 1_555
O25_12 Cu2_12 1_555 1_555
O26_12 Cu3_12 1_555 1_555
O27_12 Cu4_12 1_555 1_555
O28_12 Gd1_6 1_555 1_555
O29_12 Gd1_6 1_555 1_555
O30_12 Gd1_6 1_555 1_555
O31_12 Gd1_6 1_555 1_555
O32_12 Gd1_6 1_555 1_555
O33_12 Gd1_6 1_555 1_555
N1_12 Cu1_12 1_555 1_555
H1_12 N1_12 1_555 1_555
H2_12 N1_12 1_555 1_555
N2_12 Cu2_12 1_555 1_555
H3_12 N2_12 1_555 1_555
H4_12 N2_12 1_555 1_555
N3_12 Cu3_12 1_555 1_555
H5_12 N3_12 1_555 1_555
H6_12 N3_12 1_555 1_555
N4_12 Cu4_12 1_555 1_555
H7_12 N4_12 1_555 1_555
N5_12 Cu5_12 1_555 1_555
H9_12 N5_12 1_555 1_555
H10_12 N5_12 1_555 1_555
N6_12 Cu6_12 1_555 1_555
H11_12 N6_12 1_555 1_555
H12_12 N6_12 1_555 1_555
C1_12 N1_12 1_555 1_555
H13_12 C1_12 1_555 1_555
H14_12 C1_12 1_555 1_555
C2_12 C1_12 1_555 1_555
C3_12 N2_12 1_555 1_555
H15_12 C3_12 1_555 1_555
H16_12 C3_12 1_555 1_555
C4_12 O3_12 1_555 1_555
C5_12 N3_12 1_555 1_555
H17_12 C5_12 1_555 1_555
H18_12 C5_12 1_555 1_555
C6_12 O5_12 1_555 1_555
C7_12 N4_12 1_555 1_555
H20_12 C7_12 1_555 1_555
C8_12 O7_12 1_555 1_555
C9_12 N5_12 1_555 1_555
H21_12 C9_12 1_555 1_555
H22_12 C9_12 1_555 1_555
C10_12 O9_12 1_555 1_555
C11_12 N6_12 1_555 1_555
C12_12 O11_12 1_555 1_555
C13_12 O14_12 1_555 1_555
H25_12 C13_12 1_555 1_555
C14_12 O16_12 1_555 1_555
H26_12 C14_12 1_555 1_555
C15_12 O18_12 1_555 1_555
H27_12 C15_12 1_555 1_555
Gd4_6 O17_9 1_555 1_555
Gd3_3 O15_9 1_555 1_555
O34_6 Gd1_6 1_555 1_555
O35_6 Gd1_6 1_555 1_555
Cu1_12 O19_12 1_555 1_555
Cu2_12 O20_12 1_555 1_555
Cu3_12 O5_12 1_555 1_555
Cu3_12 O21_12 1_555 1_555
Cu4_12 O19_12 1_555 1_555
Cu4_12 O22_12 1_555 1_555
Cu5_12 O9_12 1_555 1_555
Cu5_12 O21_12 1_555 1_555
Cu5_12 O24_12 1_555 1_555
Cu6_12 O11_12 1_555 1_555
Cu6_12 O20_12 1_555 1_555
Cu6_12 O23_12 1_555 1_555
O4_12 C4_12 1_555 1_555
O6_12 C6_12 1_555 1_555
O12_12 C12_12 1_555 1_555
C3_12 C4_12 1_555 1_555
C5_12 C6_12 1_555 1_555
C7_12 C8_12 1_555 1_555
C9_12 C10_12 1_555 1_555
C11_12 C12_12 1_555 1_555
O25_12 H28_12 1_555 1_555
O25_12 H29_12 1_555 1_555
O27_12 H30_12 1_555 1_555
O27_12 H31_12 1_555 1_555
O33_12 H32_12 1_555 1_555
O33_12 H33_12 1_555 1_555
O26_12 H34_12 1_555 1_555
O26_12 H35_12 1_555 1_555
O29_12 H36_12 1_555 1_555
O29_12 H37_12 1_555 1_555
O28_12 H38_12 1_555 1_555
O28_12 H39_12 1_555 1_555
O32_12 H40_12 1_555 1_555
O32_12 H41_12 1_555 1_555
O31_12 H42_12 1_555 1_555
O31_12 H43_12 1_555 1_555
O30_12 H44_12 1_555 1_555
O30_12 H45_12 1_555 1_555
O15_10 C14_13 1_555 1_555
C14_13 O16_13 1_555 1_555
H26_13 C14_13 1_555 1_555
Gd4_7 O15_10 1_555 1_555
O25_13 H28_13 1_555 1_555
O25_13 H29_13 1_555 1_555
O28_13 Gd4_6 1_555 1_555
O30_13 Gd4_6 1_555 1_555
H17_13 C5_13 1_555 1_555
H18_13 C5_13 1_555 1_555
O28_13 H38_13 1_555 1_555
O28_13 H39_13 1_555 1_555
O30_13 H44_13 1_555 1_555
O30_13 H45_13 1_555 1_555
Gd2_13 O1_13 1_555 1_555
Cu1_13 O1_13 1_555 1_555
Cu2_13 O3_13 1_555 1_555
Cu3_13 O2_13 1_555 1_555
Cu4_13 O7_13 1_555 1_555
Cu5_13 O8_13 1_555 1_555
Cu6_13 O10_13 1_555 1_555
O1_13 C2_13 1_555 1_555
O2_13 C2_13 1_555 1_555
O3_13 Gd2_13 1_555 1_555
O4_13 Cu1_13 1_555 1_555
O5_13 Gd2_13 1_555 1_555
O6_13 Cu2_13 1_555 1_555
O7_13 Gd2_13 1_555 1_555
O8_13 C8_13 1_555 1_555
O9_13 Gd2_13 1_555 1_555
O10_13 C10_13 1_555 1_555
O11_13 Gd2_13 1_555 1_555
O12_13 Cu4_13 1_555 1_555
O13_13 C13_13 1_555 1_555
O14_13 Cu1_13 1_555 1_555
O17_10 C15_13 1_555 1_555
O18_13 Cu5_13 1_555 1_555
O19_13 Gd2_13 1_555 1_555
O20_13 Gd2_13 1_555 1_555
O21_13 Gd2_13 1_555 1_555
O22_13 Cu1_13 1_555 1_555
O23_13 Cu2_13 1_555 1_555
O24_13 Cu3_13 1_555 1_555
O26_13 Cu3_13 1_555 1_555
O27_13 Cu4_13 1_555 1_555
N1_13 Cu1_13 1_555 1_555
H1_13 N1_13 1_555 1_555
H2_13 N1_13 1_555 1_555
N2_13 Cu2_13 1_555 1_555
H4_13 N2_13 1_555 1_555
N3_13 Cu3_13 1_555 1_555
H6_13 N3_13 1_555 1_555
N4_13 Cu4_13 1_555 1_555
H7_13 N4_13 1_555 1_555
H8_10 N4_13 1_555 1_555
N5_13 Cu5_13 1_555 1_555
H9_13 N5_13 1_555 1_555
H10_13 N5_13 1_555 1_555
N6_13 Cu6_13 1_555 1_555
C1_13 N1_13 1_555 1_555
H13_13 C1_13 1_555 1_555
C2_13 C1_13 1_555 1_555
C3_13 N2_13 1_555 1_555
H15_13 C3_13 1_555 1_555
C4_13 O3_13 1_555 1_555
C6_13 O5_13 1_555 1_555
C7_13 N4_13 1_555 1_555
H19_10 C7_13 1_555 1_555
H20_13 C7_13 1_555 1_555
C8_13 O7_13 1_555 1_555
C9_13 N5_13 1_555 1_555
H21_13 C9_13 1_555 1_555
H22_13 C9_13 1_555 1_555
C10_13 O9_13 1_555 1_555
C11_13 N6_13 1_555 1_555
H23_10 C11_13 1_555 1_555
H24_10 C11_13 1_555 1_555
C12_13 O11_13 1_555 1_555
C13_13 O14_13 1_555 1_555
H25_13 C13_13 1_555 1_555
C15_13 O18_13 1_555 1_555
H27_13 C15_13 1_555 1_555
Gd3_4 O17_10 1_555 1_555
Cu1_13 O19_13 1_555 1_555
Cu2_13 O20_13 1_555 1_555
Cu3_13 O5_13 1_555 1_555
Cu3_13 O21_13 1_555 1_555
Cu4_13 O19_13 1_555 1_555
Cu4_13 O22_13 1_555 1_555
Cu5_13 O9_13 1_555 1_555
Cu5_13 O21_13 1_555 1_555
Cu5_13 O24_13 1_555 1_555
Cu6_13 O11_13 1_555 1_555
Cu6_13 O20_13 1_555 1_555
Cu6_13 O23_13 1_555 1_555
O4_13 C4_13 1_555 1_555
O6_13 C6_13 1_555 1_555
O12_13 C12_13 1_555 1_555
C3_13 C4_13 1_555 1_555
C7_13 C8_13 1_555 1_555
C9_13 C10_13 1_555 1_555
C11_13 C12_13 1_555 1_555
O27_13 H30_13 1_555 1_555
O27_13 H31_13 1_555 1_555
O33_13 H32_13 1_555 1_555
O33_13 H33_13 1_555 1_555
O26_13 H34_13 1_555 1_555
O26_13 H35_13 1_555 1_555
O29_13 H36_13 1_555 1_555
O32_13 H40_13 1_555 1_555
O32_13 H41_13 1_555 1_555
O31_13 H42_13 1_555 1_555
O28_14 Gd3_3 1_555 1_555
O30_14 Gd3_3 1_555 1_555
H17_14 C5_14 1_555 1_555
H18_14 C5_14 1_555 1_555
O28_14 H38_14 1_555 1_555
O28_14 H39_14 1_555 1_555
O30_14 H44_14 1_555 1_555
O30_14 H45_14 1_555 1_555
Gd2_14 O1_14 1_555 1_555
Cu1_14 O1_14 1_555 1_555
Cu2_14 O3_14 1_555 1_555
Cu3_14 O2_14 1_555 1_555
Cu4_14 O7_14 1_555 1_555
Cu5_14 O8_14 1_555 1_555
Cu6_14 O10_14 1_555 1_555
O1_14 C2_14 1_555 1_555
O2_14 C2_14 1_555 1_555
O3_14 Gd2_14 1_555 1_555
O4_14 Cu1_14 1_555 1_555
O5_14 Gd2_14 1_555 1_555
O6_14 Cu2_14 1_555 1_555
O7_14 Gd2_14 1_555 1_555
O8_14 C8_14 1_555 1_555
O9_14 Gd2_14 1_555 1_555
O10_14 C10_14 1_555 1_555
O11_14 Gd2_14 1_555 1_555
O12_14 Cu4_14 1_555 1_555
O13_14 C13_14 1_555 1_555
O14_14 Cu1_14 1_555 1_555
O15_11 C14_14 1_555 1_555
O16_14 Cu6_14 1_555 1_555
O19_14 Gd2_14 1_555 1_555
O20_14 Gd2_14 1_555 1_555
O21_14 Gd2_14 1_555 1_555
O22_14 Cu1_14 1_555 1_555
O23_14 Cu2_14 1_555 1_555
O24_14 Cu3_14 1_555 1_555
O25_14 Cu2_14 1_555 1_555
O27_14 Cu4_14 1_555 1_555
N1_14 Cu1_14 1_555 1_555
H1_14 N1_14 1_555 1_555
H2_14 N1_14 1_555 1_555
N2_14 Cu2_14 1_555 1_555
H4_14 N2_14 1_555 1_555
N3_14 Cu3_14 1_555 1_555
H6_14 N3_14 1_555 1_555
N4_14 Cu4_14 1_555 1_555
H7_14 N4_14 1_555 1_555
H8_11 N4_14 1_555 1_555
N5_14 Cu5_14 1_555 1_555
H10_14 N5_14 1_555 1_555
N6_14 Cu6_14 1_555 1_555
H11_14 N6_14 1_555 1_555
H12_14 N6_14 1_555 1_555
C1_14 N1_14 1_555 1_555
H13_14 C1_14 1_555 1_555
C2_14 C1_14 1_555 1_555
C3_14 N2_14 1_555 1_555
H15_14 C3_14 1_555 1_555
C4_14 O3_14 1_555 1_555
C6_14 O5_14 1_555 1_555
C7_14 N4_14 1_555 1_555
H19_11 C7_14 1_555 1_555
H20_14 C7_14 1_555 1_555
C8_14 O7_14 1_555 1_555
C9_14 N5_14 1_555 1_555
H21_14 C9_14 1_555 1_555
H22_14 C9_14 1_555 1_555
C10_14 O9_14 1_555 1_555
C11_14 N6_14 1_555 1_555
H23_11 C11_14 1_555 1_555
H24_11 C11_14 1_555 1_555
C12_14 O11_14 1_555 1_555
C13_14 O14_14 1_555 1_555
H25_14 C13_14 1_555 1_555
C14_14 O16_14 1_555 1_555
H26_14 C14_14 1_555 1_555
Gd4_8 O15_11 1_555 1_555
Cu1_14 O19_14 1_555 1_555
Cu2_14 O20_14 1_555 1_555
Cu3_14 O5_14 1_555 1_555
Cu3_14 O21_14 1_555 1_555
Cu4_14 O19_14 1_555 1_555
Cu4_14 O22_14 1_555 1_555
Cu5_14 O9_14 1_555 1_555
Cu5_14 O21_14 1_555 1_555
Cu5_14 O24_14 1_555 1_555
Cu6_14 O11_14 1_555 1_555
Cu6_14 O20_14 1_555 1_555
Cu6_14 O23_14 1_555 1_555
O4_14 C4_14 1_555 1_555
O6_14 C6_14 1_555 1_555
O12_14 C12_14 1_555 1_555
C3_14 C4_14 1_555 1_555
C7_14 C8_14 1_555 1_555
C9_14 C10_14 1_555 1_555
C11_14 C12_14 1_555 1_555
O25_14 H28_14 1_555 1_555
O25_14 H29_14 1_555 1_555
O27_14 H30_14 1_555 1_555
O27_14 H31_14 1_555 1_555
O33_14 H32_14 1_555 1_555
O33_14 H33_14 1_555 1_555
O29_14 H36_14 1_555 1_555
O32_14 H40_14 1_555 1_555
O32_14 H41_14 1_555 1_555
O31_14 H42_14 1_555 1_555
O17_11 C15_14 1_555 1_555
C15_14 O18_14 1_555 1_555
H27_14 C15_14 1_555 1_555
Gd4_7 O17_11 1_555 1_555
O26_14 H34_14 1_555 1_555
O26_14 H35_14 1_555 1_555
O17_12 C15_15 1_555 1_555
C15_15 O18_15 1_555 1_555
H27_15 C15_15 1_555 1_555
Gd4_8 O17_12 1_555 1_555
O26_15 H34_15 1_555 1_555
O26_15 H35_15 1_555 1_555
O28_15 Gd4_5 1_555 1_555
O30_15 Gd4_5 1_555 1_555
H17_15 C5_15 1_555 1_555
H18_15 C5_15 1_555 1_555
O28_15 H38_15 1_555 1_555
O28_15 H39_15 1_555 1_555
O30_15 H44_15 1_555 1_555
O30_15 H45_15 1_555 1_555
O15_12 C14_15 1_555 1_555
C14_15 O16_15 1_555 1_555
H26_15 C14_15 1_555 1_555
Gd3_4 O15_12 1_555 1_555
O25_15 H28_15 1_555 1_555
O25_15 H29_15 1_555 1_555
Gd4_8 O13_15 1_555 1_555
Gd2_15 O1_15 1_555 1_555
Cu1_15 O1_15 1_555 1_555
Cu2_15 O3_15 1_555 1_555
Cu3_15 O2_15 1_555 1_555
Cu4_15 O7_15 1_555 1_555
Cu5_15 O8_15 1_555 1_555
Cu6_15 O10_15 1_555 1_555
O1_15 C2_15 1_555 1_555
O2_15 C2_15 1_555 1_555
O3_15 Gd2_15 1_555 1_555
O4_15 Cu1_15 1_555 1_555
O5_15 Gd2_15 1_555 1_555
O6_15 Cu2_15 1_555 1_555
O7_15 Gd2_15 1_555 1_555
O8_15 C8_15 1_555 1_555
O9_15 Gd2_15 1_555 1_555
O10_15 C10_15 1_555 1_555
O11_15 Gd2_15 1_555 1_555
O12_15 Cu4_15 1_555 1_555
O13_15 C13_15 1_555 1_555
O14_15 Cu1_15 1_555 1_555
O34_6 C14_16 1_555 1_555
O16_16 Cu6_15 1_555 1_555
O35_5 C15_16 1_555 1_555
O18_16 Cu5_15 1_555 1_555
O19_15 Gd2_15 1_555 1_555
O20_15 Gd2_15 1_555 1_555
O21_15 Gd2_15 1_555 1_555
O22_15 Cu1_15 1_555 1_555
O23_15 Cu2_15 1_555 1_555
O24_15 Cu3_15 1_555 1_555
O25_16 Cu2_15 1_555 1_555
O26_16 Cu3_15 1_555 1_555
O27_15 Cu4_15 1_555 1_555
O28_16 Gd4_8 1_555 1_555
O29_15 Gd4_8 1_555 1_555
O30_16 Gd4_8 1_555 1_555
O31_15 Gd4_8 1_555 1_555
O32_15 Gd4_8 1_555 1_555
O33_15 Gd4_8 1_555 1_555
N1_15 Cu1_15 1_555 1_555
H1_15 N1_15 1_555 1_555
H2_15 N1_15 1_555 1_555
N2_15 Cu2_15 1_555 1_555
H3_16 N2_15 1_555 1_555
H4_15 N2_15 1_555 1_555
N3_15 Cu3_15 1_555 1_555
H5_16 N3_15 1_555 1_555
H6_15 N3_15 1_555 1_555
N4_15 Cu4_15 1_555 1_555
H7_15 N4_15 1_555 1_555
H8_12 N4_15 1_555 1_555
N5_15 Cu5_15 1_555 1_555
H9_16 N5_15 1_555 1_555
H10_15 N5_15 1_555 1_555
N6_15 Cu6_15 1_555 1_555
H11_16 N6_15 1_555 1_555
H12_16 N6_15 1_555 1_555
C1_15 N1_15 1_555 1_555
H13_15 C1_15 1_555 1_555
H14_16 C1_15 1_555 1_555
C2_15 C1_15 1_555 1_555
C3_15 N2_15 1_555 1_555
H15_15 C3_15 1_555 1_555
H16_16 C3_15 1_555 1_555
C4_15 O3_15 1_555 1_555
C5_16 N3_15 1_555 1_555
H17_16 C5_16 1_555 1_555
H18_16 C5_16 1_555 1_555
C6_15 O5_15 1_555 1_555
C7_15 N4_15 1_555 1_555
H19_12 C7_15 1_555 1_555
H20_15 C7_15 1_555 1_555
C8_15 O7_15 1_555 1_555
C9_15 N5_15 1_555 1_555
H21_15 C9_15 1_555 1_555
H22_15 C9_15 1_555 1_555
C10_15 O9_15 1_555 1_555
C11_15 N6_15 1_555 1_555
H23_12 C11_15 1_555 1_555
H24_12 C11_15 1_555 1_555
C12_15 O11_15 1_555 1_555
C13_15 O14_15 1_555 1_555
H25_15 C13_15 1_555 1_555
C14_16 O16_16 1_555 1_555
H26_16 C14_16 1_555 1_555
C15_16 O18_16 1_555 1_555
H27_16 C15_16 1_555 1_555
Cu1_15 O19_15 1_555 1_555
Cu2_15 O20_15 1_555 1_555
Cu3_15 O5_15 1_555 1_555
Cu3_15 O21_15 1_555 1_555
Cu4_15 O19_15 1_555 1_555
Cu4_15 O22_15 1_555 1_555
Cu5_15 O9_15 1_555 1_555
Cu5_15 O21_15 1_555 1_555
Cu5_15 O24_15 1_555 1_555
Cu6_15 O11_15 1_555 1_555
Cu6_15 O20_15 1_555 1_555
Cu6_15 O23_15 1_555 1_555
O4_15 C4_15 1_555 1_555
O6_15 C6_15 1_555 1_555
O12_15 C12_15 1_555 1_555
C3_15 C4_15 1_555 1_555
C5_16 C6_15 1_555 1_555
C7_15 C8_15 1_555 1_555
C9_15 C10_15 1_555 1_555
C11_15 C12_15 1_555 1_555
O25_16 H28_16 1_555 1_555
O25_16 H29_16 1_555 1_555
O27_15 H30_15 1_555 1_555
O27_15 H31_15 1_555 1_555
O33_15 H32_15 1_555 1_555
O33_15 H33_15 1_555 1_555
O26_16 H34_16 1_555 1_555
O26_16 H35_16 1_555 1_555
O29_15 H36_15 1_555 1_555
O29_15 H37_16 1_555 1_555
O28_16 H38_16 1_555 1_555
O28_16 H39_16 1_555 1_555
O32_15 H40_15 1_555 1_555
O32_15 H41_15 1_555 1_555
O31_15 H42_15 1_555 1_555
O31_15 H43_16 1_555 1_555
O30_16 H44_16 1_555 1_555
O30_16 H45_16 1_555 1_555
Gd3_4 O13_16 1_555 1_555
Gd2_16 O1_16 1_555 1_555
Cu1_16 O1_16 1_555 1_555
Cu2_16 O3_16 1_555 1_555
Cu3_16 O2_16 1_555 1_555
Cu4_16 O7_16 1_555 1_555
Cu5_16 O8_16 1_555 1_555
Cu6_16 O10_16 1_555 1_555
O1_16 C2_16 1_555 1_555
O2_16 C2_16 1_555 1_555
O3_16 Gd2_16 1_555 1_555
O4_16 Cu1_16 1_555 1_555
O5_16 Gd2_16 1_555 1_555
O6_16 Cu2_16 1_555 1_555
O7_16 Gd2_16 1_555 1_555
O8_16 C8_16 1_555 1_555
O9_16 Gd2_16 1_555 1_555
O10_16 C10_16 1_555 1_555
O11_16 Gd2_16 1_555 1_555
O12_16 Cu4_16 1_555 1_555
O13_16 C13_16 1_555 1_555
O14_16 Cu1_16 1_555 1_555
O34_4 C14_17 1_555 1_555
O16_17 Cu6_16 1_555 1_555
O35_6 C15_17 1_555 1_555
O18_17 Cu5_16 1_555 1_555
O19_16 Gd2_16 1_555 1_555
O20_16 Gd2_16 1_555 1_555
O21_16 Gd2_16 1_555 1_555
O22_16 Cu1_16 1_555 1_555
O23_16 Cu2_16 1_555 1_555
O24_16 Cu3_16 1_555 1_555
O25_17 Cu2_16 1_555 1_555
O26_17 Cu3_16 1_555 1_555
O27_16 Cu4_16 1_555 1_555
O28_17 Gd3_4 1_555 1_555
O29_16 Gd3_4 1_555 1_555
O30_17 Gd3_4 1_555 1_555
O31_16 Gd3_4 1_555 1_555
O32_16 Gd3_4 1_555 1_555
O33_16 Gd3_4 1_555 1_555
N1_16 Cu1_16 1_555 1_555
H1_16 N1_16 1_555 1_555
H2_16 N1_16 1_555 1_555
N2_16 Cu2_16 1_555 1_555
H3_17 N2_16 1_555 1_555
H4_16 N2_16 1_555 1_555
N3_16 Cu3_16 1_555 1_555
H5_17 N3_16 1_555 1_555
H6_16 N3_16 1_555 1_555
N4_16 Cu4_16 1_555 1_555
H7_16 N4_16 1_555 1_555
H8_13 N4_16 1_555 1_555
N5_16 Cu5_16 1_555 1_555
H9_17 N5_16 1_555 1_555
H10_16 N5_16 1_555 1_555
N6_16 Cu6_16 1_555 1_555
H11_17 N6_16 1_555 1_555
H12_17 N6_16 1_555 1_555
C1_16 N1_16 1_555 1_555
H13_16 C1_16 1_555 1_555
H14_17 C1_16 1_555 1_555
C2_16 C1_16 1_555 1_555
C3_16 N2_16 1_555 1_555
H15_16 C3_16 1_555 1_555
H16_17 C3_16 1_555 1_555
C4_16 O3_16 1_555 1_555
C5_17 N3_16 1_555 1_555
H17_17 C5_17 1_555 1_555
H18_17 C5_17 1_555 1_555
C6_16 O5_16 1_555 1_555
C7_16 N4_16 1_555 1_555
H19_13 C7_16 1_555 1_555
H20_16 C7_16 1_555 1_555
C8_16 O7_16 1_555 1_555
C9_16 N5_16 1_555 1_555
H21_16 C9_16 1_555 1_555
H22_16 C9_16 1_555 1_555
C10_16 O9_16 1_555 1_555
C11_16 N6_16 1_555 1_555
H23_13 C11_16 1_555 1_555
H24_13 C11_16 1_555 1_555
C12_16 O11_16 1_555 1_555
C13_16 O14_16 1_555 1_555
H25_16 C13_16 1_555 1_555
C14_17 O16_17 1_555 1_555
H26_17 C14_17 1_555 1_555
C15_17 O18_17 1_555 1_555
H27_17 C15_17 1_555 1_555
Cu1_16 O19_16 1_555 1_555
Cu2_16 O20_16 1_555 1_555
Cu3_16 O5_16 1_555 1_555
Cu3_16 O21_16 1_555 1_555
Cu4_16 O19_16 1_555 1_555
Cu4_16 O22_16 1_555 1_555
Cu5_16 O9_16 1_555 1_555
Cu5_16 O21_16 1_555 1_555
Cu5_16 O24_16 1_555 1_555
Cu6_16 O11_16 1_555 1_555
Cu6_16 O20_16 1_555 1_555
Cu6_16 O23_16 1_555 1_555
O4_16 C4_16 1_555 1_555
O6_16 C6_16 1_555 1_555
O12_16 C12_16 1_555 1_555
C3_16 C4_16 1_555 1_555
C5_17 C6_16 1_555 1_555
C7_16 C8_16 1_555 1_555
C9_16 C10_16 1_555 1_555
C11_16 C12_16 1_555 1_555
O25_17 H28_17 1_555 1_555
O25_17 H29_17 1_555 1_555
O27_16 H30_16 1_555 1_555
O27_16 H31_16 1_555 1_555
O33_16 H32_16 1_555 1_555
O33_16 H33_16 1_555 1_555
O26_17 H34_17 1_555 1_555
O26_17 H35_17 1_555 1_555
O29_16 H36_16 1_555 1_555
O29_16 H37_17 1_555 1_555
O28_17 H38_17 1_555 1_555
O28_17 H39_17 1_555 1_555
O32_16 H40_16 1_555 1_555
O32_16 H41_16 1_555 1_555
O31_16 H42_16 1_555 1_555
O31_16 H43_17 1_555 1_555
O30_17 H44_17 1_555 1_555
O30_17 H45_17 1_555 1_555
Gd4_7 O13_17 1_555 1_555
Gd2_17 O1_17 1_555 1_555
Cu1_17 O1_17 1_555 1_555
Cu2_17 O3_17 1_555 1_555
Cu3_17 O2_17 1_555 1_555
Cu4_17 O7_17 1_555 1_555
Cu5_17 O8_17 1_555 1_555
Cu6_17 O10_17 1_555 1_555
O1_17 C2_17 1_555 1_555
O2_17 C2_17 1_555 1_555
O3_17 Gd2_17 1_555 1_555
O4_17 Cu1_17 1_555 1_555
O5_17 Gd2_17 1_555 1_555
O6_17 Cu2_17 1_555 1_555
O7_17 Gd2_17 1_555 1_555
O8_17 C8_17 1_555 1_555
O9_17 Gd2_17 1_555 1_555
O10_17 C10_17 1_555 1_555
O11_17 Gd2_17 1_555 1_555
O12_17 Cu4_17 1_555 1_555
O13_17 C13_17 1_555 1_555
O14_17 Cu1_17 1_555 1_555
O34_5 C14_18 1_555 1_555
O16_18 Cu6_17 1_555 1_555
O35_4 C15_18 1_555 1_555
O18_18 Cu5_17 1_555 1_555
O19_17 Gd2_17 1_555 1_555
O20_17 Gd2_17 1_555 1_555
O21_17 Gd2_17 1_555 1_555
O22_17 Cu1_17 1_555 1_555
O23_17 Cu2_17 1_555 1_555
O24_17 Cu3_17 1_555 1_555
O25_18 Cu2_17 1_555 1_555
O26_18 Cu3_17 1_555 1_555
O27_17 Cu4_17 1_555 1_555
O28_18 Gd4_7 1_555 1_555
O29_17 Gd4_7 1_555 1_555
O30_18 Gd4_7 1_555 1_555
O31_17 Gd4_7 1_555 1_555
O32_17 Gd4_7 1_555 1_555
O33_17 Gd4_7 1_555 1_555
N1_17 Cu1_17 1_555 1_555
H1_17 N1_17 1_555 1_555
H2_17 N1_17 1_555 1_555
N2_17 Cu2_17 1_555 1_555
H3_18 N2_17 1_555 1_555
H4_17 N2_17 1_555 1_555
N3_17 Cu3_17 1_555 1_555
H5_18 N3_17 1_555 1_555
H6_17 N3_17 1_555 1_555
N4_17 Cu4_17 1_555 1_555
H7_17 N4_17 1_555 1_555
H8_14 N4_17 1_555 1_555
N5_17 Cu5_17 1_555 1_555
H9_18 N5_17 1_555 1_555
H10_17 N5_17 1_555 1_555
N6_17 Cu6_17 1_555 1_555
H11_18 N6_17 1_555 1_555
H12_18 N6_17 1_555 1_555
C1_17 N1_17 1_555 1_555
H13_17 C1_17 1_555 1_555
H14_18 C1_17 1_555 1_555
C2_17 C1_17 1_555 1_555
C3_17 N2_17 1_555 1_555
H15_17 C3_17 1_555 1_555
H16_18 C3_17 1_555 1_555
C4_17 O3_17 1_555 1_555
C5_18 N3_17 1_555 1_555
H17_18 C5_18 1_555 1_555
H18_18 C5_18 1_555 1_555
C6_17 O5_17 1_555 1_555
C7_17 N4_17 1_555 1_555
H19_14 C7_17 1_555 1_555
H20_17 C7_17 1_555 1_555
C8_17 O7_17 1_555 1_555
C9_17 N5_17 1_555 1_555
H21_17 C9_17 1_555 1_555
H22_17 C9_17 1_555 1_555
C10_17 O9_17 1_555 1_555
C11_17 N6_17 1_555 1_555
H23_14 C11_17 1_555 1_555
H24_14 C11_17 1_555 1_555
C12_17 O11_17 1_555 1_555
C13_17 O14_17 1_555 1_555
H25_17 C13_17 1_555 1_555
C14_18 O16_18 1_555 1_555
H26_18 C14_18 1_555 1_555
C15_18 O18_18 1_555 1_555
H27_18 C15_18 1_555 1_555
Cu1_17 O19_17 1_555 1_555
Cu2_17 O20_17 1_555 1_555
Cu3_17 O5_17 1_555 1_555
Cu3_17 O21_17 1_555 1_555
Cu4_17 O19_17 1_555 1_555
Cu4_17 O22_17 1_555 1_555
Cu5_17 O9_17 1_555 1_555
Cu5_17 O21_17 1_555 1_555
Cu5_17 O24_17 1_555 1_555
Cu6_17 O11_17 1_555 1_555
Cu6_17 O20_17 1_555 1_555
Cu6_17 O23_17 1_555 1_555
O4_17 C4_17 1_555 1_555
O6_17 C6_17 1_555 1_555
O12_17 C12_17 1_555 1_555
C3_17 C4_17 1_555 1_555
C5_18 C6_17 1_555 1_555
C7_17 C8_17 1_555 1_555
C9_17 C10_17 1_555 1_555
C11_17 C12_17 1_555 1_555
O25_18 H28_18 1_555 1_555
O25_18 H29_18 1_555 1_555
O27_17 H30_17 1_555 1_555
O27_17 H31_17 1_555 1_555
O33_17 H32_17 1_555 1_555
O33_17 H33_17 1_555 1_555
O26_18 H34_18 1_555 1_555
O26_18 H35_18 1_555 1_555
O29_17 H36_17 1_555 1_555
O29_17 H37_18 1_555 1_555
O28_18 H38_18 1_555 1_555
O28_18 H39_18 1_555 1_555
O32_17 H40_17 1_555 1_555
O32_17 H41_17 1_555 1_555
O31_17 H42_17 1_555 1_555
O31_17 H43_18 1_555 1_555
O30_18 H44_18 1_555 1_555
O30_18 H45_18 1_555 1_555
Gd2_18 O1_18 1_555 1_555
Cu1_18 O1_18 1_555 1_555
Cu2_18 O3_18 1_555 1_555
Cu3_18 O2_18 1_555 1_555
Cu4_18 O7_18 1_555 1_555
Cu5_18 O8_18 1_555 1_555
Cu6_18 O10_18 1_555 1_555
O1_18 C2_18 1_555 1_555
O2_18 C2_18 1_555 1_555
O3_18 Gd2_18 1_555 1_555
O4_18 Cu1_18 1_555 1_555
O5_18 Gd2_18 1_555 1_555
O6_18 Cu2_18 1_555 1_555
O7_18 Gd2_18 1_555 1_555
O8_18 C8_18 1_555 1_555
O9_18 Gd2_18 1_555 1_555
O10_18 C10_18 1_555 1_555
O11_18 Gd2_18 1_555 1_555
O12_18 Cu4_18 1_555 1_555
O13_18 C13_18 1_555 1_555
O14_18 Cu1_18 1_555 1_555
O19_18 Gd2_18 1_555 1_555
O20_18 Gd2_18 1_555 1_555
O21_18 Gd2_18 1_555 1_555
O22_18 Cu1_18 1_555 1_555
O23_18 Cu2_18 1_555 1_555
O24_18 Cu3_18 1_555 1_555
O27_18 Cu4_18 1_555 1_555
N1_18 Cu1_18 1_555 1_555
H1_18 N1_18 1_555 1_555
H2_18 N1_18 1_555 1_555
N2_18 Cu2_18 1_555 1_555
H4_18 N2_18 1_555 1_555
N3_18 Cu3_18 1_555 1_555
H6_18 N3_18 1_555 1_555
N4_18 Cu4_18 1_555 1_555
H7_18 N4_18 1_555 1_555
H8_18 N4_18 1_555 1_555
N5_18 Cu5_18 1_555 1_555
H10_18 N5_18 1_555 1_555
N6_18 Cu6_18 1_555 1_555
C1_18 N1_18 1_555 1_555
H13_18 C1_18 1_555 1_555
C2_18 C1_18 1_555 1_555
C3_18 N2_18 1_555 1_555
H15_18 C3_18 1_555 1_555
C4_18 O3_18 1_555 1_555
C6_18 O5_18 1_555 1_555
C7_18 N4_18 1_555 1_555
H19_18 C7_18 1_555 1_555
H20_18 C7_18 1_555 1_555
C8_18 O7_18 1_555 1_555
C9_18 N5_18 1_555 1_555
H21_18 C9_18 1_555 1_555
H22_18 C9_18 1_555 1_555
C10_18 O9_18 1_555 1_555
C11_18 N6_18 1_555 1_555
H23_18 C11_18 1_555 1_555
H24_18 C11_18 1_555 1_555
C12_18 O11_18 1_555 1_555
C13_18 O14_18 1_555 1_555
H25_18 C13_18 1_555 1_555
Cu1_18 O19_18 1_555 1_555
Cu2_18 O20_18 1_555 1_555
Cu3_18 O5_18 1_555 1_555
Cu3_18 O21_18 1_555 1_555
Cu4_18 O19_18 1_555 1_555
Cu4_18 O22_18 1_555 1_555
Cu5_18 O9_18 1_555 1_555
Cu5_18 O21_18 1_555 1_555
Cu5_18 O24_18 1_555 1_555
Cu6_18 O11_18 1_555 1_555
Cu6_18 O20_18 1_555 1_555
Cu6_18 O23_18 1_555 1_555
O4_18 C4_18 1_555 1_555
O6_18 C6_18 1_555 1_555
O12_18 C12_18 1_555 1_555
C3_18 C4_18 1_555 1_555
C7_18 C8_18 1_555 1_555
C9_18 C10_18 1_555 1_555
C11_18 C12_18 1_555 1_555
O27_18 H30_18 1_555 1_555
O27_18 H31_18 1_555 1_555
O33_18 H32_18 1_555 1_555
O33_18 H33_18 1_555 1_555
O29_18 H36_18 1_555 1_555
O32_18 H40_18 1_555 1_555
O32_18 H41_18 1_555 1_555
O31_18 H42_18 1_555 1_555

#END
