
###############################################################################
#
# This file contains modified crystal structure data generated from the
# MOF subset of the Cambridge Structural Database (CSD) v543 
# hosted by the Cambridge Crystallographic Data Centre (CCDC).
#
# This work is licensed under the Creative Commons
# Attribution-NonCommercial-ShareAlike 4.0 International License.
# To view a copy of this license, visit
# http://creativecommons.org/licenses/by-nc-sa/4.0/
# or send a letter to
# Creative Commons, PO Box 1866, Mountain View, CA 94042, USA.
#
# CIF created using the CSD Python API on 29 September 2022
# The structure has been converted into the P1 space group
# The structure has a 3D framework
# The original CSD entry KIPJIE is in the monoclinic crystal system
# The framework has been calculated to contain at least 10.0% void space
# The void calculation uses a probe of radius 1.32A, grid spacing 0.4
# H atom positions have been added when not included in the experimental data
#
###############################################################################

data_KIPJIE
_chemical_formula_moiety         '(C152 H72 Ce8 F48 O64)n'
_symmetry_cell_setting           triclinic
_symmetry_space_group_name_H-M   'P 1'
_symmetry_Int_Tables_number      1
_space_group_name_Hall           'P 1'
loop_
_symmetry_equiv_pos_site_id
_symmetry_equiv_pos_as_xyz
1 x,y,z
_cell_length_a                   7.3524(2)
_cell_length_b                   29.1642(14)
_cell_length_c                   23.1750(11)
_cell_angle_alpha                90
_cell_angle_beta                 90.772(3)
_cell_angle_gamma                90
_cell_volume                     4968.89
loop_
_atom_site_label
_atom_site_type_symbol
_atom_site_fract_x
_atom_site_fract_y
_atom_site_fract_z
O5 O 0.0186(7) 0.34476(19) 0.3491(2)
O6 O 0.0548(7) 0.42006(18) 0.3429(2)
H1 H 0.0852 0.4204 0.3801
O8 O 0.1694(6) 0.31600(16) 0.2339(2)
H6 H 0.0252 0.5670 0.2336
C17 C 0.0024(8) 0.3098(2) 0.2280(3)
Ce4 Ce 0.20971(4) 0.701498(11) 0.333091(15)
Ce8 Ce 0.29337(4) 0.236342(12) 0.239031(14)
O22 O 0.0678(6) 0.77055(15) 0.2803(2)
Ce2 Ce 0.70663(4) 0.736342(12) 0.260969(14)
O1 O 0.3333(6) 0.62453(17) 0.2998(3)
O2 O 0.5777(5) 0.66761(14) 0.31371(19)
O3 O 0.9395(5) 0.67359(14) 0.26118(18)
O4 O 0.9818(5) 0.63311(15) 0.34084(19)
O7 O 0.9322(6) 0.27055(15) 0.2197(2)
O10 O 0.0966(6) 0.75768(19) 0.4055(2)
O14 O 0.1572(6) 0.73076(15) 0.6474(2)
H2 H 0.1008 0.7078 0.6571
O15 O 0.3341(6) 0.78790(16) 0.73582(18)
O16 O 0.5619(6) 0.81175(17) 0.6834(2)
O17 O 0.2210(12) 0.6546(3) 0.4260(4)
O18 O 0.5160(7) 0.79337(18) 0.2036(3)
H3 H 0.3950 0.7887 0.2041
H4 H 0.5183 0.8165 0.1797
F1 F 0.6015(6) 0.48152(15) 0.11241(18)
F2 F 0.3489(6) 0.44836(14) 0.1308(2)
F3 F 0.3784(7) 0.52060(15) 0.1452(2)
F4 F 0.2259(5) 0.48706(15) 0.2411(2)
F5 F 0.4181(6) 0.46297(15) 0.3057(2)
F6 F 0.3144(5) 0.41701(15) 0.2400(2)
F11 F 0.1144(5) 0.96101(12) 0.49636(16)
F12 F 0.1780(5) 0.89670(13) 0.45771(15)
C1 C 0.5355(8) 0.4717(2) 0.2110(3)
C2 C 0.6284(7) 0.5167(2) 0.2316(3)
C3 C 0.5338(7) 0.5524(2) 0.2568(3)
H5 H 0.4097 0.5489 0.2626
C4 C 0.6161(7) 0.5928(2) 0.2738(3)
C5 C 0.8061(7) 0.59792(19) 0.2670(3)
C6 C 0.9013(7) 0.5634(2) 0.2399(3)
C7 C 0.8150(8) 0.5232(2) 0.2216(3)
H7 H 0.8810 0.5006 0.2028
C8 C 0.5025(8) 0.6305(2) 0.2979(3)
C9 C 0.9120(7) 0.6374(2) 0.2922(3)
C10 C 0.6614(7) 0.4297(2) 0.2142(3)
C11 C 0.7747(8) 0.4244(2) 0.2634(3)
H8 H 0.7779 0.4471 0.2916
C12 C 0.8819(8) 0.3852(2) 0.2699(3)
C13 C 0.8794(8) 0.3510(2) 0.2276(3)
C14 C 0.7661(8) 0.3563(2) 0.1792(3)
H9 H 0.7638 0.3338 0.1508
C15 C 0.6565(8) 0.3949(2) 0.1731(3)
H10 H 0.5792 0.3976 0.1412
C16 C 0.9923(8) 0.3822(2) 0.3239(3)
C18 C 0.4655(10) 0.4806(2) 0.1485(4)
C19 C 0.3711(8) 0.4598(2) 0.2497(4)
H11 H 0.0275 0.8229 0.4657
C29 C 0.0448(7) 0.8729(2) 0.5670(2)
C31 C 0.0994(7) 0.8102(2) 0.6330(3)
C32 C 0.2673(7) 0.8295(2) 0.6496(2)
C33 C 0.3174(8) 0.8716(2) 0.6269(3)
H15 H 0.4243 0.8856 0.6396
C34 C 0.2090(8) 0.8933(2) 0.5852(2)
H16 H 0.2454 0.9211 0.5695
C35 C 0.0376(8) 0.7638(2) 0.6530(3)
C36 C 0.3950(7) 0.8082(2) 0.6920(3)
C38 C 0.0406(8) 0.9224(2) 0.4755(2)
Ce5 Ce 0.79029(4) 0.201498(11) 0.166909(15)
Ce6 Ce 0.20971(4) 0.798502(11) 0.833091(15)
Ce10 Ce 0.70663(4) 0.763658(12) 0.760969(14)
O23 O 0.8306(6) 0.81600(16) 0.2661(2)
O24 O 0.8495(5) 0.72968(14) 0.36189(19)
O25 O 0.4869(6) 0.76441(15) 0.33404(19)
O26 O 0.4463(6) 0.72595(16) 0.4145(2)
O27 O 0.8833(5) 0.74230(15) 0.16920(18)
O28 O 0.3341(6) 0.71210(16) 0.23582(18)
O29 O 0.5619(6) 0.68825(17) 0.1834(2)
H17 H 0.34819 0.644849 0.434121
H18 H 0.176769 0.673601 0.458481
O13 O 0.8833(5) 0.75770(15) 0.66920(18)
F7 F 0.7001(5) 0.95613(12) 0.51674(16)
F8 F 0.6933(5) 0.90992(13) 0.58891(15)
F9 F 0.9039(4) 0.96046(12) 0.58453(15)
F10 F 0.9425(5) 0.93424(15) 0.42956(16)
C20 C 0.9231(7) 0.8962(2) 0.5210(2)
C21 C 0.8085(7) 0.86107(19) 0.4872(2)
C22 C 0.9022(7) 0.8251(2) 0.4603(2)
C23 C 0.8147(7) 0.7930(2) 0.4262(2)
C24 C 0.6237(8) 0.7940(2) 0.4210(3)
C25 C 0.5302(7) 0.8281(2) 0.4490(3)
H12 H 0.4040 0.8289 0.4463
C26 C 0.6208(7) 0.8613(2) 0.4812(3)
H13 H 0.5541 0.8842 0.4992
C27 C 0.9255(8) 0.7576(2) 0.3965(3)
C28 C 0.5152(7) 0.7582(2) 0.3880(3)
C30 C 0.9891(7) 0.8328(2) 0.5927(2)
H14 H 0.8761 0.8205 0.5829
C37 C 0.8040(7) 0.9315(2) 0.5533(3)
O9 O 0.1505(5) 0.22968(14) 0.13811(19)
O11 O 0.5131(6) 0.26441(15) 0.16596(19)
O12 O 0.5537(6) 0.22595(16) 0.0855(2)
F10_2 F 0.0575(5) 0.43424(15) 0.07044(16)
C21_2 C 0.1915(7) 0.36107(19) 0.0128(2)
C22_2 C 0.0978(7) 0.3251(2) 0.0397(2)
C23_2 C 0.1853(7) 0.2930(2) 0.0738(2)
C24_2 C 0.3763(8) 0.2940(2) 0.0790(3)
C25_2 C 0.4698(7) 0.3281(2) 0.0510(3)
H12_2 H 0.5960 0.3289 0.0537
C26_2 C 0.3792(7) 0.3613(2) 0.0188(3)
H13_2 H 0.4459 0.3842 0.0008
C27_2 C 0.0745(8) 0.2576(2) 0.1035(3)
C28_2 C 0.4848(7) 0.2582(2) 0.1120(3)
O19 O 0.0605(5) 0.17359(14) 0.23882(18)
O20 O 0.0182(5) 0.13311(15) 0.15916(19)
O13_2 O 0.1167(5) 0.25770(15) 0.83080(18)
F7_2 F 0.2999(5) 0.45613(12) 0.98326(16)
F8_2 F 0.3067(5) 0.40992(13) 0.91109(15)
F9_2 F 0.0961(4) 0.46046(12) 0.91547(15)
C20_2 C 0.0769(7) 0.3962(2) 0.9790(2)
C30_2 C 0.0109(7) 0.3328(2) 0.9073(2)
H14_2 H 0.1239 0.3205 0.9171
C37_2 C 0.1960(7) 0.4315(2) 0.9467(3)
Ce9 Ce 0.29337(4) 0.263658(12) 0.739031(14)
O1_2 O 0.6667(6) 0.12453(17) 0.2002(3)
O2_2 O 0.4223(5) 0.16761(14) 0.18629(19)
O10_2 O 0.9034(6) 0.25768(19) 0.0945(2)
O17_2 O 0.7790(12) 0.1546(3) 0.0740(4)
O18_2 O 0.4840(7) 0.29337(18) 0.2964(3)
H3_2 H 0.6050 0.2887 0.2959
H4_2 H 0.4817 0.3165 0.3203
F3_2 F 0.6216(7) 0.02060(15) 0.3548(2)
F11_2 F 0.8856(5) 0.46101(12) 0.00364(16)
F12_2 F 0.8220(5) 0.39670(13) 0.04229(15)
C2_2 C 0.3716(7) 0.0167(2) 0.2684(3)
C3_2 C 0.4662(7) 0.0524(2) 0.2432(3)
H5_2 H 0.5903 0.0489 0.2374
C4_2 C 0.3839(7) 0.0928(2) 0.2262(3)
C5_2 C 0.1939(7) 0.09792(19) 0.2330(3)
C6_2 C 0.0987(7) 0.0634(2) 0.2601(3)
C7_2 C 0.1850(8) 0.0232(2) 0.2784(3)
H7_2 H 0.1190 0.0006 0.2972
C8_2 C 0.4975(8) 0.1305(2) 0.2021(3)
C9_2 C 0.0880(7) 0.1374(2) 0.2078(3)
H11_2 H 0.9725 0.3229 0.0343
C38_2 C 0.9594(8) 0.4224(2) 0.0245(2)
O27_2 O 0.1167(5) 0.24230(15) 0.33080(18)
O28_2 O 0.6659(6) 0.21210(16) 0.26418(18)
O29_2 O 0.4381(6) 0.18825(17) 0.3166(2)
H17_2 H 0.65181 0.144849 0.0658789
H18_2 H 0.823231 0.173601 0.0415191
O14_2 O 0.8428(6) 0.23076(15) 0.8526(2)
H2_2 H 0.8992 0.2078 0.8429
O15_2 O 0.6659(6) 0.28790(16) 0.76418(18)
O16_2 O 0.4381(6) 0.31175(17) 0.8166(2)
C29_2 C 0.9552(7) 0.3729(2) 0.9330(2)
C31_2 C 0.9006(7) 0.3102(2) 0.8670(3)
C32_2 C 0.7327(7) 0.3295(2) 0.8504(2)
C33_2 C 0.6826(8) 0.3716(2) 0.8731(3)
H15_2 H 0.5757 0.3856 0.8604
C34_2 C 0.7910(8) 0.3933(2) 0.9148(2)
H16_2 H 0.7546 0.4211 0.9305
C35_2 C 0.9624(8) 0.2638(2) 0.8470(3)
C36_2 C 0.6050(7) 0.3082(2) 0.8080(3)
Ce6_2 Ce 0.79029(4) 0.298502(11) 0.666909(15)
F1_2 F 0.3985(6) 0.98152(15) 0.38759(18)
F2_2 F 0.6511(6) 0.94836(14) 0.3692(2)
F4_2 F 0.7741(5) 0.98706(15) 0.2589(2)
F5_2 F 0.5819(6) 0.96297(15) 0.1943(2)
F6_2 F 0.6856(5) 0.91701(15) 0.2600(2)
C1_2 C 0.4645(8) 0.9717(2) 0.2890(3)
C10_2 C 0.3386(7) 0.9297(2) 0.2858(3)
C11_2 C 0.2253(8) 0.9244(2) 0.2366(3)
H8_2 H 0.2221 0.9471 0.2084
C12_2 C 0.1181(8) 0.8852(2) 0.2301(3)
C13_2 C 0.1206(8) 0.8510(2) 0.2724(3)
C14_2 C 0.2339(8) 0.8563(2) 0.3208(3)
H9_2 H 0.2362 0.8338 0.3492
C15_2 C 0.3435(8) 0.8949(2) 0.3269(3)
H10_2 H 0.4208 0.8976 0.3588
C16_2 C 0.0077(8) 0.8822(2) 0.1761(3)
C18_2 C 0.5345(10) 0.9806(2) 0.3515(4)
C19_2 C 0.6289(8) 0.9598(2) 0.2503(4)
H6_2 H 0.9748 0.0670 0.2664
O5_2 O 0.9814(7) 0.84476(19) 0.1509(2)
O6_2 O 0.9452(7) 0.92006(18) 0.1571(2)
H1_2 H 0.9148 0.9204 0.1199
C17_2 C 0.9976(8) 0.8098(2) 0.2720(3)
O9_2 O 0.1505(5) 0.27032(14) 0.63811(19)
O11_2 O 0.5131(6) 0.23559(15) 0.66596(19)
O12_2 O 0.5537(6) 0.27405(16) 0.5855(2)
F7_3 F 0.2999(5) 0.04387(12) 0.48326(16)
F8_3 F 0.3067(5) 0.09008(13) 0.41109(15)
F9_3 F 0.0961(4) 0.03954(12) 0.41547(15)
F10_3 F 0.0575(5) 0.06576(15) 0.57044(16)
C20_3 C 0.0769(7) 0.1038(2) 0.4790(2)
C21_3 C 0.1915(7) 0.13893(19) 0.5128(2)
C22_3 C 0.0978(7) 0.1749(2) 0.5397(2)
C23_3 C 0.1853(7) 0.2070(2) 0.5738(2)
C24_3 C 0.3763(8) 0.2060(2) 0.5790(3)
C25_3 C 0.4698(7) 0.1719(2) 0.5510(3)
H12_3 H 0.5960 0.1711 0.5537
C26_3 C 0.3792(7) 0.1387(2) 0.5188(3)
H13_3 H 0.4459 0.1158 0.5008
C27_3 C 0.0745(8) 0.2424(2) 0.6035(3)
C28_3 C 0.4848(7) 0.2418(2) 0.6120(3)
C30_3 C 0.0109(7) 0.1672(2) 0.4073(2)
H14_3 H 0.1239 0.1795 0.4171
C37_3 C 0.1960(7) 0.0685(2) 0.4467(3)
O19_2 O 0.0605(5) 0.32641(14) 0.73882(18)
O20_2 O 0.0182(5) 0.36689(15) 0.65916(19)
O1_3 O 0.6667(6) 0.37547(17) 0.7002(3)
O2_3 O 0.4223(5) 0.33239(14) 0.68629(19)
O7_2 O 0.0678(6) 0.72945(15) 0.7803(2)
O10_3 O 0.9034(6) 0.24232(19) 0.5945(2)
O14_3 O 0.8428(6) 0.26924(15) 0.3526(2)
H2_3 H 0.8992 0.2922 0.3429
O17_3 O 0.7790(12) 0.3454(3) 0.5740(4)
O18_3 O 0.4840(7) 0.20663(18) 0.7964(3)
H3_3 H 0.6050 0.2113 0.7959
H4_3 H 0.4817 0.1835 0.8203
F1_3 F 0.3985(6) 0.51848(15) 0.88759(18)
F2_3 F 0.6511(6) 0.55164(14) 0.8692(2)
F3_3 F 0.6216(7) 0.47940(15) 0.8548(2)
F4_3 F 0.7741(5) 0.51294(15) 0.7589(2)
F5_3 F 0.5819(6) 0.53703(15) 0.6943(2)
F6_3 F 0.6856(5) 0.58299(15) 0.7600(2)
F11_3 F 0.8856(5) 0.03899(12) 0.50364(16)
F12_3 F 0.8220(5) 0.10330(13) 0.54229(15)
C1_3 C 0.4645(8) 0.5283(2) 0.7890(3)
C2_3 C 0.3716(7) 0.4833(2) 0.7684(3)
C3_3 C 0.4662(7) 0.4476(2) 0.7432(3)
H5_3 H 0.5903 0.4511 0.7374
C4_3 C 0.3839(7) 0.4072(2) 0.7262(3)
C5_3 C 0.1939(7) 0.40208(19) 0.7330(3)
C6_3 C 0.0987(7) 0.4366(2) 0.7601(3)
C7_3 C 0.1850(8) 0.4768(2) 0.7784(3)
H7_3 H 0.1190 0.4994 0.7972
C8_3 C 0.4975(8) 0.3695(2) 0.7021(3)
C9_3 C 0.0880(7) 0.3626(2) 0.7078(3)
C10_3 C 0.3386(7) 0.5703(2) 0.7858(3)
C11_3 C 0.2253(8) 0.5756(2) 0.7366(3)
H8_3 H 0.2221 0.5529 0.7084
C12_3 C 0.1181(8) 0.6148(2) 0.7301(3)
C13_3 C 0.1206(8) 0.6490(2) 0.7724(3)
C14_3 C 0.2339(8) 0.6437(2) 0.8208(3)
H9_3 H 0.2362 0.6662 0.8492
C15_3 C 0.3435(8) 0.6051(2) 0.8269(3)
H10_3 H 0.4208 0.6024 0.8588
C16_3 C 0.0077(8) 0.6178(2) 0.6761(3)
C18_3 C 0.5345(10) 0.5194(2) 0.8515(4)
C19_3 C 0.6289(8) 0.5402(2) 0.7503(4)
H11_3 H 0.9725 0.1771 0.5343
C29_3 C 0.9552(7) 0.1271(2) 0.4330(2)
C31_3 C 0.9006(7) 0.1898(2) 0.3670(3)
C32_3 C 0.7327(7) 0.1705(2) 0.3504(2)
C33_3 C 0.6826(8) 0.1284(2) 0.3731(3)
H15_3 H 0.5757 0.1144 0.3604
C34_3 C 0.7910(8) 0.1067(2) 0.4148(2)
H16_3 H 0.7546 0.0789 0.4305
C35_3 C 0.9624(8) 0.2362(2) 0.3470(3)
C36_3 C 0.6050(7) 0.1918(2) 0.3080(3)
C38_3 C 0.9594(8) 0.0776(2) 0.5245(2)
O21 O 0.9322(6) 0.22945(15) 0.7197(2)
O23_2 O 0.1694(6) 0.18400(16) 0.7339(2)
H17_3 H 0.65181 0.355151 0.565879
H18_3 H 0.823231 0.326399 0.541519
O5_3 O 0.9814(7) 0.65524(19) 0.6509(2)
O6_3 O 0.9452(7) 0.57994(18) 0.6571(2)
H1_3 H 0.9148 0.5796 0.6199
O8_2 O 0.8306(6) 0.68400(16) 0.7661(2)
H6_3 H 0.9748 0.4330 0.7664
C17_3 C 0.9976(8) 0.6902(2) 0.7720(3)
O5_4 O 0.0186(7) 0.15524(19) 0.8491(2)
O6_4 O 0.0548(7) 0.07994(18) 0.8429(2)
H1_4 H 0.0852 0.0796 0.8801
C17_4 C 0.0024(8) 0.1902(2) 0.7280(3)
H6_4 H 0.0252 0.9330 0.7336
F1_4 F 0.6015(6) 0.01848(15) 0.61241(18)
F2_4 F 0.3489(6) 0.05164(14) 0.6308(2)
F4_4 F 0.2259(5) 0.01294(15) 0.7411(2)
F5_4 F 0.4181(6) 0.03703(15) 0.8057(2)
F6_4 F 0.3144(5) 0.08299(15) 0.7400(2)
C1_4 C 0.5355(8) 0.0283(2) 0.7110(3)
C10_4 C 0.6614(7) 0.0703(2) 0.7142(3)
C11_4 C 0.7747(8) 0.0756(2) 0.7634(3)
H8_4 H 0.7779 0.0529 0.7916
C12_4 C 0.8819(8) 0.1148(2) 0.7699(3)
C13_4 C 0.8794(8) 0.1490(2) 0.7276(3)
C14_4 C 0.7661(8) 0.1437(2) 0.6792(3)
H9_4 H 0.7638 0.1662 0.6508
C15_4 C 0.6565(8) 0.1051(2) 0.6731(3)
H10_4 H 0.5792 0.1024 0.6412
C16_4 C 0.9923(8) 0.1178(2) 0.8239(3)
C18_4 C 0.4655(10) 0.0194(2) 0.6485(4)
C19_4 C 0.3711(8) 0.0402(2) 0.7497(4)
O14_4 O 0.1572(6) 0.76924(15) 0.1474(2)
H2_4 H 0.1008 0.7922 0.1571
C29_4 C 0.0448(7) 0.6271(2) 0.0670(2)
C31_4 C 0.0994(7) 0.6898(2) 0.1330(3)
C32_4 C 0.2673(7) 0.6705(2) 0.1496(2)
C33_4 C 0.3174(8) 0.6284(2) 0.1269(3)
H15_4 H 0.4243 0.6144 0.1396
C34_4 C 0.2090(8) 0.6067(2) 0.0852(2)
H16_4 H 0.2454 0.5789 0.0695
C35_4 C 0.0376(8) 0.7362(2) 0.1530(3)
C36_4 C 0.3950(7) 0.6918(2) 0.1920(3)
O1_4 O 0.3333(6) 0.87547(17) 0.7998(3)
O2_4 O 0.5777(5) 0.83239(14) 0.81371(19)
O3_2 O 0.9395(5) 0.82641(14) 0.76118(18)
O4_2 O 0.9818(5) 0.86689(15) 0.84084(19)
O10_4 O 0.0966(6) 0.74232(19) 0.9055(2)
O17_4 O 0.2210(12) 0.8454(3) 0.9260(4)
O18_4 O 0.5160(7) 0.70663(18) 0.7036(3)
H3_4 H 0.3950 0.7113 0.7041
H4_4 H 0.5183 0.6835 0.6797
F3_4 F 0.3784(7) 0.97940(15) 0.6452(2)
F11_4 F 0.1144(5) 0.53899(12) 0.99636(16)
F12_4 F 0.1780(5) 0.60330(13) 0.95771(15)
C2_4 C 0.6284(7) 0.9833(2) 0.7316(3)
C3_4 C 0.5338(7) 0.9476(2) 0.7568(3)
H5_4 H 0.4097 0.9511 0.7626
C4_4 C 0.6161(7) 0.9072(2) 0.7738(3)
C5_4 C 0.8061(7) 0.90208(19) 0.7670(3)
C6_4 C 0.9013(7) 0.9366(2) 0.7399(3)
C7_4 C 0.8150(8) 0.9768(2) 0.7216(3)
H7_4 H 0.8810 0.9994 0.7028
C8_4 C 0.5025(8) 0.8695(2) 0.7979(3)
C9_4 C 0.9120(7) 0.8626(2) 0.7922(3)
H11_4 H 0.0275 0.6771 0.9657
C38_4 C 0.0406(8) 0.5776(2) 0.9755(2)
O24_2 O 0.8495(5) 0.77032(14) 0.86189(19)
O25_2 O 0.4869(6) 0.73559(15) 0.83404(19)
O26_2 O 0.4463(6) 0.77405(16) 0.9145(2)
H17_4 H 0.34819 0.855151 0.934121
H18_4 H 0.176769 0.826399 0.958481
F7_4 F 0.7001(5) 0.54387(12) 0.01674(16)
F8_4 F 0.6933(5) 0.59008(13) 0.08891(15)
F9_4 F 0.9039(4) 0.53954(12) 0.08453(15)
C20_4 C 0.9231(7) 0.6038(2) 0.0210(2)
C30_4 C 0.9891(7) 0.6672(2) 0.0927(2)
H14_4 H 0.8761 0.6795 0.0829
C37_4 C 0.8040(7) 0.5685(2) 0.0533(3)
F10_4 F 0.9425(5) 0.56576(15) 0.92956(16)
C21_4 C 0.8085(7) 0.63893(19) 0.9872(2)
C22_4 C 0.9022(7) 0.6749(2) 0.9603(2)
C23_4 C 0.8147(7) 0.7070(2) 0.9262(2)
C24_4 C 0.6237(8) 0.7060(2) 0.9210(3)
C25_4 C 0.5302(7) 0.6719(2) 0.9490(3)
H12_4 H 0.4040 0.6711 0.9463
C26_4 C 0.6208(7) 0.6387(2) 0.9812(3)
H13_4 H 0.5541 0.6158 0.9992
C27_4 C 0.9255(8) 0.7424(2) 0.8965(3)
C28_4 C 0.5152(7) 0.7418(2) 0.8880(3)
loop_
_geom_bond_atom_site_label_1
_geom_bond_atom_site_label_2
_geom_bond_site_symmetry_1
_geom_bond_site_symmetry_2
O6 H1 1_555 1_555
O8 C17 1_555 1_555
O8 Ce8 1_555 1_555
Ce4 O22 1_555 1_555
Ce4 O1 1_555 1_555
Ce2 O2 1_555 1_555
O1 C8 1_555 1_555
O2 Ce4 1_555 1_555
O3 Ce2 1_555 1_555
O4 C9 1_555 1_555
O10 Ce4 1_555 1_555
O14 H2 1_555 1_555
O15 C36 1_555 1_555
O16 C36 1_555 1_555
O17 Ce4 1_555 1_555
O18 Ce2 1_555 1_555
H3 O18 1_555 1_555
H4 O18 1_555 1_555
F1 C18 1_555 1_555
F2 C18 1_555 1_555
F3 C18 1_555 1_555
F4 C19 1_555 1_555
F5 C19 1_555 1_555
F6 C19 1_555 1_555
F11 C38 1_555 1_555
F12 C38 1_555 1_555
C1 C2 1_555 1_555
C2 C3 1_555 1_555
C3 H5 1_555 1_555
C4 C3 1_555 1_555
C5 C4 1_555 1_555
C6 C5 1_555 1_555
C7 C2 1_555 1_555
H7 C7 1_555 1_555
C8 O2 1_555 1_555
C9 O3 1_555 1_555
C10 C1 1_555 1_555
C11 C10 1_555 1_555
H8 C11 1_555 1_555
C12 C11 1_555 1_555
C13 C12 1_555 1_555
C14 C13 1_555 1_555
H9 C14 1_555 1_555
C15 C10 1_555 1_555
H10 C15 1_555 1_555
C18 C1 1_555 1_555
C19 C1 1_555 1_555
C32 C31 1_555 1_555
C33 C32 1_555 1_555
H15 C33 1_555 1_555
C34 C29 1_555 1_555
H16 C34 1_555 1_555
C35 O14 1_555 1_555
C36 C32 1_555 1_555
Ce5 O7 1_555 1_555
Ce6 O15 1_555 1_555
Ce10 O15 1_555 1_555
O23 Ce2 1_555 1_555
O24 Ce2 1_555 1_555
O25 Ce4 1_555 1_555
O26 Ce4 1_555 1_555
O27 Ce2 1_555 1_555
O28 Ce4 1_555 1_555
O29 Ce2 1_555 1_555
Ce2 O25 1_555 1_555
Ce2 O28 1_555 1_555
O16 Ce10 1_555 1_555
C4 C8 1_555 1_555
C5 C9 1_555 1_555
C6 C7 1_555 1_555
C12 C16 1_555 1_555
C14 C15 1_555 1_555
C31 C35 1_555 1_555
C33 C34 1_555 1_555
O17 H17 1_555 1_555
O17 H18 1_555 1_555
O25 C28 1_555 1_555
O26 C28 1_555 1_555
F7 C37 1_555 1_555
F8 C37 1_555 1_555
F9 C37 1_555 1_555
C20 C21 1_555 1_555
C21 C22 1_555 1_555
C23 C22 1_555 1_555
C24 C23 1_555 1_555
C25 C24 1_555 1_555
H12 C25 1_555 1_555
C26 C21 1_555 1_555
H13 C26 1_555 1_555
C27 O24 1_555 1_555
C28 C24 1_555 1_555
H14 C30 1_555 1_555
C37 C20 1_555 1_555
Ce10 O13 1_555 1_555
C23 C27 1_555 1_555
C25 C26 1_555 1_555
O11 C28_2 1_555 1_555
O12 C28_2 1_555 1_555
C21_2 C22_2 1_555 1_555
C23_2 C22_2 1_555 1_555
C24_2 C23_2 1_555 1_555
C25_2 C24_2 1_555 1_555
H12_2 C25_2 1_555 1_555
C26_2 C21_2 1_555 1_555
H13_2 C26_2 1_555 1_555
C27_2 O9 1_555 1_555
C28_2 C24_2 1_555 1_555
Ce5 O11 1_555 1_555
Ce8 O9 1_555 1_555
O11 Ce8 1_555 1_555
O12 Ce5 1_555 1_555
C23_2 C27_2 1_555 1_555
C25_2 C26_2 1_555 1_555
Ce8 O19 1_555 1_555
F7_2 C37_2 1_555 1_555
F8_2 C37_2 1_555 1_555
F9_2 C37_2 1_555 1_555
H14_2 C30_2 1_555 1_555
C37_2 C20_2 1_555 1_555
Ce9 O13_2 1_555 1_555
Ce5 O1_2 1_555 1_555
Ce8 O2_2 1_555 1_555
O1_2 C8_2 1_555 1_555
O2_2 Ce5 1_555 1_555
O20 C9_2 1_555 1_555
O10_2 Ce5 1_555 1_555
O17_2 Ce5 1_555 1_555
O18_2 Ce8 1_555 1_555
H3_2 O18_2 1_555 1_555
H4_2 O18_2 1_555 1_555
F11_2 C38_2 1_555 1_555
F12_2 C38_2 1_555 1_555
C2_2 C3_2 1_555 1_555
C3_2 H5_2 1_555 1_555
C4_2 C3_2 1_555 1_555
C5_2 C4_2 1_555 1_555
C6_2 C5_2 1_555 1_555
C7_2 C2_2 1_555 1_555
H7_2 C7_2 1_555 1_555
C8_2 O2_2 1_555 1_555
C9_2 O19 1_555 1_555
O27_2 Ce8 1_555 1_555
O28_2 Ce5 1_555 1_555
O29_2 Ce8 1_555 1_555
Ce8 O28_2 1_555 1_555
C4_2 C8_2 1_555 1_555
C5_2 C9_2 1_555 1_555
C6_2 C7_2 1_555 1_555
O17_2 H17_2 1_555 1_555
O17_2 H18_2 1_555 1_555
O14_2 H2_2 1_555 1_555
O15_2 C36_2 1_555 1_555
O16_2 C36_2 1_555 1_555
C32_2 C31_2 1_555 1_555
C33_2 C32_2 1_555 1_555
H15_2 C33_2 1_555 1_555
C34_2 C29_2 1_555 1_555
H16_2 C34_2 1_555 1_555
C35_2 O14_2 1_555 1_555
C36_2 C32_2 1_555 1_555
Ce6_2 O15_2 1_555 1_555
Ce9 O15_2 1_555 1_555
O16_2 Ce9 1_555 1_555
C31_2 C35_2 1_555 1_555
C33_2 C34_2 1_555 1_555
F1_2 C18_2 1_555 1_555
F2_2 C18_2 1_555 1_555
F4_2 C19_2 1_555 1_555
F5_2 C19_2 1_555 1_555
F6_2 C19_2 1_555 1_555
C10_2 C1_2 1_555 1_555
C11_2 C10_2 1_555 1_555
H8_2 C11_2 1_555 1_555
C12_2 C11_2 1_555 1_555
C13_2 C12_2 1_555 1_555
C14_2 C13_2 1_555 1_555
H9_2 C14_2 1_555 1_555
C15_2 C10_2 1_555 1_555
H10_2 C15_2 1_555 1_555
C18_2 C1_2 1_555 1_555
C19_2 C1_2 1_555 1_555
C12_2 C16_2 1_555 1_555
C14_2 C15_2 1_555 1_555
O6_2 H1_2 1_555 1_555
O23 C17_2 1_555 1_555
O11_2 C28_3 1_555 1_555
O12_2 C28_3 1_555 1_555
F7_3 C37_3 1_555 1_555
F8_3 C37_3 1_555 1_555
F9_3 C37_3 1_555 1_555
C20_3 C21_3 1_555 1_555
C21_3 C22_3 1_555 1_555
C23_3 C22_3 1_555 1_555
C24_3 C23_3 1_555 1_555
C25_3 C24_3 1_555 1_555
H12_3 C25_3 1_555 1_555
C26_3 C21_3 1_555 1_555
H13_3 C26_3 1_555 1_555
C27_3 O9_2 1_555 1_555
C28_3 C24_3 1_555 1_555
H14_3 C30_3 1_555 1_555
C37_3 C20_3 1_555 1_555
Ce6_2 O11_2 1_555 1_555
Ce9 O9_2 1_555 1_555
O11_2 Ce9 1_555 1_555
O12_2 Ce6_2 1_555 1_555
C23_3 C27_3 1_555 1_555
C25_3 C26_3 1_555 1_555
Ce9 O19_2 1_555 1_555
Ce6_2 O1_3 1_555 1_555
Ce9 O2_3 1_555 1_555
O1_3 C8_3 1_555 1_555
O2_3 Ce6_2 1_555 1_555
O20_2 C9_3 1_555 1_555
O10_3 Ce6_2 1_555 1_555
O14_3 H2_3 1_555 1_555
O28_2 C36_3 1_555 1_555
O29_2 C36_3 1_555 1_555
O17_3 Ce6_2 1_555 1_555
O18_3 Ce9 1_555 1_555
H3_3 O18_3 1_555 1_555
H4_3 O18_3 1_555 1_555
F1_3 C18_3 1_555 1_555
F2_3 C18_3 1_555 1_555
F3_3 C18_3 1_555 1_555
F4_3 C19_3 1_555 1_555
F5_3 C19_3 1_555 1_555
F6_3 C19_3 1_555 1_555
F11_3 C38_3 1_555 1_555
F12_3 C38_3 1_555 1_555
C1_3 C2_3 1_555 1_555
C2_3 C3_3 1_555 1_555
C3_3 H5_3 1_555 1_555
C4_3 C3_3 1_555 1_555
C5_3 C4_3 1_555 1_555
C6_3 C5_3 1_555 1_555
C7_3 C2_3 1_555 1_555
H7_3 C7_3 1_555 1_555
C8_3 O2_3 1_555 1_555
C9_3 O19_2 1_555 1_555
C10_3 C1_3 1_555 1_555
C11_3 C10_3 1_555 1_555
H8_3 C11_3 1_555 1_555
C12_3 C11_3 1_555 1_555
C13_3 C12_3 1_555 1_555
C14_3 C13_3 1_555 1_555
H9_3 C14_3 1_555 1_555
C15_3 C10_3 1_555 1_555
H10_3 C15_3 1_555 1_555
C18_3 C1_3 1_555 1_555
C19_3 C1_3 1_555 1_555
C32_3 C31_3 1_555 1_555
C33_3 C32_3 1_555 1_555
H15_3 C33_3 1_555 1_555
C34_3 C29_3 1_555 1_555
H16_3 C34_3 1_555 1_555
C35_3 O14_3 1_555 1_555
C36_3 C32_3 1_555 1_555
Ce6 O7_2 1_555 1_555
O21 Ce6_2 1_555 1_555
O23_2 Ce9 1_555 1_555
C4_3 C8_3 1_555 1_555
C5_3 C9_3 1_555 1_555
C6_3 C7_3 1_555 1_555
C12_3 C16_3 1_555 1_555
C14_3 C15_3 1_555 1_555
C31_3 C35_3 1_555 1_555
C33_3 C34_3 1_555 1_555
O17_3 H17_3 1_555 1_555
O17_3 H18_3 1_555 1_555
O6_3 H1_3 1_555 1_555
O8_2 C17_3 1_555 1_555
O8_2 Ce10 1_555 1_555
O6_4 H1_4 1_555 1_555
O23_2 C17_4 1_555 1_555
F1_4 C18_4 1_555 1_555
F2_4 C18_4 1_555 1_555
F4_4 C19_4 1_555 1_555
F5_4 C19_4 1_555 1_555
F6_4 C19_4 1_555 1_555
C10_4 C1_4 1_555 1_555
C11_4 C10_4 1_555 1_555
H8_4 C11_4 1_555 1_555
C12_4 C11_4 1_555 1_555
C13_4 C12_4 1_555 1_555
C14_4 C13_4 1_555 1_555
H9_4 C14_4 1_555 1_555
C15_4 C10_4 1_555 1_555
H10_4 C15_4 1_555 1_555
C18_4 C1_4 1_555 1_555
C19_4 C1_4 1_555 1_555
C12_4 C16_4 1_555 1_555
C14_4 C15_4 1_555 1_555
O14_4 H2_4 1_555 1_555
O28 C36_4 1_555 1_555
O29 C36_4 1_555 1_555
C32_4 C31_4 1_555 1_555
C33_4 C32_4 1_555 1_555
H15_4 C33_4 1_555 1_555
C34_4 C29_4 1_555 1_555
H16_4 C34_4 1_555 1_555
C35_4 O14_4 1_555 1_555
C36_4 C32_4 1_555 1_555
C31_4 C35_4 1_555 1_555
C33_4 C34_4 1_555 1_555
Ce6 O1_4 1_555 1_555
Ce10 O2_4 1_555 1_555
O1_4 C8_4 1_555 1_555
O2_4 Ce6 1_555 1_555
O3_2 Ce10 1_555 1_555
O4_2 C9_4 1_555 1_555
O10_4 Ce6 1_555 1_555
O17_4 Ce6 1_555 1_555
O18_4 Ce10 1_555 1_555
H3_4 O18_4 1_555 1_555
H4_4 O18_4 1_555 1_555
F11_4 C38_4 1_555 1_555
F12_4 C38_4 1_555 1_555
C2_4 C3_4 1_555 1_555
C3_4 H5_4 1_555 1_555
C4_4 C3_4 1_555 1_555
C5_4 C4_4 1_555 1_555
C6_4 C5_4 1_555 1_555
C7_4 C2_4 1_555 1_555
H7_4 C7_4 1_555 1_555
C8_4 O2_4 1_555 1_555
C9_4 O3_2 1_555 1_555
O24_2 Ce10 1_555 1_555
O25_2 Ce6 1_555 1_555
O26_2 Ce6 1_555 1_555
Ce10 O25_2 1_555 1_555
C4_4 C8_4 1_555 1_555
C5_4 C9_4 1_555 1_555
C6_4 C7_4 1_555 1_555
O17_4 H17_4 1_555 1_555
O17_4 H18_4 1_555 1_555
F7_4 C37_4 1_555 1_555
F8_4 C37_4 1_555 1_555
F9_4 C37_4 1_555 1_555
H14_4 C30_4 1_555 1_555
C37_4 C20_4 1_555 1_555
O25_2 C28_4 1_555 1_555
O26_2 C28_4 1_555 1_555
C21_4 C22_4 1_555 1_555
C23_4 C22_4 1_555 1_555
C24_4 C23_4 1_555 1_555
C25_4 C24_4 1_555 1_555
H12_4 C25_4 1_555 1_555
C26_4 C21_4 1_555 1_555
H13_4 C26_4 1_555 1_555
C27_4 O24_2 1_555 1_555
C28_4 C24_4 1_555 1_555
C23_4 C27_4 1_555 1_555
C25_4 C26_4 1_555 1_555

#END
