
###############################################################################
#
# This file contains modified crystal structure data generated from the
# MOF subset of the Cambridge Structural Database (CSD) v543 
# hosted by the Cambridge Crystallographic Data Centre (CCDC).
#
# This work is licensed under the Creative Commons
# Attribution-NonCommercial-ShareAlike 4.0 International License.
# To view a copy of this license, visit
# http://creativecommons.org/licenses/by-nc-sa/4.0/
# or send a letter to
# Creative Commons, PO Box 1866, Mountain View, CA 94042, USA.
#
# CIF created using the CSD Python API on 29 September 2022
# The structure has been converted into the P1 space group
# The structure has a 3D framework
# The original CSD entry KIPJUQ is in the triclinic crystal system
# The framework has been calculated to contain at least 10.0% void space
# The void calculation uses a probe of radius 1.32A, grid spacing 0.4
#
###############################################################################

data_KIPJUQ
_chemical_formula_moiety         '(C114 H72 Er8 F36 O64)n'
_symmetry_cell_setting           triclinic
_symmetry_space_group_name_H-M   'P 1'
_symmetry_Int_Tables_number      1
_space_group_name_Hall           'P 1'
loop_
_symmetry_equiv_pos_site_id
_symmetry_equiv_pos_as_xyz
1 x,y,z
_cell_length_a                   8.0722(2)
_cell_length_b                   21.2247(7)
_cell_length_c                   22.7899(8)
_cell_angle_alpha                82.622(2)
_cell_angle_beta                 82.404(2)
_cell_angle_gamma                80.079(2)
_cell_volume                     3790.07
loop_
_atom_site_label
_atom_site_type_symbol
_atom_site_fract_x
_atom_site_fract_y
_atom_site_fract_z
O13 O 0.1424(3) 0.60690(12) 0.62102(10)
O14 O 0.3712(3) 0.60337(12) 0.55293(10)
O15 O 0.2512(3) 0.57880(12) 0.39781(10)
O16 O 0.1745(3) 0.53923(12) 0.48985(10)
O32 O 0.0309(3) 0.93404(14) 0.93173(11)
H15 H 0.0643 0.9714 0.9351
H16 H 0.0907 0.9093 0.9006
F12 F 0.0285(3) 0.85472(11) 0.57399(10)
C30 C 0.0178(4) 0.72129(17) 0.54571(15)
H28 H 0.0214 0.7302 0.5844
C31 C 0.1128(4) 0.66539(17) 0.52601(15)
C32 C 0.1068(4) 0.65149(17) 0.46817(15)
C33 C 0.0167(4) 0.69635(18) 0.42941(15)
H29 H 0.0192 0.6885 0.3901
C35 C 0.2182(4) 0.62124(16) 0.56961(15)
C36 C 0.1812(4) 0.58682(17) 0.45026(15)
Er5 Er 0.197641(17) 0.575463(7) 0.715769(6)
Er6 Er 0.613484(17) 0.528900(7) 0.566902(6)
Er8 Er 0.386516(17) 0.471100(7) 0.433098(6)
Er13 Er 0.239597(18) 0.093611(8) 0.036389(7)
O19 O 0.3890(3) 0.07858(13) 0.93963(11)
O20 O 0.1651(3) 0.03021(13) 0.96514(11)
O33 O 0.7189(3) 0.01308(14) 0.91872(12)
H17 H 0.6151 0.0150 0.9144
H18 H 0.7248 0.0533 0.9197
F13 F 0.3763(3) 0.03543(11) 0.64858(10)
F16 F 0.0431(3) 0.07288(11) 0.65079(10)
C43 C 0.2839(4) 0.02854(18) 0.86485(15)
C44 C 0.1934(5) 0.07386(19) 0.82636(16)
H32 H 0.1549 0.1152 0.8368
C45 C 0.1602(5) 0.05761(19) 0.77232(17)
H33 H 0.1009 0.0883 0.7466
C47 C 0.2841(4) 0.04590(18) 0.92683(15)
C57 C 0.0184(5) 0.01360(19) 0.67392(17)
O5 O 0.3502(3) 0.19276(13) 0.02302(10)
Er10 Er 0.464394(18) 0.249053(8) 0.095718(7)
O37 O 0.4772(3) 0.73800(15) 0.01168(11)
O38 O 0.9443(3) 0.83101(14) 0.01365(12)
O43 O 0.6110(3) 0.92142(13) 0.06037(11)
O44 O 0.8349(3) 0.96979(13) 0.03486(11)
Er3 Er 0.535606(18) 0.750947(8) 0.904282(7)
Er4 Er 0.760403(18) 0.906389(8) 0.963611(7)
O1 O 0.2041(3) 0.46564(13) 0.70424(12)
O2 O 0.4308(3) 0.49892(12) 0.65658(10)
O3 O 0.4358(3) 0.46230(12) 0.54172(10)
O4 O 0.3072(3) 0.39153(12) 0.51070(10)
O6 O 0.5228(3) 0.26200(15) 0.98832(11)
O7 O 0.0557(3) 0.16899(14) 0.98635(12)
O9 O 0.3880(3) 0.64430(12) 0.68610(10)
O10 O 0.6214(3) 0.60291(12) 0.63073(11)
O11 O 0.5010(3) 0.73011(13) 0.81297(11)
O12 O 0.6273(3) 0.63928(13) 0.77604(11)
O17 O 0.4410(3) 0.85763(13) 0.87908(11)
O18 O 0.4904(3) 0.93187(13) 0.93352(11)
O23 O 0.0677(3) 0.66702(13) 0.75321(11)
O24 O 0.0802(3) 0.69832(13) 0.84209(11)
O25 O 0.4150(3) 0.54948(14) 0.77876(12)
H1 H 0.4843 0.5833 0.7813
H2 H 0.4955 0.5217 0.7718
O26 O 0.0971(3) 0.52725(15) 0.81214(12)
H4 H 0.1171 0.5572 0.8344
O28 O 0.8983(3) 0.53734(13) 0.58407(10)
H7 H 0.8940 0.5713 0.6074
H8 H 0.9507 0.5324 0.5528
O29 O 0.2426(3) 0.75649(15) 0.91489(12)
H9 H 0.1755 0.7448 0.9474
H10 H 0.2129 0.7372 0.8888
O30 O 0.7885(3) 0.68232(15) 0.92157(13)
H11 H 0.8890 0.6976 0.9113
H12 H 0.8085 0.6523 0.9487
O31 O 0.4886(4) 0.64287(15) 0.93013(14)
H13 H 0.5660 0.6084 0.9420
H14 H 0.4108 0.6216 0.9305
F1 F 0.8433(3) 0.24906(15) 0.71340(10)
F2 F 0.8266(3) 0.19868(13) 0.80164(10)
F3 F 0.7323(3) 0.30013(12) 0.78794(10)
F4 F 0.7143(3) 0.14247(12) 0.70456(10)
F5 F 0.4447(3) 0.14690(11) 0.72759(10)
F6 F 0.6112(3) 0.12007(12) 0.79566(10)
F7 F 0.5666(3) 0.80407(11) 0.48986(10)
F8 F 0.5374(3) 0.89067(12) 0.53174(10)
F9 F 0.6953(3) 0.88135(12) 0.44852(10)
F10 F 0.9906(3) 0.88823(12) 0.48298(10)
F11 F 0.8190(3) 0.92843(11) 0.55392(10)
F14 F 0.4634(2) 0.93498(11) 0.66857(10)
F15 F 0.3028(3) 0.96761(12) 0.59861(9)
C1 C 0.5660(4) 0.23151(18) 0.75622(15)
C2 C 0.5088(4) 0.27654(17) 0.70212(15)
C3 C 0.4496(4) 0.34139(17) 0.70915(14)
H19 H 0.4385 0.3551 0.7468
C4 C 0.4073(4) 0.38567(17) 0.66114(14)
C5 C 0.4151(4) 0.36441(17) 0.60470(14)
C6 C 0.4678(4) 0.29986(18) 0.59860(15)
H20 H 0.4701 0.2855 0.5616
C7 C 0.5172(5) 0.25617(18) 0.64552(16)
H21 H 0.5559 0.2133 0.6397
C8 C 0.3455(4) 0.45443(17) 0.67317(14)
C9 C 0.3798(4) 0.40847(18) 0.54995(15)
C10 C 0.4378(4) 0.23933(17) 0.81179(15)
C11 C 0.4848(4) 0.23308(17) 0.86961(15)
H22 H 0.5983 0.2298 0.8750
C12 C 0.3635(4) 0.23167(18) 0.91890(15)
C13 C 0.1937(4) 0.23568(17) 0.91196(15)
C14 C 0.1447(4) 0.24634(19) 0.85454(16)
H23 H 0.0304 0.2525 0.8493
C15 C 0.2655(4) 0.24775(18) 0.80513(15)
H24 H 0.2313 0.2544 0.7671
C16 C 0.4173(4) 0.22762(18) 0.97917(15)
C17 C 0.0586(4) 0.2266(2) 0.96336(16)
C18 C 0.7421(5) 0.2455(2) 0.76497(17)
C19 C 0.5850(5) 0.15923(19) 0.74581(17)
C20 C 0.8022(4) 0.82088(17) 0.53631(15)
C21 C 0.7273(4) 0.79477(17) 0.59886(15)
C22 C 0.6639(4) 0.73733(18) 0.60349(15)
H25 H 0.6616 0.7185 0.5690
C23 C 0.6037(4) 0.70698(17) 0.65819(14)
C24 C 0.6089(4) 0.73563(17) 0.71042(14)
C25 C 0.6648(4) 0.79352(18) 0.70529(15)
H26 H 0.6622 0.8133 0.7396
C26 C 0.7258(4) 0.82432(18) 0.65073(15)
H27 H 0.7645 0.8634 0.6488
C27 C 0.5322(4) 0.64601(17) 0.65878(14)
C28 C 0.5753(4) 0.69898(18) 0.77100(15)
C29 C 0.9169(4) 0.76442(17) 0.50818(15)
C34 C 0.9230(4) 0.75280(18) 0.44844(15)
H30 H 0.8647 0.7827 0.4219
C37 C 0.6490(4) 0.85012(19) 0.50080(16)
C38 C 0.9097(5) 0.87396(19) 0.53711(16)
C39 C 0.1740(4) 0.97220(17) 0.69920(15)
C40 C 0.2153(4) 0.99573(18) 0.75665(15)
C41 C 0.3104(4) 0.95129(17) 0.79444(15)
H31 H 0.3515 0.9104 0.7831
C42 C 0.3456(4) 0.96615(18) 0.84859(15)
C46 C 0.4336(4) 0.91464(18) 0.88964(15)
C48 C 0.1355(4) 0.90297(18) 0.71528(15)
C49 C 0.0210(4) 0.89257(18) 0.76539(15)
C51 C 0.0712(4) 0.77801(17) 0.75888(15)
C52 C 0.1768(4) 0.78863(18) 0.70647(15)
H35 H 0.2264 0.7540 0.6856
C53 C 0.2102(4) 0.85021(17) 0.68440(15)
H36 H 0.2816 0.8562 0.6493
C55 C 0.0703(4) 0.70918(18) 0.78657(16)
C56 C 0.3299(5) 0.97761(18) 0.65293(16)
O34 O 0.5642(3) 0.53770(12) 0.45828(10)
O35 O 0.6928(3) 0.60847(12) 0.48930(10)
O36 O 0.6498(3) 0.80724(13) 0.97698(10)
O41 O 0.7488(3) 0.42120(12) 0.60219(10)
O42 O 0.8255(3) 0.46077(12) 0.51015(10)
O45 O 0.7635(3) 0.78449(12) 0.84353(11)
O46 O 0.8398(3) 0.86907(13) 0.87606(11)
O8 O 0.9530(3) 0.27321(14) 0.97838(12)
H3 H 0.9845 0.5416 0.8140
O27 O 0.9095(3) 0.56902(13) 0.71586(11)
H5 H 0.8287 0.5913 0.7310
H6 H 0.8801 0.5319 0.7101
F18 F 0.9698(3) 0.98618(12) 0.63096(11)
H34 H 0.9653 0.9277 0.7846
C50 C 0.9869(4) 0.83159(18) 0.78768(15)
C54 C 0.8557(4) 0.82641(17) 0.83989(15)
O8_2 O 0.0470(3) 0.72679(14) 0.02162(12)
O21 O 0.2365(3) 0.21551(12) 0.15647(11)
O22 O 0.1602(3) 0.13093(13) 0.12394(11)
H3_2 H 0.0155 0.4584 0.1860
O27_2 O 0.0905(3) 0.43098(13) 0.28414(11)
H5_2 H 0.1713 0.4087 0.2690
H6_2 H 0.1199 0.4681 0.2899
F18_2 F 0.0302(3) 0.01382(12) 0.36904(11)
H34_2 H 0.0347 0.0723 0.2154
C50_2 C 0.0131(4) 0.16841(18) 0.21232(15)
C54_2 C 0.1443(4) 0.17359(17) 0.16011(15)
Er1 Er 0.802359(17) 0.424537(7) 0.284231(6)
O1_2 O 0.7959(3) 0.53436(13) 0.29576(12)
O2_2 O 0.5692(3) 0.50108(12) 0.34342(10)
O9_2 O 0.6120(3) 0.35570(12) 0.31390(10)
O10_2 O 0.3786(3) 0.39709(12) 0.36927(11)
O11_2 O 0.4990(3) 0.26989(13) 0.18703(11)
O12_2 O 0.3727(3) 0.36072(13) 0.22396(11)
O17_2 O 0.5590(3) 0.14237(13) 0.12092(11)
O18_2 O 0.5096(3) 0.06813(13) 0.06648(11)
O23_2 O 0.9323(3) 0.33298(13) 0.24679(11)
O24_2 O 0.9198(3) 0.30168(13) 0.15791(11)
O25_2 O 0.5850(3) 0.45052(14) 0.22124(12)
H1_2 H 0.5157 0.4167 0.2187
H2_2 H 0.5045 0.4783 0.2282
O26_2 O 0.9029(3) 0.47275(15) 0.18786(12)
H4_2 H 0.8829 0.4428 0.1656
O28_2 O 0.1017(3) 0.46266(13) 0.41593(10)
H7_2 H 0.1060 0.4287 0.3926
H8_2 H 0.0493 0.4676 0.4472
O29_2 O 0.7574(3) 0.24351(15) 0.08511(12)
H9_2 H 0.8245 0.2552 0.0526
H10_2 H 0.7871 0.2628 0.1112
O30_2 O 0.2115(3) 0.31768(15) 0.07843(13)
H11_2 H 0.1110 0.3024 0.0887
H12_2 H 0.1915 0.3477 0.0513
O31_2 O 0.5114(4) 0.35713(15) 0.06987(14)
H13_2 H 0.4340 0.3916 0.0580
H14_2 H 0.5892 0.3784 0.0695
F1_2 F 0.1567(3) 0.75094(15) 0.28660(10)
F2_2 F 0.1734(3) 0.80132(13) 0.19836(10)
F3_2 F 0.2677(3) 0.69987(12) 0.21206(10)
F4_2 F 0.2857(3) 0.85753(12) 0.29544(10)
F5_2 F 0.5553(3) 0.85310(11) 0.27241(10)
F6_2 F 0.3888(3) 0.87993(12) 0.20434(10)
F7_2 F 0.4334(3) 0.19593(11) 0.51014(10)
F8_2 F 0.4626(3) 0.10933(12) 0.46826(10)
F9_2 F 0.3047(3) 0.11865(12) 0.55148(10)
F10_2 F 0.0094(3) 0.11177(12) 0.51702(10)
F11_2 F 0.1810(3) 0.07157(11) 0.44608(10)
F14_2 F 0.5366(2) 0.06502(11) 0.33143(10)
F15_2 F 0.6972(3) 0.03239(12) 0.40139(9)
C1_2 C 0.4340(4) 0.76849(18) 0.24378(15)
C2_2 C 0.4912(4) 0.72346(17) 0.29788(15)
C3_2 C 0.5504(4) 0.65861(17) 0.29085(14)
H19_2 H 0.5615 0.6449 0.2532
C4_2 C 0.5927(4) 0.61433(17) 0.33886(14)
C5_2 C 0.5849(4) 0.63559(17) 0.39530(14)
C6_2 C 0.5322(4) 0.70014(18) 0.40140(15)
H20_2 H 0.5299 0.7145 0.4384
C7_2 C 0.4828(5) 0.74383(18) 0.35448(16)
H21_2 H 0.4441 0.7867 0.3603
C8_2 C 0.6545(4) 0.54557(17) 0.32683(14)
C9_2 C 0.6202(4) 0.59153(18) 0.45005(15)
C10_2 C 0.5622(4) 0.76067(17) 0.18821(15)
C11_2 C 0.5152(4) 0.76692(17) 0.13039(15)
H22_2 H 0.4017 0.7702 0.1250
C12_2 C 0.6365(4) 0.76833(18) 0.08110(15)
C13_2 C 0.8063(4) 0.76432(17) 0.08804(15)
C14_2 C 0.8553(4) 0.75366(19) 0.14546(16)
H23_2 H 0.9696 0.7475 0.1507
C15_2 C 0.7345(4) 0.75225(18) 0.19487(15)
H24_2 H 0.7687 0.7456 0.2329
C16_2 C 0.5827(4) 0.77238(18) 0.02083(15)
C17_2 C 0.9414(4) 0.7734(2) 0.03664(16)
C18_2 C 0.2579(5) 0.7545(2) 0.23503(17)
C19_2 C 0.4150(5) 0.84077(19) 0.25419(17)
C20_2 C 0.1978(4) 0.17912(17) 0.46369(15)
C21_2 C 0.2727(4) 0.20523(17) 0.40114(15)
C22_2 C 0.3361(4) 0.26267(18) 0.39651(15)
H25_2 H 0.3384 0.2815 0.4310
C23_2 C 0.3963(4) 0.29302(17) 0.34181(14)
C24_2 C 0.3911(4) 0.26437(17) 0.28958(14)
C25_2 C 0.3352(4) 0.20648(18) 0.29471(15)
H26_2 H 0.3378 0.1867 0.2604
C26_2 C 0.2742(4) 0.17568(18) 0.34927(15)
H27_2 H 0.2355 0.1366 0.3512
C27_2 C 0.4678(4) 0.35399(17) 0.34122(14)
C28_2 C 0.4247(4) 0.30102(18) 0.22900(15)
C29_2 C 0.0831(4) 0.23558(17) 0.49182(15)
C34_2 C 0.0770(4) 0.24720(18) 0.55156(15)
H30_2 H 0.1353 0.2173 0.5781
C37_2 C 0.3510(4) 0.14988(19) 0.49920(16)
C38_2 C 0.0903(5) 0.12604(19) 0.46289(16)
C39_2 C 0.8260(4) 0.02780(17) 0.30080(15)
C40_2 C 0.7847(4) 0.00427(18) 0.24335(15)
C41_2 C 0.6896(4) 0.04871(17) 0.20556(15)
H31_2 H 0.6485 0.0896 0.2169
C42_2 C 0.6544(4) 0.03385(18) 0.15141(15)
C46_2 C 0.5664(4) 0.08536(18) 0.11036(15)
C48_2 C 0.8645(4) 0.09703(18) 0.28472(15)
C49_2 C 0.9790(4) 0.10743(18) 0.23461(15)
C51_2 C 0.9288(4) 0.22199(17) 0.24112(15)
C52_2 C 0.8232(4) 0.21137(18) 0.29353(15)
H35_2 H 0.7736 0.2460 0.3144
C53_2 C 0.7898(4) 0.14979(17) 0.31560(15)
H36_2 H 0.7184 0.1438 0.3507
C55_2 C 0.9297(4) 0.29082(18) 0.21343(16)
C56_2 C 0.6701(5) 0.02239(18) 0.34707(16)
O39 O 0.8576(3) 0.39310(12) 0.37898(10)
O40 O 0.6288(3) 0.39663(12) 0.44707(10)
O33_2 O 0.2811(3) 0.98692(14) 0.08128(12)
H17_2 H 0.3849 0.9850 0.0856
H18_2 H 0.2752 0.9467 0.0803
F13_2 F 0.6237(3) 0.96457(11) 0.35142(10)
F16_2 F 0.9569(3) 0.92712(11) 0.34921(10)
C43_2 C 0.7161(4) 0.97146(18) 0.13515(15)
C44_2 C 0.8066(5) 0.92614(19) 0.17364(16)
H32_2 H 0.8451 0.8848 0.1632
C45_2 C 0.8398(5) 0.94239(19) 0.22768(17)
H33_2 H 0.8991 0.9117 0.2534
C47_2 C 0.7159(4) 0.95410(18) 0.07317(15)
C57_2 C 0.9816(5) 0.98640(19) 0.32608(17)
O32_2 O 0.9691(3) 0.06596(14) 0.06827(11)
H15_2 H 0.9357 0.0286 0.0649
H16_2 H 0.9093 0.0907 0.0994
F12_2 F 0.9715(3) 0.14528(11) 0.42601(10)
C30_2 C 0.9822(4) 0.27871(17) 0.45429(15)
H28_2 H 0.9786 0.2698 0.4156
C31_2 C 0.8872(4) 0.33461(17) 0.47399(15)
C32_2 C 0.8932(4) 0.34851(17) 0.53183(15)
C33_2 C 0.9833(4) 0.30365(18) 0.57059(15)
H29_2 H 0.9808 0.3115 0.6099
C35_2 C 0.7818(4) 0.37876(16) 0.43039(15)
C36_2 C 0.8188(4) 0.41318(17) 0.54974(15)
F17 F 0.8864(3) 0.02047(11) 0.71647(10)
F17_2 F 0.1136(3) 0.97953(11) 0.28353(10)
loop_
_geom_bond_atom_site_label_1
_geom_bond_atom_site_label_2
_geom_bond_site_symmetry_1
_geom_bond_site_symmetry_2
O13 C35 1_555 1_555
O14 C35 1_555 1_555
O15 C36 1_555 1_555
O16 C36 1_555 1_555
H15 O32 1_555 1_555
H16 O32 1_555 1_555
H28 C30 1_555 1_555
C31 C30 1_555 1_555
C32 C31 1_555 1_555
C33 C32 1_555 1_555
H29 C33 1_555 1_555
C35 C31 1_555 1_555
C36 C32 1_555 1_555
Er5 O13 1_555 1_555
Er6 O14 1_555 1_555
Er8 O15 1_555 1_555
O16 Er8 1_555 1_555
O19 C47 1_555 1_555
O20 C47 1_555 1_555
H17 O33 1_555 1_555
H18 O33 1_555 1_555
F16 C57 1_555 1_555
C44 C43 1_555 1_555
H32 C44 1_555 1_555
H33 C45 1_555 1_555
C47 C43 1_555 1_555
C44 C45 1_555 1_555
Er10 O5 1_555 1_555
Er13 O5 1_555 1_555
Er5 O1 1_555 1_555
Er6 O2 1_555 1_555
Er3 O11 1_555 1_555
Er4 O18 1_555 1_555
O1 C8 1_555 1_555
O2 Er5 1_555 1_555
O3 Er6 1_555 1_555
O4 C9 1_555 1_555
O6 C16 1_555 1_555
O7 C17 1_555 1_555
O9 Er5 1_555 1_555
O10 Er6 1_555 1_555
O11 C28 1_555 1_555
O12 C28 1_555 1_555
O17 Er3 1_555 1_555
O18 C46 1_555 1_555
O23 Er5 1_555 1_555
O24 C55 1_555 1_555
O25 Er5 1_555 1_555
H1 O25 1_555 1_555
H2 O25 1_555 1_555
O26 Er5 1_555 1_555
H4 O26 1_555 1_555
O28 Er6 1_555 1_555
H7 O28 1_555 1_555
H8 O28 1_555 1_555
O29 Er3 1_555 1_555
H9 O29 1_555 1_555
H10 O29 1_555 1_555
O30 Er3 1_555 1_555
H11 O30 1_555 1_555
H12 O30 1_555 1_555
O31 Er3 1_555 1_555
H13 O31 1_555 1_555
H14 O31 1_555 1_555
F1 C18 1_555 1_555
F2 C18 1_555 1_555
F3 C18 1_555 1_555
F4 C19 1_555 1_555
F5 C19 1_555 1_555
F6 C19 1_555 1_555
F7 C37 1_555 1_555
F8 C37 1_555 1_555
F9 C37 1_555 1_555
F10 C38 1_555 1_555
F11 C38 1_555 1_555
F14 C56 1_555 1_555
F15 C56 1_555 1_555
C1 C2 1_555 1_555
C2 C3 1_555 1_555
C3 H19 1_555 1_555
C4 C3 1_555 1_555
C5 C4 1_555 1_555
C6 C5 1_555 1_555
H20 C6 1_555 1_555
C7 C2 1_555 1_555
H21 C7 1_555 1_555
C8 O2 1_555 1_555
C9 O3 1_555 1_555
C10 C1 1_555 1_555
C11 C10 1_555 1_555
H22 C11 1_555 1_555
C12 C11 1_555 1_555
C13 C12 1_555 1_555
C14 C13 1_555 1_555
H23 C14 1_555 1_555
C15 C10 1_555 1_555
H24 C15 1_555 1_555
C16 C12 1_555 1_555
C17 C13 1_555 1_555
C18 C1 1_555 1_555
C19 C1 1_555 1_555
C20 C21 1_555 1_555
C21 C22 1_555 1_555
C22 H25 1_555 1_555
C23 C22 1_555 1_555
C24 C23 1_555 1_555
C25 C24 1_555 1_555
H26 C25 1_555 1_555
C26 C21 1_555 1_555
H27 C26 1_555 1_555
C27 O9 1_555 1_555
C28 C24 1_555 1_555
C29 C20 1_555 1_555
C34 C29 1_555 1_555
H30 C34 1_555 1_555
C37 C20 1_555 1_555
C38 C20 1_555 1_555
C39 C40 1_555 1_555
C40 C41 1_555 1_555
C41 H31 1_555 1_555
C42 C41 1_555 1_555
C46 O17 1_555 1_555
C48 C39 1_555 1_555
C49 C48 1_555 1_555
C52 C51 1_555 1_555
H35 C52 1_555 1_555
C53 C48 1_555 1_555
H36 C53 1_555 1_555
C55 O23 1_555 1_555
C56 C39 1_555 1_555
Er8 O3 1_555 1_555
O34 Er6 1_555 1_555
O35 Er6 1_555 1_555
O36 Er3 1_555 1_555
O41 Er6 1_555 1_555
O42 Er6 1_555 1_555
O45 Er3 1_555 1_555
O46 Er4 1_555 1_555
Er4 O36 1_555 1_555
O4 Er8 1_555 1_555
O10 C27 1_555 1_555
C4 C8 1_555 1_555
C5 C9 1_555 1_555
C6 C7 1_555 1_555
C14 C15 1_555 1_555
C23 C27 1_555 1_555
C25 C26 1_555 1_555
C42 C46 1_555 1_555
C51 C55 1_555 1_555
C52 C53 1_555 1_555
Er8 O34 1_555 1_555
O45 C54 1_555 1_555
O46 C54 1_555 1_555
H5 O27 1_555 1_555
H6 O27 1_555 1_555
C54 C50 1_555 1_555
O21 C54_2 1_555 1_555
O22 C54_2 1_555 1_555
H5_2 O27_2 1_555 1_555
H6_2 O27_2 1_555 1_555
C54_2 C50_2 1_555 1_555
Er10 O21 1_555 1_555
Er13 O22 1_555 1_555
Er1 O1_2 1_555 1_555
Er8 O2_2 1_555 1_555
Er10 O11_2 1_555 1_555
Er13 O18_2 1_555 1_555
O1_2 C8_2 1_555 1_555
O2_2 Er1 1_555 1_555
O35 C9_2 1_555 1_555
O37 C16_2 1_555 1_555
O38 C17_2 1_555 1_555
O9_2 Er1 1_555 1_555
O10_2 Er8 1_555 1_555
O11_2 C28_2 1_555 1_555
O12_2 C28_2 1_555 1_555
O17_2 Er10 1_555 1_555
O18_2 C46_2 1_555 1_555
O23_2 Er1 1_555 1_555
O24_2 C55_2 1_555 1_555
O25_2 Er1 1_555 1_555
H1_2 O25_2 1_555 1_555
H2_2 O25_2 1_555 1_555
O26_2 Er1 1_555 1_555
H4_2 O26_2 1_555 1_555
O28_2 Er8 1_555 1_555
H7_2 O28_2 1_555 1_555
H8_2 O28_2 1_555 1_555
O29_2 Er10 1_555 1_555
H9_2 O29_2 1_555 1_555
H10_2 O29_2 1_555 1_555
O30_2 Er10 1_555 1_555
H11_2 O30_2 1_555 1_555
H12_2 O30_2 1_555 1_555
O31_2 Er10 1_555 1_555
H13_2 O31_2 1_555 1_555
H14_2 O31_2 1_555 1_555
F1_2 C18_2 1_555 1_555
F2_2 C18_2 1_555 1_555
F3_2 C18_2 1_555 1_555
F4_2 C19_2 1_555 1_555
F5_2 C19_2 1_555 1_555
F6_2 C19_2 1_555 1_555
F7_2 C37_2 1_555 1_555
F8_2 C37_2 1_555 1_555
F9_2 C37_2 1_555 1_555
F10_2 C38_2 1_555 1_555
F11_2 C38_2 1_555 1_555
F14_2 C56_2 1_555 1_555
F15_2 C56_2 1_555 1_555
C1_2 C2_2 1_555 1_555
C2_2 C3_2 1_555 1_555
C3_2 H19_2 1_555 1_555
C4_2 C3_2 1_555 1_555
C5_2 C4_2 1_555 1_555
C6_2 C5_2 1_555 1_555
H20_2 C6_2 1_555 1_555
C7_2 C2_2 1_555 1_555
H21_2 C7_2 1_555 1_555
C8_2 O2_2 1_555 1_555
C9_2 O34 1_555 1_555
C10_2 C1_2 1_555 1_555
C11_2 C10_2 1_555 1_555
H22_2 C11_2 1_555 1_555
C12_2 C11_2 1_555 1_555
C13_2 C12_2 1_555 1_555
C14_2 C13_2 1_555 1_555
H23_2 C14_2 1_555 1_555
C15_2 C10_2 1_555 1_555
H24_2 C15_2 1_555 1_555
C16_2 C12_2 1_555 1_555
C17_2 C13_2 1_555 1_555
C18_2 C1_2 1_555 1_555
C19_2 C1_2 1_555 1_555
C20_2 C21_2 1_555 1_555
C21_2 C22_2 1_555 1_555
C22_2 H25_2 1_555 1_555
C23_2 C22_2 1_555 1_555
C24_2 C23_2 1_555 1_555
C25_2 C24_2 1_555 1_555
H26_2 C25_2 1_555 1_555
C26_2 C21_2 1_555 1_555
H27_2 C26_2 1_555 1_555
C27_2 O9_2 1_555 1_555
C28_2 C24_2 1_555 1_555
C29_2 C20_2 1_555 1_555
C34_2 C29_2 1_555 1_555
H30_2 C34_2 1_555 1_555
C37_2 C20_2 1_555 1_555
C38_2 C20_2 1_555 1_555
C39_2 C40_2 1_555 1_555
C40_2 C41_2 1_555 1_555
C41_2 H31_2 1_555 1_555
C42_2 C41_2 1_555 1_555
C46_2 O17_2 1_555 1_555
C48_2 C39_2 1_555 1_555
C49_2 C48_2 1_555 1_555
C52_2 C51_2 1_555 1_555
H35_2 C52_2 1_555 1_555
C53_2 C48_2 1_555 1_555
H36_2 C53_2 1_555 1_555
C55_2 O23_2 1_555 1_555
C56_2 C39_2 1_555 1_555
O39 Er1 1_555 1_555
O40 Er8 1_555 1_555
O10_2 C27_2 1_555 1_555
C4_2 C8_2 1_555 1_555
C5_2 C9_2 1_555 1_555
C6_2 C7_2 1_555 1_555
C14_2 C15_2 1_555 1_555
C23_2 C27_2 1_555 1_555
C25_2 C26_2 1_555 1_555
C42_2 C46_2 1_555 1_555
C51_2 C55_2 1_555 1_555
C52_2 C53_2 1_555 1_555
O43 C47_2 1_555 1_555
O44 C47_2 1_555 1_555
H17_2 O33_2 1_555 1_555
H18_2 O33_2 1_555 1_555
F16_2 C57_2 1_555 1_555
C44_2 C43_2 1_555 1_555
H32_2 C44_2 1_555 1_555
H33_2 C45_2 1_555 1_555
C47_2 C43_2 1_555 1_555
C44_2 C45_2 1_555 1_555
O39 C35_2 1_555 1_555
O40 C35_2 1_555 1_555
O41 C36_2 1_555 1_555
O42 C36_2 1_555 1_555
H15_2 O32_2 1_555 1_555
H16_2 O32_2 1_555 1_555
H28_2 C30_2 1_555 1_555
C31_2 C30_2 1_555 1_555
C32_2 C31_2 1_555 1_555
C33_2 C32_2 1_555 1_555
H29_2 C33_2 1_555 1_555
C35_2 C31_2 1_555 1_555
C36_2 C32_2 1_555 1_555

#END
