
###############################################################################
#
# This file contains modified crystal structure data generated from the
# MOF subset of the Cambridge Structural Database (CSD) v543 
# hosted by the Cambridge Crystallographic Data Centre (CCDC).
#
# This work is licensed under the Creative Commons
# Attribution-NonCommercial-ShareAlike 4.0 International License.
# To view a copy of this license, visit
# http://creativecommons.org/licenses/by-nc-sa/4.0/
# or send a letter to
# Creative Commons, PO Box 1866, Mountain View, CA 94042, USA.
#
# CIF created using the CSD Python API on 29 September 2022
# The structure has been converted into the P1 space group
# The structure has a 3D framework
# The original CSD entry KIPJOK is in the monoclinic crystal system
# The framework has been calculated to contain at least 10.0% void space
# The void calculation uses a probe of radius 1.32A, grid spacing 0.4
# H atom positions have been added when not included in the experimental data
#
###############################################################################

data_KIPJOK
_chemical_formula_moiety         '(C152 H72 F48 Nd8 O64)n'
_symmetry_cell_setting           triclinic
_symmetry_space_group_name_H-M   'P 1'
_symmetry_Int_Tables_number      1
_space_group_name_Hall           'P 1'
loop_
_symmetry_equiv_pos_site_id
_symmetry_equiv_pos_as_xyz
1 x,y,z
_cell_length_a                   7.3654(3)
_cell_length_b                   29.0284(17)
_cell_length_c                   23.4808(14)
_cell_angle_alpha                90
_cell_angle_beta                 90.969(3)
_cell_angle_gamma                90
_cell_volume                     5019.61
loop_
_atom_site_label
_atom_site_type_symbol
_atom_site_fract_x
_atom_site_fract_y
_atom_site_fract_z
O5 O 0.0064(9) 0.3477(2) 0.3489(3)
O6 O 0.0407(10) 0.4230(2) 0.3426(3)
H1 H 0.0711 0.4234 0.3798
O8 O 0.1597(8) 0.3156(2) 0.2361(3)
H6 H 0.0226 0.5683 0.2241
Nd4 Nd 0.21046(5) 0.702709(14) 0.327922(18)
Nd8 Nd 0.28631(5) 0.237824(14) 0.242952(18)
O22 O 0.0793(8) 0.77181(19) 0.2774(3)
Nd2 Nd 0.71369(5) 0.737824(14) 0.257048(18)
O1 O 0.3489(9) 0.6269(2) 0.3012(4)
O2 O 0.5936(7) 0.66983(18) 0.3077(2)
O3 O 0.9438(7) 0.67567(18) 0.2552(2)
O4 O 0.9932(7) 0.6335(2) 0.3318(3)
O7 O 0.9207(8) 0.27181(19) 0.2226(3)
O10 O 0.1049(8) 0.7584(2) 0.3993(3)
O14 O 0.1596(7) 0.72831(19) 0.6467(3)
H2 H 0.1032 0.7054 0.6564
O15 O 0.3354(7) 0.7876(2) 0.7344(3)
O16 O 0.5634(7) 0.8069(2) 0.6806(3)
O17 O 0.2020(15) 0.6586(4) 0.4201(4)
O18 O 0.5162(9) 0.7950(2) 0.2075(3)
H3 H 0.3952 0.7903 0.2080
H4 H 0.5185 0.8181 0.1835
F1 F 0.6050(9) 0.48268(19) 0.1091(2)
F2 F 0.3494(8) 0.45043(19) 0.1262(3)
F3 F 0.3791(9) 0.52247(19) 0.1394(3)
F4 F 0.2218(6) 0.49121(18) 0.2347(4)
F5 F 0.4081(7) 0.46573(18) 0.2993(3)
F6 F 0.3033(7) 0.42012(18) 0.2342(3)
F11 F 0.1153(6) 0.95998(15) 0.4953(2)
F12 F 0.1846(6) 0.89522(16) 0.4578(2)
C1 C 0.5317(10) 0.4738(3) 0.2067(4)
C2 C 0.6253(10) 0.5187(3) 0.2271(4)
C3 C 0.5350(10) 0.5547(3) 0.2523(4)
H5 H 0.4112 0.5517 0.2586
C4 C 0.6204(10) 0.5951(3) 0.2687(4)
C5 C 0.8087(9) 0.5998(3) 0.2603(3)
C6 C 0.8999(10) 0.5649(3) 0.2318(4)
C7 C 0.8090(10) 0.5247(3) 0.2147(4)
H7 H 0.8709 0.5020 0.1950
C8 C 0.5142(11) 0.6326(3) 0.2947(4)
C9 C 0.9184(10) 0.6387(3) 0.2852(4)
C10 C 0.6543(10) 0.4315(3) 0.2118(4)
C11 C 0.7657(10) 0.4264(3) 0.2602(4)
H8 H 0.7685 0.4498 0.2873
C12 C 0.8731(10) 0.3873(3) 0.2691(4)
C13 C 0.8715(10) 0.3528(3) 0.2277(4)
C14 C 0.7615(10) 0.3573(3) 0.1795(4)
H9 H 0.7590 0.3340 0.1523
C15 C 0.6544(10) 0.3966(3) 0.1717(4)
H10 H 0.5821 0.3993 0.1390
C16 C 0.9821(11) 0.3857(3) 0.3225(4)
C17 C 0.9919(11) 0.3112(3) 0.2300(4)
C18 C 0.4673(14) 0.4820(3) 0.1441(5)
C19 C 0.3648(12) 0.4622(3) 0.2433(5)
H11 H 0.0345 0.8222 0.4622
C29 C 0.0512(9) 0.8699(3) 0.5647(3)
C31 C 0.1023(10) 0.8073(3) 0.6302(3)
C32 C 0.2709(9) 0.8266(3) 0.6465(3)
C33 C 0.3221(10) 0.8680(3) 0.6232(3)
H15 H 0.4311 0.8814 0.6349
C34 C 0.2145(10) 0.8902(3) 0.5826(3)
H16 H 0.2507 0.9183 0.5674
C35 C 0.0417(11) 0.7614(3) 0.6510(3)
C36 C 0.3969(9) 0.8055(3) 0.6899(3)
C38 C 0.0438(10) 0.9206(3) 0.4753(3)
Nd5 Nd 0.78954(5) 0.202709(14) 0.172078(18)
Nd6 Nd 0.21046(5) 0.797291(14) 0.827922(18)
Nd10 Nd 0.71369(5) 0.762176(14) 0.757048(18)
O23 O 0.8403(8) 0.8156(2) 0.2639(3)
O24 O 0.8607(7) 0.73013(18) 0.3559(2)
O25 O 0.4960(8) 0.76512(19) 0.3284(3)
O26 O 0.4474(8) 0.7253(2) 0.4069(3)
O27 O 0.8861(7) 0.74501(18) 0.1673(2)
O28 O 0.3354(7) 0.7124(2) 0.2344(3)
O29 O 0.5634(7) 0.6931(2) 0.1806(3)
H17 H 0.327479 0.649942 0.43195
H18 H 0.14731 0.678144 0.449984
O13 O 0.8861(7) 0.75499(18) 0.6673(2)
F7 F 0.7076(6) 0.95407(15) 0.5154(2)
F8 F 0.6978(6) 0.90730(16) 0.5861(2)
F9 F 0.9081(6) 0.95779(15) 0.5827(2)
F10 F 0.9479(6) 0.93161(18) 0.4288(2)
C20 C 0.9298(9) 0.8938(3) 0.5193(3)
C21 C 0.8141(9) 0.8582(3) 0.4847(3)
C22 C 0.9091(10) 0.8239(3) 0.4573(3)
C23 C 0.8205(10) 0.7917(3) 0.4223(3)
C24 C 0.6294(10) 0.7921(3) 0.4169(3)
C25 C 0.5372(10) 0.8265(3) 0.4461(3)
H12 H 0.4111 0.8274 0.4436
C26 C 0.6255(10) 0.8592(3) 0.4785(3)
H13 H 0.5592 0.8821 0.4965
C27 C 0.9334(11) 0.7577(3) 0.3914(4)
C28 C 0.5223(10) 0.7583(3) 0.3814(4)
C30 C 0.9947(10) 0.8296(3) 0.5896(3)
H14 H 0.8829 0.8170 0.5791
C37 C 0.8109(9) 0.9287(3) 0.5508(3)
O9 O 0.1393(7) 0.23013(18) 0.1441(2)
O11 O 0.5040(8) 0.26512(19) 0.1716(3)
O12 O 0.5526(8) 0.2253(2) 0.0931(3)
F10_2 F 0.0521(6) 0.43161(18) 0.0712(2)
C21_2 C 0.1859(9) 0.3582(3) 0.0153(3)
C22_2 C 0.0909(10) 0.3239(3) 0.0427(3)
C23_2 C 0.1795(10) 0.2917(3) 0.0777(3)
C24_2 C 0.3706(10) 0.2921(3) 0.0831(3)
C25_2 C 0.4628(10) 0.3265(3) 0.0539(3)
H12_2 H 0.5889 0.3274 0.0564
C26_2 C 0.3745(10) 0.3592(3) 0.0215(3)
H13_2 H 0.4408 0.3821 0.0035
C27_2 C 0.0666(11) 0.2577(3) 0.1086(4)
C28_2 C 0.4777(10) 0.2583(3) 0.1186(4)
O19 O 0.0562(7) 0.17567(18) 0.2448(2)
O20 O 0.0068(7) 0.1335(2) 0.1682(3)
O13_2 O 0.1139(7) 0.25499(18) 0.8327(2)
F7_2 F 0.2924(6) 0.45407(15) 0.9846(2)
F8_2 F 0.3022(6) 0.40730(16) 0.9139(2)
F9_2 F 0.0919(6) 0.45779(15) 0.9173(2)
C20_2 C 0.0702(9) 0.3938(3) 0.9807(3)
C30_2 C 0.0053(10) 0.3296(3) 0.9104(3)
H14_2 H 0.1171 0.3170 0.9209
C37_2 C 0.1891(9) 0.4287(3) 0.9492(3)
Nd9 Nd 0.28631(5) 0.262176(14) 0.742952(18)
O1_2 O 0.6511(9) 0.1269(2) 0.1988(4)
O2_2 O 0.4064(7) 0.16983(18) 0.1923(2)
O10_2 O 0.8951(8) 0.2584(2) 0.1007(3)
O17_2 O 0.7980(15) 0.1586(4) 0.0799(4)
O18_2 O 0.4838(9) 0.2950(2) 0.2925(3)
H3_2 H 0.6048 0.2903 0.2920
H4_2 H 0.4815 0.3181 0.3165
F3_2 F 0.6209(9) 0.02247(19) 0.3606(3)
F11_2 F 0.8847(6) 0.45998(15) 0.0047(2)
F12_2 F 0.8154(6) 0.39522(16) 0.0422(2)
C2_2 C 0.3747(10) 0.0187(3) 0.2729(4)
C3_2 C 0.4650(10) 0.0547(3) 0.2477(4)
H5_2 H 0.5888 0.0517 0.2414
C4_2 C 0.3796(10) 0.0951(3) 0.2313(4)
C5_2 C 0.1913(9) 0.0998(3) 0.2397(3)
C6_2 C 0.1001(10) 0.0649(3) 0.2682(4)
C7_2 C 0.1910(10) 0.0247(3) 0.2853(4)
H7_2 H 0.1291 0.0020 0.3050
C8_2 C 0.4858(11) 0.1326(3) 0.2053(4)
C9_2 C 0.0816(10) 0.1387(3) 0.2148(4)
H11_2 H 0.9655 0.3222 0.0378
C38_2 C 0.9562(10) 0.4206(3) 0.0247(3)
O27_2 O 0.1139(7) 0.24501(18) 0.3327(2)
O28_2 O 0.6646(7) 0.2124(2) 0.2656(3)
O29_2 O 0.4366(7) 0.1931(2) 0.3194(3)
H17_2 H 0.672521 0.149942 0.0680495
H18_2 H 0.85269 0.178144 0.050016
O14_2 O 0.8404(7) 0.22831(19) 0.8533(3)
H2_2 H 0.8968 0.2054 0.8436
O15_2 O 0.6646(7) 0.2876(2) 0.7656(3)
O16_2 O 0.4366(7) 0.3069(2) 0.8194(3)
C29_2 C 0.9488(9) 0.3699(3) 0.9353(3)
C31_2 C 0.8977(10) 0.3073(3) 0.8698(3)
C32_2 C 0.7291(9) 0.3266(3) 0.8535(3)
C33_2 C 0.6779(10) 0.3680(3) 0.8768(3)
H15_2 H 0.5689 0.3814 0.8651
C34_2 C 0.7855(10) 0.3902(3) 0.9174(3)
H16_2 H 0.7493 0.4183 0.9326
C35_2 C 0.9583(11) 0.2614(3) 0.8490(3)
C36_2 C 0.6031(9) 0.3055(3) 0.8101(3)
Nd6_2 Nd 0.78954(5) 0.297291(14) 0.672078(18)
F1_2 F 0.3950(9) 0.98268(19) 0.3909(2)
F2_2 F 0.6506(8) 0.95043(19) 0.3738(3)
F4_2 F 0.7782(6) 0.99121(18) 0.2653(4)
F5_2 F 0.5919(7) 0.96573(18) 0.2007(3)
F6_2 F 0.6967(7) 0.92012(18) 0.2658(3)
C1_2 C 0.4683(10) 0.9738(3) 0.2933(4)
C10_2 C 0.3457(10) 0.9315(3) 0.2882(4)
C11_2 C 0.2343(10) 0.9264(3) 0.2398(4)
H8_2 H 0.2315 0.9498 0.2127
C12_2 C 0.1269(10) 0.8873(3) 0.2309(4)
C13_2 C 0.1285(10) 0.8528(3) 0.2723(4)
C14_2 C 0.2385(10) 0.8573(3) 0.3205(4)
H9_2 H 0.2410 0.8340 0.3477
C15_2 C 0.3456(10) 0.8966(3) 0.3283(4)
H10_2 H 0.4179 0.8993 0.3610
C16_2 C 0.0179(11) 0.8857(3) 0.1775(4)
C17_2 C 0.0081(11) 0.8112(3) 0.2700(4)
C18_2 C 0.5327(14) 0.9820(3) 0.3559(5)
C19_2 C 0.6352(12) 0.9622(3) 0.2567(5)
H6_2 H 0.9774 0.0683 0.2759
O5_2 O 0.9936(9) 0.8477(2) 0.1511(3)
O6_2 O 0.9593(10) 0.9230(2) 0.1574(3)
H1_2 H 0.9289 0.9234 0.1202
O9_2 O 0.1393(7) 0.26987(18) 0.6441(2)
O11_2 O 0.5040(8) 0.23488(19) 0.6716(3)
O12_2 O 0.5526(8) 0.2747(2) 0.5931(3)
F7_3 F 0.2924(6) 0.04593(15) 0.4846(2)
F8_3 F 0.3022(6) 0.09270(16) 0.4139(2)
F9_3 F 0.0919(6) 0.04221(15) 0.4173(2)
F10_3 F 0.0521(6) 0.06839(18) 0.5712(2)
C20_3 C 0.0702(9) 0.1062(3) 0.4807(3)
C21_3 C 0.1859(9) 0.1418(3) 0.5153(3)
C22_3 C 0.0909(10) 0.1761(3) 0.5427(3)
C23_3 C 0.1795(10) 0.2083(3) 0.5777(3)
C24_3 C 0.3706(10) 0.2079(3) 0.5831(3)
C25_3 C 0.4628(10) 0.1735(3) 0.5539(3)
H12_3 H 0.5889 0.1726 0.5564
C26_3 C 0.3745(10) 0.1408(3) 0.5215(3)
H13_3 H 0.4408 0.1179 0.5035
C27_3 C 0.0666(11) 0.2423(3) 0.6086(4)
C28_3 C 0.4777(10) 0.2417(3) 0.6186(4)
C30_3 C 0.0053(10) 0.1704(3) 0.4104(3)
H14_3 H 0.1171 0.1830 0.4209
C37_3 C 0.1891(9) 0.0713(3) 0.4492(3)
O19_2 O 0.0562(7) 0.32433(18) 0.7448(2)
O20_2 O 0.0068(7) 0.3665(2) 0.6682(3)
O1_3 O 0.6511(9) 0.3731(2) 0.6988(4)
O2_3 O 0.4064(7) 0.33017(18) 0.6923(2)
O7_2 O 0.0793(8) 0.72819(19) 0.7774(3)
O10_3 O 0.8951(8) 0.2416(2) 0.6007(3)
O14_3 O 0.8404(7) 0.27169(19) 0.3533(3)
H2_3 H 0.8968 0.2946 0.3436
O17_3 O 0.7980(15) 0.3414(4) 0.5799(4)
O18_3 O 0.4838(9) 0.2050(2) 0.7925(3)
H3_3 H 0.6048 0.2097 0.7920
H4_3 H 0.4815 0.1819 0.8165
F1_3 F 0.3950(9) 0.51732(19) 0.8909(2)
F2_3 F 0.6506(8) 0.54957(19) 0.8738(3)
F3_3 F 0.6209(9) 0.47753(19) 0.8606(3)
F4_3 F 0.7782(6) 0.50879(18) 0.7653(4)
F5_3 F 0.5919(7) 0.53427(18) 0.7007(3)
F6_3 F 0.6967(7) 0.57988(18) 0.7658(3)
F11_3 F 0.8847(6) 0.04002(15) 0.5047(2)
F12_3 F 0.8154(6) 0.10478(16) 0.5422(2)
C1_3 C 0.4683(10) 0.5262(3) 0.7933(4)
C2_3 C 0.3747(10) 0.4813(3) 0.7729(4)
C3_3 C 0.4650(10) 0.4453(3) 0.7477(4)
H5_3 H 0.5888 0.4483 0.7414
C4_3 C 0.3796(10) 0.4049(3) 0.7313(4)
C5_3 C 0.1913(9) 0.4002(3) 0.7397(3)
C6_3 C 0.1001(10) 0.4351(3) 0.7682(4)
C7_3 C 0.1910(10) 0.4753(3) 0.7853(4)
H7_3 H 0.1291 0.4980 0.8050
C8_3 C 0.4858(11) 0.3674(3) 0.7053(4)
C9_3 C 0.0816(10) 0.3613(3) 0.7148(4)
C10_3 C 0.3457(10) 0.5685(3) 0.7882(4)
C11_3 C 0.2343(10) 0.5736(3) 0.7398(4)
H8_3 H 0.2315 0.5502 0.7127
C12_3 C 0.1269(10) 0.6127(3) 0.7309(4)
C13_3 C 0.1285(10) 0.6472(3) 0.7723(4)
C14_3 C 0.2385(10) 0.6427(3) 0.8205(4)
H9_3 H 0.2410 0.6660 0.8477
C15_3 C 0.3456(10) 0.6034(3) 0.8283(4)
H10_3 H 0.4179 0.6007 0.8610
C16_3 C 0.0179(11) 0.6143(3) 0.6775(4)
C17_3 C 0.0081(11) 0.6888(3) 0.7700(4)
C18_3 C 0.5327(14) 0.5180(3) 0.8559(5)
C19_3 C 0.6352(12) 0.5378(3) 0.7567(5)
H11_3 H 0.9655 0.1778 0.5378
C29_3 C 0.9488(9) 0.1301(3) 0.4353(3)
C31_3 C 0.8977(10) 0.1927(3) 0.3698(3)
C32_3 C 0.7291(9) 0.1734(3) 0.3535(3)
C33_3 C 0.6779(10) 0.1320(3) 0.3768(3)
H15_3 H 0.5689 0.1186 0.3651
C34_3 C 0.7855(10) 0.1098(3) 0.4174(3)
H16_3 H 0.7493 0.0817 0.4326
C35_3 C 0.9583(11) 0.2386(3) 0.3490(3)
C36_3 C 0.6031(9) 0.1945(3) 0.3101(3)
C38_3 C 0.9562(10) 0.0794(3) 0.5247(3)
O21 O 0.9207(8) 0.22819(19) 0.7226(3)
O23_2 O 0.1597(8) 0.1844(2) 0.7361(3)
H17_3 H 0.672521 0.350058 0.56805
H18_3 H 0.85269 0.321856 0.550016
O5_3 O 0.9936(9) 0.6523(2) 0.6511(3)
O6_3 O 0.9593(10) 0.5770(2) 0.6574(3)
H1_3 H 0.9289 0.5766 0.6202
O8_2 O 0.8403(8) 0.6844(2) 0.7639(3)
H6_3 H 0.9774 0.4317 0.7759
O5_4 O 0.0064(9) 0.1523(2) 0.8489(3)
O6_4 O 0.0407(10) 0.0770(2) 0.8426(3)
H1_4 H 0.0711 0.0766 0.8798
H6_4 H 0.0226 0.9317 0.7241
F1_4 F 0.6050(9) 0.01732(19) 0.6091(2)
F2_4 F 0.3494(8) 0.04957(19) 0.6262(3)
F4_4 F 0.2218(6) 0.00879(18) 0.7347(4)
F5_4 F 0.4081(7) 0.03427(18) 0.7993(3)
F6_4 F 0.3033(7) 0.07988(18) 0.7342(3)
C1_4 C 0.5317(10) 0.0262(3) 0.7067(4)
C10_4 C 0.6543(10) 0.0685(3) 0.7118(4)
C11_4 C 0.7657(10) 0.0736(3) 0.7602(4)
H8_4 H 0.7685 0.0502 0.7873
C12_4 C 0.8731(10) 0.1127(3) 0.7691(4)
C13_4 C 0.8715(10) 0.1472(3) 0.7277(4)
C14_4 C 0.7615(10) 0.1427(3) 0.6795(4)
H9_4 H 0.7590 0.1660 0.6523
C15_4 C 0.6544(10) 0.1034(3) 0.6717(4)
H10_4 H 0.5821 0.1007 0.6390
C16_4 C 0.9821(11) 0.1143(3) 0.8225(4)
C17_4 C 0.9919(11) 0.1888(3) 0.7300(4)
C18_4 C 0.4673(14) 0.0180(3) 0.6441(5)
C19_4 C 0.3648(12) 0.0378(3) 0.7433(5)
O14_4 O 0.1596(7) 0.77169(19) 0.1467(3)
H2_4 H 0.1032 0.7946 0.1564
C29_4 C 0.0512(9) 0.6301(3) 0.0647(3)
C31_4 C 0.1023(10) 0.6927(3) 0.1302(3)
C32_4 C 0.2709(9) 0.6734(3) 0.1465(3)
C33_4 C 0.3221(10) 0.6320(3) 0.1232(3)
H15_4 H 0.4311 0.6186 0.1349
C34_4 C 0.2145(10) 0.6098(3) 0.0826(3)
H16_4 H 0.2507 0.5817 0.0674
C35_4 C 0.0417(11) 0.7386(3) 0.1510(3)
C36_4 C 0.3969(9) 0.6945(3) 0.1899(3)
O1_4 O 0.3489(9) 0.8731(2) 0.8012(4)
O2_4 O 0.5936(7) 0.83017(18) 0.8077(2)
O3_2 O 0.9438(7) 0.82433(18) 0.7552(2)
O4_2 O 0.9932(7) 0.8665(2) 0.8318(3)
O10_4 O 0.1049(8) 0.7416(2) 0.8993(3)
O17_4 O 0.2020(15) 0.8414(4) 0.9201(4)
O18_4 O 0.5162(9) 0.7050(2) 0.7075(3)
H3_4 H 0.3952 0.7097 0.7080
H4_4 H 0.5185 0.6819 0.6835
F3_4 F 0.3791(9) 0.97753(19) 0.6394(3)
F11_4 F 0.1153(6) 0.54002(15) 0.9953(2)
F12_4 F 0.1846(6) 0.60478(16) 0.9578(2)
C2_4 C 0.6253(10) 0.9813(3) 0.7271(4)
C3_4 C 0.5350(10) 0.9453(3) 0.7523(4)
H5_4 H 0.4112 0.9483 0.7586
C4_4 C 0.6204(10) 0.9049(3) 0.7687(4)
C5_4 C 0.8087(9) 0.9002(3) 0.7603(3)
C6_4 C 0.8999(10) 0.9351(3) 0.7318(4)
C7_4 C 0.8090(10) 0.9753(3) 0.7147(4)
H7_4 H 0.8709 0.9980 0.6950
C8_4 C 0.5142(11) 0.8674(3) 0.7947(4)
C9_4 C 0.9184(10) 0.8613(3) 0.7852(4)
H11_4 H 0.0345 0.6778 0.9622
C38_4 C 0.0438(10) 0.5794(3) 0.9753(3)
O24_2 O 0.8607(7) 0.76987(18) 0.8559(2)
O25_2 O 0.4960(8) 0.73488(19) 0.8284(3)
O26_2 O 0.4474(8) 0.7747(2) 0.9069(3)
H17_4 H 0.327479 0.850058 0.93195
H18_4 H 0.14731 0.821856 0.949984
F7_4 F 0.7076(6) 0.54593(15) 0.0154(2)
F8_4 F 0.6978(6) 0.59270(16) 0.0861(2)
F9_4 F 0.9081(6) 0.54221(15) 0.0827(2)
C20_4 C 0.9298(9) 0.6062(3) 0.0193(3)
C30_4 C 0.9947(10) 0.6704(3) 0.0896(3)
H14_4 H 0.8829 0.6830 0.0791
C37_4 C 0.8109(9) 0.5713(3) 0.0508(3)
F10_4 F 0.9479(6) 0.56839(18) 0.9288(2)
C21_4 C 0.8141(9) 0.6418(3) 0.9847(3)
C22_4 C 0.9091(10) 0.6761(3) 0.9573(3)
C23_4 C 0.8205(10) 0.7083(3) 0.9223(3)
C24_4 C 0.6294(10) 0.7079(3) 0.9169(3)
C25_4 C 0.5372(10) 0.6735(3) 0.9461(3)
H12_4 H 0.4111 0.6726 0.9436
C26_4 C 0.6255(10) 0.6408(3) 0.9785(3)
H13_4 H 0.5592 0.6179 0.9965
C27_4 C 0.9334(11) 0.7423(3) 0.8914(4)
C28_4 C 0.5223(10) 0.7417(3) 0.8814(4)
loop_
_geom_bond_atom_site_label_1
_geom_bond_atom_site_label_2
_geom_bond_site_symmetry_1
_geom_bond_site_symmetry_2
O6 H1 1_555 1_555
O8 Nd8 1_555 1_555
Nd4 O22 1_555 1_555
Nd4 O1 1_555 1_555
Nd2 O2 1_555 1_555
O1 C8 1_555 1_555
O2 C8 1_555 1_555
O3 Nd2 1_555 1_555
O4 C9 1_555 1_555
O7 C17 1_555 1_555
O10 Nd4 1_555 1_555
O14 H2 1_555 1_555
O15 C36 1_555 1_555
O16 C36 1_555 1_555
O17 Nd4 1_555 1_555
O18 Nd2 1_555 1_555
H3 O18 1_555 1_555
H4 O18 1_555 1_555
F1 C18 1_555 1_555
F2 C18 1_555 1_555
F3 C18 1_555 1_555
F4 C19 1_555 1_555
F5 C19 1_555 1_555
F6 C19 1_555 1_555
F11 C38 1_555 1_555
F12 C38 1_555 1_555
C1 C2 1_555 1_555
C2 C3 1_555 1_555
C3 H5 1_555 1_555
C4 C3 1_555 1_555
C5 C4 1_555 1_555
C6 C5 1_555 1_555
C7 C2 1_555 1_555
H7 C7 1_555 1_555
C8 C4 1_555 1_555
C9 O3 1_555 1_555
C10 C1 1_555 1_555
C11 C10 1_555 1_555
H8 C11 1_555 1_555
C12 C11 1_555 1_555
C13 C12 1_555 1_555
C14 C13 1_555 1_555
H9 C14 1_555 1_555
C15 C10 1_555 1_555
H10 C15 1_555 1_555
C17 C13 1_555 1_555
C18 C1 1_555 1_555
C19 C1 1_555 1_555
C32 C31 1_555 1_555
C33 C32 1_555 1_555
H15 C33 1_555 1_555
C34 C29 1_555 1_555
H16 C34 1_555 1_555
C35 O14 1_555 1_555
C36 C32 1_555 1_555
Nd5 O7 1_555 1_555
Nd6 O15 1_555 1_555
Nd10 O15 1_555 1_555
O23 Nd2 1_555 1_555
O24 Nd2 1_555 1_555
O25 Nd4 1_555 1_555
O26 Nd4 1_555 1_555
O27 Nd2 1_555 1_555
O28 Nd4 1_555 1_555
O29 Nd2 1_555 1_555
Nd2 O25 1_555 1_555
Nd2 O28 1_555 1_555
O16 Nd10 1_555 1_555
C5 C9 1_555 1_555
C6 C7 1_555 1_555
C12 C16 1_555 1_555
C14 C15 1_555 1_555
C31 C35 1_555 1_555
C33 C34 1_555 1_555
O17 H17 1_555 1_555
O17 H18 1_555 1_555
O25 C28 1_555 1_555
O26 C28 1_555 1_555
F7 C37 1_555 1_555
F8 C37 1_555 1_555
F9 C37 1_555 1_555
C20 C21 1_555 1_555
C21 C22 1_555 1_555
C23 C22 1_555 1_555
C24 C23 1_555 1_555
C25 C24 1_555 1_555
H12 C25 1_555 1_555
C26 C21 1_555 1_555
H13 C26 1_555 1_555
C27 O24 1_555 1_555
C28 C24 1_555 1_555
H14 C30 1_555 1_555
C37 C20 1_555 1_555
Nd10 O13 1_555 1_555
C23 C27 1_555 1_555
C25 C26 1_555 1_555
O11 C28_2 1_555 1_555
O12 C28_2 1_555 1_555
C21_2 C22_2 1_555 1_555
C23_2 C22_2 1_555 1_555
C24_2 C23_2 1_555 1_555
C25_2 C24_2 1_555 1_555
H12_2 C25_2 1_555 1_555
C26_2 C21_2 1_555 1_555
H13_2 C26_2 1_555 1_555
C27_2 O9 1_555 1_555
C28_2 C24_2 1_555 1_555
Nd5 O11 1_555 1_555
Nd8 O9 1_555 1_555
O11 Nd8 1_555 1_555
O12 Nd5 1_555 1_555
C23_2 C27_2 1_555 1_555
C25_2 C26_2 1_555 1_555
Nd8 O19 1_555 1_555
F7_2 C37_2 1_555 1_555
F8_2 C37_2 1_555 1_555
F9_2 C37_2 1_555 1_555
H14_2 C30_2 1_555 1_555
C37_2 C20_2 1_555 1_555
Nd9 O13_2 1_555 1_555
Nd5 O1_2 1_555 1_555
Nd8 O2_2 1_555 1_555
O1_2 C8_2 1_555 1_555
O2_2 C8_2 1_555 1_555
O20 C9_2 1_555 1_555
O10_2 Nd5 1_555 1_555
O17_2 Nd5 1_555 1_555
O18_2 Nd8 1_555 1_555
H3_2 O18_2 1_555 1_555
H4_2 O18_2 1_555 1_555
F11_2 C38_2 1_555 1_555
F12_2 C38_2 1_555 1_555
C2_2 C3_2 1_555 1_555
C3_2 H5_2 1_555 1_555
C4_2 C3_2 1_555 1_555
C5_2 C4_2 1_555 1_555
C6_2 C5_2 1_555 1_555
C7_2 C2_2 1_555 1_555
H7_2 C7_2 1_555 1_555
C8_2 C4_2 1_555 1_555
C9_2 O19 1_555 1_555
O27_2 Nd8 1_555 1_555
O28_2 Nd5 1_555 1_555
O29_2 Nd8 1_555 1_555
Nd8 O28_2 1_555 1_555
C5_2 C9_2 1_555 1_555
C6_2 C7_2 1_555 1_555
O17_2 H17_2 1_555 1_555
O17_2 H18_2 1_555 1_555
O14_2 H2_2 1_555 1_555
O15_2 C36_2 1_555 1_555
O16_2 C36_2 1_555 1_555
C32_2 C31_2 1_555 1_555
C33_2 C32_2 1_555 1_555
H15_2 C33_2 1_555 1_555
C34_2 C29_2 1_555 1_555
H16_2 C34_2 1_555 1_555
C35_2 O14_2 1_555 1_555
C36_2 C32_2 1_555 1_555
Nd6_2 O15_2 1_555 1_555
Nd9 O15_2 1_555 1_555
O16_2 Nd9 1_555 1_555
C31_2 C35_2 1_555 1_555
C33_2 C34_2 1_555 1_555
O22 C17_2 1_555 1_555
F1_2 C18_2 1_555 1_555
F2_2 C18_2 1_555 1_555
F4_2 C19_2 1_555 1_555
F5_2 C19_2 1_555 1_555
F6_2 C19_2 1_555 1_555
C10_2 C1_2 1_555 1_555
C11_2 C10_2 1_555 1_555
H8_2 C11_2 1_555 1_555
C12_2 C11_2 1_555 1_555
C13_2 C12_2 1_555 1_555
C14_2 C13_2 1_555 1_555
H9_2 C14_2 1_555 1_555
C15_2 C10_2 1_555 1_555
H10_2 C15_2 1_555 1_555
C17_2 C13_2 1_555 1_555
C18_2 C1_2 1_555 1_555
C19_2 C1_2 1_555 1_555
C12_2 C16_2 1_555 1_555
C14_2 C15_2 1_555 1_555
O6_2 H1_2 1_555 1_555
O11_2 C28_3 1_555 1_555
O12_2 C28_3 1_555 1_555
F7_3 C37_3 1_555 1_555
F8_3 C37_3 1_555 1_555
F9_3 C37_3 1_555 1_555
C20_3 C21_3 1_555 1_555
C21_3 C22_3 1_555 1_555
C23_3 C22_3 1_555 1_555
C24_3 C23_3 1_555 1_555
C25_3 C24_3 1_555 1_555
H12_3 C25_3 1_555 1_555
C26_3 C21_3 1_555 1_555
H13_3 C26_3 1_555 1_555
C27_3 O9_2 1_555 1_555
C28_3 C24_3 1_555 1_555
H14_3 C30_3 1_555 1_555
C37_3 C20_3 1_555 1_555
Nd6_2 O11_2 1_555 1_555
Nd9 O9_2 1_555 1_555
O11_2 Nd9 1_555 1_555
O12_2 Nd6_2 1_555 1_555
C23_3 C27_3 1_555 1_555
C25_3 C26_3 1_555 1_555
Nd9 O19_2 1_555 1_555
Nd6_2 O1_3 1_555 1_555
Nd9 O2_3 1_555 1_555
O1_3 C8_3 1_555 1_555
O2_3 C8_3 1_555 1_555
O20_2 C9_3 1_555 1_555
O7_2 C17_3 1_555 1_555
O10_3 Nd6_2 1_555 1_555
O14_3 H2_3 1_555 1_555
O28_2 C36_3 1_555 1_555
O29_2 C36_3 1_555 1_555
O17_3 Nd6_2 1_555 1_555
O18_3 Nd9 1_555 1_555
H3_3 O18_3 1_555 1_555
H4_3 O18_3 1_555 1_555
F1_3 C18_3 1_555 1_555
F2_3 C18_3 1_555 1_555
F3_3 C18_3 1_555 1_555
F4_3 C19_3 1_555 1_555
F5_3 C19_3 1_555 1_555
F6_3 C19_3 1_555 1_555
F11_3 C38_3 1_555 1_555
F12_3 C38_3 1_555 1_555
C1_3 C2_3 1_555 1_555
C2_3 C3_3 1_555 1_555
C3_3 H5_3 1_555 1_555
C4_3 C3_3 1_555 1_555
C5_3 C4_3 1_555 1_555
C6_3 C5_3 1_555 1_555
C7_3 C2_3 1_555 1_555
H7_3 C7_3 1_555 1_555
C8_3 C4_3 1_555 1_555
C9_3 O19_2 1_555 1_555
C10_3 C1_3 1_555 1_555
C11_3 C10_3 1_555 1_555
H8_3 C11_3 1_555 1_555
C12_3 C11_3 1_555 1_555
C13_3 C12_3 1_555 1_555
C14_3 C13_3 1_555 1_555
H9_3 C14_3 1_555 1_555
C15_3 C10_3 1_555 1_555
H10_3 C15_3 1_555 1_555
C17_3 C13_3 1_555 1_555
C18_3 C1_3 1_555 1_555
C19_3 C1_3 1_555 1_555
C32_3 C31_3 1_555 1_555
C33_3 C32_3 1_555 1_555
H15_3 C33_3 1_555 1_555
C34_3 C29_3 1_555 1_555
H16_3 C34_3 1_555 1_555
C35_3 O14_3 1_555 1_555
C36_3 C32_3 1_555 1_555
Nd6 O7_2 1_555 1_555
O21 Nd6_2 1_555 1_555
O23_2 Nd9 1_555 1_555
C5_3 C9_3 1_555 1_555
C6_3 C7_3 1_555 1_555
C12_3 C16_3 1_555 1_555
C14_3 C15_3 1_555 1_555
C31_3 C35_3 1_555 1_555
C33_3 C34_3 1_555 1_555
O17_3 H17_3 1_555 1_555
O17_3 H18_3 1_555 1_555
O6_3 H1_3 1_555 1_555
O8_2 Nd10 1_555 1_555
O6_4 H1_4 1_555 1_555
O21 C17_4 1_555 1_555
F1_4 C18_4 1_555 1_555
F2_4 C18_4 1_555 1_555
F4_4 C19_4 1_555 1_555
F5_4 C19_4 1_555 1_555
F6_4 C19_4 1_555 1_555
C10_4 C1_4 1_555 1_555
C11_4 C10_4 1_555 1_555
H8_4 C11_4 1_555 1_555
C12_4 C11_4 1_555 1_555
C13_4 C12_4 1_555 1_555
C14_4 C13_4 1_555 1_555
H9_4 C14_4 1_555 1_555
C15_4 C10_4 1_555 1_555
H10_4 C15_4 1_555 1_555
C17_4 C13_4 1_555 1_555
C18_4 C1_4 1_555 1_555
C19_4 C1_4 1_555 1_555
C12_4 C16_4 1_555 1_555
C14_4 C15_4 1_555 1_555
O14_4 H2_4 1_555 1_555
O28 C36_4 1_555 1_555
O29 C36_4 1_555 1_555
C32_4 C31_4 1_555 1_555
C33_4 C32_4 1_555 1_555
H15_4 C33_4 1_555 1_555
C34_4 C29_4 1_555 1_555
H16_4 C34_4 1_555 1_555
C35_4 O14_4 1_555 1_555
C36_4 C32_4 1_555 1_555
C31_4 C35_4 1_555 1_555
C33_4 C34_4 1_555 1_555
Nd6 O1_4 1_555 1_555
Nd10 O2_4 1_555 1_555
O1_4 C8_4 1_555 1_555
O2_4 C8_4 1_555 1_555
O3_2 Nd10 1_555 1_555
O4_2 C9_4 1_555 1_555
O10_4 Nd6 1_555 1_555
O17_4 Nd6 1_555 1_555
O18_4 Nd10 1_555 1_555
H3_4 O18_4 1_555 1_555
H4_4 O18_4 1_555 1_555
F11_4 C38_4 1_555 1_555
F12_4 C38_4 1_555 1_555
C2_4 C3_4 1_555 1_555
C3_4 H5_4 1_555 1_555
C4_4 C3_4 1_555 1_555
C5_4 C4_4 1_555 1_555
C6_4 C5_4 1_555 1_555
C7_4 C2_4 1_555 1_555
H7_4 C7_4 1_555 1_555
C8_4 C4_4 1_555 1_555
C9_4 O3_2 1_555 1_555
O24_2 Nd10 1_555 1_555
O25_2 Nd6 1_555 1_555
O26_2 Nd6 1_555 1_555
Nd10 O25_2 1_555 1_555
C5_4 C9_4 1_555 1_555
C6_4 C7_4 1_555 1_555
O17_4 H17_4 1_555 1_555
O17_4 H18_4 1_555 1_555
F7_4 C37_4 1_555 1_555
F8_4 C37_4 1_555 1_555
F9_4 C37_4 1_555 1_555
H14_4 C30_4 1_555 1_555
C37_4 C20_4 1_555 1_555
O25_2 C28_4 1_555 1_555
O26_2 C28_4 1_555 1_555
C21_4 C22_4 1_555 1_555
C23_4 C22_4 1_555 1_555
C24_4 C23_4 1_555 1_555
C25_4 C24_4 1_555 1_555
H12_4 C25_4 1_555 1_555
C26_4 C21_4 1_555 1_555
H13_4 C26_4 1_555 1_555
C27_4 O24_2 1_555 1_555
C28_4 C24_4 1_555 1_555
C23_4 C27_4 1_555 1_555
C25_4 C26_4 1_555 1_555

#END
