
###############################################################################
#
# This file contains modified crystal structure data generated from the
# MOF subset of the Cambridge Structural Database (CSD) v543 
# hosted by the Cambridge Crystallographic Data Centre (CCDC).
#
# This work is licensed under the Creative Commons
# Attribution-NonCommercial-ShareAlike 4.0 International License.
# To view a copy of this license, visit
# http://creativecommons.org/licenses/by-nc-sa/4.0/
# or send a letter to
# Creative Commons, PO Box 1866, Mountain View, CA 94042, USA.
#
# CIF created using the CSD Python API on 29 September 2022
# The structure has been converted into the P1 space group
# The structure has a 3D framework
# The original CSD entry KIPKAX is in the triclinic crystal system
# The framework has been calculated to contain at least 10.0% void space
# The void calculation uses a probe of radius 1.32A, grid spacing 0.4
# H atom positions have been added when not included in the experimental data
#
###############################################################################

data_KIPKAX
_chemical_formula_moiety         '(C114 H72 F36 O64 Yb8)n'
_symmetry_cell_setting           triclinic
_symmetry_space_group_name_H-M   'P 1'
_symmetry_Int_Tables_number      1
_space_group_name_Hall           'P 1'
loop_
_symmetry_equiv_pos_site_id
_symmetry_equiv_pos_as_xyz
1 x,y,z
_cell_length_a                   8.0659(4)
_cell_length_b                   21.2621(14)
_cell_length_c                   22.7182(16)
_cell_angle_alpha                82.919(3)
_cell_angle_beta                 82.369(4)
_cell_angle_gamma                80.025(4)
_cell_volume                     3783.13
loop_
_atom_site_label
_atom_site_type_symbol
_atom_site_fract_x
_atom_site_fract_y
_atom_site_fract_z
O13 O 0.1429(5) 0.6072(2) 0.62142(19)
O14 O 0.3727(5) 0.6026(2) 0.55347(19)
O15 O 0.2531(5) 0.5775(2) 0.39764(19)
O16 O 0.1761(5) 0.5384(2) 0.4900(2)
O32 O 0.0307(5) 0.9342(2) 0.9305(2)
F12 F 0.0277(5) 0.85423(19) 0.57406(18)
C30 C 0.0189(8) 0.7204(3) 0.5456(3)
H26 H 0.0224 0.7296 0.5844
C31 C 0.1135(8) 0.6643(3) 0.5264(3)
C32 C 0.1101(8) 0.6498(3) 0.4683(3)
C33 C 0.0187(8) 0.6944(3) 0.4290(3)
H27 H 0.0206 0.6862 0.3896
C35 C 0.2197(8) 0.6211(3) 0.5693(3)
C36 C 0.1835(8) 0.5856(3) 0.4502(3)
Yb5 Yb 0.19759(3) 0.577091(14) 0.715586(13)
Yb6 Yb 0.61286(3) 0.529181(13) 0.566948(12)
Yb8 Yb 0.38714(3) 0.470819(13) 0.433052(12)
H35 H 0.0260004 0.98119 0.930413
H36 H 0.112378 0.91098 0.957911
Yb13 Yb 0.23953(4) 0.092794(14) 0.037100(13)
O19 O 0.3898(5) 0.0781(2) 0.9409(2)
O20 O 0.1639(6) 0.0309(2) 0.9659(2)
O33 O 0.7195(6) 0.0125(2) 0.9193(2)
H15 H 0.6157 0.0144 0.9150
H16 H 0.7255 0.0527 0.9203
F13 F 0.3768(5) 0.03591(19) 0.64811(18)
F16 F 0.0447(5) 0.07372(19) 0.65029(18)
C43 C 0.2850(9) 0.0283(3) 0.8656(3)
C44 C 0.1928(9) 0.0735(3) 0.8264(3)
H30 H 0.1526 0.1147 0.8372
C45 C 0.1614(9) 0.0578(3) 0.7726(3)
H31 H 0.1034 0.0887 0.7468
C47 C 0.2840(8) 0.0462(3) 0.9271(3)
C57 C 0.0159(9) 0.0143(3) 0.6739(3)
O5 O 0.3511(6) 0.1907(2) 0.02381(19)
Yb10 Yb 0.46276(4) 0.246926(14) 0.096095(13)
O37 O 0.4790(6) 0.7402(3) 0.0102(2)
O38 O 0.9421(6) 0.8328(2) 0.0109(2)
O43 O 0.6102(5) 0.9219(2) 0.0591(2)
O44 O 0.8361(6) 0.9691(2) 0.0341(2)
Yb3 Yb 0.53724(4) 0.753074(14) 0.903905(13)
Yb4 Yb 0.76047(4) 0.907206(14) 0.962900(13)
O1 O 0.2067(6) 0.4683(2) 0.7060(2)
O2 O 0.4319(5) 0.4999(2) 0.65634(19)
O3 O 0.4377(5) 0.4629(2) 0.54220(19)
O4 O 0.3075(5) 0.3930(2) 0.51097(19)
O6 O 0.5210(6) 0.2598(3) 0.9898(2)
O7 O 0.0579(6) 0.1672(2) 0.9891(2)
O9 O 0.3859(5) 0.6449(2) 0.68565(19)
O10 O 0.6204(5) 0.6028(2) 0.6300(2)
O11 O 0.5014(6) 0.7308(2) 0.8140(2)
O12 O 0.6267(5) 0.6398(2) 0.7756(2)
O17 O 0.4426(6) 0.8585(2) 0.8782(2)
O18 O 0.4931(6) 0.9325(2) 0.9333(2)
O23 O 0.0700(6) 0.6683(2) 0.7526(2)
O24 O 0.0821(6) 0.7013(2) 0.8416(2)
O25 O 0.4147(6) 0.5509(2) 0.7778(2)
H1 H 0.4840 0.5847 0.7803
H2 H 0.4952 0.5231 0.7708
O26 O 0.0987(6) 0.5311(2) 0.8127(2)
H4 H 0.1187 0.5611 0.8350
O28 O 0.8968(5) 0.5375(2) 0.5840(2)
H7 H 0.8925 0.5715 0.6073
H8 H 0.9492 0.5326 0.5527
O29 O 0.2487(6) 0.7590(3) 0.9150(2)
H9 H 0.1816 0.7473 0.9475
H10 H 0.2191 0.7397 0.8889
O30 O 0.7869(6) 0.6860(2) 0.9217(2)
H11 H 0.8874 0.7012 0.9114
H12 H 0.8069 0.6559 0.9488
O31 O 0.4903(7) 0.6459(3) 0.9291(3)
H13 H 0.5678 0.6114 0.9410
H14 H 0.4125 0.6246 0.9295
F1 F 0.8392(5) 0.2525(3) 0.7134(2)
F2 F 0.8237(5) 0.2005(2) 0.80116(19)
F3 F 0.7274(5) 0.3016(2) 0.78963(19)
F4 F 0.7137(6) 0.1444(2) 0.70323(19)
F5 F 0.4442(6) 0.1477(2) 0.72613(19)
F6 F 0.6129(6) 0.1216(2) 0.7940(2)
F7 F 0.5681(5) 0.80303(19) 0.48921(18)
F8 F 0.5376(5) 0.8901(2) 0.53100(19)
F9 F 0.6980(5) 0.8797(2) 0.44788(18)
F10 F 0.9924(5) 0.8867(2) 0.48273(18)
F11 F 0.8196(5) 0.92758(19) 0.55319(19)
F14 F 0.4631(5) 0.93571(19) 0.66758(18)
F15 F 0.3031(5) 0.9682(2) 0.59774(18)
C1 C 0.5635(8) 0.2328(3) 0.7559(3)
C2 C 0.5034(8) 0.2774(3) 0.7027(3)
C3 C 0.4467(8) 0.3422(3) 0.7095(3)
H17 H 0.4359 0.3558 0.7474
C4 C 0.4056(8) 0.3874(3) 0.6617(3)
C5 C 0.4126(8) 0.3666(3) 0.6049(3)
C6 C 0.4621(9) 0.3015(3) 0.5982(3)
H18 H 0.4611 0.2871 0.5612
C7 C 0.5124(9) 0.2580(3) 0.6452(3)
H19 H 0.5527 0.2154 0.6388
C8 C 0.3456(8) 0.4555(3) 0.6742(3)
C9 C 0.3797(7) 0.4103(3) 0.5506(3)
C10 C 0.4341(8) 0.2392(3) 0.8123(3)
C11 C 0.4837(8) 0.2319(3) 0.8699(3)
H20 H 0.5976 0.2287 0.8749
C12 C 0.3620(8) 0.2295(3) 0.9200(3)
C13 C 0.1908(8) 0.2337(3) 0.9132(3)
C14 C 0.1431(8) 0.2457(3) 0.8556(3)
H21 H 0.0289 0.2528 0.8501
C15 C 0.2655(8) 0.2472(3) 0.8060(3)
H22 H 0.2314 0.2539 0.7679
C16 C 0.4156(8) 0.2254(3) 0.9802(3)
C17 C 0.0569(8) 0.2245(3) 0.9646(3)
C18 C 0.7382(9) 0.2475(4) 0.7647(3)
C19 C 0.5826(10) 0.1607(4) 0.7449(3)
C20 C 0.8024(8) 0.8199(3) 0.5365(3)
C21 C 0.7267(8) 0.7945(3) 0.5987(3)
C22 C 0.6629(7) 0.7370(3) 0.6034(3)
H23 H 0.6598 0.7179 0.5689
C23 C 0.6044(7) 0.7078(3) 0.6578(3)
C24 C 0.6073(7) 0.7367(3) 0.7100(3)
C25 C 0.6642(8) 0.7946(3) 0.7055(3)
H24 H 0.6620 0.8147 0.7398
C26 C 0.7247(8) 0.8233(3) 0.6507(3)
H25 H 0.7644 0.8622 0.6485
C27 C 0.5316(8) 0.6464(3) 0.6585(3)
C28 C 0.5748(8) 0.6992(3) 0.7703(3)
C29 C 0.9181(8) 0.7636(3) 0.5080(3)
C34 C 0.9247(9) 0.7513(3) 0.4485(3)
H28 H 0.8664 0.7810 0.4218
C37 C 0.6500(8) 0.8481(4) 0.5005(3)
C38 C 0.9097(9) 0.8731(3) 0.5364(3)
C39 C 0.1746(8) 0.9727(3) 0.6991(3)
C40 C 0.2154(8) 0.9961(3) 0.7564(3)
C41 C 0.3114(8) 0.9518(3) 0.7938(3)
H29 H 0.3533 0.9110 0.7823
C42 C 0.3456(8) 0.9674(3) 0.8478(3)
C46 C 0.4344(7) 0.9152(3) 0.8890(3)
C48 C 0.1355(8) 0.9033(3) 0.7144(3)
C49 C 0.0185(8) 0.8934(3) 0.7647(3)
C51 C 0.0725(8) 0.7797(3) 0.7568(3)
C52 C 0.1756(8) 0.7901(3) 0.7053(3)
H33 H 0.2246 0.7554 0.6842
C53 C 0.2095(8) 0.8510(3) 0.6835(3)
H34 H 0.2814 0.8568 0.6484
C55 C 0.0713(8) 0.7102(3) 0.7869(3)
C56 C 0.3302(9) 0.9783(3) 0.6521(3)
O34 O 0.5623(5) 0.5371(2) 0.45780(19)
O35 O 0.6925(5) 0.6070(2) 0.48903(19)
O36 O 0.6489(6) 0.8093(2) 0.97619(19)
O41 O 0.7469(5) 0.4225(2) 0.60236(19)
O42 O 0.8239(5) 0.4616(2) 0.5100(2)
O45 O 0.7619(6) 0.7858(2) 0.8431(2)
O46 O 0.8382(6) 0.8706(2) 0.8752(2)
O8 O 0.9479(6) 0.2710(2) 0.9786(2)
H3 H 0.9861 0.5455 0.8146
O27 O 0.9121(6) 0.5703(2) 0.7151(2)
H5 H 0.8313 0.5925 0.7302
H6 H 0.8827 0.5332 0.7093
F18 F 0.9686(5) 0.9875(2) 0.6305(2)
H32 H 0.9614 0.9285 0.7838
C50 C 0.9862(8) 0.8328(3) 0.7864(3)
C54 C 0.8532(8) 0.8284(3) 0.8397(3)
O8_2 O 0.0521(6) 0.7290(2) 0.0214(2)
O21 O 0.2381(6) 0.2142(2) 0.1569(2)
O22 O 0.1618(6) 0.1294(2) 0.1248(2)
H3_2 H 0.0139 0.4545 0.1854
O27_2 O 0.0879(6) 0.4297(2) 0.2849(2)
H5_2 H 0.1687 0.4075 0.2698
H6_2 H 0.1173 0.4668 0.2907
F18_2 F 0.0314(5) 0.0125(2) 0.3695(2)
H32_2 H 0.0386 0.0715 0.2162
C50_2 C 0.0138(8) 0.1672(3) 0.2136(3)
C54_2 C 0.1468(8) 0.1716(3) 0.1603(3)
Yb1 Yb 0.80241(3) 0.422909(14) 0.284414(13)
O1_2 O 0.7933(6) 0.5317(2) 0.2940(2)
O2_2 O 0.5681(5) 0.5001(2) 0.34366(19)
O9_2 O 0.6141(5) 0.3551(2) 0.31435(19)
O10_2 O 0.3796(5) 0.3972(2) 0.3700(2)
O11_2 O 0.4986(6) 0.2692(2) 0.1860(2)
O12_2 O 0.3733(5) 0.3602(2) 0.2244(2)
O17_2 O 0.5574(6) 0.1415(2) 0.1218(2)
O18_2 O 0.5069(6) 0.0675(2) 0.0667(2)
O23_2 O 0.9300(6) 0.3317(2) 0.2474(2)
O24_2 O 0.9179(6) 0.2987(2) 0.1584(2)
O25_2 O 0.5853(6) 0.4491(2) 0.2222(2)
H1_2 H 0.5160 0.4153 0.2197
H2_2 H 0.5048 0.4769 0.2292
O26_2 O 0.9013(6) 0.4689(2) 0.1873(2)
H4_2 H 0.8813 0.4389 0.1650
O28_2 O 0.1032(5) 0.4625(2) 0.4160(2)
H7_2 H 0.1075 0.4285 0.3927
H8_2 H 0.0508 0.4674 0.4473
O29_2 O 0.7513(6) 0.2410(3) 0.0850(2)
H9_2 H 0.8184 0.2527 0.0525
H10_2 H 0.7809 0.2603 0.1111
O30_2 O 0.2131(6) 0.3140(2) 0.0783(2)
H11_2 H 0.1126 0.2988 0.0886
H12_2 H 0.1931 0.3441 0.0512
O31_2 O 0.5097(7) 0.3541(3) 0.0709(3)
H13_2 H 0.4322 0.3886 0.0590
H14_2 H 0.5875 0.3754 0.0705
F1_2 F 0.1608(5) 0.7475(3) 0.2866(2)
F2_2 F 0.1763(5) 0.7995(2) 0.19884(19)
F3_2 F 0.2726(5) 0.6984(2) 0.21037(19)
F4_2 F 0.2863(6) 0.8556(2) 0.29677(19)
F5_2 F 0.5558(6) 0.8523(2) 0.27387(19)
F6_2 F 0.3871(6) 0.8784(2) 0.2060(2)
F7_2 F 0.4319(5) 0.19697(19) 0.51079(18)
F8_2 F 0.4624(5) 0.1099(2) 0.46900(19)
F9_2 F 0.3020(5) 0.1203(2) 0.55212(18)
F10_2 F 0.0076(5) 0.1133(2) 0.51727(18)
F11_2 F 0.1804(5) 0.07242(19) 0.44681(19)
F14_2 F 0.5369(5) 0.06429(19) 0.33242(18)
F15_2 F 0.6969(5) 0.0318(2) 0.40226(18)
C1_2 C 0.4365(8) 0.7672(3) 0.2441(3)
C2_2 C 0.4966(8) 0.7226(3) 0.2973(3)
C3_2 C 0.5533(8) 0.6578(3) 0.2905(3)
H17_2 H 0.5641 0.6442 0.2526
C4_2 C 0.5944(8) 0.6126(3) 0.3383(3)
C5_2 C 0.5874(8) 0.6334(3) 0.3951(3)
C6_2 C 0.5379(9) 0.6985(3) 0.4018(3)
H18_2 H 0.5389 0.7129 0.4388
C7_2 C 0.4876(9) 0.7420(3) 0.3548(3)
H19_2 H 0.4473 0.7846 0.3612
C8_2 C 0.6544(8) 0.5445(3) 0.3258(3)
C9_2 C 0.6203(7) 0.5897(3) 0.4494(3)
C10_2 C 0.5659(8) 0.7608(3) 0.1877(3)
C11_2 C 0.5163(8) 0.7681(3) 0.1301(3)
H20_2 H 0.4024 0.7713 0.1251
C12_2 C 0.6380(8) 0.7705(3) 0.0800(3)
C13_2 C 0.8092(8) 0.7663(3) 0.0868(3)
C14_2 C 0.8569(8) 0.7543(3) 0.1444(3)
H21_2 H 0.9711 0.7472 0.1499
C15_2 C 0.7345(8) 0.7528(3) 0.1940(3)
H22_2 H 0.7686 0.7461 0.2321
C16_2 C 0.5844(8) 0.7746(3) 0.0198(3)
C17_2 C 0.9431(8) 0.7755(3) 0.0354(3)
C18_2 C 0.2618(9) 0.7525(4) 0.2353(3)
C19_2 C 0.4174(10) 0.8393(4) 0.2551(3)
C20_2 C 0.1976(8) 0.1801(3) 0.4635(3)
C21_2 C 0.2733(8) 0.2055(3) 0.4013(3)
C22_2 C 0.3371(7) 0.2630(3) 0.3966(3)
H23_2 H 0.3402 0.2821 0.4311
C23_2 C 0.3956(7) 0.2922(3) 0.3422(3)
C24_2 C 0.3927(7) 0.2633(3) 0.2900(3)
C25_2 C 0.3358(8) 0.2054(3) 0.2945(3)
H24_2 H 0.3380 0.1853 0.2602
C26_2 C 0.2753(8) 0.1767(3) 0.3493(3)
H25_2 H 0.2356 0.1378 0.3515
C27_2 C 0.4684(8) 0.3536(3) 0.3415(3)
C28_2 C 0.4252(8) 0.3008(3) 0.2297(3)
C29_2 C 0.0819(8) 0.2364(3) 0.4920(3)
C34_2 C 0.0753(9) 0.2487(3) 0.5515(3)
H28_2 H 0.1336 0.2190 0.5782
C37_2 C 0.3500(8) 0.1519(4) 0.4995(3)
C38_2 C 0.0903(9) 0.1269(3) 0.4636(3)
C39_2 C 0.8254(8) 0.0273(3) 0.3009(3)
C40_2 C 0.7846(8) 0.0039(3) 0.2436(3)
C41_2 C 0.6886(8) 0.0482(3) 0.2062(3)
H29_2 H 0.6467 0.0890 0.2177
C42_2 C 0.6544(8) 0.0326(3) 0.1522(3)
C46_2 C 0.5656(7) 0.0848(3) 0.1110(3)
C48_2 C 0.8645(8) 0.0967(3) 0.2856(3)
C49_2 C 0.9815(8) 0.1066(3) 0.2353(3)
C51_2 C 0.9275(8) 0.2203(3) 0.2432(3)
C52_2 C 0.8244(8) 0.2099(3) 0.2947(3)
H33_2 H 0.7754 0.2446 0.3158
C53_2 C 0.7905(8) 0.1490(3) 0.3165(3)
H34_2 H 0.7186 0.1432 0.3516
C55_2 C 0.9287(8) 0.2898(3) 0.2131(3)
C56_2 C 0.6698(9) 0.0217(3) 0.3479(3)
O39 O 0.8571(5) 0.3928(2) 0.37858(19)
O40 O 0.6273(5) 0.3974(2) 0.44653(19)
O33_2 O 0.2805(6) 0.9875(2) 0.0807(2)
H15_2 H 0.3843 0.9856 0.0850
H16_2 H 0.2745 0.9473 0.0797
F13_2 F 0.6232(5) 0.96409(19) 0.35189(18)
F16_2 F 0.9553(5) 0.92628(19) 0.34971(18)
C43_2 C 0.7150(9) 0.9717(3) 0.1344(3)
C44_2 C 0.8072(9) 0.9265(3) 0.1736(3)
H30_2 H 0.8474 0.8853 0.1628
C45_2 C 0.8386(9) 0.9422(3) 0.2274(3)
H31_2 H 0.8966 0.9113 0.2532
C47_2 C 0.7160(8) 0.9538(3) 0.0729(3)
C57_2 C 0.9841(9) 0.9857(3) 0.3261(3)
O32_2 O 0.9693(5) 0.0658(2) 0.0695(2)
F12_2 F 0.9723(5) 0.14577(19) 0.42594(18)
C30_2 C 0.9811(8) 0.2796(3) 0.4544(3)
H26_2 H 0.9776 0.2704 0.4156
C31_2 C 0.8865(8) 0.3357(3) 0.4736(3)
C32_2 C 0.8899(8) 0.3502(3) 0.5317(3)
C33_2 C 0.9813(8) 0.3056(3) 0.5710(3)
H27_2 H 0.9794 0.3138 0.6104
C35_2 C 0.7803(8) 0.3789(3) 0.4307(3)
C36_2 C 0.8165(8) 0.4144(3) 0.5498(3)
H35_2 H 0.974 0.0188105 0.0695866
H36_2 H 0.887622 0.0890196 0.0420886
F17 F 0.8852(5) 0.02186(19) 0.71639(19)
F17_2 F 0.1148(5) 0.97814(19) 0.28361(19)
loop_
_geom_bond_atom_site_label_1
_geom_bond_atom_site_label_2
_geom_bond_site_symmetry_1
_geom_bond_site_symmetry_2
O13 C35 1_555 1_555
O14 C35 1_555 1_555
O15 C36 1_555 1_555
O16 C36 1_555 1_555
H26 C30 1_555 1_555
C31 C30 1_555 1_555
C32 C31 1_555 1_555
C33 C32 1_555 1_555
H27 C33 1_555 1_555
C35 C31 1_555 1_555
C36 C32 1_555 1_555
Yb5 O13 1_555 1_555
Yb6 O14 1_555 1_555
Yb8 O15 1_555 1_555
O16 Yb8 1_555 1_555
O32 H35 1_555 1_555
O32 H36 1_555 1_555
O19 C47 1_555 1_555
O20 C47 1_555 1_555
H15 O33 1_555 1_555
H16 O33 1_555 1_555
F16 C57 1_555 1_555
C44 C43 1_555 1_555
H30 C44 1_555 1_555
H31 C45 1_555 1_555
C47 C43 1_555 1_555
C44 C45 1_555 1_555
Yb10 O5 1_555 1_555
Yb13 O5 1_555 1_555
Yb5 O1 1_555 1_555
Yb6 O2 1_555 1_555
Yb3 O11 1_555 1_555
Yb4 O18 1_555 1_555
O1 C8 1_555 1_555
O2 Yb5 1_555 1_555
O3 Yb6 1_555 1_555
O4 C9 1_555 1_555
O6 C16 1_555 1_555
O7 C17 1_555 1_555
O9 Yb5 1_555 1_555
O10 Yb6 1_555 1_555
O11 C28 1_555 1_555
O12 C28 1_555 1_555
O17 Yb3 1_555 1_555
O18 C46 1_555 1_555
O23 Yb5 1_555 1_555
O24 C55 1_555 1_555
O25 Yb5 1_555 1_555
H1 O25 1_555 1_555
H2 O25 1_555 1_555
O26 Yb5 1_555 1_555
H4 O26 1_555 1_555
O28 Yb6 1_555 1_555
H7 O28 1_555 1_555
H8 O28 1_555 1_555
O29 Yb3 1_555 1_555
H9 O29 1_555 1_555
H10 O29 1_555 1_555
O30 Yb3 1_555 1_555
H11 O30 1_555 1_555
H12 O30 1_555 1_555
O31 Yb3 1_555 1_555
H13 O31 1_555 1_555
H14 O31 1_555 1_555
F1 C18 1_555 1_555
F2 C18 1_555 1_555
F3 C18 1_555 1_555
F4 C19 1_555 1_555
F5 C19 1_555 1_555
F6 C19 1_555 1_555
F7 C37 1_555 1_555
F8 C37 1_555 1_555
F9 C37 1_555 1_555
F10 C38 1_555 1_555
F11 C38 1_555 1_555
F14 C56 1_555 1_555
F15 C56 1_555 1_555
C1 C2 1_555 1_555
C2 C3 1_555 1_555
C3 H17 1_555 1_555
C4 C3 1_555 1_555
C5 C4 1_555 1_555
C6 C5 1_555 1_555
H18 C6 1_555 1_555
C7 C2 1_555 1_555
H19 C7 1_555 1_555
C8 O2 1_555 1_555
C9 O3 1_555 1_555
C10 C1 1_555 1_555
C11 C10 1_555 1_555
H20 C11 1_555 1_555
C12 C11 1_555 1_555
C13 C12 1_555 1_555
C14 C13 1_555 1_555
H21 C14 1_555 1_555
C15 C10 1_555 1_555
H22 C15 1_555 1_555
C16 C12 1_555 1_555
C17 C13 1_555 1_555
C18 C1 1_555 1_555
C19 C1 1_555 1_555
C20 C21 1_555 1_555
C21 C22 1_555 1_555
C22 H23 1_555 1_555
C23 C22 1_555 1_555
C24 C23 1_555 1_555
C25 C24 1_555 1_555
H24 C25 1_555 1_555
C26 C21 1_555 1_555
H25 C26 1_555 1_555
C27 O9 1_555 1_555
C28 C24 1_555 1_555
C29 C20 1_555 1_555
C34 C29 1_555 1_555
H28 C34 1_555 1_555
C37 C20 1_555 1_555
C38 C20 1_555 1_555
C39 C40 1_555 1_555
C40 C41 1_555 1_555
C41 H29 1_555 1_555
C42 C41 1_555 1_555
C46 O17 1_555 1_555
C48 C39 1_555 1_555
C49 C48 1_555 1_555
C52 C51 1_555 1_555
H33 C52 1_555 1_555
C53 C48 1_555 1_555
H34 C53 1_555 1_555
C55 O23 1_555 1_555
C56 C39 1_555 1_555
Yb8 O3 1_555 1_555
O34 Yb6 1_555 1_555
O35 Yb6 1_555 1_555
O36 Yb3 1_555 1_555
O41 Yb6 1_555 1_555
O42 Yb6 1_555 1_555
O45 Yb3 1_555 1_555
O46 Yb4 1_555 1_555
Yb4 O36 1_555 1_555
O4 Yb8 1_555 1_555
O10 C27 1_555 1_555
C4 C8 1_555 1_555
C5 C9 1_555 1_555
C6 C7 1_555 1_555
C14 C15 1_555 1_555
C23 C27 1_555 1_555
C25 C26 1_555 1_555
C42 C46 1_555 1_555
C51 C55 1_555 1_555
C52 C53 1_555 1_555
Yb8 O34 1_555 1_555
O45 C54 1_555 1_555
O46 C54 1_555 1_555
H5 O27 1_555 1_555
H6 O27 1_555 1_555
C54 C50 1_555 1_555
O21 C54_2 1_555 1_555
O22 C54_2 1_555 1_555
H5_2 O27_2 1_555 1_555
H6_2 O27_2 1_555 1_555
C54_2 C50_2 1_555 1_555
Yb10 O21 1_555 1_555
Yb13 O22 1_555 1_555
Yb1 O1_2 1_555 1_555
Yb8 O2_2 1_555 1_555
Yb10 O11_2 1_555 1_555
Yb13 O18_2 1_555 1_555
O1_2 C8_2 1_555 1_555
O2_2 Yb1 1_555 1_555
O35 C9_2 1_555 1_555
O37 C16_2 1_555 1_555
O38 C17_2 1_555 1_555
O9_2 Yb1 1_555 1_555
O10_2 Yb8 1_555 1_555
O11_2 C28_2 1_555 1_555
O12_2 C28_2 1_555 1_555
O17_2 Yb10 1_555 1_555
O18_2 C46_2 1_555 1_555
O23_2 Yb1 1_555 1_555
O24_2 C55_2 1_555 1_555
O25_2 Yb1 1_555 1_555
H1_2 O25_2 1_555 1_555
H2_2 O25_2 1_555 1_555
O26_2 Yb1 1_555 1_555
H4_2 O26_2 1_555 1_555
O28_2 Yb8 1_555 1_555
H7_2 O28_2 1_555 1_555
H8_2 O28_2 1_555 1_555
O29_2 Yb10 1_555 1_555
H9_2 O29_2 1_555 1_555
H10_2 O29_2 1_555 1_555
O30_2 Yb10 1_555 1_555
H11_2 O30_2 1_555 1_555
H12_2 O30_2 1_555 1_555
O31_2 Yb10 1_555 1_555
H13_2 O31_2 1_555 1_555
H14_2 O31_2 1_555 1_555
F1_2 C18_2 1_555 1_555
F2_2 C18_2 1_555 1_555
F3_2 C18_2 1_555 1_555
F4_2 C19_2 1_555 1_555
F5_2 C19_2 1_555 1_555
F6_2 C19_2 1_555 1_555
F7_2 C37_2 1_555 1_555
F8_2 C37_2 1_555 1_555
F9_2 C37_2 1_555 1_555
F10_2 C38_2 1_555 1_555
F11_2 C38_2 1_555 1_555
F14_2 C56_2 1_555 1_555
F15_2 C56_2 1_555 1_555
C1_2 C2_2 1_555 1_555
C2_2 C3_2 1_555 1_555
C3_2 H17_2 1_555 1_555
C4_2 C3_2 1_555 1_555
C5_2 C4_2 1_555 1_555
C6_2 C5_2 1_555 1_555
H18_2 C6_2 1_555 1_555
C7_2 C2_2 1_555 1_555
H19_2 C7_2 1_555 1_555
C8_2 O2_2 1_555 1_555
C9_2 O34 1_555 1_555
C10_2 C1_2 1_555 1_555
C11_2 C10_2 1_555 1_555
H20_2 C11_2 1_555 1_555
C12_2 C11_2 1_555 1_555
C13_2 C12_2 1_555 1_555
C14_2 C13_2 1_555 1_555
H21_2 C14_2 1_555 1_555
C15_2 C10_2 1_555 1_555
H22_2 C15_2 1_555 1_555
C16_2 C12_2 1_555 1_555
C17_2 C13_2 1_555 1_555
C18_2 C1_2 1_555 1_555
C19_2 C1_2 1_555 1_555
C20_2 C21_2 1_555 1_555
C21_2 C22_2 1_555 1_555
C22_2 H23_2 1_555 1_555
C23_2 C22_2 1_555 1_555
C24_2 C23_2 1_555 1_555
C25_2 C24_2 1_555 1_555
H24_2 C25_2 1_555 1_555
C26_2 C21_2 1_555 1_555
H25_2 C26_2 1_555 1_555
C27_2 O9_2 1_555 1_555
C28_2 C24_2 1_555 1_555
C29_2 C20_2 1_555 1_555
C34_2 C29_2 1_555 1_555
H28_2 C34_2 1_555 1_555
C37_2 C20_2 1_555 1_555
C38_2 C20_2 1_555 1_555
C39_2 C40_2 1_555 1_555
C40_2 C41_2 1_555 1_555
C41_2 H29_2 1_555 1_555
C42_2 C41_2 1_555 1_555
C46_2 O17_2 1_555 1_555
C48_2 C39_2 1_555 1_555
C49_2 C48_2 1_555 1_555
C52_2 C51_2 1_555 1_555
H33_2 C52_2 1_555 1_555
C53_2 C48_2 1_555 1_555
H34_2 C53_2 1_555 1_555
C55_2 O23_2 1_555 1_555
C56_2 C39_2 1_555 1_555
O39 Yb1 1_555 1_555
O40 Yb8 1_555 1_555
O10_2 C27_2 1_555 1_555
C4_2 C8_2 1_555 1_555
C5_2 C9_2 1_555 1_555
C6_2 C7_2 1_555 1_555
C14_2 C15_2 1_555 1_555
C23_2 C27_2 1_555 1_555
C25_2 C26_2 1_555 1_555
C42_2 C46_2 1_555 1_555
C51_2 C55_2 1_555 1_555
C52_2 C53_2 1_555 1_555
O43 C47_2 1_555 1_555
O44 C47_2 1_555 1_555
H15_2 O33_2 1_555 1_555
H16_2 O33_2 1_555 1_555
F16_2 C57_2 1_555 1_555
C44_2 C43_2 1_555 1_555
H30_2 C44_2 1_555 1_555
H31_2 C45_2 1_555 1_555
C47_2 C43_2 1_555 1_555
C44_2 C45_2 1_555 1_555
O39 C35_2 1_555 1_555
O40 C35_2 1_555 1_555
O41 C36_2 1_555 1_555
O42 C36_2 1_555 1_555
H26_2 C30_2 1_555 1_555
C31_2 C30_2 1_555 1_555
C32_2 C31_2 1_555 1_555
C33_2 C32_2 1_555 1_555
H27_2 C33_2 1_555 1_555
C35_2 C31_2 1_555 1_555
C36_2 C32_2 1_555 1_555
O32_2 H35_2 1_555 1_555
O32_2 H36_2 1_555 1_555

#END
