
###############################################################################
#
# This file contains modified crystal structure data generated from the
# MOF subset of the Cambridge Structural Database (CSD) v543 
# hosted by the Cambridge Crystallographic Data Centre (CCDC).
#
# This work is licensed under the Creative Commons
# Attribution-NonCommercial-ShareAlike 4.0 International License.
# To view a copy of this license, visit
# http://creativecommons.org/licenses/by-nc-sa/4.0/
# or send a letter to
# Creative Commons, PO Box 1866, Mountain View, CA 94042, USA.
#
# CIF created using the CSD Python API on 29 September 2022
# The structure has been converted into the P1 space group
# The structure has a 3D framework
# The original CSD entry KIPKIF is in the tetragonal crystal system
# The framework has been calculated to contain at least 10.0% void space
# The void calculation uses a probe of radius 1.32A, grid spacing 0.4
#
###############################################################################

data_KIPKIF
_chemical_formula_moiety         '(C496 H400 N64 O90 Zn30)n'
_symmetry_cell_setting           triclinic
_symmetry_space_group_name_H-M   'P 1'
_symmetry_Int_Tables_number      1
_space_group_name_Hall           'P 1'
loop_
_symmetry_equiv_pos_site_id
_symmetry_equiv_pos_as_xyz
1 x,y,z
_cell_length_a                   43.719(6)
_cell_length_b                   43.719(6)
_cell_length_c                   8.5159(17)
_cell_angle_alpha                90
_cell_angle_beta                 90
_cell_angle_gamma                90
_cell_volume                     16276.9
loop_
_atom_site_label
_atom_site_type_symbol
_atom_site_fract_x
_atom_site_fract_y
_atom_site_fract_z
H7 H 0.3812 0.3196 0.0268
H13 H 0.3001 0.1503 0.0075
C14 C 0.25405(12) 0.14802(14) 0.0135(7)
H14 H 0.2526 0.1404 0.1153
C18 C 0.10953(10) 0.12918(10) 0.2056(7)
C19 C 0.13974(11) 0.13573(11) 0.1310(7)
C23 C 0.19188(12) 0.15304(14) 0.1542(8)
H19 H 0.2077 0.1605 0.2165
C24 C 0.16331(11) 0.14732(13) 0.2215(7)
H20 H 0.1601 0.1513 0.3275
O3 O 0.10634(7) 0.13702(8) 0.3456(5)
O4 O 0.08934(7) 0.11702(8) 0.1210(4)
Zn3 Zn 0.447710(11) 0.404057(11) 0.31011(7)
C39 C 0.52606(11) 0.39015(14) 0.3329(7)
H30 H 0.5130 0.4037 0.3911
H31 H 0.5357 0.3760 0.4036
H32 H 0.5415 0.4018 0.2792
C40 C 0.50732(9) 0.37284(11) 0.2153(6)
C41 C 0.51642(10) 0.35116(10) 0.1076(6)
C42 C 0.49032(10) 0.34284(11) 0.0239(6)
C46 C 0.54797(10) 0.34091(11) 0.0702(6)
C47 C 0.56744(10) 0.32275(12) 0.1580(6)
C48 C 0.56309(12) 0.30730(15) 0.3127(7)
H39 H 0.5814 0.2965 0.3404
H40 H 0.5587 0.3223 0.3916
H41 H 0.5464 0.2931 0.3056
C49 C 0.42221(12) 0.43411(10) 0.0187(7)
H44 H 0.4188 0.5368 0.0340
C55 C 0.42051(13) 0.49094(11) 0.0390(7)
H45 H 0.4280 0.4893 0.1409
N5 N 0.47704(8) 0.37761(8) 0.2002(5)
N6 N 0.46652(8) 0.35910(8) 0.0800(5)
N8 N 0.59325(8) 0.31977(9) 0.0757(5)
O9 O 0.43102(9) 0.43350(7) 0.1597(5)
H50 H 0.6099(13) 0.3071(13) 0.099(7)
Zn5 Zn 0.052290(11) 0.095943(11) 0.18989(7)
Zn9 Zn 0.074483(11) 0.130932(11) 0.50533(7)
O14 O 0.39366(7) 0.36298(8) 0.1544(5)
O16 O 0.41066(7) 0.38298(8) 0.3790(4)
O17 O 0.46331(8) 0.43002(8) 0.4691(5)
Zn1 Zn 0.154057(11) 0.802290(11) 0.93989(7)
C1 C 0.14015(14) 0.72394(11) 0.9171(7)
H1 H 0.1537 0.7370 0.8589
H2 H 0.1260 0.7143 0.8464
H3 H 0.1518 0.7085 0.9708
C10 C 0.05730(15) 0.68691(12) 0.9373(7)
H10 H 0.0465 0.6686 0.9096
H11 H 0.0723 0.6913 0.8584
H12 H 0.0431 0.7036 0.9444
C25 C 0.16925(12) 0.77902(11) 0.6476(7)
C26 C 0.19259(11) 0.76782(12) 0.5316(7)
C27 C 0.22316(13) 0.76779(17) 0.5709(8)
H21 H 0.2290 0.7730 0.6725
C28 C 0.24546(13) 0.76018(18) 0.4615(8)
H22 H 0.2659 0.7600 0.4922
C29 C 0.23814(11) 0.75298(13) 0.3101(6)
C30 C 0.20711(11) 0.75223(12) 0.2718(7)
H23 H 0.2013 0.7467 0.1707
C31 C 0.18483(11) 0.75950(12) 0.3815(7)
H24 H 0.1643 0.7587 0.3528
O5 O 0.18002(8) 0.78669(8) 0.7809(5)
O6 O 0.14184(8) 0.78022(8) 0.6105(5)
C35 C 0.25454(13) 0.73982(18) 0.0385(8)
H27 H 0.2341 0.7400 0.0078
C36 C 0.26186(11) 0.74702(13) 0.1899(6)
C37 C 0.29289(11) 0.74777(12) 0.2282(7)
H28 H 0.2987 0.7533 0.3293
C38 C 0.31517(11) 0.74050(12) 0.1185(7)
H29 H 0.3357 0.7413 0.1472
H49 H 0.0987 0.4101 0.9225
O11 O 0.11298(8) 0.35634(7) 0.9044(5)
Zn10 Zn 0.119068(11) 0.324483(11) 0.74467(7)
O15 O 0.13298(8) 0.83934(7) 0.8710(4)
H23_2 H 0.4967 0.5487 0.9207
C32 C 0.47098(11) 0.41925(12) 0.6024(7)
C33 C 0.48218(12) 0.44259(11) 0.7184(7)
C34 C 0.48221(17) 0.47316(13) 0.6791(8)
H26 H 0.4770 0.4790 0.5775
C35_2 C 0.48982(18) 0.49546(13) 0.7885(8)
H27_2 H 0.4900 0.5159 0.7578
C36_2 C 0.49702(13) 0.48814(11) 0.9399(6)
C37_2 C 0.49777(12) 0.45711(11) 0.9782(7)
C38_2 C 0.49050(12) 0.43483(11) 0.8685(7)
H29_2 H 0.4913 0.4143 0.8972
O8 O 0.46978(8) 0.39184(8) 0.6395(5)
C1_2 C 0.02606(11) 0.39015(14) 0.1671(7)
H1_2 H 0.0130 0.4037 0.1089
H2_2 H 0.0357 0.3760 0.0964
H3_2 H 0.0415 0.4018 0.2208
C2 C 0.00732(9) 0.37284(11) 0.2847(6)
C3 C 0.01642(10) 0.35116(10) 0.3924(6)
H5 H 0.0003 0.3258 0.6906
C6 C 0.05388(13) 0.36794(15) 0.6982(7)
H7_2 H 0.0696 0.3688 0.7768
H8 H 0.0355 0.3597 0.7435
H9 H 0.0499 0.3882 0.6593
C7 C 0.06411(10) 0.34805(11) 0.5667(6)
C8 C 0.04797(10) 0.34091(11) 0.4298(6)
C9 C 0.06744(10) 0.32275(12) 0.3420(6)
C10_2 C 0.06309(12) 0.30730(15) 0.1873(7)
H10_2 H 0.0814 0.2965 0.1596
H11_2 H 0.0587 0.3223 0.1084
H12_2 H 0.0464 0.2931 0.1944
N3 N 0.09185(8) 0.33493(9) 0.5638(5)
N4 N 0.09325(8) 0.31977(9) 0.4243(5)
H25 H 0.1099(13) 0.3071(13) 0.401(7)
C40_2 C 0.12284(11) 0.24268(9) 0.9653(6)
C41_2 C 0.10116(10) 0.23358(10) 0.8576(6)
C42_2 C 0.09284(11) 0.25968(10) 0.7739(6)
C43 C 0.07006(13) 0.26274(12) 0.6454(8)
H33 H 0.0694 0.2836 0.6104
H34 H 0.0758 0.2497 0.5594
H35 H 0.0502 0.2569 0.6833
C44 C 0.11794(15) 0.19612(13) 0.5518(7)
H36 H 0.1188 0.1804 0.4732
H37 H 0.1097 0.2145 0.5065
H38 H 0.1382 0.2001 0.5907
C45 C 0.09805(11) 0.18589(10) 0.6833(6)
C46_2 C 0.09091(11) 0.20203(10) 0.8202(6)
C47_2 C 0.07275(12) 0.18256(10) 0.9080(6)
C49_2 C 0.18411(10) 0.32779(12) 0.7687(7)
C50 C 0.21482(10) 0.33498(12) 0.7012(7)
C51 C 0.21745(12) 0.34609(14) 0.5514(8)
H42 H 0.1999 0.3497 0.4925
C52 C 0.24595(12) 0.35198(14) 0.4865(7)
H43 H 0.2474 0.3596 0.3847
C53 C 0.27258(11) 0.34650(14) 0.5745(7)
C54 C 0.26939(12) 0.33516(14) 0.7246(8)
H44_2 H 0.2868 0.3312 0.7840
C55_2 C 0.24094(11) 0.32949(13) 0.7890(7)
H45_2 H 0.2393 0.3220 0.8909
C56 C 0.39047(10) 0.37082(10) 0.2944(7)
C57 C 0.36026(11) 0.36427(11) 0.3690(7)
C58 C 0.35525(12) 0.36934(13) 0.5266(7)
H46 H 0.3710 0.3769 0.5887
C59 C 0.32718(12) 0.36335(15) 0.5932(8)
H47 H 0.3243 0.3668 0.6999
C60 C 0.30304(12) 0.35219(14) 0.5041(8)
C61 C 0.30812(12) 0.34696(14) 0.3458(8)
H48 H 0.2923 0.3395 0.2835
C62 C 0.33669(11) 0.35268(13) 0.2785(7)
H49_2 H 0.3399 0.3487 0.1725
N5_2 N 0.12761(8) 0.27296(8) 0.9502(5)
N6_2 N 0.10910(8) 0.28348(8) 0.8300(5)
N7 N 0.08493(9) 0.15815(8) 0.6862(5)
N8_2 N 0.06977(9) 0.15675(8) 0.8257(5)
O9_2 O 0.18350(7) 0.31898(9) 0.9097(5)
O10 O 0.16103(7) 0.33076(8) 0.6809(5)
H50_2 H 0.0571(13) 0.1401(13) 0.849(7)
Zn1_2 Zn 0.947710(11) 0.404057(11) 0.18989(7)
Zn2 Zn 0.925517(11) 0.369068(11) 0.50533(7)
C4 C 0.99032(10) 0.34284(11) 0.4761(6)
C5 C 0.98726(12) 0.32006(13) 0.6046(8)
H4 H 0.9664 0.3194 0.6396
H6 H 0.9931 0.3002 0.5667
C11 C 0.92221(12) 0.43411(10) 0.4813(7)
C12 C 0.91502(12) 0.46482(10) 0.5488(7)
C13 C 0.90391(14) 0.46745(12) 0.6986(8)
H13_2 H 0.9003 0.4499 0.7575
C14_2 C 0.89802(14) 0.49595(12) 0.7635(7)
H14_2 H 0.8904 0.4974 0.8653
C15 C 0.90350(14) 0.52258(11) 0.6755(7)
C16 C 0.91484(14) 0.51939(12) 0.5254(8)
H15 H 0.9188 0.5368 0.4660
C17 C 0.92051(13) 0.49094(11) 0.4610(7)
H16 H 0.9280 0.4893 0.3591
C18_2 C 0.87918(10) 0.64047(10) 0.9556(7)
C19_2 C 0.88573(11) 0.61026(11) 0.8810(7)
C20 C 0.88066(13) 0.60525(12) 0.7234(7)
H17 H 0.8731 0.6210 0.6613
C21 C 0.88665(15) 0.57718(12) 0.6568(8)
H18 H 0.8832 0.5743 0.5501
C22 C 0.89781(14) 0.55304(12) 0.7459(8)
C23_2 C 0.90304(14) 0.55812(12) 0.9042(8)
H19_2 H 0.9105 0.5423 0.9665
C24_2 C 0.89732(13) 0.58669(11) 0.9715(7)
N1 N 0.97704(8) 0.37761(8) 0.2998(5)
N2 N 0.96652(8) 0.35910(8) 0.4200(5)
O1 O 0.93102(9) 0.43350(7) 0.3403(5)
O2 O 0.91924(8) 0.41103(7) 0.5691(5)
O4_2 O 0.86702(8) 0.66066(7) 0.8710(4)
O5_2 O 0.96331(8) 0.43002(8) 0.0309(5)
Zn5_2 Zn 0.845943(11) 0.697710(11) 0.93989(7)
N9 N 0.91507(9) 0.34185(8) 0.6862(5)
O13 O 0.89366(7) 0.36298(8) 0.3456(5)
O15_2 O 0.91066(7) 0.38298(8) 0.1210(4)
H49_3 H 0.9013 0.0899 0.9225
O11_2 O 0.88702(8) 0.14366(7) 0.9044(5)
Zn10_2 Zn 0.880932(11) 0.175517(11) 0.74467(7)
C1_3 C 0.85985(14) 0.77606(11) 0.9171(7)
H1_3 H 0.8463 0.7630 0.8589
H2_3 H 0.8740 0.7857 0.8464
H3_3 H 0.8482 0.7915 0.9708
C10_3 C 0.94270(15) 0.81309(12) 0.9373(7)
H10_3 H 0.9535 0.8314 0.9096
H11_3 H 0.9277 0.8087 0.8584
H12_3 H 0.9569 0.7964 0.9444
C25_2 C 0.83075(12) 0.72098(11) 0.6476(7)
C26_2 C 0.80741(11) 0.73218(12) 0.5316(7)
C27_2 C 0.77684(13) 0.73221(17) 0.5709(8)
H21_2 H 0.7710 0.7270 0.6725
C28_2 C 0.75454(13) 0.73982(18) 0.4615(8)
H22_2 H 0.7341 0.7400 0.4922
C29_2 C 0.76186(11) 0.74702(13) 0.3101(6)
C30_2 C 0.79289(11) 0.74777(12) 0.2718(7)
H23_3 H 0.7987 0.7533 0.1707
C31_2 C 0.81517(11) 0.74050(12) 0.3815(7)
H24_2 H 0.8357 0.7413 0.3528
O5_3 O 0.81998(8) 0.71331(8) 0.7809(5)
O6_2 O 0.85816(8) 0.71978(8) 0.6105(5)
C35_3 C 0.74546(13) 0.76018(18) 0.0385(8)
H27_3 H 0.7659 0.7600 0.0078
C36_3 C 0.73814(11) 0.75298(13) 0.1899(6)
C37_3 C 0.70711(11) 0.75223(12) 0.2282(7)
H28_2 H 0.7013 0.7467 0.3293
C38_3 C 0.68483(11) 0.75950(12) 0.1185(7)
H29_3 H 0.6643 0.7587 0.1472
H7_3 H 0.6188 0.1804 0.0268
H13_3 H 0.6999 0.3497 0.0075
C14_3 C 0.74595(12) 0.35198(14) 0.0135(7)
H14_3 H 0.7474 0.3596 0.1153
C18_3 C 0.89047(10) 0.37082(10) 0.2056(7)
C19_3 C 0.86026(11) 0.36427(11) 0.1310(7)
C23_3 C 0.80812(12) 0.34696(14) 0.1542(8)
H19_3 H 0.7923 0.3395 0.2165
C24_3 C 0.83669(11) 0.35268(13) 0.2215(7)
H20_2 H 0.8399 0.3487 0.3275
Zn3_2 Zn 0.552290(11) 0.095943(11) 0.31011(7)
C39_2 C 0.47394(11) 0.10985(14) 0.3329(7)
H30_2 H 0.4870 0.0963 0.3911
H31_2 H 0.4643 0.1240 0.4036
H32_2 H 0.4585 0.0982 0.2792
C40_3 C 0.49268(9) 0.12716(11) 0.2153(6)
C41_3 C 0.48358(10) 0.14884(10) 0.1076(6)
C42_3 C 0.50968(10) 0.15716(11) 0.0239(6)
C46_3 C 0.45203(10) 0.15909(11) 0.0702(6)
C47_3 C 0.43256(10) 0.17725(12) 0.1580(6)
C48_2 C 0.43691(12) 0.19270(15) 0.3127(7)
H39_2 H 0.4186 0.2035 0.3404
H40_2 H 0.4413 0.1777 0.3916
H41_2 H 0.4536 0.2069 0.3056
C49_3 C 0.57779(12) 0.06589(10) 0.0187(7)
C55_3 C 0.57949(13) 0.00906(11) 0.0390(7)
H45_3 H 0.5720 0.0107 0.1409
N5_3 N 0.52296(8) 0.12239(8) 0.2002(5)
N6_3 N 0.53348(8) 0.14090(8) 0.0800(5)
N8_3 N 0.40675(8) 0.18023(9) 0.0757(5)
O9_3 O 0.56898(9) 0.06650(7) 0.1597(5)
H50_3 H 0.3901(13) 0.1929(13) 0.099(7)
O14_2 O 0.60634(7) 0.13702(8) 0.1544(5)
O16_2 O 0.58934(7) 0.11702(8) 0.3790(4)
O17_2 O 0.53669(8) 0.06998(8) 0.4691(5)
C4_2 C 0.00968(10) 0.15716(11) 0.4761(6)
C5_2 C 0.01274(12) 0.17994(13) 0.6046(8)
H4_2 H 0.0336 0.1806 0.6396
H6_2 H 0.0069 0.1998 0.5667
C11_2 C 0.07779(12) 0.06589(10) 0.4813(7)
C12_2 C 0.08498(12) 0.03518(10) 0.5488(7)
C13_2 C 0.09609(14) 0.03255(12) 0.6986(8)
H13_4 H 0.0997 0.0501 0.7575
C14_4 C 0.10198(14) 0.00405(12) 0.7635(7)
H14_4 H 0.1096 0.0026 0.8653
C17_2 C 0.07949(13) 0.00906(11) 0.4610(7)
H16_2 H 0.0720 0.0107 0.3591
N1_2 N 0.02296(8) 0.12239(8) 0.2998(5)
N2_2 N 0.03348(8) 0.14090(8) 0.4200(5)
O1_2 O 0.06898(9) 0.06650(7) 0.3403(5)
O2_2 O 0.08076(8) 0.08897(7) 0.5691(5)
O5_4 O 0.03669(8) 0.06998(8) 0.0309(5)
C15_2 C 0.09650(14) 0.97742(11) 0.6755(7)
C16_2 C 0.08516(14) 0.98061(12) 0.5254(8)
H15_2 H 0.0812 0.9632 0.4660
C18_4 C 0.12082(10) 0.85953(10) 0.9556(7)
C19_4 C 0.11427(11) 0.88974(11) 0.8810(7)
C20_2 C 0.11934(13) 0.89475(12) 0.7234(7)
H17_2 H 0.1269 0.8790 0.6613
C21_2 C 0.11335(15) 0.92282(12) 0.6568(8)
H18_2 H 0.1168 0.9257 0.5501
C22_2 C 0.10219(14) 0.94696(12) 0.7459(8)
C23_4 C 0.09696(14) 0.94188(12) 0.9042(8)
H19_4 H 0.0895 0.9577 0.9665
C24_4 C 0.10268(13) 0.91331(11) 0.9715(7)
C1_4 C 0.97394(11) 0.10985(14) 0.1671(7)
H1_4 H 0.9870 0.0963 0.1089
H2_4 H 0.9643 0.1240 0.0964
H3_4 H 0.9585 0.0982 0.2208
C2_2 C 0.99268(9) 0.12716(11) 0.2847(6)
C3_2 C 0.98358(10) 0.14884(10) 0.3924(6)
H5_2 H 0.9997 0.1742 0.6906
C6_2 C 0.94612(13) 0.13206(15) 0.6982(7)
H7_4 H 0.9304 0.1312 0.7768
H8_2 H 0.9645 0.1403 0.7435
H9_2 H 0.9501 0.1118 0.6593
C7_2 C 0.93589(10) 0.15195(11) 0.5667(6)
C8_2 C 0.95203(10) 0.15909(11) 0.4298(6)
C9_2 C 0.93256(10) 0.17725(12) 0.3420(6)
C10_4 C 0.93691(12) 0.19270(15) 0.1873(7)
H10_4 H 0.9186 0.2035 0.1596
H11_4 H 0.9413 0.1777 0.1084
H12_4 H 0.9536 0.2069 0.1944
N3_2 N 0.90815(8) 0.16507(9) 0.5638(5)
N4_2 N 0.90675(8) 0.18023(9) 0.4243(5)
H25_2 H 0.8901(13) 0.1929(13) 0.401(7)
C40_4 C 0.87716(11) 0.25732(9) 0.9653(6)
C41_4 C 0.89884(10) 0.26642(10) 0.8576(6)
C42_4 C 0.90716(11) 0.24032(10) 0.7739(6)
C43_2 C 0.92994(13) 0.23726(12) 0.6454(8)
H33_2 H 0.9306 0.2164 0.6104
H34_2 H 0.9242 0.2503 0.5594
H35_2 H 0.9498 0.2431 0.6833
C44_2 C 0.88206(15) 0.30388(13) 0.5518(7)
H36_2 H 0.8812 0.3196 0.4732
H37_2 H 0.8903 0.2855 0.5065
H38_2 H 0.8618 0.2999 0.5907
C45_2 C 0.90195(11) 0.31411(10) 0.6833(6)
C46_4 C 0.90909(11) 0.29797(10) 0.8202(6)
C47_4 C 0.92725(12) 0.31744(10) 0.9080(6)
C49_4 C 0.81589(10) 0.17221(12) 0.7687(7)
C50_2 C 0.78518(10) 0.16502(12) 0.7012(7)
C51_2 C 0.78255(12) 0.15391(14) 0.5514(8)
H42_2 H 0.8001 0.1503 0.4925
C52_2 C 0.75405(12) 0.14802(14) 0.4865(7)
H43_2 H 0.7526 0.1404 0.3847
C53_2 C 0.72742(11) 0.15350(14) 0.5745(7)
C54_2 C 0.73061(12) 0.16484(14) 0.7246(8)
H44_3 H 0.7132 0.1688 0.7840
C55_4 C 0.75906(11) 0.17051(13) 0.7890(7)
H45_4 H 0.7607 0.1780 0.8909
C56_2 C 0.60953(10) 0.12918(10) 0.2944(7)
C57_2 C 0.63974(11) 0.13573(11) 0.3690(7)
C58_2 C 0.64475(12) 0.13066(13) 0.5266(7)
H46_2 H 0.6290 0.1231 0.5887
C59_2 C 0.67282(12) 0.13665(15) 0.5932(8)
H47_2 H 0.6757 0.1332 0.6999
C60_2 C 0.69696(12) 0.14781(14) 0.5041(8)
C61_2 C 0.69188(12) 0.15304(14) 0.3458(8)
H48_2 H 0.7077 0.1605 0.2835
C62_2 C 0.66331(11) 0.14732(13) 0.2785(7)
H49_4 H 0.6601 0.1513 0.1725
N5_4 N 0.87239(8) 0.22704(8) 0.9502(5)
N6_4 N 0.89090(8) 0.21652(8) 0.8300(5)
N8_4 N 0.93023(9) 0.34325(8) 0.8257(5)
O9_4 O 0.81650(7) 0.18102(9) 0.9097(5)
O10_2 O 0.83897(7) 0.16924(8) 0.6809(5)
H50_4 H 0.9429(13) 0.3599(13) 0.849(7)
C32_2 C 0.52902(11) 0.08075(12) 0.6024(7)
C33_2 C 0.51782(12) 0.05741(11) 0.7184(7)
C34_2 C 0.51779(17) 0.02684(13) 0.6791(8)
H26_2 H 0.5230 0.0210 0.5775
C35_4 C 0.51018(18) 0.00454(13) 0.7885(8)
C36_4 C 0.50298(13) 0.01186(11) 0.9399(6)
C37_4 C 0.50223(12) 0.04289(11) 0.9782(7)
C38_4 C 0.50950(12) 0.06517(11) 0.8685(7)
H29_4 H 0.5087 0.0857 0.8972
O8_2 O 0.53022(8) 0.10816(8) 0.6395(5)
Zn1_3 Zn 0.345943(11) 0.197710(11) 0.43989(7)
Zn2_2 Zn 0.380932(11) 0.175517(11) 0.75533(7)
C1_5 C 0.35985(14) 0.27606(11) 0.4171(7)
H1_5 H 0.3463 0.2630 0.3589
H2_5 H 0.3740 0.2857 0.3464
H3_5 H 0.3482 0.2915 0.4708
C2_3 C 0.37716(11) 0.25732(9) 0.5347(6)
C3_3 C 0.39884(10) 0.26642(10) 0.6424(6)
C4_3 C 0.40716(11) 0.24032(10) 0.7261(6)
C5_3 C 0.42994(13) 0.23726(12) 0.8546(8)
H4_3 H 0.4306 0.2164 0.8896
H5_3 H 0.4242 0.2503 0.9406
H6_3 H 0.4498 0.2431 0.8167
C6_3 C 0.38206(15) 0.30388(13) 0.9482(7)
H8_3 H 0.3903 0.2855 0.9935
H9_3 H 0.3618 0.2999 0.9093
C7_3 C 0.40195(11) 0.31411(10) 0.8167(6)
C8_3 C 0.40909(11) 0.29797(10) 0.6798(6)
C9_3 C 0.42725(12) 0.31744(10) 0.5920(6)
C10_5 C 0.44270(15) 0.31309(12) 0.4373(7)
H10_5 H 0.4535 0.3314 0.4096
H11_5 H 0.4277 0.3087 0.3584
H12_5 H 0.4569 0.2964 0.4444
C11_3 C 0.31589(10) 0.17221(12) 0.7313(7)
C12_3 C 0.28518(10) 0.16502(12) 0.7988(7)
C13_3 C 0.28255(12) 0.15391(14) 0.9486(8)
C15_3 C 0.22742(11) 0.15350(14) 0.9255(7)
C16_3 C 0.23061(12) 0.16484(14) 0.7754(8)
H15_3 H 0.2132 0.1688 0.7160
C17_3 C 0.25906(11) 0.17051(13) 0.7110(7)
H16_3 H 0.2607 0.1780 0.6091
C20_3 C 0.14475(12) 0.13066(13) 0.9734(7)
H17_3 H 0.1290 0.1231 0.9113
C21_3 C 0.17282(12) 0.13665(15) 0.9068(8)
H18_3 H 0.1757 0.1332 0.8001
C22_3 C 0.19696(12) 0.14781(14) 0.9959(8)
C25_3 C 0.33075(12) 0.22098(11) 0.1476(7)
C26_3 C 0.30741(11) 0.23218(12) 0.0316(7)
C27_3 C 0.27684(13) 0.23221(17) 0.0709(8)
H21_3 H 0.2710 0.2270 0.1725
N1_3 N 0.37239(8) 0.22704(8) 0.5498(5)
N2_3 N 0.39090(8) 0.21652(8) 0.6700(5)
N3_3 N 0.41507(9) 0.34185(8) 0.8138(5)
N4_3 N 0.43023(9) 0.34325(8) 0.6743(5)
O1_3 O 0.31650(7) 0.18102(9) 0.5903(5)
O2_3 O 0.33897(7) 0.16924(8) 0.8191(5)
O5_5 O 0.31998(8) 0.21331(8) 0.2809(5)
O6_3 O 0.35816(8) 0.21978(8) 0.1105(5)
H25_3 H 0.4429(13) 0.3599(13) 0.651(7)
Zn4 Zn 0.425517(11) 0.369068(11) 0.99467(7)
C43_3 C 0.48726(12) 0.32006(13) 0.8954(8)
H33_3 H 0.4664 0.3194 0.8604
H34_3 H 0.5003 0.3258 0.8094
H35_3 H 0.4931 0.3002 0.9333
C44_3 C 0.55388(13) 0.36794(15) 0.8018(7)
H36_3 H 0.5696 0.3688 0.7232
H37_3 H 0.5355 0.3597 0.7565
H38_3 H 0.5499 0.3882 0.8407
C45_3 C 0.56411(10) 0.34805(11) 0.9333(6)
C50_3 C 0.41502(12) 0.46482(10) 0.9512(7)
C51_3 C 0.40391(14) 0.46745(12) 0.8014(8)
H42_3 H 0.4003 0.4499 0.7425
C52_3 C 0.39802(14) 0.49595(12) 0.7365(7)
H43_3 H 0.3904 0.4974 0.6347
C53_3 C 0.40350(14) 0.52258(11) 0.8245(7)
C54_3 C 0.41484(14) 0.51939(12) 0.9746(8)
C56_3 C 0.37918(10) 0.64047(10) 0.5444(7)
C57_3 C 0.38573(11) 0.61026(11) 0.6190(7)
C58_3 C 0.38066(13) 0.60525(12) 0.7766(7)
H46_3 H 0.3731 0.6210 0.8387
C59_3 C 0.38665(15) 0.57718(12) 0.8432(8)
H47_3 H 0.3832 0.5743 0.9499
C60_3 C 0.39781(14) 0.55304(12) 0.7541(8)
C61_3 C 0.40304(14) 0.55812(12) 0.5958(8)
H48_3 H 0.4105 0.5423 0.5335
C62_3 C 0.39732(13) 0.58669(11) 0.5285(7)
H49_5 H 0.4013 0.5899 0.4225
N7_2 N 0.59185(8) 0.33493(9) 0.9362(5)
O10_3 O 0.41924(8) 0.41103(7) 0.9309(5)
O11_3 O 0.38702(8) 0.64366(7) 0.4044(5)
O12 O 0.36702(8) 0.66066(7) 0.6290(4)
Zn7 Zn 0.345943(11) 0.697710(11) 0.56011(7)
Zn8 Zn 0.619068(11) 0.324483(11) 0.75533(7)
Zn10_3 Zn 0.380932(11) 0.675517(11) 0.24467(7)
N9_2 N 0.40815(8) 0.16507(9) 0.9362(5)
O13_2 O 0.38702(8) 0.14366(7) 0.5956(5)
O15_3 O 0.36702(8) 0.16066(7) 0.3710(4)
Zn9_2 Zn 0.425517(11) 0.869068(11) 0.00533(7)
C32_3 C 0.33075(12) 0.72098(11) 0.8524(7)
C33_3 C 0.30741(11) 0.73218(12) 0.9684(7)
C34_3 C 0.27684(13) 0.73221(17) 0.9291(8)
H26_3 H 0.2710 0.7270 0.8275
O7 O 0.31998(8) 0.71331(8) 0.7191(5)
O8_3 O 0.35816(8) 0.71978(8) 0.8895(5)
Zn2_3 Zn 0.574483(11) 0.630932(11) 0.00533(7)
C5_4 C 0.51274(12) 0.67994(13) 0.1046(8)
H4_4 H 0.5336 0.6806 0.1396
H5_4 H 0.4997 0.6742 0.1906
H6_4 H 0.5069 0.6998 0.0667
C6_4 C 0.44612(13) 0.63206(15) 0.1982(7)
H7_5 H 0.4304 0.6312 0.2768
H8_4 H 0.4645 0.6403 0.2435
H9_4 H 0.4501 0.6118 0.1593
C7_4 C 0.43589(10) 0.65195(11) 0.0667(6)
C12_4 C 0.58498(12) 0.53518(10) 0.0488(7)
C13_4 C 0.59609(14) 0.53255(12) 0.1986(8)
H13_5 H 0.5997 0.5501 0.2575
C14_5 C 0.60198(14) 0.50405(12) 0.2635(7)
H14_5 H 0.6096 0.5026 0.3653
C15_4 C 0.59650(14) 0.47742(11) 0.1755(7)
C16_4 C 0.58516(14) 0.48061(12) 0.0254(8)
C18_5 C 0.62082(10) 0.35953(10) 0.4556(7)
C19_5 C 0.61427(11) 0.38974(11) 0.3810(7)
C20_4 C 0.61934(13) 0.39475(12) 0.2234(7)
H17_4 H 0.6269 0.3790 0.1613
C21_4 C 0.61335(15) 0.42282(12) 0.1568(8)
H18_4 H 0.6168 0.4257 0.0501
C22_4 C 0.60219(14) 0.44696(12) 0.2459(8)
C23_5 C 0.59696(14) 0.44188(12) 0.4042(8)
H19_5 H 0.5895 0.4577 0.4665
C24_5 C 0.60268(13) 0.41331(11) 0.4715(7)
H20_3 H 0.5987 0.4101 0.5775
N3_4 N 0.40815(8) 0.66507(9) 0.0638(5)
O2_4 O 0.58076(8) 0.58897(7) 0.0691(5)
O3_2 O 0.61298(8) 0.35634(7) 0.5956(5)
O4_3 O 0.63298(8) 0.33934(7) 0.3710(4)
C39_3 C 0.35985(14) 0.77606(11) 0.5829(7)
H30_3 H 0.3463 0.7630 0.6411
H31_3 H 0.3740 0.7857 0.6536
H32_3 H 0.3482 0.7915 0.5292
C40_5 C 0.37716(11) 0.75732(9) 0.4653(6)
C41_5 C 0.39884(10) 0.76642(10) 0.3576(6)
C42_5 C 0.40716(11) 0.74032(10) 0.2739(6)
C43_4 C 0.42994(13) 0.73726(12) 0.1454(8)
H33_4 H 0.4306 0.7164 0.1104
H34_4 H 0.4242 0.7503 0.0594
H35_4 H 0.4498 0.7431 0.1833
C44_4 C 0.38206(15) 0.80388(13) 0.0518(7)
H37_4 H 0.3903 0.7855 0.0065
H38_4 H 0.3618 0.7999 0.0907
C45_4 C 0.40195(11) 0.81411(10) 0.1833(6)
C46_5 C 0.40909(11) 0.79797(10) 0.3202(6)
C47_5 C 0.42725(12) 0.81744(10) 0.4080(6)
C48_3 C 0.44270(15) 0.81309(12) 0.5627(7)
H39_3 H 0.4535 0.8314 0.5904
H40_3 H 0.4277 0.8087 0.6416
H41_3 H 0.4569 0.7964 0.5556
C49_5 C 0.31589(10) 0.67221(12) 0.2687(7)
C50_4 C 0.28518(10) 0.66502(12) 0.2012(7)
C51_4 C 0.28255(12) 0.65391(14) 0.0514(8)
C53_4 C 0.22742(11) 0.65350(14) 0.0745(7)
C54_4 C 0.23061(12) 0.66484(14) 0.2246(8)
H44_4 H 0.2132 0.6688 0.2840
C55_5 C 0.25906(11) 0.67051(13) 0.2890(7)
H45_5 H 0.2607 0.6780 0.3909
C58_4 C 0.14475(12) 0.63066(13) 0.0266(7)
H46_4 H 0.1290 0.6231 0.0887
C59_4 C 0.17282(12) 0.63665(15) 0.0932(8)
H47_4 H 0.1757 0.6332 0.1999
C60_4 C 0.19696(12) 0.64781(14) 0.0041(8)
N5_5 N 0.37239(8) 0.72704(8) 0.4502(5)
N6_5 N 0.39090(8) 0.71652(8) 0.3300(5)
N7_3 N 0.41507(9) 0.84185(8) 0.1862(5)
N8_5 N 0.43023(9) 0.84325(8) 0.3257(5)
O9_5 O 0.31650(7) 0.68102(9) 0.4097(5)
O10_4 O 0.33897(7) 0.66924(8) 0.1809(5)
H50_5 H 0.4429(13) 0.8599(13) 0.349(7)
Zn5_3 Zn 0.654057(11) 0.302290(11) 0.43989(7)
N9_3 N 0.58493(9) 0.65815(8) 0.1862(5)
H23_4 H 0.0033 0.4513 0.4207
C32_4 C 0.02902(11) 0.58075(12) 0.1024(7)
C33_4 C 0.01782(12) 0.55741(11) 0.2184(7)
C34_4 C 0.01779(17) 0.52684(13) 0.1791(8)
H26_4 H 0.0230 0.5210 0.0775
C35_5 C 0.01018(18) 0.50454(13) 0.2885(8)
H27_4 H 0.0100 0.4841 0.2578
C36_5 C 0.00298(13) 0.51186(11) 0.4399(6)
C37_5 C 0.00223(12) 0.54289(11) 0.4782(7)
C38_5 C 0.00950(12) 0.56517(11) 0.3685(7)
H29_5 H 0.0087 0.5857 0.3972
O8_4 O 0.03022(8) 0.60816(8) 0.1395(5)
C25_4 C 0.97098(11) 0.41925(12) 0.8976(7)
C26_4 C 0.98218(12) 0.44259(11) 0.7816(7)
C27_4 C 0.98221(17) 0.47316(13) 0.8209(8)
H21_4 H 0.9770 0.4790 0.9225
C28_3 C 0.98982(18) 0.49546(13) 0.7115(8)
H22_3 H 0.9900 0.5159 0.7422
C29_3 C 0.99702(13) 0.48814(11) 0.5601(6)
C30_3 C 0.99777(12) 0.45711(11) 0.5218(7)
C31_3 C 0.99050(12) 0.43483(11) 0.6315(7)
H24_3 H 0.9913 0.4143 0.6028
O6_4 O 0.96978(8) 0.39184(8) 0.8605(5)
H28_3 H 0.9967 0.5487 0.5793
C32_5 C 0.66925(12) 0.77902(11) 0.8524(7)
C33_5 C 0.69259(11) 0.76782(12) 0.9684(7)
C34_5 C 0.72316(13) 0.76779(17) 0.9291(8)
H26_5 H 0.7290 0.7730 0.8275
O7_2 O 0.68002(8) 0.78669(8) 0.7191(5)
O8_5 O 0.64184(8) 0.78022(8) 0.8895(5)
Zn6 Zn 0.654057(11) 0.802290(11) 0.56011(7)
C1_6 C 0.64015(14) 0.22394(11) 0.4171(7)
H1_6 H 0.6537 0.2370 0.3589
H2_6 H 0.6260 0.2143 0.3464
H3_6 H 0.6518 0.2085 0.4708
C2_4 C 0.62284(11) 0.24268(9) 0.5347(6)
C3_4 C 0.60116(10) 0.23358(10) 0.6424(6)
C4_4 C 0.59284(11) 0.25968(10) 0.7261(6)
C5_5 C 0.57006(13) 0.26274(12) 0.8546(8)
H4_5 H 0.5694 0.2836 0.8896
H5_5 H 0.5758 0.2497 0.9406
H6_5 H 0.5502 0.2569 0.8167
C6_5 C 0.61794(15) 0.19612(13) 0.9482(7)
H8_5 H 0.6097 0.2145 0.9935
H9_5 H 0.6382 0.2001 0.9093
C7_5 C 0.59805(11) 0.18589(10) 0.8167(6)
C8_4 C 0.59091(11) 0.20203(10) 0.6798(6)
C9_4 C 0.57275(12) 0.18256(10) 0.5920(6)
C10_6 C 0.55730(15) 0.18691(12) 0.4373(7)
H10_6 H 0.5465 0.1686 0.4096
H11_6 H 0.5723 0.1913 0.3584
H12_6 H 0.5431 0.2036 0.4444
C11_4 C 0.68411(10) 0.32779(12) 0.7313(7)
C12_5 C 0.71482(10) 0.33498(12) 0.7988(7)
C13_5 C 0.71745(12) 0.34609(14) 0.9486(8)
C15_5 C 0.77258(11) 0.34650(14) 0.9255(7)
C16_5 C 0.76939(12) 0.33516(14) 0.7754(8)
H15_4 H 0.7868 0.3312 0.7160
C17_4 C 0.74094(11) 0.32949(13) 0.7110(7)
H16_4 H 0.7393 0.3220 0.6091
C20_5 C 0.85525(12) 0.36934(13) 0.9734(7)
H17_5 H 0.8710 0.3769 0.9113
C21_5 C 0.82718(12) 0.36335(15) 0.9068(8)
H18_5 H 0.8243 0.3668 0.8001
C22_5 C 0.80304(12) 0.35219(14) 0.9959(8)
C25_5 C 0.66925(12) 0.27902(11) 0.1476(7)
C26_5 C 0.69259(11) 0.26782(12) 0.0316(7)
C27_5 C 0.72316(13) 0.26779(17) 0.0709(8)
H21_5 H 0.7290 0.2730 0.1725
N1_4 N 0.62761(8) 0.27296(8) 0.5498(5)
N2_4 N 0.60910(8) 0.28348(8) 0.6700(5)
N3_5 N 0.58493(9) 0.15815(8) 0.8138(5)
N4_4 N 0.56977(9) 0.15675(8) 0.6743(5)
O1_4 O 0.68350(7) 0.31898(9) 0.5903(5)
O2_5 O 0.66103(7) 0.33076(8) 0.8191(5)
O5_6 O 0.68002(8) 0.28669(8) 0.2809(5)
O6_5 O 0.64184(8) 0.28022(8) 0.1105(5)
H25_4 H 0.5571(13) 0.1401(13) 0.651(7)
Zn4_2 Zn 0.574483(11) 0.130932(11) 0.99467(7)
C43_5 C 0.51274(12) 0.17994(13) 0.8954(8)
H33_5 H 0.5336 0.1806 0.8604
H34_5 H 0.4997 0.1742 0.8094
H35_5 H 0.5069 0.1998 0.9333
C44_5 C 0.44612(13) 0.13206(15) 0.8018(7)
H36_4 H 0.4304 0.1312 0.7232
H37_5 H 0.4645 0.1403 0.7565
H38_5 H 0.4501 0.1118 0.8407
C45_5 C 0.43589(10) 0.15195(11) 0.9333(6)
C50_5 C 0.58498(12) 0.03518(10) 0.9512(7)
C51_5 C 0.59609(14) 0.03255(12) 0.8014(8)
H42_4 H 0.5997 0.0501 0.7425
C52_4 C 0.60198(14) 0.00405(12) 0.7365(7)
H43_4 H 0.6096 0.0026 0.6347
O10_5 O 0.58076(8) 0.08897(7) 0.9309(5)
C53_5 C 0.59650(14) 0.97742(11) 0.8245(7)
C54_5 C 0.58516(14) 0.98061(12) 0.9746(8)
C56_4 C 0.62082(10) 0.85953(10) 0.5444(7)
C57_4 C 0.61427(11) 0.88974(11) 0.6190(7)
C58_5 C 0.61934(13) 0.89475(12) 0.7766(7)
H46_5 H 0.6269 0.8790 0.8387
C59_5 C 0.61335(15) 0.92282(12) 0.8432(8)
H47_5 H 0.6168 0.9257 0.9499
C60_5 C 0.60219(14) 0.94696(12) 0.7541(8)
C61_4 C 0.59696(14) 0.94188(12) 0.5958(8)
H48_4 H 0.5895 0.9577 0.5335
C62_4 C 0.60268(13) 0.91331(11) 0.5285(7)
H49_6 H 0.5987 0.9101 0.4225
O11_4 O 0.61298(8) 0.85634(7) 0.4044(5)
O12_2 O 0.63298(8) 0.83934(7) 0.6290(4)
Zn10_4 Zn 0.619068(11) 0.824483(11) 0.24467(7)
H22_4 H 0.0100 0.9841 0.7422
H28_4 H 0.0033 0.9513 0.5793
H23_5 H 0.9967 0.0487 0.4207
H27_5 H 0.9900 0.0159 0.2578
C15_6 C 0.40350(14) 0.02258(11) 0.1755(7)
C16_6 C 0.41484(14) 0.01939(12) 0.0254(8)
C18_6 C 0.37918(10) 0.14047(10) 0.4556(7)
C19_6 C 0.38573(11) 0.11026(11) 0.3810(7)
C20_6 C 0.38066(13) 0.10525(12) 0.2234(7)
H17_6 H 0.3731 0.1210 0.1613
C21_6 C 0.38665(15) 0.07718(12) 0.1568(8)
H18_6 H 0.3832 0.0743 0.0501
C22_6 C 0.39781(14) 0.05304(12) 0.2459(8)
C23_6 C 0.40304(14) 0.05812(12) 0.4042(8)
H19_6 H 0.4105 0.0423 0.4665
C24_6 C 0.39732(13) 0.08669(11) 0.4715(7)
H20_4 H 0.4013 0.0899 0.5775
C5_6 C 0.48726(12) 0.82006(13) 0.1046(8)
H4_6 H 0.4664 0.8194 0.1396
H5_6 H 0.5003 0.8258 0.1906
H6_6 H 0.4931 0.8002 0.0667
C6_6 C 0.55388(13) 0.86794(15) 0.1982(7)
H7_6 H 0.5696 0.8688 0.2768
H8_6 H 0.5355 0.8597 0.2435
H9_6 H 0.5499 0.8882 0.1593
C7_6 C 0.56411(10) 0.84805(11) 0.0667(6)
C12_6 C 0.41502(12) 0.96482(10) 0.0488(7)
C13_6 C 0.40391(14) 0.96745(12) 0.1986(8)
H13_6 H 0.4003 0.9499 0.2575
C14_6 C 0.39802(14) 0.99595(12) 0.2635(7)
H14_6 H 0.3904 0.9974 0.3653
N3_6 N 0.59185(8) 0.83493(9) 0.0638(5)
O2_6 O 0.41924(8) 0.91103(7) 0.0691(5)
C39_4 C 0.64015(14) 0.72394(11) 0.5829(7)
H30_4 H 0.6537 0.7370 0.6411
H31_4 H 0.6260 0.7143 0.6536
H32_4 H 0.6518 0.7085 0.5292
C40_6 C 0.62284(11) 0.74268(9) 0.4653(6)
C41_6 C 0.60116(10) 0.73358(10) 0.3576(6)
C42_6 C 0.59284(11) 0.75968(10) 0.2739(6)
C43_6 C 0.57006(13) 0.76274(12) 0.1454(8)
H33_6 H 0.5694 0.7836 0.1104
H34_6 H 0.5758 0.7497 0.0594
H35_6 H 0.5502 0.7569 0.1833
C44_6 C 0.61794(15) 0.69612(13) 0.0518(7)
H37_6 H 0.6097 0.7145 0.0065
H38_6 H 0.6382 0.7001 0.0907
C45_6 C 0.59805(11) 0.68589(10) 0.1833(6)
C46_6 C 0.59091(11) 0.70203(10) 0.3202(6)
C47_6 C 0.57275(12) 0.68256(10) 0.4080(6)
C48_4 C 0.55730(15) 0.68691(12) 0.5627(7)
H39_4 H 0.5465 0.6686 0.5904
H40_4 H 0.5723 0.6913 0.6416
H41_4 H 0.5431 0.7036 0.5556
C49_6 C 0.68411(10) 0.82779(12) 0.2687(7)
C50_6 C 0.71482(10) 0.83498(12) 0.2012(7)
C51_6 C 0.71745(12) 0.84609(14) 0.0514(8)
C53_6 C 0.77258(11) 0.84650(14) 0.0745(7)
C54_6 C 0.76939(12) 0.83516(14) 0.2246(8)
H44_5 H 0.7868 0.8312 0.2840
C55_6 C 0.74094(11) 0.82949(13) 0.2890(7)
H45_6 H 0.7393 0.8220 0.3909
C58_6 C 0.85525(12) 0.86934(13) 0.0266(7)
H46_6 H 0.8710 0.8769 0.0887
C59_6 C 0.82718(12) 0.86335(15) 0.0932(8)
H47_6 H 0.8243 0.8668 0.1999
C60_6 C 0.80304(12) 0.85219(14) 0.0041(8)
N5_6 N 0.62761(8) 0.77296(8) 0.4502(5)
N6_6 N 0.60910(8) 0.78348(8) 0.3300(5)
N8_6 N 0.56977(9) 0.65675(8) 0.3257(5)
O9_6 O 0.68350(7) 0.81898(9) 0.4097(5)
O10_6 O 0.66103(7) 0.83076(8) 0.1809(5)
H50_6 H 0.5571(13) 0.6401(13) 0.349(7)
C28_4 C 0.25454(13) 0.23982(18) 0.9615(8)
H22_5 H 0.2341 0.2400 0.9922
C29_4 C 0.26186(11) 0.24702(13) 0.8101(6)
C30_4 C 0.29289(11) 0.24777(12) 0.7718(7)
H23_6 H 0.2987 0.2533 0.6707
C31_4 C 0.31517(11) 0.24050(12) 0.8815(7)
H24_4 H 0.3357 0.2413 0.8528
C32_6 C 0.16925(12) 0.27902(11) 0.3524(7)
C33_6 C 0.19259(11) 0.26782(12) 0.4684(7)
C34_6 C 0.22316(13) 0.26779(17) 0.4291(8)
H26_6 H 0.2290 0.2730 0.3275
C35_6 C 0.24546(13) 0.26018(18) 0.5385(8)
H27_6 H 0.2659 0.2600 0.5078
C36_6 C 0.23814(11) 0.25298(13) 0.6899(6)
C37_6 C 0.20711(11) 0.25223(12) 0.7282(7)
H28_5 H 0.2013 0.2467 0.8293
C38_6 C 0.18483(11) 0.25950(12) 0.6185(7)
H29_6 H 0.1643 0.2587 0.6472
O7_3 O 0.18002(8) 0.28669(8) 0.2191(5)
O8_6 O 0.14184(8) 0.28022(8) 0.3895(5)
Zn6_2 Zn 0.154057(11) 0.302290(11) 0.06011(7)
Zn2_4 Zn 0.119068(11) 0.824483(11) 0.25533(7)
C2_5 C 0.12284(11) 0.74268(9) 0.0347(6)
C3_5 C 0.10116(10) 0.73358(10) 0.1424(6)
C4_5 C 0.09284(11) 0.75968(10) 0.2261(6)
C5_7 C 0.07006(13) 0.76274(12) 0.3546(8)
H4_7 H 0.0694 0.7836 0.3896
H5_7 H 0.0758 0.7497 0.4406
H6_7 H 0.0502 0.7569 0.3167
C6_7 C 0.11794(15) 0.69612(13) 0.4482(7)
H7_7 H 0.1188 0.6804 0.5268
H8_7 H 0.1097 0.7145 0.4935
H9_7 H 0.1382 0.7001 0.4093
C7_7 C 0.09805(11) 0.68589(10) 0.3167(6)
C8_5 C 0.09091(11) 0.70203(10) 0.1798(6)
C9_5 C 0.07275(12) 0.68256(10) 0.0920(6)
C11_5 C 0.18411(10) 0.82779(12) 0.2313(7)
C12_7 C 0.21482(10) 0.83498(12) 0.2988(7)
C13_7 C 0.21745(12) 0.84609(14) 0.4486(8)
H13_7 H 0.1999 0.8497 0.5075
C14_7 C 0.24595(12) 0.85198(14) 0.5135(7)
H14_7 H 0.2474 0.8596 0.6153
C15_7 C 0.27258(11) 0.84650(14) 0.4255(7)
C16_7 C 0.26939(12) 0.83516(14) 0.2754(8)
H15_5 H 0.2868 0.8312 0.2160
C17_5 C 0.24094(11) 0.82949(13) 0.2110(7)
H16_5 H 0.2393 0.8220 0.1091
C18_7 C 0.39047(10) 0.87082(10) 0.7056(7)
C19_7 C 0.36026(11) 0.86427(11) 0.6310(7)
C20_7 C 0.35525(12) 0.86934(13) 0.4734(7)
H17_7 H 0.3710 0.8769 0.4113
C21_7 C 0.32718(12) 0.86335(15) 0.4068(8)
H18_7 H 0.3243 0.8668 0.3001
C22_7 C 0.30304(12) 0.85219(14) 0.4959(8)
C23_7 C 0.30812(12) 0.84696(14) 0.6542(8)
H19_7 H 0.2923 0.8395 0.7165
C24_7 C 0.33669(11) 0.85268(13) 0.7215(7)
H20_5 H 0.3399 0.8487 0.8275
N1_5 N 0.12761(8) 0.77296(8) 0.0498(5)
N2_5 N 0.10910(8) 0.78348(8) 0.1700(5)
N3_7 N 0.08493(9) 0.65815(8) 0.3138(5)
N4_5 N 0.06977(9) 0.65675(8) 0.1743(5)
O1_5 O 0.18350(7) 0.81898(9) 0.0903(5)
O2_7 O 0.16103(7) 0.83076(8) 0.3191(5)
O3_3 O 0.39366(7) 0.86298(8) 0.8456(5)
O4_4 O 0.41066(7) 0.88298(8) 0.6210(4)
H25_5 H 0.0571(13) 0.6401(13) 0.151(7)
Zn3_3 Zn 0.052290(11) 0.595943(11) 0.81011(7)
Zn4_3 Zn 0.074483(11) 0.630932(11) 0.49467(7)
C42_7 C 0.00968(10) 0.65716(11) 0.5239(6)
C43_7 C 0.01274(12) 0.67994(13) 0.3954(8)
H33_7 H 0.0336 0.6806 0.3604
H35_7 H 0.0069 0.6998 0.4333
C49_7 C 0.07779(12) 0.56589(10) 0.5187(7)
C50_7 C 0.08498(12) 0.53518(10) 0.4512(7)
C51_7 C 0.09609(14) 0.53255(12) 0.3014(8)
H42_5 H 0.0997 0.5501 0.2425
C52_5 C 0.10198(14) 0.50405(12) 0.2365(7)
H43_5 H 0.1096 0.5026 0.1347
C53_7 C 0.09650(14) 0.47742(11) 0.3245(7)
C54_7 C 0.08516(14) 0.48061(12) 0.4746(8)
H44_6 H 0.0812 0.4632 0.5340
C55_7 C 0.07949(13) 0.50906(11) 0.5390(7)
H45_7 H 0.0720 0.5107 0.6409
C56_5 C 0.12082(10) 0.35953(10) 0.0444(7)
C57_5 C 0.11427(11) 0.38974(11) 0.1190(7)
C58_7 C 0.11934(13) 0.39475(12) 0.2766(7)
H46_7 H 0.1269 0.3790 0.3387
C59_7 C 0.11335(15) 0.42282(12) 0.3432(8)
H47_7 H 0.1168 0.4257 0.4499
C60_7 C 0.10219(14) 0.44696(12) 0.2541(8)
C61_5 C 0.09696(14) 0.44188(12) 0.0958(8)
H48_5 H 0.0895 0.4577 0.0335
C62_5 C 0.10268(13) 0.41331(11) 0.0285(7)
N5_7 N 0.02296(8) 0.62239(8) 0.7002(5)
N6_7 N 0.03348(8) 0.64090(8) 0.5800(5)
O9_7 O 0.06898(9) 0.56650(7) 0.6597(5)
O10_7 O 0.08076(8) 0.58897(7) 0.4309(5)
O12_3 O 0.13298(8) 0.33934(7) 0.1290(4)
Zn5_4 Zn 0.447710(11) 0.904057(11) 0.68989(7)
N9_4 N 0.09185(8) 0.83493(9) 0.4362(5)
O13_3 O 0.11298(8) 0.85634(7) 0.0956(5)
O14_3 O 0.10634(7) 0.63702(8) 0.6544(5)
O16_3 O 0.08934(7) 0.61702(8) 0.8790(4)
O17_3 O 0.03669(8) 0.56998(8) 0.9691(5)
C39_5 C 0.97394(11) 0.60985(14) 0.8329(7)
H30_5 H 0.9870 0.5963 0.8911
H31_5 H 0.9643 0.6240 0.9036
H32_5 H 0.9585 0.5982 0.7792
C40_7 C 0.99268(9) 0.62716(11) 0.7153(6)
C41_7 C 0.98358(10) 0.64884(10) 0.6076(6)
H34_7 H 0.9997 0.6742 0.3094
C44_7 C 0.94612(13) 0.63206(15) 0.3018(7)
H36_5 H 0.9304 0.6312 0.2232
H37_7 H 0.9645 0.6403 0.2565
H38_7 H 0.9501 0.6118 0.3407
C45_7 C 0.93589(10) 0.65195(11) 0.4333(6)
C46_7 C 0.95203(10) 0.65909(11) 0.5702(6)
C47_7 C 0.93256(10) 0.67725(12) 0.6580(6)
C48_5 C 0.93691(12) 0.69270(15) 0.8127(7)
H39_5 H 0.9186 0.7035 0.8404
H40_5 H 0.9413 0.6777 0.8916
H41_5 H 0.9536 0.7069 0.8056
N7_4 N 0.90815(8) 0.66507(9) 0.4362(5)
N8_7 N 0.90675(8) 0.68023(9) 0.5757(5)
H50_7 H 0.8901(13) 0.6929(13) 0.599(7)
Zn8_2 Zn 0.880932(11) 0.675517(11) 0.25533(7)
Zn1_4 Zn 0.552290(11) 0.595943(11) 0.68989(7)
C1_7 C 0.47394(11) 0.60985(14) 0.6671(7)
H1_7 H 0.4870 0.5963 0.6089
H2_7 H 0.4643 0.6240 0.5964
H3_7 H 0.4585 0.5982 0.7208
C2_6 C 0.49268(9) 0.62716(11) 0.7847(6)
C3_6 C 0.48358(10) 0.64884(10) 0.8924(6)
C4_6 C 0.50968(10) 0.65716(11) 0.9761(6)
C8_6 C 0.45203(10) 0.65909(11) 0.9298(6)
C9_6 C 0.43256(10) 0.67725(12) 0.8420(6)
C10_7 C 0.43691(12) 0.69270(15) 0.6873(7)
H10_7 H 0.4186 0.7035 0.6596
H11_7 H 0.4413 0.6777 0.6084
H12_7 H 0.4536 0.7069 0.6944
C11_6 C 0.57779(12) 0.56589(10) 0.9813(7)
H15_6 H 0.5812 0.4632 0.9660
C17_6 C 0.57949(13) 0.50906(11) 0.9610(7)
H16_6 H 0.5720 0.5107 0.8591
C25_6 C 0.52902(11) 0.58075(12) 0.3976(7)
C26_6 C 0.51782(12) 0.55741(11) 0.2816(7)
C27_6 C 0.51779(17) 0.52684(13) 0.3209(8)
H21_6 H 0.5230 0.5210 0.4225
C28_5 C 0.51018(18) 0.50454(13) 0.2115(8)
H22_6 H 0.5100 0.4841 0.2422
C29_5 C 0.50298(13) 0.51186(11) 0.0601(6)
C30_5 C 0.50223(12) 0.54289(11) 0.0218(7)
C31_5 C 0.50950(12) 0.56517(11) 0.1315(7)
H24_5 H 0.5087 0.5857 0.1028
N1_6 N 0.52296(8) 0.62239(8) 0.7998(5)
N2_6 N 0.53348(8) 0.64090(8) 0.9200(5)
N4_6 N 0.40675(8) 0.68023(9) 0.9243(5)
O1_6 O 0.56898(9) 0.56650(7) 0.8403(5)
O5_7 O 0.53669(8) 0.56998(8) 0.5309(5)
O6_6 O 0.53022(8) 0.60816(8) 0.3605(5)
H25_6 H 0.3901(13) 0.6929(13) 0.901(7)
H28_6 H 0.5033 0.4513 0.0793
H36_6 H 0.3812 0.8196 0.9732
H42_6 H 0.3001 0.6503 0.9925
C52_6 C 0.25405(12) 0.64802(14) 0.9865(7)
H43_6 H 0.2526 0.6404 0.8847
C56_6 C 0.10953(10) 0.62918(10) 0.7944(7)
C57_6 C 0.13974(11) 0.63573(11) 0.8690(7)
C61_6 C 0.19188(12) 0.65304(14) 0.8458(8)
H48_6 H 0.2077 0.6605 0.7835
C62_6 C 0.16331(11) 0.64732(13) 0.7785(7)
H49_7 H 0.1601 0.6513 0.6725
O13_4 O 0.60634(7) 0.63702(8) 0.8456(5)
O15_4 O 0.58934(7) 0.61702(8) 0.6210(4)
C39_6 C 0.14015(14) 0.22394(11) 0.0829(7)
H30_6 H 0.1537 0.2370 0.1411
H31_6 H 0.1260 0.2143 0.1536
H32_6 H 0.1518 0.2085 0.0292
C48_6 C 0.05730(15) 0.18691(12) 0.0627(7)
H39_6 H 0.0465 0.1686 0.0904
H40_6 H 0.0723 0.1913 0.1416
H41_6 H 0.0431 0.2036 0.0556
H20_6 H 0.9013 0.5899 0.0775
O3_4 O 0.88702(8) 0.64366(7) 0.0956(5)
C39_7 C 0.02606(11) 0.89015(14) 0.8329(7)
H30_7 H 0.0130 0.9037 0.8911
H31_7 H 0.0357 0.8760 0.9036
H32_7 H 0.0415 0.9018 0.7792
C40_8 C 0.00732(9) 0.87284(11) 0.7153(6)
C41_8 C 0.01642(10) 0.85116(10) 0.6076(6)
H34_8 H 0.0003 0.8258 0.3094
C44_8 C 0.05388(13) 0.86794(15) 0.3018(7)
H36_7 H 0.0696 0.8688 0.2232
H37_8 H 0.0355 0.8597 0.2565
H38_8 H 0.0499 0.8882 0.3407
C45_8 C 0.06411(10) 0.84805(11) 0.4333(6)
C46_8 C 0.04797(10) 0.84091(11) 0.5702(6)
C47_8 C 0.06744(10) 0.82275(12) 0.6580(6)
C48_7 C 0.06309(12) 0.80730(15) 0.8127(7)
H39_7 H 0.0814 0.7965 0.8404
H40_7 H 0.0587 0.8223 0.8916
H41_7 H 0.0464 0.7931 0.8056
N8_8 N 0.09325(8) 0.81977(9) 0.5757(5)
H50_8 H 0.1099(13) 0.8071(13) 0.599(7)
C53_8 C 0.90350(14) 0.02258(11) 0.3245(7)
C54_8 C 0.91484(14) 0.01939(12) 0.4746(8)
H44_7 H 0.9188 0.0368 0.5340
C56_7 C 0.87918(10) 0.14047(10) 0.0444(7)
C57_7 C 0.88573(11) 0.11026(11) 0.1190(7)
C58_8 C 0.88066(13) 0.10525(12) 0.2766(7)
H46_8 H 0.8731 0.1210 0.3387
C59_8 C 0.88665(15) 0.07718(12) 0.3432(8)
H47_8 H 0.8832 0.0743 0.4499
C60_8 C 0.89781(14) 0.05304(12) 0.2541(8)
C61_7 C 0.90304(14) 0.05812(12) 0.0958(8)
H48_7 H 0.9105 0.0423 0.0335
C62_7 C 0.89732(13) 0.08669(11) 0.0285(7)
O12_4 O 0.86702(8) 0.16066(7) 0.1290(4)
Zn7_2 Zn 0.845943(11) 0.197710(11) 0.06011(7)
C2_7 C 0.87716(11) 0.75732(9) 0.0347(6)
C3_7 C 0.89884(10) 0.76642(10) 0.1424(6)
C4_7 C 0.90716(11) 0.74032(10) 0.2261(6)
C5_8 C 0.92994(13) 0.73726(12) 0.3546(8)
H4_8 H 0.9306 0.7164 0.3896
H5_8 H 0.9242 0.7503 0.4406
H6_8 H 0.9498 0.7431 0.3167
C6_8 C 0.88206(15) 0.80388(13) 0.4482(7)
H7_8 H 0.8812 0.8196 0.5268
H8_8 H 0.8903 0.7855 0.4935
H9_8 H 0.8618 0.7999 0.4093
C7_8 C 0.90195(11) 0.81411(10) 0.3167(6)
C8_7 C 0.90909(11) 0.79797(10) 0.1798(6)
C9_7 C 0.92725(12) 0.81744(10) 0.0920(6)
C11_7 C 0.81589(10) 0.67221(12) 0.2313(7)
C12_8 C 0.78518(10) 0.66502(12) 0.2988(7)
C13_8 C 0.78255(12) 0.65391(14) 0.4486(8)
H13_8 H 0.8001 0.6503 0.5075
C14_8 C 0.75405(12) 0.64802(14) 0.5135(7)
H14_8 H 0.7526 0.6404 0.6153
C15_8 C 0.72742(11) 0.65350(14) 0.4255(7)
C16_8 C 0.73061(12) 0.66484(14) 0.2754(8)
H15_7 H 0.7132 0.6688 0.2160
C17_7 C 0.75906(11) 0.67051(13) 0.2110(7)
H16_7 H 0.7607 0.6780 0.1091
C18_8 C 0.60953(10) 0.62918(10) 0.7056(7)
C19_8 C 0.63974(11) 0.63573(11) 0.6310(7)
C20_8 C 0.64475(12) 0.63066(13) 0.4734(7)
H17_8 H 0.6290 0.6231 0.4113
C21_8 C 0.67282(12) 0.63665(15) 0.4068(8)
H18_8 H 0.6757 0.6332 0.3001
C22_8 C 0.69696(12) 0.64781(14) 0.4959(8)
C23_8 C 0.69188(12) 0.65304(14) 0.6542(8)
H19_8 H 0.7077 0.6605 0.7165
C24_8 C 0.66331(11) 0.64732(13) 0.7215(7)
H20_7 H 0.6601 0.6513 0.8275
N1_7 N 0.87239(8) 0.72704(8) 0.0498(5)
N2_7 N 0.89090(8) 0.71652(8) 0.1700(5)
N3_8 N 0.91507(9) 0.84185(8) 0.3138(5)
N4_7 N 0.93023(9) 0.84325(8) 0.1743(5)
O1_7 O 0.81650(7) 0.68102(9) 0.0903(5)
O2_8 O 0.83897(7) 0.66924(8) 0.3191(5)
H25_7 H 0.9429(13) 0.8599(13) 0.151(7)
Zn3_4 Zn 0.947710(11) 0.904057(11) 0.81011(7)
Zn4_4 Zn 0.925517(11) 0.869068(11) 0.49467(7)
C42_8 C 0.99032(10) 0.84284(11) 0.5239(6)
C43_8 C 0.98726(12) 0.82006(13) 0.3954(8)
H33_8 H 0.9664 0.8194 0.3604
H35_8 H 0.9931 0.8002 0.4333
C49_8 C 0.92221(12) 0.93411(10) 0.5187(7)
C50_8 C 0.91502(12) 0.96482(10) 0.4512(7)
C51_8 C 0.90391(14) 0.96745(12) 0.3014(8)
H42_7 H 0.9003 0.9499 0.2425
C52_7 C 0.89802(14) 0.99595(12) 0.2365(7)
H43_7 H 0.8904 0.9974 0.1347
C55_8 C 0.92051(13) 0.99094(11) 0.5390(7)
H45_8 H 0.9280 0.9893 0.6409
N5_8 N 0.97704(8) 0.87761(8) 0.7002(5)
N6_8 N 0.96652(8) 0.85910(8) 0.5800(5)
O9_8 O 0.93102(9) 0.93350(7) 0.6597(5)
O10_8 O 0.91924(8) 0.91103(7) 0.4309(5)
O14_4 O 0.89366(7) 0.86298(8) 0.6544(5)
O16_4 O 0.91066(7) 0.88298(8) 0.8790(4)
O17_4 O 0.96331(8) 0.93002(8) 0.9691(5)
C28_6 C 0.74546(13) 0.26018(18) 0.9615(8)
H22_7 H 0.7659 0.2600 0.9922
C29_6 C 0.73814(11) 0.25298(13) 0.8101(6)
C30_6 C 0.70711(11) 0.25223(12) 0.7718(7)
H23_7 H 0.7013 0.2467 0.6707
C31_6 C 0.68483(11) 0.25950(12) 0.8815(7)
H24_6 H 0.6643 0.2587 0.8528
C32_7 C 0.83075(12) 0.22098(11) 0.3524(7)
C33_7 C 0.80741(11) 0.23218(12) 0.4684(7)
C34_7 C 0.77684(13) 0.23221(17) 0.4291(8)
H26_7 H 0.7710 0.2270 0.3275
C35_7 C 0.75454(13) 0.23982(18) 0.5385(8)
H27_7 H 0.7341 0.2400 0.5078
C36_7 C 0.76186(11) 0.24702(13) 0.6899(6)
C37_7 C 0.79289(11) 0.24777(12) 0.7282(7)
H28_7 H 0.7987 0.2533 0.8293
C38_7 C 0.81517(11) 0.24050(12) 0.6185(7)
H29_7 H 0.8357 0.2413 0.6472
O7_4 O 0.81998(8) 0.21331(8) 0.2191(5)
O8_7 O 0.85816(8) 0.21978(8) 0.3895(5)
H20_8 H 0.0987 0.9101 0.0775
C39_8 C 0.85985(14) 0.27606(11) 0.0829(7)
H30_8 H 0.8463 0.2630 0.1411
H31_8 H 0.8740 0.2857 0.1536
H32_8 H 0.8482 0.2915 0.0292
C48_8 C 0.94270(15) 0.31309(12) 0.0627(7)
H39_8 H 0.9535 0.3314 0.0904
H40_8 H 0.9277 0.3087 0.1416
H41_8 H 0.9569 0.2964 0.0556
C1_8 C 0.52606(11) 0.89015(14) 0.6671(7)
H1_8 H 0.5130 0.9037 0.6089
H2_8 H 0.5357 0.8760 0.5964
H3_8 H 0.5415 0.9018 0.7208
C2_8 C 0.50732(9) 0.87284(11) 0.7847(6)
C3_8 C 0.51642(10) 0.85116(10) 0.8924(6)
C4_8 C 0.49032(10) 0.84284(11) 0.9761(6)
C8_8 C 0.54797(10) 0.84091(11) 0.9298(6)
C9_8 C 0.56744(10) 0.82275(12) 0.8420(6)
C10_8 C 0.56309(12) 0.80730(15) 0.6873(7)
H10_8 H 0.5814 0.7965 0.6596
H11_8 H 0.5587 0.8223 0.6084
H12_8 H 0.5464 0.7931 0.6944
C11_8 C 0.42221(12) 0.93411(10) 0.9813(7)
C17_8 C 0.42051(13) 0.99094(11) 0.9610(7)
H16_8 H 0.4280 0.9893 0.8591
C25_7 C 0.47098(11) 0.91925(12) 0.3976(7)
C26_7 C 0.48218(12) 0.94259(11) 0.2816(7)
C27_7 C 0.48221(17) 0.97316(13) 0.3209(8)
H21_7 H 0.4770 0.9790 0.4225
C28_7 C 0.48982(18) 0.99546(13) 0.2115(8)
C29_7 C 0.49702(13) 0.98814(11) 0.0601(6)
C30_7 C 0.49777(12) 0.95711(11) 0.0218(7)
C31_7 C 0.49050(12) 0.93483(11) 0.1315(7)
H24_7 H 0.4913 0.9143 0.1028
N1_8 N 0.47704(8) 0.87761(8) 0.7998(5)
N2_8 N 0.46652(8) 0.85910(8) 0.9200(5)
N4_8 N 0.59325(8) 0.81977(9) 0.9243(5)
O1_8 O 0.43102(9) 0.93350(7) 0.8403(5)
O5_8 O 0.46331(8) 0.93002(8) 0.5309(5)
O6_7 O 0.46978(8) 0.89184(8) 0.3605(5)
H25_8 H 0.6099(13) 0.8071(13) 0.901(7)
H36_8 H 0.6188 0.6804 0.9732
H42_8 H 0.6999 0.8497 0.9925
C52_8 C 0.74595(12) 0.85198(14) 0.9865(7)
H43_8 H 0.7474 0.8596 0.8847
C56_8 C 0.89047(10) 0.87082(10) 0.7944(7)
C57_8 C 0.86026(11) 0.86427(11) 0.8690(7)
C61_8 C 0.80812(12) 0.84696(14) 0.8458(8)
H48_8 H 0.7923 0.8395 0.7835
C62_8 C 0.83669(11) 0.85268(13) 0.7785(7)
H49_8 H 0.8399 0.8487 0.6725
H44_8 H 0.5812 0.9632 0.0340
H23_8 H 0.5033 0.9513 0.9207
H27_8 H 0.5100 0.9841 0.7578
C25_8 C 0.02902(11) 0.08075(12) 0.8976(7)
C26_8 C 0.01782(12) 0.05741(11) 0.7816(7)
C27_8 C 0.01779(17) 0.02684(13) 0.8209(8)
H21_8 H 0.0230 0.0210 0.9225
C28_8 C 0.01018(18) 0.00454(13) 0.7115(8)
C29_8 C 0.00298(13) 0.01186(11) 0.5601(6)
C30_8 C 0.00223(12) 0.04289(11) 0.5218(7)
C31_8 C 0.00950(12) 0.06517(11) 0.6315(7)
H24_8 H 0.0087 0.0857 0.6028
O6_8 O 0.03022(8) 0.10816(8) 0.8605(5)
C32_8 C 0.97098(11) 0.91925(12) 0.1024(7)
C33_8 C 0.98218(12) 0.94259(11) 0.2184(7)
C34_8 C 0.98221(17) 0.97316(13) 0.1791(8)
H26_8 H 0.9770 0.9790 0.0775
C35_8 C 0.98982(18) 0.99546(13) 0.2885(8)
C36_8 C 0.99702(13) 0.98814(11) 0.4399(6)
C37_8 C 0.99777(12) 0.95711(11) 0.4782(7)
C38_8 C 0.99050(12) 0.93483(11) 0.3685(7)
H29_8 H 0.9913 0.9143 0.3972
O8_8 O 0.96978(8) 0.89184(8) 0.1395(5)
H15_8 H 0.4188 0.0368 0.9660
H22_8 H 0.4900 0.0159 0.2422
H28_8 H 0.4967 0.0487 0.0793
loop_
_geom_bond_atom_site_label_1
_geom_bond_atom_site_label_2
_geom_bond_site_symmetry_1
_geom_bond_site_symmetry_2
H14 C14 1_555 1_555
C18 C19 1_555 1_555
H19 C23 1_555 1_555
C24 C19 1_555 1_555
H20 C24 1_555 1_555
O3 C18 1_555 1_555
O4 C18 1_555 1_555
Zn3 N5 1_555 1_555
C39 H30 1_555 1_555
H31 C39 1_555 1_555
H32 C39 1_555 1_555
C40 C39 1_555 1_555
C41 C40 1_555 1_555
C42 C41 1_555 1_555
C46 C41 1_555 1_555
C47 C46 1_555 1_555
C48 C47 1_555 1_555
H39 C48 1_555 1_555
H40 C48 1_555 1_555
H41 C48 1_555 1_555
H45 C55 1_555 1_555
N5 C40 1_555 1_555
N8 C47 1_555 1_555
O9 Zn3 1_555 1_555
H50 N8 1_555 1_555
Zn5 O4 1_555 1_555
Zn9 O3 1_555 1_555
O16 Zn3 1_555 1_555
O17 Zn3 1_555 1_555
C23 C24 1_555 1_555
C42 N6 1_555 1_555
C49 O9 1_555 1_555
N5 N6 1_555 1_555
C1 H1 1_555 1_555
H2 C1 1_555 1_555
H3 C1 1_555 1_555
H10 C10 1_555 1_555
H11 C10 1_555 1_555
H12 C10 1_555 1_555
C25 C26 1_555 1_555
C26 C27 1_555 1_555
C27 H21 1_555 1_555
C28 C27 1_555 1_555
H22 C28 1_555 1_555
C29 C28 1_555 1_555
C30 C29 1_555 1_555
H23 C30 1_555 1_555
C31 C26 1_555 1_555
H24 C31 1_555 1_555
O5 Zn1 1_555 1_555
O6 C25 1_555 1_555
H27 C35 1_555 1_555
C36 C29 1_555 1_555
C37 C36 1_555 1_555
H28 C37 1_555 1_555
H29 C38 1_555 1_555
Zn10 O11 1_555 1_555
O15 Zn1 1_555 1_555
C25 O5 1_555 1_555
C30 C31 1_555 1_555
C35 C36 1_555 1_555
C37 C38 1_555 1_555
C32 C33 1_555 1_555
C33 C34 1_555 1_555
C34 H26 1_555 1_555
C35_2 C34 1_555 1_555
H27_2 C35_2 1_555 1_555
C37_2 C36_2 1_555 1_555
C38_2 C33 1_555 1_555
H29_2 C38_2 1_555 1_555
O17 C32 1_555 1_555
O8 C32 1_555 1_555
C35_2 C36_2 1_555 1_555
C37_2 C38_2 1_555 1_555
C1_2 H1_2 1_555 1_555
H2_2 C1_2 1_555 1_555
H3_2 C1_2 1_555 1_555
C2 C1_2 1_555 1_555
C3 C2 1_555 1_555
C6 H7_2 1_555 1_555
H8 C6 1_555 1_555
H9 C6 1_555 1_555
C7 C6 1_555 1_555
C8 C3 1_555 1_555
C9 C8 1_555 1_555
C10_2 C9 1_555 1_555
H10_2 C10_2 1_555 1_555
H11_2 C10_2 1_555 1_555
H12_2 C10_2 1_555 1_555
N3 C7 1_555 1_555
N4 C9 1_555 1_555
H25 N4 1_555 1_555
Zn10 N3 1_555 1_555
C41_2 C40_2 1_555 1_555
C42_2 C41_2 1_555 1_555
C43 C42_2 1_555 1_555
H33 C43 1_555 1_555
H34 C43 1_555 1_555
H35 C43 1_555 1_555
C44 H36 1_555 1_555
H37 C44 1_555 1_555
H38 C44 1_555 1_555
C45 C44 1_555 1_555
C46_2 C41_2 1_555 1_555
C47_2 C46_2 1_555 1_555
C49_2 C50 1_555 1_555
C50 C51 1_555 1_555
C51 H42 1_555 1_555
C52 C51 1_555 1_555
H43 C52 1_555 1_555
C53 C52 1_555 1_555
C54 C53 1_555 1_555
H44_2 C54 1_555 1_555
C55_2 C50 1_555 1_555
H45_2 C55_2 1_555 1_555
C56 C57 1_555 1_555
C57 C58 1_555 1_555
C58 H46 1_555 1_555
C59 C58 1_555 1_555
H47 C59 1_555 1_555
C60 C53 1_555 1_555
C61 C60 1_555 1_555
H48 C61 1_555 1_555
C62 C57 1_555 1_555
H49_2 C62 1_555 1_555
N5_2 C40_2 1_555 1_555
N6_2 Zn10 1_555 1_555
N7 C45 1_555 1_555
N8_2 C47_2 1_555 1_555
O10 Zn10 1_555 1_555
O14 C56 1_555 1_555
O16 C56 1_555 1_555
H50_2 N8_2 1_555 1_555
Zn9 N7 1_555 1_555
C7 C8 1_555 1_555
N3 N4 1_555 1_555
C42_2 N6_2 1_555 1_555
C45 C46_2 1_555 1_555
C49_2 O9_2 1_555 1_555
C49_2 O10 1_555 1_555
C54 C55_2 1_555 1_555
C59 C60 1_555 1_555
C61 C62 1_555 1_555
N5_2 N6_2 1_555 1_555
N7 N8_2 1_555 1_555
Zn1_2 N1 1_555 1_555
Zn2 N2 1_555 1_555
C5 C4 1_555 1_555
H4 C5 1_555 1_555
H6 C5 1_555 1_555
C11 C12 1_555 1_555
C12 C13 1_555 1_555
C13 H13_2 1_555 1_555
C14_2 C13 1_555 1_555
H14_2 C14_2 1_555 1_555
C15 C14_2 1_555 1_555
C16 C15 1_555 1_555
H15 C16 1_555 1_555
C17 C12 1_555 1_555
H16 C17 1_555 1_555
C18_2 C19_2 1_555 1_555
C19_2 C20 1_555 1_555
C20 H17 1_555 1_555
C21 C20 1_555 1_555
H18 C21 1_555 1_555
C22 C15 1_555 1_555
C23_2 C22 1_555 1_555
H19_2 C23_2 1_555 1_555
C24_2 C19_2 1_555 1_555
N2 C4 1_555 1_555
O1 Zn1_2 1_555 1_555
O2 Zn2 1_555 1_555
O4_2 C18_2 1_555 1_555
O5_2 Zn1_2 1_555 1_555
Zn5_2 O4_2 1_555 1_555
N9 Zn2 1_555 1_555
O13 Zn2 1_555 1_555
O15_2 Zn1_2 1_555 1_555
C11 O1 1_555 1_555
C11 O2 1_555 1_555
C16 C17 1_555 1_555
C21 C22 1_555 1_555
C23_2 C24_2 1_555 1_555
N1 N2 1_555 1_555
Zn10_2 O11_2 1_555 1_555
C1_3 H1_3 1_555 1_555
H2_3 C1_3 1_555 1_555
H3_3 C1_3 1_555 1_555
H10_3 C10_3 1_555 1_555
H11_3 C10_3 1_555 1_555
H12_3 C10_3 1_555 1_555
C25_2 C26_2 1_555 1_555
C26_2 C27_2 1_555 1_555
C27_2 H21_2 1_555 1_555
C28_2 C27_2 1_555 1_555
H22_2 C28_2 1_555 1_555
C29_2 C28_2 1_555 1_555
C30_2 C29_2 1_555 1_555
H23_3 C30_2 1_555 1_555
C31_2 C26_2 1_555 1_555
H24_2 C31_2 1_555 1_555
O5_3 Zn5_2 1_555 1_555
O6_2 C25_2 1_555 1_555
H27_3 C35_3 1_555 1_555
C36_3 C29_2 1_555 1_555
C37_3 C36_3 1_555 1_555
H28_2 C37_3 1_555 1_555
H29_3 C38_3 1_555 1_555
C25_2 O5_3 1_555 1_555
C30_2 C31_2 1_555 1_555
C35_3 C36_3 1_555 1_555
C37_3 C38_3 1_555 1_555
H14_3 C14_3 1_555 1_555
C18_3 C19_3 1_555 1_555
H19_3 C23_3 1_555 1_555
C24_3 C19_3 1_555 1_555
H20_2 C24_3 1_555 1_555
O13 C18_3 1_555 1_555
O15_2 C18_3 1_555 1_555
Zn3_2 N5_3 1_555 1_555
C39_2 H30_2 1_555 1_555
H31_2 C39_2 1_555 1_555
H32_2 C39_2 1_555 1_555
C40_3 C39_2 1_555 1_555
C41_3 C40_3 1_555 1_555
C42_3 C41_3 1_555 1_555
C46_3 C41_3 1_555 1_555
C47_3 C46_3 1_555 1_555
C48_2 C47_3 1_555 1_555
H39_2 C48_2 1_555 1_555
H40_2 C48_2 1_555 1_555
H41_2 C48_2 1_555 1_555
H45_3 C55_3 1_555 1_555
N5_3 C40_3 1_555 1_555
N8_3 C47_3 1_555 1_555
O9_3 Zn3_2 1_555 1_555
H50_3 N8_3 1_555 1_555
O16_2 Zn3_2 1_555 1_555
O17_2 Zn3_2 1_555 1_555
C23_3 C24_3 1_555 1_555
C42_3 N6_3 1_555 1_555
C49_3 O9_3 1_555 1_555
N5_3 N6_3 1_555 1_555
Zn5 N1_2 1_555 1_555
Zn9 N2_2 1_555 1_555
C5_2 C4_2 1_555 1_555
H4_2 C5_2 1_555 1_555
H6_2 C5_2 1_555 1_555
C11_2 C12_2 1_555 1_555
C12_2 C13_2 1_555 1_555
C13_2 H13_4 1_555 1_555
C14_4 C13_2 1_555 1_555
H14_4 C14_4 1_555 1_555
C17_2 C12_2 1_555 1_555
H16_2 C17_2 1_555 1_555
N2_2 C4_2 1_555 1_555
O1_2 Zn5 1_555 1_555
O2_2 Zn9 1_555 1_555
O5_4 Zn5 1_555 1_555
C11_2 O1_2 1_555 1_555
C11_2 O2_2 1_555 1_555
N1_2 N2_2 1_555 1_555
C16_2 C15_2 1_555 1_555
H15_2 C16_2 1_555 1_555
C18_4 C19_4 1_555 1_555
C19_4 C20_2 1_555 1_555
C20_2 H17_2 1_555 1_555
C21_2 C20_2 1_555 1_555
H18_2 C21_2 1_555 1_555
C22_2 C15_2 1_555 1_555
C23_4 C22_2 1_555 1_555
H19_4 C23_4 1_555 1_555
C24_4 C19_4 1_555 1_555
O15 C18_4 1_555 1_555
C21_2 C22_2 1_555 1_555
C23_4 C24_4 1_555 1_555
C1_4 H1_4 1_555 1_555
H2_4 C1_4 1_555 1_555
H3_4 C1_4 1_555 1_555
C2_2 C1_4 1_555 1_555
C3_2 C2_2 1_555 1_555
C6_2 H7_4 1_555 1_555
H8_2 C6_2 1_555 1_555
H9_2 C6_2 1_555 1_555
C7_2 C6_2 1_555 1_555
C8_2 C3_2 1_555 1_555
C9_2 C8_2 1_555 1_555
C10_4 C9_2 1_555 1_555
H10_4 C10_4 1_555 1_555
H11_4 C10_4 1_555 1_555
H12_4 C10_4 1_555 1_555
N3_2 C7_2 1_555 1_555
N4_2 C9_2 1_555 1_555
H25_2 N4_2 1_555 1_555
Zn10_2 N3_2 1_555 1_555
C41_4 C40_4 1_555 1_555
C42_4 C41_4 1_555 1_555
C43_2 C42_4 1_555 1_555
H33_2 C43_2 1_555 1_555
H34_2 C43_2 1_555 1_555
H35_2 C43_2 1_555 1_555
C44_2 H36_2 1_555 1_555
H37_2 C44_2 1_555 1_555
H38_2 C44_2 1_555 1_555
C45_2 C44_2 1_555 1_555
C46_4 C41_4 1_555 1_555
C47_4 C46_4 1_555 1_555
C49_4 C50_2 1_555 1_555
C50_2 C51_2 1_555 1_555
C51_2 H42_2 1_555 1_555
C52_2 C51_2 1_555 1_555
H43_2 C52_2 1_555 1_555
C53_2 C52_2 1_555 1_555
C54_2 C53_2 1_555 1_555
H44_3 C54_2 1_555 1_555
C55_4 C50_2 1_555 1_555
H45_4 C55_4 1_555 1_555
C56_2 C57_2 1_555 1_555
C57_2 C58_2 1_555 1_555
C58_2 H46_2 1_555 1_555
C59_2 C58_2 1_555 1_555
H47_2 C59_2 1_555 1_555
C60_2 C53_2 1_555 1_555
C61_2 C60_2 1_555 1_555
H48_2 C61_2 1_555 1_555
C62_2 C57_2 1_555 1_555
H49_4 C62_2 1_555 1_555
N5_4 C40_4 1_555 1_555
N6_4 Zn10_2 1_555 1_555
N9 C45_2 1_555 1_555
N8_4 C47_4 1_555 1_555
O10_2 Zn10_2 1_555 1_555
O14_2 C56_2 1_555 1_555
O16_2 C56_2 1_555 1_555
H50_4 N8_4 1_555 1_555
C7_2 C8_2 1_555 1_555
N3_2 N4_2 1_555 1_555
C42_4 N6_4 1_555 1_555
C45_2 C46_4 1_555 1_555
C49_4 O9_4 1_555 1_555
C49_4 O10_2 1_555 1_555
C54_2 C55_4 1_555 1_555
C59_2 C60_2 1_555 1_555
C61_2 C62_2 1_555 1_555
N5_4 N6_4 1_555 1_555
N9 N8_4 1_555 1_555
C32_2 C33_2 1_555 1_555
C33_2 C34_2 1_555 1_555
C34_2 H26_2 1_555 1_555
C35_4 C34_2 1_555 1_555
C37_4 C36_4 1_555 1_555
C38_4 C33_2 1_555 1_555
H29_4 C38_4 1_555 1_555
O17_2 C32_2 1_555 1_555
O8_2 C32_2 1_555 1_555
C35_4 C36_4 1_555 1_555
C37_4 C38_4 1_555 1_555
Zn1_3 N1_3 1_555 1_555
Zn2_2 N2_3 1_555 1_555
C1_5 H1_5 1_555 1_555
H2_5 C1_5 1_555 1_555
H3_5 C1_5 1_555 1_555
C2_3 C1_5 1_555 1_555
C3_3 C2_3 1_555 1_555
C4_3 C3_3 1_555 1_555
C5_3 C4_3 1_555 1_555
H4_3 C5_3 1_555 1_555
H5_3 C5_3 1_555 1_555
H6_3 C5_3 1_555 1_555
H8_3 C6_3 1_555 1_555
H9_3 C6_3 1_555 1_555
C7_3 C6_3 1_555 1_555
C8_3 C3_3 1_555 1_555
C9_3 C8_3 1_555 1_555
C10_5 C9_3 1_555 1_555
H10_5 C10_5 1_555 1_555
H11_5 C10_5 1_555 1_555
H12_5 C10_5 1_555 1_555
C11_3 C12_3 1_555 1_555
C12_3 C13_3 1_555 1_555
C16_3 C15_3 1_555 1_555
H15_3 C16_3 1_555 1_555
C17_3 C12_3 1_555 1_555
H16_3 C17_3 1_555 1_555
C20_3 H17_3 1_555 1_555
C21_3 C20_3 1_555 1_555
H18_3 C21_3 1_555 1_555
C22_3 C15_3 1_555 1_555
C25_3 C26_3 1_555 1_555
C26_3 C27_3 1_555 1_555
C27_3 H21_3 1_555 1_555
N1_3 C2_3 1_555 1_555
N2_3 C4_3 1_555 1_555
N3_3 C7_3 1_555 1_555
N4_3 C9_3 1_555 1_555
O1_3 Zn1_3 1_555 1_555
O2_3 Zn2_2 1_555 1_555
O5_5 Zn1_3 1_555 1_555
O6_3 C25_3 1_555 1_555
H25_3 N4_3 1_555 1_555
Zn4 N3_3 1_555 1_555
H33_3 C43_3 1_555 1_555
H34_3 C43_3 1_555 1_555
H35_3 C43_3 1_555 1_555
C44_3 H36_3 1_555 1_555
H37_3 C44_3 1_555 1_555
H38_3 C44_3 1_555 1_555
C45_3 C44_3 1_555 1_555
C50_3 C51_3 1_555 1_555
C51_3 H42_3 1_555 1_555
C52_3 C51_3 1_555 1_555
H43_3 C52_3 1_555 1_555
C53_3 C52_3 1_555 1_555
C54_3 C53_3 1_555 1_555
C56_3 C57_3 1_555 1_555
C57_3 C58_3 1_555 1_555
C58_3 H46_3 1_555 1_555
C59_3 C58_3 1_555 1_555
H47_3 C59_3 1_555 1_555
C60_3 C53_3 1_555 1_555
C61_3 C60_3 1_555 1_555
H48_3 C61_3 1_555 1_555
C62_3 C57_3 1_555 1_555
H49_5 C62_3 1_555 1_555
N7_2 C45_3 1_555 1_555
O10_3 Zn4 1_555 1_555
O11_3 C56_3 1_555 1_555
O12 C56_3 1_555 1_555
Zn7 O12 1_555 1_555
Zn8 N7_2 1_555 1_555
Zn10_3 O11_3 1_555 1_555
N9_2 Zn2_2 1_555 1_555
O13_2 Zn2_2 1_555 1_555
O15_3 Zn1_3 1_555 1_555
C7_3 C8_3 1_555 1_555
C11_3 O1_3 1_555 1_555
C11_3 O2_3 1_555 1_555
C16_3 C17_3 1_555 1_555
C21_3 C22_3 1_555 1_555
C25_3 O5_5 1_555 1_555
N1_3 N2_3 1_555 1_555
N3_3 N4_3 1_555 1_555
C59_3 C60_3 1_555 1_555
C61_3 C62_3 1_555 1_555
C32_3 C33_3 1_555 1_555
C33_3 C34_3 1_555 1_555
C34_3 H26_3 1_555 1_555
O7 C32_3 1_555 1_555
O8_3 C32_3 1_555 1_555
Zn7 O7 1_555 1_555
H4_4 C5_4 1_555 1_555
H5_4 C5_4 1_555 1_555
H6_4 C5_4 1_555 1_555
C6_4 H7_5 1_555 1_555
H8_4 C6_4 1_555 1_555
H9_4 C6_4 1_555 1_555
C7_4 C6_4 1_555 1_555
C12_4 C13_4 1_555 1_555
C13_4 H13_5 1_555 1_555
C14_5 C13_4 1_555 1_555
H14_5 C14_5 1_555 1_555
C15_4 C14_5 1_555 1_555
C16_4 C15_4 1_555 1_555
C18_5 C19_5 1_555 1_555
C19_5 C20_4 1_555 1_555
C20_4 H17_4 1_555 1_555
C21_4 C20_4 1_555 1_555
H18_4 C21_4 1_555 1_555
C22_4 C15_4 1_555 1_555
C23_5 C22_4 1_555 1_555
H19_5 C23_5 1_555 1_555
C24_5 C19_5 1_555 1_555
H20_3 C24_5 1_555 1_555
N3_4 C7_4 1_555 1_555
O2_4 Zn2_3 1_555 1_555
O3_2 C18_5 1_555 1_555
O4_3 C18_5 1_555 1_555
Zn7 N5_5 1_555 1_555
Zn10_3 N3_4 1_555 1_555
C39_3 H30_3 1_555 1_555
H31_3 C39_3 1_555 1_555
H32_3 C39_3 1_555 1_555
C40_5 C39_3 1_555 1_555
C41_5 C40_5 1_555 1_555
C42_5 C41_5 1_555 1_555
C43_4 C42_5 1_555 1_555
H33_4 C43_4 1_555 1_555
H34_4 C43_4 1_555 1_555
H35_4 C43_4 1_555 1_555
H37_4 C44_4 1_555 1_555
H38_4 C44_4 1_555 1_555
C45_4 C44_4 1_555 1_555
C46_5 C41_5 1_555 1_555
C47_5 C46_5 1_555 1_555
C48_3 C47_5 1_555 1_555
H39_3 C48_3 1_555 1_555
H40_3 C48_3 1_555 1_555
H41_3 C48_3 1_555 1_555
C49_5 C50_4 1_555 1_555
C50_4 C51_4 1_555 1_555
C54_4 C53_4 1_555 1_555
H44_4 C54_4 1_555 1_555
C55_5 C50_4 1_555 1_555
H45_5 C55_5 1_555 1_555
C58_4 H46_4 1_555 1_555
C59_4 C58_4 1_555 1_555
H47_4 C59_4 1_555 1_555
C60_4 C53_4 1_555 1_555
N5_5 C40_5 1_555 1_555
N6_5 Zn10_3 1_555 1_555
N7_3 C45_4 1_555 1_555
N8_5 C47_5 1_555 1_555
O9_5 Zn7 1_555 1_555
O10_4 Zn10_3 1_555 1_555
H50_5 N8_5 1_555 1_555
Zn5_3 O4_3 1_555 1_555
Zn9_2 N7_3 1_555 1_555
Zn8 O3_2 1_555 1_555
N9_3 Zn2_3 1_555 1_555
C21_4 C22_4 1_555 1_555
C23_5 C24_5 1_555 1_555
C42_5 N6_5 1_555 1_555
C45_4 C46_5 1_555 1_555
C49_5 O9_5 1_555 1_555
C49_5 O10_4 1_555 1_555
C54_4 C55_5 1_555 1_555
C59_4 C60_4 1_555 1_555
N5_5 N6_5 1_555 1_555
N7_3 N8_5 1_555 1_555
C32_4 C33_4 1_555 1_555
C33_4 C34_4 1_555 1_555
C34_4 H26_4 1_555 1_555
C35_5 C34_4 1_555 1_555
H27_4 C35_5 1_555 1_555
C37_5 C36_5 1_555 1_555
C38_5 C33_4 1_555 1_555
H29_5 C38_5 1_555 1_555
O8_4 C32_4 1_555 1_555
C35_5 C36_5 1_555 1_555
C37_5 C38_5 1_555 1_555
C25_4 C26_4 1_555 1_555
C26_4 C27_4 1_555 1_555
C27_4 H21_4 1_555 1_555
C28_3 C27_4 1_555 1_555
H22_3 C28_3 1_555 1_555
C29_3 C28_3 1_555 1_555
C30_3 C29_3 1_555 1_555
C31_3 C26_4 1_555 1_555
H24_3 C31_3 1_555 1_555
O6_4 C25_4 1_555 1_555
C30_3 C31_3 1_555 1_555
C32_5 C33_5 1_555 1_555
C33_5 C34_5 1_555 1_555
C34_5 H26_5 1_555 1_555
O7_2 C32_5 1_555 1_555
O8_5 C32_5 1_555 1_555
Zn6 O7_2 1_555 1_555
Zn5_3 N1_4 1_555 1_555
Zn8 N2_4 1_555 1_555
C1_6 H1_6 1_555 1_555
H2_6 C1_6 1_555 1_555
H3_6 C1_6 1_555 1_555
C2_4 C1_6 1_555 1_555
C3_4 C2_4 1_555 1_555
C4_4 C3_4 1_555 1_555
C5_5 C4_4 1_555 1_555
H4_5 C5_5 1_555 1_555
H5_5 C5_5 1_555 1_555
H6_5 C5_5 1_555 1_555
H8_5 C6_5 1_555 1_555
H9_5 C6_5 1_555 1_555
C7_5 C6_5 1_555 1_555
C8_4 C3_4 1_555 1_555
C9_4 C8_4 1_555 1_555
C10_6 C9_4 1_555 1_555
H10_6 C10_6 1_555 1_555
H11_6 C10_6 1_555 1_555
H12_6 C10_6 1_555 1_555
C11_4 C12_5 1_555 1_555
C12_5 C13_5 1_555 1_555
C16_5 C15_5 1_555 1_555
H15_4 C16_5 1_555 1_555
C17_4 C12_5 1_555 1_555
H16_4 C17_4 1_555 1_555
C20_5 H17_5 1_555 1_555
C21_5 C20_5 1_555 1_555
H18_5 C21_5 1_555 1_555
C22_5 C15_5 1_555 1_555
C25_5 C26_5 1_555 1_555
C26_5 C27_5 1_555 1_555
C27_5 H21_5 1_555 1_555
N1_4 C2_4 1_555 1_555
N2_4 C4_4 1_555 1_555
N3_5 C7_5 1_555 1_555
N4_4 C9_4 1_555 1_555
O1_4 Zn5_3 1_555 1_555
O2_5 Zn8 1_555 1_555
O5_6 Zn5_3 1_555 1_555
O6_5 C25_5 1_555 1_555
H25_4 N4_4 1_555 1_555
Zn4_2 N3_5 1_555 1_555
H33_5 C43_5 1_555 1_555
H34_5 C43_5 1_555 1_555
H35_5 C43_5 1_555 1_555
C44_5 H36_4 1_555 1_555
H37_5 C44_5 1_555 1_555
H38_5 C44_5 1_555 1_555
C45_5 C44_5 1_555 1_555
C50_5 C51_5 1_555 1_555
C51_5 H42_4 1_555 1_555
C52_4 C51_5 1_555 1_555
H43_4 C52_4 1_555 1_555
N9_2 C45_5 1_555 1_555
O10_5 Zn4_2 1_555 1_555
C7_5 C8_4 1_555 1_555
C11_4 O1_4 1_555 1_555
C11_4 O2_5 1_555 1_555
C16_5 C17_4 1_555 1_555
C21_5 C22_5 1_555 1_555
C25_5 O5_6 1_555 1_555
N1_4 N2_4 1_555 1_555
N3_5 N4_4 1_555 1_555
C54_5 C53_5 1_555 1_555
C56_4 C57_4 1_555 1_555
C57_4 C58_5 1_555 1_555
C58_5 H46_5 1_555 1_555
C59_5 C58_5 1_555 1_555
H47_5 C59_5 1_555 1_555
C60_5 C53_5 1_555 1_555
C61_4 C60_5 1_555 1_555
H48_4 C61_4 1_555 1_555
C62_4 C57_4 1_555 1_555
H49_6 C62_4 1_555 1_555
O11_4 C56_4 1_555 1_555
O12_2 C56_4 1_555 1_555
Zn6 O12_2 1_555 1_555
Zn10_4 O11_4 1_555 1_555
C59_5 C60_5 1_555 1_555
C61_4 C62_4 1_555 1_555
C16_6 C15_6 1_555 1_555
C18_6 C19_6 1_555 1_555
C19_6 C20_6 1_555 1_555
C20_6 H17_6 1_555 1_555
C21_6 C20_6 1_555 1_555
H18_6 C21_6 1_555 1_555
C22_6 C15_6 1_555 1_555
C23_6 C22_6 1_555 1_555
H19_6 C23_6 1_555 1_555
C24_6 C19_6 1_555 1_555
H20_4 C24_6 1_555 1_555
O13_2 C18_6 1_555 1_555
O15_3 C18_6 1_555 1_555
C21_6 C22_6 1_555 1_555
C23_6 C24_6 1_555 1_555
H4_6 C5_6 1_555 1_555
H5_6 C5_6 1_555 1_555
H6_6 C5_6 1_555 1_555
C6_6 H7_6 1_555 1_555
H8_6 C6_6 1_555 1_555
H9_6 C6_6 1_555 1_555
C7_6 C6_6 1_555 1_555
C12_6 C13_6 1_555 1_555
C13_6 H13_6 1_555 1_555
C14_6 C13_6 1_555 1_555
H14_6 C14_6 1_555 1_555
N3_6 C7_6 1_555 1_555
O2_6 Zn9_2 1_555 1_555
Zn6 N5_6 1_555 1_555
Zn10_4 N3_6 1_555 1_555
C39_4 H30_4 1_555 1_555
H31_4 C39_4 1_555 1_555
H32_4 C39_4 1_555 1_555
C40_6 C39_4 1_555 1_555
C41_6 C40_6 1_555 1_555
C42_6 C41_6 1_555 1_555
C43_6 C42_6 1_555 1_555
H33_6 C43_6 1_555 1_555
H34_6 C43_6 1_555 1_555
H35_6 C43_6 1_555 1_555
H37_6 C44_6 1_555 1_555
H38_6 C44_6 1_555 1_555
C45_6 C44_6 1_555 1_555
C46_6 C41_6 1_555 1_555
C47_6 C46_6 1_555 1_555
C48_4 C47_6 1_555 1_555
H39_4 C48_4 1_555 1_555
H40_4 C48_4 1_555 1_555
H41_4 C48_4 1_555 1_555
C49_6 C50_6 1_555 1_555
C50_6 C51_6 1_555 1_555
C54_6 C53_6 1_555 1_555
H44_5 C54_6 1_555 1_555
C55_6 C50_6 1_555 1_555
H45_6 C55_6 1_555 1_555
C58_6 H46_6 1_555 1_555
C59_6 C58_6 1_555 1_555
H47_6 C59_6 1_555 1_555
C60_6 C53_6 1_555 1_555
N5_6 C40_6 1_555 1_555
N6_6 Zn10_4 1_555 1_555
N9_3 C45_6 1_555 1_555
N8_6 C47_6 1_555 1_555
O9_6 Zn6 1_555 1_555
O10_6 Zn10_4 1_555 1_555
H50_6 N8_6 1_555 1_555
C42_6 N6_6 1_555 1_555
C45_6 C46_6 1_555 1_555
C49_6 O9_6 1_555 1_555
C49_6 O10_6 1_555 1_555
C54_6 C55_6 1_555 1_555
C59_6 C60_6 1_555 1_555
N5_6 N6_6 1_555 1_555
N9_3 N8_6 1_555 1_555
H22_5 C28_4 1_555 1_555
C29_4 C28_4 1_555 1_555
C30_4 C29_4 1_555 1_555
H23_6 C30_4 1_555 1_555
H24_4 C31_4 1_555 1_555
C32_6 C33_6 1_555 1_555
C33_6 C34_6 1_555 1_555
C34_6 H26_6 1_555 1_555
C35_6 C34_6 1_555 1_555
H27_6 C35_6 1_555 1_555
C36_6 C29_4 1_555 1_555
C37_6 C36_6 1_555 1_555
H28_5 C37_6 1_555 1_555
C38_6 C33_6 1_555 1_555
H29_6 C38_6 1_555 1_555
O7_3 C32_6 1_555 1_555
O8_6 C32_6 1_555 1_555
Zn6_2 O7_3 1_555 1_555
C30_4 C31_4 1_555 1_555
C35_6 C36_6 1_555 1_555
C37_6 C38_6 1_555 1_555
Zn2_4 N2_5 1_555 1_555
C3_5 C2_5 1_555 1_555
C4_5 C3_5 1_555 1_555
C5_7 C4_5 1_555 1_555
H4_7 C5_7 1_555 1_555
H5_7 C5_7 1_555 1_555
H6_7 C5_7 1_555 1_555
C6_7 H7_7 1_555 1_555
H8_7 C6_7 1_555 1_555
H9_7 C6_7 1_555 1_555
C7_7 C6_7 1_555 1_555
C8_5 C3_5 1_555 1_555
C9_5 C8_5 1_555 1_555
C11_5 C12_7 1_555 1_555
C12_7 C13_7 1_555 1_555
C13_7 H13_7 1_555 1_555
C14_7 C13_7 1_555 1_555
H14_7 C14_7 1_555 1_555
C15_7 C14_7 1_555 1_555
C16_7 C15_7 1_555 1_555
H15_5 C16_7 1_555 1_555
C17_5 C12_7 1_555 1_555
H16_5 C17_5 1_555 1_555
C18_7 C19_7 1_555 1_555
C19_7 C20_7 1_555 1_555
C20_7 H17_7 1_555 1_555
C21_7 C20_7 1_555 1_555
H18_7 C21_7 1_555 1_555
C22_7 C15_7 1_555 1_555
C23_7 C22_7 1_555 1_555
H19_7 C23_7 1_555 1_555
C24_7 C19_7 1_555 1_555
H20_5 C24_7 1_555 1_555
N1_5 C2_5 1_555 1_555
N2_5 C4_5 1_555 1_555
N3_7 C7_7 1_555 1_555
N4_5 C9_5 1_555 1_555
O2_7 Zn2_4 1_555 1_555
O3_3 C18_7 1_555 1_555
O4_4 C18_7 1_555 1_555
H25_5 N4_5 1_555 1_555
Zn3_3 N5_7 1_555 1_555
Zn4_3 N3_7 1_555 1_555
C43_7 C42_7 1_555 1_555
H33_7 C43_7 1_555 1_555
H35_7 C43_7 1_555 1_555
C49_7 C50_7 1_555 1_555
C50_7 C51_7 1_555 1_555
C51_7 H42_5 1_555 1_555
C52_5 C51_7 1_555 1_555
H43_5 C52_5 1_555 1_555
C53_7 C52_5 1_555 1_555
C54_7 C53_7 1_555 1_555
H44_6 C54_7 1_555 1_555
C55_7 C50_7 1_555 1_555
H45_7 C55_7 1_555 1_555
C56_5 C57_5 1_555 1_555
C57_5 C58_7 1_555 1_555
C58_7 H46_7 1_555 1_555
C59_7 C58_7 1_555 1_555
H47_7 C59_7 1_555 1_555
C60_7 C53_7 1_555 1_555
C61_5 C60_7 1_555 1_555
H48_5 C61_5 1_555 1_555
C62_5 C57_5 1_555 1_555
N6_7 Zn4_3 1_555 1_555
O9_7 Zn3_3 1_555 1_555
O10_7 Zn4_3 1_555 1_555
O12_3 C56_5 1_555 1_555
Zn5_4 O4_4 1_555 1_555
Zn6_2 O12_3 1_555 1_555
N9_4 Zn2_4 1_555 1_555
O13_3 Zn2_4 1_555 1_555
O14_3 Zn4_3 1_555 1_555
O16_3 Zn3_3 1_555 1_555
O17_3 Zn3_3 1_555 1_555
C7_7 C8_5 1_555 1_555
C11_5 O1_5 1_555 1_555
C11_5 O2_7 1_555 1_555
C16_7 C17_5 1_555 1_555
C21_7 C22_7 1_555 1_555
C23_7 C24_7 1_555 1_555
N1_5 N2_5 1_555 1_555
N3_7 N4_5 1_555 1_555
C42_7 N6_7 1_555 1_555
C49_7 O9_7 1_555 1_555
C49_7 O10_7 1_555 1_555
C54_7 C55_7 1_555 1_555
C59_7 C60_7 1_555 1_555
C61_5 C62_5 1_555 1_555
N5_7 N6_7 1_555 1_555
C39_5 H30_5 1_555 1_555
H31_5 C39_5 1_555 1_555
H32_5 C39_5 1_555 1_555
C40_7 C39_5 1_555 1_555
C41_7 C40_7 1_555 1_555
C44_7 H36_5 1_555 1_555
H37_7 C44_7 1_555 1_555
H38_7 C44_7 1_555 1_555
C45_7 C44_7 1_555 1_555
C46_7 C41_7 1_555 1_555
C47_7 C46_7 1_555 1_555
C48_5 C47_7 1_555 1_555
H39_5 C48_5 1_555 1_555
H40_5 C48_5 1_555 1_555
H41_5 C48_5 1_555 1_555
N7_4 C45_7 1_555 1_555
N8_7 C47_7 1_555 1_555
H50_7 N8_7 1_555 1_555
Zn8_2 N7_4 1_555 1_555
C45_7 C46_7 1_555 1_555
N7_4 N8_7 1_555 1_555
Zn1_4 N1_6 1_555 1_555
C1_7 H1_7 1_555 1_555
H2_7 C1_7 1_555 1_555
H3_7 C1_7 1_555 1_555
C2_6 C1_7 1_555 1_555
C3_6 C2_6 1_555 1_555
C4_6 C3_6 1_555 1_555
C8_6 C3_6 1_555 1_555
C9_6 C8_6 1_555 1_555
C10_7 C9_6 1_555 1_555
H10_7 C10_7 1_555 1_555
H11_7 C10_7 1_555 1_555
H12_7 C10_7 1_555 1_555
H16_6 C17_6 1_555 1_555
C25_6 C26_6 1_555 1_555
C26_6 C27_6 1_555 1_555
C27_6 H21_6 1_555 1_555
C28_5 C27_6 1_555 1_555
H22_6 C28_5 1_555 1_555
C29_5 C28_5 1_555 1_555
C30_5 C29_5 1_555 1_555
C31_5 C26_6 1_555 1_555
H24_5 C31_5 1_555 1_555
N1_6 C2_6 1_555 1_555
N2_6 C4_6 1_555 1_555
N4_6 C9_6 1_555 1_555
O1_6 Zn1_4 1_555 1_555
O5_7 Zn1_4 1_555 1_555
O6_6 C25_6 1_555 1_555
H25_6 N4_6 1_555 1_555
H43_6 C52_6 1_555 1_555
C56_6 C57_6 1_555 1_555
H48_6 C61_6 1_555 1_555
C62_6 C57_6 1_555 1_555
H49_7 C62_6 1_555 1_555
O14_3 C56_6 1_555 1_555
O16_3 C56_6 1_555 1_555
O15_4 Zn1_4 1_555 1_555
C11_6 O1_6 1_555 1_555
C25_6 O5_7 1_555 1_555
C30_5 C31_5 1_555 1_555
N1_6 N2_6 1_555 1_555
C61_6 C62_6 1_555 1_555
C39_6 H30_6 1_555 1_555
H31_6 C39_6 1_555 1_555
H32_6 C39_6 1_555 1_555
H39_6 C48_6 1_555 1_555
H40_6 C48_6 1_555 1_555
H41_6 C48_6 1_555 1_555
Zn8_2 O3_4 1_555 1_555
C39_7 H30_7 1_555 1_555
H31_7 C39_7 1_555 1_555
H32_7 C39_7 1_555 1_555
C40_8 C39_7 1_555 1_555
C41_8 C40_8 1_555 1_555
C44_8 H36_7 1_555 1_555
H37_8 C44_8 1_555 1_555
H38_8 C44_8 1_555 1_555
C45_8 C44_8 1_555 1_555
C46_8 C41_8 1_555 1_555
C47_8 C46_8 1_555 1_555
C48_7 C47_8 1_555 1_555
H39_7 C48_7 1_555 1_555
H40_7 C48_7 1_555 1_555
H41_7 C48_7 1_555 1_555
N9_4 C45_8 1_555 1_555
N8_8 C47_8 1_555 1_555
H50_8 N8_8 1_555 1_555
C45_8 C46_8 1_555 1_555
N9_4 N8_8 1_555 1_555
C54_8 C53_8 1_555 1_555
H44_7 C54_8 1_555 1_555
C56_7 C57_7 1_555 1_555
C57_7 C58_8 1_555 1_555
C58_8 H46_8 1_555 1_555
C59_8 C58_8 1_555 1_555
H47_8 C59_8 1_555 1_555
C60_8 C53_8 1_555 1_555
C61_7 C60_8 1_555 1_555
H48_7 C61_7 1_555 1_555
C62_7 C57_7 1_555 1_555
O12_4 C56_7 1_555 1_555
Zn7_2 O12_4 1_555 1_555
C59_8 C60_8 1_555 1_555
C61_7 C62_7 1_555 1_555
Zn8_2 N2_7 1_555 1_555
C3_7 C2_7 1_555 1_555
C4_7 C3_7 1_555 1_555
C5_8 C4_7 1_555 1_555
H4_8 C5_8 1_555 1_555
H5_8 C5_8 1_555 1_555
H6_8 C5_8 1_555 1_555
C6_8 H7_8 1_555 1_555
H8_8 C6_8 1_555 1_555
H9_8 C6_8 1_555 1_555
C7_8 C6_8 1_555 1_555
C8_7 C3_7 1_555 1_555
C9_7 C8_7 1_555 1_555
C11_7 C12_8 1_555 1_555
C12_8 C13_8 1_555 1_555
C13_8 H13_8 1_555 1_555
C14_8 C13_8 1_555 1_555
H14_8 C14_8 1_555 1_555
C15_8 C14_8 1_555 1_555
C16_8 C15_8 1_555 1_555
H15_7 C16_8 1_555 1_555
C17_7 C12_8 1_555 1_555
H16_7 C17_7 1_555 1_555
C18_8 C19_8 1_555 1_555
C19_8 C20_8 1_555 1_555
C20_8 H17_8 1_555 1_555
C21_8 C20_8 1_555 1_555
H18_8 C21_8 1_555 1_555
C22_8 C15_8 1_555 1_555
C23_8 C22_8 1_555 1_555
H19_8 C23_8 1_555 1_555
C24_8 C19_8 1_555 1_555
H20_7 C24_8 1_555 1_555
N1_7 C2_7 1_555 1_555
N2_7 C4_7 1_555 1_555
N3_8 C7_8 1_555 1_555
N4_7 C9_7 1_555 1_555
O2_8 Zn8_2 1_555 1_555
O13_4 C18_8 1_555 1_555
O15_4 C18_8 1_555 1_555
H25_7 N4_7 1_555 1_555
Zn3_4 N5_8 1_555 1_555
Zn4_4 N3_8 1_555 1_555
C43_8 C42_8 1_555 1_555
H33_8 C43_8 1_555 1_555
H35_8 C43_8 1_555 1_555
C49_8 C50_8 1_555 1_555
C50_8 C51_8 1_555 1_555
C51_8 H42_7 1_555 1_555
C52_7 C51_8 1_555 1_555
H43_7 C52_7 1_555 1_555
C55_8 C50_8 1_555 1_555
H45_8 C55_8 1_555 1_555
N6_8 Zn4_4 1_555 1_555
O9_8 Zn3_4 1_555 1_555
O10_8 Zn4_4 1_555 1_555
O14_4 Zn4_4 1_555 1_555
O16_4 Zn3_4 1_555 1_555
O17_4 Zn3_4 1_555 1_555
C7_8 C8_7 1_555 1_555
C11_7 O1_7 1_555 1_555
C11_7 O2_8 1_555 1_555
C16_8 C17_7 1_555 1_555
C21_8 C22_8 1_555 1_555
C23_8 C24_8 1_555 1_555
N1_7 N2_7 1_555 1_555
N3_8 N4_7 1_555 1_555
C42_8 N6_8 1_555 1_555
C49_8 O9_8 1_555 1_555
C49_8 O10_8 1_555 1_555
N5_8 N6_8 1_555 1_555
H22_7 C28_6 1_555 1_555
C29_6 C28_6 1_555 1_555
C30_6 C29_6 1_555 1_555
H23_7 C30_6 1_555 1_555
H24_6 C31_6 1_555 1_555
C32_7 C33_7 1_555 1_555
C33_7 C34_7 1_555 1_555
C34_7 H26_7 1_555 1_555
C35_7 C34_7 1_555 1_555
H27_7 C35_7 1_555 1_555
C36_7 C29_6 1_555 1_555
C37_7 C36_7 1_555 1_555
H28_7 C37_7 1_555 1_555
C38_7 C33_7 1_555 1_555
H29_7 C38_7 1_555 1_555
O7_4 C32_7 1_555 1_555
O8_7 C32_7 1_555 1_555
Zn7_2 O7_4 1_555 1_555
C30_6 C31_6 1_555 1_555
C35_7 C36_7 1_555 1_555
C37_7 C38_7 1_555 1_555
C39_8 H30_8 1_555 1_555
H31_8 C39_8 1_555 1_555
H32_8 C39_8 1_555 1_555
H39_8 C48_8 1_555 1_555
H40_8 C48_8 1_555 1_555
H41_8 C48_8 1_555 1_555
Zn5_4 N1_8 1_555 1_555
C1_8 H1_8 1_555 1_555
H2_8 C1_8 1_555 1_555
H3_8 C1_8 1_555 1_555
C2_8 C1_8 1_555 1_555
C3_8 C2_8 1_555 1_555
C4_8 C3_8 1_555 1_555
C8_8 C3_8 1_555 1_555
C9_8 C8_8 1_555 1_555
C10_8 C9_8 1_555 1_555
H10_8 C10_8 1_555 1_555
H11_8 C10_8 1_555 1_555
H12_8 C10_8 1_555 1_555
H16_8 C17_8 1_555 1_555
C25_7 C26_7 1_555 1_555
C26_7 C27_7 1_555 1_555
C27_7 H21_7 1_555 1_555
C28_7 C27_7 1_555 1_555
C29_7 C28_7 1_555 1_555
C30_7 C29_7 1_555 1_555
C31_7 C26_7 1_555 1_555
H24_7 C31_7 1_555 1_555
N1_8 C2_8 1_555 1_555
N2_8 C4_8 1_555 1_555
N4_8 C9_8 1_555 1_555
O1_8 Zn5_4 1_555 1_555
O5_8 Zn5_4 1_555 1_555
O6_7 C25_7 1_555 1_555
H25_8 N4_8 1_555 1_555
H43_8 C52_8 1_555 1_555
C56_8 C57_8 1_555 1_555
H48_8 C61_8 1_555 1_555
C62_8 C57_8 1_555 1_555
H49_8 C62_8 1_555 1_555
O14_4 C56_8 1_555 1_555
O16_4 C56_8 1_555 1_555
C11_8 O1_8 1_555 1_555
C25_7 O5_8 1_555 1_555
C30_7 C31_7 1_555 1_555
N1_8 N2_8 1_555 1_555
C61_8 C62_8 1_555 1_555
C25_8 C26_8 1_555 1_555
C26_8 C27_8 1_555 1_555
C27_8 H21_8 1_555 1_555
C28_8 C27_8 1_555 1_555
C29_8 C28_8 1_555 1_555
C30_8 C29_8 1_555 1_555
C31_8 C26_8 1_555 1_555
H24_8 C31_8 1_555 1_555
O6_8 C25_8 1_555 1_555
C30_8 C31_8 1_555 1_555
C32_8 C33_8 1_555 1_555
C33_8 C34_8 1_555 1_555
C34_8 H26_8 1_555 1_555
C35_8 C34_8 1_555 1_555
C37_8 C36_8 1_555 1_555
C38_8 C33_8 1_555 1_555
H29_8 C38_8 1_555 1_555
O8_8 C32_8 1_555 1_555
C35_8 C36_8 1_555 1_555
C37_8 C38_8 1_555 1_555

#END
