
###############################################################################
#
# This file contains modified crystal structure data generated from the
# MOF subset of the Cambridge Structural Database (CSD) v543 
# hosted by the Cambridge Crystallographic Data Centre (CCDC).
#
# This work is licensed under the Creative Commons
# Attribution-NonCommercial-ShareAlike 4.0 International License.
# To view a copy of this license, visit
# http://creativecommons.org/licenses/by-nc-sa/4.0/
# or send a letter to
# Creative Commons, PO Box 1866, Mountain View, CA 94042, USA.
#
# CIF created using the CSD Python API on 29 September 2022
# The structure has been converted into the P1 space group
# The structure has a 3D framework
# The original CSD entry KIPKEB is in the triclinic crystal system
# The framework has been calculated to contain at least 10.0% void space
# The void calculation uses a probe of radius 1.32A, grid spacing 0.4
#
###############################################################################

data_KIPKEB
_chemical_formula_moiety         '(C114 H72 F36 O64 Y8)n'
_symmetry_cell_setting           triclinic
_symmetry_space_group_name_H-M   'P 1'
_symmetry_Int_Tables_number      1
_space_group_name_Hall           'P 1'
loop_
_symmetry_equiv_pos_site_id
_symmetry_equiv_pos_as_xyz
1 x,y,z
_cell_length_a                   8.0954(3)
_cell_length_b                   21.2590(12)
_cell_length_c                   22.8149(12)
_cell_angle_alpha                82.520(2)
_cell_angle_beta                 82.394(3)
_cell_angle_gamma                79.972(3)
_cell_volume                     3809.29
loop_
_atom_site_label
_atom_site_type_symbol
_atom_site_fract_x
_atom_site_fract_y
_atom_site_fract_z
O13 O 0.1428(2) 0.60695(10) 0.62081(9)
O14 O 0.3699(2) 0.60373(10) 0.55298(9)
O15 O 0.2505(2) 0.57942(10) 0.39787(9)
O16 O 0.1739(2) 0.53946(10) 0.48996(9)
O32 O 0.0297(3) 0.93353(11) 0.93201(10)
H15 H 0.0610 0.9653 0.9394
H16 H 0.0452 0.9395 0.8912
F12 F 0.0269(2) 0.85422(9) 0.57427(9)
C30 C 0.0173(3) 0.72076(14) 0.54535(14)
H28 H 0.0202 0.7294 0.5841
C31 C 0.1127(3) 0.66536(14) 0.52598(13)
C32 C 0.1067(3) 0.65180(14) 0.46790(13)
C33 C 0.0160(4) 0.69671(15) 0.42964(14)
H29 H 0.0181 0.6891 0.3903
C35 C 0.2183(3) 0.62159(14) 0.56921(13)
C36 C 0.1805(3) 0.58729(15) 0.45009(13)
Y5 Y 0.19793(3) 0.575399(14) 0.715999(13)
Y6 Y 0.61357(3) 0.528824(13) 0.566907(12)
Y8 Y 0.38643(3) 0.471176(13) 0.433093(12)
Y13 Y 0.23957(3) 0.093403(14) 0.036351(13)
O19 O 0.3875(3) 0.07877(10) 0.93875(9)
O20 O 0.1656(3) 0.03035(11) 0.96461(10)
O33 O 0.7173(3) 0.01348(11) 0.91919(11)
H17 H 0.6092 0.0388 0.9172
H18 H 0.7822 0.0412 0.9286
F13 F 0.3753(2) 0.03535(9) 0.64840(9)
F16 F 0.0444(2) 0.07237(9) 0.65043(9)
C43 C 0.2834(4) 0.02862(15) 0.86464(14)
C44 C 0.1941(4) 0.07296(15) 0.82604(15)
H32 H 0.1556 0.1144 0.8363
C45 C 0.1605(4) 0.05704(16) 0.77232(15)
H33 H 0.1012 0.0879 0.7468
C47 C 0.2833(4) 0.04590(15) 0.92646(14)
C57 C 0.0179(4) 0.01324(16) 0.67357(15)
O5 O 0.3507(3) 0.19304(10) 0.02259(9)
Y10 Y 0.46433(3) 0.249093(14) 0.095608(13)
O37 O 0.4781(3) 0.73791(12) 0.01180(10)
O38 O 0.9437(3) 0.83099(11) 0.01364(10)
O43 O 0.6125(3) 0.92123(10) 0.06125(9)
O44 O 0.8344(3) 0.96965(11) 0.03539(10)
Y3 Y 0.53567(3) 0.750907(14) 0.904392(13)
Y4 Y 0.76043(3) 0.906597(14) 0.963649(13)
O1 O 0.2052(3) 0.46508(11) 0.70473(11)
O2 O 0.4307(2) 0.49879(10) 0.65672(9)
O3 O 0.4359(2) 0.46191(10) 0.54196(9)
O4 O 0.3073(3) 0.39131(10) 0.51134(9)
O6 O 0.5219(3) 0.26209(12) 0.98820(10)
O7 O 0.0563(3) 0.16901(11) 0.98636(10)
O9 O 0.3883(2) 0.64439(10) 0.68620(9)
O10 O 0.6209(2) 0.60292(10) 0.63070(9)
O11 O 0.5022(3) 0.72919(11) 0.81296(10)
O12 O 0.6284(3) 0.63886(10) 0.77577(10)
O17 O 0.4402(3) 0.85792(10) 0.87935(10)
O18 O 0.4906(3) 0.93228(11) 0.93331(10)
O23 O 0.0686(3) 0.66745(10) 0.75355(10)
O24 O 0.0793(3) 0.69921(11) 0.84245(10)
O25 O 0.4169(3) 0.54873(11) 0.77897(10)
H1 H 0.4862 0.5825 0.7815
H2 H 0.4974 0.5209 0.7720
O26 O 0.0986(3) 0.52670(12) 0.81278(11)
H4 H 0.1185 0.5566 0.8351
O28 O 0.8988(2) 0.53755(10) 0.58374(10)
H7 H 0.8945 0.5715 0.6071
H8 H 0.9512 0.5326 0.5525
O29 O 0.2430(3) 0.75632(12) 0.91601(10)
H9 H 0.1760 0.7446 0.9485
H10 H 0.2134 0.7371 0.8899
O30 O 0.7893(3) 0.68203(12) 0.92186(11)
H11 H 0.8899 0.6973 0.9115
H12 H 0.8094 0.6520 0.9489
O31 O 0.4900(3) 0.64197(12) 0.93094(12)
H13 H 0.5674 0.6075 0.9428
H14 H 0.4122 0.6207 0.9313
F1 F 0.8429(2) 0.24834(12) 0.71361(9)
F2 F 0.8254(2) 0.19831(11) 0.80178(9)
F3 F 0.7312(2) 0.29955(10) 0.78829(9)
F4 F 0.7138(3) 0.14233(10) 0.70464(9)
F5 F 0.4454(3) 0.14664(9) 0.72725(9)
F6 F 0.6112(3) 0.12002(10) 0.79548(9)
F7 F 0.5675(2) 0.80366(9) 0.48994(9)
F8 F 0.5380(2) 0.89036(10) 0.53198(9)
F9 F 0.6950(2) 0.88137(9) 0.44896(9)
F10 F 0.9895(3) 0.88751(10) 0.48344(9)
F11 F 0.8172(3) 0.92797(9) 0.55409(9)
F14 F 0.4630(2) 0.93449(9) 0.66882(9)
F15 F 0.3035(3) 0.96723(10) 0.59856(8)
C1 C 0.5662(4) 0.23111(15) 0.75602(14)
C2 C 0.5088(4) 0.27616(14) 0.70204(13)
C3 C 0.4509(4) 0.34069(14) 0.70895(13)
H19 H 0.4408 0.3541 0.7466
C4 C 0.4076(3) 0.38562(14) 0.66123(13)
C5 C 0.4156(4) 0.36442(14) 0.60504(13)
C6 C 0.4666(4) 0.29990(15) 0.59883(14)
H20 H 0.4666 0.2855 0.5621
C7 C 0.5168(4) 0.25682(16) 0.64544(14)
H21 H 0.5569 0.2142 0.6394
C8 C 0.3460(4) 0.45392(15) 0.67362(13)
C9 C 0.3800(3) 0.40870(14) 0.55025(14)
C10 C 0.4370(4) 0.23903(15) 0.81197(14)
C11 C 0.4844(4) 0.23322(15) 0.86921(13)
H22 H 0.5974 0.2306 0.8745
C12 C 0.3627(4) 0.23141(15) 0.91858(14)
C13 C 0.1937(4) 0.23560(15) 0.91148(14)
C14 C 0.1455(4) 0.24600(15) 0.85402(14)
H23 H 0.0316 0.2521 0.8487
C15 C 0.2660(4) 0.24725(15) 0.80500(14)
H24 H 0.2323 0.2537 0.7670
C16 C 0.4170(4) 0.22774(15) 0.97921(14)
C17 C 0.0586(4) 0.22651(16) 0.96297(14)
C18 C 0.7424(4) 0.24443(17) 0.76522(15)
C19 C 0.5843(5) 0.15866(16) 0.74601(15)
C20 C 0.8014(4) 0.82037(14) 0.53649(13)
C21 C 0.7276(4) 0.79459(14) 0.59898(14)
C22 C 0.6637(3) 0.73663(15) 0.60364(14)
H25 H 0.6612 0.7177 0.5693
C23 C 0.6047(3) 0.70722(14) 0.65794(14)
C24 C 0.6095(3) 0.73504(14) 0.71053(13)
C25 C 0.6655(4) 0.79365(15) 0.70558(14)
H26 H 0.6634 0.8136 0.7397
C26 C 0.7251(4) 0.82352(15) 0.65067(14)
H27 H 0.7631 0.8627 0.6485
C27 C 0.5332(4) 0.64608(14) 0.65891(13)
C28 C 0.5754(3) 0.69816(16) 0.77086(14)
C29 C 0.9166(4) 0.76424(14) 0.50826(14)
C34 C 0.9217(4) 0.75295(15) 0.44897(14)
H30 H 0.8625 0.7828 0.4226
C37 C 0.6504(4) 0.84951(15) 0.50122(15)
C38 C 0.9084(4) 0.87336(16) 0.53706(14)
C39 C 0.1741(4) 0.97165(14) 0.69945(13)
C40 C 0.2146(4) 0.99526(14) 0.75628(13)
C41 C 0.3094(4) 0.95123(15) 0.79424(13)
H31 H 0.3508 0.9103 0.7832
C42 C 0.3445(4) 0.96660(15) 0.84868(13)
C46 C 0.4321(4) 0.91475(15) 0.88947(14)
C48 C 0.1356(3) 0.90286(15) 0.71501(13)
C49 C 0.0217(4) 0.89222(15) 0.76555(13)
C51 C 0.0715(3) 0.77805(15) 0.75899(13)
C52 C 0.1764(4) 0.78902(15) 0.70668(13)
H35 H 0.2259 0.7544 0.6859
C53 C 0.2099(4) 0.85018(15) 0.68447(14)
H36 H 0.2814 0.8560 0.6495
C55 C 0.0699(3) 0.71006(15) 0.78700(14)
C56 C 0.3290(4) 0.97736(15) 0.65297(15)
O34 O 0.5641(2) 0.53809(10) 0.45804(9)
O35 O 0.6927(3) 0.60869(10) 0.48866(9)
O36 O 0.6493(3) 0.80696(10) 0.97741(9)
O41 O 0.7495(2) 0.42058(10) 0.60213(9)
O42 O 0.8261(2) 0.46054(10) 0.51004(9)
O45 O 0.7639(2) 0.78502(10) 0.84372(10)
O46 O 0.8403(3) 0.86881(11) 0.87571(10)
O8 O 0.9535(3) 0.27315(12) 0.97766(11)
H3 H 0.9860 0.5411 0.8147
O27 O 0.9089(3) 0.56887(11) 0.71534(10)
H5 H 0.8281 0.5911 0.7305
H6 H 0.8795 0.5318 0.7096
F18 F 0.9695(3) 0.98568(10) 0.63110(10)
H34 H 0.9674 0.9271 0.7851
C50 C 0.9870(4) 0.83165(15) 0.78742(13)
C54 C 0.8548(4) 0.82689(15) 0.84018(14)
O8_2 O 0.0465(3) 0.72685(12) 0.02234(11)
O21 O 0.2361(2) 0.21498(10) 0.15628(10)
O22 O 0.1597(3) 0.13119(11) 0.12429(10)
H3_2 H 0.0140 0.4589 0.1853
O27_2 O 0.0911(3) 0.43113(11) 0.28466(10)
H5_2 H 0.1719 0.4089 0.2695
H6_2 H 0.1205 0.4682 0.2904
F18_2 F 0.0305(3) 0.01432(10) 0.36890(10)
H34_2 H 0.0326 0.0729 0.2149
C50_2 C 0.0130(4) 0.16835(15) 0.21258(13)
C54_2 C 0.1452(4) 0.17311(15) 0.15982(14)
Y1 Y 0.80207(3) 0.424601(14) 0.284001(13)
O1_2 O 0.7948(3) 0.53492(11) 0.29527(11)
O2_2 O 0.5693(2) 0.50121(10) 0.34328(9)
O9_2 O 0.6117(2) 0.35561(10) 0.31380(9)
O10_2 O 0.3791(2) 0.39708(10) 0.36930(9)
O11_2 O 0.4978(3) 0.27081(11) 0.18704(10)
O12_2 O 0.3716(3) 0.36114(10) 0.22423(10)
O17_2 O 0.5598(3) 0.14208(10) 0.12065(10)
O18_2 O 0.5094(3) 0.06772(11) 0.06669(10)
O23_2 O 0.9314(3) 0.33255(10) 0.24645(10)
O24_2 O 0.9207(3) 0.30079(11) 0.15755(10)
O25_2 O 0.5831(3) 0.45127(11) 0.22103(10)
H1_2 H 0.5138 0.4175 0.2185
H2_2 H 0.5026 0.4791 0.2280
O26_2 O 0.9014(3) 0.47330(12) 0.18722(11)
H4_2 H 0.8815 0.4434 0.1649
O28_2 O 0.1012(2) 0.46245(10) 0.41626(10)
H7_2 H 0.1055 0.4285 0.3929
H8_2 H 0.0488 0.4674 0.4475
O29_2 O 0.7570(3) 0.24368(12) 0.08399(10)
H9_2 H 0.8240 0.2554 0.0515
H10_2 H 0.7866 0.2629 0.1101
O30_2 O 0.2107(3) 0.31797(12) 0.07814(11)
H11_2 H 0.1101 0.3027 0.0885
H12_2 H 0.1906 0.3480 0.0511
O31_2 O 0.5100(3) 0.35803(12) 0.06906(12)
H13_2 H 0.4326 0.3925 0.0572
H14_2 H 0.5878 0.3793 0.0687
F1_2 F 0.1571(2) 0.75166(12) 0.28639(9)
F2_2 F 0.1746(2) 0.80169(11) 0.19822(9)
F3_2 F 0.2688(2) 0.70045(10) 0.21171(9)
F4_2 F 0.2862(3) 0.85767(10) 0.29536(9)
F5_2 F 0.5546(3) 0.85336(9) 0.27275(9)
F6_2 F 0.3888(3) 0.87998(10) 0.20452(9)
F7_2 F 0.4325(2) 0.19634(9) 0.51006(9)
F8_2 F 0.4620(2) 0.10964(10) 0.46802(9)
F9_2 F 0.3050(2) 0.11863(9) 0.55104(9)
F10_2 F 0.0105(3) 0.11249(10) 0.51656(9)
F11_2 F 0.1828(3) 0.07203(9) 0.44591(9)
F14_2 F 0.5370(2) 0.06551(9) 0.33118(9)
F15_2 F 0.6965(3) 0.03277(10) 0.40144(8)
C1_2 C 0.4338(4) 0.76889(15) 0.24398(14)
C2_2 C 0.4912(4) 0.72384(14) 0.29796(13)
C3_2 C 0.5491(4) 0.65931(14) 0.29105(13)
H19_2 H 0.5592 0.6459 0.2534
C4_2 C 0.5924(3) 0.61438(14) 0.33877(13)
C5_2 C 0.5844(4) 0.63558(14) 0.39496(13)
C6_2 C 0.5334(4) 0.70010(15) 0.40117(14)
H20_2 H 0.5334 0.7145 0.4379
C7_2 C 0.4832(4) 0.74318(16) 0.35456(14)
H21_2 H 0.4431 0.7858 0.3606
C8_2 C 0.6540(4) 0.54608(15) 0.32638(13)
C9_2 C 0.6200(3) 0.59130(14) 0.44975(14)
C10_2 C 0.5630(4) 0.76097(15) 0.18803(14)
C11_2 C 0.5156(4) 0.76678(15) 0.13079(13)
H22_2 H 0.4026 0.7694 0.1255
C12_2 C 0.6373(4) 0.76859(15) 0.08142(14)
C13_2 C 0.8063(4) 0.76440(15) 0.08852(14)
C14_2 C 0.8545(4) 0.75400(15) 0.14598(14)
H23_2 H 0.9684 0.7479 0.1513
C15_2 C 0.7340(4) 0.75275(15) 0.19500(14)
H24_2 H 0.7677 0.7463 0.2330
C16_2 C 0.5830(4) 0.77226(15) 0.02079(14)
C17_2 C 0.9414(4) 0.77349(16) 0.03703(14)
C18_2 C 0.2576(4) 0.75557(17) 0.23478(15)
C19_2 C 0.4157(5) 0.84134(16) 0.25399(15)
C20_2 C 0.1986(4) 0.17963(14) 0.46351(13)
C21_2 C 0.2724(4) 0.20541(14) 0.40102(14)
C22_2 C 0.3363(3) 0.26337(15) 0.39636(14)
H25_2 H 0.3388 0.2823 0.4307
C23_2 C 0.3953(3) 0.29278(14) 0.34206(14)
C24_2 C 0.3905(3) 0.26496(14) 0.28947(13)
C25_2 C 0.3345(4) 0.20635(15) 0.29442(14)
H26_2 H 0.3366 0.1864 0.2603
C26_2 C 0.2749(4) 0.17648(15) 0.34933(14)
H27_2 H 0.2369 0.1373 0.3515
C27_2 C 0.4668(4) 0.35392(14) 0.34109(13)
C28_2 C 0.4246(3) 0.30184(16) 0.22914(14)
C29_2 C 0.0834(4) 0.23576(14) 0.49174(14)
C34_2 C 0.0783(4) 0.24705(15) 0.55103(14)
H30_2 H 0.1375 0.2172 0.5774
C37_2 C 0.3496(4) 0.15049(15) 0.49878(15)
C38_2 C 0.0916(4) 0.12664(16) 0.46294(14)
C39_2 C 0.8259(4) 0.02835(14) 0.30055(13)
C40_2 C 0.7854(4) 0.00474(14) 0.24372(13)
C41_2 C 0.6906(4) 0.04877(15) 0.20576(13)
H31_2 H 0.6492 0.0897 0.2168
C42_2 C 0.6555(4) 0.03340(15) 0.15132(13)
C46_2 C 0.5679(4) 0.08525(15) 0.11053(14)
C48_2 C 0.8644(3) 0.09714(15) 0.28499(13)
C49_2 C 0.9783(4) 0.10778(15) 0.23445(13)
C51_2 C 0.9285(3) 0.22195(15) 0.24101(13)
C52_2 C 0.8236(4) 0.21098(15) 0.29332(13)
H35_2 H 0.7741 0.2456 0.3141
C53_2 C 0.7901(4) 0.14982(15) 0.31553(14)
H36_2 H 0.7186 0.1440 0.3505
C55_2 C 0.9301(3) 0.28994(15) 0.21300(14)
C56_2 C 0.6710(4) 0.02264(15) 0.34703(15)
O39 O 0.8572(2) 0.39305(10) 0.37919(9)
O40 O 0.6301(2) 0.39627(10) 0.44702(9)
O33_2 O 0.2827(3) 0.98652(11) 0.08081(11)
H17_2 H 0.3908 0.9612 0.0828
H18_2 H 0.2178 0.9588 0.0714
F13_2 F 0.6247(2) 0.96465(9) 0.35160(9)
F16_2 F 0.9556(2) 0.92763(9) 0.34957(9)
C43_2 C 0.7166(4) 0.97138(15) 0.13536(14)
C44_2 C 0.8059(4) 0.92704(15) 0.17396(15)
H32_2 H 0.8444 0.8856 0.1637
C45_2 C 0.8395(4) 0.94296(16) 0.22768(15)
H33_2 H 0.8988 0.9121 0.2532
C47_2 C 0.7167(4) 0.95410(15) 0.07354(14)
C57_2 C 0.9821(4) 0.98676(16) 0.32643(15)
O32_2 O 0.9703(3) 0.06647(11) 0.06799(10)
H15_2 H 0.9390 0.0347 0.0606
H16_2 H 0.9548 0.0605 0.1088
F12_2 F 0.9731(2) 0.14578(9) 0.42573(9)
C30_2 C 0.9827(3) 0.27924(14) 0.45465(14)
H28_2 H 0.9798 0.2706 0.4159
C31_2 C 0.8873(3) 0.33464(14) 0.47402(13)
C32_2 C 0.8933(3) 0.34820(14) 0.53210(13)
C33_2 C 0.9840(4) 0.30329(15) 0.57036(14)
H29_2 H 0.9819 0.3109 0.6097
C35_2 C 0.7817(3) 0.37841(14) 0.43079(13)
C36_2 C 0.8195(3) 0.41271(15) 0.54991(13)
F17 F 0.8871(2) 0.02027(9) 0.71598(9)
F17_2 F 0.1129(2) 0.97973(9) 0.28402(9)
loop_
_geom_bond_atom_site_label_1
_geom_bond_atom_site_label_2
_geom_bond_site_symmetry_1
_geom_bond_site_symmetry_2
O13 C35 1_555 1_555
O14 C35 1_555 1_555
O15 C36 1_555 1_555
O16 C36 1_555 1_555
H15 O32 1_555 1_555
H16 O32 1_555 1_555
H28 C30 1_555 1_555
C31 C30 1_555 1_555
C32 C31 1_555 1_555
C33 C32 1_555 1_555
H29 C33 1_555 1_555
C35 C31 1_555 1_555
C36 C32 1_555 1_555
Y5 O13 1_555 1_555
Y6 O14 1_555 1_555
Y8 O15 1_555 1_555
O16 Y8 1_555 1_555
O19 C47 1_555 1_555
O20 C47 1_555 1_555
H17 O33 1_555 1_555
H18 O33 1_555 1_555
F16 C57 1_555 1_555
C44 C43 1_555 1_555
H32 C44 1_555 1_555
H33 C45 1_555 1_555
C47 C43 1_555 1_555
C44 C45 1_555 1_555
Y10 O5 1_555 1_555
Y13 O5 1_555 1_555
Y5 O1 1_555 1_555
Y6 O2 1_555 1_555
Y3 O11 1_555 1_555
Y4 O18 1_555 1_555
O1 C8 1_555 1_555
O2 Y5 1_555 1_555
O3 Y6 1_555 1_555
O4 C9 1_555 1_555
O6 C16 1_555 1_555
O7 C17 1_555 1_555
O9 Y5 1_555 1_555
O10 Y6 1_555 1_555
O11 C28 1_555 1_555
O12 C28 1_555 1_555
O17 Y3 1_555 1_555
O18 C46 1_555 1_555
O23 Y5 1_555 1_555
O24 C55 1_555 1_555
O25 Y5 1_555 1_555
H1 O25 1_555 1_555
H2 O25 1_555 1_555
O26 Y5 1_555 1_555
H4 O26 1_555 1_555
O28 Y6 1_555 1_555
H7 O28 1_555 1_555
H8 O28 1_555 1_555
O29 Y3 1_555 1_555
H9 O29 1_555 1_555
H10 O29 1_555 1_555
O30 Y3 1_555 1_555
H11 O30 1_555 1_555
H12 O30 1_555 1_555
O31 Y3 1_555 1_555
H13 O31 1_555 1_555
H14 O31 1_555 1_555
F1 C18 1_555 1_555
F2 C18 1_555 1_555
F3 C18 1_555 1_555
F4 C19 1_555 1_555
F5 C19 1_555 1_555
F6 C19 1_555 1_555
F7 C37 1_555 1_555
F8 C37 1_555 1_555
F9 C37 1_555 1_555
F10 C38 1_555 1_555
F11 C38 1_555 1_555
F14 C56 1_555 1_555
F15 C56 1_555 1_555
C1 C2 1_555 1_555
C2 C3 1_555 1_555
C3 H19 1_555 1_555
C4 C3 1_555 1_555
C5 C4 1_555 1_555
C6 C5 1_555 1_555
H20 C6 1_555 1_555
C7 C2 1_555 1_555
H21 C7 1_555 1_555
C8 O2 1_555 1_555
C9 O3 1_555 1_555
C10 C1 1_555 1_555
C11 C10 1_555 1_555
H22 C11 1_555 1_555
C12 C11 1_555 1_555
C13 C12 1_555 1_555
C14 C13 1_555 1_555
H23 C14 1_555 1_555
C15 C10 1_555 1_555
H24 C15 1_555 1_555
C16 C12 1_555 1_555
C17 C13 1_555 1_555
C18 C1 1_555 1_555
C19 C1 1_555 1_555
C20 C21 1_555 1_555
C21 C22 1_555 1_555
C22 H25 1_555 1_555
C23 C22 1_555 1_555
C24 C23 1_555 1_555
C25 C24 1_555 1_555
H26 C25 1_555 1_555
C26 C21 1_555 1_555
H27 C26 1_555 1_555
C27 O9 1_555 1_555
C28 C24 1_555 1_555
C29 C20 1_555 1_555
C34 C29 1_555 1_555
H30 C34 1_555 1_555
C37 C20 1_555 1_555
C38 C20 1_555 1_555
C39 C40 1_555 1_555
C40 C41 1_555 1_555
C41 H31 1_555 1_555
C42 C41 1_555 1_555
C46 O17 1_555 1_555
C48 C39 1_555 1_555
C49 C48 1_555 1_555
C52 C51 1_555 1_555
H35 C52 1_555 1_555
C53 C48 1_555 1_555
H36 C53 1_555 1_555
C55 O23 1_555 1_555
C56 C39 1_555 1_555
Y8 O3 1_555 1_555
O34 Y6 1_555 1_555
O35 Y6 1_555 1_555
O36 Y3 1_555 1_555
O41 Y6 1_555 1_555
O42 Y6 1_555 1_555
O45 Y3 1_555 1_555
O46 Y4 1_555 1_555
Y4 O36 1_555 1_555
O4 Y8 1_555 1_555
O10 C27 1_555 1_555
C4 C8 1_555 1_555
C5 C9 1_555 1_555
C6 C7 1_555 1_555
C14 C15 1_555 1_555
C23 C27 1_555 1_555
C25 C26 1_555 1_555
C42 C46 1_555 1_555
C51 C55 1_555 1_555
C52 C53 1_555 1_555
Y8 O34 1_555 1_555
O45 C54 1_555 1_555
O46 C54 1_555 1_555
H5 O27 1_555 1_555
H6 O27 1_555 1_555
C54 C50 1_555 1_555
O21 C54_2 1_555 1_555
O22 C54_2 1_555 1_555
H5_2 O27_2 1_555 1_555
H6_2 O27_2 1_555 1_555
C54_2 C50_2 1_555 1_555
Y10 O21 1_555 1_555
Y13 O22 1_555 1_555
Y1 O1_2 1_555 1_555
Y8 O2_2 1_555 1_555
Y10 O11_2 1_555 1_555
Y13 O18_2 1_555 1_555
O1_2 C8_2 1_555 1_555
O2_2 Y1 1_555 1_555
O35 C9_2 1_555 1_555
O37 C16_2 1_555 1_555
O38 C17_2 1_555 1_555
O9_2 Y1 1_555 1_555
O10_2 Y8 1_555 1_555
O11_2 C28_2 1_555 1_555
O12_2 C28_2 1_555 1_555
O17_2 Y10 1_555 1_555
O18_2 C46_2 1_555 1_555
O23_2 Y1 1_555 1_555
O24_2 C55_2 1_555 1_555
O25_2 Y1 1_555 1_555
H1_2 O25_2 1_555 1_555
H2_2 O25_2 1_555 1_555
O26_2 Y1 1_555 1_555
H4_2 O26_2 1_555 1_555
O28_2 Y8 1_555 1_555
H7_2 O28_2 1_555 1_555
H8_2 O28_2 1_555 1_555
O29_2 Y10 1_555 1_555
H9_2 O29_2 1_555 1_555
H10_2 O29_2 1_555 1_555
O30_2 Y10 1_555 1_555
H11_2 O30_2 1_555 1_555
H12_2 O30_2 1_555 1_555
O31_2 Y10 1_555 1_555
H13_2 O31_2 1_555 1_555
H14_2 O31_2 1_555 1_555
F1_2 C18_2 1_555 1_555
F2_2 C18_2 1_555 1_555
F3_2 C18_2 1_555 1_555
F4_2 C19_2 1_555 1_555
F5_2 C19_2 1_555 1_555
F6_2 C19_2 1_555 1_555
F7_2 C37_2 1_555 1_555
F8_2 C37_2 1_555 1_555
F9_2 C37_2 1_555 1_555
F10_2 C38_2 1_555 1_555
F11_2 C38_2 1_555 1_555
F14_2 C56_2 1_555 1_555
F15_2 C56_2 1_555 1_555
C1_2 C2_2 1_555 1_555
C2_2 C3_2 1_555 1_555
C3_2 H19_2 1_555 1_555
C4_2 C3_2 1_555 1_555
C5_2 C4_2 1_555 1_555
C6_2 C5_2 1_555 1_555
H20_2 C6_2 1_555 1_555
C7_2 C2_2 1_555 1_555
H21_2 C7_2 1_555 1_555
C8_2 O2_2 1_555 1_555
C9_2 O34 1_555 1_555
C10_2 C1_2 1_555 1_555
C11_2 C10_2 1_555 1_555
H22_2 C11_2 1_555 1_555
C12_2 C11_2 1_555 1_555
C13_2 C12_2 1_555 1_555
C14_2 C13_2 1_555 1_555
H23_2 C14_2 1_555 1_555
C15_2 C10_2 1_555 1_555
H24_2 C15_2 1_555 1_555
C16_2 C12_2 1_555 1_555
C17_2 C13_2 1_555 1_555
C18_2 C1_2 1_555 1_555
C19_2 C1_2 1_555 1_555
C20_2 C21_2 1_555 1_555
C21_2 C22_2 1_555 1_555
C22_2 H25_2 1_555 1_555
C23_2 C22_2 1_555 1_555
C24_2 C23_2 1_555 1_555
C25_2 C24_2 1_555 1_555
H26_2 C25_2 1_555 1_555
C26_2 C21_2 1_555 1_555
H27_2 C26_2 1_555 1_555
C27_2 O9_2 1_555 1_555
C28_2 C24_2 1_555 1_555
C29_2 C20_2 1_555 1_555
C34_2 C29_2 1_555 1_555
H30_2 C34_2 1_555 1_555
C37_2 C20_2 1_555 1_555
C38_2 C20_2 1_555 1_555
C39_2 C40_2 1_555 1_555
C40_2 C41_2 1_555 1_555
C41_2 H31_2 1_555 1_555
C42_2 C41_2 1_555 1_555
C46_2 O17_2 1_555 1_555
C48_2 C39_2 1_555 1_555
C49_2 C48_2 1_555 1_555
C52_2 C51_2 1_555 1_555
H35_2 C52_2 1_555 1_555
C53_2 C48_2 1_555 1_555
H36_2 C53_2 1_555 1_555
C55_2 O23_2 1_555 1_555
C56_2 C39_2 1_555 1_555
O39 Y1 1_555 1_555
O40 Y8 1_555 1_555
O10_2 C27_2 1_555 1_555
C4_2 C8_2 1_555 1_555
C5_2 C9_2 1_555 1_555
C6_2 C7_2 1_555 1_555
C14_2 C15_2 1_555 1_555
C23_2 C27_2 1_555 1_555
C25_2 C26_2 1_555 1_555
C42_2 C46_2 1_555 1_555
C51_2 C55_2 1_555 1_555
C52_2 C53_2 1_555 1_555
O43 C47_2 1_555 1_555
O44 C47_2 1_555 1_555
H17_2 O33_2 1_555 1_555
H18_2 O33_2 1_555 1_555
F16_2 C57_2 1_555 1_555
C44_2 C43_2 1_555 1_555
H32_2 C44_2 1_555 1_555
H33_2 C45_2 1_555 1_555
C47_2 C43_2 1_555 1_555
C44_2 C45_2 1_555 1_555
O39 C35_2 1_555 1_555
O40 C35_2 1_555 1_555
O41 C36_2 1_555 1_555
O42 C36_2 1_555 1_555
H15_2 O32_2 1_555 1_555
H16_2 O32_2 1_555 1_555
H28_2 C30_2 1_555 1_555
C31_2 C30_2 1_555 1_555
C32_2 C31_2 1_555 1_555
C33_2 C32_2 1_555 1_555
H29_2 C33_2 1_555 1_555
C35_2 C31_2 1_555 1_555
C36_2 C32_2 1_555 1_555

#END
