
###############################################################################
#
# This file contains modified crystal structure data generated from the
# MOF subset of the Cambridge Structural Database (CSD) v543 
# hosted by the Cambridge Crystallographic Data Centre (CCDC).
#
# This work is licensed under the Creative Commons
# Attribution-NonCommercial-ShareAlike 4.0 International License.
# To view a copy of this license, visit
# http://creativecommons.org/licenses/by-nc-sa/4.0/
# or send a letter to
# Creative Commons, PO Box 1866, Mountain View, CA 94042, USA.
#
# CIF created using the CSD Python API on 29 September 2022
# The structure has been converted into the P1 space group
# The structure has a 3D framework
# The original CSD entry KIPZEQ is in the triclinic crystal system
# The framework has been calculated to contain at least 10.0% void space
# The void calculation uses a probe of radius 1.32A, grid spacing 0.4
#
###############################################################################

data_KIPZEQ
_chemical_formula_moiety         '(C48 H38 Co7 N8 O18)n'
_symmetry_cell_setting           triclinic
_symmetry_space_group_name_H-M   'P 1'
_symmetry_Int_Tables_number      1
_space_group_name_Hall           'P 1'
loop_
_symmetry_equiv_pos_site_id
_symmetry_equiv_pos_as_xyz
1 x,y,z
_cell_length_a                   10.975(2)
_cell_length_b                   12.139(2)
_cell_length_c                   13.728(3)
_cell_angle_alpha                67.25(3)
_cell_angle_beta                 80.94(3)
_cell_angle_gamma                70.26(3)
_cell_volume                     1586.76
loop_
_atom_site_label
_atom_site_type_symbol
_atom_site_fract_x
_atom_site_fract_y
_atom_site_fract_z
Co8 Co 0.04300(16) 0.40582(14) 0.81500(11)
Co1 Co -0.0000 0.5000 1.0000
O3 O 0.2268(7) 0.6354(7) 0.9484(5)
Co12 Co 0.13202(16) 0.67145(14) 0.81249(11)
O26 O 0.1282(7) 0.4897(6) 0.8755(5)
N2 N 0.1496(10) 0.8600(9) 0.7634(7)
C7 C 0.2073(13) 0.8995(12) 0.8175(9)
H6 H 0.2325 0.8470 0.8859
C8 C 0.1200(12) 0.9404(10) 0.6633(8)
H7 H 0.0847 0.9144 0.6218
O11 O 0.0274(8) 0.7236(7) 0.6828(5)
O15 O 0.1114(8) 0.2384(7) 0.9508(6)
N5 N 0.263(2) 0.3666(17) 0.6591(17)
H20 H 0.2075 0.4646 0.8574
O18 O 0.1978(19) 0.4338(16) 0.5767(12)
O19 O 0.2213(12) 0.3295(9) 0.7481(8)
O20 O 0.382(2) 0.331(3) 0.6426(16)
N10 N 0.3122(9) 0.6294(9) 0.7290(7)
N4 N 0.9406(10) 0.3088(8) 0.7724(7)
C19 C 0.8644(11) 0.0079(10) 0.8962(9)
C20 C 0.8602(12) 0.1315(11) 0.8184(9)
C21 C 0.8076(13) 0.1840(12) 0.7194(10)
H16 H 0.7625 0.1431 0.7005
C22 C 0.8215(13) 0.2952(11) 0.6493(9)
H17 H 0.7846 0.3304 0.5834
C23 C 0.8889(12) 0.3552(11) 0.6751(9)
H18 H 0.9001 0.4294 0.6254
C24 C 0.9196(12) 0.2034(11) 0.8412(9)
H19 H 0.9468 0.1756 0.9099
Co1_2 Co 1.0000 0.5000 1.0000
O6 O 0.9447(8) 0.6944(7) 0.9115(6)
C17 C 0.9024(11) 0.7778(10) 0.9517(9)
C18 C 0.8684(11) 0.9092(11) 0.8753(9)
H14 H 0.8485 0.9230 0.8073
H15 H 0.8642 0.9975 0.9669
O23 O 0.8745(7) 0.4740(7) 0.9124(6)
O12 O 0.9652(8) 0.5645(7) 0.6891(5)
C25 C 0.9711(12) 0.6724(11) 0.6465(8)
C26 C 0.9089(11) 0.7517(11) 0.5427(9)
H21 H 0.8655 0.7168 0.5153
C27 C 0.9105(12) 0.8644(10) 0.4881(8)
H22 H 0.9470 0.9002 0.5202
C28 C 0.8626(12) 0.9433(11) 0.3824(9)
C29 C 0.8042(15) 0.9048(12) 0.3233(10)
H23 H 0.7896 0.8272 0.3501
C30 C 0.7694(15) 0.9891(12) 0.2223(11)
H24 H 0.7286 0.9680 0.1806
C33 C 0.7821(11) 0.4315(11) 0.9556(9)
C34 C 0.6714(11) 0.4621(11) 0.8905(9)
H27 H 0.6042 0.4286 0.9226
C35 C 0.6625(11) 0.5341(11) 0.7896(8)
H28 H 0.7337 0.5602 0.7559
C36 C 0.5477(12) 0.5759(12) 0.7268(8)
C37 C 0.5527(14) 0.6004(16) 0.6210(10)
H29 H 0.6313 0.5943 0.5833
C38 C 0.4402(15) 0.6340(18) 0.5711(11)
H30 H 0.4437 0.6457 0.4998
C39 C 0.3226(14) 0.6507(15) 0.6239(10)
H31 H 0.2478 0.6773 0.5867
C40 C 0.4245(12) 0.5940(11) 0.7750(9)
H32 H 0.4201 0.5800 0.8469
Co1_3 Co -0.0000 0.5000 0.0000
O2 O 0.0348(8) 0.4355(7) 0.3109(5)
O4 O 0.1255(7) 0.5260(7) 0.0876(6)
N3 N 0.6878(9) 0.3706(9) 0.2710(7)
C1 C 0.0289(12) 0.3276(11) 0.3535(8)
C2 C 0.0911(11) 0.2483(11) 0.4573(9)
H2 H 0.1345 0.2832 0.4847
C3 C 0.0895(12) 0.1356(10) 0.5119(8)
H3 H 0.0530 0.0998 0.4798
C4 C 0.1374(12) 0.0567(11) 0.6176(9)
C5 C 0.1958(15) 0.0952(12) 0.6767(10)
H4 H 0.2104 0.1728 0.6499
C6 C 0.2306(15) 0.0109(12) 0.7777(11)
H5 H 0.2714 0.0320 0.8194
C9 C 0.2179(11) 0.5685(11) 0.0444(9)
C10 C 0.3286(11) 0.5379(11) 0.1095(9)
H8 H 0.3958 0.5714 0.0774
C11 C 0.3375(11) 0.4659(11) 0.2104(8)
H9 H 0.2663 0.4398 0.2441
C12 C 0.4523(12) 0.4241(12) 0.2732(8)
C13 C 0.4473(14) 0.3996(16) 0.3790(10)
H10 H 0.3687 0.4057 0.4167
C14 C 0.5598(15) 0.3660(18) 0.4289(11)
H11 H 0.5563 0.3543 0.5002
C15 C 0.6774(14) 0.3493(15) 0.3761(10)
H12 H 0.7522 0.3227 0.4133
C16 C 0.5755(12) 0.4060(11) 0.2250(9)
H13 H 0.5799 0.4200 0.1531
Co10 Co 0.86798(16) 0.32855(14) 0.18751(11)
O25 O 0.0553(8) 0.3056(7) 0.0885(6)
N12 N 0.0594(10) 0.6912(8) 0.2276(7)
C41 C 0.0976(11) 0.2222(10) 0.0483(9)
C42 C 0.1316(11) 0.0908(11) 0.1247(9)
H33 H 0.1515 0.0770 0.1927
H34 H 0.1358 0.0025 0.0331
C43 C 0.1356(11) 0.9921(10) 0.1038(9)
C44 C 0.1398(12) 0.8685(11) 0.1816(9)
C45 C 0.1924(13) 0.8160(12) 0.2806(10)
H35 H 0.2375 0.8569 0.2995
C46 C 0.1785(13) 0.7048(11) 0.3507(9)
H36 H 0.2154 0.6696 0.4166
C47 C 0.1111(12) 0.6448(11) 0.3249(9)
H37 H 0.0999 0.5706 0.3746
C48 C 0.0804(12) 0.7966(11) 0.1588(9)
H38 H 0.0532 0.8244 0.0901
Co1_4 Co 1.0000 0.5000 0.0000
Co2 Co 0.95700(16) 0.59418(14) 0.18500(11)
O1 O 0.9726(8) 0.2764(7) 0.3172(5)
O5 O 0.8886(8) 0.7616(7) 0.0492(6)
N1 N 0.737(2) 0.6334(17) 0.3409(17)
O7 O 0.8718(7) 0.5103(6) 0.1245(5)
H1 H 0.7925 0.5354 0.1426
O8 O 0.8022(19) 0.5662(16) 0.4233(12)
O9 O 0.7787(12) 0.6705(9) 0.2519(8)
O10 O 0.618(2) 0.669(3) 0.3574(16)
N6 N 0.8504(10) 0.1400(9) 0.2366(7)
C31 C 0.7927(13) 0.1005(12) 0.1825(9)
H25 H 0.7675 0.1530 0.1141
C32 C 0.8800(12) 0.0596(10) 0.3367(8)
H26 H 0.9153 0.0856 0.3782
O22 O 0.7732(7) 0.3646(7) 0.0516(5)
loop_
_geom_bond_atom_site_label_1
_geom_bond_atom_site_label_2
_geom_bond_site_symmetry_1
_geom_bond_site_symmetry_2
Co12 O3 1_555 1_555
O26 Co1 1_555 1_555
Co12 O26 1_555 1_555
N2 C7 1_555 1_555
H6 C7 1_555 1_555
C8 N2 1_555 1_555
H7 C8 1_555 1_555
Co12 N2 1_555 1_555
O11 Co12 1_555 1_555
O15 Co8 1_555 1_555
N5 O18 1_555 1_555
O26 Co8 1_555 1_555
H20 O26 1_555 1_555
O19 Co8 1_555 1_555
O20 N5 1_555 1_555
N10 Co12 1_555 1_555
N5 O19 1_555 1_555
N4 C23 1_555 1_555
C20 C19 1_555 1_555
C21 C20 1_555 1_555
H16 C21 1_555 1_555
C22 C21 1_555 1_555
H17 C22 1_555 1_555
C23 C22 1_555 1_555
H18 C23 1_555 1_555
C24 N4 1_555 1_555
H19 C24 1_555 1_555
C20 C24 1_555 1_555
O6 Co1_2 1_555 1_555
C18 C17 1_555 1_555
H14 C18 1_555 1_555
O23 Co1_2 1_555 1_555
O6 C17 1_555 1_555
O12 C25 1_555 1_555
N10 C39 1_555 1_555
C26 C25 1_555 1_555
H21 C26 1_555 1_555
C27 C26 1_555 1_555
H22 C27 1_555 1_555
C28 C27 1_555 1_555
C29 C28 1_555 1_555
H23 C29 1_555 1_555
C30 C29 1_555 1_555
H24 C30 1_555 1_555
C33 O23 1_555 1_555
C34 C33 1_555 1_555
H27 C34 1_555 1_555
C35 C34 1_555 1_555
H28 C35 1_555 1_555
C36 C35 1_555 1_555
C37 C36 1_555 1_555
H29 C37 1_555 1_555
C38 C37 1_555 1_555
H30 C38 1_555 1_555
C39 C38 1_555 1_555
H31 C39 1_555 1_555
C40 N10 1_555 1_555
H32 C40 1_555 1_555
C36 C40 1_555 1_555
Co1_3 O4 1_555 1_555
O2 C1 1_555 1_555
N3 C15 1_555 1_555
C1 C2 1_555 1_555
C2 H2 1_555 1_555
C3 C2 1_555 1_555
H3 C3 1_555 1_555
C4 C3 1_555 1_555
C5 C4 1_555 1_555
H4 C5 1_555 1_555
C6 C5 1_555 1_555
H5 C6 1_555 1_555
C9 O4 1_555 1_555
C10 C9 1_555 1_555
H8 C10 1_555 1_555
C11 C10 1_555 1_555
H9 C11 1_555 1_555
C12 C11 1_555 1_555
C13 C12 1_555 1_555
H10 C13 1_555 1_555
C14 C13 1_555 1_555
H11 C14 1_555 1_555
C15 C14 1_555 1_555
H12 C15 1_555 1_555
C16 N3 1_555 1_555
H13 C16 1_555 1_555
Co10 N3 1_555 1_555
O25 Co1_3 1_555 1_555
C12 C16 1_555 1_555
O25 C41 1_555 1_555
C42 C41 1_555 1_555
H33 C42 1_555 1_555
N12 C47 1_555 1_555
C44 C43 1_555 1_555
C45 C44 1_555 1_555
H35 C45 1_555 1_555
C46 C45 1_555 1_555
H36 C46 1_555 1_555
C47 C46 1_555 1_555
H37 C47 1_555 1_555
C48 N12 1_555 1_555
H38 C48 1_555 1_555
C44 C48 1_555 1_555
Co10 O1 1_555 1_555
O5 Co2 1_555 1_555
N1 O8 1_555 1_555
O7 Co1_4 1_555 1_555
H1 O7 1_555 1_555
O9 Co2 1_555 1_555
O10 N1 1_555 1_555
N6 Co10 1_555 1_555
C31 N6 1_555 1_555
H25 C31 1_555 1_555
C32 N6 1_555 1_555
H26 C32 1_555 1_555
O22 Co10 1_555 1_555
Co2 O7 1_555 1_555
Co10 O7 1_555 1_555
N1 O9 1_555 1_555

#END
