
###############################################################################
#
# This file contains modified crystal structure data generated from the
# MOF subset of the Cambridge Structural Database (CSD) v543 
# hosted by the Cambridge Crystallographic Data Centre (CCDC).
#
# This work is licensed under the Creative Commons
# Attribution-NonCommercial-ShareAlike 4.0 International License.
# To view a copy of this license, visit
# http://creativecommons.org/licenses/by-nc-sa/4.0/
# or send a letter to
# Creative Commons, PO Box 1866, Mountain View, CA 94042, USA.
#
# CIF created using the CSD Python API on 29 September 2022
# The structure has been converted into the P1 space group
# The structure has a 3D framework
# The original CSD entry KIPZIU is in the rhombohedral crystal system
# The framework has been calculated to contain at least 10.0% void space
# The void calculation uses a probe of radius 1.32A, grid spacing 0.4
#
###############################################################################

data_KIPZIU
_chemical_formula_moiety         '(C162 H126 Co18 N18 O66)n'
_symmetry_cell_setting           triclinic
_symmetry_space_group_name_H-M   'P 1'
_symmetry_Int_Tables_number      1
_space_group_name_Hall           'P 1'
loop_
_symmetry_equiv_pos_site_id
_symmetry_equiv_pos_as_xyz
1 x,y,z
_cell_length_a                   22.575(12)
_cell_length_b                   22.575(12)
_cell_length_c                   11.483(2)
_cell_angle_alpha                90
_cell_angle_beta                 90
_cell_angle_gamma                120
_cell_volume                     5068.06
loop_
_atom_site_label
_atom_site_type_symbol
_atom_site_fract_x
_atom_site_fract_y
_atom_site_fract_z
O4 O 0.2432(3) 0.1078(3) 0.4251(5)
N1 N 0.4733(3) 0.1464(4) 0.0506(6)
C1 C 0.4563(5) 0.0430(5) 0.1382(10)
H1 H 0.4664 0.0078 0.1402
C3 C 0.2426(5) 0.0513(5) 0.4187(8)
C4 C 0.4862(5) 0.0944(5) 0.0569(9)
H3 H 0.5168 0.0932 0.0040
C5 C 0.4311(5) 0.1480(5) 0.1278(9)
H4 H 0.4234 0.1847 0.1253
C6 C 0.2977(5) 0.0506(5) 0.3460(9)
H5 H 0.2968 0.0090 0.3405
C7 C 0.3970(5) 0.0982(5) 0.2135(9)
C8 C 0.4119(6) 0.0448(5) 0.2153(10)
H6 H 0.3909 0.0102 0.2703
C9 C 0.3472(5) 0.1027(5) 0.2893(9)
H7 H 0.3508 0.1453 0.2981
Co5 Co 0.15605(8) 0.11781(6) 0.42974(10)
O5 O 0.1177(3) 0.0558(4) 0.5799(5)
Co1 Co 0.03824(6) 0.15605(8) 0.57026(10)
O1 O 0.0046(3) 0.2057(4) 0.4638(5)
O2 O 0.0784(3) 0.1125(4) 0.6877(5)
C2 C 0.1007(5) 0.0729(6) 0.6760(8)
H2 H 0.1058 0.0533 0.7437
O6 O 0.0619(3) 0.1177(5) 0.4201(5)
O7 O 0.1354(4) 0.2432(5) 0.5749(5)
N2 N 0.0064(5) 0.1934(6) 0.7173(6)
O2_2 O 0.5542(4) 0.2992(3) 0.0210(5)
C2_2 C 0.5938(6) 0.3611(4) 0.0093(8)
H2_2 H 0.6134 0.3858 0.0770
C5_2 C 0.0502(7) 0.2356(5) 0.7945(9)
H4_2 H 0.0946 0.2433 0.7920
C7_2 C 0.0345(7) 0.2697(5) 0.8802(9)
C9_2 C 0.0888(7) 0.3195(5) 0.9560(9)
H7_2 H 0.1278 0.3159 0.9648
C2_3 C 0.0278(4) 0.1007(5) 0.3240(8)
H2_3 H 0.0525 0.1058 0.2563
O1_2 O 0.2057(4) 0.2011(3) 0.5362(5)
O2_3 O 0.1125(4) 0.0341(3) 0.3123(5)
N1_2 N 0.3269(5) 0.4733(3) 0.9494(6)
C1_2 C 0.4133(7) 0.4563(5) 0.8618(10)
H1_2 H 0.4586 0.4664 0.8598
C3_2 C 0.1913(7) 0.2426(5) 0.5813(8)
C4_2 C 0.3918(7) 0.4862(5) 0.9431(9)
H3_2 H 0.4236 0.5168 0.9960
C5_3 C 0.2831(7) 0.4311(5) 0.8722(9)
H4_3 H 0.2387 0.4234 0.8747
C6_2 C 0.2471(7) 0.2977(5) 0.6540(9)
H5_2 H 0.2878 0.2968 0.6595
C7_3 C 0.2988(7) 0.3970(5) 0.7865(9)
C8_2 C 0.3671(8) 0.4119(6) 0.7847(10)
H6_2 H 0.3807 0.3909 0.7297
C9_3 C 0.2445(7) 0.3472(5) 0.7107(9)
H7_3 H 0.2055 0.3508 0.7019
N2_2 N 0.1934(6) 0.1869(4) 0.2827(6)
O2_4 O 0.2549(3) 0.5542(4) 0.9790(5)
C2_4 C 0.2326(5) 0.5938(6) 0.9907(8)
H2_4 H 0.2275 0.6134 0.9230
C1_3 C 0.2104(5) 0.2903(5) 0.1951(10)
H1_3 H 0.2003 0.3255 0.1931
C4_3 C 0.1805(5) 0.2389(5) 0.2764(9)
H3_3 H 0.1499 0.2401 0.3293
C5_4 C 0.2356(5) 0.1853(5) 0.2055(9)
H4_4 H 0.2433 0.1486 0.2080
C7_4 C 0.2697(5) 0.2351(5) 0.1198(9)
C8_3 C 0.2548(6) 0.2885(5) 0.1180(10)
H6_3 H 0.2758 0.3231 0.0630
C9_4 C 0.3195(5) 0.2306(5) 0.0440(9)
H7_4 H 0.3159 0.1880 0.0352
Co3 Co 0.51062(8) 0.21552(6) 0.90359(10)
Co3_2 Co 0.78448(6) 0.29509(10) 0.90359(10)
Co3_3 Co 0.70491(10) 0.48938(8) 0.90359(10)
N1_3 N 0.1400(3) 0.4797(4) 0.3839(6)
C1_4 C 0.1230(5) 0.3763(5) 0.4715(10)
H1_4 H 0.1331 0.3411 0.4735
C4_4 C 0.1529(5) 0.4277(5) 0.3902(9)
H3_4 H 0.1835 0.4265 0.3373
C5_5 C 0.0978(5) 0.4813(5) 0.4611(9)
H4_5 H 0.0901 0.5180 0.4586
C7_5 C 0.0637(5) 0.4315(5) 0.5468(9)
C8_4 C 0.0786(6) 0.3781(5) 0.5486(10)
H6_4 H 0.0576 0.3435 0.6036
C9_5 C 0.0139(5) 0.4360(5) 0.6226(9)
H7_5 H 0.0175 0.4786 0.6314
Co3_4 Co 0.17728(8) 0.54886(6) 0.23693(10)
O1_3 O 0.8678(3) 0.3287(3) 0.7971(5)
O3 O 0.6048(3) 0.2156(3) 0.9132(5)
O4_2 O 0.9099(3) 0.4411(3) 0.7584(5)
C3_3 C 0.9093(5) 0.3846(5) 0.7520(8)
C6_3 C 0.9644(5) 0.3839(5) 0.6793(9)
H5_3 H 0.9635 0.3423 0.6738
Co4 Co 0.62843(6) 0.17728(8) 0.76307(10)
Co5_2 Co 0.82272(8) 0.45114(6) 0.76307(10)
O5_2 O 0.7844(3) 0.3891(4) 0.9132(5)
O6_2 O 0.7225(4) 0.2714(3) 0.7534(5)
O7_2 O 0.7745(3) 0.1979(4) 0.9082(5)
O1_4 O 0.6713(3) 0.5390(4) 0.7971(5)
O4_3 O 0.5589(3) 0.4687(4) 0.7584(5)
N1_4 N 0.5203(4) 0.6602(5) 0.3839(6)
C1_5 C 0.6237(5) 0.7466(7) 0.4715(10)
H1_5 H 0.6589 0.7919 0.4735
C3_4 C 0.6154(5) 0.5246(7) 0.7520(8)
C4_5 C 0.5723(5) 0.7251(7) 0.3902(9)
H3_5 H 0.5735 0.7569 0.3373
C5_6 C 0.5187(5) 0.6164(7) 0.4611(9)
H4_6 H 0.4820 0.5720 0.4586
C6_4 C 0.6161(5) 0.5804(7) 0.6793(9)
H5_4 H 0.6577 0.6211 0.6738
C7_6 C 0.5685(5) 0.6321(7) 0.5468(9)
C8_5 C 0.6219(5) 0.7004(8) 0.5486(10)
H6_5 H 0.6565 0.7140 0.6036
C9_6 C 0.5640(5) 0.5778(7) 0.6226(9)
H7_6 H 0.5214 0.5388 0.6314
Co3_5 Co 0.45114(6) 0.62843(10) 0.23693(10)
Co5_3 Co 0.54886(6) 0.37157(10) 0.76307(10)
O5_3 O 0.6109(4) 0.3952(5) 0.9132(5)
O6_3 O 0.7286(3) 0.4510(5) 0.7534(5)
O7_3 O 0.8021(4) 0.5765(5) 0.9082(5)
O1_5 O 0.4610(4) 0.1322(3) 0.7971(5)
O4_4 O 0.5313(4) 0.0901(3) 0.7584(5)
C3_5 C 0.4754(7) 0.0907(5) 0.7520(8)
C6_5 C 0.4196(7) 0.0356(5) 0.6793(9)
H5_5 H 0.3789 0.0365 0.6738
O6_4 O 0.5490(5) 0.2775(4) 0.7534(5)
O7_4 O 0.4235(5) 0.2255(3) 0.9082(5)
N1_5 N 0.3398(5) 0.8600(3) 0.3839(6)
C1_6 C 0.2534(7) 0.8770(5) 0.4715(10)
H1_6 H 0.2081 0.8669 0.4735
C4_6 C 0.2749(7) 0.8471(5) 0.3902(9)
H3_6 H 0.2431 0.8165 0.3373
C5_7 C 0.3836(7) 0.9022(5) 0.4611(9)
H4_7 H 0.4280 0.9099 0.4586
C7_7 C 0.3679(7) 0.9363(5) 0.5468(9)
C8_6 C 0.2996(8) 0.9214(6) 0.5486(10)
H6_6 H 0.2860 0.9424 0.6036
C9_7 C 0.4222(7) 0.9861(5) 0.6226(9)
H7_7 H 0.4612 0.9825 0.6314
Co3_6 Co 0.37157(10) 0.82272(8) 0.23693(10)
O1_6 O 0.5344(3) 0.6621(3) 0.1305(5)
O2_5 O 0.3674(3) 0.5883(3) 0.3544(5)
O3_2 O 0.2714(3) 0.5490(3) 0.2466(5)
O4_5 O 0.5765(3) 0.7745(3) 0.0918(5)
C2_5 C 0.3055(4) 0.5660(5) 0.3427(8)
H2_5 H 0.2808 0.5609 0.4104
C3_6 C 0.5759(5) 0.7180(5) 0.0854(8)
C6_6 C 0.6310(5) 0.7173(5) 0.0127(9)
H5_6 H 0.6301 0.6757 0.0072
Co4_2 Co 0.29509(6) 0.51062(8) 0.09641(10)
Co5_4 Co 0.48938(8) 0.78448(6) 0.09641(10)
O5_4 O 0.4510(3) 0.7225(4) 0.2466(5)
O6_5 O 0.3891(4) 0.6048(3) 0.0868(5)
O7_5 O 0.4411(3) 0.5313(4) 0.2416(5)
O1_7 O 0.3379(3) 0.8724(4) 0.1305(5)
O2_6 O 0.4117(3) 0.7792(4) 0.3544(5)
O4_6 O 0.2255(3) 0.8021(4) 0.0918(5)
C2_6 C 0.4340(5) 0.7396(6) 0.3427(8)
H2_6 H 0.4391 0.7200 0.4104
C3_7 C 0.2820(5) 0.8580(7) 0.0854(8)
C6_7 C 0.2827(5) 0.9138(7) 0.0127(9)
H5_7 H 0.3243 0.9545 0.0072
Co5_5 Co 0.21552(6) 0.70491(10) 0.09641(10)
O5_5 O 0.2775(4) 0.7286(5) 0.2466(5)
O6_6 O 0.3952(3) 0.7844(5) 0.0868(5)
O7_6 O 0.4687(4) 0.9099(5) 0.2416(5)
O1_8 O 0.1276(4) 0.4656(3) 0.1305(5)
O2_7 O 0.2208(4) 0.6326(3) 0.3544(5)
O4_7 O 0.1979(4) 0.4235(3) 0.0918(5)
C2_7 C 0.2604(6) 0.6945(4) 0.3427(8)
H2_7 H 0.2800 0.7192 0.4104
C3_8 C 0.1420(7) 0.4241(5) 0.0854(8)
C6_8 C 0.0862(7) 0.3690(5) 0.0127(9)
H5_8 H 0.0455 0.3699 0.0072
O6_7 O 0.2156(5) 0.6109(4) 0.0868(5)
O7_7 O 0.0901(5) 0.5589(3) 0.2416(5)
O1_9 O 0.1322(3) 0.6713(3) 0.2029(5)
C3_9 C 0.0907(5) 0.6154(5) 0.2480(8)
C6_9 C 0.0356(5) 0.6161(5) 0.3207(9)
H5_9 H 0.0365 0.6577 0.3262
N1_6 N 0.8600(3) 0.5203(4) 0.6161(6)
C1_7 C 0.8770(5) 0.6237(5) 0.5285(10)
H1_7 H 0.8669 0.6589 0.5265
C4_7 C 0.8471(5) 0.5723(5) 0.6098(9)
H3_7 H 0.8165 0.5735 0.6627
C5_8 C 0.9022(5) 0.5187(5) 0.5389(9)
H4_8 H 0.9099 0.4820 0.5414
C7_8 C 0.9363(5) 0.5685(5) 0.4532(9)
C8_7 C 0.9214(6) 0.6219(5) 0.4514(10)
H6_7 H 0.9424 0.6565 0.3964
C9_8 C 0.9861(5) 0.5640(5) 0.3774(9)
H7_8 H 0.9825 0.5214 0.3686
O1_10 O 0.3287(3) 0.4610(4) 0.2029(5)
N1_7 N 0.4797(4) 0.3398(5) 0.6161(6)
C1_8 C 0.3763(5) 0.2534(7) 0.5285(10)
H1_8 H 0.3411 0.2081 0.5265
C3_10 C 0.3846(5) 0.4754(7) 0.2480(8)
C4_8 C 0.4277(5) 0.2749(7) 0.6098(9)
H3_8 H 0.4265 0.2431 0.6627
C5_9 C 0.4813(5) 0.3836(7) 0.5389(9)
H4_9 H 0.5180 0.4280 0.5414
C6_10 C 0.3839(5) 0.4196(7) 0.3207(9)
H5_10 H 0.3423 0.3789 0.3262
C7_9 C 0.4315(5) 0.3679(7) 0.4532(9)
C8_8 C 0.3781(5) 0.2996(8) 0.4514(10)
H6_8 H 0.3435 0.2860 0.3964
C9_9 C 0.4360(5) 0.4222(7) 0.3774(9)
H7_9 H 0.4786 0.4612 0.3686
N1_8 N 0.6602(5) 0.1400(3) 0.6161(6)
C1_9 C 0.7466(7) 0.1230(5) 0.5285(10)
H1_9 H 0.7919 0.1331 0.5265
C4_9 C 0.7251(7) 0.1529(5) 0.6098(9)
H3_9 H 0.7569 0.1835 0.6627
C5_10 C 0.6164(7) 0.0978(5) 0.5389(9)
H4_10 H 0.5720 0.0901 0.5414
C7_10 C 0.6321(7) 0.0637(5) 0.4532(9)
C8_9 C 0.7004(8) 0.0786(6) 0.4514(10)
H6_9 H 0.7140 0.0576 0.3964
C9_10 C 0.5778(7) 0.0139(5) 0.3774(9)
H7_10 H 0.5388 0.0175 0.3686
O1_11 O 0.5390(4) 0.8678(3) 0.2029(5)
C3_11 C 0.5246(7) 0.9093(5) 0.2480(8)
C6_11 C 0.5804(7) 0.9644(5) 0.3207(9)
H5_11 H 0.6211 0.9635 0.3262
O1_12 O 0.4656(3) 0.3379(3) 0.8695(5)
O2_8 O 0.6326(3) 0.4117(3) 0.6456(5)
C2_8 C 0.6945(4) 0.4340(5) 0.6573(8)
H2_8 H 0.7192 0.4391 0.5896
C3_12 C 0.4241(5) 0.2820(5) 0.9146(8)
C6_12 C 0.3690(5) 0.2827(5) 0.9873(9)
H5_12 H 0.3699 0.3243 0.9928
O1_13 O 0.6621(3) 0.1276(4) 0.8695(5)
O2_9 O 0.5883(3) 0.2208(4) 0.6456(5)
C2_9 C 0.5660(5) 0.2604(6) 0.6573(8)
H2_9 H 0.5609 0.2800 0.5896
C3_13 C 0.7180(5) 0.1420(7) 0.9146(8)
C6_13 C 0.7173(5) 0.0862(7) 0.9873(9)
H5_13 H 0.6757 0.0455 0.9928
O1_14 O 0.8724(4) 0.5344(3) 0.8695(5)
O2_10 O 0.7792(4) 0.3674(3) 0.6456(5)
C2_10 C 0.7396(6) 0.3055(4) 0.6573(8)
H2_10 H 0.7200 0.2808 0.5896
C3_14 C 0.8580(7) 0.5759(5) 0.9146(8)
C6_14 C 0.9138(7) 0.6310(5) 0.9873(9)
H5_14 H 0.9545 0.6301 0.9928
Co1_2 Co 0.11781(6) 0.96176(6) 0.57026(10)
O1_15 O 0.2011(3) 0.9954(3) 0.4638(5)
O2_11 O 0.0341(3) 0.9216(3) 0.6877(5)
O6_8 O 0.0558(4) 0.9381(3) 0.4201(5)
O7_8 O 0.1078(3) 0.8646(4) 0.5749(5)
N2_3 N 0.1869(4) 0.9936(5) 0.7173(6)
C5_11 C 0.1853(5) 0.9498(7) 0.7945(9)
H4_11 H 0.1486 0.9054 0.7920
C7_11 C 0.2351(5) 0.9655(7) 0.8802(9)
C9_11 C 0.2306(5) 0.9112(7) 0.9560(9)
H7_11 H 0.1880 0.8722 0.9648
N1_9 N 0.1464(4) 0.6731(5) 0.9494(6)
C1_10 C 0.0430(5) 0.5867(7) 0.8618(10)
H1_10 H 0.0078 0.5414 0.8598
C3_15 C 0.0513(5) 0.8087(7) 0.5813(8)
C4_10 C 0.0944(5) 0.6082(7) 0.9431(9)
H3_10 H 0.0932 0.5764 0.9960
C5_12 C 0.1480(5) 0.7169(7) 0.8722(9)
H4_12 H 0.1847 0.7613 0.8747
C6_15 C 0.0506(5) 0.7529(7) 0.6540(9)
H5_15 H 0.0090 0.7122 0.6595
C7_12 C 0.0982(5) 0.7012(7) 0.7865(9)
C8_10 C 0.0448(5) 0.6329(8) 0.7847(10)
H6_10 H 0.0102 0.6193 0.7297
C9_12 C 0.1027(5) 0.7555(7) 0.7107(9)
H7_12 H 0.1453 0.7945 0.7019
C2_11 C 0.0729(6) 0.9722(4) 0.3240(8)
H2_11 H 0.0533 0.9475 0.2563
O2_12 O 0.2992(3) 0.7451(3) 0.9790(5)
C2_12 C 0.3611(4) 0.7674(5) 0.9907(8)
H2_12 H 0.3858 0.7725 0.9230
O3_3 O 0.9381(3) 0.8823(3) 0.5799(5)
C2_13 C 0.9722(4) 0.8993(5) 0.6760(8)
H2_13 H 0.9475 0.8942 0.7437
Co2 Co 0.84395(8) 0.88219(6) 0.57026(10)
Co4_3 Co 0.96176(6) 0.84395(8) 0.42974(10)
O1_16 O 0.7943(4) 0.7989(3) 0.4638(5)
O2_13 O 0.8875(4) 0.9659(3) 0.6877(5)
O4_8 O 0.8646(4) 0.7568(3) 0.4251(5)
N1_10 N 0.6731(5) 0.5267(3) 0.0506(6)
C1_11 C 0.5867(7) 0.5437(5) 0.1382(10)
H1_11 H 0.5414 0.5336 0.1402
C3_16 C 0.8087(7) 0.7574(5) 0.4187(8)
C4_11 C 0.6082(7) 0.5138(5) 0.0569(9)
H3_11 H 0.5764 0.4832 0.0040
C5_13 C 0.7169(7) 0.5689(5) 0.1278(9)
H4_13 H 0.7613 0.5766 0.1253
C6_16 C 0.7529(7) 0.7023(5) 0.3460(9)
H5_16 H 0.7122 0.7032 0.3405
C7_13 C 0.7012(7) 0.6030(5) 0.2135(9)
C8_11 C 0.6329(8) 0.5881(6) 0.2153(10)
H6_11 H 0.6193 0.6091 0.2703
C9_13 C 0.7555(7) 0.6528(5) 0.2893(9)
H7_13 H 0.7945 0.6492 0.2981
O6_9 O 0.8823(5) 0.9442(4) 0.4201(5)
O7_9 O 0.7568(5) 0.8922(3) 0.5749(5)
N2_4 N 0.8066(6) 0.8131(4) 0.7173(6)
O2_14 O 0.7451(3) 0.4458(4) 0.0210(5)
C2_14 C 0.7674(5) 0.4062(6) 0.0093(8)
H2_14 H 0.7725 0.3866 0.0770
C1_12 C 0.7896(5) 0.7097(5) 0.8049(10)
H1_12 H 0.7997 0.6745 0.8069
C4_12 C 0.8195(5) 0.7611(5) 0.7236(9)
H3_12 H 0.8501 0.7599 0.6707
C5_14 C 0.7644(5) 0.8147(5) 0.7945(9)
H4_14 H 0.7567 0.8514 0.7920
C7_14 C 0.7303(5) 0.7649(5) 0.8802(9)
C8_12 C 0.7452(6) 0.7115(5) 0.8820(10)
H6_12 H 0.7242 0.6769 0.9370
C9_14 C 0.6805(5) 0.7694(5) 0.9560(9)
H7_14 H 0.6841 0.8120 0.9648
N1_11 N 0.5267(3) 0.8536(4) 0.9494(6)
C1_13 C 0.5437(5) 0.9570(5) 0.8618(10)
H1_13 H 0.5336 0.9922 0.8598
C3_17 C 0.7574(5) 0.9487(5) 0.5813(8)
C4_13 C 0.5138(5) 0.9056(5) 0.9431(9)
H3_13 H 0.4832 0.9068 0.9960
C5_15 C 0.5689(5) 0.8520(5) 0.8722(9)
H4_15 H 0.5766 0.8153 0.8747
C6_17 C 0.7023(5) 0.9494(5) 0.6540(9)
H5_17 H 0.7032 0.9910 0.6595
C7_15 C 0.6030(5) 0.9018(5) 0.7865(9)
C8_13 C 0.5881(6) 0.9552(5) 0.7847(10)
H6_13 H 0.6091 0.9898 0.7297
C9_15 C 0.6528(5) 0.8973(5) 0.7107(9)
H7_15 H 0.6492 0.8547 0.7019
O1_17 O 0.9954(3) 0.7943(4) 0.5362(5)
O2_15 O 0.9216(3) 0.8875(4) 0.3123(5)
C2_15 C 0.8993(5) 0.9271(6) 0.3240(8)
H2_15 H 0.8942 0.9467 0.2563
N2_5 N 0.9936(5) 0.8066(6) 0.2827(6)
O2_16 O 0.4458(4) 0.7008(3) 0.9790(5)
C2_16 C 0.4062(6) 0.6389(4) 0.9907(8)
H2_16 H 0.3866 0.6142 0.9230
C5_16 C 0.9498(7) 0.7644(5) 0.2055(9)
H4_16 H 0.9054 0.7567 0.2080
C7_16 C 0.9655(7) 0.7303(5) 0.1198(9)
C9_16 C 0.9112(7) 0.6805(5) 0.0440(9)
H7_16 H 0.8722 0.6841 0.0352
O4_9 O 0.8922(3) 0.1354(4) 0.4251(5)
N1_12 N 0.8536(4) 0.3269(5) 0.0506(6)
C1_14 C 0.9570(5) 0.4133(7) 0.1382(10)
H1_14 H 0.9922 0.4586 0.1402
C3_18 C 0.9487(5) 0.1913(7) 0.4187(8)
C4_14 C 0.9056(5) 0.3918(7) 0.0569(9)
H3_14 H 0.9068 0.4236 0.0040
C5_17 C 0.8520(5) 0.2831(7) 0.1278(9)
H4_17 H 0.8153 0.2387 0.1253
C6_18 C 0.9494(5) 0.2471(7) 0.3460(9)
H5_18 H 0.9910 0.2878 0.3405
C7_17 C 0.9018(5) 0.2988(7) 0.2135(9)
C8_14 C 0.9552(5) 0.3671(8) 0.2153(10)
H6_14 H 0.9898 0.3807 0.2703
C9_17 C 0.8973(5) 0.2445(7) 0.2893(9)
H7_17 H 0.8547 0.2055 0.2981
Co5_6 Co 0.88219(6) 0.03824(10) 0.42974(10)
O5_6 O 0.9442(4) 0.0619(5) 0.5799(5)
C2_17 C 0.9271(6) 0.0278(4) 0.6760(8)
H2_17 H 0.9467 0.0525 0.7437
O2_17 O 0.7008(3) 0.2549(3) 0.0210(5)
C2_18 C 0.6389(4) 0.2326(5) 0.0093(8)
H2_18 H 0.6142 0.2275 0.0770
O1_18 O 0.7989(3) 0.0046(3) 0.5362(5)
O2_18 O 0.9659(3) 0.0784(3) 0.3123(5)
N2_6 N 0.8131(4) 0.0064(5) 0.2827(6)
C5_18 C 0.8147(5) 0.0502(7) 0.2055(9)
H4_18 H 0.8514 0.0946 0.2080
C7_18 C 0.7649(5) 0.0345(7) 0.1198(9)
C9_18 C 0.7694(5) 0.0888(7) 0.0440(9)
H7_18 H 0.8120 0.1278 0.0352
C1_15 C 0.2903(5) 0.0800(7) 0.8049(10)
H1_15 H 0.3255 0.1253 0.8069
C4_15 C 0.2389(5) 0.0585(7) 0.7236(9)
H3_15 H 0.2401 0.0903 0.6707
C8_15 C 0.2885(5) 0.0338(8) 0.8820(10)
H6_15 H 0.3231 0.0474 0.9370
C1_16 C 0.9200(7) 0.2104(5) 0.8049(10)
H1_16 H 0.8747 0.2003 0.8069
C4_16 C 0.9415(7) 0.1805(5) 0.7236(9)
H3_16 H 0.9097 0.1499 0.6707
C8_16 C 0.9662(8) 0.2548(6) 0.8820(10)
H6_16 H 0.9526 0.2758 0.9370
C1_17 C 0.7097(5) 0.9200(7) 0.1951(10)
H1_17 H 0.6745 0.8747 0.1931
C4_17 C 0.7611(5) 0.9415(7) 0.2764(9)
H3_17 H 0.7599 0.9097 0.3293
C8_17 C 0.7115(5) 0.9662(8) 0.1180(10)
H6_17 H 0.6769 0.9526 0.0630
C1_18 C 0.0800(7) 0.7896(5) 0.1951(10)
H1_18 H 0.1253 0.7997 0.1931
C4_18 C 0.0585(7) 0.8195(5) 0.2764(9)
H3_18 H 0.0903 0.8501 0.3293
C8_18 C 0.0338(8) 0.7452(6) 0.1180(10)
H6_18 H 0.0474 0.7242 0.0630
loop_
_geom_bond_atom_site_label_1
_geom_bond_atom_site_label_2
_geom_bond_site_symmetry_1
_geom_bond_site_symmetry_2
O4 C3 1_555 1_555
N1 C4 1_555 1_555
C1 H1 1_555 1_555
C3 C6 1_555 1_555
C4 C1 1_555 1_555
H3 C4 1_555 1_555
C5 N1 1_555 1_555
H4 C5 1_555 1_555
C6 H5 1_555 1_555
C7 C5 1_555 1_555
C8 C1 1_555 1_555
H6 C8 1_555 1_555
C9 C6 1_555 1_555
H7 C9 1_555 1_555
Co5 O4 1_555 1_555
C7 C8 1_555 1_555
C7 C9 1_555 1_555
Co5 O5 1_555 1_555
Co1 O1 1_555 1_555
O2 Co1 1_555 1_555
O5 C2 1_555 1_555
C2 O2 1_555 1_555
H2 C2 1_555 1_555
O6 Co1 1_555 1_555
O7 Co1 1_555 1_555
N2 Co1 1_555 1_555
Co5 O6 1_555 1_555
C2_2 O2_2 1_555 1_555
H2_2 C2_2 1_555 1_555
C5_2 N2 1_555 1_555
H4_2 C5_2 1_555 1_555
C7_2 C5_2 1_555 1_555
H7_2 C9_2 1_555 1_555
C7_2 C9_2 1_555 1_555
O6 C2_3 1_555 1_555
H2_3 C2_3 1_555 1_555
Co5 O1_2 1_555 1_555
O1_2 C3_2 1_555 1_555
O2_3 Co5 1_555 1_555
O7 C3_2 1_555 1_555
N1_2 C4_2 1_555 1_555
C1_2 H1_2 1_555 1_555
C3_2 C6_2 1_555 1_555
C4_2 C1_2 1_555 1_555
H3_2 C4_2 1_555 1_555
C5_3 N1_2 1_555 1_555
H4_3 C5_3 1_555 1_555
C6_2 H5_2 1_555 1_555
C7_3 C5_3 1_555 1_555
C8_2 C1_2 1_555 1_555
H6_2 C8_2 1_555 1_555
C9_3 C6_2 1_555 1_555
H7_3 C9_3 1_555 1_555
N2_2 Co5 1_555 1_555
C7_3 C8_2 1_555 1_555
C7_3 C9_3 1_555 1_555
C2_4 O2_4 1_555 1_555
H2_4 C2_4 1_555 1_555
N2_2 C4_3 1_555 1_555
C1_3 H1_3 1_555 1_555
C4_3 C1_3 1_555 1_555
H3_3 C4_3 1_555 1_555
C5_4 N2_2 1_555 1_555
H4_4 C5_4 1_555 1_555
C7_4 C5_4 1_555 1_555
C8_3 C1_3 1_555 1_555
H6_3 C8_3 1_555 1_555
H7_4 C9_4 1_555 1_555
C7_4 C8_3 1_555 1_555
C7_4 C9_4 1_555 1_555
N1_3 C4_4 1_555 1_555
C1_4 H1_4 1_555 1_555
C4_4 C1_4 1_555 1_555
H3_4 C4_4 1_555 1_555
C5_5 N1_3 1_555 1_555
H4_5 C5_5 1_555 1_555
C7_5 C5_5 1_555 1_555
C8_4 C1_4 1_555 1_555
H6_4 C8_4 1_555 1_555
H7_5 C9_5 1_555 1_555
Co3_4 N1_3 1_555 1_555
C7_5 C8_4 1_555 1_555
C7_5 C9_5 1_555 1_555
Co3_2 O1_3 1_555 1_555
O1_3 C3_3 1_555 1_555
O4_2 C3_3 1_555 1_555
C3_3 C6_3 1_555 1_555
C6_3 H5_3 1_555 1_555
Co3 O3 1_555 1_555
Co4 O3 1_555 1_555
Co5_2 O4_2 1_555 1_555
O5_2 Co3_2 1_555 1_555
O6_2 Co3_2 1_555 1_555
O7_2 Co3_2 1_555 1_555
Co4 O6_2 1_555 1_555
Co5_2 O5_2 1_555 1_555
Co3_3 O1_4 1_555 1_555
O1_4 C3_4 1_555 1_555
O4_3 C3_4 1_555 1_555
N1_4 C4_5 1_555 1_555
C1_5 H1_5 1_555 1_555
C3_4 C6_4 1_555 1_555
C4_5 C1_5 1_555 1_555
H3_5 C4_5 1_555 1_555
C5_6 N1_4 1_555 1_555
H4_6 C5_6 1_555 1_555
C6_4 H5_4 1_555 1_555
C7_6 C5_6 1_555 1_555
C8_5 C1_5 1_555 1_555
H6_5 C8_5 1_555 1_555
C9_6 C6_4 1_555 1_555
H7_6 C9_6 1_555 1_555
Co3_5 N1_4 1_555 1_555
Co5_3 O4_3 1_555 1_555
O5_3 Co3_3 1_555 1_555
O6_3 Co3_3 1_555 1_555
O7_3 Co3_3 1_555 1_555
C7_6 C8_5 1_555 1_555
C7_6 C9_6 1_555 1_555
Co5_2 O6_3 1_555 1_555
Co5_3 O5_3 1_555 1_555
Co3 O1_5 1_555 1_555
O1_5 C3_5 1_555 1_555
O4_4 C3_5 1_555 1_555
C3_5 C6_5 1_555 1_555
C6_5 H5_5 1_555 1_555
Co4 O4_4 1_555 1_555
O6_4 Co3 1_555 1_555
O7_4 Co3 1_555 1_555
Co5_3 O6_4 1_555 1_555
N1_5 C4_6 1_555 1_555
C1_6 H1_6 1_555 1_555
C4_6 C1_6 1_555 1_555
H3_6 C4_6 1_555 1_555
C5_7 N1_5 1_555 1_555
H4_7 C5_7 1_555 1_555
C7_7 C5_7 1_555 1_555
C8_6 C1_6 1_555 1_555
H6_6 C8_6 1_555 1_555
H7_7 C9_7 1_555 1_555
Co3_6 N1_5 1_555 1_555
C7_7 C8_6 1_555 1_555
C7_7 C9_7 1_555 1_555
Co3_5 O1_6 1_555 1_555
O1_6 C3_6 1_555 1_555
O2_5 Co3_5 1_555 1_555
O3_2 C2_5 1_555 1_555
O4_5 C3_6 1_555 1_555
C2_5 O2_5 1_555 1_555
H2_5 C2_5 1_555 1_555
C3_6 C6_6 1_555 1_555
C6_6 H5_6 1_555 1_555
Co3_4 O3_2 1_555 1_555
Co4_2 O3_2 1_555 1_555
Co5_4 O4_5 1_555 1_555
O5_4 Co3_5 1_555 1_555
O6_5 Co3_5 1_555 1_555
O7_5 Co3_5 1_555 1_555
Co4_2 O6_5 1_555 1_555
Co5_4 O5_4 1_555 1_555
Co3_6 O1_7 1_555 1_555
O1_7 C3_7 1_555 1_555
O2_6 Co3_6 1_555 1_555
O5_4 C2_6 1_555 1_555
O4_6 C3_7 1_555 1_555
C2_6 O2_6 1_555 1_555
H2_6 C2_6 1_555 1_555
C3_7 C6_7 1_555 1_555
C6_7 H5_7 1_555 1_555
Co5_5 O4_6 1_555 1_555
O5_5 Co3_6 1_555 1_555
O6_6 Co3_6 1_555 1_555
O7_6 Co3_6 1_555 1_555
Co5_4 O6_6 1_555 1_555
Co5_5 O5_5 1_555 1_555
Co3_4 O1_8 1_555 1_555
O1_8 C3_8 1_555 1_555
O2_7 Co3_4 1_555 1_555
O5_5 C2_7 1_555 1_555
O4_7 C3_8 1_555 1_555
C2_7 O2_7 1_555 1_555
H2_7 C2_7 1_555 1_555
C3_8 C6_8 1_555 1_555
C6_8 H5_8 1_555 1_555
Co4_2 O4_7 1_555 1_555
O6_7 Co3_4 1_555 1_555
O7_7 Co3_4 1_555 1_555
Co5_5 O6_7 1_555 1_555
Co5_5 O1_9 1_555 1_555
O1_9 C3_9 1_555 1_555
O7_7 C3_9 1_555 1_555
C3_9 C6_9 1_555 1_555
C6_9 H5_9 1_555 1_555
N1_6 C4_7 1_555 1_555
C1_7 H1_7 1_555 1_555
C4_7 C1_7 1_555 1_555
H3_7 C4_7 1_555 1_555
C5_8 N1_6 1_555 1_555
H4_8 C5_8 1_555 1_555
C7_8 C5_8 1_555 1_555
C8_7 C1_7 1_555 1_555
H6_7 C8_7 1_555 1_555
H7_8 C9_8 1_555 1_555
Co5_2 N1_6 1_555 1_555
C7_8 C8_7 1_555 1_555
C7_8 C9_8 1_555 1_555
Co4_2 O1_10 1_555 1_555
O1_10 C3_10 1_555 1_555
O7_5 C3_10 1_555 1_555
N1_7 C4_8 1_555 1_555
C1_8 H1_8 1_555 1_555
C3_10 C6_10 1_555 1_555
C4_8 C1_8 1_555 1_555
H3_8 C4_8 1_555 1_555
C5_9 N1_7 1_555 1_555
H4_9 C5_9 1_555 1_555
C6_10 H5_10 1_555 1_555
C7_9 C5_9 1_555 1_555
C8_8 C1_8 1_555 1_555
H6_8 C8_8 1_555 1_555
C9_9 C6_10 1_555 1_555
H7_9 C9_9 1_555 1_555
Co5_3 N1_7 1_555 1_555
C7_9 C8_8 1_555 1_555
C7_9 C9_9 1_555 1_555
N1_8 C4_9 1_555 1_555
C1_9 H1_9 1_555 1_555
C4_9 C1_9 1_555 1_555
H3_9 C4_9 1_555 1_555
C5_10 N1_8 1_555 1_555
H4_10 C5_10 1_555 1_555
C7_10 C5_10 1_555 1_555
C8_9 C1_9 1_555 1_555
H6_9 C8_9 1_555 1_555
H7_10 C9_10 1_555 1_555
Co4 N1_8 1_555 1_555
C7_10 C8_9 1_555 1_555
C7_10 C9_10 1_555 1_555
Co5_4 O1_11 1_555 1_555
O1_11 C3_11 1_555 1_555
O7_6 C3_11 1_555 1_555
C3_11 C6_11 1_555 1_555
C6_11 H5_11 1_555 1_555
Co5_3 O1_12 1_555 1_555
O1_12 C3_12 1_555 1_555
O2_8 Co5_3 1_555 1_555
O6_3 C2_8 1_555 1_555
O7_4 C3_12 1_555 1_555
C2_8 O2_8 1_555 1_555
H2_8 C2_8 1_555 1_555
C3_12 C6_12 1_555 1_555
C6_12 H5_12 1_555 1_555
Co4 O1_13 1_555 1_555
O1_13 C3_13 1_555 1_555
O2_9 Co4 1_555 1_555
O6_4 C2_9 1_555 1_555
O7_2 C3_13 1_555 1_555
C2_9 O2_9 1_555 1_555
H2_9 C2_9 1_555 1_555
C3_13 C6_13 1_555 1_555
C6_13 H5_13 1_555 1_555
Co5_2 O1_14 1_555 1_555
O1_14 C3_14 1_555 1_555
O2_10 Co5_2 1_555 1_555
O6_2 C2_10 1_555 1_555
O7_3 C3_14 1_555 1_555
C2_10 O2_10 1_555 1_555
H2_10 C2_10 1_555 1_555
C3_14 C6_14 1_555 1_555
C6_14 H5_14 1_555 1_555
Co1_2 O1_15 1_555 1_555
O2_11 Co1_2 1_555 1_555
O6_8 Co1_2 1_555 1_555
O7_8 Co1_2 1_555 1_555
N2_3 Co1_2 1_555 1_555
C5_11 N2_3 1_555 1_555
H4_11 C5_11 1_555 1_555
C7_11 C5_11 1_555 1_555
H7_11 C9_11 1_555 1_555
C7_11 C9_11 1_555 1_555
O7_8 C3_15 1_555 1_555
N1_9 C4_10 1_555 1_555
C1_10 H1_10 1_555 1_555
C3_15 C6_15 1_555 1_555
C4_10 C1_10 1_555 1_555
H3_10 C4_10 1_555 1_555
C5_12 N1_9 1_555 1_555
H4_12 C5_12 1_555 1_555
C6_15 H5_15 1_555 1_555
C7_12 C5_12 1_555 1_555
C8_10 C1_10 1_555 1_555
H6_10 C8_10 1_555 1_555
C9_12 C6_15 1_555 1_555
H7_12 C9_12 1_555 1_555
C7_12 C8_10 1_555 1_555
C7_12 C9_12 1_555 1_555
O6_8 C2_11 1_555 1_555
H2_11 C2_11 1_555 1_555
C2_12 O2_12 1_555 1_555
H2_12 C2_12 1_555 1_555
O3_3 C2_13 1_555 1_555
H2_13 C2_13 1_555 1_555
Co2 O3_3 1_555 1_555
Co4_3 O3_3 1_555 1_555
Co2 O1_16 1_555 1_555
O1_16 C3_16 1_555 1_555
O2_13 Co2 1_555 1_555
O4_8 C3_16 1_555 1_555
N1_10 C4_11 1_555 1_555
C1_11 H1_11 1_555 1_555
C3_16 C6_16 1_555 1_555
C4_11 C1_11 1_555 1_555
H3_11 C4_11 1_555 1_555
C5_13 N1_10 1_555 1_555
H4_13 C5_13 1_555 1_555
C6_16 H5_16 1_555 1_555
C7_13 C5_13 1_555 1_555
C8_11 C1_11 1_555 1_555
H6_11 C8_11 1_555 1_555
C9_13 C6_16 1_555 1_555
H7_13 C9_13 1_555 1_555
Co4_3 O4_8 1_555 1_555
O6_9 Co2 1_555 1_555
O7_9 Co2 1_555 1_555
N2_4 Co2 1_555 1_555
C7_13 C8_11 1_555 1_555
C7_13 C9_13 1_555 1_555
C2_14 O2_14 1_555 1_555
H2_14 C2_14 1_555 1_555
N2_4 C4_12 1_555 1_555
C1_12 H1_12 1_555 1_555
C4_12 C1_12 1_555 1_555
H3_12 C4_12 1_555 1_555
C5_14 N2_4 1_555 1_555
H4_14 C5_14 1_555 1_555
C7_14 C5_14 1_555 1_555
C8_12 C1_12 1_555 1_555
H6_12 C8_12 1_555 1_555
H7_14 C9_14 1_555 1_555
C7_14 C8_12 1_555 1_555
C7_14 C9_14 1_555 1_555
O7_9 C3_17 1_555 1_555
N1_11 C4_13 1_555 1_555
C1_13 H1_13 1_555 1_555
C3_17 C6_17 1_555 1_555
C4_13 C1_13 1_555 1_555
H3_13 C4_13 1_555 1_555
C5_15 N1_11 1_555 1_555
H4_15 C5_15 1_555 1_555
C6_17 H5_17 1_555 1_555
C7_15 C5_15 1_555 1_555
C8_13 C1_13 1_555 1_555
H6_13 C8_13 1_555 1_555
C9_15 C6_17 1_555 1_555
H7_15 C9_15 1_555 1_555
C7_15 C8_13 1_555 1_555
C7_15 C9_15 1_555 1_555
Co4_3 O1_17 1_555 1_555
O2_15 Co4_3 1_555 1_555
O6_9 C2_15 1_555 1_555
C2_15 O2_15 1_555 1_555
H2_15 C2_15 1_555 1_555
N2_5 Co4_3 1_555 1_555
C2_16 O2_16 1_555 1_555
H2_16 C2_16 1_555 1_555
C5_16 N2_5 1_555 1_555
H4_16 C5_16 1_555 1_555
C7_16 C5_16 1_555 1_555
H7_16 C9_16 1_555 1_555
C7_16 C9_16 1_555 1_555
O4_9 C3_18 1_555 1_555
N1_12 C4_14 1_555 1_555
C1_14 H1_14 1_555 1_555
C3_18 C6_18 1_555 1_555
C4_14 C1_14 1_555 1_555
H3_14 C4_14 1_555 1_555
C5_17 N1_12 1_555 1_555
H4_17 C5_17 1_555 1_555
C6_18 H5_18 1_555 1_555
C7_17 C5_17 1_555 1_555
C8_14 C1_14 1_555 1_555
H6_14 C8_14 1_555 1_555
C9_17 C6_18 1_555 1_555
H7_17 C9_17 1_555 1_555
Co5_6 O4_9 1_555 1_555
C7_17 C8_14 1_555 1_555
C7_17 C9_17 1_555 1_555
Co5_6 O5_6 1_555 1_555
O5_6 C2_17 1_555 1_555
H2_17 C2_17 1_555 1_555
C2_18 O2_17 1_555 1_555
H2_18 C2_18 1_555 1_555
Co5_6 O1_18 1_555 1_555
O2_18 Co5_6 1_555 1_555
N2_6 Co5_6 1_555 1_555
C5_18 N2_6 1_555 1_555
H4_18 C5_18 1_555 1_555
C7_18 C5_18 1_555 1_555
H7_18 C9_18 1_555 1_555
C7_18 C9_18 1_555 1_555
C1_15 H1_15 1_555 1_555
C4_15 C1_15 1_555 1_555
H3_15 C4_15 1_555 1_555
C8_15 C1_15 1_555 1_555
H6_15 C8_15 1_555 1_555
C1_16 H1_16 1_555 1_555
C4_16 C1_16 1_555 1_555
H3_16 C4_16 1_555 1_555
C8_16 C1_16 1_555 1_555
H6_16 C8_16 1_555 1_555
C1_17 H1_17 1_555 1_555
C4_17 C1_17 1_555 1_555
H3_17 C4_17 1_555 1_555
C8_17 C1_17 1_555 1_555
H6_17 C8_17 1_555 1_555
C1_18 H1_18 1_555 1_555
C4_18 C1_18 1_555 1_555
H3_18 C4_18 1_555 1_555
C8_18 C1_18 1_555 1_555
H6_18 C8_18 1_555 1_555

#END
