
###############################################################################
#
# This file contains modified crystal structure data generated from the
# MOF subset of the Cambridge Structural Database (CSD) v543 
# hosted by the Cambridge Crystallographic Data Centre (CCDC).
#
# This work is licensed under the Creative Commons
# Attribution-NonCommercial-ShareAlike 4.0 International License.
# To view a copy of this license, visit
# http://creativecommons.org/licenses/by-nc-sa/4.0/
# or send a letter to
# Creative Commons, PO Box 1866, Mountain View, CA 94042, USA.
#
# CIF created using the CSD Python API on 29 September 2022
# The structure has been converted into the P1 space group
# The structure has a 3D framework
# The original CSD entry KIQKOK is in the monoclinic crystal system
# The framework has been calculated to contain at least 10.0% void space
# The void calculation uses a probe of radius 1.32A, grid spacing 0.4
#
###############################################################################

data_KIQKOK
_chemical_formula_moiety         '(C40 H36 Cu6 Mo8 N12 O27)n'
_symmetry_cell_setting           triclinic
_symmetry_space_group_name_H-M   'P 1'
_symmetry_Int_Tables_number      1
_space_group_name_Hall           'P 1'
loop_
_symmetry_equiv_pos_site_id
_symmetry_equiv_pos_as_xyz
1 x,y,z
_cell_length_a                   7.5233(4)
_cell_length_b                   27.4599(14)
_cell_length_c                   9.2537(5)
_cell_angle_alpha                90
_cell_angle_beta                 108.27
_cell_angle_gamma                90
_cell_volume                     1815.34
loop_
_atom_site_label
_atom_site_type_symbol
_atom_site_fract_x
_atom_site_fract_y
_atom_site_fract_z
O1 O 0.5119(8) 0.5364(2) 0.2695(6)
O2 O 0.2797(9) 0.4925(2) 0.0051(7)
O3 O 0.1063(9) 0.5471(2) 0.1803(7)
O4 O 0.2735(9) 0.4521(2) 0.2875(7)
O5 O 0.3217(8) 0.5249(2) 0.4878(7)
O6 O 0.1616(9) 0.5392(2) 0.7342(7)
O8 O 0.1930(9) 0.6178(2) 0.5511(8)
N1 N 0.5948(10) 0.6187(2) 0.4740(8)
N2 N 0.5394(13) 0.7690(3) 0.4052(10)
N3 N 0.7330(10) 0.9016(3) 0.6260(8)
C1 C 0.6939(14) 0.6493(4) 0.5836(11)
H1 H 0.7749(14) 0.6361(4) 0.6724(11)
C2 C 0.6810(15) 0.6992(3) 0.5702(11)
H2 H 0.7497(15) 0.7189(3) 0.6501(11)
C3 C 0.5653(13) 0.7201(3) 0.4375(11)
C4 C 0.4583(13) 0.6884(3) 0.3262(11)
H3 H 0.3756(13) 0.7007(3) 0.2366(11)
C5 C 0.4751(13) 0.6390(3) 0.3488(11)
H4 H 0.4003(13) 0.6186(3) 0.2741(11)
C6 C 0.8288(9) 0.8602(2) 0.6747(8)
H5 H 0.9370(9) 0.8621(2) 0.7579(8)
C7 C 0.7770(9) 0.8149(2) 0.6091(8)
H6 H 0.8504(9) 0.7876(2) 0.6463(8)
C8 C 0.6142(14) 0.8109(3) 0.4872(11)
H7 H 0.457(17) 0.7763(44) 0.332(14)
C9 C 0.5105(13) 0.8537(3) 0.4348(10)
H8 H 0.4014(13) 0.8526(3) 0.3523(10)
C10 C 0.5722(12) 0.8972(3) 0.5067(10)
H9 H 0.5008(12) 0.9250(3) 0.4723(10)
Mo1 Mo 0.29030(10) 0.50706(3) 0.19085(8)
Mo2 Mo 0.14824(10) 0.55670(3) 0.54831(8)
Cu1 Cu 0.63129(14) 0.54744(4) 0.48985(11)
Cu4 Cu 0.36871(14) 0.45256(4) 0.51015(11)
Cu5 Cu 0.18950(15) 0.46859(4) 0.79791(11)
Cu6 Cu 0.81050(15) 0.96859(4) 0.70209(11)
O9 O 0.9143(8) 0.5473(2) 0.4225(6)
O10 O 0.7265(9) 0.5479(2) 0.7125(7)
O11 O 0.6783(8) 0.4751(2) 0.5122(7)
O14 O 0.0857(8) 0.4527(2) 0.5775(6)
N4 N 0.2670(10) 0.4016(3) 0.8740(8)
Cu3 Cu 0.81050(15) 0.53141(4) 0.20209(11)
O12 O 0.8937(9) 0.4529(2) 0.8197(7)
Cu4_2 Cu 0.36871(14) 0.04744(4) 0.01015(11)
Cu5_2 Cu 0.18950(15) 0.03141(4) 0.29791(11)
O11_2 O 0.6783(8) 0.0249(2) 0.0122(7)
O2_2 O 0.2797(9) 0.0075(2) 0.5051(7)
O4_2 O 0.2735(9) 0.0479(2) 0.7875(7)
O14_2 O 0.0857(8) 0.0473(2) 0.0775(6)
N4_2 N 0.2670(10) 0.0984(3) 0.3740(8)
O6_2 O 0.1616(9) 0.9608(2) 0.2342(7)
O8_2 O 0.1930(9) 0.8822(2) 0.0511(8)
N3_2 N 0.7330(10) 0.5984(3) 0.1260(8)
C1_2 C 0.6939(14) 0.8507(4) 0.0836(11)
H1_2 H 0.7749(14) 0.8639(4) 0.1724(11)
C2_2 C 0.6810(15) 0.8008(3) 0.0702(11)
H2_2 H 0.7497(15) 0.7811(3) 0.1501(11)
C6_2 C 0.8288(9) 0.6398(2) 0.1747(8)
H5_2 H 0.9370(9) 0.6379(2) 0.2579(8)
C7_2 C 0.7770(9) 0.6851(2) 0.1091(8)
H6_2 H 0.8504(9) 0.7124(2) 0.1463(8)
C10_2 C 0.5722(12) 0.6028(3) 0.0067(10)
Mo2_2 Mo 0.14824(10) 0.94330(3) 0.04831(8)
O10_2 O 0.7265(9) 0.9521(2) 0.2125(7)
O1_2 O 0.5119(8) 0.9636(2) 0.7695(6)
O3_2 O 0.1063(9) 0.9529(2) 0.6803(7)
O5_2 O 0.3217(8) 0.9751(2) 0.9878(7)
N1_2 N 0.5948(10) 0.8813(2) 0.9740(8)
N2_2 N 0.5394(13) 0.7310(3) 0.9052(10)
C3_2 C 0.5653(13) 0.7799(3) 0.9375(11)
C4_2 C 0.4583(13) 0.8116(3) 0.8262(11)
H3_2 H 0.3756(13) 0.7993(3) 0.7366(11)
C5_2 C 0.4751(13) 0.8610(3) 0.8488(11)
H4_2 H 0.4003(13) 0.8814(3) 0.7741(11)
C8_2 C 0.6142(14) 0.6891(3) 0.9872(11)
H7_2 H 0.457(17) 0.7237(44) 0.832(14)
C9_2 C 0.5105(13) 0.6463(3) 0.9348(10)
H8_2 H 0.4014(13) 0.6474(3) 0.8523(10)
H9_2 H 0.5008(12) 0.5750(3) 0.9723(10)
Mo1_2 Mo 0.29030(10) 0.99294(3) 0.69085(8)
Cu1_2 Cu 0.63129(14) 0.95256(4) 0.98985(11)
O9_2 O 0.9143(8) 0.9527(2) 0.9225(6)
O12_2 O 0.8937(9) 0.0471(2) 0.3197(7)
O13 O 0.8384(9) 0.4608(2) 0.2658(7)
O1_3 O 0.4881(8) 0.4636(2) 0.7305(6)
O2_3 O 0.7203(9) 0.5075(2) 0.9949(7)
O8_3 O 0.8070(9) 0.3822(2) 0.4489(8)
N1_3 N 0.4052(10) 0.3813(2) 0.5260(8)
N2_3 N 0.4606(13) 0.2310(3) 0.5948(10)
C1_3 C 0.3061(14) 0.3507(4) 0.4164(11)
H1_3 H 0.2251(14) 0.3639(4) 0.3276(11)
C2_3 C 0.3190(15) 0.3008(3) 0.4298(11)
H2_3 H 0.2503(15) 0.2811(3) 0.3499(11)
C3_3 C 0.4347(13) 0.2799(3) 0.5625(11)
C4_3 C 0.5417(13) 0.3116(3) 0.6738(11)
H3_3 H 0.6244(13) 0.2993(3) 0.7634(11)
C5_3 C 0.5249(13) 0.3610(3) 0.6512(11)
H4_3 H 0.5997(13) 0.3814(3) 0.7259(11)
C6_3 C 0.1712(9) 0.1398(2) 0.3253(8)
H5_3 H 0.0630(9) 0.1379(2) 0.2421(8)
C7_3 C 0.2230(9) 0.1851(2) 0.3909(8)
H6_3 H 0.1496(9) 0.2124(2) 0.3537(8)
C8_3 C 0.3858(14) 0.1891(3) 0.5128(11)
H7_3 H 0.543(17) 0.2237(44) 0.668(14)
C9_3 C 0.4895(13) 0.1463(3) 0.5652(10)
H8_3 H 0.5986(13) 0.1474(3) 0.6477(10)
C10_3 C 0.4278(12) 0.1028(3) 0.4933(10)
H9_3 H 0.4992(12) 0.0750(3) 0.5277(10)
Mo1_3 Mo 0.70970(10) 0.49294(3) 0.80915(8)
Mo2_3 Mo 0.85176(10) 0.44330(3) 0.45169(8)
O1_4 O 0.4881(8) 0.0364(2) 0.2305(6)
N1_4 N 0.4052(10) 0.1187(2) 0.0260(8)
N2_4 N 0.4606(13) 0.2690(3) 0.0948(10)
C3_4 C 0.4347(13) 0.2201(3) 0.0625(11)
C4_4 C 0.5417(13) 0.1884(3) 0.1738(11)
H3_4 H 0.6244(13) 0.2007(3) 0.2634(11)
C5_4 C 0.5249(13) 0.1390(3) 0.1512(11)
H4_4 H 0.5997(13) 0.1186(3) 0.2259(11)
C8_4 C 0.3858(14) 0.3109(3) 0.0128(11)
H7_4 H 0.543(17) 0.2763(44) 0.168(14)
C9_4 C 0.4895(13) 0.3537(3) 0.0652(10)
H8_4 H 0.5986(13) 0.3526(3) 0.1477(10)
H9_4 H 0.4992(12) 0.4250(3) 0.0277(10)
Mo1_4 Mo 0.70970(10) 0.00706(3) 0.30915(8)
O13_2 O 0.8384(9) 0.0392(2) 0.7658(7)
O8_4 O 0.8070(9) 0.1178(2) 0.9489(8)
C1_4 C 0.3061(14) 0.1493(4) 0.9164(11)
H1_4 H 0.2251(14) 0.1361(4) 0.8276(11)
C2_4 C 0.3190(15) 0.1992(3) 0.9298(11)
H2_4 H 0.2503(15) 0.2189(3) 0.8499(11)
C6_4 C 0.1712(9) 0.3602(2) 0.8253(8)
H5_4 H 0.0630(9) 0.3621(2) 0.7421(8)
C7_4 C 0.2230(9) 0.3149(2) 0.8909(8)
H6_4 H 0.1496(9) 0.2876(2) 0.8537(8)
C10_4 C 0.4278(12) 0.3972(3) 0.9933(10)
Mo2_4 Mo 0.85176(10) 0.05670(3) 0.95169(8)
O2_4 O 0.7203(9) 0.9925(2) 0.4949(7)
loop_
_geom_bond_atom_site_label_1
_geom_bond_atom_site_label_2
_geom_bond_site_symmetry_1
_geom_bond_site_symmetry_2
O1 Mo1 1_555 1_555
O2 Mo1 1_555 1_555
O3 Mo1 1_555 1_555
O4 Mo1 1_555 1_555
O5 Mo2 1_555 1_555
O6 Mo2 1_555 1_555
O8 Mo2 1_555 1_555
N1 C1 1_555 1_555
N2 C3 1_555 1_555
N3 C6 1_555 1_555
C1 H1 1_555 1_555
C2 C1 1_555 1_555
H2 C2 1_555 1_555
C3 C2 1_555 1_555
C4 C3 1_555 1_555
H3 C4 1_555 1_555
C5 N1 1_555 1_555
H4 C5 1_555 1_555
C6 H5 1_555 1_555
C7 C6 1_555 1_555
H6 C7 1_555 1_555
C8 N2 1_555 1_555
H7 N2 1_555 1_555
C9 C8 1_555 1_555
H8 C9 1_555 1_555
C10 N3 1_555 1_555
H9 C10 1_555 1_555
Cu1 O1 1_555 1_555
Cu4 O4 1_555 1_555
Cu5 O6 1_555 1_555
Cu6 N3 1_555 1_555
O9 Cu1 1_555 1_555
O10 Cu1 1_555 1_555
O11 Cu1 1_555 1_555
O5 Cu1 1_555 1_555
O5 Cu4 1_555 1_555
N1 Cu1 1_555 1_555
C4 C5 1_555 1_555
C7 C8 1_555 1_555
C9 C10 1_555 1_555
Cu4 O11 1_555 1_555
O14 Cu5 1_555 1_555
N4 Cu5 1_555 1_555
O9 Cu3 1_555 1_555
Cu4_2 O11_2 1_555 1_555
Cu5_2 O2_2 1_555 1_555
O14_2 Cu5_2 1_555 1_555
N4_2 Cu5_2 1_555 1_555
O6_2 Mo2_2 1_555 1_555
O8_2 Mo2_2 1_555 1_555
N3_2 C6_2 1_555 1_555
C1_2 H1_2 1_555 1_555
C2_2 C1_2 1_555 1_555
H2_2 C2_2 1_555 1_555
C6_2 H5_2 1_555 1_555
C7_2 C6_2 1_555 1_555
H6_2 C7_2 1_555 1_555
C10_2 N3_2 1_555 1_555
Cu3 N3_2 1_555 1_555
O1_2 Mo1_2 1_555 1_555
O3_2 Mo1_2 1_555 1_555
N2_2 C3_2 1_555 1_555
C4_2 C3_2 1_555 1_555
H3_2 C4_2 1_555 1_555
C5_2 N1_2 1_555 1_555
H4_2 C5_2 1_555 1_555
C8_2 N2_2 1_555 1_555
H7_2 N2_2 1_555 1_555
C9_2 C8_2 1_555 1_555
H8_2 C9_2 1_555 1_555
Cu1_2 O1_2 1_555 1_555
O9_2 Cu1_2 1_555 1_555
O5_2 Cu1_2 1_555 1_555
N1_2 Cu1_2 1_555 1_555
C4_2 C5_2 1_555 1_555
O9_2 Cu6 1_555 1_555
Cu4 O14 1_555 1_555
O13 Cu3 1_555 1_555
O1_3 Mo1_3 1_555 1_555
O2_3 Mo1_3 1_555 1_555
O12 Mo1_3 1_555 1_555
O10 Mo1_3 1_555 1_555
O11 Mo2_3 1_555 1_555
O13 Mo2_3 1_555 1_555
O8_3 Mo2_3 1_555 1_555
N1_3 C1_3 1_555 1_555
N2_3 C3_3 1_555 1_555
N4_2 C6_3 1_555 1_555
C1_3 H1_3 1_555 1_555
C2_3 C1_3 1_555 1_555
H2_3 C2_3 1_555 1_555
C3_3 C2_3 1_555 1_555
C4_3 C3_3 1_555 1_555
H3_3 C4_3 1_555 1_555
C5_3 N1_3 1_555 1_555
H4_3 C5_3 1_555 1_555
C6_3 H5_3 1_555 1_555
C7_3 C6_3 1_555 1_555
H6_3 C7_3 1_555 1_555
C8_3 N2_3 1_555 1_555
H7_3 N2_3 1_555 1_555
C9_3 C8_3 1_555 1_555
H8_3 C9_3 1_555 1_555
C10_3 N4_2 1_555 1_555
H9_3 C10_3 1_555 1_555
Cu4 O1_3 1_555 1_555
N1_3 Cu4 1_555 1_555
C4_3 C5_3 1_555 1_555
C7_3 C8_3 1_555 1_555
C9_3 C10_3 1_555 1_555
Cu4_2 O14_2 1_555 1_555
O1_4 Mo1_4 1_555 1_555
O12_2 Mo1_4 1_555 1_555
N2_4 C3_4 1_555 1_555
C4_4 C3_4 1_555 1_555
H3_4 C4_4 1_555 1_555
C5_4 N1_4 1_555 1_555
H4_4 C5_4 1_555 1_555
C8_4 N2_4 1_555 1_555
H7_4 N2_4 1_555 1_555
C9_4 C8_4 1_555 1_555
H8_4 C9_4 1_555 1_555
Cu4_2 O1_4 1_555 1_555
N1_4 Cu4_2 1_555 1_555
C4_4 C5_4 1_555 1_555
O13_2 Mo2_4 1_555 1_555
O8_4 Mo2_4 1_555 1_555
N4 C6_4 1_555 1_555
C1_4 H1_4 1_555 1_555
C2_4 C1_4 1_555 1_555
H2_4 C2_4 1_555 1_555
C6_4 H5_4 1_555 1_555
C7_4 C6_4 1_555 1_555
H6_4 C7_4 1_555 1_555
C10_4 N4 1_555 1_555
Cu6 O2_4 1_555 1_555

#END
