
###############################################################################
#
# This file contains modified crystal structure data generated from the
# MOF subset of the Cambridge Structural Database (CSD) v543 
# hosted by the Cambridge Crystallographic Data Centre (CCDC).
#
# This work is licensed under the Creative Commons
# Attribution-NonCommercial-ShareAlike 4.0 International License.
# To view a copy of this license, visit
# http://creativecommons.org/licenses/by-nc-sa/4.0/
# or send a letter to
# Creative Commons, PO Box 1866, Mountain View, CA 94042, USA.
#
# CIF created using the CSD Python API on 29 September 2022
# The structure has been converted into the P1 space group
# The structure has a 3D framework
# The original CSD entry KISPOS is in the rhombohedral crystal system
# The framework has been calculated to contain at least 10.0% void space
# The void calculation uses a probe of radius 1.32A, grid spacing 0.4
#
###############################################################################

data_KISPOS
_chemical_formula_moiety         '(C576 H396 Co96 K22 O360 12+)n'
_symmetry_cell_setting           triclinic
_symmetry_space_group_name_H-M   'P 1'
_symmetry_Int_Tables_number      1
_space_group_name_Hall           'P 1'
loop_
_symmetry_equiv_pos_site_id
_symmetry_equiv_pos_as_xyz
1 x,y,z
_cell_length_a                   17.1947(7)
_cell_length_b                   17.1947(7)
_cell_length_c                   84.661(4)
_cell_angle_alpha                90
_cell_angle_beta                 90
_cell_angle_gamma                120.00
_cell_volume                     21677.2
loop_
_atom_site_label
_atom_site_type_symbol
_atom_site_fract_x
_atom_site_fract_y
_atom_site_fract_z
Co10 Co 0.51630(4) 0.22040(6) 0.941213(6)
Co16 Co 0.45954(4) 0.22115(6) 0.978960(6)
O28 O 0.5126(3) 0.1109(2) 0.95210(4)
O33 O 0.4245(3) 0.0907(2) 0.97302(4)
C34 C 0.4703(4) 0.0689(3) 0.96426(5)
Co1 Co 0.29590(4) 0.51630(4) 0.058787(6)
Co2 Co 0.23839(4) 0.45954(4) 0.021040(6)
Co3 Co 0.3333 0.6667 0.025571(11)
O1 O 0.2595(2) 0.5520(2) 0.03865(3)
H1 H 0.220(4) 0.549(4) 0.0391(6)
O2 O 0.1394(2) 0.3638(2) 0.03505(4)
O3 O 0.1933(2) 0.3814(2) 0.05988(4)
C1 C 0.1375(3) 0.3375(3) 0.04902(5)
C2 C 0.0624(4) 0.2432(3) 0.05217(6)
C4 C 0.0351(3) 0.2082(3) 0.06736(5)
H2 H 0.0650 0.2427 0.0762
C6 C 0.0209(6) 0.1891(5) 0.03913(7)
H3 H 0.0404 0.2116 0.0290
O8 O 0.2275(2) 0.6472(2) 0.01000(4)
O9 O 0.1568(2) 0.4976(2) 0.00894(4)
C13 C 0.1740(3) 0.5722(3) 0.00354(5)
O10 O 0.2027(4) 0.3648(3) 0.00266(5)
H10 H 0.219(6) 0.323(6) 0.0022(10)
Co4 Co 0.48370(4) 0.77960(6) 0.058787(6)
Co5 Co 0.22040(6) 0.70410(4) 0.058787(6)
Co7 Co 0.11293(6) 0.15037(4) 0.107880(6)
Co11 Co 0.84963(4) 0.96257(4) 0.107880(6)
Co12 Co 0.54046(4) 0.77885(6) 0.021040(6)
Co13 Co 0.22115(6) 0.76161(4) 0.021040(6)
Co17 Co 0.79287(4) 0.90506(4) 0.145627(6)
Co18 Co 0.11218(6) 0.20713(4) 0.145627(6)
O11 O 0.4480(2) 0.7075(3) 0.03865(3)
O12 O 0.2925(3) 0.7405(2) 0.03865(3)
H12 H 0.451(4) 0.671(6) 0.0391(6)
H13 H 0.329(6) 0.780(4) 0.0391(6)
O13 O 0.6971(2) 0.8061(2) 0.13162(4)
O14 O 0.1089(3) 0.3029(2) 0.13162(4)
O15 O 0.6362(2) 0.7756(3) 0.03505(4)
O16 O 0.2244(3) 0.8606(2) 0.03505(4)
O17 O 0.7147(2) 0.8600(2) 0.10679(4)
O18 O 0.1452(3) 0.2853(2) 0.10679(4)
O19 O 0.6186(2) 0.8119(3) 0.05988(4)
O20 O 0.1881(3) 0.8067(2) 0.05988(4)
O21 O 0.3489(2) 0.5153(2) 0.08049(4)
O22 O 0.1663(3) 0.6511(2) 0.08049(4)
O23 O 0.4847(2) 0.8337(3) 0.08049(4)
O24 O 0.4302(2) 0.6495(2) 0.07009(3)
O25 O 0.2192(3) 0.5698(2) 0.07009(3)
O26 O 0.3505(2) 0.7808(3) 0.07009(3)
C17 C 0.6708(3) 0.8042(3) 0.11765(5)
C18 C 0.1333(4) 0.3292(3) 0.11765(5)
C19 C 0.5765(3) 0.7291(4) 0.11450(6)
C20 C 0.1525(5) 0.4235(3) 0.11450(6)
C21 C 0.4550(3) 0.6299(4) 0.09742(5)
C22 C 0.1748(5) 0.5450(3) 0.09742(5)
C23 C 0.5415(3) 0.7018(3) 0.09931(5)
C24 C 0.1602(4) 0.4585(3) 0.09931(5)
H14 H 0.5760 0.7317 0.0905
H15 H 0.1556 0.4240 0.0905
C25 C 0.4109(3) 0.5975(3) 0.08159(5)
C26 C 0.1865(4) 0.5891(3) 0.08159(5)
C27 C 0.5224(5) 0.6876(6) 0.12754(7)
C28 C 0.1651(8) 0.4776(5) 0.12754(7)
H16 H 0.5449 0.7071 0.1377
H17 H 0.1621 0.4551 0.1377
C29 C 0.4356(5) 0.6176(7) 0.12564(8)
C30 C 0.1819(9) 0.5644(5) 0.12564(8)
H18 H 0.3995 0.5903 0.1344
H19 H 0.1907 0.6005 0.1344
C31 C 0.4029(5) 0.5884(6) 0.11062(7)
C32 C 0.1854(8) 0.5971(5) 0.11062(7)
H20 H 0.3450 0.5402 0.1094
H21 H 0.1951 0.6550 0.1094
O29 O 0.4017(2) 0.5126(3) 0.04790(4)
O30 O 0.4874(3) 0.8891(2) 0.04790(4)
O31 O 0.1109(2) 0.5983(2) 0.04790(4)
O34 O 0.3338(2) 0.4245(3) 0.02698(4)
O35 O 0.5755(3) 0.9093(2) 0.02698(4)
O36 O 0.0907(2) 0.6662(2) 0.02698(4)
O37 O 0.3528(2) 0.5803(3) 0.01000(4)
O38 O 0.4197(3) 0.7725(2) 0.01000(4)
O39 O 0.5024(2) 0.6592(3) 0.00894(4)
O40 O 0.3408(3) 0.8432(2) 0.00894(4)
C41 C 0.4278(3) 0.6018(4) 0.00354(5)
C42 C 0.3982(4) 0.8260(3) 0.00354(5)
O41 O 0.6352(3) 0.8379(5) 0.00266(5)
O42 O 0.1621(5) 0.7973(4) 0.00266(5)
H30 H 0.677(6) 0.896(8) 0.0022(10)
H31 H 0.104(8) 0.781(6) 0.0022(10)
C10 C 0.0130(4) 0.4884(4) 0.96906(5)
C11 C 0.1303(3) 0.5717(3) 0.98822(5)
C12 C 0.0562(3) 0.4926(3) 0.98316(5)
H6 H 0.0350 0.4412 0.9893
C14 C 0.0442(5) 0.5652(5) 0.95982(7)
H7 H 0.0153 0.5635 0.9504
C15 C 0.1192(6) 0.6446(5) 0.96475(9)
H8 H 0.1405 0.6959 0.9586
C16 C 0.1627(5) 0.6481(4) 0.97886(8)
H9 H 0.2131 0.7012 0.9820
H11 H 0.138(7) 0.333(7) 0.9979(11)
Co9 Co 0.70410(4) 0.48370(4) 0.941213(6)
Co15 Co 0.76161(4) 0.54046(4) 0.978960(6)
O27 O 0.5983(2) 0.4874(3) 0.95210(4)
O32 O 0.6662(2) 0.5755(3) 0.97302(4)
C33 C 0.5986(3) 0.5297(4) 0.96426(5)
C35 C 0.5116(4) 0.5246(6) 0.96906(5)
C36 C 0.4754(6) 0.9870(4) 0.96906(5)
C37 C 0.4283(3) 0.5586(4) 0.98822(5)
C38 C 0.4414(4) 0.8697(3) 0.98822(5)
C39 C 0.5074(3) 0.5636(4) 0.98316(5)
C40 C 0.4364(4) 0.9438(3) 0.98316(5)
H22 H 0.5588 0.5938 0.9893
H23 H 0.4062 0.9650 0.9893
C43 C 0.4348(5) 0.4790(7) 0.95982(7)
C44 C 0.5210(7) 0.9558(5) 0.95982(7)
H24 H 0.4365 0.4518 0.9504
H25 H 0.5482 0.9847 0.9504
C45 C 0.3554(5) 0.4746(8) 0.96475(9)
C46 C 0.5254(8) 0.8808(6) 0.96475(9)
H26 H 0.3041 0.4446 0.9586
H27 H 0.5554 0.8595 0.9586
C47 C 0.3519(4) 0.5146(6) 0.97886(8)
C48 C 0.4854(6) 0.8373(5) 0.97886(8)
H28 H 0.2988 0.5119 0.9820
H29 H 0.4881 0.7869 0.9820
H32 H 0.667(7) 0.805(10) 0.9979(11)
H33 H 0.195(10) 0.862(7) 0.9979(11)
O4 O 0.8486(2) 0.0156(2) 0.08618(4)
O5 O 0.9828(2) 0.0969(2) 0.09658(3)
C3 C 0.9632(4) 0.1217(3) 0.06925(5)
C5 C 0.9308(3) 0.0776(3) 0.08508(5)
C7 C 0.9509(7) 0.1023(5) 0.04103(8)
H4 H 0.9236 0.0662 0.0323
C8 C 0.9217(6) 0.0696(5) 0.05605(7)
H5 H 0.8735 0.0117 0.0573
O6 O 0.8891(2) 0.4017(2) 0.95210(4)
O7 O 0.9093(2) 0.3338(2) 0.97302(4)
C9 C 0.9311(3) 0.4014(3) 0.96426(5)
Co8 Co 0.77960(6) 0.29590(4) 0.941213(6)
Co14 Co 0.77885(6) 0.23839(4) 0.978960(6)
Co6 Co 0.03743(4) 0.88707(6) 0.107880(6)
O4_2 O 0.9844(2) 0.8330(3) 0.08618(4)
O5_2 O 0.9031(2) 0.8859(3) 0.09658(3)
C1_2 C 0.6625(3) 0.8000(4) 0.04902(5)
C2_2 C 0.7568(3) 0.8192(5) 0.05217(6)
C3_2 C 0.8783(3) 0.8415(5) 0.06925(5)
C4_2 C 0.7918(3) 0.8269(4) 0.06736(5)
H2_2 H 0.7573 0.8223 0.0762
C5_2 C 0.9224(3) 0.8532(4) 0.08508(5)
C6_2 C 0.8109(5) 0.8318(8) 0.03913(7)
H3_2 H 0.7884 0.8288 0.0290
C7_2 C 0.8977(5) 0.8486(9) 0.04103(8)
H4_2 H 0.9338 0.8574 0.0323
C8_2 C 0.9304(5) 0.8521(8) 0.05605(7)
H5_2 H 0.9883 0.8618 0.0573
Co17_2 Co 0.09494(4) 0.88782(6) 0.145627(6)
O13_2 O 0.1939(2) 0.8911(3) 0.13162(4)
O17_2 O 0.1400(2) 0.8548(3) 0.10679(4)
C17_2 C 0.1958(3) 0.8667(4) 0.11765(5)
C19_2 C 0.2709(4) 0.8475(5) 0.11450(6)
C21_2 C 0.3701(4) 0.8252(5) 0.09742(5)
C23_2 C 0.2982(3) 0.8398(4) 0.09931(5)
H14_2 H 0.2683 0.8444 0.0905
C25_2 C 0.4025(3) 0.8135(4) 0.08159(5)
C27_2 C 0.3124(6) 0.8349(8) 0.12754(7)
H16_2 H 0.2929 0.8379 0.1377
C29_2 C 0.3824(7) 0.8181(9) 0.12564(8)
H18_2 H 0.4097 0.8093 0.1344
C31_2 C 0.4116(6) 0.8146(8) 0.11062(7)
H20_2 H 0.4598 0.8049 0.1094
O4_3 O 0.1670(3) 0.1514(2) 0.08618(4)
O5_3 O 0.1141(3) 0.0172(2) 0.09658(3)
C3_3 C 0.1585(5) 0.0368(4) 0.06925(5)
C5_3 C 0.1468(4) 0.0692(3) 0.08508(5)
C7_3 C 0.1514(9) 0.0491(7) 0.04103(8)
H4_3 H 0.1426 0.0764 0.0323
C8_3 C 0.1479(8) 0.0783(6) 0.05605(7)
H5_3 H 0.1382 0.1265 0.0573
C1_3 C 0.2000(4) 0.8625(3) 0.04902(5)
C2_3 C 0.1808(5) 0.9376(4) 0.05217(6)
C4_3 C 0.1731(4) 0.9649(3) 0.06736(5)
H2_3 H 0.1777 0.9350 0.0762
C6_3 C 0.1682(8) 0.9791(6) 0.03913(7)
H3_3 H 0.1712 0.9596 0.0290
Co10_2 Co 0.22040(6) 0.51630(4) 0.558787(6)
Co16_2 Co 0.22115(6) 0.45954(4) 0.521040(6)
O28_2 O 0.1109(2) 0.5126(3) 0.54790(4)
O33_2 O 0.0907(2) 0.4245(3) 0.52698(4)
C34_2 C 0.0689(3) 0.4703(4) 0.53574(5)
Co1_2 Co 0.51630(4) 0.29590(4) 0.441213(6)
Co2_2 Co 0.45954(4) 0.23839(4) 0.478960(6)
Co3_2 Co 0.6667 0.3333 0.474429(11)
O1_2 O 0.5520(2) 0.2595(2) 0.46135(3)
H1_2 H 0.549(4) 0.220(4) 0.4609(6)
O2_2 O 0.3638(2) 0.1394(2) 0.46495(4)
O3_2 O 0.3814(2) 0.1933(2) 0.44012(4)
C1_4 C 0.3375(3) 0.1375(3) 0.45098(5)
C2_4 C 0.2432(3) 0.0624(4) 0.44783(6)
C4_4 C 0.2082(3) 0.0351(3) 0.43264(5)
H2_4 H 0.2427 0.0650 0.4238
C6_4 C 0.1891(5) 0.0209(6) 0.46087(7)
H3_4 H 0.2116 0.0404 0.4710
O8_2 O 0.6472(2) 0.2275(2) 0.49000(4)
O9_2 O 0.4976(2) 0.1568(2) 0.49106(4)
C10_2 C 0.4884(4) 0.0130(4) 0.53094(5)
C11_2 C 0.5717(3) 0.1303(3) 0.51178(5)
C12_2 C 0.4926(3) 0.0562(3) 0.51684(5)
H6_2 H 0.4412 0.0350 0.5107
C13_2 C 0.5722(3) 0.1740(3) 0.49646(5)
C14_2 C 0.5652(5) 0.0442(5) 0.54018(7)
H7_2 H 0.5635 0.0153 0.5496
C15_2 C 0.6446(5) 0.1192(6) 0.53525(9)
H8_2 H 0.6959 0.1405 0.5414
C16_2 C 0.6481(4) 0.1627(5) 0.52114(8)
H9_2 H 0.7012 0.2131 0.5180
O10_2 O 0.3648(3) 0.2027(4) 0.49734(5)
H10_2 H 0.323(6) 0.219(6) 0.4978(10)
H11_2 H 0.333(7) 0.138(7) 0.5021(11)
Co4_2 Co 0.77960(6) 0.48370(4) 0.441213(6)
Co5_2 Co 0.70410(4) 0.22040(6) 0.441213(6)
Co7_2 Co 0.15037(4) 0.11293(6) 0.392120(6)
Co9_2 Co 0.48370(4) 0.70410(4) 0.558787(6)
Co11_2 Co 0.96257(4) 0.84963(4) 0.392120(6)
Co12_2 Co 0.77885(6) 0.54046(4) 0.478960(6)
Co13_2 Co 0.76161(4) 0.22115(6) 0.478960(6)
Co15_2 Co 0.54046(4) 0.76161(4) 0.521040(6)
Co17_3 Co 0.90506(4) 0.79287(4) 0.354373(6)
Co18_2 Co 0.20713(4) 0.11218(6) 0.354373(6)
O11_2 O 0.7075(3) 0.4480(2) 0.46135(3)
O12_2 O 0.7405(2) 0.2925(3) 0.46135(3)
H12_2 H 0.671(6) 0.451(4) 0.4609(6)
H13_2 H 0.780(4) 0.329(6) 0.4609(6)
O13_3 O 0.8061(2) 0.6971(2) 0.36838(4)
O14_2 O 0.3029(2) 0.1089(3) 0.36838(4)
O15_2 O 0.7756(3) 0.6362(2) 0.46495(4)
O16_2 O 0.8606(2) 0.2244(3) 0.46495(4)
O17_3 O 0.8600(2) 0.7147(2) 0.39321(4)
O18_2 O 0.2853(2) 0.1452(3) 0.39321(4)
O19_2 O 0.8119(3) 0.6186(2) 0.44012(4)
O20_2 O 0.8067(2) 0.1881(3) 0.44012(4)
O21_2 O 0.5153(2) 0.3489(2) 0.41951(4)
O22_2 O 0.6511(2) 0.1663(3) 0.41951(4)
O23_2 O 0.8337(3) 0.4847(2) 0.41951(4)
O24_2 O 0.6495(2) 0.4302(2) 0.42991(3)
O25_2 O 0.5698(2) 0.2192(3) 0.42991(3)
O26_2 O 0.7808(3) 0.3505(2) 0.42991(3)
C17_3 C 0.8042(3) 0.6708(3) 0.38235(5)
C18_2 C 0.3292(3) 0.1333(4) 0.38235(5)
C19_3 C 0.7291(4) 0.5765(3) 0.38550(6)
C20_2 C 0.4235(3) 0.1525(5) 0.38550(6)
C21_3 C 0.6299(4) 0.4550(3) 0.40258(5)
C22_2 C 0.5450(3) 0.1748(5) 0.40258(5)
C23_3 C 0.7018(3) 0.5415(3) 0.40069(5)
C24_2 C 0.4585(3) 0.1602(4) 0.40069(5)
H14_3 H 0.7317 0.5760 0.4095
H15_2 H 0.4240 0.1556 0.4095
C25_3 C 0.5975(3) 0.4109(3) 0.41841(5)
C26_2 C 0.5891(3) 0.1865(4) 0.41841(5)
C27_3 C 0.6876(6) 0.5224(5) 0.37246(7)
C28_2 C 0.4776(5) 0.1651(8) 0.37246(7)
H16_3 H 0.7071 0.5449 0.3623
H17_2 H 0.4551 0.1621 0.3623
C29_3 C 0.6176(7) 0.4356(5) 0.37436(8)
C30_2 C 0.5644(5) 0.1819(9) 0.37436(8)
H18_3 H 0.5903 0.3995 0.3656
H19_2 H 0.6005 0.1907 0.3656
C31_3 C 0.5884(6) 0.4029(5) 0.38938(7)
C32_2 C 0.5971(5) 0.1854(8) 0.38938(7)
H20_3 H 0.5402 0.3450 0.3906
H21_2 H 0.6550 0.1951 0.3906
O27_2 O 0.4874(3) 0.5983(2) 0.54790(4)
O29_2 O 0.5126(3) 0.4017(2) 0.45210(4)
O30_2 O 0.8891(2) 0.4874(3) 0.45210(4)
O31_2 O 0.5983(2) 0.1109(2) 0.45210(4)
O32_2 O 0.5755(3) 0.6662(2) 0.52698(4)
O34_2 O 0.4245(3) 0.3338(2) 0.47302(4)
O35_2 O 0.9093(2) 0.5755(3) 0.47302(4)
O36_2 O 0.6662(2) 0.0907(2) 0.47302(4)
O37_2 O 0.5803(3) 0.3528(2) 0.49000(4)
O38_2 O 0.7725(2) 0.4197(3) 0.49000(4)
O39_2 O 0.6592(3) 0.5024(2) 0.49106(4)
O40_2 O 0.8432(2) 0.3408(3) 0.49106(4)
C33_2 C 0.5297(4) 0.5986(3) 0.53574(5)
C35_2 C 0.5246(6) 0.5116(4) 0.53094(5)
C36_2 C 0.9870(4) 0.4754(6) 0.53094(5)
C37_2 C 0.5586(4) 0.4283(3) 0.51178(5)
C38_2 C 0.8697(3) 0.4414(4) 0.51178(5)
C39_2 C 0.5636(4) 0.5074(3) 0.51684(5)
C40_2 C 0.9438(3) 0.4364(4) 0.51684(5)
H22_2 H 0.5938 0.5588 0.5107
H23_2 H 0.9650 0.4062 0.5107
C41_2 C 0.6018(4) 0.4278(3) 0.49646(5)
C42_2 C 0.8260(3) 0.3982(4) 0.49646(5)
C43_2 C 0.4790(7) 0.4348(5) 0.54018(7)
C44_2 C 0.9558(5) 0.5210(7) 0.54018(7)
H24_2 H 0.4518 0.4365 0.5496
H25_2 H 0.9847 0.5482 0.5496
C45_2 C 0.4746(8) 0.3554(5) 0.53525(9)
C46_2 C 0.8808(6) 0.5254(8) 0.53525(9)
H26_2 H 0.4446 0.3041 0.5414
H27_2 H 0.8595 0.5554 0.5414
C47_2 C 0.5146(6) 0.3519(4) 0.52114(8)
C48_2 C 0.8373(5) 0.4854(6) 0.52114(8)
H28_2 H 0.5119 0.2988 0.5180
H29_2 H 0.7869 0.4881 0.5180
O41_2 O 0.8379(5) 0.6352(3) 0.49734(5)
O42_2 O 0.7973(4) 0.1621(5) 0.49734(5)
H30_2 H 0.896(8) 0.677(6) 0.4978(10)
H31_2 H 0.781(6) 0.104(8) 0.4978(10)
H32_2 H 0.805(10) 0.667(7) 0.5021(11)
H33_2 H 0.862(7) 0.195(10) 0.5021(11)
O4_4 O 0.0156(2) 0.8486(2) 0.41382(4)
O5_4 O 0.0969(2) 0.9828(2) 0.40342(3)
C3_4 C 0.1217(3) 0.9632(4) 0.43075(5)
C5_4 C 0.0776(3) 0.9308(3) 0.41492(5)
C7_4 C 0.1023(5) 0.9509(7) 0.45897(8)
H4_4 H 0.0662 0.9236 0.4677
C8_4 C 0.0696(5) 0.9217(6) 0.44395(7)
H5_4 H 0.0117 0.8735 0.4427
O6_2 O 0.4017(2) 0.8891(2) 0.54790(4)
O7_2 O 0.3338(2) 0.9093(2) 0.52698(4)
C9_2 C 0.4014(3) 0.9311(3) 0.53574(5)
Co8_2 Co 0.29590(4) 0.77960(6) 0.558787(6)
Co14_2 Co 0.23839(4) 0.77885(6) 0.521040(6)
Co3_3 Co -0.0000 0.0000 0.358904(11)
Co10_3 Co 0.18297(4) 0.55373(6) 0.274546(6)
Co16_3 Co 0.12621(4) 0.55448(6) 0.312293(6)
O11_3 O 0.1147(2) 0.0408(3) 0.37198(3)
H12_3 H 0.118(4) 0.004(6) 0.3724(6)
O23_3 O 0.1514(2) 0.1670(3) 0.41382(4)
O26_3 O 0.0172(2) 0.1141(3) 0.40342(3)
O28_3 O 0.1793(3) 0.4442(2) 0.28543(4)
O30_3 O 0.1541(3) 0.2224(2) 0.38123(4)
O33_3 O 0.0912(3) 0.4240(2) 0.30635(4)
O35_3 O 0.2422(3) 0.2426(2) 0.36031(4)
O38_3 O 0.0864(3) 0.1058(2) 0.34333(4)
O40_3 O 0.0075(3) 0.1765(2) 0.34227(4)
C34_3 C 0.1370(4) 0.4022(3) 0.29759(5)
C36_3 C 0.1421(6) 0.3203(4) 0.30239(5)
C38_3 C 0.1081(4) 0.2030(3) 0.32155(5)
C40_3 C 0.1031(4) 0.2771(3) 0.31649(5)
H23_3 H 0.0729 0.2983 0.3226
C42_3 C 0.0649(4) 0.1593(3) 0.33687(5)
C44_3 C 0.1877(7) 0.2891(5) 0.29315(7)
H25_3 H 0.2149 0.3180 0.2837
C46_3 C 0.1921(8) 0.2141(6) 0.29808(9)
H27_3 H 0.2221 0.1928 0.2919
C48_3 C 0.1521(6) 0.1706(5) 0.31219(8)
H29_3 H 0.1548 0.1202 0.3153
O41_3 O 0.3019(3) 0.1712(5) 0.33599(5)
H30_3 H 0.344(6) 0.229(8) 0.3355(10)
H32_3 H 0.334(7) 0.138(10) 0.3312(11)
Co3_4 Co -0.0000 1.0000 0.358904(11)
Co9_3 Co 0.37077(4) 0.81703(4) 0.274546(6)
Co15_3 Co 0.42828(4) 0.87379(4) 0.312293(6)
O27_3 O 0.2650(2) 0.8207(3) 0.28543(4)
O29_3 O 0.0684(2) 0.8459(3) 0.38123(4)
O32_3 O 0.3329(2) 0.9088(3) 0.30635(4)
O34_3 O 0.0005(2) 0.7578(3) 0.36031(4)
O37_3 O 0.0195(2) 0.9136(3) 0.34333(4)
O39_3 O 0.1691(2) 0.9925(3) 0.34227(4)
C33_3 C 0.2653(3) 0.8630(4) 0.29759(5)
C35_3 C 0.1783(4) 0.8579(6) 0.30239(5)
C37_3 C 0.0950(3) 0.8919(4) 0.32155(5)
C39_3 C 0.1741(3) 0.8969(4) 0.31649(5)
H22_3 H 0.2255 0.9271 0.3226
C41_3 C 0.0945(3) 0.9351(4) 0.33687(5)
C43_3 C 0.1015(5) 0.8123(7) 0.29315(7)
H24_3 H 0.1032 0.7851 0.2837
C45_3 C 0.0221(5) 0.8079(8) 0.29808(9)
C47_3 C 0.0186(4) 0.8479(6) 0.31219(8)
Co3_5 Co 1.0000 0.0000 0.358904(11)
H8_3 H 0.8072 0.0292 0.2919
H9_3 H 0.8798 0.0345 0.3153
Co5_3 Co 0.88707(6) 0.03743(4) 0.392120(6)
Co13_3 Co 0.88782(6) 0.09494(4) 0.354373(6)
O12_3 O 0.9592(3) 0.0738(2) 0.37198(3)
H13_3 H 0.996(6) 0.113(4) 0.3724(6)
O16_3 O 0.8911(3) 0.1939(2) 0.36838(4)
O20_3 O 0.8548(3) 0.1400(2) 0.39321(4)
O42_3 O 0.8288(5) 0.1306(4) 0.33599(5)
H31_3 H 0.771(8) 0.114(6) 0.3355(10)
H33_3 H 0.862(10) 0.195(7) 0.3312(11)
Co3_6 Co 1.0000 1.0000 0.358904(11)
O1_3 O 0.9262(2) 0.8853(2) 0.37198(3)
H1_3 H 0.887(4) 0.882(4) 0.3724(6)
O6_3 O 0.5558(2) 0.7350(2) 0.28543(4)
O7_3 O 0.5760(2) 0.6671(2) 0.30635(4)
O8_3 O 0.8942(2) 0.9805(2) 0.34333(4)
O9_3 O 0.8235(2) 0.8309(2) 0.34227(4)
C9_3 C 0.5978(3) 0.7347(3) 0.29759(5)
C10_3 C 0.6797(4) 0.8217(4) 0.30239(5)
C11_3 C 0.7970(3) 0.9050(3) 0.32155(5)
C12_3 C 0.7229(3) 0.8259(3) 0.31649(5)
H6_3 H 0.7017 0.7745 0.3226
C13_3 C 0.8407(3) 0.9055(3) 0.33687(5)
C14_3 C 0.7109(5) 0.8985(5) 0.29315(7)
H7_3 H 0.6820 0.8968 0.2837
C15_3 C 0.7859(6) 0.9779(5) 0.29808(9)
C16_3 C 0.8294(5) 0.9814(4) 0.31219(8)
O10_3 O 0.8694(4) 0.6981(3) 0.33599(5)
H10_3 H 0.886(6) 0.656(6) 0.3355(10)
H11_3 H 0.805(7) 0.666(7) 0.3312(11)
Co8_3 Co 0.44627(6) 0.62923(4) 0.274546(6)
Co14_3 Co 0.44552(6) 0.57172(4) 0.312293(6)
O22_3 O 0.8330(3) 0.9844(2) 0.41382(4)
O25_3 O 0.8859(3) 0.9031(2) 0.40342(3)
C18_3 C 0.8000(4) 0.6625(3) 0.45098(5)
C20_3 C 0.8192(5) 0.7568(3) 0.44783(6)
C22_3 C 0.8415(5) 0.8783(3) 0.43075(5)
C24_3 C 0.8269(4) 0.7918(3) 0.43264(5)
H15_3 H 0.8223 0.7573 0.4238
C26_3 C 0.8532(4) 0.9224(3) 0.41492(5)
C28_3 C 0.8318(8) 0.8109(5) 0.46087(7)
H17_3 H 0.8288 0.7884 0.4710
C30_3 C 0.8486(9) 0.8977(5) 0.45897(8)
H19_3 H 0.8574 0.9338 0.4677
C32_3 C 0.8521(8) 0.9304(5) 0.44395(7)
H21_3 H 0.8618 0.9883 0.4427
O31_3 O 0.7776(2) 0.9316(2) 0.38123(4)
O36_3 O 0.7574(2) 0.9995(2) 0.36031(4)
H26_3 H 0.9708 0.7779 0.2919
H28_3 H 0.9655 0.8452 0.3153
C21_4 C 0.0368(4) 0.1585(5) 0.43075(5)
C25_4 C 0.0692(3) 0.1468(4) 0.41492(5)
C29_4 C 0.0491(7) 0.1514(9) 0.45897(8)
H18_4 H 0.0764 0.1426 0.4677
C31_4 C 0.0783(6) 0.1479(8) 0.44395(7)
H20_4 H 0.1265 0.1382 0.4427
C17_4 C 0.8625(3) 0.2000(4) 0.45098(5)
C19_4 C 0.9376(4) 0.1808(5) 0.44783(6)
C23_4 C 0.9649(3) 0.1731(4) 0.43264(5)
H14_4 H 0.9350 0.1777 0.4238
C27_4 C 0.9791(6) 0.1682(8) 0.46087(7)
H16_4 H 0.9596 0.1712 0.4710
C1_5 C 0.8667(4) 0.1958(3) 0.38235(5)
C2_5 C 0.8475(5) 0.2709(4) 0.38550(6)
C3_5 C 0.8252(5) 0.3701(4) 0.40258(5)
C4_5 C 0.8398(4) 0.2982(3) 0.40069(5)
H2_5 H 0.8444 0.2683 0.4095
C5_5 C 0.8135(4) 0.4025(3) 0.41841(5)
C6_5 C 0.8349(8) 0.3124(6) 0.37246(7)
H3_5 H 0.8379 0.2929 0.3623
C7_5 C 0.8181(9) 0.3824(7) 0.37436(8)
H4_5 H 0.8093 0.4097 0.3656
C8_5 C 0.8146(8) 0.4116(6) 0.38938(7)
H5_5 H 0.8049 0.4598 0.3906
Co9_4 Co 0.15037(4) 0.03743(4) 0.892120(6)
Co11_3 Co 0.62923(4) 0.18297(4) 0.725454(6)
Co15_4 Co 0.20713(4) 0.09494(4) 0.854373(6)
Co17_4 Co 0.57172(4) 0.12621(4) 0.687707(6)
O13_4 O 0.4727(2) 0.0305(2) 0.70172(4)
O17_4 O 0.5266(2) 0.0481(2) 0.72655(4)
C17_5 C 0.4708(3) 0.0042(3) 0.71569(5)
H30_4 H 0.563(8) 0.010(6) 0.8311(10)
H32_4 H 0.472(10) 0.000(7) 0.8354(11)
Co1_3 Co 0.18297(4) 0.62923(4) 0.774546(6)
Co2_3 Co 0.12621(4) 0.57172(4) 0.812293(6)
Co3_7 Co 0.3334 0.6666 0.807762(11)
O1_4 O 0.2187(2) 0.5928(2) 0.79468(3)
H1_4 H 0.216(4) 0.553(4) 0.7942(6)
O2_3 O 0.0305(2) 0.4727(2) 0.79828(4)
O3_3 O 0.0481(2) 0.5266(2) 0.77345(4)
C1_6 C 0.0042(3) 0.4708(3) 0.78431(5)
O6_4 O 0.0684(2) 0.2224(2) 0.88123(4)
O7_4 O 0.0005(2) 0.2426(2) 0.86031(4)
O8_4 O 0.3139(2) 0.5608(2) 0.82333(4)
O9_4 O 0.1643(2) 0.4901(2) 0.82439(4)
C9_4 C 0.0681(3) 0.2644(3) 0.86907(5)
C10_4 C 0.1551(4) 0.3463(4) 0.86427(5)
C11_4 C 0.2384(3) 0.4636(3) 0.84511(5)
C12_4 C 0.1593(3) 0.3895(3) 0.85017(5)
H6_4 H 0.1079 0.3683 0.8440
C13_4 C 0.2389(3) 0.5073(3) 0.82979(5)
C14_4 C 0.2319(5) 0.3775(5) 0.87351(7)
H7_4 H 0.2302 0.3486 0.8829
C15_4 C 0.3113(5) 0.4525(6) 0.86858(9)
H8_4 H 0.3626 0.4738 0.8747
C16_4 C 0.3148(4) 0.4960(5) 0.85447(8)
H9_4 H 0.3679 0.5464 0.8513
O10_4 O 0.0315(3) 0.5360(4) 0.83067(5)
Co4_3 Co 0.44627(6) 0.81703(4) 0.774546(6)
Co5_4 Co 0.37077(4) 0.55373(6) 0.774546(6)
Co10_4 Co 0.88707(6) 0.84963(4) 0.892120(6)
Co12_3 Co 0.44552(6) 0.87379(4) 0.812293(6)
Co13_4 Co 0.42828(4) 0.55448(6) 0.812293(6)
Co16_4 Co 0.88782(6) 0.79287(4) 0.854373(6)
O11_4 O 0.3742(3) 0.7813(2) 0.79468(3)
O12_4 O 0.4072(2) 0.6258(3) 0.79468(3)
H12_4 H 0.338(6) 0.784(4) 0.7942(6)
H13_4 H 0.447(4) 0.662(6) 0.7942(6)
O15_3 O 0.4423(3) 0.9695(2) 0.79828(4)
O16_4 O 0.5273(2) 0.5577(3) 0.79828(4)
O19_3 O 0.4786(3) 0.9519(2) 0.77345(4)
O20_4 O 0.4734(2) 0.5214(3) 0.77345(4)
O21_3 O 0.1819(2) 0.6823(2) 0.75285(4)
O22_4 O 0.3177(2) 0.4997(3) 0.75285(4)
O23_4 O 0.5003(3) 0.8181(2) 0.75285(4)
O24_3 O 0.3161(2) 0.7636(2) 0.76325(3)
O25_4 O 0.2364(2) 0.5526(3) 0.76325(3)
O26_4 O 0.4474(3) 0.6839(2) 0.76325(3)
C19_5 C 0.3957(4) 0.9099(3) 0.71884(6)
C20_4 C 0.0901(3) 0.4859(5) 0.71884(6)
C21_5 C 0.2965(4) 0.7884(3) 0.73592(5)
C22_4 C 0.2116(3) 0.5082(5) 0.73592(5)
C23_5 C 0.3684(3) 0.8749(3) 0.73403(5)
C24_4 C 0.1251(3) 0.4936(4) 0.73403(5)
H14_5 H 0.3983 0.9094 0.7429
H15_4 H 0.0906 0.4890 0.7429
C25_5 C 0.2641(3) 0.7443(3) 0.75175(5)
C26_4 C 0.2557(3) 0.5199(4) 0.75175(5)
C27_5 C 0.3542(6) 0.8558(5) 0.70580(7)
C28_4 C 0.1442(5) 0.4985(8) 0.70580(7)
H16_5 H 0.3737 0.8783 0.6957
H17_4 H 0.1217 0.4955 0.6957
C29_5 C 0.2842(7) 0.7690(5) 0.70770(8)
C30_4 C 0.2310(5) 0.5153(9) 0.70770(8)
H18_5 H 0.2569 0.7329 0.6990
H19_4 H 0.2671 0.5241 0.6990
C31_5 C 0.2550(6) 0.7363(5) 0.72272(7)
C32_4 C 0.2637(5) 0.5188(8) 0.72272(7)
H20_5 H 0.2068 0.6784 0.7240
H21_4 H 0.3216 0.5285 0.7240
O27_4 O 0.1541(3) 0.9316(2) 0.88123(4)
O28_4 O 0.7776(2) 0.8459(3) 0.88123(4)
O29_4 O 0.1793(3) 0.7350(2) 0.78543(4)
O30_4 O 0.5558(2) 0.8207(3) 0.78543(4)
O31_4 O 0.2650(2) 0.4442(2) 0.78543(4)
O32_4 O 0.2422(3) 0.9995(2) 0.86031(4)
O33_4 O 0.7574(2) 0.7578(3) 0.86031(4)
O34_4 O 0.0912(3) 0.6671(2) 0.80635(4)
O35_4 O 0.5760(2) 0.9088(3) 0.80635(4)
O36_4 O 0.3329(2) 0.4240(2) 0.80635(4)
O37_4 O 0.2470(3) 0.6861(2) 0.82333(4)
O38_4 O 0.4392(2) 0.7530(3) 0.82333(4)
O39_4 O 0.3259(3) 0.8357(2) 0.82439(4)
O40_4 O 0.5099(2) 0.6741(3) 0.82439(4)
C33_4 C 0.1964(4) 0.9319(3) 0.86907(5)
C34_4 C 0.7356(3) 0.8036(4) 0.86907(5)
C35_4 C 0.1913(6) 0.8449(4) 0.86427(5)
C36_4 C 0.6537(4) 0.8087(6) 0.86427(5)
C37_4 C 0.2253(4) 0.7616(3) 0.84511(5)
C38_4 C 0.5364(3) 0.7747(4) 0.84511(5)
C39_4 C 0.2303(4) 0.8407(3) 0.85017(5)
C40_4 C 0.6105(3) 0.7697(4) 0.85017(5)
H22_4 H 0.2605 0.8921 0.8440
H23_4 H 0.6317 0.7395 0.8440
C41_4 C 0.2685(4) 0.7611(3) 0.82979(5)
C42_4 C 0.4927(3) 0.7315(4) 0.82979(5)
C43_4 C 0.1457(7) 0.7681(5) 0.87351(7)
C44_4 C 0.6225(5) 0.8543(7) 0.87351(7)
H24_4 H 0.1185 0.7698 0.8829
H25_4 H 0.6514 0.8815 0.8829
C45_4 C 0.1413(8) 0.6887(5) 0.86858(9)
C46_4 C 0.5475(6) 0.8587(8) 0.86858(9)
H26_4 H 0.1113 0.6374 0.8747
H27_4 H 0.5262 0.8887 0.8747
C47_4 C 0.1813(6) 0.6852(4) 0.85447(8)
C48_4 C 0.5040(5) 0.8187(6) 0.85447(8)
H28_4 H 0.1786 0.6321 0.8513
H29_4 H 0.4536 0.8214 0.8513
O41_4 O 0.5046(5) 0.9685(3) 0.83067(5)
O42_4 O 0.4640(4) 0.4954(5) 0.83067(5)
H31_4 H 0.448(6) 0.437(8) 0.8311(10)
H33_4 H 0.529(7) 0.528(10) 0.8354(11)
O4_5 O 0.6823(2) 0.1819(2) 0.74715(4)
O5_5 O 0.7636(2) 0.3161(2) 0.73675(3)
C2_6 C 0.9099(3) 0.3957(4) 0.78116(6)
C3_6 C 0.7884(3) 0.2965(4) 0.76408(5)
C4_6 C 0.8749(3) 0.3684(3) 0.76597(5)
H2_6 H 0.9094 0.3983 0.7571
C5_6 C 0.7443(3) 0.2641(3) 0.74825(5)
C6_6 C 0.8558(5) 0.3542(6) 0.79420(7)
H3_6 H 0.8783 0.3737 0.8043
C7_6 C 0.7690(5) 0.2842(7) 0.79230(8)
H4_6 H 0.7329 0.2569 0.8010
C8_6 C 0.7363(5) 0.2550(6) 0.77728(7)
H5_6 H 0.6784 0.2068 0.7760
H10_4 H 0.990(6) 0.552(6) 0.8311(10)
H11_4 H 1.000(7) 0.471(7) 0.8354(11)
Co7_3 Co 0.81703(4) 0.44627(6) 0.725454(6)
Co8_4 Co 0.96257(4) 0.11293(6) 0.892120(6)
Co14_4 Co 0.90506(4) 0.11218(6) 0.854373(6)
Co18_3 Co 0.87379(4) 0.44552(6) 0.687707(6)
O14_3 O 0.9695(2) 0.4423(3) 0.70172(4)
O18_3 O 0.9519(2) 0.4786(3) 0.72655(4)
C18_4 C 0.9958(3) 0.4667(4) 0.71569(5)
Co9_5 Co 0.03743(4) 0.15037(4) 0.607880(6)
Co15_5 Co 0.09494(4) 0.20713(4) 0.645627(6)
H30_5 H 0.010(6) 0.563(8) 0.6689(10)
H32_5 H 0.000(7) 0.472(10) 0.6646(11)
Co3_8 Co 0.6666 0.3334 0.692238(11)
O1_5 O 0.5928(2) 0.2187(2) 0.70532(3)
H1_5 H 0.553(4) 0.216(4) 0.7058(6)
O6_5 O 0.2224(2) 0.0684(2) 0.61877(4)
O7_5 O 0.2426(2) 0.0005(2) 0.63969(4)
O8_5 O 0.5608(2) 0.3139(2) 0.67667(4)
O9_5 O 0.4901(2) 0.1643(2) 0.67561(4)
C9_5 C 0.2644(3) 0.0681(3) 0.63093(5)
C10_5 C 0.3463(4) 0.1551(4) 0.63573(5)
C11_5 C 0.4636(3) 0.2384(3) 0.65489(5)
C12_5 C 0.3895(3) 0.1593(3) 0.64983(5)
H6_5 H 0.3683 0.1079 0.6560
C13_5 C 0.5073(3) 0.2389(3) 0.67021(5)
C14_5 C 0.3775(5) 0.2319(5) 0.62649(7)
H7_5 H 0.3486 0.2302 0.6171
C15_5 C 0.4525(6) 0.3113(5) 0.63142(9)
H8_5 H 0.4738 0.3626 0.6253
C16_5 C 0.4960(5) 0.3148(4) 0.64553(8)
H9_5 H 0.5464 0.3679 0.6487
O10_5 O 0.5360(4) 0.0315(3) 0.66933(5)
Co5_5 Co 0.55373(6) 0.37077(4) 0.725454(6)
Co10_5 Co 0.84963(4) 0.88707(6) 0.607880(6)
Co13_5 Co 0.55448(6) 0.42828(4) 0.687707(6)
Co16_5 Co 0.79287(4) 0.88782(6) 0.645627(6)
O11_5 O 0.7813(2) 0.3742(3) 0.70532(3)
O12_5 O 0.6258(3) 0.4072(2) 0.70532(3)
H12_5 H 0.784(4) 0.338(6) 0.7058(6)
H13_5 H 0.662(6) 0.447(4) 0.7058(6)
O16_5 O 0.5577(3) 0.5273(2) 0.70172(4)
O20_5 O 0.5214(3) 0.4734(2) 0.72655(4)
O22_5 O 0.4997(3) 0.3177(2) 0.74715(4)
O23_5 O 0.8181(2) 0.5003(3) 0.74715(4)
O25_5 O 0.5526(3) 0.2364(2) 0.73675(3)
O26_5 O 0.6839(2) 0.4474(3) 0.73675(3)
C20_5 C 0.4859(5) 0.0901(3) 0.78116(6)
C22_5 C 0.5082(5) 0.2116(3) 0.76408(5)
C24_5 C 0.4936(4) 0.1251(3) 0.76597(5)
H15_5 H 0.4890 0.0906 0.7571
C26_5 C 0.5199(4) 0.2557(3) 0.74825(5)
C28_5 C 0.4985(8) 0.1442(5) 0.79420(7)
H17_5 H 0.4955 0.1217 0.8043
C30_5 C 0.5153(9) 0.2310(5) 0.79230(8)
H19_5 H 0.5241 0.2671 0.8010
C32_5 C 0.5188(8) 0.2637(5) 0.77728(7)
H21_5 H 0.5285 0.3216 0.7760
O27_5 O 0.9316(2) 0.1541(3) 0.61877(4)
O28_5 O 0.8459(3) 0.7776(2) 0.61877(4)
O29_5 O 0.7350(2) 0.1793(3) 0.71457(4)
O30_5 O 0.8207(3) 0.5558(2) 0.71457(4)
O31_5 O 0.4442(2) 0.2650(2) 0.71457(4)
O32_5 O 0.9995(2) 0.2422(3) 0.63969(4)
O33_5 O 0.7578(3) 0.7574(2) 0.63969(4)
O34_5 O 0.6671(2) 0.0912(3) 0.69365(4)
O35_5 O 0.9088(3) 0.5760(2) 0.69365(4)
O36_5 O 0.4240(2) 0.3329(2) 0.69365(4)
O37_5 O 0.6861(2) 0.2470(3) 0.67667(4)
O38_5 O 0.7530(3) 0.4392(2) 0.67667(4)
O39_5 O 0.8357(2) 0.3259(3) 0.67561(4)
O40_5 O 0.6741(3) 0.5099(2) 0.67561(4)
C33_5 C 0.9319(3) 0.1964(4) 0.63093(5)
C34_5 C 0.8036(4) 0.7356(3) 0.63093(5)
C35_5 C 0.8449(4) 0.1913(6) 0.63573(5)
C36_5 C 0.8087(6) 0.6537(4) 0.63573(5)
C37_5 C 0.7616(3) 0.2253(4) 0.65489(5)
C38_5 C 0.7747(4) 0.5364(3) 0.65489(5)
C39_5 C 0.8407(3) 0.2303(4) 0.64983(5)
C40_5 C 0.7697(4) 0.6105(3) 0.64983(5)
H22_5 H 0.8921 0.2605 0.6560
H23_5 H 0.7395 0.6317 0.6560
C41_5 C 0.7611(3) 0.2685(4) 0.67021(5)
C42_5 C 0.7315(4) 0.4927(3) 0.67021(5)
C43_5 C 0.7681(5) 0.1457(7) 0.62649(7)
C44_5 C 0.8543(7) 0.6225(5) 0.62649(7)
H24_5 H 0.7698 0.1185 0.6171
H25_5 H 0.8815 0.6514 0.6171
C45_5 C 0.6887(5) 0.1413(8) 0.63142(9)
C46_5 C 0.8587(8) 0.5475(6) 0.63142(9)
H26_5 H 0.6374 0.1113 0.6253
H27_5 H 0.8887 0.5262 0.6253
C47_5 C 0.6852(4) 0.1813(6) 0.64553(8)
C48_5 C 0.8187(6) 0.5040(5) 0.64553(8)
H28_5 H 0.6321 0.1786 0.6487
H29_5 H 0.8214 0.4536 0.6487
O41_5 O 0.9685(3) 0.5046(5) 0.66933(5)
O42_5 O 0.4954(5) 0.4640(4) 0.66933(5)
H31_5 H 0.437(8) 0.448(6) 0.6689(10)
H33_5 H 0.528(10) 0.529(7) 0.6646(11)
H10_5 H 0.552(6) 0.990(6) 0.6689(10)
H11_5 H 0.471(7) 1.000(7) 0.6646(11)
Co8_5 Co 0.11293(6) 0.96257(4) 0.607880(6)
Co14_5 Co 0.11218(6) 0.90506(4) 0.645627(6)
C18_5 C 0.4667(4) 0.9958(3) 0.78431(5)
Co3_9 Co 0.0000 -0.0000 0.141096(11)
Co10_6 Co 0.55373(6) 0.18297(4) 0.225454(6)
Co16_6 Co 0.55448(6) 0.12621(4) 0.187707(6)
O11_6 O 0.0408(3) 0.1147(2) 0.12802(3)
H12_6 H 0.004(6) 0.118(4) 0.1276(6)
O28_6 O 0.4442(2) 0.1793(3) 0.21457(4)
O30_6 O 0.2224(2) 0.1541(3) 0.11877(4)
O33_6 O 0.4240(2) 0.0912(3) 0.19365(4)
O35_6 O 0.2426(2) 0.2422(3) 0.13969(4)
O38_6 O 0.1058(2) 0.0864(3) 0.15667(4)
O40_6 O 0.1765(2) 0.0075(3) 0.15773(4)
C34_6 C 0.4022(3) 0.1370(4) 0.20241(5)
C36_6 C 0.3203(4) 0.1421(6) 0.19761(5)
C38_6 C 0.2030(3) 0.1081(4) 0.17845(5)
C40_6 C 0.2771(3) 0.1031(4) 0.18351(5)
H23_6 H 0.2983 0.0729 0.1774
C42_6 C 0.1593(3) 0.0649(4) 0.16313(5)
C44_6 C 0.2891(5) 0.1877(7) 0.20685(7)
H25_6 H 0.3180 0.2149 0.2163
C46_6 C 0.2141(6) 0.1921(8) 0.20192(9)
H27_6 H 0.1928 0.2221 0.2081
C48_6 C 0.1706(5) 0.1521(6) 0.18781(8)
H29_6 H 0.1202 0.1548 0.1847
O41_6 O 0.1712(5) 0.3019(3) 0.16401(5)
H30_6 H 0.229(8) 0.344(6) 0.1645(10)
H32_6 H 0.138(10) 0.334(7) 0.1688(11)
Co3_10 Co 0.0000 1.0000 0.141096(11)
H8_6 H 0.0292 0.8072 0.2081
H9_6 H 0.0345 0.8798 0.1847
O12_6 O 0.0738(2) 0.9592(3) 0.12802(3)
H13_6 H 0.113(4) 0.996(6) 0.1276(6)
O42_6 O 0.1306(4) 0.8288(5) 0.16401(5)
H31_6 H 0.114(6) 0.771(8) 0.1645(10)
H33_6 H 0.195(7) 0.862(10) 0.1688(11)
Co3_11 Co 1.0000 -0.0000 0.141096(11)
Co9_6 Co 0.81703(4) 0.37077(4) 0.225454(6)
Co15_6 Co 0.87379(4) 0.42828(4) 0.187707(6)
O27_6 O 0.8207(3) 0.2650(2) 0.21457(4)
O29_6 O 0.8459(3) 0.0684(2) 0.11877(4)
O32_6 O 0.9088(3) 0.3329(2) 0.19365(4)
O34_6 O 0.7578(3) 0.0005(2) 0.13969(4)
O37_6 O 0.9136(3) 0.0195(2) 0.15667(4)
O39_6 O 0.9925(3) 0.1691(2) 0.15773(4)
C33_6 C 0.8630(4) 0.2653(3) 0.20241(5)
C35_6 C 0.8579(6) 0.1783(4) 0.19761(5)
C37_6 C 0.8919(4) 0.0950(3) 0.17845(5)
C39_6 C 0.8969(4) 0.1741(3) 0.18351(5)
H22_6 H 0.9271 0.2255 0.1774
C41_6 C 0.9351(4) 0.0945(3) 0.16313(5)
C43_6 C 0.8123(7) 0.1015(5) 0.20685(7)
H24_6 H 0.7851 0.1032 0.2163
C45_6 C 0.8079(8) 0.0221(5) 0.20192(9)
C47_6 C 0.8479(6) 0.0186(4) 0.18781(8)
Co3_12 Co 1.0000 1.0000 0.141096(11)
O1_6 O 0.8853(2) 0.9262(2) 0.12802(3)
H1_6 H 0.882(4) 0.887(4) 0.1276(6)
O6_6 O 0.7350(2) 0.5558(2) 0.21457(4)
O7_6 O 0.6671(2) 0.5760(2) 0.19365(4)
O8_6 O 0.9805(2) 0.8942(2) 0.15667(4)
O9_6 O 0.8309(2) 0.8235(2) 0.15773(4)
C9_6 C 0.7347(3) 0.5978(3) 0.20241(5)
C10_6 C 0.8217(4) 0.6797(4) 0.19761(5)
C11_6 C 0.9050(3) 0.7970(3) 0.17845(5)
C12_6 C 0.8259(3) 0.7229(3) 0.18351(5)
H6_6 H 0.7745 0.7017 0.1774
C13_6 C 0.9055(3) 0.8407(3) 0.16313(5)
C14_6 C 0.8985(5) 0.7109(5) 0.20685(7)
H7_6 H 0.8968 0.6820 0.2163
C15_6 C 0.9779(5) 0.7859(6) 0.20192(9)
C16_6 C 0.9814(4) 0.8294(5) 0.18781(8)
O10_6 O 0.6981(3) 0.8694(4) 0.16401(5)
H10_6 H 0.656(6) 0.886(6) 0.1645(10)
H11_6 H 0.666(7) 0.805(7) 0.1688(11)
Co8_6 Co 0.62923(4) 0.44627(6) 0.225454(6)
Co14_6 Co 0.57172(4) 0.44552(6) 0.187707(6)
O31_6 O 0.9316(2) 0.7776(2) 0.11877(4)
O36_6 O 0.9995(2) 0.7574(2) 0.13969(4)
H26_6 H 0.7779 0.9708 0.2081
H28_6 H 0.8452 0.9655 0.1847
C17_6 C 0.5292(3) 0.5333(4) 0.78431(5)
C19_6 C 0.6043(4) 0.5141(5) 0.78116(6)
C21_6 C 0.7035(4) 0.4918(5) 0.76408(5)
C23_6 C 0.6316(3) 0.5064(4) 0.76597(5)
H14_6 H 0.6017 0.5110 0.7571
C25_6 C 0.7359(3) 0.4801(4) 0.74825(5)
C27_6 C 0.6458(6) 0.5015(8) 0.79420(7)
H16_6 H 0.6263 0.5045 0.8043
C29_6 C 0.7158(7) 0.4847(9) 0.79230(8)
H18_6 H 0.7431 0.4759 0.8010
C31_6 C 0.7450(6) 0.4812(8) 0.77728(7)
H20_6 H 0.7932 0.4715 0.7760
C1_7 C 0.5333(4) 0.5292(3) 0.71569(5)
C2_7 C 0.5141(5) 0.6043(4) 0.71884(6)
C3_7 C 0.4918(5) 0.7035(4) 0.73592(5)
C4_7 C 0.5064(4) 0.6316(3) 0.73403(5)
H2_7 H 0.5110 0.6017 0.7429
C5_7 C 0.4801(4) 0.7359(3) 0.75175(5)
C6_7 C 0.5015(8) 0.6458(6) 0.70580(7)
H3_7 H 0.5045 0.6263 0.6957
C7_7 C 0.4847(9) 0.7158(7) 0.70770(8)
H4_7 H 0.4759 0.7431 0.6990
C8_7 C 0.4812(8) 0.7450(6) 0.72272(7)
H5_7 H 0.4715 0.7932 0.7240
C9_7 C 0.0689(3) 0.5986(3) 0.03574(5)
O4_6 O 0.1514(2) 0.9844(2) 0.91382(4)
O5_6 O 0.0172(2) 0.9031(2) 0.90342(3)
C3_8 C 0.0368(4) 0.8783(3) 0.93075(5)
C5_8 C 0.0692(3) 0.9224(3) 0.91492(5)
C7_8 C 0.0491(7) 0.8977(5) 0.95897(8)
H4_8 H 0.0764 0.9338 0.9677
C8_8 C 0.0783(6) 0.9304(5) 0.94395(7)
H5_8 H 0.1265 0.9883 0.9427
C10_7 C 0.9870(4) 0.5116(4) 0.03094(5)
C11_7 C 0.8697(3) 0.4283(3) 0.01178(5)
C12_7 C 0.9438(3) 0.5074(3) 0.01684(5)
H6_7 H 0.9650 0.5588 0.0107
C14_7 C 0.9558(5) 0.4348(5) 0.04018(7)
H7_7 H 0.9847 0.4365 0.0496
C15_7 C 0.8808(6) 0.3554(5) 0.03525(9)
H8_7 H 0.8595 0.3041 0.0414
C16_7 C 0.8373(5) 0.3519(4) 0.02114(8)
H9_7 H 0.7869 0.2988 0.0180
H11_7 H 0.862(7) 0.667(7) 0.0021(11)
C33_7 C 0.4014(3) 0.4703(4) 0.03574(5)
C35_7 C 0.4884(4) 0.4754(6) 0.03094(5)
C36_7 C 0.5246(6) 0.0130(4) 0.03094(5)
C37_7 C 0.5717(3) 0.4414(4) 0.01178(5)
C38_7 C 0.5586(4) 0.1303(3) 0.01178(5)
C39_7 C 0.4926(3) 0.4364(4) 0.01684(5)
C40_7 C 0.5636(4) 0.0562(3) 0.01684(5)
H22_7 H 0.4412 0.4062 0.0107
H23_7 H 0.5938 0.0350 0.0107
C43_7 C 0.5652(5) 0.5210(7) 0.04018(7)
C44_7 C 0.4790(7) 0.0442(5) 0.04018(7)
H24_7 H 0.5635 0.5482 0.0496
H25_7 H 0.4518 0.0153 0.0496
C45_7 C 0.6446(5) 0.5254(8) 0.03525(9)
C46_7 C 0.4746(8) 0.1192(6) 0.03525(9)
H26_7 H 0.6959 0.5554 0.0414
H27_7 H 0.4446 0.1405 0.0414
C47_7 C 0.6481(4) 0.4854(6) 0.02114(8)
C48_7 C 0.5146(6) 0.1627(5) 0.02114(8)
H28_7 H 0.7012 0.4881 0.0180
H29_7 H 0.5119 0.2131 0.0180
H32_7 H 0.333(7) 0.195(10) 0.0021(11)
H33_7 H 0.805(10) 0.138(7) 0.0021(11)
Co3_13 Co 0.6667 0.3333 0.974429(11)
O1_7 O 0.7405(2) 0.4480(2) 0.96135(3)
H1_7 H 0.780(4) 0.451(4) 0.9609(6)
O2_4 O 0.8606(2) 0.6362(2) 0.96495(4)
O3_4 O 0.8067(2) 0.6186(2) 0.94012(4)
C1_8 C 0.8625(3) 0.6625(3) 0.95098(5)
C2_8 C 0.9376(4) 0.7568(3) 0.94783(6)
C4_8 C 0.9649(3) 0.7918(3) 0.93264(5)
H2_8 H 0.9350 0.7573 0.9238
C6_8 C 0.9791(6) 0.8109(5) 0.96087(7)
H3_8 H 0.9596 0.7884 0.9710
O8_7 O 0.7725(2) 0.3528(2) 0.99000(4)
O9_7 O 0.8432(2) 0.5024(2) 0.99106(4)
C13_7 C 0.8260(3) 0.4278(3) 0.99646(5)
O10_7 O 0.7973(4) 0.6352(3) 0.99734(5)
H10_7 H 0.781(6) 0.677(6) 0.9978(10)
O11_7 O 0.5520(2) 0.2925(3) 0.96135(3)
O12_7 O 0.7075(3) 0.2595(2) 0.96135(3)
H12_7 H 0.549(4) 0.329(6) 0.9609(6)
H13_7 H 0.671(6) 0.220(4) 0.9609(6)
O13_5 O 0.3029(2) 0.1939(2) 0.86838(4)
O14_4 O 0.8911(3) 0.6971(2) 0.86838(4)
O15_4 O 0.3638(2) 0.2244(3) 0.96495(4)
O16_6 O 0.7756(3) 0.1394(2) 0.96495(4)
O17_5 O 0.2853(2) 0.1400(2) 0.89321(4)
O18_4 O 0.8548(3) 0.7147(2) 0.89321(4)
O19_4 O 0.3814(2) 0.1881(3) 0.94012(4)
O20_6 O 0.8119(3) 0.1933(2) 0.94012(4)
O21_4 O 0.6511(2) 0.4847(2) 0.91951(4)
O22_6 O 0.8337(3) 0.3489(2) 0.91951(4)
O23_6 O 0.5153(2) 0.1663(3) 0.91951(4)
O24_4 O 0.5698(2) 0.3505(2) 0.92991(3)
O25_6 O 0.7808(3) 0.4302(2) 0.92991(3)
O26_6 O 0.6495(2) 0.2192(3) 0.92991(3)
C17_7 C 0.3292(3) 0.1958(3) 0.88235(5)
C18_6 C 0.8667(4) 0.6708(3) 0.88235(5)
C19_7 C 0.4235(3) 0.2709(4) 0.88550(6)
C20_6 C 0.8475(5) 0.5765(3) 0.88550(6)
C21_7 C 0.5450(3) 0.3701(4) 0.90258(5)
C22_6 C 0.8252(5) 0.4550(3) 0.90258(5)
C23_7 C 0.4585(3) 0.2982(3) 0.90069(5)
C24_6 C 0.8398(4) 0.5415(3) 0.90069(5)
H14_7 H 0.4240 0.2683 0.9095
H15_6 H 0.8444 0.5760 0.9095
C25_7 C 0.5891(3) 0.4025(3) 0.91841(5)
C26_6 C 0.8135(4) 0.4109(3) 0.91841(5)
C27_7 C 0.4776(5) 0.3124(6) 0.87246(7)
C28_6 C 0.8349(8) 0.5224(5) 0.87246(7)
H16_7 H 0.4551 0.2929 0.8623
H17_6 H 0.8379 0.5449 0.8623
C29_7 C 0.5644(5) 0.3824(7) 0.87436(8)
C30_6 C 0.8181(9) 0.4356(5) 0.87436(8)
H18_7 H 0.6005 0.4097 0.8656
H19_6 H 0.8093 0.3995 0.8656
C31_7 C 0.5971(5) 0.4116(6) 0.88938(7)
C32_6 C 0.8146(8) 0.4029(5) 0.88938(7)
H20_7 H 0.6550 0.4598 0.8906
H21_6 H 0.8049 0.3450 0.8906
O37_7 O 0.6472(2) 0.4197(3) 0.99000(4)
O38_7 O 0.5803(3) 0.2275(2) 0.99000(4)
O39_7 O 0.4976(2) 0.3408(3) 0.99106(4)
O40_7 O 0.6592(3) 0.1568(2) 0.99106(4)
C41_7 C 0.5722(3) 0.3982(4) 0.99646(5)
C42_7 C 0.6018(4) 0.1740(3) 0.99646(5)
O41_7 O 0.3648(3) 0.1621(5) 0.99734(5)
O42_7 O 0.8379(5) 0.2027(4) 0.99734(5)
H30_7 H 0.323(6) 0.104(8) 0.9978(10)
H31_7 H 0.896(8) 0.219(6) 0.9978(10)
C34_7 C 0.5297(4) 0.9311(3) 0.03574(5)
O4_7 O 0.0156(2) 0.1670(3) 0.91382(4)
O5_7 O 0.0969(2) 0.1141(3) 0.90342(3)
C1_9 C 0.3375(3) 0.2000(4) 0.95098(5)
C2_9 C 0.2432(3) 0.1808(5) 0.94783(6)
C3_9 C 0.1217(3) 0.1585(5) 0.93075(5)
C4_9 C 0.2082(3) 0.1731(4) 0.93264(5)
H2_9 H 0.2427 0.1777 0.9238
C5_9 C 0.0776(3) 0.1468(4) 0.91492(5)
C6_9 C 0.1891(5) 0.1682(8) 0.96087(7)
H3_9 H 0.2116 0.1712 0.9710
C7_9 C 0.1023(5) 0.1514(9) 0.95897(8)
H4_9 H 0.0662 0.1426 0.9677
C8_9 C 0.0696(5) 0.1479(8) 0.94395(7)
H5_9 H 0.0117 0.1382 0.9427
O13_6 O 0.8061(2) 0.1089(3) 0.86838(4)
O17_6 O 0.8600(2) 0.1452(3) 0.89321(4)
C17_8 C 0.8042(3) 0.1333(4) 0.88235(5)
C19_8 C 0.7291(4) 0.1525(5) 0.88550(6)
C21_8 C 0.6299(4) 0.1748(5) 0.90258(5)
C23_8 C 0.7018(3) 0.1602(4) 0.90069(5)
H14_8 H 0.7317 0.1556 0.9095
C25_8 C 0.5975(3) 0.1865(4) 0.91841(5)
C27_8 C 0.6876(6) 0.1651(8) 0.87246(7)
H16_8 H 0.7071 0.1621 0.8623
C29_8 C 0.6176(7) 0.1819(9) 0.87436(8)
H18_8 H 0.5903 0.1907 0.8656
C31_8 C 0.5884(6) 0.1854(8) 0.88938(7)
H20_8 H 0.5402 0.1951 0.8906
C1_10 C 0.8000(4) 0.1375(3) 0.95098(5)
C2_10 C 0.8192(5) 0.0624(4) 0.94783(6)
C4_10 C 0.8269(4) 0.0351(3) 0.93264(5)
H2_10 H 0.8223 0.0650 0.9238
C6_10 C 0.8318(8) 0.0209(6) 0.96087(7)
H3_10 H 0.8288 0.0404 0.9710
O4_8 O 0.8330(3) 0.8486(2) 0.91382(4)
O5_8 O 0.8859(3) 0.9828(2) 0.90342(3)
C3_10 C 0.8415(5) 0.9632(4) 0.93075(5)
C5_10 C 0.8532(4) 0.9308(3) 0.91492(5)
C7_10 C 0.8486(9) 0.9509(7) 0.95897(8)
H4_10 H 0.8574 0.9236 0.9677
C8_10 C 0.8521(8) 0.9217(6) 0.94395(7)
H5_10 H 0.8618 0.8735 0.9427
O4_9 O 0.9844(2) 0.1514(2) 0.58618(4)
O5_9 O 0.9031(2) 0.0172(2) 0.59658(3)
C3_11 C 0.8783(3) 0.0368(4) 0.56925(5)
C5_11 C 0.9224(3) 0.0692(3) 0.58508(5)
C7_11 C 0.8977(5) 0.0491(7) 0.54103(8)
H4_11 H 0.9338 0.0764 0.5323
C8_11 C 0.9304(5) 0.0783(6) 0.55605(7)
H5_11 H 0.9883 0.1265 0.5573
C9_8 C 0.5986(3) 0.0689(3) 0.46426(5)
Co3_14 Co 0.3333 0.6667 0.525571(11)
O1_8 O 0.4480(2) 0.7405(2) 0.53865(3)
H1_8 H 0.451(4) 0.780(4) 0.5391(6)
O2_5 O 0.6362(2) 0.8606(2) 0.53505(4)
O3_5 O 0.6186(2) 0.8067(2) 0.55988(4)
C1_11 C 0.6625(3) 0.8625(3) 0.54902(5)
C2_11 C 0.7568(3) 0.9376(4) 0.55217(6)
C4_11 C 0.7918(3) 0.9649(3) 0.56736(5)
H2_11 H 0.7573 0.9350 0.5762
C6_11 C 0.8109(5) 0.9791(6) 0.53913(7)
H3_11 H 0.7884 0.9596 0.5290
O8_8 O 0.3528(2) 0.7725(2) 0.51000(4)
O9_8 O 0.5024(2) 0.8432(2) 0.50894(4)
C10_8 C 0.5116(4) 0.9870(4) 0.46906(5)
C11_8 C 0.4283(3) 0.8697(3) 0.48822(5)
C12_8 C 0.5074(3) 0.9438(3) 0.48316(5)
H6_8 H 0.5588 0.9650 0.4893
C13_8 C 0.4278(3) 0.8260(3) 0.50354(5)
C14_8 C 0.4348(5) 0.9558(5) 0.45982(7)
H7_8 H 0.4365 0.9847 0.4504
C15_8 C 0.3554(5) 0.8808(6) 0.46475(9)
H8_8 H 0.3041 0.8595 0.4586
C16_8 C 0.3519(4) 0.8373(5) 0.47886(8)
H9_8 H 0.2988 0.7869 0.4820
O10_8 O 0.6352(3) 0.7973(4) 0.50266(5)
H10_8 H 0.677(6) 0.781(6) 0.5022(10)
H11_8 H 0.667(7) 0.862(7) 0.4979(11)
O11_8 O 0.2925(3) 0.5520(2) 0.53865(3)
O12_8 O 0.2595(2) 0.7075(3) 0.53865(3)
H12_8 H 0.329(6) 0.549(4) 0.5391(6)
H13_8 H 0.220(4) 0.671(6) 0.5391(6)
O13_7 O 0.1939(2) 0.3029(2) 0.63162(4)
O14_5 O 0.6971(2) 0.8911(3) 0.63162(4)
O15_5 O 0.2244(3) 0.3638(2) 0.53505(4)
O16_7 O 0.1394(2) 0.7756(3) 0.53505(4)
O17_7 O 0.1400(2) 0.2853(2) 0.60679(4)
O18_5 O 0.7147(2) 0.8548(3) 0.60679(4)
O19_5 O 0.1881(3) 0.3814(2) 0.55988(4)
O20_7 O 0.1933(2) 0.8119(3) 0.55988(4)
O21_5 O 0.4847(2) 0.6511(2) 0.58049(4)
O22_7 O 0.3489(2) 0.8337(3) 0.58049(4)
O23_7 O 0.1663(3) 0.5153(2) 0.58049(4)
O24_5 O 0.3505(2) 0.5698(2) 0.57009(3)
O25_7 O 0.4302(2) 0.7808(3) 0.57009(3)
O26_7 O 0.2192(3) 0.6495(2) 0.57009(3)
C17_9 C 0.1958(3) 0.3292(3) 0.61765(5)
C18_7 C 0.6708(3) 0.8667(4) 0.61765(5)
C19_9 C 0.2709(4) 0.4235(3) 0.61450(6)
C20_7 C 0.5765(3) 0.8475(5) 0.61450(6)
C21_9 C 0.3701(4) 0.5450(3) 0.59742(5)
C22_7 C 0.4550(3) 0.8252(5) 0.59742(5)
C23_9 C 0.2982(3) 0.4585(3) 0.59931(5)
C24_7 C 0.5415(3) 0.8398(4) 0.59931(5)
H14_9 H 0.2683 0.4240 0.5905
H15_7 H 0.5760 0.8444 0.5905
C25_9 C 0.4025(3) 0.5891(3) 0.58159(5)
C26_7 C 0.4109(3) 0.8135(4) 0.58159(5)
C27_9 C 0.3124(6) 0.4776(5) 0.62754(7)
C28_7 C 0.5224(5) 0.8349(8) 0.62754(7)
H16_9 H 0.2929 0.4551 0.6377
H17_7 H 0.5449 0.8379 0.6377
C29_9 C 0.3824(7) 0.5644(5) 0.62564(8)
C30_7 C 0.4356(5) 0.8181(9) 0.62564(8)
H18_9 H 0.4097 0.6005 0.6344
H19_7 H 0.3995 0.8093 0.6344
C31_9 C 0.4116(6) 0.5971(5) 0.61062(7)
C32_7 C 0.4029(5) 0.8146(8) 0.61062(7)
H20_9 H 0.4598 0.6550 0.6094
H21_7 H 0.3450 0.8049 0.6094
O37_8 O 0.4197(3) 0.6472(2) 0.51000(4)
O38_8 O 0.2275(2) 0.5803(3) 0.51000(4)
O39_8 O 0.3408(3) 0.4976(2) 0.50894(4)
O40_8 O 0.1568(2) 0.6592(3) 0.50894(4)
C33_8 C 0.4703(4) 0.4014(3) 0.46426(5)
C35_8 C 0.4754(6) 0.4884(4) 0.46906(5)
C36_8 C 0.0130(4) 0.5246(6) 0.46906(5)
C37_8 C 0.4414(4) 0.5717(3) 0.48822(5)
C38_8 C 0.1303(3) 0.5586(4) 0.48822(5)
C39_8 C 0.4364(4) 0.4926(3) 0.48316(5)
C40_8 C 0.0562(3) 0.5636(4) 0.48316(5)
H22_8 H 0.4062 0.4412 0.4893
H23_8 H 0.0350 0.5938 0.4893
C41_8 C 0.3982(4) 0.5722(3) 0.50354(5)
C42_8 C 0.1740(3) 0.6018(4) 0.50354(5)
C43_8 C 0.5210(7) 0.5652(5) 0.45982(7)
C44_8 C 0.0442(5) 0.4790(7) 0.45982(7)
H24_8 H 0.5482 0.5635 0.4504
H25_8 H 0.0153 0.4518 0.4504
C45_8 C 0.5254(8) 0.6446(5) 0.46475(9)
C46_8 C 0.1192(6) 0.4746(8) 0.46475(9)
H26_8 H 0.5554 0.6959 0.4586
H27_8 H 0.1405 0.4446 0.4586
C47_8 C 0.4854(6) 0.6481(4) 0.47886(8)
C48_8 C 0.1627(5) 0.5146(6) 0.47886(8)
H28_8 H 0.4881 0.7012 0.4820
H29_8 H 0.2131 0.5119 0.4820
O41_8 O 0.1621(5) 0.3648(3) 0.50266(5)
O42_8 O 0.2027(4) 0.8379(5) 0.50266(5)
H30_8 H 0.104(8) 0.323(6) 0.5022(10)
H31_8 H 0.219(6) 0.896(8) 0.5022(10)
H32_8 H 0.195(10) 0.333(7) 0.4979(11)
H33_8 H 0.138(7) 0.805(10) 0.4979(11)
C34_8 C 0.9311(3) 0.5297(4) 0.46426(5)
Co3_15 Co 0.0000 -0.0000 0.641096(11)
O1_9 O 0.0738(2) 0.1147(2) 0.62802(3)
H1_9 H 0.113(4) 0.118(4) 0.6276(6)
O8_9 O 0.1058(2) 0.0195(2) 0.65667(4)
O9_9 O 0.1765(2) 0.1691(2) 0.65773(4)
C9_9 C 0.4022(3) 0.2653(3) 0.70241(5)
C10_9 C 0.3203(4) 0.1783(4) 0.69761(5)
C11_9 C 0.2030(3) 0.0950(3) 0.67845(5)
C12_9 C 0.2771(3) 0.1741(3) 0.68351(5)
H6_9 H 0.2983 0.2255 0.6774
C13_9 C 0.1593(3) 0.0945(3) 0.66313(5)
C14_9 C 0.2891(5) 0.1015(5) 0.70685(7)
H7_9 H 0.3180 0.1032 0.7163
C15_9 C 0.2141(6) 0.0221(5) 0.70192(9)
C16_9 C 0.1706(5) 0.0186(4) 0.68781(8)
O10_9 O 0.1306(4) 0.3019(3) 0.66401(5)
H10_9 H 0.114(6) 0.344(6) 0.6645(10)
H11_9 H 0.195(7) 0.334(7) 0.6688(11)
O22_8 O 0.1670(3) 0.0156(2) 0.58618(4)
O25_8 O 0.1141(3) 0.0969(2) 0.59658(3)
C18_8 C 0.2000(4) 0.3375(3) 0.54902(5)
C20_8 C 0.1808(5) 0.2432(3) 0.55217(6)
C22_8 C 0.1585(5) 0.1217(3) 0.56925(5)
C24_8 C 0.1731(4) 0.2082(3) 0.56736(5)
H15_8 H 0.1777 0.2427 0.5762
C26_8 C 0.1468(4) 0.0776(3) 0.58508(5)
C28_8 C 0.1682(8) 0.1891(5) 0.53913(7)
H17_8 H 0.1712 0.2116 0.5290
C30_8 C 0.1514(9) 0.1023(5) 0.54103(8)
H19_8 H 0.1426 0.0662 0.5323
C32_8 C 0.1479(8) 0.0696(5) 0.55605(7)
H21_8 H 0.1382 0.0117 0.5573
H26_9 H 0.0292 0.2221 0.7081
H28_9 H 0.0345 0.1548 0.6847
Co3_16 Co 0.0000 1.0000 0.641096(11)
H8_9 H 0.1928 0.9708 0.7081
H9_9 H 0.1202 0.9655 0.6847
O12_9 O 0.0408(3) 0.9262(2) 0.62802(3)
H13_9 H 0.004(6) 0.887(4) 0.6276(6)
O16_8 O 0.1089(3) 0.8061(2) 0.63162(4)
O20_8 O 0.1452(3) 0.8600(2) 0.60679(4)
O42_9 O 0.1712(5) 0.8694(4) 0.66401(5)
H31_9 H 0.229(8) 0.886(6) 0.6645(10)
H33_9 H 0.138(10) 0.805(7) 0.6688(11)
Co3_17 Co 1.0000 -0.0000 0.641096(11)
O37_9 O 0.9805(2) 0.0864(3) 0.65667(4)
O39_9 O 0.8309(2) 0.0075(3) 0.65773(4)
C33_9 C 0.7347(3) 0.1370(4) 0.70241(5)
C35_9 C 0.8217(4) 0.1421(6) 0.69761(5)
C37_9 C 0.9050(3) 0.1081(4) 0.67845(5)
C39_9 C 0.8259(3) 0.1031(4) 0.68351(5)
H22_9 H 0.7745 0.0729 0.6774
C41_9 C 0.9055(3) 0.0649(4) 0.66313(5)
C43_9 C 0.8985(5) 0.1877(7) 0.70685(7)
H24_9 H 0.8968 0.2149 0.7163
C45_9 C 0.9779(5) 0.1921(8) 0.70192(9)
C47_9 C 0.9814(4) 0.1521(6) 0.68781(8)
Co3_18 Co 1.0000 1.0000 0.641096(11)
O11_9 O 0.8853(2) 0.9592(3) 0.62802(3)
H12_9 H 0.882(4) 0.996(6) 0.6276(6)
O23_8 O 0.8486(2) 0.8330(3) 0.58618(4)
O26_8 O 0.9828(2) 0.8859(3) 0.59658(3)
O38_9 O 0.9136(3) 0.8942(2) 0.65667(4)
O40_9 O 0.9925(3) 0.8235(2) 0.65773(4)
C34_9 C 0.8630(4) 0.5978(3) 0.70241(5)
C36_9 C 0.8579(6) 0.6797(4) 0.69761(5)
C38_9 C 0.8919(4) 0.7970(3) 0.67845(5)
C40_9 C 0.8969(4) 0.7229(3) 0.68351(5)
H23_9 H 0.9271 0.7017 0.6774
C42_9 C 0.9351(4) 0.8407(3) 0.66313(5)
C44_9 C 0.8123(7) 0.7109(5) 0.70685(7)
H25_9 H 0.7851 0.6820 0.7163
C46_9 C 0.8079(8) 0.7859(6) 0.70192(9)
H27_9 H 0.7779 0.8072 0.7081
C48_9 C 0.8479(6) 0.8294(5) 0.68781(8)
H29_9 H 0.8452 0.8798 0.6847
O41_9 O 0.6981(3) 0.8288(5) 0.66401(5)
H30_9 H 0.656(6) 0.771(8) 0.6645(10)
H32_9 H 0.666(7) 0.862(10) 0.6688(11)
C17_10 C 0.1375(3) 0.8000(4) 0.54902(5)
C19_10 C 0.0624(4) 0.8192(5) 0.55217(6)
C23_10 C 0.0351(3) 0.8269(4) 0.56736(5)
H14_10 H 0.0650 0.8223 0.5762
C27_10 C 0.0209(6) 0.8318(8) 0.53913(7)
H16_10 H 0.0404 0.8288 0.5290
C21_10 C 0.9632(4) 0.8415(5) 0.56925(5)
C25_10 C 0.9308(3) 0.8532(4) 0.58508(5)
C29_10 C 0.9509(7) 0.8486(9) 0.54103(8)
H18_10 H 0.9236 0.8574 0.5323
C31_10 C 0.9217(6) 0.8521(8) 0.55605(7)
H20_10 H 0.8735 0.8618 0.5573
C1_12 C 0.1333(4) 0.8042(3) 0.61765(5)
C2_12 C 0.1525(5) 0.7291(4) 0.61450(6)
C3_12 C 0.1748(5) 0.6299(4) 0.59742(5)
C4_12 C 0.1602(4) 0.7018(3) 0.59931(5)
H2_12 H 0.1556 0.7317 0.5905
C5_12 C 0.1865(4) 0.5975(3) 0.58159(5)
C6_12 C 0.1651(8) 0.6876(6) 0.62754(7)
H3_12 H 0.1621 0.7071 0.6377
C7_12 C 0.1819(9) 0.6176(7) 0.62564(8)
H4_12 H 0.1907 0.5903 0.6344
C8_12 C 0.1854(8) 0.5884(6) 0.61062(7)
H5_12 H 0.1951 0.5402 0.6094
O4_10 O 0.3177(2) 0.8181(2) 0.25285(4)
O5_10 O 0.2364(2) 0.6839(2) 0.26325(3)
C2_13 C 0.0901(3) 0.6043(4) 0.21884(6)
C3_13 C 0.2116(3) 0.7035(4) 0.23592(5)
C4_13 C 0.1251(3) 0.6316(3) 0.23403(5)
H2_13 H 0.0906 0.6017 0.2429
C5_13 C 0.2557(3) 0.7359(3) 0.25175(5)
C6_13 C 0.1442(5) 0.6458(6) 0.20580(7)
H3_13 H 0.1217 0.6263 0.1957
C7_13 C 0.2310(5) 0.7158(7) 0.20770(8)
H4_13 H 0.2671 0.7431 0.1990
C8_13 C 0.2637(5) 0.7450(6) 0.22272(7)
H5_13 H 0.3216 0.7932 0.2240
H10_10 H 0.010(6) 0.448(6) 0.1689(10)
H11_10 H 0.000(7) 0.529(7) 0.1646(11)
O14_6 O 0.0305(2) 0.5577(3) 0.29828(4)
O18_6 O 0.0481(2) 0.5214(3) 0.27345(4)
C18_9 C 0.0042(3) 0.5333(4) 0.28431(5)
Co3_19 Co 0.6666 0.3334 0.192238(11)
O1_10 O 0.7813(2) 0.4072(2) 0.20532(3)
H1_10 H 0.784(4) 0.447(4) 0.2058(6)
O2_6 O 0.9695(2) 0.5273(2) 0.20172(4)
O3_6 O 0.9519(2) 0.4734(2) 0.22655(4)
C1_13 C 0.9958(3) 0.5292(3) 0.21569(5)
O8_10 O 0.6861(2) 0.4392(2) 0.17667(4)
O9_10 O 0.8357(2) 0.5099(2) 0.17561(4)
C9_10 C 0.9319(3) 0.7356(3) 0.13093(5)
C10_10 C 0.8449(4) 0.6537(4) 0.13573(5)
C11_10 C 0.7616(3) 0.5364(3) 0.15489(5)
C12_10 C 0.8407(3) 0.6105(3) 0.14983(5)
H6_10 H 0.8921 0.6317 0.1560
C13_10 C 0.7611(3) 0.4927(3) 0.17021(5)
C14_10 C 0.7681(5) 0.6225(5) 0.12649(7)
H7_10 H 0.7698 0.6514 0.1171
C15_10 C 0.6887(5) 0.5475(6) 0.13142(9)
H8_10 H 0.6374 0.5262 0.1253
C16_10 C 0.6852(4) 0.5040(5) 0.14553(8)
H9_10 H 0.6321 0.4536 0.1487
O10_10 O 0.9685(3) 0.4640(4) 0.16933(5)
O11_10 O 0.6258(3) 0.2187(2) 0.20532(3)
O12_10 O 0.5928(2) 0.3742(3) 0.20532(3)
H12_10 H 0.662(6) 0.216(4) 0.2058(6)
H13_10 H 0.553(4) 0.338(6) 0.2058(6)
O15_6 O 0.5577(3) 0.0305(2) 0.20172(4)
O16_9 O 0.4727(2) 0.4423(3) 0.20172(4)
O19_6 O 0.5214(3) 0.0481(2) 0.22655(4)
O20_9 O 0.5266(2) 0.4786(3) 0.22655(4)
O21_6 O 0.8181(2) 0.3177(2) 0.24715(4)
O22_9 O 0.6823(2) 0.5003(3) 0.24715(4)
O23_9 O 0.4997(3) 0.1819(2) 0.24715(4)
O24_6 O 0.6839(2) 0.2364(2) 0.23675(3)
O25_9 O 0.7636(2) 0.4474(3) 0.23675(3)
O26_9 O 0.5526(3) 0.3161(2) 0.23675(3)
C19_11 C 0.6043(4) 0.0901(3) 0.28116(6)
C20_9 C 0.9099(3) 0.5141(5) 0.28116(6)
C21_11 C 0.7035(4) 0.2116(3) 0.26408(5)
C22_9 C 0.7884(3) 0.4918(5) 0.26408(5)
C23_11 C 0.6316(3) 0.1251(3) 0.26597(5)
C24_9 C 0.8749(3) 0.5064(4) 0.26597(5)
H14_11 H 0.6017 0.0906 0.2571
H15_9 H 0.9094 0.5110 0.2571
C25_11 C 0.7359(3) 0.2557(3) 0.24825(5)
C26_9 C 0.7443(3) 0.4801(4) 0.24825(5)
C27_11 C 0.6458(6) 0.1442(5) 0.29420(7)
C28_9 C 0.8558(5) 0.5015(8) 0.29420(7)
H16_11 H 0.6263 0.1217 0.3043
H17_9 H 0.8783 0.5045 0.3043
C29_11 C 0.7158(7) 0.2310(5) 0.29230(8)
C30_9 C 0.7690(5) 0.4847(9) 0.29230(8)
H18_11 H 0.7431 0.2671 0.3010
H19_9 H 0.7329 0.4759 0.3010
C31_11 C 0.7450(6) 0.2637(5) 0.27728(7)
C32_9 C 0.7363(5) 0.4812(8) 0.27728(7)
H20_11 H 0.7932 0.3216 0.2760
H21_9 H 0.6784 0.4715 0.2760
O37_10 O 0.7530(3) 0.3139(2) 0.17667(4)
O38_10 O 0.5608(2) 0.2470(3) 0.17667(4)
O39_10 O 0.6741(3) 0.1643(2) 0.17561(4)
O40_10 O 0.4901(2) 0.3259(3) 0.17561(4)
C33_10 C 0.8036(4) 0.0681(3) 0.13093(5)
C34_10 C 0.2644(3) 0.1964(4) 0.13093(5)
C35_10 C 0.8087(6) 0.1551(4) 0.13573(5)
C36_10 C 0.3463(4) 0.1913(6) 0.13573(5)
C37_10 C 0.7747(4) 0.2384(3) 0.15489(5)
C38_10 C 0.4636(3) 0.2253(4) 0.15489(5)
C39_10 C 0.7697(4) 0.1593(3) 0.14983(5)
C40_10 C 0.3895(3) 0.2303(4) 0.14983(5)
H22_10 H 0.7395 0.1079 0.1560
H23_10 H 0.3683 0.2605 0.1560
C41_10 C 0.7315(4) 0.2389(3) 0.17021(5)
C42_10 C 0.5073(3) 0.2685(4) 0.17021(5)
C43_10 C 0.8543(7) 0.2319(5) 0.12649(7)
C44_10 C 0.3775(5) 0.1457(7) 0.12649(7)
H24_10 H 0.8815 0.2302 0.1171
H25_10 H 0.3486 0.1185 0.1171
C45_10 C 0.8587(8) 0.3113(5) 0.13142(9)
C46_10 C 0.4525(6) 0.1413(8) 0.13142(9)
H26_10 H 0.8887 0.3626 0.1253
H27_10 H 0.4738 0.1113 0.1253
C47_10 C 0.8187(6) 0.3148(4) 0.14553(8)
C48_10 C 0.4960(5) 0.1813(6) 0.14553(8)
H28_10 H 0.8214 0.3679 0.1487
H29_10 H 0.5464 0.1786 0.1487
O41_10 O 0.4954(5) 0.0315(3) 0.16933(5)
O42_10 O 0.5360(4) 0.5046(5) 0.16933(5)
H31_10 H 0.552(6) 0.563(8) 0.1689(10)
H33_10 H 0.471(7) 0.472(10) 0.1646(11)
O13_8 O 0.5273(2) 0.9695(2) 0.29828(4)
O17_8 O 0.4734(2) 0.9519(2) 0.27345(4)
C17_11 C 0.5292(3) 0.9958(3) 0.28431(5)
H30_10 H 0.437(8) 0.990(6) 0.1689(10)
H32_10 H 0.528(10) 1.000(7) 0.1646(11)
H10_11 H 0.448(6) 0.010(6) 0.3311(10)
H11_11 H 0.529(7) 0.000(7) 0.3354(11)
C18_10 C 0.5333(4) 0.0042(3) 0.21569(5)
Co3_20 Co 0.3334 0.6666 0.307762(11)
O1_11 O 0.4072(2) 0.7813(2) 0.29468(3)
H1_11 H 0.447(4) 0.784(4) 0.2942(6)
O8_11 O 0.4392(2) 0.6861(2) 0.32333(4)
O9_11 O 0.5099(2) 0.8357(2) 0.32439(4)
C9_11 C 0.7356(3) 0.9319(3) 0.36907(5)
C10_11 C 0.6537(4) 0.8449(4) 0.36427(5)
C11_11 C 0.5364(3) 0.7616(3) 0.34511(5)
C12_11 C 0.6105(3) 0.8407(3) 0.35017(5)
H6_11 H 0.6317 0.8921 0.3440
C13_11 C 0.4927(3) 0.7611(3) 0.32979(5)
C14_11 C 0.6225(5) 0.7681(5) 0.37351(7)
H7_11 H 0.6514 0.7698 0.3829
C15_11 C 0.5475(6) 0.6887(5) 0.36858(9)
H8_11 H 0.5262 0.6374 0.3747
C16_11 C 0.5040(5) 0.6852(4) 0.35447(8)
H9_11 H 0.4536 0.6321 0.3513
O10_11 O 0.4640(4) 0.9685(3) 0.33067(5)
O11_11 O 0.2187(2) 0.6258(3) 0.29468(3)
O12_11 O 0.3742(3) 0.5928(2) 0.29468(3)
H12_11 H 0.216(4) 0.662(6) 0.2942(6)
H13_11 H 0.338(6) 0.553(4) 0.2942(6)
O16_10 O 0.4423(3) 0.4727(2) 0.29828(4)
O20_10 O 0.4786(3) 0.5266(2) 0.27345(4)
O22_10 O 0.5003(3) 0.6823(2) 0.25285(4)
O23_10 O 0.1819(2) 0.4997(3) 0.25285(4)
O25_10 O 0.4474(3) 0.7636(2) 0.26325(3)
O26_10 O 0.3161(2) 0.5526(3) 0.26325(3)
C20_10 C 0.5141(5) 0.9099(3) 0.21884(6)
C22_10 C 0.4918(5) 0.7884(3) 0.23592(5)
C24_10 C 0.5064(4) 0.8749(3) 0.23403(5)
H15_10 H 0.5110 0.9094 0.2429
C26_10 C 0.4801(4) 0.7443(3) 0.25175(5)
C28_10 C 0.5015(8) 0.8558(5) 0.20580(7)
H17_10 H 0.5045 0.8783 0.1957
C30_10 C 0.4847(9) 0.7690(5) 0.20770(8)
H19_10 H 0.4759 0.7329 0.1990
C32_10 C 0.4812(8) 0.7363(5) 0.22272(7)
H21_10 H 0.4715 0.6784 0.2240
O37_11 O 0.3139(2) 0.7530(3) 0.32333(4)
O38_11 O 0.2470(3) 0.5608(2) 0.32333(4)
O39_11 O 0.1643(2) 0.6741(3) 0.32439(4)
O40_11 O 0.3259(3) 0.4901(2) 0.32439(4)
C33_11 C 0.0681(3) 0.8036(4) 0.36907(5)
C34_11 C 0.1964(4) 0.2644(3) 0.36907(5)
C35_11 C 0.1551(4) 0.8087(6) 0.36427(5)
C36_11 C 0.1913(6) 0.3463(4) 0.36427(5)
C37_11 C 0.2384(3) 0.7747(4) 0.34511(5)
C38_11 C 0.2253(4) 0.4636(3) 0.34511(5)
C39_11 C 0.1593(3) 0.7697(4) 0.35017(5)
C40_11 C 0.2303(4) 0.3895(3) 0.35017(5)
H22_11 H 0.1079 0.7395 0.3440
H23_11 H 0.2605 0.3683 0.3440
C41_11 C 0.2389(3) 0.7315(4) 0.32979(5)
C42_11 C 0.2685(4) 0.5073(3) 0.32979(5)
C43_11 C 0.2319(5) 0.8543(7) 0.37351(7)
C44_11 C 0.1457(7) 0.3775(5) 0.37351(7)
H24_11 H 0.2302 0.8815 0.3829
H25_11 H 0.1185 0.3486 0.3829
C45_11 C 0.3113(5) 0.8587(8) 0.36858(9)
C46_11 C 0.1413(8) 0.4525(6) 0.36858(9)
H26_11 H 0.3626 0.8887 0.3747
H27_11 H 0.1113 0.4738 0.3747
C47_11 C 0.3148(4) 0.8187(6) 0.35447(8)
C48_11 C 0.1813(6) 0.4960(5) 0.35447(8)
H28_11 H 0.3679 0.8214 0.3513
H29_11 H 0.1786 0.5464 0.3513
O41_11 O 0.0315(3) 0.4954(5) 0.33067(5)
O42_11 O 0.5046(5) 0.5360(4) 0.33067(5)
H31_11 H 0.563(8) 0.552(6) 0.3311(10)
H33_11 H 0.472(10) 0.471(7) 0.3354(11)
H30_11 H 0.990(6) 0.437(8) 0.3311(10)
H32_11 H 1.000(7) 0.528(10) 0.3354(11)
Co3_21 Co -0.0000 0.0000 0.858904(11)
O1_12 O 0.1147(2) 0.0738(2) 0.87198(3)
H1_12 H 0.118(4) 0.113(4) 0.8724(6)
O8_12 O 0.0195(2) 0.1058(2) 0.84333(4)
O9_12 O 0.1691(2) 0.1765(2) 0.84227(4)
C9_12 C 0.2653(3) 0.4022(3) 0.79759(5)
C10_12 C 0.1783(4) 0.3203(4) 0.80239(5)
C11_12 C 0.0950(3) 0.2030(3) 0.82155(5)
C12_12 C 0.1741(3) 0.2771(3) 0.81649(5)
H6_12 H 0.2255 0.2983 0.8226
C13_12 C 0.0945(3) 0.1593(3) 0.83687(5)
C14_12 C 0.1015(5) 0.2891(5) 0.79315(7)
H7_12 H 0.1032 0.3180 0.7837
C15_12 C 0.0221(5) 0.2141(6) 0.79808(9)
C16_12 C 0.0186(4) 0.1706(5) 0.81219(8)
O10_12 O 0.3019(3) 0.1306(4) 0.83599(5)
H10_12 H 0.344(6) 0.114(6) 0.8355(10)
H11_12 H 0.334(7) 0.195(7) 0.8312(11)
H26_12 H 0.2221 0.0292 0.7919
H28_12 H 0.1548 0.0345 0.8153
Co3_22 Co -0.0000 1.0000 0.858904(11)
O37_12 O 0.0864(3) 0.9805(2) 0.84333(4)
O39_12 O 0.0075(3) 0.8309(2) 0.84227(4)
C33_12 C 0.1370(4) 0.7347(3) 0.79759(5)
C35_12 C 0.1421(6) 0.8217(4) 0.80239(5)
C37_12 C 0.1081(4) 0.9050(3) 0.82155(5)
C39_12 C 0.1031(4) 0.8259(3) 0.81649(5)
H22_12 H 0.0729 0.7745 0.8226
C41_12 C 0.0649(4) 0.9055(3) 0.83687(5)
C43_12 C 0.1877(7) 0.8985(5) 0.79315(7)
H24_12 H 0.2149 0.8968 0.7837
C45_12 C 0.1921(8) 0.9779(5) 0.79808(9)
C47_12 C 0.1521(6) 0.9814(4) 0.81219(8)
Co3_23 Co 1.0000 0.0000 0.858904(11)
H8_12 H 0.9708 0.1928 0.7919
H9_12 H 0.9655 0.1202 0.8153
O12_12 O 0.9262(2) 0.0408(3) 0.87198(3)
H13_12 H 0.887(4) 0.004(6) 0.8724(6)
O42_12 O 0.8694(4) 0.1712(5) 0.83599(5)
H31_12 H 0.886(6) 0.229(8) 0.8355(10)
H33_12 H 0.805(7) 0.138(10) 0.8312(11)
Co3_24 Co 1.0000 1.0000 0.858904(11)
O11_12 O 0.9592(3) 0.8853(2) 0.87198(3)
H12_12 H 0.996(6) 0.882(4) 0.8724(6)
O38_12 O 0.8942(2) 0.9136(3) 0.84333(4)
O40_12 O 0.8235(2) 0.9925(3) 0.84227(4)
C34_12 C 0.5978(3) 0.8630(4) 0.79759(5)
C36_12 C 0.6797(4) 0.8579(6) 0.80239(5)
C38_12 C 0.7970(3) 0.8919(4) 0.82155(5)
C40_12 C 0.7229(3) 0.8969(4) 0.81649(5)
H23_12 H 0.7017 0.9271 0.8226
C42_12 C 0.8407(3) 0.9351(4) 0.83687(5)
C44_12 C 0.7109(5) 0.8123(7) 0.79315(7)
H25_12 H 0.6820 0.7851 0.7837
C46_12 C 0.7859(6) 0.8079(8) 0.79808(9)
H27_12 H 0.8072 0.7779 0.7919
C48_12 C 0.8294(5) 0.8479(6) 0.81219(8)
H29_12 H 0.8798 0.8452 0.8153
O41_12 O 0.8288(5) 0.6981(3) 0.83599(5)
H30_12 H 0.771(8) 0.656(6) 0.8355(10)
H32_12 H 0.862(10) 0.666(7) 0.8312(11)
C17_12 C 0.4708(3) 0.4667(4) 0.21569(5)
C19_12 C 0.3957(4) 0.4859(5) 0.21884(6)
C21_12 C 0.2965(4) 0.5082(5) 0.23592(5)
C23_12 C 0.3684(3) 0.4936(4) 0.23403(5)
H14_12 H 0.3983 0.4890 0.2429
C25_12 C 0.2641(3) 0.5199(4) 0.25175(5)
C27_12 C 0.3542(6) 0.4985(8) 0.20580(7)
H16_12 H 0.3737 0.4955 0.1957
C29_12 C 0.2842(7) 0.5153(9) 0.20770(8)
H18_12 H 0.2569 0.5241 0.1990
C31_12 C 0.2550(6) 0.5188(8) 0.22272(7)
H20_12 H 0.2068 0.5285 0.2240
C1_14 C 0.4667(4) 0.4708(3) 0.28431(5)
C2_14 C 0.4859(5) 0.3957(4) 0.28116(6)
C3_14 C 0.5082(5) 0.2965(4) 0.26408(5)
C4_14 C 0.4936(4) 0.3684(3) 0.26597(5)
H2_14 H 0.4890 0.3983 0.2571
C5_14 C 0.5199(4) 0.2641(3) 0.24825(5)
C6_14 C 0.4985(8) 0.3542(6) 0.29420(7)
H3_14 H 0.4955 0.3737 0.3043
C7_14 C 0.5153(9) 0.2842(7) 0.29230(8)
H4_14 H 0.5241 0.2569 0.3010
C8_14 C 0.5188(8) 0.2550(6) 0.27728(7)
H5_14 H 0.5285 0.2068 0.2760
K1 K 0.2785(2) 0.3333 0.0833
K1_2 K 0.6667 0.9452(2) 0.0833
K1_3 K 0.0548(2) 0.7215(2) 0.0833
K1_4 K 0.3333 0.2785(2) 0.4167
K1_5 K 0.9452(2) 0.6666 0.4166
K1_6 K 0.7215(2) 0.0548(2) 0.4166
K1_7 K -0.0000 0.6118(2) 0.7500
K1_8 K 1.0000 0.6118(2) 0.7500
K1_9 K 0.6118(2) -0.0000 0.7500
K1_10 K 0.6118(2) 1.0000 0.7500
K1_11 K 0.3881(2) 0.3882(2) 0.7500
K1_12 K 0.7215(2) 0.6667 0.9167
K1_13 K 0.3333 0.0548(2) 0.9167
K1_14 K 0.9452(2) 0.2785(2) 0.9167
K1_15 K 0.6667 0.7215(2) 0.5833
K1_16 K 0.0548(2) 0.3334 0.5834
K1_17 K 0.2785(2) 0.9452(2) 0.5834
K1_18 K 0.0000 0.3882(2) 0.2500
K1_19 K 1.0000 0.3882(2) 0.2500
K1_20 K 0.3882(2) 0.0000 0.2500
K1_21 K 0.3882(2) 1.0000 0.2500
K1_22 K 0.6119(2) 0.6118(2) 0.2500
loop_
_geom_bond_atom_site_label_1
_geom_bond_atom_site_label_2
_geom_bond_site_symmetry_1
_geom_bond_site_symmetry_2
Co10 O28 1_555 1_555
Co16 O33 1_555 1_555
O28 C34 1_555 1_555
O33 C34 1_555 1_555
Co1 O1 1_555 1_555
Co2 O1 1_555 1_555
Co3 O1 1_555 1_555
O1 H1 1_555 1_555
O2 Co2 1_555 1_555
O3 Co1 1_555 1_555
C1 O2 1_555 1_555
C2 C1 1_555 1_555
C4 C2 1_555 1_555
H2 C4 1_555 1_555
C6 C2 1_555 1_555
H3 C6 1_555 1_555
O8 Co3 1_555 1_555
O9 Co2 1_555 1_555
C13 O8 1_555 1_555
O10 Co2 1_555 1_555
H10 O10 1_555 1_555
Co4 O11 1_555 1_555
Co5 O12 1_555 1_555
Co11 O17 1_555 1_555
Co12 O11 1_555 1_555
Co13 O8 1_555 1_555
Co17 O13 1_555 1_555
Co18 O14 1_555 1_555
O11 Co3 1_555 1_555
O12 Co3 1_555 1_555
H12 O11 1_555 1_555
H13 O12 1_555 1_555
O13 C17 1_555 1_555
O14 C18 1_555 1_555
O15 Co12 1_555 1_555
O16 Co13 1_555 1_555
O17 C17 1_555 1_555
O18 Co7 1_555 1_555
O19 Co4 1_555 1_555
O20 Co5 1_555 1_555
O21 Co1 1_555 1_555
O22 Co5 1_555 1_555
O23 Co4 1_555 1_555
O24 Co4 1_555 1_555
O25 Co1 1_555 1_555
O26 Co5 1_555 1_555
C17 C19 1_555 1_555
C18 O18 1_555 1_555
C19 C23 1_555 1_555
C20 C18 1_555 1_555
C21 C23 1_555 1_555
C22 C24 1_555 1_555
C23 H14 1_555 1_555
C24 C20 1_555 1_555
H15 C24 1_555 1_555
C25 O21 1_555 1_555
C26 O22 1_555 1_555
C27 C19 1_555 1_555
C28 C20 1_555 1_555
H16 C27 1_555 1_555
H17 C28 1_555 1_555
C29 C27 1_555 1_555
C30 C28 1_555 1_555
H18 C29 1_555 1_555
H19 C30 1_555 1_555
C31 C21 1_555 1_555
C32 C22 1_555 1_555
H20 C31 1_555 1_555
H21 C32 1_555 1_555
O29 Co1 1_555 1_555
O30 Co4 1_555 1_555
O31 Co5 1_555 1_555
O34 Co2 1_555 1_555
O35 Co12 1_555 1_555
O36 Co13 1_555 1_555
O37 Co2 1_555 1_555
O38 Co3 1_555 1_555
O39 Co12 1_555 1_555
O40 Co13 1_555 1_555
C41 O37 1_555 1_555
C42 O38 1_555 1_555
O41 Co12 1_555 1_555
O42 Co13 1_555 1_555
H30 O41 1_555 1_555
H31 O42 1_555 1_555
Co3 O37 1_555 1_555
O3 C1 1_555 1_555
O9 C13 1_555 1_555
Co12 O38 1_555 1_555
Co13 O12 1_555 1_555
O24 C25 1_555 1_555
O25 C26 1_555 1_555
C21 C25 1_555 1_555
C22 C26 1_555 1_555
C29 C31 1_555 1_555
C30 C32 1_555 1_555
O39 C41 1_555 1_555
O40 C42 1_555 1_555
C10 C12 1_555 1_555
C11 C12 1_555 1_555
C12 H6 1_555 1_555
C14 C10 1_555 1_555
H7 C14 1_555 1_555
C15 C14 1_555 1_555
H8 C15 1_555 1_555
C16 C11 1_555 1_555
H9 C16 1_555 1_555
Co9 O27 1_555 1_555
Co15 O32 1_555 1_555
O27 C33 1_555 1_555
O32 C33 1_555 1_555
C33 C35 1_555 1_555
C35 C39 1_555 1_555
C36 C40 1_555 1_555
C37 C39 1_555 1_555
C38 C40 1_555 1_555
C39 H22 1_555 1_555
C40 H23 1_555 1_555
C43 C35 1_555 1_555
C44 C36 1_555 1_555
H24 C43 1_555 1_555
H25 C44 1_555 1_555
C45 C43 1_555 1_555
C46 C44 1_555 1_555
H26 C45 1_555 1_555
H27 C46 1_555 1_555
C47 C37 1_555 1_555
C48 C38 1_555 1_555
H28 C47 1_555 1_555
H29 C48 1_555 1_555
C15 C16 1_555 1_555
C45 C47 1_555 1_555
C46 C48 1_555 1_555
O4 C5 1_555 1_555
O5 C5 1_555 1_555
C5 C3 1_555 1_555
H4 C7 1_555 1_555
C8 C3 1_555 1_555
H5 C8 1_555 1_555
C7 C8 1_555 1_555
O6 C9 1_555 1_555
O7 C9 1_555 1_555
Co8 O6 1_555 1_555
Co14 O7 1_555 1_555
O4_2 C5_2 1_555 1_555
O5_2 C5_2 1_555 1_555
C1_2 O15 1_555 1_555
C2_2 C1_2 1_555 1_555
C3_2 C4_2 1_555 1_555
C4_2 C2_2 1_555 1_555
H2_2 C4_2 1_555 1_555
C5_2 C3_2 1_555 1_555
C6_2 C2_2 1_555 1_555
H3_2 C6_2 1_555 1_555
C7_2 C6_2 1_555 1_555
H4_2 C7_2 1_555 1_555
C8_2 C3_2 1_555 1_555
H5_2 C8_2 1_555 1_555
Co11 O5_2 1_555 1_555
Co6 O17_2 1_555 1_555
Co17_2 O13_2 1_555 1_555
O13_2 C17_2 1_555 1_555
O17_2 C17_2 1_555 1_555
C17_2 C19_2 1_555 1_555
C19_2 C23_2 1_555 1_555
C21_2 C23_2 1_555 1_555
C23_2 H14_2 1_555 1_555
C25_2 O23 1_555 1_555
C27_2 C19_2 1_555 1_555
H16_2 C27_2 1_555 1_555
C29_2 C27_2 1_555 1_555
H18_2 C29_2 1_555 1_555
C31_2 C21_2 1_555 1_555
H20_2 C31_2 1_555 1_555
O19 C1_2 1_555 1_555
C7_2 C8_2 1_555 1_555
O26 C25_2 1_555 1_555
C21_2 C25_2 1_555 1_555
C29_2 C31_2 1_555 1_555
O4_3 C5_3 1_555 1_555
O5_3 C5_3 1_555 1_555
C5_3 C3_3 1_555 1_555
H4_3 C7_3 1_555 1_555
C8_3 C3_3 1_555 1_555
H5_3 C8_3 1_555 1_555
Co7 O4_3 1_555 1_555
C7_3 C8_3 1_555 1_555
C1_3 O16 1_555 1_555
C2_3 C1_3 1_555 1_555
C4_3 C2_3 1_555 1_555
H2_3 C4_3 1_555 1_555
C6_3 C2_3 1_555 1_555
H3_3 C6_3 1_555 1_555
O20 C1_3 1_555 1_555
Co10_2 O28_2 1_555 1_555
Co16_2 O33_2 1_555 1_555
O28_2 C34_2 1_555 1_555
O33_2 C34_2 1_555 1_555
Co1_2 O1_2 1_555 1_555
Co2_2 O1_2 1_555 1_555
Co3_2 O1_2 1_555 1_555
O1_2 H1_2 1_555 1_555
O2_2 Co2_2 1_555 1_555
O3_2 Co1_2 1_555 1_555
C1_4 O2_2 1_555 1_555
C2_4 C1_4 1_555 1_555
C4_4 C2_4 1_555 1_555
H2_4 C4_4 1_555 1_555
C6_4 C2_4 1_555 1_555
H3_4 C6_4 1_555 1_555
O8_2 Co3_2 1_555 1_555
O9_2 Co2_2 1_555 1_555
C10_2 C12_2 1_555 1_555
C11_2 C12_2 1_555 1_555
C12_2 H6_2 1_555 1_555
C13_2 O8_2 1_555 1_555
C14_2 C10_2 1_555 1_555
H7_2 C14_2 1_555 1_555
C15_2 C14_2 1_555 1_555
H8_2 C15_2 1_555 1_555
C16_2 C11_2 1_555 1_555
H9_2 C16_2 1_555 1_555
O10_2 Co2_2 1_555 1_555
H10_2 O10_2 1_555 1_555
H11_2 O10_2 1_555 1_555
Co4_2 O11_2 1_555 1_555
Co5_2 O12_2 1_555 1_555
Co9_2 O27_2 1_555 1_555
Co11_2 O17_3 1_555 1_555
Co12_2 O11_2 1_555 1_555
Co13_2 O8_2 1_555 1_555
Co15_2 O32_2 1_555 1_555
Co17_3 O13_3 1_555 1_555
Co18_2 O14_2 1_555 1_555
O11_2 Co3_2 1_555 1_555
O12_2 Co3_2 1_555 1_555
H12_2 O11_2 1_555 1_555
H13_2 O12_2 1_555 1_555
O13_3 C17_3 1_555 1_555
O14_2 C18_2 1_555 1_555
O15_2 Co12_2 1_555 1_555
O16_2 Co13_2 1_555 1_555
O17_3 C17_3 1_555 1_555
O18_2 Co7_2 1_555 1_555
O19_2 Co4_2 1_555 1_555
O20_2 Co5_2 1_555 1_555
O21_2 Co1_2 1_555 1_555
O22_2 Co5_2 1_555 1_555
O23_2 Co4_2 1_555 1_555
O24_2 Co4_2 1_555 1_555
O25_2 Co1_2 1_555 1_555
O26_2 Co5_2 1_555 1_555
C17_3 C19_3 1_555 1_555
C18_2 O18_2 1_555 1_555
C19_3 C23_3 1_555 1_555
C20_2 C18_2 1_555 1_555
C21_3 C23_3 1_555 1_555
C22_2 C24_2 1_555 1_555
C23_3 H14_3 1_555 1_555
C24_2 C20_2 1_555 1_555
H15_2 C24_2 1_555 1_555
C25_3 O21_2 1_555 1_555
C26_2 O22_2 1_555 1_555
C27_3 C19_3 1_555 1_555
C28_2 C20_2 1_555 1_555
H16_3 C27_3 1_555 1_555
H17_2 C28_2 1_555 1_555
C29_3 C27_3 1_555 1_555
C30_2 C28_2 1_555 1_555
H18_3 C29_3 1_555 1_555
H19_2 C30_2 1_555 1_555
C31_3 C21_3 1_555 1_555
C32_2 C22_2 1_555 1_555
H20_3 C31_3 1_555 1_555
H21_2 C32_2 1_555 1_555
O27_2 C33_2 1_555 1_555
O29_2 Co1_2 1_555 1_555
O30_2 Co4_2 1_555 1_555
O31_2 Co5_2 1_555 1_555
O32_2 C33_2 1_555 1_555
O34_2 Co2_2 1_555 1_555
O35_2 Co12_2 1_555 1_555
O36_2 Co13_2 1_555 1_555
O37_2 Co2_2 1_555 1_555
O38_2 Co3_2 1_555 1_555
O39_2 Co12_2 1_555 1_555
O40_2 Co13_2 1_555 1_555
C33_2 C35_2 1_555 1_555
C35_2 C39_2 1_555 1_555
C36_2 C40_2 1_555 1_555
C37_2 C39_2 1_555 1_555
C38_2 C40_2 1_555 1_555
C39_2 H22_2 1_555 1_555
C40_2 H23_2 1_555 1_555
C41_2 O37_2 1_555 1_555
C42_2 O38_2 1_555 1_555
C43_2 C35_2 1_555 1_555
C44_2 C36_2 1_555 1_555
H24_2 C43_2 1_555 1_555
H25_2 C44_2 1_555 1_555
C45_2 C43_2 1_555 1_555
C46_2 C44_2 1_555 1_555
H26_2 C45_2 1_555 1_555
H27_2 C46_2 1_555 1_555
C47_2 C37_2 1_555 1_555
C48_2 C38_2 1_555 1_555
H28_2 C47_2 1_555 1_555
H29_2 C48_2 1_555 1_555
O41_2 Co12_2 1_555 1_555
O42_2 Co13_2 1_555 1_555
H30_2 O41_2 1_555 1_555
H31_2 O42_2 1_555 1_555
H32_2 O41_2 1_555 1_555
H33_2 O42_2 1_555 1_555
Co3_2 O37_2 1_555 1_555
O3_2 C1_4 1_555 1_555
O9_2 C13_2 1_555 1_555
C11_2 C13_2 1_555 1_555
C15_2 C16_2 1_555 1_555
Co12_2 O38_2 1_555 1_555
Co13_2 O12_2 1_555 1_555
O24_2 C25_3 1_555 1_555
O25_2 C26_2 1_555 1_555
C21_3 C25_3 1_555 1_555
C22_2 C26_2 1_555 1_555
C29_3 C31_3 1_555 1_555
C30_2 C32_2 1_555 1_555
O39_2 C41_2 1_555 1_555
O40_2 C42_2 1_555 1_555
C37_2 C41_2 1_555 1_555
C38_2 C42_2 1_555 1_555
C45_2 C47_2 1_555 1_555
C46_2 C48_2 1_555 1_555
O4_4 C5_4 1_555 1_555
O5_4 C5_4 1_555 1_555
C5_4 C3_4 1_555 1_555
H4_4 C7_4 1_555 1_555
C8_4 C3_4 1_555 1_555
H5_4 C8_4 1_555 1_555
O6_2 C9_2 1_555 1_555
O7_2 C9_2 1_555 1_555
Co8_2 O6_2 1_555 1_555
Co14_2 O7_2 1_555 1_555
C7_4 C8_4 1_555 1_555
Co7_2 O11_3 1_555 1_555
Co10_3 O28_3 1_555 1_555
Co18_2 O11_3 1_555 1_555
Co16_3 O33_3 1_555 1_555
O11_3 Co3_3 1_555 1_555
H12_3 O11_3 1_555 1_555
O23_3 Co7_2 1_555 1_555
O28_3 C34_3 1_555 1_555
O30_3 Co7_2 1_555 1_555
O33_3 C34_3 1_555 1_555
O35_3 Co18_2 1_555 1_555
O38_3 Co3_3 1_555 1_555
C34_3 C36_3 1_555 1_555
C36_3 C40_3 1_555 1_555
C38_3 C40_3 1_555 1_555
C40_3 H23_3 1_555 1_555
C42_3 O38_3 1_555 1_555
C44_3 C36_3 1_555 1_555
H25_3 C44_3 1_555 1_555
C46_3 C44_3 1_555 1_555
H27_3 C46_3 1_555 1_555
C48_3 C38_3 1_555 1_555
H29_3 C48_3 1_555 1_555
O41_3 Co18_2 1_555 1_555
H30_3 O41_3 1_555 1_555
H32_3 O41_3 1_555 1_555
Co18_2 O38_3 1_555 1_555
O40_3 C42_3 1_555 1_555
C38_3 C42_3 1_555 1_555
C46_3 C48_3 1_555 1_555
Co9_3 O27_3 1_555 1_555
Co15_3 O32_3 1_555 1_555
O27_3 C33_3 1_555 1_555
O32_3 C33_3 1_555 1_555
C33_3 C35_3 1_555 1_555
C35_3 C39_3 1_555 1_555
C37_3 C39_3 1_555 1_555
C39_3 H22_3 1_555 1_555
C41_3 O37_3 1_555 1_555
C43_3 C35_3 1_555 1_555
H24_3 C43_3 1_555 1_555
C45_3 C43_3 1_555 1_555
C47_3 C37_3 1_555 1_555
Co3_4 O37_3 1_555 1_555
O39_3 C41_3 1_555 1_555
C37_3 C41_3 1_555 1_555
C45_3 C47_3 1_555 1_555
Co5_3 O12_3 1_555 1_555
O12_3 Co3_5 1_555 1_555
H13_3 O12_3 1_555 1_555
O16_3 Co13_3 1_555 1_555
O20_3 Co5_3 1_555 1_555
O42_3 Co13_3 1_555 1_555
H31_3 O42_3 1_555 1_555
H33_3 O42_3 1_555 1_555
Co13_3 O12_3 1_555 1_555
Co11_2 O1_3 1_555 1_555
Co17_3 O1_3 1_555 1_555
Co3_6 O1_3 1_555 1_555
O1_3 H1_3 1_555 1_555
O6_3 C9_3 1_555 1_555
O7_3 C9_3 1_555 1_555
O8_3 Co3_6 1_555 1_555
O9_3 Co17_3 1_555 1_555
C9_3 C10_3 1_555 1_555
C10_3 C12_3 1_555 1_555
C11_3 C12_3 1_555 1_555
C12_3 H6_3 1_555 1_555
C13_3 O8_3 1_555 1_555
C14_3 C10_3 1_555 1_555
H7_3 C14_3 1_555 1_555
C15_3 C14_3 1_555 1_555
C16_3 C11_3 1_555 1_555
O10_3 Co17_3 1_555 1_555
H10_3 O10_3 1_555 1_555
H11_3 O10_3 1_555 1_555
Co8_3 O6_3 1_555 1_555
Co14_3 O7_3 1_555 1_555
O15_2 C18_3 1_555 1_555
O25_3 Co11_2 1_555 1_555
C18_3 O19_2 1_555 1_555
C20_3 C18_3 1_555 1_555
C22_3 C24_3 1_555 1_555
C24_3 C20_3 1_555 1_555
H15_3 C24_3 1_555 1_555
C26_3 O22_3 1_555 1_555
C28_3 C20_3 1_555 1_555
H17_3 C28_3 1_555 1_555
C30_3 C28_3 1_555 1_555
H19_3 C30_3 1_555 1_555
C32_3 C22_3 1_555 1_555
H21_3 C32_3 1_555 1_555
O9_3 C13_3 1_555 1_555
C11_3 C13_3 1_555 1_555
C15_3 C16_3 1_555 1_555
O25_3 C26_3 1_555 1_555
C22_3 C26_3 1_555 1_555
C30_3 C32_3 1_555 1_555
C25_4 O23_3 1_555 1_555
H18_4 C29_4 1_555 1_555
C31_4 C21_4 1_555 1_555
H20_4 C31_4 1_555 1_555
O26_3 C25_4 1_555 1_555
C21_4 C25_4 1_555 1_555
C29_4 C31_4 1_555 1_555
O16_2 C17_4 1_555 1_555
O20_2 C17_4 1_555 1_555
C17_4 C19_4 1_555 1_555
C19_4 C23_4 1_555 1_555
C23_4 H14_4 1_555 1_555
C27_4 C19_4 1_555 1_555
H16_4 C27_4 1_555 1_555
O23_2 C5_5 1_555 1_555
O26_2 C5_5 1_555 1_555
C1_5 O16_3 1_555 1_555
C2_5 C1_5 1_555 1_555
C3_5 C4_5 1_555 1_555
C4_5 C2_5 1_555 1_555
H2_5 C4_5 1_555 1_555
C5_5 C3_5 1_555 1_555
C6_5 C2_5 1_555 1_555
H3_5 C6_5 1_555 1_555
C7_5 C6_5 1_555 1_555
H4_5 C7_5 1_555 1_555
C8_5 C3_5 1_555 1_555
H5_5 C8_5 1_555 1_555
O20_3 C1_5 1_555 1_555
C7_5 C8_5 1_555 1_555
Co11_3 O17_4 1_555 1_555
Co17_4 O13_4 1_555 1_555
O13_4 C17_5 1_555 1_555
O17_4 C17_5 1_555 1_555
Co1_3 O1_4 1_555 1_555
Co2_3 O1_4 1_555 1_555
Co3_7 O1_4 1_555 1_555
O1_4 H1_4 1_555 1_555
O2_3 Co2_3 1_555 1_555
O3_3 Co1_3 1_555 1_555
C1_6 O2_3 1_555 1_555
O6_4 C9_4 1_555 1_555
O7_4 C9_4 1_555 1_555
O8_4 Co3_7 1_555 1_555
O9_4 Co2_3 1_555 1_555
C9_4 C10_4 1_555 1_555
C10_4 C12_4 1_555 1_555
C11_4 C12_4 1_555 1_555
C12_4 H6_4 1_555 1_555
C13_4 O8_4 1_555 1_555
C14_4 C10_4 1_555 1_555
H7_4 C14_4 1_555 1_555
C15_4 C14_4 1_555 1_555
H8_4 C15_4 1_555 1_555
C16_4 C11_4 1_555 1_555
H9_4 C16_4 1_555 1_555
O10_4 Co2_3 1_555 1_555
Co4_3 O11_4 1_555 1_555
Co5_4 O12_4 1_555 1_555
Co10_4 O28_4 1_555 1_555
Co12_3 O11_4 1_555 1_555
Co13_4 O8_4 1_555 1_555
Co16_4 O33_4 1_555 1_555
O11_4 Co3_7 1_555 1_555
O12_4 Co3_7 1_555 1_555
H12_4 O11_4 1_555 1_555
H13_4 O12_4 1_555 1_555
O15_3 Co12_3 1_555 1_555
O16_4 Co13_4 1_555 1_555
O19_3 Co4_3 1_555 1_555
O20_4 Co5_4 1_555 1_555
O21_3 Co1_3 1_555 1_555
O22_4 Co5_4 1_555 1_555
O23_4 Co4_3 1_555 1_555
O24_3 Co4_3 1_555 1_555
O25_4 Co1_3 1_555 1_555
O26_4 Co5_4 1_555 1_555
C19_5 C23_5 1_555 1_555
C21_5 C23_5 1_555 1_555
C22_4 C24_4 1_555 1_555
C23_5 H14_5 1_555 1_555
C24_4 C20_4 1_555 1_555
H15_4 C24_4 1_555 1_555
C25_5 O21_3 1_555 1_555
C26_4 O22_4 1_555 1_555
C27_5 C19_5 1_555 1_555
C28_4 C20_4 1_555 1_555
H16_5 C27_5 1_555 1_555
H17_4 C28_4 1_555 1_555
C29_5 C27_5 1_555 1_555
C30_4 C28_4 1_555 1_555
H18_5 C29_5 1_555 1_555
H19_4 C30_4 1_555 1_555
C31_5 C21_5 1_555 1_555
C32_4 C22_4 1_555 1_555
H20_5 C31_5 1_555 1_555
H21_4 C32_4 1_555 1_555
O27_4 C33_4 1_555 1_555
O28_4 C34_4 1_555 1_555
O29_4 Co1_3 1_555 1_555
O30_4 Co4_3 1_555 1_555
O31_4 Co5_4 1_555 1_555
O32_4 C33_4 1_555 1_555
O33_4 C34_4 1_555 1_555
O34_4 Co2_3 1_555 1_555
O35_4 Co12_3 1_555 1_555
O36_4 Co13_4 1_555 1_555
O37_4 Co2_3 1_555 1_555
O38_4 Co3_7 1_555 1_555
O39_4 Co12_3 1_555 1_555
O40_4 Co13_4 1_555 1_555
C33_4 C35_4 1_555 1_555
C34_4 C36_4 1_555 1_555
C35_4 C39_4 1_555 1_555
C36_4 C40_4 1_555 1_555
C37_4 C39_4 1_555 1_555
C38_4 C40_4 1_555 1_555
C39_4 H22_4 1_555 1_555
C40_4 H23_4 1_555 1_555
C41_4 O37_4 1_555 1_555
C42_4 O38_4 1_555 1_555
C43_4 C35_4 1_555 1_555
C44_4 C36_4 1_555 1_555
H24_4 C43_4 1_555 1_555
H25_4 C44_4 1_555 1_555
C45_4 C43_4 1_555 1_555
C46_4 C44_4 1_555 1_555
H26_4 C45_4 1_555 1_555
H27_4 C46_4 1_555 1_555
C47_4 C37_4 1_555 1_555
C48_4 C38_4 1_555 1_555
H28_4 C47_4 1_555 1_555
H29_4 C48_4 1_555 1_555
O41_4 Co12_3 1_555 1_555
O42_4 Co13_4 1_555 1_555
H31_4 O42_4 1_555 1_555
H33_4 O42_4 1_555 1_555
Co3_7 O37_4 1_555 1_555
O3_3 C1_6 1_555 1_555
O9_4 C13_4 1_555 1_555
C11_4 C13_4 1_555 1_555
C15_4 C16_4 1_555 1_555
Co12_3 O38_4 1_555 1_555
Co13_4 O12_4 1_555 1_555
O24_3 C25_5 1_555 1_555
O25_4 C26_4 1_555 1_555
C21_5 C25_5 1_555 1_555
C22_4 C26_4 1_555 1_555
C29_5 C31_5 1_555 1_555
C30_4 C32_4 1_555 1_555
O39_4 C41_4 1_555 1_555
O40_4 C42_4 1_555 1_555
C37_4 C41_4 1_555 1_555
C38_4 C42_4 1_555 1_555
C45_4 C47_4 1_555 1_555
C46_4 C48_4 1_555 1_555
O4_5 C5_6 1_555 1_555
O5_5 C5_6 1_555 1_555
C3_6 C4_6 1_555 1_555
C4_6 C2_6 1_555 1_555
H2_6 C4_6 1_555 1_555
C5_6 C3_6 1_555 1_555
C6_6 C2_6 1_555 1_555
H3_6 C6_6 1_555 1_555
C7_6 C6_6 1_555 1_555
H4_6 C7_6 1_555 1_555
C8_6 C3_6 1_555 1_555
H5_6 C8_6 1_555 1_555
Co11_3 O4_5 1_555 1_555
Co7_3 O5_5 1_555 1_555
Co18_3 O14_3 1_555 1_555
O14_3 C18_4 1_555 1_555
O18_3 Co7_3 1_555 1_555
C18_4 O18_3 1_555 1_555
C7_6 C8_6 1_555 1_555
Co11_3 O1_5 1_555 1_555
Co17_4 O1_5 1_555 1_555
Co3_8 O1_5 1_555 1_555
O1_5 H1_5 1_555 1_555
O6_5 C9_5 1_555 1_555
O7_5 C9_5 1_555 1_555
O8_5 Co3_8 1_555 1_555
O9_5 Co17_4 1_555 1_555
C9_5 C10_5 1_555 1_555
C10_5 C12_5 1_555 1_555
C11_5 C12_5 1_555 1_555
C12_5 H6_5 1_555 1_555
C13_5 O8_5 1_555 1_555
C14_5 C10_5 1_555 1_555
H7_5 C14_5 1_555 1_555
C15_5 C14_5 1_555 1_555
H8_5 C15_5 1_555 1_555
C16_5 C11_5 1_555 1_555
H9_5 C16_5 1_555 1_555
O10_5 Co17_4 1_555 1_555
Co7_3 O11_5 1_555 1_555
Co5_5 O12_5 1_555 1_555
Co10_5 O28_5 1_555 1_555
Co18_3 O11_5 1_555 1_555
Co13_5 O8_5 1_555 1_555
Co16_5 O33_5 1_555 1_555
O11_5 Co3_8 1_555 1_555
O12_5 Co3_8 1_555 1_555
H12_5 O11_5 1_555 1_555
H13_5 O12_5 1_555 1_555
O16_5 Co13_5 1_555 1_555
O20_5 Co5_5 1_555 1_555
O22_5 Co5_5 1_555 1_555
O23_5 Co7_3 1_555 1_555
O25_5 Co11_3 1_555 1_555
O26_5 Co5_5 1_555 1_555
C22_5 C24_5 1_555 1_555
C24_5 C20_5 1_555 1_555
H15_5 C24_5 1_555 1_555
C26_5 O22_5 1_555 1_555
C28_5 C20_5 1_555 1_555
H17_5 C28_5 1_555 1_555
C30_5 C28_5 1_555 1_555
H19_5 C30_5 1_555 1_555
C32_5 C22_5 1_555 1_555
H21_5 C32_5 1_555 1_555
O27_5 C33_5 1_555 1_555
O28_5 C34_5 1_555 1_555
O29_5 Co11_3 1_555 1_555
O30_5 Co7_3 1_555 1_555
O31_5 Co5_5 1_555 1_555
O32_5 C33_5 1_555 1_555
O33_5 C34_5 1_555 1_555
O34_5 Co17_4 1_555 1_555
O35_5 Co18_3 1_555 1_555
O36_5 Co13_5 1_555 1_555
O37_5 Co17_4 1_555 1_555
O38_5 Co3_8 1_555 1_555
O39_5 Co18_3 1_555 1_555
O40_5 Co13_5 1_555 1_555
C33_5 C35_5 1_555 1_555
C34_5 C36_5 1_555 1_555
C35_5 C39_5 1_555 1_555
C36_5 C40_5 1_555 1_555
C37_5 C39_5 1_555 1_555
C38_5 C40_5 1_555 1_555
C39_5 H22_5 1_555 1_555
C40_5 H23_5 1_555 1_555
C41_5 O37_5 1_555 1_555
C42_5 O38_5 1_555 1_555
C43_5 C35_5 1_555 1_555
C44_5 C36_5 1_555 1_555
H24_5 C43_5 1_555 1_555
H25_5 C44_5 1_555 1_555
C45_5 C43_5 1_555 1_555
C46_5 C44_5 1_555 1_555
H26_5 C45_5 1_555 1_555
H27_5 C46_5 1_555 1_555
C47_5 C37_5 1_555 1_555
C48_5 C38_5 1_555 1_555
H28_5 C47_5 1_555 1_555
H29_5 C48_5 1_555 1_555
O41_5 Co18_3 1_555 1_555
O42_5 Co13_5 1_555 1_555
H31_5 O42_5 1_555 1_555
H33_5 O42_5 1_555 1_555
Co3_8 O37_5 1_555 1_555
O9_5 C13_5 1_555 1_555
C11_5 C13_5 1_555 1_555
C15_5 C16_5 1_555 1_555
Co18_3 O38_5 1_555 1_555
Co13_5 O12_5 1_555 1_555
O25_5 C26_5 1_555 1_555
C22_5 C26_5 1_555 1_555
C30_5 C32_5 1_555 1_555
O39_5 C41_5 1_555 1_555
O40_5 C42_5 1_555 1_555
C37_5 C41_5 1_555 1_555
C38_5 C42_5 1_555 1_555
C45_5 C47_5 1_555 1_555
C46_5 C48_5 1_555 1_555
O15_3 C18_5 1_555 1_555
C18_5 O19_3 1_555 1_555
Co7 O11_6 1_555 1_555
Co10_6 O28_6 1_555 1_555
Co18 O11_6 1_555 1_555
Co16_6 O33_6 1_555 1_555
O11_6 Co3_9 1_555 1_555
H12_6 O11_6 1_555 1_555
O28_6 C34_6 1_555 1_555
O30_6 Co7 1_555 1_555
O33_6 C34_6 1_555 1_555
O35_6 Co18 1_555 1_555
O38_6 Co3_9 1_555 1_555
C34_6 C36_6 1_555 1_555
C36_6 C40_6 1_555 1_555
C38_6 C40_6 1_555 1_555
C40_6 H23_6 1_555 1_555
C42_6 O38_6 1_555 1_555
C44_6 C36_6 1_555 1_555
H25_6 C44_6 1_555 1_555
C46_6 C44_6 1_555 1_555
H27_6 C46_6 1_555 1_555
C48_6 C38_6 1_555 1_555
H29_6 C48_6 1_555 1_555
O41_6 Co18 1_555 1_555
H30_6 O41_6 1_555 1_555
H32_6 O41_6 1_555 1_555
Co18 O38_6 1_555 1_555
O40_6 C42_6 1_555 1_555
C38_6 C42_6 1_555 1_555
C46_6 C48_6 1_555 1_555
Co6 O12_6 1_555 1_555
O12_6 Co3_10 1_555 1_555
H13_6 O12_6 1_555 1_555
O42_6 Co17_2 1_555 1_555
H31_6 O42_6 1_555 1_555
H33_6 O42_6 1_555 1_555
Co17_2 O12_6 1_555 1_555
Co9_6 O27_6 1_555 1_555
Co15_6 O32_6 1_555 1_555
O27_6 C33_6 1_555 1_555
O32_6 C33_6 1_555 1_555
C33_6 C35_6 1_555 1_555
C35_6 C39_6 1_555 1_555
C37_6 C39_6 1_555 1_555
C39_6 H22_6 1_555 1_555
C41_6 O37_6 1_555 1_555
C43_6 C35_6 1_555 1_555
H24_6 C43_6 1_555 1_555
C45_6 C43_6 1_555 1_555
C47_6 C37_6 1_555 1_555
Co3_11 O37_6 1_555 1_555
O39_6 C41_6 1_555 1_555
C37_6 C41_6 1_555 1_555
C45_6 C47_6 1_555 1_555
Co11 O1_6 1_555 1_555
Co17 O1_6 1_555 1_555
Co3_12 O1_6 1_555 1_555
O1_6 H1_6 1_555 1_555
O6_6 C9_6 1_555 1_555
O7_6 C9_6 1_555 1_555
O8_6 Co3_12 1_555 1_555
O9_6 Co17 1_555 1_555
C9_6 C10_6 1_555 1_555
C10_6 C12_6 1_555 1_555
C11_6 C12_6 1_555 1_555
C12_6 H6_6 1_555 1_555
C13_6 O8_6 1_555 1_555
C14_6 C10_6 1_555 1_555
H7_6 C14_6 1_555 1_555
C15_6 C14_6 1_555 1_555
C16_6 C11_6 1_555 1_555
O10_6 Co17 1_555 1_555
H10_6 O10_6 1_555 1_555
H11_6 O10_6 1_555 1_555
Co8_6 O6_6 1_555 1_555
Co14_6 O7_6 1_555 1_555
O9_6 C13_6 1_555 1_555
C11_6 C13_6 1_555 1_555
C15_6 C16_6 1_555 1_555
O16_4 C17_6 1_555 1_555
O20_4 C17_6 1_555 1_555
C17_6 C19_6 1_555 1_555
C19_6 C23_6 1_555 1_555
C21_6 C23_6 1_555 1_555
C23_6 H14_6 1_555 1_555
C25_6 O23_5 1_555 1_555
C27_6 C19_6 1_555 1_555
H16_6 C27_6 1_555 1_555
C29_6 C27_6 1_555 1_555
H18_6 C29_6 1_555 1_555
C31_6 C21_6 1_555 1_555
H20_6 C31_6 1_555 1_555
O26_5 C25_6 1_555 1_555
C21_6 C25_6 1_555 1_555
C29_6 C31_6 1_555 1_555
O23_4 C5_7 1_555 1_555
O26_4 C5_7 1_555 1_555
C1_7 O16_5 1_555 1_555
C2_7 C1_7 1_555 1_555
C3_7 C4_7 1_555 1_555
C4_7 C2_7 1_555 1_555
H2_7 C4_7 1_555 1_555
C5_7 C3_7 1_555 1_555
C6_7 C2_7 1_555 1_555
H3_7 C6_7 1_555 1_555
C7_7 C6_7 1_555 1_555
H4_7 C7_7 1_555 1_555
C8_7 C3_7 1_555 1_555
H5_7 C8_7 1_555 1_555
O20_5 C1_7 1_555 1_555
C7_7 C8_7 1_555 1_555
O31 C9_7 1_555 1_555
O36 C9_7 1_555 1_555
O4_6 C5_8 1_555 1_555
O5_6 C5_8 1_555 1_555
C5_8 C3_8 1_555 1_555
H4_8 C7_8 1_555 1_555
C8_8 C3_8 1_555 1_555
H5_8 C8_8 1_555 1_555
C7_8 C8_8 1_555 1_555
C10_7 C12_7 1_555 1_555
C11_7 C12_7 1_555 1_555
C12_7 H6_7 1_555 1_555
C14_7 C10_7 1_555 1_555
H7_7 C14_7 1_555 1_555
C15_7 C14_7 1_555 1_555
H8_7 C15_7 1_555 1_555
C16_7 C11_7 1_555 1_555
H9_7 C16_7 1_555 1_555
O29 C33_7 1_555 1_555
O34 C33_7 1_555 1_555
C33_7 C35_7 1_555 1_555
C35_7 C39_7 1_555 1_555
C36_7 C40_7 1_555 1_555
C37_7 C39_7 1_555 1_555
C38_7 C40_7 1_555 1_555
C39_7 H22_7 1_555 1_555
C40_7 H23_7 1_555 1_555
C43_7 C35_7 1_555 1_555
C44_7 C36_7 1_555 1_555
H24_7 C43_7 1_555 1_555
H25_7 C44_7 1_555 1_555
C45_7 C43_7 1_555 1_555
C46_7 C44_7 1_555 1_555
H26_7 C45_7 1_555 1_555
H27_7 C46_7 1_555 1_555
C47_7 C37_7 1_555 1_555
C48_7 C38_7 1_555 1_555
H28_7 C47_7 1_555 1_555
H29_7 C48_7 1_555 1_555
C15_7 C16_7 1_555 1_555
C45_7 C47_7 1_555 1_555
C46_7 C48_7 1_555 1_555
Co9 O1_7 1_555 1_555
Co15 O1_7 1_555 1_555
Co3_13 O1_7 1_555 1_555
O1_7 H1_7 1_555 1_555
O2_4 Co15 1_555 1_555
O3_4 Co9 1_555 1_555
C1_8 O2_4 1_555 1_555
C2_8 C1_8 1_555 1_555
C4_8 C2_8 1_555 1_555
H2_8 C4_8 1_555 1_555
C6_8 C2_8 1_555 1_555
H3_8 C6_8 1_555 1_555
O8_7 Co3_13 1_555 1_555
O9_7 Co15 1_555 1_555
C13_7 O8_7 1_555 1_555
O10_7 Co15 1_555 1_555
H10_7 O10_7 1_555 1_555
Co10 O11_7 1_555 1_555
Co8 O12_7 1_555 1_555
Co9_4 O17_5 1_555 1_555
Co16 O11_7 1_555 1_555
Co14 O8_7 1_555 1_555
Co15_4 O13_5 1_555 1_555
Co16_4 O14_4 1_555 1_555
O11_7 Co3_13 1_555 1_555
O12_7 Co3_13 1_555 1_555
H12_7 O11_7 1_555 1_555
H13_7 O12_7 1_555 1_555
O13_5 C17_7 1_555 1_555
O14_4 C18_6 1_555 1_555
O15_4 Co16 1_555 1_555
O16_6 Co14 1_555 1_555
O17_5 C17_7 1_555 1_555
O18_4 Co10_4 1_555 1_555
O19_4 Co10 1_555 1_555
O20_6 Co8 1_555 1_555
O21_4 Co9 1_555 1_555
O22_6 Co8 1_555 1_555
O23_6 Co10 1_555 1_555
O24_4 Co10 1_555 1_555
O25_6 Co9 1_555 1_555
O26_6 Co8 1_555 1_555
C17_7 C19_7 1_555 1_555
C18_6 O18_4 1_555 1_555
C19_7 C23_7 1_555 1_555
C20_6 C18_6 1_555 1_555
C21_7 C23_7 1_555 1_555
C22_6 C24_6 1_555 1_555
C23_7 H14_7 1_555 1_555
C24_6 C20_6 1_555 1_555
H15_6 C24_6 1_555 1_555
C25_7 O21_4 1_555 1_555
C26_6 O22_6 1_555 1_555
C27_7 C19_7 1_555 1_555
C28_6 C20_6 1_555 1_555
H16_7 C27_7 1_555 1_555
H17_6 C28_6 1_555 1_555
C29_7 C27_7 1_555 1_555
C30_6 C28_6 1_555 1_555
H18_7 C29_7 1_555 1_555
H19_6 C30_6 1_555 1_555
C31_7 C21_7 1_555 1_555
C32_6 C22_6 1_555 1_555
H20_7 C31_7 1_555 1_555
H21_6 C32_6 1_555 1_555
O37_7 Co15 1_555 1_555
O38_7 Co3_13 1_555 1_555
O39_7 Co16 1_555 1_555
O40_7 Co14 1_555 1_555
C41_7 O37_7 1_555 1_555
C42_7 O38_7 1_555 1_555
O41_7 Co16 1_555 1_555
O42_7 Co14 1_555 1_555
H30_7 O41_7 1_555 1_555
H31_7 O42_7 1_555 1_555
Co3_13 O37_7 1_555 1_555
O3_4 C1_8 1_555 1_555
O9_7 C13_7 1_555 1_555
Co16 O38_7 1_555 1_555
Co14 O12_7 1_555 1_555
O24_4 C25_7 1_555 1_555
O25_6 C26_6 1_555 1_555
C21_7 C25_7 1_555 1_555
C22_6 C26_6 1_555 1_555
C29_7 C31_7 1_555 1_555
C30_6 C32_6 1_555 1_555
O39_7 C41_7 1_555 1_555
O40_7 C42_7 1_555 1_555
O30 C34_7 1_555 1_555
O35 C34_7 1_555 1_555
O4_7 C5_9 1_555 1_555
O5_7 C5_9 1_555 1_555
C1_9 O15_4 1_555 1_555
C2_9 C1_9 1_555 1_555
C3_9 C4_9 1_555 1_555
C4_9 C2_9 1_555 1_555
H2_9 C4_9 1_555 1_555
C5_9 C3_9 1_555 1_555
C6_9 C2_9 1_555 1_555
H3_9 C6_9 1_555 1_555
C7_9 C6_9 1_555 1_555
H4_9 C7_9 1_555 1_555
C8_9 C3_9 1_555 1_555
H5_9 C8_9 1_555 1_555
Co9_4 O5_7 1_555 1_555
Co8_4 O17_6 1_555 1_555
Co14_4 O13_6 1_555 1_555
O13_6 C17_8 1_555 1_555
O17_6 C17_8 1_555 1_555
C17_8 C19_8 1_555 1_555
C19_8 C23_8 1_555 1_555
C21_8 C23_8 1_555 1_555
C23_8 H14_8 1_555 1_555
C25_8 O23_6 1_555 1_555
C27_8 C19_8 1_555 1_555
H16_8 C27_8 1_555 1_555
C29_8 C27_8 1_555 1_555
H18_8 C29_8 1_555 1_555
C31_8 C21_8 1_555 1_555
H20_8 C31_8 1_555 1_555
O19_4 C1_9 1_555 1_555
C7_9 C8_9 1_555 1_555
O26_6 C25_8 1_555 1_555
C21_8 C25_8 1_555 1_555
C29_8 C31_8 1_555 1_555
C1_10 O16_6 1_555 1_555
C2_10 C1_10 1_555 1_555
C4_10 C2_10 1_555 1_555
H2_10 C4_10 1_555 1_555
C6_10 C2_10 1_555 1_555
H3_10 C6_10 1_555 1_555
O20_6 C1_10 1_555 1_555
O4_8 C5_10 1_555 1_555
O5_8 C5_10 1_555 1_555
C5_10 C3_10 1_555 1_555
H4_10 C7_10 1_555 1_555
C8_10 C3_10 1_555 1_555
H5_10 C8_10 1_555 1_555
Co10_4 O4_8 1_555 1_555
C7_10 C8_10 1_555 1_555
O4_9 C5_11 1_555 1_555
O5_9 C5_11 1_555 1_555
C5_11 C3_11 1_555 1_555
H4_11 C7_11 1_555 1_555
C8_11 C3_11 1_555 1_555
H5_11 C8_11 1_555 1_555
O31_2 C9_8 1_555 1_555
O36_2 C9_8 1_555 1_555
C7_11 C8_11 1_555 1_555
Co9_2 O1_8 1_555 1_555
Co15_2 O1_8 1_555 1_555
Co3_14 O1_8 1_555 1_555
O1_8 H1_8 1_555 1_555
O2_5 Co15_2 1_555 1_555
O3_5 Co9_2 1_555 1_555
C1_11 O2_5 1_555 1_555
C2_11 C1_11 1_555 1_555
C4_11 C2_11 1_555 1_555
H2_11 C4_11 1_555 1_555
C6_11 C2_11 1_555 1_555
H3_11 C6_11 1_555 1_555
O8_8 Co3_14 1_555 1_555
O9_8 Co15_2 1_555 1_555
C10_8 C12_8 1_555 1_555
C11_8 C12_8 1_555 1_555
C12_8 H6_8 1_555 1_555
C13_8 O8_8 1_555 1_555
C14_8 C10_8 1_555 1_555
H7_8 C14_8 1_555 1_555
C15_8 C14_8 1_555 1_555
H8_8 C15_8 1_555 1_555
C16_8 C11_8 1_555 1_555
H9_8 C16_8 1_555 1_555
O10_8 Co15_2 1_555 1_555
H10_8 O10_8 1_555 1_555
H11_8 O10_8 1_555 1_555
Co10_2 O11_8 1_555 1_555
Co8_2 O12_8 1_555 1_555
Co9_5 O17_7 1_555 1_555
Co16_2 O11_8 1_555 1_555
Co14_2 O8_8 1_555 1_555
Co15_5 O13_7 1_555 1_555
Co16_5 O14_5 1_555 1_555
O11_8 Co3_14 1_555 1_555
O12_8 Co3_14 1_555 1_555
H12_8 O11_8 1_555 1_555
H13_8 O12_8 1_555 1_555
O13_7 C17_9 1_555 1_555
O14_5 C18_7 1_555 1_555
O15_5 Co16_2 1_555 1_555
O16_7 Co14_2 1_555 1_555
O17_7 C17_9 1_555 1_555
O18_5 Co10_5 1_555 1_555
O19_5 Co10_2 1_555 1_555
O20_7 Co8_2 1_555 1_555
O21_5 Co9_2 1_555 1_555
O22_7 Co8_2 1_555 1_555
O23_7 Co10_2 1_555 1_555
O24_5 Co10_2 1_555 1_555
O25_7 Co9_2 1_555 1_555
O26_7 Co8_2 1_555 1_555
C17_9 C19_9 1_555 1_555
C18_7 O18_5 1_555 1_555
C19_9 C23_9 1_555 1_555
C20_7 C18_7 1_555 1_555
C21_9 C23_9 1_555 1_555
C22_7 C24_7 1_555 1_555
C23_9 H14_9 1_555 1_555
C24_7 C20_7 1_555 1_555
H15_7 C24_7 1_555 1_555
C25_9 O21_5 1_555 1_555
C26_7 O22_7 1_555 1_555
C27_9 C19_9 1_555 1_555
C28_7 C20_7 1_555 1_555
H16_9 C27_9 1_555 1_555
H17_7 C28_7 1_555 1_555
C29_9 C27_9 1_555 1_555
C30_7 C28_7 1_555 1_555
H18_9 C29_9 1_555 1_555
H19_7 C30_7 1_555 1_555
C31_9 C21_9 1_555 1_555
C32_7 C22_7 1_555 1_555
H20_9 C31_9 1_555 1_555
H21_7 C32_7 1_555 1_555
O29_2 C33_8 1_555 1_555
O34_2 C33_8 1_555 1_555
O37_8 Co15_2 1_555 1_555
O38_8 Co3_14 1_555 1_555
O39_8 Co16_2 1_555 1_555
O40_8 Co14_2 1_555 1_555
C33_8 C35_8 1_555 1_555
C35_8 C39_8 1_555 1_555
C36_8 C40_8 1_555 1_555
C37_8 C39_8 1_555 1_555
C38_8 C40_8 1_555 1_555
C39_8 H22_8 1_555 1_555
C40_8 H23_8 1_555 1_555
C41_8 O37_8 1_555 1_555
C42_8 O38_8 1_555 1_555
C43_8 C35_8 1_555 1_555
C44_8 C36_8 1_555 1_555
H24_8 C43_8 1_555 1_555
H25_8 C44_8 1_555 1_555
C45_8 C43_8 1_555 1_555
C46_8 C44_8 1_555 1_555
H26_8 C45_8 1_555 1_555
H27_8 C46_8 1_555 1_555
C47_8 C37_8 1_555 1_555
C48_8 C38_8 1_555 1_555
H28_8 C47_8 1_555 1_555
H29_8 C48_8 1_555 1_555
O41_8 Co16_2 1_555 1_555
O42_8 Co14_2 1_555 1_555
H30_8 O41_8 1_555 1_555
H31_8 O42_8 1_555 1_555
H32_8 O41_8 1_555 1_555
H33_8 O42_8 1_555 1_555
Co3_14 O37_8 1_555 1_555
O3_5 C1_11 1_555 1_555
O9_8 C13_8 1_555 1_555
C11_8 C13_8 1_555 1_555
C15_8 C16_8 1_555 1_555
Co16_2 O38_8 1_555 1_555
Co14_2 O12_8 1_555 1_555
O24_5 C25_9 1_555 1_555
O25_7 C26_7 1_555 1_555
C21_9 C25_9 1_555 1_555
C22_7 C26_7 1_555 1_555
C29_9 C31_9 1_555 1_555
C30_7 C32_7 1_555 1_555
O39_8 C41_8 1_555 1_555
O40_8 C42_8 1_555 1_555
C37_8 C41_8 1_555 1_555
C38_8 C42_8 1_555 1_555
C45_8 C47_8 1_555 1_555
C46_8 C48_8 1_555 1_555
O30_2 C34_8 1_555 1_555
O35_2 C34_8 1_555 1_555
Co9_5 O1_9 1_555 1_555
Co15_5 O1_9 1_555 1_555
Co3_15 O1_9 1_555 1_555
O1_9 H1_9 1_555 1_555
O31_5 C9_9 1_555 1_555
O36_5 C9_9 1_555 1_555
O8_9 Co3_15 1_555 1_555
O9_9 Co15_5 1_555 1_555
C9_9 C10_9 1_555 1_555
C10_9 C12_9 1_555 1_555
C11_9 C12_9 1_555 1_555
C12_9 H6_9 1_555 1_555
C13_9 O8_9 1_555 1_555
C14_9 C10_9 1_555 1_555
H7_9 C14_9 1_555 1_555
C15_9 C14_9 1_555 1_555
C16_9 C11_9 1_555 1_555
O10_9 Co15_5 1_555 1_555
H10_9 O10_9 1_555 1_555
H11_9 O10_9 1_555 1_555
O15_5 C18_8 1_555 1_555
O25_8 Co9_5 1_555 1_555
C18_8 O19_5 1_555 1_555
C20_8 C18_8 1_555 1_555
C22_8 C24_8 1_555 1_555
C24_8 C20_8 1_555 1_555
H15_8 C24_8 1_555 1_555
C26_8 O22_8 1_555 1_555
C28_8 C20_8 1_555 1_555
H17_8 C28_8 1_555 1_555
C30_8 C28_8 1_555 1_555
H19_8 C30_8 1_555 1_555
C32_8 C22_8 1_555 1_555
H21_8 C32_8 1_555 1_555
O9_9 C13_9 1_555 1_555
C11_9 C13_9 1_555 1_555
C15_9 C16_9 1_555 1_555
O25_8 C26_8 1_555 1_555
C22_8 C26_8 1_555 1_555
C30_8 C32_8 1_555 1_555
Co8_5 O12_9 1_555 1_555
O12_9 Co3_16 1_555 1_555
H13_9 O12_9 1_555 1_555
O16_8 Co14_5 1_555 1_555
O20_8 Co8_5 1_555 1_555
O42_9 Co14_5 1_555 1_555
H31_9 O42_9 1_555 1_555
H33_9 O42_9 1_555 1_555
Co14_5 O12_9 1_555 1_555
O29_5 C33_9 1_555 1_555
O34_5 C33_9 1_555 1_555
C33_9 C35_9 1_555 1_555
C35_9 C39_9 1_555 1_555
C37_9 C39_9 1_555 1_555
C39_9 H22_9 1_555 1_555
C41_9 O37_9 1_555 1_555
C43_9 C35_9 1_555 1_555
H24_9 C43_9 1_555 1_555
C45_9 C43_9 1_555 1_555
C47_9 C37_9 1_555 1_555
Co3_17 O37_9 1_555 1_555
O39_9 C41_9 1_555 1_555
C37_9 C41_9 1_555 1_555
C45_9 C47_9 1_555 1_555
Co10_5 O11_9 1_555 1_555
Co16_5 O11_9 1_555 1_555
O11_9 Co3_18 1_555 1_555
H12_9 O11_9 1_555 1_555
O23_8 Co10_5 1_555 1_555
O30_5 C34_9 1_555 1_555
O35_5 C34_9 1_555 1_555
O38_9 Co3_18 1_555 1_555
C34_9 C36_9 1_555 1_555
C36_9 C40_9 1_555 1_555
C38_9 C40_9 1_555 1_555
C40_9 H23_9 1_555 1_555
C42_9 O38_9 1_555 1_555
C44_9 C36_9 1_555 1_555
H25_9 C44_9 1_555 1_555
C46_9 C44_9 1_555 1_555
H27_9 C46_9 1_555 1_555
C48_9 C38_9 1_555 1_555
H29_9 C48_9 1_555 1_555
O41_9 Co16_5 1_555 1_555
H30_9 O41_9 1_555 1_555
H32_9 O41_9 1_555 1_555
Co16_5 O38_9 1_555 1_555
O40_9 C42_9 1_555 1_555
C38_9 C42_9 1_555 1_555
C46_9 C48_9 1_555 1_555
O16_7 C17_10 1_555 1_555
O20_7 C17_10 1_555 1_555
C17_10 C19_10 1_555 1_555
C19_10 C23_10 1_555 1_555
C23_10 H14_10 1_555 1_555
C27_10 C19_10 1_555 1_555
H16_10 C27_10 1_555 1_555
C25_10 O23_8 1_555 1_555
H18_10 C29_10 1_555 1_555
C31_10 C21_10 1_555 1_555
H20_10 C31_10 1_555 1_555
O26_8 C25_10 1_555 1_555
C21_10 C25_10 1_555 1_555
C29_10 C31_10 1_555 1_555
O23_7 C5_12 1_555 1_555
O26_7 C5_12 1_555 1_555
C1_12 O16_8 1_555 1_555
C2_12 C1_12 1_555 1_555
C3_12 C4_12 1_555 1_555
C4_12 C2_12 1_555 1_555
H2_12 C4_12 1_555 1_555
C5_12 C3_12 1_555 1_555
C6_12 C2_12 1_555 1_555
H3_12 C6_12 1_555 1_555
C7_12 C6_12 1_555 1_555
H4_12 C7_12 1_555 1_555
C8_12 C3_12 1_555 1_555
H5_12 C8_12 1_555 1_555
O20_8 C1_12 1_555 1_555
C7_12 C8_12 1_555 1_555
O4_10 C5_13 1_555 1_555
O5_10 C5_13 1_555 1_555
C3_13 C4_13 1_555 1_555
C4_13 C2_13 1_555 1_555
H2_13 C4_13 1_555 1_555
C5_13 C3_13 1_555 1_555
C6_13 C2_13 1_555 1_555
H3_13 C6_13 1_555 1_555
C7_13 C6_13 1_555 1_555
H4_13 C7_13 1_555 1_555
C8_13 C3_13 1_555 1_555
H5_13 C8_13 1_555 1_555
Co9_3 O4_10 1_555 1_555
Co10_3 O5_10 1_555 1_555
Co16_3 O14_6 1_555 1_555
O14_6 C18_9 1_555 1_555
O18_6 Co10_3 1_555 1_555
C18_9 O18_6 1_555 1_555
C7_13 C8_13 1_555 1_555
Co9_6 O1_10 1_555 1_555
Co15_6 O1_10 1_555 1_555
Co3_19 O1_10 1_555 1_555
O1_10 H1_10 1_555 1_555
O2_6 Co15_6 1_555 1_555
O3_6 Co9_6 1_555 1_555
C1_13 O2_6 1_555 1_555
O31_6 C9_10 1_555 1_555
O36_6 C9_10 1_555 1_555
O8_10 Co3_19 1_555 1_555
O9_10 Co15_6 1_555 1_555
C9_10 C10_10 1_555 1_555
C10_10 C12_10 1_555 1_555
C11_10 C12_10 1_555 1_555
C12_10 H6_10 1_555 1_555
C13_10 O8_10 1_555 1_555
C14_10 C10_10 1_555 1_555
H7_10 C14_10 1_555 1_555
C15_10 C14_10 1_555 1_555
H8_10 C15_10 1_555 1_555
C16_10 C11_10 1_555 1_555
H9_10 C16_10 1_555 1_555
O10_10 Co15_6 1_555 1_555
Co10_6 O11_10 1_555 1_555
Co8_6 O12_10 1_555 1_555
Co16_6 O11_10 1_555 1_555
Co14_6 O8_10 1_555 1_555
O11_10 Co3_19 1_555 1_555
O12_10 Co3_19 1_555 1_555
H12_10 O11_10 1_555 1_555
H13_10 O12_10 1_555 1_555
O15_6 Co16_6 1_555 1_555
O16_9 Co14_6 1_555 1_555
O19_6 Co10_6 1_555 1_555
O20_9 Co8_6 1_555 1_555
O21_6 Co9_6 1_555 1_555
O22_9 Co8_6 1_555 1_555
O23_9 Co10_6 1_555 1_555
O24_6 Co10_6 1_555 1_555
O25_9 Co9_6 1_555 1_555
O26_9 Co8_6 1_555 1_555
C19_11 C23_11 1_555 1_555
C21_11 C23_11 1_555 1_555
C22_9 C24_9 1_555 1_555
C23_11 H14_11 1_555 1_555
C24_9 C20_9 1_555 1_555
H15_9 C24_9 1_555 1_555
C25_11 O21_6 1_555 1_555
C26_9 O22_9 1_555 1_555
C27_11 C19_11 1_555 1_555
C28_9 C20_9 1_555 1_555
H16_11 C27_11 1_555 1_555
H17_9 C28_9 1_555 1_555
C29_11 C27_11 1_555 1_555
C30_9 C28_9 1_555 1_555
H18_11 C29_11 1_555 1_555
H19_9 C30_9 1_555 1_555
C31_11 C21_11 1_555 1_555
C32_9 C22_9 1_555 1_555
H20_11 C31_11 1_555 1_555
H21_9 C32_9 1_555 1_555
O29_6 C33_10 1_555 1_555
O30_6 C34_10 1_555 1_555
O34_6 C33_10 1_555 1_555
O35_6 C34_10 1_555 1_555
O37_10 Co15_6 1_555 1_555
O38_10 Co3_19 1_555 1_555
O39_10 Co16_6 1_555 1_555
O40_10 Co14_6 1_555 1_555
C33_10 C35_10 1_555 1_555
C34_10 C36_10 1_555 1_555
C35_10 C39_10 1_555 1_555
C36_10 C40_10 1_555 1_555
C37_10 C39_10 1_555 1_555
C38_10 C40_10 1_555 1_555
C39_10 H22_10 1_555 1_555
C40_10 H23_10 1_555 1_555
C41_10 O37_10 1_555 1_555
C42_10 O38_10 1_555 1_555
C43_10 C35_10 1_555 1_555
C44_10 C36_10 1_555 1_555
H24_10 C43_10 1_555 1_555
H25_10 C44_10 1_555 1_555
C45_10 C43_10 1_555 1_555
C46_10 C44_10 1_555 1_555
H26_10 C45_10 1_555 1_555
H27_10 C46_10 1_555 1_555
C47_10 C37_10 1_555 1_555
C48_10 C38_10 1_555 1_555
H28_10 C47_10 1_555 1_555
H29_10 C48_10 1_555 1_555
O41_10 Co16_6 1_555 1_555
O42_10 Co14_6 1_555 1_555
H31_10 O42_10 1_555 1_555
H33_10 O42_10 1_555 1_555
Co3_19 O37_10 1_555 1_555
O3_6 C1_13 1_555 1_555
O9_10 C13_10 1_555 1_555
C11_10 C13_10 1_555 1_555
C15_10 C16_10 1_555 1_555
Co16_6 O38_10 1_555 1_555
Co14_6 O12_10 1_555 1_555
O24_6 C25_11 1_555 1_555
O25_9 C26_9 1_555 1_555
C21_11 C25_11 1_555 1_555
C22_9 C26_9 1_555 1_555
C29_11 C31_11 1_555 1_555
C30_9 C32_9 1_555 1_555
O39_10 C41_10 1_555 1_555
O40_10 C42_10 1_555 1_555
C37_10 C41_10 1_555 1_555
C38_10 C42_10 1_555 1_555
C45_10 C47_10 1_555 1_555
C46_10 C48_10 1_555 1_555
Co9_3 O17_8 1_555 1_555
Co15_3 O13_8 1_555 1_555
O13_8 C17_11 1_555 1_555
O17_8 C17_11 1_555 1_555
O15_6 C18_10 1_555 1_555
C18_10 O19_6 1_555 1_555
Co9_3 O1_11 1_555 1_555
Co15_3 O1_11 1_555 1_555
Co3_20 O1_11 1_555 1_555
O1_11 H1_11 1_555 1_555
O31_3 C9_11 1_555 1_555
O36_3 C9_11 1_555 1_555
O8_11 Co3_20 1_555 1_555
O9_11 Co15_3 1_555 1_555
C9_11 C10_11 1_555 1_555
C10_11 C12_11 1_555 1_555
C11_11 C12_11 1_555 1_555
C12_11 H6_11 1_555 1_555
C13_11 O8_11 1_555 1_555
C14_11 C10_11 1_555 1_555
H7_11 C14_11 1_555 1_555
C15_11 C14_11 1_555 1_555
H8_11 C15_11 1_555 1_555
C16_11 C11_11 1_555 1_555
H9_11 C16_11 1_555 1_555
O10_11 Co15_3 1_555 1_555
Co10_3 O11_11 1_555 1_555
Co8_3 O12_11 1_555 1_555
Co16_3 O11_11 1_555 1_555
Co14_3 O8_11 1_555 1_555
O11_11 Co3_20 1_555 1_555
O12_11 Co3_20 1_555 1_555
H12_11 O11_11 1_555 1_555
H13_11 O12_11 1_555 1_555
O16_10 Co14_3 1_555 1_555
O20_10 Co8_3 1_555 1_555
O22_10 Co8_3 1_555 1_555
O23_10 Co10_3 1_555 1_555
O25_10 Co9_3 1_555 1_555
O26_10 Co8_3 1_555 1_555
C22_10 C24_10 1_555 1_555
C24_10 C20_10 1_555 1_555
H15_10 C24_10 1_555 1_555
C26_10 O22_10 1_555 1_555
C28_10 C20_10 1_555 1_555
H17_10 C28_10 1_555 1_555
C30_10 C28_10 1_555 1_555
H19_10 C30_10 1_555 1_555
C32_10 C22_10 1_555 1_555
H21_10 C32_10 1_555 1_555
O29_3 C33_11 1_555 1_555
O30_3 C34_11 1_555 1_555
O34_3 C33_11 1_555 1_555
O35_3 C34_11 1_555 1_555
O37_11 Co15_3 1_555 1_555
O38_11 Co3_20 1_555 1_555
O39_11 Co16_3 1_555 1_555
O40_11 Co14_3 1_555 1_555
C33_11 C35_11 1_555 1_555
C34_11 C36_11 1_555 1_555
C35_11 C39_11 1_555 1_555
C36_11 C40_11 1_555 1_555
C37_11 C39_11 1_555 1_555
C38_11 C40_11 1_555 1_555
C39_11 H22_11 1_555 1_555
C40_11 H23_11 1_555 1_555
C41_11 O37_11 1_555 1_555
C42_11 O38_11 1_555 1_555
C43_11 C35_11 1_555 1_555
C44_11 C36_11 1_555 1_555
H24_11 C43_11 1_555 1_555
H25_11 C44_11 1_555 1_555
C45_11 C43_11 1_555 1_555
C46_11 C44_11 1_555 1_555
H26_11 C45_11 1_555 1_555
H27_11 C46_11 1_555 1_555
C47_11 C37_11 1_555 1_555
C48_11 C38_11 1_555 1_555
H28_11 C47_11 1_555 1_555
H29_11 C48_11 1_555 1_555
O41_11 Co16_3 1_555 1_555
O42_11 Co14_3 1_555 1_555
H31_11 O42_11 1_555 1_555
H33_11 O42_11 1_555 1_555
Co3_20 O37_11 1_555 1_555
O9_11 C13_11 1_555 1_555
C11_11 C13_11 1_555 1_555
C15_11 C16_11 1_555 1_555
Co16_3 O38_11 1_555 1_555
Co14_3 O12_11 1_555 1_555
O25_10 C26_10 1_555 1_555
C22_10 C26_10 1_555 1_555
C30_10 C32_10 1_555 1_555
O39_11 C41_11 1_555 1_555
O40_11 C42_11 1_555 1_555
C37_11 C41_11 1_555 1_555
C38_11 C42_11 1_555 1_555
C45_11 C47_11 1_555 1_555
C46_11 C48_11 1_555 1_555
Co9_4 O1_12 1_555 1_555
Co15_4 O1_12 1_555 1_555
Co3_21 O1_12 1_555 1_555
O1_12 H1_12 1_555 1_555
O31_4 C9_12 1_555 1_555
O36_4 C9_12 1_555 1_555
O8_12 Co3_21 1_555 1_555
O9_12 Co15_4 1_555 1_555
C9_12 C10_12 1_555 1_555
C10_12 C12_12 1_555 1_555
C11_12 C12_12 1_555 1_555
C12_12 H6_12 1_555 1_555
C13_12 O8_12 1_555 1_555
C14_12 C10_12 1_555 1_555
H7_12 C14_12 1_555 1_555
C15_12 C14_12 1_555 1_555
C16_12 C11_12 1_555 1_555
O10_12 Co15_4 1_555 1_555
H10_12 O10_12 1_555 1_555
H11_12 O10_12 1_555 1_555
O9_12 C13_12 1_555 1_555
C11_12 C13_12 1_555 1_555
C15_12 C16_12 1_555 1_555
O29_4 C33_12 1_555 1_555
O34_4 C33_12 1_555 1_555
C33_12 C35_12 1_555 1_555
C35_12 C39_12 1_555 1_555
C37_12 C39_12 1_555 1_555
C39_12 H22_12 1_555 1_555
C41_12 O37_12 1_555 1_555
C43_12 C35_12 1_555 1_555
H24_12 C43_12 1_555 1_555
C45_12 C43_12 1_555 1_555
C47_12 C37_12 1_555 1_555
Co3_22 O37_12 1_555 1_555
O39_12 C41_12 1_555 1_555
C37_12 C41_12 1_555 1_555
C45_12 C47_12 1_555 1_555
Co8_4 O12_12 1_555 1_555
O12_12 Co3_23 1_555 1_555
H13_12 O12_12 1_555 1_555
O42_12 Co14_4 1_555 1_555
H31_12 O42_12 1_555 1_555
H33_12 O42_12 1_555 1_555
Co14_4 O12_12 1_555 1_555
Co10_4 O11_12 1_555 1_555
Co16_4 O11_12 1_555 1_555
O11_12 Co3_24 1_555 1_555
H12_12 O11_12 1_555 1_555
O30_4 C34_12 1_555 1_555
O35_4 C34_12 1_555 1_555
O38_12 Co3_24 1_555 1_555
C34_12 C36_12 1_555 1_555
C36_12 C40_12 1_555 1_555
C38_12 C40_12 1_555 1_555
C40_12 H23_12 1_555 1_555
C42_12 O38_12 1_555 1_555
C44_12 C36_12 1_555 1_555
H25_12 C44_12 1_555 1_555
C46_12 C44_12 1_555 1_555
H27_12 C46_12 1_555 1_555
C48_12 C38_12 1_555 1_555
H29_12 C48_12 1_555 1_555
O41_12 Co16_4 1_555 1_555
H30_12 O41_12 1_555 1_555
H32_12 O41_12 1_555 1_555
Co16_4 O38_12 1_555 1_555
O40_12 C42_12 1_555 1_555
C38_12 C42_12 1_555 1_555
C46_12 C48_12 1_555 1_555
O16_9 C17_12 1_555 1_555
O20_9 C17_12 1_555 1_555
C17_12 C19_12 1_555 1_555
C19_12 C23_12 1_555 1_555
C21_12 C23_12 1_555 1_555
C23_12 H14_12 1_555 1_555
C25_12 O23_10 1_555 1_555
C27_12 C19_12 1_555 1_555
H16_12 C27_12 1_555 1_555
C29_12 C27_12 1_555 1_555
H18_12 C29_12 1_555 1_555
C31_12 C21_12 1_555 1_555
H20_12 C31_12 1_555 1_555
O26_10 C25_12 1_555 1_555
C21_12 C25_12 1_555 1_555
C29_12 C31_12 1_555 1_555
O23_9 C5_14 1_555 1_555
O26_9 C5_14 1_555 1_555
C1_14 O16_10 1_555 1_555
C2_14 C1_14 1_555 1_555
C3_14 C4_14 1_555 1_555
C4_14 C2_14 1_555 1_555
H2_14 C4_14 1_555 1_555
C5_14 C3_14 1_555 1_555
C6_14 C2_14 1_555 1_555
H3_14 C6_14 1_555 1_555
C7_14 C6_14 1_555 1_555
H4_14 C7_14 1_555 1_555
C8_14 C3_14 1_555 1_555
H5_14 C8_14 1_555 1_555
O20_10 C1_14 1_555 1_555
C7_14 C8_14 1_555 1_555

#END
