
###############################################################################
#
# This file contains modified crystal structure data generated from the
# MOF subset of the Cambridge Structural Database (CSD) v543 
# hosted by the Cambridge Crystallographic Data Centre (CCDC).
#
# This work is licensed under the Creative Commons
# Attribution-NonCommercial-ShareAlike 4.0 International License.
# To view a copy of this license, visit
# http://creativecommons.org/licenses/by-nc-sa/4.0/
# or send a letter to
# Creative Commons, PO Box 1866, Mountain View, CA 94042, USA.
#
# CIF created using the CSD Python API on 29 September 2022
# The structure has been converted into the P1 space group
# The structure has a 3D framework
# The original CSD entry KITVAM is in the triclinic crystal system
# The original CSD entry KITVAM is in a Sohncke space group
# The framework has been calculated to contain at least 10.0% void space
# The void calculation uses a probe of radius 1.32A, grid spacing 0.4
# H atom positions have been added when not included in the experimental data
#
###############################################################################

data_KITVAM
_chemical_formula_moiety         '(C124 H88 N8 O20 Zn4)n'
_symmetry_cell_setting           triclinic
_symmetry_space_group_name_H-M   'P 1'
_symmetry_Int_Tables_number      1
_space_group_name_Hall           'P 1'
loop_
_symmetry_equiv_pos_site_id
_symmetry_equiv_pos_as_xyz
1 x,y,z
_cell_length_a                   15.657(2)
_cell_length_b                   15.6717(17)
_cell_length_c                   16.3386(18)
_cell_angle_alpha                89.904(7)
_cell_angle_beta                 89.961(8)
_cell_angle_gamma                81.862(9)
_cell_volume                     3968.65
loop_
_atom_site_label
_atom_site_type_symbol
_atom_site_fract_x
_atom_site_fract_y
_atom_site_fract_z
_atom_site_U_iso_or_equiv
_atom_site_thermal_displace_type
C108 C 0.0227(10) 0.4558(10) 0.5088(10) 0.0297 Uani
H69 H 0.0044 0.4618 0.3833 0.0900 Uiso
C112 C 0.1204(8) 0.4562(7) 0.5107(7) 0.0173 Uani
C116 C 0.1716(9) 0.4163(8) 0.4525(8) 0.0284 Uani
C117 C 0.1589(12) 0.4965(12) 0.5590(12) 0.0658 Uani
H79 H 0.1485 0.3850 0.4118 0.0340 Uiso
C121 C 0.2641(11) 0.4223(10) 0.4532(11) 0.0574 Uani
C122 C 0.2513(9) 0.4976(8) 0.5707(8) 0.0310 Uani
H80 H 0.1235 0.5323 0.5942 0.0790 Uiso
H84 H 0.2929 0.4008 0.4061 0.0690 Uiso
H85 H 0.2695 0.5258 0.6162 0.0370 Uiso
N11 N 0.3186(5) 0.4546(5) 0.5118(6) 0.0000 Uiso
Zn12 Zn 0.43508(12) 0.45340(10) 0.51128(9) 0.0191 Uani
C109 C 0.0072(7) 0.2105(8) 0.5841(8) 0.0249 Uani
C113 C 0.1073(7) 0.2116(9) 0.5841(9) 0.0204 Uani
C118 C 0.1446(9) 0.2485(8) 0.6432(9) 0.0334 Uani
C119 C 0.1536(11) 0.1705(11) 0.5224(11) 0.0463 Uani
H81 H 0.1121 0.2659 0.6894 0.0400 Uiso
C123 C 0.2361(10) 0.2644(9) 0.6411(10) 0.0485 Uani
C124 C 0.2478(10) 0.1817(9) 0.5196(9) 0.0374 Uani
H82 H 0.1291 0.1375 0.4841 0.0550 Uiso
H86 H 0.2583 0.3033 0.6753 0.0580 Uiso
H87 H 0.2797 0.1654 0.4728 0.0450 Uiso
N12 N 0.2857(6) 0.2140(6) 0.5817(6) 0.0145 Uani
Zn13 Zn 0.42024(10) 0.20540(9) 0.58644(9) 0.0205 Uani
O1 O 0.4443(5) 0.0245(6) 0.2112(6) 0.0140 Uani
O3 O 0.4323(6) 0.0906(6) 0.0893(7) 0.0163 Uani
C3 C 0.4276(8) 0.0939(8) 0.1678(8) 0.0126 Uani
C5 C 0.1765(11) 0.0009(12) 0.0290(13) 0.0593 Uani
C7 C 0.4309(8) 0.1796(8) 0.2078(8) 0.0233 Uani
C10 C 0.4271(7) 0.1841(7) 0.2975(7) 0.0147 Uani
C11 C 0.4434(7) 0.2465(7) 0.1568(8) 0.0220 Uani
H5 H 0.4154 0.1377 0.3290 0.0170 Uiso
C15 C 0.4418(11) 0.2619(10) 0.3333(10) 0.0432 Uani
C16 C 0.4227(8) 0.3303(8) 0.1974(8) 0.0233 Uani
H6 H 0.4627 0.2395 0.1031 0.0270 Uiso
C21 C 0.4419(12) 0.2677(13) 0.4204(13) 0.0383 Uani
C22 C 0.4289(12) 0.3400(11) 0.2888(12) 0.0485 Uani
O9 O 0.4220(7) 0.4028(7) 0.1454(7) 0.0476 Uani
O11 O 0.4552(7) 0.3401(6) 0.4563(7) 0.0312 Uani
O12 O 0.4254(6) 0.2020(6) 0.4623(6) 0.0119 Uani
H10 H 0.4246 0.3936 0.3141 0.0590 Uiso
C30 C 0.3848(10) 0.4788(9) 0.1792(10) 0.0418 Uani
H16 H 0.3904 0.5256 0.1415 0.0500 Uiso
H17 H 0.4151 0.4892 0.2292 0.0500 Uiso
C36 C 0.2836(12) 0.4780(11) 0.1997(11) 0.0607 Uani
O15 O 0.4353(8) 0.5274(8) 0.3839(9) 0.0493 Uani
O16 O 0.4266(9) 0.5905(8) 0.5073(8) 0.0463 Uani
N5 N 0.5816(5) 0.4470(5) 0.5118(5) 0.0077 Uani
O17 O 0.4363(8) 0.4591(8) 0.6288(9) 0.0476 Uani
C42 C 0.2449(13) 0.5385(14) 0.2587(13) 0.0838 Uani
C43 C 0.2381(15) 0.4347(13) 0.1398(14) 0.0866 Uani
C51 C 0.4326(11) 0.5904(9) 0.4354(9) 0.0428 Uani
C52 C 0.6227(7) 0.4141(7) 0.4553(8) 0.0197 Uani
C53 C 0.6138(13) 0.4808(12) 0.5621(13) 0.0840 Uani
H24 H 0.2742 0.5749 0.2895 0.1000 Uiso
C54 C 0.1490(15) 0.5343(17) 0.2636(17) 0.1403 Uani
H25 H 0.2683 0.4187 0.0919 0.1040 Uiso
C55 C 0.1514(16) 0.4129(16) 0.1444(15) 0.1112 Uani
C66 C 0.4379(9) 0.6816(8) 0.3936(8) 0.0287 Uani
H30 H 0.5917 0.4027 0.4090 0.0240 Uiso
C67 C 0.7201(10) 0.3891(13) 0.4513(12) 0.0685 Uani
C68 C 0.6997(15) 0.4725(14) 0.5764(16) 0.0790 Uani
H31 H 0.5781 0.5174 0.5964 0.1010 Uiso
C69 C 0.1106(16) 0.4782(15) 0.2001(16) 0.0993 Uani
H32 H 0.1146 0.5645 0.3034 0.1680 Uiso
H33 H 0.1281 0.3687 0.1185 0.1340 Uiso
C76 C 0.4242(9) 0.7458(9) 0.4376(10) 0.0283 Uani
C77 C 0.4363(7) 0.6814(7) 0.3074(7) 0.0183 Uani
C78 C 0.7394(9) 0.4508(11) 0.5059(11) 0.0357 Uani
H43 H 0.7549 0.3466 0.4220 0.0820 Uiso
H44 H 0.7260 0.4804 0.6263 0.0950 Uiso
H45 H 0.0507 0.4879 0.1968 0.1190 Uiso
H53 H 0.4142 0.7397 0.4933 0.0340 Uiso
C82 C 0.4236(11) 0.8307(11) 0.4026(11) 0.0563 Uani
C83 C 0.4314(10) 0.7621(9) 0.2614(10) 0.0268 Uani
H54 H 0.4383 0.6295 0.2795 0.0220 Uiso
C84 C 0.8401(10) 0.4515(11) 0.5101(12) 0.0627 Uani
O20 O 0.4440(7) 0.8966(7) 0.4522(8) 0.0456 Uani
C89 C 0.4195(12) 0.8393(12) 0.3095(12) 0.0574 Uani
C90 C 0.4331(7) 0.7655(7) 0.1756(7) 0.0130 Uani
C91 C 0.8828(12) 0.4928(12) 0.5612(12) 0.0887 Uani
C92 C 0.8887(8) 0.4242(8) 0.4477(8) 0.0444 Uani
C99 C 0.3909(8) 0.9781(10) 0.4203(10) 0.0477 Uani
H57 H 0.4095 0.8932 0.2846 0.0690 Uiso
C100 C 0.9768(11) 0.4602(11) 0.5906(12) 0.0617 Uani
H58 H 0.8557 0.5451 0.5815 0.1060 Uiso
C101 C 0.9811(13) 0.4509(13) 0.4340(14) 0.0750 Uani
H59 H 0.8680 0.3877 0.4100 0.0530 Uiso
H66 H 0.4147 0.9914 0.3677 0.0570 Uiso
C107 C 0.2911(10) 0.9795(12) 0.4089(13) 0.0836 Uani
H68 H 0.9982 0.4473 0.6430 0.0740 Uiso
C111 C 0.2410(16) 0.9304(14) 0.4604(14) 0.1197 Uani
C115 C 0.1563(15) 0.9215(15) 0.4525(15) 0.0956 Uani
H76 H 0.2701 0.9016 0.5042 0.1440 Uiso
C120 C 0.112(2) 0.9781(17) 0.3933(17) 0.1294 Uani
H78 H 0.1299 0.8822 0.4827 0.1150 Uiso
H83 H 0.0529 0.9767 0.3905 0.1550 Uiso
O24 O 0.4662(5) 0.8357(5) 0.1430(5) 0.0129 Uani
O25 O 0.4354(6) 0.6951(7) 0.1326(7) 0.0337 Uani
Zn9 Zn 0.44668(13) 0.95195(12) 0.08617(12) 0.0157 Uani
Zn10 Zn 0.43285(13) 0.70355(13) 0.01106(13) 0.0246 Uani
H1 H 0.2908 0.0121 0.9843 0.0270 Uiso
H3 H 0.1423 0.0403 0.9960 0.0710 Uiso
C27 C 0.4311(7) 0.0664(6) 0.6689(6) 0.0100 Uiso
O13 O 0.4350(7) 0.0683(7) 0.5894(7) 0.0170 Uani
O14 O 0.4262(6) 0.1350(6) 0.7083(7) 0.0166 Uani
N7 N 0.5737(8) 0.2062(8) 0.5962(9) 0.0369 Uani
O18 O 0.4053(6) 0.3217(6) 0.6477(6) 0.0223 Uani
C62 C 0.5945(9) 0.2517(9) 0.6504(9) 0.0340 Uani
C63 C 0.6051(14) 0.1789(12) 0.5330(14) 0.0828 Uani
H39 H 0.5574 0.2793 0.6897 0.0410 Uiso
C74 C 0.6826(13) 0.2565(14) 0.6450(14) 0.0876 Uani
C75 C 0.6905(8) 0.1681(8) 0.5226(7) 0.0215 Uani
H40 H 0.5697 0.1650 0.4908 0.1000 Uiso
C81 C 0.7208(8) 0.2132(9) 0.5909(9) 0.0327 Uani
H51 H 0.7103 0.2902 0.6803 0.1050 Uiso
H52 H 0.7228 0.1385 0.4811 0.0260 Uiso
C88 C 0.8236(9) 0.2146(11) 0.5872(13) 0.0436 Uani
C97 C 0.8709(11) 0.2313(12) 0.6495(12) 0.0575 Uani
C98 C 0.8708(14) 0.2052(13) 0.5265(15) 0.0826 Uani
H64 H 0.8412 0.2586 0.6937 0.0690 Uiso
C105 C 0.9611(11) 0.2131(11) 0.6581(12) 0.0650 Uani
H65 H 0.8414 0.1932 0.4794 0.0990 Uiso
C106 C 0.9667(7) 0.2088(7) 0.5108(7) 0.0180 Uani
H73 H 0.9881 0.2035 0.7086 0.0780 Uiso
H74 H 0.9928 0.2098 0.4597 0.0210 Uiso
H88 H 0.437393 0.0332857 0.830869 . .
N1 N 0.3116(8) 0.9502(8) 0.0907(8) 0.0456 Uani
N2 N 0.5828(7) 0.9452(7) 0.0824(7) 0.0288 Uani
C1 C 0.2628(9) 0.9908(8) 0.0285(9) 0.0230 Uani
C2 C 0.2733(12) 0.9162(12) 0.1476(13) 0.0499 Uani
C6 C 0.1844(10) 0.9070(11) 0.1525(10) 0.0416 Uani
H2 H 0.3074 0.8945 0.1915 0.0600 Uiso
C9 C 0.1418(8) 0.9440(11) 0.0862(11) 0.0371 Uani
H4 H 0.1592 0.8797 0.1949 0.0500 Uiso
C14 C 0.0406(8) 0.9426(9) 0.0834(10) 0.0344 Uani
O8 O 0.4446(9) 0.5678(8) 0.0059(8) 0.0449 Uani
N3 N 0.2882(5) 0.7113(4) 0.0156(4) 0.0013 Uiso
N4 N 0.5568(5) 0.7039(4) 0.0109(4) 0.0000 Uiso
C24 C 0.2573(11) 0.6804(11) 0.0839(11) 0.0437 Uani
H8 H 0.0238 0.9306 0.2018 0.0360 Uiso
C32 C 0.1677(14) 0.6796(13) 0.0826(12) 0.0717 Uani
H11 H 0.2919 0.6611 0.1284 0.0520 Uiso
C39 C 0.1251(9) 0.7048(12) 0.0076(11) 0.0411 Uani
H18 H 0.1379 0.6635 0.1281 0.0860 Uiso
C46 C 0.0246(7) 0.7114(9) 0.0108(7) 0.0200 Uani
H36 H 0.0123 0.6951 0.1427 0.0460 Uiso
H56 H 0.2545 0.2632 0.0220 0.0860 Uiso
O2 O 0.4460(5) 0.9529(5) 0.9626(5) 0.0059 Uani
C4 C 0.4146(8) 0.8902(8) 0.9248(8) 0.0229 Uani
O5 O 0.4190(7) 0.8164(7) 0.9508(8) 0.0416 Uani
C8 C 0.4226(10) 0.9016(10) 0.8298(10) 0.0280 Uani
C12 C 0.4218(8) 0.8210(8) 0.7838(8) 0.0183 Uani
C13 C 0.4328(7) 0.9770(7) 0.7930(7) 0.0170 Uiso
O7 O 0.4431(7) 0.6318(7) 0.8873(7) 0.0404 Uani
H7 H 0.4212 0.7685 0.8102 0.0220 Uiso
C17 C 0.4220(11) 0.8272(10) 0.7019(11) 0.0396 Uani
C18 C 0.4374(8) 0.9845(8) 0.7118(8) 0.0253 Uani
C23 C 0.4231(10) 0.5673(10) 0.9336(10) 0.0303 Uani
C25 C 0.2484(13) 0.7558(13) 0.9648(16) 0.0824 Uani
O10 O 0.4464(8) 0.7526(7) 0.6533(7) 0.0510 Uani
C26 C 0.4251(9) 0.9082(9) 0.6606(10) 0.0237 Uani
H9 H 0.0104 0.9897 0.9722 0.0760 Uiso
C31 C 0.4268(10) 0.4845(9) 0.8898(9) 0.0381 Uani
H12 H 0.2783 0.7898 0.9318 0.0980 Uiso
C33 C 0.1557(11) 0.7594(10) 0.9519(10) 0.0530 Uani
C34 C 0.3896(9) 0.6810(11) 0.6780(13) 0.0765 Uani
H13 H 0.4196 0.9128 0.6041 0.0280 Uiso
C37 C 0.4421(9) 0.4027(8) 0.9378(9) 0.0310 Uani
C38 C 0.4243(8) 0.4766(7) 0.8097(7) 0.0174 Uani
H19 H 0.1229 0.7927 0.9130 0.0630 Uiso
H20 H 0.4014 0.6353 0.6378 0.0920 Uiso
H21 H 0.4122 0.6571 0.7297 0.0920 Uiso
C40 C 0.2899(10) 0.6994(11) 0.6876(13) 0.0752 Uani
H22 H 0.4690 0.3987 0.9886 0.0370 Uiso
C44 C 0.4118(12) 0.3309(12) 0.8986(12) 0.0840 Uani
C45 C 0.4266(9) 0.3966(8) 0.7654(8) 0.0283 Uani
H23 H 0.4209 0.5270 0.7789 0.0200 Uiso
C47 C 0.2531(13) 0.6630(11) 0.7521(13) 0.0761 Uani
C48 C 0.2405(13) 0.7385(12) 0.6280(14) 0.0904 Uani
O19 O 0.4168(6) 0.2615(6) 0.9490(6) 0.0382 Uani
C56 C 0.4208(11) 0.3226(12) 0.8157(12) 0.0343 Uani
C57 C 0.4272(9) 0.3908(10) 0.6738(10) 0.0250 Uani
C60 C 0.157(2) 0.6587(19) 0.7523(19) 0.1386 Uani
H26 H 0.2870 0.6408 0.7960 0.0910 Uiso
C61 C 0.1483(16) 0.7486(19) 0.6550(19) 0.1350 Uani
H27 H 0.2602 0.7565 0.5781 0.1080 Uiso
C70 C 0.3902(12) 0.1794(12) 0.9190(14) 0.0785 Uani
H34 H 0.4232 0.2685 0.7917 0.0420 Uiso
H35 H 0.0081 0.7238 0.8984 0.0390 Uiso
C73 C 0.102(2) 0.7073(17) 0.7004(18) 0.1213 Uani
H37 H 0.1355 0.6219 0.7890 0.1660 Uiso
H38 H 0.1166 0.7979 0.6330 0.1620 Uiso
H46 H 0.4136 0.1651 0.8650 0.0940 Uiso
H47 H 0.4092 0.1322 0.9561 0.0940 Uiso
C79 C 0.2920(12) 0.1985(10) 0.9165(12) 0.0699 Uani
H50 H 0.0420 0.7098 0.6985 0.1460 Uiso
C85 C 0.2481(15) 0.1632(12) 0.8530(13) 0.0810 Uani
C86 C 0.2352(12) 0.2402(10) 0.9741(12) 0.0715 Uani
H55 H 0.2803 0.1403 0.8082 0.0980 Uiso
C93 C 0.158(3) 0.160(2) 0.852(2) 0.1940 Uani
C94 C 0.1456(19) 0.2456(17) 0.9553(18) 0.1276 Uani
H60 H 0.1390 0.1206 0.8168 0.2320 Uiso
C102 C 0.1039(19) 0.2036(17) 0.8934(17) 0.1230 Uani
H61 H 0.1089 0.2823 0.9888 0.1530 Uiso
H70 H 0.0446 0.2085 0.8854 0.1480 Uiso
C19 C 0.9931(9) 0.9404(8) 0.1532(8) 0.0297 Uani
C20 C 0.9866(12) 0.9749(12) 0.0215(13) 0.0638 Uani
C28 C 0.9097(11) 0.9506(11) 0.1589(11) 0.0657 Uani
C29 C 0.9082(16) 0.9849(16) 0.0288(16) 0.1021 Uani
C35 C 0.8573(10) 0.9526(13) 0.0838(13) 0.0630 Uani
H14 H 0.8832 0.9566 0.2099 0.0790 Uiso
C41 C 0.7576(8) 0.9487(9) 0.0834(9) 0.0197 Uani
C49 C 0.7239(10) 0.9075(10) 0.1386(10) 0.0464 Uani
C50 C 0.7132(13) 0.9897(13) 0.0289(13) 0.0640 Uani
C59 C 0.9802(9) 0.7047(9) 0.0949(7) 0.0380 Uani
H28 H 0.7596 0.8751 0.1761 0.0560 Uiso
C64 C 0.6335(9) 0.9093(9) 0.1449(9) 0.0219 Uani
C65 C 0.6246(11) 0.9813(11) 0.0329(11) 0.0401 Uani
C72 C 0.8751(16) 0.7150(14) 0.0963(11) 0.0990 Uani
H41 H 0.6092 0.8866 0.1905 0.0260 Uiso
C80 C 0.8403(10) 0.7009(10) 0.0101(10) 0.0280 Uani
H49 H 0.8411 0.7275 0.1427 0.1190 Uiso
C87 C 0.7470(9) 0.7020(9) 0.0099(9) 0.0217 Uani
C96 C 0.7088(10) 0.6708(10) 0.0697(11) 0.0400 Uani
C104 C 0.6201(15) 0.6731(15) 0.0729(17) 0.0871 Uani
H63 H 0.7419 0.6455 0.1129 0.0480 Uiso
H72 H 0.5984 0.6522 0.1208 0.1040 Uiso
H67 H 0.3992 0.0246 0.4572 0.0570 Uiso
C110 C 0.2335(17) 0.0296(15) 0.3490(15) 0.1115 Uani
H75 H 0.2612 0.0620 0.3124 0.1340 Uiso
C114 C 0.1431(19) 0.036(2) 0.3382(19) 0.1785 Uani
H77 H 0.1101 0.0723 0.3014 0.2140 Uiso
H15 H 0.8787 0.0210 0.9897 0.1220 Uiso
H29 H 0.7363 0.0227 0.9894 0.0760 Uiso
H42 H 0.5919 0.0082 0.9902 0.0480 Uiso
C58 C 0.9791(9) 0.7273(9) 0.9483(9) 0.0325 Uani
C71 C 0.8874(15) 0.7502(15) 0.9449(16) 0.1020 Uani
H48 H 0.8592 0.7899 0.9081 0.1220 Uiso
C95 C 0.6992(12) 0.7351(12) 0.9623(12) 0.0550 Uani
C103 C 0.6065(10) 0.7480(10) 0.9517(11) 0.0335 Uani
H62 H 0.7271 0.7598 0.9200 0.0660 Uiso
H71 H 0.5798 0.7821 0.9098 0.0400 Uiso
loop_
_atom_site_aniso_label
_atom_site_aniso_U_11
_atom_site_aniso_U_22
_atom_site_aniso_U_33
_atom_site_aniso_U_23
_atom_site_aniso_U_13
_atom_site_aniso_U_12
C108 0.034 0.036 0.014 0.007 -0.007 0.013
C112 0.018 0.017 0.017 -0.0008 0.0001 -0.0026
C116 0.036 0.03 0.019 -0.007 -0.007 -0.004
C117 0.059 0.075 0.062 -0.016 -0.016 -0.004
C121 0.058 0.051 0.062 -0.008 0.018 -0.004
C122 0.036 0.032 0.026 -0.006 0.005 -0.008
Zn12 0.043 0.0115 0.0043 -0.0015 -0.0019 -0.0087
C109 0.028 0.029 0.015 0 0.013 0.005
C113 0.021 0.02 0.02 -0.0002 -0.0002 -0.0027
C118 0.034 0.036 0.029 -0.009 0.003 -0.001
C119 0.05 0.048 0.044 -0.009 -0.003 -0.018
C123 0.058 0.029 0.057 -0.01 -0.01 -0.001
C124 0.037 0.039 0.035 -0.002 0.001 -0.001
N12 0.015 0.014 0.014 -0.0002 0 -0.0008
Zn13 0.0315 0.0164 0.0142 -0.0004 -0.0002 -0.0051
O1 0.016 0.013 0.013 -0.0002 0.0002 -0.0024
O3 0.017 0.016 0.016 0.0001 -0.0001 -0.0026
C3 0.014 0.012 0.012 0.0005 0 -0.0023
C5 0.046 0.063 0.069 0.012 0.006 -0.008
C7 0.024 0.023 0.023 -0.0001 0.0002 -0.004
C10 0.016 0.014 0.014 -0.0001 0.0005 -0.0022
C11 0.023 0.021 0.022 -0.0001 0.0001 -0.0026
C15 0.067 0.041 0.024 0.001 0.002 -0.016
C16 0.024 0.023 0.023 0.0006 -0.0003 -0.0032
C21 0.039 0.038 0.038 -0.0003 0 -0.0057
C22 0.085 0.025 0.038 -0.005 0.008 -0.016
O9 0.049 0.047 0.047 -0.0001 -0.0004 -0.0074
O11 0.05 0.025 0.022 -0.003 0.006 -0.017
O12 0.013 0.012 0.011 0.0004 -0.0004 -0.0025
C30 0.047 0.037 0.041 -0.001 0.001 -0.005
C36 0.065 0.058 0.062 0.004 0.001 -0.019
O15 0.051 0.048 0.049 -0.0001 0.0001 -0.0075
O16 0.082 0.037 0.019 -0.004 0 -0.005
N5 0.009 0.007 0.007 0 0 -0.0004
O17 0.048 0.048 0.047 0.0002 0.0002 -0.0074
C42 0.08 0.092 0.077 0.007 0.011 -0.004
C43 0.097 0.087 0.078 -0.013 0.011 -0.021
C51 0.075 0.028 0.027 0.001 0.017 -0.013
C52 0.02 0.019 0.02 -0.0006 -0.0004 -0.0028
C53 0.082 0.086 0.084 0.001 -0.003 -0.012
C54 0.156 0.137 0.124 -0.004 0.004 -0.007
C55 0.114 0.115 0.105 -0.019 0.011 -0.017
C66 0.044 0.02 0.024 -0.004 -0.003 -0.011
C67 0.074 0.072 0.063 0.002 0.002 -0.022
C68 0.076 0.082 0.081 -0.001 0.004 -0.018
C69 0.09 0.095 0.113 0.037 -0.014 -0.014
C76 0.04 0.024 0.021 0 0.006 -0.005
C77 0.019 0.018 0.018 -0.0002 -0.0001 -0.0027
C78 0.043 0.036 0.028 -0.007 -0.006 -0.005
C82 0.057 0.056 0.056 -0.0003 0.0001 -0.0081
C83 0.042 0.017 0.021 0.001 -0.007 -0.003
C84 0.065 0.062 0.062 0 0.001 -0.012
O20 0.047 0.045 0.045 0.0001 -0.0006 -0.0067
C89 0.058 0.057 0.057 -0.0001 -0.0003 -0.0075
C90 0.014 0.012 0.013 0 0.0001 -0.0022
C91 0.086 0.089 0.09 -0.003 -0.003 -0.009
C92 0.042 0.049 0.042 -0.005 0 -0.006
C99 0.054 0.044 0.044 -0.003 0.006 -0.003
C100 0.057 0.068 0.06 -0.003 0.004 -0.009
C101 0.075 0.075 0.075 -0.0001 0.0001 -0.0107
C107 0.1 0.076 0.082 -0.004 0.012 -0.037
C111 0.132 0.121 0.104 0.001 0.008 -0.011
C115 0.097 0.099 0.095 0.006 0.004 -0.028
C120 0.135 0.129 0.125 0 0.003 -0.021
O24 0.014 0.012 0.013 -0.0001 0.0002 -0.0025
O25 0.034 0.034 0.033 0.0002 0.0004 -0.0049
Zn9 0.0372 0.0069 0.0035 0.0027 -0.0005 -0.0048
Zn10 0.0355 0.0216 0.0177 -0.0008 0.0019 -0.0074
O13 0.018 0.016 0.017 0 -0.0004 -0.0026
O14 0.018 0.016 0.016 0.0004 -0.0004 -0.0029
N7 0.052 0.028 0.034 -0.009 -0.015 -0.017
O18 0.023 0.022 0.022 -0.0005 0.0002 -0.004
C62 0.034 0.034 0.034 -0.0001 0 -0.0051
C63 0.089 0.084 0.077 -0.01 0.001 -0.018
C74 0.072 0.106 0.086 -0.002 0.006 -0.017
C75 0.021 0.027 0.016 -0.005 -0.008 -0.002
C81 0.034 0.032 0.032 -0.0005 0.0003 -0.004
C88 0.044 0.042 0.047 -0.009 -0.012 -0.014
C97 0.052 0.065 0.055 0.003 0.003 -0.007
C98 0.079 0.089 0.082 -0.013 -0.003 -0.019
C105 0.058 0.083 0.061 -0.003 0.018 -0.034
C106 0.018 0.018 0.018 0.0001 -0.0002 -0.003
N1 0.047 0.045 0.045 0.0002 -0.0005 -0.0067
N2 0.03 0.029 0.025 0.002 -0.004 0.004
C1 0.031 0.02 0.02 -0.001 -0.006 -0.011
C2 0.051 0.057 0.043 0.001 0.002 -0.012
C6 0.042 0.048 0.034 0.008 0.002 -0.004
C9 0.038 0.037 0.036 0.0002 -0.0004 -0.0046
C14 0.042 0.021 0.041 0.009 0.001 -0.007
O8 0.087 0.029 0.025 -0.002 0.004 -0.03
C24 0.048 0.046 0.038 0.003 0.002 -0.01
C32 0.074 0.071 0.072 0.003 -0.004 -0.017
C39 0.044 0.043 0.035 0.01 -0.001 -0.002
C46 0.02 0.02 0.02 0.0003 -0.0001 -0.0027
O2 0.008 0.005 0.005 0 0.0002 -0.0019
C4 0.024 0.022 0.023 -0.0003 0.0003 -0.004
O5 0.049 0.037 0.043 0.006 0.006 -0.021
C8 0.028 0.028 0.028 0 -0.0004 -0.0036
C12 0.019 0.018 0.018 0.0001 -0.0004 -0.003
O7 0.055 0.03 0.036 -0.005 -0.007 -0.005
C17 0.04 0.04 0.039 -0.0003 0.0003 -0.0059
C18 0.026 0.025 0.025 0.0001 -0.0002 -0.0044
C23 0.041 0.026 0.025 -0.001 0.001 -0.009
C25 0.076 0.066 0.12 0.022 -0.031 -0.061
O10 0.076 0.04 0.04 -0.003 0 -0.019
C26 0.025 0.023 0.023 0.0001 0 -0.0033
C31 0.051 0.034 0.031 0.005 -0.001 -0.012
C33 0.054 0.055 0.05 0.004 -0.001 -0.008
C34 0.087 0.073 0.071 -0.004 0.005 -0.017
C37 0.042 0.022 0.028 -0.002 -0.006 -0.001
C38 0.018 0.017 0.017 0 0.0004 -0.0023
C40 0.085 0.071 0.07 -0.007 -0.008 -0.012
C44 0.084 0.084 0.084 0 0.0001 -0.012
C45 0.043 0.023 0.019 -0.001 0.005 -0.005
C47 0.08 0.07 0.077 -0.013 0.006 -0.006
C48 0.094 0.087 0.093 0.003 -0.012 -0.022
O19 0.041 0.037 0.037 -0.0006 -0.0008 -0.0065
C56 0.035 0.034 0.034 -0.0004 0.0003 -0.0053
C57 0.026 0.024 0.025 -0.0003 -0.0003 -0.0039
C60 0.142 0.14 0.131 -0.018 0.006 -0.01
C61 0.135 0.135 0.135 0 0 -0.0192
C70 0.087 0.071 0.081 0.001 -0.004 -0.023
C73 0.119 0.122 0.122 0 -0.005 -0.014
C79 0.08 0.065 0.065 -0.001 0.003 -0.011
C85 0.083 0.08 0.078 -0.001 -0.007 -0.005
C86 0.068 0.072 0.073 -0.011 0.008 -0.005
C93 0.194 0.194 0.194 -0.0002 0 -0.027
C94 0.126 0.128 0.129 -0.008 -0.002 -0.019
C102 0.123 0.123 0.123 -0.0002 0.0001 -0.0174
C19 0.032 0.033 0.025 0.007 -0.003 -0.008
C20 0.058 0.078 0.054 0.001 -0.004 -0.005
C28 0.068 0.076 0.055 0.003 -0.001 -0.017
C29 0.1 0.106 0.1 0.002 -0.001 -0.014
C35 0.063 0.063 0.063 0.0001 0 -0.0092
C41 0.02 0.02 0.019 0.0007 0 -0.0025
C49 0.045 0.05 0.044 -0.002 -0.004 -0.006
C50 0.064 0.064 0.064 0.0001 0 -0.009
C59 0.038 0.038 0.038 0.0001 -0.0003 -0.0053
C64 0.028 0.024 0.013 0.003 0.002 -0.001
C65 0.043 0.044 0.032 0.006 -0.001 -0.002
C72 0.118 0.089 0.09 -0.002 -0.014 -0.015
C80 0.028 0.028 0.028 0.0003 0.0001 -0.0036
C87 0.022 0.022 0.021 0.0001 -0.0003 -0.0029
C96 0.04 0.04 0.04 0.0006 0.0001 -0.0057
C104 0.086 0.087 0.089 0.002 -0.002 -0.015
C110 0.107 0.116 0.111 0.002 -0.01 -0.014
C114 0.183 0.181 0.174 -0.004 0.002 -0.034
C58 0.029 0.038 0.032 0.004 0 -0.01
C71 0.102 0.102 0.102 -0.0001 -0.0001 -0.0143
C95 0.055 0.055 0.055 -0.0005 0 -0.0076
C103 0.035 0.035 0.032 0.006 0.003 -0.01
loop_
_geom_bond_atom_site_label_1
_geom_bond_atom_site_label_2
_geom_bond_site_symmetry_1
_geom_bond_site_symmetry_2
C112 C108 1_555 1_555
C116 C112 1_555 1_555
C117 C112 1_555 1_555
H79 C116 1_555 1_555
C121 C116 1_555 1_555
C122 C117 1_555 1_555
H80 C117 1_555 1_555
H84 C121 1_555 1_555
H85 C122 1_555 1_555
N11 C121 1_555 1_555
Zn12 N11 1_555 1_555
C122 N11 1_555 1_555
C113 C109 1_555 1_555
C118 C113 1_555 1_555
C119 C113 1_555 1_555
H81 C118 1_555 1_555
C123 C118 1_555 1_555
C124 C119 1_555 1_555
H82 C119 1_555 1_555
H86 C123 1_555 1_555
H87 C124 1_555 1_555
N12 C123 1_555 1_555
Zn13 N12 1_555 1_555
C124 N12 1_555 1_555
C3 O1 1_555 1_555
C7 C3 1_555 1_555
C10 C7 1_555 1_555
C11 C7 1_555 1_555
H5 C10 1_555 1_555
C15 C10 1_555 1_555
C16 C11 1_555 1_555
H6 C11 1_555 1_555
C21 C15 1_555 1_555
C22 C15 1_555 1_555
O9 C16 1_555 1_555
O11 C21 1_555 1_555
O12 C21 1_555 1_555
H10 C22 1_555 1_555
C30 O9 1_555 1_555
Zn12 O11 1_555 1_555
Zn13 O12 1_555 1_555
H16 C30 1_555 1_555
H17 C30 1_555 1_555
C36 C30 1_555 1_555
O15 Zn12 1_555 1_555
O16 Zn12 1_555 1_555
N5 Zn12 1_555 1_555
O17 Zn12 1_555 1_555
C42 C36 1_555 1_555
C43 C36 1_555 1_555
C51 O15 1_555 1_555
C52 N5 1_555 1_555
C53 N5 1_555 1_555
H24 C42 1_555 1_555
C54 C42 1_555 1_555
H25 C43 1_555 1_555
C55 C43 1_555 1_555
C66 C51 1_555 1_555
H30 C52 1_555 1_555
C67 C52 1_555 1_555
C68 C53 1_555 1_555
H31 C53 1_555 1_555
C69 C54 1_555 1_555
H32 C54 1_555 1_555
H33 C55 1_555 1_555
C76 C66 1_555 1_555
C77 C66 1_555 1_555
C78 C67 1_555 1_555
H43 C67 1_555 1_555
H44 C68 1_555 1_555
H45 C69 1_555 1_555
H53 C76 1_555 1_555
C82 C76 1_555 1_555
C83 C77 1_555 1_555
H54 C77 1_555 1_555
C84 C78 1_555 1_555
O20 C82 1_555 1_555
C89 C82 1_555 1_555
C90 C83 1_555 1_555
C91 C84 1_555 1_555
C92 C84 1_555 1_555
C99 O20 1_555 1_555
H57 C89 1_555 1_555
C100 C91 1_555 1_555
H58 C91 1_555 1_555
C101 C92 1_555 1_555
H59 C92 1_555 1_555
H66 C99 1_555 1_555
C107 C99 1_555 1_555
H68 C100 1_555 1_555
C111 C107 1_555 1_555
C115 C111 1_555 1_555
H76 C111 1_555 1_555
H78 C115 1_555 1_555
H83 C120 1_555 1_555
O24 C90 1_555 1_555
O25 C90 1_555 1_555
Zn9 O24 1_555 1_555
Zn10 O25 1_555 1_555
O3 C3 1_555 1_555
C16 C22 1_555 1_555
O16 C51 1_555 1_555
C55 C69 1_555 1_555
C68 C78 1_555 1_555
C83 C89 1_555 1_555
C115 C120 1_555 1_555
O13 C27 1_555 1_555
O14 C27 1_555 1_555
N7 C62 1_555 1_555
O18 Zn13 1_555 1_555
C62 H39 1_555 1_555
C63 N7 1_555 1_555
C74 C62 1_555 1_555
C75 C63 1_555 1_555
H40 C63 1_555 1_555
C81 C74 1_555 1_555
H51 C74 1_555 1_555
H52 C75 1_555 1_555
C88 C81 1_555 1_555
C97 C88 1_555 1_555
C98 C88 1_555 1_555
H64 C97 1_555 1_555
C105 C97 1_555 1_555
H65 C98 1_555 1_555
C106 C98 1_555 1_555
H73 C105 1_555 1_555
H74 C106 1_555 1_555
Zn13 O13 1_555 1_555
O14 Zn13 1_555 1_555
N7 Zn13 1_555 1_555
C75 C81 1_555 1_555
Zn9 N1 1_555 1_555
N1 C1 1_555 1_555
N2 Zn9 1_555 1_555
C2 N1 1_555 1_555
C6 C2 1_555 1_555
H2 C2 1_555 1_555
H4 C6 1_555 1_555
C14 C9 1_555 1_555
O8 Zn10 1_555 1_555
N3 Zn10 1_555 1_555
N4 Zn10 1_555 1_555
C24 N3 1_555 1_555
C32 C24 1_555 1_555
H11 C24 1_555 1_555
C39 C32 1_555 1_555
H18 C32 1_555 1_555
C46 C39 1_555 1_555
C6 C9 1_555 1_555
C4 O2 1_555 1_555
O5 C4 1_555 1_555
C8 C4 1_555 1_555
C12 C8 1_555 1_555
C13 C8 1_555 1_555
H7 C12 1_555 1_555
C17 C12 1_555 1_555
C18 C13 1_555 1_555
C23 O7 1_555 1_555
O10 C17 1_555 1_555
C26 C17 1_555 1_555
C31 C23 1_555 1_555
H12 C25 1_555 1_555
C33 C25 1_555 1_555
C34 O10 1_555 1_555
H13 C26 1_555 1_555
C37 C31 1_555 1_555
C38 C31 1_555 1_555
H19 C33 1_555 1_555
H20 C34 1_555 1_555
H21 C34 1_555 1_555
C40 C34 1_555 1_555
H22 C37 1_555 1_555
C44 C37 1_555 1_555
C45 C38 1_555 1_555
H23 C38 1_555 1_555
C47 C40 1_555 1_555
C48 C40 1_555 1_555
O19 C44 1_555 1_555
C56 C44 1_555 1_555
C57 C45 1_555 1_555
C60 C47 1_555 1_555
H26 C47 1_555 1_555
C61 C48 1_555 1_555
H27 C48 1_555 1_555
C70 O19 1_555 1_555
H34 C56 1_555 1_555
C73 C60 1_555 1_555
H37 C60 1_555 1_555
H38 C61 1_555 1_555
H46 C70 1_555 1_555
H47 C70 1_555 1_555
C79 C70 1_555 1_555
H50 C73 1_555 1_555
C85 C79 1_555 1_555
C86 C79 1_555 1_555
H55 C85 1_555 1_555
C93 C85 1_555 1_555
C94 C86 1_555 1_555
H60 C93 1_555 1_555
C102 C93 1_555 1_555
H61 C94 1_555 1_555
H70 C102 1_555 1_555
O18 C57 1_555 1_555
O17 C57 1_555 1_555
C18 C26 1_555 1_555
C45 C56 1_555 1_555
C61 C73 1_555 1_555
C94 C102 1_555 1_555
C28 C19 1_555 1_555
C29 C20 1_555 1_555
C35 C28 1_555 1_555
H14 C28 1_555 1_555
C41 C35 1_555 1_555
C49 C41 1_555 1_555
C50 C41 1_555 1_555
H28 C49 1_555 1_555
C64 C49 1_555 1_555
C65 C50 1_555 1_555
C72 C59 1_555 1_555
H41 C64 1_555 1_555
H49 C72 1_555 1_555
C87 C80 1_555 1_555
C96 C87 1_555 1_555
C104 C96 1_555 1_555
H63 C96 1_555 1_555
H72 C104 1_555 1_555
N2 C64 1_555 1_555
C29 C35 1_555 1_555
C65 N2 1_555 1_555
C72 C80 1_555 1_555
C104 N4 1_555 1_555
H75 C110 1_555 1_555
C114 C110 1_555 1_555
H77 C114 1_555 1_555
C71 C58 1_555 1_555
H48 C71 1_555 1_555
C103 C95 1_555 1_555
H62 C95 1_555 1_555
H71 C103 1_555 1_555

#END
