
###############################################################################
#
# This file contains modified crystal structure data generated from the
# MOF subset of the Cambridge Structural Database (CSD) v543 
# hosted by the Cambridge Crystallographic Data Centre (CCDC).
#
# This work is licensed under the Creative Commons
# Attribution-NonCommercial-ShareAlike 4.0 International License.
# To view a copy of this license, visit
# http://creativecommons.org/licenses/by-nc-sa/4.0/
# or send a letter to
# Creative Commons, PO Box 1866, Mountain View, CA 94042, USA.
#
# CIF created using the CSD Python API on 29 September 2022
# The structure has been converted into the P1 space group
# The structure has a 3D framework
# The original CSD entry KITVEQ is in the orthorhombic crystal system
# The framework has been calculated to contain at least 10.0% void space
# The void calculation uses a probe of radius 1.32A, grid spacing 0.4
#
###############################################################################

data_KITVEQ
_chemical_formula_moiety         '(C166 H104 N8 O18 Zn2)n'
_symmetry_cell_setting           triclinic
_symmetry_space_group_name_H-M   'P 1'
_symmetry_Int_Tables_number      1
_space_group_name_Hall           'P 1'
loop_
_symmetry_equiv_pos_site_id
_symmetry_equiv_pos_as_xyz
1 x,y,z
_cell_length_a                   15.749(10)
_cell_length_b                   16.425(11)
_cell_length_c                   15.725(11)
_cell_angle_alpha                90
_cell_angle_beta                 90
_cell_angle_gamma                90
_cell_volume                     4067.7
loop_
_atom_site_label
_atom_site_type_symbol
_atom_site_fract_x
_atom_site_fract_y
_atom_site_fract_z
Zn1 Zn 0.3741(3) 0.0366(3) 0.135(3)
O6 O 0.240(2) 0.042(2) 0.136(7)
O7 O 0.302(2) 0.163(2) 0.144(7)
O8 O 0.488(2) 0.097(2) 0.137(7)
N3 N 0.377(5) 0.040(5) 0.271(7)
N2 N 0.384(6) 0.044(5) 0.996(8)
C3 C 0.390(8) 0.050(8) 0.818(9)
C10 C 0.413(8) 0.109(7) 0.875(9)
H4 H 0.4321 0.1572 0.8516
C11 C 0.389(4) 0.048(4) 0.726(5)
C14 C 0.392(10) 0.111(9) 0.317(11)
H7 H 0.4008 0.1595 0.2868
C15 C 0.410(8) 0.105(7) 0.956(9)
H8 H 0.4293 0.1499 0.9867
C17 C 0.394(11) 0.114(11) 0.408(14)
H10 H 0.4031 0.1625 0.4361
C18 C 0.381(8) 0.044(7) 0.454(9)
C37 C 0.420(9) 0.109(9) 0.688(11)
H23 H 0.4467 0.1503 0.7182
C39 C 0.413(18) 0.113(9) 0.598(11)
H25 H 0.4339 0.1591 0.5706
C40 C 0.374(9) 0.047(9) 0.545(10)
O1 O 0.374(2) 0.9131(19) 0.142(7)
O2 O 0.260(2) 0.542(2) 0.136(7)
O3 O 0.198(2) 0.663(2) 0.144(7)
O4 O 0.512(2) 0.903(2) 0.137(7)
O5 O 0.570(3) 0.599(2) 0.166(5)
C1 C 0.435(3) 0.781(3) 0.131(8)
C2 C 0.441(3) 0.873(3) 0.137(8)
C5 C 0.508(4) 0.736(3) 0.150(8)
H2 H 0.5553 0.7556 0.1786
C7 C 0.265(3) 0.619(3) 0.123(7)
C8 C 0.350(3) 0.660(3) 0.121(6)
C9 C 0.500(3) 0.650(3) 0.116(7)
C12 C 0.422(3) 0.613(4) 0.132(9)
H5 H 0.4178 0.5589 0.1482
C13 C 0.355(3) 0.743(3) 0.125(7)
H6 H 0.3058 0.7741 0.1230
C19 C 0.696(11) 0.690(12) 0.432(13)
C20 C 0.690(19) 0.696(16) 0.343(13)
C21 C 0.778(14) 0.719(11) 0.325(15)
H11 H 0.7891 0.7181 0.2670
C22 C 0.632(9) 0.644(9) 0.491(5)
C23 C 0.856(15) 0.743(14) 0.376(19)
H12 H 0.9037 0.7667 0.3506
C24 C 0.852(10) 0.727(14) 0.468(19)
C25 C 0.644(9) 0.641(8) 0.304(10)
C26 C 0.648(6) 0.632(5) 0.198(8)
H13 H 0.6584 0.6851 0.1733
H14 H 0.6954 0.5967 0.1828
C27 C 0.581(12) 0.612(11) 0.431(13)
H15 H 0.5395 0.5824 0.4594
C28 C 0.565(11) 0.604(10) 0.352(13)
H16 H 0.5171 0.5814 0.3276
C29 C 0.761(16) 0.714(16) 0.494(19)
C30 C 0.679(11) 0.674(9) 0.615(15)
H17 H 0.6807 0.6642 0.6732
C31 C 0.842(18) 0.734(13) 0.620(18)
H18 H 0.8531 0.7195 0.6759
C32 C 0.92(2) 0.784(18) 0.48(2)
H19 H 0.9495 0.8182 0.4474
C33 C 0.605(10) 0.636(13) 0.576(5)
H20 H 0.5560 0.6145 0.5990
C34 C 0.754(16) 0.723(18) 0.59(2)
C35 C 0.911(19) 0.766(19) 0.568(19)
H21 H 0.9611 0.7755 0.5984
Zn3 Zn 0.6259(3) 0.9634(3) 0.135(3)
Zn4 Zn 0.1259(3) 0.5366(3) 0.135(3)
O1_2 O 0.626(2) 0.0869(19) 0.142(7)
O2_2 O 0.740(2) 0.458(2) 0.136(7)
O3_2 O 0.802(2) 0.337(2) 0.144(7)
O5_2 O 0.430(3) 0.401(2) 0.166(5)
C1_2 C 0.565(3) 0.219(3) 0.131(8)
C2_2 C 0.559(3) 0.127(3) 0.137(8)
C5_2 C 0.492(4) 0.264(3) 0.150(8)
H2_2 H 0.4447 0.2444 0.1786
C7_2 C 0.735(3) 0.381(3) 0.123(7)
C8_2 C 0.650(3) 0.340(3) 0.121(6)
C9_2 C 0.500(3) 0.350(3) 0.116(7)
C12_2 C 0.578(3) 0.387(4) 0.132(9)
H5_2 H 0.5822 0.4411 0.1482
C13_2 C 0.645(3) 0.257(3) 0.125(7)
H6_2 H 0.6942 0.2259 0.1230
C19_2 C 0.304(11) 0.310(12) 0.432(13)
C20_2 C 0.310(19) 0.304(16) 0.343(13)
C21_2 C 0.222(14) 0.281(11) 0.325(15)
H11_2 H 0.2109 0.2819 0.2670
C22_2 C 0.368(9) 0.356(9) 0.491(5)
C23_2 C 0.144(15) 0.257(14) 0.376(19)
H12_2 H 0.0963 0.2333 0.3506
C24_2 C 0.148(10) 0.273(14) 0.468(19)
C25_2 C 0.356(9) 0.359(8) 0.304(10)
C26_2 C 0.352(6) 0.368(5) 0.198(8)
H13_2 H 0.3416 0.3149 0.1733
H14_2 H 0.3046 0.4033 0.1828
C27_2 C 0.419(12) 0.388(11) 0.431(13)
H15_2 H 0.4605 0.4176 0.4594
C28_2 C 0.435(11) 0.396(10) 0.352(13)
H16_2 H 0.4829 0.4186 0.3276
C29_2 C 0.239(16) 0.286(16) 0.494(19)
C30_2 C 0.321(11) 0.326(9) 0.615(15)
H17_2 H 0.3193 0.3358 0.6732
C31_2 C 0.158(18) 0.266(13) 0.620(18)
H18_2 H 0.1469 0.2805 0.6759
C32_2 C 0.08(2) 0.216(18) 0.48(2)
H19_2 H 0.0505 0.1818 0.4474
C33_2 C 0.395(10) 0.364(13) 0.576(5)
H20_2 H 0.4440 0.3855 0.5990
C34_2 C 0.246(16) 0.277(18) 0.59(2)
C35_2 C 0.089(19) 0.234(19) 0.568(19)
H21_2 H 0.0389 0.2245 0.5984
Zn4_2 Zn 0.8741(3) 0.4634(3) 0.135(3)
O6_2 O 0.760(2) 0.958(2) 0.136(7)
O7_2 O 0.698(2) 0.837(2) 0.144(7)
N3_2 N 0.623(5) 0.960(5) 0.271(7)
N2_2 N 0.616(6) 0.956(5) 0.996(8)
C3_2 C 0.610(8) 0.950(8) 0.818(9)
C10_2 C 0.587(8) 0.891(7) 0.875(9)
H4_2 H 0.5679 0.8428 0.8516
C11_2 C 0.611(4) 0.952(4) 0.726(5)
C14_2 C 0.608(10) 0.889(9) 0.317(11)
H7_2 H 0.5992 0.8405 0.2868
C15_2 C 0.590(8) 0.895(7) 0.956(9)
H8_2 H 0.5707 0.8501 0.9867
C17_2 C 0.606(11) 0.886(11) 0.408(14)
H10_2 H 0.5969 0.8375 0.4361
C18_2 C 0.619(8) 0.956(7) 0.454(9)
C37_2 C 0.580(9) 0.891(9) 0.688(11)
H23_2 H 0.5533 0.8497 0.7182
C39_2 C 0.587(18) 0.887(9) 0.598(11)
H25_2 H 0.5661 0.8409 0.5706
C40_2 C 0.626(9) 0.953(9) 0.545(10)
O1_3 O 0.126(2) 0.4131(19) 0.142(7)
C1_3 C 0.065(3) 0.281(3) 0.131(8)
C2_3 C 0.059(3) 0.373(3) 0.137(8)
C7_3 C 0.235(3) 0.119(3) 0.123(7)
C8_3 C 0.150(3) 0.160(3) 0.121(6)
C9_3 C 0.000(3) 0.150(3) 0.116(7)
C12_3 C 0.078(3) 0.113(4) 0.132(9)
H5_3 H 0.0822 0.0589 0.1482
C13_3 C 0.145(3) 0.243(3) 0.125(7)
H6_3 H 0.1942 0.2741 0.1230
O8_2 O 0.012(2) 0.597(2) 0.137(7)
N3_3 N 0.123(5) 0.540(5) 0.271(7)
N2_3 N 0.116(6) 0.544(5) 0.996(8)
C3_3 C 0.110(8) 0.550(8) 0.818(9)
C4 C 0.131(5) 0.475(4) 0.323(6)
H1 H 0.1334 0.4246 0.2958
C6 C 0.135(6) 0.473(5) 0.407(8)
H3 H 0.1478 0.4244 0.4346
C10_3 C 0.087(8) 0.609(7) 0.875(9)
H4_3 H 0.0679 0.6572 0.8516
C11_3 C 0.111(4) 0.548(4) 0.726(5)
C14_3 C 0.108(10) 0.611(9) 0.317(11)
H7_3 H 0.0992 0.6595 0.2868
C15_3 C 0.090(8) 0.605(7) 0.956(9)
H8_3 H 0.0707 0.6499 0.9867
C16 C 0.136(12) 0.495(10) 0.877(12)
H9 H 0.1458 0.4453 0.8502
C17_3 C 0.106(11) 0.614(11) 0.408(14)
H10_3 H 0.0969 0.6625 0.4361
C18_3 C 0.119(8) 0.544(7) 0.454(9)
C36 C 0.150(15) 0.492(15) 0.586(17)
H22 H 0.1712 0.4479 0.5563
C37_3 C 0.080(9) 0.609(9) 0.688(11)
H23_3 H 0.0533 0.6503 0.7182
C38 C 0.149(11) 0.487(8) 0.677(9)
H24 H 0.1741 0.4422 0.7031
C39_3 C 0.087(18) 0.613(9) 0.598(11)
H25_3 H 0.0661 0.6591 0.5706
C40_3 C 0.126(9) 0.547(9) 0.545(10)
C41 C 0.155(9) 0.486(8) 0.964(11)
H26 H 0.1879 0.4460 0.9900
O4_2 O 0.988(2) 0.403(2) 0.137(7)
O5_3 O 0.930(3) 0.099(2) 0.166(5)
C5_3 C 0.992(4) 0.236(3) 0.150(8)
H2_3 H 0.9447 0.2556 0.1786
C9_4 C 1.000(3) 0.150(3) 0.116(7)
C19_3 C 0.804(11) 0.190(12) 0.432(13)
C20_3 C 0.810(19) 0.196(16) 0.343(13)
C21_3 C 0.722(14) 0.219(11) 0.325(15)
H11_3 H 0.7109 0.2181 0.2670
C22_3 C 0.868(9) 0.144(9) 0.491(5)
C23_3 C 0.644(15) 0.243(14) 0.376(19)
H12_3 H 0.5963 0.2667 0.3506
C24_3 C 0.648(10) 0.227(14) 0.468(19)
C25_3 C 0.856(9) 0.141(8) 0.304(10)
C26_3 C 0.852(6) 0.132(5) 0.198(8)
H13_3 H 0.8416 0.1851 0.1733
H14_3 H 0.8046 0.0967 0.1828
C27_3 C 0.919(12) 0.112(11) 0.431(13)
H15_3 H 0.9605 0.0824 0.4594
C28_3 C 0.935(11) 0.104(10) 0.352(13)
H16_3 H 0.9829 0.0814 0.3276
C29_3 C 0.739(16) 0.214(16) 0.494(19)
C30_3 C 0.821(11) 0.174(9) 0.615(15)
H17_3 H 0.8193 0.1642 0.6732
C31_3 C 0.658(18) 0.234(13) 0.620(18)
H18_3 H 0.6469 0.2195 0.6759
C32_3 C 0.58(2) 0.284(18) 0.48(2)
H19_3 H 0.5505 0.3182 0.4474
C33_3 C 0.895(10) 0.136(13) 0.576(5)
H20_3 H 0.9440 0.1145 0.5990
C34_3 C 0.746(16) 0.223(18) 0.59(2)
C35_3 C 0.589(19) 0.266(19) 0.568(19)
H21_3 H 0.5389 0.2755 0.5984
O5_4 O 0.070(3) 0.901(2) 0.166(5)
C5_4 C 0.008(4) 0.764(3) 0.150(8)
H2_4 H 0.0553 0.7444 0.1786
C9_5 C -0.000(3) 0.850(3) 0.116(7)
C19_4 C 0.196(11) 0.810(12) 0.432(13)
C20_4 C 0.190(19) 0.804(16) 0.343(13)
C21_4 C 0.278(14) 0.781(11) 0.325(15)
H11_4 H 0.2891 0.7819 0.2670
C22_4 C 0.132(9) 0.856(9) 0.491(5)
C23_4 C 0.356(15) 0.757(14) 0.376(19)
H12_4 H 0.4037 0.7333 0.3506
C24_4 C 0.352(10) 0.773(14) 0.468(19)
C25_4 C 0.144(9) 0.859(8) 0.304(10)
C26_4 C 0.148(6) 0.868(5) 0.198(8)
H13_4 H 0.1584 0.8149 0.1733
H14_4 H 0.1954 0.9033 0.1828
C27_4 C 0.081(12) 0.888(11) 0.431(13)
H15_4 H 0.0395 0.9176 0.4594
C28_4 C 0.065(11) 0.896(10) 0.352(13)
H16_4 H 0.0171 0.9186 0.3276
C29_4 C 0.261(16) 0.786(16) 0.494(19)
C30_4 C 0.179(11) 0.826(9) 0.615(15)
H17_4 H 0.1807 0.8358 0.6732
C31_4 C 0.342(18) 0.766(13) 0.620(18)
H18_4 H 0.3531 0.7805 0.6759
C32_4 C 0.42(2) 0.716(18) 0.48(2)
H19_4 H 0.4495 0.6818 0.4474
C33_4 C 0.105(10) 0.864(13) 0.576(5)
H20_4 H 0.0560 0.8855 0.5990
C34_4 C 0.254(16) 0.777(18) 0.59(2)
C35_4 C 0.411(19) 0.734(19) 0.568(19)
H21_4 H 0.4611 0.7245 0.5984
O1_4 O 0.874(2) 0.5869(19) 0.142(7)
C1_4 C 0.935(3) 0.719(3) 0.131(8)
C2_4 C 0.941(3) 0.627(3) 0.137(8)
C7_4 C 0.765(3) 0.881(3) 0.123(7)
C8_4 C 0.850(3) 0.840(3) 0.121(6)
C9_6 C 1.000(3) 0.850(3) 0.116(7)
C12_4 C 0.922(3) 0.887(4) 0.132(9)
H5_4 H 0.9178 0.9411 0.1482
C13_4 C 0.855(3) 0.757(3) 0.125(7)
H6_4 H 0.8058 0.7259 0.1230
N3_4 N 0.877(5) 0.460(5) 0.271(7)
N2_4 N 0.884(6) 0.456(5) 0.996(8)
C3_4 C 0.890(8) 0.450(8) 0.818(9)
C4_2 C 0.869(5) 0.525(4) 0.323(6)
H1_2 H 0.8666 0.5754 0.2958
C6_2 C 0.865(6) 0.527(5) 0.407(8)
H3_2 H 0.8522 0.5756 0.4346
C10_4 C 0.913(8) 0.391(7) 0.875(9)
H4_4 H 0.9321 0.3428 0.8516
C11_4 C 0.889(4) 0.452(4) 0.726(5)
C14_4 C 0.892(10) 0.389(9) 0.317(11)
H7_4 H 0.9008 0.3405 0.2868
C15_4 C 0.910(8) 0.395(7) 0.956(9)
H8_4 H 0.9293 0.3501 0.9867
C16_2 C 0.864(12) 0.505(10) 0.877(12)
H9_2 H 0.8542 0.5547 0.8502
C17_4 C 0.894(11) 0.386(11) 0.408(14)
H10_4 H 0.9031 0.3375 0.4361
C18_4 C 0.881(8) 0.456(7) 0.454(9)
C36_2 C 0.850(15) 0.508(15) 0.586(17)
H22_2 H 0.8288 0.5521 0.5563
C37_4 C 0.920(9) 0.391(9) 0.688(11)
H23_4 H 0.9467 0.3497 0.7182
C38_2 C 0.851(11) 0.513(8) 0.677(9)
H24_2 H 0.8259 0.5578 0.7031
C39_4 C 0.913(18) 0.387(9) 0.598(11)
H25_4 H 0.9339 0.3409 0.5706
C40_4 C 0.874(9) 0.453(9) 0.545(10)
C41_2 C 0.845(9) 0.514(8) 0.964(11)
H26_2 H 0.8121 0.5540 0.9900
C4_3 C 0.369(5) 0.975(4) 0.323(6)
H1_3 H 0.3666 0.9246 0.2958
C6_3 C 0.365(6) 0.973(5) 0.407(8)
H3_3 H 0.3522 0.9244 0.4346
C16_3 C 0.364(12) 0.995(10) 0.877(12)
H9_3 H 0.3542 0.9453 0.8502
C36_3 C 0.350(15) 0.992(15) 0.586(17)
H22_3 H 0.3288 0.9479 0.5563
C38_3 C 0.351(11) 0.987(8) 0.677(9)
H24_3 H 0.3259 0.9422 0.7031
C41_3 C 0.345(9) 0.986(8) 0.964(11)
H26_3 H 0.3121 0.9460 0.9900
C4_4 C 0.631(5) 0.025(4) 0.323(6)
H1_4 H 0.6334 0.0754 0.2958
C6_4 C 0.635(6) 0.027(5) 0.407(8)
H3_4 H 0.6478 0.0756 0.4346
C16_4 C 0.636(12) 0.005(10) 0.877(12)
H9_4 H 0.6458 0.0547 0.8502
C36_4 C 0.650(15) 0.008(15) 0.586(17)
H22_4 H 0.6712 0.0521 0.5563
C38_4 C 0.649(11) 0.013(8) 0.677(9)
H24_4 H 0.6741 0.0578 0.7031
C41_4 C 0.655(9) 0.014(8) 0.964(11)
H26_4 H 0.6879 0.0540 0.9900
loop_
_geom_bond_atom_site_label_1
_geom_bond_atom_site_label_2
_geom_bond_site_symmetry_1
_geom_bond_site_symmetry_2
O6 Zn1 1_555 1_555
O7 Zn1 1_555 1_555
O8 Zn1 1_555 1_555
N3 Zn1 1_555 1_555
C3 C10 1_555 1_555
C10 H4 1_555 1_555
C11 C3 1_555 1_555
C14 N3 1_555 1_555
H7 C14 1_555 1_555
C15 N2 1_555 1_555
H8 C15 1_555 1_555
C17 C14 1_555 1_555
H10 C17 1_555 1_555
C37 C11 1_555 1_555
H23 C37 1_555 1_555
C39 C37 1_555 1_555
H25 C39 1_555 1_555
C40 C18 1_555 1_555
C10 C15 1_555 1_555
C17 C18 1_555 1_555
C39 C40 1_555 1_555
O1 C2 1_555 1_555
O2 C7 1_555 1_555
O3 C7 1_555 1_555
O4 C2 1_555 1_555
O5 C9 1_555 1_555
C1 C2 1_555 1_555
C5 C1 1_555 1_555
H2 C5 1_555 1_555
C7 C8 1_555 1_555
C8 C12 1_555 1_555
C9 C5 1_555 1_555
C12 C9 1_555 1_555
H5 C12 1_555 1_555
C13 C1 1_555 1_555
H6 C13 1_555 1_555
C19 C20 1_555 1_555
C20 C21 1_555 1_555
C21 H11 1_555 1_555
C22 C19 1_555 1_555
C23 C21 1_555 1_555
H12 C23 1_555 1_555
C24 C23 1_555 1_555
C25 C20 1_555 1_555
C26 O5 1_555 1_555
H13 C26 1_555 1_555
H14 C26 1_555 1_555
C27 C22 1_555 1_555
H15 C27 1_555 1_555
C28 C25 1_555 1_555
H16 C28 1_555 1_555
C29 C19 1_555 1_555
C30 H17 1_555 1_555
C31 H18 1_555 1_555
C32 C24 1_555 1_555
H19 C32 1_555 1_555
C33 C22 1_555 1_555
H20 C33 1_555 1_555
C34 C29 1_555 1_555
C35 C31 1_555 1_555
H21 C35 1_555 1_555
Zn3 O4 1_555 1_555
Zn4 O2 1_555 1_555
O3 Zn4 1_555 1_555
C8 C13 1_555 1_555
C24 C29 1_555 1_555
C25 C26 1_555 1_555
C27 C28 1_555 1_555
C30 C33 1_555 1_555
C30 C34 1_555 1_555
C31 C34 1_555 1_555
C32 C35 1_555 1_555
O1_2 C2_2 1_555 1_555
O2_2 C7_2 1_555 1_555
O3_2 C7_2 1_555 1_555
O8 C2_2 1_555 1_555
O5_2 C9_2 1_555 1_555
C1_2 C2_2 1_555 1_555
C5_2 C1_2 1_555 1_555
H2_2 C5_2 1_555 1_555
C7_2 C8_2 1_555 1_555
C8_2 C12_2 1_555 1_555
C9_2 C5_2 1_555 1_555
C12_2 C9_2 1_555 1_555
H5_2 C12_2 1_555 1_555
C13_2 C1_2 1_555 1_555
H6_2 C13_2 1_555 1_555
C19_2 C20_2 1_555 1_555
C20_2 C21_2 1_555 1_555
C21_2 H11_2 1_555 1_555
C22_2 C19_2 1_555 1_555
C23_2 C21_2 1_555 1_555
H12_2 C23_2 1_555 1_555
C24_2 C23_2 1_555 1_555
C25_2 C20_2 1_555 1_555
C26_2 O5_2 1_555 1_555
H13_2 C26_2 1_555 1_555
H14_2 C26_2 1_555 1_555
C27_2 C22_2 1_555 1_555
H15_2 C27_2 1_555 1_555
C28_2 C25_2 1_555 1_555
H16_2 C28_2 1_555 1_555
C29_2 C19_2 1_555 1_555
C30_2 H17_2 1_555 1_555
C31_2 H18_2 1_555 1_555
C32_2 C24_2 1_555 1_555
H19_2 C32_2 1_555 1_555
C33_2 C22_2 1_555 1_555
H20_2 C33_2 1_555 1_555
C34_2 C29_2 1_555 1_555
C35_2 C31_2 1_555 1_555
H21_2 C35_2 1_555 1_555
Zn4_2 O2_2 1_555 1_555
O3_2 Zn4_2 1_555 1_555
C8_2 C13_2 1_555 1_555
C24_2 C29_2 1_555 1_555
C25_2 C26_2 1_555 1_555
C27_2 C28_2 1_555 1_555
C30_2 C33_2 1_555 1_555
C30_2 C34_2 1_555 1_555
C31_2 C34_2 1_555 1_555
C32_2 C35_2 1_555 1_555
O6_2 Zn3 1_555 1_555
O7_2 Zn3 1_555 1_555
N3_2 Zn3 1_555 1_555
C3_2 C10_2 1_555 1_555
C10_2 H4_2 1_555 1_555
C11_2 C3_2 1_555 1_555
C14_2 N3_2 1_555 1_555
H7_2 C14_2 1_555 1_555
C15_2 N2_2 1_555 1_555
H8_2 C15_2 1_555 1_555
C17_2 C14_2 1_555 1_555
H10_2 C17_2 1_555 1_555
C37_2 C11_2 1_555 1_555
H23_2 C37_2 1_555 1_555
C39_2 C37_2 1_555 1_555
H25_2 C39_2 1_555 1_555
C40_2 C18_2 1_555 1_555
C10_2 C15_2 1_555 1_555
C17_2 C18_2 1_555 1_555
C39_2 C40_2 1_555 1_555
Zn4 O1_3 1_555 1_555
O1_3 C2_3 1_555 1_555
O6 C7_3 1_555 1_555
O7 C7_3 1_555 1_555
C1_3 C2_3 1_555 1_555
C7_3 C8_3 1_555 1_555
C8_3 C12_3 1_555 1_555
C12_3 C9_3 1_555 1_555
H5_3 C12_3 1_555 1_555
C13_3 C1_3 1_555 1_555
H6_3 C13_3 1_555 1_555
O8_2 Zn4 1_555 1_555
N3_3 Zn4 1_555 1_555
C8_3 C13_3 1_555 1_555
N3_3 C4 1_555 1_555
C3_3 C10_3 1_555 1_555
C4 H1 1_555 1_555
C6 C4 1_555 1_555
H3 C6 1_555 1_555
C10_3 H4_3 1_555 1_555
C11_3 C3_3 1_555 1_555
C14_3 N3_3 1_555 1_555
H7_3 C14_3 1_555 1_555
C15_3 N2_3 1_555 1_555
H8_3 C15_3 1_555 1_555
C16 C3_3 1_555 1_555
H9 C16 1_555 1_555
C17_3 C14_3 1_555 1_555
H10_3 C17_3 1_555 1_555
C18_3 C6 1_555 1_555
C36 H22 1_555 1_555
C37_3 C11_3 1_555 1_555
H23_3 C37_3 1_555 1_555
C38 C11_3 1_555 1_555
H24 C38 1_555 1_555
C39_3 C37_3 1_555 1_555
H25_3 C39_3 1_555 1_555
C40_3 C18_3 1_555 1_555
C41 N2_3 1_555 1_555
H26 C41 1_555 1_555
C10_3 C15_3 1_555 1_555
C16 C41 1_555 1_555
C17_3 C18_3 1_555 1_555
C36 C38 1_555 1_555
C36 C40_3 1_555 1_555
C39_3 C40_3 1_555 1_555
O5_3 C9_4 1_555 1_555
H2_3 C5_3 1_555 1_555
C9_4 C5_3 1_555 1_555
C19_3 C20_3 1_555 1_555
C20_3 C21_3 1_555 1_555
C21_3 H11_3 1_555 1_555
C22_3 C19_3 1_555 1_555
C23_3 C21_3 1_555 1_555
H12_3 C23_3 1_555 1_555
C24_3 C23_3 1_555 1_555
C25_3 C20_3 1_555 1_555
C26_3 O5_3 1_555 1_555
H13_3 C26_3 1_555 1_555
H14_3 C26_3 1_555 1_555
C27_3 C22_3 1_555 1_555
H15_3 C27_3 1_555 1_555
C28_3 C25_3 1_555 1_555
H16_3 C28_3 1_555 1_555
C29_3 C19_3 1_555 1_555
C30_3 H17_3 1_555 1_555
C31_3 H18_3 1_555 1_555
C32_3 C24_3 1_555 1_555
H19_3 C32_3 1_555 1_555
C33_3 C22_3 1_555 1_555
H20_3 C33_3 1_555 1_555
C34_3 C29_3 1_555 1_555
C35_3 C31_3 1_555 1_555
H21_3 C35_3 1_555 1_555
Zn4_2 O4_2 1_555 1_555
C24_3 C29_3 1_555 1_555
C25_3 C26_3 1_555 1_555
C27_3 C28_3 1_555 1_555
C30_3 C33_3 1_555 1_555
C30_3 C34_3 1_555 1_555
C31_3 C34_3 1_555 1_555
C32_3 C35_3 1_555 1_555
O5_4 C9_5 1_555 1_555
H2_4 C5_4 1_555 1_555
C9_5 C5_4 1_555 1_555
C19_4 C20_4 1_555 1_555
C20_4 C21_4 1_555 1_555
C21_4 H11_4 1_555 1_555
C22_4 C19_4 1_555 1_555
C23_4 C21_4 1_555 1_555
H12_4 C23_4 1_555 1_555
C24_4 C23_4 1_555 1_555
C25_4 C20_4 1_555 1_555
C26_4 O5_4 1_555 1_555
H13_4 C26_4 1_555 1_555
H14_4 C26_4 1_555 1_555
C27_4 C22_4 1_555 1_555
H15_4 C27_4 1_555 1_555
C28_4 C25_4 1_555 1_555
H16_4 C28_4 1_555 1_555
C29_4 C19_4 1_555 1_555
C30_4 H17_4 1_555 1_555
C31_4 H18_4 1_555 1_555
C32_4 C24_4 1_555 1_555
H19_4 C32_4 1_555 1_555
C33_4 C22_4 1_555 1_555
H20_4 C33_4 1_555 1_555
C34_4 C29_4 1_555 1_555
C35_4 C31_4 1_555 1_555
H21_4 C35_4 1_555 1_555
C24_4 C29_4 1_555 1_555
C25_4 C26_4 1_555 1_555
C27_4 C28_4 1_555 1_555
C30_4 C33_4 1_555 1_555
C30_4 C34_4 1_555 1_555
C31_4 C34_4 1_555 1_555
C32_4 C35_4 1_555 1_555
Zn4_2 O1_4 1_555 1_555
O1_4 C2_4 1_555 1_555
O6_2 C7_4 1_555 1_555
O7_2 C7_4 1_555 1_555
C1_4 C2_4 1_555 1_555
C7_4 C8_4 1_555 1_555
C8_4 C12_4 1_555 1_555
C12_4 C9_6 1_555 1_555
H5_4 C12_4 1_555 1_555
C13_4 C1_4 1_555 1_555
H6_4 C13_4 1_555 1_555
N3_4 Zn4_2 1_555 1_555
C8_4 C13_4 1_555 1_555
N3_4 C4_2 1_555 1_555
C3_4 C10_4 1_555 1_555
C4_2 H1_2 1_555 1_555
C6_2 C4_2 1_555 1_555
H3_2 C6_2 1_555 1_555
C10_4 H4_4 1_555 1_555
C11_4 C3_4 1_555 1_555
C14_4 N3_4 1_555 1_555
H7_4 C14_4 1_555 1_555
C15_4 N2_4 1_555 1_555
H8_4 C15_4 1_555 1_555
C16_2 C3_4 1_555 1_555
H9_2 C16_2 1_555 1_555
C17_4 C14_4 1_555 1_555
H10_4 C17_4 1_555 1_555
C18_4 C6_2 1_555 1_555
C36_2 H22_2 1_555 1_555
C37_4 C11_4 1_555 1_555
H23_4 C37_4 1_555 1_555
C38_2 C11_4 1_555 1_555
H24_2 C38_2 1_555 1_555
C39_4 C37_4 1_555 1_555
H25_4 C39_4 1_555 1_555
C40_4 C18_4 1_555 1_555
C41_2 N2_4 1_555 1_555
H26_2 C41_2 1_555 1_555
C10_4 C15_4 1_555 1_555
C16_2 C41_2 1_555 1_555
C17_4 C18_4 1_555 1_555
C36_2 C38_2 1_555 1_555
C36_2 C40_4 1_555 1_555
C39_4 C40_4 1_555 1_555
C4_3 H1_3 1_555 1_555
C6_3 C4_3 1_555 1_555
H3_3 C6_3 1_555 1_555
H9_3 C16_3 1_555 1_555
C36_3 H22_3 1_555 1_555
H24_3 C38_3 1_555 1_555
H26_3 C41_3 1_555 1_555
C16_3 C41_3 1_555 1_555
C36_3 C38_3 1_555 1_555
C4_4 H1_4 1_555 1_555
C6_4 C4_4 1_555 1_555
H3_4 C6_4 1_555 1_555
H9_4 C16_4 1_555 1_555
C36_4 H22_4 1_555 1_555
H24_4 C38_4 1_555 1_555
H26_4 C41_4 1_555 1_555
C16_4 C41_4 1_555 1_555
C36_4 C38_4 1_555 1_555

#END
