
###############################################################################
#
# This file contains modified crystal structure data generated from the
# MOF subset of the Cambridge Structural Database (CSD) v543 
# hosted by the Cambridge Crystallographic Data Centre (CCDC).
#
# This work is licensed under the Creative Commons
# Attribution-NonCommercial-ShareAlike 4.0 International License.
# To view a copy of this license, visit
# http://creativecommons.org/licenses/by-nc-sa/4.0/
# or send a letter to
# Creative Commons, PO Box 1866, Mountain View, CA 94042, USA.
#
# CIF created using the CSD Python API on 29 September 2022
# The structure has been converted into the P1 space group
# The structure has a 3D framework
# The original CSD entry KITZAR is in the triclinic crystal system
# The framework has been calculated to contain at least 10.0% void space
# The void calculation uses a probe of radius 1.32A, grid spacing 0.4
#
###############################################################################

data_KITZAR
_chemical_formula_moiety         '(C18 H20 La2 O16)n'
_symmetry_cell_setting           triclinic
_symmetry_space_group_name_H-M   'P 1'
_symmetry_Int_Tables_number      1
_space_group_name_Hall           'P 1'
loop_
_symmetry_equiv_pos_site_id
_symmetry_equiv_pos_as_xyz
1 x,y,z
_cell_length_a                   7.9686(6)
_cell_length_b                   8.6786(6)
_cell_length_c                   11.2515(8)
_cell_angle_alpha                95.505(6)
_cell_angle_beta                 106.522(6)
_cell_angle_gamma                113.650(7)
_cell_volume                     663.504
loop_
_atom_site_label
_atom_site_type_symbol
_atom_site_fract_x
_atom_site_fract_y
_atom_site_fract_z
O19 O 0.0609(4) 0.0659(3) 0.1326(2)
La7 La 0.05042(4) 0.26141(3) 0.97092(2)
H6 H 0.0830 0.6644 0.4720
O9 O 0.2577(4) 0.5001(3) 0.8772(2)
O10 O 0.0634(5) 0.2514(4) 0.7346(3)
C10 C 0.1622(6) 0.4124(6) 0.7607(4)
C11 C 0.1571(7) 0.5122(6) 0.6607(4)
H11 H 0.2595 0.6221 0.6775
C12 C 0.0109(7) 0.4502(6) 0.5473(4)
O18 O 0.1411(4) 0.5740(3) 0.1157(2)
O21 O 0.2824(4) 0.9741(3) 0.2049(2)
O8 O 0.1992(5) 0.7833(4) 0.9251(3)
H7 H 0.261(7) 0.856(5) 0.890(5)
H8 H 0.219(8) 0.698(5) 0.902(5)
O14 O 0.7176(4) 0.0259(3) 0.7951(2)
La1 La 0.94958(4) 0.73859(3) 0.02908(2)
O5 O 0.7423(4) 0.4999(3) 0.1228(2)
O6 O 0.9366(5) 0.7486(4) 0.2654(3)
O7 O 0.6424(5) 0.7763(4) 0.0056(3)
C7 C 0.8378(6) 0.5876(6) 0.2393(4)
C8 C 0.8429(7) 0.4878(6) 0.3393(4)
H5 H 0.7405 0.3779 0.3225
C9 C 0.9891(7) 0.5498(6) 0.4527(4)
H10 H 0.622(8) 0.820(6) 0.065(4)
H12 H 0.9170 0.3356 0.5280
O1 O 0.8589(4) 0.4260(3) 0.8843(2)
O2 O 0.6602(4) 0.5431(3) 0.8199(2)
C1 C 0.7189(6) 0.4339(5) 0.7984(4)
C2 C 0.6366(6) 0.3140(5) 0.6714(4)
H1 H 0.6841 0.2339 0.6600
C3 C 0.4970(6) 0.3154(5) 0.5721(4)
H2 H 0.4447 0.3915 0.5839
C4 C 0.4249(6) 0.2026(5) 0.4472(4)
H3 H 0.4795 0.1278 0.4367
C5 C 0.2857(6) 0.1987(5) 0.3463(4)
H4 H 0.2335 0.2760 0.3543
C6 C 0.2111(6) 0.0758(5) 0.2218(4)
H9 H 0.546(5) 0.680(4) 0.970(5)
O12 O 0.3398(4) 0.4569(3) 0.1801(2)
O13 O 0.9391(4) 0.9341(3) 0.8674(2)
C13 C 0.2811(6) 0.5661(5) 0.2016(4)
C14 C 0.3634(6) 0.6860(5) 0.3286(4)
H13 H 0.3159 0.7661 0.3400
C15 C 0.5030(6) 0.6846(5) 0.4279(4)
H14 H 0.5553 0.6085 0.4161
C16 C 0.5751(6) 0.7974(5) 0.5528(4)
H15 H 0.5205 0.8722 0.5633
C17 C 0.7143(6) 0.8013(5) 0.6537(4)
H16 H 0.7665 0.7240 0.6457
C18 C 0.7889(6) 0.9242(5) 0.7782(4)
H19 H 0.454(5) 0.320(4) 0.030(5)
O15 O 0.3576(5) 0.2237(4) 0.9944(3)
H20 H 0.378(8) 0.180(6) 0.935(4)
O16 O 0.8008(5) 0.2167(4) 0.0749(3)
H17 H 0.739(7) 0.144(5) 0.110(5)
H18 H 0.781(8) 0.302(5) 0.098(5)
loop_
_geom_bond_atom_site_label_1
_geom_bond_atom_site_label_2
_geom_bond_site_symmetry_1
_geom_bond_site_symmetry_2
O9 C10 1_555 1_555
O10 C10 1_555 1_555
C10 C11 1_555 1_555
C11 H11 1_555 1_555
La7 O9 1_555 1_555
O10 La7 1_555 1_555
C11 C12 1_555 1_555
H7 O8 1_555 1_555
H8 O8 1_555 1_555
O5 La1 1_555 1_555
O6 La1 1_555 1_555
O7 La1 1_555 1_555
C7 O5 1_555 1_555
C8 C7 1_555 1_555
H5 C8 1_555 1_555
C9 C8 1_555 1_555
H10 O7 1_555 1_555
O6 C7 1_555 1_555
O1 C1 1_555 1_555
O19 C6 1_555 1_555
C1 O2 1_555 1_555
C2 C1 1_555 1_555
H1 C2 1_555 1_555
C3 C2 1_555 1_555
H2 C3 1_555 1_555
C4 C3 1_555 1_555
H3 C4 1_555 1_555
C5 C4 1_555 1_555
H4 C5 1_555 1_555
C6 C5 1_555 1_555
C13 O18 1_555 1_555
C14 C13 1_555 1_555
H13 C14 1_555 1_555
C15 C14 1_555 1_555
H14 C15 1_555 1_555
C16 C15 1_555 1_555
H15 C16 1_555 1_555
C17 C16 1_555 1_555
H16 C17 1_555 1_555
C18 O13 1_555 1_555
O12 C13 1_555 1_555
C17 C18 1_555 1_555
O15 La7 1_555 1_555
H20 O15 1_555 1_555
H17 O16 1_555 1_555
H18 O16 1_555 1_555

#END
