
###############################################################################
#
# This file contains modified crystal structure data generated from the
# MOF subset of the Cambridge Structural Database (CSD) v543 
# hosted by the Cambridge Crystallographic Data Centre (CCDC).
#
# This work is licensed under the Creative Commons
# Attribution-NonCommercial-ShareAlike 4.0 International License.
# To view a copy of this license, visit
# http://creativecommons.org/licenses/by-nc-sa/4.0/
# or send a letter to
# Creative Commons, PO Box 1866, Mountain View, CA 94042, USA.
#
# CIF created using the CSD Python API on 29 September 2022
# The structure has been converted into the P1 space group
# The structure has a 3D framework
# The original CSD entry KIVDUQ is in the triclinic crystal system
# The framework has been calculated to contain at least 10.0% void space
# The void calculation uses a probe of radius 1.32A, grid spacing 0.4
# H atom positions have been added when not included in the experimental data
#
###############################################################################

data_KIVDUQ
_chemical_formula_moiety         '(C60 H40 K2 La6 O56)n'
_symmetry_cell_setting           triclinic
_symmetry_space_group_name_H-M   'P 1'
_symmetry_Int_Tables_number      1
_space_group_name_Hall           'P 1'
loop_
_symmetry_equiv_pos_site_id
_symmetry_equiv_pos_as_xyz
1 x,y,z
_cell_length_a                   10.872(2)
_cell_length_b                   16.737(3)
_cell_length_c                   17.380(3)
_cell_angle_alpha                114.48(3)
_cell_angle_beta                 92.95(3)
_cell_angle_gamma                99.63(3)
_cell_volume                     2811.87
loop_
_atom_site_label
_atom_site_type_symbol
_atom_site_fract_x
_atom_site_fract_y
_atom_site_fract_z
La1 La 0.08260(2) 0.140788(18) 0.012613(17)
O15 O 0.2199(3) 0.3280(2) 0.0936(2)
O17 O 0.2961(3) 0.4808(2) 0.2370(2)
O19 O 0.0786(4) 0.2738(2) 0.1558(2)
C4 C 0.1941(6) 0.4201(4) 0.2336(4)
O20 O 0.5114(3) 0.4358(2) 0.1445(2)
C11 C 0.1632(5) 0.3350(4) 0.1560(3)
O27 O 0.3936(4) 0.7070(2) 0.3829(2)
C26 C 0.2056(8) 0.5451(5) 0.3489(5)
H8 H 0.1876 0.5873 0.3998
O30 O 0.4959(4) 0.6183(3) 0.2846(3)
C27 C 0.2994(6) 0.5566(4) 0.3081(4)
C29 C 0.1363(8) 0.4562(5) 0.3013(5)
H10 H 0.0646 0.4286 0.3148
C30 C 0.4067(6) 0.6330(4) 0.3261(4)
O32 O 0.4635(3) 0.2382(2) 0.0383(2)
O33 O 0.3043(3) 0.1773(2) 0.0880(2)
O34 O 0.0712(3) 0.0731(3) 0.1120(3)
La9 La 0.43860(3) 0.864828(19) 0.405779(18)
O37 O 0.3749(3) 0.5051(2) 0.0538(2)
H11 H 0.580907 0.405331 0.148162
H12 H 0.547176 0.49711 0.150728
La2 La 0.37069(2) 0.343641(18) 0.996114(19)
O9 O 0.2260(3) 0.1657(2) 0.9127(2)
O11 O 0.1537(3) 0.3276(2) 0.9318(2)
O14 O 0.3752(3) 0.2118(2) 0.8511(2)
O16 O 0.3824(3) 0.0020(2) 0.5454(2)
O21 O 0.3083(3) 0.0589(2) 0.7040(2)
C6 C 0.2492(4) 0.0671(3) 0.7743(3)
O22 O 0.3724(3) 0.3906(3) 0.8688(2)
C10 C 0.0413(4) 0.3101(3) 0.9438(3)
C14 C 0.2860(4) 0.1530(3) 0.8502(3)
H2 H 0.0552 0.4415 0.8724
O31 O 0.1812(3) 0.0087(2) 0.9485(2)
La11 La 0.56140(3) 0.135172(19) 0.594221(18)
O35 O 0.6000(3) 0.3724(2) 0.9703(2)
H13 H 0.28462 0.387019 0.846691
H14 H 0.421032 0.453047 0.889286
C3 C 0.2616(5) 0.9736(3) 0.6440(3)
O24 O 0.2741(4) 0.8652(2) 0.5087(2)
O25 O 0.6306(4) 0.7921(3) 0.3577(3)
C13 C 0.1694(5) 0.9894(3) 0.7587(3)
H1 H 0.1195 0.9778 0.7963
C22 C 0.1770(5) 0.9295(4) 0.6744(4)
H5 H 0.1320 0.8707 0.6451
C23 C 0.3089(5) 0.9460(3) 0.5611(3)
O28 O 0.2107(4) 0.7971(3) 0.3245(3)
O29 O 0.4317(4) 0.7965(3) 0.2431(2)
O36 O 0.6176(3) 0.9980(2) 0.4546(2)
O38 O 0.3742(4) 0.9779(2) 0.3604(2)
O39 O 0.5546(3) 0.8802(2) 0.5396(2)
H15 H 0.657677 0.768576 0.39826
H16 H 0.606726 0.742068 0.299676
H17 H 0.481541 0.840838 0.226523
H18 H 0.46783 0.741744 0.223921
H19 H 0.177757 0.843138 0.312346
H20 H 0.21184 0.744517 0.269993
C1 C 0.4148(4) 0.1874(3) 0.0708(3)
C2 C 0.4928(4) 0.1321(3) 0.0895(3)
O6 O 0.6118(3) 0.1365(2) 0.0663(2)
O8 O 0.8523(3) 0.1226(2) 0.0403(2)
C7 C 0.7878(4) 0.0614(3) 0.0550(3)
C9 C 0.6617(4) 0.0735(3) 0.0804(3)
C19 C 0.4673(5) 0.0695(4) 0.1190(4)
H4 H 0.3938 0.0543 0.1394
C25 C 0.5775(5) 0.0304(4) 0.1128(4)
K1 K 0.73014(12) 0.25633(10) 0.01824(11)
La7 La 0.62931(2) 0.656359(18) 0.003886(19)
O5 O 0.9926(3) 0.2527(2) 0.9681(2)
O7 O 0.8410(3) 0.3592(2) 0.9470(2)
O12 O 0.9350(3) 0.0520(2) 0.8726(2)
O18 O 0.6251(3) 0.4949(2) 0.9462(2)
C5 C 0.6620(4) 0.4291(3) 0.9506(3)
C8 C 0.9607(4) 0.3649(3) 0.9248(3)
O23 O 0.6258(4) 0.0221(2) 0.6396(2)
C12 C 0.7904(4) 0.4194(3) 0.9282(3)
C15 C 0.9819(5) 0.4256(4) 0.8926(4)
C17 C 0.8724(4) 0.4606(3) 0.8950(4)
H3 H 0.8597 0.5040 0.8769
O1 O 0.8188(3) 0.9913(2) 0.0515(2)
H7 H 0.5886 0.9847 0.1281
O4 O 0.9288(3) 0.9269(3) 0.8880(3)
O13 O 0.7591(3) 0.9645(2) 0.7326(2)
C16 C 0.8979(4) 0.9693(4) 0.8480(3)
C18 C 0.6177(5) 0.9379(4) 0.6081(3)
C20 C 0.6891(5) 0.9036(3) 0.6581(3)
C21 C 0.8153(5) 0.9180(4) 0.7675(3)
C24 C 0.7826(6) 0.8296(4) 0.7183(4)
H6 H 0.8073 0.7841 0.7288
C28 C 0.7006(6) 0.8198(4) 0.6451(4)
H9 H 0.6632 0.7664 0.5984
La5 La 0.91740(2) 0.859212(18) 0.987387(17)
O13_2 O 0.2409(3) 0.0355(2) 0.2674(2)
O26 O 0.4454(3) 0.1198(2) 0.4604(2)
C16_2 C 0.1021(4) 0.0307(4) 0.1520(3)
C18_2 C 0.3823(5) 0.0621(4) 0.3919(3)
C20_2 C 0.3109(5) 0.0964(3) 0.3419(3)
C21_2 C 0.1847(5) 0.0820(4) 0.2325(3)
C24_2 C 0.2174(6) 0.1704(4) 0.2817(4)
H6_2 H 0.1927 0.2159 0.2712
C28_2 C 0.2994(6) 0.1802(4) 0.3549(4)
H9_2 H 0.3368 0.2336 0.4016
H7_2 H 0.4114 0.0153 0.8719
O5_2 O 0.0074(3) 0.7473(2) 0.0319(2)
O7_2 O 0.1590(3) 0.6408(2) 0.0530(2)
O10 O 0.4000(3) 0.6276(2) 0.0297(2)
O12_2 O 0.0650(3) 0.9480(2) 0.1274(2)
C5_2 C 0.3380(4) 0.5709(3) 0.0494(3)
C8_2 C 0.0393(4) 0.6351(3) 0.0752(3)
C12_2 C 0.2096(4) 0.5806(3) 0.0718(3)
C15_2 C 0.0181(5) 0.5744(4) 0.1074(4)
C17_2 C 0.1276(4) 0.5394(3) 0.1050(4)
H3_2 H 0.1403 0.4960 0.1231
O2 O 0.5365(3) 0.7618(2) 0.9617(2)
O3 O 0.6957(3) 0.8227(2) 0.9120(2)
C1_2 C 0.5852(4) 0.8126(3) 0.9292(3)
C2_2 C 0.5072(4) 0.8679(3) 0.9105(3)
O6_2 O 0.3882(3) 0.8635(2) 0.9337(2)
O8_2 O 0.1477(3) 0.8774(2) 0.9597(2)
C7_2 C 0.2122(4) 0.9386(3) 0.9450(3)
C9_2 C 0.3383(4) 0.9265(3) 0.9196(3)
C19_2 C 0.5327(5) 0.9305(4) 0.8810(4)
H4_2 H 0.6062 0.9457 0.8606
C25_2 C 0.4225(5) 0.9696(4) 0.8872(4)
K1_2 K 0.26986(12) 0.74367(10) 0.98176(11)
C3_2 C 0.7384(5) 0.0264(3) 0.3560(3)
O24_2 O 0.7259(4) 0.1348(2) 0.4913(2)
O25_2 O 0.3694(4) 0.2079(3) 0.6423(3)
C13_2 C 0.8306(5) 0.0106(3) 0.2413(3)
H1_2 H 0.8805 0.0222 0.2037
C22_2 C 0.8230(5) 0.0705(4) 0.3256(4)
H5_2 H 0.8680 0.1293 0.3549
C23_2 C 0.6911(5) 0.0540(3) 0.4389(3)
O28_2 O 0.7893(4) 0.2029(3) 0.6755(3)
O29_2 O 0.5683(4) 0.2035(3) 0.7569(2)
O40 O 0.6064(4) 0.2930(2) 0.6171(2)
H15_2 H 0.342323 0.231424 0.60174
H16_2 H 0.393274 0.257932 0.700324
H17_2 H 0.518459 0.159162 0.773477
H18_2 H 0.53217 0.258256 0.776079
H19_2 H 0.822243 0.156862 0.687654
H20_2 H 0.78816 0.255483 0.730007
O9_2 O 0.7740(3) 0.8343(2) 0.0873(2)
O11_2 O 0.8463(3) 0.6724(2) 0.0682(2)
O14_2 O 0.6248(3) 0.7882(2) 0.1489(2)
O21_2 O 0.6917(3) 0.9411(2) 0.2960(2)
C6_2 C 0.7508(4) 0.9329(3) 0.2257(3)
O22_2 O 0.6276(3) 0.6094(3) 0.1312(2)
C10_2 C 0.9587(4) 0.6899(3) 0.0562(3)
C14_2 C 0.7140(4) 0.8470(3) 0.1498(3)
H2_2 H 0.9448 0.5585 0.1276
H13_2 H 0.71538 0.612981 0.153309
H14_2 H 0.578968 0.546953 0.110714
O15_2 O 0.7801(3) 0.6720(2) 0.9064(2)
O17_2 O 0.7039(3) 0.5192(2) 0.7630(2)
O19_2 O 0.9214(4) 0.7262(2) 0.8442(2)
C4_2 C 0.8059(6) 0.5799(4) 0.7664(4)
O20_2 O 0.4886(3) 0.5642(2) 0.8555(2)
C11_2 C 0.8368(5) 0.6650(4) 0.8440(3)
C26_2 C 0.7944(8) 0.4549(5) 0.6511(5)
H8_2 H 0.8124 0.4127 0.6002
O30_2 O 0.5041(4) 0.3817(3) 0.7154(3)
C27_2 C 0.7006(6) 0.4434(4) 0.6919(4)
C29_2 C 0.8637(8) 0.5438(5) 0.6987(5)
H10_2 H 0.9354 0.5714 0.6852
C30_2 C 0.5933(6) 0.3670(4) 0.6739(4)
H11_2 H 0.419093 0.594669 0.851838
H12_2 H 0.452824 0.50289 0.849272
loop_
_geom_bond_atom_site_label_1
_geom_bond_atom_site_label_2
_geom_bond_site_symmetry_1
_geom_bond_site_symmetry_2
O15 La1 1_555 1_555
O17 C4 1_555 1_555
O19 La1 1_555 1_555
C4 C11 1_555 1_555
C11 O15 1_555 1_555
O27 C30 1_555 1_555
C26 H8 1_555 1_555
O30 C30 1_555 1_555
C27 O17 1_555 1_555
C29 C4 1_555 1_555
H10 C29 1_555 1_555
C30 C27 1_555 1_555
O33 La1 1_555 1_555
O34 La1 1_555 1_555
La9 O27 1_555 1_555
O19 C11 1_555 1_555
C26 C27 1_555 1_555
C26 C29 1_555 1_555
O20 H11 1_555 1_555
O20 H12 1_555 1_555
La2 O9 1_555 1_555
O11 La2 1_555 1_555
O14 La2 1_555 1_555
O21 C6 1_555 1_555
O22 La2 1_555 1_555
C10 O11 1_555 1_555
C14 O9 1_555 1_555
La11 O16 1_555 1_555
O35 La2 1_555 1_555
O14 C14 1_555 1_555
C6 C14 1_555 1_555
O22 H13 1_555 1_555
O22 H14 1_555 1_555
O24 La9 1_555 1_555
O25 La9 1_555 1_555
C13 H1 1_555 1_555
C22 C3 1_555 1_555
H5 C22 1_555 1_555
C23 C3 1_555 1_555
O28 La9 1_555 1_555
O29 La9 1_555 1_555
O36 La9 1_555 1_555
O38 La9 1_555 1_555
O39 La9 1_555 1_555
O24 C23 1_555 1_555
C13 C22 1_555 1_555
O25 H15 1_555 1_555
O25 H16 1_555 1_555
O29 H17 1_555 1_555
O29 H18 1_555 1_555
O28 H19 1_555 1_555
O28 H20 1_555 1_555
O32 C1 1_555 1_555
O33 C1 1_555 1_555
C1 C2 1_555 1_555
C2 O6 1_555 1_555
O6 C9 1_555 1_555
C7 O8 1_555 1_555
C9 C7 1_555 1_555
C19 C2 1_555 1_555
H4 C19 1_555 1_555
C25 C9 1_555 1_555
K1 O32 1_555 1_555
O6 K1 1_555 1_555
O8 K1 1_555 1_555
C19 C25 1_555 1_555
O7 C8 1_555 1_555
O35 C5 1_555 1_555
O18 C5 1_555 1_555
C5 C12 1_555 1_555
C12 O7 1_555 1_555
C15 C8 1_555 1_555
C17 C12 1_555 1_555
H3 C17 1_555 1_555
La11 O23 1_555 1_555
C15 C17 1_555 1_555
O4 C16 1_555 1_555
O13 C20 1_555 1_555
O39 C18 1_555 1_555
C18 C20 1_555 1_555
C20 C28 1_555 1_555
C21 O13 1_555 1_555
C24 C21 1_555 1_555
H6 C24 1_555 1_555
C28 C24 1_555 1_555
H9 C28 1_555 1_555
O4 La5 1_555 1_555
C16 C21 1_555 1_555
O34 C16_2 1_555 1_555
O13_2 C20_2 1_555 1_555
O26 C18_2 1_555 1_555
C18_2 C20_2 1_555 1_555
C20_2 C28_2 1_555 1_555
C21_2 O13_2 1_555 1_555
C24_2 C21_2 1_555 1_555
H6_2 C24_2 1_555 1_555
C28_2 C24_2 1_555 1_555
H9_2 C28_2 1_555 1_555
La11 O26 1_555 1_555
C16_2 C21_2 1_555 1_555
O7_2 C8_2 1_555 1_555
O10 C5_2 1_555 1_555
O37 C5_2 1_555 1_555
C5_2 C12_2 1_555 1_555
C12_2 O7_2 1_555 1_555
C15_2 C8_2 1_555 1_555
C17_2 C12_2 1_555 1_555
H3_2 C17_2 1_555 1_555
O10 La7 1_555 1_555
C15_2 C17_2 1_555 1_555
O2 C1_2 1_555 1_555
O3 C1_2 1_555 1_555
C1_2 C2_2 1_555 1_555
C2_2 O6_2 1_555 1_555
O6_2 C9_2 1_555 1_555
C7_2 O8_2 1_555 1_555
C9_2 C7_2 1_555 1_555
C19_2 C2_2 1_555 1_555
H4_2 C19_2 1_555 1_555
C25_2 C9_2 1_555 1_555
K1_2 O2 1_555 1_555
La5 O3 1_555 1_555
O6_2 K1_2 1_555 1_555
O8_2 K1_2 1_555 1_555
C19_2 C25_2 1_555 1_555
O24_2 La11 1_555 1_555
O25_2 La11 1_555 1_555
C13_2 H1_2 1_555 1_555
C22_2 C3_2 1_555 1_555
H5_2 C22_2 1_555 1_555
C23_2 C3_2 1_555 1_555
O28_2 La11 1_555 1_555
O29_2 La11 1_555 1_555
O40 La11 1_555 1_555
O24_2 C23_2 1_555 1_555
C13_2 C22_2 1_555 1_555
O25_2 H15_2 1_555 1_555
O25_2 H16_2 1_555 1_555
O29_2 H17_2 1_555 1_555
O29_2 H18_2 1_555 1_555
O28_2 H19_2 1_555 1_555
O28_2 H20_2 1_555 1_555
La7 O9_2 1_555 1_555
O11_2 La7 1_555 1_555
O14_2 La7 1_555 1_555
O21_2 C6_2 1_555 1_555
O22_2 La7 1_555 1_555
C10_2 O11_2 1_555 1_555
C14_2 O9_2 1_555 1_555
O14_2 C14_2 1_555 1_555
C6_2 C14_2 1_555 1_555
O22_2 H13_2 1_555 1_555
O22_2 H14_2 1_555 1_555
O15_2 La5 1_555 1_555
O17_2 C4_2 1_555 1_555
O19_2 La5 1_555 1_555
C4_2 C11_2 1_555 1_555
C11_2 O15_2 1_555 1_555
O40 C30_2 1_555 1_555
C26_2 H8_2 1_555 1_555
O30_2 C30_2 1_555 1_555
C27_2 O17_2 1_555 1_555
C29_2 C4_2 1_555 1_555
H10_2 C29_2 1_555 1_555
C30_2 C27_2 1_555 1_555
O19_2 C11_2 1_555 1_555
C26_2 C27_2 1_555 1_555
C26_2 C29_2 1_555 1_555
O20_2 H11_2 1_555 1_555
O20_2 H12_2 1_555 1_555

#END
