
###############################################################################
#
# This file contains modified crystal structure data generated from the
# MOF subset of the Cambridge Structural Database (CSD) v543 
# hosted by the Cambridge Crystallographic Data Centre (CCDC).
#
# This work is licensed under the Creative Commons
# Attribution-NonCommercial-ShareAlike 4.0 International License.
# To view a copy of this license, visit
# http://creativecommons.org/licenses/by-nc-sa/4.0/
# or send a letter to
# Creative Commons, PO Box 1866, Mountain View, CA 94042, USA.
#
# CIF created using the CSD Python API on 29 September 2022
# The structure has been converted into the P1 space group
# The structure has a 3D framework
# The original CSD entry KIVFEC is in the triclinic crystal system
# The framework has been calculated to contain at least 10.0% void space
# The void calculation uses a probe of radius 1.32A, grid spacing 0.4
# H atom positions have been added when not included in the experimental data
#
###############################################################################

data_KIVFEC
_chemical_formula_moiety         '(C60 H40 K2 O56 Pr6)n'
_symmetry_cell_setting           triclinic
_symmetry_space_group_name_H-M   'P 1'
_symmetry_Int_Tables_number      1
_space_group_name_Hall           'P 1'
loop_
_symmetry_equiv_pos_site_id
_symmetry_equiv_pos_as_xyz
1 x,y,z
_cell_length_a                   10.786(2)
_cell_length_b                   16.726(3)
_cell_length_c                   17.385(3)
_cell_angle_alpha                114.67(3)
_cell_angle_beta                 93.29(3)
_cell_angle_gamma                99.58(3)
_cell_volume                     2782.05
loop_
_atom_site_label
_atom_site_type_symbol
_atom_site_fract_x
_atom_site_fract_y
_atom_site_fract_z
Pr1 Pr 0.08363(3) 0.14059(3) 0.01175(2)
O15 O 0.2258(5) 0.3314(4) 0.0912(3)
O17 O 0.2987(5) 0.4832(3) 0.2378(3)
O19 O 0.0800(6) 0.2747(4) 0.1500(4)
C4 C 0.1944(9) 0.4219(5) 0.2321(6)
O20 O 0.5124(5) 0.4373(4) 0.1421(4)
C11 C 0.1660(8) 0.3374(5) 0.1536(5)
O27 O 0.3914(6) 0.7115(4) 0.3840(4)
C26 C 0.2016(14) 0.5474(8) 0.3478(8)
H8 H 0.1803 0.5888 0.3979
O30 O 0.4991(7) 0.6220(4) 0.2892(5)
C27 C 0.3015(9) 0.5606(6) 0.3103(6)
C29 C 0.1333(12) 0.4578(7) 0.2969(8)
H10 H 0.0588 0.4299 0.3076
C30 C 0.4079(9) 0.6363(6) 0.3281(6)
O32 O 0.4629(5) 0.2399(4) 0.0379(4)
O33 O 0.3041(4) 0.1799(4) 0.0882(3)
O34 O 0.0737(5) 0.0795(5) 0.1138(4)
Pr9 Pr 0.43730(4) 0.86677(3) 0.40593(3)
O37 O 0.3722(5) 0.5023(3) 0.0506(4)
H13 H 0.582115 0.407021 0.147166
H14 H 0.549052 0.49821 0.147403
Pr2 Pr 0.37249(4) 0.34309(3) 0.99430(3)
O9 O 0.2263(5) 0.1646(3) 0.9137(3)
O11 O 0.1570(4) 0.3252(4) 0.9285(4)
O14 O 0.3757(5) 0.2107(4) 0.8519(4)
O16 O 0.3853(5) 0.0016(4) 0.5459(3)
O21 O 0.3073(5) 0.0574(3) 0.7042(3)
C6 C 0.2477(7) 0.0645(5) 0.7735(5)
O22 O 0.3750(5) 0.3879(4) 0.8678(4)
C10 C 0.0443(6) 0.3076(5) 0.9411(5)
C14 C 0.2857(7) 0.1526(5) 0.8516(5)
H2 H 0.0583 0.4398 0.8703
O31 O 0.1804(5) 0.0088(3) 0.9506(4)
Pr11 Pr 0.56270(4) 0.13323(3) 0.59407(3)
O35 O 0.6003(4) 0.3743(3) 0.9726(4)
H11 H 0.286567 0.384185 0.845097
H12 H 0.424381 0.450413 0.888221
C3 C 0.2606(7) 0.9716(5) 0.6428(5)
O24 O 0.2726(6) 0.8648(4) 0.5059(4)
O25 O 0.6307(6) 0.7979(5) 0.3605(5)
C13 C 0.1677(8) 0.9865(6) 0.7568(5)
H1 H 0.1174 0.9747 0.7941
C22 C 0.1745(8) 0.9264(6) 0.6727(6)
H5 H 0.1292 0.8674 0.6432
C23 C 0.3091(8) 0.9446(6) 0.5603(5)
O28 O 0.2100(7) 0.7980(6) 0.3224(5)
O29 O 0.4319(6) 0.8016(5) 0.2458(4)
O36 O 0.6147(5) 0.9984(4) 0.4541(3)
O38 O 0.3695(6) 0.9786(4) 0.3632(4)
O39 O 0.5552(6) 0.8801(4) 0.5361(4)
H15 H 0.484649 0.84604 0.230621
H16 H 0.465978 0.745765 0.225826
H17 H 0.176268 0.844135 0.31065
H18 H 0.212347 0.745938 0.267506
H19 H 0.658186 0.774402 0.401071
H20 H 0.608038 0.747898 0.302038
C1 C 0.4153(7) 0.1903(5) 0.0710(5)
C2 C 0.4925(6) 0.1348(5) 0.0902(5)
O6 O 0.6137(4) 0.1385(3) 0.0663(3)
O8 O 0.8553(4) 0.1225(4) 0.0395(3)
C7 C 0.7904(7) 0.0615(5) 0.0539(5)
C9 C 0.6641(6) 0.0740(5) 0.0806(5)
C19 C 0.4684(7) 0.0712(6) 0.1189(6)
H4 H 0.3946 0.0557 0.1391
C25 C 0.5795(8) 0.0315(6) 0.1123(7)
K1 K 0.7338(2) 0.25844(16) 0.02004(18)
Pr7 Pr 0.62751(4) 0.65691(3) 0.00570(3)
O5 O 0.9955(5) 0.2505(3) 0.9652(4)
O7 O 0.8428(4) 0.3585(3) 0.9464(3)
O12 O 0.9379(5) 0.0484(4) 0.8734(3)
O18 O 0.6278(5) 0.4977(3) 0.9494(4)
C5 C 0.6637(7) 0.4305(5) 0.9519(5)
C8 C 0.9624(6) 0.3633(5) 0.9226(5)
O23 O 0.6305(6) 0.0214(4) 0.6368(4)
C12 C 0.7917(7) 0.4211(5) 0.9295(5)
C15 C 0.9847(7) 0.4245(5) 0.8909(5)
C17 C 0.8749(7) 0.4609(5) 0.8950(5)
H3 H 0.8623 0.5045 0.8770
O1 O 0.8196(5) 0.9912(3) 0.0494(4)
H7 H 0.5902 0.9854 0.1271
O4 O 0.9263(5) 0.9205(5) 0.8862(4)
O13 O 0.7625(5) 0.9629(3) 0.7306(3)
C16 C 0.8970(7) 0.9660(6) 0.8488(5)
C18 C 0.6199(8) 0.9378(6) 0.6049(5)
C20 C 0.6911(8) 0.9016(6) 0.6552(5)
C21 C 0.8144(7) 0.9139(5) 0.7663(5)
C24 C 0.7781(10) 0.8258(6) 0.7138(7)
H6 H 0.8012 0.7790 0.7229
C28 C 0.6985(11) 0.8171(6) 0.6422(6)
H9 H 0.6590 0.7638 0.5954
Pr5 Pr 0.91637(3) 0.85941(3) 0.98825(2)
O13_2 O 0.2375(5) 0.0371(3) 0.2694(3)
O26 O 0.4448(6) 0.1199(4) 0.4639(4)
C16_2 C 0.1030(7) 0.0340(6) 0.1512(5)
C18_2 C 0.3801(8) 0.0622(6) 0.3951(5)
C20_2 C 0.3089(8) 0.0984(6) 0.3448(5)
C21_2 C 0.1856(7) 0.0861(5) 0.2337(5)
C24_2 C 0.2219(10) 0.1742(6) 0.2862(7)
H6_2 H 0.1988 0.2210 0.2771
C28_2 C 0.3015(11) 0.1829(6) 0.3578(6)
H9_2 H 0.3410 0.2362 0.4046
H7_2 H 0.4098 0.0146 0.8729
O5_2 O 0.0045(5) 0.7495(3) 0.0348(4)
O7_2 O 0.1572(4) 0.6415(3) 0.0536(3)
O10 O 0.3997(4) 0.6257(3) 0.0274(4)
O12_2 O 0.0621(5) 0.9516(4) 0.1266(3)
C5_2 C 0.3363(7) 0.5695(5) 0.0481(5)
C8_2 C 0.0376(6) 0.6367(5) 0.0774(5)
C12_2 C 0.2083(7) 0.5789(5) 0.0705(5)
C15_2 C 0.0153(7) 0.5755(5) 0.1091(5)
C17_2 C 0.1251(7) 0.5391(5) 0.1050(5)
H3_2 H 0.1377 0.4955 0.1230
O2 O 0.5371(5) 0.7601(4) 0.9621(4)
O3 O 0.6959(4) 0.8201(4) 0.9118(3)
C1_2 C 0.5847(7) 0.8097(5) 0.9290(5)
C2_2 C 0.5075(6) 0.8652(5) 0.9098(5)
O6_2 O 0.3863(4) 0.8615(3) 0.9337(3)
O8_2 O 0.1447(4) 0.8775(4) 0.9605(3)
C7_2 C 0.2096(7) 0.9385(5) 0.9461(5)
C9_2 C 0.3359(6) 0.9260(5) 0.9194(5)
C19_2 C 0.5316(7) 0.9288(6) 0.8811(6)
H4_2 H 0.6054 0.9443 0.8609
C25_2 C 0.4205(8) 0.9685(6) 0.8877(7)
K1_2 K 0.2662(2) 0.74156(16) 0.97996(18)
C3_2 C 0.7394(7) 0.0284(5) 0.3572(5)
O24_2 O 0.7274(6) 0.1352(4) 0.4941(4)
O25_2 O 0.3693(6) 0.2021(5) 0.6395(5)
C13_2 C 0.8323(8) 0.0135(6) 0.2432(5)
H1_2 H 0.8826 0.0253 0.2059
C22_2 C 0.8255(8) 0.0736(6) 0.3273(6)
H5_2 H 0.8708 0.1326 0.3568
C23_2 C 0.6909(8) 0.0554(6) 0.4397(5)
O28_2 O 0.7900(7) 0.2020(6) 0.6776(5)
O29_2 O 0.5681(6) 0.1984(5) 0.7542(4)
O40 O 0.6086(6) 0.2885(4) 0.6160(4)
H15_2 H 0.515351 0.15396 0.769379
H16_2 H 0.534022 0.254235 0.774174
H17_2 H 0.823732 0.155865 0.68935
H18_2 H 0.787653 0.254062 0.732494
H19_2 H 0.341814 0.225598 0.598929
H20_2 H 0.391962 0.252102 0.697962
O9_2 O 0.7737(5) 0.8354(3) 0.0863(3)
O11_2 O 0.8430(4) 0.6748(4) 0.0715(4)
O14_2 O 0.6243(5) 0.7893(4) 0.1481(4)
O21_2 O 0.6927(5) 0.9426(3) 0.2958(3)
C6_2 C 0.7523(7) 0.9355(5) 0.2265(5)
O22_2 O 0.6250(5) 0.6121(4) 0.1322(4)
C10_2 C 0.9557(6) 0.6924(5) 0.0589(5)
C14_2 C 0.7143(7) 0.8474(5) 0.1484(5)
H2_2 H 0.9417 0.5602 0.1297
H11_2 H 0.713433 0.615815 0.154903
H12_2 H 0.575619 0.549587 0.111779
O15_2 O 0.7742(5) 0.6686(4) 0.9088(3)
O17_2 O 0.7013(5) 0.5168(3) 0.7622(3)
O19_2 O 0.9200(6) 0.7253(4) 0.8500(4)
C4_2 C 0.8056(9) 0.5781(5) 0.7679(6)
O20_2 O 0.4876(5) 0.5627(4) 0.8579(4)
C11_2 C 0.8340(8) 0.6626(5) 0.8464(5)
C26_2 C 0.7984(14) 0.4526(8) 0.6522(8)
H8_2 H 0.8197 0.4112 0.6021
O30_2 O 0.5009(7) 0.3780(4) 0.7108(5)
C27_2 C 0.6985(9) 0.4394(6) 0.6897(6)
C29_2 C 0.8667(12) 0.5422(7) 0.7031(8)
H10_2 H 0.9412 0.5701 0.6924
C30_2 C 0.5921(9) 0.3637(6) 0.6719(6)
H13_2 H 0.417885 0.592979 0.852834
H14_2 H 0.450948 0.50179 0.852597
loop_
_geom_bond_atom_site_label_1
_geom_bond_atom_site_label_2
_geom_bond_site_symmetry_1
_geom_bond_site_symmetry_2
O17 C4 1_555 1_555
O19 Pr1 1_555 1_555
C4 C11 1_555 1_555
C11 O15 1_555 1_555
O27 C30 1_555 1_555
C26 H8 1_555 1_555
O30 C30 1_555 1_555
C27 O17 1_555 1_555
C29 C4 1_555 1_555
H10 C29 1_555 1_555
C30 C27 1_555 1_555
O33 Pr1 1_555 1_555
O34 Pr1 1_555 1_555
Pr9 O27 1_555 1_555
O19 C11 1_555 1_555
C26 C27 1_555 1_555
C26 C29 1_555 1_555
O20 H13 1_555 1_555
O20 H14 1_555 1_555
Pr2 O9 1_555 1_555
O11 Pr2 1_555 1_555
O14 Pr2 1_555 1_555
O21 C6 1_555 1_555
O22 Pr2 1_555 1_555
C10 O11 1_555 1_555
C14 O9 1_555 1_555
Pr11 O16 1_555 1_555
O35 Pr2 1_555 1_555
O14 C14 1_555 1_555
C6 C14 1_555 1_555
O22 H11 1_555 1_555
O22 H12 1_555 1_555
O24 Pr9 1_555 1_555
O25 Pr9 1_555 1_555
C13 H1 1_555 1_555
C22 C3 1_555 1_555
H5 C22 1_555 1_555
C23 C3 1_555 1_555
O28 Pr9 1_555 1_555
O29 Pr9 1_555 1_555
O36 Pr9 1_555 1_555
O38 Pr9 1_555 1_555
O39 Pr9 1_555 1_555
O24 C23 1_555 1_555
C13 C22 1_555 1_555
O29 H15 1_555 1_555
O29 H16 1_555 1_555
O28 H17 1_555 1_555
O28 H18 1_555 1_555
O25 H19 1_555 1_555
O25 H20 1_555 1_555
O32 C1 1_555 1_555
O33 C1 1_555 1_555
C1 C2 1_555 1_555
C2 O6 1_555 1_555
O6 C9 1_555 1_555
C7 O8 1_555 1_555
C9 C7 1_555 1_555
C19 C2 1_555 1_555
H4 C19 1_555 1_555
C25 C9 1_555 1_555
K1 O32 1_555 1_555
O6 K1 1_555 1_555
O8 K1 1_555 1_555
C19 C25 1_555 1_555
O7 C8 1_555 1_555
O35 C5 1_555 1_555
O18 C5 1_555 1_555
C5 C12 1_555 1_555
C12 O7 1_555 1_555
C15 C8 1_555 1_555
C17 C12 1_555 1_555
H3 C17 1_555 1_555
Pr11 O23 1_555 1_555
C15 C17 1_555 1_555
O4 C16 1_555 1_555
O13 C20 1_555 1_555
O39 C18 1_555 1_555
C18 C20 1_555 1_555
C20 C28 1_555 1_555
C21 O13 1_555 1_555
C24 C21 1_555 1_555
H6 C24 1_555 1_555
C28 C24 1_555 1_555
H9 C28 1_555 1_555
O4 Pr5 1_555 1_555
C16 C21 1_555 1_555
O34 C16_2 1_555 1_555
O13_2 C20_2 1_555 1_555
O26 C18_2 1_555 1_555
C18_2 C20_2 1_555 1_555
C20_2 C28_2 1_555 1_555
C21_2 O13_2 1_555 1_555
C24_2 C21_2 1_555 1_555
H6_2 C24_2 1_555 1_555
C28_2 C24_2 1_555 1_555
H9_2 C28_2 1_555 1_555
Pr11 O26 1_555 1_555
C16_2 C21_2 1_555 1_555
O7_2 C8_2 1_555 1_555
O10 C5_2 1_555 1_555
O37 C5_2 1_555 1_555
C5_2 C12_2 1_555 1_555
C12_2 O7_2 1_555 1_555
C15_2 C8_2 1_555 1_555
C17_2 C12_2 1_555 1_555
H3_2 C17_2 1_555 1_555
O10 Pr7 1_555 1_555
C15_2 C17_2 1_555 1_555
O2 C1_2 1_555 1_555
O3 C1_2 1_555 1_555
C1_2 C2_2 1_555 1_555
C2_2 O6_2 1_555 1_555
O6_2 C9_2 1_555 1_555
C7_2 O8_2 1_555 1_555
C9_2 C7_2 1_555 1_555
C19_2 C2_2 1_555 1_555
H4_2 C19_2 1_555 1_555
C25_2 C9_2 1_555 1_555
K1_2 O2 1_555 1_555
Pr5 O3 1_555 1_555
O6_2 K1_2 1_555 1_555
O8_2 K1_2 1_555 1_555
C19_2 C25_2 1_555 1_555
O24_2 Pr11 1_555 1_555
O25_2 Pr11 1_555 1_555
C13_2 H1_2 1_555 1_555
C22_2 C3_2 1_555 1_555
H5_2 C22_2 1_555 1_555
C23_2 C3_2 1_555 1_555
O28_2 Pr11 1_555 1_555
O29_2 Pr11 1_555 1_555
O40 Pr11 1_555 1_555
O24_2 C23_2 1_555 1_555
C13_2 C22_2 1_555 1_555
O29_2 H15_2 1_555 1_555
O29_2 H16_2 1_555 1_555
O28_2 H17_2 1_555 1_555
O28_2 H18_2 1_555 1_555
O25_2 H19_2 1_555 1_555
O25_2 H20_2 1_555 1_555
Pr7 O9_2 1_555 1_555
O11_2 Pr7 1_555 1_555
O14_2 Pr7 1_555 1_555
O21_2 C6_2 1_555 1_555
O22_2 Pr7 1_555 1_555
C10_2 O11_2 1_555 1_555
C14_2 O9_2 1_555 1_555
O14_2 C14_2 1_555 1_555
C6_2 C14_2 1_555 1_555
O22_2 H11_2 1_555 1_555
O22_2 H12_2 1_555 1_555
O17_2 C4_2 1_555 1_555
O19_2 Pr5 1_555 1_555
C4_2 C11_2 1_555 1_555
C11_2 O15_2 1_555 1_555
O40 C30_2 1_555 1_555
C26_2 H8_2 1_555 1_555
O30_2 C30_2 1_555 1_555
C27_2 O17_2 1_555 1_555
C29_2 C4_2 1_555 1_555
H10_2 C29_2 1_555 1_555
C30_2 C27_2 1_555 1_555
O19_2 C11_2 1_555 1_555
C26_2 C27_2 1_555 1_555
C26_2 C29_2 1_555 1_555
O20_2 H13_2 1_555 1_555
O20_2 H14_2 1_555 1_555

#END
