
###############################################################################
#
# This file contains modified crystal structure data generated from the
# MOF subset of the Cambridge Structural Database (CSD) v543 
# hosted by the Cambridge Crystallographic Data Centre (CCDC).
#
# This work is licensed under the Creative Commons
# Attribution-NonCommercial-ShareAlike 4.0 International License.
# To view a copy of this license, visit
# http://creativecommons.org/licenses/by-nc-sa/4.0/
# or send a letter to
# Creative Commons, PO Box 1866, Mountain View, CA 94042, USA.
#
# CIF created using the CSD Python API on 29 September 2022
# The structure has been converted into the P1 space group
# The structure has a 3D framework
# The original CSD entry KIVFAY is in the triclinic crystal system
# The framework has been calculated to contain at least 10.0% void space
# The void calculation uses a probe of radius 1.32A, grid spacing 0.4
# H atom positions have been added when not included in the experimental data
#
###############################################################################

data_KIVFAY
_chemical_formula_moiety         '(C60 H40 Ce6 K2 O56)n'
_symmetry_cell_setting           triclinic
_symmetry_space_group_name_H-M   'P 1'
_symmetry_Int_Tables_number      1
_space_group_name_Hall           'P 1'
loop_
_symmetry_equiv_pos_site_id
_symmetry_equiv_pos_as_xyz
1 x,y,z
_cell_length_a                   10.819(2)
_cell_length_b                   16.730(3)
_cell_length_c                   17.370(3)
_cell_angle_alpha                114.65(3)
_cell_angle_beta                 93.04(3)
_cell_angle_gamma                99.62(3)
_cell_volume                     2790.76
loop_
_atom_site_label
_atom_site_type_symbol
_atom_site_fract_x
_atom_site_fract_y
_atom_site_fract_z
Ce1 Ce 0.08282(3) 0.14097(2) 0.01280(2)
O15 O 0.2228(5) 0.3304(3) 0.0930(3)
O17 O 0.2978(5) 0.4824(3) 0.2385(3)
O19 O 0.0773(5) 0.2750(4) 0.1533(4)
C4 C 0.1928(8) 0.4208(5) 0.2332(5)
O20 O 0.5115(5) 0.4363(4) 0.1444(4)
C11 C 0.1627(8) 0.3359(5) 0.1545(5)
O27 O 0.3936(6) 0.7094(4) 0.3844(4)
C26 C 0.2023(14) 0.5460(7) 0.3500(8)
H8 H 0.1825 0.5876 0.4008
O30 O 0.4981(6) 0.6201(4) 0.2880(5)
C27 C 0.3002(8) 0.5586(5) 0.3107(6)
C29 C 0.1338(12) 0.4575(7) 0.3003(7)
H10 H 0.0605 0.4298 0.3123
C30 C 0.4066(9) 0.6348(5) 0.3290(5)
O32 O 0.4629(4) 0.2398(3) 0.0394(3)
O33 O 0.3030(4) 0.1793(3) 0.0898(3)
O34 O 0.0706(5) 0.0772(5) 0.1139(4)
Ce9 Ce 0.43799(4) 0.86573(3) 0.40561(2)
O37 O 0.3744(5) 0.5042(3) 0.0533(4)
H11 H 0.581109 0.405817 0.14859
H12 H 0.547823 0.497541 0.150482
Ce2 Ce 0.37144(3) 0.34357(3) 0.99600(3)
O9 O 0.2263(5) 0.1652(3) 0.9139(3)
O11 O 0.1548(4) 0.3261(3) 0.9307(3)
O14 O 0.3761(5) 0.2113(3) 0.8517(3)
O16 O 0.3835(5) 0.0018(3) 0.5457(3)
O21 O 0.3069(5) 0.0574(3) 0.7039(3)
C6 C 0.2494(7) 0.0654(5) 0.7739(5)
O22 O 0.3726(5) 0.3897(4) 0.8688(4)
C10 C 0.0421(6) 0.3087(5) 0.9417(5)
C14 C 0.2853(6) 0.1522(5) 0.8513(4)
H2 H 0.0570 0.4398 0.8703
O31 O 0.1824(5) 0.0095(3) 0.9508(4)
Ce11 Ce 0.56201(4) 0.13427(3) 0.59439(2)
O35 O 0.5998(4) 0.3739(3) 0.9723(3)
H13 H 0.284297 0.385966 0.846613
H14 H 0.42147 0.452261 0.889286
C3 C 0.2607(7) 0.9723(5) 0.6425(5)
O24 O 0.2723(6) 0.8645(4) 0.5069(3)
O25 O 0.6312(6) 0.7961(4) 0.3587(5)
C13 C 0.1690(8) 0.9880(5) 0.7579(5)
H1 H 0.1185 0.9765 0.7954
C22 C 0.1762(8) 0.9280(5) 0.6740(5)
H5 H 0.1314 0.8689 0.6450
C23 C 0.3095(7) 0.9448(5) 0.5603(5)
O28 O 0.2120(6) 0.7968(6) 0.3236(5)
O29 O 0.4311(6) 0.7985(5) 0.2438(4)
O36 O 0.6165(5) 0.9982(3) 0.4543(3)
O38 O 0.3718(6) 0.9779(3) 0.3614(3)
O39 O 0.5549(6) 0.8802(4) 0.5377(3)
H15 H 0.659244 0.772972 0.399394
H16 H 0.608077 0.745839 0.300472
H17 H 0.178081 0.842623 0.311542
H18 H 0.214187 0.744445 0.26888
H19 H 0.48181 0.842957 0.227688
H20 H 0.466737 0.743371 0.224174
C1 C 0.4143(6) 0.1893(5) 0.0724(5)
C2 C 0.4931(6) 0.1334(5) 0.0903(5)
O6 O 0.6119(4) 0.1376(3) 0.0668(3)
O8 O 0.8541(4) 0.1226(3) 0.0405(3)
C7 C 0.7883(6) 0.0614(5) 0.0541(5)
C9 C 0.6623(6) 0.0735(5) 0.0805(5)
C19 C 0.4680(7) 0.0700(6) 0.1189(6)
H4 H 0.3941 0.0543 0.1390
C25 C 0.5784(7) 0.0310(6) 0.1123(6)
K1 K 0.73215(19) 0.25778(15) 0.02000(17)
Ce7 Ce 0.62856(3) 0.65643(3) 0.00400(3)
O5 O 0.9936(4) 0.2513(3) 0.9668(3)
O7 O 0.8411(4) 0.3587(3) 0.9465(3)
O12 O 0.9366(5) 0.0501(4) 0.8738(3)
O18 O 0.6256(5) 0.4958(3) 0.9467(4)
C5 C 0.6634(6) 0.4305(4) 0.9509(4)
C8 C 0.9624(6) 0.3635(5) 0.9234(5)
O23 O 0.6282(6) 0.0221(3) 0.6386(3)
C12 C 0.7902(6) 0.4200(5) 0.9289(5)
C15 C 0.9837(7) 0.4246(5) 0.8911(5)
C17 C 0.8735(7) 0.4613(5) 0.8949(5)
H3 H 0.8612 0.5051 0.8773
O1 O 0.8176(5) 0.9905(3) 0.0492(4)
H7 H 0.5894 0.9851 0.1272
O4 O 0.9294(5) 0.9228(5) 0.8861(4)
O13 O 0.7614(5) 0.9629(3) 0.7313(3)
C16 C 0.8988(6) 0.9667(6) 0.8481(5)
C18 C 0.6195(8) 0.9383(6) 0.6062(5)
C20 C 0.6921(8) 0.9023(5) 0.6563(5)
C21 C 0.8166(7) 0.9153(5) 0.7652(5)
C24 C 0.7832(10) 0.8265(6) 0.7137(7)
H6 H 0.8083 0.7801 0.7226
C28 C 0.7013(10) 0.8186(6) 0.6431(6)
H9 H 0.6616 0.7655 0.5965
Ce5 Ce 0.91718(3) 0.85903(2) 0.98720(2)
O13_2 O 0.2386(5) 0.0371(3) 0.2687(3)
O26 O 0.4451(6) 0.1198(4) 0.4623(3)
C16_2 C 0.1012(6) 0.0333(6) 0.1519(5)
C18_2 C 0.3805(8) 0.0617(6) 0.3938(5)
C20_2 C 0.3079(8) 0.0977(5) 0.3437(5)
C21_2 C 0.1834(7) 0.0847(5) 0.2348(5)
C24_2 C 0.2168(10) 0.1735(6) 0.2863(7)
H6_2 H 0.1917 0.2199 0.2774
C28_2 C 0.2987(10) 0.1814(6) 0.3569(6)
H9_2 H 0.3384 0.2345 0.4035
H7_2 H 0.4106 0.0149 0.8728
O5_2 O 0.0064(4) 0.7487(3) 0.0332(3)
O7_2 O 0.1589(4) 0.6413(3) 0.0535(3)
O10 O 0.4002(4) 0.6261(3) 0.0277(3)
O12_2 O 0.0634(5) 0.9499(4) 0.1262(3)
C5_2 C 0.3366(6) 0.5695(4) 0.0491(4)
C8_2 C 0.0376(6) 0.6365(5) 0.0766(5)
C12_2 C 0.2098(6) 0.5800(5) 0.0711(5)
C15_2 C 0.0163(7) 0.5754(5) 0.1089(5)
C17_2 C 0.1265(7) 0.5387(5) 0.1051(5)
H3_2 H 0.1388 0.4949 0.1227
O2 O 0.5371(4) 0.7602(3) 0.9606(3)
O3 O 0.6970(4) 0.8207(3) 0.9102(3)
C1_2 C 0.5857(6) 0.8107(5) 0.9276(5)
C2_2 C 0.5069(6) 0.8666(5) 0.9097(5)
O6_2 O 0.3881(4) 0.8624(3) 0.9332(3)
O8_2 O 0.1459(4) 0.8774(3) 0.9595(3)
C7_2 C 0.2117(6) 0.9386(5) 0.9459(5)
C9_2 C 0.3377(6) 0.9265(5) 0.9195(5)
C19_2 C 0.5320(7) 0.9300(6) 0.8811(6)
H4_2 H 0.6059 0.9457 0.8610
C25_2 C 0.4216(7) 0.9690(6) 0.8877(6)
K1_2 K 0.26785(19) 0.74222(15) 0.98000(17)
C3_2 C 0.7393(7) 0.0277(5) 0.3575(5)
O24_2 O 0.7277(6) 0.1355(4) 0.4931(3)
O25_2 O 0.3688(6) 0.2039(4) 0.6413(5)
C13_2 C 0.8310(8) 0.0120(5) 0.2421(5)
H1_2 H 0.8815 0.0235 0.2046
C22_2 C 0.8238(8) 0.0720(5) 0.3260(5)
H5_2 H 0.8686 0.1311 0.3550
C23_2 C 0.6905(7) 0.0552(5) 0.4397(5)
O28_2 O 0.7880(6) 0.2032(6) 0.6764(5)
O29_2 O 0.5689(6) 0.2015(5) 0.7562(4)
O40 O 0.6064(6) 0.2906(4) 0.6156(4)
H15_2 H 0.340756 0.227028 0.600606
H16_2 H 0.391923 0.254161 0.699528
H17_2 H 0.821919 0.157377 0.688458
H18_2 H 0.785813 0.255555 0.73112
H19_2 H 0.51819 0.157043 0.772312
H20_2 H 0.533263 0.256629 0.775826
O9_2 O 0.7737(5) 0.8348(3) 0.0861(3)
O11_2 O 0.8452(4) 0.6739(3) 0.0693(3)
O14_2 O 0.6239(5) 0.7887(3) 0.1483(3)
O21_2 O 0.6931(5) 0.9426(3) 0.2961(3)
C6_2 C 0.7506(7) 0.9346(5) 0.2261(5)
O22_2 O 0.6274(5) 0.6103(4) 0.1312(4)
C10_2 C 0.9579(6) 0.6913(5) 0.0583(5)
C14_2 C 0.7147(6) 0.8478(5) 0.1487(4)
H2_2 H 0.9430 0.5602 0.1297
H13_2 H 0.715703 0.614034 0.153387
H14_2 H 0.57853 0.547739 0.110714
O15_2 O 0.7772(5) 0.6696(3) 0.9070(3)
O17_2 O 0.7022(5) 0.5176(3) 0.7615(3)
O19_2 O 0.9227(5) 0.7250(4) 0.8467(4)
C4_2 C 0.8072(8) 0.5792(5) 0.7668(5)
O20_2 O 0.4885(5) 0.5637(4) 0.8556(4)
C11_2 C 0.8373(8) 0.6641(5) 0.8455(5)
C26_2 C 0.7977(14) 0.4540(7) 0.6500(8)
H8_2 H 0.8175 0.4124 0.5992
O30_2 O 0.5019(6) 0.3799(4) 0.7120(5)
C27_2 C 0.6998(8) 0.4414(5) 0.6893(6)
C29_2 C 0.8662(12) 0.5425(7) 0.6997(7)
H10_2 H 0.9395 0.5702 0.6877
C30_2 C 0.5934(9) 0.3652(5) 0.6710(5)
H11_2 H 0.418891 0.594183 0.85141
H12_2 H 0.452177 0.502459 0.849518
loop_
_geom_bond_atom_site_label_1
_geom_bond_atom_site_label_2
_geom_bond_site_symmetry_1
_geom_bond_site_symmetry_2
O17 C4 1_555 1_555
O19 Ce1 1_555 1_555
C4 C11 1_555 1_555
C11 O15 1_555 1_555
O27 C30 1_555 1_555
C26 H8 1_555 1_555
O30 C30 1_555 1_555
C27 O17 1_555 1_555
C29 C4 1_555 1_555
H10 C29 1_555 1_555
C30 C27 1_555 1_555
O33 Ce1 1_555 1_555
O34 Ce1 1_555 1_555
Ce9 O27 1_555 1_555
O19 C11 1_555 1_555
C26 C27 1_555 1_555
C26 C29 1_555 1_555
O20 H11 1_555 1_555
O20 H12 1_555 1_555
Ce2 O9 1_555 1_555
O11 Ce2 1_555 1_555
O14 Ce2 1_555 1_555
O21 C6 1_555 1_555
O22 Ce2 1_555 1_555
C10 O11 1_555 1_555
C14 O9 1_555 1_555
Ce11 O16 1_555 1_555
O35 Ce2 1_555 1_555
O14 C14 1_555 1_555
C6 C14 1_555 1_555
O22 H13 1_555 1_555
O22 H14 1_555 1_555
O24 Ce9 1_555 1_555
O25 Ce9 1_555 1_555
C13 H1 1_555 1_555
C22 C3 1_555 1_555
H5 C22 1_555 1_555
C23 C3 1_555 1_555
O28 Ce9 1_555 1_555
O29 Ce9 1_555 1_555
O36 Ce9 1_555 1_555
O38 Ce9 1_555 1_555
O39 Ce9 1_555 1_555
O24 C23 1_555 1_555
C13 C22 1_555 1_555
O25 H15 1_555 1_555
O25 H16 1_555 1_555
O28 H17 1_555 1_555
O28 H18 1_555 1_555
O29 H19 1_555 1_555
O29 H20 1_555 1_555
O32 C1 1_555 1_555
O33 C1 1_555 1_555
C1 C2 1_555 1_555
C2 O6 1_555 1_555
O6 C9 1_555 1_555
C7 O8 1_555 1_555
C9 C7 1_555 1_555
C19 C2 1_555 1_555
H4 C19 1_555 1_555
C25 C9 1_555 1_555
K1 O32 1_555 1_555
O6 K1 1_555 1_555
O8 K1 1_555 1_555
C19 C25 1_555 1_555
O7 C8 1_555 1_555
O35 C5 1_555 1_555
O18 C5 1_555 1_555
C5 C12 1_555 1_555
C12 O7 1_555 1_555
C15 C8 1_555 1_555
C17 C12 1_555 1_555
H3 C17 1_555 1_555
Ce11 O23 1_555 1_555
C15 C17 1_555 1_555
O4 C16 1_555 1_555
O13 C20 1_555 1_555
O39 C18 1_555 1_555
C18 C20 1_555 1_555
C20 C28 1_555 1_555
C21 O13 1_555 1_555
C24 C21 1_555 1_555
H6 C24 1_555 1_555
C28 C24 1_555 1_555
H9 C28 1_555 1_555
O4 Ce5 1_555 1_555
C16 C21 1_555 1_555
O34 C16_2 1_555 1_555
O13_2 C20_2 1_555 1_555
O26 C18_2 1_555 1_555
C18_2 C20_2 1_555 1_555
C20_2 C28_2 1_555 1_555
C21_2 O13_2 1_555 1_555
C24_2 C21_2 1_555 1_555
H6_2 C24_2 1_555 1_555
C28_2 C24_2 1_555 1_555
H9_2 C28_2 1_555 1_555
Ce11 O26 1_555 1_555
C16_2 C21_2 1_555 1_555
O7_2 C8_2 1_555 1_555
O10 C5_2 1_555 1_555
O37 C5_2 1_555 1_555
C5_2 C12_2 1_555 1_555
C12_2 O7_2 1_555 1_555
C15_2 C8_2 1_555 1_555
C17_2 C12_2 1_555 1_555
H3_2 C17_2 1_555 1_555
O10 Ce7 1_555 1_555
C15_2 C17_2 1_555 1_555
O2 C1_2 1_555 1_555
O3 C1_2 1_555 1_555
C1_2 C2_2 1_555 1_555
C2_2 O6_2 1_555 1_555
O6_2 C9_2 1_555 1_555
C7_2 O8_2 1_555 1_555
C9_2 C7_2 1_555 1_555
C19_2 C2_2 1_555 1_555
H4_2 C19_2 1_555 1_555
C25_2 C9_2 1_555 1_555
K1_2 O2 1_555 1_555
Ce5 O3 1_555 1_555
O6_2 K1_2 1_555 1_555
O8_2 K1_2 1_555 1_555
C19_2 C25_2 1_555 1_555
O24_2 Ce11 1_555 1_555
O25_2 Ce11 1_555 1_555
C13_2 H1_2 1_555 1_555
C22_2 C3_2 1_555 1_555
H5_2 C22_2 1_555 1_555
C23_2 C3_2 1_555 1_555
O28_2 Ce11 1_555 1_555
O29_2 Ce11 1_555 1_555
O40 Ce11 1_555 1_555
O24_2 C23_2 1_555 1_555
C13_2 C22_2 1_555 1_555
O25_2 H15_2 1_555 1_555
O25_2 H16_2 1_555 1_555
O28_2 H17_2 1_555 1_555
O28_2 H18_2 1_555 1_555
O29_2 H19_2 1_555 1_555
O29_2 H20_2 1_555 1_555
Ce7 O9_2 1_555 1_555
O11_2 Ce7 1_555 1_555
O14_2 Ce7 1_555 1_555
O21_2 C6_2 1_555 1_555
O22_2 Ce7 1_555 1_555
C10_2 O11_2 1_555 1_555
C14_2 O9_2 1_555 1_555
O14_2 C14_2 1_555 1_555
C6_2 C14_2 1_555 1_555
O22_2 H13_2 1_555 1_555
O22_2 H14_2 1_555 1_555
O17_2 C4_2 1_555 1_555
O19_2 Ce5 1_555 1_555
C4_2 C11_2 1_555 1_555
C11_2 O15_2 1_555 1_555
O40 C30_2 1_555 1_555
C26_2 H8_2 1_555 1_555
O30_2 C30_2 1_555 1_555
C27_2 O17_2 1_555 1_555
C29_2 C4_2 1_555 1_555
H10_2 C29_2 1_555 1_555
C30_2 C27_2 1_555 1_555
O19_2 C11_2 1_555 1_555
C26_2 C27_2 1_555 1_555
C26_2 C29_2 1_555 1_555
O20_2 H11_2 1_555 1_555
O20_2 H12_2 1_555 1_555

#END
