
###############################################################################
#
# This file contains modified crystal structure data generated from the
# MOF subset of the Cambridge Structural Database (CSD) v543 
# hosted by the Cambridge Crystallographic Data Centre (CCDC).
#
# This work is licensed under the Creative Commons
# Attribution-NonCommercial-ShareAlike 4.0 International License.
# To view a copy of this license, visit
# http://creativecommons.org/licenses/by-nc-sa/4.0/
# or send a letter to
# Creative Commons, PO Box 1866, Mountain View, CA 94042, USA.
#
# CIF created using the CSD Python API on 29 September 2022
# The structure has been converted into the P1 space group
# The structure has a 3D framework
# The original CSD entry KIVJIL is in the monoclinic crystal system
# The framework has been calculated to contain at least 10.0% void space
# The void calculation uses a probe of radius 1.32A, grid spacing 0.4
# H atom positions have been added when not included in the experimental data
#
###############################################################################

data_KIVJIL
_chemical_formula_moiety         '(C64 H112 Co8 Cu8 Mo40 N24 O180)n'
_symmetry_cell_setting           triclinic
_symmetry_space_group_name_H-M   'P 1'
_symmetry_Int_Tables_number      1
_space_group_name_Hall           'P 1'
loop_
_symmetry_equiv_pos_site_id
_symmetry_equiv_pos_as_xyz
1 x,y,z
_cell_length_a                   23.3279(8)
_cell_length_b                   12.4706(5)
_cell_length_c                   22.1391(12)
_cell_angle_alpha                90
_cell_angle_beta                 96.520(4)
_cell_angle_gamma                90
_cell_volume                     6398.89
loop_
_atom_site_label
_atom_site_type_symbol
_atom_site_fract_x
_atom_site_fract_y
_atom_site_fract_z
C9 C 0.3235(3) 0.0475(6) 0.2882(4)
H14 H 0.3105 0.1141 0.2996
N4 N 0.3282(2) 0.0261(4) 0.2301(3)
Cu5 Cu 0.30789(4) 0.11766(7) 0.15709(4)
H7 H 0.1593 0.7988 0.0031
H9 H 0.2210 0.6529 0.0107
C10 C 0.3384(4) 0.9691(7) 0.3315(4)
H15 H 0.3356 0.9858 0.3719
C11 C 0.3611(4) 0.8527(6) 0.2606(4)
H16 H 0.3741 0.7854 0.2500
C12 C 0.3475(3) 0.9288(5) 0.2149(4)
C13 C 0.3522(3) 0.9168(5) 0.1487(4)
C14 C 0.3761(4) 0.8036(6) 0.0634(4)
H17 H 0.3765 0.8709 0.0415
H18 H 0.4130 0.7686 0.0613
C15 C 0.3279(4) 0.7327(7) 0.0332(4)
H19 H 0.3215 0.6745 0.0607
C16 C 0.2729(4) 0.7876(7) 0.0160(5)
H21 H 0.2588 0.8166 0.0523
N5 N 0.3561(3) 0.8734(6) 0.3190(3)
N6 N 0.3690(3) 0.8256(5) 0.1274(3)
H23 H 0.3765 0.7741 0.1530
O24 O 0.3403(2) 0.9974(4) 0.1160(2)
C1 C 0.1765(3) 0.4525(6) 0.7118(4)
H1 H 0.1895 0.3859 0.7004
C2 C 0.1616(4) 0.5309(7) 0.6685(4)
H2 H 0.1644 0.5142 0.6281
C3 C 0.1389(4) 0.6473(6) 0.7394(4)
H3 H 0.1259 0.7146 0.7500
C4 C 0.1525(3) 0.5712(5) 0.7851(4)
C5 C 0.1478(3) 0.5832(5) 0.8513(4)
C6 C 0.1239(4) 0.6964(6) 0.9366(4)
H4 H 0.1235 0.6291 0.9585
H5 H 0.0870 0.7314 0.9387
C7 C 0.1721(4) 0.7673(7) 0.9668(4)
H6 H 0.1785 0.8255 0.9393
C8 C 0.2271(4) 0.7124(7) 0.9840(5)
H8 H 0.2412 0.6834 0.9477
Cu1 Cu 0.19211(4) 0.38234(7) 0.84291(4)
N1 N 0.1718(2) 0.4739(4) 0.7699(3)
N2 N 0.1439(3) 0.6266(6) 0.6810(3)
N3 N 0.1310(3) 0.6744(5) 0.8726(3)
H10 H 0.1235 0.7259 0.8470
O1 O 0.2316(2) 0.2681(4) 0.8036(3)
H11 H 0.2469 0.2927 0.7725
H12 H 0.2071 0.2208 0.7877
O2 O 0.2083(3) 0.3121(5) 0.9209(3)
H13 H 0.1878 0.2543 0.9219
O3 O 0.1597(2) 0.5026(4) 0.8840(2)
Co1 Co 0.55223(3) 0.58333(6) 0.72593(4)
Mo1 Mo 0.55761(2) 0.71241(4) 0.84149(3)
Mo2 Mo 0.43549(3) 0.71453(5) 0.90056(3)
Mo3 Mo 0.32261(2) 0.58772(4) 0.83037(3)
Mo4 Mo 0.33807(2) 0.46278(4) 0.70109(3)
Mo5 Mo 0.46492(2) 0.44803(4) 0.65200(3)
O4 O 0.60274(18) 0.6896(3) 0.6965(2)
O5 O 0.60992(18) 0.4808(3) 0.7068(2)
O6 O 0.5000 0.6841(5) 0.7500
O7 O 0.58857(19) 0.5784(3) 0.8076(2)
O8 O 0.5982(2) 0.8036(4) 0.8062(2)
O9 O 0.5933(2) 0.6951(4) 0.9123(2)
O10 O 0.49341(19) 0.7908(3) 0.8612(2)
O11 O 0.4735(2) 0.6861(5) 0.9691(2)
O12 O 0.3941(2) 0.8211(4) 0.9135(3)
O13 O 0.3803(2) 0.5979(4) 0.8992(2)
O14 O 0.2807(2) 0.6959(4) 0.8392(2)
O15 O 0.2849(2) 0.4795(4) 0.8517(2)
O16 O 0.30601(19) 0.5814(3) 0.7420(2)
O17 O 0.2997(2) 0.3592(4) 0.7272(3)
O18 O 0.3064(2) 0.4883(5) 0.6292(3)
O19 O 0.4044(2) 0.3741(4) 0.6859(2)
O20 O 0.4337(2) 0.4588(4) 0.5789(3)
O21 O 0.5185(2) 0.3535(4) 0.6501(3)
O22 O 0.50937(18) 0.5843(3) 0.6482(2)
O23 O 0.5000 0.4807(5) 0.7500
H20 H 0.3407 0.7012 0.9969
H22 H 0.2790 0.8471 0.9893
Cu2 Cu 0.80789(4) 0.38234(7) 0.65709(4)
O25 O 0.7684(2) 0.2681(4) 0.6964(3)
H24 H 0.7531 0.2927 0.7275
H25 H 0.7929 0.2208 0.7123
O26 O 0.7917(3) 0.3121(5) 0.5791(3)
H26 H 0.8122 0.2543 0.5781
Co2 Co 0.44777(3) 0.58333(6) 0.77407(4)
Mo6 Mo 0.44239(2) 0.71241(4) 0.65851(3)
Mo7 Mo 0.56451(3) 0.71453(5) 0.59944(3)
Mo8 Mo 0.67739(2) 0.58772(4) 0.66963(3)
Mo9 Mo 0.66193(2) 0.46278(4) 0.79891(3)
Mo10 Mo 0.53508(2) 0.44803(4) 0.84800(3)
O27 O 0.39726(18) 0.6896(3) 0.8035(2)
O28 O 0.39008(18) 0.4808(3) 0.7932(2)
O29 O 0.41143(19) 0.5784(3) 0.6924(2)
O30 O 0.4018(2) 0.8036(4) 0.6938(2)
O31 O 0.4067(2) 0.6951(4) 0.5877(2)
O32 O 0.50659(19) 0.7908(3) 0.6388(2)
O33 O 0.5265(2) 0.6861(5) 0.5309(2)
O34 O 0.6059(2) 0.8211(4) 0.5865(3)
O35 O 0.6197(2) 0.5979(4) 0.6008(2)
O36 O 0.7193(2) 0.6959(4) 0.6608(2)
O37 O 0.7151(2) 0.4795(4) 0.6483(2)
O38 O 0.69399(19) 0.5814(3) 0.7580(2)
O39 O 0.7003(2) 0.3592(4) 0.7728(3)
O40 O 0.6936(2) 0.4883(5) 0.8708(3)
O41 O 0.5956(2) 0.3741(4) 0.8141(2)
O42 O 0.5663(2) 0.4588(4) 0.9211(3)
O43 O 0.4815(2) 0.3535(4) 0.8499(3)
O44 O 0.49063(18) 0.5843(3) 0.8518(2)
Cu3 Cu 0.69211(4) 0.88234(7) 0.84291(4)
Cu4 Cu 0.30789(4) 0.88234(7) 0.65709(4)
N7 N 0.8282(2) 0.4739(4) 0.7301(3)
O45 O 0.8403(2) 0.5026(4) 0.6160(2)
O46 O 0.0982(2) 0.3036(4) 0.8062(2)
O47 O 0.9018(2) 0.3036(4) 0.6938(2)
H27 H 0.198856 0.361603 0.953482
H28 H 0.801144 0.361603 0.546518
C9_2 C 0.6765(3) 0.0475(6) 0.2118(4)
H14_2 H 0.6895 0.1141 0.2004
N4_2 N 0.6718(2) 0.0261(4) 0.2699(3)
Cu5_2 Cu 0.69211(4) 0.11766(7) 0.34291(4)
C1_2 C 0.8235(3) 0.4525(6) 0.7882(4)
H1_2 H 0.8105 0.3859 0.7996
C2_2 C 0.8384(4) 0.5309(7) 0.8315(4)
H2_2 H 0.8356 0.5142 0.8719
C3_2 C 0.8611(4) 0.6473(6) 0.7606(4)
H3_2 H 0.8741 0.7146 0.7500
C4_2 C 0.8475(3) 0.5712(5) 0.7149(4)
C5_2 C 0.8522(3) 0.5832(5) 0.6487(4)
C6_2 C 0.8761(4) 0.6964(6) 0.5634(4)
H4_2 H 0.8765 0.6291 0.5415
H5_2 H 0.9130 0.7314 0.5613
C7_2 C 0.8279(4) 0.7673(7) 0.5332(4)
H6_2 H 0.8215 0.8255 0.5607
H7_2 H 0.8407 0.7988 0.4969
C8_2 C 0.7729(4) 0.7124(7) 0.5160(5)
H8_2 H 0.7588 0.6834 0.5523
H9_2 H 0.7790 0.6529 0.4893
N2_2 N 0.8561(3) 0.6266(6) 0.8190(3)
N3_2 N 0.8690(3) 0.6744(5) 0.6274(3)
H10_2 H 0.8765 0.7259 0.6530
C10_2 C 0.6616(4) 0.9691(7) 0.1685(4)
H15_2 H 0.6644 0.9858 0.1281
C11_2 C 0.6389(4) 0.8527(6) 0.2394(4)
H16_2 H 0.6259 0.7854 0.2500
C12_2 C 0.6525(3) 0.9288(5) 0.2851(4)
C13_2 C 0.6478(3) 0.9168(5) 0.3513(4)
C14_2 C 0.6239(4) 0.8036(6) 0.4366(4)
H17_2 H 0.6235 0.8709 0.4585
H18_2 H 0.5870 0.7686 0.4387
C15_2 C 0.6721(4) 0.7327(7) 0.4668(4)
H19_2 H 0.6785 0.6745 0.4393
H20_2 H 0.6593 0.7012 0.5031
C16_2 C 0.7271(4) 0.7876(7) 0.4840(5)
H21_2 H 0.7412 0.8166 0.4477
H22_2 H 0.7210 0.8471 0.5107
N5_2 N 0.6439(3) 0.8734(6) 0.1810(3)
N6_2 N 0.6310(3) 0.8256(5) 0.3726(3)
H23_2 H 0.6235 0.7741 0.3470
O24_2 O 0.6597(2) 0.9974(4) 0.3840(2)
Co1_2 Co 0.05223(3) 0.08333(6) 0.72593(4)
Mo1_2 Mo 0.05761(2) 0.21241(4) 0.84149(3)
O4_2 O 0.10274(18) 0.1896(3) 0.6965(2)
O6_2 O 0.0000 0.1841(5) 0.7500
O7_2 O 0.08857(19) 0.0784(3) 0.8076(2)
O9_2 O 0.0933(2) 0.1951(4) 0.9123(2)
O22_2 O 0.00937(18) 0.0843(3) 0.6482(2)
Mo7_2 Mo 0.06451(3) 0.21453(5) 0.59944(3)
Mo8_2 Mo 0.17739(2) 0.08772(4) 0.66963(3)
O32_2 O 0.00659(19) 0.2908(3) 0.6388(2)
O33_2 O 0.0265(2) 0.1861(5) 0.5309(2)
O34_2 O 0.1059(2) 0.3211(4) 0.5865(3)
O35_2 O 0.1197(2) 0.0979(4) 0.6008(2)
O36_2 O 0.2193(2) 0.1959(4) 0.6608(2)
O38_2 O 0.19399(19) 0.0814(3) 0.7580(2)
O45_2 O 0.3403(2) 0.0026(4) 0.6160(2)
O5_2 O 0.10992(18) 0.9808(3) 0.7068(2)
O21_2 O 0.0185(2) 0.8535(4) 0.6501(3)
O23_2 O 0.0000 0.9807(5) 0.7500
O25_2 O 0.2684(2) 0.7681(4) 0.6964(3)
H24_2 H 0.2531 0.7927 0.7275
H25_2 H 0.2929 0.7208 0.7123
O26_2 O 0.2917(3) 0.8121(5) 0.5791(3)
H26_2 H 0.3122 0.7543 0.5781
Mo9_2 Mo 0.16193(2) 0.96278(4) 0.79891(3)
Mo10_2 Mo 0.03508(2) 0.94803(4) 0.84800(3)
O37_2 O 0.2151(2) 0.9795(4) 0.6483(2)
O39_2 O 0.2003(2) 0.8592(4) 0.7728(3)
O40_2 O 0.1936(2) 0.9883(5) 0.8708(3)
O41_2 O 0.0956(2) 0.8741(4) 0.8141(2)
O42_2 O 0.0663(2) 0.9588(4) 0.9211(3)
N7_2 N 0.3282(2) 0.9739(4) 0.7301(3)
H28_2 H 0.301144 0.861603 0.546518
H7_3 H 0.6593 0.2988 0.0031
H9_3 H 0.7210 0.1529 0.0107
C9_3 C 0.8235(3) 0.5475(6) 0.2882(4)
H14_3 H 0.8105 0.6141 0.2996
C10_3 C 0.8384(4) 0.4691(7) 0.3315(4)
H15_3 H 0.8356 0.4858 0.3719
C11_3 C 0.8611(4) 0.3527(6) 0.2606(4)
H16_3 H 0.8741 0.2854 0.2500
C12_3 C 0.8475(3) 0.4288(5) 0.2149(4)
C13_3 C 0.8522(3) 0.4168(5) 0.1487(4)
C14_3 C 0.8761(4) 0.3036(6) 0.0634(4)
H17_3 H 0.8765 0.3709 0.0415
H18_3 H 0.9130 0.2686 0.0613
C15_3 C 0.8279(4) 0.2327(7) 0.0332(4)
H19_3 H 0.8215 0.1745 0.0607
C16_3 C 0.7729(4) 0.2876(7) 0.0160(5)
H21_3 H 0.7588 0.3166 0.0523
N4_3 N 0.8282(2) 0.5261(4) 0.2301(3)
N5_3 N 0.8561(3) 0.3734(6) 0.3190(3)
N6_3 N 0.8690(3) 0.3256(5) 0.1274(3)
H23_3 H 0.8765 0.2741 0.1530
O24_3 O 0.8403(2) 0.4974(4) 0.1160(2)
Cu5_3 Cu 0.80789(4) 0.61766(7) 0.15709(4)
C2_3 C 0.6616(4) 0.0309(7) 0.6685(4)
H2_3 H 0.6644 0.0142 0.6281
C3_3 C 0.6389(4) 0.1473(6) 0.7394(4)
H3_3 H 0.6259 0.2146 0.7500
C4_3 C 0.6525(3) 0.0712(5) 0.7851(4)
C5_3 C 0.6478(3) 0.0832(5) 0.8513(4)
C6_3 C 0.6239(4) 0.1964(6) 0.9366(4)
H4_3 H 0.6235 0.1291 0.9585
H5_3 H 0.5870 0.2314 0.9387
C7_3 C 0.6721(4) 0.2673(7) 0.9668(4)
H6_3 H 0.6785 0.3255 0.9393
C8_3 C 0.7271(4) 0.2124(7) 0.9840(5)
H8_3 H 0.7412 0.1834 0.9477
N2_3 N 0.6439(3) 0.1266(6) 0.6810(3)
N3_3 N 0.6310(3) 0.1744(5) 0.8726(3)
H10_3 H 0.6235 0.2259 0.8470
O3_2 O 0.6597(2) 0.0026(4) 0.8840(2)
Mo2_2 Mo 0.93549(3) 0.21453(5) 0.90056(3)
Mo3_2 Mo 0.82261(2) 0.08772(4) 0.83037(3)
O6_3 O 1.0000 0.1841(5) 0.7500
O10_2 O 0.99341(19) 0.2908(3) 0.8612(2)
O11_2 O 0.9735(2) 0.1861(5) 0.9691(2)
O12_2 O 0.8941(2) 0.3211(4) 0.9135(3)
O13_2 O 0.8803(2) 0.0979(4) 0.8992(2)
O14_2 O 0.7807(2) 0.1959(4) 0.8392(2)
O16_2 O 0.80601(19) 0.0814(3) 0.7420(2)
H20_3 H 0.8407 0.2012 0.9969
H22_3 H 0.7790 0.3471 0.9893
Co2_2 Co 0.94777(3) 0.08333(6) 0.77407(4)
Mo6_2 Mo 0.94239(2) 0.21241(4) 0.65851(3)
O27_2 O 0.89726(18) 0.1896(3) 0.8035(2)
O29_2 O 0.91143(19) 0.0784(3) 0.6924(2)
O31_2 O 0.9067(2) 0.1951(4) 0.5877(2)
O44_2 O 0.99063(18) 0.0843(3) 0.8518(2)
C1_3 C 0.6765(3) 0.9525(6) 0.7118(4)
H1_3 H 0.6895 0.8859 0.7004
N1_2 N 0.6718(2) 0.9739(4) 0.7699(3)
O1_2 O 0.7316(2) 0.7681(4) 0.8036(3)
H11_2 H 0.7469 0.7927 0.7725
H12_2 H 0.7071 0.7208 0.7877
O2_2 O 0.7083(3) 0.8121(5) 0.9209(3)
H13_2 H 0.6878 0.7543 0.9219
Mo4_2 Mo 0.83807(2) 0.96278(4) 0.70109(3)
Mo5_2 Mo 0.96492(2) 0.94803(4) 0.65200(3)
O15_2 O 0.7849(2) 0.9795(4) 0.8517(2)
O17_2 O 0.7997(2) 0.8592(4) 0.7272(3)
O18_2 O 0.8064(2) 0.9883(5) 0.6292(3)
O19_2 O 0.9044(2) 0.8741(4) 0.6859(2)
O20_2 O 0.9337(2) 0.9588(4) 0.5789(3)
O23_3 O 1.0000 0.9807(5) 0.7500
O28_2 O 0.89008(18) 0.9808(3) 0.7932(2)
O43_2 O 0.9815(2) 0.8535(4) 0.8499(3)
H27_2 H 0.698856 0.861603 0.953482
C2_4 C 0.3384(4) 0.0309(7) 0.8315(4)
H2_4 H 0.3356 0.0142 0.8719
C3_4 C 0.3611(4) 0.1473(6) 0.7606(4)
H3_4 H 0.3741 0.2146 0.7500
C4_4 C 0.3475(3) 0.0712(5) 0.7149(4)
C5_4 C 0.3522(3) 0.0832(5) 0.6487(4)
C6_4 C 0.3761(4) 0.1964(6) 0.5634(4)
H4_4 H 0.3765 0.1291 0.5415
H5_4 H 0.4130 0.2314 0.5613
C7_4 C 0.3279(4) 0.2673(7) 0.5332(4)
H6_4 H 0.3215 0.3255 0.5607
H7_4 H 0.3407 0.2988 0.4969
C8_4 C 0.2729(4) 0.2124(7) 0.5160(5)
H8_4 H 0.2588 0.1834 0.5523
H9_4 H 0.2790 0.1529 0.4893
N2_4 N 0.3561(3) 0.1266(6) 0.8190(3)
N3_4 N 0.3690(3) 0.1744(5) 0.6274(3)
H10_4 H 0.3765 0.2259 0.6530
C9_4 C 0.1765(3) 0.5475(6) 0.2118(4)
H14_4 H 0.1895 0.6141 0.2004
C10_4 C 0.1616(4) 0.4691(7) 0.1685(4)
H15_4 H 0.1644 0.4858 0.1281
C11_4 C 0.1389(4) 0.3527(6) 0.2394(4)
H16_4 H 0.1259 0.2854 0.2500
C12_4 C 0.1525(3) 0.4288(5) 0.2851(4)
C13_4 C 0.1478(3) 0.4168(5) 0.3513(4)
C14_4 C 0.1239(4) 0.3036(6) 0.4366(4)
H17_4 H 0.1235 0.3709 0.4585
H18_4 H 0.0870 0.2686 0.4387
C15_4 C 0.1721(4) 0.2327(7) 0.4668(4)
H19_4 H 0.1785 0.1745 0.4393
H20_4 H 0.1593 0.2012 0.5031
C16_4 C 0.2271(4) 0.2876(7) 0.4840(5)
H21_4 H 0.2412 0.3166 0.4477
H22_4 H 0.2210 0.3471 0.5107
N4_4 N 0.1718(2) 0.5261(4) 0.2699(3)
N5_4 N 0.1439(3) 0.3734(6) 0.1810(3)
N6_4 N 0.1310(3) 0.3256(5) 0.3726(3)
H23_4 H 0.1235 0.2741 0.3470
O24_4 O 0.1597(2) 0.4974(4) 0.3840(2)
Cu5_4 Cu 0.19211(4) 0.61766(7) 0.34291(4)
C1_4 C 0.3235(3) 0.9525(6) 0.7882(4)
H1_4 H 0.3105 0.8859 0.7996
O1_3 O 0.7684(2) 0.7319(4) 0.1964(3)
H11_3 H 0.7531 0.7073 0.2275
H12_3 H 0.7929 0.7792 0.2123
O2_3 O 0.7917(3) 0.6879(5) 0.0791(3)
H13_3 H 0.8122 0.7457 0.0781
Co1_3 Co 0.44777(3) 0.41667(6) 0.27407(4)
Mo1_3 Mo 0.44239(2) 0.28759(4) 0.15851(3)
Mo2_3 Mo 0.56451(3) 0.28547(5) 0.09944(3)
Mo3_3 Mo 0.67739(2) 0.41228(4) 0.16963(3)
Mo4_3 Mo 0.66193(2) 0.53722(4) 0.29891(3)
Mo5_3 Mo 0.53508(2) 0.55197(4) 0.34800(3)
O4_3 O 0.39726(18) 0.3104(3) 0.3035(2)
O5_3 O 0.39008(18) 0.5192(3) 0.2932(2)
O6_4 O 0.5000 0.3159(5) 0.2500
O7_3 O 0.41143(19) 0.4216(3) 0.1924(2)
O8_2 O 0.4018(2) 0.1964(4) 0.1938(2)
O9_3 O 0.4067(2) 0.3049(4) 0.0877(2)
O10_3 O 0.50659(19) 0.2092(3) 0.1388(2)
O11_3 O 0.5265(2) 0.3139(5) 0.0309(2)
O12_3 O 0.6059(2) 0.1789(4) 0.0865(3)
O13_3 O 0.6197(2) 0.4021(4) 0.1008(2)
O14_3 O 0.7193(2) 0.3041(4) 0.1608(2)
O15_3 O 0.7151(2) 0.5205(4) 0.1483(2)
O16_3 O 0.69399(19) 0.4186(3) 0.2580(2)
O17_3 O 0.7003(2) 0.6408(4) 0.2728(3)
O18_3 O 0.6936(2) 0.5117(5) 0.3708(3)
O19_3 O 0.5956(2) 0.6259(4) 0.3141(2)
O20_3 O 0.5663(2) 0.5412(4) 0.4211(3)
O21_3 O 0.4815(2) 0.6465(4) 0.3499(3)
O22_3 O 0.49063(18) 0.4157(3) 0.3518(2)
O23_4 O 0.5000 0.5193(5) 0.2500
O25_3 O 0.2316(2) 0.7319(4) 0.3036(3)
H24_3 H 0.2469 0.7073 0.2725
H25_3 H 0.2071 0.7792 0.2877
O26_3 O 0.2083(3) 0.6879(5) 0.4209(3)
H26_3 H 0.1878 0.7457 0.4219
Co2_3 Co 0.55223(3) 0.41667(6) 0.22593(4)
Mo6_3 Mo 0.55761(2) 0.28759(4) 0.34149(3)
Mo7_3 Mo 0.43549(3) 0.28547(5) 0.40056(3)
Mo8_3 Mo 0.32261(2) 0.41228(4) 0.33037(3)
Mo9_3 Mo 0.33807(2) 0.53722(4) 0.20109(3)
Mo10_3 Mo 0.46492(2) 0.55197(4) 0.15200(3)
O27_3 O 0.60274(18) 0.3104(3) 0.1965(2)
O28_3 O 0.60992(18) 0.5192(3) 0.2068(2)
O29_3 O 0.58857(19) 0.4216(3) 0.3076(2)
O30_2 O 0.5982(2) 0.1964(4) 0.3062(2)
O31_3 O 0.5933(2) 0.3049(4) 0.4123(2)
O32_3 O 0.49341(19) 0.2092(3) 0.3612(2)
O33_3 O 0.4735(2) 0.3139(5) 0.4691(2)
O34_3 O 0.3941(2) 0.1789(4) 0.4135(3)
O35_3 O 0.3803(2) 0.4021(4) 0.3992(2)
O36_3 O 0.2807(2) 0.3041(4) 0.3392(2)
O37_3 O 0.2849(2) 0.5205(4) 0.3517(2)
O38_3 O 0.30601(19) 0.4186(3) 0.2420(2)
O39_3 O 0.2997(2) 0.6408(4) 0.2272(3)
O40_3 O 0.3064(2) 0.5117(5) 0.1292(3)
O41_3 O 0.4044(2) 0.6259(4) 0.1859(2)
O42_3 O 0.4337(2) 0.5412(4) 0.0789(3)
O43_3 O 0.5185(2) 0.6465(4) 0.1501(3)
O44_3 O 0.50937(18) 0.4157(3) 0.1482(2)
O46_2 O 0.9018(2) 0.6964(4) 0.1938(2)
O47_2 O 0.0982(2) 0.6964(4) 0.3062(2)
H27_3 H 0.801144 0.638397 0.0465178
H28_3 H 0.198856 0.638397 0.453482
O1_4 O 0.2684(2) 0.2319(4) 0.1964(3)
H11_4 H 0.2531 0.2073 0.2275
H12_4 H 0.2929 0.2792 0.2123
O2_4 O 0.2917(3) 0.1879(5) 0.0791(3)
H13_4 H 0.3122 0.2457 0.0781
Mo4_4 Mo 0.16193(2) 0.03722(4) 0.29891(3)
Mo5_4 Mo 0.03508(2) 0.05197(4) 0.34800(3)
O15_4 O 0.2151(2) 0.0205(4) 0.1483(2)
O17_4 O 0.2003(2) 0.1408(4) 0.2728(3)
O18_4 O 0.1936(2) 0.0117(5) 0.3708(3)
O19_4 O 0.0956(2) 0.1259(4) 0.3141(2)
O20_4 O 0.0663(2) 0.0412(4) 0.4211(3)
O23_5 O 0.0000 0.0193(5) 0.2500
O28_4 O 0.10992(18) 0.0192(3) 0.2068(2)
O43_4 O 0.0185(2) 0.1465(4) 0.1501(3)
H27_4 H 0.301144 0.138397 0.0465178
Mo2_4 Mo 0.06451(3) 0.78547(5) 0.09944(3)
Mo3_4 Mo 0.17739(2) 0.91228(4) 0.16963(3)
O6_5 O 0.0000 0.8159(5) 0.2500
O10_4 O 0.00659(19) 0.7092(3) 0.1388(2)
O11_4 O 0.0265(2) 0.8139(5) 0.0309(2)
O12_4 O 0.1059(2) 0.6789(4) 0.0865(3)
O13_4 O 0.1197(2) 0.9021(4) 0.1008(2)
O14_4 O 0.2193(2) 0.8041(4) 0.1608(2)
O16_4 O 0.19399(19) 0.9186(3) 0.2580(2)
Co2_4 Co 0.05223(3) 0.91667(6) 0.22593(4)
Mo6_4 Mo 0.05761(2) 0.78759(4) 0.34149(3)
O27_4 O 0.10274(18) 0.8104(3) 0.1965(2)
O29_4 O 0.08857(19) 0.9216(3) 0.3076(2)
O31_4 O 0.0933(2) 0.8049(4) 0.4123(2)
O44_4 O 0.00937(18) 0.9157(3) 0.1482(2)
O5_4 O 0.89008(18) 0.0192(3) 0.2932(2)
O21_4 O 0.9815(2) 0.1465(4) 0.3499(3)
O23_6 O 1.0000 0.0193(5) 0.2500
O25_4 O 0.7316(2) 0.2319(4) 0.3036(3)
H24_4 H 0.7469 0.2073 0.2725
H25_4 H 0.7071 0.2792 0.2877
O26_4 O 0.7083(3) 0.1879(5) 0.4209(3)
H26_4 H 0.6878 0.2457 0.4219
Mo9_4 Mo 0.83807(2) 0.03722(4) 0.20109(3)
Mo10_4 Mo 0.96492(2) 0.05197(4) 0.15200(3)
O37_4 O 0.7849(2) 0.0205(4) 0.3517(2)
O39_4 O 0.7997(2) 0.1408(4) 0.2272(3)
O40_4 O 0.8064(2) 0.0117(5) 0.1292(3)
O41_4 O 0.9044(2) 0.1259(4) 0.1859(2)
O42_4 O 0.9337(2) 0.0412(4) 0.0789(3)
H28_4 H 0.698856 0.138397 0.453482
Co1_4 Co 0.94777(3) 0.91667(6) 0.27407(4)
Mo1_4 Mo 0.94239(2) 0.78759(4) 0.15851(3)
O4_4 O 0.89726(18) 0.8104(3) 0.3035(2)
O6_6 O 1.0000 0.8159(5) 0.2500
O7_4 O 0.91143(19) 0.9216(3) 0.1924(2)
O9_4 O 0.9067(2) 0.8049(4) 0.0877(2)
O22_4 O 0.99063(18) 0.9157(3) 0.3518(2)
Mo7_4 Mo 0.93549(3) 0.78547(5) 0.40056(3)
Mo8_4 Mo 0.82261(2) 0.91228(4) 0.33037(3)
O32_4 O 0.99341(19) 0.7092(3) 0.3612(2)
O33_4 O 0.9735(2) 0.8139(5) 0.4691(2)
O34_4 O 0.8941(2) 0.6789(4) 0.4135(3)
O35_4 O 0.8803(2) 0.9021(4) 0.3992(2)
O36_4 O 0.7807(2) 0.8041(4) 0.3392(2)
O38_4 O 0.80601(19) 0.9186(3) 0.2420(2)
loop_
_geom_bond_atom_site_label_1
_geom_bond_atom_site_label_2
_geom_bond_site_symmetry_1
_geom_bond_site_symmetry_2
C9 H14 1_555 1_555
N4 C9 1_555 1_555
Cu5 N4 1_555 1_555
H15 C10 1_555 1_555
C11 H16 1_555 1_555
C12 C11 1_555 1_555
C13 C12 1_555 1_555
C14 H17 1_555 1_555
H18 C14 1_555 1_555
C15 C14 1_555 1_555
H19 C15 1_555 1_555
H21 C16 1_555 1_555
N5 C10 1_555 1_555
N6 C13 1_555 1_555
H23 N6 1_555 1_555
O24 C13 1_555 1_555
C11 N5 1_555 1_555
C14 N6 1_555 1_555
C15 C16 1_555 1_555
C1 H1 1_555 1_555
C2 C1 1_555 1_555
H2 C2 1_555 1_555
C3 H3 1_555 1_555
C4 C3 1_555 1_555
C5 C4 1_555 1_555
C6 H4 1_555 1_555
H5 C6 1_555 1_555
C7 C6 1_555 1_555
H6 C7 1_555 1_555
C8 C7 1_555 1_555
H8 C8 1_555 1_555
Cu1 N1 1_555 1_555
N1 C1 1_555 1_555
N2 C2 1_555 1_555
N3 C5 1_555 1_555
H10 N3 1_555 1_555
O1 Cu1 1_555 1_555
H11 O1 1_555 1_555
H12 O1 1_555 1_555
O2 Cu1 1_555 1_555
H13 O2 1_555 1_555
O3 C5 1_555 1_555
Co1 O4 1_555 1_555
Mo1 O6 1_555 1_555
Mo2 O10 1_555 1_555
Mo3 O13 1_555 1_555
Mo4 O16 1_555 1_555
Mo5 O19 1_555 1_555
O4 Mo7 1_555 1_555
O5 Co1 1_555 1_555
O6 Co1 1_555 1_555
O7 Co1 1_555 1_555
O8 Mo1 1_555 1_555
O9 Mo1 1_555 1_555
O10 Mo1 1_555 1_555
O11 Mo2 1_555 1_555
O12 Mo2 1_555 1_555
O13 Mo2 1_555 1_555
O14 Mo3 1_555 1_555
O15 Cu1 1_555 1_555
O16 Mo3 1_555 1_555
O17 Mo4 1_555 1_555
O18 Mo4 1_555 1_555
O19 Mo4 1_555 1_555
O20 Mo5 1_555 1_555
O21 Mo5 1_555 1_555
O22 Co1 1_555 1_555
O23 Co1 1_555 1_555
Cu2 O25 1_555 1_555
O25 H24 1_555 1_555
H25 O25 1_555 1_555
O26 Cu2 1_555 1_555
H26 O26 1_555 1_555
Co2 O6 1_555 1_555
Mo6 O6 1_555 1_555
Mo7 O22 1_555 1_555
Mo8 O4 1_555 1_555
Mo9 O5 1_555 1_555
Mo10 O7 1_555 1_555
O27 Mo2 1_555 1_555
O28 Mo3 1_555 1_555
O29 Mo4 1_555 1_555
O30 Mo6 1_555 1_555
O31 Mo6 1_555 1_555
O32 Mo6 1_555 1_555
O33 Mo7 1_555 1_555
O34 Mo7 1_555 1_555
O35 Mo7 1_555 1_555
O36 Mo8 1_555 1_555
O37 Cu2 1_555 1_555
O38 Mo8 1_555 1_555
O39 Mo9 1_555 1_555
O40 Mo9 1_555 1_555
O41 Mo9 1_555 1_555
O42 Mo10 1_555 1_555
O43 Mo10 1_555 1_555
O44 Mo1 1_555 1_555
Cu3 O8 1_555 1_555
Cu4 O30 1_555 1_555
N7 Cu2 1_555 1_555
O45 Cu2 1_555 1_555
O46 Cu1 1_555 1_555
O47 Cu2 1_555 1_555
C3 N2 1_555 1_555
C4 N1 1_555 1_555
C6 N3 1_555 1_555
Cu1 O3 1_555 1_555
Mo1 O7 1_555 1_555
Mo2 O44 1_555 1_555
Mo3 O15 1_555 1_555
Mo3 O27 1_555 1_555
Mo4 O28 1_555 1_555
Mo5 O22 1_555 1_555
Mo5 O23 1_555 1_555
Mo5 O29 1_555 1_555
O5 Mo8 1_555 1_555
O7 Mo9 1_555 1_555
O22 Mo6 1_555 1_555
O23 Co2 1_555 1_555
O23 Mo10 1_555 1_555
Co2 O27 1_555 1_555
Co2 O28 1_555 1_555
Co2 O29 1_555 1_555
Co2 O44 1_555 1_555
Mo6 O29 1_555 1_555
Mo7 O32 1_555 1_555
Mo8 O35 1_555 1_555
Mo8 O37 1_555 1_555
Mo9 O38 1_555 1_555
Mo10 O41 1_555 1_555
Mo10 O44 1_555 1_555
O2 H27 1_555 1_555
O26 H28 1_555 1_555
C9_2 H14_2 1_555 1_555
N4_2 C9_2 1_555 1_555
Cu5_2 N4_2 1_555 1_555
C1_2 H1_2 1_555 1_555
C2_2 C1_2 1_555 1_555
H2_2 C2_2 1_555 1_555
C3_2 H3_2 1_555 1_555
C4_2 C3_2 1_555 1_555
C5_2 C4_2 1_555 1_555
C6_2 H4_2 1_555 1_555
H5_2 C6_2 1_555 1_555
C7_2 C6_2 1_555 1_555
H6_2 C7_2 1_555 1_555
H7_2 C7_2 1_555 1_555
C8_2 C7_2 1_555 1_555
H8_2 C8_2 1_555 1_555
H9_2 C8_2 1_555 1_555
N7 C1_2 1_555 1_555
N2_2 C2_2 1_555 1_555
N3_2 C5_2 1_555 1_555
H10_2 N3_2 1_555 1_555
O45 C5_2 1_555 1_555
H15_2 C10_2 1_555 1_555
C11_2 H16_2 1_555 1_555
C12_2 C11_2 1_555 1_555
C13_2 C12_2 1_555 1_555
C14_2 H17_2 1_555 1_555
H18_2 C14_2 1_555 1_555
C15_2 C14_2 1_555 1_555
H19_2 C15_2 1_555 1_555
H20_2 C15_2 1_555 1_555
C16_2 C8_2 1_555 1_555
H21_2 C16_2 1_555 1_555
H22_2 C16_2 1_555 1_555
N5_2 C10_2 1_555 1_555
N6_2 C13_2 1_555 1_555
H23_2 N6_2 1_555 1_555
O24_2 C13_2 1_555 1_555
C3_2 N2_2 1_555 1_555
C4_2 N7 1_555 1_555
C6_2 N3_2 1_555 1_555
C11_2 N5_2 1_555 1_555
C14_2 N6_2 1_555 1_555
C15_2 C16_2 1_555 1_555
Co1_2 O4_2 1_555 1_555
Mo1_2 O6_2 1_555 1_555
O4_2 Mo7_2 1_555 1_555
O6_2 Co1_2 1_555 1_555
O7_2 Co1_2 1_555 1_555
O46 Mo1_2 1_555 1_555
O9_2 Mo1_2 1_555 1_555
O22_2 Co1_2 1_555 1_555
Mo7_2 O22_2 1_555 1_555
Mo8_2 O4_2 1_555 1_555
O33_2 Mo7_2 1_555 1_555
O34_2 Mo7_2 1_555 1_555
O35_2 Mo7_2 1_555 1_555
O36_2 Mo8_2 1_555 1_555
O38_2 Mo8_2 1_555 1_555
Mo1_2 O7_2 1_555 1_555
Mo7_2 O32_2 1_555 1_555
Mo8_2 O35_2 1_555 1_555
Cu4 O25_2 1_555 1_555
O25_2 H24_2 1_555 1_555
H25_2 O25_2 1_555 1_555
O26_2 Cu4 1_555 1_555
H26_2 O26_2 1_555 1_555
Mo9_2 O5_2 1_555 1_555
O37_2 Cu4 1_555 1_555
O39_2 Mo9_2 1_555 1_555
O40_2 Mo9_2 1_555 1_555
O41_2 Mo9_2 1_555 1_555
O42_2 Mo10_2 1_555 1_555
N7_2 Cu4 1_555 1_555
O23_2 Mo10_2 1_555 1_555
Mo10_2 O41_2 1_555 1_555
O26_2 H28_2 1_555 1_555
C9_3 H14_3 1_555 1_555
C10_3 C9_3 1_555 1_555
H15_3 C10_3 1_555 1_555
C11_3 H16_3 1_555 1_555
C12_3 C11_3 1_555 1_555
C13_3 C12_3 1_555 1_555
C14_3 H17_3 1_555 1_555
H18_3 C14_3 1_555 1_555
C15_3 C14_3 1_555 1_555
H19_3 C15_3 1_555 1_555
H21_3 C16_3 1_555 1_555
N4_3 C9_3 1_555 1_555
N5_3 C10_3 1_555 1_555
N6_3 C13_3 1_555 1_555
H23_3 N6_3 1_555 1_555
O24_3 C13_3 1_555 1_555
Cu5_3 N4_3 1_555 1_555
C11_3 N5_3 1_555 1_555
C12_3 N4_3 1_555 1_555
C14_3 N6_3 1_555 1_555
C15_3 C16_3 1_555 1_555
O24_3 Cu5_3 1_555 1_555
H2_3 C2_3 1_555 1_555
C3_3 H3_3 1_555 1_555
C4_3 C3_3 1_555 1_555
C5_3 C4_3 1_555 1_555
C6_3 H4_3 1_555 1_555
H5_3 C6_3 1_555 1_555
C7_3 C6_3 1_555 1_555
H6_3 C7_3 1_555 1_555
C8_3 C7_3 1_555 1_555
H8_3 C8_3 1_555 1_555
N2_3 C2_3 1_555 1_555
N3_3 C5_3 1_555 1_555
H10_3 N3_3 1_555 1_555
O3_2 C5_3 1_555 1_555
Mo2_2 O10_2 1_555 1_555
Mo3_2 O13_2 1_555 1_555
O11_2 Mo2_2 1_555 1_555
O12_2 Mo2_2 1_555 1_555
O13_2 Mo2_2 1_555 1_555
O14_2 Mo3_2 1_555 1_555
O16_2 Mo3_2 1_555 1_555
Co2_2 O6_3 1_555 1_555
Mo6_2 O6_3 1_555 1_555
O27_2 Mo2_2 1_555 1_555
O47 Mo6_2 1_555 1_555
O31_2 Mo6_2 1_555 1_555
C3_3 N2_3 1_555 1_555
C6_3 N3_3 1_555 1_555
Mo2_2 O44_2 1_555 1_555
Mo3_2 O27_2 1_555 1_555
Co2_2 O27_2 1_555 1_555
Co2_2 O29_2 1_555 1_555
Co2_2 O44_2 1_555 1_555
Mo6_2 O29_2 1_555 1_555
C1_3 H1_3 1_555 1_555
Cu3 N1_2 1_555 1_555
N1_2 C1_3 1_555 1_555
O1_2 Cu3 1_555 1_555
H11_2 O1_2 1_555 1_555
H12_2 O1_2 1_555 1_555
O2_2 Cu3 1_555 1_555
H13_2 O2_2 1_555 1_555
Mo5_2 O19_2 1_555 1_555
O15_2 Cu3 1_555 1_555
O17_2 Mo4_2 1_555 1_555
O18_2 Mo4_2 1_555 1_555
O19_2 Mo4_2 1_555 1_555
O20_2 Mo5_2 1_555 1_555
Mo4_2 O28_2 1_555 1_555
Mo5_2 O23_3 1_555 1_555
O2_2 H27_2 1_555 1_555
H2_4 C2_4 1_555 1_555
C3_4 H3_4 1_555 1_555
C4_4 C3_4 1_555 1_555
C5_4 C4_4 1_555 1_555
C6_4 H4_4 1_555 1_555
H5_4 C6_4 1_555 1_555
C7_4 C6_4 1_555 1_555
H6_4 C7_4 1_555 1_555
H7_4 C7_4 1_555 1_555
C8_4 C7_4 1_555 1_555
H8_4 C8_4 1_555 1_555
H9_4 C8_4 1_555 1_555
N2_4 C2_4 1_555 1_555
N3_4 C5_4 1_555 1_555
H10_4 N3_4 1_555 1_555
O45_2 C5_4 1_555 1_555
C9_4 H14_4 1_555 1_555
C10_4 C9_4 1_555 1_555
H15_4 C10_4 1_555 1_555
C11_4 H16_4 1_555 1_555
C12_4 C11_4 1_555 1_555
C13_4 C12_4 1_555 1_555
C14_4 H17_4 1_555 1_555
H18_4 C14_4 1_555 1_555
C15_4 C14_4 1_555 1_555
H19_4 C15_4 1_555 1_555
H20_4 C15_4 1_555 1_555
C16_4 C8_4 1_555 1_555
H21_4 C16_4 1_555 1_555
H22_4 C16_4 1_555 1_555
N4_4 C9_4 1_555 1_555
N5_4 C10_4 1_555 1_555
N6_4 C13_4 1_555 1_555
H23_4 N6_4 1_555 1_555
O24_4 C13_4 1_555 1_555
Cu5_4 N4_4 1_555 1_555
C3_4 N2_4 1_555 1_555
C6_4 N3_4 1_555 1_555
C11_4 N5_4 1_555 1_555
C12_4 N4_4 1_555 1_555
C14_4 N6_4 1_555 1_555
C15_4 C16_4 1_555 1_555
O24_4 Cu5_4 1_555 1_555
C1_4 H1_4 1_555 1_555
N7_2 C1_4 1_555 1_555
O1_3 Cu5_3 1_555 1_555
H11_3 O1_3 1_555 1_555
H12_3 O1_3 1_555 1_555
O2_3 Cu5_3 1_555 1_555
H13_3 O2_3 1_555 1_555
Co1_3 O4_3 1_555 1_555
Mo1_3 O6_4 1_555 1_555
Mo2_3 O10_3 1_555 1_555
Mo3_3 O13_3 1_555 1_555
Mo4_3 O16_3 1_555 1_555
Mo5_3 O19_3 1_555 1_555
O4_3 Mo7_3 1_555 1_555
O5_3 Co1_3 1_555 1_555
O6_4 Co1_3 1_555 1_555
O7_3 Co1_3 1_555 1_555
O8_2 Mo1_3 1_555 1_555
O9_3 Mo1_3 1_555 1_555
O10_3 Mo1_3 1_555 1_555
O11_3 Mo2_3 1_555 1_555
O12_3 Mo2_3 1_555 1_555
O13_3 Mo2_3 1_555 1_555
O14_3 Mo3_3 1_555 1_555
O15_3 Cu5_3 1_555 1_555
O16_3 Mo3_3 1_555 1_555
O17_3 Mo4_3 1_555 1_555
O18_3 Mo4_3 1_555 1_555
O19_3 Mo4_3 1_555 1_555
O20_3 Mo5_3 1_555 1_555
O21_3 Mo5_3 1_555 1_555
O22_3 Co1_3 1_555 1_555
O23_4 Co1_3 1_555 1_555
Cu5_4 O25_3 1_555 1_555
O25_3 H24_3 1_555 1_555
H25_3 O25_3 1_555 1_555
O26_3 Cu5_4 1_555 1_555
H26_3 O26_3 1_555 1_555
Co2_3 O6_4 1_555 1_555
Mo6_3 O6_4 1_555 1_555
Mo7_3 O22_3 1_555 1_555
Mo8_3 O4_3 1_555 1_555
Mo9_3 O5_3 1_555 1_555
Mo10_3 O7_3 1_555 1_555
O27_3 Mo2_3 1_555 1_555
O28_3 Mo3_3 1_555 1_555
O29_3 Mo4_3 1_555 1_555
O30_2 Mo6_3 1_555 1_555
O31_3 Mo6_3 1_555 1_555
O32_3 Mo6_3 1_555 1_555
O33_3 Mo7_3 1_555 1_555
O34_3 Mo7_3 1_555 1_555
O35_3 Mo7_3 1_555 1_555
O36_3 Mo8_3 1_555 1_555
O37_3 Cu5_4 1_555 1_555
O38_3 Mo8_3 1_555 1_555
O39_3 Mo9_3 1_555 1_555
O40_3 Mo9_3 1_555 1_555
O41_3 Mo9_3 1_555 1_555
O42_3 Mo10_3 1_555 1_555
O43_3 Mo10_3 1_555 1_555
O44_3 Mo1_3 1_555 1_555
Cu5 O8_2 1_555 1_555
Cu5_2 O30_2 1_555 1_555
O46_2 Cu5_3 1_555 1_555
O47_2 Cu5_4 1_555 1_555
Mo1_3 O7_3 1_555 1_555
Mo2_3 O44_3 1_555 1_555
Mo3_3 O15_3 1_555 1_555
Mo3_3 O27_3 1_555 1_555
Mo4_3 O28_3 1_555 1_555
Mo5_3 O22_3 1_555 1_555
Mo5_3 O23_4 1_555 1_555
Mo5_3 O29_3 1_555 1_555
O5_3 Mo8_3 1_555 1_555
O7_3 Mo9_3 1_555 1_555
O22_3 Mo6_3 1_555 1_555
O23_4 Co2_3 1_555 1_555
O23_4 Mo10_3 1_555 1_555
Co2_3 O27_3 1_555 1_555
Co2_3 O28_3 1_555 1_555
Co2_3 O29_3 1_555 1_555
Co2_3 O44_3 1_555 1_555
Mo6_3 O29_3 1_555 1_555
Mo7_3 O32_3 1_555 1_555
Mo8_3 O35_3 1_555 1_555
Mo8_3 O37_3 1_555 1_555
Mo9_3 O38_3 1_555 1_555
Mo10_3 O41_3 1_555 1_555
Mo10_3 O44_3 1_555 1_555
O2_3 H27_3 1_555 1_555
O26_3 H28_3 1_555 1_555
O1_4 Cu5 1_555 1_555
H11_4 O1_4 1_555 1_555
H12_4 O1_4 1_555 1_555
O2_4 Cu5 1_555 1_555
H13_4 O2_4 1_555 1_555
Mo5_4 O19_4 1_555 1_555
O15_4 Cu5 1_555 1_555
O17_4 Mo4_4 1_555 1_555
O18_4 Mo4_4 1_555 1_555
O19_4 Mo4_4 1_555 1_555
O20_4 Mo5_4 1_555 1_555
Mo4_4 O28_4 1_555 1_555
Mo5_4 O23_5 1_555 1_555
O2_4 H27_4 1_555 1_555
Mo2_4 O10_4 1_555 1_555
Mo3_4 O13_4 1_555 1_555
O11_4 Mo2_4 1_555 1_555
O12_4 Mo2_4 1_555 1_555
O13_4 Mo2_4 1_555 1_555
O14_4 Mo3_4 1_555 1_555
O16_4 Mo3_4 1_555 1_555
Co2_4 O6_5 1_555 1_555
Mo6_4 O6_5 1_555 1_555
O27_4 Mo2_4 1_555 1_555
O47_2 Mo6_4 1_555 1_555
O31_4 Mo6_4 1_555 1_555
Mo2_4 O44_4 1_555 1_555
Mo3_4 O27_4 1_555 1_555
Co2_4 O27_4 1_555 1_555
Co2_4 O29_4 1_555 1_555
Co2_4 O44_4 1_555 1_555
Mo6_4 O29_4 1_555 1_555
Cu5_2 O25_4 1_555 1_555
O25_4 H24_4 1_555 1_555
H25_4 O25_4 1_555 1_555
O26_4 Cu5_2 1_555 1_555
H26_4 O26_4 1_555 1_555
Mo9_4 O5_4 1_555 1_555
O37_4 Cu5_2 1_555 1_555
O39_4 Mo9_4 1_555 1_555
O40_4 Mo9_4 1_555 1_555
O41_4 Mo9_4 1_555 1_555
O42_4 Mo10_4 1_555 1_555
O23_6 Mo10_4 1_555 1_555
Mo10_4 O41_4 1_555 1_555
O26_4 H28_4 1_555 1_555
Co1_4 O4_4 1_555 1_555
Mo1_4 O6_6 1_555 1_555
O4_4 Mo7_4 1_555 1_555
O6_6 Co1_4 1_555 1_555
O7_4 Co1_4 1_555 1_555
O46_2 Mo1_4 1_555 1_555
O9_4 Mo1_4 1_555 1_555
O22_4 Co1_4 1_555 1_555
Mo7_4 O22_4 1_555 1_555
Mo8_4 O4_4 1_555 1_555
O33_4 Mo7_4 1_555 1_555
O34_4 Mo7_4 1_555 1_555
O35_4 Mo7_4 1_555 1_555
O36_4 Mo8_4 1_555 1_555
O38_4 Mo8_4 1_555 1_555
Mo1_4 O7_4 1_555 1_555
Mo7_4 O32_4 1_555 1_555
Mo8_4 O35_4 1_555 1_555

#END
