
###############################################################################
#
# This file contains modified crystal structure data generated from the
# MOF subset of the Cambridge Structural Database (CSD) v543 
# hosted by the Cambridge Crystallographic Data Centre (CCDC).
#
# This work is licensed under the Creative Commons
# Attribution-NonCommercial-ShareAlike 4.0 International License.
# To view a copy of this license, visit
# http://creativecommons.org/licenses/by-nc-sa/4.0/
# or send a letter to
# Creative Commons, PO Box 1866, Mountain View, CA 94042, USA.
#
# CIF created using the CSD Python API on 29 September 2022
# The structure has been converted into the P1 space group
# The structure has a 3D framework
# The original CSD entry KIXKOS is in the rhombohedral crystal system
# The framework has been calculated to contain at least 10.0% void space
# The void calculation uses a probe of radius 1.32A, grid spacing 0.4
#
###############################################################################

data_KIXKOS
_chemical_formula_moiety         '(C576 H324 Co96 K22 O304 10+)n'
_symmetry_cell_setting           triclinic
_symmetry_space_group_name_H-M   'P 1'
_symmetry_Int_Tables_number      1
_space_group_name_Hall           'P 1'
loop_
_symmetry_equiv_pos_site_id
_symmetry_equiv_pos_as_xyz
1 x,y,z
_cell_length_a                   16.9261(8)
_cell_length_b                   16.9261(8)
_cell_length_c                   84.627(5)
_cell_angle_alpha                90
_cell_angle_beta                 90
_cell_angle_gamma                120.00
_cell_volume                     20996.8
loop_
_atom_site_label
_atom_site_type_symbol
_atom_site_fract_x
_atom_site_fract_y
_atom_site_fract_z
Co10 Co 0.51092(5) 0.22096(6) 0.940968(7)
Co16 Co 0.45942(4) 0.22479(6) 0.976754(7)
O27 O 0.5073(4) 0.1140(2) 0.95318(4)
O32 O 0.4204(3) 0.0963(2) 0.97406(4)
C34 C 0.4663(5) 0.0729(3) 0.96555(6)
H23 H 0.5678 0.0074 0.9547
Co1 Co 0.28996(4) 0.51092(5) 0.059032(7)
Co2 Co 0.23463(5) 0.45942(4) 0.023246(7)
Co3 Co 0.3333 0.6667 0.026240(12)
O1 O 0.2558(2) 0.5526(2) 0.03958(4)
H1 H 0.219(4) 0.555(4) 0.0414(7)
O2 O 0.1333(2) 0.3566(2) 0.03434(4)
O3 O 0.1831(2) 0.3763(2) 0.05915(4)
C1 C 0.1283(3) 0.3319(3) 0.04841(6)
C2 C 0.0485(4) 0.2406(3) 0.05193(6)
C4 C 0.0265(3) 0.2050(3) 0.06701(6)
H2 H 0.0620 0.2385 0.0756
H3 H 0.0099 0.2130 0.0291
O8 O 0.2224(2) 0.6332(2) 0.01154(4)
O9 O 0.1723(2) 0.4865(2) 0.00664(4)
C13 C 0.1771(3) 0.5612(3) 0.00372(5)
Co4 Co 0.48908(5) 0.77904(6) 0.059032(7)
Co5 Co 0.22096(6) 0.71004(4) 0.059032(7)
Co7 Co 0.11237(6) 0.15575(5) 0.107635(7)
Co11 Co 0.84425(5) 0.95663(4) 0.107635(7)
Co12 Co 0.54058(4) 0.77521(6) 0.023246(7)
Co13 Co 0.22479(6) 0.76537(5) 0.023246(7)
Co17 Co 0.79275(4) 0.90130(5) 0.143421(7)
Co18 Co 0.10854(6) 0.20725(4) 0.143421(7)
O10 O 0.4474(2) 0.7032(3) 0.03958(4)
O11 O 0.2968(3) 0.7442(2) 0.03958(4)
H10 H 0.445(4) 0.664(6) 0.0414(7)
H11 H 0.336(6) 0.781(4) 0.0414(7)
O12 O 0.6899(2) 0.8000(2) 0.13233(4)
O13 O 0.1100(3) 0.3101(2) 0.13233(4)
O14 O 0.6434(2) 0.7767(3) 0.03434(4)
O15 O 0.2233(3) 0.8667(2) 0.03434(4)
O16 O 0.7096(2) 0.8498(2) 0.10752(4)
O17 O 0.1401(3) 0.2904(2) 0.10752(4)
O18 O 0.6237(2) 0.8068(3) 0.05915(4)
O19 O 0.1932(3) 0.8169(2) 0.05915(4)
O20 O 0.3446(2) 0.5108(2) 0.07993(4)
O21 O 0.1661(3) 0.6554(2) 0.07993(4)
O22 O 0.4892(2) 0.8339(3) 0.07993(4)
O23 O 0.4323(3) 0.6463(2) 0.07054(4)
O24 O 0.2139(4) 0.5677(3) 0.07054(4)
O25 O 0.3537(2) 0.7861(4) 0.07054(4)
C17 C 0.6652(3) 0.7950(3) 0.11826(6)
C18 C 0.1297(4) 0.3348(3) 0.11826(6)
C19 C 0.5739(3) 0.7152(4) 0.11474(6)
C20 C 0.1412(5) 0.4261(3) 0.11474(6)
C21 C 0.4522(3) 0.6178(4) 0.09735(6)
C22 C 0.1655(5) 0.5478(3) 0.09735(6)
C23 C 0.5383(3) 0.6932(3) 0.09966(6)
C24 C 0.1548(4) 0.4617(3) 0.09966(6)
H12 H 0.5718 0.7287 0.0911
H13 H 0.1568 0.4282 0.0911
C25 C 0.4094(3) 0.5922(3) 0.08161(5)
C26 C 0.1827(4) 0.5906(3) 0.08161(5)
C27 C 0.5226(5) 0.6622(6) 0.12735(7)
C28 C 0.1395(8) 0.4774(5) 0.12735(7)
H14 H 0.5463 0.6766 0.1376
H15 H 0.1302 0.4537 0.1376
C29 C 0.4370(5) 0.5889(7) 0.12497(8)
C30 C 0.1518(9) 0.5630(5) 0.12497(8)
H16 H 0.4022 0.5548 0.1336
H17 H 0.1525 0.5978 0.1336
C31 C 0.4036(5) 0.5662(5) 0.11011(7)
C32 C 0.1625(7) 0.5964(5) 0.11011(7)
H18 H 0.3468 0.5147 0.1085
H19 H 0.1678 0.6532 0.1085
O28 O 0.3933(3) 0.5073(4) 0.04682(4)
O29 O 0.4927(4) 0.8860(2) 0.04682(4)
O30 O 0.1140(2) 0.6067(3) 0.04682(4)
O33 O 0.3241(2) 0.4204(3) 0.02594(4)
O34 O 0.5796(3) 0.9037(2) 0.02594(4)
O35 O 0.0963(2) 0.6759(2) 0.02594(4)
O36 O 0.3668(2) 0.5892(3) 0.01154(4)
O37 O 0.4108(3) 0.7776(2) 0.01154(4)
O38 O 0.5135(2) 0.6858(3) 0.00664(4)
O39 O 0.3142(3) 0.8277(2) 0.00664(4)
C41 C 0.4388(3) 0.6159(4) 0.00372(5)
C42 C 0.3841(4) 0.8229(3) 0.00372(5)
C10 C 0.0060(4) 0.4804(4) 0.97085(6)
C11 C 0.1248(3) 0.5632(3) 0.98967(6)
C12 C 0.0554(3) 0.4820(3) 0.98380(6)
H6 H 0.0419 0.4275 0.9887
C14 C 0.0257(4) 0.5610(4) 0.96350(8)
C15 C 0.0956(5) 0.6432(4) 0.96942(9)
H8 H 0.1096 0.6978 0.9645
C16 C 0.1442(4) 0.6438(4) 0.98253(7)
H9 H 0.1902 0.6989 0.9865
Co9 Co 0.71004(4) 0.48908(5) 0.940968(7)
Co15 Co 0.76537(5) 0.54058(4) 0.976754(7)
O26 O 0.6067(3) 0.4927(4) 0.95318(4)
O31 O 0.6759(2) 0.5796(3) 0.97406(4)
C33 C 0.6066(4) 0.5337(5) 0.96555(6)
C35 C 0.5196(4) 0.5256(6) 0.97085(6)
C36 C 0.4744(6) 0.9940(4) 0.97085(6)
C37 C 0.4368(3) 0.5616(4) 0.98967(6)
C38 C 0.4384(4) 0.8752(3) 0.98967(6)
C39 C 0.5180(3) 0.5734(4) 0.98380(6)
C40 C 0.4266(4) 0.9446(3) 0.98380(6)
H20 H 0.5725 0.6144 0.9887
H21 H 0.3856 0.9581 0.9887
C43 C 0.4390(4) 0.4647(6) 0.96350(8)
C44 C 0.5353(6) 0.9743(4) 0.96350(8)
H22 H 0.4396 0.4322 0.9547
C45 C 0.3568(4) 0.4524(6) 0.96942(9)
C46 C 0.5476(6) 0.9044(5) 0.96942(9)
H24 H 0.3022 0.4118 0.9645
H25 H 0.5882 0.8904 0.9645
C47 C 0.3562(4) 0.5004(6) 0.98253(7)
C48 C 0.4996(6) 0.8558(4) 0.98253(7)
H26 H 0.3011 0.4913 0.9865
H27 H 0.5087 0.8098 0.9865
O4 O 0.8441(2) 0.0113(2) 0.08674(4)
O5 O 0.9796(2) 0.0990(3) 0.09613(4)
C3 C 0.9511(4) 0.1189(3) 0.06932(6)
C5 C 0.9255(3) 0.0761(3) 0.08506(5)
C6 C 0.9955(6) 0.1893(5) 0.03932(7)
C7 C 0.9222(7) 0.1037(5) 0.04170(8)
H4 H 0.8881 0.0689 0.0331
C8 C 0.8995(5) 0.0703(5) 0.05656(7)
H5 H 0.8480 0.0135 0.0582
O6 O 0.8860(2) 0.3933(3) 0.95318(4)
O7 O 0.9037(2) 0.3241(2) 0.97406(4)
C9 C 0.9271(3) 0.3934(4) 0.96555(6)
H7 H 0.9926 0.5604 0.9547
Co8 Co 0.77904(6) 0.28996(4) 0.940968(7)
Co14 Co 0.77521(6) 0.23463(5) 0.976754(7)
Co6 Co 0.04337(4) 0.88763(6) 0.107635(7)
O4_2 O 0.9887(2) 0.8328(3) 0.08674(4)
O5_2 O 0.9010(3) 0.8806(4) 0.09613(4)
C1_2 C 0.6681(3) 0.7964(4) 0.04841(6)
C2_2 C 0.7594(3) 0.8079(5) 0.05193(6)
C3_2 C 0.8811(3) 0.8322(5) 0.06932(6)
C4_2 C 0.7950(3) 0.8215(4) 0.06701(6)
H2_2 H 0.7615 0.8235 0.0756
C5_2 C 0.9239(3) 0.8494(4) 0.08506(5)
C6_2 C 0.8107(5) 0.8062(8) 0.03932(7)
H3_2 H 0.7870 0.7969 0.0291
C7_2 C 0.8963(5) 0.8185(9) 0.04170(8)
H4_2 H 0.9311 0.8192 0.0331
C8_2 C 0.9297(5) 0.8292(7) 0.05656(7)
H5_2 H 0.9865 0.8345 0.0582
Co17_2 Co 0.09870(5) 0.89146(6) 0.143421(7)
O12_2 O 0.2000(2) 0.8900(3) 0.13233(4)
O16_2 O 0.1502(2) 0.8599(3) 0.10752(4)
C17_2 C 0.2050(3) 0.8703(4) 0.11826(6)
C19_2 C 0.2848(4) 0.8588(5) 0.11474(6)
C21_2 C 0.3822(4) 0.8345(5) 0.09735(6)
C23_2 C 0.3068(3) 0.8452(4) 0.09966(6)
H12_2 H 0.2713 0.8432 0.0911
C25_2 C 0.4078(3) 0.8173(4) 0.08161(5)
C27_2 C 0.3378(6) 0.8605(8) 0.12735(7)
H14_2 H 0.3234 0.8698 0.1376
C29_2 C 0.4111(7) 0.8482(9) 0.12497(8)
H16_2 H 0.4452 0.8475 0.1336
C31_2 C 0.4338(5) 0.8375(7) 0.11011(7)
H18_2 H 0.4853 0.8322 0.1085
O4_3 O 0.1672(3) 0.1559(2) 0.08674(4)
O5_3 O 0.1194(4) 0.0204(2) 0.09613(4)
C3_3 C 0.1678(5) 0.0489(4) 0.06932(6)
C5_3 C 0.1506(4) 0.0745(3) 0.08506(5)
C6_3 C 0.1938(8) 0.0045(6) 0.03932(7)
C7_3 C 0.1815(9) 0.0778(7) 0.04170(8)
H4_3 H 0.1808 0.1119 0.0331
C8_3 C 0.1708(7) 0.1005(5) 0.05656(7)
H5_3 H 0.1655 0.1520 0.0582
C1_3 C 0.2036(4) 0.8717(3) 0.04841(6)
C2_3 C 0.1921(5) 0.9515(4) 0.05193(6)
C4_3 C 0.1785(4) 0.9735(3) 0.06701(6)
H2_3 H 0.1765 0.9380 0.0756
H3_3 H 0.2031 0.9901 0.0291
Co10_2 Co 0.22096(6) 0.51092(5) 0.559032(7)
Co16_2 Co 0.22479(6) 0.45942(4) 0.523246(7)
O27_2 O 0.1140(2) 0.5073(4) 0.54682(4)
O32_2 O 0.0963(2) 0.4204(3) 0.52594(4)
C34_2 C 0.0729(3) 0.4663(5) 0.53445(6)
H23_2 H 0.0074 0.5678 0.5453
Co1_2 Co 0.51092(5) 0.28996(4) 0.440968(7)
Co2_2 Co 0.45942(4) 0.23463(5) 0.476754(7)
Co3_2 Co 0.6667 0.3333 0.473760(12)
O1_2 O 0.5526(2) 0.2558(2) 0.46042(4)
H1_2 H 0.555(4) 0.219(4) 0.4586(7)
O2_2 O 0.3566(2) 0.1333(2) 0.46566(4)
O3_2 O 0.3763(2) 0.1831(2) 0.44085(4)
C1_4 C 0.3319(3) 0.1283(3) 0.45159(6)
C2_4 C 0.2406(3) 0.0485(4) 0.44807(6)
C4_4 C 0.2050(3) 0.0265(3) 0.43299(6)
H2_4 H 0.2385 0.0620 0.4244
H3_4 H 0.2130 0.0099 0.4709
O8_2 O 0.6332(2) 0.2224(2) 0.48846(4)
O9_2 O 0.4865(2) 0.1723(2) 0.49336(4)
C10_2 C 0.4804(4) 0.0060(4) 0.52915(6)
C11_2 C 0.5632(3) 0.1248(3) 0.51033(6)
C12_2 C 0.4820(3) 0.0554(3) 0.51620(6)
H6_2 H 0.4275 0.0419 0.5113
C13_2 C 0.5612(3) 0.1771(3) 0.49628(5)
C14_2 C 0.5610(4) 0.0257(4) 0.53650(8)
C15_2 C 0.6432(4) 0.0956(5) 0.53058(9)
H8_2 H 0.6978 0.1096 0.5355
C16_2 C 0.6438(4) 0.1442(4) 0.51747(7)
H9_2 H 0.6989 0.1902 0.5135
Co4_2 Co 0.77904(6) 0.48908(5) 0.440968(7)
Co5_2 Co 0.71004(4) 0.22096(6) 0.440968(7)
Co7_2 Co 0.15575(5) 0.11237(6) 0.392365(7)
Co9_2 Co 0.48908(5) 0.71004(4) 0.559032(7)
Co11_2 Co 0.95663(4) 0.84425(5) 0.392365(7)
Co12_2 Co 0.77521(6) 0.54058(4) 0.476754(7)
Co13_2 Co 0.76537(5) 0.22479(6) 0.476754(7)
Co15_2 Co 0.54058(4) 0.76537(5) 0.523246(7)
Co17_3 Co 0.90130(5) 0.79275(4) 0.356579(7)
Co18_2 Co 0.20725(4) 0.10854(6) 0.356579(7)
O10_2 O 0.7032(3) 0.4474(2) 0.46042(4)
O11_2 O 0.7442(2) 0.2968(3) 0.46042(4)
H10_2 H 0.664(6) 0.445(4) 0.4586(7)
H11_2 H 0.781(4) 0.336(6) 0.4586(7)
O12_3 O 0.8000(2) 0.6899(2) 0.36767(4)
O13_2 O 0.3101(2) 0.1100(3) 0.36767(4)
O14_2 O 0.7767(3) 0.6434(2) 0.46566(4)
O15_2 O 0.8667(2) 0.2233(3) 0.46566(4)
O16_3 O 0.8498(2) 0.7096(2) 0.39248(4)
O17_2 O 0.2904(2) 0.1401(3) 0.39248(4)
O18_2 O 0.8068(3) 0.6237(2) 0.44085(4)
O19_2 O 0.8169(2) 0.1932(3) 0.44085(4)
O20_2 O 0.5108(2) 0.3446(2) 0.42007(4)
O21_2 O 0.6554(2) 0.1661(3) 0.42007(4)
O22_2 O 0.8339(3) 0.4892(2) 0.42007(4)
O23_2 O 0.6463(2) 0.4323(3) 0.42946(4)
O24_2 O 0.5677(3) 0.2139(4) 0.42946(4)
O25_2 O 0.7861(4) 0.3537(2) 0.42946(4)
C17_3 C 0.7950(3) 0.6652(3) 0.38174(6)
C18_2 C 0.3348(3) 0.1297(4) 0.38174(6)
C19_3 C 0.7152(4) 0.5739(3) 0.38526(6)
C20_2 C 0.4261(3) 0.1412(5) 0.38526(6)
C21_3 C 0.6178(4) 0.4522(3) 0.40265(6)
C22_2 C 0.5478(3) 0.1655(5) 0.40265(6)
C23_3 C 0.6932(3) 0.5383(3) 0.40034(6)
C24_2 C 0.4617(3) 0.1548(4) 0.40034(6)
H12_3 H 0.7287 0.5718 0.4089
H13_2 H 0.4282 0.1568 0.4089
C25_3 C 0.5922(3) 0.4094(3) 0.41839(5)
C26_2 C 0.5906(3) 0.1827(4) 0.41839(5)
C27_3 C 0.6622(6) 0.5226(5) 0.37265(7)
C28_2 C 0.4774(5) 0.1395(8) 0.37265(7)
H14_3 H 0.6766 0.5463 0.3624
H15_2 H 0.4537 0.1302 0.3624
C29_3 C 0.5889(7) 0.4370(5) 0.37503(8)
C30_2 C 0.5630(5) 0.1518(9) 0.37503(8)
H16_3 H 0.5548 0.4022 0.3664
H17_2 H 0.5978 0.1525 0.3664
C31_3 C 0.5662(5) 0.4036(5) 0.38989(7)
C32_2 C 0.5964(5) 0.1625(7) 0.38989(7)
H18_3 H 0.5147 0.3468 0.3915
H19_2 H 0.6532 0.1678 0.3915
O26_2 O 0.4927(4) 0.6067(3) 0.54682(4)
O28_2 O 0.5073(4) 0.3933(3) 0.45318(4)
O29_2 O 0.8860(2) 0.4927(4) 0.45318(4)
O30_2 O 0.6067(3) 0.1140(2) 0.45318(4)
O31_2 O 0.5796(3) 0.6759(2) 0.52594(4)
O33_2 O 0.4204(3) 0.3241(2) 0.47406(4)
O34_2 O 0.9037(2) 0.5796(3) 0.47406(4)
O35_2 O 0.6759(2) 0.0963(2) 0.47406(4)
O36_2 O 0.5892(3) 0.3668(2) 0.48846(4)
O37_2 O 0.7776(2) 0.4108(3) 0.48846(4)
O38_2 O 0.6858(3) 0.5135(2) 0.49336(4)
O39_2 O 0.8277(2) 0.3142(3) 0.49336(4)
C33_2 C 0.5337(5) 0.6066(4) 0.53445(6)
C35_2 C 0.5256(6) 0.5196(4) 0.52915(6)
C36_2 C 0.9940(4) 0.4744(6) 0.52915(6)
C37_2 C 0.5616(4) 0.4368(3) 0.51033(6)
C38_2 C 0.8752(3) 0.4384(4) 0.51033(6)
C39_2 C 0.5734(4) 0.5180(3) 0.51620(6)
C40_2 C 0.9446(3) 0.4266(4) 0.51620(6)
H20_2 H 0.6144 0.5725 0.5113
H21_2 H 0.9581 0.3856 0.5113
C41_2 C 0.6159(4) 0.4388(3) 0.49628(5)
C42_2 C 0.8229(3) 0.3841(4) 0.49628(5)
C43_2 C 0.4647(6) 0.4390(4) 0.53650(8)
C44_2 C 0.9743(4) 0.5353(6) 0.53650(8)
H22_2 H 0.4322 0.4396 0.5453
C45_2 C 0.4524(6) 0.3568(4) 0.53058(9)
C46_2 C 0.9044(5) 0.5476(6) 0.53058(9)
H24_2 H 0.4118 0.3022 0.5355
H25_2 H 0.8904 0.5882 0.5355
C47_2 C 0.5004(6) 0.3562(4) 0.51747(7)
C48_2 C 0.8558(4) 0.4996(6) 0.51747(7)
H26_2 H 0.4913 0.3011 0.5135
H27_2 H 0.8098 0.5087 0.5135
O4_4 O 0.0113(2) 0.8441(2) 0.41326(4)
O5_4 O 0.0990(3) 0.9796(2) 0.40387(4)
C3_4 C 0.1189(3) 0.9511(4) 0.43068(6)
C5_4 C 0.0761(3) 0.9255(3) 0.41494(5)
C6_4 C 0.1893(5) 0.9955(6) 0.46068(7)
C7_4 C 0.1037(5) 0.9222(7) 0.45830(8)
H4_4 H 0.0689 0.8881 0.4669
C8_4 C 0.0703(5) 0.8995(5) 0.44344(7)
H5_4 H 0.0135 0.8480 0.4418
O6_2 O 0.3933(3) 0.8860(2) 0.54682(4)
O7_2 O 0.3241(2) 0.9037(2) 0.52594(4)
C9_2 C 0.3934(4) 0.9271(3) 0.53445(6)
H7_2 H 0.5604 0.9926 0.5453
Co8_2 Co 0.28996(4) 0.77904(6) 0.559032(7)
Co14_2 Co 0.23463(5) 0.77521(6) 0.523246(7)
Co3_3 Co -0.0000 0.0000 0.359573(12)
Co10_3 Co 0.17759(5) 0.55429(6) 0.274301(7)
Co16_3 Co 0.12609(4) 0.55812(6) 0.310087(7)
O10_3 O 0.1141(2) 0.0365(3) 0.37291(4)
H11_3 H 0.003(6) 0.114(4) 0.3747(7)
O22_3 O 0.1559(2) 0.1672(3) 0.41326(4)
O25_3 O 0.0204(2) 0.1194(4) 0.40387(4)
O27_3 O 0.1740(4) 0.4473(2) 0.28651(4)
O29_3 O 0.1594(4) 0.2193(2) 0.38015(4)
O32_3 O 0.0871(3) 0.4296(2) 0.30739(4)
O34_3 O 0.2463(3) 0.2370(2) 0.35927(4)
O37_3 O 0.0775(3) 0.1109(2) 0.34487(4)
O38_3 O 0.1802(2) 0.0191(3) 0.33997(4)
C34_3 C 0.1330(5) 0.4062(3) 0.29888(6)
C36_3 C 0.1411(6) 0.3273(4) 0.30418(6)
C38_3 C 0.1051(4) 0.2085(3) 0.32300(6)
C40_3 C 0.0933(4) 0.2779(3) 0.31713(6)
H21_3 H 0.0523 0.2914 0.3220
C42_3 C 0.0508(4) 0.1562(3) 0.33705(5)
C44_3 C 0.2020(6) 0.3076(4) 0.29683(8)
H23_3 H 0.2345 0.3407 0.2880
C46_3 C 0.2143(6) 0.2377(5) 0.30275(9)
H25_3 H 0.2549 0.2237 0.2978
C48_3 C 0.1663(6) 0.1891(4) 0.31586(7)
H27_3 H 0.1754 0.1431 0.3198
Co3_4 Co -0.0000 1.0000 0.359573(12)
Co9_3 Co 0.37671(4) 0.82241(5) 0.274301(7)
Co15_3 Co 0.43204(5) 0.87391(4) 0.310087(7)
H10_3 H 0.112(4) 0.997(6) 0.3747(7)
O26_3 O 0.2734(3) 0.8260(4) 0.28651(4)
O28_3 O 0.0600(3) 0.8406(4) 0.38015(4)
O31_3 O 0.3426(2) 0.9129(3) 0.30739(4)
O36_3 O 0.0335(2) 0.9225(3) 0.34487(4)
C33_3 C 0.2733(4) 0.8670(5) 0.29888(6)
C35_3 C 0.1863(4) 0.8589(6) 0.30418(6)
C37_3 C 0.1035(3) 0.8949(4) 0.32300(6)
C39_3 C 0.1847(3) 0.9067(4) 0.31713(6)
H20_3 H 0.2392 0.9477 0.3220
C41_3 C 0.1055(3) 0.9492(4) 0.33705(5)
C43_3 C 0.1057(4) 0.7980(6) 0.29683(8)
H22_3 H 0.1063 0.7655 0.2880
C45_3 C 0.0235(4) 0.7857(6) 0.30275(9)
C47_3 C 0.0229(4) 0.8337(6) 0.31586(7)
Co3_5 Co 1.0000 0.0000 0.359573(12)
H8_3 H 0.7763 0.0311 0.2978
H9_3 H 0.8569 0.0322 0.3198
Co5_3 Co 0.88763(6) 0.04337(4) 0.392365(7)
Co13_3 Co 0.89146(6) 0.09870(5) 0.356579(7)
O11_3 O 0.9635(3) 0.0775(2) 0.37291(4)
O15_3 O 0.8900(3) 0.2000(2) 0.36767(4)
O19_3 O 0.8599(3) 0.1502(2) 0.39248(4)
O35_3 O 0.7630(2) 0.0092(2) 0.35927(4)
O39_3 O 0.9809(3) 0.1610(2) 0.33997(4)
Co3_6 Co 1.0000 1.0000 0.359573(12)
O1_3 O 0.9225(2) 0.8859(2) 0.37291(4)
H1_3 H 0.886(4) 0.888(4) 0.3747(7)
O6_3 O 0.5527(2) 0.7266(3) 0.28651(4)
O7_3 O 0.5704(2) 0.6574(2) 0.30739(4)
O8_3 O 0.8891(2) 0.9665(2) 0.34487(4)
O9_3 O 0.8390(2) 0.8198(2) 0.33997(4)
C9_3 C 0.5938(3) 0.7267(4) 0.29888(6)
C10_3 C 0.6727(4) 0.8137(4) 0.30418(6)
C11_3 C 0.7915(3) 0.8965(3) 0.32300(6)
C12_3 C 0.7221(3) 0.8153(3) 0.31713(6)
H6_3 H 0.7086 0.7608 0.3220
C13_3 C 0.8438(3) 0.8945(3) 0.33705(5)
C14_3 C 0.6924(4) 0.8943(4) 0.29683(8)
H7_3 H 0.6593 0.8937 0.2880
C15_3 C 0.7623(5) 0.9765(4) 0.30275(9)
C16_3 C 0.8109(4) 0.9771(4) 0.31586(7)
Co8_3 Co 0.44571(6) 0.62329(4) 0.274301(7)
Co14_3 Co 0.44188(6) 0.56796(5) 0.310087(7)
O21_3 O 0.8328(3) 0.9887(2) 0.41326(4)
O24_3 O 0.8806(4) 0.9010(3) 0.40387(4)
C18_3 C 0.7964(4) 0.6681(3) 0.45159(6)
C20_3 C 0.8079(5) 0.7594(3) 0.44807(6)
C22_3 C 0.8322(5) 0.8811(3) 0.43068(6)
C24_3 C 0.8215(4) 0.7950(3) 0.43299(6)
H13_3 H 0.8235 0.7615 0.4244
C26_3 C 0.8494(4) 0.9239(3) 0.41494(5)
C28_3 C 0.8062(8) 0.8107(5) 0.46068(7)
H15_3 H 0.7969 0.7870 0.4709
C30_3 C 0.8185(9) 0.8963(5) 0.45830(8)
H17_3 H 0.8192 0.9311 0.4669
C32_3 C 0.8292(7) 0.9297(5) 0.44344(7)
H19_3 H 0.8345 0.9865 0.4418
O30_3 O 0.7807(2) 0.9400(3) 0.38015(4)
O33_3 O 0.9908(2) 0.7537(3) 0.35927(4)
H24_3 H 0.9689 0.7451 0.2978
H26_3 H 0.9678 0.8246 0.3198
C21_4 C 0.0489(4) 0.1678(5) 0.43068(6)
C25_4 C 0.0745(3) 0.1506(4) 0.41494(5)
C27_4 C 0.0045(6) 0.1938(8) 0.46068(7)
C29_4 C 0.0778(7) 0.1815(9) 0.45830(8)
H16_4 H 0.1119 0.1808 0.4669
C31_4 C 0.1005(5) 0.1708(7) 0.44344(7)
H18_4 H 0.1520 0.1655 0.4418
C17_4 C 0.8717(3) 0.2036(4) 0.45159(6)
C19_4 C 0.9515(4) 0.1921(5) 0.44807(6)
C23_4 C 0.9735(3) 0.1785(4) 0.43299(6)
H12_4 H 0.9380 0.1765 0.4244
H14_4 H 0.9901 0.2031 0.4709
C1_5 C 0.8703(4) 0.2050(3) 0.38174(6)
C2_5 C 0.8588(5) 0.2848(4) 0.38526(6)
C3_5 C 0.8345(5) 0.3822(4) 0.40265(6)
C4_5 C 0.8452(4) 0.3068(3) 0.40034(6)
H2_5 H 0.8432 0.2713 0.4089
C5_5 C 0.8173(4) 0.4078(3) 0.41839(5)
C6_5 C 0.8605(8) 0.3378(6) 0.37265(7)
H3_5 H 0.8698 0.3234 0.3624
C7_5 C 0.8482(9) 0.4111(7) 0.37503(8)
H4_5 H 0.8475 0.4452 0.3664
C8_5 C 0.8375(7) 0.4338(5) 0.38989(7)
H5_5 H 0.8322 0.4853 0.3915
Co9_4 Co 0.15575(5) 0.04337(4) 0.892365(7)
Co11_3 Co 0.62329(4) 0.17759(5) 0.725699(7)
Co15_4 Co 0.20725(4) 0.09870(5) 0.856579(7)
Co17_4 Co 0.56796(5) 0.12609(4) 0.689913(7)
O12_4 O 0.4666(2) 0.0233(2) 0.70101(4)
O16_4 O 0.5164(2) 0.0430(2) 0.72582(4)
O31_4 O 0.2463(3) 0.0092(2) 0.85927(4)
Co1_3 Co 0.17759(5) 0.62329(4) 0.774301(7)
Co2_3 Co 0.12609(4) 0.56796(5) 0.810087(7)
Co3_7 Co 0.3334 0.6666 0.807093(12)
O1_4 O 0.2193(2) 0.5891(2) 0.79375(4)
H1_4 H 0.222(4) 0.552(4) 0.7919(7)
O2_3 O 0.0233(2) 0.4666(2) 0.79899(4)
O3_3 O 0.0430(2) 0.5164(2) 0.77418(4)
O6_4 O 0.0600(3) 0.2193(2) 0.88015(4)
O8_4 O 0.2999(2) 0.5557(2) 0.82179(4)
O9_4 O 0.1532(2) 0.5056(2) 0.82669(4)
C9_4 C 0.0601(4) 0.2604(3) 0.86778(6)
C10_4 C 0.1471(4) 0.3393(4) 0.86248(6)
C11_4 C 0.2299(3) 0.4581(3) 0.84366(6)
C12_4 C 0.1487(3) 0.3887(3) 0.84953(6)
H6_4 H 0.0942 0.3752 0.8446
C13_4 C 0.2279(3) 0.5104(3) 0.82961(5)
C14_4 C 0.2277(4) 0.3590(4) 0.86983(8)
H7_4 H 0.2271 0.3259 0.8786
C15_4 C 0.3099(4) 0.4289(5) 0.86391(9)
H8_4 H 0.3645 0.4429 0.8688
C16_4 C 0.3105(4) 0.4775(4) 0.85080(7)
H9_4 H 0.3656 0.5235 0.8468
Co4_3 Co 0.44571(6) 0.82241(5) 0.774301(7)
Co5_4 Co 0.37671(4) 0.55429(6) 0.774301(7)
Co10_4 Co 0.88763(6) 0.84425(5) 0.892365(7)
Co12_3 Co 0.44188(6) 0.87391(4) 0.810087(7)
Co13_4 Co 0.43204(5) 0.55812(6) 0.810087(7)
Co16_4 Co 0.89146(6) 0.79275(4) 0.856579(7)
O10_4 O 0.3699(3) 0.7807(2) 0.79375(4)
O11_4 O 0.4109(2) 0.6301(3) 0.79375(4)
H10_4 H 0.331(6) 0.778(4) 0.7919(7)
H11_4 H 0.448(4) 0.669(6) 0.7919(7)
O14_3 O 0.4434(3) 0.9767(2) 0.79899(4)
O15_4 O 0.5334(2) 0.5566(3) 0.79899(4)
O18_3 O 0.4735(3) 0.9570(2) 0.77418(4)
O19_4 O 0.4836(2) 0.5265(3) 0.77418(4)
O20_3 O 0.1774(2) 0.6780(2) 0.75341(4)
O21_4 O 0.3220(2) 0.4995(3) 0.75341(4)
O22_4 O 0.5005(3) 0.8226(2) 0.75341(4)
O23_3 O 0.3129(2) 0.7657(3) 0.76280(4)
O24_4 O 0.2343(3) 0.5473(4) 0.76280(4)
O25_4 O 0.4527(4) 0.6871(2) 0.76280(4)
C17_5 C 0.4616(3) 0.9986(3) 0.71508(6)
C18_4 C 0.0014(3) 0.4631(4) 0.71508(6)
C19_5 C 0.3818(4) 0.9073(3) 0.71860(6)
C20_4 C 0.0927(3) 0.4746(5) 0.71860(6)
C21_5 C 0.2844(4) 0.7856(3) 0.73599(6)
C22_4 C 0.2144(3) 0.4989(5) 0.73599(6)
C23_5 C 0.3598(3) 0.8717(3) 0.73368(6)
C24_4 C 0.1283(3) 0.4882(4) 0.73368(6)
H12_5 H 0.3953 0.9052 0.7423
H13_4 H 0.0948 0.4902 0.7423
C25_5 C 0.2588(3) 0.7428(3) 0.75173(5)
C26_4 C 0.2572(3) 0.5161(4) 0.75173(5)
C27_5 C 0.3288(6) 0.8560(5) 0.70599(7)
C28_4 C 0.1440(5) 0.4729(8) 0.70599(7)
H14_5 H 0.3432 0.8797 0.6958
H15_4 H 0.1203 0.4636 0.6958
C29_5 C 0.2555(7) 0.7704(5) 0.70837(8)
C30_4 C 0.2296(5) 0.4852(9) 0.70837(8)
H16_5 H 0.2214 0.7356 0.6998
H17_4 H 0.2644 0.4859 0.6998
C31_5 C 0.2328(5) 0.7370(5) 0.72323(7)
C32_4 C 0.2630(5) 0.4959(7) 0.72323(7)
H18_5 H 0.1813 0.6802 0.7249
H19_4 H 0.3198 0.5012 0.7249
O26_4 O 0.1594(4) 0.9400(3) 0.88015(4)
O27_4 O 0.7807(2) 0.8406(4) 0.88015(4)
O28_4 O 0.1740(4) 0.7266(3) 0.78651(4)
O29_4 O 0.5527(2) 0.8260(4) 0.78651(4)
O30_4 O 0.2734(3) 0.4473(2) 0.78651(4)
O32_4 O 0.7630(2) 0.7537(3) 0.85927(4)
O33_4 O 0.0871(3) 0.6574(2) 0.80739(4)
O34_4 O 0.5704(2) 0.9129(3) 0.80739(4)
O35_4 O 0.3426(2) 0.4296(2) 0.80739(4)
O36_4 O 0.2559(3) 0.7001(2) 0.82179(4)
O37_4 O 0.4443(2) 0.7441(3) 0.82179(4)
O38_4 O 0.3525(3) 0.8468(2) 0.82669(4)
O39_4 O 0.4944(2) 0.6475(3) 0.82669(4)
C33_4 C 0.2004(5) 0.9399(4) 0.86778(6)
C34_4 C 0.7396(3) 0.7996(5) 0.86778(6)
C35_4 C 0.1923(6) 0.8529(4) 0.86248(6)
C36_4 C 0.6607(4) 0.8077(6) 0.86248(6)
C37_4 C 0.2283(4) 0.7701(3) 0.84366(6)
C38_4 C 0.5419(3) 0.7717(4) 0.84366(6)
C39_4 C 0.2401(4) 0.8513(3) 0.84953(6)
C40_4 C 0.6113(3) 0.7599(4) 0.84953(6)
H20_4 H 0.2811 0.9058 0.8446
H21_4 H 0.6248 0.7189 0.8446
C41_4 C 0.2826(4) 0.7721(3) 0.82961(5)
C42_4 C 0.4896(3) 0.7174(4) 0.82961(5)
C43_4 C 0.1314(6) 0.7723(4) 0.86983(8)
C44_4 C 0.6410(4) 0.8686(6) 0.86983(8)
H22_4 H 0.0989 0.7729 0.8786
H23_4 H 0.6741 0.9011 0.8786
C45_4 C 0.1191(6) 0.6901(4) 0.86391(9)
C46_4 C 0.5711(5) 0.8809(6) 0.86391(9)
H24_4 H 0.0785 0.6355 0.8688
H25_4 H 0.5571 0.9215 0.8688
C47_4 C 0.1671(6) 0.6895(4) 0.85080(7)
C48_4 C 0.5225(4) 0.8329(6) 0.85080(7)
H26_4 H 0.1580 0.6344 0.8468
H27_4 H 0.4765 0.8420 0.8468
O4_5 O 0.6780(2) 0.1774(2) 0.74659(4)
O5_5 O 0.7657(3) 0.3129(2) 0.73720(4)
C1_6 C 0.9986(3) 0.4616(3) 0.78492(6)
C2_6 C 0.9073(3) 0.3818(4) 0.78140(6)
C3_6 C 0.7856(3) 0.2844(4) 0.76401(6)
C4_6 C 0.8717(3) 0.3598(3) 0.76632(6)
H2_6 H 0.9052 0.3953 0.7577
C5_6 C 0.7428(3) 0.2588(3) 0.74827(5)
C6_6 C 0.8560(5) 0.3288(6) 0.79401(7)
H3_6 H 0.8797 0.3432 0.8042
C7_6 C 0.7704(5) 0.2555(7) 0.79163(8)
H4_6 H 0.7356 0.2214 0.8002
C8_6 C 0.7370(5) 0.2328(5) 0.77677(7)
H5_6 H 0.6802 0.1813 0.7751
O7_4 O 0.9908(2) 0.2370(2) 0.85927(4)
Co7_3 Co 0.82241(5) 0.44571(6) 0.725699(7)
Co8_4 Co 0.95663(4) 0.11237(6) 0.892365(7)
Co14_4 Co 0.90130(5) 0.10854(6) 0.856579(7)
Co18_3 Co 0.87391(4) 0.44188(6) 0.689913(7)
O13_3 O 0.9767(2) 0.4434(3) 0.70101(4)
O17_3 O 0.9570(2) 0.4735(3) 0.72582(4)
Co9_5 Co 0.04337(4) 0.15575(5) 0.607635(7)
Co15_5 Co 0.09870(5) 0.20725(4) 0.643421(7)
O31_5 O 0.0092(2) 0.2463(3) 0.64073(4)
Co3_8 Co 0.6666 0.3334 0.692907(12)
O1_5 O 0.5891(2) 0.2193(2) 0.70625(4)
H1_5 H 0.552(4) 0.222(4) 0.7081(7)
O6_5 O 0.2193(2) 0.0600(3) 0.61985(4)
O8_5 O 0.5557(2) 0.2999(2) 0.67821(4)
O9_5 O 0.5056(2) 0.1532(2) 0.67331(4)
C9_5 C 0.2604(3) 0.0601(4) 0.63222(6)
C10_5 C 0.3393(4) 0.1471(4) 0.63752(6)
C11_5 C 0.4581(3) 0.2299(3) 0.65634(6)
C12_5 C 0.3887(3) 0.1487(3) 0.65047(6)
H6_5 H 0.3752 0.0942 0.6554
C13_5 C 0.5104(3) 0.2279(3) 0.67039(5)
C14_5 C 0.3590(4) 0.2277(4) 0.63017(8)
H7_5 H 0.3259 0.2271 0.6214
C15_5 C 0.4289(5) 0.3099(4) 0.63609(9)
H8_5 H 0.4429 0.3645 0.6312
C16_5 C 0.4775(4) 0.3105(4) 0.64920(7)
H9_5 H 0.5235 0.3656 0.6532
Co5_5 Co 0.55429(6) 0.37671(4) 0.725699(7)
Co10_5 Co 0.84425(5) 0.88763(6) 0.607635(7)
Co13_5 Co 0.55812(6) 0.43204(5) 0.689913(7)
Co16_5 Co 0.79275(4) 0.89146(6) 0.643421(7)
O10_5 O 0.7807(2) 0.3699(3) 0.70625(4)
O11_5 O 0.6301(3) 0.4109(2) 0.70625(4)
H10_5 H 0.778(4) 0.331(6) 0.7081(7)
H11_5 H 0.669(6) 0.448(4) 0.7081(7)
O15_5 O 0.5566(3) 0.5334(2) 0.70101(4)
O19_5 O 0.5265(3) 0.4836(2) 0.72582(4)
O21_5 O 0.4995(3) 0.3220(2) 0.74659(4)
O22_5 O 0.8226(2) 0.5005(3) 0.74659(4)
O24_5 O 0.5473(4) 0.2343(3) 0.73720(4)
O25_5 O 0.6871(2) 0.4527(4) 0.73720(4)
C18_5 C 0.4631(4) 0.0014(3) 0.78492(6)
C20_5 C 0.4746(5) 0.0927(3) 0.78140(6)
C22_5 C 0.4989(5) 0.2144(3) 0.76401(6)
C24_5 C 0.4882(4) 0.1283(3) 0.76632(6)
H13_5 H 0.4902 0.0948 0.7577
C26_5 C 0.5161(4) 0.2572(3) 0.74827(5)
C28_5 C 0.4729(8) 0.1440(5) 0.79401(7)
H15_5 H 0.4636 0.1203 0.8042
C30_5 C 0.4852(9) 0.2296(5) 0.79163(8)
H17_5 H 0.4859 0.2644 0.8002
C32_5 C 0.4959(7) 0.2630(5) 0.77677(7)
H19_5 H 0.5012 0.3198 0.7751
O26_5 O 0.9400(3) 0.1594(4) 0.61985(4)
O27_5 O 0.8406(4) 0.7807(2) 0.61985(4)
O28_5 O 0.7266(3) 0.1740(4) 0.71349(4)
O29_5 O 0.8260(4) 0.5527(2) 0.71349(4)
O30_5 O 0.4473(2) 0.2734(3) 0.71349(4)
O32_5 O 0.7537(3) 0.7630(2) 0.64073(4)
O33_5 O 0.6574(2) 0.0871(3) 0.69261(4)
O34_5 O 0.9129(3) 0.5704(2) 0.69261(4)
O35_5 O 0.4296(2) 0.3426(2) 0.69261(4)
O36_5 O 0.7001(2) 0.2559(3) 0.67821(4)
O37_5 O 0.7441(3) 0.4443(2) 0.67821(4)
O38_5 O 0.8468(2) 0.3525(3) 0.67331(4)
O39_5 O 0.6475(3) 0.4944(2) 0.67331(4)
C33_5 C 0.9399(4) 0.2004(5) 0.63222(6)
C34_5 C 0.7996(5) 0.7396(3) 0.63222(6)
C35_5 C 0.8529(4) 0.1923(6) 0.63752(6)
C36_5 C 0.8077(6) 0.6607(4) 0.63752(6)
C37_5 C 0.7701(3) 0.2283(4) 0.65634(6)
C38_5 C 0.7717(4) 0.5419(3) 0.65634(6)
C39_5 C 0.8513(3) 0.2401(4) 0.65047(6)
C40_5 C 0.7599(4) 0.6113(3) 0.65047(6)
H20_5 H 0.9058 0.2811 0.6554
H21_5 H 0.7189 0.6248 0.6554
C41_5 C 0.7721(3) 0.2826(4) 0.67039(5)
C42_5 C 0.7174(4) 0.4896(3) 0.67039(5)
C43_5 C 0.7723(4) 0.1314(6) 0.63017(8)
C44_5 C 0.8686(6) 0.6410(4) 0.63017(8)
H22_5 H 0.7729 0.0989 0.6214
H23_5 H 0.9011 0.6741 0.6214
C45_5 C 0.6901(4) 0.1191(6) 0.63609(9)
C46_5 C 0.8809(6) 0.5711(5) 0.63609(9)
H24_5 H 0.6355 0.0785 0.6312
H25_5 H 0.9215 0.5571 0.6312
C47_5 C 0.6895(4) 0.1671(6) 0.64920(7)
C48_5 C 0.8329(6) 0.5225(4) 0.64920(7)
H26_5 H 0.6344 0.1580 0.6532
H27_5 H 0.8420 0.4765 0.6532
O7_5 O 0.2370(2) 0.9908(2) 0.64073(4)
Co8_5 Co 0.11237(6) 0.95663(4) 0.607635(7)
Co14_5 Co 0.10854(6) 0.90130(5) 0.643421(7)
Co3_9 Co 0.0000 -0.0000 0.140427(12)
Co10_6 Co 0.55429(6) 0.17759(5) 0.225699(7)
Co16_6 Co 0.55812(6) 0.12609(4) 0.189913(7)
O10_6 O 0.0365(3) 0.1141(2) 0.12709(4)
H11_6 H 0.114(4) 0.003(6) 0.1253(7)
O27_6 O 0.4473(2) 0.1740(4) 0.21349(4)
O29_6 O 0.2193(2) 0.1594(4) 0.11985(4)
O32_6 O 0.4296(2) 0.0871(3) 0.19261(4)
O34_6 O 0.2370(2) 0.2463(3) 0.14073(4)
O37_6 O 0.1109(2) 0.0775(3) 0.15513(4)
O38_6 O 0.0191(3) 0.1802(2) 0.16003(4)
C34_6 C 0.4062(3) 0.1330(5) 0.20112(6)
C36_6 C 0.3273(4) 0.1411(6) 0.19582(6)
C38_6 C 0.2085(3) 0.1051(4) 0.17700(6)
C40_6 C 0.2779(3) 0.0933(4) 0.18287(6)
H21_6 H 0.2914 0.0523 0.1780
C42_6 C 0.1562(3) 0.0508(4) 0.16295(5)
C44_6 C 0.3076(4) 0.2020(6) 0.20317(8)
H23_6 H 0.3407 0.2345 0.2120
C46_6 C 0.2377(5) 0.2143(6) 0.19725(9)
H25_6 H 0.2237 0.2549 0.2022
C48_6 C 0.1891(4) 0.1663(6) 0.18414(7)
H27_6 H 0.1431 0.1754 0.1802
Co3_10 Co 0.0000 1.0000 0.140427(12)
H8_6 H 0.0311 0.7763 0.2022
H9_6 H 0.0322 0.8569 0.1802
O11_6 O 0.0775(2) 0.9635(3) 0.12709(4)
O35_6 O 0.0092(2) 0.7630(2) 0.14073(4)
O39_6 O 0.1610(2) 0.9809(3) 0.16003(4)
Co3_11 Co 1.0000 -0.0000 0.140427(12)
Co9_6 Co 0.82241(5) 0.37671(4) 0.225699(7)
Co15_6 Co 0.87391(4) 0.43204(5) 0.189913(7)
H10_6 H 0.997(6) 0.112(4) 0.1253(7)
O26_6 O 0.8260(4) 0.2734(3) 0.21349(4)
O28_6 O 0.8406(4) 0.0600(3) 0.11985(4)
O31_6 O 0.9129(3) 0.3426(2) 0.19261(4)
O36_6 O 0.9225(3) 0.0335(2) 0.15513(4)
C33_6 C 0.8670(5) 0.2733(4) 0.20112(6)
C35_6 C 0.8589(6) 0.1863(4) 0.19582(6)
C37_6 C 0.8949(4) 0.1035(3) 0.17700(6)
C39_6 C 0.9067(4) 0.1847(3) 0.18287(6)
H20_6 H 0.9477 0.2392 0.1780
C41_6 C 0.9492(4) 0.1055(3) 0.16295(5)
C43_6 C 0.7980(6) 0.1057(4) 0.20317(8)
H22_6 H 0.7655 0.1063 0.2120
C45_6 C 0.7857(6) 0.0235(4) 0.19725(9)
C47_6 C 0.8337(6) 0.0229(4) 0.18414(7)
Co3_12 Co 1.0000 1.0000 0.140427(12)
O1_6 O 0.8859(2) 0.9225(2) 0.12709(4)
H1_6 H 0.888(4) 0.886(4) 0.1253(7)
O6_6 O 0.7266(3) 0.5527(2) 0.21349(4)
O7_6 O 0.6574(2) 0.5704(2) 0.19261(4)
O8_6 O 0.9665(2) 0.8891(2) 0.15513(4)
O9_6 O 0.8198(2) 0.8390(2) 0.16003(4)
C9_6 C 0.7267(4) 0.5938(3) 0.20112(6)
C10_6 C 0.8137(4) 0.6727(4) 0.19582(6)
C11_6 C 0.8965(3) 0.7915(3) 0.17700(6)
C12_6 C 0.8153(3) 0.7221(3) 0.18287(6)
H6_6 H 0.7608 0.7086 0.1780
C13_6 C 0.8945(3) 0.8438(3) 0.16295(5)
C14_6 C 0.8943(4) 0.6924(4) 0.20317(8)
H7_6 H 0.8937 0.6593 0.2120
C15_6 C 0.9765(4) 0.7623(5) 0.19725(9)
C16_6 C 0.9771(4) 0.8109(4) 0.18414(7)
Co8_6 Co 0.62329(4) 0.44571(6) 0.225699(7)
Co14_6 Co 0.56796(5) 0.44188(6) 0.189913(7)
O30_6 O 0.9400(3) 0.7807(2) 0.11985(4)
O33_6 O 0.7537(3) 0.9908(2) 0.14073(4)
H24_6 H 0.7451 0.9689 0.2022
H26_6 H 0.8246 0.9678 0.1802
C17_6 C 0.5384(3) 0.5369(4) 0.78492(6)
C19_6 C 0.6182(4) 0.5254(5) 0.78140(6)
C21_6 C 0.7156(4) 0.5011(5) 0.76401(6)
C23_6 C 0.6402(3) 0.5118(4) 0.76632(6)
H12_6 H 0.6047 0.5098 0.7577
C25_6 C 0.7412(3) 0.4839(4) 0.74827(5)
C27_6 C 0.6712(6) 0.5271(8) 0.79401(7)
H14_6 H 0.6568 0.5364 0.8042
C29_6 C 0.7445(7) 0.5148(9) 0.79163(8)
H16_6 H 0.7786 0.5141 0.8002
C31_6 C 0.7672(5) 0.5041(7) 0.77677(7)
H18_6 H 0.8187 0.4988 0.7751
C1_7 C 0.5369(4) 0.5384(3) 0.71508(6)
C2_7 C 0.5254(5) 0.6182(4) 0.71860(6)
C3_7 C 0.5011(5) 0.7156(4) 0.73599(6)
C4_7 C 0.5118(4) 0.6402(3) 0.73368(6)
H2_7 H 0.5098 0.6047 0.7423
C5_7 C 0.4839(4) 0.7412(3) 0.75173(5)
C6_7 C 0.5271(8) 0.6712(6) 0.70599(7)
H3_7 H 0.5364 0.6568 0.6958
C7_7 C 0.5148(9) 0.7445(7) 0.70837(8)
H4_7 H 0.5141 0.7786 0.6998
C8_7 C 0.5041(7) 0.7672(5) 0.72323(7)
H5_7 H 0.4988 0.8187 0.7249
C9_7 C 0.0729(3) 0.6066(4) 0.03445(6)
H7_7 H 0.0074 0.4396 0.0453
O4_6 O 0.1559(2) 0.9887(2) 0.91326(4)
O5_6 O 0.0204(2) 0.9010(3) 0.90387(4)
C3_8 C 0.0489(4) 0.8811(3) 0.93068(6)
C5_8 C 0.0745(3) 0.9239(3) 0.91494(5)
C6_8 C 0.0045(6) 0.8107(5) 0.96068(7)
C7_8 C 0.0778(7) 0.8963(5) 0.95830(8)
H4_8 H 0.1119 0.9311 0.9669
C8_8 C 0.1005(5) 0.9297(5) 0.94344(7)
H5_8 H 0.1520 0.9865 0.9418
C10_7 C 0.9940(4) 0.5196(4) 0.02915(6)
C11_7 C 0.8752(3) 0.4368(3) 0.01033(6)
C12_7 C 0.9446(3) 0.5180(3) 0.01620(6)
H6_7 H 0.9581 0.5725 0.0113
C14_7 C 0.9743(4) 0.4390(4) 0.03650(8)
C15_7 C 0.9044(5) 0.3568(4) 0.03058(9)
H8_7 H 0.8904 0.3022 0.0355
C16_7 C 0.8558(4) 0.3562(4) 0.01747(7)
H9_7 H 0.8098 0.3011 0.0135
C33_7 C 0.3934(4) 0.4663(5) 0.03445(6)
C35_7 C 0.4804(4) 0.4744(6) 0.02915(6)
C36_7 C 0.5256(6) 0.0060(4) 0.02915(6)
C37_7 C 0.5632(3) 0.4384(4) 0.01033(6)
C38_7 C 0.5616(4) 0.1248(3) 0.01033(6)
C39_7 C 0.4820(3) 0.4266(4) 0.01620(6)
C40_7 C 0.5734(4) 0.0554(3) 0.01620(6)
H20_7 H 0.4275 0.3856 0.0113
H21_7 H 0.6144 0.0419 0.0113
C43_7 C 0.5610(4) 0.5353(6) 0.03650(8)
C44_7 C 0.4647(6) 0.0257(4) 0.03650(8)
H22_7 H 0.5604 0.5678 0.0453
C45_7 C 0.6432(4) 0.5476(6) 0.03058(9)
C46_7 C 0.4524(6) 0.0956(5) 0.03058(9)
H24_7 H 0.6978 0.5882 0.0355
H25_7 H 0.4118 0.1096 0.0355
C47_7 C 0.6438(4) 0.4996(6) 0.01747(7)
C48_7 C 0.5004(6) 0.1442(4) 0.01747(7)
H26_7 H 0.6989 0.5087 0.0135
H27_7 H 0.4913 0.1902 0.0135
Co3_13 Co 0.6667 0.3333 0.973760(12)
O1_7 O 0.7442(2) 0.4474(2) 0.96042(4)
H1_7 H 0.781(4) 0.445(4) 0.9586(7)
O2_4 O 0.8667(2) 0.6434(2) 0.96566(4)
O3_4 O 0.8169(2) 0.6237(2) 0.94085(4)
C1_8 C 0.8717(3) 0.6681(3) 0.95159(6)
C2_8 C 0.9515(4) 0.7594(3) 0.94807(6)
C4_8 C 0.9735(3) 0.7950(3) 0.93299(6)
H2_8 H 0.9380 0.7615 0.9244
H3_8 H 0.9901 0.7870 0.9709
O8_7 O 0.7776(2) 0.3668(2) 0.98846(4)
O9_7 O 0.8277(2) 0.5135(2) 0.99336(4)
C13_7 C 0.8229(3) 0.4388(3) 0.99628(5)
O10_7 O 0.5526(2) 0.2968(3) 0.96042(4)
O11_7 O 0.7032(3) 0.2558(2) 0.96042(4)
H10_7 H 0.555(4) 0.336(6) 0.9586(7)
H11_7 H 0.664(6) 0.219(4) 0.9586(7)
O12_5 O 0.3101(2) 0.2000(2) 0.86767(4)
O13_4 O 0.8900(3) 0.6899(2) 0.86767(4)
O14_4 O 0.3566(2) 0.2233(3) 0.96566(4)
O15_6 O 0.7767(3) 0.1333(2) 0.96566(4)
O16_5 O 0.2904(2) 0.1502(2) 0.89248(4)
O17_4 O 0.8599(3) 0.7096(2) 0.89248(4)
O18_4 O 0.3763(2) 0.1932(3) 0.94085(4)
O19_6 O 0.8068(3) 0.1831(2) 0.94085(4)
O20_4 O 0.6554(2) 0.4892(2) 0.92007(4)
O21_6 O 0.8339(3) 0.3446(2) 0.92007(4)
O22_6 O 0.5108(2) 0.1661(3) 0.92007(4)
O23_4 O 0.5677(3) 0.3537(2) 0.92946(4)
O24_6 O 0.7861(4) 0.4323(3) 0.92946(4)
O25_6 O 0.6463(2) 0.2139(4) 0.92946(4)
C17_7 C 0.3348(3) 0.2050(3) 0.88174(6)
C18_6 C 0.8703(4) 0.6652(3) 0.88174(6)
C19_7 C 0.4261(3) 0.2848(4) 0.88526(6)
C20_6 C 0.8588(5) 0.5739(3) 0.88526(6)
C21_7 C 0.5478(3) 0.3822(4) 0.90265(6)
C22_6 C 0.8345(5) 0.4522(3) 0.90265(6)
C23_7 C 0.4617(3) 0.3068(3) 0.90034(6)
C24_6 C 0.8452(4) 0.5383(3) 0.90034(6)
H12_7 H 0.4282 0.2713 0.9089
H13_6 H 0.8432 0.5718 0.9089
C25_7 C 0.5906(3) 0.4078(3) 0.91839(5)
C26_6 C 0.8173(4) 0.4094(3) 0.91839(5)
C27_7 C 0.4774(5) 0.3378(6) 0.87265(7)
C28_6 C 0.8605(8) 0.5226(5) 0.87265(7)
H14_7 H 0.4537 0.3234 0.8624
H15_6 H 0.8698 0.5463 0.8624
C29_7 C 0.5630(5) 0.4111(7) 0.87503(8)
C30_6 C 0.8482(9) 0.4370(5) 0.87503(8)
H16_7 H 0.5978 0.4452 0.8664
H17_6 H 0.8475 0.4022 0.8664
C31_7 C 0.5964(5) 0.4338(5) 0.88989(7)
C32_6 C 0.8375(7) 0.4036(5) 0.88989(7)
H18_7 H 0.6532 0.4853 0.8915
H19_6 H 0.8322 0.3468 0.8915
O36_7 O 0.6332(2) 0.4108(3) 0.98846(4)
O37_7 O 0.5892(3) 0.2224(2) 0.98846(4)
O38_7 O 0.4865(2) 0.3142(3) 0.99336(4)
O39_7 O 0.6858(3) 0.1723(2) 0.99336(4)
C41_7 C 0.5612(3) 0.3841(4) 0.99628(5)
C42_7 C 0.6159(4) 0.1771(3) 0.99628(5)
C34_7 C 0.5337(5) 0.9271(3) 0.03445(6)
H23_7 H 0.4322 0.9926 0.0453
O4_7 O 0.0113(2) 0.1672(3) 0.91326(4)
O5_7 O 0.0990(3) 0.1194(4) 0.90387(4)
C1_9 C 0.3319(3) 0.2036(4) 0.95159(6)
C2_9 C 0.2406(3) 0.1921(5) 0.94807(6)
C3_9 C 0.1189(3) 0.1678(5) 0.93068(6)
C4_9 C 0.2050(3) 0.1785(4) 0.93299(6)
H2_9 H 0.2385 0.1765 0.9244
C5_9 C 0.0761(3) 0.1506(4) 0.91494(5)
C6_9 C 0.1893(5) 0.1938(8) 0.96068(7)
H3_9 H 0.2130 0.2031 0.9709
C7_9 C 0.1037(5) 0.1815(9) 0.95830(8)
H4_9 H 0.0689 0.1808 0.9669
C8_9 C 0.0703(5) 0.1708(7) 0.94344(7)
H5_9 H 0.0135 0.1655 0.9418
O12_6 O 0.8000(2) 0.1100(3) 0.86767(4)
O16_6 O 0.8498(2) 0.1401(3) 0.89248(4)
C17_8 C 0.7950(3) 0.1297(4) 0.88174(6)
C19_8 C 0.7152(4) 0.1412(5) 0.88526(6)
C21_8 C 0.6178(4) 0.1655(5) 0.90265(6)
C23_8 C 0.6932(3) 0.1548(4) 0.90034(6)
H12_8 H 0.7287 0.1568 0.9089
C25_8 C 0.5922(3) 0.1827(4) 0.91839(5)
C27_8 C 0.6622(6) 0.1395(8) 0.87265(7)
H14_8 H 0.6766 0.1302 0.8624
C29_8 C 0.5889(7) 0.1518(9) 0.87503(8)
H16_8 H 0.5548 0.1525 0.8664
C31_8 C 0.5662(5) 0.1625(7) 0.88989(7)
H18_8 H 0.5147 0.1678 0.8915
C1_10 C 0.7964(4) 0.1283(3) 0.95159(6)
C2_10 C 0.8079(5) 0.0485(4) 0.94807(6)
C4_10 C 0.8215(4) 0.0265(3) 0.93299(6)
H2_10 H 0.8235 0.0620 0.9244
H3_10 H 0.7969 0.0099 0.9709
O4_8 O 0.8328(3) 0.8441(2) 0.91326(4)
O5_8 O 0.8806(4) 0.9796(2) 0.90387(4)
C3_10 C 0.8322(5) 0.9511(4) 0.93068(6)
C5_10 C 0.8494(4) 0.9255(3) 0.91494(5)
C6_10 C 0.8062(8) 0.9955(6) 0.96068(7)
C7_10 C 0.8185(9) 0.9222(7) 0.95830(8)
H4_10 H 0.8192 0.8881 0.9669
C8_10 C 0.8292(7) 0.8995(5) 0.94344(7)
H5_10 H 0.8345 0.8480 0.9418
O4_9 O 0.9887(2) 0.1559(2) 0.58674(4)
O5_9 O 0.9010(3) 0.0204(2) 0.59613(4)
C3_11 C 0.8811(3) 0.0489(4) 0.56932(6)
C5_11 C 0.9239(3) 0.0745(3) 0.58506(5)
C6_11 C 0.8107(5) 0.0045(6) 0.53932(7)
C7_11 C 0.8963(5) 0.0778(7) 0.54170(8)
H4_11 H 0.9311 0.1119 0.5331
C8_11 C 0.9297(5) 0.1005(5) 0.55656(7)
H5_11 H 0.9865 0.1520 0.5582
C9_8 C 0.6066(4) 0.0729(3) 0.46555(6)
H7_8 H 0.4396 0.0074 0.4547
Co3_14 Co 0.3333 0.6667 0.526240(12)
O1_8 O 0.4474(2) 0.7442(2) 0.53958(4)
H1_8 H 0.445(4) 0.781(4) 0.5414(7)
O2_5 O 0.6434(2) 0.8667(2) 0.53434(4)
O3_5 O 0.6237(2) 0.8169(2) 0.55915(4)
C1_11 C 0.6681(3) 0.8717(3) 0.54841(6)
C2_11 C 0.7594(3) 0.9515(4) 0.55193(6)
C4_11 C 0.7950(3) 0.9735(3) 0.56701(6)
H2_11 H 0.7615 0.9380 0.5756
H3_11 H 0.7870 0.9901 0.5291
O8_8 O 0.3668(2) 0.7776(2) 0.51154(4)
O9_8 O 0.5135(2) 0.8277(2) 0.50664(4)
C10_8 C 0.5196(4) 0.9940(4) 0.47085(6)
C11_8 C 0.4368(3) 0.8752(3) 0.48967(6)
C12_8 C 0.5180(3) 0.9446(3) 0.48380(6)
H6_8 H 0.5725 0.9581 0.4887
C13_8 C 0.4388(3) 0.8229(3) 0.50372(5)
C14_8 C 0.4390(4) 0.9743(4) 0.46350(8)
C15_8 C 0.3568(4) 0.9044(5) 0.46942(9)
H8_8 H 0.3022 0.8904 0.4645
C16_8 C 0.3562(4) 0.8558(4) 0.48253(7)
H9_8 H 0.3011 0.8098 0.4865
O10_8 O 0.2968(3) 0.5526(2) 0.53958(4)
O11_8 O 0.2558(2) 0.7032(3) 0.53958(4)
H10_8 H 0.336(6) 0.555(4) 0.5414(7)
H11_8 H 0.219(4) 0.664(6) 0.5414(7)
O12_7 O 0.2000(2) 0.3101(2) 0.63233(4)
O13_5 O 0.6899(2) 0.8900(3) 0.63233(4)
O14_5 O 0.2233(3) 0.3566(2) 0.53434(4)
O15_7 O 0.1333(2) 0.7767(3) 0.53434(4)
O16_7 O 0.1502(2) 0.2904(2) 0.60752(4)
O17_5 O 0.7096(2) 0.8599(3) 0.60752(4)
O18_5 O 0.1932(3) 0.3763(2) 0.55915(4)
O19_7 O 0.1831(2) 0.8068(3) 0.55915(4)
O20_5 O 0.4892(2) 0.6554(2) 0.57993(4)
O21_7 O 0.3446(2) 0.8339(3) 0.57993(4)
O22_7 O 0.1661(3) 0.5108(2) 0.57993(4)
O23_5 O 0.3537(2) 0.5677(3) 0.57054(4)
O24_7 O 0.4323(3) 0.7861(4) 0.57054(4)
O25_7 O 0.2139(4) 0.6463(2) 0.57054(4)
C17_9 C 0.2050(3) 0.3348(3) 0.61826(6)
C18_7 C 0.6652(3) 0.8703(4) 0.61826(6)
C19_9 C 0.2848(4) 0.4261(3) 0.61474(6)
C20_7 C 0.5739(3) 0.8588(5) 0.61474(6)
C21_9 C 0.3822(4) 0.5478(3) 0.59735(6)
C22_7 C 0.4522(3) 0.8345(5) 0.59735(6)
C23_9 C 0.3068(3) 0.4617(3) 0.59966(6)
C24_7 C 0.5383(3) 0.8452(4) 0.59966(6)
H12_9 H 0.2713 0.4282 0.5911
H13_7 H 0.5718 0.8432 0.5911
C25_9 C 0.4078(3) 0.5906(3) 0.58161(5)
C26_7 C 0.4094(3) 0.8173(4) 0.58161(5)
C27_9 C 0.3378(6) 0.4774(5) 0.62735(7)
C28_7 C 0.5226(5) 0.8605(8) 0.62735(7)
H14_9 H 0.3234 0.4537 0.6376
H15_7 H 0.5463 0.8698 0.6376
C29_9 C 0.4111(7) 0.5630(5) 0.62497(8)
C30_7 C 0.4370(5) 0.8482(9) 0.62497(8)
H16_9 H 0.4452 0.5978 0.6336
H17_7 H 0.4022 0.8475 0.6336
C31_9 C 0.4338(5) 0.5964(5) 0.61011(7)
C32_7 C 0.4036(5) 0.8375(7) 0.61011(7)
H18_9 H 0.4853 0.6532 0.6085
H19_7 H 0.3468 0.8322 0.6085
O36_8 O 0.4108(3) 0.6332(2) 0.51154(4)
O37_8 O 0.2224(2) 0.5892(3) 0.51154(4)
O38_8 O 0.3142(3) 0.4865(2) 0.50664(4)
O39_8 O 0.1723(2) 0.6858(3) 0.50664(4)
C33_8 C 0.4663(5) 0.3934(4) 0.46555(6)
C35_8 C 0.4744(6) 0.4804(4) 0.47085(6)
C36_8 C 0.0060(4) 0.5256(6) 0.47085(6)
C37_8 C 0.4384(4) 0.5632(3) 0.48967(6)
C38_8 C 0.1248(3) 0.5616(4) 0.48967(6)
C39_8 C 0.4266(4) 0.4820(3) 0.48380(6)
C40_8 C 0.0554(3) 0.5734(4) 0.48380(6)
H20_8 H 0.3856 0.4275 0.4887
H21_8 H 0.0419 0.6144 0.4887
C41_8 C 0.3841(4) 0.5612(3) 0.50372(5)
C42_8 C 0.1771(3) 0.6159(4) 0.50372(5)
C43_8 C 0.5353(6) 0.5610(4) 0.46350(8)
C44_8 C 0.0257(4) 0.4647(6) 0.46350(8)
H22_8 H 0.5678 0.5604 0.4547
C45_8 C 0.5476(6) 0.6432(4) 0.46942(9)
C46_8 C 0.0956(5) 0.4524(6) 0.46942(9)
H24_8 H 0.5882 0.6978 0.4645
H25_8 H 0.1096 0.4118 0.4645
C47_8 C 0.4996(6) 0.6438(4) 0.48253(7)
C48_8 C 0.1442(4) 0.5004(6) 0.48253(7)
H26_8 H 0.5087 0.6989 0.4865
H27_8 H 0.1902 0.4913 0.4865
C34_8 C 0.9271(3) 0.5337(5) 0.46555(6)
H23_8 H 0.9926 0.4322 0.4547
Co3_15 Co 0.0000 -0.0000 0.640427(12)
O1_9 O 0.0775(2) 0.1141(2) 0.62709(4)
H1_9 H 0.114(4) 0.112(4) 0.6253(7)
O8_9 O 0.1109(2) 0.0335(2) 0.65513(4)
O9_9 O 0.1610(2) 0.1802(2) 0.66003(4)
C9_9 C 0.4062(3) 0.2733(4) 0.70112(6)
C10_9 C 0.3273(4) 0.1863(4) 0.69582(6)
C11_9 C 0.2085(3) 0.1035(3) 0.67700(6)
C12_9 C 0.2779(3) 0.1847(3) 0.68287(6)
H6_9 H 0.2914 0.2392 0.6780
C13_9 C 0.1562(3) 0.1055(3) 0.66295(5)
C14_9 C 0.3076(4) 0.1057(4) 0.70317(8)
H7_9 H 0.3407 0.1063 0.7120
C15_9 C 0.2377(5) 0.0235(4) 0.69725(9)
C16_9 C 0.1891(4) 0.0229(4) 0.68414(7)
O21_8 O 0.1672(3) 0.0113(2) 0.58674(4)
O24_8 O 0.1194(4) 0.0990(3) 0.59613(4)
C18_8 C 0.2036(4) 0.3319(3) 0.54841(6)
C20_8 C 0.1921(5) 0.2406(3) 0.55193(6)
C22_8 C 0.1678(5) 0.1189(3) 0.56932(6)
C24_8 C 0.1785(4) 0.2050(3) 0.56701(6)
H13_8 H 0.1765 0.2385 0.5756
C26_8 C 0.1506(4) 0.0761(3) 0.58506(5)
C28_8 C 0.1938(8) 0.1893(5) 0.53932(7)
H15_8 H 0.2031 0.2130 0.5291
C30_8 C 0.1815(9) 0.1037(5) 0.54170(8)
H17_8 H 0.1808 0.0689 0.5331
C32_8 C 0.1708(7) 0.0703(5) 0.55656(7)
H19_8 H 0.1655 0.0135 0.5582
H24_9 H 0.0311 0.2549 0.7022
H26_9 H 0.0322 0.1754 0.6802
Co3_16 Co 0.0000 1.0000 0.640427(12)
H8_9 H 0.2237 0.9689 0.7022
H9_9 H 0.1431 0.9678 0.6802
O11_9 O 0.0365(3) 0.9225(2) 0.62709(4)
O15_8 O 0.1100(3) 0.8000(2) 0.63233(4)
O19_8 O 0.1401(3) 0.8498(2) 0.60752(4)
O39_9 O 0.0191(3) 0.8390(2) 0.66003(4)
Co3_17 Co 1.0000 -0.0000 0.640427(12)
H10_9 H 0.888(4) 0.003(6) 0.6253(7)
O36_9 O 0.9665(2) 0.0775(3) 0.65513(4)
C33_9 C 0.7267(4) 0.1330(5) 0.70112(6)
C35_9 C 0.8137(4) 0.1411(6) 0.69582(6)
C37_9 C 0.8965(3) 0.1051(4) 0.67700(6)
C39_9 C 0.8153(3) 0.0933(4) 0.68287(6)
H20_9 H 0.7608 0.0523 0.6780
C41_9 C 0.8945(3) 0.0508(4) 0.66295(5)
C43_9 C 0.8943(4) 0.2020(6) 0.70317(8)
H22_9 H 0.8937 0.2345 0.7120
C45_9 C 0.9765(4) 0.2143(6) 0.69725(9)
C47_9 C 0.9771(4) 0.1663(6) 0.68414(7)
Co3_18 Co 1.0000 1.0000 0.640427(12)
O10_9 O 0.8859(2) 0.9635(3) 0.62709(4)
H11_9 H 0.997(6) 0.886(4) 0.6253(7)
O22_8 O 0.8441(2) 0.8328(3) 0.58674(4)
O25_8 O 0.9796(2) 0.8806(4) 0.59613(4)
O37_9 O 0.9225(3) 0.8891(2) 0.65513(4)
O38_9 O 0.8198(2) 0.9809(3) 0.66003(4)
C34_9 C 0.8670(5) 0.5938(3) 0.70112(6)
C36_9 C 0.8589(6) 0.6727(4) 0.69582(6)
C38_9 C 0.8949(4) 0.7915(3) 0.67700(6)
C40_9 C 0.9067(4) 0.7221(3) 0.68287(6)
H21_9 H 0.9477 0.7086 0.6780
C42_9 C 0.9492(4) 0.8438(3) 0.66295(5)
C44_9 C 0.7980(6) 0.6924(4) 0.70317(8)
H23_9 H 0.7655 0.6593 0.7120
C46_9 C 0.7857(6) 0.7623(5) 0.69725(9)
H25_9 H 0.7451 0.7763 0.7022
C48_9 C 0.8337(6) 0.8109(4) 0.68414(7)
H27_9 H 0.8246 0.8569 0.6802
C17_10 C 0.1283(3) 0.7964(4) 0.54841(6)
C19_10 C 0.0485(4) 0.8079(5) 0.55193(6)
C23_10 C 0.0265(3) 0.8215(4) 0.56701(6)
H12_10 H 0.0620 0.8235 0.5756
H14_10 H 0.0099 0.7969 0.5291
C21_10 C 0.9511(4) 0.8322(5) 0.56932(6)
C25_10 C 0.9255(3) 0.8494(4) 0.58506(5)
C27_10 C 0.9955(6) 0.8062(8) 0.53932(7)
C29_10 C 0.9222(7) 0.8185(9) 0.54170(8)
H16_10 H 0.8881 0.8192 0.5331
C31_10 C 0.8995(5) 0.8292(7) 0.55656(7)
H18_10 H 0.8480 0.8345 0.5582
C1_12 C 0.1297(4) 0.7950(3) 0.61826(6)
C2_12 C 0.1412(5) 0.7152(4) 0.61474(6)
C3_12 C 0.1655(5) 0.6178(4) 0.59735(6)
C4_12 C 0.1548(4) 0.6932(3) 0.59966(6)
H2_12 H 0.1568 0.7287 0.5911
C5_12 C 0.1827(4) 0.5922(3) 0.58161(5)
C6_12 C 0.1395(8) 0.6622(6) 0.62735(7)
H3_12 H 0.1302 0.6766 0.6376
C7_12 C 0.1518(9) 0.5889(7) 0.62497(8)
H4_12 H 0.1525 0.5548 0.6336
C8_12 C 0.1625(7) 0.5662(5) 0.61011(7)
H5_12 H 0.1678 0.5147 0.6085
O4_10 O 0.3220(2) 0.8226(2) 0.25341(4)
O5_10 O 0.2343(3) 0.6871(2) 0.26280(4)
C1_13 C 0.0014(3) 0.5384(3) 0.21508(6)
C2_13 C 0.0927(3) 0.6182(4) 0.21860(6)
C3_13 C 0.2144(3) 0.7156(4) 0.23599(6)
C4_13 C 0.1283(3) 0.6402(3) 0.23368(6)
H2_13 H 0.0948 0.6047 0.2423
C5_13 C 0.2572(3) 0.7412(3) 0.25173(5)
C6_13 C 0.1440(5) 0.6712(6) 0.20599(7)
H3_13 H 0.1203 0.6568 0.1958
C7_13 C 0.2296(5) 0.7445(7) 0.20837(8)
H4_13 H 0.2644 0.7786 0.1998
C8_13 C 0.2630(5) 0.7672(5) 0.22323(7)
H5_13 H 0.3198 0.8187 0.2249
O13_6 O 0.0233(2) 0.5566(3) 0.29899(4)
O17_6 O 0.0430(2) 0.5265(3) 0.27418(4)
Co3_19 Co 0.6666 0.3334 0.192907(12)
O1_10 O 0.7807(2) 0.4109(2) 0.20625(4)
H1_10 H 0.778(4) 0.448(4) 0.2081(7)
O2_6 O 0.9767(2) 0.5334(2) 0.20101(4)
O3_6 O 0.9570(2) 0.4836(2) 0.22582(4)
O8_10 O 0.7001(2) 0.4443(2) 0.17821(4)
O9_10 O 0.8468(2) 0.4944(2) 0.17331(4)
C9_10 C 0.9399(4) 0.7396(3) 0.13222(6)
C10_10 C 0.8529(4) 0.6607(4) 0.13752(6)
C11_10 C 0.7701(3) 0.5419(3) 0.15634(6)
C12_10 C 0.8513(3) 0.6113(3) 0.15047(6)
H6_10 H 0.9058 0.6248 0.1554
C13_10 C 0.7721(3) 0.4896(3) 0.17039(5)
C14_10 C 0.7723(4) 0.6410(4) 0.13017(8)
H7_10 H 0.7729 0.6741 0.1214
C15_10 C 0.6901(4) 0.5711(5) 0.13609(9)
H8_10 H 0.6355 0.5571 0.1312
C16_10 C 0.6895(4) 0.5225(4) 0.14920(7)
H9_10 H 0.6344 0.4765 0.1532
O10_10 O 0.6301(3) 0.2193(2) 0.20625(4)
O11_10 O 0.5891(2) 0.3699(3) 0.20625(4)
H10_10 H 0.669(6) 0.222(4) 0.2081(7)
H11_10 H 0.552(4) 0.331(6) 0.2081(7)
O14_6 O 0.5566(3) 0.0233(2) 0.20101(4)
O15_9 O 0.4666(2) 0.4434(3) 0.20101(4)
O18_6 O 0.5265(3) 0.0430(2) 0.22582(4)
O19_9 O 0.5164(2) 0.4735(3) 0.22582(4)
O20_6 O 0.8226(2) 0.3220(2) 0.24659(4)
O21_9 O 0.6780(2) 0.5005(3) 0.24659(4)
O22_9 O 0.4995(3) 0.1774(2) 0.24659(4)
O23_6 O 0.6871(2) 0.2343(3) 0.23720(4)
O24_9 O 0.7657(3) 0.4527(4) 0.23720(4)
O25_9 O 0.5473(4) 0.3129(2) 0.23720(4)
C17_11 C 0.5384(3) 0.0014(3) 0.28492(6)
C18_9 C 0.9986(3) 0.5369(4) 0.28492(6)
C19_11 C 0.6182(4) 0.0927(3) 0.28140(6)
C20_9 C 0.9073(3) 0.5254(5) 0.28140(6)
C21_11 C 0.7156(4) 0.2144(3) 0.26401(6)
C22_9 C 0.7856(3) 0.5011(5) 0.26401(6)
C23_11 C 0.6402(3) 0.1283(3) 0.26632(6)
C24_9 C 0.8717(3) 0.5118(4) 0.26632(6)
H12_11 H 0.6047 0.0948 0.2577
H13_9 H 0.9052 0.5098 0.2577
C25_11 C 0.7412(3) 0.2572(3) 0.24827(5)
C26_9 C 0.7428(3) 0.4839(4) 0.24827(5)
C27_11 C 0.6712(6) 0.1440(5) 0.29401(7)
C28_9 C 0.8560(5) 0.5271(8) 0.29401(7)
H14_11 H 0.6568 0.1203 0.3042
H15_9 H 0.8797 0.5364 0.3042
C29_11 C 0.7445(7) 0.2296(5) 0.29163(8)
C30_9 C 0.7704(5) 0.5148(9) 0.29163(8)
H16_11 H 0.7786 0.2644 0.3002
H17_9 H 0.7356 0.5141 0.3002
C31_11 C 0.7672(5) 0.2630(5) 0.27677(7)
C32_9 C 0.7370(5) 0.5041(7) 0.27677(7)
H18_11 H 0.8187 0.3198 0.2751
H19_9 H 0.6802 0.4988 0.2751
O36_10 O 0.7441(3) 0.2999(2) 0.17821(4)
O37_10 O 0.5557(2) 0.2559(3) 0.17821(4)
O38_10 O 0.6475(3) 0.1532(2) 0.17331(4)
O39_10 O 0.5056(2) 0.3525(3) 0.17331(4)
C33_10 C 0.7996(5) 0.0601(4) 0.13222(6)
C34_10 C 0.2604(3) 0.2004(5) 0.13222(6)
C35_10 C 0.8077(6) 0.1471(4) 0.13752(6)
C36_10 C 0.3393(4) 0.1923(6) 0.13752(6)
C37_10 C 0.7717(4) 0.2299(3) 0.15634(6)
C38_10 C 0.4581(3) 0.2283(4) 0.15634(6)
C39_10 C 0.7599(4) 0.1487(3) 0.15047(6)
C40_10 C 0.3887(3) 0.2401(4) 0.15047(6)
H20_10 H 0.7189 0.0942 0.1554
H21_10 H 0.3752 0.2811 0.1554
C41_10 C 0.7174(4) 0.2279(3) 0.17039(5)
C42_10 C 0.5104(3) 0.2826(4) 0.17039(5)
C43_10 C 0.8686(6) 0.2277(4) 0.13017(8)
C44_10 C 0.3590(4) 0.1314(6) 0.13017(8)
H22_10 H 0.9011 0.2271 0.1214
H23_10 H 0.3259 0.0989 0.1214
C45_10 C 0.8809(6) 0.3099(4) 0.13609(9)
C46_10 C 0.4289(5) 0.1191(6) 0.13609(9)
H24_10 H 0.9215 0.3645 0.1312
H25_10 H 0.4429 0.0785 0.1312
C47_10 C 0.8329(6) 0.3105(4) 0.14920(7)
C48_10 C 0.4775(4) 0.1671(6) 0.14920(7)
H26_10 H 0.8420 0.3656 0.1532
H27_10 H 0.5235 0.1580 0.1532
O12_8 O 0.5334(2) 0.9767(2) 0.29899(4)
O16_8 O 0.4836(2) 0.9570(2) 0.27418(4)
Co3_20 Co 0.3334 0.6666 0.307093(12)
O1_11 O 0.4109(2) 0.7807(2) 0.29375(4)
H1_11 H 0.448(4) 0.778(4) 0.2919(7)
O8_11 O 0.4443(2) 0.7001(2) 0.32179(4)
O9_11 O 0.4944(2) 0.8468(2) 0.32669(4)
C9_11 C 0.7396(3) 0.9399(4) 0.36778(6)
C10_11 C 0.6607(4) 0.8529(4) 0.36248(6)
C11_11 C 0.5419(3) 0.7701(3) 0.34366(6)
C12_11 C 0.6113(3) 0.8513(3) 0.34953(6)
H6_11 H 0.6248 0.9058 0.3446
C13_11 C 0.4896(3) 0.7721(3) 0.32961(5)
C14_11 C 0.6410(4) 0.7723(4) 0.36983(8)
H7_11 H 0.6741 0.7729 0.3786
C15_11 C 0.5711(5) 0.6901(4) 0.36391(9)
H8_11 H 0.5571 0.6355 0.3688
C16_11 C 0.5225(4) 0.6895(4) 0.35080(7)
H9_11 H 0.4765 0.6344 0.3468
O10_11 O 0.2193(2) 0.6301(3) 0.29375(4)
O11_11 O 0.3699(3) 0.5891(2) 0.29375(4)
H10_11 H 0.222(4) 0.669(6) 0.2919(7)
H11_11 H 0.331(6) 0.552(4) 0.2919(7)
O15_10 O 0.4434(3) 0.4666(2) 0.29899(4)
O19_10 O 0.4735(3) 0.5164(2) 0.27418(4)
O21_10 O 0.5005(3) 0.6780(2) 0.25341(4)
O22_10 O 0.1774(2) 0.4995(3) 0.25341(4)
O24_10 O 0.4527(4) 0.7657(3) 0.26280(4)
O25_10 O 0.3129(2) 0.5473(4) 0.26280(4)
C18_10 C 0.5369(4) 0.9986(3) 0.21508(6)
C20_10 C 0.5254(5) 0.9073(3) 0.21860(6)
C22_10 C 0.5011(5) 0.7856(3) 0.23599(6)
C24_10 C 0.5118(4) 0.8717(3) 0.23368(6)
H13_10 H 0.5098 0.9052 0.2423
C26_10 C 0.4839(4) 0.7428(3) 0.25173(5)
C28_10 C 0.5271(8) 0.8560(5) 0.20599(7)
H15_10 H 0.5364 0.8797 0.1958
C30_10 C 0.5148(9) 0.7704(5) 0.20837(8)
H17_10 H 0.5141 0.7356 0.1998
C32_10 C 0.5041(7) 0.7370(5) 0.22323(7)
H19_10 H 0.4988 0.6802 0.2249
O36_11 O 0.2999(2) 0.7441(3) 0.32179(4)
O37_11 O 0.2559(3) 0.5557(2) 0.32179(4)
O38_11 O 0.1532(2) 0.6475(3) 0.32669(4)
O39_11 O 0.3525(3) 0.5056(2) 0.32669(4)
C33_11 C 0.0601(4) 0.7996(5) 0.36778(6)
C34_11 C 0.2004(5) 0.2604(3) 0.36778(6)
C35_11 C 0.1471(4) 0.8077(6) 0.36248(6)
C36_11 C 0.1923(6) 0.3393(4) 0.36248(6)
C37_11 C 0.2299(3) 0.7717(4) 0.34366(6)
C38_11 C 0.2283(4) 0.4581(3) 0.34366(6)
C39_11 C 0.1487(3) 0.7599(4) 0.34953(6)
C40_11 C 0.2401(4) 0.3887(3) 0.34953(6)
H20_11 H 0.0942 0.7189 0.3446
H21_11 H 0.2811 0.3752 0.3446
C41_11 C 0.2279(3) 0.7174(4) 0.32961(5)
C42_11 C 0.2826(4) 0.5104(3) 0.32961(5)
C43_11 C 0.2277(4) 0.8686(6) 0.36983(8)
C44_11 C 0.1314(6) 0.3590(4) 0.36983(8)
H22_11 H 0.2271 0.9011 0.3786
H23_11 H 0.0989 0.3259 0.3786
C45_11 C 0.3099(4) 0.8809(6) 0.36391(9)
C46_11 C 0.1191(6) 0.4289(5) 0.36391(9)
H24_11 H 0.3645 0.9215 0.3688
H25_11 H 0.0785 0.4429 0.3688
C47_11 C 0.3105(4) 0.8329(6) 0.35080(7)
C48_11 C 0.1671(6) 0.4775(4) 0.35080(7)
H26_11 H 0.3656 0.8420 0.3468
H27_11 H 0.1580 0.5235 0.3468
Co3_21 Co -0.0000 0.0000 0.859573(12)
O1_12 O 0.1141(2) 0.0775(2) 0.87291(4)
H1_12 H 0.112(4) 0.114(4) 0.8747(7)
O8_12 O 0.0335(2) 0.1109(2) 0.84487(4)
O9_12 O 0.1802(2) 0.1610(2) 0.83997(4)
C9_12 C 0.2733(4) 0.4062(3) 0.79888(6)
C10_12 C 0.1863(4) 0.3273(4) 0.80418(6)
C11_12 C 0.1035(3) 0.2085(3) 0.82300(6)
C12_12 C 0.1847(3) 0.2779(3) 0.81713(6)
H6_12 H 0.2392 0.2914 0.8220
C13_12 C 0.1055(3) 0.1562(3) 0.83705(5)
C14_12 C 0.1057(4) 0.3076(4) 0.79683(8)
H7_12 H 0.1063 0.3407 0.7880
C15_12 C 0.0235(4) 0.2377(5) 0.80275(9)
C16_12 C 0.0229(4) 0.1891(4) 0.81586(7)
H24_12 H 0.2549 0.0311 0.7978
H26_12 H 0.1754 0.0322 0.8198
Co3_22 Co -0.0000 1.0000 0.859573(12)
H10_12 H 0.003(6) 0.888(4) 0.8747(7)
O36_12 O 0.0775(3) 0.9665(2) 0.84487(4)
C33_12 C 0.1330(5) 0.7267(4) 0.79888(6)
C35_12 C 0.1411(6) 0.8137(4) 0.80418(6)
C37_12 C 0.1051(4) 0.8965(3) 0.82300(6)
C39_12 C 0.0933(4) 0.8153(3) 0.81713(6)
H20_12 H 0.0523 0.7608 0.8220
C41_12 C 0.0508(4) 0.8945(3) 0.83705(5)
C43_12 C 0.2020(6) 0.8943(4) 0.79683(8)
H22_12 H 0.2345 0.8937 0.7880
C45_12 C 0.2143(6) 0.9765(4) 0.80275(9)
C47_12 C 0.1663(6) 0.9771(4) 0.81586(7)
Co3_23 Co 1.0000 0.0000 0.859573(12)
H8_12 H 0.9689 0.2237 0.7978
H9_12 H 0.9678 0.1431 0.8198
O11_12 O 0.9225(2) 0.0365(3) 0.87291(4)
O39_12 O 0.8390(2) 0.0191(3) 0.83997(4)
Co3_24 Co 1.0000 1.0000 0.859573(12)
O10_12 O 0.9635(3) 0.8859(2) 0.87291(4)
H11_12 H 0.886(4) 0.997(6) 0.8747(7)
O37_12 O 0.8891(2) 0.9225(3) 0.84487(4)
O38_12 O 0.9809(3) 0.8198(2) 0.83997(4)
C34_12 C 0.5938(3) 0.8670(5) 0.79888(6)
C36_12 C 0.6727(4) 0.8589(6) 0.80418(6)
C38_12 C 0.7915(3) 0.8949(4) 0.82300(6)
C40_12 C 0.7221(3) 0.9067(4) 0.81713(6)
H21_12 H 0.7086 0.9477 0.8220
C42_12 C 0.8438(3) 0.9492(4) 0.83705(5)
C44_12 C 0.6924(4) 0.7980(6) 0.79683(8)
H23_12 H 0.6593 0.7655 0.7880
C46_12 C 0.7623(5) 0.7857(6) 0.80275(9)
H25_12 H 0.7763 0.7451 0.7978
C48_12 C 0.8109(4) 0.8337(6) 0.81586(7)
H27_12 H 0.8569 0.8246 0.8198
C17_12 C 0.4616(3) 0.4631(4) 0.21508(6)
C19_12 C 0.3818(4) 0.4746(5) 0.21860(6)
C21_12 C 0.2844(4) 0.4989(5) 0.23599(6)
C23_12 C 0.3598(3) 0.4882(4) 0.23368(6)
H12_12 H 0.3953 0.4902 0.2423
C25_12 C 0.2588(3) 0.5161(4) 0.25173(5)
C27_12 C 0.3288(6) 0.4729(8) 0.20599(7)
H14_12 H 0.3432 0.4636 0.1958
C29_12 C 0.2555(7) 0.4852(9) 0.20837(8)
H16_12 H 0.2214 0.4859 0.1998
C31_12 C 0.2328(5) 0.4959(7) 0.22323(7)
H18_12 H 0.1813 0.5012 0.2249
C1_14 C 0.4631(4) 0.4616(3) 0.28492(6)
C2_14 C 0.4746(5) 0.3818(4) 0.28140(6)
C3_14 C 0.4989(5) 0.2844(4) 0.26401(6)
C4_14 C 0.4882(4) 0.3598(3) 0.26632(6)
H2_14 H 0.4902 0.3953 0.2577
C5_14 C 0.5161(4) 0.2588(3) 0.24827(5)
C6_14 C 0.4729(8) 0.3288(6) 0.29401(7)
H3_14 H 0.4636 0.3432 0.3042
C7_14 C 0.4852(9) 0.2555(7) 0.29163(8)
H4_14 H 0.4859 0.2214 0.3002
C8_14 C 0.4959(7) 0.2328(5) 0.27677(7)
H5_14 H 0.5012 0.1813 0.2751
K1 K 0.26618(17) 0.3333 0.0833
K1_2 K 0.6667 0.93288(17) 0.0833
K1_3 K 0.06712(17) 0.73382(17) 0.0833
K1_4 K 0.3333 0.26618(17) 0.4167
K1_5 K 0.93285(17) 0.6666 0.4166
K1_6 K 0.73379(17) 0.06715(17) 0.4166
K1_7 K -0.0000 0.59951(17) 0.7500
K1_8 K 1.0000 0.59951(17) 0.7500
K1_9 K 0.59951(17) -0.0000 0.7500
K1_10 K 0.59951(17) 1.0000 0.7500
K1_11 K 0.40045(17) 0.40049(17) 0.7500
K1_12 K 0.73382(17) 0.6667 0.9167
K1_13 K 0.3333 0.06712(17) 0.9167
K1_14 K 0.93288(17) 0.26618(17) 0.9167
K1_15 K 0.6667 0.73382(17) 0.5833
K1_16 K 0.06715(17) 0.3334 0.5834
K1_17 K 0.26621(17) 0.93285(17) 0.5834
K1_18 K 0.0000 0.40049(17) 0.2500
K1_19 K 1.0000 0.40049(17) 0.2500
K1_20 K 0.40049(17) 0.0000 0.2500
K1_21 K 0.40049(17) 1.0000 0.2500
K1_22 K 0.59955(17) 0.59951(17) 0.2500
loop_
_geom_bond_atom_site_label_1
_geom_bond_atom_site_label_2
_geom_bond_site_symmetry_1
_geom_bond_site_symmetry_2
Co10 O27 1_555 1_555
Co16 O32 1_555 1_555
O27 C34 1_555 1_555
O32 C34 1_555 1_555
Co1 O1 1_555 1_555
Co2 O1 1_555 1_555
Co3 O1 1_555 1_555
O1 H1 1_555 1_555
O2 Co2 1_555 1_555
O3 Co1 1_555 1_555
C1 O2 1_555 1_555
C2 C1 1_555 1_555
C4 C2 1_555 1_555
H2 C4 1_555 1_555
O8 Co3 1_555 1_555
O9 Co2 1_555 1_555
C13 O8 1_555 1_555
Co4 O10 1_555 1_555
Co5 O11 1_555 1_555
Co11 O16 1_555 1_555
Co12 O10 1_555 1_555
Co13 O11 1_555 1_555
Co17 O12 1_555 1_555
Co18 O13 1_555 1_555
O10 Co3 1_555 1_555
O11 Co3 1_555 1_555
H10 O10 1_555 1_555
H11 O11 1_555 1_555
O12 C17 1_555 1_555
O13 C18 1_555 1_555
O14 Co12 1_555 1_555
O15 Co13 1_555 1_555
O16 C17 1_555 1_555
O17 Co7 1_555 1_555
O18 Co4 1_555 1_555
O19 Co5 1_555 1_555
O20 Co1 1_555 1_555
O21 Co5 1_555 1_555
O22 Co4 1_555 1_555
O23 Co4 1_555 1_555
O24 Co1 1_555 1_555
O25 Co5 1_555 1_555
C17 C19 1_555 1_555
C18 O17 1_555 1_555
C19 C23 1_555 1_555
C20 C18 1_555 1_555
C21 C23 1_555 1_555
C22 C24 1_555 1_555
C23 H12 1_555 1_555
C24 C20 1_555 1_555
H13 C24 1_555 1_555
C25 O20 1_555 1_555
C26 O21 1_555 1_555
C27 C19 1_555 1_555
C28 C20 1_555 1_555
H14 C27 1_555 1_555
H15 C28 1_555 1_555
C29 C27 1_555 1_555
C30 C28 1_555 1_555
H16 C29 1_555 1_555
H17 C30 1_555 1_555
C31 C21 1_555 1_555
C32 C22 1_555 1_555
H18 C31 1_555 1_555
H19 C32 1_555 1_555
O28 Co1 1_555 1_555
O29 Co4 1_555 1_555
O30 Co5 1_555 1_555
O33 Co2 1_555 1_555
O34 Co12 1_555 1_555
O35 Co13 1_555 1_555
O36 Co3 1_555 1_555
O37 Co3 1_555 1_555
O38 Co12 1_555 1_555
O39 Co13 1_555 1_555
C41 O36 1_555 1_555
C42 O37 1_555 1_555
O3 C1 1_555 1_555
O9 C13 1_555 1_555
O23 C25 1_555 1_555
O24 C26 1_555 1_555
C21 C25 1_555 1_555
C22 C26 1_555 1_555
C29 C31 1_555 1_555
C30 C32 1_555 1_555
O38 C41 1_555 1_555
O39 C42 1_555 1_555
C10 C12 1_555 1_555
C11 C12 1_555 1_555
C12 H6 1_555 1_555
C14 C10 1_555 1_555
C15 C14 1_555 1_555
H8 C15 1_555 1_555
C16 C11 1_555 1_555
H9 C16 1_555 1_555
Co9 O26 1_555 1_555
Co15 O31 1_555 1_555
O26 C33 1_555 1_555
O31 C33 1_555 1_555
C33 C35 1_555 1_555
C35 C39 1_555 1_555
C36 C40 1_555 1_555
C37 C39 1_555 1_555
C38 C40 1_555 1_555
C39 H20 1_555 1_555
C40 H21 1_555 1_555
C43 C35 1_555 1_555
C44 C36 1_555 1_555
H22 C43 1_555 1_555
C45 C43 1_555 1_555
C46 C44 1_555 1_555
H24 C45 1_555 1_555
H25 C46 1_555 1_555
C47 C37 1_555 1_555
C48 C38 1_555 1_555
H26 C47 1_555 1_555
H27 C48 1_555 1_555
C15 C16 1_555 1_555
C45 C47 1_555 1_555
C46 C48 1_555 1_555
O4 C5 1_555 1_555
O5 C5 1_555 1_555
C5 C3 1_555 1_555
C7 C6 1_555 1_555
H4 C7 1_555 1_555
C8 C3 1_555 1_555
H5 C8 1_555 1_555
C7 C8 1_555 1_555
O6 C9 1_555 1_555
O7 C9 1_555 1_555
Co8 O6 1_555 1_555
Co14 O7 1_555 1_555
O4_2 C5_2 1_555 1_555
O5_2 C5_2 1_555 1_555
C1_2 O14 1_555 1_555
C2_2 C1_2 1_555 1_555
C3_2 C4_2 1_555 1_555
C4_2 C2_2 1_555 1_555
H2_2 C4_2 1_555 1_555
C5_2 C3_2 1_555 1_555
C6_2 C2_2 1_555 1_555
H3_2 C6_2 1_555 1_555
C7_2 C6_2 1_555 1_555
H4_2 C7_2 1_555 1_555
C8_2 C3_2 1_555 1_555
H5_2 C8_2 1_555 1_555
Co11 O5_2 1_555 1_555
Co6 O16_2 1_555 1_555
Co17_2 O12_2 1_555 1_555
O12_2 C17_2 1_555 1_555
O16_2 C17_2 1_555 1_555
C17_2 C19_2 1_555 1_555
C19_2 C23_2 1_555 1_555
C21_2 C23_2 1_555 1_555
C23_2 H12_2 1_555 1_555
C25_2 O22 1_555 1_555
C27_2 C19_2 1_555 1_555
H14_2 C27_2 1_555 1_555
C29_2 C27_2 1_555 1_555
H16_2 C29_2 1_555 1_555
C31_2 C21_2 1_555 1_555
H18_2 C31_2 1_555 1_555
O18 C1_2 1_555 1_555
C7_2 C8_2 1_555 1_555
O25 C25_2 1_555 1_555
C21_2 C25_2 1_555 1_555
C29_2 C31_2 1_555 1_555
O4_3 C5_3 1_555 1_555
O5_3 C5_3 1_555 1_555
C5_3 C3_3 1_555 1_555
C7_3 C6_3 1_555 1_555
H4_3 C7_3 1_555 1_555
C8_3 C3_3 1_555 1_555
H5_3 C8_3 1_555 1_555
Co7 O4_3 1_555 1_555
C7_3 C8_3 1_555 1_555
C1_3 O15 1_555 1_555
C2_3 C1_3 1_555 1_555
C4_3 C2_3 1_555 1_555
H2_3 C4_3 1_555 1_555
O19 C1_3 1_555 1_555
Co10_2 O27_2 1_555 1_555
Co16_2 O32_2 1_555 1_555
O27_2 C34_2 1_555 1_555
O32_2 C34_2 1_555 1_555
Co1_2 O1_2 1_555 1_555
Co2_2 O1_2 1_555 1_555
Co3_2 O1_2 1_555 1_555
O1_2 H1_2 1_555 1_555
O2_2 Co2_2 1_555 1_555
O3_2 Co1_2 1_555 1_555
C1_4 O2_2 1_555 1_555
C2_4 C1_4 1_555 1_555
C4_4 C2_4 1_555 1_555
H2_4 C4_4 1_555 1_555
O8_2 Co3_2 1_555 1_555
O9_2 Co2_2 1_555 1_555
C10_2 C12_2 1_555 1_555
C11_2 C12_2 1_555 1_555
C12_2 H6_2 1_555 1_555
C13_2 O8_2 1_555 1_555
C14_2 C10_2 1_555 1_555
C15_2 C14_2 1_555 1_555
H8_2 C15_2 1_555 1_555
C16_2 C11_2 1_555 1_555
H9_2 C16_2 1_555 1_555
Co4_2 O10_2 1_555 1_555
Co5_2 O11_2 1_555 1_555
Co9_2 O26_2 1_555 1_555
Co11_2 O16_3 1_555 1_555
Co12_2 O10_2 1_555 1_555
Co13_2 O11_2 1_555 1_555
Co15_2 O31_2 1_555 1_555
Co17_3 O12_3 1_555 1_555
Co18_2 O13_2 1_555 1_555
O10_2 Co3_2 1_555 1_555
O11_2 Co3_2 1_555 1_555
H10_2 O10_2 1_555 1_555
H11_2 O11_2 1_555 1_555
O12_3 C17_3 1_555 1_555
O13_2 C18_2 1_555 1_555
O14_2 Co12_2 1_555 1_555
O15_2 Co13_2 1_555 1_555
O16_3 C17_3 1_555 1_555
O17_2 Co7_2 1_555 1_555
O18_2 Co4_2 1_555 1_555
O19_2 Co5_2 1_555 1_555
O20_2 Co1_2 1_555 1_555
O21_2 Co5_2 1_555 1_555
O22_2 Co4_2 1_555 1_555
O23_2 Co4_2 1_555 1_555
O24_2 Co1_2 1_555 1_555
O25_2 Co5_2 1_555 1_555
C17_3 C19_3 1_555 1_555
C18_2 O17_2 1_555 1_555
C19_3 C23_3 1_555 1_555
C20_2 C18_2 1_555 1_555
C21_3 C23_3 1_555 1_555
C22_2 C24_2 1_555 1_555
C23_3 H12_3 1_555 1_555
C24_2 C20_2 1_555 1_555
H13_2 C24_2 1_555 1_555
C25_3 O20_2 1_555 1_555
C26_2 O21_2 1_555 1_555
C27_3 C19_3 1_555 1_555
C28_2 C20_2 1_555 1_555
H14_3 C27_3 1_555 1_555
H15_2 C28_2 1_555 1_555
C29_3 C27_3 1_555 1_555
C30_2 C28_2 1_555 1_555
H16_3 C29_3 1_555 1_555
H17_2 C30_2 1_555 1_555
C31_3 C21_3 1_555 1_555
C32_2 C22_2 1_555 1_555
H18_3 C31_3 1_555 1_555
H19_2 C32_2 1_555 1_555
O26_2 C33_2 1_555 1_555
O28_2 Co1_2 1_555 1_555
O29_2 Co4_2 1_555 1_555
O30_2 Co5_2 1_555 1_555
O31_2 C33_2 1_555 1_555
O33_2 Co2_2 1_555 1_555
O34_2 Co12_2 1_555 1_555
O35_2 Co13_2 1_555 1_555
O36_2 Co3_2 1_555 1_555
O37_2 Co3_2 1_555 1_555
O38_2 Co12_2 1_555 1_555
O39_2 Co13_2 1_555 1_555
C33_2 C35_2 1_555 1_555
C35_2 C39_2 1_555 1_555
C36_2 C40_2 1_555 1_555
C37_2 C39_2 1_555 1_555
C38_2 C40_2 1_555 1_555
C39_2 H20_2 1_555 1_555
C40_2 H21_2 1_555 1_555
C41_2 O36_2 1_555 1_555
C42_2 O37_2 1_555 1_555
C43_2 C35_2 1_555 1_555
C44_2 C36_2 1_555 1_555
H22_2 C43_2 1_555 1_555
C45_2 C43_2 1_555 1_555
C46_2 C44_2 1_555 1_555
H24_2 C45_2 1_555 1_555
H25_2 C46_2 1_555 1_555
C47_2 C37_2 1_555 1_555
C48_2 C38_2 1_555 1_555
H26_2 C47_2 1_555 1_555
H27_2 C48_2 1_555 1_555
O3_2 C1_4 1_555 1_555
O9_2 C13_2 1_555 1_555
C11_2 C13_2 1_555 1_555
C15_2 C16_2 1_555 1_555
O23_2 C25_3 1_555 1_555
O24_2 C26_2 1_555 1_555
C21_3 C25_3 1_555 1_555
C22_2 C26_2 1_555 1_555
C29_3 C31_3 1_555 1_555
C30_2 C32_2 1_555 1_555
O38_2 C41_2 1_555 1_555
O39_2 C42_2 1_555 1_555
C37_2 C41_2 1_555 1_555
C38_2 C42_2 1_555 1_555
C45_2 C47_2 1_555 1_555
C46_2 C48_2 1_555 1_555
O4_4 C5_4 1_555 1_555
O5_4 C5_4 1_555 1_555
C5_4 C3_4 1_555 1_555
C7_4 C6_4 1_555 1_555
H4_4 C7_4 1_555 1_555
C8_4 C3_4 1_555 1_555
H5_4 C8_4 1_555 1_555
O6_2 C9_2 1_555 1_555
O7_2 C9_2 1_555 1_555
Co8_2 O6_2 1_555 1_555
Co14_2 O7_2 1_555 1_555
C7_4 C8_4 1_555 1_555
Co7_2 O10_3 1_555 1_555
Co10_3 O27_3 1_555 1_555
Co18_2 O10_3 1_555 1_555
Co16_3 O32_3 1_555 1_555
O10_3 Co3_3 1_555 1_555
O22_3 Co7_2 1_555 1_555
O27_3 C34_3 1_555 1_555
O29_3 Co7_2 1_555 1_555
O32_3 C34_3 1_555 1_555
O34_3 Co18_2 1_555 1_555
O37_3 Co3_3 1_555 1_555
O38_3 Co18_2 1_555 1_555
C34_3 C36_3 1_555 1_555
C36_3 C40_3 1_555 1_555
C38_3 C40_3 1_555 1_555
C40_3 H21_3 1_555 1_555
C42_3 O37_3 1_555 1_555
C44_3 C36_3 1_555 1_555
H23_3 C44_3 1_555 1_555
C46_3 C44_3 1_555 1_555
H25_3 C46_3 1_555 1_555
C48_3 C38_3 1_555 1_555
H27_3 C48_3 1_555 1_555
C38_3 C42_3 1_555 1_555
C46_3 C48_3 1_555 1_555
Co9_3 O26_3 1_555 1_555
Co15_3 O31_3 1_555 1_555
O26_3 C33_3 1_555 1_555
O31_3 C33_3 1_555 1_555
O36_3 Co3_4 1_555 1_555
C33_3 C35_3 1_555 1_555
C35_3 C39_3 1_555 1_555
C37_3 C39_3 1_555 1_555
C39_3 H20_3 1_555 1_555
C41_3 O36_3 1_555 1_555
C43_3 C35_3 1_555 1_555
H22_3 C43_3 1_555 1_555
C45_3 C43_3 1_555 1_555
C47_3 C37_3 1_555 1_555
C37_3 C41_3 1_555 1_555
C45_3 C47_3 1_555 1_555
Co5_3 O11_3 1_555 1_555
Co13_3 O11_3 1_555 1_555
O11_3 Co3_5 1_555 1_555
O15_3 Co13_3 1_555 1_555
O19_3 Co5_3 1_555 1_555
O35_3 Co13_3 1_555 1_555
O39_3 Co13_3 1_555 1_555
Co11_2 O1_3 1_555 1_555
Co17_3 O1_3 1_555 1_555
Co3_6 O1_3 1_555 1_555
O1_3 H1_3 1_555 1_555
O6_3 C9_3 1_555 1_555
O7_3 C9_3 1_555 1_555
O8_3 Co3_6 1_555 1_555
O9_3 Co17_3 1_555 1_555
C9_3 C10_3 1_555 1_555
C10_3 C12_3 1_555 1_555
C11_3 C12_3 1_555 1_555
C12_3 H6_3 1_555 1_555
C13_3 O8_3 1_555 1_555
C14_3 C10_3 1_555 1_555
H7_3 C14_3 1_555 1_555
C15_3 C14_3 1_555 1_555
C16_3 C11_3 1_555 1_555
Co8_3 O6_3 1_555 1_555
Co14_3 O7_3 1_555 1_555
O14_2 C18_3 1_555 1_555
O24_3 Co11_2 1_555 1_555
C18_3 O18_2 1_555 1_555
C20_3 C18_3 1_555 1_555
C22_3 C24_3 1_555 1_555
C24_3 C20_3 1_555 1_555
H13_3 C24_3 1_555 1_555
C26_3 O21_3 1_555 1_555
C28_3 C20_3 1_555 1_555
H15_3 C28_3 1_555 1_555
C30_3 C28_3 1_555 1_555
H17_3 C30_3 1_555 1_555
C32_3 C22_3 1_555 1_555
H19_3 C32_3 1_555 1_555
O33_3 Co17_3 1_555 1_555
O9_3 C13_3 1_555 1_555
C11_3 C13_3 1_555 1_555
C15_3 C16_3 1_555 1_555
O24_3 C26_3 1_555 1_555
C22_3 C26_3 1_555 1_555
C30_3 C32_3 1_555 1_555
C25_4 O22_3 1_555 1_555
C29_4 C27_4 1_555 1_555
H16_4 C29_4 1_555 1_555
C31_4 C21_4 1_555 1_555
H18_4 C31_4 1_555 1_555
O25_3 C25_4 1_555 1_555
C21_4 C25_4 1_555 1_555
C29_4 C31_4 1_555 1_555
O15_2 C17_4 1_555 1_555
O19_2 C17_4 1_555 1_555
C17_4 C19_4 1_555 1_555
C19_4 C23_4 1_555 1_555
C23_4 H12_4 1_555 1_555
O22_2 C5_5 1_555 1_555
O25_2 C5_5 1_555 1_555
C1_5 O15_3 1_555 1_555
C2_5 C1_5 1_555 1_555
C3_5 C4_5 1_555 1_555
C4_5 C2_5 1_555 1_555
H2_5 C4_5 1_555 1_555
C5_5 C3_5 1_555 1_555
C6_5 C2_5 1_555 1_555
H3_5 C6_5 1_555 1_555
C7_5 C6_5 1_555 1_555
H4_5 C7_5 1_555 1_555
C8_5 C3_5 1_555 1_555
H5_5 C8_5 1_555 1_555
O19_3 C1_5 1_555 1_555
C7_5 C8_5 1_555 1_555
Co11_3 O16_4 1_555 1_555
Co15_4 O31_4 1_555 1_555
Co17_4 O12_4 1_555 1_555
Co1_3 O1_4 1_555 1_555
Co2_3 O1_4 1_555 1_555
Co3_7 O1_4 1_555 1_555
O1_4 H1_4 1_555 1_555
O2_3 Co2_3 1_555 1_555
O3_3 Co1_3 1_555 1_555
O6_4 C9_4 1_555 1_555
O8_4 Co3_7 1_555 1_555
O9_4 Co2_3 1_555 1_555
C9_4 C10_4 1_555 1_555
C10_4 C12_4 1_555 1_555
C11_4 C12_4 1_555 1_555
C12_4 H6_4 1_555 1_555
C13_4 O8_4 1_555 1_555
C14_4 C10_4 1_555 1_555
H7_4 C14_4 1_555 1_555
C15_4 C14_4 1_555 1_555
H8_4 C15_4 1_555 1_555
C16_4 C11_4 1_555 1_555
H9_4 C16_4 1_555 1_555
Co4_3 O10_4 1_555 1_555
Co5_4 O11_4 1_555 1_555
Co10_4 O27_4 1_555 1_555
Co12_3 O10_4 1_555 1_555
Co13_4 O11_4 1_555 1_555
Co16_4 O32_4 1_555 1_555
O10_4 Co3_7 1_555 1_555
O11_4 Co3_7 1_555 1_555
H10_4 O10_4 1_555 1_555
H11_4 O11_4 1_555 1_555
O14_3 Co12_3 1_555 1_555
O15_4 Co13_4 1_555 1_555
O18_3 Co4_3 1_555 1_555
O19_4 Co5_4 1_555 1_555
O20_3 Co1_3 1_555 1_555
O21_4 Co5_4 1_555 1_555
O22_4 Co4_3 1_555 1_555
O23_3 Co4_3 1_555 1_555
O24_4 Co1_3 1_555 1_555
O25_4 Co5_4 1_555 1_555
C17_5 C19_5 1_555 1_555
C19_5 C23_5 1_555 1_555
C20_4 C18_4 1_555 1_555
C21_5 C23_5 1_555 1_555
C22_4 C24_4 1_555 1_555
C23_5 H12_5 1_555 1_555
C24_4 C20_4 1_555 1_555
H13_4 C24_4 1_555 1_555
C25_5 O20_3 1_555 1_555
C26_4 O21_4 1_555 1_555
C27_5 C19_5 1_555 1_555
C28_4 C20_4 1_555 1_555
H14_5 C27_5 1_555 1_555
H15_4 C28_4 1_555 1_555
C29_5 C27_5 1_555 1_555
C30_4 C28_4 1_555 1_555
H16_5 C29_5 1_555 1_555
H17_4 C30_4 1_555 1_555
C31_5 C21_5 1_555 1_555
C32_4 C22_4 1_555 1_555
H18_5 C31_5 1_555 1_555
H19_4 C32_4 1_555 1_555
O26_4 C33_4 1_555 1_555
O27_4 C34_4 1_555 1_555
O28_4 Co1_3 1_555 1_555
O29_4 Co4_3 1_555 1_555
O30_4 Co5_4 1_555 1_555
O32_4 C34_4 1_555 1_555
O33_4 Co2_3 1_555 1_555
O34_4 Co12_3 1_555 1_555
O35_4 Co13_4 1_555 1_555
O36_4 Co3_7 1_555 1_555
O37_4 Co3_7 1_555 1_555
O38_4 Co12_3 1_555 1_555
O39_4 Co13_4 1_555 1_555
C33_4 C35_4 1_555 1_555
C34_4 C36_4 1_555 1_555
C35_4 C39_4 1_555 1_555
C36_4 C40_4 1_555 1_555
C37_4 C39_4 1_555 1_555
C38_4 C40_4 1_555 1_555
C39_4 H20_4 1_555 1_555
C40_4 H21_4 1_555 1_555
C41_4 O36_4 1_555 1_555
C42_4 O37_4 1_555 1_555
C43_4 C35_4 1_555 1_555
C44_4 C36_4 1_555 1_555
H22_4 C43_4 1_555 1_555
H23_4 C44_4 1_555 1_555
C45_4 C43_4 1_555 1_555
C46_4 C44_4 1_555 1_555
H24_4 C45_4 1_555 1_555
H25_4 C46_4 1_555 1_555
C47_4 C37_4 1_555 1_555
C48_4 C38_4 1_555 1_555
H26_4 C47_4 1_555 1_555
H27_4 C48_4 1_555 1_555
O9_4 C13_4 1_555 1_555
C11_4 C13_4 1_555 1_555
C15_4 C16_4 1_555 1_555
O23_3 C25_5 1_555 1_555
O24_4 C26_4 1_555 1_555
C21_5 C25_5 1_555 1_555
C22_4 C26_4 1_555 1_555
C29_5 C31_5 1_555 1_555
C30_4 C32_4 1_555 1_555
O38_4 C41_4 1_555 1_555
O39_4 C42_4 1_555 1_555
C37_4 C41_4 1_555 1_555
C38_4 C42_4 1_555 1_555
C45_4 C47_4 1_555 1_555
C46_4 C48_4 1_555 1_555
O4_5 C5_6 1_555 1_555
O5_5 C5_6 1_555 1_555
C2_6 C1_6 1_555 1_555
C3_6 C4_6 1_555 1_555
C4_6 C2_6 1_555 1_555
H2_6 C4_6 1_555 1_555
C5_6 C3_6 1_555 1_555
C6_6 C2_6 1_555 1_555
H3_6 C6_6 1_555 1_555
C7_6 C6_6 1_555 1_555
H4_6 C7_6 1_555 1_555
C8_6 C3_6 1_555 1_555
H5_6 C8_6 1_555 1_555
Co11_3 O4_5 1_555 1_555
Co7_3 O5_5 1_555 1_555
Co14_4 O7_4 1_555 1_555
Co18_3 O13_3 1_555 1_555
O17_3 Co7_3 1_555 1_555
C7_6 C8_6 1_555 1_555
Co15_5 O31_5 1_555 1_555
Co11_3 O1_5 1_555 1_555
Co17_4 O1_5 1_555 1_555
Co3_8 O1_5 1_555 1_555
O1_5 H1_5 1_555 1_555
O6_5 C9_5 1_555 1_555
O8_5 Co3_8 1_555 1_555
O9_5 Co17_4 1_555 1_555
C9_5 C10_5 1_555 1_555
C10_5 C12_5 1_555 1_555
C11_5 C12_5 1_555 1_555
C12_5 H6_5 1_555 1_555
C13_5 O8_5 1_555 1_555
C14_5 C10_5 1_555 1_555
H7_5 C14_5 1_555 1_555
C15_5 C14_5 1_555 1_555
H8_5 C15_5 1_555 1_555
C16_5 C11_5 1_555 1_555
H9_5 C16_5 1_555 1_555
Co7_3 O10_5 1_555 1_555
Co5_5 O11_5 1_555 1_555
Co10_5 O27_5 1_555 1_555
Co18_3 O10_5 1_555 1_555
Co13_5 O11_5 1_555 1_555
Co16_5 O32_5 1_555 1_555
O10_5 Co3_8 1_555 1_555
O11_5 Co3_8 1_555 1_555
H10_5 O10_5 1_555 1_555
H11_5 O11_5 1_555 1_555
O15_5 Co13_5 1_555 1_555
O19_5 Co5_5 1_555 1_555
O21_5 Co5_5 1_555 1_555
O22_5 Co7_3 1_555 1_555
O24_5 Co11_3 1_555 1_555
O25_5 Co5_5 1_555 1_555
C20_5 C18_5 1_555 1_555
C22_5 C24_5 1_555 1_555
C24_5 C20_5 1_555 1_555
H13_5 C24_5 1_555 1_555
C26_5 O21_5 1_555 1_555
C28_5 C20_5 1_555 1_555
H15_5 C28_5 1_555 1_555
C30_5 C28_5 1_555 1_555
H17_5 C30_5 1_555 1_555
C32_5 C22_5 1_555 1_555
H19_5 C32_5 1_555 1_555
O26_5 C33_5 1_555 1_555
O27_5 C34_5 1_555 1_555
O28_5 Co11_3 1_555 1_555
O29_5 Co7_3 1_555 1_555
O30_5 Co5_5 1_555 1_555
O32_5 C34_5 1_555 1_555
O33_5 Co17_4 1_555 1_555
O34_5 Co18_3 1_555 1_555
O35_5 Co13_5 1_555 1_555
O36_5 Co3_8 1_555 1_555
O37_5 Co3_8 1_555 1_555
O38_5 Co18_3 1_555 1_555
O39_5 Co13_5 1_555 1_555
C33_5 C35_5 1_555 1_555
C34_5 C36_5 1_555 1_555
C35_5 C39_5 1_555 1_555
C36_5 C40_5 1_555 1_555
C37_5 C39_5 1_555 1_555
C38_5 C40_5 1_555 1_555
C39_5 H20_5 1_555 1_555
C40_5 H21_5 1_555 1_555
C41_5 O36_5 1_555 1_555
C42_5 O37_5 1_555 1_555
C43_5 C35_5 1_555 1_555
C44_5 C36_5 1_555 1_555
H22_5 C43_5 1_555 1_555
H23_5 C44_5 1_555 1_555
C45_5 C43_5 1_555 1_555
C46_5 C44_5 1_555 1_555
H24_5 C45_5 1_555 1_555
H25_5 C46_5 1_555 1_555
C47_5 C37_5 1_555 1_555
C48_5 C38_5 1_555 1_555
H26_5 C47_5 1_555 1_555
H27_5 C48_5 1_555 1_555
O9_5 C13_5 1_555 1_555
C11_5 C13_5 1_555 1_555
C15_5 C16_5 1_555 1_555
O24_5 C26_5 1_555 1_555
C22_5 C26_5 1_555 1_555
C30_5 C32_5 1_555 1_555
O38_5 C41_5 1_555 1_555
O39_5 C42_5 1_555 1_555
C37_5 C41_5 1_555 1_555
C38_5 C42_5 1_555 1_555
C45_5 C47_5 1_555 1_555
C46_5 C48_5 1_555 1_555
Co14_5 O7_5 1_555 1_555
Co7 O10_6 1_555 1_555
Co10_6 O27_6 1_555 1_555
Co18 O10_6 1_555 1_555
Co16_6 O32_6 1_555 1_555
O10_6 Co3_9 1_555 1_555
O27_6 C34_6 1_555 1_555
O29_6 Co7 1_555 1_555
O32_6 C34_6 1_555 1_555
O34_6 Co18 1_555 1_555
O37_6 Co3_9 1_555 1_555
O38_6 Co18 1_555 1_555
C34_6 C36_6 1_555 1_555
C36_6 C40_6 1_555 1_555
C38_6 C40_6 1_555 1_555
C40_6 H21_6 1_555 1_555
C42_6 O37_6 1_555 1_555
C44_6 C36_6 1_555 1_555
H23_6 C44_6 1_555 1_555
C46_6 C44_6 1_555 1_555
H25_6 C46_6 1_555 1_555
C48_6 C38_6 1_555 1_555
H27_6 C48_6 1_555 1_555
C38_6 C42_6 1_555 1_555
C46_6 C48_6 1_555 1_555
Co6 O11_6 1_555 1_555
Co17_2 O11_6 1_555 1_555
O11_6 Co3_10 1_555 1_555
O35_6 Co17_2 1_555 1_555
O39_6 Co17_2 1_555 1_555
Co9_6 O26_6 1_555 1_555
Co15_6 O31_6 1_555 1_555
O26_6 C33_6 1_555 1_555
O31_6 C33_6 1_555 1_555
O36_6 Co3_11 1_555 1_555
C33_6 C35_6 1_555 1_555
C35_6 C39_6 1_555 1_555
C37_6 C39_6 1_555 1_555
C39_6 H20_6 1_555 1_555
C41_6 O36_6 1_555 1_555
C43_6 C35_6 1_555 1_555
H22_6 C43_6 1_555 1_555
C45_6 C43_6 1_555 1_555
C47_6 C37_6 1_555 1_555
C37_6 C41_6 1_555 1_555
C45_6 C47_6 1_555 1_555
Co11 O1_6 1_555 1_555
Co17 O1_6 1_555 1_555
Co3_12 O1_6 1_555 1_555
O1_6 H1_6 1_555 1_555
O6_6 C9_6 1_555 1_555
O7_6 C9_6 1_555 1_555
O8_6 Co3_12 1_555 1_555
O9_6 Co17 1_555 1_555
C9_6 C10_6 1_555 1_555
C10_6 C12_6 1_555 1_555
C11_6 C12_6 1_555 1_555
C12_6 H6_6 1_555 1_555
C13_6 O8_6 1_555 1_555
C14_6 C10_6 1_555 1_555
H7_6 C14_6 1_555 1_555
C15_6 C14_6 1_555 1_555
C16_6 C11_6 1_555 1_555
Co8_6 O6_6 1_555 1_555
Co14_6 O7_6 1_555 1_555
O33_6 Co17 1_555 1_555
O9_6 C13_6 1_555 1_555
C11_6 C13_6 1_555 1_555
C15_6 C16_6 1_555 1_555
O15_4 C17_6 1_555 1_555
O19_4 C17_6 1_555 1_555
C17_6 C19_6 1_555 1_555
C19_6 C23_6 1_555 1_555
C21_6 C23_6 1_555 1_555
C23_6 H12_6 1_555 1_555
C25_6 O22_5 1_555 1_555
C27_6 C19_6 1_555 1_555
H14_6 C27_6 1_555 1_555
C29_6 C27_6 1_555 1_555
H16_6 C29_6 1_555 1_555
C31_6 C21_6 1_555 1_555
H18_6 C31_6 1_555 1_555
O25_5 C25_6 1_555 1_555
C21_6 C25_6 1_555 1_555
C29_6 C31_6 1_555 1_555
O22_4 C5_7 1_555 1_555
O25_4 C5_7 1_555 1_555
C1_7 O15_5 1_555 1_555
C2_7 C1_7 1_555 1_555
C3_7 C4_7 1_555 1_555
C4_7 C2_7 1_555 1_555
H2_7 C4_7 1_555 1_555
C5_7 C3_7 1_555 1_555
C6_7 C2_7 1_555 1_555
H3_7 C6_7 1_555 1_555
C7_7 C6_7 1_555 1_555
H4_7 C7_7 1_555 1_555
C8_7 C3_7 1_555 1_555
H5_7 C8_7 1_555 1_555
O19_5 C1_7 1_555 1_555
C7_7 C8_7 1_555 1_555
O30 C9_7 1_555 1_555
O35 C9_7 1_555 1_555
O4_6 C5_8 1_555 1_555
O5_6 C5_8 1_555 1_555
C5_8 C3_8 1_555 1_555
C7_8 C6_8 1_555 1_555
H4_8 C7_8 1_555 1_555
C8_8 C3_8 1_555 1_555
H5_8 C8_8 1_555 1_555
C7_8 C8_8 1_555 1_555
C10_7 C12_7 1_555 1_555
C11_7 C12_7 1_555 1_555
C12_7 H6_7 1_555 1_555
C14_7 C10_7 1_555 1_555
C15_7 C14_7 1_555 1_555
H8_7 C15_7 1_555 1_555
C16_7 C11_7 1_555 1_555
H9_7 C16_7 1_555 1_555
O28 C33_7 1_555 1_555
O33 C33_7 1_555 1_555
C33_7 C35_7 1_555 1_555
C35_7 C39_7 1_555 1_555
C36_7 C40_7 1_555 1_555
C37_7 C39_7 1_555 1_555
C38_7 C40_7 1_555 1_555
C39_7 H20_7 1_555 1_555
C40_7 H21_7 1_555 1_555
C43_7 C35_7 1_555 1_555
C44_7 C36_7 1_555 1_555
H22_7 C43_7 1_555 1_555
C45_7 C43_7 1_555 1_555
C46_7 C44_7 1_555 1_555
H24_7 C45_7 1_555 1_555
H25_7 C46_7 1_555 1_555
C47_7 C37_7 1_555 1_555
C48_7 C38_7 1_555 1_555
H26_7 C47_7 1_555 1_555
H27_7 C48_7 1_555 1_555
C15_7 C16_7 1_555 1_555
C45_7 C47_7 1_555 1_555
C46_7 C48_7 1_555 1_555
Co9 O1_7 1_555 1_555
Co15 O1_7 1_555 1_555
Co3_13 O1_7 1_555 1_555
O1_7 H1_7 1_555 1_555
O2_4 Co15 1_555 1_555
O3_4 Co9 1_555 1_555
C1_8 O2_4 1_555 1_555
C2_8 C1_8 1_555 1_555
C4_8 C2_8 1_555 1_555
H2_8 C4_8 1_555 1_555
O8_7 Co3_13 1_555 1_555
O9_7 Co15 1_555 1_555
C13_7 O8_7 1_555 1_555
Co10 O10_7 1_555 1_555
Co8 O11_7 1_555 1_555
Co9_4 O16_5 1_555 1_555
Co16 O10_7 1_555 1_555
Co14 O11_7 1_555 1_555
Co15_4 O12_5 1_555 1_555
Co16_4 O13_4 1_555 1_555
O10_7 Co3_13 1_555 1_555
O11_7 Co3_13 1_555 1_555
H10_7 O10_7 1_555 1_555
H11_7 O11_7 1_555 1_555
O12_5 C17_7 1_555 1_555
O13_4 C18_6 1_555 1_555
O14_4 Co16 1_555 1_555
O15_6 Co14 1_555 1_555
O16_5 C17_7 1_555 1_555
O17_4 Co10_4 1_555 1_555
O18_4 Co10 1_555 1_555
O19_6 Co8 1_555 1_555
O20_4 Co9 1_555 1_555
O21_6 Co8 1_555 1_555
O22_6 Co10 1_555 1_555
O23_4 Co10 1_555 1_555
O24_6 Co9 1_555 1_555
O25_6 Co8 1_555 1_555
C17_7 C19_7 1_555 1_555
C18_6 O17_4 1_555 1_555
C19_7 C23_7 1_555 1_555
C20_6 C18_6 1_555 1_555
C21_7 C23_7 1_555 1_555
C22_6 C24_6 1_555 1_555
C23_7 H12_7 1_555 1_555
C24_6 C20_6 1_555 1_555
H13_6 C24_6 1_555 1_555
C25_7 O20_4 1_555 1_555
C26_6 O21_6 1_555 1_555
C27_7 C19_7 1_555 1_555
C28_6 C20_6 1_555 1_555
H14_7 C27_7 1_555 1_555
H15_6 C28_6 1_555 1_555
C29_7 C27_7 1_555 1_555
C30_6 C28_6 1_555 1_555
H16_7 C29_7 1_555 1_555
H17_6 C30_6 1_555 1_555
C31_7 C21_7 1_555 1_555
C32_6 C22_6 1_555 1_555
H18_7 C31_7 1_555 1_555
H19_6 C32_6 1_555 1_555
O36_7 Co3_13 1_555 1_555
O37_7 Co3_13 1_555 1_555
O38_7 Co16 1_555 1_555
O39_7 Co14 1_555 1_555
C41_7 O36_7 1_555 1_555
C42_7 O37_7 1_555 1_555
O3_4 C1_8 1_555 1_555
O9_7 C13_7 1_555 1_555
O23_4 C25_7 1_555 1_555
O24_6 C26_6 1_555 1_555
C21_7 C25_7 1_555 1_555
C22_6 C26_6 1_555 1_555
C29_7 C31_7 1_555 1_555
C30_6 C32_6 1_555 1_555
O38_7 C41_7 1_555 1_555
O39_7 C42_7 1_555 1_555
O29 C34_7 1_555 1_555
O34 C34_7 1_555 1_555
O4_7 C5_9 1_555 1_555
O5_7 C5_9 1_555 1_555
C1_9 O14_4 1_555 1_555
C2_9 C1_9 1_555 1_555
C3_9 C4_9 1_555 1_555
C4_9 C2_9 1_555 1_555
H2_9 C4_9 1_555 1_555
C5_9 C3_9 1_555 1_555
C6_9 C2_9 1_555 1_555
H3_9 C6_9 1_555 1_555
C7_9 C6_9 1_555 1_555
H4_9 C7_9 1_555 1_555
C8_9 C3_9 1_555 1_555
H5_9 C8_9 1_555 1_555
Co9_4 O5_7 1_555 1_555
Co8_4 O16_6 1_555 1_555
Co14_4 O12_6 1_555 1_555
O12_6 C17_8 1_555 1_555
O16_6 C17_8 1_555 1_555
C17_8 C19_8 1_555 1_555
C19_8 C23_8 1_555 1_555
C21_8 C23_8 1_555 1_555
C23_8 H12_8 1_555 1_555
C25_8 O22_6 1_555 1_555
C27_8 C19_8 1_555 1_555
H14_8 C27_8 1_555 1_555
C29_8 C27_8 1_555 1_555
H16_8 C29_8 1_555 1_555
C31_8 C21_8 1_555 1_555
H18_8 C31_8 1_555 1_555
O18_4 C1_9 1_555 1_555
C7_9 C8_9 1_555 1_555
O25_6 C25_8 1_555 1_555
C21_8 C25_8 1_555 1_555
C29_8 C31_8 1_555 1_555
C1_10 O15_6 1_555 1_555
C2_10 C1_10 1_555 1_555
C4_10 C2_10 1_555 1_555
H2_10 C4_10 1_555 1_555
O19_6 C1_10 1_555 1_555
O4_8 C5_10 1_555 1_555
O5_8 C5_10 1_555 1_555
C5_10 C3_10 1_555 1_555
C7_10 C6_10 1_555 1_555
H4_10 C7_10 1_555 1_555
C8_10 C3_10 1_555 1_555
H5_10 C8_10 1_555 1_555
Co10_4 O4_8 1_555 1_555
C7_10 C8_10 1_555 1_555
O4_9 C5_11 1_555 1_555
O5_9 C5_11 1_555 1_555
C5_11 C3_11 1_555 1_555
C7_11 C6_11 1_555 1_555
H4_11 C7_11 1_555 1_555
C8_11 C3_11 1_555 1_555
H5_11 C8_11 1_555 1_555
O30_2 C9_8 1_555 1_555
O35_2 C9_8 1_555 1_555
C7_11 C8_11 1_555 1_555
Co9_2 O1_8 1_555 1_555
Co15_2 O1_8 1_555 1_555
Co3_14 O1_8 1_555 1_555
O1_8 H1_8 1_555 1_555
O2_5 Co15_2 1_555 1_555
O3_5 Co9_2 1_555 1_555
C1_11 O2_5 1_555 1_555
C2_11 C1_11 1_555 1_555
C4_11 C2_11 1_555 1_555
H2_11 C4_11 1_555 1_555
O8_8 Co3_14 1_555 1_555
O9_8 Co15_2 1_555 1_555
C10_8 C12_8 1_555 1_555
C11_8 C12_8 1_555 1_555
C12_8 H6_8 1_555 1_555
C13_8 O8_8 1_555 1_555
C14_8 C10_8 1_555 1_555
C15_8 C14_8 1_555 1_555
H8_8 C15_8 1_555 1_555
C16_8 C11_8 1_555 1_555
H9_8 C16_8 1_555 1_555
Co10_2 O10_8 1_555 1_555
Co8_2 O11_8 1_555 1_555
Co9_5 O16_7 1_555 1_555
Co16_2 O10_8 1_555 1_555
Co14_2 O11_8 1_555 1_555
Co15_5 O12_7 1_555 1_555
Co16_5 O13_5 1_555 1_555
O10_8 Co3_14 1_555 1_555
O11_8 Co3_14 1_555 1_555
H10_8 O10_8 1_555 1_555
H11_8 O11_8 1_555 1_555
O12_7 C17_9 1_555 1_555
O13_5 C18_7 1_555 1_555
O14_5 Co16_2 1_555 1_555
O15_7 Co14_2 1_555 1_555
O16_7 C17_9 1_555 1_555
O17_5 Co10_5 1_555 1_555
O18_5 Co10_2 1_555 1_555
O19_7 Co8_2 1_555 1_555
O20_5 Co9_2 1_555 1_555
O21_7 Co8_2 1_555 1_555
O22_7 Co10_2 1_555 1_555
O23_5 Co10_2 1_555 1_555
O24_7 Co9_2 1_555 1_555
O25_7 Co8_2 1_555 1_555
C17_9 C19_9 1_555 1_555
C18_7 O17_5 1_555 1_555
C19_9 C23_9 1_555 1_555
C20_7 C18_7 1_555 1_555
C21_9 C23_9 1_555 1_555
C22_7 C24_7 1_555 1_555
C23_9 H12_9 1_555 1_555
C24_7 C20_7 1_555 1_555
H13_7 C24_7 1_555 1_555
C25_9 O20_5 1_555 1_555
C26_7 O21_7 1_555 1_555
C27_9 C19_9 1_555 1_555
C28_7 C20_7 1_555 1_555
H14_9 C27_9 1_555 1_555
H15_7 C28_7 1_555 1_555
C29_9 C27_9 1_555 1_555
C30_7 C28_7 1_555 1_555
H16_9 C29_9 1_555 1_555
H17_7 C30_7 1_555 1_555
C31_9 C21_9 1_555 1_555
C32_7 C22_7 1_555 1_555
H18_9 C31_9 1_555 1_555
H19_7 C32_7 1_555 1_555
O28_2 C33_8 1_555 1_555
O33_2 C33_8 1_555 1_555
O36_8 Co3_14 1_555 1_555
O37_8 Co3_14 1_555 1_555
O38_8 Co16_2 1_555 1_555
O39_8 Co14_2 1_555 1_555
C33_8 C35_8 1_555 1_555
C35_8 C39_8 1_555 1_555
C36_8 C40_8 1_555 1_555
C37_8 C39_8 1_555 1_555
C38_8 C40_8 1_555 1_555
C39_8 H20_8 1_555 1_555
C40_8 H21_8 1_555 1_555
C41_8 O36_8 1_555 1_555
C42_8 O37_8 1_555 1_555
C43_8 C35_8 1_555 1_555
C44_8 C36_8 1_555 1_555
H22_8 C43_8 1_555 1_555
C45_8 C43_8 1_555 1_555
C46_8 C44_8 1_555 1_555
H24_8 C45_8 1_555 1_555
H25_8 C46_8 1_555 1_555
C47_8 C37_8 1_555 1_555
C48_8 C38_8 1_555 1_555
H26_8 C47_8 1_555 1_555
H27_8 C48_8 1_555 1_555
O3_5 C1_11 1_555 1_555
O9_8 C13_8 1_555 1_555
C11_8 C13_8 1_555 1_555
C15_8 C16_8 1_555 1_555
O23_5 C25_9 1_555 1_555
O24_7 C26_7 1_555 1_555
C21_9 C25_9 1_555 1_555
C22_7 C26_7 1_555 1_555
C29_9 C31_9 1_555 1_555
C30_7 C32_7 1_555 1_555
O38_8 C41_8 1_555 1_555
O39_8 C42_8 1_555 1_555
C37_8 C41_8 1_555 1_555
C38_8 C42_8 1_555 1_555
C45_8 C47_8 1_555 1_555
C46_8 C48_8 1_555 1_555
O29_2 C34_8 1_555 1_555
O34_2 C34_8 1_555 1_555
Co9_5 O1_9 1_555 1_555
Co15_5 O1_9 1_555 1_555
Co3_15 O1_9 1_555 1_555
O1_9 H1_9 1_555 1_555
O30_5 C9_9 1_555 1_555
O35_5 C9_9 1_555 1_555
O8_9 Co3_15 1_555 1_555
O9_9 Co15_5 1_555 1_555
C9_9 C10_9 1_555 1_555
C10_9 C12_9 1_555 1_555
C11_9 C12_9 1_555 1_555
C12_9 H6_9 1_555 1_555
C13_9 O8_9 1_555 1_555
C14_9 C10_9 1_555 1_555
H7_9 C14_9 1_555 1_555
C15_9 C14_9 1_555 1_555
C16_9 C11_9 1_555 1_555
O14_5 C18_8 1_555 1_555
O24_8 Co9_5 1_555 1_555
C18_8 O18_5 1_555 1_555
C20_8 C18_8 1_555 1_555
C22_8 C24_8 1_555 1_555
C24_8 C20_8 1_555 1_555
H13_8 C24_8 1_555 1_555
C26_8 O21_8 1_555 1_555
C28_8 C20_8 1_555 1_555
H15_8 C28_8 1_555 1_555
C30_8 C28_8 1_555 1_555
H17_8 C30_8 1_555 1_555
C32_8 C22_8 1_555 1_555
H19_8 C32_8 1_555 1_555
O9_9 C13_9 1_555 1_555
C11_9 C13_9 1_555 1_555
C15_9 C16_9 1_555 1_555
O24_8 C26_8 1_555 1_555
C22_8 C26_8 1_555 1_555
C30_8 C32_8 1_555 1_555
Co8_5 O11_9 1_555 1_555
Co14_5 O11_9 1_555 1_555
O11_9 Co3_16 1_555 1_555
O15_8 Co14_5 1_555 1_555
O19_8 Co8_5 1_555 1_555
O39_9 Co14_5 1_555 1_555
O28_5 C33_9 1_555 1_555
O33_5 C33_9 1_555 1_555
O36_9 Co3_17 1_555 1_555
C33_9 C35_9 1_555 1_555
C35_9 C39_9 1_555 1_555
C37_9 C39_9 1_555 1_555
C39_9 H20_9 1_555 1_555
C41_9 O36_9 1_555 1_555
C43_9 C35_9 1_555 1_555
H22_9 C43_9 1_555 1_555
C45_9 C43_9 1_555 1_555
C47_9 C37_9 1_555 1_555
C37_9 C41_9 1_555 1_555
C45_9 C47_9 1_555 1_555
Co10_5 O10_9 1_555 1_555
Co16_5 O10_9 1_555 1_555
O10_9 Co3_18 1_555 1_555
O22_8 Co10_5 1_555 1_555
O29_5 C34_9 1_555 1_555
O34_5 C34_9 1_555 1_555
O37_9 Co3_18 1_555 1_555
O38_9 Co16_5 1_555 1_555
C34_9 C36_9 1_555 1_555
C36_9 C40_9 1_555 1_555
C38_9 C40_9 1_555 1_555
C40_9 H21_9 1_555 1_555
C42_9 O37_9 1_555 1_555
C44_9 C36_9 1_555 1_555
H23_9 C44_9 1_555 1_555
C46_9 C44_9 1_555 1_555
H25_9 C46_9 1_555 1_555
C48_9 C38_9 1_555 1_555
H27_9 C48_9 1_555 1_555
C38_9 C42_9 1_555 1_555
C46_9 C48_9 1_555 1_555
O15_7 C17_10 1_555 1_555
O19_7 C17_10 1_555 1_555
C17_10 C19_10 1_555 1_555
C19_10 C23_10 1_555 1_555
C23_10 H12_10 1_555 1_555
C25_10 O22_8 1_555 1_555
C29_10 C27_10 1_555 1_555
H16_10 C29_10 1_555 1_555
C31_10 C21_10 1_555 1_555
H18_10 C31_10 1_555 1_555
O25_8 C25_10 1_555 1_555
C21_10 C25_10 1_555 1_555
C29_10 C31_10 1_555 1_555
O22_7 C5_12 1_555 1_555
O25_7 C5_12 1_555 1_555
C1_12 O15_8 1_555 1_555
C2_12 C1_12 1_555 1_555
C3_12 C4_12 1_555 1_555
C4_12 C2_12 1_555 1_555
H2_12 C4_12 1_555 1_555
C5_12 C3_12 1_555 1_555
C6_12 C2_12 1_555 1_555
H3_12 C6_12 1_555 1_555
C7_12 C6_12 1_555 1_555
H4_12 C7_12 1_555 1_555
C8_12 C3_12 1_555 1_555
H5_12 C8_12 1_555 1_555
O19_8 C1_12 1_555 1_555
C7_12 C8_12 1_555 1_555
O4_10 C5_13 1_555 1_555
O5_10 C5_13 1_555 1_555
C2_13 C1_13 1_555 1_555
C3_13 C4_13 1_555 1_555
C4_13 C2_13 1_555 1_555
H2_13 C4_13 1_555 1_555
C5_13 C3_13 1_555 1_555
C6_13 C2_13 1_555 1_555
H3_13 C6_13 1_555 1_555
C7_13 C6_13 1_555 1_555
H4_13 C7_13 1_555 1_555
C8_13 C3_13 1_555 1_555
H5_13 C8_13 1_555 1_555
Co9_3 O4_10 1_555 1_555
Co10_3 O5_10 1_555 1_555
Co16_3 O13_6 1_555 1_555
O17_6 Co10_3 1_555 1_555
C7_13 C8_13 1_555 1_555
Co9_6 O1_10 1_555 1_555
Co15_6 O1_10 1_555 1_555
Co3_19 O1_10 1_555 1_555
O1_10 H1_10 1_555 1_555
O2_6 Co15_6 1_555 1_555
O3_6 Co9_6 1_555 1_555
O30_6 C9_10 1_555 1_555
O8_10 Co3_19 1_555 1_555
O9_10 Co15_6 1_555 1_555
C9_10 C10_10 1_555 1_555
C10_10 C12_10 1_555 1_555
C11_10 C12_10 1_555 1_555
C12_10 H6_10 1_555 1_555
C13_10 O8_10 1_555 1_555
C14_10 C10_10 1_555 1_555
H7_10 C14_10 1_555 1_555
C15_10 C14_10 1_555 1_555
H8_10 C15_10 1_555 1_555
C16_10 C11_10 1_555 1_555
H9_10 C16_10 1_555 1_555
Co10_6 O10_10 1_555 1_555
Co8_6 O11_10 1_555 1_555
Co16_6 O10_10 1_555 1_555
Co14_6 O11_10 1_555 1_555
O10_10 Co3_19 1_555 1_555
O11_10 Co3_19 1_555 1_555
H10_10 O10_10 1_555 1_555
H11_10 O11_10 1_555 1_555
O14_6 Co16_6 1_555 1_555
O15_9 Co14_6 1_555 1_555
O18_6 Co10_6 1_555 1_555
O19_9 Co8_6 1_555 1_555
O20_6 Co9_6 1_555 1_555
O21_9 Co8_6 1_555 1_555
O22_9 Co10_6 1_555 1_555
O23_6 Co10_6 1_555 1_555
O24_9 Co9_6 1_555 1_555
O25_9 Co8_6 1_555 1_555
C17_11 C19_11 1_555 1_555
C19_11 C23_11 1_555 1_555
C20_9 C18_9 1_555 1_555
C21_11 C23_11 1_555 1_555
C22_9 C24_9 1_555 1_555
C23_11 H12_11 1_555 1_555
C24_9 C20_9 1_555 1_555
H13_9 C24_9 1_555 1_555
C25_11 O20_6 1_555 1_555
C26_9 O21_9 1_555 1_555
C27_11 C19_11 1_555 1_555
C28_9 C20_9 1_555 1_555
H14_11 C27_11 1_555 1_555
H15_9 C28_9 1_555 1_555
C29_11 C27_11 1_555 1_555
C30_9 C28_9 1_555 1_555
H16_11 C29_11 1_555 1_555
H17_9 C30_9 1_555 1_555
C31_11 C21_11 1_555 1_555
C32_9 C22_9 1_555 1_555
H18_11 C31_11 1_555 1_555
H19_9 C32_9 1_555 1_555
O28_6 C33_10 1_555 1_555
O29_6 C34_10 1_555 1_555
O34_6 C34_10 1_555 1_555
O36_10 Co3_19 1_555 1_555
O37_10 Co3_19 1_555 1_555
O38_10 Co16_6 1_555 1_555
O39_10 Co14_6 1_555 1_555
C33_10 C35_10 1_555 1_555
C34_10 C36_10 1_555 1_555
C35_10 C39_10 1_555 1_555
C36_10 C40_10 1_555 1_555
C37_10 C39_10 1_555 1_555
C38_10 C40_10 1_555 1_555
C39_10 H20_10 1_555 1_555
C40_10 H21_10 1_555 1_555
C41_10 O36_10 1_555 1_555
C42_10 O37_10 1_555 1_555
C43_10 C35_10 1_555 1_555
C44_10 C36_10 1_555 1_555
H22_10 C43_10 1_555 1_555
H23_10 C44_10 1_555 1_555
C45_10 C43_10 1_555 1_555
C46_10 C44_10 1_555 1_555
H24_10 C45_10 1_555 1_555
H25_10 C46_10 1_555 1_555
C47_10 C37_10 1_555 1_555
C48_10 C38_10 1_555 1_555
H26_10 C47_10 1_555 1_555
H27_10 C48_10 1_555 1_555
O9_10 C13_10 1_555 1_555
C11_10 C13_10 1_555 1_555
C15_10 C16_10 1_555 1_555
O23_6 C25_11 1_555 1_555
O24_9 C26_9 1_555 1_555
C21_11 C25_11 1_555 1_555
C22_9 C26_9 1_555 1_555
C29_11 C31_11 1_555 1_555
C30_9 C32_9 1_555 1_555
O38_10 C41_10 1_555 1_555
O39_10 C42_10 1_555 1_555
C37_10 C41_10 1_555 1_555
C38_10 C42_10 1_555 1_555
C45_10 C47_10 1_555 1_555
C46_10 C48_10 1_555 1_555
Co9_3 O16_8 1_555 1_555
Co15_3 O12_8 1_555 1_555
Co9_3 O1_11 1_555 1_555
Co15_3 O1_11 1_555 1_555
Co3_20 O1_11 1_555 1_555
O1_11 H1_11 1_555 1_555
O30_3 C9_11 1_555 1_555
O8_11 Co3_20 1_555 1_555
O9_11 Co15_3 1_555 1_555
C9_11 C10_11 1_555 1_555
C10_11 C12_11 1_555 1_555
C11_11 C12_11 1_555 1_555
C12_11 H6_11 1_555 1_555
C13_11 O8_11 1_555 1_555
C14_11 C10_11 1_555 1_555
H7_11 C14_11 1_555 1_555
C15_11 C14_11 1_555 1_555
H8_11 C15_11 1_555 1_555
C16_11 C11_11 1_555 1_555
H9_11 C16_11 1_555 1_555
Co10_3 O10_11 1_555 1_555
Co8_3 O11_11 1_555 1_555
Co16_3 O10_11 1_555 1_555
Co14_3 O11_11 1_555 1_555
O10_11 Co3_20 1_555 1_555
O11_11 Co3_20 1_555 1_555
H10_11 O10_11 1_555 1_555
H11_11 O11_11 1_555 1_555
O15_10 Co14_3 1_555 1_555
O19_10 Co8_3 1_555 1_555
O21_10 Co8_3 1_555 1_555
O22_10 Co10_3 1_555 1_555
O24_10 Co9_3 1_555 1_555
O25_10 Co8_3 1_555 1_555
C20_10 C18_10 1_555 1_555
C22_10 C24_10 1_555 1_555
C24_10 C20_10 1_555 1_555
H13_10 C24_10 1_555 1_555
C26_10 O21_10 1_555 1_555
C28_10 C20_10 1_555 1_555
H15_10 C28_10 1_555 1_555
C30_10 C28_10 1_555 1_555
H17_10 C30_10 1_555 1_555
C32_10 C22_10 1_555 1_555
H19_10 C32_10 1_555 1_555
O28_3 C33_11 1_555 1_555
O29_3 C34_11 1_555 1_555
O34_3 C34_11 1_555 1_555
O36_11 Co3_20 1_555 1_555
O37_11 Co3_20 1_555 1_555
O38_11 Co16_3 1_555 1_555
O39_11 Co14_3 1_555 1_555
C33_11 C35_11 1_555 1_555
C34_11 C36_11 1_555 1_555
C35_11 C39_11 1_555 1_555
C36_11 C40_11 1_555 1_555
C37_11 C39_11 1_555 1_555
C38_11 C40_11 1_555 1_555
C39_11 H20_11 1_555 1_555
C40_11 H21_11 1_555 1_555
C41_11 O36_11 1_555 1_555
C42_11 O37_11 1_555 1_555
C43_11 C35_11 1_555 1_555
C44_11 C36_11 1_555 1_555
H22_11 C43_11 1_555 1_555
H23_11 C44_11 1_555 1_555
C45_11 C43_11 1_555 1_555
C46_11 C44_11 1_555 1_555
H24_11 C45_11 1_555 1_555
H25_11 C46_11 1_555 1_555
C47_11 C37_11 1_555 1_555
C48_11 C38_11 1_555 1_555
H26_11 C47_11 1_555 1_555
H27_11 C48_11 1_555 1_555
O9_11 C13_11 1_555 1_555
C11_11 C13_11 1_555 1_555
C15_11 C16_11 1_555 1_555
O24_10 C26_10 1_555 1_555
C22_10 C26_10 1_555 1_555
C30_10 C32_10 1_555 1_555
O38_11 C41_11 1_555 1_555
O39_11 C42_11 1_555 1_555
C37_11 C41_11 1_555 1_555
C38_11 C42_11 1_555 1_555
C45_11 C47_11 1_555 1_555
C46_11 C48_11 1_555 1_555
Co9_4 O1_12 1_555 1_555
Co15_4 O1_12 1_555 1_555
Co3_21 O1_12 1_555 1_555
O1_12 H1_12 1_555 1_555
O30_4 C9_12 1_555 1_555
O35_4 C9_12 1_555 1_555
O8_12 Co3_21 1_555 1_555
O9_12 Co15_4 1_555 1_555
C9_12 C10_12 1_555 1_555
C10_12 C12_12 1_555 1_555
C11_12 C12_12 1_555 1_555
C12_12 H6_12 1_555 1_555
C13_12 O8_12 1_555 1_555
C14_12 C10_12 1_555 1_555
H7_12 C14_12 1_555 1_555
C15_12 C14_12 1_555 1_555
C16_12 C11_12 1_555 1_555
O9_12 C13_12 1_555 1_555
C11_12 C13_12 1_555 1_555
C15_12 C16_12 1_555 1_555
O28_4 C33_12 1_555 1_555
O33_4 C33_12 1_555 1_555
O36_12 Co3_22 1_555 1_555
C33_12 C35_12 1_555 1_555
C35_12 C39_12 1_555 1_555
C37_12 C39_12 1_555 1_555
C39_12 H20_12 1_555 1_555
C41_12 O36_12 1_555 1_555
C43_12 C35_12 1_555 1_555
H22_12 C43_12 1_555 1_555
C45_12 C43_12 1_555 1_555
C47_12 C37_12 1_555 1_555
C37_12 C41_12 1_555 1_555
C45_12 C47_12 1_555 1_555
Co8_4 O11_12 1_555 1_555
Co14_4 O11_12 1_555 1_555
O11_12 Co3_23 1_555 1_555
O39_12 Co14_4 1_555 1_555
Co10_4 O10_12 1_555 1_555
Co16_4 O10_12 1_555 1_555
O10_12 Co3_24 1_555 1_555
O29_4 C34_12 1_555 1_555
O34_4 C34_12 1_555 1_555
O37_12 Co3_24 1_555 1_555
O38_12 Co16_4 1_555 1_555
C34_12 C36_12 1_555 1_555
C36_12 C40_12 1_555 1_555
C38_12 C40_12 1_555 1_555
C40_12 H21_12 1_555 1_555
C42_12 O37_12 1_555 1_555
C44_12 C36_12 1_555 1_555
H23_12 C44_12 1_555 1_555
C46_12 C44_12 1_555 1_555
H25_12 C46_12 1_555 1_555
C48_12 C38_12 1_555 1_555
H27_12 C48_12 1_555 1_555
C38_12 C42_12 1_555 1_555
C46_12 C48_12 1_555 1_555
O15_9 C17_12 1_555 1_555
O19_9 C17_12 1_555 1_555
C17_12 C19_12 1_555 1_555
C19_12 C23_12 1_555 1_555
C21_12 C23_12 1_555 1_555
C23_12 H12_12 1_555 1_555
C25_12 O22_10 1_555 1_555
C27_12 C19_12 1_555 1_555
H14_12 C27_12 1_555 1_555
C29_12 C27_12 1_555 1_555
H16_12 C29_12 1_555 1_555
C31_12 C21_12 1_555 1_555
H18_12 C31_12 1_555 1_555
O25_10 C25_12 1_555 1_555
C21_12 C25_12 1_555 1_555
C29_12 C31_12 1_555 1_555
O22_9 C5_14 1_555 1_555
O25_9 C5_14 1_555 1_555
C1_14 O15_10 1_555 1_555
C2_14 C1_14 1_555 1_555
C3_14 C4_14 1_555 1_555
C4_14 C2_14 1_555 1_555
H2_14 C4_14 1_555 1_555
C5_14 C3_14 1_555 1_555
C6_14 C2_14 1_555 1_555
H3_14 C6_14 1_555 1_555
C7_14 C6_14 1_555 1_555
H4_14 C7_14 1_555 1_555
C8_14 C3_14 1_555 1_555
H5_14 C8_14 1_555 1_555
O19_10 C1_14 1_555 1_555
C7_14 C8_14 1_555 1_555

#END
