
###############################################################################
#
# This file contains modified crystal structure data generated from the
# MOF subset of the Cambridge Structural Database (CSD) v543 
# hosted by the Cambridge Crystallographic Data Centre (CCDC).
#
# This work is licensed under the Creative Commons
# Attribution-NonCommercial-ShareAlike 4.0 International License.
# To view a copy of this license, visit
# http://creativecommons.org/licenses/by-nc-sa/4.0/
# or send a letter to
# Creative Commons, PO Box 1866, Mountain View, CA 94042, USA.
#
# CIF created using the CSD Python API on 29 September 2022
# The structure has been converted into the P1 space group
# The structure has a 3D framework
# The original CSD entry KIXXIB is in the monoclinic crystal system
# The framework has been calculated to contain at least 10.0% void space
# The void calculation uses a probe of radius 1.32A, grid spacing 0.4
#
###############################################################################

data_KIXXIB
_chemical_formula_moiety         '(C216 H160 Cd8 N48 O38)n'
_symmetry_cell_setting           triclinic
_symmetry_space_group_name_H-M   'P 1'
_symmetry_Int_Tables_number      1
_space_group_name_Hall           'P 1'
loop_
_symmetry_equiv_pos_site_id
_symmetry_equiv_pos_as_xyz
1 x,y,z
_cell_length_a                   10.6167(2)
_cell_length_b                   27.4477(5)
_cell_length_c                   21.8619(4)
_cell_angle_alpha                90
_cell_angle_beta                 96.853(2)
_cell_angle_gamma                90
_cell_volume                     6325.13
loop_
_atom_site_label
_atom_site_type_symbol
_atom_site_fract_x
_atom_site_fract_y
_atom_site_fract_z
Cd2 Cd 0.16079(3) 0.49594(2) 0.37691(2)
N1 N 0.4456(3) 0.79236(13) 0.54366(16)
N2 N 0.4404(3) 0.70581(13) 0.54836(16)
N3 N 0.3591(3) 0.74673(13) 0.45640(17)
N4 N 0.2622(4) 0.57059(13) 0.40746(18)
N5 N 0.2957(3) 0.92187(13) 0.38951(17)
N6 N 0.6546(4) 0.75443(15) 0.75849(17)
N7 N 0.0781(3) 0.42235(13) 0.32911(17)
N8 N 0.0097(3) 0.24720(13) 0.26610(17)
N11 N 0.1102(4) 0.07079(14) 0.31354(19)
O1 O 0.0939(4) 0.49078(13) 0.46889(19)
O2 O 0.2491(4) 0.44139(19) 0.5107(2)
O3 O 0.0858(3) 0.46150(14) 0.79343(15)
O4 O 0.2881(9) 0.4890(4) 0.2823(5)
H1 H 0.363186 0.478856 0.292919
H2 H 0.247297 0.469666 0.256769
O5 O 0.3451(4) 0.45496(15) 0.3985(3)
H3 H 0.408378 0.472697 0.392951
H4 H 0.348468 0.447337 0.436331
O7 O 0.1927(3) 0.03724(12) 0.75119(15)
O8 O 0.0282(3) 0.04409(14) 0.80275(15)
O10 O 0.2562(3) 0.03722(12) 0.44834(14)
C1 C 0.2517(4) 0.61233(17) 0.3747(2)
H5 H 0.215372 0.611038 0.333893
C2 C 0.3186(5) 0.57314(16) 0.4655(2)
H6 H 0.328111 0.544545 0.488430
C3 C 0.3635(4) 0.61611(16) 0.4932(2)
H7 H 0.403445 0.616035 0.533444
C4 C 0.3484(4) 0.65905(15) 0.4604(2)
C5 C 0.2924(4) 0.65704(16) 0.39894(19)
H8 H 0.282752 0.685119 0.375022
C6 C 0.3855(4) 0.70678(15) 0.4897(2)
C7 C 0.4691(4) 0.74976(16) 0.5724(2)
C8 C 0.3903(4) 0.78806(15) 0.4853(2)
C9 C 0.5585(4) 0.70914(17) 0.6702(2)
H9 H 0.536069 0.678890 0.653067
C10 C 0.6196(5) 0.71290(19) 0.7300(2)
H10 H 0.637314 0.684107 0.751794
C11 C 0.6278(4) 0.79487(19) 0.7256(2)
H11 H 0.651401 0.824578 0.743947
C12 C 0.5669(4) 0.79546(17) 0.6656(2)
H12 H 0.549732 0.824850 0.645105
C13 C 0.5321(4) 0.75169(16) 0.63673(19)
C14 C 0.3606(4) 0.83468(15) 0.4510(2)
C15 C 0.2969(4) 0.83437(15) 0.39160(19)
H13 H 0.275234 0.805103 0.371625
C16 C 0.2667(4) 0.87804(16) 0.3630(2)
H14 H 0.223931 0.877523 0.323333
C17 C 0.3590(4) 0.92159(16) 0.4461(2)
H15 H 0.381533 0.951324 0.464713
C18 C 0.3927(4) 0.87930(16) 0.4786(2)
H16 H 0.435994 0.880738 0.518157
C19 C 0.0090(5) 0.42187(17) 0.2738(2)
C21 C 0.0079(4) 0.33475(16) 0.2699(2)
C22 C 0.0787(4) 0.33517(17) 0.3269(2)
H19 H 0.104229 0.306117 0.346488
C23 C 0.1116(4) 0.37986(16) 0.3549(2)
H20 H 0.159248 0.379810 0.393477
C32 C 0.0186(4) 0.15932(16) 0.2627(2)
C33 C 0.0832(4) 0.15676(16) 0.3220(2)
H25 H 0.097004 0.184793 0.345705
C34 C 0.1270(4) 0.11191(16) 0.3452(2)
H26 H 0.169981 0.110721 0.384849
C35 C 0.0456(6) 0.07320(19) 0.2570(2)
H27 H 0.031285 0.044415 0.234818
C37 C 0.1482(5) 0.46459(18) 0.5120(2)
C38 C 0.0831(4) 0.46074(15) 0.56956(19)
C40 C 0.1334(5) 0.43018(16) 0.6168(2)
H30 H 0.208885 0.413751 0.613356
C41 C 0.0729(5) 0.42374(16) 0.6692(2)
H31 H 0.108893 0.403305 0.700420
C45 C 0.1581(4) 0.02037(15) 0.4674(2)
C46 C 0.1242(4) 0.03332(15) 0.5295(2)
C47 C 0.1861(4) 0.07213(16) 0.5609(2)
H35 H 0.252122 0.088067 0.544884
C48 C 0.0264(5) 0.00900(18) 0.5546(3)
C49 C 0.1475(4) 0.08681(17) 0.6169(2)
H37 H 0.188587 0.112667 0.638367
C51 C 0.0477(5) 0.06305(17) 0.6412(2)
C52 C 0.0820(4) 0.05120(14) 0.7556(2)
C53 C 0.0078(5) 0.07753(17) 0.7029(2)
H40 H 0.019484 0.112348 0.708573
Cd3 Cd 0.21400(3) 0.99718(2) 0.35207(2)
Cd4 Cd 0.21400(3) 0.00282(2) 0.85207(2)
Cd6 Cd 0.16079(3) 0.50406(2) 0.87691(2)
O11 O 0.0858(3) 0.53850(14) 0.29343(15)
O12 O 0.4103(3) 0.02715(11) 0.33536(14)
O9 O 0.0835(4) 0.99098(12) 0.43405(19)
O13 O 0.1927(3) 0.96276(12) 0.25119(15)
O14 O 0.0282(3) 0.95591(14) 0.30275(15)
N9 N 0.9102(3) 0.29125(14) 0.18008(17)
N10 N 0.9163(3) 0.20505(13) 0.17718(17)
O6 O 0.9103(3) 0.47285(11) 0.83536(14)
H17 H 0.984542 0.451466 0.255401
C20 C 0.9723(4) 0.37938(17) 0.2430(2)
H18 H 0.924306 0.380561 0.204519
C24 C 0.9729(4) 0.28859(16) 0.23663(19)
C25 C 0.9776(4) 0.20649(16) 0.2339(2)
C26 C 0.8853(4) 0.24863(15) 0.1517(2)
C27 C 0.8194(4) 0.24869(17) 0.0876(2)
C28 C 0.7841(4) 0.29237(17) 0.0580(2)
H21 H 0.803032 0.322078 0.077349
C31 C 0.7891(4) 0.20572(17) 0.0557(2)
H24 H 0.811679 0.175802 0.073737
C36 C 0.9992(5) 0.11598(18) 0.2300(2)
H28 H 0.955596 0.115864 0.190462
C39 C 0.9704(4) 0.48517(16) 0.5770(2)
H29 H 0.935655 0.506423 0.546370
C42 C 0.9093(4) 0.47840(15) 0.6289(2)
H32 H 0.834003 0.494914 0.632263
C43 C 0.9585(4) 0.44750(15) 0.6757(2)
C44 C 0.8921(4) 0.44076(16) 0.73188(19)
H33 H 0.875555 0.406322 0.736849
H34 H 0.810876 0.457321 0.725492
C50 C 0.9875(4) 0.02335(16) 0.6093(2)
H38 H 0.921861 0.007009 0.625122
H39 H 0.918239 0.070488 0.702946
C54 C 0.9666(5) 0.45993(15) 0.7915(2)
Cd5 Cd 0.71400(3) 0.50282(2) 0.85207(2)
O9_2 O 0.0835(4) 0.00902(12) 0.93405(19)
N13 N 0.2957(3) 0.07813(13) 0.88951(17)
N1_2 N 0.4456(3) 0.20764(13) 0.04366(16)
N2_2 N 0.4404(3) 0.29419(13) 0.04836(16)
N6_2 N 0.6546(4) 0.24557(15) 0.25849(17)
O2_2 O 0.2491(4) 0.55861(19) 0.0107(2)
H7_2 H 0.403445 0.383965 0.033444
C7_2 C 0.4691(4) 0.25024(16) 0.0724(2)
C9_2 C 0.5585(4) 0.29086(17) 0.1702(2)
H9_2 H 0.536069 0.321110 0.153067
C10_2 C 0.6196(5) 0.28710(19) 0.2300(2)
H10_2 H 0.637314 0.315893 0.251794
C11_2 C 0.6278(4) 0.20513(19) 0.2256(2)
H11_2 H 0.651401 0.175422 0.243947
C12_2 C 0.5669(4) 0.20454(17) 0.1656(2)
H12_2 H 0.549732 0.175150 0.145105
C13_2 C 0.5321(4) 0.24831(16) 0.13673(19)
H16_2 H 0.435994 0.119262 0.018157
C37_2 C 0.1482(5) 0.53541(18) 0.0120(2)
C38_2 C 0.0831(4) 0.53926(15) 0.06956(19)
C40_2 C 0.1334(5) 0.56982(16) 0.1168(2)
H30_2 H 0.208885 0.586249 0.113356
C41_2 C 0.0729(5) 0.57626(16) 0.1692(2)
H31_2 H 0.108893 0.596695 0.200420
C46_2 C 0.1242(4) 0.96668(15) 0.0295(2)
C47_2 C 0.1861(4) 0.92787(16) 0.0609(2)
H35_2 H 0.252122 0.911933 0.044884
C48_2 C 0.0264(5) 0.99100(18) 0.0546(3)
C49_2 C 0.1475(4) 0.91319(17) 0.1169(2)
H37_2 H 0.188587 0.887333 0.138367
C51_2 C 0.0477(5) 0.93695(17) 0.1412(2)
C52_2 C 0.0820(4) 0.94880(14) 0.2556(2)
C53_2 C 0.0078(5) 0.92247(17) 0.2029(2)
H40_2 H 0.019484 0.887652 0.208573
N3_2 N 0.3591(3) 0.25327(13) 0.95640(17)
N4_2 N 0.2622(4) 0.42941(13) 0.90746(18)
N7_2 N 0.0781(3) 0.57765(13) 0.82911(17)
N8_2 N 0.0097(3) 0.75280(13) 0.76610(17)
N11_2 N 0.1102(4) 0.92921(14) 0.81354(19)
O1_2 O 0.0939(4) 0.50922(13) 0.96889(19)
O4_2 O 0.2881(9) 0.5110(4) 0.7823(5)
H1_2 H 0.363186 0.521144 0.792919
H2_2 H 0.247297 0.530334 0.756769
O5_2 O 0.3451(4) 0.54504(15) 0.8985(3)
H3_2 H 0.408378 0.527303 0.892951
H4_2 H 0.348468 0.552663 0.936331
O10_2 O 0.2562(3) 0.96278(12) 0.94834(14)
C1_2 C 0.2517(4) 0.38767(17) 0.8747(2)
H5_2 H 0.215372 0.388962 0.833893
C2_2 C 0.3186(5) 0.42686(16) 0.9655(2)
H6_2 H 0.328111 0.455455 0.988430
C3_2 C 0.3635(4) 0.38389(16) 0.9932(2)
C4_2 C 0.3484(4) 0.34095(15) 0.9604(2)
C5_2 C 0.2924(4) 0.34296(16) 0.89894(19)
H8_2 H 0.282752 0.314881 0.875022
C6_2 C 0.3855(4) 0.29322(15) 0.9897(2)
C8_2 C 0.3903(4) 0.21194(15) 0.9853(2)
C14_2 C 0.3606(4) 0.16532(15) 0.9510(2)
C15_2 C 0.2969(4) 0.16563(15) 0.89160(19)
H13_2 H 0.275234 0.194897 0.871625
C16_2 C 0.2667(4) 0.12196(16) 0.8630(2)
H14_2 H 0.223931 0.122477 0.823333
C17_2 C 0.3590(4) 0.07841(16) 0.9461(2)
H15_2 H 0.381533 0.048676 0.964713
C18_2 C 0.3927(4) 0.12070(16) 0.9786(2)
C19_2 C 0.0090(5) 0.57813(17) 0.7738(2)
C21_2 C 0.0079(4) 0.66525(16) 0.7699(2)
C22_2 C 0.0787(4) 0.66483(17) 0.8269(2)
H19_2 H 0.104229 0.693883 0.846488
C23_2 C 0.1116(4) 0.62014(16) 0.8549(2)
H20_2 H 0.159248 0.620190 0.893477
C32_2 C 0.0186(4) 0.84068(16) 0.7627(2)
C33_2 C 0.0832(4) 0.84324(16) 0.8220(2)
H25_2 H 0.097004 0.815207 0.845705
C34_2 C 0.1270(4) 0.88809(16) 0.8452(2)
H26_2 H 0.169981 0.889279 0.884849
C35_2 C 0.0456(6) 0.92680(19) 0.7570(2)
H27_2 H 0.031285 0.955585 0.734818
C45_2 C 0.1581(4) 0.97963(15) 0.9674(2)
O12_2 O 0.4103(3) 0.97285(11) 0.83536(14)
O6_2 O 0.9103(3) 0.52715(11) 0.33536(14)
C39_2 C 0.9704(4) 0.51483(16) 0.0770(2)
H29_2 H 0.935655 0.493577 0.046370
C42_2 C 0.9093(4) 0.52160(15) 0.1289(2)
H32_2 H 0.834003 0.505086 0.132263
C43_2 C 0.9585(4) 0.55250(15) 0.1757(2)
C44_2 C 0.8921(4) 0.55924(16) 0.23188(19)
H33_2 H 0.875555 0.593678 0.236849
H34_2 H 0.810876 0.542679 0.225492
C50_2 C 0.9875(4) 0.97665(16) 0.1093(2)
H38_2 H 0.921861 0.992991 0.125122
H39_2 H 0.918239 0.929512 0.202946
C54_2 C 0.9666(5) 0.54007(15) 0.2915(2)
Cd5_2 Cd 0.71400(3) 0.49718(2) 0.35207(2)
N1_3 N 0.9456(3) 0.29236(13) 0.54366(16)
N2_3 N 0.9404(3) 0.20581(13) 0.54836(16)
N3_3 N 0.8591(3) 0.24673(13) 0.45640(17)
N4_3 N 0.7622(4) 0.07059(13) 0.40746(18)
N5_2 N 0.7957(3) 0.42187(13) 0.38951(17)
C1_3 C 0.7517(4) 0.11233(17) 0.3747(2)
H5_3 H 0.715372 0.111038 0.333893
C2_3 C 0.8186(5) 0.07314(16) 0.4655(2)
H6_3 H 0.828111 0.044545 0.488430
C3_3 C 0.8635(4) 0.11611(16) 0.4932(2)
H7_3 H 0.903445 0.116035 0.533444
C4_3 C 0.8484(4) 0.15905(15) 0.4604(2)
C5_3 C 0.7924(4) 0.15704(16) 0.39894(19)
H8_3 H 0.782752 0.185119 0.375022
C6_3 C 0.8855(4) 0.20678(15) 0.4897(2)
C7_3 C 0.9691(4) 0.24976(16) 0.5724(2)
C8_3 C 0.8903(4) 0.28806(15) 0.4853(2)
C14_3 C 0.8606(4) 0.33468(15) 0.4510(2)
C15_3 C 0.7969(4) 0.33437(15) 0.39160(19)
H13_3 H 0.775234 0.305103 0.371625
C16_3 C 0.7667(4) 0.37804(16) 0.3630(2)
H14_3 H 0.723931 0.377523 0.323333
C17_3 C 0.8590(4) 0.42159(16) 0.4461(2)
H15_3 H 0.881533 0.451324 0.464713
C18_3 C 0.8927(4) 0.37930(16) 0.4786(2)
H16_3 H 0.935994 0.380738 0.518157
H29_3 H 0.435655 0.006423 0.546370
Cd6_2 Cd 0.66079(3) 0.00406(2) 0.87691(2)
O11_2 O 0.5858(3) 0.03850(14) 0.29343(15)
Cd2_2 Cd 0.66079(3) 0.99594(2) 0.37691(2)
N7_3 N 0.5781(3) 0.92235(13) 0.32911(17)
N8_3 N 0.5097(3) 0.74720(13) 0.26610(17)
N9_2 N 0.4102(3) 0.79125(14) 0.18008(17)
N10_2 N 0.4163(3) 0.70505(13) 0.17718(17)
N11_3 N 0.6102(4) 0.57079(14) 0.31354(19)
O1_3 O 0.5939(4) 0.99078(13) 0.46889(19)
O2_3 O 0.7491(4) 0.94139(19) 0.5107(2)
O3_2 O 0.5858(3) 0.96150(14) 0.79343(15)
O4_3 O 0.7881(9) 0.9890(4) 0.2823(5)
H1_3 H 0.863186 0.978856 0.292919
H2_3 H 0.747297 0.969666 0.256769
O5_3 O 0.8451(4) 0.95496(15) 0.3985(3)
H3_3 H 0.908378 0.972697 0.392951
H4_3 H 0.848468 0.947337 0.436331
O7_2 O 0.6927(3) 0.53724(12) 0.75119(15)
O8_2 O 0.5282(3) 0.54409(14) 0.80275(15)
O9_3 O 0.5835(4) 0.49098(12) 0.43405(19)
O10_3 O 0.7562(3) 0.53722(12) 0.44834(14)
C19_3 C 0.5090(5) 0.92187(17) 0.2738(2)
H17_2 H 0.484542 0.951466 0.255401
C20_2 C 0.4723(4) 0.87938(17) 0.2430(2)
H18_2 H 0.424306 0.880561 0.204519
C21_3 C 0.5079(4) 0.83475(16) 0.2699(2)
C22_3 C 0.5787(4) 0.83517(17) 0.3269(2)
H19_3 H 0.604229 0.806117 0.346488
C23_3 C 0.6116(4) 0.87986(16) 0.3549(2)
H20_3 H 0.659248 0.879810 0.393477
C24_2 C 0.4729(4) 0.78859(16) 0.23663(19)
C25_2 C 0.4776(4) 0.70649(16) 0.2339(2)
C26_2 C 0.3853(4) 0.74863(15) 0.1517(2)
C27_2 C 0.3194(4) 0.74869(17) 0.0876(2)
C28_2 C 0.2841(4) 0.79237(17) 0.0580(2)
H21_2 H 0.303032 0.822078 0.077349
C31_2 C 0.2891(4) 0.70572(17) 0.0557(2)
H24_2 H 0.311679 0.675802 0.073737
C32_3 C 0.5186(4) 0.65932(16) 0.2627(2)
C33_3 C 0.5832(4) 0.65676(16) 0.3220(2)
H25_3 H 0.597004 0.684793 0.345705
C34_3 C 0.6270(4) 0.61191(16) 0.3452(2)
H26_3 H 0.669981 0.610721 0.384849
C35_3 C 0.5456(6) 0.57320(19) 0.2570(2)
H27_3 H 0.531285 0.544415 0.234818
C36_2 C 0.4992(5) 0.61598(18) 0.2300(2)
H28_2 H 0.455596 0.615864 0.190462
C37_3 C 0.6482(5) 0.96459(18) 0.5120(2)
C38_3 C 0.5831(4) 0.96074(15) 0.56956(19)
C39_3 C 0.4704(4) 0.98517(16) 0.5770(2)
C40_3 C 0.6334(5) 0.93018(16) 0.6168(2)
H30_3 H 0.708885 0.913751 0.613356
C41_3 C 0.5729(5) 0.92374(16) 0.6692(2)
H31_3 H 0.608893 0.903305 0.700420
C42_3 C 0.4093(4) 0.97840(15) 0.6289(2)
H32_3 H 0.334003 0.994914 0.632263
C43_3 C 0.4585(4) 0.94750(15) 0.6757(2)
C44_3 C 0.3921(4) 0.94076(16) 0.73188(19)
H33_3 H 0.375555 0.906322 0.736849
H34_3 H 0.310876 0.957321 0.725492
C45_3 C 0.6581(4) 0.52037(15) 0.4674(2)
C46_3 C 0.6242(4) 0.53332(15) 0.5295(2)
C47_3 C 0.6861(4) 0.57213(16) 0.5609(2)
H35_3 H 0.752122 0.588067 0.544884
C48_3 C 0.5264(5) 0.50900(18) 0.5546(3)
H36 H 0.487098 0.482536 0.533702
C49_3 C 0.6475(4) 0.58681(17) 0.6169(2)
H37_3 H 0.688587 0.612667 0.638367
C50_3 C 0.4875(4) 0.52335(16) 0.6093(2)
H38_3 H 0.421861 0.507009 0.625122
C51_3 C 0.5477(5) 0.56305(17) 0.6412(2)
C52_3 C 0.5820(4) 0.55120(14) 0.7556(2)
C53_3 C 0.5078(5) 0.57753(17) 0.7029(2)
H39_3 H 0.418239 0.570488 0.702946
H40_3 H 0.519484 0.612348 0.708573
C54_3 C 0.4666(5) 0.95993(15) 0.7915(2)
O13_2 O 0.6927(3) 0.46276(12) 0.25119(15)
O14_2 O 0.5282(3) 0.45591(14) 0.30275(15)
O2_4 O 0.7491(4) 0.05861(19) 0.0107(2)
C37_4 C 0.6482(5) 0.03541(18) 0.0120(2)
C38_4 C 0.5831(4) 0.03926(15) 0.06956(19)
C39_4 C 0.4704(4) 0.01483(16) 0.0770(2)
C40_4 C 0.6334(5) 0.06982(16) 0.1168(2)
H30_4 H 0.708885 0.086249 0.113356
C41_4 C 0.5729(5) 0.07626(16) 0.1692(2)
H31_4 H 0.608893 0.096695 0.200420
C42_4 C 0.4093(4) 0.02160(15) 0.1289(2)
H32_4 H 0.334003 0.005086 0.132263
C43_4 C 0.4585(4) 0.05250(15) 0.1757(2)
C44_4 C 0.3921(4) 0.05924(16) 0.23188(19)
H33_4 H 0.375555 0.093678 0.236849
H34_4 H 0.310876 0.042679 0.225492
C46_4 C 0.6242(4) 0.46668(15) 0.0295(2)
C47_4 C 0.6861(4) 0.42787(16) 0.0609(2)
H35_4 H 0.752122 0.411933 0.044884
C48_4 C 0.5264(5) 0.49100(18) 0.0546(3)
H36_2 H 0.487098 0.517464 0.033702
C49_4 C 0.6475(4) 0.41319(17) 0.1169(2)
H37_4 H 0.688587 0.387333 0.138367
C50_4 C 0.4875(4) 0.47665(16) 0.1093(2)
H38_4 H 0.421861 0.492991 0.125122
C51_4 C 0.5477(5) 0.43695(17) 0.1412(2)
C52_4 C 0.5820(4) 0.44880(14) 0.2556(2)
C53_4 C 0.5078(5) 0.42247(17) 0.2029(2)
H39_4 H 0.418239 0.429512 0.202946
H40_4 H 0.519484 0.387652 0.208573
C54_4 C 0.4666(5) 0.04007(15) 0.2915(2)
N7_4 N 0.5781(3) 0.07765(13) 0.82911(17)
N8_4 N 0.5097(3) 0.25280(13) 0.76610(17)
N9_3 N 0.4102(3) 0.20875(14) 0.68008(17)
N10_3 N 0.4163(3) 0.29495(13) 0.67718(17)
N11_4 N 0.6102(4) 0.42921(14) 0.81354(19)
N12 N 0.1891(3) 0.25030(17) 0.4678(2)
O1_4 O 0.5939(4) 0.00922(13) 0.96889(19)
O4_4 O 0.7881(9) 0.0110(4) 0.7823(5)
H1_4 H 0.863186 0.021144 0.792919
H2_4 H 0.747297 0.030334 0.756769
O5_4 O 0.8451(4) 0.04504(15) 0.8985(3)
H3_4 H 0.908378 0.027303 0.892951
H4_4 H 0.848468 0.052663 0.936331
O9_4 O 0.5835(4) 0.50902(12) 0.93405(19)
O10_4 O 0.7562(3) 0.46278(12) 0.94834(14)
C19_4 C 0.5090(5) 0.07813(17) 0.7738(2)
H17_3 H 0.484542 0.048534 0.755401
C20_3 C 0.4723(4) 0.12062(17) 0.7430(2)
H18_3 H 0.424306 0.119439 0.704519
C21_4 C 0.5079(4) 0.16525(16) 0.7699(2)
C22_4 C 0.5787(4) 0.16483(17) 0.8269(2)
H19_4 H 0.604229 0.193883 0.846488
C23_4 C 0.6116(4) 0.12014(16) 0.8549(2)
H20_4 H 0.659248 0.120190 0.893477
C24_3 C 0.4729(4) 0.21141(16) 0.73663(19)
C25_3 C 0.4776(4) 0.29351(16) 0.7339(2)
C26_3 C 0.3853(4) 0.25137(15) 0.6517(2)
C27_3 C 0.3194(4) 0.25131(17) 0.5876(2)
C28_3 C 0.2841(4) 0.20763(17) 0.5580(2)
H21_3 H 0.303032 0.177922 0.577349
C29 C 0.2197(4) 0.2094(2) 0.4986(2)
H22 H 0.196605 0.180052 0.479198
C30 C 0.2258(4) 0.29229(19) 0.4973(2)
H23 H 0.206881 0.321518 0.476717
C31_3 C 0.2891(4) 0.29428(17) 0.5557(2)
H24_3 H 0.311679 0.324198 0.573737
C32_4 C 0.5186(4) 0.34068(16) 0.7627(2)
C33_4 C 0.5832(4) 0.34324(16) 0.8220(2)
H25_4 H 0.597004 0.315207 0.845705
C34_4 C 0.6270(4) 0.38809(16) 0.8452(2)
H26_4 H 0.669981 0.389279 0.884849
C35_4 C 0.5456(6) 0.42680(19) 0.7570(2)
H27_4 H 0.531285 0.455585 0.734818
C36_3 C 0.4992(5) 0.38402(18) 0.7300(2)
H28_3 H 0.455596 0.384136 0.690462
C45_4 C 0.6581(4) 0.47963(15) 0.9674(2)
N13_2 N 0.7957(3) 0.57813(13) 0.88951(17)
N1_4 N 0.9456(3) 0.70764(13) 0.04366(16)
N2_4 N 0.9404(3) 0.79419(13) 0.04836(16)
H7_4 H 0.903445 0.883965 0.033444
C7_4 C 0.9691(4) 0.75024(16) 0.0724(2)
H16_4 H 0.935994 0.619262 0.018157
H29_4 H 0.435655 0.993577 0.046370
N3_4 N 0.8591(3) 0.75327(13) 0.95640(17)
N4_4 N 0.7622(4) 0.92941(13) 0.90746(18)
C1_4 C 0.7517(4) 0.88767(17) 0.8747(2)
H5_4 H 0.715372 0.888962 0.833893
C2_4 C 0.8186(5) 0.92686(16) 0.9655(2)
H6_4 H 0.828111 0.955455 0.988430
C3_4 C 0.8635(4) 0.88389(16) 0.9932(2)
C4_4 C 0.8484(4) 0.84095(15) 0.9604(2)
C5_4 C 0.7924(4) 0.84296(16) 0.89894(19)
H8_4 H 0.782752 0.814881 0.875022
C6_4 C 0.8855(4) 0.79322(15) 0.9897(2)
C8_4 C 0.8903(4) 0.71194(15) 0.9853(2)
C14_4 C 0.8606(4) 0.66532(15) 0.9510(2)
C15_4 C 0.7969(4) 0.66563(15) 0.89160(19)
H13_4 H 0.775234 0.694897 0.871625
C16_4 C 0.7667(4) 0.62196(16) 0.8630(2)
H14_4 H 0.723931 0.622477 0.823333
C17_4 C 0.8590(4) 0.57841(16) 0.9461(2)
H15_4 H 0.881533 0.548676 0.964713
C18_4 C 0.8927(4) 0.62070(16) 0.9786(2)
N12_2 N 0.6891(3) 0.24970(17) 0.9678(2)
C29_2 C 0.7197(4) 0.2906(2) 0.9986(2)
H22_2 H 0.696605 0.319948 0.979198
C30_2 C 0.7258(4) 0.20771(19) 0.9973(2)
H23_2 H 0.706881 0.178482 0.976717
H36_3 H 0.987098 0.982536 0.533702
H36_4 H 0.987098 0.017464 0.033702
N9_4 N 0.9102(3) 0.70875(14) 0.68008(17)
N10_4 N 0.9163(3) 0.79495(13) 0.67718(17)
N12_3 N 0.6891(3) 0.75030(17) 0.4678(2)
H17_4 H 0.984542 0.548534 0.755401
C20_4 C 0.9723(4) 0.62062(17) 0.7430(2)
H18_4 H 0.924306 0.619439 0.704519
C24_4 C 0.9729(4) 0.71141(16) 0.73663(19)
C25_4 C 0.9776(4) 0.79351(16) 0.7339(2)
C26_4 C 0.8853(4) 0.75137(15) 0.6517(2)
C27_4 C 0.8194(4) 0.75131(17) 0.5876(2)
C28_4 C 0.7841(4) 0.70763(17) 0.5580(2)
H21_4 H 0.803032 0.677922 0.577349
C29_3 C 0.7197(4) 0.7094(2) 0.4986(2)
H22_3 H 0.696605 0.680052 0.479198
C30_3 C 0.7258(4) 0.79229(19) 0.4973(2)
H23_3 H 0.706881 0.821518 0.476717
C31_4 C 0.7891(4) 0.79428(17) 0.5557(2)
H24_4 H 0.811679 0.824198 0.573737
C36_4 C 0.9992(5) 0.88402(18) 0.7300(2)
H28_4 H 0.955596 0.884136 0.690462
N6_3 N 0.1546(4) 0.25443(15) 0.75849(17)
C9_3 C 0.0585(4) 0.20914(17) 0.6702(2)
H9_3 H 0.036069 0.178890 0.653067
C10_3 C 0.1196(5) 0.21290(19) 0.7300(2)
H10_3 H 0.137314 0.184107 0.751794
C11_3 C 0.1278(4) 0.29487(19) 0.7256(2)
H11_3 H 0.151401 0.324578 0.743947
C12_3 C 0.0669(4) 0.29546(17) 0.6656(2)
H12_3 H 0.049732 0.324850 0.645105
C13_3 C 0.0321(4) 0.25169(16) 0.63673(19)
N12_4 N 0.1891(3) 0.74970(17) 0.9678(2)
C29_4 C 0.2197(4) 0.7906(2) 0.9986(2)
H22_4 H 0.196605 0.819948 0.979198
C30_4 C 0.2258(4) 0.70771(19) 0.9973(2)
H23_4 H 0.206881 0.678482 0.976717
N6_4 N 0.1546(4) 0.74557(15) 0.25849(17)
C9_4 C 0.0585(4) 0.79086(17) 0.1702(2)
H9_4 H 0.036069 0.821110 0.153067
C10_4 C 0.1196(5) 0.78710(19) 0.2300(2)
H10_4 H 0.137314 0.815893 0.251794
C11_4 C 0.1278(4) 0.70513(19) 0.2256(2)
H11_4 H 0.151401 0.675422 0.243947
C12_4 C 0.0669(4) 0.70454(17) 0.1656(2)
H12_4 H 0.049732 0.675150 0.145105
C13_4 C 0.0321(4) 0.74831(16) 0.13673(19)
loop_
_geom_bond_atom_site_label_1
_geom_bond_atom_site_label_2
_geom_bond_site_symmetry_1
_geom_bond_site_symmetry_2
Cd2 N4 1_555 1_555
N1 C7 1_555 1_555
N2 C6 1_555 1_555
N3 C6 1_555 1_555
N4 C1 1_555 1_555
N5 C16 1_555 1_555
N6 C10 1_555 1_555
N7 Cd2 1_555 1_555
N11 C34 1_555 1_555
O1 Cd2 1_555 1_555
O2 C37 1_555 1_555
O4 Cd2 1_555 1_555
H1 O4 1_555 1_555
H2 O4 1_555 1_555
O5 Cd2 1_555 1_555
H3 O5 1_555 1_555
H4 O5 1_555 1_555
O7 C52 1_555 1_555
O8 C52 1_555 1_555
C1 H5 1_555 1_555
C2 N4 1_555 1_555
H6 C2 1_555 1_555
C3 C2 1_555 1_555
H7 C3 1_555 1_555
C4 C3 1_555 1_555
C5 C1 1_555 1_555
H8 C5 1_555 1_555
C6 C4 1_555 1_555
C7 N2 1_555 1_555
C8 N1 1_555 1_555
C9 H9 1_555 1_555
C10 C9 1_555 1_555
H10 C10 1_555 1_555
C11 N6 1_555 1_555
H11 C11 1_555 1_555
C12 C11 1_555 1_555
H12 C12 1_555 1_555
C13 C7 1_555 1_555
C14 C8 1_555 1_555
C15 C14 1_555 1_555
H13 C15 1_555 1_555
C16 C15 1_555 1_555
H14 C16 1_555 1_555
C17 N5 1_555 1_555
H15 C17 1_555 1_555
C18 C14 1_555 1_555
H16 C18 1_555 1_555
C19 N7 1_555 1_555
C22 C21 1_555 1_555
H19 C22 1_555 1_555
C23 N7 1_555 1_555
H20 C23 1_555 1_555
C33 C32 1_555 1_555
H25 C33 1_555 1_555
C34 C33 1_555 1_555
H26 C34 1_555 1_555
C35 N11 1_555 1_555
H27 C35 1_555 1_555
C37 O1 1_555 1_555
C38 C37 1_555 1_555
C40 C38 1_555 1_555
H30 C40 1_555 1_555
C41 C40 1_555 1_555
H31 C41 1_555 1_555
C46 C45 1_555 1_555
C47 C46 1_555 1_555
H35 C47 1_555 1_555
C48 C46 1_555 1_555
C49 C47 1_555 1_555
H37 C49 1_555 1_555
C51 C49 1_555 1_555
C52 C53 1_555 1_555
C53 C51 1_555 1_555
H40 C53 1_555 1_555
Cd3 N5 1_555 1_555
Cd4 O7 1_555 1_555
Cd6 O3 1_555 1_555
O11 Cd2 1_555 1_555
N3 C8 1_555 1_555
O8 Cd4 1_555 1_555
O10 C45 1_555 1_555
C4 C5 1_555 1_555
C9 C13 1_555 1_555
C12 C13 1_555 1_555
C17 C18 1_555 1_555
C22 C23 1_555 1_555
O9 Cd3 1_555 1_555
O13 Cd3 1_555 1_555
O14 Cd3 1_555 1_555
N9 C24 1_555 1_555
N10 C25 1_555 1_555
O6 C54 1_555 1_555
H18 C20 1_555 1_555
C26 N9 1_555 1_555
C27 C26 1_555 1_555
C28 C27 1_555 1_555
H21 C28 1_555 1_555
C31 C27 1_555 1_555
H24 C31 1_555 1_555
H28 C36 1_555 1_555
H29 C39 1_555 1_555
C42 C39 1_555 1_555
H32 C42 1_555 1_555
C44 C43 1_555 1_555
H33 C44 1_555 1_555
H34 C44 1_555 1_555
H38 C50 1_555 1_555
C54 C44 1_555 1_555
Cd5 O6 1_555 1_555
N10 C26 1_555 1_555
C42 C43 1_555 1_555
O9_2 Cd4 1_555 1_555
N13 Cd4 1_555 1_555
N1_2 C7_2 1_555 1_555
N6_2 C10_2 1_555 1_555
O2_2 C37_2 1_555 1_555
O13 C52_2 1_555 1_555
O14 C52_2 1_555 1_555
C7_2 N2_2 1_555 1_555
C9_2 H9_2 1_555 1_555
C10_2 C9_2 1_555 1_555
H10_2 C10_2 1_555 1_555
C11_2 N6_2 1_555 1_555
H11_2 C11_2 1_555 1_555
C12_2 C11_2 1_555 1_555
H12_2 C12_2 1_555 1_555
C13_2 C7_2 1_555 1_555
C38_2 C37_2 1_555 1_555
C40_2 C38_2 1_555 1_555
H30_2 C40_2 1_555 1_555
C41_2 C40_2 1_555 1_555
H31_2 C41_2 1_555 1_555
C47_2 C46_2 1_555 1_555
H35_2 C47_2 1_555 1_555
C48_2 C46_2 1_555 1_555
C49_2 C47_2 1_555 1_555
H37_2 C49_2 1_555 1_555
C51_2 C49_2 1_555 1_555
C52_2 C53_2 1_555 1_555
C53_2 C51_2 1_555 1_555
H40_2 C53_2 1_555 1_555
C9_2 C13_2 1_555 1_555
C12_2 C13_2 1_555 1_555
Cd6 N4_2 1_555 1_555
N3_2 C6_2 1_555 1_555
N4_2 C1_2 1_555 1_555
N13 C16_2 1_555 1_555
N7_2 Cd6 1_555 1_555
N11_2 C34_2 1_555 1_555
O1_2 Cd6 1_555 1_555
O4_2 Cd6 1_555 1_555
H1_2 O4_2 1_555 1_555
H2_2 O4_2 1_555 1_555
O5_2 Cd6 1_555 1_555
H3_2 O5_2 1_555 1_555
H4_2 O5_2 1_555 1_555
C1_2 H5_2 1_555 1_555
C2_2 N4_2 1_555 1_555
H6_2 C2_2 1_555 1_555
C3_2 C2_2 1_555 1_555
C4_2 C3_2 1_555 1_555
C5_2 C1_2 1_555 1_555
H8_2 C5_2 1_555 1_555
C6_2 C4_2 1_555 1_555
C14_2 C8_2 1_555 1_555
C15_2 C14_2 1_555 1_555
H13_2 C15_2 1_555 1_555
C16_2 C15_2 1_555 1_555
H14_2 C16_2 1_555 1_555
C17_2 N13 1_555 1_555
H15_2 C17_2 1_555 1_555
C18_2 C14_2 1_555 1_555
C19_2 N7_2 1_555 1_555
C22_2 C21_2 1_555 1_555
H19_2 C22_2 1_555 1_555
C23_2 N7_2 1_555 1_555
H20_2 C23_2 1_555 1_555
C33_2 C32_2 1_555 1_555
H25_2 C33_2 1_555 1_555
C34_2 C33_2 1_555 1_555
H26_2 C34_2 1_555 1_555
C35_2 N11_2 1_555 1_555
H27_2 C35_2 1_555 1_555
N3_2 C8_2 1_555 1_555
O10_2 C45_2 1_555 1_555
C4_2 C5_2 1_555 1_555
C17_2 C18_2 1_555 1_555
C22_2 C23_2 1_555 1_555
O6_2 C54_2 1_555 1_555
H29_2 C39_2 1_555 1_555
C42_2 C39_2 1_555 1_555
H32_2 C42_2 1_555 1_555
C44_2 C43_2 1_555 1_555
H33_2 C44_2 1_555 1_555
H34_2 C44_2 1_555 1_555
H38_2 C50_2 1_555 1_555
C54_2 C44_2 1_555 1_555
Cd5_2 O6_2 1_555 1_555
C42_2 C43_2 1_555 1_555
N1_3 C7_3 1_555 1_555
N2_3 C6_3 1_555 1_555
N3_3 C6_3 1_555 1_555
N4_3 C1_3 1_555 1_555
N5_2 C16_3 1_555 1_555
C1_3 H5_3 1_555 1_555
C2_3 N4_3 1_555 1_555
H6_3 C2_3 1_555 1_555
C3_3 C2_3 1_555 1_555
H7_3 C3_3 1_555 1_555
C4_3 C3_3 1_555 1_555
C5_3 C1_3 1_555 1_555
H8_3 C5_3 1_555 1_555
C6_3 C4_3 1_555 1_555
C7_3 N2_3 1_555 1_555
C8_3 N1_3 1_555 1_555
C14_3 C8_3 1_555 1_555
C15_3 C14_3 1_555 1_555
H13_3 C15_3 1_555 1_555
C16_3 C15_3 1_555 1_555
H14_3 C16_3 1_555 1_555
C17_3 N5_2 1_555 1_555
H15_3 C17_3 1_555 1_555
C18_3 C14_3 1_555 1_555
H16_3 C18_3 1_555 1_555
Cd5_2 N5_2 1_555 1_555
N3_3 C8_3 1_555 1_555
C4_3 C5_3 1_555 1_555
C17_3 C18_3 1_555 1_555
Cd5_2 N11_3 1_555 1_555
N7_3 Cd2_2 1_555 1_555
N8_3 C24_2 1_555 1_555
N9_2 C24_2 1_555 1_555
N10_2 C25_2 1_555 1_555
N11_3 C34_3 1_555 1_555
O1_3 Cd2_2 1_555 1_555
O2_3 C37_3 1_555 1_555
O3_2 C54_3 1_555 1_555
O4_3 Cd2_2 1_555 1_555
H1_3 O4_3 1_555 1_555
H2_3 O4_3 1_555 1_555
O5_3 Cd2_2 1_555 1_555
H3_3 O5_3 1_555 1_555
H4_3 O5_3 1_555 1_555
O12_2 C54_3 1_555 1_555
O7_2 C52_3 1_555 1_555
O8_2 C52_3 1_555 1_555
O9_3 Cd5_2 1_555 1_555
O10_3 Cd5_2 1_555 1_555
C19_3 N7_3 1_555 1_555
H17_2 C19_3 1_555 1_555
C20_2 C19_3 1_555 1_555
H18_2 C20_2 1_555 1_555
C21_3 C20_2 1_555 1_555
C22_3 C21_3 1_555 1_555
H19_3 C22_3 1_555 1_555
C23_3 N7_3 1_555 1_555
H20_3 C23_3 1_555 1_555
C24_2 C21_3 1_555 1_555
C25_2 N8_3 1_555 1_555
C26_2 N9_2 1_555 1_555
C27_2 C26_2 1_555 1_555
C28_2 C27_2 1_555 1_555
H21_2 C28_2 1_555 1_555
C31_2 C27_2 1_555 1_555
H24_2 C31_2 1_555 1_555
C32_3 C25_2 1_555 1_555
C33_3 C32_3 1_555 1_555
H25_3 C33_3 1_555 1_555
C34_3 C33_3 1_555 1_555
H26_3 C34_3 1_555 1_555
C35_3 N11_3 1_555 1_555
H27_3 C35_3 1_555 1_555
C36_2 C32_3 1_555 1_555
H28_2 C36_2 1_555 1_555
C37_3 O1_3 1_555 1_555
C38_3 C37_3 1_555 1_555
C39_3 C38_3 1_555 1_555
C40_3 C38_3 1_555 1_555
H30_3 C40_3 1_555 1_555
C41_3 C40_3 1_555 1_555
H31_3 C41_3 1_555 1_555
C42_3 C39_3 1_555 1_555
H32_3 C42_3 1_555 1_555
C43_3 C41_3 1_555 1_555
C44_3 C43_3 1_555 1_555
H33_3 C44_3 1_555 1_555
H34_3 C44_3 1_555 1_555
C45_3 O9_3 1_555 1_555
C46_3 C45_3 1_555 1_555
C47_3 C46_3 1_555 1_555
H35_3 C47_3 1_555 1_555
C48_3 C46_3 1_555 1_555
H36 C48_3 1_555 1_555
C49_3 C47_3 1_555 1_555
H37_3 C49_3 1_555 1_555
C50_3 C48_3 1_555 1_555
H38_3 C50_3 1_555 1_555
C51_3 C49_3 1_555 1_555
C52_3 C53_3 1_555 1_555
C53_3 C51_3 1_555 1_555
H39_3 C53_3 1_555 1_555
H40_3 C53_3 1_555 1_555
C54_3 C44_3 1_555 1_555
Cd5 O7_2 1_555 1_555
O13_2 Cd5_2 1_555 1_555
O14_2 Cd5_2 1_555 1_555
N10_2 C26_2 1_555 1_555
O8_2 Cd5 1_555 1_555
O10_3 C45_3 1_555 1_555
C22_3 C23_3 1_555 1_555
C35_3 C36_2 1_555 1_555
C42_3 C43_3 1_555 1_555
C50_3 C51_3 1_555 1_555
O2_4 C37_4 1_555 1_555
O11_2 C54_4 1_555 1_555
O12 C54_4 1_555 1_555
O13_2 C52_4 1_555 1_555
O14_2 C52_4 1_555 1_555
C38_4 C37_4 1_555 1_555
C39_4 C38_4 1_555 1_555
C40_4 C38_4 1_555 1_555
H30_4 C40_4 1_555 1_555
C41_4 C40_4 1_555 1_555
H31_4 C41_4 1_555 1_555
C42_4 C39_4 1_555 1_555
H32_4 C42_4 1_555 1_555
C43_4 C41_4 1_555 1_555
C44_4 C43_4 1_555 1_555
H33_4 C44_4 1_555 1_555
H34_4 C44_4 1_555 1_555
C47_4 C46_4 1_555 1_555
H35_4 C47_4 1_555 1_555
C48_4 C46_4 1_555 1_555
H36_2 C48_4 1_555 1_555
C49_4 C47_4 1_555 1_555
H37_4 C49_4 1_555 1_555
C50_4 C48_4 1_555 1_555
H38_4 C50_4 1_555 1_555
C51_4 C49_4 1_555 1_555
C52_4 C53_4 1_555 1_555
C53_4 C51_4 1_555 1_555
H39_4 C53_4 1_555 1_555
H40_4 C53_4 1_555 1_555
C54_4 C44_4 1_555 1_555
C42_4 C43_4 1_555 1_555
C50_4 C51_4 1_555 1_555
Cd5 N11_4 1_555 1_555
N7_4 Cd6_2 1_555 1_555
N8_4 C24_3 1_555 1_555
N9_3 C24_3 1_555 1_555
N10_3 C25_3 1_555 1_555
N11_4 C34_4 1_555 1_555
N12 C29 1_555 1_555
O1_4 Cd6_2 1_555 1_555
O4_4 Cd6_2 1_555 1_555
H1_4 O4_4 1_555 1_555
H2_4 O4_4 1_555 1_555
O5_4 Cd6_2 1_555 1_555
H3_4 O5_4 1_555 1_555
H4_4 O5_4 1_555 1_555
O9_4 Cd5 1_555 1_555
O10_4 Cd5 1_555 1_555
C19_4 N7_4 1_555 1_555
H17_3 C19_4 1_555 1_555
C20_3 C19_4 1_555 1_555
H18_3 C20_3 1_555 1_555
C21_4 C20_3 1_555 1_555
C22_4 C21_4 1_555 1_555
H19_4 C22_4 1_555 1_555
C23_4 N7_4 1_555 1_555
H20_4 C23_4 1_555 1_555
C24_3 C21_4 1_555 1_555
C25_3 N8_4 1_555 1_555
C26_3 N9_3 1_555 1_555
C27_3 C26_3 1_555 1_555
C28_3 C27_3 1_555 1_555
H21_3 C28_3 1_555 1_555
C29 C28_3 1_555 1_555
H22 C29 1_555 1_555
C30 N12 1_555 1_555
H23 C30 1_555 1_555
C31_3 C27_3 1_555 1_555
H24_3 C31_3 1_555 1_555
C32_4 C25_3 1_555 1_555
C33_4 C32_4 1_555 1_555
H25_4 C33_4 1_555 1_555
C34_4 C33_4 1_555 1_555
H26_4 C34_4 1_555 1_555
C35_4 N11_4 1_555 1_555
H27_4 C35_4 1_555 1_555
C36_3 C32_4 1_555 1_555
H28_3 C36_3 1_555 1_555
C45_4 O9_4 1_555 1_555
N13_2 Cd5 1_555 1_555
N10_3 C26_3 1_555 1_555
O10_4 C45_4 1_555 1_555
C22_4 C23_4 1_555 1_555
C30 C31_3 1_555 1_555
C35_4 C36_3 1_555 1_555
N1_4 C7_4 1_555 1_555
C7_4 N2_4 1_555 1_555
N3_4 C6_4 1_555 1_555
N4_4 C1_4 1_555 1_555
N13_2 C16_4 1_555 1_555
C1_4 H5_4 1_555 1_555
C2_4 N4_4 1_555 1_555
H6_4 C2_4 1_555 1_555
C3_4 C2_4 1_555 1_555
C4_4 C3_4 1_555 1_555
C5_4 C1_4 1_555 1_555
H8_4 C5_4 1_555 1_555
C6_4 C4_4 1_555 1_555
C14_4 C8_4 1_555 1_555
C15_4 C14_4 1_555 1_555
H13_4 C15_4 1_555 1_555
C16_4 C15_4 1_555 1_555
H14_4 C16_4 1_555 1_555
C17_4 N13_2 1_555 1_555
H15_4 C17_4 1_555 1_555
C18_4 C14_4 1_555 1_555
N3_4 C8_4 1_555 1_555
C4_4 C5_4 1_555 1_555
C17_4 C18_4 1_555 1_555
N12_2 C29_2 1_555 1_555
H22_2 C29_2 1_555 1_555
C30_2 N12_2 1_555 1_555
H23_2 C30_2 1_555 1_555
N9_4 C24_4 1_555 1_555
N10_4 C25_4 1_555 1_555
N12_3 C29_3 1_555 1_555
H18_4 C20_4 1_555 1_555
C26_4 N9_4 1_555 1_555
C27_4 C26_4 1_555 1_555
C28_4 C27_4 1_555 1_555
H21_4 C28_4 1_555 1_555
C29_3 C28_4 1_555 1_555
H22_3 C29_3 1_555 1_555
C30_3 N12_3 1_555 1_555
H23_3 C30_3 1_555 1_555
C31_4 C27_4 1_555 1_555
H24_4 C31_4 1_555 1_555
H28_4 C36_4 1_555 1_555
N10_4 C26_4 1_555 1_555
C30_3 C31_4 1_555 1_555
N6_3 C10_3 1_555 1_555
C9_3 H9_3 1_555 1_555
C10_3 C9_3 1_555 1_555
H10_3 C10_3 1_555 1_555
C11_3 N6_3 1_555 1_555
H11_3 C11_3 1_555 1_555
C12_3 C11_3 1_555 1_555
H12_3 C12_3 1_555 1_555
C9_3 C13_3 1_555 1_555
C12_3 C13_3 1_555 1_555
N12_4 C29_4 1_555 1_555
H22_4 C29_4 1_555 1_555
C30_4 N12_4 1_555 1_555
H23_4 C30_4 1_555 1_555
N6_4 C10_4 1_555 1_555
C9_4 H9_4 1_555 1_555
C10_4 C9_4 1_555 1_555
H10_4 C10_4 1_555 1_555
C11_4 N6_4 1_555 1_555
H11_4 C11_4 1_555 1_555
C12_4 C11_4 1_555 1_555
H12_4 C12_4 1_555 1_555
C9_4 C13_4 1_555 1_555
C12_4 C13_4 1_555 1_555

#END
