
###############################################################################
#
# This file contains modified crystal structure data generated from the
# MOF subset of the Cambridge Structural Database (CSD) v543 
# hosted by the Cambridge Crystallographic Data Centre (CCDC).
#
# This work is licensed under the Creative Commons
# Attribution-NonCommercial-ShareAlike 4.0 International License.
# To view a copy of this license, visit
# http://creativecommons.org/licenses/by-nc-sa/4.0/
# or send a letter to
# Creative Commons, PO Box 1866, Mountain View, CA 94042, USA.
#
# CIF created using the CSD Python API on 29 September 2022
# The structure has been converted into the P1 space group
# The structure has a 3D framework
# The original CSD entry KIXXUN is in the monoclinic crystal system
# The framework has been calculated to contain at least 10.0% void space
# The void calculation uses a probe of radius 1.32A, grid spacing 0.4
#
###############################################################################

data_KIXXUN
_chemical_formula_moiety         '(C216 H144 Cd6 N48 O28)n'
_symmetry_cell_setting           triclinic
_symmetry_space_group_name_H-M   'P 1'
_symmetry_Int_Tables_number      1
_space_group_name_Hall           'P 1'
loop_
_symmetry_equiv_pos_site_id
_symmetry_equiv_pos_as_xyz
1 x,y,z
_cell_length_a                   26.9945(5)
_cell_length_b                   11.03167(14)
_cell_length_c                   22.4372(4)
_cell_angle_alpha                90
_cell_angle_beta                 112.2423(19)
_cell_angle_gamma                90
_cell_volume                     6184.5
loop_
_atom_site_label
_atom_site_type_symbol
_atom_site_fract_x
_atom_site_fract_y
_atom_site_fract_z
N11 N 0.2586(3) 0.3194(6) 0.5976(5)
O7 O 0.0127(2) 0.0080(5) 0.8140(2)
C27 C 0.2578(3) 0.0660(6) 0.6022(4)
C28 C 0.3045(3) 0.1287(7) 0.6147(4)
H17 H 0.336676 0.087937 0.623702
C29 C 0.3026(3) 0.2547(7) 0.6137(5)
H18 H 0.334912 0.296203 0.625197
C30 C 0.2137(4) 0.2561(9) 0.5809(7)
H19 H 0.181619 0.298934 0.564937
C31 C 0.2106(4) 0.1317(8) 0.5852(7)
H20 H 0.178055 0.093168 0.576934
H34 H 0.016785 0.037464 0.703071
Cd1 Cd 0.49496(2) 0.42856(4) 0.58284(2)
N1 N 0.5666(2) 0.3307(5) 0.5732(2)
N2 N 0.74052(19) 0.2104(5) 0.5580(2)
N3 N 0.7873(2) 0.0269(5) 0.5616(3)
N4 N 0.6990(2) 0.0221(5) 0.5604(3)
N5 N 0.9190(2) 0.3509(5) 0.5626(3)
N7 N 0.4256(2) 0.5523(5) 0.5843(3)
N8 N 0.2996(2) 0.8741(5) 0.6000(3)
N9 N 0.2134(2) 0.8771(5) 0.6061(3)
N10 N 0.25514(18) 0.6889(4) 0.6027(2)
N12 N 0.0778(2) 0.5656(5) 0.6067(2)
O1 O 0.53001(18) 0.6064(4) 0.5643(2)
O2 O 0.56497(18) 0.6851(4) 0.4982(2)
O3 O 0.5268(2) 0.7865(4) 0.8527(2)
O4 O 0.47765(19) 0.9419(4) 0.8024(2)
C1 C 0.6115(2) 0.3887(6) 0.5788(3)
H1 H 0.613229 0.471825 0.586216
C2 C 0.6557(2) 0.3319(6) 0.5741(3)
H2 H 0.686394 0.375728 0.578870
C3 C 0.6530(2) 0.2085(5) 0.5621(3)
C4 C 0.6061(3) 0.1469(6) 0.5554(4)
H3 H 0.603057 0.064012 0.547199
C5 C 0.5644(3) 0.2115(6) 0.5611(4)
H4 H 0.533056 0.170159 0.556328
C6 C 0.6999(2) 0.1431(6) 0.5597(3)
C7 C 0.7830(2) 0.1485(5) 0.5591(3)
C9 C 0.8299(2) 0.2184(6) 0.5588(3)
C10 C 0.8277(2) 0.3447(6) 0.5546(3)
H5 H 0.796603 0.386264 0.550572
C11 C 0.8731(3) 0.4066(6) 0.5566(3)
H6 H 0.871627 0.490703 0.553607
C12 C 0.9201(3) 0.2304(6) 0.5657(4)
H7 H 0.951665 0.190903 0.569732
C13 C 0.8764(3) 0.1606(6) 0.5633(3)
H8 H 0.878631 0.076413 0.564815
C19 C 0.4299(3) 0.6708(6) 0.5959(3)
H13 H 0.461952 0.708763 0.600911
C20 C 0.3889(2) 0.7407(6) 0.6009(3)
H14 H 0.392946 0.823905 0.607780
C21 C 0.3420(2) 0.6831(5) 0.5953(3)
C22 C 0.3372(3) 0.5587(6) 0.5839(3)
H15 H 0.305808 0.518273 0.579843
C23 C 0.3795(3) 0.4969(6) 0.5789(3)
H16 H 0.376284 0.413796 0.571417
C24 C 0.2962(2) 0.7530(6) 0.6000(3)
C25 C 0.2567(3) 0.9308(6) 0.6030(3)
C26 C 0.2149(2) 0.7559(5) 0.6061(3)
C32 C 0.1676(2) 0.6901(6) 0.6087(3)
C33 C 0.1240(2) 0.7522(6) 0.6108(3)
H21 H 0.124129 0.836424 0.612549
C34 C 0.0800(2) 0.6877(6) 0.6103(3)
H22 H 0.050909 0.729859 0.612446
C35 C 0.1214(2) 0.5070(6) 0.6070(3)
H23 H 0.120818 0.422684 0.606710
C36 C 0.1666(2) 0.5641(5) 0.6078(3)
H24 H 0.195932 0.519746 0.607812
C37 C 0.5574(2) 0.6828(5) 0.5501(3)
C38 C 0.5862(3) 0.7793(7) 0.5997(3)
H25 H 0.623657 0.756732 0.619748
H26 H 0.584496 0.855330 0.577311
C39 C 0.5651(3) 0.7998(6) 0.6517(3)
C40 C 0.5345(3) 0.9013(7) 0.6516(4)
H27 H 0.527078 0.958452 0.618827
C41 C 0.5150(3) 0.9178(6) 0.7006(3)
H28 H 0.494887 0.986377 0.700315
C42 C 0.5254(2) 0.8324(6) 0.7499(3)
C43 C 0.5551(3) 0.7305(6) 0.7487(3)
H29 H 0.562287 0.672488 0.780917
C44 C 0.5743(3) 0.7142(7) 0.7003(3)
H30 H 0.593681 0.644586 0.700093
H33 H 0.001976 0.995881 0.596613
C54 C 0.5078(3) 0.8540(6) 0.8041(3)
Cd3 Cd 0.50504(2) 0.92856(4) 0.91716(2)
Cd4 Cd 0.50504(2) 0.57144(4) 0.41716(2)
Cd5 Cd 0.99971(2) 0.45742(4) 0.58996(2)
Cd6 Cd 0.00029(2) 0.95742(4) 0.91004(2)
Cd7 Cd 0.00029(2) 0.54258(4) 0.41004(2)
O9 O 0.43503(18) 0.3149(4) 0.5018(2)
O10 O 0.4732(2) 0.2865(4) 0.6473(2)
O11 O 0.52235(19) 0.4419(4) 0.6976(2)
O12 O 0.0243(2) 0.2978(5) 0.5446(2)
O14 O 0.0391(2) 0.3531(5) 0.6872(2)
O5 O 0.9757(2) 0.7022(5) 0.4554(2)
O6 O 0.95249(19) 0.6125(5) 0.5295(2)
O8 O 0.9609(2) 0.8531(5) 0.8128(2)
C45 C 0.9590(3) 0.7032(7) 0.5002(3)
C46 C 0.9431(4) 0.8283(8) 0.5166(4)
H31 H 0.961659 0.888977 0.501486
H32 H 0.905087 0.839111 0.492497
C47 C 0.9544(3) 0.8528(7) 0.5867(4)
C48 C 0.9862(4) 0.9471(8) 0.6184(4)
C49 C 0.9955(4) 0.9719(7) 0.6825(4)
C50 C 0.9731(3) 0.8984(7) 0.7155(4)
C51 C 0.9418(3) 0.7995(8) 0.6850(4)
H35 H 0.927450 0.748916 0.707605
C52 C 0.9320(3) 0.7765(9) 0.6206(4)
H36 H 0.910684 0.711097 0.599836
C53 C 0.9826(3) 0.9213(7) 0.7850(4)
O13 O 0.9873(2) 0.5080(5) 0.6860(2)
O5_2 O 0.0243(2) 0.2022(5) 0.0446(2)
H32_2 H 0.094913 0.339111 0.007503
O6_2 O 0.04751(19) 0.1125(5) 0.9705(2)
C45_2 C 0.0410(3) 0.2032(7) 0.9998(3)
C46_2 C 0.0569(4) 0.3283(8) 0.9834(4)
H31_2 H 0.038341 0.388977 0.998514
C47_2 C 0.0456(3) 0.3528(7) 0.9133(4)
C48_2 C 0.0138(4) 0.4471(8) 0.8816(4)
C49_2 C 0.0045(4) 0.4719(7) 0.8175(4)
C50_2 C 0.0269(3) 0.3984(7) 0.7845(4)
C51_2 C 0.0582(3) 0.2995(8) 0.8150(4)
H35_2 H 0.072550 0.248916 0.792395
C52_2 C 0.0680(3) 0.2765(9) 0.8794(4)
H36_2 H 0.089316 0.211097 0.900164
C53_2 C 0.0174(3) 0.4213(7) 0.7150(4)
N13 N 0.0810(2) 0.8509(5) 0.9374(3)
O2_2 O 0.43503(18) 0.1851(4) 0.0018(2)
Cd4_2 Cd 0.49496(2) 0.07144(4) 0.08284(2)
Cd7_2 Cd 0.99971(2) 0.04258(4) 0.08996(2)
N7_2 N 0.5744(2) 0.0523(5) 0.9157(3)
N8_2 N 0.7004(2) 0.3741(5) 0.9000(3)
N9_2 N 0.7866(2) 0.3771(5) 0.8939(3)
N10_2 N 0.74486(18) 0.1889(4) 0.8973(2)
N11_2 N 0.7414(3) 0.8194(6) 0.9024(5)
N12_2 N 0.9222(2) 0.0656(5) 0.8933(2)
O1_2 O 0.46999(18) 0.1064(4) 0.9357(2)
C19_2 C 0.5701(3) 0.1708(6) 0.9041(3)
H13_2 H 0.538048 0.208763 0.899089
C20_2 C 0.6111(2) 0.2407(6) 0.8991(3)
H14_2 H 0.607054 0.323905 0.892220
C21_2 C 0.6580(2) 0.1831(5) 0.9047(3)
C22_2 C 0.6628(3) 0.0587(6) 0.9161(3)
H15_2 H 0.694192 0.018273 0.920157
C24_2 C 0.7038(2) 0.2530(6) 0.9000(3)
C25_2 C 0.7433(3) 0.4308(6) 0.8970(3)
C26_2 C 0.7851(2) 0.2559(5) 0.8939(3)
C27_2 C 0.7422(3) 0.5660(6) 0.8978(4)
C28_2 C 0.6955(3) 0.6287(7) 0.8853(4)
H17_2 H 0.663324 0.587937 0.876298
C29_2 C 0.6974(3) 0.7547(7) 0.8863(5)
H18_2 H 0.665088 0.796203 0.874803
C30_2 C 0.7863(4) 0.7561(9) 0.9191(7)
H19_2 H 0.818381 0.798934 0.935063
C31_2 C 0.7894(4) 0.6317(8) 0.9148(7)
H20_2 H 0.821945 0.593168 0.923066
C32_2 C 0.8324(2) 0.1901(6) 0.8913(3)
C33_2 C 0.8760(2) 0.2522(6) 0.8892(3)
H21_2 H 0.875871 0.336424 0.887451
C34_2 C 0.9200(2) 0.1877(6) 0.8897(3)
H22_2 H 0.949091 0.229859 0.887554
C35_2 C 0.8786(2) 0.0070(6) 0.8930(3)
C36_2 C 0.8334(2) 0.0641(5) 0.8922(3)
H24_2 H 0.804068 0.019746 0.892188
C37_2 C 0.4426(2) 0.1828(5) 0.9499(3)
C38_2 C 0.4138(3) 0.2793(7) 0.9003(3)
H25_2 H 0.376343 0.256732 0.880252
H26_2 H 0.415504 0.355330 0.922689
C39_2 C 0.4349(3) 0.2998(6) 0.8483(3)
C40_2 C 0.4655(3) 0.4013(7) 0.8484(4)
H27_2 H 0.472922 0.458452 0.881173
C41_2 C 0.4850(3) 0.4178(6) 0.7994(3)
H28_2 H 0.505113 0.486377 0.799685
C42_2 C 0.4746(2) 0.3324(6) 0.7501(3)
C43_2 C 0.4449(3) 0.2305(6) 0.7513(3)
H29_2 H 0.437713 0.172488 0.719083
C44_2 C 0.4257(3) 0.2142(7) 0.7997(3)
H30_2 H 0.406319 0.144586 0.799907
H33_2 H 0.998024 0.495881 0.903387
H34_2 H 0.983215 0.537464 0.796929
C54_2 C 0.4922(3) 0.3540(6) 0.6959(3)
N1_2 N 0.4334(2) 0.8307(5) 0.9268(2)
N2_2 N 0.25948(19) 0.7104(5) 0.9420(2)
N3_2 N 0.2127(2) 0.5269(5) 0.9384(3)
N4_2 N 0.3010(2) 0.5221(5) 0.9396(3)
N6 N 0.2494(3) 0.0820(6) 0.9161(4)
C1_2 C 0.3885(2) 0.8887(6) 0.9212(3)
H1_2 H 0.386771 0.971825 0.913784
C2_2 C 0.3443(2) 0.8319(6) 0.9259(3)
H2_2 H 0.313606 0.875728 0.921130
C3_2 C 0.3470(2) 0.7085(5) 0.9379(3)
C4_2 C 0.3939(3) 0.6469(6) 0.9446(4)
H3_2 H 0.396943 0.564012 0.952801
C5_2 C 0.4356(3) 0.7115(6) 0.9389(4)
H4_2 H 0.466944 0.670159 0.943672
C6_2 C 0.3001(2) 0.6431(6) 0.9403(3)
C7_2 C 0.2170(2) 0.6485(5) 0.9409(3)
C8 C 0.2563(2) 0.4694(6) 0.9384(3)
C9_2 C 0.1701(2) 0.7184(6) 0.9412(3)
C10_2 C 0.1723(2) 0.8447(6) 0.9454(3)
H5_2 H 0.203397 0.886264 0.949428
C11_2 C 0.1269(3) 0.9066(6) 0.9434(3)
H6_2 H 0.128373 0.990703 0.946393
C12_2 C 0.0799(3) 0.7304(6) 0.9343(4)
H7_2 H 0.048335 0.690903 0.930268
C13_2 C 0.1236(3) 0.6606(6) 0.9367(3)
H8_2 H 0.121369 0.576413 0.935185
C14 C 0.2535(3) 0.3339(6) 0.9335(4)
C15 C 0.2051(3) 0.2744(7) 0.9089(5)
H9 H 0.173165 0.316911 0.898527
C16 C 0.2048(4) 0.1484(8) 0.8997(5)
H10 H 0.171926 0.109340 0.881331
C17 C 0.2950(3) 0.1421(7) 0.9393(4)
H11 H 0.326523 0.097709 0.950898
C18 C 0.2992(3) 0.2672(6) 0.9478(4)
H12 H 0.332523 0.304745 0.962848
C23_2 C 0.6205(3) 0.9969(6) 0.9211(3)
H16_2 H 0.623716 0.913796 0.928583
H23_2 H 0.879182 0.922684 0.893290
O9_2 O 0.56497(18) 0.8149(4) 0.9982(2)
O12_2 O 0.9757(2) 0.7978(5) 0.9554(2)
O6_3 O 0.04751(19) 0.3875(5) 0.4705(2)
O8_2 O 0.0391(2) 0.1469(5) 0.1872(2)
C45_3 C 0.0410(3) 0.2968(7) 0.4998(3)
C46_3 C 0.0569(4) 0.1717(8) 0.4834(4)
H31_3 H 0.038341 0.111023 0.498514
H32_3 H 0.094913 0.160889 0.507503
C47_3 C 0.0456(3) 0.1472(7) 0.4133(4)
C48_3 C 0.0138(4) 0.0529(8) 0.3816(4)
C49_3 C 0.0045(4) 0.0281(7) 0.3175(4)
C50_3 C 0.0269(3) 0.1016(7) 0.2845(4)
C51_3 C 0.0582(3) 0.2005(8) 0.3150(4)
H35_3 H 0.072550 0.251084 0.292395
C52_3 C 0.0680(3) 0.2235(9) 0.3794(4)
H36_3 H 0.089316 0.288903 0.400164
C53_3 C 0.0174(3) 0.0787(7) 0.2150(4)
N13_2 N 0.0810(2) 0.6491(5) 0.4374(3)
O13_2 O 0.0127(2) 0.4920(5) 0.3140(2)
N1_3 N 0.4334(2) 0.6693(5) 0.4268(2)
N2_3 N 0.25948(19) 0.7896(5) 0.4420(2)
N3_3 N 0.2127(2) 0.9731(5) 0.4384(3)
N4_3 N 0.3010(2) 0.9779(5) 0.4396(3)
N7_3 N 0.5744(2) 0.4477(5) 0.4157(3)
N8_3 N 0.7004(2) 0.1259(5) 0.4000(3)
N9_3 N 0.7866(2) 0.1229(5) 0.3939(3)
N10_3 N 0.74486(18) 0.3111(4) 0.3973(2)
N12_3 N 0.9222(2) 0.4344(5) 0.3933(2)
O1_3 O 0.46999(18) 0.3936(4) 0.4357(2)
O3_2 O 0.4732(2) 0.2135(4) 0.1473(2)
O4_2 O 0.52235(19) 0.0581(4) 0.1976(2)
C1_3 C 0.3885(2) 0.6113(6) 0.4212(3)
H1_3 H 0.386771 0.528175 0.413784
C2_3 C 0.3443(2) 0.6681(6) 0.4259(3)
H2_3 H 0.313606 0.624272 0.421130
C3_3 C 0.3470(2) 0.7915(5) 0.4379(3)
C4_3 C 0.3939(3) 0.8531(6) 0.4446(4)
H3_3 H 0.396943 0.935988 0.452801
C5_3 C 0.4356(3) 0.7885(6) 0.4389(4)
H4_3 H 0.466944 0.829841 0.443672
C6_3 C 0.3001(2) 0.8569(6) 0.4403(3)
C7_3 C 0.2170(2) 0.8515(5) 0.4409(3)
C9_3 C 0.1701(2) 0.7816(6) 0.4412(3)
C10_3 C 0.1723(2) 0.6553(6) 0.4454(3)
H5_3 H 0.203397 0.613736 0.449428
C11_3 C 0.1269(3) 0.5934(6) 0.4434(3)
H6_3 H 0.128373 0.509297 0.446393
C12_3 C 0.0799(3) 0.7696(6) 0.4343(4)
H7_3 H 0.048335 0.809097 0.430268
C13_3 C 0.1236(3) 0.8394(6) 0.4367(3)
H8_3 H 0.121369 0.923587 0.435185
C19_3 C 0.5701(3) 0.3292(6) 0.4041(3)
H13_3 H 0.538048 0.291237 0.399089
C20_3 C 0.6111(2) 0.2593(6) 0.3991(3)
H14_3 H 0.607054 0.176095 0.392220
C21_3 C 0.6580(2) 0.3169(5) 0.4047(3)
C22_3 C 0.6628(3) 0.4413(6) 0.4161(3)
H15_3 H 0.694192 0.481727 0.420157
C23_3 C 0.6205(3) 0.5031(6) 0.4211(3)
H16_3 H 0.623716 0.586204 0.428583
C24_3 C 0.7038(2) 0.2470(6) 0.4000(3)
C25_3 C 0.7433(3) 0.0692(6) 0.3970(3)
C26_3 C 0.7851(2) 0.2441(5) 0.3939(3)
C32_3 C 0.8324(2) 0.3099(6) 0.3913(3)
C33_3 C 0.8760(2) 0.2478(6) 0.3892(3)
H21_3 H 0.875871 0.163576 0.387451
C34_3 C 0.9200(2) 0.3123(6) 0.3897(3)
H22_3 H 0.949091 0.270141 0.387554
C35_3 C 0.8786(2) 0.4930(6) 0.3930(3)
H23_3 H 0.879182 0.577316 0.393290
C36_3 C 0.8334(2) 0.4359(5) 0.3922(3)
H24_3 H 0.804068 0.480254 0.392188
C37_3 C 0.4426(2) 0.3172(5) 0.4499(3)
C38_3 C 0.4138(3) 0.2207(7) 0.4003(3)
H25_3 H 0.376343 0.243268 0.380252
H26_3 H 0.415504 0.144670 0.422689
C39_3 C 0.4349(3) 0.2002(6) 0.3483(3)
C40_3 C 0.4655(3) 0.0987(7) 0.3484(4)
H27_3 H 0.472922 0.041548 0.381173
C41_3 C 0.4850(3) 0.0822(6) 0.2994(3)
H28_3 H 0.505113 0.013623 0.299685
C42_3 C 0.4746(2) 0.1676(6) 0.2501(3)
C43_3 C 0.4449(3) 0.2695(6) 0.2513(3)
H29_3 H 0.437713 0.327512 0.219083
C44_3 C 0.4257(3) 0.2858(7) 0.2997(3)
H30_3 H 0.406319 0.355414 0.299907
H33_3 H 0.998024 0.004119 0.403387
C54_3 C 0.4922(3) 0.1460(6) 0.1959(3)
O10_2 O 0.5268(2) 0.7135(4) 0.3527(2)
O11_2 O 0.47765(19) 0.5581(4) 0.3024(2)
O14_2 O 0.9609(2) 0.6469(5) 0.3128(2)
N11_3 N 0.7414(3) 0.6806(6) 0.4024(5)
O7_2 O 0.9873(2) 0.9920(5) 0.1860(2)
C27_3 C 0.7422(3) 0.9340(6) 0.3978(4)
C28_3 C 0.6955(3) 0.8713(7) 0.3853(4)
H17_3 H 0.663324 0.912063 0.376298
C29_3 C 0.6974(3) 0.7453(7) 0.3863(5)
H18_3 H 0.665088 0.703797 0.374803
C30_3 C 0.7863(4) 0.7439(9) 0.4191(7)
H19_3 H 0.818381 0.701066 0.435063
C31_3 C 0.7894(4) 0.8683(8) 0.4148(7)
H20_3 H 0.821945 0.906832 0.423066
H34_3 H 0.983215 0.962536 0.296929
N1_4 N 0.5666(2) 0.1693(5) 0.0732(2)
N2_4 N 0.74052(19) 0.2896(5) 0.0580(2)
N3_4 N 0.7873(2) 0.4731(5) 0.0616(3)
N4_4 N 0.6990(2) 0.4779(5) 0.0604(3)
N5_2 N 0.9190(2) 0.1491(5) 0.0626(3)
N6_2 N 0.7506(3) 0.9180(6) 0.0839(4)
C1_4 C 0.6115(2) 0.1113(6) 0.0788(3)
H1_4 H 0.613229 0.028175 0.086216
C2_4 C 0.6557(2) 0.1681(6) 0.0741(3)
H2_4 H 0.686394 0.124272 0.078870
C3_4 C 0.6530(2) 0.2915(5) 0.0621(3)
C4_4 C 0.6061(3) 0.3531(6) 0.0554(4)
H3_4 H 0.603057 0.435988 0.047199
C5_4 C 0.5644(3) 0.2885(6) 0.0611(4)
H4_4 H 0.533056 0.329841 0.056328
C6_4 C 0.6999(2) 0.3569(6) 0.0597(3)
C7_4 C 0.7830(2) 0.3515(5) 0.0591(3)
C8_2 C 0.7437(2) 0.5306(6) 0.0616(3)
C9_4 C 0.8299(2) 0.2816(6) 0.0588(3)
C10_4 C 0.8277(2) 0.1553(6) 0.0546(3)
H5_4 H 0.796603 0.113736 0.050572
C11_4 C 0.8731(3) 0.0934(6) 0.0566(3)
H6_4 H 0.871627 0.009297 0.053607
C12_4 C 0.9201(3) 0.2696(6) 0.0657(4)
H7_4 H 0.951665 0.309097 0.069732
C13_4 C 0.8764(3) 0.3394(6) 0.0633(3)
H8_4 H 0.878631 0.423587 0.064815
C14_2 C 0.7465(3) 0.6661(6) 0.0665(4)
C15_2 C 0.7949(3) 0.7256(7) 0.0911(5)
H9_2 H 0.826835 0.683089 0.101473
C16_2 C 0.7952(4) 0.8516(8) 0.1003(5)
H10_2 H 0.828074 0.890660 0.118669
C17_2 C 0.7050(3) 0.8579(7) 0.0607(4)
H11_2 H 0.673477 0.902291 0.049102
C18_2 C 0.7008(3) 0.7328(6) 0.0522(4)
H12_2 H 0.667477 0.695255 0.037152
C23_4 C 0.3795(3) 0.0031(6) 0.0789(3)
H16_4 H 0.376284 0.086204 0.071417
H23_4 H 0.120818 0.077316 0.106710
N7_4 N 0.4256(2) 0.9477(5) 0.0843(3)
N8_4 N 0.2996(2) 0.6259(5) 0.1000(3)
N9_4 N 0.2134(2) 0.6229(5) 0.1061(3)
N10_4 N 0.25514(18) 0.8111(4) 0.1027(2)
N11_4 N 0.2586(3) 0.1806(6) 0.0976(5)
N12_4 N 0.0778(2) 0.9344(5) 0.1067(2)
O1_4 O 0.53001(18) 0.8936(4) 0.0643(2)
C19_4 C 0.4299(3) 0.8292(6) 0.0959(3)
H13_4 H 0.461952 0.791237 0.100911
C20_4 C 0.3889(2) 0.7593(6) 0.1009(3)
H14_4 H 0.392946 0.676095 0.107780
C21_4 C 0.3420(2) 0.8169(5) 0.0953(3)
C22_4 C 0.3372(3) 0.9413(6) 0.0839(3)
H15_4 H 0.305808 0.981727 0.079843
C24_4 C 0.2962(2) 0.7470(6) 0.1000(3)
C25_4 C 0.2567(3) 0.5692(6) 0.1030(3)
C26_4 C 0.2149(2) 0.7441(5) 0.1061(3)
C27_4 C 0.2578(3) 0.4340(6) 0.1022(4)
C28_4 C 0.3045(3) 0.3713(7) 0.1147(4)
H17_4 H 0.336676 0.412063 0.123702
C29_4 C 0.3026(3) 0.2453(7) 0.1137(5)
H18_4 H 0.334912 0.203797 0.125197
C30_4 C 0.2137(4) 0.2439(9) 0.0809(7)
H19_4 H 0.181619 0.201066 0.064937
C31_4 C 0.2106(4) 0.3683(8) 0.0852(7)
H20_4 H 0.178055 0.406832 0.076934
C32_4 C 0.1676(2) 0.8099(6) 0.1087(3)
C33_4 C 0.1240(2) 0.7478(6) 0.1108(3)
H21_4 H 0.124129 0.663576 0.112549
C34_4 C 0.0800(2) 0.8123(6) 0.1103(3)
H22_4 H 0.050909 0.770141 0.112446
C35_4 C 0.1214(2) 0.9930(6) 0.1070(3)
C36_4 C 0.1666(2) 0.9359(5) 0.1078(3)
H24_4 H 0.195932 0.980254 0.107812
C37_4 C 0.5574(2) 0.8172(5) 0.0501(3)
C38_4 C 0.5862(3) 0.7207(7) 0.0997(3)
H25_4 H 0.623657 0.743268 0.119748
H26_4 H 0.584496 0.644670 0.077311
C39_4 C 0.5651(3) 0.7002(6) 0.1517(3)
C40_4 C 0.5345(3) 0.5987(7) 0.1516(4)
H27_4 H 0.527078 0.541548 0.118827
C41_4 C 0.5150(3) 0.5822(6) 0.2006(3)
H28_4 H 0.494887 0.513623 0.200315
C42_4 C 0.5254(2) 0.6676(6) 0.2499(3)
C43_4 C 0.5551(3) 0.7695(6) 0.2487(3)
H29_4 H 0.562287 0.827512 0.280917
C44_4 C 0.5743(3) 0.7858(7) 0.2003(3)
H30_4 H 0.593681 0.855414 0.200093
H33_4 H 0.001976 0.504119 0.096613
H34_4 H 0.016785 0.462536 0.203071
C54_4 C 0.5078(3) 0.6460(6) 0.3041(3)
O6_4 O 0.95249(19) 0.8875(5) 0.0295(2)
C45_4 C 0.9590(3) 0.7968(7) 0.0002(3)
C46_4 C 0.9431(4) 0.6717(8) 0.0166(4)
H31_4 H 0.961659 0.611023 0.001486
C47_4 C 0.9544(3) 0.6472(7) 0.0867(4)
C48_4 C 0.9862(4) 0.5529(8) 0.1184(4)
C49_4 C 0.9955(4) 0.5281(7) 0.1825(4)
C50_4 C 0.9731(3) 0.6016(7) 0.2155(4)
C51_4 C 0.9418(3) 0.7005(8) 0.1850(4)
H35_4 H 0.927450 0.751084 0.207605
C52_4 C 0.9320(3) 0.7235(9) 0.1206(4)
H36_4 H 0.910684 0.788903 0.099836
C53_4 C 0.9826(3) 0.5787(7) 0.2850(4)
H32_4 H 0.905087 0.660889 0.992497
N6_3 N 0.7506(3) 0.5820(6) 0.5839(4)
C8_3 C 0.7437(2) 0.9694(6) 0.5616(3)
C14_3 C 0.7465(3) 0.8339(6) 0.5665(4)
C15_3 C 0.7949(3) 0.7744(7) 0.5911(5)
H9_3 H 0.826835 0.816911 0.601473
C16_3 C 0.7952(4) 0.6484(8) 0.6003(5)
H10_3 H 0.828074 0.609340 0.618669
C17_3 C 0.7050(3) 0.6421(7) 0.5607(4)
H11_3 H 0.673477 0.597709 0.549102
C18_3 C 0.7008(3) 0.7672(6) 0.5522(4)
H12_3 H 0.667477 0.804745 0.537152
N6_4 N 0.2494(3) 0.4180(6) 0.4161(4)
C8_4 C 0.2563(2) 0.0306(6) 0.4384(3)
C14_4 C 0.2535(3) 0.1661(6) 0.4335(4)
C15_4 C 0.2051(3) 0.2256(7) 0.4089(5)
H9_4 H 0.173165 0.183089 0.398527
C16_4 C 0.2048(4) 0.3516(8) 0.3997(5)
H10_4 H 0.171926 0.390660 0.381331
C17_4 C 0.2950(3) 0.3579(7) 0.4393(4)
H11_4 H 0.326523 0.402291 0.450898
C18_4 C 0.2992(3) 0.2328(6) 0.4478(4)
H12_4 H 0.332523 0.195255 0.462848
loop_
_geom_bond_atom_site_label_1
_geom_bond_atom_site_label_2
_geom_bond_site_symmetry_1
_geom_bond_site_symmetry_2
N11 C29 1_555 1_555
C28 C27 1_555 1_555
H17 C28 1_555 1_555
C29 C28 1_555 1_555
H18 C29 1_555 1_555
C30 N11 1_555 1_555
H19 C30 1_555 1_555
C31 C27 1_555 1_555
H20 C31 1_555 1_555
C30 C31 1_555 1_555
Cd1 N1 1_555 1_555
N1 C1 1_555 1_555
N2 C6 1_555 1_555
N3 C7 1_555 1_555
N4 C6 1_555 1_555
N5 C11 1_555 1_555
N7 Cd1 1_555 1_555
N8 C24 1_555 1_555
N9 C25 1_555 1_555
N10 C24 1_555 1_555
N12 C34 1_555 1_555
O1 Cd1 1_555 1_555
O2 C37 1_555 1_555
O3 C54 1_555 1_555
O4 C54 1_555 1_555
C1 H1 1_555 1_555
C2 C1 1_555 1_555
H2 C2 1_555 1_555
C3 C2 1_555 1_555
C4 C3 1_555 1_555
H3 C4 1_555 1_555
C5 N1 1_555 1_555
H4 C5 1_555 1_555
C6 C3 1_555 1_555
C7 N2 1_555 1_555
C9 C7 1_555 1_555
C10 C9 1_555 1_555
H5 C10 1_555 1_555
C11 C10 1_555 1_555
H6 C11 1_555 1_555
C12 N5 1_555 1_555
H7 C12 1_555 1_555
C13 C9 1_555 1_555
H8 C13 1_555 1_555
C19 N7 1_555 1_555
H13 C19 1_555 1_555
C20 C19 1_555 1_555
H14 C20 1_555 1_555
C21 C20 1_555 1_555
C22 C21 1_555 1_555
H15 C22 1_555 1_555
C23 N7 1_555 1_555
H16 C23 1_555 1_555
C24 C21 1_555 1_555
C25 N8 1_555 1_555
C26 N9 1_555 1_555
C32 C26 1_555 1_555
C33 C32 1_555 1_555
H21 C33 1_555 1_555
C34 C33 1_555 1_555
H22 C34 1_555 1_555
C35 N12 1_555 1_555
H23 C35 1_555 1_555
C36 C32 1_555 1_555
H24 C36 1_555 1_555
C37 O1 1_555 1_555
C38 C37 1_555 1_555
H25 C38 1_555 1_555
H26 C38 1_555 1_555
C39 C38 1_555 1_555
C40 C39 1_555 1_555
H27 C40 1_555 1_555
C41 C40 1_555 1_555
H28 C41 1_555 1_555
C42 C41 1_555 1_555
C43 C42 1_555 1_555
H29 C43 1_555 1_555
C44 C39 1_555 1_555
H30 C44 1_555 1_555
C54 C42 1_555 1_555
Cd3 O3 1_555 1_555
Cd4 O2 1_555 1_555
Cd5 N5 1_555 1_555
O9 Cd1 1_555 1_555
O10 Cd1 1_555 1_555
O11 Cd1 1_555 1_555
N10 C26 1_555 1_555
O4 Cd3 1_555 1_555
C4 C5 1_555 1_555
C12 C13 1_555 1_555
C22 C23 1_555 1_555
C35 C36 1_555 1_555
C43 C44 1_555 1_555
O5 C45 1_555 1_555
O6 Cd5 1_555 1_555
O8 C53 1_555 1_555
C45 O6 1_555 1_555
C46 C45 1_555 1_555
H31 C46 1_555 1_555
H32 C46 1_555 1_555
C47 C46 1_555 1_555
C48 C47 1_555 1_555
C49 C48 1_555 1_555
C50 C49 1_555 1_555
C51 C50 1_555 1_555
H35 C51 1_555 1_555
C52 C47 1_555 1_555
H36 C52 1_555 1_555
C53 C50 1_555 1_555
O13 Cd5 1_555 1_555
C51 C52 1_555 1_555
O14 C53_2 1_555 1_555
C45_2 O6_2 1_555 1_555
C46_2 C45_2 1_555 1_555
H31_2 C46_2 1_555 1_555
C47_2 C46_2 1_555 1_555
C48_2 C47_2 1_555 1_555
C49_2 C48_2 1_555 1_555
C50_2 C49_2 1_555 1_555
C51_2 C50_2 1_555 1_555
H35_2 C51_2 1_555 1_555
C52_2 C47_2 1_555 1_555
H36_2 C52_2 1_555 1_555
C53_2 C50_2 1_555 1_555
C51_2 C52_2 1_555 1_555
N13 Cd6 1_555 1_555
Cd4_2 O2_2 1_555 1_555
N8_2 C24_2 1_555 1_555
N9_2 C25_2 1_555 1_555
N10_2 C24_2 1_555 1_555
N11_2 C29_2 1_555 1_555
N12_2 C34_2 1_555 1_555
O10 C54_2 1_555 1_555
O11 C54_2 1_555 1_555
C19_2 N7_2 1_555 1_555
H13_2 C19_2 1_555 1_555
C20_2 C19_2 1_555 1_555
H14_2 C20_2 1_555 1_555
C21_2 C20_2 1_555 1_555
C22_2 C21_2 1_555 1_555
H15_2 C22_2 1_555 1_555
C24_2 C21_2 1_555 1_555
C25_2 N8_2 1_555 1_555
C26_2 N9_2 1_555 1_555
C27_2 C25_2 1_555 1_555
C28_2 C27_2 1_555 1_555
H17_2 C28_2 1_555 1_555
C29_2 C28_2 1_555 1_555
H18_2 C29_2 1_555 1_555
C30_2 N11_2 1_555 1_555
H19_2 C30_2 1_555 1_555
C31_2 C27_2 1_555 1_555
H20_2 C31_2 1_555 1_555
C32_2 C26_2 1_555 1_555
C33_2 C32_2 1_555 1_555
H21_2 C33_2 1_555 1_555
C34_2 C33_2 1_555 1_555
H22_2 C34_2 1_555 1_555
C35_2 N12_2 1_555 1_555
C36_2 C32_2 1_555 1_555
H24_2 C36_2 1_555 1_555
C37_2 O1_2 1_555 1_555
C38_2 C37_2 1_555 1_555
H25_2 C38_2 1_555 1_555
H26_2 C38_2 1_555 1_555
C39_2 C38_2 1_555 1_555
C40_2 C39_2 1_555 1_555
H27_2 C40_2 1_555 1_555
C41_2 C40_2 1_555 1_555
H28_2 C41_2 1_555 1_555
C42_2 C41_2 1_555 1_555
C43_2 C42_2 1_555 1_555
H29_2 C43_2 1_555 1_555
C44_2 C39_2 1_555 1_555
H30_2 C44_2 1_555 1_555
C54_2 C42_2 1_555 1_555
N10_2 C26_2 1_555 1_555
C30_2 C31_2 1_555 1_555
C35_2 C36_2 1_555 1_555
C43_2 C44_2 1_555 1_555
Cd3 N1_2 1_555 1_555
N1_2 C1_2 1_555 1_555
N2_2 C6_2 1_555 1_555
N3_2 C7_2 1_555 1_555
N4_2 C6_2 1_555 1_555
N13 C11_2 1_555 1_555
N6 C16 1_555 1_555
C1_2 H1_2 1_555 1_555
C2_2 C1_2 1_555 1_555
H2_2 C2_2 1_555 1_555
C3_2 C2_2 1_555 1_555
C4_2 C3_2 1_555 1_555
H3_2 C4_2 1_555 1_555
C5_2 N1_2 1_555 1_555
H4_2 C5_2 1_555 1_555
C6_2 C3_2 1_555 1_555
C7_2 N2_2 1_555 1_555
C8 N3_2 1_555 1_555
C9_2 C7_2 1_555 1_555
C10_2 C9_2 1_555 1_555
H5_2 C10_2 1_555 1_555
C11_2 C10_2 1_555 1_555
H6_2 C11_2 1_555 1_555
C12_2 N13 1_555 1_555
H7_2 C12_2 1_555 1_555
C13_2 C9_2 1_555 1_555
H8_2 C13_2 1_555 1_555
C14 C8 1_555 1_555
C15 C14 1_555 1_555
H9 C15 1_555 1_555
C16 C15 1_555 1_555
H10 C16 1_555 1_555
C17 N6 1_555 1_555
H11 C17 1_555 1_555
C18 C14 1_555 1_555
H12 C18 1_555 1_555
H16_2 C23_2 1_555 1_555
O9_2 Cd3 1_555 1_555
N4_2 C8 1_555 1_555
C4_2 C5_2 1_555 1_555
C12_2 C13_2 1_555 1_555
C17 C18 1_555 1_555
O12 C45_3 1_555 1_555
O6_3 Cd7 1_555 1_555
O8_2 C53_3 1_555 1_555
C45_3 O6_3 1_555 1_555
C46_3 C45_3 1_555 1_555
H31_3 C46_3 1_555 1_555
H32_3 C46_3 1_555 1_555
C47_3 C46_3 1_555 1_555
C48_3 C47_3 1_555 1_555
C49_3 C48_3 1_555 1_555
C50_3 C49_3 1_555 1_555
C51_3 C50_3 1_555 1_555
H35_3 C51_3 1_555 1_555
C52_3 C47_3 1_555 1_555
H36_3 C52_3 1_555 1_555
C53_3 C50_3 1_555 1_555
N13_2 Cd7 1_555 1_555
O13_2 Cd7 1_555 1_555
C51_3 C52_3 1_555 1_555
Cd4 N1_3 1_555 1_555
N1_3 C1_3 1_555 1_555
N2_3 C6_3 1_555 1_555
N3_3 C7_3 1_555 1_555
N4_3 C6_3 1_555 1_555
N13_2 C11_3 1_555 1_555
N7_3 Cd4 1_555 1_555
N8_3 C24_3 1_555 1_555
N9_3 C25_3 1_555 1_555
N10_3 C24_3 1_555 1_555
N12_3 C34_3 1_555 1_555
O1_3 Cd4 1_555 1_555
O9 C37_3 1_555 1_555
O3_2 C54_3 1_555 1_555
O4_2 C54_3 1_555 1_555
C1_3 H1_3 1_555 1_555
C2_3 C1_3 1_555 1_555
H2_3 C2_3 1_555 1_555
C3_3 C2_3 1_555 1_555
C4_3 C3_3 1_555 1_555
H3_3 C4_3 1_555 1_555
C5_3 N1_3 1_555 1_555
H4_3 C5_3 1_555 1_555
C6_3 C3_3 1_555 1_555
C7_3 N2_3 1_555 1_555
C9_3 C7_3 1_555 1_555
C10_3 C9_3 1_555 1_555
H5_3 C10_3 1_555 1_555
C11_3 C10_3 1_555 1_555
H6_3 C11_3 1_555 1_555
C12_3 N13_2 1_555 1_555
H7_3 C12_3 1_555 1_555
C13_3 C9_3 1_555 1_555
H8_3 C13_3 1_555 1_555
C19_3 N7_3 1_555 1_555
H13_3 C19_3 1_555 1_555
C20_3 C19_3 1_555 1_555
H14_3 C20_3 1_555 1_555
C21_3 C20_3 1_555 1_555
C22_3 C21_3 1_555 1_555
H15_3 C22_3 1_555 1_555
C23_3 N7_3 1_555 1_555
H16_3 C23_3 1_555 1_555
C24_3 C21_3 1_555 1_555
C25_3 N8_3 1_555 1_555
C26_3 N9_3 1_555 1_555
C32_3 C26_3 1_555 1_555
C33_3 C32_3 1_555 1_555
H21_3 C33_3 1_555 1_555
C34_3 C33_3 1_555 1_555
H22_3 C34_3 1_555 1_555
C35_3 N12_3 1_555 1_555
H23_3 C35_3 1_555 1_555
C36_3 C32_3 1_555 1_555
H24_3 C36_3 1_555 1_555
C37_3 O1_3 1_555 1_555
C38_3 C37_3 1_555 1_555
H25_3 C38_3 1_555 1_555
H26_3 C38_3 1_555 1_555
C39_3 C38_3 1_555 1_555
C40_3 C39_3 1_555 1_555
H27_3 C40_3 1_555 1_555
C41_3 C40_3 1_555 1_555
H28_3 C41_3 1_555 1_555
C42_3 C41_3 1_555 1_555
C43_3 C42_3 1_555 1_555
H29_3 C43_3 1_555 1_555
C44_3 C39_3 1_555 1_555
H30_3 C44_3 1_555 1_555
C54_3 C42_3 1_555 1_555
Cd4_2 O3_2 1_555 1_555
O10_2 Cd4 1_555 1_555
O11_2 Cd4 1_555 1_555
N10_3 C26_3 1_555 1_555
O4_2 Cd4_2 1_555 1_555
C4_3 C5_3 1_555 1_555
C12_3 C13_3 1_555 1_555
C22_3 C23_3 1_555 1_555
C35_3 C36_3 1_555 1_555
C43_3 C44_3 1_555 1_555
N11_3 C29_3 1_555 1_555
C28_3 C27_3 1_555 1_555
H17_3 C28_3 1_555 1_555
C29_3 C28_3 1_555 1_555
H18_3 C29_3 1_555 1_555
C30_3 N11_3 1_555 1_555
H19_3 C30_3 1_555 1_555
C31_3 C27_3 1_555 1_555
H20_3 C31_3 1_555 1_555
C30_3 C31_3 1_555 1_555
Cd4_2 N1_4 1_555 1_555
N1_4 C1_4 1_555 1_555
N2_4 C6_4 1_555 1_555
N3_4 C7_4 1_555 1_555
N4_4 C6_4 1_555 1_555
N5_2 C11_4 1_555 1_555
N6_2 C16_2 1_555 1_555
C1_4 H1_4 1_555 1_555
C2_4 C1_4 1_555 1_555
H2_4 C2_4 1_555 1_555
C3_4 C2_4 1_555 1_555
C4_4 C3_4 1_555 1_555
H3_4 C4_4 1_555 1_555
C5_4 N1_4 1_555 1_555
H4_4 C5_4 1_555 1_555
C6_4 C3_4 1_555 1_555
C7_4 N2_4 1_555 1_555
C8_2 N3_4 1_555 1_555
C9_4 C7_4 1_555 1_555
C10_4 C9_4 1_555 1_555
H5_4 C10_4 1_555 1_555
C11_4 C10_4 1_555 1_555
H6_4 C11_4 1_555 1_555
C12_4 N5_2 1_555 1_555
H7_4 C12_4 1_555 1_555
C13_4 C9_4 1_555 1_555
H8_4 C13_4 1_555 1_555
C14_2 C8_2 1_555 1_555
C15_2 C14_2 1_555 1_555
H9_2 C15_2 1_555 1_555
C16_2 C15_2 1_555 1_555
H10_2 C16_2 1_555 1_555
C17_2 N6_2 1_555 1_555
H11_2 C17_2 1_555 1_555
C18_2 C14_2 1_555 1_555
H12_2 C18_2 1_555 1_555
H16_4 C23_4 1_555 1_555
Cd7_2 N5_2 1_555 1_555
N4_4 C8_2 1_555 1_555
C4_4 C5_4 1_555 1_555
C12_4 C13_4 1_555 1_555
C17_2 C18_2 1_555 1_555
N8_4 C24_4 1_555 1_555
N9_4 C25_4 1_555 1_555
N10_4 C24_4 1_555 1_555
N11_4 C29_4 1_555 1_555
N12_4 C34_4 1_555 1_555
O10_2 C54_4 1_555 1_555
O11_2 C54_4 1_555 1_555
C19_4 N7_4 1_555 1_555
H13_4 C19_4 1_555 1_555
C20_4 C19_4 1_555 1_555
H14_4 C20_4 1_555 1_555
C21_4 C20_4 1_555 1_555
C22_4 C21_4 1_555 1_555
H15_4 C22_4 1_555 1_555
C24_4 C21_4 1_555 1_555
C25_4 N8_4 1_555 1_555
C26_4 N9_4 1_555 1_555
C27_4 C25_4 1_555 1_555
C28_4 C27_4 1_555 1_555
H17_4 C28_4 1_555 1_555
C29_4 C28_4 1_555 1_555
H18_4 C29_4 1_555 1_555
C30_4 N11_4 1_555 1_555
H19_4 C30_4 1_555 1_555
C31_4 C27_4 1_555 1_555
H20_4 C31_4 1_555 1_555
C32_4 C26_4 1_555 1_555
C33_4 C32_4 1_555 1_555
H21_4 C33_4 1_555 1_555
C34_4 C33_4 1_555 1_555
H22_4 C34_4 1_555 1_555
C35_4 N12_4 1_555 1_555
C36_4 C32_4 1_555 1_555
H24_4 C36_4 1_555 1_555
C37_4 O1_4 1_555 1_555
C38_4 C37_4 1_555 1_555
H25_4 C38_4 1_555 1_555
H26_4 C38_4 1_555 1_555
C39_4 C38_4 1_555 1_555
C40_4 C39_4 1_555 1_555
H27_4 C40_4 1_555 1_555
C41_4 C40_4 1_555 1_555
H28_4 C41_4 1_555 1_555
C42_4 C41_4 1_555 1_555
C43_4 C42_4 1_555 1_555
H29_4 C43_4 1_555 1_555
C44_4 C39_4 1_555 1_555
H30_4 C44_4 1_555 1_555
C54_4 C42_4 1_555 1_555
N10_4 C26_4 1_555 1_555
C30_4 C31_4 1_555 1_555
C35_4 C36_4 1_555 1_555
C43_4 C44_4 1_555 1_555
O14_2 C53_4 1_555 1_555
C45_4 O6_4 1_555 1_555
C46_4 C45_4 1_555 1_555
H31_4 C46_4 1_555 1_555
C47_4 C46_4 1_555 1_555
C48_4 C47_4 1_555 1_555
C49_4 C48_4 1_555 1_555
C50_4 C49_4 1_555 1_555
C51_4 C50_4 1_555 1_555
H35_4 C51_4 1_555 1_555
C52_4 C47_4 1_555 1_555
H36_4 C52_4 1_555 1_555
C53_4 C50_4 1_555 1_555
C51_4 C52_4 1_555 1_555
N6_3 C16_3 1_555 1_555
C14_3 C8_3 1_555 1_555
C15_3 C14_3 1_555 1_555
H9_3 C15_3 1_555 1_555
C16_3 C15_3 1_555 1_555
H10_3 C16_3 1_555 1_555
C17_3 N6_3 1_555 1_555
H11_3 C17_3 1_555 1_555
C18_3 C14_3 1_555 1_555
H12_3 C18_3 1_555 1_555
C17_3 C18_3 1_555 1_555
N6_4 C16_4 1_555 1_555
C14_4 C8_4 1_555 1_555
C15_4 C14_4 1_555 1_555
H9_4 C15_4 1_555 1_555
C16_4 C15_4 1_555 1_555
H10_4 C16_4 1_555 1_555
C17_4 N6_4 1_555 1_555
H11_4 C17_4 1_555 1_555
C18_4 C14_4 1_555 1_555
H12_4 C18_4 1_555 1_555
C17_4 C18_4 1_555 1_555

#END
