
###############################################################################
#
# This file contains modified crystal structure data generated from the
# MOF subset of the Cambridge Structural Database (CSD) v543 
# hosted by the Cambridge Crystallographic Data Centre (CCDC).
#
# This work is licensed under the Creative Commons
# Attribution-NonCommercial-ShareAlike 4.0 International License.
# To view a copy of this license, visit
# http://creativecommons.org/licenses/by-nc-sa/4.0/
# or send a letter to
# Creative Commons, PO Box 1866, Mountain View, CA 94042, USA.
#
# CIF created using the CSD Python API on 29 September 2022
# The structure has been converted into the P1 space group
# The structure has a 3D framework
# The original CSD entry KIYMIQ is in the hexagonal crystal system
# The original CSD entry KIYMIQ is in a Sohncke space group
# The framework has been calculated to contain at least 10.0% void space
# The void calculation uses a probe of radius 1.32A, grid spacing 0.4
#
###############################################################################

data_KIYMIQ
_chemical_formula_moiety         '(C90 H78 N6 Na12 O28)n'
_symmetry_cell_setting           triclinic
_symmetry_space_group_name_H-M   'P 1'
_symmetry_Int_Tables_number      1
_space_group_name_Hall           'P 1'
loop_
_symmetry_equiv_pos_site_id
_symmetry_equiv_pos_as_xyz
1 x,y,z
_cell_length_a                   18.2186(6)
_cell_length_b                   18.2186(6)
_cell_length_c                   8.6880(3)
_cell_angle_alpha                90
_cell_angle_beta                 90
_cell_angle_gamma                120
_cell_volume                     2497.36
loop_
_atom_site_label
_atom_site_type_symbol
_atom_site_fract_x
_atom_site_fract_y
_atom_site_fract_z
C3 C 0.03583(15) 0.63697(15) 0.3415(3)
C6 C 0.06715(18) 0.71423(18) 0.4249(4)
H2 H 0.1247 0.7462 0.4472
C8 C 0.0139(2) 0.7418(2) 0.4722(6)
H4 H 0.0356 0.7925 0.5263
C10 C 0.05213(18) 0.53159(18) 0.2040(3)
H6 H 0.0865 0.5117 0.1653
C11 C 0.08883(15) 0.60468(16) 0.2889(3)
C12 C 0.18162(15) 0.64328(15) 0.3284(3)
O3 O 0.22335(12) 0.61764(12) 0.2525(2)
O4 O 0.21330(12) 0.69580(14) 0.4344(3)
Na4 Na 0.36356(6) 0.72521(8) 0.34299(13)
Na5 Na 0.27479(8) 0.63835(6) 0.00965(13)
Na7 Na 0.25908(7) 0.74803(9) 0.67839(14)
Na8 Na 0.25197(9) 0.51105(11) 0.34506(14)
Na1 Na 0.63835(6) 0.36356(6) 0.17632(13)
O1 O 0.78050(12) 0.39047(11) 0.2666(2)
C1 C 0.81851(15) 0.45941(15) 0.1940(3)
C2 C 0.91269(15) 0.51320(15) 0.2252(3)
C4 C 0.94699(16) 0.59041(16) 0.3077(3)
O2 O 0.78413(13) 0.48498(13) 0.1022(3)
C5 C 0.96565(17) 0.48575(18) 0.1732(4)
H1 H 0.9436 0.4359 0.1165
C7 C 0.89489(18) 0.62207(19) 0.3624(5)
H3 H 0.8369 0.5916 0.3436
C9 C 0.9277(2) 0.6953(3) 0.4410(7)
H5 H 0.8923 0.7151 0.4748
Na2 Na 0.74092(7) 0.25197(9) 0.17839(14)
O5 O 0.76784(19) 0.13880(25) 0.1738(4)
N1 N 0.7121(2) 0.0012(3) 0.2450(4)
C13 C 0.7110(3) 0.0695(4) 0.2056(6)
H7 H 0.6573 0.0636 0.2016
C15 C 0.7880(6) 0.0062(8) 0.269(2)
H12 H 0.8269 0.0604 0.3127
Na3 Na 0.72521(8) 0.36165(6) 0.50965(13)
O7 O 0.70085(18) 0.21587(13) 0.4355(3)
O8 O 0.61764(12) 0.39429(17) 0.4192(2)
O9 O 0.60571(17) 0.22335(12) 0.0858(2)
O11 O 0.51750(18) 0.21330(12) 0.2677(3)
O6 O 0.60953(11) 0.39003(16) 0.9333(2)
O10 O 0.78670(12) 0.30420(14) 0.9344(3)
Na6 Na 0.74803(9) 0.48895(11) 0.84506(14)
C3_2 C 0.36303(15) 0.39886(21) 0.0082(3)
C6_2 C 0.28577(18) 0.35292(25) 0.0916(4)
H2_2 H 0.2538 0.3785 0.1139
C7_2 C 0.37793(19) 0.27282(26) 0.0291(5)
H3_2 H 0.4084 0.2453 0.0103
C8_2 C 0.2582(2) 0.2721(3) 0.1389(6)
H4_2 H 0.2075 0.2431 0.1930
C9_2 C 0.3047(3) 0.2324(4) 0.1077(7)
H5_2 H 0.2849 0.1772 0.1415
O4_2 O 0.30420(14) 0.51750(18) 0.1011(3)
Na8_2 Na 0.48895(11) 0.74092(14) 0.01172(14)
Na1_2 Na 0.63644(6) 0.27479(8) 0.84299(13)
C1_2 C 0.54059(15) 0.35910(21) 0.8607(3)
C2_2 C 0.48680(15) 0.39949(21) 0.8919(3)
C4_2 C 0.40959(16) 0.35658(23) 0.9744(3)
O2_2 O 0.51502(13) 0.29915(18) 0.7689(3)
C5_2 C 0.51425(18) 0.47990(25) 0.8399(4)
H1_2 H 0.5641 0.5077 0.7832
C10_2 C 0.46841(18) 0.52054(25) 0.8707(3)
H6_2 H 0.4883 0.5748 0.8320
C11_2 C 0.39532(16) 0.48415(22) 0.9556(3)
C12_2 C 0.35672(15) 0.53834(21) 0.9951(3)
O3_2 O 0.38236(12) 0.60571(17) 0.9192(2)
O5_2 O 0.86120(25) 0.62904(31) 0.8405(4)
N1_2 N 0.9988(3) 0.7109(4) 0.9117(4)
C13_2 C 0.9305(4) 0.6415(5) 0.8723(6)
H7_2 H 0.9364 0.5937 0.8683
C15_2 C 0.9938(8) 0.7818(10) 0.936(2)
H12_2 H 0.9396 0.7665 0.9794
Na5_2 Na 0.36165(6) 0.63644(10) 0.67632(13)
O6_2 O 0.60997(16) 0.21950(19) 0.5999(2)
O9_2 O 0.77665(12) 0.38236(21) 0.7525(2)
O10_2 O 0.69580(14) 0.48250(18) 0.6011(3)
Na6_2 Na 0.51105(11) 0.25908(14) 0.51172(14)
C1_3 C 0.64090(21) 0.18149(15) 0.5273(3)
C2_3 C 0.60051(21) 0.08731(15) 0.5585(3)
C4_3 C 0.64342(23) 0.05301(16) 0.6410(3)
C5_3 C 0.52010(25) 0.03435(17) 0.5065(4)
H1_3 H 0.4923 0.0564 0.4498
C7_3 C 0.72718(26) 0.10511(18) 0.6957(5)
H3_3 H 0.7547 0.1631 0.6769
C9_3 C 0.7676(4) 0.0723(2) 0.7743(7)
H5_3 H 0.8228 0.1077 0.8081
O5_3 O 0.37096(31) 0.23216(19) 0.5071(4)
N1_3 N 0.2891(4) 0.2879(2) 0.5783(4)
C13_3 C 0.3585(5) 0.2890(3) 0.5389(6)
H7_3 H 0.4063 0.3427 0.5349
C14 C 0.2817(9) 0.3604(5) 0.6070(9)
H8 H 0.2558 0.3550 0.7058
H9 H 0.2473 0.3654 0.5286
H10 H 0.3370 0.4101 0.6062
C15_3 C 0.2182(10) 0.2120(6) 0.602(2)
H11 H 0.1812 0.2191 0.6717
H12_3 H 0.2335 0.1731 0.6460
H13 H 0.1896 0.1900 0.5060
C3_3 C 0.60114(21) 0.96417(15) 0.6748(3)
C6_3 C 0.64708(25) 0.93285(18) 0.7582(4)
H2_3 H 0.6215 0.8753 0.7805
C8_3 C 0.7279(3) 0.9861(2) 0.8055(6)
H4_3 H 0.7569 0.9644 0.8596
C10_3 C 0.47946(25) 0.94787(18) 0.5373(3)
H6_3 H 0.4252 0.9135 0.4986
C11_3 C 0.51585(22) 0.91117(15) 0.6222(3)
C12_3 C 0.46166(21) 0.81838(15) 0.6617(3)
O3_3 O 0.39429(17) 0.77665(12) 0.5858(2)
O4_3 O 0.48250(18) 0.78670(12) 0.7677(3)
O1_2 O 0.21950(12) 0.60953(11) 0.7666(2)
C1_4 C 0.18149(15) 0.54059(15) 0.6940(3)
C2_4 C 0.08731(15) 0.48680(15) 0.7252(3)
C4_4 C 0.05301(16) 0.40959(16) 0.8077(3)
O2_3 O 0.21587(13) 0.51502(13) 0.6022(3)
C5_4 C 0.03435(17) 0.51425(18) 0.6732(4)
H1_4 H 0.0564 0.5641 0.6165
C7_4 C 0.10511(18) 0.37793(19) 0.8624(5)
H3_4 H 0.1631 0.4084 0.8436
C9_4 C 0.0723(2) 0.3047(3) 0.9410(7)
H5_4 H 0.1077 0.2849 0.9748
O5_4 O 0.23216(19) 0.86120(25) 0.6738(4)
N1_4 N 0.2879(2) 0.9988(3) 0.7450(4)
C13_4 C 0.2890(3) 0.9305(4) 0.7056(6)
H7_4 H 0.3427 0.9364 0.7016
C15_4 C 0.2120(6) 0.9938(8) 0.769(2)
H12_4 H 0.1731 0.9396 0.8127
O6_3 O 0.39047(11) 0.60997(16) 0.4333(2)
O7_2 O 0.29915(18) 0.78413(13) 0.9355(3)
H4_4 H 0.9644 0.2075 0.0263
C3_4 C 0.96417(15) 0.36303(15) 0.8415(3)
C6_4 C 0.93285(18) 0.28577(18) 0.9249(4)
H2_4 H 0.8753 0.2538 0.9472
C8_4 C 0.9861(2) 0.2582(2) 0.9722(6)
C10_4 C 0.94787(18) 0.46841(18) 0.7040(3)
H6_4 H 0.9135 0.4883 0.6653
C11_4 C 0.91117(15) 0.39532(16) 0.7889(3)
C12_4 C 0.81838(15) 0.35672(15) 0.8284(3)
C1_5 C 0.45941(15) 0.64090(21) 0.3607(3)
C2_5 C 0.51320(15) 0.60051(21) 0.3919(3)
C3_5 C 0.63697(15) 0.60114(21) 0.5082(3)
C4_5 C 0.59041(16) 0.64342(23) 0.4744(3)
O2_4 O 0.48498(13) 0.70085(18) 0.2689(3)
C5_5 C 0.48575(18) 0.52010(25) 0.3399(4)
H1_5 H 0.4359 0.4923 0.2832
C6_5 C 0.71423(18) 0.64708(25) 0.5916(4)
H2_5 H 0.7462 0.6215 0.6139
C7_5 C 0.62207(19) 0.72718(26) 0.5291(5)
H3_5 H 0.5916 0.7547 0.5103
C8_5 C 0.7418(2) 0.7279(3) 0.6389(6)
H4_5 H 0.7925 0.7569 0.6930
C9_5 C 0.6953(3) 0.7676(4) 0.6077(7)
H5_5 H 0.7151 0.8228 0.6415
C10_5 C 0.53159(18) 0.47946(25) 0.3707(3)
H6_5 H 0.5117 0.4252 0.3320
C11_5 C 0.60468(16) 0.51585(22) 0.4556(3)
C12_5 C 0.64328(15) 0.46166(21) 0.4951(3)
O5_5 O 0.13880(25) 0.37096(31) 0.3405(4)
N1_5 N 0.0012(3) 0.2891(4) 0.4117(4)
C13_5 C 0.0695(4) 0.3585(5) 0.3723(6)
H7_5 H 0.0636 0.4063 0.3683
C15_5 C 0.0062(8) 0.2182(10) 0.436(2)
H12_5 H 0.0604 0.2335 0.4794
O6_4 O 0.39003(16) 0.78050(19) 0.0999(2)
C3_6 C 0.39886(21) 0.03583(15) 0.1748(3)
C6_6 C 0.35292(25) 0.06715(18) 0.2582(4)
H2_6 H 0.3785 0.1247 0.2805
C8_6 C 0.2721(3) 0.0139(2) 0.3055(6)
H4_6 H 0.2431 0.0356 0.3596
C10_6 C 0.52054(25) 0.05213(18) 0.0373(3)
C11_6 C 0.48415(22) 0.08883(15) 0.1222(3)
C12_6 C 0.53834(21) 0.18162(15) 0.1617(3)
H6_6 H 0.5748 0.0865 0.9986
C1_6 C 0.35910(21) 0.81851(15) 0.0273(3)
C2_6 C 0.39949(21) 0.91269(15) 0.0585(3)
C4_6 C 0.35658(23) 0.94699(16) 0.1410(3)
C5_6 C 0.47990(25) 0.96565(17) 0.0065(4)
C7_6 C 0.27282(26) 0.89489(18) 0.1957(5)
H3_6 H 0.2453 0.8369 0.1769
C9_6 C 0.2324(4) 0.9277(2) 0.2743(7)
H5_6 H 0.1772 0.8923 0.3081
O5_6 O 0.62904(31) 0.76784(19) 0.0071(4)
N1_6 N 0.7109(4) 0.7121(2) 0.0783(4)
C13_6 C 0.6415(5) 0.7110(3) 0.0389(6)
H7_6 H 0.5937 0.6573 0.0349
C14_2 C 0.7183(9) 0.6396(5) 0.1070(9)
H8_2 H 0.7442 0.6450 0.2058
H9_2 H 0.7527 0.6346 0.0286
H10_2 H 0.6630 0.5899 0.1062
C15_6 C 0.7818(10) 0.7880(6) 0.102(2)
H11_2 H 0.8188 0.7809 0.1717
H12_6 H 0.7665 0.8269 0.1460
H13_2 H 0.8104 0.8100 0.0060
H1_6 H 0.5077 0.9436 0.9498
C14_3 C 0.6396(5) 0.9213(7) 0.2737(9)
H8_3 H 0.6450 0.9008 0.3725
H9_3 H 0.6346 0.8819 0.1953
H10_3 H 0.5899 0.9269 0.2729
H11_3 H 0.7809 0.9621 0.3384
H13_3 H 0.8100 0.9996 0.1727
H8_4 H 0.0992 0.7442 0.0392
H11_4 H 0.0379 0.8188 0.0051
C14_4 C 0.0787(7) 0.7183(9) 0.9404(9)
H9_4 H 0.1181 0.7527 0.8620
H10_4 H 0.0731 0.6630 0.9396
H13_4 H 0.0004 0.8104 0.8394
C14_5 C 0.3604(5) 0.0787(7) 0.7737(9)
H8_5 H 0.3550 0.0992 0.8725
H9_5 H 0.3654 0.1181 0.6953
H10_5 H 0.4101 0.0731 0.7729
H11_5 H 0.2191 0.0379 0.8384
H13_5 H 0.1900 0.0004 0.6727
C14_6 C 0.9213(7) 0.2817(9) 0.4404(9)
H8_6 H 0.9008 0.2558 0.5392
H9_6 H 0.8819 0.2473 0.3620
H10_6 H 0.9269 0.3370 0.4396
H11_6 H 0.9621 0.1812 0.5051
H13_6 H 0.9996 0.1896 0.3394
loop_
_geom_bond_atom_site_label_1
_geom_bond_atom_site_label_2
_geom_bond_site_symmetry_1
_geom_bond_site_symmetry_2
C6 C3 1_555 1_555
H2 C6 1_555 1_555
C8 C6 1_555 1_555
H4 C8 1_555 1_555
H6 C10 1_555 1_555
C11 C3 1_555 1_555
C12 C11 1_555 1_555
O3 C12 1_555 1_555
O4 C12 1_555 1_555
Na4 O3 1_555 1_555
Na5 O3 1_555 1_555
Na7 O4 1_555 1_555
Na8 O3 1_555 1_555
C10 C11 1_555 1_555
O4 Na4 1_555 1_555
Na1 O1 1_555 1_555
O1 C1 1_555 1_555
C1 C2 1_555 1_555
C2 C4 1_555 1_555
C4 C7 1_555 1_555
O2 Na1 1_555 1_555
C5 C2 1_555 1_555
H1 C5 1_555 1_555
C7 H3 1_555 1_555
C9 C7 1_555 1_555
H5 C9 1_555 1_555
Na2 O1 1_555 1_555
O5 Na2 1_555 1_555
N1 C13 1_555 1_555
C13 O5 1_555 1_555
H7 C13 1_555 1_555
C15 N1 1_555 1_555
H12 C15 1_555 1_555
Na3 O1 1_555 1_555
O7 Na2 1_555 1_555
O8 Na1 1_555 1_555
O9 Na1 1_555 1_555
O11 Na1 1_555 1_555
C1 O2 1_555 1_555
Na2 O9 1_555 1_555
Na3 O7 1_555 1_555
Na3 O8 1_555 1_555
O6 Na6 1_555 1_555
C6_2 C3_2 1_555 1_555
H2_2 C6_2 1_555 1_555
C7_2 H3_2 1_555 1_555
C8_2 C6_2 1_555 1_555
H4_2 C8_2 1_555 1_555
C9_2 C7_2 1_555 1_555
H5_2 C9_2 1_555 1_555
Na8 O4_2 1_555 1_555
C8_2 C9_2 1_555 1_555
O4_2 Na5 1_555 1_555
Na1_2 O6 1_555 1_555
O6 C1_2 1_555 1_555
C1_2 C2_2 1_555 1_555
C2_2 C4_2 1_555 1_555
O2_2 Na1_2 1_555 1_555
C5_2 C2_2 1_555 1_555
H1_2 C5_2 1_555 1_555
C10_2 C5_2 1_555 1_555
H6_2 C10_2 1_555 1_555
C12_2 C11_2 1_555 1_555
O3_2 C12_2 1_555 1_555
O5_2 Na6 1_555 1_555
N1_2 C13_2 1_555 1_555
C13_2 O5_2 1_555 1_555
H7_2 C13_2 1_555 1_555
C15_2 N1_2 1_555 1_555
H12_2 C15_2 1_555 1_555
Na5_2 O3_2 1_555 1_555
O6_2 Na1_2 1_555 1_555
O9_2 Na1_2 1_555 1_555
O10_2 Na6 1_555 1_555
O10 Na1_2 1_555 1_555
Na6_2 O2_2 1_555 1_555
C1_2 O2_2 1_555 1_555
C10_2 C11_2 1_555 1_555
Na6 O9_2 1_555 1_555
O6_2 Na6_2 1_555 1_555
Na3 O6_2 1_555 1_555
O6_2 C1_3 1_555 1_555
C1_3 C2_3 1_555 1_555
C2_3 C4_3 1_555 1_555
C4_3 C7_3 1_555 1_555
C5_3 C2_3 1_555 1_555
H1_3 C5_3 1_555 1_555
C7_3 H3_3 1_555 1_555
C9_3 C7_3 1_555 1_555
H5_3 C9_3 1_555 1_555
O5_3 Na6_2 1_555 1_555
N1_3 C13_3 1_555 1_555
C13_3 O5_3 1_555 1_555
H7_3 C13_3 1_555 1_555
C14 N1_3 1_555 1_555
H8 C14 1_555 1_555
H9 C14 1_555 1_555
H10 C14 1_555 1_555
C15_3 N1_3 1_555 1_555
H11 C15_3 1_555 1_555
H12_3 C15_3 1_555 1_555
H13 C15_3 1_555 1_555
O9_2 Na3 1_555 1_555
O11 Na6_2 1_555 1_555
O10_2 Na3 1_555 1_555
C1_3 O7 1_555 1_555
Na6_2 O8 1_555 1_555
C6_3 C3_3 1_555 1_555
H2_3 C6_3 1_555 1_555
C8_3 C6_3 1_555 1_555
H4_3 C8_3 1_555 1_555
H6_3 C10_3 1_555 1_555
C11_3 C3_3 1_555 1_555
C12_3 C11_3 1_555 1_555
O3_3 C12_3 1_555 1_555
O4_3 C12_3 1_555 1_555
Na5_2 O3_3 1_555 1_555
Na4 O3_3 1_555 1_555
Na7 O3_3 1_555 1_555
C10_3 C11_3 1_555 1_555
O4_3 Na5_2 1_555 1_555
Na5_2 O1_2 1_555 1_555
O1_2 C1_4 1_555 1_555
C1_4 C2_4 1_555 1_555
C2_4 C4_4 1_555 1_555
C4_4 C7_4 1_555 1_555
O2_3 Na5_2 1_555 1_555
C5_4 C2_4 1_555 1_555
H1_4 C5_4 1_555 1_555
C7_4 H3_4 1_555 1_555
C9_4 C7_4 1_555 1_555
H5_4 C9_4 1_555 1_555
Na7 O1_2 1_555 1_555
O5_4 Na7 1_555 1_555
N1_4 C13_4 1_555 1_555
C13_4 O5_4 1_555 1_555
H7_4 C13_4 1_555 1_555
C15_4 N1_4 1_555 1_555
H12_4 C15_4 1_555 1_555
O6_3 Na5_2 1_555 1_555
O7_2 Na7 1_555 1_555
Na8 O2_3 1_555 1_555
C1_4 O2_3 1_555 1_555
O6_3 Na8 1_555 1_555
C6_4 C3_4 1_555 1_555
H2_4 C6_4 1_555 1_555
C8_4 C6_4 1_555 1_555
H6_4 C10_4 1_555 1_555
C11_4 C3_4 1_555 1_555
C12_4 C11_4 1_555 1_555
O9_2 C12_4 1_555 1_555
O10 C12_4 1_555 1_555
C10_4 C11_4 1_555 1_555
Na4 O6_3 1_555 1_555
O6_3 C1_5 1_555 1_555
C1_5 C2_5 1_555 1_555
C2_5 C4_5 1_555 1_555
C3_5 C4_5 1_555 1_555
C4_5 C7_5 1_555 1_555
O2_4 Na4 1_555 1_555
C5_5 C2_5 1_555 1_555
H1_5 C5_5 1_555 1_555
C6_5 C3_5 1_555 1_555
H2_5 C6_5 1_555 1_555
C7_5 H3_5 1_555 1_555
C8_5 C6_5 1_555 1_555
H4_5 C8_5 1_555 1_555
C9_5 C7_5 1_555 1_555
H5_5 C9_5 1_555 1_555
C10_5 C5_5 1_555 1_555
H6_5 C10_5 1_555 1_555
C11_5 C3_5 1_555 1_555
C12_5 C11_5 1_555 1_555
O8 C12_5 1_555 1_555
O10_2 C12_5 1_555 1_555
O5_5 Na8 1_555 1_555
N1_5 C13_5 1_555 1_555
C13_5 O5_5 1_555 1_555
H7_5 C13_5 1_555 1_555
C15_5 N1_5 1_555 1_555
H12_5 C15_5 1_555 1_555
O6_4 Na4 1_555 1_555
Na8_2 O2_4 1_555 1_555
C1_5 O2_4 1_555 1_555
C8_5 C9_5 1_555 1_555
C10_5 C11_5 1_555 1_555
O6_4 Na8_2 1_555 1_555
C6_6 C3_6 1_555 1_555
H2_6 C6_6 1_555 1_555
C8_6 C6_6 1_555 1_555
H4_6 C8_6 1_555 1_555
C11_6 C3_6 1_555 1_555
C12_6 C11_6 1_555 1_555
O9 C12_6 1_555 1_555
O11 C12_6 1_555 1_555
C10_6 C11_6 1_555 1_555
Na5 O6_4 1_555 1_555
O6_4 C1_6 1_555 1_555
C1_6 C2_6 1_555 1_555
C2_6 C4_6 1_555 1_555
C4_6 C7_6 1_555 1_555
C5_6 C2_6 1_555 1_555
C7_6 H3_6 1_555 1_555
C9_6 C7_6 1_555 1_555
H5_6 C9_6 1_555 1_555
O5_6 Na8_2 1_555 1_555
N1_6 C13_6 1_555 1_555
C13_6 O5_6 1_555 1_555
H7_6 C13_6 1_555 1_555
C14_2 N1_6 1_555 1_555
H8_2 C14_2 1_555 1_555
H9_2 C14_2 1_555 1_555
H10_2 C14_2 1_555 1_555
C15_6 N1_6 1_555 1_555
H11_2 C15_6 1_555 1_555
H12_6 C15_6 1_555 1_555
H13_2 C15_6 1_555 1_555
H8_3 C14_3 1_555 1_555
H9_3 C14_3 1_555 1_555
H10_3 C14_3 1_555 1_555
H9_4 C14_4 1_555 1_555
H10_4 C14_4 1_555 1_555
H8_5 C14_5 1_555 1_555
H9_5 C14_5 1_555 1_555
H10_5 C14_5 1_555 1_555
H8_6 C14_6 1_555 1_555
H9_6 C14_6 1_555 1_555
H10_6 C14_6 1_555 1_555

#END
