
###############################################################################
#
# This file contains modified crystal structure data generated from the
# MOF subset of the Cambridge Structural Database (CSD) v543 
# hosted by the Cambridge Crystallographic Data Centre (CCDC).
#
# This work is licensed under the Creative Commons
# Attribution-NonCommercial-ShareAlike 4.0 International License.
# To view a copy of this license, visit
# http://creativecommons.org/licenses/by-nc-sa/4.0/
# or send a letter to
# Creative Commons, PO Box 1866, Mountain View, CA 94042, USA.
#
# CIF created using the CSD Python API on 29 September 2022
# The structure has been converted into the P1 space group
# The structure has a 3D framework
# The original CSD entry KIYMIP is in the orthorhombic crystal system
# The original CSD entry KIYMIP is in a Sohncke space group
# The framework has been calculated to contain at least 10.0% void space
# The void calculation uses a probe of radius 1.32A, grid spacing 0.4
#
###############################################################################

data_KIYMIP
_chemical_formula_moiety         '(C80 H52 F12 N8 Ni4 O18)n'
_symmetry_cell_setting           triclinic
_symmetry_space_group_name_H-M   'P 1'
_symmetry_Int_Tables_number      1
_space_group_name_Hall           'P 1'
loop_
_symmetry_equiv_pos_site_id
_symmetry_equiv_pos_as_xyz
1 x,y,z
_cell_length_a                   24.094(5)
_cell_length_b                   8.1984(16)
_cell_length_c                   11.307(2)
_cell_angle_alpha                90
_cell_angle_beta                 90
_cell_angle_gamma                90
_cell_volume                     2233.5
loop_
_atom_site_label
_atom_site_type_symbol
_atom_site_fract_x
_atom_site_fract_y
_atom_site_fract_z
C16 C 0.18309(16) 0.0926(5) 0.0959(3)
C17 C 0.22989(17) 0.1415(6) 0.1586(4)
H8 H 0.2610 0.1791 0.1182
C18 C 0.23035(15) 0.1346(5) 0.2808(3)
H9 H 0.2621 0.1682 0.3206
C19 C 0.14220(16) 0.0304(6) 0.2841(3)
C20 C 0.13896(16) 0.0348(6) 0.1630(3)
N2 N 0.18729(12) 0.0817(4) 0.3438(2)
Ni3 Ni 0.185003(17) 0.09066(5) 0.52940(4)
N4 N 0.18062(12) 0.1008(4) 0.7164(2)
O8 O 0.10078(9) 0.1379(3) 0.5291(3)
O10 O 0.20516(9) 0.3354(3) 0.5285(2)
O13 O 0.26938(9) 0.0703(3) 0.5518(2)
C1 C 0.09700(13) 0.3813(5) 0.4128(3)
C2 C 0.14616(15) 0.4600(5) 0.3828(3)
C3 C 0.14822(15) 0.5488(6) 0.2783(4)
H1 H 0.1812 0.5997 0.2571
C4 C 0.10271(16) 0.5638(6) 0.2051(3)
H2 H 0.1051 0.6236 0.1354
C5 C 0.05276(14) 0.4878(5) 0.2368(3)
C6 C 0.05068(13) 0.3958(5) 0.3396(3)
H3 H 0.0179 0.3430 0.3600
C7 C 0.08900(13) 0.2897(5) 0.5288(4)
C8 C 0.19746(12) 0.4521(4) 0.4594(3)
C9 C 0.0000 0.5000 0.1586(5)
C11 C 0.20958(18) 0.2097(6) 0.7789(4)
H4 H 0.2300 0.2877 0.7378
C12 C 0.21097(19) 0.2130(6) 0.8999(3)
H5 H 0.2316 0.2922 0.9390
C13 C 0.18129(15) 0.0973(5) 0.9644(3)
F1 F 0.04964(11) 0.3245(5) 0.0281(3)
O1 O 0.06928(15) 0.3669(4) 0.6119(3)
O4 O 0.23062(9) 0.5703(3) 0.4482(2)
Ni4 Ni 0.314997(17) 0.59066(5) 0.47060(4)
C29 C 0.00010(19) 0.6558(9) 0.0807(4)
F5 F 0.01029(13) 0.7885(5) 0.1431(3)
F6 F 0.03729(11) 0.6496(6) 0.9930(2)
C9_2 C 1.0000 0.5000 0.1586(5)
C10 C 0.99990(19) 0.3442(9) 0.0807(4)
F2 F 0.98971(13) 0.2115(5) 0.1431(3)
Ni5 Ni 0.814997(17) 0.90934(5) 0.52940(4)
Ni6 Ni 0.685003(17) 0.40934(5) 0.47060(4)
C21 C 0.90300(13) 0.6187(5) 0.4128(3)
C22 C 0.85384(15) 0.5400(5) 0.3828(3)
C23 C 0.85178(15) 0.4512(6) 0.2783(4)
H14 H 0.8188 0.4003 0.2571
C24 C 0.89729(16) 0.4362(6) 0.2051(3)
H15 H 0.8949 0.3764 0.1354
C25 C 0.94724(14) 0.5122(5) 0.2368(3)
C26 C 0.94932(13) 0.6042(5) 0.3396(3)
H16 H 0.9821 0.6570 0.3600
C27 C 0.91100(13) 0.7103(5) 0.5288(4)
C28 C 0.80254(12) 0.5479(4) 0.4594(3)
F4 F 0.95036(11) 0.6755(5) 0.0281(3)
O6 O 0.93072(15) 0.6331(4) 0.6119(3)
O7 O 0.89922(9) 0.8621(3) 0.5291(3)
O9 O 0.79484(9) 0.6646(3) 0.5285(2)
O11 O 0.76938(9) 0.4297(3) 0.4482(2)
F3 F 0.96271(11) 0.3504(6) 0.9930(2)
C16_2 C 0.81691(16) 0.9074(5) 0.0959(3)
C17_2 C 0.77011(17) 0.8585(6) 0.1586(4)
H8_2 H 0.7390 0.8209 0.1182
C18_2 C 0.76965(15) 0.8654(5) 0.2808(3)
H9_2 H 0.7379 0.8318 0.3206
C19_2 C 0.85780(16) 0.9696(6) 0.2841(3)
C20_2 C 0.86104(16) 0.9652(6) 0.1630(3)
N2_2 N 0.81271(12) 0.9183(4) 0.3438(2)
N4_2 N 0.81938(12) 0.8992(4) 0.7164(2)
O13_2 O 0.73062(9) 0.9297(3) 0.5518(2)
C11_2 C 0.79042(18) 0.7903(6) 0.7789(4)
H4_2 H 0.7700 0.7123 0.7378
C12_2 C 0.78903(19) 0.7870(6) 0.8999(3)
H5_2 H 0.7684 0.7078 0.9390
C13_2 C 0.81871(15) 0.9027(5) 0.9644(3)
F6_2 F 0.46271(11) 0.1496(6) 0.0070(2)
C3_2 C 0.35178(15) 0.0488(6) 0.7217(4)
H1_2 H 0.3188 0.0997 0.7429
C4_2 C 0.39729(16) 0.0638(6) 0.7949(3)
H2_2 H 0.3949 0.1236 0.8646
C9_3 C 0.5000 -0.0000 0.8414(5)
C21_2 C 0.59700(13) 0.1187(5) 0.5872(3)
C22_2 C 0.64616(15) 0.0400(5) 0.6172(3)
C25_2 C 0.55276(14) 0.0122(5) 0.7632(3)
C26_2 C 0.55068(13) 0.1042(5) 0.6604(3)
H16_2 H 0.5179 0.1570 0.6400
C27_2 C 0.58900(13) 0.2103(5) 0.4712(4)
C28_2 C 0.69746(12) 0.0479(4) 0.5406(3)
C29_2 C 0.49990(19) 0.1558(9) 0.9193(4)
F4_2 F 0.54964(11) 0.1755(5) 0.9719(3)
F5_2 F 0.48971(13) 0.2885(5) 0.8569(3)
O6_2 O 0.56928(15) 0.1331(4) 0.3881(3)
O7_2 O 0.60078(9) 0.3621(3) 0.4709(3)
O9_2 O 0.70516(9) 0.1646(3) 0.4715(2)
F3_2 F 0.53729(11) 0.8504(6) 0.0070(2)
C30 C 0.29042(18) 0.7097(6) 0.2211(4)
H17 H 0.2700 0.7877 0.2622
C31 C 0.28903(19) 0.7130(6) 0.1001(3)
H18 H 0.2684 0.7922 0.0610
C32 C 0.31871(15) 0.5973(5) 0.0356(3)
C33 C 0.3499(2) 0.4868(7) 0.0999(4)
H19 H 0.3714 0.4093 0.0611
C34 C 0.3489(2) 0.4918(6) 0.2218(4)
H20 H 0.3698 0.4154 0.2632
N3 N 0.31938(12) 0.6008(4) 0.2836(2)
C1_2 C 0.40300(13) 0.8813(5) 0.5872(3)
C2_2 C 0.35384(15) 0.9600(5) 0.6172(3)
C5_2 C 0.44724(14) 0.9878(5) 0.7632(3)
C6_2 C 0.44932(13) 0.8958(5) 0.6604(3)
H3_2 H 0.4821 0.8430 0.6400
C7_2 C 0.41100(13) 0.7897(5) 0.4712(4)
C8_2 C 0.30254(12) 0.9521(4) 0.5406(3)
C9_4 C 0.5000 1.0000 0.8414(5)
C10_2 C 0.50010(19) 0.8442(9) 0.9193(4)
F1_2 F 0.45036(11) 0.8245(5) 0.9719(3)
F2_2 F 0.51029(13) 0.7115(5) 0.8569(3)
O1_2 O 0.43072(15) 0.8669(4) 0.3881(3)
O2 O 0.39922(9) 0.6379(3) 0.4709(3)
O3 O 0.29484(9) 0.8354(3) 0.4715(2)
O5 O 0.32891(10) 0.3445(3) 0.4668(3)
H12 H 0.3578 0.2926 0.4587
H13 H 0.3049 0.2849 0.4977
C23_2 C 0.64822(15) 0.9512(6) 0.7217(4)
H14_2 H 0.6812 0.9003 0.7429
C24_2 C 0.60271(16) 0.9362(6) 0.7949(3)
H15_2 H 0.6051 0.8764 0.8646
C35 C 0.31691(16) 0.5926(5) 0.9041(3)
C36 C 0.27011(17) 0.6415(6) 0.8414(4)
H21 H 0.2390 0.6791 0.8818
C37 C 0.26965(15) 0.6346(5) 0.7192(3)
H22 H 0.2379 0.6682 0.6794
C38 C 0.35780(16) 0.5304(6) 0.7159(3)
H23 H 0.3879 0.4905 0.6734
C39 C 0.36104(16) 0.5348(6) 0.8370(3)
H24 H 0.3931 0.4987 0.8746
N5 N 0.31271(12) 0.5817(4) 0.6562(2)
C30_2 C 0.70958(18) 0.2903(6) 0.2211(4)
H17_2 H 0.7300 0.2123 0.2622
C31_2 C 0.71097(19) 0.2870(6) 0.1001(3)
H18_2 H 0.7316 0.2078 0.0610
C32_2 C 0.68129(15) 0.4027(5) 0.0356(3)
C33_2 C 0.6501(2) 0.5132(7) 0.0999(4)
H19_2 H 0.6286 0.5907 0.0611
C34_2 C 0.6511(2) 0.5082(6) 0.2218(4)
H20_2 H 0.6302 0.5846 0.2632
N3_2 N 0.68062(12) 0.3992(4) 0.2836(2)
O5_2 O 0.67109(10) 0.6555(3) 0.4668(3)
H12_2 H 0.6422 0.7074 0.4587
H13_2 H 0.6951 0.7151 0.4977
C35_2 C 0.68309(16) 0.4074(5) 0.9041(3)
C36_2 C 0.72989(17) 0.3585(6) 0.8414(4)
H21_2 H 0.7610 0.3209 0.8818
C37_2 C 0.73035(15) 0.3654(5) 0.7192(3)
H22_2 H 0.7621 0.3318 0.6794
C38_2 C 0.64220(16) 0.4696(6) 0.7159(3)
H23_2 H 0.6121 0.5095 0.6734
C39_2 C 0.63896(16) 0.4652(6) 0.8370(3)
H24_2 H 0.6069 0.5013 0.8746
N5_2 N 0.68729(12) 0.4183(4) 0.6562(2)
H10 H 0.1121 0.9905 0.3266
H11 H 0.1069 0.9987 0.1254
O14 O 0.17109(10) 0.8445(3) 0.5332(3)
H25 H 0.1422 0.7926 0.5413
H26 H 0.1951 0.7849 0.5023
C14 C 0.1501(2) 0.9868(7) 0.9001(4)
H6 H 0.1286 0.9093 0.9389
C15 C 0.1511(2) 0.9918(6) 0.7782(4)
H7 H 0.1302 0.9154 0.7368
H10_2 H 0.8879 0.0095 0.3266
H11_2 H 0.8931 0.0013 0.1254
O14_2 O 0.82891(10) 0.1555(3) 0.5332(3)
H25_2 H 0.8578 0.2074 0.5413
H26_2 H 0.8049 0.2151 0.5023
C14_2 C 0.8499(2) 0.0132(7) 0.9001(4)
H6_2 H 0.8714 0.0907 0.9389
C15_2 C 0.8489(2) 0.0082(6) 0.7782(4)
H7_2 H 0.8698 0.0846 0.7368
loop_
_geom_bond_atom_site_label_1
_geom_bond_atom_site_label_2
_geom_bond_site_symmetry_1
_geom_bond_site_symmetry_2
C17 C16 1_555 1_555
H8 C17 1_555 1_555
C18 C17 1_555 1_555
H9 C18 1_555 1_555
C20 C16 1_555 1_555
N2 C18 1_555 1_555
Ni3 N2 1_555 1_555
N4 Ni3 1_555 1_555
O8 Ni3 1_555 1_555
O10 Ni3 1_555 1_555
O13 Ni3 1_555 1_555
C19 C20 1_555 1_555
C19 N2 1_555 1_555
C1 C2 1_555 1_555
C2 C3 1_555 1_555
C3 H1 1_555 1_555
C4 C3 1_555 1_555
H2 C4 1_555 1_555
C5 C4 1_555 1_555
C6 C1 1_555 1_555
H3 C6 1_555 1_555
C7 C1 1_555 1_555
C8 C2 1_555 1_555
C9 C5 1_555 1_555
C11 H4 1_555 1_555
C12 C11 1_555 1_555
H5 C12 1_555 1_555
C13 C12 1_555 1_555
N4 C11 1_555 1_555
O1 C7 1_555 1_555
O4 C8 1_555 1_555
Ni4 O4 1_555 1_555
C29 C9 1_555 1_555
F5 C29 1_555 1_555
C5 C6 1_555 1_555
C7 O8 1_555 1_555
C8 O10 1_555 1_555
C10 C9_2 1_555 1_555
F2 C10 1_555 1_555
Ni5 O7 1_555 1_555
Ni6 O11 1_555 1_555
C21 C22 1_555 1_555
C22 C23 1_555 1_555
C23 H14 1_555 1_555
C24 C23 1_555 1_555
H15 C24 1_555 1_555
C25 C9_2 1_555 1_555
C26 C21 1_555 1_555
H16 C26 1_555 1_555
C27 C21 1_555 1_555
C28 C22 1_555 1_555
O6 C27 1_555 1_555
O7 C27 1_555 1_555
O9 Ni5 1_555 1_555
O11 C28 1_555 1_555
C24 C25 1_555 1_555
C25 C26 1_555 1_555
C28 O9 1_555 1_555
C17_2 C16_2 1_555 1_555
H8_2 C17_2 1_555 1_555
C18_2 C17_2 1_555 1_555
H9_2 C18_2 1_555 1_555
C20_2 C16_2 1_555 1_555
N2_2 C18_2 1_555 1_555
Ni5 N2_2 1_555 1_555
N4_2 Ni5 1_555 1_555
O13_2 Ni5 1_555 1_555
C19_2 C20_2 1_555 1_555
C19_2 N2_2 1_555 1_555
C11_2 H4_2 1_555 1_555
C12_2 C11_2 1_555 1_555
H5_2 C12_2 1_555 1_555
C13_2 C12_2 1_555 1_555
N4_2 C11_2 1_555 1_555
C3_2 H1_2 1_555 1_555
C4_2 C3_2 1_555 1_555
H2_2 C4_2 1_555 1_555
Ni6 O7_2 1_555 1_555
C21_2 C22_2 1_555 1_555
C25_2 C9_3 1_555 1_555
C26_2 C21_2 1_555 1_555
H16_2 C26_2 1_555 1_555
C27_2 C21_2 1_555 1_555
C28_2 C22_2 1_555 1_555
C29_2 C9_3 1_555 1_555
F4_2 C29_2 1_555 1_555
F5_2 C29_2 1_555 1_555
O6_2 C27_2 1_555 1_555
O7_2 C27_2 1_555 1_555
O9_2 Ni6 1_555 1_555
C25_2 C26_2 1_555 1_555
C28_2 O9_2 1_555 1_555
Ni4 N3 1_555 1_555
C30 H17 1_555 1_555
C31 C30 1_555 1_555
H18 C31 1_555 1_555
C32 C31 1_555 1_555
C33 C32 1_555 1_555
H19 C33 1_555 1_555
C34 C33 1_555 1_555
H20 C34 1_555 1_555
N3 C30 1_555 1_555
C34 N3 1_555 1_555
C1_2 C2_2 1_555 1_555
C6_2 C1_2 1_555 1_555
H3_2 C6_2 1_555 1_555
C7_2 C1_2 1_555 1_555
C8_2 C2_2 1_555 1_555
C9_4 C5_2 1_555 1_555
C10_2 C9_4 1_555 1_555
F1_2 C10_2 1_555 1_555
F2_2 C10_2 1_555 1_555
O1_2 C7_2 1_555 1_555
O2 Ni4 1_555 1_555
O3 Ni4 1_555 1_555
O5 Ni4 1_555 1_555
H12 O5 1_555 1_555
H13 O5 1_555 1_555
C23_2 H14_2 1_555 1_555
C24_2 C23_2 1_555 1_555
H15_2 C24_2 1_555 1_555
C36 C35 1_555 1_555
H21 C36 1_555 1_555
C37 C36 1_555 1_555
H22 C37 1_555 1_555
C38 H23 1_555 1_555
C39 C35 1_555 1_555
H24 C39 1_555 1_555
N5 Ni4 1_555 1_555
C5_2 C6_2 1_555 1_555
C7_2 O2 1_555 1_555
C8_2 O3 1_555 1_555
C37 N5 1_555 1_555
C38 C39 1_555 1_555
C38 N5 1_555 1_555
Ni6 N3_2 1_555 1_555
C30_2 H17_2 1_555 1_555
C31_2 C30_2 1_555 1_555
H18_2 C31_2 1_555 1_555
C32_2 C31_2 1_555 1_555
C33_2 C32_2 1_555 1_555
H19_2 C33_2 1_555 1_555
C34_2 C33_2 1_555 1_555
H20_2 C34_2 1_555 1_555
N3_2 C30_2 1_555 1_555
C34_2 N3_2 1_555 1_555
O5_2 Ni6 1_555 1_555
H12_2 O5_2 1_555 1_555
H13_2 O5_2 1_555 1_555
C36_2 C35_2 1_555 1_555
H21_2 C36_2 1_555 1_555
C37_2 C36_2 1_555 1_555
H22_2 C37_2 1_555 1_555
C38_2 H23_2 1_555 1_555
C39_2 C35_2 1_555 1_555
H24_2 C39_2 1_555 1_555
N5_2 Ni6 1_555 1_555
C37_2 N5_2 1_555 1_555
C38_2 C39_2 1_555 1_555
C38_2 N5_2 1_555 1_555
H25 O14 1_555 1_555
H26 O14 1_555 1_555
H6 C14 1_555 1_555
C15 C14 1_555 1_555
H7 C15 1_555 1_555
H25_2 O14_2 1_555 1_555
H26_2 O14_2 1_555 1_555
H6_2 C14_2 1_555 1_555
C15_2 C14_2 1_555 1_555
H7_2 C15_2 1_555 1_555

#END
