
###############################################################################
#
# This file contains modified crystal structure data generated from the
# MOF subset of the Cambridge Structural Database (CSD) v543 
# hosted by the Cambridge Crystallographic Data Centre (CCDC).
#
# This work is licensed under the Creative Commons
# Attribution-NonCommercial-ShareAlike 4.0 International License.
# To view a copy of this license, visit
# http://creativecommons.org/licenses/by-nc-sa/4.0/
# or send a letter to
# Creative Commons, PO Box 1866, Mountain View, CA 94042, USA.
#
# CIF created using the CSD Python API on 29 September 2022
# The structure has been converted into the P1 space group
# The structure has a 3D framework
# The original CSD entry KIYQIU is in the monoclinic crystal system
# The framework has been calculated to contain at least 10.0% void space
# The void calculation uses a probe of radius 1.32A, grid spacing 0.4
#
###############################################################################

data_KIYQIU
_chemical_formula_moiety         '(C68 H52 N12 O34 Zn8)n'
_symmetry_cell_setting           triclinic
_symmetry_space_group_name_H-M   'P 1'
_symmetry_Int_Tables_number      1
_space_group_name_Hall           'P 1'
loop_
_symmetry_equiv_pos_site_id
_symmetry_equiv_pos_as_xyz
1 x,y,z
_cell_length_a                   14.2107(15)
_cell_length_b                   12.1800(16)
_cell_length_c                   14.2834(12)
_cell_angle_alpha                90
_cell_angle_beta                 105.093(11)
_cell_angle_gamma                90
_cell_volume                     2386.98
loop_
_atom_site_label
_atom_site_type_symbol
_atom_site_fract_x
_atom_site_fract_y
_atom_site_fract_z
_atom_site_U_iso_or_equiv
_atom_site_thermal_displace_type
O1 O 0.2369(8) 0.0963(8) 0.6722(7) 0.0450 Uiso
O2 O 0.1565(8) 0.2464(9) 0.6163(8) 0.0510 Uiso
O3 O 0.4651(7) 0.2331(8) 0.2943(7) 0.0480 Uiso
O4 O 0.5362(7) 0.1025(9) 0.3938(7) 0.0510 Uiso
N1 N 0.3569(9) 0.1132(10) 0.5652(10) 0.0510 Uiso
C1 C 0.2851(11) 0.1899(16) 0.5502(11) 0.0550 Uiso
C2 C 0.2708(11) 0.2647(14) 0.4765(11) 0.0510 Uiso
H1 H 0.2206 0.3159 0.4666 0.0610 Uiso
C3 C 0.3339(11) 0.2617(13) 0.4170(11) 0.0590 Uiso
H2 H 0.3270 0.3130 0.3674 0.0710 Uiso
C4 C 0.4057(13) 0.1851(15) 0.4301(11) 0.0550 Uiso
C5 C 0.4143(12) 0.1140(12) 0.5087(11) 0.0520 Uiso
H3 H 0.4652 0.0636 0.5212 0.0620 Uiso
C6 C 0.4727(11) 0.1765(15) 0.3666(11) 0.0540 Uiso
C7 C 0.2204(11) 0.1796(15) 0.6169(12) 0.0510 Uiso
O6 O 0.5020(8) 0.0852(9) 0.8230(7) 0.0570 Uiso
H4 H 0.6342 0.0458 0.9966 0.0650 Uiso
Zn3 Zn 0.65411(18) 0.01550(19) 0.34209(16) 0.0330 Uiso
Zn5 Zn 0.06199(15) 0.25810(19) 0.70091(15) 0.0370 Uiso
Zn6 Zn 0.56199(15) 0.24190(19) 0.20091(15) 0.0370 Uiso
O7 O 0.8353(8) 0.7777(9) 0.1862(8) 0.0510 Uiso
O8 O 0.7544(8) 0.6294(8) 0.1184(8) 0.0460 Uiso
C10 C 0.6983(11) 0.9128(15) 0.0588(11) 0.0580 Uiso
H5 H 0.7447 0.9484 0.1074 0.0700 Uiso
C11 C 0.6949(11) 0.7990(17) 0.0532(10) 0.0560 Uiso
C13 C 0.7682(11) 0.7335(13) 0.1243(11) 0.0580 Uiso
Zn4 Zn 0.84589(18) 0.51550(19) 0.15791(16) 0.0330 Uiso
Zn7 Zn 0.93801(15) 0.74190(19) 0.29909(15) 0.0370 Uiso
Zn1 Zn 0.34589(18) 0.98450(19) 0.65791(16) 0.0330 Uiso
Zn2 Zn 0.43801(15) 0.75810(19) 0.79909(15) 0.0370 Uiso
O5 O 0.4183(7) 0.9295(10) 0.8006(7) 0.0530 Uiso
N2 N 0.5587(9) 0.8117(12) 0.9129(9) 0.0570 Uiso
C8 C 0.5659(12) 0.9222(14) 0.9203(12) 0.0510 Uiso
C9 C 0.6331(12) 0.9696(14) 0.9925(12) 0.0540 Uiso
C12 C 0.6239(12) 0.7500(14) 0.9810(12) 0.0590 Uiso
H6 H 0.6198 0.6739 0.9782 0.0710 Uiso
C14 C 0.4910(12) 0.9867(14) 0.8431(11) 0.0540 Uiso
O9 O 0.4916(7) 0.5933(9) 0.8309(7) 0.0530 Uiso
N3 N 0.4759(8) 0.4153(11) 0.8043(8) 0.0530 Uiso
C15 C 0.4354(12) 0.3199(15) 0.7453(12) 0.0530 Uiso
H7 H 0.4621 0.2540 0.7787 0.0790 Uiso
H8 H 0.4517 0.3238 0.6843 0.0790 Uiso
H9 H 0.3659 0.3195 0.7343 0.0790 Uiso
C16 C 0.4526(11) 0.5161(13) 0.7772(11) 0.0530 Uiso
H10 H 0.4074 0.5304 0.7185 0.0630 Uiso
C17 C 0.5441(11) 0.3941(13) 0.8975(12) 0.0530 Uiso
H11 H 0.5534 0.3163 0.9064 0.0790 Uiso
H12 H 0.5186 0.4234 0.9483 0.0790 Uiso
H13 H 0.6054 0.4284 0.8995 0.0790 Uiso
O10 O 0.3435(8) 0.7464(9) 0.8837(8) 0.0510 Uiso
O11 O 0.5349(7) 0.7669(8) 0.7057(7) 0.0480 Uiso
O12 O 0.4638(7) 0.8975(9) 0.6062(7) 0.0510 Uiso
O13 O 0.3353(8) 0.7223(9) 0.6862(8) 0.0510 Uiso
O14 O 0.2544(8) 0.8706(8) 0.6184(8) 0.0460 Uiso
O3_2 O 0.0349(7) 0.7331(8) 0.2057(7) 0.0480 Uiso
C2_2 C 0.2292(11) 0.7647(14) 0.0235(11) 0.0510 Uiso
H1_2 H 0.2794 0.8159 0.0334 0.0610 Uiso
C3_2 C 0.1661(11) 0.7617(13) 0.0830(11) 0.0590 Uiso
H2_2 H 0.1730 0.8130 0.1326 0.0710 Uiso
C4_2 C 0.0943(13) 0.6851(15) 0.0699(11) 0.0550 Uiso
C6_2 C 0.0273(11) 0.6765(15) 0.1334(11) 0.0540 Uiso
Zn1_2 Zn 0.15411(18) 0.48450(19) 0.84209(16) 0.0330 Uiso
O1_2 O 0.2631(8) 0.5963(8) 0.8278(7) 0.0450 Uiso
N1_2 N 0.1431(9) 0.6132(10) 0.9348(10) 0.0510 Uiso
C1_2 C 0.2149(11) 0.6899(16) 0.9498(11) 0.0550 Uiso
C5_2 C 0.0857(12) 0.6140(12) 0.9913(11) 0.0520 Uiso
H3_2 H 0.0348 0.5636 0.9788 0.0620 Uiso
C7_2 C 0.2796(11) 0.6796(15) 0.8831(12) 0.0510 Uiso
O5_2 O 0.0817(7) 0.4295(10) 0.6994(7) 0.0530 Uiso
C14_2 C 0.0090(12) 0.4867(14) 0.6569(11) 0.0540 Uiso
O9_2 O 0.0084(7) 0.0933(9) 0.6691(7) 0.0530 Uiso
C16_2 C 0.0474(11) 0.0161(13) 0.7228(11) 0.0530 Uiso
H10_2 H 0.0926 0.0304 0.7815 0.0630 Uiso
O12_2 O 0.0362(7) 0.3975(9) 0.8938(7) 0.0510 Uiso
O13_2 O 0.1647(8) 0.2223(9) 0.8138(8) 0.0510 Uiso
O14_2 O 0.2456(8) 0.3706(8) 0.8816(8) 0.0460 Uiso
O4_2 O 0.9638(7) 0.6025(9) 0.1062(7) 0.0510 Uiso
O6_2 O 0.9980(8) 0.5852(9) 0.6770(7) 0.0570 Uiso
O7_2 O 0.6647(8) 0.2777(9) 0.3138(8) 0.0510 Uiso
O8_2 O 0.7456(8) 0.1294(8) 0.3816(8) 0.0460 Uiso
N2_2 N 0.9413(9) 0.3117(12) 0.5871(9) 0.0570 Uiso
C8_2 C 0.9341(12) 0.4222(14) 0.5797(12) 0.0510 Uiso
C9_2 C 0.8669(12) 0.4696(14) 0.5075(12) 0.0540 Uiso
H4_2 H 0.8658 0.5458 0.5034 0.0650 Uiso
C10_2 C 0.8017(11) 0.4128(15) 0.4412(11) 0.0580 Uiso
H5_2 H 0.7553 0.4484 0.3926 0.0700 Uiso
C11_2 C 0.8051(11) 0.2990(17) 0.4468(10) 0.0560 Uiso
C12_2 C 0.8761(12) 0.2500(14) 0.5190(12) 0.0590 Uiso
H6_2 H 0.8802 0.1739 0.5218 0.0710 Uiso
C13_2 C 0.7318(11) 0.2335(13) 0.3757(11) 0.0580 Uiso
O11_2 O 0.9651(7) 0.2669(8) 0.7943(7) 0.0480 Uiso
O5_3 O 0.5817(7) 0.0705(10) 0.1994(7) 0.0530 Uiso
N2_3 N 0.4413(9) 0.1883(12) 0.0871(9) 0.0570 Uiso
C8_3 C 0.4341(12) 0.0778(14) 0.0797(12) 0.0510 Uiso
C9_3 C 0.3669(12) 0.0304(14) 0.0075(12) 0.0540 Uiso
C12_3 C 0.3761(12) 0.2500(14) 0.0190(12) 0.0590 Uiso
H6_3 H 0.3802 0.3261 0.0218 0.0710 Uiso
C14_3 C 0.5090(12) 0.0133(14) 0.1569(11) 0.0540 Uiso
O9_3 O 0.5084(7) 0.4067(9) 0.1691(7) 0.0530 Uiso
N3_2 N 0.5241(8) 0.5847(11) 0.1957(8) 0.0530 Uiso
C15_2 C 0.5646(12) 0.6801(15) 0.2547(12) 0.0530 Uiso
H7_2 H 0.5379 0.7460 0.2213 0.0790 Uiso
H8_2 H 0.5483 0.6762 0.3157 0.0790 Uiso
H9_2 H 0.6341 0.6805 0.2657 0.0790 Uiso
C16_3 C 0.5474(11) 0.4839(13) 0.2228(11) 0.0530 Uiso
H10_3 H 0.5926 0.4696 0.2815 0.0630 Uiso
C17_2 C 0.4559(11) 0.6059(13) 0.1025(12) 0.0530 Uiso
H11_2 H 0.4466 0.6837 0.0936 0.0790 Uiso
H12_2 H 0.4814 0.5766 0.0517 0.0790 Uiso
H13_2 H 0.3946 0.5716 0.1005 0.0790 Uiso
O10_2 O 0.6565(8) 0.2536(9) 0.1163(8) 0.0510 Uiso
C10_3 C 0.3017(11) 0.0872(15) 0.9412(11) 0.0580 Uiso
H5_3 H 0.2553 0.0516 0.8926 0.0700 Uiso
C11_3 C 0.3051(11) 0.2010(17) 0.9468(10) 0.0560 Uiso
C13_3 C 0.2318(11) 0.2665(13) 0.8757(11) 0.0580 Uiso
O1_3 O 0.7631(8) 0.9037(8) 0.3278(7) 0.0450 Uiso
O2_2 O 0.8435(8) 0.7536(9) 0.3837(8) 0.0510 Uiso
N1_3 N 0.6431(9) 0.8868(10) 0.4348(10) 0.0510 Uiso
C1_3 C 0.7149(11) 0.8101(16) 0.4498(11) 0.0550 Uiso
C2_3 C 0.7292(11) 0.7353(14) 0.5235(11) 0.0510 Uiso
H1_3 H 0.7794 0.6841 0.5334 0.0610 Uiso
C3_3 C 0.6661(11) 0.7383(13) 0.5830(11) 0.0590 Uiso
H2_3 H 0.6730 0.6870 0.6326 0.0710 Uiso
C4_3 C 0.5943(13) 0.8149(15) 0.5699(11) 0.0550 Uiso
C5_3 C 0.5857(12) 0.8860(12) 0.4913(11) 0.0520 Uiso
H3_3 H 0.5348 0.9364 0.4788 0.0620 Uiso
C6_3 C 0.5273(11) 0.8235(15) 0.6334(11) 0.0540 Uiso
C7_3 C 0.7796(11) 0.8204(15) 0.3831(12) 0.0510 Uiso
O6_3 O 0.4980(8) 0.9148(9) 0.1770(7) 0.0570 Uiso
H4_3 H 0.3658 0.9542 0.0034 0.0650 Uiso
O6_4 O 0.0020(8) 0.4148(9) 0.3230(7) 0.0570 Uiso
N2_4 N 0.0587(9) 0.6883(12) 0.4129(9) 0.0570 Uiso
C8_4 C 0.0659(12) 0.5778(14) 0.4203(12) 0.0510 Uiso
C9_4 C 0.1331(12) 0.5304(14) 0.4925(12) 0.0540 Uiso
H4_4 H 0.1342 0.4542 0.4966 0.0650 Uiso
C10_4 C 0.1983(11) 0.5872(15) 0.5588(11) 0.0580 Uiso
H5_4 H 0.2447 0.5516 0.6074 0.0700 Uiso
C11_4 C 0.1949(11) 0.7010(17) 0.5532(10) 0.0560 Uiso
C12_4 C 0.1239(12) 0.7500(14) 0.4810(12) 0.0590 Uiso
H6_4 H 0.1198 0.8261 0.4782 0.0710 Uiso
C13_4 C 0.2682(11) 0.7665(13) 0.6243(11) 0.0580 Uiso
O1_4 O 0.7369(8) 0.4037(8) 0.1722(7) 0.0450 Uiso
N1_4 N 0.8569(9) 0.3868(10) 0.0652(10) 0.0510 Uiso
C1_4 C 0.7851(11) 0.3101(16) 0.0502(11) 0.0550 Uiso
C5_4 C 0.9143(12) 0.3860(12) 0.0087(11) 0.0520 Uiso
H3_4 H 0.9652 0.4364 0.0212 0.0620 Uiso
C7_4 C 0.7204(11) 0.3204(15) 0.1169(12) 0.0510 Uiso
O5_4 O 0.9183(7) 0.5705(10) 0.3006(7) 0.0530 Uiso
C14_4 C 0.9910(12) 0.5133(14) 0.3431(11) 0.0540 Uiso
O9_4 O 0.9916(7) 0.9067(9) 0.3309(7) 0.0530 Uiso
C16_4 C 0.9526(11) 0.9839(13) 0.2772(11) 0.0530 Uiso
H10_4 H 0.9074 0.9696 0.2185 0.0630 Uiso
C2_4 C 0.7708(11) 0.2353(14) 0.9765(11) 0.0510 Uiso
H1_4 H 0.7206 0.1841 0.9666 0.0610 Uiso
C3_4 C 0.8339(11) 0.2383(13) 0.9170(11) 0.0590 Uiso
H2_4 H 0.8270 0.1870 0.8674 0.0710 Uiso
C4_4 C 0.9057(13) 0.3149(15) 0.9301(11) 0.0550 Uiso
C6_4 C 0.9727(11) 0.3235(15) 0.8666(11) 0.0540 Uiso
N3_3 N 0.0241(8) 0.9153(11) 0.6957(8) 0.0530 Uiso
C15_3 C 0.0646(12) 0.8199(15) 0.7547(12) 0.0530 Uiso
H7_3 H 0.0379 0.7540 0.7213 0.0790 Uiso
H8_3 H 0.0483 0.8238 0.8157 0.0790 Uiso
H9_3 H 0.1341 0.8195 0.7657 0.0790 Uiso
C17_3 C 0.9559(11) 0.8941(13) 0.6025(12) 0.0530 Uiso
H11_3 H 0.9466 0.8163 0.5936 0.0790 Uiso
H12_3 H 0.9814 0.9234 0.5517 0.0790 Uiso
H13_3 H 0.8946 0.9284 0.6005 0.0790 Uiso
C17_4 C 0.0441(11) 0.1059(13) 0.3975(12) 0.0530 Uiso
H11_4 H 0.0534 0.1837 0.4064 0.0790 Uiso
H12_4 H 0.0186 0.0766 0.4483 0.0790 Uiso
H13_4 H 0.1054 0.0716 0.3995 0.0790 Uiso
N3_4 N 0.9759(8) 0.0847(11) 0.3043(8) 0.0530 Uiso
C15_4 C 0.9354(12) 0.1801(15) 0.2453(12) 0.0530 Uiso
H7_4 H 0.9621 0.2460 0.2787 0.0790 Uiso
H8_4 H 0.9517 0.1762 0.1843 0.0790 Uiso
H9_4 H 0.8659 0.1805 0.2343 0.0790 Uiso
loop_
_geom_bond_atom_site_label_1
_geom_bond_atom_site_label_2
_geom_bond_site_symmetry_1
_geom_bond_site_symmetry_2
O1 C7 1_555 1_555
O2 C7 1_555 1_555
O3 C6 1_555 1_555
O4 C6 1_555 1_555
C1 N1 1_555 1_555
C2 C1 1_555 1_555
H1 C2 1_555 1_555
C3 C2 1_555 1_555
H2 C3 1_555 1_555
C4 C3 1_555 1_555
C5 N1 1_555 1_555
H3 C5 1_555 1_555
C6 C4 1_555 1_555
C7 C1 1_555 1_555
Zn3 O4 1_555 1_555
Zn5 O2 1_555 1_555
Zn6 O3 1_555 1_555
C4 C5 1_555 1_555
O7 C13 1_555 1_555
O8 C13 1_555 1_555
H5 C10 1_555 1_555
C11 C10 1_555 1_555
C13 C11 1_555 1_555
Zn4 O8 1_555 1_555
Zn7 O7 1_555 1_555
Zn2 O5 1_555 1_555
O5 Zn1 1_555 1_555
N2 Zn2 1_555 1_555
C8 N2 1_555 1_555
C9 C8 1_555 1_555
C12 N2 1_555 1_555
H6 C12 1_555 1_555
C14 O5 1_555 1_555
O9 Zn2 1_555 1_555
N3 C15 1_555 1_555
C15 H7 1_555 1_555
H8 C15 1_555 1_555
H9 C15 1_555 1_555
C16 O9 1_555 1_555
H10 C16 1_555 1_555
C17 N3 1_555 1_555
H11 C17 1_555 1_555
H12 C17 1_555 1_555
H13 C17 1_555 1_555
O10 Zn2 1_555 1_555
O11 Zn2 1_555 1_555
O12 Zn1 1_555 1_555
O13 Zn2 1_555 1_555
O14 Zn1 1_555 1_555
C8 C14 1_555 1_555
N3 C16 1_555 1_555
O3_2 C6_2 1_555 1_555
H1_2 C2_2 1_555 1_555
C3_2 C2_2 1_555 1_555
H2_2 C3_2 1_555 1_555
C4_2 C3_2 1_555 1_555
C6_2 C4_2 1_555 1_555
Zn1_2 O1_2 1_555 1_555
O1_2 C7_2 1_555 1_555
O10 C7_2 1_555 1_555
N1_2 Zn1_2 1_555 1_555
C1_2 N1_2 1_555 1_555
C5_2 N1_2 1_555 1_555
H3_2 C5_2 1_555 1_555
C7_2 C1_2 1_555 1_555
Zn5 O5_2 1_555 1_555
O5_2 Zn1_2 1_555 1_555
C14_2 O5_2 1_555 1_555
O9_2 Zn5 1_555 1_555
C16_2 O9_2 1_555 1_555
H10_2 C16_2 1_555 1_555
O12_2 Zn1_2 1_555 1_555
O13_2 Zn5 1_555 1_555
O14_2 Zn1_2 1_555 1_555
Zn4 O4_2 1_555 1_555
O7_2 C13_2 1_555 1_555
O8_2 C13_2 1_555 1_555
C8_2 N2_2 1_555 1_555
C9_2 C8_2 1_555 1_555
H4_2 C9_2 1_555 1_555
C10_2 C9_2 1_555 1_555
H5_2 C10_2 1_555 1_555
C11_2 C10_2 1_555 1_555
C12_2 N2_2 1_555 1_555
H6_2 C12_2 1_555 1_555
C13_2 C11_2 1_555 1_555
Zn3 O8_2 1_555 1_555
Zn6 O7_2 1_555 1_555
C11_2 C12_2 1_555 1_555
Zn6 O5_3 1_555 1_555
O5_3 Zn3 1_555 1_555
N2_3 Zn6 1_555 1_555
C8_3 N2_3 1_555 1_555
C9_3 C8_3 1_555 1_555
C12_3 N2_3 1_555 1_555
H6_3 C12_3 1_555 1_555
C14_3 O5_3 1_555 1_555
O9_3 Zn6 1_555 1_555
N3_2 C15_2 1_555 1_555
C15_2 H7_2 1_555 1_555
H8_2 C15_2 1_555 1_555
H9_2 C15_2 1_555 1_555
C16_3 O9_3 1_555 1_555
H10_3 C16_3 1_555 1_555
C17_2 N3_2 1_555 1_555
H11_2 C17_2 1_555 1_555
H12_2 C17_2 1_555 1_555
H13_2 C17_2 1_555 1_555
O10_2 Zn6 1_555 1_555
C8_3 C14_3 1_555 1_555
N3_2 C16_3 1_555 1_555
O13_2 C13_3 1_555 1_555
O14_2 C13_3 1_555 1_555
H5_3 C10_3 1_555 1_555
C11_3 C10_3 1_555 1_555
C13_3 C11_3 1_555 1_555
O1_3 C7_3 1_555 1_555
O2_2 C7_3 1_555 1_555
O11 C6_3 1_555 1_555
O12 C6_3 1_555 1_555
C1_3 N1_3 1_555 1_555
C2_3 C1_3 1_555 1_555
H1_3 C2_3 1_555 1_555
C3_3 C2_3 1_555 1_555
H2_3 C3_3 1_555 1_555
C4_3 C3_3 1_555 1_555
C5_3 N1_3 1_555 1_555
H3_3 C5_3 1_555 1_555
C6_3 C4_3 1_555 1_555
C7_3 C1_3 1_555 1_555
Zn7 O2_2 1_555 1_555
C4_3 C5_3 1_555 1_555
O13 C13_4 1_555 1_555
O14 C13_4 1_555 1_555
C8_4 N2_4 1_555 1_555
C9_4 C8_4 1_555 1_555
H4_4 C9_4 1_555 1_555
C10_4 C9_4 1_555 1_555
H5_4 C10_4 1_555 1_555
C11_4 C10_4 1_555 1_555
C12_4 N2_4 1_555 1_555
H6_4 C12_4 1_555 1_555
C13_4 C11_4 1_555 1_555
C11_4 C12_4 1_555 1_555
Zn4 O1_4 1_555 1_555
O1_4 C7_4 1_555 1_555
O10_2 C7_4 1_555 1_555
N1_4 Zn4 1_555 1_555
C1_4 N1_4 1_555 1_555
C5_4 N1_4 1_555 1_555
H3_4 C5_4 1_555 1_555
C7_4 C1_4 1_555 1_555
Zn7 O5_4 1_555 1_555
O5_4 Zn4 1_555 1_555
C14_4 O5_4 1_555 1_555
O9_4 Zn7 1_555 1_555
C16_4 O9_4 1_555 1_555
H10_4 C16_4 1_555 1_555
O11_2 C6_4 1_555 1_555
H1_4 C2_4 1_555 1_555
C3_4 C2_4 1_555 1_555
H2_4 C3_4 1_555 1_555
C4_4 C3_4 1_555 1_555
C6_4 C4_4 1_555 1_555
N3_3 C15_3 1_555 1_555
C15_3 H7_3 1_555 1_555
H8_3 C15_3 1_555 1_555
H9_3 C15_3 1_555 1_555
H11_3 C17_3 1_555 1_555
H12_3 C17_3 1_555 1_555
H13_3 C17_3 1_555 1_555
H11_4 C17_4 1_555 1_555
H12_4 C17_4 1_555 1_555
H13_4 C17_4 1_555 1_555
N3_4 C15_4 1_555 1_555
C15_4 H7_4 1_555 1_555
H8_4 C15_4 1_555 1_555
H9_4 C15_4 1_555 1_555

#END
