
###############################################################################
#
# This file contains modified crystal structure data generated from the
# MOF subset of the Cambridge Structural Database (CSD) v543 
# hosted by the Cambridge Crystallographic Data Centre (CCDC).
#
# This work is licensed under the Creative Commons
# Attribution-NonCommercial-ShareAlike 4.0 International License.
# To view a copy of this license, visit
# http://creativecommons.org/licenses/by-nc-sa/4.0/
# or send a letter to
# Creative Commons, PO Box 1866, Mountain View, CA 94042, USA.
#
# CIF created using the CSD Python API on 29 September 2022
# The structure has been converted into the P1 space group
# The structure has a 3D framework
# The original CSD entry KIYQOA is in the monoclinic crystal system
# The framework has been calculated to contain at least 10.0% void space
# The void calculation uses a probe of radius 1.32A, grid spacing 0.4
#
###############################################################################

data_KIYQOA
_chemical_formula_moiety         '(C56 H40 N8 O38 Zn8)n'
_symmetry_cell_setting           triclinic
_symmetry_space_group_name_H-M   'P 1'
_symmetry_Int_Tables_number      1
_space_group_name_Hall           'P 1'
loop_
_symmetry_equiv_pos_site_id
_symmetry_equiv_pos_as_xyz
1 x,y,z
_cell_length_a                   16.4202(12)
_cell_length_b                   12.0913(17)
_cell_length_c                   11.5641(16)
_cell_angle_alpha                90
_cell_angle_beta                 106.261(17)
_cell_angle_gamma                90
_cell_volume                     2204.11
loop_
_atom_site_label
_atom_site_type_symbol
_atom_site_fract_x
_atom_site_fract_y
_atom_site_fract_z
_atom_site_U_iso_or_equiv
_atom_site_thermal_displace_type
O7 O 0.2983(8) 0.2376(11) 0.1151(12) 0.0520 Uiso
O8 O 0.2087(8) 0.1016(11) 0.0347(13) 0.0510 Uiso
C11 C 0.1724(12) 0.3952(18) 0.0044(19) 0.0570 Uiso
H5 H 0.2229 0.4240 0.0531 0.0690 Uiso
C13 C 0.2292(12) 0.2016(17) 0.0526(19) 0.0610 Uiso
Zn3 Zn 0.30630(19) 0.0015(2) 0.0883(3) 0.0430 Uiso
Zn6 Zn 0.40031(17) 0.2357(2) 0.2523(3) 0.0389 Uiso
O3 O 0.0155(8) 0.8997(11) 0.3885(12) 0.0510 Uiso
O4 O 0.0363(8) 0.7178(12) 0.3973(11) 0.0490 Uiso
N2 N 0.0193(9) 0.3113(15) 0.8682(14) 0.0540 Uiso
C8 C 0.0331(12) 0.4204(18) 0.8770(18) 0.0540 Uiso
C9 C 0.1075(12) 0.4648(18) 0.945(2) 0.0620 Uiso
H4 H 0.1145 0.5411 0.9504 0.0750 Uiso
C10 C 0.1611(11) 0.2823(18) 0.9910(18) 0.0610 Uiso
C12 C 0.0827(12) 0.2436(17) 0.9249(18) 0.0530 Uiso
H6 H 0.0736 0.1677 0.9193 0.0640 Uiso
Zn5 Zn 0.09969(17) 0.7357(2) 0.2477(3) 0.0389 Uiso
Zn1 Zn 0.80630(19) 0.4985(2) 0.5883(3) 0.0430 Uiso
O1 O 0.7208(8) 0.6061(11) 0.6353(11) 0.0500 Uiso
O2 O 0.6827(8) 0.7817(11) 0.6427(12) 0.0530 Uiso
N1 N 0.8452(10) 0.6568(15) 0.5450(14) 0.0530 Uiso
C1 C 0.7999(12) 0.7415(17) 0.5692(19) 0.0540 Uiso
C2 C 0.8143(12) 0.8492(18) 0.5427(18) 0.0540 Uiso
H1 H 0.7807 0.9062 0.5581 0.0640 Uiso
C3 C 0.8797(12) 0.8711(17) 0.4929(19) 0.0580 Uiso
H2 H 0.8916 0.9436 0.4761 0.0700 Uiso
C4 C 0.9271(11) 0.7857(17) 0.4683(17) 0.0510 Uiso
C5 C 0.9067(12) 0.6788(18) 0.494(2) 0.0610 Uiso
H3 H 0.9372 0.6203 0.4744 0.0730 Uiso
C6 C 0.9997(12) 0.8040(19) 0.4152(19) 0.0570 Uiso
C7 C 0.7295(11) 0.7089(17) 0.6214(17) 0.0520 Uiso
Zn2 Zn 0.90031(17) 0.2643(2) 0.7523(3) 0.0389 Uiso
O5 O 0.8949(8) 0.4374(12) 0.7468(12) 0.0530 Uiso
O6 O 0.9668(7) 0.5917(11) 0.8102(11) 0.0480 Uiso
C14 C 0.9599(12) 0.4903(17) 0.8056(19) 0.0570 Uiso
O9 O 0.8886(8) 0.4412(13) 0.4491(13) 0.0580 Uiso
H7 H 0.8646 0.4064 0.3845 0.0870 Uiso
H8 H 0.9363 0.4089 0.4755 0.0870 Uiso
O10 O 0.9260 0.0815 0.7763 0.0610 Uiso
H9 H 0.9498 0.0410 0.7353 0.0910 Uiso
H10 H 0.8980 0.0356 0.8060 0.0910 Uiso
O11 O 0.8173(8) 0.2817(11) 0.8573(12) 0.0530 Uiso
O12 O 0.9637(8) 0.2822(12) 0.6027(11) 0.0490 Uiso
Zn4 Zn 0.59969(17) 0.7643(2) 0.7477(3) 0.0389 Uiso
O13 O 0.7983(8) 0.2624(11) 0.6151(12) 0.0520 Uiso
O14 O 0.7087(8) 0.3984(11) 0.5347(13) 0.0510 Uiso
O3_2 O 0.4845(8) 0.3997(11) 0.1115(12) 0.0510 Uiso
O4_2 O 0.4637(8) 0.2178(12) 0.1027(11) 0.0490 Uiso
C3_2 C 0.6203(12) 0.3711(17) 0.0071(19) 0.0580 Uiso
H2_2 H 0.6084 0.4436 0.0239 0.0700 Uiso
C4_2 C 0.5729(11) 0.2857(17) 0.0317(17) 0.0510 Uiso
C5_2 C 0.5933(12) 0.1788(18) 0.006(2) 0.0610 Uiso
H3_2 H 0.5628 0.1203 0.0256 0.0730 Uiso
C6_2 C 0.5003(12) 0.3040(19) 0.0848(19) 0.0570 Uiso
O1_2 O 0.7792(8) 0.1061(11) 0.8647(11) 0.0500 Uiso
N1_2 N 0.6548(10) 0.1568(15) 0.9550(14) 0.0530 Uiso
C1_2 C 0.7001(12) 0.2415(17) 0.9308(19) 0.0540 Uiso
C2_2 C 0.6857(12) 0.3492(18) 0.9573(18) 0.0540 Uiso
H1_2 H 0.7193 0.4062 0.9419 0.0640 Uiso
C7_2 C 0.7705(11) 0.2089(17) 0.8786(17) 0.0520 Uiso
O6_2 O 0.5332(7) 0.0917(11) 0.6898(11) 0.0480 Uiso
H4_2 H 0.3855 0.0411 0.5496 0.0750 Uiso
Zn1_2 Zn 0.69370(19) 0.9985(2) 0.9117(3) 0.0430 Uiso
O5_2 O 0.6051(8) 0.9374(12) 0.7532(12) 0.0530 Uiso
O7_2 O 0.2017(8) 0.7376(11) 0.3849(12) 0.0520 Uiso
O8_2 O 0.2913(8) 0.6016(11) 0.4653(13) 0.0510 Uiso
N2_2 N 0.4807(9) 0.8113(15) 0.6318(14) 0.0540 Uiso
C8_2 C 0.4669(12) 0.9204(18) 0.6230(18) 0.0540 Uiso
C9_2 C 0.3925(12) 0.9648(18) 0.555(2) 0.0620 Uiso
C10_2 C 0.3389(11) 0.7823(18) 0.5090(18) 0.0610 Uiso
C11_2 C 0.3276(12) 0.8952(18) 0.4956(19) 0.0570 Uiso
H5_2 H 0.2771 0.9240 0.4469 0.0690 Uiso
C12_2 C 0.4173(12) 0.7436(17) 0.5751(18) 0.0530 Uiso
H6_2 H 0.4264 0.6677 0.5807 0.0640 Uiso
C13_2 C 0.2708(12) 0.7016(17) 0.4474(19) 0.0610 Uiso
C14_2 C 0.5401(12) 0.9903(17) 0.6944(19) 0.0570 Uiso
O10_2 O 0.5740 0.5815 0.7237 0.0610 Uiso
H9_2 H 0.5502 0.5410 0.7647 0.0910 Uiso
H10_2 H 0.6020 0.5356 0.6940 0.0910 Uiso
Zn3_2 Zn 0.19370(19) 0.5015(2) 0.4117(3) 0.0430 Uiso
O12_2 O 0.5363(8) 0.7822(12) 0.8973(11) 0.0490 Uiso
O13_2 O 0.7017(8) 0.7624(11) 0.8849(12) 0.0520 Uiso
O14_2 O 0.7913(8) 0.8984(11) 0.9653(13) 0.0510 Uiso
O1_3 O 0.2792(8) 0.3939(11) 0.3647(11) 0.0500 Uiso
O2_2 O 0.3173(8) 0.2183(11) 0.3573(12) 0.0530 Uiso
N1_3 N 0.1548(10) 0.3432(15) 0.4550(14) 0.0530 Uiso
C1_3 C 0.2001(12) 0.2585(17) 0.4308(19) 0.0540 Uiso
C2_3 C 0.1857(12) 0.1508(18) 0.4573(18) 0.0540 Uiso
H1_3 H 0.2193 0.0938 0.4419 0.0640 Uiso
C3_3 C 0.1203(12) 0.1289(17) 0.5071(19) 0.0580 Uiso
H2_3 H 0.1084 0.0564 0.5239 0.0700 Uiso
C4_3 C 0.0729(11) 0.2143(17) 0.5317(17) 0.0510 Uiso
C5_3 C 0.0933(12) 0.3212(18) 0.506(2) 0.0610 Uiso
H3_3 H 0.0628 0.3797 0.5256 0.0730 Uiso
C6_3 C 0.0003(12) 0.1960(19) 0.5848(19) 0.0570 Uiso
C7_3 C 0.2705(11) 0.2911(17) 0.3786(17) 0.0520 Uiso
O5_3 O 0.1051(8) 0.5626(12) 0.2532(12) 0.0530 Uiso
O6_3 O 0.0332(7) 0.4083(11) 0.1898(11) 0.0480 Uiso
C14_3 C 0.0401(12) 0.5097(17) 0.1944(19) 0.0570 Uiso
O9_2 O 0.1114(8) 0.5588(13) 0.5509(13) 0.0580 Uiso
H7_2 H 0.1354 0.5936 0.6155 0.0870 Uiso
H8_2 H 0.0637 0.5911 0.5245 0.0870 Uiso
O10_3 O 0.0740 0.9185 0.2237 0.0610 Uiso
H9_3 H 0.0502 0.9590 0.2647 0.0910 Uiso
H10_3 H 0.1020 0.9644 0.1940 0.0910 Uiso
O11_2 O 0.1827(8) 0.7183(11) 0.1427(12) 0.0530 Uiso
O3_3 O 0.9845(8) 0.1003(11) 0.6115(12) 0.0510 Uiso
N2_3 N 0.9807(9) 0.6887(15) 0.1318(14) 0.0540 Uiso
C8_3 C 0.9669(12) 0.5796(18) 0.1230(18) 0.0540 Uiso
C9_3 C 0.8925(12) 0.5352(18) 0.055(2) 0.0620 Uiso
H4_3 H 0.8855 0.4589 0.0496 0.0750 Uiso
C10_3 C 0.8389(11) 0.7177(18) 0.0090(18) 0.0610 Uiso
C12_3 C 0.9173(12) 0.7564(17) 0.0751(18) 0.0530 Uiso
H6_3 H 0.9264 0.8323 0.0807 0.0640 Uiso
C11_3 C 0.8276(12) 0.6048(18) 0.9956(19) 0.0570 Uiso
H5_3 H 0.7771 0.5760 0.9469 0.0690 Uiso
C13_3 C 0.7708(12) 0.7984(17) 0.9474(19) 0.0610 Uiso
O5_4 O 0.3949(8) 0.0626(12) 0.2468(12) 0.0530 Uiso
N2_4 N 0.5193(9) 0.1887(15) 0.3682(14) 0.0540 Uiso
C8_4 C 0.5331(12) 0.0796(18) 0.3770(18) 0.0540 Uiso
C9_4 C 0.6075(12) 0.0352(18) 0.445(2) 0.0620 Uiso
C10_4 C 0.6611(11) 0.2177(18) 0.4910(18) 0.0610 Uiso
C11_4 C 0.6724(12) 0.1048(18) 0.5044(19) 0.0570 Uiso
H5_4 H 0.7229 0.0760 0.5531 0.0690 Uiso
C12_4 C 0.5827(12) 0.2564(17) 0.4249(18) 0.0530 Uiso
H6_4 H 0.5736 0.3323 0.4193 0.0640 Uiso
C13_4 C 0.7292(12) 0.2984(17) 0.5526(19) 0.0610 Uiso
C14_4 C 0.4599(12) 0.0097(17) 0.3056(19) 0.0570 Uiso
O10_4 O 0.4260 0.4185 0.2763 0.0610 Uiso
H9_4 H 0.4498 0.4590 0.2353 0.0910 Uiso
H10_4 H 0.3980 0.4644 0.3060 0.0910 Uiso
O1_4 O 0.2208(8) 0.8939(11) 0.1353(11) 0.0500 Uiso
N1_4 N 0.3452(10) 0.8432(15) 0.0450(14) 0.0530 Uiso
C1_4 C 0.2999(12) 0.7585(17) 0.0692(19) 0.0540 Uiso
C2_4 C 0.3143(12) 0.6508(18) 0.0427(18) 0.0540 Uiso
H1_4 H 0.2807 0.5938 0.0581 0.0640 Uiso
C7_4 C 0.2295(11) 0.7911(17) 0.1214(17) 0.0520 Uiso
O6_4 O 0.4668(7) 0.9083(11) 0.3102(11) 0.0480 Uiso
H4_4 H 0.6145 0.9589 0.4504 0.0750 Uiso
O3_4 O 0.5155(8) 0.6003(11) 0.8885(12) 0.0510 Uiso
C3_4 C 0.3797(12) 0.6289(17) 0.9929(19) 0.0580 Uiso
H2_4 H 0.3916 0.5564 0.9761 0.0700 Uiso
C4_4 C 0.4271(11) 0.7143(17) 0.9683(17) 0.0510 Uiso
C5_4 C 0.4067(12) 0.8212(18) 0.994(2) 0.0610 Uiso
H3_4 H 0.4372 0.8797 0.9744 0.0730 Uiso
C6_4 C 0.4997(12) 0.6960(19) 0.9152(19) 0.0570 Uiso
O9_3 O 0.6114(8) 0.9412(13) 0.0509(13) 0.0580 Uiso
H7_3 H 0.6354 0.9064 0.1155 0.0870 Uiso
H8_3 H 0.5637 0.9089 0.0245 0.0870 Uiso
O9_4 O 0.3886(8) 0.0588(13) 0.9491(13) 0.0580 Uiso
H7_4 H 0.3646 0.0936 0.8845 0.0870 Uiso
H8_4 H 0.4363 0.0911 0.9755 0.0870 Uiso
loop_
_geom_bond_atom_site_label_1
_geom_bond_atom_site_label_2
_geom_bond_site_symmetry_1
_geom_bond_site_symmetry_2
O7 C13 1_555 1_555
O8 C13 1_555 1_555
H5 C11 1_555 1_555
Zn3 O8 1_555 1_555
Zn6 O7 1_555 1_555
C8 N2 1_555 1_555
C9 C8 1_555 1_555
H4 C9 1_555 1_555
C12 N2 1_555 1_555
H6 C12 1_555 1_555
Zn5 O4 1_555 1_555
C10 C12 1_555 1_555
Zn1 O1 1_555 1_555
O1 C7 1_555 1_555
O2 C7 1_555 1_555
N1 Zn1 1_555 1_555
C1 N1 1_555 1_555
C2 C1 1_555 1_555
H1 C2 1_555 1_555
C3 C2 1_555 1_555
H2 C3 1_555 1_555
C4 C3 1_555 1_555
C5 N1 1_555 1_555
H3 C5 1_555 1_555
C6 C4 1_555 1_555
C7 C1 1_555 1_555
Zn2 O5 1_555 1_555
O5 Zn1 1_555 1_555
O6 C14 1_555 1_555
C14 O5 1_555 1_555
O9 Zn1 1_555 1_555
H7 O9 1_555 1_555
H8 O9 1_555 1_555
O10 Zn2 1_555 1_555
H9 O10 1_555 1_555
H10 O10 1_555 1_555
O11 Zn2 1_555 1_555
O12 Zn2 1_555 1_555
Zn4 O2 1_555 1_555
O13 Zn2 1_555 1_555
O14 Zn1 1_555 1_555
C4 C5 1_555 1_555
O3_2 C6_2 1_555 1_555
O4_2 C6_2 1_555 1_555
H2_2 C3_2 1_555 1_555
C4_2 C3_2 1_555 1_555
H3_2 C5_2 1_555 1_555
C6_2 C4_2 1_555 1_555
Zn6 O4_2 1_555 1_555
C4_2 C5_2 1_555 1_555
O1_2 C7_2 1_555 1_555
O11 C7_2 1_555 1_555
C1_2 N1_2 1_555 1_555
C2_2 C1_2 1_555 1_555
H1_2 C2_2 1_555 1_555
C7_2 C1_2 1_555 1_555
Zn4 O5_2 1_555 1_555
O5_2 Zn1_2 1_555 1_555
O7_2 C13_2 1_555 1_555
O8_2 C13_2 1_555 1_555
N2_2 Zn4 1_555 1_555
C8_2 N2_2 1_555 1_555
C9_2 C8_2 1_555 1_555
C10_2 C11_2 1_555 1_555
C11_2 C9_2 1_555 1_555
H5_2 C11_2 1_555 1_555
C12_2 N2_2 1_555 1_555
H6_2 C12_2 1_555 1_555
C13_2 C10_2 1_555 1_555
C14_2 O5_2 1_555 1_555
O10_2 Zn4 1_555 1_555
H9_2 O10_2 1_555 1_555
H10_2 O10_2 1_555 1_555
Zn3_2 O8_2 1_555 1_555
O12_2 Zn4 1_555 1_555
Zn5 O7_2 1_555 1_555
O13_2 Zn4 1_555 1_555
O14_2 Zn1_2 1_555 1_555
C8_2 C14_2 1_555 1_555
C10_2 C12_2 1_555 1_555
Zn3_2 O1_3 1_555 1_555
O1_3 C7_3 1_555 1_555
O2_2 C7_3 1_555 1_555
N1_3 Zn3_2 1_555 1_555
C1_3 N1_3 1_555 1_555
C2_3 C1_3 1_555 1_555
H1_3 C2_3 1_555 1_555
C3_3 C2_3 1_555 1_555
H2_3 C3_3 1_555 1_555
C4_3 C3_3 1_555 1_555
C5_3 N1_3 1_555 1_555
H3_3 C5_3 1_555 1_555
C6_3 C4_3 1_555 1_555
C7_3 C1_3 1_555 1_555
Zn5 O5_3 1_555 1_555
O5_3 Zn3_2 1_555 1_555
O6_3 C14_3 1_555 1_555
C14_3 O5_3 1_555 1_555
O9_2 Zn3_2 1_555 1_555
H7_2 O9_2 1_555 1_555
H8_2 O9_2 1_555 1_555
O10_3 Zn5 1_555 1_555
H9_3 O10_3 1_555 1_555
H10_3 O10_3 1_555 1_555
O11_2 Zn5 1_555 1_555
Zn6 O2_2 1_555 1_555
C4_3 C5_3 1_555 1_555
C8_3 N2_3 1_555 1_555
C9_3 C8_3 1_555 1_555
H4_3 C9_3 1_555 1_555
C12_3 N2_3 1_555 1_555
H6_3 C12_3 1_555 1_555
C10_3 C12_3 1_555 1_555
O13_2 C13_3 1_555 1_555
O14_2 C13_3 1_555 1_555
H5_3 C11_3 1_555 1_555
Zn6 O5_4 1_555 1_555
O5_4 Zn3 1_555 1_555
O13 C13_4 1_555 1_555
O14 C13_4 1_555 1_555
N2_4 Zn6 1_555 1_555
C8_4 N2_4 1_555 1_555
C9_4 C8_4 1_555 1_555
C10_4 C11_4 1_555 1_555
C11_4 C9_4 1_555 1_555
H5_4 C11_4 1_555 1_555
C12_4 N2_4 1_555 1_555
H6_4 C12_4 1_555 1_555
C13_4 C10_4 1_555 1_555
C14_4 O5_4 1_555 1_555
O10_4 Zn6 1_555 1_555
H9_4 O10_4 1_555 1_555
H10_4 O10_4 1_555 1_555
C8_4 C14_4 1_555 1_555
C10_4 C12_4 1_555 1_555
O1_4 C7_4 1_555 1_555
O11_2 C7_4 1_555 1_555
C1_4 N1_4 1_555 1_555
C2_4 C1_4 1_555 1_555
H1_4 C2_4 1_555 1_555
C7_4 C1_4 1_555 1_555
O3_4 C6_4 1_555 1_555
O12_2 C6_4 1_555 1_555
H2_4 C3_4 1_555 1_555
C4_4 C3_4 1_555 1_555
H3_4 C5_4 1_555 1_555
C6_4 C4_4 1_555 1_555
C4_4 C5_4 1_555 1_555
H7_3 O9_3 1_555 1_555
H8_3 O9_3 1_555 1_555
H7_4 O9_4 1_555 1_555
H8_4 O9_4 1_555 1_555

#END
