
###############################################################################
#
# This file contains modified crystal structure data generated from the
# MOF subset of the Cambridge Structural Database (CSD) v543 
# hosted by the Cambridge Crystallographic Data Centre (CCDC).
#
# This work is licensed under the Creative Commons
# Attribution-NonCommercial-ShareAlike 4.0 International License.
# To view a copy of this license, visit
# http://creativecommons.org/licenses/by-nc-sa/4.0/
# or send a letter to
# Creative Commons, PO Box 1866, Mountain View, CA 94042, USA.
#
# CIF created using the CSD Python API on 29 September 2022
# The structure has been converted into the P1 space group
# The structure has a 3D framework
# The original CSD entry KIZCUU is in the monoclinic crystal system
# The framework has been calculated to contain at least 10.0% void space
# The void calculation uses a probe of radius 1.32A, grid spacing 0.4
#
###############################################################################

data_KIZCUU
_chemical_formula_moiety         '(C288 H200 N32 Ni12 O76 P12)n'
_symmetry_cell_setting           triclinic
_symmetry_space_group_name_H-M   'P 1'
_symmetry_Int_Tables_number      1
_space_group_name_Hall           'P 1'
loop_
_symmetry_equiv_pos_site_id
_symmetry_equiv_pos_as_xyz
1 x,y,z
_cell_length_a                   25.681(5)
_cell_length_b                   17.209(3)
_cell_length_c                   18.359(4)
_cell_angle_alpha                90
_cell_angle_beta                 99.51(3)
_cell_angle_gamma                90
_cell_volume                     8002.15
loop_
_atom_site_label
_atom_site_type_symbol
_atom_site_fract_x
_atom_site_fract_y
_atom_site_fract_z
N6 N 0.00115(10) 0.04199(15) 0.32753(15)
H41 H 0.0175 0.0592 0.4364
Ni11 Ni 0.08413(2) 0.04440(2) 0.30899(2)
N11 N 0.06215(10) 0.02727(14) 0.19281(14)
C78 C 0.01342(12) 0.00583(18) 0.04004(16)
C79 C 0.02105(13) 0.08162(19) 0.07284(17)
H55 H 0.0102 0.1255 0.0448
C82 C 0.04520(13) 0.08996(18) 0.14801(17)
H58 H 0.0498 0.1397 0.1678
C80 C 0.03376(14) 0.94151(19) 0.08561(17)
H56 H 0.0312 0.8913 0.0665
C81 C 0.05803(15) 0.95465(19) 0.16062(19)
H57 H 0.0716 0.9122 0.1889
Ni2 Ni 0.65177(2) 0.02126(2) 0.42593(2)
O1 O 0.56699(8) 0.01881(11) 0.43724(11)
H2 H 0.5563 0.0642 0.4624
N1 N 0.73039(10) 0.01774(14) 0.40276(15)
N2 N 0.52835(10) 0.01439(14) 0.20114(14)
C4 C 0.50654(11) 0.00354(17) 0.04202(16)
C10 C 0.51146(12) 0.07807(17) 0.15829(16)
H3 H 0.5074 0.1251 0.1816
C36 C 0.49995(12) 0.07494(18) 0.07945(16)
H18 H 0.4882 0.1192 0.0526
C39 C 0.89406(12) 0.02961(18) 0.35787(18)
C40 C 0.74130(12) 0.0422(2) 0.33513(19)
H21 H 0.7133 0.0568 0.2989
C42 C 0.83744(11) 0.02418(17) 0.37302(18)
C57 C 0.79353(13) 0.0461(2) 0.31842(19)
H35 H 0.7990 0.0630 0.2722
C59 C 0.93755(15) 0.0432(3) 0.4148(2)
H37 H 0.9321 0.0479 0.4634
C63 C 0.98983(14) 0.0495(3) 0.3980(2)
C70 C 0.90561(16) 0.0240(3) 0.2840(2)
H48 H 0.8787 0.0165 0.2441
C71 C 0.95925(16) 0.0303(3) 0.2731(2)
H49 H 0.9660 0.0260 0.2251
Ni3 Ni 0.53850(2) 0.02058(2) 0.32019(2)
N13 N 0.45650(10) 0.03292(15) 0.32098(14)
N14 N 0.16875(10) 0.04173(15) 0.30283(14)
C95 C 0.42857(11) 0.10095(17) 0.30311(16)
H61 H 0.4472 0.1456 0.2953
C98 C 0.37226(11) 0.10584(17) 0.29603(16)
H63 H 0.3551 0.1526 0.2831
C106 C 0.28229(11) 0.04011(17) 0.30520(16)
C118 C 0.34256(11) 0.03816(17) 0.30897(16)
C122 C 0.19381(13) 0.0994(2) 0.2708(2)
H78 H 0.1735 0.1397 0.2474
C133 C 0.24962(13) 0.1013(2) 0.2712(2)
H89 H 0.2646 0.1425 0.2492
O39 O 0.55203(8) 0.14247(12) 0.32020(11)
O42 O 0.08186(9) 0.16915(13) 0.30540(12)
O43 O 0.64006(8) 0.11599(12) 0.35410(13)
O46 O 0.10700(9) 0.11110(12) 0.41666(12)
O47 O 0.66997(8) 0.10362(12) 0.51177(12)
C76 C 0.47390(13) 0.06189(19) 0.91327(17)
H53 H 0.4680 0.1091 0.9351
C77 C 0.46355(13) 0.05368(18) 0.83457(17)
H54 H 0.4507 0.0965 0.8062
P1 P 0.71254(3) 0.52683(4) 0.42863(4)
P2 P 0.81280(3) 0.47035(4) 0.49296(5)
P3 P 0.73763(3) 0.51094(4) 0.58459(4)
H1 H 0.5572 0.9718 0.4608
O3 O 0.53909(8) 0.89336(12) 0.32897(12)
O4 O 0.58883(8) 0.88238(12) 0.51344(12)
O5 O 0.61641(8) 0.95593(12) 0.32786(12)
O6 O 0.91814(9) 0.83085(13) 0.69460(12)
O7 O 0.67027(8) 0.92689(12) 0.49576(12)
O8 O 0.66564(9) 0.48985(12) 0.36726(12)
O10 O 0.89300(9) 0.88890(12) 0.58334(12)
O11 O 0.71586(8) 0.61416(12) 0.39638(14)
O12 O 0.71380(9) 0.45476(12) 0.64310(12)
O14 O 0.58487(8) 0.14716(13) 0.51064(14)
O15 O 0.90769(9) 0.06642(13) 0.64841(15)
O16 O 0.86864(9) 0.51693(13) 0.49413(15)
O17 O 0.74419(9) 0.58915(12) 0.63590(12)
O18 O 0.83115(10) 0.38314(12) 0.47445(14)
O19 O 0.97417(11) 0.14603(16) 0.70643(16)
N7 N 0.79582(10) 0.47855(14) 0.57445(15)
N8 N 0.69454(11) 0.52446(15) 0.50949(15)
N9 N 0.77016(11) 0.49203(15) 0.42091(16)
C1 C 0.62067(11) 0.81526(15) 0.34860(15)
C2 C 0.68130(11) 0.67885(15) 0.38260(15)
C3 C 0.60087(11) 0.16373(16) 0.33813(15)
C5 C 0.58977(11) 0.89135(16) 0.33429(15)
C6 C 0.87526(12) 0.59413(17) 0.52506(19)
C7 C 0.66704(11) 0.80107(16) 0.55387(15)
C8 C 0.90176(10) 0.82628(17) 0.62295(16)
C9 C 0.63923(11) 0.87602(15) 0.51882(15)
C11 C 0.61635(12) 0.25119(17) 0.34310(17)
C12 C 0.85654(12) 0.32480(17) 0.52343(19)
C13 C 0.63561(12) 0.15486(17) 0.52570(16)
C14 C 0.71762(12) 0.66085(16) 0.60940(16)
C16 C 0.65093(12) 0.40897(16) 0.36271(16)
C17 C 0.57235(12) 0.03225(18) 0.6667(2)
H5 H 0.5543 0.0784 0.6541
C20 C 0.59607(11) 0.74631(16) 0.37020(16)
H7 H 0.5602 0.7464 0.3725
C21 C 0.77229(12) 0.99448(18) 0.45491(18)
H8 H 0.7656 0.9770 0.5004
C22 C 0.70644(11) 0.74682(16) 0.36108(18)
H9 H 0.7423 0.7465 0.3583
C23 C 0.67583(12) 0.81532(17) 0.34382(17)
H10 H 0.6916 0.8601 0.3294
C24 C 0.90516(12) 0.20098(18) 0.61169(18)
C25 C 0.89310(11) 0.74494(17) 0.58769(17)
C26 C 0.82600(12) 0.9960(2) 0.44210(19)
H11 H 0.8532 0.9789 0.4784
C29 C 0.69611(12) 0.37774(16) 0.61824(18)
C30 C 0.65740(12) 0.23168(17) 0.56307(18)
C31 C 0.62670(11) 0.67647(16) 0.38841(17)
H13 H 0.6113 0.6316 0.4034
C32 C 0.72202(12) 0.78890(17) 0.55160(18)
H14 H 0.7413 0.8272 0.5323
C33 C 0.74744(12) 0.71806(18) 0.57893(19)
H15 H 0.7829 0.7098 0.5767
C34 C 0.87066(13) 0.73656(18) 0.51105(18)
H16 H 0.8622 0.7806 0.4821
C35 C 0.96624(14) 0.05849(19) 0.91439(17)
H17 H 0.9688 0.1087 0.9335
C37 C 0.52610(13) 0.93811(19) 0.08673(17)
H19 H 0.5320 0.8909 0.0649
C38 C 0.62823(12) 0.03209(19) 0.67244(19)
H20 H 0.6459 0.0776 0.6641
C41 C 0.94197(15) 0.04535(19) 0.83938(19)
H22 H 0.9284 0.0878 0.8111
C43 C 0.93185(12) 0.13276(18) 0.65999(18)
C46 C 0.53645(13) 0.94632(18) 0.16543(17)
H24 H 0.5493 0.9035 0.1938
C47 C 0.66371(12) 0.67204(17) 0.61481(19)
H25 H 0.6451 0.6344 0.6363
C48 C 0.63870(12) 0.74226(18) 0.58656(18)
H26 H 0.6033 0.7501 0.5894
C49 C 0.84180(15) 0.24665(18) 0.5031(2)
H27 H 0.8168 0.2363 0.4615
C51 C 0.86122(13) 0.6613(2) 0.47897(18)
H29 H 0.8464 0.6557 0.4295
C52 C 0.89496(14) 0.34272(18) 0.5857(2)
H30 H 0.9041 0.3940 0.5976
C53 C 0.89780(14) 0.60167(19) 0.6006(2)
H31 H 0.9066 0.5578 0.6295
C54 C 0.71301(12) 0.24450(18) 0.5818(2)
H32 H 0.7364 0.2048 0.5755
C55 C 0.86632(14) 0.18476(18) 0.5483(2)
H33 H 0.8569 0.1336 0.5363
C56 C 0.90675(13) 0.6774(2) 0.63167(19)
H34 H 0.9217 0.6828 0.6811
C58 C 0.91933(14) 0.28002(19) 0.6297(2)
H36 H 0.9448 0.2907 0.6707
C60 C 0.73294(13) 0.31817(19) 0.6103(2)
H38 H 0.7690 0.3267 0.6233
C62 C 0.57980(14) 0.3117(2) 0.3458(3)
H40 H 0.5440 0.3004 0.3417
C64 C 0.59738(14) 0.3909(2) 0.3549(3)
H42 H 0.5728 0.4305 0.3556
C65 C 0.62218(14) 0.2917(2) 0.5764(3)
H43 H 0.5860 0.2826 0.5672
C66 C 0.79938(15) 0.0156(2) 0.6622(3)
H44 H 0.8151 0.0551 0.6388
C67 C 0.74395(14) 0.0183(2) 0.6596(3)
H45 H 0.7245 0.0587 0.6346
C68 C 0.68845(16) 0.3496(2) 0.3599(4)
H46 H 0.7241 0.3616 0.3635
C69 C 0.64130(14) 0.3656(2) 0.6035(3)
H47 H 0.6180 0.4050 0.6113
C72 C 0.67078(15) 0.2705(2) 0.3512(4)
H50 H 0.6955 0.2311 0.3509
P4 P 0.28746(3) 0.47317(4) 0.57137(4)
P5 P 0.18720(3) 0.52965(4) 0.50704(5)
P6 P 0.26237(3) 0.48906(4) 0.41541(4)
H59 H 0.4428 0.0282 0.5392
O21 O 0.44797(8) 0.85753(12) 0.67980(11)
O22 O 0.46091(8) 0.10664(12) 0.67103(12)
O23 O 0.41117(8) 0.11762(12) 0.48656(12)
O24 O 0.38359(8) 0.04407(12) 0.67214(12)
O26 O 0.32973(8) 0.07311(12) 0.50424(12)
O27 O 0.33436(9) 0.51015(12) 0.63274(12)
O28 O 0.35994(8) 0.88401(12) 0.64590(13)
O30 O 0.28414(8) 0.38584(12) 0.60362(14)
O31 O 0.28620(9) 0.54524(12) 0.35690(12)
O32 O 0.33003(8) 0.89638(12) 0.48823(12)
O33 O 0.41513(8) 0.85284(13) 0.48936(14)
O34 O 0.09231(9) 0.93358(13) 0.35159(15)
O35 O 0.13136(9) 0.48307(13) 0.50587(15)
O36 O 0.25581(9) 0.41085(12) 0.36410(12)
O37 O 0.16885(10) 0.61686(12) 0.52555(14)
O38 O 0.02583(11) 0.85397(16) 0.29357(16)
N16 N 0.20418(10) 0.52145(14) 0.42555(15)
N17 N 0.30546(11) 0.47554(15) 0.49051(15)
N18 N 0.22984(11) 0.50797(15) 0.57909(16)
C83 C 0.37933(11) 0.18474(15) 0.65140(15)
C84 C 0.31870(11) 0.32115(15) 0.61740(15)
C85 C 0.39913(11) 0.83627(16) 0.66187(15)
C86 C 0.41023(11) 0.10865(16) 0.66571(15)
C87 C 0.12474(12) 0.40587(17) 0.47494(19)
C88 C 0.33296(11) 0.19893(16) 0.44613(15)
C89 C 0.09824(10) 0.17372(17) 0.37705(16)
C90 C 0.36077(11) 0.12398(15) 0.48118(15)
C91 C 0.38365(12) 0.74881(17) 0.65690(17)
C92 C 0.14346(12) 0.67520(17) 0.47657(19)
C93 C 0.36439(12) 0.84514(17) 0.47430(16)
C94 C 0.28238(12) 0.33915(16) 0.39060(16)
C96 C 0.34907(12) 0.59103(16) 0.63729(16)
C97 C 0.42765(12) 0.96775(18) 0.3333(2)
H62 H 0.4457 0.9216 0.3459
C99 C 0.40393(11) 0.25369(16) 0.62980(16)
H64 H 0.4398 0.2536 0.6275
C100 C 0.22771(12) 0.00552(18) 0.54509(18)
H65 H 0.2344 0.0230 0.4996
C101 C 0.29356(11) 0.25318(16) 0.63892(18)
H66 H 0.2577 0.2535 0.6417
C102 C 0.32417(12) 0.18468(17) 0.65618(17)
H67 H 0.3084 0.1399 0.6706
C103 C 0.09484(12) 0.79902(18) 0.38831(18)
C104 C 0.10690(11) 0.25506(17) 0.41231(17)
C105 C 0.17400(12) 0.0040(2) 0.55790(19)
H68 H 0.1468 0.0211 0.5216
C107 C 0.30389(12) 0.62226(16) 0.38176(18)
C108 C 0.34260(12) 0.76832(17) 0.43693(18)
C109 C 0.37330(11) 0.32353(16) 0.61159(17)
H69 H 0.3887 0.3684 0.5966
C110 C 0.27798(12) 0.21110(17) 0.44840(18)
H70 H 0.2587 0.1728 0.4677
C111 C 0.25256(12) 0.28194(18) 0.42107(19)
H71 H 0.2171 0.2902 0.4233
C112 C 0.12934(13) 0.26344(18) 0.48895(18)
H72 H 0.1378 0.2194 0.5179
C113 C 0.37177(12) 0.96791(19) 0.32756(19)
H73 H 0.3541 0.9224 0.3359
C117 C 0.06815(12) 0.86724(18) 0.34001(18)
C119 C 0.33629(12) 0.32796(17) 0.38519(19)
H75 H 0.3549 0.3656 0.3637
C120 C 0.36130(12) 0.25774(18) 0.41344(18)
H76 H 0.3967 0.2499 0.4106
C121 C 0.15820(15) 0.75335(18) 0.4969(2)
H77 H 0.1832 0.7637 0.5385
C123 C 0.13878(13) 0.3387(2) 0.52103(18)
H79 H 0.1536 0.3443 0.5705
C124 C 0.10504(14) 0.65728(18) 0.4143(2)
H80 H 0.0959 0.6060 0.4024
C125 C 0.10220(14) 0.39833(19) 0.3994(2)
H81 H 0.0934 0.4422 0.3705
C126 C 0.28699(12) 0.75550(18) 0.4182(2)
H82 H 0.2636 0.7952 0.4245
C127 C 0.13368(14) 0.81524(18) 0.4517(2)
H83 H 0.1431 0.8664 0.4637
C128 C 0.09325(13) 0.3226(2) 0.36833(19)
H84 H 0.0783 0.3172 0.3189
C130 C 0.08067(14) 0.71998(19) 0.3703(2)
H86 H 0.0552 0.7093 0.3293
C132 C 0.26706(13) 0.68183(19) 0.3897(2)
H88 H 0.2310 0.6733 0.3767
C134 C 0.42020(14) 0.6883(2) 0.6542(3)
H90 H 0.4560 0.6996 0.6583
C136 C 0.40262(14) 0.6091(2) 0.6451(3)
H92 H 0.4272 0.5695 0.6444
C137 C 0.37782(14) 0.7083(2) 0.4236(3)
H93 H 0.4140 0.7174 0.4328
C138 C 0.20062(15) 0.9844(2) 0.3378(3)
H94 H 0.1849 0.9449 0.3612
C139 C 0.25605(14) 0.9817(2) 0.3404(3)
H95 H 0.2755 0.9413 0.3654
C140 C 0.31155(16) 0.6504(2) 0.6401(4)
H96 H 0.2759 0.6384 0.6365
C141 C 0.35870(14) 0.6344(2) 0.3965(3)
H97 H 0.3820 0.5950 0.3887
C144 C 0.32922(15) 0.7295(2) 0.6488(4)
H100 H 0.3045 0.7689 0.6491
Ni8 Ni 0.91587(2) 0.95560(2) 0.69101(2)
Ni13 Ni 0.34823(2) 0.97874(2) 0.57407(2)
Ni16 Ni 0.46150(2) 0.97942(2) 0.67981(2)
N10 N 0.47165(10) 0.98561(14) 0.79886(14)
C73 C 0.49346(11) 0.99646(17) 0.95798(16)
C74 C 0.48854(12) 0.92193(17) 0.84171(16)
H51 H 0.4926 0.8749 0.8184
C75 C 0.50005(12) 0.92506(18) 0.92055(16)
H52 H 0.5118 0.8808 0.9474
N3 N 0.54350(10) 0.96708(15) 0.67902(14)
N4 N 0.93785(10) 0.97273(14) 0.80719(14)
N5 N 0.83125(10) 0.95827(15) 0.69717(14)
C15 C 0.57143(11) 0.89905(17) 0.69689(16)
H4 H 0.5528 0.8544 0.7047
C18 C 0.98658(12) 0.99417(18) 0.95996(16)
C19 C 0.62774(11) 0.89416(17) 0.70397(16)
H6 H 0.6449 0.8474 0.7169
C27 C 0.97895(13) 0.91838(19) 0.92716(17)
H12 H 0.9898 0.8745 0.9552
C28 C 0.71771(11) 0.95989(17) 0.69480(16)
C44 C 0.95480(13) 0.91004(18) 0.85199(17)
H23 H 0.9502 0.8603 0.8322
C45 C 0.65744(11) 0.96184(17) 0.69103(16)
C50 C 0.80619(13) 0.9006(2) 0.7292(2)
H28 H 0.8265 0.8603 0.7526
C61 C 0.75038(13) 0.8987(2) 0.7288(2)
H39 H 0.7354 0.8575 0.7508
O20 O 0.43301(8) 0.98119(11) 0.56276(11)
H60 H 0.4437 0.9358 0.5376
N12 N 0.26961(10) 0.98226(14) 0.59724(15)
C114 C 0.10594(12) 0.97039(18) 0.64213(18)
C115 C 0.25870(12) 0.9578(2) 0.66487(19)
H74 H 0.2867 0.9432 0.7011
C116 C 0.16256(11) 0.97582(17) 0.62698(18)
C129 C 0.20647(13) 0.9539(2) 0.68158(19)
H85 H 0.2010 0.9370 0.7278
C131 C 0.06245(15) 0.9568(3) 0.5852(2)
H87 H 0.0679 0.9521 0.5366
C135 C 0.01017(14) 0.9505(3) 0.6020(2)
C142 C 0.09439(16) 0.9760(3) 0.7160(2)
H98 H 0.1213 0.9835 0.7559
C143 C 0.04075(16) 0.9697(3) 0.7269(2)
H99 H 0.0340 0.9740 0.7749
N22 N 0.99885(10) 0.95801(15) 0.67247(15)
H91 H 0.9825 0.9408 0.5636
N15 N 0.00115(10) 0.45801(15) 0.82753(15)
H91_2 H 0.0175 0.4408 0.9364
Ni7 Ni 0.08413(2) 0.45560(2) 0.80899(2)
Ni2_2 Ni 0.34823(2) 0.52126(2) 0.07407(2)
P1_2 P 0.28746(3) 0.02683(4) 0.07137(4)
O1_2 O 0.43301(8) 0.51881(11) 0.06276(11)
H1_2 H 0.4428 0.4718 0.0392
H2_2 H 0.4437 0.5642 0.0376
O3_2 O 0.46091(8) 0.39336(12) 0.17103(12)
O5_2 O 0.38359(8) 0.45593(12) 0.17214(12)
O7_2 O 0.32973(8) 0.42689(12) 0.00424(12)
O11_2 O 0.28414(8) 0.11416(12) 0.10362(14)
O16_2 O 0.13136(9) 0.01693(13) 0.00587(15)
N1_2 N 0.26961(10) 0.51774(14) 0.09724(15)
N2_2 N 0.47165(10) 0.51439(14) 0.29886(14)
C1_2 C 0.37933(11) 0.31526(15) 0.15140(15)
C2_2 C 0.31870(11) 0.17885(15) 0.11740(15)
C4_2 C 0.49346(11) 0.50354(17) 0.45798(16)
C5_2 C 0.41023(11) 0.39135(16) 0.16571(15)
C10_2 C 0.48854(12) 0.57807(17) 0.34171(16)
H3_2 H 0.4926 0.6251 0.3184
C20_2 C 0.40393(11) 0.24631(16) 0.12980(16)
H7_2 H 0.4398 0.2464 0.1275
C21_2 C 0.22771(12) 0.49448(18) 0.04509(18)
C22_2 C 0.29356(11) 0.24682(16) 0.13892(18)
H9_2 H 0.2577 0.2465 0.1417
C23_2 C 0.32417(12) 0.31532(17) 0.15618(17)
H10_2 H 0.3084 0.3601 0.1706
C26_2 C 0.17400(12) 0.4960(2) 0.05790(19)
H11_2 H 0.1468 0.4789 0.0216
C31_2 C 0.37330(11) 0.17647(16) 0.11159(17)
H13_2 H 0.3887 0.1316 0.0966
H16_2 H 0.1378 0.2806 0.0179
C36_2 C 0.50005(12) 0.57494(18) 0.42055(16)
H18_2 H 0.5118 0.6192 0.4474
C37_2 C 0.47390(13) 0.43811(19) 0.41327(17)
H19_2 H 0.4680 0.3909 0.4351
C39_2 C 0.10594(12) 0.52961(18) 0.14213(18)
C40_2 C 0.25870(12) 0.5422(2) 0.16487(19)
H21_2 H 0.2867 0.5568 0.2011
C42_2 C 0.16256(11) 0.52418(17) 0.12698(18)
C46_2 C 0.46355(13) 0.44632(18) 0.33457(17)
H24_2 H 0.4507 0.4035 0.3062
C51_2 C 0.13878(13) 0.1613(2) 0.02103(18)
H29_2 H 0.1536 0.1557 0.0705
C57_2 C 0.20647(13) 0.5461(2) 0.18158(19)
H35_2 H 0.2010 0.5630 0.2278
C59_2 C 0.06245(15) 0.5432(3) 0.0852(2)
H37_2 H 0.0679 0.5479 0.0366
C63_2 C 0.01017(14) 0.5495(3) 0.1020(2)
C70_2 C 0.09439(16) 0.5240(3) 0.2160(2)
H48_2 H 0.1213 0.5165 0.2559
C71_2 C 0.04075(16) 0.5303(3) 0.2269(2)
H49_2 H 0.0340 0.5260 0.2749
Ni3_2 Ni 0.46150(2) 0.52058(2) 0.17981(2)
N10_2 N 0.52835(10) 0.48561(14) 0.70114(14)
C73_2 C 0.50654(11) 0.49646(17) 0.54202(16)
C74_2 C 0.51146(12) 0.42193(17) 0.65829(16)
H51_2 H 0.5074 0.3749 0.6816
C75_2 C 0.49995(12) 0.42506(18) 0.57945(16)
H52_2 H 0.4882 0.3808 0.5526
C76_2 C 0.52610(13) 0.56189(19) 0.58673(17)
H53_2 H 0.5320 0.6091 0.5649
C77_2 C 0.53645(13) 0.55368(18) 0.66543(17)
H54_2 H 0.5493 0.5965 0.6938
Ni4 Ni 0.91587(2) 0.54440(2) 0.19101(2)
O31_2 O 0.71380(9) 0.04524(12) 0.14310(12)
O32_2 O 0.66997(8) 0.39638(12) 0.01177(12)
O33_2 O 0.58487(8) 0.35284(13) 0.01064(14)
O34_2 O 0.90769(9) 0.43358(13) 0.14841(15)
N13_2 N 0.54350(10) 0.53292(15) 0.17902(14)
O38_2 O 0.97417(11) 0.35397(16) 0.20643(16)
N14_2 N 0.83125(10) 0.54173(15) 0.19717(14)
N16_2 N 0.79582(10) 0.02145(14) 0.07445(15)
C92_2 C 0.85654(12) 0.17520(17) 0.02343(19)
C93_2 C 0.63561(12) 0.34514(17) 0.02570(16)
C95_2 C 0.57143(11) 0.60095(17) 0.19689(16)
H61_2 H 0.5528 0.6456 0.2047
C97_2 C 0.57235(12) 0.46775(18) 0.1667(2)
H62_2 H 0.5543 0.4216 0.1541
C98_2 C 0.62774(11) 0.60584(17) 0.20397(16)
H63_2 H 0.6449 0.6526 0.2169
C103_2 C 0.90516(12) 0.29902(18) 0.11169(18)
C106_2 C 0.71771(11) 0.54011(17) 0.19480(16)
C107_2 C 0.69611(12) 0.12226(16) 0.11824(18)
C108_2 C 0.65740(12) 0.26832(17) 0.06307(18)
C113_2 C 0.62823(12) 0.46791(19) 0.17244(19)
H73_2 H 0.6459 0.4224 0.1641
C117_2 C 0.93185(12) 0.36724(18) 0.15999(18)
C118_2 C 0.65744(11) 0.53816(17) 0.19103(16)
C121_2 C 0.84180(15) 0.25335(18) 0.0031(2)
C122_2 C 0.80619(13) 0.5994(2) 0.2292(2)
H78_2 H 0.8265 0.6397 0.2526
C124_2 C 0.89496(14) 0.15728(18) 0.0857(2)
H80_2 H 0.9041 0.1060 0.0976
C126_2 C 0.71301(12) 0.25550(18) 0.0818(2)
H82_2 H 0.7364 0.2952 0.0755
C127_2 C 0.86632(14) 0.31524(18) 0.0483(2)
H83_2 H 0.8569 0.3664 0.0363
C130_2 C 0.91933(14) 0.21998(19) 0.1297(2)
H86_2 H 0.9448 0.2093 0.1707
C132_2 C 0.73294(13) 0.18183(19) 0.1103(2)
H88_2 H 0.7690 0.1733 0.1233
C133_2 C 0.75038(13) 0.6013(2) 0.2288(2)
H89_2 H 0.7354 0.6425 0.2508
C137_2 C 0.62218(14) 0.2083(2) 0.0764(3)
H93_2 H 0.5860 0.2174 0.0672
C138_2 C 0.79938(15) 0.4844(2) 0.1622(3)
H94_2 H 0.8151 0.4449 0.1388
C139_2 C 0.74395(14) 0.4817(2) 0.1596(3)
H95_2 H 0.7245 0.4413 0.1346
C141_2 C 0.64130(14) 0.1344(2) 0.1035(3)
H97_2 H 0.6180 0.0950 0.1113
O39_2 O 0.44797(8) 0.64247(12) 0.17980(11)
O42_2 O 0.91814(9) 0.66915(13) 0.19460(12)
O43_2 O 0.35994(8) 0.61599(12) 0.14590(13)
O46_2 O 0.89300(9) 0.61110(12) 0.08334(12)
N20 N 0.93785(10) 0.52727(14) 0.30719(14)
N21 N 0.99885(10) 0.54199(15) 0.17247(15)
Ni15 Ni 0.53850(2) 0.47942(2) 0.82019(2)
P3_2 P 0.26237(3) 0.01094(4) 0.91541(4)
O4_2 O 0.41117(8) 0.38238(12) 0.98656(12)
O6_2 O 0.08186(9) 0.33085(13) 0.80540(12)
O10_2 O 0.10700(9) 0.38890(12) 0.91666(12)
O17_2 O 0.25581(9) 0.08915(12) 0.86410(12)
N8_2 N 0.30546(11) 0.02446(15) 0.99051(15)
C6_2 C 0.12474(12) 0.09413(17) 0.97494(19)
C7_2 C 0.33296(11) 0.30107(16) 0.94613(15)
C8_2 C 0.09824(10) 0.32628(17) 0.87705(16)
C9_2 C 0.36077(11) 0.37602(15) 0.98118(15)
C14_2 C 0.28238(12) 0.16085(16) 0.89060(16)
H8_2 H 0.2344 0.4770 0.9996
C25_2 C 0.10690(11) 0.24494(17) 0.91231(17)
C32_2 C 0.27798(12) 0.28890(17) 0.94840(18)
H14_2 H 0.2587 0.3272 0.9677
C33_2 C 0.25256(12) 0.21806(18) 0.92107(19)
H15_2 H 0.2171 0.2098 0.9233
C34_2 C 0.12934(13) 0.23656(18) 0.98895(18)
C47_2 C 0.33629(12) 0.17204(17) 0.88519(19)
H25_2 H 0.3549 0.1344 0.8637
C48_2 C 0.36130(12) 0.24226(18) 0.91344(18)
H26_2 H 0.3967 0.2501 0.9106
C53_2 C 0.10220(14) 0.10167(19) 0.8994(2)
H31_2 H 0.0934 0.0578 0.8705
C56_2 C 0.09325(13) 0.1774(2) 0.86833(19)
H34_2 H 0.0783 0.1828 0.8189
P5_2 P 0.81280(3) 0.02965(4) 0.99296(5)
O21_2 O 0.55203(8) 0.35753(12) 0.82020(11)
O27_2 O 0.66564(9) 0.01015(12) 0.86726(12)
O28_2 O 0.64006(8) 0.38401(12) 0.85410(13)
O37_2 O 0.83115(10) 0.11686(12) 0.97445(14)
N18_2 N 0.77016(11) 0.00797(15) 0.92091(16)
C85_2 C 0.60087(11) 0.33627(16) 0.83813(15)
C91_2 C 0.61635(12) 0.24881(17) 0.84310(17)
C96_2 C 0.65093(12) 0.09103(16) 0.86271(16)
H77_2 H 0.8168 0.2637 0.9615
C134_2 C 0.57980(14) 0.1883(2) 0.8458(3)
H90_2 H 0.5440 0.1996 0.8417
C136_2 C 0.59738(14) 0.1091(2) 0.8549(3)
H92_2 H 0.5728 0.0695 0.8556
C140_2 C 0.68845(16) 0.1504(2) 0.8599(4)
H96_2 H 0.7241 0.1384 0.8635
C144_2 C 0.67078(15) 0.2295(2) 0.8512(4)
H100_2 H 0.6955 0.2689 0.8509
Ni13_2 Ni 0.65177(2) 0.47874(2) 0.92593(2)
O47_2 O 0.33003(8) 0.60362(12) 0.98823(12)
P2_2 P 0.18720(3) 0.97035(4) 0.00704(5)
O8_2 O 0.33436(9) 0.98985(12) 0.13274(12)
O18_2 O 0.16885(10) 0.88314(12) 0.02555(14)
N9_2 N 0.22984(11) 0.99203(15) 0.07909(16)
C3_2 C 0.39913(11) 0.66373(16) 0.16187(15)
C11_2 C 0.38365(12) 0.75119(17) 0.15690(17)
C16_2 C 0.34907(12) 0.90897(16) 0.13729(16)
H27_2 H 0.1832 0.7363 0.0385
C62_2 C 0.42020(14) 0.8117(2) 0.1542(3)
H40_2 H 0.4560 0.8004 0.1583
C64_2 C 0.40262(14) 0.8909(2) 0.1451(3)
H42_2 H 0.4272 0.9305 0.1444
C68_2 C 0.31155(16) 0.8496(2) 0.1401(4)
H46_2 H 0.2759 0.8616 0.1365
C72_2 C 0.32922(15) 0.7705(2) 0.1488(4)
H50_2 H 0.3045 0.7311 0.1491
P6_2 P 0.73763(3) 0.98906(4) 0.08459(4)
O23_2 O 0.58883(8) 0.61762(12) 0.01344(12)
O36_2 O 0.74419(9) 0.91085(12) 0.13590(12)
N17_2 N 0.69454(11) 0.97554(15) 0.00949(15)
C87_2 C 0.87526(12) 0.90587(17) 0.02506(19)
C88_2 C 0.66704(11) 0.69893(16) 0.05387(15)
C89_2 C 0.90176(10) 0.67372(17) 0.12295(16)
C90_2 C 0.63923(11) 0.62398(15) 0.01882(15)
C94_2 C 0.71762(12) 0.83915(16) 0.10940(16)
H65_2 H 0.7656 0.5230 0.0004
C104_2 C 0.89310(11) 0.75506(17) 0.08769(17)
C110_2 C 0.72202(12) 0.71110(17) 0.05160(18)
H70_2 H 0.7413 0.6728 0.0323
C111_2 C 0.74744(12) 0.78194(18) 0.07893(19)
H71_2 H 0.7829 0.7902 0.0767
C112_2 C 0.87066(13) 0.76344(18) 0.01105(18)
C119_2 C 0.66371(12) 0.82796(17) 0.11481(19)
H75_2 H 0.6451 0.8656 0.1363
C120_2 C 0.63870(12) 0.75774(18) 0.08656(18)
H76_2 H 0.6033 0.7499 0.0894
C125_2 C 0.89780(14) 0.89833(19) 0.1006(2)
H81_2 H 0.9066 0.9422 0.1295
C128_2 C 0.90675(13) 0.8226(2) 0.13167(19)
H84_2 H 0.9217 0.8172 0.1811
O12_2 O 0.28620(9) 0.95476(12) 0.85690(12)
O14_2 O 0.41513(8) 0.64716(13) 0.98936(14)
O15_2 O 0.09231(9) 0.56642(13) 0.85159(15)
N3_2 N 0.45650(10) 0.46708(15) 0.82098(14)
N4_2 N 0.06215(10) 0.47273(14) 0.69281(14)
O19_2 O 0.02583(11) 0.64603(16) 0.79357(16)
N5_2 N 0.16875(10) 0.45827(15) 0.80283(14)
N7_2 N 0.20418(10) 0.97855(14) 0.92555(15)
C12_2 C 0.14346(12) 0.82480(17) 0.97657(19)
C13_2 C 0.36439(12) 0.65486(17) 0.97430(16)
C15_2 C 0.42857(11) 0.39905(17) 0.80311(16)
H4_2 H 0.4472 0.3544 0.7953
C17_2 C 0.42765(12) 0.53225(18) 0.8333(2)
H5_2 H 0.4457 0.5784 0.8459
C18_2 C 0.01342(12) 0.49417(18) 0.54004(16)
C19_2 C 0.37226(11) 0.39416(17) 0.79603(16)
H6_2 H 0.3551 0.3474 0.7831
C24_2 C 0.09484(12) 0.70098(18) 0.88831(18)
C27_2 C 0.02105(13) 0.41838(19) 0.57284(17)
H12_2 H 0.0102 0.3745 0.5448
C28_2 C 0.28229(11) 0.45989(17) 0.80520(16)
C29_2 C 0.30389(12) 0.87774(16) 0.88176(18)
C30_2 C 0.34260(12) 0.73168(17) 0.93693(18)
C35_2 C 0.03376(14) 0.55849(19) 0.58561(17)
H17_2 H 0.0312 0.6087 0.5665
C38_2 C 0.37177(12) 0.53209(19) 0.82756(19)
H20_2 H 0.3541 0.5776 0.8359
C41_2 C 0.05803(15) 0.54535(19) 0.66062(19)
H22_2 H 0.0716 0.5878 0.6889
C43_2 C 0.06815(12) 0.63276(18) 0.84001(18)
C44_2 C 0.04520(13) 0.41004(18) 0.64801(17)
H23_2 H 0.0498 0.3603 0.6678
C45_2 C 0.34256(11) 0.46184(17) 0.80897(16)
C49_2 C 0.15820(15) 0.74665(18) 0.9969(2)
C50_2 C 0.19381(13) 0.4006(2) 0.7708(2)
H28_2 H 0.1735 0.3603 0.7474
C52_2 C 0.10504(14) 0.84272(18) 0.9143(2)
H30_2 H 0.0959 0.8940 0.9024
C54_2 C 0.28699(12) 0.74450(18) 0.9182(2)
H32_2 H 0.2636 0.7048 0.9245
C55_2 C 0.13368(14) 0.68476(18) 0.9517(2)
H33_2 H 0.1431 0.6336 0.9637
C58_2 C 0.08067(14) 0.78002(19) 0.8703(2)
H36_2 H 0.0552 0.7907 0.8293
C60_2 C 0.26706(13) 0.81817(19) 0.8897(2)
H38_2 H 0.2310 0.8267 0.8767
C61_2 C 0.24962(13) 0.3987(2) 0.7712(2)
H39_2 H 0.2646 0.3575 0.7492
C65_2 C 0.37782(14) 0.7917(2) 0.9236(3)
H43_2 H 0.4140 0.7826 0.9328
C66_2 C 0.20062(15) 0.5156(2) 0.8378(3)
H44_2 H 0.1849 0.5551 0.8612
C67_2 C 0.25605(14) 0.5183(2) 0.8404(3)
H45_2 H 0.2755 0.5587 0.8654
C69_2 C 0.35870(14) 0.8656(2) 0.8965(3)
H47_2 H 0.3820 0.9050 0.8887
P4_2 P 0.71254(3) 0.97317(4) 0.92863(4)
O20_2 O 0.56699(8) 0.48119(11) 0.93724(11)
H59_2 H 0.5572 0.5282 0.9608
H60_2 H 0.5563 0.4358 0.9624
O22_2 O 0.53909(8) 0.60664(12) 0.82897(12)
O24_2 O 0.61641(8) 0.54407(12) 0.82786(12)
O26_2 O 0.67027(8) 0.57311(12) 0.99576(12)
O30_2 O 0.71586(8) 0.88584(12) 0.89638(14)
O35_2 O 0.86864(9) 0.98307(13) 0.99413(15)
N12_2 N 0.73039(10) 0.48226(14) 0.90276(15)
C83_2 C 0.62067(11) 0.68474(15) 0.84860(15)
C84_2 C 0.68130(11) 0.82115(15) 0.88260(15)
C86_2 C 0.58977(11) 0.60865(16) 0.83429(15)
C99_2 C 0.59607(11) 0.75369(16) 0.87020(16)
H64_2 H 0.5602 0.7536 0.8725
C100_2 C 0.77229(12) 0.50552(18) 0.95491(18)
C101_2 C 0.70644(11) 0.75318(16) 0.86108(18)
H66_2 H 0.7423 0.7535 0.8583
C102_2 C 0.67583(12) 0.68468(17) 0.84382(17)
H67_2 H 0.6916 0.6399 0.8294
C105_2 C 0.82600(12) 0.5040(2) 0.94210(19)
H68_2 H 0.8532 0.5211 0.9784
C109_2 C 0.62670(11) 0.82353(16) 0.88841(17)
H69_2 H 0.6113 0.8684 0.9034
H72_2 H 0.8622 0.7194 0.9821
C114_2 C 0.89406(12) 0.47039(18) 0.85787(18)
C115_2 C 0.74130(12) 0.4578(2) 0.83513(19)
H74_2 H 0.7133 0.4432 0.7989
C116_2 C 0.83744(11) 0.47582(17) 0.87302(18)
C123_2 C 0.86122(13) 0.8387(2) 0.97897(18)
H79_2 H 0.8464 0.8443 0.9295
C129_2 C 0.79353(13) 0.4539(2) 0.81842(19)
H85_2 H 0.7990 0.4370 0.7722
C131_2 C 0.93755(15) 0.4568(3) 0.9148(2)
H87_2 H 0.9321 0.4521 0.9634
C135_2 C 0.98983(14) 0.4505(3) 0.8980(2)
C142_2 C 0.90561(16) 0.4760(3) 0.7840(2)
H98_2 H 0.8787 0.4835 0.7441
C143_2 C 0.95925(16) 0.4697(3) 0.7731(2)
H99_2 H 0.9660 0.4740 0.7251
H41_2 H 0.9825 0.5592 0.0636
C78_2 C 0.98658(12) 0.50583(18) 0.45996(16)
C79_2 C 0.97895(13) 0.58162(19) 0.42716(17)
H55_2 H 0.9898 0.6255 0.4552
C80_2 C 0.96624(14) 0.44151(19) 0.41439(17)
H56_2 H 0.9688 0.3913 0.4335
C81_2 C 0.94197(15) 0.45465(19) 0.33938(19)
H57_2 H 0.9284 0.4122 0.3111
C82_2 C 0.95480(13) 0.58996(18) 0.35199(17)
H58_2 H 0.9502 0.6397 0.3322
loop_
_geom_bond_atom_site_label_1
_geom_bond_atom_site_label_2
_geom_bond_site_symmetry_1
_geom_bond_site_symmetry_2
Ni11 N6 1_555 1_555
C79 C78 1_555 1_555
H55 C79 1_555 1_555
C82 N11 1_555 1_555
H58 C82 1_555 1_555
Ni11 N11 1_555 1_555
C79 C82 1_555 1_555
H56 C80 1_555 1_555
C81 C80 1_555 1_555
H57 C81 1_555 1_555
Ni2 O1 1_555 1_555
H2 O1 1_555 1_555
N1 Ni2 1_555 1_555
N2 C10 1_555 1_555
C4 C36 1_555 1_555
C10 H3 1_555 1_555
C36 C10 1_555 1_555
H18 C36 1_555 1_555
C39 C42 1_555 1_555
C40 N1 1_555 1_555
H21 C40 1_555 1_555
C57 C40 1_555 1_555
H35 C57 1_555 1_555
C59 C39 1_555 1_555
H37 C59 1_555 1_555
C63 C59 1_555 1_555
C70 C39 1_555 1_555
H48 C70 1_555 1_555
H49 C71 1_555 1_555
Ni3 O1 1_555 1_555
N13 Ni3 1_555 1_555
N14 Ni11 1_555 1_555
C95 N13 1_555 1_555
H61 C95 1_555 1_555
C98 C95 1_555 1_555
H63 C98 1_555 1_555
C106 C118 1_555 1_555
C118 C98 1_555 1_555
C122 N14 1_555 1_555
H78 C122 1_555 1_555
C133 C106 1_555 1_555
H89 C133 1_555 1_555
O39 Ni3 1_555 1_555
O42 Ni11 1_555 1_555
O43 Ni2 1_555 1_555
O46 Ni11 1_555 1_555
O47 Ni2 1_555 1_555
N2 Ni3 1_555 1_555
C42 C57 1_555 1_555
C70 C71 1_555 1_555
C122 C133 1_555 1_555
H53 C76 1_555 1_555
H54 C77 1_555 1_555
C76 C77 1_555 1_555
P1 O8 1_555 1_555
P2 O16 1_555 1_555
P3 O12 1_555 1_555
O39 C3 1_555 1_555
O3 C5 1_555 1_555
O4 C9 1_555 1_555
O6 C8 1_555 1_555
O8 C16 1_555 1_555
O43 C3 1_555 1_555
O10 C8 1_555 1_555
O11 P1 1_555 1_555
O12 C29 1_555 1_555
O47 C13 1_555 1_555
O14 C13 1_555 1_555
O15 C43 1_555 1_555
O16 C6 1_555 1_555
O17 P3 1_555 1_555
O18 P2 1_555 1_555
O19 C43 1_555 1_555
N7 P2 1_555 1_555
N8 P1 1_555 1_555
N9 P1 1_555 1_555
C1 C5 1_555 1_555
C2 O11 1_555 1_555
C3 C11 1_555 1_555
C5 O5 1_555 1_555
C6 C51 1_555 1_555
C7 C9 1_555 1_555
C8 C25 1_555 1_555
C9 O7 1_555 1_555
C11 C62 1_555 1_555
C12 O18 1_555 1_555
C13 C30 1_555 1_555
C14 O17 1_555 1_555
C16 C64 1_555 1_555
H5 C17 1_555 1_555
C20 C1 1_555 1_555
H7 C20 1_555 1_555
H8 C21 1_555 1_555
C22 C2 1_555 1_555
H9 C22 1_555 1_555
C23 C1 1_555 1_555
H10 C23 1_555 1_555
C24 C43 1_555 1_555
C25 C34 1_555 1_555
C26 C21 1_555 1_555
H11 C26 1_555 1_555
C29 C60 1_555 1_555
C30 C54 1_555 1_555
C31 C2 1_555 1_555
H13 C31 1_555 1_555
C32 C7 1_555 1_555
H14 C32 1_555 1_555
C33 C14 1_555 1_555
H15 C33 1_555 1_555
C34 H16 1_555 1_555
H17 C35 1_555 1_555
H19 C37 1_555 1_555
C38 C17 1_555 1_555
H20 C38 1_555 1_555
H22 C41 1_555 1_555
H24 C46 1_555 1_555
C47 C14 1_555 1_555
H25 C47 1_555 1_555
C48 C7 1_555 1_555
H26 C48 1_555 1_555
C49 C12 1_555 1_555
H27 C49 1_555 1_555
C51 C34 1_555 1_555
H29 C51 1_555 1_555
C52 C12 1_555 1_555
H30 C52 1_555 1_555
C53 C6 1_555 1_555
H31 C53 1_555 1_555
C54 H32 1_555 1_555
C55 C24 1_555 1_555
H33 C55 1_555 1_555
C56 C25 1_555 1_555
H34 C56 1_555 1_555
C58 C24 1_555 1_555
H36 C58 1_555 1_555
C60 C54 1_555 1_555
H38 C60 1_555 1_555
C62 H40 1_555 1_555
C64 C62 1_555 1_555
H42 C64 1_555 1_555
C65 C30 1_555 1_555
H43 C65 1_555 1_555
H44 C66 1_555 1_555
H45 C67 1_555 1_555
C68 C16 1_555 1_555
H46 C68 1_555 1_555
C69 C29 1_555 1_555
H47 C69 1_555 1_555
C72 C11 1_555 1_555
H50 C72 1_555 1_555
P4 O27 1_555 1_555
P5 O35 1_555 1_555
P6 O31 1_555 1_555
O21 C85 1_555 1_555
O22 C86 1_555 1_555
O23 C90 1_555 1_555
O42 C89 1_555 1_555
O27 C96 1_555 1_555
O28 C85 1_555 1_555
O46 C89 1_555 1_555
O30 P4 1_555 1_555
O31 C107 1_555 1_555
O32 C93 1_555 1_555
O33 C93 1_555 1_555
O34 C117 1_555 1_555
O35 C87 1_555 1_555
O36 P6 1_555 1_555
O37 P5 1_555 1_555
O38 C117 1_555 1_555
N16 P5 1_555 1_555
N17 P4 1_555 1_555
N18 P4 1_555 1_555
C83 C86 1_555 1_555
C84 O30 1_555 1_555
C85 C91 1_555 1_555
C86 O24 1_555 1_555
C87 C123 1_555 1_555
C88 C90 1_555 1_555
C89 C104 1_555 1_555
C90 O26 1_555 1_555
C91 C134 1_555 1_555
C92 O37 1_555 1_555
C93 C108 1_555 1_555
C94 O36 1_555 1_555
C96 C136 1_555 1_555
H62 C97 1_555 1_555
C99 C83 1_555 1_555
H64 C99 1_555 1_555
H65 C100 1_555 1_555
C101 C84 1_555 1_555
H66 C101 1_555 1_555
C102 C83 1_555 1_555
H67 C102 1_555 1_555
C103 C117 1_555 1_555
C104 C112 1_555 1_555
C105 C100 1_555 1_555
H68 C105 1_555 1_555
C107 C132 1_555 1_555
C108 C126 1_555 1_555
C109 C84 1_555 1_555
H69 C109 1_555 1_555
C110 C88 1_555 1_555
H70 C110 1_555 1_555
C111 C94 1_555 1_555
H71 C111 1_555 1_555
C112 H72 1_555 1_555
C113 C97 1_555 1_555
H73 C113 1_555 1_555
C119 C94 1_555 1_555
H75 C119 1_555 1_555
C120 C88 1_555 1_555
H76 C120 1_555 1_555
C121 C92 1_555 1_555
H77 C121 1_555 1_555
C123 C112 1_555 1_555
H79 C123 1_555 1_555
C124 C92 1_555 1_555
H80 C124 1_555 1_555
C125 C87 1_555 1_555
H81 C125 1_555 1_555
C126 H82 1_555 1_555
C127 C103 1_555 1_555
H83 C127 1_555 1_555
C128 C104 1_555 1_555
H84 C128 1_555 1_555
C130 C103 1_555 1_555
H86 C130 1_555 1_555
C132 C126 1_555 1_555
H88 C132 1_555 1_555
C134 H90 1_555 1_555
C136 C134 1_555 1_555
H92 C136 1_555 1_555
C137 C108 1_555 1_555
H93 C137 1_555 1_555
H94 C138 1_555 1_555
H95 C139 1_555 1_555
C140 C96 1_555 1_555
H96 C140 1_555 1_555
C141 C107 1_555 1_555
H97 C141 1_555 1_555
C144 C91 1_555 1_555
H100 C144 1_555 1_555
Ni8 O6 1_555 1_555
Ni13 O28 1_555 1_555
Ni16 O21 1_555 1_555
P2 N9 1_555 1_555
P3 N7 1_555 1_555
P3 N8 1_555 1_555
O10 Ni8 1_555 1_555
C20 C31 1_555 1_555
C22 C23 1_555 1_555
C32 C33 1_555 1_555
C35 C41 1_555 1_555
C37 C46 1_555 1_555
C47 C48 1_555 1_555
C49 C55 1_555 1_555
C52 C58 1_555 1_555
C53 C56 1_555 1_555
C65 C69 1_555 1_555
C66 C67 1_555 1_555
C68 C72 1_555 1_555
P5 N18 1_555 1_555
P6 N16 1_555 1_555
P6 N17 1_555 1_555
O32 Ni13 1_555 1_555
C99 C109 1_555 1_555
C101 C102 1_555 1_555
C110 C111 1_555 1_555
C119 C120 1_555 1_555
C121 C127 1_555 1_555
C124 C130 1_555 1_555
C125 C128 1_555 1_555
C137 C141 1_555 1_555
C138 C139 1_555 1_555
C140 C144 1_555 1_555
N10 C74 1_555 1_555
C74 H51 1_555 1_555
C75 C73 1_555 1_555
H52 C75 1_555 1_555
Ni16 N10 1_555 1_555
C74 C75 1_555 1_555
N3 C15 1_555 1_555
N4 Ni8 1_555 1_555
N5 Ni8 1_555 1_555
C15 H4 1_555 1_555
C18 C27 1_555 1_555
C19 C15 1_555 1_555
H6 C19 1_555 1_555
C27 H12 1_555 1_555
C28 C45 1_555 1_555
C44 N4 1_555 1_555
H23 C44 1_555 1_555
C45 C19 1_555 1_555
C50 N5 1_555 1_555
H28 C50 1_555 1_555
C61 C28 1_555 1_555
H39 C61 1_555 1_555
Ni13 O20 1_555 1_555
H60 O20 1_555 1_555
N12 Ni13 1_555 1_555
C114 C116 1_555 1_555
C115 N12 1_555 1_555
H74 C115 1_555 1_555
C129 C115 1_555 1_555
H85 C129 1_555 1_555
C131 C114 1_555 1_555
H87 C131 1_555 1_555
C135 C131 1_555 1_555
C142 C114 1_555 1_555
H98 C142 1_555 1_555
H99 C143 1_555 1_555
Ni16 N3 1_555 1_555
N22 Ni8 1_555 1_555
C27 C44 1_555 1_555
C50 C61 1_555 1_555
O20 Ni16 1_555 1_555
C116 C129 1_555 1_555
C142 C143 1_555 1_555
Ni7 N15 1_555 1_555
Ni2_2 O1_2 1_555 1_555
O1_2 H1_2 1_555 1_555
H2_2 O1_2 1_555 1_555
O3_2 C5_2 1_555 1_555
O5_2 Ni2_2 1_555 1_555
O7_2 Ni2_2 1_555 1_555
O11_2 P1_2 1_555 1_555
N1_2 Ni2_2 1_555 1_555
N2_2 C10_2 1_555 1_555
C1_2 C5_2 1_555 1_555
C2_2 O11_2 1_555 1_555
C4_2 C36_2 1_555 1_555
C5_2 O5_2 1_555 1_555
C10_2 H3_2 1_555 1_555
C20_2 C1_2 1_555 1_555
H7_2 C20_2 1_555 1_555
C21_2 N1_2 1_555 1_555
C22_2 C2_2 1_555 1_555
H9_2 C22_2 1_555 1_555
C23_2 C1_2 1_555 1_555
H10_2 C23_2 1_555 1_555
C26_2 C21_2 1_555 1_555
H11_2 C26_2 1_555 1_555
C31_2 C2_2 1_555 1_555
H13_2 C31_2 1_555 1_555
C36_2 C10_2 1_555 1_555
H18_2 C36_2 1_555 1_555
C37_2 C4_2 1_555 1_555
H19_2 C37_2 1_555 1_555
C39_2 C42_2 1_555 1_555
C40_2 N1_2 1_555 1_555
H21_2 C40_2 1_555 1_555
C42_2 C26_2 1_555 1_555
C46_2 N2_2 1_555 1_555
H24_2 C46_2 1_555 1_555
H29_2 C51_2 1_555 1_555
C57_2 C40_2 1_555 1_555
H35_2 C57_2 1_555 1_555
C59_2 C39_2 1_555 1_555
H37_2 C59_2 1_555 1_555
C63_2 C59_2 1_555 1_555
C70_2 C39_2 1_555 1_555
H48_2 C70_2 1_555 1_555
H49_2 C71_2 1_555 1_555
Ni3_2 O1_2 1_555 1_555
N10_2 C74_2 1_555 1_555
C73_2 C4_2 1_555 1_555
C74_2 H51_2 1_555 1_555
C75_2 C73_2 1_555 1_555
H52_2 C75_2 1_555 1_555
C76_2 C73_2 1_555 1_555
H53_2 C76_2 1_555 1_555
C77_2 N10_2 1_555 1_555
H54_2 C77_2 1_555 1_555
Ni4 O34_2 1_555 1_555
O31_2 C107_2 1_555 1_555
O32_2 C93_2 1_555 1_555
O33_2 C93_2 1_555 1_555
O34_2 C117_2 1_555 1_555
N13_2 Ni3_2 1_555 1_555
O38_2 C117_2 1_555 1_555
N14_2 Ni4 1_555 1_555
C93_2 C108_2 1_555 1_555
C95_2 N13_2 1_555 1_555
H61_2 C95_2 1_555 1_555
C97_2 N13_2 1_555 1_555
H62_2 C97_2 1_555 1_555
C98_2 C95_2 1_555 1_555
H63_2 C98_2 1_555 1_555
C103_2 C117_2 1_555 1_555
C106_2 C118_2 1_555 1_555
C107_2 C132_2 1_555 1_555
C108_2 C126_2 1_555 1_555
C113_2 C97_2 1_555 1_555
H73_2 C113_2 1_555 1_555
C118_2 C98_2 1_555 1_555
C121_2 C92_2 1_555 1_555
C122_2 N14_2 1_555 1_555
H78_2 C122_2 1_555 1_555
C124_2 C92_2 1_555 1_555
H80_2 C124_2 1_555 1_555
C126_2 H82_2 1_555 1_555
C127_2 C103_2 1_555 1_555
H83_2 C127_2 1_555 1_555
C130_2 C103_2 1_555 1_555
H86_2 C130_2 1_555 1_555
C132_2 C126_2 1_555 1_555
H88_2 C132_2 1_555 1_555
C133_2 C106_2 1_555 1_555
H89_2 C133_2 1_555 1_555
C137_2 C108_2 1_555 1_555
H93_2 C137_2 1_555 1_555
C138_2 N14_2 1_555 1_555
H94_2 C138_2 1_555 1_555
C139_2 C106_2 1_555 1_555
H95_2 C139_2 1_555 1_555
C141_2 C107_2 1_555 1_555
H97_2 C141_2 1_555 1_555
O39_2 Ni3_2 1_555 1_555
O42_2 Ni4 1_555 1_555
O43_2 Ni2_2 1_555 1_555
O46_2 Ni4 1_555 1_555
N20 Ni4 1_555 1_555
N21 Ni4 1_555 1_555
Ni15 N10_2 1_555 1_555
O3_2 Ni3_2 1_555 1_555
O5_2 Ni3_2 1_555 1_555
N2_2 Ni3_2 1_555 1_555
C20_2 C31_2 1_555 1_555
C22_2 C23_2 1_555 1_555
C37_2 C46_2 1_555 1_555
C42_2 C57_2 1_555 1_555
C70_2 C71_2 1_555 1_555
C74_2 C75_2 1_555 1_555
C76_2 C77_2 1_555 1_555
C113_2 C118_2 1_555 1_555
C121_2 C127_2 1_555 1_555
C122_2 C133_2 1_555 1_555
C124_2 C130_2 1_555 1_555
C137_2 C141_2 1_555 1_555
C138_2 C139_2 1_555 1_555
O4_2 C9_2 1_555 1_555
O6_2 C8_2 1_555 1_555
O10_2 C8_2 1_555 1_555
O17_2 P3_2 1_555 1_555
C7_2 C9_2 1_555 1_555
C8_2 C25_2 1_555 1_555
C14_2 O17_2 1_555 1_555
C25_2 C34_2 1_555 1_555
C32_2 C7_2 1_555 1_555
H14_2 C32_2 1_555 1_555
C33_2 C14_2 1_555 1_555
H15_2 C33_2 1_555 1_555
C47_2 C14_2 1_555 1_555
H25_2 C47_2 1_555 1_555
C48_2 C7_2 1_555 1_555
H26_2 C48_2 1_555 1_555
C53_2 C6_2 1_555 1_555
H31_2 C53_2 1_555 1_555
C56_2 C25_2 1_555 1_555
H34_2 C56_2 1_555 1_555
O21_2 C85_2 1_555 1_555
O27_2 C96_2 1_555 1_555
O28_2 C85_2 1_555 1_555
O37_2 P5_2 1_555 1_555
C85_2 C91_2 1_555 1_555
C91_2 C134_2 1_555 1_555
C96_2 C136_2 1_555 1_555
C134_2 H90_2 1_555 1_555
C136_2 C134_2 1_555 1_555
H92_2 C136_2 1_555 1_555
C140_2 C96_2 1_555 1_555
H96_2 C140_2 1_555 1_555
C144_2 C91_2 1_555 1_555
H100_2 C144_2 1_555 1_555
Ni7 O6_2 1_555 1_555
Ni13_2 O28_2 1_555 1_555
Ni15 O21_2 1_555 1_555
P3_2 N8_2 1_555 1_555
O10_2 Ni7 1_555 1_555
C32_2 C33_2 1_555 1_555
C47_2 C48_2 1_555 1_555
C53_2 C56_2 1_555 1_555
P5_2 N18_2 1_555 1_555
C140_2 C144_2 1_555 1_555
O39_2 C3_2 1_555 1_555
O8_2 C16_2 1_555 1_555
O43_2 C3_2 1_555 1_555
O18_2 P2_2 1_555 1_555
C3_2 C11_2 1_555 1_555
C11_2 C62_2 1_555 1_555
C16_2 C64_2 1_555 1_555
C62_2 H40_2 1_555 1_555
C64_2 C62_2 1_555 1_555
H42_2 C64_2 1_555 1_555
C68_2 C16_2 1_555 1_555
H46_2 C68_2 1_555 1_555
C72_2 C11_2 1_555 1_555
H50_2 C72_2 1_555 1_555
O23_2 C90_2 1_555 1_555
O42_2 C89_2 1_555 1_555
O46_2 C89_2 1_555 1_555
O36_2 P6_2 1_555 1_555
C88_2 C90_2 1_555 1_555
C89_2 C104_2 1_555 1_555
C94_2 O36_2 1_555 1_555
C104_2 C112_2 1_555 1_555
C110_2 C88_2 1_555 1_555
H70_2 C110_2 1_555 1_555
C111_2 C94_2 1_555 1_555
H71_2 C111_2 1_555 1_555
C119_2 C94_2 1_555 1_555
H75_2 C119_2 1_555 1_555
C120_2 C88_2 1_555 1_555
H76_2 C120_2 1_555 1_555
C125_2 C87_2 1_555 1_555
H81_2 C125_2 1_555 1_555
C128_2 C104_2 1_555 1_555
H84_2 C128_2 1_555 1_555
P2_2 N9_2 1_555 1_555
C68_2 C72_2 1_555 1_555
P6_2 N17_2 1_555 1_555
C110_2 C111_2 1_555 1_555
C119_2 C120_2 1_555 1_555
C125_2 C128_2 1_555 1_555
Ni7 O15_2 1_555 1_555
O12_2 C29_2 1_555 1_555
O47_2 C13_2 1_555 1_555
O14_2 C13_2 1_555 1_555
O15_2 C43_2 1_555 1_555
N3_2 C15_2 1_555 1_555
N4_2 Ni7 1_555 1_555
O19_2 C43_2 1_555 1_555
N5_2 Ni7 1_555 1_555
C13_2 C30_2 1_555 1_555
C15_2 H4_2 1_555 1_555
C17_2 N3_2 1_555 1_555
H5_2 C17_2 1_555 1_555
C18_2 C27_2 1_555 1_555
C19_2 C15_2 1_555 1_555
H6_2 C19_2 1_555 1_555
C24_2 C43_2 1_555 1_555
C27_2 H12_2 1_555 1_555
C28_2 C45_2 1_555 1_555
C29_2 C60_2 1_555 1_555
C30_2 C54_2 1_555 1_555
C35_2 C18_2 1_555 1_555
H17_2 C35_2 1_555 1_555
C38_2 C17_2 1_555 1_555
H20_2 C38_2 1_555 1_555
C41_2 N4_2 1_555 1_555
H22_2 C41_2 1_555 1_555
C44_2 N4_2 1_555 1_555
H23_2 C44_2 1_555 1_555
C45_2 C19_2 1_555 1_555
C49_2 C12_2 1_555 1_555
C50_2 N5_2 1_555 1_555
H28_2 C50_2 1_555 1_555
C52_2 C12_2 1_555 1_555
H30_2 C52_2 1_555 1_555
C54_2 H32_2 1_555 1_555
C55_2 C24_2 1_555 1_555
H33_2 C55_2 1_555 1_555
C58_2 C24_2 1_555 1_555
H36_2 C58_2 1_555 1_555
C60_2 C54_2 1_555 1_555
H38_2 C60_2 1_555 1_555
C61_2 C28_2 1_555 1_555
H39_2 C61_2 1_555 1_555
C65_2 C30_2 1_555 1_555
H43_2 C65_2 1_555 1_555
C66_2 N5_2 1_555 1_555
H44_2 C66_2 1_555 1_555
C67_2 C28_2 1_555 1_555
H45_2 C67_2 1_555 1_555
C69_2 C29_2 1_555 1_555
H47_2 C69_2 1_555 1_555
Ni13_2 O20_2 1_555 1_555
O20_2 H59_2 1_555 1_555
H60_2 O20_2 1_555 1_555
O22_2 C86_2 1_555 1_555
O24_2 Ni13_2 1_555 1_555
O26_2 Ni13_2 1_555 1_555
O30_2 P4_2 1_555 1_555
N12_2 Ni13_2 1_555 1_555
C83_2 C86_2 1_555 1_555
C84_2 O30_2 1_555 1_555
C86_2 O24_2 1_555 1_555
C99_2 C83_2 1_555 1_555
H64_2 C99_2 1_555 1_555
C100_2 N12_2 1_555 1_555
C101_2 C84_2 1_555 1_555
H66_2 C101_2 1_555 1_555
C102_2 C83_2 1_555 1_555
H67_2 C102_2 1_555 1_555
C105_2 C100_2 1_555 1_555
H68_2 C105_2 1_555 1_555
C109_2 C84_2 1_555 1_555
H69_2 C109_2 1_555 1_555
C114_2 C116_2 1_555 1_555
C115_2 N12_2 1_555 1_555
H74_2 C115_2 1_555 1_555
C116_2 C105_2 1_555 1_555
H79_2 C123_2 1_555 1_555
C129_2 C115_2 1_555 1_555
H85_2 C129_2 1_555 1_555
C131_2 C114_2 1_555 1_555
H87_2 C131_2 1_555 1_555
C135_2 C131_2 1_555 1_555
C142_2 C114_2 1_555 1_555
H98_2 C142_2 1_555 1_555
H99_2 C143_2 1_555 1_555
Ni15 N3_2 1_555 1_555
C27_2 C44_2 1_555 1_555
C35_2 C41_2 1_555 1_555
C38_2 C45_2 1_555 1_555
C49_2 C55_2 1_555 1_555
C50_2 C61_2 1_555 1_555
C52_2 C58_2 1_555 1_555
C65_2 C69_2 1_555 1_555
C66_2 C67_2 1_555 1_555
O20_2 Ni15 1_555 1_555
O22_2 Ni15 1_555 1_555
O24_2 Ni15 1_555 1_555
C99_2 C109_2 1_555 1_555
C101_2 C102_2 1_555 1_555
C116_2 C129_2 1_555 1_555
C142_2 C143_2 1_555 1_555
N20 C81_2 1_555 1_555
C79_2 C78_2 1_555 1_555
H55_2 C79_2 1_555 1_555
C80_2 C78_2 1_555 1_555
H56_2 C80_2 1_555 1_555
C81_2 C80_2 1_555 1_555
H57_2 C81_2 1_555 1_555
C82_2 N20 1_555 1_555
H58_2 C82_2 1_555 1_555
C79_2 C82_2 1_555 1_555

#END
