
###############################################################################
#
# This file contains modified crystal structure data generated from the
# MOF subset of the Cambridge Structural Database (CSD) v543 
# hosted by the Cambridge Crystallographic Data Centre (CCDC).
#
# This work is licensed under the Creative Commons
# Attribution-NonCommercial-ShareAlike 4.0 International License.
# To view a copy of this license, visit
# http://creativecommons.org/licenses/by-nc-sa/4.0/
# or send a letter to
# Creative Commons, PO Box 1866, Mountain View, CA 94042, USA.
#
# CIF created using the CSD Python API on 29 September 2022
# The structure has been converted into the P1 space group
# The structure has a 3D framework
# The original CSD entry KOBFEN is in the orthorhombic crystal system
# The framework has been calculated to contain at least 10.0% void space
# The void calculation uses a probe of radius 1.32A, grid spacing 0.4
# H atom positions have been added when not included in the experimental data
#
###############################################################################

data_KOBFEN
_chemical_formula_moiety         '(C128 H160 Cu8 N32 O56 S8)n'
_symmetry_cell_setting           triclinic
_symmetry_space_group_name_H-M   'P 1'
_symmetry_Int_Tables_number      1
_space_group_name_Hall           'P 1'
loop_
_symmetry_equiv_pos_site_id
_symmetry_equiv_pos_as_xyz
1 x,y,z
_cell_length_a                   18.6983(13)
_cell_length_b                   13.7126(12)
_cell_length_c                   16.305(2)
_cell_angle_alpha                90
_cell_angle_beta                 90
_cell_angle_gamma                90
_cell_volume                     4180.64
loop_
_atom_site_label
_atom_site_type_symbol
_atom_site_fract_x
_atom_site_fract_y
_atom_site_fract_z
O3 O 0.1572(2) 0.1126(3) 0.0405(3)
C22 C 0.2176(3) 0.0833(4) 0.0512(4)
C23 C 0.2835(3) 0.1395(4) 0.0264(4)
H26 H 0.3164 0.1408 0.0724
H27 H 0.2384 0.2757 0.0386
O4 O 0.3456(2) 0.3905(3) 0.8836(4)
N7 N 0.2702(3) 0.4985(3) 0.8236(3)
H4 H 0.2262 0.5081 0.8107
N8 N 0.4078(2) 0.7216(3) 0.7483(3)
H25 H 0.3069 0.1048 0.9820
C24 C 0.2694(4) 0.2443(4) 0.9988(4)
H28 H 0.3143 0.2796 0.9980
C25 C 0.2351(4) 0.2511(4) 0.9150(4)
H29 H 0.1906 0.2145 0.9156
H30 H 0.2665 0.2207 0.8751
C26 C 0.2193(3) 0.3554(4) 0.8874(4)
H31 H 0.1882 0.3532 0.8399
H32 H 0.1937 0.3887 0.9309
C27 C 0.2850(3) 0.4141(4) 0.8660(4)
C28 C 0.3186(3) 0.5701(3) 0.7993(3)
C29 C 0.3895(3) 0.5716(4) 0.8212(4)
H33 H 0.4086 0.5219 0.8533
C30 C 0.4322(3) 0.6476(4) 0.7952(4)
H34 H 0.4800 0.6479 0.8107
C31 C 0.3374(2) 0.7199(3) 0.7283(4)
H35 H 0.3190 0.7708 0.6971
C32 C 0.2925(3) 0.6473(4) 0.7519(4)
H36 H 0.2446 0.6488 0.7365
Cu4 Cu 0.47451(3) 0.82599(4) 0.70872(4)
O1 O 0.9001(2) 0.0985(3) 0.3961(4)
O2 O 0.6058(2) 0.3903(3) 0.5294(3)
N3 N 0.6792(3) 0.5046(3) 0.5839(3)
H2 H 0.7235 0.5161 0.5947
N4 N 0.5398(2) 0.7208(3) 0.6657(3)
C6 C 0.8406(3) 0.0742(4) 0.3731(4)
C7 C 0.7739(3) 0.1322(4) 0.3935(4)
H9 H 0.7434 0.0925 0.4280
H10 H 0.7482 0.1449 0.3430
C8 C 0.7871(3) 0.2287(4) 0.4365(4)
H11 H 0.8218 0.2192 0.4799
H12 H 0.8071 0.2748 0.3976
C9 C 0.7197(3) 0.2709(4) 0.4725(4)
H13 H 0.6993 0.2246 0.5110
H14 H 0.6851 0.2815 0.4291
C10 C 0.7338(3) 0.3666(4) 0.5164(4)
H15 H 0.7613 0.4088 0.4806
H16 H 0.7625 0.3540 0.5648
C11 C 0.6654(3) 0.4195(4) 0.5419(4)
C12 C 0.6311(3) 0.5735(4) 0.6107(4)
C13 C 0.6546(3) 0.6453(4) 0.6630(4)
H17 H 0.7020 0.6453 0.6802
C14 C 0.6092(2) 0.7173(4) 0.6903(4)
H18 H 0.6263 0.7645 0.7262
C15 C 0.5171(3) 0.6498(5) 0.6144(5)
H19 H 0.4696 0.6510 0.5974
C16 C 0.5596(3) 0.5772(4) 0.5863(4)
H20 H 0.5413 0.5300 0.5511
S2 S 0.35875(6) 0.99468(8) 0.69371(9)
O6 O 0.53830(19) 0.9241(2) 0.6579(3)
O8 O 0.6341(2) 0.9534(3) 0.7515(4)
O10 O 0.40251(19) 0.9247(2) 0.7407(2)
O11 O 0.3225(2) 0.9449(3) 0.6257(3)
O14 O 0.5287(3) 0.8337(4) 0.8376(3)
H39 H 0.579873 0.815259 0.832644
H40 H 0.504265 0.787968 0.875607
Cu1 Cu 0.03279(3) 0.66718(4) 0.21533(4)
Cu2 Cu 0.02549(3) 0.32599(4) 0.20872(4)
S2_2 S 0.14125(6) 0.49468(8) 0.19371(9)
O9 O 0.09500(18) 0.5726(2) 0.1586(2)
O10_2 O 0.09749(19) 0.4247(2) 0.2407(2)
O11_2 O 0.1775(2) 0.4449(3) 0.1257(3)
O12 O 0.1933(2) 0.5387(3) 0.2500(3)
O13 O 0.0901(3) 0.6531(3) 0.3379(3)
N5 N 0.0959(2) 0.7750(3) 0.1725(3)
N6 N 0.2331(3) 0.9956(3) 0.0892(3)
H3 H 0.2777 0.9830 0.0964
H5 H 0.0318 0.8297 0.3320
C17 C 0.1666(3) 0.7746(4) 0.1867(4)
H21 H 0.1858 0.7224 0.2157
C18 C 0.2122(3) 0.8468(4) 0.1610(4)
H22 H 0.2607 0.8427 0.1731
C19 C 0.1861(3) 0.9261(3) 0.1167(3)
C20 C 0.1109(3) 0.9269(4) 0.1008(4)
H23 H 0.0899 0.9776 0.0715
C21 C 0.0706(3) 0.8508(4) 0.1298(4)
H24 H 0.0218 0.8521 0.1190
N10 N 0.0922(2) 0.2216(3) 0.2483(3)
H37 H 0.107401 0.585137 0.344857
H38 H 0.131409 0.698577 0.339312
H19_2 H 0.0304 0.1510 0.0974
H4_2 H 0.2738 0.0081 0.3107
C28_2 C 0.1814(3) 0.0701(3) 0.2993(3)
C29_2 C 0.1105(3) 0.0716(4) 0.3212(4)
H33_2 H 0.0914 0.0219 0.3533
C30_2 C 0.0678(3) 0.1476(4) 0.2952(4)
H34_2 H 0.0200 0.1479 0.3107
C31_2 C 0.1626(2) 0.2199(3) 0.2283(4)
H35_2 H 0.1810 0.2708 0.1971
C32_2 C 0.2075(3) 0.1473(4) 0.2519(4)
H36_2 H 0.2554 0.1488 0.2365
S1 S 0.91616(6) 0.50017(9) 0.19596(11)
O5 O 0.96085(19) 0.5680(2) 0.2441(3)
O6_2 O 0.96170(19) 0.4241(2) 0.1579(3)
O7 O 0.8786(2) 0.5519(3) 0.1311(4)
O8_2 O 0.8659(2) 0.4534(3) 0.2515(4)
O14_2 O 0.9713(3) 0.3337(4) 0.3376(3)
N1 N 0.9657(2) 0.7687(3) 0.2568(3)
N2 N 0.8270(3) 0.9924(3) 0.3280(3)
H1 H 0.7836 0.9843 0.3118
C1 C 0.9857(3) 0.8349(4) 0.3110(5)
C2 C 0.9447(3) 0.9100(4) 0.3387(4)
H6 H 0.9617 0.9528 0.3784
C3 C 0.8757(3) 0.9211(3) 0.3054(3)
C4 C 0.8541(3) 0.8528(4) 0.2470(3)
H7 H 0.8091 0.8572 0.2230
C5 C 0.9003(2) 0.7785(3) 0.2250(4)
H8 H 0.8851 0.7333 0.1863
N9 N 0.9602(2) 0.2208(3) 0.1657(3)
H39_2 H 0.920127 0.315259 0.332644
H40_2 H 0.995735 0.287968 0.375607
N3_2 N 0.8208(3) 0.0046(3) 0.0839(3)
H2_2 H 0.7765 0.0161 0.0947
C12_2 C 0.8689(3) 0.0735(4) 0.1107(4)
C13_2 C 0.8454(3) 0.1453(4) 0.1630(4)
H17_2 H 0.7980 0.1453 0.1802
C14_2 C 0.8908(2) 0.2173(4) 0.1903(4)
H18_2 H 0.8737 0.2645 0.2262
C15_2 C 0.9829(3) 0.1498(5) 0.1144(5)
C16_2 C 0.9404(3) 0.0772(4) 0.0863(4)
H20_2 H 0.9587 0.0300 0.0511
S1_2 S 0.08384(6) 0.49983(9) 0.69596(11)
O5_2 O 0.03915(19) 0.4320(2) 0.7441(3)
O6_3 O 0.03830(19) 0.5759(2) 0.6579(3)
O7_2 O 0.1214(2) 0.4481(3) 0.6311(4)
O8_3 O 0.1341(2) 0.5466(3) 0.7515(4)
O14_3 O 0.0287(3) 0.6663(4) 0.8376(3)
N1_2 N 0.0343(2) 0.2313(3) 0.7568(3)
N2_2 N 0.1730(3) 0.0076(3) 0.8280(3)
H1_2 H 0.2164 0.0157 0.8118
C1_2 C 0.0143(3) 0.1651(4) 0.8110(5)
C2_2 C 0.0553(3) 0.0900(4) 0.8387(4)
H6_2 H 0.0383 0.0472 0.8784
C3_2 C 0.1243(3) 0.0789(3) 0.8054(3)
C4_2 C 0.1459(3) 0.1472(4) 0.7470(3)
H7_2 H 0.1909 0.1428 0.7230
C5_2 C 0.0997(2) 0.2215(3) 0.7250(4)
H8_2 H 0.1149 0.2667 0.6863
N9_2 N 0.0398(2) 0.7792(3) 0.6657(3)
H39_3 H 0.0798734 0.684741 0.832644
H40_3 H 0.00426489 0.712032 0.875607
N3_3 N 0.1792(3) 0.9954(3) 0.5839(3)
H2_3 H 0.2235 0.9839 0.5947
C12_3 C 0.1311(3) 0.9265(4) 0.6107(4)
C13_3 C 0.1546(3) 0.8547(4) 0.6630(4)
H17_3 H 0.2020 0.8547 0.6802
C14_3 C 0.1092(2) 0.7827(4) 0.6903(4)
H18_3 H 0.1263 0.7355 0.7262
C15_3 C 0.0171(3) 0.8502(5) 0.6144(5)
C16_3 C 0.0596(3) 0.9228(4) 0.5863(4)
H20_3 H 0.0413 0.9700 0.5511
O2_2 O 0.3942(2) 0.6097(3) 0.0294(3)
N3_4 N 0.3208(3) 0.4954(3) 0.0839(3)
H2_4 H 0.2765 0.4839 0.0947
N4_2 N 0.4602(2) 0.2792(3) 0.1657(3)
H13_2 H 0.3007 0.7754 0.0110
C10_2 C 0.2662(3) 0.6334(4) 0.0164(4)
H16_2 H 0.2375 0.6460 0.0648
C11_2 C 0.3346(3) 0.5805(4) 0.0419(4)
C12_4 C 0.3689(3) 0.4265(4) 0.1107(4)
C13_4 C 0.3454(3) 0.3547(4) 0.1630(4)
H17_4 H 0.2980 0.3547 0.1802
C14_4 C 0.3908(2) 0.2827(4) 0.1903(4)
H18_4 H 0.3737 0.2355 0.2262
C15_4 C 0.4829(3) 0.3502(5) 0.1144(5)
H19_3 H 0.5304 0.3490 0.0974
C16_4 C 0.4404(3) 0.4228(4) 0.0863(4)
H20_4 H 0.4587 0.4700 0.0511
Cu3 Cu 0.52549(3) 0.17401(4) 0.20872(4)
O3_2 O 0.8428(2) 0.8874(3) 0.5405(3)
O4_2 O 0.6544(2) 0.6095(3) 0.3836(4)
N7_2 N 0.7298(3) 0.5015(3) 0.3236(3)
H4_3 H 0.7738 0.4919 0.3107
N8_2 N 0.5922(2) 0.2784(3) 0.2483(3)
C22_2 C 0.7824(3) 0.9167(4) 0.5512(4)
C23_2 C 0.7165(3) 0.8605(4) 0.5264(4)
H25_2 H 0.6931 0.8952 0.4820
H26_2 H 0.6836 0.8592 0.5724
C24_2 C 0.7306(4) 0.7557(4) 0.4988(4)
H27_2 H 0.7616 0.7243 0.5386
H28_2 H 0.6857 0.7204 0.4980
C25_2 C 0.7649(4) 0.7489(4) 0.4150(4)
H29_2 H 0.8094 0.7855 0.4156
H30_2 H 0.7335 0.7793 0.3751
C26_2 C 0.7807(3) 0.6446(4) 0.3874(4)
H31_2 H 0.8118 0.6468 0.3399
H32_2 H 0.8063 0.6113 0.4309
C27_2 C 0.7150(3) 0.5859(4) 0.3660(4)
C28_3 C 0.6814(3) 0.4299(3) 0.2993(3)
C29_3 C 0.6105(3) 0.4284(4) 0.3212(4)
H33_3 H 0.5914 0.4781 0.3533
C30_3 C 0.5678(3) 0.3524(4) 0.2952(4)
H34_3 H 0.5200 0.3521 0.3107
C31_3 C 0.6626(2) 0.2801(3) 0.2283(4)
H35_3 H 0.6810 0.2292 0.1971
C32_3 C 0.7075(3) 0.3527(4) 0.2519(4)
H36_3 H 0.7554 0.3512 0.2365
S2_3 S 0.64125(6) 0.00532(8) 0.19371(9)
O6_4 O 0.46170(19) 0.0759(2) 0.1579(3)
O8_4 O 0.3659(2) 0.0466(3) 0.2515(4)
O10_3 O 0.59749(19) 0.0753(2) 0.2407(2)
O11_3 O 0.6775(2) 0.0551(3) 0.1257(3)
O14_4 O 0.4713(3) 0.1663(4) 0.3376(3)
H39_4 H 0.420127 0.184741 0.332644
H40_4 H 0.495735 0.212032 0.375607
O1_2 O 0.0999(2) 0.9015(3) 0.8961(4)
C6_2 C 0.1594(3) 0.9258(4) 0.8731(4)
C7_2 C 0.2261(3) 0.8678(4) 0.8935(4)
H9_2 H 0.2566 0.9075 0.9280
H10_2 H 0.2518 0.8551 0.8430
C8_2 C 0.2129(3) 0.7713(4) 0.9365(4)
H11_2 H 0.1782 0.7808 0.9799
H12_2 H 0.1929 0.7252 0.8976
C9_2 C 0.2803(3) 0.7291(4) 0.9725(4)
H14_2 H 0.3149 0.7185 0.9291
H15_2 H 0.2387 0.5912 0.9806
Cu1_2 Cu 0.96721(3) 0.33282(4) 0.71533(4)
Cu2_2 Cu 0.97451(3) 0.67401(4) 0.70872(4)
S2_4 S 0.85875(6) 0.50532(8) 0.69371(9)
O9_2 O 0.90500(18) 0.4274(2) 0.6586(2)
O10_4 O 0.90251(19) 0.5753(2) 0.7407(2)
O11_4 O 0.8225(2) 0.5551(3) 0.6257(3)
O12_2 O 0.8067(2) 0.4613(3) 0.7500(3)
O13_2 O 0.9099(3) 0.3469(3) 0.8379(3)
N5_2 N 0.9041(2) 0.2250(3) 0.6725(3)
N6_2 N 0.7669(3) 0.0044(3) 0.5892(3)
H3_2 H 0.7223 0.0170 0.5964
H5_2 H 0.9682 0.1703 0.8320
C17_2 C 0.8334(3) 0.2254(4) 0.6867(4)
H21_2 H 0.8142 0.2776 0.7157
C18_2 C 0.7878(3) 0.1532(4) 0.6610(4)
H22_2 H 0.7393 0.1573 0.6731
C19_2 C 0.8139(3) 0.0739(3) 0.6167(3)
C20_2 C 0.8891(3) 0.0731(4) 0.6008(4)
H23_2 H 0.9101 0.0224 0.5715
C21_2 C 0.9294(3) 0.1492(4) 0.6298(4)
H24_2 H 0.9782 0.1479 0.6190
N10_2 N 0.9078(2) 0.7784(3) 0.7483(3)
H37_2 H 0.892599 0.414863 0.844857
H38_2 H 0.868591 0.301423 0.839312
H4_4 H 0.7262 0.9919 0.8107
C28_4 C 0.8186(3) 0.9299(3) 0.7993(3)
C29_4 C 0.8895(3) 0.9284(4) 0.8212(4)
H33_4 H 0.9086 0.9781 0.8533
C30_4 C 0.9322(3) 0.8524(4) 0.7952(4)
H34_4 H 0.9800 0.8521 0.8107
C31_4 C 0.8374(2) 0.7801(3) 0.7283(4)
H35_4 H 0.8190 0.7292 0.6971
C32_4 C 0.7925(3) 0.8527(4) 0.7519(4)
H36_4 H 0.7446 0.8512 0.7365
H19_4 H 0.9696 0.8490 0.5974
Cu1_3 Cu 0.53279(3) 0.83282(4) 0.21533(4)
S1_3 S 0.41616(6) 0.99983(9) 0.19596(11)
O1_3 O 0.4001(2) 0.4015(3) 0.3961(4)
O2_3 O 0.1058(2) 0.1097(3) 0.5294(3)
O3_3 O 0.6572(2) 0.3874(3) 0.0405(3)
O5_3 O 0.46085(19) 0.9320(2) 0.2441(3)
O7_3 O 0.3786(2) 0.9481(3) 0.1311(4)
O9_3 O 0.59500(18) 0.9274(2) 0.1586(2)
O12_3 O 0.6933(2) 0.9613(3) 0.2500(3)
O13_3 O 0.5901(3) 0.8469(3) 0.3379(3)
N1_3 N 0.4657(2) 0.7313(3) 0.2568(3)
N2_3 N 0.3270(3) 0.5076(3) 0.3280(3)
H1_3 H 0.2836 0.5157 0.3118
N5_3 N 0.5959(2) 0.7250(3) 0.1725(3)
N6_3 N 0.7331(3) 0.5044(3) 0.0892(3)
H3_3 H 0.7777 0.5170 0.0964
C1_3 C 0.4857(3) 0.6651(4) 0.3110(5)
H5_3 H 0.5318 0.6703 0.3320
C2_3 C 0.4447(3) 0.5900(4) 0.3387(4)
H6_3 H 0.4617 0.5472 0.3784
C3_3 C 0.3757(3) 0.5789(3) 0.3054(3)
C4_3 C 0.3541(3) 0.6472(4) 0.2470(3)
H7_3 H 0.3091 0.6428 0.2230
C5_3 C 0.4003(2) 0.7215(3) 0.2250(4)
H8_3 H 0.3851 0.7667 0.1863
C6_3 C 0.3406(3) 0.4258(4) 0.3731(4)
C7_3 C 0.2739(3) 0.3678(4) 0.3935(4)
H9_3 H 0.2434 0.4075 0.4280
H10_3 H 0.2482 0.3551 0.3430
C8_3 C 0.2871(3) 0.2713(4) 0.4365(4)
H11_3 H 0.3218 0.2808 0.4799
H12_3 H 0.3071 0.2252 0.3976
C9_3 C 0.2197(3) 0.2291(4) 0.4725(4)
H13_3 H 0.1993 0.2754 0.5110
H14_3 H 0.1851 0.2185 0.4291
C10_3 C 0.2338(3) 0.1334(4) 0.5164(4)
H15_3 H 0.2613 0.0912 0.4806
H16_3 H 0.2625 0.1460 0.5648
C11_3 C 0.1654(3) 0.0805(4) 0.5419(4)
C17_3 C 0.6666(3) 0.7254(4) 0.1867(4)
H21_3 H 0.6858 0.7776 0.2157
C18_3 C 0.7122(3) 0.6532(4) 0.1610(4)
H22_3 H 0.7607 0.6573 0.1731
C19_3 C 0.6861(3) 0.5739(3) 0.1167(3)
C20_3 C 0.6109(3) 0.5731(4) 0.1008(4)
H23_3 H 0.5899 0.5224 0.0715
C21_3 C 0.5706(3) 0.6492(4) 0.1298(4)
H24_3 H 0.5218 0.6479 0.1190
C22_3 C 0.7176(3) 0.4167(4) 0.0512(4)
C23_3 C 0.7835(3) 0.3605(4) 0.0264(4)
H26_3 H 0.8164 0.3592 0.0724
H27_3 H 0.7384 0.2243 0.0386
H37_3 H 0.607401 0.914863 0.344857
H38_3 H 0.631409 0.801423 0.339312
O4_3 O 0.8456(2) 0.1095(3) 0.8836(4)
N7_3 N 0.7702(3) 0.0015(3) 0.8236(3)
H25_3 H 0.8069 0.3952 0.9820
C24_3 C 0.7694(4) 0.2557(4) 0.9988(4)
H28_3 H 0.8143 0.2204 0.9980
C25_3 C 0.7351(4) 0.2489(4) 0.9150(4)
H29_3 H 0.6906 0.2855 0.9156
H30_3 H 0.7665 0.2793 0.8751
C26_3 C 0.7193(3) 0.1446(4) 0.8874(4)
H31_3 H 0.6882 0.1468 0.8399
H32_3 H 0.6937 0.1113 0.9309
C27_3 C 0.7850(3) 0.0859(4) 0.8660(4)
O2_4 O 0.8942(2) 0.8903(3) 0.0294(3)
H13_4 H 0.8007 0.7246 0.0110
C10_4 C 0.7662(3) 0.8666(4) 0.0164(4)
H16_4 H 0.7375 0.8540 0.0648
C11_4 C 0.8346(3) 0.9195(4) 0.0419(4)
Cu1_4 Cu 0.46721(3) 0.16718(4) 0.71533(4)
S1_4 S 0.58384(6) 0.00017(9) 0.69596(11)
O1_4 O 0.5999(2) 0.5985(3) 0.8961(4)
O3_4 O 0.3428(2) 0.6126(3) 0.5405(3)
O4_4 O 0.1544(2) 0.8905(3) 0.3836(4)
O5_4 O 0.53915(19) 0.0680(2) 0.7441(3)
O7_4 O 0.6214(2) 0.0519(3) 0.6311(4)
O9_4 O 0.40500(18) 0.0726(2) 0.6586(2)
O12_4 O 0.3067(2) 0.0387(3) 0.7500(3)
O13_4 O 0.4099(3) 0.1531(3) 0.8379(3)
N1_4 N 0.5343(2) 0.2687(3) 0.7568(3)
N2_4 N 0.6730(3) 0.4924(3) 0.8280(3)
H1_4 H 0.7164 0.4843 0.8118
N5_4 N 0.4041(2) 0.2750(3) 0.6725(3)
N6_4 N 0.2669(3) 0.4956(3) 0.5892(3)
H3_4 H 0.2223 0.4830 0.5964
N7_4 N 0.2298(3) 0.9985(3) 0.3236(3)
C1_4 C 0.5143(3) 0.3349(4) 0.8110(5)
H5_4 H 0.4682 0.3297 0.8320
C2_4 C 0.5553(3) 0.4100(4) 0.8387(4)
H6_4 H 0.5383 0.4528 0.8784
C3_4 C 0.6243(3) 0.4211(3) 0.8054(3)
C4_4 C 0.6459(3) 0.3528(4) 0.7470(3)
H7_4 H 0.6909 0.3572 0.7230
C5_4 C 0.5997(2) 0.2785(3) 0.7250(4)
H8_4 H 0.6149 0.2333 0.6863
C6_4 C 0.6594(3) 0.5742(4) 0.8731(4)
C7_4 C 0.7261(3) 0.6322(4) 0.8935(4)
H9_4 H 0.7566 0.5925 0.9280
H10_4 H 0.7518 0.6449 0.8430
C8_4 C 0.7129(3) 0.7287(4) 0.9365(4)
H11_4 H 0.6782 0.7192 0.9799
H12_4 H 0.6929 0.7748 0.8976
C9_4 C 0.7803(3) 0.7709(4) 0.9725(4)
H14_4 H 0.8149 0.7815 0.9291
H15_4 H 0.7387 0.9088 0.9806
C17_4 C 0.3334(3) 0.2746(4) 0.6867(4)
H21_4 H 0.3142 0.2224 0.7157
C18_4 C 0.2878(3) 0.3468(4) 0.6610(4)
H22_4 H 0.2393 0.3427 0.6731
C19_4 C 0.3139(3) 0.4261(3) 0.6167(3)
C20_4 C 0.3891(3) 0.4269(4) 0.6008(4)
H23_4 H 0.4101 0.4776 0.5715
C21_4 C 0.4294(3) 0.3508(4) 0.6298(4)
H24_4 H 0.4782 0.3521 0.6190
C22_4 C 0.2824(3) 0.5833(4) 0.5512(4)
C23_4 C 0.2165(3) 0.6395(4) 0.5264(4)
H25_4 H 0.1931 0.6048 0.4820
H26_4 H 0.1836 0.6408 0.5724
C24_4 C 0.2306(4) 0.7443(4) 0.4988(4)
H27_4 H 0.2616 0.7757 0.5386
H28_4 H 0.1857 0.7796 0.4980
C25_4 C 0.2649(4) 0.7511(4) 0.4150(4)
H29_4 H 0.3094 0.7145 0.4156
H30_4 H 0.2335 0.7207 0.3751
C26_4 C 0.2807(3) 0.8554(4) 0.3874(4)
H31_4 H 0.3118 0.8532 0.3399
H32_4 H 0.3063 0.8887 0.4309
C27_4 C 0.2150(3) 0.9141(4) 0.3660(4)
H37_4 H 0.392599 0.0851372 0.844857
H38_4 H 0.368591 0.198577 0.839312
loop_
_geom_bond_atom_site_label_1
_geom_bond_atom_site_label_2
_geom_bond_site_symmetry_1
_geom_bond_site_symmetry_2
O3 C22 1_555 1_555
C23 C22 1_555 1_555
H26 C23 1_555 1_555
O4 C27 1_555 1_555
N7 H4 1_555 1_555
N8 C30 1_555 1_555
H28 C24 1_555 1_555
C25 C24 1_555 1_555
H29 C25 1_555 1_555
H30 C25 1_555 1_555
C26 C25 1_555 1_555
H31 C26 1_555 1_555
H32 C26 1_555 1_555
C27 N7 1_555 1_555
C28 N7 1_555 1_555
C29 C28 1_555 1_555
H33 C29 1_555 1_555
C30 C29 1_555 1_555
H34 C30 1_555 1_555
C31 N8 1_555 1_555
H35 C31 1_555 1_555
C32 C28 1_555 1_555
H36 C32 1_555 1_555
Cu4 N8 1_555 1_555
C26 C27 1_555 1_555
C31 C32 1_555 1_555
O1 C6 1_555 1_555
O2 C11 1_555 1_555
N3 H2 1_555 1_555
N4 C14 1_555 1_555
C7 C6 1_555 1_555
H9 C7 1_555 1_555
H10 C7 1_555 1_555
C8 C7 1_555 1_555
H11 C8 1_555 1_555
H12 C8 1_555 1_555
C9 C8 1_555 1_555
H13 C9 1_555 1_555
H14 C9 1_555 1_555
C10 C9 1_555 1_555
H15 C10 1_555 1_555
H16 C10 1_555 1_555
C11 N3 1_555 1_555
C12 N3 1_555 1_555
C13 C12 1_555 1_555
H17 C13 1_555 1_555
C14 C13 1_555 1_555
H18 C14 1_555 1_555
C15 N4 1_555 1_555
H19 C15 1_555 1_555
C16 C12 1_555 1_555
H20 C16 1_555 1_555
Cu4 N4 1_555 1_555
C10 C11 1_555 1_555
C15 C16 1_555 1_555
Cu4 O6 1_555 1_555
O10 Cu4 1_555 1_555
O11 S2 1_555 1_555
O14 Cu4 1_555 1_555
S2 O10 1_555 1_555
O14 H39 1_555 1_555
O14 H40 1_555 1_555
S2_2 O9 1_555 1_555
O9 Cu1 1_555 1_555
O10_2 Cu2 1_555 1_555
O11_2 S2_2 1_555 1_555
O12 S2_2 1_555 1_555
O13 Cu1 1_555 1_555
N5 Cu1 1_555 1_555
N6 H3 1_555 1_555
C17 N5 1_555 1_555
H21 C17 1_555 1_555
C18 C17 1_555 1_555
H22 C18 1_555 1_555
C19 N6 1_555 1_555
C20 C19 1_555 1_555
H23 C20 1_555 1_555
C21 N5 1_555 1_555
H24 C21 1_555 1_555
N10 Cu2 1_555 1_555
S2_2 O10_2 1_555 1_555
C18 C19 1_555 1_555
C20 C21 1_555 1_555
O13 H37 1_555 1_555
O13 H38 1_555 1_555
N10 C30_2 1_555 1_555
C29_2 C28_2 1_555 1_555
H33_2 C29_2 1_555 1_555
C30_2 C29_2 1_555 1_555
H34_2 C30_2 1_555 1_555
C31_2 N10 1_555 1_555
H35_2 C31_2 1_555 1_555
C32_2 C28_2 1_555 1_555
H36_2 C32_2 1_555 1_555
C31_2 C32_2 1_555 1_555
S1 O5 1_555 1_555
O6_2 S1 1_555 1_555
O7 S1 1_555 1_555
O8_2 S1 1_555 1_555
N2 H1 1_555 1_555
C1 N1 1_555 1_555
C2 C1 1_555 1_555
H6 C2 1_555 1_555
C3 N2 1_555 1_555
C4 C3 1_555 1_555
H7 C4 1_555 1_555
C5 N1 1_555 1_555
H8 C5 1_555 1_555
C2 C3 1_555 1_555
C4 C5 1_555 1_555
O14_2 H39_2 1_555 1_555
O14_2 H40_2 1_555 1_555
N3_2 H2_2 1_555 1_555
N9 C14_2 1_555 1_555
C12_2 N3_2 1_555 1_555
C13_2 C12_2 1_555 1_555
H17_2 C13_2 1_555 1_555
C14_2 C13_2 1_555 1_555
H18_2 C14_2 1_555 1_555
C15_2 N9 1_555 1_555
C16_2 C12_2 1_555 1_555
H20_2 C16_2 1_555 1_555
C15_2 C16_2 1_555 1_555
S1_2 O5_2 1_555 1_555
O6_3 S1_2 1_555 1_555
O7_2 S1_2 1_555 1_555
O8_3 S1_2 1_555 1_555
N2_2 H1_2 1_555 1_555
C1_2 N1_2 1_555 1_555
C2_2 C1_2 1_555 1_555
H6_2 C2_2 1_555 1_555
C3_2 N2_2 1_555 1_555
C4_2 C3_2 1_555 1_555
H7_2 C4_2 1_555 1_555
C5_2 N1_2 1_555 1_555
H8_2 C5_2 1_555 1_555
C2_2 C3_2 1_555 1_555
C4_2 C5_2 1_555 1_555
O14_3 H39_3 1_555 1_555
O14_3 H40_3 1_555 1_555
N3_3 H2_3 1_555 1_555
N9_2 C14_3 1_555 1_555
C12_3 N3_3 1_555 1_555
C13_3 C12_3 1_555 1_555
H17_3 C13_3 1_555 1_555
C14_3 C13_3 1_555 1_555
H18_3 C14_3 1_555 1_555
C15_3 N9_2 1_555 1_555
C16_3 C12_3 1_555 1_555
H20_3 C16_3 1_555 1_555
C15_3 C16_3 1_555 1_555
O2_2 C11_2 1_555 1_555
N3_4 H2_4 1_555 1_555
N4_2 C14_4 1_555 1_555
H16_2 C10_2 1_555 1_555
C11_2 N3_4 1_555 1_555
C12_4 N3_4 1_555 1_555
C13_4 C12_4 1_555 1_555
H17_4 C13_4 1_555 1_555
C14_4 C13_4 1_555 1_555
H18_4 C14_4 1_555 1_555
C15_4 N4_2 1_555 1_555
H19_3 C15_4 1_555 1_555
C16_4 C12_4 1_555 1_555
H20_4 C16_4 1_555 1_555
Cu3 N4_2 1_555 1_555
C10_2 C11_2 1_555 1_555
C15_4 C16_4 1_555 1_555
O3_2 C22_2 1_555 1_555
O4_2 C27_2 1_555 1_555
N7_2 H4_3 1_555 1_555
N8_2 C30_3 1_555 1_555
C23_2 C22_2 1_555 1_555
H25_2 C23_2 1_555 1_555
H26_2 C23_2 1_555 1_555
C24_2 C23_2 1_555 1_555
H27_2 C24_2 1_555 1_555
H28_2 C24_2 1_555 1_555
C25_2 C24_2 1_555 1_555
H29_2 C25_2 1_555 1_555
H30_2 C25_2 1_555 1_555
C26_2 C25_2 1_555 1_555
H31_2 C26_2 1_555 1_555
H32_2 C26_2 1_555 1_555
C27_2 N7_2 1_555 1_555
C28_3 N7_2 1_555 1_555
C29_3 C28_3 1_555 1_555
H33_3 C29_3 1_555 1_555
C30_3 C29_3 1_555 1_555
H34_3 C30_3 1_555 1_555
C31_3 N8_2 1_555 1_555
H35_3 C31_3 1_555 1_555
C32_3 C28_3 1_555 1_555
H36_3 C32_3 1_555 1_555
Cu3 N8_2 1_555 1_555
C26_2 C27_2 1_555 1_555
C31_3 C32_3 1_555 1_555
Cu3 O6_4 1_555 1_555
O10_3 Cu3 1_555 1_555
O11_3 S2_3 1_555 1_555
O14_4 Cu3 1_555 1_555
S2_3 O10_3 1_555 1_555
O14_4 H39_4 1_555 1_555
O14_4 H40_4 1_555 1_555
O1_2 C6_2 1_555 1_555
C7_2 C6_2 1_555 1_555
H9_2 C7_2 1_555 1_555
H10_2 C7_2 1_555 1_555
C8_2 C7_2 1_555 1_555
H11_2 C8_2 1_555 1_555
H12_2 C8_2 1_555 1_555
C9_2 C8_2 1_555 1_555
H14_2 C9_2 1_555 1_555
S2_4 O9_2 1_555 1_555
O9_2 Cu1_2 1_555 1_555
O10_4 Cu2_2 1_555 1_555
O11_4 S2_4 1_555 1_555
O12_2 S2_4 1_555 1_555
O13_2 Cu1_2 1_555 1_555
N5_2 Cu1_2 1_555 1_555
N6_2 H3_2 1_555 1_555
C17_2 N5_2 1_555 1_555
H21_2 C17_2 1_555 1_555
C18_2 C17_2 1_555 1_555
H22_2 C18_2 1_555 1_555
C19_2 N6_2 1_555 1_555
C20_2 C19_2 1_555 1_555
H23_2 C20_2 1_555 1_555
C21_2 N5_2 1_555 1_555
H24_2 C21_2 1_555 1_555
N10_2 Cu2_2 1_555 1_555
S2_4 O10_4 1_555 1_555
C18_2 C19_2 1_555 1_555
C20_2 C21_2 1_555 1_555
O13_2 H37_2 1_555 1_555
O13_2 H38_2 1_555 1_555
N10_2 C30_4 1_555 1_555
C29_4 C28_4 1_555 1_555
H33_4 C29_4 1_555 1_555
C30_4 C29_4 1_555 1_555
H34_4 C30_4 1_555 1_555
C31_4 N10_2 1_555 1_555
H35_4 C31_4 1_555 1_555
C32_4 C28_4 1_555 1_555
H36_4 C32_4 1_555 1_555
C31_4 C32_4 1_555 1_555
Cu1_3 O5_3 1_555 1_555
S1_3 O5_3 1_555 1_555
O1_3 C6_3 1_555 1_555
O2_3 C11_3 1_555 1_555
O3_3 C22_3 1_555 1_555
O7_3 S1_3 1_555 1_555
O9_3 Cu1_3 1_555 1_555
O13_3 Cu1_3 1_555 1_555
N1_3 Cu1_3 1_555 1_555
N2_3 H1_3 1_555 1_555
N5_3 Cu1_3 1_555 1_555
N6_3 H3_3 1_555 1_555
C1_3 N1_3 1_555 1_555
H5_3 C1_3 1_555 1_555
C2_3 C1_3 1_555 1_555
H6_3 C2_3 1_555 1_555
C3_3 N2_3 1_555 1_555
C4_3 C3_3 1_555 1_555
H7_3 C4_3 1_555 1_555
C5_3 N1_3 1_555 1_555
H8_3 C5_3 1_555 1_555
C6_3 N2_3 1_555 1_555
C7_3 C6_3 1_555 1_555
H9_3 C7_3 1_555 1_555
H10_3 C7_3 1_555 1_555
C8_3 C7_3 1_555 1_555
H11_3 C8_3 1_555 1_555
H12_3 C8_3 1_555 1_555
C9_3 C8_3 1_555 1_555
H13_3 C9_3 1_555 1_555
H14_3 C9_3 1_555 1_555
C10_3 C9_3 1_555 1_555
H15_3 C10_3 1_555 1_555
H16_3 C10_3 1_555 1_555
C17_3 N5_3 1_555 1_555
H21_3 C17_3 1_555 1_555
C18_3 C17_3 1_555 1_555
H22_3 C18_3 1_555 1_555
C19_3 N6_3 1_555 1_555
C20_3 C19_3 1_555 1_555
H23_3 C20_3 1_555 1_555
C21_3 N5_3 1_555 1_555
H24_3 C21_3 1_555 1_555
C22_3 N6_3 1_555 1_555
C23_3 C22_3 1_555 1_555
H26_3 C23_3 1_555 1_555
C2_3 C3_3 1_555 1_555
C4_3 C5_3 1_555 1_555
C10_3 C11_3 1_555 1_555
C18_3 C19_3 1_555 1_555
C20_3 C21_3 1_555 1_555
O13_3 H37_3 1_555 1_555
O13_3 H38_3 1_555 1_555
O4_3 C27_3 1_555 1_555
H28_3 C24_3 1_555 1_555
C25_3 C24_3 1_555 1_555
H29_3 C25_3 1_555 1_555
H30_3 C25_3 1_555 1_555
C26_3 C25_3 1_555 1_555
H31_3 C26_3 1_555 1_555
H32_3 C26_3 1_555 1_555
C27_3 N7_3 1_555 1_555
C26_3 C27_3 1_555 1_555
O2_4 C11_4 1_555 1_555
H16_4 C10_4 1_555 1_555
C10_4 C11_4 1_555 1_555
Cu1_4 O5_4 1_555 1_555
S1_4 O5_4 1_555 1_555
O1_4 C6_4 1_555 1_555
O3_4 C22_4 1_555 1_555
O4_4 C27_4 1_555 1_555
O7_4 S1_4 1_555 1_555
O9_4 Cu1_4 1_555 1_555
O13_4 Cu1_4 1_555 1_555
N1_4 Cu1_4 1_555 1_555
N2_4 H1_4 1_555 1_555
N5_4 Cu1_4 1_555 1_555
N6_4 H3_4 1_555 1_555
C1_4 N1_4 1_555 1_555
H5_4 C1_4 1_555 1_555
C2_4 C1_4 1_555 1_555
H6_4 C2_4 1_555 1_555
C3_4 N2_4 1_555 1_555
C4_4 C3_4 1_555 1_555
H7_4 C4_4 1_555 1_555
C5_4 N1_4 1_555 1_555
H8_4 C5_4 1_555 1_555
C6_4 N2_4 1_555 1_555
C7_4 C6_4 1_555 1_555
H9_4 C7_4 1_555 1_555
H10_4 C7_4 1_555 1_555
C8_4 C7_4 1_555 1_555
H11_4 C8_4 1_555 1_555
H12_4 C8_4 1_555 1_555
C9_4 C8_4 1_555 1_555
H14_4 C9_4 1_555 1_555
C17_4 N5_4 1_555 1_555
H21_4 C17_4 1_555 1_555
C18_4 C17_4 1_555 1_555
H22_4 C18_4 1_555 1_555
C19_4 N6_4 1_555 1_555
C20_4 C19_4 1_555 1_555
H23_4 C20_4 1_555 1_555
C21_4 N5_4 1_555 1_555
H24_4 C21_4 1_555 1_555
C22_4 N6_4 1_555 1_555
C23_4 C22_4 1_555 1_555
H25_4 C23_4 1_555 1_555
H26_4 C23_4 1_555 1_555
C24_4 C23_4 1_555 1_555
H27_4 C24_4 1_555 1_555
H28_4 C24_4 1_555 1_555
C25_4 C24_4 1_555 1_555
H29_4 C25_4 1_555 1_555
H30_4 C25_4 1_555 1_555
C26_4 C25_4 1_555 1_555
H31_4 C26_4 1_555 1_555
H32_4 C26_4 1_555 1_555
C27_4 N7_4 1_555 1_555
C2_4 C3_4 1_555 1_555
C4_4 C5_4 1_555 1_555
C18_4 C19_4 1_555 1_555
C20_4 C21_4 1_555 1_555
C26_4 C27_4 1_555 1_555
O13_4 H37_4 1_555 1_555
O13_4 H38_4 1_555 1_555

#END
