
###############################################################################
#
# This file contains modified crystal structure data generated from the
# MOF subset of the Cambridge Structural Database (CSD) v543 
# hosted by the Cambridge Crystallographic Data Centre (CCDC).
#
# This work is licensed under the Creative Commons
# Attribution-NonCommercial-ShareAlike 4.0 International License.
# To view a copy of this license, visit
# http://creativecommons.org/licenses/by-nc-sa/4.0/
# or send a letter to
# Creative Commons, PO Box 1866, Mountain View, CA 94042, USA.
#
# CIF created using the CSD Python API on 29 September 2022
# The structure has been converted into the P1 space group
# The structure has a 3D framework
# The original CSD entry KOBMAS is in the orthorhombic crystal system
# The framework has been calculated to contain at least 10.0% void space
# The void calculation uses a probe of radius 1.32A, grid spacing 0.4
# The framework is charged, counterions have been retained in the structure
#
###############################################################################

data_KOBMAS
_chemical_formula_moiety         '(C512 H448 In24 N64 O192 8+)n'
_symmetry_cell_setting           triclinic
_symmetry_space_group_name_H-M   'P 1'
_symmetry_Int_Tables_number      1
_space_group_name_Hall           'P 1'
loop_
_symmetry_equiv_pos_site_id
_symmetry_equiv_pos_as_xyz
1 x,y,z
_cell_length_a                   22.9514(14)
_cell_length_b                   32.1466(13)
_cell_length_c                   35.5775(18)
_cell_angle_alpha                90
_cell_angle_beta                 90
_cell_angle_gamma                90
_cell_volume                     26249.4
loop_
_atom_site_label
_atom_site_type_symbol
_atom_site_fract_x
_atom_site_fract_y
_atom_site_fract_z
In3 In 0.3750 0.3750 0.130648(19)
O16 O 0.4238(3) 0.3467(2) 0.0854(2)
O18 O 0.4709(5) 0.3388(3) 0.1365(2)
C31 C 0.5017(4) 0.3010(3) 0.0432(3)
H13 H 0.4668 0.3088 0.0320
C36 C 0.4646(6) 0.3322(3) 0.1029(3)
C38 C 0.5116(5) 0.3101(4) 0.0805(3)
C39 C 0.5429(5) 0.2805(4) 0.0223(3)
C40 C 0.5624(7) 0.2965(5) 0.0963(4)
H16 H 0.5683 0.3011 0.1218
N3 N 0.6042(6) 0.2771(6) 0.0767(3)
C41 C 0.5942(7) 0.2707(6) 0.0404(4)
H17 H 0.6239 0.2588 0.0262
O22 O 0.3262(3) 0.4033(2) 0.0854(2)
O24 O 0.2791(5) 0.4112(3) 0.1365(2)
C45 C 0.2483(4) 0.4490(3) 0.0432(3)
H19 H 0.2832 0.4412 0.0320
C50 C 0.2854(6) 0.4178(3) 0.1029(3)
C52 C 0.2384(5) 0.4399(4) 0.0805(3)
C53 C 0.2071(5) 0.4695(4) 0.0223(3)
C54 C 0.1876(7) 0.4535(5) 0.0963(4)
H22 H 0.1817 0.4489 0.1218
N4 N 0.1458(6) 0.4729(6) 0.0767(3)
C55 C 0.1558(7) 0.4793(6) 0.0404(4)
H23 H 0.1261 0.4912 0.0262
O25 O 0.4339(4) 0.4349(2) 0.12419(17)
O28 O 0.3161(4) 0.3151(2) 0.12419(17)
O29 O 0.3978(4) 0.4166(2) 0.17814(18)
O32 O 0.3522(4) 0.3334(2) 0.17814(18)
In1 In 0.3750 0.3750 0.8750
In2 In 0.3750 0.3750 0.619352(19)
O1 O 0.3244(3) 0.34792(16) 0.83052(18)
O2 O 0.1839(4) 0.1849(2) 0.87581(17)
O3 O 0.1478(4) 0.1666(2) 0.82186(18)
O4 O 0.3262(3) 0.3467(2) 0.6646(2)
O5 O 0.3080(4) 0.3144(2) 0.8825(2)
O6 O 0.2791(5) 0.3388(3) 0.6135(2)
C1 C 0.1764(4) 0.1912(3) 0.8415(3)
C2 C 0.2600(4) 0.2902(3) 0.8276(3)
C3 C 0.2483(4) 0.3010(3) 0.7068(3)
H1 H 0.2832 0.3088 0.7180
C4 C 0.2366(4) 0.2554(3) 0.8443(3)
H2 H 0.2441 0.2498 0.8695
C5 C 0.2024(4) 0.2290(3) 0.8237(2)
C6 C 0.2997(4) 0.3194(3) 0.8488(3)
C7 C 0.2159(4) 0.2716(3) 0.7682(3)
C8 C 0.2854(6) 0.3322(3) 0.6471(3)
C9 C 0.1927(4) 0.2364(3) 0.7857(3)
H3 H 0.1706 0.2177 0.7717
C10 C 0.2384(5) 0.3101(4) 0.6695(3)
C11 C 0.2071(5) 0.2805(4) 0.7277(3)
C12 C 0.1876(7) 0.2965(5) 0.6537(4)
H4 H 0.1817 0.3011 0.6282
N1 N 0.1458(6) 0.2771(6) 0.6733(3)
C13 C 0.1558(7) 0.2707(6) 0.7096(4)
H5 H 0.1261 0.2588 0.7238
C14 C 0.2499(4) 0.2980(3) 0.7899(3)
H6 H 0.2663 0.3215 0.7788
O7 O 0.4256(3) 0.40208(16) 0.83052(18)
O8 O 0.5661(4) 0.5651(2) 0.87581(17)
O9 O 0.6022(4) 0.5834(2) 0.82186(18)
O10 O 0.4238(3) 0.4033(2) 0.6646(2)
O11 O 0.4420(4) 0.4356(2) 0.8825(2)
O12 O 0.4709(5) 0.4112(3) 0.6135(2)
C15 C 0.5736(4) 0.5588(3) 0.8415(3)
C16 C 0.4900(4) 0.4598(3) 0.8276(3)
C17 C 0.5017(4) 0.4490(3) 0.7068(3)
H7 H 0.4668 0.4412 0.7180
C18 C 0.5134(4) 0.4946(3) 0.8443(3)
H8 H 0.5059 0.5002 0.8695
C19 C 0.5476(4) 0.5210(3) 0.8237(2)
C20 C 0.4503(4) 0.4306(3) 0.8488(3)
C21 C 0.5341(4) 0.4784(3) 0.7682(3)
C22 C 0.4646(6) 0.4178(3) 0.6471(3)
C23 C 0.5573(4) 0.5136(3) 0.7857(3)
H9 H 0.5794 0.5323 0.7717
C24 C 0.5116(5) 0.4399(4) 0.6695(3)
C25 C 0.5429(5) 0.4695(4) 0.7277(3)
C26 C 0.5624(7) 0.4535(5) 0.6537(4)
H10 H 0.5683 0.4489 0.6282
N2 N 0.6042(6) 0.4729(6) 0.6733(3)
C27 C 0.5942(7) 0.4793(6) 0.7096(4)
H11 H 0.6239 0.4912 0.7238
C28 C 0.5001(4) 0.4520(3) 0.7899(3)
H12 H 0.4837 0.4285 0.7788
O13 O 0.4256(3) 0.34792(16) 0.91948(18)
O14 O 0.5661(4) 0.1849(2) 0.87419(17)
O15 O 0.6022(4) 0.1666(2) 0.92814(18)
O17 O 0.4420(4) 0.3144(2) 0.8675(2)
C29 C 0.5736(4) 0.1912(3) 0.9085(3)
C30 C 0.4900(4) 0.2902(3) 0.9224(3)
C32 C 0.5134(4) 0.2554(3) 0.9057(3)
H14 H 0.5059 0.2498 0.8805
C33 C 0.5476(4) 0.2290(3) 0.9263(2)
C34 C 0.4503(4) 0.3194(3) 0.9012(3)
C35 C 0.5341(4) 0.2716(3) 0.9818(3)
C37 C 0.5573(4) 0.2364(3) 0.9643(3)
H15 H 0.5794 0.2177 0.9783
C42 C 0.5001(4) 0.2980(3) 0.9601(3)
H18 H 0.4837 0.3215 0.9712
O19 O 0.3244(3) 0.40208(16) 0.91948(18)
O20 O 0.1839(4) 0.5651(2) 0.87419(17)
O21 O 0.1478(4) 0.5834(2) 0.92814(18)
O23 O 0.3080(4) 0.4356(2) 0.8675(2)
C43 C 0.1764(4) 0.5588(3) 0.9085(3)
C44 C 0.2600(4) 0.4598(3) 0.9224(3)
C46 C 0.2366(4) 0.4946(3) 0.9057(3)
H20 H 0.2441 0.5002 0.8805
C47 C 0.2024(4) 0.5210(3) 0.9263(2)
C48 C 0.2997(4) 0.4306(3) 0.9012(3)
C49 C 0.2159(4) 0.4784(3) 0.9818(3)
C51 C 0.1927(4) 0.5136(3) 0.9643(3)
H21 H 0.1706 0.5323 0.9783
C56 C 0.2499(4) 0.4520(3) 0.9601(3)
H24 H 0.2663 0.4285 0.9712
In4 In 0.6250 0.6250 0.869352(19)
In5 In 0.6250 0.1250 0.880648(19)
In6 In 0.1250 0.6250 0.880648(19)
In7 In 0.1250 0.1250 0.869352(19)
O26 O 0.4339(4) 0.3151(2) 0.62581(17)
O27 O 0.3161(4) 0.4349(2) 0.62581(17)
O30 O 0.3978(4) 0.3334(2) 0.57186(18)
O31 O 0.3522(4) 0.4166(2) 0.57186(18)
O8_2 O 0.5661(4) 0.0651(2) 0.37581(17)
O9_2 O 0.6022(4) 0.0834(2) 0.32186(18)
C15_2 C 0.5736(4) 0.0588(3) 0.3415(3)
H8_2 H 0.5059 0.0002 0.3695
C19_2 C 0.5476(4) 0.0210(3) 0.3237(2)
C23_2 C 0.5573(4) 0.0136(3) 0.2857(3)
H9_2 H 0.5794 0.0323 0.2717
O20_2 O 0.1839(4) 0.0651(2) 0.37419(17)
O21_2 O 0.1478(4) 0.0834(2) 0.42814(18)
C43_2 C 0.1764(4) 0.0588(3) 0.4085(3)
H20_2 H 0.2441 0.0002 0.3805
C47_2 C 0.2024(4) 0.0210(3) 0.4263(2)
C51_2 C 0.1927(4) 0.0136(3) 0.4643(3)
H21_2 H 0.1706 0.0323 0.4783
In4_2 In 0.6250 0.1250 0.369352(19)
In6_2 In 0.1250 0.1250 0.380648(19)
In1_2 In 0.3750 0.8750 0.3750
In2_2 In 0.3750 0.8750 0.119352(19)
O1_2 O 0.3244(3) 0.84792(16) 0.33052(18)
O2_2 O 0.1839(4) 0.6849(2) 0.37581(17)
O3_2 O 0.1478(4) 0.6666(2) 0.32186(18)
O4_2 O 0.3262(3) 0.8467(2) 0.1646(2)
O5_2 O 0.3080(4) 0.8144(2) 0.3825(2)
O6_2 O 0.2791(5) 0.8388(3) 0.1135(2)
C1_2 C 0.1764(4) 0.6912(3) 0.3415(3)
C2_2 C 0.2600(4) 0.7902(3) 0.3276(3)
C3_2 C 0.2483(4) 0.8010(3) 0.2068(3)
H1_2 H 0.2832 0.8088 0.2180
C4_2 C 0.2366(4) 0.7554(3) 0.3443(3)
H2_2 H 0.2441 0.7498 0.3695
C5_2 C 0.2024(4) 0.7290(3) 0.3237(2)
C6_2 C 0.2997(4) 0.8194(3) 0.3488(3)
C7_2 C 0.2159(4) 0.7716(3) 0.2682(3)
C8_2 C 0.2854(6) 0.8322(3) 0.1471(3)
C9_2 C 0.1927(4) 0.7364(3) 0.2857(3)
H3_2 H 0.1706 0.7177 0.2717
C10_2 C 0.2384(5) 0.8101(4) 0.1695(3)
C11_2 C 0.2071(5) 0.7805(4) 0.2277(3)
C12_2 C 0.1876(7) 0.7965(5) 0.1537(4)
H4_2 H 0.1817 0.8011 0.1282
N1_2 N 0.1458(6) 0.7771(6) 0.1733(3)
C13_2 C 0.1558(7) 0.7707(6) 0.2096(4)
H5_2 H 0.1261 0.7588 0.2238
C14_2 C 0.2499(4) 0.7980(3) 0.2899(3)
H6_2 H 0.2663 0.8215 0.2788
O7_2 O 0.4256(3) 0.90208(16) 0.33052(18)
O10_2 O 0.4238(3) 0.9033(2) 0.1646(2)
O11_2 O 0.4420(4) 0.9356(2) 0.3825(2)
O12_2 O 0.4709(5) 0.9112(3) 0.1135(2)
C16_2 C 0.4900(4) 0.9598(3) 0.3276(3)
C17_2 C 0.5017(4) 0.9490(3) 0.2068(3)
H7_2 H 0.4668 0.9412 0.2180
C18_2 C 0.5134(4) 0.9946(3) 0.3443(3)
C20_2 C 0.4503(4) 0.9306(3) 0.3488(3)
C21_2 C 0.5341(4) 0.9784(3) 0.2682(3)
C22_2 C 0.4646(6) 0.9178(3) 0.1471(3)
C24_2 C 0.5116(5) 0.9399(4) 0.1695(3)
C25_2 C 0.5429(5) 0.9695(4) 0.2277(3)
C26_2 C 0.5624(7) 0.9535(5) 0.1537(4)
H10_2 H 0.5683 0.9489 0.1282
N2_2 N 0.6042(6) 0.9729(6) 0.1733(3)
C27_2 C 0.5942(7) 0.9793(6) 0.2096(4)
H11_2 H 0.6239 0.9912 0.2238
C28_2 C 0.5001(4) 0.9520(3) 0.2899(3)
H12_2 H 0.4837 0.9285 0.2788
In3_2 In 0.3750 0.8750 0.630648(19)
O13_2 O 0.4256(3) 0.84792(16) 0.41948(18)
O14_2 O 0.5661(4) 0.6849(2) 0.37419(17)
O15_2 O 0.6022(4) 0.6666(2) 0.42814(18)
O16_2 O 0.4238(3) 0.8467(2) 0.5854(2)
O17_2 O 0.4420(4) 0.8144(2) 0.3675(2)
O18_2 O 0.4709(5) 0.8388(3) 0.6365(2)
C29_2 C 0.5736(4) 0.6912(3) 0.4085(3)
C30_2 C 0.4900(4) 0.7902(3) 0.4224(3)
C31_2 C 0.5017(4) 0.8010(3) 0.5432(3)
H13_2 H 0.4668 0.8088 0.5320
C32_2 C 0.5134(4) 0.7554(3) 0.4057(3)
H14_2 H 0.5059 0.7498 0.3805
C33_2 C 0.5476(4) 0.7290(3) 0.4263(2)
C34_2 C 0.4503(4) 0.8194(3) 0.4012(3)
C35_2 C 0.5341(4) 0.7716(3) 0.4818(3)
C36_2 C 0.4646(6) 0.8322(3) 0.6029(3)
C37_2 C 0.5573(4) 0.7364(3) 0.4643(3)
H15_2 H 0.5794 0.7177 0.4783
C38_2 C 0.5116(5) 0.8101(4) 0.5805(3)
C39_2 C 0.5429(5) 0.7805(4) 0.5223(3)
C40_2 C 0.5624(7) 0.7965(5) 0.5963(4)
H16_2 H 0.5683 0.8011 0.6218
N3_2 N 0.6042(6) 0.7771(6) 0.5767(3)
C41_2 C 0.5942(7) 0.7707(6) 0.5404(4)
H17_2 H 0.6239 0.7588 0.5262
C42_2 C 0.5001(4) 0.7980(3) 0.4601(3)
H18_2 H 0.4837 0.8215 0.4712
O19_2 O 0.3244(3) 0.90208(16) 0.41948(18)
O22_2 O 0.3262(3) 0.9033(2) 0.5854(2)
O23_2 O 0.3080(4) 0.9356(2) 0.3675(2)
O24_2 O 0.2791(5) 0.9112(3) 0.6365(2)
C44_2 C 0.2600(4) 0.9598(3) 0.4224(3)
C45_2 C 0.2483(4) 0.9490(3) 0.5432(3)
H19_2 H 0.2832 0.9412 0.5320
C46_2 C 0.2366(4) 0.9946(3) 0.4057(3)
C48_2 C 0.2997(4) 0.9306(3) 0.4012(3)
C49_2 C 0.2159(4) 0.9784(3) 0.4818(3)
C50_2 C 0.2854(6) 0.9178(3) 0.6029(3)
C52_2 C 0.2384(5) 0.9399(4) 0.5805(3)
C53_2 C 0.2071(5) 0.9695(4) 0.5223(3)
C54_2 C 0.1876(7) 0.9535(5) 0.5963(4)
H22_2 H 0.1817 0.9489 0.6218
N4_2 N 0.1458(6) 0.9729(6) 0.5767(3)
C55_2 C 0.1558(7) 0.9793(6) 0.5404(4)
H23_2 H 0.1261 0.9912 0.5262
C56_2 C 0.2499(4) 0.9520(3) 0.4601(3)
H24_2 H 0.2663 0.9285 0.4712
In5_2 In 0.6250 0.6250 0.380648(19)
In7_2 In 0.1250 0.6250 0.369352(19)
O25_2 O 0.4339(4) 0.9349(2) 0.62419(17)
O26_2 O 0.4339(4) 0.8151(2) 0.12581(17)
O27_2 O 0.3161(4) 0.9349(2) 0.12581(17)
O28_2 O 0.3161(4) 0.8151(2) 0.62419(17)
O29_2 O 0.3978(4) 0.9166(2) 0.67814(18)
O30_2 O 0.3978(4) 0.8334(2) 0.07186(18)
O31_2 O 0.3522(4) 0.9166(2) 0.07186(18)
O32_2 O 0.3522(4) 0.8334(2) 0.67814(18)
O8_3 O 0.0661(4) 0.5651(2) 0.37581(17)
O9_3 O 0.1022(4) 0.5834(2) 0.32186(18)
C15_3 C 0.0736(4) 0.5588(3) 0.3415(3)
C17_3 C 0.0017(4) 0.4490(3) 0.2068(3)
C18_3 C 0.0134(4) 0.4946(3) 0.3443(3)
H8_3 H 0.0059 0.5002 0.3695
C19_3 C 0.0476(4) 0.5210(3) 0.3237(2)
C21_3 C 0.0341(4) 0.4784(3) 0.2682(3)
C23_3 C 0.0573(4) 0.5136(3) 0.2857(3)
H9_3 H 0.0794 0.5323 0.2717
C24_3 C 0.0116(5) 0.4399(4) 0.1695(3)
C25_3 C 0.0429(5) 0.4695(4) 0.2277(3)
C26_3 C 0.0624(7) 0.4535(5) 0.1537(4)
H10_3 H 0.0683 0.4489 0.1282
N2_3 N 0.1042(6) 0.4729(6) 0.1733(3)
C27_3 C 0.0942(7) 0.4793(6) 0.2096(4)
H11_3 H 0.1239 0.4912 0.2238
C28_3 C 0.0001(4) 0.4520(3) 0.2899(3)
O14_3 O 0.0661(4) 0.1849(2) 0.37419(17)
O15_3 O 0.1022(4) 0.1666(2) 0.42814(18)
C29_3 C 0.0736(4) 0.1912(3) 0.4085(3)
C31_3 C 0.0017(4) 0.3010(3) 0.5432(3)
C32_3 C 0.0134(4) 0.2554(3) 0.4057(3)
H14_3 H 0.0059 0.2498 0.3805
C33_3 C 0.0476(4) 0.2290(3) 0.4263(2)
C35_3 C 0.0341(4) 0.2716(3) 0.4818(3)
C37_3 C 0.0573(4) 0.2364(3) 0.4643(3)
H15_3 H 0.0794 0.2177 0.4783
C38_3 C 0.0116(5) 0.3101(4) 0.5805(3)
C39_3 C 0.0429(5) 0.2805(4) 0.5223(3)
C40_3 C 0.0624(7) 0.2965(5) 0.5963(4)
H16_3 H 0.0683 0.3011 0.6218
N3_3 N 0.1042(6) 0.2771(6) 0.5767(3)
C41_3 C 0.0942(7) 0.2707(6) 0.5404(4)
H17_3 H 0.1239 0.2588 0.5262
C42_3 C 0.0001(4) 0.2980(3) 0.4601(3)
In1_3 In 0.8750 0.3750 0.3750
In2_3 In 0.8750 0.3750 0.119352(19)
O1_3 O 0.8244(3) 0.34792(16) 0.33052(18)
O2_3 O 0.6839(4) 0.1849(2) 0.37581(17)
O3_3 O 0.6478(4) 0.1666(2) 0.32186(18)
O4_3 O 0.8262(3) 0.3467(2) 0.1646(2)
O5_3 O 0.8080(4) 0.3144(2) 0.3825(2)
O6_3 O 0.7791(5) 0.3388(3) 0.1135(2)
C1_3 C 0.6764(4) 0.1912(3) 0.3415(3)
C2_3 C 0.7600(4) 0.2902(3) 0.3276(3)
C3_3 C 0.7483(4) 0.3010(3) 0.2068(3)
H1_3 H 0.7832 0.3088 0.2180
C4_3 C 0.7366(4) 0.2554(3) 0.3443(3)
H2_3 H 0.7441 0.2498 0.3695
C5_3 C 0.7024(4) 0.2290(3) 0.3237(2)
C6_3 C 0.7997(4) 0.3194(3) 0.3488(3)
C7_3 C 0.7159(4) 0.2716(3) 0.2682(3)
C8_3 C 0.7854(6) 0.3322(3) 0.1471(3)
C9_3 C 0.6927(4) 0.2364(3) 0.2857(3)
H3_3 H 0.6706 0.2177 0.2717
C10_3 C 0.7384(5) 0.3101(4) 0.1695(3)
C11_3 C 0.7071(5) 0.2805(4) 0.2277(3)
C12_3 C 0.6876(7) 0.2965(5) 0.1537(4)
H4_3 H 0.6817 0.3011 0.1282
N1_3 N 0.6458(6) 0.2771(6) 0.1733(3)
C13_3 C 0.6558(7) 0.2707(6) 0.2096(4)
H5_3 H 0.6261 0.2588 0.2238
C14_3 C 0.7499(4) 0.2980(3) 0.2899(3)
H6_3 H 0.7663 0.3215 0.2788
O7_3 O 0.9256(3) 0.40208(16) 0.33052(18)
O10_3 O 0.9238(3) 0.4033(2) 0.1646(2)
O11_3 O 0.9420(4) 0.4356(2) 0.3825(2)
O12_3 O 0.9709(5) 0.4112(3) 0.1135(2)
C16_3 C 0.9900(4) 0.4598(3) 0.3276(3)
H7_3 H 0.9668 0.4412 0.2180
C20_3 C 0.9503(4) 0.4306(3) 0.3488(3)
C22_3 C 0.9646(6) 0.4178(3) 0.1471(3)
H12_3 H 0.9837 0.4285 0.2788
In3_3 In 0.8750 0.3750 0.630648(19)
O13_3 O 0.9256(3) 0.34792(16) 0.41948(18)
O16_3 O 0.9238(3) 0.3467(2) 0.5854(2)
O17_3 O 0.9420(4) 0.3144(2) 0.3675(2)
O18_3 O 0.9709(5) 0.3388(3) 0.6365(2)
C30_3 C 0.9900(4) 0.2902(3) 0.4224(3)
H13_3 H 0.9668 0.3088 0.5320
C34_3 C 0.9503(4) 0.3194(3) 0.4012(3)
C36_3 C 0.9646(6) 0.3322(3) 0.6029(3)
H18_3 H 0.9837 0.3215 0.4712
O19_3 O 0.8244(3) 0.40208(16) 0.41948(18)
O20_3 O 0.6839(4) 0.5651(2) 0.37419(17)
O21_3 O 0.6478(4) 0.5834(2) 0.42814(18)
O22_3 O 0.8262(3) 0.4033(2) 0.5854(2)
O23_3 O 0.8080(4) 0.4356(2) 0.3675(2)
O24_3 O 0.7791(5) 0.4112(3) 0.6365(2)
C43_3 C 0.6764(4) 0.5588(3) 0.4085(3)
C44_3 C 0.7600(4) 0.4598(3) 0.4224(3)
C45_3 C 0.7483(4) 0.4490(3) 0.5432(3)
H19_3 H 0.7832 0.4412 0.5320
C46_3 C 0.7366(4) 0.4946(3) 0.4057(3)
H20_3 H 0.7441 0.5002 0.3805
C47_3 C 0.7024(4) 0.5210(3) 0.4263(2)
C48_3 C 0.7997(4) 0.4306(3) 0.4012(3)
C49_3 C 0.7159(4) 0.4784(3) 0.4818(3)
C50_3 C 0.7854(6) 0.4178(3) 0.6029(3)
C51_3 C 0.6927(4) 0.5136(3) 0.4643(3)
H21_3 H 0.6706 0.5323 0.4783
C52_3 C 0.7384(5) 0.4399(4) 0.5805(3)
C53_3 C 0.7071(5) 0.4695(4) 0.5223(3)
C54_3 C 0.6876(7) 0.4535(5) 0.5963(4)
H22_3 H 0.6817 0.4489 0.6218
N4_3 N 0.6458(6) 0.4729(6) 0.5767(3)
C55_3 C 0.6558(7) 0.4793(6) 0.5404(4)
H23_3 H 0.6261 0.4912 0.5262
C56_3 C 0.7499(4) 0.4520(3) 0.4601(3)
H24_3 H 0.7663 0.4285 0.4712
O25_3 O 0.9339(4) 0.4349(2) 0.62419(17)
O26_3 O 0.9339(4) 0.3151(2) 0.12581(17)
O27_3 O 0.8161(4) 0.4349(2) 0.12581(17)
O28_3 O 0.8161(4) 0.3151(2) 0.62419(17)
O29_3 O 0.8978(4) 0.4166(2) 0.67814(18)
O30_3 O 0.8978(4) 0.3334(2) 0.07186(18)
O31_3 O 0.8522(4) 0.4166(2) 0.07186(18)
O32_3 O 0.8522(4) 0.3334(2) 0.67814(18)
O8_4 O 0.0661(4) 0.0651(2) 0.87581(17)
O9_4 O 0.1022(4) 0.0834(2) 0.82186(18)
C15_4 C 0.0736(4) 0.0588(3) 0.8415(3)
H8_4 H 0.0059 0.0002 0.8695
C19_4 C 0.0476(4) 0.0210(3) 0.8237(2)
C23_4 C 0.0573(4) 0.0136(3) 0.7857(3)
H9_4 H 0.0794 0.0323 0.7717
C17_4 C 0.0017(4) 0.9490(3) 0.7068(3)
C18_4 C 0.0134(4) 0.9946(3) 0.8443(3)
C21_4 C 0.0341(4) 0.9784(3) 0.7682(3)
C24_4 C 0.0116(5) 0.9399(4) 0.6695(3)
C25_4 C 0.0429(5) 0.9695(4) 0.7277(3)
C26_4 C 0.0624(7) 0.9535(5) 0.6537(4)
H10_4 H 0.0683 0.9489 0.6282
N2_4 N 0.1042(6) 0.9729(6) 0.6733(3)
C27_4 C 0.0942(7) 0.9793(6) 0.7096(4)
H11_4 H 0.1239 0.9912 0.7238
C28_4 C 0.0001(4) 0.9520(3) 0.7899(3)
O14_4 O 0.0661(4) 0.6849(2) 0.87419(17)
O15_4 O 0.1022(4) 0.6666(2) 0.92814(18)
C29_4 C 0.0736(4) 0.6912(3) 0.9085(3)
C32_4 C 0.0134(4) 0.7554(3) 0.9057(3)
H14_4 H 0.0059 0.7498 0.8805
C33_4 C 0.0476(4) 0.7290(3) 0.9263(2)
C35_4 C 0.0341(4) 0.7716(3) 0.9818(3)
C37_4 C 0.0573(4) 0.7364(3) 0.9643(3)
H15_4 H 0.0794 0.7177 0.9783
C42_4 C 0.0001(4) 0.7980(3) 0.9601(3)
O20_4 O 0.6839(4) 0.0651(2) 0.87419(17)
O21_4 O 0.6478(4) 0.0834(2) 0.92814(18)
C43_4 C 0.6764(4) 0.0588(3) 0.9085(3)
H20_4 H 0.7441 0.0002 0.8805
C47_4 C 0.7024(4) 0.0210(3) 0.9263(2)
C51_4 C 0.6927(4) 0.0136(3) 0.9643(3)
H21_4 H 0.6706 0.0323 0.9783
In3_4 In 0.8750 0.8750 0.130648(19)
O16_4 O 0.9238(3) 0.8467(2) 0.0854(2)
O18_4 O 0.9709(5) 0.8388(3) 0.1365(2)
H13_4 H 0.9668 0.8088 0.0320
C36_4 C 0.9646(6) 0.8322(3) 0.1029(3)
O22_4 O 0.8262(3) 0.9033(2) 0.0854(2)
O24_4 O 0.7791(5) 0.9112(3) 0.1365(2)
C45_4 C 0.7483(4) 0.9490(3) 0.0432(3)
H19_4 H 0.7832 0.9412 0.0320
C50_4 C 0.7854(6) 0.9178(3) 0.1029(3)
C52_4 C 0.7384(5) 0.9399(4) 0.0805(3)
C53_4 C 0.7071(5) 0.9695(4) 0.0223(3)
C54_4 C 0.6876(7) 0.9535(5) 0.0963(4)
H22_4 H 0.6817 0.9489 0.1218
N4_4 N 0.6458(6) 0.9729(6) 0.0767(3)
C55_4 C 0.6558(7) 0.9793(6) 0.0404(4)
H23_4 H 0.6261 0.9912 0.0262
O25_4 O 0.9339(4) 0.9349(2) 0.12419(17)
O28_4 O 0.8161(4) 0.8151(2) 0.12419(17)
O29_4 O 0.8978(4) 0.9166(2) 0.17814(18)
O32_4 O 0.8522(4) 0.8334(2) 0.17814(18)
In1_4 In 0.8750 0.8750 0.8750
In2_4 In 0.8750 0.8750 0.619352(19)
O1_4 O 0.8244(3) 0.84792(16) 0.83052(18)
O2_4 O 0.6839(4) 0.6849(2) 0.87581(17)
O3_4 O 0.6478(4) 0.6666(2) 0.82186(18)
O4_4 O 0.8262(3) 0.8467(2) 0.6646(2)
O5_4 O 0.8080(4) 0.8144(2) 0.8825(2)
O6_4 O 0.7791(5) 0.8388(3) 0.6135(2)
C1_4 C 0.6764(4) 0.6912(3) 0.8415(3)
C2_4 C 0.7600(4) 0.7902(3) 0.8276(3)
C3_4 C 0.7483(4) 0.8010(3) 0.7068(3)
H1_4 H 0.7832 0.8088 0.7180
C4_4 C 0.7366(4) 0.7554(3) 0.8443(3)
H2_4 H 0.7441 0.7498 0.8695
C5_4 C 0.7024(4) 0.7290(3) 0.8237(2)
C6_4 C 0.7997(4) 0.8194(3) 0.8488(3)
C7_4 C 0.7159(4) 0.7716(3) 0.7682(3)
C8_4 C 0.7854(6) 0.8322(3) 0.6471(3)
C9_4 C 0.6927(4) 0.7364(3) 0.7857(3)
H3_4 H 0.6706 0.7177 0.7717
C10_4 C 0.7384(5) 0.8101(4) 0.6695(3)
C11_4 C 0.7071(5) 0.7805(4) 0.7277(3)
C12_4 C 0.6876(7) 0.7965(5) 0.6537(4)
H4_4 H 0.6817 0.8011 0.6282
N1_4 N 0.6458(6) 0.7771(6) 0.6733(3)
C13_4 C 0.6558(7) 0.7707(6) 0.7096(4)
H5_4 H 0.6261 0.7588 0.7238
C14_4 C 0.7499(4) 0.7980(3) 0.7899(3)
H6_4 H 0.7663 0.8215 0.7788
O7_4 O 0.9256(3) 0.90208(16) 0.83052(18)
O10_4 O 0.9238(3) 0.9033(2) 0.6646(2)
O11_4 O 0.9420(4) 0.9356(2) 0.8825(2)
O12_4 O 0.9709(5) 0.9112(3) 0.6135(2)
C16_4 C 0.9900(4) 0.9598(3) 0.8276(3)
H7_4 H 0.9668 0.9412 0.7180
C20_4 C 0.9503(4) 0.9306(3) 0.8488(3)
C22_4 C 0.9646(6) 0.9178(3) 0.6471(3)
H12_4 H 0.9837 0.9285 0.7788
O13_4 O 0.9256(3) 0.84792(16) 0.91948(18)
O17_4 O 0.9420(4) 0.8144(2) 0.8675(2)
C30_4 C 0.9900(4) 0.7902(3) 0.9224(3)
C34_4 C 0.9503(4) 0.8194(3) 0.9012(3)
H18_4 H 0.9837 0.8215 0.9712
O19_4 O 0.8244(3) 0.90208(16) 0.91948(18)
O23_4 O 0.8080(4) 0.9356(2) 0.8675(2)
C44_4 C 0.7600(4) 0.9598(3) 0.9224(3)
C46_4 C 0.7366(4) 0.9946(3) 0.9057(3)
C48_4 C 0.7997(4) 0.9306(3) 0.9012(3)
C49_4 C 0.7159(4) 0.9784(3) 0.9818(3)
C56_4 C 0.7499(4) 0.9520(3) 0.9601(3)
H24_4 H 0.7663 0.9285 0.9712
O26_4 O 0.9339(4) 0.8151(2) 0.62581(17)
O27_4 O 0.8161(4) 0.9349(2) 0.62581(17)
O30_4 O 0.8978(4) 0.8334(2) 0.57186(18)
O31_4 O 0.8522(4) 0.9166(2) 0.57186(18)
In1_5 In 0.6250 0.6250 0.1250
O1_5 O 0.6756(3) 0.65208(16) 0.16948(18)
O4_5 O 0.6738(3) 0.6533(2) 0.3354(2)
O5_5 O 0.6920(4) 0.6856(2) 0.1175(2)
O6_5 O 0.7209(5) 0.6612(3) 0.3865(2)
C1_5 C 0.8236(4) 0.8088(3) 0.1585(3)
C2_5 C 0.7400(4) 0.7098(3) 0.1724(3)
C3_5 C 0.7517(4) 0.6990(3) 0.2932(3)
H1_5 H 0.7168 0.6912 0.2820
C4_5 C 0.7634(4) 0.7446(3) 0.1557(3)
H2_5 H 0.7559 0.7502 0.1305
C5_5 C 0.7976(4) 0.7710(3) 0.1763(2)
C6_5 C 0.7003(4) 0.6806(3) 0.1512(3)
C7_5 C 0.7841(4) 0.7284(3) 0.2318(3)
C8_5 C 0.7146(6) 0.6678(3) 0.3529(3)
C9_5 C 0.8073(4) 0.7636(3) 0.2143(3)
H3_5 H 0.8294 0.7823 0.2283
C10_5 C 0.7616(5) 0.6899(4) 0.3305(3)
C11_5 C 0.7929(5) 0.7195(4) 0.2723(3)
C12_5 C 0.8124(7) 0.7035(5) 0.3463(4)
H4_5 H 0.8183 0.6989 0.3718
N1_5 N 0.8542(6) 0.7229(6) 0.3267(3)
C13_5 C 0.8442(7) 0.7293(6) 0.2904(4)
H5_5 H 0.8739 0.7412 0.2762
C14_5 C 0.7501(4) 0.7020(3) 0.2101(3)
H6_5 H 0.7337 0.6785 0.2212
O7_5 O 0.5744(3) 0.59792(16) 0.16948(18)
O10_5 O 0.5762(3) 0.5967(2) 0.3354(2)
O11_5 O 0.5580(4) 0.5644(2) 0.1175(2)
O12_5 O 0.5291(5) 0.5888(3) 0.3865(2)
C15_5 C 0.4264(4) 0.4412(3) 0.1585(3)
C16_5 C 0.5100(4) 0.5402(3) 0.1724(3)
C17_5 C 0.4983(4) 0.5510(3) 0.2932(3)
H7_5 H 0.5332 0.5588 0.2820
C18_5 C 0.4866(4) 0.5054(3) 0.1557(3)
H8_5 H 0.4941 0.4998 0.1305
C19_5 C 0.4524(4) 0.4790(3) 0.1763(2)
C20_5 C 0.5497(4) 0.5694(3) 0.1512(3)
C21_5 C 0.4659(4) 0.5216(3) 0.2318(3)
C22_5 C 0.5354(6) 0.5822(3) 0.3529(3)
C23_5 C 0.4427(4) 0.4864(3) 0.2143(3)
H9_5 H 0.4206 0.4677 0.2283
C24_5 C 0.4884(5) 0.5601(4) 0.3305(3)
C25_5 C 0.4571(5) 0.5305(4) 0.2723(3)
C26_5 C 0.4376(7) 0.5465(5) 0.3463(4)
H10_5 H 0.4317 0.5511 0.3718
N2_5 N 0.3958(6) 0.5271(6) 0.3267(3)
C27_5 C 0.4058(7) 0.5207(6) 0.2904(4)
H11_5 H 0.3761 0.5088 0.2762
C28_5 C 0.4999(4) 0.5480(3) 0.2101(3)
H12_5 H 0.5163 0.5715 0.2212
O13_5 O 0.5744(3) 0.65208(16) 0.08052(18)
O17_5 O 0.5580(4) 0.6856(2) 0.1325(2)
C29_5 C 0.4264(4) 0.8088(3) 0.0915(3)
C30_5 C 0.5100(4) 0.7098(3) 0.0776(3)
C32_5 C 0.4866(4) 0.7446(3) 0.0943(3)
H14_5 H 0.4941 0.7502 0.1195
C33_5 C 0.4524(4) 0.7710(3) 0.0737(2)
C34_5 C 0.5497(4) 0.6806(3) 0.0988(3)
C35_5 C 0.4659(4) 0.7284(3) 0.0182(3)
C37_5 C 0.4427(4) 0.7636(3) 0.0357(3)
H15_5 H 0.4206 0.7823 0.0217
C42_5 C 0.4999(4) 0.7020(3) 0.0399(3)
H18_5 H 0.5163 0.6785 0.0288
O19_5 O 0.6756(3) 0.59792(16) 0.08052(18)
O23_5 O 0.6920(4) 0.5644(2) 0.1325(2)
C43_5 C 0.8236(4) 0.4412(3) 0.0915(3)
C44_5 C 0.7400(4) 0.5402(3) 0.0776(3)
C46_5 C 0.7634(4) 0.5054(3) 0.0943(3)
H20_5 H 0.7559 0.4998 0.1195
C47_5 C 0.7976(4) 0.4790(3) 0.0737(2)
C48_5 C 0.7003(4) 0.5694(3) 0.0988(3)
C49_5 C 0.7841(4) 0.5216(3) 0.0182(3)
C51_5 C 0.8073(4) 0.4864(3) 0.0357(3)
H21_5 H 0.8294 0.4677 0.0217
C56_5 C 0.7501(4) 0.5480(3) 0.0399(3)
H24_5 H 0.7337 0.5715 0.0288
O16_5 O 0.5762(3) 0.6533(2) 0.9146(2)
O18_5 O 0.5291(5) 0.6612(3) 0.8635(2)
C31_4 C 0.4983(4) 0.6990(3) 0.9568(3)
H13_5 H 0.5332 0.6912 0.9680
C36_5 C 0.5354(6) 0.6678(3) 0.8971(3)
C38_4 C 0.4884(5) 0.6899(4) 0.9195(3)
C39_4 C 0.4571(5) 0.7195(4) 0.9777(3)
C40_4 C 0.4376(7) 0.7035(5) 0.9037(4)
H16_4 H 0.4317 0.6989 0.8782
N3_4 N 0.3958(6) 0.7229(6) 0.9233(3)
C41_4 C 0.4058(7) 0.7293(6) 0.9596(4)
H17_4 H 0.3761 0.7412 0.9738
O22_5 O 0.6738(3) 0.5967(2) 0.9146(2)
O24_5 O 0.7209(5) 0.5888(3) 0.8635(2)
C45_5 C 0.7517(4) 0.5510(3) 0.9568(3)
H19_5 H 0.7168 0.5588 0.9680
C50_5 C 0.7146(6) 0.5822(3) 0.8971(3)
C52_5 C 0.7616(5) 0.5601(4) 0.9195(3)
C53_5 C 0.7929(5) 0.5305(4) 0.9777(3)
C54_5 C 0.8124(7) 0.5465(5) 0.9037(4)
H22_5 H 0.8183 0.5511 0.8782
N4_5 N 0.8542(6) 0.5271(6) 0.9233(3)
C55_5 C 0.8442(7) 0.5207(6) 0.9596(4)
H23_5 H 0.8739 0.5088 0.9738
In1_6 In 0.6250 0.1250 0.6250
O1_6 O 0.6756(3) 0.15208(16) 0.66948(18)
O4_6 O 0.6738(3) 0.1533(2) 0.8354(2)
O5_6 O 0.6920(4) 0.1856(2) 0.6175(2)
O6_6 O 0.7209(5) 0.1612(3) 0.8865(2)
C1_6 C 0.8236(4) 0.3088(3) 0.6585(3)
C2_6 C 0.7400(4) 0.2098(3) 0.6724(3)
C3_6 C 0.7517(4) 0.1990(3) 0.7932(3)
H1_6 H 0.7168 0.1912 0.7820
C4_6 C 0.7634(4) 0.2446(3) 0.6557(3)
H2_6 H 0.7559 0.2502 0.6305
C5_6 C 0.7976(4) 0.2710(3) 0.6763(2)
C6_6 C 0.7003(4) 0.1806(3) 0.6512(3)
C7_6 C 0.7841(4) 0.2284(3) 0.7318(3)
C8_6 C 0.7146(6) 0.1678(3) 0.8529(3)
C9_6 C 0.8073(4) 0.2636(3) 0.7143(3)
H3_6 H 0.8294 0.2823 0.7283
C10_6 C 0.7616(5) 0.1899(4) 0.8305(3)
C11_6 C 0.7929(5) 0.2195(4) 0.7723(3)
C12_6 C 0.8124(7) 0.2035(5) 0.8463(4)
H4_6 H 0.8183 0.1989 0.8718
N1_6 N 0.8542(6) 0.2229(6) 0.8267(3)
C13_6 C 0.8442(7) 0.2293(6) 0.7904(4)
H5_6 H 0.8739 0.2412 0.7762
C14_6 C 0.7501(4) 0.2020(3) 0.7101(3)
H6_6 H 0.7337 0.1785 0.7212
O7_6 O 0.5744(3) 0.09792(16) 0.66948(18)
O10_6 O 0.5762(3) 0.0967(2) 0.8354(2)
O11_6 O 0.5580(4) 0.0644(2) 0.6175(2)
O12_6 O 0.5291(5) 0.0888(3) 0.8865(2)
C16_6 C 0.5100(4) 0.0402(3) 0.6724(3)
C17_6 C 0.4983(4) 0.0510(3) 0.7932(3)
H7_6 H 0.5332 0.0588 0.7820
C18_6 C 0.4866(4) 0.0054(3) 0.6557(3)
C20_6 C 0.5497(4) 0.0694(3) 0.6512(3)
C21_6 C 0.4659(4) 0.0216(3) 0.7318(3)
C22_6 C 0.5354(6) 0.0822(3) 0.8529(3)
C24_6 C 0.4884(5) 0.0601(4) 0.8305(3)
C25_6 C 0.4571(5) 0.0305(4) 0.7723(3)
C26_6 C 0.4376(7) 0.0465(5) 0.8463(4)
H10_6 H 0.4317 0.0511 0.8718
N2_6 N 0.3958(6) 0.0271(6) 0.8267(3)
C27_6 C 0.4058(7) 0.0207(6) 0.7904(4)
H11_6 H 0.3761 0.0088 0.7762
C28_6 C 0.4999(4) 0.0480(3) 0.7101(3)
H12_6 H 0.5163 0.0715 0.7212
O13_6 O 0.5744(3) 0.15208(16) 0.58052(18)
O16_6 O 0.5762(3) 0.1533(2) 0.4146(2)
O17_6 O 0.5580(4) 0.1856(2) 0.6325(2)
O18_6 O 0.5291(5) 0.1612(3) 0.3635(2)
C29_6 C 0.4264(4) 0.3088(3) 0.5915(3)
C30_6 C 0.5100(4) 0.2098(3) 0.5776(3)
C31_5 C 0.4983(4) 0.1990(3) 0.4568(3)
H13_6 H 0.5332 0.1912 0.4680
C32_6 C 0.4866(4) 0.2446(3) 0.5943(3)
H14_6 H 0.4941 0.2502 0.6195
C33_6 C 0.4524(4) 0.2710(3) 0.5737(2)
C34_6 C 0.5497(4) 0.1806(3) 0.5988(3)
C35_6 C 0.4659(4) 0.2284(3) 0.5182(3)
C36_6 C 0.5354(6) 0.1678(3) 0.3971(3)
C37_6 C 0.4427(4) 0.2636(3) 0.5357(3)
H15_6 H 0.4206 0.2823 0.5217
C38_5 C 0.4884(5) 0.1899(4) 0.4195(3)
C39_5 C 0.4571(5) 0.2195(4) 0.4777(3)
C40_5 C 0.4376(7) 0.2035(5) 0.4037(4)
H16_5 H 0.4317 0.1989 0.3782
N3_5 N 0.3958(6) 0.2229(6) 0.4233(3)
C41_5 C 0.4058(7) 0.2293(6) 0.4596(4)
H17_5 H 0.3761 0.2412 0.4738
C42_6 C 0.4999(4) 0.2020(3) 0.5399(3)
H18_6 H 0.5163 0.1785 0.5288
O19_6 O 0.6756(3) 0.09792(16) 0.58052(18)
O22_6 O 0.6738(3) 0.0967(2) 0.4146(2)
O23_6 O 0.6920(4) 0.0644(2) 0.6325(2)
O24_6 O 0.7209(5) 0.0888(3) 0.3635(2)
C44_6 C 0.7400(4) 0.0402(3) 0.5776(3)
C45_6 C 0.7517(4) 0.0510(3) 0.4568(3)
H19_6 H 0.7168 0.0588 0.4680
C46_6 C 0.7634(4) 0.0054(3) 0.5943(3)
C48_6 C 0.7003(4) 0.0694(3) 0.5988(3)
C49_6 C 0.7841(4) 0.0216(3) 0.5182(3)
C50_6 C 0.7146(6) 0.0822(3) 0.3971(3)
C52_6 C 0.7616(5) 0.0601(4) 0.4195(3)
C53_6 C 0.7929(5) 0.0305(4) 0.4777(3)
C54_6 C 0.8124(7) 0.0465(5) 0.4037(4)
H22_6 H 0.8183 0.0511 0.3782
N4_6 N 0.8542(6) 0.0271(6) 0.4233(3)
C55_6 C 0.8442(7) 0.0207(6) 0.4596(4)
H23_6 H 0.8739 0.0088 0.4738
C56_6 C 0.7501(4) 0.0480(3) 0.5399(3)
H24_6 H 0.7337 0.0715 0.5288
C15_6 C 0.4264(4) 0.9412(3) 0.6585(3)
H8_6 H 0.4941 0.9998 0.6305
C19_6 C 0.4524(4) 0.9790(3) 0.6763(2)
C23_6 C 0.4427(4) 0.9864(3) 0.7143(3)
H9_6 H 0.4206 0.9677 0.7283
C43_6 C 0.8236(4) 0.9412(3) 0.5915(3)
H20_6 H 0.7559 0.9998 0.6195
C47_6 C 0.7976(4) 0.9790(3) 0.5737(2)
C51_6 C 0.8073(4) 0.9864(3) 0.5357(3)
H21_6 H 0.8294 0.9677 0.5217
In1_7 In 0.1250 0.6250 0.6250
O1_7 O 0.1756(3) 0.65208(16) 0.66948(18)
O4_7 O 0.1738(3) 0.6533(2) 0.8354(2)
O5_7 O 0.1920(4) 0.6856(2) 0.6175(2)
O6_7 O 0.2209(5) 0.6612(3) 0.8865(2)
C1_7 C 0.3236(4) 0.8088(3) 0.6585(3)
C2_7 C 0.2400(4) 0.7098(3) 0.6724(3)
C3_7 C 0.2517(4) 0.6990(3) 0.7932(3)
H1_7 H 0.2168 0.6912 0.7820
C4_7 C 0.2634(4) 0.7446(3) 0.6557(3)
H2_7 H 0.2559 0.7502 0.6305
C5_7 C 0.2976(4) 0.7710(3) 0.6763(2)
C6_7 C 0.2003(4) 0.6806(3) 0.6512(3)
C7_7 C 0.2841(4) 0.7284(3) 0.7318(3)
C8_7 C 0.2146(6) 0.6678(3) 0.8529(3)
C9_7 C 0.3073(4) 0.7636(3) 0.7143(3)
H3_7 H 0.3294 0.7823 0.7283
C10_7 C 0.2616(5) 0.6899(4) 0.8305(3)
C11_7 C 0.2929(5) 0.7195(4) 0.7723(3)
C12_7 C 0.3124(7) 0.7035(5) 0.8463(4)
H4_7 H 0.3183 0.6989 0.8718
N1_7 N 0.3542(6) 0.7229(6) 0.8267(3)
C13_7 C 0.3442(7) 0.7293(6) 0.7904(4)
H5_7 H 0.3739 0.7412 0.7762
C14_7 C 0.2501(4) 0.7020(3) 0.7101(3)
H6_7 H 0.2337 0.6785 0.7212
O7_7 O 0.0744(3) 0.59792(16) 0.66948(18)
O10_7 O 0.0762(3) 0.5967(2) 0.8354(2)
O11_7 O 0.0580(4) 0.5644(2) 0.6175(2)
O12_7 O 0.0291(5) 0.5888(3) 0.8865(2)
C16_7 C 0.0100(4) 0.5402(3) 0.6724(3)
H7_7 H 0.0332 0.5588 0.7820
C20_7 C 0.0497(4) 0.5694(3) 0.6512(3)
C22_7 C 0.0354(6) 0.5822(3) 0.8529(3)
H12_7 H 0.0163 0.5715 0.7212
O13_7 O 0.0744(3) 0.65208(16) 0.58052(18)
O16_7 O 0.0762(3) 0.6533(2) 0.4146(2)
O17_7 O 0.0580(4) 0.6856(2) 0.6325(2)
O18_7 O 0.0291(5) 0.6612(3) 0.3635(2)
C30_7 C 0.0100(4) 0.7098(3) 0.5776(3)
H13_7 H 0.0332 0.6912 0.4680
C34_7 C 0.0497(4) 0.6806(3) 0.5988(3)
C36_7 C 0.0354(6) 0.6678(3) 0.3971(3)
H18_7 H 0.0163 0.6785 0.5288
O19_7 O 0.1756(3) 0.59792(16) 0.58052(18)
O22_7 O 0.1738(3) 0.5967(2) 0.4146(2)
O23_7 O 0.1920(4) 0.5644(2) 0.6325(2)
O24_7 O 0.2209(5) 0.5888(3) 0.3635(2)
C43_7 C 0.3236(4) 0.4412(3) 0.5915(3)
C44_7 C 0.2400(4) 0.5402(3) 0.5776(3)
C45_7 C 0.2517(4) 0.5510(3) 0.4568(3)
H19_7 H 0.2168 0.5588 0.4680
C46_7 C 0.2634(4) 0.5054(3) 0.5943(3)
H20_7 H 0.2559 0.4998 0.6195
C47_7 C 0.2976(4) 0.4790(3) 0.5737(2)
C48_7 C 0.2003(4) 0.5694(3) 0.5988(3)
C49_7 C 0.2841(4) 0.5216(3) 0.5182(3)
C50_7 C 0.2146(6) 0.5822(3) 0.3971(3)
C51_7 C 0.3073(4) 0.4864(3) 0.5357(3)
H21_7 H 0.3294 0.4677 0.5217
C52_7 C 0.2616(5) 0.5601(4) 0.4195(3)
C53_7 C 0.2929(5) 0.5305(4) 0.4777(3)
C54_7 C 0.3124(7) 0.5465(5) 0.4037(4)
H22_7 H 0.3183 0.5511 0.3782
N4_7 N 0.3542(6) 0.5271(6) 0.4233(3)
C55_7 C 0.3442(7) 0.5207(6) 0.4596(4)
H23_7 H 0.3739 0.5088 0.4738
C56_7 C 0.2501(4) 0.5480(3) 0.5399(3)
H24_7 H 0.2337 0.5715 0.5288
C15_7 C 0.9264(4) 0.4412(3) 0.6585(3)
C17_7 C 0.9983(4) 0.5510(3) 0.7932(3)
C18_7 C 0.9866(4) 0.5054(3) 0.6557(3)
H8_7 H 0.9941 0.4998 0.6305
C19_7 C 0.9524(4) 0.4790(3) 0.6763(2)
C21_7 C 0.9659(4) 0.5216(3) 0.7318(3)
C23_7 C 0.9427(4) 0.4864(3) 0.7143(3)
H9_7 H 0.9206 0.4677 0.7283
C24_7 C 0.9884(5) 0.5601(4) 0.8305(3)
C25_7 C 0.9571(5) 0.5305(4) 0.7723(3)
C26_7 C 0.9376(7) 0.5465(5) 0.8463(4)
H10_7 H 0.9317 0.5511 0.8718
N2_7 N 0.8958(6) 0.5271(6) 0.8267(3)
C27_7 C 0.9058(7) 0.5207(6) 0.7904(4)
H11_7 H 0.8761 0.5088 0.7762
C28_7 C 0.9999(4) 0.5480(3) 0.7101(3)
C29_7 C 0.9264(4) 0.8088(3) 0.5915(3)
C31_6 C 0.9983(4) 0.6990(3) 0.4568(3)
C32_7 C 0.9866(4) 0.7446(3) 0.5943(3)
H14_7 H 0.9941 0.7502 0.6195
C33_7 C 0.9524(4) 0.7710(3) 0.5737(2)
C35_7 C 0.9659(4) 0.7284(3) 0.5182(3)
C37_7 C 0.9427(4) 0.7636(3) 0.5357(3)
H15_7 H 0.9206 0.7823 0.5217
C38_6 C 0.9884(5) 0.6899(4) 0.4195(3)
C39_6 C 0.9571(5) 0.7195(4) 0.4777(3)
C40_6 C 0.9376(7) 0.7035(5) 0.4037(4)
H16_6 H 0.9317 0.6989 0.3782
N3_6 N 0.8958(6) 0.7229(6) 0.4233(3)
C41_6 C 0.9058(7) 0.7293(6) 0.4596(4)
H17_6 H 0.8761 0.7412 0.4738
C42_7 C 0.9999(4) 0.7020(3) 0.5399(3)
In1_8 In 0.1250 0.1250 0.1250
O1_8 O 0.1756(3) 0.15208(16) 0.16948(18)
O4_8 O 0.1738(3) 0.1533(2) 0.3354(2)
O5_8 O 0.1920(4) 0.1856(2) 0.1175(2)
O6_8 O 0.2209(5) 0.1612(3) 0.3865(2)
C1_8 C 0.3236(4) 0.3088(3) 0.1585(3)
C2_8 C 0.2400(4) 0.2098(3) 0.1724(3)
C3_8 C 0.2517(4) 0.1990(3) 0.2932(3)
H1_8 H 0.2168 0.1912 0.2820
C4_8 C 0.2634(4) 0.2446(3) 0.1557(3)
H2_8 H 0.2559 0.2502 0.1305
C5_8 C 0.2976(4) 0.2710(3) 0.1763(2)
C6_8 C 0.2003(4) 0.1806(3) 0.1512(3)
C7_8 C 0.2841(4) 0.2284(3) 0.2318(3)
C8_8 C 0.2146(6) 0.1678(3) 0.3529(3)
C9_8 C 0.3073(4) 0.2636(3) 0.2143(3)
H3_8 H 0.3294 0.2823 0.2283
C10_8 C 0.2616(5) 0.1899(4) 0.3305(3)
C11_8 C 0.2929(5) 0.2195(4) 0.2723(3)
C12_8 C 0.3124(7) 0.2035(5) 0.3463(4)
H4_8 H 0.3183 0.1989 0.3718
N1_8 N 0.3542(6) 0.2229(6) 0.3267(3)
C13_8 C 0.3442(7) 0.2293(6) 0.2904(4)
H5_8 H 0.3739 0.2412 0.2762
C14_8 C 0.2501(4) 0.2020(3) 0.2101(3)
H6_8 H 0.2337 0.1785 0.2212
O7_8 O 0.0744(3) 0.09792(16) 0.16948(18)
O10_8 O 0.0762(3) 0.0967(2) 0.3354(2)
O11_8 O 0.0580(4) 0.0644(2) 0.1175(2)
O12_8 O 0.0291(5) 0.0888(3) 0.3865(2)
C16_8 C 0.0100(4) 0.0402(3) 0.1724(3)
H7_8 H 0.0332 0.0588 0.2820
C20_8 C 0.0497(4) 0.0694(3) 0.1512(3)
C22_8 C 0.0354(6) 0.0822(3) 0.3529(3)
H12_8 H 0.0163 0.0715 0.2212
O13_8 O 0.0744(3) 0.15208(16) 0.08052(18)
O17_8 O 0.0580(4) 0.1856(2) 0.1325(2)
C30_8 C 0.0100(4) 0.2098(3) 0.0776(3)
C34_8 C 0.0497(4) 0.1806(3) 0.0988(3)
H18_8 H 0.0163 0.1785 0.0288
O19_8 O 0.1756(3) 0.09792(16) 0.08052(18)
O23_8 O 0.1920(4) 0.0644(2) 0.1325(2)
C44_8 C 0.2400(4) 0.0402(3) 0.0776(3)
C46_8 C 0.2634(4) 0.0054(3) 0.0943(3)
C48_8 C 0.2003(4) 0.0694(3) 0.0988(3)
C49_8 C 0.2841(4) 0.0216(3) 0.0182(3)
C56_8 C 0.2501(4) 0.0480(3) 0.0399(3)
H24_8 H 0.2337 0.0715 0.0288
O16_8 O 0.0762(3) 0.1533(2) 0.9146(2)
O18_8 O 0.0291(5) 0.1612(3) 0.8635(2)
H13_8 H 0.0332 0.1912 0.9680
C36_8 C 0.0354(6) 0.1678(3) 0.8971(3)
O22_8 O 0.1738(3) 0.0967(2) 0.9146(2)
O24_8 O 0.2209(5) 0.0888(3) 0.8635(2)
C45_8 C 0.2517(4) 0.0510(3) 0.9568(3)
H19_8 H 0.2168 0.0588 0.9680
C50_8 C 0.2146(6) 0.0822(3) 0.8971(3)
C52_8 C 0.2616(5) 0.0601(4) 0.9195(3)
C53_8 C 0.2929(5) 0.0305(4) 0.9777(3)
C54_8 C 0.3124(7) 0.0465(5) 0.9037(4)
H22_8 H 0.3183 0.0511 0.8782
N4_8 N 0.3542(6) 0.0271(6) 0.9233(3)
C55_8 C 0.3442(7) 0.0207(6) 0.9596(4)
H23_8 H 0.3739 0.0088 0.9738
C43_8 C 0.3236(4) 0.9412(3) 0.0915(3)
H20_8 H 0.2559 0.9998 0.1195
C47_8 C 0.2976(4) 0.9790(3) 0.0737(2)
C51_8 C 0.3073(4) 0.9864(3) 0.0357(3)
H21_8 H 0.3294 0.9677 0.0217
C17_8 C 0.9983(4) 0.0510(3) 0.2932(3)
C18_8 C 0.9866(4) 0.0054(3) 0.1557(3)
C21_8 C 0.9659(4) 0.0216(3) 0.2318(3)
C24_8 C 0.9884(5) 0.0601(4) 0.3305(3)
C25_8 C 0.9571(5) 0.0305(4) 0.2723(3)
C26_8 C 0.9376(7) 0.0465(5) 0.3463(4)
H10_8 H 0.9317 0.0511 0.3718
N2_8 N 0.8958(6) 0.0271(6) 0.3267(3)
C27_8 C 0.9058(7) 0.0207(6) 0.2904(4)
H11_8 H 0.8761 0.0088 0.2762
C28_8 C 0.9999(4) 0.0480(3) 0.2101(3)
C29_8 C 0.9264(4) 0.3088(3) 0.0915(3)
C32_8 C 0.9866(4) 0.2446(3) 0.0943(3)
H14_8 H 0.9941 0.2502 0.1195
C33_8 C 0.9524(4) 0.2710(3) 0.0737(2)
C35_8 C 0.9659(4) 0.2284(3) 0.0182(3)
C37_8 C 0.9427(4) 0.2636(3) 0.0357(3)
H15_8 H 0.9206 0.2823 0.0217
C42_8 C 0.9999(4) 0.2020(3) 0.0399(3)
C15_8 C 0.9264(4) 0.9412(3) 0.1585(3)
H8_8 H 0.9941 0.9998 0.1305
C19_8 C 0.9524(4) 0.9790(3) 0.1763(2)
C23_8 C 0.9427(4) 0.9864(3) 0.2143(3)
H9_8 H 0.9206 0.9677 0.2283
C31_7 C 0.0017(4) 0.8010(3) 0.0432(3)
C38_7 C 0.0116(5) 0.8101(4) 0.0805(3)
C39_7 C 0.0429(5) 0.7805(4) 0.0223(3)
C40_7 C 0.0624(7) 0.7965(5) 0.0963(4)
H16_7 H 0.0683 0.8011 0.1218
N3_7 N 0.1042(6) 0.7771(6) 0.0767(3)
C41_7 C 0.0942(7) 0.7707(6) 0.0404(4)
H17_7 H 0.1239 0.7588 0.0262
C31_8 C 0.9983(4) 0.1990(3) 0.9568(3)
C38_8 C 0.9884(5) 0.1899(4) 0.9195(3)
C39_8 C 0.9571(5) 0.2195(4) 0.9777(3)
C40_8 C 0.9376(7) 0.2035(5) 0.9037(4)
H16_8 H 0.9317 0.1989 0.8782
N3_8 N 0.8958(6) 0.2229(6) 0.9233(3)
C41_8 C 0.9058(7) 0.2293(6) 0.9596(4)
H17_8 H 0.8761 0.2412 0.9738
N5 N 0.4461(18) 0.3222(14) 0.7429(13)
H25 H 0.4365 0.3493 0.7421
H26 H 0.4848 0.3193 0.7460
C57 C 0.424(3) 0.298(2) 0.7099(11)
H27 H 0.4372 0.3111 0.6871
H28 H 0.3817 0.2986 0.7103
H29 H 0.4373 0.2702 0.7112
C58 C 0.412(2) 0.2987(18) 0.7713(11)
H30 H 0.4213 0.3088 0.7960
H31 H 0.4215 0.2697 0.7696
H32 H 0.3712 0.3025 0.7666
N5_2 N 0.3039(18) 0.4278(14) 0.7429(13)
H25_2 H 0.3135 0.4007 0.7421
H26_2 H 0.2652 0.4307 0.7460
C57_2 C 0.326(3) 0.452(2) 0.7099(11)
H27_2 H 0.3128 0.4389 0.6871
H28_2 H 0.3683 0.4514 0.7103
H29_2 H 0.3127 0.4798 0.7112
C58_2 C 0.338(2) 0.4513(18) 0.7713(11)
H30_2 H 0.3287 0.4412 0.7960
H31_2 H 0.3285 0.4803 0.7696
H32_2 H 0.3788 0.4475 0.7666
N5_3 N 0.3039(18) 0.3222(14) 0.0071(13)
H25_3 H 0.3135 0.3493 0.0079
H26_3 H 0.2652 0.3193 0.0040
C57_3 C 0.326(3) 0.298(2) 0.0401(11)
H27_3 H 0.3128 0.3111 0.0629
H28_3 H 0.3683 0.2986 0.0397
H29_3 H 0.3127 0.2702 0.0388
C58_3 C 0.338(2) 0.2987(18) 0.9787(11)
H30_3 H 0.3287 0.3088 0.9540
H31_3 H 0.3285 0.2697 0.9804
H32_3 H 0.3788 0.3025 0.9834
N5_4 N 0.4461(18) 0.4278(14) 0.0071(13)
H25_4 H 0.4365 0.4007 0.0079
H26_4 H 0.4848 0.4307 0.0040
C57_4 C 0.424(3) 0.452(2) 0.0401(11)
H27_4 H 0.4372 0.4389 0.0629
H28_4 H 0.3817 0.4514 0.0397
H29_4 H 0.4373 0.4798 0.0388
C58_4 C 0.412(2) 0.4513(18) 0.9787(11)
H30_4 H 0.4213 0.4412 0.9540
H31_4 H 0.4215 0.4803 0.9804
H32_4 H 0.3712 0.4475 0.9834
N5_5 N 0.4461(18) 0.8222(14) 0.2429(13)
H25_5 H 0.4365 0.8493 0.2421
H26_5 H 0.4848 0.8193 0.2460
C57_5 C 0.424(3) 0.798(2) 0.2099(11)
H27_5 H 0.4372 0.8111 0.1871
H28_5 H 0.3817 0.7986 0.2103
H29_5 H 0.4373 0.7702 0.2112
C58_5 C 0.412(2) 0.7987(18) 0.2713(11)
H30_5 H 0.4213 0.8088 0.2960
H31_5 H 0.4215 0.7697 0.2696
H32_5 H 0.3712 0.8025 0.2666
N5_6 N 0.3039(18) 0.9278(14) 0.2429(13)
H25_6 H 0.3135 0.9007 0.2421
H26_6 H 0.2652 0.9307 0.2460
C57_6 C 0.326(3) 0.952(2) 0.2099(11)
H27_6 H 0.3128 0.9389 0.1871
H28_6 H 0.3683 0.9514 0.2103
H29_6 H 0.3127 0.9798 0.2112
C58_6 C 0.338(2) 0.9513(18) 0.2713(11)
H30_6 H 0.3287 0.9412 0.2960
H31_6 H 0.3285 0.9803 0.2696
H32_6 H 0.3788 0.9475 0.2666
N5_7 N 0.3039(18) 0.8222(14) 0.5071(13)
H25_7 H 0.3135 0.8493 0.5079
H26_7 H 0.2652 0.8193 0.5040
C57_7 C 0.326(3) 0.798(2) 0.5401(11)
H27_7 H 0.3128 0.8111 0.5629
H28_7 H 0.3683 0.7986 0.5397
H29_7 H 0.3127 0.7702 0.5388
C58_7 C 0.338(2) 0.7987(18) 0.4787(11)
H30_7 H 0.3287 0.8088 0.4540
H31_7 H 0.3285 0.7697 0.4804
H32_7 H 0.3788 0.8025 0.4834
N5_8 N 0.4461(18) 0.9278(14) 0.5071(13)
H25_8 H 0.4365 0.9007 0.5079
H26_8 H 0.4848 0.9307 0.5040
C57_8 C 0.424(3) 0.952(2) 0.5401(11)
H27_8 H 0.4372 0.9389 0.5629
H28_8 H 0.3817 0.9514 0.5397
H29_8 H 0.4373 0.9798 0.5388
C58_8 C 0.412(2) 0.9513(18) 0.4787(11)
H30_8 H 0.4213 0.9412 0.4540
H31_8 H 0.4215 0.9803 0.4804
H32_8 H 0.3712 0.9475 0.4834
N5_9 N 0.9461(18) 0.3222(14) 0.2429(13)
H25_9 H 0.9365 0.3493 0.2421
H26_9 H 0.9848 0.3193 0.2460
C57_9 C 0.924(3) 0.298(2) 0.2099(11)
H27_9 H 0.9372 0.3111 0.1871
H28_9 H 0.8817 0.2986 0.2103
H29_9 H 0.9373 0.2702 0.2112
C58_9 C 0.912(2) 0.2987(18) 0.2713(11)
H30_9 H 0.9213 0.3088 0.2960
H31_9 H 0.9215 0.2697 0.2696
H32_9 H 0.8712 0.3025 0.2666
N5_10 N 0.8039(18) 0.4278(14) 0.2429(13)
H25_10 H 0.8135 0.4007 0.2421
H26_10 H 0.7652 0.4307 0.2460
C57_10 C 0.826(3) 0.452(2) 0.2099(11)
H27_10 H 0.8128 0.4389 0.1871
H28_10 H 0.8683 0.4514 0.2103
H29_10 H 0.8127 0.4798 0.2112
C58_10 C 0.838(2) 0.4513(18) 0.2713(11)
H30_10 H 0.8287 0.4412 0.2960
H31_10 H 0.8285 0.4803 0.2696
H32_10 H 0.8788 0.4475 0.2666
N5_11 N 0.8039(18) 0.3222(14) 0.5071(13)
H25_11 H 0.8135 0.3493 0.5079
H26_11 H 0.7652 0.3193 0.5040
C57_11 C 0.826(3) 0.298(2) 0.5401(11)
H27_11 H 0.8128 0.3111 0.5629
H28_11 H 0.8683 0.2986 0.5397
H29_11 H 0.8127 0.2702 0.5388
C58_11 C 0.838(2) 0.2987(18) 0.4787(11)
H30_11 H 0.8287 0.3088 0.4540
H31_11 H 0.8285 0.2697 0.4804
H32_11 H 0.8788 0.3025 0.4834
N5_12 N 0.9461(18) 0.4278(14) 0.5071(13)
H25_12 H 0.9365 0.4007 0.5079
H26_12 H 0.9848 0.4307 0.5040
C57_12 C 0.924(3) 0.452(2) 0.5401(11)
H27_12 H 0.9372 0.4389 0.5629
H28_12 H 0.8817 0.4514 0.5397
H29_12 H 0.9373 0.4798 0.5388
C58_12 C 0.912(2) 0.4513(18) 0.4787(11)
H30_12 H 0.9213 0.4412 0.4540
H31_12 H 0.9215 0.4803 0.4804
H32_12 H 0.8712 0.4475 0.4834
N5_13 N 0.9461(18) 0.8222(14) 0.7429(13)
H25_13 H 0.9365 0.8493 0.7421
H26_13 H 0.9848 0.8193 0.7460
C57_13 C 0.924(3) 0.798(2) 0.7099(11)
H27_13 H 0.9372 0.8111 0.6871
H28_13 H 0.8817 0.7986 0.7103
H29_13 H 0.9373 0.7702 0.7112
C58_13 C 0.912(2) 0.7987(18) 0.7713(11)
H30_13 H 0.9213 0.8088 0.7960
H31_13 H 0.9215 0.7697 0.7696
H32_13 H 0.8712 0.8025 0.7666
N5_14 N 0.8039(18) 0.9278(14) 0.7429(13)
H25_14 H 0.8135 0.9007 0.7421
H26_14 H 0.7652 0.9307 0.7460
C57_14 C 0.826(3) 0.952(2) 0.7099(11)
H27_14 H 0.8128 0.9389 0.6871
H28_14 H 0.8683 0.9514 0.7103
H29_14 H 0.8127 0.9798 0.7112
C58_14 C 0.838(2) 0.9513(18) 0.7713(11)
H30_14 H 0.8287 0.9412 0.7960
H31_14 H 0.8285 0.9803 0.7696
H32_14 H 0.8788 0.9475 0.7666
N5_15 N 0.8039(18) 0.8222(14) 0.0071(13)
H25_15 H 0.8135 0.8493 0.0079
H26_15 H 0.7652 0.8193 0.0040
C57_15 C 0.826(3) 0.798(2) 0.0401(11)
H27_15 H 0.8128 0.8111 0.0629
H28_15 H 0.8683 0.7986 0.0397
H29_15 H 0.8127 0.7702 0.0388
C58_15 C 0.838(2) 0.7987(18) 0.9787(11)
H30_15 H 0.8287 0.8088 0.9540
H31_15 H 0.8285 0.7697 0.9804
H32_15 H 0.8788 0.8025 0.9834
N5_16 N 0.9461(18) 0.9278(14) 0.0071(13)
H25_16 H 0.9365 0.9007 0.0079
H26_16 H 0.9848 0.9307 0.0040
C57_16 C 0.924(3) 0.952(2) 0.0401(11)
H27_16 H 0.9372 0.9389 0.0629
H28_16 H 0.8817 0.9514 0.0397
H29_16 H 0.9373 0.9798 0.0388
C58_16 C 0.912(2) 0.9513(18) 0.9787(11)
H30_16 H 0.9213 0.9412 0.9540
H31_16 H 0.9215 0.9803 0.9804
H32_16 H 0.8712 0.9475 0.9834
N5_17 N 0.5539(18) 0.6778(14) 0.2571(13)
H25_17 H 0.5635 0.6507 0.2579
H26_17 H 0.5152 0.6807 0.2540
C57_17 C 0.576(3) 0.702(2) 0.2901(11)
H27_17 H 0.5628 0.6889 0.3129
H28_17 H 0.6183 0.7014 0.2897
H29_17 H 0.5627 0.7298 0.2888
C58_17 C 0.588(2) 0.7013(18) 0.2287(11)
H30_17 H 0.5787 0.6912 0.2040
H31_17 H 0.5785 0.7303 0.2304
H32_17 H 0.6288 0.6975 0.2334
N5_18 N 0.6961(18) 0.5722(14) 0.2571(13)
H25_18 H 0.6865 0.5993 0.2579
H26_18 H 0.7348 0.5693 0.2540
C57_18 C 0.674(3) 0.548(2) 0.2901(11)
H27_18 H 0.6872 0.5611 0.3129
H28_18 H 0.6317 0.5486 0.2897
H29_18 H 0.6873 0.5202 0.2888
C58_18 C 0.662(2) 0.5487(18) 0.2287(11)
H30_18 H 0.6713 0.5588 0.2040
H31_18 H 0.6715 0.5197 0.2304
H32_18 H 0.6212 0.5525 0.2334
C58_19 C 0.662(2) 0.7013(18) 0.0213(11)
H30_19 H 0.6713 0.6912 0.0460
H31_19 H 0.6715 0.7303 0.0196
H32_19 H 0.6212 0.6975 0.0166
N5_19 N 0.6961(18) 0.6778(14) 0.9929(13)
H25_19 H 0.6865 0.6507 0.9921
H26_19 H 0.7348 0.6807 0.9960
C57_19 C 0.674(3) 0.702(2) 0.9599(11)
H27_19 H 0.6872 0.6889 0.9371
H28_19 H 0.6317 0.7014 0.9603
H29_19 H 0.6873 0.7298 0.9612
C58_20 C 0.588(2) 0.5487(18) 0.0213(11)
H30_20 H 0.5787 0.5588 0.0460
H31_20 H 0.5785 0.5197 0.0196
H32_20 H 0.6288 0.5525 0.0166
N5_20 N 0.5539(18) 0.5722(14) 0.9929(13)
H25_20 H 0.5635 0.5993 0.9921
H26_20 H 0.5152 0.5693 0.9960
C57_20 C 0.576(3) 0.548(2) 0.9599(11)
H27_20 H 0.5628 0.5611 0.9371
H28_20 H 0.6183 0.5486 0.9603
H29_20 H 0.5627 0.5202 0.9612
N5_21 N 0.5539(18) 0.1778(14) 0.7571(13)
H25_21 H 0.5635 0.1507 0.7579
H26_21 H 0.5152 0.1807 0.7540
C57_21 C 0.576(3) 0.202(2) 0.7901(11)
H27_21 H 0.5628 0.1889 0.8129
H28_21 H 0.6183 0.2014 0.7897
H29_21 H 0.5627 0.2298 0.7888
C58_21 C 0.588(2) 0.2013(18) 0.7287(11)
H30_21 H 0.5787 0.1912 0.7040
H31_21 H 0.5785 0.2303 0.7304
H32_21 H 0.6288 0.1975 0.7334
N5_22 N 0.6961(18) 0.0722(14) 0.7571(13)
H25_22 H 0.6865 0.0993 0.7579
H26_22 H 0.7348 0.0693 0.7540
C57_22 C 0.674(3) 0.048(2) 0.7901(11)
H27_22 H 0.6872 0.0611 0.8129
H28_22 H 0.6317 0.0486 0.7897
H29_22 H 0.6873 0.0202 0.7888
C58_22 C 0.662(2) 0.0487(18) 0.7287(11)
H30_22 H 0.6713 0.0588 0.7040
H31_22 H 0.6715 0.0197 0.7304
H32_22 H 0.6212 0.0525 0.7334
N5_23 N 0.6961(18) 0.1778(14) 0.4929(13)
H25_23 H 0.6865 0.1507 0.4921
H26_23 H 0.7348 0.1807 0.4960
C57_23 C 0.674(3) 0.202(2) 0.4599(11)
H27_23 H 0.6872 0.1889 0.4371
H28_23 H 0.6317 0.2014 0.4603
H29_23 H 0.6873 0.2298 0.4612
C58_23 C 0.662(2) 0.2013(18) 0.5213(11)
H30_23 H 0.6713 0.1912 0.5460
H31_23 H 0.6715 0.2303 0.5196
H32_23 H 0.6212 0.1975 0.5166
N5_24 N 0.5539(18) 0.0722(14) 0.4929(13)
H25_24 H 0.5635 0.0993 0.4921
H26_24 H 0.5152 0.0693 0.4960
C57_24 C 0.576(3) 0.048(2) 0.4599(11)
H27_24 H 0.5628 0.0611 0.4371
H28_24 H 0.6183 0.0486 0.4603
H29_24 H 0.5627 0.0202 0.4612
C58_24 C 0.588(2) 0.0487(18) 0.5213(11)
H30_24 H 0.5787 0.0588 0.5460
H31_24 H 0.5785 0.0197 0.5196
H32_24 H 0.6288 0.0525 0.5166
N5_25 N 0.0539(18) 0.6778(14) 0.7571(13)
H25_25 H 0.0635 0.6507 0.7579
H26_25 H 0.0152 0.6807 0.7540
C57_25 C 0.076(3) 0.702(2) 0.7901(11)
H27_25 H 0.0628 0.6889 0.8129
H28_25 H 0.1183 0.7014 0.7897
H29_25 H 0.0627 0.7298 0.7888
C58_25 C 0.088(2) 0.7013(18) 0.7287(11)
H30_25 H 0.0787 0.6912 0.7040
H31_25 H 0.0785 0.7303 0.7304
H32_25 H 0.1288 0.6975 0.7334
N5_26 N 0.1961(18) 0.5722(14) 0.7571(13)
H25_26 H 0.1865 0.5993 0.7579
H26_26 H 0.2348 0.5693 0.7540
C57_26 C 0.174(3) 0.548(2) 0.7901(11)
H27_26 H 0.1872 0.5611 0.8129
H28_26 H 0.1317 0.5486 0.7897
H29_26 H 0.1873 0.5202 0.7888
C58_26 C 0.162(2) 0.5487(18) 0.7287(11)
H30_26 H 0.1713 0.5588 0.7040
H31_26 H 0.1715 0.5197 0.7304
H32_26 H 0.1212 0.5525 0.7334
N5_27 N 0.1961(18) 0.6778(14) 0.4929(13)
H25_27 H 0.1865 0.6507 0.4921
H26_27 H 0.2348 0.6807 0.4960
C57_27 C 0.174(3) 0.702(2) 0.4599(11)
H27_27 H 0.1872 0.6889 0.4371
H28_27 H 0.1317 0.7014 0.4603
H29_27 H 0.1873 0.7298 0.4612
C58_27 C 0.162(2) 0.7013(18) 0.5213(11)
H30_27 H 0.1713 0.6912 0.5460
H31_27 H 0.1715 0.7303 0.5196
H32_27 H 0.1212 0.6975 0.5166
N5_28 N 0.0539(18) 0.5722(14) 0.4929(13)
H25_28 H 0.0635 0.5993 0.4921
H26_28 H 0.0152 0.5693 0.4960
C57_28 C 0.076(3) 0.548(2) 0.4599(11)
H27_28 H 0.0628 0.5611 0.4371
H28_28 H 0.1183 0.5486 0.4603
H29_28 H 0.0627 0.5202 0.4612
C58_28 C 0.088(2) 0.5487(18) 0.5213(11)
H30_28 H 0.0787 0.5588 0.5460
H31_28 H 0.0785 0.5197 0.5196
H32_28 H 0.1288 0.5525 0.5166
N5_29 N 0.0539(18) 0.1778(14) 0.2571(13)
H25_29 H 0.0635 0.1507 0.2579
H26_29 H 0.0152 0.1807 0.2540
C57_29 C 0.076(3) 0.202(2) 0.2901(11)
H27_29 H 0.0628 0.1889 0.3129
H28_29 H 0.1183 0.2014 0.2897
H29_29 H 0.0627 0.2298 0.2888
C58_29 C 0.088(2) 0.2013(18) 0.2287(11)
H30_29 H 0.0787 0.1912 0.2040
H31_29 H 0.0785 0.2303 0.2304
H32_29 H 0.1288 0.1975 0.2334
N5_30 N 0.1961(18) 0.0722(14) 0.2571(13)
H25_30 H 0.1865 0.0993 0.2579
H26_30 H 0.2348 0.0693 0.2540
C57_30 C 0.174(3) 0.048(2) 0.2901(11)
H27_30 H 0.1872 0.0611 0.3129
H28_30 H 0.1317 0.0486 0.2897
H29_30 H 0.1873 0.0202 0.2888
C58_30 C 0.162(2) 0.0487(18) 0.2287(11)
H30_30 H 0.1713 0.0588 0.2040
H31_30 H 0.1715 0.0197 0.2304
H32_30 H 0.1212 0.0525 0.2334
C58_31 C 0.162(2) 0.2013(18) 0.0213(11)
H30_31 H 0.1713 0.1912 0.0460
H31_31 H 0.1715 0.2303 0.0196
H32_31 H 0.1212 0.1975 0.0166
N5_31 N 0.1961(18) 0.1778(14) 0.9929(13)
H25_31 H 0.1865 0.1507 0.9921
H26_31 H 0.2348 0.1807 0.9960
C57_31 C 0.174(3) 0.202(2) 0.9599(11)
H27_31 H 0.1872 0.1889 0.9371
H28_31 H 0.1317 0.2014 0.9603
H29_31 H 0.1873 0.2298 0.9612
C58_32 C 0.088(2) 0.0487(18) 0.0213(11)
H30_32 H 0.0787 0.0588 0.0460
H31_32 H 0.0785 0.0197 0.0196
H32_32 H 0.1288 0.0525 0.0166
N5_32 N 0.0539(18) 0.0722(14) 0.9929(13)
H25_32 H 0.0635 0.0993 0.9921
H26_32 H 0.0152 0.0693 0.9960
C57_32 C 0.076(3) 0.048(2) 0.9599(11)
H27_32 H 0.0628 0.0611 0.9371
H28_32 H 0.1183 0.0486 0.9603
H29_32 H 0.0627 0.0202 0.9612
loop_
_geom_bond_atom_site_label_1
_geom_bond_atom_site_label_2
_geom_bond_site_symmetry_1
_geom_bond_site_symmetry_2
In3 O16 1_555 1_555
O16 C36 1_555 1_555
O18 In3 1_555 1_555
C31 H13 1_555 1_555
C36 O18 1_555 1_555
C38 C31 1_555 1_555
C39 C31 1_555 1_555
C40 C38 1_555 1_555
H16 C40 1_555 1_555
N3 C40 1_555 1_555
C41 C39 1_555 1_555
H17 C41 1_555 1_555
O22 In3 1_555 1_555
O24 In3 1_555 1_555
C45 H19 1_555 1_555
C50 O22 1_555 1_555
C52 C45 1_555 1_555
C53 C45 1_555 1_555
C54 C52 1_555 1_555
H22 C54 1_555 1_555
N4 C54 1_555 1_555
C55 C53 1_555 1_555
H23 C55 1_555 1_555
O25 In3 1_555 1_555
O28 In3 1_555 1_555
O29 In3 1_555 1_555
O32 In3 1_555 1_555
C36 C38 1_555 1_555
N3 C41 1_555 1_555
O24 C50 1_555 1_555
C50 C52 1_555 1_555
N4 C55 1_555 1_555
In1 O1 1_555 1_555
In2 O4 1_555 1_555
O1 C6 1_555 1_555
O2 C1 1_555 1_555
O3 C1 1_555 1_555
O4 C8 1_555 1_555
O5 In1 1_555 1_555
O6 In2 1_555 1_555
C1 C5 1_555 1_555
C2 C4 1_555 1_555
C3 H1 1_555 1_555
C4 H2 1_555 1_555
C5 C4 1_555 1_555
C6 O5 1_555 1_555
C7 C9 1_555 1_555
C8 O6 1_555 1_555
C9 C5 1_555 1_555
H3 C9 1_555 1_555
C10 C3 1_555 1_555
C11 C3 1_555 1_555
C12 C10 1_555 1_555
H4 C12 1_555 1_555
N1 C12 1_555 1_555
C13 C11 1_555 1_555
H5 C13 1_555 1_555
C14 C2 1_555 1_555
H6 C14 1_555 1_555
O7 In1 1_555 1_555
O8 C15 1_555 1_555
O9 C15 1_555 1_555
O10 In2 1_555 1_555
O11 In1 1_555 1_555
O12 In2 1_555 1_555
C15 C19 1_555 1_555
C16 C18 1_555 1_555
C17 H7 1_555 1_555
C18 H8 1_555 1_555
C19 C18 1_555 1_555
C20 O7 1_555 1_555
C21 C23 1_555 1_555
C22 O10 1_555 1_555
C23 C19 1_555 1_555
H9 C23 1_555 1_555
C24 C17 1_555 1_555
C25 C17 1_555 1_555
C26 C24 1_555 1_555
H10 C26 1_555 1_555
N2 C26 1_555 1_555
C27 C25 1_555 1_555
H11 C27 1_555 1_555
C28 C16 1_555 1_555
H12 C28 1_555 1_555
O13 In1 1_555 1_555
O14 C29 1_555 1_555
O15 C29 1_555 1_555
O17 In1 1_555 1_555
C29 C33 1_555 1_555
C30 C32 1_555 1_555
C32 H14 1_555 1_555
C33 C32 1_555 1_555
C34 O13 1_555 1_555
C35 C37 1_555 1_555
C37 C33 1_555 1_555
H15 C37 1_555 1_555
C42 C30 1_555 1_555
H18 C42 1_555 1_555
O19 In1 1_555 1_555
O20 C43 1_555 1_555
O21 C43 1_555 1_555
O23 In1 1_555 1_555
C43 C47 1_555 1_555
C44 C46 1_555 1_555
C46 H20 1_555 1_555
C47 C46 1_555 1_555
C48 O19 1_555 1_555
C49 C51 1_555 1_555
C51 C47 1_555 1_555
H21 C51 1_555 1_555
C56 C44 1_555 1_555
H24 C56 1_555 1_555
In4 O8 1_555 1_555
In5 O14 1_555 1_555
In6 O20 1_555 1_555
In7 O2 1_555 1_555
O26 In2 1_555 1_555
O27 In2 1_555 1_555
O30 In2 1_555 1_555
O31 In2 1_555 1_555
O3 In7 1_555 1_555
C2 C6 1_555 1_555
C7 C11 1_555 1_555
C7 C14 1_555 1_555
C8 C10 1_555 1_555
N1 C13 1_555 1_555
O9 In4 1_555 1_555
O11 C20 1_555 1_555
O12 C22 1_555 1_555
C16 C20 1_555 1_555
C21 C25 1_555 1_555
C21 C28 1_555 1_555
C22 C24 1_555 1_555
N2 C27 1_555 1_555
O15 In5 1_555 1_555
O17 C34 1_555 1_555
C30 C34 1_555 1_555
C35 C42 1_555 1_555
O21 In6 1_555 1_555
O23 C48 1_555 1_555
C44 C48 1_555 1_555
C49 C56 1_555 1_555
O8_2 C15_2 1_555 1_555
O9_2 C15_2 1_555 1_555
C15_2 C19_2 1_555 1_555
C23_2 C19_2 1_555 1_555
H9_2 C23_2 1_555 1_555
O20_2 C43_2 1_555 1_555
O21_2 C43_2 1_555 1_555
C43_2 C47_2 1_555 1_555
C51_2 C47_2 1_555 1_555
H21_2 C51_2 1_555 1_555
In4_2 O8_2 1_555 1_555
In6_2 O20_2 1_555 1_555
O9_2 In4_2 1_555 1_555
O21_2 In6_2 1_555 1_555
In1_2 O1_2 1_555 1_555
In2_2 O4_2 1_555 1_555
O1_2 C6_2 1_555 1_555
O2_2 C1_2 1_555 1_555
O3_2 C1_2 1_555 1_555
O4_2 C8_2 1_555 1_555
O5_2 In1_2 1_555 1_555
O6_2 In2_2 1_555 1_555
C1_2 C5_2 1_555 1_555
C2_2 C4_2 1_555 1_555
C3_2 H1_2 1_555 1_555
C4_2 H2_2 1_555 1_555
C5_2 C4_2 1_555 1_555
C6_2 O5_2 1_555 1_555
C7_2 C9_2 1_555 1_555
C8_2 O6_2 1_555 1_555
C9_2 C5_2 1_555 1_555
H3_2 C9_2 1_555 1_555
C10_2 C3_2 1_555 1_555
C11_2 C3_2 1_555 1_555
C12_2 C10_2 1_555 1_555
H4_2 C12_2 1_555 1_555
N1_2 C12_2 1_555 1_555
C13_2 C11_2 1_555 1_555
H5_2 C13_2 1_555 1_555
C14_2 C2_2 1_555 1_555
H6_2 C14_2 1_555 1_555
O7_2 In1_2 1_555 1_555
O10_2 In2_2 1_555 1_555
O11_2 In1_2 1_555 1_555
O12_2 In2_2 1_555 1_555
C16_2 C18_2 1_555 1_555
C17_2 H7_2 1_555 1_555
C20_2 O7_2 1_555 1_555
C22_2 O10_2 1_555 1_555
C24_2 C17_2 1_555 1_555
C25_2 C17_2 1_555 1_555
C26_2 C24_2 1_555 1_555
H10_2 C26_2 1_555 1_555
N2_2 C26_2 1_555 1_555
C27_2 C25_2 1_555 1_555
H11_2 C27_2 1_555 1_555
C28_2 C16_2 1_555 1_555
H12_2 C28_2 1_555 1_555
In3_2 O16_2 1_555 1_555
O13_2 In1_2 1_555 1_555
O14_2 C29_2 1_555 1_555
O15_2 C29_2 1_555 1_555
O16_2 C36_2 1_555 1_555
O17_2 In1_2 1_555 1_555
O18_2 In3_2 1_555 1_555
C29_2 C33_2 1_555 1_555
C30_2 C32_2 1_555 1_555
C31_2 H13_2 1_555 1_555
C32_2 H14_2 1_555 1_555
C33_2 C32_2 1_555 1_555
C34_2 O13_2 1_555 1_555
C35_2 C37_2 1_555 1_555
C36_2 O18_2 1_555 1_555
C37_2 C33_2 1_555 1_555
H15_2 C37_2 1_555 1_555
C38_2 C31_2 1_555 1_555
C39_2 C31_2 1_555 1_555
C40_2 C38_2 1_555 1_555
H16_2 C40_2 1_555 1_555
N3_2 C40_2 1_555 1_555
C41_2 C39_2 1_555 1_555
H17_2 C41_2 1_555 1_555
C42_2 C30_2 1_555 1_555
H18_2 C42_2 1_555 1_555
O19_2 In1_2 1_555 1_555
O22_2 In3_2 1_555 1_555
O23_2 In1_2 1_555 1_555
O24_2 In3_2 1_555 1_555
C44_2 C46_2 1_555 1_555
C45_2 H19_2 1_555 1_555
C48_2 O19_2 1_555 1_555
C50_2 O22_2 1_555 1_555
C52_2 C45_2 1_555 1_555
C53_2 C45_2 1_555 1_555
C54_2 C52_2 1_555 1_555
H22_2 C54_2 1_555 1_555
N4_2 C54_2 1_555 1_555
C55_2 C53_2 1_555 1_555
H23_2 C55_2 1_555 1_555
C56_2 C44_2 1_555 1_555
H24_2 C56_2 1_555 1_555
In5_2 O14_2 1_555 1_555
In7_2 O2_2 1_555 1_555
O25_2 In3_2 1_555 1_555
O26_2 In2_2 1_555 1_555
O27_2 In2_2 1_555 1_555
O28_2 In3_2 1_555 1_555
O29_2 In3_2 1_555 1_555
O30_2 In2_2 1_555 1_555
O31_2 In2_2 1_555 1_555
O32_2 In3_2 1_555 1_555
O3_2 In7_2 1_555 1_555
C2_2 C6_2 1_555 1_555
C7_2 C11_2 1_555 1_555
C7_2 C14_2 1_555 1_555
C8_2 C10_2 1_555 1_555
N1_2 C13_2 1_555 1_555
O11_2 C20_2 1_555 1_555
O12_2 C22_2 1_555 1_555
C16_2 C20_2 1_555 1_555
C21_2 C25_2 1_555 1_555
C21_2 C28_2 1_555 1_555
C22_2 C24_2 1_555 1_555
N2_2 C27_2 1_555 1_555
O15_2 In5_2 1_555 1_555
O17_2 C34_2 1_555 1_555
C30_2 C34_2 1_555 1_555
C35_2 C39_2 1_555 1_555
C35_2 C42_2 1_555 1_555
C36_2 C38_2 1_555 1_555
N3_2 C41_2 1_555 1_555
O23_2 C48_2 1_555 1_555
O24_2 C50_2 1_555 1_555
C44_2 C48_2 1_555 1_555
C49_2 C53_2 1_555 1_555
C49_2 C56_2 1_555 1_555
C50_2 C52_2 1_555 1_555
N4_2 C55_2 1_555 1_555
O8_3 C15_3 1_555 1_555
O9_3 C15_3 1_555 1_555
C15_3 C19_3 1_555 1_555
C18_3 H8_3 1_555 1_555
C19_3 C18_3 1_555 1_555
C21_3 C23_3 1_555 1_555
C23_3 C19_3 1_555 1_555
H9_3 C23_3 1_555 1_555
C24_3 C17_3 1_555 1_555
C25_3 C17_3 1_555 1_555
C26_3 C24_3 1_555 1_555
H10_3 C26_3 1_555 1_555
N2_3 C26_3 1_555 1_555
C27_3 C25_3 1_555 1_555
H11_3 C27_3 1_555 1_555
O14_3 C29_3 1_555 1_555
O15_3 C29_3 1_555 1_555
C29_3 C33_3 1_555 1_555
C32_3 H14_3 1_555 1_555
C33_3 C32_3 1_555 1_555
C35_3 C37_3 1_555 1_555
C37_3 C33_3 1_555 1_555
H15_3 C37_3 1_555 1_555
C38_3 C31_3 1_555 1_555
C39_3 C31_3 1_555 1_555
C40_3 C38_3 1_555 1_555
H16_3 C40_3 1_555 1_555
N3_3 C40_3 1_555 1_555
C41_3 C39_3 1_555 1_555
H17_3 C41_3 1_555 1_555
In7_2 O8_3 1_555 1_555
In6_2 O14_3 1_555 1_555
O9_3 In7_2 1_555 1_555
C21_3 C25_3 1_555 1_555
C21_3 C28_3 1_555 1_555
N2_3 C27_3 1_555 1_555
O15_3 In6_2 1_555 1_555
C35_3 C39_3 1_555 1_555
C35_3 C42_3 1_555 1_555
N3_3 C41_3 1_555 1_555
In1_3 O1_3 1_555 1_555
In2_3 O4_3 1_555 1_555
O1_3 C6_3 1_555 1_555
O2_3 C1_3 1_555 1_555
O3_3 C1_3 1_555 1_555
O4_3 C8_3 1_555 1_555
O5_3 In1_3 1_555 1_555
O6_3 In2_3 1_555 1_555
C1_3 C5_3 1_555 1_555
C2_3 C4_3 1_555 1_555
C3_3 H1_3 1_555 1_555
C4_3 H2_3 1_555 1_555
C5_3 C4_3 1_555 1_555
C6_3 O5_3 1_555 1_555
C7_3 C9_3 1_555 1_555
C8_3 O6_3 1_555 1_555
C9_3 C5_3 1_555 1_555
H3_3 C9_3 1_555 1_555
C10_3 C3_3 1_555 1_555
C11_3 C3_3 1_555 1_555
C12_3 C10_3 1_555 1_555
H4_3 C12_3 1_555 1_555
N1_3 C12_3 1_555 1_555
C13_3 C11_3 1_555 1_555
H5_3 C13_3 1_555 1_555
C14_3 C2_3 1_555 1_555
H6_3 C14_3 1_555 1_555
O7_3 In1_3 1_555 1_555
O10_3 In2_3 1_555 1_555
O11_3 In1_3 1_555 1_555
O12_3 In2_3 1_555 1_555
C20_3 O7_3 1_555 1_555
C22_3 O10_3 1_555 1_555
In3_3 O16_3 1_555 1_555
O13_3 In1_3 1_555 1_555
O16_3 C36_3 1_555 1_555
O17_3 In1_3 1_555 1_555
O18_3 In3_3 1_555 1_555
C34_3 O13_3 1_555 1_555
C36_3 O18_3 1_555 1_555
O19_3 In1_3 1_555 1_555
O20_3 C43_3 1_555 1_555
O21_3 C43_3 1_555 1_555
O22_3 In3_3 1_555 1_555
O23_3 In1_3 1_555 1_555
O24_3 In3_3 1_555 1_555
C43_3 C47_3 1_555 1_555
C44_3 C46_3 1_555 1_555
C45_3 H19_3 1_555 1_555
C46_3 H20_3 1_555 1_555
C47_3 C46_3 1_555 1_555
C48_3 O19_3 1_555 1_555
C49_3 C51_3 1_555 1_555
C50_3 O22_3 1_555 1_555
C51_3 C47_3 1_555 1_555
H21_3 C51_3 1_555 1_555
C52_3 C45_3 1_555 1_555
C53_3 C45_3 1_555 1_555
C54_3 C52_3 1_555 1_555
H22_3 C54_3 1_555 1_555
N4_3 C54_3 1_555 1_555
C55_3 C53_3 1_555 1_555
H23_3 C55_3 1_555 1_555
C56_3 C44_3 1_555 1_555
H24_3 C56_3 1_555 1_555
In5_2 O20_3 1_555 1_555
In4_2 O2_3 1_555 1_555
O25_3 In3_3 1_555 1_555
O26_3 In2_3 1_555 1_555
O27_3 In2_3 1_555 1_555
O28_3 In3_3 1_555 1_555
O29_3 In3_3 1_555 1_555
O30_3 In2_3 1_555 1_555
O31_3 In2_3 1_555 1_555
O32_3 In3_3 1_555 1_555
O3_3 In4_2 1_555 1_555
C2_3 C6_3 1_555 1_555
C7_3 C11_3 1_555 1_555
C7_3 C14_3 1_555 1_555
C8_3 C10_3 1_555 1_555
N1_3 C13_3 1_555 1_555
O11_3 C20_3 1_555 1_555
O12_3 C22_3 1_555 1_555
C16_3 C20_3 1_555 1_555
O17_3 C34_3 1_555 1_555
C30_3 C34_3 1_555 1_555
O21_3 In5_2 1_555 1_555
O23_3 C48_3 1_555 1_555
O24_3 C50_3 1_555 1_555
C44_3 C48_3 1_555 1_555
C49_3 C53_3 1_555 1_555
C49_3 C56_3 1_555 1_555
C50_3 C52_3 1_555 1_555
N4_3 C55_3 1_555 1_555
O8_4 C15_4 1_555 1_555
O9_4 C15_4 1_555 1_555
C15_4 C19_4 1_555 1_555
C23_4 C19_4 1_555 1_555
H9_4 C23_4 1_555 1_555
In7 O8_4 1_555 1_555
O9_4 In7 1_555 1_555
C24_4 C17_4 1_555 1_555
C25_4 C17_4 1_555 1_555
C26_4 C24_4 1_555 1_555
H10_4 C26_4 1_555 1_555
N2_4 C26_4 1_555 1_555
C27_4 C25_4 1_555 1_555
H11_4 C27_4 1_555 1_555
O14_4 C29_4 1_555 1_555
O15_4 C29_4 1_555 1_555
C29_4 C33_4 1_555 1_555
C32_4 H14_4 1_555 1_555
C33_4 C32_4 1_555 1_555
C35_4 C37_4 1_555 1_555
C37_4 C33_4 1_555 1_555
H15_4 C37_4 1_555 1_555
In6 O14_4 1_555 1_555
C21_4 C25_4 1_555 1_555
C21_4 C28_4 1_555 1_555
N2_4 C27_4 1_555 1_555
O15_4 In6 1_555 1_555
C35_4 C42_4 1_555 1_555
O20_4 C43_4 1_555 1_555
O21_4 C43_4 1_555 1_555
C43_4 C47_4 1_555 1_555
C51_4 C47_4 1_555 1_555
H21_4 C51_4 1_555 1_555
In5 O20_4 1_555 1_555
O21_4 In5 1_555 1_555
In3_4 O16_4 1_555 1_555
O16_4 C36_4 1_555 1_555
O18_4 In3_4 1_555 1_555
C36_4 O18_4 1_555 1_555
O22_4 In3_4 1_555 1_555
O24_4 In3_4 1_555 1_555
C45_4 H19_4 1_555 1_555
C50_4 O22_4 1_555 1_555
C52_4 C45_4 1_555 1_555
C53_4 C45_4 1_555 1_555
C54_4 C52_4 1_555 1_555
H22_4 C54_4 1_555 1_555
N4_4 C54_4 1_555 1_555
C55_4 C53_4 1_555 1_555
H23_4 C55_4 1_555 1_555
O25_4 In3_4 1_555 1_555
O28_4 In3_4 1_555 1_555
O29_4 In3_4 1_555 1_555
O32_4 In3_4 1_555 1_555
O24_4 C50_4 1_555 1_555
C50_4 C52_4 1_555 1_555
N4_4 C55_4 1_555 1_555
In1_4 O1_4 1_555 1_555
In2_4 O4_4 1_555 1_555
O1_4 C6_4 1_555 1_555
O2_4 C1_4 1_555 1_555
O3_4 C1_4 1_555 1_555
O4_4 C8_4 1_555 1_555
O5_4 In1_4 1_555 1_555
O6_4 In2_4 1_555 1_555
C1_4 C5_4 1_555 1_555
C2_4 C4_4 1_555 1_555
C3_4 H1_4 1_555 1_555
C4_4 H2_4 1_555 1_555
C5_4 C4_4 1_555 1_555
C6_4 O5_4 1_555 1_555
C7_4 C9_4 1_555 1_555
C8_4 O6_4 1_555 1_555
C9_4 C5_4 1_555 1_555
H3_4 C9_4 1_555 1_555
C10_4 C3_4 1_555 1_555
C11_4 C3_4 1_555 1_555
C12_4 C10_4 1_555 1_555
H4_4 C12_4 1_555 1_555
N1_4 C12_4 1_555 1_555
C13_4 C11_4 1_555 1_555
H5_4 C13_4 1_555 1_555
C14_4 C2_4 1_555 1_555
H6_4 C14_4 1_555 1_555
O7_4 In1_4 1_555 1_555
O10_4 In2_4 1_555 1_555
O11_4 In1_4 1_555 1_555
O12_4 In2_4 1_555 1_555
C20_4 O7_4 1_555 1_555
C22_4 O10_4 1_555 1_555
O13_4 In1_4 1_555 1_555
O17_4 In1_4 1_555 1_555
C34_4 O13_4 1_555 1_555
O19_4 In1_4 1_555 1_555
O23_4 In1_4 1_555 1_555
C44_4 C46_4 1_555 1_555
C48_4 O19_4 1_555 1_555
C56_4 C44_4 1_555 1_555
H24_4 C56_4 1_555 1_555
In4 O2_4 1_555 1_555
O26_4 In2_4 1_555 1_555
O27_4 In2_4 1_555 1_555
O30_4 In2_4 1_555 1_555
O31_4 In2_4 1_555 1_555
O3_4 In4 1_555 1_555
C2_4 C6_4 1_555 1_555
C7_4 C11_4 1_555 1_555
C7_4 C14_4 1_555 1_555
C8_4 C10_4 1_555 1_555
N1_4 C13_4 1_555 1_555
O11_4 C20_4 1_555 1_555
O12_4 C22_4 1_555 1_555
C16_4 C20_4 1_555 1_555
O17_4 C34_4 1_555 1_555
C30_4 C34_4 1_555 1_555
O23_4 C48_4 1_555 1_555
C44_4 C48_4 1_555 1_555
C49_4 C56_4 1_555 1_555
In1_5 O1_5 1_555 1_555
In5_2 O4_5 1_555 1_555
O1_5 C6_5 1_555 1_555
O28_4 C1_5 1_555 1_555
O32_4 C1_5 1_555 1_555
O4_5 C8_5 1_555 1_555
O5_5 In1_5 1_555 1_555
O6_5 In5_2 1_555 1_555
C1_5 C5_5 1_555 1_555
C2_5 C4_5 1_555 1_555
C3_5 H1_5 1_555 1_555
C4_5 H2_5 1_555 1_555
C5_5 C4_5 1_555 1_555
C6_5 O5_5 1_555 1_555
C7_5 C9_5 1_555 1_555
C8_5 O6_5 1_555 1_555
C9_5 C5_5 1_555 1_555
H3_5 C9_5 1_555 1_555
C10_5 C3_5 1_555 1_555
C11_5 C3_5 1_555 1_555
C12_5 C10_5 1_555 1_555
H4_5 C12_5 1_555 1_555
N1_5 C12_5 1_555 1_555
C13_5 C11_5 1_555 1_555
H5_5 C13_5 1_555 1_555
C14_5 C2_5 1_555 1_555
H6_5 C14_5 1_555 1_555
O7_5 In1_5 1_555 1_555
O25 C15_5 1_555 1_555
O29 C15_5 1_555 1_555
O10_5 In5_2 1_555 1_555
O11_5 In1_5 1_555 1_555
O12_5 In5_2 1_555 1_555
C15_5 C19_5 1_555 1_555
C16_5 C18_5 1_555 1_555
C17_5 H7_5 1_555 1_555
C18_5 H8_5 1_555 1_555
C19_5 C18_5 1_555 1_555
C20_5 O7_5 1_555 1_555
C21_5 C23_5 1_555 1_555
C22_5 O10_5 1_555 1_555
C23_5 C19_5 1_555 1_555
H9_5 C23_5 1_555 1_555
C24_5 C17_5 1_555 1_555
C25_5 C17_5 1_555 1_555
C26_5 C24_5 1_555 1_555
H10_5 C26_5 1_555 1_555
N2_5 C26_5 1_555 1_555
C27_5 C25_5 1_555 1_555
H11_5 C27_5 1_555 1_555
C28_5 C16_5 1_555 1_555
H12_5 C28_5 1_555 1_555
O13_5 In1_5 1_555 1_555
O26_2 C29_5 1_555 1_555
O30_2 C29_5 1_555 1_555
O17_5 In1_5 1_555 1_555
C29_5 C33_5 1_555 1_555
C30_5 C32_5 1_555 1_555
C32_5 H14_5 1_555 1_555
C33_5 C32_5 1_555 1_555
C34_5 O13_5 1_555 1_555
C35_5 C37_5 1_555 1_555
C37_5 C33_5 1_555 1_555
H15_5 C37_5 1_555 1_555
C42_5 C30_5 1_555 1_555
H18_5 C42_5 1_555 1_555
O19_5 In1_5 1_555 1_555
O27_3 C43_5 1_555 1_555
O31_3 C43_5 1_555 1_555
O23_5 In1_5 1_555 1_555
C43_5 C47_5 1_555 1_555
C44_5 C46_5 1_555 1_555
C46_5 H20_5 1_555 1_555
C47_5 C46_5 1_555 1_555
C48_5 O19_5 1_555 1_555
C49_5 C51_5 1_555 1_555
C51_5 C47_5 1_555 1_555
H21_5 C51_5 1_555 1_555
C56_5 C44_5 1_555 1_555
H24_5 C56_5 1_555 1_555
C2_5 C6_5 1_555 1_555
C7_5 C11_5 1_555 1_555
C7_5 C14_5 1_555 1_555
C8_5 C10_5 1_555 1_555
N1_5 C13_5 1_555 1_555
O11_5 C20_5 1_555 1_555
O12_5 C22_5 1_555 1_555
C16_5 C20_5 1_555 1_555
C21_5 C25_5 1_555 1_555
C21_5 C28_5 1_555 1_555
C22_5 C24_5 1_555 1_555
N2_5 C27_5 1_555 1_555
O17_5 C34_5 1_555 1_555
C30_5 C34_5 1_555 1_555
C35_5 C42_5 1_555 1_555
O23_5 C48_5 1_555 1_555
C44_5 C48_5 1_555 1_555
C49_5 C56_5 1_555 1_555
In4 O16_5 1_555 1_555
O16_5 C36_5 1_555 1_555
O18_5 In4 1_555 1_555
C31_4 H13_5 1_555 1_555
C36_5 O18_5 1_555 1_555
C38_4 C31_4 1_555 1_555
C39_4 C31_4 1_555 1_555
C40_4 C38_4 1_555 1_555
H16_4 C40_4 1_555 1_555
N3_4 C40_4 1_555 1_555
C41_4 C39_4 1_555 1_555
H17_4 C41_4 1_555 1_555
O22_5 In4 1_555 1_555
O24_5 In4 1_555 1_555
C45_5 H19_5 1_555 1_555
C50_5 O22_5 1_555 1_555
C52_5 C45_5 1_555 1_555
C53_5 C45_5 1_555 1_555
C54_5 C52_5 1_555 1_555
H22_5 C54_5 1_555 1_555
N4_5 C54_5 1_555 1_555
C55_5 C53_5 1_555 1_555
H23_5 C55_5 1_555 1_555
C36_5 C38_4 1_555 1_555
N3_4 C41_4 1_555 1_555
O24_5 C50_5 1_555 1_555
C50_5 C52_5 1_555 1_555
N4_5 C55_5 1_555 1_555
In1_6 O1_6 1_555 1_555
In5 O4_6 1_555 1_555
O1_6 C6_6 1_555 1_555
O28_3 C1_6 1_555 1_555
O32_3 C1_6 1_555 1_555
O4_6 C8_6 1_555 1_555
O5_6 In1_6 1_555 1_555
O6_6 In5 1_555 1_555
C1_6 C5_6 1_555 1_555
C2_6 C4_6 1_555 1_555
C3_6 H1_6 1_555 1_555
C4_6 H2_6 1_555 1_555
C5_6 C4_6 1_555 1_555
C6_6 O5_6 1_555 1_555
C7_6 C9_6 1_555 1_555
C8_6 O6_6 1_555 1_555
C9_6 C5_6 1_555 1_555
H3_6 C9_6 1_555 1_555
C10_6 C3_6 1_555 1_555
C11_6 C3_6 1_555 1_555
C12_6 C10_6 1_555 1_555
H4_6 C12_6 1_555 1_555
N1_6 C12_6 1_555 1_555
C13_6 C11_6 1_555 1_555
H5_6 C13_6 1_555 1_555
C14_6 C2_6 1_555 1_555
H6_6 C14_6 1_555 1_555
O7_6 In1_6 1_555 1_555
O10_6 In5 1_555 1_555
O11_6 In1_6 1_555 1_555
O12_6 In5 1_555 1_555
C16_6 C18_6 1_555 1_555
C17_6 H7_6 1_555 1_555
C20_6 O7_6 1_555 1_555
C22_6 O10_6 1_555 1_555
C24_6 C17_6 1_555 1_555
C25_6 C17_6 1_555 1_555
C26_6 C24_6 1_555 1_555
H10_6 C26_6 1_555 1_555
N2_6 C26_6 1_555 1_555
C27_6 C25_6 1_555 1_555
H11_6 C27_6 1_555 1_555
C28_6 C16_6 1_555 1_555
H12_6 C28_6 1_555 1_555
In4_2 O16_6 1_555 1_555
O13_6 In1_6 1_555 1_555
O26 C29_6 1_555 1_555
O30 C29_6 1_555 1_555
O16_6 C36_6 1_555 1_555
O17_6 In1_6 1_555 1_555
O18_6 In4_2 1_555 1_555
C29_6 C33_6 1_555 1_555
C30_6 C32_6 1_555 1_555
C31_5 H13_6 1_555 1_555
C32_6 H14_6 1_555 1_555
C33_6 C32_6 1_555 1_555
C34_6 O13_6 1_555 1_555
C35_6 C37_6 1_555 1_555
C36_6 O18_6 1_555 1_555
C37_6 C33_6 1_555 1_555
H15_6 C37_6 1_555 1_555
C38_5 C31_5 1_555 1_555
C39_5 C31_5 1_555 1_555
C40_5 C38_5 1_555 1_555
H16_5 C40_5 1_555 1_555
N3_5 C40_5 1_555 1_555
C41_5 C39_5 1_555 1_555
H17_5 C41_5 1_555 1_555
C42_6 C30_6 1_555 1_555
H18_6 C42_6 1_555 1_555
O19_6 In1_6 1_555 1_555
O22_6 In4_2 1_555 1_555
O23_6 In1_6 1_555 1_555
O24_6 In4_2 1_555 1_555
C44_6 C46_6 1_555 1_555
C45_6 H19_6 1_555 1_555
C48_6 O19_6 1_555 1_555
C50_6 O22_6 1_555 1_555
C52_6 C45_6 1_555 1_555
C53_6 C45_6 1_555 1_555
C54_6 C52_6 1_555 1_555
H22_6 C54_6 1_555 1_555
N4_6 C54_6 1_555 1_555
C55_6 C53_6 1_555 1_555
H23_6 C55_6 1_555 1_555
C56_6 C44_6 1_555 1_555
H24_6 C56_6 1_555 1_555
C2_6 C6_6 1_555 1_555
C7_6 C11_6 1_555 1_555
C7_6 C14_6 1_555 1_555
C8_6 C10_6 1_555 1_555
N1_6 C13_6 1_555 1_555
O11_6 C20_6 1_555 1_555
O12_6 C22_6 1_555 1_555
C16_6 C20_6 1_555 1_555
C21_6 C25_6 1_555 1_555
C21_6 C28_6 1_555 1_555
C22_6 C24_6 1_555 1_555
N2_6 C27_6 1_555 1_555
O17_6 C34_6 1_555 1_555
C30_6 C34_6 1_555 1_555
C35_6 C39_5 1_555 1_555
C35_6 C42_6 1_555 1_555
C36_6 C38_5 1_555 1_555
N3_5 C41_5 1_555 1_555
O23_6 C48_6 1_555 1_555
O24_6 C50_6 1_555 1_555
C44_6 C48_6 1_555 1_555
C49_6 C53_6 1_555 1_555
C49_6 C56_6 1_555 1_555
C50_6 C52_6 1_555 1_555
N4_6 C55_6 1_555 1_555
O25_2 C15_6 1_555 1_555
O29_2 C15_6 1_555 1_555
C15_6 C19_6 1_555 1_555
C23_6 C19_6 1_555 1_555
H9_6 C23_6 1_555 1_555
O27_4 C43_6 1_555 1_555
O31_4 C43_6 1_555 1_555
C43_6 C47_6 1_555 1_555
C51_6 C47_6 1_555 1_555
H21_6 C51_6 1_555 1_555
In1_7 O1_7 1_555 1_555
In6 O4_7 1_555 1_555
O1_7 C6_7 1_555 1_555
O28_2 C1_7 1_555 1_555
O32_2 C1_7 1_555 1_555
O4_7 C8_7 1_555 1_555
O5_7 In1_7 1_555 1_555
O6_7 In6 1_555 1_555
C1_7 C5_7 1_555 1_555
C2_7 C4_7 1_555 1_555
C3_7 H1_7 1_555 1_555
C4_7 H2_7 1_555 1_555
C5_7 C4_7 1_555 1_555
C6_7 O5_7 1_555 1_555
C7_7 C9_7 1_555 1_555
C8_7 O6_7 1_555 1_555
C9_7 C5_7 1_555 1_555
H3_7 C9_7 1_555 1_555
C10_7 C3_7 1_555 1_555
C11_7 C3_7 1_555 1_555
C12_7 C10_7 1_555 1_555
H4_7 C12_7 1_555 1_555
N1_7 C12_7 1_555 1_555
C13_7 C11_7 1_555 1_555
H5_7 C13_7 1_555 1_555
C14_7 C2_7 1_555 1_555
H6_7 C14_7 1_555 1_555
O7_7 In1_7 1_555 1_555
O10_7 In6 1_555 1_555
O11_7 In1_7 1_555 1_555
O12_7 In6 1_555 1_555
C20_7 O7_7 1_555 1_555
C22_7 O10_7 1_555 1_555
In7_2 O16_7 1_555 1_555
O13_7 In1_7 1_555 1_555
O16_7 C36_7 1_555 1_555
O17_7 In1_7 1_555 1_555
O18_7 In7_2 1_555 1_555
C34_7 O13_7 1_555 1_555
C36_7 O18_7 1_555 1_555
O19_7 In1_7 1_555 1_555
O27 C43_7 1_555 1_555
O31 C43_7 1_555 1_555
O22_7 In7_2 1_555 1_555
O23_7 In1_7 1_555 1_555
O24_7 In7_2 1_555 1_555
C43_7 C47_7 1_555 1_555
C44_7 C46_7 1_555 1_555
C45_7 H19_7 1_555 1_555
C46_7 H20_7 1_555 1_555
C47_7 C46_7 1_555 1_555
C48_7 O19_7 1_555 1_555
C49_7 C51_7 1_555 1_555
C50_7 O22_7 1_555 1_555
C51_7 C47_7 1_555 1_555
H21_7 C51_7 1_555 1_555
C52_7 C45_7 1_555 1_555
C53_7 C45_7 1_555 1_555
C54_7 C52_7 1_555 1_555
H22_7 C54_7 1_555 1_555
N4_7 C54_7 1_555 1_555
C55_7 C53_7 1_555 1_555
H23_7 C55_7 1_555 1_555
C56_7 C44_7 1_555 1_555
H24_7 C56_7 1_555 1_555
C2_7 C6_7 1_555 1_555
C7_7 C11_7 1_555 1_555
C7_7 C14_7 1_555 1_555
C8_7 C10_7 1_555 1_555
N1_7 C13_7 1_555 1_555
O11_7 C20_7 1_555 1_555
O12_7 C22_7 1_555 1_555
C16_7 C20_7 1_555 1_555
O17_7 C34_7 1_555 1_555
C30_7 C34_7 1_555 1_555
O23_7 C48_7 1_555 1_555
O24_7 C50_7 1_555 1_555
C44_7 C48_7 1_555 1_555
C49_7 C53_7 1_555 1_555
C49_7 C56_7 1_555 1_555
C50_7 C52_7 1_555 1_555
N4_7 C55_7 1_555 1_555
O25_3 C15_7 1_555 1_555
O29_3 C15_7 1_555 1_555
C15_7 C19_7 1_555 1_555
C18_7 H8_7 1_555 1_555
C19_7 C18_7 1_555 1_555
C21_7 C23_7 1_555 1_555
C23_7 C19_7 1_555 1_555
H9_7 C23_7 1_555 1_555
C24_7 C17_7 1_555 1_555
C25_7 C17_7 1_555 1_555
C26_7 C24_7 1_555 1_555
H10_7 C26_7 1_555 1_555
N2_7 C26_7 1_555 1_555
C27_7 C25_7 1_555 1_555
H11_7 C27_7 1_555 1_555
O26_4 C29_7 1_555 1_555
O30_4 C29_7 1_555 1_555
C29_7 C33_7 1_555 1_555
C32_7 H14_7 1_555 1_555
C33_7 C32_7 1_555 1_555
C35_7 C37_7 1_555 1_555
C37_7 C33_7 1_555 1_555
H15_7 C37_7 1_555 1_555
C38_6 C31_6 1_555 1_555
C39_6 C31_6 1_555 1_555
C40_6 C38_6 1_555 1_555
H16_6 C40_6 1_555 1_555
N3_6 C40_6 1_555 1_555
C41_6 C39_6 1_555 1_555
H17_6 C41_6 1_555 1_555
C21_7 C25_7 1_555 1_555
C21_7 C28_7 1_555 1_555
N2_7 C27_7 1_555 1_555
C35_7 C39_6 1_555 1_555
C35_7 C42_7 1_555 1_555
N3_6 C41_6 1_555 1_555
In1_8 O1_8 1_555 1_555
In6_2 O4_8 1_555 1_555
O1_8 C6_8 1_555 1_555
O28 C1_8 1_555 1_555
O32 C1_8 1_555 1_555
O4_8 C8_8 1_555 1_555
O5_8 In1_8 1_555 1_555
O6_8 In6_2 1_555 1_555
C1_8 C5_8 1_555 1_555
C2_8 C4_8 1_555 1_555
C3_8 H1_8 1_555 1_555
C4_8 H2_8 1_555 1_555
C5_8 C4_8 1_555 1_555
C6_8 O5_8 1_555 1_555
C7_8 C9_8 1_555 1_555
C8_8 O6_8 1_555 1_555
C9_8 C5_8 1_555 1_555
H3_8 C9_8 1_555 1_555
C10_8 C3_8 1_555 1_555
C11_8 C3_8 1_555 1_555
C12_8 C10_8 1_555 1_555
H4_8 C12_8 1_555 1_555
N1_8 C12_8 1_555 1_555
C13_8 C11_8 1_555 1_555
H5_8 C13_8 1_555 1_555
C14_8 C2_8 1_555 1_555
H6_8 C14_8 1_555 1_555
O7_8 In1_8 1_555 1_555
O10_8 In6_2 1_555 1_555
O11_8 In1_8 1_555 1_555
O12_8 In6_2 1_555 1_555
C20_8 O7_8 1_555 1_555
C22_8 O10_8 1_555 1_555
O13_8 In1_8 1_555 1_555
O17_8 In1_8 1_555 1_555
C34_8 O13_8 1_555 1_555
O19_8 In1_8 1_555 1_555
O23_8 In1_8 1_555 1_555
C44_8 C46_8 1_555 1_555
C48_8 O19_8 1_555 1_555
C56_8 C44_8 1_555 1_555
H24_8 C56_8 1_555 1_555
C2_8 C6_8 1_555 1_555
C7_8 C11_8 1_555 1_555
C7_8 C14_8 1_555 1_555
C8_8 C10_8 1_555 1_555
N1_8 C13_8 1_555 1_555
O11_8 C20_8 1_555 1_555
O12_8 C22_8 1_555 1_555
C16_8 C20_8 1_555 1_555
O17_8 C34_8 1_555 1_555
C30_8 C34_8 1_555 1_555
O23_8 C48_8 1_555 1_555
C44_8 C48_8 1_555 1_555
C49_8 C56_8 1_555 1_555
In7 O16_8 1_555 1_555
O16_8 C36_8 1_555 1_555
O18_8 In7 1_555 1_555
C36_8 O18_8 1_555 1_555
O22_8 In7 1_555 1_555
O24_8 In7 1_555 1_555
C45_8 H19_8 1_555 1_555
C50_8 O22_8 1_555 1_555
C52_8 C45_8 1_555 1_555
C53_8 C45_8 1_555 1_555
C54_8 C52_8 1_555 1_555
H22_8 C54_8 1_555 1_555
N4_8 C54_8 1_555 1_555
C55_8 C53_8 1_555 1_555
H23_8 C55_8 1_555 1_555
O24_8 C50_8 1_555 1_555
C50_8 C52_8 1_555 1_555
N4_8 C55_8 1_555 1_555
O27_2 C43_8 1_555 1_555
O31_2 C43_8 1_555 1_555
C43_8 C47_8 1_555 1_555
C51_8 C47_8 1_555 1_555
H21_8 C51_8 1_555 1_555
C24_8 C17_8 1_555 1_555
C25_8 C17_8 1_555 1_555
C26_8 C24_8 1_555 1_555
H10_8 C26_8 1_555 1_555
N2_8 C26_8 1_555 1_555
C27_8 C25_8 1_555 1_555
H11_8 C27_8 1_555 1_555
O26_3 C29_8 1_555 1_555
O30_3 C29_8 1_555 1_555
C29_8 C33_8 1_555 1_555
C32_8 H14_8 1_555 1_555
C33_8 C32_8 1_555 1_555
C35_8 C37_8 1_555 1_555
C37_8 C33_8 1_555 1_555
H15_8 C37_8 1_555 1_555
C21_8 C25_8 1_555 1_555
C21_8 C28_8 1_555 1_555
N2_8 C27_8 1_555 1_555
C35_8 C42_8 1_555 1_555
O25_4 C15_8 1_555 1_555
O29_4 C15_8 1_555 1_555
C15_8 C19_8 1_555 1_555
C23_8 C19_8 1_555 1_555
H9_8 C23_8 1_555 1_555
C38_7 C31_7 1_555 1_555
C39_7 C31_7 1_555 1_555
C40_7 C38_7 1_555 1_555
H16_7 C40_7 1_555 1_555
N3_7 C40_7 1_555 1_555
C41_7 C39_7 1_555 1_555
H17_7 C41_7 1_555 1_555
N3_7 C41_7 1_555 1_555
C38_8 C31_8 1_555 1_555
C39_8 C31_8 1_555 1_555
C40_8 C38_8 1_555 1_555
H16_8 C40_8 1_555 1_555
N3_8 C40_8 1_555 1_555
C41_8 C39_8 1_555 1_555
H17_8 C41_8 1_555 1_555
N3_8 C41_8 1_555 1_555
N5 H25 1_555 1_555
H26 N5 1_555 1_555
C57 N5 1_555 1_555
H27 C57 1_555 1_555
H28 C57 1_555 1_555
H29 C57 1_555 1_555
C58 N5 1_555 1_555
H30 C58 1_555 1_555
H31 C58 1_555 1_555
H32 C58 1_555 1_555
N5_2 H25_2 1_555 1_555
H26_2 N5_2 1_555 1_555
C57_2 N5_2 1_555 1_555
H27_2 C57_2 1_555 1_555
H28_2 C57_2 1_555 1_555
H29_2 C57_2 1_555 1_555
C58_2 N5_2 1_555 1_555
H30_2 C58_2 1_555 1_555
H31_2 C58_2 1_555 1_555
H32_2 C58_2 1_555 1_555
N5_3 H25_3 1_555 1_555
H26_3 N5_3 1_555 1_555
C57_3 N5_3 1_555 1_555
H27_3 C57_3 1_555 1_555
H28_3 C57_3 1_555 1_555
H29_3 C57_3 1_555 1_555
H30_3 C58_3 1_555 1_555
H31_3 C58_3 1_555 1_555
H32_3 C58_3 1_555 1_555
N5_4 H25_4 1_555 1_555
H26_4 N5_4 1_555 1_555
C57_4 N5_4 1_555 1_555
H27_4 C57_4 1_555 1_555
H28_4 C57_4 1_555 1_555
H29_4 C57_4 1_555 1_555
H30_4 C58_4 1_555 1_555
H31_4 C58_4 1_555 1_555
H32_4 C58_4 1_555 1_555
N5_5 H25_5 1_555 1_555
H26_5 N5_5 1_555 1_555
C57_5 N5_5 1_555 1_555
H27_5 C57_5 1_555 1_555
H28_5 C57_5 1_555 1_555
H29_5 C57_5 1_555 1_555
C58_5 N5_5 1_555 1_555
H30_5 C58_5 1_555 1_555
H31_5 C58_5 1_555 1_555
H32_5 C58_5 1_555 1_555
N5_6 H25_6 1_555 1_555
H26_6 N5_6 1_555 1_555
C57_6 N5_6 1_555 1_555
H27_6 C57_6 1_555 1_555
H28_6 C57_6 1_555 1_555
H29_6 C57_6 1_555 1_555
C58_6 N5_6 1_555 1_555
H30_6 C58_6 1_555 1_555
H31_6 C58_6 1_555 1_555
H32_6 C58_6 1_555 1_555
N5_7 H25_7 1_555 1_555
H26_7 N5_7 1_555 1_555
C57_7 N5_7 1_555 1_555
H27_7 C57_7 1_555 1_555
H28_7 C57_7 1_555 1_555
H29_7 C57_7 1_555 1_555
C58_7 N5_7 1_555 1_555
H30_7 C58_7 1_555 1_555
H31_7 C58_7 1_555 1_555
H32_7 C58_7 1_555 1_555
N5_8 H25_8 1_555 1_555
H26_8 N5_8 1_555 1_555
C57_8 N5_8 1_555 1_555
H27_8 C57_8 1_555 1_555
H28_8 C57_8 1_555 1_555
H29_8 C57_8 1_555 1_555
C58_8 N5_8 1_555 1_555
H30_8 C58_8 1_555 1_555
H31_8 C58_8 1_555 1_555
H32_8 C58_8 1_555 1_555
N5_9 H25_9 1_555 1_555
H26_9 N5_9 1_555 1_555
C57_9 N5_9 1_555 1_555
H27_9 C57_9 1_555 1_555
H28_9 C57_9 1_555 1_555
H29_9 C57_9 1_555 1_555
C58_9 N5_9 1_555 1_555
H30_9 C58_9 1_555 1_555
H31_9 C58_9 1_555 1_555
H32_9 C58_9 1_555 1_555
N5_10 H25_10 1_555 1_555
H26_10 N5_10 1_555 1_555
C57_10 N5_10 1_555 1_555
H27_10 C57_10 1_555 1_555
H28_10 C57_10 1_555 1_555
H29_10 C57_10 1_555 1_555
C58_10 N5_10 1_555 1_555
H30_10 C58_10 1_555 1_555
H31_10 C58_10 1_555 1_555
H32_10 C58_10 1_555 1_555
N5_11 H25_11 1_555 1_555
H26_11 N5_11 1_555 1_555
C57_11 N5_11 1_555 1_555
H27_11 C57_11 1_555 1_555
H28_11 C57_11 1_555 1_555
H29_11 C57_11 1_555 1_555
C58_11 N5_11 1_555 1_555
H30_11 C58_11 1_555 1_555
H31_11 C58_11 1_555 1_555
H32_11 C58_11 1_555 1_555
N5_12 H25_12 1_555 1_555
H26_12 N5_12 1_555 1_555
C57_12 N5_12 1_555 1_555
H27_12 C57_12 1_555 1_555
H28_12 C57_12 1_555 1_555
H29_12 C57_12 1_555 1_555
C58_12 N5_12 1_555 1_555
H30_12 C58_12 1_555 1_555
H31_12 C58_12 1_555 1_555
H32_12 C58_12 1_555 1_555
N5_13 H25_13 1_555 1_555
H26_13 N5_13 1_555 1_555
C57_13 N5_13 1_555 1_555
H27_13 C57_13 1_555 1_555
H28_13 C57_13 1_555 1_555
H29_13 C57_13 1_555 1_555
C58_13 N5_13 1_555 1_555
H30_13 C58_13 1_555 1_555
H31_13 C58_13 1_555 1_555
H32_13 C58_13 1_555 1_555
N5_14 H25_14 1_555 1_555
H26_14 N5_14 1_555 1_555
C57_14 N5_14 1_555 1_555
H27_14 C57_14 1_555 1_555
H28_14 C57_14 1_555 1_555
H29_14 C57_14 1_555 1_555
C58_14 N5_14 1_555 1_555
H30_14 C58_14 1_555 1_555
H31_14 C58_14 1_555 1_555
H32_14 C58_14 1_555 1_555
N5_15 H25_15 1_555 1_555
H26_15 N5_15 1_555 1_555
C57_15 N5_15 1_555 1_555
H27_15 C57_15 1_555 1_555
H28_15 C57_15 1_555 1_555
H29_15 C57_15 1_555 1_555
H30_15 C58_15 1_555 1_555
H31_15 C58_15 1_555 1_555
H32_15 C58_15 1_555 1_555
N5_16 H25_16 1_555 1_555
H26_16 N5_16 1_555 1_555
C57_16 N5_16 1_555 1_555
H27_16 C57_16 1_555 1_555
H28_16 C57_16 1_555 1_555
H29_16 C57_16 1_555 1_555
H30_16 C58_16 1_555 1_555
H31_16 C58_16 1_555 1_555
H32_16 C58_16 1_555 1_555
N5_17 H25_17 1_555 1_555
H26_17 N5_17 1_555 1_555
C57_17 N5_17 1_555 1_555
H27_17 C57_17 1_555 1_555
H28_17 C57_17 1_555 1_555
H29_17 C57_17 1_555 1_555
C58_17 N5_17 1_555 1_555
H30_17 C58_17 1_555 1_555
H31_17 C58_17 1_555 1_555
H32_17 C58_17 1_555 1_555
N5_18 H25_18 1_555 1_555
H26_18 N5_18 1_555 1_555
C57_18 N5_18 1_555 1_555
H27_18 C57_18 1_555 1_555
H28_18 C57_18 1_555 1_555
H29_18 C57_18 1_555 1_555
C58_18 N5_18 1_555 1_555
H30_18 C58_18 1_555 1_555
H31_18 C58_18 1_555 1_555
H32_18 C58_18 1_555 1_555
H30_19 C58_19 1_555 1_555
H31_19 C58_19 1_555 1_555
H32_19 C58_19 1_555 1_555
N5_19 H25_19 1_555 1_555
H26_19 N5_19 1_555 1_555
C57_19 N5_19 1_555 1_555
H27_19 C57_19 1_555 1_555
H28_19 C57_19 1_555 1_555
H29_19 C57_19 1_555 1_555
H30_20 C58_20 1_555 1_555
H31_20 C58_20 1_555 1_555
H32_20 C58_20 1_555 1_555
N5_20 H25_20 1_555 1_555
H26_20 N5_20 1_555 1_555
C57_20 N5_20 1_555 1_555
H27_20 C57_20 1_555 1_555
H28_20 C57_20 1_555 1_555
H29_20 C57_20 1_555 1_555
N5_21 H25_21 1_555 1_555
H26_21 N5_21 1_555 1_555
C57_21 N5_21 1_555 1_555
H27_21 C57_21 1_555 1_555
H28_21 C57_21 1_555 1_555
H29_21 C57_21 1_555 1_555
C58_21 N5_21 1_555 1_555
H30_21 C58_21 1_555 1_555
H31_21 C58_21 1_555 1_555
H32_21 C58_21 1_555 1_555
N5_22 H25_22 1_555 1_555
H26_22 N5_22 1_555 1_555
C57_22 N5_22 1_555 1_555
H27_22 C57_22 1_555 1_555
H28_22 C57_22 1_555 1_555
H29_22 C57_22 1_555 1_555
C58_22 N5_22 1_555 1_555
H30_22 C58_22 1_555 1_555
H31_22 C58_22 1_555 1_555
H32_22 C58_22 1_555 1_555
N5_23 H25_23 1_555 1_555
H26_23 N5_23 1_555 1_555
C57_23 N5_23 1_555 1_555
H27_23 C57_23 1_555 1_555
H28_23 C57_23 1_555 1_555
H29_23 C57_23 1_555 1_555
C58_23 N5_23 1_555 1_555
H30_23 C58_23 1_555 1_555
H31_23 C58_23 1_555 1_555
H32_23 C58_23 1_555 1_555
N5_24 H25_24 1_555 1_555
H26_24 N5_24 1_555 1_555
C57_24 N5_24 1_555 1_555
H27_24 C57_24 1_555 1_555
H28_24 C57_24 1_555 1_555
H29_24 C57_24 1_555 1_555
C58_24 N5_24 1_555 1_555
H30_24 C58_24 1_555 1_555
H31_24 C58_24 1_555 1_555
H32_24 C58_24 1_555 1_555
N5_25 H25_25 1_555 1_555
H26_25 N5_25 1_555 1_555
C57_25 N5_25 1_555 1_555
H27_25 C57_25 1_555 1_555
H28_25 C57_25 1_555 1_555
H29_25 C57_25 1_555 1_555
C58_25 N5_25 1_555 1_555
H30_25 C58_25 1_555 1_555
H31_25 C58_25 1_555 1_555
H32_25 C58_25 1_555 1_555
N5_26 H25_26 1_555 1_555
H26_26 N5_26 1_555 1_555
C57_26 N5_26 1_555 1_555
H27_26 C57_26 1_555 1_555
H28_26 C57_26 1_555 1_555
H29_26 C57_26 1_555 1_555
C58_26 N5_26 1_555 1_555
H30_26 C58_26 1_555 1_555
H31_26 C58_26 1_555 1_555
H32_26 C58_26 1_555 1_555
N5_27 H25_27 1_555 1_555
H26_27 N5_27 1_555 1_555
C57_27 N5_27 1_555 1_555
H27_27 C57_27 1_555 1_555
H28_27 C57_27 1_555 1_555
H29_27 C57_27 1_555 1_555
C58_27 N5_27 1_555 1_555
H30_27 C58_27 1_555 1_555
H31_27 C58_27 1_555 1_555
H32_27 C58_27 1_555 1_555
N5_28 H25_28 1_555 1_555
H26_28 N5_28 1_555 1_555
C57_28 N5_28 1_555 1_555
H27_28 C57_28 1_555 1_555
H28_28 C57_28 1_555 1_555
H29_28 C57_28 1_555 1_555
C58_28 N5_28 1_555 1_555
H30_28 C58_28 1_555 1_555
H31_28 C58_28 1_555 1_555
H32_28 C58_28 1_555 1_555
N5_29 H25_29 1_555 1_555
H26_29 N5_29 1_555 1_555
C57_29 N5_29 1_555 1_555
H27_29 C57_29 1_555 1_555
H28_29 C57_29 1_555 1_555
H29_29 C57_29 1_555 1_555
C58_29 N5_29 1_555 1_555
H30_29 C58_29 1_555 1_555
H31_29 C58_29 1_555 1_555
H32_29 C58_29 1_555 1_555
N5_30 H25_30 1_555 1_555
H26_30 N5_30 1_555 1_555
C57_30 N5_30 1_555 1_555
H27_30 C57_30 1_555 1_555
H28_30 C57_30 1_555 1_555
H29_30 C57_30 1_555 1_555
C58_30 N5_30 1_555 1_555
H30_30 C58_30 1_555 1_555
H31_30 C58_30 1_555 1_555
H32_30 C58_30 1_555 1_555
H30_31 C58_31 1_555 1_555
H31_31 C58_31 1_555 1_555
H32_31 C58_31 1_555 1_555
N5_31 H25_31 1_555 1_555
H26_31 N5_31 1_555 1_555
C57_31 N5_31 1_555 1_555
H27_31 C57_31 1_555 1_555
H28_31 C57_31 1_555 1_555
H29_31 C57_31 1_555 1_555
H30_32 C58_32 1_555 1_555
H31_32 C58_32 1_555 1_555
H32_32 C58_32 1_555 1_555
N5_32 H25_32 1_555 1_555
H26_32 N5_32 1_555 1_555
C57_32 N5_32 1_555 1_555
H27_32 C57_32 1_555 1_555
H28_32 C57_32 1_555 1_555
H29_32 C57_32 1_555 1_555

#END
