
###############################################################################
#
# This file contains modified crystal structure data generated from the
# MOF subset of the Cambridge Structural Database (CSD) v543 
# hosted by the Cambridge Crystallographic Data Centre (CCDC).
#
# This work is licensed under the Creative Commons
# Attribution-NonCommercial-ShareAlike 4.0 International License.
# To view a copy of this license, visit
# http://creativecommons.org/licenses/by-nc-sa/4.0/
# or send a letter to
# Creative Commons, PO Box 1866, Mountain View, CA 94042, USA.
#
# CIF created using the CSD Python API on 29 September 2022
# The structure has been converted into the P1 space group
# The structure has a 3D framework
# The original CSD entry KOBPIB is in the monoclinic crystal system
# The framework has been calculated to contain at least 10.0% void space
# The void calculation uses a probe of radius 1.32A, grid spacing 0.4
# H atom positions have been added when not included in the experimental data
#
###############################################################################

data_KOBPIB
_chemical_formula_moiety         '(C48 H56 Ce4 N12 O36)n'
_symmetry_cell_setting           triclinic
_symmetry_space_group_name_H-M   'P 1'
_symmetry_Int_Tables_number      1
_space_group_name_Hall           'P 1'
loop_
_symmetry_equiv_pos_site_id
_symmetry_equiv_pos_as_xyz
1 x,y,z
_cell_length_a                   11.132(6)
_cell_length_b                   22.30(2)
_cell_length_c                   7.868(8)
_cell_angle_alpha                90
_cell_angle_beta                 99.158(4)
_cell_angle_gamma                90
_cell_volume                     1928.28
loop_
_atom_site_label
_atom_site_type_symbol
_atom_site_fract_x
_atom_site_fract_y
_atom_site_fract_z
H3 H 0.0088 0.3239 0.0063
Ce2 Ce 0.27663(4) 0.220644(15) 0.12042(5)
Ce1 Ce 0.27663(4) 0.279356(15) 0.62042(5)
O4 O 0.0606(5) 0.3145(3) 0.6547(7)
O5 O 0.1433(4) 0.2479(2) 0.8449(7)
O10 O 0.2447(6) 0.3711(2) 0.4301(8)
C6 C 0.0610(7) 0.2871(3) 0.7934(9)
O11 O 0.1433(4) 0.2521(2) 0.3449(7)
O12 O 0.2666(4) 0.16566(19) 0.5992(6)
O13 O 0.3014(6) 0.3575(2) 0.8342(7)
O14 O 0.4065(5) 0.2661(2) 0.3773(7)
O15 O 0.4065(5) 0.2339(2) 0.8773(7)
O16 O 0.4911(5) 0.3179(3) 0.5987(8)
H13 H 0.230307 0.406537 0.500591
H14 H 0.318144 0.37804 0.375806
O1 O 0.6195(11) 0.4660(3) 0.2385(16)
O2 O 0.7234(13) 0.2862(3) 0.040(2)
O7 O 0.6986(6) 0.6425(2) 0.1658(7)
N2 N 0.7705(7) 0.4617(3) 0.0788(10)
N3 N 0.6546(8) 0.3750(4) 0.1184(12)
C2 C 0.6819(13) 0.4362(4) 0.1573(19)
C3 C 0.7326(14) 0.3402(4) 0.043(2)
C7 C 0.7941(8) 0.5264(3) 0.1014(11)
H5 H 0.7827 0.5382 0.2164
H6 H 0.8780 0.5347 0.0896
C9 C 0.7155(7) 0.6289(3) 0.0164(9)
C10 C 0.5530(10) 0.3457(5) 0.1937(16)
H9 H 0.5187 0.3136 0.1180
H10 H 0.4893 0.3750 0.1990
C11 C 0.5899(15) 0.3227(6) 0.356(2)
H11 H 0.6360 0.3534 0.4254
H12 H 0.6447 0.2894 0.3465
C12 C 0.4903(7) 0.3012(3) 0.4491(10)
Ce4 Ce 0.72337(4) 0.720644(15) 0.37958(5)
O3 O 0.8950(6) 0.4565(3) 0.8805(9)
O6 O 0.7334(4) 0.66566(19) 0.9008(6)
N1 N 0.8041(7) 0.3705(3) 0.9467(11)
C1 C 0.8277(7) 0.4311(3) 0.9636(11)
C4 C 0.8603(7) 0.3357(3) 0.8229(11)
H1 H 0.8008 0.3080 0.7633
H2 H 0.8850 0.3626 0.7379
C5 C 0.9691(8) 0.3011(4) 0.9083(11)
H4 H 0.9413 0.2637 0.9517
C8 C 0.7098(9) 0.5631(3) 0.9698(9)
H7 H 0.6270 0.5488 0.9643
H8 H 0.7331 0.5578 0.8570
Ce3 Ce 0.72337(4) 0.779356(15) 0.87958(5)
O7_2 O 0.3014(6) 0.1425(2) 0.3342(7)
C7_2 C 0.2059(8) 0.0264(3) 0.3986(11)
H5_2 H 0.2173 0.0382 0.2836
H6_2 H 0.1220 0.0347 0.4104
C8_2 C 0.2902(9) 0.0631(3) 0.5302(9)
H7_2 H 0.3730 0.0488 0.5357
H8_2 H 0.2669 0.0578 0.6430
C9_2 C 0.2845(7) 0.1289(3) 0.4836(9)
O1_2 O 0.3805(11) 0.9660(3) 0.2615(16)
O2_2 O 0.2766(13) 0.7862(3) 0.460(2)
O3_2 O 0.1050(6) 0.9565(3) 0.6195(9)
O8 O 0.5935(5) 0.7661(2) 0.1227(7)
N1_2 N 0.1959(7) 0.8705(3) 0.5533(11)
N2_2 N 0.2295(7) 0.9617(3) 0.4212(10)
N3_2 N 0.3454(8) 0.8750(4) 0.3816(12)
C1_2 C 0.1723(7) 0.9311(3) 0.5364(11)
C2_2 C 0.3181(13) 0.9362(4) 0.3427(19)
C3_2 C 0.2674(14) 0.8402(4) 0.457(2)
C4_2 C 0.1397(7) 0.8357(3) 0.6771(11)
H1_2 H 0.1992 0.8080 0.7367
H2_2 H 0.1150 0.8626 0.7621
C5_2 C 0.0309(8) 0.8011(4) 0.5917(11)
H4_2 H 0.0587 0.7637 0.5483
C10_2 C 0.4470(10) 0.8457(5) 0.3063(16)
H9_2 H 0.4813 0.8136 0.3820
H10_2 H 0.5107 0.8750 0.3010
C11_2 C 0.4101(15) 0.8227(6) 0.144(2)
H11_2 H 0.3640 0.8534 0.0746
H12_2 H 0.3553 0.7894 0.1535
C12_2 C 0.5097(7) 0.8012(3) 0.0509(10)
O9 O 0.5089(5) 0.8179(3) 0.9013(8)
O10_2 O 0.7553(6) 0.8711(2) 0.0699(8)
O11_2 O 0.8567(4) 0.7521(2) 0.1551(7)
H14_2 H 0.681856 0.87804 0.124194
O4_2 O 0.9394(5) 0.8145(3) 0.8453(7)
O5_2 O 0.8567(4) 0.7479(2) 0.6551(7)
H3_2 H 0.9912 0.8239 0.4937
C6_2 C 0.9390(7) 0.7871(3) 0.7066(9)
O13_2 O 0.6986(6) 0.8575(2) 0.6658(7)
O15_2 O 0.5935(5) 0.7339(2) 0.6227(7)
H13_2 H 0.769693 0.906537 0.999409
O3_3 O 0.1050(6) 0.5435(3) 0.1195(9)
O6_2 O 0.2666(4) 0.33434(19) 0.0992(6)
N1_3 N 0.1959(7) 0.6295(3) 0.0533(11)
C1_3 C 0.1723(7) 0.5689(3) 0.0364(11)
C4_3 C 0.1397(7) 0.6643(3) 0.1771(11)
H1_3 H 0.1992 0.6920 0.2367
H2_3 H 0.1150 0.6374 0.2621
C5_3 C 0.0309(8) 0.6989(4) 0.0917(11)
H4_3 H 0.0587 0.7363 0.0483
C8_3 C 0.2902(9) 0.4369(3) 0.0302(9)
H7_3 H 0.3730 0.4512 0.0357
H8_3 H 0.2669 0.4422 0.1430
O1_3 O 0.3805(11) 0.5340(3) 0.7615(16)
O2_3 O 0.2766(13) 0.7138(3) 0.960(2)
O9_2 O 0.5089(5) 0.6821(3) 0.4013(8)
N2_3 N 0.2295(7) 0.5383(3) 0.9212(10)
N3_3 N 0.3454(8) 0.6250(4) 0.8816(12)
C2_3 C 0.3181(13) 0.5638(4) 0.8427(19)
C3_3 C 0.2674(14) 0.6598(4) 0.957(2)
C7_3 C 0.2059(8) 0.4736(3) 0.8986(11)
H5_3 H 0.2173 0.4618 0.7836
H6_3 H 0.1220 0.4653 0.9104
C9_3 C 0.2845(7) 0.3711(3) 0.9836(9)
C10_3 C 0.4470(10) 0.6543(5) 0.8063(16)
H9_3 H 0.4813 0.6864 0.8820
H10_3 H 0.5107 0.6250 0.8010
C11_3 C 0.4101(15) 0.6773(6) 0.644(2)
H11_3 H 0.3640 0.6466 0.5746
H12_3 H 0.3553 0.7106 0.6535
C12_3 C 0.5097(7) 0.6988(3) 0.5509(10)
O4_3 O 0.9394(5) 0.6855(3) 0.3453(7)
O10_3 O 0.7553(6) 0.6289(2) 0.5699(8)
C6_3 C 0.9390(7) 0.7129(3) 0.2066(9)
O12_2 O 0.7334(4) 0.83434(19) 0.4008(6)
H13_3 H 0.769693 0.593463 0.499409
H14_3 H 0.681856 0.62196 0.624194
H3_3 H 0.9912 0.6761 0.9937
O4_4 O 0.0606(5) 0.1855(3) 0.1547(7)
H3_4 H 0.0088 0.1761 0.5063
C6_4 C 0.0610(7) 0.2129(3) 0.2934(9)
O16_2 O 0.4911(5) 0.1821(3) 0.0987(8)
H13_4 H 0.230307 0.093463 0.000590885
O10_4 O 0.2447(6) 0.1289(2) 0.9301(8)
H14_4 H 0.318144 0.12196 0.875806
O1_4 O 0.6195(11) 0.0340(3) 0.7385(16)
O2_4 O 0.7234(13) 0.2138(3) 0.540(2)
O3_4 O 0.8950(6) 0.0435(3) 0.3805(9)
N1_4 N 0.8041(7) 0.1295(3) 0.4467(11)
N2_4 N 0.7705(7) 0.0383(3) 0.5788(10)
N3_4 N 0.6546(8) 0.1250(4) 0.6184(12)
C1_4 C 0.8277(7) 0.0689(3) 0.4636(11)
C2_4 C 0.6819(13) 0.0638(4) 0.6573(19)
C3_4 C 0.7326(14) 0.1598(4) 0.543(2)
C4_4 C 0.8603(7) 0.1643(3) 0.3229(11)
H1_4 H 0.8008 0.1920 0.2633
H2_4 H 0.8850 0.1374 0.2379
C5_4 C 0.9691(8) 0.1989(4) 0.4083(11)
H4_4 H 0.9413 0.2363 0.4517
C10_4 C 0.5530(10) 0.1543(5) 0.6937(16)
H9_4 H 0.5187 0.1864 0.6180
H10_4 H 0.4893 0.1250 0.6990
C11_4 C 0.5899(15) 0.1773(6) 0.856(2)
H11_4 H 0.6360 0.1466 0.9254
H12_4 H 0.6447 0.2106 0.8465
C12_4 C 0.4903(7) 0.1988(3) 0.9491(10)
C7_4 C 0.7941(8) 0.9736(3) 0.6014(11)
H5_4 H 0.7827 0.9618 0.7164
H6_4 H 0.8780 0.9653 0.5896
C8_4 C 0.7098(9) 0.9369(3) 0.4698(9)
H7_4 H 0.6270 0.9512 0.4643
H8_4 H 0.7331 0.9422 0.3570
C9_4 C 0.7155(7) 0.8711(3) 0.5164(9)
loop_
_geom_bond_atom_site_label_1
_geom_bond_atom_site_label_2
_geom_bond_site_symmetry_1
_geom_bond_site_symmetry_2
Ce1 O4 1_555 1_555
O4 C6 1_555 1_555
O5 Ce1 1_555 1_555
O10 Ce1 1_555 1_555
C6 O5 1_555 1_555
O11 Ce1 1_555 1_555
O12 Ce1 1_555 1_555
O13 Ce1 1_555 1_555
O14 Ce1 1_555 1_555
O15 Ce1 1_555 1_555
O16 Ce1 1_555 1_555
O10 H13 1_555 1_555
O10 H14 1_555 1_555
O1 C2 1_555 1_555
O2 C3 1_555 1_555
O7 C9 1_555 1_555
O14 C12 1_555 1_555
O16 C12 1_555 1_555
N3 C2 1_555 1_555
C2 N2 1_555 1_555
C7 N2 1_555 1_555
H5 C7 1_555 1_555
H6 C7 1_555 1_555
C10 N3 1_555 1_555
H9 C10 1_555 1_555
H10 C10 1_555 1_555
C11 C10 1_555 1_555
H11 C11 1_555 1_555
H12 C11 1_555 1_555
C12 C11 1_555 1_555
Ce4 O7 1_555 1_555
Ce2 O14 1_555 1_555
N3 C3 1_555 1_555
O3 C1 1_555 1_555
N1 C1 1_555 1_555
C4 N1 1_555 1_555
H1 C4 1_555 1_555
H2 C4 1_555 1_555
C5 C4 1_555 1_555
H4 C5 1_555 1_555
H7 C8 1_555 1_555
H8 C8 1_555 1_555
Ce3 O6 1_555 1_555
O12 C9_2 1_555 1_555
O7_2 C9_2 1_555 1_555
H5_2 C7_2 1_555 1_555
H6_2 C7_2 1_555 1_555
C8_2 C7_2 1_555 1_555
H7_2 C8_2 1_555 1_555
H8_2 C8_2 1_555 1_555
C9_2 C8_2 1_555 1_555
Ce2 O7_2 1_555 1_555
O1_2 C2_2 1_555 1_555
O2_2 C3_2 1_555 1_555
O3_2 C1_2 1_555 1_555
O8 C12_2 1_555 1_555
N1_2 C1_2 1_555 1_555
N2_2 C1_2 1_555 1_555
N3_2 C2_2 1_555 1_555
C2_2 N2_2 1_555 1_555
C3_2 N1_2 1_555 1_555
C4_2 N1_2 1_555 1_555
H1_2 C4_2 1_555 1_555
H2_2 C4_2 1_555 1_555
C5_2 C4_2 1_555 1_555
H4_2 C5_2 1_555 1_555
C10_2 N3_2 1_555 1_555
H9_2 C10_2 1_555 1_555
H10_2 C10_2 1_555 1_555
C11_2 C10_2 1_555 1_555
H11_2 C11_2 1_555 1_555
H12_2 C11_2 1_555 1_555
C12_2 C11_2 1_555 1_555
Ce4 O8 1_555 1_555
N3_2 C3_2 1_555 1_555
O9 Ce3 1_555 1_555
O10_2 H14_2 1_555 1_555
Ce3 O4_2 1_555 1_555
O4_2 C6_2 1_555 1_555
O5_2 Ce3 1_555 1_555
C6_2 O5_2 1_555 1_555
Ce4 O5_2 1_555 1_555
O13_2 Ce3 1_555 1_555
O15_2 Ce3 1_555 1_555
Ce4 O15_2 1_555 1_555
O3_3 C1_3 1_555 1_555
N1_3 C1_3 1_555 1_555
C4_3 N1_3 1_555 1_555
H1_3 C4_3 1_555 1_555
H2_3 C4_3 1_555 1_555
C5_3 C4_3 1_555 1_555
H4_3 C5_3 1_555 1_555
H7_3 C8_3 1_555 1_555
H8_3 C8_3 1_555 1_555
Ce2 O6_2 1_555 1_555
O1_3 C2_3 1_555 1_555
O2_3 C3_3 1_555 1_555
O13 C9_3 1_555 1_555
O15_2 C12_3 1_555 1_555
O9_2 C12_3 1_555 1_555
N3_3 C2_3 1_555 1_555
C2_3 N2_3 1_555 1_555
C7_3 N2_3 1_555 1_555
H5_3 C7_3 1_555 1_555
H6_3 C7_3 1_555 1_555
C10_3 N3_3 1_555 1_555
H9_3 C10_3 1_555 1_555
H10_3 C10_3 1_555 1_555
C11_3 C10_3 1_555 1_555
H11_3 C11_3 1_555 1_555
H12_3 C11_3 1_555 1_555
C12_3 C11_3 1_555 1_555
O9_2 Ce4 1_555 1_555
N3_3 C3_3 1_555 1_555
Ce4 O4_3 1_555 1_555
O4_3 C6_3 1_555 1_555
O11_2 Ce4 1_555 1_555
O10_3 Ce4 1_555 1_555
C6_3 O11_2 1_555 1_555
O12_2 Ce4 1_555 1_555
O10_3 H13_3 1_555 1_555
O10_3 H14_3 1_555 1_555
Ce2 O4_4 1_555 1_555
O4_4 C6_4 1_555 1_555
O11 Ce2 1_555 1_555
C6_4 O11 1_555 1_555
O16_2 Ce2 1_555 1_555
O10_4 H14_4 1_555 1_555
O1_4 C2_4 1_555 1_555
O2_4 C3_4 1_555 1_555
O3_4 C1_4 1_555 1_555
O15 C12_4 1_555 1_555
N1_4 C1_4 1_555 1_555
N2_4 C1_4 1_555 1_555
N3_4 C2_4 1_555 1_555
C2_4 N2_4 1_555 1_555
C3_4 N1_4 1_555 1_555
C4_4 N1_4 1_555 1_555
H1_4 C4_4 1_555 1_555
H2_4 C4_4 1_555 1_555
C5_4 C4_4 1_555 1_555
H4_4 C5_4 1_555 1_555
C10_4 N3_4 1_555 1_555
H9_4 C10_4 1_555 1_555
H10_4 C10_4 1_555 1_555
C11_4 C10_4 1_555 1_555
H11_4 C11_4 1_555 1_555
H12_4 C11_4 1_555 1_555
C12_4 C11_4 1_555 1_555
N3_4 C3_4 1_555 1_555
O12_2 C9_4 1_555 1_555
O13_2 C9_4 1_555 1_555
H5_4 C7_4 1_555 1_555
H6_4 C7_4 1_555 1_555
C8_4 C7_4 1_555 1_555
H7_4 C8_4 1_555 1_555
H8_4 C8_4 1_555 1_555
C9_4 C8_4 1_555 1_555

#END
