
###############################################################################
#
# This file contains modified crystal structure data generated from the
# MOF subset of the Cambridge Structural Database (CSD) v543 
# hosted by the Cambridge Crystallographic Data Centre (CCDC).
#
# This work is licensed under the Creative Commons
# Attribution-NonCommercial-ShareAlike 4.0 International License.
# To view a copy of this license, visit
# http://creativecommons.org/licenses/by-nc-sa/4.0/
# or send a letter to
# Creative Commons, PO Box 1866, Mountain View, CA 94042, USA.
#
# CIF created using the CSD Python API on 29 September 2022
# The structure has been converted into the P1 space group
# The structure has a 3D framework
# The original CSD entry KOBPOH is in the monoclinic crystal system
# The framework has been calculated to contain at least 10.0% void space
# The void calculation uses a probe of radius 1.32A, grid spacing 0.4
#
###############################################################################

data_KOBPOH
_chemical_formula_moiety         '(C48 H56 Ce4 N12 O38)n'
_symmetry_cell_setting           triclinic
_symmetry_space_group_name_H-M   'P 1'
_symmetry_Int_Tables_number      1
_space_group_name_Hall           'P 1'
loop_
_symmetry_equiv_pos_site_id
_symmetry_equiv_pos_as_xyz
1 x,y,z
_cell_length_a                   10.922(4)
_cell_length_b                   19.838(8)
_cell_length_c                   7.836(4)
_cell_angle_alpha                90
_cell_angle_beta                 99.99(2)
_cell_angle_gamma                90
_cell_volume                     1672.09
loop_
_atom_site_label
_atom_site_type_symbol
_atom_site_fract_x
_atom_site_fract_y
_atom_site_fract_z
O8 O 0.29177(17) 0.25396(10) 0.5248(2)
O9 O 0.21015(18) 0.18399(11) 0.3212(2)
H10 H 0.0193 0.1403 0.3522
C11 C 0.0952(3) 0.20288(16) 0.5501(4)
H11 H 0.0678 0.2457 0.5894
H12 H 0.1219 0.1751 0.6520
C12 C 0.2040(2) 0.21447(12) 0.4584(3)
Ce5 Ce 0.429728(13) 0.219582(6) 0.300578(17)
Ce6 Ce 0.429728(13) 0.280418(6) 0.800578(17)
O4 O 0.64571(19) 0.16899(11) 0.2860(2)
O5 O 0.55860(18) 0.22226(9) 0.0515(3)
O10 O 0.3924(3) 0.11032(12) 0.1239(3)
C5 C 0.7236(3) 0.14258(17) 0.0282(4)
H3 H 0.8097 0.1531 0.0756
H4 H 0.7119 0.0946 0.0410
C6 C 0.6392(2) 0.18028(13) 0.1285(3)
H13 H 0.378(4) 0.116(2) 0.020(6)
H14 H 0.378(5) 0.072(3) 0.154(7)
O11 O 0.55860(18) 0.27774(9) 0.5515(3)
O12 O 0.3911(2) 0.34907(10) 0.2753(2)
O13 O 0.45197(19) 0.13425(10) 0.5233(2)
O15 O 0.29177(17) 0.24604(10) 0.0248(2)
O1 O 0.9152(2) 0.03870(12) 0.3502(3)
O2 O 0.8595(2) 0.22255(10) 0.6645(4)
O3 O 0.6668(2) 0.02721(12) 0.7565(3)
N1 N 0.7704(2) 0.12420(12) 0.7281(3)
N2 N 0.7939(2) 0.03070(11) 0.5562(3)
N3 N 0.9080(2) 0.12859(11) 0.5294(3)
C1 C 0.7393(3) 0.05838(14) 0.6855(4)
C2 C 0.8753(2) 0.06438(13) 0.4692(4)
C3 C 0.8462(3) 0.16252(14) 0.6414(4)
C4 C 0.6971(3) 0.16068(16) 0.8399(4)
H1 H 0.6094 0.1527 0.7964
H2 H 0.7120 0.2084 0.8291
C10 C 0.9869(3) 0.16908(14) 0.4344(3)
H9 H 0.9359 0.2033 0.3682
O6 O 0.6089(2) 0.84907(10) 0.2247(2)
O7 O 0.54803(19) 0.86575(10) 0.4767(2)
C7 C 0.7607(3) 0.96143(13) 0.5036(4)
H5 H 0.7457 0.9362 0.6045
H6 H 0.8302 0.9406 0.4613
C8 C 0.6456(3) 0.95765(14) 0.3626(4)
H7 H 0.5819 0.9878 0.3900
H8 H 0.6664 0.9710 0.2514
C9 C 0.5980(2) 0.88575(13) 0.3526(3)
Ce3 Ce 0.570272(13) 0.719582(6) 0.199422(17)
Ce4 Ce 0.570272(13) 0.780418(6) 0.699422(17)
O1_2 O 0.0848(2) 0.53870(12) 0.1498(3)
O7_2 O 0.45197(19) 0.36575(10) 0.0233(2)
C2_2 C 0.1247(2) 0.56438(13) 0.0308(4)
H6_2 H 0.1698 0.4406 0.0387
C8_2 C 0.3544(3) 0.45765(14) 0.1374(4)
H7_2 H 0.4181 0.4878 0.1100
H8_2 H 0.3336 0.4710 0.2486
C9_2 C 0.4020(2) 0.38575(13) 0.1474(3)
C10_2 C 0.0131(3) 0.66908(14) 0.0656(3)
H9_2 H 0.0641 0.7033 0.1318
O2_2 O 0.1405(2) 0.72255(10) 0.8355(4)
O3_2 O 0.3332(2) 0.52721(12) 0.7435(3)
O4_2 O 0.35429(19) 0.66899(11) 0.2140(2)
O5_2 O 0.44140(18) 0.72226(9) 0.4485(3)
O10_2 O 0.6076(3) 0.61032(12) 0.3761(3)
N1_2 N 0.2296(2) 0.62420(12) 0.7719(3)
N2_2 N 0.2061(2) 0.53070(11) 0.9438(3)
N3_2 N 0.0920(2) 0.62859(11) 0.9706(3)
C1_2 C 0.2607(3) 0.55838(14) 0.8145(4)
C3_2 C 0.1538(3) 0.66252(14) 0.8586(4)
C4_2 C 0.3029(3) 0.66068(16) 0.6601(4)
H1_2 H 0.3906 0.6527 0.7036
H2_2 H 0.2880 0.7084 0.6709
C5_2 C 0.2764(3) 0.64258(17) 0.4718(4)
H3_2 H 0.1903 0.6531 0.4244
H4_2 H 0.2881 0.5946 0.4590
C6_2 C 0.3608(2) 0.68028(13) 0.3715(3)
C7_2 C 0.2393(3) 0.46143(13) 0.9964(4)
H5_2 H 0.2543 0.4362 0.8955
H13_2 H 0.622(4) 0.616(2) 0.480(6)
H14_2 H 0.622(5) 0.572(3) 0.346(7)
O15_2 O 0.70823(17) 0.74604(10) 0.4752(2)
O16 O 0.78985(18) 0.68399(11) 0.1788(2)
O11_2 O 0.44140(18) 0.77774(9) 0.9485(3)
O13_2 O 0.54803(19) 0.63425(10) 0.9767(2)
O14 O 0.70823(17) 0.75396(10) 0.9752(2)
H10_2 H 0.9807 0.6403 0.1478
C12_2 C 0.7960(2) 0.71447(12) 0.0416(3)
C11_2 C 0.9048(3) 0.70288(16) 0.9499(4)
H11_2 H 0.9322 0.7457 0.9106
H12_2 H 0.8781 0.6751 0.8480
O6_2 O 0.3911(2) 0.15093(10) 0.7753(2)
C7_3 C 0.2393(3) 0.03857(13) 0.4964(4)
H5_3 H 0.2543 0.0638 0.3955
H6_3 H 0.1698 0.0594 0.5387
C8_3 C 0.3544(3) 0.04235(14) 0.6374(4)
H7_3 H 0.4181 0.0122 0.6100
H8_3 H 0.3336 0.0290 0.7486
C9_3 C 0.4020(2) 0.11425(13) 0.6474(3)
O1_3 O 0.0848(2) 0.96130(12) 0.6498(3)
O2_3 O 0.1405(2) 0.77745(10) 0.3355(4)
O3_3 O 0.3332(2) 0.97279(12) 0.2435(3)
N1_3 N 0.2296(2) 0.87580(12) 0.2719(3)
N2_3 N 0.2061(2) 0.96930(11) 0.4438(3)
N3_3 N 0.0920(2) 0.87141(11) 0.4706(3)
C1_3 C 0.2607(3) 0.94162(14) 0.3145(4)
C2_3 C 0.1247(2) 0.93562(13) 0.5308(4)
C3_3 C 0.1538(3) 0.83748(14) 0.3586(4)
C4_3 C 0.3029(3) 0.83932(16) 0.1601(4)
H1_3 H 0.3906 0.8473 0.2036
H2_3 H 0.2880 0.7916 0.1709
C10_3 C 0.0131(3) 0.83092(14) 0.5656(3)
H9_3 H 0.0641 0.7967 0.6318
O4_3 O 0.35429(19) 0.83101(11) 0.7140(2)
O10_3 O 0.6076(3) 0.88968(12) 0.8761(3)
C5_3 C 0.2764(3) 0.85742(17) 0.9718(4)
H3_3 H 0.1903 0.8469 0.9244
H4_3 H 0.2881 0.9054 0.9590
C6_3 C 0.3608(2) 0.81972(13) 0.8715(3)
H13_3 H 0.622(4) 0.884(2) 0.980(6)
H14_3 H 0.622(5) 0.928(3) 0.846(7)
O12_2 O 0.6089(2) 0.65093(10) 0.7247(2)
O16_2 O 0.78985(18) 0.81601(11) 0.6788(2)
H10_3 H 0.9807 0.8597 0.6478
C11_3 C 0.9048(3) 0.79712(16) 0.4499(4)
H11_3 H 0.9322 0.7543 0.4106
H12_3 H 0.8781 0.8249 0.3480
C12_3 C 0.7960(2) 0.78553(12) 0.5416(3)
C11_4 C 0.0952(3) 0.29712(16) 0.0501(4)
H11_4 H 0.0678 0.2543 0.0894
H12_4 H 0.1219 0.3249 0.1520
O9_2 O 0.21015(18) 0.31601(11) 0.8212(2)
H10_4 H 0.0193 0.3597 0.8522
C12_4 C 0.2040(2) 0.28553(12) 0.9584(3)
O2_4 O 0.8595(2) 0.27745(10) 0.1645(4)
O3_4 O 0.6668(2) 0.47279(12) 0.2565(3)
O4_4 O 0.64571(19) 0.33101(11) 0.7860(2)
O10_4 O 0.3924(3) 0.38968(12) 0.6239(3)
N1_4 N 0.7704(2) 0.37580(12) 0.2281(3)
N2_4 N 0.7939(2) 0.46930(11) 0.0562(3)
N3_4 N 0.9080(2) 0.37141(11) 0.0294(3)
C1_4 C 0.7393(3) 0.44162(14) 0.1855(4)
C3_4 C 0.8462(3) 0.33748(14) 0.1414(4)
C4_4 C 0.6971(3) 0.33932(16) 0.3399(4)
H1_4 H 0.6094 0.3473 0.2964
H2_4 H 0.7120 0.2916 0.3291
C5_4 C 0.7236(3) 0.35742(17) 0.5282(4)
H3_4 H 0.8097 0.3469 0.5756
H4_4 H 0.7119 0.4054 0.5410
C6_4 C 0.6392(2) 0.31972(13) 0.6285(3)
C7_4 C 0.7607(3) 0.53857(13) 0.0036(4)
H5_4 H 0.7457 0.5638 0.1045
H13_4 H 0.378(4) 0.384(2) 0.520(6)
H14_4 H 0.378(5) 0.428(3) 0.654(7)
O1_4 O 0.9152(2) 0.46130(12) 0.8502(3)
C2_4 C 0.8753(2) 0.43562(13) 0.9692(4)
H6_4 H 0.8302 0.5594 0.9613
C8_4 C 0.6456(3) 0.54235(14) 0.8626(4)
H7_4 H 0.5819 0.5122 0.8900
H8_4 H 0.6664 0.5290 0.7514
C9_4 C 0.5980(2) 0.61425(13) 0.8526(3)
C10_4 C 0.9869(3) 0.33092(14) 0.9344(3)
H9_4 H 0.9359 0.2967 0.8682
loop_
_geom_bond_atom_site_label_1
_geom_bond_atom_site_label_2
_geom_bond_site_symmetry_1
_geom_bond_site_symmetry_2
O8 C12 1_555 1_555
O9 C12 1_555 1_555
H11 C11 1_555 1_555
H12 C11 1_555 1_555
C12 C11 1_555 1_555
Ce5 O8 1_555 1_555
Ce6 O8 1_555 1_555
O9 Ce5 1_555 1_555
Ce5 O4 1_555 1_555
O4 C6 1_555 1_555
O5 Ce5 1_555 1_555
O10 Ce5 1_555 1_555
H3 C5 1_555 1_555
H4 C5 1_555 1_555
C6 O5 1_555 1_555
H13 O10 1_555 1_555
H14 O10 1_555 1_555
O11 Ce5 1_555 1_555
O12 Ce5 1_555 1_555
O13 Ce5 1_555 1_555
O15 Ce5 1_555 1_555
C5 C6 1_555 1_555
O1 C2 1_555 1_555
O2 C3 1_555 1_555
O3 C1 1_555 1_555
N1 C1 1_555 1_555
N2 C1 1_555 1_555
N3 C2 1_555 1_555
C2 N2 1_555 1_555
C3 N1 1_555 1_555
C4 N1 1_555 1_555
H1 C4 1_555 1_555
H2 C4 1_555 1_555
C10 N3 1_555 1_555
H9 C10 1_555 1_555
N3 C3 1_555 1_555
O6 C9 1_555 1_555
O7 C9 1_555 1_555
H5 C7 1_555 1_555
H6 C7 1_555 1_555
C8 C7 1_555 1_555
H7 C8 1_555 1_555
H8 C8 1_555 1_555
C9 C8 1_555 1_555
Ce3 O6 1_555 1_555
Ce4 O7 1_555 1_555
O1_2 C2_2 1_555 1_555
O12 C9_2 1_555 1_555
O7_2 C9_2 1_555 1_555
H7_2 C8_2 1_555 1_555
H8_2 C8_2 1_555 1_555
C9_2 C8_2 1_555 1_555
H9_2 C10_2 1_555 1_555
Ce3 O4_2 1_555 1_555
O2_2 C3_2 1_555 1_555
O3_2 C1_2 1_555 1_555
O4_2 C6_2 1_555 1_555
O5_2 Ce3 1_555 1_555
O10_2 Ce3 1_555 1_555
N1_2 C1_2 1_555 1_555
N2_2 C1_2 1_555 1_555
C3_2 N1_2 1_555 1_555
C4_2 N1_2 1_555 1_555
H1_2 C4_2 1_555 1_555
H2_2 C4_2 1_555 1_555
C5_2 C4_2 1_555 1_555
H3_2 C5_2 1_555 1_555
H4_2 C5_2 1_555 1_555
C6_2 O5_2 1_555 1_555
C7_2 N2_2 1_555 1_555
H5_2 C7_2 1_555 1_555
H13_2 O10_2 1_555 1_555
H14_2 O10_2 1_555 1_555
Ce4 O5_2 1_555 1_555
O15_2 Ce3 1_555 1_555
O16 Ce3 1_555 1_555
N3_2 C3_2 1_555 1_555
C5_2 C6_2 1_555 1_555
Ce4 O15_2 1_555 1_555
O16 C12_2 1_555 1_555
H11_2 C11_2 1_555 1_555
H12_2 C11_2 1_555 1_555
Ce4 O14 1_555 1_555
O6_2 C9_3 1_555 1_555
O13 C9_3 1_555 1_555
H5_3 C7_3 1_555 1_555
H6_3 C7_3 1_555 1_555
C8_3 C7_3 1_555 1_555
H7_3 C8_3 1_555 1_555
H8_3 C8_3 1_555 1_555
C9_3 C8_3 1_555 1_555
Ce6 O6_2 1_555 1_555
O1_3 C2_3 1_555 1_555
O2_3 C3_3 1_555 1_555
O3_3 C1_3 1_555 1_555
N1_3 C1_3 1_555 1_555
N2_3 C1_3 1_555 1_555
N3_3 C2_3 1_555 1_555
C2_3 N2_3 1_555 1_555
C3_3 N1_3 1_555 1_555
C4_3 N1_3 1_555 1_555
H1_3 C4_3 1_555 1_555
H2_3 C4_3 1_555 1_555
C10_3 N3_3 1_555 1_555
H9_3 C10_3 1_555 1_555
N3_3 C3_3 1_555 1_555
Ce4 O4_3 1_555 1_555
O4_3 C6_3 1_555 1_555
O11_2 Ce4 1_555 1_555
O10_3 Ce4 1_555 1_555
H3_3 C5_3 1_555 1_555
H4_3 C5_3 1_555 1_555
C6_3 O11_2 1_555 1_555
H13_3 O10_3 1_555 1_555
H14_3 O10_3 1_555 1_555
O12_2 Ce4 1_555 1_555
O16_2 Ce4 1_555 1_555
C5_3 C6_3 1_555 1_555
O15_2 C12_3 1_555 1_555
O16_2 C12_3 1_555 1_555
H11_3 C11_3 1_555 1_555
H12_3 C11_3 1_555 1_555
C12_3 C11_3 1_555 1_555
H11_4 C11_4 1_555 1_555
H12_4 C11_4 1_555 1_555
O9_2 C12_4 1_555 1_555
O9_2 Ce6 1_555 1_555
Ce6 O4_4 1_555 1_555
O2_4 C3_4 1_555 1_555
O3_4 C1_4 1_555 1_555
O4_4 C6_4 1_555 1_555
O11 Ce6 1_555 1_555
O10_4 Ce6 1_555 1_555
N1_4 C1_4 1_555 1_555
N2_4 C1_4 1_555 1_555
C3_4 N1_4 1_555 1_555
C4_4 N1_4 1_555 1_555
H1_4 C4_4 1_555 1_555
H2_4 C4_4 1_555 1_555
C5_4 C4_4 1_555 1_555
H3_4 C5_4 1_555 1_555
H4_4 C5_4 1_555 1_555
C6_4 O11 1_555 1_555
C7_4 N2_4 1_555 1_555
H5_4 C7_4 1_555 1_555
H13_4 O10_4 1_555 1_555
H14_4 O10_4 1_555 1_555
N3_4 C3_4 1_555 1_555
C5_4 C6_4 1_555 1_555
O1_4 C2_4 1_555 1_555
O12_2 C9_4 1_555 1_555
O13_2 C9_4 1_555 1_555
H7_4 C8_4 1_555 1_555
H8_4 C8_4 1_555 1_555
C9_4 C8_4 1_555 1_555
H9_4 C10_4 1_555 1_555

#END
