
###############################################################################
#
# This file contains modified crystal structure data generated from the
# MOF subset of the Cambridge Structural Database (CSD) v543 
# hosted by the Cambridge Crystallographic Data Centre (CCDC).
#
# This work is licensed under the Creative Commons
# Attribution-NonCommercial-ShareAlike 4.0 International License.
# To view a copy of this license, visit
# http://creativecommons.org/licenses/by-nc-sa/4.0/
# or send a letter to
# Creative Commons, PO Box 1866, Mountain View, CA 94042, USA.
#
# CIF created using the CSD Python API on 29 September 2022
# The structure has been converted into the P1 space group
# The structure has a 3D framework
# The original CSD entry KOBXIL is in the tetragonal crystal system
# The framework has been calculated to contain at least 10.0% void space
# The void calculation uses a probe of radius 1.32A, grid spacing 0.4
# The framework is charged, counterions have been retained in the structure
# H atom positions have been added when not included in the experimental data
#
###############################################################################

data_KOBXIL
_chemical_formula_moiety         '(C288 H224 Cu64 I64 In27 N96 O86 15-)n'
_symmetry_cell_setting           triclinic
_symmetry_space_group_name_H-M   'P 1'
_symmetry_Int_Tables_number      1
_space_group_name_Hall           'P 1'
loop_
_symmetry_equiv_pos_site_id
_symmetry_equiv_pos_as_xyz
1 x,y,z
_cell_length_a                   36.0529(10)
_cell_length_b                   36.0529(10)
_cell_length_c                   15.5957(4)
_cell_angle_alpha                90
_cell_angle_beta                 90
_cell_angle_gamma                90
_cell_volume                     20271.5
loop_
_atom_site_label
_atom_site_type_symbol
_atom_site_fract_x
_atom_site_fract_y
_atom_site_fract_z
I2 I 0.55246(2) 0.81714(3) 0.01171(6)
I4 I 0.51921(3) 0.70279(4) 0.06230(7)
In2 In 0.5000 0.5000 0.0000
In3 In 0.78453(2) 0.28453(2) 0.5000
I5 I 0.75722(3) 0.52516(2) 0.17412(6)
I7 I 0.72554(4) 0.40872(3) 0.16799(7)
Cu5 Cu 0.76666(6) 0.50041(4) 0.01451(10)
Cu6 Cu 0.78122(6) 0.45510(5) 0.13759(11)
Cu7 Cu 0.74426(7) 0.42798(4) 0.00983(12)
O7 O 0.7809(2) 0.22277(18) 0.5147(5)
O8 O 0.7823(2) 0.24450(19) 0.3830(5)
C19 C 0.7784(4) 0.2181(3) 0.4368(8)
C20 C 0.7704(4) 0.1797(3) 0.4008(8)
C21 C 0.7612(4) 0.1757(3) 0.3139(8)
C22 C 0.7710(4) 0.1502(3) 0.4568(8)
C23 C 0.7530(4) 0.1398(4) 0.2881(8)
C24 C 0.7516(4) 0.1087(3) 0.3473(9)
N7 N 0.7402(5) 0.1320(4) 0.2034(8)
N8 N 0.7602(4) 0.1155(3) 0.4274(7)
C25 C 0.8053(4) 0.3982(3) 0.3318(8)
N9 N 0.8243(3) 0.4451(3) 0.2244(7)
O9 O 0.7927(2) 0.3266(2) 0.3941(6)
C26 C 0.8093(4) 0.4358(3) 0.3057(8)
O10 O 0.7775(2) 0.3485(2) 0.5212(5)
C27 C 0.7896(4) 0.3920(3) 0.4127(8)
C28 C 0.7992(4) 0.4642(3) 0.3635(8)
C29 C 0.7806(4) 0.4209(3) 0.4663(8)
N10 N 0.7851(3) 0.4573(3) 0.4404(7)
C30 C 0.7870(4) 0.3531(3) 0.4446(8)
Cu8 Cu 0.70930(7) 0.47665(6) 0.10740(14)
C31 C 0.5902(5) 0.4913(5) 0.1459(13)
C32 C 0.5867(6) 0.4862(6) 0.2339(14)
C33 C 0.6181(8) 0.4810(8) 0.2841(12)
C34 C 0.6530(6) 0.4810(7) 0.2464(17)
N11 N 0.6565(5) 0.4862(6) 0.1585(17)
C35 C 0.6251(6) 0.4913(6) 0.1082(13)
C36 C 0.5652(5) 0.5134(6) 0.0916(12)
N12 N 0.6163(11) 0.4676(10) 0.376(3)
O11 O 0.5304(5) 0.4907(7) 0.1167(10)
O12 O 0.5583(4) 0.4975(7) 0.0184(9)
I10 I 0.44754(2) 0.18286(3) 0.01171(6)
I12 I 0.48079(3) 0.29721(4) 0.06230(7)
I13 I 0.24278(3) 0.47484(2) 0.17412(6)
I15 I 0.27446(4) 0.59128(3) 0.16799(7)
Cu13 Cu 0.23334(6) 0.49959(4) 0.01451(10)
Cu14 Cu 0.21878(6) 0.54490(5) 0.13759(11)
Cu15 Cu 0.25574(7) 0.57202(4) 0.00983(12)
C49 C 0.1947(4) 0.6018(3) 0.3318(8)
N17 N 0.1757(3) 0.5549(3) 0.2244(7)
O17 O 0.2073(2) 0.6734(2) 0.3941(6)
C50 C 0.1907(4) 0.5642(3) 0.3057(8)
O18 O 0.2225(2) 0.6515(2) 0.5212(5)
C51 C 0.2104(4) 0.6080(3) 0.4127(8)
C52 C 0.2008(4) 0.5358(3) 0.3635(8)
C53 C 0.2194(4) 0.5791(3) 0.4663(8)
N18 N 0.2149(3) 0.5427(3) 0.4404(7)
C54 C 0.2130(4) 0.6469(3) 0.4446(8)
Cu16 Cu 0.29070(7) 0.52335(6) 0.10740(14)
C55 C 0.4098(5) 0.5087(5) 0.1459(13)
C56 C 0.4133(6) 0.5138(6) 0.2339(14)
C57 C 0.3819(8) 0.5190(8) 0.2841(12)
C58 C 0.3470(6) 0.5190(7) 0.2464(17)
N19 N 0.3435(5) 0.5138(6) 0.1585(17)
C59 C 0.3749(6) 0.5087(6) 0.1082(13)
C60 C 0.4348(5) 0.4866(6) 0.0916(12)
N20 N 0.3837(11) 0.5324(10) 0.376(3)
O19 O 0.4696(5) 0.5093(7) 0.1167(10)
O20 O 0.4417(4) 0.5025(7) 0.0184(9)
O24 O 0.74450(19) 0.7177(2) 0.1170(5)
C67 C 0.7181(3) 0.7216(4) 0.0632(8)
C68 C 0.6797(3) 0.7296(4) 0.0992(8)
C69 C 0.6757(3) 0.7388(4) 0.1861(8)
C70 C 0.6502(3) 0.7290(4) 0.0432(8)
C71 C 0.6398(4) 0.7470(4) 0.2119(8)
C72 C 0.6087(3) 0.7484(4) 0.1527(9)
N23 N 0.6320(4) 0.7598(5) 0.2966(8)
N24 N 0.6155(3) 0.7398(4) 0.0726(7)
In5 In 0.21547(2) 0.71547(2) 0.5000
In6 In 0.78453(2) 0.71547(2) 0.0000
Cu17 Cu 0.76666(6) 0.49959(4) 0.51451(10)
Cu18 Cu 0.23334(6) 0.50041(4) 0.51451(10)
Cu23 Cu 0.75574(7) 0.07202(4) 0.50983(12)
O25 O 0.72277(18) 0.2809(2) 0.4853(5)
O26 O 0.74450(19) 0.2823(2) 0.6170(5)
N25 N 0.3845(3) 0.2602(4) 0.0726(7)
O28 O 0.8266(2) 0.2927(2) 0.6059(6)
O30 O 0.8485(2) 0.2775(2) 0.4788(5)
N30 N 0.4573(3) 0.7851(3) 0.0596(7)
N31 N 0.5427(3) 0.2149(3) 0.0596(7)
H15 H 0.640009 0.464208 0.41021
H16 H 0.591385 0.462008 0.403406
H17 H 0.769773 0.415042 0.530064
H18 H 0.743762 0.0810137 0.326059
H19 H 0.559337 0.486282 0.263474
H20 H 0.760541 0.199115 0.269814
H21 H 0.779794 0.154015 0.523017
H22 H 0.803151 0.492951 0.344137
H23 H 0.814024 0.37534 0.290856
H24 H 0.851757 0.446663 0.210476
H25 H 0.627854 0.495293 0.0392794
H26 H 0.677622 0.476924 0.285736
H27 H 0.734375 0.105507 0.185984
H28 H 0.736922 0.152946 0.16058
H32 H 0.440663 0.513718 0.263474
H34 H 0.230227 0.584958 0.530064
H35 H 0.322378 0.523076 0.285736
H36 H 0.372146 0.504707 0.0392794
H39 H 0.359991 0.535792 0.41021
H40 H 0.408615 0.537992 0.403406
H41 H 0.196849 0.507049 0.344137
H44 H 0.185976 0.62466 0.290856
H46 H 0.148243 0.553337 0.210476
H52 H 0.699115 0.739459 0.230186
H54 H 0.605507 0.765625 0.314016
H55 H 0.652946 0.763078 0.33942
H56 H 0.581014 0.756238 0.173941
In1 In 0.71547(2) 0.78453(2) 0.5000
I1 I 0.47484(2) 0.75722(3) 0.82588(6)
I3 I 0.59128(3) 0.72554(4) 0.83201(7)
Cu1 Cu 0.49959(4) 0.76666(6) 0.98549(10)
Cu2 Cu 0.54490(5) 0.78122(6) 0.86241(11)
Cu3 Cu 0.57202(4) 0.74426(7) 0.99017(12)
O1 O 0.77723(18) 0.7809(2) 0.4853(5)
O2 O 0.75550(19) 0.7823(2) 0.6170(5)
C1 C 0.7819(3) 0.7784(4) 0.5632(8)
C2 C 0.8203(3) 0.7704(4) 0.5992(8)
C3 C 0.8243(3) 0.7612(4) 0.6861(8)
C4 C 0.8498(3) 0.7710(4) 0.5432(8)
C5 C 0.8602(4) 0.7530(4) 0.7119(8)
C6 C 0.8913(3) 0.7516(4) 0.6527(9)
N1 N 0.8680(4) 0.7402(5) 0.7966(8)
N2 N 0.8845(3) 0.7602(4) 0.5726(7)
C7 C 0.6018(3) 0.8053(4) 0.6682(8)
N3 N 0.5549(3) 0.8243(3) 0.7756(7)
O3 O 0.6734(2) 0.7927(2) 0.6059(6)
C8 C 0.5642(3) 0.8093(4) 0.6943(8)
O4 O 0.6515(2) 0.7775(2) 0.4788(5)
C9 C 0.6080(3) 0.7896(4) 0.5873(8)
C10 C 0.5358(3) 0.7992(4) 0.6365(8)
C11 C 0.5791(3) 0.7806(4) 0.5337(8)
N4 N 0.5427(3) 0.7851(3) 0.5596(7)
C12 C 0.6469(3) 0.7870(4) 0.5554(8)
Cu4 Cu 0.52335(6) 0.70930(7) 0.89260(14)
In2_2 In 0.5000 0.5000 1.0000
C13 C 0.5087(5) 0.5902(5) 0.8541(13)
C14 C 0.5138(6) 0.5867(6) 0.7661(14)
C15 C 0.5190(8) 0.6181(8) 0.7159(12)
C16 C 0.5190(7) 0.6530(6) 0.7536(17)
N5 N 0.5138(6) 0.6565(5) 0.8415(17)
C17 C 0.5087(6) 0.6251(6) 0.8918(13)
C18 C 0.4866(6) 0.5652(5) 0.9084(12)
N6 N 0.5324(10) 0.6163(11) 0.624(3)
O5 O 0.5093(7) 0.5304(5) 0.8833(10)
O6 O 0.5025(7) 0.5583(4) 0.9816(9)
I6 I 0.81714(3) 0.44754(2) 0.98829(6)
I8 I 0.70279(4) 0.48079(3) 0.93770(7)
I9 I 0.52516(2) 0.24278(3) 0.82588(6)
I11 I 0.40872(3) 0.27446(4) 0.83201(7)
Cu9 Cu 0.50041(4) 0.23334(6) 0.98549(10)
Cu10 Cu 0.45510(5) 0.21878(6) 0.86241(11)
Cu11 Cu 0.42798(4) 0.25574(7) 0.99017(12)
C37 C 0.3982(3) 0.1947(4) 0.6682(8)
N13 N 0.4451(3) 0.1757(3) 0.7756(7)
O13 O 0.3266(2) 0.2073(2) 0.6059(6)
C38 C 0.4358(3) 0.1907(4) 0.6943(8)
O14 O 0.3485(2) 0.2225(2) 0.4788(5)
C39 C 0.3920(3) 0.2104(4) 0.5873(8)
C40 C 0.4642(3) 0.2008(4) 0.6365(8)
C41 C 0.4209(3) 0.2194(4) 0.5337(8)
N14 N 0.4573(3) 0.2149(3) 0.5596(7)
C42 C 0.3531(3) 0.2130(4) 0.5554(8)
Cu12 Cu 0.47665(6) 0.29070(7) 0.89260(14)
C43 C 0.4913(5) 0.4098(5) 0.8541(13)
C44 C 0.4862(6) 0.4133(6) 0.7661(14)
C45 C 0.4810(8) 0.3819(8) 0.7159(12)
C46 C 0.4810(7) 0.3470(6) 0.7536(17)
N15 N 0.4862(6) 0.3435(5) 0.8415(17)
C47 C 0.4913(6) 0.3749(6) 0.8918(13)
C48 C 0.5134(6) 0.4348(5) 0.9084(12)
N16 N 0.4676(10) 0.3837(11) 0.624(3)
O15 O 0.4907(7) 0.4696(5) 0.8833(10)
O16 O 0.4975(7) 0.4417(4) 0.9816(9)
I14 I 0.18286(3) 0.55246(2) 0.98829(6)
I16 I 0.29721(4) 0.51921(3) 0.93770(7)
O21 O 0.7191(2) 0.72277(18) 0.5147(5)
O22 O 0.7177(2) 0.74450(19) 0.3830(5)
C61 C 0.7216(4) 0.7181(3) 0.4368(8)
C62 C 0.7296(4) 0.6797(3) 0.4008(8)
C63 C 0.7388(4) 0.6757(3) 0.3139(8)
C64 C 0.7290(4) 0.6502(3) 0.4568(8)
C65 C 0.7470(4) 0.6398(4) 0.2881(8)
C66 C 0.7484(4) 0.6087(3) 0.3473(9)
N21 N 0.7598(5) 0.6320(4) 0.2034(8)
N22 N 0.7398(4) 0.6155(3) 0.4274(7)
O23 O 0.72277(18) 0.7191(2) 0.9853(5)
In4 In 0.28453(2) 0.21547(2) 0.5000
In6_2 In 0.78453(2) 0.71547(2) 1.0000
Cu19 Cu 0.50041(4) 0.76666(6) 0.48549(10)
Cu20 Cu 0.49959(4) 0.23334(6) 0.48549(10)
Cu21 Cu 0.74426(7) 0.57202(4) 0.50983(12)
Cu22 Cu 0.92798(4) 0.75574(7) 0.49017(12)
N26 N 0.2602(4) 0.6155(3) 0.9274(7)
N27 N 0.7398(4) 0.3845(3) 0.9274(7)
O27 O 0.7073(2) 0.8266(2) 0.3941(6)
O29 O 0.7225(2) 0.8485(2) 0.5212(5)
N28 N 0.7851(3) 0.5427(3) 0.9404(7)
N29 N 0.2149(3) 0.4573(3) 0.9404(7)
H1 H 0.918986 0.743762 0.673941
H2 H 0.523076 0.677622 0.714264
H3 H 0.504707 0.627854 0.960721
H4 H 0.535792 0.640009 0.58979
H5 H 0.537992 0.591385 0.596594
H6 H 0.894493 0.734375 0.814016
H7 H 0.847054 0.736922 0.83942
H8 H 0.62466 0.814024 0.709144
H9 H 0.553337 0.851757 0.789524
H10 H 0.584958 0.769773 0.469936
H11 H 0.845985 0.779794 0.476983
H12 H 0.800885 0.760541 0.730186
H13 H 0.513718 0.559337 0.736526
H14 H 0.507049 0.803151 0.655863
H29 H 0.37534 0.185976 0.709144
H30 H 0.495293 0.372146 0.960721
H31 H 0.446663 0.148243 0.789524
H33 H 0.486282 0.440663 0.736526
H37 H 0.739459 0.699115 0.269814
H38 H 0.492951 0.196849 0.655863
H42 H 0.464208 0.359991 0.58979
H43 H 0.462008 0.408615 0.596594
H45 H 0.476924 0.322378 0.714264
H47 H 0.756238 0.581014 0.326059
H48 H 0.765625 0.605507 0.185984
H49 H 0.763078 0.652946 0.16058
H50 H 0.415042 0.230227 0.469936
H51 H 0.720206 0.654015 0.523017
H53 H 0.654015 0.720206 0.976983
C61_2 C 0.7181(3) 0.2784(4) 0.5632(8)
C62_2 C 0.6797(3) 0.2704(4) 0.5992(8)
C63_2 C 0.6757(3) 0.2612(4) 0.6861(8)
C64_2 C 0.6502(3) 0.2710(4) 0.5432(8)
C65_2 C 0.6398(4) 0.2530(4) 0.7119(8)
C66_2 C 0.6087(3) 0.2516(4) 0.6527(9)
N21_2 N 0.6320(4) 0.2402(5) 0.7966(8)
N22_2 N 0.6155(3) 0.2602(4) 0.5726(7)
O23_2 O 0.7191(2) 0.27723(18) 0.0147(5)
In6_3 In 0.71547(2) 0.21547(2) 0.0000
Cu21_2 Cu 0.57202(4) 0.25574(7) 0.49017(12)
H37_2 H 0.699115 0.260541 0.730186
H47_2 H 0.581014 0.243762 0.673941
H48_2 H 0.605507 0.234375 0.814016
H49_2 H 0.652946 0.236922 0.83942
H51_2 H 0.654015 0.279794 0.476983
H53_2 H 0.720206 0.345985 0.0230174
O7_2 O 0.22277(18) 0.2191(2) 0.4853(5)
O8_2 O 0.24450(19) 0.2177(2) 0.6170(5)
C19_2 C 0.2181(3) 0.2216(4) 0.5632(8)
C20_2 C 0.1797(3) 0.2296(4) 0.5992(8)
C21_2 C 0.1757(3) 0.2388(4) 0.6861(8)
C22_2 C 0.1502(3) 0.2290(4) 0.5432(8)
C23_2 C 0.1398(4) 0.2470(4) 0.7119(8)
C24_2 C 0.1087(3) 0.2484(4) 0.6527(9)
N7_2 N 0.1320(4) 0.2598(5) 0.7966(8)
N8_2 N 0.1155(3) 0.2398(4) 0.5726(7)
O24_2 O 0.7177(2) 0.25550(19) 0.8830(5)
C67_2 C 0.7216(4) 0.2819(3) 0.9368(8)
C68_2 C 0.7296(4) 0.3203(3) 0.9008(8)
C69_2 C 0.7388(4) 0.3243(3) 0.8139(8)
C70_2 C 0.7290(4) 0.3498(3) 0.9568(8)
C71_2 C 0.7470(4) 0.3602(4) 0.7881(8)
C72_2 C 0.7484(4) 0.3913(3) 0.8473(9)
N23_2 N 0.7598(5) 0.3680(4) 0.7034(8)
In6_4 In 0.71547(2) 0.21547(2) 1.0000
Cu23_2 Cu 0.07202(4) 0.24426(7) 0.49017(12)
O25_2 O 0.2809(2) 0.27723(18) 0.5147(5)
O26_2 O 0.2823(2) 0.25550(19) 0.3830(5)
O28_2 O 0.2927(2) 0.1734(2) 0.3941(6)
O30_2 O 0.2775(2) 0.1515(2) 0.5212(5)
H18_2 H 0.0810137 0.256238 0.673941
H20_2 H 0.199115 0.239459 0.730186
H21_2 H 0.154015 0.220206 0.476983
H27_2 H 0.105507 0.265625 0.814016
H28_2 H 0.152946 0.263078 0.83942
H52_2 H 0.739459 0.300885 0.769814
H54_2 H 0.765625 0.394493 0.685984
H55_2 H 0.763078 0.347054 0.66058
H56_2 H 0.756238 0.418986 0.826059
O7_3 O 0.2191(2) 0.77723(18) 0.5147(5)
O8_3 O 0.2177(2) 0.75550(19) 0.3830(5)
C19_3 C 0.2216(4) 0.7819(3) 0.4368(8)
C20_3 C 0.2296(4) 0.8203(3) 0.4008(8)
C21_3 C 0.2388(4) 0.8243(3) 0.3139(8)
C22_3 C 0.2290(4) 0.8498(3) 0.4568(8)
C23_3 C 0.2470(4) 0.8602(4) 0.2881(8)
C24_3 C 0.2484(4) 0.8913(3) 0.3473(9)
N7_3 N 0.2598(5) 0.8680(4) 0.2034(8)
N8_3 N 0.2398(4) 0.8845(3) 0.4274(7)
O24_3 O 0.25550(19) 0.2823(2) 0.1170(5)
C67_3 C 0.2819(3) 0.2784(4) 0.0632(8)
C68_3 C 0.3203(3) 0.2704(4) 0.0992(8)
C69_3 C 0.3243(3) 0.2612(4) 0.1861(8)
C70_3 C 0.3498(3) 0.2710(4) 0.0432(8)
C71_3 C 0.3602(4) 0.2530(4) 0.2119(8)
C72_3 C 0.3913(3) 0.2516(4) 0.1527(9)
N23_3 N 0.3680(4) 0.2402(5) 0.2966(8)
In6_5 In 0.21547(2) 0.28453(2) 0.0000
Cu23_3 Cu 0.24426(7) 0.92798(4) 0.50983(12)
O25_3 O 0.27723(18) 0.7191(2) 0.4853(5)
O26_3 O 0.25550(19) 0.7177(2) 0.6170(5)
O28_3 O 0.1734(2) 0.7073(2) 0.6059(6)
O30_3 O 0.1515(2) 0.7225(2) 0.4788(5)
H18_3 H 0.256238 0.918986 0.326059
H20_3 H 0.239459 0.800885 0.269814
H21_3 H 0.220206 0.845985 0.523017
H27_3 H 0.265625 0.894493 0.185984
H28_3 H 0.263078 0.847054 0.16058
H52_3 H 0.300885 0.260541 0.230186
H54_3 H 0.394493 0.234375 0.314016
H55_3 H 0.347054 0.236922 0.33942
H56_3 H 0.418986 0.243762 0.173941
C61_3 C 0.2784(4) 0.2819(3) 0.4368(8)
C62_3 C 0.2704(4) 0.3203(3) 0.4008(8)
C63_3 C 0.2612(4) 0.3243(3) 0.3139(8)
C64_3 C 0.2710(4) 0.3498(3) 0.4568(8)
C65_3 C 0.2530(4) 0.3602(4) 0.2881(8)
C66_3 C 0.2516(4) 0.3913(3) 0.3473(9)
N21_3 N 0.2402(5) 0.3680(4) 0.2034(8)
N22_3 N 0.2602(4) 0.3845(3) 0.4274(7)
O23_3 O 0.27723(18) 0.2809(2) 0.9853(5)
In6_6 In 0.21547(2) 0.28453(2) 1.0000
Cu21_3 Cu 0.25574(7) 0.42798(4) 0.50983(12)
H37_3 H 0.260541 0.300885 0.269814
H47_3 H 0.243762 0.418986 0.326059
H48_3 H 0.234375 0.394493 0.185984
H49_3 H 0.236922 0.347054 0.16058
H51_3 H 0.279794 0.345985 0.523017
H53_3 H 0.345985 0.279794 0.976983
C61_4 C 0.2819(3) 0.7216(4) 0.5632(8)
C62_4 C 0.3203(3) 0.7296(4) 0.5992(8)
C63_4 C 0.3243(3) 0.7388(4) 0.6861(8)
C64_4 C 0.3498(3) 0.7290(4) 0.5432(8)
C65_4 C 0.3602(4) 0.7470(4) 0.7119(8)
C66_4 C 0.3913(3) 0.7484(4) 0.6527(9)
N21_4 N 0.3680(4) 0.7598(5) 0.7966(8)
N22_4 N 0.3845(3) 0.7398(4) 0.5726(7)
O23_4 O 0.2809(2) 0.72277(18) 0.0147(5)
In6_7 In 0.28453(2) 0.78453(2) 0.0000
Cu21_4 Cu 0.42798(4) 0.74426(7) 0.49017(12)
H37_4 H 0.300885 0.739459 0.730186
H47_4 H 0.418986 0.756238 0.673941
H48_4 H 0.394493 0.765625 0.814016
H49_4 H 0.347054 0.763078 0.83942
H51_4 H 0.345985 0.720206 0.476983
H53_4 H 0.279794 0.654015 0.0230174
O24_4 O 0.2823(2) 0.74450(19) 0.8830(5)
C67_4 C 0.2784(4) 0.7181(3) 0.9368(8)
C68_4 C 0.2704(4) 0.6797(3) 0.9008(8)
C69_4 C 0.2612(4) 0.6757(3) 0.8139(8)
C70_4 C 0.2710(4) 0.6502(3) 0.9568(8)
C71_4 C 0.2530(4) 0.6398(4) 0.7881(8)
C72_4 C 0.2516(4) 0.6087(3) 0.8473(9)
N23_4 N 0.2402(5) 0.6320(4) 0.7034(8)
In6_8 In 0.28453(2) 0.78453(2) 1.0000
H52_4 H 0.260541 0.699115 0.769814
H54_4 H 0.234375 0.605507 0.685984
H55_4 H 0.236922 0.652946 0.66058
H56_4 H 0.243762 0.581014 0.826059
O1_2 O 0.7809(2) 0.77723(18) 0.0147(5)
O4_2 O 0.7775(2) 0.6515(2) 0.0212(5)
O14_2 O 0.2225(2) 0.3485(2) 0.0212(5)
Cu22_2 Cu 0.75574(7) 0.92798(4) 0.00983(12)
O27_2 O 0.8266(2) 0.7073(2) 0.1059(6)
H10_2 H 0.769773 0.584958 0.0300645
H11_2 H 0.779794 0.845985 0.0230174
H50_2 H 0.230227 0.415042 0.0300645
I1_2 I 0.75722(3) 0.47484(2) 0.67412(6)
I2_2 I 0.81714(3) 0.55246(2) 0.48829(6)
I3_2 I 0.72554(4) 0.59128(3) 0.66799(7)
I4_2 I 0.70279(4) 0.51921(3) 0.43770(7)
Cu2_2 Cu 0.78122(6) 0.54490(5) 0.63759(11)
O2_2 O 0.7823(2) 0.75550(19) 0.8830(5)
C1_2 C 0.7784(4) 0.7819(3) 0.9368(8)
C2_2 C 0.7704(4) 0.8203(3) 0.9008(8)
C3_2 C 0.7612(4) 0.8243(3) 0.8139(8)
C4_2 C 0.7710(4) 0.8498(3) 0.9568(8)
C5_2 C 0.7530(4) 0.8602(4) 0.7881(8)
C6_2 C 0.7516(4) 0.8913(3) 0.8473(9)
N1_2 N 0.7402(5) 0.8680(4) 0.7034(8)
N2_2 N 0.7602(4) 0.8845(3) 0.9274(7)
C7_2 C 0.8053(4) 0.6018(3) 0.8318(8)
N3_2 N 0.8243(3) 0.5549(3) 0.7244(7)
O3_2 O 0.7927(2) 0.6734(2) 0.8941(6)
C8_2 C 0.8093(4) 0.5642(3) 0.8057(8)
C9_2 C 0.7896(4) 0.6080(3) 0.9127(8)
C10_2 C 0.7992(4) 0.5358(3) 0.8635(8)
C11_2 C 0.7806(4) 0.5791(3) 0.9663(8)
C12_2 C 0.7870(4) 0.6469(3) 0.9446(8)
Cu4_2 Cu 0.70930(7) 0.52335(6) 0.60740(14)
In2_3 In 0.5000 0.5000 0.5000
C13_2 C 0.5902(5) 0.5087(5) 0.6459(13)
C14_2 C 0.5867(6) 0.5138(6) 0.7339(14)
C15_2 C 0.6181(8) 0.5190(8) 0.7841(12)
C16_2 C 0.6530(6) 0.5190(7) 0.7464(17)
N5_2 N 0.6565(5) 0.5138(6) 0.6585(17)
C17_2 C 0.6251(6) 0.5087(6) 0.6082(13)
C18_2 C 0.5652(5) 0.4866(6) 0.5916(12)
N6_2 N 0.6163(11) 0.5324(10) 0.876(3)
O5_2 O 0.5304(5) 0.5093(7) 0.6167(10)
O6_2 O 0.5583(4) 0.5025(7) 0.5184(9)
I5_2 I 0.52516(2) 0.75722(3) 0.32588(6)
I6_2 I 0.44754(2) 0.81714(3) 0.51171(6)
I7_2 I 0.40872(3) 0.72554(4) 0.33201(7)
I8_2 I 0.48079(3) 0.70279(4) 0.56230(7)
Cu6_2 Cu 0.45510(5) 0.78122(6) 0.36241(11)
O8_4 O 0.24450(19) 0.7823(2) 0.1170(5)
C19_4 C 0.2181(3) 0.7784(4) 0.0632(8)
C20_4 C 0.1797(3) 0.7704(4) 0.0992(8)
C21_4 C 0.1757(3) 0.7612(4) 0.1861(8)
C22_4 C 0.1502(3) 0.7710(4) 0.0432(8)
C23_4 C 0.1398(4) 0.7530(4) 0.2119(8)
C24_4 C 0.1087(3) 0.7516(4) 0.1527(9)
N7_4 N 0.1320(4) 0.7402(5) 0.2966(8)
N8_4 N 0.1155(3) 0.7602(4) 0.0726(7)
C25_2 C 0.3982(3) 0.8053(4) 0.1682(8)
N9_2 N 0.4451(3) 0.8243(3) 0.2756(7)
O9_2 O 0.3266(2) 0.7927(2) 0.1059(6)
C26_2 C 0.4358(3) 0.8093(4) 0.1943(8)
C27_2 C 0.3920(3) 0.7896(4) 0.0873(8)
C28_2 C 0.4642(3) 0.7992(4) 0.1365(8)
C29_2 C 0.4209(3) 0.7806(4) 0.0337(8)
C30_2 C 0.3531(3) 0.7870(4) 0.0554(8)
Cu8_2 Cu 0.47665(6) 0.70930(7) 0.39260(14)
C31_2 C 0.4913(5) 0.5902(5) 0.3541(13)
C32_2 C 0.4862(6) 0.5867(6) 0.2661(14)
C33_2 C 0.4810(8) 0.6181(8) 0.2159(12)
C34_2 C 0.4810(7) 0.6530(6) 0.2536(17)
N11_2 N 0.4862(6) 0.6565(5) 0.3415(17)
C35_2 C 0.4913(6) 0.6251(6) 0.3918(13)
C36_2 C 0.5134(6) 0.5652(5) 0.4084(12)
N12_2 N 0.4676(10) 0.6163(11) 0.124(3)
O11_2 O 0.4907(7) 0.5304(5) 0.3833(10)
O12_2 O 0.4975(7) 0.5583(4) 0.4816(9)
I9_2 I 0.24278(3) 0.52516(2) 0.67412(6)
I10_2 I 0.18286(3) 0.44754(2) 0.48829(6)
I11_2 I 0.27446(4) 0.40872(3) 0.66799(7)
I12_2 I 0.29721(4) 0.48079(3) 0.43770(7)
Cu10_2 Cu 0.21878(6) 0.45510(5) 0.63759(11)
C37_2 C 0.1947(4) 0.3982(3) 0.8318(8)
N13_2 N 0.1757(3) 0.4451(3) 0.7244(7)
O13_2 O 0.2073(2) 0.3266(2) 0.8941(6)
C38_2 C 0.1907(4) 0.4358(3) 0.8057(8)
C39_2 C 0.2104(4) 0.3920(3) 0.9127(8)
C40_2 C 0.2008(4) 0.4642(3) 0.8635(8)
C41_2 C 0.2194(4) 0.4209(3) 0.9663(8)
C42_2 C 0.2130(4) 0.3531(3) 0.9446(8)
Cu12_2 Cu 0.29070(7) 0.47665(6) 0.60740(14)
C43_2 C 0.4098(5) 0.4913(5) 0.6459(13)
C44_2 C 0.4133(6) 0.4862(6) 0.7339(14)
C45_2 C 0.3819(8) 0.4810(8) 0.7841(12)
C46_2 C 0.3470(6) 0.4810(7) 0.7464(17)
N15_2 N 0.3435(5) 0.4862(6) 0.6585(17)
C47_2 C 0.3749(6) 0.4913(6) 0.6082(13)
C48_2 C 0.4348(5) 0.5134(6) 0.5916(12)
N16_2 N 0.3837(11) 0.4676(10) 0.876(3)
O15_2 O 0.4696(5) 0.4907(7) 0.6167(10)
O16_2 O 0.4417(4) 0.4975(7) 0.5184(9)
I13_2 I 0.47484(2) 0.24278(3) 0.32588(6)
I14_2 I 0.55246(2) 0.18286(3) 0.51171(6)
I15_2 I 0.59128(3) 0.27446(4) 0.33201(7)
I16_2 I 0.51921(3) 0.29721(4) 0.56230(7)
Cu14_2 Cu 0.54490(5) 0.21878(6) 0.36241(11)
C49_2 C 0.6018(3) 0.1947(4) 0.1682(8)
N17_2 N 0.5549(3) 0.1757(3) 0.2756(7)
O17_2 O 0.6734(2) 0.2073(2) 0.1059(6)
C50_2 C 0.5642(3) 0.1907(4) 0.1943(8)
C51_2 C 0.6080(3) 0.2104(4) 0.0873(8)
C52_2 C 0.5358(3) 0.2008(4) 0.1365(8)
C53_2 C 0.5791(3) 0.2194(4) 0.0337(8)
C54_2 C 0.6469(3) 0.2130(4) 0.0554(8)
Cu16_2 Cu 0.52335(6) 0.29070(7) 0.39260(14)
C55_2 C 0.5087(5) 0.4098(5) 0.3541(13)
C56_2 C 0.5138(6) 0.4133(6) 0.2661(14)
C57_2 C 0.5190(8) 0.3819(8) 0.2159(12)
C58_2 C 0.5190(7) 0.3470(6) 0.2536(17)
N19_2 N 0.5138(6) 0.3435(5) 0.3415(17)
C59_2 C 0.5087(6) 0.3749(6) 0.3918(13)
C60_2 C 0.4866(6) 0.4348(5) 0.4084(12)
N20_2 N 0.5324(10) 0.3837(11) 0.124(3)
O19_2 O 0.5093(7) 0.4696(5) 0.3833(10)
O20_2 O 0.5025(7) 0.4417(4) 0.4816(9)
O29_2 O 0.8485(2) 0.7225(2) 0.9788(5)
O30_4 O 0.2775(2) 0.8485(2) 0.0212(5)
H1_2 H 0.743762 0.918986 0.826059
H2_2 H 0.677622 0.523076 0.785736
H3_2 H 0.627854 0.504707 0.539279
H4_2 H 0.640009 0.535792 0.91021
H5_2 H 0.591385 0.537992 0.903406
H6_2 H 0.734375 0.894493 0.685984
H7_2 H 0.736922 0.847054 0.66058
H8_2 H 0.814024 0.62466 0.790856
H9_2 H 0.851757 0.553337 0.710476
H12_2 H 0.760541 0.800885 0.769814
H13_2 H 0.559337 0.513718 0.763474
H14_2 H 0.803151 0.507049 0.844137
H15_2 H 0.464208 0.640009 0.0897903
H16_2 H 0.462008 0.591385 0.0965937
H18_4 H 0.0810137 0.743762 0.173941
H19_2 H 0.486282 0.559337 0.236526
H20_4 H 0.199115 0.760541 0.230186
H22_2 H 0.492951 0.803151 0.155863
H23_2 H 0.37534 0.814024 0.209144
H24_2 H 0.446663 0.851757 0.289524
H25_2 H 0.495293 0.627854 0.460721
H26_2 H 0.476924 0.677622 0.214264
H27_4 H 0.105507 0.734375 0.314016
H28_4 H 0.152946 0.736922 0.33942
H29_2 H 0.185976 0.37534 0.790856
H30_2 H 0.372146 0.495293 0.539279
H31_2 H 0.148243 0.446663 0.710476
H32_2 H 0.513718 0.440663 0.236526
H33_2 H 0.440663 0.486282 0.763474
H35_2 H 0.523076 0.322378 0.214264
H36_2 H 0.504707 0.372146 0.460721
H38_2 H 0.196849 0.492951 0.844137
H39_2 H 0.535792 0.359991 0.0897903
H40_2 H 0.537992 0.408615 0.0965937
H41_2 H 0.507049 0.196849 0.155863
H42_2 H 0.359991 0.464208 0.91021
H43_2 H 0.408615 0.462008 0.903406
H44_2 H 0.62466 0.185976 0.209144
H45_2 H 0.322378 0.476924 0.785736
H46_2 H 0.553337 0.148243 0.289524
O7_4 O 0.22277(18) 0.7809(2) 0.9853(5)
O10_2 O 0.3485(2) 0.7775(2) 0.9788(5)
O18_2 O 0.6515(2) 0.2225(2) 0.9788(5)
Cu23_4 Cu 0.07202(4) 0.75574(7) 0.99017(12)
O28_4 O 0.2927(2) 0.8266(2) 0.8941(6)
H17_2 H 0.415042 0.769773 0.969936
H21_4 H 0.154015 0.779794 0.976983
H34_2 H 0.584958 0.230227 0.969936
O1_3 O 0.2191(2) 0.22277(18) 0.0147(5)
Cu22_3 Cu 0.24426(7) 0.07202(4) 0.00983(12)
O27_3 O 0.1734(2) 0.2927(2) 0.1059(6)
H11_3 H 0.220206 0.154015 0.0230174
O2_3 O 0.2177(2) 0.24450(19) 0.8830(5)
C1_3 C 0.2216(4) 0.2181(3) 0.9368(8)
C2_3 C 0.2296(4) 0.1797(3) 0.9008(8)
C3_3 C 0.2388(4) 0.1757(3) 0.8139(8)
C4_3 C 0.2290(4) 0.1502(3) 0.9568(8)
C5_3 C 0.2470(4) 0.1398(4) 0.7881(8)
C6_3 C 0.2484(4) 0.1087(3) 0.8473(9)
N1_3 N 0.2598(5) 0.1320(4) 0.7034(8)
N2_3 N 0.2398(4) 0.1155(3) 0.9274(7)
O8_5 O 0.75550(19) 0.2177(2) 0.1170(5)
C19_5 C 0.7819(3) 0.2216(4) 0.0632(8)
C20_5 C 0.8203(3) 0.2296(4) 0.0992(8)
C21_5 C 0.8243(3) 0.2388(4) 0.1861(8)
C22_5 C 0.8498(3) 0.2290(4) 0.0432(8)
C23_5 C 0.8602(4) 0.2470(4) 0.2119(8)
C24_5 C 0.8913(3) 0.2484(4) 0.1527(9)
N7_5 N 0.8680(4) 0.2598(5) 0.2966(8)
N8_5 N 0.8845(3) 0.2398(4) 0.0726(7)
O29_3 O 0.1515(2) 0.2775(2) 0.9788(5)
O30_5 O 0.7225(2) 0.1515(2) 0.0212(5)
H1_3 H 0.256238 0.0810137 0.826059
H6_3 H 0.265625 0.105507 0.685984
H7_3 H 0.263078 0.152946 0.66058
H12_3 H 0.239459 0.199115 0.769814
H18_5 H 0.918986 0.256238 0.173941
H20_5 H 0.800885 0.239459 0.230186
H27_5 H 0.894493 0.265625 0.314016
H28_5 H 0.847054 0.263078 0.33942
O7_5 O 0.77723(18) 0.2191(2) 0.9853(5)
Cu23_5 Cu 0.92798(4) 0.24426(7) 0.99017(12)
O28_5 O 0.7073(2) 0.1734(2) 0.8941(6)
H21_5 H 0.845985 0.220206 0.976983
I2_3 I 0.05246(2) 0.31714(3) 0.51171(6)
I3_3 I 0.09128(3) 0.22554(4) 0.33201(7)
I4_3 I 0.01921(3) 0.20279(4) 0.56230(7)
Cu2_3 Cu 0.04490(5) 0.28122(6) 0.36241(11)
C7_3 C 0.1018(3) 0.3053(4) 0.1682(8)
N3_3 N 0.0549(3) 0.3243(3) 0.2756(7)
C8_3 C 0.0642(3) 0.3093(4) 0.1943(8)
C9_3 C 0.1080(3) 0.2896(4) 0.0873(8)
C10_3 C 0.0358(3) 0.2992(4) 0.1365(8)
C11_3 C 0.0791(3) 0.2806(4) 0.0337(8)
N4_2 N 0.0427(3) 0.2851(3) 0.0596(7)
C12_3 C 0.1469(3) 0.2870(4) 0.0554(8)
Cu4_3 Cu 0.02335(6) 0.20930(7) 0.39260(14)
In2_4 In 0.0000 0.0000 0.5000
C13_3 C 0.0087(5) 0.0902(5) 0.3541(13)
C14_3 C 0.0138(6) 0.0867(6) 0.2661(14)
C15_3 C 0.0190(8) 0.1181(8) 0.2159(12)
C16_3 C 0.0190(7) 0.1530(6) 0.2536(17)
N5_3 N 0.0138(6) 0.1565(5) 0.3415(17)
C17_3 C 0.0087(6) 0.1251(6) 0.3918(13)
N6_3 N 0.0324(10) 0.1163(11) 0.124(3)
O5_3 O 0.0093(7) 0.0304(5) 0.3833(10)
O6_3 O 0.0025(7) 0.0583(4) 0.4816(9)
I5_3 I 0.25722(3) 0.02516(2) 0.67412(6)
Cu5_2 Cu 0.26666(6) 0.00041(4) 0.51451(10)
C36_3 C 0.0652(5) 0.0134(6) 0.5916(12)
N28_2 N 0.2851(3) 0.0427(3) 0.4404(7)
H2_3 H 0.0230758 0.177622 0.214264
H3_3 H 0.00470657 0.127854 0.460721
H4_3 H 0.0357924 0.140009 0.0897903
H5_3 H 0.0379919 0.0913846 0.0965937
H8_3 H 0.12466 0.314024 0.209144
H9_3 H 0.0533366 0.351757 0.289524
H13_3 H 0.0137178 0.0593375 0.236526
H14_3 H 0.00704919 0.303151 0.155863
Cu19_2 Cu 0.00041(4) 0.26666(6) 0.98549(10)
H10_3 H 0.0849581 0.269773 0.969936
Cu17_2 Cu 0.26666(6) 0.99959(4) 0.01451(10)
H17_3 H 0.269773 0.915042 0.0300645
In2_5 In 0.0000 1.0000 0.5000
I6_3 I 0.31714(3) 0.94754(2) 0.48829(6)
I7_3 I 0.22554(4) 0.90872(3) 0.66799(7)
I8_3 I 0.20279(4) 0.98079(3) 0.43770(7)
Cu6_3 Cu 0.28122(6) 0.95510(5) 0.63759(11)
C25_3 C 0.3053(4) 0.8982(3) 0.8318(8)
N9_3 N 0.3243(3) 0.9451(3) 0.7244(7)
C26_3 C 0.3093(4) 0.9358(3) 0.8057(8)
C27_3 C 0.2896(4) 0.8920(3) 0.9127(8)
C28_3 C 0.2992(4) 0.9642(3) 0.8635(8)
C29_3 C 0.2806(4) 0.9209(3) 0.9663(8)
N10_2 N 0.2851(3) 0.9573(3) 0.9404(7)
C30_3 C 0.2870(4) 0.8531(3) 0.9446(8)
Cu8_3 Cu 0.20930(7) 0.97665(6) 0.60740(14)
C31_3 C 0.0902(5) 0.9913(5) 0.6459(13)
C32_3 C 0.0867(6) 0.9862(6) 0.7339(14)
C33_3 C 0.1181(8) 0.9810(8) 0.7841(12)
C34_3 C 0.1530(6) 0.9810(7) 0.7464(17)
N11_3 N 0.1565(5) 0.9862(6) 0.6585(17)
C35_3 C 0.1251(6) 0.9913(6) 0.6082(13)
N12_3 N 0.1163(11) 0.9676(10) 0.876(3)
O11_3 O 0.0304(5) 0.9907(7) 0.6167(10)
O12_3 O 0.0583(4) 0.9975(7) 0.5184(9)
I9_3 I 0.02516(2) 0.74278(3) 0.32588(6)
Cu9_2 Cu 0.00041(4) 0.73334(6) 0.48549(10)
C48_3 C 0.0134(6) 0.9348(5) 0.4084(12)
N31_2 N 0.0427(3) 0.7149(3) 0.5596(7)
H15_3 H 0.140009 0.964208 0.91021
H16_3 H 0.0913846 0.962008 0.903406
H19_3 H 0.0593375 0.986282 0.763474
H22_3 H 0.303151 0.992951 0.844137
H23_3 H 0.314024 0.87534 0.790856
H24_3 H 0.351757 0.946663 0.710476
H25_3 H 0.127854 0.995293 0.539279
H26_3 H 0.177622 0.976924 0.785736
Cu18_2 Cu 0.73334(6) 0.00041(4) 0.01451(10)
H34_3 H 0.730227 0.0849581 0.0300645
I1_3 I 0.97484(2) 0.25722(3) 0.32588(6)
Cu1_2 Cu 0.99959(4) 0.26666(6) 0.48549(10)
In2_6 In 1.0000 0.0000 0.5000
C18_3 C 0.9866(6) 0.0652(5) 0.4084(12)
I14_3 I 0.68286(3) 0.05246(2) 0.48829(6)
I15_3 I 0.77446(4) 0.09128(3) 0.66799(7)
I16_3 I 0.79721(4) 0.01921(3) 0.43770(7)
Cu14_3 Cu 0.71878(6) 0.04490(5) 0.63759(11)
C49_3 C 0.6947(4) 0.1018(3) 0.8318(8)
N17_3 N 0.6757(3) 0.0549(3) 0.7244(7)
C50_3 C 0.6907(4) 0.0642(3) 0.8057(8)
C51_3 C 0.7104(4) 0.1080(3) 0.9127(8)
C52_3 C 0.7008(4) 0.0358(3) 0.8635(8)
C53_3 C 0.7194(4) 0.0791(3) 0.9663(8)
N18_2 N 0.7149(3) 0.0427(3) 0.9404(7)
C54_3 C 0.7130(4) 0.1469(3) 0.9446(8)
Cu16_3 Cu 0.79070(7) 0.02335(6) 0.60740(14)
C55_3 C 0.9098(5) 0.0087(5) 0.6459(13)
C56_3 C 0.9133(6) 0.0138(6) 0.7339(14)
C57_3 C 0.8819(8) 0.0190(8) 0.7841(12)
C58_3 C 0.8470(6) 0.0190(7) 0.7464(17)
N19_3 N 0.8435(5) 0.0138(6) 0.6585(17)
C59_3 C 0.8749(6) 0.0087(6) 0.6082(13)
N20_3 N 0.8837(11) 0.0324(10) 0.876(3)
O19_3 O 0.9696(5) 0.0093(7) 0.6167(10)
O20_3 O 0.9417(4) 0.0025(7) 0.5184(9)
N30_2 N 0.9573(3) 0.2851(3) 0.5596(7)
H32_3 H 0.940663 0.0137178 0.763474
H35_3 H 0.822378 0.0230758 0.785736
H36_3 H 0.872146 0.00470657 0.539279
H39_3 H 0.859991 0.0357924 0.91021
H40_3 H 0.908615 0.0379919 0.903406
H41_3 H 0.696849 0.00704919 0.844137
H44_3 H 0.685976 0.12466 0.790856
H46_3 H 0.648243 0.0533366 0.710476
In2_7 In 1.0000 1.0000 0.5000
I10_3 I 0.94754(2) 0.68286(3) 0.51171(6)
I11_3 I 0.90872(3) 0.77446(4) 0.33201(7)
I12_3 I 0.98079(3) 0.79721(4) 0.56230(7)
Cu10_3 Cu 0.95510(5) 0.71878(6) 0.36241(11)
C37_3 C 0.8982(3) 0.6947(4) 0.1682(8)
N13_3 N 0.9451(3) 0.6757(3) 0.2756(7)
C38_3 C 0.9358(3) 0.6907(4) 0.1943(8)
C39_3 C 0.8920(3) 0.7104(4) 0.0873(8)
C40_3 C 0.9642(3) 0.7008(4) 0.1365(8)
C41_3 C 0.9209(3) 0.7194(4) 0.0337(8)
N14_2 N 0.9573(3) 0.7149(3) 0.0596(7)
C42_3 C 0.8531(3) 0.7130(4) 0.0554(8)
Cu12_3 Cu 0.97665(6) 0.79070(7) 0.39260(14)
C43_3 C 0.9913(5) 0.9098(5) 0.3541(13)
C44_3 C 0.9862(6) 0.9133(6) 0.2661(14)
C45_3 C 0.9810(8) 0.8819(8) 0.2159(12)
C46_3 C 0.9810(7) 0.8470(6) 0.2536(17)
N15_3 N 0.9862(6) 0.8435(5) 0.3415(17)
C47_3 C 0.9913(6) 0.8749(6) 0.3918(13)
N16_3 N 0.9676(10) 0.8837(11) 0.124(3)
O15_3 O 0.9907(7) 0.9696(5) 0.3833(10)
O16_3 O 0.9975(7) 0.9417(4) 0.4816(9)
I13_3 I 0.74278(3) 0.97484(2) 0.67412(6)
Cu13_2 Cu 0.73334(6) 0.99959(4) 0.51451(10)
C60_3 C 0.9348(5) 0.9866(6) 0.5916(12)
N29_2 N 0.7149(3) 0.9573(3) 0.4404(7)
H29_3 H 0.87534 0.685976 0.209144
H30_3 H 0.995293 0.872146 0.460721
H31_3 H 0.946663 0.648243 0.289524
H33_3 H 0.986282 0.940663 0.236526
H38_3 H 0.992951 0.696849 0.155863
H42_3 H 0.964208 0.859991 0.0897903
H43_3 H 0.962008 0.908615 0.0965937
H45_3 H 0.976924 0.822378 0.214264
Cu20_2 Cu 0.99959(4) 0.73334(6) 0.98549(10)
H50_3 H 0.915042 0.730227 0.969936
I3_4 I 0.22554(4) 0.09128(3) 0.16799(7)
Cu2_4 Cu 0.28122(6) 0.04490(5) 0.13759(11)
C7_4 C 0.3053(4) 0.1018(3) 0.3318(8)
N3_4 N 0.3243(3) 0.0549(3) 0.2244(7)
C8_4 C 0.3093(4) 0.0642(3) 0.3057(8)
C9_4 C 0.2896(4) 0.1080(3) 0.4127(8)
C10_4 C 0.2992(4) 0.0358(3) 0.3635(8)
C11_4 C 0.2806(4) 0.0791(3) 0.4663(8)
C12_4 C 0.2870(4) 0.1469(3) 0.4446(8)
Cu4_4 Cu 0.20930(7) 0.02335(6) 0.10740(14)
In2_8 In 0.0000 0.0000 0.0000
C13_4 C 0.0902(5) 0.0087(5) 0.1459(13)
C14_4 C 0.0867(6) 0.0138(6) 0.2339(14)
C15_4 C 0.1181(8) 0.0190(8) 0.2841(12)
C16_4 C 0.1530(6) 0.0190(7) 0.2464(17)
N5_4 N 0.1565(5) 0.0138(6) 0.1585(17)
C17_4 C 0.1251(6) 0.0087(6) 0.1082(13)
N6_4 N 0.1163(11) 0.0324(10) 0.376(3)
O5_4 O 0.0304(5) 0.0093(7) 0.1167(10)
O6_4 O 0.0583(4) 0.0025(7) 0.0184(9)
H2_4 H 0.177622 0.0230758 0.285736
H3_4 H 0.127854 0.00470657 0.0392794
H4_4 H 0.140009 0.0357924 0.41021
H5_4 H 0.0913846 0.0379919 0.403406
H8_4 H 0.314024 0.12466 0.290856
H9_4 H 0.351757 0.0533366 0.210476
H10_4 H 0.269773 0.0849581 0.530064
H13_4 H 0.0593375 0.0137178 0.263474
H14_4 H 0.303151 0.00704919 0.344137
I2_4 I 0.31714(3) 0.05246(2) 0.98829(6)
I4_4 I 0.20279(4) 0.01921(3) 0.93770(7)
In2_9 In 0.0000 0.0000 1.0000
I5_4 I 0.02516(2) 0.25722(3) 0.82588(6)
C36_4 C 0.0134(6) 0.0652(5) 0.9084(12)
I1_4 I 0.25722(3) 0.97484(2) 0.17412(6)
In2_10 In 0.0000 1.0000 0.0000
C18_4 C 0.0652(5) 0.9866(6) 0.0916(12)
I14_4 I 0.05246(2) 0.68286(3) 0.01171(6)
I16_4 I 0.01921(3) 0.79721(4) 0.06230(7)
In2_11 In 0.0000 1.0000 1.0000
I15_4 I 0.09128(3) 0.77446(4) 0.83201(7)
Cu14_4 Cu 0.04490(5) 0.71878(6) 0.86241(11)
C49_4 C 0.1018(3) 0.6947(4) 0.6682(8)
N17_4 N 0.0549(3) 0.6757(3) 0.7756(7)
C50_4 C 0.0642(3) 0.6907(4) 0.6943(8)
C51_4 C 0.1080(3) 0.7104(4) 0.5873(8)
C52_4 C 0.0358(3) 0.7008(4) 0.6365(8)
C53_4 C 0.0791(3) 0.7194(4) 0.5337(8)
C54_4 C 0.1469(3) 0.7130(4) 0.5554(8)
Cu16_4 Cu 0.02335(6) 0.79070(7) 0.89260(14)
C55_4 C 0.0087(5) 0.9098(5) 0.8541(13)
C56_4 C 0.0138(6) 0.9133(6) 0.7661(14)
C57_4 C 0.0190(8) 0.8819(8) 0.7159(12)
C58_4 C 0.0190(7) 0.8470(6) 0.7536(17)
N19_4 N 0.0138(6) 0.8435(5) 0.8415(17)
C59_4 C 0.0087(6) 0.8749(6) 0.8918(13)
N20_4 N 0.0324(10) 0.8837(11) 0.624(3)
O19_4 O 0.0093(7) 0.9696(5) 0.8833(10)
O20_4 O 0.0025(7) 0.9417(4) 0.9816(9)
H32_4 H 0.0137178 0.940663 0.736526
H34_4 H 0.0849581 0.730227 0.469936
H35_4 H 0.0230758 0.822378 0.714264
H36_4 H 0.00470657 0.872146 0.960721
H39_4 H 0.0357924 0.859991 0.58979
H40_4 H 0.0379919 0.908615 0.596594
H41_4 H 0.00704919 0.696849 0.655863
H44_4 H 0.12466 0.685976 0.709144
H46_4 H 0.0533366 0.648243 0.789524
In2_12 In 1.0000 0.0000 0.0000
I6_4 I 0.94754(2) 0.31714(3) 0.01171(6)
I8_4 I 0.98079(3) 0.20279(4) 0.06230(7)
I9_4 I 0.74278(3) 0.02516(2) 0.17412(6)
C48_4 C 0.9348(5) 0.0134(6) 0.0916(12)
In2_13 In 1.0000 0.0000 1.0000
I7_4 I 0.90872(3) 0.22554(4) 0.83201(7)
Cu6_4 Cu 0.95510(5) 0.28122(6) 0.86241(11)
C25_4 C 0.8982(3) 0.3053(4) 0.6682(8)
N9_4 N 0.9451(3) 0.3243(3) 0.7756(7)
C26_4 C 0.9358(3) 0.3093(4) 0.6943(8)
C27_4 C 0.8920(3) 0.2896(4) 0.5873(8)
C28_4 C 0.9642(3) 0.2992(4) 0.6365(8)
C29_4 C 0.9209(3) 0.2806(4) 0.5337(8)
C30_4 C 0.8531(3) 0.2870(4) 0.5554(8)
Cu8_4 Cu 0.97665(6) 0.20930(7) 0.89260(14)
C31_4 C 0.9913(5) 0.0902(5) 0.8541(13)
C32_4 C 0.9862(6) 0.0867(6) 0.7661(14)
C33_4 C 0.9810(8) 0.1181(8) 0.7159(12)
C34_4 C 0.9810(7) 0.1530(6) 0.7536(17)
N11_4 N 0.9862(6) 0.1565(5) 0.8415(17)
C35_4 C 0.9913(6) 0.1251(6) 0.8918(13)
N12_4 N 0.9676(10) 0.1163(11) 0.624(3)
O11_4 O 0.9907(7) 0.0304(5) 0.8833(10)
O12_4 O 0.9975(7) 0.0583(4) 0.9816(9)
H15_4 H 0.964208 0.140009 0.58979
H16_4 H 0.962008 0.0913846 0.596594
H17_4 H 0.915042 0.269773 0.469936
H19_4 H 0.986282 0.0593375 0.736526
H22_4 H 0.992951 0.303151 0.655863
H23_4 H 0.87534 0.314024 0.709144
H24_4 H 0.946663 0.351757 0.789524
H25_4 H 0.995293 0.127854 0.960721
H26_4 H 0.976924 0.177622 0.714264
In2_14 In 1.0000 1.0000 0.0000
I11_4 I 0.77446(4) 0.90872(3) 0.16799(7)
Cu10_4 Cu 0.71878(6) 0.95510(5) 0.13759(11)
C37_4 C 0.6947(4) 0.8982(3) 0.3318(8)
N13_4 N 0.6757(3) 0.9451(3) 0.2244(7)
C38_4 C 0.6907(4) 0.9358(3) 0.3057(8)
C39_4 C 0.7104(4) 0.8920(3) 0.4127(8)
C40_4 C 0.7008(4) 0.9642(3) 0.3635(8)
C41_4 C 0.7194(4) 0.9209(3) 0.4663(8)
C42_4 C 0.7130(4) 0.8531(3) 0.4446(8)
Cu12_4 Cu 0.79070(7) 0.97665(6) 0.10740(14)
C43_4 C 0.9098(5) 0.9913(5) 0.1459(13)
C44_4 C 0.9133(6) 0.9862(6) 0.2339(14)
C45_4 C 0.8819(8) 0.9810(8) 0.2841(12)
C46_4 C 0.8470(6) 0.9810(7) 0.2464(17)
N15_4 N 0.8435(5) 0.9862(6) 0.1585(17)
C47_4 C 0.8749(6) 0.9913(6) 0.1082(13)
N16_4 N 0.8837(11) 0.9676(10) 0.376(3)
O15_4 O 0.9696(5) 0.9907(7) 0.1167(10)
O16_4 O 0.9417(4) 0.9975(7) 0.0184(9)
H29_4 H 0.685976 0.87534 0.290856
H30_4 H 0.872146 0.995293 0.0392794
H31_4 H 0.648243 0.946663 0.210476
H33_4 H 0.940663 0.986282 0.263474
H38_4 H 0.696849 0.992951 0.344137
H42_4 H 0.859991 0.964208 0.41021
H43_4 H 0.908615 0.962008 0.403406
H45_4 H 0.822378 0.976924 0.285736
H50_4 H 0.730227 0.915042 0.530064
In2_15 In 1.0000 1.0000 1.0000
I10_4 I 0.68286(3) 0.94754(2) 0.98829(6)
I12_4 I 0.79721(4) 0.98079(3) 0.93770(7)
I13_4 I 0.97484(2) 0.74278(3) 0.82588(6)
C60_4 C 0.9866(6) 0.9348(5) 0.9084(12)
loop_
_geom_bond_atom_site_label_1
_geom_bond_atom_site_label_2
_geom_bond_site_symmetry_1
_geom_bond_site_symmetry_2
In3 O7 1_555 1_555
I5 Cu5 1_555 1_555
I7 Cu6 1_555 1_555
Cu5 Cu6 1_555 1_555
Cu6 I5 1_555 1_555
O7 C19 1_555 1_555
O8 In3 1_555 1_555
C19 O8 1_555 1_555
C20 C19 1_555 1_555
C21 C20 1_555 1_555
C22 C20 1_555 1_555
C23 C21 1_555 1_555
C24 C23 1_555 1_555
N7 C23 1_555 1_555
N8 C22 1_555 1_555
C25 C26 1_555 1_555
N9 Cu6 1_555 1_555
O9 In3 1_555 1_555
C26 N9 1_555 1_555
O10 In3 1_555 1_555
C27 C25 1_555 1_555
C28 C26 1_555 1_555
C29 C27 1_555 1_555
N10 C28 1_555 1_555
C30 O9 1_555 1_555
Cu8 I5 1_555 1_555
C31 C32 1_555 1_555
C32 C33 1_555 1_555
C33 C34 1_555 1_555
C34 N11 1_555 1_555
N11 Cu8 1_555 1_555
C35 C31 1_555 1_555
C36 C31 1_555 1_555
N12 C33 1_555 1_555
O11 In2 1_555 1_555
O12 In2 1_555 1_555
I13 Cu13 1_555 1_555
I15 Cu14 1_555 1_555
Cu13 Cu14 1_555 1_555
Cu14 I13 1_555 1_555
C49 C50 1_555 1_555
N17 Cu14 1_555 1_555
O17 C54 1_555 1_555
C50 N17 1_555 1_555
O18 C54 1_555 1_555
C51 C49 1_555 1_555
C52 C50 1_555 1_555
C53 C51 1_555 1_555
N18 C52 1_555 1_555
C54 C51 1_555 1_555
Cu16 I13 1_555 1_555
C55 C56 1_555 1_555
C56 C57 1_555 1_555
C57 C58 1_555 1_555
C58 N19 1_555 1_555
N19 Cu16 1_555 1_555
C59 C55 1_555 1_555
C60 C55 1_555 1_555
N20 C57 1_555 1_555
O19 In2 1_555 1_555
O20 In2 1_555 1_555
O24 C67 1_555 1_555
C67 C68 1_555 1_555
C68 C69 1_555 1_555
C69 C71 1_555 1_555
C70 C68 1_555 1_555
C71 C72 1_555 1_555
C72 N24 1_555 1_555
N23 C71 1_555 1_555
In5 O17 1_555 1_555
Cu17 N10 1_555 1_555
Cu18 N18 1_555 1_555
Cu23 N8 1_555 1_555
O25 In3 1_555 1_555
O26 In3 1_555 1_555
O28 In3 1_555 1_555
O30 In3 1_555 1_555
I7 Cu7 1_555 1_555
I7 Cu8 1_555 1_555
Cu5 Cu7 1_555 1_555
Cu5 Cu8 1_555 1_555
Cu6 Cu7 1_555 1_555
Cu6 Cu8 1_555 1_555
Cu7 Cu8 1_555 1_555
C24 N8 1_555 1_555
O10 C30 1_555 1_555
C27 C30 1_555 1_555
C29 N10 1_555 1_555
N11 C35 1_555 1_555
C36 O11 1_555 1_555
C36 O12 1_555 1_555
I15 Cu15 1_555 1_555
I15 Cu16 1_555 1_555
Cu13 Cu15 1_555 1_555
Cu13 Cu16 1_555 1_555
Cu14 Cu15 1_555 1_555
Cu14 Cu16 1_555 1_555
Cu15 Cu16 1_555 1_555
O18 In5 1_555 1_555
C53 N18 1_555 1_555
N19 C59 1_555 1_555
C60 O19 1_555 1_555
C60 O20 1_555 1_555
O24 In6 1_555 1_555
C70 N24 1_555 1_555
N12 H15 1_555 1_555
N12 H16 1_555 1_555
C29 H17 1_555 1_555
C24 H18 1_555 1_555
C32 H19 1_555 1_555
C21 H20 1_555 1_555
C22 H21 1_555 1_555
C28 H22 1_555 1_555
C25 H23 1_555 1_555
N9 H24 1_555 1_555
C35 H25 1_555 1_555
C34 H26 1_555 1_555
N7 H27 1_555 1_555
N7 H28 1_555 1_555
C56 H32 1_555 1_555
C53 H34 1_555 1_555
C58 H35 1_555 1_555
C59 H36 1_555 1_555
N20 H39 1_555 1_555
N20 H40 1_555 1_555
C52 H41 1_555 1_555
C49 H44 1_555 1_555
N17 H46 1_555 1_555
C69 H52 1_555 1_555
N23 H54 1_555 1_555
N23 H55 1_555 1_555
C72 H56 1_555 1_555
In1 O1 1_555 1_555
I1 Cu1 1_555 1_555
I3 Cu2 1_555 1_555
Cu1 Cu2 1_555 1_555
Cu2 I1 1_555 1_555
O1 C1 1_555 1_555
O2 In1 1_555 1_555
C1 O2 1_555 1_555
C2 C1 1_555 1_555
C3 C2 1_555 1_555
C4 C2 1_555 1_555
C5 C3 1_555 1_555
C6 C5 1_555 1_555
N1 C5 1_555 1_555
N2 C4 1_555 1_555
C7 C8 1_555 1_555
N3 Cu2 1_555 1_555
O3 In1 1_555 1_555
C8 N3 1_555 1_555
O4 In1 1_555 1_555
C9 C7 1_555 1_555
C10 C8 1_555 1_555
C11 C9 1_555 1_555
N4 C10 1_555 1_555
C12 O3 1_555 1_555
Cu4 I1 1_555 1_555
In2_2 O5 1_555 1_555
C13 C14 1_555 1_555
C14 C15 1_555 1_555
C15 C16 1_555 1_555
C16 N5 1_555 1_555
N5 Cu4 1_555 1_555
C17 C13 1_555 1_555
C18 C13 1_555 1_555
N6 C15 1_555 1_555
O5 C18 1_555 1_555
O6 In2_2 1_555 1_555
I9 Cu9 1_555 1_555
I11 Cu10 1_555 1_555
Cu9 Cu10 1_555 1_555
Cu10 I9 1_555 1_555
C37 C38 1_555 1_555
N13 Cu10 1_555 1_555
O13 C42 1_555 1_555
C38 N13 1_555 1_555
O14 C42 1_555 1_555
C39 C37 1_555 1_555
C40 C38 1_555 1_555
C41 C39 1_555 1_555
N14 C40 1_555 1_555
C42 C39 1_555 1_555
Cu12 I9 1_555 1_555
C43 C44 1_555 1_555
C44 C45 1_555 1_555
C45 C46 1_555 1_555
C46 N15 1_555 1_555
N15 Cu12 1_555 1_555
C47 C43 1_555 1_555
C48 C43 1_555 1_555
N16 C45 1_555 1_555
O15 In2_2 1_555 1_555
O16 In2_2 1_555 1_555
O21 In1 1_555 1_555
O22 In1 1_555 1_555
C61 O21 1_555 1_555
C62 C61 1_555 1_555
C63 C62 1_555 1_555
C64 C62 1_555 1_555
C65 C63 1_555 1_555
C66 C65 1_555 1_555
N21 C65 1_555 1_555
N22 C64 1_555 1_555
In4 O13 1_555 1_555
In6_2 O23 1_555 1_555
Cu19 N4 1_555 1_555
Cu20 N14 1_555 1_555
Cu21 N22 1_555 1_555
Cu22 N2 1_555 1_555
O27 In1 1_555 1_555
O29 In1 1_555 1_555
I3 Cu3 1_555 1_555
I3 Cu4 1_555 1_555
Cu1 Cu3 1_555 1_555
Cu1 Cu4 1_555 1_555
Cu2 Cu3 1_555 1_555
Cu2 Cu4 1_555 1_555
Cu3 Cu4 1_555 1_555
C6 N2 1_555 1_555
O4 C12 1_555 1_555
C9 C12 1_555 1_555
C11 N4 1_555 1_555
N5 C17 1_555 1_555
C18 O6 1_555 1_555
I11 Cu11 1_555 1_555
I11 Cu12 1_555 1_555
Cu9 Cu11 1_555 1_555
Cu9 Cu12 1_555 1_555
Cu10 Cu11 1_555 1_555
Cu10 Cu12 1_555 1_555
Cu11 Cu12 1_555 1_555
O14 In4 1_555 1_555
C41 N14 1_555 1_555
N15 C47 1_555 1_555
C48 O15 1_555 1_555
C48 O16 1_555 1_555
O22 C61 1_555 1_555
C66 N22 1_555 1_555
C6 H1 1_555 1_555
C16 H2 1_555 1_555
C17 H3 1_555 1_555
N6 H4 1_555 1_555
N6 H5 1_555 1_555
N1 H6 1_555 1_555
N1 H7 1_555 1_555
C7 H8 1_555 1_555
N3 H9 1_555 1_555
C11 H10 1_555 1_555
C4 H11 1_555 1_555
C3 H12 1_555 1_555
C14 H13 1_555 1_555
C10 H14 1_555 1_555
C37 H29 1_555 1_555
C47 H30 1_555 1_555
N13 H31 1_555 1_555
C44 H33 1_555 1_555
C63 H37 1_555 1_555
C40 H38 1_555 1_555
N16 H42 1_555 1_555
N16 H43 1_555 1_555
C46 H45 1_555 1_555
C66 H47 1_555 1_555
N21 H48 1_555 1_555
N21 H49 1_555 1_555
C41 H50 1_555 1_555
C64 H51 1_555 1_555
C61_2 O25 1_555 1_555
C62_2 C61_2 1_555 1_555
C63_2 C62_2 1_555 1_555
C64_2 C62_2 1_555 1_555
C65_2 C63_2 1_555 1_555
C66_2 C65_2 1_555 1_555
N21_2 C65_2 1_555 1_555
N22_2 C64_2 1_555 1_555
In6_3 O23_2 1_555 1_555
Cu21_2 N22_2 1_555 1_555
O26 C61_2 1_555 1_555
C66_2 N22_2 1_555 1_555
C63_2 H37_2 1_555 1_555
C66_2 H47_2 1_555 1_555
N21_2 H48_2 1_555 1_555
N21_2 H49_2 1_555 1_555
C64_2 H51_2 1_555 1_555
In4 O7_2 1_555 1_555
O7_2 C19_2 1_555 1_555
O8_2 In4 1_555 1_555
C19_2 O8_2 1_555 1_555
C20_2 C19_2 1_555 1_555
C21_2 C20_2 1_555 1_555
C22_2 C20_2 1_555 1_555
C23_2 C21_2 1_555 1_555
C24_2 C23_2 1_555 1_555
N7_2 C23_2 1_555 1_555
N8_2 C22_2 1_555 1_555
O24_2 C67_2 1_555 1_555
C67_2 C68_2 1_555 1_555
C68_2 C69_2 1_555 1_555
C69_2 C71_2 1_555 1_555
C70_2 C68_2 1_555 1_555
C71_2 C72_2 1_555 1_555
C72_2 N27 1_555 1_555
N23_2 C71_2 1_555 1_555
Cu23_2 N8_2 1_555 1_555
O25_2 In4 1_555 1_555
O26_2 In4 1_555 1_555
O28_2 In4 1_555 1_555
O30_2 In4 1_555 1_555
C24_2 N8_2 1_555 1_555
O24_2 In6_4 1_555 1_555
C70_2 N27 1_555 1_555
C24_2 H18_2 1_555 1_555
C21_2 H20_2 1_555 1_555
C22_2 H21_2 1_555 1_555
N7_2 H27_2 1_555 1_555
N7_2 H28_2 1_555 1_555
C69_2 H52_2 1_555 1_555
N23_2 H54_2 1_555 1_555
N23_2 H55_2 1_555 1_555
C72_2 H56_2 1_555 1_555
In5 O7_3 1_555 1_555
O7_3 C19_3 1_555 1_555
O8_3 In5 1_555 1_555
C19_3 O8_3 1_555 1_555
C20_3 C19_3 1_555 1_555
C21_3 C20_3 1_555 1_555
C22_3 C20_3 1_555 1_555
C23_3 C21_3 1_555 1_555
C24_3 C23_3 1_555 1_555
N7_3 C23_3 1_555 1_555
N8_3 C22_3 1_555 1_555
O24_3 C67_3 1_555 1_555
C67_3 C68_3 1_555 1_555
C68_3 C69_3 1_555 1_555
C69_3 C71_3 1_555 1_555
C70_3 C68_3 1_555 1_555
C71_3 C72_3 1_555 1_555
C72_3 N25 1_555 1_555
N23_3 C71_3 1_555 1_555
Cu23_3 N8_3 1_555 1_555
O25_3 In5 1_555 1_555
O26_3 In5 1_555 1_555
O28_3 In5 1_555 1_555
O30_3 In5 1_555 1_555
C24_3 N8_3 1_555 1_555
O24_3 In6_5 1_555 1_555
C70_3 N25 1_555 1_555
C24_3 H18_3 1_555 1_555
C21_3 H20_3 1_555 1_555
C22_3 H21_3 1_555 1_555
N7_3 H27_3 1_555 1_555
N7_3 H28_3 1_555 1_555
C69_3 H52_3 1_555 1_555
N23_3 H54_3 1_555 1_555
N23_3 H55_3 1_555 1_555
C72_3 H56_3 1_555 1_555
C61_3 O25_2 1_555 1_555
C62_3 C61_3 1_555 1_555
C63_3 C62_3 1_555 1_555
C64_3 C62_3 1_555 1_555
C65_3 C63_3 1_555 1_555
C66_3 C65_3 1_555 1_555
N21_3 C65_3 1_555 1_555
N22_3 C64_3 1_555 1_555
In6_6 O23_3 1_555 1_555
Cu21_3 N22_3 1_555 1_555
O26_2 C61_3 1_555 1_555
C66_3 N22_3 1_555 1_555
C63_3 H37_3 1_555 1_555
C66_3 H47_3 1_555 1_555
N21_3 H48_3 1_555 1_555
N21_3 H49_3 1_555 1_555
C64_3 H51_3 1_555 1_555
C61_4 O25_3 1_555 1_555
C62_4 C61_4 1_555 1_555
C63_4 C62_4 1_555 1_555
C64_4 C62_4 1_555 1_555
C65_4 C63_4 1_555 1_555
C66_4 C65_4 1_555 1_555
N21_4 C65_4 1_555 1_555
N22_4 C64_4 1_555 1_555
In6_7 O23_4 1_555 1_555
Cu21_4 N22_4 1_555 1_555
O26_3 C61_4 1_555 1_555
C66_4 N22_4 1_555 1_555
C63_4 H37_4 1_555 1_555
C66_4 H47_4 1_555 1_555
N21_4 H48_4 1_555 1_555
N21_4 H49_4 1_555 1_555
C64_4 H51_4 1_555 1_555
O24_4 C67_4 1_555 1_555
C67_4 C68_4 1_555 1_555
C68_4 C69_4 1_555 1_555
C69_4 C71_4 1_555 1_555
C70_4 C68_4 1_555 1_555
C71_4 C72_4 1_555 1_555
C72_4 N26 1_555 1_555
N23_4 C71_4 1_555 1_555
O24_4 In6_8 1_555 1_555
C70_4 N26 1_555 1_555
C69_4 H52_4 1_555 1_555
N23_4 H54_4 1_555 1_555
N23_4 H55_4 1_555 1_555
C72_4 H56_4 1_555 1_555
In6 O1_2 1_555 1_555
O4_2 In6 1_555 1_555
O27_2 In6 1_555 1_555
O14_2 In6_5 1_555 1_555
I1_2 Cu17 1_555 1_555
I2_2 Cu17 1_555 1_555
I3_2 Cu2_2 1_555 1_555
I4_2 Cu17 1_555 1_555
Cu17 Cu2_2 1_555 1_555
Cu2_2 I1_2 1_555 1_555
Cu21 I2_2 1_555 1_555
O2_2 In6_2 1_555 1_555
C1_2 O2_2 1_555 1_555
C2_2 C1_2 1_555 1_555
C3_2 C2_2 1_555 1_555
C4_2 C2_2 1_555 1_555
C5_2 C3_2 1_555 1_555
C6_2 C5_2 1_555 1_555
N1_2 C5_2 1_555 1_555
N2_2 C4_2 1_555 1_555
C7_2 C8_2 1_555 1_555
N3_2 Cu2_2 1_555 1_555
O3_2 In6_2 1_555 1_555
C8_2 N3_2 1_555 1_555
C9_2 C7_2 1_555 1_555
C10_2 C8_2 1_555 1_555
C11_2 C9_2 1_555 1_555
N28 C10_2 1_555 1_555
C12_2 O3_2 1_555 1_555
Cu4_2 I1_2 1_555 1_555
In2_3 O5_2 1_555 1_555
C13_2 C14_2 1_555 1_555
C14_2 C15_2 1_555 1_555
C15_2 C16_2 1_555 1_555
C16_2 N5_2 1_555 1_555
N5_2 Cu4_2 1_555 1_555
C17_2 C13_2 1_555 1_555
C18_2 C13_2 1_555 1_555
N6_2 C15_2 1_555 1_555
O5_2 C18_2 1_555 1_555
O6_2 In2_3 1_555 1_555
I5_2 Cu19 1_555 1_555
I6_2 Cu19 1_555 1_555
I7_2 Cu6_2 1_555 1_555
I8_2 Cu19 1_555 1_555
Cu19 Cu6_2 1_555 1_555
Cu6_2 I5_2 1_555 1_555
Cu21_4 I6_2 1_555 1_555
O8_4 In6_7 1_555 1_555
C19_4 O8_4 1_555 1_555
C20_4 C19_4 1_555 1_555
C21_4 C20_4 1_555 1_555
C22_4 C20_4 1_555 1_555
C23_4 C21_4 1_555 1_555
C24_4 C23_4 1_555 1_555
N7_4 C23_4 1_555 1_555
N8_4 C22_4 1_555 1_555
C25_2 C26_2 1_555 1_555
N9_2 Cu6_2 1_555 1_555
O9_2 In6_7 1_555 1_555
C26_2 N9_2 1_555 1_555
C27_2 C25_2 1_555 1_555
C28_2 C26_2 1_555 1_555
C29_2 C27_2 1_555 1_555
N30 C28_2 1_555 1_555
C30_2 O9_2 1_555 1_555
Cu8_2 I5_2 1_555 1_555
C31_2 C32_2 1_555 1_555
C32_2 C33_2 1_555 1_555
C33_2 C34_2 1_555 1_555
C34_2 N11_2 1_555 1_555
N11_2 Cu8_2 1_555 1_555
C35_2 C31_2 1_555 1_555
C36_2 C31_2 1_555 1_555
N12_2 C33_2 1_555 1_555
O11_2 In2_3 1_555 1_555
O12_2 In2_3 1_555 1_555
I9_2 Cu18 1_555 1_555
I10_2 Cu18 1_555 1_555
I11_2 Cu10_2 1_555 1_555
I12_2 Cu18 1_555 1_555
Cu18 Cu10_2 1_555 1_555
Cu10_2 I9_2 1_555 1_555
Cu21_3 I10_2 1_555 1_555
C37_2 C38_2 1_555 1_555
N13_2 Cu10_2 1_555 1_555
O13_2 C42_2 1_555 1_555
C38_2 N13_2 1_555 1_555
C39_2 C37_2 1_555 1_555
C40_2 C38_2 1_555 1_555
C41_2 C39_2 1_555 1_555
N29 C40_2 1_555 1_555
C42_2 C39_2 1_555 1_555
Cu12_2 I9_2 1_555 1_555
C43_2 C44_2 1_555 1_555
C44_2 C45_2 1_555 1_555
C45_2 C46_2 1_555 1_555
C46_2 N15_2 1_555 1_555
N15_2 Cu12_2 1_555 1_555
C47_2 C43_2 1_555 1_555
C48_2 C43_2 1_555 1_555
N16_2 C45_2 1_555 1_555
O15_2 In2_3 1_555 1_555
O16_2 In2_3 1_555 1_555
I13_2 Cu20 1_555 1_555
I14_2 Cu20 1_555 1_555
I15_2 Cu14_2 1_555 1_555
I16_2 Cu20 1_555 1_555
Cu20 Cu14_2 1_555 1_555
Cu14_2 I13_2 1_555 1_555
Cu21_2 I14_2 1_555 1_555
C49_2 C50_2 1_555 1_555
N17_2 Cu14_2 1_555 1_555
O17_2 C54_2 1_555 1_555
C50_2 N17_2 1_555 1_555
C51_2 C49_2 1_555 1_555
C52_2 C50_2 1_555 1_555
C53_2 C51_2 1_555 1_555
N31 C52_2 1_555 1_555
C54_2 C51_2 1_555 1_555
Cu16_2 I13_2 1_555 1_555
C55_2 C56_2 1_555 1_555
C56_2 C57_2 1_555 1_555
C57_2 C58_2 1_555 1_555
C58_2 N19_2 1_555 1_555
N19_2 Cu16_2 1_555 1_555
C59_2 C55_2 1_555 1_555
C60_2 C55_2 1_555 1_555
N20_2 C57_2 1_555 1_555
O19_2 In2_3 1_555 1_555
O20_2 In2_3 1_555 1_555
In6_6 O13_2 1_555 1_555
In6_3 O17_2 1_555 1_555
O29_2 In6_2 1_555 1_555
O30_4 In6_7 1_555 1_555
I2_2 Cu2_2 1_555 1_555
I3_2 Cu21 1_555 1_555
I3_2 Cu4_2 1_555 1_555
I4_2 Cu21 1_555 1_555
I4_2 Cu4_2 1_555 1_555
Cu17 Cu21 1_555 1_555
Cu17 Cu4_2 1_555 1_555
Cu2_2 Cu21 1_555 1_555
Cu2_2 Cu4_2 1_555 1_555
Cu21 Cu4_2 1_555 1_555
C6_2 N2_2 1_555 1_555
C9_2 C12_2 1_555 1_555
C11_2 N28 1_555 1_555
N5_2 C17_2 1_555 1_555
C18_2 O6_2 1_555 1_555
I6_2 Cu6_2 1_555 1_555
I7_2 Cu21_4 1_555 1_555
I7_2 Cu8_2 1_555 1_555
I8_2 Cu21_4 1_555 1_555
I8_2 Cu8_2 1_555 1_555
Cu19 Cu21_4 1_555 1_555
Cu19 Cu8_2 1_555 1_555
Cu6_2 Cu21_4 1_555 1_555
Cu6_2 Cu8_2 1_555 1_555
Cu21_4 Cu8_2 1_555 1_555
C24_4 N8_4 1_555 1_555
C27_2 C30_2 1_555 1_555
C29_2 N30 1_555 1_555
N11_2 C35_2 1_555 1_555
C36_2 O11_2 1_555 1_555
C36_2 O12_2 1_555 1_555
I10_2 Cu10_2 1_555 1_555
I11_2 Cu21_3 1_555 1_555
I11_2 Cu12_2 1_555 1_555
I12_2 Cu21_3 1_555 1_555
I12_2 Cu12_2 1_555 1_555
Cu18 Cu21_3 1_555 1_555
Cu18 Cu12_2 1_555 1_555
Cu10_2 Cu21_3 1_555 1_555
Cu10_2 Cu12_2 1_555 1_555
Cu21_3 Cu12_2 1_555 1_555
C41_2 N29 1_555 1_555
N15_2 C47_2 1_555 1_555
C48_2 O15_2 1_555 1_555
C48_2 O16_2 1_555 1_555
I14_2 Cu14_2 1_555 1_555
I15_2 Cu21_2 1_555 1_555
I15_2 Cu16_2 1_555 1_555
I16_2 Cu21_2 1_555 1_555
I16_2 Cu16_2 1_555 1_555
Cu20 Cu21_2 1_555 1_555
Cu20 Cu16_2 1_555 1_555
Cu14_2 Cu21_2 1_555 1_555
Cu14_2 Cu16_2 1_555 1_555
Cu21_2 Cu16_2 1_555 1_555
C53_2 N31 1_555 1_555
N19_2 C59_2 1_555 1_555
C60_2 O19_2 1_555 1_555
C60_2 O20_2 1_555 1_555
C6_2 H1_2 1_555 1_555
C16_2 H2_2 1_555 1_555
C17_2 H3_2 1_555 1_555
N6_2 H4_2 1_555 1_555
N6_2 H5_2 1_555 1_555
N1_2 H6_2 1_555 1_555
N1_2 H7_2 1_555 1_555
C7_2 H8_2 1_555 1_555
N3_2 H9_2 1_555 1_555
C3_2 H12_2 1_555 1_555
C14_2 H13_2 1_555 1_555
C10_2 H14_2 1_555 1_555
N12_2 H15_2 1_555 1_555
N12_2 H16_2 1_555 1_555
C24_4 H18_4 1_555 1_555
C32_2 H19_2 1_555 1_555
C21_4 H20_4 1_555 1_555
C28_2 H22_2 1_555 1_555
C25_2 H23_2 1_555 1_555
N9_2 H24_2 1_555 1_555
C35_2 H25_2 1_555 1_555
C34_2 H26_2 1_555 1_555
N7_4 H27_4 1_555 1_555
N7_4 H28_4 1_555 1_555
C37_2 H29_2 1_555 1_555
C47_2 H30_2 1_555 1_555
N13_2 H31_2 1_555 1_555
C56_2 H32_2 1_555 1_555
C44_2 H33_2 1_555 1_555
C58_2 H35_2 1_555 1_555
C59_2 H36_2 1_555 1_555
C40_2 H38_2 1_555 1_555
N20_2 H39_2 1_555 1_555
N20_2 H40_2 1_555 1_555
C52_2 H41_2 1_555 1_555
N16_2 H42_2 1_555 1_555
N16_2 H43_2 1_555 1_555
C49_2 H44_2 1_555 1_555
C46_2 H45_2 1_555 1_555
N17_2 H46_2 1_555 1_555
In6_8 O7_4 1_555 1_555
O10_2 In6_8 1_555 1_555
O28_4 In6_8 1_555 1_555
O18_2 In6_4 1_555 1_555
In6_5 O1_3 1_555 1_555
O27_3 In6_5 1_555 1_555
O2_3 In6_6 1_555 1_555
C1_3 O2_3 1_555 1_555
C2_3 C1_3 1_555 1_555
C3_3 C2_3 1_555 1_555
C4_3 C2_3 1_555 1_555
C5_3 C3_3 1_555 1_555
C6_3 C5_3 1_555 1_555
N1_3 C5_3 1_555 1_555
N2_3 C4_3 1_555 1_555
O8_5 In6_3 1_555 1_555
C19_5 O8_5 1_555 1_555
C20_5 C19_5 1_555 1_555
C21_5 C20_5 1_555 1_555
C22_5 C20_5 1_555 1_555
C23_5 C21_5 1_555 1_555
C24_5 C23_5 1_555 1_555
N7_5 C23_5 1_555 1_555
N8_5 C22_5 1_555 1_555
O29_3 In6_6 1_555 1_555
O30_5 In6_3 1_555 1_555
C6_3 N2_3 1_555 1_555
C24_5 N8_5 1_555 1_555
C6_3 H1_3 1_555 1_555
N1_3 H6_3 1_555 1_555
N1_3 H7_3 1_555 1_555
C3_3 H12_3 1_555 1_555
C24_5 H18_5 1_555 1_555
C21_5 H20_5 1_555 1_555
N7_5 H27_5 1_555 1_555
N7_5 H28_5 1_555 1_555
In6_4 O7_5 1_555 1_555
O28_5 In6_4 1_555 1_555
I3_3 Cu2_3 1_555 1_555
Cu23_2 I2_3 1_555 1_555
C7_3 C8_3 1_555 1_555
N3_3 Cu2_3 1_555 1_555
C8_3 N3_3 1_555 1_555
C9_3 C7_3 1_555 1_555
C10_3 C8_3 1_555 1_555
C11_3 C9_3 1_555 1_555
N4_2 C10_3 1_555 1_555
C12_3 O27_3 1_555 1_555
In2_4 O5_3 1_555 1_555
C13_3 C14_3 1_555 1_555
C14_3 C15_3 1_555 1_555
C15_3 C16_3 1_555 1_555
C16_3 N5_3 1_555 1_555
N5_3 Cu4_3 1_555 1_555
C17_3 C13_3 1_555 1_555
N6_3 C15_3 1_555 1_555
O6_3 In2_4 1_555 1_555
I5_3 Cu5_2 1_555 1_555
N28_2 Cu5_2 1_555 1_555
I2_3 Cu2_3 1_555 1_555
I3_3 Cu23_2 1_555 1_555
I3_3 Cu4_3 1_555 1_555
I4_3 Cu23_2 1_555 1_555
I4_3 Cu4_3 1_555 1_555
Cu2_3 Cu23_2 1_555 1_555
Cu2_3 Cu4_3 1_555 1_555
Cu23_2 Cu4_3 1_555 1_555
C9_3 C12_3 1_555 1_555
C11_3 N4_2 1_555 1_555
N5_3 C17_3 1_555 1_555
C16_3 H2_3 1_555 1_555
C17_3 H3_3 1_555 1_555
N6_3 H4_3 1_555 1_555
N6_3 H5_3 1_555 1_555
C7_3 H8_3 1_555 1_555
N3_3 H9_3 1_555 1_555
C14_3 H13_3 1_555 1_555
C10_3 H14_3 1_555 1_555
I7_3 Cu6_3 1_555 1_555
Cu23_3 I6_3 1_555 1_555
C25_3 C26_3 1_555 1_555
N9_3 Cu6_3 1_555 1_555
C26_3 N9_3 1_555 1_555
C27_3 C25_3 1_555 1_555
C28_3 C26_3 1_555 1_555
C29_3 C27_3 1_555 1_555
N10_2 C28_3 1_555 1_555
C30_3 O28_4 1_555 1_555
C31_3 C32_3 1_555 1_555
C32_3 C33_3 1_555 1_555
C33_3 C34_3 1_555 1_555
C34_3 N11_3 1_555 1_555
N11_3 Cu8_3 1_555 1_555
C35_3 C31_3 1_555 1_555
N12_3 C33_3 1_555 1_555
O11_3 In2_5 1_555 1_555
O12_3 In2_5 1_555 1_555
I9_3 Cu9_2 1_555 1_555
N31_2 Cu9_2 1_555 1_555
I6_3 Cu6_3 1_555 1_555
I7_3 Cu23_3 1_555 1_555
I7_3 Cu8_3 1_555 1_555
I8_3 Cu23_3 1_555 1_555
I8_3 Cu8_3 1_555 1_555
Cu6_3 Cu23_3 1_555 1_555
Cu6_3 Cu8_3 1_555 1_555
Cu23_3 Cu8_3 1_555 1_555
C27_3 C30_3 1_555 1_555
C29_3 N10_2 1_555 1_555
N11_3 C35_3 1_555 1_555
N12_3 H15_3 1_555 1_555
N12_3 H16_3 1_555 1_555
C32_3 H19_3 1_555 1_555
C28_3 H22_3 1_555 1_555
C25_3 H23_3 1_555 1_555
N9_3 H24_3 1_555 1_555
C35_3 H25_3 1_555 1_555
C34_3 H26_3 1_555 1_555
I1_3 Cu1_2 1_555 1_555
I15_3 Cu14_3 1_555 1_555
Cu23 I14_3 1_555 1_555
C49_3 C50_3 1_555 1_555
N17_3 Cu14_3 1_555 1_555
O28_5 C54_3 1_555 1_555
C50_3 N17_3 1_555 1_555
C51_3 C49_3 1_555 1_555
C52_3 C50_3 1_555 1_555
C53_3 C51_3 1_555 1_555
N18_2 C52_3 1_555 1_555
C54_3 C51_3 1_555 1_555
C55_3 C56_3 1_555 1_555
C56_3 C57_3 1_555 1_555
C57_3 C58_3 1_555 1_555
C58_3 N19_3 1_555 1_555
N19_3 Cu16_3 1_555 1_555
C59_3 C55_3 1_555 1_555
N20_3 C57_3 1_555 1_555
O19_3 In2_6 1_555 1_555
O20_3 In2_6 1_555 1_555
N30_2 Cu1_2 1_555 1_555
I14_3 Cu14_3 1_555 1_555
I15_3 Cu23 1_555 1_555
I15_3 Cu16_3 1_555 1_555
I16_3 Cu23 1_555 1_555
I16_3 Cu16_3 1_555 1_555
Cu14_3 Cu23 1_555 1_555
Cu14_3 Cu16_3 1_555 1_555
Cu23 Cu16_3 1_555 1_555
C53_3 N18_2 1_555 1_555
N19_3 C59_3 1_555 1_555
C56_3 H32_3 1_555 1_555
C58_3 H35_3 1_555 1_555
C59_3 H36_3 1_555 1_555
N20_3 H39_3 1_555 1_555
N20_3 H40_3 1_555 1_555
C52_3 H41_3 1_555 1_555
C49_3 H44_3 1_555 1_555
N17_3 H46_3 1_555 1_555
I11_3 Cu10_3 1_555 1_555
Cu22 I10_3 1_555 1_555
C37_3 C38_3 1_555 1_555
N13_3 Cu10_3 1_555 1_555
O27_2 C42_3 1_555 1_555
C38_3 N13_3 1_555 1_555
C39_3 C37_3 1_555 1_555
C40_3 C38_3 1_555 1_555
C41_3 C39_3 1_555 1_555
N14_2 C40_3 1_555 1_555
C42_3 C39_3 1_555 1_555
C43_3 C44_3 1_555 1_555
C44_3 C45_3 1_555 1_555
C45_3 C46_3 1_555 1_555
C46_3 N15_3 1_555 1_555
N15_3 Cu12_3 1_555 1_555
C47_3 C43_3 1_555 1_555
N16_3 C45_3 1_555 1_555
O15_3 In2_7 1_555 1_555
O16_3 In2_7 1_555 1_555
I13_3 Cu13_2 1_555 1_555
N29_2 Cu13_2 1_555 1_555
I10_3 Cu10_3 1_555 1_555
I11_3 Cu22 1_555 1_555
I11_3 Cu12_3 1_555 1_555
I12_3 Cu22 1_555 1_555
I12_3 Cu12_3 1_555 1_555
Cu10_3 Cu22 1_555 1_555
Cu10_3 Cu12_3 1_555 1_555
Cu22 Cu12_3 1_555 1_555
C41_3 N14_2 1_555 1_555
N15_3 C47_3 1_555 1_555
C37_3 H29_3 1_555 1_555
C47_3 H30_3 1_555 1_555
N13_3 H31_3 1_555 1_555
C44_3 H33_3 1_555 1_555
C40_3 H38_3 1_555 1_555
N16_3 H42_3 1_555 1_555
N16_3 H43_3 1_555 1_555
C46_3 H45_3 1_555 1_555
I3_4 Cu2_4 1_555 1_555
C7_4 C8_4 1_555 1_555
N3_4 Cu2_4 1_555 1_555
C8_4 N3_4 1_555 1_555
C9_4 C7_4 1_555 1_555
C10_4 C8_4 1_555 1_555
C11_4 C9_4 1_555 1_555
N28_2 C10_4 1_555 1_555
C12_4 O28_2 1_555 1_555
In2_8 O5_4 1_555 1_555
C13_4 C14_4 1_555 1_555
C14_4 C15_4 1_555 1_555
C15_4 C16_4 1_555 1_555
C16_4 N5_4 1_555 1_555
N5_4 Cu4_4 1_555 1_555
C17_4 C13_4 1_555 1_555
N6_4 C15_4 1_555 1_555
O6_4 In2_8 1_555 1_555
I3_4 Cu22_3 1_555 1_555
I3_4 Cu4_4 1_555 1_555
Cu2_4 Cu22_3 1_555 1_555
Cu2_4 Cu4_4 1_555 1_555
Cu22_3 Cu4_4 1_555 1_555
O30_2 C12_4 1_555 1_555
C9_4 C12_4 1_555 1_555
C11_4 N28_2 1_555 1_555
N5_4 C17_4 1_555 1_555
C16_4 H2_4 1_555 1_555
C17_4 H3_4 1_555 1_555
N6_4 H4_4 1_555 1_555
N6_4 H5_4 1_555 1_555
C7_4 H8_4 1_555 1_555
N3_4 H9_4 1_555 1_555
C11_4 H10_4 1_555 1_555
C14_4 H13_4 1_555 1_555
C10_4 H14_4 1_555 1_555
I5_4 Cu19_2 1_555 1_555
I1_4 Cu17_2 1_555 1_555
I15_4 Cu14_4 1_555 1_555
C49_4 C50_4 1_555 1_555
N17_4 Cu14_4 1_555 1_555
O28_3 C54_4 1_555 1_555
C50_4 N17_4 1_555 1_555
O30_3 C54_4 1_555 1_555
C51_4 C49_4 1_555 1_555
C52_4 C50_4 1_555 1_555
C53_4 C51_4 1_555 1_555
N31_2 C52_4 1_555 1_555
C54_4 C51_4 1_555 1_555
C55_4 C56_4 1_555 1_555
C56_4 C57_4 1_555 1_555
C57_4 C58_4 1_555 1_555
C58_4 N19_4 1_555 1_555
N19_4 Cu16_4 1_555 1_555
C59_4 C55_4 1_555 1_555
N20_4 C57_4 1_555 1_555
O19_4 In2_11 1_555 1_555
O20_4 In2_11 1_555 1_555
I15_4 Cu23_4 1_555 1_555
I15_4 Cu16_4 1_555 1_555
Cu14_4 Cu23_4 1_555 1_555
Cu14_4 Cu16_4 1_555 1_555
Cu23_4 Cu16_4 1_555 1_555
C53_4 N31_2 1_555 1_555
N19_4 C59_4 1_555 1_555
C56_4 H32_4 1_555 1_555
C53_4 H34_4 1_555 1_555
C58_4 H35_4 1_555 1_555
C59_4 H36_4 1_555 1_555
N20_4 H39_4 1_555 1_555
N20_4 H40_4 1_555 1_555
C52_4 H41_4 1_555 1_555
C49_4 H44_4 1_555 1_555
N17_4 H46_4 1_555 1_555
I9_4 Cu18_2 1_555 1_555
I7_4 Cu6_4 1_555 1_555
C25_4 C26_4 1_555 1_555
N9_4 Cu6_4 1_555 1_555
C26_4 N9_4 1_555 1_555
C27_4 C25_4 1_555 1_555
C28_4 C26_4 1_555 1_555
C29_4 C27_4 1_555 1_555
N30_2 C28_4 1_555 1_555
C30_4 O28 1_555 1_555
C31_4 C32_4 1_555 1_555
C32_4 C33_4 1_555 1_555
C33_4 C34_4 1_555 1_555
C34_4 N11_4 1_555 1_555
N11_4 Cu8_4 1_555 1_555
C35_4 C31_4 1_555 1_555
N12_4 C33_4 1_555 1_555
O11_4 In2_13 1_555 1_555
O12_4 In2_13 1_555 1_555
I7_4 Cu23_5 1_555 1_555
I7_4 Cu8_4 1_555 1_555
Cu6_4 Cu23_5 1_555 1_555
Cu6_4 Cu8_4 1_555 1_555
Cu23_5 Cu8_4 1_555 1_555
O30 C30_4 1_555 1_555
C27_4 C30_4 1_555 1_555
C29_4 N30_2 1_555 1_555
N11_4 C35_4 1_555 1_555
N12_4 H15_4 1_555 1_555
N12_4 H16_4 1_555 1_555
C29_4 H17_4 1_555 1_555
C32_4 H19_4 1_555 1_555
C28_4 H22_4 1_555 1_555
C25_4 H23_4 1_555 1_555
N9_4 H24_4 1_555 1_555
C35_4 H25_4 1_555 1_555
C34_4 H26_4 1_555 1_555
I11_4 Cu10_4 1_555 1_555
C37_4 C38_4 1_555 1_555
N13_4 Cu10_4 1_555 1_555
O27 C42_4 1_555 1_555
C38_4 N13_4 1_555 1_555
O29 C42_4 1_555 1_555
C39_4 C37_4 1_555 1_555
C40_4 C38_4 1_555 1_555
C41_4 C39_4 1_555 1_555
N29_2 C40_4 1_555 1_555
C42_4 C39_4 1_555 1_555
C43_4 C44_4 1_555 1_555
C44_4 C45_4 1_555 1_555
C45_4 C46_4 1_555 1_555
C46_4 N15_4 1_555 1_555
N15_4 Cu12_4 1_555 1_555
C47_4 C43_4 1_555 1_555
N16_4 C45_4 1_555 1_555
O15_4 In2_14 1_555 1_555
O16_4 In2_14 1_555 1_555
I11_4 Cu22_2 1_555 1_555
I11_4 Cu12_4 1_555 1_555
Cu10_4 Cu22_2 1_555 1_555
Cu10_4 Cu12_4 1_555 1_555
Cu22_2 Cu12_4 1_555 1_555
C41_4 N29_2 1_555 1_555
N15_4 C47_4 1_555 1_555
C37_4 H29_4 1_555 1_555
C47_4 H30_4 1_555 1_555
N13_4 H31_4 1_555 1_555
C44_4 H33_4 1_555 1_555
C40_4 H38_4 1_555 1_555
N16_4 H42_4 1_555 1_555
N16_4 H43_4 1_555 1_555
C46_4 H45_4 1_555 1_555
C41_4 H50_4 1_555 1_555
I13_4 Cu20_2 1_555 1_555

#END
