
###############################################################################
#
# This file contains modified crystal structure data generated from the
# MOF subset of the Cambridge Structural Database (CSD) v543 
# hosted by the Cambridge Crystallographic Data Centre (CCDC).
#
# This work is licensed under the Creative Commons
# Attribution-NonCommercial-ShareAlike 4.0 International License.
# To view a copy of this license, visit
# http://creativecommons.org/licenses/by-nc-sa/4.0/
# or send a letter to
# Creative Commons, PO Box 1866, Mountain View, CA 94042, USA.
#
# CIF created using the CSD Python API on 29 September 2022
# The structure has been converted into the P1 space group
# The structure has a 3D framework
# The original CSD entry KOCCIQ is in the monoclinic crystal system
# The framework has been calculated to contain at least 10.0% void space
# The void calculation uses a probe of radius 1.32A, grid spacing 0.4
#
###############################################################################

data_KOCCIQ
_chemical_formula_moiety         '(C256 H160 Cd8 N16 O46)n'
_symmetry_cell_setting           triclinic
_symmetry_space_group_name_H-M   'P 1'
_symmetry_Int_Tables_number      1
_space_group_name_Hall           'P 1'
loop_
_symmetry_equiv_pos_site_id
_symmetry_equiv_pos_as_xyz
1 x,y,z
_cell_length_a                   17.1902(10)
_cell_length_b                   29.7214(18)
_cell_length_c                   16.0823(6)
_cell_angle_alpha                90
_cell_angle_beta                 98.722(5)
_cell_angle_gamma                90
_cell_volume                     8121.7
loop_
_atom_site_label
_atom_site_type_symbol
_atom_site_fract_x
_atom_site_fract_y
_atom_site_fract_z
C37 C 0.0102(5) 0.1287(3) 0.2995(5)
O9 O 0.1186(4) 0.1441(3) 0.4045(4)
O11 O 0.0248(7) 0.1828(3) 0.4018(6)
C54 C 0.0182(5) 0.0770(3) 0.1829(5)
H32 H 0.0471 0.0567 0.1559
C57 C 0.0535(5) 0.0995(3) 0.2565(5)
H35 H 0.1064 0.0947 0.2766
C64 C 0.0514(7) 0.1542(4) 0.3758(6)
Cd5 Cd 0.14706(3) 0.210048(16) 0.48578(3)
O5 O 0.6639(3) 0.21385(15) 0.0282(4)
C25 C 0.6776(4) 0.1192(2) 0.0323(4)
H7 H 0.7190 0.1359 0.0612
C33 C 0.6810(4) 0.0725(2) 0.0343(4)
H11 H 0.7235 0.0582 0.0663
Cd3 Cd 0.59866(3) 0.281545(15) 0.01965(3)
O3 O 0.7479(3) 0.82761(18) 0.4303(3)
C5 C 0.6887(4) 0.9024(2) 0.1469(4)
C8 C 0.7538(4) 0.8573(2) 0.2947(4)
C10 C 0.6555(3) 0.9262(2) 0.0666(3)
C11 C 0.6531(3) 0.9734(2) 0.0640(4)
H2 H 0.6720 0.9895 0.1125
C12 C 0.7877(4) 0.8346(2) 0.3738(4)
O6 O 0.8578(3) 0.82105(18) 0.3814(3)
C38 C 0.6793(4) 0.8752(3) 0.2865(4)
H13 H 0.6494 0.8721 0.3296
H15 H 0.6449 0.8421 0.0448
C39 C 0.6486(4) 0.8983(3) 0.2124(4)
H16 H 0.5989 0.9113 0.2084
C41 C 0.7937(4) 0.8596(3) 0.2275(4)
H18 H 0.8431 0.8463 0.2312
C53 C 0.7617(4) 0.8817(3) 0.1532(4)
H31 H 0.7895 0.8826 0.1079
Cd6 Cd 0.85294(3) 0.789952(16) 0.51422(3)
C1 C 0.1311(3) 0.3501(2) 0.5149(4)
O2 O 0.1962(3) 0.28082(15) 0.5520(3)
N1 N 0.2296(4) 0.2281(2) 0.3868(3)
C14 C 0.3411(4) 0.2460(3) 0.2808(4)
O7 O 0.0791(3) 0.27801(16) 0.4736(4)
C17 C 0.4005(4) 0.2543(3) 0.2243(4)
C18 C 0.1349(4) 0.2992(2) 0.5150(4)
N2 N 0.5133(4) 0.26856(19) 0.1186(3)
C19 C 0.0940(4) 0.5636(2) 0.4282(4)
C21 C 0.0958(4) 0.5167(2) 0.4338(4)
H5 H 0.0759 0.4997 0.3868
C22 C 0.1559(3) 0.5195(2) 0.5774(4)
H6 H 0.1762 0.5046 0.6268
C23 C 0.1267(3) 0.4444(2) 0.5107(4)
C24 C 0.1260(3) 0.4951(2) 0.5069(4)
C27 C 0.1875(4) 0.3747(2) 0.5635(4)
H8 H 0.2268 0.3598 0.5993
C29 C 0.1910(4) 0.5912(3) 0.6517(4)
C30 C 0.0601(4) 0.5854(3) 0.3484(4)
C31 C 0.0691(4) 0.3725(2) 0.4677(4)
H9 H 0.0285 0.3559 0.4374
C32 C 0.1879(4) 0.4208(2) 0.5611(4)
H10 H 0.2287 0.4366 0.5928
C34 C 0.0658(3) 0.4187(2) 0.4645(4)
H12 H 0.0236 0.4330 0.4321
C35 C 0.1561(4) 0.5665(2) 0.5752(4)
C36 C 0.1254(4) 0.5890(3) 0.5004(4)
C40 C 0.3869(4) 0.2420(3) 0.1417(4)
H17 H 0.3389 0.2295 0.1185
O10 O 0.3680(4) 0.6520(3) 0.9032(4)
C42 C 0.2166(5) 0.2178(3) 0.3077(5)
H19 H 0.1689 0.2042 0.2867
N4 N 0.1264(3) 0.6359(2) 0.4962(4)
H22 H 0.1459 0.6513 0.5396
H23 H 0.1075 0.6493 0.4502
C45 C 0.2595(5) 0.6379(3) 0.7957(5)
C46 C 0.3529(4) 0.2585(3) 0.3615(4)
H24 H 0.3996 0.2727 0.3839
C47 C 0.5272(5) 0.2806(3) 0.1973(5)
H25 H 0.5755 0.2937 0.2176
C49 C 0.4461(4) 0.2484(3) 0.0926(4)
H27 H 0.4374 0.2377 0.0376
C50 C 0.4731(5) 0.2745(3) 0.2523(4)
H28 H 0.4852 0.2840 0.3079
C51 C 0.2957(5) 0.2504(3) 0.4119(4)
H29 H 0.3044 0.2612 0.4667
C55 C 0.2693(5) 0.2259(3) 0.2528(5)
H33 H 0.2565 0.2179 0.1965
C56 C 0.2704(5) 0.5832(3) 0.6829(5)
H34 H 0.2994 0.5627 0.6565
C58 C 0.3055(5) 0.6066(3) 0.7548(6)
H36 H 0.3582 0.6019 0.7759
C59 C 0.1002(5) 0.6143(3) 0.3063(5)
H37 H 0.1527 0.6202 0.3272
C60 C 0.1498(5) 0.6198(3) 0.6940(5)
H38 H 0.0968 0.6250 0.6744
C61 C 0.1857(5) 0.6416(3) 0.7666(6)
H39 H 0.1548 0.6598 0.7954
C62 C 0.0656(6) 0.6361(3) 0.2311(6)
H40 H 0.0955 0.6553 0.2031
C63 C 0.3016(7) 0.6627(4) 0.8720(6)
O12 O 0.2795(7) 0.6919(3) 0.8947(6)
Cd4 Cd 0.40134(3) 0.718455(15) 0.98035(3)
O14 O 0.2521(3) 0.17239(18) 0.5697(3)
O16 O 0.1422(3) 0.17895(18) 0.6186(3)
O18 O 0.6320(4) 0.3480(3) 0.0968(4)
O20 O 0.7205(7) 0.3081(3) 0.1053(6)
C5_2 C 0.3113(4) 0.0976(2) 0.8531(4)
C8_2 C 0.2462(4) 0.1427(2) 0.7053(4)
C10_2 C 0.3445(3) 0.0738(2) 0.9334(3)
C11_2 C 0.3469(3) 0.0266(2) 0.9360(4)
H2_2 H 0.3280 0.0105 0.8875
C12_2 C 0.2123(4) 0.1654(2) 0.6262(4)
C38_2 C 0.3207(4) 0.1248(3) 0.7135(4)
H13_2 H 0.3506 0.1279 0.6704
H15_2 H 0.3551 0.1579 0.9552
C39_2 C 0.3514(4) 0.1017(3) 0.7876(4)
H16_2 H 0.4011 0.0887 0.7916
C41_2 C 0.2063(4) 0.1404(3) 0.7725(4)
H18_2 H 0.1569 0.1537 0.7688
C53_2 C 0.2383(4) 0.1183(3) 0.8468(4)
H31_2 H 0.2105 0.1174 0.8921
O5_2 O 0.3361(3) 0.78615(15) 0.9718(4)
C25_2 C 0.3224(4) 0.8808(2) 0.9677(4)
H7_2 H 0.2810 0.8641 0.9388
C33_2 C 0.3190(4) 0.9275(2) 0.9657(4)
H11_2 H 0.2765 0.9418 0.9337
C37_2 C 0.9898(5) 0.8713(3) 0.7005(5)
O9_2 O 0.8814(4) 0.8559(3) 0.5955(4)
O11_2 O 0.9752(7) 0.8172(3) 0.5982(6)
C54_2 C 0.9818(5) 0.9230(3) 0.8171(5)
H32_2 H 0.9529 0.9433 0.8441
C57_2 C 0.9465(5) 0.9005(3) 0.7435(5)
H35_2 H 0.8936 0.9053 0.7234
C64_2 C 0.9486(7) 0.8458(4) 0.6242(6)
C1_2 C 0.8689(3) 0.6499(2) 0.4851(4)
O2_2 O 0.8038(3) 0.71918(15) 0.4480(3)
N1_2 N 0.7704(4) 0.7719(2) 0.6132(3)
C14_2 C 0.6589(4) 0.7540(3) 0.7192(4)
O7_2 O 0.9209(3) 0.72199(16) 0.5264(4)
C17_2 C 0.5995(4) 0.7457(3) 0.7757(4)
C18_2 C 0.8651(4) 0.7008(2) 0.4850(4)
N2_2 N 0.4867(4) 0.73144(19) 0.8814(3)
C19_2 C 0.9060(4) 0.4364(2) 0.5718(4)
C21_2 C 0.9042(4) 0.4833(2) 0.5662(4)
H5_2 H 0.9241 0.5003 0.6132
C22_2 C 0.8441(3) 0.4805(2) 0.4226(4)
H6_2 H 0.8238 0.4954 0.3732
C23_2 C 0.8733(3) 0.5556(2) 0.4893(4)
C24_2 C 0.8740(3) 0.5049(2) 0.4931(4)
C27_2 C 0.8125(4) 0.6253(2) 0.4365(4)
H8_2 H 0.7732 0.6402 0.4007
C29_2 C 0.8090(4) 0.4088(3) 0.3483(4)
C30_2 C 0.9399(4) 0.4146(3) 0.6516(4)
C31_2 C 0.9309(4) 0.6275(2) 0.5323(4)
H9_2 H 0.9715 0.6441 0.5626
C32_2 C 0.8121(4) 0.5792(2) 0.4389(4)
H10_2 H 0.7713 0.5634 0.4072
C34_2 C 0.9342(3) 0.5813(2) 0.5355(4)
H12_2 H 0.9764 0.5670 0.5679
C35_2 C 0.8439(4) 0.4335(2) 0.4248(4)
C36_2 C 0.8746(4) 0.4110(3) 0.4996(4)
C40_2 C 0.6131(4) 0.7580(3) 0.8583(4)
H17_2 H 0.6611 0.7705 0.8815
C42_2 C 0.7834(5) 0.7822(3) 0.6923(5)
H19_2 H 0.8311 0.7958 0.7133
N4_2 N 0.8736(3) 0.3641(2) 0.5038(4)
H22_2 H 0.8541 0.3487 0.4604
H23_2 H 0.8925 0.3507 0.5498
C45_2 C 0.7405(5) 0.3621(3) 0.2043(5)
C46_2 C 0.6471(4) 0.7415(3) 0.6385(4)
H24_2 H 0.6004 0.7273 0.6161
C47_2 C 0.4728(5) 0.7194(3) 0.8027(5)
H25_2 H 0.4245 0.7063 0.7824
C49_2 C 0.5539(4) 0.7516(3) 0.9074(4)
H27_2 H 0.5626 0.7623 0.9624
C50_2 C 0.5269(5) 0.7255(3) 0.7477(4)
H28_2 H 0.5148 0.7160 0.6921
C51_2 C 0.7043(5) 0.7496(3) 0.5881(4)
H29_2 H 0.6956 0.7388 0.5333
C55_2 C 0.7307(5) 0.7741(3) 0.7472(5)
H33_2 H 0.7435 0.7821 0.8035
C56_2 C 0.7296(5) 0.4168(3) 0.3171(5)
H34_2 H 0.7006 0.4373 0.3435
C58_2 C 0.6945(5) 0.3934(3) 0.2452(6)
H36_2 H 0.6418 0.3981 0.2241
C59_2 C 0.8998(5) 0.3857(3) 0.6937(5)
H37_2 H 0.8473 0.3798 0.6728
C60_2 C 0.8502(5) 0.3802(3) 0.3060(5)
H38_2 H 0.9032 0.3750 0.3256
C61_2 C 0.8143(5) 0.3584(3) 0.2334(6)
H39_2 H 0.8452 0.3402 0.2046
C62_2 C 0.9344(6) 0.3639(3) 0.7689(6)
H40_2 H 0.9045 0.3447 0.7969
C63_2 C 0.6984(7) 0.3373(4) 0.1280(6)
C2 C 0.6130(4) 0.1413(2) 0.9877(4)
O1 O 0.5460(3) 0.20997(14) 0.9551(3)
C13 C 0.5590(3) 0.0699(2) 0.9417(4)
H3 H 0.5179 0.0538 0.9110
C15 C 0.6086(4) 0.1912(2) 0.9887(4)
C16 C 0.6215(3) 0.0469(2) 0.9887(3)
C19_3 C 0.9060(4) 0.0636(2) 0.0718(4)
C20 C 0.5574(4) 0.1163(2) 0.9403(4)
H4 H 0.5168 0.1308 0.9056
C21_3 C 0.9042(4) 0.0167(2) 0.0662(4)
C30_3 C 0.9399(4) 0.0854(3) 0.1516(4)
N4_3 N 0.8736(3) 0.1359(2) 0.0038(4)
H23_3 H 0.8925 0.1493 0.0498
C59_3 C 0.8998(5) 0.1143(3) 0.1937(5)
H37_3 H 0.8473 0.1202 0.1728
C62_3 C 0.9344(6) 0.1361(3) 0.2689(6)
H40_3 H 0.9045 0.1553 0.2969
Cd1 Cd 0.40134(3) 0.781545(15) 0.48035(3)
Cd2 Cd 0.85294(3) 0.710048(16) 0.01422(3)
C3 C 0.5618(4) 0.8989(2) 0.8443(4)
C4 C 0.4652(4) 0.8269(2) 0.6207(4)
C6 C 0.4993(4) 0.8511(2) 0.6978(4)
C7 C 0.5952(3) 0.9715(2) 0.9190(4)
H1 H 0.5761 0.9862 0.8690
C9 C 0.5953(3) 0.9239(2) 0.9204(3)
O4 O 0.5060(3) 0.82063(18) 0.5640(3)
N1_3 N 0.7704(4) 0.7281(2) 0.1132(3)
C14_3 C 0.6589(4) 0.7460(3) 0.2192(4)
O7_3 O 0.9209(3) 0.77801(16) 0.0264(4)
O8 O 0.3949(3) 0.81256(18) 0.6136(3)
C17_3 C 0.5995(4) 0.7543(3) 0.2757(4)
N2_3 N 0.4867(4) 0.76856(19) 0.3814(3)
H5_3 H 0.9241 0.9997 0.1132
C26 C 0.6258(3) 0.9024(2) 0.9945(3)
C28 C 0.6230(3) 0.9972(2) 0.9905(3)
C31_3 C 0.9309(4) 0.8725(2) 0.0323(4)
H9_3 H 0.9715 0.8559 0.0626
C34_3 C 0.9342(3) 0.9187(2) 0.0355(4)
H12_3 H 0.9764 0.9330 0.0679
N3 N 0.6259(4) 0.8554(3) 0.9987(4)
H14 H 0.6071 0.8399 0.9552
C40_3 C 0.6131(4) 0.7420(3) 0.3583(4)
H17_3 H 0.6611 0.7295 0.3815
C42_3 C 0.7834(5) 0.7178(3) 0.1923(5)
H19_3 H 0.8311 0.7042 0.2133
C43 C 0.5719(4) 0.8699(3) 0.7060(4)
H20 H 0.6014 0.8672 0.6623
C44 C 0.4899(4) 0.8790(3) 0.8361(4)
H21 H 0.4605 0.8818 0.8798
C46_3 C 0.6471(4) 0.7585(3) 0.1385(4)
H24_3 H 0.6004 0.7727 0.1161
C47_3 C 0.4728(5) 0.7806(3) 0.3027(5)
H25_3 H 0.4245 0.7937 0.2824
C48 C 0.4581(5) 0.8543(3) 0.7641(4)
H26 H 0.4095 0.8402 0.7617
C49_3 C 0.5539(4) 0.7484(3) 0.4074(4)
H27_3 H 0.5626 0.7377 0.4624
C50_3 C 0.5269(5) 0.7745(3) 0.2477(4)
H28_3 H 0.5148 0.7840 0.1921
C51_3 C 0.7043(5) 0.7504(3) 0.0881(4)
H29_3 H 0.6956 0.7612 0.0333
C52 C 0.6030(4) 0.8931(3) 0.7784(4)
H30 H 0.6534 0.9050 0.7824
C55_3 C 0.7307(5) 0.7259(3) 0.2472(5)
H33_3 H 0.7435 0.7179 0.3035
O13 O 0.4540(3) 0.70997(14) 0.5449(3)
O15 O 0.3361(3) 0.71385(15) 0.4718(4)
O17 O 0.8814(4) 0.6441(3) 0.0955(4)
O18_2 O 0.3680(4) 0.8480(3) 0.4032(4)
O19 O 0.9752(7) 0.6828(3) 0.0982(6)
O20_2 O 0.2795(7) 0.8081(3) 0.3947(6)
C2_2 C 0.3870(4) 0.6413(2) 0.5123(4)
C3_2 C 0.4382(4) 0.3989(2) 0.6557(4)
C4_2 C 0.5348(4) 0.3269(2) 0.8793(4)
O3_2 O 0.2521(3) 0.32761(18) 0.0697(3)
C5_3 C 0.3113(4) 0.4024(2) 0.3531(4)
C6_2 C 0.5007(4) 0.3511(2) 0.8022(4)
C7_2 C 0.4048(3) 0.4715(2) 0.5810(4)
H1_2 H 0.4239 0.4862 0.6310
C8_3 C 0.2462(4) 0.3573(2) 0.2053(4)
C9_2 C 0.4047(3) 0.4239(2) 0.5796(3)
O4_2 O 0.4940(3) 0.32063(18) 0.9360(3)
C10_3 C 0.3445(3) 0.4262(2) 0.4334(3)
C11_3 C 0.3469(3) 0.4734(2) 0.4360(4)
H2_3 H 0.3280 0.4895 0.3875
C12_3 C 0.2123(4) 0.3346(2) 0.1262(4)
O6_2 O 0.1422(3) 0.32105(18) 0.1186(3)
C13_2 C 0.4410(3) 0.5699(2) 0.5583(4)
H3_2 H 0.4821 0.5538 0.5890
O8_2 O 0.6051(3) 0.31256(18) 0.8864(3)
C15_2 C 0.3914(4) 0.6912(2) 0.5113(4)
C16_2 C 0.3785(3) 0.5469(2) 0.5113(3)
C20_2 C 0.4426(4) 0.6163(2) 0.5597(4)
H4_2 H 0.4832 0.6308 0.5944
C25_3 C 0.3224(4) 0.6192(2) 0.4677(4)
H7_3 H 0.2810 0.6359 0.4388
C26_2 C 0.3742(3) 0.4024(2) 0.5055(3)
C28_2 C 0.3770(3) 0.4972(2) 0.5095(3)
C33_3 C 0.3190(4) 0.5725(2) 0.4657(4)
H11_3 H 0.2765 0.5582 0.4337
C38_3 C 0.3207(4) 0.3752(3) 0.2135(4)
H13_3 H 0.3506 0.3721 0.1704
N3_2 N 0.3741(4) 0.3554(3) 0.5013(4)
H14_2 H 0.3929 0.3399 0.5448
H15_3 H 0.3551 0.3421 0.4552
C39_3 C 0.3514(4) 0.3983(3) 0.2876(4)
H16_3 H 0.4011 0.4113 0.2916
C41_3 C 0.2063(4) 0.3596(3) 0.2725(4)
H18_3 H 0.1569 0.3463 0.2688
C43_2 C 0.4281(4) 0.3699(3) 0.7940(4)
H20_2 H 0.3986 0.3672 0.8377
C44_2 C 0.5101(4) 0.3790(3) 0.6639(4)
H21_2 H 0.5395 0.3818 0.6202
C48_2 C 0.5419(5) 0.3543(3) 0.7359(4)
H26_2 H 0.5905 0.3402 0.7383
C52_2 C 0.3970(4) 0.3931(3) 0.7216(4)
H30_2 H 0.3466 0.4050 0.7176
C53_3 C 0.2383(4) 0.3817(3) 0.3468(4)
H31_3 H 0.2105 0.3826 0.3921
C37_3 C 0.9898(5) 0.6287(3) 0.2005(5)
C54_3 C 0.9818(5) 0.5770(3) 0.3171(5)
H32_3 H 0.9529 0.5567 0.3441
C57_3 C 0.9465(5) 0.5995(3) 0.2435(5)
H35_3 H 0.8936 0.5947 0.2234
C64_3 C 0.9486(7) 0.6542(4) 0.1242(6)
C1_3 C 0.1311(3) 0.1499(2) 0.0149(4)
O2_3 O 0.1962(3) 0.21918(15) 0.0520(3)
C18_3 C 0.1349(4) 0.2008(2) 0.0150(4)
C23_3 C 0.1267(3) 0.0556(2) 0.0107(4)
C24_3 C 0.1260(3) 0.0049(2) 0.0069(4)
C27_3 C 0.1875(4) 0.1253(2) 0.0635(4)
H8_3 H 0.2268 0.1402 0.0993
C32_3 C 0.1879(4) 0.0792(2) 0.0611(4)
H10_3 H 0.2287 0.0634 0.0928
C22_3 C 0.1559(3) 0.9805(2) 0.0774(4)
H6_3 H 0.1762 0.9954 0.1268
C29_3 C 0.1910(4) 0.9088(3) 0.1517(4)
C35_3 C 0.1561(4) 0.9335(2) 0.0752(4)
C36_3 C 0.1254(4) 0.9110(3) 0.0004(4)
H22_3 H 0.1459 0.8487 0.0396
C45_3 C 0.2595(5) 0.8621(3) 0.2957(5)
C56_3 C 0.2704(5) 0.9168(3) 0.1829(5)
H34_3 H 0.2994 0.9373 0.1565
C58_3 C 0.3055(5) 0.8934(3) 0.2548(6)
H36_3 H 0.3582 0.8981 0.2759
C60_3 C 0.1498(5) 0.8802(3) 0.1940(5)
H38_3 H 0.0968 0.8750 0.1744
C61_3 C 0.1857(5) 0.8584(3) 0.2666(6)
H39_3 H 0.1548 0.8402 0.2954
C63_3 C 0.3016(7) 0.8373(4) 0.3720(6)
C22_4 C 0.8441(3) 0.0195(2) 0.9226(4)
H6_4 H 0.8238 0.0046 0.8732
C29_4 C 0.8090(4) 0.0912(3) 0.8483(4)
C35_4 C 0.8439(4) 0.0665(2) 0.9248(4)
C36_4 C 0.8746(4) 0.0890(3) 0.9996(4)
O10_2 O 0.6320(4) 0.1520(3) 0.5968(4)
H22_4 H 0.8541 0.1513 0.9604
C45_4 C 0.7405(5) 0.1379(3) 0.7043(5)
C56_4 C 0.7296(5) 0.0832(3) 0.8171(5)
H34_4 H 0.7006 0.0627 0.8435
C58_4 C 0.6945(5) 0.1066(3) 0.7452(6)
H36_4 H 0.6418 0.1019 0.7241
C60_4 C 0.8502(5) 0.1198(3) 0.8060(5)
H38_4 H 0.9032 0.1250 0.8256
C61_4 C 0.8143(5) 0.1416(3) 0.7334(6)
H39_4 H 0.8452 0.1598 0.7046
C63_4 C 0.6984(7) 0.1627(4) 0.6280(6)
O12_2 O 0.7205(7) 0.1919(3) 0.6053(6)
Cd4_2 Cd 0.59866(3) 0.218455(15) 0.51965(3)
C1_4 C 0.8689(3) 0.8501(2) 0.9851(4)
O2_4 O 0.8038(3) 0.78082(15) 0.9480(3)
C18_4 C 0.8651(4) 0.7992(2) 0.9850(4)
C23_4 C 0.8733(3) 0.9444(2) 0.9893(4)
C24_4 C 0.8740(3) 0.9951(2) 0.9931(4)
C27_4 C 0.8125(4) 0.8747(2) 0.9365(4)
H8_4 H 0.7732 0.8598 0.9007
C32_4 C 0.8121(4) 0.9208(2) 0.9389(4)
H10_4 H 0.7713 0.9366 0.9072
O14_2 O 0.7479(3) 0.67239(18) 0.9303(3)
O16_2 O 0.8578(3) 0.67895(18) 0.8814(3)
Cd6_2 Cd 0.14706(3) 0.289952(16) 0.98578(3)
C3_3 C 0.4382(4) 0.1011(2) 0.1557(4)
C4_3 C 0.5348(4) 0.1731(2) 0.3793(4)
C6_3 C 0.5007(4) 0.1489(2) 0.3022(4)
C7_3 C 0.4048(3) 0.0285(2) 0.0810(4)
H1_3 H 0.4239 0.0138 0.1310
C9_3 C 0.4047(3) 0.0761(2) 0.0796(3)
O4_3 O 0.4940(3) 0.17937(18) 0.4360(3)
N1_4 N 0.2296(4) 0.2719(2) 0.8868(3)
C14_4 C 0.3411(4) 0.2540(3) 0.7808(4)
O7_4 O 0.0791(3) 0.22199(16) 0.9736(4)
O8_3 O 0.6051(3) 0.18744(18) 0.3864(3)
C17_4 C 0.4005(4) 0.2457(3) 0.7243(4)
N2_4 N 0.5133(4) 0.23144(19) 0.6186(3)
H5_4 H 0.0759 0.0003 0.8868
C26_3 C 0.3742(3) 0.0976(2) 0.0055(3)
C28_3 C 0.3770(3) 0.0028(2) 0.0095(3)
C31_4 C 0.0691(4) 0.1275(2) 0.9677(4)
H9_4 H 0.0285 0.1441 0.9374
C34_4 C 0.0658(3) 0.0813(2) 0.9645(4)
H12_4 H 0.0236 0.0670 0.9321
N3_3 N 0.3741(4) 0.1446(3) 0.0013(4)
H14_3 H 0.3929 0.1601 0.0448
C40_4 C 0.3869(4) 0.2580(3) 0.6417(4)
H17_4 H 0.3389 0.2705 0.6185
C42_4 C 0.2166(5) 0.2822(3) 0.8077(5)
H19_4 H 0.1689 0.2958 0.7867
C43_3 C 0.4281(4) 0.1301(3) 0.2940(4)
H20_3 H 0.3986 0.1328 0.3377
C44_3 C 0.5101(4) 0.1210(3) 0.1639(4)
H21_3 H 0.5395 0.1182 0.1202
C46_4 C 0.3529(4) 0.2415(3) 0.8615(4)
H24_4 H 0.3996 0.2273 0.8839
C47_4 C 0.5272(5) 0.2194(3) 0.6973(5)
H25_4 H 0.5755 0.2063 0.7176
C48_3 C 0.5419(5) 0.1457(3) 0.2359(4)
H26_3 H 0.5905 0.1598 0.2383
C49_4 C 0.4461(4) 0.2516(3) 0.5926(4)
H27_4 H 0.4374 0.2623 0.5376
C50_4 C 0.4731(5) 0.2255(3) 0.7523(4)
H28_4 H 0.4852 0.2160 0.8079
C51_4 C 0.2957(5) 0.2496(3) 0.9119(4)
H29_4 H 0.3044 0.2388 0.9667
C52_3 C 0.3970(4) 0.1069(3) 0.2216(4)
H30_3 H 0.3466 0.0950 0.2176
C55_4 C 0.2693(5) 0.2741(3) 0.7528(5)
H33_4 H 0.2565 0.2821 0.6965
O13_2 O 0.5460(3) 0.29003(14) 0.4551(3)
O15_2 O 0.6639(3) 0.28615(15) 0.5282(4)
O17_2 O 0.1186(4) 0.3559(3) 0.9045(4)
O19_2 O 0.0248(7) 0.3172(3) 0.9018(6)
C2_3 C 0.3870(4) 0.8587(2) 0.0123(4)
O1_2 O 0.4540(3) 0.79003(14) 0.0449(3)
C13_3 C 0.4410(3) 0.9301(2) 0.0583(4)
H3_3 H 0.4821 0.9462 0.0890
C15_3 C 0.3914(4) 0.8088(2) 0.0113(4)
C16_3 C 0.3785(3) 0.9531(2) 0.0113(3)
C19_4 C 0.0940(4) 0.9364(2) 0.9282(4)
C20_3 C 0.4426(4) 0.8837(2) 0.0597(4)
H4_3 H 0.4832 0.8692 0.0944
C21_4 C 0.0958(4) 0.9833(2) 0.9338(4)
C30_4 C 0.0601(4) 0.9146(3) 0.8484(4)
N4_4 N 0.1264(3) 0.8641(2) 0.9962(4)
H23_4 H 0.1075 0.8507 0.9502
C59_4 C 0.1002(5) 0.8857(3) 0.8063(5)
H37_4 H 0.1527 0.8798 0.8272
C62_4 C 0.0656(6) 0.8639(3) 0.7311(6)
H40_4 H 0.0955 0.8447 0.7031
C37_4 C 0.0102(5) 0.3713(3) 0.7995(5)
C54_4 C 0.0182(5) 0.4230(3) 0.6829(5)
H32_4 H 0.0471 0.4433 0.6559
C57_4 C 0.0535(5) 0.4005(3) 0.7565(5)
H35_4 H 0.1064 0.4053 0.7766
C64_4 C 0.0514(7) 0.3458(4) 0.8758(6)
C2_4 C 0.6130(4) 0.3587(2) 0.4877(4)
C3_4 C 0.5618(4) 0.6011(2) 0.3443(4)
C4_4 C 0.4652(4) 0.6731(2) 0.1207(4)
C5_4 C 0.6887(4) 0.5976(2) 0.6469(4)
C6_4 C 0.4993(4) 0.6489(2) 0.1978(4)
C7_4 C 0.5952(3) 0.5285(2) 0.4190(4)
H1_4 H 0.5761 0.5138 0.3690
C8_4 C 0.7538(4) 0.6427(2) 0.7947(4)
C9_4 C 0.5953(3) 0.5761(2) 0.4204(3)
O4_4 O 0.5060(3) 0.67937(18) 0.0640(3)
C10_4 C 0.6555(3) 0.5738(2) 0.5666(3)
C11_4 C 0.6531(3) 0.5266(2) 0.5640(4)
H2_4 H 0.6720 0.5105 0.6125
C12_4 C 0.7877(4) 0.6654(2) 0.8738(4)
C13_4 C 0.5590(3) 0.4301(2) 0.4417(4)
H3_4 H 0.5179 0.4462 0.4110
O8_4 O 0.3949(3) 0.68744(18) 0.1136(3)
C15_4 C 0.6086(4) 0.3088(2) 0.4887(4)
C16_4 C 0.6215(3) 0.4531(2) 0.4887(3)
C20_4 C 0.5574(4) 0.3837(2) 0.4403(4)
H4_4 H 0.5168 0.3692 0.4056
C25_4 C 0.6776(4) 0.3808(2) 0.5323(4)
H7_4 H 0.7190 0.3641 0.5612
C26_4 C 0.6258(3) 0.5976(2) 0.4945(3)
C28_4 C 0.6230(3) 0.5028(2) 0.4905(3)
C33_4 C 0.6810(4) 0.4275(2) 0.5343(4)
H11_4 H 0.7235 0.4418 0.5663
C38_4 C 0.6793(4) 0.6248(3) 0.7865(4)
H13_4 H 0.6494 0.6279 0.8296
N3_4 N 0.6259(4) 0.6446(3) 0.4987(4)
H14_4 H 0.6071 0.6601 0.4552
H15_4 H 0.6449 0.6579 0.5448
C39_4 C 0.6486(4) 0.6017(3) 0.7124(4)
H16_4 H 0.5989 0.5887 0.7084
C41_4 C 0.7937(4) 0.6404(3) 0.7275(4)
H18_4 H 0.8431 0.6537 0.7312
C43_4 C 0.5719(4) 0.6301(3) 0.2060(4)
H20_4 H 0.6014 0.6328 0.1623
C44_4 C 0.4899(4) 0.6210(3) 0.3361(4)
H21_4 H 0.4605 0.6182 0.3798
C48_4 C 0.4581(5) 0.6457(3) 0.2641(4)
H26_4 H 0.4095 0.6598 0.2617
C52_4 C 0.6030(4) 0.6069(3) 0.2784(4)
H30_4 H 0.6534 0.5950 0.2824
C53_4 C 0.7617(4) 0.6183(3) 0.6532(4)
H31_4 H 0.7895 0.6174 0.6079
loop_
_geom_bond_atom_site_label_1
_geom_bond_atom_site_label_2
_geom_bond_site_symmetry_1
_geom_bond_site_symmetry_2
C37 C57 1_555 1_555
O9 C64 1_555 1_555
O11 C64 1_555 1_555
H32 C54 1_555 1_555
C57 C54 1_555 1_555
H35 C57 1_555 1_555
C64 C37 1_555 1_555
Cd5 O9 1_555 1_555
O11 Cd5 1_555 1_555
H7 C25 1_555 1_555
H11 C33 1_555 1_555
O5 Cd3 1_555 1_555
C25 C33 1_555 1_555
O3 C12 1_555 1_555
C5 C10 1_555 1_555
C8 C12 1_555 1_555
C10 C11 1_555 1_555
C11 H2 1_555 1_555
C12 O6 1_555 1_555
O6 Cd6 1_555 1_555
C38 C8 1_555 1_555
H13 C38 1_555 1_555
C39 C5 1_555 1_555
H16 C39 1_555 1_555
C41 C8 1_555 1_555
H18 C41 1_555 1_555
C53 C5 1_555 1_555
H31 C53 1_555 1_555
Cd6 O3 1_555 1_555
C38 C39 1_555 1_555
C41 C53 1_555 1_555
Cd5 O2 1_555 1_555
C1 C18 1_555 1_555
O2 C18 1_555 1_555
N1 Cd5 1_555 1_555
C14 C17 1_555 1_555
O7 Cd5 1_555 1_555
C17 C40 1_555 1_555
C18 O7 1_555 1_555
N2 Cd3 1_555 1_555
C19 C21 1_555 1_555
C21 H5 1_555 1_555
C22 H6 1_555 1_555
C23 C24 1_555 1_555
C24 C21 1_555 1_555
C27 C1 1_555 1_555
H8 C27 1_555 1_555
C29 C35 1_555 1_555
C30 C19 1_555 1_555
C31 C1 1_555 1_555
H9 C31 1_555 1_555
C32 C23 1_555 1_555
H10 C32 1_555 1_555
C34 C23 1_555 1_555
H12 C34 1_555 1_555
C35 C22 1_555 1_555
C36 C19 1_555 1_555
C40 H17 1_555 1_555
O10 C63 1_555 1_555
C42 N1 1_555 1_555
H19 C42 1_555 1_555
N4 C36 1_555 1_555
H22 N4 1_555 1_555
H23 N4 1_555 1_555
C45 C58 1_555 1_555
C46 C14 1_555 1_555
H24 C46 1_555 1_555
C47 N2 1_555 1_555
H25 C47 1_555 1_555
C49 N2 1_555 1_555
H27 C49 1_555 1_555
C50 C17 1_555 1_555
H28 C50 1_555 1_555
C51 N1 1_555 1_555
H29 C51 1_555 1_555
C55 C14 1_555 1_555
H33 C55 1_555 1_555
C56 C29 1_555 1_555
H34 C56 1_555 1_555
C58 C56 1_555 1_555
H36 C58 1_555 1_555
C59 C30 1_555 1_555
H37 C59 1_555 1_555
C60 C29 1_555 1_555
H38 C60 1_555 1_555
C61 C45 1_555 1_555
H39 C61 1_555 1_555
H40 C62 1_555 1_555
C63 C45 1_555 1_555
O12 C63 1_555 1_555
Cd4 O10 1_555 1_555
O14 Cd5 1_555 1_555
O16 Cd5 1_555 1_555
O18 Cd3 1_555 1_555
O20 Cd3 1_555 1_555
C22 C24 1_555 1_555
C27 C32 1_555 1_555
C31 C34 1_555 1_555
C35 C36 1_555 1_555
C40 C49 1_555 1_555
C42 C55 1_555 1_555
C46 C51 1_555 1_555
C47 C50 1_555 1_555
C59 C62 1_555 1_555
C60 C61 1_555 1_555
O12 Cd4 1_555 1_555
O14 C12_2 1_555 1_555
C5_2 C10_2 1_555 1_555
C8_2 C12_2 1_555 1_555
C10_2 C11_2 1_555 1_555
C11_2 H2_2 1_555 1_555
C12_2 O16 1_555 1_555
C38_2 C8_2 1_555 1_555
H13_2 C38_2 1_555 1_555
C39_2 C5_2 1_555 1_555
H16_2 C39_2 1_555 1_555
C41_2 C8_2 1_555 1_555
H18_2 C41_2 1_555 1_555
C53_2 C5_2 1_555 1_555
H31_2 C53_2 1_555 1_555
C38_2 C39_2 1_555 1_555
C41_2 C53_2 1_555 1_555
H7_2 C25_2 1_555 1_555
H11_2 C33_2 1_555 1_555
O5_2 Cd4 1_555 1_555
C25_2 C33_2 1_555 1_555
C37_2 C57_2 1_555 1_555
O9_2 C64_2 1_555 1_555
O11_2 C64_2 1_555 1_555
H32_2 C54_2 1_555 1_555
C57_2 C54_2 1_555 1_555
H35_2 C57_2 1_555 1_555
C64_2 C37_2 1_555 1_555
Cd6 O9_2 1_555 1_555
O11_2 Cd6 1_555 1_555
Cd6 O2_2 1_555 1_555
C1_2 C18_2 1_555 1_555
O2_2 C18_2 1_555 1_555
N1_2 Cd6 1_555 1_555
C14_2 C17_2 1_555 1_555
O7_2 Cd6 1_555 1_555
C17_2 C40_2 1_555 1_555
C18_2 O7_2 1_555 1_555
N2_2 Cd4 1_555 1_555
C19_2 C21_2 1_555 1_555
C21_2 H5_2 1_555 1_555
C22_2 H6_2 1_555 1_555
C23_2 C24_2 1_555 1_555
C24_2 C21_2 1_555 1_555
C27_2 C1_2 1_555 1_555
H8_2 C27_2 1_555 1_555
C29_2 C35_2 1_555 1_555
C30_2 C19_2 1_555 1_555
C31_2 C1_2 1_555 1_555
H9_2 C31_2 1_555 1_555
C32_2 C23_2 1_555 1_555
H10_2 C32_2 1_555 1_555
C34_2 C23_2 1_555 1_555
H12_2 C34_2 1_555 1_555
C35_2 C22_2 1_555 1_555
C36_2 C19_2 1_555 1_555
C40_2 H17_2 1_555 1_555
O18 C63_2 1_555 1_555
C42_2 N1_2 1_555 1_555
H19_2 C42_2 1_555 1_555
N4_2 C36_2 1_555 1_555
H22_2 N4_2 1_555 1_555
H23_2 N4_2 1_555 1_555
C45_2 C58_2 1_555 1_555
C46_2 C14_2 1_555 1_555
H24_2 C46_2 1_555 1_555
C47_2 N2_2 1_555 1_555
H25_2 C47_2 1_555 1_555
C49_2 N2_2 1_555 1_555
H27_2 C49_2 1_555 1_555
C50_2 C17_2 1_555 1_555
H28_2 C50_2 1_555 1_555
C51_2 N1_2 1_555 1_555
H29_2 C51_2 1_555 1_555
C55_2 C14_2 1_555 1_555
H33_2 C55_2 1_555 1_555
C56_2 C29_2 1_555 1_555
H34_2 C56_2 1_555 1_555
C58_2 C56_2 1_555 1_555
H36_2 C58_2 1_555 1_555
C59_2 C30_2 1_555 1_555
H37_2 C59_2 1_555 1_555
C60_2 C29_2 1_555 1_555
H38_2 C60_2 1_555 1_555
C61_2 C45_2 1_555 1_555
H39_2 C61_2 1_555 1_555
H40_2 C62_2 1_555 1_555
C63_2 C45_2 1_555 1_555
O20 C63_2 1_555 1_555
C22_2 C24_2 1_555 1_555
C27_2 C32_2 1_555 1_555
C31_2 C34_2 1_555 1_555
C35_2 C36_2 1_555 1_555
C40_2 C49_2 1_555 1_555
C42_2 C55_2 1_555 1_555
C46_2 C51_2 1_555 1_555
C47_2 C50_2 1_555 1_555
C59_2 C62_2 1_555 1_555
C60_2 C61_2 1_555 1_555
C2 C15 1_555 1_555
O1 C15 1_555 1_555
C13 H3 1_555 1_555
C16 C13 1_555 1_555
C19_3 C21_3 1_555 1_555
C20 C2 1_555 1_555
H4 C20 1_555 1_555
C30_3 C19_3 1_555 1_555
H23_3 N4_3 1_555 1_555
C59_3 C30_3 1_555 1_555
H37_3 C59_3 1_555 1_555
H40_3 C62_3 1_555 1_555
C13 C20 1_555 1_555
C59_3 C62_3 1_555 1_555
Cd1 O4 1_555 1_555
C3 C9 1_555 1_555
C4 C6 1_555 1_555
C6 C43 1_555 1_555
C7 H1 1_555 1_555
C9 C7 1_555 1_555
O4 C4 1_555 1_555
N1_3 Cd2 1_555 1_555
C14_3 C17_3 1_555 1_555
O7_3 Cd2 1_555 1_555
O8 Cd1 1_555 1_555
C17_3 C40_3 1_555 1_555
N2_3 Cd1 1_555 1_555
C26 C9 1_555 1_555
C28 C7 1_555 1_555
H9_3 C31_3 1_555 1_555
H12_3 C34_3 1_555 1_555
N3 C26 1_555 1_555
H14 N3 1_555 1_555
C40_3 H17_3 1_555 1_555
C42_3 N1_3 1_555 1_555
H19_3 C42_3 1_555 1_555
C43 H20 1_555 1_555
C44 C3 1_555 1_555
H21 C44 1_555 1_555
C46_3 C14_3 1_555 1_555
H24_3 C46_3 1_555 1_555
C47_3 N2_3 1_555 1_555
H25_3 C47_3 1_555 1_555
C48 C6 1_555 1_555
H26 C48 1_555 1_555
C49_3 N2_3 1_555 1_555
H27_3 C49_3 1_555 1_555
C50_3 C17_3 1_555 1_555
H28_3 C50_3 1_555 1_555
C51_3 N1_3 1_555 1_555
H29_3 C51_3 1_555 1_555
C52 C3 1_555 1_555
H30 C52 1_555 1_555
C55_3 C14_3 1_555 1_555
H33_3 C55_3 1_555 1_555
O13 Cd1 1_555 1_555
O15 Cd1 1_555 1_555
O17 Cd2 1_555 1_555
O18_2 Cd1 1_555 1_555
O19 Cd2 1_555 1_555
O20_2 Cd1 1_555 1_555
C4 O8 1_555 1_555
C31_3 C34_3 1_555 1_555
C40_3 C49_3 1_555 1_555
C42_3 C55_3 1_555 1_555
C43 C52 1_555 1_555
C44 C48 1_555 1_555
C46_3 C51_3 1_555 1_555
C47_3 C50_3 1_555 1_555
C2_2 C15_2 1_555 1_555
O13 C15_2 1_555 1_555
C3_2 C9_2 1_555 1_555
C4_2 C6_2 1_555 1_555
O3_2 C12_3 1_555 1_555
C5_3 C10_3 1_555 1_555
C6_2 C43_2 1_555 1_555
C7_2 H1_2 1_555 1_555
C8_3 C12_3 1_555 1_555
C9_2 C7_2 1_555 1_555
O4_2 C4_2 1_555 1_555
C10_3 C11_3 1_555 1_555
O15 C15_2 1_555 1_555
C11_3 H2_3 1_555 1_555
C12_3 O6_2 1_555 1_555
C13_2 H3_2 1_555 1_555
C16_2 C13_2 1_555 1_555
C20_2 C2_2 1_555 1_555
H4_2 C20_2 1_555 1_555
C25_3 C2_2 1_555 1_555
H7_3 C25_3 1_555 1_555
C26_2 C9_2 1_555 1_555
C28_2 C7_2 1_555 1_555
C33_3 C16_2 1_555 1_555
H11_3 C33_3 1_555 1_555
C38_3 C8_3 1_555 1_555
H13_3 C38_3 1_555 1_555
N3_2 C26_2 1_555 1_555
H14_2 N3_2 1_555 1_555
H15_3 N3_2 1_555 1_555
C39_3 C5_3 1_555 1_555
H16_3 C39_3 1_555 1_555
C41_3 C8_3 1_555 1_555
H18_3 C41_3 1_555 1_555
C43_2 H20_2 1_555 1_555
C44_2 C3_2 1_555 1_555
H21_2 C44_2 1_555 1_555
C48_2 C6_2 1_555 1_555
H26_2 C48_2 1_555 1_555
C52_2 C3_2 1_555 1_555
H30_2 C52_2 1_555 1_555
C53_3 C5_3 1_555 1_555
H31_3 C53_3 1_555 1_555
C4_2 O8_2 1_555 1_555
C10_3 C26_2 1_555 1_555
C11_3 C28_2 1_555 1_555
C13_2 C20_2 1_555 1_555
C16_2 C28_2 1_555 1_555
C25_3 C33_3 1_555 1_555
C38_3 C39_3 1_555 1_555
C41_3 C53_3 1_555 1_555
C43_2 C52_2 1_555 1_555
C44_2 C48_2 1_555 1_555
C37_3 C57_3 1_555 1_555
O17 C64_3 1_555 1_555
O19 C64_3 1_555 1_555
H32_3 C54_3 1_555 1_555
C57_3 C54_3 1_555 1_555
H35_3 C57_3 1_555 1_555
C64_3 C37_3 1_555 1_555
C1_3 C18_3 1_555 1_555
O2_3 C18_3 1_555 1_555
C23_3 C24_3 1_555 1_555
C27_3 C1_3 1_555 1_555
H8_3 C27_3 1_555 1_555
C32_3 C23_3 1_555 1_555
H10_3 C32_3 1_555 1_555
C27_3 C32_3 1_555 1_555
C22_3 H6_3 1_555 1_555
C29_3 C35_3 1_555 1_555
C35_3 C22_3 1_555 1_555
O18_2 C63_3 1_555 1_555
C45_3 C58_3 1_555 1_555
C56_3 C29_3 1_555 1_555
H34_3 C56_3 1_555 1_555
C58_3 C56_3 1_555 1_555
H36_3 C58_3 1_555 1_555
C60_3 C29_3 1_555 1_555
H38_3 C60_3 1_555 1_555
C61_3 C45_3 1_555 1_555
H39_3 C61_3 1_555 1_555
C63_3 C45_3 1_555 1_555
O20_2 C63_3 1_555 1_555
C35_3 C36_3 1_555 1_555
C60_3 C61_3 1_555 1_555
C22_4 H6_4 1_555 1_555
C29_4 C35_4 1_555 1_555
C35_4 C22_4 1_555 1_555
O10_2 C63_4 1_555 1_555
C45_4 C58_4 1_555 1_555
C56_4 C29_4 1_555 1_555
H34_4 C56_4 1_555 1_555
C58_4 C56_4 1_555 1_555
H36_4 C58_4 1_555 1_555
C60_4 C29_4 1_555 1_555
H38_4 C60_4 1_555 1_555
C61_4 C45_4 1_555 1_555
H39_4 C61_4 1_555 1_555
C63_4 C45_4 1_555 1_555
O12_2 C63_4 1_555 1_555
Cd4_2 O10_2 1_555 1_555
C35_4 C36_4 1_555 1_555
C60_4 C61_4 1_555 1_555
O12_2 Cd4_2 1_555 1_555
C1_4 C18_4 1_555 1_555
O2_4 C18_4 1_555 1_555
C23_4 C24_4 1_555 1_555
C27_4 C1_4 1_555 1_555
H8_4 C27_4 1_555 1_555
C32_4 C23_4 1_555 1_555
H10_4 C32_4 1_555 1_555
C27_4 C32_4 1_555 1_555
Cd4_2 O4_3 1_555 1_555
C3_3 C9_3 1_555 1_555
C4_3 C6_3 1_555 1_555
C6_3 C43_3 1_555 1_555
C7_3 H1_3 1_555 1_555
C9_3 C7_3 1_555 1_555
O4_3 C4_3 1_555 1_555
N1_4 Cd6_2 1_555 1_555
C14_4 C17_4 1_555 1_555
O7_4 Cd6_2 1_555 1_555
O8_3 Cd4_2 1_555 1_555
C17_4 C40_4 1_555 1_555
N2_4 Cd4_2 1_555 1_555
C26_3 C9_3 1_555 1_555
C28_3 C7_3 1_555 1_555
H9_4 C31_4 1_555 1_555
H12_4 C34_4 1_555 1_555
N3_3 C26_3 1_555 1_555
H14_3 N3_3 1_555 1_555
C40_4 H17_4 1_555 1_555
C42_4 N1_4 1_555 1_555
H19_4 C42_4 1_555 1_555
C43_3 H20_3 1_555 1_555
C44_3 C3_3 1_555 1_555
H21_3 C44_3 1_555 1_555
C46_4 C14_4 1_555 1_555
H24_4 C46_4 1_555 1_555
C47_4 N2_4 1_555 1_555
H25_4 C47_4 1_555 1_555
C48_3 C6_3 1_555 1_555
H26_3 C48_3 1_555 1_555
C49_4 N2_4 1_555 1_555
H27_4 C49_4 1_555 1_555
C50_4 C17_4 1_555 1_555
H28_4 C50_4 1_555 1_555
C51_4 N1_4 1_555 1_555
H29_4 C51_4 1_555 1_555
C52_3 C3_3 1_555 1_555
H30_3 C52_3 1_555 1_555
C55_4 C14_4 1_555 1_555
H33_4 C55_4 1_555 1_555
O13_2 Cd4_2 1_555 1_555
O15_2 Cd4_2 1_555 1_555
O17_2 Cd6_2 1_555 1_555
O19_2 Cd6_2 1_555 1_555
C4_3 O8_3 1_555 1_555
C31_4 C34_4 1_555 1_555
C40_4 C49_4 1_555 1_555
C42_4 C55_4 1_555 1_555
C43_3 C52_3 1_555 1_555
C44_3 C48_3 1_555 1_555
C46_4 C51_4 1_555 1_555
C47_4 C50_4 1_555 1_555
C2_3 C15_3 1_555 1_555
O1_2 C15_3 1_555 1_555
C13_3 H3_3 1_555 1_555
C16_3 C13_3 1_555 1_555
C19_4 C21_4 1_555 1_555
C20_3 C2_3 1_555 1_555
H4_3 C20_3 1_555 1_555
C30_4 C19_4 1_555 1_555
H23_4 N4_4 1_555 1_555
C59_4 C30_4 1_555 1_555
H37_4 C59_4 1_555 1_555
H40_4 C62_4 1_555 1_555
C13_3 C20_3 1_555 1_555
C59_4 C62_4 1_555 1_555
C37_4 C57_4 1_555 1_555
O17_2 C64_4 1_555 1_555
O19_2 C64_4 1_555 1_555
H32_4 C54_4 1_555 1_555
C57_4 C54_4 1_555 1_555
H35_4 C57_4 1_555 1_555
C64_4 C37_4 1_555 1_555
C2_4 C15_4 1_555 1_555
O13_2 C15_4 1_555 1_555
C3_4 C9_4 1_555 1_555
C4_4 C6_4 1_555 1_555
O14_2 C12_4 1_555 1_555
C5_4 C10_4 1_555 1_555
C6_4 C43_4 1_555 1_555
C7_4 H1_4 1_555 1_555
C8_4 C12_4 1_555 1_555
C9_4 C7_4 1_555 1_555
O4_4 C4_4 1_555 1_555
C10_4 C11_4 1_555 1_555
O15_2 C15_4 1_555 1_555
C11_4 H2_4 1_555 1_555
C12_4 O16_2 1_555 1_555
C13_4 H3_4 1_555 1_555
C16_4 C13_4 1_555 1_555
C20_4 C2_4 1_555 1_555
H4_4 C20_4 1_555 1_555
C25_4 C2_4 1_555 1_555
H7_4 C25_4 1_555 1_555
C26_4 C9_4 1_555 1_555
C28_4 C7_4 1_555 1_555
C33_4 C16_4 1_555 1_555
H11_4 C33_4 1_555 1_555
C38_4 C8_4 1_555 1_555
H13_4 C38_4 1_555 1_555
N3_4 C26_4 1_555 1_555
H14_4 N3_4 1_555 1_555
H15_4 N3_4 1_555 1_555
C39_4 C5_4 1_555 1_555
H16_4 C39_4 1_555 1_555
C41_4 C8_4 1_555 1_555
H18_4 C41_4 1_555 1_555
C43_4 H20_4 1_555 1_555
C44_4 C3_4 1_555 1_555
H21_4 C44_4 1_555 1_555
C48_4 C6_4 1_555 1_555
H26_4 C48_4 1_555 1_555
C52_4 C3_4 1_555 1_555
H30_4 C52_4 1_555 1_555
C53_4 C5_4 1_555 1_555
H31_4 C53_4 1_555 1_555
C4_4 O8_4 1_555 1_555
C10_4 C26_4 1_555 1_555
C11_4 C28_4 1_555 1_555
C13_4 C20_4 1_555 1_555
C16_4 C28_4 1_555 1_555
C25_4 C33_4 1_555 1_555
C38_4 C39_4 1_555 1_555
C41_4 C53_4 1_555 1_555
C43_4 C52_4 1_555 1_555
C44_4 C48_4 1_555 1_555

#END
