
###############################################################################
#
# This file contains modified crystal structure data generated from the
# MOF subset of the Cambridge Structural Database (CSD) v543 
# hosted by the Cambridge Crystallographic Data Centre (CCDC).
#
# This work is licensed under the Creative Commons
# Attribution-NonCommercial-ShareAlike 4.0 International License.
# To view a copy of this license, visit
# http://creativecommons.org/licenses/by-nc-sa/4.0/
# or send a letter to
# Creative Commons, PO Box 1866, Mountain View, CA 94042, USA.
#
# CIF created using the CSD Python API on 29 September 2022
# The structure has been converted into the P1 space group
# The structure has a 3D framework
# The original CSD entry KOCCOW is in the monoclinic crystal system
# The framework has been calculated to contain at least 10.0% void space
# The void calculation uses a probe of radius 1.32A, grid spacing 0.4
# H atom positions have been added when not included in the experimental data
#
###############################################################################

data_KOCCOW
_chemical_formula_moiety         '(C256 H152 Cd8 N8 O54)n'
_symmetry_cell_setting           triclinic
_symmetry_space_group_name_H-M   'P 1'
_symmetry_Int_Tables_number      1
_space_group_name_Hall           'P 1'
loop_
_symmetry_equiv_pos_site_id
_symmetry_equiv_pos_as_xyz
1 x,y,z
_cell_length_a                   17.0229(8)
_cell_length_b                   29.8118(10)
_cell_length_c                   16.1301(6)
_cell_angle_alpha                90
_cell_angle_beta                 99.179(4)
_cell_angle_gamma                90
_cell_volume                     8080.94
loop_
_atom_site_label
_atom_site_type_symbol
_atom_site_fract_x
_atom_site_fract_y
_atom_site_fract_z
Cd3 Cd 0.59635(3) 0.220989(13) 0.02204(3)
C15 C 0.9512(6) 0.6534(3) 0.6246(5)
C16 C 0.9933(5) 0.6288(2) 0.6987(5)
C17 C 0.9507(5) 0.5961(3) 0.7394(5)
H5 H 0.8985 0.5891 0.7166
C18 C 0.9853(4) 0.5752(3) 0.8106(5)
H6 H 0.9573 0.5533 0.8348
O5 O 0.8847(4) 0.6422(2) 0.5920(4)
O6 O 0.9772(5) 0.6859(2) 0.6019(5)
Cd6 Cd 0.85701(3) 0.710588(14) 0.51303(3)
C1 C 0.6956(7) 0.1653(4) 0.1321(6)
C2 C 0.7386(6) 0.1391(2) 0.2054(5)
C3 C 0.8113(6) 0.1448(4) 0.2395(8)
C4 C 0.8474(6) 0.1227(4) 0.3116(7)
C5 C 0.8089(4) 0.0925(2) 0.3484(4)
C6 C 0.7270(5) 0.0814(3) 0.3124(6)
C7 C 0.6896(6) 0.1040(4) 0.2404(6)
C19 C 0.9371(4) 0.08637(19) 0.6521(4)
C20 C 0.8990(5) 0.1169(3) 0.6909(6)
H7 H 0.8474 0.1249 0.6675
C21 C 0.9332(6) 0.1368(3) 0.7638(6)
H8 H 0.9030 0.1573 0.7887
C22 C 0.8438(3) 0.06685(18) 0.4250(4)
C23 C 0.8444(3) 0.01935(18) 0.4210(4)
C25 C 0.9038(3) 0.01603(18) 0.5646(4)
C26 C 0.9031(3) 0.06372(18) 0.5706(4)
C27 C 0.8724(3) 0.08852(19) 0.4994(4)
C33 C 0.6810(3) 0.42908(18) 0.0322(4)
H11 H 0.7246 0.4431 0.0639
C34 C 0.6771(3) 0.38318(18) 0.0309(4)
H12 H 0.7187 0.3666 0.0604
C42 C 0.7921(4) 0.66648(19) 0.3721(4)
C43 C 0.7576(3) 0.64294(18) 0.2939(4)
C44 C 0.7943(4) 0.6431(3) 0.2240(4)
H17 H 0.8425 0.6581 0.2259
C45 C 0.7610(4) 0.6215(3) 0.1504(4)
H18 H 0.7874 0.6225 0.1042
C46 C 0.6910(3) 0.59886(17) 0.1440(4)
C47 C 0.6522(4) 0.5994(3) 0.2131(4)
H19 H 0.6033 0.5850 0.2102
C48 C 0.6852(4) 0.6211(3) 0.2868(4)
H20 H 0.6580 0.6209 0.3324
C50 C 0.6553(3) 0.52769(17) 0.0629(4)
C51 C 0.6571(3) 0.57476(18) 0.0647(3)
C55 C 0.5563(4) 0.7465(3) 0.9054(4)
H21 H 0.5655 0.7352 0.9599
C56 C 0.6146(4) 0.7401(3) 0.8552(4)
H22 H 0.6619 0.7257 0.8769
C57 C 0.6025(3) 0.75500(18) 0.7739(3)
C58 C 0.5318(4) 0.7755(2) 0.7477(4)
H23 H 0.5196 0.7856 0.6926
C59 C 0.4777(5) 0.7815(2) 0.8019(4)
H24 H 0.4303 0.7963 0.7821
C60 C 0.7102(4) 0.7531(3) 0.5873(4)
H25 H 0.7019 0.7647 0.5330
C61 C 0.6537(4) 0.7629(3) 0.6400(4)
H26 H 0.6102 0.7811 0.6203
C62 C 0.6623(3) 0.74644(18) 0.7177(3)
C63 C 0.7316(6) 0.7240(3) 0.7436(5)
H27 H 0.7443 0.7145 0.7991
C64 C 0.7827(6) 0.7153(3) 0.6878(6)
H28 H 0.8279 0.6984 0.7070
O1 O 0.6303(5) 0.1524(3) 0.0940(4)
O2 O 0.7164(6) 0.1986(3) 0.1131(6)
O8 O 0.6626(3) 0.28856(13) 0.0272(4)
O11 O 0.8635(3) 0.68021(16) 0.3800(3)
O12 O 0.7509(3) 0.67182(15) 0.4292(3)
O14 O 0.8715(3) 0.13538(18) 0.5041(3)
N1 N 0.7728(3) 0.72882(17) 0.6103(3)
N2 N 0.4896(3) 0.76738(17) 0.8804(3)
Cd4 Cd 0.40365(3) 0.779011(13) 0.97796(3)
O15 O 0.8082(3) 0.78094(13) 0.4453(3)
O16 O 0.9261(3) 0.77860(14) 0.5232(4)
N3 N 0.5104(3) 0.23262(17) 0.1196(3)
H29 H 0.90876 0.130649 0.337914
H30 H 0.628706 0.0965391 0.211626
H31 H 0.694976 0.0556403 0.341335
H32 H 0.847084 0.168472 0.210111
H34 H 0.821348 0.00256292 0.362177
H36 H 0.678648 0.508649 0.119061
H37 H 0.683536 0.655306 0.0133352
H38 H 0.815861 0.146304 0.490027
C8 C 0.8694(4) 0.8006(2) 0.4821(4)
C9 C 0.8722(4) 0.8502(2) 0.4804(4)
C10 C 0.8140(4) 0.87536(18) 0.4334(4)
H1 H 0.7732 0.8608 0.3983
C11 C 0.8140(3) 0.92088(18) 0.4367(4)
H2 H 0.7726 0.9366 0.4047
C12 C 0.8745(3) 0.94479(18) 0.4868(4)
C13 C 0.9355(3) 0.91918(19) 0.5327(4)
H3 H 0.9773 0.9337 0.5664
C14 C 0.9349(3) 0.87341(19) 0.5291(4)
H4 H 0.9768 0.8574 0.5595
C24 C 0.8742(3) 0.99387(18) 0.4916(4)
H33 H 0.928604 0.996521 0.619669
C15_2 C 0.0488(6) 0.3466(3) 0.3754(5)
C16_2 C 0.0067(5) 0.3712(2) 0.3013(5)
C17_2 C 0.0493(5) 0.4039(3) 0.2606(5)
H5_2 H 0.1015 0.4109 0.2834
C18_2 C 0.0147(4) 0.4248(3) 0.1894(5)
H6_2 H 0.0427 0.4467 0.1652
O5_2 O 0.1153(4) 0.3578(2) 0.4080(4)
O6_2 O 0.0228(5) 0.3141(2) 0.3981(5)
Cd6_2 Cd 0.14299(3) 0.289412(14) 0.48697(3)
C8_2 C 0.1306(4) 0.1994(2) 0.5179(4)
C9_2 C 0.1278(4) 0.1498(2) 0.5196(4)
C10_2 C 0.1860(4) 0.12464(18) 0.5666(4)
H1_2 H 0.2268 0.1392 0.6017
C11_2 C 0.1860(3) 0.07912(18) 0.5633(4)
H2_2 H 0.2274 0.0634 0.5953
C12_2 C 0.1255(3) 0.05521(18) 0.5132(4)
C13_2 C 0.0645(3) 0.08082(19) 0.4673(4)
H3_2 H 0.0227 0.0663 0.4336
C14_2 C 0.0651(3) 0.12659(19) 0.4709(4)
H4_2 H 0.0232 0.1426 0.4405
C24_2 C 0.1258(3) 0.00613(18) 0.5084(4)
O3 O 0.1918(3) 0.21906(13) 0.5547(3)
O4 O 0.0739(3) 0.22140(14) 0.4768(4)
H33_2 H 0.0713963 0.00347948 0.380331
C1_2 C 0.3044(7) 0.8347(4) 0.8679(6)
C2_2 C 0.2614(6) 0.8609(2) 0.7946(5)
C3_2 C 0.1887(6) 0.8552(4) 0.7605(8)
C4_2 C 0.1526(6) 0.8773(4) 0.6884(7)
C5_2 C 0.1911(4) 0.9075(2) 0.6516(4)
C6_2 C 0.2730(5) 0.9186(3) 0.6876(6)
C7_2 C 0.3104(6) 0.8960(4) 0.7596(6)
C19_2 C 0.0629(4) 0.91363(19) 0.3479(4)
C20_2 C 0.1010(5) 0.8831(3) 0.3091(6)
H7_2 H 0.1526 0.8751 0.3325
C21_2 C 0.0668(6) 0.8632(3) 0.2362(6)
H8_2 H 0.0970 0.8427 0.2113
C22_2 C 0.1562(3) 0.93315(18) 0.5750(4)
C23_2 C 0.1556(3) 0.98065(18) 0.5790(4)
C25_2 C 0.0962(3) 0.98397(18) 0.4354(4)
C26_2 C 0.0969(3) 0.93628(18) 0.4294(4)
C27_2 C 0.1276(3) 0.91148(19) 0.5006(4)
C33_2 C 0.3190(3) 0.57092(18) 0.9678(4)
H11_2 H 0.2754 0.5569 0.9361
C34_2 C 0.3229(3) 0.61682(18) 0.9691(4)
H12_2 H 0.2813 0.6334 0.9396
C42_2 C 0.2079(4) 0.33352(19) 0.6279(4)
C43_2 C 0.2424(3) 0.35706(18) 0.7061(4)
C44_2 C 0.2057(4) 0.3569(3) 0.7760(4)
H17_2 H 0.1575 0.3419 0.7741
C45_2 C 0.2390(4) 0.3785(3) 0.8496(4)
H18_2 H 0.2126 0.3775 0.8958
C46_2 C 0.3090(3) 0.40114(17) 0.8560(4)
C47_2 C 0.3478(4) 0.4006(3) 0.7869(4)
H19_2 H 0.3967 0.4150 0.7898
C48_2 C 0.3148(4) 0.3789(3) 0.7132(4)
H20_2 H 0.3420 0.3791 0.6676
C50_2 C 0.3447(3) 0.47231(17) 0.9371(4)
C51_2 C 0.3429(3) 0.42524(18) 0.9353(3)
C55_2 C 0.4437(4) 0.2535(3) 0.0946(4)
H21_2 H 0.4345 0.2648 0.0401
C56_2 C 0.3854(4) 0.2599(3) 0.1448(4)
H22_2 H 0.3381 0.2743 0.1231
C57_2 C 0.3975(3) 0.24500(18) 0.2261(3)
C58_2 C 0.4682(4) 0.2245(2) 0.2523(4)
H23_2 H 0.4804 0.2144 0.3074
C59_2 C 0.5223(5) 0.2185(2) 0.1981(4)
H24_2 H 0.5697 0.2037 0.2179
C60_2 C 0.2898(4) 0.2469(3) 0.4127(4)
H25_2 H 0.2981 0.2353 0.4670
C61_2 C 0.3463(4) 0.2371(3) 0.3600(4)
H26_2 H 0.3898 0.2189 0.3797
C62_2 C 0.3377(3) 0.25356(18) 0.2823(3)
C63_2 C 0.2684(6) 0.2760(3) 0.2564(5)
H27_2 H 0.2557 0.2855 0.2009
C64_2 C 0.2173(6) 0.2847(3) 0.3122(6)
H28_2 H 0.1721 0.3016 0.2930
O1_2 O 0.3697(5) 0.8476(3) 0.9060(4)
O2_2 O 0.2836(6) 0.8014(3) 0.8869(6)
O8_2 O 0.3374(3) 0.71144(13) 0.9728(4)
O11_2 O 0.1365(3) 0.31979(16) 0.6200(3)
O12_2 O 0.2491(3) 0.32818(15) 0.5708(3)
O14_2 O 0.1285(3) 0.86462(18) 0.4959(3)
N1_2 N 0.2272(3) 0.27118(17) 0.3897(3)
H29_2 H 0.0912395 0.869351 0.662086
H30_2 H 0.371294 0.903461 0.788374
H31_2 H 0.305024 0.94436 0.658665
H32_2 H 0.152916 0.831528 0.789889
H34_2 H 0.178652 0.997437 0.637823
H36_2 H 0.321352 0.491351 0.880939
H37_2 H 0.316464 0.344694 0.986665
H38_2 H 0.184139 0.853696 0.509973
C35 C 0.5349(4) 0.17631(19) 0.8809(4)
C36 C 0.5015(3) 0.15079(18) 0.8036(4)
C37 C 0.4297(5) 0.1279(3) 0.7984(5)
H13 H 0.4025 0.1283 0.8441
C38 C 0.3975(4) 0.1042(3) 0.7261(4)
H14 H 0.3495 0.0890 0.7243
C39 C 0.4358(3) 0.10316(17) 0.6583(4)
C40 C 0.5042(5) 0.1284(3) 0.6625(4)
H15 H 0.5293 0.1298 0.6154
C41 C 0.5375(4) 0.1518(2) 0.7350(4)
H16 H 0.5842 0.1680 0.7357
C42_3 C 0.2079(4) 0.16648(19) 0.1279(4)
C43_3 C 0.2424(3) 0.14294(18) 0.2061(4)
C44_3 C 0.2057(4) 0.1431(3) 0.2760(4)
H17_3 H 0.1575 0.1581 0.2741
C45_3 C 0.2390(4) 0.1215(3) 0.3496(4)
H18_3 H 0.2126 0.1225 0.3958
C46_3 C 0.3090(3) 0.09886(17) 0.3560(4)
C47_3 C 0.3478(4) 0.0994(3) 0.2869(4)
H19_3 H 0.3967 0.0850 0.2898
C48_3 C 0.3148(4) 0.1211(3) 0.2132(4)
H20_3 H 0.3420 0.1209 0.1676
C49 C 0.3766(3) 0.00516(17) 0.5113(3)
C50_3 C 0.3447(3) 0.02769(17) 0.4371(4)
C51_3 C 0.3429(3) 0.07476(18) 0.4353(3)
C52 C 0.3729(3) 0.09894(17) 0.5077(3)
C53 C 0.4035(3) 0.07731(17) 0.5817(3)
C54 C 0.4053(3) 0.03004(18) 0.5834(4)
O9 O 0.6041(3) 0.19162(15) 0.8880(3)
O10 O 0.4929(3) 0.18114(15) 0.9385(3)
O11_3 O 0.1365(3) 0.18021(16) 0.1200(3)
O12_3 O 0.2491(3) 0.17182(15) 0.0708(3)
O13 O 0.3721(4) 0.1447(2) 0.5028(4)
O15_2 O 0.1918(3) 0.28094(13) 0.0547(3)
H35 H 0.429251 0.0127056 0.641367
H36_3 H 0.321352 0.0086494 0.380939
H37_3 H 0.316464 0.155306 0.486665
Cd1 Cd 0.40365(3) 0.720989(13) 0.47796(3)
C1_3 C 0.3044(7) 0.6653(4) 0.3679(6)
C2_3 C 0.2614(6) 0.6391(2) 0.2946(5)
C3_3 C 0.1887(6) 0.6448(4) 0.2605(8)
C4_3 C 0.1526(6) 0.6227(4) 0.1884(7)
C5_3 C 0.1911(4) 0.5925(2) 0.1516(4)
C6_3 C 0.2730(5) 0.5814(3) 0.1876(6)
C7_3 C 0.3104(6) 0.6040(4) 0.2596(6)
C8_3 C 0.1306(4) 0.3006(2) 0.0179(4)
C9_3 C 0.1278(4) 0.3502(2) 0.0196(4)
C10_3 C 0.1860(4) 0.37536(18) 0.0666(4)
H1_3 H 0.2268 0.3608 0.1017
C11_3 C 0.1860(3) 0.42088(18) 0.0633(4)
H2_3 H 0.2274 0.4366 0.0953
C12_3 C 0.1255(3) 0.44479(18) 0.0132(4)
C22_3 C 0.1562(3) 0.56685(18) 0.0750(4)
C23_3 C 0.1556(3) 0.51935(18) 0.0790(4)
C24_3 C 0.1258(3) 0.49387(18) 0.0084(4)
C27_3 C 0.1276(3) 0.58852(19) 0.0006(4)
C28 C 0.3953(4) 0.8108(2) 0.5106(4)
C29 C 0.3884(3) 0.86077(18) 0.5140(3)
C30 C 0.4466(3) 0.88584(18) 0.5606(4)
H9 H 0.4893 0.8715 0.5929
C31 C 0.4431(3) 0.93243(18) 0.5606(4)
H10 H 0.4838 0.9486 0.5926
C32 C 0.3795(3) 0.95538(18) 0.5133(3)
C33_3 C 0.3190(3) 0.92908(18) 0.4678(4)
H11_3 H 0.2754 0.9431 0.4361
C34_3 C 0.3229(3) 0.88318(18) 0.4691(4)
H12_3 H 0.2813 0.8666 0.4396
O1_3 O 0.3697(5) 0.6524(3) 0.4060(4)
O2_3 O 0.2836(6) 0.6986(3) 0.3869(6)
O7 O 0.4577(3) 0.79240(13) 0.5419(3)
O8_3 O 0.3374(3) 0.78856(13) 0.4728(4)
O19 O 0.3959(3) 0.69162(15) 0.6120(3)
O20 O 0.5071(3) 0.68114(15) 0.5615(3)
N3_2 N 0.4896(3) 0.73262(17) 0.3804(3)
H29_3 H 0.0912395 0.630649 0.162086
H30_3 H 0.371294 0.596539 0.288374
H31_3 H 0.305024 0.55564 0.158665
H32_3 H 0.152916 0.668472 0.289889
H34_3 H 0.178652 0.502563 0.137823
H38_3 H 0.184139 0.646304 0.00997317
C28_2 C 0.6047(4) 0.3108(2) 0.9894(4)
C29_2 C 0.6116(3) 0.36077(18) 0.9860(3)
C30_2 C 0.5534(3) 0.38584(18) 0.9394(4)
H9_2 H 0.5107 0.3715 0.9071
C31_2 C 0.5569(3) 0.43243(18) 0.9394(4)
H10_2 H 0.5162 0.4486 0.9074
C32_2 C 0.6205(3) 0.45538(18) 0.9867(3)
C35_2 C 0.4651(4) 0.67631(19) 0.6191(4)
C36_2 C 0.4985(3) 0.65079(18) 0.6964(4)
C37_2 C 0.5703(5) 0.6279(3) 0.7016(5)
H13_2 H 0.5975 0.6283 0.6559
C38_2 C 0.6025(4) 0.6042(3) 0.7739(4)
H14_2 H 0.6505 0.5890 0.7757
C39_2 C 0.5642(3) 0.60316(17) 0.8417(4)
C40_2 C 0.4958(5) 0.6284(3) 0.8375(4)
H15_2 H 0.4707 0.6298 0.8846
C41_2 C 0.4625(4) 0.6518(2) 0.7650(4)
H16_2 H 0.4158 0.6680 0.7643
C49_2 C 0.6234(3) 0.50516(17) 0.9887(3)
C52_2 C 0.6271(3) 0.59894(17) 0.9923(3)
C53_2 C 0.5965(3) 0.57731(17) 0.9183(3)
C54_2 C 0.5947(3) 0.53004(18) 0.9166(4)
O7_2 O 0.5423(3) 0.29240(13) 0.9581(3)
O13_2 O 0.6279(4) 0.6447(2) 0.9972(4)
H35_2 H 0.570749 0.512706 0.858633
C13_3 C 0.9355(3) 0.58082(19) 0.0327(4)
H3_3 H 0.9773 0.5663 0.0664
C14_3 C 0.9349(3) 0.62659(19) 0.0291(4)
H4_3 H 0.9768 0.6426 0.0595
C19_3 C 0.9371(4) 0.41363(19) 0.1521(4)
C20_3 C 0.8990(5) 0.3831(3) 0.1909(6)
H7_3 H 0.8474 0.3751 0.1675
C21_3 C 0.9332(6) 0.3632(3) 0.2638(6)
H8_3 H 0.9030 0.3427 0.2887
C25_3 C 0.9038(3) 0.48397(18) 0.0646(4)
C26_3 C 0.9031(3) 0.43628(18) 0.0706(4)
O4_2 O 0.9261(3) 0.72140(14) 0.0232(4)
O14_3 O 0.8715(3) 0.36462(18) 0.0041(3)
Cd5 Cd 0.85701(3) 0.789412(14) 0.01303(3)
H33_3 H 0.928604 0.503479 0.119669
C55_3 C 0.5563(4) 0.7535(3) 0.4054(4)
H21_3 H 0.5655 0.7648 0.4599
C56_3 C 0.6146(4) 0.7599(3) 0.3552(4)
H22_3 H 0.6619 0.7743 0.3769
C57_3 C 0.6025(3) 0.74500(18) 0.2739(3)
C58_3 C 0.5318(4) 0.7245(2) 0.2477(4)
H23_3 H 0.5196 0.7144 0.1926
C59_3 C 0.4777(5) 0.7185(2) 0.3019(4)
H24_3 H 0.4303 0.7037 0.2821
C60_3 C 0.7102(4) 0.7469(3) 0.0873(4)
H25_3 H 0.7019 0.7353 0.0330
C61_3 C 0.6537(4) 0.7371(3) 0.1400(4)
H26_3 H 0.6102 0.7189 0.1203
C62_3 C 0.6623(3) 0.75356(18) 0.2177(3)
C63_3 C 0.7316(6) 0.7760(3) 0.2436(5)
H27_3 H 0.7443 0.7855 0.2991
C64_3 C 0.7827(6) 0.7847(3) 0.1878(6)
H28_3 H 0.8279 0.8016 0.2070
N1_3 N 0.7728(3) 0.77118(17) 0.1103(3)
O17 O 0.8847(4) 0.8578(2) 0.0920(4)
O18 O 0.9772(5) 0.8141(2) 0.1019(5)
C15_3 C 0.9512(6) 0.8466(3) 0.1246(5)
C16_3 C 0.9933(5) 0.8712(2) 0.1987(5)
C17_3 C 0.9507(5) 0.9039(3) 0.2394(5)
H5_3 H 0.8985 0.9109 0.2166
C18_3 C 0.9853(4) 0.9248(3) 0.3106(5)
H6_3 H 0.9573 0.9467 0.3348
Cd2 Cd 0.14299(3) 0.210588(14) 0.98697(3)
C55_4 C 0.4437(4) 0.2465(3) 0.5946(4)
H21_4 H 0.4345 0.2352 0.5401
C56_4 C 0.3854(4) 0.2401(3) 0.6448(4)
H22_4 H 0.3381 0.2257 0.6231
C57_4 C 0.3975(3) 0.25500(18) 0.7261(3)
C58_4 C 0.4682(4) 0.2755(2) 0.7523(4)
H23_4 H 0.4804 0.2856 0.8074
C59_4 C 0.5223(5) 0.2815(2) 0.6981(4)
H24_4 H 0.5697 0.2963 0.7179
C60_4 C 0.2898(4) 0.2531(3) 0.9127(4)
H25_4 H 0.2981 0.2647 0.9670
C61_4 C 0.3463(4) 0.2629(3) 0.8600(4)
H26_4 H 0.3898 0.2811 0.8797
C62_4 C 0.3377(3) 0.24644(18) 0.7823(3)
C63_4 C 0.2684(6) 0.2240(3) 0.7564(5)
H27_4 H 0.2557 0.2145 0.7009
C64_4 C 0.2173(6) 0.2153(3) 0.8122(6)
H28_4 H 0.1721 0.1984 0.7930
N1_4 N 0.2272(3) 0.22882(17) 0.8897(3)
N2_2 N 0.5104(3) 0.26738(17) 0.6196(3)
Cd4_2 Cd 0.59635(3) 0.279011(13) 0.52204(3)
O16_2 O 0.0739(3) 0.27860(14) 0.9768(4)
O17_2 O 0.1153(4) 0.1422(2) 0.9080(4)
O18_2 O 0.0228(5) 0.1859(2) 0.8981(5)
C13_4 C 0.0645(3) 0.41918(19) 0.9673(4)
H3_4 H 0.0227 0.4337 0.9336
C14_4 C 0.0651(3) 0.37341(19) 0.9709(4)
H4_4 H 0.0232 0.3574 0.9405
C19_4 C 0.0629(4) 0.58637(19) 0.8479(4)
C20_4 C 0.1010(5) 0.6169(3) 0.8091(6)
H7_4 H 0.1526 0.6249 0.8325
C21_4 C 0.0668(6) 0.6368(3) 0.7362(6)
H8_4 H 0.0970 0.6573 0.7113
C25_4 C 0.0962(3) 0.51603(18) 0.9354(4)
C26_4 C 0.0969(3) 0.56372(18) 0.9294(4)
O14_4 O 0.1285(3) 0.63538(18) 0.9959(3)
H33_4 H 0.0713963 0.496521 0.880331
C15_4 C 0.0488(6) 0.1534(3) 0.8754(5)
C16_4 C 0.0067(5) 0.1288(2) 0.8013(5)
C17_4 C 0.0493(5) 0.0961(3) 0.7606(5)
H5_4 H 0.1015 0.0891 0.7834
C18_4 C 0.0147(4) 0.0752(3) 0.6894(5)
H6_4 H 0.0427 0.0533 0.6652
C1_4 C 0.6956(7) 0.3347(4) 0.6321(6)
C2_4 C 0.7386(6) 0.3609(2) 0.7054(5)
C3_4 C 0.8113(6) 0.3552(4) 0.7395(8)
C4_4 C 0.8474(6) 0.3773(4) 0.8116(7)
C5_4 C 0.8089(4) 0.4075(2) 0.8484(4)
C6_4 C 0.7270(5) 0.4186(3) 0.8124(6)
C7_4 C 0.6896(6) 0.3960(4) 0.7404(6)
C8_4 C 0.8694(4) 0.6994(2) 0.9821(4)
C9_4 C 0.8722(4) 0.6498(2) 0.9804(4)
C10_4 C 0.8140(4) 0.62464(18) 0.9334(4)
H1_4 H 0.7732 0.6392 0.8983
C11_4 C 0.8140(3) 0.57912(18) 0.9367(4)
H2_4 H 0.7726 0.5634 0.9047
C12_4 C 0.8745(3) 0.55521(18) 0.9868(4)
C22_4 C 0.8438(3) 0.43315(18) 0.9250(4)
C23_4 C 0.8444(3) 0.48065(18) 0.9210(4)
C24_4 C 0.8742(3) 0.50613(18) 0.9916(4)
C27_4 C 0.8724(3) 0.41148(19) 0.9994(4)
C28_3 C 0.6047(4) 0.1892(2) 0.4894(4)
C29_3 C 0.6116(3) 0.13923(18) 0.4860(3)
C30_3 C 0.5534(3) 0.11416(18) 0.4394(4)
H9_3 H 0.5107 0.1285 0.4071
C31_3 C 0.5569(3) 0.06757(18) 0.4394(4)
H10_3 H 0.5162 0.0514 0.4074
C32_3 C 0.6205(3) 0.04462(18) 0.4867(3)
C33_4 C 0.6810(3) 0.07092(18) 0.5322(4)
H11_4 H 0.7246 0.0569 0.5639
C34_4 C 0.6771(3) 0.11682(18) 0.5309(4)
H12_4 H 0.7187 0.1334 0.5604
O1_4 O 0.6303(5) 0.3476(3) 0.5940(4)
O2_4 O 0.7164(6) 0.3014(3) 0.6131(6)
O3_2 O 0.8082(3) 0.71906(13) 0.9453(3)
O7_3 O 0.5423(3) 0.20760(13) 0.4581(3)
O8_4 O 0.6626(3) 0.21144(13) 0.5272(4)
O19_2 O 0.6041(3) 0.30838(15) 0.3880(3)
O20_2 O 0.4929(3) 0.31886(15) 0.4385(3)
H29_4 H 0.90876 0.369351 0.837914
H30_4 H 0.628706 0.403461 0.711626
H31_4 H 0.694976 0.44436 0.841335
H32_4 H 0.847084 0.331528 0.710111
H34_4 H 0.821348 0.497437 0.862177
H38_4 H 0.815861 0.353696 0.990027
C35_3 C 0.4651(4) 0.82369(19) 0.1191(4)
C36_3 C 0.4985(3) 0.84921(18) 0.1964(4)
C37_3 C 0.5703(5) 0.8721(3) 0.2016(5)
H13_3 H 0.5975 0.8717 0.1559
C38_3 C 0.6025(4) 0.8958(3) 0.2739(4)
H14_3 H 0.6505 0.9110 0.2757
C39_3 C 0.5642(3) 0.89684(17) 0.3417(4)
C40_3 C 0.4958(5) 0.8716(3) 0.3375(4)
H15_3 H 0.4707 0.8702 0.3846
C41_3 C 0.4625(4) 0.8482(2) 0.2650(4)
H16_3 H 0.4158 0.8320 0.2643
C42_4 C 0.7921(4) 0.83352(19) 0.8721(4)
C43_4 C 0.7576(3) 0.85706(18) 0.7939(4)
C44_4 C 0.7943(4) 0.8569(3) 0.7240(4)
H17_4 H 0.8425 0.8419 0.7259
C45_4 C 0.7610(4) 0.8785(3) 0.6504(4)
H18_4 H 0.7874 0.8775 0.6042
C46_4 C 0.6910(3) 0.90114(17) 0.6440(4)
C47_4 C 0.6522(4) 0.9006(3) 0.7131(4)
H19_4 H 0.6033 0.9150 0.7102
C48_4 C 0.6852(4) 0.8789(3) 0.7868(4)
H20_4 H 0.6580 0.8791 0.8324
C49_3 C 0.6234(3) 0.99484(17) 0.4887(3)
C50_4 C 0.6553(3) 0.97231(17) 0.5629(4)
C51_4 C 0.6571(3) 0.92524(18) 0.5647(3)
C52_3 C 0.6271(3) 0.90106(17) 0.4923(3)
C53_3 C 0.5965(3) 0.92269(17) 0.4183(3)
C54_3 C 0.5947(3) 0.96996(18) 0.4166(4)
O9_2 O 0.3959(3) 0.80838(15) 0.1120(3)
O10_2 O 0.5071(3) 0.81886(15) 0.0615(3)
O11_4 O 0.8635(3) 0.81979(16) 0.8800(3)
O12_4 O 0.7509(3) 0.82818(15) 0.9292(3)
O13_3 O 0.6279(4) 0.8553(2) 0.4972(4)
H35_3 H 0.570749 0.987294 0.358633
H36_4 H 0.678648 0.991351 0.619061
H37_4 H 0.683536 0.844694 0.513335
C28_4 C 0.3953(4) 0.6892(2) 0.0106(4)
C29_4 C 0.3884(3) 0.63923(18) 0.0140(3)
C30_4 C 0.4466(3) 0.61416(18) 0.0606(4)
H9_4 H 0.4893 0.6285 0.0929
C31_4 C 0.4431(3) 0.56757(18) 0.0606(4)
H10_4 H 0.4838 0.5514 0.0926
C32_4 C 0.3795(3) 0.54462(18) 0.0133(3)
C35_4 C 0.5349(4) 0.32369(19) 0.3809(4)
C36_4 C 0.5015(3) 0.34921(18) 0.3036(4)
C37_4 C 0.4297(5) 0.3721(3) 0.2984(5)
H13_4 H 0.4025 0.3717 0.3441
C38_4 C 0.3975(4) 0.3958(3) 0.2261(4)
H14_4 H 0.3495 0.4110 0.2243
C39_4 C 0.4358(3) 0.39684(17) 0.1583(4)
C40_4 C 0.5042(5) 0.3716(3) 0.1625(4)
H15_4 H 0.5293 0.3702 0.1154
C41_4 C 0.5375(4) 0.3482(2) 0.2350(4)
H16_4 H 0.5842 0.3320 0.2357
C49_4 C 0.3766(3) 0.49484(17) 0.0113(3)
C52_4 C 0.3729(3) 0.40106(17) 0.0077(3)
C53_4 C 0.4035(3) 0.42269(17) 0.0817(3)
C54_4 C 0.4053(3) 0.46996(18) 0.0834(4)
O7_4 O 0.4577(3) 0.70760(13) 0.0419(3)
O13_4 O 0.3721(4) 0.3553(2) 0.0028(4)
H35_4 H 0.429251 0.487294 0.141367
loop_
_geom_bond_atom_site_label_1
_geom_bond_atom_site_label_2
_geom_bond_site_symmetry_1
_geom_bond_site_symmetry_2
C15 C16 1_555 1_555
C16 C17 1_555 1_555
C17 H5 1_555 1_555
C18 C17 1_555 1_555
H6 C18 1_555 1_555
O5 C15 1_555 1_555
O6 C15 1_555 1_555
Cd6 O5 1_555 1_555
O6 Cd6 1_555 1_555
Cd3 O1 1_555 1_555
Cd6 O11 1_555 1_555
C1 C2 1_555 1_555
C2 C3 1_555 1_555
C3 C4 1_555 1_555
C4 C5 1_555 1_555
C5 C6 1_555 1_555
C6 C7 1_555 1_555
C7 C2 1_555 1_555
C20 C19 1_555 1_555
H7 C20 1_555 1_555
H8 C21 1_555 1_555
C22 C5 1_555 1_555
C23 C22 1_555 1_555
C26 C19 1_555 1_555
C27 C22 1_555 1_555
H11 C33 1_555 1_555
H12 C34 1_555 1_555
C42 C43 1_555 1_555
C43 C44 1_555 1_555
C44 H17 1_555 1_555
C45 C44 1_555 1_555
H18 C45 1_555 1_555
C46 C45 1_555 1_555
C47 C46 1_555 1_555
H19 C47 1_555 1_555
C48 C43 1_555 1_555
H20 C48 1_555 1_555
C51 C46 1_555 1_555
C55 H21 1_555 1_555
C56 C55 1_555 1_555
H22 C56 1_555 1_555
C57 C56 1_555 1_555
C58 C57 1_555 1_555
H23 C58 1_555 1_555
C59 C58 1_555 1_555
H24 C59 1_555 1_555
C60 H25 1_555 1_555
C61 C60 1_555 1_555
H26 C61 1_555 1_555
C62 C57 1_555 1_555
C63 C62 1_555 1_555
H27 C63 1_555 1_555
C64 C63 1_555 1_555
H28 C64 1_555 1_555
O1 C1 1_555 1_555
O2 Cd3 1_555 1_555
O8 Cd3 1_555 1_555
O11 C42 1_555 1_555
O12 Cd6 1_555 1_555
O14 C27 1_555 1_555
N1 Cd6 1_555 1_555
N2 C55 1_555 1_555
Cd4 N2 1_555 1_555
O15 Cd6 1_555 1_555
O16 Cd6 1_555 1_555
N3 Cd3 1_555 1_555
C1 O2 1_555 1_555
C20 C21 1_555 1_555
C25 C26 1_555 1_555
C26 C27 1_555 1_555
C33 C34 1_555 1_555
C42 O12 1_555 1_555
C47 C48 1_555 1_555
C50 C51 1_555 1_555
C59 N2 1_555 1_555
C60 N1 1_555 1_555
C61 C62 1_555 1_555
C64 N1 1_555 1_555
C4 H29 1_555 1_555
C7 H30 1_555 1_555
C6 H31 1_555 1_555
C3 H32 1_555 1_555
C23 H34 1_555 1_555
C50 H36 1_555 1_555
O14 H38 1_555 1_555
C8 C9 1_555 1_555
C9 C10 1_555 1_555
C10 H1 1_555 1_555
C11 C10 1_555 1_555
H2 C11 1_555 1_555
C12 C11 1_555 1_555
C13 C12 1_555 1_555
H3 C13 1_555 1_555
C14 C9 1_555 1_555
H4 C14 1_555 1_555
C24 C12 1_555 1_555
O15 C8 1_555 1_555
O16 C8 1_555 1_555
C13 C14 1_555 1_555
C15_2 C16_2 1_555 1_555
C16_2 C17_2 1_555 1_555
C17_2 H5_2 1_555 1_555
C18_2 C17_2 1_555 1_555
H6_2 C18_2 1_555 1_555
O5_2 C15_2 1_555 1_555
O6_2 C15_2 1_555 1_555
Cd6_2 O5_2 1_555 1_555
O6_2 Cd6_2 1_555 1_555
C8_2 C9_2 1_555 1_555
C9_2 C10_2 1_555 1_555
C10_2 H1_2 1_555 1_555
C11_2 C10_2 1_555 1_555
H2_2 C11_2 1_555 1_555
C12_2 C11_2 1_555 1_555
C13_2 C12_2 1_555 1_555
H3_2 C13_2 1_555 1_555
C14_2 C9_2 1_555 1_555
H4_2 C14_2 1_555 1_555
C24_2 C12_2 1_555 1_555
O3 C8_2 1_555 1_555
O4 C8_2 1_555 1_555
Cd6_2 O3 1_555 1_555
C13_2 C14_2 1_555 1_555
O4 Cd6_2 1_555 1_555
Cd4 O1_2 1_555 1_555
Cd6_2 O11_2 1_555 1_555
C1_2 C2_2 1_555 1_555
C2_2 C3_2 1_555 1_555
C3_2 C4_2 1_555 1_555
C4_2 C5_2 1_555 1_555
C5_2 C6_2 1_555 1_555
C6_2 C7_2 1_555 1_555
C7_2 C2_2 1_555 1_555
C20_2 C19_2 1_555 1_555
H7_2 C20_2 1_555 1_555
H8_2 C21_2 1_555 1_555
C22_2 C5_2 1_555 1_555
C23_2 C22_2 1_555 1_555
C26_2 C19_2 1_555 1_555
C27_2 C22_2 1_555 1_555
H11_2 C33_2 1_555 1_555
H12_2 C34_2 1_555 1_555
C42_2 C43_2 1_555 1_555
C43_2 C44_2 1_555 1_555
C44_2 H17_2 1_555 1_555
C45_2 C44_2 1_555 1_555
H18_2 C45_2 1_555 1_555
C46_2 C45_2 1_555 1_555
C47_2 C46_2 1_555 1_555
H19_2 C47_2 1_555 1_555
C48_2 C43_2 1_555 1_555
H20_2 C48_2 1_555 1_555
C51_2 C46_2 1_555 1_555
C55_2 H21_2 1_555 1_555
C56_2 C55_2 1_555 1_555
H22_2 C56_2 1_555 1_555
C57_2 C56_2 1_555 1_555
C58_2 C57_2 1_555 1_555
H23_2 C58_2 1_555 1_555
C59_2 C58_2 1_555 1_555
H24_2 C59_2 1_555 1_555
C60_2 H25_2 1_555 1_555
C61_2 C60_2 1_555 1_555
H26_2 C61_2 1_555 1_555
C62_2 C57_2 1_555 1_555
C63_2 C62_2 1_555 1_555
H27_2 C63_2 1_555 1_555
C64_2 C63_2 1_555 1_555
H28_2 C64_2 1_555 1_555
O1_2 C1_2 1_555 1_555
O2_2 Cd4 1_555 1_555
O8_2 Cd4 1_555 1_555
O11_2 C42_2 1_555 1_555
O12_2 Cd6_2 1_555 1_555
O14_2 C27_2 1_555 1_555
N1_2 Cd6_2 1_555 1_555
N3 C55_2 1_555 1_555
C1_2 O2_2 1_555 1_555
C20_2 C21_2 1_555 1_555
C25_2 C26_2 1_555 1_555
C26_2 C27_2 1_555 1_555
C33_2 C34_2 1_555 1_555
C42_2 O12_2 1_555 1_555
C47_2 C48_2 1_555 1_555
C50_2 C51_2 1_555 1_555
C59_2 N3 1_555 1_555
C60_2 N1_2 1_555 1_555
C61_2 C62_2 1_555 1_555
C64_2 N1_2 1_555 1_555
C4_2 H29_2 1_555 1_555
C7_2 H30_2 1_555 1_555
C6_2 H31_2 1_555 1_555
C3_2 H32_2 1_555 1_555
C23_2 H34_2 1_555 1_555
C50_2 H36_2 1_555 1_555
O14_2 H38_2 1_555 1_555
C35 C36 1_555 1_555
C36 C37 1_555 1_555
C37 H13 1_555 1_555
C38 C37 1_555 1_555
H14 C38 1_555 1_555
C39 C38 1_555 1_555
C40 C39 1_555 1_555
H15 C40 1_555 1_555
C41 C36 1_555 1_555
H16 C41 1_555 1_555
C42_3 C43_3 1_555 1_555
C43_3 C44_3 1_555 1_555
C44_3 H17_3 1_555 1_555
C45_3 C44_3 1_555 1_555
H18_3 C45_3 1_555 1_555
C46_3 C45_3 1_555 1_555
C47_3 C46_3 1_555 1_555
H19_3 C47_3 1_555 1_555
C48_3 C43_3 1_555 1_555
H20_3 C48_3 1_555 1_555
C50_3 C49 1_555 1_555
C51_3 C46_3 1_555 1_555
C52 C51_3 1_555 1_555
C53 C39 1_555 1_555
C54 C49 1_555 1_555
O9 C35 1_555 1_555
O10 C35 1_555 1_555
O11_3 C42_3 1_555 1_555
O13 C52 1_555 1_555
C40 C41 1_555 1_555
C42_3 O12_3 1_555 1_555
C47_3 C48_3 1_555 1_555
C50_3 C51_3 1_555 1_555
C52 C53 1_555 1_555
C53 C54 1_555 1_555
C54 H35 1_555 1_555
C50_3 H36_3 1_555 1_555
O13 H37_3 1_555 1_555
Cd1 O1_3 1_555 1_555
C1_3 C2_3 1_555 1_555
C2_3 C3_3 1_555 1_555
C3_3 C4_3 1_555 1_555
C4_3 C5_3 1_555 1_555
C5_3 C6_3 1_555 1_555
C6_3 C7_3 1_555 1_555
C7_3 C2_3 1_555 1_555
C8_3 C9_3 1_555 1_555
C9_3 C10_3 1_555 1_555
C10_3 H1_3 1_555 1_555
C11_3 C10_3 1_555 1_555
H2_3 C11_3 1_555 1_555
C12_3 C11_3 1_555 1_555
C22_3 C5_3 1_555 1_555
C23_3 C22_3 1_555 1_555
C24_3 C12_3 1_555 1_555
C27_3 C22_3 1_555 1_555
C28 C29 1_555 1_555
C29 C30 1_555 1_555
C30 H9 1_555 1_555
C31 C30 1_555 1_555
H10 C31 1_555 1_555
C32 C31 1_555 1_555
C33_3 C32 1_555 1_555
H11_3 C33_3 1_555 1_555
C34_3 C29 1_555 1_555
H12_3 C34_3 1_555 1_555
O1_3 C1_3 1_555 1_555
O2_3 Cd1 1_555 1_555
O15_2 C8_3 1_555 1_555
O7 Cd1 1_555 1_555
O8_3 Cd1 1_555 1_555
O19 Cd1 1_555 1_555
O20 Cd1 1_555 1_555
N3_2 Cd1 1_555 1_555
C1_3 O2_3 1_555 1_555
C23_3 C24_3 1_555 1_555
C28 O7 1_555 1_555
C28 O8_3 1_555 1_555
C33_3 C34_3 1_555 1_555
C4_3 H29_3 1_555 1_555
C7_3 H30_3 1_555 1_555
C6_3 H31_3 1_555 1_555
C3_3 H32_3 1_555 1_555
C23_3 H34_3 1_555 1_555
C28_2 C29_2 1_555 1_555
C29_2 C30_2 1_555 1_555
C30_2 H9_2 1_555 1_555
C31_2 C30_2 1_555 1_555
H10_2 C31_2 1_555 1_555
C32_2 C31_2 1_555 1_555
C35_2 C36_2 1_555 1_555
C36_2 C37_2 1_555 1_555
C37_2 H13_2 1_555 1_555
C38_2 C37_2 1_555 1_555
H14_2 C38_2 1_555 1_555
C39_2 C38_2 1_555 1_555
C40_2 C39_2 1_555 1_555
H15_2 C40_2 1_555 1_555
C41_2 C36_2 1_555 1_555
H16_2 C41_2 1_555 1_555
C49_2 C32_2 1_555 1_555
C53_2 C39_2 1_555 1_555
C54_2 C49_2 1_555 1_555
O19 C35_2 1_555 1_555
O20 C35_2 1_555 1_555
O13_2 C52_2 1_555 1_555
C28_2 O7_2 1_555 1_555
C40_2 C41_2 1_555 1_555
C52_2 C53_2 1_555 1_555
C53_2 C54_2 1_555 1_555
C54_2 H35_2 1_555 1_555
H3_3 C13_3 1_555 1_555
H4_3 C14_3 1_555 1_555
C20_3 C19_3 1_555 1_555
H7_3 C20_3 1_555 1_555
H8_3 C21_3 1_555 1_555
C26_3 C19_3 1_555 1_555
C13_3 C14_3 1_555 1_555
C20_3 C21_3 1_555 1_555
C25_3 C26_3 1_555 1_555
O4_2 Cd5 1_555 1_555
C25_3 H33_3 1_555 1_555
C55_3 H21_3 1_555 1_555
C56_3 C55_3 1_555 1_555
H22_3 C56_3 1_555 1_555
C57_3 C56_3 1_555 1_555
C58_3 C57_3 1_555 1_555
H23_3 C58_3 1_555 1_555
C59_3 C58_3 1_555 1_555
H24_3 C59_3 1_555 1_555
C60_3 H25_3 1_555 1_555
C61_3 C60_3 1_555 1_555
H26_3 C61_3 1_555 1_555
C62_3 C57_3 1_555 1_555
C63_3 C62_3 1_555 1_555
H27_3 C63_3 1_555 1_555
C64_3 C63_3 1_555 1_555
H28_3 C64_3 1_555 1_555
N1_3 Cd5 1_555 1_555
N3_2 C55_3 1_555 1_555
O17 Cd5 1_555 1_555
O18 Cd5 1_555 1_555
C59_3 N3_2 1_555 1_555
C60_3 N1_3 1_555 1_555
C61_3 C62_3 1_555 1_555
C64_3 N1_3 1_555 1_555
C15_3 C16_3 1_555 1_555
C16_3 C17_3 1_555 1_555
C17_3 H5_3 1_555 1_555
C18_3 C17_3 1_555 1_555
H6_3 C18_3 1_555 1_555
O17 C15_3 1_555 1_555
O18 C15_3 1_555 1_555
C55_4 H21_4 1_555 1_555
C56_4 C55_4 1_555 1_555
H22_4 C56_4 1_555 1_555
C57_4 C56_4 1_555 1_555
C58_4 C57_4 1_555 1_555
H23_4 C58_4 1_555 1_555
C59_4 C58_4 1_555 1_555
H24_4 C59_4 1_555 1_555
C60_4 H25_4 1_555 1_555
C61_4 C60_4 1_555 1_555
H26_4 C61_4 1_555 1_555
C62_4 C57_4 1_555 1_555
C63_4 C62_4 1_555 1_555
H27_4 C63_4 1_555 1_555
C64_4 C63_4 1_555 1_555
H28_4 C64_4 1_555 1_555
N1_4 Cd2 1_555 1_555
N2_2 C55_4 1_555 1_555
Cd4_2 N2_2 1_555 1_555
O16_2 Cd2 1_555 1_555
O17_2 Cd2 1_555 1_555
O18_2 Cd2 1_555 1_555
C59_4 N2_2 1_555 1_555
C60_4 N1_4 1_555 1_555
C61_4 C62_4 1_555 1_555
C64_4 N1_4 1_555 1_555
H3_4 C13_4 1_555 1_555
H4_4 C14_4 1_555 1_555
C20_4 C19_4 1_555 1_555
H7_4 C20_4 1_555 1_555
H8_4 C21_4 1_555 1_555
C26_4 C19_4 1_555 1_555
C13_4 C14_4 1_555 1_555
C20_4 C21_4 1_555 1_555
C25_4 C26_4 1_555 1_555
C25_4 H33_4 1_555 1_555
C15_4 C16_4 1_555 1_555
C16_4 C17_4 1_555 1_555
C17_4 H5_4 1_555 1_555
C18_4 C17_4 1_555 1_555
H6_4 C18_4 1_555 1_555
O17_2 C15_4 1_555 1_555
O18_2 C15_4 1_555 1_555
Cd4_2 O1_4 1_555 1_555
C1_4 C2_4 1_555 1_555
C2_4 C3_4 1_555 1_555
C3_4 C4_4 1_555 1_555
C4_4 C5_4 1_555 1_555
C5_4 C6_4 1_555 1_555
C6_4 C7_4 1_555 1_555
C7_4 C2_4 1_555 1_555
C8_4 C9_4 1_555 1_555
C9_4 C10_4 1_555 1_555
C10_4 H1_4 1_555 1_555
C11_4 C10_4 1_555 1_555
H2_4 C11_4 1_555 1_555
C12_4 C11_4 1_555 1_555
C22_4 C5_4 1_555 1_555
C23_4 C22_4 1_555 1_555
C24_4 C12_4 1_555 1_555
C27_4 C22_4 1_555 1_555
C28_3 C29_3 1_555 1_555
C29_3 C30_3 1_555 1_555
C30_3 H9_3 1_555 1_555
C31_3 C30_3 1_555 1_555
H10_3 C31_3 1_555 1_555
C32_3 C31_3 1_555 1_555
C33_4 C32_3 1_555 1_555
H11_4 C33_4 1_555 1_555
C34_4 C29_3 1_555 1_555
H12_4 C34_4 1_555 1_555
O1_4 C1_4 1_555 1_555
O2_4 Cd4_2 1_555 1_555
O3_2 C8_4 1_555 1_555
O7_3 Cd4_2 1_555 1_555
O8_4 Cd4_2 1_555 1_555
O19_2 Cd4_2 1_555 1_555
O20_2 Cd4_2 1_555 1_555
C1_4 O2_4 1_555 1_555
C23_4 C24_4 1_555 1_555
C28_3 O7_3 1_555 1_555
C28_3 O8_4 1_555 1_555
C33_4 C34_4 1_555 1_555
C4_4 H29_4 1_555 1_555
C7_4 H30_4 1_555 1_555
C6_4 H31_4 1_555 1_555
C3_4 H32_4 1_555 1_555
C23_4 H34_4 1_555 1_555
C35_3 C36_3 1_555 1_555
C36_3 C37_3 1_555 1_555
C37_3 H13_3 1_555 1_555
C38_3 C37_3 1_555 1_555
H14_3 C38_3 1_555 1_555
C39_3 C38_3 1_555 1_555
C40_3 C39_3 1_555 1_555
H15_3 C40_3 1_555 1_555
C41_3 C36_3 1_555 1_555
H16_3 C41_3 1_555 1_555
C42_4 C43_4 1_555 1_555
C43_4 C44_4 1_555 1_555
C44_4 H17_4 1_555 1_555
C45_4 C44_4 1_555 1_555
H18_4 C45_4 1_555 1_555
C46_4 C45_4 1_555 1_555
C47_4 C46_4 1_555 1_555
H19_4 C47_4 1_555 1_555
C48_4 C43_4 1_555 1_555
H20_4 C48_4 1_555 1_555
C50_4 C49_3 1_555 1_555
C51_4 C46_4 1_555 1_555
C52_3 C51_4 1_555 1_555
C53_3 C39_3 1_555 1_555
C54_3 C49_3 1_555 1_555
O9_2 C35_3 1_555 1_555
O10_2 C35_3 1_555 1_555
O11_4 C42_4 1_555 1_555
O13_3 C52_3 1_555 1_555
C40_3 C41_3 1_555 1_555
C42_4 O12_4 1_555 1_555
C47_4 C48_4 1_555 1_555
C50_4 C51_4 1_555 1_555
C52_3 C53_3 1_555 1_555
C53_3 C54_3 1_555 1_555
C54_3 H35_3 1_555 1_555
C50_4 H36_4 1_555 1_555
O13_3 H37_4 1_555 1_555
C28_4 C29_4 1_555 1_555
C29_4 C30_4 1_555 1_555
C30_4 H9_4 1_555 1_555
C31_4 C30_4 1_555 1_555
H10_4 C31_4 1_555 1_555
C32_4 C31_4 1_555 1_555
C35_4 C36_4 1_555 1_555
C36_4 C37_4 1_555 1_555
C37_4 H13_4 1_555 1_555
C38_4 C37_4 1_555 1_555
H14_4 C38_4 1_555 1_555
C39_4 C38_4 1_555 1_555
C40_4 C39_4 1_555 1_555
H15_4 C40_4 1_555 1_555
C41_4 C36_4 1_555 1_555
H16_4 C41_4 1_555 1_555
C49_4 C32_4 1_555 1_555
C53_4 C39_4 1_555 1_555
C54_4 C49_4 1_555 1_555
O19_2 C35_4 1_555 1_555
O20_2 C35_4 1_555 1_555
O13_4 C52_4 1_555 1_555
C28_4 O7_4 1_555 1_555
C40_4 C41_4 1_555 1_555
C52_4 C53_4 1_555 1_555
C53_4 C54_4 1_555 1_555
C54_4 H35_4 1_555 1_555

#END
