
###############################################################################
#
# This file contains modified crystal structure data generated from the
# MOF subset of the Cambridge Structural Database (CSD) v543 
# hosted by the Cambridge Crystallographic Data Centre (CCDC).
#
# This work is licensed under the Creative Commons
# Attribution-NonCommercial-ShareAlike 4.0 International License.
# To view a copy of this license, visit
# http://creativecommons.org/licenses/by-nc-sa/4.0/
# or send a letter to
# Creative Commons, PO Box 1866, Mountain View, CA 94042, USA.
#
# CIF created using the CSD Python API on 29 September 2022
# The structure has been converted into the P1 space group
# The structure has a 3D framework
# The original CSD entry KOCCUC is in the triclinic crystal system
# The framework has been calculated to contain at least 10.0% void space
# The void calculation uses a probe of radius 1.32A, grid spacing 0.4
# H atom positions have been added when not included in the experimental data
# Generated hydrogen atom positions removed from atoms on special positions
#
###############################################################################

data_KOCCUC
_chemical_formula_moiety         '(C54 H40 Cd2 N2 O14)n'
_symmetry_cell_setting           triclinic
_symmetry_space_group_name_H-M   'P 1'
_symmetry_Int_Tables_number      1
_space_group_name_Hall           'P 1'
loop_
_symmetry_equiv_pos_site_id
_symmetry_equiv_pos_as_xyz
1 x,y,z
_cell_length_a                   9.3028(5)
_cell_length_b                   14.9043(7)
_cell_length_c                   15.2092(7)
_cell_angle_alpha                70.594(4)
_cell_angle_beta                 83.472(4)
_cell_angle_gamma                84.978(4)
_cell_volume                     1973.29
loop_
_atom_site_label
_atom_site_type_symbol
_atom_site_fract_x
_atom_site_fract_y
_atom_site_fract_z
Cd1 Cd 0.5000 0.5000 0.0000
O5 O 0.5235(3) 0.49959(17) 0.14368(15)
O6 O 0.5094(3) 0.64498(19) 0.15702(17)
O7 O 0.6730(4) 0.3812(2) 0.0316(2)
N1 N 0.1625(4) 0.2756(2) 0.8704(2)
H1 H 0.1972 0.2205 0.9024
H2 H 0.1049 0.3085 0.8978
C1 C 0.3559(4) 0.1643(3) 0.7811(2)
C3 C 0.4451(4) 0.5144(2) 0.2911(2)
C6 C 0.0595(4) 0.4644(2) 0.7708(2)
C7 C 0.1927(4) 0.4420(2) 0.6263(2)
H3 H 0.1559 0.5020 0.5922
C8 C 0.3426(4) 0.5328(2) 0.4374(2)
H4 H 0.3089 0.5724 0.4722
C9 C 0.2888(4) 0.3915(2) 0.5801(2)
C10 C 0.5612(4) 0.0664(3) 0.8519(3)
H5 H 0.6577 0.0606 0.8647
C11 C 0.3938(4) 0.5723(2) 0.3444(2)
H6 H 0.3940 0.6382 0.3173
C13 C 0.2940(4) 0.2593(3) 0.7273(2)
C14 C 0.3410(4) 0.4338(2) 0.4797(2)
C15 C 0.5004(5) 0.1548(3) 0.8011(3)
H7 H 0.5564 0.2078 0.7804
C16 C 0.4963(4) 0.5561(2) 0.1894(2)
C17 C 0.3384(4) 0.3002(3) 0.6321(2)
H8 H 0.4029 0.2656 0.6027
C18 C 0.2007(4) 0.3126(2) 0.7716(2)
C19 C 0.4470(4) 0.4166(3) 0.3327(2)
H9 H 0.4828 0.3772 0.2980
C21 C 0.3957(4) 0.3768(3) 0.4257(2)
H11 H 0.3979 0.3109 0.4527
C22 C 0.1504(4) 0.4056(2) 0.7213(2)
C23 C 0.0423(4) 0.5581(3) 0.8760(3)
H12 H 0.0875 0.5851 0.9119
C24 C 0.2742(4) 0.0845(3) 0.8141(3)
H13 H 0.1774 0.0901 0.8021
C27 C 0.1227(4) 0.5028(3) 0.8281(3)
H16 H 0.2215 0.4913 0.8344
O10 O 0.3258(3) 0.38432(19) 0.05266(17)
O11 O 0.1322(3) 0.3114(2) 0.0536(2)
C31 C 0.1909(4) 0.3722(2) 0.0758(2)
C39 C 0.1052(4) 0.4276(3) 0.1304(2)
C52 C 0.1701(5) 0.4616(4) 0.1884(3)
H30 H 0.2691 0.4499 0.1940
C53 C 0.0880(4) 0.5139(4) 0.2389(3)
H31 H 0.1324 0.5347 0.2799
Cd7 Cd 0.65692(3) 0.721323(16) 0.034721(14)
Cd10 Cd 0.34308(3) 0.278677(16) 0.965279(14)
Cd1_2 Cd 0.5000 0.5000 1.0000
O14 O 0.3270(4) 0.6188(2) 0.9684(2)
O16 O 0.6742(3) 0.61568(19) 0.94734(17)
O20 O 0.4765(3) 0.50041(17) 0.85632(15)
H34 H 0.695758 0.358901 0.97664
N4 N 0.8375(4) 0.7244(2) 0.1296(2)
O1 O 0.4692(3) 0.81985(19) 0.9624(2)
O2 O 0.6742(3) 0.88614(18) 0.95700(19)
C2 C 0.4787(4) 0.9877(2) 0.8833(2)
C5 C 0.5467(4) 0.8932(2) 0.9367(2)
C20 C 0.3336(4) 0.9970(3) 0.8644(3)
H10 H 0.2771 0.9442 0.8858
O18 O 0.8678(3) 0.6886(2) 0.9464(2)
O8 O 0.5308(3) 0.18015(19) 0.0376(2)
O9 O 0.3258(3) 0.11386(18) 0.04300(19)
C29 C 0.5213(4) 0.0123(2) 0.1167(2)
C32 C 0.4533(4) 0.1068(2) 0.0633(2)
C47 C 0.6664(4) 0.0030(3) 0.1356(3)
H26 H 0.7229 0.0558 0.1142
O22 O 0.4906(3) 0.35502(19) 0.84298(17)
C4 C 0.8091(4) 0.6278(2) 0.9242(2)
C12 C 0.8948(4) 0.5724(3) 0.8696(2)
C25 C 0.8299(5) 0.5384(4) 0.8116(3)
H14 H 0.7309 0.5501 0.8060
C26 C 0.9120(4) 0.4861(4) 0.7611(3)
H15 H 0.8676 0.4653 0.7201
H17 H 0.8028 0.7795 0.0976
H18 H 0.8951 0.6915 0.1022
C28 C 0.6441(4) 0.8357(3) 0.2189(2)
C30 C 0.5549(4) 0.4856(2) 0.7089(2)
C33 C 0.9405(4) 0.5356(2) 0.2292(2)
C34 C 0.8073(4) 0.5580(2) 0.3737(2)
H19 H 0.8441 0.4980 0.4078
C35 C 0.6574(4) 0.4672(2) 0.5626(2)
H20 H 0.6911 0.4276 0.5278
C36 C 0.7112(4) 0.6085(2) 0.4199(2)
C37 C 0.4388(4) 0.9336(3) 0.1481(3)
H21 H 0.3423 0.9394 0.1353
C38 C 0.6062(4) 0.4277(2) 0.6556(2)
H22 H 0.6060 0.3618 0.6827
C40 C 0.7060(4) 0.7407(3) 0.2727(2)
C41 C 0.6590(4) 0.5662(2) 0.5203(2)
C42 C 0.4996(5) 0.8452(3) 0.1989(3)
H23 H 0.4436 0.7922 0.2196
C43 C 0.5037(4) 0.4439(2) 0.8106(2)
C44 C 0.6616(4) 0.6998(3) 0.3679(2)
H24 H 0.5971 0.7344 0.3973
C45 C 0.7993(4) 0.6874(2) 0.2284(2)
C46 C 0.5530(4) 0.5834(3) 0.6673(2)
H25 H 0.5172 0.6228 0.7020
C48 C 0.6043(4) 0.6232(3) 0.5743(2)
H27 H 0.6021 0.6891 0.5473
C49 C 0.8496(4) 0.5944(2) 0.2787(2)
C50 C 0.9577(4) 0.4419(3) 0.1240(3)
H28 H 0.9125 0.4149 0.0881
C51 C 0.7258(4) 0.9155(3) 0.1859(3)
H29 H 0.8226 0.9099 0.1979
C54 C 0.8773(4) 0.4972(3) 0.1719(3)
H32 H 0.7785 0.5087 0.1656
H34_2 H 0.304242 0.641099 0.0233599
loop_
_geom_bond_atom_site_label_1
_geom_bond_atom_site_label_2
_geom_bond_site_symmetry_1
_geom_bond_site_symmetry_2
Cd1 O5 1_555 1_555
O5 C16 1_555 1_555
O6 C16 1_555 1_555
O7 Cd1 1_555 1_555
N1 H1 1_555 1_555
H2 N1 1_555 1_555
C1 C13 1_555 1_555
C3 C11 1_555 1_555
C6 C22 1_555 1_555
C7 H3 1_555 1_555
C8 H4 1_555 1_555
C9 C7 1_555 1_555
H5 C10 1_555 1_555
C11 C8 1_555 1_555
H6 C11 1_555 1_555
C13 C17 1_555 1_555
C14 C8 1_555 1_555
C15 C1 1_555 1_555
H7 C15 1_555 1_555
C16 C3 1_555 1_555
C17 C9 1_555 1_555
H8 C17 1_555 1_555
C18 N1 1_555 1_555
C19 C3 1_555 1_555
H9 C19 1_555 1_555
C21 C14 1_555 1_555
H11 C21 1_555 1_555
C22 C7 1_555 1_555
C23 H12 1_555 1_555
C24 C1 1_555 1_555
H13 C24 1_555 1_555
C27 C6 1_555 1_555
H16 C27 1_555 1_555
O10 Cd1 1_555 1_555
O11 C31 1_555 1_555
C31 O10 1_555 1_555
C39 C31 1_555 1_555
C52 C39 1_555 1_555
H30 C52 1_555 1_555
H31 C53 1_555 1_555
Cd7 O6 1_555 1_555
Cd10 N1 1_555 1_555
C9 C14 1_555 1_555
C10 C15 1_555 1_555
C13 C18 1_555 1_555
C18 C22 1_555 1_555
C19 C21 1_555 1_555
C23 C27 1_555 1_555
C52 C53 1_555 1_555
O14 Cd1_2 1_555 1_555
O16 Cd1_2 1_555 1_555
O20 Cd1_2 1_555 1_555
N4 Cd7 1_555 1_555
O1 C5 1_555 1_555
C2 C5 1_555 1_555
C5 O2 1_555 1_555
C20 C2 1_555 1_555
H10 C20 1_555 1_555
O8 C32 1_555 1_555
C29 C32 1_555 1_555
C32 O9 1_555 1_555
C47 C29 1_555 1_555
H26 C47 1_555 1_555
O22 Cd10 1_555 1_555
O16 C4 1_555 1_555
O18 C4 1_555 1_555
C4 C12 1_555 1_555
C25 C12 1_555 1_555
H14 C25 1_555 1_555
H15 C26 1_555 1_555
O20 C43 1_555 1_555
O22 C43 1_555 1_555
N4 H17 1_555 1_555
H18 N4 1_555 1_555
C28 C40 1_555 1_555
C30 C38 1_555 1_555
C33 C49 1_555 1_555
C34 H19 1_555 1_555
C35 H20 1_555 1_555
C36 C34 1_555 1_555
H21 C37 1_555 1_555
C38 C35 1_555 1_555
H22 C38 1_555 1_555
C40 C44 1_555 1_555
C41 C35 1_555 1_555
C42 C28 1_555 1_555
H23 C42 1_555 1_555
C43 C30 1_555 1_555
C44 C36 1_555 1_555
H24 C44 1_555 1_555
C45 N4 1_555 1_555
C46 C30 1_555 1_555
H25 C46 1_555 1_555
C48 C41 1_555 1_555
H27 C48 1_555 1_555
C49 C34 1_555 1_555
H28 C50 1_555 1_555
C51 C28 1_555 1_555
H29 C51 1_555 1_555
C54 C33 1_555 1_555
H32 C54 1_555 1_555
C25 C26 1_555 1_555
C36 C41 1_555 1_555
C37 C42 1_555 1_555
C40 C45 1_555 1_555
C45 C49 1_555 1_555
C46 C48 1_555 1_555
C50 C54 1_555 1_555

#END
