
###############################################################################
#
# This file contains modified crystal structure data generated from the
# MOF subset of the Cambridge Structural Database (CSD) v543 
# hosted by the Cambridge Crystallographic Data Centre (CCDC).
#
# This work is licensed under the Creative Commons
# Attribution-NonCommercial-ShareAlike 4.0 International License.
# To view a copy of this license, visit
# http://creativecommons.org/licenses/by-nc-sa/4.0/
# or send a letter to
# Creative Commons, PO Box 1866, Mountain View, CA 94042, USA.
#
# CIF created using the CSD Python API on 29 September 2022
# The structure has been converted into the P1 space group
# The structure has a 3D framework
# The original CSD entry KOCWIJ is in the orthorhombic crystal system
# The original CSD entry KOCWIJ is in a Sohncke space group
# The framework has been calculated to contain at least 10.0% void space
# The void calculation uses a probe of radius 1.32A, grid spacing 0.4
#
###############################################################################

data_KOCWIJ
_chemical_formula_moiety         '(C48 H40 N16 O20 S8 Zn3)n'
_symmetry_cell_setting           triclinic
_symmetry_space_group_name_H-M   'P 1'
_symmetry_Int_Tables_number      1
_space_group_name_Hall           'P 1'
loop_
_symmetry_equiv_pos_site_id
_symmetry_equiv_pos_as_xyz
1 x,y,z
_cell_length_a                   5.5225(6)
_cell_length_b                   10.3642(11)
_cell_length_c                   29.725(3)
_cell_angle_alpha                90
_cell_angle_beta                 90
_cell_angle_gamma                90
_cell_volume                     1701.35
loop_
_atom_site_label
_atom_site_type_symbol
_atom_site_fract_x
_atom_site_fract_y
_atom_site_fract_z
Zn3 Zn 0.17423(8) 0.52068(4) 0.240861(14)
S1 S 0.67417(18) 0.32507(9) 0.22007(3)
S2 S 0.3265(2) 0.44685(12) 0.49000(3)
O1 O 0.5264(5) 0.4252(3) 0.24255(9)
O2 O 0.6315(4) 0.1998(2) 0.24294(9)
O3 O 0.6199(5) 0.3166(3) 0.17265(9)
O4 O 0.9358(5) 0.3596(3) 0.22615(9)
N1 N 0.1627(6) 0.4706(3) 0.31018(9)
N4 N 0.2678(5) 0.4412(3) 0.67159(10)
C1 C 0.3392(8) 0.5071(4) 0.33791(12)
H1 H 0.4744 0.5475 0.3257
C2 C 0.3323(8) 0.4883(4) 0.38383(12)
H2 H 0.4611 0.5144 0.4018
C3 C 0.1324(7) 0.4305(4) 0.40270(12)
C6 C 0.1024(7) 0.4152(4) 0.45187(13)
C7 C 0.1209(7) 0.4073(4) 0.53135(13)
C8 C 0.1759(8) 0.4152(4) 0.57946(11)
C9 C 0.3911(7) 0.4670(5) 0.59510(13)
H5 H 0.5100 0.4929 0.5749
C10 C 0.4290(7) 0.4799(4) 0.64077(13)
H6 H 0.5728 0.5171 0.6506
C11 C 0.0630(7) 0.3857(4) 0.65618(12)
C12 C 0.0120(8) 0.3720(4) 0.61145(13)
Zn2 Zn 0.82577(8) 0.02068(4) 0.259139(14)
Zn4 Zn 0.32577(8) 0.47932(4) 0.740861(14)
O6 O 0.3685(4) 0.6998(2) 0.25706(9)
N5 N 0.2322(5) 0.5588(3) 0.17159(10)
O5 O 0.8691(4) 0.6377(3) 0.24099(10)
N2 N 0.8989(6) 0.3782(4) 0.46939(11)
N3 N 0.9084(6) 0.3748(4) 0.51575(11)
C4 C 0.9502(8) 0.3889(4) 0.37395(13)
H3 H 0.8159 0.3456 0.3853
C5 C 0.9700(8) 0.4120(4) 0.32883(13)
H4 H 0.8442 0.3859 0.3101
H7 H 0.9510 0.3554 0.6770
H8 H 0.8676 0.3338 0.6025
H9 H 0.7152 0.6337 0.2405
H10 H 0.8960 0.6997 0.2589
N3_2 N 0.5916(6) 0.6252(4) 0.01575(11)
C7_2 C 0.3791(7) 0.5927(4) 0.03135(13)
C8_2 C 0.3241(8) 0.5848(4) 0.07946(11)
C9_2 C 0.1089(7) 0.5330(5) 0.09510(13)
C10_2 C 0.0710(7) 0.5201(4) 0.14077(13)
C11_2 C 0.4370(7) 0.6143(4) 0.15618(12)
H7_2 H 0.5490 0.6446 0.1770
C12_2 C 0.4880(8) 0.6280(4) 0.11145(13)
H8_2 H 0.6324 0.6662 0.1025
S2_2 S 0.1735(2) 0.55315(12) 0.99000(3)
O5_2 O 0.6309(4) 0.3623(3) 0.74099(10)
N1_2 N 0.3373(6) 0.5294(3) 0.81018(9)
N2_2 N 0.6011(6) 0.6218(4) 0.96939(11)
C1_2 C 0.1608(8) 0.4929(4) 0.83791(12)
H1_2 H 0.0256 0.4525 0.8257
C2_2 C 0.1677(8) 0.5117(4) 0.88383(12)
H2_2 H 0.0389 0.4856 0.9018
C3_2 C 0.3676(7) 0.5695(4) 0.90270(12)
C4_2 C 0.5498(8) 0.6111(4) 0.87395(13)
H3_2 H 0.6841 0.6544 0.8853
C5_2 C 0.5300(8) 0.5880(4) 0.82883(13)
H4_2 H 0.6558 0.6141 0.8101
C6_2 C 0.3976(7) 0.5848(4) 0.95187(13)
H9_2 H 0.7848 0.3663 0.7405
H10_2 H 0.6040 0.3003 0.7589
O6_2 O 0.1315(4) 0.3002(2) 0.75706(9)
O7 O 0.5642(5) 0.6404(3) 0.72615(9)
S1_2 S 0.82583(18) 0.67493(9) 0.72007(3)
O1_2 O 0.9736(5) 0.5748(3) 0.74255(9)
O2_2 O 0.8685(4) 0.8002(2) 0.74294(9)
O3_2 O 0.8801(5) 0.6834(3) 0.67265(9)
Zn2_2 Zn 0.67423(8) 0.97932(4) 0.759139(14)
S1_3 S 0.17417(18) 0.17493(9) 0.77993(3)
O1_3 O 0.0264(5) 0.0748(3) 0.75745(9)
O3_3 O 0.1199(5) 0.1834(3) 0.82735(9)
O4_2 O 0.4358(5) 0.1404(3) 0.77385(9)
H5_2 H 0.0100 0.0071 0.4251
H6_2 H 0.0728 0.9829 0.3494
S2_3 S 0.8265(2) 0.05315(12) 0.51000(3)
N1_3 N 0.6627(6) 0.0294(3) 0.68982(9)
N2_3 N 0.3989(6) 0.1218(4) 0.53061(11)
N3_3 N 0.4084(6) 0.1252(4) 0.48425(11)
N4_2 N 0.7678(5) 0.0588(3) 0.32841(10)
C2_3 C 0.8323(8) 0.0117(4) 0.61617(12)
C3_3 C 0.6324(7) 0.0695(4) 0.59730(12)
C4_3 C 0.4502(8) 0.1111(4) 0.62605(13)
H3_3 H 0.3159 0.1544 0.6147
C5_3 C 0.4700(8) 0.0880(4) 0.67117(13)
H4_3 H 0.3442 0.1141 0.6899
C6_3 C 0.6024(7) 0.0848(4) 0.54813(13)
C7_3 C 0.6209(7) 0.0927(4) 0.46865(13)
C8_3 C 0.6759(8) 0.0848(4) 0.42054(11)
C9_3 C 0.8911(7) 0.0330(5) 0.40490(13)
C10_3 C 0.9290(7) 0.0201(4) 0.35923(13)
C11_3 C 0.5630(7) 0.1143(4) 0.34382(12)
H7_3 H 0.4510 0.1446 0.3230
C12_3 C 0.5120(8) 0.1280(4) 0.38855(13)
H8_3 H 0.3676 0.1662 0.3975
O5_3 O 0.3691(4) 0.8623(3) 0.75901(10)
C1_3 C 0.8392(8) 0.9929(4) 0.66209(12)
H1_3 H 0.9744 0.9525 0.6743
H2_3 H 0.9611 0.9856 0.5982
H9_3 H 0.2152 0.8663 0.7595
H10_3 H 0.3960 0.8003 0.7411
N5_2 N 0.7322(5) 0.9412(3) 0.82841(10)
N2_4 N 0.1011(6) 0.8782(4) 0.03061(11)
C4_4 C 0.0498(8) 0.8889(4) 0.12605(13)
H3_4 H 0.1841 0.8456 0.1147
C5_4 C 0.0300(8) 0.9120(4) 0.17117(13)
H4_4 H 0.1558 0.8859 0.1899
O7_2 O 0.0642(5) 0.8596(3) 0.27385(9)
C1_4 C 0.6608(8) 0.0071(4) 0.16209(12)
H1_4 H 0.5256 0.0475 0.1743
H2_4 H 0.5389 0.0144 0.0982
S1_4 S 0.32583(18) 0.82507(9) 0.27993(3)
S2_4 S 0.6735(2) 0.94685(12) 0.01000(3)
O1_4 O 0.4736(5) 0.9252(3) 0.25745(9)
O3_4 O 0.3801(5) 0.8166(3) 0.32735(9)
N1_4 N 0.8373(6) 0.9706(3) 0.18982(9)
C2_4 C 0.6677(8) 0.9883(4) 0.11617(12)
C3_4 C 0.8676(7) 0.9305(4) 0.09730(12)
C6_4 C 0.8976(7) 0.9152(4) 0.04813(13)
C7_4 C 0.8791(7) 0.9073(4) 0.96865(13)
C8_4 C 0.8241(8) 0.9152(4) 0.92054(11)
C9_4 C 0.6089(7) 0.9670(5) 0.90490(13)
H5_3 H 0.4900 0.9929 0.9251
C10_4 C 0.5710(7) 0.9799(4) 0.85923(13)
C11_4 C 0.9370(7) 0.8857(4) 0.84382(12)
C12_4 C 0.9880(8) 0.8720(4) 0.88855(13)
H5_4 H 0.9900 0.5071 0.0749
H6_3 H 0.9272 0.4829 0.1506
O5_4 O 0.1309(4) 0.1377(3) 0.25901(10)
H9_4 H 0.2848 0.1337 0.2595
H10_4 H 0.1040 0.1997 0.2411
N3_4 N 0.0916(6) 0.8748(4) 0.98425(11)
H7_4 H 0.0490 0.8554 0.8230
H8_4 H 0.1324 0.8338 0.8975
H6_4 H 0.4272 0.0171 0.8494
loop_
_geom_bond_atom_site_label_1
_geom_bond_atom_site_label_2
_geom_bond_site_symmetry_1
_geom_bond_site_symmetry_2
Zn3 O1 1_555 1_555
S1 O1 1_555 1_555
S2 C6 1_555 1_555
O2 S1 1_555 1_555
O3 S1 1_555 1_555
O4 S1 1_555 1_555
N1 Zn3 1_555 1_555
N4 C10 1_555 1_555
C1 N1 1_555 1_555
H1 C1 1_555 1_555
C2 C1 1_555 1_555
H2 C2 1_555 1_555
C3 C2 1_555 1_555
C7 S2 1_555 1_555
C8 C7 1_555 1_555
C9 C8 1_555 1_555
H5 C9 1_555 1_555
C10 C9 1_555 1_555
H6 C10 1_555 1_555
C11 N4 1_555 1_555
C12 C8 1_555 1_555
Zn2 O2 1_555 1_555
Zn4 N4 1_555 1_555
O6 Zn3 1_555 1_555
N5 Zn3 1_555 1_555
C3 C6 1_555 1_555
C11 C12 1_555 1_555
N2 N3 1_555 1_555
H3 C4 1_555 1_555
H4 C5 1_555 1_555
H9 O5 1_555 1_555
H10 O5 1_555 1_555
C4 C5 1_555 1_555
N3_2 C7_2 1_555 1_555
N5 C10_2 1_555 1_555
C8_2 C7_2 1_555 1_555
C9_2 C8_2 1_555 1_555
C10_2 C9_2 1_555 1_555
C11_2 N5 1_555 1_555
H7_2 C11_2 1_555 1_555
C12_2 C8_2 1_555 1_555
H8_2 C12_2 1_555 1_555
C11_2 C12_2 1_555 1_555
S2_2 C6_2 1_555 1_555
O5_2 Zn4 1_555 1_555
N1_2 Zn4 1_555 1_555
C1_2 N1_2 1_555 1_555
H1_2 C1_2 1_555 1_555
C2_2 C1_2 1_555 1_555
H2_2 C2_2 1_555 1_555
C3_2 C2_2 1_555 1_555
C4_2 C3_2 1_555 1_555
H3_2 C4_2 1_555 1_555
C5_2 N1_2 1_555 1_555
H4_2 C5_2 1_555 1_555
C6_2 N2_2 1_555 1_555
H9_2 O5_2 1_555 1_555
H10_2 O5_2 1_555 1_555
O6_2 Zn4 1_555 1_555
O7 Zn4 1_555 1_555
C3_2 C6_2 1_555 1_555
C4_2 C5_2 1_555 1_555
S1_2 O1_2 1_555 1_555
O2_2 S1_2 1_555 1_555
O3_2 S1_2 1_555 1_555
O7 S1_2 1_555 1_555
Zn2_2 O2_2 1_555 1_555
S1_3 O1_3 1_555 1_555
O6_2 S1_3 1_555 1_555
O3_3 S1_3 1_555 1_555
O4_2 S1_3 1_555 1_555
S2_3 C6_3 1_555 1_555
N2_3 N3_3 1_555 1_555
N3_3 C7_3 1_555 1_555
N4_2 C10_3 1_555 1_555
C3_3 C2_3 1_555 1_555
C4_3 C3_3 1_555 1_555
H3_3 C4_3 1_555 1_555
C5_3 N1_3 1_555 1_555
H4_3 C5_3 1_555 1_555
C6_3 N2_3 1_555 1_555
C7_3 S2_3 1_555 1_555
C8_3 C7_3 1_555 1_555
C9_3 C8_3 1_555 1_555
C10_3 C9_3 1_555 1_555
C11_3 N4_2 1_555 1_555
H7_3 C11_3 1_555 1_555
C12_3 C8_3 1_555 1_555
H8_3 C12_3 1_555 1_555
Zn2 N4_2 1_555 1_555
C3_3 C6_3 1_555 1_555
C4_3 C5_3 1_555 1_555
C11_3 C12_3 1_555 1_555
O5_3 Zn2_2 1_555 1_555
H1_3 C1_3 1_555 1_555
H9_3 O5_3 1_555 1_555
H10_3 O5_3 1_555 1_555
N5_2 Zn2_2 1_555 1_555
H3_4 C4_4 1_555 1_555
H4_4 C5_4 1_555 1_555
C4_4 C5_4 1_555 1_555
H1_4 C1_4 1_555 1_555
S1_4 O1_4 1_555 1_555
S2_4 C6_4 1_555 1_555
O6 S1_4 1_555 1_555
O3_4 S1_4 1_555 1_555
O7_2 S1_4 1_555 1_555
C3_4 C2_4 1_555 1_555
C3_4 C6_4 1_555 1_555
N5_2 C10_4 1_555 1_555
C8_4 C7_4 1_555 1_555
C9_4 C8_4 1_555 1_555
H5_3 C9_4 1_555 1_555
C10_4 C9_4 1_555 1_555
C11_4 N5_2 1_555 1_555
C12_4 C8_4 1_555 1_555
C11_4 C12_4 1_555 1_555
H9_4 O5_4 1_555 1_555
H10_4 O5_4 1_555 1_555

#END
