
###############################################################################
#
# This file contains modified crystal structure data generated from the
# MOF subset of the Cambridge Structural Database (CSD) v543 
# hosted by the Cambridge Crystallographic Data Centre (CCDC).
#
# This work is licensed under the Creative Commons
# Attribution-NonCommercial-ShareAlike 4.0 International License.
# To view a copy of this license, visit
# http://creativecommons.org/licenses/by-nc-sa/4.0/
# or send a letter to
# Creative Commons, PO Box 1866, Mountain View, CA 94042, USA.
#
# CIF created using the CSD Python API on 29 September 2022
# The structure has been converted into the P1 space group
# The structure has a 3D framework
# The original CSD entry KOCWEF is in the orthorhombic crystal system
# The original CSD entry KOCWEF is in a Sohncke space group
# The framework has been calculated to contain at least 10.0% void space
# The void calculation uses a probe of radius 1.32A, grid spacing 0.4
# H atom positions have been added when not included in the experimental data
#
###############################################################################

data_KOCWEF
_chemical_formula_moiety         '(C296 H184 Mn32 N136 O88)n'
_symmetry_cell_setting           triclinic
_symmetry_space_group_name_H-M   'P 1'
_symmetry_Int_Tables_number      1
_space_group_name_Hall           'P 1'
loop_
_symmetry_equiv_pos_site_id
_symmetry_equiv_pos_as_xyz
1 x,y,z
_cell_length_a                   17.856(4)
_cell_length_b                   17.856(4)
_cell_length_c                   42.559(9)
_cell_angle_alpha                90
_cell_angle_beta                 90
_cell_angle_gamma                90
_cell_volume                     13569.4
loop_
_atom_site_label
_atom_site_type_symbol
_atom_site_fract_x
_atom_site_fract_y
_atom_site_fract_z
Mn9 Mn 0.03616(6) 0.61603(6) 0.08104(2)
Mn1 Mn 0.22834(5) 0.51913(5) 0.11110(2)
Mn2 Mn 0.38392(6) 0.46386(6) 0.16891(2)
Mn4 Mn 0.48088(5) 0.27156(5) 0.13899(2)
N1 N 0.3112(3) 0.4238(3) 0.10014(13)
O1 O 0.1393(3) 0.4453(3) 0.10859(17)
O2 O 0.5536(3) 0.3607(3) 0.14162(16)
N2 N 0.9073(4) 0.6760(4) 0.12623(17)
C1 C 0.5535(4) 0.4284(5) 0.1505(2)
N4 N 0.3585(3) 0.4011(3) 0.12292(14)
O3 O 0.5005(3) 0.4593(3) 0.16325(15)
C2 C 0.0725(4) 0.4472(5) 0.09971(19)
O4 O 0.2528(3) 0.4743(5) 0.16416(15)
O5 O 0.0264(5) 0.7478(3) 0.08571(15)
N5 N 0.9300(3) 0.6185(4) 0.10883(18)
N6 N 0.3994(4) 0.3458(3) 0.11242(15)
C3 C 0.0646(5) 0.3129(5) 0.1162(3)
H1 H 0.1163 0.3133 0.1189
C4 C 0.6220(4) 0.4723(5) 0.1446(2)
C5 C 0.0273(5) 0.3772(4) 0.1054(2)
C6 C 0.6881(5) 0.4355(5) 0.1351(3)
H2 H 0.6887 0.3836 0.1336
C8 C 0.0239(6) 0.2497(6) 0.1226(4)
H4 H 0.0486 0.2074 0.1300
O6 O 0.0404(3) 0.5001(3) 0.08665(16)
O7 O 0.0681(3) 0.7735(4) 0.31712(13)
O8 O 0.1263(4) 0.8750(3) 0.29972(14)
N8 N 0.0770(3) 0.6886(3) 0.14993(14)
N9 N 0.0989(3) 0.6418(3) 0.12691(14)
C10 C 0.0990(4) 0.8112(4) 0.29655(17)
N10 N 0.3822(4) 0.3322(4) 0.08231(15)
N11 N 0.1677(4) 0.6174(4) 0.16763(15)
C11 C 0.1195(4) 0.6729(4) 0.17436(17)
C12 C 0.1045(4) 0.7747(5) 0.26420(17)
N14 N 0.1538(3) 0.6008(4) 0.13843(15)
C13 C 0.3269(4) 0.3808(4) 0.07552(18)
C14 C 0.1129(7) 0.8172(5) 0.2375(2)
H6 H 0.1155 0.8691 0.2391
N15 N 0.8383(4) 0.6614(4) 0.1371(2)
N16 N 0.8771(4) 0.5669(4) 0.1080(2)
C17 C 0.2912(4) 0.3860(5) 0.04464(17)
C18 C 0.8219(5) 0.5931(4) 0.1266(2)
C19 C 0.1134(5) 0.7090(5) 0.20602(18)
C20 C 0.7529(5) 0.5540(5) 0.1320(2)
C21 C 0.2162(5) 0.3832(7) 0.0415(2)
H7 H 0.1862 0.3779 0.0592
C24 C 0.6231(5) 0.5487(5) 0.1479(3)
H9 H 0.5800 0.5738 0.1542
C25 C 0.3341(5) 0.3894(9) 0.0177(2)
H10 H 0.3860 0.3868 0.0193
C26 C 0.6885(5) 0.5889(5) 0.1418(3)
H11 H 0.6885 0.6405 0.1445
C27 C 0.1173(7) 0.7840(5) 0.2091(2)
H12 H 0.1232 0.8135 0.1913
C28 C 0.1833(5) 0.3883(6) 0.01185(19)
H13 H 0.1314 0.3875 0.0101
C30 C 0.1078(9) 0.6652(6) 0.2327(2)
H14 H 0.1088 0.6132 0.2312
C31 C 0.1010(8) 0.6990(6) 0.2607(2)
H15 H 0.0935 0.6696 0.2785
C32 C 0.7511(5) 0.4751(6) 0.1281(4)
H16 H 0.7933 0.4503 0.1207
O11 O 0.3775(6) 0.5365(5) 0.21182(18)
H17 H 0.4197 0.5426 0.2190
H18 H 0.0266 0.5446 0.0160
Mn7 Mn 0.11608(6) 0.96386(6) 0.33109(2)
Mn11 Mn 0.98088(5) 0.77156(5) 0.13899(2)
Mn13 Mn 0.01912(5) 0.77156(5) 0.36101(2)
N18 N 0.4073(4) 0.1760(4) 0.12623(17)
N19 N 0.3246(4) 0.5931(3) 0.12398(18)
O12 O 0.5264(5) 0.2478(3) 0.08571(15)
O13 O 0.4319(3) 0.2735(4) 0.18288(13)
O14 O 0.3737(4) 0.3750(3) 0.20028(14)
N21 N 0.3803(4) 0.5702(3) 0.14100(16)
N22 N 0.5770(3) 0.1886(3) 0.14993(14)
O15 O 0.2269(4) 0.5679(4) 0.06721(14)
O16 O 0.1247(3) 0.6259(4) 0.04924(14)
H23 H 0.345377 0.511955 0.227842
C16 C 0.2255(5) 0.3942(4) 0.98583(19)
C23 C 0.3005(5) 0.3969(8) 0.9881(2)
H8 H 0.3299 0.4035 0.9703
C29 C 0.1891(5) 0.4004(4) 0.95383(17)
O9 O 0.2269(4) 0.4321(4) 0.93279(14)
O10 O 0.1247(3) 0.3741(4) 0.95076(14)
Mn6 Mn 0.22834(5) 0.48087(5) 0.88890(2)
Mn10 Mn 0.03616(6) 0.38397(6) 0.91896(2)
N3 N 0.8246(4) 0.0931(3) 0.12398(18)
C7 C 0.9118(5) 0.3117(5) 0.1089(3)
H3 H 0.8599 0.3121 0.1071
C9 C 0.9514(5) 0.3760(5) 0.1018(3)
H5 H 0.9264 0.4184 0.0946
N7 N 0.8803(4) 0.0702(3) 0.14100(16)
N12 N 0.8388(4) 0.1612(4) 0.1129(2)
N13 N 0.9332(4) 0.1233(4) 0.1419(2)
C15 C 0.9060(5) 0.1788(5) 0.1248(3)
C22 C 0.9469(5) 0.2471(5) 0.1184(3)
N17 N 0.9629(5) 0.6204(6) 0.0384(2)
C33 C 0.9879(8) 0.5789(8) 0.0135(4)
C34 C 0.9059(8) 0.6715(8) 0.0357(4)
H19 H 0.8899 0.6986 0.0531
C35 C 0.8721(9) 0.6820(9) 0.0063(5)
H20 H 0.8337 0.7170 0.0049
Mn5 Mn 0.72834(5) 0.01913(5) 0.11110(2)
Mn8 Mn 0.88392(6) 0.96386(6) 0.16891(2)
Mn8_2 Mn 0.11608(6) 0.03614(6) 0.66891(2)
N3_2 N 0.1754(4) 0.9069(3) 0.62398(18)
C7_2 C 0.0882(5) 0.6883(5) 0.6089(3)
H3_2 H 0.1401 0.6879 0.6071
C9_2 C 0.0486(5) 0.6240(5) 0.6018(3)
H5_2 H 0.0736 0.5816 0.5946
N7_2 N 0.1197(4) 0.9298(3) 0.64100(16)
N12_2 N 0.1612(4) 0.8388(4) 0.6129(2)
N13_2 N 0.0668(4) 0.8767(4) 0.6419(2)
C15_2 C 0.0940(5) 0.8212(5) 0.6248(3)
C22_2 C 0.0531(5) 0.7529(5) 0.6184(3)
N17_2 N 0.0371(5) 0.3796(6) 0.5384(2)
C33_2 C 0.0121(8) 0.4211(8) 0.5135(4)
C34_2 C 0.0941(8) 0.3285(8) 0.5357(4)
H19_2 H 0.1101 0.3014 0.5531
C35_2 C 0.1279(9) 0.3180(9) 0.5063(5)
H20_2 H 0.1663 0.2830 0.5049
C36 C 0.0457(10) 0.4110(10) 0.4839(4)
H21 H 0.0279 0.4398 0.4673
C37 C 0.1071(11) 0.3582(10) 0.4773(6)
H22 H 0.1294 0.3513 0.4577
Mn5_2 Mn 0.27166(5) 0.98087(5) 0.61110(2)
Mn12 Mn 0.01912(5) 0.22844(5) 0.63899(2)
N20 N 0.0700(3) 0.3815(4) 0.60883(18)
Mn1_2 Mn 0.77166(5) 0.48087(5) 0.61110(2)
Mn2_2 Mn 0.61608(6) 0.53614(6) 0.66891(2)
Mn3 Mn 0.96384(6) 0.38397(6) 0.58104(2)
Mn4_2 Mn 0.51912(5) 0.72844(5) 0.63899(2)
N1_2 N 0.6888(3) 0.5762(3) 0.60014(13)
O1_2 O 0.8607(3) 0.5547(3) 0.60859(17)
O2_2 O 0.4464(3) 0.6393(3) 0.64162(16)
N2_2 N 0.0927(4) 0.3240(4) 0.62623(17)
C1_2 C 0.4465(4) 0.5716(5) 0.6505(2)
N4_2 N 0.6415(3) 0.5989(3) 0.62292(14)
O3_2 O 0.4995(3) 0.5407(3) 0.66325(15)
C2_2 C 0.9275(4) 0.5528(5) 0.59971(19)
O4_2 O 0.7472(3) 0.5257(5) 0.66416(15)
O5_2 O 0.9736(5) 0.2522(3) 0.58571(15)
N6_2 N 0.6006(4) 0.6542(3) 0.61242(15)
C3_2 C 0.9354(5) 0.6871(5) 0.6162(3)
H1_2 H 0.8837 0.6867 0.6189
C4_2 C 0.3780(4) 0.5277(5) 0.6446(2)
C5_2 C 0.9727(5) 0.6228(4) 0.6054(2)
C6_2 C 0.3119(5) 0.5645(5) 0.6351(3)
H2_2 H 0.3113 0.6164 0.6336
C8_2 C 0.9761(6) 0.7503(6) 0.6226(4)
H4_2 H 0.9514 0.7926 0.6300
O6_2 O 0.9596(3) 0.4999(3) 0.58665(16)
O7_2 O 0.9319(3) 0.2265(4) 0.81712(13)
O8_2 O 0.8737(4) 0.1250(3) 0.79972(14)
N8_2 N 0.9230(3) 0.3114(3) 0.64993(14)
N9_2 N 0.9011(3) 0.3582(3) 0.62691(14)
C10_2 C 0.9010(4) 0.1888(4) 0.79655(17)
N10_2 N 0.6178(4) 0.6678(4) 0.58231(15)
N11_2 N 0.8323(4) 0.3826(4) 0.66763(15)
C11_2 C 0.8805(4) 0.3271(4) 0.67436(17)
C12_2 C 0.8955(4) 0.2253(5) 0.76420(17)
N14_2 N 0.8462(3) 0.3992(4) 0.63843(15)
C13_2 C 0.6731(4) 0.6192(4) 0.57552(18)
C14_2 C 0.8871(7) 0.1828(5) 0.7375(2)
H6_2 H 0.8845 0.1309 0.7391
N15_2 N 0.1617(4) 0.3386(4) 0.6371(2)
N16_2 N 0.1229(4) 0.4331(4) 0.6080(2)
C16_2 C 0.7745(5) 0.6058(4) 0.48583(19)
C17_2 C 0.7088(4) 0.6140(5) 0.54464(17)
C18_2 C 0.1781(5) 0.4069(4) 0.6266(2)
C19_2 C 0.8866(5) 0.2910(5) 0.70602(18)
C20_2 C 0.2471(5) 0.4460(5) 0.6320(2)
C21_2 C 0.7838(5) 0.6168(7) 0.5415(2)
H7_2 H 0.8138 0.6221 0.5592
C23_2 C 0.6995(5) 0.6031(8) 0.4881(2)
H8_2 H 0.6701 0.5965 0.4703
C24_2 C 0.3769(5) 0.4513(5) 0.6479(3)
H9_2 H 0.4200 0.4262 0.6542
C25_2 C 0.6659(5) 0.6106(9) 0.5177(2)
H10_2 H 0.6140 0.6132 0.5193
C26_2 C 0.3115(5) 0.4111(5) 0.6418(3)
H11_2 H 0.3115 0.3595 0.6445
C27_2 C 0.8827(7) 0.2160(5) 0.7091(2)
H12_2 H 0.8768 0.1865 0.6913
C28_2 C 0.8167(5) 0.6117(6) 0.51185(19)
H13_2 H 0.8686 0.6125 0.5101
C29_2 C 0.8109(5) 0.5996(4) 0.45383(17)
C30_2 C 0.8922(9) 0.3348(6) 0.7327(2)
H14_2 H 0.8912 0.3868 0.7312
C31_2 C 0.8990(8) 0.3010(6) 0.7607(2)
H15_2 H 0.9065 0.3304 0.7785
C32_2 C 0.2489(5) 0.5249(6) 0.6281(4)
H16_2 H 0.2067 0.5497 0.6207
O9_2 O 0.7731(4) 0.5679(4) 0.43279(14)
O10_2 O 0.8753(3) 0.6259(4) 0.45076(14)
O11_2 O 0.6225(6) 0.4635(5) 0.71182(18)
H17_2 H 0.5803 0.4574 0.7190
H18_2 H 0.9734 0.4554 0.5160
Mn6_2 Mn 0.77166(5) 0.51913(5) 0.38890(2)
Mn7_2 Mn 0.88392(6) 0.03614(6) 0.83109(2)
Mn10_2 Mn 0.96384(6) 0.61603(6) 0.41896(2)
Mn13_2 Mn 0.98088(5) 0.22844(5) 0.86101(2)
N18_2 N 0.5927(4) 0.8240(4) 0.62623(17)
N19_2 N 0.6754(4) 0.4069(3) 0.62398(18)
O12_2 O 0.4736(5) 0.7522(3) 0.58571(15)
O13_2 O 0.5681(3) 0.7265(4) 0.68288(13)
O14_2 O 0.6263(4) 0.6250(3) 0.70028(14)
N21_2 N 0.6197(4) 0.4298(3) 0.64100(16)
N22_2 N 0.4230(3) 0.8114(3) 0.64993(14)
O15_2 O 0.7731(4) 0.4321(4) 0.56721(14)
O16_2 O 0.8753(3) 0.3741(4) 0.54924(14)
H23_2 H 0.654623 0.488045 0.727842
N3_3 N 0.1754(4) 0.0931(3) 0.37602(18)
C7_3 C 0.0882(5) 0.3117(5) 0.3911(3)
H3_3 H 0.1401 0.3121 0.3929
C9_3 C 0.0486(5) 0.3760(5) 0.3982(3)
H5_3 H 0.0736 0.4184 0.4054
N7_3 N 0.1197(4) 0.0702(3) 0.35900(16)
N12_3 N 0.1612(4) 0.1612(4) 0.3871(2)
N13_3 N 0.0668(4) 0.1233(4) 0.3581(2)
C15_3 C 0.0940(5) 0.1788(5) 0.3752(3)
C22_3 C 0.0531(5) 0.2471(5) 0.3816(3)
N17_3 N 0.0371(5) 0.6204(6) 0.4616(2)
C33_3 C 0.0121(8) 0.5789(8) 0.4865(4)
C34_3 C 0.0941(8) 0.6715(8) 0.4643(4)
H19_3 H 0.1101 0.6986 0.4469
C35_3 C 0.1279(9) 0.6820(9) 0.4937(5)
H20_3 H 0.1663 0.7170 0.4951
C36_2 C 0.0457(10) 0.5890(10) 0.5161(4)
H21_2 H 0.0279 0.5602 0.5327
C37_2 C 0.1071(11) 0.6418(10) 0.5227(6)
H22_2 H 0.1294 0.6487 0.5423
Mn5_3 Mn 0.27166(5) 0.01913(5) 0.38890(2)
N20_2 N 0.0700(3) 0.6185(4) 0.39117(18)
Mn2_3 Mn 0.61608(6) 0.46386(6) 0.33109(2)
Mn4_3 Mn 0.51912(5) 0.27156(5) 0.36101(2)
N1_3 N 0.6888(3) 0.4238(3) 0.39986(13)
O1_3 O 0.8607(3) 0.4453(3) 0.39141(17)
O2_3 O 0.4464(3) 0.3607(3) 0.35838(16)
N2_3 N 0.0927(4) 0.6760(4) 0.37377(17)
C1_3 C 0.4465(4) 0.4284(5) 0.3495(2)
N4_3 N 0.6415(3) 0.4011(3) 0.37708(14)
O3_3 O 0.4995(3) 0.4593(3) 0.33675(15)
C2_3 C 0.9275(4) 0.4472(5) 0.40029(19)
O4_3 O 0.7472(3) 0.4743(5) 0.33584(15)
O5_3 O 0.9736(5) 0.7478(3) 0.41429(15)
N6_3 N 0.6006(4) 0.3458(3) 0.38758(15)
C3_3 C 0.9354(5) 0.3129(5) 0.3838(3)
H1_3 H 0.8837 0.3133 0.3811
C4_3 C 0.3780(4) 0.4723(5) 0.3554(2)
C5_3 C 0.9727(5) 0.3772(4) 0.3946(2)
C6_3 C 0.3119(5) 0.4355(5) 0.3649(3)
H2_3 H 0.3113 0.3836 0.3664
C8_3 C 0.9761(6) 0.2497(6) 0.3774(4)
H4_3 H 0.9514 0.2074 0.3700
O6_3 O 0.9596(3) 0.5001(3) 0.41335(16)
O7_3 O 0.9319(3) 0.7735(4) 0.18288(13)
O8_3 O 0.8737(4) 0.8750(3) 0.20028(14)
N8_3 N 0.9230(3) 0.6886(3) 0.35007(14)
N9_3 N 0.9011(3) 0.6418(3) 0.37309(14)
C10_3 C 0.9010(4) 0.8112(4) 0.20345(17)
N10_3 N 0.6178(4) 0.3322(4) 0.41769(15)
N11_3 N 0.8323(4) 0.6174(4) 0.33237(15)
C11_3 C 0.8805(4) 0.6729(4) 0.32564(17)
C12_3 C 0.8955(4) 0.7747(5) 0.23580(17)
N14_3 N 0.8462(3) 0.6008(4) 0.36157(15)
C13_3 C 0.6731(4) 0.3808(4) 0.42448(18)
C14_3 C 0.8871(7) 0.8172(5) 0.2625(2)
H6_3 H 0.8845 0.8691 0.2609
N15_3 N 0.1617(4) 0.6614(4) 0.3629(2)
N16_3 N 0.1229(4) 0.5669(4) 0.3920(2)
C16_3 C 0.7745(5) 0.3942(4) 0.51417(19)
C17_3 C 0.7088(4) 0.3860(5) 0.45536(17)
C18_3 C 0.1781(5) 0.5931(4) 0.3734(2)
C19_3 C 0.8866(5) 0.7090(5) 0.29398(18)
C20_3 C 0.2471(5) 0.5540(5) 0.3680(2)
C21_3 C 0.7838(5) 0.3832(7) 0.4585(2)
H7_3 H 0.8138 0.3779 0.4408
C23_3 C 0.6995(5) 0.3969(8) 0.5119(2)
H8_3 H 0.6701 0.4035 0.5297
C24_3 C 0.3769(5) 0.5487(5) 0.3521(3)
H9_3 H 0.4200 0.5738 0.3458
C25_3 C 0.6659(5) 0.3894(9) 0.4823(2)
H10_3 H 0.6140 0.3868 0.4807
C26_3 C 0.3115(5) 0.5889(5) 0.3582(3)
H11_3 H 0.3115 0.6405 0.3555
C27_3 C 0.8827(7) 0.7840(5) 0.2909(2)
H12_3 H 0.8768 0.8135 0.3087
C28_3 C 0.8167(5) 0.3883(6) 0.48815(19)
H13_3 H 0.8686 0.3875 0.4899
C29_3 C 0.8109(5) 0.4004(4) 0.54617(17)
C30_3 C 0.8922(9) 0.6652(6) 0.2673(2)
H14_3 H 0.8912 0.6132 0.2688
C31_3 C 0.8990(8) 0.6990(6) 0.2393(2)
H15_3 H 0.9065 0.6696 0.2215
C32_3 C 0.2489(5) 0.4751(6) 0.3719(4)
H16_3 H 0.2067 0.4503 0.3793
O11_3 O 0.6225(6) 0.5365(5) 0.28818(18)
H17_3 H 0.5803 0.5426 0.2810
H18_3 H 0.9734 0.5446 0.4840
N18_3 N 0.5927(4) 0.1760(4) 0.37377(17)
N19_3 N 0.6754(4) 0.5931(3) 0.37602(18)
O12_3 O 0.4736(5) 0.2478(3) 0.41429(15)
O13_3 O 0.5681(3) 0.2735(4) 0.31712(13)
O14_3 O 0.6263(4) 0.3750(3) 0.29972(14)
N21_3 N 0.6197(4) 0.5702(3) 0.35900(16)
N22_3 N 0.4230(3) 0.1886(3) 0.35007(14)
H23_3 H 0.654623 0.511955 0.272158
C16_4 C 0.2255(5) 0.6058(4) 0.01417(19)
C23_4 C 0.3005(5) 0.6031(8) 0.0119(2)
H8_4 H 0.3299 0.5965 0.0297
C29_4 C 0.1891(5) 0.5996(4) 0.04617(17)
Mn2_4 Mn 0.38392(6) 0.53614(6) 0.83109(2)
Mn4_4 Mn 0.48088(5) 0.72844(5) 0.86101(2)
N1_4 N 0.3112(3) 0.5762(3) 0.89986(13)
O1_4 O 0.1393(3) 0.5547(3) 0.89141(17)
O2_4 O 0.5536(3) 0.6393(3) 0.85838(16)
N2_4 N 0.9073(4) 0.3240(4) 0.87377(17)
C1_4 C 0.5535(4) 0.5716(5) 0.8495(2)
N4_4 N 0.3585(3) 0.5989(3) 0.87708(14)
O3_4 O 0.5005(3) 0.5407(3) 0.83675(15)
C2_4 C 0.0725(4) 0.5528(5) 0.90029(19)
O4_4 O 0.2528(3) 0.5257(5) 0.83584(15)
O5_4 O 0.0264(5) 0.2522(3) 0.91429(15)
N5_2 N 0.9300(3) 0.3815(4) 0.89117(18)
N6_4 N 0.3994(4) 0.6542(3) 0.88758(15)
C3_4 C 0.0646(5) 0.6871(5) 0.8838(3)
H1_4 H 0.1163 0.6867 0.8811
C4_4 C 0.6220(4) 0.5277(5) 0.8554(2)
C5_4 C 0.0273(5) 0.6228(4) 0.8946(2)
C6_4 C 0.6881(5) 0.5645(5) 0.8649(3)
H2_4 H 0.6887 0.6164 0.8664
C8_4 C 0.0239(6) 0.7503(6) 0.8774(4)
H4_4 H 0.0486 0.7926 0.8700
O6_4 O 0.0404(3) 0.4999(3) 0.91335(16)
O7_4 O 0.0681(3) 0.2265(4) 0.68288(13)
O8_4 O 0.1263(4) 0.1250(3) 0.70028(14)
N8_4 N 0.0770(3) 0.3114(3) 0.85007(14)
N9_4 N 0.0989(3) 0.3582(3) 0.87309(14)
C10_4 C 0.0990(4) 0.1888(4) 0.70345(17)
N10_4 N 0.3822(4) 0.6678(4) 0.91769(15)
N11_4 N 0.1677(4) 0.3826(4) 0.83237(15)
C11_4 C 0.1195(4) 0.3271(4) 0.82564(17)
C12_4 C 0.1045(4) 0.2253(5) 0.73580(17)
N14_4 N 0.1538(3) 0.3992(4) 0.86157(15)
C13_4 C 0.3269(4) 0.6192(4) 0.92448(18)
C14_4 C 0.1129(7) 0.1828(5) 0.7625(2)
H6_4 H 0.1155 0.1309 0.7609
N15_4 N 0.8383(4) 0.3386(4) 0.8629(2)
N16_4 N 0.8771(4) 0.4331(4) 0.8920(2)
C17_4 C 0.2912(4) 0.6140(5) 0.95536(17)
C18_4 C 0.8219(5) 0.4069(4) 0.8734(2)
C19_4 C 0.1134(5) 0.2910(5) 0.79398(18)
C20_4 C 0.7529(5) 0.4460(5) 0.8680(2)
C21_4 C 0.2162(5) 0.6168(7) 0.9585(2)
H7_4 H 0.1862 0.6221 0.9408
C24_4 C 0.6231(5) 0.4513(5) 0.8521(3)
H9_4 H 0.5800 0.4262 0.8458
C25_4 C 0.3341(5) 0.6106(9) 0.9823(2)
H10_4 H 0.3860 0.6132 0.9807
C26_4 C 0.6885(5) 0.4111(5) 0.8582(3)
H11_4 H 0.6885 0.3595 0.8555
C27_4 C 0.1173(7) 0.2160(5) 0.7909(2)
H12_4 H 0.1232 0.1865 0.8087
C28_4 C 0.1833(5) 0.6117(6) 0.98815(19)
H13_4 H 0.1314 0.6125 0.9899
C30_4 C 0.1078(9) 0.3348(6) 0.7673(2)
H14_4 H 0.1088 0.3868 0.7688
C31_4 C 0.1010(8) 0.3010(6) 0.7393(2)
H15_4 H 0.0935 0.3304 0.7215
C32_4 C 0.7511(5) 0.5249(6) 0.8719(4)
H16_4 H 0.7933 0.5497 0.8793
O11_4 O 0.3775(6) 0.4635(5) 0.78818(18)
H17_4 H 0.4197 0.4574 0.7810
H18_4 H 0.0266 0.4554 0.9840
N18_4 N 0.4073(4) 0.8240(4) 0.87377(17)
N19_4 N 0.3246(4) 0.4069(3) 0.87602(18)
O12_4 O 0.5264(5) 0.7522(3) 0.91429(15)
O13_4 O 0.4319(3) 0.7265(4) 0.81712(13)
O14_4 O 0.3737(4) 0.6250(3) 0.79972(14)
N21_4 N 0.3803(4) 0.4298(3) 0.85900(16)
N22_4 N 0.5770(3) 0.8114(3) 0.85007(14)
H23_4 H 0.345377 0.488045 0.772158
N3_4 N 0.8246(4) 0.9069(3) 0.87602(18)
C7_4 C 0.9118(5) 0.6883(5) 0.8911(3)
H3_4 H 0.8599 0.6879 0.8929
C9_4 C 0.9514(5) 0.6240(5) 0.8982(3)
H5_4 H 0.9264 0.5816 0.9054
N7_4 N 0.8803(4) 0.9298(3) 0.85900(16)
N12_4 N 0.8388(4) 0.8388(4) 0.8871(2)
N13_4 N 0.9332(4) 0.8767(4) 0.8581(2)
C15_4 C 0.9060(5) 0.8212(5) 0.8752(3)
C22_4 C 0.9469(5) 0.7529(5) 0.8816(3)
N17_4 N 0.9629(5) 0.3796(6) 0.9616(2)
C33_4 C 0.9879(8) 0.4211(8) 0.9865(4)
C34_4 C 0.9059(8) 0.3285(8) 0.9643(4)
H19_4 H 0.8899 0.3014 0.9469
C35_4 C 0.8721(9) 0.3180(9) 0.9937(5)
H20_4 H 0.8337 0.2830 0.9951
Mn5_4 Mn 0.72834(5) 0.98087(5) 0.88890(2)
N5_3 N 0.4300(3) 0.1185(4) 0.10883(18)
N15_5 N 0.3383(4) 0.1614(4) 0.1371(2)
N16_5 N 0.3771(4) 0.0669(4) 0.1080(2)
C18_5 C 0.3219(5) 0.0931(4) 0.1266(2)
C20_5 C 0.2529(5) 0.0540(5) 0.1320(2)
C24_5 C 0.1231(5) 0.0487(5) 0.1479(3)
H9_5 H 0.0800 0.0738 0.1542
C26_5 C 0.1885(5) 0.0889(5) 0.1418(3)
H11_5 H 0.1885 0.1405 0.1445
Mn9_2 Mn 0.53616(6) 0.11603(6) 0.08104(2)
O2_5 O 0.0536(3) 0.8607(3) 0.14162(16)
C1_5 C 0.0535(4) 0.9284(5) 0.1505(2)
O3_5 O 0.0005(3) 0.9593(3) 0.16325(15)
C4_5 C 0.1220(4) 0.9723(5) 0.1446(2)
C6_5 C 0.1881(5) 0.9355(5) 0.1351(3)
H2_5 H 0.1887 0.8836 0.1336
C32_5 C 0.2511(5) 0.9751(6) 0.1281(4)
H16_5 H 0.2933 0.9503 0.1207
O6_5 O 0.5404(3) 0.0001(3) 0.08665(16)
N9_5 N 0.5989(3) 0.1418(3) 0.12691(14)
C10_5 C 0.5990(4) 0.3112(4) 0.29655(17)
N11_5 N 0.6677(4) 0.1174(4) 0.16763(15)
C11_5 C 0.6195(4) 0.1729(4) 0.17436(17)
C12_5 C 0.6045(4) 0.2747(5) 0.26420(17)
N14_5 N 0.6538(3) 0.1008(4) 0.13843(15)
C14_5 C 0.6129(7) 0.3172(5) 0.2375(2)
H6_5 H 0.6155 0.3691 0.2391
C19_5 C 0.6134(5) 0.2090(5) 0.20602(18)
C27_5 C 0.6173(7) 0.2840(5) 0.2091(2)
H12_5 H 0.6232 0.3135 0.1913
C30_5 C 0.6078(9) 0.1652(6) 0.2327(2)
H14_5 H 0.6088 0.1132 0.2312
C31_5 C 0.6010(8) 0.1990(6) 0.2607(2)
H15_5 H 0.5935 0.1696 0.2785
N17_5 N 0.4629(5) 0.1204(6) 0.0384(2)
O11_5 O 0.8775(6) 0.0365(5) 0.21182(18)
H17_5 H 0.9197 0.0426 0.2190
C33_5 C 0.4879(8) 0.0789(8) 0.0135(4)
H18_5 H 0.5266 0.0446 0.0160
C34_5 C 0.4059(8) 0.1715(8) 0.0357(4)
H19_5 H 0.3899 0.1986 0.0531
C35_5 C 0.3721(9) 0.1820(9) 0.0063(5)
H20_5 H 0.3337 0.2170 0.0049
O15_3 O 0.7269(4) 0.0679(4) 0.06721(14)
O16_3 O 0.6247(3) 0.1259(4) 0.04924(14)
H23_5 H 0.845377 0.0119548 0.227842
N1_5 N 0.8112(3) 0.9238(3) 0.10014(13)
O1_5 O 0.6393(3) 0.9453(3) 0.10859(17)
N4_5 N 0.8585(3) 0.9011(3) 0.12292(14)
C2_5 C 0.5725(4) 0.9472(5) 0.09971(19)
O4_5 O 0.7528(3) 0.9743(5) 0.16416(15)
N6_5 N 0.8994(4) 0.8458(3) 0.11242(15)
C3_5 C 0.5646(5) 0.8129(5) 0.1162(3)
H1_5 H 0.6163 0.8133 0.1189
C5_5 C 0.5273(5) 0.8772(4) 0.1054(2)
C7_5 C 0.4118(5) 0.8117(5) 0.1089(3)
H3_5 H 0.3599 0.8121 0.1071
C8_5 C 0.5239(6) 0.7497(6) 0.1226(4)
H4_5 H 0.5486 0.7074 0.1300
C9_5 C 0.4514(5) 0.8760(5) 0.1018(3)
H5_5 H 0.4264 0.9184 0.0946
N10_5 N 0.8822(4) 0.8322(4) 0.08231(15)
N12_5 N 0.3388(4) 0.6612(4) 0.1129(2)
N13_5 N 0.4332(4) 0.6233(4) 0.1419(2)
C13_5 C 0.8269(4) 0.8808(4) 0.07552(18)
C15_5 C 0.4060(5) 0.6788(5) 0.1248(3)
C17_5 C 0.7912(4) 0.8860(5) 0.04464(17)
C21_5 C 0.7162(5) 0.8832(7) 0.0415(2)
H7_5 H 0.6862 0.8779 0.0592
C22_5 C 0.4469(5) 0.7471(5) 0.1184(3)
C25_5 C 0.8341(5) 0.8894(9) 0.0177(2)
H10_5 H 0.8860 0.8868 0.0193
C28_5 C 0.6833(5) 0.8883(6) 0.01185(19)
H13_5 H 0.6314 0.8875 0.0101
C16_5 C 0.7255(5) 0.8942(4) 0.98583(19)
C23_5 C 0.8005(5) 0.8969(8) 0.9881(2)
H8_5 H 0.8299 0.9035 0.9703
C29_5 C 0.6891(5) 0.9004(4) 0.95383(17)
O9_3 O 0.7269(4) 0.9321(4) 0.93279(14)
O10_3 O 0.6247(3) 0.8741(4) 0.95076(14)
Mn10_3 Mn 0.53616(6) 0.88397(6) 0.91896(2)
N1_6 N 0.1888(3) 0.0762(3) 0.60014(13)
O1_6 O 0.3607(3) 0.0547(3) 0.60859(17)
N4_6 N 0.1415(3) 0.0989(3) 0.62292(14)
C2_6 C 0.4275(4) 0.0528(5) 0.59971(19)
O4_6 O 0.2472(3) 0.0257(5) 0.66416(15)
N6_6 N 0.1006(4) 0.1542(3) 0.61242(15)
C3_6 C 0.4354(5) 0.1871(5) 0.6162(3)
H1_6 H 0.3837 0.1867 0.6189
C5_6 C 0.4727(5) 0.1228(4) 0.6054(2)
C7_6 C 0.5882(5) 0.1883(5) 0.6089(3)
H3_6 H 0.6401 0.1879 0.6071
C8_6 C 0.4761(6) 0.2503(6) 0.6226(4)
H4_6 H 0.4514 0.2926 0.6300
C9_6 C 0.5486(5) 0.1240(5) 0.6018(3)
H5_6 H 0.5736 0.0816 0.5946
N10_6 N 0.1178(4) 0.1678(4) 0.58231(15)
N12_6 N 0.6612(4) 0.3388(4) 0.6129(2)
N13_6 N 0.5668(4) 0.3767(4) 0.6419(2)
C13_6 C 0.1731(4) 0.1192(4) 0.57552(18)
C15_6 C 0.5940(5) 0.3212(5) 0.6248(3)
C16_6 C 0.2745(5) 0.1058(4) 0.48583(19)
C17_6 C 0.2088(4) 0.1140(5) 0.54464(17)
C21_6 C 0.2838(5) 0.1168(7) 0.5415(2)
H7_6 H 0.3138 0.1221 0.5592
C22_6 C 0.5531(5) 0.2529(5) 0.6184(3)
C23_6 C 0.1995(5) 0.1031(8) 0.4881(2)
H8_6 H 0.1701 0.0965 0.4703
C25_6 C 0.1659(5) 0.1106(9) 0.5177(2)
H10_6 H 0.1140 0.1132 0.5193
C28_6 C 0.3167(5) 0.1117(6) 0.51185(19)
H13_6 H 0.3686 0.1125 0.5101
C29_6 C 0.3109(5) 0.0996(4) 0.45383(17)
O9_4 O 0.2731(4) 0.0679(4) 0.43279(14)
O10_4 O 0.3753(3) 0.1259(4) 0.45076(14)
Mn10_4 Mn 0.46384(6) 0.11603(6) 0.41896(2)
Mn3_2 Mn 0.46384(6) 0.88397(6) 0.58104(2)
O6_6 O 0.4596(3) 0.9999(3) 0.58665(16)
N9_6 N 0.4011(3) 0.8582(3) 0.62691(14)
C10_6 C 0.4010(4) 0.6888(4) 0.79655(17)
N11_6 N 0.3323(4) 0.8826(4) 0.66763(15)
C11_6 C 0.3805(4) 0.8271(4) 0.67436(17)
C12_6 C 0.3955(4) 0.7253(5) 0.76420(17)
N14_6 N 0.3462(3) 0.8992(4) 0.63843(15)
C14_6 C 0.3871(7) 0.6828(5) 0.7375(2)
H6_6 H 0.3845 0.6309 0.7391
C19_6 C 0.3866(5) 0.7910(5) 0.70602(18)
C27_6 C 0.3827(7) 0.7160(5) 0.7091(2)
H12_6 H 0.3768 0.6865 0.6913
C30_6 C 0.3922(9) 0.8348(6) 0.7327(2)
H14_6 H 0.3912 0.8868 0.7312
C31_6 C 0.3990(8) 0.8010(6) 0.7607(2)
H15_6 H 0.4065 0.8304 0.7785
N17_6 N 0.5371(5) 0.8796(6) 0.5384(2)
O11_6 O 0.1225(6) 0.9635(5) 0.71182(18)
H17_6 H 0.0803 0.9574 0.7190
C33_6 C 0.5121(8) 0.9211(8) 0.5135(4)
H18_6 H 0.4734 0.9554 0.5160
C34_6 C 0.5941(8) 0.8285(8) 0.5357(4)
H19_6 H 0.6101 0.8014 0.5531
C35_6 C 0.6279(9) 0.8180(9) 0.5063(5)
H20_6 H 0.6663 0.7830 0.5049
C36_3 C 0.5457(10) 0.9110(10) 0.4839(4)
H21_3 H 0.5279 0.9398 0.4673
C37_3 C 0.6071(11) 0.8582(10) 0.4773(6)
H22_3 H 0.6294 0.8513 0.4577
N20_3 N 0.5700(3) 0.8815(4) 0.60883(18)
O15_4 O 0.2731(4) 0.9321(4) 0.56721(14)
O16_4 O 0.3753(3) 0.8741(4) 0.54924(14)
H23_6 H 0.154623 0.988045 0.727842
O2_6 O 0.9464(3) 0.1393(3) 0.64162(16)
C1_6 C 0.9465(4) 0.0716(5) 0.6505(2)
O3_6 O 0.9995(3) 0.0407(3) 0.66325(15)
C4_6 C 0.8780(4) 0.0277(5) 0.6446(2)
C6_6 C 0.8119(5) 0.0645(5) 0.6351(3)
H2_6 H 0.8113 0.1164 0.6336
C32_6 C 0.7489(5) 0.0249(6) 0.6281(4)
H16_6 H 0.7067 0.0497 0.6207
N15_6 N 0.6617(4) 0.8386(4) 0.6371(2)
N16_6 N 0.6229(4) 0.9331(4) 0.6080(2)
C18_6 C 0.6781(5) 0.9069(4) 0.6266(2)
C20_6 C 0.7471(5) 0.9460(5) 0.6320(2)
C24_6 C 0.8769(5) 0.9513(5) 0.6479(3)
H9_6 H 0.9200 0.9262 0.6542
C26_6 C 0.8115(5) 0.9111(5) 0.6418(3)
H11_6 H 0.8115 0.8595 0.6445
O6_7 O 0.4596(3) 0.0001(3) 0.41335(16)
N9_7 N 0.4011(3) 0.1418(3) 0.37309(14)
C10_7 C 0.4010(4) 0.3112(4) 0.20345(17)
N11_7 N 0.3323(4) 0.1174(4) 0.33237(15)
C11_7 C 0.3805(4) 0.1729(4) 0.32564(17)
C12_7 C 0.3955(4) 0.2747(5) 0.23580(17)
N14_7 N 0.3462(3) 0.1008(4) 0.36157(15)
C14_7 C 0.3871(7) 0.3172(5) 0.2625(2)
H6_7 H 0.3845 0.3691 0.2609
C19_7 C 0.3866(5) 0.2090(5) 0.29398(18)
C27_7 C 0.3827(7) 0.2840(5) 0.2909(2)
H12_7 H 0.3768 0.3135 0.3087
C30_7 C 0.3922(9) 0.1652(6) 0.2673(2)
H14_7 H 0.3912 0.1132 0.2688
C31_7 C 0.3990(8) 0.1990(6) 0.2393(2)
H15_7 H 0.4065 0.1696 0.2215
N17_7 N 0.5371(5) 0.1204(6) 0.4616(2)
O11_7 O 0.1225(6) 0.0365(5) 0.28818(18)
H17_7 H 0.0803 0.0426 0.2810
C33_7 C 0.5121(8) 0.0789(8) 0.4865(4)
H18_7 H 0.4734 0.0446 0.4840
C34_7 C 0.5941(8) 0.1715(8) 0.4643(4)
H19_7 H 0.6101 0.1986 0.4469
C35_7 C 0.6279(9) 0.1820(9) 0.4937(5)
H20_7 H 0.6663 0.2170 0.4951
C36_4 C 0.5457(10) 0.0890(10) 0.5161(4)
H21_4 H 0.5279 0.0602 0.5327
C37_4 C 0.6071(11) 0.1418(10) 0.5227(6)
H22_4 H 0.6294 0.1487 0.5423
N20_4 N 0.5700(3) 0.1185(4) 0.39117(18)
H23_7 H 0.154623 0.0119548 0.272158
N1_7 N 0.1888(3) 0.9238(3) 0.39986(13)
O1_7 O 0.3607(3) 0.9453(3) 0.39141(17)
N4_7 N 0.1415(3) 0.9011(3) 0.37708(14)
C2_7 C 0.4275(4) 0.9472(5) 0.40029(19)
O4_7 O 0.2472(3) 0.9743(5) 0.33584(15)
N6_7 N 0.1006(4) 0.8458(3) 0.38758(15)
C3_7 C 0.4354(5) 0.8129(5) 0.3838(3)
H1_7 H 0.3837 0.8133 0.3811
C5_7 C 0.4727(5) 0.8772(4) 0.3946(2)
C7_7 C 0.5882(5) 0.8117(5) 0.3911(3)
H3_7 H 0.6401 0.8121 0.3929
C8_7 C 0.4761(6) 0.7497(6) 0.3774(4)
H4_7 H 0.4514 0.7074 0.3700
C9_7 C 0.5486(5) 0.8760(5) 0.3982(3)
H5_7 H 0.5736 0.9184 0.4054
N10_7 N 0.1178(4) 0.8322(4) 0.41769(15)
N12_7 N 0.6612(4) 0.6612(4) 0.3871(2)
N13_7 N 0.5668(4) 0.6233(4) 0.3581(2)
C13_7 C 0.1731(4) 0.8808(4) 0.42448(18)
C15_7 C 0.5940(5) 0.6788(5) 0.3752(3)
C16_7 C 0.2745(5) 0.8942(4) 0.51417(19)
C17_7 C 0.2088(4) 0.8860(5) 0.45536(17)
C21_7 C 0.2838(5) 0.8832(7) 0.4585(2)
H7_7 H 0.3138 0.8779 0.4408
C22_7 C 0.5531(5) 0.7471(5) 0.3816(3)
C23_7 C 0.1995(5) 0.8969(8) 0.5119(2)
H8_7 H 0.1701 0.9035 0.5297
C25_7 C 0.1659(5) 0.8894(9) 0.4823(2)
H10_7 H 0.1140 0.8868 0.4807
C28_7 C 0.3167(5) 0.8883(6) 0.48815(19)
H13_7 H 0.3686 0.8875 0.4899
C29_7 C 0.3109(5) 0.9004(4) 0.54617(17)
N15_7 N 0.6617(4) 0.1614(4) 0.3629(2)
N16_7 N 0.6229(4) 0.0669(4) 0.3920(2)
C18_7 C 0.6781(5) 0.0931(4) 0.3734(2)
C20_7 C 0.7471(5) 0.0540(5) 0.3680(2)
C24_7 C 0.8769(5) 0.0487(5) 0.3521(3)
H9_7 H 0.9200 0.0738 0.3458
C26_7 C 0.8115(5) 0.0889(5) 0.3582(3)
H11_7 H 0.8115 0.1405 0.3555
O2_7 O 0.9464(3) 0.8607(3) 0.35838(16)
C1_7 C 0.9465(4) 0.9284(5) 0.3495(2)
O3_7 O 0.9995(3) 0.9593(3) 0.33675(15)
C4_7 C 0.8780(4) 0.9723(5) 0.3554(2)
C6_7 C 0.8119(5) 0.9355(5) 0.3649(3)
H2_7 H 0.8113 0.8836 0.3664
C32_7 C 0.7489(5) 0.9751(6) 0.3719(4)
H16_7 H 0.7067 0.9503 0.3793
O2_8 O 0.0536(3) 0.1393(3) 0.85838(16)
C1_8 C 0.0535(4) 0.0716(5) 0.8495(2)
O3_8 O 0.0005(3) 0.0407(3) 0.83675(15)
C4_8 C 0.1220(4) 0.0277(5) 0.8554(2)
C6_8 C 0.1881(5) 0.0645(5) 0.8649(3)
H2_8 H 0.1887 0.1164 0.8664
C32_8 C 0.2511(5) 0.0249(6) 0.8719(4)
H16_8 H 0.2933 0.0497 0.8793
N5_4 N 0.4300(3) 0.8815(4) 0.89117(18)
N15_8 N 0.3383(4) 0.8386(4) 0.8629(2)
N16_8 N 0.3771(4) 0.9331(4) 0.8920(2)
C18_8 C 0.3219(5) 0.9069(4) 0.8734(2)
C20_8 C 0.2529(5) 0.9460(5) 0.8680(2)
C24_8 C 0.1231(5) 0.9513(5) 0.8521(3)
H9_8 H 0.0800 0.9262 0.8458
C26_8 C 0.1885(5) 0.9111(5) 0.8582(3)
H11_8 H 0.1885 0.8595 0.8555
C16_8 C 0.7255(5) 0.1058(4) 0.01417(19)
C23_8 C 0.8005(5) 0.1031(8) 0.0119(2)
H8_8 H 0.8299 0.0965 0.0297
C29_8 C 0.6891(5) 0.0996(4) 0.04617(17)
N1_8 N 0.8112(3) 0.0762(3) 0.89986(13)
O1_8 O 0.6393(3) 0.0547(3) 0.89141(17)
N4_8 N 0.8585(3) 0.0989(3) 0.87708(14)
C2_8 C 0.5725(4) 0.0528(5) 0.90029(19)
O4_8 O 0.7528(3) 0.0257(5) 0.83584(15)
N6_8 N 0.8994(4) 0.1542(3) 0.88758(15)
C3_8 C 0.5646(5) 0.1871(5) 0.8838(3)
H1_8 H 0.6163 0.1867 0.8811
C5_8 C 0.5273(5) 0.1228(4) 0.8946(2)
C7_8 C 0.4118(5) 0.1883(5) 0.8911(3)
H3_8 H 0.3599 0.1879 0.8929
C8_8 C 0.5239(6) 0.2503(6) 0.8774(4)
H4_8 H 0.5486 0.2926 0.8700
C9_8 C 0.4514(5) 0.1240(5) 0.8982(3)
H5_8 H 0.4264 0.0816 0.9054
N10_8 N 0.8822(4) 0.1678(4) 0.91769(15)
N12_8 N 0.3388(4) 0.3388(4) 0.8871(2)
N13_8 N 0.4332(4) 0.3767(4) 0.8581(2)
C13_8 C 0.8269(4) 0.1192(4) 0.92448(18)
C15_8 C 0.4060(5) 0.3212(5) 0.8752(3)
C17_8 C 0.7912(4) 0.1140(5) 0.95536(17)
C21_8 C 0.7162(5) 0.1168(7) 0.9585(2)
H7_8 H 0.6862 0.1221 0.9408
C22_8 C 0.4469(5) 0.2529(5) 0.8816(3)
C25_8 C 0.8341(5) 0.1106(9) 0.9823(2)
H10_8 H 0.8860 0.1132 0.9807
C28_8 C 0.6833(5) 0.1117(6) 0.98815(19)
H13_8 H 0.6314 0.1125 0.9899
O6_8 O 0.5404(3) 0.9999(3) 0.91335(16)
N9_8 N 0.5989(3) 0.8582(3) 0.87309(14)
C10_8 C 0.5990(4) 0.6888(4) 0.70345(17)
N11_8 N 0.6677(4) 0.8826(4) 0.83237(15)
C11_8 C 0.6195(4) 0.8271(4) 0.82564(17)
C12_8 C 0.6045(4) 0.7253(5) 0.73580(17)
N14_8 N 0.6538(3) 0.8992(4) 0.86157(15)
C14_8 C 0.6129(7) 0.6828(5) 0.7625(2)
H6_8 H 0.6155 0.6309 0.7609
C19_8 C 0.6134(5) 0.7910(5) 0.79398(18)
C27_8 C 0.6173(7) 0.7160(5) 0.7909(2)
H12_8 H 0.6232 0.6865 0.8087
C30_8 C 0.6078(9) 0.8348(6) 0.7673(2)
H14_8 H 0.6088 0.8868 0.7688
C31_8 C 0.6010(8) 0.8010(6) 0.7393(2)
H15_8 H 0.5935 0.8304 0.7215
N17_8 N 0.4629(5) 0.8796(6) 0.9616(2)
O11_8 O 0.8775(6) 0.9635(5) 0.78818(18)
H17_8 H 0.9197 0.9574 0.7810
C33_8 C 0.4879(8) 0.9211(8) 0.9865(4)
H18_8 H 0.5266 0.9554 0.9840
C34_8 C 0.4059(8) 0.8285(8) 0.9643(4)
H19_8 H 0.3899 0.8014 0.9469
C35_8 C 0.3721(9) 0.8180(9) 0.9937(5)
H20_8 H 0.3337 0.7830 0.9951
H23_8 H 0.845377 0.988045 0.772158
C36_5 C 0.9543(10) 0.5890(10) 0.9839(4)
H21_5 H 0.9721 0.5602 0.9673
C37_5 C 0.8929(11) 0.6418(10) 0.9773(6)
H22_5 H 0.8706 0.6487 0.9577
C36_6 C 0.9543(10) 0.4110(10) 0.0161(4)
H21_6 H 0.9721 0.4398 0.0327
C37_6 C 0.8929(11) 0.3582(10) 0.0227(6)
H22_6 H 0.8706 0.3513 0.0423
C36_7 C 0.4543(10) 0.0890(10) 0.9839(4)
H21_7 H 0.4721 0.0602 0.9673
C37_7 C 0.3929(11) 0.1418(10) 0.9773(6)
H22_7 H 0.3706 0.1487 0.9577
C36_8 C 0.4543(10) 0.9110(10) 0.0161(4)
H21_8 H 0.4721 0.9398 0.0327
C37_8 C 0.3929(11) 0.8582(10) 0.0227(6)
H22_8 H 0.3706 0.8513 0.0423
loop_
_geom_bond_atom_site_label_1
_geom_bond_atom_site_label_2
_geom_bond_site_symmetry_1
_geom_bond_site_symmetry_2
Mn1 N1 1_555 1_555
Mn2 N4 1_555 1_555
Mn9 O5 1_555 1_555
Mn4 O2 1_555 1_555
N1 N4 1_555 1_555
O1 Mn1 1_555 1_555
O2 C1 1_555 1_555
N2 N5 1_555 1_555
C1 O3 1_555 1_555
N4 N6 1_555 1_555
O3 Mn2 1_555 1_555
C2 O1 1_555 1_555
O4 Mn1 1_555 1_555
N5 N16 1_555 1_555
N6 Mn4 1_555 1_555
C3 H1 1_555 1_555
C4 C1 1_555 1_555
C5 C2 1_555 1_555
C6 C4 1_555 1_555
H2 C6 1_555 1_555
C8 C3 1_555 1_555
H4 C8 1_555 1_555
O6 Mn9 1_555 1_555
O7 C10 1_555 1_555
O8 C10 1_555 1_555
N8 N9 1_555 1_555
N9 Mn9 1_555 1_555
C10 C12 1_555 1_555
N10 N6 1_555 1_555
N11 C11 1_555 1_555
C11 N8 1_555 1_555
C12 C14 1_555 1_555
N14 Mn1 1_555 1_555
C13 N1 1_555 1_555
C14 H6 1_555 1_555
N15 N2 1_555 1_555
N16 C18 1_555 1_555
C17 C13 1_555 1_555
C18 N15 1_555 1_555
C19 C11 1_555 1_555
C20 C18 1_555 1_555
C21 C17 1_555 1_555
H7 C21 1_555 1_555
C24 C4 1_555 1_555
H9 C24 1_555 1_555
C25 C17 1_555 1_555
H10 C25 1_555 1_555
C26 C20 1_555 1_555
H11 C26 1_555 1_555
C27 C14 1_555 1_555
H12 C27 1_555 1_555
H13 C28 1_555 1_555
C30 C19 1_555 1_555
H14 C30 1_555 1_555
C31 C12 1_555 1_555
H15 C31 1_555 1_555
C32 C6 1_555 1_555
H16 C32 1_555 1_555
O11 Mn2 1_555 1_555
H17 O11 1_555 1_555
Mn7 O8 1_555 1_555
Mn11 N2 1_555 1_555
Mn13 O7 1_555 1_555
N18 Mn4 1_555 1_555
N19 Mn1 1_555 1_555
O12 Mn4 1_555 1_555
O13 Mn4 1_555 1_555
O14 Mn2 1_555 1_555
N21 Mn2 1_555 1_555
N22 Mn4 1_555 1_555
O15 Mn1 1_555 1_555
O16 Mn9 1_555 1_555
Mn2 O4 1_555 1_555
C2 O6 1_555 1_555
C3 C5 1_555 1_555
N9 N14 1_555 1_555
N10 C13 1_555 1_555
N11 N14 1_555 1_555
C19 C27 1_555 1_555
C20 C32 1_555 1_555
C21 C28 1_555 1_555
C24 C26 1_555 1_555
C30 C31 1_555 1_555
N19 N21 1_555 1_555
O11 H23 1_555 1_555
C16 C23 1_555 1_555
C23 H8 1_555 1_555
C29 C16 1_555 1_555
O9 C29 1_555 1_555
O10 C29 1_555 1_555
Mn6 O9 1_555 1_555
Mn10 O10 1_555 1_555
N3 N7 1_555 1_555
C7 H3 1_555 1_555
H5 C9 1_555 1_555
N7 N13 1_555 1_555
N12 N3 1_555 1_555
N13 C15 1_555 1_555
C15 N12 1_555 1_555
C22 C7 1_555 1_555
C33 N17 1_555 1_555
C34 N17 1_555 1_555
H19 C34 1_555 1_555
C35 C34 1_555 1_555
H20 C35 1_555 1_555
Mn5 N3 1_555 1_555
C7 C9 1_555 1_555
C15 C22 1_555 1_555
N3_2 N7_2 1_555 1_555
C7_2 H3_2 1_555 1_555
H5_2 C9_2 1_555 1_555
N7_2 N13_2 1_555 1_555
N12_2 N3_2 1_555 1_555
N13_2 C15_2 1_555 1_555
C15_2 N12_2 1_555 1_555
C22_2 C7_2 1_555 1_555
C33_2 N17_2 1_555 1_555
C34_2 N17_2 1_555 1_555
H19_2 C34_2 1_555 1_555
C35_2 C34_2 1_555 1_555
H20_2 C35_2 1_555 1_555
C36 C33_2 1_555 1_555
H21 C36 1_555 1_555
C37 C35_2 1_555 1_555
H22 C37 1_555 1_555
Mn5_2 N3_2 1_555 1_555
C7_2 C9_2 1_555 1_555
C15_2 C22_2 1_555 1_555
C36 C37 1_555 1_555
Mn1_2 N1_2 1_555 1_555
Mn2_2 N4_2 1_555 1_555
Mn3 O5_2 1_555 1_555
Mn4_2 O2_2 1_555 1_555
N1_2 N4_2 1_555 1_555
O1_2 Mn1_2 1_555 1_555
O2_2 C1_2 1_555 1_555
N2_2 N20 1_555 1_555
C1_2 O3_2 1_555 1_555
N4_2 N6_2 1_555 1_555
O3_2 Mn2_2 1_555 1_555
C2_2 O1_2 1_555 1_555
O4_2 Mn1_2 1_555 1_555
N20 N16_2 1_555 1_555
N6_2 Mn4_2 1_555 1_555
C3_2 H1_2 1_555 1_555
C4_2 C1_2 1_555 1_555
C5_2 C2_2 1_555 1_555
C6_2 C4_2 1_555 1_555
H2_2 C6_2 1_555 1_555
C8_2 C3_2 1_555 1_555
H4_2 C8_2 1_555 1_555
O6_2 Mn3 1_555 1_555
O7_2 C10_2 1_555 1_555
O8_2 C10_2 1_555 1_555
N8_2 N9_2 1_555 1_555
N9_2 Mn3 1_555 1_555
C10_2 C12_2 1_555 1_555
N10_2 N6_2 1_555 1_555
N11_2 C11_2 1_555 1_555
C11_2 N8_2 1_555 1_555
C12_2 C14_2 1_555 1_555
N14_2 Mn1_2 1_555 1_555
C13_2 N1_2 1_555 1_555
C14_2 H6_2 1_555 1_555
N15_2 N2_2 1_555 1_555
N16_2 C18_2 1_555 1_555
C16_2 C23_2 1_555 1_555
C17_2 C13_2 1_555 1_555
C18_2 N15_2 1_555 1_555
C19_2 C11_2 1_555 1_555
C20_2 C18_2 1_555 1_555
C21_2 C17_2 1_555 1_555
H7_2 C21_2 1_555 1_555
C23_2 H8_2 1_555 1_555
C24_2 C4_2 1_555 1_555
H9_2 C24_2 1_555 1_555
C25_2 C17_2 1_555 1_555
H10_2 C25_2 1_555 1_555
C26_2 C20_2 1_555 1_555
H11_2 C26_2 1_555 1_555
C27_2 C14_2 1_555 1_555
H12_2 C27_2 1_555 1_555
C28_2 C16_2 1_555 1_555
H13_2 C28_2 1_555 1_555
C29_2 C16_2 1_555 1_555
C30_2 C19_2 1_555 1_555
H14_2 C30_2 1_555 1_555
C31_2 C12_2 1_555 1_555
H15_2 C31_2 1_555 1_555
C32_2 C6_2 1_555 1_555
H16_2 C32_2 1_555 1_555
O9_2 C29_2 1_555 1_555
O10_2 C29_2 1_555 1_555
O11_2 Mn2_2 1_555 1_555
H17_2 O11_2 1_555 1_555
Mn6_2 O9_2 1_555 1_555
Mn7_2 O8_2 1_555 1_555
Mn10_2 O10_2 1_555 1_555
Mn12 N2_2 1_555 1_555
Mn13_2 O7_2 1_555 1_555
N18_2 Mn4_2 1_555 1_555
N19_2 Mn1_2 1_555 1_555
O12_2 Mn4_2 1_555 1_555
O13_2 Mn4_2 1_555 1_555
O14_2 Mn2_2 1_555 1_555
N21_2 Mn2_2 1_555 1_555
N22_2 Mn4_2 1_555 1_555
O15_2 Mn1_2 1_555 1_555
O16_2 Mn3 1_555 1_555
Mn2_2 O4_2 1_555 1_555
C2_2 O6_2 1_555 1_555
C3_2 C5_2 1_555 1_555
N9_2 N14_2 1_555 1_555
N10_2 C13_2 1_555 1_555
N11_2 N14_2 1_555 1_555
C19_2 C27_2 1_555 1_555
C20_2 C32_2 1_555 1_555
C21_2 C28_2 1_555 1_555
C23_2 C25_2 1_555 1_555
C24_2 C26_2 1_555 1_555
C30_2 C31_2 1_555 1_555
N19_2 N21_2 1_555 1_555
O11_2 H23_2 1_555 1_555
N3_3 N7_3 1_555 1_555
C7_3 H3_3 1_555 1_555
H5_3 C9_3 1_555 1_555
N7_3 N13_3 1_555 1_555
N12_3 N3_3 1_555 1_555
N13_3 C15_3 1_555 1_555
C15_3 N12_3 1_555 1_555
C22_3 C7_3 1_555 1_555
C33_3 N17_3 1_555 1_555
C34_3 N17_3 1_555 1_555
H19_3 C34_3 1_555 1_555
C35_3 C34_3 1_555 1_555
H20_3 C35_3 1_555 1_555
C36_2 C33_3 1_555 1_555
H21_2 C36_2 1_555 1_555
C37_2 C35_3 1_555 1_555
H22_2 C37_2 1_555 1_555
Mn5_3 N3_3 1_555 1_555
C7_3 C9_3 1_555 1_555
C15_3 C22_3 1_555 1_555
C36_2 C37_2 1_555 1_555
Mn6_2 N1_3 1_555 1_555
Mn2_3 N4_3 1_555 1_555
Mn10_2 O5_3 1_555 1_555
Mn4_3 O2_3 1_555 1_555
N1_3 N4_3 1_555 1_555
O1_3 Mn6_2 1_555 1_555
O2_3 C1_3 1_555 1_555
N2_3 N20_2 1_555 1_555
C1_3 O3_3 1_555 1_555
N4_3 N6_3 1_555 1_555
O3_3 Mn2_3 1_555 1_555
C2_3 O1_3 1_555 1_555
O4_3 Mn6_2 1_555 1_555
N20_2 N16_3 1_555 1_555
N6_3 Mn4_3 1_555 1_555
C3_3 H1_3 1_555 1_555
C4_3 C1_3 1_555 1_555
C5_3 C2_3 1_555 1_555
C6_3 C4_3 1_555 1_555
H2_3 C6_3 1_555 1_555
C8_3 C3_3 1_555 1_555
H4_3 C8_3 1_555 1_555
O6_3 Mn10_2 1_555 1_555
O7_3 C10_3 1_555 1_555
O8_3 C10_3 1_555 1_555
N8_3 N9_3 1_555 1_555
N9_3 Mn10_2 1_555 1_555
C10_3 C12_3 1_555 1_555
N10_3 N6_3 1_555 1_555
N11_3 C11_3 1_555 1_555
C11_3 N8_3 1_555 1_555
C12_3 C14_3 1_555 1_555
N14_3 Mn6_2 1_555 1_555
C13_3 N1_3 1_555 1_555
C14_3 H6_3 1_555 1_555
N15_3 N2_3 1_555 1_555
N16_3 C18_3 1_555 1_555
C16_3 C23_3 1_555 1_555
C17_3 C13_3 1_555 1_555
C18_3 N15_3 1_555 1_555
C19_3 C11_3 1_555 1_555
C20_3 C18_3 1_555 1_555
C21_3 C17_3 1_555 1_555
H7_3 C21_3 1_555 1_555
C23_3 H8_3 1_555 1_555
C24_3 C4_3 1_555 1_555
H9_3 C24_3 1_555 1_555
C25_3 C17_3 1_555 1_555
H10_3 C25_3 1_555 1_555
C26_3 C20_3 1_555 1_555
H11_3 C26_3 1_555 1_555
C27_3 C14_3 1_555 1_555
H12_3 C27_3 1_555 1_555
C28_3 C16_3 1_555 1_555
H13_3 C28_3 1_555 1_555
C29_3 C16_3 1_555 1_555
C30_3 C19_3 1_555 1_555
H14_3 C30_3 1_555 1_555
C31_3 C12_3 1_555 1_555
H15_3 C31_3 1_555 1_555
C32_3 C6_3 1_555 1_555
H16_3 C32_3 1_555 1_555
O15_2 C29_3 1_555 1_555
O16_2 C29_3 1_555 1_555
O11_3 Mn2_3 1_555 1_555
H17_3 O11_3 1_555 1_555
Mn8 O8_3 1_555 1_555
Mn13 N2_3 1_555 1_555
Mn11 O7_3 1_555 1_555
N18_3 Mn4_3 1_555 1_555
N19_3 Mn6_2 1_555 1_555
O12_3 Mn4_3 1_555 1_555
O13_3 Mn4_3 1_555 1_555
O14_3 Mn2_3 1_555 1_555
N21_3 Mn2_3 1_555 1_555
N22_3 Mn4_3 1_555 1_555
Mn2_3 O4_3 1_555 1_555
C2_3 O6_3 1_555 1_555
C3_3 C5_3 1_555 1_555
N9_3 N14_3 1_555 1_555
N10_3 C13_3 1_555 1_555
N11_3 N14_3 1_555 1_555
C19_3 C27_3 1_555 1_555
C20_3 C32_3 1_555 1_555
C21_3 C28_3 1_555 1_555
C23_3 C25_3 1_555 1_555
C24_3 C26_3 1_555 1_555
C30_3 C31_3 1_555 1_555
N19_3 N21_3 1_555 1_555
O11_3 H23_3 1_555 1_555
C16_4 C23_4 1_555 1_555
C23_4 H8_4 1_555 1_555
C29_4 C16_4 1_555 1_555
O15 C29_4 1_555 1_555
O16 C29_4 1_555 1_555
Mn6 N1_4 1_555 1_555
Mn2_4 N4_4 1_555 1_555
Mn10 O5_4 1_555 1_555
Mn4_4 O2_4 1_555 1_555
N1_4 N4_4 1_555 1_555
O1_4 Mn6 1_555 1_555
O2_4 C1_4 1_555 1_555
N2_4 N5_2 1_555 1_555
C1_4 O3_4 1_555 1_555
N4_4 N6_4 1_555 1_555
O3_4 Mn2_4 1_555 1_555
C2_4 O1_4 1_555 1_555
O4_4 Mn6 1_555 1_555
N5_2 N16_4 1_555 1_555
N6_4 Mn4_4 1_555 1_555
C3_4 H1_4 1_555 1_555
C4_4 C1_4 1_555 1_555
C5_4 C2_4 1_555 1_555
C6_4 C4_4 1_555 1_555
H2_4 C6_4 1_555 1_555
C8_4 C3_4 1_555 1_555
H4_4 C8_4 1_555 1_555
O6_4 Mn10 1_555 1_555
O7_4 C10_4 1_555 1_555
O8_4 C10_4 1_555 1_555
N8_4 N9_4 1_555 1_555
N9_4 Mn10 1_555 1_555
C10_4 C12_4 1_555 1_555
N10_4 N6_4 1_555 1_555
N11_4 C11_4 1_555 1_555
C11_4 N8_4 1_555 1_555
C12_4 C14_4 1_555 1_555
N14_4 Mn6 1_555 1_555
C13_4 N1_4 1_555 1_555
C14_4 H6_4 1_555 1_555
N15_4 N2_4 1_555 1_555
N16_4 C18_4 1_555 1_555
C17_4 C13_4 1_555 1_555
C18_4 N15_4 1_555 1_555
C19_4 C11_4 1_555 1_555
C20_4 C18_4 1_555 1_555
C21_4 C17_4 1_555 1_555
H7_4 C21_4 1_555 1_555
C24_4 C4_4 1_555 1_555
H9_4 C24_4 1_555 1_555
C25_4 C17_4 1_555 1_555
H10_4 C25_4 1_555 1_555
C26_4 C20_4 1_555 1_555
H11_4 C26_4 1_555 1_555
C27_4 C14_4 1_555 1_555
H12_4 C27_4 1_555 1_555
H13_4 C28_4 1_555 1_555
C30_4 C19_4 1_555 1_555
H14_4 C30_4 1_555 1_555
C31_4 C12_4 1_555 1_555
H15_4 C31_4 1_555 1_555
C32_4 C6_4 1_555 1_555
H16_4 C32_4 1_555 1_555
O11_4 Mn2_4 1_555 1_555
H17_4 O11_4 1_555 1_555
Mn8_2 O8_4 1_555 1_555
Mn13_2 N2_4 1_555 1_555
Mn12 O7_4 1_555 1_555
N18_4 Mn4_4 1_555 1_555
N19_4 Mn6 1_555 1_555
O12_4 Mn4_4 1_555 1_555
O13_4 Mn4_4 1_555 1_555
O14_4 Mn2_4 1_555 1_555
N21_4 Mn2_4 1_555 1_555
N22_4 Mn4_4 1_555 1_555
Mn2_4 O4_4 1_555 1_555
C2_4 O6_4 1_555 1_555
C3_4 C5_4 1_555 1_555
N9_4 N14_4 1_555 1_555
N10_4 C13_4 1_555 1_555
N11_4 N14_4 1_555 1_555
C19_4 C27_4 1_555 1_555
C20_4 C32_4 1_555 1_555
C21_4 C28_4 1_555 1_555
C24_4 C26_4 1_555 1_555
C30_4 C31_4 1_555 1_555
N19_4 N21_4 1_555 1_555
O11_4 H23_4 1_555 1_555
N3_4 N7_4 1_555 1_555
C7_4 H3_4 1_555 1_555
H5_4 C9_4 1_555 1_555
N7_4 N13_4 1_555 1_555
N12_4 N3_4 1_555 1_555
N13_4 C15_4 1_555 1_555
C15_4 N12_4 1_555 1_555
C22_4 C7_4 1_555 1_555
C33_4 N17_4 1_555 1_555
C34_4 N17_4 1_555 1_555
H19_4 C34_4 1_555 1_555
C35_4 C34_4 1_555 1_555
H20_4 C35_4 1_555 1_555
Mn5_4 N3_4 1_555 1_555
C7_4 C9_4 1_555 1_555
C15_4 C22_4 1_555 1_555
N18 N5_3 1_555 1_555
N5_3 N16_5 1_555 1_555
N15_5 N18 1_555 1_555
N16_5 C18_5 1_555 1_555
C18_5 N15_5 1_555 1_555
C20_5 C18_5 1_555 1_555
H9_5 C24_5 1_555 1_555
C26_5 C20_5 1_555 1_555
H11_5 C26_5 1_555 1_555
Mn9_2 N5_3 1_555 1_555
C24_5 C26_5 1_555 1_555
O2_5 C1_5 1_555 1_555
C1_5 O3_5 1_555 1_555
C4_5 C1_5 1_555 1_555
C6_5 C4_5 1_555 1_555
H2_5 C6_5 1_555 1_555
C32_5 C6_5 1_555 1_555
H16_5 C32_5 1_555 1_555
Mn9_2 O12 1_555 1_555
O6_5 Mn9_2 1_555 1_555
O13_3 C10_5 1_555 1_555
O14_3 C10_5 1_555 1_555
N22 N9_5 1_555 1_555
N9_5 Mn9_2 1_555 1_555
C10_5 C12_5 1_555 1_555
N11_5 C11_5 1_555 1_555
C11_5 N22 1_555 1_555
C12_5 C14_5 1_555 1_555
N14_5 Mn5 1_555 1_555
C14_5 H6_5 1_555 1_555
C19_5 C11_5 1_555 1_555
C27_5 C14_5 1_555 1_555
H12_5 C27_5 1_555 1_555
C30_5 C19_5 1_555 1_555
H14_5 C30_5 1_555 1_555
C31_5 C12_5 1_555 1_555
H15_5 C31_5 1_555 1_555
N17_5 Mn9_2 1_555 1_555
H17_5 O11_5 1_555 1_555
C33_5 N17_5 1_555 1_555
H18_5 C33_5 1_555 1_555
C34_5 N17_5 1_555 1_555
H19_5 C34_5 1_555 1_555
C35_5 C34_5 1_555 1_555
H20_5 C35_5 1_555 1_555
O15_3 Mn5 1_555 1_555
O16_3 Mn9_2 1_555 1_555
N9_5 N14_5 1_555 1_555
N11_5 N14_5 1_555 1_555
C19_5 C27_5 1_555 1_555
C30_5 C31_5 1_555 1_555
O11_5 H23_5 1_555 1_555
Mn8 N4_5 1_555 1_555
N1_5 N4_5 1_555 1_555
N4_5 N6_5 1_555 1_555
C2_5 O1_5 1_555 1_555
N6_5 Mn11 1_555 1_555
C3_5 H1_5 1_555 1_555
C5_5 C2_5 1_555 1_555
C7_5 H3_5 1_555 1_555
C8_5 C3_5 1_555 1_555
H4_5 C8_5 1_555 1_555
C9_5 C5_5 1_555 1_555
H5_5 C9_5 1_555 1_555
N21 N13_5 1_555 1_555
N10_5 N6_5 1_555 1_555
N12_5 N19 1_555 1_555
N13_5 C15_5 1_555 1_555
C13_5 N1_5 1_555 1_555
C15_5 N12_5 1_555 1_555
C17_5 C13_5 1_555 1_555
C21_5 C17_5 1_555 1_555
H7_5 C21_5 1_555 1_555
C22_5 C7_5 1_555 1_555
C25_5 C17_5 1_555 1_555
H10_5 C25_5 1_555 1_555
H13_5 C28_5 1_555 1_555
Mn8 O4_5 1_555 1_555
C3_5 C5_5 1_555 1_555
C7_5 C9_5 1_555 1_555
C8_5 C22_5 1_555 1_555
N10_5 C13_5 1_555 1_555
C15_5 C22_5 1_555 1_555
C21_5 C28_5 1_555 1_555
C16_5 C23_5 1_555 1_555
C23_5 H8_5 1_555 1_555
C29_5 C16_5 1_555 1_555
O9_3 C29_5 1_555 1_555
O10_3 C29_5 1_555 1_555
Mn5_4 O9_3 1_555 1_555
Mn10_3 O10_3 1_555 1_555
Mn8_2 N4_6 1_555 1_555
N1_6 N4_6 1_555 1_555
N4_6 N6_6 1_555 1_555
C2_6 O1_6 1_555 1_555
N6_6 Mn12 1_555 1_555
C3_6 H1_6 1_555 1_555
C5_6 C2_6 1_555 1_555
C7_6 H3_6 1_555 1_555
C8_6 C3_6 1_555 1_555
H4_6 C8_6 1_555 1_555
C9_6 C5_6 1_555 1_555
H5_6 C9_6 1_555 1_555
N21_2 N13_6 1_555 1_555
N10_6 N6_6 1_555 1_555
N12_6 N19_2 1_555 1_555
N13_6 C15_6 1_555 1_555
C13_6 N1_6 1_555 1_555
C15_6 N12_6 1_555 1_555
C16_6 C23_6 1_555 1_555
C17_6 C13_6 1_555 1_555
C21_6 C17_6 1_555 1_555
H7_6 C21_6 1_555 1_555
C22_6 C7_6 1_555 1_555
C23_6 H8_6 1_555 1_555
C25_6 C17_6 1_555 1_555
H10_6 C25_6 1_555 1_555
C28_6 C16_6 1_555 1_555
H13_6 C28_6 1_555 1_555
C29_6 C16_6 1_555 1_555
O9_4 C29_6 1_555 1_555
O10_4 C29_6 1_555 1_555
Mn5_3 O9_4 1_555 1_555
Mn10_4 O10_4 1_555 1_555
Mn8_2 O4_6 1_555 1_555
C3_6 C5_6 1_555 1_555
C7_6 C9_6 1_555 1_555
C8_6 C22_6 1_555 1_555
N10_6 C13_6 1_555 1_555
C15_6 C22_6 1_555 1_555
C21_6 C28_6 1_555 1_555
C23_6 C25_6 1_555 1_555
Mn3_2 O12_2 1_555 1_555
O6_6 Mn3_2 1_555 1_555
O13_4 C10_6 1_555 1_555
O14_4 C10_6 1_555 1_555
N22_2 N9_6 1_555 1_555
N9_6 Mn3_2 1_555 1_555
C10_6 C12_6 1_555 1_555
N11_6 C11_6 1_555 1_555
C11_6 N22_2 1_555 1_555
C12_6 C14_6 1_555 1_555
N14_6 Mn5_2 1_555 1_555
C14_6 H6_6 1_555 1_555
C19_6 C11_6 1_555 1_555
C27_6 C14_6 1_555 1_555
H12_6 C27_6 1_555 1_555
C30_6 C19_6 1_555 1_555
H14_6 C30_6 1_555 1_555
C31_6 C12_6 1_555 1_555
H15_6 C31_6 1_555 1_555
N17_6 Mn3_2 1_555 1_555
H17_6 O11_6 1_555 1_555
C33_6 N17_6 1_555 1_555
H18_6 C33_6 1_555 1_555
C34_6 N17_6 1_555 1_555
H19_6 C34_6 1_555 1_555
C35_6 C34_6 1_555 1_555
H20_6 C35_6 1_555 1_555
C36_3 C33_6 1_555 1_555
H21_3 C36_3 1_555 1_555
C37_3 C35_6 1_555 1_555
H22_3 C37_3 1_555 1_555
N20_3 Mn3_2 1_555 1_555
O15_4 Mn5_2 1_555 1_555
O16_4 Mn3_2 1_555 1_555
N9_6 N14_6 1_555 1_555
N11_6 N14_6 1_555 1_555
C19_6 C27_6 1_555 1_555
C30_6 C31_6 1_555 1_555
C36_3 C37_3 1_555 1_555
O11_6 H23_6 1_555 1_555
O2_6 C1_6 1_555 1_555
C1_6 O3_6 1_555 1_555
C4_6 C1_6 1_555 1_555
C6_6 C4_6 1_555 1_555
H2_6 C6_6 1_555 1_555
C32_6 C6_6 1_555 1_555
H16_6 C32_6 1_555 1_555
N18_2 N20_3 1_555 1_555
N20_3 N16_6 1_555 1_555
N15_6 N18_2 1_555 1_555
N16_6 C18_6 1_555 1_555
C18_6 N15_6 1_555 1_555
C20_6 C18_6 1_555 1_555
H9_6 C24_6 1_555 1_555
C26_6 C20_6 1_555 1_555
H11_6 C26_6 1_555 1_555
C24_6 C26_6 1_555 1_555
Mn10_4 O12_3 1_555 1_555
O6_7 Mn10_4 1_555 1_555
O13 C10_7 1_555 1_555
O14 C10_7 1_555 1_555
N22_3 N9_7 1_555 1_555
N9_7 Mn10_4 1_555 1_555
C10_7 C12_7 1_555 1_555
N11_7 C11_7 1_555 1_555
C11_7 N22_3 1_555 1_555
C12_7 C14_7 1_555 1_555
N14_7 Mn5_3 1_555 1_555
C14_7 H6_7 1_555 1_555
C19_7 C11_7 1_555 1_555
C27_7 C14_7 1_555 1_555
H12_7 C27_7 1_555 1_555
C30_7 C19_7 1_555 1_555
H14_7 C30_7 1_555 1_555
C31_7 C12_7 1_555 1_555
H15_7 C31_7 1_555 1_555
N17_7 Mn10_4 1_555 1_555
H17_7 O11_7 1_555 1_555
C33_7 N17_7 1_555 1_555
H18_7 C33_7 1_555 1_555
C34_7 N17_7 1_555 1_555
H19_7 C34_7 1_555 1_555
C35_7 C34_7 1_555 1_555
H20_7 C35_7 1_555 1_555
C36_4 C33_7 1_555 1_555
H21_4 C36_4 1_555 1_555
C37_4 C35_7 1_555 1_555
H22_4 C37_4 1_555 1_555
N20_4 Mn10_4 1_555 1_555
N9_7 N14_7 1_555 1_555
N11_7 N14_7 1_555 1_555
C19_7 C27_7 1_555 1_555
C30_7 C31_7 1_555 1_555
C36_4 C37_4 1_555 1_555
O11_7 H23_7 1_555 1_555
Mn7 N4_7 1_555 1_555
N1_7 N4_7 1_555 1_555
N4_7 N6_7 1_555 1_555
C2_7 O1_7 1_555 1_555
N6_7 Mn13 1_555 1_555
C3_7 H1_7 1_555 1_555
C5_7 C2_7 1_555 1_555
C7_7 H3_7 1_555 1_555
C8_7 C3_7 1_555 1_555
H4_7 C8_7 1_555 1_555
C9_7 C5_7 1_555 1_555
H5_7 C9_7 1_555 1_555
N21_3 N13_7 1_555 1_555
N10_7 N6_7 1_555 1_555
N12_7 N19_3 1_555 1_555
N13_7 C15_7 1_555 1_555
C13_7 N1_7 1_555 1_555
C15_7 N12_7 1_555 1_555
C16_7 C23_7 1_555 1_555
C17_7 C13_7 1_555 1_555
C21_7 C17_7 1_555 1_555
H7_7 C21_7 1_555 1_555
C22_7 C7_7 1_555 1_555
C23_7 H8_7 1_555 1_555
C25_7 C17_7 1_555 1_555
H10_7 C25_7 1_555 1_555
C28_7 C16_7 1_555 1_555
H13_7 C28_7 1_555 1_555
C29_7 C16_7 1_555 1_555
O15_4 C29_7 1_555 1_555
O16_4 C29_7 1_555 1_555
Mn7 O4_7 1_555 1_555
C3_7 C5_7 1_555 1_555
C7_7 C9_7 1_555 1_555
C8_7 C22_7 1_555 1_555
N10_7 C13_7 1_555 1_555
C15_7 C22_7 1_555 1_555
C21_7 C28_7 1_555 1_555
C23_7 C25_7 1_555 1_555
N18_3 N20_4 1_555 1_555
N20_4 N16_7 1_555 1_555
N15_7 N18_3 1_555 1_555
N16_7 C18_7 1_555 1_555
C18_7 N15_7 1_555 1_555
C20_7 C18_7 1_555 1_555
H9_7 C24_7 1_555 1_555
C26_7 C20_7 1_555 1_555
H11_7 C26_7 1_555 1_555
C24_7 C26_7 1_555 1_555
O2_7 C1_7 1_555 1_555
C1_7 O3_7 1_555 1_555
C4_7 C1_7 1_555 1_555
C6_7 C4_7 1_555 1_555
H2_7 C6_7 1_555 1_555
C32_7 C6_7 1_555 1_555
H16_7 C32_7 1_555 1_555
O2_8 C1_8 1_555 1_555
C1_8 O3_8 1_555 1_555
C4_8 C1_8 1_555 1_555
C6_8 C4_8 1_555 1_555
H2_8 C6_8 1_555 1_555
C32_8 C6_8 1_555 1_555
H16_8 C32_8 1_555 1_555
N18_4 N5_4 1_555 1_555
N5_4 N16_8 1_555 1_555
N15_8 N18_4 1_555 1_555
N16_8 C18_8 1_555 1_555
C18_8 N15_8 1_555 1_555
C20_8 C18_8 1_555 1_555
H9_8 C24_8 1_555 1_555
C26_8 C20_8 1_555 1_555
H11_8 C26_8 1_555 1_555
Mn10_3 N5_4 1_555 1_555
C24_8 C26_8 1_555 1_555
C16_8 C23_8 1_555 1_555
C23_8 H8_8 1_555 1_555
C29_8 C16_8 1_555 1_555
O15_3 C29_8 1_555 1_555
O16_3 C29_8 1_555 1_555
Mn7_2 N4_8 1_555 1_555
N1_8 N4_8 1_555 1_555
N4_8 N6_8 1_555 1_555
C2_8 O1_8 1_555 1_555
N6_8 Mn13_2 1_555 1_555
C3_8 H1_8 1_555 1_555
C5_8 C2_8 1_555 1_555
C7_8 H3_8 1_555 1_555
C8_8 C3_8 1_555 1_555
H4_8 C8_8 1_555 1_555
C9_8 C5_8 1_555 1_555
H5_8 C9_8 1_555 1_555
N21_4 N13_8 1_555 1_555
N10_8 N6_8 1_555 1_555
N12_8 N19_4 1_555 1_555
N13_8 C15_8 1_555 1_555
C13_8 N1_8 1_555 1_555
C15_8 N12_8 1_555 1_555
C17_8 C13_8 1_555 1_555
C21_8 C17_8 1_555 1_555
H7_8 C21_8 1_555 1_555
C22_8 C7_8 1_555 1_555
C25_8 C17_8 1_555 1_555
H10_8 C25_8 1_555 1_555
H13_8 C28_8 1_555 1_555
Mn7_2 O4_8 1_555 1_555
C3_8 C5_8 1_555 1_555
C7_8 C9_8 1_555 1_555
C8_8 C22_8 1_555 1_555
N10_8 C13_8 1_555 1_555
C15_8 C22_8 1_555 1_555
C21_8 C28_8 1_555 1_555
Mn10_3 O12_4 1_555 1_555
O6_8 Mn10_3 1_555 1_555
O13_2 C10_8 1_555 1_555
O14_2 C10_8 1_555 1_555
N22_4 N9_8 1_555 1_555
N9_8 Mn10_3 1_555 1_555
C10_8 C12_8 1_555 1_555
N11_8 C11_8 1_555 1_555
C11_8 N22_4 1_555 1_555
C12_8 C14_8 1_555 1_555
N14_8 Mn5_4 1_555 1_555
C14_8 H6_8 1_555 1_555
C19_8 C11_8 1_555 1_555
C27_8 C14_8 1_555 1_555
H12_8 C27_8 1_555 1_555
C30_8 C19_8 1_555 1_555
H14_8 C30_8 1_555 1_555
C31_8 C12_8 1_555 1_555
H15_8 C31_8 1_555 1_555
N17_8 Mn10_3 1_555 1_555
H17_8 O11_8 1_555 1_555
C33_8 N17_8 1_555 1_555
H18_8 C33_8 1_555 1_555
C34_8 N17_8 1_555 1_555
H19_8 C34_8 1_555 1_555
C35_8 C34_8 1_555 1_555
H20_8 C35_8 1_555 1_555
N9_8 N14_8 1_555 1_555
N11_8 N14_8 1_555 1_555
C19_8 C27_8 1_555 1_555
C30_8 C31_8 1_555 1_555
O11_8 H23_8 1_555 1_555
H21_5 C36_5 1_555 1_555
H22_5 C37_5 1_555 1_555
C36_5 C37_5 1_555 1_555
H21_6 C36_6 1_555 1_555
H22_6 C37_6 1_555 1_555
C36_6 C37_6 1_555 1_555
H21_7 C36_7 1_555 1_555
H22_7 C37_7 1_555 1_555
C36_7 C37_7 1_555 1_555
H21_8 C36_8 1_555 1_555
H22_8 C37_8 1_555 1_555
C36_8 C37_8 1_555 1_555

#END
