
###############################################################################
#
# This file contains modified crystal structure data generated from the
# MOF subset of the Cambridge Structural Database (CSD) v543 
# hosted by the Cambridge Crystallographic Data Centre (CCDC).
#
# This work is licensed under the Creative Commons
# Attribution-NonCommercial-ShareAlike 4.0 International License.
# To view a copy of this license, visit
# http://creativecommons.org/licenses/by-nc-sa/4.0/
# or send a letter to
# Creative Commons, PO Box 1866, Mountain View, CA 94042, USA.
#
# CIF created using the CSD Python API on 29 September 2022
# The structure has been converted into the P1 space group
# The structure has a 3D framework
# The original CSD entry KODPUP02 is in the orthorhombic crystal system
# The framework has been calculated to contain at least 10.0% void space
# The void calculation uses a probe of radius 1.32A, grid spacing 0.4
# H atom positions have been added when not included in the experimental data
# Generated hydrogen atom positions removed from atoms on special positions
#
###############################################################################

data_KODPUP02
_chemical_formula_moiety         '(C216 H376 Nd24 O164)n'
_symmetry_cell_setting           triclinic
_symmetry_space_group_name_H-M   'P 1'
_symmetry_Int_Tables_number      1
_space_group_name_Hall           'P 1'
loop_
_symmetry_equiv_pos_site_id
_symmetry_equiv_pos_as_xyz
1 x,y,z
_cell_length_a                   65.6726(17)
_cell_length_b                   7.7371(2)
_cell_length_c                   19.5473(4)
_cell_angle_alpha                90
_cell_angle_beta                 90
_cell_angle_gamma                90
_cell_volume                     9932.29
loop_
_atom_site_label
_atom_site_type_symbol
_atom_site_fract_x
_atom_site_fract_y
_atom_site_fract_z
C17 C 0.64610(9) 0.0091(8) 0.5501(3)
H22 H 0.646918 0.128752 0.564650
H24 H 0.647634 0.061895 0.446717
C19 C 0.67752(10) 0.0433(9) 0.4777(4)
H26 H 0.678652 0.162462 0.492625
C20 C 0.68717(10) 0.0255(9) 0.4067(3)
H28 H 0.679903 0.096528 0.373948
C21 C 0.70906(10) 0.0831(9) 0.4116(3)
H35 H 0.727615 0.027853 0.070459
O15 O 0.71269(7) 0.2417(6) 0.4066(2)
O17 O 0.61029(7) 0.0655(6) 0.5393(2)
O21 O 0.79043(7) 0.1352(6) 0.4451(2)
H53 H 0.385036 0.023261 0.207347
H55 H 0.415032 0.005927 0.139813
H56 H 0.395769 0.059290 0.097619
O40 O 0.45765(7) 0.1023(6) 0.4606(2)
Nd7 Nd 0.57258(2) 0.08588(4) 0.55195(2)
Nd22 Nd 0.73947(2) 0.44777(4) 0.42731(2)
O52 O 0.41932(7) 0.1579(6) 0.5261(2)
O58 O 0.75029(7) 0.1925(6) 0.5024(2)
O60 O 0.43809(7) 0.0010(6) 0.3250(2)
O62 O 0.77305(7) 0.0264(6) 0.3066(2)
O64 O 0.41874(7) 0.1820(6) 0.3818(2)
O66 O 0.75351(7) 0.2150(6) 0.3581(2)
Nd9 Nd 0.42742(2) 0.08588(4) 0.94805(2)
Nd20 Nd 0.76053(2) 0.05223(4) 0.92731(2)
Nd12 Nd 0.57258(2) 0.91412(4) 0.05195(2)
Nd14 Nd 0.59328(2) 0.41310(4) 0.04359(2)
Nd19 Nd 0.26053(2) 0.44777(4) 0.07269(2)
C1 C 0.54263(10) 0.4500(9) 0.5703(3)
C2 C 0.52042(10) 0.5016(9) 0.5726(4)
H1 H 0.519174 0.621791 0.586150
H2 H 0.513206 0.431160 0.605744
C3 C 0.51131(10) 0.4753(9) 0.5012(4)
H3 H 0.512821 0.355104 0.487962
H4 H 0.518762 0.545205 0.468438
C4 C 0.56988(10) 0.8532(8) 0.6708(3)
C5 C 0.56691(11) 0.7151(9) 0.7241(3)
H5 H 0.579733 0.695627 0.747486
H6 H 0.563135 0.608152 0.701473
C6 C 0.55066(11) 0.7602(9) 0.7768(3)
H7 H 0.538336 0.794262 0.753008
H8 H 0.555279 0.858652 0.803316
C7 C 0.54557(10) 0.6107(9) 0.8261(3)
H9 H 0.542109 0.509342 0.799359
H10 H 0.533635 0.642302 0.852585
C8 C 0.56293(10) 0.5629(9) 0.8761(3)
H11 H 0.559725 0.452439 0.896952
H12 H 0.575364 0.548131 0.849941
C9 C 0.56686(10) 0.6928(8) 0.9323(3)
C10 C 0.60359(10) 0.3637(9) 0.6576(3)
C11 C 0.61353(11) 0.2324(9) 0.7030(3)
H13 H 0.627162 0.270540 0.714661
H14 H 0.614612 0.123185 0.678928
C12 C 0.60121(11) 0.2078(9) 0.7678(3)
H15 H 0.587797 0.164628 0.755918
H16 H 0.599506 0.318590 0.790239
C13 C 0.61142(11) 0.0815(9) 0.8172(3)
H18 H 0.623935 0.132575 0.834108
C14 C 0.59795(11) 0.0351(9) 0.8774(3)
C15 C 0.59410(10) 0.1825(9) 0.9265(3)
C16 C 0.62390(10) 0.9509(8) 0.5490(3)
H21 H 0.653742 0.939176 0.582271
C18 C 0.65520(10) 0.9903(9) 0.4785(4)
H23 H 0.653984 0.871086 0.463710
H25 H 0.684991 0.972025 0.509867
H27 H 0.686512 0.906181 0.391601
C22 C 0.73508(10) 0.6732(8) 0.3078(3)
C23 C 0.73151(12) 0.8053(9) 0.2525(3)
H29 H 0.744437 0.833030 0.231128
H30 H 0.726311 0.910265 0.273297
C24 C 0.71674(10) 0.7463(9) 0.1978(3)
H31 H 0.703966 0.715040 0.219370
H32 H 0.722163 0.643458 0.176029
C25 C 0.71255(11) 0.8820(9) 0.1428(3)
H33 H 0.708287 0.987978 0.165084
H34 H 0.701282 0.842302 0.114808
C26 C 0.73061(11) 0.9230(9) 0.0957(3)
H36 H 0.742521 0.945214 0.123759
C27 C 0.73558(10) 0.7807(8) 0.0455(3)
Nd2 Nd 0.59328(2) 0.58690(4) 0.54359(2)
Nd3 Nd 0.76053(2) 0.94777(4) 0.42731(2)
O1 O 0.55641(7) 0.8261(6) 0.9390(2)
O2 O 0.60355(7) 0.3218(6) 0.9234(2)
O3 O 0.72604(7) 0.6420(6) 0.0434(2)
O4 O 0.58174(7) 0.6611(6) 0.9733(2)
O5 O 0.58068(7) 0.1579(6) 0.9739(2)
O6 O 0.75029(7) 0.8075(6) 0.0024(2)
O7 O 0.56191(7) 0.9990(6) 0.6750(2)
O8 O 0.60894(7) 0.5190(6) 0.6586(2)
O9 O 0.72695(7) 0.5264(6) 0.3066(2)
O10 O 0.58126(7) 0.8180(6) 0.6182(2)
O11 O 0.58905(7) 0.3159(6) 0.6168(2)
O12 O 0.74649(7) 0.7150(6) 0.3581(2)
O13 O 0.55583(7) 0.5639(6) 0.5560(3)
O14 O 0.62049(7) 0.7929(6) 0.5550(2)
O16 O 0.54664(7) 0.2926(6) 0.5800(2)
O18 O 0.72263(7) 0.9685(6) 0.4246(2)
O20 O 0.62309(7) 0.4025(6) 0.5189(2)
C28 C 0.45737(10) 0.5500(9) 0.4297(3)
C29 C 0.47958(10) 0.4984(9) 0.4274(4)
H37 H 0.480826 0.378209 0.413850
H38 H 0.486794 0.568840 0.394256
C30 C 0.48869(10) 0.5247(9) 0.4988(4)
H39 H 0.487179 0.644896 0.512038
H40 H 0.481238 0.454795 0.531562
O22 O 0.44417(7) 0.4361(6) 0.4440(3)
O23 O 0.45336(7) 0.7074(6) 0.4200(2)
C31 C 0.43012(10) 0.1468(8) 0.3292(3)
C32 C 0.43309(11) 0.2849(9) 0.2759(3)
H41 H 0.420267 0.304373 0.252514
H42 H 0.436865 0.391848 0.298527
C33 C 0.44934(11) 0.2398(9) 0.2232(3)
H43 H 0.461664 0.205738 0.246992
H44 H 0.444721 0.141348 0.196684
C34 C 0.45443(10) 0.3893(9) 0.1739(3)
H45 H 0.457891 0.490658 0.200641
H46 H 0.466365 0.357698 0.147415
C35 C 0.43707(10) 0.4371(9) 0.1239(3)
H47 H 0.440275 0.547561 0.103048
H48 H 0.424636 0.451869 0.150059
C36 C 0.43314(10) 0.3072(8) 0.0677(3)
C37 C 0.39641(10) 0.6363(9) 0.3424(3)
C38 C 0.38647(11) 0.7676(9) 0.2970(3)
H49 H 0.372838 0.729460 0.285339
H50 H 0.385388 0.876815 0.321072
C39 C 0.39879(11) 0.7922(9) 0.2322(3)
H51 H 0.412203 0.835372 0.244082
H52 H 0.400494 0.681410 0.209761
C40 C 0.38858(11) 0.9185(9) 0.1828(3)
H54 H 0.376065 0.867425 0.165892
C41 C 0.40205(11) 0.9649(9) 0.1226(3)
C42 C 0.40590(10) 0.8175(9) 0.0735(3)
C43 C 0.37610(10) 0.0491(8) 0.4510(3)
H57 H 0.346258 0.060824 0.417729
C45 C 0.34480(10) 0.0097(9) 0.5215(4)
H59 H 0.346016 0.128914 0.536290
H61 H 0.315009 0.027975 0.490133
H63 H 0.313488 0.093819 0.608399
C49 C 0.26492(10) 0.3268(8) 0.6922(3)
C50 C 0.26849(12) 0.1947(9) 0.7475(3)
H65 H 0.255563 0.166970 0.768872
H66 H 0.273689 0.089735 0.726703
C51 C 0.28326(10) 0.2537(9) 0.8022(3)
H67 H 0.296034 0.284960 0.780630
H68 H 0.277837 0.356542 0.823971
C52 C 0.28745(11) 0.1180(9) 0.8572(3)
H69 H 0.291713 0.012022 0.834916
H70 H 0.298718 0.157698 0.885192
C53 C 0.26939(11) 0.0770(9) 0.9043(3)
H72 H 0.257479 0.054786 0.876241
C54 C 0.26442(10) 0.2193(8) 0.9545(3)
Nd4 Nd 0.42742(2) 0.91412(4) 0.44805(2)
Nd5 Nd 0.40672(2) 0.41310(4) 0.45641(2)
Nd6 Nd 0.23947(2) 0.05223(4) 0.57269(2)
O24 O 0.44359(7) 0.1739(6) 0.0610(2)
O25 O 0.39645(7) 0.6782(6) 0.0766(2)
O26 O 0.27396(7) 0.3580(6) 0.9566(2)
O27 O 0.41826(7) 0.3389(6) 0.0267(2)
O28 O 0.41932(7) 0.8421(6) 0.0261(2)
O29 O 0.24971(7) 0.1925(6) 0.9976(2)
O31 O 0.39106(7) 0.4810(6) 0.3414(2)
O32 O 0.27305(7) 0.4736(6) 0.6934(2)
O34 O 0.41095(7) 0.6841(6) 0.3832(2)
O35 O 0.25351(7) 0.2850(6) 0.6419(2)
O36 O 0.37951(7) 0.2071(6) 0.4450(2)
O39 O 0.27737(7) 0.0315(6) 0.5754(2)
O41 O 0.37691(7) 0.5975(6) 0.4811(2)
Nd18 Nd 0.26053(2) 0.55223(4) 0.57269(2)
O43 O 0.44359(7) 0.8261(6) 0.5610(2)
O44 O 0.55641(7) 0.1739(6) 0.4390(2)
O45 O 0.39645(7) 0.3218(6) 0.5766(2)
O46 O 0.60355(7) 0.6782(6) 0.4234(2)
O47 O 0.77396(7) 0.8580(6) 0.5434(2)
O48 O 0.22604(7) 0.1420(6) 0.4566(2)
O49 O 0.41826(7) 0.6611(6) 0.5267(2)
O50 O 0.58174(7) 0.3389(6) 0.4733(2)
O54 O 0.58068(7) 0.8421(6) 0.4739(2)
O55 O 0.74971(7) 0.6925(6) 0.5024(2)
O57 O 0.25029(7) 0.3075(6) 0.4976(2)
O67 O 0.21269(7) 0.2583(6) 0.5934(2)
O68 O 0.78731(7) 0.7417(6) 0.4066(2)
O70 O 0.38971(7) 0.9345(6) 0.4607(2)
Nd13 Nd 0.40672(2) 0.58690(4) 0.95641(2)
Nd15 Nd 0.73947(2) 0.55223(4) 0.92731(2)
Nd16 Nd 0.23947(2) 0.94777(4) 0.07269(2)
H17 H 0.614964 0.976739 0.792653
H19 H 0.584968 0.994073 0.860187
H20 H 0.604231 0.940710 0.902381
O19 O 0.54235(7) 0.8977(6) 0.5394(2)
C44 C 0.35390(9) 0.9909(8) 0.4499(3)
H58 H 0.353082 0.871248 0.435350
H60 H 0.352366 0.938105 0.553283
C46 C 0.32248(10) 0.9567(9) 0.5223(4)
H62 H 0.321348 0.837538 0.507375
C47 C 0.31283(10) 0.9745(9) 0.5933(3)
H64 H 0.320097 0.903472 0.626052
C48 C 0.29094(10) 0.9169(9) 0.5884(3)
H71 H 0.272385 0.972147 0.929541
O37 O 0.28731(7) 0.7583(6) 0.5934(2)
O42 O 0.20957(7) 0.8648(6) 0.5549(2)
O56 O 0.24971(7) 0.8075(6) 0.4976(2)
O61 O 0.22695(7) 0.9736(6) 0.6934(2)
O65 O 0.24649(7) 0.7850(6) 0.6419(2)
H40_2 H 0.018762 0.045205 0.031562
C45_2 C 0.15520(10) 0.4903(9) 0.0215(4)
H59_2 H 0.153984 0.371086 0.036290
H60_2 H 0.147634 0.561895 0.053283
C46_2 C 0.17752(10) 0.5433(9) 0.0223(4)
H62_2 H 0.178652 0.662462 0.007375
C47_2 C 0.18717(10) 0.5255(9) 0.0933(3)
H63_2 H 0.186512 0.406181 0.108399
H64_2 H 0.179903 0.596528 0.126052
C48_2 C 0.20906(10) 0.5831(9) 0.0884(3)
C49_2 C 0.23508(10) 0.1732(8) 0.1922(3)
C50_2 C 0.23151(12) 0.3053(9) 0.2475(3)
H65_2 H 0.244437 0.333030 0.268872
H66_2 H 0.226311 0.410265 0.226703
C51_2 C 0.21674(10) 0.2463(9) 0.3022(3)
H67_2 H 0.203966 0.215040 0.280630
H68_2 H 0.222163 0.143458 0.323971
C52_2 C 0.21255(11) 0.3820(9) 0.3572(3)
H69_2 H 0.208287 0.487978 0.334916
H70_2 H 0.201282 0.342302 0.385192
C53_2 C 0.23061(11) 0.4230(9) 0.4043(3)
H71_2 H 0.227615 0.527853 0.429541
H72_2 H 0.242521 0.445214 0.376241
C54_2 C 0.23558(10) 0.2807(8) 0.4545(3)
O32_2 O 0.22695(7) 0.0264(6) 0.1934(2)
O35_2 O 0.24649(7) 0.2150(6) 0.1419(2)
O37_2 O 0.21269(7) 0.7417(6) 0.0934(2)
O39_2 O 0.22263(7) 0.4685(6) 0.0754(2)
O42_2 O 0.29043(7) 0.6352(6) 0.0549(2)
O45_2 O 0.10355(7) 0.1782(6) 0.0766(2)
O51 O 0.08068(7) 0.3421(6) 0.0261(2)
O61_2 O 0.27305(7) 0.5264(6) 0.1934(2)
O65_2 O 0.25351(7) 0.7150(6) 0.1419(2)
O67_2 O 0.28731(7) 0.2417(6) 0.0934(2)
C29_2 C 0.02042(10) 0.0016(9) 0.9274(4)
H37_2 H 0.019174 0.121791 0.913850
O22_2 O 0.05583(7) 0.0639(6) 0.9440(3)
C31_2 C 0.06988(10) 0.3532(8) 0.8292(3)
C32_2 C 0.06691(11) 0.2151(9) 0.7759(3)
H41_2 H 0.079733 0.195627 0.752514
H42_2 H 0.063135 0.108152 0.798527
C33_2 C 0.05066(11) 0.2602(9) 0.7232(3)
H43_2 H 0.038336 0.294262 0.746992
H44_2 H 0.055279 0.358652 0.696684
C34_2 C 0.04557(10) 0.1107(9) 0.6739(3)
H45_2 H 0.042109 0.009342 0.700641
H46_2 H 0.033635 0.142302 0.647415
C35_2 C 0.06293(10) 0.0629(9) 0.6239(3)
H48_2 H 0.075364 0.048131 0.650059
C36_2 C 0.06686(10) 0.1928(8) 0.5677(3)
C43_2 C 0.12390(10) 0.4509(8) 0.9510(3)
C44_2 C 0.14610(9) 0.5091(8) 0.9499(3)
H57_2 H 0.153742 0.439176 0.917729
H58_2 H 0.146918 0.628752 0.935350
H61_2 H 0.184991 0.472025 0.990133
Nd5_2 Nd 0.09328(2) 0.08690(4) 0.95641(2)
O24_2 O 0.05641(7) 0.3261(6) 0.5610(2)
O27_2 O 0.08174(7) 0.1611(6) 0.5267(2)
O30 O 0.06191(7) 0.4990(6) 0.8250(2)
O31_2 O 0.10894(7) 0.0190(6) 0.8414(2)
O33 O 0.08126(7) 0.3180(6) 0.8818(2)
O36_2 O 0.12049(7) 0.2929(6) 0.9450(2)
O38 O 0.11029(7) 0.5655(6) 0.9607(2)
Nd8 Nd 0.07258(2) 0.41412(4) 0.44805(2)
Nd10 Nd 0.07258(2) 0.58588(4) 0.94805(2)
O56_2 O 0.25029(7) 0.6925(6) 0.9976(2)
H39_2 H 0.012821 0.855104 0.012038
O43_2 O 0.05641(7) 0.6739(6) 0.0610(2)
O49_2 O 0.08174(7) 0.8389(6) 0.0267(2)
C28_2 C 0.04263(10) 0.9500(9) 0.9297(3)
H38_2 H 0.013206 0.931160 0.894256
C30_2 C 0.01131(10) 0.9753(9) 0.9988(4)
O23_2 O 0.04664(7) 0.7926(6) 0.9200(2)
H47_2 H 0.059725 0.952439 0.603048
C37_2 C 0.10359(10) 0.8637(9) 0.8424(3)
C38_2 C 0.11353(11) 0.7324(9) 0.7970(3)
H49_2 H 0.127162 0.770540 0.785339
H50_2 H 0.114612 0.623185 0.821072
C39_2 C 0.10121(11) 0.7078(9) 0.7322(3)
H51_2 H 0.087797 0.664628 0.744082
H52_2 H 0.099506 0.818590 0.709761
C40_2 C 0.11142(11) 0.5815(9) 0.6828(3)
H53_2 H 0.114964 0.476739 0.707347
H54_2 H 0.123935 0.632575 0.665892
C41_2 C 0.09795(11) 0.5351(9) 0.6226(3)
H55_2 H 0.084968 0.494073 0.639813
H56_2 H 0.104231 0.440710 0.597619
C42_2 C 0.09410(10) 0.6825(9) 0.5735(3)
O25_2 O 0.10355(7) 0.8218(6) 0.5766(2)
O28_2 O 0.08068(7) 0.6579(6) 0.5261(2)
O34_2 O 0.08905(7) 0.8159(6) 0.8832(2)
O40_2 O 0.04235(7) 0.3977(6) 0.9606(2)
O41_2 O 0.12309(7) 0.9025(6) 0.9811(2)
Nd13_2 Nd 0.09328(2) 0.91310(4) 0.45641(2)
C1_2 C 0.95737(10) 0.0500(9) 0.0703(3)
H2_2 H 0.986794 0.068840 0.105744
C3_2 C 0.98869(10) 0.0247(9) 0.0012(4)
H11_2 H 0.940275 0.047561 0.396952
C10_2 C 0.89641(10) 0.1363(9) 0.1576(3)
C11_2 C 0.88647(11) 0.2676(9) 0.2030(3)
H13_2 H 0.872838 0.229460 0.214661
H14_2 H 0.885388 0.376815 0.178928
C12_2 C 0.89879(11) 0.2922(9) 0.2678(3)
H15_2 H 0.912203 0.335372 0.255918
H16_2 H 0.900494 0.181410 0.290239
C13_2 C 0.88858(11) 0.4185(9) 0.3172(3)
H17_2 H 0.885036 0.523261 0.292653
H18_2 H 0.876065 0.367425 0.334108
C14_2 C 0.90205(11) 0.4649(9) 0.3774(3)
H19_2 H 0.915032 0.505927 0.360187
H20_2 H 0.895769 0.559290 0.402381
C15_2 C 0.90590(10) 0.3175(9) 0.4265(3)
Nd1 Nd 0.92742(2) 0.41412(4) 0.05195(2)
O2_2 O 0.89645(7) 0.1782(6) 0.4234(2)
O5_2 O 0.91932(7) 0.3421(6) 0.4739(2)
O11_2 O 0.91095(7) 0.1841(6) 0.1168(2)
O16_2 O 0.95336(7) 0.2074(6) 0.0800(2)
O19_2 O 0.95765(7) 0.6023(6) 0.0394(2)
O20_2 O 0.87691(7) 0.0975(6) 0.0189(2)
Nd11 Nd 0.92742(2) 0.58588(4) 0.55195(2)
Nd14_2 Nd 0.90672(2) 0.08690(4) 0.54359(2)
O59 O 0.93809(7) 0.5010(6) 0.1750(2)
O63 O 0.91874(7) 0.6820(6) 0.1182(2)
O69 O 0.88971(7) 0.4345(6) 0.0393(2)
H3_2 H 0.987179 0.144896 0.987962
O44_2 O 0.94359(7) 0.3261(6) 0.9390(2)
O50_2 O 0.91826(7) 0.1611(6) 0.9733(2)
O53 O 0.91932(7) 0.6579(6) 0.9739(2)
H76 H 0.875785 0.115601 0.96875
H78 H 0.955751 0.679975 0.999467
C2_2 C 0.97958(10) 0.9984(9) 0.0726(4)
H1_2 H 0.980826 0.878209 0.086150
C4_2 C 0.93012(10) 0.6468(8) 0.1708(3)
C5_2 C 0.93309(11) 0.7849(9) 0.2241(3)
H5_2 H 0.920267 0.804373 0.247486
H6_2 H 0.936865 0.891848 0.201473
C6_2 C 0.94934(11) 0.7398(9) 0.2768(3)
H7_2 H 0.961664 0.705738 0.253008
H8_2 H 0.944721 0.641348 0.303316
C7_2 C 0.95443(10) 0.8893(9) 0.3261(3)
H9_2 H 0.957891 0.990658 0.299359
H10_2 H 0.966365 0.857698 0.352585
C8_2 C 0.93707(10) 0.9371(9) 0.3761(3)
H12_2 H 0.924636 0.951869 0.349941
C9_2 C 0.93314(10) 0.8072(8) 0.4323(3)
C16_2 C 0.87610(10) 0.5491(8) 0.0490(3)
C17_2 C 0.85390(9) 0.4909(8) 0.0501(3)
H21_2 H 0.846258 0.560824 0.082271
H22_2 H 0.853082 0.371248 0.064650
H25_2 H 0.815009 0.527975 0.009867
Nd2_2 Nd 0.90672(2) 0.91310(4) 0.04359(2)
O1_2 O 0.94359(7) 0.6739(6) 0.4390(2)
O4_2 O 0.91826(7) 0.8389(6) 0.4733(2)
O8_2 O 0.89106(7) 0.9810(6) 0.1586(2)
O13_2 O 0.94417(7) 0.9361(6) 0.0560(3)
O14_2 O 0.87951(7) 0.7071(6) 0.0550(2)
O58_2 O 0.74971(7) 0.3075(6) 0.0024(2)
H4_2 H 0.981238 0.954795 0.968438
C18_2 C 0.84480(10) 0.5097(9) 0.9785(4)
H23_2 H 0.846016 0.628914 0.963710
H24_2 H 0.852366 0.438105 0.946717
C19_2 C 0.82248(10) 0.4567(9) 0.9777(4)
H26_2 H 0.821348 0.337538 0.992625
C20_2 C 0.81283(10) 0.4745(9) 0.9067(3)
H27_2 H 0.813488 0.593819 0.891601
H28_2 H 0.820097 0.403472 0.873948
C21_2 C 0.79094(10) 0.4169(9) 0.9116(3)
C22_2 C 0.76492(10) 0.8268(8) 0.8078(3)
C23_2 C 0.76849(12) 0.6947(9) 0.7525(3)
H29_2 H 0.755563 0.666970 0.731128
H30_2 H 0.773689 0.589735 0.773297
C24_2 C 0.78326(10) 0.7537(9) 0.6978(3)
H31_2 H 0.796034 0.784960 0.719370
H32_2 H 0.777837 0.856542 0.676029
C25_2 C 0.78745(11) 0.6180(9) 0.6428(3)
H33_2 H 0.791713 0.512022 0.665084
H34_2 H 0.798718 0.657698 0.614808
C26_2 C 0.76939(11) 0.5770(9) 0.5957(3)
H35_2 H 0.772385 0.472147 0.570459
H36_2 H 0.757479 0.554786 0.623759
C27_2 C 0.76442(10) 0.7193(8) 0.5455(3)
O9_2 O 0.77305(7) 0.9736(6) 0.8066(2)
O12_2 O 0.75351(7) 0.7850(6) 0.8581(2)
O15_2 O 0.78731(7) 0.2583(6) 0.9066(2)
O18_2 O 0.77737(7) 0.5315(6) 0.9246(2)
O21_2 O 0.70957(7) 0.3648(6) 0.9451(2)
O46_2 O 0.89645(7) 0.8218(6) 0.9234(2)
O62_2 O 0.72695(7) 0.4736(6) 0.8066(2)
O66_2 O 0.74649(7) 0.2850(6) 0.8581(2)
O68_2 O 0.71269(7) 0.7583(6) 0.9066(2)
H24_3 H 0.352366 0.061895 0.053283
C19_3 C 0.32248(10) 0.0433(9) 0.0223(4)
H26_3 H 0.321348 0.162462 0.007375
C20_3 C 0.31283(10) 0.0255(9) 0.0933(3)
H28_3 H 0.320097 0.096528 0.126052
C21_3 C 0.29094(10) 0.0831(9) 0.0884(3)
H35_3 H 0.272385 0.027853 0.429541
O21_3 O 0.20957(7) 0.1352(6) 0.0549(2)
H53_3 H 0.614964 0.023261 0.292653
H55_3 H 0.584968 0.005927 0.360187
H56_3 H 0.604231 0.059290 0.402381
O40_3 O 0.54235(7) 0.1023(6) 0.0394(2)
O60_2 O 0.56191(7) 0.0010(6) 0.1750(2)
O64_2 O 0.58126(7) 0.1820(6) 0.1182(2)
C17_3 C 0.35390(9) 0.0091(8) 0.9499(3)
H22_3 H 0.353082 0.128752 0.935350
O17_2 O 0.38971(7) 0.0655(6) 0.9607(2)
H3_3 H 0.487179 0.355104 0.012038
H4_3 H 0.481238 0.545205 0.031562
C18_3 C 0.34480(10) 0.9903(9) 0.0215(4)
H23_3 H 0.346016 0.871086 0.036290
H27_3 H 0.313488 0.906181 0.108399
C22_3 C 0.26492(10) 0.6732(8) 0.1922(3)
C23_3 C 0.26849(12) 0.8053(9) 0.2475(3)
H29_3 H 0.255563 0.833030 0.268872
H30_3 H 0.273689 0.910265 0.226703
C24_3 C 0.28326(10) 0.7463(9) 0.3022(3)
H31_3 H 0.296034 0.715040 0.280630
H32_3 H 0.277837 0.643458 0.323971
C25_3 C 0.28745(11) 0.8820(9) 0.3572(3)
H33_3 H 0.291713 0.987978 0.334916
H34_3 H 0.298718 0.842302 0.385192
C26_3 C 0.26939(11) 0.9230(9) 0.4043(3)
H36_3 H 0.257479 0.945214 0.376241
C27_3 C 0.26442(10) 0.7807(8) 0.4545(3)
O3_2 O 0.27396(7) 0.6420(6) 0.4566(2)
O18_3 O 0.27737(7) 0.9685(6) 0.0754(2)
C28_3 C 0.54263(10) 0.5500(9) 0.0703(3)
C29_3 C 0.52042(10) 0.4984(9) 0.0726(4)
H37_3 H 0.519174 0.378209 0.086150
H38_3 H 0.513206 0.568840 0.105744
C30_3 C 0.51131(10) 0.5247(9) 0.0012(4)
O22_3 O 0.55583(7) 0.4361(6) 0.0560(3)
O23_3 O 0.54664(7) 0.7074(6) 0.0800(2)
C31_3 C 0.56988(10) 0.1468(8) 0.1708(3)
C32_3 C 0.56691(11) 0.2849(9) 0.2241(3)
H41_3 H 0.579733 0.304373 0.247486
H42_3 H 0.563135 0.391848 0.201473
C33_3 C 0.55066(11) 0.2398(9) 0.2768(3)
H43_3 H 0.538336 0.205738 0.253008
H44_3 H 0.555279 0.141348 0.303316
C34_3 C 0.54557(10) 0.3893(9) 0.3261(3)
H45_3 H 0.542109 0.490658 0.299359
H46_3 H 0.533635 0.357698 0.352585
C35_3 C 0.56293(10) 0.4371(9) 0.3761(3)
H47_3 H 0.559725 0.547561 0.396952
H48_3 H 0.575364 0.451869 0.349941
C36_3 C 0.56686(10) 0.3072(8) 0.4323(3)
C37_3 C 0.60359(10) 0.6363(9) 0.1576(3)
C38_3 C 0.61353(11) 0.7676(9) 0.2030(3)
H49_3 H 0.627162 0.729460 0.214661
H50_3 H 0.614612 0.876815 0.178928
C39_3 C 0.60121(11) 0.7922(9) 0.2678(3)
H51_3 H 0.587797 0.835372 0.255918
H52_3 H 0.599506 0.681410 0.290239
C40_3 C 0.61142(11) 0.9185(9) 0.3172(3)
H54_3 H 0.623935 0.867425 0.334108
C41_3 C 0.59795(11) 0.9649(9) 0.3774(3)
C42_3 C 0.59410(10) 0.8175(9) 0.4265(3)
C43_3 C 0.62390(10) 0.0491(8) 0.0490(3)
H57_3 H 0.653742 0.060824 0.082271
H61_3 H 0.684991 0.027975 0.009867
O31_3 O 0.60894(7) 0.4810(6) 0.1586(2)
O34_3 O 0.58905(7) 0.6841(6) 0.1168(2)
O36_3 O 0.62049(7) 0.2071(6) 0.0550(2)
O41_3 O 0.62309(7) 0.5975(6) 0.0189(2)
O48_2 O 0.77396(7) 0.1420(6) 0.0434(2)
O70_2 O 0.61029(7) 0.9345(6) 0.0393(2)
H76_2 H 0.375785 0.384399 0.0312498
C1_3 C 0.45737(10) 0.4500(9) 0.9297(3)
C2_3 C 0.47958(10) 0.5016(9) 0.9274(4)
H1_3 H 0.480826 0.621791 0.913850
H2_3 H 0.486794 0.431160 0.894256
C3_3 C 0.48869(10) 0.4753(9) 0.9988(4)
C4_3 C 0.43012(10) 0.8532(8) 0.8292(3)
C5_3 C 0.43309(11) 0.7151(9) 0.7759(3)
H5_3 H 0.420267 0.695627 0.752514
H6_3 H 0.436865 0.608152 0.798527
C6_3 C 0.44934(11) 0.7602(9) 0.7232(3)
H7_3 H 0.461664 0.794262 0.746992
H8_3 H 0.444721 0.858652 0.696684
C7_3 C 0.45443(10) 0.6107(9) 0.6739(3)
H9_3 H 0.457891 0.509342 0.700641
H10_3 H 0.466365 0.642302 0.647415
C8_3 C 0.43707(10) 0.5629(9) 0.6239(3)
H11_3 H 0.440275 0.452439 0.603048
H12_3 H 0.424636 0.548131 0.650059
C9_3 C 0.43314(10) 0.6928(8) 0.5677(3)
C10_3 C 0.39641(10) 0.3637(9) 0.8424(3)
C11_3 C 0.38647(11) 0.2324(9) 0.7970(3)
H13_3 H 0.372838 0.270540 0.785339
H14_3 H 0.385388 0.123185 0.821072
C12_3 C 0.39879(11) 0.2078(9) 0.7322(3)
H15_3 H 0.412203 0.164628 0.744082
H16_3 H 0.400494 0.318590 0.709761
C13_3 C 0.38858(11) 0.0815(9) 0.6828(3)
H18_3 H 0.376065 0.132575 0.665892
C14_3 C 0.40205(11) 0.0351(9) 0.6226(3)
C15_3 C 0.40590(10) 0.1825(9) 0.5735(3)
C16_3 C 0.37610(10) 0.9509(8) 0.9510(3)
H21_3 H 0.346258 0.939176 0.917729
H25_3 H 0.315009 0.972025 0.990133
O7_2 O 0.43809(7) 0.9990(6) 0.8250(2)
O8_3 O 0.39106(7) 0.5190(6) 0.8414(2)
O10_2 O 0.41874(7) 0.8180(6) 0.8818(2)
O11_3 O 0.41095(7) 0.3159(6) 0.8832(2)
O13_3 O 0.44417(7) 0.5639(6) 0.9440(3)
O14_3 O 0.37951(7) 0.7929(6) 0.9450(2)
O16_3 O 0.45336(7) 0.2926(6) 0.9200(2)
O20_3 O 0.37691(7) 0.4025(6) 0.9811(2)
H39_3 H 0.512821 0.644896 0.987962
H40_3 H 0.518762 0.454795 0.968438
C45_3 C 0.65520(10) 0.0097(9) 0.9785(4)
H59_3 H 0.653984 0.128914 0.963710
H63_3 H 0.686512 0.093819 0.891601
C49_3 C 0.73508(10) 0.3268(8) 0.8078(3)
C50_3 C 0.73151(12) 0.1947(9) 0.7525(3)
H65_3 H 0.744437 0.166970 0.731128
H66_3 H 0.726311 0.089735 0.773297
C51_3 C 0.71674(10) 0.2537(9) 0.6978(3)
H67_3 H 0.703966 0.284960 0.719370
H68_3 H 0.722163 0.356542 0.676029
C52_3 C 0.71255(11) 0.1180(9) 0.6428(3)
H69_3 H 0.708287 0.012022 0.665084
H70_3 H 0.701282 0.157698 0.614808
C53_3 C 0.73061(11) 0.0770(9) 0.5957(3)
H72_3 H 0.742521 0.054786 0.623759
C54_3 C 0.73558(10) 0.2193(8) 0.5455(3)
O26_2 O 0.72604(7) 0.3580(6) 0.5434(2)
O39_3 O 0.72263(7) 0.0315(6) 0.9246(2)
O47_2 O 0.22604(7) 0.8580(6) 0.9566(2)
C44_3 C 0.64610(9) 0.9909(8) 0.0501(3)
H58_3 H 0.646918 0.871248 0.064650
H78_2 H 0.455751 0.820025 0.000533435
H17_3 H 0.385036 0.976739 0.707347
H19_3 H 0.415032 0.994073 0.639813
H20_3 H 0.395769 0.940710 0.597619
O19_3 O 0.45765(7) 0.8977(6) 0.9606(2)
H60_3 H 0.647634 0.938105 0.946717
C46_3 C 0.67752(10) 0.9567(9) 0.9777(4)
H62_3 H 0.678652 0.837538 0.992625
C47_3 C 0.68717(10) 0.9745(9) 0.9067(3)
H64_3 H 0.679903 0.903472 0.873948
C48_3 C 0.70906(10) 0.9169(9) 0.9116(3)
H71_3 H 0.727615 0.972147 0.570459
O42_3 O 0.79043(7) 0.8648(6) 0.9451(2)
C1_4 C 0.04263(10) 0.0500(9) 0.4297(3)
H2_4 H 0.013206 0.068840 0.394256
C3_4 C 0.01131(10) 0.0247(9) 0.4988(4)
H3_4 H 0.012821 0.144896 0.512038
H11_4 H 0.059725 0.047561 0.103048
C10_4 C 0.10359(10) 0.1363(9) 0.3424(3)
C11_4 C 0.11353(11) 0.2676(9) 0.2970(3)
H13_4 H 0.127162 0.229460 0.285339
H14_4 H 0.114612 0.376815 0.321072
C12_4 C 0.10121(11) 0.2922(9) 0.2322(3)
H15_4 H 0.087797 0.335372 0.244082
H16_4 H 0.099506 0.181410 0.209761
C13_4 C 0.11142(11) 0.4185(9) 0.1828(3)
H17_4 H 0.114964 0.523261 0.207347
H18_4 H 0.123935 0.367425 0.165892
C14_4 C 0.09795(11) 0.4649(9) 0.1226(3)
H19_4 H 0.084968 0.505927 0.139813
H20_4 H 0.104231 0.559290 0.097619
C15_4 C 0.09410(10) 0.3175(9) 0.0735(3)
O11_4 O 0.08905(7) 0.1841(6) 0.3832(2)
O16_4 O 0.04664(7) 0.2074(6) 0.4200(2)
O19_4 O 0.04235(7) 0.6023(6) 0.4606(2)
O20_4 O 0.12309(7) 0.0975(6) 0.4811(2)
O59_2 O 0.06191(7) 0.5010(6) 0.3250(2)
O63_2 O 0.08126(7) 0.6820(6) 0.3818(2)
O69_2 O 0.11029(7) 0.4345(6) 0.4607(2)
C2_4 C 0.02042(10) 0.9984(9) 0.4274(4)
H1_4 H 0.019174 0.878209 0.413850
H4_4 H 0.018762 0.954795 0.531562
C4_4 C 0.06988(10) 0.6468(8) 0.3292(3)
C5_4 C 0.06691(11) 0.7849(9) 0.2759(3)
H5_4 H 0.079733 0.804373 0.252514
H6_4 H 0.063135 0.891848 0.298527
C6_4 C 0.05066(11) 0.7398(9) 0.2232(3)
H7_4 H 0.038336 0.705738 0.246992
H8_4 H 0.055279 0.641348 0.196684
C7_4 C 0.04557(10) 0.8893(9) 0.1739(3)
H9_4 H 0.042109 0.990658 0.200641
H10_4 H 0.033635 0.857698 0.147415
C8_4 C 0.06293(10) 0.9371(9) 0.1239(3)
H12_4 H 0.075364 0.951869 0.150059
C9_4 C 0.06686(10) 0.8072(8) 0.0677(3)
C16_4 C 0.12390(10) 0.5491(8) 0.4510(3)
C17_4 C 0.14610(9) 0.4909(8) 0.4499(3)
H21_4 H 0.153742 0.560824 0.417729
H22_4 H 0.146918 0.371248 0.435350
C18_4 C 0.15520(10) 0.5097(9) 0.5215(4)
H23_4 H 0.153984 0.628914 0.536290
H24_4 H 0.147634 0.438105 0.553283
C19_4 C 0.17752(10) 0.4567(9) 0.5223(4)
H25_4 H 0.184991 0.527975 0.490133
H26_4 H 0.178652 0.337538 0.507375
C20_4 C 0.18717(10) 0.4745(9) 0.5933(3)
H27_4 H 0.186512 0.593819 0.608399
H28_4 H 0.179903 0.403472 0.626052
C21_4 C 0.20906(10) 0.4169(9) 0.5884(3)
C22_4 C 0.23508(10) 0.8268(8) 0.6922(3)
C23_4 C 0.23151(12) 0.6947(9) 0.7475(3)
H29_4 H 0.244437 0.666970 0.768872
H30_4 H 0.226311 0.589735 0.726703
C24_4 C 0.21674(10) 0.7537(9) 0.8022(3)
H31_4 H 0.203966 0.784960 0.780630
H32_4 H 0.222163 0.856542 0.823971
C25_4 C 0.21255(11) 0.6180(9) 0.8572(3)
H33_4 H 0.208287 0.512022 0.834916
H34_4 H 0.201282 0.657698 0.885192
C26_4 C 0.23061(11) 0.5770(9) 0.9043(3)
H35_4 H 0.227615 0.472147 0.929541
H36_4 H 0.242521 0.554786 0.876241
C27_4 C 0.23558(10) 0.7193(8) 0.9545(3)
O8_4 O 0.10894(7) 0.9810(6) 0.3414(2)
O13_4 O 0.05583(7) 0.9361(6) 0.4440(3)
O14_4 O 0.12049(7) 0.7071(6) 0.4450(2)
O18_4 O 0.22263(7) 0.5315(6) 0.5754(2)
O21_4 O 0.29043(7) 0.3648(6) 0.5549(2)
C29_4 C 0.97958(10) 0.0016(9) 0.5726(4)
H37_4 H 0.980826 0.121791 0.586150
H40_4 H 0.981238 0.045205 0.468438
O22_4 O 0.94417(7) 0.0639(6) 0.5560(3)
C31_4 C 0.93012(10) 0.3532(8) 0.6708(3)
C32_4 C 0.93309(11) 0.2151(9) 0.7241(3)
H41_4 H 0.920267 0.195627 0.747486
H42_4 H 0.936865 0.108152 0.701473
C33_4 C 0.94934(11) 0.2602(9) 0.7768(3)
H43_4 H 0.961664 0.294262 0.753008
H44_4 H 0.944721 0.358652 0.803316
C34_4 C 0.95443(10) 0.1107(9) 0.8261(3)
H45_4 H 0.957891 0.009342 0.799359
H46_4 H 0.966365 0.142302 0.852585
C35_4 C 0.93707(10) 0.0629(9) 0.8761(3)
H48_4 H 0.924636 0.048131 0.849941
C36_4 C 0.93314(10) 0.1928(8) 0.9323(3)
C43_4 C 0.87610(10) 0.4509(8) 0.5490(3)
C44_4 C 0.85390(9) 0.5091(8) 0.5501(3)
H57_4 H 0.846258 0.439176 0.582271
H58_4 H 0.853082 0.628752 0.564650
C45_4 C 0.84480(10) 0.4903(9) 0.4785(4)
H59_4 H 0.846016 0.371086 0.463710
H60_4 H 0.852366 0.561895 0.446717
C46_4 C 0.82248(10) 0.5433(9) 0.4777(4)
H61_4 H 0.815009 0.472025 0.509867
H62_4 H 0.821348 0.662462 0.492625
C47_4 C 0.81283(10) 0.5255(9) 0.4067(3)
H63_4 H 0.813488 0.406181 0.391601
H64_4 H 0.820097 0.596528 0.373948
C48_4 C 0.79094(10) 0.5831(9) 0.4116(3)
C49_4 C 0.76492(10) 0.1732(8) 0.3078(3)
C50_4 C 0.76849(12) 0.3053(9) 0.2525(3)
H65_4 H 0.755563 0.333030 0.231128
H66_4 H 0.773689 0.410265 0.273297
C51_4 C 0.78326(10) 0.2463(9) 0.1978(3)
H67_4 H 0.796034 0.215040 0.219370
H68_4 H 0.777837 0.143458 0.176029
C52_4 C 0.78745(11) 0.3820(9) 0.1428(3)
H69_4 H 0.791713 0.487978 0.165084
H70_4 H 0.798718 0.342302 0.114808
C53_4 C 0.76939(11) 0.4230(9) 0.0957(3)
H71_4 H 0.772385 0.527853 0.070459
H72_4 H 0.757479 0.445214 0.123759
C54_4 C 0.76442(10) 0.2807(8) 0.0455(3)
O30_2 O 0.93809(7) 0.4990(6) 0.6750(2)
O31_4 O 0.89106(7) 0.0190(6) 0.6586(2)
O33_2 O 0.91874(7) 0.3180(6) 0.6182(2)
O36_4 O 0.87951(7) 0.2929(6) 0.5550(2)
O38_2 O 0.88971(7) 0.5655(6) 0.5393(2)
O39_4 O 0.77737(7) 0.4685(6) 0.4246(2)
O42_4 O 0.70957(7) 0.6352(6) 0.4451(2)
C28_4 C 0.95737(10) 0.9500(9) 0.5703(3)
H38_4 H 0.986794 0.931160 0.605744
C30_4 C 0.98869(10) 0.9753(9) 0.5012(4)
H39_4 H 0.987179 0.855104 0.487962
O23_4 O 0.95336(7) 0.7926(6) 0.5800(2)
H47_4 H 0.940275 0.952439 0.896952
C37_4 C 0.89641(10) 0.8637(9) 0.6576(3)
C38_4 C 0.88647(11) 0.7324(9) 0.7030(3)
H49_4 H 0.872838 0.770540 0.714661
H50_4 H 0.885388 0.623185 0.678928
C39_4 C 0.89879(11) 0.7078(9) 0.7678(3)
H51_4 H 0.912203 0.664628 0.755918
H52_4 H 0.900494 0.818590 0.790239
C40_4 C 0.88858(11) 0.5815(9) 0.8172(3)
H53_4 H 0.885036 0.476739 0.792653
H54_4 H 0.876065 0.632575 0.834108
C41_4 C 0.90205(11) 0.5351(9) 0.8774(3)
H55_4 H 0.915032 0.494073 0.860187
H56_4 H 0.895769 0.440710 0.902381
C42_4 C 0.90590(10) 0.6825(9) 0.9265(3)
O34_4 O 0.91095(7) 0.8159(6) 0.6168(2)
O40_4 O 0.95765(7) 0.3977(6) 0.5394(2)
O41_4 O 0.87691(7) 0.9025(6) 0.5189(2)
H76_3 H 0.124215 0.884399 0.0312498
H78_3 H 0.0442488 0.320025 0.000533435
H78_4 H 0.544249 0.179975 0.999467
H76_4 H 0.624215 0.615601 0.96875
loop_
_geom_bond_atom_site_label_1
_geom_bond_atom_site_label_2
_geom_bond_site_symmetry_1
_geom_bond_site_symmetry_2
H22 C17 1_555 1_555
H26 C19 1_555 1_555
C20 C19 1_555 1_555
H28 C20 1_555 1_555
C21 C20 1_555 1_555
O15 C21 1_555 1_555
Nd22 O15 1_555 1_555
O17 Nd7 1_555 1_555
Nd22 O58 1_555 1_555
Nd22 O66 1_555 1_555
C1 C2 1_555 1_555
C2 H1 1_555 1_555
H2 C2 1_555 1_555
C3 C2 1_555 1_555
H3 C3 1_555 1_555
H4 C3 1_555 1_555
C4 C5 1_555 1_555
C5 H5 1_555 1_555
H6 C5 1_555 1_555
C6 C5 1_555 1_555
H7 C6 1_555 1_555
H8 C6 1_555 1_555
C7 C6 1_555 1_555
H9 C7 1_555 1_555
H10 C7 1_555 1_555
C8 C7 1_555 1_555
H11 C8 1_555 1_555
H12 C8 1_555 1_555
C9 C8 1_555 1_555
C10 C11 1_555 1_555
C11 H13 1_555 1_555
H14 C11 1_555 1_555
C12 C11 1_555 1_555
H15 C12 1_555 1_555
H16 C12 1_555 1_555
C13 C12 1_555 1_555
H18 C13 1_555 1_555
C14 C13 1_555 1_555
C15 C14 1_555 1_555
H23 C18 1_555 1_555
C22 C23 1_555 1_555
C23 H29 1_555 1_555
H30 C23 1_555 1_555
C24 C23 1_555 1_555
H31 C24 1_555 1_555
H32 C24 1_555 1_555
C25 C24 1_555 1_555
H33 C25 1_555 1_555
H34 C25 1_555 1_555
C26 C25 1_555 1_555
H36 C26 1_555 1_555
C27 C26 1_555 1_555
Nd7 O11 1_555 1_555
Nd2 O8 1_555 1_555
Nd3 O12 1_555 1_555
O1 C9 1_555 1_555
O2 C15 1_555 1_555
O3 C27 1_555 1_555
O4 C9 1_555 1_555
O5 C15 1_555 1_555
O6 C27 1_555 1_555
O7 C4 1_555 1_555
O8 C10 1_555 1_555
O9 C22 1_555 1_555
O10 C4 1_555 1_555
O11 C10 1_555 1_555
O12 C22 1_555 1_555
O13 C1 1_555 1_555
O14 C16 1_555 1_555
O16 C1 1_555 1_555
O20 Nd2 1_555 1_555
C28 C29 1_555 1_555
C29 H37 1_555 1_555
H38 C29 1_555 1_555
C30 C3 1_555 1_555
H39 C30 1_555 1_555
H40 C30 1_555 1_555
O22 C28 1_555 1_555
O23 C28 1_555 1_555
C31 C32 1_555 1_555
C32 H41 1_555 1_555
H42 C32 1_555 1_555
C33 C32 1_555 1_555
H43 C33 1_555 1_555
H44 C33 1_555 1_555
C34 C33 1_555 1_555
H45 C34 1_555 1_555
H46 C34 1_555 1_555
C35 C34 1_555 1_555
H47 C35 1_555 1_555
H48 C35 1_555 1_555
C36 C35 1_555 1_555
C37 C38 1_555 1_555
C38 H49 1_555 1_555
H50 C38 1_555 1_555
C39 C38 1_555 1_555
H51 C39 1_555 1_555
H52 C39 1_555 1_555
C40 C39 1_555 1_555
H54 C40 1_555 1_555
C41 C40 1_555 1_555
C42 C41 1_555 1_555
H59 C45 1_555 1_555
C49 C50 1_555 1_555
C50 H65 1_555 1_555
H66 C50 1_555 1_555
C51 C50 1_555 1_555
H67 C51 1_555 1_555
H68 C51 1_555 1_555
C52 C51 1_555 1_555
H69 C52 1_555 1_555
H70 C52 1_555 1_555
C53 C52 1_555 1_555
H72 C53 1_555 1_555
C54 C53 1_555 1_555
Nd4 O23 1_555 1_555
Nd5 O22 1_555 1_555
Nd6 O35 1_555 1_555
O24 C36 1_555 1_555
O25 C42 1_555 1_555
O26 C54 1_555 1_555
O27 C36 1_555 1_555
O28 C42 1_555 1_555
O29 C54 1_555 1_555
O60 C31 1_555 1_555
O31 C37 1_555 1_555
O32 C49 1_555 1_555
O64 C31 1_555 1_555
O34 C37 1_555 1_555
O35 C49 1_555 1_555
O36 C43 1_555 1_555
O41 Nd5 1_555 1_555
Nd18 O32 1_555 1_555
Nd22 O9 1_555 1_555
O43 Nd4 1_555 1_555
O44 Nd7 1_555 1_555
O45 Nd5 1_555 1_555
O46 Nd2 1_555 1_555
O47 Nd3 1_555 1_555
O48 Nd6 1_555 1_555
O49 Nd4 1_555 1_555
O50 Nd7 1_555 1_555
O52 Nd5 1_555 1_555
O54 Nd2 1_555 1_555
O55 Nd3 1_555 1_555
O57 Nd6 1_555 1_555
O67 Nd6 1_555 1_555
O68 Nd3 1_555 1_555
O70 Nd4 1_555 1_555
Nd7 O16 1_555 1_555
Nd2 O10 1_555 1_555
Nd2 O11 1_555 1_555
Nd2 O13 1_555 1_555
Nd2 O14 1_555 1_555
Nd2 O50 1_555 1_555
Nd3 O18 1_555 1_555
O12 Nd22 1_555 1_555
C29 C30 1_555 1_555
Nd4 O34 1_555 1_555
Nd5 O31 1_555 1_555
Nd5 O64 1_555 1_555
Nd5 O34 1_555 1_555
Nd5 O36 1_555 1_555
Nd5 O49 1_555 1_555
Nd6 O39 1_555 1_555
O35 Nd18 1_555 1_555
Nd18 O57 1_555 1_555
Nd22 O55 1_555 1_555
H58 C44 1_555 1_555
H62 C46 1_555 1_555
C47 C46 1_555 1_555
H64 C47 1_555 1_555
C48 C47 1_555 1_555
O37 C48 1_555 1_555
Nd18 O37 1_555 1_555
Nd18 O56 1_555 1_555
Nd18 O65 1_555 1_555
H59_2 C45_2 1_555 1_555
H60_2 C45_2 1_555 1_555
C46_2 C45_2 1_555 1_555
H62_2 C46_2 1_555 1_555
C47_2 C46_2 1_555 1_555
H63_2 C47_2 1_555 1_555
H64_2 C47_2 1_555 1_555
C48_2 C47_2 1_555 1_555
C49_2 C50_2 1_555 1_555
C50_2 H65_2 1_555 1_555
H66_2 C50_2 1_555 1_555
C51_2 C50_2 1_555 1_555
H67_2 C51_2 1_555 1_555
H68_2 C51_2 1_555 1_555
C52_2 C51_2 1_555 1_555
H69_2 C52_2 1_555 1_555
H70_2 C52_2 1_555 1_555
C53_2 C52_2 1_555 1_555
H71_2 C53_2 1_555 1_555
H72_2 C53_2 1_555 1_555
C54_2 C53_2 1_555 1_555
Nd19 O35_2 1_555 1_555
O48 C54_2 1_555 1_555
O57 C54_2 1_555 1_555
O32_2 C49_2 1_555 1_555
O35_2 C49_2 1_555 1_555
O37_2 C48_2 1_555 1_555
O39_2 C48_2 1_555 1_555
O42_2 Nd19 1_555 1_555
Nd16 O37_2 1_555 1_555
O61_2 Nd19 1_555 1_555
O65_2 Nd19 1_555 1_555
O67_2 Nd19 1_555 1_555
Nd19 O39_2 1_555 1_555
Nd16 O65_2 1_555 1_555
C29_2 H37_2 1_555 1_555
C31_2 C32_2 1_555 1_555
C32_2 H41_2 1_555 1_555
H42_2 C32_2 1_555 1_555
C33_2 C32_2 1_555 1_555
H43_2 C33_2 1_555 1_555
H44_2 C33_2 1_555 1_555
C34_2 C33_2 1_555 1_555
H45_2 C34_2 1_555 1_555
H46_2 C34_2 1_555 1_555
C35_2 C34_2 1_555 1_555
H48_2 C35_2 1_555 1_555
C36_2 C35_2 1_555 1_555
C43_2 C44_2 1_555 1_555
C44_2 H57_2 1_555 1_555
H58_2 C44_2 1_555 1_555
Nd5_2 O22_2 1_555 1_555
O24_2 C36_2 1_555 1_555
O27_2 C36_2 1_555 1_555
O30 C31_2 1_555 1_555
O33 C31_2 1_555 1_555
O36_2 C43_2 1_555 1_555
O38 C43_2 1_555 1_555
Nd8 O24_2 1_555 1_555
Nd10 O30 1_555 1_555
Nd5_2 O31_2 1_555 1_555
Nd5_2 O33 1_555 1_555
Nd5_2 O36_2 1_555 1_555
O27_2 Nd8 1_555 1_555
O33 Nd10 1_555 1_555
O38 Nd10 1_555 1_555
O23_2 C28_2 1_555 1_555
C37_2 C38_2 1_555 1_555
C38_2 H49_2 1_555 1_555
H50_2 C38_2 1_555 1_555
C39_2 C38_2 1_555 1_555
H51_2 C39_2 1_555 1_555
H52_2 C39_2 1_555 1_555
C40_2 C39_2 1_555 1_555
H53_2 C40_2 1_555 1_555
H54_2 C40_2 1_555 1_555
C41_2 C40_2 1_555 1_555
H55_2 C41_2 1_555 1_555
H56_2 C41_2 1_555 1_555
C42_2 C41_2 1_555 1_555
Nd10 O23_2 1_555 1_555
O25_2 C42_2 1_555 1_555
O28_2 C42_2 1_555 1_555
O34_2 C37_2 1_555 1_555
O40_2 Nd10 1_555 1_555
Nd8 O28_2 1_555 1_555
Nd13_2 O25_2 1_555 1_555
Nd10 O34_2 1_555 1_555
O28_2 Nd13_2 1_555 1_555
C10_2 C11_2 1_555 1_555
C11_2 H13_2 1_555 1_555
H14_2 C11_2 1_555 1_555
C12_2 C11_2 1_555 1_555
H15_2 C12_2 1_555 1_555
H16_2 C12_2 1_555 1_555
C13_2 C12_2 1_555 1_555
H17_2 C13_2 1_555 1_555
H18_2 C13_2 1_555 1_555
C14_2 C13_2 1_555 1_555
H19_2 C14_2 1_555 1_555
H20_2 C14_2 1_555 1_555
C15_2 C14_2 1_555 1_555
Nd1 O11_2 1_555 1_555
O2_2 C15_2 1_555 1_555
O5_2 C15_2 1_555 1_555
O11_2 C10_2 1_555 1_555
O16_2 C1_2 1_555 1_555
O19_2 Nd1 1_555 1_555
Nd11 O5_2 1_555 1_555
Nd14_2 O2_2 1_555 1_555
O59 Nd1 1_555 1_555
O63 Nd1 1_555 1_555
O69 Nd1 1_555 1_555
Nd1 O16_2 1_555 1_555
O5_2 Nd14_2 1_555 1_555
C2_2 H1_2 1_555 1_555
C4_2 C5_2 1_555 1_555
C5_2 H5_2 1_555 1_555
H6_2 C5_2 1_555 1_555
C6_2 C5_2 1_555 1_555
H7_2 C6_2 1_555 1_555
H8_2 C6_2 1_555 1_555
C7_2 C6_2 1_555 1_555
H9_2 C7_2 1_555 1_555
H10_2 C7_2 1_555 1_555
C8_2 C7_2 1_555 1_555
H12_2 C8_2 1_555 1_555
C9_2 C8_2 1_555 1_555
C16_2 C17_2 1_555 1_555
C17_2 H21_2 1_555 1_555
H22_2 C17_2 1_555 1_555
Nd2_2 O8_2 1_555 1_555
O1_2 C9_2 1_555 1_555
O4_2 C9_2 1_555 1_555
O59 C4_2 1_555 1_555
O63 C4_2 1_555 1_555
O14_2 C16_2 1_555 1_555
O69 C16_2 1_555 1_555
Nd11 O1_2 1_555 1_555
Nd2_2 O63 1_555 1_555
Nd2_2 O13_2 1_555 1_555
Nd2_2 O14_2 1_555 1_555
O4_2 Nd11 1_555 1_555
H23_2 C18_2 1_555 1_555
H24_2 C18_2 1_555 1_555
C19_2 C18_2 1_555 1_555
H26_2 C19_2 1_555 1_555
C20_2 C19_2 1_555 1_555
H27_2 C20_2 1_555 1_555
H28_2 C20_2 1_555 1_555
C21_2 C20_2 1_555 1_555
C22_2 C23_2 1_555 1_555
C23_2 H29_2 1_555 1_555
H30_2 C23_2 1_555 1_555
C24_2 C23_2 1_555 1_555
H31_2 C24_2 1_555 1_555
H32_2 C24_2 1_555 1_555
C25_2 C24_2 1_555 1_555
H33_2 C25_2 1_555 1_555
H34_2 C25_2 1_555 1_555
C26_2 C25_2 1_555 1_555
H35_2 C26_2 1_555 1_555
H36_2 C26_2 1_555 1_555
C27_2 C26_2 1_555 1_555
Nd15 O12_2 1_555 1_555
O47 C27_2 1_555 1_555
O55 C27_2 1_555 1_555
O9_2 C22_2 1_555 1_555
O12_2 C22_2 1_555 1_555
O15_2 C21_2 1_555 1_555
O18_2 C21_2 1_555 1_555
O21_2 Nd15 1_555 1_555
Nd20 O15_2 1_555 1_555
O62_2 Nd15 1_555 1_555
O66_2 Nd15 1_555 1_555
O68_2 Nd15 1_555 1_555
Nd15 O18_2 1_555 1_555
Nd20 O66_2 1_555 1_555
H26_3 C19_3 1_555 1_555
C20_3 C19_3 1_555 1_555
H28_3 C20_3 1_555 1_555
C21_3 C20_3 1_555 1_555
O67_2 C21_3 1_555 1_555
H22_3 C17_3 1_555 1_555
O17_2 Nd9 1_555 1_555
H23_3 C18_3 1_555 1_555
C22_3 C23_3 1_555 1_555
C23_3 H29_3 1_555 1_555
H30_3 C23_3 1_555 1_555
C24_3 C23_3 1_555 1_555
H31_3 C24_3 1_555 1_555
H32_3 C24_3 1_555 1_555
C25_3 C24_3 1_555 1_555
H33_3 C25_3 1_555 1_555
H34_3 C25_3 1_555 1_555
C26_3 C25_3 1_555 1_555
H36_3 C26_3 1_555 1_555
C27_3 C26_3 1_555 1_555
O3_2 C27_3 1_555 1_555
O56 C27_3 1_555 1_555
O61_2 C22_3 1_555 1_555
O65_2 C22_3 1_555 1_555
C28_3 C29_3 1_555 1_555
C29_3 H37_3 1_555 1_555
H38_3 C29_3 1_555 1_555
O22_3 C28_3 1_555 1_555
O23_3 C28_3 1_555 1_555
C31_3 C32_3 1_555 1_555
C32_3 H41_3 1_555 1_555
H42_3 C32_3 1_555 1_555
C33_3 C32_3 1_555 1_555
H43_3 C33_3 1_555 1_555
H44_3 C33_3 1_555 1_555
C34_3 C33_3 1_555 1_555
H45_3 C34_3 1_555 1_555
H46_3 C34_3 1_555 1_555
C35_3 C34_3 1_555 1_555
H47_3 C35_3 1_555 1_555
H48_3 C35_3 1_555 1_555
C36_3 C35_3 1_555 1_555
C37_3 C38_3 1_555 1_555
C38_3 H49_3 1_555 1_555
H50_3 C38_3 1_555 1_555
C39_3 C38_3 1_555 1_555
H51_3 C39_3 1_555 1_555
H52_3 C39_3 1_555 1_555
C40_3 C39_3 1_555 1_555
H54_3 C40_3 1_555 1_555
C41_3 C40_3 1_555 1_555
C42_3 C41_3 1_555 1_555
Nd12 O23_3 1_555 1_555
Nd14 O22_3 1_555 1_555
O44 C36_3 1_555 1_555
O46 C42_3 1_555 1_555
O50 C36_3 1_555 1_555
O54 C42_3 1_555 1_555
O60_2 C31_3 1_555 1_555
O31_3 C37_3 1_555 1_555
O64_2 C31_3 1_555 1_555
O34_3 C37_3 1_555 1_555
O36_3 C43_3 1_555 1_555
O41_3 Nd14 1_555 1_555
Nd18 O3_2 1_555 1_555
O70_2 Nd12 1_555 1_555
Nd16 O18_3 1_555 1_555
C29_3 C30_3 1_555 1_555
Nd12 O34_3 1_555 1_555
Nd14 O31_3 1_555 1_555
Nd14 O64_2 1_555 1_555
Nd14 O34_3 1_555 1_555
Nd14 O36_3 1_555 1_555
C1_3 C2_3 1_555 1_555
C2_3 H1_3 1_555 1_555
H2_3 C2_3 1_555 1_555
C3_3 C2_3 1_555 1_555
C4_3 C5_3 1_555 1_555
C5_3 H5_3 1_555 1_555
H6_3 C5_3 1_555 1_555
C6_3 C5_3 1_555 1_555
H7_3 C6_3 1_555 1_555
H8_3 C6_3 1_555 1_555
C7_3 C6_3 1_555 1_555
H9_3 C7_3 1_555 1_555
H10_3 C7_3 1_555 1_555
C8_3 C7_3 1_555 1_555
H11_3 C8_3 1_555 1_555
H12_3 C8_3 1_555 1_555
C9_3 C8_3 1_555 1_555
C10_3 C11_3 1_555 1_555
C11_3 H13_3 1_555 1_555
H14_3 C11_3 1_555 1_555
C12_3 C11_3 1_555 1_555
H15_3 C12_3 1_555 1_555
H16_3 C12_3 1_555 1_555
C13_3 C12_3 1_555 1_555
H18_3 C13_3 1_555 1_555
C14_3 C13_3 1_555 1_555
C15_3 C14_3 1_555 1_555
Nd9 O11_3 1_555 1_555
Nd13 O8_3 1_555 1_555
O43 C9_3 1_555 1_555
O45 C15_3 1_555 1_555
O49 C9_3 1_555 1_555
O52 C15_3 1_555 1_555
O7_2 C4_3 1_555 1_555
O8_3 C10_3 1_555 1_555
O10_2 C4_3 1_555 1_555
O11_3 C10_3 1_555 1_555
O13_3 C1_3 1_555 1_555
O14_3 C16_3 1_555 1_555
O16_3 C1_3 1_555 1_555
O20_3 Nd13 1_555 1_555
H59_3 C45_3 1_555 1_555
C49_3 C50_3 1_555 1_555
C50_3 H65_3 1_555 1_555
H66_3 C50_3 1_555 1_555
C51_3 C50_3 1_555 1_555
H67_3 C51_3 1_555 1_555
H68_3 C51_3 1_555 1_555
C52_3 C51_3 1_555 1_555
H69_3 C52_3 1_555 1_555
H70_3 C52_3 1_555 1_555
C53_3 C52_3 1_555 1_555
H72_3 C53_3 1_555 1_555
C54_3 C53_3 1_555 1_555
O26_2 C54_3 1_555 1_555
O58 C54_3 1_555 1_555
O62_2 C49_3 1_555 1_555
O66_2 C49_3 1_555 1_555
Nd22 O26_2 1_555 1_555
Nd9 O16_3 1_555 1_555
Nd13 O10_2 1_555 1_555
Nd13 O11_3 1_555 1_555
Nd13 O13_3 1_555 1_555
Nd13 O14_3 1_555 1_555
Nd20 O39_3 1_555 1_555
H58_3 C44_3 1_555 1_555
H62_3 C46_3 1_555 1_555
C47_3 C46_3 1_555 1_555
H64_3 C47_3 1_555 1_555
C48_3 C47_3 1_555 1_555
O68_2 C48_3 1_555 1_555
H3_4 C3_4 1_555 1_555
C10_4 C11_4 1_555 1_555
C11_4 H13_4 1_555 1_555
H14_4 C11_4 1_555 1_555
C12_4 C11_4 1_555 1_555
H15_4 C12_4 1_555 1_555
H16_4 C12_4 1_555 1_555
C13_4 C12_4 1_555 1_555
H17_4 C13_4 1_555 1_555
H18_4 C13_4 1_555 1_555
C14_4 C13_4 1_555 1_555
H19_4 C14_4 1_555 1_555
H20_4 C14_4 1_555 1_555
C15_4 C14_4 1_555 1_555
Nd8 O11_4 1_555 1_555
O45_2 C15_4 1_555 1_555
O51 C15_4 1_555 1_555
O11_4 C10_4 1_555 1_555
O16_4 C1_4 1_555 1_555
O19_4 Nd8 1_555 1_555
O59_2 Nd8 1_555 1_555
O63_2 Nd8 1_555 1_555
O69_2 Nd8 1_555 1_555
Nd8 O16_4 1_555 1_555
C2_4 H1_4 1_555 1_555
C4_4 C5_4 1_555 1_555
C5_4 H5_4 1_555 1_555
H6_4 C5_4 1_555 1_555
C6_4 C5_4 1_555 1_555
H7_4 C6_4 1_555 1_555
H8_4 C6_4 1_555 1_555
C7_4 C6_4 1_555 1_555
H9_4 C7_4 1_555 1_555
H10_4 C7_4 1_555 1_555
C8_4 C7_4 1_555 1_555
H12_4 C8_4 1_555 1_555
C9_4 C8_4 1_555 1_555
C16_4 C17_4 1_555 1_555
C17_4 H21_4 1_555 1_555
H22_4 C17_4 1_555 1_555
C18_4 C17_4 1_555 1_555
H23_4 C18_4 1_555 1_555
H24_4 C18_4 1_555 1_555
C19_4 C18_4 1_555 1_555
H25_4 C19_4 1_555 1_555
H26_4 C19_4 1_555 1_555
C20_4 C19_4 1_555 1_555
H27_4 C20_4 1_555 1_555
H28_4 C20_4 1_555 1_555
C21_4 C20_4 1_555 1_555
C22_4 C23_4 1_555 1_555
C23_4 H29_4 1_555 1_555
H30_4 C23_4 1_555 1_555
C24_4 C23_4 1_555 1_555
H31_4 C24_4 1_555 1_555
H32_4 C24_4 1_555 1_555
C25_4 C24_4 1_555 1_555
H33_4 C25_4 1_555 1_555
H34_4 C25_4 1_555 1_555
C26_4 C25_4 1_555 1_555
H35_4 C26_4 1_555 1_555
H36_4 C26_4 1_555 1_555
C27_4 C26_4 1_555 1_555
Nd13_2 O8_4 1_555 1_555
O43_2 C9_4 1_555 1_555
O47_2 C27_4 1_555 1_555
O49_2 C9_4 1_555 1_555
O56_2 C27_4 1_555 1_555
O59_2 C4_4 1_555 1_555
O61 C22_4 1_555 1_555
O63_2 C4_4 1_555 1_555
O65 C22_4 1_555 1_555
O14_4 C16_4 1_555 1_555
O67 C21_4 1_555 1_555
O69_2 C16_4 1_555 1_555
O18_4 C21_4 1_555 1_555
O21_4 Nd18 1_555 1_555
Nd13_2 O63_2 1_555 1_555
Nd13_2 O13_4 1_555 1_555
Nd13_2 O14_4 1_555 1_555
Nd18 O18_4 1_555 1_555
C29_4 H37_4 1_555 1_555
C31_4 C32_4 1_555 1_555
C32_4 H41_4 1_555 1_555
H42_4 C32_4 1_555 1_555
C33_4 C32_4 1_555 1_555
H43_4 C33_4 1_555 1_555
H44_4 C33_4 1_555 1_555
C34_4 C33_4 1_555 1_555
H45_4 C34_4 1_555 1_555
H46_4 C34_4 1_555 1_555
C35_4 C34_4 1_555 1_555
H48_4 C35_4 1_555 1_555
C36_4 C35_4 1_555 1_555
C43_4 C44_4 1_555 1_555
C44_4 H57_4 1_555 1_555
H58_4 C44_4 1_555 1_555
C45_4 C44_4 1_555 1_555
H59_4 C45_4 1_555 1_555
H60_4 C45_4 1_555 1_555
C46_4 C45_4 1_555 1_555
H61_4 C46_4 1_555 1_555
H62_4 C46_4 1_555 1_555
C47_4 C46_4 1_555 1_555
H63_4 C47_4 1_555 1_555
H64_4 C47_4 1_555 1_555
C48_4 C47_4 1_555 1_555
C49_4 C50_4 1_555 1_555
C50_4 H65_4 1_555 1_555
H66_4 C50_4 1_555 1_555
C51_4 C50_4 1_555 1_555
H67_4 C51_4 1_555 1_555
H68_4 C51_4 1_555 1_555
C52_4 C51_4 1_555 1_555
H69_4 C52_4 1_555 1_555
H70_4 C52_4 1_555 1_555
C53_4 C52_4 1_555 1_555
H71_4 C53_4 1_555 1_555
H72_4 C53_4 1_555 1_555
C54_4 C53_4 1_555 1_555
Nd14_2 O22_4 1_555 1_555
O44_2 C36_4 1_555 1_555
O48_2 C54_4 1_555 1_555
O50_2 C36_4 1_555 1_555
O58_2 C54_4 1_555 1_555
O30_2 C31_4 1_555 1_555
O62 C49_4 1_555 1_555
O33_2 C31_4 1_555 1_555
O66 C49_4 1_555 1_555
O36_4 C43_4 1_555 1_555
O68 C48_4 1_555 1_555
O38_2 C43_4 1_555 1_555
O39_4 C48_4 1_555 1_555
O42_4 Nd22 1_555 1_555
Nd11 O30_2 1_555 1_555
Nd14_2 O31_4 1_555 1_555
Nd14_2 O33_2 1_555 1_555
Nd14_2 O36_4 1_555 1_555
Nd22 O39_4 1_555 1_555
O33_2 Nd11 1_555 1_555
O38_2 Nd11 1_555 1_555
H39_4 C30_4 1_555 1_555
O23_4 C28_4 1_555 1_555
C37_4 C38_4 1_555 1_555
C38_4 H49_4 1_555 1_555
H50_4 C38_4 1_555 1_555
C39_4 C38_4 1_555 1_555
H51_4 C39_4 1_555 1_555
H52_4 C39_4 1_555 1_555
C40_4 C39_4 1_555 1_555
H53_4 C40_4 1_555 1_555
H54_4 C40_4 1_555 1_555
C41_4 C40_4 1_555 1_555
H55_4 C41_4 1_555 1_555
H56_4 C41_4 1_555 1_555
C42_4 C41_4 1_555 1_555
Nd11 O23_4 1_555 1_555
O46_2 C42_4 1_555 1_555
O53 C42_4 1_555 1_555
O34_4 C37_4 1_555 1_555
O40_4 Nd11 1_555 1_555
Nd11 O34_4 1_555 1_555

#END
