
###############################################################################
#
# This file contains modified crystal structure data generated from the
# MOF subset of the Cambridge Structural Database (CSD) v543 
# hosted by the Cambridge Crystallographic Data Centre (CCDC).
#
# This work is licensed under the Creative Commons
# Attribution-NonCommercial-ShareAlike 4.0 International License.
# To view a copy of this license, visit
# http://creativecommons.org/licenses/by-nc-sa/4.0/
# or send a letter to
# Creative Commons, PO Box 1866, Mountain View, CA 94042, USA.
#
# CIF created using the CSD Python API on 29 September 2022
# The structure has been converted into the P1 space group
# The structure has a 3D framework
# The original CSD entry KOFLEZ is in the rhombohedral crystal system
# The framework has been calculated to contain at least 10.0% void space
# The void calculation uses a probe of radius 1.32A, grid spacing 0.4
#
###############################################################################

data_KOFLEZ
_chemical_formula_moiety         '(C612 H504 N36 Ni24 O168 P30)n'
_symmetry_cell_setting           triclinic
_symmetry_space_group_name_H-M   'P 1'
_symmetry_Int_Tables_number      1
_space_group_name_Hall           'P 1'
loop_
_symmetry_equiv_pos_site_id
_symmetry_equiv_pos_as_xyz
1 x,y,z
_cell_length_a                   28.6944(4)
_cell_length_b                   28.6944(4)
_cell_length_c                   43.7355(6)
_cell_angle_alpha                90
_cell_angle_beta                 90
_cell_angle_gamma                120
_cell_volume                     31186
loop_
_atom_site_label
_atom_site_type_symbol
_atom_site_fract_x
_atom_site_fract_y
_atom_site_fract_z
P1 P 0.36963(3) 0.03661(4) 0.18944(2)
O1 O 0.34786(12) 0.00999(11) 0.15932(6)
C3 C 0.43536(15) 0.04433(15) 0.19571(8)
C4 C 0.34273(17) 0.00515(16) 0.24980(9)
H1 H 0.3740 0.0368 0.2550
C5 C 0.37677(14) 0.10231(15) 0.19269(8)
C8 C 0.38695(17) 0.20287(17) 0.19427(10)
C10 C 0.44405(15) 0.00600(18) 0.18232(9)
C11 C 0.3539(2) 0.16356(18) 0.21555(10)
H5 H 0.3353 0.1713 0.2302
C14 C 0.49335(17) 0.00904(17) 0.18785(10)
C15 C 0.41395(17) 0.19027(17) 0.17314(10)
H8 H 0.4364 0.2165 0.1592
C22 C 0.53140(16) 0.04840(15) 0.20635(9)
C25 C 0.34909(17) 0.11341(18) 0.21448(10)
H17 H 0.3272 0.0871 0.2285
C27 C 0.47303(17) 0.08446(17) 0.21411(10)
H20 H 0.4663 0.1103 0.2225
C28 C 0.40897(16) 0.14000(16) 0.17177(9)
H21 H 0.4271 0.1320 0.1569
C29 C 0.52089(16) 0.08580(16) 0.21998(10)
H22 H 0.5461 0.1117 0.2331
O7 O 0.59345(11) 0.02059(12) 0.19504(6)
O8 O 0.41641(12) 0.29069(12) 0.17450(7)
O9 O 0.61383(13) 0.07801(14) 0.23373(7)
O10 O 0.36396(13) 0.26368(14) 0.21586(8)
C30 C 0.58302(16) 0.04916(15) 0.21255(8)
H23 H 0.2685 0.0213 0.4277
C32 C 0.39026(17) 0.25661(17) 0.19421(11)
C33 C 0.3381(2) 0.0126(2) 0.39530(10)
H25 H 0.3713 0.0129 0.3908
H26 H 0.3453 0.0494 0.3940
Ni9 Ni 0.371805(28) 0.038921(19) 0.460303(10)
Ni11 Ni 0.372255(19) 0.33378(2) 0.206363(10)
Ni13 Ni 0.66622(2) 0.038471(28) 0.206363(10)
O38 O 0.25026(12) 0.04264(12) 0.15883(7)
O44 O 0.30271(13) 0.06965(14) 0.11747(8)
Ni1 Ni 0.294412(19) 0.99955(2) 0.126970(10)
Ni2 Ni 0.198325(16) 0.875653(16) 0.355538(8)
P2 P 0.3333 0.6667 0.39043(3)
C1 C 0.32881(13) 0.99497(14) 0.21953(9)
O2 O 0.23921(12) 0.90594(12) 0.31665(6)
O3 O 0.3333 0.6667 0.42441(10)
N1 N 0.25294(11) 0.92786(11) 0.38603(6)
C2 C 0.29669(14) 0.69646(15) 0.37478(8)
O4 O 0.19376(12) 0.84159(10) 0.28231(5)
O5 O 0.22310(12) 0.81815(11) 0.35459(7)
O6 O 0.17849(12) 0.75306(11) 0.32114(6)
C6 C 0.24972(15) 0.91226(16) 0.23502(8)
H2 H 0.2183 0.8807 0.2300
C7 C 0.22949(13) 0.88644(14) 0.28994(7)
C9 C 0.28074(14) 0.94682(15) 0.21239(8)
H3 H 0.2701 0.9386 0.1921
H4 H 0.4181 0.9791 0.1700
C12 C 0.24158(15) 0.74732(13) 0.35317(8)
C13 C 0.31281(17) 0.97095(17) 0.27253(8)
H6 H 0.3242 0.9789 0.2927
H7 H 0.5006 0.9840 0.1789
C16 C 0.27192(16) 0.76464(16) 0.38004(9)
H9 H 0.2748 0.7941 0.3906
C17 C 0.26494(13) 0.92393(13) 0.26554(7)
C18 C 0.22401(15) 0.94367(18) 0.40883(10)
H10 H 0.1984 0.9124 0.4204
H11 H 0.2045 0.9583 0.3983
C19 C 0.2954(2) 0.97809(19) 0.37104(9)
H12 H 0.2794 0.9981 0.3625
H13 H 0.3121 0.9691 0.3546
C20 C 0.21101(14) 0.77544(14) 0.34185(7)
C21 C 0.26691(19) 0.67903(17) 0.34797(10)
H14 H 0.2648 0.6500 0.3373
C23 C 0.24000(18) 0.70529(17) 0.33692(9)
H15 H 0.2211 0.6943 0.3186
C24 C 0.29706(15) 0.73892(16) 0.39075(8)
H16 H 0.3152 0.7497 0.4093
C26 C 0.27928(19) 0.90178(17) 0.40280(10)
H18 H 0.3012 0.8948 0.3887
H19 H 0.2519 0.8676 0.4111
N2 N 0.32153(14) 0.99338(11) 0.42577(6)
C31 C 0.26677(18) 0.98705(19) 0.43103(10)
H24 H 0.2559 0.9763 0.4520
C34 C 0.3143(2) 0.93775(19) 0.42856(12)
H27 H 0.2978 0.9222 0.4481
H28 H 0.3492 0.9401 0.4279
C35 C 0.30354(15) 0.60023(21) 0.37478(8)
O11 O 0.18185(11) 0.40495(16) 0.35459(7)
O12 O 0.24694(11) 0.42543(16) 0.32114(6)
C36 C 0.25268(13) 0.49426(20) 0.35317(8)
C37 C 0.23536(16) 0.50728(23) 0.38004(9)
H29 H 0.2059 0.4807 0.3906
C38 C 0.22456(14) 0.43557(20) 0.34185(7)
C39 C 0.32097(17) 0.58788(25) 0.34797(10)
H30 H 0.3500 0.6148 0.3373
C40 C 0.29471(17) 0.53471(25) 0.33692(9)
H31 H 0.3057 0.5268 0.3186
C41 C 0.26108(16) 0.55814(22) 0.39075(8)
H32 H 0.2503 0.5655 0.4093
C42 C 0.39977(21) 0.70331(14) 0.37478(8)
O13 O 0.59505(16) 0.77690(12) 0.35459(7)
O14 O 0.57457(16) 0.82151(12) 0.32114(6)
C43 C 0.50574(20) 0.75842(15) 0.35317(8)
C44 C 0.49272(23) 0.72808(16) 0.38004(9)
H33 H 0.5193 0.7252 0.3906
C45 C 0.56443(20) 0.78899(14) 0.34185(7)
C46 C 0.41212(25) 0.73309(19) 0.34797(10)
H34 H 0.3852 0.7352 0.3373
C47 C 0.46529(25) 0.76000(18) 0.33692(9)
H35 H 0.4732 0.7789 0.3186
C48 C 0.44186(22) 0.70294(15) 0.39075(8)
H36 H 0.4345 0.6848 0.4093
Ni3 Ni 0.00045(2) 0.294862(28) 0.126970(10)
Ni4 Ni 0.124347(16) 0.322672(23) 0.355538(8)
C49 C 0.00503(14) 0.33384(19) 0.21953(9)
O16 O 0.09406(12) 0.33327(17) 0.31665(6)
N3 N 0.07214(11) 0.32508(16) 0.38603(6)
O17 O 0.15841(10) 0.35217(16) 0.28231(5)
C53 C 0.08774(16) 0.33746(22) 0.23502(8)
H38 H 0.1193 0.3376 0.2300
C54 C 0.11356(14) 0.34305(19) 0.28994(7)
C56 C 0.05318(15) 0.33392(21) 0.21239(8)
H39 H 0.0614 0.3315 0.1921
H40 H 0.0209 0.4390 0.1700
C59 C 0.02905(17) 0.34186(24) 0.27253(8)
H42 H 0.0211 0.3453 0.2927
H43 H 0.0160 0.5166 0.1789
C62 C 0.07607(13) 0.34101(18) 0.26554(7)
C63 C 0.05633(18) 0.28034(23) 0.40883(10)
H45 H 0.0876 0.2860 0.4204
H46 H 0.0417 0.2462 0.3983
C64 C 0.02191(19) 0.31731(28) 0.37104(9)
H47 H 0.0019 0.2813 0.3625
H48 H 0.0309 0.3430 0.3546
C67 C 0.09822(17) 0.37750(25) 0.40280(10)
H50 H 0.1052 0.4064 0.3887
H51 H 0.1324 0.3843 0.4111
N4 N 0.00662(11) 0.32815(18) 0.42577(6)
C72 C 0.01295(19) 0.27972(26) 0.43103(10)
H56 H 0.0237 0.2796 0.4520
C75 C 0.06225(19) 0.37655(28) 0.42856(12)
H59 H 0.0778 0.3756 0.4481
H60 H 0.0599 0.4091 0.4279
Ni5 Ni 0.705138(28) 0.705588(19) 0.126970(10)
Ni6 Ni 0.677328(23) 0.801675(16) 0.355538(8)
P4 P 0.66698(5) 0.63037(3) 0.18944(2)
O22 O 0.66213(16) 0.65214(12) 0.15932(6)
C76 C 0.66616(19) 0.67119(13) 0.21953(9)
O23 O 0.66673(17) 0.76079(12) 0.31665(6)
N5 N 0.67492(16) 0.74706(11) 0.38603(6)
O24 O 0.64783(16) 0.80624(12) 0.28231(5)
C77 C 0.60897(21) 0.56464(15) 0.19571(8)
C78 C 0.66242(23) 0.65727(17) 0.24980(9)
H61 H 0.6628 0.6260 0.2550
C79 C 0.72554(21) 0.62323(14) 0.19269(8)
C80 C 0.66254(22) 0.75028(15) 0.23502(8)
H62 H 0.6624 0.7817 0.2300
C81 C 0.65695(19) 0.77051(13) 0.28994(7)
C82 C 0.81592(24) 0.61305(17) 0.19427(10)
C83 C 0.66608(21) 0.71926(14) 0.21239(8)
H63 H 0.6685 0.7299 0.1921
C84 C 0.56195(23) 0.55595(15) 0.18232(9)
H64 H 0.5610 0.5819 0.1700
C85 C 0.80966(27) 0.6461(2) 0.21555(10)
H65 H 0.8360 0.6647 0.2302
C86 C 0.65814(24) 0.68719(17) 0.27253(8)
H66 H 0.6547 0.6758 0.2927
C87 C 0.51569(24) 0.50665(17) 0.18785(10)
H67 H 0.4834 0.4994 0.1789
C88 C 0.77632(24) 0.58605(17) 0.17314(10)
H68 H 0.7801 0.5636 0.1592
C89 C 0.65899(18) 0.73506(13) 0.26554(7)
C90 C 0.71966(23) 0.77599(15) 0.40883(10)
H69 H 0.7140 0.8016 0.4204
H70 H 0.7538 0.7955 0.3983
C91 C 0.68269(28) 0.7046(2) 0.37104(9)
H71 H 0.7187 0.7206 0.3625
H72 H 0.6570 0.6879 0.3546
C92 C 0.51700(22) 0.46860(16) 0.20635(9)
C93 C 0.76432(25) 0.65091(17) 0.21448(10)
H73 H 0.7599 0.6728 0.2285
C94 C 0.62250(25) 0.72072(19) 0.40280(10)
H74 H 0.5936 0.6988 0.3887
H75 H 0.6157 0.7481 0.4111
C95 C 0.61143(24) 0.52697(17) 0.21411(10)
H76 H 0.6440 0.5337 0.2225
C96 C 0.73103(23) 0.59103(16) 0.17177(9)
H77 H 0.7049 0.5729 0.1569
C97 C 0.56491(23) 0.47911(16) 0.21998(10)
H78 H 0.5656 0.4539 0.2331
O25 O 0.42714(16) 0.40655(11) 0.19504(6)
N6 N 0.67185(18) 0.67847(14) 0.42577(6)
O26 O 0.87428(17) 0.58359(12) 0.17450(7)
O27 O 0.46418(19) 0.38617(13) 0.23373(7)
O28 O 0.89972(19) 0.63604(13) 0.21586(8)
C98 C 0.46614(22) 0.41698(16) 0.21255(8)
C99 C 0.72028(26) 0.73323(18) 0.43103(10)
H79 H 0.7528 0.7315 0.4277
H80 H 0.7204 0.7441 0.4520
C100 C 0.86635(24) 0.60974(17) 0.19421(11)
C101 C 0.6745(3) 0.6619(2) 0.39530(10)
H81 H 0.6416 0.6287 0.3908
H82 H 0.7041 0.6547 0.3940
C102 C 0.62345(28) 0.6857(2) 0.42856(12)
H83 H 0.6244 0.7022 0.4481
H84 H 0.5909 0.6508 0.4279
Ni8 Ni 0.66712(2) 0.628195(28) 0.460303(10)
Ni15 Ni 0.961529(28) 0.627745(19) 0.206363(10)
Ni16 Ni 0.135008(16) 0.791014(16) 0.311129(8)
Ni17 Ni 0.208986(16) 0.343995(23) 0.311129(8)
Ni18 Ni 0.656005(23) 0.864992(16) 0.311129(8)
O29 O 0.13957(12) 0.82508(10) 0.38436(5)
O30 O 0.17492(10) 0.31450(16) 0.38436(5)
O31 O 0.68550(16) 0.86043(12) 0.38436(5)
O32 O 0.15484(12) 0.91361(11) 0.34553(6)
O33 O 0.08639(11) 0.24124(16) 0.34553(6)
O34 O 0.75876(16) 0.84516(12) 0.34553(6)
O35 O 0.07322(11) 0.31274(12) 0.13829(6)
O36 O 0.68726(12) 0.76047(16) 0.13829(6)
O37 O 0.23953(16) 0.92678(11) 0.13829(6)
N7 N 0.65486(14) 0.66005(11) 0.09244(6)
N8 N 0.33995(11) 0.99482(18) 0.09244(6)
N9 N 0.00518(18) 0.34514(14) 0.09244(6)
O40 O 0.79239(17) 0.74974(12) 0.15883(7)
O41 O 0.05284(13) 0.25532(14) 0.09960(7)
O42 O 0.74468(14) 0.79751(19) 0.09960(7)
O43 O 0.20249(19) 0.94716(13) 0.09960(7)
O46 O 0.76695(19) 0.69729(13) 0.11747(8)
P3 P 0.96339(4) 0.33302(5) 0.18944(2)
O15 O 0.99001(11) 0.33787(16) 0.15932(6)
C50 C 0.95567(15) 0.39103(21) 0.19571(8)
C51 C 0.99485(16) 0.33758(23) 0.24980(9)
H37 H 0.9632 0.3372 0.2550
C52 C 0.89769(15) 0.27446(21) 0.19269(8)
C55 C 0.79713(17) 0.18408(24) 0.19427(10)
C57 C 0.99400(18) 0.43805(23) 0.18232(9)
C58 C 0.83644(18) 0.19034(27) 0.21555(10)
H41 H 0.8287 0.1640 0.2302
C60 C 0.99096(17) 0.48431(24) 0.18785(10)
C61 C 0.80973(17) 0.22368(24) 0.17314(10)
H44 H 0.7835 0.2199 0.1592
C65 C 0.95160(15) 0.48300(22) 0.20635(9)
C66 C 0.88659(18) 0.23568(25) 0.21448(10)
H49 H 0.9129 0.2401 0.2285
C68 C 0.91554(17) 0.38857(24) 0.21411(10)
H52 H 0.8897 0.3560 0.2225
C69 C 0.86000(16) 0.26897(23) 0.17177(9)
H53 H 0.8680 0.2951 0.1569
C70 C 0.91420(16) 0.43509(23) 0.21998(10)
H54 H 0.8883 0.4344 0.2331
O18 O 0.97941(12) 0.57286(16) 0.19504(6)
O19 O 0.70931(12) 0.12572(17) 0.17450(7)
O20 O 0.92199(14) 0.53582(19) 0.23373(7)
O21 O 0.73632(14) 0.10028(19) 0.21586(8)
C71 C 0.95084(15) 0.53386(22) 0.21255(8)
H55 H 0.9787 0.2472 0.4277
C73 C 0.74339(17) 0.13365(24) 0.19421(11)
C74 C 0.9874(2) 0.3255(3) 0.39530(10)
H57 H 0.9871 0.3584 0.3908
H58 H 0.9506 0.2959 0.3940
Ni7 Ni 0.961079(19) 0.33288(2) 0.460303(10)
O39 O 0.95736(12) 0.20761(17) 0.15883(7)
O45 O 0.93035(14) 0.23305(19) 0.11747(8)
P1_2 P 0.03630(3) 0.36994(4) 0.52277(2)
P2_2 P -0.0000 0.0000 0.72376(3)
O1_2 O 0.01453(12) 0.34332(11) 0.49265(6)
O3_2 O -0.0000 0.0000 0.75774(10)
C3_2 C 0.10203(15) 0.37766(15) 0.52904(8)
C4_2 C 0.00940(17) 0.33848(16) 0.58313(9)
H1_2 H 0.0407 0.3701 0.5883
C5_2 C 0.04344(14) 0.43564(15) 0.52602(8)
C8_2 C 0.05362(17) 0.53620(17) 0.52760(10)
C10_2 C 0.11072(15) 0.33933(18) 0.51565(9)
H4_2 H 0.0848 0.3124 0.5033
C11_2 C 0.0206(2) 0.49689(18) 0.54888(10)
H5_2 H 0.0020 0.5046 0.5635
C14_2 C 0.16002(17) 0.34237(17) 0.52118(10)
H7_2 H 0.1673 0.3173 0.5122
C15_2 C 0.08062(17) 0.52360(17) 0.50647(10)
H8_2 H 0.1031 0.5498 0.4925
C22_2 C 0.19807(16) 0.38173(15) 0.53968(9)
C25_2 C 0.01576(17) 0.44674(18) 0.54781(10)
C27_2 C 0.13970(17) 0.41779(17) 0.54744(10)
H20_2 H 0.1330 0.4436 0.5558
C28_2 C 0.07564(16) 0.47333(16) 0.50510(9)
H21_2 H 0.0938 0.4653 0.4902
C29_2 C 0.18756(16) 0.41913(16) 0.55331(10)
H22_2 H 0.2128 0.4450 0.5664
O7_2 O 0.26012(11) 0.35392(12) 0.52837(6)
O8_2 O 0.08308(12) 0.62402(12) 0.50783(7)
O9_2 O 0.28050(13) 0.41134(14) 0.56706(7)
O10_2 O 0.03063(13) 0.59701(14) 0.54919(8)
C30_2 C 0.24969(16) 0.38249(15) 0.54588(8)
C32_2 C 0.05693(17) 0.58994(17) 0.52754(11)
C33_2 C 0.0048(2) 0.3459(2) 0.72863(10)
H25_2 H 0.0380 0.3462 0.7241
H26_2 H 0.0120 0.3827 0.7273
H28_2 H 0.0159 0.2734 0.7612
C42_2 C 0.06644(21) 0.03664(14) 0.70811(8)
O13_2 O 0.26172(16) 0.11023(12) 0.68792(7)
O14_2 O 0.24124(16) 0.15484(12) 0.65447(6)
C43_2 C 0.17241(20) 0.09175(15) 0.68650(8)
C44_2 C 0.15939(23) 0.06141(16) 0.71337(9)
H33_2 H 0.1860 0.0585 0.7239
C45_2 C 0.23110(20) 0.12232(14) 0.67518(7)
C46_2 C 0.07879(25) 0.06642(19) 0.68130(10)
H34_2 H 0.0519 0.0685 0.6706
C47_2 C 0.13196(25) 0.09333(18) 0.67025(9)
H35_2 H 0.1399 0.1122 0.6519
C48_2 C 0.10853(22) 0.03627(15) 0.72408(8)
H36_2 H 0.1012 0.0181 0.7426
Ni6_2 Ni 0.343995(23) 0.135008(16) 0.688871(8)
C76_2 C 0.33283(19) 0.00452(13) 0.55286(9)
O23_2 O 0.33340(17) 0.09412(12) 0.64998(6)
N5_2 N 0.34159(16) 0.08039(11) 0.71936(6)
O24_2 O 0.31450(16) 0.13957(12) 0.61564(5)
C80_2 C 0.32921(22) 0.08361(15) 0.56835(8)
H62_2 H 0.3291 0.1150 0.5633
C81_2 C 0.32362(19) 0.10384(13) 0.62327(7)
C83_2 C 0.33275(21) 0.05259(14) 0.54572(8)
H63_2 H 0.3352 0.0632 0.5254
C86_2 C 0.32481(24) 0.02052(17) 0.60586(8)
H66_2 H 0.3214 0.0091 0.6260
C89_2 C 0.32566(18) 0.06839(13) 0.59887(7)
C90_2 C 0.38633(23) 0.10932(15) 0.74216(10)
H69_2 H 0.3807 0.1349 0.7537
H70_2 H 0.4205 0.1288 0.7316
C91_2 C 0.34936(28) 0.0379(2) 0.70437(9)
H71_2 H 0.3854 0.0539 0.6958
H72_2 H 0.3237 0.0212 0.6879
H73_2 H 0.4266 0.0061 0.5618
C94_2 C 0.28917(25) 0.05405(19) 0.73613(10)
H74_2 H 0.2603 0.0321 0.7220
H75_2 H 0.2824 0.0814 0.7444
N6_2 N 0.33852(18) 0.01180(14) 0.75910(6)
C99_2 C 0.38695(26) 0.06656(18) 0.76436(10)
H79_2 H 0.4195 0.0648 0.7610
H80_2 H 0.3871 0.0774 0.7853
C102_2 C 0.29012(28) 0.0190(2) 0.76189(12)
H83_2 H 0.2911 0.0355 0.7814
Ni9_2 Ni 0.038471(28) 0.372255(19) 0.793637(10)
Ni11_2 Ni 0.038921(19) 0.66712(2) 0.539697(10)
Ni13_2 Ni 0.33288(2) 0.371805(28) 0.539697(10)
Ni18_2 Ni 0.322672(23) 0.198325(16) 0.644462(8)
O31_2 O 0.35217(16) 0.19376(12) 0.71769(5)
O34_2 O 0.42543(16) 0.17849(12) 0.67886(6)
O36_2 O 0.35392(12) 0.09381(16) 0.47163(6)
O40_2 O 0.45905(17) 0.08308(12) 0.49217(7)
O42_2 O 0.41134(14) 0.13085(19) 0.43294(7)
O46_2 O 0.43361(19) 0.03063(13) 0.45081(8)
P2_3 P -0.0000 1.0000 0.72376(3)
O3_3 O -0.0000 1.0000 0.75774(10)
H30_2 H 0.0167 0.9481 0.6706
P4_2 P 0.33365(5) 0.96370(3) 0.52277(2)
O22_2 O 0.32880(16) 0.98547(12) 0.49265(6)
C77_2 C 0.27564(21) 0.89797(15) 0.52904(8)
C78_2 C 0.32909(23) 0.99060(17) 0.58313(9)
H61_2 H 0.3295 0.9593 0.5883
C79_2 C 0.39221(21) 0.95656(14) 0.52602(8)
C82_2 C 0.48259(24) 0.94638(17) 0.52760(10)
C84_2 C 0.22862(23) 0.88928(15) 0.51565(9)
H64_2 H 0.2277 0.9152 0.5033
C85_2 C 0.47633(27) 0.9794(2) 0.54888(10)
H65_2 H 0.5027 0.9980 0.5635
C87_2 C 0.18236(24) 0.83998(17) 0.52118(10)
H67_2 H 0.1501 0.8327 0.5122
C88_2 C 0.44299(24) 0.91938(17) 0.50647(10)
H68_2 H 0.4468 0.8969 0.4925
C92_2 C 0.18367(22) 0.80193(16) 0.53968(9)
C93_2 C 0.43099(25) 0.98424(17) 0.54781(10)
C95_2 C 0.27810(24) 0.86030(17) 0.54744(10)
H76_2 H 0.3107 0.8670 0.5558
C96_2 C 0.39770(23) 0.92436(16) 0.50510(9)
H77_2 H 0.3716 0.9062 0.4902
C97_2 C 0.23158(23) 0.81244(16) 0.55331(10)
H78_2 H 0.2323 0.7872 0.5664
O25_2 O 0.09381(16) 0.73988(11) 0.52837(6)
O26_2 O 0.54095(17) 0.91692(12) 0.50783(7)
O27_2 O 0.13085(19) 0.71950(13) 0.56706(7)
O28_2 O 0.56639(19) 0.96937(13) 0.54919(8)
C98_2 C 0.13281(22) 0.75031(16) 0.54588(8)
C100_2 C 0.53302(24) 0.94307(17) 0.52754(11)
C101_2 C 0.3412(3) 0.9952(2) 0.72863(10)
H81_2 H 0.3083 0.9620 0.7241
H82_2 H 0.3708 0.9880 0.7273
H84_2 H 0.2576 0.9841 0.7612
Ni8_2 Ni 0.33378(2) 0.961529(28) 0.793637(10)
Ni15_2 Ni 0.628195(28) 0.961079(19) 0.539697(10)
Ni2_2 Ni 0.864992(16) 0.208986(16) 0.688871(8)
P2_4 P 1.0000 0.0000 0.72376(3)
C1_2 C 0.99548(13) 0.32830(14) 0.55286(9)
O2_2 O 0.90588(12) 0.23927(12) 0.64998(6)
O3_4 O 1.0000 0.0000 0.75774(10)
N1_2 N 0.91961(11) 0.26119(11) 0.71936(6)
C2_2 C 0.96336(14) 0.02979(15) 0.70811(8)
O4_2 O 0.86043(12) 0.17492(10) 0.61564(5)
O5_2 O 0.88977(12) 0.15148(11) 0.68792(7)
O6_2 O 0.84516(12) 0.08639(11) 0.65447(6)
C6_2 C 0.91639(15) 0.24559(16) 0.56835(8)
H2_2 H 0.8850 0.2140 0.5633
C7_2 C 0.89616(13) 0.21977(14) 0.62327(7)
C9_2 C 0.94741(14) 0.28015(15) 0.54572(8)
H3_2 H 0.9368 0.2719 0.5254
C12_2 C 0.90825(15) 0.08065(13) 0.68650(8)
C13_2 C 0.97948(17) 0.30428(17) 0.60586(8)
H6_2 H 0.9909 0.3122 0.6260
C16_2 C 0.93859(16) 0.09797(16) 0.71337(9)
H9_2 H 0.9415 0.1274 0.7239
C17_2 C 0.93161(13) 0.25726(13) 0.59887(7)
C18_2 C 0.89068(15) 0.27700(18) 0.74216(10)
H10_2 H 0.8651 0.2457 0.7537
H11_2 H 0.8712 0.2916 0.7316
C19_2 C 0.9621(2) 0.31142(19) 0.70437(9)
H12_2 H 0.9461 0.3314 0.6958
H13_2 H 0.9788 0.3024 0.6879
C20_2 C 0.87768(14) 0.10877(14) 0.67518(7)
C21_2 C 0.93358(19) 0.01236(17) 0.68130(10)
C23_2 C 0.90667(18) 0.03862(17) 0.67025(9)
H15_2 H 0.8878 0.0276 0.6519
C24_2 C 0.96373(15) 0.07225(16) 0.72408(8)
H16_2 H 0.9819 0.0830 0.7426
H17_2 H 0.9939 0.4204 0.5618
C26_2 C 0.94595(19) 0.23511(17) 0.73613(10)
H18_2 H 0.9679 0.2281 0.7220
H19_2 H 0.9186 0.2009 0.7444
N2_2 N 0.98820(14) 0.32671(11) 0.75910(6)
C31_2 C 0.93344(18) 0.32038(19) 0.76436(10)
H23_2 H 0.9352 0.3546 0.7610
H24_2 H 0.9226 0.3096 0.7853
C34_2 C 0.9810(2) 0.27108(19) 0.76189(12)
H27_2 H 0.9645 0.2555 0.7814
Ni16_2 Ni 0.801675(16) 0.124347(16) 0.644462(8)
O29_2 O 0.80624(12) 0.15841(10) 0.71769(5)
O32_2 O 0.82151(12) 0.24694(11) 0.67886(6)
O37_2 O 0.90619(16) 0.26012(11) 0.47163(6)
O38_2 O 0.91692(12) 0.37598(12) 0.49217(7)
O43_2 O 0.86915(19) 0.28050(13) 0.43294(7)
O44_2 O 0.96937(13) 0.40299(14) 0.45081(8)
P2_5 P 1.0000 1.0000 0.72376(3)
O3_5 O 1.0000 1.0000 0.75774(10)
H14_2 H 0.9315 0.9833 0.6706
C35_2 C 0.97021(15) 0.93356(21) 0.70811(8)
O11_2 O 0.84852(11) 0.73828(16) 0.68792(7)
O12_2 O 0.91361(11) 0.75876(16) 0.65447(6)
C36_2 C 0.91935(13) 0.82759(20) 0.68650(8)
C37_2 C 0.90203(16) 0.84061(23) 0.71337(9)
H29_2 H 0.8726 0.8140 0.7239
C38_2 C 0.89123(14) 0.76890(20) 0.67518(7)
C39_2 C 0.98764(17) 0.92121(25) 0.68130(10)
C40_2 C 0.96138(17) 0.86804(25) 0.67025(9)
H31_2 H 0.9724 0.8601 0.6519
C41_2 C 0.92775(16) 0.89147(22) 0.72408(8)
H32_2 H 0.9170 0.8988 0.7426
Ni4_2 Ni 0.791014(16) 0.656005(23) 0.688871(8)
P3_2 P 0.63006(4) 0.66635(5) 0.52277(2)
O15_2 O 0.65668(11) 0.67120(16) 0.49265(6)
C49_2 C 0.67170(14) 0.66717(19) 0.55286(9)
O16_2 O 0.76073(12) 0.66660(17) 0.64998(6)
N3_2 N 0.73881(11) 0.65841(16) 0.71936(6)
O17_2 O 0.82508(10) 0.68550(16) 0.61564(5)
C50_2 C 0.62234(15) 0.72436(21) 0.52904(8)
C51_2 C 0.66152(16) 0.67091(23) 0.58313(9)
H37_2 H 0.6299 0.6705 0.5883
C52_2 C 0.56436(15) 0.60779(21) 0.52602(8)
C53_2 C 0.75441(16) 0.67079(22) 0.56835(8)
H38_2 H 0.7860 0.6709 0.5633
C54_2 C 0.78023(14) 0.67638(19) 0.62327(7)
C55_2 C 0.46380(17) 0.51741(24) 0.52760(10)
C56_2 C 0.71985(15) 0.66725(21) 0.54572(8)
H39_2 H 0.7281 0.6648 0.5254
C57_2 C 0.66067(18) 0.77138(23) 0.51565(9)
H40_2 H 0.6876 0.7723 0.5033
C58_2 C 0.50311(18) 0.52367(27) 0.54888(10)
H41_2 H 0.4954 0.4973 0.5635
C59_2 C 0.69572(17) 0.67519(24) 0.60586(8)
H42_2 H 0.6878 0.6786 0.6260
C60_2 C 0.65763(17) 0.81764(24) 0.52118(10)
H43_2 H 0.6827 0.8499 0.5122
C61_2 C 0.47640(17) 0.55701(24) 0.50647(10)
H44_2 H 0.4502 0.5532 0.4925
C62_2 C 0.74274(13) 0.67434(18) 0.59887(7)
C63_2 C 0.72300(18) 0.61367(23) 0.74216(10)
H45_2 H 0.7543 0.6193 0.7537
H46_2 H 0.7084 0.5795 0.7316
C64_2 C 0.68858(19) 0.65064(28) 0.70437(9)
H47_2 H 0.6686 0.6146 0.6958
H48_2 H 0.6976 0.6763 0.6879
C65_2 C 0.61827(15) 0.81633(22) 0.53968(9)
C66_2 C 0.55326(18) 0.56901(25) 0.54781(10)
H49_2 H 0.5796 0.5734 0.5618
C67_2 C 0.76489(17) 0.71083(25) 0.73613(10)
H50_2 H 0.7719 0.7397 0.7220
H51_2 H 0.7991 0.7176 0.7444
C68_2 C 0.58221(17) 0.72190(24) 0.54744(10)
H52_2 H 0.5564 0.6893 0.5558
C69_2 C 0.52667(16) 0.60230(23) 0.50510(9)
H53_2 H 0.5347 0.6284 0.4902
C70_2 C 0.58087(16) 0.76842(23) 0.55331(10)
H54_2 H 0.5550 0.7677 0.5664
O18_2 O 0.64608(12) 0.90619(16) 0.52837(6)
N4_2 N 0.67329(11) 0.66148(18) 0.75910(6)
O19_2 O 0.37598(12) 0.45905(17) 0.50783(7)
O20_2 O 0.58866(14) 0.86915(19) 0.56706(7)
O21_2 O 0.40299(14) 0.43361(19) 0.54919(8)
C71_2 C 0.61751(15) 0.86719(22) 0.54588(8)
C72_2 C 0.67962(19) 0.61305(26) 0.76436(10)
H55_2 H 0.6454 0.5805 0.7610
H56_2 H 0.6904 0.6129 0.7853
C73_2 C 0.41006(17) 0.46698(24) 0.52754(11)
C74_2 C 0.6541(2) 0.6588(3) 0.72863(10)
H57_2 H 0.6538 0.6917 0.7241
H58_2 H 0.6173 0.6292 0.7273
C75_2 C 0.72892(19) 0.70988(28) 0.76189(12)
H59_2 H 0.7445 0.7089 0.7814
H60_2 H 0.7266 0.7424 0.7612
Ni7_2 Ni 0.627745(19) 0.66622(2) 0.793637(10)
Ni17_2 Ni 0.875653(16) 0.677328(23) 0.644462(8)
O30_2 O 0.84159(10) 0.64783(16) 0.71769(5)
O33_2 O 0.75306(11) 0.57457(16) 0.67886(6)
O35_2 O 0.73988(11) 0.64608(12) 0.47163(6)
O39_2 O 0.62402(12) 0.54095(17) 0.49217(7)
O41_2 O 0.71950(13) 0.58866(14) 0.43294(7)
O45_2 O 0.59701(14) 0.56639(19) 0.45081(8)
Ni6_3 Ni 0.010661(23) 0.468342(16) 0.022205(8)
N5_3 N 0.00825(16) 0.41373(11) 0.05270(6)
C90_3 C 0.05299(23) 0.44266(15) 0.07550(10)
H69_3 H 0.0473 0.4683 0.0871
H70_3 H 0.0871 0.4622 0.0650
C91_3 C 0.01602(28) 0.3713(2) 0.03771(9)
H71_3 H 0.0520 0.3873 0.0292
C99_3 C 0.05361(26) 0.39990(18) 0.09770(10)
H79_3 H 0.0861 0.3982 0.0944
H80_3 H 0.0537 0.4108 0.1187
C101_3 C 0.0078(3) 0.3286(2) 0.06197(10)
H82_3 H 0.0374 0.3214 0.0607
O31_3 O 0.01884(16) 0.52709(12) 0.05102(5)
O34_3 O 0.09210(16) 0.51182(12) 0.01219(6)
P4_3 P 0.00031(5) 0.29704(3) 0.85611(2)
O23_3 O 0.00006(17) 0.42746(12) 0.98332(6)
C79_3 C 0.05887(21) 0.28990(14) 0.85936(8)
C82_3 C 0.14925(24) 0.27972(17) 0.86094(10)
H63_3 H 0.0018 0.3966 0.8588
C85_3 C 0.14299(27) 0.3128(2) 0.88222(10)
H65_3 H 0.1693 0.3314 0.8969
C88_3 C 0.10965(24) 0.25272(17) 0.83981(10)
H68_3 H 0.1134 0.2303 0.8259
C93_3 C 0.09765(25) 0.31758(17) 0.88115(10)
H73_3 H 0.0932 0.3395 0.8952
C96_3 C 0.06436(23) 0.25770(16) 0.83844(9)
H77_3 H 0.0382 0.2396 0.8236
O26_3 O 0.20761(17) 0.25026(12) 0.84117(7)
O28_3 O 0.23305(19) 0.30271(13) 0.88253(8)
C100_3 C 0.19968(24) 0.27641(17) 0.86088(11)
Ni15_3 Ni 0.294862(28) 0.294412(19) 0.873030(10)
O36_3 O 0.02059(12) 0.42714(16) 0.80496(6)
O40_3 O 0.12572(17) 0.41641(12) 0.82550(7)
O42_3 O 0.07801(14) 0.46418(19) 0.76627(7)
O46_3 O 0.10028(19) 0.36396(13) 0.78414(8)
Ni11_3 Ni 0.705588(19) 0.00045(2) 0.873030(10)
Ni2_3 Ni 0.531658(16) 0.542320(16) 0.022205(8)
P2_6 P 0.6666 0.3334 0.05710(3)
O3_6 O 0.6666 0.3334 0.09108(10)
N1_3 N 0.58627(11) 0.59453(11) 0.05270(6)
C2_3 C 0.63002(14) 0.36313(15) 0.04145(8)
O5_3 O 0.55643(12) 0.48482(11) 0.02126(7)
C12_3 C 0.57491(15) 0.41399(13) 0.01984(8)
C16_3 C 0.60525(16) 0.43131(16) 0.04671(9)
H9_3 H 0.6081 0.4608 0.0573
C18_3 C 0.55734(15) 0.61034(18) 0.07550(10)
H10_3 H 0.5317 0.5791 0.0871
H11_3 H 0.5378 0.6250 0.0650
C19_3 C 0.6287(2) 0.64476(19) 0.03771(9)
H12_3 H 0.6127 0.6648 0.0292
H13_3 H 0.6454 0.6358 0.0213
C20_3 C 0.54434(14) 0.44211(14) 0.00852(7)
C21_3 C 0.60024(19) 0.34570(17) 0.01464(10)
H14_3 H 0.5981 0.3167 0.0040
C23_3 C 0.57333(18) 0.37196(17) 0.00359(9)
C24_3 C 0.63039(15) 0.40559(16) 0.05742(8)
H16_3 H 0.6485 0.4164 0.0760
C26_3 C 0.61261(19) 0.56845(17) 0.06947(10)
H18_3 H 0.6345 0.5615 0.0554
H19_3 H 0.5852 0.5343 0.0778
C31_3 C 0.60010(18) 0.65372(19) 0.09770(10)
H23_3 H 0.6018 0.6880 0.0944
H24_3 H 0.5892 0.6430 0.1187
C33_3 C 0.6714(2) 0.6793(2) 0.06197(10)
H25_3 H 0.7046 0.6796 0.0575
H26_3 H 0.6786 0.7161 0.0607
C34_3 C 0.6476(2) 0.60442(19) 0.09523(12)
H27_3 H 0.6311 0.5889 0.1148
H28_3 H 0.6825 0.6068 0.0946
C35_3 C 0.63687(15) 0.26690(21) 0.04145(8)
O11_3 O 0.51518(11) 0.07162(16) 0.02126(7)
C36_3 C 0.58601(13) 0.16093(20) 0.01984(8)
C37_3 C 0.56869(16) 0.17395(23) 0.04671(9)
H29_3 H 0.5392 0.1474 0.0573
C38_3 C 0.55789(14) 0.10224(20) 0.00852(7)
C39_3 C 0.65430(17) 0.25455(25) 0.01464(10)
H30_3 H 0.6833 0.2815 0.0040
C40_3 C 0.62804(17) 0.20138(25) 0.00359(9)
C41_3 C 0.59441(16) 0.22481(22) 0.05742(8)
H32_3 H 0.5836 0.2322 0.0760
C42_3 C 0.73310(21) 0.36998(14) 0.04145(8)
O13_3 O 0.92838(16) 0.44357(12) 0.02126(7)
C43_3 C 0.83907(20) 0.42509(15) 0.01984(8)
C44_3 C 0.82605(23) 0.39475(16) 0.04671(9)
H33_3 H 0.8526 0.3919 0.0573
C45_3 C 0.89776(20) 0.45566(14) 0.00852(7)
C46_3 C 0.74545(25) 0.39976(19) 0.01464(10)
H34_3 H 0.7185 0.4019 0.0040
C47_3 C 0.79862(25) 0.42667(18) 0.00359(9)
C48_3 C 0.77519(22) 0.36961(15) 0.05742(8)
H36_3 H 0.7678 0.3515 0.0760
H48_3 H 0.3642 0.0097 0.0213
C67_3 C 0.43155(17) 0.04417(25) 0.06947(10)
H50_3 H 0.4385 0.0731 0.0554
H51_3 H 0.4657 0.0510 0.0778
H57_3 H 0.3204 0.0251 0.0575
C75_3 C 0.39558(19) 0.04322(28) 0.09523(12)
H59_3 H 0.4111 0.0423 0.1148
H60_3 H 0.3932 0.0758 0.0946
H72_3 H 0.9903 0.3546 0.0213
C94_3 C 0.95583(25) 0.38739(19) 0.06947(10)
H74_3 H 0.9269 0.3655 0.0554
H75_3 H 0.9490 0.4148 0.0778
H81_3 H 0.9749 0.2954 0.0575
C102_3 C 0.95678(28) 0.3524(2) 0.09523(12)
H83_3 H 0.9577 0.3689 0.1148
H84_3 H 0.9242 0.3175 0.0946
O29_3 O 0.47291(12) 0.49174(10) 0.05102(5)
O32_3 O 0.48818(12) 0.58027(11) 0.01219(6)
P1_3 P 0.70296(3) 0.70328(4) 0.85611(2)
O1_3 O 0.68119(12) 0.67666(11) 0.82599(6)
C1_3 C 0.66214(13) 0.66164(14) 0.88620(9)
O2_3 O 0.57254(12) 0.57261(12) 0.98332(6)
O4_3 O 0.52709(12) 0.50826(10) 0.94898(5)
C3_3 C 0.76869(15) 0.71100(15) 0.86238(8)
C4_3 C 0.67606(17) 0.67182(16) 0.91647(9)
H1_3 H 0.7073 0.7035 0.9217
C5_3 C 0.71010(14) 0.76898(15) 0.85936(8)
O6_3 O 0.51182(12) 0.41973(11) 0.98781(6)
C6_3 C 0.58305(15) 0.57893(16) 0.90169(8)
H2_3 H 0.5516 0.5474 0.8967
C7_3 C 0.56282(13) 0.55311(14) 0.95661(7)
C8_3 C 0.72028(17) 0.86954(17) 0.86094(10)
C9_3 C 0.61407(14) 0.61349(15) 0.87906(8)
H3_3 H 0.6034 0.6053 0.8588
C10_3 C 0.77738(15) 0.67267(18) 0.84899(9)
H4_3 H 0.7514 0.6458 0.8367
C11_3 C 0.6872(2) 0.83023(18) 0.88222(10)
H5_3 H 0.6686 0.8380 0.8969
C13_3 C 0.64614(17) 0.63762(17) 0.93920(8)
H6_3 H 0.6575 0.6456 0.9594
C14_3 C 0.82668(17) 0.67571(17) 0.85452(10)
H7_3 H 0.8339 0.6507 0.8456
C15_3 C 0.74728(17) 0.85694(17) 0.83981(10)
H8_3 H 0.7697 0.8832 0.8259
C17_3 C 0.59827(13) 0.59060(13) 0.93221(7)
C22_3 C 0.86473(16) 0.71507(15) 0.87302(9)
H15_3 H 0.5544 0.3610 0.9853
C25_3 C 0.68242(17) 0.78008(18) 0.88115(10)
H17_3 H 0.6605 0.7538 0.8952
C27_3 C 0.80636(17) 0.75113(17) 0.88078(10)
H20_3 H 0.7996 0.7770 0.8892
C28_3 C 0.74230(16) 0.80667(16) 0.83844(9)
H21_3 H 0.7604 0.7987 0.8236
C29_3 C 0.85422(16) 0.75247(16) 0.88665(10)
H22_3 H 0.8794 0.7784 0.8998
O7_3 O 0.92678(11) 0.68726(12) 0.86171(6)
O8_3 O 0.74974(12) 0.95736(12) 0.84117(7)
O9_3 O 0.94716(13) 0.74468(14) 0.90040(7)
O10_3 O 0.69729(13) 0.93035(14) 0.88253(8)
C30_3 C 0.91635(16) 0.71583(15) 0.87922(8)
C32_3 C 0.72359(17) 0.92328(17) 0.86088(11)
O12_3 O 0.58027(11) 0.09210(16) 0.98781(6)
H31_3 H 0.6390 0.1935 0.9853
O14_3 O 0.90790(16) 0.48818(12) 0.98781(6)
H35_3 H 0.8065 0.4456 0.9853
O15_3 O 0.32334(11) 0.00454(16) 0.82599(6)
C49_3 C 0.33836(14) 0.00051(19) 0.88620(9)
O17_3 O 0.49174(10) 0.01884(16) 0.94898(5)
C50_3 C 0.28900(15) 0.05770(21) 0.86238(8)
C51_3 C 0.32818(16) 0.00425(23) 0.91647(9)
H37_3 H 0.2965 0.0039 0.9217
C53_3 C 0.42107(16) 0.00413(22) 0.90169(8)
H38_3 H 0.4526 0.0043 0.8967
C54_3 C 0.44689(14) 0.00972(19) 0.95661(7)
C56_3 C 0.38651(15) 0.00059(21) 0.87906(8)
C57_3 C 0.32733(18) 0.10472(23) 0.84899(9)
H40_3 H 0.3542 0.1057 0.8367
C59_3 C 0.36238(17) 0.00853(24) 0.93920(8)
H42_3 H 0.3544 0.0120 0.9594
C60_3 C 0.32429(17) 0.15098(24) 0.85452(10)
H43_3 H 0.3493 0.1833 0.8456
C62_3 C 0.40940(13) 0.00768(18) 0.93221(7)
C65_3 C 0.28493(15) 0.14967(22) 0.87302(9)
C68_3 C 0.24887(17) 0.05524(24) 0.88078(10)
H52_3 H 0.2230 0.0227 0.8892
C70_3 C 0.24753(16) 0.10176(23) 0.88665(10)
H54_3 H 0.2216 0.1011 0.8998
O18_3 O 0.31274(12) 0.23953(16) 0.86171(6)
O20_3 O 0.25532(14) 0.20249(19) 0.90040(7)
C71_3 C 0.28417(15) 0.20053(22) 0.87922(8)
O22_3 O 0.99546(16) 0.31881(12) 0.82599(6)
C76_3 C 0.99949(19) 0.33786(13) 0.88620(9)
O24_3 O 0.98116(16) 0.47291(12) 0.94898(5)
C77_3 C 0.94230(21) 0.23131(15) 0.86238(8)
C78_3 C 0.99575(23) 0.32394(17) 0.91647(9)
H61_3 H 0.9961 0.2927 0.9217
C80_3 C 0.99587(22) 0.41695(15) 0.90169(8)
H62_3 H 0.9957 0.4484 0.8967
C81_3 C 0.99028(19) 0.43718(13) 0.95661(7)
C83_3 C 0.99941(21) 0.38593(14) 0.87906(8)
C84_3 C 0.89528(23) 0.22262(15) 0.84899(9)
H64_3 H 0.8943 0.2486 0.8367
C86_3 C 0.99147(24) 0.35386(17) 0.93920(8)
H66_3 H 0.9880 0.3425 0.9594
C87_3 C 0.84902(24) 0.17332(17) 0.85452(10)
H67_3 H 0.8167 0.1661 0.8456
C89_3 C 0.99232(18) 0.40173(13) 0.93221(7)
C92_3 C 0.85033(22) 0.13527(16) 0.87302(9)
C95_3 C 0.94476(24) 0.19364(17) 0.88078(10)
H76_3 H 0.9773 0.2004 0.8892
C97_3 C 0.89824(23) 0.14578(16) 0.88665(10)
H78_3 H 0.8989 0.1206 0.8998
O25_3 O 0.76047(16) 0.07322(11) 0.86171(6)
O27_3 O 0.79751(19) 0.05284(13) 0.90040(7)
C98_3 C 0.79947(22) 0.08365(16) 0.87922(8)
Ni13_3 Ni 0.99955(2) 0.705138(28) 0.873030(10)
Ni16_3 Ni 0.468342(16) 0.457680(16) 0.977795(8)
Ni17_3 Ni 0.542320(16) 0.010661(23) 0.977795(8)
Ni18_3 Ni 0.989339(23) 0.531658(16) 0.977795(8)
O37_3 O 0.57286(16) 0.59345(11) 0.80496(6)
O38_3 O 0.58359(12) 0.70931(12) 0.82550(7)
O43_3 O 0.53582(19) 0.61383(13) 0.76627(7)
O44_3 O 0.63604(13) 0.73632(14) 0.78414(8)
Ni4_3 Ni 0.457680(16) 0.989339(23) 0.022205(8)
N3_3 N 0.40547(11) 0.99175(16) 0.05270(6)
C63_3 C 0.38966(18) 0.94701(23) 0.07550(10)
H45_3 H 0.4209 0.9527 0.0871
H46_3 H 0.3750 0.9129 0.0650
C64_3 C 0.35524(19) 0.98398(28) 0.03771(9)
H47_3 H 0.3352 0.9480 0.0292
C72_3 C 0.34628(19) 0.94639(26) 0.09770(10)
H55_3 H 0.3120 0.9139 0.0944
H56_3 H 0.3570 0.9463 0.1187
C74_3 C 0.3207(2) 0.9922(3) 0.06197(10)
H58_3 H 0.2839 0.9626 0.0607
O30_3 O 0.50826(10) 0.98116(16) 0.05102(5)
O33_3 O 0.41973(11) 0.90790(16) 0.01219(6)
P3_3 P 0.29672(4) 0.99969(5) 0.85611(2)
O16_3 O 0.42739(12) 0.99994(17) 0.98332(6)
C52_3 C 0.23102(15) 0.94113(21) 0.85936(8)
C55_3 C 0.13046(17) 0.85075(24) 0.86094(10)
H39_3 H 0.3947 0.9982 0.8588
C58_3 C 0.16977(18) 0.85701(27) 0.88222(10)
H41_3 H 0.1620 0.8307 0.8969
C61_3 C 0.14306(17) 0.89035(24) 0.83981(10)
H44_3 H 0.1168 0.8866 0.8259
C66_3 C 0.21992(18) 0.90235(25) 0.88115(10)
H49_3 H 0.2462 0.9068 0.8952
C69_3 C 0.19333(16) 0.93564(23) 0.83844(9)
H53_3 H 0.2013 0.9618 0.8236
O19_3 O 0.04264(12) 0.79239(17) 0.84117(7)
O21_3 O 0.06965(14) 0.76695(19) 0.88253(8)
C73_3 C 0.07672(17) 0.80032(24) 0.86088(11)
O35_3 O 0.40655(11) 0.97941(12) 0.80496(6)
O39_3 O 0.29069(12) 0.87428(17) 0.82550(7)
O41_3 O 0.38617(13) 0.92199(14) 0.76627(7)
O45_3 O 0.26368(14) 0.89972(19) 0.78414(8)
P3_4 P 0.03661(4) 0.66698(5) 0.81056(2)
O15_4 O 0.00999(11) 0.66213(16) 0.84068(6)
C50_4 C 0.04433(15) 0.60897(21) 0.80429(8)
C51_4 C 0.00515(16) 0.66242(23) 0.75020(9)
H37_4 H 0.0368 0.6628 0.7450
C52_4 C 0.10231(15) 0.72554(21) 0.80731(8)
C55_4 C 0.20287(17) 0.81592(24) 0.80573(10)
C57_4 C 0.00600(18) 0.56195(23) 0.81768(9)
C58_4 C 0.16356(18) 0.80966(27) 0.78445(10)
H41_4 H 0.1713 0.8360 0.7698
C60_4 C 0.00904(17) 0.51569(24) 0.81215(10)
C61_4 C 0.19027(17) 0.77632(24) 0.82686(10)
H44_4 H 0.2165 0.7801 0.8408
C65_4 C 0.04840(15) 0.51700(22) 0.79365(9)
C66_4 C 0.11341(18) 0.76432(25) 0.78552(10)
H49_4 H 0.0871 0.7599 0.7715
C68_4 C 0.08446(17) 0.61143(24) 0.78589(10)
H52_4 H 0.1103 0.6440 0.7775
C69_4 C 0.14000(16) 0.73103(23) 0.82823(9)
H53_4 H 0.1320 0.7049 0.8431
C70_4 C 0.08580(16) 0.56491(23) 0.78002(10)
H54_4 H 0.1117 0.5656 0.7669
C71_4 C 0.04916(15) 0.46614(22) 0.78745(8)
H55_4 H 0.0213 0.7528 0.5723
C73_4 C 0.25661(17) 0.86635(24) 0.80579(11)
C74_4 C 0.0126(2) 0.6745(3) 0.60470(10)
H57_4 H 0.0129 0.6416 0.6092
H58_4 H 0.0494 0.7041 0.6060
P2_7 P 0.6667 0.3333 0.60957(3)
C1_4 C 0.67119(13) 0.00503(14) 0.78047(9)
O2_4 O 0.76079(12) 0.09406(12) 0.68335(6)
O3_7 O 0.6667 0.3333 0.57559(10)
N1_4 N 0.74706(11) 0.07214(11) 0.61397(6)
C2_4 C 0.70331(14) 0.30354(15) 0.62522(8)
O5_4 O 0.77690(12) 0.18185(11) 0.64541(7)
C6_4 C 0.75028(15) 0.08774(16) 0.76498(8)
H2_4 H 0.7817 0.1193 0.7700
C7_4 C 0.77051(13) 0.11356(14) 0.71006(7)
C9_4 C 0.71926(14) 0.05318(15) 0.78761(8)
H3_4 H 0.7299 0.0614 0.8079
H4_4 H 0.5819 0.0209 0.8300
C12_4 C 0.75842(15) 0.25268(13) 0.64683(8)
C13_4 C 0.68719(17) 0.02905(17) 0.72747(8)
H6_4 H 0.6758 0.0211 0.7073
H7_4 H 0.4994 0.0160 0.8211
C16_4 C 0.72808(16) 0.23536(16) 0.61996(9)
H9_4 H 0.7252 0.2059 0.6094
C17_4 C 0.73506(13) 0.07607(13) 0.73446(7)
C18_4 C 0.77599(15) 0.05633(18) 0.59117(10)
H10_4 H 0.8016 0.0876 0.5796
H11_4 H 0.7955 0.0417 0.6017
C19_4 C 0.7046(2) 0.02191(19) 0.62896(9)
H12_4 H 0.7206 0.0019 0.6375
H13_4 H 0.6879 0.0309 0.6454
C20_4 C 0.78899(14) 0.22456(14) 0.65815(7)
C21_4 C 0.73309(19) 0.32097(17) 0.65203(10)
H14_4 H 0.7352 0.3500 0.6627
C23_4 C 0.76000(18) 0.29471(17) 0.66308(9)
H15_4 H 0.7789 0.3057 0.6814
C24_4 C 0.70294(15) 0.26108(16) 0.60925(8)
H16_4 H 0.6848 0.2503 0.5907
C26_4 C 0.72072(19) 0.09822(17) 0.59720(10)
H18_4 H 0.6988 0.1052 0.6113
H19_4 H 0.7481 0.1324 0.5889
N2_3 N 0.67847(14) 0.00662(11) 0.57423(6)
C31_4 C 0.73323(18) 0.01295(19) 0.56897(10)
H24_4 H 0.7441 0.0237 0.5480
C34_4 C 0.6857(2) 0.06225(19) 0.57144(12)
H27_4 H 0.7022 0.0778 0.5519
H28_4 H 0.6508 0.0599 0.5721
C35_4 C 0.69646(15) 0.39977(21) 0.62522(8)
O11_4 O 0.81815(11) 0.59505(16) 0.64541(7)
C36_4 C 0.74732(13) 0.50574(20) 0.64683(8)
C37_4 C 0.76464(16) 0.49272(23) 0.61996(9)
H29_4 H 0.7941 0.5193 0.6094
C38_4 C 0.77544(14) 0.56443(20) 0.65815(7)
C39_4 C 0.67903(17) 0.41212(25) 0.65203(10)
H30_4 H 0.6500 0.3852 0.6627
C40_4 C 0.70529(17) 0.46529(25) 0.66308(9)
H31_4 H 0.6943 0.4732 0.6814
C41_4 C 0.73892(16) 0.44186(22) 0.60925(8)
H32_4 H 0.7497 0.4345 0.5907
C42_4 C 0.60023(21) 0.29669(14) 0.62522(8)
O13_4 O 0.40495(16) 0.22310(12) 0.64541(7)
C43_4 C 0.49426(20) 0.24158(15) 0.64683(8)
C44_4 C 0.50728(23) 0.27192(16) 0.61996(9)
H33_4 H 0.4807 0.2748 0.6094
C45_4 C 0.43557(20) 0.21101(14) 0.65815(7)
C46_4 C 0.58788(25) 0.26691(19) 0.65203(10)
H34_4 H 0.6148 0.2648 0.6627
C47_4 C 0.53471(25) 0.24000(18) 0.66308(9)
H35_4 H 0.5268 0.2211 0.6814
C48_4 C 0.55814(22) 0.29706(15) 0.60925(8)
H36_4 H 0.5655 0.3152 0.5907
C49_4 C 0.99497(14) 0.66616(19) 0.78047(9)
O16_4 O 0.90594(12) 0.66673(17) 0.68335(6)
N3_4 N 0.92786(11) 0.67492(16) 0.61397(6)
C53_4 C 0.91226(16) 0.66254(22) 0.76498(8)
H38_4 H 0.8807 0.6624 0.7700
C54_4 C 0.88644(14) 0.65695(19) 0.71006(7)
C56_4 C 0.94682(15) 0.66608(21) 0.78761(8)
H39_4 H 0.9386 0.6685 0.8079
H40_4 H 0.9791 0.5610 0.8300
C59_4 C 0.97095(17) 0.65814(24) 0.72747(8)
H42_4 H 0.9789 0.6547 0.7073
H43_4 H 0.9840 0.4834 0.8211
C62_4 C 0.92393(13) 0.65899(18) 0.73446(7)
C63_4 C 0.94367(18) 0.71966(23) 0.59117(10)
H45_4 H 0.9124 0.7140 0.5796
H46_4 H 0.9583 0.7538 0.6017
C64_4 C 0.97809(19) 0.68269(28) 0.62896(9)
H47_4 H 0.9981 0.7187 0.6375
H48_4 H 0.9691 0.6570 0.6454
C67_4 C 0.90178(17) 0.62250(25) 0.59720(10)
H50_4 H 0.8948 0.5936 0.6113
H51_4 H 0.8676 0.6157 0.5889
N4_3 N 0.99338(11) 0.67185(18) 0.57423(6)
C72_4 C 0.98705(19) 0.72028(26) 0.56897(10)
H56_4 H 0.9763 0.7204 0.5480
C75_4 C 0.93775(19) 0.62345(28) 0.57144(12)
H59_4 H 0.9222 0.6244 0.5519
H60_4 H 0.9401 0.5909 0.5721
P4_4 P 0.33302(5) 0.36963(3) 0.81056(2)
O22_4 O 0.33787(16) 0.34786(12) 0.84068(6)
C76_4 C 0.33384(19) 0.32881(13) 0.78047(9)
O23_4 O 0.33327(17) 0.23921(12) 0.68335(6)
N5_4 N 0.32508(16) 0.25294(11) 0.61397(6)
C77_4 C 0.39103(21) 0.43536(15) 0.80429(8)
C78_4 C 0.33758(23) 0.34273(17) 0.75020(9)
H61_4 H 0.3372 0.3740 0.7450
C79_4 C 0.27446(21) 0.37677(14) 0.80731(8)
C80_4 C 0.33746(22) 0.24972(15) 0.76498(8)
H62_4 H 0.3376 0.2183 0.7700
C81_4 C 0.34305(19) 0.22949(13) 0.71006(7)
C82_4 C 0.18408(24) 0.38695(17) 0.80573(10)
C83_4 C 0.33392(21) 0.28074(14) 0.78761(8)
H63_4 H 0.3315 0.2701 0.8079
C84_4 C 0.43805(23) 0.44405(15) 0.81768(9)
H64_4 H 0.4390 0.4181 0.8300
C85_4 C 0.19034(27) 0.3539(2) 0.78445(10)
H65_4 H 0.1640 0.3353 0.7698
C86_4 C 0.34186(24) 0.31281(17) 0.72747(8)
H66_4 H 0.3453 0.3242 0.7073
C87_4 C 0.48431(24) 0.49335(17) 0.81215(10)
H67_4 H 0.5166 0.5006 0.8211
C88_4 C 0.22368(24) 0.41395(17) 0.82686(10)
H68_4 H 0.2199 0.4364 0.8408
C89_4 C 0.34101(18) 0.26494(13) 0.73446(7)
C90_4 C 0.28034(23) 0.22401(15) 0.59117(10)
H69_4 H 0.2860 0.1984 0.5796
H70_4 H 0.2462 0.2045 0.6017
C91_4 C 0.31731(28) 0.2954(2) 0.62896(9)
H71_4 H 0.2813 0.2794 0.6375
H72_4 H 0.3430 0.3121 0.6454
C92_4 C 0.48300(22) 0.53140(16) 0.79365(9)
C93_4 C 0.23568(25) 0.34909(17) 0.78552(10)
H73_4 H 0.2401 0.3272 0.7715
C94_4 C 0.37750(25) 0.27928(19) 0.59720(10)
H74_4 H 0.4064 0.3012 0.6113
H75_4 H 0.3843 0.2519 0.5889
C95_4 C 0.38857(24) 0.47303(17) 0.78589(10)
H76_4 H 0.3560 0.4663 0.7775
C96_4 C 0.26897(23) 0.40897(16) 0.82823(9)
H77_4 H 0.2951 0.4271 0.8431
C97_4 C 0.43509(23) 0.52089(16) 0.78002(10)
H78_4 H 0.4344 0.5461 0.7669
N6_3 N 0.32815(18) 0.32153(14) 0.57423(6)
C98_4 C 0.53386(22) 0.58302(16) 0.78745(8)
C99_4 C 0.27972(26) 0.26677(18) 0.56897(10)
H79_4 H 0.2472 0.2685 0.5723
H80_4 H 0.2796 0.2559 0.5480
C100_4 C 0.13365(24) 0.39026(17) 0.80579(11)
C101_4 C 0.3255(3) 0.3381(2) 0.60470(10)
H81_4 H 0.3584 0.3713 0.6092
H82_4 H 0.2959 0.3453 0.6060
C102_4 C 0.37655(28) 0.3143(2) 0.57144(12)
H83_4 H 0.3756 0.2978 0.5519
H84_4 H 0.4091 0.3492 0.5721
N7_2 N 0.34514(14) 0.33995(11) 0.90756(6)
N8_2 N 0.66005(11) 0.00518(18) 0.90756(6)
N9_2 N 0.99482(18) 0.65486(14) 0.90756(6)
P1_4 P 0.63037(3) 0.96339(4) 0.81056(2)
O1_4 O 0.65214(12) 0.99001(11) 0.84068(6)
C3_4 C 0.56464(15) 0.95567(15) 0.80429(8)
C4_4 C 0.65727(17) 0.99485(16) 0.75020(9)
H1_4 H 0.6260 0.9632 0.7450
C5_4 C 0.62323(14) 0.89769(15) 0.80731(8)
C8_4 C 0.61305(17) 0.79713(17) 0.80573(10)
C10_4 C 0.55595(15) 0.99400(18) 0.81768(9)
C11_4 C 0.6461(2) 0.83644(18) 0.78445(10)
H5_4 H 0.6647 0.8287 0.7698
C14_4 C 0.50665(17) 0.99096(17) 0.81215(10)
C15_4 C 0.58605(17) 0.80973(17) 0.82686(10)
H8_4 H 0.5636 0.7835 0.8408
C22_4 C 0.46860(16) 0.95160(15) 0.79365(9)
C25_4 C 0.65091(17) 0.88659(18) 0.78552(10)
H17_4 H 0.6728 0.9129 0.7715
C27_4 C 0.52697(17) 0.91554(17) 0.78589(10)
H20_4 H 0.5337 0.8897 0.7775
C28_4 C 0.59103(16) 0.86000(16) 0.82823(9)
H21_4 H 0.5729 0.8680 0.8431
C29_4 C 0.47911(16) 0.91420(16) 0.78002(10)
H22_4 H 0.4539 0.8883 0.7669
C30_4 C 0.41698(16) 0.95084(15) 0.78745(8)
H23_4 H 0.7315 0.9787 0.5723
C32_4 C 0.60974(17) 0.74339(17) 0.80579(11)
C33_4 C 0.6619(2) 0.9874(2) 0.60470(10)
H25_4 H 0.6287 0.9871 0.6092
H26_4 H 0.6547 0.9506 0.6060
P2_8 P 0.0000 -0.0000 0.27624(3)
O3_8 O 0.0000 -0.0000 0.24226(10)
H14_5 H 0.0685 0.0167 0.3294
C35_5 C 0.02979(15) 0.06644(21) 0.29189(8)
O11_5 O 0.15148(11) 0.26172(16) 0.31208(7)
C36_5 C 0.08065(13) 0.17241(20) 0.31350(8)
C37_5 C 0.09797(16) 0.15939(23) 0.28663(9)
H29_5 H 0.1274 0.1860 0.2761
C38_5 C 0.10877(14) 0.23110(20) 0.32482(7)
C39_5 C 0.01236(17) 0.07879(25) 0.31870(10)
C40_5 C 0.03862(17) 0.13196(25) 0.32975(9)
H31_5 H 0.0276 0.1399 0.3481
C41_5 C 0.07225(16) 0.10853(22) 0.27592(8)
H32_5 H 0.0830 0.1012 0.2574
P3_5 P 0.36994(4) 0.33365(5) 0.47723(2)
O15_5 O 0.34332(11) 0.32880(16) 0.50735(6)
C49_5 C 0.32830(14) 0.33283(19) 0.44714(9)
O16_5 O 0.23927(12) 0.33340(17) 0.35002(6)
N3_5 N 0.26119(11) 0.34159(16) 0.28064(6)
C50_5 C 0.37766(15) 0.27564(21) 0.47096(8)
C51_5 C 0.33848(16) 0.32909(23) 0.41687(9)
H37_5 H 0.3701 0.3295 0.4117
C52_5 C 0.43564(15) 0.39221(21) 0.47398(8)
C53_5 C 0.24559(16) 0.32921(22) 0.43165(8)
H38_5 H 0.2140 0.3291 0.4367
C54_5 C 0.21977(14) 0.32362(19) 0.37673(7)
C55_5 C 0.53620(17) 0.48259(24) 0.47240(10)
C56_5 C 0.28015(15) 0.33275(21) 0.45428(8)
H39_5 H 0.2719 0.3352 0.4746
C57_5 C 0.33933(18) 0.22862(23) 0.48435(9)
H40_5 H 0.3124 0.2277 0.4967
C58_5 C 0.49689(18) 0.47633(27) 0.45112(10)
H41_5 H 0.5046 0.5027 0.4365
C59_5 C 0.30428(17) 0.32481(24) 0.39414(8)
H42_5 H 0.3122 0.3214 0.3740
C60_5 C 0.34237(17) 0.18236(24) 0.47882(10)
H43_5 H 0.3173 0.1501 0.4878
C61_5 C 0.52360(17) 0.44299(24) 0.49353(10)
H44_5 H 0.5498 0.4468 0.5075
C62_5 C 0.25726(13) 0.32566(18) 0.40113(7)
C63_5 C 0.27700(18) 0.38633(23) 0.25784(10)
H45_5 H 0.2457 0.3807 0.2463
H46_5 H 0.2916 0.4205 0.2684
C64_5 C 0.31142(19) 0.34936(28) 0.29563(9)
H47_5 H 0.3314 0.3854 0.3042
H48_5 H 0.3024 0.3237 0.3121
C65_5 C 0.38173(15) 0.18367(22) 0.46032(9)
C66_5 C 0.44674(18) 0.43099(25) 0.45219(10)
H49_5 H 0.4204 0.4266 0.4382
C67_5 C 0.23511(17) 0.28917(25) 0.26387(10)
H50_5 H 0.2281 0.2603 0.2780
H51_5 H 0.2009 0.2824 0.2556
C68_5 C 0.41779(17) 0.27810(24) 0.45256(10)
H52_5 H 0.4436 0.3107 0.4442
C69_5 C 0.47333(16) 0.39770(23) 0.49490(9)
H53_5 H 0.4653 0.3716 0.5098
C70_5 C 0.41913(16) 0.23158(23) 0.44669(10)
H54_5 H 0.4450 0.2323 0.4336
N4_4 N 0.32671(11) 0.33852(18) 0.24090(6)
C71_5 C 0.38249(15) 0.13281(22) 0.45412(8)
C72_5 C 0.32038(19) 0.38695(26) 0.23564(10)
H55_5 H 0.3546 0.4195 0.2390
H56_5 H 0.3096 0.3871 0.2147
C73_5 C 0.58994(17) 0.53302(24) 0.47246(11)
C74_5 C 0.3459(2) 0.3412(3) 0.27137(10)
H57_5 H 0.3462 0.3083 0.2759
H58_5 H 0.3827 0.3708 0.2727
C75_5 C 0.27108(19) 0.29012(28) 0.23811(12)
H59_5 H 0.2555 0.2911 0.2186
H60_5 H 0.2734 0.2576 0.2388
P2_9 P 0.0000 1.0000 0.27624(3)
C1_5 C 0.00452(13) 0.67170(14) 0.44714(9)
O2_5 O 0.09412(12) 0.76073(12) 0.35002(6)
O3_9 O 0.0000 1.0000 0.24226(10)
N1_5 N 0.08039(11) 0.73881(11) 0.28064(6)
C2_5 C 0.03664(14) 0.97021(15) 0.29189(8)
O5_5 O 0.11023(12) 0.84852(11) 0.31208(7)
C6_5 C 0.08361(15) 0.75441(16) 0.43165(8)
H2_5 H 0.1150 0.7860 0.4367
C7_5 C 0.10384(13) 0.78023(14) 0.37673(7)
C9_5 C 0.05259(14) 0.71985(15) 0.45428(8)
H3_5 H 0.0632 0.7281 0.4746
C12_5 C 0.09175(15) 0.91935(13) 0.31350(8)
C13_5 C 0.02052(17) 0.69572(17) 0.39414(8)
H6_5 H 0.0091 0.6878 0.3740
C16_5 C 0.06141(16) 0.90203(16) 0.28663(9)
H9_5 H 0.0585 0.8726 0.2761
C17_5 C 0.06839(13) 0.74274(13) 0.40113(7)
C18_5 C 0.10932(15) 0.72300(18) 0.25784(10)
H10_5 H 0.1349 0.7543 0.2463
H11_5 H 0.1288 0.7084 0.2684
C19_5 C 0.0379(2) 0.68858(19) 0.29563(9)
H12_5 H 0.0539 0.6686 0.3042
H13_5 H 0.0212 0.6976 0.3121
C20_5 C 0.12232(14) 0.89123(14) 0.32482(7)
C21_5 C 0.06642(19) 0.98764(17) 0.31870(10)
C23_5 C 0.09333(18) 0.96138(17) 0.32975(9)
H15_5 H 0.1122 0.9724 0.3481
C24_5 C 0.03627(15) 0.92775(16) 0.27592(8)
H16_5 H 0.0181 0.9170 0.2574
H17_5 H 0.0061 0.5796 0.4382
C26_5 C 0.05405(19) 0.76489(17) 0.26387(10)
H18_5 H 0.0321 0.7719 0.2780
H19_5 H 0.0814 0.7991 0.2556
N2_4 N 0.01180(14) 0.67329(11) 0.24090(6)
C31_5 C 0.06656(18) 0.67962(19) 0.23564(10)
H23_5 H 0.0648 0.6454 0.2390
H24_5 H 0.0774 0.6904 0.2147
C34_5 C 0.0190(2) 0.72892(19) 0.23811(12)
H27_5 H 0.0355 0.7445 0.2186
P2_10 P 1.0000 -0.0000 0.27624(3)
O3_10 O 1.0000 -0.0000 0.24226(10)
H30_5 H 0.9833 0.0519 0.3294
P4_5 P 0.66635(5) 0.03630(3) 0.47723(2)
O22_5 O 0.67120(16) 0.01453(12) 0.50735(6)
C77_5 C 0.72436(21) 0.10203(15) 0.47096(8)
C78_5 C 0.67091(23) 0.00940(17) 0.41687(9)
H61_5 H 0.6705 0.0407 0.4117
C79_5 C 0.60779(21) 0.04344(14) 0.47398(8)
C82_5 C 0.51741(24) 0.05362(17) 0.47240(10)
C84_5 C 0.77138(23) 0.11072(15) 0.48435(9)
H64_5 H 0.7723 0.0848 0.4967
C85_5 C 0.52367(27) 0.0206(2) 0.45112(10)
H65_5 H 0.4973 0.0020 0.4365
C87_5 C 0.81764(24) 0.16002(17) 0.47882(10)
H67_5 H 0.8499 0.1673 0.4878
C88_5 C 0.55701(24) 0.08062(17) 0.49353(10)
H68_5 H 0.5532 0.1031 0.5075
C92_5 C 0.81633(22) 0.19807(16) 0.46032(9)
C93_5 C 0.56901(25) 0.01576(17) 0.45219(10)
C95_5 C 0.72190(24) 0.13970(17) 0.45256(10)
H76_5 H 0.6893 0.1330 0.4442
C96_5 C 0.60230(23) 0.07564(16) 0.49490(9)
H77_5 H 0.6284 0.0938 0.5098
C97_5 C 0.76842(23) 0.18756(16) 0.44669(10)
H78_5 H 0.7677 0.2128 0.4336
C98_5 C 0.86719(22) 0.24969(16) 0.45412(8)
C100_5 C 0.46698(24) 0.05693(17) 0.47246(11)
C101_5 C 0.6588(3) 0.0048(2) 0.27137(10)
H81_5 H 0.6917 0.0380 0.2759
H82_5 H 0.6292 0.0120 0.2727
H84_5 H 0.7424 0.0159 0.2388
P1_5 P 0.96370(3) 0.63006(4) 0.47723(2)
P2_11 P 1.0000 1.0000 0.27624(3)
O1_5 O 0.98547(12) 0.65668(11) 0.50735(6)
O3_11 O 1.0000 1.0000 0.24226(10)
C3_5 C 0.89797(15) 0.62234(15) 0.47096(8)
C4_5 C 0.99060(17) 0.66152(16) 0.41687(9)
H1_5 H 0.9593 0.6299 0.4117
C5_5 C 0.95656(14) 0.56436(15) 0.47398(8)
C8_5 C 0.94638(17) 0.46380(17) 0.47240(10)
C10_5 C 0.88928(15) 0.66067(18) 0.48435(9)
H4_5 H 0.9152 0.6876 0.4967
C11_5 C 0.9794(2) 0.50311(18) 0.45112(10)
H5_5 H 0.9980 0.4954 0.4365
C14_5 C 0.83998(17) 0.65763(17) 0.47882(10)
H7_5 H 0.8327 0.6827 0.4878
C15_5 C 0.91938(17) 0.47640(17) 0.49353(10)
H8_5 H 0.8969 0.4502 0.5075
C22_5 C 0.80193(16) 0.61827(15) 0.46032(9)
C25_5 C 0.98424(17) 0.55326(18) 0.45219(10)
C27_5 C 0.86030(17) 0.58221(17) 0.45256(10)
H20_5 H 0.8670 0.5564 0.4442
C28_5 C 0.92436(16) 0.52667(16) 0.49490(9)
H21_5 H 0.9062 0.5347 0.5098
C29_5 C 0.81244(16) 0.58087(16) 0.44669(10)
H22_5 H 0.7872 0.5550 0.4336
C30_5 C 0.75031(16) 0.61751(15) 0.45412(8)
C32_5 C 0.94307(17) 0.41006(17) 0.47246(11)
C33_5 C 0.9952(2) 0.6541(2) 0.27137(10)
H25_5 H 0.9620 0.6538 0.2759
H26_5 H 0.9880 0.6173 0.2727
H28_5 H 0.9841 0.7266 0.2388
C42_5 C 0.93356(21) 0.96336(14) 0.29189(8)
O13_5 O 0.73828(16) 0.88977(12) 0.31208(7)
C43_5 C 0.82759(20) 0.90825(15) 0.31350(8)
C44_5 C 0.84061(23) 0.93859(16) 0.28663(9)
H33_5 H 0.8140 0.9415 0.2761
C45_5 C 0.76890(20) 0.87768(14) 0.32482(7)
C46_5 C 0.92121(25) 0.93358(19) 0.31870(10)
H34_5 H 0.9481 0.9315 0.3294
C47_5 C 0.86804(25) 0.90667(18) 0.32975(9)
H35_5 H 0.8601 0.8878 0.3481
C48_5 C 0.89147(22) 0.96373(15) 0.27592(8)
H36_5 H 0.8988 0.9819 0.2574
C76_5 C 0.66717(19) 0.99548(13) 0.44714(9)
O23_5 O 0.66660(17) 0.90588(12) 0.35002(6)
N5_5 N 0.65841(16) 0.91961(11) 0.28064(6)
C80_5 C 0.67079(22) 0.91639(15) 0.43165(8)
H62_5 H 0.6709 0.8850 0.4367
C81_5 C 0.67638(19) 0.89616(13) 0.37673(7)
C83_5 C 0.66725(21) 0.94741(14) 0.45428(8)
H63_5 H 0.6648 0.9368 0.4746
C86_5 C 0.67519(24) 0.97948(17) 0.39414(8)
H66_5 H 0.6786 0.9909 0.3740
C89_5 C 0.67434(18) 0.93161(13) 0.40113(7)
C90_5 C 0.61367(23) 0.89068(15) 0.25784(10)
H69_5 H 0.6193 0.8651 0.2463
H70_5 H 0.5795 0.8712 0.2684
C91_5 C 0.65064(28) 0.9621(2) 0.29563(9)
H71_5 H 0.6146 0.9461 0.3042
H72_5 H 0.6763 0.9788 0.3121
H73_5 H 0.5734 0.9939 0.4382
C94_5 C 0.71083(25) 0.94595(19) 0.26387(10)
H74_5 H 0.7397 0.9679 0.2780
H75_5 H 0.7176 0.9186 0.2556
N6_4 N 0.66148(18) 0.98820(14) 0.24090(6)
C99_5 C 0.61305(26) 0.93344(18) 0.23564(10)
H79_5 H 0.5805 0.9352 0.2390
H80_5 H 0.6129 0.9226 0.2147
C102_5 C 0.70988(28) 0.9810(2) 0.23811(12)
H83_5 H 0.7089 0.9645 0.2186
P3_6 P 0.70328(4) 0.00031(5) 0.14389(2)
O16_6 O 0.57261(12) 0.00006(17) 0.01668(6)
C52_6 C 0.76898(15) 0.05887(21) 0.14064(8)
C55_6 C 0.86954(17) 0.14925(24) 0.13906(10)
H39_6 H 0.6053 0.0018 0.1412
C58_6 C 0.83023(18) 0.14299(27) 0.11778(10)
H41_6 H 0.8380 0.1693 0.1031
C61_6 C 0.85694(17) 0.10965(24) 0.16019(10)
H44_6 H 0.8832 0.1134 0.1741
C66_6 C 0.78008(18) 0.09765(25) 0.11885(10)
H49_6 H 0.7538 0.0932 0.1048
C69_6 C 0.80667(16) 0.06436(23) 0.16156(9)
H53_6 H 0.7987 0.0382 0.1764
C73_6 C 0.92328(17) 0.19968(24) 0.13912(11)
N3_6 N 0.59453(11) 0.00825(16) 0.94730(6)
C63_6 C 0.61034(18) 0.05299(23) 0.92450(10)
H45_6 H 0.5791 0.0473 0.9129
H46_6 H 0.6250 0.0871 0.9350
C64_6 C 0.64476(19) 0.01602(28) 0.96229(9)
H47_6 H 0.6648 0.0520 0.9708
C72_6 C 0.65372(19) 0.05361(26) 0.90230(10)
H55_6 H 0.6880 0.0861 0.9056
H56_6 H 0.6430 0.0537 0.8813
C74_6 C 0.6793(2) 0.0078(3) 0.93803(10)
H58_6 H 0.7161 0.0374 0.9393
P1_6 P 0.29704(3) 0.29672(4) 0.14389(2)
O1_6 O 0.31881(12) 0.32334(11) 0.17401(6)
C1_6 C 0.33786(13) 0.33836(14) 0.11380(9)
O2_6 O 0.42746(12) 0.42739(12) 0.01668(6)
C3_6 C 0.23131(15) 0.28900(15) 0.13762(8)
C4_6 C 0.32394(17) 0.32818(16) 0.08353(9)
H1_6 H 0.2927 0.2965 0.0783
C5_6 C 0.28990(14) 0.23102(15) 0.14064(8)
C6_6 C 0.41695(15) 0.42107(16) 0.09831(8)
H2_6 H 0.4484 0.4526 0.1033
C7_6 C 0.43718(13) 0.44689(14) 0.04339(7)
C8_6 C 0.27972(17) 0.13046(17) 0.13906(10)
C9_6 C 0.38593(14) 0.38651(15) 0.12094(8)
H3_6 H 0.3966 0.3947 0.1412
C10_6 C 0.22262(15) 0.32733(18) 0.15101(9)
H4_6 H 0.2486 0.3542 0.1633
C11_6 C 0.3128(2) 0.16977(18) 0.11778(10)
H5_6 H 0.3314 0.1620 0.1031
C13_6 C 0.35386(17) 0.36238(17) 0.06080(8)
H6_6 H 0.3425 0.3544 0.0406
C14_6 C 0.17332(17) 0.32429(17) 0.14548(10)
H7_6 H 0.1661 0.3493 0.1544
C15_6 C 0.25272(17) 0.14306(17) 0.16019(10)
H8_6 H 0.2303 0.1168 0.1741
C17_6 C 0.40173(13) 0.40940(13) 0.06779(7)
C22_6 C 0.13527(16) 0.28493(15) 0.12698(9)
H15_6 H 0.4456 0.6390 0.0147
C25_6 C 0.31758(17) 0.21992(18) 0.11885(10)
H17_6 H 0.3395 0.2462 0.1048
C27_6 C 0.19364(17) 0.24887(17) 0.11922(10)
H20_6 H 0.2004 0.2230 0.1108
C28_6 C 0.25770(16) 0.19333(16) 0.16156(9)
H21_6 H 0.2396 0.2013 0.1764
C29_6 C 0.14578(16) 0.24753(16) 0.11335(10)
H22_6 H 0.1206 0.2216 0.1002
C30_6 C 0.08365(16) 0.28417(15) 0.12078(8)
C32_6 C 0.27641(17) 0.07672(17) 0.13912(11)
H31_6 H 0.3610 0.8065 0.0147
H35_6 H 0.1935 0.5544 0.0147
O15_6 O 0.67666(11) 0.99546(16) 0.17401(6)
C49_6 C 0.66164(14) 0.99949(19) 0.11380(9)
C50_6 C 0.71100(15) 0.94230(21) 0.13762(8)
C51_6 C 0.67182(16) 0.99575(23) 0.08353(9)
H37_6 H 0.7035 0.9961 0.0783
C53_6 C 0.57893(16) 0.99587(22) 0.09831(8)
H38_6 H 0.5474 0.9957 0.1033
C54_6 C 0.55311(14) 0.99028(19) 0.04339(7)
C56_6 C 0.61349(15) 0.99941(21) 0.12094(8)
C57_6 C 0.67267(18) 0.89528(23) 0.15101(9)
H40_6 H 0.6458 0.8943 0.1633
C59_6 C 0.63762(17) 0.99147(24) 0.06080(8)
H42_6 H 0.6456 0.9880 0.0406
C60_6 C 0.67571(17) 0.84902(24) 0.14548(10)
H43_6 H 0.6507 0.8167 0.1544
C62_6 C 0.59060(13) 0.99232(18) 0.06779(7)
C65_6 C 0.71507(15) 0.85033(22) 0.12698(9)
C68_6 C 0.75113(17) 0.94476(24) 0.11922(10)
H52_6 H 0.7770 0.9773 0.1108
C70_6 C 0.75247(16) 0.89824(23) 0.11335(10)
H54_6 H 0.7784 0.8989 0.1002
C71_6 C 0.71583(15) 0.79947(22) 0.12078(8)
O22_6 O 0.00454(16) 0.68119(12) 0.17401(6)
C76_6 C 0.00051(19) 0.66214(13) 0.11380(9)
C77_6 C 0.05770(21) 0.76869(15) 0.13762(8)
C78_6 C 0.00425(23) 0.67606(17) 0.08353(9)
H61_6 H 0.0039 0.7073 0.0783
C80_6 C 0.00413(22) 0.58305(15) 0.09831(8)
H62_6 H 0.0043 0.5516 0.1033
C81_6 C 0.00972(19) 0.56282(13) 0.04339(7)
C83_6 C 0.00059(21) 0.61407(14) 0.12094(8)
C84_6 C 0.10472(23) 0.77738(15) 0.15101(9)
H64_6 H 0.1057 0.7514 0.1633
C86_6 C 0.00853(24) 0.64614(17) 0.06080(8)
H66_6 H 0.0120 0.6575 0.0406
C87_6 C 0.15098(24) 0.82668(17) 0.14548(10)
H67_6 H 0.1833 0.8339 0.1544
C89_6 C 0.00768(18) 0.59827(13) 0.06779(7)
C92_6 C 0.14967(22) 0.86473(16) 0.12698(9)
C95_6 C 0.05524(24) 0.80636(17) 0.11922(10)
H76_6 H 0.0227 0.7996 0.1108
C97_6 C 0.10176(23) 0.85422(16) 0.11335(10)
H78_6 H 0.1011 0.8794 0.1002
C98_6 C 0.20053(22) 0.91635(16) 0.12078(8)
P2_12 P 0.3334 0.6666 0.94290(3)
O3_12 O 0.3334 0.6666 0.90892(10)
N1_6 N 0.41373(11) 0.40547(11) 0.94730(6)
C2_6 C 0.36998(14) 0.63687(15) 0.95855(8)
O5_6 O 0.44357(12) 0.51518(11) 0.97874(7)
C12_6 C 0.42509(15) 0.58601(13) 0.98016(8)
C16_6 C 0.39475(16) 0.56869(16) 0.95329(9)
H9_6 H 0.3919 0.5392 0.9427
C18_6 C 0.44266(15) 0.38966(18) 0.92450(10)
H10_6 H 0.4683 0.4209 0.9129
H11_6 H 0.4622 0.3750 0.9350
C19_6 C 0.3713(2) 0.35524(19) 0.96229(9)
H12_6 H 0.3873 0.3352 0.9708
H13_6 H 0.3546 0.3642 0.9787
C20_6 C 0.45566(14) 0.55789(14) 0.99148(7)
C21_6 C 0.39976(19) 0.65430(17) 0.98536(10)
H14_6 H 0.4019 0.6833 0.9960
C23_6 C 0.42667(18) 0.62804(17) 0.99641(9)
C24_6 C 0.36961(15) 0.59441(16) 0.94258(8)
H16_6 H 0.3515 0.5836 0.9240
C26_6 C 0.38739(19) 0.43155(17) 0.93053(10)
H18_6 H 0.3655 0.4385 0.9446
H19_6 H 0.4148 0.4657 0.9222
C31_6 C 0.39990(18) 0.34628(19) 0.90230(10)
H23_6 H 0.3982 0.3120 0.9056
H24_6 H 0.4108 0.3570 0.8813
C33_6 C 0.3286(2) 0.3207(2) 0.93803(10)
H25_6 H 0.2954 0.3204 0.9425
H26_6 H 0.3214 0.2839 0.9393
C34_6 C 0.3524(2) 0.39558(19) 0.90477(12)
H27_6 H 0.3689 0.4111 0.8852
H28_6 H 0.3175 0.3932 0.9054
C35_6 C 0.36313(15) 0.73310(21) 0.95855(8)
O11_6 O 0.48482(11) 0.92838(16) 0.97874(7)
C36_6 C 0.41399(13) 0.83907(20) 0.98016(8)
C37_6 C 0.43131(16) 0.82605(23) 0.95329(9)
H29_6 H 0.4608 0.8526 0.9427
C38_6 C 0.44211(14) 0.89776(20) 0.99148(7)
C39_6 C 0.34570(17) 0.74545(25) 0.98536(10)
H30_6 H 0.3167 0.7185 0.9960
C40_6 C 0.37196(17) 0.79862(25) 0.99641(9)
C41_6 C 0.40559(16) 0.77519(22) 0.94258(8)
H32_6 H 0.4164 0.7678 0.9240
C42_6 C 0.26690(21) 0.63002(14) 0.95855(8)
O13_6 O 0.07162(16) 0.55643(12) 0.97874(7)
C43_6 C 0.16093(20) 0.57491(15) 0.98016(8)
C44_6 C 0.17395(23) 0.60525(16) 0.95329(9)
H33_6 H 0.1474 0.6081 0.9427
C45_6 C 0.10224(20) 0.54434(14) 0.99148(7)
C46_6 C 0.25455(25) 0.60024(19) 0.98536(10)
H34_6 H 0.2815 0.5981 0.9960
C47_6 C 0.20138(25) 0.57333(18) 0.99641(9)
C48_6 C 0.22481(22) 0.63039(15) 0.94258(8)
H36_6 H 0.2322 0.6485 0.9240
H48_6 H 0.6358 0.9903 0.9787
C67_6 C 0.56845(17) 0.95583(25) 0.93053(10)
H50_6 H 0.5615 0.9269 0.9446
H51_6 H 0.5343 0.9490 0.9222
H57_6 H 0.6796 0.9749 0.9425
C75_6 C 0.60442(19) 0.95678(28) 0.90477(12)
H59_6 H 0.5889 0.9577 0.8852
H60_6 H 0.6068 0.9242 0.9054
H72_6 H 0.0097 0.6454 0.9787
C94_6 C 0.04417(25) 0.61261(19) 0.93053(10)
H74_6 H 0.0731 0.6345 0.9446
H75_6 H 0.0510 0.5852 0.9222
H81_6 H 0.0251 0.7046 0.9425
C102_6 C 0.04322(28) 0.6476(2) 0.90477(12)
H83_6 H 0.0423 0.6311 0.8852
H84_6 H 0.0758 0.6825 0.9054
P4_6 P 0.99969(5) 0.70296(3) 0.14389(2)
O23_6 O 0.99994(17) 0.57254(12) 0.01668(6)
C79_6 C 0.94113(21) 0.71010(14) 0.14064(8)
C82_6 C 0.85075(24) 0.72028(17) 0.13906(10)
H63_6 H 0.9982 0.6034 0.1412
C85_6 C 0.85701(27) 0.6872(2) 0.11778(10)
H65_6 H 0.8307 0.6686 0.1031
C88_6 C 0.89035(24) 0.74728(17) 0.16019(10)
H68_6 H 0.8866 0.7697 0.1741
C93_6 C 0.90235(25) 0.68242(17) 0.11885(10)
H73_6 H 0.9068 0.6605 0.1048
C96_6 C 0.93564(23) 0.74230(16) 0.16156(9)
H77_6 H 0.9618 0.7604 0.1764
C100_6 C 0.80032(24) 0.72359(17) 0.13912(11)
N5_6 N 0.99175(16) 0.58627(11) 0.94730(6)
C90_6 C 0.94701(23) 0.55734(15) 0.92450(10)
H69_6 H 0.9527 0.5317 0.9129
H70_6 H 0.9129 0.5378 0.9350
C91_6 C 0.98398(28) 0.6287(2) 0.96229(9)
H71_6 H 0.9480 0.6127 0.9708
C99_6 C 0.94639(26) 0.60010(18) 0.90230(10)
H79_6 H 0.9139 0.6018 0.9056
H80_6 H 0.9463 0.5892 0.8813
C101_6 C 0.9922(3) 0.6714(2) 0.93803(10)
H82_6 H 0.9626 0.6786 0.9393
loop_
_geom_bond_atom_site_label_1
_geom_bond_atom_site_label_2
_geom_bond_site_symmetry_1
_geom_bond_site_symmetry_2
P1 O1 1_555 1_555
C3 P1 1_555 1_555
H1 C4 1_555 1_555
C5 P1 1_555 1_555
C8 C11 1_555 1_555
C10 C3 1_555 1_555
C11 H5 1_555 1_555
C14 C10 1_555 1_555
C15 C8 1_555 1_555
H8 C15 1_555 1_555
C22 C14 1_555 1_555
C25 C5 1_555 1_555
H17 C25 1_555 1_555
C27 C3 1_555 1_555
H20 C27 1_555 1_555
C28 C5 1_555 1_555
H21 C28 1_555 1_555
C29 C22 1_555 1_555
H22 C29 1_555 1_555
O7 C30 1_555 1_555
O8 C32 1_555 1_555
O9 C30 1_555 1_555
O10 C32 1_555 1_555
C30 C22 1_555 1_555
C32 C8 1_555 1_555
H25 C33 1_555 1_555
H26 C33 1_555 1_555
Ni11 O8 1_555 1_555
Ni13 O7 1_555 1_555
C11 C25 1_555 1_555
C15 C28 1_555 1_555
C27 C29 1_555 1_555
O9 Ni13 1_555 1_555
O10 Ni11 1_555 1_555
Ni2 O2 1_555 1_555
P2 O3 1_555 1_555
O2 C7 1_555 1_555
N1 Ni2 1_555 1_555
C2 P2 1_555 1_555
O4 C7 1_555 1_555
O5 Ni2 1_555 1_555
O6 C20 1_555 1_555
C6 H2 1_555 1_555
C7 C17 1_555 1_555
C9 C1 1_555 1_555
H3 C9 1_555 1_555
C12 C16 1_555 1_555
H6 C13 1_555 1_555
C16 H9 1_555 1_555
C17 C6 1_555 1_555
C18 N1 1_555 1_555
H10 C18 1_555 1_555
H11 C18 1_555 1_555
C19 N1 1_555 1_555
H12 C19 1_555 1_555
H13 C19 1_555 1_555
C20 O5 1_555 1_555
C21 C2 1_555 1_555
H14 C21 1_555 1_555
C23 C12 1_555 1_555
H15 C23 1_555 1_555
C24 C2 1_555 1_555
H16 C24 1_555 1_555
C26 N1 1_555 1_555
H18 C26 1_555 1_555
H19 C26 1_555 1_555
N2 C31 1_555 1_555
C31 C18 1_555 1_555
H24 C31 1_555 1_555
C34 C26 1_555 1_555
H27 C34 1_555 1_555
H28 C34 1_555 1_555
C35 P2 1_555 1_555
O11 C38 1_555 1_555
O12 C38 1_555 1_555
C36 C37 1_555 1_555
C37 H29 1_555 1_555
C38 C36 1_555 1_555
C39 C35 1_555 1_555
H30 C39 1_555 1_555
C40 C36 1_555 1_555
H31 C40 1_555 1_555
C41 C35 1_555 1_555
H32 C41 1_555 1_555
C42 P2 1_555 1_555
O13 C45 1_555 1_555
O14 C45 1_555 1_555
C43 C44 1_555 1_555
C44 H33 1_555 1_555
C45 C43 1_555 1_555
C46 C42 1_555 1_555
H34 C46 1_555 1_555
C47 C43 1_555 1_555
H35 C47 1_555 1_555
C48 C42 1_555 1_555
H36 C48 1_555 1_555
Ni4 O11 1_555 1_555
O16 Ni4 1_555 1_555
N3 Ni4 1_555 1_555
O17 C54 1_555 1_555
C53 H38 1_555 1_555
C54 O16 1_555 1_555
C56 C49 1_555 1_555
H39 C56 1_555 1_555
H42 C59 1_555 1_555
C62 C53 1_555 1_555
C63 N3 1_555 1_555
H45 C63 1_555 1_555
H46 C63 1_555 1_555
C64 N3 1_555 1_555
H47 C64 1_555 1_555
H48 C64 1_555 1_555
C67 N3 1_555 1_555
H50 C67 1_555 1_555
H51 C67 1_555 1_555
N4 C72 1_555 1_555
C72 C63 1_555 1_555
H56 C72 1_555 1_555
C75 C67 1_555 1_555
H59 C75 1_555 1_555
H60 C75 1_555 1_555
Ni5 O22 1_555 1_555
Ni6 O13 1_555 1_555
P4 O22 1_555 1_555
C76 P4 1_555 1_555
O23 Ni6 1_555 1_555
N5 Ni6 1_555 1_555
O24 C81 1_555 1_555
C77 P4 1_555 1_555
C78 C76 1_555 1_555
H61 C78 1_555 1_555
C79 P4 1_555 1_555
C80 H62 1_555 1_555
C81 O23 1_555 1_555
C82 C85 1_555 1_555
C83 C76 1_555 1_555
H63 C83 1_555 1_555
C84 C77 1_555 1_555
H64 C84 1_555 1_555
C85 H65 1_555 1_555
C86 C78 1_555 1_555
H66 C86 1_555 1_555
C87 C84 1_555 1_555
H67 C87 1_555 1_555
C88 C82 1_555 1_555
H68 C88 1_555 1_555
C89 C80 1_555 1_555
C90 N5 1_555 1_555
H69 C90 1_555 1_555
H70 C90 1_555 1_555
C91 N5 1_555 1_555
H71 C91 1_555 1_555
H72 C91 1_555 1_555
C92 C87 1_555 1_555
C93 C79 1_555 1_555
H73 C93 1_555 1_555
C94 N5 1_555 1_555
H74 C94 1_555 1_555
H75 C94 1_555 1_555
C95 C77 1_555 1_555
H76 C95 1_555 1_555
C96 C79 1_555 1_555
H77 C96 1_555 1_555
C97 C92 1_555 1_555
H78 C97 1_555 1_555
O25 C98 1_555 1_555
N6 C99 1_555 1_555
O26 C100 1_555 1_555
O27 C98 1_555 1_555
O28 C100 1_555 1_555
C98 C92 1_555 1_555
C99 C90 1_555 1_555
H79 C99 1_555 1_555
H80 C99 1_555 1_555
C100 C82 1_555 1_555
C101 C91 1_555 1_555
H81 C101 1_555 1_555
H82 C101 1_555 1_555
C102 C94 1_555 1_555
H83 C102 1_555 1_555
H84 C102 1_555 1_555
Ni8 N6 1_555 1_555
Ni11 O25 1_555 1_555
Ni15 O26 1_555 1_555
Ni16 Ni2 1_555 1_555
Ni17 O12 1_555 1_555
Ni18 O14 1_555 1_555
O29 Ni2 1_555 1_555
O30 Ni4 1_555 1_555
O31 Ni6 1_555 1_555
O32 Ni2 1_555 1_555
O33 Ni4 1_555 1_555
O34 Ni6 1_555 1_555
O35 Ni3 1_555 1_555
O36 Ni5 1_555 1_555
O37 Ni1 1_555 1_555
N7 Ni5 1_555 1_555
N8 Ni1 1_555 1_555
N9 Ni3 1_555 1_555
O40 Ni5 1_555 1_555
O41 Ni3 1_555 1_555
O42 Ni5 1_555 1_555
O43 Ni1 1_555 1_555
O46 Ni5 1_555 1_555
O4 Ni16 1_555 1_555
O6 Ni16 1_555 1_555
C6 C9 1_555 1_555
C12 C20 1_555 1_555
C13 C17 1_555 1_555
C16 C24 1_555 1_555
C21 C23 1_555 1_555
N2 C34 1_555 1_555
C37 C41 1_555 1_555
C39 C40 1_555 1_555
C44 C48 1_555 1_555
C46 C47 1_555 1_555
Ni4 Ni17 1_555 1_555
O17 Ni17 1_555 1_555
C53 C56 1_555 1_555
C54 C62 1_555 1_555
C59 C62 1_555 1_555
N4 C75 1_555 1_555
Ni6 Ni18 1_555 1_555
O24 Ni18 1_555 1_555
C80 C83 1_555 1_555
C81 C89 1_555 1_555
C85 C93 1_555 1_555
C86 C89 1_555 1_555
C88 C96 1_555 1_555
C95 C97 1_555 1_555
N6 C101 1_555 1_555
N6 C102 1_555 1_555
O27 Ni11 1_555 1_555
O28 Ni15 1_555 1_555
P3 O15 1_555 1_555
C50 P3 1_555 1_555
H37 C51 1_555 1_555
C52 P3 1_555 1_555
C55 C58 1_555 1_555
C57 C50 1_555 1_555
C58 H41 1_555 1_555
C60 C57 1_555 1_555
C61 C55 1_555 1_555
H44 C61 1_555 1_555
C65 C60 1_555 1_555
C66 C52 1_555 1_555
H49 C66 1_555 1_555
C68 C50 1_555 1_555
H52 C68 1_555 1_555
C69 C52 1_555 1_555
H53 C69 1_555 1_555
C70 C65 1_555 1_555
H54 C70 1_555 1_555
O18 C71 1_555 1_555
O19 C73 1_555 1_555
O20 C71 1_555 1_555
O21 C73 1_555 1_555
C71 C65 1_555 1_555
C73 C55 1_555 1_555
H57 C74 1_555 1_555
H58 C74 1_555 1_555
Ni13 O19 1_555 1_555
Ni15 O18 1_555 1_555
C58 C66 1_555 1_555
C61 C69 1_555 1_555
C68 C70 1_555 1_555
O20 Ni15 1_555 1_555
O21 Ni13 1_555 1_555
P1_2 O1_2 1_555 1_555
P2_2 O3_2 1_555 1_555
C3_2 P1_2 1_555 1_555
H1_2 C4_2 1_555 1_555
C5_2 P1_2 1_555 1_555
C8_2 C11_2 1_555 1_555
C10_2 C3_2 1_555 1_555
H4_2 C10_2 1_555 1_555
C11_2 H5_2 1_555 1_555
C14_2 C10_2 1_555 1_555
H7_2 C14_2 1_555 1_555
C15_2 C8_2 1_555 1_555
H8_2 C15_2 1_555 1_555
C22_2 C14_2 1_555 1_555
C25_2 C5_2 1_555 1_555
C27_2 C3_2 1_555 1_555
H20_2 C27_2 1_555 1_555
C28_2 C5_2 1_555 1_555
H21_2 C28_2 1_555 1_555
C29_2 C22_2 1_555 1_555
H22_2 C29_2 1_555 1_555
O7_2 C30_2 1_555 1_555
O8_2 C32_2 1_555 1_555
O9_2 C30_2 1_555 1_555
O10_2 C32_2 1_555 1_555
C30_2 C22_2 1_555 1_555
C32_2 C8_2 1_555 1_555
H25_2 C33_2 1_555 1_555
H26_2 C33_2 1_555 1_555
C42_2 P2_2 1_555 1_555
O13_2 C45_2 1_555 1_555
O14_2 C45_2 1_555 1_555
C43_2 C44_2 1_555 1_555
C44_2 H33_2 1_555 1_555
C45_2 C43_2 1_555 1_555
C46_2 C42_2 1_555 1_555
H34_2 C46_2 1_555 1_555
C47_2 C43_2 1_555 1_555
H35_2 C47_2 1_555 1_555
C48_2 C42_2 1_555 1_555
H36_2 C48_2 1_555 1_555
Ni6_2 O13_2 1_555 1_555
O23_2 Ni6_2 1_555 1_555
N5_2 Ni6_2 1_555 1_555
O24_2 C81_2 1_555 1_555
C80_2 H62_2 1_555 1_555
C81_2 O23_2 1_555 1_555
C83_2 C76_2 1_555 1_555
H63_2 C83_2 1_555 1_555
H66_2 C86_2 1_555 1_555
C89_2 C80_2 1_555 1_555
C90_2 N5_2 1_555 1_555
H69_2 C90_2 1_555 1_555
H70_2 C90_2 1_555 1_555
C91_2 N5_2 1_555 1_555
H71_2 C91_2 1_555 1_555
H72_2 C91_2 1_555 1_555
C94_2 N5_2 1_555 1_555
H74_2 C94_2 1_555 1_555
H75_2 C94_2 1_555 1_555
N6_2 C99_2 1_555 1_555
C99_2 C90_2 1_555 1_555
H79_2 C99_2 1_555 1_555
H80_2 C99_2 1_555 1_555
C102_2 C94_2 1_555 1_555
H83_2 C102_2 1_555 1_555
Ni11_2 O8_2 1_555 1_555
Ni13_2 O7_2 1_555 1_555
Ni18_2 O14_2 1_555 1_555
O31_2 Ni6_2 1_555 1_555
O34_2 Ni6_2 1_555 1_555
O36_2 Ni9 1_555 1_555
O40_2 Ni9 1_555 1_555
O42_2 Ni9 1_555 1_555
O46_2 Ni9 1_555 1_555
C11_2 C25_2 1_555 1_555
C15_2 C28_2 1_555 1_555
C27_2 C29_2 1_555 1_555
O9_2 Ni13_2 1_555 1_555
O10_2 Ni11_2 1_555 1_555
C44_2 C48_2 1_555 1_555
C46_2 C47_2 1_555 1_555
Ni6_2 Ni18_2 1_555 1_555
O24_2 Ni18_2 1_555 1_555
C80_2 C83_2 1_555 1_555
C81_2 C89_2 1_555 1_555
C86_2 C89_2 1_555 1_555
N6_2 C102_2 1_555 1_555
P2_3 O3_3 1_555 1_555
P4_2 O22_2 1_555 1_555
C77_2 P4_2 1_555 1_555
H61_2 C78_2 1_555 1_555
C79_2 P4_2 1_555 1_555
C82_2 C85_2 1_555 1_555
C84_2 C77_2 1_555 1_555
H64_2 C84_2 1_555 1_555
C85_2 H65_2 1_555 1_555
C87_2 C84_2 1_555 1_555
H67_2 C87_2 1_555 1_555
C88_2 C82_2 1_555 1_555
H68_2 C88_2 1_555 1_555
C92_2 C87_2 1_555 1_555
C93_2 C79_2 1_555 1_555
C95_2 C77_2 1_555 1_555
H76_2 C95_2 1_555 1_555
C96_2 C79_2 1_555 1_555
H77_2 C96_2 1_555 1_555
C97_2 C92_2 1_555 1_555
H78_2 C97_2 1_555 1_555
O25_2 C98_2 1_555 1_555
O26_2 C100_2 1_555 1_555
O27_2 C98_2 1_555 1_555
O28_2 C100_2 1_555 1_555
C98_2 C92_2 1_555 1_555
C100_2 C82_2 1_555 1_555
H81_2 C101_2 1_555 1_555
H82_2 C101_2 1_555 1_555
Ni11_2 O25_2 1_555 1_555
Ni15_2 O26_2 1_555 1_555
C85_2 C93_2 1_555 1_555
C88_2 C96_2 1_555 1_555
C95_2 C97_2 1_555 1_555
O27_2 Ni11_2 1_555 1_555
O28_2 Ni15_2 1_555 1_555
Ni2_2 O2_2 1_555 1_555
P2_4 O3_4 1_555 1_555
O2_2 C7_2 1_555 1_555
N1_2 Ni2_2 1_555 1_555
C2_2 P2_4 1_555 1_555
O4_2 C7_2 1_555 1_555
O5_2 Ni2_2 1_555 1_555
O6_2 C20_2 1_555 1_555
C6_2 H2_2 1_555 1_555
C7_2 C17_2 1_555 1_555
C9_2 C1_2 1_555 1_555
H3_2 C9_2 1_555 1_555
C12_2 C16_2 1_555 1_555
H6_2 C13_2 1_555 1_555
C16_2 H9_2 1_555 1_555
C17_2 C6_2 1_555 1_555
C18_2 N1_2 1_555 1_555
H10_2 C18_2 1_555 1_555
H11_2 C18_2 1_555 1_555
C19_2 N1_2 1_555 1_555
H12_2 C19_2 1_555 1_555
H13_2 C19_2 1_555 1_555
C20_2 O5_2 1_555 1_555
C21_2 C2_2 1_555 1_555
C23_2 C12_2 1_555 1_555
H15_2 C23_2 1_555 1_555
C24_2 C2_2 1_555 1_555
H16_2 C24_2 1_555 1_555
C26_2 N1_2 1_555 1_555
H18_2 C26_2 1_555 1_555
H19_2 C26_2 1_555 1_555
N2_2 C31_2 1_555 1_555
C31_2 C18_2 1_555 1_555
H23_2 C31_2 1_555 1_555
H24_2 C31_2 1_555 1_555
C34_2 C26_2 1_555 1_555
H27_2 C34_2 1_555 1_555
Ni16_2 Ni2_2 1_555 1_555
O29_2 Ni2_2 1_555 1_555
O32_2 Ni2_2 1_555 1_555
O37_2 Ni7 1_555 1_555
O38_2 Ni7 1_555 1_555
O43_2 Ni7 1_555 1_555
O44_2 Ni7 1_555 1_555
O4_2 Ni16_2 1_555 1_555
O6_2 Ni16_2 1_555 1_555
C6_2 C9_2 1_555 1_555
C12_2 C20_2 1_555 1_555
C13_2 C17_2 1_555 1_555
C16_2 C24_2 1_555 1_555
C21_2 C23_2 1_555 1_555
N2_2 C34_2 1_555 1_555
P2_5 O3_5 1_555 1_555
C35_2 P2_5 1_555 1_555
O11_2 C38_2 1_555 1_555
O12_2 C38_2 1_555 1_555
C36_2 C37_2 1_555 1_555
C37_2 H29_2 1_555 1_555
C38_2 C36_2 1_555 1_555
C39_2 C35_2 1_555 1_555
C40_2 C36_2 1_555 1_555
H31_2 C40_2 1_555 1_555
C41_2 C35_2 1_555 1_555
H32_2 C41_2 1_555 1_555
Ni8 O15_2 1_555 1_555
Ni4_2 O11_2 1_555 1_555
P3_2 O15_2 1_555 1_555
C49_2 P3_2 1_555 1_555
O16_2 Ni4_2 1_555 1_555
N3_2 Ni4_2 1_555 1_555
O17_2 C54_2 1_555 1_555
C50_2 P3_2 1_555 1_555
C51_2 C49_2 1_555 1_555
H37_2 C51_2 1_555 1_555
C52_2 P3_2 1_555 1_555
C53_2 H38_2 1_555 1_555
C54_2 O16_2 1_555 1_555
C55_2 C58_2 1_555 1_555
C56_2 C49_2 1_555 1_555
H39_2 C56_2 1_555 1_555
C57_2 C50_2 1_555 1_555
H40_2 C57_2 1_555 1_555
C58_2 H41_2 1_555 1_555
C59_2 C51_2 1_555 1_555
H42_2 C59_2 1_555 1_555
C60_2 C57_2 1_555 1_555
H43_2 C60_2 1_555 1_555
C61_2 C55_2 1_555 1_555
H44_2 C61_2 1_555 1_555
C62_2 C53_2 1_555 1_555
C63_2 N3_2 1_555 1_555
H45_2 C63_2 1_555 1_555
H46_2 C63_2 1_555 1_555
C64_2 N3_2 1_555 1_555
H47_2 C64_2 1_555 1_555
H48_2 C64_2 1_555 1_555
C65_2 C60_2 1_555 1_555
C66_2 C52_2 1_555 1_555
H49_2 C66_2 1_555 1_555
C67_2 N3_2 1_555 1_555
H50_2 C67_2 1_555 1_555
H51_2 C67_2 1_555 1_555
C68_2 C50_2 1_555 1_555
H52_2 C68_2 1_555 1_555
C69_2 C52_2 1_555 1_555
H53_2 C69_2 1_555 1_555
C70_2 C65_2 1_555 1_555
H54_2 C70_2 1_555 1_555
O18_2 C71_2 1_555 1_555
N4_2 C72_2 1_555 1_555
O19_2 C73_2 1_555 1_555
O20_2 C71_2 1_555 1_555
O21_2 C73_2 1_555 1_555
C71_2 C65_2 1_555 1_555
C72_2 C63_2 1_555 1_555
H55_2 C72_2 1_555 1_555
H56_2 C72_2 1_555 1_555
C73_2 C55_2 1_555 1_555
C74_2 C64_2 1_555 1_555
H57_2 C74_2 1_555 1_555
H58_2 C74_2 1_555 1_555
C75_2 C67_2 1_555 1_555
H59_2 C75_2 1_555 1_555
H60_2 C75_2 1_555 1_555
Ni7_2 N4_2 1_555 1_555
Ni13_2 O19_2 1_555 1_555
Ni15_2 O18_2 1_555 1_555
Ni17_2 O12_2 1_555 1_555
O30_2 Ni4_2 1_555 1_555
O33_2 Ni4_2 1_555 1_555
O35_2 Ni8 1_555 1_555
O39_2 Ni8 1_555 1_555
O41_2 Ni8 1_555 1_555
O45_2 Ni8 1_555 1_555
C37_2 C41_2 1_555 1_555
C39_2 C40_2 1_555 1_555
Ni4_2 Ni17_2 1_555 1_555
O17_2 Ni17_2 1_555 1_555
C53_2 C56_2 1_555 1_555
C54_2 C62_2 1_555 1_555
C58_2 C66_2 1_555 1_555
C59_2 C62_2 1_555 1_555
C61_2 C69_2 1_555 1_555
C68_2 C70_2 1_555 1_555
N4_2 C74_2 1_555 1_555
N4_2 C75_2 1_555 1_555
O20_2 Ni15_2 1_555 1_555
O21_2 Ni13_2 1_555 1_555
N5_3 Ni6_3 1_555 1_555
C90_3 N5_3 1_555 1_555
H69_3 C90_3 1_555 1_555
H70_3 C90_3 1_555 1_555
C91_3 N5_3 1_555 1_555
H71_3 C91_3 1_555 1_555
N9 C99_3 1_555 1_555
C99_3 C90_3 1_555 1_555
H79_3 C99_3 1_555 1_555
H80_3 C99_3 1_555 1_555
C101_3 C91_3 1_555 1_555
H82_3 C101_3 1_555 1_555
O31_3 Ni6_3 1_555 1_555
O34_3 Ni6_3 1_555 1_555
N9 C101_3 1_555 1_555
C79_3 P4_3 1_555 1_555
C82_3 C85_3 1_555 1_555
C85_3 H65_3 1_555 1_555
C88_3 C82_3 1_555 1_555
H68_3 C88_3 1_555 1_555
C93_3 C79_3 1_555 1_555
H73_3 C93_3 1_555 1_555
C96_3 C79_3 1_555 1_555
H77_3 C96_3 1_555 1_555
O26_3 C100_3 1_555 1_555
O28_3 C100_3 1_555 1_555
C100_3 C82_3 1_555 1_555
Ni15_3 O26_3 1_555 1_555
O36_3 Ni9_2 1_555 1_555
O40_3 Ni9_2 1_555 1_555
O42_3 Ni9_2 1_555 1_555
O46_3 Ni9_2 1_555 1_555
C85_3 C93_3 1_555 1_555
C88_3 C96_3 1_555 1_555
O28_3 Ni15_3 1_555 1_555
P2_6 O3_6 1_555 1_555
N1_3 Ni2_3 1_555 1_555
C2_3 P2_6 1_555 1_555
O5_3 Ni2_3 1_555 1_555
C12_3 C16_3 1_555 1_555
C16_3 H9_3 1_555 1_555
C18_3 N1_3 1_555 1_555
H10_3 C18_3 1_555 1_555
H11_3 C18_3 1_555 1_555
C19_3 N1_3 1_555 1_555
H12_3 C19_3 1_555 1_555
H13_3 C19_3 1_555 1_555
C20_3 O5_3 1_555 1_555
C21_3 C2_3 1_555 1_555
H14_3 C21_3 1_555 1_555
C23_3 C12_3 1_555 1_555
C24_3 C2_3 1_555 1_555
H16_3 C24_3 1_555 1_555
C26_3 N1_3 1_555 1_555
H18_3 C26_3 1_555 1_555
H19_3 C26_3 1_555 1_555
N7 C31_3 1_555 1_555
C31_3 C18_3 1_555 1_555
H23_3 C31_3 1_555 1_555
H24_3 C31_3 1_555 1_555
C33_3 C19_3 1_555 1_555
H25_3 C33_3 1_555 1_555
H26_3 C33_3 1_555 1_555
C34_3 C26_3 1_555 1_555
H27_3 C34_3 1_555 1_555
H28_3 C34_3 1_555 1_555
C35_3 P2_6 1_555 1_555
O11_3 C38_3 1_555 1_555
C36_3 C37_3 1_555 1_555
C37_3 H29_3 1_555 1_555
C38_3 C36_3 1_555 1_555
C39_3 C35_3 1_555 1_555
H30_3 C39_3 1_555 1_555
C40_3 C36_3 1_555 1_555
C41_3 C35_3 1_555 1_555
H32_3 C41_3 1_555 1_555
C42_3 P2_6 1_555 1_555
O13_3 C45_3 1_555 1_555
C43_3 C44_3 1_555 1_555
C44_3 H33_3 1_555 1_555
C45_3 C43_3 1_555 1_555
C46_3 C42_3 1_555 1_555
H34_3 C46_3 1_555 1_555
C47_3 C43_3 1_555 1_555
C48_3 C42_3 1_555 1_555
H36_3 C48_3 1_555 1_555
H50_3 C67_3 1_555 1_555
H51_3 C67_3 1_555 1_555
C75_3 C67_3 1_555 1_555
H59_3 C75_3 1_555 1_555
H60_3 C75_3 1_555 1_555
H74_3 C94_3 1_555 1_555
H75_3 C94_3 1_555 1_555
C102_3 C94_3 1_555 1_555
H83_3 C102_3 1_555 1_555
H84_3 C102_3 1_555 1_555
O29_3 Ni2_3 1_555 1_555
O32_3 Ni2_3 1_555 1_555
C12_3 C20_3 1_555 1_555
C16_3 C24_3 1_555 1_555
C21_3 C23_3 1_555 1_555
N7 C33_3 1_555 1_555
N7 C34_3 1_555 1_555
C37_3 C41_3 1_555 1_555
C39_3 C40_3 1_555 1_555
C44_3 C48_3 1_555 1_555
C46_3 C47_3 1_555 1_555
Ni7_2 O1_3 1_555 1_555
P1_3 O1_3 1_555 1_555
C1_3 P1_3 1_555 1_555
O2_3 C7_3 1_555 1_555
O4_3 C7_3 1_555 1_555
C3_3 P1_3 1_555 1_555
C4_3 C1_3 1_555 1_555
H1_3 C4_3 1_555 1_555
C5_3 P1_3 1_555 1_555
C6_3 H2_3 1_555 1_555
C7_3 C17_3 1_555 1_555
C8_3 C11_3 1_555 1_555
C9_3 C1_3 1_555 1_555
H3_3 C9_3 1_555 1_555
C10_3 C3_3 1_555 1_555
H4_3 C10_3 1_555 1_555
C11_3 H5_3 1_555 1_555
C13_3 C4_3 1_555 1_555
H6_3 C13_3 1_555 1_555
C14_3 C10_3 1_555 1_555
H7_3 C14_3 1_555 1_555
C15_3 C8_3 1_555 1_555
H8_3 C15_3 1_555 1_555
C17_3 C6_3 1_555 1_555
C22_3 C14_3 1_555 1_555
C25_3 C5_3 1_555 1_555
H17_3 C25_3 1_555 1_555
C27_3 C3_3 1_555 1_555
H20_3 C27_3 1_555 1_555
C28_3 C5_3 1_555 1_555
H21_3 C28_3 1_555 1_555
C29_3 C22_3 1_555 1_555
H22_3 C29_3 1_555 1_555
O7_3 C30_3 1_555 1_555
O8_3 C32_3 1_555 1_555
O9_3 C30_3 1_555 1_555
O10_3 C32_3 1_555 1_555
C30_3 C22_3 1_555 1_555
C32_3 C8_3 1_555 1_555
O17_3 C54_3 1_555 1_555
C51_3 C49_3 1_555 1_555
H37_3 C51_3 1_555 1_555
C53_3 H38_3 1_555 1_555
C56_3 C49_3 1_555 1_555
C57_3 C50_3 1_555 1_555
H40_3 C57_3 1_555 1_555
C59_3 C51_3 1_555 1_555
H42_3 C59_3 1_555 1_555
C60_3 C57_3 1_555 1_555
H43_3 C60_3 1_555 1_555
C62_3 C53_3 1_555 1_555
C65_3 C60_3 1_555 1_555
C68_3 C50_3 1_555 1_555
H52_3 C68_3 1_555 1_555
C70_3 C65_3 1_555 1_555
H54_3 C70_3 1_555 1_555
O18_3 C71_3 1_555 1_555
O20_3 C71_3 1_555 1_555
C71_3 C65_3 1_555 1_555
O24_3 C81_3 1_555 1_555
C78_3 C76_3 1_555 1_555
H61_3 C78_3 1_555 1_555
C80_3 H62_3 1_555 1_555
C83_3 C76_3 1_555 1_555
C84_3 C77_3 1_555 1_555
H64_3 C84_3 1_555 1_555
C86_3 C78_3 1_555 1_555
H66_3 C86_3 1_555 1_555
C87_3 C84_3 1_555 1_555
H67_3 C87_3 1_555 1_555
C89_3 C80_3 1_555 1_555
C92_3 C87_3 1_555 1_555
C95_3 C77_3 1_555 1_555
H76_3 C95_3 1_555 1_555
C97_3 C92_3 1_555 1_555
H78_3 C97_3 1_555 1_555
O25_3 C98_3 1_555 1_555
O27_3 C98_3 1_555 1_555
C98_3 C92_3 1_555 1_555
Ni11_3 O25_3 1_555 1_555
Ni13_3 O7_3 1_555 1_555
Ni15_3 O18_3 1_555 1_555
Ni17_3 O12_3 1_555 1_555
Ni18_3 O14_3 1_555 1_555
O37_3 Ni7_2 1_555 1_555
O38_3 Ni7_2 1_555 1_555
O43_3 Ni7_2 1_555 1_555
O44_3 Ni7_2 1_555 1_555
O4_3 Ni16_3 1_555 1_555
O6_3 Ni16_3 1_555 1_555
C6_3 C9_3 1_555 1_555
C11_3 C25_3 1_555 1_555
C13_3 C17_3 1_555 1_555
C15_3 C28_3 1_555 1_555
C27_3 C29_3 1_555 1_555
O9_3 Ni13_3 1_555 1_555
O17_3 Ni17_3 1_555 1_555
C53_3 C56_3 1_555 1_555
C54_3 C62_3 1_555 1_555
C59_3 C62_3 1_555 1_555
C68_3 C70_3 1_555 1_555
O20_3 Ni15_3 1_555 1_555
O24_3 Ni18_3 1_555 1_555
C80_3 C83_3 1_555 1_555
C81_3 C89_3 1_555 1_555
C86_3 C89_3 1_555 1_555
C95_3 C97_3 1_555 1_555
O27_3 Ni11_3 1_555 1_555
N3_3 Ni4_3 1_555 1_555
C63_3 N3_3 1_555 1_555
H45_3 C63_3 1_555 1_555
H46_3 C63_3 1_555 1_555
C64_3 N3_3 1_555 1_555
H47_3 C64_3 1_555 1_555
N8 C72_3 1_555 1_555
C72_3 C63_3 1_555 1_555
H55_3 C72_3 1_555 1_555
H56_3 C72_3 1_555 1_555
C74_3 C64_3 1_555 1_555
H58_3 C74_3 1_555 1_555
O30_3 Ni4_3 1_555 1_555
O33_3 Ni4_3 1_555 1_555
N8 C74_3 1_555 1_555
C52_3 P3_3 1_555 1_555
C55_3 C58_3 1_555 1_555
C58_3 H41_3 1_555 1_555
C61_3 C55_3 1_555 1_555
H44_3 C61_3 1_555 1_555
C66_3 C52_3 1_555 1_555
H49_3 C66_3 1_555 1_555
C69_3 C52_3 1_555 1_555
H53_3 C69_3 1_555 1_555
O19_3 C73_3 1_555 1_555
O21_3 C73_3 1_555 1_555
C73_3 C55_3 1_555 1_555
O35_3 Ni8_2 1_555 1_555
O39_3 Ni8_2 1_555 1_555
O41_3 Ni8_2 1_555 1_555
O45_3 Ni8_2 1_555 1_555
C58_3 C66_3 1_555 1_555
C61_3 C69_3 1_555 1_555
P3_4 O15_4 1_555 1_555
C50_4 P3_4 1_555 1_555
H37_4 C51_4 1_555 1_555
C52_4 P3_4 1_555 1_555
C55_4 C58_4 1_555 1_555
C57_4 C50_4 1_555 1_555
C58_4 H41_4 1_555 1_555
C60_4 C57_4 1_555 1_555
C61_4 C55_4 1_555 1_555
H44_4 C61_4 1_555 1_555
C65_4 C60_4 1_555 1_555
C66_4 C52_4 1_555 1_555
H49_4 C66_4 1_555 1_555
C68_4 C50_4 1_555 1_555
H52_4 C68_4 1_555 1_555
C69_4 C52_4 1_555 1_555
H53_4 C69_4 1_555 1_555
C70_4 C65_4 1_555 1_555
H54_4 C70_4 1_555 1_555
O36_3 C71_4 1_555 1_555
O39_3 C73_4 1_555 1_555
O42_3 C71_4 1_555 1_555
O45_3 C73_4 1_555 1_555
C71_4 C65_4 1_555 1_555
C73_4 C55_4 1_555 1_555
H57_4 C74_4 1_555 1_555
H58_4 C74_4 1_555 1_555
C58_4 C66_4 1_555 1_555
C61_4 C69_4 1_555 1_555
C68_4 C70_4 1_555 1_555
Ni16_2 O2_4 1_555 1_555
P2_7 O3_7 1_555 1_555
O2_4 C7_4 1_555 1_555
N1_4 Ni16_2 1_555 1_555
C2_4 P2_7 1_555 1_555
O29_2 C7_4 1_555 1_555
O5_4 Ni16_2 1_555 1_555
O32_2 C20_4 1_555 1_555
C6_4 H2_4 1_555 1_555
C7_4 C17_4 1_555 1_555
C9_4 C1_4 1_555 1_555
H3_4 C9_4 1_555 1_555
C12_4 C16_4 1_555 1_555
H6_4 C13_4 1_555 1_555
C16_4 H9_4 1_555 1_555
C17_4 C6_4 1_555 1_555
C18_4 N1_4 1_555 1_555
H10_4 C18_4 1_555 1_555
H11_4 C18_4 1_555 1_555
C19_4 N1_4 1_555 1_555
H12_4 C19_4 1_555 1_555
H13_4 C19_4 1_555 1_555
C20_4 O5_4 1_555 1_555
C21_4 C2_4 1_555 1_555
H14_4 C21_4 1_555 1_555
C23_4 C12_4 1_555 1_555
H15_4 C23_4 1_555 1_555
C24_4 C2_4 1_555 1_555
H16_4 C24_4 1_555 1_555
C26_4 N1_4 1_555 1_555
H18_4 C26_4 1_555 1_555
H19_4 C26_4 1_555 1_555
N2_3 C31_4 1_555 1_555
C31_4 C18_4 1_555 1_555
H24_4 C31_4 1_555 1_555
C34_4 C26_4 1_555 1_555
H27_4 C34_4 1_555 1_555
H28_4 C34_4 1_555 1_555
C35_4 P2_7 1_555 1_555
O11_4 C38_4 1_555 1_555
O33_2 C38_4 1_555 1_555
C36_4 C37_4 1_555 1_555
C37_4 H29_4 1_555 1_555
C38_4 C36_4 1_555 1_555
C39_4 C35_4 1_555 1_555
H30_4 C39_4 1_555 1_555
C40_4 C36_4 1_555 1_555
H31_4 C40_4 1_555 1_555
C41_4 C35_4 1_555 1_555
H32_4 C41_4 1_555 1_555
C42_4 P2_7 1_555 1_555
O13_4 C45_4 1_555 1_555
O34_2 C45_4 1_555 1_555
C43_4 C44_4 1_555 1_555
C44_4 H33_4 1_555 1_555
C45_4 C43_4 1_555 1_555
C46_4 C42_4 1_555 1_555
H34_4 C46_4 1_555 1_555
C47_4 C43_4 1_555 1_555
H35_4 C47_4 1_555 1_555
C48_4 C42_4 1_555 1_555
H36_4 C48_4 1_555 1_555
Ni17_2 O11_4 1_555 1_555
O16_4 Ni17_2 1_555 1_555
N3_4 Ni17_2 1_555 1_555
O30_2 C54_4 1_555 1_555
C53_4 H38_4 1_555 1_555
C54_4 O16_4 1_555 1_555
C56_4 C49_4 1_555 1_555
H39_4 C56_4 1_555 1_555
H42_4 C59_4 1_555 1_555
C62_4 C53_4 1_555 1_555
C63_4 N3_4 1_555 1_555
H45_4 C63_4 1_555 1_555
H46_4 C63_4 1_555 1_555
C64_4 N3_4 1_555 1_555
H47_4 C64_4 1_555 1_555
H48_4 C64_4 1_555 1_555
C67_4 N3_4 1_555 1_555
H50_4 C67_4 1_555 1_555
H51_4 C67_4 1_555 1_555
N4_3 C72_4 1_555 1_555
C72_4 C63_4 1_555 1_555
H56_4 C72_4 1_555 1_555
C75_4 C67_4 1_555 1_555
H59_4 C75_4 1_555 1_555
H60_4 C75_4 1_555 1_555
Ni15_3 O22_4 1_555 1_555
Ni18_2 O13_4 1_555 1_555
P4_4 O22_4 1_555 1_555
C76_4 P4_4 1_555 1_555
O23_4 Ni18_2 1_555 1_555
N5_4 Ni18_2 1_555 1_555
O31_2 C81_4 1_555 1_555
C77_4 P4_4 1_555 1_555
C78_4 C76_4 1_555 1_555
H61_4 C78_4 1_555 1_555
C79_4 P4_4 1_555 1_555
C80_4 H62_4 1_555 1_555
C81_4 O23_4 1_555 1_555
C82_4 C85_4 1_555 1_555
C83_4 C76_4 1_555 1_555
H63_4 C83_4 1_555 1_555
C84_4 C77_4 1_555 1_555
H64_4 C84_4 1_555 1_555
C85_4 H65_4 1_555 1_555
C86_4 C78_4 1_555 1_555
H66_4 C86_4 1_555 1_555
C87_4 C84_4 1_555 1_555
H67_4 C87_4 1_555 1_555
C88_4 C82_4 1_555 1_555
H68_4 C88_4 1_555 1_555
C89_4 C80_4 1_555 1_555
C90_4 N5_4 1_555 1_555
H69_4 C90_4 1_555 1_555
H70_4 C90_4 1_555 1_555
C91_4 N5_4 1_555 1_555
H71_4 C91_4 1_555 1_555
H72_4 C91_4 1_555 1_555
C92_4 C87_4 1_555 1_555
C93_4 C79_4 1_555 1_555
H73_4 C93_4 1_555 1_555
C94_4 N5_4 1_555 1_555
H74_4 C94_4 1_555 1_555
H75_4 C94_4 1_555 1_555
C95_4 C77_4 1_555 1_555
H76_4 C95_4 1_555 1_555
C96_4 C79_4 1_555 1_555
H77_4 C96_4 1_555 1_555
C97_4 C92_4 1_555 1_555
H78_4 C97_4 1_555 1_555
O37_3 C98_4 1_555 1_555
N6_3 C99_4 1_555 1_555
O40_3 C100_4 1_555 1_555
O43_3 C98_4 1_555 1_555
O46_3 C100_4 1_555 1_555
C98_4 C92_4 1_555 1_555
C99_4 C90_4 1_555 1_555
H79_4 C99_4 1_555 1_555
H80_4 C99_4 1_555 1_555
C100_4 C82_4 1_555 1_555
C101_4 C91_4 1_555 1_555
H81_4 C101_4 1_555 1_555
H82_4 C101_4 1_555 1_555
C102_4 C94_4 1_555 1_555
H83_4 C102_4 1_555 1_555
H84_4 C102_4 1_555 1_555
Ni13_2 N6_3 1_555 1_555
N7_2 Ni15_3 1_555 1_555
N8_2 Ni11_3 1_555 1_555
N9_2 Ni13_3 1_555 1_555
C6_4 C9_4 1_555 1_555
C12_4 C20_4 1_555 1_555
C13_4 C17_4 1_555 1_555
C16_4 C24_4 1_555 1_555
C21_4 C23_4 1_555 1_555
N2_3 C34_4 1_555 1_555
C37_4 C41_4 1_555 1_555
C39_4 C40_4 1_555 1_555
C44_4 C48_4 1_555 1_555
C46_4 C47_4 1_555 1_555
C53_4 C56_4 1_555 1_555
C54_4 C62_4 1_555 1_555
C59_4 C62_4 1_555 1_555
N4_3 C75_4 1_555 1_555
C80_4 C83_4 1_555 1_555
C81_4 C89_4 1_555 1_555
C85_4 C93_4 1_555 1_555
C86_4 C89_4 1_555 1_555
C88_4 C96_4 1_555 1_555
C95_4 C97_4 1_555 1_555
N6_3 C101_4 1_555 1_555
N6_3 C102_4 1_555 1_555
P1_4 O1_4 1_555 1_555
C3_4 P1_4 1_555 1_555
H1_4 C4_4 1_555 1_555
C5_4 P1_4 1_555 1_555
C8_4 C11_4 1_555 1_555
C10_4 C3_4 1_555 1_555
C11_4 H5_4 1_555 1_555
C14_4 C10_4 1_555 1_555
C15_4 C8_4 1_555 1_555
H8_4 C15_4 1_555 1_555
C22_4 C14_4 1_555 1_555
C25_4 C5_4 1_555 1_555
H17_4 C25_4 1_555 1_555
C27_4 C3_4 1_555 1_555
H20_4 C27_4 1_555 1_555
C28_4 C5_4 1_555 1_555
H21_4 C28_4 1_555 1_555
C29_4 C22_4 1_555 1_555
H22_4 C29_4 1_555 1_555
O35_3 C30_4 1_555 1_555
O38_3 C32_4 1_555 1_555
O41_3 C30_4 1_555 1_555
O44_3 C32_4 1_555 1_555
C30_4 C22_4 1_555 1_555
C32_4 C8_4 1_555 1_555
H25_4 C33_4 1_555 1_555
H26_4 C33_4 1_555 1_555
C11_4 C25_4 1_555 1_555
C15_4 C28_4 1_555 1_555
C27_4 C29_4 1_555 1_555
P2_8 O3_8 1_555 1_555
C35_5 P2_8 1_555 1_555
O11_5 C38_5 1_555 1_555
O33 C38_5 1_555 1_555
C36_5 C37_5 1_555 1_555
C37_5 H29_5 1_555 1_555
C38_5 C36_5 1_555 1_555
C39_5 C35_5 1_555 1_555
C40_5 C36_5 1_555 1_555
H31_5 C40_5 1_555 1_555
C41_5 C35_5 1_555 1_555
H32_5 C41_5 1_555 1_555
Ni13_2 O15_5 1_555 1_555
Ni17 O11_5 1_555 1_555
P3_5 O15_5 1_555 1_555
C49_5 P3_5 1_555 1_555
O16_5 Ni17 1_555 1_555
N3_5 Ni17 1_555 1_555
O30 C54_5 1_555 1_555
C50_5 P3_5 1_555 1_555
C51_5 C49_5 1_555 1_555
H37_5 C51_5 1_555 1_555
C52_5 P3_5 1_555 1_555
C53_5 H38_5 1_555 1_555
C54_5 O16_5 1_555 1_555
C55_5 C58_5 1_555 1_555
C56_5 C49_5 1_555 1_555
H39_5 C56_5 1_555 1_555
C57_5 C50_5 1_555 1_555
H40_5 C57_5 1_555 1_555
C58_5 H41_5 1_555 1_555
C59_5 C51_5 1_555 1_555
H42_5 C59_5 1_555 1_555
C60_5 C57_5 1_555 1_555
H43_5 C60_5 1_555 1_555
C61_5 C55_5 1_555 1_555
H44_5 C61_5 1_555 1_555
C62_5 C53_5 1_555 1_555
C63_5 N3_5 1_555 1_555
H45_5 C63_5 1_555 1_555
H46_5 C63_5 1_555 1_555
C64_5 N3_5 1_555 1_555
H47_5 C64_5 1_555 1_555
H48_5 C64_5 1_555 1_555
C65_5 C60_5 1_555 1_555
C66_5 C52_5 1_555 1_555
H49_5 C66_5 1_555 1_555
C67_5 N3_5 1_555 1_555
H50_5 C67_5 1_555 1_555
H51_5 C67_5 1_555 1_555
C68_5 C50_5 1_555 1_555
H52_5 C68_5 1_555 1_555
C69_5 C52_5 1_555 1_555
H53_5 C69_5 1_555 1_555
C70_5 C65_5 1_555 1_555
H54_5 C70_5 1_555 1_555
O36_2 C71_5 1_555 1_555
N4_4 C72_5 1_555 1_555
O39_2 C73_5 1_555 1_555
O42_2 C71_5 1_555 1_555
O45_2 C73_5 1_555 1_555
C71_5 C65_5 1_555 1_555
C72_5 C63_5 1_555 1_555
H55_5 C72_5 1_555 1_555
H56_5 C72_5 1_555 1_555
C73_5 C55_5 1_555 1_555
C74_5 C64_5 1_555 1_555
H57_5 C74_5 1_555 1_555
H58_5 C74_5 1_555 1_555
C75_5 C67_5 1_555 1_555
H59_5 C75_5 1_555 1_555
H60_5 C75_5 1_555 1_555
Ni11 N4_4 1_555 1_555
C37_5 C41_5 1_555 1_555
C39_5 C40_5 1_555 1_555
C53_5 C56_5 1_555 1_555
C54_5 C62_5 1_555 1_555
C58_5 C66_5 1_555 1_555
C59_5 C62_5 1_555 1_555
C61_5 C69_5 1_555 1_555
C68_5 C70_5 1_555 1_555
N4_4 C74_5 1_555 1_555
N4_4 C75_5 1_555 1_555
Ni16 O2_5 1_555 1_555
P2_9 O3_9 1_555 1_555
O2_5 C7_5 1_555 1_555
N1_5 Ni16 1_555 1_555
C2_5 P2_9 1_555 1_555
O29 C7_5 1_555 1_555
O5_5 Ni16 1_555 1_555
O32 C20_5 1_555 1_555
C6_5 H2_5 1_555 1_555
C7_5 C17_5 1_555 1_555
C9_5 C1_5 1_555 1_555
H3_5 C9_5 1_555 1_555
C12_5 C16_5 1_555 1_555
H6_5 C13_5 1_555 1_555
C16_5 H9_5 1_555 1_555
C17_5 C6_5 1_555 1_555
C18_5 N1_5 1_555 1_555
H10_5 C18_5 1_555 1_555
H11_5 C18_5 1_555 1_555
C19_5 N1_5 1_555 1_555
H12_5 C19_5 1_555 1_555
H13_5 C19_5 1_555 1_555
C20_5 O5_5 1_555 1_555
C21_5 C2_5 1_555 1_555
C23_5 C12_5 1_555 1_555
H15_5 C23_5 1_555 1_555
C24_5 C2_5 1_555 1_555
H16_5 C24_5 1_555 1_555
C26_5 N1_5 1_555 1_555
H18_5 C26_5 1_555 1_555
H19_5 C26_5 1_555 1_555
N2_4 C31_5 1_555 1_555
C31_5 C18_5 1_555 1_555
H23_5 C31_5 1_555 1_555
H24_5 C31_5 1_555 1_555
C34_5 C26_5 1_555 1_555
H27_5 C34_5 1_555 1_555
C6_5 C9_5 1_555 1_555
C12_5 C20_5 1_555 1_555
C13_5 C17_5 1_555 1_555
C16_5 C24_5 1_555 1_555
C21_5 C23_5 1_555 1_555
N2_4 C34_5 1_555 1_555
P2_10 O3_10 1_555 1_555
P4_5 O22_5 1_555 1_555
C77_5 P4_5 1_555 1_555
H61_5 C78_5 1_555 1_555
C79_5 P4_5 1_555 1_555
C82_5 C85_5 1_555 1_555
C84_5 C77_5 1_555 1_555
H64_5 C84_5 1_555 1_555
C85_5 H65_5 1_555 1_555
C87_5 C84_5 1_555 1_555
H67_5 C87_5 1_555 1_555
C88_5 C82_5 1_555 1_555
H68_5 C88_5 1_555 1_555
C92_5 C87_5 1_555 1_555
C93_5 C79_5 1_555 1_555
C95_5 C77_5 1_555 1_555
H76_5 C95_5 1_555 1_555
C96_5 C79_5 1_555 1_555
H77_5 C96_5 1_555 1_555
C97_5 C92_5 1_555 1_555
H78_5 C97_5 1_555 1_555
O37_2 C98_5 1_555 1_555
O40_2 C100_5 1_555 1_555
O43_2 C98_5 1_555 1_555
O46_2 C100_5 1_555 1_555
C98_5 C92_5 1_555 1_555
C100_5 C82_5 1_555 1_555
H81_5 C101_5 1_555 1_555
H82_5 C101_5 1_555 1_555
C85_5 C93_5 1_555 1_555
C88_5 C96_5 1_555 1_555
C95_5 C97_5 1_555 1_555
P1_5 O1_5 1_555 1_555
P2_11 O3_11 1_555 1_555
C3_5 P1_5 1_555 1_555
H1_5 C4_5 1_555 1_555
C5_5 P1_5 1_555 1_555
C8_5 C11_5 1_555 1_555
C10_5 C3_5 1_555 1_555
H4_5 C10_5 1_555 1_555
C11_5 H5_5 1_555 1_555
C14_5 C10_5 1_555 1_555
H7_5 C14_5 1_555 1_555
C15_5 C8_5 1_555 1_555
H8_5 C15_5 1_555 1_555
C22_5 C14_5 1_555 1_555
C25_5 C5_5 1_555 1_555
C27_5 C3_5 1_555 1_555
H20_5 C27_5 1_555 1_555
C28_5 C5_5 1_555 1_555
H21_5 C28_5 1_555 1_555
C29_5 C22_5 1_555 1_555
H22_5 C29_5 1_555 1_555
O35_2 C30_5 1_555 1_555
O38_2 C32_5 1_555 1_555
O41_2 C30_5 1_555 1_555
O44_2 C32_5 1_555 1_555
C30_5 C22_5 1_555 1_555
C32_5 C8_5 1_555 1_555
H25_5 C33_5 1_555 1_555
H26_5 C33_5 1_555 1_555
C42_5 P2_11 1_555 1_555
O13_5 C45_5 1_555 1_555
O34 C45_5 1_555 1_555
C43_5 C44_5 1_555 1_555
C44_5 H33_5 1_555 1_555
C45_5 C43_5 1_555 1_555
C46_5 C42_5 1_555 1_555
H34_5 C46_5 1_555 1_555
C47_5 C43_5 1_555 1_555
H35_5 C47_5 1_555 1_555
C48_5 C42_5 1_555 1_555
H36_5 C48_5 1_555 1_555
Ni18 O13_5 1_555 1_555
O23_5 Ni18 1_555 1_555
N5_5 Ni18 1_555 1_555
O31 C81_5 1_555 1_555
C80_5 H62_5 1_555 1_555
C81_5 O23_5 1_555 1_555
C83_5 C76_5 1_555 1_555
H63_5 C83_5 1_555 1_555
H66_5 C86_5 1_555 1_555
C89_5 C80_5 1_555 1_555
C90_5 N5_5 1_555 1_555
H69_5 C90_5 1_555 1_555
H70_5 C90_5 1_555 1_555
C91_5 N5_5 1_555 1_555
H71_5 C91_5 1_555 1_555
H72_5 C91_5 1_555 1_555
C94_5 N5_5 1_555 1_555
H74_5 C94_5 1_555 1_555
H75_5 C94_5 1_555 1_555
N6_4 C99_5 1_555 1_555
C99_5 C90_5 1_555 1_555
H79_5 C99_5 1_555 1_555
H80_5 C99_5 1_555 1_555
C102_5 C94_5 1_555 1_555
H83_5 C102_5 1_555 1_555
C11_5 C25_5 1_555 1_555
C15_5 C28_5 1_555 1_555
C27_5 C29_5 1_555 1_555
C44_5 C48_5 1_555 1_555
C46_5 C47_5 1_555 1_555
C80_5 C83_5 1_555 1_555
C81_5 C89_5 1_555 1_555
C86_5 C89_5 1_555 1_555
N6_4 C102_5 1_555 1_555
C52_6 P3_6 1_555 1_555
C55_6 C58_6 1_555 1_555
C58_6 H41_6 1_555 1_555
C61_6 C55_6 1_555 1_555
H44_6 C61_6 1_555 1_555
C66_6 C52_6 1_555 1_555
H49_6 C66_6 1_555 1_555
C69_6 C52_6 1_555 1_555
H53_6 C69_6 1_555 1_555
O39 C73_6 1_555 1_555
O45 C73_6 1_555 1_555
C73_6 C55_6 1_555 1_555
C58_6 C66_6 1_555 1_555
C61_6 C69_6 1_555 1_555
N3_6 Ni17_3 1_555 1_555
C63_6 N3_6 1_555 1_555
H45_6 C63_6 1_555 1_555
H46_6 C63_6 1_555 1_555
C64_6 N3_6 1_555 1_555
H47_6 C64_6 1_555 1_555
N8_2 C72_6 1_555 1_555
C72_6 C63_6 1_555 1_555
H55_6 C72_6 1_555 1_555
H56_6 C72_6 1_555 1_555
C74_6 C64_6 1_555 1_555
H58_6 C74_6 1_555 1_555
N8_2 C74_6 1_555 1_555
Ni11 O1_6 1_555 1_555
P1_6 O1_6 1_555 1_555
C1_6 P1_6 1_555 1_555
O2_6 C7_6 1_555 1_555
O29_3 C7_6 1_555 1_555
C3_6 P1_6 1_555 1_555
C4_6 C1_6 1_555 1_555
H1_6 C4_6 1_555 1_555
C5_6 P1_6 1_555 1_555
C6_6 H2_6 1_555 1_555
C7_6 C17_6 1_555 1_555
C8_6 C11_6 1_555 1_555
C9_6 C1_6 1_555 1_555
H3_6 C9_6 1_555 1_555
C10_6 C3_6 1_555 1_555
H4_6 C10_6 1_555 1_555
C11_6 H5_6 1_555 1_555
C13_6 C4_6 1_555 1_555
H6_6 C13_6 1_555 1_555
C14_6 C10_6 1_555 1_555
H7_6 C14_6 1_555 1_555
C15_6 C8_6 1_555 1_555
H8_6 C15_6 1_555 1_555
C17_6 C6_6 1_555 1_555
C22_6 C14_6 1_555 1_555
C25_6 C5_6 1_555 1_555
H17_6 C25_6 1_555 1_555
C27_6 C3_6 1_555 1_555
H20_6 C27_6 1_555 1_555
C28_6 C5_6 1_555 1_555
H21_6 C28_6 1_555 1_555
C29_6 C22_6 1_555 1_555
H22_6 C29_6 1_555 1_555
O35 C30_6 1_555 1_555
O38 C32_6 1_555 1_555
O41 C30_6 1_555 1_555
O44 C32_6 1_555 1_555
C30_6 C22_6 1_555 1_555
C32_6 C8_6 1_555 1_555
O30_3 C54_6 1_555 1_555
C51_6 C49_6 1_555 1_555
H37_6 C51_6 1_555 1_555
C53_6 H38_6 1_555 1_555
C56_6 C49_6 1_555 1_555
C57_6 C50_6 1_555 1_555
H40_6 C57_6 1_555 1_555
C59_6 C51_6 1_555 1_555
H42_6 C59_6 1_555 1_555
C60_6 C57_6 1_555 1_555
H43_6 C60_6 1_555 1_555
C62_6 C53_6 1_555 1_555
C65_6 C60_6 1_555 1_555
C68_6 C50_6 1_555 1_555
H52_6 C68_6 1_555 1_555
C70_6 C65_6 1_555 1_555
H54_6 C70_6 1_555 1_555
O36 C71_6 1_555 1_555
O42 C71_6 1_555 1_555
C71_6 C65_6 1_555 1_555
O31_3 C81_6 1_555 1_555
C78_6 C76_6 1_555 1_555
H61_6 C78_6 1_555 1_555
C80_6 H62_6 1_555 1_555
C83_6 C76_6 1_555 1_555
C84_6 C77_6 1_555 1_555
H64_6 C84_6 1_555 1_555
C86_6 C78_6 1_555 1_555
H66_6 C86_6 1_555 1_555
C87_6 C84_6 1_555 1_555
H67_6 C87_6 1_555 1_555
C89_6 C80_6 1_555 1_555
C92_6 C87_6 1_555 1_555
C95_6 C77_6 1_555 1_555
H76_6 C95_6 1_555 1_555
C97_6 C92_6 1_555 1_555
H78_6 C97_6 1_555 1_555
O37 C98_6 1_555 1_555
O43 C98_6 1_555 1_555
C98_6 C92_6 1_555 1_555
C6_6 C9_6 1_555 1_555
C11_6 C25_6 1_555 1_555
C13_6 C17_6 1_555 1_555
C15_6 C28_6 1_555 1_555
C27_6 C29_6 1_555 1_555
C53_6 C56_6 1_555 1_555
C54_6 C62_6 1_555 1_555
C59_6 C62_6 1_555 1_555
C68_6 C70_6 1_555 1_555
C80_6 C83_6 1_555 1_555
C81_6 C89_6 1_555 1_555
C86_6 C89_6 1_555 1_555
C95_6 C97_6 1_555 1_555
P2_12 O3_12 1_555 1_555
N1_6 Ni16_3 1_555 1_555
C2_6 P2_12 1_555 1_555
O5_6 Ni16_3 1_555 1_555
C12_6 C16_6 1_555 1_555
C16_6 H9_6 1_555 1_555
C18_6 N1_6 1_555 1_555
H10_6 C18_6 1_555 1_555
H11_6 C18_6 1_555 1_555
C19_6 N1_6 1_555 1_555
H12_6 C19_6 1_555 1_555
H13_6 C19_6 1_555 1_555
C20_6 O5_6 1_555 1_555
C21_6 C2_6 1_555 1_555
H14_6 C21_6 1_555 1_555
C23_6 C12_6 1_555 1_555
C24_6 C2_6 1_555 1_555
H16_6 C24_6 1_555 1_555
C26_6 N1_6 1_555 1_555
H18_6 C26_6 1_555 1_555
H19_6 C26_6 1_555 1_555
N7_2 C31_6 1_555 1_555
C31_6 C18_6 1_555 1_555
H23_6 C31_6 1_555 1_555
H24_6 C31_6 1_555 1_555
C33_6 C19_6 1_555 1_555
H25_6 C33_6 1_555 1_555
H26_6 C33_6 1_555 1_555
C34_6 C26_6 1_555 1_555
H27_6 C34_6 1_555 1_555
H28_6 C34_6 1_555 1_555
C35_6 P2_12 1_555 1_555
O11_6 C38_6 1_555 1_555
C36_6 C37_6 1_555 1_555
C37_6 H29_6 1_555 1_555
C38_6 C36_6 1_555 1_555
C39_6 C35_6 1_555 1_555
H30_6 C39_6 1_555 1_555
C40_6 C36_6 1_555 1_555
C41_6 C35_6 1_555 1_555
H32_6 C41_6 1_555 1_555
C42_6 P2_12 1_555 1_555
O13_6 C45_6 1_555 1_555
C43_6 C44_6 1_555 1_555
C44_6 H33_6 1_555 1_555
C45_6 C43_6 1_555 1_555
C46_6 C42_6 1_555 1_555
H34_6 C46_6 1_555 1_555
C47_6 C43_6 1_555 1_555
C48_6 C42_6 1_555 1_555
H36_6 C48_6 1_555 1_555
H50_6 C67_6 1_555 1_555
H51_6 C67_6 1_555 1_555
C75_6 C67_6 1_555 1_555
H59_6 C75_6 1_555 1_555
H60_6 C75_6 1_555 1_555
H74_6 C94_6 1_555 1_555
H75_6 C94_6 1_555 1_555
C102_6 C94_6 1_555 1_555
H83_6 C102_6 1_555 1_555
H84_6 C102_6 1_555 1_555
C12_6 C20_6 1_555 1_555
C16_6 C24_6 1_555 1_555
C21_6 C23_6 1_555 1_555
N7_2 C33_6 1_555 1_555
N7_2 C34_6 1_555 1_555
C37_6 C41_6 1_555 1_555
C39_6 C40_6 1_555 1_555
C44_6 C48_6 1_555 1_555
C46_6 C47_6 1_555 1_555
C79_6 P4_6 1_555 1_555
C82_6 C85_6 1_555 1_555
C85_6 H65_6 1_555 1_555
C88_6 C82_6 1_555 1_555
H68_6 C88_6 1_555 1_555
C93_6 C79_6 1_555 1_555
H73_6 C93_6 1_555 1_555
C96_6 C79_6 1_555 1_555
H77_6 C96_6 1_555 1_555
O40 C100_6 1_555 1_555
O46 C100_6 1_555 1_555
C100_6 C82_6 1_555 1_555
C85_6 C93_6 1_555 1_555
C88_6 C96_6 1_555 1_555
N5_6 Ni18_3 1_555 1_555
C90_6 N5_6 1_555 1_555
H69_6 C90_6 1_555 1_555
H70_6 C90_6 1_555 1_555
C91_6 N5_6 1_555 1_555
H71_6 C91_6 1_555 1_555
N9_2 C99_6 1_555 1_555
C99_6 C90_6 1_555 1_555
H79_6 C99_6 1_555 1_555
H80_6 C99_6 1_555 1_555
C101_6 C91_6 1_555 1_555
H82_6 C101_6 1_555 1_555
N9_2 C101_6 1_555 1_555

#END
