
###############################################################################
#
# This file contains modified crystal structure data generated from the
# MOF subset of the Cambridge Structural Database (CSD) v543 
# hosted by the Cambridge Crystallographic Data Centre (CCDC).
#
# This work is licensed under the Creative Commons
# Attribution-NonCommercial-ShareAlike 4.0 International License.
# To view a copy of this license, visit
# http://creativecommons.org/licenses/by-nc-sa/4.0/
# or send a letter to
# Creative Commons, PO Box 1866, Mountain View, CA 94042, USA.
#
# CIF created using the CSD Python API on 29 September 2022
# The structure has been converted into the P1 space group
# The structure has a 3D framework
# The original CSD entry KOFPEB04 is in the trigonal crystal system
# The framework has been calculated to contain at least 10.0% void space
# The void calculation uses a probe of radius 1.32A, grid spacing 0.4
# H atom positions have been added when not included in the experimental data
#
###############################################################################

data_KOFPEB04
_chemical_formula_moiety         '(C48 H84 Cu9 La4 N12 O48)n'
_symmetry_cell_setting           triclinic
_symmetry_space_group_name_H-M   'P 1'
_symmetry_Int_Tables_number      1
_space_group_name_Hall           'P 1'
loop_
_symmetry_equiv_pos_site_id
_symmetry_equiv_pos_as_xyz
1 x,y,z
_cell_length_a                   13.3819(19)
_cell_length_b                   13.3819(19)
_cell_length_c                   14.933(3)
_cell_angle_alpha                90
_cell_angle_beta                 90
_cell_angle_gamma                120
_cell_volume                     2315.87
loop_
_atom_site_label
_atom_site_type_symbol
_atom_site_fract_x
_atom_site_fract_y
_atom_site_fract_z
H26 H 0.0261 0.6730 0.5754
H30 H 0.0261 0.3531 0.0754
O11 O 0.1822(3) 0.5445(4) 0.5578(2)
O24 O 0.0758(4) 0.5983(5) 0.3964(2)
Cu2 Cu -0.0000 0.5000 0.5000
Cu6 Cu 0.0000 0.5000 0.0000
N8 N 0.0387(3) 0.3876(5) 0.4430(3)
H38 H 0.0920229 0.425396 0.39001
H39 H 0.0781651 0.362408 0.4884
Cu6_2 Cu 0.0000 0.5000 1.0000
H1 H 0.8004 0.1464 0.5362
H2 H 0.7583 0.0419 0.4574
H3 H 0.7278 0.1871 0.6202
H4 H 0.6705 0.0653 0.6842
C1 C 0.7299(4) 0.1799(4) 0.4329(3)
C2 C 0.7465(4) 0.0958(5) 0.4918(3)
C3 C 0.6672(5) 0.1116(5) 0.6367(3)
C4 C 0.5614(5) 0.1214(4) 0.6563(3)
O1 O 0.6377(3) 0.1822(3) 0.4422(2)
O2 O 0.8055(3) 0.2399(3) 0.3770(2)
O3 O 0.4775(3) 0.0758(4) 0.6036(2)
O4 O 0.5628(4) 0.1757(5) 0.7241(3)
La1 La 0.6667 0.3333 0.32982(2)
Cu1 Cu 0.5000 -0.0000 0.5000
N1 N 0.6511(4) 0.0387(3) 0.5570(3)
H6 H 0.8536 0.6540 0.5362
H7 H 0.3460 0.1996 0.5362
H8 H 0.3460 0.1464 0.0362
H9 H 0.8004 0.6540 0.0362
H10 H 0.8536 0.1996 0.0362
H11 H 0.9581 0.7164 0.4574
H12 H 0.2836 0.2417 0.4574
H16 H 0.8129 0.5407 0.6202
H17 H 0.4593 0.2722 0.6202
H18 H 0.4593 0.1871 0.1202
H19 H 0.7278 0.5407 0.1202
H20 H 0.8129 0.2722 0.1202
H21 H 0.9347 0.6052 0.6842
H22 H 0.3948 0.3295 0.6842
H23 H 0.3948 0.0653 0.1842
H24 H 0.6705 0.6052 0.1842
H25 H 0.9347 0.3295 0.1842
H27 H 0.3270 0.3531 0.5754
H29 H 0.6469 0.6730 0.0754
H31 H 0.3531 0.0261 0.4246
H32 H 0.9739 0.3270 0.4246
H33 H 0.6730 0.6469 0.4246
C5 C 0.8201(4) 0.5500(6) 0.4329(3)
C6 C 0.4500(6) 0.2701(4) 0.4329(3)
C10 C 0.9042(5) 0.6507(6) 0.4918(3)
C11 C 0.3493(6) 0.2535(4) 0.4918(3)
C15 C 0.8884(5) 0.5556(7) 0.6367(3)
C16 C 0.4444(7) 0.3328(5) 0.6367(3)
C17 C 0.4444(7) 0.1116(5) 0.1367(3)
C18 C 0.6672(5) 0.5556(7) 0.1367(3)
C19 C 0.8884(5) 0.3328(5) 0.1367(3)
C20 C 0.8786(4) 0.4400(6) 0.6563(3)
C21 C 0.5600(6) 0.4386(5) 0.6563(3)
C22 C 0.5600(6) 0.1214(4) 0.1563(3)
C23 C 0.5614(5) 0.4400(6) 0.1563(3)
C24 C 0.8786(4) 0.4386(5) 0.1563(3)
O5 O 0.8178(3) 0.4555(4) 0.4422(2)
O6 O 0.5445(4) 0.3623(3) 0.4422(2)
O12 O 0.4555(4) 0.6377(3) 0.5578(2)
O13 O 0.7601(3) 0.5656(4) 0.3770(2)
O14 O 0.4344(4) 0.1945(3) 0.3770(2)
O18 O 0.9242(4) 0.4017(5) 0.6036(2)
O19 O 0.5983(5) 0.5225(3) 0.6036(2)
O20 O 0.5983(5) 0.0758(4) 0.1036(2)
O21 O 0.4775(3) 0.4017(5) 0.1036(2)
O22 O 0.9242(4) 0.5225(3) 0.1036(2)
O25 O 0.4017(5) 0.4775(3) 0.3964(2)
O26 O 0.8243(5) 0.3871(6) 0.7241(3)
O27 O 0.6129(6) 0.4372(4) 0.7241(3)
O28 O 0.6129(6) 0.1757(5) 0.2241(3)
O29 O 0.5628(4) 0.3871(6) 0.2241(3)
O30 O 0.8243(5) 0.4372(4) 0.2241(3)
La3 La 0.6666 0.3333 0.82982(2)
Cu2_2 Cu 1.0000 0.5000 0.5000
Cu3 Cu 0.5000 0.5000 0.5000
Cu4 Cu 0.5000 0.0000 0.0000
Cu5 Cu 0.5000 0.5000 0.0000
Cu6_3 Cu 1.0000 0.5000 0.0000
N2 N 0.9613(3) 0.6124(5) 0.5570(3)
N3 N 0.3876(5) 0.3489(4) 0.5570(3)
N4 N 0.3876(5) 0.0387(3) 0.0570(3)
N5 N 0.6511(4) 0.6124(5) 0.0570(3)
N6 N 0.9613(3) 0.3489(4) 0.0570(3)
N9 N 0.6124(5) 0.6511(4) 0.4430(3)
H36 H 0.574604 0.666627 0.39001
H37 H 0.637592 0.715757 0.4884
H13 H 0.2836 0.0419 0.9574
H14 H 0.7583 0.7164 0.9574
H15 H 0.9581 0.2417 0.9574
C7 C 0.4500(6) 0.1799(4) 0.9329(3)
C8 C 0.7299(4) 0.5500(6) 0.9329(3)
C9 C 0.8201(4) 0.2701(4) 0.9329(3)
C12 C 0.3493(6) 0.0958(5) 0.9918(3)
C13 C 0.7465(4) 0.6507(6) 0.9918(3)
C14 C 0.9042(5) 0.2535(4) 0.9918(3)
O7 O 0.5445(4) 0.1822(3) 0.9422(2)
O8 O 0.6377(3) 0.4555(4) 0.9422(2)
O9 O 0.8178(3) 0.3623(3) 0.9422(2)
O15 O 0.4344(4) 0.2399(3) 0.8770(2)
O16 O 0.8055(3) 0.5656(4) 0.8770(2)
O17 O 0.7601(3) 0.1945(3) 0.8770(2)
Cu4_2 Cu 0.5000 0.0000 1.0000
Cu5_2 Cu 0.5000 0.5000 1.0000
Cu6_4 Cu 1.0000 0.5000 1.0000
H5 H 0.6469 0.9739 0.5754
Cu1_2 Cu 0.5000 1.0000 0.5000
H28 H 0.3270 0.9739 0.0754
O10 O 0.3623(3) 0.8178(3) 0.5578(2)
O23 O 0.5225(3) 0.9242(4) 0.3964(2)
Cu4_3 Cu 0.5000 1.0000 0.0000
N7 N 0.3489(4) 0.9613(3) 0.4430(3)
H34 H 0.284243 0.921835 0.4884
H35 H 0.333373 0.907977 0.39001
Cu4_4 Cu 0.5000 1.0000 1.0000
H38_2 H 0.425396 0.0920229 0.10999
H39_2 H 0.362408 0.0781651 0.0116001
H26_2 H 0.6730 0.0261 0.9246
H2_2 H 0.0419 0.7583 0.0426
C1_2 C 0.1799(4) 0.7299(4) 0.0671(3)
C2_2 C 0.0958(5) 0.7465(4) 0.0082(3)
O1_2 O 0.1822(3) 0.6377(3) 0.0578(2)
O2_2 O 0.2399(3) 0.8055(3) 0.1230(2)
La1_2 La 0.3333 0.6667 0.17018(2)
H8_2 H 0.1464 0.3460 0.4638
H9_2 H 0.6540 0.8004 0.4638
H10_2 H 0.1996 0.8536 0.4638
H11_2 H 0.7164 0.9581 0.0426
H12_2 H 0.2417 0.2836 0.0426
H13_2 H 0.0419 0.2836 0.5426
H14_2 H 0.7164 0.7583 0.5426
H15_2 H 0.2417 0.9581 0.5426
H18_2 H 0.1871 0.4593 0.3798
H19_2 H 0.5407 0.7278 0.3798
H20_2 H 0.2722 0.8129 0.3798
H23_2 H 0.0653 0.3948 0.3158
H24_2 H 0.6052 0.6705 0.3158
H25_2 H 0.3295 0.9347 0.3158
C5_2 C 0.5500(6) 0.8201(4) 0.0671(3)
C6_2 C 0.2701(4) 0.4500(6) 0.0671(3)
C7_2 C 0.1799(4) 0.4500(6) 0.5671(3)
C8_2 C 0.5500(6) 0.7299(4) 0.5671(3)
C9_2 C 0.2701(4) 0.8201(4) 0.5671(3)
C10_2 C 0.6507(6) 0.9042(5) 0.0082(3)
C11_2 C 0.2535(4) 0.3493(6) 0.0082(3)
C12_2 C 0.0958(5) 0.3493(6) 0.5082(3)
C13_2 C 0.6507(6) 0.7465(4) 0.5082(3)
C14_2 C 0.2535(4) 0.9042(5) 0.5082(3)
C17_2 C 0.1116(5) 0.4444(7) 0.3633(3)
C18_2 C 0.5556(7) 0.6672(5) 0.3633(3)
C19_2 C 0.3328(5) 0.8884(5) 0.3633(3)
C22_2 C 0.1214(4) 0.5600(6) 0.3437(3)
C23_2 C 0.4400(6) 0.5614(5) 0.3437(3)
C24_2 C 0.4386(5) 0.8786(4) 0.3437(3)
O5_2 O 0.4555(4) 0.8178(3) 0.0578(2)
O6_2 O 0.3623(3) 0.5445(4) 0.0578(2)
O13_2 O 0.5656(4) 0.7601(3) 0.1230(2)
O14_2 O 0.1945(3) 0.4344(4) 0.1230(2)
O15_2 O 0.2399(3) 0.4344(4) 0.6230(2)
O16_2 O 0.5656(4) 0.8055(3) 0.6230(2)
O17_2 O 0.1945(3) 0.7601(3) 0.6230(2)
O28_2 O 0.1757(5) 0.6129(6) 0.2759(3)
O29_2 O 0.3871(6) 0.5628(4) 0.2759(3)
O30_2 O 0.4372(4) 0.8243(5) 0.2759(3)
O31 O 0.1757(5) 0.5628(4) 0.7759(3)
O32 O 0.3871(6) 0.8243(5) 0.7759(3)
O33 O 0.4372(4) 0.6129(6) 0.7759(3)
La2 La 0.3333 0.6666 0.67018(2)
H36_2 H 0.666627 0.574604 0.10999
H37_2 H 0.715757 0.637592 0.0116001
H1_2 H 0.1464 0.8004 0.9638
H3_2 H 0.1871 0.7278 0.8798
H4_2 H 0.0653 0.6705 0.8158
C3_2 C 0.1116(5) 0.6672(5) 0.8633(3)
C4_2 C 0.1214(4) 0.5614(5) 0.8437(3)
O3_2 O 0.0758(4) 0.4775(3) 0.8964(2)
N1_2 N 0.0387(3) 0.6511(4) 0.9430(3)
H6_2 H 0.6540 0.8536 0.9638
H7_2 H 0.1996 0.3460 0.9638
H16_2 H 0.5407 0.8129 0.8798
H17_2 H 0.2722 0.4593 0.8798
H21_2 H 0.6052 0.9347 0.8158
H22_2 H 0.3295 0.3948 0.8158
H27_2 H 0.3531 0.3270 0.9246
C15_2 C 0.5556(7) 0.8884(5) 0.8633(3)
C16_2 C 0.3328(5) 0.4444(7) 0.8633(3)
C20_2 C 0.4400(6) 0.8786(4) 0.8437(3)
C21_2 C 0.4386(5) 0.5600(6) 0.8437(3)
O18_2 O 0.4017(5) 0.9242(4) 0.8964(2)
O19_2 O 0.5225(3) 0.5983(5) 0.8964(2)
N2_2 N 0.6124(5) 0.9613(3) 0.9430(3)
N3_2 N 0.3489(4) 0.3876(5) 0.9430(3)
H34_2 H 0.921835 0.284243 0.0116001
H35_2 H 0.907977 0.333373 0.10999
H5_2 H 0.9739 0.6469 0.9246
H34_3 H 0.715757 0.0781651 0.5116
H35_3 H 0.666627 0.0920229 0.60999
H36_3 H 0.425396 0.333373 0.60999
H37_3 H 0.362408 0.284243 0.5116
H38_3 H 0.907977 0.574604 0.60999
H39_3 H 0.921835 0.637592 0.5116
H34_4 H 0.0781651 0.715757 0.9884
H35_4 H 0.0920229 0.666627 0.89001
H36_4 H 0.333373 0.425396 0.89001
H37_4 H 0.284243 0.362408 0.9884
H38_4 H 0.574604 0.907977 0.89001
H39_4 H 0.637592 0.921835 0.9884
loop_
_geom_bond_atom_site_label_1
_geom_bond_atom_site_label_2
_geom_bond_site_symmetry_1
_geom_bond_site_symmetry_2
O11 Cu2 1_555 1_555
O24 Cu2 1_555 1_555
N8 Cu2 1_555 1_555
N8 H38 1_555 1_555
N8 H39 1_555 1_555
H1 C2 1_555 1_555
H2 C2 1_555 1_555
H3 C3 1_555 1_555
H4 C3 1_555 1_555
C1 C2 1_555 1_555
C2 N1 1_555 1_555
C3 C4 1_555 1_555
C4 O3 1_555 1_555
O1 C1 1_555 1_555
O2 C1 1_555 1_555
O3 Cu1 1_555 1_555
O4 C4 1_555 1_555
La1 O1 1_555 1_555
Cu1 O1 1_555 1_555
N1 C3 1_555 1_555
H6 C10 1_555 1_555
H7 C11 1_555 1_555
H11 C10 1_555 1_555
H12 C11 1_555 1_555
H16 C15 1_555 1_555
H17 C16 1_555 1_555
H18 C17 1_555 1_555
H19 C18 1_555 1_555
H20 C19 1_555 1_555
H21 C15 1_555 1_555
H22 C16 1_555 1_555
H23 C17 1_555 1_555
H24 C18 1_555 1_555
H25 C19 1_555 1_555
H27 N3 1_555 1_555
H29 N5 1_555 1_555
H33 N9 1_555 1_555
C5 C10 1_555 1_555
C6 C11 1_555 1_555
C10 N2 1_555 1_555
C11 N3 1_555 1_555
C15 C20 1_555 1_555
C16 C21 1_555 1_555
C17 C22 1_555 1_555
C18 C23 1_555 1_555
C19 C24 1_555 1_555
C20 O18 1_555 1_555
C21 O19 1_555 1_555
C22 O20 1_555 1_555
C23 O21 1_555 1_555
C24 O22 1_555 1_555
O5 La1 1_555 1_555
O6 La1 1_555 1_555
O12 Cu3 1_555 1_555
O13 La1 1_555 1_555
O14 La1 1_555 1_555
O18 Cu2_2 1_555 1_555
O19 Cu3 1_555 1_555
O20 Cu4 1_555 1_555
O21 Cu5 1_555 1_555
O22 Cu6_3 1_555 1_555
O25 Cu3 1_555 1_555
O26 C20 1_555 1_555
O27 C21 1_555 1_555
O28 La1 1_555 1_555
O29 La1 1_555 1_555
O30 La1 1_555 1_555
La3 O4 1_555 1_555
Cu2_2 O5 1_555 1_555
Cu3 O6 1_555 1_555
N2 C15 1_555 1_555
N3 C16 1_555 1_555
N4 C17 1_555 1_555
N5 C18 1_555 1_555
N6 C19 1_555 1_555
N9 Cu3 1_555 1_555
O2 La1 1_555 1_555
Cu1 N1 1_555 1_555
C5 O5 1_555 1_555
C5 O13 1_555 1_555
C6 O6 1_555 1_555
C6 O14 1_555 1_555
C22 O28 1_555 1_555
C23 O29 1_555 1_555
C24 O30 1_555 1_555
O26 La3 1_555 1_555
O27 La3 1_555 1_555
Cu2_2 N2 1_555 1_555
Cu3 N3 1_555 1_555
Cu4 N4 1_555 1_555
Cu5 N5 1_555 1_555
Cu6_3 N6 1_555 1_555
N9 H36 1_555 1_555
N9 H37 1_555 1_555
H13 C12 1_555 1_555
H14 C13 1_555 1_555
H15 C14 1_555 1_555
C7 C12 1_555 1_555
C8 C13 1_555 1_555
C9 C14 1_555 1_555
O7 C7 1_555 1_555
O8 C8 1_555 1_555
O9 C9 1_555 1_555
O15 C7 1_555 1_555
O16 C8 1_555 1_555
O17 C9 1_555 1_555
La3 O7 1_555 1_555
Cu4_2 O7 1_555 1_555
Cu5_2 O8 1_555 1_555
Cu6_4 O9 1_555 1_555
O8 La3 1_555 1_555
O9 La3 1_555 1_555
O15 La3 1_555 1_555
O16 La3 1_555 1_555
O17 La3 1_555 1_555
O10 Cu1_2 1_555 1_555
O23 Cu1_2 1_555 1_555
N7 Cu1_2 1_555 1_555
N7 H34 1_555 1_555
N7 H35 1_555 1_555
N4 H38_2 1_555 1_555
N4 H39_2 1_555 1_555
H2_2 C2_2 1_555 1_555
C1_2 C2_2 1_555 1_555
O1_2 C1_2 1_555 1_555
O2_2 C1_2 1_555 1_555
La1_2 O1_2 1_555 1_555
Cu6 O1_2 1_555 1_555
H8_2 C12_2 1_555 1_555
H9_2 C13_2 1_555 1_555
H10_2 C14_2 1_555 1_555
H11_2 C10_2 1_555 1_555
H12_2 C11_2 1_555 1_555
H13_2 C12_2 1_555 1_555
H14_2 C13_2 1_555 1_555
H15_2 C14_2 1_555 1_555
H18_2 C17_2 1_555 1_555
H19_2 C18_2 1_555 1_555
H20_2 C19_2 1_555 1_555
H23_2 C17_2 1_555 1_555
H24_2 C18_2 1_555 1_555
H25_2 C19_2 1_555 1_555
C5_2 C10_2 1_555 1_555
C6_2 C11_2 1_555 1_555
C7_2 C12_2 1_555 1_555
C8_2 C13_2 1_555 1_555
C9_2 C14_2 1_555 1_555
C12_2 N8 1_555 1_555
C13_2 N9 1_555 1_555
C14_2 N7 1_555 1_555
C17_2 C22_2 1_555 1_555
C18_2 C23_2 1_555 1_555
C19_2 C24_2 1_555 1_555
C22_2 O24 1_555 1_555
C23_2 O25 1_555 1_555
C24_2 O23 1_555 1_555
O5_2 La1_2 1_555 1_555
O6_2 La1_2 1_555 1_555
O11 C7_2 1_555 1_555
O12 C8_2 1_555 1_555
O10 C9_2 1_555 1_555
O13_2 La1_2 1_555 1_555
O14_2 La1_2 1_555 1_555
O15_2 C7_2 1_555 1_555
O16_2 C8_2 1_555 1_555
O17_2 C9_2 1_555 1_555
O28_2 La1_2 1_555 1_555
O29_2 La1_2 1_555 1_555
O30_2 La1_2 1_555 1_555
O31 La2 1_555 1_555
O32 La2 1_555 1_555
O33 La2 1_555 1_555
La2 O11 1_555 1_555
Cu4_3 O5_2 1_555 1_555
Cu5 O6_2 1_555 1_555
N8 C17_2 1_555 1_555
N9 C18_2 1_555 1_555
N7 C19_2 1_555 1_555
O2_2 La1_2 1_555 1_555
C5_2 O5_2 1_555 1_555
C5_2 O13_2 1_555 1_555
C6_2 O6_2 1_555 1_555
C6_2 O14_2 1_555 1_555
C22_2 O28_2 1_555 1_555
C23_2 O29_2 1_555 1_555
C24_2 O30_2 1_555 1_555
O12 La2 1_555 1_555
O10 La2 1_555 1_555
O15_2 La2 1_555 1_555
O16_2 La2 1_555 1_555
O17_2 La2 1_555 1_555
N5 H36_2 1_555 1_555
N5 H37_2 1_555 1_555
H3_2 C3_2 1_555 1_555
H4_2 C3_2 1_555 1_555
C3_2 C4_2 1_555 1_555
C4_2 O3_2 1_555 1_555
O3_2 Cu6_2 1_555 1_555
O31 C4_2 1_555 1_555
N1_2 C3_2 1_555 1_555
H16_2 C15_2 1_555 1_555
H17_2 C16_2 1_555 1_555
H21_2 C15_2 1_555 1_555
H22_2 C16_2 1_555 1_555
H27_2 N3_2 1_555 1_555
C15_2 C20_2 1_555 1_555
C16_2 C21_2 1_555 1_555
C20_2 O18_2 1_555 1_555
C21_2 O19_2 1_555 1_555
O18_2 Cu4_4 1_555 1_555
O19_2 Cu5_2 1_555 1_555
O32 C20_2 1_555 1_555
O33 C21_2 1_555 1_555
N2_2 C15_2 1_555 1_555
N3_2 C16_2 1_555 1_555
Cu6_2 N1_2 1_555 1_555
Cu4_4 N2_2 1_555 1_555
Cu5_2 N3_2 1_555 1_555
N6 H34_2 1_555 1_555
N6 H35_2 1_555 1_555
N1 H34_3 1_555 1_555
N1 H35_3 1_555 1_555
N3 H36_3 1_555 1_555
N3 H37_3 1_555 1_555
N2 H38_3 1_555 1_555
N2 H39_3 1_555 1_555
N1_2 H34_4 1_555 1_555
N1_2 H35_4 1_555 1_555
N3_2 H36_4 1_555 1_555
N3_2 H37_4 1_555 1_555
N2_2 H38_4 1_555 1_555
N2_2 H39_4 1_555 1_555

#END
