
###############################################################################
#
# This file contains modified crystal structure data generated from the
# MOF subset of the Cambridge Structural Database (CSD) v543 
# hosted by the Cambridge Crystallographic Data Centre (CCDC).
#
# This work is licensed under the Creative Commons
# Attribution-NonCommercial-ShareAlike 4.0 International License.
# To view a copy of this license, visit
# http://creativecommons.org/licenses/by-nc-sa/4.0/
# or send a letter to
# Creative Commons, PO Box 1866, Mountain View, CA 94042, USA.
#
# CIF created using the CSD Python API on 29 September 2022
# The structure has been converted into the P1 space group
# The structure has a 3D framework
# The original CSD entry KOFPEB is in the trigonal crystal system
# The framework has been calculated to contain at least 10.0% void space
# The void calculation uses a probe of radius 1.32A, grid spacing 0.4
# H atom positions have been added when not included in the experimental data
#
###############################################################################

data_KOFPEB
_chemical_formula_moiety         '(C48 H84 Cu9 La4 N12 O48)n'
_symmetry_cell_setting           triclinic
_symmetry_space_group_name_H-M   'P 1'
_symmetry_Int_Tables_number      1
_space_group_name_Hall           'P 1'
loop_
_symmetry_equiv_pos_site_id
_symmetry_equiv_pos_as_xyz
1 x,y,z
_cell_length_a                   13.5136(19)
_cell_length_b                   13.5136(19)
_cell_length_c                   14.795(3)
_cell_angle_alpha                90
_cell_angle_beta                 90
_cell_angle_gamma                120
_cell_volume                     2339.85
loop_
_atom_site_label
_atom_site_type_symbol
_atom_site_fract_x
_atom_site_fract_y
_atom_site_fract_z
Cu5 Cu 0.5000 0.0000 0.0000
H26 H 0.6718 0.0248 0.4225
H29 H 0.3530 0.0248 0.9225
N8 N 0.3889 0.0388 0.5589
O11 O 0.5479 0.1841 0.4473
O24 O 0.5958 0.0703 0.6068
Cu2 Cu 0.5000 -0.0000 0.5000
Cu5_2 Cu 0.5000 -0.0000 1.0000
H36 H 0.426987 0.0910501 0.612556
H37 H 0.364587 0.0788655 0.513496
H13 H 0.0419 0.2889 0.0450
H14 H 0.2470 0.9581 0.0450
H15 H 0.7111 0.7530 0.0450
C7 C 0.1802 0.4536 0.0647
C8 C 0.2734 0.8198 0.0647
C9 C 0.5464 0.7266 0.0647
C12 C 0.0947 0.3516 0.0085
C13 C 0.2569 0.9053 0.0085
C14 C 0.6484 0.7431 0.0085
O7 O 0.1841 0.5479 0.0527
O8 O 0.3638 0.8159 0.0527
O9 O 0.4521 0.6362 0.0527
O15 O 0.2406 0.4404 0.1220
O16 O 0.1998 0.7594 0.1220
O17 O 0.5596 0.8002 0.1220
O31 O 0.4379 0.6140 0.2739
O32 O 0.3860 0.8239 0.2739
O33 O 0.1761 0.5621 0.2739
Cu4 Cu 0.0000 0.5000 0.0000
Cu5_3 Cu 0.5000 1.0000 0.0000
Cu6 Cu 0.5000 0.5000 0.0000
La2 La 0.3334 0.6667 0.1670
H1 H 0.2002 0.3401 0.4652
H2 H 0.2470 0.2889 0.5450
H3 H 0.2749 0.4635 0.3784
H4 H 0.3295 0.3982 0.3139
H5 H 0.3530 0.3282 0.4225
C1 C 0.2734 0.4536 0.5647
C2 C 0.2569 0.3516 0.5085
C3 C 0.3339 0.4468 0.3623
C4 C 0.4409 0.5611 0.3415
N1 N 0.3501 0.3889 0.4411
O1 O 0.3638 0.5479 0.5527
O2 O 0.1998 0.4404 0.6220
O3 O 0.5255 0.5958 0.3932
Cu1 Cu 0.5000 0.5000 0.5000
La1 La 0.3333 0.6667 0.6670
H6 H 0.6599 0.8601 0.4652
H7 H 0.1399 0.7998 0.4652
H8 H 0.1399 0.3401 0.9652
H9 H 0.2002 0.8601 0.9652
H10 H 0.6599 0.7998 0.9652
H11 H 0.7111 0.9581 0.5450
H12 H 0.0419 0.7530 0.5450
H16 H 0.5365 0.8114 0.3784
H17 H 0.1886 0.7251 0.3784
H18 H 0.1886 0.4635 0.8784
H19 H 0.2749 0.8114 0.8784
H20 H 0.5365 0.7251 0.8784
H21 H 0.6018 0.9313 0.3139
H22 H 0.0687 0.6705 0.3139
H23 H 0.0687 0.3982 0.8139
H24 H 0.3295 0.9313 0.8139
H25 H 0.6018 0.6705 0.8139
H30 H 0.6718 0.6470 0.9225
H31 H 0.6470 0.6718 0.5775
H32 H 0.3282 0.9752 0.5775
H33 H 0.0248 0.3530 0.5775
C5 C 0.5464 0.8198 0.5647
C6 C 0.1802 0.7266 0.5647
C10 C 0.6484 0.9053 0.5085
C11 C 0.0947 0.7431 0.5085
C15 C 0.5532 0.8871 0.3623
C16 C 0.1129 0.6661 0.3623
C17 C 0.1129 0.4468 0.8623
C18 C 0.3339 0.8871 0.8623
C19 C 0.5532 0.6661 0.8623
C20 C 0.4389 0.8798 0.3415
C21 C 0.1202 0.5591 0.3415
C22 C 0.1202 0.5611 0.8415
C23 C 0.4409 0.8798 0.8415
C24 C 0.4389 0.5591 0.8415
N2 N 0.6111 0.9612 0.4411
N3 N 0.0388 0.6499 0.4411
N4 N 0.0388 0.3889 0.9411
N5 N 0.3501 0.9612 0.9411
N6 N 0.6111 0.6499 0.9411
N7 N 0.6499 0.6111 0.5589
O5 O 0.4521 0.8159 0.5527
O6 O 0.1841 0.6362 0.5527
O10 O 0.6362 0.4521 0.4473
O13 O 0.5596 0.7594 0.6220
O14 O 0.2406 0.8002 0.6220
O18 O 0.4042 0.9297 0.3932
O19 O 0.0703 0.4745 0.3932
O20 O 0.0703 0.5958 0.8932
O21 O 0.5255 0.9297 0.8932
O22 O 0.4042 0.4745 0.8932
O23 O 0.4745 0.4042 0.6068
O28 O 0.1761 0.6140 0.7739
O29 O 0.4379 0.8239 0.7739
O30 O 0.3860 0.5621 0.7739
Cu2_2 Cu 0.5000 1.0000 0.5000
Cu3 Cu 0.0000 0.5000 0.5000
Cu4_2 Cu 0.0000 0.5000 1.0000
Cu5_4 Cu 0.5000 1.0000 1.0000
Cu6_2 Cu 0.5000 0.5000 1.0000
H34 H 0.714278 0.635413 0.513496
H35 H 0.664063 0.573013 0.612556
Cu4_3 Cu 1.0000 0.5000 0.0000
H27 H 0.9752 0.6470 0.4225
H28 H 0.9752 0.3282 0.9225
N9 N 0.9612 0.3501 0.5589
O12 O 0.8159 0.3638 0.4473
O25 O 0.9297 0.5255 0.6068
Cu3_2 Cu 1.0000 0.5000 0.5000
Cu4_4 Cu 1.0000 0.5000 1.0000
H38 H 0.90895 0.335937 0.612556
H39 H 0.921135 0.285722 0.513496
H26_2 H 0.0248 0.6718 0.0775
H36_2 H 0.0910501 0.426987 0.887444
H37_2 H 0.0788655 0.364587 0.986504
H1_2 H 0.3401 0.2002 0.0348
H3_2 H 0.4635 0.2749 0.1216
H4_2 H 0.3982 0.3295 0.1861
H5_2 H 0.3282 0.3530 0.0775
C3_2 C 0.4468 0.3339 0.1377
C4_2 C 0.5611 0.4409 0.1585
N1_2 N 0.3889 0.3501 0.0589
O3_2 O 0.5958 0.5255 0.1068
O4 O 0.6140 0.4379 0.2261
H6_2 H 0.8601 0.6599 0.0348
H7_2 H 0.7998 0.1399 0.0348
H16_2 H 0.8114 0.5365 0.1216
H17_2 H 0.7251 0.1886 0.1216
H21_2 H 0.9313 0.6018 0.1861
H22_2 H 0.6705 0.0687 0.1861
C15_2 C 0.8871 0.5532 0.1377
C16_2 C 0.6661 0.1129 0.1377
C20_2 C 0.8798 0.4389 0.1585
C21_2 C 0.5591 0.1202 0.1585
N2_2 N 0.9612 0.6111 0.0589
N3_2 N 0.6499 0.0388 0.0589
O18_2 O 0.9297 0.4042 0.1068
O19_2 O 0.4745 0.0703 0.1068
O26 O 0.8239 0.3860 0.2261
O27 O 0.5621 0.1761 0.2261
La3 La 0.6667 0.3334 0.3330
H2_2 H 0.2889 0.2470 0.9550
C1_2 C 0.4536 0.2734 0.9353
C2_2 C 0.3516 0.2569 0.9915
O1_2 O 0.5479 0.3638 0.9473
O2_2 O 0.4404 0.1998 0.8780
La1_2 La 0.6667 0.3333 0.8330
H8_2 H 0.3401 0.1399 0.5348
H9_2 H 0.8601 0.2002 0.5348
H10_2 H 0.7998 0.6599 0.5348
H11_2 H 0.9581 0.7111 0.9550
H12_2 H 0.7530 0.0419 0.9550
H13_2 H 0.2889 0.0419 0.4550
H14_2 H 0.9581 0.2470 0.4550
H15_2 H 0.7530 0.7111 0.4550
H18_2 H 0.4635 0.1886 0.6216
H19_2 H 0.8114 0.2749 0.6216
H20_2 H 0.7251 0.5365 0.6216
H23_2 H 0.3982 0.0687 0.6861
H24_2 H 0.9313 0.3295 0.6861
H25_2 H 0.6705 0.6018 0.6861
C5_2 C 0.8198 0.5464 0.9353
C6_2 C 0.7266 0.1802 0.9353
C7_2 C 0.4536 0.1802 0.4353
C8_2 C 0.8198 0.2734 0.4353
C9_2 C 0.7266 0.5464 0.4353
C10_2 C 0.9053 0.6484 0.9915
C11_2 C 0.7431 0.0947 0.9915
C12_2 C 0.3516 0.0947 0.4915
C13_2 C 0.9053 0.2569 0.4915
C14_2 C 0.7431 0.6484 0.4915
C17_2 C 0.4468 0.1129 0.6377
C18_2 C 0.8871 0.3339 0.6377
C19_2 C 0.6661 0.5532 0.6377
C22_2 C 0.5611 0.1202 0.6585
C23_2 C 0.8798 0.4409 0.6585
C24_2 C 0.5591 0.4389 0.6585
O5_2 O 0.8159 0.4521 0.9473
O6_2 O 0.6362 0.1841 0.9473
O13_2 O 0.7594 0.5596 0.8780
O14_2 O 0.8002 0.2406 0.8780
O15_2 O 0.4404 0.2406 0.3780
O16_2 O 0.7594 0.1998 0.3780
O17_2 O 0.8002 0.5596 0.3780
O28_2 O 0.6140 0.1761 0.7261
O29_2 O 0.8239 0.4379 0.7261
O30_2 O 0.5621 0.3860 0.7261
H34_2 H 0.635413 0.714278 0.986504
H35_2 H 0.573013 0.664063 0.887444
H27_2 H 0.6470 0.9752 0.0775
H38_2 H 0.335937 0.90895 0.887444
H39_2 H 0.285722 0.921135 0.986504
H38_3 H 0.0910501 0.664063 0.387444
H39_3 H 0.0788655 0.714278 0.486504
H34_3 H 0.285722 0.364587 0.486504
H35_3 H 0.335937 0.426987 0.387444
H36_3 H 0.573013 0.90895 0.387444
H37_3 H 0.635413 0.921135 0.486504
H38_4 H 0.664063 0.0910501 0.112556
H39_4 H 0.714278 0.0788655 0.0134962
H34_4 H 0.364587 0.285722 0.0134962
H35_4 H 0.426987 0.335937 0.112556
H36_4 H 0.90895 0.573013 0.112556
H37_4 H 0.921135 0.635413 0.0134962
loop_
_geom_bond_atom_site_label_1
_geom_bond_atom_site_label_2
_geom_bond_site_symmetry_1
_geom_bond_site_symmetry_2
N8 Cu2 1_555 1_555
O11 Cu2 1_555 1_555
O24 Cu2 1_555 1_555
N8 H36 1_555 1_555
N8 H37 1_555 1_555
H13 C12 1_555 1_555
H14 C13 1_555 1_555
H15 C14 1_555 1_555
C7 C12 1_555 1_555
C8 C13 1_555 1_555
C9 C14 1_555 1_555
O7 C7 1_555 1_555
O8 C8 1_555 1_555
O9 C9 1_555 1_555
O15 C7 1_555 1_555
O16 C8 1_555 1_555
O17 C9 1_555 1_555
O31 La2 1_555 1_555
O32 La2 1_555 1_555
O33 La2 1_555 1_555
La2 O7 1_555 1_555
O7 Cu4 1_555 1_555
O8 Cu5_3 1_555 1_555
O8 La2 1_555 1_555
O9 Cu6 1_555 1_555
O9 La2 1_555 1_555
O15 La2 1_555 1_555
O16 La2 1_555 1_555
O17 La2 1_555 1_555
H1 C2 1_555 1_555
H2 C2 1_555 1_555
H3 C3 1_555 1_555
H4 C3 1_555 1_555
H5 N1 1_555 1_555
C1 C2 1_555 1_555
C2 N1 1_555 1_555
C3 C4 1_555 1_555
C4 O3 1_555 1_555
N1 C3 1_555 1_555
O1 C1 1_555 1_555
O2 C1 1_555 1_555
O3 Cu1 1_555 1_555
O31 C4 1_555 1_555
Cu1 N1 1_555 1_555
La1 O1 1_555 1_555
H6 C10 1_555 1_555
H7 C11 1_555 1_555
H11 C10 1_555 1_555
H12 C11 1_555 1_555
H16 C15 1_555 1_555
H17 C16 1_555 1_555
H18 C17 1_555 1_555
H19 C18 1_555 1_555
H20 C19 1_555 1_555
H21 C15 1_555 1_555
H22 C16 1_555 1_555
H23 C17 1_555 1_555
H24 C18 1_555 1_555
H25 C19 1_555 1_555
H30 N6 1_555 1_555
H31 N7 1_555 1_555
C5 C10 1_555 1_555
C6 C11 1_555 1_555
C10 N2 1_555 1_555
C11 N3 1_555 1_555
C15 C20 1_555 1_555
C16 C21 1_555 1_555
C17 C22 1_555 1_555
C18 C23 1_555 1_555
C19 C24 1_555 1_555
C20 O18 1_555 1_555
C21 O19 1_555 1_555
C22 O20 1_555 1_555
C23 O21 1_555 1_555
C24 O22 1_555 1_555
N2 C15 1_555 1_555
N3 C16 1_555 1_555
N4 C17 1_555 1_555
N5 C18 1_555 1_555
N6 C19 1_555 1_555
N7 Cu1 1_555 1_555
O5 La1 1_555 1_555
O6 La1 1_555 1_555
O10 Cu1 1_555 1_555
O13 La1 1_555 1_555
O14 La1 1_555 1_555
O18 Cu2_2 1_555 1_555
O19 Cu3 1_555 1_555
O20 Cu4_2 1_555 1_555
O21 Cu5_4 1_555 1_555
O22 Cu6_2 1_555 1_555
O23 Cu1 1_555 1_555
O32 C20 1_555 1_555
O33 C21 1_555 1_555
O28 La1 1_555 1_555
O29 La1 1_555 1_555
O30 La1 1_555 1_555
Cu2_2 N2 1_555 1_555
Cu3 N3 1_555 1_555
Cu4_2 N4 1_555 1_555
Cu5_4 N5 1_555 1_555
Cu6_2 N6 1_555 1_555
O1 Cu1 1_555 1_555
O2 La1 1_555 1_555
C5 O5 1_555 1_555
C5 O13 1_555 1_555
C6 O6 1_555 1_555
C6 O14 1_555 1_555
C22 O28 1_555 1_555
C23 O29 1_555 1_555
C24 O30 1_555 1_555
O5 Cu2_2 1_555 1_555
O6 Cu3 1_555 1_555
N7 H34 1_555 1_555
N7 H35 1_555 1_555
N9 Cu3_2 1_555 1_555
O12 Cu3_2 1_555 1_555
O25 Cu3_2 1_555 1_555
N9 H38 1_555 1_555
N9 H39 1_555 1_555
N4 H36_2 1_555 1_555
N4 H37_2 1_555 1_555
H3_2 C3_2 1_555 1_555
H4_2 C3_2 1_555 1_555
H5_2 N1_2 1_555 1_555
C3_2 C4_2 1_555 1_555
C4_2 O3_2 1_555 1_555
N1_2 C3_2 1_555 1_555
O3_2 Cu6 1_555 1_555
O4 C4_2 1_555 1_555
Cu6 N1_2 1_555 1_555
H16_2 C15_2 1_555 1_555
H17_2 C16_2 1_555 1_555
H21_2 C15_2 1_555 1_555
H22_2 C16_2 1_555 1_555
C15_2 C20_2 1_555 1_555
C16_2 C21_2 1_555 1_555
C20_2 O18_2 1_555 1_555
C21_2 O19_2 1_555 1_555
N2_2 C15_2 1_555 1_555
N3_2 C16_2 1_555 1_555
O18_2 Cu4_3 1_555 1_555
O19_2 Cu5 1_555 1_555
O26 C20_2 1_555 1_555
O27 C21_2 1_555 1_555
Cu4_3 N2_2 1_555 1_555
Cu5 N3_2 1_555 1_555
La3 O4 1_555 1_555
O26 La3 1_555 1_555
O27 La3 1_555 1_555
H2_2 C2_2 1_555 1_555
C1_2 C2_2 1_555 1_555
O1_2 C1_2 1_555 1_555
O2_2 C1_2 1_555 1_555
La1_2 O1_2 1_555 1_555
H8_2 C12_2 1_555 1_555
H9_2 C13_2 1_555 1_555
H10_2 C14_2 1_555 1_555
H11_2 C10_2 1_555 1_555
H12_2 C11_2 1_555 1_555
H13_2 C12_2 1_555 1_555
H14_2 C13_2 1_555 1_555
H15_2 C14_2 1_555 1_555
H18_2 C17_2 1_555 1_555
H19_2 C18_2 1_555 1_555
H20_2 C19_2 1_555 1_555
H23_2 C17_2 1_555 1_555
H24_2 C18_2 1_555 1_555
H25_2 C19_2 1_555 1_555
C5_2 C10_2 1_555 1_555
C6_2 C11_2 1_555 1_555
C7_2 C12_2 1_555 1_555
C8_2 C13_2 1_555 1_555
C9_2 C14_2 1_555 1_555
C12_2 N8 1_555 1_555
C13_2 N9 1_555 1_555
C14_2 N7 1_555 1_555
C17_2 C22_2 1_555 1_555
C18_2 C23_2 1_555 1_555
C19_2 C24_2 1_555 1_555
C22_2 O24 1_555 1_555
C23_2 O25 1_555 1_555
C24_2 O23 1_555 1_555
N8 C17_2 1_555 1_555
N9 C18_2 1_555 1_555
N7 C19_2 1_555 1_555
O5_2 La1_2 1_555 1_555
O6_2 La1_2 1_555 1_555
O11 C7_2 1_555 1_555
O12 C8_2 1_555 1_555
O10 C9_2 1_555 1_555
O13_2 La1_2 1_555 1_555
O14_2 La1_2 1_555 1_555
O15_2 C7_2 1_555 1_555
O16_2 C8_2 1_555 1_555
O17_2 C9_2 1_555 1_555
O28_2 La1_2 1_555 1_555
O29_2 La1_2 1_555 1_555
O30_2 La1_2 1_555 1_555
La3 O11 1_555 1_555
O1_2 Cu6_2 1_555 1_555
O2_2 La1_2 1_555 1_555
C5_2 O5_2 1_555 1_555
C5_2 O13_2 1_555 1_555
C6_2 O6_2 1_555 1_555
C6_2 O14_2 1_555 1_555
C22_2 O28_2 1_555 1_555
C23_2 O29_2 1_555 1_555
C24_2 O30_2 1_555 1_555
O5_2 Cu4_4 1_555 1_555
O6_2 Cu5_2 1_555 1_555
O12 La3 1_555 1_555
O10 La3 1_555 1_555
O15_2 La3 1_555 1_555
O16_2 La3 1_555 1_555
O17_2 La3 1_555 1_555
N6 H34_2 1_555 1_555
N6 H35_2 1_555 1_555
N5 H38_2 1_555 1_555
N5 H39_2 1_555 1_555
N3 H38_3 1_555 1_555
N3 H39_3 1_555 1_555
N1 H34_3 1_555 1_555
N1 H35_3 1_555 1_555
N2 H36_3 1_555 1_555
N2 H37_3 1_555 1_555
N3_2 H38_4 1_555 1_555
N3_2 H39_4 1_555 1_555
N1_2 H34_4 1_555 1_555
N1_2 H35_4 1_555 1_555
N2_2 H36_4 1_555 1_555
N2_2 H37_4 1_555 1_555

#END
