
###############################################################################
#
# This file contains modified crystal structure data generated from the
# MOF subset of the Cambridge Structural Database (CSD) v543 
# hosted by the Cambridge Crystallographic Data Centre (CCDC).
#
# This work is licensed under the Creative Commons
# Attribution-NonCommercial-ShareAlike 4.0 International License.
# To view a copy of this license, visit
# http://creativecommons.org/licenses/by-nc-sa/4.0/
# or send a letter to
# Creative Commons, PO Box 1866, Mountain View, CA 94042, USA.
#
# CIF created using the CSD Python API on 29 September 2022
# The structure has been converted into the P1 space group
# The structure has a 3D framework
# The original CSD entry KOFPEB01 is in the trigonal crystal system
# The framework has been calculated to contain at least 10.0% void space
# The void calculation uses a probe of radius 1.32A, grid spacing 0.4
# H atom positions have been added when not included in the experimental data
#
###############################################################################

data_KOFPEB01
_chemical_formula_moiety         '(C48 H84 Cu9 La4 N12 O48)n'
_symmetry_cell_setting           triclinic
_symmetry_space_group_name_H-M   'P 1'
_symmetry_Int_Tables_number      1
_space_group_name_Hall           'P 1'
loop_
_symmetry_equiv_pos_site_id
_symmetry_equiv_pos_as_xyz
1 x,y,z
_cell_length_a                   13.5045(19)
_cell_length_b                   13.5045(19)
_cell_length_c                   14.836(3)
_cell_angle_alpha                90
_cell_angle_beta                 90
_cell_angle_gamma                120
_cell_volume                     2343.17
loop_
_atom_site_label
_atom_site_type_symbol
_atom_site_fract_x
_atom_site_fract_y
_atom_site_fract_z
H28 H 0.0238 0.6710 0.4230
N9 N 0.0399 0.6504 0.0583
Cu3 Cu 0.0000 0.5000 0.0000
Cu4 Cu 0.0000 0.5000 0.5000
O33 O 0.0716 0.4753 0.1063
H34 H 0.0925711 0.664846 0.111587
H35 H 0.0796382 0.714624 0.012812
H27 H 0.0238 0.3528 0.9230
Cu3_2 Cu 0.0000 0.5000 1.0000
O17 O 0.1834 0.6354 0.9463
H1 H 0.7536 0.7107 0.0455
C1 C 0.7265 0.5470 0.0653
C2 C 0.7431 0.6479 0.0086
Cu1 Cu 0.5000 0.5000 0.0000
O1 O 0.8007 0.5593 0.1217
O2 O 0.6354 0.4520 0.0537
La1 La 0.6667 0.3333 0.1676
H6 H 0.2893 0.0429 0.0455
H7 H 0.9571 0.2464 0.0455
H8 H 0.9571 0.7107 0.5455
H9 H 0.7536 0.0429 0.5455
H10 H 0.2893 0.2464 0.5455
H13 H 0.8568 0.6549 0.4658
H14 H 0.7981 0.1432 0.4658
H15 H 0.3451 0.2019 0.4658
H18 H 0.9320 0.6029 0.3143
H19 H 0.6709 0.0680 0.3143
H20 H 0.3971 0.3291 0.3143
H23 H 0.8121 0.5379 0.3792
H24 H 0.7258 0.1879 0.3792
H25 H 0.4621 0.2742 0.3792
H30 H 0.3290 0.3528 0.4230
H31 H 0.3528 0.3290 0.0770
H32 H 0.6710 0.0238 0.0770
H33 H 0.9762 0.6472 0.0770
C5 C 0.4530 0.1795 0.0653
C6 C 0.8205 0.2735 0.0653
C7 C 0.8205 0.5470 0.5653
C8 C 0.7265 0.1795 0.5653
C9 C 0.4530 0.2735 0.5653
C10 C 0.3521 0.0952 0.0086
C11 C 0.9048 0.2569 0.0086
C12 C 0.9048 0.6479 0.5086
C13 C 0.7431 0.0952 0.5086
C14 C 0.3521 0.2569 0.5086
C17 C 0.8872 0.5543 0.3624
C18 C 0.6671 0.1128 0.3624
C19 C 0.4457 0.3329 0.3624
C22 C 0.8792 0.4398 0.3421
C23 C 0.5606 0.1208 0.3421
C24 C 0.5602 0.4394 0.3421
N4 N 0.9601 0.6105 0.4417
N5 N 0.6504 0.0399 0.4417
N6 N 0.3895 0.3496 0.4417
N7 N 0.3496 0.3895 0.0583
Cu2 Cu 0.5000 0.0000 0.0000
Cu3_3 Cu 1.0000 0.5000 0.0000
Cu4_2 Cu 1.0000 0.5000 0.5000
Cu5 Cu 0.5000 0.0000 0.5000
Cu6 Cu 0.5000 0.5000 0.5000
O5 O 0.4407 0.2414 0.1217
O6 O 0.7586 0.1993 0.1217
O7 O 0.7586 0.5593 0.6217
O8 O 0.8007 0.2414 0.6217
O9 O 0.4407 0.1993 0.6217
O10 O 0.5480 0.1834 0.0537
O11 O 0.8166 0.3646 0.0537
O12 O 0.8166 0.4520 0.5537
O13 O 0.6354 0.1834 0.5537
O14 O 0.5480 0.3646 0.5537
O20 O 0.8240 0.3861 0.2748
O21 O 0.5621 0.1760 0.2748
O22 O 0.6139 0.4379 0.2748
O23 O 0.5621 0.3861 0.7748
O24 O 0.6139 0.1760 0.7748
O25 O 0.8240 0.4379 0.7748
O28 O 0.9284 0.4037 0.3937
O29 O 0.4753 0.0716 0.3937
O30 O 0.5963 0.5247 0.3937
O31 O 0.5247 0.5963 0.1063
La2 La 0.6666 0.3333 0.6676
H36 H 0.285376 0.365014 0.012812
H37 H 0.335154 0.427725 0.111587
H2 H 0.7981 0.6549 0.9658
H3 H 0.6709 0.6029 0.8143
H4 H 0.7258 0.5379 0.8792
H5 H 0.6472 0.6710 0.9230
C3 C 0.6671 0.5543 0.8624
C4 C 0.5606 0.4398 0.8421
N1 N 0.6504 0.6105 0.9417
Cu1_2 Cu 0.5000 0.5000 1.0000
O4 O 0.4753 0.4037 0.8937
H11 H 0.3451 0.1432 0.9658
H12 H 0.8568 0.2019 0.9658
H16 H 0.3971 0.0680 0.8143
H17 H 0.9320 0.3291 0.8143
H21 H 0.4621 0.1879 0.8792
H22 H 0.8121 0.2742 0.8792
C15 C 0.4457 0.1128 0.8624
C16 C 0.8872 0.3329 0.8624
C20 C 0.5602 0.1208 0.8421
C21 C 0.8792 0.4394 0.8421
N2 N 0.3895 0.0399 0.9417
N3 N 0.9601 0.3496 0.9417
Cu2_2 Cu 0.5000 0.0000 1.0000
Cu3_4 Cu 1.0000 0.5000 1.0000
O15 O 0.3646 0.5480 0.9463
O26 O 0.5963 0.0716 0.8937
O27 O 0.9284 0.5247 0.8937
H29 H 0.6472 0.9762 0.4230
N8 N 0.6105 0.9601 0.0583
Cu2_3 Cu 0.5000 1.0000 0.0000
Cu5_2 Cu 0.5000 1.0000 0.5000
O32 O 0.4037 0.9284 0.1063
H38 H 0.572275 0.907429 0.111587
H39 H 0.634986 0.920362 0.012812
H26 H 0.3290 0.9762 0.9230
Cu2_4 Cu 0.5000 1.0000 1.0000
O16 O 0.4520 0.8166 0.9463
H27_2 H 0.3528 0.0238 0.5770
H34_2 H 0.664846 0.0925711 0.388413
H35_2 H 0.714624 0.0796382 0.487188
H1_2 H 0.7107 0.7536 0.4545
H2_2 H 0.6549 0.7981 0.5342
H3_2 H 0.6029 0.6709 0.6857
H4_2 H 0.5379 0.7258 0.6208
H5_2 H 0.6710 0.6472 0.5770
C1_2 C 0.5470 0.7265 0.4347
C2_2 C 0.6479 0.7431 0.4914
C3_2 C 0.5543 0.6671 0.6376
C4_2 C 0.4398 0.5606 0.6579
N1_2 N 0.6105 0.6504 0.5583
O1_2 O 0.5593 0.8007 0.3783
O2_2 O 0.4520 0.6354 0.4463
O3 O 0.3861 0.5621 0.7252
O4_2 O 0.4037 0.4753 0.6063
La1_2 La 0.3333 0.6667 0.3324
H6_2 H 0.0429 0.2893 0.4545
H7_2 H 0.2464 0.9571 0.4545
H11_2 H 0.1432 0.3451 0.5342
H12_2 H 0.2019 0.8568 0.5342
H13_2 H 0.6549 0.8568 0.0342
H14_2 H 0.1432 0.7981 0.0342
H15_2 H 0.2019 0.3451 0.0342
H16_2 H 0.0680 0.3971 0.6857
H17_2 H 0.3291 0.9320 0.6857
H18_2 H 0.6029 0.9320 0.1857
H19_2 H 0.0680 0.6709 0.1857
H20_2 H 0.3291 0.3971 0.1857
H21_2 H 0.1879 0.4621 0.6208
H22_2 H 0.2742 0.8121 0.6208
H23_2 H 0.5379 0.8121 0.1208
H24_2 H 0.1879 0.7258 0.1208
H25_2 H 0.2742 0.4621 0.1208
C5_2 C 0.1795 0.4530 0.4347
C6_2 C 0.2735 0.8205 0.4347
C10_2 C 0.0952 0.3521 0.4914
C11_2 C 0.2569 0.9048 0.4914
C15_2 C 0.1128 0.4457 0.6376
C16_2 C 0.3329 0.8872 0.6376
C17_2 C 0.5543 0.8872 0.1376
C18_2 C 0.1128 0.6671 0.1376
C19_2 C 0.3329 0.4457 0.1376
C20_2 C 0.1208 0.5602 0.6579
C21_2 C 0.4394 0.8792 0.6579
C22_2 C 0.4398 0.8792 0.1579
C23_2 C 0.1208 0.5606 0.1579
C24_2 C 0.4394 0.5602 0.1579
N2_2 N 0.0399 0.3895 0.5583
N3_2 N 0.3496 0.9601 0.5583
O5_2 O 0.2414 0.4407 0.3783
O6_2 O 0.1993 0.7586 0.3783
O10_2 O 0.1834 0.5480 0.4463
O11_2 O 0.3646 0.8166 0.4463
O18 O 0.1760 0.6139 0.7252
O19 O 0.4379 0.8240 0.7252
O20_2 O 0.3861 0.8240 0.2252
O21_2 O 0.1760 0.5621 0.2252
O22_2 O 0.4379 0.6139 0.2252
O26_2 O 0.0716 0.5963 0.6063
O27_2 O 0.5247 0.9284 0.6063
La3 La 0.3333 0.6666 0.8324
H36_2 H 0.365014 0.285376 0.487188
H37_2 H 0.427725 0.335154 0.388413
H8_2 H 0.7107 0.9571 0.9545
H9_2 H 0.0429 0.7536 0.9545
H10_2 H 0.2464 0.2893 0.9545
C7_2 C 0.5470 0.8205 0.9347
C8_2 C 0.1795 0.7265 0.9347
C9_2 C 0.2735 0.4530 0.9347
C12_2 C 0.6479 0.9048 0.9914
C13_2 C 0.0952 0.7431 0.9914
C14_2 C 0.2569 0.3521 0.9914
O7_2 O 0.5593 0.7586 0.8783
O8_2 O 0.2414 0.8007 0.8783
O9_2 O 0.1993 0.4407 0.8783
H26_2 H 0.9762 0.3290 0.5770
H38_2 H 0.907429 0.572275 0.388413
H39_2 H 0.920362 0.634986 0.487188
H38_3 H 0.427725 0.0925711 0.888413
H39_3 H 0.365014 0.0796382 0.987188
H36_3 H 0.714624 0.634986 0.987188
H37_3 H 0.664846 0.572275 0.888413
H34_3 H 0.907429 0.335154 0.888413
H35_3 H 0.920362 0.285376 0.987188
H38_4 H 0.0925711 0.427725 0.611587
H39_4 H 0.0796382 0.365014 0.512812
H36_4 H 0.634986 0.714624 0.512812
H37_4 H 0.572275 0.664846 0.611587
H34_4 H 0.335154 0.907429 0.611587
H35_4 H 0.285376 0.920362 0.512812
loop_
_geom_bond_atom_site_label_1
_geom_bond_atom_site_label_2
_geom_bond_site_symmetry_1
_geom_bond_site_symmetry_2
N9 Cu3 1_555 1_555
O33 Cu3 1_555 1_555
N9 H34 1_555 1_555
N9 H35 1_555 1_555
O17 Cu3_2 1_555 1_555
H1 C2 1_555 1_555
C1 C2 1_555 1_555
O1 C1 1_555 1_555
O2 C1 1_555 1_555
La1 O1 1_555 1_555
H6 C10 1_555 1_555
H7 C11 1_555 1_555
H8 C12 1_555 1_555
H9 C13 1_555 1_555
H10 C14 1_555 1_555
H13 C12 1_555 1_555
H14 C13 1_555 1_555
H15 C14 1_555 1_555
H18 C17 1_555 1_555
H19 C18 1_555 1_555
H20 C19 1_555 1_555
H23 C17 1_555 1_555
H24 C18 1_555 1_555
H25 C19 1_555 1_555
H30 N6 1_555 1_555
H31 N7 1_555 1_555
C5 C10 1_555 1_555
C6 C11 1_555 1_555
C7 C12 1_555 1_555
C8 C13 1_555 1_555
C9 C14 1_555 1_555
C12 N4 1_555 1_555
C13 N5 1_555 1_555
C14 N6 1_555 1_555
C17 C22 1_555 1_555
C18 C23 1_555 1_555
C19 C24 1_555 1_555
C22 O20 1_555 1_555
C23 O21 1_555 1_555
C24 O22 1_555 1_555
N4 C17 1_555 1_555
N5 C18 1_555 1_555
N6 C19 1_555 1_555
N7 Cu1 1_555 1_555
Cu4_2 N4 1_555 1_555
Cu5 N5 1_555 1_555
Cu6 N6 1_555 1_555
O5 La1 1_555 1_555
O6 La1 1_555 1_555
O7 C7 1_555 1_555
O8 C8 1_555 1_555
O9 C9 1_555 1_555
O10 La1 1_555 1_555
O11 La1 1_555 1_555
O12 C7 1_555 1_555
O13 C8 1_555 1_555
O14 C9 1_555 1_555
O20 La1 1_555 1_555
O21 La1 1_555 1_555
O22 La1 1_555 1_555
O23 La2 1_555 1_555
O24 La2 1_555 1_555
O25 La2 1_555 1_555
O28 C22 1_555 1_555
O29 C23 1_555 1_555
O30 C24 1_555 1_555
O31 Cu1 1_555 1_555
La2 O7 1_555 1_555
Cu1 O2 1_555 1_555
O2 La1 1_555 1_555
C5 O5 1_555 1_555
C5 O10 1_555 1_555
C6 O6 1_555 1_555
C6 O11 1_555 1_555
Cu2 O10 1_555 1_555
Cu3_3 O11 1_555 1_555
Cu4_2 O12 1_555 1_555
Cu4_2 O28 1_555 1_555
Cu5 O13 1_555 1_555
Cu5 O29 1_555 1_555
Cu6 O14 1_555 1_555
Cu6 O30 1_555 1_555
O8 La2 1_555 1_555
O9 La2 1_555 1_555
O12 La2 1_555 1_555
O13 La2 1_555 1_555
O14 La2 1_555 1_555
N7 H36 1_555 1_555
N7 H37 1_555 1_555
H3 C3 1_555 1_555
H4 C3 1_555 1_555
H5 N1 1_555 1_555
C3 C4 1_555 1_555
C4 O23 1_555 1_555
N1 C3 1_555 1_555
Cu1_2 N1 1_555 1_555
O4 C4 1_555 1_555
H16 C15 1_555 1_555
H17 C16 1_555 1_555
H21 C15 1_555 1_555
H22 C16 1_555 1_555
C15 C20 1_555 1_555
C16 C21 1_555 1_555
C20 O24 1_555 1_555
C21 O25 1_555 1_555
N2 C15 1_555 1_555
N3 C16 1_555 1_555
Cu2_2 N2 1_555 1_555
Cu3_4 N3 1_555 1_555
O15 Cu1_2 1_555 1_555
O26 C20 1_555 1_555
O27 C21 1_555 1_555
Cu1_2 O4 1_555 1_555
Cu2_2 O26 1_555 1_555
Cu3_4 O27 1_555 1_555
N8 Cu2_3 1_555 1_555
O32 Cu2_3 1_555 1_555
N8 H38 1_555 1_555
N8 H39 1_555 1_555
O16 Cu2_4 1_555 1_555
N5 H34_2 1_555 1_555
N5 H35_2 1_555 1_555
H1_2 C2_2 1_555 1_555
H2_2 C2_2 1_555 1_555
H3_2 C3_2 1_555 1_555
H4_2 C3_2 1_555 1_555
H5_2 N1_2 1_555 1_555
C1_2 C2_2 1_555 1_555
C2_2 N1_2 1_555 1_555
C3_2 C4_2 1_555 1_555
C4_2 O3 1_555 1_555
N1_2 C3_2 1_555 1_555
Cu6 N1_2 1_555 1_555
O1_2 C1_2 1_555 1_555
O2_2 C1_2 1_555 1_555
O3 La3 1_555 1_555
O4_2 C4_2 1_555 1_555
La1_2 O1_2 1_555 1_555
H6_2 C10_2 1_555 1_555
H7_2 C11_2 1_555 1_555
H11_2 C10_2 1_555 1_555
H12_2 C11_2 1_555 1_555
H16_2 C15_2 1_555 1_555
H17_2 C16_2 1_555 1_555
H18_2 C17_2 1_555 1_555
H19_2 C18_2 1_555 1_555
H20_2 C19_2 1_555 1_555
H21_2 C15_2 1_555 1_555
H22_2 C16_2 1_555 1_555
H23_2 C17_2 1_555 1_555
H24_2 C18_2 1_555 1_555
H25_2 C19_2 1_555 1_555
C5_2 C10_2 1_555 1_555
C6_2 C11_2 1_555 1_555
C10_2 N2_2 1_555 1_555
C11_2 N3_2 1_555 1_555
C15_2 C20_2 1_555 1_555
C16_2 C21_2 1_555 1_555
C17_2 C22_2 1_555 1_555
C18_2 C23_2 1_555 1_555
C19_2 C24_2 1_555 1_555
C20_2 O18 1_555 1_555
C21_2 O19 1_555 1_555
C22_2 O20_2 1_555 1_555
C23_2 O21_2 1_555 1_555
C24_2 O22_2 1_555 1_555
N2_2 C15_2 1_555 1_555
N3_2 C16_2 1_555 1_555
N8 C17_2 1_555 1_555
N9 C18_2 1_555 1_555
N7 C19_2 1_555 1_555
Cu4 N2_2 1_555 1_555
Cu5_2 N3_2 1_555 1_555
O5_2 La1_2 1_555 1_555
O6_2 La1_2 1_555 1_555
O10_2 La1_2 1_555 1_555
O11_2 La1_2 1_555 1_555
O18 La3 1_555 1_555
O19 La3 1_555 1_555
O20_2 La1_2 1_555 1_555
O21_2 La1_2 1_555 1_555
O22_2 La1_2 1_555 1_555
O26_2 C20_2 1_555 1_555
O27_2 C21_2 1_555 1_555
O32 C22_2 1_555 1_555
O33 C23_2 1_555 1_555
O31 C24_2 1_555 1_555
Cu6 O2_2 1_555 1_555
Cu6 O4_2 1_555 1_555
O2_2 La1_2 1_555 1_555
C5_2 O5_2 1_555 1_555
C5_2 O10_2 1_555 1_555
C6_2 O6_2 1_555 1_555
C6_2 O11_2 1_555 1_555
Cu4 O10_2 1_555 1_555
Cu4 O26_2 1_555 1_555
Cu5_2 O11_2 1_555 1_555
Cu5_2 O27_2 1_555 1_555
N6 H36_2 1_555 1_555
N6 H37_2 1_555 1_555
H8_2 C12_2 1_555 1_555
H9_2 C13_2 1_555 1_555
H10_2 C14_2 1_555 1_555
C7_2 C12_2 1_555 1_555
C8_2 C13_2 1_555 1_555
C9_2 C14_2 1_555 1_555
O7_2 C7_2 1_555 1_555
O8_2 C8_2 1_555 1_555
O9_2 C9_2 1_555 1_555
O16 C7_2 1_555 1_555
O17 C8_2 1_555 1_555
O15 C9_2 1_555 1_555
La3 O7_2 1_555 1_555
O8_2 La3 1_555 1_555
O9_2 La3 1_555 1_555
O16 La3 1_555 1_555
O17 La3 1_555 1_555
O15 La3 1_555 1_555
N4 H38_2 1_555 1_555
N4 H39_2 1_555 1_555
N2 H38_3 1_555 1_555
N2 H39_3 1_555 1_555
N1 H36_3 1_555 1_555
N1 H37_3 1_555 1_555
N3 H34_3 1_555 1_555
N3 H35_3 1_555 1_555
N2_2 H38_4 1_555 1_555
N2_2 H39_4 1_555 1_555
N1_2 H36_4 1_555 1_555
N1_2 H37_4 1_555 1_555
N3_2 H34_4 1_555 1_555
N3_2 H35_4 1_555 1_555

#END
