
###############################################################################
#
# This file contains modified crystal structure data generated from the
# MOF subset of the Cambridge Structural Database (CSD) v543 
# hosted by the Cambridge Crystallographic Data Centre (CCDC).
#
# This work is licensed under the Creative Commons
# Attribution-NonCommercial-ShareAlike 4.0 International License.
# To view a copy of this license, visit
# http://creativecommons.org/licenses/by-nc-sa/4.0/
# or send a letter to
# Creative Commons, PO Box 1866, Mountain View, CA 94042, USA.
#
# CIF created using the CSD Python API on 29 September 2022
# The structure has been converted into the P1 space group
# The structure has a 3D framework
# The original CSD entry KOFPEB03 is in the trigonal crystal system
# The framework has been calculated to contain at least 10.0% void space
# The void calculation uses a probe of radius 1.32A, grid spacing 0.4
# H atom positions have been added when not included in the experimental data
#
###############################################################################

data_KOFPEB03
_chemical_formula_moiety         '(C48 H84 Cu9 La4 N12 O48)n'
_symmetry_cell_setting           triclinic
_symmetry_space_group_name_H-M   'P 1'
_symmetry_Int_Tables_number      1
_space_group_name_Hall           'P 1'
loop_
_symmetry_equiv_pos_site_id
_symmetry_equiv_pos_as_xyz
1 x,y,z
_cell_length_a                   13.5039(19)
_cell_length_b                   13.5039(19)
_cell_length_c                   14.897(3)
_cell_angle_alpha                90
_cell_angle_beta                 90
_cell_angle_gamma                120
_cell_volume                     2352.6
loop_
_atom_site_label
_atom_site_type_symbol
_atom_site_fract_x
_atom_site_fract_y
_atom_site_fract_z
Cu5 Cu 0.5000 -0.0000 -0.0000
H26 H 0.6711 0.0232 0.4242
H29 H 0.3521 0.0232 0.9242
O11 O 0.5472 0.1830 0.4438
O24 O 0.5973 0.0740 0.6051
Cu2 Cu 0.5000 -0.0000 0.5000
Cu5_2 Cu 0.5000 0.0000 1.0000
N8 N 0.3894 0.0402 0.5573
H38 H 0.427407 0.0929536 0.610367
H39 H 0.365267 0.0799415 0.511717
H13 H 0.0425 0.2888 0.0455
H14 H 0.2463 0.9575 0.0455
H15 H 0.7112 0.7537 0.0455
C7 C 0.1799 0.4529 0.0662
C8 C 0.2730 0.8201 0.0662
C9 C 0.5471 0.7270 0.0662
C12 C 0.0959 0.3520 0.0090
C13 C 0.2561 0.9041 0.0090
C14 C 0.6480 0.7439 0.0090
O7 O 0.1830 0.5472 0.0562
O8 O 0.3642 0.8170 0.0562
O9 O 0.4528 0.6358 0.0562
O15 O 0.2409 0.4393 0.1224
O16 O 0.1984 0.7591 0.1224
O17 O 0.5607 0.8016 0.1224
O31 O 0.4369 0.6132 0.2756
O32 O 0.3868 0.8237 0.2756
O33 O 0.1763 0.5631 0.2756
Cu4 Cu 0.0000 0.5000 -0.0000
Cu5_3 Cu 0.5000 1.0000 -0.0000
Cu6 Cu 0.5000 0.5000 -0.0000
La2 La 0.3334 0.6667 0.1691
H1 H 0.2006 0.3435 0.4660
H2 H 0.2463 0.2888 0.5455
H3 H 0.2738 0.4628 0.3799
H4 H 0.3297 0.3975 0.3159
H5 H 0.3521 0.3289 0.4242
C1 C 0.2730 0.4529 0.5662
C2 C 0.2561 0.3520 0.5090
C3 C 0.3330 0.4459 0.3638
C4 C 0.4392 0.5604 0.3431
O1 O 0.3642 0.5472 0.5562
O2 O 0.1984 0.4393 0.6224
O3 O 0.5233 0.5973 0.3949
Cu1 Cu 0.5000 0.5000 0.5000
La1 La 0.3333 0.6667 0.6691
N1 N 0.3492 0.3894 0.4427
H6 H 0.6565 0.8571 0.4660
H7 H 0.1429 0.7994 0.4660
H8 H 0.1429 0.3435 0.9660
H9 H 0.2006 0.8571 0.9660
H10 H 0.6565 0.7994 0.9660
H11 H 0.7112 0.9575 0.5455
H12 H 0.0425 0.7537 0.5455
H16 H 0.5372 0.8110 0.3799
H17 H 0.1890 0.7262 0.3799
H18 H 0.1890 0.4628 0.8799
H19 H 0.2738 0.8110 0.8799
H20 H 0.5372 0.7262 0.8799
H21 H 0.6025 0.9322 0.3159
H22 H 0.0678 0.6703 0.3159
H23 H 0.0678 0.3975 0.8159
H24 H 0.3297 0.9322 0.8159
H25 H 0.6025 0.6703 0.8159
H30 H 0.6711 0.6479 0.9242
H31 H 0.6479 0.6711 0.5758
H32 H 0.3289 0.9768 0.5758
H33 H 0.0232 0.3521 0.5758
C5 C 0.5471 0.8201 0.5662
C6 C 0.1799 0.7270 0.5662
C10 C 0.6480 0.9041 0.5090
C11 C 0.0959 0.7439 0.5090
C15 C 0.5541 0.8871 0.3638
C16 C 0.1129 0.6670 0.3638
C17 C 0.1129 0.4459 0.8638
C18 C 0.3330 0.8871 0.8638
C19 C 0.5541 0.6670 0.8638
C20 C 0.4396 0.8788 0.3431
C21 C 0.1212 0.5608 0.3431
C22 C 0.1212 0.5604 0.8431
C23 C 0.4392 0.8788 0.8431
C24 C 0.4396 0.5608 0.8431
O5 O 0.4528 0.8170 0.5562
O6 O 0.1830 0.6358 0.5562
O10 O 0.6358 0.4528 0.4438
O13 O 0.5607 0.7591 0.6224
O14 O 0.2409 0.8016 0.6224
O18 O 0.4027 0.9260 0.3949
O19 O 0.0740 0.4767 0.3949
O20 O 0.0740 0.5973 0.8949
O21 O 0.5233 0.9260 0.8949
O22 O 0.4027 0.4767 0.8949
O23 O 0.4767 0.4027 0.6051
O28 O 0.1763 0.6132 0.7756
O29 O 0.4369 0.8237 0.7756
O30 O 0.3868 0.5631 0.7756
Cu2_2 Cu 0.5000 1.0000 0.5000
Cu3 Cu 0.0000 0.5000 0.5000
Cu4_2 Cu 0.0000 0.5000 1.0000
Cu5_4 Cu 0.5000 1.0000 1.0000
Cu6_2 Cu 0.5000 0.5000 1.0000
N2 N 0.6106 0.9598 0.4427
N3 N 0.0402 0.6508 0.4427
N4 N 0.0402 0.3894 0.9427
N5 N 0.3492 0.9598 0.9427
N6 N 0.6106 0.6508 0.9427
N7 N 0.6508 0.6106 0.5573
H36 H 0.714675 0.634733 0.511717
H37 H 0.665547 0.572593 0.610367
Cu4_3 Cu 1.0000 0.5000 -0.0000
H27 H 0.9768 0.6479 0.4242
H28 H 0.9768 0.3289 0.9242
O12 O 0.8170 0.3642 0.4438
O25 O 0.9260 0.5233 0.6051
Cu3_2 Cu 1.0000 0.5000 0.5000
Cu4_4 Cu 1.0000 0.5000 1.0000
N9 N 0.9598 0.3492 0.5573
H34 H 0.907046 0.334453 0.610367
H35 H 0.920059 0.285325 0.511717
H26_2 H 0.0232 0.6711 0.0758
H38_2 H 0.0929536 0.427407 0.889633
H39_2 H 0.0799415 0.365267 0.988283
H1_2 H 0.3435 0.2006 0.0340
H3_2 H 0.4628 0.2738 0.1201
H4_2 H 0.3975 0.3297 0.1841
H5_2 H 0.3289 0.3521 0.0758
C3_2 C 0.4459 0.3330 0.1362
C4_2 C 0.5604 0.4392 0.1569
O3_2 O 0.5973 0.5233 0.1051
O4 O 0.6132 0.4369 0.2244
N1_2 N 0.3894 0.3492 0.0573
H6_2 H 0.8571 0.6565 0.0340
H7_2 H 0.7994 0.1429 0.0340
H16_2 H 0.8110 0.5372 0.1201
H17_2 H 0.7262 0.1890 0.1201
H21_2 H 0.9322 0.6025 0.1841
H22_2 H 0.6703 0.0678 0.1841
C15_2 C 0.8871 0.5541 0.1362
C16_2 C 0.6670 0.1129 0.1362
C20_2 C 0.8788 0.4396 0.1569
C21_2 C 0.5608 0.1212 0.1569
O18_2 O 0.9260 0.4027 0.1051
O19_2 O 0.4767 0.0740 0.1051
O26 O 0.8237 0.3868 0.2244
O27 O 0.5631 0.1763 0.2244
La3 La 0.6667 0.3334 0.3309
N2_2 N 0.9598 0.6106 0.0573
N3_2 N 0.6508 0.0402 0.0573
H2_2 H 0.2888 0.2463 0.9545
C1_2 C 0.4529 0.2730 0.9338
C2_2 C 0.3520 0.2561 0.9910
O1_2 O 0.5472 0.3642 0.9438
O2_2 O 0.4393 0.1984 0.8776
La1_2 La 0.6667 0.3333 0.8309
H8_2 H 0.3435 0.1429 0.5340
H9_2 H 0.8571 0.2006 0.5340
H10_2 H 0.7994 0.6565 0.5340
H11_2 H 0.9575 0.7112 0.9545
H12_2 H 0.7537 0.0425 0.9545
H13_2 H 0.2888 0.0425 0.4545
H14_2 H 0.9575 0.2463 0.4545
H15_2 H 0.7537 0.7112 0.4545
H18_2 H 0.4628 0.1890 0.6201
H19_2 H 0.8110 0.2738 0.6201
H20_2 H 0.7262 0.5372 0.6201
H23_2 H 0.3975 0.0678 0.6841
H24_2 H 0.9322 0.3297 0.6841
H25_2 H 0.6703 0.6025 0.6841
C5_2 C 0.8201 0.5471 0.9338
C6_2 C 0.7270 0.1799 0.9338
C7_2 C 0.4529 0.1799 0.4338
C8_2 C 0.8201 0.2730 0.4338
C9_2 C 0.7270 0.5471 0.4338
C10_2 C 0.9041 0.6480 0.9910
C11_2 C 0.7439 0.0959 0.9910
C12_2 C 0.3520 0.0959 0.4910
C13_2 C 0.9041 0.2561 0.4910
C14_2 C 0.7439 0.6480 0.4910
C17_2 C 0.4459 0.1129 0.6362
C18_2 C 0.8871 0.3330 0.6362
C19_2 C 0.6670 0.5541 0.6362
C22_2 C 0.5604 0.1212 0.6569
C23_2 C 0.8788 0.4392 0.6569
C24_2 C 0.5608 0.4396 0.6569
O5_2 O 0.8170 0.4528 0.9438
O6_2 O 0.6358 0.1830 0.9438
O13_2 O 0.7591 0.5607 0.8776
O14_2 O 0.8016 0.2409 0.8776
O15_2 O 0.4393 0.2409 0.3776
O16_2 O 0.7591 0.1984 0.3776
O17_2 O 0.8016 0.5607 0.3776
O28_2 O 0.6132 0.1763 0.7244
O29_2 O 0.8237 0.4369 0.7244
O30_2 O 0.5631 0.3868 0.7244
H36_2 H 0.634733 0.714675 0.988283
H37_2 H 0.572593 0.665547 0.889633
H27_2 H 0.6479 0.9768 0.0758
H34_2 H 0.334453 0.907046 0.889633
H35_2 H 0.285325 0.920059 0.988283
H34_3 H 0.0929536 0.665547 0.389633
H35_3 H 0.0799415 0.714675 0.488283
H36_3 H 0.285325 0.365267 0.488283
H37_3 H 0.334453 0.427407 0.389633
H38_3 H 0.572593 0.907046 0.389633
H39_3 H 0.634733 0.920059 0.488283
H34_4 H 0.665547 0.0929536 0.110367
H35_4 H 0.714675 0.0799415 0.0117168
H36_4 H 0.365267 0.285325 0.0117168
H37_4 H 0.427407 0.334453 0.110367
H38_4 H 0.907046 0.572593 0.110367
H39_4 H 0.920059 0.634733 0.0117168
loop_
_geom_bond_atom_site_label_1
_geom_bond_atom_site_label_2
_geom_bond_site_symmetry_1
_geom_bond_site_symmetry_2
O11 Cu2 1_555 1_555
O24 Cu2 1_555 1_555
N8 Cu2 1_555 1_555
N8 H38 1_555 1_555
N8 H39 1_555 1_555
H13 C12 1_555 1_555
H14 C13 1_555 1_555
H15 C14 1_555 1_555
C7 C12 1_555 1_555
C8 C13 1_555 1_555
C9 C14 1_555 1_555
O7 C7 1_555 1_555
O8 C8 1_555 1_555
O9 C9 1_555 1_555
O15 C7 1_555 1_555
O16 C8 1_555 1_555
O17 C9 1_555 1_555
O31 La2 1_555 1_555
O32 La2 1_555 1_555
O33 La2 1_555 1_555
Cu4 O7 1_555 1_555
Cu5_3 O8 1_555 1_555
Cu6 O9 1_555 1_555
La2 O7 1_555 1_555
O8 La2 1_555 1_555
O9 La2 1_555 1_555
O15 La2 1_555 1_555
O16 La2 1_555 1_555
O17 La2 1_555 1_555
H1 C2 1_555 1_555
H2 C2 1_555 1_555
H3 C3 1_555 1_555
H4 C3 1_555 1_555
H5 N1 1_555 1_555
C1 C2 1_555 1_555
C2 N1 1_555 1_555
C3 C4 1_555 1_555
C4 O3 1_555 1_555
O1 C1 1_555 1_555
O2 C1 1_555 1_555
O3 Cu1 1_555 1_555
O31 C4 1_555 1_555
Cu1 O1 1_555 1_555
La1 O1 1_555 1_555
N1 C3 1_555 1_555
H6 C10 1_555 1_555
H7 C11 1_555 1_555
H11 C10 1_555 1_555
H12 C11 1_555 1_555
H16 C15 1_555 1_555
H17 C16 1_555 1_555
H18 C17 1_555 1_555
H19 C18 1_555 1_555
H20 C19 1_555 1_555
H21 C15 1_555 1_555
H22 C16 1_555 1_555
H23 C17 1_555 1_555
H24 C18 1_555 1_555
H25 C19 1_555 1_555
H30 N6 1_555 1_555
H31 N7 1_555 1_555
C5 C10 1_555 1_555
C6 C11 1_555 1_555
C10 N2 1_555 1_555
C11 N3 1_555 1_555
C15 C20 1_555 1_555
C16 C21 1_555 1_555
C17 C22 1_555 1_555
C18 C23 1_555 1_555
C19 C24 1_555 1_555
C20 O18 1_555 1_555
C21 O19 1_555 1_555
C22 O20 1_555 1_555
C23 O21 1_555 1_555
C24 O22 1_555 1_555
O5 La1 1_555 1_555
O6 La1 1_555 1_555
O10 Cu1 1_555 1_555
O13 La1 1_555 1_555
O14 La1 1_555 1_555
O18 Cu2_2 1_555 1_555
O19 Cu3 1_555 1_555
O20 Cu4_2 1_555 1_555
O21 Cu5_4 1_555 1_555
O22 Cu6_2 1_555 1_555
O23 Cu1 1_555 1_555
O32 C20 1_555 1_555
O33 C21 1_555 1_555
O28 La1 1_555 1_555
O29 La1 1_555 1_555
O30 La1 1_555 1_555
Cu2_2 O5 1_555 1_555
Cu3 O6 1_555 1_555
N2 C15 1_555 1_555
N3 C16 1_555 1_555
N4 C17 1_555 1_555
N5 C18 1_555 1_555
N6 C19 1_555 1_555
N7 Cu1 1_555 1_555
O2 La1 1_555 1_555
Cu1 N1 1_555 1_555
C5 O5 1_555 1_555
C5 O13 1_555 1_555
C6 O6 1_555 1_555
C6 O14 1_555 1_555
C22 O28 1_555 1_555
C23 O29 1_555 1_555
C24 O30 1_555 1_555
Cu2_2 N2 1_555 1_555
Cu3 N3 1_555 1_555
Cu4_2 N4 1_555 1_555
Cu5_4 N5 1_555 1_555
Cu6_2 N6 1_555 1_555
N7 H36 1_555 1_555
N7 H37 1_555 1_555
O12 Cu3_2 1_555 1_555
O25 Cu3_2 1_555 1_555
N9 Cu3_2 1_555 1_555
N9 H34 1_555 1_555
N9 H35 1_555 1_555
N4 H38_2 1_555 1_555
N4 H39_2 1_555 1_555
H3_2 C3_2 1_555 1_555
H4_2 C3_2 1_555 1_555
H5_2 N1_2 1_555 1_555
C3_2 C4_2 1_555 1_555
C4_2 O3_2 1_555 1_555
O3_2 Cu6 1_555 1_555
O4 C4_2 1_555 1_555
N1_2 C3_2 1_555 1_555
H16_2 C15_2 1_555 1_555
H17_2 C16_2 1_555 1_555
H21_2 C15_2 1_555 1_555
H22_2 C16_2 1_555 1_555
C15_2 C20_2 1_555 1_555
C16_2 C21_2 1_555 1_555
C20_2 O18_2 1_555 1_555
C21_2 O19_2 1_555 1_555
O18_2 Cu4_3 1_555 1_555
O19_2 Cu5 1_555 1_555
O26 C20_2 1_555 1_555
O27 C21_2 1_555 1_555
La3 O4 1_555 1_555
N2_2 C15_2 1_555 1_555
N3_2 C16_2 1_555 1_555
Cu6 N1_2 1_555 1_555
O26 La3 1_555 1_555
O27 La3 1_555 1_555
Cu4_3 N2_2 1_555 1_555
Cu5 N3_2 1_555 1_555
H2_2 C2_2 1_555 1_555
C1_2 C2_2 1_555 1_555
O1_2 C1_2 1_555 1_555
O2_2 C1_2 1_555 1_555
Cu6_2 O1_2 1_555 1_555
La1_2 O1_2 1_555 1_555
H8_2 C12_2 1_555 1_555
H9_2 C13_2 1_555 1_555
H10_2 C14_2 1_555 1_555
H11_2 C10_2 1_555 1_555
H12_2 C11_2 1_555 1_555
H13_2 C12_2 1_555 1_555
H14_2 C13_2 1_555 1_555
H15_2 C14_2 1_555 1_555
H18_2 C17_2 1_555 1_555
H19_2 C18_2 1_555 1_555
H20_2 C19_2 1_555 1_555
H23_2 C17_2 1_555 1_555
H24_2 C18_2 1_555 1_555
H25_2 C19_2 1_555 1_555
C5_2 C10_2 1_555 1_555
C6_2 C11_2 1_555 1_555
C7_2 C12_2 1_555 1_555
C8_2 C13_2 1_555 1_555
C9_2 C14_2 1_555 1_555
C12_2 N8 1_555 1_555
C13_2 N9 1_555 1_555
C14_2 N7 1_555 1_555
C17_2 C22_2 1_555 1_555
C18_2 C23_2 1_555 1_555
C19_2 C24_2 1_555 1_555
C22_2 O24 1_555 1_555
C23_2 O25 1_555 1_555
C24_2 O23 1_555 1_555
O5_2 La1_2 1_555 1_555
O6_2 La1_2 1_555 1_555
O11 C7_2 1_555 1_555
O12 C8_2 1_555 1_555
O10 C9_2 1_555 1_555
O13_2 La1_2 1_555 1_555
O14_2 La1_2 1_555 1_555
O15_2 C7_2 1_555 1_555
O16_2 C8_2 1_555 1_555
O17_2 C9_2 1_555 1_555
O28_2 La1_2 1_555 1_555
O29_2 La1_2 1_555 1_555
O30_2 La1_2 1_555 1_555
Cu4_4 O5_2 1_555 1_555
Cu5_2 O6_2 1_555 1_555
La3 O11 1_555 1_555
N8 C17_2 1_555 1_555
N9 C18_2 1_555 1_555
N7 C19_2 1_555 1_555
O2_2 La1_2 1_555 1_555
C5_2 O5_2 1_555 1_555
C5_2 O13_2 1_555 1_555
C6_2 O6_2 1_555 1_555
C6_2 O14_2 1_555 1_555
C22_2 O28_2 1_555 1_555
C23_2 O29_2 1_555 1_555
C24_2 O30_2 1_555 1_555
O12 La3 1_555 1_555
O10 La3 1_555 1_555
O15_2 La3 1_555 1_555
O16_2 La3 1_555 1_555
O17_2 La3 1_555 1_555
N6 H36_2 1_555 1_555
N6 H37_2 1_555 1_555
N5 H34_2 1_555 1_555
N5 H35_2 1_555 1_555
N3 H34_3 1_555 1_555
N3 H35_3 1_555 1_555
N1 H36_3 1_555 1_555
N1 H37_3 1_555 1_555
N2 H38_3 1_555 1_555
N2 H39_3 1_555 1_555
N3_2 H34_4 1_555 1_555
N3_2 H35_4 1_555 1_555
N1_2 H36_4 1_555 1_555
N1_2 H37_4 1_555 1_555
N2_2 H38_4 1_555 1_555
N2_2 H39_4 1_555 1_555

#END
