
###############################################################################
#
# This file contains modified crystal structure data generated from the
# MOF subset of the Cambridge Structural Database (CSD) v543 
# hosted by the Cambridge Crystallographic Data Centre (CCDC).
#
# This work is licensed under the Creative Commons
# Attribution-NonCommercial-ShareAlike 4.0 International License.
# To view a copy of this license, visit
# http://creativecommons.org/licenses/by-nc-sa/4.0/
# or send a letter to
# Creative Commons, PO Box 1866, Mountain View, CA 94042, USA.
#
# CIF created using the CSD Python API on 29 September 2022
# The structure has been converted into the P1 space group
# The structure has a 3D framework
# The original CSD entry KOFPEB02 is in the trigonal crystal system
# The framework has been calculated to contain at least 10.0% void space
# The void calculation uses a probe of radius 1.32A, grid spacing 0.4
# H atom positions have been added when not included in the experimental data
#
###############################################################################

data_KOFPEB02
_chemical_formula_moiety         '(C48 H84 Cu9 La4 N12 O48)n'
_symmetry_cell_setting           triclinic
_symmetry_space_group_name_H-M   'P 1'
_symmetry_Int_Tables_number      1
_space_group_name_Hall           'P 1'
loop_
_symmetry_equiv_pos_site_id
_symmetry_equiv_pos_as_xyz
1 x,y,z
_cell_length_a                   13.5156(19)
_cell_length_b                   13.5156(19)
_cell_length_c                   14.872(3)
_cell_angle_alpha                90
_cell_angle_beta                 90
_cell_angle_gamma                120
_cell_volume                     2352.72
loop_
_atom_site_label
_atom_site_type_symbol
_atom_site_fract_x
_atom_site_fract_y
_atom_site_fract_z
Cu5 Cu 0.5000 0.0000 0.0000
H11 H 0.6697 0.0219 0.4240
H14 H 0.3522 0.0219 0.9240
O11 O 0.5478(3) 0.1828(4) 0.4450(2)
O24 O 0.5971(3) 0.0725(4) 0.6056(2)
Cu2 Cu 0.5000 -0.0000 0.5000
Cu5_2 Cu 0.5000 -0.0000 1.0000
N8 N 0.3906(4) 0.0415(6) 0.5570(3)
H36 H 0.428973 0.0948628 0.609737
H37 H 0.36615 0.080644 0.511084
H8 H 0.0439 0.2877 0.0428
H9 H 0.2438 0.9561 0.0428
H10 H 0.7123 0.7562 0.0428
C7 C 0.1801(6) 0.4526(4) 0.0659(3)
C8 C 0.2725(4) 0.8199(6) 0.0659(3)
C9 C 0.5474(4) 0.7275(4) 0.0659(3)
C12 C 0.0964(6) 0.3529(4) 0.0089(3)
C13 C 0.2565(4) 0.9036(6) 0.0089(3)
C14 C 0.6471(4) 0.7435(4) 0.0089(3)
O7 O 0.1828(4) 0.5478(3) 0.0550(2)
O8 O 0.3650(3) 0.8172(4) 0.0550(2)
O9 O 0.4522(3) 0.6350(3) 0.0550(2)
O15 O 0.2411(4) 0.4402(3) 0.1221(2)
O16 O 0.1991(3) 0.7589(4) 0.1221(2)
O17 O 0.5598(3) 0.8009(3) 0.1221(2)
O31 O 0.4368(3) 0.6138(3) 0.2752(2)
O32 O 0.3862(3) 0.8230(4) 0.2752(2)
O33 O 0.1770(4) 0.5632(3) 0.2752(2)
La2 La 0.3334 0.6667 0.16823(3)
Cu4 Cu 0.0000 0.5000 0.0000
Cu5_3 Cu 0.5000 1.0000 0.0000
Cu6 Cu 0.5000 0.5000 0.0000
H1 H 0.2438 0.2877 0.5428
H2 H 0.3522 0.3303 0.4240
H3 H 0.2024 0.3457 0.4645
H4 H 0.2753 0.4630 0.3805
H5 H 0.3302 0.3975 0.3148
C1 C 0.2725(4) 0.4526(4) 0.5659(3)
C2 C 0.2565(4) 0.3529(4) 0.5089(3)
C3 C 0.3335(5) 0.4459(5) 0.3634(3)
C4 C 0.4401(8) 0.5612(8) 0.3434(2)
O1 O 0.3650(3) 0.5478(3) 0.5550(2)
O2 O 0.1991(3) 0.4402(3) 0.6221(2)
O3 O 0.5246(3) 0.5971(3) 0.3944(2)
La1 La 0.3333 0.6667 0.66823(3)
Cu1 Cu 0.5000 0.5000 0.5000
N1 N 0.3491(4) 0.3906(4) 0.4430(3)
H6 H 0.7123 0.9561 0.5428
H7 H 0.0439 0.7562 0.5428
H15 H 0.6697 0.6478 0.9240
H16 H 0.6478 0.6697 0.5760
H17 H 0.3303 0.9781 0.5760
H18 H 0.0219 0.3522 0.5760
H19 H 0.6543 0.8567 0.4645
H20 H 0.1433 0.7976 0.4645
H21 H 0.1433 0.3457 0.9645
H22 H 0.2024 0.8567 0.9645
H23 H 0.6543 0.7976 0.9645
H24 H 0.5370 0.8123 0.3805
H25 H 0.1877 0.7247 0.3805
H26 H 0.1877 0.4630 0.8805
H27 H 0.2753 0.8123 0.8805
H28 H 0.5370 0.7247 0.8805
H29 H 0.6025 0.9327 0.3148
H30 H 0.0673 0.6698 0.3148
H31 H 0.0673 0.3975 0.8148
H32 H 0.3302 0.9327 0.8148
H33 H 0.6025 0.6698 0.8148
C5 C 0.5474(4) 0.8199(6) 0.5659(3)
C6 C 0.1801(6) 0.7275(4) 0.5659(3)
C10 C 0.6471(4) 0.9036(6) 0.5089(3)
C11 C 0.0964(6) 0.7435(4) 0.5089(3)
C15 C 0.5541(5) 0.8876(7) 0.3634(3)
C16 C 0.1124(7) 0.6665(5) 0.3634(3)
C17 C 0.1124(7) 0.4459(5) 0.8634(3)
C18 C 0.3335(5) 0.8876(7) 0.8634(3)
C19 C 0.5541(5) 0.6665(5) 0.8634(3)
C20 C 0.4388(8) 0.8789(11) 0.3434(2)
C21 C 0.1211(11) 0.5599(8) 0.3434(2)
C22 C 0.1211(11) 0.5612(8) 0.8434(2)
C23 C 0.4401(8) 0.8789(11) 0.8434(2)
C24 C 0.4388(8) 0.5599(8) 0.8434(2)
O5 O 0.4522(3) 0.8172(4) 0.5550(2)
O6 O 0.1828(4) 0.6350(3) 0.5550(2)
O10 O 0.6350(3) 0.4522(3) 0.4450(2)
O13 O 0.5598(3) 0.7589(4) 0.6221(2)
O14 O 0.2411(4) 0.8009(3) 0.6221(2)
O18 O 0.4029(3) 0.9275(4) 0.3944(2)
O19 O 0.0725(4) 0.4754(3) 0.3944(2)
O20 O 0.0725(4) 0.5971(3) 0.8944(2)
O21 O 0.5246(3) 0.9275(4) 0.8944(2)
O22 O 0.4029(3) 0.4754(3) 0.8944(2)
O23 O 0.4754(3) 0.4029(3) 0.6056(2)
O28 O 0.1770(4) 0.6138(3) 0.7752(2)
O29 O 0.4368(3) 0.8230(4) 0.7752(2)
O30 O 0.3862(3) 0.5632(3) 0.7752(2)
Cu2_2 Cu 0.5000 1.0000 0.5000
Cu3 Cu 0.0000 0.5000 0.5000
Cu4_2 Cu 0.0000 0.5000 1.0000
Cu5_4 Cu 0.5000 1.0000 1.0000
Cu6_2 Cu 0.5000 0.5000 1.0000
N2 N 0.6094(4) 0.9585(6) 0.4430(3)
N3 N 0.0415(6) 0.6509(4) 0.4430(3)
N4 N 0.0415(6) 0.3906(4) 0.9430(3)
N5 N 0.3491(4) 0.9585(6) 0.9430(3)
N6 N 0.6094(4) 0.6509(4) 0.9430(3)
N7 N 0.6509(4) 0.6094(4) 0.5570(3)
H34 H 0.714494 0.63385 0.511084
H35 H 0.66589 0.571027 0.609737
Cu4_3 Cu 1.0000 0.5000 0.0000
H12 H 0.9781 0.6478 0.4240
H13 H 0.9781 0.3303 0.9240
O12 O 0.8172(4) 0.3650(3) 0.4450(2)
O25 O 0.9275(4) 0.5246(3) 0.6056(2)
Cu3_2 Cu 1.0000 0.5000 0.5000
Cu4_4 Cu 1.0000 0.5000 1.0000
N9 N 0.9585(6) 0.3491(4) 0.5570(3)
H38 H 0.905137 0.33411 0.609737
H39 H 0.919356 0.285506 0.511084
H11_2 H 0.0219 0.6697 0.0760
H36_2 H 0.0948628 0.428973 0.890263
H37_2 H 0.080644 0.36615 0.988916
H2_2 H 0.3303 0.3522 0.0760
H3_2 H 0.3457 0.2024 0.0355
H4_2 H 0.4630 0.2753 0.1195
H5_2 H 0.3975 0.3302 0.1852
C3_2 C 0.4459(5) 0.3335(5) 0.1366(3)
C4_2 C 0.5612(8) 0.4401(8) 0.1566(2)
O3_2 O 0.5971(3) 0.5246(3) 0.1056(2)
O4 O 0.6138(3) 0.4368(3) 0.2248(2)
N1_2 N 0.3906(4) 0.3491(4) 0.0570(3)
H19_2 H 0.8567 0.6543 0.0355
H20_2 H 0.7976 0.1433 0.0355
H24_2 H 0.8123 0.5370 0.1195
H25_2 H 0.7247 0.1877 0.1195
H29_2 H 0.9327 0.6025 0.1852
H30_2 H 0.6698 0.0673 0.1852
C15_2 C 0.8876(7) 0.5541(5) 0.1366(3)
C16_2 C 0.6665(5) 0.1124(7) 0.1366(3)
C20_2 C 0.8789(11) 0.4388(8) 0.1566(2)
C21_2 C 0.5599(8) 0.1211(11) 0.1566(2)
O18_2 O 0.9275(4) 0.4029(3) 0.1056(2)
O19_2 O 0.4754(3) 0.0725(4) 0.1056(2)
O26 O 0.8230(4) 0.3862(3) 0.2248(2)
O27 O 0.5632(3) 0.1770(4) 0.2248(2)
La3 La 0.6667 0.3334 0.33177(3)
N2_2 N 0.9585(6) 0.6094(4) 0.0570(3)
N3_2 N 0.6509(4) 0.0415(6) 0.0570(3)
H1_2 H 0.2877 0.2438 0.9572
C1_2 C 0.4526(4) 0.2725(4) 0.9341(3)
C2_2 C 0.3529(4) 0.2565(4) 0.9911(3)
O1_2 O 0.5478(3) 0.3650(3) 0.9450(2)
O2_2 O 0.4402(3) 0.1991(3) 0.8779(2)
La1_2 La 0.6667 0.3333 0.83177(3)
H6_2 H 0.9561 0.7123 0.9572
H7_2 H 0.7562 0.0439 0.9572
H8_2 H 0.2877 0.0439 0.4572
H9_2 H 0.9561 0.2438 0.4572
H10_2 H 0.7562 0.7123 0.4572
H21_2 H 0.3457 0.1433 0.5355
H22_2 H 0.8567 0.2024 0.5355
H23_2 H 0.7976 0.6543 0.5355
H26_2 H 0.4630 0.1877 0.6195
H27_2 H 0.8123 0.2753 0.6195
H28_2 H 0.7247 0.5370 0.6195
H31_2 H 0.3975 0.0673 0.6852
H32_2 H 0.9327 0.3302 0.6852
H33_2 H 0.6698 0.6025 0.6852
C5_2 C 0.8199(6) 0.5474(4) 0.9341(3)
C6_2 C 0.7275(4) 0.1801(6) 0.9341(3)
C7_2 C 0.4526(4) 0.1801(6) 0.4341(3)
C8_2 C 0.8199(6) 0.2725(4) 0.4341(3)
C9_2 C 0.7275(4) 0.5474(4) 0.4341(3)
C10_2 C 0.9036(6) 0.6471(4) 0.9911(3)
C11_2 C 0.7435(4) 0.0964(6) 0.9911(3)
C12_2 C 0.3529(4) 0.0964(6) 0.4911(3)
C13_2 C 0.9036(6) 0.2565(4) 0.4911(3)
C14_2 C 0.7435(4) 0.6471(4) 0.4911(3)
C17_2 C 0.4459(5) 0.1124(7) 0.6366(3)
C18_2 C 0.8876(7) 0.3335(5) 0.6366(3)
C19_2 C 0.6665(5) 0.5541(5) 0.6366(3)
C22_2 C 0.5612(8) 0.1211(11) 0.6566(2)
C23_2 C 0.8789(11) 0.4401(8) 0.6566(2)
C24_2 C 0.5599(8) 0.4388(8) 0.6566(2)
O5_2 O 0.8172(4) 0.4522(3) 0.9450(2)
O6_2 O 0.6350(3) 0.1828(4) 0.9450(2)
O13_2 O 0.7589(4) 0.5598(3) 0.8779(2)
O14_2 O 0.8009(3) 0.2411(4) 0.8779(2)
O15_2 O 0.4402(3) 0.2411(4) 0.3779(2)
O16_2 O 0.7589(4) 0.1991(3) 0.3779(2)
O17_2 O 0.8009(3) 0.5598(3) 0.3779(2)
O28_2 O 0.6138(3) 0.1770(4) 0.7248(2)
O29_2 O 0.8230(4) 0.4368(3) 0.7248(2)
O30_2 O 0.5632(3) 0.3862(3) 0.7248(2)
H34_2 H 0.63385 0.714494 0.988916
H35_2 H 0.571027 0.66589 0.890263
H12_2 H 0.6478 0.9781 0.0760
H38_2 H 0.33411 0.905137 0.890263
H39_2 H 0.285506 0.919356 0.988916
H38_3 H 0.0948628 0.66589 0.390263
H39_3 H 0.080644 0.714494 0.488916
H34_3 H 0.285506 0.36615 0.488916
H35_3 H 0.33411 0.428973 0.390263
H36_3 H 0.571027 0.905137 0.390263
H37_3 H 0.63385 0.919356 0.488916
H38_4 H 0.66589 0.0948628 0.109737
H39_4 H 0.714494 0.080644 0.011084
H34_4 H 0.36615 0.285506 0.011084
H35_4 H 0.428973 0.33411 0.109737
H36_4 H 0.905137 0.571027 0.109737
H37_4 H 0.919356 0.63385 0.011084
loop_
_geom_bond_atom_site_label_1
_geom_bond_atom_site_label_2
_geom_bond_site_symmetry_1
_geom_bond_site_symmetry_2
O11 Cu2 1_555 1_555
O24 Cu2 1_555 1_555
N8 Cu2 1_555 1_555
N8 H36 1_555 1_555
N8 H37 1_555 1_555
H8 C12 1_555 1_555
H9 C13 1_555 1_555
H10 C14 1_555 1_555
C7 C12 1_555 1_555
C8 C13 1_555 1_555
C9 C14 1_555 1_555
O7 C7 1_555 1_555
O8 C8 1_555 1_555
O9 C9 1_555 1_555
O15 C7 1_555 1_555
O16 C8 1_555 1_555
O17 C9 1_555 1_555
O31 La2 1_555 1_555
O32 La2 1_555 1_555
O33 La2 1_555 1_555
La2 O7 1_555 1_555
Cu4 O7 1_555 1_555
Cu5_3 O8 1_555 1_555
Cu6 O9 1_555 1_555
O8 La2 1_555 1_555
O9 La2 1_555 1_555
O15 La2 1_555 1_555
O16 La2 1_555 1_555
O17 La2 1_555 1_555
H1 C2 1_555 1_555
H2 N1 1_555 1_555
H3 C2 1_555 1_555
H4 C3 1_555 1_555
H5 C3 1_555 1_555
C1 C2 1_555 1_555
C2 N1 1_555 1_555
C3 C4 1_555 1_555
C4 O3 1_555 1_555
O1 C1 1_555 1_555
O2 C1 1_555 1_555
O3 Cu1 1_555 1_555
O31 C4 1_555 1_555
La1 O1 1_555 1_555
Cu1 O1 1_555 1_555
N1 C3 1_555 1_555
H6 C10 1_555 1_555
H7 C11 1_555 1_555
H15 N6 1_555 1_555
H16 N7 1_555 1_555
H19 C10 1_555 1_555
H20 C11 1_555 1_555
H24 C15 1_555 1_555
H25 C16 1_555 1_555
H26 C17 1_555 1_555
H27 C18 1_555 1_555
H28 C19 1_555 1_555
H29 C15 1_555 1_555
H30 C16 1_555 1_555
H31 C17 1_555 1_555
H32 C18 1_555 1_555
H33 C19 1_555 1_555
C5 C10 1_555 1_555
C6 C11 1_555 1_555
C10 N2 1_555 1_555
C11 N3 1_555 1_555
C15 C20 1_555 1_555
C16 C21 1_555 1_555
C17 C22 1_555 1_555
C18 C23 1_555 1_555
C19 C24 1_555 1_555
C20 O18 1_555 1_555
C21 O19 1_555 1_555
C22 O20 1_555 1_555
C23 O21 1_555 1_555
C24 O22 1_555 1_555
O5 La1 1_555 1_555
O6 La1 1_555 1_555
O10 Cu1 1_555 1_555
O13 La1 1_555 1_555
O14 La1 1_555 1_555
O18 Cu2_2 1_555 1_555
O19 Cu3 1_555 1_555
O20 Cu4_2 1_555 1_555
O21 Cu5_4 1_555 1_555
O22 Cu6_2 1_555 1_555
O23 Cu1 1_555 1_555
O32 C20 1_555 1_555
O33 C21 1_555 1_555
O28 La1 1_555 1_555
O29 La1 1_555 1_555
O30 La1 1_555 1_555
Cu2_2 O5 1_555 1_555
Cu3 O6 1_555 1_555
N2 C15 1_555 1_555
N3 C16 1_555 1_555
N4 C17 1_555 1_555
N5 C18 1_555 1_555
N6 C19 1_555 1_555
N7 Cu1 1_555 1_555
O2 La1 1_555 1_555
Cu1 N1 1_555 1_555
C5 O5 1_555 1_555
C5 O13 1_555 1_555
C6 O6 1_555 1_555
C6 O14 1_555 1_555
C22 O28 1_555 1_555
C23 O29 1_555 1_555
C24 O30 1_555 1_555
Cu2_2 N2 1_555 1_555
Cu3 N3 1_555 1_555
Cu4_2 N4 1_555 1_555
Cu5_4 N5 1_555 1_555
Cu6_2 N6 1_555 1_555
N7 H34 1_555 1_555
N7 H35 1_555 1_555
O12 Cu3_2 1_555 1_555
O25 Cu3_2 1_555 1_555
N9 Cu3_2 1_555 1_555
N9 H38 1_555 1_555
N9 H39 1_555 1_555
N4 H36_2 1_555 1_555
N4 H37_2 1_555 1_555
H2_2 N1_2 1_555 1_555
H4_2 C3_2 1_555 1_555
H5_2 C3_2 1_555 1_555
C3_2 C4_2 1_555 1_555
C4_2 O3_2 1_555 1_555
O3_2 Cu6 1_555 1_555
O4 C4_2 1_555 1_555
N1_2 C3_2 1_555 1_555
H24_2 C15_2 1_555 1_555
H25_2 C16_2 1_555 1_555
H29_2 C15_2 1_555 1_555
H30_2 C16_2 1_555 1_555
C15_2 C20_2 1_555 1_555
C16_2 C21_2 1_555 1_555
C20_2 O18_2 1_555 1_555
C21_2 O19_2 1_555 1_555
O18_2 Cu4_3 1_555 1_555
O19_2 Cu5 1_555 1_555
O26 C20_2 1_555 1_555
O27 C21_2 1_555 1_555
La3 O4 1_555 1_555
N2_2 C15_2 1_555 1_555
N3_2 C16_2 1_555 1_555
Cu6 N1_2 1_555 1_555
O26 La3 1_555 1_555
O27 La3 1_555 1_555
Cu4_3 N2_2 1_555 1_555
Cu5 N3_2 1_555 1_555
H1_2 C2_2 1_555 1_555
C1_2 C2_2 1_555 1_555
O1_2 C1_2 1_555 1_555
O2_2 C1_2 1_555 1_555
La1_2 O1_2 1_555 1_555
Cu6_2 O1_2 1_555 1_555
H6_2 C10_2 1_555 1_555
H7_2 C11_2 1_555 1_555
H8_2 C12_2 1_555 1_555
H9_2 C13_2 1_555 1_555
H10_2 C14_2 1_555 1_555
H21_2 C12_2 1_555 1_555
H22_2 C13_2 1_555 1_555
H23_2 C14_2 1_555 1_555
H26_2 C17_2 1_555 1_555
H27_2 C18_2 1_555 1_555
H28_2 C19_2 1_555 1_555
H31_2 C17_2 1_555 1_555
H32_2 C18_2 1_555 1_555
H33_2 C19_2 1_555 1_555
C5_2 C10_2 1_555 1_555
C6_2 C11_2 1_555 1_555
C7_2 C12_2 1_555 1_555
C8_2 C13_2 1_555 1_555
C9_2 C14_2 1_555 1_555
C12_2 N8 1_555 1_555
C13_2 N9 1_555 1_555
C14_2 N7 1_555 1_555
C17_2 C22_2 1_555 1_555
C18_2 C23_2 1_555 1_555
C19_2 C24_2 1_555 1_555
C22_2 O24 1_555 1_555
C23_2 O25 1_555 1_555
C24_2 O23 1_555 1_555
O5_2 La1_2 1_555 1_555
O6_2 La1_2 1_555 1_555
O11 C7_2 1_555 1_555
O12 C8_2 1_555 1_555
O10 C9_2 1_555 1_555
O13_2 La1_2 1_555 1_555
O14_2 La1_2 1_555 1_555
O15_2 C7_2 1_555 1_555
O16_2 C8_2 1_555 1_555
O17_2 C9_2 1_555 1_555
O28_2 La1_2 1_555 1_555
O29_2 La1_2 1_555 1_555
O30_2 La1_2 1_555 1_555
La3 O11 1_555 1_555
Cu4_4 O5_2 1_555 1_555
Cu5_2 O6_2 1_555 1_555
N8 C17_2 1_555 1_555
N9 C18_2 1_555 1_555
N7 C19_2 1_555 1_555
O2_2 La1_2 1_555 1_555
C5_2 O5_2 1_555 1_555
C5_2 O13_2 1_555 1_555
C6_2 O6_2 1_555 1_555
C6_2 O14_2 1_555 1_555
C22_2 O28_2 1_555 1_555
C23_2 O29_2 1_555 1_555
C24_2 O30_2 1_555 1_555
O12 La3 1_555 1_555
O10 La3 1_555 1_555
O15_2 La3 1_555 1_555
O16_2 La3 1_555 1_555
O17_2 La3 1_555 1_555
N6 H34_2 1_555 1_555
N6 H35_2 1_555 1_555
N5 H38_2 1_555 1_555
N5 H39_2 1_555 1_555
N3 H38_3 1_555 1_555
N3 H39_3 1_555 1_555
N1 H34_3 1_555 1_555
N1 H35_3 1_555 1_555
N2 H36_3 1_555 1_555
N2 H37_3 1_555 1_555
N3_2 H38_4 1_555 1_555
N3_2 H39_4 1_555 1_555
N1_2 H34_4 1_555 1_555
N1_2 H35_4 1_555 1_555
N2_2 H36_4 1_555 1_555
N2_2 H37_4 1_555 1_555

#END
