
###############################################################################
#
# This file contains modified crystal structure data generated from the
# MOF subset of the Cambridge Structural Database (CSD) v543 
# hosted by the Cambridge Crystallographic Data Centre (CCDC).
#
# This work is licensed under the Creative Commons
# Attribution-NonCommercial-ShareAlike 4.0 International License.
# To view a copy of this license, visit
# http://creativecommons.org/licenses/by-nc-sa/4.0/
# or send a letter to
# Creative Commons, PO Box 1866, Mountain View, CA 94042, USA.
#
# CIF created using the CSD Python API on 29 September 2022
# The structure has been converted into the P1 space group
# The structure has a 3D framework
# The original CSD entry KOFVOS is in the monoclinic crystal system
# The framework has been calculated to contain at least 10.0% void space
# The void calculation uses a probe of radius 1.32A, grid spacing 0.4
# H atom positions have been added when not included in the experimental data
# Generated hydrogen atom positions removed from atoms on special positions
#
###############################################################################

data_KOFVOS
_chemical_formula_moiety         '(C56 H80 N8 Ni20 O40 12+)n'
_symmetry_cell_setting           triclinic
_symmetry_space_group_name_H-M   'P 1'
_symmetry_Int_Tables_number      1
_space_group_name_Hall           'P 1'
loop_
_symmetry_equiv_pos_site_id
_symmetry_equiv_pos_as_xyz
1 x,y,z
_cell_length_a                   13.854(4)
_cell_length_b                   11.411(5)
_cell_length_c                   17.710(4)
_cell_angle_alpha                90
_cell_angle_beta                 128.109(13)
_cell_angle_gamma                90
_cell_volume                     2202.94
loop_
_atom_site_label
_atom_site_type_symbol
_atom_site_fract_x
_atom_site_fract_y
_atom_site_fract_z
N6 N 0.0608(7) 0.2750(8) 0.7890(6)
Ni1 Ni 0.87858(12) 0.27598(13) 0.69859(10)
Ni2 Ni 0.0000 0.0000 0.0000
O3 O 0.0881(6) 0.0848(7) 0.1286(5)
O5 O 0.0756(6) 0.3848(7) 0.4637(5)
O6 O 0.8529(7) 0.1187(8) 0.6275(6)
O7 O 0.7081(7) 0.0019(8) 0.5110(6)
O8 O 0.8210(6) 0.4316(7) 0.7256(5)
O9 O 0.6527(7) 0.5307(8) 0.6783(6)
N1 N 0.0608(7) 0.2250(8) 0.2890(6)
N2 N 0.6985(9) 0.2660(8) 0.6060(7)
C1 C 0.0397(9) 0.1288(9) 0.1617(7)
C2 C 0.0287(9) 0.3273(9) 0.3886(8)
C3 C 0.7425(10) 0.0889(10) 0.5627(8)
C4 C 0.7054(10) 0.4449(10) 0.6735(8)
C5 C 0.1217(10) 0.1797(10) 0.2605(8)
C6 C 0.2502(10) 0.1850(9) 0.3209(8)
H1 H 0.2948 0.1537 0.3011
C7 C 0.3117(10) 0.2379(9) 0.4117(8)
C8 C 0.2421(9) 0.2922(9) 0.4351(8)
H2 H 0.2812 0.3348 0.4933
C9 C 0.1151(10) 0.2825(9) 0.3715(8)
C10 C 0.6473(9) 0.1723(10) 0.5472(8)
C11 C 0.5221(9) 0.1624(10) 0.4826(8)
H3 H 0.4864 0.0963 0.4412
C12 C 0.4470(11) 0.2487(9) 0.4773(8)
C13 C 0.5033(10) 0.3466(11) 0.5385(8)
H4 H 0.4549 0.4083 0.5355
C14 C 0.6307(9) 0.3515(10) 0.6034(8)
Ni7 Ni -0.0000 0.5000 0.5000
O20 O 0.9253(7) 0.3615(7) 0.6180(6)
O22 O 0.9169(7) 0.1940(7) 0.8251(5)
Ni2_2 Ni -0.0000 0.0000 1.0000
O24 O 0.0756(6) 0.1152(7) 0.9637(5)
Ni2_3 Ni 0.0000 1.0000 0.0000
O1 O 0.1601(7) 0.9041(7) 0.0639(6)
Ni2_4 Ni -0.0000 1.0000 1.0000
O11 O 0.0747(7) 0.8615(7) 0.8820(6)
O13 O 0.0831(7) 0.6940(7) 0.6749(5)
Ni4 Ni 0.12142(12) 0.77598(13) 0.80141(10)
Ni2_5 Ni 1.0000 0.0000 0.0000
O2 O 0.9253(7) 0.1385(7) 0.1180(6)
O4 O 0.9169(7) 0.3060(7) 0.3251(5)
Ni5 Ni 0.87858(12) 0.22402(13) 0.19859(10)
Ni7_2 Ni 1.0000 0.5000 0.5000
Ni2_6 Ni 1.0000 0.0000 1.0000
O10 O 0.8399(7) 0.0959(7) 0.9361(6)
Ni2_7 Ni 1.0000 1.0000 0.0000
O23 O 0.9244(6) 0.8848(7) 0.0363(5)
Ni2_8 Ni 1.0000 1.0000 1.0000
Ni3 Ni 0.12142(12) 0.72402(13) 0.30141(10)
O12 O 0.9119(6) 0.9152(7) 0.8714(5)
O14 O 0.9244(6) 0.6152(7) 0.5363(5)
O15 O 0.1471(7) 0.8813(8) 0.3725(6)
O16 O 0.2919(7) 0.9981(8) 0.4890(6)
O17 O 0.1790(6) 0.5684(7) 0.2744(5)
O18 O 0.3473(7) 0.4693(8) 0.3217(6)
N3 N 0.9392(7) 0.7750(8) 0.7110(6)
N4 N 0.3015(9) 0.7340(8) 0.3940(7)
C15 C 0.9603(9) 0.8712(9) 0.8383(7)
C16 C 0.9713(9) 0.6727(9) 0.6114(8)
C17 C 0.2575(10) 0.9111(10) 0.4373(8)
C18 C 0.2946(10) 0.5551(10) 0.3265(8)
C19 C 0.8783(10) 0.8203(10) 0.7395(8)
C20 C 0.7498(10) 0.8150(9) 0.6791(8)
H5 H 0.7052 0.8463 0.6989
C21 C 0.6883(10) 0.7621(9) 0.5883(8)
C22 C 0.7579(9) 0.7078(9) 0.5649(8)
H6 H 0.7188 0.6652 0.5067
C23 C 0.8849(10) 0.7175(9) 0.6285(8)
C24 C 0.3527(9) 0.8277(10) 0.4528(8)
C25 C 0.4779(9) 0.8376(10) 0.5174(8)
H7 H 0.5136 0.9037 0.5588
C26 C 0.5530(11) 0.7513(9) 0.5227(8)
C27 C 0.4967(10) 0.6534(11) 0.4615(8)
H8 H 0.5451 0.5917 0.4645
C28 C 0.3693(9) 0.6485(10) 0.3966(8)
O19 O 0.0747(7) 0.6385(7) 0.3820(6)
O21 O 0.0831(7) 0.8060(7) 0.1749(5)
N5 N 0.9392(7) 0.7250(8) 0.2110(6)
O15_2 O 0.8529(7) 0.3813(8) 0.1275(6)
O16_2 O 0.7081(7) 0.4981(8) 0.0110(6)
O17_2 O 0.8210(6) 0.0684(7) 0.2256(5)
N4_2 N 0.6985(9) 0.2340(8) 0.1060(7)
C17_2 C 0.7425(10) 0.4111(10) 0.0627(8)
C18_2 C 0.7054(10) 0.0551(10) 0.1735(8)
C24_2 C 0.6473(9) 0.3277(10) 0.0472(8)
C27_2 C 0.5033(10) 0.1534(11) 0.0385(8)
H8_2 H 0.4549 0.0917 0.0355
C28_2 C 0.6307(9) 0.1485(10) 0.1034(8)
O10_2 O 0.1601(7) 0.5959(7) 0.5639(6)
O12_2 O 0.0881(6) 0.4152(7) 0.6286(5)
C15_2 C 0.0397(9) 0.3712(9) 0.6617(7)
C16_2 C 0.0287(9) 0.1727(9) 0.8886(8)
C19_2 C 0.1217(10) 0.3203(10) 0.7605(8)
C20_2 C 0.2502(10) 0.3150(9) 0.8209(8)
H5_2 H 0.2948 0.3463 0.8011
C21_2 C 0.3117(10) 0.2621(9) 0.9117(8)
C22_2 C 0.2421(9) 0.2078(9) 0.9351(8)
H6_2 H 0.2812 0.1652 0.9933
C23_2 C 0.1151(10) 0.2175(9) 0.8715(8)
C25_2 C 0.5221(9) 0.3376(10) 0.9826(8)
H7_2 H 0.4864 0.4037 0.9412
C26_2 C 0.4470(11) 0.2513(9) 0.9773(8)
O18_2 O 0.6527(7) 0.9693(8) 0.1783(6)
O9_2 O 0.3473(7) 0.0307(8) 0.8217(6)
O1_2 O 0.8399(7) 0.4041(7) 0.4361(6)
O3_2 O 0.9119(6) 0.5848(7) 0.3714(5)
C1_2 C 0.9603(9) 0.6288(9) 0.3383(7)
C2_2 C 0.9713(9) 0.8273(9) 0.1114(8)
C5_2 C 0.8783(10) 0.6797(10) 0.2395(8)
C6_2 C 0.7498(10) 0.6850(9) 0.1791(8)
H1_2 H 0.7052 0.6537 0.1989
C7_2 C 0.6883(10) 0.7379(9) 0.0883(8)
C8_2 C 0.7579(9) 0.7922(9) 0.0649(8)
H2_2 H 0.7188 0.8348 0.0067
C9_2 C 0.8849(10) 0.7825(9) 0.1285(8)
C11_2 C 0.4779(9) 0.6624(10) 0.0174(8)
H3_2 H 0.5136 0.5963 0.0588
C12_2 C 0.5530(11) 0.7487(9) 0.0227(8)
O6_2 O 0.1471(7) 0.6187(8) 0.8725(6)
O7_2 O 0.2919(7) 0.5019(8) 0.9890(6)
O8_2 O 0.1790(6) 0.9316(7) 0.7744(5)
N2_2 N 0.3015(9) 0.7660(8) 0.8940(7)
C3_2 C 0.2575(10) 0.5889(10) 0.9373(8)
C4_2 C 0.2946(10) 0.9449(10) 0.8265(8)
C10_2 C 0.3527(9) 0.6723(10) 0.9528(8)
C13_2 C 0.4967(10) 0.8466(11) 0.9615(8)
H4_2 H 0.5451 0.9083 0.9645
C14_2 C 0.3693(9) 0.8515(10) 0.8966(8)
Ni8 Ni -0.0000 0.0000 0.5000
O25 O 0.1242(8) 0.1017(7) 0.5055(6)
O27 O 0.0431(7) 0.0800(7) 0.6211(6)
H21 H 0.0261663 0.16529 0.609025
H16 H 0.107493 0.140027 0.643413
Ni8_2 Ni -0.0000 1.0000 0.5000
O26 O 0.1318(7) 0.8687(7) 0.5817(6)
H15 H 0.0312726 0.88183 0.39375
H22 H 0.00738511 0.954213 0.362136
Ni8_3 Ni 1.0000 0.0000 0.5000
O29 O 0.8682(7) 0.1313(7) 0.4183(6)
H22_2 H 0.992615 0.0457873 0.637864
H15_2 H 0.968727 0.11817 0.60625
Ni8_4 Ni 1.0000 1.0000 0.5000
O28 O 0.8758(8) 0.8983(7) 0.4945(6)
O30 O 0.9569(7) 0.9200(7) 0.3789(6)
H16_2 H 0.892507 0.859973 0.356587
H21_2 H 0.973834 0.83471 0.390975
Ni8_5 Ni 0.0000 0.5000 0.0000
O28_2 O 0.1242(8) 0.3983(7) 0.0055(6)
O29_2 O 0.1318(7) 0.6313(7) 0.0817(6)
O30_2 O 0.0431(7) 0.4200(7) 0.1211(6)
H16_3 H 0.107493 0.359973 0.143413
H24 H 0.204621 0.439111 0.0428867
H21_3 H 0.0261663 0.33471 0.109025
Ni8_6 Ni 0.0000 0.5000 1.0000
H22_3 H 0.00738511 0.545787 0.862136
H23 H 0.0956454 0.38335 0.939349
H15_3 H 0.0312726 0.61817 0.89375
H17 H 0.155788 0.440765 0.975838
H18 H 0.084335 0.32428 0.969909
Ni8_7 Ni 1.0000 0.5000 0.0000
H15_4 H 0.968727 0.38183 0.10625
H17_2 H 0.844212 0.559235 0.0241625
H18_2 H 0.915665 0.67572 0.0300907
H22_4 H 0.992615 0.454213 0.137864
H23_2 H 0.904355 0.61665 0.0606512
Ni8_8 Ni 1.0000 0.5000 1.0000
O25_2 O 0.8758(8) 0.6017(7) 0.9945(6)
O26_2 O 0.8682(7) 0.3687(7) 0.9183(6)
O27_2 O 0.9569(7) 0.5800(7) 0.8789(6)
H21_4 H 0.973834 0.66529 0.890975
H16_4 H 0.892507 0.640027 0.856587
H24_2 H 0.795379 0.560889 0.957113
loop_
_geom_bond_atom_site_label_1
_geom_bond_atom_site_label_2
_geom_bond_site_symmetry_1
_geom_bond_site_symmetry_2
Ni1 O6 1_555 1_555
O3 Ni2 1_555 1_555
O5 C2 1_555 1_555
O6 C3 1_555 1_555
O7 C3 1_555 1_555
O8 Ni1 1_555 1_555
O9 C4 1_555 1_555
N1 C5 1_555 1_555
N2 Ni1 1_555 1_555
C1 O3 1_555 1_555
C2 C9 1_555 1_555
C3 C10 1_555 1_555
C4 O8 1_555 1_555
C5 C1 1_555 1_555
C6 C5 1_555 1_555
H1 C6 1_555 1_555
C7 C6 1_555 1_555
C8 C7 1_555 1_555
H2 C8 1_555 1_555
C9 N1 1_555 1_555
C10 N2 1_555 1_555
C11 C10 1_555 1_555
H3 C11 1_555 1_555
C12 C7 1_555 1_555
C13 C12 1_555 1_555
H4 C13 1_555 1_555
C14 N2 1_555 1_555
Ni7 O5 1_555 1_555
O20 Ni1 1_555 1_555
O22 Ni1 1_555 1_555
C4 C14 1_555 1_555
C8 C9 1_555 1_555
C11 C12 1_555 1_555
C13 C14 1_555 1_555
O24 Ni2_2 1_555 1_555
Ni2_3 O1 1_555 1_555
Ni4 O11 1_555 1_555
O13 Ni4 1_555 1_555
Ni5 O2 1_555 1_555
O4 Ni5 1_555 1_555
O10 Ni2_6 1_555 1_555
O23 Ni2_7 1_555 1_555
Ni3 O15 1_555 1_555
O12 Ni2_8 1_555 1_555
O14 C16 1_555 1_555
O15 C17 1_555 1_555
O16 C17 1_555 1_555
O17 Ni3 1_555 1_555
O18 C18 1_555 1_555
N3 C19 1_555 1_555
N4 Ni3 1_555 1_555
C15 O12 1_555 1_555
C16 C23 1_555 1_555
C17 C24 1_555 1_555
C18 O17 1_555 1_555
C19 C15 1_555 1_555
C20 C19 1_555 1_555
H5 C20 1_555 1_555
C21 C20 1_555 1_555
C22 C21 1_555 1_555
H6 C22 1_555 1_555
C23 N3 1_555 1_555
C24 N4 1_555 1_555
C25 C24 1_555 1_555
H7 C25 1_555 1_555
C26 C21 1_555 1_555
C27 C26 1_555 1_555
H8 C27 1_555 1_555
C28 N4 1_555 1_555
Ni7_2 O14 1_555 1_555
O19 Ni3 1_555 1_555
O21 Ni3 1_555 1_555
C18 C28 1_555 1_555
C22 C23 1_555 1_555
C25 C26 1_555 1_555
C27 C28 1_555 1_555
Ni5 O15_2 1_555 1_555
O15_2 C17_2 1_555 1_555
O16_2 C17_2 1_555 1_555
O17_2 Ni5 1_555 1_555
N4_2 Ni5 1_555 1_555
C17_2 C24_2 1_555 1_555
C18_2 O17_2 1_555 1_555
C24_2 N4_2 1_555 1_555
H8_2 C27_2 1_555 1_555
C28_2 N4_2 1_555 1_555
C18_2 C28_2 1_555 1_555
C27_2 C28_2 1_555 1_555
O10_2 Ni7 1_555 1_555
O12_2 Ni7 1_555 1_555
O24 C16_2 1_555 1_555
N6 C19_2 1_555 1_555
C15_2 O12_2 1_555 1_555
C16_2 C23_2 1_555 1_555
C19_2 C15_2 1_555 1_555
C20_2 C19_2 1_555 1_555
H5_2 C20_2 1_555 1_555
C21_2 C20_2 1_555 1_555
C22_2 C21_2 1_555 1_555
H6_2 C22_2 1_555 1_555
C23_2 N6 1_555 1_555
H7_2 C25_2 1_555 1_555
C26_2 C21_2 1_555 1_555
C22_2 C23_2 1_555 1_555
C25_2 C26_2 1_555 1_555
Ni7_2 O1_2 1_555 1_555
O3_2 Ni7_2 1_555 1_555
O23 C2_2 1_555 1_555
N5 C5_2 1_555 1_555
C1_2 O3_2 1_555 1_555
C2_2 C9_2 1_555 1_555
C5_2 C1_2 1_555 1_555
C6_2 C5_2 1_555 1_555
H1_2 C6_2 1_555 1_555
C7_2 C6_2 1_555 1_555
C8_2 C7_2 1_555 1_555
H2_2 C8_2 1_555 1_555
C9_2 N5 1_555 1_555
H3_2 C11_2 1_555 1_555
C12_2 C7_2 1_555 1_555
C8_2 C9_2 1_555 1_555
C11_2 C12_2 1_555 1_555
Ni4 O6_2 1_555 1_555
O6_2 C3_2 1_555 1_555
O7_2 C3_2 1_555 1_555
O8_2 Ni4 1_555 1_555
N2_2 Ni4 1_555 1_555
C3_2 C10_2 1_555 1_555
C4_2 O8_2 1_555 1_555
C10_2 N2_2 1_555 1_555
H4_2 C13_2 1_555 1_555
C14_2 N2_2 1_555 1_555
C4_2 C14_2 1_555 1_555
C13_2 C14_2 1_555 1_555
Ni8 O25 1_555 1_555
O27 Ni8 1_555 1_555
O27 H21 1_555 1_555
O27 H16 1_555 1_555
O26 Ni8_2 1_555 1_555
O29 Ni8_3 1_555 1_555
O28 Ni8_4 1_555 1_555
O30 Ni8_4 1_555 1_555
O30 H16_2 1_555 1_555
O30 H21_2 1_555 1_555
O28_2 Ni8_5 1_555 1_555
O29_2 Ni8_5 1_555 1_555
O30_2 Ni8_5 1_555 1_555
O30_2 H16_3 1_555 1_555
O28_2 H24 1_555 1_555
O30_2 H21_3 1_555 1_555
Ni8_8 O25_2 1_555 1_555
O26_2 Ni8_8 1_555 1_555
O27_2 Ni8_8 1_555 1_555
O27_2 H21_4 1_555 1_555
O27_2 H16_4 1_555 1_555
O25_2 H24_2 1_555 1_555

#END
