
###############################################################################
#
# This file contains modified crystal structure data generated from the
# MOF subset of the Cambridge Structural Database (CSD) v543 
# hosted by the Cambridge Crystallographic Data Centre (CCDC).
#
# This work is licensed under the Creative Commons
# Attribution-NonCommercial-ShareAlike 4.0 International License.
# To view a copy of this license, visit
# http://creativecommons.org/licenses/by-nc-sa/4.0/
# or send a letter to
# Creative Commons, PO Box 1866, Mountain View, CA 94042, USA.
#
# CIF created using the CSD Python API on 29 September 2022
# The structure has been converted into the P1 space group
# The structure has a 3D framework
# The original CSD entry KOGBAM is in the tetragonal crystal system
# The framework has been calculated to contain at least 10.0% void space
# The void calculation uses a probe of radius 1.32A, grid spacing 0.4
#
###############################################################################

data_KOGBAM
_chemical_formula_moiety         '(C832 H576 Co32 N128 O160)n'
_symmetry_cell_setting           triclinic
_symmetry_space_group_name_H-M   'P 1'
_symmetry_Int_Tables_number      1
_space_group_name_Hall           'P 1'
loop_
_symmetry_equiv_pos_site_id
_symmetry_equiv_pos_as_xyz
1 x,y,z
_cell_length_a                   18.4694(7)
_cell_length_b                   18.4694(7)
_cell_length_c                   61.6922(19)
_cell_angle_alpha                90
_cell_angle_beta                 90
_cell_angle_gamma                90
_cell_volume                     21044.4
loop_
_atom_site_label
_atom_site_type_symbol
_atom_site_fract_x
_atom_site_fract_y
_atom_site_fract_z
C24 C 0.0423(4) 0.0408(4) 0.43354(13)
C25 C 0.0858(4) 0.0512(5) 0.41554(14)
H17 H 0.0711 0.0821 0.4045
C26 C 0.1514(4) 0.0153(5) 0.41417(17)
H18 H 0.1808 0.0226 0.4022
Co1 Co 0.35653(5) 0.84536(6) 0.433285(15)
N1 N 0.3954(4) 0.7290(4) 0.48987(10)
N2 N 0.3786(4) 0.7743(4) 0.45757(10)
N3 N 0.4769(4) 0.4770(3) 0.63122(9)
N4 N 0.5263(4) 0.4184(3) 0.65845(10)
O1 O 0.2636(3) 0.8885(3) 0.44316(13)
O2 O 0.2799(4) 0.9342(4) 0.41115(16)
O5 O 0.4027(4) 0.7119(3) 0.57968(9)
C1 C 0.3736(5) 0.7849(4) 0.47835(11)
H1 H 0.3563 0.8276 0.4845
C2 C 0.3828(13) 0.6965(11) 0.4552(3)
H2 H 0.3792 0.6708 0.4423
C3 C 0.3928(12) 0.6677(11) 0.4751(3)
H3 H 0.3971 0.6190 0.4786
C4 C 0.3965(4) 0.7211(4) 0.51314(12)
C5 C 0.3538(5) 0.7656(5) 0.52558(13)
H4 H 0.3229 0.7989 0.5191
C6 C 0.3573(5) 0.7604(5) 0.54782(12)
H5 H 0.3293 0.7909 0.5564
C7 C 0.4016(5) 0.7109(5) 0.55732(12)
C8 C 0.4430(6) 0.6671(5) 0.54491(14)
H6 H 0.4730 0.6332 0.5515
C9 C 0.4414(5) 0.6723(5) 0.52264(13)
H7 H 0.4707 0.6426 0.5142
C10 C 0.5186(5) 0.4810(4) 0.64880(12)
H8 H 0.5398 0.5236 0.6537
C11 C 0.4854(5) 0.3723(4) 0.64623(12)
H9 H 0.4793 0.3233 0.6492
C12 C 0.4552(5) 0.4067(4) 0.62943(12)
H10 H 0.4257 0.3868 0.6188
C13 C 0.4594(4) 0.5363(4) 0.61679(11)
C14 C 0.5080(6) 0.5905(4) 0.61400(14)
H11 H 0.5528 0.5889 0.6209
C15 C 0.4903(6) 0.6482(5) 0.60083(16)
H12 H 0.5233 0.6855 0.5987
C16 C 0.4236(6) 0.6504(4) 0.59086(12)
C17 C 0.3774(6) 0.5939(5) 0.59330(14)
H13 H 0.3335 0.5943 0.5859
C18 C 0.3943(5) 0.5358(5) 0.60652(13)
H14 H 0.3621 0.4976 0.6083
C19 C 0.2438(5) 0.9291(5) 0.4278(2)
C20 C 0.1735(4) 0.9694(4) 0.43010(16)
C21 C 0.1309(4) 0.9589(4) 0.44758(16)
H15 H 0.1463 0.9277 0.4585
C22 C 0.0644(5) 0.9936(4) 0.44961(14)
H16 H 0.0352 0.9852 0.4616
Co2 Co 0.59536(6) 0.39347(5) 0.683285(15)
N5 N 0.3316(3) 0.7763(4) 0.40845(10)
O6 O 0.4281(3) 0.9356(4) 0.45056(11)
O7 O 0.4544(3) 0.8746(3) 0.42146(9)
Co1_2 Co 0.14347(5) 0.15464(6) 0.933285(15)
N1_2 N 0.1046(4) 0.2710(4) 0.98987(10)
N2_2 N 0.1214(4) 0.2257(4) 0.95757(10)
O1_2 O 0.2364(3) 0.1115(3) 0.94316(13)
O2_2 O 0.2201(4) 0.0658(4) 0.91115(16)
C1_2 C 0.1264(5) 0.2151(4) 0.97835(11)
H1_2 H 0.1437 0.1724 0.9845
C2_2 C 0.1172(13) 0.3035(11) 0.9552(3)
H2_2 H 0.1208 0.3292 0.9423
C3_2 C 0.1072(12) 0.3323(11) 0.9751(3)
H3_2 H 0.1029 0.3810 0.9786
C19_2 C 0.2562(5) 0.0709(5) 0.9278(2)
C20_2 C 0.3265(4) 0.0306(4) 0.93010(16)
C21_2 C 0.3691(4) 0.0411(4) 0.94758(16)
H15_2 H 0.3537 0.0723 0.9585
C22_2 C 0.4356(5) 0.0064(4) 0.94961(14)
H16_2 H 0.4648 0.0148 0.9616
N5_2 N 0.1684(3) 0.2237(4) 0.90845(10)
O6_2 O 0.0719(3) 0.0644(4) 0.95056(11)
O7_2 O 0.0456(3) 0.1254(3) 0.92146(9)
N1_3 N 0.0210(4) 0.6454(4) 0.23987(10)
N3_2 N 0.2730(3) 0.7269(4) 0.38122(9)
O5_2 O 0.0381(3) 0.6527(4) 0.32968(9)
C2_3 C 0.0535(11) 0.6328(13) 0.2052(3)
H2_3 H 0.0792 0.6292 0.1923
C3_3 C 0.0823(11) 0.6428(12) 0.2251(3)
H3_3 H 0.1310 0.6471 0.2286
C4_2 C 0.0289(4) 0.6465(4) 0.26314(12)
C7_2 C 0.0391(5) 0.6516(5) 0.30732(12)
C8_2 C 0.0829(5) 0.6930(6) 0.29491(14)
H6_2 H 0.1168 0.7230 0.3015
C9_2 C 0.0777(5) 0.6914(5) 0.27264(13)
H7_2 H 0.1074 0.7207 0.2642
C10_2 C 0.2690(4) 0.7686(5) 0.39880(12)
H8_2 H 0.2264 0.7898 0.4037
C11_2 C 0.3777(4) 0.7354(5) 0.39623(12)
H9_2 H 0.4267 0.7293 0.3992
C12_2 C 0.3433(4) 0.7052(5) 0.37943(12)
H10_2 H 0.3632 0.6757 0.3688
C13_2 C 0.2137(4) 0.7094(4) 0.36679(11)
C14_2 C 0.1595(4) 0.7580(6) 0.36400(14)
H11_2 H 0.1611 0.8028 0.3709
C15_2 C 0.1018(5) 0.7403(6) 0.35083(16)
H12_2 H 0.0645 0.7733 0.3487
C16_2 C 0.0996(4) 0.6736(6) 0.34086(12)
C17_2 C 0.1561(5) 0.6274(6) 0.34330(14)
H13_2 H 0.1557 0.5835 0.3359
C18_2 C 0.2142(5) 0.6443(5) 0.35652(13)
H14_2 H 0.2524 0.6121 0.3583
N1_4 N 0.4790(4) 0.3546(4) 0.73987(10)
N2_3 N 0.5243(4) 0.3714(4) 0.70757(10)
N3_3 N 0.2270(3) 0.2731(4) 0.88122(9)
O1_3 O 0.6385(3) 0.4864(3) 0.69316(13)
O2_3 O 0.6842(4) 0.4701(4) 0.66115(16)
O3 O 0.8144(4) 0.8219(3) 0.70056(11)
O4 O 0.8754(3) 0.7956(3) 0.67146(9)
O5_3 O 0.4619(3) 0.3473(4) 0.82968(9)
C1_3 C 0.5349(4) 0.3764(5) 0.72835(11)
H1_3 H 0.5776 0.3937 0.7345
C2_4 C 0.4465(11) 0.3672(13) 0.7052(3)
H2_4 H 0.4208 0.3708 0.6923
C3_4 C 0.4177(11) 0.3572(12) 0.7251(3)
H3_4 H 0.3690 0.3529 0.7286
C4_3 C 0.4711(4) 0.3535(4) 0.76314(12)
C5_2 C 0.5156(5) 0.3962(5) 0.77558(13)
H4_2 H 0.5489 0.4271 0.7691
C6_2 C 0.5104(5) 0.3927(5) 0.79782(12)
H5_2 H 0.5409 0.4207 0.8064
C7_3 C 0.4609(5) 0.3484(5) 0.80732(12)
C8_3 C 0.4171(5) 0.3070(6) 0.79491(14)
H6_3 H 0.3832 0.2770 0.8015
C9_3 C 0.4223(5) 0.3086(5) 0.77264(13)
H7_3 H 0.3926 0.2793 0.7642
C10_3 C 0.2310(4) 0.2314(5) 0.89880(12)
H8_3 H 0.2736 0.2102 0.9037
C11_3 C 0.1223(4) 0.2646(5) 0.89623(12)
H9_3 H 0.0733 0.2707 0.8992
C12_3 C 0.1567(4) 0.2948(5) 0.87943(12)
H10_3 H 0.1368 0.3243 0.8688
C13_3 C 0.2863(4) 0.2906(4) 0.86679(11)
C14_3 C 0.3405(4) 0.2420(6) 0.86400(14)
H11_3 H 0.3389 0.1972 0.8709
C15_3 C 0.3982(5) 0.2597(6) 0.85083(16)
H12_3 H 0.4355 0.2267 0.8487
C16_3 C 0.4004(4) 0.3264(6) 0.84086(12)
C17_3 C 0.3439(5) 0.3726(6) 0.84330(14)
H13_3 H 0.3443 0.4165 0.8359
C18_3 C 0.2858(5) 0.3557(5) 0.85652(13)
H14_3 H 0.2476 0.3879 0.8583
C19_3 C 0.6791(5) 0.5062(5) 0.6778(2)
C20_3 C 0.7194(4) 0.5765(4) 0.68010(16)
C21_3 C 0.7089(4) 0.6191(4) 0.69758(16)
H15_3 H 0.6777 0.6037 0.7085
C22_3 C 0.7436(4) 0.6856(5) 0.69961(14)
H16_3 H 0.7352 0.7148 0.7116
C23 C 0.8283(4) 0.7794(4) 0.68555(13)
C24_2 C 0.7908(4) 0.7077(4) 0.68354(13)
C25_2 C 0.8012(5) 0.6642(4) 0.66554(14)
H17_2 H 0.8321 0.6789 0.6545
C26_2 C 0.7653(5) 0.5986(4) 0.66417(17)
H18_2 H 0.7726 0.5692 0.6522
Co3 Co 0.90464(6) 0.89347(5) 0.683285(15)
O6_3 O 0.6856(4) 0.3219(3) 0.70056(11)
O7_3 O 0.6246(3) 0.2956(3) 0.67146(9)
C23_2 C 0.0294(4) 0.0783(4) 0.93555(13)
C19_4 C 0.8209(5) 0.0062(5) 0.6778(2)
C20_4 C 0.7806(4) 0.0765(4) 0.68010(16)
C21_4 C 0.7911(4) 0.1191(4) 0.69758(16)
H15_4 H 0.8223 0.1037 0.7085
C22_4 C 0.7564(4) 0.1856(5) 0.69961(14)
H16_4 H 0.7648 0.2148 0.7116
C23_3 C 0.6717(4) 0.2794(4) 0.68555(13)
C24_3 C 0.7092(4) 0.2077(4) 0.68354(13)
C25_3 C 0.6988(5) 0.1642(4) 0.66554(14)
H17_3 H 0.6679 0.1789 0.6545
C26_3 C 0.7347(5) 0.0986(4) 0.66417(17)
H18_3 H 0.7274 0.0692 0.6522
N2_4 N 0.9757(4) 0.8714(4) 0.70757(10)
O1_4 O 0.8615(3) 0.9864(3) 0.69316(13)
O2_4 O 0.8158(4) 0.9701(4) 0.66115(16)
C1_4 C 0.9651(4) 0.8764(5) 0.72835(11)
H1_4 H 0.9224 0.8937 0.7345
C5_3 C 0.9844(5) 0.8962(5) 0.77558(13)
H4_3 H 0.9511 0.9271 0.7691
C6_3 C 0.9896(5) 0.8927(5) 0.79782(12)
H5_3 H 0.9591 0.9207 0.8064
N5_3 N 0.9737(4) 0.9184(3) 0.65845(10)
C23_4 C 0.4706(4) 0.9217(4) 0.43555(13)
C24_4 C 0.5423(4) 0.9592(4) 0.43354(13)
C25_4 C 0.5858(4) 0.9488(5) 0.41554(14)
H17_4 H 0.5711 0.9179 0.4045
C26_4 C 0.6514(4) 0.9847(5) 0.41417(17)
H18_4 H 0.6808 0.9774 0.4022
C10_4 C 0.9814(5) 0.9810(4) 0.64880(12)
O3_2 O 0.9281(3) 0.0644(4) 0.45056(11)
O4_2 O 0.9544(3) 0.1254(3) 0.42146(9)
C23_5 C 0.9706(4) 0.0783(4) 0.43555(13)
Co3_2 Co 0.85653(5) 0.15464(6) 0.433285(15)
O3_3 O 0.3144(4) 0.3219(3) 0.20056(11)
O4_3 O 0.3754(3) 0.2956(3) 0.17146(9)
C19_5 C 0.1791(5) 0.0062(5) 0.1778(2)
C20_5 C 0.2194(4) 0.0765(4) 0.18010(16)
C21_5 C 0.2089(4) 0.1191(4) 0.19758(16)
H15_5 H 0.1777 0.1037 0.2085
C22_5 C 0.2436(4) 0.1856(5) 0.19961(14)
H16_5 H 0.2352 0.2148 0.2116
C23_6 C 0.3283(4) 0.2794(4) 0.18555(13)
C24_5 C 0.2908(4) 0.2077(4) 0.18354(13)
C25_5 C 0.3012(5) 0.1642(4) 0.16554(14)
H17_5 H 0.3321 0.1789 0.1545
C26_5 C 0.2653(5) 0.0986(4) 0.16417(17)
H18_5 H 0.2726 0.0692 0.1522
Co3_3 Co 0.40464(6) 0.39347(5) 0.183285(15)
Co1_3 Co 0.09536(6) 0.89347(5) 0.183285(15)
N2_5 N 0.0243(4) 0.8714(4) 0.20757(10)
O1_5 O 0.1385(3) 0.9864(3) 0.19316(13)
O2_5 O 0.1842(4) 0.9701(4) 0.16115(16)
C1_5 C 0.0349(4) 0.8764(5) 0.22835(11)
H1_5 H 0.0776 0.8937 0.2345
C5_4 C 0.0156(5) 0.8962(5) 0.27558(13)
H4_4 H 0.0489 0.9271 0.2691
C6_4 C 0.0104(5) 0.8927(5) 0.29782(12)
H5_4 H 0.0409 0.9207 0.3064
N5_4 N 0.0263(4) 0.9184(3) 0.15845(10)
O6_4 O 0.1856(4) 0.8219(3) 0.20056(11)
O7_4 O 0.1246(3) 0.7956(3) 0.17146(9)
C10_5 C 0.0186(5) 0.9810(4) 0.14880(12)
N3_4 N 0.5231(4) 0.4770(3) 0.13122(9)
N4_2 N 0.4737(4) 0.4184(3) 0.15845(10)
O5_4 O 0.5973(4) 0.7119(3) 0.07968(9)
C4_4 C 0.6035(4) 0.7211(4) 0.01314(12)
C5_5 C 0.6462(5) 0.7656(5) 0.02558(13)
H4_5 H 0.6771 0.7989 0.0191
C6_5 C 0.6427(5) 0.7604(5) 0.04782(12)
H5_5 H 0.6707 0.7909 0.0564
C7_4 C 0.5984(5) 0.7109(5) 0.05732(12)
C8_4 C 0.5570(6) 0.6671(5) 0.04491(14)
H6_4 H 0.5270 0.6332 0.0515
C9_4 C 0.5586(5) 0.6723(5) 0.02264(13)
H7_4 H 0.5293 0.6426 0.0142
C10_6 C 0.4814(5) 0.4810(4) 0.14880(12)
H8_4 H 0.4602 0.5236 0.1537
C11_4 C 0.5146(5) 0.3723(4) 0.14623(12)
H9_4 H 0.5207 0.3233 0.1492
C12_4 C 0.5448(5) 0.4067(4) 0.12943(12)
H10_4 H 0.5743 0.3868 0.1188
C13_4 C 0.5406(4) 0.5363(4) 0.11679(11)
C14_4 C 0.4920(6) 0.5905(4) 0.11400(14)
H11_4 H 0.4472 0.5889 0.1209
C15_4 C 0.5097(6) 0.6482(5) 0.10083(16)
H12_4 H 0.4767 0.6855 0.0987
C16_4 C 0.5764(6) 0.6504(4) 0.09086(12)
C17_4 C 0.6226(6) 0.5939(5) 0.09330(14)
H13_4 H 0.6665 0.5943 0.0859
C18_4 C 0.6057(5) 0.5358(5) 0.10652(13)
H14_4 H 0.6379 0.4976 0.1083
N1_5 N 0.8954(4) 0.2710(4) 0.48987(10)
N2_6 N 0.8786(4) 0.2257(4) 0.45757(10)
N3_5 N 0.9769(4) 0.5230(3) 0.63122(9)
O1_6 O 0.7636(3) 0.1115(3) 0.44316(13)
O2_6 O 0.7799(4) 0.0658(4) 0.41115(16)
O5_5 O 0.9027(4) 0.2881(3) 0.57968(9)
C1_6 C 0.8736(5) 0.2151(4) 0.47835(11)
H1_6 H 0.8563 0.1724 0.4845
C2_5 C 0.8828(13) 0.3035(11) 0.4552(3)
H2_5 H 0.8792 0.3292 0.4423
C3_5 C 0.8928(12) 0.3323(11) 0.4751(3)
H3_5 H 0.8971 0.3810 0.4786
C4_5 C 0.8965(4) 0.2789(4) 0.51314(12)
C5_6 C 0.8538(5) 0.2344(5) 0.52558(13)
H4_6 H 0.8229 0.2011 0.5191
C6_6 C 0.8573(5) 0.2396(5) 0.54782(12)
H5_6 H 0.8293 0.2091 0.5564
C7_5 C 0.9016(5) 0.2891(5) 0.55732(12)
C8_5 C 0.9430(6) 0.3329(5) 0.54491(14)
H6_5 H 0.9730 0.3668 0.5515
C9_5 C 0.9414(5) 0.3277(5) 0.52264(13)
H7_5 H 0.9707 0.3574 0.5142
C11_5 C 0.9854(5) 0.6277(4) 0.64623(12)
H9_5 H 0.9793 0.6767 0.6492
C12_5 C 0.9552(5) 0.5933(4) 0.62943(12)
H10_5 H 0.9257 0.6132 0.6188
C13_5 C 0.9594(4) 0.4637(4) 0.61679(11)
C15_5 C 0.9903(6) 0.3518(5) 0.60083(16)
C16_5 C 0.9236(6) 0.3496(4) 0.59086(12)
C17_5 C 0.8774(6) 0.4061(5) 0.59330(14)
H13_5 H 0.8335 0.4057 0.5859
C18_5 C 0.8943(5) 0.4642(5) 0.60652(13)
H14_5 H 0.8621 0.5024 0.6083
C19_6 C 0.7438(5) 0.0709(5) 0.4278(2)
C20_6 C 0.6735(4) 0.0306(4) 0.43010(16)
C21_6 C 0.6309(4) 0.0411(4) 0.44758(16)
H15_6 H 0.6463 0.0723 0.4585
C22_6 C 0.5644(5) 0.0064(4) 0.44961(14)
H16_6 H 0.5352 0.0148 0.4616
N5_5 N 0.8316(3) 0.2237(4) 0.40845(10)
N1_6 N 0.5210(4) 0.3546(4) 0.23987(10)
N2_7 N 0.4757(4) 0.3714(4) 0.20757(10)
N3_6 N 0.7730(3) 0.2731(4) 0.38122(9)
O1_7 O 0.3615(3) 0.4864(3) 0.19316(13)
O2_7 O 0.3158(4) 0.4701(4) 0.16115(16)
O5_6 O 0.5381(3) 0.3473(4) 0.32968(9)
C1_7 C 0.4651(4) 0.3764(5) 0.22835(11)
H1_7 H 0.4224 0.3937 0.2345
C2_6 C 0.5535(11) 0.3672(13) 0.2052(3)
H2_6 H 0.5792 0.3708 0.1923
C3_6 C 0.5823(11) 0.3572(12) 0.2251(3)
H3_6 H 0.6310 0.3529 0.2286
C4_6 C 0.5289(4) 0.3535(4) 0.26314(12)
C5_7 C 0.4844(5) 0.3962(5) 0.27558(13)
H4_7 H 0.4511 0.4271 0.2691
C6_7 C 0.4896(5) 0.3927(5) 0.29782(12)
H5_7 H 0.4591 0.4207 0.3064
C7_6 C 0.5391(5) 0.3484(5) 0.30732(12)
C8_6 C 0.5829(5) 0.3070(6) 0.29491(14)
H6_6 H 0.6168 0.2770 0.3015
C9_6 C 0.5777(5) 0.3086(5) 0.27264(13)
H7_6 H 0.6074 0.2793 0.2642
C10_7 C 0.7690(4) 0.2314(5) 0.39880(12)
H8_5 H 0.7264 0.2102 0.4037
C11_6 C 0.8777(4) 0.2646(5) 0.39623(12)
H9_6 H 0.9267 0.2707 0.3992
C12_6 C 0.8433(4) 0.2948(5) 0.37943(12)
H10_6 H 0.8632 0.3243 0.3688
C13_6 C 0.7137(4) 0.2906(4) 0.36679(11)
C14_5 C 0.6595(4) 0.2420(6) 0.36400(14)
H11_5 H 0.6611 0.1972 0.3709
C15_6 C 0.6018(5) 0.2597(6) 0.35083(16)
H12_5 H 0.5645 0.2267 0.3487
C16_6 C 0.5996(4) 0.3264(6) 0.34086(12)
C17_6 C 0.6561(5) 0.3726(6) 0.34330(14)
H13_6 H 0.6557 0.4165 0.3359
C18_6 C 0.7142(5) 0.3557(5) 0.35652(13)
H14_6 H 0.7524 0.3879 0.3583
C19_7 C 0.3209(5) 0.5062(5) 0.1778(2)
C20_7 C 0.2806(4) 0.5765(4) 0.18010(16)
C21_7 C 0.2911(4) 0.6191(4) 0.19758(16)
H15_7 H 0.3223 0.6037 0.2085
C22_7 C 0.2564(4) 0.6856(5) 0.19961(14)
H16_7 H 0.2648 0.7148 0.2116
C23_7 C 0.1717(4) 0.7794(4) 0.18555(13)
C24_6 C 0.2092(4) 0.7077(4) 0.18354(13)
C25_6 C 0.1988(5) 0.6642(4) 0.16554(14)
H17_6 H 0.1679 0.6789 0.1545
C26_6 C 0.2347(5) 0.5986(4) 0.16417(17)
H18_6 H 0.2274 0.5692 0.1522
Co1_4 Co 0.40464(6) 0.10653(5) 0.683285(15)
N1_7 N 0.5210(4) 0.1454(4) 0.73987(10)
N2_8 N 0.4757(4) 0.1286(4) 0.70757(10)
N3_7 N 0.7730(3) 0.2269(4) 0.88122(9)
N4_3 N 0.8316(3) 0.2763(4) 0.90845(10)
O1_8 O 0.3615(3) 0.0136(3) 0.69316(13)
O2_8 O 0.3158(4) 0.0299(4) 0.66115(16)
O5_7 O 0.5381(3) 0.1527(4) 0.82968(9)
C1_8 C 0.4651(4) 0.1236(5) 0.72835(11)
H1_8 H 0.4224 0.1063 0.7345
C2_7 C 0.5535(11) 0.1328(13) 0.7052(3)
H2_7 H 0.5792 0.1292 0.6923
C3_7 C 0.5823(11) 0.1428(12) 0.7251(3)
H3_7 H 0.6310 0.1471 0.7286
C4_7 C 0.5289(4) 0.1465(4) 0.76314(12)
C5_8 C 0.4844(5) 0.1038(5) 0.77558(13)
H4_8 H 0.4511 0.0729 0.7691
C6_8 C 0.4896(5) 0.1073(5) 0.79782(12)
H5_8 H 0.4591 0.0793 0.8064
C7_7 C 0.5391(5) 0.1516(5) 0.80732(12)
C8_7 C 0.5829(5) 0.1930(6) 0.79491(14)
H6_7 H 0.6168 0.2230 0.8015
C9_7 C 0.5777(5) 0.1914(5) 0.77264(13)
H7_7 H 0.6074 0.2207 0.7642
C10_8 C 0.7690(4) 0.2686(5) 0.89880(12)
H8_6 H 0.7264 0.2898 0.9037
C11_7 C 0.8777(4) 0.2354(5) 0.89623(12)
H9_7 H 0.9267 0.2293 0.8992
C12_7 C 0.8433(4) 0.2052(5) 0.87943(12)
H10_7 H 0.8632 0.1757 0.8688
C13_7 C 0.7137(4) 0.2094(4) 0.86679(11)
C14_6 C 0.6595(4) 0.2580(6) 0.86400(14)
H11_6 H 0.6611 0.3028 0.8709
C15_7 C 0.6018(5) 0.2403(6) 0.85083(16)
H12_6 H 0.5645 0.2733 0.8487
C16_7 C 0.5996(4) 0.1736(6) 0.84086(12)
C17_7 C 0.6561(5) 0.1274(6) 0.84330(14)
H13_7 H 0.6557 0.0835 0.8359
C18_7 C 0.7142(5) 0.1443(5) 0.85652(13)
H14_7 H 0.7524 0.1121 0.8583
Co2_2 Co 0.85653(5) 0.34536(6) 0.933285(15)
N5_6 N 0.4737(4) 0.0816(3) 0.65845(10)
O6_5 O 0.3144(4) 0.1781(3) 0.70056(11)
O7_5 O 0.3754(3) 0.2044(3) 0.67146(9)
O3_4 O 0.1856(4) 0.6781(3) 0.70056(11)
O4_4 O 0.1246(3) 0.7044(3) 0.67146(9)
C19_8 C 0.3209(5) 0.9938(5) 0.6778(2)
C20_8 C 0.2806(4) 0.9235(4) 0.68010(16)
C21_8 C 0.2911(4) 0.8809(4) 0.69758(16)
H15_8 H 0.3223 0.8963 0.7085
C22_8 C 0.2564(4) 0.8144(5) 0.69961(14)
H16_8 H 0.2648 0.7852 0.7116
C23_8 C 0.1717(4) 0.7206(4) 0.68555(13)
C24_7 C 0.2092(4) 0.7923(4) 0.68354(13)
C25_7 C 0.1988(5) 0.8358(4) 0.66554(14)
H17_7 H 0.1679 0.8211 0.6545
C26_7 C 0.2347(5) 0.9014(4) 0.66417(17)
H18_7 H 0.2274 0.9308 0.6522
Co3_4 Co 0.09536(6) 0.60653(5) 0.683285(15)
N1_8 N 0.8954(4) 0.2290(4) 0.98987(10)
N2_9 N 0.8786(4) 0.2743(4) 0.95757(10)
O1_9 O 0.7636(3) 0.3885(3) 0.94316(13)
O2_9 O 0.7799(4) 0.4342(4) 0.91115(16)
O3_5 O 0.4281(3) 0.5644(4) 0.95056(11)
O4_5 O 0.4544(3) 0.6254(3) 0.92146(9)
C1_9 C 0.8736(5) 0.2849(4) 0.97835(11)
H1_9 H 0.8563 0.3276 0.9845
C2_8 C 0.8828(13) 0.1965(11) 0.9552(3)
H2_8 H 0.8792 0.1708 0.9423
C3_8 C 0.8928(12) 0.1677(11) 0.9751(3)
H3_8 H 0.8971 0.1190 0.9786
C19_9 C 0.7438(5) 0.4291(5) 0.9278(2)
C20_9 C 0.6735(4) 0.4694(4) 0.93010(16)
C21_9 C 0.6309(4) 0.4589(4) 0.94758(16)
H15_9 H 0.6463 0.4277 0.9585
C22_9 C 0.5644(5) 0.4936(4) 0.94961(14)
H16_9 H 0.5352 0.4852 0.9616
C23_9 C 0.4706(4) 0.5783(4) 0.93555(13)
C24_8 C 0.5423(4) 0.5408(4) 0.93354(13)
C25_8 C 0.5858(4) 0.5512(5) 0.91554(14)
H17_8 H 0.5711 0.5821 0.9045
C26_8 C 0.6514(4) 0.5153(5) 0.91417(17)
H18_8 H 0.6808 0.5226 0.9022
Co3_5 Co 0.35653(5) 0.65464(6) 0.933285(15)
O6_6 O 0.9281(3) 0.4356(4) 0.95056(11)
O7_6 O 0.9544(3) 0.3746(3) 0.92146(9)
N3_8 N 0.5231(4) 0.0230(3) 0.63122(9)
C10_9 C 0.4814(5) 0.0190(4) 0.64880(12)
C11_8 C 0.5146(5) 0.1277(4) 0.64623(12)
H9_8 H 0.5207 0.1767 0.6492
C12_8 C 0.5448(5) 0.0933(4) 0.62943(12)
H10_8 H 0.5743 0.1132 0.6188
H14_8 H 0.6379 0.0024 0.6083
N1_9 N 0.0210(4) 0.8546(4) 0.73987(10)
N3_9 N 0.2730(3) 0.7731(4) 0.88122(9)
N4_4 N 0.3316(3) 0.7237(4) 0.90845(10)
O5_8 O 0.0381(3) 0.8473(4) 0.82968(9)
C2_9 C 0.0535(11) 0.8672(13) 0.7052(3)
H2_9 H 0.0792 0.8708 0.6923
C3_9 C 0.0823(11) 0.8572(12) 0.7251(3)
H3_9 H 0.1310 0.8529 0.7286
C4_8 C 0.0289(4) 0.8535(4) 0.76314(12)
C7_8 C 0.0391(5) 0.8484(5) 0.80732(12)
C8_8 C 0.0829(5) 0.8070(6) 0.79491(14)
H6_8 H 0.1168 0.7770 0.8015
C9_8 C 0.0777(5) 0.8086(5) 0.77264(13)
H7_8 H 0.1074 0.7793 0.7642
C10_10 C 0.2690(4) 0.7314(5) 0.89880(12)
H8_7 H 0.2264 0.7102 0.9037
C11_9 C 0.3777(4) 0.7646(5) 0.89623(12)
H9_9 H 0.4267 0.7707 0.8992
C12_9 C 0.3433(4) 0.7948(5) 0.87943(12)
H10_9 H 0.3632 0.8243 0.8688
C13_8 C 0.2137(4) 0.7906(4) 0.86679(11)
C14_7 C 0.1595(4) 0.7420(6) 0.86400(14)
H11_7 H 0.1611 0.6972 0.8709
C15_8 C 0.1018(5) 0.7597(6) 0.85083(16)
H12_7 H 0.0645 0.7267 0.8487
C16_8 C 0.0996(4) 0.8264(6) 0.84086(12)
C17_8 C 0.1561(5) 0.8726(6) 0.84330(14)
H13_8 H 0.1557 0.9165 0.8359
C18_8 C 0.2142(5) 0.8557(5) 0.85652(13)
H14_9 H 0.2524 0.8879 0.8583
N4_5 N 0.0263(4) 0.5816(3) 0.65845(10)
C10_11 C 0.0186(5) 0.5190(4) 0.64880(12)
H8_8 H 0.0398 0.4764 0.6537
C14_8 C 0.0080(6) 0.4095(4) 0.61400(14)
H11_8 H 0.0528 0.4111 0.6209
H12_8 H 0.0233 0.3145 0.5987
N2_10 N 0.0243(4) 0.6286(4) 0.70757(10)
O1_10 O 0.1385(3) 0.5136(3) 0.69316(13)
O2_10 O 0.1842(4) 0.5299(4) 0.66115(16)
C1_10 C 0.0349(4) 0.6236(5) 0.72835(11)
H1_10 H 0.0776 0.6063 0.7345
C5_9 C 0.0156(5) 0.6038(5) 0.77558(13)
H4_9 H 0.0489 0.5729 0.7691
C6_9 C 0.0104(5) 0.6073(5) 0.79782(12)
H5_9 H 0.0409 0.5793 0.8064
C19_10 C 0.1791(5) 0.4938(5) 0.6778(2)
C20_10 C 0.2194(4) 0.4235(4) 0.68010(16)
C21_10 C 0.2089(4) 0.3809(4) 0.69758(16)
H15_10 H 0.1777 0.3963 0.7085
C22_10 C 0.2436(4) 0.3144(5) 0.69961(14)
H16_10 H 0.2352 0.2852 0.7116
C23_10 C 0.3283(4) 0.2206(4) 0.68555(13)
C24_9 C 0.2908(4) 0.2923(4) 0.68354(13)
C25_9 C 0.3012(5) 0.3358(4) 0.66554(14)
H17_9 H 0.3321 0.3211 0.6545
C26_9 C 0.2653(5) 0.4014(4) 0.66417(17)
H18_9 H 0.2726 0.4308 0.6522
N1_10 N 0.3954(4) 0.7710(4) 0.98987(10)
N2_11 N 0.3786(4) 0.7257(4) 0.95757(10)
O1_11 O 0.2636(3) 0.6115(3) 0.94316(13)
O2_11 O 0.2799(4) 0.5658(4) 0.91115(16)
C1_11 C 0.3736(5) 0.7151(4) 0.97835(11)
H1_11 H 0.3563 0.6724 0.9845
C2_10 C 0.3828(13) 0.8035(11) 0.9552(3)
H2_10 H 0.3792 0.8292 0.9423
C3_10 C 0.3928(12) 0.8323(11) 0.9751(3)
H3_10 H 0.3971 0.8810 0.9786
C19_11 C 0.2438(5) 0.5709(5) 0.9278(2)
C20_11 C 0.1735(4) 0.5306(4) 0.93010(16)
C21_11 C 0.1309(4) 0.5411(4) 0.94758(16)
H15_11 H 0.1463 0.5723 0.9585
C22_11 C 0.0644(5) 0.5064(4) 0.94961(14)
H16_11 H 0.0352 0.5148 0.9616
C24_10 C 0.0423(4) 0.4592(4) 0.93354(13)
C25_10 C 0.0858(4) 0.4488(5) 0.91554(14)
H17_10 H 0.0711 0.4179 0.9045
C26_10 C 0.1514(4) 0.4847(5) 0.91417(17)
H18_10 H 0.1808 0.4774 0.9022
C23_11 C 0.9706(4) 0.4217(4) 0.93555(13)
Co1_5 Co 0.35653(5) 0.15464(6) 0.066715(15)
N1_11 N 0.3954(4) 0.2710(4) 0.01013(10)
N2_12 N 0.3786(4) 0.2257(4) 0.04243(10)
O1_12 O 0.2636(3) 0.1115(3) 0.05684(13)
O2_12 O 0.2799(4) 0.0658(4) 0.08885(16)
C1_12 C 0.3736(5) 0.2151(4) 0.02165(11)
H1_12 H 0.3563 0.1724 0.0155
C2_11 C 0.3828(13) 0.3035(11) 0.0448(3)
H2_11 H 0.3792 0.3292 0.0577
C3_11 C 0.3928(12) 0.3323(11) 0.0249(3)
H3_11 H 0.3971 0.3810 0.0214
C19_12 C 0.2438(5) 0.0709(5) 0.0722(2)
C20_12 C 0.1735(4) 0.0306(4) 0.06990(16)
C21_12 C 0.1309(4) 0.0411(4) 0.05242(16)
H15_12 H 0.1463 0.0723 0.0415
C22_12 C 0.0644(5) 0.0064(4) 0.05039(14)
H16_12 H 0.0352 0.0148 0.0384
N5_7 N 0.3316(3) 0.2237(4) 0.09155(10)
O6_7 O 0.4281(3) 0.0644(4) 0.04944(11)
O7_7 O 0.4544(3) 0.1254(3) 0.07854(9)
N1_12 N 0.0210(4) 0.3546(4) 0.26013(10)
N3_10 N 0.2730(3) 0.2731(4) 0.11878(9)
O5_9 O 0.0381(3) 0.3473(4) 0.17032(9)
C2_12 C 0.0535(11) 0.3672(13) 0.2948(3)
H2_12 H 0.0792 0.3708 0.3077
C3_12 C 0.0823(11) 0.3572(12) 0.2749(3)
H3_12 H 0.1310 0.3529 0.2714
C4_9 C 0.0289(4) 0.3535(4) 0.23686(12)
C7_9 C 0.0391(5) 0.3484(5) 0.19268(12)
C8_9 C 0.0829(5) 0.3070(6) 0.20509(14)
H6_9 H 0.1168 0.2770 0.1985
C9_9 C 0.0777(5) 0.3086(5) 0.22736(13)
H7_9 H 0.1074 0.2793 0.2358
C10_12 C 0.2690(4) 0.2314(5) 0.10120(12)
H8_9 H 0.2264 0.2102 0.0963
C11_10 C 0.3777(4) 0.2646(5) 0.10377(12)
H9_10 H 0.4267 0.2707 0.1008
C12_10 C 0.3433(4) 0.2948(5) 0.12057(12)
H10_10 H 0.3632 0.3243 0.1312
C13_9 C 0.2137(4) 0.2906(4) 0.13321(11)
C14_9 C 0.1595(4) 0.2420(6) 0.13600(14)
H11_9 H 0.1611 0.1972 0.1291
C15_9 C 0.1018(5) 0.2597(6) 0.14917(16)
H12_9 H 0.0645 0.2267 0.1513
C16_9 C 0.0996(4) 0.3264(6) 0.15914(12)
C17_9 C 0.1561(5) 0.3726(6) 0.15670(14)
H13_9 H 0.1557 0.4165 0.1641
C18_9 C 0.2142(5) 0.3557(5) 0.14348(13)
H14_10 H 0.2524 0.3879 0.1417
C23_12 C 0.4706(4) 0.0783(4) 0.06445(13)
C24_11 C 0.5423(4) 0.0408(4) 0.06646(13)
C25_11 C 0.5858(4) 0.0512(5) 0.08446(14)
H17_11 H 0.5711 0.0821 0.0955
C26_11 C 0.6514(4) 0.0153(5) 0.08583(17)
H18_11 H 0.6808 0.0226 0.0978
N3_11 N 0.4769(4) 0.5230(3) 0.86878(9)
N4_6 N 0.5263(4) 0.5816(3) 0.84155(10)
O5_10 O 0.4027(4) 0.2881(3) 0.92032(9)
C4_10 C 0.3965(4) 0.2789(4) 0.98686(12)
C5_10 C 0.3538(5) 0.2344(5) 0.97442(13)
H4_10 H 0.3229 0.2011 0.9809
C6_10 C 0.3573(5) 0.2396(5) 0.95218(12)
H5_10 H 0.3293 0.2091 0.9436
C7_10 C 0.4016(5) 0.2891(5) 0.94268(12)
C8_10 C 0.4430(6) 0.3329(5) 0.95509(14)
H6_10 H 0.4730 0.3668 0.9485
C9_10 C 0.4414(5) 0.3277(5) 0.97736(13)
H7_10 H 0.4707 0.3574 0.9858
C10_13 C 0.5186(5) 0.5190(4) 0.85120(12)
H8_10 H 0.5398 0.4764 0.8463
C11_11 C 0.4854(5) 0.6277(4) 0.85377(12)
H9_11 H 0.4793 0.6767 0.8508
C12_11 C 0.4552(5) 0.5933(4) 0.87057(12)
H10_11 H 0.4257 0.6132 0.8812
C13_10 C 0.4594(4) 0.4637(4) 0.88321(11)
C14_10 C 0.5080(6) 0.4095(4) 0.88600(14)
H11_10 H 0.5528 0.4111 0.8791
C15_10 C 0.4903(6) 0.3518(5) 0.89917(16)
H12_10 H 0.5233 0.3145 0.9013
C16_10 C 0.4236(6) 0.3496(4) 0.90914(12)
C17_10 C 0.3774(6) 0.4061(5) 0.90670(14)
H13_10 H 0.3335 0.4057 0.9141
C18_10 C 0.3943(5) 0.4642(5) 0.89348(13)
H14_11 H 0.3621 0.5024 0.8917
Co2_3 Co 0.59536(6) 0.60653(5) 0.816715(15)
Co1_6 Co 0.14347(5) 0.84536(6) 0.566715(15)
N1_13 N 0.1046(4) 0.7290(4) 0.51013(10)
N2_13 N 0.1214(4) 0.7743(4) 0.54243(10)
N3_12 N 0.0231(4) 0.4770(3) 0.36878(9)
O1_13 O 0.2364(3) 0.8885(3) 0.55684(13)
O2_13 O 0.2201(4) 0.9342(4) 0.58885(16)
O5_11 O 0.0973(4) 0.7119(3) 0.42032(9)
C1_13 C 0.1264(5) 0.7849(4) 0.52165(11)
H1_13 H 0.1437 0.8276 0.5155
C2_13 C 0.1172(13) 0.6965(11) 0.5448(3)
H2_13 H 0.1208 0.6708 0.5577
C3_13 C 0.1072(12) 0.6677(11) 0.5249(3)
H3_13 H 0.1029 0.6190 0.5214
C4_11 C 0.1035(4) 0.7211(4) 0.48686(12)
C5_11 C 0.1462(5) 0.7656(5) 0.47442(13)
H4_11 H 0.1771 0.7989 0.4809
C6_11 C 0.1427(5) 0.7604(5) 0.45218(12)
H5_11 H 0.1707 0.7909 0.4436
C7_11 C 0.0984(5) 0.7109(5) 0.44268(12)
C8_11 C 0.0570(6) 0.6671(5) 0.45509(14)
H6_11 H 0.0270 0.6332 0.4485
C9_11 C 0.0586(5) 0.6723(5) 0.47736(13)
H7_11 H 0.0293 0.6426 0.4858
C11_12 C 0.0146(5) 0.3723(4) 0.35377(12)
H9_12 H 0.0207 0.3233 0.3508
C12_12 C 0.0448(5) 0.4067(4) 0.37057(12)
H10_12 H 0.0743 0.3868 0.3812
C13_11 C 0.0406(4) 0.5363(4) 0.38321(11)
C15_11 C 0.0097(6) 0.6482(5) 0.39917(16)
C16_11 C 0.0764(6) 0.6504(4) 0.40914(12)
C17_11 C 0.1226(6) 0.5939(5) 0.40670(14)
H13_11 H 0.1665 0.5943 0.4141
C18_11 C 0.1057(5) 0.5358(5) 0.39348(13)
H14_12 H 0.1379 0.4976 0.3917
C19_13 C 0.2562(5) 0.9291(5) 0.5722(2)
C20_13 C 0.3265(4) 0.9694(4) 0.56990(16)
C21_13 C 0.3691(4) 0.9589(4) 0.55242(16)
H15_13 H 0.3537 0.9277 0.5415
C22_13 C 0.4356(5) 0.9936(4) 0.55039(14)
H16_13 H 0.4648 0.9852 0.5384
N5_8 N 0.1684(3) 0.7763(4) 0.59155(10)
O6_8 O 0.0719(3) 0.9356(4) 0.54944(11)
O7_8 O 0.0456(3) 0.8746(3) 0.57854(9)
N1_14 N 0.4790(4) 0.6454(4) 0.76013(10)
N2_14 N 0.5243(4) 0.6286(4) 0.79243(10)
N3_13 N 0.2270(3) 0.7269(4) 0.61878(9)
O1_14 O 0.6385(3) 0.5136(3) 0.80684(13)
O2_14 O 0.6842(4) 0.5299(4) 0.83885(16)
O3_6 O 0.8144(4) 0.1781(3) 0.79944(11)
O4_6 O 0.8754(3) 0.2044(3) 0.82854(9)
O5_12 O 0.4619(3) 0.6527(4) 0.67032(9)
C1_14 C 0.5349(4) 0.6236(5) 0.77165(11)
H1_14 H 0.5776 0.6063 0.7655
C2_14 C 0.4465(11) 0.6328(13) 0.7948(3)
H2_14 H 0.4208 0.6292 0.8077
C3_14 C 0.4177(11) 0.6428(12) 0.7749(3)
H3_14 H 0.3690 0.6471 0.7714
C4_12 C 0.4711(4) 0.6465(4) 0.73686(12)
C5_12 C 0.5156(5) 0.6038(5) 0.72442(13)
H4_12 H 0.5489 0.5729 0.7309
C6_12 C 0.5104(5) 0.6073(5) 0.70218(12)
H5_12 H 0.5409 0.5793 0.6936
C7_12 C 0.4609(5) 0.6516(5) 0.69268(12)
C8_12 C 0.4171(5) 0.6930(6) 0.70509(14)
H6_12 H 0.3832 0.7230 0.6985
C9_12 C 0.4223(5) 0.6914(5) 0.72736(13)
H7_12 H 0.3926 0.7207 0.7358
C10_14 C 0.2310(4) 0.7686(5) 0.60120(12)
H8_11 H 0.2736 0.7898 0.5963
C11_13 C 0.1223(4) 0.7354(5) 0.60377(12)
H9_13 H 0.0733 0.7293 0.6008
C12_13 C 0.1567(4) 0.7052(5) 0.62057(12)
H10_13 H 0.1368 0.6757 0.6312
C13_12 C 0.2863(4) 0.7094(4) 0.63321(11)
C14_11 C 0.3405(4) 0.7580(6) 0.63600(14)
H11_11 H 0.3389 0.8028 0.6291
C15_12 C 0.3982(5) 0.7403(6) 0.64917(16)
H12_11 H 0.4355 0.7733 0.6513
C16_12 C 0.4004(4) 0.6736(6) 0.65914(12)
C17_12 C 0.3439(5) 0.6274(6) 0.65670(14)
H13_12 H 0.3443 0.5835 0.6641
C18_12 C 0.2858(5) 0.6443(5) 0.64348(13)
H14_13 H 0.2476 0.6121 0.6417
C19_14 C 0.6791(5) 0.4938(5) 0.8222(2)
C20_14 C 0.7194(4) 0.4235(4) 0.81990(16)
C21_14 C 0.7089(4) 0.3809(4) 0.80242(16)
H15_14 H 0.6777 0.3963 0.7915
C22_14 C 0.7436(4) 0.3144(5) 0.80039(14)
H16_14 H 0.7352 0.2852 0.7884
C23_13 C 0.8283(4) 0.2206(4) 0.81445(13)
C24_12 C 0.7908(4) 0.2923(4) 0.81646(13)
C25_12 C 0.8012(5) 0.3358(4) 0.83446(14)
H17_12 H 0.8321 0.3211 0.8455
C26_12 C 0.7653(5) 0.4014(4) 0.83583(17)
H18_12 H 0.7726 0.4308 0.8478
Co3_6 Co 0.90464(6) 0.10653(5) 0.816715(15)
O6_9 O 0.6856(4) 0.6781(3) 0.79944(11)
O7_9 O 0.6246(3) 0.7044(3) 0.82854(9)
C23_14 C 0.0294(4) 0.9217(4) 0.56445(13)
N2_15 N 0.9757(4) 0.1286(4) 0.79243(10)
O1_15 O 0.8615(3) 0.0136(3) 0.80684(13)
O2_15 O 0.8158(4) 0.0299(4) 0.83885(16)
C1_15 C 0.9651(4) 0.1236(5) 0.77165(11)
H1_15 H 0.9224 0.1063 0.7655
C5_13 C 0.9844(5) 0.1038(5) 0.72442(13)
H4_13 H 0.9511 0.0729 0.7309
C6_13 C 0.9896(5) 0.1073(5) 0.70218(12)
H5_13 H 0.9591 0.0793 0.6936
N5_9 N 0.9737(4) 0.0816(3) 0.84155(10)
C19_15 C 0.8209(5) 0.9938(5) 0.8222(2)
C20_15 C 0.7806(4) 0.9235(4) 0.81990(16)
C21_15 C 0.7911(4) 0.8809(4) 0.80242(16)
H15_15 H 0.8223 0.8963 0.7915
C22_15 C 0.7564(4) 0.8144(5) 0.80039(14)
H16_15 H 0.7648 0.7852 0.7884
C23_15 C 0.6717(4) 0.7206(4) 0.81445(13)
C24_13 C 0.7092(4) 0.7923(4) 0.81646(13)
C25_13 C 0.6988(5) 0.8358(4) 0.83446(14)
H17_13 H 0.6679 0.8211 0.8455
C26_13 C 0.7347(5) 0.9014(4) 0.83583(17)
H18_13 H 0.7274 0.9308 0.8478
C10_15 C 0.9814(5) 0.0190(4) 0.85120(12)
C24_14 C 0.0423(4) 0.9592(4) 0.06646(13)
C25_14 C 0.0858(4) 0.9488(5) 0.08446(14)
H17_14 H 0.0711 0.9179 0.0955
C26_14 C 0.1514(4) 0.9847(5) 0.08583(17)
H18_14 H 0.1808 0.9774 0.0978
O3_7 O 0.9281(3) 0.9356(4) 0.04944(11)
O4_7 O 0.9544(3) 0.8746(3) 0.07854(9)
C23_16 C 0.9706(4) 0.9217(4) 0.06445(13)
Co3_7 Co 0.85653(5) 0.84536(6) 0.066715(15)
Co1_7 Co 0.09536(6) 0.10653(5) 0.316715(15)
N2_16 N 0.0243(4) 0.1286(4) 0.29243(10)
O1_16 O 0.1385(3) 0.0136(3) 0.30684(13)
O2_16 O 0.1842(4) 0.0299(4) 0.33885(16)
C1_16 C 0.0349(4) 0.1236(5) 0.27165(11)
H1_16 H 0.0776 0.1063 0.2655
C5_14 C 0.0156(5) 0.1038(5) 0.22442(13)
H4_14 H 0.0489 0.0729 0.2309
C6_14 C 0.0104(5) 0.1073(5) 0.20218(12)
H5_14 H 0.0409 0.0793 0.1936
N5_10 N 0.0263(4) 0.0816(3) 0.34155(10)
O6_10 O 0.1856(4) 0.1781(3) 0.29944(11)
O7_10 O 0.1246(3) 0.2044(3) 0.32854(9)
O3_8 O 0.3144(4) 0.6781(3) 0.29944(11)
O4_8 O 0.3754(3) 0.7044(3) 0.32854(9)
C19_16 C 0.1791(5) 0.9938(5) 0.3222(2)
C20_16 C 0.2194(4) 0.9235(4) 0.31990(16)
C21_16 C 0.2089(4) 0.8809(4) 0.30242(16)
H15_16 H 0.1777 0.8963 0.2915
C22_16 C 0.2436(4) 0.8144(5) 0.30039(14)
H16_16 H 0.2352 0.7852 0.2884
C23_17 C 0.3283(4) 0.7206(4) 0.31445(13)
C24_15 C 0.2908(4) 0.7923(4) 0.31646(13)
C25_15 C 0.3012(5) 0.8358(4) 0.33446(14)
H17_15 H 0.3321 0.8211 0.3455
C26_15 C 0.2653(5) 0.9014(4) 0.33583(17)
H18_15 H 0.2726 0.9308 0.3478
Co3_8 Co 0.40464(6) 0.60653(5) 0.316715(15)
O3_9 O 0.5719(3) 0.0644(4) 0.54944(11)
O4_9 O 0.5456(3) 0.1254(3) 0.57854(9)
C23_18 C 0.5294(4) 0.0783(4) 0.56445(13)
C24_16 C 0.4577(4) 0.0408(4) 0.56646(13)
C25_16 C 0.4142(4) 0.0512(5) 0.58446(14)
H17_16 H 0.4289 0.0821 0.5955
C26_16 C 0.3486(4) 0.0153(5) 0.58583(17)
H18_16 H 0.3192 0.0226 0.5978
Co3_9 Co 0.64347(5) 0.15464(6) 0.566715(15)
C10_16 C 0.0186(5) 0.0190(4) 0.35120(12)
N1_15 N 0.6046(4) 0.2710(4) 0.51013(10)
N2_17 N 0.6214(4) 0.2257(4) 0.54243(10)
N3_14 N 0.5231(4) 0.5230(3) 0.36878(9)
N4_7 N 0.4737(4) 0.5816(3) 0.34155(10)
O1_17 O 0.7364(3) 0.1115(3) 0.55684(13)
O2_17 O 0.7201(4) 0.0658(4) 0.58885(16)
O5_13 O 0.5973(4) 0.2881(3) 0.42032(9)
C1_17 C 0.6264(5) 0.2151(4) 0.52165(11)
H1_17 H 0.6437 0.1724 0.5155
C2_15 C 0.6172(13) 0.3035(11) 0.5448(3)
H2_15 H 0.6208 0.3292 0.5577
C3_15 C 0.6072(12) 0.3323(11) 0.5249(3)
H3_15 H 0.6029 0.3810 0.5214
C4_13 C 0.6035(4) 0.2789(4) 0.48686(12)
C5_15 C 0.6462(5) 0.2344(5) 0.47442(13)
H4_15 H 0.6771 0.2011 0.4809
C6_15 C 0.6427(5) 0.2396(5) 0.45218(12)
H5_15 H 0.6707 0.2091 0.4436
C7_13 C 0.5984(5) 0.2891(5) 0.44268(12)
C8_13 C 0.5570(6) 0.3329(5) 0.45509(14)
H6_13 H 0.5270 0.3668 0.4485
C9_13 C 0.5586(5) 0.3277(5) 0.47736(13)
H7_13 H 0.5293 0.3574 0.4858
C10_17 C 0.4814(5) 0.5190(4) 0.35120(12)
H8_12 H 0.4602 0.4764 0.3463
C11_14 C 0.5146(5) 0.6277(4) 0.35377(12)
H9_14 H 0.5207 0.6767 0.3508
C12_14 C 0.5448(5) 0.5933(4) 0.37057(12)
H10_14 H 0.5743 0.6132 0.3812
C13_13 C 0.5406(4) 0.4637(4) 0.38321(11)
C14_12 C 0.4920(6) 0.4095(4) 0.38600(14)
H11_12 H 0.4472 0.4111 0.3791
C15_13 C 0.5097(6) 0.3518(5) 0.39917(16)
H12_12 H 0.4767 0.3145 0.4013
C16_13 C 0.5764(6) 0.3496(4) 0.40914(12)
C17_13 C 0.6226(6) 0.4061(5) 0.40670(14)
H13_13 H 0.6665 0.4057 0.4141
C18_13 C 0.6057(5) 0.4642(5) 0.39348(13)
H14_14 H 0.6379 0.5024 0.3917
C19_17 C 0.7562(5) 0.0709(5) 0.5722(2)
C20_17 C 0.8265(4) 0.0306(4) 0.56990(16)
C21_17 C 0.8691(4) 0.0411(4) 0.55242(16)
H15_17 H 0.8537 0.0723 0.5415
C22_17 C 0.9356(5) 0.0064(4) 0.55039(14)
H16_17 H 0.9648 0.0148 0.5384
N5_11 N 0.6684(3) 0.2237(4) 0.59155(10)
N1_16 N 0.8954(4) 0.7290(4) 0.01013(10)
N2_18 N 0.8786(4) 0.7743(4) 0.04243(10)
O1_18 O 0.7636(3) 0.8885(3) 0.05684(13)
O2_18 O 0.7799(4) 0.9342(4) 0.08885(16)
C1_18 C 0.8736(5) 0.7849(4) 0.02165(11)
H1_18 H 0.8563 0.8276 0.0155
C2_16 C 0.8828(13) 0.6965(11) 0.0448(3)
H2_16 H 0.8792 0.6708 0.0577
C3_16 C 0.8928(12) 0.6677(11) 0.0249(3)
H3_16 H 0.8971 0.6190 0.0214
C19_18 C 0.7438(5) 0.9291(5) 0.0722(2)
C20_18 C 0.6735(4) 0.9694(4) 0.06990(16)
C21_18 C 0.6309(4) 0.9589(4) 0.05242(16)
H15_18 H 0.6463 0.9277 0.0415
C22_18 C 0.5644(5) 0.9936(4) 0.05039(14)
H16_18 H 0.5352 0.9852 0.0384
N5_12 N 0.8316(3) 0.7763(4) 0.09155(10)
N1_17 N 0.9790(4) 0.3546(4) 0.76013(10)
N3_15 N 0.7270(3) 0.2731(4) 0.61878(9)
O5_14 O 0.9619(3) 0.3473(4) 0.67032(9)
C2_17 C 0.9465(11) 0.3672(13) 0.7948(3)
H2_17 H 0.9208 0.3708 0.8077
C3_17 C 0.9177(11) 0.3572(12) 0.7749(3)
H3_17 H 0.8690 0.3529 0.7714
C4_14 C 0.9711(4) 0.3535(4) 0.73686(12)
C7_14 C 0.9609(5) 0.3484(5) 0.69268(12)
C8_14 C 0.9171(5) 0.3070(6) 0.70509(14)
H6_14 H 0.8832 0.2770 0.6985
C9_14 C 0.9223(5) 0.3086(5) 0.72736(13)
H7_14 H 0.8926 0.2793 0.7358
C10_18 C 0.7310(4) 0.2314(5) 0.60120(12)
H8_13 H 0.7736 0.2102 0.5963
C11_15 C 0.6223(4) 0.2646(5) 0.60377(12)
H9_15 H 0.5733 0.2707 0.6008
C12_15 C 0.6567(4) 0.2948(5) 0.62057(12)
H10_15 H 0.6368 0.3243 0.6312
C13_14 C 0.7863(4) 0.2906(4) 0.63321(11)
C14_13 C 0.8405(4) 0.2420(6) 0.63600(14)
H11_13 H 0.8389 0.1972 0.6291
C15_14 C 0.8982(5) 0.2597(6) 0.64917(16)
H12_13 H 0.9355 0.2267 0.6513
C16_14 C 0.9004(4) 0.3264(6) 0.65914(12)
C17_14 C 0.8439(5) 0.3726(6) 0.65670(14)
H13_14 H 0.8443 0.4165 0.6641
C18_14 C 0.7858(5) 0.3557(5) 0.64348(13)
H14_15 H 0.7476 0.3879 0.6417
N1_18 N 0.5210(4) 0.6454(4) 0.26013(10)
N2_19 N 0.4757(4) 0.6286(4) 0.29243(10)
N3_16 N 0.7730(3) 0.7269(4) 0.11878(9)
O1_19 O 0.3615(3) 0.5136(3) 0.30684(13)
O2_19 O 0.3158(4) 0.5299(4) 0.33885(16)
O5_15 O 0.5381(3) 0.6527(4) 0.17032(9)
C1_19 C 0.4651(4) 0.6236(5) 0.27165(11)
H1_19 H 0.4224 0.6063 0.2655
C2_18 C 0.5535(11) 0.6328(13) 0.2948(3)
H2_18 H 0.5792 0.6292 0.3077
C3_18 C 0.5823(11) 0.6428(12) 0.2749(3)
H3_18 H 0.6310 0.6471 0.2714
C4_15 C 0.5289(4) 0.6465(4) 0.23686(12)
C5_16 C 0.4844(5) 0.6038(5) 0.22442(13)
H4_16 H 0.4511 0.5729 0.2309
C6_16 C 0.4896(5) 0.6073(5) 0.20218(12)
H5_16 H 0.4591 0.5793 0.1936
C7_15 C 0.5391(5) 0.6516(5) 0.19268(12)
C8_15 C 0.5829(5) 0.6930(6) 0.20509(14)
H6_15 H 0.6168 0.7230 0.1985
C9_15 C 0.5777(5) 0.6914(5) 0.22736(13)
H7_15 H 0.6074 0.7207 0.2358
C10_19 C 0.7690(4) 0.7686(5) 0.10120(12)
H8_14 H 0.7264 0.7898 0.0963
C11_16 C 0.8777(4) 0.7354(5) 0.10377(12)
H9_16 H 0.9267 0.7293 0.1008
C12_16 C 0.8433(4) 0.7052(5) 0.12057(12)
H10_16 H 0.8632 0.6757 0.1312
C13_15 C 0.7137(4) 0.7094(4) 0.13321(11)
C14_14 C 0.6595(4) 0.7580(6) 0.13600(14)
H11_14 H 0.6611 0.8028 0.1291
C15_15 C 0.6018(5) 0.7403(6) 0.14917(16)
H12_14 H 0.5645 0.7733 0.1513
C16_15 C 0.5996(4) 0.6736(6) 0.15914(12)
C17_15 C 0.6561(5) 0.6274(6) 0.15670(14)
H13_15 H 0.6557 0.5835 0.1641
C18_15 C 0.7142(5) 0.6443(5) 0.14348(13)
H14_16 H 0.7524 0.6121 0.1417
C19_19 C 0.3209(5) 0.4938(5) 0.3222(2)
C20_19 C 0.2806(4) 0.4235(4) 0.31990(16)
C21_19 C 0.2911(4) 0.3809(4) 0.30242(16)
H15_19 H 0.3223 0.3963 0.2915
C22_19 C 0.2564(4) 0.3144(5) 0.30039(14)
H16_19 H 0.2648 0.2852 0.2884
C23_19 C 0.1717(4) 0.2206(4) 0.31445(13)
C24_17 C 0.2092(4) 0.2923(4) 0.31646(13)
C25_17 C 0.1988(5) 0.3358(4) 0.33446(14)
H17_17 H 0.1679 0.3211 0.3455
C26_17 C 0.2347(5) 0.4014(4) 0.33583(17)
H18_17 H 0.2274 0.4308 0.3478
N3_17 N 0.0231(4) 0.5230(3) 0.13122(9)
O5_16 O 0.0973(4) 0.2881(3) 0.07968(9)
C4_16 C 0.1035(4) 0.2789(4) 0.01314(12)
C5_17 C 0.1462(5) 0.2344(5) 0.02558(13)
H4_17 H 0.1771 0.2011 0.0191
C6_17 C 0.1427(5) 0.2396(5) 0.04782(12)
H5_17 H 0.1707 0.2091 0.0564
C7_16 C 0.0984(5) 0.2891(5) 0.05732(12)
C8_16 C 0.0570(6) 0.3329(5) 0.04491(14)
H6_16 H 0.0270 0.3668 0.0515
C9_16 C 0.0586(5) 0.3277(5) 0.02264(13)
H7_16 H 0.0293 0.3574 0.0142
C11_17 C 0.0146(5) 0.6277(4) 0.14623(12)
H9_17 H 0.0207 0.6767 0.1492
C12_17 C 0.0448(5) 0.5933(4) 0.12943(12)
H10_17 H 0.0743 0.6132 0.1188
C13_16 C 0.0406(4) 0.4637(4) 0.11679(11)
C15_16 C 0.0097(6) 0.3518(5) 0.10083(16)
C16_16 C 0.0764(6) 0.3496(4) 0.09086(12)
C17_16 C 0.1226(6) 0.4061(5) 0.09330(14)
H13_16 H 0.1665 0.4057 0.0859
C18_16 C 0.1057(5) 0.4642(5) 0.10652(13)
H14_17 H 0.1379 0.5024 0.1083
O3_10 O 0.5719(3) 0.9356(4) 0.95056(11)
O4_10 O 0.5456(3) 0.8746(3) 0.92146(9)
C23_20 C 0.5294(4) 0.9217(4) 0.93555(13)
C24_18 C 0.4577(4) 0.9592(4) 0.93354(13)
C25_18 C 0.4142(4) 0.9488(5) 0.91554(14)
H17_18 H 0.4289 0.9179 0.9045
C26_18 C 0.3486(4) 0.9847(5) 0.91417(17)
H18_18 H 0.3192 0.9774 0.9022
Co3_10 Co 0.64347(5) 0.84536(6) 0.933285(15)
N1_19 N 0.6046(4) 0.7290(4) 0.98987(10)
N2_20 N 0.6214(4) 0.7743(4) 0.95757(10)
O1_20 O 0.7364(3) 0.8885(3) 0.94316(13)
O2_20 O 0.7201(4) 0.9342(4) 0.91115(16)
C1_20 C 0.6264(5) 0.7849(4) 0.97835(11)
H1_20 H 0.6437 0.8276 0.9845
C2_19 C 0.6172(13) 0.6965(11) 0.9552(3)
H2_19 H 0.6208 0.6708 0.9423
C3_19 C 0.6072(12) 0.6677(11) 0.9751(3)
H3_19 H 0.6029 0.6190 0.9786
C19_20 C 0.7562(5) 0.9291(5) 0.9278(2)
C20_20 C 0.8265(4) 0.9694(4) 0.93010(16)
C21_20 C 0.8691(4) 0.9589(4) 0.94758(16)
H15_20 H 0.8537 0.9277 0.9585
C22_20 C 0.9356(5) 0.9936(4) 0.94961(14)
H16_20 H 0.9648 0.9852 0.9616
N5_13 N 0.6684(3) 0.7763(4) 0.90845(10)
N1_20 N 0.9790(4) 0.6454(4) 0.73987(10)
N3_18 N 0.7270(3) 0.7269(4) 0.88122(9)
O5_17 O 0.9619(3) 0.6527(4) 0.82968(9)
C2_20 C 0.9465(11) 0.6328(13) 0.7052(3)
H2_20 H 0.9208 0.6292 0.6923
C3_20 C 0.9177(11) 0.6428(12) 0.7251(3)
H3_20 H 0.8690 0.6471 0.7286
C4_17 C 0.9711(4) 0.6465(4) 0.76314(12)
C7_17 C 0.9609(5) 0.6516(5) 0.80732(12)
C8_17 C 0.9171(5) 0.6930(6) 0.79491(14)
H6_17 H 0.8832 0.7230 0.8015
C9_17 C 0.9223(5) 0.6914(5) 0.77264(13)
H7_17 H 0.8926 0.7207 0.7642
C10_20 C 0.7310(4) 0.7686(5) 0.89880(12)
H8_15 H 0.7736 0.7898 0.9037
C11_18 C 0.6223(4) 0.7354(5) 0.89623(12)
H9_18 H 0.5733 0.7293 0.8992
C12_18 C 0.6567(4) 0.7052(5) 0.87943(12)
H10_18 H 0.6368 0.6757 0.8688
C13_17 C 0.7863(4) 0.7094(4) 0.86679(11)
C14_15 C 0.8405(4) 0.7580(6) 0.86400(14)
H11_15 H 0.8389 0.8028 0.8709
C15_17 C 0.8982(5) 0.7403(6) 0.85083(16)
H12_15 H 0.9355 0.7733 0.8487
C16_17 C 0.9004(4) 0.6736(6) 0.84086(12)
C17_17 C 0.8439(5) 0.6274(6) 0.84330(14)
H13_17 H 0.8443 0.5835 0.8359
C18_17 C 0.7858(5) 0.6443(5) 0.85652(13)
H14_18 H 0.7476 0.6121 0.8583
N4_8 N 0.9737(4) 0.5816(3) 0.15845(10)
C10_21 C 0.9814(5) 0.5190(4) 0.14880(12)
H8_16 H 0.9602 0.4764 0.1537
C14_16 C 0.9920(6) 0.4095(4) 0.11400(14)
H11_16 H 0.9472 0.4111 0.1209
H12_16 H 0.9767 0.3145 0.0987
Co2_4 Co 0.90464(6) 0.60653(5) 0.183285(15)
N1_21 N 0.9790(4) 0.8546(4) 0.23987(10)
N3_19 N 0.7270(3) 0.7731(4) 0.38122(9)
N4_9 N 0.6684(3) 0.7237(4) 0.40845(10)
O5_18 O 0.9619(3) 0.8473(4) 0.32968(9)
C2_21 C 0.9465(11) 0.8672(13) 0.2052(3)
H2_21 H 0.9208 0.8708 0.1923
C3_21 C 0.9177(11) 0.8572(12) 0.2251(3)
H3_21 H 0.8690 0.8529 0.2286
C4_18 C 0.9711(4) 0.8535(4) 0.26314(12)
C7_18 C 0.9609(5) 0.8484(5) 0.30732(12)
C8_18 C 0.9171(5) 0.8070(6) 0.29491(14)
H6_18 H 0.8832 0.7770 0.3015
C9_18 C 0.9223(5) 0.8086(5) 0.27264(13)
H7_18 H 0.8926 0.7793 0.2642
C10_22 C 0.7310(4) 0.7314(5) 0.39880(12)
H8_17 H 0.7736 0.7102 0.4037
C11_19 C 0.6223(4) 0.7646(5) 0.39623(12)
H9_19 H 0.5733 0.7707 0.3992
C12_19 C 0.6567(4) 0.7948(5) 0.37943(12)
H10_19 H 0.6368 0.8243 0.3688
C13_18 C 0.7863(4) 0.7906(4) 0.36679(11)
C14_17 C 0.8405(4) 0.7420(6) 0.36400(14)
H11_17 H 0.8389 0.6972 0.3709
C15_18 C 0.8982(5) 0.7597(6) 0.35083(16)
H12_17 H 0.9355 0.7267 0.3487
C16_18 C 0.9004(4) 0.8264(6) 0.34086(12)
C17_18 C 0.8439(5) 0.8726(6) 0.34330(14)
H13_18 H 0.8443 0.9165 0.3359
C18_18 C 0.7858(5) 0.8557(5) 0.35652(13)
H14_19 H 0.7476 0.8879 0.3583
Co2_5 Co 0.64347(5) 0.65464(6) 0.433285(15)
N2_21 N 0.9757(4) 0.6286(4) 0.20757(10)
O1_21 O 0.8615(3) 0.5136(3) 0.19316(13)
O2_21 O 0.8158(4) 0.5299(4) 0.16115(16)
O3_11 O 0.6856(4) 0.1781(3) 0.20056(11)
O4_11 O 0.6246(3) 0.2044(3) 0.17146(9)
C1_21 C 0.9651(4) 0.6236(5) 0.22835(11)
H1_21 H 0.9224 0.6063 0.2345
C5_18 C 0.9844(5) 0.6038(5) 0.27558(13)
H4_18 H 0.9511 0.5729 0.2691
C6_18 C 0.9896(5) 0.6073(5) 0.29782(12)
H5_18 H 0.9591 0.5793 0.3064
C19_21 C 0.8209(5) 0.4938(5) 0.1778(2)
C20_21 C 0.7806(4) 0.4235(4) 0.18010(16)
C21_21 C 0.7911(4) 0.3809(4) 0.19758(16)
H15_21 H 0.8223 0.3963 0.2085
C22_21 C 0.7564(4) 0.3144(5) 0.19961(14)
H16_21 H 0.7648 0.2852 0.2116
C23_21 C 0.6717(4) 0.2206(4) 0.18555(13)
C24_19 C 0.7092(4) 0.2923(4) 0.18354(13)
C25_19 C 0.6988(5) 0.3358(4) 0.16554(14)
H17_19 H 0.6679 0.3211 0.1545
C26_19 C 0.7347(5) 0.4014(4) 0.16417(17)
H18_19 H 0.7274 0.4308 0.1522
Co3_11 Co 0.59536(6) 0.10653(5) 0.183285(15)
O6_11 O 0.8144(4) 0.6781(3) 0.20056(11)
O7_11 O 0.8754(3) 0.7044(3) 0.17146(9)
O3_12 O 0.0719(3) 0.4356(4) 0.45056(11)
O4_12 O 0.0456(3) 0.3746(3) 0.42146(9)
C23_22 C 0.0294(4) 0.4217(4) 0.43555(13)
Co3_12 Co 0.14347(5) 0.34536(6) 0.433285(15)
N1_22 N 0.6046(4) 0.7710(4) 0.48987(10)
N2_22 N 0.6214(4) 0.7257(4) 0.45757(10)
O1_22 O 0.7364(3) 0.6115(3) 0.44316(13)
O2_22 O 0.7201(4) 0.5658(4) 0.41115(16)
O5_19 O 0.5973(4) 0.7881(3) 0.57968(9)
C1_22 C 0.6264(5) 0.7151(4) 0.47835(11)
H1_22 H 0.6437 0.6724 0.4845
C2_22 C 0.6172(13) 0.8035(11) 0.4552(3)
H2_22 H 0.6208 0.8292 0.4423
C3_22 C 0.6072(12) 0.8323(11) 0.4751(3)
H3_22 H 0.6029 0.8810 0.4786
C4_19 C 0.6035(4) 0.7789(4) 0.51314(12)
C5_19 C 0.6462(5) 0.7344(5) 0.52558(13)
H4_19 H 0.6771 0.7011 0.5191
C6_19 C 0.6427(5) 0.7396(5) 0.54782(12)
H5_19 H 0.6707 0.7091 0.5564
C7_19 C 0.5984(5) 0.7891(5) 0.55732(12)
C8_19 C 0.5570(6) 0.8329(5) 0.54491(14)
H6_19 H 0.5270 0.8668 0.5515
C9_19 C 0.5586(5) 0.8277(5) 0.52264(13)
H7_19 H 0.5293 0.8574 0.5142
H8_18 H 0.4602 0.9764 0.6537
C13_19 C 0.5406(4) 0.9637(4) 0.61679(11)
C14_18 C 0.4920(6) 0.9095(4) 0.61400(14)
H11_18 H 0.4472 0.9111 0.6209
C15_19 C 0.5097(6) 0.8518(5) 0.60083(16)
H12_18 H 0.4767 0.8145 0.5987
C16_19 C 0.5764(6) 0.8496(4) 0.59086(12)
C17_19 C 0.6226(6) 0.9061(5) 0.59330(14)
H13_19 H 0.6665 0.9057 0.5859
C18_19 C 0.6057(5) 0.9642(5) 0.60652(13)
C19_22 C 0.7562(5) 0.5709(5) 0.4278(2)
C20_22 C 0.8265(4) 0.5306(4) 0.43010(16)
C21_22 C 0.8691(4) 0.5411(4) 0.44758(16)
H15_22 H 0.8537 0.5723 0.4585
C22_22 C 0.9356(5) 0.5064(4) 0.44961(14)
H16_22 H 0.9648 0.5148 0.4616
C24_20 C 0.9577(4) 0.4592(4) 0.43354(13)
C25_20 C 0.9142(4) 0.4488(5) 0.41554(14)
H17_20 H 0.9289 0.4179 0.4045
C26_20 C 0.8486(4) 0.4847(5) 0.41417(17)
H18_20 H 0.8192 0.4774 0.4022
O6_12 O 0.5719(3) 0.5644(4) 0.45056(11)
O7_12 O 0.5456(3) 0.6254(3) 0.42146(9)
N1_23 N 0.4790(4) 0.1454(4) 0.23987(10)
N2_23 N 0.5243(4) 0.1286(4) 0.20757(10)
N3_20 N 0.2270(3) 0.2269(4) 0.38122(9)
N4_10 N 0.1684(3) 0.2763(4) 0.40845(10)
O1_23 O 0.6385(3) 0.0136(3) 0.19316(13)
O2_23 O 0.6842(4) 0.0299(4) 0.16115(16)
O5_20 O 0.4619(3) 0.1527(4) 0.32968(9)
C1_23 C 0.5349(4) 0.1236(5) 0.22835(11)
H1_23 H 0.5776 0.1063 0.2345
C2_23 C 0.4465(11) 0.1328(13) 0.2052(3)
H2_23 H 0.4208 0.1292 0.1923
C3_23 C 0.4177(11) 0.1428(12) 0.2251(3)
H3_23 H 0.3690 0.1471 0.2286
C4_20 C 0.4711(4) 0.1465(4) 0.26314(12)
C5_20 C 0.5156(5) 0.1038(5) 0.27558(13)
H4_20 H 0.5489 0.0729 0.2691
C6_20 C 0.5104(5) 0.1073(5) 0.29782(12)
H5_20 H 0.5409 0.0793 0.3064
C7_20 C 0.4609(5) 0.1516(5) 0.30732(12)
C8_20 C 0.4171(5) 0.1930(6) 0.29491(14)
H6_20 H 0.3832 0.2230 0.3015
C9_20 C 0.4223(5) 0.1914(5) 0.27264(13)
H7_20 H 0.3926 0.2207 0.2642
C10_23 C 0.2310(4) 0.2686(5) 0.39880(12)
H8_19 H 0.2736 0.2898 0.4037
C11_20 C 0.1223(4) 0.2354(5) 0.39623(12)
H9_20 H 0.0733 0.2293 0.3992
C12_20 C 0.1567(4) 0.2052(5) 0.37943(12)
H10_20 H 0.1368 0.1757 0.3688
C13_20 C 0.2863(4) 0.2094(4) 0.36679(11)
C14_19 C 0.3405(4) 0.2580(6) 0.36400(14)
H11_19 H 0.3389 0.3028 0.3709
C15_20 C 0.3982(5) 0.2403(6) 0.35083(16)
H12_19 H 0.4355 0.2733 0.3487
C16_20 C 0.4004(4) 0.1736(6) 0.34086(12)
C17_20 C 0.3439(5) 0.1274(6) 0.34330(14)
H13_20 H 0.3443 0.0835 0.3359
C18_20 C 0.2858(5) 0.1443(5) 0.35652(13)
H14_20 H 0.2476 0.1121 0.3583
N5_14 N 0.5263(4) 0.0816(3) 0.15845(10)
C19_23 C 0.6791(5) 0.9938(5) 0.1778(2)
C20_23 C 0.7194(4) 0.9235(4) 0.18010(16)
C21_23 C 0.7089(4) 0.8809(4) 0.19758(16)
H15_23 H 0.6777 0.8963 0.2085
C22_23 C 0.7436(4) 0.8144(5) 0.19961(14)
H16_23 H 0.7352 0.7852 0.2116
C23_23 C 0.8283(4) 0.7206(4) 0.18555(13)
C24_21 C 0.7908(4) 0.7923(4) 0.18354(13)
C25_21 C 0.8012(5) 0.8358(4) 0.16554(14)
H17_21 H 0.8321 0.8211 0.1545
C26_21 C 0.7653(5) 0.9014(4) 0.16417(17)
H18_21 H 0.7726 0.9308 0.1522
N1_24 N 0.1046(4) 0.2290(4) 0.48987(10)
N2_24 N 0.1214(4) 0.2743(4) 0.45757(10)
O1_24 O 0.2364(3) 0.3885(3) 0.44316(13)
O2_24 O 0.2201(4) 0.4342(4) 0.41115(16)
O5_21 O 0.0973(4) 0.2119(3) 0.57968(9)
C1_24 C 0.1264(5) 0.2849(4) 0.47835(11)
H1_24 H 0.1437 0.3276 0.4845
C2_24 C 0.1172(13) 0.1965(11) 0.4552(3)
H2_24 H 0.1208 0.1708 0.4423
C3_24 C 0.1072(12) 0.1677(11) 0.4751(3)
H3_24 H 0.1029 0.1190 0.4786
C4_21 C 0.1035(4) 0.2211(4) 0.51314(12)
C5_21 C 0.1462(5) 0.2656(5) 0.52558(13)
H4_21 H 0.1771 0.2989 0.5191
C6_21 C 0.1427(5) 0.2604(5) 0.54782(12)
H5_21 H 0.1707 0.2909 0.5564
C7_21 C 0.0984(5) 0.2109(5) 0.55732(12)
C8_21 C 0.0570(6) 0.1671(5) 0.54491(14)
H6_21 H 0.0270 0.1332 0.5515
C9_21 C 0.0586(5) 0.1723(5) 0.52264(13)
H7_21 H 0.0293 0.1426 0.5142
C13_21 C 0.0406(4) 0.0363(4) 0.61679(11)
C15_21 C 0.0097(6) 0.1482(5) 0.60083(16)
C16_21 C 0.0764(6) 0.1504(4) 0.59086(12)
C17_21 C 0.1226(6) 0.0939(5) 0.59330(14)
H13_21 H 0.1665 0.0943 0.5859
C18_21 C 0.1057(5) 0.0358(5) 0.60652(13)
C19_24 C 0.2562(5) 0.4291(5) 0.4278(2)
C20_24 C 0.3265(4) 0.4694(4) 0.43010(16)
C21_24 C 0.3691(4) 0.4589(4) 0.44758(16)
H15_24 H 0.3537 0.4277 0.4585
C22_24 C 0.4356(5) 0.4936(4) 0.44961(14)
H16_24 H 0.4648 0.4852 0.4616
C23_24 C 0.5294(4) 0.5783(4) 0.43555(13)
C24_22 C 0.4577(4) 0.5408(4) 0.43354(13)
C25_22 C 0.4142(4) 0.5512(5) 0.41554(14)
H17_22 H 0.4289 0.5821 0.4045
C26_22 C 0.3486(4) 0.5153(5) 0.41417(17)
H18_22 H 0.3192 0.5226 0.4022
N3_21 N 0.4769(4) 0.0230(3) 0.13122(9)
C10_24 C 0.5186(5) 0.0190(4) 0.14880(12)
C11_21 C 0.4854(5) 0.1277(4) 0.14623(12)
H9_21 H 0.4793 0.1767 0.1492
C12_21 C 0.4552(5) 0.0933(4) 0.12943(12)
H10_21 H 0.4257 0.1132 0.1188
H14_21 H 0.3621 0.0024 0.1083
O3_13 O 0.1856(4) 0.3219(3) 0.79944(11)
O4_13 O 0.1246(3) 0.2956(3) 0.82854(9)
C19_25 C 0.3209(5) 0.0062(5) 0.8222(2)
C20_25 C 0.2806(4) 0.0765(4) 0.81990(16)
C21_25 C 0.2911(4) 0.1191(4) 0.80242(16)
H15_25 H 0.3223 0.1037 0.7915
C22_25 C 0.2564(4) 0.1856(5) 0.80039(14)
H16_25 H 0.2648 0.2148 0.7884
C23_25 C 0.1717(4) 0.2794(4) 0.81445(13)
C24_23 C 0.2092(4) 0.2077(4) 0.81646(13)
C25_23 C 0.1988(5) 0.1642(4) 0.83446(14)
H17_23 H 0.1679 0.1789 0.8455
C26_23 C 0.2347(5) 0.0986(4) 0.83583(17)
H18_23 H 0.2274 0.0692 0.8478
Co3_13 Co 0.09536(6) 0.39347(5) 0.816715(15)
Co1_8 Co 0.40464(6) 0.89347(5) 0.816715(15)
N1_25 N 0.5210(4) 0.8546(4) 0.76013(10)
N2_25 N 0.4757(4) 0.8714(4) 0.79243(10)
N3_22 N 0.7730(3) 0.7731(4) 0.61878(9)
N4_11 N 0.8316(3) 0.7237(4) 0.59155(10)
O1_25 O 0.3615(3) 0.9864(3) 0.80684(13)
O2_25 O 0.3158(4) 0.9701(4) 0.83885(16)
O5_22 O 0.5381(3) 0.8473(4) 0.67032(9)
C1_25 C 0.4651(4) 0.8764(5) 0.77165(11)
H1_25 H 0.4224 0.8937 0.7655
C2_25 C 0.5535(11) 0.8672(13) 0.7948(3)
H2_25 H 0.5792 0.8708 0.8077
C3_25 C 0.5823(11) 0.8572(12) 0.7749(3)
H3_25 H 0.6310 0.8529 0.7714
C4_22 C 0.5289(4) 0.8535(4) 0.73686(12)
C5_22 C 0.4844(5) 0.8962(5) 0.72442(13)
H4_22 H 0.4511 0.9271 0.7309
C6_22 C 0.4896(5) 0.8927(5) 0.70218(12)
H5_22 H 0.4591 0.9207 0.6936
C7_22 C 0.5391(5) 0.8484(5) 0.69268(12)
C8_22 C 0.5829(5) 0.8070(6) 0.70509(14)
H6_22 H 0.6168 0.7770 0.6985
C9_22 C 0.5777(5) 0.8086(5) 0.72736(13)
H7_22 H 0.6074 0.7793 0.7358
C10_25 C 0.7690(4) 0.7314(5) 0.60120(12)
H8_20 H 0.7264 0.7102 0.5963
C11_22 C 0.8777(4) 0.7646(5) 0.60377(12)
H9_22 H 0.9267 0.7707 0.6008
C12_22 C 0.8433(4) 0.7948(5) 0.62057(12)
H10_22 H 0.8632 0.8243 0.6312
C13_22 C 0.7137(4) 0.7906(4) 0.63321(11)
C14_20 C 0.6595(4) 0.7420(6) 0.63600(14)
H11_20 H 0.6611 0.6972 0.6291
C15_22 C 0.6018(5) 0.7597(6) 0.64917(16)
H12_20 H 0.5645 0.7267 0.6513
C16_22 C 0.5996(4) 0.8264(6) 0.65914(12)
C17_22 C 0.6561(5) 0.8726(6) 0.65670(14)
H13_22 H 0.6557 0.9165 0.6641
C18_22 C 0.7142(5) 0.8557(5) 0.64348(13)
H14_22 H 0.7524 0.8879 0.6417
Co2_6 Co 0.85653(5) 0.65464(6) 0.566715(15)
N5_15 N 0.4737(4) 0.9184(3) 0.84155(10)
O6_13 O 0.3144(4) 0.8219(3) 0.79944(11)
O7_13 O 0.3754(3) 0.7956(3) 0.82854(9)
N1_26 N 0.8954(4) 0.7710(4) 0.51013(10)
N2_26 N 0.8786(4) 0.7257(4) 0.54243(10)
O1_26 O 0.7636(3) 0.6115(3) 0.55684(13)
O2_26 O 0.7799(4) 0.5658(4) 0.58885(16)
O3_14 O 0.4281(3) 0.4356(4) 0.54944(11)
O4_14 O 0.4544(3) 0.3746(3) 0.57854(9)
O5_23 O 0.9027(4) 0.7881(3) 0.42032(9)
C1_26 C 0.8736(5) 0.7151(4) 0.52165(11)
H1_26 H 0.8563 0.6724 0.5155
C2_26 C 0.8828(13) 0.8035(11) 0.5448(3)
H2_26 H 0.8792 0.8292 0.5577
C3_26 C 0.8928(12) 0.8323(11) 0.5249(3)
H3_26 H 0.8971 0.8810 0.5214
C4_23 C 0.8965(4) 0.7789(4) 0.48686(12)
C5_23 C 0.8538(5) 0.7344(5) 0.47442(13)
H4_23 H 0.8229 0.7011 0.4809
C6_23 C 0.8573(5) 0.7396(5) 0.45218(12)
H5_23 H 0.8293 0.7091 0.4436
C7_23 C 0.9016(5) 0.7891(5) 0.44268(12)
C8_23 C 0.9430(6) 0.8329(5) 0.45509(14)
H6_23 H 0.9730 0.8668 0.4485
C9_23 C 0.9414(5) 0.8277(5) 0.47736(13)
H7_23 H 0.9707 0.8574 0.4858
C13_23 C 0.9594(4) 0.9637(4) 0.38321(11)
C15_23 C 0.9903(6) 0.8518(5) 0.39917(16)
C16_23 C 0.9236(6) 0.8496(4) 0.40914(12)
C17_23 C 0.8774(6) 0.9061(5) 0.40670(14)
H13_23 H 0.8335 0.9057 0.4141
C18_23 C 0.8943(5) 0.9642(5) 0.39348(13)
C19_26 C 0.7438(5) 0.5709(5) 0.5722(2)
C20_26 C 0.6735(4) 0.5306(4) 0.56990(16)
C21_26 C 0.6309(4) 0.5411(4) 0.55242(16)
H15_26 H 0.6463 0.5723 0.5415
C22_26 C 0.5644(5) 0.5064(4) 0.55039(14)
H16_26 H 0.5352 0.5148 0.5384
C23_26 C 0.4706(4) 0.4217(4) 0.56445(13)
C24_24 C 0.5423(4) 0.4592(4) 0.56646(13)
C25_24 C 0.5858(4) 0.4488(5) 0.58446(14)
H17_24 H 0.5711 0.4179 0.5955
C26_24 C 0.6514(4) 0.4847(5) 0.58583(17)
H18_24 H 0.6808 0.4774 0.5978
Co3_14 Co 0.35653(5) 0.34536(6) 0.566715(15)
O6_14 O 0.9281(3) 0.5644(4) 0.54944(11)
O7_14 O 0.9544(3) 0.6254(3) 0.57854(9)
N3_23 N 0.5231(4) 0.9770(3) 0.86878(9)
C10_26 C 0.4814(5) 0.9810(4) 0.85120(12)
C11_23 C 0.5146(5) 0.8723(4) 0.85377(12)
H9_23 H 0.5207 0.8233 0.8508
C12_23 C 0.5448(5) 0.9067(4) 0.87057(12)
H10_23 H 0.5743 0.8868 0.8812
H14_23 H 0.6379 0.9976 0.8917
N4_12 N 0.0263(4) 0.4184(3) 0.84155(10)
C10_27 C 0.0186(5) 0.4810(4) 0.85120(12)
H8_21 H 0.0398 0.5236 0.8463
C14_21 C 0.0080(6) 0.5905(4) 0.88600(14)
H11_21 H 0.0528 0.5889 0.8791
H12_21 H 0.0233 0.6855 0.9013
N1_27 N 0.0210(4) 0.1454(4) 0.76013(10)
N3_24 N 0.2730(3) 0.2269(4) 0.61878(9)
N4_13 N 0.3316(3) 0.2763(4) 0.59155(10)
O5_24 O 0.0381(3) 0.1527(4) 0.67032(9)
C2_27 C 0.0535(11) 0.1328(13) 0.7948(3)
H2_27 H 0.0792 0.1292 0.8077
C3_27 C 0.0823(11) 0.1428(12) 0.7749(3)
H3_27 H 0.1310 0.1471 0.7714
C4_24 C 0.0289(4) 0.1465(4) 0.73686(12)
C7_24 C 0.0391(5) 0.1516(5) 0.69268(12)
C8_24 C 0.0829(5) 0.1930(6) 0.70509(14)
H6_24 H 0.1168 0.2230 0.6985
C9_24 C 0.0777(5) 0.1914(5) 0.72736(13)
H7_24 H 0.1074 0.2207 0.7358
C10_28 C 0.2690(4) 0.2686(5) 0.60120(12)
H8_22 H 0.2264 0.2898 0.5963
C11_24 C 0.3777(4) 0.2354(5) 0.60377(12)
H9_24 H 0.4267 0.2293 0.6008
C12_24 C 0.3433(4) 0.2052(5) 0.62057(12)
H10_24 H 0.3632 0.1757 0.6312
C13_24 C 0.2137(4) 0.2094(4) 0.63321(11)
C14_22 C 0.1595(4) 0.2580(6) 0.63600(14)
H11_22 H 0.1611 0.3028 0.6291
C15_24 C 0.1018(5) 0.2403(6) 0.64917(16)
H12_22 H 0.0645 0.2733 0.6513
C16_24 C 0.0996(4) 0.1736(6) 0.65914(12)
C17_24 C 0.1561(5) 0.1274(6) 0.65670(14)
H13_24 H 0.1557 0.0835 0.6641
C18_24 C 0.2142(5) 0.1443(5) 0.64348(13)
H14_24 H 0.2524 0.1121 0.6417
N2_27 N 0.0243(4) 0.3714(4) 0.79243(10)
O1_27 O 0.1385(3) 0.4864(3) 0.80684(13)
O2_27 O 0.1842(4) 0.4701(4) 0.83885(16)
C1_27 C 0.0349(4) 0.3764(5) 0.77165(11)
H1_27 H 0.0776 0.3937 0.7655
C5_24 C 0.0156(5) 0.3962(5) 0.72442(13)
H4_24 H 0.0489 0.4271 0.7309
C6_24 C 0.0104(5) 0.3927(5) 0.70218(12)
H5_24 H 0.0409 0.4207 0.6936
C19_27 C 0.1791(5) 0.5062(5) 0.8222(2)
C20_27 C 0.2194(4) 0.5765(4) 0.81990(16)
C21_27 C 0.2089(4) 0.6191(4) 0.80242(16)
H15_27 H 0.1777 0.6037 0.7915
C22_27 C 0.2436(4) 0.6856(5) 0.80039(14)
H16_27 H 0.2352 0.7148 0.7884
C23_27 C 0.3283(4) 0.7794(4) 0.81445(13)
C24_25 C 0.2908(4) 0.7077(4) 0.81646(13)
C25_25 C 0.3012(5) 0.6642(4) 0.83446(14)
H17_25 H 0.3321 0.6789 0.8455
C26_25 C 0.2653(5) 0.5986(4) 0.83583(17)
H18_25 H 0.2726 0.5692 0.8478
N1_28 N 0.3954(4) 0.2290(4) 0.51013(10)
N2_28 N 0.3786(4) 0.2743(4) 0.54243(10)
O1_28 O 0.2636(3) 0.3885(3) 0.55684(13)
O2_28 O 0.2799(4) 0.4342(4) 0.58885(16)
O5_25 O 0.4027(4) 0.2119(3) 0.42032(9)
C1_28 C 0.3736(5) 0.2849(4) 0.52165(11)
H1_28 H 0.3563 0.3276 0.5155
C2_28 C 0.3828(13) 0.1965(11) 0.5448(3)
H2_28 H 0.3792 0.1708 0.5577
C3_28 C 0.3928(12) 0.1677(11) 0.5249(3)
H3_28 H 0.3971 0.1190 0.5214
C4_25 C 0.3965(4) 0.2211(4) 0.48686(12)
C5_25 C 0.3538(5) 0.2656(5) 0.47442(13)
H4_25 H 0.3229 0.2989 0.4809
C6_25 C 0.3573(5) 0.2604(5) 0.45218(12)
H5_25 H 0.3293 0.2909 0.4436
C7_25 C 0.4016(5) 0.2109(5) 0.44268(12)
C8_25 C 0.4430(6) 0.1671(5) 0.45509(14)
H6_25 H 0.4730 0.1332 0.4485
C9_25 C 0.4414(5) 0.1723(5) 0.47736(13)
H7_25 H 0.4707 0.1426 0.4858
H8_23 H 0.5398 0.0236 0.3463
C13_25 C 0.4594(4) 0.0363(4) 0.38321(11)
C14_23 C 0.5080(6) 0.0905(4) 0.38600(14)
H11_23 H 0.5528 0.0889 0.3791
C15_25 C 0.4903(6) 0.1482(5) 0.39917(16)
H12_23 H 0.5233 0.1855 0.4013
C16_25 C 0.4236(6) 0.1504(4) 0.40914(12)
C17_25 C 0.3774(6) 0.0939(5) 0.40670(14)
H13_25 H 0.3335 0.0943 0.4141
C18_25 C 0.3943(5) 0.0358(5) 0.39348(13)
C19_28 C 0.2438(5) 0.4291(5) 0.5722(2)
C20_28 C 0.1735(4) 0.4694(4) 0.56990(16)
C21_28 C 0.1309(4) 0.4589(4) 0.55242(16)
H15_28 H 0.1463 0.4277 0.5415
C22_28 C 0.0644(5) 0.4936(4) 0.55039(14)
H16_28 H 0.0352 0.4852 0.5384
C24_26 C 0.0423(4) 0.5408(4) 0.56646(13)
C25_26 C 0.0858(4) 0.5512(5) 0.58446(14)
H17_26 H 0.0711 0.5821 0.5955
C26_26 C 0.1514(4) 0.5153(5) 0.58583(17)
H18_26 H 0.1808 0.5226 0.5978
C23_28 C 0.9706(4) 0.5783(4) 0.56445(13)
N1_29 N 0.9790(4) 0.1454(4) 0.26013(10)
N3_25 N 0.7270(3) 0.2269(4) 0.11878(9)
N4_14 N 0.6684(3) 0.2763(4) 0.09155(10)
O5_26 O 0.9619(3) 0.1527(4) 0.17032(9)
C2_29 C 0.9465(11) 0.1328(13) 0.2948(3)
H2_29 H 0.9208 0.1292 0.3077
C3_29 C 0.9177(11) 0.1428(12) 0.2749(3)
H3_29 H 0.8690 0.1471 0.2714
C4_26 C 0.9711(4) 0.1465(4) 0.23686(12)
C7_26 C 0.9609(5) 0.1516(5) 0.19268(12)
C8_26 C 0.9171(5) 0.1930(6) 0.20509(14)
H6_26 H 0.8832 0.2230 0.1985
C9_26 C 0.9223(5) 0.1914(5) 0.22736(13)
H7_26 H 0.8926 0.2207 0.2358
C10_29 C 0.7310(4) 0.2686(5) 0.10120(12)
H8_24 H 0.7736 0.2898 0.0963
C11_25 C 0.6223(4) 0.2354(5) 0.10377(12)
H9_25 H 0.5733 0.2293 0.1008
C12_25 C 0.6567(4) 0.2052(5) 0.12057(12)
H10_25 H 0.6368 0.1757 0.1312
C13_26 C 0.7863(4) 0.2094(4) 0.13321(11)
C14_24 C 0.8405(4) 0.2580(6) 0.13600(14)
H11_24 H 0.8389 0.3028 0.1291
C15_26 C 0.8982(5) 0.2403(6) 0.14917(16)
H12_24 H 0.9355 0.2733 0.1513
C16_26 C 0.9004(4) 0.1736(6) 0.15914(12)
C17_26 C 0.8439(5) 0.1274(6) 0.15670(14)
H13_26 H 0.8443 0.0835 0.1641
C18_26 C 0.7858(5) 0.1443(5) 0.14348(13)
H14_25 H 0.7476 0.1121 0.1417
Co2_7 Co 0.64347(5) 0.34536(6) 0.066715(15)
N4_15 N 0.9737(4) 0.4184(3) 0.34155(10)
C10_30 C 0.9814(5) 0.4810(4) 0.35120(12)
H8_25 H 0.9602 0.5236 0.3463
C14_25 C 0.9920(6) 0.5905(4) 0.38600(14)
H11_25 H 0.9472 0.5889 0.3791
H12_25 H 0.9767 0.6855 0.4013
Co2_8 Co 0.90464(6) 0.39347(5) 0.316715(15)
N2_29 N 0.9757(4) 0.3714(4) 0.29243(10)
O1_29 O 0.8615(3) 0.4864(3) 0.30684(13)
O2_29 O 0.8158(4) 0.4701(4) 0.33885(16)
O3_15 O 0.6856(4) 0.8219(3) 0.29944(11)
O4_15 O 0.6246(3) 0.7956(3) 0.32854(9)
C1_29 C 0.9651(4) 0.3764(5) 0.27165(11)
H1_29 H 0.9224 0.3937 0.2655
C5_26 C 0.9844(5) 0.3962(5) 0.22442(13)
H4_26 H 0.9511 0.4271 0.2309
C6_26 C 0.9896(5) 0.3927(5) 0.20218(12)
H5_26 H 0.9591 0.4207 0.1936
C19_29 C 0.8209(5) 0.5062(5) 0.3222(2)
C20_29 C 0.7806(4) 0.5765(4) 0.31990(16)
C21_29 C 0.7911(4) 0.6191(4) 0.30242(16)
H15_29 H 0.8223 0.6037 0.2915
C22_29 C 0.7564(4) 0.6856(5) 0.30039(14)
H16_29 H 0.7648 0.7148 0.2884
C23_29 C 0.6717(4) 0.7794(4) 0.31445(13)
C24_27 C 0.7092(4) 0.7077(4) 0.31646(13)
C25_27 C 0.6988(5) 0.6642(4) 0.33446(14)
H17_27 H 0.6679 0.6789 0.3455
C26_27 C 0.7347(5) 0.5986(4) 0.33583(17)
H18_27 H 0.7274 0.5692 0.3478
Co3_15 Co 0.59536(6) 0.89347(5) 0.316715(15)
O6_15 O 0.8144(4) 0.3219(3) 0.29944(11)
O7_15 O 0.8754(3) 0.2956(3) 0.32854(9)
O3_16 O 0.0719(3) 0.5644(4) 0.04944(11)
O4_16 O 0.0456(3) 0.6254(3) 0.07854(9)
C23_30 C 0.0294(4) 0.5783(4) 0.06445(13)
Co3_16 Co 0.14347(5) 0.65464(6) 0.066715(15)
N1_30 N 0.6046(4) 0.2290(4) 0.01013(10)
N2_30 N 0.6214(4) 0.2743(4) 0.04243(10)
O1_30 O 0.7364(3) 0.3885(3) 0.05684(13)
O2_30 O 0.7201(4) 0.4342(4) 0.08885(16)
C1_30 C 0.6264(5) 0.2849(4) 0.02165(11)
H1_30 H 0.6437 0.3276 0.0155
C2_30 C 0.6172(13) 0.1965(11) 0.0448(3)
H2_30 H 0.6208 0.1708 0.0577
C3_30 C 0.6072(12) 0.1677(11) 0.0249(3)
H3_30 H 0.6029 0.1190 0.0214
C19_30 C 0.7562(5) 0.4291(5) 0.0722(2)
C20_30 C 0.8265(4) 0.4694(4) 0.06990(16)
C21_30 C 0.8691(4) 0.4589(4) 0.05242(16)
H15_30 H 0.8537 0.4277 0.0415
C22_30 C 0.9356(5) 0.4936(4) 0.05039(14)
H16_30 H 0.9648 0.4852 0.0384
C24_28 C 0.9577(4) 0.5408(4) 0.06646(13)
C25_28 C 0.9142(4) 0.5512(5) 0.08446(14)
H17_28 H 0.9289 0.5821 0.0955
C26_28 C 0.8486(4) 0.5153(5) 0.08583(17)
H18_28 H 0.8192 0.5226 0.0978
O6_16 O 0.5719(3) 0.4356(4) 0.04944(11)
O7_16 O 0.5456(3) 0.3746(3) 0.07854(9)
C19_31 C 0.6791(5) 0.0062(5) 0.3222(2)
C20_31 C 0.7194(4) 0.0765(4) 0.31990(16)
C21_31 C 0.7089(4) 0.1191(4) 0.30242(16)
H15_31 H 0.6777 0.1037 0.2915
C22_31 C 0.7436(4) 0.1856(5) 0.30039(14)
H16_31 H 0.7352 0.2148 0.2884
C23_31 C 0.8283(4) 0.2794(4) 0.31445(13)
C24_29 C 0.7908(4) 0.2077(4) 0.31646(13)
C25_29 C 0.8012(5) 0.1642(4) 0.33446(14)
H17_29 H 0.8321 0.1789 0.3455
C26_29 C 0.7653(5) 0.0986(4) 0.33583(17)
H18_29 H 0.7726 0.0692 0.3478
N1_31 N 0.4790(4) 0.8546(4) 0.26013(10)
N2_31 N 0.5243(4) 0.8714(4) 0.29243(10)
N3_26 N 0.2270(3) 0.7731(4) 0.11878(9)
N4_16 N 0.1684(3) 0.7237(4) 0.09155(10)
O1_31 O 0.6385(3) 0.9864(3) 0.30684(13)
O2_31 O 0.6842(4) 0.9701(4) 0.33885(16)
O5_27 O 0.4619(3) 0.8473(4) 0.17032(9)
C1_31 C 0.5349(4) 0.8764(5) 0.27165(11)
H1_31 H 0.5776 0.8937 0.2655
C2_31 C 0.4465(11) 0.8672(13) 0.2948(3)
H2_31 H 0.4208 0.8708 0.3077
C3_31 C 0.4177(11) 0.8572(12) 0.2749(3)
H3_31 H 0.3690 0.8529 0.2714
C4_27 C 0.4711(4) 0.8535(4) 0.23686(12)
C5_27 C 0.5156(5) 0.8962(5) 0.22442(13)
H4_27 H 0.5489 0.9271 0.2309
C6_27 C 0.5104(5) 0.8927(5) 0.20218(12)
H5_27 H 0.5409 0.9207 0.1936
C7_27 C 0.4609(5) 0.8484(5) 0.19268(12)
C8_27 C 0.4171(5) 0.8070(6) 0.20509(14)
H6_27 H 0.3832 0.7770 0.1985
C9_27 C 0.4223(5) 0.8086(5) 0.22736(13)
H7_27 H 0.3926 0.7793 0.2358
C10_31 C 0.2310(4) 0.7314(5) 0.10120(12)
H8_26 H 0.2736 0.7102 0.0963
C11_26 C 0.1223(4) 0.7646(5) 0.10377(12)
H9_26 H 0.0733 0.7707 0.1008
C12_26 C 0.1567(4) 0.7948(5) 0.12057(12)
H10_26 H 0.1368 0.8243 0.1312
C13_27 C 0.2863(4) 0.7906(4) 0.13321(11)
C14_26 C 0.3405(4) 0.7420(6) 0.13600(14)
H11_26 H 0.3389 0.6972 0.1291
C15_27 C 0.3982(5) 0.7597(6) 0.14917(16)
H12_26 H 0.4355 0.7267 0.1513
C16_27 C 0.4004(4) 0.8264(6) 0.15914(12)
C17_27 C 0.3439(5) 0.8726(6) 0.15670(14)
H13_27 H 0.3443 0.9165 0.1641
C18_27 C 0.2858(5) 0.8557(5) 0.14348(13)
H14_26 H 0.2476 0.8879 0.1417
N5_16 N 0.5263(4) 0.9184(3) 0.34155(10)
N1_32 N 0.1046(4) 0.7710(4) 0.01013(10)
N2_32 N 0.1214(4) 0.7257(4) 0.04243(10)
O1_32 O 0.2364(3) 0.6115(3) 0.05684(13)
O2_32 O 0.2201(4) 0.5658(4) 0.08885(16)
C1_32 C 0.1264(5) 0.7151(4) 0.02165(11)
H1_32 H 0.1437 0.6724 0.0155
C2_32 C 0.1172(13) 0.8035(11) 0.0448(3)
H2_32 H 0.1208 0.8292 0.0577
C3_32 C 0.1072(12) 0.8323(11) 0.0249(3)
H3_32 H 0.1029 0.8810 0.0214
C19_32 C 0.2562(5) 0.5709(5) 0.0722(2)
C20_32 C 0.3265(4) 0.5306(4) 0.06990(16)
C21_32 C 0.3691(4) 0.5411(4) 0.05242(16)
H15_32 H 0.3537 0.5723 0.0415
C22_32 C 0.4356(5) 0.5064(4) 0.05039(14)
H16_32 H 0.4648 0.5148 0.0384
C23_32 C 0.5294(4) 0.4217(4) 0.06445(13)
C24_30 C 0.4577(4) 0.4592(4) 0.06646(13)
C25_30 C 0.4142(4) 0.4488(5) 0.08446(14)
H17_30 H 0.4289 0.4179 0.0955
C26_30 C 0.3486(4) 0.4847(5) 0.08583(17)
H18_30 H 0.3192 0.4774 0.0978
N3_27 N 0.4769(4) 0.9770(3) 0.36878(9)
C10_32 C 0.5186(5) 0.9810(4) 0.35120(12)
C11_27 C 0.4854(5) 0.8723(4) 0.35377(12)
H9_27 H 0.4793 0.8233 0.3508
C12_27 C 0.4552(5) 0.9067(4) 0.37057(12)
H10_27 H 0.4257 0.8868 0.3812
H14_27 H 0.3621 0.9976 0.3917
H8_27 H 0.0398 0.0236 0.1537
C14_27 C 0.0080(6) 0.0905(4) 0.11400(14)
H11_27 H 0.0528 0.0889 0.1209
H12_27 H 0.0233 0.1855 0.0987
O5_28 O 0.9027(4) 0.2119(3) 0.07968(9)
C4_28 C 0.8965(4) 0.2211(4) 0.01314(12)
C5_28 C 0.8538(5) 0.2656(5) 0.02558(13)
H4_28 H 0.8229 0.2989 0.0191
C6_28 C 0.8573(5) 0.2604(5) 0.04782(12)
H5_28 H 0.8293 0.2909 0.0564
C7_28 C 0.9016(5) 0.2109(5) 0.05732(12)
C8_28 C 0.9430(6) 0.1671(5) 0.04491(14)
H6_28 H 0.9730 0.1332 0.0515
C9_28 C 0.9414(5) 0.1723(5) 0.02264(13)
H7_28 H 0.9707 0.1426 0.0142
C13_28 C 0.9594(4) 0.0363(4) 0.11679(11)
C15_28 C 0.9903(6) 0.1482(5) 0.10083(16)
C16_28 C 0.9236(6) 0.1504(4) 0.09086(12)
C17_28 C 0.8774(6) 0.0939(5) 0.09330(14)
H13_28 H 0.8335 0.0943 0.0859
C18_28 C 0.8943(5) 0.0358(5) 0.10652(13)
N3_28 N 0.9769(4) 0.9770(3) 0.13122(9)
C11_28 C 0.9854(5) 0.8723(4) 0.14623(12)
H9_28 H 0.9793 0.8233 0.1492
C12_28 C 0.9552(5) 0.9067(4) 0.12943(12)
H10_28 H 0.9257 0.8868 0.1188
H14_28 H 0.8621 0.9976 0.1083
H8_28 H 0.0398 0.9764 0.3463
C14_28 C 0.0080(6) 0.9095(4) 0.38600(14)
H11_28 H 0.0528 0.9111 0.3791
H12_28 H 0.0233 0.8145 0.4013
N3_29 N 0.9769(4) 0.0230(3) 0.36878(9)
C11_29 C 0.9854(5) 0.1277(4) 0.35377(12)
H9_29 H 0.9793 0.1767 0.3508
C12_29 C 0.9552(5) 0.0933(4) 0.37057(12)
H10_29 H 0.9257 0.1132 0.3812
H14_29 H 0.8621 0.0024 0.3917
O5_29 O 0.5973(4) 0.2119(3) 0.92032(9)
C4_29 C 0.6035(4) 0.2211(4) 0.98686(12)
C5_29 C 0.6462(5) 0.2656(5) 0.97442(13)
H4_29 H 0.6771 0.2989 0.9809
C6_29 C 0.6427(5) 0.2604(5) 0.95218(12)
H5_29 H 0.6707 0.2909 0.9436
C7_29 C 0.5984(5) 0.2109(5) 0.94268(12)
C8_29 C 0.5570(6) 0.1671(5) 0.95509(14)
H6_29 H 0.5270 0.1332 0.9485
C9_29 C 0.5586(5) 0.1723(5) 0.97736(13)
H7_29 H 0.5293 0.1426 0.9858
H8_29 H 0.4602 0.0236 0.8463
C13_29 C 0.5406(4) 0.0363(4) 0.88321(11)
C14_29 C 0.4920(6) 0.0905(4) 0.88600(14)
H11_29 H 0.4472 0.0889 0.8791
C15_29 C 0.5097(6) 0.1482(5) 0.89917(16)
H12_29 H 0.4767 0.1855 0.9013
C16_29 C 0.5764(6) 0.1504(4) 0.90914(12)
C17_29 C 0.6226(6) 0.0939(5) 0.90670(14)
H13_29 H 0.6665 0.0943 0.9141
C18_29 C 0.6057(5) 0.0358(5) 0.89348(13)
C24_31 C 0.9577(4) 0.9592(4) 0.56646(13)
C25_31 C 0.9142(4) 0.9488(5) 0.58446(14)
H17_31 H 0.9289 0.9179 0.5955
C26_31 C 0.8486(4) 0.9847(5) 0.58583(17)
H18_31 H 0.8192 0.9774 0.5978
C24_32 C 0.9577(4) 0.0408(4) 0.93354(13)
C25_32 C 0.9142(4) 0.0512(5) 0.91554(14)
H17_32 H 0.9289 0.0821 0.9045
C26_32 C 0.8486(4) 0.0153(5) 0.91417(17)
H18_32 H 0.8192 0.0226 0.9022
N3_30 N 0.9769(4) 0.4770(3) 0.86878(9)
O5_30 O 0.9027(4) 0.7119(3) 0.92032(9)
C4_30 C 0.8965(4) 0.7211(4) 0.98686(12)
C5_30 C 0.8538(5) 0.7656(5) 0.97442(13)
H4_30 H 0.8229 0.7989 0.9809
C6_30 C 0.8573(5) 0.7604(5) 0.95218(12)
H5_30 H 0.8293 0.7909 0.9436
C7_30 C 0.9016(5) 0.7109(5) 0.94268(12)
C8_30 C 0.9430(6) 0.6671(5) 0.95509(14)
H6_30 H 0.9730 0.6332 0.9485
C9_30 C 0.9414(5) 0.6723(5) 0.97736(13)
H7_30 H 0.9707 0.6426 0.9858
C11_30 C 0.9854(5) 0.3723(4) 0.85377(12)
H9_30 H 0.9793 0.3233 0.8508
C12_30 C 0.9552(5) 0.4067(4) 0.87057(12)
H10_30 H 0.9257 0.3868 0.8812
C13_30 C 0.9594(4) 0.5363(4) 0.88321(11)
C15_30 C 0.9903(6) 0.6482(5) 0.89917(16)
C16_30 C 0.9236(6) 0.6504(4) 0.90914(12)
C17_30 C 0.8774(6) 0.5939(5) 0.90670(14)
H13_30 H 0.8335 0.5943 0.9141
C18_30 C 0.8943(5) 0.5358(5) 0.89348(13)
H14_30 H 0.8621 0.4976 0.8917
N3_31 N 0.0231(4) 0.0230(3) 0.86878(9)
C11_31 C 0.0146(5) 0.1277(4) 0.85377(12)
H9_31 H 0.0207 0.1767 0.8508
C12_31 C 0.0448(5) 0.0933(4) 0.87057(12)
H10_31 H 0.0743 0.1132 0.8812
H14_31 H 0.1379 0.0024 0.8917
O5_31 O 0.0973(4) 0.7881(3) 0.92032(9)
C4_31 C 0.1035(4) 0.7789(4) 0.98686(12)
C5_31 C 0.1462(5) 0.7344(5) 0.97442(13)
H4_31 H 0.1771 0.7011 0.9809
C6_31 C 0.1427(5) 0.7396(5) 0.95218(12)
H5_31 H 0.1707 0.7091 0.9436
C7_31 C 0.0984(5) 0.7891(5) 0.94268(12)
C8_31 C 0.0570(6) 0.8329(5) 0.95509(14)
H6_31 H 0.0270 0.8668 0.9485
C9_31 C 0.0586(5) 0.8277(5) 0.97736(13)
H7_31 H 0.0293 0.8574 0.9858
C13_31 C 0.0406(4) 0.9637(4) 0.88321(11)
C15_31 C 0.0097(6) 0.8518(5) 0.89917(16)
C16_31 C 0.0764(6) 0.8496(4) 0.90914(12)
C17_31 C 0.1226(6) 0.9061(5) 0.90670(14)
H13_31 H 0.1665 0.9057 0.9141
C18_31 C 0.1057(5) 0.9642(5) 0.89348(13)
H8_30 H 0.9602 0.9764 0.8463
C14_30 C 0.9920(6) 0.9095(4) 0.88600(14)
H11_30 H 0.9472 0.9111 0.8791
H12_30 H 0.9767 0.8145 0.9013
N3_32 N 0.0231(4) 0.9770(3) 0.63122(9)
C11_32 C 0.0146(5) 0.8723(4) 0.64623(12)
H9_32 H 0.0207 0.8233 0.6492
C12_32 C 0.0448(5) 0.9067(4) 0.62943(12)
H10_32 H 0.0743 0.8868 0.6188
H14_32 H 0.1379 0.9976 0.6083
H8_31 H 0.9602 0.0236 0.6537
C14_31 C 0.9920(6) 0.0905(4) 0.61400(14)
H11_31 H 0.9472 0.0889 0.6209
H12_31 H 0.9767 0.1855 0.5987
O5_32 O 0.4027(4) 0.7881(3) 0.07968(9)
C4_32 C 0.3965(4) 0.7789(4) 0.01314(12)
C5_32 C 0.3538(5) 0.7344(5) 0.02558(13)
H4_32 H 0.3229 0.7011 0.0191
C6_32 C 0.3573(5) 0.7396(5) 0.04782(12)
H5_32 H 0.3293 0.7091 0.0564
C7_32 C 0.4016(5) 0.7891(5) 0.05732(12)
C8_32 C 0.4430(6) 0.8329(5) 0.04491(14)
H6_32 H 0.4730 0.8668 0.0515
C9_32 C 0.4414(5) 0.8277(5) 0.02264(13)
H7_32 H 0.4707 0.8574 0.0142
H8_32 H 0.5398 0.9764 0.1537
C13_32 C 0.4594(4) 0.9637(4) 0.11679(11)
C14_32 C 0.5080(6) 0.9095(4) 0.11400(14)
H11_32 H 0.5528 0.9111 0.1209
C15_32 C 0.4903(6) 0.8518(5) 0.10083(16)
H12_32 H 0.5233 0.8145 0.0987
C16_32 C 0.4236(6) 0.8496(4) 0.09086(12)
C17_32 C 0.3774(6) 0.9061(5) 0.09330(14)
H13_32 H 0.3335 0.9057 0.0859
C18_32 C 0.3943(5) 0.9642(5) 0.10652(13)
loop_
_geom_bond_atom_site_label_1
_geom_bond_atom_site_label_2
_geom_bond_site_symmetry_1
_geom_bond_site_symmetry_2
C25 C24 1_555 1_555
H17 C25 1_555 1_555
H18 C26 1_555 1_555
C25 C26 1_555 1_555
Co1 N2 1_555 1_555
N1 C1 1_555 1_555
N2 C1 1_555 1_555
N3 C10 1_555 1_555
N4 C10 1_555 1_555
O1 Co1 1_555 1_555
O2 C19 1_555 1_555
O5 C7 1_555 1_555
C1 H1 1_555 1_555
C2 N2 1_555 1_555
H2 C2 1_555 1_555
C3 N1 1_555 1_555
H3 C3 1_555 1_555
C4 N1 1_555 1_555
C5 C4 1_555 1_555
H4 C5 1_555 1_555
C6 C5 1_555 1_555
H5 C6 1_555 1_555
C7 C6 1_555 1_555
C8 C7 1_555 1_555
H6 C8 1_555 1_555
C9 C4 1_555 1_555
H7 C9 1_555 1_555
C10 H8 1_555 1_555
C11 N4 1_555 1_555
H9 C11 1_555 1_555
C12 N3 1_555 1_555
H10 C12 1_555 1_555
C13 N3 1_555 1_555
C14 C13 1_555 1_555
H11 C14 1_555 1_555
C15 C14 1_555 1_555
H12 C15 1_555 1_555
C16 O5 1_555 1_555
C17 C16 1_555 1_555
H13 C17 1_555 1_555
C18 C13 1_555 1_555
H14 C18 1_555 1_555
C19 O1 1_555 1_555
C20 C19 1_555 1_555
C21 C20 1_555 1_555
H15 C21 1_555 1_555
C22 C21 1_555 1_555
H16 C22 1_555 1_555
Co2 N4 1_555 1_555
N5 Co1 1_555 1_555
O6 Co1 1_555 1_555
O7 Co1 1_555 1_555
C2 C3 1_555 1_555
C8 C9 1_555 1_555
C11 C12 1_555 1_555
C15 C16 1_555 1_555
C17 C18 1_555 1_555
Co1_2 N2_2 1_555 1_555
N1_2 C1_2 1_555 1_555
N2_2 C1_2 1_555 1_555
O1_2 Co1_2 1_555 1_555
O2_2 C19_2 1_555 1_555
C1_2 H1_2 1_555 1_555
C2_2 N2_2 1_555 1_555
H2_2 C2_2 1_555 1_555
C3_2 N1_2 1_555 1_555
H3_2 C3_2 1_555 1_555
C19_2 O1_2 1_555 1_555
C20_2 C19_2 1_555 1_555
C21_2 C20_2 1_555 1_555
H15_2 C21_2 1_555 1_555
C22_2 C21_2 1_555 1_555
H16_2 C22_2 1_555 1_555
N5_2 Co1_2 1_555 1_555
O6_2 Co1_2 1_555 1_555
O7_2 Co1_2 1_555 1_555
C2_2 C3_2 1_555 1_555
N3_2 C10_2 1_555 1_555
N5 C10_2 1_555 1_555
O5_2 C7_2 1_555 1_555
H2_3 C2_3 1_555 1_555
C3_3 N1_3 1_555 1_555
H3_3 C3_3 1_555 1_555
C4_2 N1_3 1_555 1_555
C8_2 C7_2 1_555 1_555
H6_2 C8_2 1_555 1_555
C9_2 C4_2 1_555 1_555
H7_2 C9_2 1_555 1_555
C10_2 H8_2 1_555 1_555
C11_2 N5 1_555 1_555
H9_2 C11_2 1_555 1_555
C12_2 N3_2 1_555 1_555
H10_2 C12_2 1_555 1_555
C13_2 N3_2 1_555 1_555
C14_2 C13_2 1_555 1_555
H11_2 C14_2 1_555 1_555
C15_2 C14_2 1_555 1_555
H12_2 C15_2 1_555 1_555
C16_2 O5_2 1_555 1_555
C17_2 C16_2 1_555 1_555
H13_2 C17_2 1_555 1_555
C18_2 C13_2 1_555 1_555
H14_2 C18_2 1_555 1_555
C2_3 C3_3 1_555 1_555
C8_2 C9_2 1_555 1_555
C11_2 C12_2 1_555 1_555
C15_2 C16_2 1_555 1_555
C17_2 C18_2 1_555 1_555
Co2 N2_3 1_555 1_555
N1_4 C1_3 1_555 1_555
N2_3 C1_3 1_555 1_555
N3_3 C10_3 1_555 1_555
N5_2 C10_3 1_555 1_555
O1_3 Co2 1_555 1_555
O2_3 C19_3 1_555 1_555
O3 C23 1_555 1_555
O4 C23 1_555 1_555
O5_3 C7_3 1_555 1_555
C1_3 H1_3 1_555 1_555
C2_4 N2_3 1_555 1_555
H2_4 C2_4 1_555 1_555
C3_4 N1_4 1_555 1_555
H3_4 C3_4 1_555 1_555
C4_3 N1_4 1_555 1_555
C5_2 C4_3 1_555 1_555
H4_2 C5_2 1_555 1_555
C6_2 C5_2 1_555 1_555
H5_2 C6_2 1_555 1_555
C7_3 C6_2 1_555 1_555
C8_3 C7_3 1_555 1_555
H6_3 C8_3 1_555 1_555
C9_3 C4_3 1_555 1_555
H7_3 C9_3 1_555 1_555
C10_3 H8_3 1_555 1_555
C11_3 N5_2 1_555 1_555
H9_3 C11_3 1_555 1_555
C12_3 N3_3 1_555 1_555
H10_3 C12_3 1_555 1_555
C13_3 N3_3 1_555 1_555
C14_3 C13_3 1_555 1_555
H11_3 C14_3 1_555 1_555
C15_3 C14_3 1_555 1_555
H12_3 C15_3 1_555 1_555
C16_3 O5_3 1_555 1_555
C17_3 C16_3 1_555 1_555
H13_3 C17_3 1_555 1_555
C18_3 C13_3 1_555 1_555
H14_3 C18_3 1_555 1_555
C19_3 O1_3 1_555 1_555
C20_3 C19_3 1_555 1_555
C21_3 C20_3 1_555 1_555
H15_3 C21_3 1_555 1_555
C22_3 C21_3 1_555 1_555
H16_3 C22_3 1_555 1_555
C23 C24_2 1_555 1_555
C24_2 C22_3 1_555 1_555
C25_2 C24_2 1_555 1_555
H17_2 C25_2 1_555 1_555
C26_2 C20_3 1_555 1_555
H18_2 C26_2 1_555 1_555
Co3 O3 1_555 1_555
O6_3 Co2 1_555 1_555
O7_3 Co2 1_555 1_555
O4 Co3 1_555 1_555
C2_4 C3_4 1_555 1_555
C8_3 C9_3 1_555 1_555
C11_3 C12_3 1_555 1_555
C15_3 C16_3 1_555 1_555
C17_3 C18_3 1_555 1_555
C25_2 C26_2 1_555 1_555
O6_2 C23_2 1_555 1_555
O7_2 C23_2 1_555 1_555
O6_3 C23_3 1_555 1_555
O7_3 C23_3 1_555 1_555
C20_4 C19_4 1_555 1_555
C21_4 C20_4 1_555 1_555
H15_4 C21_4 1_555 1_555
C22_4 C21_4 1_555 1_555
H16_4 C22_4 1_555 1_555
C23_3 C24_3 1_555 1_555
C24_3 C22_4 1_555 1_555
C25_3 C24_3 1_555 1_555
H17_3 C25_3 1_555 1_555
C26_3 C20_4 1_555 1_555
H18_3 C26_3 1_555 1_555
C25_3 C26_3 1_555 1_555
Co3 N2_4 1_555 1_555
N2_4 C1_4 1_555 1_555
O1_4 Co3 1_555 1_555
C1_4 H1_4 1_555 1_555
H4_3 C5_3 1_555 1_555
C6_3 C5_3 1_555 1_555
H5_3 C6_3 1_555 1_555
N5_3 Co3 1_555 1_555
O6 C23_4 1_555 1_555
O7 C23_4 1_555 1_555
C23_4 C24_4 1_555 1_555
C25_4 C24_4 1_555 1_555
H17_4 C25_4 1_555 1_555
H18_4 C26_4 1_555 1_555
C25_4 C26_4 1_555 1_555
N5_3 C10_4 1_555 1_555
O3_2 C23_5 1_555 1_555
O4_2 C23_5 1_555 1_555
Co3_2 O3_2 1_555 1_555
O4_2 Co3_2 1_555 1_555
O3_3 C23_6 1_555 1_555
O4_3 C23_6 1_555 1_555
C20_5 C19_5 1_555 1_555
C21_5 C20_5 1_555 1_555
H15_5 C21_5 1_555 1_555
C22_5 C21_5 1_555 1_555
H16_5 C22_5 1_555 1_555
C23_6 C24_5 1_555 1_555
C24_5 C22_5 1_555 1_555
C25_5 C24_5 1_555 1_555
H17_5 C25_5 1_555 1_555
C26_5 C20_5 1_555 1_555
H18_5 C26_5 1_555 1_555
Co3_3 O3_3 1_555 1_555
O4_3 Co3_3 1_555 1_555
C25_5 C26_5 1_555 1_555
Co1_3 N2_5 1_555 1_555
N2_5 C1_5 1_555 1_555
O1_5 Co1_3 1_555 1_555
C1_5 H1_5 1_555 1_555
H4_4 C5_4 1_555 1_555
C6_4 C5_4 1_555 1_555
H5_4 C6_4 1_555 1_555
N5_4 Co1_3 1_555 1_555
O6_4 Co1_3 1_555 1_555
O7_4 Co1_3 1_555 1_555
N5_4 C10_5 1_555 1_555
N3_4 C10_6 1_555 1_555
N4_2 C10_6 1_555 1_555
O5_4 C7_4 1_555 1_555
C5_5 C4_4 1_555 1_555
H4_5 C5_5 1_555 1_555
C6_5 C5_5 1_555 1_555
H5_5 C6_5 1_555 1_555
C7_4 C6_5 1_555 1_555
C8_4 C7_4 1_555 1_555
H6_4 C8_4 1_555 1_555
C9_4 C4_4 1_555 1_555
H7_4 C9_4 1_555 1_555
C10_6 H8_4 1_555 1_555
C11_4 N4_2 1_555 1_555
H9_4 C11_4 1_555 1_555
C12_4 N3_4 1_555 1_555
H10_4 C12_4 1_555 1_555
C13_4 N3_4 1_555 1_555
C14_4 C13_4 1_555 1_555
H11_4 C14_4 1_555 1_555
C15_4 C14_4 1_555 1_555
H12_4 C15_4 1_555 1_555
C16_4 O5_4 1_555 1_555
C17_4 C16_4 1_555 1_555
H13_4 C17_4 1_555 1_555
C18_4 C13_4 1_555 1_555
H14_4 C18_4 1_555 1_555
Co3_3 N4_2 1_555 1_555
C8_4 C9_4 1_555 1_555
C11_4 C12_4 1_555 1_555
C15_4 C16_4 1_555 1_555
C17_4 C18_4 1_555 1_555
Co3_2 N2_6 1_555 1_555
N1_5 C1_6 1_555 1_555
N2_6 C1_6 1_555 1_555
O1_6 Co3_2 1_555 1_555
O2_6 C19_6 1_555 1_555
O5_5 C7_5 1_555 1_555
C1_6 H1_6 1_555 1_555
C2_5 N2_6 1_555 1_555
H2_5 C2_5 1_555 1_555
C3_5 N1_5 1_555 1_555
H3_5 C3_5 1_555 1_555
C4_5 N1_5 1_555 1_555
C5_6 C4_5 1_555 1_555
H4_6 C5_6 1_555 1_555
C6_6 C5_6 1_555 1_555
H5_6 C6_6 1_555 1_555
C7_5 C6_6 1_555 1_555
C8_5 C7_5 1_555 1_555
H6_5 C8_5 1_555 1_555
C9_5 C4_5 1_555 1_555
H7_5 C9_5 1_555 1_555
H9_5 C11_5 1_555 1_555
C12_5 N3_5 1_555 1_555
H10_5 C12_5 1_555 1_555
C13_5 N3_5 1_555 1_555
C16_5 O5_5 1_555 1_555
C17_5 C16_5 1_555 1_555
H13_5 C17_5 1_555 1_555
C18_5 C13_5 1_555 1_555
H14_5 C18_5 1_555 1_555
C19_6 O1_6 1_555 1_555
C20_6 C19_6 1_555 1_555
C21_6 C20_6 1_555 1_555
H15_6 C21_6 1_555 1_555
C22_6 C21_6 1_555 1_555
H16_6 C22_6 1_555 1_555
N5_5 Co3_2 1_555 1_555
C2_5 C3_5 1_555 1_555
C8_5 C9_5 1_555 1_555
C11_5 C12_5 1_555 1_555
C15_5 C16_5 1_555 1_555
C17_5 C18_5 1_555 1_555
Co3_3 N2_7 1_555 1_555
N1_6 C1_7 1_555 1_555
N2_7 C1_7 1_555 1_555
N3_6 C10_7 1_555 1_555
N5_5 C10_7 1_555 1_555
O1_7 Co3_3 1_555 1_555
O2_7 C19_7 1_555 1_555
O6_4 C23_7 1_555 1_555
O7_4 C23_7 1_555 1_555
O5_6 C7_6 1_555 1_555
C1_7 H1_7 1_555 1_555
C2_6 N2_7 1_555 1_555
H2_6 C2_6 1_555 1_555
C3_6 N1_6 1_555 1_555
H3_6 C3_6 1_555 1_555
C4_6 N1_6 1_555 1_555
C5_7 C4_6 1_555 1_555
H4_7 C5_7 1_555 1_555
C6_7 C5_7 1_555 1_555
H5_7 C6_7 1_555 1_555
C7_6 C6_7 1_555 1_555
C8_6 C7_6 1_555 1_555
H6_6 C8_6 1_555 1_555
C9_6 C4_6 1_555 1_555
H7_6 C9_6 1_555 1_555
C10_7 H8_5 1_555 1_555
C11_6 N5_5 1_555 1_555
H9_6 C11_6 1_555 1_555
C12_6 N3_6 1_555 1_555
H10_6 C12_6 1_555 1_555
C13_6 N3_6 1_555 1_555
C14_5 C13_6 1_555 1_555
H11_5 C14_5 1_555 1_555
C15_6 C14_5 1_555 1_555
H12_5 C15_6 1_555 1_555
C16_6 O5_6 1_555 1_555
C17_6 C16_6 1_555 1_555
H13_6 C17_6 1_555 1_555
C18_6 C13_6 1_555 1_555
H14_6 C18_6 1_555 1_555
C19_7 O1_7 1_555 1_555
C20_7 C19_7 1_555 1_555
C21_7 C20_7 1_555 1_555
H15_7 C21_7 1_555 1_555
C22_7 C21_7 1_555 1_555
H16_7 C22_7 1_555 1_555
C23_7 C24_6 1_555 1_555
C24_6 C22_7 1_555 1_555
C25_6 C24_6 1_555 1_555
H17_6 C25_6 1_555 1_555
C26_6 C20_7 1_555 1_555
H18_6 C26_6 1_555 1_555
C2_6 C3_6 1_555 1_555
C8_6 C9_6 1_555 1_555
C11_6 C12_6 1_555 1_555
C15_6 C16_6 1_555 1_555
C17_6 C18_6 1_555 1_555
C25_6 C26_6 1_555 1_555
Co1_4 N2_8 1_555 1_555
N1_7 C1_8 1_555 1_555
N2_8 C1_8 1_555 1_555
N3_7 C10_8 1_555 1_555
N4_3 C10_8 1_555 1_555
O1_8 Co1_4 1_555 1_555
O5_7 C7_7 1_555 1_555
C1_8 H1_8 1_555 1_555
C2_7 N2_8 1_555 1_555
H2_7 C2_7 1_555 1_555
C3_7 N1_7 1_555 1_555
H3_7 C3_7 1_555 1_555
C4_7 N1_7 1_555 1_555
C5_8 C4_7 1_555 1_555
H4_8 C5_8 1_555 1_555
C6_8 C5_8 1_555 1_555
H5_8 C6_8 1_555 1_555
C7_7 C6_8 1_555 1_555
C8_7 C7_7 1_555 1_555
H6_7 C8_7 1_555 1_555
C9_7 C4_7 1_555 1_555
H7_7 C9_7 1_555 1_555
C10_8 H8_6 1_555 1_555
C11_7 N4_3 1_555 1_555
H9_7 C11_7 1_555 1_555
C12_7 N3_7 1_555 1_555
H10_7 C12_7 1_555 1_555
C13_7 N3_7 1_555 1_555
C14_6 C13_7 1_555 1_555
H11_6 C14_6 1_555 1_555
C15_7 C14_6 1_555 1_555
H12_6 C15_7 1_555 1_555
C16_7 O5_7 1_555 1_555
C17_7 C16_7 1_555 1_555
H13_7 C17_7 1_555 1_555
C18_7 C13_7 1_555 1_555
H14_7 C18_7 1_555 1_555
Co2_2 N4_3 1_555 1_555
N5_6 Co1_4 1_555 1_555
O6_5 Co1_4 1_555 1_555
O7_5 Co1_4 1_555 1_555
C2_7 C3_7 1_555 1_555
C8_7 C9_7 1_555 1_555
C11_7 C12_7 1_555 1_555
C15_7 C16_7 1_555 1_555
C17_7 C18_7 1_555 1_555
O3_4 C23_8 1_555 1_555
O4_4 C23_8 1_555 1_555
C20_8 C19_8 1_555 1_555
C21_8 C20_8 1_555 1_555
H15_8 C21_8 1_555 1_555
C22_8 C21_8 1_555 1_555
H16_8 C22_8 1_555 1_555
C23_8 C24_7 1_555 1_555
C24_7 C22_8 1_555 1_555
C25_7 C24_7 1_555 1_555
H17_7 C25_7 1_555 1_555
C26_7 C20_8 1_555 1_555
H18_7 C26_7 1_555 1_555
Co3_4 O3_4 1_555 1_555
O4_4 Co3_4 1_555 1_555
C25_7 C26_7 1_555 1_555
Co2_2 N2_9 1_555 1_555
N1_8 C1_9 1_555 1_555
N2_9 C1_9 1_555 1_555
O1_9 Co2_2 1_555 1_555
O2_9 C19_9 1_555 1_555
O3_5 C23_9 1_555 1_555
O4_5 C23_9 1_555 1_555
C1_9 H1_9 1_555 1_555
C2_8 N2_9 1_555 1_555
H2_8 C2_8 1_555 1_555
C3_8 N1_8 1_555 1_555
H3_8 C3_8 1_555 1_555
C19_9 O1_9 1_555 1_555
C20_9 C19_9 1_555 1_555
C21_9 C20_9 1_555 1_555
H15_9 C21_9 1_555 1_555
C22_9 C21_9 1_555 1_555
H16_9 C22_9 1_555 1_555
C23_9 C24_8 1_555 1_555
C24_8 C22_9 1_555 1_555
C25_8 C24_8 1_555 1_555
H17_8 C25_8 1_555 1_555
C26_8 C20_9 1_555 1_555
H18_8 C26_8 1_555 1_555
Co3_5 O3_5 1_555 1_555
O6_6 Co2_2 1_555 1_555
O7_6 Co2_2 1_555 1_555
O4_5 Co3_5 1_555 1_555
C2_8 C3_8 1_555 1_555
C25_8 C26_8 1_555 1_555
N3_8 C10_9 1_555 1_555
N5_6 C10_9 1_555 1_555
C11_8 N5_6 1_555 1_555
H9_8 C11_8 1_555 1_555
C12_8 N3_8 1_555 1_555
H10_8 C12_8 1_555 1_555
C11_8 C12_8 1_555 1_555
N3_9 C10_10 1_555 1_555
N4_4 C10_10 1_555 1_555
O5_8 C7_8 1_555 1_555
H2_9 C2_9 1_555 1_555
C3_9 N1_9 1_555 1_555
H3_9 C3_9 1_555 1_555
C4_8 N1_9 1_555 1_555
C8_8 C7_8 1_555 1_555
H6_8 C8_8 1_555 1_555
C9_8 C4_8 1_555 1_555
H7_8 C9_8 1_555 1_555
C10_10 H8_7 1_555 1_555
C11_9 N4_4 1_555 1_555
H9_9 C11_9 1_555 1_555
C12_9 N3_9 1_555 1_555
H10_9 C12_9 1_555 1_555
C13_8 N3_9 1_555 1_555
C14_7 C13_8 1_555 1_555
H11_7 C14_7 1_555 1_555
C15_8 C14_7 1_555 1_555
H12_7 C15_8 1_555 1_555
C16_8 O5_8 1_555 1_555
C17_8 C16_8 1_555 1_555
H13_8 C17_8 1_555 1_555
C18_8 C13_8 1_555 1_555
H14_9 C18_8 1_555 1_555
Co3_5 N4_4 1_555 1_555
C2_9 C3_9 1_555 1_555
C8_8 C9_8 1_555 1_555
C11_9 C12_9 1_555 1_555
C15_8 C16_8 1_555 1_555
C17_8 C18_8 1_555 1_555
N4_5 C10_11 1_555 1_555
C10_11 H8_8 1_555 1_555
H11_8 C14_8 1_555 1_555
Co3_4 N4_5 1_555 1_555
Co3_4 N2_10 1_555 1_555
N2_10 C1_10 1_555 1_555
O1_10 Co3_4 1_555 1_555
O2_10 C19_10 1_555 1_555
O6_5 C23_10 1_555 1_555
O7_5 C23_10 1_555 1_555
C1_10 H1_10 1_555 1_555
H4_9 C5_9 1_555 1_555
C6_9 C5_9 1_555 1_555
H5_9 C6_9 1_555 1_555
C19_10 O1_10 1_555 1_555
C20_10 C19_10 1_555 1_555
C21_10 C20_10 1_555 1_555
H15_10 C21_10 1_555 1_555
C22_10 C21_10 1_555 1_555
H16_10 C22_10 1_555 1_555
C23_10 C24_9 1_555 1_555
C24_9 C22_10 1_555 1_555
C25_9 C24_9 1_555 1_555
H17_9 C25_9 1_555 1_555
C26_9 C20_10 1_555 1_555
H18_9 C26_9 1_555 1_555
C25_9 C26_9 1_555 1_555
Co3_5 N2_11 1_555 1_555
N1_10 C1_11 1_555 1_555
N2_11 C1_11 1_555 1_555
O1_11 Co3_5 1_555 1_555
O2_11 C19_11 1_555 1_555
C1_11 H1_11 1_555 1_555
C2_10 N2_11 1_555 1_555
H2_10 C2_10 1_555 1_555
C3_10 N1_10 1_555 1_555
H3_10 C3_10 1_555 1_555
C19_11 O1_11 1_555 1_555
C20_11 C19_11 1_555 1_555
C21_11 C20_11 1_555 1_555
H15_11 C21_11 1_555 1_555
C22_11 C21_11 1_555 1_555
H16_11 C22_11 1_555 1_555
C24_10 C22_11 1_555 1_555
C25_10 C24_10 1_555 1_555
H17_10 C25_10 1_555 1_555
C26_10 C20_11 1_555 1_555
H18_10 C26_10 1_555 1_555
C2_10 C3_10 1_555 1_555
C25_10 C26_10 1_555 1_555
O6_6 C23_11 1_555 1_555
O7_6 C23_11 1_555 1_555
Co1_5 N2_12 1_555 1_555
N1_11 C1_12 1_555 1_555
N2_12 C1_12 1_555 1_555
O1_12 Co1_5 1_555 1_555
O2_12 C19_12 1_555 1_555
C1_12 H1_12 1_555 1_555
C2_11 N2_12 1_555 1_555
H2_11 C2_11 1_555 1_555
C3_11 N1_11 1_555 1_555
H3_11 C3_11 1_555 1_555
C19_12 O1_12 1_555 1_555
C20_12 C19_12 1_555 1_555
C21_12 C20_12 1_555 1_555
H15_12 C21_12 1_555 1_555
C22_12 C21_12 1_555 1_555
H16_12 C22_12 1_555 1_555
N5_7 Co1_5 1_555 1_555
O6_7 Co1_5 1_555 1_555
O7_7 Co1_5 1_555 1_555
C2_11 C3_11 1_555 1_555
N3_10 C10_12 1_555 1_555
N5_7 C10_12 1_555 1_555
O5_9 C7_9 1_555 1_555
H2_12 C2_12 1_555 1_555
C3_12 N1_12 1_555 1_555
H3_12 C3_12 1_555 1_555
C4_9 N1_12 1_555 1_555
C8_9 C7_9 1_555 1_555
H6_9 C8_9 1_555 1_555
C9_9 C4_9 1_555 1_555
H7_9 C9_9 1_555 1_555
C10_12 H8_9 1_555 1_555
C11_10 N5_7 1_555 1_555
H9_10 C11_10 1_555 1_555
C12_10 N3_10 1_555 1_555
H10_10 C12_10 1_555 1_555
C13_9 N3_10 1_555 1_555
C14_9 C13_9 1_555 1_555
H11_9 C14_9 1_555 1_555
C15_9 C14_9 1_555 1_555
H12_9 C15_9 1_555 1_555
C16_9 O5_9 1_555 1_555
C17_9 C16_9 1_555 1_555
H13_9 C17_9 1_555 1_555
C18_9 C13_9 1_555 1_555
H14_10 C18_9 1_555 1_555
C2_12 C3_12 1_555 1_555
C8_9 C9_9 1_555 1_555
C11_10 C12_10 1_555 1_555
C15_9 C16_9 1_555 1_555
C17_9 C18_9 1_555 1_555
O6_7 C23_12 1_555 1_555
O7_7 C23_12 1_555 1_555
C23_12 C24_11 1_555 1_555
C25_11 C24_11 1_555 1_555
H17_11 C25_11 1_555 1_555
H18_11 C26_11 1_555 1_555
C25_11 C26_11 1_555 1_555
N3_11 C10_13 1_555 1_555
N4_6 C10_13 1_555 1_555
O5_10 C7_10 1_555 1_555
C5_10 C4_10 1_555 1_555
H4_10 C5_10 1_555 1_555
C6_10 C5_10 1_555 1_555
H5_10 C6_10 1_555 1_555
C7_10 C6_10 1_555 1_555
C8_10 C7_10 1_555 1_555
H6_10 C8_10 1_555 1_555
C9_10 C4_10 1_555 1_555
H7_10 C9_10 1_555 1_555
C10_13 H8_10 1_555 1_555
C11_11 N4_6 1_555 1_555
H9_11 C11_11 1_555 1_555
C12_11 N3_11 1_555 1_555
H10_11 C12_11 1_555 1_555
C13_10 N3_11 1_555 1_555
C14_10 C13_10 1_555 1_555
H11_10 C14_10 1_555 1_555
C15_10 C14_10 1_555 1_555
H12_10 C15_10 1_555 1_555
C16_10 O5_10 1_555 1_555
C17_10 C16_10 1_555 1_555
H13_10 C17_10 1_555 1_555
C18_10 C13_10 1_555 1_555
H14_11 C18_10 1_555 1_555
Co2_3 N4_6 1_555 1_555
C8_10 C9_10 1_555 1_555
C11_11 C12_11 1_555 1_555
C15_10 C16_10 1_555 1_555
C17_10 C18_10 1_555 1_555
Co1_6 N2_13 1_555 1_555
N1_13 C1_13 1_555 1_555
N2_13 C1_13 1_555 1_555
O1_13 Co1_6 1_555 1_555
O2_13 C19_13 1_555 1_555
O5_11 C7_11 1_555 1_555
C1_13 H1_13 1_555 1_555
C2_13 N2_13 1_555 1_555
H2_13 C2_13 1_555 1_555
C3_13 N1_13 1_555 1_555
H3_13 C3_13 1_555 1_555
C4_11 N1_13 1_555 1_555
C5_11 C4_11 1_555 1_555
H4_11 C5_11 1_555 1_555
C6_11 C5_11 1_555 1_555
H5_11 C6_11 1_555 1_555
C7_11 C6_11 1_555 1_555
C8_11 C7_11 1_555 1_555
H6_11 C8_11 1_555 1_555
C9_11 C4_11 1_555 1_555
H7_11 C9_11 1_555 1_555
H9_12 C11_12 1_555 1_555
C12_12 N3_12 1_555 1_555
H10_12 C12_12 1_555 1_555
C13_11 N3_12 1_555 1_555
C16_11 O5_11 1_555 1_555
C17_11 C16_11 1_555 1_555
H13_11 C17_11 1_555 1_555
C18_11 C13_11 1_555 1_555
H14_12 C18_11 1_555 1_555
C19_13 O1_13 1_555 1_555
C20_13 C19_13 1_555 1_555
C21_13 C20_13 1_555 1_555
H15_13 C21_13 1_555 1_555
C22_13 C21_13 1_555 1_555
H16_13 C22_13 1_555 1_555
N5_8 Co1_6 1_555 1_555
O6_8 Co1_6 1_555 1_555
O7_8 Co1_6 1_555 1_555
C2_13 C3_13 1_555 1_555
C8_11 C9_11 1_555 1_555
C11_12 C12_12 1_555 1_555
C15_11 C16_11 1_555 1_555
C17_11 C18_11 1_555 1_555
Co2_3 N2_14 1_555 1_555
N1_14 C1_14 1_555 1_555
N2_14 C1_14 1_555 1_555
N3_13 C10_14 1_555 1_555
N5_8 C10_14 1_555 1_555
O1_14 Co2_3 1_555 1_555
O2_14 C19_14 1_555 1_555
O3_6 C23_13 1_555 1_555
O4_6 C23_13 1_555 1_555
O5_12 C7_12 1_555 1_555
C1_14 H1_14 1_555 1_555
C2_14 N2_14 1_555 1_555
H2_14 C2_14 1_555 1_555
C3_14 N1_14 1_555 1_555
H3_14 C3_14 1_555 1_555
C4_12 N1_14 1_555 1_555
C5_12 C4_12 1_555 1_555
H4_12 C5_12 1_555 1_555
C6_12 C5_12 1_555 1_555
H5_12 C6_12 1_555 1_555
C7_12 C6_12 1_555 1_555
C8_12 C7_12 1_555 1_555
H6_12 C8_12 1_555 1_555
C9_12 C4_12 1_555 1_555
H7_12 C9_12 1_555 1_555
C10_14 H8_11 1_555 1_555
C11_13 N5_8 1_555 1_555
H9_13 C11_13 1_555 1_555
C12_13 N3_13 1_555 1_555
H10_13 C12_13 1_555 1_555
C13_12 N3_13 1_555 1_555
C14_11 C13_12 1_555 1_555
H11_11 C14_11 1_555 1_555
C15_12 C14_11 1_555 1_555
H12_11 C15_12 1_555 1_555
C16_12 O5_12 1_555 1_555
C17_12 C16_12 1_555 1_555
H13_12 C17_12 1_555 1_555
C18_12 C13_12 1_555 1_555
H14_13 C18_12 1_555 1_555
C19_14 O1_14 1_555 1_555
C20_14 C19_14 1_555 1_555
C21_14 C20_14 1_555 1_555
H15_14 C21_14 1_555 1_555
C22_14 C21_14 1_555 1_555
H16_14 C22_14 1_555 1_555
C23_13 C24_12 1_555 1_555
C24_12 C22_14 1_555 1_555
C25_12 C24_12 1_555 1_555
H17_12 C25_12 1_555 1_555
C26_12 C20_14 1_555 1_555
H18_12 C26_12 1_555 1_555
Co3_6 O3_6 1_555 1_555
O6_9 Co2_3 1_555 1_555
O7_9 Co2_3 1_555 1_555
O4_6 Co3_6 1_555 1_555
C2_14 C3_14 1_555 1_555
C8_12 C9_12 1_555 1_555
C11_13 C12_13 1_555 1_555
C15_12 C16_12 1_555 1_555
C17_12 C18_12 1_555 1_555
C25_12 C26_12 1_555 1_555
O6_8 C23_14 1_555 1_555
O7_8 C23_14 1_555 1_555
Co3_6 N2_15 1_555 1_555
N2_15 C1_15 1_555 1_555
O1_15 Co3_6 1_555 1_555
C1_15 H1_15 1_555 1_555
H4_13 C5_13 1_555 1_555
C6_13 C5_13 1_555 1_555
H5_13 C6_13 1_555 1_555
N5_9 Co3_6 1_555 1_555
O6_9 C23_15 1_555 1_555
O7_9 C23_15 1_555 1_555
C20_15 C19_15 1_555 1_555
C21_15 C20_15 1_555 1_555
H15_15 C21_15 1_555 1_555
C22_15 C21_15 1_555 1_555
H16_15 C22_15 1_555 1_555
C23_15 C24_13 1_555 1_555
C24_13 C22_15 1_555 1_555
C25_13 C24_13 1_555 1_555
H17_13 C25_13 1_555 1_555
C26_13 C20_15 1_555 1_555
H18_13 C26_13 1_555 1_555
C25_13 C26_13 1_555 1_555
N5_9 C10_15 1_555 1_555
C25_14 C24_14 1_555 1_555
H17_14 C25_14 1_555 1_555
H18_14 C26_14 1_555 1_555
C25_14 C26_14 1_555 1_555
O3_7 C23_16 1_555 1_555
O4_7 C23_16 1_555 1_555
Co3_7 O3_7 1_555 1_555
O4_7 Co3_7 1_555 1_555
Co1_7 N2_16 1_555 1_555
N2_16 C1_16 1_555 1_555
O1_16 Co1_7 1_555 1_555
C1_16 H1_16 1_555 1_555
H4_14 C5_14 1_555 1_555
C6_14 C5_14 1_555 1_555
H5_14 C6_14 1_555 1_555
N5_10 Co1_7 1_555 1_555
O6_10 Co1_7 1_555 1_555
O7_10 Co1_7 1_555 1_555
O3_8 C23_17 1_555 1_555
O4_8 C23_17 1_555 1_555
C20_16 C19_16 1_555 1_555
C21_16 C20_16 1_555 1_555
H15_16 C21_16 1_555 1_555
C22_16 C21_16 1_555 1_555
H16_16 C22_16 1_555 1_555
C23_17 C24_15 1_555 1_555
C24_15 C22_16 1_555 1_555
C25_15 C24_15 1_555 1_555
H17_15 C25_15 1_555 1_555
C26_15 C20_16 1_555 1_555
H18_15 C26_15 1_555 1_555
Co3_8 O3_8 1_555 1_555
O4_8 Co3_8 1_555 1_555
C25_15 C26_15 1_555 1_555
O3_9 C23_18 1_555 1_555
O4_9 C23_18 1_555 1_555
C23_18 C24_16 1_555 1_555
C25_16 C24_16 1_555 1_555
H17_16 C25_16 1_555 1_555
H18_16 C26_16 1_555 1_555
Co3_9 O3_9 1_555 1_555
O4_9 Co3_9 1_555 1_555
C25_16 C26_16 1_555 1_555
N5_10 C10_16 1_555 1_555
Co3_9 N2_17 1_555 1_555
N1_15 C1_17 1_555 1_555
N2_17 C1_17 1_555 1_555
N3_14 C10_17 1_555 1_555
N4_7 C10_17 1_555 1_555
O1_17 Co3_9 1_555 1_555
O2_17 C19_17 1_555 1_555
O5_13 C7_13 1_555 1_555
C1_17 H1_17 1_555 1_555
C2_15 N2_17 1_555 1_555
H2_15 C2_15 1_555 1_555
C3_15 N1_15 1_555 1_555
H3_15 C3_15 1_555 1_555
C4_13 N1_15 1_555 1_555
C5_15 C4_13 1_555 1_555
H4_15 C5_15 1_555 1_555
C6_15 C5_15 1_555 1_555
H5_15 C6_15 1_555 1_555
C7_13 C6_15 1_555 1_555
C8_13 C7_13 1_555 1_555
H6_13 C8_13 1_555 1_555
C9_13 C4_13 1_555 1_555
H7_13 C9_13 1_555 1_555
C10_17 H8_12 1_555 1_555
C11_14 N4_7 1_555 1_555
H9_14 C11_14 1_555 1_555
C12_14 N3_14 1_555 1_555
H10_14 C12_14 1_555 1_555
C13_13 N3_14 1_555 1_555
C14_12 C13_13 1_555 1_555
H11_12 C14_12 1_555 1_555
C15_13 C14_12 1_555 1_555
H12_12 C15_13 1_555 1_555
C16_13 O5_13 1_555 1_555
C17_13 C16_13 1_555 1_555
H13_13 C17_13 1_555 1_555
C18_13 C13_13 1_555 1_555
H14_14 C18_13 1_555 1_555
C19_17 O1_17 1_555 1_555
C20_17 C19_17 1_555 1_555
C21_17 C20_17 1_555 1_555
H15_17 C21_17 1_555 1_555
C22_17 C21_17 1_555 1_555
H16_17 C22_17 1_555 1_555
Co3_8 N4_7 1_555 1_555
N5_11 Co3_9 1_555 1_555
C2_15 C3_15 1_555 1_555
C8_13 C9_13 1_555 1_555
C11_14 C12_14 1_555 1_555
C15_13 C16_13 1_555 1_555
C17_13 C18_13 1_555 1_555
Co3_7 N2_18 1_555 1_555
N1_16 C1_18 1_555 1_555
N2_18 C1_18 1_555 1_555
O1_18 Co3_7 1_555 1_555
O2_18 C19_18 1_555 1_555
C1_18 H1_18 1_555 1_555
C2_16 N2_18 1_555 1_555
H2_16 C2_16 1_555 1_555
C3_16 N1_16 1_555 1_555
H3_16 C3_16 1_555 1_555
C19_18 O1_18 1_555 1_555
C20_18 C19_18 1_555 1_555
C21_18 C20_18 1_555 1_555
H15_18 C21_18 1_555 1_555
C22_18 C21_18 1_555 1_555
H16_18 C22_18 1_555 1_555
N5_12 Co3_7 1_555 1_555
C2_16 C3_16 1_555 1_555
N3_15 C10_18 1_555 1_555
N5_11 C10_18 1_555 1_555
O5_14 C7_14 1_555 1_555
H2_17 C2_17 1_555 1_555
C3_17 N1_17 1_555 1_555
H3_17 C3_17 1_555 1_555
C4_14 N1_17 1_555 1_555
C8_14 C7_14 1_555 1_555
H6_14 C8_14 1_555 1_555
C9_14 C4_14 1_555 1_555
H7_14 C9_14 1_555 1_555
C10_18 H8_13 1_555 1_555
C11_15 N5_11 1_555 1_555
H9_15 C11_15 1_555 1_555
C12_15 N3_15 1_555 1_555
H10_15 C12_15 1_555 1_555
C13_14 N3_15 1_555 1_555
C14_13 C13_14 1_555 1_555
H11_13 C14_13 1_555 1_555
C15_14 C14_13 1_555 1_555
H12_13 C15_14 1_555 1_555
C16_14 O5_14 1_555 1_555
C17_14 C16_14 1_555 1_555
H13_14 C17_14 1_555 1_555
C18_14 C13_14 1_555 1_555
H14_15 C18_14 1_555 1_555
C2_17 C3_17 1_555 1_555
C8_14 C9_14 1_555 1_555
C11_15 C12_15 1_555 1_555
C15_14 C16_14 1_555 1_555
C17_14 C18_14 1_555 1_555
Co3_8 N2_19 1_555 1_555
N1_18 C1_19 1_555 1_555
N2_19 C1_19 1_555 1_555
N3_16 C10_19 1_555 1_555
N5_12 C10_19 1_555 1_555
O1_19 Co3_8 1_555 1_555
O2_19 C19_19 1_555 1_555
O6_10 C23_19 1_555 1_555
O7_10 C23_19 1_555 1_555
O5_15 C7_15 1_555 1_555
C1_19 H1_19 1_555 1_555
C2_18 N2_19 1_555 1_555
H2_18 C2_18 1_555 1_555
C3_18 N1_18 1_555 1_555
H3_18 C3_18 1_555 1_555
C4_15 N1_18 1_555 1_555
C5_16 C4_15 1_555 1_555
H4_16 C5_16 1_555 1_555
C6_16 C5_16 1_555 1_555
H5_16 C6_16 1_555 1_555
C7_15 C6_16 1_555 1_555
C8_15 C7_15 1_555 1_555
H6_15 C8_15 1_555 1_555
C9_15 C4_15 1_555 1_555
H7_15 C9_15 1_555 1_555
C10_19 H8_14 1_555 1_555
C11_16 N5_12 1_555 1_555
H9_16 C11_16 1_555 1_555
C12_16 N3_16 1_555 1_555
H10_16 C12_16 1_555 1_555
C13_15 N3_16 1_555 1_555
C14_14 C13_15 1_555 1_555
H11_14 C14_14 1_555 1_555
C15_15 C14_14 1_555 1_555
H12_14 C15_15 1_555 1_555
C16_15 O5_15 1_555 1_555
C17_15 C16_15 1_555 1_555
H13_15 C17_15 1_555 1_555
C18_15 C13_15 1_555 1_555
H14_16 C18_15 1_555 1_555
C19_19 O1_19 1_555 1_555
C20_19 C19_19 1_555 1_555
C21_19 C20_19 1_555 1_555
H15_19 C21_19 1_555 1_555
C22_19 C21_19 1_555 1_555
H16_19 C22_19 1_555 1_555
C23_19 C24_17 1_555 1_555
C24_17 C22_19 1_555 1_555
C25_17 C24_17 1_555 1_555
H17_17 C25_17 1_555 1_555
C26_17 C20_19 1_555 1_555
H18_17 C26_17 1_555 1_555
C2_18 C3_18 1_555 1_555
C8_15 C9_15 1_555 1_555
C11_16 C12_16 1_555 1_555
C15_15 C16_15 1_555 1_555
C17_15 C18_15 1_555 1_555
C25_17 C26_17 1_555 1_555
O5_16 C7_16 1_555 1_555
C5_17 C4_16 1_555 1_555
H4_17 C5_17 1_555 1_555
C6_17 C5_17 1_555 1_555
H5_17 C6_17 1_555 1_555
C7_16 C6_17 1_555 1_555
C8_16 C7_16 1_555 1_555
H6_16 C8_16 1_555 1_555
C9_16 C4_16 1_555 1_555
H7_16 C9_16 1_555 1_555
H9_17 C11_17 1_555 1_555
C12_17 N3_17 1_555 1_555
H10_17 C12_17 1_555 1_555
C13_16 N3_17 1_555 1_555
C16_16 O5_16 1_555 1_555
C17_16 C16_16 1_555 1_555
H13_16 C17_16 1_555 1_555
C18_16 C13_16 1_555 1_555
H14_17 C18_16 1_555 1_555
C8_16 C9_16 1_555 1_555
C11_17 C12_17 1_555 1_555
C15_16 C16_16 1_555 1_555
C17_16 C18_16 1_555 1_555
O3_10 C23_20 1_555 1_555
O4_10 C23_20 1_555 1_555
C23_20 C24_18 1_555 1_555
C25_18 C24_18 1_555 1_555
H17_18 C25_18 1_555 1_555
H18_18 C26_18 1_555 1_555
Co3_10 O3_10 1_555 1_555
O4_10 Co3_10 1_555 1_555
C25_18 C26_18 1_555 1_555
Co3_10 N2_20 1_555 1_555
N1_19 C1_20 1_555 1_555
N2_20 C1_20 1_555 1_555
O1_20 Co3_10 1_555 1_555
O2_20 C19_20 1_555 1_555
C1_20 H1_20 1_555 1_555
C2_19 N2_20 1_555 1_555
H2_19 C2_19 1_555 1_555
C3_19 N1_19 1_555 1_555
H3_19 C3_19 1_555 1_555
C19_20 O1_20 1_555 1_555
C20_20 C19_20 1_555 1_555
C21_20 C20_20 1_555 1_555
H15_20 C21_20 1_555 1_555
C22_20 C21_20 1_555 1_555
H16_20 C22_20 1_555 1_555
N5_13 Co3_10 1_555 1_555
C2_19 C3_19 1_555 1_555
N3_18 C10_20 1_555 1_555
N5_13 C10_20 1_555 1_555
O5_17 C7_17 1_555 1_555
H2_20 C2_20 1_555 1_555
C3_20 N1_20 1_555 1_555
H3_20 C3_20 1_555 1_555
C4_17 N1_20 1_555 1_555
C8_17 C7_17 1_555 1_555
H6_17 C8_17 1_555 1_555
C9_17 C4_17 1_555 1_555
H7_17 C9_17 1_555 1_555
C10_20 H8_15 1_555 1_555
C11_18 N5_13 1_555 1_555
H9_18 C11_18 1_555 1_555
C12_18 N3_18 1_555 1_555
H10_18 C12_18 1_555 1_555
C13_17 N3_18 1_555 1_555
C14_15 C13_17 1_555 1_555
H11_15 C14_15 1_555 1_555
C15_17 C14_15 1_555 1_555
H12_15 C15_17 1_555 1_555
C16_17 O5_17 1_555 1_555
C17_17 C16_17 1_555 1_555
H13_17 C17_17 1_555 1_555
C18_17 C13_17 1_555 1_555
H14_18 C18_17 1_555 1_555
C2_20 C3_20 1_555 1_555
C8_17 C9_17 1_555 1_555
C11_18 C12_18 1_555 1_555
C15_17 C16_17 1_555 1_555
C17_17 C18_17 1_555 1_555
N4_8 C10_21 1_555 1_555
C10_21 H8_16 1_555 1_555
H11_16 C14_16 1_555 1_555
Co2_4 N4_8 1_555 1_555
N3_19 C10_22 1_555 1_555
N4_9 C10_22 1_555 1_555
O5_18 C7_18 1_555 1_555
H2_21 C2_21 1_555 1_555
C3_21 N1_21 1_555 1_555
H3_21 C3_21 1_555 1_555
C4_18 N1_21 1_555 1_555
C8_18 C7_18 1_555 1_555
H6_18 C8_18 1_555 1_555
C9_18 C4_18 1_555 1_555
H7_18 C9_18 1_555 1_555
C10_22 H8_17 1_555 1_555
C11_19 N4_9 1_555 1_555
H9_19 C11_19 1_555 1_555
C12_19 N3_19 1_555 1_555
H10_19 C12_19 1_555 1_555
C13_18 N3_19 1_555 1_555
C14_17 C13_18 1_555 1_555
H11_17 C14_17 1_555 1_555
C15_18 C14_17 1_555 1_555
H12_17 C15_18 1_555 1_555
C16_18 O5_18 1_555 1_555
C17_18 C16_18 1_555 1_555
H13_18 C17_18 1_555 1_555
C18_18 C13_18 1_555 1_555
H14_19 C18_18 1_555 1_555
Co2_5 N4_9 1_555 1_555
C2_21 C3_21 1_555 1_555
C8_18 C9_18 1_555 1_555
C11_19 C12_19 1_555 1_555
C15_18 C16_18 1_555 1_555
C17_18 C18_18 1_555 1_555
Co2_4 N2_21 1_555 1_555
N2_21 C1_21 1_555 1_555
O1_21 Co2_4 1_555 1_555
O2_21 C19_21 1_555 1_555
O3_11 C23_21 1_555 1_555
O4_11 C23_21 1_555 1_555
C1_21 H1_21 1_555 1_555
H4_18 C5_18 1_555 1_555
C6_18 C5_18 1_555 1_555
H5_18 C6_18 1_555 1_555
C19_21 O1_21 1_555 1_555
C20_21 C19_21 1_555 1_555
C21_21 C20_21 1_555 1_555
H15_21 C21_21 1_555 1_555
C22_21 C21_21 1_555 1_555
H16_21 C22_21 1_555 1_555
C23_21 C24_19 1_555 1_555
C24_19 C22_21 1_555 1_555
C25_19 C24_19 1_555 1_555
H17_19 C25_19 1_555 1_555
C26_19 C20_21 1_555 1_555
H18_19 C26_19 1_555 1_555
Co3_11 O3_11 1_555 1_555
O6_11 Co2_4 1_555 1_555
O7_11 Co2_4 1_555 1_555
O4_11 Co3_11 1_555 1_555
C25_19 C26_19 1_555 1_555
O3_12 C23_22 1_555 1_555
O4_12 C23_22 1_555 1_555
Co3_12 O3_12 1_555 1_555
O4_12 Co3_12 1_555 1_555
Co2_5 N2_22 1_555 1_555
N1_22 C1_22 1_555 1_555
N2_22 C1_22 1_555 1_555
O1_22 Co2_5 1_555 1_555
O2_22 C19_22 1_555 1_555
O5_19 C7_19 1_555 1_555
C1_22 H1_22 1_555 1_555
C2_22 N2_22 1_555 1_555
H2_22 C2_22 1_555 1_555
C3_22 N1_22 1_555 1_555
H3_22 C3_22 1_555 1_555
C4_19 N1_22 1_555 1_555
C5_19 C4_19 1_555 1_555
H4_19 C5_19 1_555 1_555
C6_19 C5_19 1_555 1_555
H5_19 C6_19 1_555 1_555
C7_19 C6_19 1_555 1_555
C8_19 C7_19 1_555 1_555
H6_19 C8_19 1_555 1_555
C9_19 C4_19 1_555 1_555
H7_19 C9_19 1_555 1_555
C14_18 C13_19 1_555 1_555
H11_18 C14_18 1_555 1_555
C15_19 C14_18 1_555 1_555
H12_18 C15_19 1_555 1_555
C16_19 O5_19 1_555 1_555
C17_19 C16_19 1_555 1_555
H13_19 C17_19 1_555 1_555
C18_19 C13_19 1_555 1_555
C19_22 O1_22 1_555 1_555
C20_22 C19_22 1_555 1_555
C21_22 C20_22 1_555 1_555
H15_22 C21_22 1_555 1_555
C22_22 C21_22 1_555 1_555
H16_22 C22_22 1_555 1_555
C24_20 C22_22 1_555 1_555
C25_20 C24_20 1_555 1_555
H17_20 C25_20 1_555 1_555
C26_20 C20_22 1_555 1_555
H18_20 C26_20 1_555 1_555
O6_12 Co2_5 1_555 1_555
O7_12 Co2_5 1_555 1_555
C2_22 C3_22 1_555 1_555
C8_19 C9_19 1_555 1_555
C15_19 C16_19 1_555 1_555
C17_19 C18_19 1_555 1_555
C25_20 C26_20 1_555 1_555
Co3_11 N2_23 1_555 1_555
N1_23 C1_23 1_555 1_555
N2_23 C1_23 1_555 1_555
N3_20 C10_23 1_555 1_555
N4_10 C10_23 1_555 1_555
O1_23 Co3_11 1_555 1_555
O5_20 C7_20 1_555 1_555
C1_23 H1_23 1_555 1_555
C2_23 N2_23 1_555 1_555
H2_23 C2_23 1_555 1_555
C3_23 N1_23 1_555 1_555
H3_23 C3_23 1_555 1_555
C4_20 N1_23 1_555 1_555
C5_20 C4_20 1_555 1_555
H4_20 C5_20 1_555 1_555
C6_20 C5_20 1_555 1_555
H5_20 C6_20 1_555 1_555
C7_20 C6_20 1_555 1_555
C8_20 C7_20 1_555 1_555
H6_20 C8_20 1_555 1_555
C9_20 C4_20 1_555 1_555
H7_20 C9_20 1_555 1_555
C10_23 H8_19 1_555 1_555
C11_20 N4_10 1_555 1_555
H9_20 C11_20 1_555 1_555
C12_20 N3_20 1_555 1_555
H10_20 C12_20 1_555 1_555
C13_20 N3_20 1_555 1_555
C14_19 C13_20 1_555 1_555
H11_19 C14_19 1_555 1_555
C15_20 C14_19 1_555 1_555
H12_19 C15_20 1_555 1_555
C16_20 O5_20 1_555 1_555
C17_20 C16_20 1_555 1_555
H13_20 C17_20 1_555 1_555
C18_20 C13_20 1_555 1_555
H14_20 C18_20 1_555 1_555
Co3_12 N4_10 1_555 1_555
N5_14 Co3_11 1_555 1_555
C2_23 C3_23 1_555 1_555
C8_20 C9_20 1_555 1_555
C11_20 C12_20 1_555 1_555
C15_20 C16_20 1_555 1_555
C17_20 C18_20 1_555 1_555
O6_11 C23_23 1_555 1_555
O7_11 C23_23 1_555 1_555
C20_23 C19_23 1_555 1_555
C21_23 C20_23 1_555 1_555
H15_23 C21_23 1_555 1_555
C22_23 C21_23 1_555 1_555
H16_23 C22_23 1_555 1_555
C23_23 C24_21 1_555 1_555
C24_21 C22_23 1_555 1_555
C25_21 C24_21 1_555 1_555
H17_21 C25_21 1_555 1_555
C26_21 C20_23 1_555 1_555
H18_21 C26_21 1_555 1_555
C25_21 C26_21 1_555 1_555
Co3_12 N2_24 1_555 1_555
N1_24 C1_24 1_555 1_555
N2_24 C1_24 1_555 1_555
O1_24 Co3_12 1_555 1_555
O2_24 C19_24 1_555 1_555
O6_12 C23_24 1_555 1_555
O7_12 C23_24 1_555 1_555
O5_21 C7_21 1_555 1_555
C1_24 H1_24 1_555 1_555
C2_24 N2_24 1_555 1_555
H2_24 C2_24 1_555 1_555
C3_24 N1_24 1_555 1_555
H3_24 C3_24 1_555 1_555
C4_21 N1_24 1_555 1_555
C5_21 C4_21 1_555 1_555
H4_21 C5_21 1_555 1_555
C6_21 C5_21 1_555 1_555
H5_21 C6_21 1_555 1_555
C7_21 C6_21 1_555 1_555
C8_21 C7_21 1_555 1_555
H6_21 C8_21 1_555 1_555
C9_21 C4_21 1_555 1_555
H7_21 C9_21 1_555 1_555
C16_21 O5_21 1_555 1_555
C17_21 C16_21 1_555 1_555
H13_21 C17_21 1_555 1_555
C18_21 C13_21 1_555 1_555
C19_24 O1_24 1_555 1_555
C20_24 C19_24 1_555 1_555
C21_24 C20_24 1_555 1_555
H15_24 C21_24 1_555 1_555
C22_24 C21_24 1_555 1_555
H16_24 C22_24 1_555 1_555
C23_24 C24_22 1_555 1_555
C24_22 C22_24 1_555 1_555
C25_22 C24_22 1_555 1_555
H17_22 C25_22 1_555 1_555
C26_22 C20_24 1_555 1_555
H18_22 C26_22 1_555 1_555
C2_24 C3_24 1_555 1_555
C8_21 C9_21 1_555 1_555
C15_21 C16_21 1_555 1_555
C17_21 C18_21 1_555 1_555
C25_22 C26_22 1_555 1_555
N3_21 C10_24 1_555 1_555
N5_14 C10_24 1_555 1_555
C11_21 N5_14 1_555 1_555
H9_21 C11_21 1_555 1_555
C12_21 N3_21 1_555 1_555
H10_21 C12_21 1_555 1_555
C11_21 C12_21 1_555 1_555
O3_13 C23_25 1_555 1_555
O4_13 C23_25 1_555 1_555
C20_25 C19_25 1_555 1_555
C21_25 C20_25 1_555 1_555
H15_25 C21_25 1_555 1_555
C22_25 C21_25 1_555 1_555
H16_25 C22_25 1_555 1_555
C23_25 C24_23 1_555 1_555
C24_23 C22_25 1_555 1_555
C25_23 C24_23 1_555 1_555
H17_23 C25_23 1_555 1_555
C26_23 C20_25 1_555 1_555
H18_23 C26_23 1_555 1_555
Co3_13 O3_13 1_555 1_555
O4_13 Co3_13 1_555 1_555
C25_23 C26_23 1_555 1_555
Co1_8 N2_25 1_555 1_555
N1_25 C1_25 1_555 1_555
N2_25 C1_25 1_555 1_555
N3_22 C10_25 1_555 1_555
N4_11 C10_25 1_555 1_555
O1_25 Co1_8 1_555 1_555
O5_22 C7_22 1_555 1_555
C1_25 H1_25 1_555 1_555
C2_25 N2_25 1_555 1_555
H2_25 C2_25 1_555 1_555
C3_25 N1_25 1_555 1_555
H3_25 C3_25 1_555 1_555
C4_22 N1_25 1_555 1_555
C5_22 C4_22 1_555 1_555
H4_22 C5_22 1_555 1_555
C6_22 C5_22 1_555 1_555
H5_22 C6_22 1_555 1_555
C7_22 C6_22 1_555 1_555
C8_22 C7_22 1_555 1_555
H6_22 C8_22 1_555 1_555
C9_22 C4_22 1_555 1_555
H7_22 C9_22 1_555 1_555
C10_25 H8_20 1_555 1_555
C11_22 N4_11 1_555 1_555
H9_22 C11_22 1_555 1_555
C12_22 N3_22 1_555 1_555
H10_22 C12_22 1_555 1_555
C13_22 N3_22 1_555 1_555
C14_20 C13_22 1_555 1_555
H11_20 C14_20 1_555 1_555
C15_22 C14_20 1_555 1_555
H12_20 C15_22 1_555 1_555
C16_22 O5_22 1_555 1_555
C17_22 C16_22 1_555 1_555
H13_22 C17_22 1_555 1_555
C18_22 C13_22 1_555 1_555
H14_22 C18_22 1_555 1_555
Co2_6 N4_11 1_555 1_555
N5_15 Co1_8 1_555 1_555
O6_13 Co1_8 1_555 1_555
O7_13 Co1_8 1_555 1_555
C2_25 C3_25 1_555 1_555
C8_22 C9_22 1_555 1_555
C11_22 C12_22 1_555 1_555
C15_22 C16_22 1_555 1_555
C17_22 C18_22 1_555 1_555
Co2_6 N2_26 1_555 1_555
N1_26 C1_26 1_555 1_555
N2_26 C1_26 1_555 1_555
O1_26 Co2_6 1_555 1_555
O2_26 C19_26 1_555 1_555
O3_14 C23_26 1_555 1_555
O4_14 C23_26 1_555 1_555
O5_23 C7_23 1_555 1_555
C1_26 H1_26 1_555 1_555
C2_26 N2_26 1_555 1_555
H2_26 C2_26 1_555 1_555
C3_26 N1_26 1_555 1_555
H3_26 C3_26 1_555 1_555
C4_23 N1_26 1_555 1_555
C5_23 C4_23 1_555 1_555
H4_23 C5_23 1_555 1_555
C6_23 C5_23 1_555 1_555
H5_23 C6_23 1_555 1_555
C7_23 C6_23 1_555 1_555
C8_23 C7_23 1_555 1_555
H6_23 C8_23 1_555 1_555
C9_23 C4_23 1_555 1_555
H7_23 C9_23 1_555 1_555
C16_23 O5_23 1_555 1_555
C17_23 C16_23 1_555 1_555
H13_23 C17_23 1_555 1_555
C18_23 C13_23 1_555 1_555
C19_26 O1_26 1_555 1_555
C20_26 C19_26 1_555 1_555
C21_26 C20_26 1_555 1_555
H15_26 C21_26 1_555 1_555
C22_26 C21_26 1_555 1_555
H16_26 C22_26 1_555 1_555
C23_26 C24_24 1_555 1_555
C24_24 C22_26 1_555 1_555
C25_24 C24_24 1_555 1_555
H17_24 C25_24 1_555 1_555
C26_24 C20_26 1_555 1_555
H18_24 C26_24 1_555 1_555
Co3_14 O3_14 1_555 1_555
O6_14 Co2_6 1_555 1_555
O7_14 Co2_6 1_555 1_555
O4_14 Co3_14 1_555 1_555
C2_26 C3_26 1_555 1_555
C8_23 C9_23 1_555 1_555
C15_23 C16_23 1_555 1_555
C17_23 C18_23 1_555 1_555
C25_24 C26_24 1_555 1_555
N3_23 C10_26 1_555 1_555
N5_15 C10_26 1_555 1_555
C11_23 N5_15 1_555 1_555
H9_23 C11_23 1_555 1_555
C12_23 N3_23 1_555 1_555
H10_23 C12_23 1_555 1_555
C11_23 C12_23 1_555 1_555
N4_12 C10_27 1_555 1_555
C10_27 H8_21 1_555 1_555
H11_21 C14_21 1_555 1_555
Co3_13 N4_12 1_555 1_555
N3_24 C10_28 1_555 1_555
N4_13 C10_28 1_555 1_555
O5_24 C7_24 1_555 1_555
H2_27 C2_27 1_555 1_555
C3_27 N1_27 1_555 1_555
H3_27 C3_27 1_555 1_555
C4_24 N1_27 1_555 1_555
C8_24 C7_24 1_555 1_555
H6_24 C8_24 1_555 1_555
C9_24 C4_24 1_555 1_555
H7_24 C9_24 1_555 1_555
C10_28 H8_22 1_555 1_555
C11_24 N4_13 1_555 1_555
H9_24 C11_24 1_555 1_555
C12_24 N3_24 1_555 1_555
H10_24 C12_24 1_555 1_555
C13_24 N3_24 1_555 1_555
C14_22 C13_24 1_555 1_555
H11_22 C14_22 1_555 1_555
C15_24 C14_22 1_555 1_555
H12_22 C15_24 1_555 1_555
C16_24 O5_24 1_555 1_555
C17_24 C16_24 1_555 1_555
H13_24 C17_24 1_555 1_555
C18_24 C13_24 1_555 1_555
H14_24 C18_24 1_555 1_555
Co3_14 N4_13 1_555 1_555
C2_27 C3_27 1_555 1_555
C8_24 C9_24 1_555 1_555
C11_24 C12_24 1_555 1_555
C15_24 C16_24 1_555 1_555
C17_24 C18_24 1_555 1_555
Co3_13 N2_27 1_555 1_555
N2_27 C1_27 1_555 1_555
O1_27 Co3_13 1_555 1_555
O2_27 C19_27 1_555 1_555
O6_13 C23_27 1_555 1_555
O7_13 C23_27 1_555 1_555
C1_27 H1_27 1_555 1_555
H4_24 C5_24 1_555 1_555
C6_24 C5_24 1_555 1_555
H5_24 C6_24 1_555 1_555
C19_27 O1_27 1_555 1_555
C20_27 C19_27 1_555 1_555
C21_27 C20_27 1_555 1_555
H15_27 C21_27 1_555 1_555
C22_27 C21_27 1_555 1_555
H16_27 C22_27 1_555 1_555
C23_27 C24_25 1_555 1_555
C24_25 C22_27 1_555 1_555
C25_25 C24_25 1_555 1_555
H17_25 C25_25 1_555 1_555
C26_25 C20_27 1_555 1_555
H18_25 C26_25 1_555 1_555
C25_25 C26_25 1_555 1_555
Co3_14 N2_28 1_555 1_555
N1_28 C1_28 1_555 1_555
N2_28 C1_28 1_555 1_555
O1_28 Co3_14 1_555 1_555
O2_28 C19_28 1_555 1_555
O5_25 C7_25 1_555 1_555
C1_28 H1_28 1_555 1_555
C2_28 N2_28 1_555 1_555
H2_28 C2_28 1_555 1_555
C3_28 N1_28 1_555 1_555
H3_28 C3_28 1_555 1_555
C4_25 N1_28 1_555 1_555
C5_25 C4_25 1_555 1_555
H4_25 C5_25 1_555 1_555
C6_25 C5_25 1_555 1_555
H5_25 C6_25 1_555 1_555
C7_25 C6_25 1_555 1_555
C8_25 C7_25 1_555 1_555
H6_25 C8_25 1_555 1_555
C9_25 C4_25 1_555 1_555
H7_25 C9_25 1_555 1_555
C14_23 C13_25 1_555 1_555
H11_23 C14_23 1_555 1_555
C15_25 C14_23 1_555 1_555
H12_23 C15_25 1_555 1_555
C16_25 O5_25 1_555 1_555
C17_25 C16_25 1_555 1_555
H13_25 C17_25 1_555 1_555
C18_25 C13_25 1_555 1_555
C19_28 O1_28 1_555 1_555
C20_28 C19_28 1_555 1_555
C21_28 C20_28 1_555 1_555
H15_28 C21_28 1_555 1_555
C22_28 C21_28 1_555 1_555
H16_28 C22_28 1_555 1_555
C24_26 C22_28 1_555 1_555
C25_26 C24_26 1_555 1_555
H17_26 C25_26 1_555 1_555
C26_26 C20_28 1_555 1_555
H18_26 C26_26 1_555 1_555
C2_28 C3_28 1_555 1_555
C8_25 C9_25 1_555 1_555
C15_25 C16_25 1_555 1_555
C17_25 C18_25 1_555 1_555
C25_26 C26_26 1_555 1_555
O6_14 C23_28 1_555 1_555
O7_14 C23_28 1_555 1_555
N3_25 C10_29 1_555 1_555
N4_14 C10_29 1_555 1_555
O5_26 C7_26 1_555 1_555
H2_29 C2_29 1_555 1_555
C3_29 N1_29 1_555 1_555
H3_29 C3_29 1_555 1_555
C4_26 N1_29 1_555 1_555
C8_26 C7_26 1_555 1_555
H6_26 C8_26 1_555 1_555
C9_26 C4_26 1_555 1_555
H7_26 C9_26 1_555 1_555
C10_29 H8_24 1_555 1_555
C11_25 N4_14 1_555 1_555
H9_25 C11_25 1_555 1_555
C12_25 N3_25 1_555 1_555
H10_25 C12_25 1_555 1_555
C13_26 N3_25 1_555 1_555
C14_24 C13_26 1_555 1_555
H11_24 C14_24 1_555 1_555
C15_26 C14_24 1_555 1_555
H12_24 C15_26 1_555 1_555
C16_26 O5_26 1_555 1_555
C17_26 C16_26 1_555 1_555
H13_26 C17_26 1_555 1_555
C18_26 C13_26 1_555 1_555
H14_25 C18_26 1_555 1_555
Co2_7 N4_14 1_555 1_555
C2_29 C3_29 1_555 1_555
C8_26 C9_26 1_555 1_555
C11_25 C12_25 1_555 1_555
C15_26 C16_26 1_555 1_555
C17_26 C18_26 1_555 1_555
N4_15 C10_30 1_555 1_555
C10_30 H8_25 1_555 1_555
H11_25 C14_25 1_555 1_555
Co2_8 N4_15 1_555 1_555
Co2_8 N2_29 1_555 1_555
N2_29 C1_29 1_555 1_555
O1_29 Co2_8 1_555 1_555
O2_29 C19_29 1_555 1_555
O3_15 C23_29 1_555 1_555
O4_15 C23_29 1_555 1_555
C1_29 H1_29 1_555 1_555
H4_26 C5_26 1_555 1_555
C6_26 C5_26 1_555 1_555
H5_26 C6_26 1_555 1_555
C19_29 O1_29 1_555 1_555
C20_29 C19_29 1_555 1_555
C21_29 C20_29 1_555 1_555
H15_29 C21_29 1_555 1_555
C22_29 C21_29 1_555 1_555
H16_29 C22_29 1_555 1_555
C23_29 C24_27 1_555 1_555
C24_27 C22_29 1_555 1_555
C25_27 C24_27 1_555 1_555
H17_27 C25_27 1_555 1_555
C26_27 C20_29 1_555 1_555
H18_27 C26_27 1_555 1_555
Co3_15 O3_15 1_555 1_555
O6_15 Co2_8 1_555 1_555
O7_15 Co2_8 1_555 1_555
O4_15 Co3_15 1_555 1_555
C25_27 C26_27 1_555 1_555
O3_16 C23_30 1_555 1_555
O4_16 C23_30 1_555 1_555
Co3_16 O3_16 1_555 1_555
O4_16 Co3_16 1_555 1_555
Co2_7 N2_30 1_555 1_555
N1_30 C1_30 1_555 1_555
N2_30 C1_30 1_555 1_555
O1_30 Co2_7 1_555 1_555
O2_30 C19_30 1_555 1_555
C1_30 H1_30 1_555 1_555
C2_30 N2_30 1_555 1_555
H2_30 C2_30 1_555 1_555
C3_30 N1_30 1_555 1_555
H3_30 C3_30 1_555 1_555
C19_30 O1_30 1_555 1_555
C20_30 C19_30 1_555 1_555
C21_30 C20_30 1_555 1_555
H15_30 C21_30 1_555 1_555
C22_30 C21_30 1_555 1_555
H16_30 C22_30 1_555 1_555
C24_28 C22_30 1_555 1_555
C25_28 C24_28 1_555 1_555
H17_28 C25_28 1_555 1_555
C26_28 C20_30 1_555 1_555
H18_28 C26_28 1_555 1_555
O6_16 Co2_7 1_555 1_555
O7_16 Co2_7 1_555 1_555
C2_30 C3_30 1_555 1_555
C25_28 C26_28 1_555 1_555
O6_15 C23_31 1_555 1_555
O7_15 C23_31 1_555 1_555
C20_31 C19_31 1_555 1_555
C21_31 C20_31 1_555 1_555
H15_31 C21_31 1_555 1_555
C22_31 C21_31 1_555 1_555
H16_31 C22_31 1_555 1_555
C23_31 C24_29 1_555 1_555
C24_29 C22_31 1_555 1_555
C25_29 C24_29 1_555 1_555
H17_29 C25_29 1_555 1_555
C26_29 C20_31 1_555 1_555
H18_29 C26_29 1_555 1_555
C25_29 C26_29 1_555 1_555
Co3_15 N2_31 1_555 1_555
N1_31 C1_31 1_555 1_555
N2_31 C1_31 1_555 1_555
N3_26 C10_31 1_555 1_555
N4_16 C10_31 1_555 1_555
O1_31 Co3_15 1_555 1_555
O5_27 C7_27 1_555 1_555
C1_31 H1_31 1_555 1_555
C2_31 N2_31 1_555 1_555
H2_31 C2_31 1_555 1_555
C3_31 N1_31 1_555 1_555
H3_31 C3_31 1_555 1_555
C4_27 N1_31 1_555 1_555
C5_27 C4_27 1_555 1_555
H4_27 C5_27 1_555 1_555
C6_27 C5_27 1_555 1_555
H5_27 C6_27 1_555 1_555
C7_27 C6_27 1_555 1_555
C8_27 C7_27 1_555 1_555
H6_27 C8_27 1_555 1_555
C9_27 C4_27 1_555 1_555
H7_27 C9_27 1_555 1_555
C10_31 H8_26 1_555 1_555
C11_26 N4_16 1_555 1_555
H9_26 C11_26 1_555 1_555
C12_26 N3_26 1_555 1_555
H10_26 C12_26 1_555 1_555
C13_27 N3_26 1_555 1_555
C14_26 C13_27 1_555 1_555
H11_26 C14_26 1_555 1_555
C15_27 C14_26 1_555 1_555
H12_26 C15_27 1_555 1_555
C16_27 O5_27 1_555 1_555
C17_27 C16_27 1_555 1_555
H13_27 C17_27 1_555 1_555
C18_27 C13_27 1_555 1_555
H14_26 C18_27 1_555 1_555
Co3_16 N4_16 1_555 1_555
N5_16 Co3_15 1_555 1_555
C2_31 C3_31 1_555 1_555
C8_27 C9_27 1_555 1_555
C11_26 C12_26 1_555 1_555
C15_27 C16_27 1_555 1_555
C17_27 C18_27 1_555 1_555
Co3_16 N2_32 1_555 1_555
N1_32 C1_32 1_555 1_555
N2_32 C1_32 1_555 1_555
O1_32 Co3_16 1_555 1_555
O2_32 C19_32 1_555 1_555
O6_16 C23_32 1_555 1_555
O7_16 C23_32 1_555 1_555
C1_32 H1_32 1_555 1_555
C2_32 N2_32 1_555 1_555
H2_32 C2_32 1_555 1_555
C3_32 N1_32 1_555 1_555
H3_32 C3_32 1_555 1_555
C19_32 O1_32 1_555 1_555
C20_32 C19_32 1_555 1_555
C21_32 C20_32 1_555 1_555
H15_32 C21_32 1_555 1_555
C22_32 C21_32 1_555 1_555
H16_32 C22_32 1_555 1_555
C23_32 C24_30 1_555 1_555
C24_30 C22_32 1_555 1_555
C25_30 C24_30 1_555 1_555
H17_30 C25_30 1_555 1_555
C26_30 C20_32 1_555 1_555
H18_30 C26_30 1_555 1_555
C2_32 C3_32 1_555 1_555
C25_30 C26_30 1_555 1_555
N3_27 C10_32 1_555 1_555
N5_16 C10_32 1_555 1_555
C11_27 N5_16 1_555 1_555
H9_27 C11_27 1_555 1_555
C12_27 N3_27 1_555 1_555
H10_27 C12_27 1_555 1_555
C11_27 C12_27 1_555 1_555
H11_27 C14_27 1_555 1_555
O5_28 C7_28 1_555 1_555
C5_28 C4_28 1_555 1_555
H4_28 C5_28 1_555 1_555
C6_28 C5_28 1_555 1_555
H5_28 C6_28 1_555 1_555
C7_28 C6_28 1_555 1_555
C8_28 C7_28 1_555 1_555
H6_28 C8_28 1_555 1_555
C9_28 C4_28 1_555 1_555
H7_28 C9_28 1_555 1_555
C16_28 O5_28 1_555 1_555
C17_28 C16_28 1_555 1_555
H13_28 C17_28 1_555 1_555
C18_28 C13_28 1_555 1_555
C8_28 C9_28 1_555 1_555
C15_28 C16_28 1_555 1_555
C17_28 C18_28 1_555 1_555
H9_28 C11_28 1_555 1_555
C12_28 N3_28 1_555 1_555
H10_28 C12_28 1_555 1_555
C11_28 C12_28 1_555 1_555
H11_28 C14_28 1_555 1_555
H9_29 C11_29 1_555 1_555
C12_29 N3_29 1_555 1_555
H10_29 C12_29 1_555 1_555
C11_29 C12_29 1_555 1_555
O5_29 C7_29 1_555 1_555
C5_29 C4_29 1_555 1_555
H4_29 C5_29 1_555 1_555
C6_29 C5_29 1_555 1_555
H5_29 C6_29 1_555 1_555
C7_29 C6_29 1_555 1_555
C8_29 C7_29 1_555 1_555
H6_29 C8_29 1_555 1_555
C9_29 C4_29 1_555 1_555
H7_29 C9_29 1_555 1_555
C14_29 C13_29 1_555 1_555
H11_29 C14_29 1_555 1_555
C15_29 C14_29 1_555 1_555
H12_29 C15_29 1_555 1_555
C16_29 O5_29 1_555 1_555
C17_29 C16_29 1_555 1_555
H13_29 C17_29 1_555 1_555
C18_29 C13_29 1_555 1_555
C8_29 C9_29 1_555 1_555
C15_29 C16_29 1_555 1_555
C17_29 C18_29 1_555 1_555
C25_31 C24_31 1_555 1_555
H17_31 C25_31 1_555 1_555
H18_31 C26_31 1_555 1_555
C25_31 C26_31 1_555 1_555
C25_32 C24_32 1_555 1_555
H17_32 C25_32 1_555 1_555
H18_32 C26_32 1_555 1_555
C25_32 C26_32 1_555 1_555
O5_30 C7_30 1_555 1_555
C5_30 C4_30 1_555 1_555
H4_30 C5_30 1_555 1_555
C6_30 C5_30 1_555 1_555
H5_30 C6_30 1_555 1_555
C7_30 C6_30 1_555 1_555
C8_30 C7_30 1_555 1_555
H6_30 C8_30 1_555 1_555
C9_30 C4_30 1_555 1_555
H7_30 C9_30 1_555 1_555
H9_30 C11_30 1_555 1_555
C12_30 N3_30 1_555 1_555
H10_30 C12_30 1_555 1_555
C13_30 N3_30 1_555 1_555
C16_30 O5_30 1_555 1_555
C17_30 C16_30 1_555 1_555
H13_30 C17_30 1_555 1_555
C18_30 C13_30 1_555 1_555
H14_30 C18_30 1_555 1_555
C8_30 C9_30 1_555 1_555
C11_30 C12_30 1_555 1_555
C15_30 C16_30 1_555 1_555
C17_30 C18_30 1_555 1_555
H9_31 C11_31 1_555 1_555
C12_31 N3_31 1_555 1_555
H10_31 C12_31 1_555 1_555
C11_31 C12_31 1_555 1_555
O5_31 C7_31 1_555 1_555
C5_31 C4_31 1_555 1_555
H4_31 C5_31 1_555 1_555
C6_31 C5_31 1_555 1_555
H5_31 C6_31 1_555 1_555
C7_31 C6_31 1_555 1_555
C8_31 C7_31 1_555 1_555
H6_31 C8_31 1_555 1_555
C9_31 C4_31 1_555 1_555
H7_31 C9_31 1_555 1_555
C16_31 O5_31 1_555 1_555
C17_31 C16_31 1_555 1_555
H13_31 C17_31 1_555 1_555
C18_31 C13_31 1_555 1_555
C8_31 C9_31 1_555 1_555
C15_31 C16_31 1_555 1_555
C17_31 C18_31 1_555 1_555
H11_30 C14_30 1_555 1_555
H9_32 C11_32 1_555 1_555
C12_32 N3_32 1_555 1_555
H10_32 C12_32 1_555 1_555
C11_32 C12_32 1_555 1_555
H11_31 C14_31 1_555 1_555
O5_32 C7_32 1_555 1_555
C5_32 C4_32 1_555 1_555
H4_32 C5_32 1_555 1_555
C6_32 C5_32 1_555 1_555
H5_32 C6_32 1_555 1_555
C7_32 C6_32 1_555 1_555
C8_32 C7_32 1_555 1_555
H6_32 C8_32 1_555 1_555
C9_32 C4_32 1_555 1_555
H7_32 C9_32 1_555 1_555
C14_32 C13_32 1_555 1_555
H11_32 C14_32 1_555 1_555
C15_32 C14_32 1_555 1_555
H12_32 C15_32 1_555 1_555
C16_32 O5_32 1_555 1_555
C17_32 C16_32 1_555 1_555
H13_32 C17_32 1_555 1_555
C18_32 C13_32 1_555 1_555
C8_32 C9_32 1_555 1_555
C15_32 C16_32 1_555 1_555
C17_32 C18_32 1_555 1_555

#END
