
###############################################################################
#
# This file contains modified crystal structure data generated from the
# MOF subset of the Cambridge Structural Database (CSD) v543 
# hosted by the Cambridge Crystallographic Data Centre (CCDC).
#
# This work is licensed under the Creative Commons
# Attribution-NonCommercial-ShareAlike 4.0 International License.
# To view a copy of this license, visit
# http://creativecommons.org/licenses/by-nc-sa/4.0/
# or send a letter to
# Creative Commons, PO Box 1866, Mountain View, CA 94042, USA.
#
# CIF created using the CSD Python API on 29 September 2022
# The structure has been converted into the P1 space group
# The structure has a 3D framework
# The original CSD entry KOGSOQ is in the monoclinic crystal system
# The framework has been calculated to contain at least 10.0% void space
# The void calculation uses a probe of radius 1.32A, grid spacing 0.4
#
###############################################################################

data_KOGSOQ
_chemical_formula_moiety         '(C208 H128 N16 O48 Zn12)n'
_symmetry_cell_setting           triclinic
_symmetry_space_group_name_H-M   'P 1'
_symmetry_Int_Tables_number      1
_space_group_name_Hall           'P 1'
loop_
_symmetry_equiv_pos_site_id
_symmetry_equiv_pos_as_xyz
1 x,y,z
_cell_length_a                   14.1046(5)
_cell_length_b                   19.9260(7)
_cell_length_c                   25.9898(9)
_cell_angle_alpha                90
_cell_angle_beta                 90.0050(10)
_cell_angle_gamma                90
_cell_volume                     7304.39
loop_
_atom_site_label
_atom_site_type_symbol
_atom_site_fract_x
_atom_site_fract_y
_atom_site_fract_z
O14 O 0.0433(3) 0.40936(18) 0.57615(13)
O16 O 0.0392(3) 0.40724(18) 0.70590(13)
Zn4 Zn 0.00009(4) 0.25002(2) 0.640622(17)
C21 C 0.2729(4) 0.1727(3) 0.6486(2)
C22 C 0.1796(4) 0.1397(3) 0.6445(2)
C23 C 0.3555(5) 0.1354(4) 0.6563(4)
H13 H 0.3514 0.0884 0.6591
C24 C 0.4413(5) 0.1653(3) 0.6599(4)
H14 H 0.4950 0.1389 0.6670
C25 C 0.4520(4) 0.2338(3) 0.6534(3)
C26 C 0.3703(4) 0.2706(3) 0.6450(3)
H15 H 0.3743 0.3173 0.6405
C27 C 0.2836(4) 0.2397(3) 0.6432(3)
H16 H 0.2293 0.2662 0.6381
C32 C 0.5581(5) 0.3355(3) 0.6598(4)
H21 H 0.5045 0.3625 0.6658
C33 C 0.6293(4) 0.2298(3) 0.6457(3)
H22 H 0.6253 0.1830 0.6416
C34 C 0.6449(5) 0.3641(4) 0.6571(4)
H23 H 0.6499 0.4109 0.6609
C35 C 0.7170(4) 0.2604(3) 0.6435(3)
H24 H 0.7713 0.2339 0.6380
C36 C 0.7269(4) 0.3269(3) 0.6489(2)
C37 C 0.8201(4) 0.3600(3) 0.6445(2)
C38 C 0.5475(4) 0.2660(3) 0.6537(3)
O8 O 0.1719(3) 0.07681(19) 0.6463(2)
O9 O 0.1060(3) 0.17362(17) 0.63937(15)
O10 O 0.8291(3) 0.42258(19) 0.6466(2)
O11 O 0.8938(3) 0.32693(17) 0.63894(15)
Zn1 Zn 0.02442(4) 0.07819(2) 0.640805(18)
Zn3 Zn 0.97560(4) 0.42185(2) 0.640682(18)
N5 N 0.9896(4) 0.5253(2) 0.64269(18)
O13 O 0.0720(3) 0.29956(19) 0.58354(14)
O15 O 0.0744(3) 0.2982(2) 0.69730(14)
H27 H 0.6459 0.2447 0.0046
C45 C 0.6317(4) 0.1442(3) 0.01112(19)
H28 H 0.6298 0.0434 0.0005
C47 C 0.5782(4) 0.1464(3) 0.06083(19)
O3 O 0.5720(3) 0.20044(19) 0.08354(14)
O4 O 0.5433(3) 0.09064(18) 0.07615(13)
Zn6 Zn 0.50009(4) 0.24998(2) 0.140622(17)
Zn9 Zn 0.47560(4) 0.07815(2) 0.140682(18)
C1 C 0.8683(4) 0.1448(3) 0.51092(19)
C2 C 0.8377(5) 0.2037(3) 0.4890(2)
H1 H 0.8488 0.2448 0.5057
C3 C 0.7913(5) 0.2028(3) 0.4428(2)
H2 H 0.7715 0.2437 0.4283
C4 C 0.8021(5) 0.0844(3) 0.4396(2)
H3 H 0.7884 0.0433 0.4236
C5 C 0.7722(4) 0.1437(3) 0.4167(2)
C6 C 0.8715(4) 0.1460(3) 0.77097(19)
C7 C 0.8177(6) 0.0874(3) 0.8460(2)
H4 H 0.8133 0.0470 0.8647
C8 C 0.8642(6) 0.0873(3) 0.7996(2)
H5 H 0.8913 0.0474 0.7871
C9 C 0.8266(6) 0.2005(3) 0.7890(3)
H6 H 0.8274 0.2403 0.7696
C10 C 0.7791(6) 0.1995(3) 0.8357(3)
H7 H 0.7471 0.2383 0.8467
C11 C 0.9241(4) 0.1479(3) 0.72093(19)
C12 C 0.6275(4) 0.1453(3) 0.27093(19)
C13 C 0.5763(4) 0.1474(3) 0.22091(19)
C19 C 0.8513(5) 0.0843(3) 0.4852(2)
H12 H 0.8735 0.0436 0.4990
C20 C 0.9222(4) 0.1462(3) 0.56102(18)
C28 C 0.7197(7) 0.2002(3) 0.3361(3)
H17 H 0.7498 0.2395 0.3476
C29 C 0.6831(6) 0.0874(3) 0.3453(2)
H18 H 0.6900 0.0465 0.3629
C30 C 0.6741(6) 0.2003(4) 0.2892(3)
H19 H 0.6751 0.2396 0.2692
C31 C 0.6344(6) 0.0880(3) 0.3000(2)
H20 H 0.6050 0.0484 0.2884
C39 C 0.7221(5) 0.1436(3) 0.3662(2)
C40 C 0.7777(5) 0.1438(3) 0.8659(2)
C41 C 0.7275(4) 0.1440(3) 0.9168(2)
C42 C 0.7100(5) 0.2035(3) 0.9427(2)
H25 H 0.7321 0.2443 0.9289
C43 C 0.6977(5) 0.0842(3) 0.9394(2)
H26 H 0.7103 0.0432 0.9228
C44 C 0.6603(5) 0.2037(3) 0.9886(2)
C46 C 0.6499(5) 0.0842(3) 0.9859(2)
O1 O 0.9608(3) 0.09319(18) 0.70629(13)
O2 O 0.9260(3) 0.20166(19) 0.69748(14)
O5 O 0.9567(3) 0.09076(18) 0.57612(13)
O6 O 0.5744(3) 0.2018(2) 0.19730(14)
O7 O 0.5392(3) 0.09276(18) 0.20590(13)
O12 O 0.9281(3) 0.20061(19) 0.58342(14)
C14 C 0.9762(5) 0.9399(3) 0.6029(3)
H8 H 0.9564 0.9633 0.5734
C15 C 0.9680(6) 0.8705(3) 0.6039(4)
H9 H 0.9398 0.8475 0.5762
C48 C 0.9985(7) 0.6637(4) 0.6463(5)
C50 C 0.9623(7) 0.6285(4) 0.6847(4)
H30 H 0.9379 0.6509 0.7137
C51 C 0.9600(7) 0.5596(3) 0.6827(3)
H31 H 0.9363 0.5360 0.7112
N4 N 0.9988(16) 0.7697(4) 0.6641(7)
C32_2 C 0.0581(5) 0.1645(3) 0.1598(4)
H21_2 H 0.0045 0.1375 0.1658
C33_2 C 0.1293(4) 0.2702(3) 0.1457(3)
H22_2 H 0.1253 0.3170 0.1416
C34_2 C 0.1449(5) 0.1359(4) 0.1571(4)
H23_2 H 0.1499 0.0891 0.1609
C35_2 C 0.2170(4) 0.2396(3) 0.1435(3)
H24_2 H 0.2713 0.2661 0.1380
C36_2 C 0.2269(4) 0.1731(3) 0.1489(2)
C37_2 C 0.3201(4) 0.1400(3) 0.1445(2)
C38_2 C 0.0475(4) 0.2340(3) 0.1537(3)
O10_2 O 0.3291(3) 0.07742(19) 0.1466(2)
O11_2 O 0.3938(3) 0.17307(17) 0.13894(15)
N5_2 N 0.4896(4) 0.9747(2) 0.14269(18)
C1_2 C 0.3683(4) 0.3552(3) 0.01092(19)
H1_2 H 0.3488 0.2552 0.0057
C6_2 C 0.3715(4) 0.3540(3) 0.27097(19)
C7_2 C 0.3177(6) 0.4126(3) 0.3460(2)
H4_2 H 0.3133 0.4530 0.3647
C8_2 C 0.3642(6) 0.4127(3) 0.2996(2)
H5_2 H 0.3913 0.4526 0.2871
C9_2 C 0.3266(6) 0.2995(3) 0.2890(3)
H6_2 H 0.3274 0.2597 0.2696
C10_2 C 0.2791(6) 0.3005(3) 0.3357(3)
H7_2 H 0.2471 0.2617 0.3467
C11_2 C 0.4241(4) 0.3521(3) 0.22093(19)
C14_2 C 0.4762(5) 0.5601(3) 0.1029(3)
H8_2 H 0.4564 0.5367 0.0734
C15_2 C 0.4680(6) 0.6295(3) 0.1039(4)
H9_2 H 0.4398 0.6525 0.0762
C16 C 0.5016(7) 0.6640(3) 0.1459(5)
C17 C 0.5385(7) 0.6290(4) 0.1843(4)
H10 H 0.5622 0.6517 0.2133
C18 C 0.5428(6) 0.5595(3) 0.1825(3)
H11 H 0.5687 0.5362 0.2106
C20_2 C 0.4222(4) 0.3538(3) 0.06102(18)
C21_2 C 0.7729(4) 0.3273(3) 0.1486(2)
C22_2 C 0.6796(4) 0.3603(3) 0.1445(2)
C23_2 C 0.8555(5) 0.3646(4) 0.1563(4)
H13_2 H 0.8514 0.4116 0.1591
C24_2 C 0.9413(5) 0.3347(3) 0.1599(4)
H14_2 H 0.9950 0.3611 0.1670
C25_2 C 0.9520(4) 0.2662(3) 0.1534(3)
C26_2 C 0.8703(4) 0.2294(3) 0.1450(3)
H15_2 H 0.8743 0.1827 0.1405
C27_2 C 0.7836(4) 0.2603(3) 0.1432(3)
H16_2 H 0.7293 0.2338 0.1381
C40_2 C 0.2777(5) 0.3562(3) 0.3659(2)
C41_2 C 0.2275(4) 0.3560(3) 0.4168(2)
C42_2 C 0.2100(5) 0.2965(3) 0.4427(2)
H25_2 H 0.2321 0.2557 0.4289
C43_2 C 0.1977(5) 0.4158(3) 0.4394(2)
H26_2 H 0.2103 0.4568 0.4228
C44_2 C 0.1603(5) 0.2963(3) 0.4886(2)
H27_2 H 0.1459 0.2553 0.5046
C45_2 C 0.1317(4) 0.3558(3) 0.51112(19)
C46_2 C 0.1499(5) 0.4158(3) 0.4859(2)
H28_2 H 0.1298 0.4566 0.5005
C47_2 C 0.0782(4) 0.3536(3) 0.56083(19)
C48_2 C 0.4985(7) 0.8363(4) 0.1463(5)
C49 C 0.5293(6) 0.8698(4) 0.1048(4)
H29 H 0.5545 0.8463 0.0765
C50_2 C 0.4623(7) 0.8715(4) 0.1847(4)
H30_2 H 0.4379 0.8491 0.2137
C51_2 C 0.4600(7) 0.9404(3) 0.1827(3)
H31_2 H 0.4363 0.9640 0.2112
C52 C 0.5239(5) 0.9391(3) 0.1039(3)
H32 H 0.5456 0.9619 0.0745
N2 N 0.5122(4) 0.5253(2) 0.1431(2)
N3 N 0.5101(16) 0.7684(4) 0.1339(8)
N4_2 N 0.4988(16) 0.7303(4) 0.1641(7)
O1_2 O 0.4608(3) 0.40681(18) 0.20629(13)
O2_2 O 0.4260(3) 0.29834(19) 0.19748(14)
O5_2 O 0.4567(3) 0.40924(18) 0.07612(13)
O8_2 O 0.6719(3) 0.42319(19) 0.1463(2)
O9_2 O 0.6060(3) 0.32638(17) 0.13937(15)
O12_2 O 0.4281(3) 0.29939(19) 0.08342(14)
Zn1_2 Zn 0.52442(4) 0.42181(2) 0.140805(18)
C2_2 C 0.3377(5) 0.2963(3) 0.9890(2)
C3_2 C 0.2913(5) 0.2972(3) 0.9428(2)
H2_2 H 0.2715 0.2563 0.9283
C4_2 C 0.3021(5) 0.4156(3) 0.9396(2)
H3_2 H 0.2884 0.4567 0.9236
C5_2 C 0.2722(4) 0.3563(3) 0.9167(2)
C12_2 C 0.1275(4) 0.3547(3) 0.77093(19)
C13_2 C 0.0763(4) 0.3526(3) 0.72091(19)
C19_2 C 0.3513(5) 0.4157(3) 0.9852(2)
H12_2 H 0.3735 0.4564 0.9990
C28_2 C 0.2197(7) 0.2998(3) 0.8361(3)
H17_2 H 0.2498 0.2605 0.8476
C29_2 C 0.1831(6) 0.4126(3) 0.8453(2)
H18_2 H 0.1900 0.4535 0.8629
C30_2 C 0.1741(6) 0.2997(4) 0.7892(3)
H19_2 H 0.1751 0.2604 0.7692
C31_2 C 0.1344(6) 0.4120(3) 0.8000(2)
H20_2 H 0.1050 0.4516 0.7884
C39_2 C 0.2221(5) 0.3564(3) 0.8662(2)
C16_2 C 0.0016(7) 0.8360(3) 0.6459(5)
C17_2 C 0.0385(7) 0.8710(4) 0.6843(4)
H10_2 H 0.0622 0.8483 0.7133
C18_2 C 0.0428(6) 0.9405(3) 0.6825(3)
H11_2 H 0.0687 0.9638 0.7106
C49_2 C 0.0293(6) 0.6302(4) 0.6048(4)
H29_2 H 0.0545 0.6537 0.5765
C52_2 C 0.0239(5) 0.5609(3) 0.6039(3)
H32_2 H 0.0456 0.5381 0.5745
N2_2 N 0.0122(4) 0.9747(2) 0.6431(2)
N3_2 N 0.0101(16) 0.7316(4) 0.6339(8)
Zn8 Zn 0.02440(4) 0.57815(2) 0.359318(18)
C2_3 C 0.6623(5) 0.7037(3) 0.0110(2)
C3_3 C 0.7087(5) 0.7028(3) 0.0572(2)
H2_3 H 0.7285 0.7437 0.0717
C4_3 C 0.6979(5) 0.5844(3) 0.0604(2)
H3_3 H 0.7116 0.5433 0.0764
C5_3 C 0.7278(4) 0.6437(3) 0.0833(2)
C12_3 C 0.8725(4) 0.6453(3) 0.22907(19)
C13_3 C 0.9237(4) 0.6474(3) 0.27909(19)
C19_3 C 0.6487(5) 0.5843(3) 0.0148(2)
H12_3 H 0.6265 0.5436 0.0010
C28_3 C 0.7803(7) 0.7002(3) 0.1639(3)
H17_3 H 0.7502 0.7395 0.1524
C29_3 C 0.8169(6) 0.5874(3) 0.1547(2)
H18_3 H 0.8100 0.5465 0.1371
C30_3 C 0.8259(6) 0.7003(4) 0.2108(3)
H19_3 H 0.8249 0.7396 0.2308
C31_3 C 0.8656(6) 0.5880(3) 0.2000(2)
H20_3 H 0.8950 0.5484 0.2116
C39_3 C 0.7779(5) 0.6436(3) 0.1338(2)
O6_2 O 0.9256(3) 0.7018(2) 0.30270(14)
O7_2 O 0.9608(3) 0.59276(18) 0.29410(13)
Zn5 Zn 0.99991(4) 0.74998(2) 0.359378(17)
C1_3 C 0.6317(4) 0.6448(3) 0.98908(19)
H1_3 H 0.6512 0.7448 0.9943
C6_3 C 0.6285(4) 0.6460(3) 0.72903(19)
C7_3 C 0.6823(6) 0.5874(3) 0.6540(2)
H4_3 H 0.6867 0.5470 0.6353
C8_3 C 0.6358(6) 0.5873(3) 0.7004(2)
H5_3 H 0.6087 0.5474 0.7129
C9_3 C 0.6734(6) 0.7005(3) 0.7110(3)
H6_3 H 0.6726 0.7403 0.7304
C10_3 C 0.7209(6) 0.6995(3) 0.6643(3)
H7_3 H 0.7529 0.7383 0.6533
C11_3 C 0.5759(4) 0.6479(3) 0.77907(19)
C14_3 C 0.5238(5) 0.4399(3) 0.8971(3)
H8_3 H 0.5436 0.4633 0.9266
C15_3 C 0.5320(6) 0.3705(3) 0.8961(4)
H9_3 H 0.5602 0.3475 0.9238
C16_3 C 0.4984(7) 0.3360(3) 0.8541(5)
C17_3 C 0.4615(7) 0.3710(4) 0.8157(4)
H10_3 H 0.4378 0.3483 0.7867
C18_3 C 0.4572(6) 0.4405(3) 0.8175(3)
H11_3 H 0.4313 0.4638 0.7894
C20_3 C 0.5778(4) 0.6462(3) 0.93898(18)
C21_3 C 0.2271(4) 0.6727(3) 0.8514(2)
C22_3 C 0.3204(4) 0.6397(3) 0.8555(2)
C23_3 C 0.1445(5) 0.6354(4) 0.8437(4)
H13_3 H 0.1486 0.5884 0.8409
C24_3 C 0.0587(5) 0.6653(3) 0.8401(4)
H14_3 H 0.0050 0.6389 0.8330
C25_3 C 0.0480(4) 0.7338(3) 0.8466(3)
C26_3 C 0.1297(4) 0.7706(3) 0.8550(3)
H15_3 H 0.1257 0.8173 0.8595
C27_3 C 0.2164(4) 0.7397(3) 0.8568(3)
H16_3 H 0.2707 0.7662 0.8619
C40_3 C 0.7223(5) 0.6438(3) 0.6341(2)
C41_3 C 0.7725(4) 0.6440(3) 0.5832(2)
C42_3 C 0.7900(5) 0.7035(3) 0.5573(2)
H25_3 H 0.7679 0.7443 0.5711
C43_3 C 0.8023(5) 0.5842(3) 0.5606(2)
H26_3 H 0.7897 0.5432 0.5772
C44_3 C 0.8397(5) 0.7037(3) 0.5114(2)
H27_3 H 0.8541 0.7447 0.4954
C45_3 C 0.8683(4) 0.6442(3) 0.48888(19)
C46_3 C 0.8501(5) 0.5842(3) 0.5141(2)
H28_3 H 0.8702 0.5434 0.4995
C47_3 C 0.9218(4) 0.6464(3) 0.43917(19)
C48_3 C 0.5015(7) 0.1637(4) 0.8537(5)
C49_3 C 0.4707(6) 0.1302(4) 0.8952(4)
H29_3 H 0.4455 0.1537 0.9235
C50_3 C 0.5377(7) 0.1285(4) 0.8153(4)
H30_3 H 0.5621 0.1509 0.7863
C51_3 C 0.5400(7) 0.0596(3) 0.8173(3)
H31_3 H 0.5637 0.0360 0.7888
C52_3 C 0.4761(5) 0.0609(3) 0.8961(3)
H32_3 H 0.4544 0.0381 0.9255
N1 N 0.5104(4) 0.0253(2) 0.85731(18)
N2_3 N 0.4878(4) 0.4747(2) 0.8569(2)
N3_3 N 0.4899(16) 0.2316(4) 0.8661(8)
N4_3 N 0.5012(16) 0.2697(4) 0.8359(7)
O1_3 O 0.5392(3) 0.59319(18) 0.79371(13)
O2_3 O 0.5740(3) 0.70166(19) 0.80252(14)
O3_2 O 0.9280(3) 0.70044(19) 0.41646(14)
O4_2 O 0.9567(3) 0.59064(18) 0.42385(13)
O5_3 O 0.5433(3) 0.59076(18) 0.92388(13)
O8_3 O 0.3281(3) 0.57681(19) 0.8537(2)
O9_3 O 0.3940(3) 0.67362(17) 0.86063(15)
O12_3 O 0.5719(3) 0.70061(19) 0.91658(14)
Zn1_3 Zn 0.47558(4) 0.57819(2) 0.859195(18)
Zn2 Zn 0.49991(4) 0.75002(2) 0.859378(17)
O13_2 O 0.4280(3) 0.79956(19) 0.91646(14)
O15_2 O 0.4256(3) 0.7982(2) 0.80270(14)
O17 O 0.6062(3) 0.82693(17) 0.86106(15)
Zn7 Zn 0.52440(4) 0.92185(2) 0.859318(18)
C32_3 C 0.9419(5) 0.8355(3) 0.8402(4)
H21_3 H 0.9955 0.8625 0.8342
C33_3 C 0.8707(4) 0.7298(3) 0.8543(3)
H22_3 H 0.8747 0.6830 0.8584
C34_3 C 0.8551(5) 0.8641(4) 0.8429(4)
H23_3 H 0.8501 0.9109 0.8391
C35_3 C 0.7830(4) 0.7604(3) 0.8565(3)
H24_3 H 0.7287 0.7339 0.8620
C36_3 C 0.7731(4) 0.8269(3) 0.8511(2)
C37_3 C 0.6799(4) 0.8600(3) 0.8555(2)
C38_3 C 0.9525(4) 0.7660(3) 0.8463(3)
O10_3 O 0.6709(3) 0.92258(19) 0.8534(2)
O14_2 O 0.4567(3) 0.90936(18) 0.92385(13)
O16_2 O 0.4608(3) 0.90724(18) 0.79410(13)
C14_4 C 0.0238(5) 0.0601(3) 0.3971(3)
H8_4 H 0.0436 0.0367 0.4266
C15_4 C 0.0320(6) 0.1295(3) 0.3961(4)
H9_4 H 0.0602 0.1525 0.4238
C48_4 C 0.0015(7) 0.3363(4) 0.3537(5)
C50_4 C 0.0377(7) 0.3715(4) 0.3153(4)
H30_4 H 0.0621 0.3491 0.2863
C51_4 C 0.0400(7) 0.4404(3) 0.3173(3)
H31_4 H 0.0637 0.4640 0.2888
N1_2 N 0.0104(4) 0.4747(2) 0.35731(18)
N4_4 N 0.0012(16) 0.2303(4) 0.3359(7)
C1_4 C 0.1317(4) 0.8552(3) 0.48908(19)
C2_4 C 0.1623(5) 0.7963(3) 0.5110(2)
H1_4 H 0.1512 0.7552 0.4943
C3_4 C 0.2087(5) 0.7972(3) 0.5572(2)
H2_4 H 0.2285 0.7563 0.5717
C4_4 C 0.1979(5) 0.9156(3) 0.5604(2)
H3_4 H 0.2116 0.9567 0.5764
C5_4 C 0.2278(4) 0.8563(3) 0.5833(2)
C6_4 C 0.1285(4) 0.8540(3) 0.22903(19)
C7_4 C 0.1823(6) 0.9126(3) 0.1540(2)
H4_4 H 0.1867 0.9530 0.1353
C8_4 C 0.1358(6) 0.9127(3) 0.2004(2)
H5_4 H 0.1087 0.9526 0.2129
C9_4 C 0.1734(6) 0.7995(3) 0.2110(3)
H6_4 H 0.1726 0.7597 0.2304
C10_4 C 0.2209(6) 0.8005(3) 0.1643(3)
H7_4 H 0.2529 0.7617 0.1533
C11_4 C 0.0759(4) 0.8521(3) 0.27907(19)
C12_4 C 0.3725(4) 0.8547(3) 0.72907(19)
C13_4 C 0.4237(4) 0.8526(3) 0.77909(19)
C19_4 C 0.1487(5) 0.9157(3) 0.5148(2)
H12_4 H 0.1265 0.9564 0.5010
C20_4 C 0.0778(4) 0.8538(3) 0.43898(18)
C28_4 C 0.2803(7) 0.7998(3) 0.6639(3)
H17_4 H 0.2502 0.7605 0.6524
C29_4 C 0.3169(6) 0.9126(3) 0.6547(2)
H18_4 H 0.3100 0.9535 0.6371
C30_4 C 0.3259(6) 0.7997(4) 0.7108(3)
H19_4 H 0.3249 0.7604 0.7308
C31_4 C 0.3656(6) 0.9120(3) 0.7000(2)
H20_4 H 0.3950 0.9516 0.7116
C39_4 C 0.2779(5) 0.8564(3) 0.6338(2)
C40_4 C 0.2223(5) 0.8562(3) 0.1341(2)
C41_4 C 0.2725(4) 0.8560(3) 0.0832(2)
C42_4 C 0.2900(5) 0.7965(3) 0.0573(2)
H25_4 H 0.2679 0.7557 0.0711
C43_4 C 0.3023(5) 0.9158(3) 0.0606(2)
H26_4 H 0.2897 0.9568 0.0772
C44_4 C 0.3397(5) 0.7963(3) 0.0114(2)
C46_4 C 0.3501(5) 0.9158(3) 0.0141(2)
O1_4 O 0.0392(3) 0.90681(18) 0.29371(13)
O2_4 O 0.0740(3) 0.79834(19) 0.30252(14)
O5_4 O 0.0433(3) 0.90924(18) 0.42388(13)
O12_4 O 0.0719(3) 0.79939(19) 0.41658(14)
O17_2 O 0.1062(3) 0.67307(17) 0.36106(15)
H27_4 H 0.3541 0.7553 0.9954
C45_4 C 0.3683(4) 0.8558(3) 0.98888(19)
H28_4 H 0.3702 0.9566 0.9995
C47_4 C 0.4218(4) 0.8536(3) 0.93917(19)
C21_4 C 0.7271(4) 0.8273(3) 0.3514(2)
C22_4 C 0.8204(4) 0.8603(3) 0.3555(2)
C23_4 C 0.6445(5) 0.8646(4) 0.3437(4)
H13_4 H 0.6486 0.9116 0.3409
C24_4 C 0.5587(5) 0.8347(3) 0.3401(4)
H14_4 H 0.5050 0.8611 0.3330
C25_4 C 0.5480(4) 0.7662(3) 0.3466(3)
C26_4 C 0.6297(4) 0.7294(3) 0.3550(3)
H15_4 H 0.6257 0.6827 0.3595
C27_4 C 0.7164(4) 0.7603(3) 0.3568(3)
H16_4 H 0.7707 0.7338 0.3619
C32_4 C 0.4419(5) 0.6645(3) 0.3402(4)
H21_4 H 0.4955 0.6375 0.3342
C33_4 C 0.3707(4) 0.7702(3) 0.3543(3)
H22_4 H 0.3747 0.8170 0.3584
C34_4 C 0.3551(5) 0.6359(4) 0.3429(4)
H23_4 H 0.3501 0.5891 0.3391
C35_4 C 0.2830(4) 0.7396(3) 0.3565(3)
H24_4 H 0.2287 0.7661 0.3620
C36_4 C 0.2731(4) 0.6731(3) 0.3511(2)
C37_4 C 0.1799(4) 0.6400(3) 0.3555(2)
C38_4 C 0.4525(4) 0.7340(3) 0.3463(3)
O8_4 O 0.8281(3) 0.92319(19) 0.3537(2)
O9_4 O 0.8940(3) 0.82638(17) 0.36063(15)
O10_4 O 0.1709(3) 0.57742(19) 0.3534(2)
Zn1_4 Zn 0.97558(4) 0.92181(2) 0.359195(18)
C16_4 C 0.9984(7) 0.1640(3) 0.3541(5)
C17_4 C 0.9615(7) 0.1290(4) 0.3157(4)
H10_4 H 0.9378 0.1517 0.2867
C18_4 C 0.9572(6) 0.0595(3) 0.3175(3)
H11_4 H 0.9313 0.0362 0.2894
C49_4 C 0.9707(6) 0.3698(4) 0.3952(4)
H29_4 H 0.9455 0.3463 0.4235
C52_4 C 0.9761(5) 0.4391(3) 0.3961(3)
H32_4 H 0.9544 0.4619 0.4255
N2_4 N 0.9878(4) 0.0253(2) 0.3569(2)
N3_4 N 0.9899(16) 0.2684(4) 0.3661(8)
loop_
_geom_bond_atom_site_label_1
_geom_bond_atom_site_label_2
_geom_bond_site_symmetry_1
_geom_bond_site_symmetry_2
C21 C22 1_555 1_555
C22 O8 1_555 1_555
C23 C21 1_555 1_555
H13 C23 1_555 1_555
C24 C23 1_555 1_555
H14 C24 1_555 1_555
C25 C24 1_555 1_555
C26 C25 1_555 1_555
H15 C26 1_555 1_555
C27 C21 1_555 1_555
H16 C27 1_555 1_555
C32 H21 1_555 1_555
C33 H22 1_555 1_555
C34 C32 1_555 1_555
H23 C34 1_555 1_555
C35 C33 1_555 1_555
H24 C35 1_555 1_555
C36 C34 1_555 1_555
C37 C36 1_555 1_555
C38 C25 1_555 1_555
O8 Zn1 1_555 1_555
O9 C22 1_555 1_555
O10 C37 1_555 1_555
O11 C37 1_555 1_555
Zn3 O10 1_555 1_555
N5 Zn3 1_555 1_555
O13 Zn4 1_555 1_555
O15 Zn4 1_555 1_555
C26 C27 1_555 1_555
C32 C38 1_555 1_555
C33 C38 1_555 1_555
C35 C36 1_555 1_555
O9 Zn1 1_555 1_555
O9 Zn4 1_555 1_555
O11 Zn3 1_555 1_555
C47 C45 1_555 1_555
O3 C47 1_555 1_555
O4 C47 1_555 1_555
Zn6 O3 1_555 1_555
Zn9 O4 1_555 1_555
C1 C2 1_555 1_555
C2 H1 1_555 1_555
C3 C2 1_555 1_555
H2 C3 1_555 1_555
C4 H3 1_555 1_555
C5 C3 1_555 1_555
C6 C8 1_555 1_555
C7 H4 1_555 1_555
C8 C7 1_555 1_555
H5 C8 1_555 1_555
C9 C6 1_555 1_555
H6 C9 1_555 1_555
C10 C9 1_555 1_555
H7 C10 1_555 1_555
C11 C6 1_555 1_555
C12 C13 1_555 1_555
C13 O6 1_555 1_555
C19 C1 1_555 1_555
H12 C19 1_555 1_555
C20 C1 1_555 1_555
C28 H17 1_555 1_555
C29 H18 1_555 1_555
C30 C12 1_555 1_555
H19 C30 1_555 1_555
C31 C12 1_555 1_555
H20 C31 1_555 1_555
C39 C5 1_555 1_555
C40 C7 1_555 1_555
C41 C40 1_555 1_555
C42 C41 1_555 1_555
H25 C42 1_555 1_555
C43 C41 1_555 1_555
H26 C43 1_555 1_555
C44 C42 1_555 1_555
C46 C43 1_555 1_555
O1 C11 1_555 1_555
O2 C11 1_555 1_555
O5 C20 1_555 1_555
O6 Zn6 1_555 1_555
O7 C13 1_555 1_555
O12 C20 1_555 1_555
Zn9 O7 1_555 1_555
C4 C5 1_555 1_555
C4 C19 1_555 1_555
C10 C40 1_555 1_555
C28 C30 1_555 1_555
C28 C39 1_555 1_555
C29 C31 1_555 1_555
C29 C39 1_555 1_555
C14 H8 1_555 1_555
C15 C14 1_555 1_555
H9 C15 1_555 1_555
C50 C48 1_555 1_555
H30 C50 1_555 1_555
C51 C50 1_555 1_555
H31 C51 1_555 1_555
N5 C51 1_555 1_555
C32_2 H21_2 1_555 1_555
C33_2 H22_2 1_555 1_555
C34_2 C32_2 1_555 1_555
H23_2 C34_2 1_555 1_555
C35_2 C33_2 1_555 1_555
H24_2 C35_2 1_555 1_555
C36_2 C34_2 1_555 1_555
C37_2 C36_2 1_555 1_555
O10_2 C37_2 1_555 1_555
O11_2 C37_2 1_555 1_555
Zn9 O10_2 1_555 1_555
Zn6 O11_2 1_555 1_555
C32_2 C38_2 1_555 1_555
C33_2 C38_2 1_555 1_555
C35_2 C36_2 1_555 1_555
O11_2 Zn9 1_555 1_555
C6_2 C8_2 1_555 1_555
C7_2 H4_2 1_555 1_555
C8_2 C7_2 1_555 1_555
H5_2 C8_2 1_555 1_555
C9_2 C6_2 1_555 1_555
H6_2 C9_2 1_555 1_555
C10_2 C9_2 1_555 1_555
H7_2 C10_2 1_555 1_555
C11_2 C6_2 1_555 1_555
C14_2 H8_2 1_555 1_555
C15_2 C14_2 1_555 1_555
H9_2 C15_2 1_555 1_555
C16 C15_2 1_555 1_555
C17 C16 1_555 1_555
H10 C17 1_555 1_555
C18 C17 1_555 1_555
H11 C18 1_555 1_555
C20_2 C1_2 1_555 1_555
C21_2 C22_2 1_555 1_555
C22_2 O8_2 1_555 1_555
C23_2 C21_2 1_555 1_555
H13_2 C23_2 1_555 1_555
C24_2 C23_2 1_555 1_555
H14_2 C24_2 1_555 1_555
C25_2 C24_2 1_555 1_555
C26_2 C25_2 1_555 1_555
H15_2 C26_2 1_555 1_555
C27_2 C21_2 1_555 1_555
H16_2 C27_2 1_555 1_555
C40_2 C7_2 1_555 1_555
C41_2 C40_2 1_555 1_555
C42_2 C41_2 1_555 1_555
H25_2 C42_2 1_555 1_555
C43_2 C41_2 1_555 1_555
H26_2 C43_2 1_555 1_555
C44_2 C42_2 1_555 1_555
H27_2 C44_2 1_555 1_555
C45_2 C44_2 1_555 1_555
C46_2 C43_2 1_555 1_555
H28_2 C46_2 1_555 1_555
C47_2 C45_2 1_555 1_555
C48_2 C49 1_555 1_555
C49 H29 1_555 1_555
C50_2 C48_2 1_555 1_555
H30_2 C50_2 1_555 1_555
C51_2 C50_2 1_555 1_555
H31_2 C51_2 1_555 1_555
C52 C49 1_555 1_555
H32 C52 1_555 1_555
N5_2 C51_2 1_555 1_555
N2 C14_2 1_555 1_555
N3 C48_2 1_555 1_555
N4_2 C16 1_555 1_555
O1_2 C11_2 1_555 1_555
O2_2 C11_2 1_555 1_555
O13 C47_2 1_555 1_555
O14 C47_2 1_555 1_555
O5_2 C20_2 1_555 1_555
O8_2 Zn1_2 1_555 1_555
O9_2 C22_2 1_555 1_555
O12_2 C20_2 1_555 1_555
Zn1_2 N2 1_555 1_555
Zn6 O2_2 1_555 1_555
C10_2 C40_2 1_555 1_555
C18 N2 1_555 1_555
C26_2 C27_2 1_555 1_555
C45_2 C46_2 1_555 1_555
C52 N5_2 1_555 1_555
N3 N4_2 1_555 1_555
O1_2 Zn1_2 1_555 1_555
O5_2 Zn1_2 1_555 1_555
O9_2 Zn1_2 1_555 1_555
O9_2 Zn6 1_555 1_555
O12_2 Zn6 1_555 1_555
C3_2 C2_2 1_555 1_555
H2_2 C3_2 1_555 1_555
C4_2 H3_2 1_555 1_555
C5_2 C3_2 1_555 1_555
C12_2 C13_2 1_555 1_555
C13_2 O15 1_555 1_555
H12_2 C19_2 1_555 1_555
C28_2 H17_2 1_555 1_555
C29_2 H18_2 1_555 1_555
C30_2 C12_2 1_555 1_555
H19_2 C30_2 1_555 1_555
C31_2 C12_2 1_555 1_555
H20_2 C31_2 1_555 1_555
C39_2 C5_2 1_555 1_555
O16 C13_2 1_555 1_555
C4_2 C5_2 1_555 1_555
C4_2 C19_2 1_555 1_555
C28_2 C30_2 1_555 1_555
C28_2 C39_2 1_555 1_555
C29_2 C31_2 1_555 1_555
C29_2 C39_2 1_555 1_555
C17_2 C16_2 1_555 1_555
H10_2 C17_2 1_555 1_555
C18_2 C17_2 1_555 1_555
H11_2 C18_2 1_555 1_555
C49_2 H29_2 1_555 1_555
C52_2 C49_2 1_555 1_555
H32_2 C52_2 1_555 1_555
C18_2 N2_2 1_555 1_555
C3_3 C2_3 1_555 1_555
H2_3 C3_3 1_555 1_555
C4_3 H3_3 1_555 1_555
C5_3 C3_3 1_555 1_555
C12_3 C13_3 1_555 1_555
C13_3 O6_2 1_555 1_555
H12_3 C19_3 1_555 1_555
C28_3 H17_3 1_555 1_555
C29_3 H18_3 1_555 1_555
C30_3 C12_3 1_555 1_555
H19_3 C30_3 1_555 1_555
C31_3 C12_3 1_555 1_555
H20_3 C31_3 1_555 1_555
C39_3 C5_3 1_555 1_555
O6_2 Zn5 1_555 1_555
O7_2 C13_3 1_555 1_555
C4_3 C5_3 1_555 1_555
C4_3 C19_3 1_555 1_555
C28_3 C30_3 1_555 1_555
C28_3 C39_3 1_555 1_555
C29_3 C31_3 1_555 1_555
C29_3 C39_3 1_555 1_555
C6_3 C8_3 1_555 1_555
C7_3 H4_3 1_555 1_555
C8_3 C7_3 1_555 1_555
H5_3 C8_3 1_555 1_555
C9_3 C6_3 1_555 1_555
H6_3 C9_3 1_555 1_555
C10_3 C9_3 1_555 1_555
H7_3 C10_3 1_555 1_555
C11_3 C6_3 1_555 1_555
C14_3 H8_3 1_555 1_555
C15_3 C14_3 1_555 1_555
H9_3 C15_3 1_555 1_555
C16_3 C15_3 1_555 1_555
C17_3 C16_3 1_555 1_555
H10_3 C17_3 1_555 1_555
C18_3 C17_3 1_555 1_555
H11_3 C18_3 1_555 1_555
C20_3 C1_3 1_555 1_555
C21_3 C22_3 1_555 1_555
C22_3 O8_3 1_555 1_555
C23_3 C21_3 1_555 1_555
H13_3 C23_3 1_555 1_555
C24_3 C23_3 1_555 1_555
H14_3 C24_3 1_555 1_555
C25_3 C24_3 1_555 1_555
C26_3 C25_3 1_555 1_555
H15_3 C26_3 1_555 1_555
C27_3 C21_3 1_555 1_555
H16_3 C27_3 1_555 1_555
C40_3 C7_3 1_555 1_555
C41_3 C40_3 1_555 1_555
C42_3 C41_3 1_555 1_555
H25_3 C42_3 1_555 1_555
C43_3 C41_3 1_555 1_555
H26_3 C43_3 1_555 1_555
C44_3 C42_3 1_555 1_555
H27_3 C44_3 1_555 1_555
C45_3 C44_3 1_555 1_555
C46_3 C43_3 1_555 1_555
H28_3 C46_3 1_555 1_555
C47_3 C45_3 1_555 1_555
C48_3 C49_3 1_555 1_555
C49_3 H29_3 1_555 1_555
C50_3 C48_3 1_555 1_555
H30_3 C50_3 1_555 1_555
C51_3 C50_3 1_555 1_555
H31_3 C51_3 1_555 1_555
C52_3 C49_3 1_555 1_555
H32_3 C52_3 1_555 1_555
N1 C51_3 1_555 1_555
N2_3 C14_3 1_555 1_555
N3_3 C48_3 1_555 1_555
N4_3 C16_3 1_555 1_555
O1_3 C11_3 1_555 1_555
O2_3 C11_3 1_555 1_555
O3_2 C47_3 1_555 1_555
O4_2 C47_3 1_555 1_555
O5_3 C20_3 1_555 1_555
O8_3 Zn1_3 1_555 1_555
O9_3 C22_3 1_555 1_555
O12_3 C20_3 1_555 1_555
Zn1_3 N2_3 1_555 1_555
Zn2 O2_3 1_555 1_555
O13_2 Zn2 1_555 1_555
O15_2 Zn2 1_555 1_555
O17 Zn2 1_555 1_555
Zn5 O3_2 1_555 1_555
C10_3 C40_3 1_555 1_555
C18_3 N2_3 1_555 1_555
C26_3 C27_3 1_555 1_555
C45_3 C46_3 1_555 1_555
C52_3 N1 1_555 1_555
N3_3 N4_3 1_555 1_555
O1_3 Zn1_3 1_555 1_555
O5_3 Zn1_3 1_555 1_555
O9_3 Zn1_3 1_555 1_555
O9_3 Zn2 1_555 1_555
O12_3 Zn2 1_555 1_555
C32_3 H21_3 1_555 1_555
C33_3 H22_3 1_555 1_555
C34_3 C32_3 1_555 1_555
H23_3 C34_3 1_555 1_555
C35_3 C33_3 1_555 1_555
H24_3 C35_3 1_555 1_555
C36_3 C34_3 1_555 1_555
C37_3 C36_3 1_555 1_555
O10_3 C37_3 1_555 1_555
O17 C37_3 1_555 1_555
Zn7 O10_3 1_555 1_555
O14_2 Zn7 1_555 1_555
O16_2 Zn7 1_555 1_555
C32_3 C38_3 1_555 1_555
C33_3 C38_3 1_555 1_555
C35_3 C36_3 1_555 1_555
O17 Zn7 1_555 1_555
C14_4 H8_4 1_555 1_555
C15_4 C14_4 1_555 1_555
H9_4 C15_4 1_555 1_555
C50_4 C48_4 1_555 1_555
H30_4 C50_4 1_555 1_555
C51_4 C50_4 1_555 1_555
H31_4 C51_4 1_555 1_555
N1_2 C51_4 1_555 1_555
Zn8 N1_2 1_555 1_555
C1_4 C2_4 1_555 1_555
C2_4 H1_4 1_555 1_555
C3_4 C2_4 1_555 1_555
H2_4 C3_4 1_555 1_555
C4_4 H3_4 1_555 1_555
C5_4 C3_4 1_555 1_555
C6_4 C8_4 1_555 1_555
C7_4 H4_4 1_555 1_555
C8_4 C7_4 1_555 1_555
H5_4 C8_4 1_555 1_555
C9_4 C6_4 1_555 1_555
H6_4 C9_4 1_555 1_555
C10_4 C9_4 1_555 1_555
H7_4 C10_4 1_555 1_555
C11_4 C6_4 1_555 1_555
C12_4 C13_4 1_555 1_555
C13_4 O15_2 1_555 1_555
C19_4 C1_4 1_555 1_555
H12_4 C19_4 1_555 1_555
C20_4 C1_4 1_555 1_555
C28_4 H17_4 1_555 1_555
C29_4 H18_4 1_555 1_555
C30_4 C12_4 1_555 1_555
H19_4 C30_4 1_555 1_555
C31_4 C12_4 1_555 1_555
H20_4 C31_4 1_555 1_555
C39_4 C5_4 1_555 1_555
C40_4 C7_4 1_555 1_555
C41_4 C40_4 1_555 1_555
C42_4 C41_4 1_555 1_555
H25_4 C42_4 1_555 1_555
C43_4 C41_4 1_555 1_555
H26_4 C43_4 1_555 1_555
C44_4 C42_4 1_555 1_555
C46_4 C43_4 1_555 1_555
O1_4 C11_4 1_555 1_555
O2_4 C11_4 1_555 1_555
O5_4 C20_4 1_555 1_555
O16_2 C13_4 1_555 1_555
O12_4 C20_4 1_555 1_555
C4_4 C5_4 1_555 1_555
C4_4 C19_4 1_555 1_555
C10_4 C40_4 1_555 1_555
C28_4 C30_4 1_555 1_555
C28_4 C39_4 1_555 1_555
C29_4 C31_4 1_555 1_555
C29_4 C39_4 1_555 1_555
C47_4 C45_4 1_555 1_555
O13_2 C47_4 1_555 1_555
O14_2 C47_4 1_555 1_555
C21_4 C22_4 1_555 1_555
C22_4 O8_4 1_555 1_555
C23_4 C21_4 1_555 1_555
H13_4 C23_4 1_555 1_555
C24_4 C23_4 1_555 1_555
H14_4 C24_4 1_555 1_555
C25_4 C24_4 1_555 1_555
C26_4 C25_4 1_555 1_555
H15_4 C26_4 1_555 1_555
C27_4 C21_4 1_555 1_555
H16_4 C27_4 1_555 1_555
C32_4 H21_4 1_555 1_555
C33_4 H22_4 1_555 1_555
C34_4 C32_4 1_555 1_555
H23_4 C34_4 1_555 1_555
C35_4 C33_4 1_555 1_555
H24_4 C35_4 1_555 1_555
C36_4 C34_4 1_555 1_555
C37_4 C36_4 1_555 1_555
C38_4 C25_4 1_555 1_555
O8_4 Zn1_4 1_555 1_555
O9_4 C22_4 1_555 1_555
O10_4 C37_4 1_555 1_555
O17_2 C37_4 1_555 1_555
Zn8 O10_4 1_555 1_555
C26_4 C27_4 1_555 1_555
C32_4 C38_4 1_555 1_555
C33_4 C38_4 1_555 1_555
C35_4 C36_4 1_555 1_555
O9_4 Zn1_4 1_555 1_555
O9_4 Zn5 1_555 1_555
O17_2 Zn8 1_555 1_555
C17_4 C16_4 1_555 1_555
H10_4 C17_4 1_555 1_555
C18_4 C17_4 1_555 1_555
H11_4 C18_4 1_555 1_555
C49_4 H29_4 1_555 1_555
C52_4 C49_4 1_555 1_555
H32_4 C52_4 1_555 1_555
C18_4 N2_4 1_555 1_555

#END
