
###############################################################################
#
# This file contains modified crystal structure data generated from the
# MOF subset of the Cambridge Structural Database (CSD) v543 
# hosted by the Cambridge Crystallographic Data Centre (CCDC).
#
# This work is licensed under the Creative Commons
# Attribution-NonCommercial-ShareAlike 4.0 International License.
# To view a copy of this license, visit
# http://creativecommons.org/licenses/by-nc-sa/4.0/
# or send a letter to
# Creative Commons, PO Box 1866, Mountain View, CA 94042, USA.
#
# CIF created using the CSD Python API on 29 September 2022
# The structure has been converted into the P1 space group
# The structure has a 3D framework
# The original CSD entry KOGTEI is in the cubic crystal system
# The framework has been calculated to contain at least 10.0% void space
# The void calculation uses a probe of radius 1.32A, grid spacing 0.4
# H atom positions have been added when not included in the experimental data
# Generated hydrogen atom positions removed from atoms on special positions
#
###############################################################################

data_KOGTEI
_chemical_formula_moiety         '(C1008 H768 In84 N144 O396)n'
_symmetry_cell_setting           triclinic
_symmetry_space_group_name_H-M   'P 1'
_symmetry_Int_Tables_number      1
_space_group_name_Hall           'P 1'
loop_
_symmetry_equiv_pos_site_id
_symmetry_equiv_pos_as_xyz
1 x,y,z
_cell_length_a                   38.0479(6)
_cell_length_b                   38.0479(6)
_cell_length_c                   38.0479(6)
_cell_angle_alpha                90
_cell_angle_beta                 90
_cell_angle_gamma                90
_cell_volume                     55079.8
loop_
_atom_site_label
_atom_site_type_symbol
_atom_site_fract_x
_atom_site_fract_y
_atom_site_fract_z
O14 O 0.2070(3) 0.0993(3) 0.0190(3)
C34 C 0.1473(5) 0.0103(5) 0.0116(5)
H22 H 0.1365 0.0002 0.0317
C35 C 0.1662(5) 0.0414(4) 0.0148(3)
H23 H 0.1682 0.0526 0.0370
In4 In 0.24022(2) 0.13765(2) 0.04440(2)
O15 O 0.2156(3) 0.1014(3) 0.9612(3)
C30 C 0.1820(4) 0.0562(3) 0.9853(4)
C31 C 0.1790(5) 0.0398(5) 0.9528(3)
H20 H 0.1898 0.0499 0.9327
C32 C 0.1602(5) 0.0087(5) 0.9497(4)
C37 C 0.2035(4) 0.0878(4) 0.9886(4)
In7 In 0.25978(2) 0.13765(2) 0.95560(2)
In1 In 0.00978(2) 0.70560(2) 0.88765(2)
In2 In 0.0000 0.7500 0.96909(3)
O1 O 0.0000 0.7500 0.9157(2)
O5 O 0.0279(2) 0.5463(2) 0.7848(2)
O6 O 0.0819(3) 0.5565(3) 0.8054(3)
N1 N 0.0219(3) 0.6574(3) 0.8573(3)
C15 C 0.0498(4) 0.5636(4) 0.8021(3)
C17 C 0.0395(3) 0.5958(3) 0.8204(3)
C18 C 0.0035(4) 0.6044(3) 0.8270(4)
C20 C 0.0563(4) 0.6500(4) 0.8499(4)
H12 H 0.0744 0.6658 0.8567
C21 C 0.0643(3) 0.6193(3) 0.8326(4)
H13 H 0.0884 0.6140 0.8288
O10 O 0.0332(2) 0.7965(2) 0.9720(3)
O11 O 0.0195(4) 0.8267(3) 0.9223(3)
N5 N 0.0241(4) 0.9150(4) 0.8167(5)
H14 H 0.0456 0.9082 0.8218
H15 H 0.0206 0.9346 0.8048
N6 N 0.1233(8) 0.9575(6) 0.9747(12)
H16 H 0.1177 0.9511 0.9532
C22 C 0.0346(4) 0.8230(4) 0.9510(5)
C23 C 0.0705(6) 0.8522(6) 0.9956(5)
C24 C 0.0538(5) 0.8531(4) 0.9631(5)
C25 C 0.0582(6) 0.8820(6) 0.9411(5)
H18 H 0.0468 0.8826 0.9189
C26 C 0.0792(7) 0.9099(5) 0.9516(7)
H19 H 0.0822 0.9297 0.9366
C27 C 0.0958(6) 0.9090(6) 0.9841(8)
C29 C 0.1150(7) 0.9392(7) 0.9972(11)
H21 H 0.1581 0.9975 0.9275
C33 C 0.1443(5) 0.9939(4) 0.9791(6)
C40 C 0.0034(4) 0.8645(4) 0.8460(4)
H24 H 0.0271 0.8587 0.8511
In8 In 0.11235(2) 0.50978(2) 0.79440(2)
In11 In 0.03091(3) 0.5000 0.7500
O18 O 0.0463(2) 0.7152(2) 0.9721(2)
O20 O 0.0565(3) 0.6946(3) 0.9181(3)
O21 O 0.0430(3) 0.7310(3) 0.8493(3)
O23 O 0.0344(3) 0.7888(3) 0.8514(3)
In10 In 0.96909(3) 0.0000 0.7500
O2 O 1.0000 0.7500 0.0280(6)
O7 O 0.7930(3) 0.4007(3) 0.0190(3)
H4 H 0.9325 0.6675 0.0106
C7 C 0.9085(7) 0.6198(8) 0.0061(6)
C13 C 0.8527(5) 0.4897(5) 0.0116(5)
H9 H 0.8635 0.4998 0.0317
C14 C 0.8338(5) 0.4586(4) 0.0148(3)
H10 H 0.8318 0.4474 0.0370
O9 O 0.8722(15) 0.555(2) 0.0270(12)
In9 In 0.75978(2) 0.36235(2) 0.04440(2)
H29 H 0.895434 0.620454 0.0315571
In2_2 In 1.0000 0.7500 0.96909(3)
O1_2 O 1.0000 0.7500 0.9157(2)
O3 O 0.9668(2) 0.7035(2) 0.9720(3)
O4 O 0.9805(4) 0.6733(3) 0.9223(3)
O8 O 0.7844(3) 0.3986(3) 0.9612(3)
N2 N 0.9759(4) 0.5850(4) 0.8167(5)
H1 H 0.9544 0.5918 0.8218
H2 H 0.9794 0.5654 0.8048
N3 N 0.8767(8) 0.5425(6) 0.9747(12)
H3 H 0.8823 0.5489 0.9532
C1 C 0.9654(4) 0.6770(4) 0.9510(5)
C2 C 0.9295(6) 0.6478(6) 0.9956(5)
C3 C 0.9462(5) 0.6469(4) 0.9631(5)
C4 C 0.9418(6) 0.6180(6) 0.9411(5)
H5 H 0.9532 0.6174 0.9189
C5 C 0.9208(7) 0.5901(5) 0.9516(7)
H6 H 0.9178 0.5703 0.9366
C6 C 0.9042(6) 0.5910(6) 0.9841(8)
C8 C 0.8850(7) 0.5608(7) 0.9972(11)
C9 C 0.8180(4) 0.4438(3) 0.9853(4)
C10 C 0.8210(5) 0.4602(5) 0.9528(3)
H7 H 0.8102 0.4501 0.9327
C11 C 0.8398(5) 0.4913(5) 0.9497(4)
H8 H 0.8419 0.5025 0.9275
C12 C 0.8557(5) 0.5061(4) 0.9791(6)
C16 C 0.7965(4) 0.4122(4) 0.9886(4)
C19 C 0.9966(4) 0.6355(4) 0.8460(4)
H11 H 0.9729 0.6413 0.8511
In3 In 0.99022(2) 0.79440(2) 0.88765(2)
O12 O 0.9721(2) 0.9537(2) 0.7848(2)
O13 O 0.9181(3) 0.9435(3) 0.8054(3)
N4 N 0.9781(3) 0.8426(3) 0.8573(3)
C36 C 0.9502(4) 0.9364(4) 0.8021(3)
C38 C 0.9605(3) 0.9042(3) 0.8204(3)
C39 C 0.9965(4) 0.8956(3) 0.8270(4)
C41 C 0.9437(4) 0.8500(4) 0.8499(4)
H25 H 0.9256 0.8342 0.8567
C42 C 0.9357(3) 0.8807(3) 0.8326(4)
H26 H 0.9116 0.8860 0.8288
In5 In 0.74022(2) 0.36235(2) 0.95560(2)
In6 In 0.88765(2) 0.99022(2) 0.79440(2)
In10_2 In 0.96909(3) 1.0000 0.7500
O17 O 0.9537(2) 0.7848(2) 0.9721(2)
O19 O 0.9435(3) 0.8054(3) 0.9181(3)
O22 O 0.9570(3) 0.7690(3) 0.8493(3)
O24 O 0.9656(3) 0.7112(3) 0.8514(3)
In2_3 In -0.0000 0.7500 0.28091(3)
O1_3 O -0.0000 0.7500 0.3343(2)
O2_2 O -0.0000 0.7500 0.2220(6)
In3_2 In 0.04440(2) 0.75978(2) 0.36235(2)
O10_2 O 0.0465(2) 0.7168(2) 0.2780(3)
O11_2 O 0.0767(3) 0.7305(4) 0.3277(3)
O12_2 O 0.2037(2) 0.7779(2) 0.4652(2)
O13_2 O 0.1935(3) 0.8319(3) 0.4446(3)
O14_2 O 0.3493(3) 0.5430(3) 0.2310(3)
O15_2 O 0.3514(3) 0.5344(3) 0.2888(3)
N4_2 N 0.0926(3) 0.7719(3) 0.3927(3)
N5_2 N 0.1650(4) 0.7259(4) 0.4333(5)
H14_2 H 0.1582 0.7044 0.4282
H15_2 H 0.1846 0.7294 0.4452
N6_2 N 0.2075(6) 0.6267(8) 0.2753(12)
H16_2 H 0.2011 0.6323 0.2968
C22_2 C 0.0730(4) 0.7154(4) 0.2990(5)
C23_2 C 0.1022(6) 0.6795(6) 0.2544(5)
H17 H 0.0825 0.6825 0.2394
C24_2 C 0.1031(4) 0.6962(5) 0.2869(5)
C25_2 C 0.1320(6) 0.6918(6) 0.3089(5)
H18_2 H 0.1326 0.7032 0.3311
C26_2 C 0.1599(5) 0.6708(7) 0.2984(7)
H19_2 H 0.1797 0.6678 0.3134
C27_2 C 0.1590(6) 0.6542(6) 0.2659(8)
C28 C 0.1302(8) 0.6585(7) 0.2439(6)
C29_2 C 0.1892(7) 0.6350(7) 0.2528(11)
C30_2 C 0.3062(3) 0.5680(4) 0.2647(4)
C31_2 C 0.2898(5) 0.5710(5) 0.2972(3)
H20_2 H 0.2999 0.5602 0.3173
C32_2 C 0.2587(5) 0.5898(5) 0.3003(4)
H21_2 H 0.2475 0.5919 0.3225
C33_2 C 0.2439(4) 0.6057(5) 0.2709(6)
C34_2 C 0.2603(5) 0.6027(5) 0.2384(5)
H22_2 H 0.2502 0.6135 0.2183
C35_2 C 0.2914(4) 0.5838(5) 0.2352(3)
H23_2 H 0.3026 0.5818 0.2130
C36_2 C 0.1864(4) 0.7998(4) 0.4479(3)
C37_2 C 0.3378(4) 0.5465(4) 0.2614(4)
C38_2 C 0.1542(3) 0.7895(3) 0.4296(3)
C39_2 C 0.1456(3) 0.7535(4) 0.4230(4)
C40_2 C 0.1145(4) 0.7466(4) 0.4040(4)
H24_2 H 0.1087 0.7229 0.3989
C41_2 C 0.1000(4) 0.8063(4) 0.4001(4)
H25_2 H 0.0842 0.8244 0.3933
C42_2 C 0.1307(3) 0.8143(3) 0.4174(4)
H26_2 H 0.1360 0.8384 0.4212
O16 O 0.195(2) 0.6222(15) 0.2230(12)
In4_2 In 0.38765(2) 0.50978(2) 0.20560(2)
In6_2 In 0.24022(2) 0.86235(2) 0.45560(2)
In7_2 In 0.38765(2) 0.49022(2) 0.29440(2)
In10_3 In 0.2500 0.78091(3) 0.5000
O17_2 O 0.0348(2) 0.7963(2) 0.2779(2)
O19_2 O 0.0554(3) 0.8065(3) 0.3319(3)
O22_2 O 0.0190(3) 0.7930(3) 0.4007(3)
O23_2 O 0.0388(3) 0.7156(3) 0.3986(3)
H28 H 0.0200257 0.735702 0.2133
H30 H 0.129546 0.645434 0.218443
In5_2 In 0.61235(2) 0.00978(2) 0.29440(2)
In1_2 In 0.95560(2) 0.74022(2) 0.36235(2)
In2_4 In 1.0000 0.7500 0.28091(3)
O1_4 O 1.0000 0.7500 0.3343(2)
O2_3 O 1.0000 0.7500 0.2220(6)
O3_2 O 0.9535(2) 0.7832(2) 0.2780(3)
O4_2 O 0.9233(3) 0.7695(4) 0.3277(3)
O5_2 O 0.7963(2) 0.7221(2) 0.4652(2)
O6_2 O 0.8065(3) 0.6681(3) 0.4446(3)
O7_2 O 0.6507(3) 0.9570(3) 0.2310(3)
O8_2 O 0.6486(3) 0.9656(3) 0.2888(3)
N1_2 N 0.9074(3) 0.7281(3) 0.3927(3)
N2_2 N 0.8350(4) 0.7741(4) 0.4333(5)
H1_2 H 0.8418 0.7956 0.4282
H2_2 H 0.8154 0.7706 0.4452
N3_2 N 0.7925(6) 0.8733(8) 0.2753(12)
H3_2 H 0.7989 0.8677 0.2968
C1_2 C 0.9270(4) 0.7846(4) 0.2990(5)
C2_2 C 0.8978(6) 0.8205(6) 0.2544(5)
H4_2 H 0.9175 0.8175 0.2394
C3_2 C 0.8969(4) 0.8038(5) 0.2869(5)
C4_2 C 0.8680(6) 0.8082(6) 0.3089(5)
H5_2 H 0.8674 0.7968 0.3311
C5_2 C 0.8401(5) 0.8292(7) 0.2984(7)
H6_2 H 0.8203 0.8322 0.3134
C6_2 C 0.8410(6) 0.8458(6) 0.2659(8)
C7_2 C 0.8698(8) 0.8415(7) 0.2439(6)
C8_2 C 0.8108(7) 0.8650(7) 0.2528(11)
C9_2 C 0.6938(3) 0.9320(4) 0.2647(4)
C10_2 C 0.7102(5) 0.9290(5) 0.2972(3)
H7_2 H 0.7001 0.9398 0.3173
C11_2 C 0.7413(5) 0.9102(5) 0.3003(4)
H8_2 H 0.7525 0.9081 0.3225
C12_2 C 0.7561(4) 0.8943(5) 0.2709(6)
C13_2 C 0.7397(5) 0.8973(5) 0.2384(5)
H9_2 H 0.7498 0.8865 0.2183
C14_2 C 0.7086(4) 0.9162(5) 0.2352(3)
H10_2 H 0.6974 0.9182 0.2130
C15_2 C 0.8136(4) 0.7002(4) 0.4479(3)
C16_2 C 0.6622(4) 0.9535(4) 0.2614(4)
C17_2 C 0.8458(3) 0.7105(3) 0.4296(3)
C18_2 C 0.8544(3) 0.7465(4) 0.4230(4)
C19_2 C 0.8855(4) 0.7534(4) 0.4040(4)
H11_2 H 0.8913 0.7771 0.3989
C20_2 C 0.9000(4) 0.6937(4) 0.4001(4)
H12_2 H 0.9158 0.6756 0.3933
C21_2 C 0.8693(3) 0.6857(3) 0.4174(4)
H13_2 H 0.8640 0.6616 0.4212
O9_2 O 0.805(2) 0.8778(15) 0.2230(12)
In8_2 In 0.75978(2) 0.63765(2) 0.45560(2)
In9_2 In 0.61235(2) 0.99022(2) 0.20560(2)
In11_2 In 0.7500 0.71909(3) 0.5000
O18_2 O 0.9652(2) 0.7037(2) 0.2779(2)
O20_2 O 0.9446(3) 0.6935(3) 0.3319(3)
O21_2 O 0.9810(3) 0.7070(3) 0.4007(3)
O24_2 O 0.9612(3) 0.7844(3) 0.3986(3)
H27 H 0.977605 0.739806 0.2133
H29_2 H 0.870454 0.854566 0.218443
H27_2 H 0.989806 0.772395 0.0366996
H28_2 H 0.985702 0.729974 0.0366996
In10_4 In 0.2500 0.21909(3) 0.0000
In11_3 In 0.7500 0.28091(3) 0.0000
In1_3 In 0.54440(2) 0.25978(2) 0.86235(2)
In2_5 In 0.5000 0.2500 0.78091(3)
O1_5 O 0.5000 0.2500 0.8343(2)
O2_4 O 0.5000 0.2500 0.7220(6)
O3_3 O 0.5465(2) 0.2168(2) 0.7780(3)
O4_3 O 0.5767(3) 0.2305(4) 0.8277(3)
O5_3 O 0.7037(2) 0.2779(2) 0.9652(2)
O6_3 O 0.6935(3) 0.3319(3) 0.9446(3)
O7_3 O 0.8493(3) 0.0430(3) 0.7310(3)
O8_3 O 0.8514(3) 0.0344(3) 0.7888(3)
N1_3 N 0.5926(3) 0.2719(3) 0.8927(3)
N2_3 N 0.6650(4) 0.2259(4) 0.9333(5)
H1_3 H 0.6582 0.2044 0.9282
H2_3 H 0.6846 0.2294 0.9452
N3_3 N 0.7075(6) 0.1267(8) 0.7753(12)
H3_3 H 0.7011 0.1323 0.7968
C1_3 C 0.5730(4) 0.2154(4) 0.7990(5)
C2_3 C 0.6022(6) 0.1795(6) 0.7544(5)
H4_3 H 0.5825 0.1825 0.7394
C3_3 C 0.6031(4) 0.1962(5) 0.7869(5)
C4_3 C 0.6320(6) 0.1918(6) 0.8089(5)
H5_3 H 0.6326 0.2032 0.8311
C5_3 C 0.6599(5) 0.1708(7) 0.7984(7)
H6_3 H 0.6797 0.1678 0.8134
C6_3 C 0.6590(6) 0.1542(6) 0.7659(8)
C7_3 C 0.6302(8) 0.1585(7) 0.7439(6)
C8_3 C 0.6892(7) 0.1350(7) 0.7528(11)
C9_3 C 0.8062(3) 0.0680(4) 0.7647(4)
C10_3 C 0.7898(5) 0.0710(5) 0.7972(3)
H7_3 H 0.7999 0.0602 0.8173
C11_3 C 0.7587(5) 0.0898(5) 0.8003(4)
H8_3 H 0.7475 0.0919 0.8225
C12_3 C 0.7439(4) 0.1057(5) 0.7709(6)
C13_3 C 0.7603(5) 0.1027(5) 0.7384(5)
H9_3 H 0.7502 0.1135 0.7183
C14_3 C 0.7914(4) 0.0838(5) 0.7352(3)
H10_3 H 0.8026 0.0818 0.7130
C15_3 C 0.6864(4) 0.2998(4) 0.9479(3)
C16_3 C 0.8378(4) 0.0465(4) 0.7614(4)
C17_3 C 0.6542(3) 0.2895(3) 0.9296(3)
C18_3 C 0.6456(3) 0.2535(4) 0.9230(4)
C19_3 C 0.6145(4) 0.2466(4) 0.9040(4)
H11_3 H 0.6087 0.2229 0.8989
C20_3 C 0.6000(4) 0.3063(4) 0.9001(4)
H12_3 H 0.5842 0.3244 0.8933
C21_3 C 0.6307(3) 0.3143(3) 0.9174(4)
H13_3 H 0.6360 0.3384 0.9212
O9_3 O 0.695(2) 0.1222(15) 0.7230(12)
In3_3 In 0.45560(2) 0.24022(2) 0.86235(2)
O10_3 O 0.4535(2) 0.2832(2) 0.7780(3)
O11_3 O 0.4233(3) 0.2695(4) 0.8277(3)
O12_3 O 0.2963(2) 0.2221(2) 0.9652(2)
O13_3 O 0.3065(3) 0.1681(3) 0.9446(3)
O14_3 O 0.1507(3) 0.4570(3) 0.7310(3)
O15_3 O 0.1486(3) 0.4656(3) 0.7888(3)
N4_3 N 0.4074(3) 0.2281(3) 0.8927(3)
N5_3 N 0.3350(4) 0.2741(4) 0.9333(5)
H14_3 H 0.3418 0.2956 0.9282
H15_3 H 0.3154 0.2706 0.9452
N6_3 N 0.2925(6) 0.3733(8) 0.7753(12)
H16_3 H 0.2989 0.3677 0.7968
C22_3 C 0.4270(4) 0.2846(4) 0.7990(5)
C23_3 C 0.3978(6) 0.3205(6) 0.7544(5)
H17_2 H 0.4175 0.3175 0.7394
C24_3 C 0.3969(4) 0.3038(5) 0.7869(5)
C25_3 C 0.3680(6) 0.3082(6) 0.8089(5)
H18_3 H 0.3674 0.2968 0.8311
C26_3 C 0.3401(5) 0.3292(7) 0.7984(7)
H19_3 H 0.3203 0.3322 0.8134
C27_3 C 0.3410(6) 0.3458(6) 0.7659(8)
C28_2 C 0.3698(8) 0.3415(7) 0.7439(6)
C29_3 C 0.3108(7) 0.3650(7) 0.7528(11)
C30_3 C 0.1938(3) 0.4320(4) 0.7647(4)
C31_3 C 0.2102(5) 0.4290(5) 0.7972(3)
H20_3 H 0.2001 0.4398 0.8173
C32_3 C 0.2413(5) 0.4102(5) 0.8003(4)
H21_3 H 0.2525 0.4081 0.8225
C33_3 C 0.2561(4) 0.3943(5) 0.7709(6)
C34_3 C 0.2397(5) 0.3973(5) 0.7384(5)
H22_3 H 0.2498 0.3865 0.7183
C35_3 C 0.2086(4) 0.4162(5) 0.7352(3)
H23_3 H 0.1974 0.4182 0.7130
C36_3 C 0.3136(4) 0.2002(4) 0.9479(3)
C37_3 C 0.1622(4) 0.4535(4) 0.7614(4)
C38_3 C 0.3458(3) 0.2105(3) 0.9296(3)
C39_3 C 0.3544(3) 0.2465(4) 0.9230(4)
C40_3 C 0.3855(4) 0.2534(4) 0.9040(4)
H24_3 H 0.3913 0.2771 0.8989
C41_3 C 0.4000(4) 0.1937(4) 0.9001(4)
H25_3 H 0.4158 0.1756 0.8933
C42_3 C 0.3693(3) 0.1857(3) 0.9174(4)
H26_3 H 0.3640 0.1616 0.9212
O16_2 O 0.305(2) 0.3778(15) 0.7230(12)
In4_3 In 0.11235(2) 0.49022(2) 0.70560(2)
In9_3 In 0.88765(2) 0.00978(2) 0.70560(2)
In10_5 In 0.2500 0.21909(3) 1.0000
In11_4 In 0.7500 0.28091(3) 1.0000
O17_3 O 0.4652(2) 0.2037(2) 0.7779(2)
O18_3 O 0.5348(2) 0.2963(2) 0.7779(2)
O19_3 O 0.4446(3) 0.1935(3) 0.8319(3)
O20_3 O 0.5554(3) 0.3065(3) 0.8319(3)
O21_3 O 0.5190(3) 0.2930(3) 0.9007(3)
O22_3 O 0.4810(3) 0.2070(3) 0.9007(3)
O23_3 O 0.4612(3) 0.2844(3) 0.8986(3)
O24_3 O 0.5388(3) 0.2156(3) 0.8986(3)
H29_3 H 0.629546 0.145434 0.718443
H30_2 H 0.370454 0.354566 0.718443
O1_6 O 0.2500 0.1657(2) 0.0000
O2_5 O 0.2500 0.2780(6) 0.0000
O3_4 O 0.2832(2) 0.2220(3) 0.0465(2)
O4_4 O 0.2695(4) 0.1723(3) 0.0767(3)
O5_4 O 0.2221(2) 0.0348(2) 0.2037(2)
O6_4 O 0.1681(3) 0.0554(3) 0.1935(3)
O7_4 O 0.4570(3) 0.2690(3) 0.3493(3)
O8_4 O 0.4656(3) 0.2112(3) 0.3514(3)
N1_4 N 0.2281(3) 0.1073(3) 0.0926(3)
N2_4 N 0.2741(4) 0.0667(5) 0.1650(4)
H1_4 H 0.2956 0.0718 0.1582
H2_4 H 0.2706 0.0548 0.1846
N3_4 N 0.3733(8) 0.2247(12) 0.2075(6)
H3_4 H 0.3677 0.2032 0.2011
C1_4 C 0.2846(4) 0.2010(5) 0.0730(4)
C2_4 C 0.3205(6) 0.2456(5) 0.1022(6)
H4_4 H 0.3175 0.2606 0.0825
C3_4 C 0.3038(5) 0.2131(5) 0.1031(4)
C4_4 C 0.3082(6) 0.1911(5) 0.1320(6)
H5_4 H 0.2968 0.1689 0.1326
C5_4 C 0.3292(7) 0.2016(7) 0.1599(5)
H6_4 H 0.3322 0.1866 0.1797
C6_4 C 0.3458(6) 0.2341(8) 0.1590(6)
C7_4 C 0.3415(7) 0.2561(6) 0.1302(8)
C8_4 C 0.3650(7) 0.2472(11) 0.1892(7)
C9_4 C 0.4320(4) 0.2353(4) 0.3062(3)
C10_4 C 0.4290(5) 0.2028(3) 0.2898(5)
H7_4 H 0.4398 0.1827 0.2999
C11_4 C 0.4102(5) 0.1997(4) 0.2587(5)
H8_4 H 0.4081 0.1775 0.2475
C12_4 C 0.3943(5) 0.2291(6) 0.2439(4)
C13_4 C 0.3973(5) 0.2616(5) 0.2603(5)
H9_4 H 0.3865 0.2817 0.2502
C14_4 C 0.4162(5) 0.2648(3) 0.2914(4)
H10_4 H 0.4182 0.2870 0.3026
C15_4 C 0.2002(4) 0.0521(3) 0.1864(4)
C16_4 C 0.4535(4) 0.2386(4) 0.3378(4)
C17_4 C 0.2105(3) 0.0704(3) 0.1542(3)
C18_4 C 0.2465(4) 0.0770(4) 0.1456(3)
C19_4 C 0.2534(4) 0.0960(4) 0.1145(4)
H11_4 H 0.2771 0.1011 0.1087
C20_4 C 0.1937(4) 0.0999(4) 0.1000(4)
H12_4 H 0.1756 0.1067 0.0842
C21_4 C 0.1857(3) 0.0826(4) 0.1307(3)
H13_4 H 0.1616 0.0788 0.1360
O9_4 O 0.3778(15) 0.2770(12) 0.195(2)
In5_3 In 0.50978(2) 0.20560(2) 0.38765(2)
In8_3 In 0.13765(2) 0.04440(2) 0.24022(2)
In9_4 In 0.49022(2) 0.29440(2) 0.38765(2)
In11_5 In 0.21909(3) 0.0000 0.2500
O18_4 O 0.2037(2) 0.2221(2) 0.0348(2)
O20_4 O 0.1935(3) 0.1681(3) 0.0554(3)
O24_4 O 0.2844(3) 0.1014(3) 0.0388(3)
H27_3 H 0.239806 0.2867 0.0223952
H29_4 H 0.354566 0.281557 0.129546
O1_7 O 0.2500 0.1657(2) 1.0000
O2_6 O 0.2500 0.2780(6) 1.0000
O10_4 O 0.2168(2) 0.2220(3) 0.9535(2)
O11_4 O 0.2305(4) 0.1723(3) 0.9233(3)
O12_4 O 0.2779(2) 0.0348(2) 0.7963(2)
O13_4 O 0.3319(3) 0.0554(3) 0.8065(3)
O14_4 O 0.0430(3) 0.2690(3) 0.6507(3)
O15_4 O 0.0344(3) 0.2112(3) 0.6486(3)
N4_4 N 0.2719(3) 0.1073(3) 0.9074(3)
N5_4 N 0.2259(4) 0.0667(5) 0.8350(4)
H14_4 H 0.2044 0.0718 0.8418
H15_4 H 0.2294 0.0548 0.8154
N6_4 N 0.1267(8) 0.2247(12) 0.7925(6)
H16_4 H 0.1323 0.2032 0.7989
C22_4 C 0.2154(4) 0.2010(5) 0.9270(4)
C23_4 C 0.1795(6) 0.2456(5) 0.8978(6)
H17_3 H 0.1825 0.2606 0.9175
C24_4 C 0.1962(5) 0.2131(5) 0.8969(4)
C25_4 C 0.1918(6) 0.1911(5) 0.8680(6)
H18_4 H 0.2032 0.1689 0.8674
C26_4 C 0.1708(7) 0.2016(7) 0.8401(5)
H19_4 H 0.1678 0.1866 0.8203
C27_4 C 0.1542(6) 0.2341(8) 0.8410(6)
C28_3 C 0.1585(7) 0.2561(6) 0.8698(8)
C29_4 C 0.1350(7) 0.2472(11) 0.8108(7)
C30_4 C 0.0680(4) 0.2353(4) 0.6938(3)
C31_4 C 0.0710(5) 0.2028(3) 0.7102(5)
H20_4 H 0.0602 0.1827 0.7001
C32_4 C 0.0898(5) 0.1997(4) 0.7413(5)
H21_4 H 0.0919 0.1775 0.7525
C33_4 C 0.1057(5) 0.2291(6) 0.7561(4)
C34_4 C 0.1027(5) 0.2616(5) 0.7397(5)
H22_4 H 0.1135 0.2817 0.7498
C35_4 C 0.0838(5) 0.2648(3) 0.7086(4)
H23_4 H 0.0818 0.2870 0.6974
C36_4 C 0.2998(4) 0.0521(3) 0.8136(4)
C37_4 C 0.0465(4) 0.2386(4) 0.6622(4)
C38_4 C 0.2895(3) 0.0704(3) 0.8458(3)
C39_4 C 0.2535(4) 0.0770(4) 0.8544(3)
C40_4 C 0.2466(4) 0.0960(4) 0.8855(4)
H24_4 H 0.2229 0.1011 0.8913
C41_4 C 0.3063(4) 0.0999(4) 0.9000(4)
H25_4 H 0.3244 0.1067 0.9158
C42_4 C 0.3143(3) 0.0826(4) 0.8693(3)
H26_4 H 0.3384 0.0788 0.8640
O16_3 O 0.1222(15) 0.2770(12) 0.805(2)
In4_4 In 0.00978(2) 0.29440(2) 0.61235(2)
In6_3 In 0.36235(2) 0.04440(2) 0.75978(2)
In10_6 In 0.28091(3) -0.0000 0.7500
O22_4 O 0.2930(3) 0.0993(3) 0.9810(3)
H28_3 H 0.235702 0.2867 0.979974
H30_3 H 0.145434 0.281557 0.870454
In11_6 In 0.21909(3) 1.0000 0.2500
In10_7 In 0.28091(3) 1.0000 0.7500
In7_3 In 0.99022(2) 0.20560(2) 0.61235(2)
In2_6 In 0.0000 0.2500 0.53091(3)
O1_8 O 0.0000 0.2500 0.5843(2)
O2_7 O 0.0000 0.2500 0.4720(6)
O5_5 O 0.0279(2) 0.4537(2) 0.7152(2)
O6_5 O 0.0819(3) 0.4435(3) 0.6946(3)
N1_5 N 0.0219(3) 0.3426(3) 0.6427(3)
C15_5 C 0.0498(4) 0.4364(4) 0.6979(3)
C17_5 C 0.0395(3) 0.4042(3) 0.6796(3)
C18_5 C 0.0035(4) 0.3956(3) 0.6730(4)
C20_5 C 0.0563(4) 0.3500(4) 0.6501(4)
H12_5 H 0.0744 0.3342 0.6433
C21_5 C 0.0643(3) 0.3807(3) 0.6674(4)
H13_5 H 0.0884 0.3860 0.6712
O10_5 O 0.0332(2) 0.2035(2) 0.5280(3)
O11_5 O 0.0195(4) 0.1733(3) 0.5777(3)
N5_5 N 0.0241(4) 0.0850(4) 0.6833(5)
H14_5 H 0.0456 0.0918 0.6782
H15_5 H 0.0206 0.0654 0.6952
N6_5 N 0.1233(8) 0.0425(6) 0.5253(12)
H16_5 H 0.1177 0.0489 0.5468
C22_5 C 0.0346(4) 0.1770(4) 0.5490(5)
C23_5 C 0.0705(6) 0.1478(6) 0.5044(5)
H17_4 H 0.0675 0.1675 0.4894
C24_5 C 0.0538(5) 0.1469(4) 0.5369(5)
C25_5 C 0.0582(6) 0.1180(6) 0.5589(5)
H18_5 H 0.0468 0.1174 0.5811
C26_5 C 0.0792(7) 0.0901(5) 0.5484(7)
H19_5 H 0.0822 0.0703 0.5634
C27_5 C 0.0958(6) 0.0910(6) 0.5159(8)
C28_4 C 0.0915(7) 0.1198(8) 0.4939(6)
C29_5 C 0.1150(7) 0.0608(7) 0.5028(11)
H21_5 H 0.1581 0.0025 0.5725
C33_5 C 0.1443(5) 0.0061(4) 0.5209(6)
C40_5 C 0.0034(4) 0.1355(4) 0.6540(4)
H24_5 H 0.0271 0.1413 0.6489
O16_4 O 0.1278(15) 0.055(2) 0.4730(12)
O18_5 O 0.0463(2) 0.2848(2) 0.5279(2)
O20_5 O 0.0565(3) 0.3054(3) 0.5819(3)
H27_4 H 0.0101938 0.272395 0.4633
H28_4 H 0.0142979 0.229974 0.4633
H30_4 H 0.104566 0.120454 0.468443
O14_5 O 0.2070(3) 0.9007(3) 0.4810(3)
O15_5 O 0.2156(3) 0.8986(3) 0.5388(3)
C30_5 C 0.1820(4) 0.9438(3) 0.5147(4)
C31_5 C 0.1790(5) 0.9602(5) 0.5472(3)
H20_5 H 0.1898 0.9501 0.5673
C32_5 C 0.1602(5) 0.9913(5) 0.5503(4)
C34_5 C 0.1473(5) 0.9897(5) 0.4884(5)
H22_5 H 0.1365 0.9998 0.4683
C35_5 C 0.1662(5) 0.9586(4) 0.4852(3)
H23_5 H 0.1682 0.9474 0.4630
C37_5 C 0.2035(4) 0.9122(4) 0.5114(4)
In7_4 In 0.25978(2) 0.86235(2) 0.54440(2)
In2_7 In 1.0000 0.2500 0.53091(3)
O1_9 O 1.0000 0.2500 0.5843(2)
O2_8 O 1.0000 0.2500 0.4720(6)
O3_5 O 0.9668(2) 0.2965(2) 0.5280(3)
O4_5 O 0.9805(4) 0.3267(3) 0.5777(3)
O7_5 O 0.7930(3) 0.5993(3) 0.4810(3)
O8_5 O 0.7844(3) 0.6014(3) 0.5388(3)
N2_5 N 0.9759(4) 0.4150(4) 0.6833(5)
H1_5 H 0.9544 0.4082 0.6782
H2_5 H 0.9794 0.4346 0.6952
N3_5 N 0.8767(8) 0.4575(6) 0.5253(12)
H3_5 H 0.8823 0.4511 0.5468
C1_5 C 0.9654(4) 0.3230(4) 0.5490(5)
C2_5 C 0.9295(6) 0.3522(6) 0.5044(5)
H4_5 H 0.9325 0.3325 0.4894
C3_5 C 0.9462(5) 0.3531(4) 0.5369(5)
C4_5 C 0.9418(6) 0.3820(6) 0.5589(5)
H5_5 H 0.9532 0.3826 0.5811
C5_5 C 0.9208(7) 0.4099(5) 0.5484(7)
H6_5 H 0.9178 0.4297 0.5634
C6_5 C 0.9042(6) 0.4090(6) 0.5159(8)
C7_5 C 0.9085(7) 0.3802(8) 0.4939(6)
C8_5 C 0.8850(7) 0.4392(7) 0.5028(11)
C9_5 C 0.8180(4) 0.5562(3) 0.5147(4)
C10_5 C 0.8210(5) 0.5398(5) 0.5472(3)
H7_5 H 0.8102 0.5499 0.5673
C11_5 C 0.8398(5) 0.5087(5) 0.5503(4)
H8_5 H 0.8419 0.4975 0.5725
C12_5 C 0.8557(5) 0.4939(4) 0.5209(6)
C13_5 C 0.8527(5) 0.5103(5) 0.4884(5)
H9_5 H 0.8635 0.5002 0.4683
C14_5 C 0.8338(5) 0.5414(4) 0.4852(3)
H10_5 H 0.8318 0.5526 0.4630
C16_5 C 0.7965(4) 0.5878(4) 0.5114(4)
C19_5 C 0.9966(4) 0.3645(4) 0.6540(4)
H11_5 H 0.9729 0.3587 0.6489
O9_5 O 0.8722(15) 0.445(2) 0.4730(12)
O12_5 O 0.9721(2) 0.0463(2) 0.7152(2)
O13_5 O 0.9181(3) 0.0565(3) 0.6946(3)
N4_5 N 0.9781(3) 0.1574(3) 0.6427(3)
C36_5 C 0.9502(4) 0.0636(4) 0.6979(3)
C38_5 C 0.9605(3) 0.0958(3) 0.6796(3)
C39_5 C 0.9965(4) 0.1044(3) 0.6730(4)
C41_5 C 0.9437(4) 0.1500(4) 0.6501(4)
H25_5 H 0.9256 0.1658 0.6433
C42_5 C 0.9357(3) 0.1193(3) 0.6674(4)
H26_5 H 0.9116 0.1140 0.6712
In5_4 In 0.74022(2) 0.63765(2) 0.54440(2)
O17_4 O 0.9537(2) 0.2152(2) 0.5279(2)
O19_4 O 0.9435(3) 0.1946(3) 0.5819(3)
O22_5 O 0.9570(3) 0.2310(3) 0.6507(3)
O24_5 O 0.9656(3) 0.2888(3) 0.6486(3)
H29_5 H 0.895434 0.379546 0.468443
O1_10 O 0.7500 0.3343(2) 0.0000
O2_9 O 0.7500 0.2220(6) 0.0000
O10_6 O 0.7168(2) 0.2780(3) 0.0465(2)
O11_6 O 0.7305(4) 0.3277(3) 0.0767(3)
O12_6 O 0.7779(2) 0.4652(2) 0.2037(2)
O13_6 O 0.8319(3) 0.4446(3) 0.1935(3)
O14_6 O 0.5430(3) 0.2310(3) 0.3493(3)
O15_6 O 0.5344(3) 0.2888(3) 0.3514(3)
N4_6 N 0.7719(3) 0.3927(3) 0.0926(3)
N5_6 N 0.7259(4) 0.4333(5) 0.1650(4)
H14_6 H 0.7044 0.4282 0.1582
H15_6 H 0.7294 0.4452 0.1846
N6_6 N 0.6267(8) 0.2753(12) 0.2075(6)
H16_6 H 0.6323 0.2968 0.2011
C22_6 C 0.7154(4) 0.2990(5) 0.0730(4)
C23_6 C 0.6795(6) 0.2544(5) 0.1022(6)
H17_5 H 0.6825 0.2394 0.0825
C24_6 C 0.6962(5) 0.2869(5) 0.1031(4)
C25_6 C 0.6918(6) 0.3089(5) 0.1320(6)
H18_6 H 0.7032 0.3311 0.1326
C26_6 C 0.6708(7) 0.2984(7) 0.1599(5)
H19_6 H 0.6678 0.3134 0.1797
C27_6 C 0.6542(6) 0.2659(8) 0.1590(6)
C28_5 C 0.6585(7) 0.2439(6) 0.1302(8)
C29_6 C 0.6350(7) 0.2528(11) 0.1892(7)
C30_6 C 0.5680(4) 0.2647(4) 0.3062(3)
C31_6 C 0.5710(5) 0.2972(3) 0.2898(5)
H20_6 H 0.5602 0.3173 0.2999
C32_6 C 0.5898(5) 0.3003(4) 0.2587(5)
H21_6 H 0.5919 0.3225 0.2475
C33_6 C 0.6057(5) 0.2709(6) 0.2439(4)
C34_6 C 0.6027(5) 0.2384(5) 0.2603(5)
H22_6 H 0.6135 0.2183 0.2502
C35_6 C 0.5838(5) 0.2352(3) 0.2914(4)
H23_6 H 0.5818 0.2130 0.3026
C36_6 C 0.7998(4) 0.4479(3) 0.1864(4)
C37_6 C 0.5465(4) 0.2614(4) 0.3378(4)
C38_6 C 0.7895(3) 0.4296(3) 0.1542(3)
C39_6 C 0.7535(4) 0.4230(4) 0.1456(3)
C40_6 C 0.7466(4) 0.4040(4) 0.1145(4)
H24_6 H 0.7229 0.3989 0.1087
C41_6 C 0.8063(4) 0.4001(4) 0.1000(4)
H25_6 H 0.8244 0.3933 0.0842
C42_6 C 0.8143(3) 0.4174(4) 0.1307(3)
H26_6 H 0.8384 0.4212 0.1360
O16_5 O 0.6222(15) 0.2230(12) 0.195(2)
In6_4 In 0.86235(2) 0.45560(2) 0.24022(2)
In10_8 In 0.78091(3) 0.5000 0.2500
O17_5 O 0.7963(2) 0.2779(2) 0.0348(2)
O19_5 O 0.8065(3) 0.3319(3) 0.0554(3)
O23_4 O 0.7156(3) 0.3986(3) 0.0388(3)
H28_5 H 0.735702 0.2133 0.0200257
H30_5 H 0.645434 0.218443 0.129546
O1_11 O 0.7500 0.3343(2) 1.0000
O2_10 O 0.7500 0.2220(6) 1.0000
O3_6 O 0.7832(2) 0.2780(3) 0.9535(2)
O4_6 O 0.7695(4) 0.3277(3) 0.9233(3)
O5_6 O 0.7221(2) 0.4652(2) 0.7963(2)
O6_6 O 0.6681(3) 0.4446(3) 0.8065(3)
N1_6 N 0.7281(3) 0.3927(3) 0.9074(3)
N2_6 N 0.7741(4) 0.4333(5) 0.8350(4)
H1_6 H 0.7956 0.4282 0.8418
H2_6 H 0.7706 0.4452 0.8154
N3_6 N 0.8733(8) 0.2753(12) 0.7925(6)
H3_6 H 0.8677 0.2968 0.7989
C1_6 C 0.7846(4) 0.2990(5) 0.9270(4)
C2_6 C 0.8205(6) 0.2544(5) 0.8978(6)
H4_6 H 0.8175 0.2394 0.9175
C3_6 C 0.8038(5) 0.2869(5) 0.8969(4)
C4_6 C 0.8082(6) 0.3089(5) 0.8680(6)
H5_6 H 0.7968 0.3311 0.8674
C5_6 C 0.8292(7) 0.2984(7) 0.8401(5)
H6_6 H 0.8322 0.3134 0.8203
C6_6 C 0.8458(6) 0.2659(8) 0.8410(6)
C7_6 C 0.8415(7) 0.2439(6) 0.8698(8)
C8_6 C 0.8650(7) 0.2528(11) 0.8108(7)
C9_6 C 0.9320(4) 0.2647(4) 0.6938(3)
C10_6 C 0.9290(5) 0.2972(3) 0.7102(5)
H7_6 H 0.9398 0.3173 0.7001
C11_6 C 0.9102(5) 0.3003(4) 0.7413(5)
H8_6 H 0.9081 0.3225 0.7525
C12_6 C 0.8943(5) 0.2709(6) 0.7561(4)
C13_6 C 0.8973(5) 0.2384(5) 0.7397(5)
H9_6 H 0.8865 0.2183 0.7498
C14_6 C 0.9162(5) 0.2352(3) 0.7086(4)
H10_6 H 0.9182 0.2130 0.6974
C15_6 C 0.7002(4) 0.4479(3) 0.8136(4)
C16_6 C 0.9535(4) 0.2614(4) 0.6622(4)
C17_6 C 0.7105(3) 0.4296(3) 0.8458(3)
C18_6 C 0.7465(4) 0.4230(4) 0.8544(3)
C19_6 C 0.7534(4) 0.4040(4) 0.8855(4)
H11_6 H 0.7771 0.3989 0.8913
C20_6 C 0.6937(4) 0.4001(4) 0.9000(4)
H12_6 H 0.6756 0.3933 0.9158
C21_6 C 0.6857(3) 0.4174(4) 0.8693(3)
H13_6 H 0.6616 0.4212 0.8640
O9_6 O 0.8778(15) 0.2230(12) 0.805(2)
In8_4 In 0.63765(2) 0.45560(2) 0.75978(2)
In11_7 In 0.71909(3) 0.5000 0.7500
O21_4 O 0.7070(3) 0.4007(3) 0.9810(3)
H27_5 H 0.739806 0.2133 0.977605
H29_6 H 0.854566 0.218443 0.870454
In10_9 In -0.0000 0.2500 0.21909(3)
In1_4 In 0.86235(2) 0.54440(2) 0.25978(2)
O1_12 O 0.8343(2) 0.5000 0.2500
O2_11 O 0.7220(6) 0.5000 0.2500
O3_7 O 0.7780(3) 0.5465(2) 0.2168(2)
O4_7 O 0.8277(3) 0.5767(3) 0.2305(4)
O7_6 O 0.7310(3) 0.8493(3) 0.0430(3)
O8_6 O 0.7888(3) 0.8514(3) 0.0344(3)
N1_7 N 0.8927(3) 0.5926(3) 0.2719(3)
N2_7 N 0.9333(5) 0.6650(4) 0.2259(4)
H1_7 H 0.9282 0.6582 0.2044
H2_7 H 0.9452 0.6846 0.2294
N3_7 N 0.7753(12) 0.7075(6) 0.1267(8)
H3_7 H 0.7968 0.7011 0.1323
C1_7 C 0.7990(5) 0.5730(4) 0.2154(4)
C2_7 C 0.7544(5) 0.6022(6) 0.1795(6)
H4_7 H 0.7394 0.5825 0.1825
C3_7 C 0.7869(5) 0.6031(4) 0.1962(5)
C4_7 C 0.8089(5) 0.6320(6) 0.1918(6)
H5_7 H 0.8311 0.6326 0.2032
C5_7 C 0.7984(7) 0.6599(5) 0.1708(7)
H6_7 H 0.8134 0.6797 0.1678
C6_7 C 0.7659(8) 0.6590(6) 0.1542(6)
C7_7 C 0.7439(6) 0.6302(8) 0.1585(7)
C8_7 C 0.7528(11) 0.6892(7) 0.1350(7)
C9_7 C 0.7647(4) 0.8062(3) 0.0680(4)
C10_7 C 0.7972(3) 0.7898(5) 0.0710(5)
H7_7 H 0.8173 0.7999 0.0602
C11_7 C 0.8003(4) 0.7587(5) 0.0898(5)
H8_7 H 0.8225 0.7475 0.0919
C12_7 C 0.7709(6) 0.7439(4) 0.1057(5)
C13_7 C 0.7384(5) 0.7603(5) 0.1027(5)
H9_7 H 0.7183 0.7502 0.1135
C14_7 C 0.7352(3) 0.7914(4) 0.0838(5)
H10_7 H 0.7130 0.8026 0.0818
C15_7 C 0.9479(3) 0.6864(4) 0.2998(4)
C16_7 C 0.7614(4) 0.8378(4) 0.0465(4)
C17_7 C 0.9296(3) 0.6542(3) 0.2895(3)
C18_7 C 0.9230(4) 0.6456(3) 0.2535(4)
C19_7 C 0.9040(4) 0.6145(4) 0.2466(4)
H11_7 H 0.8989 0.6087 0.2229
C20_7 C 0.9001(4) 0.6000(4) 0.3063(4)
H12_7 H 0.8933 0.5842 0.3244
C21_7 C 0.9174(4) 0.6307(3) 0.3143(3)
H13_7 H 0.9212 0.6360 0.3384
O9_7 O 0.7230(12) 0.695(2) 0.1222(15)
O10_7 O 0.7780(3) 0.4535(2) 0.2832(2)
O11_7 O 0.8277(3) 0.4233(3) 0.2695(4)
O12_7 O 0.9652(2) 0.2963(2) 0.2221(2)
O13_7 O 0.9446(3) 0.3065(3) 0.1681(3)
O14_7 O 0.7310(3) 0.1507(3) 0.4570(3)
O15_7 O 0.7888(3) 0.1486(3) 0.4656(3)
N4_7 N 0.8927(3) 0.4074(3) 0.2281(3)
N5_7 N 0.9333(5) 0.3350(4) 0.2741(4)
H14_7 H 0.9282 0.3418 0.2956
H15_7 H 0.9452 0.3154 0.2706
N6_7 N 0.7753(12) 0.2925(6) 0.3733(8)
H16_7 H 0.7968 0.2989 0.3677
C22_7 C 0.7990(5) 0.4270(4) 0.2846(4)
C23_7 C 0.7544(5) 0.3978(6) 0.3205(6)
H17_6 H 0.7394 0.4175 0.3175
C24_7 C 0.7869(5) 0.3969(4) 0.3038(5)
C25_7 C 0.8089(5) 0.3680(6) 0.3082(6)
H18_7 H 0.8311 0.3674 0.2968
C26_7 C 0.7984(7) 0.3401(5) 0.3292(7)
H19_7 H 0.8134 0.3203 0.3322
C27_7 C 0.7659(8) 0.3410(6) 0.3458(6)
C28_6 C 0.7439(6) 0.3698(8) 0.3415(7)
C29_7 C 0.7528(11) 0.3108(7) 0.3650(7)
C30_7 C 0.7647(4) 0.1938(3) 0.4320(4)
C31_7 C 0.7972(3) 0.2102(5) 0.4290(5)
H20_7 H 0.8173 0.2001 0.4398
C32_7 C 0.8003(4) 0.2413(5) 0.4102(5)
H21_7 H 0.8225 0.2525 0.4081
C33_7 C 0.7709(6) 0.2561(4) 0.3943(5)
C34_7 C 0.7384(5) 0.2397(5) 0.3973(5)
H22_7 H 0.7183 0.2498 0.3865
C35_7 C 0.7352(3) 0.2086(4) 0.4162(5)
H23_7 H 0.7130 0.1974 0.4182
C36_7 C 0.9479(3) 0.3136(4) 0.2002(4)
C37_7 C 0.7614(4) 0.1622(4) 0.4535(4)
C38_7 C 0.9296(3) 0.3458(3) 0.2105(3)
C39_7 C 0.9230(4) 0.3544(3) 0.2465(4)
C40_7 C 0.9040(4) 0.3855(4) 0.2534(4)
H24_7 H 0.8989 0.3913 0.2771
C41_7 C 0.9001(4) 0.4000(4) 0.1937(4)
H25_7 H 0.8933 0.4158 0.1756
C42_7 C 0.9174(4) 0.3693(3) 0.1857(3)
H26_7 H 0.9212 0.3640 0.1616
O16_6 O 0.7230(12) 0.305(2) 0.3778(15)
In4_5 In 0.70560(2) 0.11235(2) 0.49022(2)
In6_5 In 0.95560(2) 0.25978(2) 0.13765(2)
In7_5 In 0.79440(2) 0.11235(2) 0.50978(2)
In9_5 In 0.70560(2) 0.88765(2) 0.00978(2)
In10_10 In 1.0000 0.2500 0.21909(3)
O18_6 O 0.7779(2) 0.5348(2) 0.2963(2)
O20_6 O 0.8319(3) 0.5554(3) 0.3065(3)
O21_5 O 0.9007(3) 0.5190(3) 0.2930(3)
O22_6 O 0.9007(3) 0.4810(3) 0.2070(3)
O23_5 O 0.8986(3) 0.4612(3) 0.2844(3)
O24_6 O 0.8986(3) 0.5388(3) 0.2156(3)
H29_7 H 0.718443 0.629546 0.145434
H30_6 H 0.718443 0.370454 0.354566
In5_5 In 0.79440(2) 0.88765(2) 0.99022(2)
C30_8 C 0.3180(4) 0.0562(3) 0.0147(4)
C31_8 C 0.3210(5) 0.0398(5) 0.0472(3)
H20_8 H 0.3102 0.0499 0.0673
C32_8 C 0.3398(5) 0.0087(5) 0.0503(4)
C37_8 C 0.2965(4) 0.0878(4) 0.0114(4)
In10_11 In 0.53091(3) 0.0000 0.2500
C34_8 C 0.3527(5) 0.0103(5) 0.9884(5)
H22_8 H 0.3635 0.0002 0.9683
C35_8 C 0.3338(5) 0.0414(4) 0.9852(3)
H23_8 H 0.3318 0.0526 0.9630
In1_5 In 0.49022(2) 0.70560(2) 0.11235(2)
In2_8 In 0.5000 0.7500 0.03091(3)
O1_13 O 0.5000 0.7500 0.0843(2)
O3_8 O 0.5332(2) 0.7035(2) 0.0280(3)
O4_8 O 0.5195(4) 0.6733(3) 0.0777(3)
O5_7 O 0.4721(2) 0.5463(2) 0.2152(2)
O6_7 O 0.4181(3) 0.5565(3) 0.1946(3)
N1_8 N 0.4781(3) 0.6574(3) 0.1427(3)
N2_8 N 0.5241(4) 0.5850(4) 0.1833(5)
H1_8 H 0.5456 0.5918 0.1782
H2_8 H 0.5206 0.5654 0.1952
N3_8 N 0.6233(8) 0.5425(6) 0.0253(12)
H3_8 H 0.6177 0.5489 0.0468
C1_8 C 0.5346(4) 0.6770(4) 0.0490(5)
C2_8 C 0.5705(6) 0.6478(6) 0.0044(5)
C3_8 C 0.5538(5) 0.6469(4) 0.0369(5)
C4_8 C 0.5582(6) 0.6180(6) 0.0589(5)
H5_8 H 0.5468 0.6174 0.0811
C5_8 C 0.5792(7) 0.5901(5) 0.0484(7)
H6_8 H 0.5822 0.5703 0.0634
C6_8 C 0.5958(6) 0.5910(6) 0.0159(8)
C8_8 C 0.6150(7) 0.5608(7) 0.0028(11)
C9_8 C 0.6820(4) 0.4438(3) 0.0147(4)
C10_8 C 0.6790(5) 0.4602(5) 0.0472(3)
H7_8 H 0.6898 0.4501 0.0673
C11_8 C 0.6602(5) 0.4913(5) 0.0503(4)
H8_8 H 0.6581 0.5025 0.0725
C12_8 C 0.6443(5) 0.5061(4) 0.0209(6)
C15_8 C 0.4502(4) 0.5636(4) 0.1979(3)
C16_8 C 0.7035(4) 0.4122(4) 0.0114(4)
C17_8 C 0.4605(3) 0.5958(3) 0.1796(3)
C18_8 C 0.4965(4) 0.6044(3) 0.1730(4)
C19_8 C 0.5034(4) 0.6355(4) 0.1540(4)
H11_8 H 0.5271 0.6413 0.1489
C20_8 C 0.4437(4) 0.6500(4) 0.1501(4)
H12_8 H 0.4256 0.6658 0.1433
C21_8 C 0.4357(3) 0.6193(3) 0.1674(4)
H13_8 H 0.4116 0.6140 0.1712
In3_4 In 0.50978(2) 0.79440(2) 0.11235(2)
O10_8 O 0.4668(2) 0.7965(2) 0.0280(3)
O11_8 O 0.4805(4) 0.8267(3) 0.0777(3)
O12_8 O 0.5279(2) 0.9537(2) 0.2152(2)
O13_8 O 0.5819(3) 0.9435(3) 0.1946(3)
N4_8 N 0.5219(3) 0.8426(3) 0.1427(3)
N5_8 N 0.4759(4) 0.9150(4) 0.1833(5)
H14_8 H 0.4544 0.9082 0.1782
H15_8 H 0.4794 0.9346 0.1952
N6_8 N 0.3767(8) 0.9575(6) 0.0253(12)
H16_8 H 0.3823 0.9511 0.0468
C22_8 C 0.4654(4) 0.8230(4) 0.0490(5)
C23_8 C 0.4295(6) 0.8522(6) 0.0044(5)
C24_8 C 0.4462(5) 0.8531(4) 0.0369(5)
C25_8 C 0.4418(6) 0.8820(6) 0.0589(5)
H18_8 H 0.4532 0.8826 0.0811
C26_8 C 0.4208(7) 0.9099(5) 0.0484(7)
H19_8 H 0.4178 0.9297 0.0634
C27_8 C 0.4042(6) 0.9090(6) 0.0159(8)
C29_8 C 0.3850(7) 0.9392(7) 0.0028(11)
H21_8 H 0.3419 0.9975 0.0725
C33_8 C 0.3557(5) 0.9939(4) 0.0209(6)
C36_8 C 0.5498(4) 0.9364(4) 0.1979(3)
C38_8 C 0.5395(3) 0.9042(3) 0.1796(3)
C39_8 C 0.5035(4) 0.8956(3) 0.1730(4)
C40_8 C 0.4966(4) 0.8645(4) 0.1540(4)
H24_8 H 0.4729 0.8587 0.1489
C41_8 C 0.5563(4) 0.8500(4) 0.1501(4)
H25_8 H 0.5744 0.8342 0.1433
C42_8 C 0.5643(3) 0.8807(3) 0.1674(4)
H26_8 H 0.5884 0.8860 0.1712
In10_12 In 0.53091(3) 1.0000 0.2500
In11_8 In 0.46909(3) 0.5000 0.2500
O17_6 O 0.5463(2) 0.7848(2) 0.0279(2)
O18_7 O 0.4537(2) 0.7152(2) 0.0279(2)
O19_6 O 0.5565(3) 0.8054(3) 0.0819(3)
O20_7 O 0.4435(3) 0.6946(3) 0.0819(3)
O21_6 O 0.4570(3) 0.7310(3) 0.1507(3)
O22_7 O 0.5430(3) 0.7690(3) 0.1507(3)
O23_6 O 0.4656(3) 0.7888(3) 0.1486(3)
O24_7 O 0.5344(3) 0.7112(3) 0.1486(3)
O2_12 O 0.5000 0.7500 0.9720(6)
H4_8 H 0.5675 0.6675 0.9894
C7_8 C 0.5915(7) 0.6198(8) 0.9939(6)
C13_8 C 0.6473(5) 0.4897(5) 0.9884(5)
H9_8 H 0.6365 0.4998 0.9683
C14_8 C 0.6662(5) 0.4586(4) 0.9852(3)
H10_8 H 0.6682 0.4474 0.9630
O9_8 O 0.6278(15) 0.555(2) 0.9730(12)
H17_7 H 0.4325 0.8325 0.9894
C28_7 C 0.4085(7) 0.8802(8) 0.9939(6)
O16_7 O 0.3722(15) 0.945(2) 0.9730(12)
H29_8 H 0.604566 0.620454 0.968443
H30_7 H 0.395434 0.879546 0.968443
O1_14 O 0.1657(2) 0.0000 0.2500
O2_13 O 0.2780(6) 0.0000 0.2500
O3_9 O 0.2220(3) 0.0465(2) 0.2832(2)
O4_9 O 0.1723(3) 0.0767(3) 0.2695(4)
O5_8 O 0.0348(2) 0.2037(2) 0.2221(2)
O6_8 O 0.0554(3) 0.1935(3) 0.1681(3)
O7_7 O 0.2690(3) 0.3493(3) 0.4570(3)
O8_7 O 0.2112(3) 0.3514(3) 0.4656(3)
N1_9 N 0.1073(3) 0.0926(3) 0.2281(3)
N2_9 N 0.0667(5) 0.1650(4) 0.2741(4)
H1_9 H 0.0718 0.1582 0.2956
H2_9 H 0.0548 0.1846 0.2706
N3_9 N 0.2247(12) 0.2075(6) 0.3733(8)
H3_9 H 0.2032 0.2011 0.3677
C1_9 C 0.2010(5) 0.0730(4) 0.2846(4)
C2_9 C 0.2456(5) 0.1022(6) 0.3205(6)
H4_9 H 0.2606 0.0825 0.3175
C3_9 C 0.2131(5) 0.1031(4) 0.3038(5)
C4_9 C 0.1911(5) 0.1320(6) 0.3082(6)
H5_9 H 0.1689 0.1326 0.2968
C5_9 C 0.2016(7) 0.1599(5) 0.3292(7)
H6_9 H 0.1866 0.1797 0.3322
C6_9 C 0.2341(8) 0.1590(6) 0.3458(6)
C7_9 C 0.2561(6) 0.1302(8) 0.3415(7)
C8_9 C 0.2472(11) 0.1892(7) 0.3650(7)
C9_9 C 0.2353(4) 0.3062(3) 0.4320(4)
C10_9 C 0.2028(3) 0.2898(5) 0.4290(5)
H7_9 H 0.1827 0.2999 0.4398
C11_9 C 0.1997(4) 0.2587(5) 0.4102(5)
H8_9 H 0.1775 0.2475 0.4081
C12_9 C 0.2291(6) 0.2439(4) 0.3943(5)
C13_9 C 0.2616(5) 0.2603(5) 0.3973(5)
H9_9 H 0.2817 0.2502 0.3865
C14_9 C 0.2648(3) 0.2914(4) 0.4162(5)
H10_9 H 0.2870 0.3026 0.4182
C15_9 C 0.0521(3) 0.1864(4) 0.2002(4)
C16_9 C 0.2386(4) 0.3378(4) 0.4535(4)
C17_9 C 0.0704(3) 0.1542(3) 0.2105(3)
C18_9 C 0.0770(4) 0.1456(3) 0.2465(4)
C19_9 C 0.0960(4) 0.1145(4) 0.2534(4)
H11_9 H 0.1011 0.1087 0.2771
C20_9 C 0.0999(4) 0.1000(4) 0.1937(4)
H12_9 H 0.1067 0.0842 0.1756
C21_9 C 0.0826(4) 0.1307(3) 0.1857(3)
H13_9 H 0.0788 0.1360 0.1616
O9_9 O 0.2770(12) 0.195(2) 0.3778(15)
In5_6 In 0.20560(2) 0.38765(2) 0.50978(2)
In8_5 In 0.04440(2) 0.24022(2) 0.13765(2)
In9_6 In 0.29440(2) 0.38765(2) 0.49022(2)
O21_7 O 0.0993(3) 0.0190(3) 0.2070(3)
O24_8 O 0.1014(3) 0.0388(3) 0.2844(3)
H27_6 H 0.2867 0.0223952 0.239806
H29_9 H 0.281557 0.129546 0.354566
O1_15 O 0.1657(2) 1.0000 0.2500
O2_14 O 0.2780(6) 1.0000 0.2500
In3_5 In 0.13765(2) 0.95560(2) 0.25978(2)
O10_9 O 0.2220(3) 0.9535(2) 0.2168(2)
O11_9 O 0.1723(3) 0.9233(3) 0.2305(4)
O14_8 O 0.2690(3) 0.6507(3) 0.0430(3)
O15_8 O 0.2112(3) 0.6486(3) 0.0344(3)
N4_9 N 0.1073(3) 0.9074(3) 0.2719(3)
N5_9 N 0.0667(5) 0.8350(4) 0.2259(4)
H14_9 H 0.0718 0.8418 0.2044
H15_9 H 0.0548 0.8154 0.2294
N6_9 N 0.2247(12) 0.7925(6) 0.1267(8)
H16_9 H 0.2032 0.7989 0.1323
C22_9 C 0.2010(5) 0.9270(4) 0.2154(4)
C23_9 C 0.2456(5) 0.8978(6) 0.1795(6)
H17_8 H 0.2606 0.9175 0.1825
C24_9 C 0.2131(5) 0.8969(4) 0.1962(5)
C25_9 C 0.1911(5) 0.8680(6) 0.1918(6)
H18_9 H 0.1689 0.8674 0.2032
C26_9 C 0.2016(7) 0.8401(5) 0.1708(7)
H19_9 H 0.1866 0.8203 0.1678
C27_9 C 0.2341(8) 0.8410(6) 0.1542(6)
C28_8 C 0.2561(6) 0.8698(8) 0.1585(7)
C29_9 C 0.2472(11) 0.8108(7) 0.1350(7)
C30_9 C 0.2353(4) 0.6938(3) 0.0680(4)
C31_9 C 0.2028(3) 0.7102(5) 0.0710(5)
H20_9 H 0.1827 0.7001 0.0602
C32_9 C 0.1997(4) 0.7413(5) 0.0898(5)
H21_9 H 0.1775 0.7525 0.0919
C33_9 C 0.2291(6) 0.7561(4) 0.1057(5)
C34_9 C 0.2616(5) 0.7397(5) 0.1027(5)
H22_9 H 0.2817 0.7498 0.1135
C35_9 C 0.2648(3) 0.7086(4) 0.0838(5)
H23_9 H 0.2870 0.6974 0.0818
C36_9 C 0.0521(3) 0.8136(4) 0.2998(4)
C37_9 C 0.2386(4) 0.6622(4) 0.0465(4)
C38_9 C 0.0704(3) 0.8458(3) 0.2895(3)
C39_9 C 0.0770(4) 0.8544(3) 0.2535(4)
C40_9 C 0.0960(4) 0.8855(4) 0.2466(4)
H24_9 H 0.1011 0.8913 0.2229
C41_9 C 0.0999(4) 0.9000(4) 0.3063(4)
H25_9 H 0.1067 0.9158 0.3244
C42_9 C 0.0826(4) 0.8693(3) 0.3143(3)
H26_9 H 0.0788 0.8640 0.3384
O16_8 O 0.2770(12) 0.805(2) 0.1222(15)
In4_6 In 0.29440(2) 0.61235(2) 0.00978(2)
O17_7 O 0.2221(2) 0.9652(2) 0.2963(2)
O19_7 O 0.1681(3) 0.9446(3) 0.3065(3)
O22_8 O 0.0993(3) 0.9810(3) 0.2930(3)
O23_7 O 0.1014(3) 0.9612(3) 0.2156(3)
H28_6 H 0.2867 0.979974 0.235702
H30_8 H 0.281557 0.870454 0.145434
In7_6 In 0.20560(2) 0.61235(2) 0.99022(2)
O14_9 O 0.0190(3) 0.2070(3) 0.0993(3)
C34_10 C 0.0116(5) 0.1473(5) 0.0103(5)
H22_10 H 0.0317 0.1365 0.0002
C35_10 C 0.0148(3) 0.1662(5) 0.0414(4)
H23_10 H 0.0370 0.1682 0.0526
O2_15 O 0.0280(6) 1.0000 0.7500
H4_10 H 0.0106 0.9325 0.6675
C7_10 C 0.0061(6) 0.9085(7) 0.6198(8)
C13_10 C 0.0116(5) 0.8527(5) 0.4897(5)
H9_10 H 0.0317 0.8635 0.4998
C14_10 C 0.0148(3) 0.8338(5) 0.4586(4)
H10_10 H 0.0370 0.8318 0.4474
O9_10 O 0.0270(12) 0.8722(15) 0.555(2)
H29_10 H 0.0315571 0.895434 0.620454
O15_9 O 0.9612(3) 0.2156(3) 0.1014(3)
C30_10 C 0.9853(4) 0.1820(4) 0.0562(3)
C31_10 C 0.9528(3) 0.1790(5) 0.0398(5)
H20_10 H 0.9327 0.1898 0.0499
C32_10 C 0.9497(4) 0.1602(5) 0.0087(5)
C37_10 C 0.9886(4) 0.2035(4) 0.0878(4)
O1_16 O 0.9157(2) 0.0000 0.7500
O5_9 O 0.7848(2) 0.0279(2) 0.5463(2)
O6_9 O 0.8054(3) 0.0819(3) 0.5565(3)
N1_10 N 0.8573(3) 0.0219(3) 0.6574(3)
C15_10 C 0.8021(3) 0.0498(4) 0.5636(4)
C17_10 C 0.8204(3) 0.0395(3) 0.5958(3)
C18_10 C 0.8270(4) 0.0035(4) 0.6044(3)
C20_10 C 0.8499(4) 0.0563(4) 0.6500(4)
H12_10 H 0.8567 0.0744 0.6658
C21_10 C 0.8326(4) 0.0643(3) 0.6193(3)
H13_10 H 0.8288 0.0884 0.6140
O10_10 O 0.9720(3) 0.0332(2) 0.7965(2)
O11_10 O 0.9223(3) 0.0195(4) 0.8267(3)
N5_10 N 0.8167(5) 0.0241(4) 0.9150(4)
H14_10 H 0.8218 0.0456 0.9082
H15_10 H 0.8048 0.0206 0.9346
N6_10 N 0.9747(12) 0.1233(8) 0.9575(6)
H16_10 H 0.9532 0.1177 0.9511
C22_10 C 0.9510(5) 0.0346(4) 0.8230(4)
C23_10 C 0.9956(5) 0.0705(6) 0.8522(6)
C24_10 C 0.9631(5) 0.0538(5) 0.8531(4)
C25_10 C 0.9411(5) 0.0582(6) 0.8820(6)
H18_10 H 0.9189 0.0468 0.8826
C26_10 C 0.9516(7) 0.0792(7) 0.9099(5)
H19_10 H 0.9366 0.0822 0.9297
C27_10 C 0.9841(8) 0.0958(6) 0.9090(6)
C29_10 C 0.9972(11) 0.1150(7) 0.9392(7)
H21_10 H 0.9275 0.1581 0.9975
C33_10 C 0.9791(6) 0.1443(5) 0.9939(4)
C40_10 C 0.8460(4) 0.0034(4) 0.8645(4)
H24_10 H 0.8511 0.0271 0.8587
In11_9 In 0.7500 0.03091(3) 0.5000
In10_13 In 0.7500 0.96909(3) 0.0000
O1_17 O 0.9157(2) 1.0000 0.7500
O3_10 O 0.9720(3) 0.9668(2) 0.7035(2)
O4_10 O 0.9223(3) 0.9805(4) 0.6733(3)
N2_10 N 0.8167(5) 0.9759(4) 0.5850(4)
H1_10 H 0.8218 0.9544 0.5918
H2_10 H 0.8048 0.9794 0.5654
N3_10 N 0.9747(12) 0.8767(8) 0.5425(6)
H3_10 H 0.9532 0.8823 0.5489
C1_10 C 0.9510(5) 0.9654(4) 0.6770(4)
C2_10 C 0.9956(5) 0.9295(6) 0.6478(6)
C3_10 C 0.9631(5) 0.9462(5) 0.6469(4)
C4_10 C 0.9411(5) 0.9418(6) 0.6180(6)
H5_10 H 0.9189 0.9532 0.6174
C5_10 C 0.9516(7) 0.9208(7) 0.5901(5)
H6_10 H 0.9366 0.9178 0.5703
C6_10 C 0.9841(8) 0.9042(6) 0.5910(6)
C8_10 C 0.9972(11) 0.8850(7) 0.5608(7)
C9_10 C 0.9853(4) 0.8180(4) 0.4438(3)
C10_10 C 0.9528(3) 0.8210(5) 0.4602(5)
H7_10 H 0.9327 0.8102 0.4501
C11_10 C 0.9497(4) 0.8398(5) 0.4913(5)
H8_10 H 0.9275 0.8419 0.5025
C12_10 C 0.9791(6) 0.8557(5) 0.5061(4)
C16_10 C 0.9886(4) 0.7965(4) 0.4122(4)
C19_10 C 0.8460(4) 0.9966(4) 0.6355(4)
H11_10 H 0.8511 0.9729 0.6413
O12_9 O 0.7848(2) 0.9721(2) 0.9537(2)
O13_9 O 0.8054(3) 0.9181(3) 0.9435(3)
N4_10 N 0.8573(3) 0.9781(3) 0.8426(3)
C36_10 C 0.8021(3) 0.9502(4) 0.9364(4)
C38_10 C 0.8204(3) 0.9605(3) 0.9042(3)
C39_10 C 0.8270(4) 0.9965(4) 0.8956(3)
C41_10 C 0.8499(4) 0.9437(4) 0.8500(4)
H25_10 H 0.8567 0.9256 0.8342
C42_10 C 0.8326(4) 0.9357(3) 0.8807(3)
H26_10 H 0.8288 0.9116 0.8860
In10_14 In 0.7500 0.96909(3) 1.0000
O22_9 O 0.8493(3) 0.9570(3) 0.7690(3)
O24_9 O 0.8514(3) 0.9656(3) 0.7112(3)
C34_11 C 0.0103(5) 0.0116(5) 0.1473(5)
H22_11 H 0.0002 0.0317 0.1365
C35_11 C 0.0414(4) 0.0148(3) 0.1662(5)
H23_11 H 0.0526 0.0370 0.1682
C30_11 C 0.0562(3) 0.9853(4) 0.1820(4)
C31_11 C 0.0398(5) 0.9528(3) 0.1790(5)
H20_11 H 0.0499 0.9327 0.1898
C32_11 C 0.0087(5) 0.9497(4) 0.1602(5)
C37_11 C 0.0878(4) 0.9886(4) 0.2035(4)
O2_16 O 0.7500 0.0280(6) 1.0000
O7_8 O 0.4007(3) 0.0190(3) 0.7930(3)
H4_11 H 0.6675 0.0106 0.9325
C7_11 C 0.6198(8) 0.0061(6) 0.9085(7)
C13_11 C 0.4897(5) 0.0116(5) 0.8527(5)
H9_11 H 0.4998 0.0317 0.8635
C14_11 C 0.4586(4) 0.0148(3) 0.8338(5)
H10_11 H 0.4474 0.0370 0.8318
O9_11 O 0.555(2) 0.0270(12) 0.8722(15)
H29_11 H 0.620454 0.0315571 0.895434
O1_18 O 0.7500 0.9157(2) 0.0000
N1_11 N 0.6574(3) 0.8573(3) 0.0219(3)
C15_11 C 0.5636(4) 0.8021(3) 0.0498(4)
C17_11 C 0.5958(3) 0.8204(3) 0.0395(3)
C18_11 C 0.6044(3) 0.8270(4) 0.0035(4)
C20_11 C 0.6500(4) 0.8499(4) 0.0563(4)
H12_11 H 0.6658 0.8567 0.0744
C21_11 C 0.6193(3) 0.8326(4) 0.0643(3)
H13_11 H 0.6140 0.8288 0.0884
O10_11 O 0.7965(2) 0.9720(3) 0.0332(2)
O11_11 O 0.8267(3) 0.9223(3) 0.0195(4)
N5_11 N 0.9150(4) 0.8167(5) 0.0241(4)
H14_11 H 0.9082 0.8218 0.0456
H15_11 H 0.9346 0.8048 0.0206
N6_11 N 0.9575(6) 0.9747(12) 0.1233(8)
H16_11 H 0.9511 0.9532 0.1177
C22_11 C 0.8230(4) 0.9510(5) 0.0346(4)
C23_11 C 0.8522(6) 0.9956(5) 0.0705(6)
C24_11 C 0.8531(4) 0.9631(5) 0.0538(5)
C25_11 C 0.8820(6) 0.9411(5) 0.0582(6)
H18_11 H 0.8826 0.9189 0.0468
C26_11 C 0.9099(5) 0.9516(7) 0.0792(7)
H19_11 H 0.9297 0.9366 0.0822
C27_11 C 0.9090(6) 0.9841(8) 0.0958(6)
C29_11 C 0.9392(7) 0.9972(11) 0.1150(7)
H21_11 H 0.9975 0.9275 0.1581
C33_11 C 0.9939(4) 0.9791(6) 0.1443(5)
C40_11 C 0.8645(4) 0.8460(4) 0.0034(4)
H24_11 H 0.8587 0.8511 0.0271
O18_8 O 0.7152(2) 0.9721(2) 0.0463(2)
O20_8 O 0.6946(3) 0.9181(3) 0.0565(3)
O1_19 O 0.7500 0.9157(2) 1.0000
O3_11 O 0.7035(2) 0.9720(3) 0.9668(2)
O4_11 O 0.6733(3) 0.9223(3) 0.9805(4)
O8_8 O 0.3986(3) 0.9612(3) 0.7844(3)
N2_11 N 0.5850(4) 0.8167(5) 0.9759(4)
H1_11 H 0.5918 0.8218 0.9544
H2_11 H 0.5654 0.8048 0.9794
N3_11 N 0.5425(6) 0.9747(12) 0.8767(8)
H3_11 H 0.5489 0.9532 0.8823
C1_11 C 0.6770(4) 0.9510(5) 0.9654(4)
C2_11 C 0.6478(6) 0.9956(5) 0.9295(6)
C3_11 C 0.6469(4) 0.9631(5) 0.9462(5)
C4_11 C 0.6180(6) 0.9411(5) 0.9418(6)
H5_11 H 0.6174 0.9189 0.9532
C5_11 C 0.5901(5) 0.9516(7) 0.9208(7)
H6_11 H 0.5703 0.9366 0.9178
C6_11 C 0.5910(6) 0.9841(8) 0.9042(6)
C8_11 C 0.5608(7) 0.9972(11) 0.8850(7)
C9_11 C 0.4438(3) 0.9853(4) 0.8180(4)
C10_11 C 0.4602(5) 0.9528(3) 0.8210(5)
H7_11 H 0.4501 0.9327 0.8102
C11_11 C 0.4913(5) 0.9497(4) 0.8398(5)
H8_11 H 0.5025 0.9275 0.8419
C12_11 C 0.5061(4) 0.9791(6) 0.8557(5)
C16_11 C 0.4122(4) 0.9886(4) 0.7965(4)
C19_11 C 0.6355(4) 0.8460(4) 0.9966(4)
H11_11 H 0.6413 0.8511 0.9729
N4_11 N 0.8426(3) 0.8573(3) 0.9781(3)
C36_11 C 0.9364(4) 0.8021(3) 0.9502(4)
C38_11 C 0.9042(3) 0.8204(3) 0.9605(3)
C39_11 C 0.8956(3) 0.8270(4) 0.9965(4)
C41_11 C 0.8500(4) 0.8499(4) 0.9437(4)
H25_11 H 0.8342 0.8567 0.9256
C42_11 C 0.8807(3) 0.8326(4) 0.9357(3)
H26_11 H 0.8860 0.8288 0.9116
In5_7 In 0.36235(2) 0.95560(2) 0.74022(2)
O22_10 O 0.7690(3) 0.8493(3) 0.9570(3)
O24_10 O 0.7112(3) 0.8514(3) 0.9656(3)
In2_9 In 0.2500 0.53091(3) 0.0000
O1_20 O 0.2500 0.5843(2) 0.0000
O2_17 O 0.2500 0.4720(6) 0.0000
N1_12 N 0.3426(3) 0.6427(3) 0.0219(3)
C15_12 C 0.4364(4) 0.6979(3) 0.0498(4)
C17_12 C 0.4042(3) 0.6796(3) 0.0395(3)
C18_12 C 0.3956(3) 0.6730(4) 0.0035(4)
C20_12 C 0.3500(4) 0.6501(4) 0.0563(4)
H12_12 H 0.3342 0.6433 0.0744
C21_12 C 0.3807(3) 0.6674(4) 0.0643(3)
H13_12 H 0.3860 0.6712 0.0884
O10_12 O 0.2035(2) 0.5280(3) 0.0332(2)
O11_12 O 0.1733(3) 0.5777(3) 0.0195(4)
N5_12 N 0.0850(4) 0.6833(5) 0.0241(4)
H14_12 H 0.0918 0.6782 0.0456
H15_12 H 0.0654 0.6952 0.0206
N6_12 N 0.0425(6) 0.5253(12) 0.1233(8)
H16_12 H 0.0489 0.5468 0.1177
C22_12 C 0.1770(4) 0.5490(5) 0.0346(4)
C23_12 C 0.1478(6) 0.5044(5) 0.0705(6)
H17_9 H 0.1675 0.4894 0.0675
C24_12 C 0.1469(4) 0.5369(5) 0.0538(5)
C25_12 C 0.1180(6) 0.5589(5) 0.0582(6)
H18_12 H 0.1174 0.5811 0.0468
C26_12 C 0.0901(5) 0.5484(7) 0.0792(7)
H19_12 H 0.0703 0.5634 0.0822
C27_12 C 0.0910(6) 0.5159(8) 0.0958(6)
C28_9 C 0.1198(8) 0.4939(6) 0.0915(7)
C29_12 C 0.0608(7) 0.5028(11) 0.1150(7)
H21_12 H 0.0025 0.5725 0.1581
C33_12 C 0.0061(4) 0.5209(6) 0.1443(5)
C40_12 C 0.1355(4) 0.6540(4) 0.0034(4)
H24_12 H 0.1413 0.6489 0.0271
O16_9 O 0.055(2) 0.4730(12) 0.1278(15)
O18_9 O 0.2848(2) 0.5279(2) 0.0463(2)
O20_9 O 0.3054(3) 0.5819(3) 0.0565(3)
H27_7 H 0.272395 0.4633 0.0101938
H28_7 H 0.229974 0.4633 0.0142979
H30_9 H 0.120454 0.468443 0.104566
In2_10 In 0.2500 0.53091(3) 1.0000
O1_21 O 0.2500 0.5843(2) 1.0000
O2_18 O 0.2500 0.4720(6) 1.0000
O3_12 O 0.2965(2) 0.5280(3) 0.9668(2)
O4_12 O 0.3267(3) 0.5777(3) 0.9805(4)
O7_9 O 0.5993(3) 0.4810(3) 0.7930(3)
O8_9 O 0.6014(3) 0.5388(3) 0.7844(3)
N2_12 N 0.4150(4) 0.6833(5) 0.9759(4)
H1_12 H 0.4082 0.6782 0.9544
H2_12 H 0.4346 0.6952 0.9794
N3_12 N 0.4575(6) 0.5253(12) 0.8767(8)
H3_12 H 0.4511 0.5468 0.8823
C1_12 C 0.3230(4) 0.5490(5) 0.9654(4)
C2_12 C 0.3522(6) 0.5044(5) 0.9295(6)
H4_12 H 0.3325 0.4894 0.9325
C3_12 C 0.3531(4) 0.5369(5) 0.9462(5)
C4_12 C 0.3820(6) 0.5589(5) 0.9418(6)
H5_12 H 0.3826 0.5811 0.9532
C5_12 C 0.4099(5) 0.5484(7) 0.9208(7)
H6_12 H 0.4297 0.5634 0.9178
C6_12 C 0.4090(6) 0.5159(8) 0.9042(6)
C7_12 C 0.3802(8) 0.4939(6) 0.9085(7)
C8_12 C 0.4392(7) 0.5028(11) 0.8850(7)
C9_12 C 0.5562(3) 0.5147(4) 0.8180(4)
C10_12 C 0.5398(5) 0.5472(3) 0.8210(5)
H7_12 H 0.5499 0.5673 0.8102
C11_12 C 0.5087(5) 0.5503(4) 0.8398(5)
H8_12 H 0.4975 0.5725 0.8419
C12_12 C 0.4939(4) 0.5209(6) 0.8557(5)
C13_12 C 0.5103(5) 0.4884(5) 0.8527(5)
H9_12 H 0.5002 0.4683 0.8635
C14_12 C 0.5414(4) 0.4852(3) 0.8338(5)
H10_12 H 0.5526 0.4630 0.8318
C16_12 C 0.5878(4) 0.5114(4) 0.7965(4)
C19_12 C 0.3645(4) 0.6540(4) 0.9966(4)
H11_12 H 0.3587 0.6489 0.9729
O9_12 O 0.445(2) 0.4730(12) 0.8722(15)
N4_12 N 0.1574(3) 0.6427(3) 0.9781(3)
C36_12 C 0.0636(4) 0.6979(3) 0.9502(4)
C38_12 C 0.0958(3) 0.6796(3) 0.9605(3)
C39_12 C 0.1044(3) 0.6730(4) 0.9965(4)
C41_12 C 0.1500(4) 0.6501(4) 0.9437(4)
H25_12 H 0.1658 0.6433 0.9256
C42_12 C 0.1193(3) 0.6674(4) 0.9357(3)
H26_12 H 0.1140 0.6712 0.9116
In5_8 In 0.63765(2) 0.54440(2) 0.74022(2)
O17_8 O 0.2152(2) 0.5279(2) 0.9537(2)
O19_8 O 0.1946(3) 0.5819(3) 0.9435(3)
O22_11 O 0.2310(3) 0.6507(3) 0.9570(3)
O24_11 O 0.2888(3) 0.6486(3) 0.9656(3)
H29_12 H 0.379546 0.468443 0.895434
C30_12 C 0.9438(3) 0.5147(4) 0.1820(4)
C31_12 C 0.9602(5) 0.5472(3) 0.1790(5)
H20_12 H 0.9501 0.5673 0.1898
C32_12 C 0.9913(5) 0.5503(4) 0.1602(5)
C34_12 C 0.9897(5) 0.4884(5) 0.1473(5)
H22_12 H 0.9998 0.4683 0.1365
C35_12 C 0.9586(4) 0.4852(3) 0.1662(5)
H23_12 H 0.9474 0.4630 0.1682
C37_12 C 0.9122(4) 0.5114(4) 0.2035(4)
H27_8 H 0.0366996 0.989806 0.772395
H28_8 H 0.0366996 0.985702 0.729974
H27_9 H 0.772395 0.0366996 0.989806
H28_9 H 0.729974 0.0366996 0.985702
O15_10 O 0.0388(3) 0.2844(3) 0.1014(3)
C30_13 C 0.0147(4) 0.3180(4) 0.0562(3)
C31_13 C 0.0472(3) 0.3210(5) 0.0398(5)
H20_13 H 0.0673 0.3102 0.0499
C32_13 C 0.0503(4) 0.3398(5) 0.0087(5)
C37_13 C 0.0114(4) 0.2965(4) 0.0878(4)
O1_22 O 0.0843(2) 0.5000 0.7500
O3_13 O 0.0280(3) 0.5332(2) 0.7035(2)
O4_13 O 0.0777(3) 0.5195(4) 0.6733(3)
O5_10 O 0.2152(2) 0.4721(2) 0.5463(2)
O6_10 O 0.1946(3) 0.4181(3) 0.5565(3)
N1_13 N 0.1427(3) 0.4781(3) 0.6574(3)
N2_13 N 0.1833(5) 0.5241(4) 0.5850(4)
H1_13 H 0.1782 0.5456 0.5918
H2_13 H 0.1952 0.5206 0.5654
N3_13 N 0.0253(12) 0.6233(8) 0.5425(6)
H3_13 H 0.0468 0.6177 0.5489
C1_13 C 0.0490(5) 0.5346(4) 0.6770(4)
C2_13 C 0.0044(5) 0.5705(6) 0.6478(6)
C3_13 C 0.0369(5) 0.5538(5) 0.6469(4)
C4_13 C 0.0589(5) 0.5582(6) 0.6180(6)
H5_13 H 0.0811 0.5468 0.6174
C5_13 C 0.0484(7) 0.5792(7) 0.5901(5)
H6_13 H 0.0634 0.5822 0.5703
C6_13 C 0.0159(8) 0.5958(6) 0.5910(6)
C8_13 C 0.0028(11) 0.6150(7) 0.5608(7)
C9_13 C 0.0147(4) 0.6820(4) 0.4438(3)
C10_13 C 0.0472(3) 0.6790(5) 0.4602(5)
H7_13 H 0.0673 0.6898 0.4501
C11_13 C 0.0503(4) 0.6602(5) 0.4913(5)
H8_13 H 0.0725 0.6581 0.5025
C12_13 C 0.0209(6) 0.6443(5) 0.5061(4)
C15_13 C 0.1979(3) 0.4502(4) 0.5636(4)
C16_13 C 0.0114(4) 0.7035(4) 0.4122(4)
C17_13 C 0.1796(3) 0.4605(3) 0.5958(3)
C18_13 C 0.1730(4) 0.4965(4) 0.6044(3)
C19_13 C 0.1540(4) 0.5034(4) 0.6355(4)
H11_13 H 0.1489 0.5271 0.6413
C20_13 C 0.1501(4) 0.4437(4) 0.6500(4)
H12_13 H 0.1433 0.4256 0.6658
C21_13 C 0.1674(4) 0.4357(3) 0.6193(3)
H13_13 H 0.1712 0.4116 0.6140
O10_13 O 0.0280(3) 0.4668(2) 0.7965(2)
O11_13 O 0.0777(3) 0.4805(4) 0.8267(3)
N4_13 N 0.1427(3) 0.5219(3) 0.8426(3)
N5_13 N 0.1833(5) 0.4759(4) 0.9150(4)
H14_13 H 0.1782 0.4544 0.9082
H15_13 H 0.1952 0.4794 0.9346
N6_13 N 0.0253(12) 0.3767(8) 0.9575(6)
H16_13 H 0.0468 0.3823 0.9511
C22_13 C 0.0490(5) 0.4654(4) 0.8230(4)
C23_13 C 0.0044(5) 0.4295(6) 0.8522(6)
C24_13 C 0.0369(5) 0.4462(5) 0.8531(4)
C25_13 C 0.0589(5) 0.4418(6) 0.8820(6)
H18_13 H 0.0811 0.4532 0.8826
C26_13 C 0.0484(7) 0.4208(7) 0.9099(5)
H19_13 H 0.0634 0.4178 0.9297
C27_13 C 0.0159(8) 0.4042(6) 0.9090(6)
C29_13 C 0.0028(11) 0.3850(7) 0.9392(7)
H21_13 H 0.0725 0.3419 0.9975
C33_13 C 0.0209(6) 0.3557(5) 0.9939(4)
C36_13 C 0.1979(3) 0.5498(4) 0.9364(4)
C38_13 C 0.1796(3) 0.5395(3) 0.9042(3)
C39_13 C 0.1730(4) 0.5035(4) 0.8956(3)
C40_13 C 0.1540(4) 0.4966(4) 0.8645(4)
H24_13 H 0.1489 0.4729 0.8587
C41_13 C 0.1501(4) 0.5563(4) 0.8500(4)
H25_13 H 0.1433 0.5744 0.8342
C42_13 C 0.1674(4) 0.5643(3) 0.8807(3)
H26_13 H 0.1712 0.5884 0.8860
In11_10 In 0.2500 0.46909(3) 0.5000
O22_12 O 0.1507(3) 0.5430(3) 0.7690(3)
O24_12 O 0.1486(3) 0.5344(3) 0.7112(3)
O14_10 O 0.9810(3) 0.2930(3) 0.0993(3)
C34_13 C 0.9884(5) 0.3527(5) 0.0103(5)
H22_13 H 0.9683 0.3635 0.0002
C35_13 C 0.9852(3) 0.3338(5) 0.0414(4)
H23_13 H 0.9630 0.3318 0.0526
O2_19 O 0.9720(6) 0.5000 0.7500
H4_13 H 0.9894 0.5675 0.6675
C7_13 C 0.9939(6) 0.5915(7) 0.6198(8)
C13_13 C 0.9884(5) 0.6473(5) 0.4897(5)
H9_13 H 0.9683 0.6365 0.4998
C14_13 C 0.9852(3) 0.6662(5) 0.4586(4)
H10_13 H 0.9630 0.6682 0.4474
O9_13 O 0.9730(12) 0.6278(15) 0.555(2)
H17_10 H 0.9894 0.4325 0.8325
C28_10 C 0.9939(6) 0.4085(7) 0.8802(8)
O16_10 O 0.9730(12) 0.3722(15) 0.945(2)
H29_13 H 0.968443 0.604566 0.620454
H30_10 H 0.968443 0.395434 0.879546
O1_23 O 0.5843(2) 0.0000 0.2500
O2_20 O 0.4720(6) 0.0000 0.2500
O5_11 O 0.7152(2) 0.0279(2) 0.4537(2)
O6_11 O 0.6946(3) 0.0819(3) 0.4435(3)
N1_14 N 0.6427(3) 0.0219(3) 0.3426(3)
C15_14 C 0.6979(3) 0.0498(4) 0.4364(4)
C17_14 C 0.6796(3) 0.0395(3) 0.4042(3)
C18_14 C 0.6730(4) 0.0035(4) 0.3956(3)
C20_14 C 0.6501(4) 0.0563(4) 0.3500(4)
H12_14 H 0.6433 0.0744 0.3342
C21_14 C 0.6674(4) 0.0643(3) 0.3807(3)
H13_14 H 0.6712 0.0884 0.3860
O10_14 O 0.5280(3) 0.0332(2) 0.2035(2)
O11_14 O 0.5777(3) 0.0195(4) 0.1733(3)
N5_14 N 0.6833(5) 0.0241(4) 0.0850(4)
H14_14 H 0.6782 0.0456 0.0918
H15_14 H 0.6952 0.0206 0.0654
N6_14 N 0.5253(12) 0.1233(8) 0.0425(6)
H16_14 H 0.5468 0.1177 0.0489
C22_14 C 0.5490(5) 0.0346(4) 0.1770(4)
C23_14 C 0.5044(5) 0.0705(6) 0.1478(6)
H17_11 H 0.4894 0.0675 0.1675
C24_14 C 0.5369(5) 0.0538(5) 0.1469(4)
C25_14 C 0.5589(5) 0.0582(6) 0.1180(6)
H18_14 H 0.5811 0.0468 0.1174
C26_14 C 0.5484(7) 0.0792(7) 0.0901(5)
H19_14 H 0.5634 0.0822 0.0703
C27_14 C 0.5159(8) 0.0958(6) 0.0910(6)
C28_11 C 0.4939(6) 0.0915(7) 0.1198(8)
C29_14 C 0.5028(11) 0.1150(7) 0.0608(7)
H21_14 H 0.5725 0.1581 0.0025
C33_14 C 0.5209(6) 0.1443(5) 0.0061(4)
C40_14 C 0.6540(4) 0.0034(4) 0.1355(4)
H24_14 H 0.6489 0.0271 0.1413
O16_11 O 0.4730(12) 0.1278(15) 0.055(2)
O18_10 O 0.5279(2) 0.0463(2) 0.2848(2)
O20_10 O 0.5819(3) 0.0565(3) 0.3054(3)
O21_8 O 0.6507(3) 0.0430(3) 0.2690(3)
O23_8 O 0.6486(3) 0.0344(3) 0.2112(3)
H27_10 H 0.4633 0.0101938 0.272395
H28_10 H 0.4633 0.0142979 0.229974
H30_11 H 0.468443 0.104566 0.120454
C30_14 C 0.5147(4) 0.1820(4) 0.9438(3)
C31_14 C 0.5472(3) 0.1790(5) 0.9602(5)
H20_14 H 0.5673 0.1898 0.9501
C32_14 C 0.5503(4) 0.1602(5) 0.9913(5)
C34_14 C 0.4884(5) 0.1473(5) 0.9897(5)
H22_14 H 0.4683 0.1365 0.9998
C35_14 C 0.4852(3) 0.1662(5) 0.9586(4)
H23_14 H 0.4630 0.1682 0.9474
C37_14 C 0.5114(4) 0.2035(4) 0.9122(4)
O1_24 O 0.5843(2) 1.0000 0.2500
O2_21 O 0.4720(6) 1.0000 0.2500
O3_14 O 0.5280(3) 0.9668(2) 0.2965(2)
O4_14 O 0.5777(3) 0.9805(4) 0.3267(3)
O7_10 O 0.4810(3) 0.7930(3) 0.5993(3)
O8_10 O 0.5388(3) 0.7844(3) 0.6014(3)
N2_14 N 0.6833(5) 0.9759(4) 0.4150(4)
H1_14 H 0.6782 0.9544 0.4082
H2_14 H 0.6952 0.9794 0.4346
N3_14 N 0.5253(12) 0.8767(8) 0.4575(6)
H3_14 H 0.5468 0.8823 0.4511
C1_14 C 0.5490(5) 0.9654(4) 0.3230(4)
C2_14 C 0.5044(5) 0.9295(6) 0.3522(6)
H4_14 H 0.4894 0.9325 0.3325
C3_14 C 0.5369(5) 0.9462(5) 0.3531(4)
C4_14 C 0.5589(5) 0.9418(6) 0.3820(6)
H5_14 H 0.5811 0.9532 0.3826
C5_14 C 0.5484(7) 0.9208(7) 0.4099(5)
H6_14 H 0.5634 0.9178 0.4297
C6_14 C 0.5159(8) 0.9042(6) 0.4090(6)
C7_14 C 0.4939(6) 0.9085(7) 0.3802(8)
C8_14 C 0.5028(11) 0.8850(7) 0.4392(7)
C9_14 C 0.5147(4) 0.8180(4) 0.5562(3)
C10_14 C 0.5472(3) 0.8210(5) 0.5398(5)
H7_14 H 0.5673 0.8102 0.5499
C11_14 C 0.5503(4) 0.8398(5) 0.5087(5)
H8_14 H 0.5725 0.8419 0.4975
C12_14 C 0.5209(6) 0.8557(5) 0.4939(4)
C13_14 C 0.4884(5) 0.8527(5) 0.5103(5)
H9_14 H 0.4683 0.8635 0.5002
C14_14 C 0.4852(3) 0.8338(5) 0.5414(4)
H10_14 H 0.4630 0.8318 0.5526
C16_14 C 0.5114(4) 0.7965(4) 0.5878(4)
C19_14 C 0.6540(4) 0.9966(4) 0.3645(4)
H11_14 H 0.6489 0.9729 0.3587
O9_14 O 0.4730(12) 0.8722(15) 0.445(2)
N4_14 N 0.6427(3) 0.9781(3) 0.1574(3)
C36_14 C 0.6979(3) 0.9502(4) 0.0636(4)
C38_14 C 0.6796(3) 0.9605(3) 0.0958(3)
C39_14 C 0.6730(4) 0.9965(4) 0.1044(3)
C41_14 C 0.6501(4) 0.9437(4) 0.1500(4)
H25_14 H 0.6433 0.9256 0.1658
C42_14 C 0.6674(4) 0.9357(3) 0.1193(3)
H26_14 H 0.6712 0.9116 0.1140
In5_9 In 0.54440(2) 0.74022(2) 0.63765(2)
In9_7 In 0.45560(2) 0.75978(2) 0.63765(2)
H29_14 H 0.468443 0.895434 0.379546
C30_15 C 0.0562(3) 0.0147(4) 0.3180(4)
C31_15 C 0.0398(5) 0.0472(3) 0.3210(5)
H20_15 H 0.0499 0.0673 0.3102
C32_15 C 0.0087(5) 0.0503(4) 0.3398(5)
C37_15 C 0.0878(4) 0.0114(4) 0.2965(4)
C34_15 C 0.0103(5) 0.9884(5) 0.3527(5)
H22_15 H 0.0002 0.9683 0.3635
C35_15 C 0.0414(4) 0.9852(3) 0.3338(5)
H23_15 H 0.0526 0.9630 0.3318
O1_25 O 0.7500 0.0843(2) 0.5000
O3_15 O 0.7035(2) 0.0280(3) 0.5332(2)
O4_15 O 0.6733(3) 0.0777(3) 0.5195(4)
O5_12 O 0.5463(2) 0.2152(2) 0.4721(2)
O6_12 O 0.5565(3) 0.1946(3) 0.4181(3)
O8_11 O 0.3986(3) 0.0388(3) 0.7156(3)
N1_15 N 0.6574(3) 0.1427(3) 0.4781(3)
N2_15 N 0.5850(4) 0.1833(5) 0.5241(4)
H1_15 H 0.5918 0.1782 0.5456
H2_15 H 0.5654 0.1952 0.5206
N3_15 N 0.5425(6) 0.0253(12) 0.6233(8)
H3_15 H 0.5489 0.0468 0.6177
C1_15 C 0.6770(4) 0.0490(5) 0.5346(4)
C2_15 C 0.6478(6) 0.0044(5) 0.5705(6)
C3_15 C 0.6469(4) 0.0369(5) 0.5538(5)
C4_15 C 0.6180(6) 0.0589(5) 0.5582(6)
H5_15 H 0.6174 0.0811 0.5468
C5_15 C 0.5901(5) 0.0484(7) 0.5792(7)
H6_15 H 0.5703 0.0634 0.5822
C6_15 C 0.5910(6) 0.0159(8) 0.5958(6)
C8_15 C 0.5608(7) 0.0028(11) 0.6150(7)
C9_15 C 0.4438(3) 0.0147(4) 0.6820(4)
C10_15 C 0.4602(5) 0.0472(3) 0.6790(5)
H7_15 H 0.4501 0.0673 0.6898
C11_15 C 0.4913(5) 0.0503(4) 0.6602(5)
H8_15 H 0.5025 0.0725 0.6581
C12_15 C 0.5061(4) 0.0209(6) 0.6443(5)
C15_15 C 0.5636(4) 0.1979(3) 0.4502(4)
C16_15 C 0.4122(4) 0.0114(4) 0.7035(4)
C17_15 C 0.5958(3) 0.1796(3) 0.4605(3)
C18_15 C 0.6044(3) 0.1730(4) 0.4965(4)
C19_15 C 0.6355(4) 0.1540(4) 0.5034(4)
H11_15 H 0.6413 0.1489 0.5271
C20_15 C 0.6500(4) 0.1501(4) 0.4437(4)
H12_15 H 0.6658 0.1433 0.4256
C21_15 C 0.6193(3) 0.1674(4) 0.4357(3)
H13_15 H 0.6140 0.1712 0.4116
O10_15 O 0.7965(2) 0.0280(3) 0.4668(2)
O11_15 O 0.8267(3) 0.0777(3) 0.4805(4)
N4_15 N 0.8426(3) 0.1427(3) 0.5219(3)
N5_15 N 0.9150(4) 0.1833(5) 0.4759(4)
H14_15 H 0.9082 0.1782 0.4544
H15_15 H 0.9346 0.1952 0.4794
N6_15 N 0.9575(6) 0.0253(12) 0.3767(8)
H16_15 H 0.9511 0.0468 0.3823
C22_15 C 0.8230(4) 0.0490(5) 0.4654(4)
C23_15 C 0.8522(6) 0.0044(5) 0.4295(6)
C24_15 C 0.8531(4) 0.0369(5) 0.4462(5)
C25_15 C 0.8820(6) 0.0589(5) 0.4418(6)
H18_15 H 0.8826 0.0811 0.4532
C26_15 C 0.9099(5) 0.0484(7) 0.4208(7)
H19_15 H 0.9297 0.0634 0.4178
C27_15 C 0.9090(6) 0.0159(8) 0.4042(6)
C29_15 C 0.9392(7) 0.0028(11) 0.3850(7)
H21_15 H 0.9975 0.0725 0.3419
C33_15 C 0.9939(4) 0.0209(6) 0.3557(5)
C36_15 C 0.9364(4) 0.1979(3) 0.5498(4)
C38_15 C 0.9042(3) 0.1796(3) 0.5395(3)
C39_15 C 0.8956(3) 0.1730(4) 0.5035(4)
C40_15 C 0.8645(4) 0.1540(4) 0.4966(4)
H24_15 H 0.8587 0.1489 0.4729
C41_15 C 0.8500(4) 0.1501(4) 0.5563(4)
H25_15 H 0.8342 0.1433 0.5744
C42_15 C 0.8807(3) 0.1674(4) 0.5643(3)
H26_15 H 0.8860 0.1712 0.5884
In11_11 In 0.5000 0.2500 0.46909(3)
O22_13 O 0.7690(3) 0.1507(3) 0.5430(3)
O24_13 O 0.7112(3) 0.1486(3) 0.5344(3)
O2_22 O 0.7500 0.9720(6) 0.5000
O7_11 O 0.4007(3) 0.9810(3) 0.7070(3)
H4_15 H 0.6675 0.9894 0.5675
C7_15 C 0.6198(8) 0.9939(6) 0.5915(7)
C13_15 C 0.4897(5) 0.9884(5) 0.6473(5)
H9_15 H 0.4998 0.9683 0.6365
C14_15 C 0.4586(4) 0.9852(3) 0.6662(5)
H10_15 H 0.4474 0.9630 0.6682
O9_15 O 0.555(2) 0.9730(12) 0.6278(15)
H17_12 H 0.8325 0.9894 0.4325
C28_12 C 0.8802(8) 0.9939(6) 0.4085(7)
O16_12 O 0.945(2) 0.9730(12) 0.3722(15)
H29_15 H 0.620454 0.968443 0.604566
H30_12 H 0.879546 0.968443 0.395434
O1_26 O -0.0000 0.2500 0.1657(2)
O2_23 O -0.0000 0.2500 0.2780(6)
O3_16 O 0.0465(2) 0.2832(2) 0.2220(3)
O4_16 O 0.0767(3) 0.2695(4) 0.1723(3)
O7_12 O 0.3493(3) 0.4570(3) 0.2690(3)
O8_12 O 0.3514(3) 0.4656(3) 0.2112(3)
N1_16 N 0.0926(3) 0.2281(3) 0.1073(3)
N2_16 N 0.1650(4) 0.2741(4) 0.0667(5)
H1_16 H 0.1582 0.2956 0.0718
H2_16 H 0.1846 0.2706 0.0548
N3_16 N 0.2075(6) 0.3733(8) 0.2247(12)
H3_16 H 0.2011 0.3677 0.2032
C1_16 C 0.0730(4) 0.2846(4) 0.2010(5)
C2_16 C 0.1022(6) 0.3205(6) 0.2456(5)
H4_16 H 0.0825 0.3175 0.2606
C3_16 C 0.1031(4) 0.3038(5) 0.2131(5)
C4_16 C 0.1320(6) 0.3082(6) 0.1911(5)
H5_16 H 0.1326 0.2968 0.1689
C5_16 C 0.1599(5) 0.3292(7) 0.2016(7)
H6_16 H 0.1797 0.3322 0.1866
C6_16 C 0.1590(6) 0.3458(6) 0.2341(8)
C7_16 C 0.1302(8) 0.3415(7) 0.2561(6)
C8_16 C 0.1892(7) 0.3650(7) 0.2472(11)
C9_16 C 0.3062(3) 0.4320(4) 0.2353(4)
C10_16 C 0.2898(5) 0.4290(5) 0.2028(3)
H7_16 H 0.2999 0.4398 0.1827
C11_16 C 0.2587(5) 0.4102(5) 0.1997(4)
H8_16 H 0.2475 0.4081 0.1775
C12_16 C 0.2439(4) 0.3943(5) 0.2291(6)
C13_16 C 0.2603(5) 0.3973(5) 0.2616(5)
H9_16 H 0.2502 0.3865 0.2817
C14_16 C 0.2914(4) 0.4162(5) 0.2648(3)
H10_16 H 0.3026 0.4182 0.2870
C15_16 C 0.1864(4) 0.2002(4) 0.0521(3)
C16_16 C 0.3378(4) 0.4535(4) 0.2386(4)
C17_16 C 0.1542(3) 0.2105(3) 0.0704(3)
C18_16 C 0.1456(3) 0.2465(4) 0.0770(4)
C19_16 C 0.1145(4) 0.2534(4) 0.0960(4)
H11_16 H 0.1087 0.2771 0.1011
C20_16 C 0.1000(4) 0.1937(4) 0.0999(4)
H12_16 H 0.0842 0.1756 0.1067
C21_16 C 0.1307(3) 0.1857(3) 0.0826(4)
H13_16 H 0.1360 0.1616 0.0788
O9_16 O 0.195(2) 0.3778(15) 0.2770(12)
H27_11 H 0.0223952 0.239806 0.2867
H29_16 H 0.129546 0.354566 0.281557
O1_27 O 1.0000 0.2500 0.1657(2)
O2_24 O 1.0000 0.2500 0.2780(6)
O10_16 O 0.9535(2) 0.2168(2) 0.2220(3)
O11_16 O 0.9233(3) 0.2305(4) 0.1723(3)
N4_16 N 0.9074(3) 0.2719(3) 0.1073(3)
N5_16 N 0.8350(4) 0.2259(4) 0.0667(5)
H14_16 H 0.8418 0.2044 0.0718
H15_16 H 0.8154 0.2294 0.0548
N6_16 N 0.7925(6) 0.1267(8) 0.2247(12)
H16_16 H 0.7989 0.1323 0.2032
C22_16 C 0.9270(4) 0.2154(4) 0.2010(5)
C23_16 C 0.8978(6) 0.1795(6) 0.2456(5)
H17_13 H 0.9175 0.1825 0.2606
C24_16 C 0.8969(4) 0.1962(5) 0.2131(5)
C25_16 C 0.8680(6) 0.1918(6) 0.1911(5)
H18_16 H 0.8674 0.2032 0.1689
C26_16 C 0.8401(5) 0.1708(7) 0.2016(7)
H19_16 H 0.8203 0.1678 0.1866
C27_16 C 0.8410(6) 0.1542(6) 0.2341(8)
C28_13 C 0.8698(8) 0.1585(7) 0.2561(6)
C29_16 C 0.8108(7) 0.1350(7) 0.2472(11)
C30_16 C 0.6938(3) 0.0680(4) 0.2353(4)
C31_16 C 0.7102(5) 0.0710(5) 0.2028(3)
H20_16 H 0.7001 0.0602 0.1827
C32_16 C 0.7413(5) 0.0898(5) 0.1997(4)
H21_16 H 0.7525 0.0919 0.1775
C33_16 C 0.7561(4) 0.1057(5) 0.2291(6)
C34_16 C 0.7397(5) 0.1027(5) 0.2616(5)
H22_16 H 0.7498 0.1135 0.2817
C35_16 C 0.7086(4) 0.0838(5) 0.2648(3)
H23_16 H 0.6974 0.0818 0.2870
C36_16 C 0.8136(4) 0.2998(4) 0.0521(3)
C37_16 C 0.6622(4) 0.0465(4) 0.2386(4)
C38_16 C 0.8458(3) 0.2895(3) 0.0704(3)
C39_16 C 0.8544(3) 0.2535(4) 0.0770(4)
C40_16 C 0.8855(4) 0.2466(4) 0.0960(4)
H24_16 H 0.8913 0.2229 0.1011
C41_16 C 0.9000(4) 0.3063(4) 0.0999(4)
H25_16 H 0.9158 0.3244 0.1067
C42_16 C 0.8693(3) 0.3143(3) 0.0826(4)
H26_16 H 0.8640 0.3384 0.0788
O16_13 O 0.805(2) 0.1222(15) 0.2770(12)
H28_11 H 0.979974 0.235702 0.2867
H30_13 H 0.870454 0.145434 0.281557
H28_12 H 0.0200257 0.264298 0.2867
H27_12 H 0.977605 0.260194 0.2867
O1_28 O 0.2500 0.8343(2) 0.5000
O2_25 O 0.2500 0.7220(6) 0.5000
O3_17 O 0.2168(2) 0.7780(3) 0.5465(2)
O4_17 O 0.2305(4) 0.8277(3) 0.5767(3)
O5_13 O 0.2779(2) 0.9652(2) 0.7037(2)
O6_13 O 0.3319(3) 0.9446(3) 0.6935(3)
N1_17 N 0.2719(3) 0.8927(3) 0.5926(3)
N2_17 N 0.2259(4) 0.9333(5) 0.6650(4)
H1_17 H 0.2044 0.9282 0.6582
H2_17 H 0.2294 0.9452 0.6846
N3_17 N 0.1267(8) 0.7753(12) 0.7075(6)
H3_17 H 0.1323 0.7968 0.7011
C1_17 C 0.2154(4) 0.7990(5) 0.5730(4)
C2_17 C 0.1795(6) 0.7544(5) 0.6022(6)
H4_17 H 0.1825 0.7394 0.5825
C3_17 C 0.1962(5) 0.7869(5) 0.6031(4)
C4_17 C 0.1918(6) 0.8089(5) 0.6320(6)
H5_17 H 0.2032 0.8311 0.6326
C5_17 C 0.1708(7) 0.7984(7) 0.6599(5)
H6_17 H 0.1678 0.8134 0.6797
C6_17 C 0.1542(6) 0.7659(8) 0.6590(6)
C7_17 C 0.1585(7) 0.7439(6) 0.6302(8)
C8_17 C 0.1350(7) 0.7528(11) 0.6892(7)
C9_17 C 0.0680(4) 0.7647(4) 0.8062(3)
C10_17 C 0.0710(5) 0.7972(3) 0.7898(5)
H7_17 H 0.0602 0.8173 0.7999
C11_17 C 0.0898(5) 0.8003(4) 0.7587(5)
H8_17 H 0.0919 0.8225 0.7475
C12_17 C 0.1057(5) 0.7709(6) 0.7439(4)
C13_17 C 0.1027(5) 0.7384(5) 0.7603(5)
H9_17 H 0.1135 0.7183 0.7502
C14_17 C 0.0838(5) 0.7352(3) 0.7914(4)
H10_17 H 0.0818 0.7130 0.8026
C15_17 C 0.2998(4) 0.9479(3) 0.6864(4)
C16_17 C 0.0465(4) 0.7614(4) 0.8378(4)
C17_17 C 0.2895(3) 0.9296(3) 0.6542(3)
C18_17 C 0.2535(4) 0.9230(4) 0.6456(3)
C19_17 C 0.2466(4) 0.9040(4) 0.6145(4)
H11_17 H 0.2229 0.8989 0.6087
C20_17 C 0.3063(4) 0.9001(4) 0.6000(4)
H12_17 H 0.3244 0.8933 0.5842
C21_17 C 0.3143(3) 0.9174(4) 0.6307(3)
H13_17 H 0.3384 0.9212 0.6360
O9_17 O 0.1222(15) 0.7230(12) 0.695(2)
O10_17 O 0.2832(2) 0.7780(3) 0.4535(2)
O11_17 O 0.2695(4) 0.8277(3) 0.4233(3)
N4_17 N 0.2281(3) 0.8927(3) 0.4074(3)
N5_17 N 0.2741(4) 0.9333(5) 0.3350(4)
H14_17 H 0.2956 0.9282 0.3418
H15_17 H 0.2706 0.9452 0.3154
N6_17 N 0.3733(8) 0.7753(12) 0.2925(6)
H16_17 H 0.3677 0.7968 0.2989
C22_17 C 0.2846(4) 0.7990(5) 0.4270(4)
C23_17 C 0.3205(6) 0.7544(5) 0.3978(6)
H17_14 H 0.3175 0.7394 0.4175
C24_17 C 0.3038(5) 0.7869(5) 0.3969(4)
C25_17 C 0.3082(6) 0.8089(5) 0.3680(6)
H18_17 H 0.2968 0.8311 0.3674
C26_17 C 0.3292(7) 0.7984(7) 0.3401(5)
H19_17 H 0.3322 0.8134 0.3203
C27_17 C 0.3458(6) 0.7659(8) 0.3410(6)
C28_14 C 0.3415(7) 0.7439(6) 0.3698(8)
C29_17 C 0.3650(7) 0.7528(11) 0.3108(7)
C30_17 C 0.4320(4) 0.7647(4) 0.1938(3)
C31_17 C 0.4290(5) 0.7972(3) 0.2102(5)
H20_17 H 0.4398 0.8173 0.2001
C32_17 C 0.4102(5) 0.8003(4) 0.2413(5)
H21_17 H 0.4081 0.8225 0.2525
C33_17 C 0.3943(5) 0.7709(6) 0.2561(4)
C34_17 C 0.3973(5) 0.7384(5) 0.2397(5)
H22_17 H 0.3865 0.7183 0.2498
C35_17 C 0.4162(5) 0.7352(3) 0.2086(4)
H23_17 H 0.4182 0.7130 0.1974
C36_17 C 0.2002(4) 0.9479(3) 0.3136(4)
C37_17 C 0.4535(4) 0.7614(4) 0.1622(4)
C38_17 C 0.2105(3) 0.9296(3) 0.3458(3)
C39_17 C 0.2465(4) 0.9230(4) 0.3544(3)
C40_17 C 0.2534(4) 0.9040(4) 0.3855(4)
H24_17 H 0.2771 0.8989 0.3913
C41_17 C 0.1937(4) 0.9001(4) 0.4000(4)
H25_17 H 0.1756 0.8933 0.4158
C42_17 C 0.1857(3) 0.9174(4) 0.3693(3)
H26_17 H 0.1616 0.9212 0.3640
O16_14 O 0.3778(15) 0.7230(12) 0.305(2)
O18_11 O 0.2963(2) 0.7779(2) 0.5348(2)
O20_11 O 0.3065(3) 0.8319(3) 0.5554(3)
O21_9 O 0.2930(3) 0.9007(3) 0.5190(3)
O23_9 O 0.2844(3) 0.8986(3) 0.4612(3)
H29_17 H 0.145434 0.718443 0.629546
H30_14 H 0.354566 0.718443 0.370454
H28_13 H 0.264298 0.2867 0.0200257
H27_13 H 0.260194 0.2867 0.977605
O1_29 O 0.3343(2) -0.0000 0.7500
O2_26 O 0.2220(6) -0.0000 0.7500
O10_18 O 0.2780(3) 0.0465(2) 0.7168(2)
O11_18 O 0.3277(3) 0.0767(3) 0.7305(4)
O14_11 O 0.2310(3) 0.3493(3) 0.5430(3)
O15_11 O 0.2888(3) 0.3514(3) 0.5344(3)
N4_18 N 0.3927(3) 0.0926(3) 0.7719(3)
N5_18 N 0.4333(5) 0.1650(4) 0.7259(4)
H14_18 H 0.4282 0.1582 0.7044
H15_18 H 0.4452 0.1846 0.7294
N6_18 N 0.2753(12) 0.2075(6) 0.6267(8)
H16_18 H 0.2968 0.2011 0.6323
C22_18 C 0.2990(5) 0.0730(4) 0.7154(4)
C23_18 C 0.2544(5) 0.1022(6) 0.6795(6)
H17_15 H 0.2394 0.0825 0.6825
C24_18 C 0.2869(5) 0.1031(4) 0.6962(5)
C25_18 C 0.3089(5) 0.1320(6) 0.6918(6)
H18_18 H 0.3311 0.1326 0.7032
C26_18 C 0.2984(7) 0.1599(5) 0.6708(7)
H19_18 H 0.3134 0.1797 0.6678
C27_18 C 0.2659(8) 0.1590(6) 0.6542(6)
C28_15 C 0.2439(6) 0.1302(8) 0.6585(7)
C29_18 C 0.2528(11) 0.1892(7) 0.6350(7)
C30_18 C 0.2647(4) 0.3062(3) 0.5680(4)
C31_18 C 0.2972(3) 0.2898(5) 0.5710(5)
H20_18 H 0.3173 0.2999 0.5602
C32_18 C 0.3003(4) 0.2587(5) 0.5898(5)
H21_18 H 0.3225 0.2475 0.5919
C33_18 C 0.2709(6) 0.2439(4) 0.6057(5)
C34_18 C 0.2384(5) 0.2603(5) 0.6027(5)
H22_18 H 0.2183 0.2502 0.6135
C35_18 C 0.2352(3) 0.2914(4) 0.5838(5)
H23_18 H 0.2130 0.3026 0.5818
C36_18 C 0.4479(3) 0.1864(4) 0.7998(4)
C37_18 C 0.2614(4) 0.3378(4) 0.5465(4)
C38_18 C 0.4296(3) 0.1542(3) 0.7895(3)
C39_18 C 0.4230(4) 0.1456(3) 0.7535(4)
C40_18 C 0.4040(4) 0.1145(4) 0.7466(4)
H24_18 H 0.3989 0.1087 0.7229
C41_18 C 0.4001(4) 0.1000(4) 0.8063(4)
H25_18 H 0.3933 0.0842 0.8244
C42_18 C 0.4174(4) 0.1307(3) 0.8143(3)
H26_18 H 0.4212 0.1360 0.8384
O16_15 O 0.2230(12) 0.195(2) 0.6222(15)
H28_14 H 0.2133 0.0200257 0.735702
H30_15 H 0.218443 0.129546 0.645434
O1_30 O 0.3343(2) 1.0000 0.7500
O2_27 O 0.2220(6) 1.0000 0.7500
O3_18 O 0.2780(3) 0.9535(2) 0.7832(2)
O4_18 O 0.3277(3) 0.9233(3) 0.7695(4)
O5_14 O 0.4652(2) 0.7963(2) 0.7221(2)
O6_14 O 0.4446(3) 0.8065(3) 0.6681(3)
N1_18 N 0.3927(3) 0.9074(3) 0.7281(3)
N2_18 N 0.4333(5) 0.8350(4) 0.7741(4)
H1_18 H 0.4282 0.8418 0.7956
H2_18 H 0.4452 0.8154 0.7706
N3_18 N 0.2753(12) 0.7925(6) 0.8733(8)
H3_18 H 0.2968 0.7989 0.8677
C1_18 C 0.2990(5) 0.9270(4) 0.7846(4)
C2_18 C 0.2544(5) 0.8978(6) 0.8205(6)
H4_18 H 0.2394 0.9175 0.8175
C3_18 C 0.2869(5) 0.8969(4) 0.8038(5)
C4_18 C 0.3089(5) 0.8680(6) 0.8082(6)
H5_18 H 0.3311 0.8674 0.7968
C5_18 C 0.2984(7) 0.8401(5) 0.8292(7)
H6_18 H 0.3134 0.8203 0.8322
C6_18 C 0.2659(8) 0.8410(6) 0.8458(6)
C7_18 C 0.2439(6) 0.8698(8) 0.8415(7)
C8_18 C 0.2528(11) 0.8108(7) 0.8650(7)
C9_18 C 0.2647(4) 0.6938(3) 0.9320(4)
C10_18 C 0.2972(3) 0.7102(5) 0.9290(5)
H7_18 H 0.3173 0.7001 0.9398
C11_18 C 0.3003(4) 0.7413(5) 0.9102(5)
H8_18 H 0.3225 0.7525 0.9081
C12_18 C 0.2709(6) 0.7561(4) 0.8943(5)
C13_18 C 0.2384(5) 0.7397(5) 0.8973(5)
H9_18 H 0.2183 0.7498 0.8865
C14_18 C 0.2352(3) 0.7086(4) 0.9162(5)
H10_18 H 0.2130 0.6974 0.9182
C15_18 C 0.4479(3) 0.8136(4) 0.7002(4)
C16_18 C 0.2614(4) 0.6622(4) 0.9535(4)
C17_18 C 0.4296(3) 0.8458(3) 0.7105(3)
C18_18 C 0.4230(4) 0.8544(3) 0.7465(4)
C19_18 C 0.4040(4) 0.8855(4) 0.7534(4)
H11_18 H 0.3989 0.8913 0.7771
C20_18 C 0.4001(4) 0.9000(4) 0.6937(4)
H12_18 H 0.3933 0.9158 0.6756
C21_18 C 0.4174(4) 0.8693(3) 0.6857(3)
H13_18 H 0.4212 0.8640 0.6616
O9_18 O 0.2230(12) 0.805(2) 0.8778(15)
In11_12 In 0.5000 0.7500 0.71909(3)
H27_14 H 0.2133 0.977605 0.739806
H29_18 H 0.218443 0.870454 0.854566
H28_15 H 0.2867 0.0200257 0.264298
H27_15 H 0.2867 0.977605 0.260194
O1_31 O 0.5000 0.2500 0.4157(2)
O2_28 O 0.5000 0.2500 0.5280(6)
O3_19 O 0.4668(2) 0.2035(2) 0.4720(3)
O4_19 O 0.4805(4) 0.1733(3) 0.4223(3)
N1_19 N 0.5219(3) 0.1574(3) 0.3573(3)
N2_19 N 0.4759(4) 0.0850(4) 0.3167(5)
H1_19 H 0.4544 0.0918 0.3218
H2_19 H 0.4794 0.0654 0.3048
N3_19 N 0.3767(8) 0.0425(6) 0.4747(12)
H3_19 H 0.3823 0.0489 0.4532
C1_19 C 0.4654(4) 0.1770(4) 0.4510(5)
C2_19 C 0.4295(6) 0.1478(6) 0.4956(5)
H4_19 H 0.4325 0.1675 0.5106
C3_19 C 0.4462(5) 0.1469(4) 0.4631(5)
C4_19 C 0.4418(6) 0.1180(6) 0.4411(5)
H5_19 H 0.4532 0.1174 0.4189
C5_19 C 0.4208(7) 0.0901(5) 0.4516(7)
H6_19 H 0.4178 0.0703 0.4366
C6_19 C 0.4042(6) 0.0910(6) 0.4841(8)
C7_19 C 0.4085(7) 0.1198(8) 0.5061(6)
C8_19 C 0.3850(7) 0.0608(7) 0.4972(11)
H8_19 H 0.3419 0.0025 0.4275
C12_19 C 0.3557(5) 0.0061(4) 0.4791(6)
C15_19 C 0.5498(4) 0.0636(4) 0.3021(3)
C17_19 C 0.5395(3) 0.0958(3) 0.3204(3)
C18_19 C 0.5035(4) 0.1044(3) 0.3270(4)
C19_19 C 0.4966(4) 0.1355(4) 0.3460(4)
H11_19 H 0.4729 0.1413 0.3511
C20_19 C 0.5563(4) 0.1500(4) 0.3499(4)
H12_19 H 0.5744 0.1658 0.3567
C21_19 C 0.5643(3) 0.1193(3) 0.3326(4)
H13_19 H 0.5884 0.1140 0.3288
O9_19 O 0.3722(15) 0.055(2) 0.5270(12)
O10_19 O 0.5332(2) 0.2965(2) 0.4720(3)
O11_19 O 0.5195(4) 0.3267(3) 0.4223(3)
O12_10 O 0.4721(2) 0.4537(2) 0.2848(2)
O13_10 O 0.4181(3) 0.4435(3) 0.3054(3)
O14_12 O 0.7070(3) 0.5993(3) 0.5190(3)
O15_12 O 0.7156(3) 0.6014(3) 0.4612(3)
N4_19 N 0.4781(3) 0.3426(3) 0.3573(3)
N5_19 N 0.5241(4) 0.4150(4) 0.3167(5)
H14_19 H 0.5456 0.4082 0.3218
H15_19 H 0.5206 0.4346 0.3048
N6_19 N 0.6233(8) 0.4575(6) 0.4747(12)
H16_19 H 0.6177 0.4511 0.4532
C22_19 C 0.5346(4) 0.3230(4) 0.4510(5)
C23_19 C 0.5705(6) 0.3522(6) 0.4956(5)
H17_16 H 0.5675 0.3325 0.5106
C24_19 C 0.5538(5) 0.3531(4) 0.4631(5)
C25_19 C 0.5582(6) 0.3820(6) 0.4411(5)
H18_19 H 0.5468 0.3826 0.4189
C26_19 C 0.5792(7) 0.4099(5) 0.4516(7)
H19_19 H 0.5822 0.4297 0.4366
C27_19 C 0.5958(6) 0.4090(6) 0.4841(8)
C28_16 C 0.5915(7) 0.3802(8) 0.5061(6)
C29_19 C 0.6150(7) 0.4392(7) 0.4972(11)
C30_19 C 0.6820(4) 0.5562(3) 0.4853(4)
C31_19 C 0.6790(5) 0.5398(5) 0.4528(3)
H20_19 H 0.6898 0.5499 0.4327
C32_19 C 0.6602(5) 0.5087(5) 0.4497(4)
H21_19 H 0.6581 0.4975 0.4275
C33_19 C 0.6443(5) 0.4939(4) 0.4791(6)
C34_19 C 0.6473(5) 0.5103(5) 0.5116(5)
H22_19 H 0.6365 0.5002 0.5317
C35_19 C 0.6662(5) 0.5414(4) 0.5148(3)
H23_19 H 0.6682 0.5526 0.5370
C36_19 C 0.4502(4) 0.4364(4) 0.3021(3)
C37_19 C 0.7035(4) 0.5878(4) 0.4886(4)
C38_19 C 0.4605(3) 0.4042(3) 0.3204(3)
C39_19 C 0.4965(4) 0.3956(3) 0.3270(4)
C40_19 C 0.5034(4) 0.3645(4) 0.3460(4)
H24_19 H 0.5271 0.3587 0.3511
C41_19 C 0.4437(4) 0.3500(4) 0.3499(4)
H25_19 H 0.4256 0.3342 0.3567
C42_19 C 0.4357(3) 0.3807(3) 0.3326(4)
H26_19 H 0.4116 0.3860 0.3288
O16_16 O 0.6278(15) 0.445(2) 0.5270(12)
O17_9 O 0.4537(2) 0.2848(2) 0.4721(2)
O19_9 O 0.4435(3) 0.3054(3) 0.4181(3)
H29_19 H 0.395434 0.120454 0.531557
H30_16 H 0.604566 0.379546 0.531557
C9_19 C 0.3180(4) 0.9438(3) 0.4853(4)
C10_19 C 0.3210(5) 0.9602(5) 0.4528(3)
H7_19 H 0.3102 0.9501 0.4327
C11_19 C 0.3398(5) 0.9913(5) 0.4497(4)
C13_19 C 0.3527(5) 0.9897(5) 0.5116(5)
H9_19 H 0.3635 0.9998 0.5317
C14_19 C 0.3338(5) 0.9586(4) 0.5148(3)
H10_19 H 0.3318 0.9474 0.5370
C16_19 C 0.2965(4) 0.9122(4) 0.4886(4)
H27_16 H 0.0223952 0.760194 0.2133
H28_16 H 0.979974 0.764298 0.2133
O1_32 O 0.7500 0.6657(2) 0.5000
O2_29 O 0.7500 0.7780(6) 0.5000
O3_20 O 0.7832(2) 0.7220(3) 0.5465(2)
O4_20 O 0.7695(4) 0.6723(3) 0.5767(3)
O5_15 O 0.7221(2) 0.5348(2) 0.7037(2)
O6_15 O 0.6681(3) 0.5554(3) 0.6935(3)
N1_20 N 0.7281(3) 0.6073(3) 0.5926(3)
N2_20 N 0.7741(4) 0.5667(5) 0.6650(4)
H1_20 H 0.7956 0.5718 0.6582
H2_20 H 0.7706 0.5548 0.6846
N3_20 N 0.8733(8) 0.7247(12) 0.7075(6)
H3_20 H 0.8677 0.7032 0.7011
C1_20 C 0.7846(4) 0.7010(5) 0.5730(4)
C2_20 C 0.8205(6) 0.7456(5) 0.6022(6)
H4_20 H 0.8175 0.7606 0.5825
C3_20 C 0.8038(5) 0.7131(5) 0.6031(4)
C4_20 C 0.8082(6) 0.6911(5) 0.6320(6)
H5_20 H 0.7968 0.6689 0.6326
C5_20 C 0.8292(7) 0.7016(7) 0.6599(5)
H6_20 H 0.8322 0.6866 0.6797
C6_20 C 0.8458(6) 0.7341(8) 0.6590(6)
C7_20 C 0.8415(7) 0.7561(6) 0.6302(8)
C8_20 C 0.8650(7) 0.7472(11) 0.6892(7)
C9_20 C 0.9320(4) 0.7353(4) 0.8062(3)
C10_20 C 0.9290(5) 0.7028(3) 0.7898(5)
H7_20 H 0.9398 0.6827 0.7999
C11_20 C 0.9102(5) 0.6997(4) 0.7587(5)
H8_20 H 0.9081 0.6775 0.7475
C12_20 C 0.8943(5) 0.7291(6) 0.7439(4)
C13_20 C 0.8973(5) 0.7616(5) 0.7603(5)
H9_20 H 0.8865 0.7817 0.7502
C14_20 C 0.9162(5) 0.7648(3) 0.7914(4)
H10_20 H 0.9182 0.7870 0.8026
C15_20 C 0.7002(4) 0.5521(3) 0.6864(4)
C16_20 C 0.9535(4) 0.7386(4) 0.8378(4)
C17_20 C 0.7105(3) 0.5704(3) 0.6542(3)
C18_20 C 0.7465(4) 0.5770(4) 0.6456(3)
C19_20 C 0.7534(4) 0.5960(4) 0.6145(4)
H11_20 H 0.7771 0.6011 0.6087
C20_20 C 0.6937(4) 0.5999(4) 0.6000(4)
H12_20 H 0.6756 0.6067 0.5842
C21_20 C 0.6857(3) 0.5826(4) 0.6307(3)
H13_20 H 0.6616 0.5788 0.6360
O9_20 O 0.8778(15) 0.7770(12) 0.695(2)
O10_20 O 0.7168(2) 0.7220(3) 0.4535(2)
O11_20 O 0.7305(4) 0.6723(3) 0.4233(3)
N4_20 N 0.7719(3) 0.6073(3) 0.4074(3)
N5_20 N 0.7259(4) 0.5667(5) 0.3350(4)
H14_20 H 0.7044 0.5718 0.3418
H15_20 H 0.7294 0.5548 0.3154
N6_20 N 0.6267(8) 0.7247(12) 0.2925(6)
H16_20 H 0.6323 0.7032 0.2989
C22_20 C 0.7154(4) 0.7010(5) 0.4270(4)
C23_20 C 0.6795(6) 0.7456(5) 0.3978(6)
H17_17 H 0.6825 0.7606 0.4175
C24_20 C 0.6962(5) 0.7131(5) 0.3969(4)
C25_20 C 0.6918(6) 0.6911(5) 0.3680(6)
H18_20 H 0.7032 0.6689 0.3674
C26_20 C 0.6708(7) 0.7016(7) 0.3401(5)
H19_20 H 0.6678 0.6866 0.3203
C27_20 C 0.6542(6) 0.7341(8) 0.3410(6)
C28_17 C 0.6585(7) 0.7561(6) 0.3698(8)
C29_20 C 0.6350(7) 0.7472(11) 0.3108(7)
C30_20 C 0.5680(4) 0.7353(4) 0.1938(3)
C31_20 C 0.5710(5) 0.7028(3) 0.2102(5)
H20_20 H 0.5602 0.6827 0.2001
C32_20 C 0.5898(5) 0.6997(4) 0.2413(5)
H21_20 H 0.5919 0.6775 0.2525
C33_20 C 0.6057(5) 0.7291(6) 0.2561(4)
C34_20 C 0.6027(5) 0.7616(5) 0.2397(5)
H22_20 H 0.6135 0.7817 0.2498
C35_20 C 0.5838(5) 0.7648(3) 0.2086(4)
H23_20 H 0.5818 0.7870 0.1974
C36_20 C 0.7998(4) 0.5521(3) 0.3136(4)
C37_20 C 0.5465(4) 0.7386(4) 0.1622(4)
C38_20 C 0.7895(3) 0.5704(3) 0.3458(3)
C39_20 C 0.7535(4) 0.5770(4) 0.3544(3)
C40_20 C 0.7466(4) 0.5960(4) 0.3855(4)
H24_20 H 0.7229 0.6011 0.3913
C41_20 C 0.8063(4) 0.5999(4) 0.4000(4)
H25_20 H 0.8244 0.6067 0.4158
C42_20 C 0.8143(3) 0.5826(4) 0.3693(3)
H26_20 H 0.8384 0.5788 0.3640
O16_17 O 0.6222(15) 0.7770(12) 0.305(2)
O18_12 O 0.7037(2) 0.7221(2) 0.5348(2)
O20_12 O 0.6935(3) 0.6681(3) 0.5554(3)
H29_20 H 0.854566 0.781557 0.629546
H30_17 H 0.645434 0.781557 0.370454
H27_17 H 0.2133 0.0223952 0.760194
H28_17 H 0.2133 0.979974 0.764298
H27_18 H 0.989806 0.227605 0.4633
H28_18 H 0.985702 0.270026 0.4633
O1_33 O 0.6657(2) 0.5000 0.7500
O2_30 O 0.7780(6) 0.5000 0.7500
O3_21 O 0.7220(3) 0.5465(2) 0.7832(2)
O4_21 O 0.6723(3) 0.5767(3) 0.7695(4)
O5_16 O 0.5348(2) 0.7037(2) 0.7221(2)
O6_16 O 0.5554(3) 0.6935(3) 0.6681(3)
N1_21 N 0.6073(3) 0.5926(3) 0.7281(3)
N2_21 N 0.5667(5) 0.6650(4) 0.7741(4)
H1_21 H 0.5718 0.6582 0.7956
H2_21 H 0.5548 0.6846 0.7706
N3_21 N 0.7247(12) 0.7075(6) 0.8733(8)
H3_21 H 0.7032 0.7011 0.8677
C1_21 C 0.7010(5) 0.5730(4) 0.7846(4)
C2_21 C 0.7456(5) 0.6022(6) 0.8205(6)
H4_21 H 0.7606 0.5825 0.8175
C3_21 C 0.7131(5) 0.6031(4) 0.8038(5)
C4_21 C 0.6911(5) 0.6320(6) 0.8082(6)
H5_21 H 0.6689 0.6326 0.7968
C5_21 C 0.7016(7) 0.6599(5) 0.8292(7)
H6_21 H 0.6866 0.6797 0.8322
C6_21 C 0.7341(8) 0.6590(6) 0.8458(6)
C7_21 C 0.7561(6) 0.6302(8) 0.8415(7)
C8_21 C 0.7472(11) 0.6892(7) 0.8650(7)
C9_21 C 0.7353(4) 0.8062(3) 0.9320(4)
C10_21 C 0.7028(3) 0.7898(5) 0.9290(5)
H7_21 H 0.6827 0.7999 0.9398
C11_21 C 0.6997(4) 0.7587(5) 0.9102(5)
H8_21 H 0.6775 0.7475 0.9081
C12_21 C 0.7291(6) 0.7439(4) 0.8943(5)
C13_21 C 0.7616(5) 0.7603(5) 0.8973(5)
H9_21 H 0.7817 0.7502 0.8865
C14_21 C 0.7648(3) 0.7914(4) 0.9162(5)
H10_21 H 0.7870 0.8026 0.9182
C15_21 C 0.5521(3) 0.6864(4) 0.7002(4)
C16_21 C 0.7386(4) 0.8378(4) 0.9535(4)
C17_21 C 0.5704(3) 0.6542(3) 0.7105(3)
C18_21 C 0.5770(4) 0.6456(3) 0.7465(4)
C19_21 C 0.5960(4) 0.6145(4) 0.7534(4)
H11_21 H 0.6011 0.6087 0.7771
C20_21 C 0.5999(4) 0.6000(4) 0.6937(4)
H12_21 H 0.6067 0.5842 0.6756
C21_21 C 0.5826(4) 0.6307(3) 0.6857(3)
H13_21 H 0.5788 0.6360 0.6616
O9_21 O 0.7770(12) 0.695(2) 0.8778(15)
O10_21 O 0.7220(3) 0.4535(2) 0.7168(2)
O11_21 O 0.6723(3) 0.4233(3) 0.7305(4)
N4_21 N 0.6073(3) 0.4074(3) 0.7719(3)
N5_21 N 0.5667(5) 0.3350(4) 0.7259(4)
H14_21 H 0.5718 0.3418 0.7044
H15_21 H 0.5548 0.3154 0.7294
N6_21 N 0.7247(12) 0.2925(6) 0.6267(8)
H16_21 H 0.7032 0.2989 0.6323
C22_21 C 0.7010(5) 0.4270(4) 0.7154(4)
C23_21 C 0.7456(5) 0.3978(6) 0.6795(6)
H17_18 H 0.7606 0.4175 0.6825
C24_21 C 0.7131(5) 0.3969(4) 0.6962(5)
C25_21 C 0.6911(5) 0.3680(6) 0.6918(6)
H18_21 H 0.6689 0.3674 0.7032
C26_21 C 0.7016(7) 0.3401(5) 0.6708(7)
H19_21 H 0.6866 0.3203 0.6678
C27_21 C 0.7341(8) 0.3410(6) 0.6542(6)
C28_18 C 0.7561(6) 0.3698(8) 0.6585(7)
C29_21 C 0.7472(11) 0.3108(7) 0.6350(7)
C30_21 C 0.7353(4) 0.1938(3) 0.5680(4)
C31_21 C 0.7028(3) 0.2102(5) 0.5710(5)
H20_21 H 0.6827 0.2001 0.5602
C32_21 C 0.6997(4) 0.2413(5) 0.5898(5)
H21_21 H 0.6775 0.2525 0.5919
C33_21 C 0.7291(6) 0.2561(4) 0.6057(5)
C34_21 C 0.7616(5) 0.2397(5) 0.6027(5)
H22_21 H 0.7817 0.2498 0.6135
C35_21 C 0.7648(3) 0.2086(4) 0.5838(5)
H23_21 H 0.7870 0.1974 0.5818
C36_21 C 0.5521(3) 0.3136(4) 0.7998(4)
C37_21 C 0.7386(4) 0.1622(4) 0.5465(4)
C38_21 C 0.5704(3) 0.3458(3) 0.7895(3)
C39_21 C 0.5770(4) 0.3544(3) 0.7535(4)
C40_21 C 0.5960(4) 0.3855(4) 0.7466(4)
H24_21 H 0.6011 0.3913 0.7229
C41_21 C 0.5999(4) 0.4000(4) 0.8063(4)
H25_21 H 0.6067 0.4158 0.8244
C42_21 C 0.5826(4) 0.3693(3) 0.8143(3)
H26_21 H 0.5788 0.3640 0.8384
O16_18 O 0.7770(12) 0.305(2) 0.6222(15)
O21_10 O 0.5993(3) 0.5190(3) 0.7070(3)
O23_10 O 0.6014(3) 0.4612(3) 0.7156(3)
H29_21 H 0.781557 0.629546 0.854566
H30_18 H 0.781557 0.370454 0.645434
O1_34 O 0.4157(2) 0.5000 0.2500
O2_31 O 0.5280(6) 0.5000 0.2500
O3_22 O 0.4720(3) 0.4668(2) 0.2035(2)
O4_22 O 0.4223(3) 0.4805(4) 0.1733(3)
N1_22 N 0.3573(3) 0.5219(3) 0.1574(3)
N2_22 N 0.3167(5) 0.4759(4) 0.0850(4)
H1_22 H 0.3218 0.4544 0.0918
H2_22 H 0.3048 0.4794 0.0654
N3_22 N 0.4747(12) 0.3767(8) 0.0425(6)
H3_22 H 0.4532 0.3823 0.0489
C1_22 C 0.4510(5) 0.4654(4) 0.1770(4)
C2_22 C 0.4956(5) 0.4295(6) 0.1478(6)
H4_22 H 0.5106 0.4325 0.1675
C3_22 C 0.4631(5) 0.4462(5) 0.1469(4)
C4_22 C 0.4411(5) 0.4418(6) 0.1180(6)
H5_22 H 0.4189 0.4532 0.1174
C5_22 C 0.4516(7) 0.4208(7) 0.0901(5)
H6_22 H 0.4366 0.4178 0.0703
C6_22 C 0.4841(8) 0.4042(6) 0.0910(6)
C7_22 C 0.5061(6) 0.4085(7) 0.1198(8)
C8_22 C 0.4972(11) 0.3850(7) 0.0608(7)
H8_22 H 0.4275 0.3419 0.0025
C12_22 C 0.4791(6) 0.3557(5) 0.0061(4)
C15_22 C 0.3021(3) 0.5498(4) 0.0636(4)
C17_22 C 0.3204(3) 0.5395(3) 0.0958(3)
C18_22 C 0.3270(4) 0.5035(4) 0.1044(3)
C19_22 C 0.3460(4) 0.4966(4) 0.1355(4)
H11_22 H 0.3511 0.4729 0.1413
C20_22 C 0.3499(4) 0.5563(4) 0.1500(4)
H12_22 H 0.3567 0.5744 0.1658
C21_22 C 0.3326(4) 0.5643(3) 0.1193(3)
H13_22 H 0.3288 0.5884 0.1140
O9_22 O 0.5270(12) 0.3722(15) 0.055(2)
O10_22 O 0.4720(3) 0.5332(2) 0.2965(2)
O11_22 O 0.4223(3) 0.5195(4) 0.3267(3)
O12_11 O 0.2848(2) 0.4721(2) 0.4537(2)
O13_11 O 0.3054(3) 0.4181(3) 0.4435(3)
O14_13 O 0.5190(3) 0.7070(3) 0.5993(3)
O15_13 O 0.4612(3) 0.7156(3) 0.6014(3)
N4_22 N 0.3573(3) 0.4781(3) 0.3426(3)
N5_22 N 0.3167(5) 0.5241(4) 0.4150(4)
H14_22 H 0.3218 0.5456 0.4082
H15_22 H 0.3048 0.5206 0.4346
N6_22 N 0.4747(12) 0.6233(8) 0.4575(6)
H16_22 H 0.4532 0.6177 0.4511
C22_22 C 0.4510(5) 0.5346(4) 0.3230(4)
C23_22 C 0.4956(5) 0.5705(6) 0.3522(6)
H17_19 H 0.5106 0.5675 0.3325
C24_22 C 0.4631(5) 0.5538(5) 0.3531(4)
C25_22 C 0.4411(5) 0.5582(6) 0.3820(6)
H18_22 H 0.4189 0.5468 0.3826
C26_22 C 0.4516(7) 0.5792(7) 0.4099(5)
H19_22 H 0.4366 0.5822 0.4297
C27_22 C 0.4841(8) 0.5958(6) 0.4090(6)
C28_19 C 0.5061(6) 0.5915(7) 0.3802(8)
C29_22 C 0.4972(11) 0.6150(7) 0.4392(7)
C30_22 C 0.4853(4) 0.6820(4) 0.5562(3)
C31_22 C 0.4528(3) 0.6790(5) 0.5398(5)
H20_22 H 0.4327 0.6898 0.5499
C32_22 C 0.4497(4) 0.6602(5) 0.5087(5)
H21_22 H 0.4275 0.6581 0.4975
C33_22 C 0.4791(6) 0.6443(5) 0.4939(4)
C34_22 C 0.5116(5) 0.6473(5) 0.5103(5)
H22_22 H 0.5317 0.6365 0.5002
C35_22 C 0.5148(3) 0.6662(5) 0.5414(4)
H23_22 H 0.5370 0.6682 0.5526
C36_22 C 0.3021(3) 0.4502(4) 0.4364(4)
C37_22 C 0.4886(4) 0.7035(4) 0.5878(4)
C38_22 C 0.3204(3) 0.4605(3) 0.4042(3)
C39_22 C 0.3270(4) 0.4965(4) 0.3956(3)
C40_22 C 0.3460(4) 0.5034(4) 0.3645(4)
H24_22 H 0.3511 0.5271 0.3587
C41_22 C 0.3499(4) 0.4437(4) 0.3500(4)
H25_22 H 0.3567 0.4256 0.3342
C42_22 C 0.3326(4) 0.4357(3) 0.3807(3)
H26_22 H 0.3288 0.4116 0.3860
O16_19 O 0.5270(12) 0.6278(15) 0.445(2)
H29_22 H 0.531557 0.395434 0.120454
H30_19 H 0.531557 0.604566 0.379546
C9_22 C 0.4853(4) 0.3180(4) 0.9438(3)
C10_22 C 0.4528(3) 0.3210(5) 0.9602(5)
H7_22 H 0.4327 0.3102 0.9501
C11_22 C 0.4497(4) 0.3398(5) 0.9913(5)
C13_22 C 0.5116(5) 0.3527(5) 0.9897(5)
H9_22 H 0.5317 0.3635 0.9998
C14_22 C 0.5148(3) 0.3338(5) 0.9586(4)
H10_22 H 0.5370 0.3318 0.9474
C16_22 C 0.4886(4) 0.2965(4) 0.9122(4)
O1_35 O 0.2500 0.4157(2) 0.5000
O2_32 O 0.2500 0.5280(6) 0.5000
O3_23 O 0.2035(2) 0.4720(3) 0.4668(2)
O4_23 O 0.1733(3) 0.4223(3) 0.4805(4)
N1_23 N 0.1574(3) 0.3573(3) 0.5219(3)
N2_23 N 0.0850(4) 0.3167(5) 0.4759(4)
H1_23 H 0.0918 0.3218 0.4544
H2_23 H 0.0654 0.3048 0.4794
N3_23 N 0.0425(6) 0.4747(12) 0.3767(8)
H3_23 H 0.0489 0.4532 0.3823
C1_23 C 0.1770(4) 0.4510(5) 0.4654(4)
C2_23 C 0.1478(6) 0.4956(5) 0.4295(6)
H4_23 H 0.1675 0.5106 0.4325
C3_23 C 0.1469(4) 0.4631(5) 0.4462(5)
C4_23 C 0.1180(6) 0.4411(5) 0.4418(6)
H5_23 H 0.1174 0.4189 0.4532
C5_23 C 0.0901(5) 0.4516(7) 0.4208(7)
H6_23 H 0.0703 0.4366 0.4178
C6_23 C 0.0910(6) 0.4841(8) 0.4042(6)
C7_23 C 0.1198(8) 0.5061(6) 0.4085(7)
C8_23 C 0.0608(7) 0.4972(11) 0.3850(7)
H8_23 H 0.0025 0.4275 0.3419
C12_23 C 0.0061(4) 0.4791(6) 0.3557(5)
C15_23 C 0.0636(4) 0.3021(3) 0.5498(4)
C17_23 C 0.0958(3) 0.3204(3) 0.5395(3)
C18_23 C 0.1044(3) 0.3270(4) 0.5035(4)
C19_23 C 0.1355(4) 0.3460(4) 0.4966(4)
H11_23 H 0.1413 0.3511 0.4729
C20_23 C 0.1500(4) 0.3499(4) 0.5563(4)
H12_23 H 0.1658 0.3567 0.5744
C21_23 C 0.1193(3) 0.3326(4) 0.5643(3)
H13_23 H 0.1140 0.3288 0.5884
O9_23 O 0.055(2) 0.5270(12) 0.3722(15)
O10_23 O 0.2965(2) 0.4720(3) 0.5332(2)
O11_23 O 0.3267(3) 0.4223(3) 0.5195(4)
N4_23 N 0.3426(3) 0.3573(3) 0.4781(3)
N5_23 N 0.4150(4) 0.3167(5) 0.5241(4)
H14_23 H 0.4082 0.3218 0.5456
H15_23 H 0.4346 0.3048 0.5206
N6_23 N 0.4575(6) 0.4747(12) 0.6233(8)
H16_23 H 0.4511 0.4532 0.6177
C22_23 C 0.3230(4) 0.4510(5) 0.5346(4)
C23_23 C 0.3522(6) 0.4956(5) 0.5705(6)
H17_20 H 0.3325 0.5106 0.5675
C24_23 C 0.3531(4) 0.4631(5) 0.5538(5)
C25_23 C 0.3820(6) 0.4411(5) 0.5582(6)
H18_23 H 0.3826 0.4189 0.5468
C26_23 C 0.4099(5) 0.4516(7) 0.5792(7)
H19_23 H 0.4297 0.4366 0.5822
C27_23 C 0.4090(6) 0.4841(8) 0.5958(6)
C28_20 C 0.3802(8) 0.5061(6) 0.5915(7)
C29_23 C 0.4392(7) 0.4972(11) 0.6150(7)
C30_23 C 0.5562(3) 0.4853(4) 0.6820(4)
C31_23 C 0.5398(5) 0.4528(3) 0.6790(5)
H20_23 H 0.5499 0.4327 0.6898
C32_23 C 0.5087(5) 0.4497(4) 0.6602(5)
H21_23 H 0.4975 0.4275 0.6581
C33_23 C 0.4939(4) 0.4791(6) 0.6443(5)
C34_23 C 0.5103(5) 0.5116(5) 0.6473(5)
H22_23 H 0.5002 0.5317 0.6365
C35_23 C 0.5414(4) 0.5148(3) 0.6662(5)
H23_23 H 0.5526 0.5370 0.6682
C36_23 C 0.4364(4) 0.3021(3) 0.4502(4)
C37_23 C 0.5878(4) 0.4886(4) 0.7035(4)
C38_23 C 0.4042(3) 0.3204(3) 0.4605(3)
C39_23 C 0.3956(3) 0.3270(4) 0.4965(4)
C40_23 C 0.3645(4) 0.3460(4) 0.5034(4)
H24_23 H 0.3587 0.3511 0.5271
C41_23 C 0.3500(4) 0.3499(4) 0.4437(4)
H25_23 H 0.3342 0.3567 0.4256
C42_23 C 0.3807(3) 0.3326(4) 0.4357(3)
H26_23 H 0.3860 0.3288 0.4116
O16_20 O 0.445(2) 0.5270(12) 0.6278(15)
H29_23 H 0.120454 0.531557 0.395434
H30_20 H 0.379546 0.531557 0.604566
C9_23 C 0.9438(3) 0.4853(4) 0.3180(4)
C10_23 C 0.9602(5) 0.4528(3) 0.3210(5)
H7_23 H 0.9501 0.4327 0.3102
C11_23 C 0.9913(5) 0.4497(4) 0.3398(5)
C13_23 C 0.9897(5) 0.5116(5) 0.3527(5)
H9_23 H 0.9998 0.5317 0.3635
C14_23 C 0.9586(4) 0.5148(3) 0.3338(5)
H10_23 H 0.9474 0.5370 0.3318
C16_23 C 0.9122(4) 0.4886(4) 0.2965(4)
H27_19 H 0.4633 0.989806 0.227605
H28_19 H 0.4633 0.985702 0.270026
H27_20 H 0.227605 0.4633 0.989806
H28_20 H 0.270026 0.4633 0.985702
O1_36 O 0.5000 0.7500 0.6657(2)
O2_33 O 0.5000 0.7500 0.7780(6)
O3_24 O 0.5465(2) 0.7832(2) 0.7220(3)
O4_24 O 0.5767(3) 0.7695(4) 0.6723(3)
N1_24 N 0.5926(3) 0.7281(3) 0.6073(3)
N2_24 N 0.6650(4) 0.7741(4) 0.5667(5)
H1_24 H 0.6582 0.7956 0.5718
H2_24 H 0.6846 0.7706 0.5548
N3_24 N 0.7075(6) 0.8733(8) 0.7247(12)
H3_24 H 0.7011 0.8677 0.7032
C1_24 C 0.5730(4) 0.7846(4) 0.7010(5)
C2_24 C 0.6022(6) 0.8205(6) 0.7456(5)
H4_24 H 0.5825 0.8175 0.7606
C3_24 C 0.6031(4) 0.8038(5) 0.7131(5)
C4_24 C 0.6320(6) 0.8082(6) 0.6911(5)
H5_24 H 0.6326 0.7968 0.6689
C5_24 C 0.6599(5) 0.8292(7) 0.7016(7)
H6_24 H 0.6797 0.8322 0.6866
C6_24 C 0.6590(6) 0.8458(6) 0.7341(8)
C7_24 C 0.6302(8) 0.8415(7) 0.7561(6)
C8_24 C 0.6892(7) 0.8650(7) 0.7472(11)
C9_24 C 0.8062(3) 0.9320(4) 0.7353(4)
C10_24 C 0.7898(5) 0.9290(5) 0.7028(3)
H7_24 H 0.7999 0.9398 0.6827
C11_24 C 0.7587(5) 0.9102(5) 0.6997(4)
H8_24 H 0.7475 0.9081 0.6775
C12_24 C 0.7439(4) 0.8943(5) 0.7291(6)
C13_24 C 0.7603(5) 0.8973(5) 0.7616(5)
H9_24 H 0.7502 0.8865 0.7817
C14_24 C 0.7914(4) 0.9162(5) 0.7648(3)
H10_24 H 0.8026 0.9182 0.7870
C15_24 C 0.6864(4) 0.7002(4) 0.5521(3)
C16_24 C 0.8378(4) 0.9535(4) 0.7386(4)
C17_24 C 0.6542(3) 0.7105(3) 0.5704(3)
C18_24 C 0.6456(3) 0.7465(4) 0.5770(4)
C19_24 C 0.6145(4) 0.7534(4) 0.5960(4)
H11_24 H 0.6087 0.7771 0.6011
C20_24 C 0.6000(4) 0.6937(4) 0.5999(4)
H12_24 H 0.5842 0.6756 0.6067
C21_24 C 0.6307(3) 0.6857(3) 0.5826(4)
H13_24 H 0.6360 0.6616 0.5788
O9_24 O 0.695(2) 0.8778(15) 0.7770(12)
O10_24 O 0.4535(2) 0.7168(2) 0.7220(3)
O11_24 O 0.4233(3) 0.7305(4) 0.6723(3)
N4_24 N 0.4074(3) 0.7719(3) 0.6073(3)
N5_24 N 0.3350(4) 0.7259(4) 0.5667(5)
H14_24 H 0.3418 0.7044 0.5718
H15_24 H 0.3154 0.7294 0.5548
N6_24 N 0.2925(6) 0.6267(8) 0.7247(12)
H16_24 H 0.2989 0.6323 0.7032
C22_24 C 0.4270(4) 0.7154(4) 0.7010(5)
C23_24 C 0.3978(6) 0.6795(6) 0.7456(5)
H17_21 H 0.4175 0.6825 0.7606
C24_24 C 0.3969(4) 0.6962(5) 0.7131(5)
C25_24 C 0.3680(6) 0.6918(6) 0.6911(5)
H18_24 H 0.3674 0.7032 0.6689
C26_24 C 0.3401(5) 0.6708(7) 0.7016(7)
H19_24 H 0.3203 0.6678 0.6866
C27_24 C 0.3410(6) 0.6542(6) 0.7341(8)
C28_21 C 0.3698(8) 0.6585(7) 0.7561(6)
C29_24 C 0.3108(7) 0.6350(7) 0.7472(11)
C30_24 C 0.1938(3) 0.5680(4) 0.7353(4)
C31_24 C 0.2102(5) 0.5710(5) 0.7028(3)
H20_24 H 0.2001 0.5602 0.6827
C32_24 C 0.2413(5) 0.5898(5) 0.6997(4)
H21_24 H 0.2525 0.5919 0.6775
C33_24 C 0.2561(4) 0.6057(5) 0.7291(6)
C34_24 C 0.2397(5) 0.6027(5) 0.7616(5)
H22_24 H 0.2498 0.6135 0.7817
C35_24 C 0.2086(4) 0.5838(5) 0.7648(3)
H23_24 H 0.1974 0.5818 0.7870
C36_24 C 0.3136(4) 0.7998(4) 0.5521(3)
C37_24 C 0.1622(4) 0.5465(4) 0.7386(4)
C38_24 C 0.3458(3) 0.7895(3) 0.5704(3)
C39_24 C 0.3544(3) 0.7535(4) 0.5770(4)
C40_24 C 0.3855(4) 0.7466(4) 0.5960(4)
H24_24 H 0.3913 0.7229 0.6011
C41_24 C 0.4000(4) 0.8063(4) 0.5999(4)
H25_24 H 0.4158 0.8244 0.6067
C42_24 C 0.3693(3) 0.8143(3) 0.5826(4)
H26_24 H 0.3640 0.8384 0.5788
O16_21 O 0.305(2) 0.6222(15) 0.7770(12)
H29_24 H 0.629546 0.854566 0.781557
H30_21 H 0.370454 0.645434 0.781557
H27_21 H 0.760194 0.2133 0.0223952
H28_21 H 0.764298 0.2133 0.979974
O2_34 O 0.0000 0.7500 0.0280(6)
H17_22 H 0.0675 0.8325 0.0106
C28_22 C 0.0915(7) 0.8802(8) 0.0061(6)
O16_22 O 0.1278(15) 0.945(2) 0.0270(12)
H27_22 H 0.0101938 0.727605 0.0366996
H28_22 H 0.0142979 0.770026 0.0366996
H30_22 H 0.104566 0.879546 0.0315571
O2_35 O 0.0280(6) 0.0000 0.7500
H17_23 H 0.0106 0.0675 0.8325
C28_23 C 0.0061(6) 0.0915(7) 0.8802(8)
O16_23 O 0.0270(12) 0.1278(15) 0.945(2)
H27_23 H 0.0366996 0.0101938 0.727605
H28_23 H 0.0366996 0.0142979 0.770026
H30_23 H 0.0315571 0.104566 0.879546
O2_36 O 0.7500 0.0280(6) 0.0000
H17_24 H 0.8325 0.0106 0.0675
C28_24 C 0.8802(8) 0.0061(6) 0.0915(7)
O16_24 O 0.945(2) 0.0270(12) 0.1278(15)
H27_24 H 0.727605 0.0366996 0.0101938
H28_24 H 0.770026 0.0366996 0.0142979
H30_24 H 0.879546 0.0315571 0.104566
loop_
_geom_bond_atom_site_label_1
_geom_bond_atom_site_label_2
_geom_bond_site_symmetry_1
_geom_bond_site_symmetry_2
H22 C34 1_555 1_555
H23 C35 1_555 1_555
In4 O14 1_555 1_555
C34 C35 1_555 1_555
O15 C37 1_555 1_555
C30 C31 1_555 1_555
C31 H20 1_555 1_555
C32 C31 1_555 1_555
C37 C30 1_555 1_555
In7 O15 1_555 1_555
In1 O1 1_555 1_555
In2 O1 1_555 1_555
O5 C15 1_555 1_555
O6 C15 1_555 1_555
N1 In1 1_555 1_555
C15 C17 1_555 1_555
C17 C18 1_555 1_555
C20 N1 1_555 1_555
H12 C20 1_555 1_555
C21 C17 1_555 1_555
H13 C21 1_555 1_555
O10 In2 1_555 1_555
O11 C22 1_555 1_555
N5 H14 1_555 1_555
H15 N5 1_555 1_555
N6 H16 1_555 1_555
C22 O10 1_555 1_555
C24 C22 1_555 1_555
C25 C24 1_555 1_555
H18 C25 1_555 1_555
C26 C25 1_555 1_555
H19 C26 1_555 1_555
C27 C26 1_555 1_555
C29 N6 1_555 1_555
C33 N6 1_555 1_555
H24 C40 1_555 1_555
In8 O6 1_555 1_555
In11 O5 1_555 1_555
O18 In2 1_555 1_555
O20 In1 1_555 1_555
O21 In1 1_555 1_555
C20 C21 1_555 1_555
C23 C24 1_555 1_555
C27 C29 1_555 1_555
H9 C13 1_555 1_555
H10 C14 1_555 1_555
In9 O7 1_555 1_555
C13 C14 1_555 1_555
C7 H29 1_555 1_555
In2_2 O1_2 1_555 1_555
O1_2 In3 1_555 1_555
O3 In2_2 1_555 1_555
O8 C16 1_555 1_555
N2 H1 1_555 1_555
H2 N2 1_555 1_555
N3 H3 1_555 1_555
C1 O3 1_555 1_555
C3 C1 1_555 1_555
C4 C3 1_555 1_555
H5 C4 1_555 1_555
C5 C4 1_555 1_555
H6 C5 1_555 1_555
C6 C5 1_555 1_555
C8 N3 1_555 1_555
C9 C10 1_555 1_555
C10 H7 1_555 1_555
C11 C10 1_555 1_555
H8 C11 1_555 1_555
C12 N3 1_555 1_555
C16 C9 1_555 1_555
H11 C19 1_555 1_555
O12 C36 1_555 1_555
O13 C36 1_555 1_555
N4 In3 1_555 1_555
C36 C38 1_555 1_555
C38 C39 1_555 1_555
C41 N4 1_555 1_555
H25 C41 1_555 1_555
C42 C38 1_555 1_555
H26 C42 1_555 1_555
In5 O8 1_555 1_555
In6 O13 1_555 1_555
In10_2 O12 1_555 1_555
O17 In2_2 1_555 1_555
O19 In3 1_555 1_555
O22 In3 1_555 1_555
O4 C1 1_555 1_555
C2 C3 1_555 1_555
C6 C8 1_555 1_555
C11 C12 1_555 1_555
C41 C42 1_555 1_555
In2_3 O1_3 1_555 1_555
O1_3 In3_2 1_555 1_555
O2_2 In2_3 1_555 1_555
In3_2 O11_2 1_555 1_555
O10_2 In2_3 1_555 1_555
O11_2 C22_2 1_555 1_555
O12_2 C36_2 1_555 1_555
O13_2 C36_2 1_555 1_555
O14_2 C37_2 1_555 1_555
O15_2 C37_2 1_555 1_555
N4_2 In3_2 1_555 1_555
N5_2 H14_2 1_555 1_555
H15_2 N5_2 1_555 1_555
N6_2 H16_2 1_555 1_555
C22_2 O10_2 1_555 1_555
C23_2 H17 1_555 1_555
C24_2 C22_2 1_555 1_555
C25_2 C24_2 1_555 1_555
H18_2 C25_2 1_555 1_555
C26_2 C25_2 1_555 1_555
H19_2 C26_2 1_555 1_555
C27_2 C26_2 1_555 1_555
C28 C23_2 1_555 1_555
C29_2 N6_2 1_555 1_555
C30_2 C31_2 1_555 1_555
C31_2 H20_2 1_555 1_555
C32_2 C31_2 1_555 1_555
H21_2 C32_2 1_555 1_555
C33_2 N6_2 1_555 1_555
C34_2 C33_2 1_555 1_555
H22_2 C34_2 1_555 1_555
C35_2 C30_2 1_555 1_555
H23_2 C35_2 1_555 1_555
C36_2 C38_2 1_555 1_555
C37_2 C30_2 1_555 1_555
C38_2 C39_2 1_555 1_555
C39_2 N5_2 1_555 1_555
C40_2 N4_2 1_555 1_555
H24_2 C40_2 1_555 1_555
C41_2 N4_2 1_555 1_555
H25_2 C41_2 1_555 1_555
C42_2 C38_2 1_555 1_555
H26_2 C42_2 1_555 1_555
O16 C29_2 1_555 1_555
In4_2 O14_2 1_555 1_555
In6_2 O13_2 1_555 1_555
In7_2 O15_2 1_555 1_555
In10_3 O12_2 1_555 1_555
O17_2 In2_3 1_555 1_555
O19_2 In3_2 1_555 1_555
O22_2 In3_2 1_555 1_555
O23_2 In3_2 1_555 1_555
C23_2 C24_2 1_555 1_555
C27_2 C28 1_555 1_555
C27_2 C29_2 1_555 1_555
C32_2 C33_2 1_555 1_555
C34_2 C35_2 1_555 1_555
C39_2 C40_2 1_555 1_555
C41_2 C42_2 1_555 1_555
O2_2 H28 1_555 1_555
C28 H30 1_555 1_555
In1_2 O1_4 1_555 1_555
In2_4 O1_4 1_555 1_555
O2_3 In2_4 1_555 1_555
O3_2 In2_4 1_555 1_555
O4_2 In1_2 1_555 1_555
O5_2 C15_2 1_555 1_555
O6_2 C15_2 1_555 1_555
O7_2 C16_2 1_555 1_555
O8_2 C16_2 1_555 1_555
N1_2 In1_2 1_555 1_555
N2_2 H1_2 1_555 1_555
H2_2 N2_2 1_555 1_555
N3_2 H3_2 1_555 1_555
C1_2 O3_2 1_555 1_555
C2_2 H4_2 1_555 1_555
C3_2 C1_2 1_555 1_555
C4_2 C3_2 1_555 1_555
H5_2 C4_2 1_555 1_555
C5_2 C4_2 1_555 1_555
H6_2 C5_2 1_555 1_555
C6_2 C5_2 1_555 1_555
C7_2 C2_2 1_555 1_555
C8_2 N3_2 1_555 1_555
C9_2 C10_2 1_555 1_555
C10_2 H7_2 1_555 1_555
C11_2 C10_2 1_555 1_555
H8_2 C11_2 1_555 1_555
C12_2 N3_2 1_555 1_555
C13_2 C12_2 1_555 1_555
H9_2 C13_2 1_555 1_555
C14_2 C9_2 1_555 1_555
H10_2 C14_2 1_555 1_555
C15_2 C17_2 1_555 1_555
C16_2 C9_2 1_555 1_555
C17_2 C18_2 1_555 1_555
C18_2 N2_2 1_555 1_555
C19_2 N1_2 1_555 1_555
H11_2 C19_2 1_555 1_555
C20_2 N1_2 1_555 1_555
H12_2 C20_2 1_555 1_555
C21_2 C17_2 1_555 1_555
H13_2 C21_2 1_555 1_555
O9_2 C8_2 1_555 1_555
In8_2 O6_2 1_555 1_555
In9_2 O7_2 1_555 1_555
In11_2 O5_2 1_555 1_555
O18_2 In2_4 1_555 1_555
O20_2 In1_2 1_555 1_555
O21_2 In1_2 1_555 1_555
O24_2 In1_2 1_555 1_555
O4_2 C1_2 1_555 1_555
C2_2 C3_2 1_555 1_555
C6_2 C7_2 1_555 1_555
C6_2 C8_2 1_555 1_555
C11_2 C12_2 1_555 1_555
C13_2 C14_2 1_555 1_555
C18_2 C19_2 1_555 1_555
C20_2 C21_2 1_555 1_555
O2_3 H27 1_555 1_555
C7_2 H29_2 1_555 1_555
O2 H27_2 1_555 1_555
O2 H28_2 1_555 1_555
In1_3 O1_5 1_555 1_555
In2_5 O1_5 1_555 1_555
O1_5 In3_3 1_555 1_555
O2_4 In2_5 1_555 1_555
O3_3 In2_5 1_555 1_555
O4_3 In1_3 1_555 1_555
O5_3 C15_3 1_555 1_555
O6_3 C15_3 1_555 1_555
O7_3 C16_3 1_555 1_555
O8_3 C16_3 1_555 1_555
N1_3 In1_3 1_555 1_555
N2_3 H1_3 1_555 1_555
H2_3 N2_3 1_555 1_555
N3_3 H3_3 1_555 1_555
C1_3 O3_3 1_555 1_555
C2_3 H4_3 1_555 1_555
C3_3 C1_3 1_555 1_555
C4_3 C3_3 1_555 1_555
H5_3 C4_3 1_555 1_555
C5_3 C4_3 1_555 1_555
H6_3 C5_3 1_555 1_555
C6_3 C5_3 1_555 1_555
C7_3 C2_3 1_555 1_555
C8_3 N3_3 1_555 1_555
C9_3 C10_3 1_555 1_555
C10_3 H7_3 1_555 1_555
C11_3 C10_3 1_555 1_555
H8_3 C11_3 1_555 1_555
C12_3 N3_3 1_555 1_555
C13_3 C12_3 1_555 1_555
H9_3 C13_3 1_555 1_555
C14_3 C9_3 1_555 1_555
H10_3 C14_3 1_555 1_555
C15_3 C17_3 1_555 1_555
C16_3 C9_3 1_555 1_555
C17_3 C18_3 1_555 1_555
C18_3 N2_3 1_555 1_555
C19_3 N1_3 1_555 1_555
H11_3 C19_3 1_555 1_555
C20_3 N1_3 1_555 1_555
H12_3 C20_3 1_555 1_555
C21_3 C17_3 1_555 1_555
H13_3 C21_3 1_555 1_555
O9_3 C8_3 1_555 1_555
In3_3 O11_3 1_555 1_555
O10_3 In2_5 1_555 1_555
O11_3 C22_3 1_555 1_555
O12_3 C36_3 1_555 1_555
O13_3 C36_3 1_555 1_555
O14_3 C37_3 1_555 1_555
O15_3 C37_3 1_555 1_555
N4_3 In3_3 1_555 1_555
N5_3 H14_3 1_555 1_555
H15_3 N5_3 1_555 1_555
N6_3 H16_3 1_555 1_555
C22_3 O10_3 1_555 1_555
C23_3 H17_2 1_555 1_555
C24_3 C22_3 1_555 1_555
C25_3 C24_3 1_555 1_555
H18_3 C25_3 1_555 1_555
C26_3 C25_3 1_555 1_555
H19_3 C26_3 1_555 1_555
C27_3 C26_3 1_555 1_555
C28_2 C23_3 1_555 1_555
C29_3 N6_3 1_555 1_555
C30_3 C31_3 1_555 1_555
C31_3 H20_3 1_555 1_555
C32_3 C31_3 1_555 1_555
H21_3 C32_3 1_555 1_555
C33_3 N6_3 1_555 1_555
C34_3 C33_3 1_555 1_555
H22_3 C34_3 1_555 1_555
C35_3 C30_3 1_555 1_555
H23_3 C35_3 1_555 1_555
C36_3 C38_3 1_555 1_555
C37_3 C30_3 1_555 1_555
C38_3 C39_3 1_555 1_555
C39_3 N5_3 1_555 1_555
C40_3 N4_3 1_555 1_555
H24_3 C40_3 1_555 1_555
C41_3 N4_3 1_555 1_555
H25_3 C41_3 1_555 1_555
C42_3 C38_3 1_555 1_555
H26_3 C42_3 1_555 1_555
O16_2 C29_3 1_555 1_555
In4_3 O14_3 1_555 1_555
In7 O13_3 1_555 1_555
In8 O15_3 1_555 1_555
In5 O6_3 1_555 1_555
In9_3 O7_3 1_555 1_555
In10_5 O12_3 1_555 1_555
In11_4 O5_3 1_555 1_555
O17_3 In2_5 1_555 1_555
O18_3 In2_5 1_555 1_555
O19_3 In3_3 1_555 1_555
O20_3 In1_3 1_555 1_555
O21_3 In1_3 1_555 1_555
O22_3 In3_3 1_555 1_555
O23_3 In3_3 1_555 1_555
O24_3 In1_3 1_555 1_555
O4_3 C1_3 1_555 1_555
C2_3 C3_3 1_555 1_555
C6_3 C7_3 1_555 1_555
C6_3 C8_3 1_555 1_555
C11_3 C12_3 1_555 1_555
C13_3 C14_3 1_555 1_555
C18_3 C19_3 1_555 1_555
C20_3 C21_3 1_555 1_555
C23_3 C24_3 1_555 1_555
C27_3 C28_2 1_555 1_555
C27_3 C29_3 1_555 1_555
C32_3 C33_3 1_555 1_555
C34_3 C35_3 1_555 1_555
C39_3 C40_3 1_555 1_555
C41_3 C42_3 1_555 1_555
C7_3 H29_3 1_555 1_555
C28_2 H30_2 1_555 1_555
In4 O1_6 1_555 1_555
In10_4 O1_6 1_555 1_555
O2_5 In10_4 1_555 1_555
O3_4 In10_4 1_555 1_555
O4_4 In4 1_555 1_555
O5_4 C15_4 1_555 1_555
O6_4 C15_4 1_555 1_555
O7_4 C16_4 1_555 1_555
O8_4 C16_4 1_555 1_555
N1_4 In4 1_555 1_555
N2_4 H1_4 1_555 1_555
H2_4 N2_4 1_555 1_555
N3_4 H3_4 1_555 1_555
C1_4 O3_4 1_555 1_555
C2_4 H4_4 1_555 1_555
C3_4 C1_4 1_555 1_555
C4_4 C3_4 1_555 1_555
H5_4 C4_4 1_555 1_555
C5_4 C4_4 1_555 1_555
H6_4 C5_4 1_555 1_555
C6_4 C5_4 1_555 1_555
C7_4 C2_4 1_555 1_555
C8_4 N3_4 1_555 1_555
C9_4 C10_4 1_555 1_555
C10_4 H7_4 1_555 1_555
C11_4 C10_4 1_555 1_555
H8_4 C11_4 1_555 1_555
C12_4 N3_4 1_555 1_555
C13_4 C12_4 1_555 1_555
H9_4 C13_4 1_555 1_555
C14_4 C9_4 1_555 1_555
H10_4 C14_4 1_555 1_555
C15_4 C17_4 1_555 1_555
C16_4 C9_4 1_555 1_555
C17_4 C18_4 1_555 1_555
C18_4 N2_4 1_555 1_555
C19_4 N1_4 1_555 1_555
H11_4 C19_4 1_555 1_555
C20_4 N1_4 1_555 1_555
H12_4 C20_4 1_555 1_555
C21_4 C17_4 1_555 1_555
H13_4 C21_4 1_555 1_555
O9_4 C8_4 1_555 1_555
In5_3 O8_4 1_555 1_555
In8_3 O6_4 1_555 1_555
In9_4 O7_4 1_555 1_555
In11_5 O5_4 1_555 1_555
O18_4 In10_4 1_555 1_555
O20_4 In4 1_555 1_555
O24_4 In4 1_555 1_555
O4_4 C1_4 1_555 1_555
C2_4 C3_4 1_555 1_555
C6_4 C7_4 1_555 1_555
C6_4 C8_4 1_555 1_555
C11_4 C12_4 1_555 1_555
C13_4 C14_4 1_555 1_555
C18_4 C19_4 1_555 1_555
C20_4 C21_4 1_555 1_555
O2_5 H27_3 1_555 1_555
C7_4 H29_4 1_555 1_555
In10_5 O1_7 1_555 1_555
O1_7 In7 1_555 1_555
O2_6 In10_5 1_555 1_555
In7 O11_4 1_555 1_555
O10_4 In10_5 1_555 1_555
O11_4 C22_4 1_555 1_555
O12_4 C36_4 1_555 1_555
O13_4 C36_4 1_555 1_555
O14_4 C37_4 1_555 1_555
O15_4 C37_4 1_555 1_555
N4_4 In7 1_555 1_555
N5_4 H14_4 1_555 1_555
H15_4 N5_4 1_555 1_555
N6_4 H16_4 1_555 1_555
C22_4 O10_4 1_555 1_555
C23_4 H17_3 1_555 1_555
C24_4 C22_4 1_555 1_555
C25_4 C24_4 1_555 1_555
H18_4 C25_4 1_555 1_555
C26_4 C25_4 1_555 1_555
H19_4 C26_4 1_555 1_555
C27_4 C26_4 1_555 1_555
C28_3 C23_4 1_555 1_555
C29_4 N6_4 1_555 1_555
C30_4 C31_4 1_555 1_555
C31_4 H20_4 1_555 1_555
C32_4 C31_4 1_555 1_555
H21_4 C32_4 1_555 1_555
C33_4 N6_4 1_555 1_555
C34_4 C33_4 1_555 1_555
H22_4 C34_4 1_555 1_555
C35_4 C30_4 1_555 1_555
H23_4 C35_4 1_555 1_555
C36_4 C38_4 1_555 1_555
C37_4 C30_4 1_555 1_555
C38_4 C39_4 1_555 1_555
C39_4 N5_4 1_555 1_555
C40_4 N4_4 1_555 1_555
H24_4 C40_4 1_555 1_555
C41_4 N4_4 1_555 1_555
H25_4 C41_4 1_555 1_555
C42_4 C38_4 1_555 1_555
H26_4 C42_4 1_555 1_555
O16_3 C29_4 1_555 1_555
In4_4 O14_4 1_555 1_555
In6_3 O13_4 1_555 1_555
In10_6 O12_4 1_555 1_555
O22_4 In7 1_555 1_555
C23_4 C24_4 1_555 1_555
C27_4 C28_3 1_555 1_555
C27_4 C29_4 1_555 1_555
C32_4 C33_4 1_555 1_555
C34_4 C35_4 1_555 1_555
C39_4 C40_4 1_555 1_555
C41_4 C42_4 1_555 1_555
O2_6 H28_3 1_555 1_555
C28_3 H30_3 1_555 1_555
In4_4 O1_8 1_555 1_555
In2_6 O1_8 1_555 1_555
O2_7 In2_6 1_555 1_555
O5_5 C15_5 1_555 1_555
O6_5 C15_5 1_555 1_555
N1_5 In4_4 1_555 1_555
C15_5 C17_5 1_555 1_555
C17_5 C18_5 1_555 1_555
C20_5 N1_5 1_555 1_555
H12_5 C20_5 1_555 1_555
C21_5 C17_5 1_555 1_555
H13_5 C21_5 1_555 1_555
O10_5 In2_6 1_555 1_555
O11_5 C22_5 1_555 1_555
N5_5 H14_5 1_555 1_555
H15_5 N5_5 1_555 1_555
N6_5 H16_5 1_555 1_555
C22_5 O10_5 1_555 1_555
C23_5 H17_4 1_555 1_555
C24_5 C22_5 1_555 1_555
C25_5 C24_5 1_555 1_555
H18_5 C25_5 1_555 1_555
C26_5 C25_5 1_555 1_555
H19_5 C26_5 1_555 1_555
C27_5 C26_5 1_555 1_555
C28_4 C23_5 1_555 1_555
C29_5 N6_5 1_555 1_555
C33_5 N6_5 1_555 1_555
H24_5 C40_5 1_555 1_555
O16_4 C29_5 1_555 1_555
In4_3 O6_5 1_555 1_555
In11 O5_5 1_555 1_555
O18_5 In2_6 1_555 1_555
O20_5 In4_4 1_555 1_555
C20_5 C21_5 1_555 1_555
C23_5 C24_5 1_555 1_555
C27_5 C28_4 1_555 1_555
C27_5 C29_5 1_555 1_555
O2_7 H27_4 1_555 1_555
O2_7 H28_4 1_555 1_555
C28_4 H30_4 1_555 1_555
O14_5 C37_5 1_555 1_555
O15_5 C37_5 1_555 1_555
C30_5 C31_5 1_555 1_555
C31_5 H20_5 1_555 1_555
C32_5 C31_5 1_555 1_555
H22_5 C34_5 1_555 1_555
C35_5 C30_5 1_555 1_555
H23_5 C35_5 1_555 1_555
C37_5 C30_5 1_555 1_555
In6_2 O14_5 1_555 1_555
In7_4 O15_5 1_555 1_555
C34_5 C35_5 1_555 1_555
In2_7 O1_9 1_555 1_555
O1_9 In7_3 1_555 1_555
O2_8 In2_7 1_555 1_555
O3_5 In2_7 1_555 1_555
O7_5 C16_5 1_555 1_555
O8_5 C16_5 1_555 1_555
N2_5 H1_5 1_555 1_555
H2_5 N2_5 1_555 1_555
N3_5 H3_5 1_555 1_555
C1_5 O3_5 1_555 1_555
C2_5 H4_5 1_555 1_555
C3_5 C1_5 1_555 1_555
C4_5 C3_5 1_555 1_555
H5_5 C4_5 1_555 1_555
C5_5 C4_5 1_555 1_555
H6_5 C5_5 1_555 1_555
C6_5 C5_5 1_555 1_555
C7_5 C2_5 1_555 1_555
C8_5 N3_5 1_555 1_555
C9_5 C10_5 1_555 1_555
C10_5 H7_5 1_555 1_555
C11_5 C10_5 1_555 1_555
H8_5 C11_5 1_555 1_555
C12_5 N3_5 1_555 1_555
C13_5 C12_5 1_555 1_555
H9_5 C13_5 1_555 1_555
C14_5 C9_5 1_555 1_555
H10_5 C14_5 1_555 1_555
C16_5 C9_5 1_555 1_555
H11_5 C19_5 1_555 1_555
O9_5 C8_5 1_555 1_555
O12_5 C36_5 1_555 1_555
O13_5 C36_5 1_555 1_555
N4_5 In7_3 1_555 1_555
C36_5 C38_5 1_555 1_555
C38_5 C39_5 1_555 1_555
C41_5 N4_5 1_555 1_555
H25_5 C41_5 1_555 1_555
C42_5 C38_5 1_555 1_555
H26_5 C42_5 1_555 1_555
In5_4 O8_5 1_555 1_555
In9_3 O13_5 1_555 1_555
In8_2 O7_5 1_555 1_555
In10 O12_5 1_555 1_555
O17_4 In2_7 1_555 1_555
O19_4 In7_3 1_555 1_555
O22_5 In7_3 1_555 1_555
O4_5 C1_5 1_555 1_555
C2_5 C3_5 1_555 1_555
C6_5 C7_5 1_555 1_555
C6_5 C8_5 1_555 1_555
C11_5 C12_5 1_555 1_555
C13_5 C14_5 1_555 1_555
C41_5 C42_5 1_555 1_555
C7_5 H29_5 1_555 1_555
In11_3 O1_10 1_555 1_555
O1_10 In9 1_555 1_555
O2_9 In11_3 1_555 1_555
In9 O11_6 1_555 1_555
O10_6 In11_3 1_555 1_555
O11_6 C22_6 1_555 1_555
O12_6 C36_6 1_555 1_555
O13_6 C36_6 1_555 1_555
O14_6 C37_6 1_555 1_555
O15_6 C37_6 1_555 1_555
N4_6 In9 1_555 1_555
N5_6 H14_6 1_555 1_555
H15_6 N5_6 1_555 1_555
N6_6 H16_6 1_555 1_555
C22_6 O10_6 1_555 1_555
C23_6 H17_5 1_555 1_555
C24_6 C22_6 1_555 1_555
C25_6 C24_6 1_555 1_555
H18_6 C25_6 1_555 1_555
C26_6 C25_6 1_555 1_555
H19_6 C26_6 1_555 1_555
C27_6 C26_6 1_555 1_555
C28_5 C23_6 1_555 1_555
C29_6 N6_6 1_555 1_555
C30_6 C31_6 1_555 1_555
C31_6 H20_6 1_555 1_555
C32_6 C31_6 1_555 1_555
H21_6 C32_6 1_555 1_555
C33_6 N6_6 1_555 1_555
C34_6 C33_6 1_555 1_555
H22_6 C34_6 1_555 1_555
C35_6 C30_6 1_555 1_555
H23_6 C35_6 1_555 1_555
C36_6 C38_6 1_555 1_555
C37_6 C30_6 1_555 1_555
C38_6 C39_6 1_555 1_555
C39_6 N5_6 1_555 1_555
C40_6 N4_6 1_555 1_555
H24_6 C40_6 1_555 1_555
C41_6 N4_6 1_555 1_555
H25_6 C41_6 1_555 1_555
C42_6 C38_6 1_555 1_555
H26_6 C42_6 1_555 1_555
O16_5 C29_6 1_555 1_555
In5_3 O14_6 1_555 1_555
In6_4 O13_6 1_555 1_555
In9_4 O15_6 1_555 1_555
In10_8 O12_6 1_555 1_555
O17_5 In11_3 1_555 1_555
O19_5 In9 1_555 1_555
O23_4 In9 1_555 1_555
C23_6 C24_6 1_555 1_555
C27_6 C28_5 1_555 1_555
C27_6 C29_6 1_555 1_555
C32_6 C33_6 1_555 1_555
C34_6 C35_6 1_555 1_555
C39_6 C40_6 1_555 1_555
C41_6 C42_6 1_555 1_555
O2_9 H28_5 1_555 1_555
C28_5 H30_5 1_555 1_555
In5 O1_11 1_555 1_555
In11_4 O1_11 1_555 1_555
O2_10 In11_4 1_555 1_555
O3_6 In11_4 1_555 1_555
O4_6 In5 1_555 1_555
O5_6 C15_6 1_555 1_555
O6_6 C15_6 1_555 1_555
O22_5 C16_6 1_555 1_555
O24_5 C16_6 1_555 1_555
N1_6 In5 1_555 1_555
N2_6 H1_6 1_555 1_555
H2_6 N2_6 1_555 1_555
N3_6 H3_6 1_555 1_555
C1_6 O3_6 1_555 1_555
C2_6 H4_6 1_555 1_555
C3_6 C1_6 1_555 1_555
C4_6 C3_6 1_555 1_555
H5_6 C4_6 1_555 1_555
C5_6 C4_6 1_555 1_555
H6_6 C5_6 1_555 1_555
C6_6 C5_6 1_555 1_555
C7_6 C2_6 1_555 1_555
C8_6 N3_6 1_555 1_555
C9_6 C10_6 1_555 1_555
C10_6 H7_6 1_555 1_555
C11_6 C10_6 1_555 1_555
H8_6 C11_6 1_555 1_555
C12_6 N3_6 1_555 1_555
C13_6 C12_6 1_555 1_555
H9_6 C13_6 1_555 1_555
C14_6 C9_6 1_555 1_555
H10_6 C14_6 1_555 1_555
C15_6 C17_6 1_555 1_555
C16_6 C9_6 1_555 1_555
C17_6 C18_6 1_555 1_555
C18_6 N2_6 1_555 1_555
C19_6 N1_6 1_555 1_555
H11_6 C19_6 1_555 1_555
C20_6 N1_6 1_555 1_555
H12_6 C20_6 1_555 1_555
C21_6 C17_6 1_555 1_555
H13_6 C21_6 1_555 1_555
O9_6 C8_6 1_555 1_555
In8_4 O6_6 1_555 1_555
In11_7 O5_6 1_555 1_555
O21_4 In5 1_555 1_555
O4_6 C1_6 1_555 1_555
C2_6 C3_6 1_555 1_555
C6_6 C7_6 1_555 1_555
C6_6 C8_6 1_555 1_555
C11_6 C12_6 1_555 1_555
C13_6 C14_6 1_555 1_555
C18_6 C19_6 1_555 1_555
C20_6 C21_6 1_555 1_555
O2_10 H27_5 1_555 1_555
C7_6 H29_6 1_555 1_555
In1_4 O1_12 1_555 1_555
In10_8 O1_12 1_555 1_555
O1_12 In6_4 1_555 1_555
O2_11 In10_8 1_555 1_555
O3_7 In10_8 1_555 1_555
O4_7 In1_4 1_555 1_555
O18_2 C15_7 1_555 1_555
O20_2 C15_7 1_555 1_555
O7_6 C16_7 1_555 1_555
O8_6 C16_7 1_555 1_555
N1_7 In1_4 1_555 1_555
N2_7 H1_7 1_555 1_555
H2_7 N2_7 1_555 1_555
N3_7 H3_7 1_555 1_555
C1_7 O3_7 1_555 1_555
C2_7 H4_7 1_555 1_555
C3_7 C1_7 1_555 1_555
C4_7 C3_7 1_555 1_555
H5_7 C4_7 1_555 1_555
C5_7 C4_7 1_555 1_555
H6_7 C5_7 1_555 1_555
C6_7 C5_7 1_555 1_555
C7_7 C2_7 1_555 1_555
C8_7 N3_7 1_555 1_555
C9_7 C10_7 1_555 1_555
C10_7 H7_7 1_555 1_555
C11_7 C10_7 1_555 1_555
H8_7 C11_7 1_555 1_555
C12_7 N3_7 1_555 1_555
C13_7 C12_7 1_555 1_555
H9_7 C13_7 1_555 1_555
C14_7 C9_7 1_555 1_555
H10_7 C14_7 1_555 1_555
C15_7 C17_7 1_555 1_555
C16_7 C9_7 1_555 1_555
C17_7 C18_7 1_555 1_555
C18_7 N2_7 1_555 1_555
C19_7 N1_7 1_555 1_555
H11_7 C19_7 1_555 1_555
C20_7 N1_7 1_555 1_555
H12_7 C20_7 1_555 1_555
C21_7 C17_7 1_555 1_555
H13_7 C21_7 1_555 1_555
O9_7 C8_7 1_555 1_555
In6_4 O11_7 1_555 1_555
O10_7 In10_8 1_555 1_555
O11_7 C22_7 1_555 1_555
O12_7 C36_7 1_555 1_555
O13_7 C36_7 1_555 1_555
O14_7 C37_7 1_555 1_555
O15_7 C37_7 1_555 1_555
N4_7 In6_4 1_555 1_555
N5_7 H14_7 1_555 1_555
H15_7 N5_7 1_555 1_555
N6_7 H16_7 1_555 1_555
C22_7 O10_7 1_555 1_555
C23_7 H17_6 1_555 1_555
C24_7 C22_7 1_555 1_555
C25_7 C24_7 1_555 1_555
H18_7 C25_7 1_555 1_555
C26_7 C25_7 1_555 1_555
H19_7 C26_7 1_555 1_555
C27_7 C26_7 1_555 1_555
C28_6 C23_7 1_555 1_555
C29_7 N6_7 1_555 1_555
C30_7 C31_7 1_555 1_555
C31_7 H20_7 1_555 1_555
C32_7 C31_7 1_555 1_555
H21_7 C32_7 1_555 1_555
C33_7 N6_7 1_555 1_555
C34_7 C33_7 1_555 1_555
H22_7 C34_7 1_555 1_555
C35_7 C30_7 1_555 1_555
H23_7 C35_7 1_555 1_555
C36_7 C38_7 1_555 1_555
C37_7 C30_7 1_555 1_555
C38_7 C39_7 1_555 1_555
C39_7 N5_7 1_555 1_555
C40_7 N4_7 1_555 1_555
H24_7 C40_7 1_555 1_555
C41_7 N4_7 1_555 1_555
H25_7 C41_7 1_555 1_555
C42_7 C38_7 1_555 1_555
H26_7 C42_7 1_555 1_555
O16_6 C29_7 1_555 1_555
In4_5 O14_7 1_555 1_555
In6_5 O13_7 1_555 1_555
In7_5 O15_7 1_555 1_555
In9_5 O7_6 1_555 1_555
In10_10 O12_7 1_555 1_555
O18_6 In10_8 1_555 1_555
O20_6 In1_4 1_555 1_555
O21_5 In1_4 1_555 1_555
O22_6 In6_4 1_555 1_555
O23_5 In6_4 1_555 1_555
O24_6 In1_4 1_555 1_555
O4_7 C1_7 1_555 1_555
C2_7 C3_7 1_555 1_555
C6_7 C7_7 1_555 1_555
C6_7 C8_7 1_555 1_555
C11_7 C12_7 1_555 1_555
C13_7 C14_7 1_555 1_555
C18_7 C19_7 1_555 1_555
C20_7 C21_7 1_555 1_555
C23_7 C24_7 1_555 1_555
C27_7 C28_6 1_555 1_555
C27_7 C29_7 1_555 1_555
C32_7 C33_7 1_555 1_555
C34_7 C35_7 1_555 1_555
C39_7 C40_7 1_555 1_555
C41_7 C42_7 1_555 1_555
C7_7 H29_7 1_555 1_555
C28_6 H30_6 1_555 1_555
O24_4 C37_8 1_555 1_555
C30_8 C31_8 1_555 1_555
C31_8 H20_8 1_555 1_555
C32_8 C31_8 1_555 1_555
C37_8 C30_8 1_555 1_555
H22_8 C34_8 1_555 1_555
H23_8 C35_8 1_555 1_555
C34_8 C35_8 1_555 1_555
In1_5 O1_13 1_555 1_555
In2_8 O1_13 1_555 1_555
O1_13 In3_4 1_555 1_555
O3_8 In2_8 1_555 1_555
O4_8 In1_5 1_555 1_555
O5_7 C15_8 1_555 1_555
O6_7 C15_8 1_555 1_555
O23_4 C16_8 1_555 1_555
N1_8 In1_5 1_555 1_555
N2_8 H1_8 1_555 1_555
H2_8 N2_8 1_555 1_555
N3_8 H3_8 1_555 1_555
C1_8 O3_8 1_555 1_555
C3_8 C1_8 1_555 1_555
C4_8 C3_8 1_555 1_555
H5_8 C4_8 1_555 1_555
C5_8 C4_8 1_555 1_555
H6_8 C5_8 1_555 1_555
C6_8 C5_8 1_555 1_555
C8_8 N3_8 1_555 1_555
C9_8 C10_8 1_555 1_555
C10_8 H7_8 1_555 1_555
C11_8 C10_8 1_555 1_555
H8_8 C11_8 1_555 1_555
C12_8 N3_8 1_555 1_555
C15_8 C17_8 1_555 1_555
C16_8 C9_8 1_555 1_555
C17_8 C18_8 1_555 1_555
C18_8 N2_8 1_555 1_555
C19_8 N1_8 1_555 1_555
H11_8 C19_8 1_555 1_555
C20_8 N1_8 1_555 1_555
H12_8 C20_8 1_555 1_555
C21_8 C17_8 1_555 1_555
H13_8 C21_8 1_555 1_555
In3_4 O11_8 1_555 1_555
O10_8 In2_8 1_555 1_555
O11_8 C22_8 1_555 1_555
O12_8 C36_8 1_555 1_555
O13_8 C36_8 1_555 1_555
N4_8 In3_4 1_555 1_555
N5_8 H14_8 1_555 1_555
H15_8 N5_8 1_555 1_555
N6_8 H16_8 1_555 1_555
C22_8 O10_8 1_555 1_555
C24_8 C22_8 1_555 1_555
C25_8 C24_8 1_555 1_555
H18_8 C25_8 1_555 1_555
C26_8 C25_8 1_555 1_555
H19_8 C26_8 1_555 1_555
C27_8 C26_8 1_555 1_555
C29_8 N6_8 1_555 1_555
C33_8 N6_8 1_555 1_555
C36_8 C38_8 1_555 1_555
C38_8 C39_8 1_555 1_555
C39_8 N5_8 1_555 1_555
C40_8 N4_8 1_555 1_555
H24_8 C40_8 1_555 1_555
C41_8 N4_8 1_555 1_555
H25_8 C41_8 1_555 1_555
C42_8 C38_8 1_555 1_555
H26_8 C42_8 1_555 1_555
In9_2 O13_8 1_555 1_555
In4_2 O6_7 1_555 1_555
In10_12 O12_8 1_555 1_555
In11_8 O5_7 1_555 1_555
O17_6 In2_8 1_555 1_555
O18_7 In2_8 1_555 1_555
O19_6 In3_4 1_555 1_555
O20_7 In1_5 1_555 1_555
O21_6 In1_5 1_555 1_555
O22_7 In3_4 1_555 1_555
O23_6 In3_4 1_555 1_555
O24_7 In1_5 1_555 1_555
O4_8 C1_8 1_555 1_555
C2_8 C3_8 1_555 1_555
C6_8 C8_8 1_555 1_555
C11_8 C12_8 1_555 1_555
C18_8 C19_8 1_555 1_555
C20_8 C21_8 1_555 1_555
C23_8 C24_8 1_555 1_555
C27_8 C29_8 1_555 1_555
C39_8 C40_8 1_555 1_555
C41_8 C42_8 1_555 1_555
H9_8 C13_8 1_555 1_555
H10_8 C14_8 1_555 1_555
C13_8 C14_8 1_555 1_555
C7_8 H29_8 1_555 1_555
C28_7 H30_7 1_555 1_555
In8_3 O1_14 1_555 1_555
In11_5 O1_14 1_555 1_555
O2_13 In11_5 1_555 1_555
O3_9 In11_5 1_555 1_555
O4_9 In8_3 1_555 1_555
O5_8 C15_9 1_555 1_555
O6_8 C15_9 1_555 1_555
O7_7 C16_9 1_555 1_555
O8_7 C16_9 1_555 1_555
N1_9 In8_3 1_555 1_555
N2_9 H1_9 1_555 1_555
H2_9 N2_9 1_555 1_555
N3_9 H3_9 1_555 1_555
C1_9 O3_9 1_555 1_555
C2_9 H4_9 1_555 1_555
C3_9 C1_9 1_555 1_555
C4_9 C3_9 1_555 1_555
H5_9 C4_9 1_555 1_555
C5_9 C4_9 1_555 1_555
H6_9 C5_9 1_555 1_555
C6_9 C5_9 1_555 1_555
C7_9 C2_9 1_555 1_555
C8_9 N3_9 1_555 1_555
C9_9 C10_9 1_555 1_555
C10_9 H7_9 1_555 1_555
C11_9 C10_9 1_555 1_555
H8_9 C11_9 1_555 1_555
C12_9 N3_9 1_555 1_555
C13_9 C12_9 1_555 1_555
H9_9 C13_9 1_555 1_555
C14_9 C9_9 1_555 1_555
H10_9 C14_9 1_555 1_555
C15_9 C17_9 1_555 1_555
C16_9 C9_9 1_555 1_555
C17_9 C18_9 1_555 1_555
C18_9 N2_9 1_555 1_555
C19_9 N1_9 1_555 1_555
H11_9 C19_9 1_555 1_555
C20_9 N1_9 1_555 1_555
H12_9 C20_9 1_555 1_555
C21_9 C17_9 1_555 1_555
H13_9 C21_9 1_555 1_555
O9_9 C8_9 1_555 1_555
In5_6 O8_7 1_555 1_555
In8_5 O6_8 1_555 1_555
In9_6 O7_7 1_555 1_555
In10_9 O5_8 1_555 1_555
O21_7 In8_3 1_555 1_555
O24_8 In8_3 1_555 1_555
O4_9 C1_9 1_555 1_555
C2_9 C3_9 1_555 1_555
C6_9 C7_9 1_555 1_555
C6_9 C8_9 1_555 1_555
C11_9 C12_9 1_555 1_555
C13_9 C14_9 1_555 1_555
C18_9 C19_9 1_555 1_555
C20_9 C21_9 1_555 1_555
O2_13 H27_6 1_555 1_555
C7_9 H29_9 1_555 1_555
In11_6 O1_15 1_555 1_555
O1_15 In3_5 1_555 1_555
O2_14 In11_6 1_555 1_555
In3_5 O11_9 1_555 1_555
O10_9 In11_6 1_555 1_555
O11_9 C22_9 1_555 1_555
O17_2 C36_9 1_555 1_555
O19_2 C36_9 1_555 1_555
O14_8 C37_9 1_555 1_555
O15_8 C37_9 1_555 1_555
N4_9 In3_5 1_555 1_555
N5_9 H14_9 1_555 1_555
H15_9 N5_9 1_555 1_555
N6_9 H16_9 1_555 1_555
C22_9 O10_9 1_555 1_555
C23_9 H17_8 1_555 1_555
C24_9 C22_9 1_555 1_555
C25_9 C24_9 1_555 1_555
H18_9 C25_9 1_555 1_555
C26_9 C25_9 1_555 1_555
H19_9 C26_9 1_555 1_555
C27_9 C26_9 1_555 1_555
C28_8 C23_9 1_555 1_555
C29_9 N6_9 1_555 1_555
C30_9 C31_9 1_555 1_555
C31_9 H20_9 1_555 1_555
C32_9 C31_9 1_555 1_555
H21_9 C32_9 1_555 1_555
C33_9 N6_9 1_555 1_555
C34_9 C33_9 1_555 1_555
H22_9 C34_9 1_555 1_555
C35_9 C30_9 1_555 1_555
H23_9 C35_9 1_555 1_555
C36_9 C38_9 1_555 1_555
C37_9 C30_9 1_555 1_555
C38_9 C39_9 1_555 1_555
C39_9 N5_9 1_555 1_555
C40_9 N4_9 1_555 1_555
H24_9 C40_9 1_555 1_555
C41_9 N4_9 1_555 1_555
H25_9 C41_9 1_555 1_555
C42_9 C38_9 1_555 1_555
H26_9 C42_9 1_555 1_555
O16_8 C29_9 1_555 1_555
In4_6 O14_8 1_555 1_555
O17_7 In11_6 1_555 1_555
O19_7 In3_5 1_555 1_555
O22_8 In3_5 1_555 1_555
O23_7 In3_5 1_555 1_555
C23_9 C24_9 1_555 1_555
C27_9 C28_8 1_555 1_555
C27_9 C29_9 1_555 1_555
C32_9 C33_9 1_555 1_555
C34_9 C35_9 1_555 1_555
C39_9 C40_9 1_555 1_555
C41_9 C42_9 1_555 1_555
O2_14 H28_6 1_555 1_555
C28_8 H30_8 1_555 1_555
H22_10 C34_10 1_555 1_555
H23_10 C35_10 1_555 1_555
In8_5 O14_9 1_555 1_555
C34_10 C35_10 1_555 1_555
H9_10 C13_10 1_555 1_555
H10_10 C14_10 1_555 1_555
C13_10 C14_10 1_555 1_555
C7_10 H29_10 1_555 1_555
O15_9 C37_10 1_555 1_555
C30_10 C31_10 1_555 1_555
C31_10 H20_10 1_555 1_555
C32_10 C31_10 1_555 1_555
C37_10 C30_10 1_555 1_555
In6_5 O15_9 1_555 1_555
In9_3 O1_16 1_555 1_555
In10 O1_16 1_555 1_555
O5_9 C15_10 1_555 1_555
O6_9 C15_10 1_555 1_555
N1_10 In9_3 1_555 1_555
C15_10 C17_10 1_555 1_555
C17_10 C18_10 1_555 1_555
C20_10 N1_10 1_555 1_555
H12_10 C20_10 1_555 1_555
C21_10 C17_10 1_555 1_555
H13_10 C21_10 1_555 1_555
O10_10 In10 1_555 1_555
O11_10 C22_10 1_555 1_555
N5_10 H14_10 1_555 1_555
H15_10 N5_10 1_555 1_555
N6_10 H16_10 1_555 1_555
C22_10 O10_10 1_555 1_555
C24_10 C22_10 1_555 1_555
C25_10 C24_10 1_555 1_555
H18_10 C25_10 1_555 1_555
C26_10 C25_10 1_555 1_555
H19_10 C26_10 1_555 1_555
C27_10 C26_10 1_555 1_555
C29_10 N6_10 1_555 1_555
C33_10 N6_10 1_555 1_555
H24_10 C40_10 1_555 1_555
In7_5 O6_9 1_555 1_555
In11_9 O5_9 1_555 1_555
C20_10 C21_10 1_555 1_555
C23_10 C24_10 1_555 1_555
C27_10 C29_10 1_555 1_555
In10_2 O1_17 1_555 1_555
O1_17 In6 1_555 1_555
O3_10 In10_2 1_555 1_555
O24_2 C16_10 1_555 1_555
N2_10 H1_10 1_555 1_555
H2_10 N2_10 1_555 1_555
N3_10 H3_10 1_555 1_555
C1_10 O3_10 1_555 1_555
C3_10 C1_10 1_555 1_555
C4_10 C3_10 1_555 1_555
H5_10 C4_10 1_555 1_555
C5_10 C4_10 1_555 1_555
H6_10 C5_10 1_555 1_555
C6_10 C5_10 1_555 1_555
C8_10 N3_10 1_555 1_555
C9_10 C10_10 1_555 1_555
C10_10 H7_10 1_555 1_555
C11_10 C10_10 1_555 1_555
H8_10 C11_10 1_555 1_555
C12_10 N3_10 1_555 1_555
C16_10 C9_10 1_555 1_555
H11_10 C19_10 1_555 1_555
O12_9 C36_10 1_555 1_555
O13_9 C36_10 1_555 1_555
N4_10 In6 1_555 1_555
C36_10 C38_10 1_555 1_555
C38_10 C39_10 1_555 1_555
C41_10 N4_10 1_555 1_555
H25_10 C41_10 1_555 1_555
C42_10 C38_10 1_555 1_555
H26_10 C42_10 1_555 1_555
In5_5 O13_9 1_555 1_555
In10_14 O12_9 1_555 1_555
O22_9 In6 1_555 1_555
O4_10 C1_10 1_555 1_555
C2_10 C3_10 1_555 1_555
C6_10 C8_10 1_555 1_555
C11_10 C12_10 1_555 1_555
C41_10 C42_10 1_555 1_555
H22_11 C34_11 1_555 1_555
H23_11 C35_11 1_555 1_555
C34_11 C35_11 1_555 1_555
O23_7 C37_11 1_555 1_555
C30_11 C31_11 1_555 1_555
C31_11 H20_11 1_555 1_555
C32_11 C31_11 1_555 1_555
C37_11 C30_11 1_555 1_555
H9_11 C13_11 1_555 1_555
H10_11 C14_11 1_555 1_555
In6_3 O7_8 1_555 1_555
C13_11 C14_11 1_555 1_555
C7_11 H29_11 1_555 1_555
In9_5 O1_18 1_555 1_555
In10_13 O1_18 1_555 1_555
O17_6 C15_11 1_555 1_555
O19_6 C15_11 1_555 1_555
N1_11 In9_5 1_555 1_555
C15_11 C17_11 1_555 1_555
C17_11 C18_11 1_555 1_555
C20_11 N1_11 1_555 1_555
H12_11 C20_11 1_555 1_555
C21_11 C17_11 1_555 1_555
H13_11 C21_11 1_555 1_555
O10_11 In10_13 1_555 1_555
O11_11 C22_11 1_555 1_555
N5_11 H14_11 1_555 1_555
H15_11 N5_11 1_555 1_555
N6_11 H16_11 1_555 1_555
C22_11 O10_11 1_555 1_555
C24_11 C22_11 1_555 1_555
C25_11 C24_11 1_555 1_555
H18_11 C25_11 1_555 1_555
C26_11 C25_11 1_555 1_555
H19_11 C26_11 1_555 1_555
C27_11 C26_11 1_555 1_555
C29_11 N6_11 1_555 1_555
C33_11 N6_11 1_555 1_555
H24_11 C40_11 1_555 1_555
O18_8 In10_13 1_555 1_555
O20_8 In9_5 1_555 1_555
C20_11 C21_11 1_555 1_555
C23_11 C24_11 1_555 1_555
C27_11 C29_11 1_555 1_555
In10_14 O1_19 1_555 1_555
O1_19 In5_5 1_555 1_555
O3_11 In10_14 1_555 1_555
O8_8 C16_11 1_555 1_555
N2_11 H1_11 1_555 1_555
H2_11 N2_11 1_555 1_555
N3_11 H3_11 1_555 1_555
C1_11 O3_11 1_555 1_555
C3_11 C1_11 1_555 1_555
C4_11 C3_11 1_555 1_555
H5_11 C4_11 1_555 1_555
C5_11 C4_11 1_555 1_555
H6_11 C5_11 1_555 1_555
C6_11 C5_11 1_555 1_555
C8_11 N3_11 1_555 1_555
C9_11 C10_11 1_555 1_555
C10_11 H7_11 1_555 1_555
C11_11 C10_11 1_555 1_555
H8_11 C11_11 1_555 1_555
C12_11 N3_11 1_555 1_555
C16_11 C9_11 1_555 1_555
H11_11 C19_11 1_555 1_555
O17 C36_11 1_555 1_555
O19 C36_11 1_555 1_555
N4_11 In5_5 1_555 1_555
C36_11 C38_11 1_555 1_555
C38_11 C39_11 1_555 1_555
C41_11 N4_11 1_555 1_555
H25_11 C41_11 1_555 1_555
C42_11 C38_11 1_555 1_555
H26_11 C42_11 1_555 1_555
In5_7 O8_8 1_555 1_555
O22_10 In5_5 1_555 1_555
O4_11 C1_11 1_555 1_555
C2_11 C3_11 1_555 1_555
C6_11 C8_11 1_555 1_555
C11_11 C12_11 1_555 1_555
C41_11 C42_11 1_555 1_555
In4_6 O1_20 1_555 1_555
In2_9 O1_20 1_555 1_555
O2_17 In2_9 1_555 1_555
O18_7 C15_12 1_555 1_555
O20_7 C15_12 1_555 1_555
N1_12 In4_6 1_555 1_555
C15_12 C17_12 1_555 1_555
C17_12 C18_12 1_555 1_555
C20_12 N1_12 1_555 1_555
H12_12 C20_12 1_555 1_555
C21_12 C17_12 1_555 1_555
H13_12 C21_12 1_555 1_555
O10_12 In2_9 1_555 1_555
O11_12 C22_12 1_555 1_555
N5_12 H14_12 1_555 1_555
H15_12 N5_12 1_555 1_555
N6_12 H16_12 1_555 1_555
C22_12 O10_12 1_555 1_555
C23_12 H17_9 1_555 1_555
C24_12 C22_12 1_555 1_555
C25_12 C24_12 1_555 1_555
H18_12 C25_12 1_555 1_555
C26_12 C25_12 1_555 1_555
H19_12 C26_12 1_555 1_555
C27_12 C26_12 1_555 1_555
C28_9 C23_12 1_555 1_555
C29_12 N6_12 1_555 1_555
C33_12 N6_12 1_555 1_555
H24_12 C40_12 1_555 1_555
O16_9 C29_12 1_555 1_555
O18_9 In2_9 1_555 1_555
O20_9 In4_6 1_555 1_555
C20_12 C21_12 1_555 1_555
C23_12 C24_12 1_555 1_555
C27_12 C28_9 1_555 1_555
C27_12 C29_12 1_555 1_555
O2_17 H27_7 1_555 1_555
O2_17 H28_7 1_555 1_555
C28_9 H30_9 1_555 1_555
In2_10 O1_21 1_555 1_555
O1_21 In7_6 1_555 1_555
O2_18 In2_10 1_555 1_555
O3_12 In2_10 1_555 1_555
O7_9 C16_12 1_555 1_555
O8_9 C16_12 1_555 1_555
N2_12 H1_12 1_555 1_555
H2_12 N2_12 1_555 1_555
N3_12 H3_12 1_555 1_555
C1_12 O3_12 1_555 1_555
C2_12 H4_12 1_555 1_555
C3_12 C1_12 1_555 1_555
C4_12 C3_12 1_555 1_555
H5_12 C4_12 1_555 1_555
C5_12 C4_12 1_555 1_555
H6_12 C5_12 1_555 1_555
C6_12 C5_12 1_555 1_555
C7_12 C2_12 1_555 1_555
C8_12 N3_12 1_555 1_555
C9_12 C10_12 1_555 1_555
C10_12 H7_12 1_555 1_555
C11_12 C10_12 1_555 1_555
H8_12 C11_12 1_555 1_555
C12_12 N3_12 1_555 1_555
C13_12 C12_12 1_555 1_555
H9_12 C13_12 1_555 1_555
C14_12 C9_12 1_555 1_555
H10_12 C14_12 1_555 1_555
C16_12 C9_12 1_555 1_555
H11_12 C19_12 1_555 1_555
O9_12 C8_12 1_555 1_555
O18 C36_12 1_555 1_555
O20 C36_12 1_555 1_555
N4_12 In7_6 1_555 1_555
C36_12 C38_12 1_555 1_555
C38_12 C39_12 1_555 1_555
C41_12 N4_12 1_555 1_555
H25_12 C41_12 1_555 1_555
C42_12 C38_12 1_555 1_555
H26_12 C42_12 1_555 1_555
In5_8 O8_9 1_555 1_555
In8_4 O7_9 1_555 1_555
O17_8 In2_10 1_555 1_555
O19_8 In7_6 1_555 1_555
O22_11 In7_6 1_555 1_555
O4_12 C1_12 1_555 1_555
C2_12 C3_12 1_555 1_555
C6_12 C7_12 1_555 1_555
C6_12 C8_12 1_555 1_555
C11_12 C12_12 1_555 1_555
C13_12 C14_12 1_555 1_555
C41_12 C42_12 1_555 1_555
C7_12 H29_12 1_555 1_555
O22_6 C37_12 1_555 1_555
O24_6 C37_12 1_555 1_555
C30_12 C31_12 1_555 1_555
C31_12 H20_12 1_555 1_555
C32_12 C31_12 1_555 1_555
H22_12 C34_12 1_555 1_555
C35_12 C30_12 1_555 1_555
H23_12 C35_12 1_555 1_555
C37_12 C30_12 1_555 1_555
C34_12 C35_12 1_555 1_555
O2_15 H27_8 1_555 1_555
O2_15 H28_8 1_555 1_555
O2_16 H27_9 1_555 1_555
O2_16 H28_9 1_555 1_555
O15_10 C37_13 1_555 1_555
C30_13 C31_13 1_555 1_555
C31_13 H20_13 1_555 1_555
C32_13 C31_13 1_555 1_555
C37_13 C30_13 1_555 1_555
In8_5 O15_10 1_555 1_555
In4_3 O1_22 1_555 1_555
In11 O1_22 1_555 1_555
O1_22 In8 1_555 1_555
O3_13 In11 1_555 1_555
O4_13 In4_3 1_555 1_555
O5_10 C15_13 1_555 1_555
O6_10 C15_13 1_555 1_555
O23_2 C16_13 1_555 1_555
N1_13 In4_3 1_555 1_555
N2_13 H1_13 1_555 1_555
H2_13 N2_13 1_555 1_555
N3_13 H3_13 1_555 1_555
C1_13 O3_13 1_555 1_555
C3_13 C1_13 1_555 1_555
C4_13 C3_13 1_555 1_555
H5_13 C4_13 1_555 1_555
C5_13 C4_13 1_555 1_555
H6_13 C5_13 1_555 1_555
C6_13 C5_13 1_555 1_555
C8_13 N3_13 1_555 1_555
C9_13 C10_13 1_555 1_555
C10_13 H7_13 1_555 1_555
C11_13 C10_13 1_555 1_555
H8_13 C11_13 1_555 1_555
C12_13 N3_13 1_555 1_555
C15_13 C17_13 1_555 1_555
C16_13 C9_13 1_555 1_555
C17_13 C18_13 1_555 1_555
C18_13 N2_13 1_555 1_555
C19_13 N1_13 1_555 1_555
H11_13 C19_13 1_555 1_555
C20_13 N1_13 1_555 1_555
H12_13 C20_13 1_555 1_555
C21_13 C17_13 1_555 1_555
H13_13 C21_13 1_555 1_555
In8 O11_13 1_555 1_555
O10_13 In11 1_555 1_555
O11_13 C22_13 1_555 1_555
O17_8 C36_13 1_555 1_555
O19_8 C36_13 1_555 1_555
N4_13 In8 1_555 1_555
N5_13 H14_13 1_555 1_555
H15_13 N5_13 1_555 1_555
N6_13 H16_13 1_555 1_555
C22_13 O10_13 1_555 1_555
C24_13 C22_13 1_555 1_555
C25_13 C24_13 1_555 1_555
H18_13 C25_13 1_555 1_555
C26_13 C25_13 1_555 1_555
H19_13 C26_13 1_555 1_555
C27_13 C26_13 1_555 1_555
C29_13 N6_13 1_555 1_555
C33_13 N6_13 1_555 1_555
C36_13 C38_13 1_555 1_555
C38_13 C39_13 1_555 1_555
C39_13 N5_13 1_555 1_555
C40_13 N4_13 1_555 1_555
H24_13 C40_13 1_555 1_555
C41_13 N4_13 1_555 1_555
H25_13 C41_13 1_555 1_555
C42_13 C38_13 1_555 1_555
H26_13 C42_13 1_555 1_555
In5_6 O6_10 1_555 1_555
In11_10 O5_10 1_555 1_555
O22_12 In8 1_555 1_555
O24_12 In4_3 1_555 1_555
O4_13 C1_13 1_555 1_555
C2_13 C3_13 1_555 1_555
C6_13 C8_13 1_555 1_555
C11_13 C12_13 1_555 1_555
C18_13 C19_13 1_555 1_555
C20_13 C21_13 1_555 1_555
C23_13 C24_13 1_555 1_555
C27_13 C29_13 1_555 1_555
C39_13 C40_13 1_555 1_555
C41_13 C42_13 1_555 1_555
H22_13 C34_13 1_555 1_555
H23_13 C35_13 1_555 1_555
In6_5 O14_10 1_555 1_555
C34_13 C35_13 1_555 1_555
H9_13 C13_13 1_555 1_555
H10_13 C14_13 1_555 1_555
C13_13 C14_13 1_555 1_555
C7_13 H29_13 1_555 1_555
C28_10 H30_10 1_555 1_555
In5_2 O1_23 1_555 1_555
In10_11 O1_23 1_555 1_555
O2_20 In10_11 1_555 1_555
O5_11 C15_14 1_555 1_555
O6_11 C15_14 1_555 1_555
N1_14 In5_2 1_555 1_555
C15_14 C17_14 1_555 1_555
C17_14 C18_14 1_555 1_555
C20_14 N1_14 1_555 1_555
H12_14 C20_14 1_555 1_555
C21_14 C17_14 1_555 1_555
H13_14 C21_14 1_555 1_555
O10_14 In10_11 1_555 1_555
O11_14 C22_14 1_555 1_555
N5_14 H14_14 1_555 1_555
H15_14 N5_14 1_555 1_555
N6_14 H16_14 1_555 1_555
C22_14 O10_14 1_555 1_555
C23_14 H17_11 1_555 1_555
C24_14 C22_14 1_555 1_555
C25_14 C24_14 1_555 1_555
H18_14 C25_14 1_555 1_555
C26_14 C25_14 1_555 1_555
H19_14 C26_14 1_555 1_555
C27_14 C26_14 1_555 1_555
C28_11 C23_14 1_555 1_555
C29_14 N6_14 1_555 1_555
C33_14 N6_14 1_555 1_555
H24_14 C40_14 1_555 1_555
O16_11 C29_14 1_555 1_555
In4_5 O6_11 1_555 1_555
In11_9 O5_11 1_555 1_555
O18_10 In10_11 1_555 1_555
O20_10 In5_2 1_555 1_555
O21_8 In5_2 1_555 1_555
C20_14 C21_14 1_555 1_555
C23_14 C24_14 1_555 1_555
C27_14 C28_11 1_555 1_555
C27_14 C29_14 1_555 1_555
O2_20 H27_10 1_555 1_555
O2_20 H28_10 1_555 1_555
C28_11 H30_11 1_555 1_555
O22_3 C37_14 1_555 1_555
O24_3 C37_14 1_555 1_555
C30_14 C31_14 1_555 1_555
C31_14 H20_14 1_555 1_555
C32_14 C31_14 1_555 1_555
H22_14 C34_14 1_555 1_555
C35_14 C30_14 1_555 1_555
H23_14 C35_14 1_555 1_555
C37_14 C30_14 1_555 1_555
C34_14 C35_14 1_555 1_555
In10_12 O1_24 1_555 1_555
O1_24 In9_2 1_555 1_555
O2_21 In10_12 1_555 1_555
O3_14 In10_12 1_555 1_555
O7_10 C16_14 1_555 1_555
O8_10 C16_14 1_555 1_555
N2_14 H1_14 1_555 1_555
H2_14 N2_14 1_555 1_555
N3_14 H3_14 1_555 1_555
C1_14 O3_14 1_555 1_555
C2_14 H4_14 1_555 1_555
C3_14 C1_14 1_555 1_555
C4_14 C3_14 1_555 1_555
H5_14 C4_14 1_555 1_555
C5_14 C4_14 1_555 1_555
H6_14 C5_14 1_555 1_555
C6_14 C5_14 1_555 1_555
C7_14 C2_14 1_555 1_555
C8_14 N3_14 1_555 1_555
C9_14 C10_14 1_555 1_555
C10_14 H7_14 1_555 1_555
C11_14 C10_14 1_555 1_555
H8_14 C11_14 1_555 1_555
C12_14 N3_14 1_555 1_555
C13_14 C12_14 1_555 1_555
H9_14 C13_14 1_555 1_555
C14_14 C9_14 1_555 1_555
H10_14 C14_14 1_555 1_555
C16_14 C9_14 1_555 1_555
H11_14 C19_14 1_555 1_555
O9_14 C8_14 1_555 1_555
O18_8 C36_14 1_555 1_555
O20_8 C36_14 1_555 1_555
N4_14 In9_2 1_555 1_555
C36_14 C38_14 1_555 1_555
C38_14 C39_14 1_555 1_555
C41_14 N4_14 1_555 1_555
H25_14 C41_14 1_555 1_555
C42_14 C38_14 1_555 1_555
H26_14 C42_14 1_555 1_555
In5_9 O8_10 1_555 1_555
In9_7 O7_10 1_555 1_555
O4_14 C1_14 1_555 1_555
C2_14 C3_14 1_555 1_555
C6_14 C7_14 1_555 1_555
C6_14 C8_14 1_555 1_555
C11_14 C12_14 1_555 1_555
C13_14 C14_14 1_555 1_555
C41_14 C42_14 1_555 1_555
C7_14 H29_14 1_555 1_555
O24_8 C37_15 1_555 1_555
C30_15 C31_15 1_555 1_555
C31_15 H20_15 1_555 1_555
C32_15 C31_15 1_555 1_555
C37_15 C30_15 1_555 1_555
H22_15 C34_15 1_555 1_555
H23_15 C35_15 1_555 1_555
C34_15 C35_15 1_555 1_555
In4_5 O1_25 1_555 1_555
In11_9 O1_25 1_555 1_555
O1_25 In7_5 1_555 1_555
O3_15 In11_9 1_555 1_555
O4_15 In4_5 1_555 1_555
O5_12 C15_15 1_555 1_555
O6_12 C15_15 1_555 1_555
O8_11 C16_15 1_555 1_555
N1_15 In4_5 1_555 1_555
N2_15 H1_15 1_555 1_555
H2_15 N2_15 1_555 1_555
N3_15 H3_15 1_555 1_555
C1_15 O3_15 1_555 1_555
C3_15 C1_15 1_555 1_555
C4_15 C3_15 1_555 1_555
H5_15 C4_15 1_555 1_555
C5_15 C4_15 1_555 1_555
H6_15 C5_15 1_555 1_555
C6_15 C5_15 1_555 1_555
C8_15 N3_15 1_555 1_555
C9_15 C10_15 1_555 1_555
C10_15 H7_15 1_555 1_555
C11_15 C10_15 1_555 1_555
H8_15 C11_15 1_555 1_555
C12_15 N3_15 1_555 1_555
C15_15 C17_15 1_555 1_555
C16_15 C9_15 1_555 1_555
C17_15 C18_15 1_555 1_555
C18_15 N2_15 1_555 1_555
C19_15 N1_15 1_555 1_555
H11_15 C19_15 1_555 1_555
C20_15 N1_15 1_555 1_555
H12_15 C20_15 1_555 1_555
C21_15 C17_15 1_555 1_555
H13_15 C21_15 1_555 1_555
In7_5 O11_15 1_555 1_555
O10_15 In11_9 1_555 1_555
O11_15 C22_15 1_555 1_555
O17_4 C36_15 1_555 1_555
O19_4 C36_15 1_555 1_555
N4_15 In7_5 1_555 1_555
N5_15 H14_15 1_555 1_555
H15_15 N5_15 1_555 1_555
N6_15 H16_15 1_555 1_555
C22_15 O10_15 1_555 1_555
C24_15 C22_15 1_555 1_555
C25_15 C24_15 1_555 1_555
H18_15 C25_15 1_555 1_555
C26_15 C25_15 1_555 1_555
H19_15 C26_15 1_555 1_555
C27_15 C26_15 1_555 1_555
C29_15 N6_15 1_555 1_555
C33_15 N6_15 1_555 1_555
C36_15 C38_15 1_555 1_555
C38_15 C39_15 1_555 1_555
C39_15 N5_15 1_555 1_555
C40_15 N4_15 1_555 1_555
H24_15 C40_15 1_555 1_555
C41_15 N4_15 1_555 1_555
H25_15 C41_15 1_555 1_555
C42_15 C38_15 1_555 1_555
H26_15 C42_15 1_555 1_555
In6_3 O8_11 1_555 1_555
In5_3 O6_12 1_555 1_555
In11_11 O5_12 1_555 1_555
O22_13 In7_5 1_555 1_555
O24_13 In4_5 1_555 1_555
O4_15 C1_15 1_555 1_555
C2_15 C3_15 1_555 1_555
C6_15 C8_15 1_555 1_555
C11_15 C12_15 1_555 1_555
C18_15 C19_15 1_555 1_555
C20_15 C21_15 1_555 1_555
C23_15 C24_15 1_555 1_555
C27_15 C29_15 1_555 1_555
C39_15 C40_15 1_555 1_555
C41_15 C42_15 1_555 1_555
H9_15 C13_15 1_555 1_555
H10_15 C14_15 1_555 1_555
In5_7 O7_11 1_555 1_555
C13_15 C14_15 1_555 1_555
C7_15 H29_15 1_555 1_555
C28_12 H30_12 1_555 1_555
In8_5 O1_26 1_555 1_555
In10_9 O1_26 1_555 1_555
O2_23 In10_9 1_555 1_555
O3_16 In10_9 1_555 1_555
O4_16 In8_5 1_555 1_555
O18_4 C15_16 1_555 1_555
O20_4 C15_16 1_555 1_555
O7_12 C16_16 1_555 1_555
O8_12 C16_16 1_555 1_555
N1_16 In8_5 1_555 1_555
N2_16 H1_16 1_555 1_555
H2_16 N2_16 1_555 1_555
N3_16 H3_16 1_555 1_555
C1_16 O3_16 1_555 1_555
C2_16 H4_16 1_555 1_555
C3_16 C1_16 1_555 1_555
C4_16 C3_16 1_555 1_555
H5_16 C4_16 1_555 1_555
C5_16 C4_16 1_555 1_555
H6_16 C5_16 1_555 1_555
C6_16 C5_16 1_555 1_555
C7_16 C2_16 1_555 1_555
C8_16 N3_16 1_555 1_555
C9_16 C10_16 1_555 1_555
C10_16 H7_16 1_555 1_555
C11_16 C10_16 1_555 1_555
H8_16 C11_16 1_555 1_555
C12_16 N3_16 1_555 1_555
C13_16 C12_16 1_555 1_555
H9_16 C13_16 1_555 1_555
C14_16 C9_16 1_555 1_555
H10_16 C14_16 1_555 1_555
C15_16 C17_16 1_555 1_555
C16_16 C9_16 1_555 1_555
C17_16 C18_16 1_555 1_555
C18_16 N2_16 1_555 1_555
C19_16 N1_16 1_555 1_555
H11_16 C19_16 1_555 1_555
C20_16 N1_16 1_555 1_555
H12_16 C20_16 1_555 1_555
C21_16 C17_16 1_555 1_555
H13_16 C21_16 1_555 1_555
O9_16 C8_16 1_555 1_555
In4_2 O8_12 1_555 1_555
In7_2 O7_12 1_555 1_555
O4_16 C1_16 1_555 1_555
C2_16 C3_16 1_555 1_555
C6_16 C7_16 1_555 1_555
C6_16 C8_16 1_555 1_555
C11_16 C12_16 1_555 1_555
C13_16 C14_16 1_555 1_555
C18_16 C19_16 1_555 1_555
C20_16 C21_16 1_555 1_555
O2_23 H27_11 1_555 1_555
C7_16 H29_16 1_555 1_555
In10_10 O1_27 1_555 1_555
O1_27 In6_5 1_555 1_555
O2_24 In10_10 1_555 1_555
In6_5 O11_16 1_555 1_555
O10_16 In10_10 1_555 1_555
O11_16 C22_16 1_555 1_555
O17_5 C36_16 1_555 1_555
O19_5 C36_16 1_555 1_555
O21_8 C37_16 1_555 1_555
O23_8 C37_16 1_555 1_555
N4_16 In6_5 1_555 1_555
N5_16 H14_16 1_555 1_555
H15_16 N5_16 1_555 1_555
N6_16 H16_16 1_555 1_555
C22_16 O10_16 1_555 1_555
C23_16 H17_13 1_555 1_555
C24_16 C22_16 1_555 1_555
C25_16 C24_16 1_555 1_555
H18_16 C25_16 1_555 1_555
C26_16 C25_16 1_555 1_555
H19_16 C26_16 1_555 1_555
C27_16 C26_16 1_555 1_555
C28_13 C23_16 1_555 1_555
C29_16 N6_16 1_555 1_555
C30_16 C31_16 1_555 1_555
C31_16 H20_16 1_555 1_555
C32_16 C31_16 1_555 1_555
H21_16 C32_16 1_555 1_555
C33_16 N6_16 1_555 1_555
C34_16 C33_16 1_555 1_555
H22_16 C34_16 1_555 1_555
C35_16 C30_16 1_555 1_555
H23_16 C35_16 1_555 1_555
C36_16 C38_16 1_555 1_555
C37_16 C30_16 1_555 1_555
C38_16 C39_16 1_555 1_555
C39_16 N5_16 1_555 1_555
C40_16 N4_16 1_555 1_555
H24_16 C40_16 1_555 1_555
C41_16 N4_16 1_555 1_555
H25_16 C41_16 1_555 1_555
C42_16 C38_16 1_555 1_555
H26_16 C42_16 1_555 1_555
O16_13 C29_16 1_555 1_555
C23_16 C24_16 1_555 1_555
C27_16 C28_13 1_555 1_555
C27_16 C29_16 1_555 1_555
C32_16 C33_16 1_555 1_555
C34_16 C35_16 1_555 1_555
C39_16 C40_16 1_555 1_555
C41_16 C42_16 1_555 1_555
O2_24 H28_11 1_555 1_555
C28_13 H30_13 1_555 1_555
O2_23 H28_12 1_555 1_555
O2_24 H27_12 1_555 1_555
In7_4 O1_28 1_555 1_555
In10_3 O1_28 1_555 1_555
O1_28 In6_2 1_555 1_555
O2_25 In10_3 1_555 1_555
O3_17 In10_3 1_555 1_555
O4_17 In7_4 1_555 1_555
O5_13 C15_17 1_555 1_555
O6_13 C15_17 1_555 1_555
O21 C16_17 1_555 1_555
O23 C16_17 1_555 1_555
N1_17 In7_4 1_555 1_555
N2_17 H1_17 1_555 1_555
H2_17 N2_17 1_555 1_555
N3_17 H3_17 1_555 1_555
C1_17 O3_17 1_555 1_555
C2_17 H4_17 1_555 1_555
C3_17 C1_17 1_555 1_555
C4_17 C3_17 1_555 1_555
H5_17 C4_17 1_555 1_555
C5_17 C4_17 1_555 1_555
H6_17 C5_17 1_555 1_555
C6_17 C5_17 1_555 1_555
C7_17 C2_17 1_555 1_555
C8_17 N3_17 1_555 1_555
C9_17 C10_17 1_555 1_555
C10_17 H7_17 1_555 1_555
C11_17 C10_17 1_555 1_555
H8_17 C11_17 1_555 1_555
C12_17 N3_17 1_555 1_555
C13_17 C12_17 1_555 1_555
H9_17 C13_17 1_555 1_555
C14_17 C9_17 1_555 1_555
H10_17 C14_17 1_555 1_555
C15_17 C17_17 1_555 1_555
C16_17 C9_17 1_555 1_555
C17_17 C18_17 1_555 1_555
C18_17 N2_17 1_555 1_555
C19_17 N1_17 1_555 1_555
H11_17 C19_17 1_555 1_555
C20_17 N1_17 1_555 1_555
H12_17 C20_17 1_555 1_555
C21_17 C17_17 1_555 1_555
H13_17 C21_17 1_555 1_555
O9_17 C8_17 1_555 1_555
In6_2 O11_17 1_555 1_555
O10_17 In10_3 1_555 1_555
O11_17 C22_17 1_555 1_555
O17_7 C36_17 1_555 1_555
O19_7 C36_17 1_555 1_555
O21_6 C37_17 1_555 1_555
O23_6 C37_17 1_555 1_555
N4_17 In6_2 1_555 1_555
N5_17 H14_17 1_555 1_555
H15_17 N5_17 1_555 1_555
N6_17 H16_17 1_555 1_555
C22_17 O10_17 1_555 1_555
C23_17 H17_14 1_555 1_555
C24_17 C22_17 1_555 1_555
C25_17 C24_17 1_555 1_555
H18_17 C25_17 1_555 1_555
C26_17 C25_17 1_555 1_555
H19_17 C26_17 1_555 1_555
C27_17 C26_17 1_555 1_555
C28_14 C23_17 1_555 1_555
C29_17 N6_17 1_555 1_555
C30_17 C31_17 1_555 1_555
C31_17 H20_17 1_555 1_555
C32_17 C31_17 1_555 1_555
H21_17 C32_17 1_555 1_555
C33_17 N6_17 1_555 1_555
C34_17 C33_17 1_555 1_555
H22_17 C34_17 1_555 1_555
C35_17 C30_17 1_555 1_555
H23_17 C35_17 1_555 1_555
C36_17 C38_17 1_555 1_555
C37_17 C30_17 1_555 1_555
C38_17 C39_17 1_555 1_555
C39_17 N5_17 1_555 1_555
C40_17 N4_17 1_555 1_555
H24_17 C40_17 1_555 1_555
C41_17 N4_17 1_555 1_555
H25_17 C41_17 1_555 1_555
C42_17 C38_17 1_555 1_555
H26_17 C42_17 1_555 1_555
O16_14 C29_17 1_555 1_555
In5_7 O6_13 1_555 1_555
In10_7 O5_13 1_555 1_555
O18_11 In10_3 1_555 1_555
O20_11 In7_4 1_555 1_555
O21_9 In7_4 1_555 1_555
O23_9 In6_2 1_555 1_555
O4_17 C1_17 1_555 1_555
C2_17 C3_17 1_555 1_555
C6_17 C7_17 1_555 1_555
C6_17 C8_17 1_555 1_555
C11_17 C12_17 1_555 1_555
C13_17 C14_17 1_555 1_555
C18_17 C19_17 1_555 1_555
C20_17 C21_17 1_555 1_555
C23_17 C24_17 1_555 1_555
C27_17 C28_14 1_555 1_555
C27_17 C29_17 1_555 1_555
C32_17 C33_17 1_555 1_555
C34_17 C35_17 1_555 1_555
C39_17 C40_17 1_555 1_555
C41_17 C42_17 1_555 1_555
C7_17 H29_17 1_555 1_555
C28_14 H30_14 1_555 1_555
O2_5 H28_13 1_555 1_555
O2_6 H27_13 1_555 1_555
In10_6 O1_29 1_555 1_555
O1_29 In6_3 1_555 1_555
O2_26 In10_6 1_555 1_555
In6_3 O11_18 1_555 1_555
O10_18 In10_6 1_555 1_555
O11_18 C22_18 1_555 1_555
O17_3 C36_18 1_555 1_555
O19_3 C36_18 1_555 1_555
O14_11 C37_18 1_555 1_555
O15_11 C37_18 1_555 1_555
N4_18 In6_3 1_555 1_555
N5_18 H14_18 1_555 1_555
H15_18 N5_18 1_555 1_555
N6_18 H16_18 1_555 1_555
C22_18 O10_18 1_555 1_555
C23_18 H17_15 1_555 1_555
C24_18 C22_18 1_555 1_555
C25_18 C24_18 1_555 1_555
H18_18 C25_18 1_555 1_555
C26_18 C25_18 1_555 1_555
H19_18 C26_18 1_555 1_555
C27_18 C26_18 1_555 1_555
C28_15 C23_18 1_555 1_555
C29_18 N6_18 1_555 1_555
C30_18 C31_18 1_555 1_555
C31_18 H20_18 1_555 1_555
C32_18 C31_18 1_555 1_555
H21_18 C32_18 1_555 1_555
C33_18 N6_18 1_555 1_555
C34_18 C33_18 1_555 1_555
H22_18 C34_18 1_555 1_555
C35_18 C30_18 1_555 1_555
H23_18 C35_18 1_555 1_555
C36_18 C38_18 1_555 1_555
C37_18 C30_18 1_555 1_555
C38_18 C39_18 1_555 1_555
C39_18 N5_18 1_555 1_555
C40_18 N4_18 1_555 1_555
H24_18 C40_18 1_555 1_555
C41_18 N4_18 1_555 1_555
H25_18 C41_18 1_555 1_555
C42_18 C38_18 1_555 1_555
H26_18 C42_18 1_555 1_555
O16_15 C29_18 1_555 1_555
In5_6 O14_11 1_555 1_555
In9_6 O15_11 1_555 1_555
C23_18 C24_18 1_555 1_555
C27_18 C28_15 1_555 1_555
C27_18 C29_18 1_555 1_555
C32_18 C33_18 1_555 1_555
C34_18 C35_18 1_555 1_555
C39_18 C40_18 1_555 1_555
C41_18 C42_18 1_555 1_555
O2_26 H28_14 1_555 1_555
C28_15 H30_15 1_555 1_555
In5_7 O1_30 1_555 1_555
In10_7 O1_30 1_555 1_555
O2_27 In10_7 1_555 1_555
O3_18 In10_7 1_555 1_555
O4_18 In5_7 1_555 1_555
O5_14 C15_18 1_555 1_555
O6_14 C15_18 1_555 1_555
O22_11 C16_18 1_555 1_555
O24_11 C16_18 1_555 1_555
N1_18 In5_7 1_555 1_555
N2_18 H1_18 1_555 1_555
H2_18 N2_18 1_555 1_555
N3_18 H3_18 1_555 1_555
C1_18 O3_18 1_555 1_555
C2_18 H4_18 1_555 1_555
C3_18 C1_18 1_555 1_555
C4_18 C3_18 1_555 1_555
H5_18 C4_18 1_555 1_555
C5_18 C4_18 1_555 1_555
H6_18 C5_18 1_555 1_555
C6_18 C5_18 1_555 1_555
C7_18 C2_18 1_555 1_555
C8_18 N3_18 1_555 1_555
C9_18 C10_18 1_555 1_555
C10_18 H7_18 1_555 1_555
C11_18 C10_18 1_555 1_555
H8_18 C11_18 1_555 1_555
C12_18 N3_18 1_555 1_555
C13_18 C12_18 1_555 1_555
H9_18 C13_18 1_555 1_555
C14_18 C9_18 1_555 1_555
H10_18 C14_18 1_555 1_555
C15_18 C17_18 1_555 1_555
C16_18 C9_18 1_555 1_555
C17_18 C18_18 1_555 1_555
C18_18 N2_18 1_555 1_555
C19_18 N1_18 1_555 1_555
H11_18 C19_18 1_555 1_555
C20_18 N1_18 1_555 1_555
H12_18 C20_18 1_555 1_555
C21_18 C17_18 1_555 1_555
H13_18 C21_18 1_555 1_555
O9_18 C8_18 1_555 1_555
In9_7 O6_14 1_555 1_555
In11_12 O5_14 1_555 1_555
O4_18 C1_18 1_555 1_555
C2_18 C3_18 1_555 1_555
C6_18 C7_18 1_555 1_555
C6_18 C8_18 1_555 1_555
C11_18 C12_18 1_555 1_555
C13_18 C14_18 1_555 1_555
C18_18 C19_18 1_555 1_555
C20_18 C21_18 1_555 1_555
O2_27 H27_14 1_555 1_555
C7_18 H29_18 1_555 1_555
O2_13 H28_15 1_555 1_555
O2_14 H27_15 1_555 1_555
In5_3 O1_31 1_555 1_555
In11_11 O1_31 1_555 1_555
O1_31 In9_4 1_555 1_555
O2_28 In11_11 1_555 1_555
O3_19 In11_11 1_555 1_555
O4_19 In5_3 1_555 1_555
O18_10 C15_19 1_555 1_555
O20_10 C15_19 1_555 1_555
N1_19 In5_3 1_555 1_555
N2_19 H1_19 1_555 1_555
H2_19 N2_19 1_555 1_555
N3_19 H3_19 1_555 1_555
C1_19 O3_19 1_555 1_555
C2_19 H4_19 1_555 1_555
C3_19 C1_19 1_555 1_555
C4_19 C3_19 1_555 1_555
H5_19 C4_19 1_555 1_555
C5_19 C4_19 1_555 1_555
H6_19 C5_19 1_555 1_555
C6_19 C5_19 1_555 1_555
C7_19 C2_19 1_555 1_555
C8_19 N3_19 1_555 1_555
C12_19 N3_19 1_555 1_555
C15_19 C17_19 1_555 1_555
C17_19 C18_19 1_555 1_555
C18_19 N2_19 1_555 1_555
C19_19 N1_19 1_555 1_555
H11_19 C19_19 1_555 1_555
C20_19 N1_19 1_555 1_555
H12_19 C20_19 1_555 1_555
C21_19 C17_19 1_555 1_555
H13_19 C21_19 1_555 1_555
O9_19 C8_19 1_555 1_555
In9_4 O11_19 1_555 1_555
O10_19 In11_11 1_555 1_555
O11_19 C22_19 1_555 1_555
O12_10 C36_19 1_555 1_555
O13_10 C36_19 1_555 1_555
O14_12 C37_19 1_555 1_555
O15_12 C37_19 1_555 1_555
N4_19 In9_4 1_555 1_555
N5_19 H14_19 1_555 1_555
H15_19 N5_19 1_555 1_555
N6_19 H16_19 1_555 1_555
C22_19 O10_19 1_555 1_555
C23_19 H17_16 1_555 1_555
C24_19 C22_19 1_555 1_555
C25_19 C24_19 1_555 1_555
H18_19 C25_19 1_555 1_555
C26_19 C25_19 1_555 1_555
H19_19 C26_19 1_555 1_555
C27_19 C26_19 1_555 1_555
C28_16 C23_19 1_555 1_555
C29_19 N6_19 1_555 1_555
C30_19 C31_19 1_555 1_555
C31_19 H20_19 1_555 1_555
C32_19 C31_19 1_555 1_555
H21_19 C32_19 1_555 1_555
C33_19 N6_19 1_555 1_555
C34_19 C33_19 1_555 1_555
H22_19 C34_19 1_555 1_555
C35_19 C30_19 1_555 1_555
H23_19 C35_19 1_555 1_555
C36_19 C38_19 1_555 1_555
C37_19 C30_19 1_555 1_555
C38_19 C39_19 1_555 1_555
C39_19 N5_19 1_555 1_555
C40_19 N4_19 1_555 1_555
H24_19 C40_19 1_555 1_555
C41_19 N4_19 1_555 1_555
H25_19 C41_19 1_555 1_555
C42_19 C38_19 1_555 1_555
H26_19 C42_19 1_555 1_555
O16_16 C29_19 1_555 1_555
In5_4 O14_12 1_555 1_555
In7_2 O13_10 1_555 1_555
In8_2 O15_12 1_555 1_555
In11_8 O12_10 1_555 1_555
O17_9 In11_11 1_555 1_555
O19_9 In9_4 1_555 1_555
O4_19 C1_19 1_555 1_555
C2_19 C3_19 1_555 1_555
C6_19 C7_19 1_555 1_555
C6_19 C8_19 1_555 1_555
C18_19 C19_19 1_555 1_555
C20_19 C21_19 1_555 1_555
C23_19 C24_19 1_555 1_555
C27_19 C28_16 1_555 1_555
C27_19 C29_19 1_555 1_555
C32_19 C33_19 1_555 1_555
C34_19 C35_19 1_555 1_555
C39_19 C40_19 1_555 1_555
C41_19 C42_19 1_555 1_555
C7_19 H29_19 1_555 1_555
C28_16 H30_16 1_555 1_555
O21_9 C16_19 1_555 1_555
O23_9 C16_19 1_555 1_555
C9_19 C10_19 1_555 1_555
C10_19 H7_19 1_555 1_555
C11_19 C10_19 1_555 1_555
H9_19 C13_19 1_555 1_555
C14_19 C9_19 1_555 1_555
H10_19 C14_19 1_555 1_555
C16_19 C9_19 1_555 1_555
C13_19 C14_19 1_555 1_555
O2_2 H27_16 1_555 1_555
O2_3 H28_16 1_555 1_555
In5_4 O1_32 1_555 1_555
In11_2 O1_32 1_555 1_555
O1_32 In8_2 1_555 1_555
O2_29 In11_2 1_555 1_555
O3_20 In11_2 1_555 1_555
O4_20 In5_4 1_555 1_555
O5_15 C15_20 1_555 1_555
O6_15 C15_20 1_555 1_555
O22 C16_20 1_555 1_555
O24 C16_20 1_555 1_555
N1_20 In5_4 1_555 1_555
N2_20 H1_20 1_555 1_555
H2_20 N2_20 1_555 1_555
N3_20 H3_20 1_555 1_555
C1_20 O3_20 1_555 1_555
C2_20 H4_20 1_555 1_555
C3_20 C1_20 1_555 1_555
C4_20 C3_20 1_555 1_555
H5_20 C4_20 1_555 1_555
C5_20 C4_20 1_555 1_555
H6_20 C5_20 1_555 1_555
C6_20 C5_20 1_555 1_555
C7_20 C2_20 1_555 1_555
C8_20 N3_20 1_555 1_555
C9_20 C10_20 1_555 1_555
C10_20 H7_20 1_555 1_555
C11_20 C10_20 1_555 1_555
H8_20 C11_20 1_555 1_555
C12_20 N3_20 1_555 1_555
C13_20 C12_20 1_555 1_555
H9_20 C13_20 1_555 1_555
C14_20 C9_20 1_555 1_555
H10_20 C14_20 1_555 1_555
C15_20 C17_20 1_555 1_555
C16_20 C9_20 1_555 1_555
C17_20 C18_20 1_555 1_555
C18_20 N2_20 1_555 1_555
C19_20 N1_20 1_555 1_555
H11_20 C19_20 1_555 1_555
C20_20 N1_20 1_555 1_555
H12_20 C20_20 1_555 1_555
C21_20 C17_20 1_555 1_555
H13_20 C21_20 1_555 1_555
O9_20 C8_20 1_555 1_555
In8_2 O11_20 1_555 1_555
O10_20 In11_2 1_555 1_555
O11_20 C22_20 1_555 1_555
O18_6 C36_20 1_555 1_555
O20_6 C36_20 1_555 1_555
O22_7 C37_20 1_555 1_555
O24_7 C37_20 1_555 1_555
N4_20 In8_2 1_555 1_555
N5_20 H14_20 1_555 1_555
H15_20 N5_20 1_555 1_555
N6_20 H16_20 1_555 1_555
C22_20 O10_20 1_555 1_555
C23_20 H17_17 1_555 1_555
C24_20 C22_20 1_555 1_555
C25_20 C24_20 1_555 1_555
H18_20 C25_20 1_555 1_555
C26_20 C25_20 1_555 1_555
H19_20 C26_20 1_555 1_555
C27_20 C26_20 1_555 1_555
C28_17 C23_20 1_555 1_555
C29_20 N6_20 1_555 1_555
C30_20 C31_20 1_555 1_555
C31_20 H20_20 1_555 1_555
C32_20 C31_20 1_555 1_555
H21_20 C32_20 1_555 1_555
C33_20 N6_20 1_555 1_555
C34_20 C33_20 1_555 1_555
H22_20 C34_20 1_555 1_555
C35_20 C30_20 1_555 1_555
H23_20 C35_20 1_555 1_555
C36_20 C38_20 1_555 1_555
C37_20 C30_20 1_555 1_555
C38_20 C39_20 1_555 1_555
C39_20 N5_20 1_555 1_555
C40_20 N4_20 1_555 1_555
H24_20 C40_20 1_555 1_555
C41_20 N4_20 1_555 1_555
H25_20 C41_20 1_555 1_555
C42_20 C38_20 1_555 1_555
H26_20 C42_20 1_555 1_555
O16_17 C29_20 1_555 1_555
In5_8 O6_15 1_555 1_555
In11_7 O5_15 1_555 1_555
O18_12 In11_2 1_555 1_555
O20_12 In5_4 1_555 1_555
O4_20 C1_20 1_555 1_555
C2_20 C3_20 1_555 1_555
C6_20 C7_20 1_555 1_555
C6_20 C8_20 1_555 1_555
C11_20 C12_20 1_555 1_555
C13_20 C14_20 1_555 1_555
C18_20 C19_20 1_555 1_555
C20_20 C21_20 1_555 1_555
C23_20 C24_20 1_555 1_555
C27_20 C28_17 1_555 1_555
C27_20 C29_20 1_555 1_555
C32_20 C33_20 1_555 1_555
C34_20 C35_20 1_555 1_555
C39_20 C40_20 1_555 1_555
C41_20 C42_20 1_555 1_555
C7_20 H29_20 1_555 1_555
C28_17 H30_17 1_555 1_555
O2_26 H27_17 1_555 1_555
O2_27 H28_17 1_555 1_555
O2_8 H27_18 1_555 1_555
O2_8 H28_18 1_555 1_555
In5_8 O1_33 1_555 1_555
In11_7 O1_33 1_555 1_555
O1_33 In8_4 1_555 1_555
O2_30 In11_7 1_555 1_555
O3_21 In11_7 1_555 1_555
O4_21 In5_8 1_555 1_555
O5_16 C15_21 1_555 1_555
O6_16 C15_21 1_555 1_555
O22_10 C16_21 1_555 1_555
O24_10 C16_21 1_555 1_555
N1_21 In5_8 1_555 1_555
N2_21 H1_21 1_555 1_555
H2_21 N2_21 1_555 1_555
N3_21 H3_21 1_555 1_555
C1_21 O3_21 1_555 1_555
C2_21 H4_21 1_555 1_555
C3_21 C1_21 1_555 1_555
C4_21 C3_21 1_555 1_555
H5_21 C4_21 1_555 1_555
C5_21 C4_21 1_555 1_555
H6_21 C5_21 1_555 1_555
C6_21 C5_21 1_555 1_555
C7_21 C2_21 1_555 1_555
C8_21 N3_21 1_555 1_555
C9_21 C10_21 1_555 1_555
C10_21 H7_21 1_555 1_555
C11_21 C10_21 1_555 1_555
H8_21 C11_21 1_555 1_555
C12_21 N3_21 1_555 1_555
C13_21 C12_21 1_555 1_555
H9_21 C13_21 1_555 1_555
C14_21 C9_21 1_555 1_555
H10_21 C14_21 1_555 1_555
C15_21 C17_21 1_555 1_555
C16_21 C9_21 1_555 1_555
C17_21 C18_21 1_555 1_555
C18_21 N2_21 1_555 1_555
C19_21 N1_21 1_555 1_555
H11_21 C19_21 1_555 1_555
C20_21 N1_21 1_555 1_555
H12_21 C20_21 1_555 1_555
C21_21 C17_21 1_555 1_555
H13_21 C21_21 1_555 1_555
O9_21 C8_21 1_555 1_555
In8_4 O11_21 1_555 1_555
O10_21 In11_7 1_555 1_555
O11_21 C22_21 1_555 1_555
O18_3 C36_21 1_555 1_555
O20_3 C36_21 1_555 1_555
O22_13 C37_21 1_555 1_555
O24_13 C37_21 1_555 1_555
N4_21 In8_4 1_555 1_555
N5_21 H14_21 1_555 1_555
H15_21 N5_21 1_555 1_555
N6_21 H16_21 1_555 1_555
C22_21 O10_21 1_555 1_555
C23_21 H17_18 1_555 1_555
C24_21 C22_21 1_555 1_555
C25_21 C24_21 1_555 1_555
H18_21 C25_21 1_555 1_555
C26_21 C25_21 1_555 1_555
H19_21 C26_21 1_555 1_555
C27_21 C26_21 1_555 1_555
C28_18 C23_21 1_555 1_555
C29_21 N6_21 1_555 1_555
C30_21 C31_21 1_555 1_555
C31_21 H20_21 1_555 1_555
C32_21 C31_21 1_555 1_555
H21_21 C32_21 1_555 1_555
C33_21 N6_21 1_555 1_555
C34_21 C33_21 1_555 1_555
H22_21 C34_21 1_555 1_555
C35_21 C30_21 1_555 1_555
H23_21 C35_21 1_555 1_555
C36_21 C38_21 1_555 1_555
C37_21 C30_21 1_555 1_555
C38_21 C39_21 1_555 1_555
C39_21 N5_21 1_555 1_555
C40_21 N4_21 1_555 1_555
H24_21 C40_21 1_555 1_555
C41_21 N4_21 1_555 1_555
H25_21 C41_21 1_555 1_555
C42_21 C38_21 1_555 1_555
H26_21 C42_21 1_555 1_555
O16_18 C29_21 1_555 1_555
In5_9 O6_16 1_555 1_555
In11_12 O5_16 1_555 1_555
O21_10 In5_8 1_555 1_555
O23_10 In8_4 1_555 1_555
O4_21 C1_21 1_555 1_555
C2_21 C3_21 1_555 1_555
C6_21 C7_21 1_555 1_555
C6_21 C8_21 1_555 1_555
C11_21 C12_21 1_555 1_555
C13_21 C14_21 1_555 1_555
C18_21 C19_21 1_555 1_555
C20_21 C21_21 1_555 1_555
C23_21 C24_21 1_555 1_555
C27_21 C28_18 1_555 1_555
C27_21 C29_21 1_555 1_555
C32_21 C33_21 1_555 1_555
C34_21 C35_21 1_555 1_555
C39_21 C40_21 1_555 1_555
C41_21 C42_21 1_555 1_555
C7_21 H29_21 1_555 1_555
C28_18 H30_18 1_555 1_555
In4_2 O1_34 1_555 1_555
In11_8 O1_34 1_555 1_555
O1_34 In7_2 1_555 1_555
O2_31 In11_8 1_555 1_555
O3_22 In11_8 1_555 1_555
O4_22 In4_2 1_555 1_555
O18_9 C15_22 1_555 1_555
O20_9 C15_22 1_555 1_555
N1_22 In4_2 1_555 1_555
N2_22 H1_22 1_555 1_555
H2_22 N2_22 1_555 1_555
N3_22 H3_22 1_555 1_555
C1_22 O3_22 1_555 1_555
C2_22 H4_22 1_555 1_555
C3_22 C1_22 1_555 1_555
C4_22 C3_22 1_555 1_555
H5_22 C4_22 1_555 1_555
C5_22 C4_22 1_555 1_555
H6_22 C5_22 1_555 1_555
C6_22 C5_22 1_555 1_555
C7_22 C2_22 1_555 1_555
C8_22 N3_22 1_555 1_555
C12_22 N3_22 1_555 1_555
C15_22 C17_22 1_555 1_555
C17_22 C18_22 1_555 1_555
C18_22 N2_22 1_555 1_555
C19_22 N1_22 1_555 1_555
H11_22 C19_22 1_555 1_555
C20_22 N1_22 1_555 1_555
H12_22 C20_22 1_555 1_555
C21_22 C17_22 1_555 1_555
H13_22 C21_22 1_555 1_555
O9_22 C8_22 1_555 1_555
In7_2 O11_22 1_555 1_555
O10_22 In11_8 1_555 1_555
O11_22 C22_22 1_555 1_555
O12_11 C36_22 1_555 1_555
O13_11 C36_22 1_555 1_555
O14_13 C37_22 1_555 1_555
O15_13 C37_22 1_555 1_555
N4_22 In7_2 1_555 1_555
N5_22 H14_22 1_555 1_555
H15_22 N5_22 1_555 1_555
N6_22 H16_22 1_555 1_555
C22_22 O10_22 1_555 1_555
C23_22 H17_19 1_555 1_555
C24_22 C22_22 1_555 1_555
C25_22 C24_22 1_555 1_555
H18_22 C25_22 1_555 1_555
C26_22 C25_22 1_555 1_555
H19_22 C26_22 1_555 1_555
C27_22 C26_22 1_555 1_555
C28_19 C23_22 1_555 1_555
C29_22 N6_22 1_555 1_555
C30_22 C31_22 1_555 1_555
C31_22 H20_22 1_555 1_555
C32_22 C31_22 1_555 1_555
H21_22 C32_22 1_555 1_555
C33_22 N6_22 1_555 1_555
C34_22 C33_22 1_555 1_555
H22_22 C34_22 1_555 1_555
C35_22 C30_22 1_555 1_555
H23_22 C35_22 1_555 1_555
C36_22 C38_22 1_555 1_555
C37_22 C30_22 1_555 1_555
C38_22 C39_22 1_555 1_555
C39_22 N5_22 1_555 1_555
C40_22 N4_22 1_555 1_555
H24_22 C40_22 1_555 1_555
C41_22 N4_22 1_555 1_555
H25_22 C41_22 1_555 1_555
C42_22 C38_22 1_555 1_555
H26_22 C42_22 1_555 1_555
O16_19 C29_22 1_555 1_555
In5_9 O14_13 1_555 1_555
In9_6 O13_11 1_555 1_555
In9_7 O15_13 1_555 1_555
In11_10 O12_11 1_555 1_555
O4_22 C1_22 1_555 1_555
C2_22 C3_22 1_555 1_555
C6_22 C7_22 1_555 1_555
C6_22 C8_22 1_555 1_555
C18_22 C19_22 1_555 1_555
C20_22 C21_22 1_555 1_555
C23_22 C24_22 1_555 1_555
C27_22 C28_19 1_555 1_555
C27_22 C29_22 1_555 1_555
C32_22 C33_22 1_555 1_555
C34_22 C35_22 1_555 1_555
C39_22 C40_22 1_555 1_555
C41_22 C42_22 1_555 1_555
C7_22 H29_22 1_555 1_555
C28_19 H30_19 1_555 1_555
O21_3 C16_22 1_555 1_555
O23_3 C16_22 1_555 1_555
C9_22 C10_22 1_555 1_555
C10_22 H7_22 1_555 1_555
C11_22 C10_22 1_555 1_555
H9_22 C13_22 1_555 1_555
C14_22 C9_22 1_555 1_555
H10_22 C14_22 1_555 1_555
C16_22 C9_22 1_555 1_555
C13_22 C14_22 1_555 1_555
In5_6 O1_35 1_555 1_555
In11_10 O1_35 1_555 1_555
O1_35 In9_6 1_555 1_555
O2_32 In11_10 1_555 1_555
O3_23 In11_10 1_555 1_555
O4_23 In5_6 1_555 1_555
O18_5 C15_23 1_555 1_555
O20_5 C15_23 1_555 1_555
N1_23 In5_6 1_555 1_555
N2_23 H1_23 1_555 1_555
H2_23 N2_23 1_555 1_555
N3_23 H3_23 1_555 1_555
C1_23 O3_23 1_555 1_555
C2_23 H4_23 1_555 1_555
C3_23 C1_23 1_555 1_555
C4_23 C3_23 1_555 1_555
H5_23 C4_23 1_555 1_555
C5_23 C4_23 1_555 1_555
H6_23 C5_23 1_555 1_555
C6_23 C5_23 1_555 1_555
C7_23 C2_23 1_555 1_555
C8_23 N3_23 1_555 1_555
C12_23 N3_23 1_555 1_555
C15_23 C17_23 1_555 1_555
C17_23 C18_23 1_555 1_555
C18_23 N2_23 1_555 1_555
C19_23 N1_23 1_555 1_555
H11_23 C19_23 1_555 1_555
C20_23 N1_23 1_555 1_555
H12_23 C20_23 1_555 1_555
C21_23 C17_23 1_555 1_555
H13_23 C21_23 1_555 1_555
O9_23 C8_23 1_555 1_555
In9_6 O11_23 1_555 1_555
O10_23 In11_10 1_555 1_555
O11_23 C22_23 1_555 1_555
O17_9 C36_23 1_555 1_555
O19_9 C36_23 1_555 1_555
O21_10 C37_23 1_555 1_555
O23_10 C37_23 1_555 1_555
N4_23 In9_6 1_555 1_555
N5_23 H14_23 1_555 1_555
H15_23 N5_23 1_555 1_555
N6_23 H16_23 1_555 1_555
C22_23 O10_23 1_555 1_555
C23_23 H17_20 1_555 1_555
C24_23 C22_23 1_555 1_555
C25_23 C24_23 1_555 1_555
H18_23 C25_23 1_555 1_555
C26_23 C25_23 1_555 1_555
H19_23 C26_23 1_555 1_555
C27_23 C26_23 1_555 1_555
C28_20 C23_23 1_555 1_555
C29_23 N6_23 1_555 1_555
C30_23 C31_23 1_555 1_555
C31_23 H20_23 1_555 1_555
C32_23 C31_23 1_555 1_555
H21_23 C32_23 1_555 1_555
C33_23 N6_23 1_555 1_555
C34_23 C33_23 1_555 1_555
H22_23 C34_23 1_555 1_555
C35_23 C30_23 1_555 1_555
H23_23 C35_23 1_555 1_555
C36_23 C38_23 1_555 1_555
C37_23 C30_23 1_555 1_555
C38_23 C39_23 1_555 1_555
C39_23 N5_23 1_555 1_555
C40_23 N4_23 1_555 1_555
H24_23 C40_23 1_555 1_555
C41_23 N4_23 1_555 1_555
H25_23 C41_23 1_555 1_555
C42_23 C38_23 1_555 1_555
H26_23 C42_23 1_555 1_555
O16_20 C29_23 1_555 1_555
O4_23 C1_23 1_555 1_555
C2_23 C3_23 1_555 1_555
C6_23 C7_23 1_555 1_555
C6_23 C8_23 1_555 1_555
C18_23 C19_23 1_555 1_555
C20_23 C21_23 1_555 1_555
C23_23 C24_23 1_555 1_555
C27_23 C28_20 1_555 1_555
C27_23 C29_23 1_555 1_555
C32_23 C33_23 1_555 1_555
C34_23 C35_23 1_555 1_555
C39_23 C40_23 1_555 1_555
C41_23 C42_23 1_555 1_555
C7_23 H29_23 1_555 1_555
C28_20 H30_20 1_555 1_555
O21_5 C16_23 1_555 1_555
O23_5 C16_23 1_555 1_555
C9_23 C10_23 1_555 1_555
C10_23 H7_23 1_555 1_555
C11_23 C10_23 1_555 1_555
H9_23 C13_23 1_555 1_555
C14_23 C9_23 1_555 1_555
H10_23 C14_23 1_555 1_555
C16_23 C9_23 1_555 1_555
C13_23 C14_23 1_555 1_555
O2_21 H27_19 1_555 1_555
O2_21 H28_19 1_555 1_555
O2_18 H27_20 1_555 1_555
O2_18 H28_20 1_555 1_555
In5_9 O1_36 1_555 1_555
In11_12 O1_36 1_555 1_555
O1_36 In9_7 1_555 1_555
O2_33 In11_12 1_555 1_555
O3_24 In11_12 1_555 1_555
O4_24 In5_9 1_555 1_555
O18_12 C15_24 1_555 1_555
O20_12 C15_24 1_555 1_555
O22_9 C16_24 1_555 1_555
O24_9 C16_24 1_555 1_555
N1_24 In5_9 1_555 1_555
N2_24 H1_24 1_555 1_555
H2_24 N2_24 1_555 1_555
N3_24 H3_24 1_555 1_555
C1_24 O3_24 1_555 1_555
C2_24 H4_24 1_555 1_555
C3_24 C1_24 1_555 1_555
C4_24 C3_24 1_555 1_555
H5_24 C4_24 1_555 1_555
C5_24 C4_24 1_555 1_555
H6_24 C5_24 1_555 1_555
C6_24 C5_24 1_555 1_555
C7_24 C2_24 1_555 1_555
C8_24 N3_24 1_555 1_555
C9_24 C10_24 1_555 1_555
C10_24 H7_24 1_555 1_555
C11_24 C10_24 1_555 1_555
H8_24 C11_24 1_555 1_555
C12_24 N3_24 1_555 1_555
C13_24 C12_24 1_555 1_555
H9_24 C13_24 1_555 1_555
C14_24 C9_24 1_555 1_555
H10_24 C14_24 1_555 1_555
C15_24 C17_24 1_555 1_555
C16_24 C9_24 1_555 1_555
C17_24 C18_24 1_555 1_555
C18_24 N2_24 1_555 1_555
C19_24 N1_24 1_555 1_555
H11_24 C19_24 1_555 1_555
C20_24 N1_24 1_555 1_555
H12_24 C20_24 1_555 1_555
C21_24 C17_24 1_555 1_555
H13_24 C21_24 1_555 1_555
O9_24 C8_24 1_555 1_555
In9_7 O11_24 1_555 1_555
O10_24 In11_12 1_555 1_555
O11_24 C22_24 1_555 1_555
O18_11 C36_24 1_555 1_555
O20_11 C36_24 1_555 1_555
O22_12 C37_24 1_555 1_555
O24_12 C37_24 1_555 1_555
N4_24 In9_7 1_555 1_555
N5_24 H14_24 1_555 1_555
H15_24 N5_24 1_555 1_555
N6_24 H16_24 1_555 1_555
C22_24 O10_24 1_555 1_555
C23_24 H17_21 1_555 1_555
C24_24 C22_24 1_555 1_555
C25_24 C24_24 1_555 1_555
H18_24 C25_24 1_555 1_555
C26_24 C25_24 1_555 1_555
H19_24 C26_24 1_555 1_555
C27_24 C26_24 1_555 1_555
C28_21 C23_24 1_555 1_555
C29_24 N6_24 1_555 1_555
C30_24 C31_24 1_555 1_555
C31_24 H20_24 1_555 1_555
C32_24 C31_24 1_555 1_555
H21_24 C32_24 1_555 1_555
C33_24 N6_24 1_555 1_555
C34_24 C33_24 1_555 1_555
H22_24 C34_24 1_555 1_555
C35_24 C30_24 1_555 1_555
H23_24 C35_24 1_555 1_555
C36_24 C38_24 1_555 1_555
C37_24 C30_24 1_555 1_555
C38_24 C39_24 1_555 1_555
C39_24 N5_24 1_555 1_555
C40_24 N4_24 1_555 1_555
H24_24 C40_24 1_555 1_555
C41_24 N4_24 1_555 1_555
H25_24 C41_24 1_555 1_555
C42_24 C38_24 1_555 1_555
H26_24 C42_24 1_555 1_555
O16_21 C29_24 1_555 1_555
O4_24 C1_24 1_555 1_555
C2_24 C3_24 1_555 1_555
C6_24 C7_24 1_555 1_555
C6_24 C8_24 1_555 1_555
C11_24 C12_24 1_555 1_555
C13_24 C14_24 1_555 1_555
C18_24 C19_24 1_555 1_555
C20_24 C21_24 1_555 1_555
C23_24 C24_24 1_555 1_555
C27_24 C28_21 1_555 1_555
C27_24 C29_24 1_555 1_555
C32_24 C33_24 1_555 1_555
C34_24 C35_24 1_555 1_555
C39_24 C40_24 1_555 1_555
C41_24 C42_24 1_555 1_555
C7_24 H29_24 1_555 1_555
C28_21 H30_21 1_555 1_555
O2_9 H27_21 1_555 1_555
O2_10 H28_21 1_555 1_555
O2_34 H27_22 1_555 1_555
O2_34 H28_22 1_555 1_555
C28_22 H30_22 1_555 1_555
O2_35 H27_23 1_555 1_555
O2_35 H28_23 1_555 1_555
C28_23 H30_23 1_555 1_555
O2_36 H27_24 1_555 1_555
O2_36 H28_24 1_555 1_555
C28_24 H30_24 1_555 1_555

#END
