
###############################################################################
#
# This file contains modified crystal structure data generated from the
# MOF subset of the Cambridge Structural Database (CSD) v543 
# hosted by the Cambridge Crystallographic Data Centre (CCDC).
#
# This work is licensed under the Creative Commons
# Attribution-NonCommercial-ShareAlike 4.0 International License.
# To view a copy of this license, visit
# http://creativecommons.org/licenses/by-nc-sa/4.0/
# or send a letter to
# Creative Commons, PO Box 1866, Mountain View, CA 94042, USA.
#
# CIF created using the CSD Python API on 29 September 2022
# The structure has been converted into the P1 space group
# The structure has a 3D framework
# The original CSD entry KOGTAE is in the cubic crystal system
# The framework has been calculated to contain at least 10.0% void space
# The void calculation uses a probe of radius 1.32A, grid spacing 0.4
# H atom positions have been added when not included in the experimental data
# Generated hydrogen atom positions removed from atoms on special positions
#
###############################################################################

data_KOGTAE
_chemical_formula_moiety         '(C1008 H720 In78 N96 O372)n'
_symmetry_cell_setting           triclinic
_symmetry_space_group_name_H-M   'P 1'
_symmetry_Int_Tables_number      1
_space_group_name_Hall           'P 1'
loop_
_symmetry_equiv_pos_site_id
_symmetry_equiv_pos_as_xyz
1 x,y,z
_cell_length_a                   38.127(6)
_cell_length_b                   38.127(6)
_cell_length_c                   38.127(6)
_cell_angle_alpha                90
_cell_angle_beta                 90
_cell_angle_gamma                90
_cell_volume                     55424
loop_
_atom_site_label
_atom_site_type_symbol
_atom_site_fract_x
_atom_site_fract_y
_atom_site_fract_z
In6 In 0.0000 0.7500 0.78199(4)
O2 O 0.5000 0.2500 0.0222(5)
In5 In 0.7500 0.46801(4) 0.0000
In1 In 0.5000 0.2500 0.96801(4)
In2 In 0.50935(3) 0.29453(3) 0.88684(3)
O1 O 0.5000 0.2500 0.9146(3)
O3 O 0.4665(4) 0.2888(4) 0.8503(4)
O4 O 0.4569(4) 0.2305(4) 0.8489(4)
O5 O 0.2822(3) 0.2790(4) 0.5466(3)
O6 O 0.2703(5) 0.3299(4) 0.5771(4)
O7 O 0.5294(3) 0.4524(3) 0.7839(3)
O8 O 0.5823(4) 0.4446(4) 0.8065(4)
N1 N 0.5226(4) 0.3421(4) 0.8560(4)
C1 C 0.4538(5) 0.2612(6) 0.8378(5)
C2 C 0.4306(5) 0.2662(5) 0.8066(4)
C3 C 0.4269(6) 0.2987(5) 0.7904(6)
H1 H 0.4370 0.3190 0.8008
C4 C 0.4084(7) 0.3015(6) 0.7591(6)
H2 H 0.4058 0.3237 0.7481
C5 C 0.3936(6) 0.2718(8) 0.7440(5)
C6 C 0.3973(6) 0.2393(6) 0.7602(6)
H3 H 0.3872 0.2190 0.7498
C7 C 0.4158(6) 0.2365(4) 0.7914(6)
H4 H 0.4184 0.2144 0.8025
C8 C 0.3650(4) 0.2524(4) 0.6869(4)
C9 C 0.3420(7) 0.2655(7) 0.6613(6)
C10 C 0.3253(7) 0.2979(7) 0.6618(4)
H5 H 0.3264 0.3122 0.6822
C11 C 0.3069(6) 0.3094(5) 0.6325(5)
H6 H 0.2955 0.3315 0.6329
C12 C 0.3053(5) 0.2885(5) 0.6027(4)
C13 C 0.3220(6) 0.2561(5) 0.6022(6)
H7 H 0.3209 0.2418 0.5818
C14 C 0.3404(7) 0.2446(6) 0.6315(7)
H8 H 0.3519 0.2225 0.6312
C15 C 0.2844(6) 0.3002(6) 0.5733(6)
C16 C 0.5506(5) 0.4372(4) 0.8019(4)
C17 C 0.5398(5) 0.4037(5) 0.8195(4)
C18 C 0.5053(5) 0.3951(5) 0.8266(5)
H9 H 0.4871 0.4104 0.8192
C19 C 0.4972(6) 0.3650(5) 0.8440(5)
H10 H 0.4732 0.3595 0.8481
C20 C 0.5561(6) 0.3486(5) 0.8481(5)
H11 H 0.5735 0.3316 0.8538
C21 C 0.5662(5) 0.3801(5) 0.8316(5)
H12 H 0.5903 0.3856 0.8286
N2 N 0.3770(8) 0.2746(10) 0.7075(10)
H13 H 0.3756 0.2962 0.6996
O9 O 0.3589(15) 0.2177(17) 0.6992(14)
In3 In 0.61316(3) 0.49065(3) 0.79453(3)
O10 O 0.6497(4) 0.5335(4) 0.7888(4)
O11 O 0.6511(4) 0.5431(4) 0.7305(4)
O12 O 0.9534(3) 0.7178(3) 0.7790(4)
O13 O 0.9229(4) 0.7297(5) 0.8299(4)
O14 O 0.7161(3) 0.4706(3) 0.9524(3)
O15 O 0.6935(4) 0.4177(4) 0.9446(4)
N3 N 0.6440(4) 0.4774(4) 0.8421(4)
C22 C 0.6622(5) 0.5462(5) 0.7612(6)
C23 C 0.6934(4) 0.5694(5) 0.7662(5)
C24 C 0.7096(6) 0.5731(6) 0.7987(5)
H14 H 0.6992 0.5630 0.8190
C25 C 0.7409(6) 0.5916(7) 0.8015(6)
H15 H 0.7519 0.5942 0.8237
C26 C 0.7560(5) 0.6064(6) 0.7718(8)
C27 C 0.7398(6) 0.6027(6) 0.7393(6)
H16 H 0.7502 0.6128 0.7190
C28 C 0.7086(6) 0.5842(6) 0.7365(4)
H17 H 0.6975 0.5816 0.7144
C29 C 0.8131(4) 0.6350(4) 0.7524(4)
C30 C 0.8387(6) 0.6580(7) 0.7655(7)
C31 C 0.8382(4) 0.6747(7) 0.7979(7)
H18 H 0.8178 0.6736 0.8122
C32 C 0.8675(5) 0.6931(6) 0.8094(5)
H19 H 0.8671 0.7045 0.8315
C33 C 0.8973(4) 0.6947(5) 0.7885(5)
C34 C 0.8978(6) 0.6780(6) 0.7561(5)
H20 H 0.9182 0.6791 0.7418
C35 C 0.8685(7) 0.6596(7) 0.7446(6)
H21 H 0.8688 0.6481 0.7225
C36 C 0.9267(6) 0.7156(6) 0.8002(6)
C37 C 0.6981(4) 0.4494(5) 0.9372(4)
C38 C 0.6805(4) 0.4602(5) 0.9037(5)
C39 C 0.6734(5) 0.4947(5) 0.8951(5)
H22 H 0.6808 0.5129 0.9104
C40 C 0.6560(5) 0.5028(6) 0.8650(5)
H23 H 0.6519 0.5268 0.8595
C41 C 0.6519(5) 0.4439(6) 0.8486(5)
H24 H 0.6462 0.4265 0.8316
C42 C 0.6684(5) 0.4338(5) 0.8801(5)
H25 H 0.6714 0.4097 0.8856
N4 N 0.7925(10) 0.6230(8) 0.7746(10)
H26 H 0.8004 0.6244 0.7962
O16 O 0.8008(14) 0.6411(15) 0.7177(17)
In4 In 0.53199(4) 0.5000 0.7500
In5_2 In 0.7500 0.46801(4) 1.0000
In6_2 In 1.0000 0.7500 0.78199(4)
In7 In 0.2500 0.28199(4) 0.5000
In8 In 0.70547(3) 0.38684(3) 0.99065(3)
In9 In 0.49065(3) 0.20547(3) 0.88684(3)
In10 In 0.61316(3) 0.50935(3) 0.70547(3)
In11 In 0.95547(3) 0.75935(3) 0.86316(3)
In12 In 0.24065(3) 0.36316(3) 0.54453(3)
O17 O 0.5854(3) 0.5000 0.7500
O18 O 0.5431(4) 0.2695(4) 0.8489(4)
O19 O 0.6511(4) 0.4569(4) 0.7695(4)
O20 O 0.4678(3) 0.2966(3) 0.9710(4)
O21 O 0.5322(3) 0.2034(3) 0.9710(4)
O22 O 0.5799(4) 0.5203(5) 0.8271(4)
O23 O 0.4797(5) 0.3271(4) 0.9201(4)
O24 O 0.5476(3) 0.2839(3) 0.9706(3)
O25 O 0.4524(3) 0.2161(3) 0.9706(3)
O26 O 0.5554(4) 0.3065(4) 0.9177(4)
In1_2 In 0.0000 0.7500 0.46801(4)
O1_2 O 0.0000 0.7500 0.4146(3)
O2_2 O 0.0000 0.7500 0.5222(5)
O3_2 O 0.0335(4) 0.7112(4) 0.3503(4)
O4_2 O 0.0431(4) 0.7695(4) 0.3489(4)
O5_2 O 0.2178(3) 0.7210(4) 0.0466(3)
O6_2 O 0.2297(5) 0.6701(4) 0.0771(4)
C1_2 C 0.0462(5) 0.7388(6) 0.3378(5)
C2_2 C 0.0694(5) 0.7338(5) 0.3066(4)
C3_2 C 0.0731(6) 0.7013(5) 0.2904(6)
H1_2 H 0.0630 0.6810 0.3008
C4_2 C 0.0916(7) 0.6985(6) 0.2591(6)
H2_2 H 0.0942 0.6763 0.2481
C5_2 C 0.1064(6) 0.7282(8) 0.2440(5)
C6_2 C 0.1027(6) 0.7607(6) 0.2602(6)
H3_2 H 0.1128 0.7810 0.2498
C7_2 C 0.0842(6) 0.7635(4) 0.2914(6)
H4_2 H 0.0816 0.7856 0.3025
C8_2 C 0.1350(4) 0.7476(4) 0.1869(4)
C9_2 C 0.1580(7) 0.7345(7) 0.1613(6)
C10_2 C 0.1747(7) 0.7021(7) 0.1618(4)
H5_2 H 0.1736 0.6878 0.1822
C11_2 C 0.1931(6) 0.6906(5) 0.1325(5)
H6_2 H 0.2045 0.6685 0.1329
C12_2 C 0.1947(5) 0.7115(5) 0.1027(4)
C13_2 C 0.1780(6) 0.7439(5) 0.1022(6)
H7_2 H 0.1791 0.7582 0.0818
C14_2 C 0.1596(7) 0.7554(6) 0.1315(7)
H8_2 H 0.1481 0.7775 0.1312
C15_2 C 0.2156(6) 0.6998(6) 0.0733(6)
H9_2 H 0.0129 0.5896 0.3192
C19_2 C 0.0028(6) 0.6350(5) 0.3440(5)
H10_2 H 0.0268 0.6405 0.3481
N2_2 N 0.1230(8) 0.7254(10) 0.2075(10)
H13_2 H 0.1244 0.7038 0.1996
O9_2 O 0.1411(15) 0.7823(17) 0.1992(14)
In7_2 In 0.2500 0.71801(4) 0.0000
In9_2 In 0.00935(3) 0.79453(3) 0.38684(3)
In12_2 In 0.25935(3) 0.63684(3) 0.04453(3)
O20_2 O 0.0322(3) 0.7034(3) 0.4710(4)
O23_2 O 0.0203(5) 0.6729(4) 0.4201(4)
O25_2 O 0.0476(3) 0.7839(3) 0.4706(3)
H27 H 0.0244744 0.751988 0.530882
In7_3 In 0.2500 0.71801(4) 1.0000
In1_3 In 1.0000 0.7500 0.46801(4)
In2_2 In 0.99065(3) 0.70547(3) 0.38684(3)
O1_3 O 1.0000 0.7500 0.4146(3)
O2_3 O 1.0000 0.7500 0.5222(5)
O7_2 O 0.9706(3) 0.5476(3) 0.2839(3)
O8_2 O 0.9177(4) 0.5554(4) 0.3065(4)
N1_2 N 0.9774(4) 0.6579(4) 0.3560(4)
C16_2 C 0.9494(5) 0.5628(4) 0.3019(4)
C17_2 C 0.9602(5) 0.5963(5) 0.3195(4)
C18_2 C 0.9947(5) 0.6049(5) 0.3266(5)
C20_2 C 0.9439(6) 0.6514(5) 0.3481(5)
H11_2 H 0.9265 0.6684 0.3538
C21_2 C 0.9338(5) 0.6199(5) 0.3316(5)
H12_2 H 0.9097 0.6144 0.3286
In3_2 In 0.88684(3) 0.50935(3) 0.29453(3)
O10_2 O 0.8503(4) 0.4665(4) 0.2888(4)
O11_2 O 0.8489(4) 0.4569(4) 0.2305(4)
O12_2 O 0.5466(3) 0.2822(3) 0.2790(4)
O13_2 O 0.5771(4) 0.2703(5) 0.3299(4)
O14_2 O 0.7839(3) 0.5294(3) 0.4524(3)
O15_2 O 0.8065(4) 0.5823(4) 0.4446(4)
N3_2 N 0.8560(4) 0.5226(4) 0.3421(4)
C22_2 C 0.8378(5) 0.4538(5) 0.2612(6)
C23_2 C 0.8066(4) 0.4306(5) 0.2662(5)
C24_2 C 0.7904(6) 0.4269(6) 0.2987(5)
H14_2 H 0.8008 0.4370 0.3190
C25_2 C 0.7591(6) 0.4084(7) 0.3015(6)
H15_2 H 0.7481 0.4058 0.3237
C26_2 C 0.7440(5) 0.3936(6) 0.2718(8)
C27_2 C 0.7602(6) 0.3973(6) 0.2393(6)
H16_2 H 0.7498 0.3872 0.2190
C28_2 C 0.7914(6) 0.4158(6) 0.2365(4)
H17_2 H 0.8025 0.4184 0.2144
C29_2 C 0.6869(4) 0.3650(4) 0.2524(4)
C30_2 C 0.6613(6) 0.3420(7) 0.2655(7)
C31_2 C 0.6618(4) 0.3253(7) 0.2979(7)
H18_2 H 0.6822 0.3264 0.3122
C32_2 C 0.6325(5) 0.3069(6) 0.3094(5)
H19_2 H 0.6329 0.2955 0.3315
C33_2 C 0.6027(4) 0.3053(5) 0.2885(5)
C34_2 C 0.6022(6) 0.3220(6) 0.2561(5)
H20_2 H 0.5818 0.3209 0.2418
C35_2 C 0.6315(7) 0.3404(7) 0.2446(6)
H21_2 H 0.6312 0.3519 0.2225
C36_2 C 0.5733(6) 0.2844(6) 0.3002(6)
C37_2 C 0.8019(4) 0.5506(5) 0.4372(4)
C38_2 C 0.8195(4) 0.5398(5) 0.4037(5)
C39_2 C 0.8266(5) 0.5053(5) 0.3951(5)
H22_2 H 0.8192 0.4871 0.4104
C40_2 C 0.8440(5) 0.4972(6) 0.3650(5)
H23_2 H 0.8481 0.4732 0.3595
C41_2 C 0.8481(5) 0.5561(6) 0.3486(5)
H24_2 H 0.8538 0.5735 0.3316
C42_2 C 0.8316(5) 0.5662(5) 0.3801(5)
H25_2 H 0.8286 0.5903 0.3856
N4_2 N 0.7075(10) 0.3770(8) 0.2746(10)
H26_2 H 0.6996 0.3756 0.2962
O16_2 O 0.6992(14) 0.3589(15) 0.2177(17)
In4_2 In 0.96801(4) 0.5000 0.2500
In5_3 In 0.7500 0.53199(4) 0.5000
In6_3 In 0.5000 0.2500 0.28199(4)
In8_2 In 0.79453(3) 0.61316(3) 0.49065(3)
In10_2 In 0.88684(3) 0.49065(3) 0.20547(3)
In11_2 In 0.54453(3) 0.24065(3) 0.36316(3)
O17_2 O 0.9146(3) 0.5000 0.2500
O18_2 O 0.9569(4) 0.7305(4) 0.3489(4)
O19_2 O 0.8489(4) 0.5431(4) 0.2695(4)
O21_2 O 0.9678(3) 0.7966(3) 0.4710(4)
O22_2 O 0.9201(4) 0.4797(5) 0.3271(4)
O24_2 O 0.9524(3) 0.7161(3) 0.4706(3)
O26_2 O 0.9446(4) 0.6935(4) 0.4177(4)
H28 H 0.986041 0.770201 0.530882
O10_3 O 0.3503(4) 0.0335(4) 0.7112(4)
O11_3 O 0.3489(4) 0.0431(4) 0.7695(4)
O12_3 O 0.0466(3) 0.2178(3) 0.7210(4)
O13_3 O 0.0771(4) 0.2297(5) 0.6701(4)
C22_3 C 0.3378(5) 0.0462(5) 0.7388(6)
C23_3 C 0.3066(4) 0.0694(5) 0.7338(5)
C24_3 C 0.2904(6) 0.0731(6) 0.7013(5)
H14_3 H 0.3008 0.0630 0.6810
C25_3 C 0.2591(6) 0.0916(7) 0.6985(6)
H15_3 H 0.2481 0.0942 0.6763
C26_3 C 0.2440(5) 0.1064(6) 0.7282(8)
C27_3 C 0.2602(6) 0.1027(6) 0.7607(6)
H16_3 H 0.2498 0.1128 0.7810
C28_3 C 0.2914(6) 0.0842(6) 0.7635(4)
H17_3 H 0.3025 0.0816 0.7856
C29_3 C 0.1869(4) 0.1350(4) 0.7476(4)
C30_3 C 0.1613(6) 0.1580(7) 0.7345(7)
C31_3 C 0.1618(4) 0.1747(7) 0.7021(7)
H18_3 H 0.1822 0.1736 0.6878
C32_3 C 0.1325(5) 0.1931(6) 0.6906(5)
H19_3 H 0.1329 0.2045 0.6685
C33_3 C 0.1027(4) 0.1947(5) 0.7115(5)
C34_3 C 0.1022(6) 0.1780(6) 0.7439(5)
H20_3 H 0.0818 0.1791 0.7582
C35_3 C 0.1315(7) 0.1596(7) 0.7554(6)
H21_3 H 0.1312 0.1481 0.7775
C36_3 C 0.0733(6) 0.2156(6) 0.6998(6)
H22_3 H 0.3192 0.0129 0.5896
C40_3 C 0.3440(5) 0.0028(6) 0.6350(5)
H23_3 H 0.3481 0.0268 0.6405
N4_3 N 0.2075(10) 0.1230(8) 0.7254(10)
H26_3 H 0.1996 0.1244 0.7038
O16_3 O 0.1992(14) 0.1411(15) 0.7823(17)
In4_3 In 0.46801(4) 0.0000 0.7500
In6_4 In -0.0000 0.2500 0.71801(4)
In10_3 In 0.38684(3) 0.00935(3) 0.79453(3)
In11_3 In 0.04453(3) 0.25935(3) 0.63684(3)
O17_3 O 0.4146(3) 0.0000 0.7500
O22_3 O 0.4201(4) 0.0203(5) 0.6729(4)
In7_4 In 0.7500 0.78199(4) 0.0000
In1_4 In 0.5000 0.7500 0.53199(4)
In2_3 In 0.49065(3) 0.79453(3) 0.61316(3)
O1_4 O 0.5000 0.7500 0.5854(3)
O2_4 O 0.5000 0.7500 0.4778(5)
O3_3 O 0.5335(4) 0.7888(4) 0.6497(4)
O4_3 O 0.5431(4) 0.7305(4) 0.6511(4)
O5_3 O 0.7178(3) 0.7790(4) 0.9534(3)
O6_3 O 0.7297(5) 0.8299(4) 0.9229(4)
O7_3 O 0.4706(3) 0.9524(3) 0.7161(3)
O8_3 O 0.4177(4) 0.9446(4) 0.6935(4)
N1_3 N 0.4774(4) 0.8421(4) 0.6440(4)
C1_3 C 0.5462(5) 0.7612(6) 0.6622(5)
C2_3 C 0.5694(5) 0.7662(5) 0.6934(4)
C3_3 C 0.5731(6) 0.7987(5) 0.7096(6)
H1_3 H 0.5630 0.8190 0.6992
C4_3 C 0.5916(7) 0.8015(6) 0.7409(6)
H2_3 H 0.5942 0.8237 0.7519
C5_3 C 0.6064(6) 0.7718(8) 0.7560(5)
C6_3 C 0.6027(6) 0.7393(6) 0.7398(6)
H3_3 H 0.6128 0.7190 0.7502
C7_3 C 0.5842(6) 0.7365(4) 0.7086(6)
H4_3 H 0.5816 0.7144 0.6975
C8_3 C 0.6350(4) 0.7524(4) 0.8131(4)
C9_3 C 0.6580(7) 0.7655(7) 0.8387(6)
C10_3 C 0.6747(7) 0.7979(7) 0.8382(4)
H5_3 H 0.6736 0.8122 0.8178
C11_3 C 0.6931(6) 0.8094(5) 0.8675(5)
H6_3 H 0.7045 0.8315 0.8671
C12_3 C 0.6947(5) 0.7885(5) 0.8973(4)
C13_3 C 0.6780(6) 0.7561(5) 0.8978(6)
H7_3 H 0.6791 0.7418 0.9182
C14_3 C 0.6596(7) 0.7446(6) 0.8685(7)
H8_3 H 0.6481 0.7225 0.8688
C15_3 C 0.7156(6) 0.8002(6) 0.9267(6)
C16_3 C 0.4494(5) 0.9372(4) 0.6981(4)
C17_3 C 0.4602(5) 0.9037(5) 0.6805(4)
C18_3 C 0.4947(5) 0.8951(5) 0.6734(5)
H9_3 H 0.5129 0.9104 0.6808
C19_3 C 0.5028(6) 0.8650(5) 0.6560(5)
H10_3 H 0.5268 0.8595 0.6519
C20_3 C 0.4439(6) 0.8486(5) 0.6519(5)
H11_3 H 0.4265 0.8316 0.6462
C21_3 C 0.4338(5) 0.8801(5) 0.6684(5)
H12_3 H 0.4097 0.8856 0.6714
N2_3 N 0.6230(8) 0.7746(10) 0.7925(10)
H13_3 H 0.6244 0.7962 0.8004
O9_3 O 0.6411(15) 0.7177(17) 0.8008(14)
In3_3 In 0.38684(3) 0.99065(3) 0.70547(3)
O14_3 O 0.2839(3) 0.9706(3) 0.5476(3)
O15_3 O 0.3065(4) 0.9177(4) 0.5554(4)
N3_3 N 0.3560(4) 0.9774(4) 0.6579(4)
C37_3 C 0.3019(4) 0.9494(5) 0.5628(4)
C38_3 C 0.3195(4) 0.9602(5) 0.5963(5)
C39_3 C 0.3266(5) 0.9947(5) 0.6049(5)
C41_3 C 0.3481(5) 0.9439(6) 0.6514(5)
H24_3 H 0.3538 0.9265 0.6684
C42_3 C 0.3316(5) 0.9338(5) 0.6199(5)
H25_3 H 0.3286 0.9097 0.6144
In4_4 In 0.46801(4) 1.0000 0.7500
In5_4 In 0.2500 0.96801(4) 0.5000
In7_5 In 0.7500 0.78199(4) 1.0000
In8_3 In 0.29453(3) 0.88684(3) 0.50935(3)
In9_3 In 0.50935(3) 0.70547(3) 0.61316(3)
In12_3 In 0.75935(3) 0.86316(3) 0.95547(3)
O17_4 O 0.4146(3) 1.0000 0.7500
O18_3 O 0.4569(4) 0.7695(4) 0.6511(4)
O19_3 O 0.3489(4) 0.9569(4) 0.7305(4)
O20_3 O 0.5322(3) 0.7966(3) 0.5290(4)
O21_3 O 0.4678(3) 0.7034(3) 0.5290(4)
O23_3 O 0.5203(5) 0.8271(4) 0.5799(4)
O24_3 O 0.4524(3) 0.7839(3) 0.5294(3)
O25_3 O 0.5476(3) 0.7161(3) 0.5294(3)
O26_3 O 0.4446(4) 0.8065(4) 0.5823(4)
In6_5 In 1.0000 0.2500 0.71801(4)
In1_5 In -0.0000 0.2500 0.03199(4)
In2_4 In 0.00935(3) 0.20547(3) 0.11316(3)
O1_5 O -0.0000 0.2500 0.0854(3)
O7_4 O 0.0294(3) 0.0476(3) 0.2161(3)
O8_4 O 0.0823(4) 0.0554(4) 0.1935(4)
N1_4 N 0.0226(4) 0.1579(4) 0.1440(4)
C16_4 C 0.0506(5) 0.0628(4) 0.1981(4)
C17_4 C 0.0398(5) 0.0963(5) 0.1805(4)
C18_4 C 0.0053(5) 0.1049(5) 0.1734(5)
C20_4 C 0.0561(6) 0.1514(5) 0.1519(5)
H11_4 H 0.0735 0.1684 0.1462
C21_4 C 0.0662(5) 0.1199(5) 0.1684(5)
H12_4 H 0.0903 0.1144 0.1714
In3_4 In 0.11316(3) 0.00935(3) 0.20547(3)
O14_4 O 0.2161(3) 0.0294(3) 0.0476(3)
O15_4 O 0.1935(4) 0.0823(4) 0.0554(4)
N3_4 N 0.1440(4) 0.0226(4) 0.1579(4)
C37_4 C 0.1981(4) 0.0506(5) 0.0628(4)
C38_4 C 0.1805(4) 0.0398(5) 0.0963(5)
C39_4 C 0.1734(5) 0.0053(5) 0.1049(5)
C41_4 C 0.1519(5) 0.0561(6) 0.1514(5)
H24_4 H 0.1462 0.0735 0.1684
C42_4 C 0.1684(5) 0.0662(5) 0.1199(5)
H25_4 H 0.1714 0.0903 0.1144
In4_5 In 0.03199(4) -0.0000 0.2500
In5_5 In 0.2500 0.03199(4) 0.0000
In8_4 In 0.20547(3) 0.11316(3) 0.00935(3)
O17_5 O 0.0854(3) -0.0000 0.2500
O18_4 O 0.0431(4) 0.2305(4) 0.1511(4)
O19_4 O 0.1511(4) 0.0431(4) 0.2305(4)
O21_4 O 0.0322(3) 0.2966(3) 0.0290(4)
O24_4 O 0.0476(3) 0.2161(3) 0.0294(3)
O26_4 O 0.0554(4) 0.1935(4) 0.0823(4)
O2_5 O -0.0000 0.2500 0.9778(5)
In5_6 In 0.2500 0.03199(4) 1.0000
H28_2 H 0.0139589 0.270201 0.969118
O10_4 O 0.1497(4) 0.9665(4) 0.2112(4)
O11_4 O 0.1511(4) 0.9569(4) 0.2695(4)
O12_4 O 0.4534(3) 0.7822(3) 0.2210(4)
O13_4 O 0.4229(4) 0.7703(5) 0.1701(4)
C22_4 C 0.1622(5) 0.9538(5) 0.2388(6)
C23_4 C 0.1934(4) 0.9306(5) 0.2338(5)
C24_4 C 0.2096(6) 0.9269(6) 0.2013(5)
H14_4 H 0.1992 0.9370 0.1810
C25_4 C 0.2409(6) 0.9084(7) 0.1985(6)
H15_4 H 0.2519 0.9058 0.1763
C26_4 C 0.2560(5) 0.8936(6) 0.2282(8)
C27_4 C 0.2398(6) 0.8973(6) 0.2607(6)
H16_4 H 0.2502 0.8872 0.2810
C28_4 C 0.2086(6) 0.9158(6) 0.2635(4)
H17_4 H 0.1975 0.9184 0.2856
C29_4 C 0.3131(4) 0.8650(4) 0.2476(4)
C30_4 C 0.3387(6) 0.8420(7) 0.2345(7)
C31_4 C 0.3382(4) 0.8253(7) 0.2021(7)
H18_4 H 0.3178 0.8264 0.1878
C32_4 C 0.3675(5) 0.8069(6) 0.1906(5)
H19_4 H 0.3671 0.7955 0.1685
C33_4 C 0.3973(4) 0.8053(5) 0.2115(5)
C34_4 C 0.3978(6) 0.8220(6) 0.2439(5)
H20_4 H 0.4182 0.8209 0.2582
C35_4 C 0.3685(7) 0.8404(7) 0.2554(6)
H21_4 H 0.3688 0.8519 0.2775
C36_4 C 0.4267(6) 0.7844(6) 0.1998(6)
H22_4 H 0.1808 0.9871 0.0896
C40_4 C 0.1560(5) 0.9972(6) 0.1350(5)
H23_4 H 0.1519 0.9732 0.1405
N4_4 N 0.2925(10) 0.8770(8) 0.2254(10)
H26_4 H 0.3004 0.8756 0.2038
O16_4 O 0.3008(14) 0.8589(15) 0.2823(17)
In4_6 In 0.03199(4) 1.0000 0.2500
In6_6 In 0.5000 0.7500 0.21801(4)
In10_4 In 0.11316(3) 0.99065(3) 0.29453(3)
In11_4 In 0.45547(3) 0.74065(3) 0.13684(3)
O17_6 O 0.0854(3) 1.0000 0.2500
O22_4 O 0.0799(4) 0.9797(5) 0.1729(4)
In1_6 In 1.0000 0.2500 0.03199(4)
O1_6 O 1.0000 0.2500 0.0854(3)
O3_4 O 0.9665(4) 0.2112(4) 0.1497(4)
O4_4 O 0.9569(4) 0.2695(4) 0.1511(4)
O5_4 O 0.7822(3) 0.2210(4) 0.4534(3)
O6_4 O 0.7703(5) 0.1701(4) 0.4229(4)
C1_4 C 0.9538(5) 0.2388(6) 0.1622(5)
C2_4 C 0.9306(5) 0.2338(5) 0.1934(4)
C3_4 C 0.9269(6) 0.2013(5) 0.2096(6)
H1_4 H 0.9370 0.1810 0.1992
C4_4 C 0.9084(7) 0.1985(6) 0.2409(6)
H2_4 H 0.9058 0.1763 0.2519
C5_4 C 0.8936(6) 0.2282(8) 0.2560(5)
C6_4 C 0.8973(6) 0.2607(6) 0.2398(6)
H3_4 H 0.8872 0.2810 0.2502
C7_4 C 0.9158(6) 0.2635(4) 0.2086(6)
H4_4 H 0.9184 0.2856 0.1975
C8_4 C 0.8650(4) 0.2476(4) 0.3131(4)
C9_4 C 0.8420(7) 0.2345(7) 0.3387(6)
C10_4 C 0.8253(7) 0.2021(7) 0.3382(4)
H5_4 H 0.8264 0.1878 0.3178
C11_4 C 0.8069(6) 0.1906(5) 0.3675(5)
H6_4 H 0.7955 0.1685 0.3671
C12_4 C 0.8053(5) 0.2115(5) 0.3973(4)
C13_4 C 0.8220(6) 0.2439(5) 0.3978(6)
H7_4 H 0.8209 0.2582 0.4182
C14_4 C 0.8404(7) 0.2554(6) 0.3685(7)
H8_4 H 0.8519 0.2775 0.3688
C15_4 C 0.7844(6) 0.1998(6) 0.4267(6)
H9_4 H 0.9871 0.0896 0.1808
C19_4 C 0.9972(6) 0.1350(5) 0.1560(5)
H10_4 H 0.9732 0.1405 0.1519
N2_4 N 0.8770(8) 0.2254(10) 0.2925(10)
H13_4 H 0.8756 0.2038 0.3004
O9_4 O 0.8589(15) 0.2823(17) 0.3008(14)
In7_6 In 0.7500 0.21801(4) 0.5000
In9_4 In 0.99065(3) 0.29453(3) 0.11316(3)
In12_4 In 0.74065(3) 0.13684(3) 0.45547(3)
O20_4 O 0.9678(3) 0.2034(3) 0.0290(4)
O23_4 O 0.9797(5) 0.1729(4) 0.0799(4)
O25_4 O 0.9524(3) 0.2839(3) 0.0294(3)
O2_6 O 1.0000 0.2500 0.9778(5)
H27_2 H 0.975526 0.251988 0.969118
O2_7 O 0.0222(5) 0.5000 0.2500
In6_7 In 0.78199(4) 0.0000 0.7500
O10_5 O 0.7888(4) 0.6497(4) 0.5335(4)
O11_5 O 0.7305(4) 0.6511(4) 0.5431(4)
O12_5 O 0.7790(4) 0.9534(3) 0.7178(3)
O13_5 O 0.8299(4) 0.9229(4) 0.7297(5)
N3_5 N 0.8421(4) 0.6440(4) 0.4774(4)
C22_5 C 0.7612(6) 0.6622(5) 0.5462(5)
C23_5 C 0.7662(5) 0.6934(4) 0.5694(5)
C24_5 C 0.7987(5) 0.7096(6) 0.5731(6)
H14_5 H 0.8190 0.6992 0.5630
C25_5 C 0.8015(6) 0.7409(6) 0.5916(7)
H15_5 H 0.8237 0.7519 0.5942
C26_5 C 0.7718(8) 0.7560(5) 0.6064(6)
C27_5 C 0.7393(6) 0.7398(6) 0.6027(6)
H16_5 H 0.7190 0.7502 0.6128
C28_5 C 0.7365(4) 0.7086(6) 0.5842(6)
H17_5 H 0.7144 0.6975 0.5816
C29_5 C 0.7524(4) 0.8131(4) 0.6350(4)
C30_5 C 0.7655(7) 0.8387(6) 0.6580(7)
C31_5 C 0.7979(7) 0.8382(4) 0.6747(7)
H18_5 H 0.8122 0.8178 0.6736
C32_5 C 0.8094(5) 0.8675(5) 0.6931(6)
H19_5 H 0.8315 0.8671 0.7045
C33_5 C 0.7885(5) 0.8973(4) 0.6947(5)
C34_5 C 0.7561(5) 0.8978(6) 0.6780(6)
H20_5 H 0.7418 0.9182 0.6791
C35_5 C 0.7446(6) 0.8685(7) 0.6596(7)
H21_5 H 0.7225 0.8688 0.6481
C36_5 C 0.8002(6) 0.9267(6) 0.7156(6)
C37_5 C 0.9372(4) 0.6981(4) 0.4494(5)
C38_5 C 0.9037(5) 0.6805(4) 0.4602(5)
C39_5 C 0.8951(5) 0.6734(5) 0.4947(5)
H22_5 H 0.9104 0.6808 0.5129
C40_5 C 0.8650(5) 0.6560(5) 0.5028(6)
H23_5 H 0.8595 0.6519 0.5268
C41_5 C 0.8486(5) 0.6519(5) 0.4439(6)
H24_5 H 0.8316 0.6462 0.4265
C42_5 C 0.8801(5) 0.6684(5) 0.4338(5)
H25_5 H 0.8856 0.6714 0.4097
N4_5 N 0.7746(10) 0.7925(10) 0.6230(8)
H26_5 H 0.7962 0.8004 0.6244
O16_5 O 0.7177(17) 0.8008(14) 0.6411(15)
In6_8 In 0.78199(4) 1.0000 0.7500
In10_5 In 0.70547(3) 0.61316(3) 0.50935(3)
In11_5 In 0.86316(3) 0.95547(3) 0.75935(3)
O17_7 O 0.7500 0.5854(3) 0.5000
O19_5 O 0.7695(4) 0.6511(4) 0.4569(4)
O20_5 O 0.9710(4) 0.4678(3) 0.2966(3)
O21_5 O 0.9710(4) 0.5322(3) 0.2034(3)
O22_5 O 0.8271(4) 0.5799(4) 0.5203(5)
O25_5 O 0.9706(3) 0.4524(3) 0.2161(3)
O2_8 O 0.5222(5) 0.0000 0.7500
O20_6 O 0.4710(4) 0.0322(3) 0.7034(3)
O25_6 O 0.4706(3) 0.0476(3) 0.7839(3)
H27_3 H 0.530882 0.0244744 0.751988
O2_9 O 0.5222(5) 1.0000 0.7500
O10_6 O 0.2888(4) 0.8503(4) 0.4665(4)
O11_6 O 0.2305(4) 0.8489(4) 0.4569(4)
O12_6 O 0.2790(4) 0.5466(3) 0.2822(3)
O13_6 O 0.3299(4) 0.5771(4) 0.2703(5)
N3_6 N 0.3421(4) 0.8560(4) 0.5226(4)
C22_6 C 0.2612(6) 0.8378(5) 0.4538(5)
C23_6 C 0.2662(5) 0.8066(4) 0.4306(5)
C24_6 C 0.2987(5) 0.7904(6) 0.4269(6)
H14_6 H 0.3190 0.8008 0.4370
C25_6 C 0.3015(6) 0.7591(6) 0.4084(7)
H15_6 H 0.3237 0.7481 0.4058
C26_6 C 0.2718(8) 0.7440(5) 0.3936(6)
C27_6 C 0.2393(6) 0.7602(6) 0.3973(6)
H16_6 H 0.2190 0.7498 0.3872
C28_6 C 0.2365(4) 0.7914(6) 0.4158(6)
H17_6 H 0.2144 0.8025 0.4184
C29_6 C 0.2524(4) 0.6869(4) 0.3650(4)
C30_6 C 0.2655(7) 0.6613(6) 0.3420(7)
C31_6 C 0.2979(7) 0.6618(4) 0.3253(7)
H18_6 H 0.3122 0.6822 0.3264
C32_6 C 0.3094(5) 0.6325(5) 0.3069(6)
H19_6 H 0.3315 0.6329 0.2955
C33_6 C 0.2885(5) 0.6027(4) 0.3053(5)
C34_6 C 0.2561(5) 0.6022(6) 0.3220(6)
H20_6 H 0.2418 0.5818 0.3209
C35_6 C 0.2446(6) 0.6315(7) 0.3404(7)
H21_6 H 0.2225 0.6312 0.3519
C36_6 C 0.3002(6) 0.5733(6) 0.2844(6)
C37_6 C 0.4372(4) 0.8019(4) 0.5506(5)
C38_6 C 0.4037(5) 0.8195(4) 0.5398(5)
C39_6 C 0.3951(5) 0.8266(5) 0.5053(5)
H22_6 H 0.4104 0.8192 0.4871
C40_6 C 0.3650(5) 0.8440(5) 0.4972(6)
H23_6 H 0.3595 0.8481 0.4732
C41_6 C 0.3486(5) 0.8481(5) 0.5561(6)
H24_6 H 0.3316 0.8538 0.5735
C42_6 C 0.3801(5) 0.8316(5) 0.5662(5)
H25_6 H 0.3856 0.8286 0.5903
N4_6 N 0.2746(10) 0.7075(10) 0.3770(8)
H26_6 H 0.2962 0.6996 0.3756
O16_6 O 0.2177(17) 0.6992(14) 0.3589(15)
In6_9 In 0.28199(4) 0.5000 0.2500
In10_6 In 0.20547(3) 0.88684(3) 0.49065(3)
In11_6 In 0.36316(3) 0.54453(3) 0.24065(3)
O17_8 O 0.2500 0.9146(3) 0.5000
O19_6 O 0.2695(4) 0.8489(4) 0.5431(4)
O21_6 O 0.4710(4) 0.9678(3) 0.7966(3)
O22_6 O 0.3271(4) 0.9201(4) 0.4797(5)
H28_3 H 0.530882 0.986041 0.770201
O10_7 O 0.7112(4) 0.3503(4) 0.0335(4)
O11_7 O 0.7695(4) 0.3489(4) 0.0431(4)
O12_7 O 0.7210(4) 0.0466(3) 0.2178(3)
O13_7 O 0.6701(4) 0.0771(4) 0.2297(5)
C22_7 C 0.7388(6) 0.3378(5) 0.0462(5)
C23_7 C 0.7338(5) 0.3066(4) 0.0694(5)
C24_7 C 0.7013(5) 0.2904(6) 0.0731(6)
H14_7 H 0.6810 0.3008 0.0630
C25_7 C 0.6985(6) 0.2591(6) 0.0916(7)
H15_7 H 0.6763 0.2481 0.0942
C26_7 C 0.7282(8) 0.2440(5) 0.1064(6)
C27_7 C 0.7607(6) 0.2602(6) 0.1027(6)
H16_7 H 0.7810 0.2498 0.1128
C28_7 C 0.7635(4) 0.2914(6) 0.0842(6)
H17_7 H 0.7856 0.3025 0.0816
C29_7 C 0.7476(4) 0.1869(4) 0.1350(4)
C30_7 C 0.7345(7) 0.1613(6) 0.1580(7)
C31_7 C 0.7021(7) 0.1618(4) 0.1747(7)
H18_7 H 0.6878 0.1822 0.1736
C32_7 C 0.6906(5) 0.1325(5) 0.1931(6)
H19_7 H 0.6685 0.1329 0.2045
C33_7 C 0.7115(5) 0.1027(4) 0.1947(5)
C34_7 C 0.7439(5) 0.1022(6) 0.1780(6)
H20_7 H 0.7582 0.0818 0.1791
C35_7 C 0.7554(6) 0.1315(7) 0.1596(7)
H21_7 H 0.7775 0.1312 0.1481
C36_7 C 0.6998(6) 0.0733(6) 0.2156(6)
H22_7 H 0.5896 0.3192 0.0129
C40_7 C 0.6350(5) 0.3440(5) 0.0028(6)
H23_7 H 0.6405 0.3481 0.0268
N4_7 N 0.7254(10) 0.2075(10) 0.1230(8)
H26_7 H 0.7038 0.1996 0.1244
O16_7 O 0.7823(17) 0.1992(14) 0.1411(15)
In6_10 In 0.71801(4) -0.0000 0.2500
In10_7 In 0.79453(3) 0.38684(3) 0.00935(3)
In11_7 In 0.63684(3) 0.04453(3) 0.25935(3)
O17_9 O 0.7500 0.4146(3) 0.0000
O22_7 O 0.6729(4) 0.4201(4) 0.0203(5)
O2_10 O 0.4778(5) 0.5000 0.7500
N3_7 N 0.6579(4) 0.3560(4) 0.9774(4)
C37_7 C 0.5628(4) 0.3019(4) 0.9494(5)
C38_7 C 0.5963(5) 0.3195(4) 0.9602(5)
C39_7 C 0.6049(5) 0.3266(5) 0.9947(5)
C41_7 C 0.6514(5) 0.3481(5) 0.9439(6)
H24_7 H 0.6684 0.3538 0.9265
C42_7 C 0.6199(5) 0.3316(5) 0.9338(5)
H25_7 H 0.6144 0.3286 0.9097
O17_10 O 0.7500 0.4146(3) 1.0000
O19_7 O 0.7305(4) 0.3489(4) 0.9569(4)
O20_7 O 0.5290(4) 0.5322(3) 0.7966(3)
O21_7 O 0.5290(4) 0.4678(3) 0.7034(3)
O25_7 O 0.5294(3) 0.5476(3) 0.7161(3)
In6_11 In 0.71801(4) 1.0000 0.2500
N3_8 N 0.1579(4) 0.1440(4) 0.0226(4)
C37_8 C 0.0628(4) 0.1981(4) 0.0506(5)
C38_8 C 0.0963(5) 0.1805(4) 0.0398(5)
C39_8 C 0.1049(5) 0.1734(5) 0.0053(5)
C41_8 C 0.1514(5) 0.1519(5) 0.0561(6)
H24_8 H 0.1684 0.1462 0.0735
C42_8 C 0.1199(5) 0.1684(5) 0.0662(5)
H25_8 H 0.1144 0.1714 0.0903
O17_11 O 0.2500 0.0854(3) 0.0000
O19_8 O 0.2305(4) 0.1511(4) 0.0431(4)
O21_8 O 0.0290(4) 0.0322(3) 0.2966(3)
O10_8 O 0.2112(4) 0.1497(4) 0.9665(4)
O11_8 O 0.2695(4) 0.1511(4) 0.9569(4)
O12_8 O 0.2210(4) 0.4534(3) 0.7822(3)
O13_8 O 0.1701(4) 0.4229(4) 0.7703(5)
C22_8 C 0.2388(6) 0.1622(5) 0.9538(5)
C23_8 C 0.2338(5) 0.1934(4) 0.9306(5)
C24_8 C 0.2013(5) 0.2096(6) 0.9269(6)
H14_8 H 0.1810 0.1992 0.9370
C25_8 C 0.1985(6) 0.2409(6) 0.9084(7)
H15_8 H 0.1763 0.2519 0.9058
C26_8 C 0.2282(8) 0.2560(5) 0.8936(6)
C27_8 C 0.2607(6) 0.2398(6) 0.8973(6)
H16_8 H 0.2810 0.2502 0.8872
C28_8 C 0.2635(4) 0.2086(6) 0.9158(6)
H17_8 H 0.2856 0.1975 0.9184
C29_8 C 0.2476(4) 0.3131(4) 0.8650(4)
C30_8 C 0.2345(7) 0.3387(6) 0.8420(7)
C31_8 C 0.2021(7) 0.3382(4) 0.8253(7)
H18_8 H 0.1878 0.3178 0.8264
C32_8 C 0.1906(5) 0.3675(5) 0.8069(6)
H19_8 H 0.1685 0.3671 0.7955
C33_8 C 0.2115(5) 0.3973(4) 0.8053(5)
C34_8 C 0.2439(5) 0.3978(6) 0.8220(6)
H20_8 H 0.2582 0.4182 0.8209
C35_8 C 0.2554(6) 0.3685(7) 0.8404(7)
H21_8 H 0.2775 0.3688 0.8519
C36_8 C 0.1998(6) 0.4267(6) 0.7844(6)
H22_8 H 0.0896 0.1808 0.9871
C40_8 C 0.1350(5) 0.1560(5) 0.9972(6)
H23_8 H 0.1405 0.1519 0.9732
N4_8 N 0.2254(10) 0.2925(10) 0.8770(8)
H26_8 H 0.2038 0.3004 0.8756
O16_8 O 0.2823(17) 0.3008(14) 0.8589(15)
In6_12 In 0.21801(4) 0.5000 0.7500
In10_8 In 0.29453(3) 0.11316(3) 0.99065(3)
In11_8 In 0.13684(3) 0.45547(3) 0.74065(3)
O17_12 O 0.2500 0.0854(3) 1.0000
O22_8 O 0.1729(4) 0.0799(4) 0.9797(5)
O20_8 O 0.0290(4) 0.9678(3) 0.2034(3)
O25_8 O 0.0294(3) 0.9524(3) 0.2839(3)
O2_11 O 0.9778(5) -0.0000 0.2500
H28_4 H 0.969118 0.0139589 0.270201
O2_12 O 0.9778(5) 1.0000 0.2500
H27_4 H 0.969118 0.975526 0.251988
O2_13 O 0.2500 0.0222(5) 0.5000
O20_9 O 0.2966(3) 0.9710(4) 0.4678(3)
O21_9 O 0.2034(3) 0.9710(4) 0.5322(3)
O25_9 O 0.2161(3) 0.9706(3) 0.4524(3)
O2_14 O 0.7500 0.5222(5) 0.0000
O20_10 O 0.7034(3) 0.4710(4) 0.0322(3)
O25_10 O 0.7839(3) 0.4706(3) 0.0476(3)
H27_5 H 0.751988 0.530882 0.0244744
O2_15 O 0.7500 0.5222(5) 1.0000
O21_10 O 0.7966(3) 0.4710(4) 0.9678(3)
H28_5 H 0.770201 0.530882 0.986041
O2_16 O 0.7500 0.4778(5) 0.5000
O20_11 O 0.7966(3) 0.5290(4) 0.5322(3)
O21_11 O 0.7034(3) 0.5290(4) 0.4678(3)
O25_11 O 0.7161(3) 0.5294(3) 0.5476(3)
O21_12 O 0.2966(3) 0.0290(4) 0.0322(3)
O20_12 O 0.2034(3) 0.0290(4) 0.9678(3)
O25_12 O 0.2839(3) 0.0294(3) 0.9524(3)
O2_17 O 0.2500 0.9778(5) -0.0000
H28_6 H 0.270201 0.969118 0.0139589
O2_18 O 0.2500 0.9778(5) 1.0000
H27_6 H 0.251988 0.969118 0.975526
H15_9 H 0.8442 0.0019 0.0737
C26_9 C 0.8564(6) 0.0060(5) 0.0218(8)
C29_9 C 0.8850(4) 0.0631(4) 0.0024(4)
C30_9 C 0.9080(7) 0.0887(6) 0.0155(7)
C31_9 C 0.9247(7) 0.0882(4) 0.0479(7)
H18_9 H 0.9236 0.0678 0.0622
C32_9 C 0.9431(6) 0.1175(5) 0.0594(5)
H19_9 H 0.9545 0.1171 0.0815
C33_9 C 0.9447(5) 0.1473(4) 0.0385(5)
C34_9 C 0.9280(6) 0.1478(6) 0.0061(5)
C36_9 C 0.9656(6) 0.1767(6) 0.0502(6)
N4_9 N 0.8730(8) 0.0425(10) 0.0246(10)
H26_9 H 0.8744 0.0504 0.0462
In2_5 In 0.54453(3) 0.75935(3) 0.13684(3)
O1_7 O 0.5000 0.7500 0.1646(3)
O2_19 O 0.5000 0.7500 0.2722(5)
O3_5 O 0.5388(4) 0.7165(4) 0.1003(4)
O4_5 O 0.4805(4) 0.7069(4) 0.0989(4)
O7_5 O 0.7024(3) 0.7794(3) 0.0339(3)
O8_5 O 0.6946(4) 0.8323(4) 0.0565(4)
N1_5 N 0.5921(4) 0.7726(4) 0.1060(4)
C1_5 C 0.5112(6) 0.7038(5) 0.0878(5)
C2_5 C 0.5162(5) 0.6806(5) 0.0566(4)
C3_5 C 0.5487(5) 0.6769(6) 0.0404(6)
H1_5 H 0.5690 0.6870 0.0508
C4_5 C 0.5515(6) 0.6584(7) 0.0091(6)
C6_5 C 0.4893(6) 0.6473(6) 0.0102(6)
C7_5 C 0.4865(4) 0.6658(6) 0.0414(6)
H4_5 H 0.4644 0.6684 0.0525
C16_5 C 0.6872(4) 0.8006(5) 0.0519(4)
C17_5 C 0.6537(5) 0.7898(5) 0.0695(4)
C18_5 C 0.6451(5) 0.7553(5) 0.0766(5)
H9_5 H 0.6604 0.7371 0.0692
C19_5 C 0.6150(5) 0.7472(6) 0.0940(5)
H10_5 H 0.6095 0.7232 0.0981
C20_5 C 0.5986(5) 0.8061(6) 0.0981(5)
H11_5 H 0.5816 0.8235 0.1038
C21_5 C 0.6301(5) 0.8162(5) 0.0816(5)
H12_5 H 0.6356 0.8403 0.0786
In3_5 In 0.74065(3) 0.86316(3) 0.04453(3)
O10_9 O 0.7835(4) 0.8997(4) 0.0388(4)
O14_5 O 0.7206(3) 0.9661(3) 0.2024(3)
O15_5 O 0.6677(4) 0.9435(4) 0.1946(4)
N3_9 N 0.7274(4) 0.8940(4) 0.0921(4)
C22_9 C 0.7962(5) 0.9122(5) 0.0112(6)
C23_9 C 0.8194(5) 0.9434(4) 0.0162(5)
C24_9 C 0.8231(6) 0.9596(6) 0.0487(5)
H14_9 H 0.8130 0.9492 0.0690
C25_9 C 0.8416(7) 0.9909(6) 0.0515(6)
C37_9 C 0.6994(5) 0.9481(4) 0.1872(4)
C38_9 C 0.7102(5) 0.9305(4) 0.1537(5)
C39_9 C 0.7447(5) 0.9234(5) 0.1451(5)
H22_9 H 0.7629 0.9308 0.1604
C40_9 C 0.7528(6) 0.9060(5) 0.1150(5)
H23_9 H 0.7768 0.9019 0.1095
C41_9 C 0.6939(6) 0.9019(5) 0.0986(5)
H24_9 H 0.6765 0.8962 0.0816
C42_9 C 0.6838(5) 0.9184(5) 0.1301(5)
H25_9 H 0.6597 0.9214 0.1356
In8_5 In 0.63684(3) 0.95547(3) 0.24065(3)
O17_13 O 0.7500 0.8354(3) 0.0000
O18_5 O 0.5195(4) 0.7931(4) 0.0989(4)
O19_9 O 0.7069(4) 0.9011(4) 0.0195(4)
O20_13 O 0.5466(3) 0.7178(3) 0.2210(4)
O22_9 O 0.7703(5) 0.8299(4) 0.0771(4)
O23_5 O 0.5771(4) 0.7297(5) 0.1701(4)
O24_5 O 0.5339(3) 0.7976(3) 0.2206(3)
O25_13 O 0.4661(3) 0.7024(3) 0.2206(3)
O26_5 O 0.5565(4) 0.8054(4) 0.1677(4)
H2_5 H 0.5737 0.6558 0.9981
C5_5 C 0.5218(8) 0.6436(6) 0.9940(5)
H3_5 H 0.4690 0.6372 0.9998
C8_5 C 0.5024(4) 0.6150(4) 0.9369(4)
C9_5 C 0.5155(7) 0.5920(7) 0.9113(6)
C10_5 C 0.5479(7) 0.5753(7) 0.9118(4)
H5_5 H 0.5622 0.5764 0.9322
C11_5 C 0.5594(5) 0.5569(6) 0.8825(5)
H6_5 H 0.5815 0.5455 0.8829
C12_5 C 0.5385(5) 0.5553(5) 0.8527(4)
C13_5 C 0.5061(5) 0.5720(6) 0.8522(6)
H7_5 H 0.4918 0.5709 0.8318
C14_5 C 0.4946(6) 0.5904(7) 0.8815(7)
H8_5 H 0.4725 0.6019 0.8812
C15_5 C 0.5502(6) 0.5344(6) 0.8233(6)
N2_5 N 0.5246(10) 0.6270(8) 0.9575(10)
H13_5 H 0.5462 0.6256 0.9496
O9_5 O 0.4677(17) 0.6089(15) 0.9492(14)
O11_9 O 0.7931(4) 0.9011(4) 0.9805(4)
C27_9 C 0.8527(6) 0.9898(6) 0.9893(6)
C28_9 C 0.8342(6) 0.9586(6) 0.9865(4)
H17_9 H 0.8316 0.9475 0.9644
O17_14 O 0.7500 0.8354(3) 1.0000
O1_8 O 0.0000 0.2500 0.6646(3)
O2_20 O -0.0000 0.2500 0.7722(5)
O4_6 O 0.0195(4) 0.2931(4) 0.5989(4)
C6_6 C 0.0107(6) 0.3527(6) 0.5102(6)
H3_6 H 0.0310 0.3628 0.4998
C7_6 C 0.0135(4) 0.3342(6) 0.5414(6)
H4_6 H 0.0356 0.3316 0.5525
H7_6 H 0.0082 0.4291 0.3318
C14_6 C 0.0054(6) 0.4096(7) 0.3815(7)
H8_6 H 0.0275 0.3981 0.3812
O9_6 O 0.0323(17) 0.3911(15) 0.4492(14)
O25_14 O 0.0339(3) 0.2976(3) 0.7206(3)
H27_7 H 0.00198807 0.274474 0.780882
H28_7 H 0.0202014 0.236041 0.780882
In2_6 In 0.95547(3) 0.24065(3) 0.63684(3)
O1_9 O 1.0000 0.2500 0.6646(3)
O2_21 O 1.0000 0.2500 0.7722(5)
O3_6 O 0.9612(4) 0.2835(4) 0.6003(4)
O7_6 O 0.7976(3) 0.2206(3) 0.5339(3)
O8_6 O 0.8054(4) 0.1677(4) 0.5565(4)
N1_6 N 0.9079(4) 0.2274(4) 0.6060(4)
C1_6 C 0.9888(6) 0.2962(5) 0.5878(5)
C2_6 C 0.9838(5) 0.3194(5) 0.5566(4)
C3_6 C 0.9513(5) 0.3231(6) 0.5404(6)
H1_6 H 0.9310 0.3130 0.5508
C4_6 C 0.9485(6) 0.3416(7) 0.5091(6)
H2_6 H 0.9263 0.3442 0.4981
C5_6 C 0.9782(8) 0.3564(6) 0.4940(5)
C8_6 C 0.9976(4) 0.3850(4) 0.4369(4)
C9_6 C 0.9845(7) 0.4080(7) 0.4113(6)
C10_6 C 0.9521(7) 0.4247(7) 0.4118(4)
H5_6 H 0.9378 0.4236 0.4322
C11_6 C 0.9406(5) 0.4431(6) 0.3825(5)
H6_6 H 0.9185 0.4545 0.3829
C12_6 C 0.9615(5) 0.4447(5) 0.3527(4)
C13_6 C 0.9939(5) 0.4280(6) 0.3522(6)
C15_6 C 0.9498(6) 0.4656(6) 0.3233(6)
C16_6 C 0.8128(4) 0.1994(5) 0.5519(4)
C17_6 C 0.8463(5) 0.2102(5) 0.5695(4)
C18_6 C 0.8549(5) 0.2447(5) 0.5766(5)
H9_6 H 0.8396 0.2629 0.5692
C19_6 C 0.8850(5) 0.2528(6) 0.5940(5)
H10_6 H 0.8905 0.2768 0.5981
C20_6 C 0.9014(5) 0.1939(6) 0.5981(5)
H11_6 H 0.9184 0.1765 0.6038
C21_6 C 0.8699(5) 0.1838(5) 0.5816(5)
H12_6 H 0.8644 0.1597 0.5786
N2_6 N 0.9754(10) 0.3730(8) 0.4575(10)
H13_6 H 0.9538 0.3744 0.4496
In3_6 In 0.75935(3) 0.13684(3) 0.54453(3)
O10_10 O 0.7165(4) 0.1003(4) 0.5388(4)
O11_10 O 0.7069(4) 0.0989(4) 0.4805(4)
O14_6 O 0.7794(3) 0.0339(3) 0.7024(3)
O15_6 O 0.8323(4) 0.0565(4) 0.6946(4)
N3_10 N 0.7726(4) 0.1060(4) 0.5921(4)
C22_10 C 0.7038(5) 0.0878(5) 0.5112(6)
C23_10 C 0.6806(5) 0.0566(4) 0.5162(5)
C24_10 C 0.6769(6) 0.0404(6) 0.5487(5)
H14_10 H 0.6870 0.0508 0.5690
C25_10 C 0.6584(7) 0.0091(6) 0.5515(6)
C27_10 C 0.6473(6) 0.0102(6) 0.4893(6)
C28_10 C 0.6658(6) 0.0414(6) 0.4865(4)
H17_10 H 0.6684 0.0525 0.4644
C37_10 C 0.8006(5) 0.0519(4) 0.6872(4)
C38_10 C 0.7898(5) 0.0695(4) 0.6537(5)
C39_10 C 0.7553(5) 0.0766(5) 0.6451(5)
H22_10 H 0.7371 0.0692 0.6604
C40_10 C 0.7472(6) 0.0940(5) 0.6150(5)
H23_10 H 0.7232 0.0981 0.6095
C41_10 C 0.8061(6) 0.0981(5) 0.5986(5)
H24_10 H 0.8235 0.1038 0.5816
C42_10 C 0.8162(5) 0.0816(5) 0.6301(5)
H25_10 H 0.8403 0.0786 0.6356
In8_6 In 0.86316(3) 0.04453(3) 0.74065(3)
O17_15 O 0.7500 0.1646(3) 0.5000
O18_6 O 0.9805(4) 0.2069(4) 0.5989(4)
O19_10 O 0.7931(4) 0.0989(4) 0.5195(4)
O20_14 O 0.9534(3) 0.2822(3) 0.7210(4)
O22_10 O 0.7297(5) 0.1701(4) 0.5771(4)
O23_6 O 0.9229(4) 0.2703(5) 0.6701(4)
O24_6 O 0.9661(3) 0.2024(3) 0.7206(3)
O26_6 O 0.9435(4) 0.1946(4) 0.6677(4)
H15_10 H 0.6558 0.9981 0.5737
C26_10 C 0.6436(6) 0.9940(5) 0.5218(8)
H16_9 H 0.6372 0.9998 0.4690
C29_10 C 0.6150(4) 0.9369(4) 0.5024(4)
C30_10 C 0.5920(7) 0.9113(6) 0.5155(7)
C31_10 C 0.5753(7) 0.9118(4) 0.5479(7)
H18_10 H 0.5764 0.9322 0.5622
C32_10 C 0.5569(6) 0.8825(5) 0.5594(5)
H19_10 H 0.5455 0.8829 0.5815
C33_10 C 0.5553(5) 0.8527(4) 0.5385(5)
C34_10 C 0.5720(6) 0.8522(6) 0.5061(5)
H20_9 H 0.5709 0.8318 0.4918
C35_9 C 0.5904(7) 0.8815(7) 0.4946(6)
H21_9 H 0.6019 0.8812 0.4725
C36_10 C 0.5344(6) 0.8233(6) 0.5502(6)
N4_10 N 0.6270(8) 0.9575(10) 0.5246(10)
H26_10 H 0.6256 0.9496 0.5462
O16_9 O 0.6089(15) 0.9492(14) 0.4677(17)
H2_7 H 0.0737 0.8442 0.0019
C5_7 C 0.0218(8) 0.8564(6) 0.0060(5)
C8_7 C 0.0024(4) 0.8850(4) 0.0631(4)
C9_7 C 0.0155(7) 0.9080(7) 0.0887(6)
C10_7 C 0.0479(7) 0.9247(7) 0.0882(4)
H5_7 H 0.0622 0.9236 0.0678
C11_7 C 0.0594(5) 0.9431(6) 0.1175(5)
H6_7 H 0.0815 0.9545 0.1171
C12_7 C 0.0385(5) 0.9447(5) 0.1473(4)
C13_7 C 0.0061(5) 0.9280(6) 0.1478(6)
C15_7 C 0.0502(6) 0.9656(6) 0.1767(6)
N2_7 N 0.0246(10) 0.8730(8) 0.0425(10)
H13_7 H 0.0462 0.8744 0.0504
O11_11 O 0.2931(4) 0.5989(4) 0.0195(4)
C27_11 C 0.3527(6) 0.5102(6) 0.0107(6)
H16_10 H 0.3628 0.4998 0.0310
C28_11 C 0.3342(6) 0.5414(6) 0.0135(4)
H17_11 H 0.3316 0.5525 0.0356
H20_10 H 0.4291 0.3318 0.0082
C35_10 C 0.4096(7) 0.3815(7) 0.0054(6)
H21_10 H 0.3981 0.3812 0.0275
O16_10 O 0.3911(15) 0.4492(14) 0.0323(17)
O17_16 O 0.2500 0.6646(3) 0.0000
In2_7 In 0.04453(3) 0.74065(3) 0.86316(3)
O1_10 O -0.0000 0.7500 0.8354(3)
O2_22 O -0.0000 0.7500 0.7278(5)
O3_7 O 0.0388(4) 0.7835(4) 0.8997(4)
O7_7 O 0.2024(3) 0.7206(3) 0.9661(3)
O8_7 O 0.1946(4) 0.6677(4) 0.9435(4)
N1_7 N 0.0921(4) 0.7274(4) 0.8940(4)
C1_7 C 0.0112(6) 0.7962(5) 0.9122(5)
C2_7 C 0.0162(5) 0.8194(5) 0.9434(4)
C3_7 C 0.0487(5) 0.8231(6) 0.9596(6)
H1_7 H 0.0690 0.8130 0.9492
C4_7 C 0.0515(6) 0.8416(7) 0.9909(6)
C16_7 C 0.1872(4) 0.6994(5) 0.9481(4)
C17_7 C 0.1537(5) 0.7102(5) 0.9305(4)
C18_7 C 0.1451(5) 0.7447(5) 0.9234(5)
H9_7 H 0.1604 0.7629 0.9308
C19_7 C 0.1150(5) 0.7528(6) 0.9060(5)
H10_7 H 0.1095 0.7768 0.9019
C20_7 C 0.0986(5) 0.6939(6) 0.9019(5)
H11_7 H 0.0816 0.6765 0.8962
C21_7 C 0.1301(5) 0.6838(5) 0.9184(5)
H12_7 H 0.1356 0.6597 0.9214
In3_7 In 0.24065(3) 0.63684(3) 0.95547(3)
O10_11 O 0.2835(4) 0.6003(4) 0.9612(4)
O14_7 O 0.2206(3) 0.5339(3) 0.7976(3)
O15_7 O 0.1677(4) 0.5565(4) 0.8054(4)
N3_11 N 0.2274(4) 0.6060(4) 0.9079(4)
C22_11 C 0.2962(5) 0.5878(5) 0.9888(6)
C23_11 C 0.3194(5) 0.5566(4) 0.9838(5)
C24_11 C 0.3231(6) 0.5404(6) 0.9513(5)
H14_11 H 0.3130 0.5508 0.9310
C25_11 C 0.3416(7) 0.5091(6) 0.9485(6)
H15_11 H 0.3442 0.4981 0.9263
C26_11 C 0.3564(6) 0.4940(5) 0.9782(8)
C29_11 C 0.3850(4) 0.4369(4) 0.9976(4)
C30_11 C 0.4080(7) 0.4113(6) 0.9845(7)
C31_11 C 0.4247(7) 0.4118(4) 0.9521(7)
H18_11 H 0.4236 0.4322 0.9378
C32_11 C 0.4431(6) 0.3825(5) 0.9406(5)
H19_11 H 0.4545 0.3829 0.9185
C33_11 C 0.4447(5) 0.3527(4) 0.9615(5)
C34_11 C 0.4280(6) 0.3522(6) 0.9939(5)
C36_11 C 0.4656(6) 0.3233(6) 0.9498(6)
C37_11 C 0.1994(5) 0.5519(4) 0.8128(4)
C38_11 C 0.2102(5) 0.5695(4) 0.8463(5)
C39_11 C 0.2447(5) 0.5766(5) 0.8549(5)
H22_11 H 0.2629 0.5692 0.8396
C40_11 C 0.2528(6) 0.5940(5) 0.8850(5)
H23_11 H 0.2768 0.5981 0.8905
C41_11 C 0.1939(6) 0.5981(5) 0.9014(5)
H24_11 H 0.1765 0.6038 0.9184
C42_11 C 0.1838(5) 0.5816(5) 0.8699(5)
H25_11 H 0.1597 0.5786 0.8644
N4_11 N 0.3730(8) 0.4575(10) 0.9754(10)
H26_11 H 0.3744 0.4496 0.9538
In8_7 In 0.13684(3) 0.54453(3) 0.75935(3)
O17_17 O 0.2500 0.6646(3) 1.0000
O18_7 O 0.0195(4) 0.7069(4) 0.9011(4)
O19_11 O 0.2069(4) 0.5989(4) 0.9805(4)
O20_15 O 0.0466(3) 0.7822(3) 0.7790(4)
O22_11 O 0.2703(5) 0.6701(4) 0.9229(4)
O23_7 O 0.0771(4) 0.7703(5) 0.8299(4)
O24_7 O 0.0339(3) 0.7024(3) 0.7794(3)
O26_7 O 0.0565(4) 0.6946(4) 0.8323(4)
O1_11 O 1.0000 0.7500 0.8354(3)
O2_23 O 1.0000 0.7500 0.7278(5)
O4_7 O 0.9805(4) 0.7931(4) 0.9011(4)
C6_7 C 0.9893(6) 0.8527(6) 0.9898(6)
C7_7 C 0.9865(4) 0.8342(6) 0.9586(6)
H4_7 H 0.9644 0.8316 0.9475
O25_15 O 0.9661(3) 0.7976(3) 0.7794(3)
H27_8 H 0.998012 0.774474 0.719118
H28_8 H 0.979799 0.736041 0.719118
In2_8 In 0.45547(3) 0.25935(3) 0.36316(3)
O1_12 O 0.5000 0.2500 0.3354(3)
O2_24 O 0.5000 0.2500 0.2278(5)
O3_8 O 0.4612(4) 0.2165(4) 0.3997(4)
O4_8 O 0.5195(4) 0.2069(4) 0.4011(4)
O7_8 O 0.2976(3) 0.2794(3) 0.4661(3)
O8_8 O 0.3054(4) 0.3323(4) 0.4435(4)
N1_8 N 0.4079(4) 0.2726(4) 0.3940(4)
C1_8 C 0.4888(6) 0.2038(5) 0.4122(5)
C2_8 C 0.4838(5) 0.1806(5) 0.4434(4)
C3_8 C 0.4513(5) 0.1769(6) 0.4596(6)
H1_8 H 0.4310 0.1870 0.4492
C4_8 C 0.4485(6) 0.1584(7) 0.4909(6)
H2_8 H 0.4263 0.1558 0.5019
C5_8 C 0.4782(8) 0.1436(6) 0.5060(5)
C6_8 C 0.5107(6) 0.1473(6) 0.4898(6)
H3_7 H 0.5310 0.1372 0.5002
C7_8 C 0.5135(4) 0.1658(6) 0.4586(6)
H4_8 H 0.5356 0.1684 0.4475
C8_8 C 0.4976(4) 0.1150(4) 0.5631(4)
C9_8 C 0.4845(7) 0.0920(7) 0.5887(6)
C10_8 C 0.4521(7) 0.0753(7) 0.5882(4)
H5_8 H 0.4378 0.0764 0.5678
C11_8 C 0.4406(5) 0.0569(6) 0.6175(5)
H6_8 H 0.4185 0.0455 0.6171
C12_8 C 0.4615(5) 0.0553(5) 0.6473(4)
C13_8 C 0.4939(5) 0.0720(6) 0.6478(6)
H7_7 H 0.5082 0.0709 0.6682
C14_7 C 0.5054(6) 0.0904(7) 0.6185(7)
H8_7 H 0.5275 0.1019 0.6188
C15_8 C 0.4498(6) 0.0344(6) 0.6767(6)
C16_8 C 0.3128(4) 0.3006(5) 0.4481(4)
C17_8 C 0.3463(5) 0.2898(5) 0.4305(4)
C18_8 C 0.3549(5) 0.2553(5) 0.4234(5)
H9_8 H 0.3396 0.2371 0.4308
C19_8 C 0.3850(5) 0.2472(6) 0.4060(5)
H10_8 H 0.3905 0.2232 0.4019
C20_8 C 0.4014(5) 0.3061(6) 0.4019(5)
H11_8 H 0.4184 0.3235 0.3962
C21_8 C 0.3699(5) 0.3162(5) 0.4184(5)
H12_8 H 0.3644 0.3403 0.4214
N2_8 N 0.4754(10) 0.1270(8) 0.5425(10)
H13_8 H 0.4538 0.1256 0.5504
O9_7 O 0.5323(17) 0.1089(15) 0.5508(14)
In3_8 In 0.25935(3) 0.36316(3) 0.45547(3)
O10_12 O 0.2165(4) 0.3997(4) 0.4612(4)
O11_12 O 0.2069(4) 0.4011(4) 0.5195(4)
O14_8 O 0.2794(3) 0.4661(3) 0.2976(3)
O15_8 O 0.3323(4) 0.4435(4) 0.3054(4)
N3_12 N 0.2726(4) 0.3940(4) 0.4079(4)
C22_12 C 0.2038(5) 0.4122(5) 0.4888(6)
C23_12 C 0.1806(5) 0.4434(4) 0.4838(5)
C24_12 C 0.1769(6) 0.4596(6) 0.4513(5)
H14_12 H 0.1870 0.4492 0.4310
C25_12 C 0.1584(7) 0.4909(6) 0.4485(6)
H15_12 H 0.1558 0.5019 0.4263
C26_12 C 0.1436(6) 0.5060(5) 0.4782(8)
C27_12 C 0.1473(6) 0.4898(6) 0.5107(6)
H16_11 H 0.1372 0.5002 0.5310
C28_12 C 0.1658(6) 0.4586(6) 0.5135(4)
H17_12 H 0.1684 0.4475 0.5356
C29_12 C 0.1150(4) 0.5631(4) 0.4976(4)
C30_12 C 0.0920(7) 0.5887(6) 0.4845(7)
C31_12 C 0.0753(7) 0.5882(4) 0.4521(7)
H18_12 H 0.0764 0.5678 0.4378
C32_12 C 0.0569(6) 0.6175(5) 0.4406(5)
H19_12 H 0.0455 0.6171 0.4185
C33_12 C 0.0553(5) 0.6473(4) 0.4615(5)
C34_12 C 0.0720(6) 0.6478(6) 0.4939(5)
H20_11 H 0.0709 0.6682 0.5082
C35_11 C 0.0904(7) 0.6185(7) 0.5054(6)
H21_11 H 0.1019 0.6188 0.5275
C36_12 C 0.0344(6) 0.6767(6) 0.4498(6)
C37_12 C 0.3006(5) 0.4481(4) 0.3128(4)
C38_12 C 0.2898(5) 0.4305(4) 0.3463(5)
C39_12 C 0.2553(5) 0.4234(5) 0.3549(5)
H22_12 H 0.2371 0.4308 0.3396
C40_12 C 0.2472(6) 0.4060(5) 0.3850(5)
H23_12 H 0.2232 0.4019 0.3905
C41_12 C 0.3061(6) 0.4019(5) 0.4014(5)
H24_12 H 0.3235 0.3962 0.4184
C42_12 C 0.3162(5) 0.4184(5) 0.3699(5)
H25_12 H 0.3403 0.4214 0.3644
N4_12 N 0.1270(8) 0.5425(10) 0.4754(10)
H26_12 H 0.1256 0.5504 0.4538
O16_11 O 0.1089(15) 0.5508(14) 0.5323(17)
In8_8 In 0.36316(3) 0.45547(3) 0.25935(3)
O17_18 O 0.2500 0.3354(3) 0.5000
O18_8 O 0.4805(4) 0.2931(4) 0.4011(4)
O19_12 O 0.2931(4) 0.4011(4) 0.4805(4)
O20_16 O 0.4534(3) 0.2178(3) 0.2790(4)
O22_12 O 0.2297(5) 0.3299(4) 0.4229(4)
O23_8 O 0.4229(4) 0.2297(5) 0.3299(4)
O24_8 O 0.4661(3) 0.2976(3) 0.2794(3)
O25_16 O 0.5339(3) 0.2024(3) 0.2794(3)
O26_8 O 0.4435(4) 0.3054(4) 0.3323(4)
H15_13 H 0.0019 0.0737 0.8442
C26_13 C 0.0060(5) 0.0218(8) 0.8564(6)
C29_13 C 0.0631(4) 0.0024(4) 0.8850(4)
C30_13 C 0.0887(6) 0.0155(7) 0.9080(7)
C31_13 C 0.0882(4) 0.0479(7) 0.9247(7)
H18_13 H 0.0678 0.0622 0.9236
C32_13 C 0.1175(5) 0.0594(5) 0.9431(6)
H19_13 H 0.1171 0.0815 0.9545
C33_13 C 0.1473(4) 0.0385(5) 0.9447(5)
C34_13 C 0.1478(6) 0.0061(5) 0.9280(6)
C36_13 C 0.1767(6) 0.0502(6) 0.9656(6)
N4_13 N 0.0425(10) 0.0246(10) 0.8730(8)
H26_13 H 0.0504 0.0462 0.8744
O2_25 O 0.7500 0.2722(5) 0.5000
O10_13 O 0.8997(4) 0.0388(4) 0.7835(4)
N3_13 N 0.8940(4) 0.0921(4) 0.7274(4)
C22_13 C 0.9122(5) 0.0112(6) 0.7962(5)
C23_13 C 0.9434(4) 0.0162(5) 0.8194(5)
C24_13 C 0.9596(6) 0.0487(5) 0.8231(6)
H14_13 H 0.9492 0.0690 0.8130
C25_13 C 0.9909(6) 0.0515(6) 0.8416(7)
C37_13 C 0.9481(4) 0.1872(4) 0.6994(5)
C38_13 C 0.9305(4) 0.1537(5) 0.7102(5)
C39_13 C 0.9234(5) 0.1451(5) 0.7447(5)
H22_13 H 0.9308 0.1604 0.7629
C40_13 C 0.9060(5) 0.1150(5) 0.7528(6)
H23_13 H 0.9019 0.1095 0.7768
C41_13 C 0.9019(5) 0.0986(5) 0.6939(6)
H24_13 H 0.8962 0.0816 0.6765
C42_13 C 0.9184(5) 0.1301(5) 0.6838(5)
H25_13 H 0.9214 0.1356 0.6597
O17_19 O 0.8354(3) 0.0000 0.7500
O19_13 O 0.9011(4) 0.0195(4) 0.7069(4)
O20_17 O 0.7178(3) 0.2210(4) 0.5466(3)
O22_13 O 0.8299(4) 0.0771(4) 0.7703(5)
O25_17 O 0.7024(3) 0.2206(3) 0.4661(3)
O11_13 O 0.9011(4) 0.9805(4) 0.7931(4)
C27_13 C 0.9898(6) 0.9893(6) 0.8527(6)
C28_13 C 0.9586(6) 0.9865(4) 0.8342(6)
H17_13 H 0.9475 0.9644 0.8316
O17_20 O 0.8354(3) 1.0000 0.7500
O2_26 O 0.2500 0.7722(5) 0.0000
O25_18 O 0.2976(3) 0.7206(3) 0.0339(3)
H27_9 H 0.274474 0.780882 0.00198807
H28_9 H 0.236041 0.780882 0.0202014
O2_27 O 0.2500 0.7722(5) 1.0000
O10_14 O 0.1003(4) 0.5388(4) 0.7165(4)
O11_14 O 0.0989(4) 0.4805(4) 0.7069(4)
N3_14 N 0.1060(4) 0.5921(4) 0.7726(4)
C22_14 C 0.0878(5) 0.5112(6) 0.7038(5)
C23_14 C 0.0566(4) 0.5162(5) 0.6806(5)
C24_14 C 0.0404(6) 0.5487(5) 0.6769(6)
H14_14 H 0.0508 0.5690 0.6870
C25_14 C 0.0091(6) 0.5515(6) 0.6584(7)
C27_14 C 0.0102(6) 0.4893(6) 0.6473(6)
C28_14 C 0.0414(6) 0.4865(4) 0.6658(6)
H17_14 H 0.0525 0.4644 0.6684
C37_14 C 0.0519(4) 0.6872(4) 0.8006(5)
C38_14 C 0.0695(4) 0.6537(5) 0.7898(5)
C39_14 C 0.0766(5) 0.6451(5) 0.7553(5)
H22_14 H 0.0692 0.6604 0.7371
C40_14 C 0.0940(5) 0.6150(5) 0.7472(6)
H23_14 H 0.0981 0.6095 0.7232
C41_14 C 0.0981(5) 0.5986(5) 0.8061(6)
H24_14 H 0.1038 0.5816 0.8235
C42_14 C 0.0816(5) 0.6301(5) 0.8162(5)
H25_14 H 0.0786 0.6356 0.8403
O17_21 O 0.1646(3) 0.5000 0.7500
O19_14 O 0.0989(4) 0.5195(4) 0.7931(4)
O20_18 O 0.2822(3) 0.7210(4) 0.9534(3)
O22_14 O 0.1701(4) 0.5771(4) 0.7297(5)
H15_14 H 0.9981 0.5737 0.6558
C26_14 C 0.9940(5) 0.5218(8) 0.6436(6)
H16_12 H 0.9998 0.4690 0.6372
C29_14 C 0.9369(4) 0.5024(4) 0.6150(4)
C30_14 C 0.9113(6) 0.5155(7) 0.5920(7)
C31_14 C 0.9118(4) 0.5479(7) 0.5753(7)
H18_14 H 0.9322 0.5622 0.5764
C32_14 C 0.8825(5) 0.5594(5) 0.5569(6)
H19_14 H 0.8829 0.5815 0.5455
C33_14 C 0.8527(4) 0.5385(5) 0.5553(5)
C34_14 C 0.8522(6) 0.5061(5) 0.5720(6)
H20_12 H 0.8318 0.4918 0.5709
C35_12 C 0.8815(7) 0.4946(6) 0.5904(7)
H21_12 H 0.8812 0.4725 0.6019
C36_14 C 0.8233(6) 0.5502(6) 0.5344(6)
N4_14 N 0.9575(10) 0.5246(10) 0.6270(8)
H26_14 H 0.9496 0.5462 0.6256
O16_12 O 0.9492(14) 0.4677(17) 0.6089(15)
O11_15 O 0.5989(4) 0.0195(4) 0.2931(4)
C27_15 C 0.5102(6) 0.0107(6) 0.3527(6)
H16_13 H 0.4998 0.0310 0.3628
C28_15 C 0.5414(6) 0.0135(4) 0.3342(6)
H17_15 H 0.5525 0.0356 0.3316
H20_13 H 0.3318 0.0082 0.4291
C35_13 C 0.3815(7) 0.0054(6) 0.4096(7)
H21_13 H 0.3812 0.0275 0.3981
O16_13 O 0.4492(14) 0.0323(17) 0.3911(15)
O17_22 O 0.6646(3) -0.0000 0.2500
O2_28 O 0.7500 0.7278(5) 0.0000
O10_15 O 0.6003(4) 0.9612(4) 0.2835(4)
N3_15 N 0.6060(4) 0.9079(4) 0.2274(4)
C22_15 C 0.5878(5) 0.9888(6) 0.2962(5)
C23_15 C 0.5566(4) 0.9838(5) 0.3194(5)
C24_15 C 0.5404(6) 0.9513(5) 0.3231(6)
H14_15 H 0.5508 0.9310 0.3130
C25_15 C 0.5091(6) 0.9485(6) 0.3416(7)
H15_15 H 0.4981 0.9263 0.3442
C26_15 C 0.4940(5) 0.9782(8) 0.3564(6)
C29_15 C 0.4369(4) 0.9976(4) 0.3850(4)
C30_15 C 0.4113(6) 0.9845(7) 0.4080(7)
C31_15 C 0.4118(4) 0.9521(7) 0.4247(7)
H18_15 H 0.4322 0.9378 0.4236
C32_15 C 0.3825(5) 0.9406(5) 0.4431(6)
H19_15 H 0.3829 0.9185 0.4545
C33_15 C 0.3527(4) 0.9615(5) 0.4447(5)
C34_15 C 0.3522(6) 0.9939(5) 0.4280(6)
C36_15 C 0.3233(6) 0.9498(6) 0.4656(6)
C37_15 C 0.5519(4) 0.8128(4) 0.1994(5)
C38_15 C 0.5695(4) 0.8463(5) 0.2102(5)
C39_15 C 0.5766(5) 0.8549(5) 0.2447(5)
H22_15 H 0.5692 0.8396 0.2629
C40_15 C 0.5940(5) 0.8850(5) 0.2528(6)
H23_15 H 0.5981 0.8905 0.2768
C41_15 C 0.5981(5) 0.9014(5) 0.1939(6)
H24_15 H 0.6038 0.9184 0.1765
C42_15 C 0.5816(5) 0.8699(5) 0.1838(5)
H25_15 H 0.5786 0.8644 0.1597
N4_15 N 0.4575(10) 0.9754(10) 0.3730(8)
H26_15 H 0.4496 0.9538 0.3744
O17_23 O 0.6646(3) 1.0000 0.2500
O19_15 O 0.5989(4) 0.9805(4) 0.2069(4)
O20_19 O 0.7822(3) 0.7790(4) 0.0466(3)
O22_15 O 0.6701(4) 0.9229(4) 0.2703(5)
O2_29 O 0.7500 0.7278(5) 1.0000
O25_19 O 0.7976(3) 0.7794(3) 0.9661(3)
H27_10 H 0.774474 0.719118 0.998012
H28_10 H 0.736041 0.719118 0.979799
O2_30 O 0.2500 0.2278(5) 0.5000
O10_16 O 0.3997(4) 0.4612(4) 0.2165(4)
O11_16 O 0.4011(4) 0.5195(4) 0.2069(4)
N3_16 N 0.3940(4) 0.4079(4) 0.2726(4)
C22_16 C 0.4122(5) 0.4888(6) 0.2038(5)
C23_16 C 0.4434(4) 0.4838(5) 0.1806(5)
C24_16 C 0.4596(6) 0.4513(5) 0.1769(6)
H14_16 H 0.4492 0.4310 0.1870
C25_16 C 0.4909(6) 0.4485(6) 0.1584(7)
H15_16 H 0.5019 0.4263 0.1558
C26_16 C 0.5060(5) 0.4782(8) 0.1436(6)
C27_16 C 0.4898(6) 0.5107(6) 0.1473(6)
H16_14 H 0.5002 0.5310 0.1372
C28_16 C 0.4586(6) 0.5135(4) 0.1658(6)
H17_16 H 0.4475 0.5356 0.1684
C29_16 C 0.5631(4) 0.4976(4) 0.1150(4)
C30_16 C 0.5887(6) 0.4845(7) 0.0920(7)
C31_16 C 0.5882(4) 0.4521(7) 0.0753(7)
H18_16 H 0.5678 0.4378 0.0764
C32_16 C 0.6175(5) 0.4406(5) 0.0569(6)
H19_16 H 0.6171 0.4185 0.0455
C33_16 C 0.6473(4) 0.4615(5) 0.0553(5)
C34_16 C 0.6478(6) 0.4939(5) 0.0720(6)
H20_14 H 0.6682 0.5082 0.0709
C35_14 C 0.6185(7) 0.5054(6) 0.0904(7)
H21_14 H 0.6188 0.5275 0.1019
C36_16 C 0.6767(6) 0.4498(6) 0.0344(6)
C37_16 C 0.4481(4) 0.3128(4) 0.3006(5)
C38_16 C 0.4305(4) 0.3463(5) 0.2898(5)
C39_16 C 0.4234(5) 0.3549(5) 0.2553(5)
H22_16 H 0.4308 0.3396 0.2371
C40_16 C 0.4060(5) 0.3850(5) 0.2472(6)
H23_16 H 0.4019 0.3905 0.2232
C41_16 C 0.4019(5) 0.4014(5) 0.3061(6)
H24_16 H 0.3962 0.4184 0.3235
C42_16 C 0.4184(5) 0.3699(5) 0.3162(5)
H25_16 H 0.4214 0.3644 0.3403
N4_16 N 0.5425(10) 0.4754(10) 0.1270(8)
H26_16 H 0.5504 0.4538 0.1256
O16_14 O 0.5508(14) 0.5323(17) 0.1089(15)
O17_24 O 0.3354(3) 0.5000 0.2500
O19_16 O 0.4011(4) 0.4805(4) 0.2931(4)
O20_20 O 0.2178(3) 0.2790(4) 0.4534(3)
O22_16 O 0.3299(4) 0.4229(4) 0.2297(5)
O25_20 O 0.2024(3) 0.2794(3) 0.5339(3)
O2_31 O 0.2722(5) 0.5000 0.7500
O20_21 O 0.2210(4) 0.5466(3) 0.7178(3)
O25_21 O 0.2206(3) 0.4661(3) 0.7024(3)
O2_32 O 0.7722(5) -0.0000 0.2500
O25_22 O 0.7206(3) 0.0339(3) 0.2976(3)
H27_11 H 0.780882 0.00198807 0.274474
H28_11 H 0.780882 0.0202014 0.236041
O2_33 O 0.7722(5) 1.0000 0.2500
O20_22 O 0.7210(4) 0.9534(3) 0.2822(3)
O2_34 O 0.7278(5) -0.0000 0.7500
O20_23 O 0.7790(4) 0.0466(3) 0.7822(3)
O2_35 O 0.7278(5) 1.0000 0.7500
O25_23 O 0.7794(3) 0.9661(3) 0.7976(3)
H27_12 H 0.719118 0.998012 0.774474
H28_12 H 0.719118 0.979799 0.736041
O2_36 O 0.2278(5) 0.5000 0.2500
O20_24 O 0.2790(4) 0.4534(3) 0.2178(3)
O25_24 O 0.2794(3) 0.5339(3) 0.2024(3)
O10_17 O 0.1497(4) 0.0335(4) 0.2888(4)
C22_17 C 0.1622(5) 0.0462(5) 0.2612(6)
C23_17 C 0.1934(4) 0.0694(5) 0.2662(5)
C24_17 C 0.2096(6) 0.0731(6) 0.2987(5)
H14_17 H 0.1992 0.0630 0.3190
C25_17 C 0.2409(6) 0.0916(7) 0.3015(6)
H15_17 H 0.2519 0.0942 0.3237
C26_17 C 0.2560(5) 0.1064(6) 0.2718(8)
C27_17 C 0.2398(6) 0.1027(6) 0.2393(6)
H16_15 H 0.2502 0.1128 0.2190
C28_17 C 0.2086(6) 0.0842(6) 0.2365(4)
H17_17 H 0.1975 0.0816 0.2144
C29_17 C 0.3131(4) 0.1350(4) 0.2524(4)
C30_17 C 0.3387(6) 0.1580(7) 0.2655(7)
C31_17 C 0.3382(4) 0.1747(7) 0.2979(7)
H18_17 H 0.3178 0.1736 0.3122
C32_17 C 0.3675(5) 0.1931(6) 0.3094(5)
H19_17 H 0.3671 0.2045 0.3315
C33_17 C 0.3973(4) 0.1947(5) 0.2885(5)
C34_17 C 0.3978(6) 0.1780(6) 0.2561(5)
H20_15 H 0.4182 0.1791 0.2418
C35_15 C 0.3685(7) 0.1596(7) 0.2446(6)
H21_15 H 0.3688 0.1481 0.2225
C36_17 C 0.4267(6) 0.2156(6) 0.3002(6)
H22_17 H 0.1808 0.0129 0.4104
C40_17 C 0.1560(5) 0.0028(6) 0.3650(5)
H23_17 H 0.1519 0.0268 0.3595
N4_17 N 0.2925(10) 0.1230(8) 0.2746(10)
H26_17 H 0.3004 0.1244 0.2962
O16_15 O 0.3008(14) 0.1411(15) 0.2177(17)
O22_17 O 0.0799(4) 0.0203(5) 0.3271(4)
O8_9 O 0.0823(4) 0.9446(4) 0.3065(4)
N1_9 N 0.0226(4) 0.8421(4) 0.3560(4)
C16_9 C 0.0506(5) 0.9372(4) 0.3019(4)
C17_9 C 0.0398(5) 0.9037(5) 0.3195(4)
C18_9 C 0.0053(5) 0.8951(5) 0.3266(5)
C20_9 C 0.0561(6) 0.8486(5) 0.3481(5)
H11_9 H 0.0735 0.8316 0.3538
C21_9 C 0.0662(5) 0.8801(5) 0.3316(5)
H12_9 H 0.0903 0.8856 0.3286
O15_9 O 0.1935(4) 0.9177(4) 0.4446(4)
N3_17 N 0.1440(4) 0.9774(4) 0.3421(4)
C37_17 C 0.1981(4) 0.9494(5) 0.4372(4)
C38_17 C 0.1805(4) 0.9602(5) 0.4037(5)
C39_17 C 0.1734(5) 0.9947(5) 0.3951(5)
C41_17 C 0.1519(5) 0.9439(6) 0.3486(5)
H24_17 H 0.1462 0.9265 0.3316
C42_17 C 0.1684(5) 0.9338(5) 0.3801(5)
H25_17 H 0.1714 0.9097 0.3856
O26_9 O 0.0554(4) 0.8065(4) 0.4177(4)
H28_13 H 0.0139589 0.729799 0.530882
O3_9 O 0.9665(4) 0.7888(4) 0.3503(4)
C1_9 C 0.9538(5) 0.7612(6) 0.3378(5)
C2_9 C 0.9306(5) 0.7662(5) 0.3066(4)
C3_9 C 0.9269(6) 0.7987(5) 0.2904(6)
H1_9 H 0.9370 0.8190 0.3008
C4_9 C 0.9084(7) 0.8015(6) 0.2591(6)
H2_9 H 0.9058 0.8237 0.2481
C5_9 C 0.8936(6) 0.7718(8) 0.2440(5)
C6_9 C 0.8973(6) 0.7393(6) 0.2602(6)
H3_8 H 0.8872 0.7190 0.2498
C7_9 C 0.9158(6) 0.7365(4) 0.2914(6)
H4_9 H 0.9184 0.7144 0.3025
C8_9 C 0.8650(4) 0.7524(4) 0.1869(4)
C9_9 C 0.8420(7) 0.7655(7) 0.1613(6)
C10_9 C 0.8253(7) 0.7979(7) 0.1618(4)
H5_9 H 0.8264 0.8122 0.1822
C11_9 C 0.8069(6) 0.8094(5) 0.1325(5)
H6_9 H 0.7955 0.8315 0.1329
C12_9 C 0.8053(5) 0.7885(5) 0.1027(4)
C13_9 C 0.8220(6) 0.7561(5) 0.1022(6)
H7_8 H 0.8209 0.7418 0.0818
C14_8 C 0.8404(7) 0.7446(6) 0.1315(7)
H8_8 H 0.8519 0.7225 0.1312
C15_9 C 0.7844(6) 0.8002(6) 0.0733(6)
H9_9 H 0.9871 0.9104 0.3192
C19_9 C 0.9972(6) 0.8650(5) 0.3440(5)
H10_9 H 0.9732 0.8595 0.3481
N2_9 N 0.8770(8) 0.7746(10) 0.2075(10)
H13_9 H 0.8756 0.7962 0.1996
O9_8 O 0.8589(15) 0.7177(17) 0.1992(14)
O23_9 O 0.9797(5) 0.8271(4) 0.4201(4)
H27_13 H 0.975526 0.748012 0.530882
O3_10 O 0.5335(4) 0.2112(4) 0.8503(4)
O8_10 O 0.4177(4) 0.0554(4) 0.8065(4)
N1_10 N 0.4774(4) 0.1579(4) 0.8560(4)
C1_10 C 0.5462(5) 0.2388(6) 0.8378(5)
C2_10 C 0.5694(5) 0.2338(5) 0.8066(4)
C3_10 C 0.5731(6) 0.2013(5) 0.7904(6)
H1_10 H 0.5630 0.1810 0.8008
C4_10 C 0.5916(7) 0.1985(6) 0.7591(6)
H2_10 H 0.5942 0.1763 0.7481
C5_10 C 0.6064(6) 0.2282(8) 0.7440(5)
C6_10 C 0.6027(6) 0.2607(6) 0.7602(6)
H3_9 H 0.6128 0.2810 0.7498
C7_10 C 0.5842(6) 0.2635(4) 0.7914(6)
H4_10 H 0.5816 0.2856 0.8025
C8_10 C 0.6350(4) 0.2476(4) 0.6869(4)
C9_10 C 0.6580(7) 0.2345(7) 0.6613(6)
C10_10 C 0.6747(7) 0.2021(7) 0.6618(4)
H5_10 H 0.6736 0.1878 0.6822
C11_10 C 0.6931(6) 0.1906(5) 0.6325(5)
H6_10 H 0.7045 0.1685 0.6329
C12_10 C 0.6947(5) 0.2115(5) 0.6027(4)
C13_10 C 0.6780(6) 0.2439(5) 0.6022(6)
H7_9 H 0.6791 0.2582 0.5818
C14_9 C 0.6596(7) 0.2554(6) 0.6315(7)
H8_9 H 0.6481 0.2775 0.6312
C15_10 C 0.7156(6) 0.1998(6) 0.5733(6)
C16_10 C 0.4494(5) 0.0628(4) 0.8019(4)
C17_10 C 0.4602(5) 0.0963(5) 0.8195(4)
C18_10 C 0.4947(5) 0.1049(5) 0.8266(5)
H9_10 H 0.5129 0.0896 0.8192
C19_10 C 0.5028(6) 0.1350(5) 0.8440(5)
H10_10 H 0.5268 0.1405 0.8481
C20_10 C 0.4439(6) 0.1514(5) 0.8481(5)
H11_10 H 0.4265 0.1684 0.8538
C21_10 C 0.4338(5) 0.1199(5) 0.8316(5)
H12_10 H 0.4097 0.1144 0.8286
N2_10 N 0.6230(8) 0.2254(10) 0.7075(10)
H13_10 H 0.6244 0.2038 0.6996
O9_9 O 0.6411(15) 0.2823(17) 0.6992(14)
O15_10 O 0.3065(4) 0.0823(4) 0.9446(4)
N3_18 N 0.3560(4) 0.0226(4) 0.8421(4)
C37_18 C 0.3019(4) 0.0506(5) 0.9372(4)
C38_18 C 0.3195(4) 0.0398(5) 0.9037(5)
C39_18 C 0.3266(5) 0.0053(5) 0.8951(5)
C41_18 C 0.3481(5) 0.0561(6) 0.8486(5)
H24_18 H 0.3538 0.0735 0.8316
C42_18 C 0.3316(5) 0.0662(5) 0.8801(5)
H25_18 H 0.3286 0.0903 0.8856
O23_10 O 0.5203(5) 0.1729(4) 0.9201(4)
O26_10 O 0.4446(4) 0.1935(4) 0.9177(4)
O10_18 O 0.3503(4) 0.9665(4) 0.7888(4)
C22_18 C 0.3378(5) 0.9538(5) 0.7612(6)
C23_18 C 0.3066(4) 0.9306(5) 0.7662(5)
C24_18 C 0.2904(6) 0.9269(6) 0.7987(5)
H14_18 H 0.3008 0.9370 0.8190
C25_18 C 0.2591(6) 0.9084(7) 0.8015(6)
H15_18 H 0.2481 0.9058 0.8237
C26_18 C 0.2440(5) 0.8936(6) 0.7718(8)
C27_18 C 0.2602(6) 0.8973(6) 0.7393(6)
H16_16 H 0.2498 0.8872 0.7190
C28_18 C 0.2914(6) 0.9158(6) 0.7365(4)
H17_18 H 0.3025 0.9184 0.7144
C29_18 C 0.1869(4) 0.8650(4) 0.7524(4)
C30_18 C 0.1613(6) 0.8420(7) 0.7655(7)
C31_18 C 0.1618(4) 0.8253(7) 0.7979(7)
H18_18 H 0.1822 0.8264 0.8122
C32_18 C 0.1325(5) 0.8069(6) 0.8094(5)
H19_18 H 0.1329 0.7955 0.8315
C33_18 C 0.1027(4) 0.8053(5) 0.7885(5)
C34_18 C 0.1022(6) 0.8220(6) 0.7561(5)
H20_16 H 0.0818 0.8209 0.7418
C35_16 C 0.1315(7) 0.8404(7) 0.7446(6)
H21_16 H 0.1312 0.8519 0.7225
C36_18 C 0.0733(6) 0.7844(6) 0.8002(6)
H22_18 H 0.3192 0.9871 0.9104
C40_18 C 0.3440(5) 0.9972(6) 0.8650(5)
H23_18 H 0.3481 0.9732 0.8595
N4_18 N 0.2075(10) 0.8770(8) 0.7746(10)
H26_18 H 0.1996 0.8756 0.7962
O16_16 O 0.1992(14) 0.8589(15) 0.7177(17)
O22_18 O 0.4201(4) 0.9797(5) 0.8271(4)
O3_11 O 0.0335(4) 0.2888(4) 0.1497(4)
C1_11 C 0.0462(5) 0.2612(6) 0.1622(5)
C2_11 C 0.0694(5) 0.2662(5) 0.1934(4)
C3_11 C 0.0731(6) 0.2987(5) 0.2096(6)
H1_11 H 0.0630 0.3190 0.1992
C4_11 C 0.0916(7) 0.3015(6) 0.2409(6)
H2_11 H 0.0942 0.3237 0.2519
C5_11 C 0.1064(6) 0.2718(8) 0.2560(5)
C6_11 C 0.1027(6) 0.2393(6) 0.2398(6)
H3_10 H 0.1128 0.2190 0.2502
C7_11 C 0.0842(6) 0.2365(4) 0.2086(6)
H4_11 H 0.0816 0.2144 0.1975
C8_11 C 0.1350(4) 0.2524(4) 0.3131(4)
C9_11 C 0.1580(7) 0.2655(7) 0.3387(6)
C10_11 C 0.1747(7) 0.2979(7) 0.3382(4)
H5_11 H 0.1736 0.3122 0.3178
C11_11 C 0.1931(6) 0.3094(5) 0.3675(5)
H6_11 H 0.2045 0.3315 0.3671
C12_11 C 0.1947(5) 0.2885(5) 0.3973(4)
C13_11 C 0.1780(6) 0.2561(5) 0.3978(6)
H7_10 H 0.1791 0.2418 0.4182
C14_10 C 0.1596(7) 0.2446(6) 0.3685(7)
H8_10 H 0.1481 0.2225 0.3688
C15_11 C 0.2156(6) 0.3002(6) 0.4267(6)
H9_11 H 0.0129 0.4104 0.1808
C19_11 C 0.0028(6) 0.3650(5) 0.1560(5)
H10_11 H 0.0268 0.3595 0.1519
N2_11 N 0.1230(8) 0.2746(10) 0.2925(10)
H13_11 H 0.1244 0.2962 0.3004
O9_10 O 0.1411(15) 0.2177(17) 0.3008(14)
O23_11 O 0.0203(5) 0.3271(4) 0.0799(4)
H27_14 H 0.0244744 0.248012 0.969118
O8_11 O 0.9177(4) 0.4446(4) 0.1935(4)
N1_11 N 0.9774(4) 0.3421(4) 0.1440(4)
C16_11 C 0.9494(5) 0.4372(4) 0.1981(4)
C17_11 C 0.9602(5) 0.4037(5) 0.1805(4)
C18_11 C 0.9947(5) 0.3951(5) 0.1734(5)
C20_11 C 0.9439(6) 0.3486(5) 0.1519(5)
H11_11 H 0.9265 0.3316 0.1462
C21_11 C 0.9338(5) 0.3801(5) 0.1684(5)
H12_11 H 0.9097 0.3856 0.1714
O10_19 O 0.8503(4) 0.5335(4) 0.2112(4)
O15_11 O 0.8065(4) 0.4177(4) 0.0554(4)
N3_19 N 0.8560(4) 0.4774(4) 0.1579(4)
C22_19 C 0.8378(5) 0.5462(5) 0.2388(6)
C23_19 C 0.8066(4) 0.5694(5) 0.2338(5)
C24_19 C 0.7904(6) 0.5731(6) 0.2013(5)
H14_19 H 0.8008 0.5630 0.1810
C25_19 C 0.7591(6) 0.5916(7) 0.1985(6)
H15_19 H 0.7481 0.5942 0.1763
C26_19 C 0.7440(5) 0.6064(6) 0.2282(8)
C27_19 C 0.7602(6) 0.6027(6) 0.2607(6)
H16_17 H 0.7498 0.6128 0.2810
C28_19 C 0.7914(6) 0.5842(6) 0.2635(4)
H17_19 H 0.8025 0.5816 0.2856
C29_19 C 0.6869(4) 0.6350(4) 0.2476(4)
C30_19 C 0.6613(6) 0.6580(7) 0.2345(7)
C31_19 C 0.6618(4) 0.6747(7) 0.2021(7)
H18_19 H 0.6822 0.6736 0.1878
C32_19 C 0.6325(5) 0.6931(6) 0.1906(5)
H19_19 H 0.6329 0.7045 0.1685
C33_19 C 0.6027(4) 0.6947(5) 0.2115(5)
C34_19 C 0.6022(6) 0.6780(6) 0.2439(5)
H20_17 H 0.5818 0.6791 0.2582
C35_17 C 0.6315(7) 0.6596(7) 0.2554(6)
H21_17 H 0.6312 0.6481 0.2775
C36_19 C 0.5733(6) 0.7156(6) 0.1998(6)
C37_19 C 0.8019(4) 0.4494(5) 0.0628(4)
C38_19 C 0.8195(4) 0.4602(5) 0.0963(5)
C39_19 C 0.8266(5) 0.4947(5) 0.1049(5)
H22_19 H 0.8192 0.5129 0.0896
C40_19 C 0.8440(5) 0.5028(6) 0.1350(5)
H23_19 H 0.8481 0.5268 0.1405
C41_19 C 0.8481(5) 0.4439(6) 0.1514(5)
H24_19 H 0.8538 0.4265 0.1684
C42_19 C 0.8316(5) 0.4338(5) 0.1199(5)
H25_19 H 0.8286 0.4097 0.1144
N4_19 N 0.7075(10) 0.6230(8) 0.2254(10)
H26_19 H 0.6996 0.6244 0.2038
O16_17 O 0.6992(14) 0.6411(15) 0.2823(17)
O22_19 O 0.9201(4) 0.5203(5) 0.1729(4)
O26_11 O 0.9446(4) 0.3065(4) 0.0823(4)
H28_14 H 0.986041 0.229799 0.969118
O3_12 O 0.4665(4) 0.7112(4) 0.6497(4)
O8_12 O 0.5823(4) 0.5554(4) 0.6935(4)
N1_12 N 0.5226(4) 0.6579(4) 0.6440(4)
C1_12 C 0.4538(5) 0.7388(6) 0.6622(5)
C2_12 C 0.4306(5) 0.7338(5) 0.6934(4)
C3_12 C 0.4269(6) 0.7013(5) 0.7096(6)
H1_12 H 0.4370 0.6810 0.6992
C4_12 C 0.4084(7) 0.6985(6) 0.7409(6)
H2_12 H 0.4058 0.6763 0.7519
C5_12 C 0.3936(6) 0.7282(8) 0.7560(5)
C6_12 C 0.3973(6) 0.7607(6) 0.7398(6)
H3_11 H 0.3872 0.7810 0.7502
C7_12 C 0.4158(6) 0.7635(4) 0.7086(6)
H4_12 H 0.4184 0.7856 0.6975
C8_12 C 0.3650(4) 0.7476(4) 0.8131(4)
C9_12 C 0.3420(7) 0.7345(7) 0.8387(6)
C10_12 C 0.3253(7) 0.7021(7) 0.8382(4)
H5_12 H 0.3264 0.6878 0.8178
C11_12 C 0.3069(6) 0.6906(5) 0.8675(5)
H6_12 H 0.2955 0.6685 0.8671
C12_12 C 0.3053(5) 0.7115(5) 0.8973(4)
C13_12 C 0.3220(6) 0.7439(5) 0.8978(6)
H7_11 H 0.3209 0.7582 0.9182
C14_11 C 0.3404(7) 0.7554(6) 0.8685(7)
H8_11 H 0.3519 0.7775 0.8688
C15_12 C 0.2844(6) 0.6998(6) 0.9267(6)
C16_12 C 0.5506(5) 0.5628(4) 0.6981(4)
C17_12 C 0.5398(5) 0.5963(5) 0.6805(4)
C18_12 C 0.5053(5) 0.6049(5) 0.6734(5)
H9_12 H 0.4871 0.5896 0.6808
C19_12 C 0.4972(6) 0.6350(5) 0.6560(5)
H10_12 H 0.4732 0.6405 0.6519
C20_12 C 0.5561(6) 0.6514(5) 0.6519(5)
H11_12 H 0.5735 0.6684 0.6462
C21_12 C 0.5662(5) 0.6199(5) 0.6684(5)
H12_12 H 0.5903 0.6144 0.6714
N2_12 N 0.3770(8) 0.7254(10) 0.7925(10)
H13_12 H 0.3756 0.7038 0.8004
O9_11 O 0.3589(15) 0.7823(17) 0.8008(14)
O10_20 O 0.6497(4) 0.4665(4) 0.7112(4)
O15_12 O 0.6935(4) 0.5823(4) 0.5554(4)
N3_20 N 0.6440(4) 0.5226(4) 0.6579(4)
C22_20 C 0.6622(5) 0.4538(5) 0.7388(6)
C23_20 C 0.6934(4) 0.4306(5) 0.7338(5)
C24_20 C 0.7096(6) 0.4269(6) 0.7013(5)
H14_20 H 0.6992 0.4370 0.6810
C25_20 C 0.7409(6) 0.4084(7) 0.6985(6)
H15_20 H 0.7519 0.4058 0.6763
C26_20 C 0.7560(5) 0.3936(6) 0.7282(8)
C27_20 C 0.7398(6) 0.3973(6) 0.7607(6)
H16_18 H 0.7502 0.3872 0.7810
C28_20 C 0.7086(6) 0.4158(6) 0.7635(4)
H17_20 H 0.6975 0.4184 0.7856
C29_20 C 0.8131(4) 0.3650(4) 0.7476(4)
C30_20 C 0.8387(6) 0.3420(7) 0.7345(7)
C31_20 C 0.8382(4) 0.3253(7) 0.7021(7)
H18_20 H 0.8178 0.3264 0.6878
C32_20 C 0.8675(5) 0.3069(6) 0.6906(5)
H19_20 H 0.8671 0.2955 0.6685
C33_20 C 0.8973(4) 0.3053(5) 0.7115(5)
C34_20 C 0.8978(6) 0.3220(6) 0.7439(5)
H20_18 H 0.9182 0.3209 0.7582
C35_18 C 0.8685(7) 0.3404(7) 0.7554(6)
H21_18 H 0.8688 0.3519 0.7775
C36_20 C 0.9267(6) 0.2844(6) 0.6998(6)
C37_20 C 0.6981(4) 0.5506(5) 0.5628(4)
C38_20 C 0.6805(4) 0.5398(5) 0.5963(5)
C39_20 C 0.6734(5) 0.5053(5) 0.6049(5)
H22_20 H 0.6808 0.4871 0.5896
C40_20 C 0.6560(5) 0.4972(6) 0.6350(5)
H23_20 H 0.6519 0.4732 0.6405
C41_20 C 0.6519(5) 0.5561(6) 0.6514(5)
H24_20 H 0.6462 0.5735 0.6684
C42_20 C 0.6684(5) 0.5662(5) 0.6199(5)
H25_20 H 0.6714 0.5903 0.6144
N4_20 N 0.7925(10) 0.3770(8) 0.7254(10)
H26_20 H 0.8004 0.3756 0.7038
O16_18 O 0.8008(14) 0.3589(15) 0.7823(17)
O22_20 O 0.5799(4) 0.4797(5) 0.6729(4)
O23_12 O 0.4797(5) 0.6729(4) 0.5799(4)
O26_12 O 0.5554(4) 0.6935(4) 0.5823(4)
O10_21 O 0.2888(4) 0.1497(4) 0.0335(4)
C22_21 C 0.2612(6) 0.1622(5) 0.0462(5)
C23_21 C 0.2662(5) 0.1934(4) 0.0694(5)
C24_21 C 0.2987(5) 0.2096(6) 0.0731(6)
H14_21 H 0.3190 0.1992 0.0630
C25_21 C 0.3015(6) 0.2409(6) 0.0916(7)
H15_21 H 0.3237 0.2519 0.0942
C26_21 C 0.2718(8) 0.2560(5) 0.1064(6)
C27_21 C 0.2393(6) 0.2398(6) 0.1027(6)
H16_19 H 0.2190 0.2502 0.1128
C28_21 C 0.2365(4) 0.2086(6) 0.0842(6)
H17_21 H 0.2144 0.1975 0.0816
C29_21 C 0.2524(4) 0.3131(4) 0.1350(4)
C30_21 C 0.2655(7) 0.3387(6) 0.1580(7)
C31_21 C 0.2979(7) 0.3382(4) 0.1747(7)
H18_21 H 0.3122 0.3178 0.1736
C32_21 C 0.3094(5) 0.3675(5) 0.1931(6)
H19_21 H 0.3315 0.3671 0.2045
C33_21 C 0.2885(5) 0.3973(4) 0.1947(5)
C34_21 C 0.2561(5) 0.3978(6) 0.1780(6)
H20_19 H 0.2418 0.4182 0.1791
C35_19 C 0.2446(6) 0.3685(7) 0.1596(7)
H21_19 H 0.2225 0.3688 0.1481
C36_21 C 0.3002(6) 0.4267(6) 0.2156(6)
H22_21 H 0.4104 0.1808 0.0129
C40_21 C 0.3650(5) 0.1560(5) 0.0028(6)
H23_21 H 0.3595 0.1519 0.0268
N4_21 N 0.2746(10) 0.2925(10) 0.1230(8)
H26_21 H 0.2962 0.3004 0.1244
O16_19 O 0.2177(17) 0.3008(14) 0.1411(15)
O22_21 O 0.3271(4) 0.0799(4) 0.0203(5)
N3_21 N 0.3421(4) 0.1440(4) 0.9774(4)
C37_21 C 0.4372(4) 0.1981(4) 0.9494(5)
C38_21 C 0.4037(5) 0.1805(4) 0.9602(5)
C39_21 C 0.3951(5) 0.1734(5) 0.9947(5)
C41_21 C 0.3486(5) 0.1519(5) 0.9439(6)
H24_21 H 0.3316 0.1462 0.9265
C42_21 C 0.3801(5) 0.1684(5) 0.9338(5)
H25_21 H 0.3856 0.1714 0.9097
H28_15 H 0.530882 0.0139589 0.729799
H27_15 H 0.530882 0.975526 0.748012
N3_22 N 0.8421(4) 0.3560(4) 0.0226(4)
C37_22 C 0.9372(4) 0.3019(4) 0.0506(5)
C38_22 C 0.9037(5) 0.3195(4) 0.0398(5)
C39_22 C 0.8951(5) 0.3266(5) 0.0053(5)
C41_22 C 0.8486(5) 0.3481(5) 0.0561(6)
H24_22 H 0.8316 0.3538 0.0735
C42_22 C 0.8801(5) 0.3316(5) 0.0662(5)
H25_22 H 0.8856 0.3286 0.0903
O10_22 O 0.7888(4) 0.3503(4) 0.9665(4)
C22_22 C 0.7612(6) 0.3378(5) 0.9538(5)
C23_22 C 0.7662(5) 0.3066(4) 0.9306(5)
C24_22 C 0.7987(5) 0.2904(6) 0.9269(6)
H14_22 H 0.8190 0.3008 0.9370
C25_22 C 0.8015(6) 0.2591(6) 0.9084(7)
H15_22 H 0.8237 0.2481 0.9058
C26_22 C 0.7718(8) 0.2440(5) 0.8936(6)
C27_22 C 0.7393(6) 0.2602(6) 0.8973(6)
H16_20 H 0.7190 0.2498 0.8872
C28_22 C 0.7365(4) 0.2914(6) 0.9158(6)
H17_22 H 0.7144 0.3025 0.9184
C29_22 C 0.7524(4) 0.1869(4) 0.8650(4)
C30_22 C 0.7655(7) 0.1613(6) 0.8420(7)
C31_22 C 0.7979(7) 0.1618(4) 0.8253(7)
H18_22 H 0.8122 0.1822 0.8264
C32_22 C 0.8094(5) 0.1325(5) 0.8069(6)
H19_22 H 0.8315 0.1329 0.7955
C33_22 C 0.7885(5) 0.1027(4) 0.8053(5)
C34_22 C 0.7561(5) 0.1022(6) 0.8220(6)
H20_20 H 0.7418 0.0818 0.8209
C35_20 C 0.7446(6) 0.1315(7) 0.8404(7)
H21_20 H 0.7225 0.1312 0.8519
C36_22 C 0.8002(6) 0.0733(6) 0.7844(6)
H22_22 H 0.9104 0.3192 0.9871
C40_22 C 0.8650(5) 0.3440(5) 0.9972(6)
H23_22 H 0.8595 0.3481 0.9732
N4_22 N 0.7746(10) 0.2075(10) 0.8770(8)
H26_22 H 0.7962 0.1996 0.8756
O16_20 O 0.7177(17) 0.1992(14) 0.8589(15)
O22_22 O 0.8271(4) 0.4201(4) 0.9797(5)
O10_23 O 0.2112(4) 0.8503(4) 0.5335(4)
N3_23 N 0.1579(4) 0.8560(4) 0.4774(4)
C22_23 C 0.2388(6) 0.8378(5) 0.5462(5)
C23_23 C 0.2338(5) 0.8066(4) 0.5694(5)
C24_23 C 0.2013(5) 0.7904(6) 0.5731(6)
H14_23 H 0.1810 0.8008 0.5630
C25_23 C 0.1985(6) 0.7591(6) 0.5916(7)
H15_23 H 0.1763 0.7481 0.5942
C26_23 C 0.2282(8) 0.7440(5) 0.6064(6)
C27_23 C 0.2607(6) 0.7602(6) 0.6027(6)
H16_21 H 0.2810 0.7498 0.6128
C28_23 C 0.2635(4) 0.7914(6) 0.5842(6)
H17_23 H 0.2856 0.8025 0.5816
C29_23 C 0.2476(4) 0.6869(4) 0.6350(4)
C30_23 C 0.2345(7) 0.6613(6) 0.6580(7)
C31_23 C 0.2021(7) 0.6618(4) 0.6747(7)
H18_23 H 0.1878 0.6822 0.6736
C32_23 C 0.1906(5) 0.6325(5) 0.6931(6)
H19_23 H 0.1685 0.6329 0.7045
C33_23 C 0.2115(5) 0.6027(4) 0.6947(5)
C34_23 C 0.2439(5) 0.6022(6) 0.6780(6)
H20_21 H 0.2582 0.5818 0.6791
C35_21 C 0.2554(6) 0.6315(7) 0.6596(7)
H21_21 H 0.2775 0.6312 0.6481
C36_23 C 0.1998(6) 0.5733(6) 0.7156(6)
C37_23 C 0.0628(4) 0.8019(4) 0.4494(5)
C38_23 C 0.0963(5) 0.8195(4) 0.4602(5)
C39_23 C 0.1049(5) 0.8266(5) 0.4947(5)
H22_23 H 0.0896 0.8192 0.5129
C40_23 C 0.1350(5) 0.8440(5) 0.5028(6)
H23_23 H 0.1405 0.8481 0.5268
C41_23 C 0.1514(5) 0.8481(5) 0.4439(6)
H24_23 H 0.1684 0.8538 0.4265
C42_23 C 0.1199(5) 0.8316(5) 0.4338(5)
H25_23 H 0.1144 0.8286 0.4097
N4_23 N 0.2254(10) 0.7075(10) 0.6230(8)
H26_23 H 0.2038 0.6996 0.6244
O16_21 O 0.2823(17) 0.6992(14) 0.6411(15)
O22_23 O 0.1729(4) 0.9201(4) 0.5203(5)
H27_16 H 0.969118 0.0244744 0.248012
H28_16 H 0.969118 0.986041 0.229799
O10_24 O 0.7112(4) 0.6497(4) 0.4665(4)
N3_24 N 0.6579(4) 0.6440(4) 0.5226(4)
C22_24 C 0.7388(6) 0.6622(5) 0.4538(5)
C23_24 C 0.7338(5) 0.6934(4) 0.4306(5)
C24_24 C 0.7013(5) 0.7096(6) 0.4269(6)
H14_24 H 0.6810 0.6992 0.4370
C25_24 C 0.6985(6) 0.7409(6) 0.4084(7)
H15_24 H 0.6763 0.7519 0.4058
C26_24 C 0.7282(8) 0.7560(5) 0.3936(6)
C27_24 C 0.7607(6) 0.7398(6) 0.3973(6)
H16_22 H 0.7810 0.7502 0.3872
C28_24 C 0.7635(4) 0.7086(6) 0.4158(6)
H17_24 H 0.7856 0.6975 0.4184
C29_24 C 0.7476(4) 0.8131(4) 0.3650(4)
C30_24 C 0.7345(7) 0.8387(6) 0.3420(7)
C31_24 C 0.7021(7) 0.8382(4) 0.3253(7)
H18_24 H 0.6878 0.8178 0.3264
C32_24 C 0.6906(5) 0.8675(5) 0.3069(6)
H19_24 H 0.6685 0.8671 0.2955
C33_24 C 0.7115(5) 0.8973(4) 0.3053(5)
C34_24 C 0.7439(5) 0.8978(6) 0.3220(6)
H20_22 H 0.7582 0.9182 0.3209
C35_22 C 0.7554(6) 0.8685(7) 0.3404(7)
H21_22 H 0.7775 0.8688 0.3519
C36_24 C 0.6998(6) 0.9267(6) 0.2844(6)
C37_24 C 0.5628(4) 0.6981(4) 0.5506(5)
C38_24 C 0.5963(5) 0.6805(4) 0.5398(5)
C39_24 C 0.6049(5) 0.6734(5) 0.5053(5)
H22_24 H 0.5896 0.6808 0.4871
C40_24 C 0.6350(5) 0.6560(5) 0.4972(6)
H23_24 H 0.6405 0.6519 0.4732
C41_24 C 0.6514(5) 0.6519(5) 0.5561(6)
H24_24 H 0.6684 0.6462 0.5735
C42_24 C 0.6199(5) 0.6684(5) 0.5662(5)
H25_24 H 0.6144 0.6714 0.5903
N4_24 N 0.7254(10) 0.7925(10) 0.3770(8)
H26_24 H 0.7038 0.8004 0.3756
O16_22 O 0.7823(17) 0.8008(14) 0.3589(15)
O22_24 O 0.6729(4) 0.5799(4) 0.4797(5)
H28_17 H 0.729799 0.530882 0.0139589
H27_17 H 0.748012 0.530882 0.975526
H27_18 H 0.248012 0.969118 0.0244744
H28_18 H 0.229799 0.969118 0.986041
O3_13 O 0.0388(4) 0.2165(4) 0.6003(4)
O8_13 O 0.1946(4) 0.3323(4) 0.5565(4)
N1_13 N 0.0921(4) 0.2726(4) 0.6060(4)
C1_13 C 0.0112(6) 0.2038(5) 0.5878(5)
C2_13 C 0.0162(5) 0.1806(5) 0.5566(4)
C3_13 C 0.0487(5) 0.1769(6) 0.5404(6)
H1_13 H 0.0690 0.1870 0.5508
C4_13 C 0.0515(6) 0.1584(7) 0.5091(6)
H2_13 H 0.0737 0.1558 0.4981
C5_13 C 0.0218(8) 0.1436(6) 0.4940(5)
C8_13 C 0.0024(4) 0.1150(4) 0.4369(4)
C9_13 C 0.0155(7) 0.0920(7) 0.4113(6)
C10_13 C 0.0479(7) 0.0753(7) 0.4118(4)
H5_13 H 0.0622 0.0764 0.4322
C11_13 C 0.0594(5) 0.0569(6) 0.3825(5)
H6_13 H 0.0815 0.0455 0.3829
C12_13 C 0.0385(5) 0.0553(5) 0.3527(4)
C13_13 C 0.0061(5) 0.0720(6) 0.3522(6)
C15_13 C 0.0502(6) 0.0344(6) 0.3233(6)
C16_13 C 0.1872(4) 0.3006(5) 0.5519(4)
C17_13 C 0.1537(5) 0.2898(5) 0.5695(4)
C18_13 C 0.1451(5) 0.2553(5) 0.5766(5)
H9_13 H 0.1604 0.2371 0.5692
C19_13 C 0.1150(5) 0.2472(6) 0.5940(5)
H10_13 H 0.1095 0.2232 0.5981
C20_13 C 0.0986(5) 0.3061(6) 0.5981(5)
H11_13 H 0.0816 0.3235 0.6038
C21_13 C 0.1301(5) 0.3162(5) 0.5816(5)
H12_13 H 0.1356 0.3403 0.5786
N2_13 N 0.0246(10) 0.1270(8) 0.4575(10)
H13_13 H 0.0462 0.1256 0.4496
O10_25 O 0.2835(4) 0.3997(4) 0.5388(4)
O15_13 O 0.1677(4) 0.4435(4) 0.6946(4)
N3_25 N 0.2274(4) 0.3940(4) 0.5921(4)
C22_25 C 0.2962(5) 0.4122(5) 0.5112(6)
C23_25 C 0.3194(5) 0.4434(4) 0.5162(5)
C24_25 C 0.3231(6) 0.4596(6) 0.5487(5)
H14_25 H 0.3130 0.4492 0.5690
C25_25 C 0.3416(7) 0.4909(6) 0.5515(6)
H15_25 H 0.3442 0.5019 0.5737
C26_25 C 0.3564(6) 0.5060(5) 0.5218(8)
C27_25 C 0.3527(6) 0.4898(6) 0.4893(6)
H16_23 H 0.3628 0.5002 0.4690
C28_25 C 0.3342(6) 0.4586(6) 0.4865(4)
H17_25 H 0.3316 0.4475 0.4644
C29_25 C 0.3850(4) 0.5631(4) 0.5024(4)
C30_25 C 0.4080(7) 0.5887(6) 0.5155(7)
C31_25 C 0.4247(7) 0.5882(4) 0.5479(7)
H18_25 H 0.4236 0.5678 0.5622
C32_25 C 0.4431(6) 0.6175(5) 0.5594(5)
H19_25 H 0.4545 0.6171 0.5815
C33_25 C 0.4447(5) 0.6473(4) 0.5385(5)
C34_25 C 0.4280(6) 0.6478(6) 0.5061(5)
H20_23 H 0.4291 0.6682 0.4918
C35_23 C 0.4096(7) 0.6185(7) 0.4946(6)
H21_23 H 0.3981 0.6188 0.4725
C36_25 C 0.4656(6) 0.6767(6) 0.5502(6)
C37_25 C 0.1994(5) 0.4481(4) 0.6872(4)
C38_25 C 0.2102(5) 0.4305(4) 0.6537(5)
C39_25 C 0.2447(5) 0.4234(5) 0.6451(5)
H22_25 H 0.2629 0.4308 0.6604
C40_25 C 0.2528(6) 0.4060(5) 0.6150(5)
H23_25 H 0.2768 0.4019 0.6095
C41_25 C 0.1939(6) 0.4019(5) 0.5986(5)
H24_25 H 0.1765 0.3962 0.5816
C42_25 C 0.1838(5) 0.4184(5) 0.6301(5)
H25_25 H 0.1597 0.4214 0.6356
N4_25 N 0.3730(8) 0.5425(10) 0.5246(10)
H26_25 H 0.3744 0.5504 0.5462
O16_23 O 0.3911(15) 0.5508(14) 0.4677(17)
O26_13 O 0.0565(4) 0.3054(4) 0.6677(4)
C6_13 C 0.9893(6) 0.1473(6) 0.5102(6)
H3_12 H 0.9690 0.1372 0.4998
C7_13 C 0.9865(4) 0.1658(6) 0.5414(6)
H4_13 H 0.9644 0.1684 0.5525
H7_12 H 0.9918 0.0709 0.3318
C14_12 C 0.9946(6) 0.0904(7) 0.3815(7)
H8_12 H 0.9725 0.1019 0.3812
O9_12 O 0.9677(17) 0.1089(15) 0.4492(14)
H27_19 H 0.998012 0.225526 0.780882
H28_19 H 0.979799 0.263959 0.780882
O3_14 O 0.4612(4) 0.7835(4) 0.1003(4)
O8_14 O 0.3054(4) 0.6677(4) 0.0565(4)
N1_14 N 0.4079(4) 0.7274(4) 0.1060(4)
C1_14 C 0.4888(6) 0.7962(5) 0.0878(5)
C2_14 C 0.4838(5) 0.8194(5) 0.0566(4)
C3_14 C 0.4513(5) 0.8231(6) 0.0404(6)
H1_14 H 0.4310 0.8130 0.0508
C4_14 C 0.4485(6) 0.8416(7) 0.0091(6)
C6_14 C 0.5107(6) 0.8527(6) 0.0102(6)
C7_14 C 0.5135(4) 0.8342(6) 0.0414(6)
H4_14 H 0.5356 0.8316 0.0525
C16_14 C 0.3128(4) 0.6994(5) 0.0519(4)
C17_14 C 0.3463(5) 0.7102(5) 0.0695(4)
C18_14 C 0.3549(5) 0.7447(5) 0.0766(5)
H9_14 H 0.3396 0.7629 0.0692
C19_14 C 0.3850(5) 0.7528(6) 0.0940(5)
H10_14 H 0.3905 0.7768 0.0981
C20_14 C 0.4014(5) 0.6939(6) 0.0981(5)
H11_14 H 0.4184 0.6765 0.1038
C21_14 C 0.3699(5) 0.6838(5) 0.0816(5)
H12_14 H 0.3644 0.6597 0.0786
O10_26 O 0.2165(4) 0.6003(4) 0.0388(4)
O15_14 O 0.3323(4) 0.5565(4) 0.1946(4)
N3_26 N 0.2726(4) 0.6060(4) 0.0921(4)
C22_26 C 0.2038(5) 0.5878(5) 0.0112(6)
C23_26 C 0.1806(5) 0.5566(4) 0.0162(5)
C24_26 C 0.1769(6) 0.5404(6) 0.0487(5)
H14_26 H 0.1870 0.5508 0.0690
C25_26 C 0.1584(7) 0.5091(6) 0.0515(6)
H15_26 H 0.1558 0.4981 0.0737
C26_26 C 0.1436(6) 0.4940(5) 0.0218(8)
C29_26 C 0.1150(4) 0.4369(4) 0.0024(4)
C30_26 C 0.0920(7) 0.4113(6) 0.0155(7)
C31_26 C 0.0753(7) 0.4118(4) 0.0479(7)
H18_26 H 0.0764 0.4322 0.0622
C32_26 C 0.0569(6) 0.3825(5) 0.0594(5)
H19_26 H 0.0455 0.3829 0.0815
C33_26 C 0.0553(5) 0.3527(4) 0.0385(5)
C34_26 C 0.0720(6) 0.3522(6) 0.0061(5)
C36_26 C 0.0344(6) 0.3233(6) 0.0502(6)
C37_26 C 0.3006(5) 0.5519(4) 0.1872(4)
C38_26 C 0.2898(5) 0.5695(4) 0.1537(5)
C39_26 C 0.2553(5) 0.5766(5) 0.1451(5)
H22_26 H 0.2371 0.5692 0.1604
C40_26 C 0.2472(6) 0.5940(5) 0.1150(5)
H23_26 H 0.2232 0.5981 0.1095
C41_26 C 0.3061(6) 0.5981(5) 0.0986(5)
H24_26 H 0.3235 0.6038 0.0816
C42_26 C 0.3162(5) 0.5816(5) 0.1301(5)
H25_26 H 0.3403 0.5786 0.1356
N4_26 N 0.1270(8) 0.4575(10) 0.0246(10)
H26_26 H 0.1256 0.4496 0.0462
O26_14 O 0.4435(4) 0.6946(4) 0.1677(4)
H2_14 H 0.4263 0.8442 0.9981
C5_14 C 0.4782(8) 0.8564(6) 0.9940(5)
H3_13 H 0.5310 0.8628 0.9998
C8_14 C 0.4976(4) 0.8850(4) 0.9369(4)
C9_14 C 0.4845(7) 0.9080(7) 0.9113(6)
C10_14 C 0.4521(7) 0.9247(7) 0.9118(4)
H5_14 H 0.4378 0.9236 0.9322
C11_14 C 0.4406(5) 0.9431(6) 0.8825(5)
H6_14 H 0.4185 0.9545 0.8829
C12_14 C 0.4615(5) 0.9447(5) 0.8527(4)
C13_14 C 0.4939(5) 0.9280(6) 0.8522(6)
H7_13 H 0.5082 0.9291 0.8318
C14_13 C 0.5054(6) 0.9096(7) 0.8815(7)
H8_13 H 0.5275 0.8981 0.8812
C15_14 C 0.4498(6) 0.9656(6) 0.8233(6)
N2_14 N 0.4754(10) 0.8730(8) 0.9575(10)
H13_14 H 0.4538 0.8744 0.9496
O9_13 O 0.5323(17) 0.8911(15) 0.9492(14)
C27_26 C 0.1473(6) 0.5102(6) 0.9893(6)
H16_24 H 0.1372 0.4998 0.9690
C28_26 C 0.1658(6) 0.5414(6) 0.9865(4)
H17_26 H 0.1684 0.5525 0.9644
H20_24 H 0.0709 0.3318 0.9918
C35_24 C 0.0904(7) 0.3815(7) 0.9946(6)
H21_24 H 0.1019 0.3812 0.9725
O16_24 O 0.1089(15) 0.4492(14) 0.9677(17)
O3_15 O 0.5388(4) 0.2835(4) 0.3997(4)
O8_15 O 0.6946(4) 0.1677(4) 0.4435(4)
N1_15 N 0.5921(4) 0.2274(4) 0.3940(4)
C1_15 C 0.5112(6) 0.2962(5) 0.4122(5)
C2_15 C 0.5162(5) 0.3194(5) 0.4434(4)
C3_15 C 0.5487(5) 0.3231(6) 0.4596(6)
H1_15 H 0.5690 0.3130 0.4492
C4_15 C 0.5515(6) 0.3416(7) 0.4909(6)
H2_15 H 0.5737 0.3442 0.5019
C5_15 C 0.5218(8) 0.3564(6) 0.5060(5)
C6_15 C 0.4893(6) 0.3527(6) 0.4898(6)
H3_14 H 0.4690 0.3628 0.5002
C7_15 C 0.4865(4) 0.3342(6) 0.4586(6)
H4_15 H 0.4644 0.3316 0.4475
C8_15 C 0.5024(4) 0.3850(4) 0.5631(4)
C9_15 C 0.5155(7) 0.4080(7) 0.5887(6)
C10_15 C 0.5479(7) 0.4247(7) 0.5882(4)
H5_15 H 0.5622 0.4236 0.5678
C11_15 C 0.5594(5) 0.4431(6) 0.6175(5)
H6_15 H 0.5815 0.4545 0.6171
C12_15 C 0.5385(5) 0.4447(5) 0.6473(4)
C13_15 C 0.5061(5) 0.4280(6) 0.6478(6)
H7_14 H 0.4918 0.4291 0.6682
C14_14 C 0.4946(6) 0.4096(7) 0.6185(7)
H8_14 H 0.4725 0.3981 0.6188
C15_15 C 0.5502(6) 0.4656(6) 0.6767(6)
C16_15 C 0.6872(4) 0.1994(5) 0.4481(4)
C17_15 C 0.6537(5) 0.2102(5) 0.4305(4)
C18_15 C 0.6451(5) 0.2447(5) 0.4234(5)
H9_15 H 0.6604 0.2629 0.4308
C19_15 C 0.6150(5) 0.2528(6) 0.4060(5)
H10_15 H 0.6095 0.2768 0.4019
C20_15 C 0.5986(5) 0.1939(6) 0.4019(5)
H11_15 H 0.5816 0.1765 0.3962
C21_15 C 0.6301(5) 0.1838(5) 0.4184(5)
H12_15 H 0.6356 0.1597 0.4214
N2_15 N 0.5246(10) 0.3730(8) 0.5425(10)
H13_15 H 0.5462 0.3744 0.5504
O9_14 O 0.4677(17) 0.3911(15) 0.5508(14)
O10_27 O 0.7835(4) 0.1003(4) 0.4612(4)
O15_15 O 0.6677(4) 0.0565(4) 0.3054(4)
N3_27 N 0.7274(4) 0.1060(4) 0.4079(4)
C22_27 C 0.7962(5) 0.0878(5) 0.4888(6)
C23_27 C 0.8194(5) 0.0566(4) 0.4838(5)
C24_27 C 0.8231(6) 0.0404(6) 0.4513(5)
H14_27 H 0.8130 0.0508 0.4310
C25_27 C 0.8416(7) 0.0091(6) 0.4485(6)
C27_27 C 0.8527(6) 0.0102(6) 0.5107(6)
C28_27 C 0.8342(6) 0.0414(6) 0.5135(4)
H17_27 H 0.8316 0.0525 0.5356
C37_27 C 0.6994(5) 0.0519(4) 0.3128(4)
C38_27 C 0.7102(5) 0.0695(4) 0.3463(5)
C39_27 C 0.7447(5) 0.0766(5) 0.3549(5)
H22_27 H 0.7629 0.0692 0.3396
C40_27 C 0.7528(6) 0.0940(5) 0.3850(5)
H23_27 H 0.7768 0.0981 0.3905
C41_27 C 0.6939(6) 0.0981(5) 0.4014(5)
H24_27 H 0.6765 0.1038 0.4184
C42_27 C 0.6838(5) 0.0816(5) 0.3699(5)
H25_27 H 0.6597 0.0786 0.3644
O26_15 O 0.5565(4) 0.1946(4) 0.3323(4)
H15_27 H 0.8442 0.9981 0.4263
C26_27 C 0.8564(6) 0.9940(5) 0.4782(8)
H16_25 H 0.8628 0.9998 0.5310
C29_27 C 0.8850(4) 0.9369(4) 0.4976(4)
C30_27 C 0.9080(7) 0.9113(6) 0.4845(7)
C31_27 C 0.9247(7) 0.9118(4) 0.4521(7)
H18_27 H 0.9236 0.9322 0.4378
C32_27 C 0.9431(6) 0.8825(5) 0.4406(5)
H19_27 H 0.9545 0.8829 0.4185
C33_27 C 0.9447(5) 0.8527(4) 0.4615(5)
C34_27 C 0.9280(6) 0.8522(6) 0.4939(5)
H20_25 H 0.9291 0.8318 0.5082
C35_25 C 0.9096(7) 0.8815(7) 0.5054(6)
H21_25 H 0.8981 0.8812 0.5275
C36_27 C 0.9656(6) 0.8233(6) 0.4498(6)
N4_27 N 0.8730(8) 0.9575(10) 0.4754(10)
H26_27 H 0.8744 0.9496 0.4538
O16_25 O 0.8911(15) 0.9492(14) 0.5323(17)
C6_16 C 0.0107(6) 0.6473(6) 0.9898(6)
C7_16 C 0.0135(4) 0.6658(6) 0.9586(6)
H4_16 H 0.0356 0.6684 0.9475
H27_20 H 0.00198807 0.725526 0.719118
H28_20 H 0.0202014 0.763959 0.719118
H15_28 H 0.6558 0.0019 0.9263
C26_28 C 0.6436(6) 0.0060(5) 0.9782(8)
C29_28 C 0.6150(4) 0.0631(4) 0.9976(4)
C30_28 C 0.5920(7) 0.0887(6) 0.9845(7)
C31_28 C 0.5753(7) 0.0882(4) 0.9521(7)
H18_28 H 0.5764 0.0678 0.9378
C32_28 C 0.5569(6) 0.1175(5) 0.9406(5)
H19_28 H 0.5455 0.1171 0.9185
C33_28 C 0.5553(5) 0.1473(4) 0.9615(5)
C34_28 C 0.5720(6) 0.1478(6) 0.9939(5)
C36_28 C 0.5344(6) 0.1767(6) 0.9498(6)
N4_28 N 0.6270(8) 0.0425(10) 0.9754(10)
H26_28 H 0.6256 0.0504 0.9538
H2_16 H 0.9263 0.6558 0.0019
C5_16 C 0.9782(8) 0.6436(6) 0.0060(5)
C8_16 C 0.9976(4) 0.6150(4) 0.0631(4)
C9_16 C 0.9845(7) 0.5920(7) 0.0887(6)
C10_16 C 0.9521(7) 0.5753(7) 0.0882(4)
H5_16 H 0.9378 0.5764 0.0678
C11_16 C 0.9406(5) 0.5569(6) 0.1175(5)
H6_16 H 0.9185 0.5455 0.1171
C12_16 C 0.9615(5) 0.5553(5) 0.1473(4)
C13_16 C 0.9939(5) 0.5720(6) 0.1478(6)
C15_16 C 0.9498(6) 0.5344(6) 0.1767(6)
N2_16 N 0.9754(10) 0.6270(8) 0.0425(10)
H13_16 H 0.9538 0.6256 0.0504
C27_28 C 0.6473(6) 0.9898(6) 0.0107(6)
C28_28 C 0.6658(6) 0.9586(6) 0.0135(4)
H17_28 H 0.6684 0.9475 0.0356
O3_16 O 0.9612(4) 0.7165(4) 0.8997(4)
O8_16 O 0.8054(4) 0.8323(4) 0.9435(4)
N1_16 N 0.9079(4) 0.7726(4) 0.8940(4)
C1_16 C 0.9888(6) 0.7038(5) 0.9122(5)
C2_16 C 0.9838(5) 0.6806(5) 0.9434(4)
C3_16 C 0.9513(5) 0.6769(6) 0.9596(6)
H1_16 H 0.9310 0.6870 0.9492
C4_16 C 0.9485(6) 0.6584(7) 0.9909(6)
C16_16 C 0.8128(4) 0.8006(5) 0.9481(4)
C17_16 C 0.8463(5) 0.7898(5) 0.9305(4)
C18_16 C 0.8549(5) 0.7553(5) 0.9234(5)
H9_16 H 0.8396 0.7371 0.9308
C19_16 C 0.8850(5) 0.7472(6) 0.9060(5)
H10_16 H 0.8905 0.7232 0.9019
C20_16 C 0.9014(5) 0.8061(6) 0.9019(5)
H11_16 H 0.9184 0.8235 0.8962
C21_16 C 0.8699(5) 0.8162(5) 0.9184(5)
H12_16 H 0.8644 0.8403 0.9214
O10_28 O 0.7165(4) 0.8997(4) 0.9612(4)
O15_16 O 0.8323(4) 0.9435(4) 0.8054(4)
N3_28 N 0.7726(4) 0.8940(4) 0.9079(4)
C22_28 C 0.7038(5) 0.9122(5) 0.9888(6)
C23_28 C 0.6806(5) 0.9434(4) 0.9838(5)
C24_28 C 0.6769(6) 0.9596(6) 0.9513(5)
H14_28 H 0.6870 0.9492 0.9310
C25_28 C 0.6584(7) 0.9909(6) 0.9485(6)
C37_28 C 0.8006(5) 0.9481(4) 0.8128(4)
C38_28 C 0.7898(5) 0.9305(4) 0.8463(5)
C39_28 C 0.7553(5) 0.9234(5) 0.8549(5)
H22_28 H 0.7371 0.9308 0.8396
C40_28 C 0.7472(6) 0.9060(5) 0.8850(5)
H23_28 H 0.7232 0.9019 0.8905
C41_28 C 0.8061(6) 0.9019(5) 0.9014(5)
H24_28 H 0.8235 0.8962 0.9184
C42_28 C 0.8162(5) 0.9184(5) 0.8699(5)
H25_28 H 0.8403 0.9214 0.8644
O26_16 O 0.9435(4) 0.8054(4) 0.8323(4)
O10_29 O 0.3997(4) 0.5388(4) 0.2835(4)
N3_29 N 0.3940(4) 0.5921(4) 0.2274(4)
C22_29 C 0.4122(5) 0.5112(6) 0.2962(5)
C23_29 C 0.4434(4) 0.5162(5) 0.3194(5)
C24_29 C 0.4596(6) 0.5487(5) 0.3231(6)
H14_29 H 0.4492 0.5690 0.3130
C25_29 C 0.4909(6) 0.5515(6) 0.3416(7)
H15_29 H 0.5019 0.5737 0.3442
C26_29 C 0.5060(5) 0.5218(8) 0.3564(6)
C27_29 C 0.4898(6) 0.4893(6) 0.3527(6)
H16_26 H 0.5002 0.4690 0.3628
C28_29 C 0.4586(6) 0.4865(4) 0.3342(6)
H17_29 H 0.4475 0.4644 0.3316
C29_29 C 0.5631(4) 0.5024(4) 0.3850(4)
C30_29 C 0.5887(6) 0.5155(7) 0.4080(7)
C31_29 C 0.5882(4) 0.5479(7) 0.4247(7)
H18_29 H 0.5678 0.5622 0.4236
C32_29 C 0.6175(5) 0.5594(5) 0.4431(6)
H19_29 H 0.6171 0.5815 0.4545
C33_29 C 0.6473(4) 0.5385(5) 0.4447(5)
C34_29 C 0.6478(6) 0.5061(5) 0.4280(6)
H20_26 H 0.6682 0.4918 0.4291
C35_26 C 0.6185(7) 0.4946(6) 0.4096(7)
H21_26 H 0.6188 0.4725 0.3981
C36_29 C 0.6767(6) 0.5502(6) 0.4656(6)
C37_29 C 0.4481(4) 0.6872(4) 0.1994(5)
C38_29 C 0.4305(4) 0.6537(5) 0.2102(5)
C39_29 C 0.4234(5) 0.6451(5) 0.2447(5)
H22_29 H 0.4308 0.6604 0.2629
C40_29 C 0.4060(5) 0.6150(5) 0.2528(6)
H23_29 H 0.4019 0.6095 0.2768
C41_29 C 0.4019(5) 0.5986(5) 0.1939(6)
H24_29 H 0.3962 0.5816 0.1765
C42_29 C 0.4184(5) 0.6301(5) 0.1838(5)
H25_29 H 0.4214 0.6356 0.1597
N4_29 N 0.5425(10) 0.5246(10) 0.3730(8)
H26_29 H 0.5504 0.5462 0.3744
O16_26 O 0.5508(14) 0.4677(17) 0.3911(15)
H27_21 H 0.225526 0.780882 0.998012
H28_21 H 0.263959 0.780882 0.979799
O10_30 O 0.6003(4) 0.0388(4) 0.2165(4)
N3_30 N 0.6060(4) 0.0921(4) 0.2726(4)
C22_30 C 0.5878(5) 0.0112(6) 0.2038(5)
C23_30 C 0.5566(4) 0.0162(5) 0.1806(5)
C24_30 C 0.5404(6) 0.0487(5) 0.1769(6)
H14_30 H 0.5508 0.0690 0.1870
C25_30 C 0.5091(6) 0.0515(6) 0.1584(7)
H15_30 H 0.4981 0.0737 0.1558
C26_30 C 0.4940(5) 0.0218(8) 0.1436(6)
C29_30 C 0.4369(4) 0.0024(4) 0.1150(4)
C30_30 C 0.4113(6) 0.0155(7) 0.0920(7)
C31_30 C 0.4118(4) 0.0479(7) 0.0753(7)
H18_30 H 0.4322 0.0622 0.0764
C32_30 C 0.3825(5) 0.0594(5) 0.0569(6)
H19_30 H 0.3829 0.0815 0.0455
C33_30 C 0.3527(4) 0.0385(5) 0.0553(5)
C34_30 C 0.3522(6) 0.0061(5) 0.0720(6)
C36_30 C 0.3233(6) 0.0502(6) 0.0344(6)
C37_30 C 0.5519(4) 0.1872(4) 0.3006(5)
C38_30 C 0.5695(4) 0.1537(5) 0.2898(5)
C39_30 C 0.5766(5) 0.1451(5) 0.2553(5)
H22_30 H 0.5692 0.1604 0.2371
C40_30 C 0.5940(5) 0.1150(5) 0.2472(6)
H23_30 H 0.5981 0.1095 0.2232
C41_30 C 0.5981(5) 0.0986(5) 0.3061(6)
H24_30 H 0.6038 0.0816 0.3235
C42_30 C 0.5816(5) 0.1301(5) 0.3162(5)
H25_30 H 0.5786 0.1356 0.3403
N4_30 N 0.4575(10) 0.0246(10) 0.1270(8)
H26_30 H 0.4496 0.0462 0.1256
C27_30 C 0.5102(6) 0.9893(6) 0.1473(6)
H16_27 H 0.4998 0.9690 0.1372
C28_30 C 0.5414(6) 0.9865(4) 0.1658(6)
H17_30 H 0.5525 0.9644 0.1684
H20_27 H 0.3318 0.9918 0.0709
C35_27 C 0.3815(7) 0.9946(6) 0.0904(7)
H21_27 H 0.3812 0.9725 0.1019
O16_27 O 0.4492(14) 0.9677(17) 0.1089(15)
O10_31 O 0.1003(4) 0.4612(4) 0.7835(4)
N3_31 N 0.1060(4) 0.4079(4) 0.7274(4)
C22_31 C 0.0878(5) 0.4888(6) 0.7962(5)
C23_31 C 0.0566(4) 0.4838(5) 0.8194(5)
C24_31 C 0.0404(6) 0.4513(5) 0.8231(6)
H14_31 H 0.0508 0.4310 0.8130
C25_31 C 0.0091(6) 0.4485(6) 0.8416(7)
C27_31 C 0.0102(6) 0.5107(6) 0.8527(6)
C28_31 C 0.0414(6) 0.5135(4) 0.8342(6)
H17_31 H 0.0525 0.5356 0.8316
C37_31 C 0.0519(4) 0.3128(4) 0.6994(5)
C38_31 C 0.0695(4) 0.3463(5) 0.7102(5)
C39_31 C 0.0766(5) 0.3549(5) 0.7447(5)
H22_31 H 0.0692 0.3396 0.7629
C40_31 C 0.0940(5) 0.3850(5) 0.7528(6)
H23_31 H 0.0981 0.3905 0.7768
C41_31 C 0.0981(5) 0.4014(5) 0.6939(6)
H24_31 H 0.1038 0.4184 0.6765
C42_31 C 0.0816(5) 0.3699(5) 0.6838(5)
H25_31 H 0.0786 0.3644 0.6597
H15_31 H 0.9981 0.4263 0.8442
C26_31 C 0.9940(5) 0.4782(8) 0.8564(6)
H16_28 H 0.9998 0.5310 0.8628
C29_31 C 0.9369(4) 0.4976(4) 0.8850(4)
C30_31 C 0.9113(6) 0.4845(7) 0.9080(7)
C31_31 C 0.9118(4) 0.4521(7) 0.9247(7)
H18_31 H 0.9322 0.4378 0.9236
C32_31 C 0.8825(5) 0.4406(5) 0.9431(6)
H19_31 H 0.8829 0.4185 0.9545
C33_31 C 0.8527(4) 0.4615(5) 0.9447(5)
C34_31 C 0.8522(6) 0.4939(5) 0.9280(6)
H20_28 H 0.8318 0.5082 0.9291
C35_28 C 0.8815(7) 0.5054(6) 0.9096(7)
H21_28 H 0.8812 0.5275 0.8981
C36_31 C 0.8233(6) 0.4498(6) 0.9656(6)
N4_31 N 0.9575(10) 0.4754(10) 0.8730(8)
H26_31 H 0.9496 0.4538 0.8744
O16_28 O 0.9492(14) 0.5323(17) 0.8911(15)
H15_32 H 0.0019 0.9263 0.6558
C26_32 C 0.0060(5) 0.9782(8) 0.6436(6)
C29_32 C 0.0631(4) 0.9976(4) 0.6150(4)
C30_32 C 0.0887(6) 0.9845(7) 0.5920(7)
C31_32 C 0.0882(4) 0.9521(7) 0.5753(7)
H18_32 H 0.0678 0.9378 0.5764
C32_32 C 0.1175(5) 0.9406(5) 0.5569(6)
H19_32 H 0.1171 0.9185 0.5455
C33_32 C 0.1473(4) 0.9615(5) 0.5553(5)
C34_32 C 0.1478(6) 0.9939(5) 0.5720(6)
C36_32 C 0.1767(6) 0.9498(6) 0.5344(6)
N4_32 N 0.0425(10) 0.9754(10) 0.6270(8)
H26_32 H 0.0504 0.9538 0.6256
C27_32 C 0.9898(6) 0.0107(6) 0.6473(6)
C28_32 C 0.9586(6) 0.0135(4) 0.6658(6)
H17_32 H 0.9475 0.0356 0.6684
H27_22 H 0.725526 0.719118 0.00198807
H28_22 H 0.763959 0.719118 0.0202014
O10_32 O 0.8997(4) 0.9612(4) 0.7165(4)
N3_32 N 0.8940(4) 0.9079(4) 0.7726(4)
C22_32 C 0.9122(5) 0.9888(6) 0.7038(5)
C23_32 C 0.9434(4) 0.9838(5) 0.6806(5)
C24_32 C 0.9596(6) 0.9513(5) 0.6769(6)
H14_32 H 0.9492 0.9310 0.6870
C25_32 C 0.9909(6) 0.9485(6) 0.6584(7)
C37_32 C 0.9481(4) 0.8128(4) 0.8006(5)
C38_32 C 0.9305(4) 0.8463(5) 0.7898(5)
C39_32 C 0.9234(5) 0.8549(5) 0.7553(5)
H22_32 H 0.9308 0.8396 0.7371
C40_32 C 0.9060(5) 0.8850(5) 0.7472(6)
H23_32 H 0.9019 0.8905 0.7232
C41_32 C 0.9019(5) 0.9014(5) 0.8061(6)
H24_32 H 0.8962 0.9184 0.8235
C42_32 C 0.9184(5) 0.8699(5) 0.8162(5)
H25_32 H 0.9214 0.8644 0.8403
H27_23 H 0.780882 0.998012 0.225526
H28_23 H 0.780882 0.979799 0.263959
H27_24 H 0.719118 0.00198807 0.725526
H28_24 H 0.719118 0.0202014 0.763959
H16_29 H 0.8628 0.0002 0.9690
H20_29 H 0.9291 0.1682 0.9918
C35_29 C 0.9096(7) 0.1185(7) 0.9946(6)
H21_29 H 0.8981 0.1188 0.9725
O16_29 O 0.8911(15) 0.0508(14) 0.9677(17)
H3_15 H 0.9690 0.8628 0.0002
H7_15 H 0.9918 0.9291 0.1682
C14_15 C 0.9946(6) 0.9096(7) 0.1185(7)
H8_15 H 0.9725 0.8981 0.1188
O9_15 O 0.9677(17) 0.8911(15) 0.0508(14)
H16_30 H 0.0002 0.9690 0.8628
H20_30 H 0.1682 0.9918 0.9291
C35_30 C 0.1185(7) 0.9946(6) 0.9096(7)
H21_30 H 0.1188 0.9725 0.8981
O16_30 O 0.0508(14) 0.9677(17) 0.8911(15)
H3_16 H 0.0310 0.6372 0.0002
H7_16 H 0.0082 0.5709 0.1682
C14_16 C 0.0054(6) 0.5904(7) 0.1185(7)
H8_16 H 0.0275 0.6019 0.1188
O9_16 O 0.0323(17) 0.6089(15) 0.0508(14)
H16_31 H 0.6372 0.0002 0.0310
H20_31 H 0.5709 0.1682 0.0082
C35_31 C 0.5904(7) 0.1185(7) 0.0054(6)
H21_31 H 0.6019 0.1188 0.0275
O16_31 O 0.6089(15) 0.0508(14) 0.0323(17)
H16_32 H 0.0002 0.0310 0.6372
H20_32 H 0.1682 0.0082 0.5709
C35_32 C 0.1185(7) 0.0054(6) 0.5904(7)
H21_32 H 0.1188 0.0275 0.6019
O16_32 O 0.0508(14) 0.0323(17) 0.6089(15)
loop_
_geom_bond_atom_site_label_1
_geom_bond_atom_site_label_2
_geom_bond_site_symmetry_1
_geom_bond_site_symmetry_2
In1 O1 1_555 1_555
In2 O1 1_555 1_555
O1 In9 1_555 1_555
O3 In2 1_555 1_555
O4 C1 1_555 1_555
O5 C15 1_555 1_555
O6 C15 1_555 1_555
O7 C16 1_555 1_555
O8 C16 1_555 1_555
N1 In2 1_555 1_555
C1 O3 1_555 1_555
C2 C1 1_555 1_555
C3 C2 1_555 1_555
H1 C3 1_555 1_555
C4 C3 1_555 1_555
H2 C4 1_555 1_555
C5 C4 1_555 1_555
C6 C5 1_555 1_555
H3 C6 1_555 1_555
C7 C2 1_555 1_555
H4 C7 1_555 1_555
C8 C9 1_555 1_555
C9 C10 1_555 1_555
C10 H5 1_555 1_555
C11 C10 1_555 1_555
H6 C11 1_555 1_555
C12 C11 1_555 1_555
C13 C12 1_555 1_555
H7 C13 1_555 1_555
C14 C9 1_555 1_555
H8 C14 1_555 1_555
C15 C12 1_555 1_555
C16 C17 1_555 1_555
C17 C18 1_555 1_555
C18 H9 1_555 1_555
C19 N1 1_555 1_555
H10 C19 1_555 1_555
C20 N1 1_555 1_555
H11 C20 1_555 1_555
C21 C17 1_555 1_555
H12 C21 1_555 1_555
N2 C5 1_555 1_555
H13 N2 1_555 1_555
O9 C8 1_555 1_555
In3 O8 1_555 1_555
O10 In3 1_555 1_555
O11 C22 1_555 1_555
O12 C36 1_555 1_555
O13 C36 1_555 1_555
O14 C37 1_555 1_555
O15 C37 1_555 1_555
N3 In3 1_555 1_555
C22 O10 1_555 1_555
C23 C22 1_555 1_555
C24 C23 1_555 1_555
H14 C24 1_555 1_555
C25 C24 1_555 1_555
H15 C25 1_555 1_555
C26 C25 1_555 1_555
C27 C26 1_555 1_555
H16 C27 1_555 1_555
C28 C23 1_555 1_555
H17 C28 1_555 1_555
C29 C30 1_555 1_555
C30 C31 1_555 1_555
C31 H18 1_555 1_555
C32 C31 1_555 1_555
H19 C32 1_555 1_555
C33 C32 1_555 1_555
C34 C33 1_555 1_555
H20 C34 1_555 1_555
C35 C30 1_555 1_555
H21 C35 1_555 1_555
C36 C33 1_555 1_555
C37 C38 1_555 1_555
C38 C39 1_555 1_555
C39 H22 1_555 1_555
C40 N3 1_555 1_555
H23 C40 1_555 1_555
C41 N3 1_555 1_555
H24 C41 1_555 1_555
C42 C38 1_555 1_555
H25 C42 1_555 1_555
N4 C26 1_555 1_555
H26 N4 1_555 1_555
O16 C29 1_555 1_555
In4 O7 1_555 1_555
In5_2 O14 1_555 1_555
In6_2 O12 1_555 1_555
In7 O5 1_555 1_555
In8 O15 1_555 1_555
In9 O4 1_555 1_555
In10 O11 1_555 1_555
In11 O13 1_555 1_555
In12 O6 1_555 1_555
O17 In3 1_555 1_555
O18 In2 1_555 1_555
O19 In3 1_555 1_555
O20 In1 1_555 1_555
O21 In1 1_555 1_555
O22 In3 1_555 1_555
O23 In2 1_555 1_555
O24 In1 1_555 1_555
O25 In1 1_555 1_555
O26 In2 1_555 1_555
C6 C7 1_555 1_555
C8 N2 1_555 1_555
C13 C14 1_555 1_555
C18 C19 1_555 1_555
C20 C21 1_555 1_555
C27 C28 1_555 1_555
C29 N4 1_555 1_555
C34 C35 1_555 1_555
C39 C40 1_555 1_555
C41 C42 1_555 1_555
In4 O17 1_555 1_555
In10 O17 1_555 1_555
In1_2 O1_2 1_555 1_555
O1_2 In9_2 1_555 1_555
O2_2 In1_2 1_555 1_555
O4_2 C1_2 1_555 1_555
O5_2 C15_2 1_555 1_555
O6_2 C15_2 1_555 1_555
C1_2 O3_2 1_555 1_555
C2_2 C1_2 1_555 1_555
C3_2 C2_2 1_555 1_555
H1_2 C3_2 1_555 1_555
C4_2 C3_2 1_555 1_555
H2_2 C4_2 1_555 1_555
C5_2 C4_2 1_555 1_555
C6_2 C5_2 1_555 1_555
H3_2 C6_2 1_555 1_555
C7_2 C2_2 1_555 1_555
H4_2 C7_2 1_555 1_555
C8_2 C9_2 1_555 1_555
C9_2 C10_2 1_555 1_555
C10_2 H5_2 1_555 1_555
C11_2 C10_2 1_555 1_555
H6_2 C11_2 1_555 1_555
C12_2 C11_2 1_555 1_555
C13_2 C12_2 1_555 1_555
H7_2 C13_2 1_555 1_555
C14_2 C9_2 1_555 1_555
H8_2 C14_2 1_555 1_555
C15_2 C12_2 1_555 1_555
H10_2 C19_2 1_555 1_555
N2_2 C5_2 1_555 1_555
H13_2 N2_2 1_555 1_555
O9_2 C8_2 1_555 1_555
In7_2 O5_2 1_555 1_555
In9_2 O4_2 1_555 1_555
In12_2 O6_2 1_555 1_555
O20_2 In1_2 1_555 1_555
O25_2 In1_2 1_555 1_555
C6_2 C7_2 1_555 1_555
C8_2 N2_2 1_555 1_555
C13_2 C14_2 1_555 1_555
O2_2 H27 1_555 1_555
In1_3 O1_3 1_555 1_555
In2_2 O1_3 1_555 1_555
O2_3 In1_3 1_555 1_555
O7_2 C16_2 1_555 1_555
O8_2 C16_2 1_555 1_555
N1_2 In2_2 1_555 1_555
C16_2 C17_2 1_555 1_555
C17_2 C18_2 1_555 1_555
C20_2 N1_2 1_555 1_555
H11_2 C20_2 1_555 1_555
C21_2 C17_2 1_555 1_555
H12_2 C21_2 1_555 1_555
In3_2 O8_2 1_555 1_555
O10_2 In3_2 1_555 1_555
O11_2 C22_2 1_555 1_555
O12_2 C36_2 1_555 1_555
O13_2 C36_2 1_555 1_555
O14_2 C37_2 1_555 1_555
O15_2 C37_2 1_555 1_555
N3_2 In3_2 1_555 1_555
C22_2 O10_2 1_555 1_555
C23_2 C22_2 1_555 1_555
C24_2 C23_2 1_555 1_555
H14_2 C24_2 1_555 1_555
C25_2 C24_2 1_555 1_555
H15_2 C25_2 1_555 1_555
C26_2 C25_2 1_555 1_555
C27_2 C26_2 1_555 1_555
H16_2 C27_2 1_555 1_555
C28_2 C23_2 1_555 1_555
H17_2 C28_2 1_555 1_555
C29_2 C30_2 1_555 1_555
C30_2 C31_2 1_555 1_555
C31_2 H18_2 1_555 1_555
C32_2 C31_2 1_555 1_555
H19_2 C32_2 1_555 1_555
C33_2 C32_2 1_555 1_555
C34_2 C33_2 1_555 1_555
H20_2 C34_2 1_555 1_555
C35_2 C30_2 1_555 1_555
H21_2 C35_2 1_555 1_555
C36_2 C33_2 1_555 1_555
C37_2 C38_2 1_555 1_555
C38_2 C39_2 1_555 1_555
C39_2 H22_2 1_555 1_555
C40_2 N3_2 1_555 1_555
H23_2 C40_2 1_555 1_555
C41_2 N3_2 1_555 1_555
H24_2 C41_2 1_555 1_555
C42_2 C38_2 1_555 1_555
H25_2 C42_2 1_555 1_555
N4_2 C26_2 1_555 1_555
H26_2 N4_2 1_555 1_555
O16_2 C29_2 1_555 1_555
In4_2 O7_2 1_555 1_555
In5_3 O14_2 1_555 1_555
In6_3 O12_2 1_555 1_555
In8_2 O15_2 1_555 1_555
In10_2 O11_2 1_555 1_555
In11_2 O13_2 1_555 1_555
O17_2 In3_2 1_555 1_555
O18_2 In2_2 1_555 1_555
O19_2 In3_2 1_555 1_555
O21_2 In1_3 1_555 1_555
O22_2 In3_2 1_555 1_555
O24_2 In1_3 1_555 1_555
O26_2 In2_2 1_555 1_555
C20_2 C21_2 1_555 1_555
C27_2 C28_2 1_555 1_555
C29_2 N4_2 1_555 1_555
C34_2 C35_2 1_555 1_555
C39_2 C40_2 1_555 1_555
C41_2 C42_2 1_555 1_555
In4_2 O17_2 1_555 1_555
In10_2 O17_2 1_555 1_555
O2_3 H28 1_555 1_555
O11_3 C22_3 1_555 1_555
O12_3 C36_3 1_555 1_555
O13_3 C36_3 1_555 1_555
C22_3 O10_3 1_555 1_555
C23_3 C22_3 1_555 1_555
C24_3 C23_3 1_555 1_555
H14_3 C24_3 1_555 1_555
C25_3 C24_3 1_555 1_555
H15_3 C25_3 1_555 1_555
C26_3 C25_3 1_555 1_555
C27_3 C26_3 1_555 1_555
H16_3 C27_3 1_555 1_555
C28_3 C23_3 1_555 1_555
H17_3 C28_3 1_555 1_555
C29_3 C30_3 1_555 1_555
C30_3 C31_3 1_555 1_555
C31_3 H18_3 1_555 1_555
C32_3 C31_3 1_555 1_555
H19_3 C32_3 1_555 1_555
C33_3 C32_3 1_555 1_555
C34_3 C33_3 1_555 1_555
H20_3 C34_3 1_555 1_555
C35_3 C30_3 1_555 1_555
H21_3 C35_3 1_555 1_555
C36_3 C33_3 1_555 1_555
H23_3 C40_3 1_555 1_555
N4_3 C26_3 1_555 1_555
H26_3 N4_3 1_555 1_555
O16_3 C29_3 1_555 1_555
In6_4 O12_3 1_555 1_555
In10_3 O11_3 1_555 1_555
In11_3 O13_3 1_555 1_555
C27_3 C28_3 1_555 1_555
C29_3 N4_3 1_555 1_555
C34_3 C35_3 1_555 1_555
In4_3 O17_3 1_555 1_555
In10_3 O17_3 1_555 1_555
In1_4 O1_4 1_555 1_555
In2_3 O1_4 1_555 1_555
O1_4 In9_3 1_555 1_555
O2_4 In1_4 1_555 1_555
O3_3 In2_3 1_555 1_555
O4_3 C1_3 1_555 1_555
O5_3 C15_3 1_555 1_555
O6_3 C15_3 1_555 1_555
O7_3 C16_3 1_555 1_555
O8_3 C16_3 1_555 1_555
N1_3 In2_3 1_555 1_555
C1_3 O3_3 1_555 1_555
C2_3 C1_3 1_555 1_555
C3_3 C2_3 1_555 1_555
H1_3 C3_3 1_555 1_555
C4_3 C3_3 1_555 1_555
H2_3 C4_3 1_555 1_555
C5_3 C4_3 1_555 1_555
C6_3 C5_3 1_555 1_555
H3_3 C6_3 1_555 1_555
C7_3 C2_3 1_555 1_555
H4_3 C7_3 1_555 1_555
C8_3 C9_3 1_555 1_555
C9_3 C10_3 1_555 1_555
C10_3 H5_3 1_555 1_555
C11_3 C10_3 1_555 1_555
H6_3 C11_3 1_555 1_555
C12_3 C11_3 1_555 1_555
C13_3 C12_3 1_555 1_555
H7_3 C13_3 1_555 1_555
C14_3 C9_3 1_555 1_555
H8_3 C14_3 1_555 1_555
C15_3 C12_3 1_555 1_555
C16_3 C17_3 1_555 1_555
C17_3 C18_3 1_555 1_555
C18_3 H9_3 1_555 1_555
C19_3 N1_3 1_555 1_555
H10_3 C19_3 1_555 1_555
C20_3 N1_3 1_555 1_555
H11_3 C20_3 1_555 1_555
C21_3 C17_3 1_555 1_555
H12_3 C21_3 1_555 1_555
N2_3 C5_3 1_555 1_555
H13_3 N2_3 1_555 1_555
O9_3 C8_3 1_555 1_555
In3_3 O8_3 1_555 1_555
O14_3 C37_3 1_555 1_555
O15_3 C37_3 1_555 1_555
N3_3 In3_3 1_555 1_555
C37_3 C38_3 1_555 1_555
C38_3 C39_3 1_555 1_555
C41_3 N3_3 1_555 1_555
H24_3 C41_3 1_555 1_555
C42_3 C38_3 1_555 1_555
H25_3 C42_3 1_555 1_555
In4_4 O7_3 1_555 1_555
In5_4 O14_3 1_555 1_555
In7_5 O5_3 1_555 1_555
In8_3 O15_3 1_555 1_555
In9_3 O4_3 1_555 1_555
In12_3 O6_3 1_555 1_555
O17_4 In3_3 1_555 1_555
O18_3 In2_3 1_555 1_555
O19_3 In3_3 1_555 1_555
O20_3 In1_4 1_555 1_555
O21_3 In1_4 1_555 1_555
O23_3 In2_3 1_555 1_555
O24_3 In1_4 1_555 1_555
O25_3 In1_4 1_555 1_555
O26_3 In2_3 1_555 1_555
C6_3 C7_3 1_555 1_555
C8_3 N2_3 1_555 1_555
C13_3 C14_3 1_555 1_555
C18_3 C19_3 1_555 1_555
C20_3 C21_3 1_555 1_555
C41_3 C42_3 1_555 1_555
In4_4 O17_4 1_555 1_555
In1_5 O1_5 1_555 1_555
In2_4 O1_5 1_555 1_555
O7_4 C16_4 1_555 1_555
O8_4 C16_4 1_555 1_555
N1_4 In2_4 1_555 1_555
C16_4 C17_4 1_555 1_555
C17_4 C18_4 1_555 1_555
C20_4 N1_4 1_555 1_555
H11_4 C20_4 1_555 1_555
C21_4 C17_4 1_555 1_555
H12_4 C21_4 1_555 1_555
In3_4 O8_4 1_555 1_555
O14_4 C37_4 1_555 1_555
O15_4 C37_4 1_555 1_555
N3_4 In3_4 1_555 1_555
C37_4 C38_4 1_555 1_555
C38_4 C39_4 1_555 1_555
C41_4 N3_4 1_555 1_555
H24_4 C41_4 1_555 1_555
C42_4 C38_4 1_555 1_555
H25_4 C42_4 1_555 1_555
In4_5 O7_4 1_555 1_555
In5_5 O14_4 1_555 1_555
In8_4 O15_4 1_555 1_555
O17_5 In3_4 1_555 1_555
O18_4 In2_4 1_555 1_555
O19_4 In3_4 1_555 1_555
O21_4 In1_5 1_555 1_555
O24_4 In1_5 1_555 1_555
O26_4 In2_4 1_555 1_555
C20_4 C21_4 1_555 1_555
C41_4 C42_4 1_555 1_555
In4_5 O17_5 1_555 1_555
O2_5 H28_2 1_555 1_555
O11_4 C22_4 1_555 1_555
O12_4 C36_4 1_555 1_555
O13_4 C36_4 1_555 1_555
C22_4 O10_4 1_555 1_555
C23_4 C22_4 1_555 1_555
C24_4 C23_4 1_555 1_555
H14_4 C24_4 1_555 1_555
C25_4 C24_4 1_555 1_555
H15_4 C25_4 1_555 1_555
C26_4 C25_4 1_555 1_555
C27_4 C26_4 1_555 1_555
H16_4 C27_4 1_555 1_555
C28_4 C23_4 1_555 1_555
H17_4 C28_4 1_555 1_555
C29_4 C30_4 1_555 1_555
C30_4 C31_4 1_555 1_555
C31_4 H18_4 1_555 1_555
C32_4 C31_4 1_555 1_555
H19_4 C32_4 1_555 1_555
C33_4 C32_4 1_555 1_555
C34_4 C33_4 1_555 1_555
H20_4 C34_4 1_555 1_555
C35_4 C30_4 1_555 1_555
H21_4 C35_4 1_555 1_555
C36_4 C33_4 1_555 1_555
H23_4 C40_4 1_555 1_555
N4_4 C26_4 1_555 1_555
H26_4 N4_4 1_555 1_555
O16_4 C29_4 1_555 1_555
In6_6 O12_4 1_555 1_555
In10_4 O11_4 1_555 1_555
In11_4 O13_4 1_555 1_555
C27_4 C28_4 1_555 1_555
C29_4 N4_4 1_555 1_555
C34_4 C35_4 1_555 1_555
In4_6 O17_6 1_555 1_555
In10_4 O17_6 1_555 1_555
In1_6 O1_6 1_555 1_555
O1_6 In9_4 1_555 1_555
O4_4 C1_4 1_555 1_555
O5_4 C15_4 1_555 1_555
O6_4 C15_4 1_555 1_555
C1_4 O3_4 1_555 1_555
C2_4 C1_4 1_555 1_555
C3_4 C2_4 1_555 1_555
H1_4 C3_4 1_555 1_555
C4_4 C3_4 1_555 1_555
H2_4 C4_4 1_555 1_555
C5_4 C4_4 1_555 1_555
C6_4 C5_4 1_555 1_555
H3_4 C6_4 1_555 1_555
C7_4 C2_4 1_555 1_555
H4_4 C7_4 1_555 1_555
C8_4 C9_4 1_555 1_555
C9_4 C10_4 1_555 1_555
C10_4 H5_4 1_555 1_555
C11_4 C10_4 1_555 1_555
H6_4 C11_4 1_555 1_555
C12_4 C11_4 1_555 1_555
C13_4 C12_4 1_555 1_555
H7_4 C13_4 1_555 1_555
C14_4 C9_4 1_555 1_555
H8_4 C14_4 1_555 1_555
C15_4 C12_4 1_555 1_555
H10_4 C19_4 1_555 1_555
N2_4 C5_4 1_555 1_555
H13_4 N2_4 1_555 1_555
O9_4 C8_4 1_555 1_555
In7_6 O5_4 1_555 1_555
In9_4 O4_4 1_555 1_555
In12_4 O6_4 1_555 1_555
O20_4 In1_6 1_555 1_555
O25_4 In1_6 1_555 1_555
C6_4 C7_4 1_555 1_555
C8_4 N2_4 1_555 1_555
C13_4 C14_4 1_555 1_555
O2_6 H27_2 1_555 1_555
O10_5 In8_2 1_555 1_555
O11_5 C22_5 1_555 1_555
O12_5 C36_5 1_555 1_555
O13_5 C36_5 1_555 1_555
O24_2 C37_5 1_555 1_555
O26_2 C37_5 1_555 1_555
N3_5 In8_2 1_555 1_555
C22_5 O10_5 1_555 1_555
C23_5 C22_5 1_555 1_555
C24_5 C23_5 1_555 1_555
H14_5 C24_5 1_555 1_555
C25_5 C24_5 1_555 1_555
H15_5 C25_5 1_555 1_555
C26_5 C25_5 1_555 1_555
C27_5 C26_5 1_555 1_555
H16_5 C27_5 1_555 1_555
C28_5 C23_5 1_555 1_555
H17_5 C28_5 1_555 1_555
C29_5 C30_5 1_555 1_555
C30_5 C31_5 1_555 1_555
C31_5 H18_5 1_555 1_555
C32_5 C31_5 1_555 1_555
H19_5 C32_5 1_555 1_555
C33_5 C32_5 1_555 1_555
C34_5 C33_5 1_555 1_555
H20_5 C34_5 1_555 1_555
C35_5 C30_5 1_555 1_555
H21_5 C35_5 1_555 1_555
C36_5 C33_5 1_555 1_555
C37_5 C38_5 1_555 1_555
C38_5 C39_5 1_555 1_555
C39_5 H22_5 1_555 1_555
C40_5 N3_5 1_555 1_555
H23_5 C40_5 1_555 1_555
C41_5 N3_5 1_555 1_555
H24_5 C41_5 1_555 1_555
C42_5 C38_5 1_555 1_555
H25_5 C42_5 1_555 1_555
N4_5 C26_5 1_555 1_555
H26_5 N4_5 1_555 1_555
O16_5 C29_5 1_555 1_555
In6_8 O12_5 1_555 1_555
In10_5 O11_5 1_555 1_555
In11_5 O13_5 1_555 1_555
O17_7 In8_2 1_555 1_555
O19_5 In8_2 1_555 1_555
O20_5 In4_2 1_555 1_555
O21_5 In4_2 1_555 1_555
O22_5 In8_2 1_555 1_555
O25_5 In4_2 1_555 1_555
C27_5 C28_5 1_555 1_555
C29_5 N4_5 1_555 1_555
C34_5 C35_5 1_555 1_555
C39_5 C40_5 1_555 1_555
C41_5 C42_5 1_555 1_555
In5_3 O17_7 1_555 1_555
In10_5 O17_7 1_555 1_555
O2_8 In4_3 1_555 1_555
O20_6 In4_3 1_555 1_555
O25_6 In4_3 1_555 1_555
O2_8 H27_3 1_555 1_555
O2_9 In4_4 1_555 1_555
O10_6 In8_3 1_555 1_555
O11_6 C22_6 1_555 1_555
O12_6 C36_6 1_555 1_555
O13_6 C36_6 1_555 1_555
O24_3 C37_6 1_555 1_555
O26_3 C37_6 1_555 1_555
N3_6 In8_3 1_555 1_555
C22_6 O10_6 1_555 1_555
C23_6 C22_6 1_555 1_555
C24_6 C23_6 1_555 1_555
H14_6 C24_6 1_555 1_555
C25_6 C24_6 1_555 1_555
H15_6 C25_6 1_555 1_555
C26_6 C25_6 1_555 1_555
C27_6 C26_6 1_555 1_555
H16_6 C27_6 1_555 1_555
C28_6 C23_6 1_555 1_555
H17_6 C28_6 1_555 1_555
C29_6 C30_6 1_555 1_555
C30_6 C31_6 1_555 1_555
C31_6 H18_6 1_555 1_555
C32_6 C31_6 1_555 1_555
H19_6 C32_6 1_555 1_555
C33_6 C32_6 1_555 1_555
C34_6 C33_6 1_555 1_555
H20_6 C34_6 1_555 1_555
C35_6 C30_6 1_555 1_555
H21_6 C35_6 1_555 1_555
C36_6 C33_6 1_555 1_555
C37_6 C38_6 1_555 1_555
C38_6 C39_6 1_555 1_555
C39_6 H22_6 1_555 1_555
C40_6 N3_6 1_555 1_555
H23_6 C40_6 1_555 1_555
C41_6 N3_6 1_555 1_555
H24_6 C41_6 1_555 1_555
C42_6 C38_6 1_555 1_555
H25_6 C42_6 1_555 1_555
N4_6 C26_6 1_555 1_555
H26_6 N4_6 1_555 1_555
O16_6 C29_6 1_555 1_555
In6_9 O12_6 1_555 1_555
In10_6 O11_6 1_555 1_555
In11_6 O13_6 1_555 1_555
O17_8 In8_3 1_555 1_555
O19_6 In8_3 1_555 1_555
O21_6 In4_4 1_555 1_555
O22_6 In8_3 1_555 1_555
C27_6 C28_6 1_555 1_555
C29_6 N4_6 1_555 1_555
C34_6 C35_6 1_555 1_555
C39_6 C40_6 1_555 1_555
C41_6 C42_6 1_555 1_555
In5_4 O17_8 1_555 1_555
In10_6 O17_8 1_555 1_555
O2_9 H28_3 1_555 1_555
O11_7 C22_7 1_555 1_555
O12_7 C36_7 1_555 1_555
O13_7 C36_7 1_555 1_555
C22_7 O10_7 1_555 1_555
C23_7 C22_7 1_555 1_555
C24_7 C23_7 1_555 1_555
H14_7 C24_7 1_555 1_555
C25_7 C24_7 1_555 1_555
H15_7 C25_7 1_555 1_555
C26_7 C25_7 1_555 1_555
C27_7 C26_7 1_555 1_555
H16_7 C27_7 1_555 1_555
C28_7 C23_7 1_555 1_555
H17_7 C28_7 1_555 1_555
C29_7 C30_7 1_555 1_555
C30_7 C31_7 1_555 1_555
C31_7 H18_7 1_555 1_555
C32_7 C31_7 1_555 1_555
H19_7 C32_7 1_555 1_555
C33_7 C32_7 1_555 1_555
C34_7 C33_7 1_555 1_555
H20_7 C34_7 1_555 1_555
C35_7 C30_7 1_555 1_555
H21_7 C35_7 1_555 1_555
C36_7 C33_7 1_555 1_555
H23_7 C40_7 1_555 1_555
N4_7 C26_7 1_555 1_555
H26_7 N4_7 1_555 1_555
O16_7 C29_7 1_555 1_555
In6_10 O12_7 1_555 1_555
In10_7 O11_7 1_555 1_555
In11_7 O13_7 1_555 1_555
C27_7 C28_7 1_555 1_555
C29_7 N4_7 1_555 1_555
C34_7 C35_7 1_555 1_555
In5 O17_9 1_555 1_555
In10_7 O17_9 1_555 1_555
O2_10 In4 1_555 1_555
O24 C37_7 1_555 1_555
O26 C37_7 1_555 1_555
N3_7 In8 1_555 1_555
C37_7 C38_7 1_555 1_555
C38_7 C39_7 1_555 1_555
C41_7 N3_7 1_555 1_555
H24_7 C41_7 1_555 1_555
C42_7 C38_7 1_555 1_555
H25_7 C42_7 1_555 1_555
O17_10 In8 1_555 1_555
O19_7 In8 1_555 1_555
O20_7 In4 1_555 1_555
O21_7 In4 1_555 1_555
O25_7 In4 1_555 1_555
C41_7 C42_7 1_555 1_555
In5_2 O17_10 1_555 1_555
O24_4 C37_8 1_555 1_555
O26_4 C37_8 1_555 1_555
N3_8 In8_4 1_555 1_555
C37_8 C38_8 1_555 1_555
C38_8 C39_8 1_555 1_555
C41_8 N3_8 1_555 1_555
H24_8 C41_8 1_555 1_555
C42_8 C38_8 1_555 1_555
H25_8 C42_8 1_555 1_555
O17_11 In8_4 1_555 1_555
O19_8 In8_4 1_555 1_555
O21_8 In4_5 1_555 1_555
C41_8 C42_8 1_555 1_555
In5_5 O17_11 1_555 1_555
O11_8 C22_8 1_555 1_555
O12_8 C36_8 1_555 1_555
O13_8 C36_8 1_555 1_555
C22_8 O10_8 1_555 1_555
C23_8 C22_8 1_555 1_555
C24_8 C23_8 1_555 1_555
H14_8 C24_8 1_555 1_555
C25_8 C24_8 1_555 1_555
H15_8 C25_8 1_555 1_555
C26_8 C25_8 1_555 1_555
C27_8 C26_8 1_555 1_555
H16_8 C27_8 1_555 1_555
C28_8 C23_8 1_555 1_555
H17_8 C28_8 1_555 1_555
C29_8 C30_8 1_555 1_555
C30_8 C31_8 1_555 1_555
C31_8 H18_8 1_555 1_555
C32_8 C31_8 1_555 1_555
H19_8 C32_8 1_555 1_555
C33_8 C32_8 1_555 1_555
C34_8 C33_8 1_555 1_555
H20_8 C34_8 1_555 1_555
C35_8 C30_8 1_555 1_555
H21_8 C35_8 1_555 1_555
C36_8 C33_8 1_555 1_555
H23_8 C40_8 1_555 1_555
N4_8 C26_8 1_555 1_555
H26_8 N4_8 1_555 1_555
O16_8 C29_8 1_555 1_555
In6_12 O12_8 1_555 1_555
In10_8 O11_8 1_555 1_555
In11_8 O13_8 1_555 1_555
C27_8 C28_8 1_555 1_555
C29_8 N4_8 1_555 1_555
C34_8 C35_8 1_555 1_555
In5_6 O17_12 1_555 1_555
In10_8 O17_12 1_555 1_555
O20_8 In4_6 1_555 1_555
O25_8 In4_6 1_555 1_555
O2_11 H28_4 1_555 1_555
O2_12 H27_4 1_555 1_555
O20_9 In5_4 1_555 1_555
O21_9 In5_4 1_555 1_555
O25_9 In5_4 1_555 1_555
O2_14 In5 1_555 1_555
O20_10 In5 1_555 1_555
O25_10 In5 1_555 1_555
O2_14 H27_5 1_555 1_555
O2_15 In5_2 1_555 1_555
O21_10 In5_2 1_555 1_555
O2_15 H28_5 1_555 1_555
O2_16 In5_3 1_555 1_555
O20_11 In5_3 1_555 1_555
O21_11 In5_3 1_555 1_555
O25_11 In5_3 1_555 1_555
O21_12 In5_5 1_555 1_555
O20_12 In5_6 1_555 1_555
O25_12 In5_6 1_555 1_555
O2_17 H28_6 1_555 1_555
O2_18 H27_6 1_555 1_555
O20_4 C36_9 1_555 1_555
O23_4 C36_9 1_555 1_555
C29_9 C30_9 1_555 1_555
C30_9 C31_9 1_555 1_555
C31_9 H18_9 1_555 1_555
C32_9 C31_9 1_555 1_555
H19_9 C32_9 1_555 1_555
C33_9 C32_9 1_555 1_555
C34_9 C33_9 1_555 1_555
C36_9 C33_9 1_555 1_555
N4_9 C26_9 1_555 1_555
H26_9 N4_9 1_555 1_555
C29_9 N4_9 1_555 1_555
In6_6 O1_7 1_555 1_555
In2_5 O1_7 1_555 1_555
O1_7 In11_4 1_555 1_555
O2_19 In6_6 1_555 1_555
O3_5 In2_5 1_555 1_555
O4_5 C1_5 1_555 1_555
O7_5 C16_5 1_555 1_555
O8_5 C16_5 1_555 1_555
N1_5 In2_5 1_555 1_555
C1_5 O3_5 1_555 1_555
C2_5 C1_5 1_555 1_555
C3_5 C2_5 1_555 1_555
H1_5 C3_5 1_555 1_555
C4_5 C3_5 1_555 1_555
C7_5 C2_5 1_555 1_555
H4_5 C7_5 1_555 1_555
C16_5 C17_5 1_555 1_555
C17_5 C18_5 1_555 1_555
C18_5 H9_5 1_555 1_555
C19_5 N1_5 1_555 1_555
H10_5 C19_5 1_555 1_555
C20_5 N1_5 1_555 1_555
H11_5 C20_5 1_555 1_555
C21_5 C17_5 1_555 1_555
H12_5 C21_5 1_555 1_555
In3_5 O8_5 1_555 1_555
O10_9 In3_5 1_555 1_555
O14_5 C37_9 1_555 1_555
O15_5 C37_9 1_555 1_555
N3_9 In3_5 1_555 1_555
C22_9 O10_9 1_555 1_555
C23_9 C22_9 1_555 1_555
C24_9 C23_9 1_555 1_555
H14_9 C24_9 1_555 1_555
C25_9 C24_9 1_555 1_555
C37_9 C38_9 1_555 1_555
C38_9 C39_9 1_555 1_555
C39_9 H22_9 1_555 1_555
C40_9 N3_9 1_555 1_555
H23_9 C40_9 1_555 1_555
C41_9 N3_9 1_555 1_555
H24_9 C41_9 1_555 1_555
C42_9 C38_9 1_555 1_555
H25_9 C42_9 1_555 1_555
In7_4 O7_5 1_555 1_555
In6_11 O14_5 1_555 1_555
In8_5 O15_5 1_555 1_555
In11_4 O4_5 1_555 1_555
O17_13 In3_5 1_555 1_555
O18_5 In2_5 1_555 1_555
O19_9 In3_5 1_555 1_555
O20_13 In6_6 1_555 1_555
O22_9 In3_5 1_555 1_555
O23_5 In2_5 1_555 1_555
O24_5 In6_6 1_555 1_555
O25_13 In6_6 1_555 1_555
O26_5 In2_5 1_555 1_555
C6_5 C7_5 1_555 1_555
C18_5 C19_5 1_555 1_555
C20_5 C21_5 1_555 1_555
C39_9 C40_9 1_555 1_555
C41_9 C42_9 1_555 1_555
In7_4 O17_13 1_555 1_555
O20_7 C15_5 1_555 1_555
O22 C15_5 1_555 1_555
C8_5 C9_5 1_555 1_555
C9_5 C10_5 1_555 1_555
C10_5 H5_5 1_555 1_555
C11_5 C10_5 1_555 1_555
H6_5 C11_5 1_555 1_555
C12_5 C11_5 1_555 1_555
C13_5 C12_5 1_555 1_555
H7_5 C13_5 1_555 1_555
C14_5 C9_5 1_555 1_555
H8_5 C14_5 1_555 1_555
C15_5 C12_5 1_555 1_555
N2_5 C5_5 1_555 1_555
H13_5 N2_5 1_555 1_555
O9_5 C8_5 1_555 1_555
H17_9 C28_9 1_555 1_555
In12_3 O11_9 1_555 1_555
C8_5 N2_5 1_555 1_555
C13_5 C14_5 1_555 1_555
C27_9 C28_9 1_555 1_555
In7_5 O17_14 1_555 1_555
In12_3 O17_14 1_555 1_555
In6_4 O1_8 1_555 1_555
O1_8 In11_3 1_555 1_555
O2_20 In6_4 1_555 1_555
H3_6 C6_6 1_555 1_555
H4_6 C7_6 1_555 1_555
H8_6 C14_6 1_555 1_555
In11_3 O4_6 1_555 1_555
O25_14 In6_4 1_555 1_555
C6_6 C7_6 1_555 1_555
O2_20 H27_7 1_555 1_555
O2_20 H28_7 1_555 1_555
In6_5 O1_9 1_555 1_555
In2_6 O1_9 1_555 1_555
O2_21 In6_5 1_555 1_555
O3_6 In2_6 1_555 1_555
O20_5 C15_6 1_555 1_555
O22_2 C15_6 1_555 1_555
O7_6 C16_6 1_555 1_555
O8_6 C16_6 1_555 1_555
N1_6 In2_6 1_555 1_555
C1_6 O3_6 1_555 1_555
C2_6 C1_6 1_555 1_555
C3_6 C2_6 1_555 1_555
H1_6 C3_6 1_555 1_555
C4_6 C3_6 1_555 1_555
H2_6 C4_6 1_555 1_555
C5_6 C4_6 1_555 1_555
C8_6 C9_6 1_555 1_555
C9_6 C10_6 1_555 1_555
C10_6 H5_6 1_555 1_555
C11_6 C10_6 1_555 1_555
H6_6 C11_6 1_555 1_555
C12_6 C11_6 1_555 1_555
C13_6 C12_6 1_555 1_555
C15_6 C12_6 1_555 1_555
C16_6 C17_6 1_555 1_555
C17_6 C18_6 1_555 1_555
C18_6 H9_6 1_555 1_555
C19_6 N1_6 1_555 1_555
H10_6 C19_6 1_555 1_555
C20_6 N1_6 1_555 1_555
H11_6 C20_6 1_555 1_555
C21_6 C17_6 1_555 1_555
H12_6 C21_6 1_555 1_555
N2_6 C5_6 1_555 1_555
H13_6 N2_6 1_555 1_555
In3_6 O8_6 1_555 1_555
O10_10 In3_6 1_555 1_555
O11_10 C22_10 1_555 1_555
O14_6 C37_10 1_555 1_555
O15_6 C37_10 1_555 1_555
N3_10 In3_6 1_555 1_555
C22_10 O10_10 1_555 1_555
C23_10 C22_10 1_555 1_555
C24_10 C23_10 1_555 1_555
H14_10 C24_10 1_555 1_555
C25_10 C24_10 1_555 1_555
C28_10 C23_10 1_555 1_555
H17_10 C28_10 1_555 1_555
C37_10 C38_10 1_555 1_555
C38_10 C39_10 1_555 1_555
C39_10 H22_10 1_555 1_555
C40_10 N3_10 1_555 1_555
H23_10 C40_10 1_555 1_555
C41_10 N3_10 1_555 1_555
H24_10 C41_10 1_555 1_555
C42_10 C38_10 1_555 1_555
H25_10 C42_10 1_555 1_555
In7_6 O7_6 1_555 1_555
In6_7 O14_6 1_555 1_555
In8_6 O15_6 1_555 1_555
In12_4 O11_10 1_555 1_555
O17_15 In3_6 1_555 1_555
O18_6 In2_6 1_555 1_555
O19_10 In3_6 1_555 1_555
O20_14 In6_5 1_555 1_555
O22_10 In3_6 1_555 1_555
O23_6 In2_6 1_555 1_555
O24_6 In6_5 1_555 1_555
O26_6 In2_6 1_555 1_555
C8_6 N2_6 1_555 1_555
C18_6 C19_6 1_555 1_555
C20_6 C21_6 1_555 1_555
C27_10 C28_10 1_555 1_555
C39_10 C40_10 1_555 1_555
C41_10 C42_10 1_555 1_555
In7_6 O17_15 1_555 1_555
In12_4 O17_15 1_555 1_555
O20_3 C36_10 1_555 1_555
O23_3 C36_10 1_555 1_555
C29_10 C30_10 1_555 1_555
C30_10 C31_10 1_555 1_555
C31_10 H18_10 1_555 1_555
C32_10 C31_10 1_555 1_555
H19_10 C32_10 1_555 1_555
C33_10 C32_10 1_555 1_555
C34_10 C33_10 1_555 1_555
H20_9 C34_10 1_555 1_555
C35_9 C30_10 1_555 1_555
H21_9 C35_9 1_555 1_555
C36_10 C33_10 1_555 1_555
N4_10 C26_10 1_555 1_555
H26_10 N4_10 1_555 1_555
O16_9 C29_10 1_555 1_555
C29_10 N4_10 1_555 1_555
C34_10 C35_9 1_555 1_555
O20_8 C15_7 1_555 1_555
O22_4 C15_7 1_555 1_555
C8_7 C9_7 1_555 1_555
C9_7 C10_7 1_555 1_555
C10_7 H5_7 1_555 1_555
C11_7 C10_7 1_555 1_555
H6_7 C11_7 1_555 1_555
C12_7 C11_7 1_555 1_555
C13_7 C12_7 1_555 1_555
C15_7 C12_7 1_555 1_555
N2_7 C5_7 1_555 1_555
H13_7 N2_7 1_555 1_555
H16_10 C27_11 1_555 1_555
H17_11 C28_11 1_555 1_555
H21_10 C35_10 1_555 1_555
In12_2 O11_11 1_555 1_555
C8_7 N2_7 1_555 1_555
C27_11 C28_11 1_555 1_555
In7_2 O17_16 1_555 1_555
In12_2 O17_16 1_555 1_555
In6 O1_10 1_555 1_555
In2_7 O1_10 1_555 1_555
O2_22 In6 1_555 1_555
O3_7 In2_7 1_555 1_555
O7_7 C16_7 1_555 1_555
O8_7 C16_7 1_555 1_555
N1_7 In2_7 1_555 1_555
C1_7 O3_7 1_555 1_555
C2_7 C1_7 1_555 1_555
C3_7 C2_7 1_555 1_555
H1_7 C3_7 1_555 1_555
C4_7 C3_7 1_555 1_555
C16_7 C17_7 1_555 1_555
C17_7 C18_7 1_555 1_555
C18_7 H9_7 1_555 1_555
C19_7 N1_7 1_555 1_555
H10_7 C19_7 1_555 1_555
C20_7 N1_7 1_555 1_555
H11_7 C20_7 1_555 1_555
C21_7 C17_7 1_555 1_555
H12_7 C21_7 1_555 1_555
In3_7 O8_7 1_555 1_555
O10_11 In3_7 1_555 1_555
O20 C36_11 1_555 1_555
O23 C36_11 1_555 1_555
O14_7 C37_11 1_555 1_555
O15_7 C37_11 1_555 1_555
N3_11 In3_7 1_555 1_555
C22_11 O10_11 1_555 1_555
C23_11 C22_11 1_555 1_555
C24_11 C23_11 1_555 1_555
H14_11 C24_11 1_555 1_555
C25_11 C24_11 1_555 1_555
H15_11 C25_11 1_555 1_555
C26_11 C25_11 1_555 1_555
C29_11 C30_11 1_555 1_555
C30_11 C31_11 1_555 1_555
C31_11 H18_11 1_555 1_555
C32_11 C31_11 1_555 1_555
H19_11 C32_11 1_555 1_555
C33_11 C32_11 1_555 1_555
C34_11 C33_11 1_555 1_555
C36_11 C33_11 1_555 1_555
C37_11 C38_11 1_555 1_555
C38_11 C39_11 1_555 1_555
C39_11 H22_11 1_555 1_555
C40_11 N3_11 1_555 1_555
H23_11 C40_11 1_555 1_555
C41_11 N3_11 1_555 1_555
H24_11 C41_11 1_555 1_555
C42_11 C38_11 1_555 1_555
H25_11 C42_11 1_555 1_555
N4_11 C26_11 1_555 1_555
H26_11 N4_11 1_555 1_555
In7_3 O7_7 1_555 1_555
In6_12 O14_7 1_555 1_555
In8_7 O15_7 1_555 1_555
O17_17 In3_7 1_555 1_555
O18_7 In2_7 1_555 1_555
O19_11 In3_7 1_555 1_555
O20_15 In6 1_555 1_555
O22_11 In3_7 1_555 1_555
O23_7 In2_7 1_555 1_555
O24_7 In6 1_555 1_555
O26_7 In2_7 1_555 1_555
C18_7 C19_7 1_555 1_555
C20_7 C21_7 1_555 1_555
C29_11 N4_11 1_555 1_555
C39_11 C40_11 1_555 1_555
C41_11 C42_11 1_555 1_555
In7_3 O17_17 1_555 1_555
In6_2 O1_11 1_555 1_555
O1_11 In11 1_555 1_555
O2_23 In6_2 1_555 1_555
H4_7 C7_7 1_555 1_555
In11 O4_7 1_555 1_555
O25_15 In6_2 1_555 1_555
C6_7 C7_7 1_555 1_555
O2_23 H27_8 1_555 1_555
O2_23 H28_8 1_555 1_555
In6_3 O1_12 1_555 1_555
In2_8 O1_12 1_555 1_555
O1_12 In11_2 1_555 1_555
O2_24 In6_3 1_555 1_555
O3_8 In2_8 1_555 1_555
O4_8 C1_8 1_555 1_555
O20_6 C15_8 1_555 1_555
O22_3 C15_8 1_555 1_555
O7_8 C16_8 1_555 1_555
O8_8 C16_8 1_555 1_555
N1_8 In2_8 1_555 1_555
C1_8 O3_8 1_555 1_555
C2_8 C1_8 1_555 1_555
C3_8 C2_8 1_555 1_555
H1_8 C3_8 1_555 1_555
C4_8 C3_8 1_555 1_555
H2_8 C4_8 1_555 1_555
C5_8 C4_8 1_555 1_555
C6_8 C5_8 1_555 1_555
H3_7 C6_8 1_555 1_555
C7_8 C2_8 1_555 1_555
H4_8 C7_8 1_555 1_555
C8_8 C9_8 1_555 1_555
C9_8 C10_8 1_555 1_555
C10_8 H5_8 1_555 1_555
C11_8 C10_8 1_555 1_555
H6_8 C11_8 1_555 1_555
C12_8 C11_8 1_555 1_555
C13_8 C12_8 1_555 1_555
H7_7 C13_8 1_555 1_555
C14_7 C9_8 1_555 1_555
H8_7 C14_7 1_555 1_555
C15_8 C12_8 1_555 1_555
C16_8 C17_8 1_555 1_555
C17_8 C18_8 1_555 1_555
C18_8 H9_8 1_555 1_555
C19_8 N1_8 1_555 1_555
H10_8 C19_8 1_555 1_555
C20_8 N1_8 1_555 1_555
H11_8 C20_8 1_555 1_555
C21_8 C17_8 1_555 1_555
H12_8 C21_8 1_555 1_555
N2_8 C5_8 1_555 1_555
H13_8 N2_8 1_555 1_555
O9_7 C8_8 1_555 1_555
In3_8 O8_8 1_555 1_555
O10_12 In3_8 1_555 1_555
O11_12 C22_12 1_555 1_555
O20_2 C36_12 1_555 1_555
O23_2 C36_12 1_555 1_555
O14_8 C37_12 1_555 1_555
O15_8 C37_12 1_555 1_555
N3_12 In3_8 1_555 1_555
C22_12 O10_12 1_555 1_555
C23_12 C22_12 1_555 1_555
C24_12 C23_12 1_555 1_555
H14_12 C24_12 1_555 1_555
C25_12 C24_12 1_555 1_555
H15_12 C25_12 1_555 1_555
C26_12 C25_12 1_555 1_555
C27_12 C26_12 1_555 1_555
H16_11 C27_12 1_555 1_555
C28_12 C23_12 1_555 1_555
H17_12 C28_12 1_555 1_555
C29_12 C30_12 1_555 1_555
C30_12 C31_12 1_555 1_555
C31_12 H18_12 1_555 1_555
C32_12 C31_12 1_555 1_555
H19_12 C32_12 1_555 1_555
C33_12 C32_12 1_555 1_555
C34_12 C33_12 1_555 1_555
H20_11 C34_12 1_555 1_555
C35_11 C30_12 1_555 1_555
H21_11 C35_11 1_555 1_555
C36_12 C33_12 1_555 1_555
C37_12 C38_12 1_555 1_555
C38_12 C39_12 1_555 1_555
C39_12 H22_12 1_555 1_555
C40_12 N3_12 1_555 1_555
H23_12 C40_12 1_555 1_555
C41_12 N3_12 1_555 1_555
H24_12 C41_12 1_555 1_555
C42_12 C38_12 1_555 1_555
H25_12 C42_12 1_555 1_555
N4_12 C26_12 1_555 1_555
H26_12 N4_12 1_555 1_555
O16_11 C29_12 1_555 1_555
In7 O7_8 1_555 1_555
In6_9 O14_8 1_555 1_555
In8_8 O15_8 1_555 1_555
In11_2 O4_8 1_555 1_555
In12 O11_12 1_555 1_555
O17_18 In3_8 1_555 1_555
O18_8 In2_8 1_555 1_555
O19_12 In3_8 1_555 1_555
O20_16 In6_3 1_555 1_555
O22_12 In3_8 1_555 1_555
O23_8 In2_8 1_555 1_555
O24_8 In6_3 1_555 1_555
O25_16 In6_3 1_555 1_555
O26_8 In2_8 1_555 1_555
C6_8 C7_8 1_555 1_555
C8_8 N2_8 1_555 1_555
C13_8 C14_7 1_555 1_555
C18_8 C19_8 1_555 1_555
C20_8 C21_8 1_555 1_555
C27_12 C28_12 1_555 1_555
C29_12 N4_12 1_555 1_555
C34_12 C35_11 1_555 1_555
C39_12 C40_12 1_555 1_555
C41_12 C42_12 1_555 1_555
In7 O17_18 1_555 1_555
In12 O17_18 1_555 1_555
O20_12 C36_13 1_555 1_555
O22_8 C36_13 1_555 1_555
C29_13 C30_13 1_555 1_555
C30_13 C31_13 1_555 1_555
C31_13 H18_13 1_555 1_555
C32_13 C31_13 1_555 1_555
H19_13 C32_13 1_555 1_555
C33_13 C32_13 1_555 1_555
C34_13 C33_13 1_555 1_555
C36_13 C33_13 1_555 1_555
N4_13 C26_13 1_555 1_555
H26_13 N4_13 1_555 1_555
C29_13 N4_13 1_555 1_555
O2_25 In7_6 1_555 1_555
O10_13 In8_6 1_555 1_555
O24_6 C37_13 1_555 1_555
O26_6 C37_13 1_555 1_555
N3_13 In8_6 1_555 1_555
C22_13 O10_13 1_555 1_555
C23_13 C22_13 1_555 1_555
C24_13 C23_13 1_555 1_555
H14_13 C24_13 1_555 1_555
C25_13 C24_13 1_555 1_555
C37_13 C38_13 1_555 1_555
C38_13 C39_13 1_555 1_555
C39_13 H22_13 1_555 1_555
C40_13 N3_13 1_555 1_555
H23_13 C40_13 1_555 1_555
C41_13 N3_13 1_555 1_555
H24_13 C41_13 1_555 1_555
C42_13 C38_13 1_555 1_555
H25_13 C42_13 1_555 1_555
O17_19 In8_6 1_555 1_555
O19_13 In8_6 1_555 1_555
O20_17 In7_6 1_555 1_555
O22_13 In8_6 1_555 1_555
O25_17 In7_6 1_555 1_555
C39_13 C40_13 1_555 1_555
C41_13 C42_13 1_555 1_555
In6_7 O17_19 1_555 1_555
H17_13 C28_13 1_555 1_555
In11_5 O11_13 1_555 1_555
C27_13 C28_13 1_555 1_555
In6_8 O17_20 1_555 1_555
In11_5 O17_20 1_555 1_555
O2_26 In7_2 1_555 1_555
O25_18 In7_2 1_555 1_555
O2_26 H27_9 1_555 1_555
O2_26 H28_9 1_555 1_555
O2_27 In7_3 1_555 1_555
O10_14 In8_7 1_555 1_555
O11_14 C22_14 1_555 1_555
O24_7 C37_14 1_555 1_555
O26_7 C37_14 1_555 1_555
N3_14 In8_7 1_555 1_555
C22_14 O10_14 1_555 1_555
C23_14 C22_14 1_555 1_555
C24_14 C23_14 1_555 1_555
H14_14 C24_14 1_555 1_555
C25_14 C24_14 1_555 1_555
C28_14 C23_14 1_555 1_555
H17_14 C28_14 1_555 1_555
C37_14 C38_14 1_555 1_555
C38_14 C39_14 1_555 1_555
C39_14 H22_14 1_555 1_555
C40_14 N3_14 1_555 1_555
H23_14 C40_14 1_555 1_555
C41_14 N3_14 1_555 1_555
H24_14 C41_14 1_555 1_555
C42_14 C38_14 1_555 1_555
H25_14 C42_14 1_555 1_555
In11_8 O11_14 1_555 1_555
O17_21 In8_7 1_555 1_555
O19_14 In8_7 1_555 1_555
O20_18 In7_3 1_555 1_555
O22_14 In8_7 1_555 1_555
C27_14 C28_14 1_555 1_555
C39_14 C40_14 1_555 1_555
C41_14 C42_14 1_555 1_555
In6_12 O17_21 1_555 1_555
In11_8 O17_21 1_555 1_555
O20_11 C36_14 1_555 1_555
O22_5 C36_14 1_555 1_555
C29_14 C30_14 1_555 1_555
C30_14 C31_14 1_555 1_555
C31_14 H18_14 1_555 1_555
C32_14 C31_14 1_555 1_555
H19_14 C32_14 1_555 1_555
C33_14 C32_14 1_555 1_555
C34_14 C33_14 1_555 1_555
H20_12 C34_14 1_555 1_555
C35_12 C30_14 1_555 1_555
H21_12 C35_12 1_555 1_555
C36_14 C33_14 1_555 1_555
N4_14 C26_14 1_555 1_555
H26_14 N4_14 1_555 1_555
O16_12 C29_14 1_555 1_555
C29_14 N4_14 1_555 1_555
C34_14 C35_12 1_555 1_555
H16_13 C27_15 1_555 1_555
H17_15 C28_15 1_555 1_555
H21_13 C35_13 1_555 1_555
In11_7 O11_15 1_555 1_555
C27_15 C28_15 1_555 1_555
In6_10 O17_22 1_555 1_555
In11_7 O17_22 1_555 1_555
O2_28 In7_4 1_555 1_555
O10_15 In8_5 1_555 1_555
O20_9 C36_15 1_555 1_555
O22_6 C36_15 1_555 1_555
O24_5 C37_15 1_555 1_555
O26_5 C37_15 1_555 1_555
N3_15 In8_5 1_555 1_555
C22_15 O10_15 1_555 1_555
C23_15 C22_15 1_555 1_555
C24_15 C23_15 1_555 1_555
H14_15 C24_15 1_555 1_555
C25_15 C24_15 1_555 1_555
H15_15 C25_15 1_555 1_555
C26_15 C25_15 1_555 1_555
C29_15 C30_15 1_555 1_555
C30_15 C31_15 1_555 1_555
C31_15 H18_15 1_555 1_555
C32_15 C31_15 1_555 1_555
H19_15 C32_15 1_555 1_555
C33_15 C32_15 1_555 1_555
C34_15 C33_15 1_555 1_555
C36_15 C33_15 1_555 1_555
C37_15 C38_15 1_555 1_555
C38_15 C39_15 1_555 1_555
C39_15 H22_15 1_555 1_555
C40_15 N3_15 1_555 1_555
H23_15 C40_15 1_555 1_555
C41_15 N3_15 1_555 1_555
H24_15 C41_15 1_555 1_555
C42_15 C38_15 1_555 1_555
H25_15 C42_15 1_555 1_555
N4_15 C26_15 1_555 1_555
H26_15 N4_15 1_555 1_555
O17_23 In8_5 1_555 1_555
O19_15 In8_5 1_555 1_555
O20_19 In7_4 1_555 1_555
O22_15 In8_5 1_555 1_555
C29_15 N4_15 1_555 1_555
C39_15 C40_15 1_555 1_555
C41_15 C42_15 1_555 1_555
In6_11 O17_23 1_555 1_555
O2_29 In7_5 1_555 1_555
O25_19 In7_5 1_555 1_555
O2_29 H27_10 1_555 1_555
O2_29 H28_10 1_555 1_555
O2_30 In7 1_555 1_555
O10_16 In8_8 1_555 1_555
O11_16 C22_16 1_555 1_555
O20_10 C36_16 1_555 1_555
O22_7 C36_16 1_555 1_555
O24_8 C37_16 1_555 1_555
O26_8 C37_16 1_555 1_555
N3_16 In8_8 1_555 1_555
C22_16 O10_16 1_555 1_555
C23_16 C22_16 1_555 1_555
C24_16 C23_16 1_555 1_555
H14_16 C24_16 1_555 1_555
C25_16 C24_16 1_555 1_555
H15_16 C25_16 1_555 1_555
C26_16 C25_16 1_555 1_555
C27_16 C26_16 1_555 1_555
H16_14 C27_16 1_555 1_555
C28_16 C23_16 1_555 1_555
H17_16 C28_16 1_555 1_555
C29_16 C30_16 1_555 1_555
C30_16 C31_16 1_555 1_555
C31_16 H18_16 1_555 1_555
C32_16 C31_16 1_555 1_555
H19_16 C32_16 1_555 1_555
C33_16 C32_16 1_555 1_555
C34_16 C33_16 1_555 1_555
H20_14 C34_16 1_555 1_555
C35_14 C30_16 1_555 1_555
H21_14 C35_14 1_555 1_555
C36_16 C33_16 1_555 1_555
C37_16 C38_16 1_555 1_555
C38_16 C39_16 1_555 1_555
C39_16 H22_16 1_555 1_555
C40_16 N3_16 1_555 1_555
H23_16 C40_16 1_555 1_555
C41_16 N3_16 1_555 1_555
H24_16 C41_16 1_555 1_555
C42_16 C38_16 1_555 1_555
H25_16 C42_16 1_555 1_555
N4_16 C26_16 1_555 1_555
H26_16 N4_16 1_555 1_555
O16_14 C29_16 1_555 1_555
In11_6 O11_16 1_555 1_555
O17_24 In8_8 1_555 1_555
O19_16 In8_8 1_555 1_555
O20_20 In7 1_555 1_555
O22_16 In8_8 1_555 1_555
O25_20 In7 1_555 1_555
C27_16 C28_16 1_555 1_555
C29_16 N4_16 1_555 1_555
C34_16 C35_14 1_555 1_555
C39_16 C40_16 1_555 1_555
C41_16 C42_16 1_555 1_555
In6_9 O17_24 1_555 1_555
In11_6 O17_24 1_555 1_555
O2_31 In6_12 1_555 1_555
O20_21 In6_12 1_555 1_555
O25_21 In6_12 1_555 1_555
O2_32 In6_10 1_555 1_555
O25_22 In6_10 1_555 1_555
O2_32 H27_11 1_555 1_555
O2_32 H28_11 1_555 1_555
O2_33 In6_11 1_555 1_555
O20_22 In6_11 1_555 1_555
O2_34 In6_7 1_555 1_555
O20_23 In6_7 1_555 1_555
O2_35 In6_8 1_555 1_555
O25_23 In6_8 1_555 1_555
O2_35 H27_12 1_555 1_555
O2_35 H28_12 1_555 1_555
O2_36 In6_9 1_555 1_555
O20_24 In6_9 1_555 1_555
O25_24 In6_9 1_555 1_555
O19_4 C22_17 1_555 1_555
O20_16 C36_17 1_555 1_555
O23_8 C36_17 1_555 1_555
C22_17 O10_17 1_555 1_555
C23_17 C22_17 1_555 1_555
C24_17 C23_17 1_555 1_555
H14_17 C24_17 1_555 1_555
C25_17 C24_17 1_555 1_555
H15_17 C25_17 1_555 1_555
C26_17 C25_17 1_555 1_555
C27_17 C26_17 1_555 1_555
H16_15 C27_17 1_555 1_555
C28_17 C23_17 1_555 1_555
H17_17 C28_17 1_555 1_555
C29_17 C30_17 1_555 1_555
C30_17 C31_17 1_555 1_555
C31_17 H18_17 1_555 1_555
C32_17 C31_17 1_555 1_555
H19_17 C32_17 1_555 1_555
C33_17 C32_17 1_555 1_555
C34_17 C33_17 1_555 1_555
H20_15 C34_17 1_555 1_555
C35_15 C30_17 1_555 1_555
H21_15 C35_15 1_555 1_555
C36_17 C33_17 1_555 1_555
H23_17 C40_17 1_555 1_555
N4_17 C26_17 1_555 1_555
H26_17 N4_17 1_555 1_555
O16_15 C29_17 1_555 1_555
C27_17 C28_17 1_555 1_555
C29_17 N4_17 1_555 1_555
C34_17 C35_15 1_555 1_555
O25_8 C16_9 1_555 1_555
O8_9 C16_9 1_555 1_555
N1_9 In9_2 1_555 1_555
C16_9 C17_9 1_555 1_555
C17_9 C18_9 1_555 1_555
C20_9 N1_9 1_555 1_555
H11_9 C20_9 1_555 1_555
C21_9 C17_9 1_555 1_555
H12_9 C21_9 1_555 1_555
In10_4 O8_9 1_555 1_555
O25_9 C37_17 1_555 1_555
O15_9 C37_17 1_555 1_555
N3_17 In10_4 1_555 1_555
C37_17 C38_17 1_555 1_555
C38_17 C39_17 1_555 1_555
C41_17 N3_17 1_555 1_555
H24_17 C41_17 1_555 1_555
C42_17 C38_17 1_555 1_555
H25_17 C42_17 1_555 1_555
In10_6 O15_9 1_555 1_555
O26_9 In9_2 1_555 1_555
C20_9 C21_9 1_555 1_555
C41_17 C42_17 1_555 1_555
O2_2 H28_13 1_555 1_555
O18_2 C1_9 1_555 1_555
O20_19 C15_9 1_555 1_555
O22_9 C15_9 1_555 1_555
C1_9 O3_9 1_555 1_555
C2_9 C1_9 1_555 1_555
C3_9 C2_9 1_555 1_555
H1_9 C3_9 1_555 1_555
C4_9 C3_9 1_555 1_555
H2_9 C4_9 1_555 1_555
C5_9 C4_9 1_555 1_555
C6_9 C5_9 1_555 1_555
H3_8 C6_9 1_555 1_555
C7_9 C2_9 1_555 1_555
H4_9 C7_9 1_555 1_555
C8_9 C9_9 1_555 1_555
C9_9 C10_9 1_555 1_555
C10_9 H5_9 1_555 1_555
C11_9 C10_9 1_555 1_555
H6_9 C11_9 1_555 1_555
C12_9 C11_9 1_555 1_555
C13_9 C12_9 1_555 1_555
H7_8 C13_9 1_555 1_555
C14_8 C9_9 1_555 1_555
H8_8 C14_8 1_555 1_555
C15_9 C12_9 1_555 1_555
H10_9 C19_9 1_555 1_555
N2_9 C5_9 1_555 1_555
H13_9 N2_9 1_555 1_555
O9_8 C8_9 1_555 1_555
C6_9 C7_9 1_555 1_555
C8_9 N2_9 1_555 1_555
C13_9 C14_8 1_555 1_555
O2_3 H27_13 1_555 1_555
O3_10 In9 1_555 1_555
O18 C1_10 1_555 1_555
O20_17 C15_10 1_555 1_555
O22_10 C15_10 1_555 1_555
O25_6 C16_10 1_555 1_555
O8_10 C16_10 1_555 1_555
N1_10 In9 1_555 1_555
C1_10 O3_10 1_555 1_555
C2_10 C1_10 1_555 1_555
C3_10 C2_10 1_555 1_555
H1_10 C3_10 1_555 1_555
C4_10 C3_10 1_555 1_555
H2_10 C4_10 1_555 1_555
C5_10 C4_10 1_555 1_555
C6_10 C5_10 1_555 1_555
H3_9 C6_10 1_555 1_555
C7_10 C2_10 1_555 1_555
H4_10 C7_10 1_555 1_555
C8_10 C9_10 1_555 1_555
C9_10 C10_10 1_555 1_555
C10_10 H5_10 1_555 1_555
C11_10 C10_10 1_555 1_555
H6_10 C11_10 1_555 1_555
C12_10 C11_10 1_555 1_555
C13_10 C12_10 1_555 1_555
H7_9 C13_10 1_555 1_555
C14_9 C9_10 1_555 1_555
H8_9 C14_9 1_555 1_555
C15_10 C12_10 1_555 1_555
C16_10 C17_10 1_555 1_555
C17_10 C18_10 1_555 1_555
C18_10 H9_10 1_555 1_555
C19_10 N1_10 1_555 1_555
H10_10 C19_10 1_555 1_555
C20_10 N1_10 1_555 1_555
H11_10 C20_10 1_555 1_555
C21_10 C17_10 1_555 1_555
H12_10 C21_10 1_555 1_555
N2_10 C5_10 1_555 1_555
H13_10 N2_10 1_555 1_555
O9_9 C8_10 1_555 1_555
In10_3 O8_10 1_555 1_555
O25_12 C37_18 1_555 1_555
O15_10 C37_18 1_555 1_555
N3_18 In10_3 1_555 1_555
C37_18 C38_18 1_555 1_555
C38_18 C39_18 1_555 1_555
C41_18 N3_18 1_555 1_555
H24_18 C41_18 1_555 1_555
C42_18 C38_18 1_555 1_555
H25_18 C42_18 1_555 1_555
In10_8 O15_10 1_555 1_555
O23_10 In9 1_555 1_555
O26_10 In9 1_555 1_555
C6_10 C7_10 1_555 1_555
C8_10 N2_10 1_555 1_555
C13_10 C14_9 1_555 1_555
C18_10 C19_10 1_555 1_555
C20_10 C21_10 1_555 1_555
C41_18 C42_18 1_555 1_555
O19_3 C22_18 1_555 1_555
O20_15 C36_18 1_555 1_555
O23_7 C36_18 1_555 1_555
C22_18 O10_18 1_555 1_555
C23_18 C22_18 1_555 1_555
C24_18 C23_18 1_555 1_555
H14_18 C24_18 1_555 1_555
C25_18 C24_18 1_555 1_555
H15_18 C25_18 1_555 1_555
C26_18 C25_18 1_555 1_555
C27_18 C26_18 1_555 1_555
H16_16 C27_18 1_555 1_555
C28_18 C23_18 1_555 1_555
H17_18 C28_18 1_555 1_555
C29_18 C30_18 1_555 1_555
C30_18 C31_18 1_555 1_555
C31_18 H18_18 1_555 1_555
C32_18 C31_18 1_555 1_555
H19_18 C32_18 1_555 1_555
C33_18 C32_18 1_555 1_555
C34_18 C33_18 1_555 1_555
H20_16 C34_18 1_555 1_555
C35_16 C30_18 1_555 1_555
H21_16 C35_16 1_555 1_555
C36_18 C33_18 1_555 1_555
H23_18 C40_18 1_555 1_555
N4_18 C26_18 1_555 1_555
H26_18 N4_18 1_555 1_555
O16_16 C29_18 1_555 1_555
C27_18 C28_18 1_555 1_555
C29_18 N4_18 1_555 1_555
C34_18 C35_16 1_555 1_555
O18_4 C1_11 1_555 1_555
O20_20 C15_11 1_555 1_555
O22_12 C15_11 1_555 1_555
C1_11 O3_11 1_555 1_555
C2_11 C1_11 1_555 1_555
C3_11 C2_11 1_555 1_555
H1_11 C3_11 1_555 1_555
C4_11 C3_11 1_555 1_555
H2_11 C4_11 1_555 1_555
C5_11 C4_11 1_555 1_555
C6_11 C5_11 1_555 1_555
H3_10 C6_11 1_555 1_555
C7_11 C2_11 1_555 1_555
H4_11 C7_11 1_555 1_555
C8_11 C9_11 1_555 1_555
C9_11 C10_11 1_555 1_555
C10_11 H5_11 1_555 1_555
C11_11 C10_11 1_555 1_555
H6_11 C11_11 1_555 1_555
C12_11 C11_11 1_555 1_555
C13_11 C12_11 1_555 1_555
H7_10 C13_11 1_555 1_555
C14_10 C9_11 1_555 1_555
H8_10 C14_10 1_555 1_555
C15_11 C12_11 1_555 1_555
H10_11 C19_11 1_555 1_555
N2_11 C5_11 1_555 1_555
H13_11 N2_11 1_555 1_555
O9_10 C8_11 1_555 1_555
C6_11 C7_11 1_555 1_555
C8_11 N2_11 1_555 1_555
C13_11 C14_10 1_555 1_555
O2_5 H27_14 1_555 1_555
O25_5 C16_11 1_555 1_555
O8_11 C16_11 1_555 1_555
N1_11 In9_4 1_555 1_555
C16_11 C17_11 1_555 1_555
C17_11 C18_11 1_555 1_555
C20_11 N1_11 1_555 1_555
H11_11 C20_11 1_555 1_555
C21_11 C17_11 1_555 1_555
H12_11 C21_11 1_555 1_555
In10_2 O8_11 1_555 1_555
O10_19 In10_2 1_555 1_555
O19_2 C22_19 1_555 1_555
O20_13 C36_19 1_555 1_555
O23_5 C36_19 1_555 1_555
O25_10 C37_19 1_555 1_555
O15_11 C37_19 1_555 1_555
N3_19 In10_2 1_555 1_555
C22_19 O10_19 1_555 1_555
C23_19 C22_19 1_555 1_555
C24_19 C23_19 1_555 1_555
H14_19 C24_19 1_555 1_555
C25_19 C24_19 1_555 1_555
H15_19 C25_19 1_555 1_555
C26_19 C25_19 1_555 1_555
C27_19 C26_19 1_555 1_555
H16_17 C27_19 1_555 1_555
C28_19 C23_19 1_555 1_555
H17_19 C28_19 1_555 1_555
C29_19 C30_19 1_555 1_555
C30_19 C31_19 1_555 1_555
C31_19 H18_19 1_555 1_555
C32_19 C31_19 1_555 1_555
H19_19 C32_19 1_555 1_555
C33_19 C32_19 1_555 1_555
C34_19 C33_19 1_555 1_555
H20_17 C34_19 1_555 1_555
C35_17 C30_19 1_555 1_555
H21_17 C35_17 1_555 1_555
C36_19 C33_19 1_555 1_555
C37_19 C38_19 1_555 1_555
C38_19 C39_19 1_555 1_555
C39_19 H22_19 1_555 1_555
C40_19 N3_19 1_555 1_555
H23_19 C40_19 1_555 1_555
C41_19 N3_19 1_555 1_555
H24_19 C41_19 1_555 1_555
C42_19 C38_19 1_555 1_555
H25_19 C42_19 1_555 1_555
N4_19 C26_19 1_555 1_555
H26_19 N4_19 1_555 1_555
O16_17 C29_19 1_555 1_555
In10_7 O15_11 1_555 1_555
O22_19 In10_2 1_555 1_555
O26_11 In9_4 1_555 1_555
C20_11 C21_11 1_555 1_555
C27_19 C28_19 1_555 1_555
C29_19 N4_19 1_555 1_555
C34_19 C35_17 1_555 1_555
C39_19 C40_19 1_555 1_555
C41_19 C42_19 1_555 1_555
O2_6 H28_14 1_555 1_555
O3_12 In9_3 1_555 1_555
O18_3 C1_12 1_555 1_555
O20_18 C15_12 1_555 1_555
O22_11 C15_12 1_555 1_555
O25_7 C16_12 1_555 1_555
O8_12 C16_12 1_555 1_555
N1_12 In9_3 1_555 1_555
C1_12 O3_12 1_555 1_555
C2_12 C1_12 1_555 1_555
C3_12 C2_12 1_555 1_555
H1_12 C3_12 1_555 1_555
C4_12 C3_12 1_555 1_555
H2_12 C4_12 1_555 1_555
C5_12 C4_12 1_555 1_555
C6_12 C5_12 1_555 1_555
H3_11 C6_12 1_555 1_555
C7_12 C2_12 1_555 1_555
H4_12 C7_12 1_555 1_555
C8_12 C9_12 1_555 1_555
C9_12 C10_12 1_555 1_555
C10_12 H5_12 1_555 1_555
C11_12 C10_12 1_555 1_555
H6_12 C11_12 1_555 1_555
C12_12 C11_12 1_555 1_555
C13_12 C12_12 1_555 1_555
H7_11 C13_12 1_555 1_555
C14_11 C9_12 1_555 1_555
H8_11 C14_11 1_555 1_555
C15_12 C12_12 1_555 1_555
C16_12 C17_12 1_555 1_555
C17_12 C18_12 1_555 1_555
C18_12 H9_12 1_555 1_555
C19_12 N1_12 1_555 1_555
H10_12 C19_12 1_555 1_555
C20_12 N1_12 1_555 1_555
H11_12 C20_12 1_555 1_555
C21_12 C17_12 1_555 1_555
H12_12 C21_12 1_555 1_555
N2_12 C5_12 1_555 1_555
H13_12 N2_12 1_555 1_555
O9_11 C8_12 1_555 1_555
In10 O8_12 1_555 1_555
O10_20 In10 1_555 1_555
O19 C22_20 1_555 1_555
O20_14 C36_20 1_555 1_555
O23_6 C36_20 1_555 1_555
O25_11 C37_20 1_555 1_555
O15_12 C37_20 1_555 1_555
N3_20 In10 1_555 1_555
C22_20 O10_20 1_555 1_555
C23_20 C22_20 1_555 1_555
C24_20 C23_20 1_555 1_555
H14_20 C24_20 1_555 1_555
C25_20 C24_20 1_555 1_555
H15_20 C25_20 1_555 1_555
C26_20 C25_20 1_555 1_555
C27_20 C26_20 1_555 1_555
H16_18 C27_20 1_555 1_555
C28_20 C23_20 1_555 1_555
H17_20 C28_20 1_555 1_555
C29_20 C30_20 1_555 1_555
C30_20 C31_20 1_555 1_555
C31_20 H18_20 1_555 1_555
C32_20 C31_20 1_555 1_555
H19_20 C32_20 1_555 1_555
C33_20 C32_20 1_555 1_555
C34_20 C33_20 1_555 1_555
H20_18 C34_20 1_555 1_555
C35_18 C30_20 1_555 1_555
H21_18 C35_18 1_555 1_555
C36_20 C33_20 1_555 1_555
C37_20 C38_20 1_555 1_555
C38_20 C39_20 1_555 1_555
C39_20 H22_20 1_555 1_555
C40_20 N3_20 1_555 1_555
H23_20 C40_20 1_555 1_555
C41_20 N3_20 1_555 1_555
H24_20 C41_20 1_555 1_555
C42_20 C38_20 1_555 1_555
H25_20 C42_20 1_555 1_555
N4_20 C26_20 1_555 1_555
H26_20 N4_20 1_555 1_555
O16_18 C29_20 1_555 1_555
In10_5 O15_12 1_555 1_555
O22_20 In10 1_555 1_555
O23_12 In9_3 1_555 1_555
O26_12 In9_3 1_555 1_555
C6_12 C7_12 1_555 1_555
C8_12 N2_12 1_555 1_555
C13_12 C14_11 1_555 1_555
C18_12 C19_12 1_555 1_555
C20_12 C21_12 1_555 1_555
C27_20 C28_20 1_555 1_555
C29_20 N4_20 1_555 1_555
C34_20 C35_18 1_555 1_555
C39_20 C40_20 1_555 1_555
C41_20 C42_20 1_555 1_555
O19_8 C22_21 1_555 1_555
O20_24 C36_21 1_555 1_555
O22_16 C36_21 1_555 1_555
C22_21 O10_21 1_555 1_555
C23_21 C22_21 1_555 1_555
C24_21 C23_21 1_555 1_555
H14_21 C24_21 1_555 1_555
C25_21 C24_21 1_555 1_555
H15_21 C25_21 1_555 1_555
C26_21 C25_21 1_555 1_555
C27_21 C26_21 1_555 1_555
H16_19 C27_21 1_555 1_555
C28_21 C23_21 1_555 1_555
H17_21 C28_21 1_555 1_555
C29_21 C30_21 1_555 1_555
C30_21 C31_21 1_555 1_555
C31_21 H18_21 1_555 1_555
C32_21 C31_21 1_555 1_555
H19_21 C32_21 1_555 1_555
C33_21 C32_21 1_555 1_555
C34_21 C33_21 1_555 1_555
H20_19 C34_21 1_555 1_555
C35_19 C30_21 1_555 1_555
H21_19 C35_19 1_555 1_555
C36_21 C33_21 1_555 1_555
H23_21 C40_21 1_555 1_555
N4_21 C26_21 1_555 1_555
H26_21 N4_21 1_555 1_555
O16_19 C29_21 1_555 1_555
C27_21 C28_21 1_555 1_555
C29_21 N4_21 1_555 1_555
C34_21 C35_19 1_555 1_555
O25 C37_21 1_555 1_555
O26_10 C37_21 1_555 1_555
N3_21 In10_8 1_555 1_555
C37_21 C38_21 1_555 1_555
C38_21 C39_21 1_555 1_555
C41_21 N3_21 1_555 1_555
H24_21 C41_21 1_555 1_555
C42_21 C38_21 1_555 1_555
H25_21 C42_21 1_555 1_555
C41_21 C42_21 1_555 1_555
O2_8 H28_15 1_555 1_555
O2_9 H27_15 1_555 1_555
O25_4 C37_22 1_555 1_555
O26_11 C37_22 1_555 1_555
N3_22 In10_7 1_555 1_555
C37_22 C38_22 1_555 1_555
C38_22 C39_22 1_555 1_555
C41_22 N3_22 1_555 1_555
H24_22 C41_22 1_555 1_555
C42_22 C38_22 1_555 1_555
H25_22 C42_22 1_555 1_555
C41_22 C42_22 1_555 1_555
O19_7 C22_22 1_555 1_555
O20_23 C36_22 1_555 1_555
O22_13 C36_22 1_555 1_555
C22_22 O10_22 1_555 1_555
C23_22 C22_22 1_555 1_555
C24_22 C23_22 1_555 1_555
H14_22 C24_22 1_555 1_555
C25_22 C24_22 1_555 1_555
H15_22 C25_22 1_555 1_555
C26_22 C25_22 1_555 1_555
C27_22 C26_22 1_555 1_555
H16_20 C27_22 1_555 1_555
C28_22 C23_22 1_555 1_555
H17_22 C28_22 1_555 1_555
C29_22 C30_22 1_555 1_555
C30_22 C31_22 1_555 1_555
C31_22 H18_22 1_555 1_555
C32_22 C31_22 1_555 1_555
H19_22 C32_22 1_555 1_555
C33_22 C32_22 1_555 1_555
C34_22 C33_22 1_555 1_555
H20_20 C34_22 1_555 1_555
C35_20 C30_22 1_555 1_555
H21_20 C35_20 1_555 1_555
C36_22 C33_22 1_555 1_555
H23_22 C40_22 1_555 1_555
N4_22 C26_22 1_555 1_555
H26_22 N4_22 1_555 1_555
O16_20 C29_22 1_555 1_555
C27_22 C28_22 1_555 1_555
C29_22 N4_22 1_555 1_555
C34_22 C35_20 1_555 1_555
O10_23 In10_6 1_555 1_555
O19_6 C22_23 1_555 1_555
O20_21 C36_23 1_555 1_555
O22_14 C36_23 1_555 1_555
O25_2 C37_23 1_555 1_555
O26_9 C37_23 1_555 1_555
N3_23 In10_6 1_555 1_555
C22_23 O10_23 1_555 1_555
C23_23 C22_23 1_555 1_555
C24_23 C23_23 1_555 1_555
H14_23 C24_23 1_555 1_555
C25_23 C24_23 1_555 1_555
H15_23 C25_23 1_555 1_555
C26_23 C25_23 1_555 1_555
C27_23 C26_23 1_555 1_555
H16_21 C27_23 1_555 1_555
C28_23 C23_23 1_555 1_555
H17_23 C28_23 1_555 1_555
C29_23 C30_23 1_555 1_555
C30_23 C31_23 1_555 1_555
C31_23 H18_23 1_555 1_555
C32_23 C31_23 1_555 1_555
H19_23 C32_23 1_555 1_555
C33_23 C32_23 1_555 1_555
C34_23 C33_23 1_555 1_555
H20_21 C34_23 1_555 1_555
C35_21 C30_23 1_555 1_555
H21_21 C35_21 1_555 1_555
C36_23 C33_23 1_555 1_555
C37_23 C38_23 1_555 1_555
C38_23 C39_23 1_555 1_555
C39_23 H22_23 1_555 1_555
C40_23 N3_23 1_555 1_555
H23_23 C40_23 1_555 1_555
C41_23 N3_23 1_555 1_555
H24_23 C41_23 1_555 1_555
C42_23 C38_23 1_555 1_555
H25_23 C42_23 1_555 1_555
N4_23 C26_23 1_555 1_555
H26_23 N4_23 1_555 1_555
O16_21 C29_23 1_555 1_555
O22_23 In10_6 1_555 1_555
C27_23 C28_23 1_555 1_555
C29_23 N4_23 1_555 1_555
C34_23 C35_21 1_555 1_555
C39_23 C40_23 1_555 1_555
C41_23 C42_23 1_555 1_555
O2_11 H27_16 1_555 1_555
O2_12 H28_16 1_555 1_555
O10_24 In10_5 1_555 1_555
O19_5 C22_24 1_555 1_555
O20_22 C36_24 1_555 1_555
O22_15 C36_24 1_555 1_555
O25_3 C37_24 1_555 1_555
O26_12 C37_24 1_555 1_555
N3_24 In10_5 1_555 1_555
C22_24 O10_24 1_555 1_555
C23_24 C22_24 1_555 1_555
C24_24 C23_24 1_555 1_555
H14_24 C24_24 1_555 1_555
C25_24 C24_24 1_555 1_555
H15_24 C25_24 1_555 1_555
C26_24 C25_24 1_555 1_555
C27_24 C26_24 1_555 1_555
H16_22 C27_24 1_555 1_555
C28_24 C23_24 1_555 1_555
H17_24 C28_24 1_555 1_555
C29_24 C30_24 1_555 1_555
C30_24 C31_24 1_555 1_555
C31_24 H18_24 1_555 1_555
C32_24 C31_24 1_555 1_555
H19_24 C32_24 1_555 1_555
C33_24 C32_24 1_555 1_555
C34_24 C33_24 1_555 1_555
H20_22 C34_24 1_555 1_555
C35_22 C30_24 1_555 1_555
H21_22 C35_22 1_555 1_555
C36_24 C33_24 1_555 1_555
C37_24 C38_24 1_555 1_555
C38_24 C39_24 1_555 1_555
C39_24 H22_24 1_555 1_555
C40_24 N3_24 1_555 1_555
H23_24 C40_24 1_555 1_555
C41_24 N3_24 1_555 1_555
H24_24 C41_24 1_555 1_555
C42_24 C38_24 1_555 1_555
H25_24 C42_24 1_555 1_555
N4_24 C26_24 1_555 1_555
H26_24 N4_24 1_555 1_555
O16_22 C29_24 1_555 1_555
O22_24 In10_5 1_555 1_555
C27_24 C28_24 1_555 1_555
C29_24 N4_24 1_555 1_555
C34_24 C35_22 1_555 1_555
C39_24 C40_24 1_555 1_555
C41_24 C42_24 1_555 1_555
O2_14 H28_17 1_555 1_555
O2_15 H27_17 1_555 1_555
O2_17 H27_18 1_555 1_555
O2_18 H28_18 1_555 1_555
O3_13 In11_3 1_555 1_555
O21_8 C15_13 1_555 1_555
O22_17 C15_13 1_555 1_555
O25_20 C16_13 1_555 1_555
O8_13 C16_13 1_555 1_555
N1_13 In11_3 1_555 1_555
C1_13 O3_13 1_555 1_555
C2_13 C1_13 1_555 1_555
C3_13 C2_13 1_555 1_555
H1_13 C3_13 1_555 1_555
C4_13 C3_13 1_555 1_555
H2_13 C4_13 1_555 1_555
C5_13 C4_13 1_555 1_555
C8_13 C9_13 1_555 1_555
C9_13 C10_13 1_555 1_555
C10_13 H5_13 1_555 1_555
C11_13 C10_13 1_555 1_555
H6_13 C11_13 1_555 1_555
C12_13 C11_13 1_555 1_555
C13_13 C12_13 1_555 1_555
C15_13 C12_13 1_555 1_555
C16_13 C17_13 1_555 1_555
C17_13 C18_13 1_555 1_555
C18_13 H9_13 1_555 1_555
C19_13 N1_13 1_555 1_555
H10_13 C19_13 1_555 1_555
C20_13 N1_13 1_555 1_555
H11_13 C20_13 1_555 1_555
C21_13 C17_13 1_555 1_555
H12_13 C21_13 1_555 1_555
N2_13 C5_13 1_555 1_555
H13_13 N2_13 1_555 1_555
In12 O8_13 1_555 1_555
O10_25 In12 1_555 1_555
O19_12 C22_25 1_555 1_555
O21_3 C36_25 1_555 1_555
O23_12 C36_25 1_555 1_555
O25_21 C37_25 1_555 1_555
O15_13 C37_25 1_555 1_555
N3_25 In12 1_555 1_555
C22_25 O10_25 1_555 1_555
C23_25 C22_25 1_555 1_555
C24_25 C23_25 1_555 1_555
H14_25 C24_25 1_555 1_555
C25_25 C24_25 1_555 1_555
H15_25 C25_25 1_555 1_555
C26_25 C25_25 1_555 1_555
C27_25 C26_25 1_555 1_555
H16_23 C27_25 1_555 1_555
C28_25 C23_25 1_555 1_555
H17_25 C28_25 1_555 1_555
C29_25 C30_25 1_555 1_555
C30_25 C31_25 1_555 1_555
C31_25 H18_25 1_555 1_555
C32_25 C31_25 1_555 1_555
H19_25 C32_25 1_555 1_555
C33_25 C32_25 1_555 1_555
C34_25 C33_25 1_555 1_555
H20_23 C34_25 1_555 1_555
C35_23 C30_25 1_555 1_555
H21_23 C35_23 1_555 1_555
C36_25 C33_25 1_555 1_555
C37_25 C38_25 1_555 1_555
C38_25 C39_25 1_555 1_555
C39_25 H22_25 1_555 1_555
C40_25 N3_25 1_555 1_555
H23_25 C40_25 1_555 1_555
C41_25 N3_25 1_555 1_555
H24_25 C41_25 1_555 1_555
C42_25 C38_25 1_555 1_555
H25_25 C42_25 1_555 1_555
N4_25 C26_25 1_555 1_555
H26_25 N4_25 1_555 1_555
O16_23 C29_25 1_555 1_555
In11_8 O15_13 1_555 1_555
O26_13 In11_3 1_555 1_555
C8_13 N2_13 1_555 1_555
C18_13 C19_13 1_555 1_555
C20_13 C21_13 1_555 1_555
C27_25 C28_25 1_555 1_555
C29_25 N4_25 1_555 1_555
C34_25 C35_23 1_555 1_555
C39_25 C40_25 1_555 1_555
C41_25 C42_25 1_555 1_555
H3_12 C6_13 1_555 1_555
H4_13 C7_13 1_555 1_555
H8_12 C14_12 1_555 1_555
C6_13 C7_13 1_555 1_555
O2_21 H27_19 1_555 1_555
O2_21 H28_19 1_555 1_555
O3_14 In11_4 1_555 1_555
O18_5 C1_14 1_555 1_555
O25_18 C16_14 1_555 1_555
O8_14 C16_14 1_555 1_555
N1_14 In11_4 1_555 1_555
C1_14 O3_14 1_555 1_555
C2_14 C1_14 1_555 1_555
C3_14 C2_14 1_555 1_555
H1_14 C3_14 1_555 1_555
C4_14 C3_14 1_555 1_555
C7_14 C2_14 1_555 1_555
H4_14 C7_14 1_555 1_555
C16_14 C17_14 1_555 1_555
C17_14 C18_14 1_555 1_555
C18_14 H9_14 1_555 1_555
C19_14 N1_14 1_555 1_555
H10_14 C19_14 1_555 1_555
C20_14 N1_14 1_555 1_555
H11_14 C20_14 1_555 1_555
C21_14 C17_14 1_555 1_555
H12_14 C21_14 1_555 1_555
In12_2 O8_14 1_555 1_555
O10_26 In12_2 1_555 1_555
O21_4 C36_26 1_555 1_555
O23_11 C36_26 1_555 1_555
O25_24 C37_26 1_555 1_555
O15_14 C37_26 1_555 1_555
N3_26 In12_2 1_555 1_555
C22_26 O10_26 1_555 1_555
C23_26 C22_26 1_555 1_555
C24_26 C23_26 1_555 1_555
H14_26 C24_26 1_555 1_555
C25_26 C24_26 1_555 1_555
H15_26 C25_26 1_555 1_555
C26_26 C25_26 1_555 1_555
C29_26 C30_26 1_555 1_555
C30_26 C31_26 1_555 1_555
C31_26 H18_26 1_555 1_555
C32_26 C31_26 1_555 1_555
H19_26 C32_26 1_555 1_555
C33_26 C32_26 1_555 1_555
C34_26 C33_26 1_555 1_555
C36_26 C33_26 1_555 1_555
C37_26 C38_26 1_555 1_555
C38_26 C39_26 1_555 1_555
C39_26 H22_26 1_555 1_555
C40_26 N3_26 1_555 1_555
H23_26 C40_26 1_555 1_555
C41_26 N3_26 1_555 1_555
H24_26 C41_26 1_555 1_555
C42_26 C38_26 1_555 1_555
H25_26 C42_26 1_555 1_555
N4_26 C26_26 1_555 1_555
H26_26 N4_26 1_555 1_555
In11_6 O15_14 1_555 1_555
O26_14 In11_4 1_555 1_555
C6_14 C7_14 1_555 1_555
C18_14 C19_14 1_555 1_555
C20_14 C21_14 1_555 1_555
C29_26 N4_26 1_555 1_555
C39_26 C40_26 1_555 1_555
C41_26 C42_26 1_555 1_555
O21_6 C15_14 1_555 1_555
O22_18 C15_14 1_555 1_555
C8_14 C9_14 1_555 1_555
C9_14 C10_14 1_555 1_555
C10_14 H5_14 1_555 1_555
C11_14 C10_14 1_555 1_555
H6_14 C11_14 1_555 1_555
C12_14 C11_14 1_555 1_555
C13_14 C12_14 1_555 1_555
H7_13 C13_14 1_555 1_555
C14_13 C9_14 1_555 1_555
H8_13 C14_13 1_555 1_555
C15_14 C12_14 1_555 1_555
N2_14 C5_14 1_555 1_555
H13_14 N2_14 1_555 1_555
O9_13 C8_14 1_555 1_555
H16_24 C27_26 1_555 1_555
H17_26 C28_26 1_555 1_555
H21_24 C35_24 1_555 1_555
C8_14 N2_14 1_555 1_555
C13_14 C14_13 1_555 1_555
C27_26 C28_26 1_555 1_555
O3_15 In11_2 1_555 1_555
O18_8 C1_15 1_555 1_555
O21_7 C15_15 1_555 1_555
O22_20 C15_15 1_555 1_555
O25_17 C16_15 1_555 1_555
O8_15 C16_15 1_555 1_555
N1_15 In11_2 1_555 1_555
C1_15 O3_15 1_555 1_555
C2_15 C1_15 1_555 1_555
C3_15 C2_15 1_555 1_555
H1_15 C3_15 1_555 1_555
C4_15 C3_15 1_555 1_555
H2_15 C4_15 1_555 1_555
C5_15 C4_15 1_555 1_555
C6_15 C5_15 1_555 1_555
H3_14 C6_15 1_555 1_555
C7_15 C2_15 1_555 1_555
H4_15 C7_15 1_555 1_555
C8_15 C9_15 1_555 1_555
C9_15 C10_15 1_555 1_555
C10_15 H5_15 1_555 1_555
C11_15 C10_15 1_555 1_555
H6_15 C11_15 1_555 1_555
C12_15 C11_15 1_555 1_555
C13_15 C12_15 1_555 1_555
H7_14 C13_15 1_555 1_555
C14_14 C9_15 1_555 1_555
H8_14 C14_14 1_555 1_555
C15_15 C12_15 1_555 1_555
C16_15 C17_15 1_555 1_555
C17_15 C18_15 1_555 1_555
C18_15 H9_15 1_555 1_555
C19_15 N1_15 1_555 1_555
H10_15 C19_15 1_555 1_555
C20_15 N1_15 1_555 1_555
H11_15 C20_15 1_555 1_555
C21_15 C17_15 1_555 1_555
H12_15 C21_15 1_555 1_555
N2_15 C5_15 1_555 1_555
H13_15 N2_15 1_555 1_555
O9_14 C8_15 1_555 1_555
In12_4 O8_15 1_555 1_555
O10_27 In12_4 1_555 1_555
O19_10 C22_27 1_555 1_555
O25_22 C37_27 1_555 1_555
O15_15 C37_27 1_555 1_555
N3_27 In12_4 1_555 1_555
C22_27 O10_27 1_555 1_555
C23_27 C22_27 1_555 1_555
C24_27 C23_27 1_555 1_555
H14_27 C24_27 1_555 1_555
C25_27 C24_27 1_555 1_555
C28_27 C23_27 1_555 1_555
H17_27 C28_27 1_555 1_555
C37_27 C38_27 1_555 1_555
C38_27 C39_27 1_555 1_555
C39_27 H22_27 1_555 1_555
C40_27 N3_27 1_555 1_555
H23_27 C40_27 1_555 1_555
C41_27 N3_27 1_555 1_555
H24_27 C41_27 1_555 1_555
C42_27 C38_27 1_555 1_555
H25_27 C42_27 1_555 1_555
In11_7 O15_15 1_555 1_555
O26_15 In11_2 1_555 1_555
C6_15 C7_15 1_555 1_555
C8_15 N2_15 1_555 1_555
C13_15 C14_14 1_555 1_555
C18_15 C19_15 1_555 1_555
C20_15 C21_15 1_555 1_555
C27_27 C28_27 1_555 1_555
C39_27 C40_27 1_555 1_555
C41_27 C42_27 1_555 1_555
O21_2 C36_27 1_555 1_555
O23_9 C36_27 1_555 1_555
C29_27 C30_27 1_555 1_555
C30_27 C31_27 1_555 1_555
C31_27 H18_27 1_555 1_555
C32_27 C31_27 1_555 1_555
H19_27 C32_27 1_555 1_555
C33_27 C32_27 1_555 1_555
C34_27 C33_27 1_555 1_555
H20_25 C34_27 1_555 1_555
C35_25 C30_27 1_555 1_555
H21_25 C35_25 1_555 1_555
C36_27 C33_27 1_555 1_555
N4_27 C26_27 1_555 1_555
H26_27 N4_27 1_555 1_555
O16_25 C29_27 1_555 1_555
C29_27 N4_27 1_555 1_555
C34_27 C35_25 1_555 1_555
H4_16 C7_16 1_555 1_555
C6_16 C7_16 1_555 1_555
O2_22 H27_20 1_555 1_555
O2_22 H28_20 1_555 1_555
O21 C36_28 1_555 1_555
O23_10 C36_28 1_555 1_555
C29_28 C30_28 1_555 1_555
C30_28 C31_28 1_555 1_555
C31_28 H18_28 1_555 1_555
C32_28 C31_28 1_555 1_555
H19_28 C32_28 1_555 1_555
C33_28 C32_28 1_555 1_555
C34_28 C33_28 1_555 1_555
C36_28 C33_28 1_555 1_555
N4_28 C26_28 1_555 1_555
H26_28 N4_28 1_555 1_555
C29_28 N4_28 1_555 1_555
O21_5 C15_16 1_555 1_555
O22_19 C15_16 1_555 1_555
C8_16 C9_16 1_555 1_555
C9_16 C10_16 1_555 1_555
C10_16 H5_16 1_555 1_555
C11_16 C10_16 1_555 1_555
H6_16 C11_16 1_555 1_555
C12_16 C11_16 1_555 1_555
C13_16 C12_16 1_555 1_555
C15_16 C12_16 1_555 1_555
N2_16 C5_16 1_555 1_555
H13_16 N2_16 1_555 1_555
H17_28 C28_28 1_555 1_555
C8_16 N2_16 1_555 1_555
C27_28 C28_28 1_555 1_555
O3_16 In11 1_555 1_555
O25_19 C16_16 1_555 1_555
O8_16 C16_16 1_555 1_555
N1_16 In11 1_555 1_555
C1_16 O3_16 1_555 1_555
C2_16 C1_16 1_555 1_555
C3_16 C2_16 1_555 1_555
H1_16 C3_16 1_555 1_555
C4_16 C3_16 1_555 1_555
C16_16 C17_16 1_555 1_555
C17_16 C18_16 1_555 1_555
C18_16 H9_16 1_555 1_555
C19_16 N1_16 1_555 1_555
H10_16 C19_16 1_555 1_555
C20_16 N1_16 1_555 1_555
H11_16 C20_16 1_555 1_555
C21_16 C17_16 1_555 1_555
H12_16 C21_16 1_555 1_555
In12_3 O8_16 1_555 1_555
O10_28 In12_3 1_555 1_555
O25_23 C37_28 1_555 1_555
O15_16 C37_28 1_555 1_555
N3_28 In12_3 1_555 1_555
C22_28 O10_28 1_555 1_555
C23_28 C22_28 1_555 1_555
C24_28 C23_28 1_555 1_555
H14_28 C24_28 1_555 1_555
C25_28 C24_28 1_555 1_555
C37_28 C38_28 1_555 1_555
C38_28 C39_28 1_555 1_555
C39_28 H22_28 1_555 1_555
C40_28 N3_28 1_555 1_555
H23_28 C40_28 1_555 1_555
C41_28 N3_28 1_555 1_555
H24_28 C41_28 1_555 1_555
C42_28 C38_28 1_555 1_555
H25_28 C42_28 1_555 1_555
In11_5 O15_16 1_555 1_555
O26_16 In11 1_555 1_555
C18_16 C19_16 1_555 1_555
C20_16 C21_16 1_555 1_555
C39_28 C40_28 1_555 1_555
C41_28 C42_28 1_555 1_555
O10_29 In11_6 1_555 1_555
O19_16 C22_29 1_555 1_555
O21_11 C36_29 1_555 1_555
O22_24 C36_29 1_555 1_555
O25_13 C37_29 1_555 1_555
O26_14 C37_29 1_555 1_555
N3_29 In11_6 1_555 1_555
C22_29 O10_29 1_555 1_555
C23_29 C22_29 1_555 1_555
C24_29 C23_29 1_555 1_555
H14_29 C24_29 1_555 1_555
C25_29 C24_29 1_555 1_555
H15_29 C25_29 1_555 1_555
C26_29 C25_29 1_555 1_555
C27_29 C26_29 1_555 1_555
H16_26 C27_29 1_555 1_555
C28_29 C23_29 1_555 1_555
H17_29 C28_29 1_555 1_555
C29_29 C30_29 1_555 1_555
C30_29 C31_29 1_555 1_555
C31_29 H18_29 1_555 1_555
C32_29 C31_29 1_555 1_555
H19_29 C32_29 1_555 1_555
C33_29 C32_29 1_555 1_555
C34_29 C33_29 1_555 1_555
H20_26 C34_29 1_555 1_555
C35_26 C30_29 1_555 1_555
H21_26 C35_26 1_555 1_555
C36_29 C33_29 1_555 1_555
C37_29 C38_29 1_555 1_555
C38_29 C39_29 1_555 1_555
C39_29 H22_29 1_555 1_555
C40_29 N3_29 1_555 1_555
H23_29 C40_29 1_555 1_555
C41_29 N3_29 1_555 1_555
H24_29 C41_29 1_555 1_555
C42_29 C38_29 1_555 1_555
H25_29 C42_29 1_555 1_555
N4_29 C26_29 1_555 1_555
H26_29 N4_29 1_555 1_555
O16_26 C29_29 1_555 1_555
C27_29 C28_29 1_555 1_555
C29_29 N4_29 1_555 1_555
C34_29 C35_26 1_555 1_555
C39_29 C40_29 1_555 1_555
C41_29 C42_29 1_555 1_555
O2_27 H27_21 1_555 1_555
O2_27 H28_21 1_555 1_555
O10_30 In11_7 1_555 1_555
O21_12 C36_30 1_555 1_555
O22_21 C36_30 1_555 1_555
O25_16 C37_30 1_555 1_555
O26_15 C37_30 1_555 1_555
N3_30 In11_7 1_555 1_555
C22_30 O10_30 1_555 1_555
C23_30 C22_30 1_555 1_555
C24_30 C23_30 1_555 1_555
H14_30 C24_30 1_555 1_555
C25_30 C24_30 1_555 1_555
H15_30 C25_30 1_555 1_555
C26_30 C25_30 1_555 1_555
C29_30 C30_30 1_555 1_555
C30_30 C31_30 1_555 1_555
C31_30 H18_30 1_555 1_555
C32_30 C31_30 1_555 1_555
H19_30 C32_30 1_555 1_555
C33_30 C32_30 1_555 1_555
C34_30 C33_30 1_555 1_555
C36_30 C33_30 1_555 1_555
C37_30 C38_30 1_555 1_555
C38_30 C39_30 1_555 1_555
C39_30 H22_30 1_555 1_555
C40_30 N3_30 1_555 1_555
H23_30 C40_30 1_555 1_555
C41_30 N3_30 1_555 1_555
H24_30 C41_30 1_555 1_555
C42_30 C38_30 1_555 1_555
H25_30 C42_30 1_555 1_555
N4_30 C26_30 1_555 1_555
H26_30 N4_30 1_555 1_555
C29_30 N4_30 1_555 1_555
C39_30 C40_30 1_555 1_555
C41_30 C42_30 1_555 1_555
H16_27 C27_30 1_555 1_555
H17_30 C28_30 1_555 1_555
H21_27 C35_27 1_555 1_555
C27_30 C28_30 1_555 1_555
O10_31 In11_8 1_555 1_555
O19_14 C22_31 1_555 1_555
O25_14 C37_31 1_555 1_555
O26_13 C37_31 1_555 1_555
N3_31 In11_8 1_555 1_555
C22_31 O10_31 1_555 1_555
C23_31 C22_31 1_555 1_555
C24_31 C23_31 1_555 1_555
H14_31 C24_31 1_555 1_555
C25_31 C24_31 1_555 1_555
C28_31 C23_31 1_555 1_555
H17_31 C28_31 1_555 1_555
C37_31 C38_31 1_555 1_555
C38_31 C39_31 1_555 1_555
C39_31 H22_31 1_555 1_555
C40_31 N3_31 1_555 1_555
H23_31 C40_31 1_555 1_555
C41_31 N3_31 1_555 1_555
H24_31 C41_31 1_555 1_555
C42_31 C38_31 1_555 1_555
H25_31 C42_31 1_555 1_555
C27_31 C28_31 1_555 1_555
C39_31 C40_31 1_555 1_555
C41_31 C42_31 1_555 1_555
O21_10 C36_31 1_555 1_555
O22_22 C36_31 1_555 1_555
C29_31 C30_31 1_555 1_555
C30_31 C31_31 1_555 1_555
C31_31 H18_31 1_555 1_555
C32_31 C31_31 1_555 1_555
H19_31 C32_31 1_555 1_555
C33_31 C32_31 1_555 1_555
C34_31 C33_31 1_555 1_555
H20_28 C34_31 1_555 1_555
C35_28 C30_31 1_555 1_555
H21_28 C35_28 1_555 1_555
C36_31 C33_31 1_555 1_555
N4_31 C26_31 1_555 1_555
H26_31 N4_31 1_555 1_555
O16_28 C29_31 1_555 1_555
C29_31 N4_31 1_555 1_555
C34_31 C35_28 1_555 1_555
O21_9 C36_32 1_555 1_555
O22_23 C36_32 1_555 1_555
C29_32 C30_32 1_555 1_555
C30_32 C31_32 1_555 1_555
C31_32 H18_32 1_555 1_555
C32_32 C31_32 1_555 1_555
H19_32 C32_32 1_555 1_555
C33_32 C32_32 1_555 1_555
C34_32 C33_32 1_555 1_555
C36_32 C33_32 1_555 1_555
N4_32 C26_32 1_555 1_555
H26_32 N4_32 1_555 1_555
C29_32 N4_32 1_555 1_555
H17_32 C28_32 1_555 1_555
C27_32 C28_32 1_555 1_555
O2_28 H27_22 1_555 1_555
O2_28 H28_22 1_555 1_555
O10_32 In11_5 1_555 1_555
O25_15 C37_32 1_555 1_555
O26_16 C37_32 1_555 1_555
N3_32 In11_5 1_555 1_555
C22_32 O10_32 1_555 1_555
C23_32 C22_32 1_555 1_555
C24_32 C23_32 1_555 1_555
H14_32 C24_32 1_555 1_555
C25_32 C24_32 1_555 1_555
C37_32 C38_32 1_555 1_555
C38_32 C39_32 1_555 1_555
C39_32 H22_32 1_555 1_555
C40_32 N3_32 1_555 1_555
H23_32 C40_32 1_555 1_555
C41_32 N3_32 1_555 1_555
H24_32 C41_32 1_555 1_555
C42_32 C38_32 1_555 1_555
H25_32 C42_32 1_555 1_555
C39_32 C40_32 1_555 1_555
C41_32 C42_32 1_555 1_555
O2_33 H27_23 1_555 1_555
O2_33 H28_23 1_555 1_555
O2_34 H27_24 1_555 1_555
O2_34 H28_24 1_555 1_555
H21_29 C35_29 1_555 1_555
H8_15 C14_15 1_555 1_555
H21_30 C35_30 1_555 1_555
H8_16 C14_16 1_555 1_555
H21_31 C35_31 1_555 1_555
H21_32 C35_32 1_555 1_555

#END
