
###############################################################################
#
# This file contains modified crystal structure data generated from the
# MOF subset of the Cambridge Structural Database (CSD) v543 
# hosted by the Cambridge Crystallographic Data Centre (CCDC).
#
# This work is licensed under the Creative Commons
# Attribution-NonCommercial-ShareAlike 4.0 International License.
# To view a copy of this license, visit
# http://creativecommons.org/licenses/by-nc-sa/4.0/
# or send a letter to
# Creative Commons, PO Box 1866, Mountain View, CA 94042, USA.
#
# CIF created using the CSD Python API on 29 September 2022
# The structure has been converted into the P1 space group
# The structure has a 3D framework
# The original CSD entry KOHKIC is in the tetragonal crystal system
# The original CSD entry KOHKIC is in a Sohncke space group
# The framework has been calculated to contain at least 10.0% void space
# The void calculation uses a probe of radius 1.32A, grid spacing 0.4
# H atom positions have been added when not included in the experimental data
# Generated hydrogen atom positions removed from atoms on special positions
#
###############################################################################

data_KOHKIC
_chemical_formula_moiety         '(C1294 H824 Na8 O308 Zn88)n'
_symmetry_cell_setting           triclinic
_symmetry_space_group_name_H-M   'P 1'
_symmetry_Int_Tables_number      1
_space_group_name_Hall           'P 1'
loop_
_symmetry_equiv_pos_site_id
_symmetry_equiv_pos_as_xyz
1 x,y,z
_cell_length_a                   32.4729(7)
_cell_length_b                   32.4729(7)
_cell_length_c                   47.6641(18)
_cell_angle_alpha                90
_cell_angle_beta                 90
_cell_angle_gamma                90
_cell_volume                     50261.3
loop_
_atom_site_label
_atom_site_type_symbol
_atom_site_fract_x
_atom_site_fract_y
_atom_site_fract_z
Zn2 Zn 0.06697(2) 0.14893(3) 0.065380(17)
Zn4 Zn -0.0000 -0.0000 0.434680(17)
Zn6 Zn -0.0000 0.0000 0.5000
Na1 Na 0.00944(9) 0.2500 0.1250
O2 O 0.00804(14) 0.17703(14) 0.13734(8)
O7 O 0.11009(14) 0.18843(14) 0.07286(10)
O8 O 0.05935(14) 0.22739(13) 0.08814(9)
O15 O 0.08510(16) 0.10501(17) 0.08969(14)
O16 O 0.02695(16) 0.07307(15) 0.10128(12)
O17 O 0.00935(11) 0.15703(10) 0.07632(7)
H2 H 0.0100 0.1791 0.0859
C3 C 0.0018(2) 0.19373(19) 0.19501(12)
H4 H 0.0179 0.2116 0.1844
H5 H 0.0077 0.2248 0.2301
C28 C 0.0966(2) 0.2216(2) 0.08243(14)
C29 C 0.12725(12) 0.25537(12) 0.08713(9)
C30 C 0.16917(14) 0.24792(10) 0.08411(9)
H19 H 0.1783 0.2226 0.0775
C31 C 0.19751(10) 0.27836(14) 0.09102(10)
H20 H 0.2256 0.2734 0.0890
C32 C 0.18393(12) 0.31625(12) 0.10094(9)
C33 C 0.14201(13) 0.32370(10) 0.10396(8)
H21 H 0.1329 0.3491 0.1106
C34 C 0.11367(10) 0.29326(13) 0.09705(9)
H22 H 0.0856 0.2982 0.0991
C35 C 0.21401(17) 0.34693(19) 0.11344(13)
C36 C 0.2506(2) 0.35582(19) 0.10138(13)
H23 H 0.2572 0.3441 0.0841
C37 C 0.2784(2) 0.3832(2) 0.11422(14)
C38 C 0.2662(2) 0.3994(2) 0.14007(16)
H24 H 0.2842 0.4176 0.1488
C39 C 0.2296(2) 0.39098(19) 0.15321(14)
C40 C 0.2043(2) 0.36469(19) 0.13929(14)
H25 H 0.1784 0.3592 0.1468
C41 C 0.21759(18) 0.4092(2) 0.17914(13)
C42 C 0.2261(2) 0.4477(2) 0.18724(14)
H26 H 0.2424 0.4639 0.1756
C43 C 0.2127(2) 0.4643(2) 0.21186(16)
H27 H 0.2184 0.4918 0.2157
C44 C 0.1904(2) 0.4411(2) 0.23141(15)
C45 C 0.1811(2) 0.4008(2) 0.22394(17)
H28 H 0.1662 0.3840 0.2360
C46 C 0.1940(3) 0.3853(2) 0.19732(16)
H29 H 0.1878 0.3582 0.1924
C47 C 0.3191(2) 0.3939(2) 0.10157(15)
C48 C 0.3444(2) 0.3650(2) 0.09088(15)
H30 H 0.3372 0.3373 0.0920
C49 C 0.3828(2) 0.3759(2) 0.07966(14)
H31 H 0.3994 0.3554 0.0722
C50 C 0.39662(18) 0.41457(19) 0.07842(12)
C51 C 0.37017(19) 0.44402(19) 0.08924(14)
H32 H 0.3785 0.4714 0.0879
C52 C 0.3334(2) 0.4350(2) 0.10102(15)
H33 H 0.3178 0.4562 0.1087
C80 C 0.0651(3) 0.0782(3) 0.1030(2)
O20 O 0.00514(16) 0.18296(16) 0.01219(9)
O21 O 0.06533(17) 0.15632(15) 0.02450(10)
C81 C 0.1762(2) 0.4585(3) 0.25804(15)
Zn7 Zn 0.01474(2) 0.61631(3) 0.147643(15)
Zn9 Zn 0.14893(3) 0.43303(2) 0.315380(17)
Zn11 Zn 0.17051(2) 0.52796(2) 0.295350(16)
Zn13 Zn 0.5000 0.5000 0.065320(17)
Zn16 Zn 0.51707(2) 0.410343(19) 0.044873(14)
O22 O 0.00804(14) 0.32297(14) 0.11266(8)
O26 O 0.05935(14) 0.27261(13) 0.16186(9)
O27 O 0.46096(13) 0.39730(13) 0.05883(9)
O28 O 0.03658(11) 0.05321(14) 0.43301(9)
O29 O 0.44679(14) 0.46342(11) 0.06699(9)
O38 O 0.04743(10) 0.04743(10) 0.5000
C85 C 0.4376(2) 0.4245(2) 0.06671(12)
C89 C 0.0900(3) 0.0466(2) 0.11502(19)
O39 O 0.18296(16) 0.49486(16) 0.26219(9)
O40 O 0.15632(15) 0.43467(17) 0.27450(10)
C91 C 0.0415(3) 0.1762(2) 0.00804(15)
Zn4_2 Zn -0.0000 1.0000 0.434680(17)
Zn6_2 Zn -0.0000 1.0000 0.5000
O18 O 0.03255(9) 0.97334(9) 0.46768(6)
H3 H 0.0279 0.9476 0.4677
Zn14 Zn 0.089657(19) 0.98293(2) 0.455127(14)
O23 O 0.03609(13) 0.97297(12) 0.40448(8)
O36 O 0.02666(9) 0.96745(9) 0.53232(6)
Zn1 Zn 0.98526(2) 0.11631(3) 0.102357(15)
Zn3 Zn 0.97204(2) 0.17051(2) 0.045350(16)
Zn4_3 Zn 1.0000 -0.0000 0.434680(17)
Zn5 Zn 0.910343(19) 0.01707(2) 0.455127(14)
Zn6_3 Zn 1.0000 0.0000 0.5000
O1 O 0.97381(16) 0.11804(14) 0.14222(9)
O3 O 0.96391(13) 0.02703(12) 0.40448(8)
O4 O 0.90765(13) 0.05610(12) 0.42288(8)
O5 O 0.93500(15) 0.12272(14) 0.04352(9)
O6 O 0.93042(18) 0.10458(14) 0.08909(11)
O11 O 0.93258(13) 0.21555(13) 0.04729(11)
O12 O 0.95802(13) 0.27437(12) 0.15954(10)
O13 O 0.86265(12) 0.03337(14) 0.47664(10)
O14 O 0.89081(15) 0.00886(18) 0.51572(10)
H1 H 0.9102 0.0029 0.5044
C1 C 0.9921(2) 0.1518(3) 0.15159(12)
C2 C 0.98607(18) 0.15987(19) 0.18287(11)
C4 C 0.9946(2) 0.20217(19) 0.22207(12)
C5 C 0.9686(2) 0.17853(19) 0.23874(13)
C6 C 0.9523(2) 0.1420(2) 0.22585(14)
H6 H 0.9360 0.1240 0.2361
C7 C 0.9609(2) 0.1343(2) 0.19892(14)
H7 H 0.9496 0.1110 0.1906
C8 C 0.95508(19) 0.1909(2) 0.26767(12)
C9 C 0.9442(2) 0.2319(2) 0.27152(13)
H8 H 0.9440 0.2501 0.2564
C10 C 0.9338(2) 0.24533(19) 0.29812(14)
C11 C 0.9329(2) 0.2160(2) 0.32033(13)
H9 H 0.9241 0.2247 0.3379
C12 C 0.9443(2) 0.1753(2) 0.31685(13)
C13 C 0.9561(2) 0.16352(19) 0.28972(13)
H10 H 0.9639 0.1364 0.2864
C14 C 0.9415(2) 0.14520(19) 0.34066(13)
C15 C 0.9088(3) 0.1445(2) 0.35838(15)
H11 H 0.8868 0.1625 0.3562
C16 C 0.9075(2) 0.1156(2) 0.37899(14)
H12 H 0.8855 0.1160 0.3914
C17 C 0.9395(2) 0.0863(2) 0.38270(13)
C18 C 0.9720(2) 0.0894(2) 0.36532(14)
H13 H 0.9929 0.0700 0.3669
C19 C 0.9751(2) 0.1189(2) 0.34519(14)
H14 H 0.9989 0.1215 0.3345
C20 C 0.9366(2) 0.0540(2) 0.40516(13)
C21 C 0.9234(2) 0.2874(2) 0.30306(12)
C22 C 0.9046(3) 0.3108(2) 0.28256(14)
H15 H 0.8987 0.2979 0.2656
C23 C 0.8950(3) 0.3525(2) 0.28557(15)
H16 H 0.8819 0.3663 0.2711
C24 C 0.9021(2) 0.3737(2) 0.31037(13)
C25 C 0.9208(2) 0.3499(2) 0.33120(14)
H17 H 0.9252 0.3627 0.3484
C26 C 0.9322(2) 0.3089(2) 0.32748(14)
H18 H 0.9458 0.2951 0.3419
C27 C 0.9162(2) 0.1086(2) 0.06476(19)
C54 C 0.9333(2) 0.23293(19) 0.07051(18)
C55 C 0.90477(19) 0.26992(18) 0.07363(16)
C56 C 0.90409(19) 0.29072(19) 0.09830(14)
H34 H 0.9192 0.2817 0.1137
C57 C 0.87898(19) 0.3255(2) 0.09927(14)
H35 H 0.8777 0.3398 0.1162
C58 C 0.85585(17) 0.3407(2) 0.07654(14)
C59 C 0.8565(2) 0.3176(2) 0.05307(15)
H36 H 0.8391 0.3246 0.0383
C60 C 0.8799(2) 0.2832(2) 0.05054(15)
H37 H 0.8805 0.2689 0.0337
C61 C 0.8364(2) 0.3818(2) 0.07899(13)
C62 C 0.8554(2) 0.4139(2) 0.09270(13)
H38 H 0.8798 0.4086 0.1024
C63 C 0.8394(2) 0.4522(2) 0.09303(14)
C64 C 0.8017(2) 0.4613(2) 0.08077(13)
H39 H 0.7899 0.4873 0.0825
C65 C 0.7822(2) 0.4302(2) 0.06655(15)
C66 C 0.79899(19) 0.3898(2) 0.06650(14)
H40 H 0.7846 0.3684 0.0580
C67 C 0.74186(19) 0.4381(2) 0.05089(13)
C68 C 0.70663(19) 0.4500(3) 0.06498(15)
H41 H 0.7057 0.4533 0.0843
C69 C 0.6740(2) 0.4616(3) 0.04778(13)
H42 H 0.6498 0.4690 0.0569
C70 C 0.67111(19) 0.4594(2) 0.01900(12)
C71 C 0.70635(18) 0.4443(2) 0.00666(14)
C72 C 0.7422(2) 0.4354(3) 0.02183(13)
H44 H 0.7658 0.4268 0.0124
C73 C 0.8644(2) 0.0279(2) 0.50334(18)
C74 C 0.8643(2) 0.4847(2) 0.10695(15)
C75 C 0.9060(3) 0.4833(2) 0.10789(14)
H45 H 0.9192 0.4613 0.0992
C76 C 0.9302(2) 0.5148(3) 0.12115(17)
H46 H 0.9588 0.5133 0.1206
C77 C 0.9100(3) 0.5466(2) 0.13498(19)
C78 C 0.8686(2) 0.5482(2) 0.13689(18)
H47 H 0.8550 0.5695 0.1461
C79 C 0.8452(2) 0.5160(3) 0.12235(17)
H48 H 0.8167 0.5162 0.1238
Zn8 Zn 0.88369(3) 0.48526(2) 0.352357(15)
Zn10 Zn 0.93303(2) 0.64893(3) 0.184620(17)
Zn12 Zn 0.82949(2) 0.47204(2) 0.295350(16)
O24 O 0.87728(14) 0.43500(15) 0.29352(9)
O25 O 0.89542(14) 0.43042(18) 0.33909(11)
O30 O 0.95802(13) 0.22563(12) 0.09046(10)
O32 O 0.60919(15) 0.49114(18) 0.01572(10)
H49 H 0.5898 0.4971 0.0044
O33 O 0.91490(16) 0.60501(17) 0.16031(14)
O34 O 0.97305(16) 0.57307(15) 0.14872(12)
O35 O 0.96745(9) 0.02666(9) 0.46768(6)
O37 O 0.97334(9) 0.03255(9) 0.53232(6)
C82 C 0.8737(2) 0.0979(2) 0.06037(13)
C83 C 0.8914(2) 0.4162(2) 0.31476(19)
C86 C 0.9333(2) 0.26707(19) 0.17949(18)
C87 C 0.82889(19) 0.0406(2) 0.51900(12)
C88 C 0.6356(2) 0.4721(2) 0.00334(18)
C90 C 0.9349(3) 0.5782(3) 0.1470(2)
H43 H 0.7063 0.4407 0.9873
Zn15 Zn 0.589657(19) 0.48293(2) 0.955127(14)
O31 O 0.63735(12) 0.46663(14) 0.97664(10)
Zn4_4 Zn 1.0000 1.0000 0.434680(17)
Zn6_4 Zn 1.0000 1.0000 0.5000
O9 O 0.89730(13) 0.96096(13) 0.44117(9)
O10 O 0.96342(11) 0.94679(14) 0.43301(9)
O19 O 0.95257(10) 0.95257(10) 0.5000
C53 C 0.9245(2) 0.9376(2) 0.43329(12)
C84 C 0.91457(19) 0.89662(18) 0.42158(12)
Zn4_5 Zn 0.0000 0.5000 0.684680(17)
Zn6_5 Zn 0.0000 0.5000 0.7500
O9_2 O 0.03904(13) 0.39730(13) 0.69117(9)
O10_2 O 0.05321(14) 0.46342(11) 0.68301(9)
O18_2 O 0.02666(9) 0.53255(9) 0.71768(6)
H3_2 H 0.0524 0.5279 0.7177
O19_2 O 0.04743(10) 0.45257(10) 0.7500
C53_2 C 0.0624(2) 0.4245(2) 0.68329(12)
Zn14_2 Zn 0.01707(2) 0.589657(19) 0.705127(14)
O23_2 O 0.02703(12) 0.53609(13) 0.65448(8)
O36_2 O 0.03255(9) 0.52666(9) 0.78232(6)
C84_2 C 0.10338(18) 0.41457(19) 0.67158(12)
Zn13_2 Zn 0.5000 -0.0000 0.315320(17)
Zn16_2 Zn 0.589657(19) 0.01707(2) 0.294873(14)
Zn2_2 Zn 0.85107(3) 0.56697(2) 0.315380(17)
Zn4_6 Zn 1.0000 0.5000 0.684680(17)
Zn5_2 Zn 0.98293(2) 0.410343(19) 0.705127(14)
Zn6_6 Zn 1.0000 0.5000 0.7500
Na1_2 Na 0.7500 0.50944(9) 0.3750
O1_2 O 0.88196(14) 0.47381(16) 0.39222(9)
O2_2 O 0.82297(14) 0.50804(14) 0.38734(8)
O3_2 O 0.97297(12) 0.46391(13) 0.65448(8)
O4_2 O 0.94390(12) 0.40765(13) 0.67288(8)
O7_2 O 0.81157(14) 0.61009(14) 0.32286(10)
O8_2 O 0.77261(13) 0.55935(14) 0.33814(9)
O11_2 O 0.78445(13) 0.43258(13) 0.29729(11)
O12_2 O 0.72563(12) 0.45802(13) 0.40954(10)
O13_2 O 0.96663(14) 0.36265(12) 0.72664(10)
O14_2 O 0.99114(18) 0.39081(15) 0.76572(10)
H1_2 H 0.9971 0.4102 0.7544
O15_2 O 0.89499(17) 0.58510(16) 0.33969(14)
O16_2 O 0.92693(15) 0.52695(16) 0.35128(12)
O17_2 O 0.84297(10) 0.50935(11) 0.32632(7)
H2_2 H 0.8209 0.5100 0.3359
C1_2 C 0.8482(3) 0.4921(2) 0.40159(12)
C2_2 C 0.84013(19) 0.48607(18) 0.43287(11)
C3_2 C 0.80627(19) 0.5018(2) 0.44501(12)
H4_2 H 0.7884 0.5179 0.4344
C4_2 C 0.79783(19) 0.4946(2) 0.47207(12)
H5_2 H 0.7752 0.5077 0.4801
C5_2 C 0.82147(19) 0.4686(2) 0.48874(13)
C6_2 C 0.8580(2) 0.4523(2) 0.47585(14)
H6_2 H 0.8760 0.4360 0.4861
C7_2 C 0.8657(2) 0.4609(2) 0.44892(14)
H7_2 H 0.8890 0.4496 0.4406
C8_2 C 0.8091(2) 0.45508(19) 0.51767(12)
C9_2 C 0.7681(2) 0.4442(2) 0.52152(13)
H8_2 H 0.7499 0.4440 0.5064
C10_2 C 0.75467(19) 0.4338(2) 0.54812(14)
C11_2 C 0.7840(2) 0.4329(2) 0.57033(13)
H9_2 H 0.7753 0.4241 0.5879
C12_2 C 0.8247(2) 0.4443(2) 0.56685(13)
C13_2 C 0.83648(19) 0.4561(2) 0.53972(13)
H10_2 H 0.8636 0.4639 0.5364
C14_2 C 0.85480(19) 0.4415(2) 0.59066(13)
C15_2 C 0.8555(2) 0.4088(3) 0.60838(15)
H11_2 H 0.8375 0.3868 0.6062
C16_2 C 0.8844(2) 0.4075(2) 0.62899(14)
H12_2 H 0.8840 0.3855 0.6414
C17_2 C 0.9137(2) 0.4395(2) 0.63270(13)
C18_2 C 0.9106(2) 0.4720(2) 0.61532(14)
H13_2 H 0.9300 0.4929 0.6169
C19_2 C 0.8811(2) 0.4751(2) 0.59519(14)
H14_2 H 0.8785 0.4989 0.5845
C20_2 C 0.9460(2) 0.4366(2) 0.65516(13)
C21_2 C 0.7126(2) 0.4234(2) 0.55306(12)
C22_2 C 0.6892(2) 0.4046(3) 0.53256(14)
H15_2 H 0.7021 0.3987 0.5156
C23_2 C 0.6475(2) 0.3950(3) 0.53557(15)
H16_2 H 0.6337 0.3819 0.5211
C24_2 C 0.6263(2) 0.4021(2) 0.56037(13)
C25_2 C 0.6501(2) 0.4208(2) 0.58120(14)
H17_2 H 0.6373 0.4252 0.5984
C26_2 C 0.6911(2) 0.4322(2) 0.57748(14)
H18_2 H 0.7049 0.4458 0.5919
C28_2 C 0.7784(2) 0.5966(2) 0.33243(14)
C29_2 C 0.74463(12) 0.62725(12) 0.33713(9)
C30_2 C 0.75208(10) 0.66917(14) 0.33411(9)
H19_2 H 0.7774 0.6783 0.3275
C31_2 C 0.72164(14) 0.69751(10) 0.34102(10)
H20_2 H 0.7266 0.7256 0.3390
C32_2 C 0.68375(12) 0.68393(12) 0.35094(9)
C33_2 C 0.67630(10) 0.64201(13) 0.35396(8)
H21_2 H 0.6509 0.6329 0.3606
C34_2 C 0.70674(13) 0.61367(10) 0.34705(9)
H22_2 H 0.7018 0.5856 0.3491
C35_2 C 0.65307(19) 0.71401(17) 0.36344(13)
C36_2 C 0.64418(19) 0.7506(2) 0.35138(13)
H23_2 H 0.6559 0.7572 0.3341
C37_2 C 0.6168(2) 0.7784(2) 0.36422(14)
C38_2 C 0.6006(2) 0.7662(2) 0.39007(16)
H24_2 H 0.5824 0.7842 0.3988
C39_2 C 0.60902(19) 0.7296(2) 0.40321(14)
C40_2 C 0.63531(19) 0.7043(2) 0.38929(14)
H25_2 H 0.6408 0.6784 0.3968
C41_2 C 0.5908(2) 0.71759(18) 0.42914(13)
C42_2 C 0.5523(2) 0.7261(2) 0.43724(14)
H26_2 H 0.5361 0.7424 0.4256
C43_2 C 0.5357(2) 0.7127(2) 0.46186(16)
H27_2 H 0.5082 0.7184 0.4657
C44_2 C 0.5589(2) 0.6904(2) 0.48141(15)
C45_2 C 0.5992(2) 0.6811(2) 0.47394(17)
H28_2 H 0.6160 0.6662 0.4860
C46_2 C 0.6147(2) 0.6940(3) 0.44732(16)
H29_2 H 0.6418 0.6878 0.4424
C47_2 C 0.6061(2) 0.8191(2) 0.35157(15)
C48_2 C 0.6350(2) 0.8444(2) 0.34088(15)
H30_2 H 0.6627 0.8372 0.3420
C49_2 C 0.6241(2) 0.8828(2) 0.32966(14)
H31_2 H 0.6446 0.8994 0.3222
C50_2 C 0.58543(19) 0.89662(18) 0.32842(12)
C51_2 C 0.55598(19) 0.87017(19) 0.33924(14)
H32_2 H 0.5286 0.8785 0.3379
C52_2 C 0.5650(2) 0.8334(2) 0.35102(15)
H33_2 H 0.5438 0.8178 0.3587
C54_2 C 0.76707(19) 0.4333(2) 0.32051(18)
C55_2 C 0.73008(18) 0.40477(19) 0.32363(16)
C56_2 C 0.70928(19) 0.40409(19) 0.34830(14)
H34_2 H 0.7183 0.4192 0.3637
C57_2 C 0.6745(2) 0.37898(19) 0.34927(14)
H35_2 H 0.6602 0.3777 0.3662
C58_2 C 0.6593(2) 0.35585(17) 0.32654(14)
C59_2 C 0.6824(2) 0.3565(2) 0.30307(15)
H36_2 H 0.6754 0.3391 0.2883
C60_2 C 0.7168(2) 0.3799(2) 0.30054(15)
H37_2 H 0.7311 0.3805 0.2837
C61_2 C 0.6182(2) 0.3364(2) 0.32899(13)
C62_2 C 0.5861(2) 0.3554(2) 0.34270(13)
H38_2 H 0.5914 0.3798 0.3524
C63_2 C 0.5478(2) 0.3394(2) 0.34303(14)
C64_2 C 0.5387(2) 0.3017(2) 0.33077(13)
H39_2 H 0.5127 0.2899 0.3325
C65_2 C 0.5698(2) 0.2822(2) 0.31655(15)
C66_2 C 0.6102(2) 0.29899(19) 0.31650(14)
H40_2 H 0.6316 0.2846 0.3080
C67_2 C 0.5619(2) 0.24186(19) 0.30089(13)
C68_2 C 0.5500(3) 0.20663(19) 0.31498(15)
H41_2 H 0.5467 0.2057 0.3343
C69_2 C 0.5384(3) 0.1740(2) 0.29778(13)
H42_2 H 0.5310 0.1498 0.3069
C70_2 C 0.5406(2) 0.17111(19) 0.26900(12)
C71_2 C 0.5557(2) 0.20635(18) 0.25666(14)
H43_2 H 0.5593 0.2063 0.2373
C72_2 C 0.5646(3) 0.2422(2) 0.27183(13)
H44_2 H 0.5732 0.2658 0.2624
C73_2 C 0.9721(2) 0.3644(2) 0.75334(18)
C74_2 C 0.5153(2) 0.3643(2) 0.35695(15)
C75_2 C 0.5167(2) 0.4060(3) 0.35789(14)
H45_2 H 0.5387 0.4192 0.3492
C76_2 C 0.4852(3) 0.4302(2) 0.37115(17)
H46_2 H 0.4867 0.4588 0.3706
C77_2 C 0.4534(2) 0.4100(3) 0.38498(19)
C78_2 C 0.4518(2) 0.3686(2) 0.38689(18)
H47_2 H 0.4305 0.3550 0.3961
C79_2 C 0.4840(3) 0.3452(2) 0.37235(17)
H48_2 H 0.4838 0.3167 0.3738
C80_2 C 0.9218(3) 0.5651(3) 0.3530(2)
O20_2 O 0.81704(16) 0.50514(16) 0.26219(9)
O21_2 O 0.84368(15) 0.56533(17) 0.27450(10)
C81_2 C 0.5415(3) 0.6762(2) 0.50804(15)
Zn7_2 Zn 0.38369(3) 0.51474(2) 0.397643(15)
Zn8_2 Zn 0.51474(2) 0.38369(3) 0.602357(15)
Zn9_2 Zn 0.56697(2) 0.64893(3) 0.565380(17)
Zn10_2 Zn 0.35107(3) 0.43303(2) 0.434620(17)
Zn11_2 Zn 0.47204(2) 0.67051(2) 0.545350(16)
Zn12_2 Zn 0.52796(2) 0.32949(2) 0.545350(16)
Zn13_3 Zn 0.5000 1.0000 0.315320(17)
Zn15_2 Zn 0.51707(2) 0.089657(19) 0.205127(14)
O22_2 O 0.67703(14) 0.50804(14) 0.36266(8)
O24_2 O 0.56500(15) 0.37728(14) 0.54352(9)
O25_2 O 0.56958(18) 0.39542(14) 0.58909(11)
O26_2 O 0.72739(13) 0.55935(14) 0.41186(9)
O27_2 O 0.60270(13) 0.96096(13) 0.30883(9)
O28_2 O 0.94679(14) 0.53658(11) 0.68301(9)
O29_2 O 0.53658(11) 0.94679(14) 0.31699(9)
O30_2 O 0.77437(12) 0.45802(13) 0.34046(10)
O31_2 O 0.53337(14) 0.13735(12) 0.22664(10)
O32_2 O 0.50886(18) 0.10919(15) 0.26572(10)
H49_2 H 0.5029 0.0898 0.2544
O33_2 O 0.39499(17) 0.41490(16) 0.41031(14)
O34_2 O 0.42693(15) 0.47305(16) 0.39872(12)
O35_2 O 0.97334(9) 0.46745(9) 0.71768(6)
O37_2 O 0.96745(9) 0.47334(9) 0.78232(6)
O38_2 O 0.95257(10) 0.54743(10) 0.7500
C83_2 C 0.5838(2) 0.3914(2) 0.56476(19)
C85_2 C 0.5755(2) 0.9376(2) 0.31671(12)
C86_2 C 0.73293(19) 0.4333(2) 0.42949(18)
C87_2 C 0.9594(2) 0.32889(19) 0.76900(12)
C88_2 C 0.5279(2) 0.1356(2) 0.25334(18)
C89_2 C 0.9534(2) 0.5900(3) 0.36502(19)
C90_2 C 0.4218(3) 0.4349(3) 0.3970(2)
O39_2 O 0.50514(16) 0.68296(16) 0.51219(9)
O40_2 O 0.56533(17) 0.65632(15) 0.52450(10)
C91_2 C 0.8238(2) 0.5415(3) 0.25804(15)
Zn6_7 Zn 0.5000 0.5000 -0.0000
O19_3 O 0.54743(10) 0.54743(10) -0.0000
O36_3 O 0.47334(9) 0.53255(9) 0.03232(6)
O37_3 O 0.52666(9) 0.46745(9) 0.03232(6)
O38_3 O 0.45257(10) 0.45257(10) -0.0000
Zn2_3 Zn 0.43303(2) 0.35107(3) 0.565380(17)
Zn4_7 Zn 0.5000 0.5000 0.934680(17)
Zn6_8 Zn 0.5000 0.5000 1.0000
Na1_3 Na 0.49056(9) 0.2500 0.6250
O1_3 O 0.52619(16) 0.38196(14) 0.64222(9)
O2_3 O 0.49196(14) 0.32297(14) 0.63734(8)
O3_3 O 0.53609(13) 0.47297(12) 0.90448(8)
O4_3 O 0.59235(13) 0.44390(12) 0.92288(8)
O7_3 O 0.38991(14) 0.31157(14) 0.57286(10)
O8_3 O 0.44065(14) 0.27261(13) 0.58814(9)
O9_3 O 0.60270(13) 0.53904(13) 0.94117(9)
O10_3 O 0.53658(11) 0.55321(14) 0.93301(9)
O11_3 O 0.56742(13) 0.28445(13) 0.54729(11)
O12_3 O 0.54198(13) 0.22563(12) 0.65954(10)
O15_3 O 0.41490(16) 0.39499(17) 0.58969(14)
O16_3 O 0.47305(16) 0.42693(15) 0.60128(12)
O17_3 O 0.49065(11) 0.34297(10) 0.57632(7)
H2_3 H 0.4900 0.3209 0.5859
O18_3 O 0.46745(9) 0.52666(9) 0.96768(6)
H3_3 H 0.4721 0.5524 0.9677
O19_4 O 0.54743(10) 0.54743(10) 1.0000
C1_3 C 0.5079(2) 0.3482(3) 0.65159(12)
C2_3 C 0.51393(18) 0.34013(19) 0.68287(11)
C3_3 C 0.4982(2) 0.30627(19) 0.69501(12)
H4_3 H 0.4821 0.2884 0.6844
C4_3 C 0.5054(2) 0.29783(19) 0.72207(12)
H5_3 H 0.4923 0.2752 0.7301
C5_3 C 0.5314(2) 0.32147(19) 0.73874(13)
C6_3 C 0.5477(2) 0.3580(2) 0.72585(14)
H6_3 H 0.5640 0.3760 0.7361
C7_3 C 0.5391(2) 0.3657(2) 0.69892(14)
H7_3 H 0.5504 0.3890 0.6906
C8_3 C 0.54492(19) 0.3091(2) 0.76767(12)
C9_3 C 0.5558(2) 0.2681(2) 0.77152(13)
H8_3 H 0.5560 0.2499 0.7564
C10_3 C 0.5662(2) 0.25467(19) 0.79812(14)
C11_3 C 0.5671(2) 0.2840(2) 0.82033(13)
H9_3 H 0.5759 0.2753 0.8379
C12_3 C 0.5557(2) 0.3247(2) 0.81685(13)
C13_3 C 0.5439(2) 0.33648(19) 0.78972(13)
H10_3 H 0.5361 0.3636 0.7864
C14_3 C 0.5585(2) 0.35480(19) 0.84066(13)
C15_3 C 0.5912(3) 0.3555(2) 0.85838(15)
H11_3 H 0.6132 0.3375 0.8562
C16_3 C 0.5925(2) 0.3844(2) 0.87899(14)
H12_3 H 0.6145 0.3840 0.8914
C17_3 C 0.5605(2) 0.4137(2) 0.88270(13)
C18_3 C 0.5280(2) 0.4106(2) 0.86532(14)
H13_3 H 0.5071 0.4300 0.8669
C19_3 C 0.5249(2) 0.3811(2) 0.84519(14)
H14_3 H 0.5011 0.3785 0.8345
C20_3 C 0.5634(2) 0.4460(2) 0.90516(13)
C21_3 C 0.5766(2) 0.2126(2) 0.80306(12)
C22_3 C 0.5954(3) 0.1892(2) 0.78256(14)
H15_3 H 0.6013 0.2021 0.7656
C23_3 C 0.6050(3) 0.1475(2) 0.78557(15)
H16_3 H 0.6181 0.1337 0.7711
C24_3 C 0.5979(2) 0.1263(2) 0.81037(13)
C25_3 C 0.5792(2) 0.1501(2) 0.83120(14)
H17_3 H 0.5748 0.1373 0.8484
C26_3 C 0.5678(2) 0.1911(2) 0.82748(14)
H18_3 H 0.5542 0.2049 0.8419
C28_3 C 0.4034(2) 0.2784(2) 0.58243(14)
C29_3 C 0.37275(12) 0.24463(12) 0.58713(9)
C30_3 C 0.33083(14) 0.25208(10) 0.58411(9)
H19_3 H 0.3217 0.2774 0.5775
C31_3 C 0.30249(10) 0.22164(14) 0.59102(10)
H20_3 H 0.2744 0.2266 0.5890
C32_3 C 0.31607(12) 0.18375(12) 0.60094(9)
C33_3 C 0.35799(13) 0.17630(10) 0.60396(8)
H21_3 H 0.3671 0.1509 0.6106
C34_3 C 0.38633(10) 0.20674(13) 0.59705(9)
H22_3 H 0.4144 0.2018 0.5991
C35_3 C 0.28599(17) 0.15307(19) 0.61344(13)
C36_3 C 0.2494(2) 0.14418(19) 0.60138(13)
H23_3 H 0.2428 0.1559 0.5841
C37_3 C 0.2216(2) 0.1168(2) 0.61422(14)
C38_3 C 0.2338(2) 0.1006(2) 0.64007(16)
H24_3 H 0.2158 0.0824 0.6488
C39_3 C 0.2704(2) 0.10902(19) 0.65321(14)
C40_3 C 0.2957(2) 0.13531(19) 0.63929(14)
H25_3 H 0.3216 0.1408 0.6468
C41_3 C 0.28241(18) 0.0908(2) 0.67914(13)
C42_3 C 0.2739(2) 0.0523(2) 0.68724(14)
H26_3 H 0.2576 0.0361 0.6756
C43_3 C 0.2873(2) 0.0357(2) 0.71186(16)
H27_3 H 0.2816 0.0082 0.7157
C44_3 C 0.3096(2) 0.0589(2) 0.73141(15)
C45_3 C 0.3189(2) 0.0992(2) 0.72394(17)
H28_3 H 0.3338 0.1160 0.7360
C46_3 C 0.3060(3) 0.1147(2) 0.69732(16)
H29_3 H 0.3122 0.1418 0.6924
C47_3 C 0.1809(2) 0.1061(2) 0.60157(15)
C48_3 C 0.1556(2) 0.1350(2) 0.59088(15)
H30_3 H 0.1628 0.1627 0.5920
C49_3 C 0.1172(2) 0.1241(2) 0.57966(14)
H31_3 H 0.1006 0.1446 0.5722
C50_3 C 0.10338(18) 0.08543(19) 0.57842(12)
C51_3 C 0.12983(19) 0.05598(19) 0.58924(14)
H32_3 H 0.1215 0.0286 0.5879
C52_3 C 0.1666(2) 0.0650(2) 0.60102(15)
H33_3 H 0.1822 0.0438 0.6087
C53_3 C 0.5755(2) 0.5624(2) 0.93329(12)
C54_3 C 0.5667(2) 0.26707(19) 0.57051(18)
C55_3 C 0.59523(19) 0.23008(18) 0.57363(16)
C56_3 C 0.59591(19) 0.20928(19) 0.59830(14)
H34_3 H 0.5808 0.2183 0.6137
C57_3 C 0.62102(19) 0.1745(2) 0.59927(14)
H35_3 H 0.6223 0.1602 0.6162
C58_3 C 0.64415(17) 0.1593(2) 0.57654(14)
C59_3 C 0.6435(2) 0.1824(2) 0.55307(15)
H36_3 H 0.6609 0.1754 0.5383
C60_3 C 0.6201(2) 0.2168(2) 0.55054(15)
H37_3 H 0.6195 0.2311 0.5337
C61_3 C 0.6636(2) 0.1182(2) 0.57899(13)
C62_3 C 0.6446(2) 0.0861(2) 0.59270(13)
H38_3 H 0.6202 0.0914 0.6024
C63_3 C 0.6606(2) 0.0478(2) 0.59303(14)
C64_3 C 0.6983(2) 0.0387(2) 0.58077(13)
H39_3 H 0.7101 0.0127 0.5825
C65_3 C 0.7178(2) 0.0698(2) 0.56655(15)
C66_3 C 0.70101(19) 0.1102(2) 0.56650(14)
H40_3 H 0.7154 0.1316 0.5580
C67_3 C 0.75814(19) 0.0619(2) 0.55089(13)
C68_3 C 0.79337(19) 0.0500(3) 0.56498(15)
H41_3 H 0.7943 0.0467 0.5843
C69_3 C 0.8260(2) 0.0384(3) 0.54778(13)
H42_3 H 0.8502 0.0310 0.5569
C71_3 C 0.79365(18) 0.0557(2) 0.50666(14)
H43_3 H 0.7937 0.0593 0.4873
C72_3 C 0.7578(2) 0.0646(3) 0.52183(13)
H44_3 H 0.7342 0.0732 0.5124
C74_3 C 0.6357(2) 0.0153(2) 0.60695(15)
C75_3 C 0.5940(3) 0.0167(2) 0.60789(14)
H45_3 H 0.5808 0.0387 0.5992
C80_3 C 0.4349(3) 0.4218(3) 0.6030(2)
O20_3 O 0.49486(16) 0.31704(16) 0.51219(9)
O21_3 O 0.43467(17) 0.34368(15) 0.52450(10)
C81_3 C 0.3238(2) 0.0415(3) 0.75804(15)
Zn8_3 Zn 0.61631(3) 0.01474(2) 0.852357(15)
Zn9_3 Zn 0.35107(3) 0.06697(2) 0.815380(17)
Zn12_3 Zn 0.67051(2) 0.02796(2) 0.795350(16)
Zn13_4 Zn 0.0000 0.0000 0.565320(17)
Zn14_3 Zn 0.410343(19) 0.51707(2) 0.955127(14)
O22_3 O 0.49196(14) 0.17703(14) 0.61266(8)
O23_3 O 0.46391(13) 0.52703(12) 0.90448(8)
O24_3 O 0.62272(14) 0.06500(15) 0.79352(9)
O25_3 O 0.60458(14) 0.06958(18) 0.83909(11)
O26_3 O 0.44065(14) 0.22739(13) 0.66186(9)
O27_3 O 0.03904(13) 0.10270(13) 0.55883(9)
O28_3 O 0.46342(11) 0.44679(14) 0.93301(9)
O29_3 O 0.05321(14) 0.03658(11) 0.56699(9)
O30_3 O 0.54198(13) 0.27437(12) 0.59046(10)
O35_3 O 0.53255(9) 0.47334(9) 0.96768(6)
O38_4 O 0.45257(10) 0.45257(10) 1.0000
C83_3 C 0.6086(2) 0.0838(2) 0.81476(19)
C84_3 C 0.58543(19) 0.60338(18) 0.92158(12)
C85_3 C 0.0624(2) 0.0755(2) 0.56671(12)
C86_3 C 0.5667(2) 0.23293(19) 0.67949(18)
C89_3 C 0.4100(3) 0.4534(2) 0.61502(19)
O39_3 O 0.31704(16) 0.00514(16) 0.76219(9)
O40_3 O 0.34368(15) 0.06533(17) 0.77450(10)
C91_3 C 0.4585(3) 0.3238(2) 0.50804(15)
C76_3 C 0.5698(2) 0.9852(3) 0.62115(17)
H46_3 H 0.5412 0.9867 0.6206
C77_3 C 0.5900(3) 0.9534(2) 0.63498(19)
C78_3 C 0.6314(2) 0.9518(2) 0.63689(18)
H47_3 H 0.6450 0.9305 0.6461
C79_3 C 0.6548(2) 0.9840(3) 0.62235(17)
H48_3 H 0.6833 0.9838 0.6238
Zn7_3 Zn 0.48526(2) 0.88369(3) 0.647643(15)
Zn10_3 Zn 0.56697(2) 0.85107(3) 0.684620(17)
Zn11_3 Zn 0.32949(2) 0.97204(2) 0.795350(16)
Zn13_5 Zn -0.0000 1.0000 0.565320(17)
O33_3 O 0.58510(16) 0.89499(17) 0.66031(14)
O34_3 O 0.52695(16) 0.92693(15) 0.64872(12)
C90_3 C 0.5651(3) 0.9218(3) 0.6470(2)
Zn13_6 Zn 1.0000 0.0000 0.565320(17)
Zn16_3 Zn 0.98293(2) 0.089657(19) 0.544873(14)
Zn13_7 Zn 1.0000 1.0000 0.565320(17)
C76_4 C 0.0148(3) 0.0698(2) 0.87115(17)
H46_4 H 0.0133 0.0412 0.8706
C77_4 C 0.0466(2) 0.0900(3) 0.88498(19)
C78_4 C 0.0482(2) 0.1314(2) 0.88689(18)
H47_4 H 0.0695 0.1450 0.8961
C79_4 C 0.0160(3) 0.1548(2) 0.87235(17)
H48_4 H 0.0162 0.1833 0.8738
Zn10_4 Zn 0.14893(3) 0.06697(2) 0.934620(17)
O33_4 O 0.10501(17) 0.08510(16) 0.91031(14)
O34_4 O 0.07307(15) 0.02695(16) 0.89872(12)
C90_4 C 0.0782(3) 0.0651(3) 0.8970(2)
Zn11_4 Zn 0.02796(2) 0.82949(2) 0.045350(16)
Zn7_4 Zn 0.11631(3) 0.98526(2) 0.897643(15)
Zn13_8 Zn 0.0000 0.5000 0.815320(17)
Zn4_8 Zn 0.5000 0.0000 0.184680(17)
Zn6_9 Zn 0.5000 0.0000 0.2500
O3_4 O 0.52703(12) 0.03609(13) 0.15448(8)
O4_4 O 0.55610(12) 0.09235(13) 0.17288(8)
O9_4 O 0.46096(13) 0.10270(13) 0.19117(9)
O10_4 O 0.44679(14) 0.03658(11) 0.18301(9)
O19_5 O 0.45257(10) 0.04743(10) 0.2500
C8_4 C 0.6909(2) 0.04492(19) 0.01767(12)
C9_4 C 0.7319(2) 0.0558(2) 0.02152(13)
H8_4 H 0.7501 0.0560 0.0064
C10_4 C 0.74533(19) 0.0662(2) 0.04812(14)
C11_4 C 0.7160(2) 0.0671(2) 0.07033(13)
H9_4 H 0.7247 0.0759 0.0879
C12_4 C 0.6753(2) 0.0557(2) 0.06685(13)
C13_4 C 0.66352(19) 0.0439(2) 0.03972(13)
H10_4 H 0.6364 0.0361 0.0364
C14_4 C 0.64520(19) 0.0585(2) 0.09066(13)
C15_4 C 0.6445(2) 0.0912(3) 0.10838(15)
H11_4 H 0.6625 0.1132 0.1062
C16_4 C 0.6156(2) 0.0925(2) 0.12899(14)
H12_4 H 0.6160 0.1145 0.1414
C17_4 C 0.5863(2) 0.0605(2) 0.13270(13)
C18_4 C 0.5894(2) 0.0280(2) 0.11532(14)
H13_4 H 0.5700 0.0071 0.1169
C19_4 C 0.6189(2) 0.0249(2) 0.09519(14)
H14_4 H 0.6215 0.0011 0.0845
C20_4 C 0.5540(2) 0.0634(2) 0.15516(13)
C21_4 C 0.7874(2) 0.0766(2) 0.05306(12)
C22_4 C 0.8108(2) 0.0954(3) 0.03256(14)
H15_4 H 0.7979 0.1013 0.0156
C23_4 C 0.8525(2) 0.1050(3) 0.03557(15)
H16_4 H 0.8663 0.1181 0.0211
C25_4 C 0.8499(2) 0.0792(2) 0.08120(14)
H17_4 H 0.8627 0.0748 0.0984
C26_4 C 0.8089(2) 0.0678(2) 0.07748(14)
H18_4 H 0.7951 0.0542 0.0919
C53_4 C 0.4376(2) 0.0755(2) 0.18329(12)
O35_4 O 0.52666(9) 0.03255(9) 0.21768(6)
O37_4 O 0.53255(9) 0.02666(9) 0.28232(6)
C84_4 C 0.39662(18) 0.08543(19) 0.17158(12)
O1_4 O 0.61804(14) 0.02619(16) 0.89222(9)
O11_4 O 0.71555(13) 0.06742(13) 0.79729(11)
O12_4 O 0.77437(12) 0.04198(13) 0.90954(10)
C1_4 C 0.6518(3) 0.0079(2) 0.90159(12)
C2_4 C 0.65987(19) 0.01393(18) 0.93287(11)
C4_4 C 0.70217(19) 0.0054(2) 0.97207(12)
C5_4 C 0.67853(19) 0.0314(2) 0.98874(13)
C6_4 C 0.6420(2) 0.0477(2) 0.97585(14)
H6_4 H 0.6240 0.0640 0.9861
C7_4 C 0.6343(2) 0.0391(2) 0.94892(14)
H7_4 H 0.6110 0.0504 0.9406
C54_4 C 0.73293(19) 0.0667(2) 0.82051(18)
C55_4 C 0.76992(18) 0.09523(19) 0.82363(16)
C56_4 C 0.79072(19) 0.09591(19) 0.84830(14)
H34_4 H 0.7817 0.0808 0.8637
C57_4 C 0.8255(2) 0.12102(19) 0.84927(14)
H35_4 H 0.8398 0.1223 0.8662
C58_4 C 0.8407(2) 0.14415(17) 0.82654(14)
C59_4 C 0.8176(2) 0.1435(2) 0.80307(15)
H36_4 H 0.8246 0.1609 0.7883
C60_4 C 0.7832(2) 0.1201(2) 0.80054(15)
H37_4 H 0.7689 0.1195 0.7837
C61_4 C 0.8818(2) 0.1636(2) 0.82899(13)
C62_4 C 0.9139(2) 0.1446(2) 0.84270(13)
H38_4 H 0.9086 0.1202 0.8524
C63_4 C 0.9522(2) 0.1606(2) 0.84303(14)
C64_4 C 0.9613(2) 0.1983(2) 0.83077(13)
H39_4 H 0.9873 0.2101 0.8325
C65_4 C 0.9302(2) 0.2178(2) 0.81655(15)
C66_4 C 0.8898(2) 0.20101(19) 0.81650(14)
H40_4 H 0.8684 0.2154 0.8080
C67_4 C 0.9381(2) 0.25814(19) 0.80089(13)
C68_4 C 0.9500(3) 0.29337(19) 0.81498(15)
H41_4 H 0.9533 0.2943 0.8343
C69_4 C 0.9616(3) 0.3260(2) 0.79778(13)
H42_4 H 0.9690 0.3502 0.8069
C71_4 C 0.9443(2) 0.29365(18) 0.75666(14)
H43_4 H 0.9407 0.2937 0.7373
C72_4 C 0.9354(3) 0.2578(2) 0.77183(13)
H44_4 H 0.9268 0.2342 0.7624
C74_4 C 0.9847(2) 0.1357(2) 0.85695(15)
C75_4 C 0.9833(2) 0.0940(3) 0.85789(14)
H45_4 H 0.9613 0.0808 0.8492
O30_4 O 0.72563(12) 0.04198(13) 0.84046(10)
C86_4 C 0.76707(19) 0.0667(2) 0.92949(18)
Zn4_9 Zn 0.5000 1.0000 0.184680(17)
Zn6_10 Zn 0.5000 1.0000 0.2500
O18_4 O 0.47334(9) 0.96745(9) 0.21768(6)
H3_4 H 0.4476 0.9721 0.2177
C81_4 C 0.9585(3) 0.8238(2) 0.00804(15)
Zn9_4 Zn 0.93303(2) 0.85107(3) 0.065380(17)
Zn14_4 Zn 0.48293(2) 0.910343(19) 0.205127(14)
O23_4 O 0.47297(12) 0.96391(13) 0.15448(8)
O28_4 O 0.55321(14) 0.96342(11) 0.18301(9)
O36_4 O 0.46745(9) 0.97334(9) 0.28232(6)
O38_5 O 0.54743(10) 0.95257(10) 0.2500
O39_4 O 0.99486(16) 0.81704(16) 0.01219(9)
O40_4 O 0.93467(17) 0.84368(15) 0.02450(10)
Zn2_4 Zn 0.64893(3) 0.93303(2) 0.815380(17)
Na1_4 Na 0.7500 0.99056(9) 0.8750
O2_4 O 0.67703(14) 0.99196(14) 0.88734(8)
O7_4 O 0.68843(14) 0.88991(14) 0.82286(10)
O8_4 O 0.72739(13) 0.94065(14) 0.83814(9)
O15_4 O 0.60501(17) 0.91490(16) 0.83969(14)
O16_4 O 0.57307(15) 0.97305(16) 0.85128(12)
O17_4 O 0.65703(10) 0.99065(11) 0.82632(7)
H2_4 H 0.6791 0.9900 0.8359
C3_4 C 0.69373(19) 0.9982(2) 0.94501(12)
H4_4 H 0.7116 0.9821 0.9344
H5_4 H 0.7248 0.9923 0.9801
C28_4 C 0.7216(2) 0.9034(2) 0.83243(14)
C29_4 C 0.75537(12) 0.87275(12) 0.83713(9)
C30_4 C 0.74792(10) 0.83083(14) 0.83411(9)
H19_4 H 0.7226 0.8217 0.8275
C31_4 C 0.77836(14) 0.80249(10) 0.84102(10)
H20_4 H 0.7734 0.7744 0.8390
C32_4 C 0.81625(12) 0.81607(12) 0.85094(9)
C33_4 C 0.82370(10) 0.85799(13) 0.85396(8)
H21_4 H 0.8491 0.8671 0.8606
C34_4 C 0.79326(13) 0.88633(10) 0.84705(9)
H22_4 H 0.7982 0.9144 0.8491
C35_4 C 0.84693(19) 0.78599(17) 0.86344(13)
C36_4 C 0.85582(19) 0.7494(2) 0.85138(13)
H23_4 H 0.8441 0.7428 0.8341
C37_4 C 0.8832(2) 0.7216(2) 0.86422(14)
C38_4 C 0.8994(2) 0.7338(2) 0.89007(16)
H24_4 H 0.9176 0.7158 0.8988
C39_4 C 0.89098(19) 0.7704(2) 0.90321(14)
C40_4 C 0.86469(19) 0.7957(2) 0.88929(14)
H25_4 H 0.8592 0.8216 0.8968
C41_4 C 0.9092(2) 0.78241(18) 0.92914(13)
C42_4 C 0.9477(2) 0.7739(2) 0.93724(14)
H26_4 H 0.9639 0.7576 0.9256
C43_4 C 0.9643(2) 0.7873(2) 0.96186(16)
H27_4 H 0.9918 0.7816 0.9657
C44_4 C 0.9411(2) 0.8096(2) 0.98141(15)
C45_4 C 0.9008(2) 0.8189(2) 0.97394(17)
H28_4 H 0.8840 0.8338 0.9860
C46_4 C 0.8853(2) 0.8060(3) 0.94732(16)
H29_4 H 0.8582 0.8122 0.9424
C47_4 C 0.8939(2) 0.6809(2) 0.85157(15)
C48_4 C 0.8650(2) 0.6556(2) 0.84088(15)
H30_4 H 0.8373 0.6628 0.8420
C49_4 C 0.8759(2) 0.6172(2) 0.82966(14)
H31_4 H 0.8554 0.6006 0.8222
C50_4 C 0.91457(19) 0.60338(18) 0.82842(12)
C51_4 C 0.94402(19) 0.62983(19) 0.83924(14)
H32_4 H 0.9714 0.6215 0.8379
C52_4 C 0.9350(2) 0.6666(2) 0.85102(15)
H33_4 H 0.9562 0.6822 0.8587
C80_4 C 0.5782(3) 0.9349(3) 0.8530(2)
O20_4 O 0.68296(16) 0.99486(16) 0.76219(9)
O21_4 O 0.65632(15) 0.93467(17) 0.77450(10)
Zn13_9 Zn 1.0000 0.5000 0.815320(17)
Zn16_4 Zn 0.910343(19) 0.48293(2) 0.794873(14)
O22_4 O 0.82297(14) 0.99196(14) 0.86266(8)
O26_4 O 0.77261(13) 0.94065(14) 0.91186(9)
O27_4 O 0.89730(13) 0.53904(13) 0.80883(9)
O29_4 O 0.96342(11) 0.55321(14) 0.81699(9)
C85_4 C 0.9245(2) 0.5624(2) 0.81671(12)
C89_4 C 0.5466(2) 0.9100(3) 0.86502(19)
C91_4 C 0.6762(2) 0.9585(3) 0.75804(15)
Zn2_5 Zn 0.06697(2) 0.35107(3) 0.184620(17)
O7_5 O 0.11009(14) 0.31157(14) 0.17714(10)
O15_5 O 0.08510(16) 0.39499(17) 0.16031(14)
O16_5 O 0.02695(16) 0.42693(15) 0.14872(12)
O17_5 O 0.00935(11) 0.34297(10) 0.17368(7)
H2_5 H 0.0100 0.3209 0.1641
C3_5 C 0.0018(2) 0.30627(19) 0.05499(12)
H4_5 H 0.0179 0.2884 0.0656
H5_5 H 0.0077 0.2752 0.0199
C28_5 C 0.0966(2) 0.2784(2) 0.16757(14)
C29_5 C 0.12725(12) 0.24463(12) 0.16287(9)
C30_5 C 0.16917(14) 0.25208(10) 0.16589(9)
H19_5 H 0.1783 0.2774 0.1725
C31_5 C 0.19751(10) 0.22164(14) 0.15898(10)
H20_5 H 0.2256 0.2266 0.1610
C32_5 C 0.18393(12) 0.18375(12) 0.14906(9)
C33_5 C 0.14201(13) 0.17630(10) 0.14604(8)
H21_5 H 0.1329 0.1509 0.1394
C34_5 C 0.11367(10) 0.20674(13) 0.15295(9)
H22_5 H 0.0856 0.2018 0.1509
C35_5 C 0.21401(17) 0.15307(19) 0.13656(13)
C36_5 C 0.2506(2) 0.14418(19) 0.14862(13)
H23_5 H 0.2572 0.1559 0.1659
C37_5 C 0.2784(2) 0.1168(2) 0.13578(14)
C38_5 C 0.2662(2) 0.1006(2) 0.10993(16)
H24_5 H 0.2842 0.0824 0.1012
C39_5 C 0.2296(2) 0.10902(19) 0.09679(14)
C40_5 C 0.2043(2) 0.13531(19) 0.11071(14)
H25_5 H 0.1784 0.1408 0.1032
C41_5 C 0.21759(18) 0.0908(2) 0.07086(13)
C42_5 C 0.2261(2) 0.0523(2) 0.06276(14)
H26_5 H 0.2424 0.0361 0.0744
C43_5 C 0.2127(2) 0.0357(2) 0.03814(16)
H27_5 H 0.2184 0.0082 0.0343
C44_5 C 0.1904(2) 0.0589(2) 0.01859(15)
C45_5 C 0.1811(2) 0.0992(2) 0.02606(17)
H28_5 H 0.1662 0.1160 0.0140
C46_5 C 0.1940(3) 0.1147(2) 0.05268(16)
H29_5 H 0.1878 0.1418 0.0576
C47_5 C 0.3191(2) 0.1061(2) 0.14843(15)
C48_5 C 0.3444(2) 0.1350(2) 0.15912(15)
H30_5 H 0.3372 0.1627 0.1580
C49_5 C 0.3828(2) 0.1241(2) 0.17034(14)
H31_5 H 0.3994 0.1446 0.1778
C51_5 C 0.37017(19) 0.05598(19) 0.16076(14)
H32_5 H 0.3785 0.0286 0.1621
C52_5 C 0.3334(2) 0.0650(2) 0.14898(15)
H33_5 H 0.3178 0.0438 0.1413
C80_5 C 0.0651(3) 0.4218(3) 0.1470(2)
O20_5 O 0.00514(16) 0.31704(16) 0.23781(9)
O21_5 O 0.06533(17) 0.34368(15) 0.22550(10)
C89_5 C 0.0900(3) 0.4534(2) 0.13498(19)
C91_5 C 0.0415(3) 0.3238(2) 0.24196(15)
H3_5 H 0.0279 0.5524 0.7823
C81_5 C 0.1762(2) 0.0415(3) 0.99196(15)
Zn14_5 Zn 0.089657(19) 0.51707(2) 0.794873(14)
O23_5 O 0.03609(13) 0.52703(12) 0.84552(8)
O28_5 O 0.03658(11) 0.44679(14) 0.81699(9)
O39_5 O 0.18296(16) 0.00514(16) 0.98781(9)
O40_5 O 0.15632(15) 0.06533(17) 0.97550(10)
Zn7_5 Zn 0.01474(2) 0.88369(3) 0.102357(15)
Zn11_5 Zn 0.17051(2) 0.97204(2) 0.954650(16)
Zn1_2 Zn 0.98526(2) 0.38369(3) 0.147643(15)
Zn3_2 Zn 0.97204(2) 0.32949(2) 0.204650(16)
O1_5 O 0.97381(16) 0.38196(14) 0.10778(9)
O5_2 O 0.93500(15) 0.37728(14) 0.20648(9)
O6_2 O 0.93042(18) 0.39542(14) 0.16091(11)
O11_5 O 0.93258(13) 0.28445(13) 0.20271(11)
C1_5 C 0.9921(2) 0.3482(3) 0.09841(12)
C2_5 C 0.98607(18) 0.34013(19) 0.06713(11)
C4_5 C 0.9946(2) 0.29783(19) 0.02793(12)
C5_5 C 0.9686(2) 0.32147(19) 0.01126(13)
C6_5 C 0.9523(2) 0.3580(2) 0.02415(14)
H6_5 H 0.9360 0.3760 0.0139
C7_5 C 0.9609(2) 0.3657(2) 0.05108(14)
H7_5 H 0.9496 0.3890 0.0594
C27_2 C 0.9162(2) 0.3914(2) 0.18524(19)
C55_5 C 0.90477(19) 0.23008(18) 0.17637(16)
C56_5 C 0.90409(19) 0.20928(19) 0.15170(14)
H34_5 H 0.9192 0.2183 0.1363
C57_5 C 0.87898(19) 0.1745(2) 0.15073(14)
H35_5 H 0.8777 0.1602 0.1338
C58_5 C 0.85585(17) 0.1593(2) 0.17346(14)
C59_5 C 0.8565(2) 0.1824(2) 0.19693(15)
H36_5 H 0.8391 0.1754 0.2117
C60_5 C 0.8799(2) 0.2168(2) 0.19946(15)
H37_5 H 0.8805 0.2311 0.2163
C61_5 C 0.8364(2) 0.1182(2) 0.17101(13)
C62_5 C 0.8554(2) 0.0861(2) 0.15730(13)
H38_5 H 0.8798 0.0914 0.1476
C63_5 C 0.8394(2) 0.0478(2) 0.15697(14)
C64_5 C 0.8017(2) 0.0387(2) 0.16923(13)
H39_5 H 0.7899 0.0127 0.1675
C65_5 C 0.7822(2) 0.0698(2) 0.18345(15)
C66_5 C 0.79899(19) 0.1102(2) 0.18350(14)
H40_5 H 0.7846 0.1316 0.1920
C67_5 C 0.74186(19) 0.0619(2) 0.19911(13)
C68_5 C 0.70663(19) 0.0500(3) 0.18502(15)
H41_5 H 0.7057 0.0467 0.1657
C69_5 C 0.6740(2) 0.0384(3) 0.20222(13)
H42_5 H 0.6498 0.0310 0.1931
C70_3 C 0.67111(19) 0.0406(2) 0.23100(12)
C71_5 C 0.70635(18) 0.0557(2) 0.24334(14)
H43_5 H 0.7063 0.0593 0.2627
C72_5 C 0.7422(2) 0.0646(3) 0.22817(13)
H44_5 H 0.7658 0.0732 0.2376
C74_5 C 0.8643(2) 0.0153(2) 0.14305(15)
C75_5 C 0.9060(3) 0.0167(2) 0.14211(14)
H45_5 H 0.9192 0.0387 0.1508
O31_3 O 0.63735(12) 0.03337(14) 0.27336(10)
O32_3 O 0.60919(15) 0.00886(18) 0.23428(10)
H49_3 H 0.5898 0.0029 0.2456
C82_2 C 0.8737(2) 0.4021(2) 0.18963(13)
C88_3 C 0.6356(2) 0.0279(2) 0.24666(18)
O3_5 O 0.96391(13) 0.47297(12) 0.84552(8)
O4_5 O 0.90765(13) 0.44390(12) 0.82712(8)
O13_3 O 0.86265(12) 0.46663(14) 0.77336(10)
O14_3 O 0.89081(15) 0.49114(18) 0.73428(10)
H1_3 H 0.9102 0.4971 0.7456
C8_5 C 0.95508(19) 0.3091(2) 0.98233(12)
C9_5 C 0.9442(2) 0.2681(2) 0.97848(13)
H8_5 H 0.9440 0.2499 0.9936
C10_5 C 0.9338(2) 0.25467(19) 0.95188(14)
C11_5 C 0.9329(2) 0.2840(2) 0.92967(13)
H9_5 H 0.9241 0.2753 0.9121
C12_5 C 0.9443(2) 0.3247(2) 0.93315(13)
C13_5 C 0.9561(2) 0.33648(19) 0.96028(13)
H10_5 H 0.9639 0.3636 0.9636
C14_5 C 0.9415(2) 0.35480(19) 0.90934(13)
C15_5 C 0.9088(3) 0.3555(2) 0.89162(15)
H11_5 H 0.8868 0.3375 0.8938
C16_5 C 0.9075(2) 0.3844(2) 0.87101(14)
H12_5 H 0.8855 0.3840 0.8586
C17_5 C 0.9395(2) 0.4137(2) 0.86730(13)
C18_5 C 0.9720(2) 0.4106(2) 0.88468(14)
H13_5 H 0.9929 0.4300 0.8831
C19_5 C 0.9751(2) 0.3811(2) 0.90481(14)
H14_5 H 0.9989 0.3785 0.9155
C20_5 C 0.9366(2) 0.4460(2) 0.84484(13)
C21_5 C 0.9234(2) 0.2126(2) 0.94694(12)
C22_5 C 0.9046(3) 0.1892(2) 0.96744(14)
H15_5 H 0.8987 0.2021 0.9844
C23_5 C 0.8950(3) 0.1475(2) 0.96443(15)
H16_5 H 0.8819 0.1337 0.9789
C24_4 C 0.9021(2) 0.1263(2) 0.93963(13)
C25_5 C 0.9208(2) 0.1501(2) 0.91880(14)
H17_5 H 0.9252 0.1373 0.9016
C26_5 C 0.9322(2) 0.1911(2) 0.92252(14)
H18_5 H 0.9458 0.2049 0.9081
C73_3 C 0.8644(2) 0.4721(2) 0.74666(18)
Zn8_4 Zn 0.88369(3) 0.01474(2) 0.897643(15)
Zn12_4 Zn 0.82949(2) 0.02796(2) 0.954650(16)
O24_4 O 0.87728(14) 0.06500(15) 0.95648(9)
O25_4 O 0.89542(14) 0.06958(18) 0.91091(11)
C83_4 C 0.8914(2) 0.0838(2) 0.93524(19)
C87_3 C 0.82889(19) 0.4594(2) 0.73100(12)
C76_5 C 0.9302(2) 0.9852(3) 0.12885(17)
H46_5 H 0.9588 0.9867 0.1294
C77_5 C 0.9100(3) 0.9534(2) 0.11502(19)
C78_5 C 0.8686(2) 0.9518(2) 0.11311(18)
H47_5 H 0.8550 0.9305 0.1039
C79_5 C 0.8452(2) 0.9840(3) 0.12765(17)
H48_5 H 0.8167 0.9838 0.1262
O33_5 O 0.91490(16) 0.89499(17) 0.08969(14)
O34_5 O 0.97305(16) 0.92693(15) 0.10128(12)
C90_5 C 0.9349(3) 0.9218(3) 0.1030(2)
C76_6 C 0.0148(3) 0.4302(2) 0.37885(17)
H46_6 H 0.0133 0.4588 0.3794
C77_6 C 0.0466(2) 0.4100(3) 0.36502(19)
C78_6 C 0.0482(2) 0.3686(2) 0.36311(18)
H47_6 H 0.0695 0.3550 0.3539
C79_6 C 0.0160(3) 0.3452(2) 0.37765(17)
H48_6 H 0.0162 0.3167 0.3762
Zn7_6 Zn 0.11631(3) 0.51474(2) 0.352357(15)
Zn11_6 Zn 0.02796(2) 0.67051(2) 0.204650(16)
O33_6 O 0.10501(17) 0.41490(16) 0.33969(14)
O34_6 O 0.07307(15) 0.47305(16) 0.35128(12)
C90_6 C 0.0782(3) 0.4349(3) 0.3530(2)
Zn1_3 Zn 0.61631(3) 0.48526(2) 0.397643(15)
Zn2_6 Zn 0.64893(3) 0.56697(2) 0.434620(17)
Zn3_3 Zn 0.67051(2) 0.47204(2) 0.454650(16)
O1_6 O 0.61804(14) 0.47381(16) 0.35778(9)
O3_6 O 0.52703(12) 0.46391(13) 0.09552(8)
O4_6 O 0.55610(12) 0.40765(13) 0.07712(8)
O5_3 O 0.62272(14) 0.43500(15) 0.45648(9)
O6_3 O 0.60458(14) 0.43042(18) 0.41091(11)
O7_6 O 0.68843(14) 0.61009(14) 0.42714(10)
O11_6 O 0.71555(13) 0.43258(13) 0.45271(11)
O13_4 O 0.53337(14) 0.36265(12) 0.02336(10)
O15_6 O 0.60501(17) 0.58510(16) 0.41031(14)
O16_6 O 0.57307(15) 0.52695(16) 0.39872(12)
O17_6 O 0.65703(10) 0.50935(11) 0.42368(7)
H2_6 H 0.6791 0.5100 0.4141
H3_6 H 0.4476 0.5279 0.0323
C1_6 C 0.6518(3) 0.4921(2) 0.34841(12)
C2_6 C 0.65987(19) 0.48607(18) 0.31713(11)
C3_6 C 0.69373(19) 0.5018(2) 0.30499(12)
H4_6 H 0.7116 0.5179 0.3156
C4_6 C 0.70217(19) 0.4946(2) 0.27793(12)
H5_6 H 0.7248 0.5077 0.2699
C5_6 C 0.67853(19) 0.4686(2) 0.26126(13)
C6_6 C 0.6420(2) 0.4523(2) 0.27415(14)
H6_6 H 0.6240 0.4360 0.2639
C7_6 C 0.6343(2) 0.4609(2) 0.30108(14)
H7_6 H 0.6110 0.4496 0.3094
C8_6 C 0.6909(2) 0.45508(19) 0.23233(12)
C9_6 C 0.7319(2) 0.4442(2) 0.22848(13)
H8_6 H 0.7501 0.4440 0.2436
C10_6 C 0.74533(19) 0.4338(2) 0.20188(14)
C11_6 C 0.7160(2) 0.4329(2) 0.17967(13)
H9_6 H 0.7247 0.4241 0.1621
C12_6 C 0.6753(2) 0.4443(2) 0.18315(13)
C13_6 C 0.66352(19) 0.4561(2) 0.21028(13)
H10_6 H 0.6364 0.4639 0.2136
C14_6 C 0.64520(19) 0.4415(2) 0.15934(13)
C15_6 C 0.6445(2) 0.4088(3) 0.14162(15)
H11_6 H 0.6625 0.3868 0.1438
C16_6 C 0.6156(2) 0.4075(2) 0.12101(14)
H12_6 H 0.6160 0.3855 0.1086
C17_6 C 0.5863(2) 0.4395(2) 0.11730(13)
C18_6 C 0.5894(2) 0.4720(2) 0.13468(14)
H13_6 H 0.5700 0.4929 0.1331
C19_6 C 0.6189(2) 0.4751(2) 0.15481(14)
H14_6 H 0.6215 0.4989 0.1655
C20_6 C 0.5540(2) 0.4366(2) 0.09484(13)
C21_6 C 0.7874(2) 0.4234(2) 0.19694(12)
C22_6 C 0.8108(2) 0.4046(3) 0.21744(14)
H15_6 H 0.7979 0.3987 0.2344
C23_6 C 0.8525(2) 0.3950(3) 0.21443(15)
H16_6 H 0.8663 0.3819 0.2289
C25_6 C 0.8499(2) 0.4208(2) 0.16880(14)
H17_6 H 0.8627 0.4252 0.1516
C26_6 C 0.8089(2) 0.4322(2) 0.17252(14)
H18_6 H 0.7951 0.4458 0.1581
C27_3 C 0.6086(2) 0.4162(2) 0.43524(19)
C28_6 C 0.7216(2) 0.5966(2) 0.41757(14)
C29_6 C 0.75537(12) 0.62725(12) 0.41287(9)
C30_6 C 0.74792(10) 0.66917(14) 0.41589(9)
H19_6 H 0.7226 0.6783 0.4225
C31_6 C 0.77836(14) 0.69751(10) 0.40898(10)
H20_6 H 0.7734 0.7256 0.4110
C32_6 C 0.81625(12) 0.68393(12) 0.39906(9)
C33_6 C 0.82370(10) 0.64201(13) 0.39604(8)
H21_6 H 0.8491 0.6329 0.3894
C34_6 C 0.79326(13) 0.61367(10) 0.40295(9)
H22_6 H 0.7982 0.5856 0.4009
C35_6 C 0.84693(19) 0.71401(17) 0.38656(13)
C36_6 C 0.85582(19) 0.7506(2) 0.39862(13)
H23_6 H 0.8441 0.7572 0.4159
C37_6 C 0.8832(2) 0.7784(2) 0.38578(14)
C38_6 C 0.8994(2) 0.7662(2) 0.35993(16)
H24_6 H 0.9176 0.7842 0.3512
C39_6 C 0.89098(19) 0.7296(2) 0.34679(14)
C40_6 C 0.86469(19) 0.7043(2) 0.36071(14)
H25_6 H 0.8592 0.6784 0.3532
C41_6 C 0.9092(2) 0.71759(18) 0.32086(13)
C42_6 C 0.9477(2) 0.7261(2) 0.31276(14)
H26_6 H 0.9639 0.7424 0.3244
C43_6 C 0.9643(2) 0.7127(2) 0.28814(16)
H27_6 H 0.9918 0.7184 0.2843
C44_6 C 0.9411(2) 0.6904(2) 0.26859(15)
C45_6 C 0.9008(2) 0.6811(2) 0.27606(17)
H28_6 H 0.8840 0.6662 0.2640
C46_6 C 0.8853(2) 0.6940(3) 0.30268(16)
H29_6 H 0.8582 0.6878 0.3076
C47_6 C 0.8939(2) 0.8191(2) 0.39843(15)
C48_6 C 0.8650(2) 0.8444(2) 0.40912(15)
H30_6 H 0.8373 0.8372 0.4080
C49_6 C 0.8759(2) 0.8828(2) 0.42034(14)
H31_6 H 0.8554 0.8994 0.4278
C51_6 C 0.94402(19) 0.87017(19) 0.41076(14)
H32_6 H 0.9714 0.8785 0.4121
C52_6 C 0.9350(2) 0.8334(2) 0.39898(15)
H33_6 H 0.9562 0.8178 0.3913
C55_6 C 0.76992(18) 0.40477(19) 0.42637(16)
C56_6 C 0.79072(19) 0.40409(19) 0.40170(14)
H34_6 H 0.7817 0.4192 0.3863
C57_6 C 0.8255(2) 0.37898(19) 0.40073(14)
H35_6 H 0.8398 0.3777 0.3838
C58_6 C 0.8407(2) 0.35585(17) 0.42346(14)
C59_6 C 0.8176(2) 0.3565(2) 0.44693(15)
H36_6 H 0.8246 0.3391 0.4617
C60_6 C 0.7832(2) 0.3799(2) 0.44946(15)
H37_6 H 0.7689 0.3805 0.4663
C61_6 C 0.8818(2) 0.3364(2) 0.42101(13)
C62_6 C 0.9139(2) 0.3554(2) 0.40730(13)
H38_6 H 0.9086 0.3798 0.3976
C63_6 C 0.9522(2) 0.3394(2) 0.40697(14)
C64_6 C 0.9613(2) 0.3017(2) 0.41923(13)
H39_6 H 0.9873 0.2899 0.4175
C65_6 C 0.9302(2) 0.2822(2) 0.43345(15)
C66_6 C 0.8898(2) 0.29899(19) 0.43350(14)
H40_6 H 0.8684 0.2846 0.4420
C67_6 C 0.9381(2) 0.24186(19) 0.44911(13)
C68_6 C 0.9500(3) 0.20663(19) 0.43502(15)
H41_6 H 0.9533 0.2057 0.4157
C69_6 C 0.9616(3) 0.1740(2) 0.45222(13)
H42_6 H 0.9690 0.1498 0.4431
C70_4 C 0.9594(2) 0.17111(19) 0.48100(12)
C71_6 C 0.9443(2) 0.20635(18) 0.49334(14)
H43_6 H 0.9407 0.2063 0.5127
C72_6 C 0.9354(3) 0.2422(2) 0.47817(13)
H44_6 H 0.9268 0.2658 0.4876
C74_6 C 0.9847(2) 0.3643(2) 0.39305(15)
C75_6 C 0.9833(2) 0.4060(3) 0.39211(14)
H45_6 H 0.9613 0.4192 0.4008
C80_6 C 0.5782(3) 0.5651(3) 0.3970(2)
O20_6 O 0.68296(16) 0.50514(16) 0.48781(9)
O21_6 O 0.65632(15) 0.56533(17) 0.47550(10)
C81_6 C 0.9585(3) 0.6762(2) 0.24196(15)
Zn14_6 Zn 0.48293(2) 0.589657(19) 0.044873(14)
O23_6 O 0.47297(12) 0.53609(13) 0.09552(8)
O28_6 O 0.55321(14) 0.53658(11) 0.06699(9)
O31_4 O 0.96663(14) 0.13735(12) 0.52336(10)
O32_4 O 0.99114(18) 0.10919(15) 0.48428(10)
H49_4 H 0.9971 0.0898 0.4956
C82_3 C 0.5979(2) 0.3737(2) 0.43963(13)
C88_4 C 0.9721(2) 0.1356(2) 0.49666(18)
C89_6 C 0.5466(2) 0.5900(3) 0.38498(19)
O39_6 O 0.99486(16) 0.68296(16) 0.23781(9)
O40_6 O 0.93467(17) 0.65632(15) 0.22550(10)
C91_6 C 0.6762(2) 0.5415(3) 0.49196(15)
O14_4 O 0.50886(18) 0.39081(15) 0.98428(10)
H1_4 H 0.5029 0.4102 0.9956
C73_4 C 0.5279(2) 0.3644(2) 0.99666(18)
C87_4 C 0.5406(2) 0.32889(19) 0.98100(12)
Zn1_4 Zn 0.51474(2) 0.11631(3) 0.647643(15)
Zn2_7 Zn 0.43303(2) 0.14893(3) 0.684620(17)
Zn3_4 Zn 0.52796(2) 0.17051(2) 0.704650(16)
O1_7 O 0.52619(16) 0.11804(14) 0.60778(9)
O3_7 O 0.53609(13) 0.02703(12) 0.34552(8)
O4_7 O 0.59235(13) 0.05610(12) 0.32712(8)
O5_4 O 0.56500(15) 0.12272(14) 0.70648(9)
O6_4 O 0.56958(18) 0.10458(14) 0.66091(11)
O7_7 O 0.38991(14) 0.18843(14) 0.67714(10)
O11_7 O 0.56742(13) 0.21555(13) 0.70271(11)
O15_7 O 0.41490(16) 0.10501(17) 0.66031(14)
O16_7 O 0.47305(16) 0.07307(15) 0.64872(12)
O17_7 O 0.49065(11) 0.15703(10) 0.67368(7)
H2_7 H 0.4900 0.1791 0.6641
C1_7 C 0.5079(2) 0.1518(3) 0.59841(12)
C2_7 C 0.51393(18) 0.15987(19) 0.56713(11)
C3_7 C 0.4982(2) 0.19373(19) 0.55499(12)
H4_7 H 0.4821 0.2116 0.5656
C4_7 C 0.5054(2) 0.20217(19) 0.52793(12)
H5_7 H 0.4923 0.2248 0.5199
C5_7 C 0.5314(2) 0.17853(19) 0.51126(13)
C6_7 C 0.5477(2) 0.1420(2) 0.52415(14)
H6_7 H 0.5640 0.1240 0.5139
C7_7 C 0.5391(2) 0.1343(2) 0.55108(14)
H7_7 H 0.5504 0.1110 0.5594
C8_7 C 0.54492(19) 0.1909(2) 0.48233(12)
C9_7 C 0.5558(2) 0.2319(2) 0.47848(13)
H8_7 H 0.5560 0.2501 0.4936
C10_7 C 0.5662(2) 0.24533(19) 0.45188(14)
C11_7 C 0.5671(2) 0.2160(2) 0.42967(13)
H9_7 H 0.5759 0.2247 0.4121
C12_7 C 0.5557(2) 0.1753(2) 0.43315(13)
C13_7 C 0.5439(2) 0.16352(19) 0.46028(13)
H10_7 H 0.5361 0.1364 0.4636
C14_7 C 0.5585(2) 0.14520(19) 0.40934(13)
C15_7 C 0.5912(3) 0.1445(2) 0.39162(15)
H11_7 H 0.6132 0.1625 0.3938
C16_7 C 0.5925(2) 0.1156(2) 0.37101(14)
H12_7 H 0.6145 0.1160 0.3586
C17_7 C 0.5605(2) 0.0863(2) 0.36730(13)
C18_7 C 0.5280(2) 0.0894(2) 0.38468(14)
H13_7 H 0.5071 0.0700 0.3831
C19_7 C 0.5249(2) 0.1189(2) 0.40481(14)
H14_7 H 0.5011 0.1215 0.4155
C20_7 C 0.5634(2) 0.0540(2) 0.34484(13)
C21_7 C 0.5766(2) 0.2874(2) 0.44694(12)
C22_7 C 0.5954(3) 0.3108(2) 0.46744(14)
H15_7 H 0.6013 0.2979 0.4844
C23_7 C 0.6050(3) 0.3525(2) 0.46443(15)
H16_7 H 0.6181 0.3663 0.4789
C25_7 C 0.5792(2) 0.3499(2) 0.41880(14)
H17_7 H 0.5748 0.3627 0.4016
C26_7 C 0.5678(2) 0.3089(2) 0.42252(14)
H18_7 H 0.5542 0.2951 0.4081
C27_4 C 0.5838(2) 0.1086(2) 0.68524(19)
C28_7 C 0.4034(2) 0.2216(2) 0.66757(14)
C29_7 C 0.37275(12) 0.25537(12) 0.66287(9)
C30_7 C 0.33083(14) 0.24792(10) 0.66589(9)
H19_7 H 0.3217 0.2226 0.6725
C31_7 C 0.30249(10) 0.27836(14) 0.65898(10)
H20_7 H 0.2744 0.2734 0.6610
C32_7 C 0.31607(12) 0.31625(12) 0.64906(9)
C33_7 C 0.35799(13) 0.32370(10) 0.64604(8)
H21_7 H 0.3671 0.3491 0.6394
C34_7 C 0.38633(10) 0.29326(13) 0.65295(9)
H22_7 H 0.4144 0.2982 0.6509
C35_7 C 0.28599(17) 0.34693(19) 0.63656(13)
C36_7 C 0.2494(2) 0.35582(19) 0.64862(13)
H23_7 H 0.2428 0.3441 0.6659
C37_7 C 0.2216(2) 0.3832(2) 0.63578(14)
C38_7 C 0.2338(2) 0.3994(2) 0.60993(16)
H24_7 H 0.2158 0.4176 0.6012
C39_7 C 0.2704(2) 0.39098(19) 0.59679(14)
C40_7 C 0.2957(2) 0.36469(19) 0.61071(14)
H25_7 H 0.3216 0.3592 0.6032
C41_7 C 0.28241(18) 0.4092(2) 0.57086(13)
C42_7 C 0.2739(2) 0.4477(2) 0.56276(14)
H26_7 H 0.2576 0.4639 0.5744
C43_7 C 0.2873(2) 0.4643(2) 0.53814(16)
H27_7 H 0.2816 0.4918 0.5343
C44_7 C 0.3096(2) 0.4411(2) 0.51859(15)
C45_7 C 0.3189(2) 0.4008(2) 0.52606(17)
H28_7 H 0.3338 0.3840 0.5140
C46_7 C 0.3060(3) 0.3853(2) 0.55268(16)
H29_7 H 0.3122 0.3582 0.5576
C47_7 C 0.1809(2) 0.3939(2) 0.64843(15)
C48_7 C 0.1556(2) 0.3650(2) 0.65912(15)
H30_7 H 0.1628 0.3373 0.6580
C49_7 C 0.1172(2) 0.3759(2) 0.67034(14)
H31_7 H 0.1006 0.3554 0.6778
C51_7 C 0.12983(19) 0.44402(19) 0.66076(14)
H32_7 H 0.1215 0.4714 0.6621
C52_7 C 0.1666(2) 0.4350(2) 0.64898(15)
H33_7 H 0.1822 0.4562 0.6413
C55_7 C 0.59523(19) 0.26992(18) 0.67637(16)
C56_7 C 0.59591(19) 0.29072(19) 0.65170(14)
H34_7 H 0.5808 0.2817 0.6363
C57_7 C 0.62102(19) 0.3255(2) 0.65073(14)
H35_7 H 0.6223 0.3398 0.6338
C58_7 C 0.64415(17) 0.3407(2) 0.67346(14)
C59_7 C 0.6435(2) 0.3176(2) 0.69693(15)
H36_7 H 0.6609 0.3246 0.7117
C60_7 C 0.6201(2) 0.2832(2) 0.69946(15)
H37_7 H 0.6195 0.2689 0.7163
C61_7 C 0.6636(2) 0.3818(2) 0.67101(13)
C62_7 C 0.6446(2) 0.4139(2) 0.65730(13)
H38_7 H 0.6202 0.4086 0.6476
C63_7 C 0.6606(2) 0.4522(2) 0.65697(14)
C64_7 C 0.6983(2) 0.4613(2) 0.66923(13)
H39_7 H 0.7101 0.4873 0.6675
C65_7 C 0.7178(2) 0.4302(2) 0.68345(15)
C66_7 C 0.70101(19) 0.3898(2) 0.68350(14)
H40_7 H 0.7154 0.3684 0.6920
C67_7 C 0.75814(19) 0.4381(2) 0.69911(13)
C68_7 C 0.79337(19) 0.4500(3) 0.68502(15)
H41_7 H 0.7943 0.4533 0.6657
C69_7 C 0.8260(2) 0.4616(3) 0.70222(13)
H42_7 H 0.8502 0.4690 0.6931
C71_7 C 0.79365(18) 0.4443(2) 0.74334(14)
H43_7 H 0.7937 0.4407 0.7627
C72_7 C 0.7578(2) 0.4354(3) 0.72817(13)
H44_7 H 0.7342 0.4268 0.7376
C74_7 C 0.6357(2) 0.4847(2) 0.64305(15)
C75_7 C 0.5940(3) 0.4833(2) 0.64211(14)
H45_7 H 0.5808 0.4613 0.6508
C76_7 C 0.5698(2) 0.5148(3) 0.62885(17)
H46_7 H 0.5412 0.5133 0.6294
C77_7 C 0.5900(3) 0.5466(2) 0.61502(19)
C78_7 C 0.6314(2) 0.5482(2) 0.61311(18)
H47_7 H 0.6450 0.5695 0.6039
C79_7 C 0.6548(2) 0.5160(3) 0.62765(17)
H48_7 H 0.6833 0.5162 0.6262
C80_7 C 0.4349(3) 0.0782(3) 0.6470(2)
O20_7 O 0.49486(16) 0.18296(16) 0.73781(9)
O21_7 O 0.43467(17) 0.15632(15) 0.72550(10)
C81_7 C 0.3238(2) 0.4585(3) 0.49196(15)
Zn7_7 Zn 0.48526(2) 0.61631(3) 0.602357(15)
Zn11_7 Zn 0.32949(2) 0.52796(2) 0.454650(16)
O28_7 O 0.46342(11) 0.05321(14) 0.31699(9)
O33_7 O 0.58510(16) 0.60501(17) 0.58969(14)
O34_7 O 0.52695(16) 0.57307(15) 0.60128(12)
C82_4 C 0.6263(2) 0.0979(2) 0.68963(13)
C89_7 C 0.4100(3) 0.0466(2) 0.63498(19)
C90_7 C 0.5651(3) 0.5782(3) 0.6030(2)
O39_7 O 0.31704(16) 0.49486(16) 0.48781(9)
O40_7 O 0.34368(15) 0.43467(17) 0.47550(10)
C91_7 C 0.4585(3) 0.1762(2) 0.74196(15)
H3_7 H 0.4721 0.9476 0.2823
Zn14_7 Zn 0.410343(19) 0.98293(2) 0.294873(14)
O23_7 O 0.46391(13) 0.97297(12) 0.34552(8)
H3_8 H 0.0524 0.9721 0.5323
Zn14_8 Zn 0.01707(2) 0.910343(19) 0.544873(14)
O23_8 O 0.02703(12) 0.96391(13) 0.59552(8)
H43_8 H 0.5593 0.2937 0.0127
O1_8 O 0.88196(14) 0.02619(16) 0.85778(9)
O3_8 O 0.97297(12) 0.03609(13) 0.59552(8)
O4_8 O 0.94390(12) 0.09235(13) 0.57712(8)
O11_8 O 0.78445(13) 0.06742(13) 0.95271(11)
C1_8 C 0.8482(3) 0.0079(2) 0.84841(12)
C2_8 C 0.84013(19) 0.01393(18) 0.81713(11)
C4_8 C 0.79783(19) 0.0054(2) 0.77793(12)
C5_8 C 0.82147(19) 0.0314(2) 0.76126(13)
C6_8 C 0.8580(2) 0.0477(2) 0.77415(14)
H6_8 H 0.8760 0.0640 0.7639
C7_8 C 0.8657(2) 0.0391(2) 0.80108(14)
H7_8 H 0.8890 0.0504 0.8094
C8_8 C 0.8091(2) 0.04492(19) 0.73233(12)
C9_8 C 0.7681(2) 0.0558(2) 0.72848(13)
H8_8 H 0.7499 0.0560 0.7436
C10_8 C 0.75467(19) 0.0662(2) 0.70188(14)
C11_8 C 0.7840(2) 0.0671(2) 0.67967(13)
H9_8 H 0.7753 0.0759 0.6621
C12_8 C 0.8247(2) 0.0557(2) 0.68315(13)
C13_8 C 0.83648(19) 0.0439(2) 0.71028(13)
H10_8 H 0.8636 0.0361 0.7136
C14_8 C 0.85480(19) 0.0585(2) 0.65934(13)
C15_8 C 0.8555(2) 0.0912(3) 0.64162(15)
H11_8 H 0.8375 0.1132 0.6438
C16_8 C 0.8844(2) 0.0925(2) 0.62101(14)
H12_8 H 0.8840 0.1145 0.6086
C17_8 C 0.9137(2) 0.0605(2) 0.61730(13)
C18_8 C 0.9106(2) 0.0280(2) 0.63468(14)
H13_8 H 0.9300 0.0071 0.6331
C19_8 C 0.8811(2) 0.0249(2) 0.65481(14)
H14_8 H 0.8785 0.0011 0.6655
C20_8 C 0.9460(2) 0.0634(2) 0.59484(13)
C21_8 C 0.7126(2) 0.0766(2) 0.69694(12)
C22_8 C 0.6892(2) 0.0954(3) 0.71744(14)
H15_8 H 0.7021 0.1013 0.7344
C23_8 C 0.6475(2) 0.1050(3) 0.71443(15)
H16_8 H 0.6337 0.1181 0.7289
C25_8 C 0.6501(2) 0.0792(2) 0.66880(14)
H17_8 H 0.6373 0.0748 0.6516
C26_8 C 0.6911(2) 0.0678(2) 0.67252(14)
H18_8 H 0.7049 0.0542 0.6581
C55_8 C 0.73008(18) 0.09523(19) 0.92637(16)
C56_8 C 0.70928(19) 0.09591(19) 0.90170(14)
H34_8 H 0.7183 0.0808 0.8863
C57_8 C 0.6745(2) 0.12102(19) 0.90073(14)
H35_8 H 0.6602 0.1223 0.8838
C58_8 C 0.6593(2) 0.14415(17) 0.92346(14)
C59_8 C 0.6824(2) 0.1435(2) 0.94693(15)
H36_8 H 0.6754 0.1609 0.9617
C60_8 C 0.7168(2) 0.1201(2) 0.94946(15)
H37_8 H 0.7311 0.1195 0.9663
C61_8 C 0.6182(2) 0.1636(2) 0.92101(13)
C62_8 C 0.5861(2) 0.1446(2) 0.90730(13)
H38_8 H 0.5914 0.1202 0.8976
C63_8 C 0.5478(2) 0.1606(2) 0.90697(14)
C64_8 C 0.5387(2) 0.1983(2) 0.91923(13)
H39_8 H 0.5127 0.2101 0.9175
C65_8 C 0.5698(2) 0.2178(2) 0.93345(15)
C66_8 C 0.6102(2) 0.20101(19) 0.93350(14)
H40_8 H 0.6316 0.2154 0.9420
C67_8 C 0.5619(2) 0.25814(19) 0.94911(13)
C68_8 C 0.5500(3) 0.29337(19) 0.93502(15)
H41_8 H 0.5467 0.2943 0.9157
C69_8 C 0.5384(3) 0.3260(2) 0.95222(13)
H42_8 H 0.5310 0.3502 0.9431
C71_8 C 0.5557(2) 0.29365(18) 0.99334(14)
C72_8 C 0.5646(3) 0.2578(2) 0.97817(13)
H44_8 H 0.5732 0.2342 0.9876
C74_8 C 0.5153(2) 0.1357(2) 0.89305(15)
C75_8 C 0.5167(2) 0.0940(3) 0.89211(14)
H45_8 H 0.5387 0.0808 0.9008
C76_8 C 0.4852(3) 0.0698(2) 0.87885(17)
H46_8 H 0.4867 0.0412 0.8794
C77_8 C 0.4534(2) 0.0900(3) 0.86502(19)
C78_8 C 0.4518(2) 0.1314(2) 0.86311(18)
H47_8 H 0.4305 0.1450 0.8539
C79_8 C 0.4840(3) 0.1548(2) 0.87765(17)
H48_8 H 0.4838 0.1833 0.8762
O33_8 O 0.39499(17) 0.08510(16) 0.83969(14)
O34_8 O 0.42693(15) 0.02695(16) 0.85128(12)
C90_8 C 0.4218(3) 0.0651(3) 0.8530(2)
Zn2_8 Zn 0.85107(3) 0.93303(2) 0.934620(17)
O7_8 O 0.81157(14) 0.88991(14) 0.92714(10)
O15_8 O 0.89499(17) 0.91490(16) 0.91031(14)
O16_8 O 0.92693(15) 0.97305(16) 0.89872(12)
O17_8 O 0.84297(10) 0.99065(11) 0.92368(7)
H2_8 H 0.8209 0.9900 0.9141
C3_8 C 0.80627(19) 0.9982(2) 0.80499(12)
H4_8 H 0.7884 0.9821 0.8156
H5_8 H 0.7752 0.9923 0.7699
C28_8 C 0.7784(2) 0.9034(2) 0.91757(14)
C29_8 C 0.74463(12) 0.87275(12) 0.91287(9)
C30_8 C 0.75208(10) 0.83083(14) 0.91589(9)
H19_8 H 0.7774 0.8217 0.9225
C31_8 C 0.72164(14) 0.80249(10) 0.90898(10)
H20_8 H 0.7266 0.7744 0.9110
C32_8 C 0.68375(12) 0.81607(12) 0.89906(9)
C33_8 C 0.67630(10) 0.85799(13) 0.89604(8)
H21_8 H 0.6509 0.8671 0.8894
C34_8 C 0.70674(13) 0.88633(10) 0.90295(9)
H22_8 H 0.7018 0.9144 0.9009
C35_8 C 0.65307(19) 0.78599(17) 0.88656(13)
C36_8 C 0.64418(19) 0.7494(2) 0.89862(13)
H23_8 H 0.6559 0.7428 0.9159
C37_8 C 0.6168(2) 0.7216(2) 0.88578(14)
C38_8 C 0.6006(2) 0.7338(2) 0.85993(16)
H24_8 H 0.5824 0.7158 0.8512
C39_8 C 0.60902(19) 0.7704(2) 0.84679(14)
C40_8 C 0.63531(19) 0.7957(2) 0.86071(14)
H25_8 H 0.6408 0.8216 0.8532
C41_8 C 0.5908(2) 0.78241(18) 0.82086(13)
C42_8 C 0.5523(2) 0.7739(2) 0.81276(14)
H26_8 H 0.5361 0.7576 0.8244
C43_8 C 0.5357(2) 0.7873(2) 0.78814(16)
H27_8 H 0.5082 0.7816 0.7843
C44_8 C 0.5589(2) 0.8096(2) 0.76859(15)
C45_8 C 0.5992(2) 0.8189(2) 0.77606(17)
H28_8 H 0.6160 0.8338 0.7640
C46_8 C 0.6147(2) 0.8060(3) 0.80268(16)
H29_8 H 0.6418 0.8122 0.8076
C47_8 C 0.6061(2) 0.6809(2) 0.89843(15)
C48_8 C 0.6350(2) 0.6556(2) 0.90912(15)
H30_8 H 0.6627 0.6628 0.9080
C49_8 C 0.6241(2) 0.6172(2) 0.92034(14)
H31_8 H 0.6446 0.6006 0.9278
C51_8 C 0.55598(19) 0.62983(19) 0.91076(14)
H32_8 H 0.5286 0.6215 0.9121
C52_8 C 0.5650(2) 0.6666(2) 0.89898(15)
H33_8 H 0.5438 0.6822 0.8913
C80_8 C 0.9218(3) 0.9349(3) 0.8970(2)
O20_8 O 0.81704(16) 0.99486(16) 0.98781(9)
O21_8 O 0.84368(15) 0.93467(17) 0.97550(10)
C81_8 C 0.5415(3) 0.8238(2) 0.74196(15)
Zn7_8 Zn 0.38369(3) 0.98526(2) 0.852357(15)
Zn11_8 Zn 0.47204(2) 0.82949(2) 0.704650(16)
O28_8 O 0.94679(14) 0.96342(11) 0.56699(9)
C89_8 C 0.9534(2) 0.9100(3) 0.88498(19)
O39_8 O 0.50514(16) 0.81704(16) 0.73781(9)
O40_8 O 0.56533(17) 0.84368(15) 0.72550(10)
C91_8 C 0.8238(2) 0.9585(3) 0.99196(15)
C76_9 C 0.4302(2) 0.0148(3) 0.62115(17)
H46_9 H 0.4588 0.0133 0.6206
C78_9 C 0.3686(2) 0.0482(2) 0.63689(18)
H47_9 H 0.3550 0.0695 0.6461
C79_9 C 0.3452(2) 0.0160(3) 0.62235(17)
H48_9 H 0.3167 0.0162 0.6238
O14_5 O 0.39081(15) 0.50886(18) 0.01572(10)
H1_5 H 0.4102 0.5029 0.0044
C73_5 C 0.3644(2) 0.5279(2) 0.00334(18)
C87_5 C 0.32889(19) 0.5406(2) 0.01900(12)
Na1_5 Na 0.50944(9) 0.7500 0.6250
O1_9 O 0.47381(16) 0.61804(14) 0.64222(9)
O2_5 O 0.50804(14) 0.67703(14) 0.63734(8)
O4_9 O 0.40765(13) 0.55610(12) 0.92288(8)
O5_5 O 0.43500(15) 0.62272(14) 0.54352(9)
O6_5 O 0.43042(18) 0.60458(14) 0.58909(11)
O7_9 O 0.61009(14) 0.68843(14) 0.57286(10)
O8_5 O 0.55935(14) 0.72739(13) 0.58814(9)
O9_5 O 0.39730(13) 0.46096(13) 0.94117(9)
O11_9 O 0.43258(13) 0.71555(13) 0.54729(11)
O12_5 O 0.45802(13) 0.77437(12) 0.65954(10)
O13_5 O 0.36265(12) 0.53337(14) 0.97664(10)
O17_9 O 0.50935(11) 0.65703(10) 0.57632(7)
H2_9 H 0.5100 0.6791 0.5859
H3_9 H 0.5279 0.4476 0.9677
C1_9 C 0.4921(2) 0.6518(3) 0.65159(12)
C2_9 C 0.48607(18) 0.65987(19) 0.68287(11)
C3_9 C 0.5018(2) 0.69373(19) 0.69501(12)
H4_9 H 0.5179 0.7116 0.6844
C4_9 C 0.4946(2) 0.70217(19) 0.72207(12)
H5_9 H 0.5077 0.7248 0.7301
C5_9 C 0.4686(2) 0.67853(19) 0.73874(13)
C6_9 C 0.4523(2) 0.6420(2) 0.72585(14)
H6_9 H 0.4360 0.6240 0.7361
C7_9 C 0.4609(2) 0.6343(2) 0.69892(14)
H7_9 H 0.4496 0.6110 0.6906
C8_9 C 0.45508(19) 0.6909(2) 0.76767(12)
C9_9 C 0.4442(2) 0.7319(2) 0.77152(13)
H8_9 H 0.4440 0.7501 0.7564
C10_9 C 0.4338(2) 0.74533(19) 0.79812(14)
C11_9 C 0.4329(2) 0.7160(2) 0.82033(13)
H9_9 H 0.4241 0.7247 0.8379
C12_9 C 0.4443(2) 0.6753(2) 0.81685(13)
C13_9 C 0.4561(2) 0.66352(19) 0.78972(13)
H10_9 H 0.4639 0.6364 0.7864
C14_9 C 0.4415(2) 0.64520(19) 0.84066(13)
C15_9 C 0.4088(3) 0.6445(2) 0.85838(15)
H11_9 H 0.3868 0.6625 0.8562
C16_9 C 0.4075(2) 0.6156(2) 0.87899(14)
H12_9 H 0.3855 0.6160 0.8914
C17_9 C 0.4395(2) 0.5863(2) 0.88270(13)
C18_9 C 0.4720(2) 0.5894(2) 0.86532(14)
H13_9 H 0.4929 0.5700 0.8669
C19_9 C 0.4751(2) 0.6189(2) 0.84519(14)
H14_9 H 0.4989 0.6215 0.8345
C20_9 C 0.4366(2) 0.5540(2) 0.90516(13)
C21_9 C 0.4234(2) 0.7874(2) 0.80306(12)
C22_9 C 0.4046(3) 0.8108(2) 0.78256(14)
H15_9 H 0.3987 0.7979 0.7656
C23_9 C 0.3950(3) 0.8525(2) 0.78557(15)
H16_9 H 0.3819 0.8663 0.7711
C24_5 C 0.4021(2) 0.8737(2) 0.81037(13)
C25_9 C 0.4208(2) 0.8499(2) 0.83120(14)
H17_9 H 0.4252 0.8627 0.8484
C26_9 C 0.4322(2) 0.8089(2) 0.82748(14)
H18_9 H 0.4458 0.7951 0.8419
C27_5 C 0.4162(2) 0.6086(2) 0.56476(19)
C28_9 C 0.5966(2) 0.7216(2) 0.58243(14)
C29_9 C 0.62725(12) 0.75537(12) 0.58713(9)
C30_9 C 0.66917(14) 0.74792(10) 0.58411(9)
H19_9 H 0.6783 0.7226 0.5775
C31_9 C 0.69751(10) 0.77836(14) 0.59102(10)
H20_9 H 0.7256 0.7734 0.5890
C32_9 C 0.68393(12) 0.81625(12) 0.60094(9)
C33_9 C 0.64201(13) 0.82370(10) 0.60396(8)
H21_9 H 0.6329 0.8491 0.6106
C34_9 C 0.61367(10) 0.79326(13) 0.59705(9)
H22_9 H 0.5856 0.7982 0.5991
C35_9 C 0.71401(17) 0.84693(19) 0.61344(13)
C36_9 C 0.7506(2) 0.85582(19) 0.60138(13)
H23_9 H 0.7572 0.8441 0.5841
C37_9 C 0.7784(2) 0.8832(2) 0.61422(14)
C38_9 C 0.7662(2) 0.8994(2) 0.64007(16)
H24_9 H 0.7842 0.9176 0.6488
C39_9 C 0.7296(2) 0.89098(19) 0.65321(14)
C40_9 C 0.7043(2) 0.86469(19) 0.63929(14)
H25_9 H 0.6784 0.8592 0.6468
C41_9 C 0.71759(18) 0.9092(2) 0.67914(13)
C42_9 C 0.7261(2) 0.9477(2) 0.68724(14)
H26_9 H 0.7424 0.9639 0.6756
C43_9 C 0.7127(2) 0.9643(2) 0.71186(16)
H27_9 H 0.7184 0.9918 0.7157
C44_9 C 0.6904(2) 0.9411(2) 0.73141(15)
C45_9 C 0.6811(2) 0.9008(2) 0.72394(17)
H28_9 H 0.6662 0.8840 0.7360
C46_9 C 0.6940(3) 0.8853(2) 0.69732(16)
H29_9 H 0.6878 0.8582 0.6924
C47_9 C 0.8191(2) 0.8939(2) 0.60157(15)
C48_9 C 0.8444(2) 0.8650(2) 0.59088(15)
H30_9 H 0.8372 0.8373 0.5920
C49_9 C 0.8828(2) 0.8759(2) 0.57966(14)
H31_9 H 0.8994 0.8554 0.5722
C50_5 C 0.89662(18) 0.91457(19) 0.57842(12)
C51_9 C 0.87017(19) 0.94402(19) 0.58924(14)
H32_9 H 0.8785 0.9714 0.5879
C52_9 C 0.8334(2) 0.9350(2) 0.60102(15)
H33_9 H 0.8178 0.9562 0.6087
C53_5 C 0.4245(2) 0.4376(2) 0.93329(12)
C54_5 C 0.4333(2) 0.73293(19) 0.57051(18)
C55_9 C 0.40477(19) 0.76992(18) 0.57363(16)
C56_9 C 0.40409(19) 0.79072(19) 0.59830(14)
H34_9 H 0.4192 0.7817 0.6137
C57_9 C 0.37898(19) 0.8255(2) 0.59927(14)
H35_9 H 0.3777 0.8398 0.6162
C58_9 C 0.35585(17) 0.8407(2) 0.57654(14)
C59_9 C 0.3565(2) 0.8176(2) 0.55307(15)
H36_9 H 0.3391 0.8246 0.5383
C60_9 C 0.3799(2) 0.7832(2) 0.55054(15)
H37_9 H 0.3805 0.7689 0.5337
C61_9 C 0.3364(2) 0.8818(2) 0.57899(13)
C62_9 C 0.3554(2) 0.9139(2) 0.59270(13)
H38_9 H 0.3798 0.9086 0.6024
C63_9 C 0.3394(2) 0.9522(2) 0.59303(14)
C64_9 C 0.3017(2) 0.9613(2) 0.58077(13)
H39_9 H 0.2899 0.9873 0.5825
C65_9 C 0.2822(2) 0.9302(2) 0.56655(15)
C66_9 C 0.29899(19) 0.8898(2) 0.56650(14)
H40_9 H 0.2846 0.8684 0.5580
C67_9 C 0.24186(19) 0.9381(2) 0.55089(13)
C68_9 C 0.20663(19) 0.9500(3) 0.56498(15)
H41_9 H 0.2057 0.9533 0.5843
C69_9 C 0.1740(2) 0.9616(3) 0.54778(13)
H42_9 H 0.1498 0.9690 0.5569
C70_5 C 0.17111(19) 0.9594(2) 0.51900(12)
C71_9 C 0.20635(18) 0.9443(2) 0.50666(14)
H43_9 H 0.2063 0.9407 0.4873
C72_9 C 0.2422(2) 0.9354(3) 0.52183(13)
H44_9 H 0.2658 0.9268 0.5124
C74_9 C 0.3643(2) 0.9847(2) 0.60695(15)
C75_9 C 0.4060(3) 0.9833(2) 0.60789(14)
H45_9 H 0.4192 0.9613 0.5992
O22_5 O 0.50804(14) 0.82297(14) 0.61266(8)
O24_5 O 0.37728(14) 0.93500(15) 0.79352(9)
O25_5 O 0.39542(14) 0.93042(18) 0.83909(11)
O26_5 O 0.55935(14) 0.77261(13) 0.66186(9)
O27_5 O 0.96096(13) 0.89730(13) 0.55883(9)
O30_5 O 0.45802(13) 0.72563(12) 0.59046(10)
O31_5 O 0.13735(12) 0.96663(14) 0.47664(10)
O32_5 O 0.10919(15) 0.99114(18) 0.51572(10)
H49_5 H 0.0898 0.9971 0.5044
C82_5 C 0.3737(2) 0.5979(2) 0.56037(13)
C83_5 C 0.3914(2) 0.9162(2) 0.81476(19)
C84_5 C 0.41457(19) 0.39662(18) 0.92158(12)
C85_5 C 0.9376(2) 0.9245(2) 0.56671(12)
C86_5 C 0.4333(2) 0.76707(19) 0.67949(18)
C88_5 C 0.1356(2) 0.9721(2) 0.50334(18)
H3_10 H 0.5524 0.0279 0.2177
Na1_6 Na 0.2500 0.00944(9) 0.8750
O2_6 O 0.32297(14) 0.00804(14) 0.88734(8)
O7_10 O 0.31157(14) 0.11009(14) 0.82286(10)
O8_6 O 0.27261(13) 0.05935(14) 0.83814(9)
O17_10 O 0.34297(10) 0.00935(11) 0.82632(7)
H2_10 H 0.3209 0.0100 0.8359
C3_10 C 0.30627(19) 0.0018(2) 0.94501(12)
H4_10 H 0.2884 0.0179 0.9344
H5_10 H 0.2752 0.0077 0.9801
C28_10 C 0.2784(2) 0.0966(2) 0.83243(14)
C29_10 C 0.24463(12) 0.12725(12) 0.83713(9)
C30_10 C 0.25208(10) 0.16917(14) 0.83411(9)
H19_10 H 0.2774 0.1783 0.8275
C31_10 C 0.22164(14) 0.19751(10) 0.84102(10)
H20_10 H 0.2266 0.2256 0.8390
C32_10 C 0.18375(12) 0.18393(12) 0.85094(9)
C33_10 C 0.17630(10) 0.14201(13) 0.85396(8)
H21_10 H 0.1509 0.1329 0.8606
C34_10 C 0.20674(13) 0.11367(10) 0.84705(9)
H22_10 H 0.2018 0.0856 0.8491
C35_10 C 0.15307(19) 0.21401(17) 0.86344(13)
C36_10 C 0.14418(19) 0.2506(2) 0.85138(13)
H23_10 H 0.1559 0.2572 0.8341
C37_10 C 0.1168(2) 0.2784(2) 0.86422(14)
C38_10 C 0.1006(2) 0.2662(2) 0.89007(16)
H24_10 H 0.0824 0.2842 0.8988
C39_10 C 0.10902(19) 0.2296(2) 0.90321(14)
C40_10 C 0.13531(19) 0.2043(2) 0.88929(14)
H25_10 H 0.1408 0.1784 0.8968
C41_10 C 0.0908(2) 0.21759(18) 0.92914(13)
C42_10 C 0.0523(2) 0.2261(2) 0.93724(14)
H26_10 H 0.0361 0.2424 0.9256
C43_10 C 0.0357(2) 0.2127(2) 0.96186(16)
H27_10 H 0.0082 0.2184 0.9657
C44_10 C 0.0589(2) 0.1904(2) 0.98141(15)
C45_10 C 0.0992(2) 0.1811(2) 0.97394(17)
H28_10 H 0.1160 0.1662 0.9860
C46_10 C 0.1147(2) 0.1940(3) 0.94732(16)
H29_10 H 0.1418 0.1878 0.9424
C47_10 C 0.1061(2) 0.3191(2) 0.85157(15)
C48_10 C 0.1350(2) 0.3444(2) 0.84088(15)
H30_10 H 0.1627 0.3372 0.8420
C49_10 C 0.1241(2) 0.3828(2) 0.82966(14)
H31_10 H 0.1446 0.3994 0.8222
C50_6 C 0.08543(19) 0.39662(18) 0.82842(12)
C51_10 C 0.05598(19) 0.37017(19) 0.83924(14)
H32_10 H 0.0286 0.3785 0.8379
C52_10 C 0.0650(2) 0.3334(2) 0.85102(15)
H33_10 H 0.0438 0.3178 0.8587
O22_6 O 0.17703(14) 0.00804(14) 0.86266(8)
O26_6 O 0.22739(13) 0.05935(14) 0.91186(9)
O27_6 O 0.10270(13) 0.46096(13) 0.80883(9)
C85_6 C 0.0755(2) 0.4376(2) 0.81671(12)
O4_10 O 0.44390(12) 0.90765(13) 0.17288(8)
O9_6 O 0.53904(13) 0.89730(13) 0.19117(9)
O13_6 O 0.46663(14) 0.86265(12) 0.22664(10)
O14_6 O 0.49114(18) 0.89081(15) 0.26572(10)
H1_6 H 0.4971 0.9102 0.2544
C8_10 C 0.3091(2) 0.95508(19) 0.01767(12)
C9_10 C 0.2681(2) 0.9442(2) 0.02152(13)
H8_10 H 0.2499 0.9440 0.0064
C10_10 C 0.25467(19) 0.9338(2) 0.04812(14)
C11_10 C 0.2840(2) 0.9329(2) 0.07033(13)
H9_10 H 0.2753 0.9241 0.0879
C12_10 C 0.3247(2) 0.9443(2) 0.06685(13)
C13_10 C 0.33648(19) 0.9561(2) 0.03972(13)
H10_10 H 0.3636 0.9639 0.0364
C14_10 C 0.35480(19) 0.9415(2) 0.09066(13)
C15_10 C 0.3555(2) 0.9088(3) 0.10838(15)
H11_10 H 0.3375 0.8868 0.1062
C16_10 C 0.3844(2) 0.9075(2) 0.12899(14)
H12_10 H 0.3840 0.8855 0.1414
C17_10 C 0.4137(2) 0.9395(2) 0.13270(13)
C18_10 C 0.4106(2) 0.9720(2) 0.11532(14)
H13_10 H 0.4300 0.9929 0.1169
C19_10 C 0.3811(2) 0.9751(2) 0.09519(14)
H14_10 H 0.3785 0.9989 0.0845
C20_10 C 0.4460(2) 0.9366(2) 0.15516(13)
C21_10 C 0.2126(2) 0.9234(2) 0.05306(12)
C22_10 C 0.1892(2) 0.9046(3) 0.03256(14)
H15_10 H 0.2021 0.8987 0.0156
C23_10 C 0.1475(2) 0.8950(3) 0.03557(15)
H16_10 H 0.1337 0.8819 0.0211
C24_6 C 0.1263(2) 0.9021(2) 0.06037(13)
C25_10 C 0.1501(2) 0.9208(2) 0.08120(14)
H17_10 H 0.1373 0.9252 0.0984
C26_10 C 0.1911(2) 0.9322(2) 0.07748(14)
H18_10 H 0.2049 0.9458 0.0919
C53_6 C 0.5624(2) 0.9245(2) 0.18329(12)
C73_6 C 0.4721(2) 0.8644(2) 0.25334(18)
O24_6 O 0.06500(15) 0.87728(14) 0.04352(9)
O25_6 O 0.06958(18) 0.89542(14) 0.08909(11)
C83_6 C 0.0838(2) 0.8914(2) 0.06476(19)
C84_6 C 0.60338(18) 0.91457(19) 0.17158(12)
C87_6 C 0.4594(2) 0.82889(19) 0.26900(12)
O1_10 O 0.38196(14) 0.97381(16) 0.89222(9)
O11_10 O 0.28445(13) 0.93258(13) 0.79729(11)
O12_6 O 0.22563(12) 0.95802(13) 0.90954(10)
C1_10 C 0.3482(3) 0.9921(2) 0.90159(12)
C2_10 C 0.34013(19) 0.98607(18) 0.93287(11)
C4_10 C 0.29783(19) 0.9946(2) 0.97207(12)
C5_10 C 0.32147(19) 0.9686(2) 0.98874(13)
C6_10 C 0.3580(2) 0.9523(2) 0.97585(14)
H6_10 H 0.3760 0.9360 0.9861
C7_10 C 0.3657(2) 0.9609(2) 0.94892(14)
H7_10 H 0.3890 0.9496 0.9406
C54_6 C 0.26707(19) 0.9333(2) 0.82051(18)
C55_10 C 0.23008(18) 0.90477(19) 0.82363(16)
C56_10 C 0.20928(19) 0.90409(19) 0.84830(14)
H34_10 H 0.2183 0.9192 0.8637
C57_10 C 0.1745(2) 0.87898(19) 0.84927(14)
H35_10 H 0.1602 0.8777 0.8662
C58_10 C 0.1593(2) 0.85585(17) 0.82654(14)
C59_10 C 0.1824(2) 0.8565(2) 0.80307(15)
H36_10 H 0.1754 0.8391 0.7883
C60_10 C 0.2168(2) 0.8799(2) 0.80054(15)
H37_10 H 0.2311 0.8805 0.7837
C61_10 C 0.1182(2) 0.8364(2) 0.82899(13)
C62_10 C 0.0861(2) 0.8554(2) 0.84270(13)
H38_10 H 0.0914 0.8798 0.8524
C63_10 C 0.0478(2) 0.8394(2) 0.84303(14)
C64_10 C 0.0387(2) 0.8017(2) 0.83077(13)
H39_10 H 0.0127 0.7899 0.8325
C65_10 C 0.0698(2) 0.7822(2) 0.81655(15)
C66_10 C 0.1102(2) 0.79899(19) 0.81650(14)
H40_10 H 0.1316 0.7846 0.8080
C67_10 C 0.0619(2) 0.74186(19) 0.80089(13)
C68_10 C 0.0500(3) 0.70663(19) 0.81498(15)
H41_10 H 0.0467 0.7057 0.8343
C69_10 C 0.0384(3) 0.6740(2) 0.79778(13)
H42_10 H 0.0310 0.6498 0.8069
C70_6 C 0.0406(2) 0.67111(19) 0.76900(12)
C71_10 C 0.0557(2) 0.70635(18) 0.75666(14)
H43_10 H 0.0593 0.7063 0.7373
C72_10 C 0.0646(3) 0.7422(2) 0.77183(13)
H44_10 H 0.0732 0.7658 0.7624
C74_10 C 0.0153(2) 0.8643(2) 0.85695(15)
C75_10 C 0.0167(2) 0.9060(3) 0.85789(14)
H45_10 H 0.0387 0.9192 0.8492
O30_6 O 0.27437(12) 0.95802(13) 0.84046(10)
O31_6 O 0.03337(14) 0.63735(12) 0.72664(10)
O32_6 O 0.00886(18) 0.60919(15) 0.76572(10)
H49_6 H 0.0029 0.5898 0.7544
C86_6 C 0.23293(19) 0.9333(2) 0.92949(18)
C88_6 C 0.0279(2) 0.6356(2) 0.75334(18)
C76_10 C 0.9852(3) 0.9302(2) 0.87115(17)
H46_10 H 0.9867 0.9588 0.8706
C78_10 C 0.9518(2) 0.8686(2) 0.88689(18)
H47_10 H 0.9305 0.8550 0.8961
C79_10 C 0.9840(3) 0.8452(2) 0.87235(17)
H48_10 H 0.9838 0.8167 0.8738
O9_7 O 0.10270(13) 0.03904(13) 0.44117(9)
C53_7 C 0.0755(2) 0.0624(2) 0.43329(12)
C84_7 C 0.08543(19) 0.10338(18) 0.42158(12)
O1_11 O 0.02619(16) 0.88196(14) 0.14222(9)
O4_11 O 0.09235(13) 0.94390(12) 0.42288(8)
O11_11 O 0.06742(13) 0.78445(13) 0.04729(11)
O12_7 O 0.04198(13) 0.72563(12) 0.15954(10)
C1_11 C 0.0079(2) 0.8482(3) 0.15159(12)
C2_11 C 0.01393(18) 0.84013(19) 0.18287(11)
C4_11 C 0.0054(2) 0.79783(19) 0.22207(12)
C5_11 C 0.0314(2) 0.82147(19) 0.23874(13)
C6_11 C 0.0477(2) 0.8580(2) 0.22585(14)
H6_11 H 0.0640 0.8760 0.2361
C7_11 C 0.0391(2) 0.8657(2) 0.19892(14)
H7_11 H 0.0504 0.8890 0.1906
C8_11 C 0.04492(19) 0.8091(2) 0.26767(12)
C9_11 C 0.0558(2) 0.7681(2) 0.27152(13)
H8_11 H 0.0560 0.7499 0.2564
C10_11 C 0.0662(2) 0.75467(19) 0.29812(14)
C11_11 C 0.0671(2) 0.7840(2) 0.32033(13)
H9_11 H 0.0759 0.7753 0.3379
C12_11 C 0.0557(2) 0.8247(2) 0.31685(13)
C13_11 C 0.0439(2) 0.83648(19) 0.28972(13)
H10_11 H 0.0361 0.8636 0.2864
C14_11 C 0.0585(2) 0.85480(19) 0.34066(13)
C15_11 C 0.0912(3) 0.8555(2) 0.35838(15)
H11_11 H 0.1132 0.8375 0.3562
C16_11 C 0.0925(2) 0.8844(2) 0.37899(14)
H12_11 H 0.1145 0.8840 0.3914
C17_11 C 0.0605(2) 0.9137(2) 0.38270(13)
C18_11 C 0.0280(2) 0.9106(2) 0.36532(14)
H13_11 H 0.0071 0.9300 0.3669
C19_11 C 0.0249(2) 0.8811(2) 0.34519(14)
H14_11 H 0.0011 0.8785 0.3345
C20_11 C 0.0634(2) 0.9460(2) 0.40516(13)
C21_11 C 0.0766(2) 0.7126(2) 0.30306(12)
C22_11 C 0.0954(3) 0.6892(2) 0.28256(14)
H15_11 H 0.1013 0.7021 0.2656
C23_11 C 0.1050(3) 0.6475(2) 0.28557(15)
H16_11 H 0.1181 0.6337 0.2711
C24_7 C 0.0979(2) 0.6263(2) 0.31037(13)
C25_11 C 0.0792(2) 0.6501(2) 0.33120(14)
H17_11 H 0.0748 0.6373 0.3484
C26_11 C 0.0678(2) 0.6911(2) 0.32748(14)
H18_11 H 0.0542 0.7049 0.3419
C54_7 C 0.0667(2) 0.76707(19) 0.07051(18)
C55_11 C 0.09523(19) 0.73008(18) 0.07363(16)
C56_11 C 0.09591(19) 0.70928(19) 0.09830(14)
H34_11 H 0.0808 0.7183 0.1137
C57_11 C 0.12102(19) 0.6745(2) 0.09927(14)
H35_11 H 0.1223 0.6602 0.1162
C58_11 C 0.14415(17) 0.6593(2) 0.07654(14)
C59_11 C 0.1435(2) 0.6824(2) 0.05307(15)
H36_11 H 0.1609 0.6754 0.0383
C60_11 C 0.1201(2) 0.7168(2) 0.05054(15)
H37_11 H 0.1195 0.7311 0.0337
C61_11 C 0.1636(2) 0.6182(2) 0.07899(13)
C62_11 C 0.1446(2) 0.5861(2) 0.09270(13)
H38_11 H 0.1202 0.5914 0.1024
C63_11 C 0.1606(2) 0.5478(2) 0.09303(14)
C64_11 C 0.1983(2) 0.5387(2) 0.08077(13)
H39_11 H 0.2101 0.5127 0.0825
C65_11 C 0.2178(2) 0.5698(2) 0.06655(15)
C66_11 C 0.20101(19) 0.6102(2) 0.06650(14)
H40_11 H 0.2154 0.6316 0.0580
C67_11 C 0.25814(19) 0.5619(2) 0.05089(13)
C68_11 C 0.29337(19) 0.5500(3) 0.06498(15)
H41_11 H 0.2943 0.5467 0.0843
C69_11 C 0.3260(2) 0.5384(3) 0.04778(13)
H42_11 H 0.3502 0.5310 0.0569
C71_11 C 0.29365(18) 0.5557(2) 0.00666(14)
C72_11 C 0.2578(2) 0.5646(3) 0.02183(13)
H44_11 H 0.2342 0.5732 0.0124
C74_11 C 0.1357(2) 0.5153(2) 0.10695(15)
C75_11 C 0.0940(3) 0.5167(2) 0.10789(14)
H45_11 H 0.0808 0.5387 0.0992
C76_11 C 0.0698(2) 0.4852(3) 0.12115(17)
H46_11 H 0.0412 0.4867 0.1206
C78_11 C 0.1314(2) 0.4518(2) 0.13689(18)
H47_11 H 0.1450 0.4305 0.1461
C79_11 C 0.1548(2) 0.4840(3) 0.12235(17)
H48_11 H 0.1833 0.4838 0.1238
O24_7 O 0.12272(14) 0.56500(15) 0.29352(9)
O25_7 O 0.10458(14) 0.56958(18) 0.33909(11)
O30_7 O 0.04198(13) 0.77437(12) 0.09046(10)
C83_7 C 0.1086(2) 0.5838(2) 0.31476(19)
C86_7 C 0.0667(2) 0.73293(19) 0.17949(18)
H43_11 H 0.2937 0.5593 0.9873
H3_11 H 0.9721 0.0524 0.4677
Na1_7 Na 0.99056(9) 0.7500 0.1250
O2_7 O 0.99196(14) 0.82297(14) 0.13734(8)
O7_11 O 0.88991(14) 0.81157(14) 0.07286(10)
O8_7 O 0.94065(14) 0.77261(13) 0.08814(9)
O17_11 O 0.99065(11) 0.84297(10) 0.07632(7)
H2_11 H 0.9900 0.8209 0.0859
C3_11 C 0.9982(2) 0.80627(19) 0.19501(12)
H4_11 H 0.9821 0.7884 0.1844
H5_11 H 0.9923 0.7752 0.2301
C28_11 C 0.9034(2) 0.7784(2) 0.08243(14)
C29_11 C 0.87275(12) 0.74463(12) 0.08713(9)
C30_11 C 0.83083(14) 0.75208(10) 0.08411(9)
H19_11 H 0.8217 0.7774 0.0775
C31_11 C 0.80249(10) 0.72164(14) 0.09102(10)
H20_11 H 0.7744 0.7266 0.0890
C32_11 C 0.81607(12) 0.68375(12) 0.10094(9)
C33_11 C 0.85799(13) 0.67630(10) 0.10396(8)
H21_11 H 0.8671 0.6509 0.1106
C34_11 C 0.88633(10) 0.70674(13) 0.09705(9)
H22_11 H 0.9144 0.7018 0.0991
C35_11 C 0.78599(17) 0.65307(19) 0.11344(13)
C36_11 C 0.7494(2) 0.64418(19) 0.10138(13)
H23_11 H 0.7428 0.6559 0.0841
C37_11 C 0.7216(2) 0.6168(2) 0.11422(14)
C38_11 C 0.7338(2) 0.6006(2) 0.14007(16)
H24_11 H 0.7158 0.5824 0.1488
C39_11 C 0.7704(2) 0.60902(19) 0.15321(14)
C40_11 C 0.7957(2) 0.63531(19) 0.13929(14)
H25_11 H 0.8216 0.6408 0.1468
C41_11 C 0.78241(18) 0.5908(2) 0.17914(13)
C42_11 C 0.7739(2) 0.5523(2) 0.18724(14)
H26_11 H 0.7576 0.5361 0.1756
C43_11 C 0.7873(2) 0.5357(2) 0.21186(16)
H27_11 H 0.7816 0.5082 0.2157
C44_11 C 0.8096(2) 0.5589(2) 0.23141(15)
C45_11 C 0.8189(2) 0.5992(2) 0.22394(17)
H28_11 H 0.8338 0.6160 0.2360
C46_11 C 0.8060(3) 0.6147(2) 0.19732(16)
H29_11 H 0.8122 0.6418 0.1924
C47_11 C 0.6809(2) 0.6061(2) 0.10157(15)
C48_11 C 0.6556(2) 0.6350(2) 0.09088(15)
H30_11 H 0.6628 0.6627 0.0920
C49_11 C 0.6172(2) 0.6241(2) 0.07966(14)
H31_11 H 0.6006 0.6446 0.0722
C50_7 C 0.60338(18) 0.58543(19) 0.07842(12)
C51_11 C 0.62983(19) 0.55598(19) 0.08924(14)
H32_11 H 0.6215 0.5286 0.0879
C52_11 C 0.6666(2) 0.5650(2) 0.10102(15)
H33_11 H 0.6822 0.5438 0.1087
O22_7 O 0.99196(14) 0.67703(14) 0.11266(8)
O26_7 O 0.94065(14) 0.72739(13) 0.16186(9)
O27_7 O 0.53904(13) 0.60270(13) 0.05883(9)
C85_7 C 0.5624(2) 0.5755(2) 0.06671(12)
Na1_8 Na 0.2500 0.49056(9) 0.3750
O1_12 O 0.11804(14) 0.52619(16) 0.39222(9)
O2_8 O 0.17703(14) 0.49196(14) 0.38734(8)
O4_12 O 0.05610(12) 0.59235(13) 0.67288(8)
O7_12 O 0.18843(14) 0.38991(14) 0.32286(10)
O8_8 O 0.22739(13) 0.44065(14) 0.33814(9)
O11_12 O 0.21555(13) 0.56742(13) 0.29729(11)
O12_8 O 0.27437(12) 0.54198(13) 0.40954(10)
O17_12 O 0.15703(10) 0.49065(11) 0.32632(7)
H2_12 H 0.1791 0.4900 0.3359
C1_12 C 0.1518(3) 0.5079(2) 0.40159(12)
C2_12 C 0.15987(19) 0.51393(18) 0.43287(11)
C3_12 C 0.19373(19) 0.4982(2) 0.44501(12)
H4_12 H 0.2116 0.4821 0.4344
C4_12 C 0.20217(19) 0.5054(2) 0.47207(12)
H5_12 H 0.2248 0.4923 0.4801
C5_12 C 0.17853(19) 0.5314(2) 0.48874(13)
C6_12 C 0.1420(2) 0.5477(2) 0.47585(14)
H6_12 H 0.1240 0.5640 0.4861
C7_12 C 0.1343(2) 0.5391(2) 0.44892(14)
H7_12 H 0.1110 0.5504 0.4406
C8_12 C 0.1909(2) 0.54492(19) 0.51767(12)
C9_12 C 0.2319(2) 0.5558(2) 0.52152(13)
H8_12 H 0.2501 0.5560 0.5064
C10_12 C 0.24533(19) 0.5662(2) 0.54812(14)
C11_12 C 0.2160(2) 0.5671(2) 0.57033(13)
H9_12 H 0.2247 0.5759 0.5879
C12_12 C 0.1753(2) 0.5557(2) 0.56685(13)
C13_12 C 0.16352(19) 0.5439(2) 0.53972(13)
H10_12 H 0.1364 0.5361 0.5364
C14_12 C 0.14520(19) 0.5585(2) 0.59066(13)
C15_12 C 0.1445(2) 0.5912(3) 0.60838(15)
H11_12 H 0.1625 0.6132 0.6062
C16_12 C 0.1156(2) 0.5925(2) 0.62899(14)
H12_12 H 0.1160 0.6145 0.6414
C17_12 C 0.0863(2) 0.5605(2) 0.63270(13)
C18_12 C 0.0894(2) 0.5280(2) 0.61532(14)
H13_12 H 0.0700 0.5071 0.6169
C19_12 C 0.1189(2) 0.5249(2) 0.59519(14)
H14_12 H 0.1215 0.5011 0.5845
C20_12 C 0.0540(2) 0.5634(2) 0.65516(13)
C21_12 C 0.2874(2) 0.5766(2) 0.55306(12)
C22_12 C 0.3108(2) 0.5954(3) 0.53256(14)
H15_12 H 0.2979 0.6013 0.5156
C23_12 C 0.3525(2) 0.6050(3) 0.53557(15)
H16_12 H 0.3663 0.6181 0.5211
C25_12 C 0.3499(2) 0.5792(2) 0.58120(14)
H17_12 H 0.3627 0.5748 0.5984
C26_12 C 0.3089(2) 0.5678(2) 0.57748(14)
H18_12 H 0.2951 0.5542 0.5919
C28_12 C 0.2216(2) 0.4034(2) 0.33243(14)
C29_12 C 0.25537(12) 0.37275(12) 0.33713(9)
C30_12 C 0.24792(10) 0.33083(14) 0.33411(9)
H19_12 H 0.2226 0.3217 0.3275
C31_12 C 0.27836(14) 0.30249(10) 0.34102(10)
H20_12 H 0.2734 0.2744 0.3390
C32_12 C 0.31625(12) 0.31607(12) 0.35094(9)
C33_12 C 0.32370(10) 0.35799(13) 0.35396(8)
H21_12 H 0.3491 0.3671 0.3606
C34_12 C 0.29326(13) 0.38633(10) 0.34705(9)
H22_12 H 0.2982 0.4144 0.3491
C35_12 C 0.34693(19) 0.28599(17) 0.36344(13)
C36_12 C 0.35582(19) 0.2494(2) 0.35138(13)
H23_12 H 0.3441 0.2428 0.3341
C37_12 C 0.3832(2) 0.2216(2) 0.36422(14)
C38_12 C 0.3994(2) 0.2338(2) 0.39007(16)
H24_12 H 0.4176 0.2158 0.3988
C39_12 C 0.39098(19) 0.2704(2) 0.40321(14)
C40_12 C 0.36469(19) 0.2957(2) 0.38929(14)
H25_12 H 0.3592 0.3216 0.3968
C41_12 C 0.4092(2) 0.28241(18) 0.42914(13)
C42_12 C 0.4477(2) 0.2739(2) 0.43724(14)
H26_12 H 0.4639 0.2576 0.4256
C43_12 C 0.4643(2) 0.2873(2) 0.46186(16)
H27_12 H 0.4918 0.2816 0.4657
C44_12 C 0.4411(2) 0.3096(2) 0.48141(15)
C45_12 C 0.4008(2) 0.3189(2) 0.47394(17)
H28_12 H 0.3840 0.3338 0.4860
C46_12 C 0.3853(2) 0.3060(3) 0.44732(16)
H29_12 H 0.3582 0.3122 0.4424
C47_12 C 0.3939(2) 0.1809(2) 0.35157(15)
C48_12 C 0.3650(2) 0.1556(2) 0.34088(15)
H30_12 H 0.3373 0.1628 0.3420
C49_12 C 0.3759(2) 0.1172(2) 0.32966(14)
H31_12 H 0.3554 0.1006 0.3222
C50_8 C 0.41457(19) 0.10338(18) 0.32842(12)
C51_12 C 0.44402(19) 0.12983(19) 0.33924(14)
H32_12 H 0.4714 0.1215 0.3379
C52_12 C 0.4350(2) 0.1666(2) 0.35102(15)
H33_12 H 0.4562 0.1822 0.3587
C54_8 C 0.23293(19) 0.5667(2) 0.32051(18)
C55_12 C 0.26992(18) 0.59523(19) 0.32363(16)
C56_12 C 0.29072(19) 0.59591(19) 0.34830(14)
H34_12 H 0.2817 0.5808 0.3637
C57_12 C 0.3255(2) 0.62102(19) 0.34927(14)
H35_12 H 0.3398 0.6223 0.3662
C58_12 C 0.3407(2) 0.64415(17) 0.32654(14)
C59_12 C 0.3176(2) 0.6435(2) 0.30307(15)
H36_12 H 0.3246 0.6609 0.2883
C60_12 C 0.2832(2) 0.6201(2) 0.30054(15)
H37_12 H 0.2689 0.6195 0.2837
C61_12 C 0.3818(2) 0.6636(2) 0.32899(13)
C62_12 C 0.4139(2) 0.6446(2) 0.34270(13)
H38_12 H 0.4086 0.6202 0.3524
C63_12 C 0.4522(2) 0.6606(2) 0.34303(14)
C64_12 C 0.4613(2) 0.6983(2) 0.33077(13)
H39_12 H 0.4873 0.7101 0.3325
C65_12 C 0.4302(2) 0.7178(2) 0.31655(15)
C66_12 C 0.3898(2) 0.70101(19) 0.31650(14)
H40_12 H 0.3684 0.7154 0.3080
C67_12 C 0.4381(2) 0.75814(19) 0.30089(13)
C68_12 C 0.4500(3) 0.79337(19) 0.31498(15)
H41_12 H 0.4533 0.7943 0.3343
C69_12 C 0.4616(3) 0.8260(2) 0.29778(13)
H42_12 H 0.4690 0.8502 0.3069
C71_12 C 0.4443(2) 0.79365(18) 0.25666(14)
H43_12 H 0.4407 0.7937 0.2373
C72_12 C 0.4354(3) 0.7578(2) 0.27183(13)
H44_12 H 0.4268 0.7342 0.2624
C74_12 C 0.4847(2) 0.6357(2) 0.35695(15)
C75_12 C 0.4833(2) 0.5940(3) 0.35789(14)
H45_12 H 0.4613 0.5808 0.3492
C76_12 C 0.5148(3) 0.5698(2) 0.37115(17)
H46_12 H 0.5133 0.5412 0.3706
C78_12 C 0.5482(2) 0.6314(2) 0.38689(18)
H47_12 H 0.5695 0.6450 0.3961
C79_12 C 0.5160(3) 0.6548(2) 0.37235(17)
H48_12 H 0.5162 0.6833 0.3738
O22_8 O 0.32297(14) 0.49196(14) 0.36266(8)
O26_8 O 0.27261(13) 0.44065(14) 0.41186(9)
O27_8 O 0.39730(13) 0.03904(13) 0.30883(9)
O30_8 O 0.22563(12) 0.54198(13) 0.34046(10)
C85_8 C 0.4245(2) 0.0624(2) 0.31671(12)
C86_8 C 0.26707(19) 0.5667(2) 0.42949(18)
O9_8 O 0.96096(13) 0.60270(13) 0.69117(9)
H3_12 H 0.9476 0.4721 0.7177
C53_8 C 0.9376(2) 0.5755(2) 0.68329(12)
C84_8 C 0.89662(18) 0.58543(19) 0.67158(12)
H3_13 H 0.5279 0.0524 0.2823
O1_13 O 0.47381(16) 0.88196(14) 0.60778(9)
O4_13 O 0.40765(13) 0.94390(12) 0.32712(8)
O5_6 O 0.43500(15) 0.87728(14) 0.70648(9)
O6_6 O 0.43042(18) 0.89542(14) 0.66091(11)
O7_13 O 0.61009(14) 0.81157(14) 0.67714(10)
O11_13 O 0.43258(13) 0.78445(13) 0.70271(11)
O13_7 O 0.36265(12) 0.96663(14) 0.27336(10)
O14_7 O 0.39081(15) 0.99114(18) 0.23428(10)
H1_7 H 0.4102 0.9971 0.2456
O17_13 O 0.50935(11) 0.84297(10) 0.67368(7)
H2_13 H 0.5100 0.8209 0.6641
C1_13 C 0.4921(2) 0.8482(3) 0.59841(12)
C2_13 C 0.48607(18) 0.84013(19) 0.56713(11)
C3_13 C 0.5018(2) 0.80627(19) 0.55499(12)
H4_13 H 0.5179 0.7884 0.5656
C4_13 C 0.4946(2) 0.79783(19) 0.52793(12)
H5_13 H 0.5077 0.7752 0.5199
C5_13 C 0.4686(2) 0.82147(19) 0.51126(13)
C6_13 C 0.4523(2) 0.8580(2) 0.52415(14)
H6_13 H 0.4360 0.8760 0.5139
C7_13 C 0.4609(2) 0.8657(2) 0.55108(14)
H7_13 H 0.4496 0.8890 0.5594
C8_13 C 0.45508(19) 0.8091(2) 0.48233(12)
C9_13 C 0.4442(2) 0.7681(2) 0.47848(13)
H8_13 H 0.4440 0.7499 0.4936
C10_13 C 0.4338(2) 0.75467(19) 0.45188(14)
C11_13 C 0.4329(2) 0.7840(2) 0.42967(13)
H9_13 H 0.4241 0.7753 0.4121
C12_13 C 0.4443(2) 0.8247(2) 0.43315(13)
C13_13 C 0.4561(2) 0.83648(19) 0.46028(13)
H10_13 H 0.4639 0.8636 0.4636
C14_13 C 0.4415(2) 0.85480(19) 0.40934(13)
C15_13 C 0.4088(3) 0.8555(2) 0.39162(15)
H11_13 H 0.3868 0.8375 0.3938
C16_13 C 0.4075(2) 0.8844(2) 0.37101(14)
H12_13 H 0.3855 0.8840 0.3586
C17_13 C 0.4395(2) 0.9137(2) 0.36730(13)
C18_13 C 0.4720(2) 0.9106(2) 0.38468(14)
H13_13 H 0.4929 0.9300 0.3831
C19_13 C 0.4751(2) 0.8811(2) 0.40481(14)
H14_13 H 0.4989 0.8785 0.4155
C20_13 C 0.4366(2) 0.9460(2) 0.34484(13)
C21_13 C 0.4234(2) 0.7126(2) 0.44694(12)
C22_13 C 0.4046(3) 0.6892(2) 0.46744(14)
H15_13 H 0.3987 0.7021 0.4844
C23_13 C 0.3950(3) 0.6475(2) 0.46443(15)
H16_13 H 0.3819 0.6337 0.4789
C24_8 C 0.4021(2) 0.6263(2) 0.43963(13)
C25_13 C 0.4208(2) 0.6501(2) 0.41880(14)
H17_13 H 0.4252 0.6373 0.4016
C26_13 C 0.4322(2) 0.6911(2) 0.42252(14)
H18_13 H 0.4458 0.7049 0.4081
C27_6 C 0.4162(2) 0.8914(2) 0.68524(19)
C28_13 C 0.5966(2) 0.7784(2) 0.66757(14)
C29_13 C 0.62725(12) 0.74463(12) 0.66287(9)
C30_13 C 0.66917(14) 0.75208(10) 0.66589(9)
H19_13 H 0.6783 0.7774 0.6725
C31_13 C 0.69751(10) 0.72164(14) 0.65898(10)
H20_13 H 0.7256 0.7266 0.6610
C32_13 C 0.68393(12) 0.68375(12) 0.64906(9)
C33_13 C 0.64201(13) 0.67630(10) 0.64604(8)
H21_13 H 0.6329 0.6509 0.6394
C34_13 C 0.61367(10) 0.70674(13) 0.65295(9)
H22_13 H 0.5856 0.7018 0.6509
C35_13 C 0.71401(17) 0.65307(19) 0.63656(13)
C36_13 C 0.7506(2) 0.64418(19) 0.64862(13)
H23_13 H 0.7572 0.6559 0.6659
C37_13 C 0.7784(2) 0.6168(2) 0.63578(14)
C38_13 C 0.7662(2) 0.6006(2) 0.60993(16)
H24_13 H 0.7842 0.5824 0.6012
C39_13 C 0.7296(2) 0.60902(19) 0.59679(14)
C40_13 C 0.7043(2) 0.63531(19) 0.61071(14)
H25_13 H 0.6784 0.6408 0.6032
C41_13 C 0.71759(18) 0.5908(2) 0.57086(13)
C42_13 C 0.7261(2) 0.5523(2) 0.56276(14)
H26_13 H 0.7424 0.5361 0.5744
C43_13 C 0.7127(2) 0.5357(2) 0.53814(16)
H27_13 H 0.7184 0.5082 0.5343
C44_13 C 0.6904(2) 0.5589(2) 0.51859(15)
C45_13 C 0.6811(2) 0.5992(2) 0.52606(17)
H28_13 H 0.6662 0.6160 0.5140
C46_13 C 0.6940(3) 0.6147(2) 0.55268(16)
H29_13 H 0.6878 0.6418 0.5576
C47_13 C 0.8191(2) 0.6061(2) 0.64843(15)
C48_13 C 0.8444(2) 0.6350(2) 0.65912(15)
H30_13 H 0.8372 0.6627 0.6580
C49_13 C 0.8828(2) 0.6241(2) 0.67034(14)
H31_13 H 0.8994 0.6446 0.6778
C51_13 C 0.87017(19) 0.55598(19) 0.66076(14)
H32_13 H 0.8785 0.5286 0.6621
C52_13 C 0.8334(2) 0.5650(2) 0.64898(15)
H33_13 H 0.8178 0.5438 0.6413
C55_13 C 0.40477(19) 0.73008(18) 0.67637(16)
C56_13 C 0.40409(19) 0.70928(19) 0.65170(14)
H34_13 H 0.4192 0.7183 0.6363
C57_13 C 0.37898(19) 0.6745(2) 0.65073(14)
H35_13 H 0.3777 0.6602 0.6338
C58_13 C 0.35585(17) 0.6593(2) 0.67346(14)
C59_13 C 0.3565(2) 0.6824(2) 0.69693(15)
H36_13 H 0.3391 0.6754 0.7117
C60_13 C 0.3799(2) 0.7168(2) 0.69946(15)
H37_13 H 0.3805 0.7311 0.7163
C61_13 C 0.3364(2) 0.6182(2) 0.67101(13)
C62_13 C 0.3554(2) 0.5861(2) 0.65730(13)
H38_13 H 0.3798 0.5914 0.6476
C63_13 C 0.3394(2) 0.5478(2) 0.65697(14)
C64_13 C 0.3017(2) 0.5387(2) 0.66923(13)
H39_13 H 0.2899 0.5127 0.6675
C65_13 C 0.2822(2) 0.5698(2) 0.68345(15)
C66_13 C 0.29899(19) 0.6102(2) 0.68350(14)
H40_13 H 0.2846 0.6316 0.6920
C67_13 C 0.24186(19) 0.5619(2) 0.69911(13)
C68_13 C 0.20663(19) 0.5500(3) 0.68502(15)
H41_13 H 0.2057 0.5467 0.6657
C69_13 C 0.1740(2) 0.5384(3) 0.70222(13)
H42_13 H 0.1498 0.5310 0.6931
C70_7 C 0.17111(19) 0.5406(2) 0.73100(12)
C71_13 C 0.20635(18) 0.5557(2) 0.74334(14)
H43_13 H 0.2063 0.5593 0.7627
C72_13 C 0.2422(2) 0.5646(3) 0.72817(13)
H44_13 H 0.2658 0.5732 0.7376
C73_7 C 0.3644(2) 0.9721(2) 0.24666(18)
C74_13 C 0.3643(2) 0.5153(2) 0.64305(15)
C75_13 C 0.4060(3) 0.5167(2) 0.64211(14)
H45_13 H 0.4192 0.5387 0.6508
C76_13 C 0.4302(2) 0.4852(3) 0.62885(17)
H46_13 H 0.4588 0.4867 0.6294
C78_13 C 0.3686(2) 0.4518(2) 0.61311(18)
H47_13 H 0.3550 0.4305 0.6039
C79_13 C 0.3452(2) 0.4840(3) 0.62765(17)
H48_13 H 0.3167 0.4838 0.6262
O24_8 O 0.37728(14) 0.56500(15) 0.45648(9)
O25_8 O 0.39542(14) 0.56958(18) 0.41091(11)
O31_7 O 0.13735(12) 0.53337(14) 0.77336(10)
O32_7 O 0.10919(15) 0.50886(18) 0.73428(10)
H49_7 H 0.0898 0.5029 0.7456
C82_6 C 0.3737(2) 0.9021(2) 0.68963(13)
C83_8 C 0.3914(2) 0.5838(2) 0.43524(19)
C87_7 C 0.32889(19) 0.9594(2) 0.23100(12)
C88_7 C 0.1356(2) 0.5279(2) 0.74666(18)
O7_14 O 0.18843(14) 0.11009(14) 0.92714(10)
O17_14 O 0.15703(10) 0.00935(11) 0.92368(7)
H2_14 H 0.1791 0.0100 0.9141
C3_14 C 0.19373(19) 0.0018(2) 0.80499(12)
H4_14 H 0.2116 0.0179 0.8156
H5_14 H 0.2248 0.0077 0.7699
C28_14 C 0.2216(2) 0.0966(2) 0.91757(14)
C29_14 C 0.25537(12) 0.12725(12) 0.91287(9)
C30_14 C 0.24792(10) 0.16917(14) 0.91589(9)
H19_14 H 0.2226 0.1783 0.9225
C31_14 C 0.27836(14) 0.19751(10) 0.90898(10)
H20_14 H 0.2734 0.2256 0.9110
C32_14 C 0.31625(12) 0.18393(12) 0.89906(9)
C33_14 C 0.32370(10) 0.14201(13) 0.89604(8)
H21_14 H 0.3491 0.1329 0.8894
C34_14 C 0.29326(13) 0.11367(10) 0.90295(9)
H22_14 H 0.2982 0.0856 0.9009
C35_14 C 0.34693(19) 0.21401(17) 0.88656(13)
C36_14 C 0.35582(19) 0.2506(2) 0.89862(13)
H23_14 H 0.3441 0.2572 0.9159
C37_14 C 0.3832(2) 0.2784(2) 0.88578(14)
C38_14 C 0.3994(2) 0.2662(2) 0.85993(16)
H24_14 H 0.4176 0.2842 0.8512
C39_14 C 0.39098(19) 0.2296(2) 0.84679(14)
C40_14 C 0.36469(19) 0.2043(2) 0.86071(14)
H25_14 H 0.3592 0.1784 0.8532
C41_14 C 0.4092(2) 0.21759(18) 0.82086(13)
C42_14 C 0.4477(2) 0.2261(2) 0.81276(14)
H26_14 H 0.4639 0.2424 0.8244
C43_14 C 0.4643(2) 0.2127(2) 0.78814(16)
H27_14 H 0.4918 0.2184 0.7843
C44_14 C 0.4411(2) 0.1904(2) 0.76859(15)
C45_14 C 0.4008(2) 0.1811(2) 0.77606(17)
H28_14 H 0.3840 0.1662 0.7640
C46_14 C 0.3853(2) 0.1940(3) 0.80268(16)
H29_14 H 0.3582 0.1878 0.8076
C47_14 C 0.3939(2) 0.3191(2) 0.89843(15)
C48_14 C 0.3650(2) 0.3444(2) 0.90912(15)
H30_14 H 0.3373 0.3372 0.9080
C49_14 C 0.3759(2) 0.3828(2) 0.92034(14)
H31_14 H 0.3554 0.3994 0.9278
C51_14 C 0.44402(19) 0.37017(19) 0.91076(14)
H32_14 H 0.4714 0.3785 0.9121
C52_14 C 0.4350(2) 0.3334(2) 0.89898(15)
H33_14 H 0.4562 0.3178 0.8913
H43_14 H 0.4407 0.7063 0.0127
O31_8 O 0.46663(14) 0.63735(12) 0.02336(10)
O1_14 O 0.11804(14) 0.97381(16) 0.85778(9)
O4_14 O 0.05610(12) 0.90765(13) 0.57712(8)
O5_7 O 0.12272(14) 0.93500(15) 0.95648(9)
O6_7 O 0.10458(14) 0.93042(18) 0.91091(11)
O11_14 O 0.21555(13) 0.93258(13) 0.95271(11)
O13_8 O 0.03337(14) 0.86265(12) 0.52336(10)
O14_8 O 0.00886(18) 0.89081(15) 0.48428(10)
H1_8 H 0.0029 0.9102 0.4956
C1_14 C 0.1518(3) 0.9921(2) 0.84841(12)
C2_14 C 0.15987(19) 0.98607(18) 0.81713(11)
C4_14 C 0.20217(19) 0.9946(2) 0.77793(12)
C5_14 C 0.17853(19) 0.9686(2) 0.76126(13)
C6_14 C 0.1420(2) 0.9523(2) 0.77415(14)
H6_14 H 0.1240 0.9360 0.7639
C7_14 C 0.1343(2) 0.9609(2) 0.80108(14)
H7_14 H 0.1110 0.9496 0.8094
C8_14 C 0.1909(2) 0.95508(19) 0.73233(12)
C9_14 C 0.2319(2) 0.9442(2) 0.72848(13)
H8_14 H 0.2501 0.9440 0.7436
C10_14 C 0.24533(19) 0.9338(2) 0.70188(14)
C11_14 C 0.2160(2) 0.9329(2) 0.67967(13)
H9_14 H 0.2247 0.9241 0.6621
C12_14 C 0.1753(2) 0.9443(2) 0.68315(13)
C13_14 C 0.16352(19) 0.9561(2) 0.71028(13)
H10_14 H 0.1364 0.9639 0.7136
C14_14 C 0.14520(19) 0.9415(2) 0.65934(13)
C15_14 C 0.1445(2) 0.9088(3) 0.64162(15)
H11_14 H 0.1625 0.8868 0.6438
C16_14 C 0.1156(2) 0.9075(2) 0.62101(14)
H12_14 H 0.1160 0.8855 0.6086
C17_14 C 0.0863(2) 0.9395(2) 0.61730(13)
C18_14 C 0.0894(2) 0.9720(2) 0.63468(14)
H13_14 H 0.0700 0.9929 0.6331
C19_14 C 0.1189(2) 0.9751(2) 0.65481(14)
H14_14 H 0.1215 0.9989 0.6655
C20_14 C 0.0540(2) 0.9366(2) 0.59484(13)
C21_14 C 0.2874(2) 0.9234(2) 0.69694(12)
C22_14 C 0.3108(2) 0.9046(3) 0.71744(14)
H15_14 H 0.2979 0.8987 0.7344
C23_14 C 0.3525(2) 0.8950(3) 0.71443(15)
H16_14 H 0.3663 0.8819 0.7289
C25_14 C 0.3499(2) 0.9208(2) 0.66880(14)
H17_14 H 0.3627 0.9252 0.6516
C26_14 C 0.3089(2) 0.9322(2) 0.67252(14)
H18_14 H 0.2951 0.9458 0.6581
C27_7 C 0.1086(2) 0.9162(2) 0.93524(19)
C55_14 C 0.26992(18) 0.90477(19) 0.92637(16)
C56_14 C 0.29072(19) 0.90409(19) 0.90170(14)
H34_14 H 0.2817 0.9192 0.8863
C57_14 C 0.3255(2) 0.87898(19) 0.90073(14)
H35_14 H 0.3398 0.8777 0.8838
C58_14 C 0.3407(2) 0.85585(17) 0.92346(14)
C59_14 C 0.3176(2) 0.8565(2) 0.94693(15)
H36_14 H 0.3246 0.8391 0.9617
C60_14 C 0.2832(2) 0.8799(2) 0.94946(15)
H37_14 H 0.2689 0.8805 0.9663
C61_14 C 0.3818(2) 0.8364(2) 0.92101(13)
C62_14 C 0.4139(2) 0.8554(2) 0.90730(13)
H38_14 H 0.4086 0.8798 0.8976
C63_14 C 0.4522(2) 0.8394(2) 0.90697(14)
C64_14 C 0.4613(2) 0.8017(2) 0.91923(13)
H39_14 H 0.4873 0.7899 0.9175
C65_14 C 0.4302(2) 0.7822(2) 0.93345(15)
C66_14 C 0.3898(2) 0.79899(19) 0.93350(14)
H40_14 H 0.3684 0.7846 0.9420
C67_14 C 0.4381(2) 0.74186(19) 0.94911(13)
C68_14 C 0.4500(3) 0.70663(19) 0.93502(15)
H41_14 H 0.4533 0.7057 0.9157
C69_14 C 0.4616(3) 0.6740(2) 0.95222(13)
H42_14 H 0.4690 0.6498 0.9431
C70_8 C 0.4594(2) 0.67111(19) 0.98100(12)
C71_14 C 0.4443(2) 0.70635(18) 0.99334(14)
C72_14 C 0.4354(3) 0.7422(2) 0.97817(13)
H44_14 H 0.4268 0.7658 0.9876
C73_8 C 0.0279(2) 0.8644(2) 0.49666(18)
C74_14 C 0.4847(2) 0.8643(2) 0.89305(15)
C75_14 C 0.4833(2) 0.9060(3) 0.89211(14)
H45_14 H 0.4613 0.9192 0.9008
C76_14 C 0.5148(3) 0.9302(2) 0.87885(17)
H46_14 H 0.5133 0.9588 0.8794
C78_14 C 0.5482(2) 0.8686(2) 0.86311(18)
H47_14 H 0.5695 0.8550 0.8539
C79_14 C 0.5160(3) 0.8452(2) 0.87765(17)
H48_14 H 0.5162 0.8167 0.8762
O32_8 O 0.49114(18) 0.60919(15) 0.98428(10)
H49_8 H 0.4971 0.5898 0.9956
C82_7 C 0.0979(2) 0.8737(2) 0.93963(13)
C87_8 C 0.0406(2) 0.82889(19) 0.48100(12)
C88_8 C 0.4721(2) 0.6356(2) 0.99666(18)
H3_14 H 0.9476 0.0279 0.5323
C76_15 C 0.0698(2) 0.0148(3) 0.12885(17)
H46_15 H 0.0412 0.0133 0.1294
C78_15 C 0.1314(2) 0.0482(2) 0.11311(18)
H47_15 H 0.1450 0.0695 0.1039
C79_15 C 0.1548(2) 0.0160(3) 0.12765(17)
H48_15 H 0.1833 0.0162 0.1262
O1_15 O 0.02619(16) 0.61804(14) 0.10778(9)
O5_8 O 0.06500(15) 0.62272(14) 0.20648(9)
O6_8 O 0.06958(18) 0.60458(14) 0.16091(11)
O11_15 O 0.06742(13) 0.71555(13) 0.20271(11)
C1_15 C 0.0079(2) 0.6518(3) 0.09841(12)
C2_15 C 0.01393(18) 0.65987(19) 0.06713(11)
C4_15 C 0.0054(2) 0.70217(19) 0.02793(12)
C5_15 C 0.0314(2) 0.67853(19) 0.01126(13)
C6_15 C 0.0477(2) 0.6420(2) 0.02415(14)
H6_15 H 0.0640 0.6240 0.0139
C7_15 C 0.0391(2) 0.6343(2) 0.05108(14)
H7_15 H 0.0504 0.6110 0.0594
C27_8 C 0.0838(2) 0.6086(2) 0.18524(19)
C55_15 C 0.09523(19) 0.76992(18) 0.17637(16)
C56_15 C 0.09591(19) 0.79072(19) 0.15170(14)
H34_15 H 0.0808 0.7817 0.1363
C57_15 C 0.12102(19) 0.8255(2) 0.15073(14)
H35_15 H 0.1223 0.8398 0.1338
C58_15 C 0.14415(17) 0.8407(2) 0.17346(14)
C59_15 C 0.1435(2) 0.8176(2) 0.19693(15)
H36_15 H 0.1609 0.8246 0.2117
C60_15 C 0.1201(2) 0.7832(2) 0.19946(15)
H37_15 H 0.1195 0.7689 0.2163
C61_15 C 0.1636(2) 0.8818(2) 0.17101(13)
C62_15 C 0.1446(2) 0.9139(2) 0.15730(13)
H38_15 H 0.1202 0.9086 0.1476
C63_15 C 0.1606(2) 0.9522(2) 0.15697(14)
C64_15 C 0.1983(2) 0.9613(2) 0.16923(13)
H39_15 H 0.2101 0.9873 0.1675
C65_15 C 0.2178(2) 0.9302(2) 0.18345(15)
C66_15 C 0.20101(19) 0.8898(2) 0.18350(14)
H40_15 H 0.2154 0.8684 0.1920
C67_15 C 0.25814(19) 0.9381(2) 0.19911(13)
C68_15 C 0.29337(19) 0.9500(3) 0.18502(15)
H41_15 H 0.2943 0.9533 0.1657
C69_15 C 0.3260(2) 0.9616(3) 0.20222(13)
H42_15 H 0.3502 0.9690 0.1931
C71_15 C 0.29365(18) 0.9443(2) 0.24334(14)
H43_15 H 0.2937 0.9407 0.2627
C72_15 C 0.2578(2) 0.9354(3) 0.22817(13)
H44_15 H 0.2342 0.9268 0.2376
C74_15 C 0.1357(2) 0.9847(2) 0.14305(15)
C75_15 C 0.0940(3) 0.9833(2) 0.14211(14)
H45_15 H 0.0808 0.9613 0.1508
C82_8 C 0.1263(2) 0.5979(2) 0.18963(13)
O4_15 O 0.09235(13) 0.55610(12) 0.82712(8)
C8_15 C 0.04492(19) 0.6909(2) 0.98233(12)
C9_15 C 0.0558(2) 0.7319(2) 0.97848(13)
H8_15 H 0.0560 0.7501 0.9936
C10_15 C 0.0662(2) 0.74533(19) 0.95188(14)
C11_15 C 0.0671(2) 0.7160(2) 0.92967(13)
H9_15 H 0.0759 0.7247 0.9121
C12_15 C 0.0557(2) 0.6753(2) 0.93315(13)
C13_15 C 0.0439(2) 0.66352(19) 0.96028(13)
H10_15 H 0.0361 0.6364 0.9636
C14_15 C 0.0585(2) 0.64520(19) 0.90934(13)
C15_15 C 0.0912(3) 0.6445(2) 0.89162(15)
H11_15 H 0.1132 0.6625 0.8938
C16_15 C 0.0925(2) 0.6156(2) 0.87101(14)
H12_15 H 0.1145 0.6160 0.8586
C17_15 C 0.0605(2) 0.5863(2) 0.86730(13)
C18_15 C 0.0280(2) 0.5894(2) 0.88468(14)
H13_15 H 0.0071 0.5700 0.8831
C19_15 C 0.0249(2) 0.6189(2) 0.90481(14)
H14_15 H 0.0011 0.6215 0.9155
C20_15 C 0.0634(2) 0.5540(2) 0.84484(13)
C21_15 C 0.0766(2) 0.7874(2) 0.94694(12)
C22_15 C 0.0954(3) 0.8108(2) 0.96744(14)
H15_15 H 0.1013 0.7979 0.9844
C23_15 C 0.1050(3) 0.8525(2) 0.96443(15)
H16_15 H 0.1181 0.8663 0.9789
C25_15 C 0.0792(2) 0.8499(2) 0.91880(14)
H17_15 H 0.0748 0.8627 0.9016
C26_15 C 0.0678(2) 0.8089(2) 0.92252(14)
H18_15 H 0.0542 0.7951 0.9081
O7_15 O 0.88991(14) 0.68843(14) 0.17714(10)
O17_15 O 0.99065(11) 0.65703(10) 0.17368(7)
H2_15 H 0.9900 0.6791 0.1641
C3_15 C 0.9982(2) 0.69373(19) 0.05499(12)
H4_15 H 0.9821 0.7116 0.0656
H5_15 H 0.9923 0.7248 0.0199
C28_15 C 0.9034(2) 0.7216(2) 0.16757(14)
C29_15 C 0.87275(12) 0.75537(12) 0.16287(9)
C30_15 C 0.83083(14) 0.74792(10) 0.16589(9)
H19_15 H 0.8217 0.7226 0.1725
C31_15 C 0.80249(10) 0.77836(14) 0.15898(10)
H20_15 H 0.7744 0.7734 0.1610
C32_15 C 0.81607(12) 0.81625(12) 0.14906(9)
C33_15 C 0.85799(13) 0.82370(10) 0.14604(8)
H21_15 H 0.8671 0.8491 0.1394
C34_15 C 0.88633(10) 0.79326(13) 0.15295(9)
H22_15 H 0.9144 0.7982 0.1509
C35_15 C 0.78599(17) 0.84693(19) 0.13656(13)
C36_15 C 0.7494(2) 0.85582(19) 0.14862(13)
H23_15 H 0.7428 0.8441 0.1659
C37_15 C 0.7216(2) 0.8832(2) 0.13578(14)
C38_15 C 0.7338(2) 0.8994(2) 0.10993(16)
H24_15 H 0.7158 0.9176 0.1012
C39_15 C 0.7704(2) 0.89098(19) 0.09679(14)
C40_15 C 0.7957(2) 0.86469(19) 0.11071(14)
H25_15 H 0.8216 0.8592 0.1032
C41_15 C 0.78241(18) 0.9092(2) 0.07086(13)
C42_15 C 0.7739(2) 0.9477(2) 0.06276(14)
H26_15 H 0.7576 0.9639 0.0744
C43_15 C 0.7873(2) 0.9643(2) 0.03814(16)
H27_15 H 0.7816 0.9918 0.0343
C44_15 C 0.8096(2) 0.9411(2) 0.01859(15)
C45_15 C 0.8189(2) 0.9008(2) 0.02606(17)
H28_15 H 0.8338 0.8840 0.0140
C46_15 C 0.8060(3) 0.8853(2) 0.05268(16)
H29_15 H 0.8122 0.8582 0.0576
C47_15 C 0.6809(2) 0.8939(2) 0.14843(15)
C48_15 C 0.6556(2) 0.8650(2) 0.15912(15)
H30_15 H 0.6628 0.8373 0.1580
C49_15 C 0.6172(2) 0.8759(2) 0.17034(14)
H31_15 H 0.6006 0.8554 0.1778
C51_15 C 0.62983(19) 0.94402(19) 0.16076(14)
H32_15 H 0.6215 0.9714 0.1621
C52_15 C 0.6666(2) 0.9350(2) 0.14898(15)
H33_15 H 0.6822 0.9562 0.1413
H3_15 H 0.9721 0.4476 0.7823
O1_16 O 0.38196(14) 0.52619(16) 0.35778(9)
O4_16 O 0.44390(12) 0.59235(13) 0.07712(8)
O7_16 O 0.31157(14) 0.38991(14) 0.42714(10)
O11_16 O 0.28445(13) 0.56742(13) 0.45271(11)
O17_16 O 0.34297(10) 0.49065(11) 0.42368(7)
H2_16 H 0.3209 0.4900 0.4141
H3_16 H 0.5524 0.4721 0.0323
C1_16 C 0.3482(3) 0.5079(2) 0.34841(12)
C2_16 C 0.34013(19) 0.51393(18) 0.31713(11)
C3_16 C 0.30627(19) 0.4982(2) 0.30499(12)
H4_16 H 0.2884 0.4821 0.3156
C4_16 C 0.29783(19) 0.5054(2) 0.27793(12)
H5_16 H 0.2752 0.4923 0.2699
C5_16 C 0.32147(19) 0.5314(2) 0.26126(13)
C6_16 C 0.3580(2) 0.5477(2) 0.27415(14)
H6_16 H 0.3760 0.5640 0.2639
C7_16 C 0.3657(2) 0.5391(2) 0.30108(14)
H7_16 H 0.3890 0.5504 0.3094
C8_16 C 0.3091(2) 0.54492(19) 0.23233(12)
C9_16 C 0.2681(2) 0.5558(2) 0.22848(13)
H8_16 H 0.2499 0.5560 0.2436
C10_16 C 0.25467(19) 0.5662(2) 0.20188(14)
C11_16 C 0.2840(2) 0.5671(2) 0.17967(13)
H9_16 H 0.2753 0.5759 0.1621
C12_16 C 0.3247(2) 0.5557(2) 0.18315(13)
C13_16 C 0.33648(19) 0.5439(2) 0.21028(13)
H10_16 H 0.3636 0.5361 0.2136
C14_16 C 0.35480(19) 0.5585(2) 0.15934(13)
C15_16 C 0.3555(2) 0.5912(3) 0.14162(15)
H11_16 H 0.3375 0.6132 0.1438
C16_16 C 0.3844(2) 0.5925(2) 0.12101(14)
H12_16 H 0.3840 0.6145 0.1086
C17_16 C 0.4137(2) 0.5605(2) 0.11730(13)
C18_16 C 0.4106(2) 0.5280(2) 0.13468(14)
H13_16 H 0.4300 0.5071 0.1331
C19_16 C 0.3811(2) 0.5249(2) 0.15481(14)
H14_16 H 0.3785 0.5011 0.1655
C20_16 C 0.4460(2) 0.5634(2) 0.09484(13)
C21_16 C 0.2126(2) 0.5766(2) 0.19694(12)
C22_16 C 0.1892(2) 0.5954(3) 0.21744(14)
H15_16 H 0.2021 0.6013 0.2344
C23_16 C 0.1475(2) 0.6050(3) 0.21443(15)
H16_16 H 0.1337 0.6181 0.2289
C25_16 C 0.1501(2) 0.5792(2) 0.16880(14)
H17_16 H 0.1373 0.5748 0.1516
C26_16 C 0.1911(2) 0.5678(2) 0.17252(14)
H18_16 H 0.2049 0.5542 0.1581
C28_16 C 0.2784(2) 0.4034(2) 0.41757(14)
C29_16 C 0.24463(12) 0.37275(12) 0.41287(9)
C30_16 C 0.25208(10) 0.33083(14) 0.41589(9)
H19_16 H 0.2774 0.3217 0.4225
C31_16 C 0.22164(14) 0.30249(10) 0.40898(10)
H20_16 H 0.2266 0.2744 0.4110
C32_16 C 0.18375(12) 0.31607(12) 0.39906(9)
C33_16 C 0.17630(10) 0.35799(13) 0.39604(8)
H21_16 H 0.1509 0.3671 0.3894
C34_16 C 0.20674(13) 0.38633(10) 0.40295(9)
H22_16 H 0.2018 0.4144 0.4009
C35_16 C 0.15307(19) 0.28599(17) 0.38656(13)
C36_16 C 0.14418(19) 0.2494(2) 0.39862(13)
H23_16 H 0.1559 0.2428 0.4159
C37_16 C 0.1168(2) 0.2216(2) 0.38578(14)
C38_16 C 0.1006(2) 0.2338(2) 0.35993(16)
H24_16 H 0.0824 0.2158 0.3512
C39_16 C 0.10902(19) 0.2704(2) 0.34679(14)
C40_16 C 0.13531(19) 0.2957(2) 0.36071(14)
H25_16 H 0.1408 0.3216 0.3532
C41_16 C 0.0908(2) 0.28241(18) 0.32086(13)
C42_16 C 0.0523(2) 0.2739(2) 0.31276(14)
H26_16 H 0.0361 0.2576 0.3244
C43_16 C 0.0357(2) 0.2873(2) 0.28814(16)
H27_16 H 0.0082 0.2816 0.2843
C44_16 C 0.0589(2) 0.3096(2) 0.26859(15)
C45_16 C 0.0992(2) 0.3189(2) 0.27606(17)
H28_16 H 0.1160 0.3338 0.2640
C46_16 C 0.1147(2) 0.3060(3) 0.30268(16)
H29_16 H 0.1418 0.3122 0.3076
C47_16 C 0.1061(2) 0.1809(2) 0.39843(15)
C48_16 C 0.1350(2) 0.1556(2) 0.40912(15)
H30_16 H 0.1627 0.1628 0.4080
C49_16 C 0.1241(2) 0.1172(2) 0.42034(14)
H31_16 H 0.1446 0.1006 0.4278
C51_16 C 0.05598(19) 0.12983(19) 0.41076(14)
H32_16 H 0.0286 0.1215 0.4121
C52_16 C 0.0650(2) 0.1666(2) 0.39898(15)
H33_16 H 0.0438 0.1822 0.3913
C55_16 C 0.23008(18) 0.59523(19) 0.42637(16)
C56_16 C 0.20928(19) 0.59591(19) 0.40170(14)
H34_16 H 0.2183 0.5808 0.3863
C57_16 C 0.1745(2) 0.62102(19) 0.40073(14)
H35_16 H 0.1602 0.6223 0.3838
C58_16 C 0.1593(2) 0.64415(17) 0.42346(14)
C59_16 C 0.1824(2) 0.6435(2) 0.44693(15)
H36_16 H 0.1754 0.6609 0.4617
C60_16 C 0.2168(2) 0.6201(2) 0.44946(15)
H37_16 H 0.2311 0.6195 0.4663
C61_16 C 0.1182(2) 0.6636(2) 0.42101(13)
C62_16 C 0.0861(2) 0.6446(2) 0.40730(13)
H38_16 H 0.0914 0.6202 0.3976
C63_16 C 0.0478(2) 0.6606(2) 0.40697(14)
C64_16 C 0.0387(2) 0.6983(2) 0.41923(13)
H39_16 H 0.0127 0.7101 0.4175
C65_16 C 0.0698(2) 0.7178(2) 0.43345(15)
C66_16 C 0.1102(2) 0.70101(19) 0.43350(14)
H40_16 H 0.1316 0.7154 0.4420
C67_16 C 0.0619(2) 0.75814(19) 0.44911(13)
C68_16 C 0.0500(3) 0.79337(19) 0.43502(15)
H41_16 H 0.0467 0.7943 0.4157
C69_16 C 0.0384(3) 0.8260(2) 0.45222(13)
H42_16 H 0.0310 0.8502 0.4431
C71_16 C 0.0557(2) 0.79365(18) 0.49334(14)
H43_16 H 0.0593 0.7937 0.5127
C72_16 C 0.0646(3) 0.7578(2) 0.47817(13)
H44_16 H 0.0732 0.7342 0.4876
C74_16 C 0.0153(2) 0.6357(2) 0.39305(15)
C75_16 C 0.0167(2) 0.5940(3) 0.39211(14)
H45_16 H 0.0387 0.5808 0.4008
C76_16 C 0.9852(3) 0.5698(2) 0.37885(17)
H46_16 H 0.9867 0.5412 0.3794
C78_16 C 0.9518(2) 0.6314(2) 0.36311(18)
H47_16 H 0.9305 0.6450 0.3539
C79_16 C 0.9840(3) 0.6548(2) 0.37765(17)
H48_16 H 0.9838 0.6833 0.3762
loop_
_geom_bond_atom_site_label_1
_geom_bond_atom_site_label_2
_geom_bond_site_symmetry_1
_geom_bond_site_symmetry_2
Zn2 O7 1_555 1_555
Na1 O2 1_555 1_555
O7 C28 1_555 1_555
O8 Na1 1_555 1_555
O15 Zn2 1_555 1_555
H2 O17 1_555 1_555
C3 H4 1_555 1_555
C28 O8 1_555 1_555
C29 C28 1_555 1_555
C30 C29 1_555 1_555
H19 C30 1_555 1_555
C31 C30 1_555 1_555
H20 C31 1_555 1_555
C32 C31 1_555 1_555
C33 C32 1_555 1_555
H21 C33 1_555 1_555
C34 C29 1_555 1_555
H22 C34 1_555 1_555
C35 C32 1_555 1_555
C36 C35 1_555 1_555
H23 C36 1_555 1_555
C37 C36 1_555 1_555
C38 C37 1_555 1_555
H24 C38 1_555 1_555
C39 C38 1_555 1_555
C40 C35 1_555 1_555
H25 C40 1_555 1_555
C41 C39 1_555 1_555
C42 C41 1_555 1_555
H26 C42 1_555 1_555
C43 C42 1_555 1_555
H27 C43 1_555 1_555
C44 C43 1_555 1_555
C45 C44 1_555 1_555
H28 C45 1_555 1_555
C46 C41 1_555 1_555
H29 C46 1_555 1_555
C47 C37 1_555 1_555
C48 C47 1_555 1_555
H30 C48 1_555 1_555
C49 C48 1_555 1_555
H31 C49 1_555 1_555
C50 C49 1_555 1_555
C51 C50 1_555 1_555
H32 C51 1_555 1_555
C52 C47 1_555 1_555
H33 C52 1_555 1_555
C80 O15 1_555 1_555
O21 Zn2 1_555 1_555
C81 C44 1_555 1_555
Zn9 O40 1_555 1_555
Zn11 O39 1_555 1_555
Zn13 O29 1_555 1_555
Zn16 O27 1_555 1_555
O22 Na1 1_555 1_555
O26 Na1 1_555 1_555
O27 C85 1_555 1_555
O28 Zn4 1_555 1_555
O29 C85 1_555 1_555
O38 Zn6 1_555 1_555
C85 C50 1_555 1_555
C89 C80 1_555 1_555
O39 C81 1_555 1_555
O40 C81 1_555 1_555
C91 O20 1_555 1_555
Zn2 O17 1_555 1_555
O16 C80 1_555 1_555
C33 C34 1_555 1_555
C39 C40 1_555 1_555
C45 C46 1_555 1_555
C51 C52 1_555 1_555
O21 C91 1_555 1_555
Zn6_2 O18 1_555 1_555
O18 Zn4_2 1_555 1_555
H3 O18 1_555 1_555
Zn14 O18 1_555 1_555
O23 Zn4_2 1_555 1_555
O36 Zn6_2 1_555 1_555
Zn1 O1 1_555 1_555
Zn3 O5 1_555 1_555
Zn4_3 O3 1_555 1_555
Zn5 O4 1_555 1_555
O1 C1 1_555 1_555
O3 C20 1_555 1_555
O4 C20 1_555 1_555
O5 C27 1_555 1_555
O6 Zn1 1_555 1_555
O11 Zn3 1_555 1_555
O13 Zn5 1_555 1_555
O14 H1 1_555 1_555
C1 C2 1_555 1_555
C5 C4 1_555 1_555
C6 C5 1_555 1_555
H6 C6 1_555 1_555
C7 C2 1_555 1_555
H7 C7 1_555 1_555
C8 C5 1_555 1_555
C9 C8 1_555 1_555
H8 C9 1_555 1_555
C10 C9 1_555 1_555
C11 C10 1_555 1_555
H9 C11 1_555 1_555
C12 C11 1_555 1_555
C13 C8 1_555 1_555
H10 C13 1_555 1_555
C14 C12 1_555 1_555
C15 C14 1_555 1_555
H11 C15 1_555 1_555
C16 C15 1_555 1_555
H12 C16 1_555 1_555
C17 C16 1_555 1_555
C18 C17 1_555 1_555
H13 C18 1_555 1_555
C19 C14 1_555 1_555
H14 C19 1_555 1_555
C20 C17 1_555 1_555
C21 C10 1_555 1_555
C22 C21 1_555 1_555
H15 C22 1_555 1_555
C23 C22 1_555 1_555
H16 C23 1_555 1_555
C24 C23 1_555 1_555
C25 C24 1_555 1_555
H17 C25 1_555 1_555
C26 C21 1_555 1_555
H18 C26 1_555 1_555
C27 O6 1_555 1_555
C54 O11 1_555 1_555
C55 C54 1_555 1_555
C56 C55 1_555 1_555
H34 C56 1_555 1_555
C57 C56 1_555 1_555
H35 C57 1_555 1_555
C58 C57 1_555 1_555
C59 C58 1_555 1_555
H36 C59 1_555 1_555
C60 C55 1_555 1_555
H37 C60 1_555 1_555
C61 C58 1_555 1_555
C62 C61 1_555 1_555
H38 C62 1_555 1_555
C63 C62 1_555 1_555
C64 C63 1_555 1_555
H39 C64 1_555 1_555
C65 C64 1_555 1_555
C66 C61 1_555 1_555
H40 C66 1_555 1_555
C67 C65 1_555 1_555
C68 C67 1_555 1_555
H41 C68 1_555 1_555
C69 C68 1_555 1_555
H42 C69 1_555 1_555
C70 C69 1_555 1_555
C71 C70 1_555 1_555
C72 C67 1_555 1_555
H44 C72 1_555 1_555
C73 O13 1_555 1_555
C74 C63 1_555 1_555
C75 C74 1_555 1_555
H45 C75 1_555 1_555
C76 C75 1_555 1_555
H46 C76 1_555 1_555
C77 C76 1_555 1_555
C78 C77 1_555 1_555
H47 C78 1_555 1_555
C79 C74 1_555 1_555
H48 C79 1_555 1_555
Zn8 O25 1_555 1_555
Zn10 O33 1_555 1_555
Zn12 O24 1_555 1_555
O24 C83 1_555 1_555
O25 C83 1_555 1_555
O32 H49 1_555 1_555
O33 C90 1_555 1_555
O34 C90 1_555 1_555
O35 Zn4_3 1_555 1_555
O37 Zn6_3 1_555 1_555
C82 C27 1_555 1_555
C83 C24 1_555 1_555
C86 O12 1_555 1_555
C87 C73 1_555 1_555
C88 C70 1_555 1_555
C90 C77 1_555 1_555
Zn5 O35 1_555 1_555
Zn6_3 O35 1_555 1_555
O14 C73 1_555 1_555
C6 C7 1_555 1_555
C12 C13 1_555 1_555
C18 C19 1_555 1_555
C25 C26 1_555 1_555
C54 O30 1_555 1_555
C59 C60 1_555 1_555
C65 C66 1_555 1_555
C71 C72 1_555 1_555
C78 C79 1_555 1_555
O32 C88 1_555 1_555
Zn15 O31 1_555 1_555
O10 Zn4_4 1_555 1_555
O19 Zn6_4 1_555 1_555
C53 O9 1_555 1_555
C84 C53 1_555 1_555
O10 C53 1_555 1_555
Zn6_5 O18_2 1_555 1_555
O10_2 Zn4_5 1_555 1_555
O18_2 Zn4_5 1_555 1_555
H3_2 O18_2 1_555 1_555
O19_2 Zn6_5 1_555 1_555
C53_2 O9_2 1_555 1_555
Zn14_2 O18_2 1_555 1_555
O23_2 Zn4_5 1_555 1_555
O36_2 Zn6_5 1_555 1_555
C84_2 C53_2 1_555 1_555
O10_2 C53_2 1_555 1_555
Zn8 O1_2 1_555 1_555
Zn2_2 O7_2 1_555 1_555
Zn4_6 O3_2 1_555 1_555
Zn5_2 O4_2 1_555 1_555
Na1_2 O2_2 1_555 1_555
O1_2 C1_2 1_555 1_555
O2_2 C1_2 1_555 1_555
O3_2 C20_2 1_555 1_555
O4_2 C20_2 1_555 1_555
O7_2 C28_2 1_555 1_555
O8_2 Na1_2 1_555 1_555
O11_2 Zn12 1_555 1_555
O12_2 Na1_2 1_555 1_555
O13_2 Zn5_2 1_555 1_555
O14_2 H1_2 1_555 1_555
O15_2 Zn2_2 1_555 1_555
O16_2 Zn8 1_555 1_555
O17_2 Zn8 1_555 1_555
H2_2 O17_2 1_555 1_555
C1_2 C2_2 1_555 1_555
C2_2 C3_2 1_555 1_555
C3_2 H4_2 1_555 1_555
C4_2 C3_2 1_555 1_555
H5_2 C4_2 1_555 1_555
C5_2 C4_2 1_555 1_555
C6_2 C5_2 1_555 1_555
H6_2 C6_2 1_555 1_555
C7_2 C2_2 1_555 1_555
H7_2 C7_2 1_555 1_555
C8_2 C5_2 1_555 1_555
C9_2 C8_2 1_555 1_555
H8_2 C9_2 1_555 1_555
C10_2 C9_2 1_555 1_555
C11_2 C10_2 1_555 1_555
H9_2 C11_2 1_555 1_555
C12_2 C11_2 1_555 1_555
C13_2 C8_2 1_555 1_555
H10_2 C13_2 1_555 1_555
C14_2 C12_2 1_555 1_555
C15_2 C14_2 1_555 1_555
H11_2 C15_2 1_555 1_555
C16_2 C15_2 1_555 1_555
H12_2 C16_2 1_555 1_555
C17_2 C16_2 1_555 1_555
C18_2 C17_2 1_555 1_555
H13_2 C18_2 1_555 1_555
C19_2 C14_2 1_555 1_555
H14_2 C19_2 1_555 1_555
C20_2 C17_2 1_555 1_555
C21_2 C10_2 1_555 1_555
C22_2 C21_2 1_555 1_555
H15_2 C22_2 1_555 1_555
C23_2 C22_2 1_555 1_555
H16_2 C23_2 1_555 1_555
C24_2 C23_2 1_555 1_555
C25_2 C24_2 1_555 1_555
H17_2 C25_2 1_555 1_555
C26_2 C21_2 1_555 1_555
H18_2 C26_2 1_555 1_555
C28_2 O8_2 1_555 1_555
C29_2 C28_2 1_555 1_555
C30_2 C29_2 1_555 1_555
H19_2 C30_2 1_555 1_555
C31_2 C30_2 1_555 1_555
H20_2 C31_2 1_555 1_555
C32_2 C31_2 1_555 1_555
C33_2 C32_2 1_555 1_555
H21_2 C33_2 1_555 1_555
C34_2 C29_2 1_555 1_555
H22_2 C34_2 1_555 1_555
C35_2 C32_2 1_555 1_555
C36_2 C35_2 1_555 1_555
H23_2 C36_2 1_555 1_555
C37_2 C36_2 1_555 1_555
C38_2 C37_2 1_555 1_555
H24_2 C38_2 1_555 1_555
C39_2 C38_2 1_555 1_555
C40_2 C35_2 1_555 1_555
H25_2 C40_2 1_555 1_555
C41_2 C39_2 1_555 1_555
C42_2 C41_2 1_555 1_555
H26_2 C42_2 1_555 1_555
C43_2 C42_2 1_555 1_555
H27_2 C43_2 1_555 1_555
C44_2 C43_2 1_555 1_555
C45_2 C44_2 1_555 1_555
H28_2 C45_2 1_555 1_555
C46_2 C41_2 1_555 1_555
H29_2 C46_2 1_555 1_555
C47_2 C37_2 1_555 1_555
C48_2 C47_2 1_555 1_555
H30_2 C48_2 1_555 1_555
C49_2 C48_2 1_555 1_555
H31_2 C49_2 1_555 1_555
C50_2 C49_2 1_555 1_555
C51_2 C50_2 1_555 1_555
H32_2 C51_2 1_555 1_555
C52_2 C47_2 1_555 1_555
H33_2 C52_2 1_555 1_555
C54_2 O11_2 1_555 1_555
C55_2 C54_2 1_555 1_555
C56_2 C55_2 1_555 1_555
H34_2 C56_2 1_555 1_555
C57_2 C56_2 1_555 1_555
H35_2 C57_2 1_555 1_555
C58_2 C57_2 1_555 1_555
C59_2 C58_2 1_555 1_555
H36_2 C59_2 1_555 1_555
C60_2 C55_2 1_555 1_555
H37_2 C60_2 1_555 1_555
C61_2 C58_2 1_555 1_555
C62_2 C61_2 1_555 1_555
H38_2 C62_2 1_555 1_555
C63_2 C62_2 1_555 1_555
C64_2 C63_2 1_555 1_555
H39_2 C64_2 1_555 1_555
C65_2 C64_2 1_555 1_555
C66_2 C61_2 1_555 1_555
H40_2 C66_2 1_555 1_555
C67_2 C65_2 1_555 1_555
C68_2 C67_2 1_555 1_555
H41_2 C68_2 1_555 1_555
C69_2 C68_2 1_555 1_555
H42_2 C69_2 1_555 1_555
C70_2 C69_2 1_555 1_555
C71_2 C70_2 1_555 1_555
H43_2 C71_2 1_555 1_555
C72_2 C67_2 1_555 1_555
H44_2 C72_2 1_555 1_555
C73_2 O13_2 1_555 1_555
C74_2 C63_2 1_555 1_555
C75_2 C74_2 1_555 1_555
H45_2 C75_2 1_555 1_555
C76_2 C75_2 1_555 1_555
H46_2 C76_2 1_555 1_555
C77_2 C76_2 1_555 1_555
C78_2 C77_2 1_555 1_555
H47_2 C78_2 1_555 1_555
C79_2 C74_2 1_555 1_555
H48_2 C79_2 1_555 1_555
C80_2 O15_2 1_555 1_555
O20_2 Zn12 1_555 1_555
O21_2 Zn2_2 1_555 1_555
C81_2 C44_2 1_555 1_555
Zn7_2 O34_2 1_555 1_555
Zn8_2 O25_2 1_555 1_555
Zn9_2 O40_2 1_555 1_555
Zn10_2 O33_2 1_555 1_555
Zn11_2 O39_2 1_555 1_555
Zn12_2 O24_2 1_555 1_555
Zn13_3 O29_2 1_555 1_555
Zn15_2 O31_2 1_555 1_555
O22_2 Na1_2 1_555 1_555
O24_2 C83_2 1_555 1_555
O25_2 C83_2 1_555 1_555
O26_2 Na1_2 1_555 1_555
O27_2 C85_2 1_555 1_555
O28_2 Zn4_6 1_555 1_555
O29_2 C85_2 1_555 1_555
O30_2 Na1_2 1_555 1_555
O31_2 C88_2 1_555 1_555
O32_2 H49_2 1_555 1_555
O33_2 C90_2 1_555 1_555
O34_2 C90_2 1_555 1_555
O35_2 Zn4_6 1_555 1_555
O37_2 Zn6_6 1_555 1_555
O38_2 Zn6_6 1_555 1_555
C83_2 C24_2 1_555 1_555
C85_2 C50_2 1_555 1_555
C86_2 O12_2 1_555 1_555
C87_2 C73_2 1_555 1_555
C88_2 C70_2 1_555 1_555
C89_2 C80_2 1_555 1_555
C90_2 C77_2 1_555 1_555
O39_2 C81_2 1_555 1_555
O40_2 C81_2 1_555 1_555
C91_2 O20_2 1_555 1_555
Zn2_2 O17_2 1_555 1_555
Zn12 O17_2 1_555 1_555
Zn5_2 O35_2 1_555 1_555
Zn6_6 O35_2 1_555 1_555
O14_2 C73_2 1_555 1_555
O16_2 C80_2 1_555 1_555
C6_2 C7_2 1_555 1_555
C12_2 C13_2 1_555 1_555
C18_2 C19_2 1_555 1_555
C25_2 C26_2 1_555 1_555
C33_2 C34_2 1_555 1_555
C39_2 C40_2 1_555 1_555
C45_2 C46_2 1_555 1_555
C51_2 C52_2 1_555 1_555
C54_2 O30_2 1_555 1_555
C59_2 C60_2 1_555 1_555
C65_2 C66_2 1_555 1_555
C71_2 C72_2 1_555 1_555
C78_2 C79_2 1_555 1_555
O21_2 C91_2 1_555 1_555
O32_2 C88_2 1_555 1_555
O19_3 Zn6_7 1_555 1_555
O36_3 Zn6_7 1_555 1_555
O37_3 Zn6_7 1_555 1_555
O38_3 Zn6_7 1_555 1_555
Zn8_2 O1_3 1_555 1_555
Zn2_3 O7_3 1_555 1_555
Zn4_7 O3_3 1_555 1_555
Zn15 O4_3 1_555 1_555
Zn6_8 O18_3 1_555 1_555
Na1_3 O2_3 1_555 1_555
O1_3 C1_3 1_555 1_555
O2_3 C1_3 1_555 1_555
O3_3 C20_3 1_555 1_555
O4_3 C20_3 1_555 1_555
O7_3 C28_3 1_555 1_555
O8_3 Na1_3 1_555 1_555
O9_3 Zn15 1_555 1_555
O10_3 Zn4_7 1_555 1_555
O11_3 Zn12_2 1_555 1_555
O12_3 Na1_3 1_555 1_555
O15_3 Zn2_3 1_555 1_555
O16_3 Zn8_2 1_555 1_555
O17_3 Zn8_2 1_555 1_555
H2_3 O17_3 1_555 1_555
O18_3 Zn4_7 1_555 1_555
H3_3 O18_3 1_555 1_555
O19_4 Zn6_8 1_555 1_555
C1_3 C2_3 1_555 1_555
C2_3 C3_3 1_555 1_555
C3_3 H4_3 1_555 1_555
C4_3 C3_3 1_555 1_555
H5_3 C4_3 1_555 1_555
C5_3 C4_3 1_555 1_555
C6_3 C5_3 1_555 1_555
H6_3 C6_3 1_555 1_555
C7_3 C2_3 1_555 1_555
H7_3 C7_3 1_555 1_555
C8_3 C5_3 1_555 1_555
C9_3 C8_3 1_555 1_555
H8_3 C9_3 1_555 1_555
C10_3 C9_3 1_555 1_555
C11_3 C10_3 1_555 1_555
H9_3 C11_3 1_555 1_555
C12_3 C11_3 1_555 1_555
C13_3 C8_3 1_555 1_555
H10_3 C13_3 1_555 1_555
C14_3 C12_3 1_555 1_555
C15_3 C14_3 1_555 1_555
H11_3 C15_3 1_555 1_555
C16_3 C15_3 1_555 1_555
H12_3 C16_3 1_555 1_555
C17_3 C16_3 1_555 1_555
C18_3 C17_3 1_555 1_555
H13_3 C18_3 1_555 1_555
C19_3 C14_3 1_555 1_555
H14_3 C19_3 1_555 1_555
C20_3 C17_3 1_555 1_555
C21_3 C10_3 1_555 1_555
C22_3 C21_3 1_555 1_555
H15_3 C22_3 1_555 1_555
C23_3 C22_3 1_555 1_555
H16_3 C23_3 1_555 1_555
C24_3 C23_3 1_555 1_555
C25_3 C24_3 1_555 1_555
H17_3 C25_3 1_555 1_555
C26_3 C21_3 1_555 1_555
H18_3 C26_3 1_555 1_555
C28_3 O8_3 1_555 1_555
C29_3 C28_3 1_555 1_555
C30_3 C29_3 1_555 1_555
H19_3 C30_3 1_555 1_555
C31_3 C30_3 1_555 1_555
H20_3 C31_3 1_555 1_555
C32_3 C31_3 1_555 1_555
C33_3 C32_3 1_555 1_555
H21_3 C33_3 1_555 1_555
C34_3 C29_3 1_555 1_555
H22_3 C34_3 1_555 1_555
C35_3 C32_3 1_555 1_555
C36_3 C35_3 1_555 1_555
H23_3 C36_3 1_555 1_555
C37_3 C36_3 1_555 1_555
C38_3 C37_3 1_555 1_555
H24_3 C38_3 1_555 1_555
C39_3 C38_3 1_555 1_555
C40_3 C35_3 1_555 1_555
H25_3 C40_3 1_555 1_555
C41_3 C39_3 1_555 1_555
C42_3 C41_3 1_555 1_555
H26_3 C42_3 1_555 1_555
C43_3 C42_3 1_555 1_555
H27_3 C43_3 1_555 1_555
C44_3 C43_3 1_555 1_555
C45_3 C44_3 1_555 1_555
H28_3 C45_3 1_555 1_555
C46_3 C41_3 1_555 1_555
H29_3 C46_3 1_555 1_555
C47_3 C37_3 1_555 1_555
C48_3 C47_3 1_555 1_555
H30_3 C48_3 1_555 1_555
C49_3 C48_3 1_555 1_555
H31_3 C49_3 1_555 1_555
C50_3 C49_3 1_555 1_555
C51_3 C50_3 1_555 1_555
H32_3 C51_3 1_555 1_555
C52_3 C47_3 1_555 1_555
H33_3 C52_3 1_555 1_555
C53_3 O9_3 1_555 1_555
C54_3 O11_3 1_555 1_555
C55_3 C54_3 1_555 1_555
C56_3 C55_3 1_555 1_555
H34_3 C56_3 1_555 1_555
C57_3 C56_3 1_555 1_555
H35_3 C57_3 1_555 1_555
C58_3 C57_3 1_555 1_555
C59_3 C58_3 1_555 1_555
H36_3 C59_3 1_555 1_555
C60_3 C55_3 1_555 1_555
H37_3 C60_3 1_555 1_555
C61_3 C58_3 1_555 1_555
C62_3 C61_3 1_555 1_555
H38_3 C62_3 1_555 1_555
C63_3 C62_3 1_555 1_555
C64_3 C63_3 1_555 1_555
H39_3 C64_3 1_555 1_555
C65_3 C64_3 1_555 1_555
C66_3 C61_3 1_555 1_555
H40_3 C66_3 1_555 1_555
C67_3 C65_3 1_555 1_555
C68_3 C67_3 1_555 1_555
H41_3 C68_3 1_555 1_555
C69_3 C68_3 1_555 1_555
H42_3 C69_3 1_555 1_555
C87 C69_3 1_555 1_555
C71_3 C87 1_555 1_555
H43_3 C71_3 1_555 1_555
C72_3 C67_3 1_555 1_555
H44_3 C72_3 1_555 1_555
C74_3 C63_3 1_555 1_555
C75_3 C74_3 1_555 1_555
H45_3 C75_3 1_555 1_555
C80_3 O15_3 1_555 1_555
O20_3 Zn12_2 1_555 1_555
O21_3 Zn2_3 1_555 1_555
C81_3 C44_3 1_555 1_555
Zn8_3 O25_3 1_555 1_555
Zn9_3 O40_3 1_555 1_555
Zn12_3 O24_3 1_555 1_555
Zn13_4 O29_3 1_555 1_555
Zn14_3 O18_3 1_555 1_555
O22_3 Na1_3 1_555 1_555
O23_3 Zn4_7 1_555 1_555
O24_3 C83_3 1_555 1_555
O25_3 C83_3 1_555 1_555
O26_3 Na1_3 1_555 1_555
O27_3 C85_3 1_555 1_555
O28_3 Zn4_7 1_555 1_555
O29_3 C85_3 1_555 1_555
O30_3 Na1_3 1_555 1_555
O35_3 Zn4_7 1_555 1_555
O38_4 Zn6_8 1_555 1_555
C83_3 C24_3 1_555 1_555
C84_3 C53_3 1_555 1_555
C85_3 C50_3 1_555 1_555
C86_3 O12_3 1_555 1_555
C89_3 C80_3 1_555 1_555
O39_3 C81_3 1_555 1_555
O40_3 C81_3 1_555 1_555
C91_3 O20_3 1_555 1_555
Zn2_3 O17_3 1_555 1_555
Zn12_2 O17_3 1_555 1_555
Zn15 O35_3 1_555 1_555
Zn6_8 O35_3 1_555 1_555
O10_3 C53_3 1_555 1_555
O16_3 C80_3 1_555 1_555
C6_3 C7_3 1_555 1_555
C12_3 C13_3 1_555 1_555
C18_3 C19_3 1_555 1_555
C25_3 C26_3 1_555 1_555
C33_3 C34_3 1_555 1_555
C39_3 C40_3 1_555 1_555
C45_3 C46_3 1_555 1_555
C51_3 C52_3 1_555 1_555
C54_3 O30_3 1_555 1_555
C59_3 C60_3 1_555 1_555
C65_3 C66_3 1_555 1_555
C71_3 C72_3 1_555 1_555
O21_3 C91_3 1_555 1_555
H46_3 C76_3 1_555 1_555
C77_3 C76_3 1_555 1_555
C78_3 C77_3 1_555 1_555
H47_3 C78_3 1_555 1_555
H48_3 C79_3 1_555 1_555
Zn7_3 O34_3 1_555 1_555
Zn10_3 O33_3 1_555 1_555
O33_3 C90_3 1_555 1_555
O34_3 C90_3 1_555 1_555
C90_3 C77_3 1_555 1_555
C78_3 C79_3 1_555 1_555
H46_4 C76_4 1_555 1_555
C77_4 C76_4 1_555 1_555
C78_4 C77_4 1_555 1_555
H47_4 C78_4 1_555 1_555
H48_4 C79_4 1_555 1_555
Zn10_4 O33_4 1_555 1_555
O33_4 C90_4 1_555 1_555
O34_4 C90_4 1_555 1_555
C90_4 C77_4 1_555 1_555
C78_4 C79_4 1_555 1_555
Zn4_8 O3_4 1_555 1_555
Zn15_2 O4_4 1_555 1_555
O3_4 C20_4 1_555 1_555
O4_4 C20_4 1_555 1_555
O9_4 Zn15_2 1_555 1_555
O10_4 Zn4_8 1_555 1_555
O19_5 Zn6_9 1_555 1_555
C9_4 C8_4 1_555 1_555
H8_4 C9_4 1_555 1_555
C10_4 C9_4 1_555 1_555
C11_4 C10_4 1_555 1_555
H9_4 C11_4 1_555 1_555
C12_4 C11_4 1_555 1_555
C13_4 C8_4 1_555 1_555
H10_4 C13_4 1_555 1_555
C14_4 C12_4 1_555 1_555
C15_4 C14_4 1_555 1_555
H11_4 C15_4 1_555 1_555
C16_4 C15_4 1_555 1_555
H12_4 C16_4 1_555 1_555
C17_4 C16_4 1_555 1_555
C18_4 C17_4 1_555 1_555
H13_4 C18_4 1_555 1_555
C19_4 C14_4 1_555 1_555
H14_4 C19_4 1_555 1_555
C20_4 C17_4 1_555 1_555
C21_4 C10_4 1_555 1_555
C22_4 C21_4 1_555 1_555
H15_4 C22_4 1_555 1_555
C23_4 C22_4 1_555 1_555
H16_4 C23_4 1_555 1_555
C82 C23_4 1_555 1_555
C25_4 C82 1_555 1_555
H17_4 C25_4 1_555 1_555
C26_4 C21_4 1_555 1_555
H18_4 C26_4 1_555 1_555
C53_4 O9_4 1_555 1_555
O35_4 Zn4_8 1_555 1_555
O37_4 Zn6_9 1_555 1_555
C84_4 C53_4 1_555 1_555
Zn15_2 O35_4 1_555 1_555
Zn6_9 O35_4 1_555 1_555
O10_4 C53_4 1_555 1_555
C12_4 C13_4 1_555 1_555
C18_4 C19_4 1_555 1_555
C25_4 C26_4 1_555 1_555
Zn8_3 O1_4 1_555 1_555
O1_4 C1_4 1_555 1_555
O11_4 Zn12_3 1_555 1_555
C1_4 C2_4 1_555 1_555
C5_4 C4_4 1_555 1_555
C6_4 C5_4 1_555 1_555
H6_4 C6_4 1_555 1_555
C7_4 C2_4 1_555 1_555
H7_4 C7_4 1_555 1_555
C54_4 O11_4 1_555 1_555
C55_4 C54_4 1_555 1_555
C56_4 C55_4 1_555 1_555
H34_4 C56_4 1_555 1_555
C57_4 C56_4 1_555 1_555
H35_4 C57_4 1_555 1_555
C58_4 C57_4 1_555 1_555
C59_4 C58_4 1_555 1_555
H36_4 C59_4 1_555 1_555
C60_4 C55_4 1_555 1_555
H37_4 C60_4 1_555 1_555
C61_4 C58_4 1_555 1_555
C62_4 C61_4 1_555 1_555
H38_4 C62_4 1_555 1_555
C63_4 C62_4 1_555 1_555
C64_4 C63_4 1_555 1_555
H39_4 C64_4 1_555 1_555
C65_4 C64_4 1_555 1_555
C66_4 C61_4 1_555 1_555
H40_4 C66_4 1_555 1_555
C67_4 C65_4 1_555 1_555
C68_4 C67_4 1_555 1_555
H41_4 C68_4 1_555 1_555
C69_4 C68_4 1_555 1_555
H42_4 C69_4 1_555 1_555
C87_2 C69_4 1_555 1_555
C71_4 C87_2 1_555 1_555
H43_4 C71_4 1_555 1_555
C72_4 C67_4 1_555 1_555
H44_4 C72_4 1_555 1_555
C74_4 C63_4 1_555 1_555
C75_4 C74_4 1_555 1_555
H45_4 C75_4 1_555 1_555
C86_4 O12_4 1_555 1_555
C6_4 C7_4 1_555 1_555
C54_4 O30_4 1_555 1_555
C59_4 C60_4 1_555 1_555
C65_4 C66_4 1_555 1_555
C71_4 C72_4 1_555 1_555
Zn6_10 O18_4 1_555 1_555
O18_4 Zn4_9 1_555 1_555
H3_4 O18_4 1_555 1_555
Zn9_4 O40_4 1_555 1_555
Zn14_4 O18_4 1_555 1_555
O23_4 Zn4_9 1_555 1_555
O28_4 Zn4_9 1_555 1_555
O36_4 Zn6_10 1_555 1_555
O38_5 Zn6_10 1_555 1_555
O39_4 C81_4 1_555 1_555
O40_4 C81_4 1_555 1_555
Zn2_4 O7_4 1_555 1_555
Na1_4 O2_4 1_555 1_555
O7_4 C28_4 1_555 1_555
O8_4 Na1_4 1_555 1_555
O15_4 Zn2_4 1_555 1_555
H2_4 O17_4 1_555 1_555
C3_4 H4_4 1_555 1_555
C28_4 O8_4 1_555 1_555
C29_4 C28_4 1_555 1_555
C30_4 C29_4 1_555 1_555
H19_4 C30_4 1_555 1_555
C31_4 C30_4 1_555 1_555
H20_4 C31_4 1_555 1_555
C32_4 C31_4 1_555 1_555
C33_4 C32_4 1_555 1_555
H21_4 C33_4 1_555 1_555
C34_4 C29_4 1_555 1_555
H22_4 C34_4 1_555 1_555
C35_4 C32_4 1_555 1_555
C36_4 C35_4 1_555 1_555
H23_4 C36_4 1_555 1_555
C37_4 C36_4 1_555 1_555
C38_4 C37_4 1_555 1_555
H24_4 C38_4 1_555 1_555
C39_4 C38_4 1_555 1_555
C40_4 C35_4 1_555 1_555
H25_4 C40_4 1_555 1_555
C41_4 C39_4 1_555 1_555
C42_4 C41_4 1_555 1_555
H26_4 C42_4 1_555 1_555
C43_4 C42_4 1_555 1_555
H27_4 C43_4 1_555 1_555
C44_4 C43_4 1_555 1_555
C45_4 C44_4 1_555 1_555
H28_4 C45_4 1_555 1_555
C46_4 C41_4 1_555 1_555
H29_4 C46_4 1_555 1_555
C47_4 C37_4 1_555 1_555
C48_4 C47_4 1_555 1_555
H30_4 C48_4 1_555 1_555
C49_4 C48_4 1_555 1_555
H31_4 C49_4 1_555 1_555
C50_4 C49_4 1_555 1_555
C51_4 C50_4 1_555 1_555
H32_4 C51_4 1_555 1_555
C52_4 C47_4 1_555 1_555
H33_4 C52_4 1_555 1_555
C80_4 O15_4 1_555 1_555
O21_4 Zn2_4 1_555 1_555
Zn13_9 O29_4 1_555 1_555
Zn16_4 O27_4 1_555 1_555
O22_4 Na1_4 1_555 1_555
O26_4 Na1_4 1_555 1_555
O27_4 C85_4 1_555 1_555
O29_4 C85_4 1_555 1_555
C85_4 C50_4 1_555 1_555
C89_4 C80_4 1_555 1_555
C91_4 O20_4 1_555 1_555
Zn2_4 O17_4 1_555 1_555
O16_4 C80_4 1_555 1_555
C33_4 C34_4 1_555 1_555
C39_4 C40_4 1_555 1_555
C45_4 C46_4 1_555 1_555
C51_4 C52_4 1_555 1_555
O21_4 C91_4 1_555 1_555
Zn2_5 O7_5 1_555 1_555
O7_5 C28_5 1_555 1_555
O15_5 Zn2_5 1_555 1_555
H2_5 O17_5 1_555 1_555
C3_5 H4_5 1_555 1_555
C28_5 O26 1_555 1_555
C29_5 C28_5 1_555 1_555
C30_5 C29_5 1_555 1_555
H19_5 C30_5 1_555 1_555
C31_5 C30_5 1_555 1_555
H20_5 C31_5 1_555 1_555
C32_5 C31_5 1_555 1_555
C33_5 C32_5 1_555 1_555
H21_5 C33_5 1_555 1_555
C34_5 C29_5 1_555 1_555
H22_5 C34_5 1_555 1_555
C35_5 C32_5 1_555 1_555
C36_5 C35_5 1_555 1_555
H23_5 C36_5 1_555 1_555
C37_5 C36_5 1_555 1_555
C38_5 C37_5 1_555 1_555
H24_5 C38_5 1_555 1_555
C39_5 C38_5 1_555 1_555
C40_5 C35_5 1_555 1_555
H25_5 C40_5 1_555 1_555
C41_5 C39_5 1_555 1_555
C42_5 C41_5 1_555 1_555
H26_5 C42_5 1_555 1_555
C43_5 C42_5 1_555 1_555
H27_5 C43_5 1_555 1_555
C44_5 C43_5 1_555 1_555
C45_5 C44_5 1_555 1_555
H28_5 C45_5 1_555 1_555
C46_5 C41_5 1_555 1_555
H29_5 C46_5 1_555 1_555
C47_5 C37_5 1_555 1_555
C48_5 C47_5 1_555 1_555
H30_5 C48_5 1_555 1_555
C49_5 C48_5 1_555 1_555
H31_5 C49_5 1_555 1_555
C84_4 C49_5 1_555 1_555
C51_5 C84_4 1_555 1_555
H32_5 C51_5 1_555 1_555
C52_5 C47_5 1_555 1_555
H33_5 C52_5 1_555 1_555
C80_5 O15_5 1_555 1_555
O21_5 Zn2_5 1_555 1_555
C89_5 C80_5 1_555 1_555
C91_5 O20_5 1_555 1_555
Zn2_5 O17_5 1_555 1_555
O16_5 C80_5 1_555 1_555
C33_5 C34_5 1_555 1_555
C39_5 C40_5 1_555 1_555
C45_5 C46_5 1_555 1_555
C51_5 C52_5 1_555 1_555
O21_5 C91_5 1_555 1_555
O36_2 Zn13_8 1_555 1_555
H3_5 O36_2 1_555 1_555
Zn10_4 O40_5 1_555 1_555
Zn14_5 O36_2 1_555 1_555
O23_5 Zn13_8 1_555 1_555
O28_5 Zn13_8 1_555 1_555
O39_5 C81_5 1_555 1_555
O40_5 C81_5 1_555 1_555
Zn1_2 O1_5 1_555 1_555
Zn3_2 O5_2 1_555 1_555
O1_5 C1_5 1_555 1_555
O5_2 C27_2 1_555 1_555
O6_2 Zn1_2 1_555 1_555
O11_5 Zn3_2 1_555 1_555
C1_5 C2_5 1_555 1_555
C5_5 C4_5 1_555 1_555
C6_5 C5_5 1_555 1_555
H6_5 C6_5 1_555 1_555
C7_5 C2_5 1_555 1_555
H7_5 C7_5 1_555 1_555
C27_2 O6_2 1_555 1_555
C86 O11_5 1_555 1_555
C55_5 C86 1_555 1_555
C56_5 C55_5 1_555 1_555
H34_5 C56_5 1_555 1_555
C57_5 C56_5 1_555 1_555
H35_5 C57_5 1_555 1_555
C58_5 C57_5 1_555 1_555
C59_5 C58_5 1_555 1_555
H36_5 C59_5 1_555 1_555
C60_5 C55_5 1_555 1_555
H37_5 C60_5 1_555 1_555
C61_5 C58_5 1_555 1_555
C62_5 C61_5 1_555 1_555
H38_5 C62_5 1_555 1_555
C63_5 C62_5 1_555 1_555
C64_5 C63_5 1_555 1_555
H39_5 C64_5 1_555 1_555
C65_5 C64_5 1_555 1_555
C66_5 C61_5 1_555 1_555
H40_5 C66_5 1_555 1_555
C67_5 C65_5 1_555 1_555
C68_5 C67_5 1_555 1_555
H41_5 C68_5 1_555 1_555
C69_5 C68_5 1_555 1_555
H42_5 C69_5 1_555 1_555
C70_3 C69_5 1_555 1_555
C71_5 C70_3 1_555 1_555
H43_5 C71_5 1_555 1_555
C72_5 C67_5 1_555 1_555
H44_5 C72_5 1_555 1_555
C74_5 C63_5 1_555 1_555
C75_5 C74_5 1_555 1_555
H45_5 C75_5 1_555 1_555
Zn16_2 O31_3 1_555 1_555
O31_3 C88_3 1_555 1_555
O32_3 H49_3 1_555 1_555
C82_2 C27_2 1_555 1_555
C88_3 C70_3 1_555 1_555
C6_5 C7_5 1_555 1_555
C59_5 C60_5 1_555 1_555
C65_5 C66_5 1_555 1_555
C71_5 C72_5 1_555 1_555
O32_3 C88_3 1_555 1_555
Zn13_9 O3_5 1_555 1_555
Zn16_4 O4_5 1_555 1_555
O3_5 C20_5 1_555 1_555
O4_5 C20_5 1_555 1_555
O13_3 Zn16_4 1_555 1_555
O14_3 H1_3 1_555 1_555
C9_5 C8_5 1_555 1_555
H8_5 C9_5 1_555 1_555
C10_5 C9_5 1_555 1_555
C11_5 C10_5 1_555 1_555
H9_5 C11_5 1_555 1_555
C12_5 C11_5 1_555 1_555
C13_5 C8_5 1_555 1_555
H10_5 C13_5 1_555 1_555
C14_5 C12_5 1_555 1_555
C15_5 C14_5 1_555 1_555
H11_5 C15_5 1_555 1_555
C16_5 C15_5 1_555 1_555
H12_5 C16_5 1_555 1_555
C17_5 C16_5 1_555 1_555
C18_5 C17_5 1_555 1_555
H13_5 C18_5 1_555 1_555
C19_5 C14_5 1_555 1_555
H14_5 C19_5 1_555 1_555
C20_5 C17_5 1_555 1_555
C21_5 C10_5 1_555 1_555
C22_5 C21_5 1_555 1_555
H15_5 C22_5 1_555 1_555
C23_5 C22_5 1_555 1_555
H16_5 C23_5 1_555 1_555
C24_4 C23_5 1_555 1_555
C25_5 C24_4 1_555 1_555
H17_5 C25_5 1_555 1_555
C26_5 C21_5 1_555 1_555
H18_5 C26_5 1_555 1_555
C73_3 O13_3 1_555 1_555
Zn8_4 O25_4 1_555 1_555
Zn12_4 O24_4 1_555 1_555
O24_4 C83_4 1_555 1_555
O25_4 C83_4 1_555 1_555
O37_2 Zn13_9 1_555 1_555
C83_4 C24_4 1_555 1_555
C87_3 C73_3 1_555 1_555
Zn16_4 O37_2 1_555 1_555
O14_3 C73_3 1_555 1_555
C12_5 C13_5 1_555 1_555
C18_5 C19_5 1_555 1_555
C25_5 C26_5 1_555 1_555
H46_5 C76_5 1_555 1_555
C77_5 C76_5 1_555 1_555
C78_5 C77_5 1_555 1_555
H47_5 C78_5 1_555 1_555
H48_5 C79_5 1_555 1_555
Zn9_4 O33_5 1_555 1_555
O33_5 C90_5 1_555 1_555
O34_5 C90_5 1_555 1_555
C90_5 C77_5 1_555 1_555
C78_5 C79_5 1_555 1_555
H46_6 C76_6 1_555 1_555
C77_6 C76_6 1_555 1_555
C78_6 C77_6 1_555 1_555
H47_6 C78_6 1_555 1_555
H48_6 C79_6 1_555 1_555
Zn7_6 O34_6 1_555 1_555
Zn9 O33_6 1_555 1_555
O33_6 C90_6 1_555 1_555
O34_6 C90_6 1_555 1_555
C90_6 C77_6 1_555 1_555
C78_6 C79_6 1_555 1_555
Zn1_3 O1_6 1_555 1_555
Zn2_6 O7_6 1_555 1_555
Zn3_3 O5_3 1_555 1_555
Zn13 O3_6 1_555 1_555
Zn16 O4_6 1_555 1_555
O1_6 C1_6 1_555 1_555
O22_2 C1_6 1_555 1_555
O3_6 C20_6 1_555 1_555
O4_6 C20_6 1_555 1_555
O5_3 C27_3 1_555 1_555
O6_3 Zn1_3 1_555 1_555
O7_6 C28_6 1_555 1_555
O11_6 Zn3_3 1_555 1_555
O13_4 Zn16 1_555 1_555
O15_6 Zn2_6 1_555 1_555
O16_6 Zn1_3 1_555 1_555
O17_6 Zn1_3 1_555 1_555
H2_6 O17_6 1_555 1_555
O36_3 Zn13 1_555 1_555
H3_6 O36_3 1_555 1_555
C1_6 C2_6 1_555 1_555
C2_6 C3_6 1_555 1_555
C3_6 H4_6 1_555 1_555
C4_6 C3_6 1_555 1_555
H5_6 C4_6 1_555 1_555
C5_6 C4_6 1_555 1_555
C6_6 C5_6 1_555 1_555
H6_6 C6_6 1_555 1_555
C7_6 C2_6 1_555 1_555
H7_6 C7_6 1_555 1_555
C8_6 C5_6 1_555 1_555
C9_6 C8_6 1_555 1_555
H8_6 C9_6 1_555 1_555
C10_6 C9_6 1_555 1_555
C11_6 C10_6 1_555 1_555
H9_6 C11_6 1_555 1_555
C12_6 C11_6 1_555 1_555
C13_6 C8_6 1_555 1_555
H10_6 C13_6 1_555 1_555
C14_6 C12_6 1_555 1_555
C15_6 C14_6 1_555 1_555
H11_6 C15_6 1_555 1_555
C16_6 C15_6 1_555 1_555
H12_6 C16_6 1_555 1_555
C17_6 C16_6 1_555 1_555
C18_6 C17_6 1_555 1_555
H13_6 C18_6 1_555 1_555
C19_6 C14_6 1_555 1_555
H14_6 C19_6 1_555 1_555
C20_6 C17_6 1_555 1_555
C21_6 C10_6 1_555 1_555
C22_6 C21_6 1_555 1_555
H15_6 C22_6 1_555 1_555
C23_6 C22_6 1_555 1_555
H16_6 C23_6 1_555 1_555
C82_2 C23_6 1_555 1_555
C25_6 C82_2 1_555 1_555
H17_6 C25_6 1_555 1_555
C26_6 C21_6 1_555 1_555
H18_6 C26_6 1_555 1_555
C27_3 O6_3 1_555 1_555
C28_6 O26_2 1_555 1_555
C29_6 C28_6 1_555 1_555
C30_6 C29_6 1_555 1_555
H19_6 C30_6 1_555 1_555
C31_6 C30_6 1_555 1_555
H20_6 C31_6 1_555 1_555
C32_6 C31_6 1_555 1_555
C33_6 C32_6 1_555 1_555
H21_6 C33_6 1_555 1_555
C34_6 C29_6 1_555 1_555
H22_6 C34_6 1_555 1_555
C35_6 C32_6 1_555 1_555
C36_6 C35_6 1_555 1_555
H23_6 C36_6 1_555 1_555
C37_6 C36_6 1_555 1_555
C38_6 C37_6 1_555 1_555
H24_6 C38_6 1_555 1_555
C39_6 C38_6 1_555 1_555
C40_6 C35_6 1_555 1_555
H25_6 C40_6 1_555 1_555
C41_6 C39_6 1_555 1_555
C42_6 C41_6 1_555 1_555
H26_6 C42_6 1_555 1_555
C43_6 C42_6 1_555 1_555
H27_6 C43_6 1_555 1_555
C44_6 C43_6 1_555 1_555
C45_6 C44_6 1_555 1_555
H28_6 C45_6 1_555 1_555
C46_6 C41_6 1_555 1_555
H29_6 C46_6 1_555 1_555
C47_6 C37_6 1_555 1_555
C48_6 C47_6 1_555 1_555
H30_6 C48_6 1_555 1_555
C49_6 C48_6 1_555 1_555
H31_6 C49_6 1_555 1_555
C84 C49_6 1_555 1_555
C51_6 C84 1_555 1_555
H32_6 C51_6 1_555 1_555
C52_6 C47_6 1_555 1_555
H33_6 C52_6 1_555 1_555
C86_2 O11_6 1_555 1_555
C55_6 C86_2 1_555 1_555
C56_6 C55_6 1_555 1_555
H34_6 C56_6 1_555 1_555
C57_6 C56_6 1_555 1_555
H35_6 C57_6 1_555 1_555
C58_6 C57_6 1_555 1_555
C59_6 C58_6 1_555 1_555
H36_6 C59_6 1_555 1_555
C60_6 C55_6 1_555 1_555
H37_6 C60_6 1_555 1_555
C61_6 C58_6 1_555 1_555
C62_6 C61_6 1_555 1_555
H38_6 C62_6 1_555 1_555
C63_6 C62_6 1_555 1_555
C64_6 C63_6 1_555 1_555
H39_6 C64_6 1_555 1_555
C65_6 C64_6 1_555 1_555
C66_6 C61_6 1_555 1_555
H40_6 C66_6 1_555 1_555
C67_6 C65_6 1_555 1_555
C68_6 C67_6 1_555 1_555
H41_6 C68_6 1_555 1_555
C69_6 C68_6 1_555 1_555
H42_6 C69_6 1_555 1_555
C70_4 C69_6 1_555 1_555
C71_6 C70_4 1_555 1_555
H43_6 C71_6 1_555 1_555
C72_6 C67_6 1_555 1_555
H44_6 C72_6 1_555 1_555
C74_6 C63_6 1_555 1_555
C75_6 C74_6 1_555 1_555
H45_6 C75_6 1_555 1_555
C80_6 O15_6 1_555 1_555
O20_6 Zn3_3 1_555 1_555
O21_6 Zn2_6 1_555 1_555
C81_6 C44_6 1_555 1_555
Zn10 O40_6 1_555 1_555
Zn14_6 O36_3 1_555 1_555
Zn16_3 O31_4 1_555 1_555
O23_6 Zn13 1_555 1_555
O28_6 Zn13 1_555 1_555
O31_4 C88_4 1_555 1_555
O32_4 H49_4 1_555 1_555
O37_3 Zn13 1_555 1_555
C82_3 C27_3 1_555 1_555
C88_4 C70_4 1_555 1_555
C89_6 C80_6 1_555 1_555
O39_6 C81_6 1_555 1_555
O40_6 C81_6 1_555 1_555
C91_6 O20_6 1_555 1_555
Zn2_6 O17_6 1_555 1_555
Zn3_3 O17_6 1_555 1_555
Zn16 O37_3 1_555 1_555
O16_6 C80_6 1_555 1_555
C6_6 C7_6 1_555 1_555
C12_6 C13_6 1_555 1_555
C18_6 C19_6 1_555 1_555
C25_6 C26_6 1_555 1_555
C33_6 C34_6 1_555 1_555
C39_6 C40_6 1_555 1_555
C45_6 C46_6 1_555 1_555
C51_6 C52_6 1_555 1_555
C59_6 C60_6 1_555 1_555
C65_6 C66_6 1_555 1_555
C71_6 C72_6 1_555 1_555
O21_6 C91_6 1_555 1_555
O32_4 C88_4 1_555 1_555
O14_4 H1_4 1_555 1_555
C87_4 C73_4 1_555 1_555
O14_4 C73_4 1_555 1_555
Zn1_4 O1_7 1_555 1_555
Zn2_7 O7_7 1_555 1_555
Zn3_4 O5_4 1_555 1_555
Zn13_2 O3_7 1_555 1_555
Zn16_2 O4_7 1_555 1_555
O1_7 C1_7 1_555 1_555
O22_3 C1_7 1_555 1_555
O3_7 C20_7 1_555 1_555
O4_7 C20_7 1_555 1_555
O5_4 C27_4 1_555 1_555
O6_4 Zn1_4 1_555 1_555
O7_7 C28_7 1_555 1_555
O11_7 Zn3_4 1_555 1_555
O15_7 Zn2_7 1_555 1_555
O16_7 Zn1_4 1_555 1_555
O17_7 Zn1_4 1_555 1_555
H2_7 O17_7 1_555 1_555
C1_7 C2_7 1_555 1_555
C2_7 C3_7 1_555 1_555
C3_7 H4_7 1_555 1_555
C4_7 C3_7 1_555 1_555
H5_7 C4_7 1_555 1_555
C5_7 C4_7 1_555 1_555
C6_7 C5_7 1_555 1_555
H6_7 C6_7 1_555 1_555
C7_7 C2_7 1_555 1_555
H7_7 C7_7 1_555 1_555
C8_7 C5_7 1_555 1_555
C9_7 C8_7 1_555 1_555
H8_7 C9_7 1_555 1_555
C10_7 C9_7 1_555 1_555
C11_7 C10_7 1_555 1_555
H9_7 C11_7 1_555 1_555
C12_7 C11_7 1_555 1_555
C13_7 C8_7 1_555 1_555
H10_7 C13_7 1_555 1_555
C14_7 C12_7 1_555 1_555
C15_7 C14_7 1_555 1_555
H11_7 C15_7 1_555 1_555
C16_7 C15_7 1_555 1_555
H12_7 C16_7 1_555 1_555
C17_7 C16_7 1_555 1_555
C18_7 C17_7 1_555 1_555
H13_7 C18_7 1_555 1_555
C19_7 C14_7 1_555 1_555
H14_7 C19_7 1_555 1_555
C20_7 C17_7 1_555 1_555
C21_7 C10_7 1_555 1_555
C22_7 C21_7 1_555 1_555
H15_7 C22_7 1_555 1_555
C23_7 C22_7 1_555 1_555
H16_7 C23_7 1_555 1_555
C82_3 C23_7 1_555 1_555
C25_7 C82_3 1_555 1_555
H17_7 C25_7 1_555 1_555
C26_7 C21_7 1_555 1_555
H18_7 C26_7 1_555 1_555
C27_4 O6_4 1_555 1_555
C28_7 O26_3 1_555 1_555
C29_7 C28_7 1_555 1_555
C30_7 C29_7 1_555 1_555
H19_7 C30_7 1_555 1_555
C31_7 C30_7 1_555 1_555
H20_7 C31_7 1_555 1_555
C32_7 C31_7 1_555 1_555
C33_7 C32_7 1_555 1_555
H21_7 C33_7 1_555 1_555
C34_7 C29_7 1_555 1_555
H22_7 C34_7 1_555 1_555
C35_7 C32_7 1_555 1_555
C36_7 C35_7 1_555 1_555
H23_7 C36_7 1_555 1_555
C37_7 C36_7 1_555 1_555
C38_7 C37_7 1_555 1_555
H24_7 C38_7 1_555 1_555
C39_7 C38_7 1_555 1_555
C40_7 C35_7 1_555 1_555
H25_7 C40_7 1_555 1_555
C41_7 C39_7 1_555 1_555
C42_7 C41_7 1_555 1_555
H26_7 C42_7 1_555 1_555
C43_7 C42_7 1_555 1_555
H27_7 C43_7 1_555 1_555
C44_7 C43_7 1_555 1_555
C45_7 C44_7 1_555 1_555
H28_7 C45_7 1_555 1_555
C46_7 C41_7 1_555 1_555
H29_7 C46_7 1_555 1_555
C47_7 C37_7 1_555 1_555
C48_7 C47_7 1_555 1_555
H30_7 C48_7 1_555 1_555
C49_7 C48_7 1_555 1_555
H31_7 C49_7 1_555 1_555
C84_2 C49_7 1_555 1_555
C51_7 C84_2 1_555 1_555
H32_7 C51_7 1_555 1_555
C52_7 C47_7 1_555 1_555
H33_7 C52_7 1_555 1_555
C86_3 O11_7 1_555 1_555
C55_7 C86_3 1_555 1_555
C56_7 C55_7 1_555 1_555
H34_7 C56_7 1_555 1_555
C57_7 C56_7 1_555 1_555
H35_7 C57_7 1_555 1_555
C58_7 C57_7 1_555 1_555
C59_7 C58_7 1_555 1_555
H36_7 C59_7 1_555 1_555
C60_7 C55_7 1_555 1_555
H37_7 C60_7 1_555 1_555
C61_7 C58_7 1_555 1_555
C62_7 C61_7 1_555 1_555
H38_7 C62_7 1_555 1_555
C63_7 C62_7 1_555 1_555
C64_7 C63_7 1_555 1_555
H39_7 C64_7 1_555 1_555
C65_7 C64_7 1_555 1_555
C66_7 C61_7 1_555 1_555
H40_7 C66_7 1_555 1_555
C67_7 C65_7 1_555 1_555
C68_7 C67_7 1_555 1_555
H41_7 C68_7 1_555 1_555
C69_7 C68_7 1_555 1_555
H42_7 C69_7 1_555 1_555
C87_3 C69_7 1_555 1_555
C71_7 C87_3 1_555 1_555
H43_7 C71_7 1_555 1_555
C72_7 C67_7 1_555 1_555
H44_7 C72_7 1_555 1_555
C74_7 C63_7 1_555 1_555
C75_7 C74_7 1_555 1_555
H45_7 C75_7 1_555 1_555
C76_7 C75_7 1_555 1_555
H46_7 C76_7 1_555 1_555
C77_7 C76_7 1_555 1_555
C78_7 C77_7 1_555 1_555
H47_7 C78_7 1_555 1_555
C79_7 C74_7 1_555 1_555
H48_7 C79_7 1_555 1_555
C80_7 O15_7 1_555 1_555
O20_7 Zn3_4 1_555 1_555
O21_7 Zn2_7 1_555 1_555
C81_7 C44_7 1_555 1_555
Zn7_7 O34_7 1_555 1_555
Zn10_2 O40_7 1_555 1_555
Zn9_2 O33_7 1_555 1_555
Zn11_7 O39_7 1_555 1_555
O28_7 Zn13_2 1_555 1_555
O33_7 C90_7 1_555 1_555
O34_7 C90_7 1_555 1_555
O37_4 Zn13_2 1_555 1_555
C82_4 C27_4 1_555 1_555
C89_7 C80_7 1_555 1_555
C90_7 C77_7 1_555 1_555
O39_7 C81_7 1_555 1_555
O40_7 C81_7 1_555 1_555
C91_7 O20_7 1_555 1_555
Zn2_7 O17_7 1_555 1_555
Zn3_4 O17_7 1_555 1_555
Zn16_2 O37_4 1_555 1_555
O16_7 C80_7 1_555 1_555
C6_7 C7_7 1_555 1_555
C12_7 C13_7 1_555 1_555
C18_7 C19_7 1_555 1_555
C25_7 C26_7 1_555 1_555
C33_7 C34_7 1_555 1_555
C39_7 C40_7 1_555 1_555
C45_7 C46_7 1_555 1_555
C51_7 C52_7 1_555 1_555
C59_7 C60_7 1_555 1_555
C65_7 C66_7 1_555 1_555
C71_7 C72_7 1_555 1_555
C78_7 C79_7 1_555 1_555
O21_7 C91_7 1_555 1_555
O36_4 Zn13_3 1_555 1_555
H3_7 O36_4 1_555 1_555
Zn14_7 O36_4 1_555 1_555
O23_7 Zn13_3 1_555 1_555
O36 Zn13_5 1_555 1_555
H3_8 O36 1_555 1_555
Zn14_8 O36 1_555 1_555
O23_8 Zn13_5 1_555 1_555
Zn8_4 O1_8 1_555 1_555
Zn13_6 O3_8 1_555 1_555
Zn16_3 O4_8 1_555 1_555
O1_8 C1_8 1_555 1_555
O3_8 C20_8 1_555 1_555
O4_8 C20_8 1_555 1_555
O11_8 Zn12_4 1_555 1_555
C1_8 C2_8 1_555 1_555
C5_8 C4_8 1_555 1_555
C6_8 C5_8 1_555 1_555
H6_8 C6_8 1_555 1_555
C7_8 C2_8 1_555 1_555
H7_8 C7_8 1_555 1_555
C8_8 C5_8 1_555 1_555
C9_8 C8_8 1_555 1_555
H8_8 C9_8 1_555 1_555
C10_8 C9_8 1_555 1_555
C11_8 C10_8 1_555 1_555
H9_8 C11_8 1_555 1_555
C12_8 C11_8 1_555 1_555
C13_8 C8_8 1_555 1_555
H10_8 C13_8 1_555 1_555
C14_8 C12_8 1_555 1_555
C15_8 C14_8 1_555 1_555
H11_8 C15_8 1_555 1_555
C16_8 C15_8 1_555 1_555
H12_8 C16_8 1_555 1_555
C17_8 C16_8 1_555 1_555
C18_8 C17_8 1_555 1_555
H13_8 C18_8 1_555 1_555
C19_8 C14_8 1_555 1_555
H14_8 C19_8 1_555 1_555
C20_8 C17_8 1_555 1_555
C21_8 C10_8 1_555 1_555
C22_8 C21_8 1_555 1_555
H15_8 C22_8 1_555 1_555
C23_8 C22_8 1_555 1_555
H16_8 C23_8 1_555 1_555
C82_4 C23_8 1_555 1_555
C25_8 C82_4 1_555 1_555
H17_8 C25_8 1_555 1_555
C26_8 C21_8 1_555 1_555
H18_8 C26_8 1_555 1_555
C86_4 O11_8 1_555 1_555
C55_8 C86_4 1_555 1_555
C56_8 C55_8 1_555 1_555
H34_8 C56_8 1_555 1_555
C57_8 C56_8 1_555 1_555
H35_8 C57_8 1_555 1_555
C58_8 C57_8 1_555 1_555
C59_8 C58_8 1_555 1_555
H36_8 C59_8 1_555 1_555
C60_8 C55_8 1_555 1_555
H37_8 C60_8 1_555 1_555
C61_8 C58_8 1_555 1_555
C62_8 C61_8 1_555 1_555
H38_8 C62_8 1_555 1_555
C63_8 C62_8 1_555 1_555
C64_8 C63_8 1_555 1_555
H39_8 C64_8 1_555 1_555
C65_8 C64_8 1_555 1_555
C66_8 C61_8 1_555 1_555
H40_8 C66_8 1_555 1_555
C67_8 C65_8 1_555 1_555
C68_8 C67_8 1_555 1_555
H41_8 C68_8 1_555 1_555
C69_8 C68_8 1_555 1_555
H42_8 C69_8 1_555 1_555
C87_4 C69_8 1_555 1_555
C71_8 C87_4 1_555 1_555
C72_8 C67_8 1_555 1_555
H44_8 C72_8 1_555 1_555
C74_8 C63_8 1_555 1_555
C75_8 C74_8 1_555 1_555
H45_8 C75_8 1_555 1_555
C76_8 C75_8 1_555 1_555
H46_8 C76_8 1_555 1_555
C77_8 C76_8 1_555 1_555
C78_8 C77_8 1_555 1_555
H47_8 C78_8 1_555 1_555
C79_8 C74_8 1_555 1_555
H48_8 C79_8 1_555 1_555
Zn9_3 O33_8 1_555 1_555
O33_8 C90_8 1_555 1_555
O34_8 C90_8 1_555 1_555
O37 Zn13_6 1_555 1_555
C90_8 C77_8 1_555 1_555
Zn16_3 O37 1_555 1_555
C6_8 C7_8 1_555 1_555
C12_8 C13_8 1_555 1_555
C18_8 C19_8 1_555 1_555
C25_8 C26_8 1_555 1_555
C59_8 C60_8 1_555 1_555
C65_8 C66_8 1_555 1_555
C71_8 C72_8 1_555 1_555
C78_8 C79_8 1_555 1_555
Zn2_8 O7_8 1_555 1_555
O7_8 C28_8 1_555 1_555
O15_8 Zn2_8 1_555 1_555
H2_8 O17_8 1_555 1_555
C3_8 H4_8 1_555 1_555
C28_8 O26_4 1_555 1_555
C29_8 C28_8 1_555 1_555
C30_8 C29_8 1_555 1_555
H19_8 C30_8 1_555 1_555
C31_8 C30_8 1_555 1_555
H20_8 C31_8 1_555 1_555
C32_8 C31_8 1_555 1_555
C33_8 C32_8 1_555 1_555
H21_8 C33_8 1_555 1_555
C34_8 C29_8 1_555 1_555
H22_8 C34_8 1_555 1_555
C35_8 C32_8 1_555 1_555
C36_8 C35_8 1_555 1_555
H23_8 C36_8 1_555 1_555
C37_8 C36_8 1_555 1_555
C38_8 C37_8 1_555 1_555
H24_8 C38_8 1_555 1_555
C39_8 C38_8 1_555 1_555
C40_8 C35_8 1_555 1_555
H25_8 C40_8 1_555 1_555
C41_8 C39_8 1_555 1_555
C42_8 C41_8 1_555 1_555
H26_8 C42_8 1_555 1_555
C43_8 C42_8 1_555 1_555
H27_8 C43_8 1_555 1_555
C44_8 C43_8 1_555 1_555
C45_8 C44_8 1_555 1_555
H28_8 C45_8 1_555 1_555
C46_8 C41_8 1_555 1_555
H29_8 C46_8 1_555 1_555
C47_8 C37_8 1_555 1_555
C48_8 C47_8 1_555 1_555
H30_8 C48_8 1_555 1_555
C49_8 C48_8 1_555 1_555
H31_8 C49_8 1_555 1_555
C84_3 C49_8 1_555 1_555
C51_8 C84_3 1_555 1_555
H32_8 C51_8 1_555 1_555
C52_8 C47_8 1_555 1_555
H33_8 C52_8 1_555 1_555
C80_8 O15_8 1_555 1_555
O21_8 Zn2_8 1_555 1_555
C81_8 C44_8 1_555 1_555
Zn10_3 O40_8 1_555 1_555
Zn11_8 O39_8 1_555 1_555
O28_8 Zn13_7 1_555 1_555
C89_8 C80_8 1_555 1_555
O39_8 C81_8 1_555 1_555
O40_8 C81_8 1_555 1_555
C91_8 O20_8 1_555 1_555
Zn2_8 O17_8 1_555 1_555
O16_8 C80_8 1_555 1_555
C33_8 C34_8 1_555 1_555
C39_8 C40_8 1_555 1_555
C45_8 C46_8 1_555 1_555
C51_8 C52_8 1_555 1_555
O21_8 C91_8 1_555 1_555
H46_9 C76_9 1_555 1_555
C89_7 C76_9 1_555 1_555
C78_9 C89_7 1_555 1_555
H47_9 C78_9 1_555 1_555
H48_9 C79_9 1_555 1_555
C78_9 C79_9 1_555 1_555
O14_5 H1_5 1_555 1_555
C87_5 C73_5 1_555 1_555
O14_5 C73_5 1_555 1_555
Zn7_7 O1_9 1_555 1_555
Zn9_2 O7_9 1_555 1_555
Zn11_2 O5_5 1_555 1_555
Zn14_3 O4_9 1_555 1_555
Na1_5 O2_5 1_555 1_555
O1_9 C1_9 1_555 1_555
O2_5 C1_9 1_555 1_555
O23_3 C20_9 1_555 1_555
O4_9 C20_9 1_555 1_555
O5_5 C27_5 1_555 1_555
O6_5 Zn7_7 1_555 1_555
O7_9 C28_9 1_555 1_555
O8_5 Na1_5 1_555 1_555
O9_5 Zn14_3 1_555 1_555
O11_9 Zn11_2 1_555 1_555
O12_5 Na1_5 1_555 1_555
O13_5 Zn14_3 1_555 1_555
O17_9 Zn7_7 1_555 1_555
H2_9 O17_9 1_555 1_555
H3_9 O35_3 1_555 1_555
C1_9 C2_9 1_555 1_555
C2_9 C3_9 1_555 1_555
C3_9 H4_9 1_555 1_555
C4_9 C3_9 1_555 1_555
H5_9 C4_9 1_555 1_555
C5_9 C4_9 1_555 1_555
C6_9 C5_9 1_555 1_555
H6_9 C6_9 1_555 1_555
C7_9 C2_9 1_555 1_555
H7_9 C7_9 1_555 1_555
C8_9 C5_9 1_555 1_555
C9_9 C8_9 1_555 1_555
H8_9 C9_9 1_555 1_555
C10_9 C9_9 1_555 1_555
C11_9 C10_9 1_555 1_555
H9_9 C11_9 1_555 1_555
C12_9 C11_9 1_555 1_555
C13_9 C8_9 1_555 1_555
H10_9 C13_9 1_555 1_555
C14_9 C12_9 1_555 1_555
C15_9 C14_9 1_555 1_555
H11_9 C15_9 1_555 1_555
C16_9 C15_9 1_555 1_555
H12_9 C16_9 1_555 1_555
C17_9 C16_9 1_555 1_555
C18_9 C17_9 1_555 1_555
H13_9 C18_9 1_555 1_555
C19_9 C14_9 1_555 1_555
H14_9 C19_9 1_555 1_555
C20_9 C17_9 1_555 1_555
C21_9 C10_9 1_555 1_555
C22_9 C21_9 1_555 1_555
H15_9 C22_9 1_555 1_555
C23_9 C22_9 1_555 1_555
H16_9 C23_9 1_555 1_555
C24_5 C23_9 1_555 1_555
C25_9 C24_5 1_555 1_555
H17_9 C25_9 1_555 1_555
C26_9 C21_9 1_555 1_555
H18_9 C26_9 1_555 1_555
C27_5 O6_5 1_555 1_555
C28_9 O8_5 1_555 1_555
C29_9 C28_9 1_555 1_555
C30_9 C29_9 1_555 1_555
H19_9 C30_9 1_555 1_555
C31_9 C30_9 1_555 1_555
H20_9 C31_9 1_555 1_555
C32_9 C31_9 1_555 1_555
C33_9 C32_9 1_555 1_555
H21_9 C33_9 1_555 1_555
C34_9 C29_9 1_555 1_555
H22_9 C34_9 1_555 1_555
C35_9 C32_9 1_555 1_555
C36_9 C35_9 1_555 1_555
H23_9 C36_9 1_555 1_555
C37_9 C36_9 1_555 1_555
C38_9 C37_9 1_555 1_555
H24_9 C38_9 1_555 1_555
C39_9 C38_9 1_555 1_555
C40_9 C35_9 1_555 1_555
H25_9 C40_9 1_555 1_555
C41_9 C39_9 1_555 1_555
C42_9 C41_9 1_555 1_555
H26_9 C42_9 1_555 1_555
C43_9 C42_9 1_555 1_555
H27_9 C43_9 1_555 1_555
C44_9 C43_9 1_555 1_555
C45_9 C44_9 1_555 1_555
H28_9 C45_9 1_555 1_555
C46_9 C41_9 1_555 1_555
H29_9 C46_9 1_555 1_555
C47_9 C37_9 1_555 1_555
C48_9 C47_9 1_555 1_555
H30_9 C48_9 1_555 1_555
C49_9 C48_9 1_555 1_555
H31_9 C49_9 1_555 1_555
C50_5 C49_9 1_555 1_555
C51_9 C50_5 1_555 1_555
H32_9 C51_9 1_555 1_555
C52_9 C47_9 1_555 1_555
H33_9 C52_9 1_555 1_555
C53_5 O9_5 1_555 1_555
C54_5 O11_9 1_555 1_555
C55_9 C54_5 1_555 1_555
C56_9 C55_9 1_555 1_555
H34_9 C56_9 1_555 1_555
C57_9 C56_9 1_555 1_555
H35_9 C57_9 1_555 1_555
C58_9 C57_9 1_555 1_555
C59_9 C58_9 1_555 1_555
H36_9 C59_9 1_555 1_555
C60_9 C55_9 1_555 1_555
H37_9 C60_9 1_555 1_555
C61_9 C58_9 1_555 1_555
C62_9 C61_9 1_555 1_555
H38_9 C62_9 1_555 1_555
C63_9 C62_9 1_555 1_555
C64_9 C63_9 1_555 1_555
H39_9 C64_9 1_555 1_555
C65_9 C64_9 1_555 1_555
C66_9 C61_9 1_555 1_555
H40_9 C66_9 1_555 1_555
C67_9 C65_9 1_555 1_555
C68_9 C67_9 1_555 1_555
H41_9 C68_9 1_555 1_555
C69_9 C68_9 1_555 1_555
H42_9 C69_9 1_555 1_555
C70_5 C69_9 1_555 1_555
C71_9 C70_5 1_555 1_555
H43_9 C71_9 1_555 1_555
C72_9 C67_9 1_555 1_555
H44_9 C72_9 1_555 1_555
C74_9 C63_9 1_555 1_555
C75_9 C74_9 1_555 1_555
H45_9 C75_9 1_555 1_555
C91_4 C44_9 1_555 1_555
Zn7_8 O25_5 1_555 1_555
Zn11_3 O24_5 1_555 1_555
Zn14 O31_5 1_555 1_555
O22_5 Na1_5 1_555 1_555
O24_5 C83_5 1_555 1_555
O25_5 C83_5 1_555 1_555
O26_5 Na1_5 1_555 1_555
O27_5 C85_5 1_555 1_555
O28_8 C85_5 1_555 1_555
O30_5 Na1_5 1_555 1_555
O31_5 C88_5 1_555 1_555
O32_5 H49_5 1_555 1_555
C82_5 C27_5 1_555 1_555
C83_5 C24_5 1_555 1_555
C84_5 C53_5 1_555 1_555
C85_5 C50_5 1_555 1_555
C86_5 O12_5 1_555 1_555
C88_5 C70_5 1_555 1_555
Zn9_2 O17_9 1_555 1_555
Zn11_2 O17_9 1_555 1_555
O28_3 C53_5 1_555 1_555
C6_9 C7_9 1_555 1_555
C12_9 C13_9 1_555 1_555
C18_9 C19_9 1_555 1_555
C25_9 C26_9 1_555 1_555
C33_9 C34_9 1_555 1_555
C39_9 C40_9 1_555 1_555
C45_9 C46_9 1_555 1_555
C51_9 C52_9 1_555 1_555
C54_5 O30_5 1_555 1_555
C59_9 C60_9 1_555 1_555
C65_9 C66_9 1_555 1_555
C71_9 C72_9 1_555 1_555
O32_5 C88_5 1_555 1_555
H3_10 O35_4 1_555 1_555
Zn9_3 O7_10 1_555 1_555
Na1_6 O2_6 1_555 1_555
O7_10 C28_10 1_555 1_555
O8_6 Na1_6 1_555 1_555
H2_10 O17_10 1_555 1_555
C3_10 H4_10 1_555 1_555
C28_10 O8_6 1_555 1_555
C29_10 C28_10 1_555 1_555
C30_10 C29_10 1_555 1_555
H19_10 C30_10 1_555 1_555
C31_10 C30_10 1_555 1_555
H20_10 C31_10 1_555 1_555
C32_10 C31_10 1_555 1_555
C33_10 C32_10 1_555 1_555
H21_10 C33_10 1_555 1_555
C34_10 C29_10 1_555 1_555
H22_10 C34_10 1_555 1_555
C35_10 C32_10 1_555 1_555
C36_10 C35_10 1_555 1_555
H23_10 C36_10 1_555 1_555
C37_10 C36_10 1_555 1_555
C38_10 C37_10 1_555 1_555
H24_10 C38_10 1_555 1_555
C39_10 C38_10 1_555 1_555
C40_10 C35_10 1_555 1_555
H25_10 C40_10 1_555 1_555
C41_10 C39_10 1_555 1_555
C42_10 C41_10 1_555 1_555
H26_10 C42_10 1_555 1_555
C43_10 C42_10 1_555 1_555
H27_10 C43_10 1_555 1_555
C44_10 C43_10 1_555 1_555
C45_10 C44_10 1_555 1_555
H28_10 C45_10 1_555 1_555
C46_10 C41_10 1_555 1_555
H29_10 C46_10 1_555 1_555
C47_10 C37_10 1_555 1_555
C48_10 C47_10 1_555 1_555
H30_10 C48_10 1_555 1_555
C49_10 C48_10 1_555 1_555
H31_10 C49_10 1_555 1_555
C50_6 C49_10 1_555 1_555
C51_10 C50_6 1_555 1_555
H32_10 C51_10 1_555 1_555
C52_10 C47_10 1_555 1_555
H33_10 C52_10 1_555 1_555
Zn14_5 O27_6 1_555 1_555
O22_6 Na1_6 1_555 1_555
O26_6 Na1_6 1_555 1_555
O27_6 C85_6 1_555 1_555
O28_5 C85_6 1_555 1_555
C85_6 C50_6 1_555 1_555
Zn9_3 O17_10 1_555 1_555
C33_10 C34_10 1_555 1_555
C39_10 C40_10 1_555 1_555
C45_10 C46_10 1_555 1_555
C51_10 C52_10 1_555 1_555
Zn14_4 O4_10 1_555 1_555
O23_4 C20_10 1_555 1_555
O4_10 C20_10 1_555 1_555
O9_6 Zn14_4 1_555 1_555
O13_6 Zn14_4 1_555 1_555
O14_6 H1_6 1_555 1_555
C9_10 C8_10 1_555 1_555
H8_10 C9_10 1_555 1_555
C10_10 C9_10 1_555 1_555
C11_10 C10_10 1_555 1_555
H9_10 C11_10 1_555 1_555
C12_10 C11_10 1_555 1_555
C13_10 C8_10 1_555 1_555
H10_10 C13_10 1_555 1_555
C14_10 C12_10 1_555 1_555
C15_10 C14_10 1_555 1_555
H11_10 C15_10 1_555 1_555
C16_10 C15_10 1_555 1_555
H12_10 C16_10 1_555 1_555
C17_10 C16_10 1_555 1_555
C18_10 C17_10 1_555 1_555
H13_10 C18_10 1_555 1_555
C19_10 C14_10 1_555 1_555
H14_10 C19_10 1_555 1_555
C20_10 C17_10 1_555 1_555
C21_10 C10_10 1_555 1_555
C22_10 C21_10 1_555 1_555
H15_10 C22_10 1_555 1_555
C23_10 C22_10 1_555 1_555
H16_10 C23_10 1_555 1_555
C24_6 C23_10 1_555 1_555
C25_10 C24_6 1_555 1_555
H17_10 C25_10 1_555 1_555
C26_10 C21_10 1_555 1_555
H18_10 C26_10 1_555 1_555
C53_6 O9_6 1_555 1_555
C73_6 O13_6 1_555 1_555
Zn7_5 O25_6 1_555 1_555
Zn11_4 O24_6 1_555 1_555
O24_6 C83_6 1_555 1_555
O25_6 C83_6 1_555 1_555
C83_6 C24_6 1_555 1_555
C84_6 C53_6 1_555 1_555
C87_6 C73_6 1_555 1_555
O28_4 C53_6 1_555 1_555
O14_6 C73_6 1_555 1_555
C12_10 C13_10 1_555 1_555
C18_10 C19_10 1_555 1_555
C25_10 C26_10 1_555 1_555
Zn7_8 O1_10 1_555 1_555
O1_10 C1_10 1_555 1_555
O11_10 Zn11_3 1_555 1_555
C1_10 C2_10 1_555 1_555
C5_10 C4_10 1_555 1_555
C6_10 C5_10 1_555 1_555
H6_10 C6_10 1_555 1_555
C7_10 C2_10 1_555 1_555
H7_10 C7_10 1_555 1_555
C54_6 O11_10 1_555 1_555
C55_10 C54_6 1_555 1_555
C56_10 C55_10 1_555 1_555
H34_10 C56_10 1_555 1_555
C57_10 C56_10 1_555 1_555
H35_10 C57_10 1_555 1_555
C58_10 C57_10 1_555 1_555
C59_10 C58_10 1_555 1_555
H36_10 C59_10 1_555 1_555
C60_10 C55_10 1_555 1_555
H37_10 C60_10 1_555 1_555
C61_10 C58_10 1_555 1_555
C62_10 C61_10 1_555 1_555
H38_10 C62_10 1_555 1_555
C63_10 C62_10 1_555 1_555
C64_10 C63_10 1_555 1_555
H39_10 C64_10 1_555 1_555
C65_10 C64_10 1_555 1_555
C66_10 C61_10 1_555 1_555
H40_10 C66_10 1_555 1_555
C67_10 C65_10 1_555 1_555
C68_10 C67_10 1_555 1_555
H41_10 C68_10 1_555 1_555
C69_10 C68_10 1_555 1_555
H42_10 C69_10 1_555 1_555
C70_6 C69_10 1_555 1_555
C71_10 C70_6 1_555 1_555
H43_10 C71_10 1_555 1_555
C72_10 C67_10 1_555 1_555
H44_10 C72_10 1_555 1_555
C74_10 C63_10 1_555 1_555
C75_10 C74_10 1_555 1_555
H45_10 C75_10 1_555 1_555
Zn14_2 O31_6 1_555 1_555
O31_6 C88_6 1_555 1_555
O32_6 H49_6 1_555 1_555
C86_6 O12_6 1_555 1_555
C88_6 C70_6 1_555 1_555
C6_10 C7_10 1_555 1_555
C54_6 O30_6 1_555 1_555
C59_10 C60_10 1_555 1_555
C65_10 C66_10 1_555 1_555
C71_10 C72_10 1_555 1_555
O32_6 C88_6 1_555 1_555
H46_10 C76_10 1_555 1_555
C89_8 C76_10 1_555 1_555
C78_10 C89_8 1_555 1_555
H47_10 C78_10 1_555 1_555
H48_10 C79_10 1_555 1_555
C78_10 C79_10 1_555 1_555
C53_7 O9_7 1_555 1_555
C84_7 C53_7 1_555 1_555
O28 C53_7 1_555 1_555
Zn7_5 O1_11 1_555 1_555
Zn14 O4_11 1_555 1_555
O1_11 C1_11 1_555 1_555
O23 C20_11 1_555 1_555
O4_11 C20_11 1_555 1_555
O11_11 Zn11_4 1_555 1_555
C1_11 C2_11 1_555 1_555
C5_11 C4_11 1_555 1_555
C6_11 C5_11 1_555 1_555
H6_11 C6_11 1_555 1_555
C7_11 C2_11 1_555 1_555
H7_11 C7_11 1_555 1_555
C8_11 C5_11 1_555 1_555
C9_11 C8_11 1_555 1_555
H8_11 C9_11 1_555 1_555
C10_11 C9_11 1_555 1_555
C11_11 C10_11 1_555 1_555
H9_11 C11_11 1_555 1_555
C12_11 C11_11 1_555 1_555
C13_11 C8_11 1_555 1_555
H10_11 C13_11 1_555 1_555
C14_11 C12_11 1_555 1_555
C15_11 C14_11 1_555 1_555
H11_11 C15_11 1_555 1_555
C16_11 C15_11 1_555 1_555
H12_11 C16_11 1_555 1_555
C17_11 C16_11 1_555 1_555
C18_11 C17_11 1_555 1_555
H13_11 C18_11 1_555 1_555
C19_11 C14_11 1_555 1_555
H14_11 C19_11 1_555 1_555
C20_11 C17_11 1_555 1_555
C21_11 C10_11 1_555 1_555
C22_11 C21_11 1_555 1_555
H15_11 C22_11 1_555 1_555
C23_11 C22_11 1_555 1_555
H16_11 C23_11 1_555 1_555
C24_7 C23_11 1_555 1_555
C25_11 C24_7 1_555 1_555
H17_11 C25_11 1_555 1_555
C26_11 C21_11 1_555 1_555
H18_11 C26_11 1_555 1_555
C54_7 O11_11 1_555 1_555
C55_11 C54_7 1_555 1_555
C56_11 C55_11 1_555 1_555
H34_11 C56_11 1_555 1_555
C57_11 C56_11 1_555 1_555
H35_11 C57_11 1_555 1_555
C58_11 C57_11 1_555 1_555
C59_11 C58_11 1_555 1_555
H36_11 C59_11 1_555 1_555
C60_11 C55_11 1_555 1_555
H37_11 C60_11 1_555 1_555
C61_11 C58_11 1_555 1_555
C62_11 C61_11 1_555 1_555
H38_11 C62_11 1_555 1_555
C63_11 C62_11 1_555 1_555
C64_11 C63_11 1_555 1_555
H39_11 C64_11 1_555 1_555
C65_11 C64_11 1_555 1_555
C66_11 C61_11 1_555 1_555
H40_11 C66_11 1_555 1_555
C67_11 C65_11 1_555 1_555
C68_11 C67_11 1_555 1_555
H41_11 C68_11 1_555 1_555
C69_11 C68_11 1_555 1_555
H42_11 C69_11 1_555 1_555
C87_5 C69_11 1_555 1_555
C71_11 C87_5 1_555 1_555
C72_11 C67_11 1_555 1_555
H44_11 C72_11 1_555 1_555
C74_11 C63_11 1_555 1_555
C75_11 C74_11 1_555 1_555
H45_11 C75_11 1_555 1_555
C76_11 C75_11 1_555 1_555
H46_11 C76_11 1_555 1_555
C89_5 C76_11 1_555 1_555
C78_11 C89_5 1_555 1_555
H47_11 C78_11 1_555 1_555
C79_11 C74_11 1_555 1_555
H48_11 C79_11 1_555 1_555
Zn7_6 O25_7 1_555 1_555
Zn11 O24_7 1_555 1_555
O24_7 C83_7 1_555 1_555
O25_7 C83_7 1_555 1_555
C83_7 C24_7 1_555 1_555
C86_7 O12_7 1_555 1_555
C6_11 C7_11 1_555 1_555
C12_11 C13_11 1_555 1_555
C18_11 C19_11 1_555 1_555
C25_11 C26_11 1_555 1_555
C54_7 O30_7 1_555 1_555
C59_11 C60_11 1_555 1_555
C65_11 C66_11 1_555 1_555
C71_11 C72_11 1_555 1_555
C78_11 C79_11 1_555 1_555
H3_11 O35 1_555 1_555
Zn9_4 O7_11 1_555 1_555
Na1_7 O2_7 1_555 1_555
O7_11 C28_11 1_555 1_555
O8_7 Na1_7 1_555 1_555
H2_11 O17_11 1_555 1_555
C3_11 H4_11 1_555 1_555
C28_11 O8_7 1_555 1_555
C29_11 C28_11 1_555 1_555
C30_11 C29_11 1_555 1_555
H19_11 C30_11 1_555 1_555
C31_11 C30_11 1_555 1_555
H20_11 C31_11 1_555 1_555
C32_11 C31_11 1_555 1_555
C33_11 C32_11 1_555 1_555
H21_11 C33_11 1_555 1_555
C34_11 C29_11 1_555 1_555
H22_11 C34_11 1_555 1_555
C35_11 C32_11 1_555 1_555
C36_11 C35_11 1_555 1_555
H23_11 C36_11 1_555 1_555
C37_11 C36_11 1_555 1_555
C38_11 C37_11 1_555 1_555
H24_11 C38_11 1_555 1_555
C39_11 C38_11 1_555 1_555
C40_11 C35_11 1_555 1_555
H25_11 C40_11 1_555 1_555
C41_11 C39_11 1_555 1_555
C42_11 C41_11 1_555 1_555
H26_11 C42_11 1_555 1_555
C43_11 C42_11 1_555 1_555
H27_11 C43_11 1_555 1_555
C44_11 C43_11 1_555 1_555
C45_11 C44_11 1_555 1_555
H28_11 C45_11 1_555 1_555
C46_11 C41_11 1_555 1_555
H29_11 C46_11 1_555 1_555
C47_11 C37_11 1_555 1_555
C48_11 C47_11 1_555 1_555
H30_11 C48_11 1_555 1_555
C49_11 C48_11 1_555 1_555
H31_11 C49_11 1_555 1_555
C50_7 C49_11 1_555 1_555
C51_11 C50_7 1_555 1_555
H32_11 C51_11 1_555 1_555
C52_11 C47_11 1_555 1_555
H33_11 C52_11 1_555 1_555
C91_2 C44_11 1_555 1_555
Zn14_6 O27_7 1_555 1_555
O22_7 Na1_7 1_555 1_555
O26_7 Na1_7 1_555 1_555
O27_7 C85_7 1_555 1_555
O28_6 C85_7 1_555 1_555
C85_7 C50_7 1_555 1_555
Zn9_4 O17_11 1_555 1_555
C33_11 C34_11 1_555 1_555
C39_11 C40_11 1_555 1_555
C45_11 C46_11 1_555 1_555
C51_11 C52_11 1_555 1_555
Zn7_6 O1_12 1_555 1_555
Zn9 O7_12 1_555 1_555
Zn14_2 O4_12 1_555 1_555
Na1_8 O2_8 1_555 1_555
O1_12 C1_12 1_555 1_555
O2_8 C1_12 1_555 1_555
O23_2 C20_12 1_555 1_555
O4_12 C20_12 1_555 1_555
O7_12 C28_12 1_555 1_555
O8_8 Na1_8 1_555 1_555
O11_12 Zn11 1_555 1_555
O12_8 Na1_8 1_555 1_555
O17_12 Zn7_6 1_555 1_555
H2_12 O17_12 1_555 1_555
C1_12 C2_12 1_555 1_555
C2_12 C3_12 1_555 1_555
C3_12 H4_12 1_555 1_555
C4_12 C3_12 1_555 1_555
H5_12 C4_12 1_555 1_555
C5_12 C4_12 1_555 1_555
C6_12 C5_12 1_555 1_555
H6_12 C6_12 1_555 1_555
C7_12 C2_12 1_555 1_555
H7_12 C7_12 1_555 1_555
C8_12 C5_12 1_555 1_555
C9_12 C8_12 1_555 1_555
H8_12 C9_12 1_555 1_555
C10_12 C9_12 1_555 1_555
C11_12 C10_12 1_555 1_555
H9_12 C11_12 1_555 1_555
C12_12 C11_12 1_555 1_555
C13_12 C8_12 1_555 1_555
H10_12 C13_12 1_555 1_555
C14_12 C12_12 1_555 1_555
C15_12 C14_12 1_555 1_555
H11_12 C15_12 1_555 1_555
C16_12 C15_12 1_555 1_555
H12_12 C16_12 1_555 1_555
C17_12 C16_12 1_555 1_555
C18_12 C17_12 1_555 1_555
H13_12 C18_12 1_555 1_555
C19_12 C14_12 1_555 1_555
H14_12 C19_12 1_555 1_555
C20_12 C17_12 1_555 1_555
C21_12 C10_12 1_555 1_555
C22_12 C21_12 1_555 1_555
H15_12 C22_12 1_555 1_555
C23_12 C22_12 1_555 1_555
H16_12 C23_12 1_555 1_555
C82_5 C23_12 1_555 1_555
C25_12 C82_5 1_555 1_555
H17_12 C25_12 1_555 1_555
C26_12 C21_12 1_555 1_555
H18_12 C26_12 1_555 1_555
C28_12 O8_8 1_555 1_555
C29_12 C28_12 1_555 1_555
C30_12 C29_12 1_555 1_555
H19_12 C30_12 1_555 1_555
C31_12 C30_12 1_555 1_555
H20_12 C31_12 1_555 1_555
C32_12 C31_12 1_555 1_555
C33_12 C32_12 1_555 1_555
H21_12 C33_12 1_555 1_555
C34_12 C29_12 1_555 1_555
H22_12 C34_12 1_555 1_555
C35_12 C32_12 1_555 1_555
C36_12 C35_12 1_555 1_555
H23_12 C36_12 1_555 1_555
C37_12 C36_12 1_555 1_555
C38_12 C37_12 1_555 1_555
H24_12 C38_12 1_555 1_555
C39_12 C38_12 1_555 1_555
C40_12 C35_12 1_555 1_555
H25_12 C40_12 1_555 1_555
C41_12 C39_12 1_555 1_555
C42_12 C41_12 1_555 1_555
H26_12 C42_12 1_555 1_555
C43_12 C42_12 1_555 1_555
H27_12 C43_12 1_555 1_555
C44_12 C43_12 1_555 1_555
C45_12 C44_12 1_555 1_555
H28_12 C45_12 1_555 1_555
C46_12 C41_12 1_555 1_555
H29_12 C46_12 1_555 1_555
C47_12 C37_12 1_555 1_555
C48_12 C47_12 1_555 1_555
H30_12 C48_12 1_555 1_555
C49_12 C48_12 1_555 1_555
H31_12 C49_12 1_555 1_555
C50_8 C49_12 1_555 1_555
C51_12 C50_8 1_555 1_555
H32_12 C51_12 1_555 1_555
C52_12 C47_12 1_555 1_555
H33_12 C52_12 1_555 1_555
C54_8 O11_12 1_555 1_555
C55_12 C54_8 1_555 1_555
C56_12 C55_12 1_555 1_555
H34_12 C56_12 1_555 1_555
C57_12 C56_12 1_555 1_555
H35_12 C57_12 1_555 1_555
C58_12 C57_12 1_555 1_555
C59_12 C58_12 1_555 1_555
H36_12 C59_12 1_555 1_555
C60_12 C55_12 1_555 1_555
H37_12 C60_12 1_555 1_555
C61_12 C58_12 1_555 1_555
C62_12 C61_12 1_555 1_555
H38_12 C62_12 1_555 1_555
C63_12 C62_12 1_555 1_555
C64_12 C63_12 1_555 1_555
H39_12 C64_12 1_555 1_555
C65_12 C64_12 1_555 1_555
C66_12 C61_12 1_555 1_555
H40_12 C66_12 1_555 1_555
C67_12 C65_12 1_555 1_555
C68_12 C67_12 1_555 1_555
H41_12 C68_12 1_555 1_555
C69_12 C68_12 1_555 1_555
H42_12 C69_12 1_555 1_555
C87_6 C69_12 1_555 1_555
C71_12 C87_6 1_555 1_555
H43_12 C71_12 1_555 1_555
C72_12 C67_12 1_555 1_555
H44_12 C72_12 1_555 1_555
C74_12 C63_12 1_555 1_555
C75_12 C74_12 1_555 1_555
H45_12 C75_12 1_555 1_555
C76_12 C75_12 1_555 1_555
H46_12 C76_12 1_555 1_555
C89_6 C76_12 1_555 1_555
C78_12 C89_6 1_555 1_555
H47_12 C78_12 1_555 1_555
C79_12 C74_12 1_555 1_555
H48_12 C79_12 1_555 1_555
C91_3 C44_12 1_555 1_555
O22_8 Na1_8 1_555 1_555
O26_8 Na1_8 1_555 1_555
O27_8 C85_8 1_555 1_555
O28_7 C85_8 1_555 1_555
O30_8 Na1_8 1_555 1_555
C85_8 C50_8 1_555 1_555
C86_8 O12_8 1_555 1_555
Zn9 O17_12 1_555 1_555
Zn11 O17_12 1_555 1_555
C6_12 C7_12 1_555 1_555
C12_12 C13_12 1_555 1_555
C18_12 C19_12 1_555 1_555
C25_12 C26_12 1_555 1_555
C33_12 C34_12 1_555 1_555
C39_12 C40_12 1_555 1_555
C45_12 C46_12 1_555 1_555
C51_12 C52_12 1_555 1_555
C54_8 O30_8 1_555 1_555
C59_12 C60_12 1_555 1_555
C65_12 C66_12 1_555 1_555
C71_12 C72_12 1_555 1_555
C78_12 C79_12 1_555 1_555
H3_12 O35_2 1_555 1_555
C53_8 O9_8 1_555 1_555
C84_8 C53_8 1_555 1_555
O28_2 C53_8 1_555 1_555
H3_13 O37_4 1_555 1_555
Zn7_3 O1_13 1_555 1_555
Zn10_3 O7_13 1_555 1_555
Zn11_8 O5_6 1_555 1_555
Zn14_7 O4_13 1_555 1_555
O1_13 C1_13 1_555 1_555
O22_5 C1_13 1_555 1_555
O23_7 C20_13 1_555 1_555
O4_13 C20_13 1_555 1_555
O5_6 C27_6 1_555 1_555
O6_6 Zn7_3 1_555 1_555
O7_13 C28_13 1_555 1_555
O11_13 Zn11_8 1_555 1_555
O13_7 Zn14_7 1_555 1_555
O14_7 H1_7 1_555 1_555
O17_13 Zn7_3 1_555 1_555
H2_13 O17_13 1_555 1_555
C1_13 C2_13 1_555 1_555
C2_13 C3_13 1_555 1_555
C3_13 H4_13 1_555 1_555
C4_13 C3_13 1_555 1_555
H5_13 C4_13 1_555 1_555
C5_13 C4_13 1_555 1_555
C6_13 C5_13 1_555 1_555
H6_13 C6_13 1_555 1_555
C7_13 C2_13 1_555 1_555
H7_13 C7_13 1_555 1_555
C8_13 C5_13 1_555 1_555
C9_13 C8_13 1_555 1_555
H8_13 C9_13 1_555 1_555
C10_13 C9_13 1_555 1_555
C11_13 C10_13 1_555 1_555
H9_13 C11_13 1_555 1_555
C12_13 C11_13 1_555 1_555
C13_13 C8_13 1_555 1_555
H10_13 C13_13 1_555 1_555
C14_13 C12_13 1_555 1_555
C15_13 C14_13 1_555 1_555
H11_13 C15_13 1_555 1_555
C16_13 C15_13 1_555 1_555
H12_13 C16_13 1_555 1_555
C17_13 C16_13 1_555 1_555
C18_13 C17_13 1_555 1_555
H13_13 C18_13 1_555 1_555
C19_13 C14_13 1_555 1_555
H14_13 C19_13 1_555 1_555
C20_13 C17_13 1_555 1_555
C21_13 C10_13 1_555 1_555
C22_13 C21_13 1_555 1_555
H15_13 C22_13 1_555 1_555
C23_13 C22_13 1_555 1_555
H16_13 C23_13 1_555 1_555
C24_8 C23_13 1_555 1_555
C25_13 C24_8 1_555 1_555
H17_13 C25_13 1_555 1_555
C26_13 C21_13 1_555 1_555
H18_13 C26_13 1_555 1_555
C27_6 O6_6 1_555 1_555
C28_13 O26_5 1_555 1_555
C29_13 C28_13 1_555 1_555
C30_13 C29_13 1_555 1_555
H19_13 C30_13 1_555 1_555
C31_13 C30_13 1_555 1_555
H20_13 C31_13 1_555 1_555
C32_13 C31_13 1_555 1_555
C33_13 C32_13 1_555 1_555
H21_13 C33_13 1_555 1_555
C34_13 C29_13 1_555 1_555
H22_13 C34_13 1_555 1_555
C35_13 C32_13 1_555 1_555
C36_13 C35_13 1_555 1_555
H23_13 C36_13 1_555 1_555
C37_13 C36_13 1_555 1_555
C38_13 C37_13 1_555 1_555
H24_13 C38_13 1_555 1_555
C39_13 C38_13 1_555 1_555
C40_13 C35_13 1_555 1_555
H25_13 C40_13 1_555 1_555
C41_13 C39_13 1_555 1_555
C42_13 C41_13 1_555 1_555
H26_13 C42_13 1_555 1_555
C43_13 C42_13 1_555 1_555
H27_13 C43_13 1_555 1_555
C44_13 C43_13 1_555 1_555
C45_13 C44_13 1_555 1_555
H28_13 C45_13 1_555 1_555
C46_13 C41_13 1_555 1_555
H29_13 C46_13 1_555 1_555
C47_13 C37_13 1_555 1_555
C48_13 C47_13 1_555 1_555
H30_13 C48_13 1_555 1_555
C49_13 C48_13 1_555 1_555
H31_13 C49_13 1_555 1_555
C84_8 C49_13 1_555 1_555
C51_13 C84_8 1_555 1_555
H32_13 C51_13 1_555 1_555
C52_13 C47_13 1_555 1_555
H33_13 C52_13 1_555 1_555
C86_5 O11_13 1_555 1_555
C55_13 C86_5 1_555 1_555
C56_13 C55_13 1_555 1_555
H34_13 C56_13 1_555 1_555
C57_13 C56_13 1_555 1_555
H35_13 C57_13 1_555 1_555
C58_13 C57_13 1_555 1_555
C59_13 C58_13 1_555 1_555
H36_13 C59_13 1_555 1_555
C60_13 C55_13 1_555 1_555
H37_13 C60_13 1_555 1_555
C61_13 C58_13 1_555 1_555
C62_13 C61_13 1_555 1_555
H38_13 C62_13 1_555 1_555
C63_13 C62_13 1_555 1_555
C64_13 C63_13 1_555 1_555
H39_13 C64_13 1_555 1_555
C65_13 C64_13 1_555 1_555
C66_13 C61_13 1_555 1_555
H40_13 C66_13 1_555 1_555
C67_13 C65_13 1_555 1_555
C68_13 C67_13 1_555 1_555
H41_13 C68_13 1_555 1_555
C69_13 C68_13 1_555 1_555
H42_13 C69_13 1_555 1_555
C70_7 C69_13 1_555 1_555
C71_13 C70_7 1_555 1_555
H43_13 C71_13 1_555 1_555
C72_13 C67_13 1_555 1_555
H44_13 C72_13 1_555 1_555
C73_7 O13_7 1_555 1_555
C74_13 C63_13 1_555 1_555
C75_13 C74_13 1_555 1_555
H45_13 C75_13 1_555 1_555
C76_13 C75_13 1_555 1_555
H46_13 C76_13 1_555 1_555
C89_3 C76_13 1_555 1_555
C78_13 C89_3 1_555 1_555
H47_13 C78_13 1_555 1_555
C79_13 C74_13 1_555 1_555
H48_13 C79_13 1_555 1_555
C91_6 C44_13 1_555 1_555
Zn7_2 O25_8 1_555 1_555
Zn11_7 O24_8 1_555 1_555
Zn14_5 O31_7 1_555 1_555
O24_8 C83_8 1_555 1_555
O25_8 C83_8 1_555 1_555
O31_7 C88_7 1_555 1_555
O32_7 H49_7 1_555 1_555
C82_6 C27_6 1_555 1_555
C83_8 C24_8 1_555 1_555
C87_7 C73_7 1_555 1_555
C88_7 C70_7 1_555 1_555
Zn10_3 O17_13 1_555 1_555
Zn11_8 O17_13 1_555 1_555
O14_7 C73_7 1_555 1_555
C6_13 C7_13 1_555 1_555
C12_13 C13_13 1_555 1_555
C18_13 C19_13 1_555 1_555
C25_13 C26_13 1_555 1_555
C33_13 C34_13 1_555 1_555
C39_13 C40_13 1_555 1_555
C45_13 C46_13 1_555 1_555
C51_13 C52_13 1_555 1_555
C59_13 C60_13 1_555 1_555
C65_13 C66_13 1_555 1_555
C71_13 C72_13 1_555 1_555
C78_13 C79_13 1_555 1_555
O32_7 C88_7 1_555 1_555
Zn10_4 O7_14 1_555 1_555
O7_14 C28_14 1_555 1_555
H2_14 O17_14 1_555 1_555
C3_14 H4_14 1_555 1_555
C28_14 O26_6 1_555 1_555
C29_14 C28_14 1_555 1_555
C30_14 C29_14 1_555 1_555
H19_14 C30_14 1_555 1_555
C31_14 C30_14 1_555 1_555
H20_14 C31_14 1_555 1_555
C32_14 C31_14 1_555 1_555
C33_14 C32_14 1_555 1_555
H21_14 C33_14 1_555 1_555
C34_14 C29_14 1_555 1_555
H22_14 C34_14 1_555 1_555
C35_14 C32_14 1_555 1_555
C36_14 C35_14 1_555 1_555
H23_14 C36_14 1_555 1_555
C37_14 C36_14 1_555 1_555
C38_14 C37_14 1_555 1_555
H24_14 C38_14 1_555 1_555
C39_14 C38_14 1_555 1_555
C40_14 C35_14 1_555 1_555
H25_14 C40_14 1_555 1_555
C41_14 C39_14 1_555 1_555
C42_14 C41_14 1_555 1_555
H26_14 C42_14 1_555 1_555
C43_14 C42_14 1_555 1_555
H27_14 C43_14 1_555 1_555
C44_14 C43_14 1_555 1_555
C45_14 C44_14 1_555 1_555
H28_14 C45_14 1_555 1_555
C46_14 C41_14 1_555 1_555
H29_14 C46_14 1_555 1_555
C47_14 C37_14 1_555 1_555
C48_14 C47_14 1_555 1_555
H30_14 C48_14 1_555 1_555
C49_14 C48_14 1_555 1_555
H31_14 C49_14 1_555 1_555
C84_5 C49_14 1_555 1_555
C51_14 C84_5 1_555 1_555
H32_14 C51_14 1_555 1_555
C52_14 C47_14 1_555 1_555
H33_14 C52_14 1_555 1_555
C91_7 C44_14 1_555 1_555
Zn10_4 O17_14 1_555 1_555
C33_14 C34_14 1_555 1_555
C39_14 C40_14 1_555 1_555
C45_14 C46_14 1_555 1_555
C51_14 C52_14 1_555 1_555
Zn14_6 O31_8 1_555 1_555
Zn7_4 O1_14 1_555 1_555
Zn11_5 O5_7 1_555 1_555
Zn14_8 O4_14 1_555 1_555
O1_14 C1_14 1_555 1_555
O23_8 C20_14 1_555 1_555
O4_14 C20_14 1_555 1_555
O5_7 C27_7 1_555 1_555
O6_7 Zn7_4 1_555 1_555
O11_14 Zn11_5 1_555 1_555
O13_8 Zn14_8 1_555 1_555
O14_8 H1_8 1_555 1_555
C1_14 C2_14 1_555 1_555
C5_14 C4_14 1_555 1_555
C6_14 C5_14 1_555 1_555
H6_14 C6_14 1_555 1_555
C7_14 C2_14 1_555 1_555
H7_14 C7_14 1_555 1_555
C8_14 C5_14 1_555 1_555
C9_14 C8_14 1_555 1_555
H8_14 C9_14 1_555 1_555
C10_14 C9_14 1_555 1_555
C11_14 C10_14 1_555 1_555
H9_14 C11_14 1_555 1_555
C12_14 C11_14 1_555 1_555
C13_14 C8_14 1_555 1_555
H10_14 C13_14 1_555 1_555
C14_14 C12_14 1_555 1_555
C15_14 C14_14 1_555 1_555
H11_14 C15_14 1_555 1_555
C16_14 C15_14 1_555 1_555
H12_14 C16_14 1_555 1_555
C17_14 C16_14 1_555 1_555
C18_14 C17_14 1_555 1_555
H13_14 C18_14 1_555 1_555
C19_14 C14_14 1_555 1_555
H14_14 C19_14 1_555 1_555
C20_14 C17_14 1_555 1_555
C21_14 C10_14 1_555 1_555
C22_14 C21_14 1_555 1_555
H15_14 C22_14 1_555 1_555
C23_14 C22_14 1_555 1_555
H16_14 C23_14 1_555 1_555
C82_6 C23_14 1_555 1_555
C25_14 C82_6 1_555 1_555
H17_14 C25_14 1_555 1_555
C26_14 C21_14 1_555 1_555
H18_14 C26_14 1_555 1_555
C27_7 O6_7 1_555 1_555
C86_6 O11_14 1_555 1_555
C55_14 C86_6 1_555 1_555
C56_14 C55_14 1_555 1_555
H34_14 C56_14 1_555 1_555
C57_14 C56_14 1_555 1_555
H35_14 C57_14 1_555 1_555
C58_14 C57_14 1_555 1_555
C59_14 C58_14 1_555 1_555
H36_14 C59_14 1_555 1_555
C60_14 C55_14 1_555 1_555
H37_14 C60_14 1_555 1_555
C61_14 C58_14 1_555 1_555
C62_14 C61_14 1_555 1_555
H38_14 C62_14 1_555 1_555
C63_14 C62_14 1_555 1_555
C64_14 C63_14 1_555 1_555
H39_14 C64_14 1_555 1_555
C65_14 C64_14 1_555 1_555
C66_14 C61_14 1_555 1_555
H40_14 C66_14 1_555 1_555
C67_14 C65_14 1_555 1_555
C68_14 C67_14 1_555 1_555
H41_14 C68_14 1_555 1_555
C69_14 C68_14 1_555 1_555
H42_14 C69_14 1_555 1_555
C70_8 C69_14 1_555 1_555
C71_14 C70_8 1_555 1_555
C72_14 C67_14 1_555 1_555
H44_14 C72_14 1_555 1_555
C73_8 O13_8 1_555 1_555
C74_14 C63_14 1_555 1_555
C75_14 C74_14 1_555 1_555
H45_14 C75_14 1_555 1_555
C76_14 C75_14 1_555 1_555
H46_14 C76_14 1_555 1_555
C89_4 C76_14 1_555 1_555
C78_14 C89_4 1_555 1_555
H47_14 C78_14 1_555 1_555
C79_14 C74_14 1_555 1_555
H48_14 C79_14 1_555 1_555
O32_8 H49_8 1_555 1_555
C82_7 C27_7 1_555 1_555
C87_8 C73_8 1_555 1_555
C88_8 C70_8 1_555 1_555
O14_8 C73_8 1_555 1_555
C6_14 C7_14 1_555 1_555
C12_14 C13_14 1_555 1_555
C18_14 C19_14 1_555 1_555
C25_14 C26_14 1_555 1_555
C59_14 C60_14 1_555 1_555
C65_14 C66_14 1_555 1_555
C71_14 C72_14 1_555 1_555
C78_14 C79_14 1_555 1_555
O32_8 C88_8 1_555 1_555
H3_14 O37 1_555 1_555
H46_15 C76_15 1_555 1_555
C89 C76_15 1_555 1_555
C78_15 C89 1_555 1_555
H47_15 C78_15 1_555 1_555
H48_15 C79_15 1_555 1_555
C78_15 C79_15 1_555 1_555
Zn7 O1_15 1_555 1_555
Zn11_6 O5_8 1_555 1_555
O1_15 C1_15 1_555 1_555
O5_8 C27_8 1_555 1_555
O6_8 Zn7 1_555 1_555
O11_15 Zn11_6 1_555 1_555
C1_15 C2_15 1_555 1_555
C5_15 C4_15 1_555 1_555
C6_15 C5_15 1_555 1_555
H6_15 C6_15 1_555 1_555
C7_15 C2_15 1_555 1_555
H7_15 C7_15 1_555 1_555
C27_8 O6_8 1_555 1_555
C86_7 O11_15 1_555 1_555
C55_15 C86_7 1_555 1_555
C56_15 C55_15 1_555 1_555
H34_15 C56_15 1_555 1_555
C57_15 C56_15 1_555 1_555
H35_15 C57_15 1_555 1_555
C58_15 C57_15 1_555 1_555
C59_15 C58_15 1_555 1_555
H36_15 C59_15 1_555 1_555
C60_15 C55_15 1_555 1_555
H37_15 C60_15 1_555 1_555
C61_15 C58_15 1_555 1_555
C62_15 C61_15 1_555 1_555
H38_15 C62_15 1_555 1_555
C63_15 C62_15 1_555 1_555
C64_15 C63_15 1_555 1_555
H39_15 C64_15 1_555 1_555
C65_15 C64_15 1_555 1_555
C66_15 C61_15 1_555 1_555
H40_15 C66_15 1_555 1_555
C67_15 C65_15 1_555 1_555
C68_15 C67_15 1_555 1_555
H41_15 C68_15 1_555 1_555
C69_15 C68_15 1_555 1_555
H42_15 C69_15 1_555 1_555
C87_7 C69_15 1_555 1_555
C71_15 C87_7 1_555 1_555
H43_15 C71_15 1_555 1_555
C72_15 C67_15 1_555 1_555
H44_15 C72_15 1_555 1_555
C74_15 C63_15 1_555 1_555
C75_15 C74_15 1_555 1_555
H45_15 C75_15 1_555 1_555
C82_8 C27_8 1_555 1_555
C6_15 C7_15 1_555 1_555
C59_15 C60_15 1_555 1_555
C65_15 C66_15 1_555 1_555
C71_15 C72_15 1_555 1_555
Zn14_5 O4_15 1_555 1_555
O23_5 C20_15 1_555 1_555
O4_15 C20_15 1_555 1_555
C9_15 C8_15 1_555 1_555
H8_15 C9_15 1_555 1_555
C10_15 C9_15 1_555 1_555
C11_15 C10_15 1_555 1_555
H9_15 C11_15 1_555 1_555
C12_15 C11_15 1_555 1_555
C13_15 C8_15 1_555 1_555
H10_15 C13_15 1_555 1_555
C14_15 C12_15 1_555 1_555
C15_15 C14_15 1_555 1_555
H11_15 C15_15 1_555 1_555
C16_15 C15_15 1_555 1_555
H12_15 C16_15 1_555 1_555
C17_15 C16_15 1_555 1_555
C18_15 C17_15 1_555 1_555
H13_15 C18_15 1_555 1_555
C19_15 C14_15 1_555 1_555
H14_15 C19_15 1_555 1_555
C20_15 C17_15 1_555 1_555
C21_15 C10_15 1_555 1_555
C22_15 C21_15 1_555 1_555
H15_15 C22_15 1_555 1_555
C23_15 C22_15 1_555 1_555
H16_15 C23_15 1_555 1_555
C82_7 C23_15 1_555 1_555
C25_15 C82_7 1_555 1_555
H17_15 C25_15 1_555 1_555
C26_15 C21_15 1_555 1_555
H18_15 C26_15 1_555 1_555
C12_15 C13_15 1_555 1_555
C18_15 C19_15 1_555 1_555
C25_15 C26_15 1_555 1_555
Zn10 O7_15 1_555 1_555
O7_15 C28_15 1_555 1_555
H2_15 O17_15 1_555 1_555
C3_15 H4_15 1_555 1_555
C28_15 O26_7 1_555 1_555
C29_15 C28_15 1_555 1_555
C30_15 C29_15 1_555 1_555
H19_15 C30_15 1_555 1_555
C31_15 C30_15 1_555 1_555
H20_15 C31_15 1_555 1_555
C32_15 C31_15 1_555 1_555
C33_15 C32_15 1_555 1_555
H21_15 C33_15 1_555 1_555
C34_15 C29_15 1_555 1_555
H22_15 C34_15 1_555 1_555
C35_15 C32_15 1_555 1_555
C36_15 C35_15 1_555 1_555
H23_15 C36_15 1_555 1_555
C37_15 C36_15 1_555 1_555
C38_15 C37_15 1_555 1_555
H24_15 C38_15 1_555 1_555
C39_15 C38_15 1_555 1_555
C40_15 C35_15 1_555 1_555
H25_15 C40_15 1_555 1_555
C41_15 C39_15 1_555 1_555
C42_15 C41_15 1_555 1_555
H26_15 C42_15 1_555 1_555
C43_15 C42_15 1_555 1_555
H27_15 C43_15 1_555 1_555
C44_15 C43_15 1_555 1_555
C45_15 C44_15 1_555 1_555
H28_15 C45_15 1_555 1_555
C46_15 C41_15 1_555 1_555
H29_15 C46_15 1_555 1_555
C47_15 C37_15 1_555 1_555
C48_15 C47_15 1_555 1_555
H30_15 C48_15 1_555 1_555
C49_15 C48_15 1_555 1_555
H31_15 C49_15 1_555 1_555
C84_6 C49_15 1_555 1_555
C51_15 C84_6 1_555 1_555
H32_15 C51_15 1_555 1_555
C52_15 C47_15 1_555 1_555
H33_15 C52_15 1_555 1_555
Zn10 O17_15 1_555 1_555
C33_15 C34_15 1_555 1_555
C39_15 C40_15 1_555 1_555
C45_15 C46_15 1_555 1_555
C51_15 C52_15 1_555 1_555
H3_15 O37_2 1_555 1_555
Zn7_2 O1_16 1_555 1_555
Zn10_2 O7_16 1_555 1_555
Zn14_6 O4_16 1_555 1_555
O1_16 C1_16 1_555 1_555
O22_8 C1_16 1_555 1_555
O23_6 C20_16 1_555 1_555
O4_16 C20_16 1_555 1_555
O7_16 C28_16 1_555 1_555
O11_16 Zn11_7 1_555 1_555
O17_16 Zn7_2 1_555 1_555
H2_16 O17_16 1_555 1_555
H3_16 O37_3 1_555 1_555
C1_16 C2_16 1_555 1_555
C2_16 C3_16 1_555 1_555
C3_16 H4_16 1_555 1_555
C4_16 C3_16 1_555 1_555
H5_16 C4_16 1_555 1_555
C5_16 C4_16 1_555 1_555
C6_16 C5_16 1_555 1_555
H6_16 C6_16 1_555 1_555
C7_16 C2_16 1_555 1_555
H7_16 C7_16 1_555 1_555
C8_16 C5_16 1_555 1_555
C9_16 C8_16 1_555 1_555
H8_16 C9_16 1_555 1_555
C10_16 C9_16 1_555 1_555
C11_16 C10_16 1_555 1_555
H9_16 C11_16 1_555 1_555
C12_16 C11_16 1_555 1_555
C13_16 C8_16 1_555 1_555
H10_16 C13_16 1_555 1_555
C14_16 C12_16 1_555 1_555
C15_16 C14_16 1_555 1_555
H11_16 C15_16 1_555 1_555
C16_16 C15_16 1_555 1_555
H12_16 C16_16 1_555 1_555
C17_16 C16_16 1_555 1_555
C18_16 C17_16 1_555 1_555
H13_16 C18_16 1_555 1_555
C19_16 C14_16 1_555 1_555
H14_16 C19_16 1_555 1_555
C20_16 C17_16 1_555 1_555
C21_16 C10_16 1_555 1_555
C22_16 C21_16 1_555 1_555
H15_16 C22_16 1_555 1_555
C23_16 C22_16 1_555 1_555
H16_16 C23_16 1_555 1_555
C82_8 C23_16 1_555 1_555
C25_16 C82_8 1_555 1_555
H17_16 C25_16 1_555 1_555
C26_16 C21_16 1_555 1_555
H18_16 C26_16 1_555 1_555
C28_16 O26_8 1_555 1_555
C29_16 C28_16 1_555 1_555
C30_16 C29_16 1_555 1_555
H19_16 C30_16 1_555 1_555
C31_16 C30_16 1_555 1_555
H20_16 C31_16 1_555 1_555
C32_16 C31_16 1_555 1_555
C33_16 C32_16 1_555 1_555
H21_16 C33_16 1_555 1_555
C34_16 C29_16 1_555 1_555
H22_16 C34_16 1_555 1_555
C35_16 C32_16 1_555 1_555
C36_16 C35_16 1_555 1_555
H23_16 C36_16 1_555 1_555
C37_16 C36_16 1_555 1_555
C38_16 C37_16 1_555 1_555
H24_16 C38_16 1_555 1_555
C39_16 C38_16 1_555 1_555
C40_16 C35_16 1_555 1_555
H25_16 C40_16 1_555 1_555
C41_16 C39_16 1_555 1_555
C42_16 C41_16 1_555 1_555
H26_16 C42_16 1_555 1_555
C43_16 C42_16 1_555 1_555
H27_16 C43_16 1_555 1_555
C44_16 C43_16 1_555 1_555
C45_16 C44_16 1_555 1_555
H28_16 C45_16 1_555 1_555
C46_16 C41_16 1_555 1_555
H29_16 C46_16 1_555 1_555
C47_16 C37_16 1_555 1_555
C48_16 C47_16 1_555 1_555
H30_16 C48_16 1_555 1_555
C49_16 C48_16 1_555 1_555
H31_16 C49_16 1_555 1_555
C84_7 C49_16 1_555 1_555
C51_16 C84_7 1_555 1_555
H32_16 C51_16 1_555 1_555
C52_16 C47_16 1_555 1_555
H33_16 C52_16 1_555 1_555
C86_8 O11_16 1_555 1_555
C55_16 C86_8 1_555 1_555
C56_16 C55_16 1_555 1_555
H34_16 C56_16 1_555 1_555
C57_16 C56_16 1_555 1_555
H35_16 C57_16 1_555 1_555
C58_16 C57_16 1_555 1_555
C59_16 C58_16 1_555 1_555
H36_16 C59_16 1_555 1_555
C60_16 C55_16 1_555 1_555
H37_16 C60_16 1_555 1_555
C61_16 C58_16 1_555 1_555
C62_16 C61_16 1_555 1_555
H38_16 C62_16 1_555 1_555
C63_16 C62_16 1_555 1_555
C64_16 C63_16 1_555 1_555
H39_16 C64_16 1_555 1_555
C65_16 C64_16 1_555 1_555
C66_16 C61_16 1_555 1_555
H40_16 C66_16 1_555 1_555
C67_16 C65_16 1_555 1_555
C68_16 C67_16 1_555 1_555
H41_16 C68_16 1_555 1_555
C69_16 C68_16 1_555 1_555
H42_16 C69_16 1_555 1_555
C87_8 C69_16 1_555 1_555
C71_16 C87_8 1_555 1_555
H43_16 C71_16 1_555 1_555
C72_16 C67_16 1_555 1_555
H44_16 C72_16 1_555 1_555
C74_16 C63_16 1_555 1_555
C75_16 C74_16 1_555 1_555
H45_16 C75_16 1_555 1_555
C91_5 C44_16 1_555 1_555
Zn10_2 O17_16 1_555 1_555
Zn11_7 O17_16 1_555 1_555
C6_16 C7_16 1_555 1_555
C12_16 C13_16 1_555 1_555
C18_16 C19_16 1_555 1_555
C25_16 C26_16 1_555 1_555
C33_16 C34_16 1_555 1_555
C39_16 C40_16 1_555 1_555
C45_16 C46_16 1_555 1_555
C51_16 C52_16 1_555 1_555
C59_16 C60_16 1_555 1_555
C65_16 C66_16 1_555 1_555
C71_16 C72_16 1_555 1_555
H46_16 C76_16 1_555 1_555
C89_2 C76_16 1_555 1_555
C78_16 C89_2 1_555 1_555
H47_16 C78_16 1_555 1_555
H48_16 C79_16 1_555 1_555
C78_16 C79_16 1_555 1_555

#END
