
###############################################################################
#
# This file contains modified crystal structure data generated from the
# MOF subset of the Cambridge Structural Database (CSD) v543 
# hosted by the Cambridge Crystallographic Data Centre (CCDC).
#
# This work is licensed under the Creative Commons
# Attribution-NonCommercial-ShareAlike 4.0 International License.
# To view a copy of this license, visit
# http://creativecommons.org/licenses/by-nc-sa/4.0/
# or send a letter to
# Creative Commons, PO Box 1866, Mountain View, CA 94042, USA.
#
# CIF created using the CSD Python API on 29 September 2022
# The structure has been converted into the P1 space group
# The structure has a 3D framework
# The original CSD entry KOHKOI is in the tetragonal crystal system
# The original CSD entry KOHKOI is in a Sohncke space group
# The framework has been calculated to contain at least 10.0% void space
# The void calculation uses a probe of radius 1.32A, grid spacing 0.4
# H atom positions have been added when not included in the experimental data
# Generated hydrogen atom positions removed from atoms on special positions
#
###############################################################################

data_KOHKOI
_chemical_formula_moiety         '(C1296 H832 K8 O320 Zn82)n'
_symmetry_cell_setting           triclinic
_symmetry_space_group_name_H-M   'P 1'
_symmetry_Int_Tables_number      1
_space_group_name_Hall           'P 1'
loop_
_symmetry_equiv_pos_site_id
_symmetry_equiv_pos_as_xyz
1 x,y,z
_cell_length_a                   32.441(2)
_cell_length_b                   32.441(2)
_cell_length_c                   47.814(3)
_cell_angle_alpha                90
_cell_angle_beta                 90
_cell_angle_gamma                90
_cell_volume                     50320.3
loop_
_atom_site_label
_atom_site_type_symbol
_atom_site_fract_x
_atom_site_fract_y
_atom_site_fract_z
Zn1 Zn 0.51558(3) 0.11723(3) 0.147540(17)
Zn2 Zn 0.43349(3) 0.14925(3) 0.18485(2)
Zn3 Zn 0.52905(2) 0.17001(3) 0.20557(2)
K1 K 0.49138(7) 0.2500 0.1250
O1 O 0.49242(17) 0.16883(16) 0.11267(10)
O2 O 0.52973(16) 0.11349(17) 0.10713(11)
O5 O 0.57109(18) 0.10550(15) 0.16107(11)
O6 O 0.56548(17) 0.12251(16) 0.20611(12)
O7 O 0.43772(17) 0.22562(14) 0.16612(10)
O8 O 0.38681(15) 0.18628(15) 0.17922(11)
O11 O 0.49618(18) 0.18413(18) 0.23726(11)
O12 O 0.43618(18) 0.15547(17) 0.22568(12)
O13 O 0.54778(15) 0.27773(14) 0.08777(12)
O14 O 0.56970(13) 0.21493(15) 0.20557(12)
O17 O 0.41667(16) 0.10622(19) 0.15965(16)
O18 O 0.47452(17) 0.07255(16) 0.14857(12)
O19 O 0.49232(13) 0.15695(12) 0.17440(8)
H2 H 0.4919 0.1793 0.1651
C1 C 0.5118(3) 0.1454(3) 0.09809(16)
C2 C 0.5164(2) 0.1551(2) 0.06801(15)
C3 C 0.5411(3) 0.1289(2) 0.05123(16)
H4 H 0.5517 0.1045 0.0585
C4 C 0.5492(3) 0.1405(2) 0.02348(16)
H5 H 0.5665 0.1239 0.0128
C5 C 0.5327(2) 0.1753(2) 0.01145(14)
C6 C 0.5077(2) 0.19970(19) 0.02897(14)
H6 H 0.4959 0.2236 0.0218
C7 C 0.5003(2) 0.1892(2) 0.05580(13)
H7 H 0.4835 0.2063 0.0665
C27 C 0.5854(2) 0.1095(3) 0.1852(2)
C28 C 0.4000(2) 0.2192(2) 0.16974(15)
C29 C 0.3705(2) 0.2542(2) 0.16369(13)
C30 C 0.3293(2) 0.2476(2) 0.16680(15)
H19 H 0.3195 0.2227 0.1738
C31 C 0.3030(2) 0.2781(3) 0.15952(17)
H20 H 0.2749 0.2738 0.1622
C32 C 0.3156(2) 0.3151(2) 0.14844(14)
C33 C 0.3570(2) 0.3205(2) 0.14551(15)
H21 H 0.3666 0.3448 0.1375
C34 C 0.3847(2) 0.2918(2) 0.15374(14)
H22 H 0.4128 0.2972 0.1527
C35 C 0.28528(19) 0.3461(2) 0.13616(15)
C36 C 0.2488(2) 0.3556(2) 0.14771(15)
H23 H 0.2415 0.3433 0.1645
C37 C 0.2217(2) 0.3832(2) 0.13553(15)
C38 C 0.2334(2) 0.4016(2) 0.11017(17)
H24 H 0.2162 0.4210 0.1018
C39 C 0.27113(19) 0.39085(19) 0.09729(16)
C40 C 0.2959(2) 0.3637(2) 0.11109(16)
H25 H 0.3212 0.3569 0.1032
C41 C 0.1807(2) 0.3939(2) 0.14842(16)
C42 C 0.1559(3) 0.3657(2) 0.16026(18)
H26 H 0.1642 0.3383 0.1607
C43 C 0.1185(2) 0.3766(2) 0.17177(16)
H27 H 0.1030 0.3564 0.1807
C44 C 0.10357(19) 0.4152(2) 0.17070(14)
C45 C 0.1273(2) 0.4449(2) 0.15781(15)
H28 H 0.1174 0.4718 0.1568
C46 C 0.1644(2) 0.4361(2) 0.14661(17)
H29 H 0.1796 0.4566 0.1378
C48 C 0.28273(19) 0.4092(2) 0.07008(14)
C49 C 0.2732(2) 0.4486(2) 0.06170(17)
H30 H 0.2566 0.4646 0.0732
C50 C 0.2871(2) 0.4650(2) 0.03757(17)
H31 H 0.2811 0.4923 0.0332
C51 C 0.3098(2) 0.4420(2) 0.01959(15)
C52 C 0.3209(2) 0.4023(2) 0.02627(17)
H32 H 0.3374 0.3867 0.0144
C53 C 0.3062(2) 0.3859(2) 0.05196(17)
H33 H 0.3125 0.3588 0.0567
C54 C 0.4600(2) 0.1759(3) 0.24181(16)
C55 C 0.5698(2) 0.2670(2) 0.06743(18)
C56 C 0.59813(18) 0.23146(19) 0.07116(16)
C57 C 0.6218(2) 0.2181(2) 0.04837(16)
H34 H 0.6217 0.2328 0.0317
C58 C 0.6453(2) 0.1829(2) 0.05106(17)
H35 H 0.6617 0.1745 0.0362
C59 C 0.6449(2) 0.1591(2) 0.07586(16)
C60 C 0.62246(19) 0.1746(2) 0.09799(14)
H36 H 0.6227 0.1604 0.1149
C61 C 0.59923(19) 0.2113(2) 0.09603(15)
H37 H 0.5850 0.2214 0.1115
C62 C 0.6643(2) 0.1175(2) 0.07762(14)
C63 C 0.7011(2) 0.1091(2) 0.06474(16)
H38 H 0.7151 0.1299 0.0552
C64 C 0.7174(2) 0.0697(2) 0.06590(17)
C65 C 0.6980(2) 0.0395(2) 0.08037(16)
H39 H 0.7096 0.0134 0.0818
C66 C 0.6601(2) 0.0485(2) 0.09317(14)
C67 C 0.6449(2) 0.0873(2) 0.09164(14)
H40 H 0.6202 0.0932 0.1006
C68 C 0.75606(14) 0.05918(18) 0.04935(11)
C69 C 0.75911(13) 0.06947(18) 0.02120(11)
H41 H 0.7377 0.0834 0.0124
C70 C 0.79424(16) 0.05894(17) 0.00617(8)
C71 C 0.82632(13) 0.03812(17) 0.01929(10)
C72 C 0.82326(14) 0.02783(18) 0.04743(11)
H43 H 0.8447 0.0139 0.0562
C73 C 0.78813(17) 0.03836(19) 0.06246(9)
H44 H 0.7861 0.0315 0.0813
C75 C 0.6355(2) 0.0152(2) 0.10786(15)
C80 C 0.5927(2) 0.0171(2) 0.10913(15)
H48 H 0.5793 0.0395 0.1011
C81 C 0.4367(3) 0.0775(2) 0.14824(18)
Zn13 Zn 0.52905(2) 0.32999(3) 0.04443(2)
Zn14 Zn 0.0000 0.5000 0.184543(19)
O22 O 0.49242(17) 0.33117(16) 0.13733(10)
O26 O 0.43772(17) 0.27438(14) 0.08388(10)
O27 O 0.03880(14) 0.39832(14) 0.19141(10)
O29 O 0.05352(15) 0.46376(12) 0.18231(10)
O32 O 0.54778(15) 0.22227(14) 0.16223(12)
O33 O 0.56970(13) 0.28507(15) 0.04443(12)
O35 O 0.88984(17) 0.0051(2) 0.01451(12)
C82 C 0.6295(2) 0.0982(2) 0.18991(15)
C85 C 0.0619(2) 0.4265(2) 0.18275(14)
C86 C 0.4420(2) 0.1902(2) 0.26959(15)
C88 C 0.5698(2) 0.2330(2) 0.18257(18)
C90 C 0.8632(2) 0.0251(2) 0.0030(2)
C91 C 0.4111(2) 0.0455(2) 0.13521(17)
Zn4 Zn 0.5000 0.0000 0.815457(19)
Zn5 Zn 0.58942(2) 0.01709(2) 0.794929(16)
Zn6 Zn 0.5000 0.0000 0.7500
O3 O 0.53685(15) 0.02669(14) 0.84593(9)
O4 O 0.59172(15) 0.05690(14) 0.82728(10)
O15 O 0.63697(13) 0.03423(16) 0.77296(12)
O16 O 0.61016(17) 0.0051(2) 0.73549(12)
O20 O 0.53303(10) 0.02708(10) 0.78231(7)
H3 H 0.5285 0.0529 0.7823
O21 O 0.45284(11) 0.04716(11) 0.7500
C8 C 0.5448(2) 0.1899(2) 0.98293(14)
C9 C 0.5440(2) 0.1621(2) 0.96046(16)
H8 H 0.5356 0.1350 0.9632
C10 C 0.5559(2) 0.1758(3) 0.93375(15)
C11 C 0.5675(2) 0.2165(2) 0.92966(15)
H9 H 0.5758 0.2256 0.9121
C12 C 0.5664(2) 0.2432(2) 0.95176(15)
C13 C 0.5548(2) 0.22989(19) 0.97772(14)
H10 H 0.5537 0.2488 0.9923
C14 C 0.5595(3) 0.1439(2) 0.91037(15)
C15 C 0.5286(3) 0.1130(3) 0.90776(16)
H11 H 0.5072 0.1122 0.9207
C16 C 0.5294(3) 0.0848(2) 0.88719(17)
H12 H 0.5090 0.0647 0.8861
C17 C 0.5610(2) 0.0860(2) 0.86762(15)
C18 C 0.5907(3) 0.1171(3) 0.87022(18)
H13 H 0.6112 0.1188 0.8567
C19 C 0.5912(3) 0.1443(2) 0.89100(17)
H14 H 0.6126 0.1633 0.8925
C20 C 0.5633(2) 0.0536(2) 0.84515(13)
C21 C 0.5775(2) 0.2870(2) 0.94722(15)
C22 C 0.5697(3) 0.3062(2) 0.92229(16)
H15 H 0.5574 0.2915 0.9078
C23 C 0.5804(3) 0.3486(2) 0.91837(16)
H16 H 0.5754 0.3613 0.9013
C24 C 0.5982(2) 0.3705(2) 0.93991(15)
C25 C 0.6060(3) 0.3507(2) 0.96455(16)
H17 H 0.6186 0.3648 0.9792
C26 C 0.5954(3) 0.3097(2) 0.96790(16)
H18 H 0.6006 0.2971 0.9850
H42 H 0.7963 0.0658 0.9873
C74 C 0.6368(2) 0.0251(2) 0.7470(2)
Zn8 Zn 0.61723(3) 0.48442(3) 0.897540(17)
Zn9 Zn 0.35075(3) 0.43349(3) 0.93485(2)
Zn11 Zn 0.32999(3) 0.52905(2) 0.95557(2)
Zn12 Zn 0.67001(3) 0.47095(2) 0.95557(2)
Zn16 Zn 0.91058(2) 0.01709(2) 0.955071(16)
O24 O 0.60550(15) 0.42891(18) 0.91107(11)
O25 O 0.62251(16) 0.43452(17) 0.95611(12)
O28 O 0.46376(12) 0.05352(15) 0.81769(10)
O30 O 0.31587(18) 0.49618(18) 0.98726(11)
O31 O 0.34453(17) 0.43618(18) 0.97568(12)
O34 O 0.86303(13) 0.03423(16) 0.97704(12)
O39 O 0.52708(10) 0.03303(10) 0.71769(7)
C83 C 0.6095(3) 0.4146(2) 0.9352(2)
C87 C 0.3241(3) 0.4600(2) 0.99181(16)
C89 C 0.67368(13) 0.03812(17) 0.73071(10)
C76 C 0.6555(2) 0.9828(2) 0.12179(17)
H45 H 0.6841 0.9814 0.1223
C77 C 0.6307(2) 0.9519(2) 0.13521(17)
H46 H 0.6435 0.9297 0.1440
C78 C 0.5889(2) 0.9545(2) 0.13521(17)
C79 C 0.5691(2) 0.9858(3) 0.12232(17)
H47 H 0.5405 0.9868 0.1221
Zn7 Zn 0.48442(3) 0.88277(3) 0.147540(17)
Zn10 Zn 0.56651(3) 0.85075(3) 0.18485(2)
H49 H 0.9090 0.9999 0.0029
O36 O 0.58333(16) 0.89378(19) 0.15965(16)
O37 O 0.52548(17) 0.92745(16) 0.14857(12)
C92 C 0.5633(3) 0.9225(2) 0.14824(18)
Zn4_2 Zn 0.5000 1.0000 0.815457(19)
Zn6_2 Zn 0.5000 1.0000 0.7500
O9 O 0.60168(14) 0.96120(14) 0.80859(10)
O10 O 0.53624(12) 0.94648(15) 0.81769(10)
H1 H 0.5910 0.9999 0.7471
C47 C 0.5735(2) 0.9381(2) 0.81725(14)
O23 O 0.46315(15) 0.97331(14) 0.84593(9)
O38 O 0.46697(10) 0.97292(10) 0.78231(7)
O40 O 0.47292(10) 0.96697(10) 0.71769(7)
O41 O 0.54716(11) 0.95284(11) 0.7500
C84 C 0.5848(2) 0.89643(19) 0.82930(14)
Zn14_2 Zn 1.0000 0.5000 0.184543(19)
Zn15 Zn 0.98291(2) 0.41058(2) 0.205071(16)
Zn1_2 Zn 0.51558(3) 0.38277(3) 0.102460(17)
Zn2_2 Zn 0.43349(3) 0.35075(3) 0.06515(2)
Zn4_3 Zn 0.5000 0.5000 0.434543(19)
Zn5_2 Zn 0.58942(2) 0.48291(2) 0.455071(16)
Zn6_3 Zn 0.5000 0.5000 0.5000
O2_2 O 0.52973(16) 0.38651(17) 0.14287(11)
O3_2 O 0.53685(15) 0.47331(14) 0.40407(9)
O4_2 O 0.59172(15) 0.44310(14) 0.42272(10)
O5_2 O 0.57109(18) 0.39450(15) 0.08893(11)
O6_2 O 0.56548(17) 0.37749(16) 0.04389(12)
O8_2 O 0.38681(15) 0.31372(15) 0.07078(11)
O9_2 O 0.60168(14) 0.53880(14) 0.44141(10)
O10_2 O 0.53624(12) 0.55352(15) 0.43231(10)
O11_2 O 0.49618(18) 0.31587(18) 0.01274(11)
O12_2 O 0.43618(18) 0.34453(17) 0.02432(12)
O15_2 O 0.63697(13) 0.46577(16) 0.47704(12)
O16_2 O 0.61016(17) 0.4949(2) 0.51451(12)
H1_2 H 0.5910 0.5001 0.5029
O17_2 O 0.41667(16) 0.39378(19) 0.09035(16)
O18_2 O 0.47452(17) 0.42745(16) 0.10143(12)
O19_2 O 0.49232(13) 0.34305(12) 0.07560(8)
H2_2 H 0.4919 0.3207 0.0849
O20_2 O 0.53303(10) 0.47292(10) 0.46769(7)
H3_2 H 0.5285 0.4471 0.4677
O21_2 O 0.45284(11) 0.45284(11) 0.5000
C1_2 C 0.5118(3) 0.3546(3) 0.15191(16)
C2_2 C 0.5164(2) 0.3449(2) 0.18199(15)
C3_2 C 0.5411(3) 0.3711(2) 0.19877(16)
H4_2 H 0.5517 0.3955 0.1915
C4_2 C 0.5492(3) 0.3595(2) 0.22652(16)
H5_2 H 0.5665 0.3761 0.2372
C5_2 C 0.5327(2) 0.3247(2) 0.23855(14)
C6_2 C 0.5077(2) 0.30030(19) 0.22103(14)
H6_2 H 0.4959 0.2764 0.2282
C7_2 C 0.5003(2) 0.3108(2) 0.19420(13)
H7_2 H 0.4835 0.2937 0.1835
C8_2 C 0.5448(2) 0.3101(2) 0.26707(14)
C9_2 C 0.5440(2) 0.3379(2) 0.28954(16)
H8_2 H 0.5356 0.3650 0.2868
C10_2 C 0.5559(2) 0.3242(3) 0.31625(15)
C11_2 C 0.5675(2) 0.2835(2) 0.32034(15)
H9_2 H 0.5758 0.2744 0.3379
C12_2 C 0.5664(2) 0.2568(2) 0.29824(15)
C13_2 C 0.5548(2) 0.27011(19) 0.27228(14)
H10_2 H 0.5537 0.2512 0.2577
C14_2 C 0.5595(3) 0.3561(2) 0.33963(15)
C15_2 C 0.5286(3) 0.3870(3) 0.34224(16)
H11_2 H 0.5072 0.3878 0.3293
C16_2 C 0.5294(3) 0.4152(2) 0.36281(17)
H12_2 H 0.5090 0.4353 0.3639
C17_2 C 0.5610(2) 0.4140(2) 0.38238(15)
C18_2 C 0.5907(3) 0.3829(3) 0.37978(18)
H13_2 H 0.6112 0.3812 0.3933
C19_2 C 0.5912(3) 0.3557(2) 0.35900(17)
H14_2 H 0.6126 0.3367 0.3575
C20_2 C 0.5633(2) 0.4464(2) 0.40485(13)
C21_2 C 0.5775(2) 0.2130(2) 0.30278(15)
C22_2 C 0.5697(3) 0.1938(2) 0.32771(16)
H15_2 H 0.5574 0.2085 0.3422
C23_2 C 0.5804(3) 0.1514(2) 0.33163(16)
H16_2 H 0.5754 0.1387 0.3487
C24_2 C 0.5982(2) 0.1295(2) 0.31009(15)
C25_2 C 0.6060(3) 0.1493(2) 0.28545(16)
H17_2 H 0.6186 0.1352 0.2708
C26_2 C 0.5954(3) 0.1903(2) 0.28210(16)
H18_2 H 0.6006 0.2029 0.2650
C27_2 C 0.5854(2) 0.3905(3) 0.0648(2)
C28_2 C 0.4000(2) 0.2808(2) 0.08026(15)
C29_2 C 0.3705(2) 0.2458(2) 0.08631(13)
C30_2 C 0.3293(2) 0.2524(2) 0.08320(15)
H19_2 H 0.3195 0.2773 0.0762
C31_2 C 0.3030(2) 0.2219(3) 0.09048(17)
H20_2 H 0.2749 0.2262 0.0878
C32_2 C 0.3156(2) 0.1849(2) 0.10156(14)
C33_2 C 0.3570(2) 0.1795(2) 0.10449(15)
H21_2 H 0.3666 0.1552 0.1125
C34_2 C 0.3847(2) 0.2082(2) 0.09626(14)
H22_2 H 0.4128 0.2028 0.0973
C35_2 C 0.28528(19) 0.1539(2) 0.11384(15)
C36_2 C 0.2488(2) 0.1444(2) 0.10229(15)
H23_2 H 0.2415 0.1567 0.0855
C37_2 C 0.2217(2) 0.1168(2) 0.11447(15)
C38_2 C 0.2334(2) 0.0984(2) 0.13983(17)
H24_2 H 0.2162 0.0790 0.1482
C39_2 C 0.27113(19) 0.10915(19) 0.15271(16)
C40_2 C 0.2959(2) 0.1363(2) 0.13891(16)
H25_2 H 0.3212 0.1431 0.1468
C41_2 C 0.1807(2) 0.1061(2) 0.10158(16)
C42_2 C 0.1559(3) 0.1343(2) 0.08974(18)
H26_2 H 0.1642 0.1617 0.0893
C43_2 C 0.1185(2) 0.1234(2) 0.07823(16)
H27_2 H 0.1030 0.1436 0.0693
C44_2 C 0.10357(19) 0.0848(2) 0.07930(14)
C45_2 C 0.1273(2) 0.0551(2) 0.09219(15)
H28_2 H 0.1174 0.0282 0.0932
C46_2 C 0.1644(2) 0.0639(2) 0.10339(17)
H29_2 H 0.1796 0.0434 0.1122
C47_2 C 0.5735(2) 0.5619(2) 0.43275(14)
C48_2 C 0.28273(19) 0.0908(2) 0.17992(14)
C49_2 C 0.2732(2) 0.0514(2) 0.18830(17)
H30_2 H 0.2566 0.0354 0.1768
C50_2 C 0.2871(2) 0.0350(2) 0.21243(17)
H31_2 H 0.2811 0.0077 0.2168
C51_2 C 0.3098(2) 0.0580(2) 0.23041(15)
C52_2 C 0.3209(2) 0.0977(2) 0.22373(17)
H32_2 H 0.3374 0.1133 0.2356
C53_2 C 0.3062(2) 0.1141(2) 0.19804(17)
H33_2 H 0.3125 0.1412 0.1933
C54_2 C 0.4600(2) 0.3241(3) 0.00819(16)
C56_2 C 0.59813(18) 0.26854(19) 0.17884(16)
C57_2 C 0.6218(2) 0.2819(2) 0.20163(16)
H34_2 H 0.6217 0.2672 0.2183
C58_2 C 0.6453(2) 0.3171(2) 0.19894(17)
H35_2 H 0.6617 0.3255 0.2138
C59_2 C 0.6449(2) 0.3409(2) 0.17414(16)
C60_2 C 0.62246(19) 0.3254(2) 0.15201(14)
H36_2 H 0.6227 0.3396 0.1351
C61_2 C 0.59923(19) 0.2887(2) 0.15397(15)
H37_2 H 0.5850 0.2786 0.1385
C62_2 C 0.6643(2) 0.3825(2) 0.17238(14)
C63_2 C 0.7011(2) 0.3909(2) 0.18526(16)
H38_2 H 0.7151 0.3701 0.1948
C64_2 C 0.7174(2) 0.4303(2) 0.18410(17)
C65_2 C 0.6980(2) 0.4605(2) 0.16963(16)
H39_2 H 0.7096 0.4866 0.1682
C66_2 C 0.6601(2) 0.4515(2) 0.15683(14)
C67_2 C 0.6449(2) 0.4127(2) 0.15836(14)
H40_2 H 0.6202 0.4068 0.1494
C68_2 C 0.75606(14) 0.44082(18) 0.20065(11)
C69_2 C 0.75911(13) 0.43053(18) 0.22880(11)
H41_2 H 0.7377 0.4166 0.2376
C70_2 C 0.79424(16) 0.44106(17) 0.24383(8)
H42_2 H 0.7963 0.4342 0.2627
C71_2 C 0.82632(13) 0.46188(17) 0.23071(10)
C72_2 C 0.82326(14) 0.47217(18) 0.20257(11)
H43_2 H 0.8447 0.4861 0.1938
C73_2 C 0.78813(17) 0.46164(19) 0.18754(9)
H44_2 H 0.7861 0.4685 0.1687
C74_2 C 0.6368(2) 0.4749(2) 0.5030(2)
C75_2 C 0.6355(2) 0.4848(2) 0.14214(15)
C76_2 C 0.6555(2) 0.5172(2) 0.12821(17)
H45_2 H 0.6841 0.5186 0.1277
C77_2 C 0.6307(2) 0.5481(2) 0.11479(17)
H46_2 H 0.6435 0.5703 0.1060
C78_2 C 0.5889(2) 0.5455(2) 0.11479(17)
C79_2 C 0.5691(2) 0.5142(3) 0.12768(17)
H47_2 H 0.5405 0.5132 0.1279
C80_2 C 0.5927(2) 0.4829(2) 0.14087(15)
H48_2 H 0.5793 0.4605 0.1489
C81_2 C 0.4367(3) 0.4225(2) 0.10176(18)
Zn7_2 Zn 0.48442(3) 0.61723(3) 0.102460(17)
Zn8_2 Zn 0.61723(3) 0.01558(3) 0.352460(17)
Zn9_2 Zn 0.35075(3) 0.06651(3) 0.31515(2)
Zn10_2 Zn 0.56651(3) 0.64925(3) 0.06515(2)
Zn12_2 Zn 0.67001(3) 0.02905(2) 0.29443(2)
Zn14_3 Zn 0.0000 0.0000 0.065457(19)
Zn16_2 Zn 0.91058(2) 0.48291(2) 0.294929(16)
O23_2 O 0.46315(15) 0.52669(14) 0.40407(9)
O24_2 O 0.60550(15) 0.07109(18) 0.33893(11)
O25_2 O 0.62251(16) 0.06548(17) 0.29389(12)
O27_2 O 0.03880(14) 0.10168(14) 0.05859(10)
O28_2 O 0.46376(12) 0.44648(15) 0.43231(10)
O29_2 O 0.05352(15) 0.03624(12) 0.06769(10)
O30_2 O 0.31587(18) 0.00382(18) 0.26274(11)
O31_2 O 0.34453(17) 0.06382(18) 0.27432(12)
O34_2 O 0.86303(13) 0.46577(16) 0.27296(12)
O35_2 O 0.88984(17) 0.4949(2) 0.23549(12)
H49_2 H 0.9090 0.5001 0.2471
O36_2 O 0.58333(16) 0.60622(19) 0.09035(16)
O37_2 O 0.52548(17) 0.57255(16) 0.10143(12)
O38_2 O 0.46697(10) 0.52708(10) 0.46769(7)
O39_2 O 0.52708(10) 0.46697(10) 0.53231(7)
O40_2 O 0.47292(10) 0.53303(10) 0.53231(7)
O41_2 O 0.54716(11) 0.54716(11) 0.5000
C82_2 C 0.6295(2) 0.4018(2) 0.06009(15)
C83_2 C 0.6095(3) 0.0854(2) 0.3148(2)
C84_2 C 0.5848(2) 0.60357(19) 0.42070(14)
C85_2 C 0.0619(2) 0.0735(2) 0.06725(14)
C87_2 C 0.3241(3) 0.0400(2) 0.25819(16)
C89_2 C 0.67368(13) 0.46188(17) 0.51929(10)
C90_2 C 0.8632(2) 0.4749(2) 0.2470(2)
C91_2 C 0.4111(2) 0.4545(2) 0.11479(17)
C92_2 C 0.5633(3) 0.5775(2) 0.10176(18)
C86_2 C 0.4420(2) 0.3098(2) 0.98041(15)
Zn11_2 Zn 0.32999(3) 0.97095(2) 0.29443(2)
Zn14_4 Zn 0.0000 1.0000 0.065457(19)
Zn14_5 Zn 1.0000 0.0000 0.065457(19)
Zn15_2 Zn 0.98291(2) 0.08942(2) 0.044929(16)
Zn14_6 Zn 1.0000 1.0000 0.065457(19)
Zn2_3 Zn 0.06651(3) 0.35075(3) 0.68485(2)
Zn4_4 Zn 0.0000 0.5000 0.315457(19)
Zn6_4 Zn 0.0000 0.5000 0.2500
K1_2 K 0.00862(7) 0.2500 0.6250
O1_2 O 0.00758(17) 0.33117(16) 0.61267(10)
O7_2 O 0.06228(17) 0.27438(14) 0.66612(10)
O8_3 O 0.11319(15) 0.31372(15) 0.67922(11)
O11_3 O 0.00382(18) 0.31587(18) 0.73726(11)
O12_3 O 0.06382(18) 0.34453(17) 0.72568(12)
O17_3 O 0.08333(16) 0.39378(19) 0.65965(16)
O18_3 O 0.02548(17) 0.42745(16) 0.64857(12)
O19_3 O 0.00768(13) 0.34305(12) 0.67440(8)
H2_3 H 0.0081 0.3207 0.6651
O21_3 O 0.04716(11) 0.45284(11) 0.2500
H6_3 H 0.0041 0.2764 0.5218
H7_3 H 0.0165 0.2937 0.5665
C28_3 C 0.1000(2) 0.2808(2) 0.66974(15)
C29_3 C 0.1295(2) 0.2458(2) 0.66369(13)
C30_3 C 0.1707(2) 0.2524(2) 0.66680(15)
H19_3 H 0.1805 0.2773 0.6738
C31_3 C 0.1970(2) 0.2219(3) 0.65952(17)
H20_3 H 0.2251 0.2262 0.6622
C32_3 C 0.1844(2) 0.1849(2) 0.64844(14)
C33_3 C 0.1430(2) 0.1795(2) 0.64551(15)
H21_3 H 0.1334 0.1552 0.6375
C34_3 C 0.1153(2) 0.2082(2) 0.65374(14)
H22_3 H 0.0872 0.2028 0.6527
C35_3 C 0.21472(19) 0.1539(2) 0.63616(15)
C36_3 C 0.2512(2) 0.1444(2) 0.64771(15)
H23_3 H 0.2585 0.1567 0.6645
C37_3 C 0.2783(2) 0.1168(2) 0.63553(15)
C38_3 C 0.2666(2) 0.0984(2) 0.61017(17)
H24_3 H 0.2838 0.0790 0.6018
C39_3 C 0.22887(19) 0.10915(19) 0.59729(16)
C40_3 C 0.2041(2) 0.1363(2) 0.61109(16)
H25_3 H 0.1788 0.1431 0.6032
C41_3 C 0.3193(2) 0.1061(2) 0.64842(16)
C42_3 C 0.3441(3) 0.1343(2) 0.66026(18)
H26_3 H 0.3358 0.1617 0.6607
C43_3 C 0.3815(2) 0.1234(2) 0.67177(16)
H27_3 H 0.3970 0.1436 0.6807
C44_3 C 0.39643(19) 0.0848(2) 0.67070(14)
C45_3 C 0.3727(2) 0.0551(2) 0.65781(15)
H28_3 H 0.3826 0.0282 0.6568
C46_3 C 0.3356(2) 0.0639(2) 0.64661(17)
H29_3 H 0.3204 0.0434 0.6378
C48_3 C 0.21727(19) 0.0908(2) 0.57008(14)
C49_3 C 0.2268(2) 0.0514(2) 0.56170(17)
H30_3 H 0.2434 0.0354 0.5732
C50_3 C 0.2129(2) 0.0350(2) 0.53757(17)
H31_3 H 0.2189 0.0077 0.5332
C51_3 C 0.1902(2) 0.0580(2) 0.51959(15)
C52_3 C 0.1791(2) 0.0977(2) 0.52627(17)
H32_3 H 0.1626 0.1133 0.5144
C53_3 C 0.1938(2) 0.1141(2) 0.55196(17)
H33_3 H 0.1875 0.1412 0.5567
C54_3 C 0.0400(2) 0.3241(3) 0.74181(16)
C81_3 C 0.0633(3) 0.4225(2) 0.64824(18)
Zn7_3 Zn 0.01558(3) 0.61723(3) 0.647540(17)
Zn9_3 Zn 0.14925(3) 0.06651(3) 0.43485(2)
Zn14_7 Zn 0.5000 0.0000 0.684543(19)
Zn15_3 Zn 0.51709(2) 0.08942(2) 0.705071(16)
O22_2 O 0.00758(17) 0.16883(16) 0.63733(10)
O23_3 O 0.03685(15) 0.52669(14) 0.34593(9)
O26_2 O 0.06228(17) 0.22562(14) 0.58388(10)
O27_3 O 0.46120(14) 0.10168(14) 0.69141(10)
O28_3 O 0.03624(12) 0.44648(15) 0.31769(10)
O29_3 O 0.44648(15) 0.03624(12) 0.68231(10)
O30_3 O 0.18413(18) 0.00382(18) 0.48726(11)
O31_3 O 0.15547(17) 0.06382(18) 0.47568(12)
O38_3 O 0.03303(10) 0.52708(10) 0.28231(7)
O40_3 O 0.02708(10) 0.53303(10) 0.21769(7)
C85_3 C 0.4381(2) 0.0735(2) 0.68275(14)
C86_3 C 0.0580(2) 0.3098(2) 0.76959(15)
C87_3 C 0.1759(3) 0.0400(2) 0.49181(16)
C91_3 C 0.0889(2) 0.4545(2) 0.63521(17)
Zn11_3 Zn 0.17001(3) 0.97095(2) 0.45557(2)
Zn14_8 Zn 0.5000 1.0000 0.684543(19)
Zn1_3 Zn 0.98442(3) 0.38277(3) 0.647540(17)
Zn3_2 Zn 0.97095(2) 0.32999(3) 0.70557(2)
Zn4_5 Zn 1.0000 0.5000 0.315457(19)
Zn6_5 Zn 1.0000 0.5000 0.2500
O2_3 O 0.97027(16) 0.38651(17) 0.60713(11)
O3_3 O 0.96315(15) 0.47331(14) 0.34593(9)
O4_3 O 0.90828(15) 0.44310(14) 0.32728(10)
O5_3 O 0.92891(18) 0.39450(15) 0.66107(11)
O6_3 O 0.93452(17) 0.37749(16) 0.70611(12)
O9_3 O 0.89832(14) 0.53880(14) 0.30859(10)
O10_3 O 0.96376(12) 0.55352(15) 0.31769(10)
O13_2 O 0.95222(15) 0.22227(14) 0.58777(12)
O14_2 O 0.93030(13) 0.28507(15) 0.70557(12)
O20_3 O 0.96697(10) 0.47292(10) 0.28231(7)
H3_3 H 0.9715 0.4471 0.2823
C1_3 C 0.9882(3) 0.3546(3) 0.59809(16)
C2_3 C 0.9836(2) 0.3449(2) 0.56801(15)
C3_3 C 0.9589(3) 0.3711(2) 0.55123(16)
H4_3 H 0.9483 0.3955 0.5585
C4_3 C 0.9508(3) 0.3595(2) 0.52348(16)
H5_3 H 0.9335 0.3761 0.5128
C5_3 C 0.9673(2) 0.3247(2) 0.51145(14)
C6_3 C 0.9923(2) 0.30030(19) 0.52897(14)
C7_3 C 0.9997(2) 0.3108(2) 0.55580(13)
C8_3 C 0.9552(2) 0.3101(2) 0.48293(14)
C9_3 C 0.9560(2) 0.3379(2) 0.46046(16)
H8_3 H 0.9644 0.3650 0.4632
C10_3 C 0.9441(2) 0.3242(3) 0.43375(15)
C11_3 C 0.9325(2) 0.2835(2) 0.42966(15)
H9_3 H 0.9242 0.2744 0.4121
C12_3 C 0.9336(2) 0.2568(2) 0.45176(15)
C13_3 C 0.9452(2) 0.27011(19) 0.47772(14)
H10_3 H 0.9463 0.2512 0.4923
C14_3 C 0.9405(3) 0.3561(2) 0.41037(15)
C15_3 C 0.9714(3) 0.3870(3) 0.40776(16)
H11_3 H 0.9928 0.3878 0.4207
C16_3 C 0.9706(3) 0.4152(2) 0.38719(17)
H12_3 H 0.9910 0.4353 0.3861
C17_3 C 0.9390(2) 0.4140(2) 0.36762(15)
C18_3 C 0.9093(3) 0.3829(3) 0.37022(18)
H13_3 H 0.8888 0.3812 0.3567
C19_3 C 0.9088(3) 0.3557(2) 0.39100(17)
H14_3 H 0.8874 0.3367 0.3925
C20_3 C 0.9367(2) 0.4464(2) 0.34515(13)
C21_3 C 0.9225(2) 0.2130(2) 0.44722(15)
C22_3 C 0.9303(3) 0.1938(2) 0.42229(16)
H15_3 H 0.9426 0.2085 0.4078
C23_3 C 0.9196(3) 0.1514(2) 0.41837(16)
H16_3 H 0.9246 0.1387 0.4013
C24_3 C 0.9018(2) 0.1295(2) 0.43991(15)
C25_3 C 0.8940(3) 0.1493(2) 0.46455(16)
H17_3 H 0.8814 0.1352 0.4792
C26_3 C 0.9046(3) 0.1903(2) 0.46790(16)
H18_3 H 0.8994 0.2029 0.4850
C27_3 C 0.9146(2) 0.3905(3) 0.6852(2)
C47_3 C 0.9265(2) 0.5619(2) 0.31725(14)
C55_2 C 0.9302(2) 0.2330(2) 0.56743(18)
C56_3 C 0.90187(18) 0.26854(19) 0.57116(16)
C57_3 C 0.8782(2) 0.2819(2) 0.54837(16)
H34_3 H 0.8783 0.2672 0.5317
C58_3 C 0.8547(2) 0.3171(2) 0.55106(17)
H35_3 H 0.8383 0.3255 0.5362
C59_3 C 0.8551(2) 0.3409(2) 0.57586(16)
C60_3 C 0.87754(19) 0.3254(2) 0.59799(14)
H36_3 H 0.8773 0.3396 0.6149
C61_3 C 0.90077(19) 0.2887(2) 0.59603(15)
H37_3 H 0.9150 0.2786 0.6115
C62_3 C 0.8357(2) 0.3825(2) 0.57762(14)
C63_3 C 0.7989(2) 0.3909(2) 0.56474(16)
H38_3 H 0.7849 0.3701 0.5552
C64_3 C 0.7826(2) 0.4303(2) 0.56590(17)
C65_3 C 0.8020(2) 0.4605(2) 0.58037(16)
H39_3 H 0.7904 0.4866 0.5818
C66_3 C 0.8399(2) 0.4515(2) 0.59317(14)
C67_3 C 0.8551(2) 0.4127(2) 0.59164(14)
H40_3 H 0.8798 0.4068 0.6006
C68_3 C 0.74394(14) 0.44082(18) 0.54935(11)
C69_3 C 0.74089(13) 0.43053(18) 0.52120(11)
H41_3 H 0.7623 0.4166 0.5124
C70_3 C 0.70576(16) 0.44106(17) 0.50617(8)
H42_3 H 0.7037 0.4342 0.4873
C72_3 C 0.67674(14) 0.47217(18) 0.54743(11)
H43_3 H 0.6553 0.4861 0.5562
C73_3 C 0.71187(17) 0.46164(19) 0.56246(9)
H44_3 H 0.7139 0.4685 0.5813
C75_3 C 0.8645(2) 0.4848(2) 0.60786(15)
C76_3 C 0.8445(2) 0.5172(2) 0.62179(17)
H45_3 H 0.8159 0.5186 0.6223
C77_3 C 0.8693(2) 0.5481(2) 0.63521(17)
H46_3 H 0.8565 0.5703 0.6440
C78_3 C 0.9111(2) 0.5455(2) 0.63521(17)
C79_3 C 0.9309(2) 0.5142(3) 0.62232(17)
H47_3 H 0.9595 0.5132 0.6221
C80_3 C 0.9073(2) 0.4829(2) 0.60913(15)
H48_3 H 0.9207 0.4605 0.6011
Zn8_3 Zn 0.88277(3) 0.01558(3) 0.397540(17)
Zn10_3 Zn 0.93349(3) 0.64925(3) 0.68485(2)
Zn12_3 Zn 0.82999(3) 0.02905(2) 0.45557(2)
Zn13_2 Zn 0.97095(2) 0.17001(3) 0.54443(2)
O24_3 O 0.89450(15) 0.07109(18) 0.41107(11)
O25_3 O 0.87749(16) 0.06548(17) 0.45611(12)
O32_2 O 0.95222(15) 0.27773(14) 0.66223(12)
O33_2 O 0.93030(13) 0.21493(15) 0.54443(12)
O36_3 O 0.91667(16) 0.60622(19) 0.65965(16)
O37_3 O 0.97452(17) 0.57255(16) 0.64857(12)
O39_3 O 0.97292(10) 0.46697(10) 0.21769(7)
O41_3 O 0.95284(11) 0.54716(11) 0.2500
C82_3 C 0.8705(2) 0.4018(2) 0.68991(15)
C83_3 C 0.8905(3) 0.0854(2) 0.4352(2)
C84_3 C 0.9152(2) 0.60357(19) 0.32930(14)
C88_2 C 0.9302(2) 0.2670(2) 0.68257(18)
C92_3 C 0.9367(3) 0.5775(2) 0.64824(18)
Zn6_6 Zn 0.0000 0.0000 -0.0000
O21_4 O 0.04716(11) 0.04716(11) -0.0000
Zn2_4 Zn 0.06651(3) 0.14925(3) 0.56515(2)
Zn4_6 Zn 0.0000 0.0000 0.934543(19)
Zn6_7 Zn 0.0000 0.0000 1.0000
O8_4 O 0.11319(15) 0.18628(15) 0.57078(11)
O11_4 O 0.00382(18) 0.18413(18) 0.51274(11)
O12_4 O 0.06382(18) 0.15547(17) 0.52432(12)
O17_4 O 0.08333(16) 0.10622(19) 0.59035(16)
O18_4 O 0.02548(17) 0.07255(16) 0.60143(12)
O19_4 O 0.00768(13) 0.15695(12) 0.57560(8)
H2_4 H 0.0081 0.1793 0.5849
O21_5 O 0.04716(11) 0.04716(11) 1.0000
H6_4 H 0.0041 0.2236 0.7282
H7_4 H 0.0165 0.2063 0.6835
C28_4 C 0.1000(2) 0.2192(2) 0.58026(15)
C29_4 C 0.1295(2) 0.2542(2) 0.58631(13)
C30_4 C 0.1707(2) 0.2476(2) 0.58320(15)
H19_4 H 0.1805 0.2227 0.5762
C31_4 C 0.1970(2) 0.2781(3) 0.59048(17)
H20_4 H 0.2251 0.2738 0.5878
C32_4 C 0.1844(2) 0.3151(2) 0.60156(14)
C33_4 C 0.1430(2) 0.3205(2) 0.60449(15)
H21_4 H 0.1334 0.3448 0.6125
C34_4 C 0.1153(2) 0.2918(2) 0.59626(14)
H22_4 H 0.0872 0.2972 0.5973
C35_4 C 0.21472(19) 0.3461(2) 0.61384(15)
C36_4 C 0.2512(2) 0.3556(2) 0.60229(15)
H23_4 H 0.2585 0.3433 0.5855
C37_4 C 0.2783(2) 0.3832(2) 0.61447(15)
C38_4 C 0.2666(2) 0.4016(2) 0.63983(17)
H24_4 H 0.2838 0.4210 0.6482
C39_4 C 0.22887(19) 0.39085(19) 0.65271(16)
C40_4 C 0.2041(2) 0.3637(2) 0.63891(16)
H25_4 H 0.1788 0.3569 0.6468
C41_4 C 0.3193(2) 0.3939(2) 0.60158(16)
C42_4 C 0.3441(3) 0.3657(2) 0.58974(18)
H26_4 H 0.3358 0.3383 0.5893
C43_4 C 0.3815(2) 0.3766(2) 0.57823(16)
H27_4 H 0.3970 0.3564 0.5693
C44_4 C 0.39643(19) 0.4152(2) 0.57930(14)
C45_4 C 0.3727(2) 0.4449(2) 0.59219(15)
H28_4 H 0.3826 0.4718 0.5932
C46_4 C 0.3356(2) 0.4361(2) 0.60339(17)
H29_4 H 0.3204 0.4566 0.6122
C48_4 C 0.21727(19) 0.4092(2) 0.67992(14)
C49_4 C 0.2268(2) 0.4486(2) 0.68830(17)
H30_4 H 0.2434 0.4646 0.6768
C50_4 C 0.2129(2) 0.4650(2) 0.71243(17)
H31_4 H 0.2189 0.4923 0.7168
C51_4 C 0.1902(2) 0.4420(2) 0.73041(15)
C52_4 C 0.1791(2) 0.4023(2) 0.72373(17)
H32_4 H 0.1626 0.3867 0.7356
C53_4 C 0.1938(2) 0.3859(2) 0.69804(17)
H33_4 H 0.1875 0.3588 0.6933
C54_4 C 0.0400(2) 0.1759(3) 0.50819(16)
C81_4 C 0.0633(3) 0.0775(2) 0.60176(18)
Zn9_4 Zn 0.14925(3) 0.43349(3) 0.81515(2)
Zn11_4 Zn 0.17001(3) 0.52905(2) 0.79443(2)
Zn14_9 Zn 0.5000 0.5000 0.565457(19)
Zn15_4 Zn 0.51709(2) 0.41058(2) 0.544929(16)
O27_4 O 0.46120(14) 0.39832(14) 0.55859(10)
O28_4 O 0.03624(12) 0.05352(15) 0.93231(10)
O29_4 O 0.44648(15) 0.46376(12) 0.56769(10)
O30_4 O 0.18413(18) 0.49618(18) 0.76274(11)
O31_4 O 0.15547(17) 0.43618(18) 0.77432(12)
C85_4 C 0.4381(2) 0.4265(2) 0.56725(14)
C86_4 C 0.0580(2) 0.1902(2) 0.48041(15)
C87_4 C 0.1759(3) 0.4600(2) 0.75819(16)
C91_4 C 0.0889(2) 0.0455(2) 0.61479(17)
Zn6_8 Zn 0.0000 1.0000 -0.0000
O40_4 O 0.02708(10) 0.96697(10) 0.03231(7)
Zn4_7 Zn 0.0000 1.0000 0.934543(19)
Zn6_9 Zn 0.0000 1.0000 1.0000
Zn7_4 Zn 0.01558(3) 0.88277(3) 0.602460(17)
O23_4 O 0.03685(15) 0.97331(14) 0.90407(9)
O38_4 O 0.03303(10) 0.97292(10) 0.96769(7)
Zn6_10 Zn 1.0000 0.0000 -0.0000
O39_4 O 0.97292(10) 0.03303(10) 0.03231(7)
Zn1_4 Zn 0.98442(3) 0.11723(3) 0.602460(17)
Zn4_8 Zn 1.0000 0.0000 0.934543(19)
Zn6_11 Zn 1.0000 0.0000 1.0000
O2_4 O 0.97027(16) 0.11349(17) 0.64287(11)
O3_4 O 0.96315(15) 0.02669(14) 0.90407(9)
O4_4 O 0.90828(15) 0.05690(14) 0.92272(10)
O5_4 O 0.92891(18) 0.10550(15) 0.58893(11)
O6_4 O 0.93452(17) 0.12251(16) 0.54389(12)
O20_4 O 0.96697(10) 0.02708(10) 0.96769(7)
H3_4 H 0.9715 0.0529 0.9677
C1_4 C 0.9882(3) 0.1454(3) 0.65191(16)
C2_4 C 0.9836(2) 0.1551(2) 0.68199(15)
C3_4 C 0.9589(3) 0.1289(2) 0.69877(16)
H4_4 H 0.9483 0.1045 0.6915
C4_4 C 0.9508(3) 0.1405(2) 0.72652(16)
H5_4 H 0.9335 0.1239 0.7372
C5_4 C 0.9673(2) 0.1753(2) 0.73855(14)
C6_4 C 0.9923(2) 0.19970(19) 0.72103(14)
C7_4 C 0.9997(2) 0.1892(2) 0.69420(13)
C8_4 C 0.9552(2) 0.1899(2) 0.76707(14)
C9_4 C 0.9560(2) 0.1621(2) 0.78954(16)
H8_4 H 0.9644 0.1350 0.7868
C10_4 C 0.9441(2) 0.1758(3) 0.81625(15)
C11_4 C 0.9325(2) 0.2165(2) 0.82034(15)
H9_4 H 0.9242 0.2256 0.8379
C12_4 C 0.9336(2) 0.2432(2) 0.79824(15)
C13_4 C 0.9452(2) 0.22989(19) 0.77228(14)
H10_4 H 0.9463 0.2488 0.7577
C14_4 C 0.9405(3) 0.1439(2) 0.83963(15)
C15_4 C 0.9714(3) 0.1130(3) 0.84224(16)
H11_4 H 0.9928 0.1122 0.8293
C16_4 C 0.9706(3) 0.0848(2) 0.86281(17)
H12_4 H 0.9910 0.0647 0.8639
C17_4 C 0.9390(2) 0.0860(2) 0.88238(15)
C18_4 C 0.9093(3) 0.1171(3) 0.87978(18)
H13_4 H 0.8888 0.1188 0.8933
C19_4 C 0.9088(3) 0.1443(2) 0.85900(17)
H14_4 H 0.8874 0.1633 0.8575
C20_4 C 0.9367(2) 0.0536(2) 0.90485(13)
C21_4 C 0.9225(2) 0.2870(2) 0.80278(15)
C22_4 C 0.9303(3) 0.3062(2) 0.82771(16)
H15_4 H 0.9426 0.2915 0.8422
C23_4 C 0.9196(3) 0.3486(2) 0.83163(16)
H16_4 H 0.9246 0.3613 0.8487
C24_4 C 0.9018(2) 0.3705(2) 0.81009(15)
C25_4 C 0.8940(3) 0.3507(2) 0.78545(16)
H17_4 H 0.8814 0.3648 0.7708
C26_4 C 0.9046(3) 0.3097(2) 0.78210(16)
H18_4 H 0.8994 0.2971 0.7650
C27_4 C 0.9146(2) 0.1095(3) 0.5648(2)
C56_4 C 0.90187(18) 0.23146(19) 0.67884(16)
C57_4 C 0.8782(2) 0.2181(2) 0.70163(16)
H34_4 H 0.8783 0.2328 0.7183
C58_4 C 0.8547(2) 0.1829(2) 0.69894(17)
H35_4 H 0.8383 0.1745 0.7138
C59_4 C 0.8551(2) 0.1591(2) 0.67414(16)
C60_4 C 0.87754(19) 0.1746(2) 0.65201(14)
H36_4 H 0.8773 0.1604 0.6351
C61_4 C 0.90077(19) 0.2113(2) 0.65397(15)
H37_4 H 0.9150 0.2214 0.6385
C62_4 C 0.8357(2) 0.1175(2) 0.67238(14)
C63_4 C 0.7989(2) 0.1091(2) 0.68526(16)
H38_4 H 0.7849 0.1299 0.6948
C64_4 C 0.7826(2) 0.0697(2) 0.68410(17)
C65_4 C 0.8020(2) 0.0395(2) 0.66963(16)
H39_4 H 0.7904 0.0134 0.6682
C66_4 C 0.8399(2) 0.0485(2) 0.65683(14)
C67_4 C 0.8551(2) 0.0873(2) 0.65836(14)
H40_4 H 0.8798 0.0932 0.6494
C68_4 C 0.74394(14) 0.05918(18) 0.70065(11)
C69_4 C 0.74089(13) 0.06947(18) 0.72880(11)
H41_4 H 0.7623 0.0834 0.7376
C70_4 C 0.70576(16) 0.05894(17) 0.74383(8)
H42_4 H 0.7037 0.0658 0.7627
C72_4 C 0.67674(14) 0.02783(18) 0.70257(11)
H43_4 H 0.6553 0.0139 0.6938
C73_4 C 0.71187(17) 0.03836(19) 0.68754(9)
H44_4 H 0.7139 0.0315 0.6687
C75_4 C 0.8645(2) 0.0152(2) 0.64214(15)
C80_4 C 0.9073(2) 0.0171(2) 0.64087(15)
H48_4 H 0.9207 0.0395 0.6489
Zn8_4 Zn 0.88277(3) 0.48442(3) 0.852460(17)
Zn12_4 Zn 0.82999(3) 0.47095(2) 0.79443(2)
O24_4 O 0.89450(15) 0.42891(18) 0.83893(11)
O25_4 O 0.87749(16) 0.43452(17) 0.79389(12)
C82_4 C 0.8705(2) 0.0982(2) 0.56009(15)
C83_4 C 0.8905(3) 0.4146(2) 0.8148(2)
Zn6_12 Zn 1.0000 1.0000 -0.0000
O41_4 O 0.95284(11) 0.95284(11) -0.0000
Zn4_9 Zn 1.0000 1.0000 0.934543(19)
Zn6_13 Zn 1.0000 1.0000 1.0000
O9_4 O 0.89832(14) 0.96120(14) 0.94141(10)
O10_4 O 0.96376(12) 0.94648(15) 0.93231(10)
C47_4 C 0.9265(2) 0.9381(2) 0.93275(14)
C76_4 C 0.8445(2) 0.9828(2) 0.62821(17)
H45_4 H 0.8159 0.9814 0.6277
C77_4 C 0.8693(2) 0.9519(2) 0.61479(17)
H46_4 H 0.8565 0.9297 0.6060
C78_4 C 0.9111(2) 0.9545(2) 0.61479(17)
C79_4 C 0.9309(2) 0.9858(3) 0.62768(17)
H47_4 H 0.9595 0.9868 0.6279
Zn10_4 Zn 0.93349(3) 0.85075(3) 0.56515(2)
O36_4 O 0.91667(16) 0.89378(19) 0.59035(16)
O37_4 O 0.97452(17) 0.92745(16) 0.60143(12)
O41_5 O 0.95284(11) 0.95284(11) 1.0000
C84_4 C 0.9152(2) 0.89643(19) 0.92070(14)
C92_4 C 0.9367(3) 0.9225(2) 0.60176(18)
Zn11_5 Zn 0.02905(2) 0.82999(3) 0.54443(2)
O2_5 O 0.61349(17) 0.02973(16) 0.39287(11)
O3_5 O 0.52669(14) 0.03685(15) 0.65407(9)
O4_5 O 0.55690(14) 0.09172(15) 0.67272(10)
O13_3 O 0.77773(14) 0.04778(15) 0.41223(12)
O14_3 O 0.71493(15) 0.06970(13) 0.29443(12)
O15_3 O 0.53423(16) 0.13697(13) 0.72704(12)
O16_3 O 0.5051(2) 0.11016(17) 0.76451(12)
H1_3 H 0.4999 0.0910 0.7529
H3_5 H 0.5529 0.0285 0.7177
C1_5 C 0.6454(3) 0.0118(3) 0.40191(16)
C2_5 C 0.6551(2) 0.0164(2) 0.43199(15)
C3_5 C 0.6289(2) 0.0411(3) 0.44877(16)
H4_5 H 0.6045 0.0517 0.4415
C4_5 C 0.6405(2) 0.0492(3) 0.47652(16)
H5_5 H 0.6239 0.0665 0.4872
C5_5 C 0.6753(2) 0.0327(2) 0.48855(14)
C6_5 C 0.69970(19) 0.0077(2) 0.47103(14)
C7_5 C 0.6892(2) 0.0003(2) 0.44420(13)
C8_5 C 0.6899(2) 0.0448(2) 0.51707(14)
C9_5 C 0.6621(2) 0.0440(2) 0.53954(16)
H8_5 H 0.6350 0.0356 0.5368
C10_5 C 0.6758(3) 0.0559(2) 0.56625(15)
C11_5 C 0.7165(2) 0.0675(2) 0.57034(15)
H9_5 H 0.7256 0.0758 0.5879
C12_5 C 0.7432(2) 0.0664(2) 0.54824(15)
C13_5 C 0.72989(19) 0.0548(2) 0.52228(14)
H10_5 H 0.7488 0.0537 0.5077
C14_5 C 0.6439(2) 0.0595(3) 0.58963(15)
C15_5 C 0.6130(3) 0.0286(3) 0.59224(16)
H11_5 H 0.6122 0.0072 0.5793
C16_5 C 0.5848(2) 0.0294(3) 0.61281(17)
H12_5 H 0.5647 0.0090 0.6139
C17_5 C 0.5860(2) 0.0610(2) 0.63238(15)
C18_5 C 0.6171(3) 0.0907(3) 0.62978(18)
H13_5 H 0.6188 0.1112 0.6433
C19_5 C 0.6443(2) 0.0912(3) 0.60900(17)
H14_5 H 0.6633 0.1126 0.6075
C20_5 C 0.5536(2) 0.0633(2) 0.65485(13)
C21_5 C 0.7870(2) 0.0775(2) 0.55278(15)
C22_5 C 0.8062(2) 0.0697(3) 0.57771(16)
H15_5 H 0.7915 0.0574 0.5922
C23_5 C 0.8486(2) 0.0804(3) 0.58163(16)
H16_5 H 0.8613 0.0754 0.5987
C25_5 C 0.8507(2) 0.1060(3) 0.53545(16)
H17_5 H 0.8648 0.1186 0.5208
C26_5 C 0.8097(2) 0.0954(3) 0.53210(16)
H18_5 H 0.7971 0.1006 0.5150
C55_3 C 0.7670(2) 0.0698(2) 0.43257(18)
C56_5 C 0.73146(19) 0.09813(18) 0.42884(16)
C57_5 C 0.7181(2) 0.1218(2) 0.45163(16)
H34_5 H 0.7328 0.1217 0.4683
C58_5 C 0.6829(2) 0.1453(2) 0.44894(17)
H35_5 H 0.6745 0.1617 0.4638
C59_5 C 0.6591(2) 0.1449(2) 0.42414(16)
C60_5 C 0.6746(2) 0.12246(19) 0.40201(14)
H36_5 H 0.6604 0.1227 0.3851
C61_5 C 0.7113(2) 0.09923(19) 0.40397(15)
H37_5 H 0.7214 0.0850 0.3885
C62_5 C 0.6175(2) 0.1643(2) 0.42238(14)
C63_5 C 0.6091(2) 0.2011(2) 0.43526(16)
H38_5 H 0.6299 0.2151 0.4448
C64_5 C 0.5697(2) 0.2174(2) 0.43410(17)
C65_5 C 0.5395(2) 0.1980(2) 0.41963(16)
H39_5 H 0.5134 0.2096 0.4182
C66_5 C 0.5485(2) 0.1601(2) 0.40683(14)
C67_5 C 0.5873(2) 0.1449(2) 0.40836(14)
H40_5 H 0.5932 0.1202 0.3994
C68_5 C 0.55918(18) 0.25606(14) 0.45065(11)
C69_5 C 0.56947(18) 0.25911(13) 0.47880(11)
H41_5 H 0.5834 0.2377 0.4876
C70_5 C 0.55894(17) 0.29424(16) 0.49383(8)
H42_5 H 0.5658 0.2963 0.5127
C71_3 C 0.53812(17) 0.32632(13) 0.48071(10)
C72_5 C 0.52783(18) 0.32326(14) 0.45257(11)
H43_5 H 0.5139 0.3447 0.4438
C73_5 C 0.53836(19) 0.28813(17) 0.43754(9)
H44_5 H 0.5315 0.2861 0.4187
C74_3 C 0.5251(2) 0.1368(2) 0.7530(2)
C75_5 C 0.5152(2) 0.1355(2) 0.39214(15)
C76_5 C 0.4828(2) 0.1555(2) 0.37821(17)
H45_5 H 0.4814 0.1841 0.3777
C77_5 C 0.4519(2) 0.1307(2) 0.36479(17)
H46_5 H 0.4297 0.1435 0.3560
C78_5 C 0.4545(2) 0.0889(2) 0.36479(17)
C79_5 C 0.4858(3) 0.0691(2) 0.37768(17)
H47_5 H 0.4868 0.0405 0.3779
C80_5 C 0.5171(2) 0.0927(2) 0.39087(15)
H48_5 H 0.5395 0.0793 0.3989
O32_3 O 0.72227(14) 0.04778(15) 0.33777(12)
O33_3 O 0.78507(15) 0.06970(13) 0.45557(12)
O34_3 O 0.53423(16) 0.36303(13) 0.52296(12)
O35_3 O 0.5051(2) 0.38984(17) 0.48549(12)
H49_3 H 0.4999 0.4090 0.4971
O36_5 O 0.39378(19) 0.08333(16) 0.34035(16)
O37_5 O 0.42745(16) 0.02548(17) 0.35143(12)
C88_3 C 0.7330(2) 0.0698(2) 0.31743(18)
C89_3 C 0.53812(17) 0.17368(13) 0.76929(10)
C90_3 C 0.5251(2) 0.3632(2) 0.4970(2)
C92_5 C 0.4225(2) 0.0633(3) 0.35176(18)
Zn2_5 Zn 0.64925(3) 0.93349(3) 0.31515(2)
K1_3 K 0.7500 0.99138(7) 0.3750
O1_3 O 0.66883(16) 0.99242(17) 0.38733(10)
O7_3 O 0.72562(14) 0.93772(17) 0.33388(10)
O8_5 O 0.68628(15) 0.88681(15) 0.32078(11)
O11_5 O 0.68413(18) 0.99618(18) 0.26274(11)
O12_5 O 0.65547(17) 0.93618(18) 0.27432(12)
O17_5 O 0.60622(19) 0.91667(16) 0.34035(16)
O18_5 O 0.57255(16) 0.97452(17) 0.35143(12)
O19_5 O 0.65695(12) 0.99232(13) 0.32560(8)
H2_5 H 0.6793 0.9919 0.3349
H6_5 H 0.7236 0.9959 0.4782
H7_5 H 0.7063 0.9835 0.4335
C28_5 C 0.7192(2) 0.9000(2) 0.33026(15)
C29_5 C 0.7542(2) 0.8705(2) 0.33631(13)
C30_5 C 0.7476(2) 0.8293(2) 0.33320(15)
H19_5 H 0.7227 0.8195 0.3262
C31_5 C 0.7781(3) 0.8030(2) 0.34048(17)
H20_5 H 0.7738 0.7749 0.3378
C32_5 C 0.8151(2) 0.8156(2) 0.35156(14)
C33_5 C 0.8205(2) 0.8570(2) 0.35449(15)
H21_5 H 0.8448 0.8666 0.3625
C34_5 C 0.7918(2) 0.8847(2) 0.34626(14)
H22_5 H 0.7972 0.9128 0.3473
C35_5 C 0.8461(2) 0.78528(19) 0.36384(15)
C36_5 C 0.8556(2) 0.7488(2) 0.35229(15)
H23_5 H 0.8433 0.7415 0.3355
C37_5 C 0.8832(2) 0.7217(2) 0.36447(15)
C38_5 C 0.9016(2) 0.7334(2) 0.38983(17)
H24_5 H 0.9210 0.7162 0.3982
C39_5 C 0.89085(19) 0.77113(19) 0.40271(16)
C40_5 C 0.8637(2) 0.7959(2) 0.38891(16)
H25_5 H 0.8569 0.8212 0.3968
C41_5 C 0.8939(2) 0.6807(2) 0.35158(16)
C42_5 C 0.8657(2) 0.6559(3) 0.33974(18)
H26_5 H 0.8383 0.6642 0.3393
C43_5 C 0.8766(2) 0.6185(2) 0.32823(16)
H27_5 H 0.8564 0.6030 0.3193
C45_5 C 0.9449(2) 0.6273(2) 0.34219(15)
H28_5 H 0.9718 0.6174 0.3432
C46_5 C 0.9361(2) 0.6644(2) 0.35339(17)
H29_5 H 0.9566 0.6796 0.3622
C48_5 C 0.9092(2) 0.78273(19) 0.42992(14)
C49_5 C 0.9486(2) 0.7732(2) 0.43830(17)
H30_5 H 0.9646 0.7566 0.4268
C50_5 C 0.9650(2) 0.7871(2) 0.46243(17)
H31_5 H 0.9923 0.7811 0.4668
C51_5 C 0.9420(2) 0.8098(2) 0.48041(15)
C52_5 C 0.9023(2) 0.8209(2) 0.47373(17)
H32_5 H 0.8867 0.8374 0.4856
C53_5 C 0.8859(2) 0.8062(2) 0.44804(17)
H33_5 H 0.8588 0.8125 0.4433
C54_5 C 0.6759(3) 0.9600(2) 0.25819(16)
C81_5 C 0.5775(2) 0.9367(3) 0.35176(18)
Zn7_5 Zn 0.38277(3) 0.98442(3) 0.352460(17)
O22_3 O 0.83117(16) 0.99242(17) 0.36267(10)
O23_5 O 0.47331(14) 0.96315(15) 0.65407(9)
O26_3 O 0.77438(14) 0.93772(17) 0.41612(10)
O28_5 O 0.55352(15) 0.96376(12) 0.68231(10)
O30_5 O 0.99618(18) 0.81587(18) 0.51274(11)
O31_5 O 0.93618(18) 0.84453(17) 0.52432(12)
C86_5 C 0.6902(2) 0.9420(2) 0.23041(15)
C87_5 C 0.9600(2) 0.8241(3) 0.50819(16)
C91_5 C 0.5455(2) 0.9111(2) 0.36479(17)
Zn11_6 Zn 0.02905(2) 0.67001(3) 0.70557(2)
C86_6 C 0.6902(2) 0.5580(2) 0.01959(15)
Zn2_6 Zn 0.64925(3) 0.56651(3) 0.93485(2)
K1_4 K 0.7500 0.50862(7) 0.8750
O1_4 O 0.66883(16) 0.50758(17) 0.86267(10)
O2_6 O 0.61349(17) 0.47027(16) 0.85713(11)
O3_6 O 0.52669(14) 0.46315(15) 0.59593(9)
O4_6 O 0.55690(14) 0.40828(15) 0.57728(10)
O7_4 O 0.72562(14) 0.56228(17) 0.91612(10)
O8_6 O 0.68628(15) 0.61319(15) 0.92922(11)
O11_6 O 0.68413(18) 0.50382(18) 0.98726(11)
O12_6 O 0.65547(17) 0.56382(18) 0.97568(12)
O13_4 O 0.77773(14) 0.45222(15) 0.83777(12)
O14_4 O 0.71493(15) 0.43030(13) 0.95557(12)
O17_6 O 0.60622(19) 0.58333(16) 0.90965(16)
O18_6 O 0.57255(16) 0.52548(17) 0.89857(12)
O19_6 O 0.65695(12) 0.50768(13) 0.92440(8)
H2_6 H 0.6793 0.5081 0.9151
H3_6 H 0.5529 0.4715 0.5323
C1_6 C 0.6454(3) 0.4882(3) 0.84809(16)
C2_6 C 0.6551(2) 0.4836(2) 0.81801(15)
C3_6 C 0.6289(2) 0.4589(3) 0.80123(16)
H4_6 H 0.6045 0.4483 0.8085
C4_6 C 0.6405(2) 0.4508(3) 0.77348(16)
H5_6 H 0.6239 0.4335 0.7628
C5_6 C 0.6753(2) 0.4673(2) 0.76145(14)
C6_6 C 0.69970(19) 0.4923(2) 0.77897(14)
H6_6 H 0.7236 0.5041 0.7718
C7_6 C 0.6892(2) 0.4997(2) 0.80580(13)
H7_6 H 0.7063 0.5165 0.8165
C8_6 C 0.6899(2) 0.4552(2) 0.73293(14)
C9_6 C 0.6621(2) 0.4560(2) 0.71046(16)
H8_6 H 0.6350 0.4644 0.7132
C10_6 C 0.6758(3) 0.4441(2) 0.68375(15)
C11_6 C 0.7165(2) 0.4325(2) 0.67966(15)
H9_6 H 0.7256 0.4242 0.6621
C12_6 C 0.7432(2) 0.4336(2) 0.70176(15)
C13_6 C 0.72989(19) 0.4452(2) 0.72772(14)
H10_6 H 0.7488 0.4463 0.7423
C14_6 C 0.6439(2) 0.4405(3) 0.66037(15)
C15_6 C 0.6130(3) 0.4714(3) 0.65776(16)
H11_6 H 0.6122 0.4928 0.6707
C16_6 C 0.5848(2) 0.4706(3) 0.63719(17)
H12_6 H 0.5647 0.4910 0.6361
C17_6 C 0.5860(2) 0.4390(2) 0.61762(15)
C18_6 C 0.6171(3) 0.4093(3) 0.62022(18)
H13_6 H 0.6188 0.3888 0.6067
C19_6 C 0.6443(2) 0.4088(3) 0.64100(17)
H14_6 H 0.6633 0.3874 0.6425
C20_6 C 0.5536(2) 0.4367(2) 0.59515(13)
C21_6 C 0.7870(2) 0.4225(2) 0.69722(15)
C22_6 C 0.8062(2) 0.4303(3) 0.67229(16)
H15_6 H 0.7915 0.4426 0.6578
C23_6 C 0.8486(2) 0.4196(3) 0.66837(16)
H16_6 H 0.8613 0.4246 0.6513
C25_6 C 0.8507(2) 0.3940(3) 0.71455(16)
H17_6 H 0.8648 0.3814 0.7292
C26_6 C 0.8097(2) 0.4046(3) 0.71790(16)
H18_6 H 0.7971 0.3994 0.7350
C28_6 C 0.7192(2) 0.6000(2) 0.91974(15)
C29_6 C 0.7542(2) 0.6295(2) 0.91369(13)
C30_6 C 0.7476(2) 0.6707(2) 0.91680(15)
H19_6 H 0.7227 0.6805 0.9238
C31_6 C 0.7781(3) 0.6970(2) 0.90952(17)
H20_6 H 0.7738 0.7251 0.9122
C32_6 C 0.8151(2) 0.6844(2) 0.89844(14)
C33_6 C 0.8205(2) 0.6430(2) 0.89551(15)
H21_6 H 0.8448 0.6334 0.8875
C34_6 C 0.7918(2) 0.6153(2) 0.90374(14)
H22_6 H 0.7972 0.5872 0.9027
C35_6 C 0.8461(2) 0.71472(19) 0.88616(15)
C36_6 C 0.8556(2) 0.7512(2) 0.89771(15)
H23_6 H 0.8433 0.7585 0.9145
C37_6 C 0.8832(2) 0.7783(2) 0.88553(15)
C38_6 C 0.9016(2) 0.7666(2) 0.86017(17)
H24_6 H 0.9210 0.7838 0.8518
C39_6 C 0.89085(19) 0.72887(19) 0.84729(16)
C40_6 C 0.8637(2) 0.7041(2) 0.86109(16)
H25_6 H 0.8569 0.6788 0.8532
C41_6 C 0.8939(2) 0.8193(2) 0.89842(16)
C42_6 C 0.8657(2) 0.8441(3) 0.91026(18)
H26_6 H 0.8383 0.8358 0.9107
C43_6 C 0.8766(2) 0.8815(2) 0.92177(16)
H27_6 H 0.8564 0.8970 0.9307
C45_6 C 0.9449(2) 0.8727(2) 0.90781(15)
H28_6 H 0.9718 0.8826 0.9068
C46_6 C 0.9361(2) 0.8356(2) 0.89661(17)
H29_6 H 0.9566 0.8204 0.8878
C48_6 C 0.9092(2) 0.71727(19) 0.82008(14)
C49_6 C 0.9486(2) 0.7268(2) 0.81170(17)
H30_6 H 0.9646 0.7434 0.8232
C50_6 C 0.9650(2) 0.7129(2) 0.78757(17)
H31_6 H 0.9923 0.7189 0.7832
C51_6 C 0.9420(2) 0.6902(2) 0.76959(15)
C52_6 C 0.9023(2) 0.6791(2) 0.77627(17)
H32_6 H 0.8867 0.6626 0.7644
C53_6 C 0.8859(2) 0.6938(2) 0.80196(17)
H33_6 H 0.8588 0.6875 0.8067
C54_6 C 0.6759(3) 0.5400(2) 0.99181(16)
C55_4 C 0.7670(2) 0.4302(2) 0.81743(18)
C56_6 C 0.73146(19) 0.40187(18) 0.82116(16)
C57_6 C 0.7181(2) 0.3782(2) 0.79837(16)
H34_6 H 0.7328 0.3783 0.7817
C58_6 C 0.6829(2) 0.3547(2) 0.80106(17)
H35_6 H 0.6745 0.3383 0.7862
C59_6 C 0.6591(2) 0.3551(2) 0.82586(16)
C60_6 C 0.6746(2) 0.37754(19) 0.84799(14)
H36_6 H 0.6604 0.3773 0.8649
C61_6 C 0.7113(2) 0.40077(19) 0.84603(15)
H37_6 H 0.7214 0.4150 0.8615
C62_6 C 0.6175(2) 0.3357(2) 0.82762(14)
C63_6 C 0.6091(2) 0.2989(2) 0.81474(16)
H38_6 H 0.6299 0.2849 0.8052
C64_6 C 0.5697(2) 0.2826(2) 0.81590(17)
C65_6 C 0.5395(2) 0.3020(2) 0.83037(16)
H39_6 H 0.5134 0.2904 0.8318
C66_6 C 0.5485(2) 0.3399(2) 0.84317(14)
C67_6 C 0.5873(2) 0.3551(2) 0.84164(14)
H40_6 H 0.5932 0.3798 0.8506
C68_6 C 0.55918(18) 0.24394(14) 0.79935(11)
C69_6 C 0.56947(18) 0.24089(13) 0.77120(11)
H41_6 H 0.5834 0.2623 0.7624
C70_6 C 0.55894(17) 0.20576(16) 0.75617(8)
H42_6 H 0.5658 0.2037 0.7373
C72_6 C 0.52783(18) 0.17674(14) 0.79743(11)
H43_6 H 0.5139 0.1553 0.8062
C73_6 C 0.53836(19) 0.21187(17) 0.81246(9)
H44_6 H 0.5315 0.2139 0.8313
C75_6 C 0.5152(2) 0.3645(2) 0.85786(15)
C76_6 C 0.4828(2) 0.3445(2) 0.87179(17)
H45_6 H 0.4814 0.3159 0.8723
C77_6 C 0.4519(2) 0.3693(2) 0.88521(17)
H46_6 H 0.4297 0.3565 0.8940
C78_6 C 0.4545(2) 0.4111(2) 0.88521(17)
C79_6 C 0.4858(3) 0.4309(2) 0.87232(17)
H47_6 H 0.4868 0.4595 0.8721
C80_6 C 0.5171(2) 0.4073(2) 0.85913(15)
H48_6 H 0.5395 0.4207 0.8511
C81_6 C 0.5775(2) 0.5633(3) 0.89824(18)
Zn7_6 Zn 0.38277(3) 0.51558(3) 0.897540(17)
O22_4 O 0.83117(16) 0.50758(17) 0.88733(10)
O23_6 O 0.47331(14) 0.53685(15) 0.59593(9)
O26_4 O 0.77438(14) 0.56228(17) 0.83388(10)
O28_6 O 0.55352(15) 0.53624(12) 0.56769(10)
O30_6 O 0.99618(18) 0.68413(18) 0.73726(11)
O31_6 O 0.93618(18) 0.65547(17) 0.72568(12)
O32_4 O 0.72227(14) 0.45222(15) 0.91223(12)
O33_4 O 0.78507(15) 0.43030(13) 0.79443(12)
O36_6 O 0.39378(19) 0.41667(16) 0.90965(16)
O37_6 O 0.42745(16) 0.47452(17) 0.89857(12)
C87_6 C 0.9600(2) 0.6759(3) 0.74181(16)
C88_4 C 0.7330(2) 0.4302(2) 0.93257(18)
C91_6 C 0.5455(2) 0.5889(2) 0.88521(17)
C92_6 C 0.4225(2) 0.4367(3) 0.89824(18)
C76_7 C 0.0172(2) 0.1555(2) 0.37179(17)
H45_7 H 0.0186 0.1841 0.3723
C77_7 C 0.0481(2) 0.1307(2) 0.38521(17)
H46_7 H 0.0703 0.1435 0.3940
C78_7 C 0.0455(2) 0.0889(2) 0.38521(17)
C79_7 C 0.0142(3) 0.0691(2) 0.37232(17)
H47_7 H 0.0132 0.0405 0.3721
H49_4 H 0.0001 0.4090 0.2529
O36_7 O 0.10622(19) 0.08333(16) 0.40965(16)
O37_7 O 0.07255(16) 0.02548(17) 0.39857(12)
C92_7 C 0.0775(2) 0.0633(3) 0.39824(18)
H1_4 H 0.0001 0.0910 0.9971
Zn7_7 Zn 0.11723(3) 0.98442(3) 0.397540(17)
O23_7 O 0.02669(14) 0.96315(15) 0.09593(9)
O2_7 O 0.88651(17) 0.02973(16) 0.35713(11)
O3_7 O 0.97331(14) 0.03685(15) 0.09593(9)
O4_7 O 0.94310(14) 0.09172(15) 0.07728(10)
O15_4 O 0.96577(16) 0.13697(13) 0.02296(12)
H3_7 H 0.9471 0.0285 0.0323
C1_7 C 0.8546(3) 0.0118(3) 0.34809(16)
C2_7 C 0.8449(2) 0.0164(2) 0.31801(15)
C3_7 C 0.8711(2) 0.0411(3) 0.30123(16)
H4_7 H 0.8955 0.0517 0.3085
C4_7 C 0.8595(2) 0.0492(3) 0.27348(16)
H5_7 H 0.8761 0.0665 0.2628
C5_7 C 0.8247(2) 0.0327(2) 0.26145(14)
C6_7 C 0.80030(19) 0.0077(2) 0.27897(14)
C7_7 C 0.8108(2) 0.0003(2) 0.30580(13)
C8_7 C 0.8101(2) 0.0448(2) 0.23293(14)
C9_7 C 0.8379(2) 0.0440(2) 0.21046(16)
H8_7 H 0.8650 0.0356 0.2132
C10_7 C 0.8242(3) 0.0559(2) 0.18375(15)
C11_7 C 0.7835(2) 0.0675(2) 0.17966(15)
H9_7 H 0.7744 0.0758 0.1621
C12_7 C 0.7568(2) 0.0664(2) 0.20176(15)
C13_7 C 0.77011(19) 0.0548(2) 0.22772(14)
H10_7 H 0.7512 0.0537 0.2423
C14_7 C 0.8561(2) 0.0595(3) 0.16037(15)
C15_7 C 0.8870(3) 0.0286(3) 0.15776(16)
H11_7 H 0.8878 0.0072 0.1707
C16_7 C 0.9152(2) 0.0294(3) 0.13719(17)
H12_7 H 0.9353 0.0090 0.1361
C17_7 C 0.9140(2) 0.0610(2) 0.11762(15)
C18_7 C 0.8829(3) 0.0907(3) 0.12022(18)
H13_7 H 0.8812 0.1112 0.1067
C19_7 C 0.8557(2) 0.0912(3) 0.14100(17)
H14_7 H 0.8367 0.1126 0.1425
C20_7 C 0.9464(2) 0.0633(2) 0.09515(13)
C21_7 C 0.7130(2) 0.0775(2) 0.19722(15)
C22_7 C 0.6938(2) 0.0697(3) 0.17229(16)
H15_7 H 0.7085 0.0574 0.1578
C23_7 C 0.6514(2) 0.0804(3) 0.16837(16)
H16_7 H 0.6387 0.0754 0.1513
C25_7 C 0.6493(2) 0.1060(3) 0.21455(16)
H17_7 H 0.6352 0.1186 0.2292
C26_7 C 0.6903(2) 0.0954(3) 0.21790(16)
H18_7 H 0.7029 0.1006 0.2350
C56_7 C 0.76854(19) 0.09813(18) 0.32116(16)
C57_7 C 0.7819(2) 0.1218(2) 0.29837(16)
H34_7 H 0.7672 0.1217 0.2817
C58_7 C 0.8171(2) 0.1453(2) 0.30106(17)
H35_7 H 0.8255 0.1617 0.2862
C59_7 C 0.8409(2) 0.1449(2) 0.32586(16)
C60_7 C 0.8254(2) 0.12246(19) 0.34799(14)
H36_7 H 0.8396 0.1227 0.3649
C61_7 C 0.7887(2) 0.09923(19) 0.34603(15)
H37_7 H 0.7786 0.0850 0.3615
C62_7 C 0.8825(2) 0.1643(2) 0.32762(14)
C63_7 C 0.8909(2) 0.2011(2) 0.31474(16)
H38_7 H 0.8701 0.2151 0.3052
C64_7 C 0.9303(2) 0.2174(2) 0.31590(17)
C65_7 C 0.9605(2) 0.1980(2) 0.33037(16)
H39_7 H 0.9866 0.2096 0.3318
C66_7 C 0.9515(2) 0.1601(2) 0.34317(14)
C67_7 C 0.9127(2) 0.1449(2) 0.34164(14)
H40_7 H 0.9068 0.1202 0.3506
C68_7 C 0.94082(18) 0.25606(14) 0.29935(11)
C69_7 C 0.93053(18) 0.25911(13) 0.27120(11)
H41_7 H 0.9166 0.2377 0.2624
C70_7 C 0.94106(17) 0.29424(16) 0.25617(8)
H42_7 H 0.9342 0.2963 0.2373
C71_4 C 0.96188(17) 0.32632(13) 0.26929(10)
C72_7 C 0.97217(18) 0.32326(14) 0.29743(11)
H43_7 H 0.9861 0.3447 0.3062
C73_7 C 0.96164(19) 0.28813(17) 0.31246(9)
H44_7 H 0.9685 0.2861 0.3313
C75_7 C 0.9848(2) 0.1355(2) 0.35786(15)
C80_7 C 0.9829(2) 0.0927(2) 0.35913(15)
H48_7 H 0.9605 0.0793 0.3511
O34_4 O 0.96577(16) 0.36303(13) 0.22704(12)
O35_4 O 0.9949(2) 0.38984(17) 0.26451(12)
C90_4 C 0.9749(2) 0.3632(2) 0.2530(2)
O16_4 O 0.9949(2) 0.11016(17) 0.98549(12)
C74_4 C 0.9749(2) 0.1368(2) 0.9970(2)
C89_4 C 0.96188(17) 0.17368(13) 0.98071(10)
Zn2_7 Zn 0.85075(3) 0.93349(3) 0.43485(2)
O8_7 O 0.81372(15) 0.88681(15) 0.42922(11)
O11_7 O 0.81587(18) 0.99618(18) 0.48726(11)
O12_7 O 0.84453(17) 0.93618(18) 0.47568(12)
O17_7 O 0.89378(19) 0.91667(16) 0.40965(16)
O18_7 O 0.92745(16) 0.97452(17) 0.39857(12)
O19_7 O 0.84305(12) 0.99232(13) 0.42440(8)
H2_7 H 0.8207 0.9919 0.4151
H6_7 H 0.7764 0.9959 0.2718
H7_7 H 0.7937 0.9835 0.3165
C28_7 C 0.7808(2) 0.9000(2) 0.41974(15)
C29_7 C 0.7458(2) 0.8705(2) 0.41369(13)
C30_7 C 0.7524(2) 0.8293(2) 0.41680(15)
H19_7 H 0.7773 0.8195 0.4238
C31_7 C 0.7219(3) 0.8030(2) 0.40952(17)
H20_7 H 0.7262 0.7749 0.4122
C32_7 C 0.6849(2) 0.8156(2) 0.39844(14)
C33_7 C 0.6795(2) 0.8570(2) 0.39551(15)
H21_7 H 0.6552 0.8666 0.3875
C34_7 C 0.7082(2) 0.8847(2) 0.40374(14)
H22_7 H 0.7028 0.9128 0.4027
C35_7 C 0.6539(2) 0.78528(19) 0.38616(15)
C36_7 C 0.6444(2) 0.7488(2) 0.39771(15)
H23_7 H 0.6567 0.7415 0.4145
C37_7 C 0.6168(2) 0.7217(2) 0.38553(15)
C38_7 C 0.5984(2) 0.7334(2) 0.36017(17)
H24_7 H 0.5790 0.7162 0.3518
C39_7 C 0.60915(19) 0.77113(19) 0.34729(16)
C40_7 C 0.6363(2) 0.7959(2) 0.36109(16)
H25_7 H 0.6431 0.8212 0.3532
C41_7 C 0.6061(2) 0.6807(2) 0.39842(16)
C42_7 C 0.6343(2) 0.6559(3) 0.41026(18)
H26_7 H 0.6617 0.6642 0.4107
C43_7 C 0.6234(2) 0.6185(2) 0.42177(16)
H27_7 H 0.6436 0.6030 0.4307
C45_7 C 0.5551(2) 0.6273(2) 0.40781(15)
H28_7 H 0.5282 0.6174 0.4068
C46_7 C 0.5639(2) 0.6644(2) 0.39661(17)
H29_7 H 0.5434 0.6796 0.3878
C48_7 C 0.5908(2) 0.78273(19) 0.32008(14)
C49_7 C 0.5514(2) 0.7732(2) 0.31170(17)
H30_7 H 0.5354 0.7566 0.3232
C50_7 C 0.5350(2) 0.7871(2) 0.28757(17)
H31_7 H 0.5077 0.7811 0.2832
C51_7 C 0.5580(2) 0.8098(2) 0.26959(15)
C52_7 C 0.5977(2) 0.8209(2) 0.27627(17)
H32_7 H 0.6133 0.8374 0.2644
C53_7 C 0.6141(2) 0.8062(2) 0.30196(17)
H33_7 H 0.6412 0.8125 0.3067
C54_7 C 0.8241(3) 0.9600(2) 0.49181(16)
C81_7 C 0.9225(2) 0.9367(3) 0.39824(18)
Zn11_7 Zn 0.47095(2) 0.82999(3) 0.20557(2)
O28_7 O 0.94648(15) 0.96376(12) 0.06769(10)
O30_7 O 0.50382(18) 0.81587(18) 0.23726(11)
O31_7 O 0.56382(18) 0.84453(17) 0.22568(12)
C86_7 C 0.8098(2) 0.9420(2) 0.51959(15)
C87_7 C 0.5400(2) 0.8241(3) 0.24181(16)
C91_7 C 0.9545(2) 0.9111(2) 0.38521(17)
O23_8 O 0.02669(14) 0.53685(15) 0.15407(9)
C76_8 C 0.0172(2) 0.3445(2) 0.87821(17)
H45_8 H 0.0186 0.3159 0.8777
C77_8 C 0.0481(2) 0.3693(2) 0.86479(17)
H46_8 H 0.0703 0.3565 0.8560
C78_8 C 0.0455(2) 0.4111(2) 0.86479(17)
C79_8 C 0.0142(3) 0.4309(2) 0.87768(17)
H47_8 H 0.0132 0.4595 0.8779
Zn7_8 Zn 0.11723(3) 0.51558(3) 0.852460(17)
O36_8 O 0.10622(19) 0.41667(16) 0.84035(16)
O37_8 O 0.07255(16) 0.47452(17) 0.85143(12)
C92_8 C 0.0775(2) 0.4367(3) 0.85176(18)
O3_8 O 0.97331(14) 0.46315(15) 0.15407(9)
O4_8 O 0.94310(14) 0.40828(15) 0.17272(10)
H3_8 H 0.9471 0.4715 0.2177
C8_8 C 0.8101(2) 0.4552(2) 0.01707(14)
C9_8 C 0.8379(2) 0.4560(2) 0.03954(16)
H8_8 H 0.8650 0.4644 0.0368
C10_8 C 0.8242(3) 0.4441(2) 0.06625(15)
C11_8 C 0.7835(2) 0.4325(2) 0.07034(15)
H9_8 H 0.7744 0.4242 0.0879
C12_8 C 0.7568(2) 0.4336(2) 0.04824(15)
C13_8 C 0.77011(19) 0.4452(2) 0.02228(14)
H10_8 H 0.7512 0.4463 0.0077
C14_8 C 0.8561(2) 0.4405(3) 0.08963(15)
C15_8 C 0.8870(3) 0.4714(3) 0.09224(16)
H11_8 H 0.8878 0.4928 0.0793
C16_8 C 0.9152(2) 0.4706(3) 0.11281(17)
H12_8 H 0.9353 0.4910 0.1139
C17_8 C 0.9140(2) 0.4390(2) 0.13238(15)
C18_8 C 0.8829(3) 0.4093(3) 0.12978(18)
H13_8 H 0.8812 0.3888 0.1433
C19_8 C 0.8557(2) 0.4088(3) 0.10900(17)
H14_8 H 0.8367 0.3874 0.1075
C20_8 C 0.9464(2) 0.4367(2) 0.15485(13)
C21_8 C 0.7130(2) 0.4225(2) 0.05278(15)
C22_8 C 0.6938(2) 0.4303(3) 0.07771(16)
H15_8 H 0.7085 0.4426 0.0922
C23_8 C 0.6514(2) 0.4196(3) 0.08163(16)
H16_8 H 0.6387 0.4246 0.0987
C25_8 C 0.6493(2) 0.3940(3) 0.03545(16)
H17_8 H 0.6352 0.3814 0.0208
C26_8 C 0.6903(2) 0.4046(3) 0.03210(16)
H18_8 H 0.7029 0.3994 0.0150
H42_8 H 0.9342 0.2037 0.0127
Zn11_8 Zn 0.47095(2) 0.67001(3) 0.04443(2)
O28_8 O 0.94648(15) 0.53624(12) 0.18231(10)
O30_8 O 0.50382(18) 0.68413(18) 0.01274(11)
O31_8 O 0.56382(18) 0.65547(17) 0.02432(12)
C87_8 C 0.5400(2) 0.6759(3) 0.00819(16)
Zn2_8 Zn 0.85075(3) 0.56651(3) 0.81515(2)
O2_8 O 0.88651(17) 0.47027(16) 0.89287(11)
O8_8 O 0.81372(15) 0.61319(15) 0.82078(11)
O11_8 O 0.81587(18) 0.50382(18) 0.76274(11)
O12_8 O 0.84453(17) 0.56382(18) 0.77432(12)
O17_8 O 0.89378(19) 0.58333(16) 0.84035(16)
O18_8 O 0.92745(16) 0.52548(17) 0.85143(12)
O19_8 O 0.84305(12) 0.50768(13) 0.82560(8)
H2_8 H 0.8207 0.5081 0.8349
C1_8 C 0.8546(3) 0.4882(3) 0.90191(16)
C2_8 C 0.8449(2) 0.4836(2) 0.93199(15)
C3_8 C 0.8711(2) 0.4589(3) 0.94877(16)
H4_8 H 0.8955 0.4483 0.9415
C4_8 C 0.8595(2) 0.4508(3) 0.97652(16)
H5_8 H 0.8761 0.4335 0.9872
C5_8 C 0.8247(2) 0.4673(2) 0.98855(14)
C6_8 C 0.80030(19) 0.4923(2) 0.97103(14)
H6_8 H 0.7764 0.5041 0.9782
C7_8 C 0.8108(2) 0.4997(2) 0.94420(13)
H7_8 H 0.7937 0.5165 0.9335
C28_8 C 0.7808(2) 0.6000(2) 0.83026(15)
C29_8 C 0.7458(2) 0.6295(2) 0.83631(13)
C30_8 C 0.7524(2) 0.6707(2) 0.83320(15)
H19_8 H 0.7773 0.6805 0.8262
C31_8 C 0.7219(3) 0.6970(2) 0.84048(17)
H20_8 H 0.7262 0.7251 0.8378
C32_8 C 0.6849(2) 0.6844(2) 0.85156(14)
C33_8 C 0.6795(2) 0.6430(2) 0.85449(15)
H21_8 H 0.6552 0.6334 0.8625
C34_8 C 0.7082(2) 0.6153(2) 0.84626(14)
H22_8 H 0.7028 0.5872 0.8473
C35_8 C 0.6539(2) 0.71472(19) 0.86384(15)
C36_8 C 0.6444(2) 0.7512(2) 0.85229(15)
H23_8 H 0.6567 0.7585 0.8355
C37_8 C 0.6168(2) 0.7783(2) 0.86447(15)
C38_8 C 0.5984(2) 0.7666(2) 0.88983(17)
H24_8 H 0.5790 0.7838 0.8982
C39_8 C 0.60915(19) 0.72887(19) 0.90271(16)
C40_8 C 0.6363(2) 0.7041(2) 0.88891(16)
H25_8 H 0.6431 0.6788 0.8968
C41_8 C 0.6061(2) 0.8193(2) 0.85158(16)
C42_8 C 0.6343(2) 0.8441(3) 0.83974(18)
H26_8 H 0.6617 0.8358 0.8393
C43_8 C 0.6234(2) 0.8815(2) 0.82823(16)
H27_8 H 0.6436 0.8970 0.8193
C45_8 C 0.5551(2) 0.8727(2) 0.84219(15)
H28_8 H 0.5282 0.8826 0.8432
C46_8 C 0.5639(2) 0.8356(2) 0.85339(17)
H29_8 H 0.5434 0.8204 0.8622
C48_8 C 0.5908(2) 0.71727(19) 0.92992(14)
C49_8 C 0.5514(2) 0.7268(2) 0.93830(17)
H30_8 H 0.5354 0.7434 0.9268
C50_8 C 0.5350(2) 0.7129(2) 0.96243(17)
H31_8 H 0.5077 0.7189 0.9668
C51_8 C 0.5580(2) 0.6902(2) 0.98041(15)
C52_8 C 0.5977(2) 0.6791(2) 0.97373(17)
H32_8 H 0.6133 0.6626 0.9856
C53_8 C 0.6141(2) 0.6938(2) 0.94804(17)
H33_8 H 0.6412 0.6875 0.9433
C54_8 C 0.8241(3) 0.5400(2) 0.75819(16)
C56_8 C 0.76854(19) 0.40187(18) 0.92884(16)
C57_8 C 0.7819(2) 0.3782(2) 0.95163(16)
H34_8 H 0.7672 0.3783 0.9683
C58_8 C 0.8171(2) 0.3547(2) 0.94894(17)
H35_8 H 0.8255 0.3383 0.9638
C59_8 C 0.8409(2) 0.3551(2) 0.92414(16)
C60_8 C 0.8254(2) 0.37754(19) 0.90201(14)
H36_8 H 0.8396 0.3773 0.8851
C61_8 C 0.7887(2) 0.40077(19) 0.90397(15)
H37_8 H 0.7786 0.4150 0.8885
C62_8 C 0.8825(2) 0.3357(2) 0.92238(14)
C63_8 C 0.8909(2) 0.2989(2) 0.93526(16)
H38_8 H 0.8701 0.2849 0.9448
C64_8 C 0.9303(2) 0.2826(2) 0.93410(17)
C65_8 C 0.9605(2) 0.3020(2) 0.91963(16)
H39_8 H 0.9866 0.2904 0.9182
C66_8 C 0.9515(2) 0.3399(2) 0.90683(14)
C67_8 C 0.9127(2) 0.3551(2) 0.90836(14)
H40_8 H 0.9068 0.3798 0.8994
C68_8 C 0.94082(18) 0.24394(14) 0.95065(11)
C69_8 C 0.93053(18) 0.24089(13) 0.97880(11)
H41_8 H 0.9166 0.2623 0.9876
C70_8 C 0.94106(17) 0.20576(16) 0.99383(8)
C72_8 C 0.97217(18) 0.17674(14) 0.95257(11)
H43_8 H 0.9861 0.1553 0.9438
C73_8 C 0.96164(19) 0.21187(17) 0.93754(9)
H44_8 H 0.9685 0.2139 0.9187
C75_8 C 0.9848(2) 0.3645(2) 0.89214(15)
C80_8 C 0.9829(2) 0.4073(2) 0.89087(15)
H48_8 H 0.9605 0.4207 0.8989
C81_8 C 0.9225(2) 0.5633(3) 0.85176(18)
C86_8 C 0.8098(2) 0.5580(2) 0.73041(15)
C91_8 C 0.9545(2) 0.5889(2) 0.86479(17)
Zn5_3 Zn 0.08942(2) 0.51709(2) 0.294929(16)
O2_9 O 0.02973(16) 0.61349(17) 0.60713(11)
O4_9 O 0.09172(15) 0.55690(14) 0.32728(10)
O5_5 O 0.07109(18) 0.60550(15) 0.66107(11)
O6_5 O 0.06548(17) 0.62251(16) 0.70611(12)
O9_5 O 0.10168(14) 0.46120(14) 0.30859(10)
O13_5 O 0.04778(15) 0.77773(14) 0.58777(12)
O14_5 O 0.06970(13) 0.71493(15) 0.70557(12)
O15_5 O 0.13697(13) 0.53423(16) 0.27296(12)
O16_5 O 0.11016(17) 0.5051(2) 0.23549(12)
H1_5 H 0.0910 0.4999 0.2471
H3_9 H 0.0285 0.5529 0.2823
C1_9 C 0.0118(3) 0.6454(3) 0.59809(16)
C2_9 C 0.0164(2) 0.6551(2) 0.56801(15)
C3_9 C 0.0411(3) 0.6289(2) 0.55123(16)
H4_9 H 0.0517 0.6045 0.5585
C4_9 C 0.0492(3) 0.6405(2) 0.52348(16)
H5_9 H 0.0665 0.6239 0.5128
C5_9 C 0.0327(2) 0.6753(2) 0.51145(14)
C6_9 C 0.0077(2) 0.69970(19) 0.52897(14)
C7_9 C 0.0003(2) 0.6892(2) 0.55580(13)
C8_9 C 0.0448(2) 0.6899(2) 0.48293(14)
C9_9 C 0.0440(2) 0.6621(2) 0.46046(16)
H8_9 H 0.0356 0.6350 0.4632
C10_9 C 0.0559(2) 0.6758(3) 0.43375(15)
C11_9 C 0.0675(2) 0.7165(2) 0.42966(15)
H9_9 H 0.0758 0.7256 0.4121
C12_9 C 0.0664(2) 0.7432(2) 0.45176(15)
C13_9 C 0.0548(2) 0.72989(19) 0.47772(14)
H10_9 H 0.0537 0.7488 0.4923
C14_9 C 0.0595(3) 0.6439(2) 0.41037(15)
C15_9 C 0.0286(3) 0.6130(3) 0.40776(16)
H11_9 H 0.0072 0.6122 0.4207
C16_9 C 0.0294(3) 0.5848(2) 0.38719(17)
H12_9 H 0.0090 0.5647 0.3861
C17_9 C 0.0610(2) 0.5860(2) 0.36762(15)
C18_9 C 0.0907(3) 0.6171(3) 0.37022(18)
H13_9 H 0.1112 0.6188 0.3567
C19_9 C 0.0912(3) 0.6443(2) 0.39100(17)
H14_9 H 0.1126 0.6633 0.3925
C20_9 C 0.0633(2) 0.5536(2) 0.34515(13)
C21_9 C 0.0775(2) 0.7870(2) 0.44722(15)
C22_9 C 0.0697(3) 0.8062(2) 0.42229(16)
H15_9 H 0.0574 0.7915 0.4078
C23_9 C 0.0804(3) 0.8486(2) 0.41837(16)
H16_9 H 0.0754 0.8613 0.4013
C24_5 C 0.0982(2) 0.8705(2) 0.43991(15)
C25_9 C 0.1060(3) 0.8507(2) 0.46455(16)
H17_9 H 0.1186 0.8648 0.4792
C26_9 C 0.0954(3) 0.8097(2) 0.46790(16)
H18_9 H 0.1006 0.7971 0.4850
C27_5 C 0.0854(2) 0.6095(3) 0.6852(2)
C47_5 C 0.0735(2) 0.4381(2) 0.31725(14)
C55_5 C 0.0698(2) 0.7670(2) 0.56743(18)
C56_9 C 0.09813(18) 0.73146(19) 0.57116(16)
C57_9 C 0.1218(2) 0.7181(2) 0.54837(16)
H34_9 H 0.1217 0.7328 0.5317
C58_9 C 0.1453(2) 0.6829(2) 0.55106(17)
H35_9 H 0.1617 0.6745 0.5362
C59_9 C 0.1449(2) 0.6591(2) 0.57586(16)
C60_9 C 0.12246(19) 0.6746(2) 0.59799(14)
H36_9 H 0.1227 0.6604 0.6149
C61_9 C 0.09923(19) 0.7113(2) 0.59603(15)
H37_9 H 0.0850 0.7214 0.6115
C62_9 C 0.1643(2) 0.6175(2) 0.57762(14)
C63_9 C 0.2011(2) 0.6091(2) 0.56474(16)
H38_9 H 0.2151 0.6299 0.5552
C64_9 C 0.2174(2) 0.5697(2) 0.56590(17)
C65_9 C 0.1980(2) 0.5395(2) 0.58037(16)
H39_9 H 0.2096 0.5134 0.5818
C66_9 C 0.1601(2) 0.5485(2) 0.59317(14)
C67_9 C 0.1449(2) 0.5873(2) 0.59164(14)
H40_9 H 0.1202 0.5932 0.6006
C68_9 C 0.25606(14) 0.55918(18) 0.54935(11)
C69_9 C 0.25911(13) 0.56947(18) 0.52120(11)
H41_9 H 0.2377 0.5834 0.5124
C70_9 C 0.29424(16) 0.55894(17) 0.50617(8)
H42_9 H 0.2963 0.5658 0.4873
C71_5 C 0.32632(13) 0.53812(17) 0.51929(10)
C72_9 C 0.32326(14) 0.52783(18) 0.54743(11)
H43_9 H 0.3447 0.5139 0.5562
C73_9 C 0.28813(17) 0.53836(19) 0.56246(9)
H44_9 H 0.2861 0.5315 0.5813
C74_5 C 0.1368(2) 0.5251(2) 0.2470(2)
C75_9 C 0.1355(2) 0.5152(2) 0.60786(15)
C76_9 C 0.1555(2) 0.4828(2) 0.62179(17)
H45_9 H 0.1841 0.4814 0.6223
C77_9 C 0.1307(2) 0.4519(2) 0.63521(17)
H46_9 H 0.1435 0.4297 0.6440
C79_9 C 0.0691(2) 0.4858(3) 0.62232(17)
H47_9 H 0.0405 0.4868 0.6221
C80_9 C 0.0927(2) 0.5171(2) 0.60913(15)
H48_9 H 0.0793 0.5395 0.6011
Zn16_3 Zn 0.41058(2) 0.51709(2) 0.455071(16)
O24_5 O 0.10550(15) 0.92891(18) 0.41107(11)
O25_5 O 0.12251(16) 0.93452(17) 0.45611(12)
O32_5 O 0.04778(15) 0.72227(14) 0.66223(12)
O33_5 O 0.06970(13) 0.78507(15) 0.54443(12)
O34_5 O 0.36303(13) 0.53423(16) 0.47704(12)
O35_5 O 0.38984(17) 0.5051(2) 0.51451(12)
H49_5 H 0.4090 0.4999 0.5029
C82_5 C 0.1295(2) 0.5982(2) 0.68991(15)
C83_5 C 0.1095(3) 0.9146(2) 0.4352(2)
C84_5 C 0.0848(2) 0.39643(19) 0.32930(14)
C88_5 C 0.0698(2) 0.7330(2) 0.68257(18)
C89_5 C 0.17368(13) 0.53812(17) 0.23071(10)
C90_5 C 0.3632(2) 0.5251(2) 0.5030(2)
K1_5 K 0.99138(7) 0.7500 0.6250
O1_5 O 0.99242(17) 0.66883(16) 0.61267(10)
O7_5 O 0.93772(17) 0.72562(14) 0.66612(10)
O8_9 O 0.88681(15) 0.68628(15) 0.67922(11)
O19_9 O 0.99232(13) 0.65695(12) 0.67440(8)
H2_9 H 0.9919 0.6793 0.6651
H6_9 H 0.9959 0.7236 0.5218
H7_9 H 0.9835 0.7063 0.5665
C28_9 C 0.9000(2) 0.7192(2) 0.66974(15)
C29_9 C 0.8705(2) 0.7542(2) 0.66369(13)
C30_9 C 0.8293(2) 0.7476(2) 0.66680(15)
H19_9 H 0.8195 0.7227 0.6738
C31_9 C 0.8030(2) 0.7781(3) 0.65952(17)
H20_9 H 0.7749 0.7738 0.6622
C32_9 C 0.8156(2) 0.8151(2) 0.64844(14)
C33_9 C 0.8570(2) 0.8205(2) 0.64551(15)
H21_9 H 0.8666 0.8448 0.6375
C34_9 C 0.8847(2) 0.7918(2) 0.65374(14)
H22_9 H 0.9128 0.7972 0.6527
C35_9 C 0.78528(19) 0.8461(2) 0.63616(15)
C36_9 C 0.7488(2) 0.8556(2) 0.64771(15)
H23_9 H 0.7415 0.8433 0.6645
C37_9 C 0.7217(2) 0.8832(2) 0.63553(15)
C38_9 C 0.7334(2) 0.9016(2) 0.61017(17)
H24_9 H 0.7162 0.9210 0.6018
C39_9 C 0.77113(19) 0.89085(19) 0.59729(16)
C40_9 C 0.7959(2) 0.8637(2) 0.61109(16)
H25_9 H 0.8212 0.8569 0.6032
C41_9 C 0.6807(2) 0.8939(2) 0.64842(16)
C42_9 C 0.6559(3) 0.8657(2) 0.66026(18)
H26_9 H 0.6642 0.8383 0.6607
C43_9 C 0.6185(2) 0.8766(2) 0.67177(16)
H27_9 H 0.6030 0.8564 0.6807
C44_5 C 0.60357(19) 0.9152(2) 0.67070(14)
C45_9 C 0.6273(2) 0.9449(2) 0.65781(15)
H28_9 H 0.6174 0.9718 0.6568
C46_9 C 0.6644(2) 0.9361(2) 0.64661(17)
H29_9 H 0.6796 0.9566 0.6378
C48_9 C 0.78273(19) 0.9092(2) 0.57008(14)
C49_9 C 0.7732(2) 0.9486(2) 0.56170(17)
H30_9 H 0.7566 0.9646 0.5732
C50_9 C 0.7871(2) 0.9650(2) 0.53757(17)
H31_9 H 0.7811 0.9923 0.5332
C52_9 C 0.8209(2) 0.9023(2) 0.52627(17)
H32_9 H 0.8374 0.8867 0.5144
C53_9 C 0.8062(2) 0.8859(2) 0.55196(17)
H33_9 H 0.8125 0.8588 0.5567
Zn15_5 Zn 0.48291(2) 0.91058(2) 0.705071(16)
O22_5 O 0.99242(17) 0.83117(16) 0.63733(10)
O26_5 O 0.93772(17) 0.77438(14) 0.58388(10)
O27_5 O 0.53880(14) 0.89832(14) 0.69141(10)
C85_5 C 0.5619(2) 0.9265(2) 0.68275(14)
H1_6 H 0.0910 0.0001 0.0029
O9_6 O 0.10168(14) 0.03880(14) 0.94141(10)
C47_6 C 0.0735(2) 0.0619(2) 0.93275(14)
C76_10 C 0.1555(2) 0.0172(2) 0.62821(17)
H45_10 H 0.1841 0.0186 0.6277
C77_10 C 0.1307(2) 0.0481(2) 0.61479(17)
H46_10 H 0.1435 0.0703 0.6060
C79_10 C 0.0691(2) 0.0142(3) 0.62768(17)
H47_10 H 0.0405 0.0132 0.6279
H49_6 H 0.4090 0.0001 0.7471
C84_6 C 0.0848(2) 0.10357(19) 0.92070(14)
O16_6 O 0.11016(17) 0.9949(2) 0.01451(12)
C74_6 C 0.1368(2) 0.9749(2) 0.0030(2)
C89_6 C 0.17368(13) 0.96188(17) 0.01929(10)
Zn5_4 Zn 0.08942(2) 0.98291(2) 0.955071(16)
O2_10 O 0.02973(16) 0.88651(17) 0.64287(11)
O4_10 O 0.09172(15) 0.94310(14) 0.92272(10)
O5_6 O 0.07109(18) 0.89450(15) 0.58893(11)
O6_6 O 0.06548(17) 0.87749(16) 0.54389(12)
O15_6 O 0.13697(13) 0.96577(16) 0.97704(12)
H3_10 H 0.0285 0.9471 0.9677
C1_10 C 0.0118(3) 0.8546(3) 0.65191(16)
C2_10 C 0.0164(2) 0.8449(2) 0.68199(15)
C3_10 C 0.0411(3) 0.8711(2) 0.69877(16)
H4_10 H 0.0517 0.8955 0.6915
C4_10 C 0.0492(3) 0.8595(2) 0.72652(16)
H5_10 H 0.0665 0.8761 0.7372
C5_10 C 0.0327(2) 0.8247(2) 0.73855(14)
C6_10 C 0.0077(2) 0.80030(19) 0.72103(14)
C7_10 C 0.0003(2) 0.8108(2) 0.69420(13)
C8_10 C 0.0448(2) 0.8101(2) 0.76707(14)
C9_10 C 0.0440(2) 0.8379(2) 0.78954(16)
H8_10 H 0.0356 0.8650 0.7868
C10_10 C 0.0559(2) 0.8242(3) 0.81625(15)
C11_10 C 0.0675(2) 0.7835(2) 0.82034(15)
H9_10 H 0.0758 0.7744 0.8379
C12_10 C 0.0664(2) 0.7568(2) 0.79824(15)
C13_10 C 0.0548(2) 0.77011(19) 0.77228(14)
H10_10 H 0.0537 0.7512 0.7577
C14_10 C 0.0595(3) 0.8561(2) 0.83963(15)
C15_10 C 0.0286(3) 0.8870(3) 0.84224(16)
H11_10 H 0.0072 0.8878 0.8293
C16_10 C 0.0294(3) 0.9152(2) 0.86281(17)
H12_10 H 0.0090 0.9353 0.8639
C17_10 C 0.0610(2) 0.9140(2) 0.88238(15)
C18_10 C 0.0907(3) 0.8829(3) 0.87978(18)
H13_10 H 0.1112 0.8812 0.8933
C19_10 C 0.0912(3) 0.8557(2) 0.85900(17)
H14_10 H 0.1126 0.8367 0.8575
C20_10 C 0.0633(2) 0.9464(2) 0.90485(13)
C21_10 C 0.0775(2) 0.7130(2) 0.80278(15)
C22_10 C 0.0697(3) 0.6938(2) 0.82771(16)
H15_10 H 0.0574 0.7085 0.8422
C23_10 C 0.0804(3) 0.6514(2) 0.83163(16)
H16_10 H 0.0754 0.6387 0.8487
C24_6 C 0.0982(2) 0.6295(2) 0.81009(15)
C25_10 C 0.1060(3) 0.6493(2) 0.78545(16)
H17_10 H 0.1186 0.6352 0.7708
C26_10 C 0.0954(3) 0.6903(2) 0.78210(16)
H18_10 H 0.1006 0.7029 0.7650
C27_6 C 0.0854(2) 0.8905(3) 0.5648(2)
C56_10 C 0.09813(18) 0.76854(19) 0.67884(16)
C57_10 C 0.1218(2) 0.7819(2) 0.70163(16)
H34_10 H 0.1217 0.7672 0.7183
C58_10 C 0.1453(2) 0.8171(2) 0.69894(17)
H35_10 H 0.1617 0.8255 0.7138
C59_10 C 0.1449(2) 0.8409(2) 0.67414(16)
C60_10 C 0.12246(19) 0.8254(2) 0.65201(14)
H36_10 H 0.1227 0.8396 0.6351
C61_10 C 0.09923(19) 0.7887(2) 0.65397(15)
H37_10 H 0.0850 0.7786 0.6385
C62_10 C 0.1643(2) 0.8825(2) 0.67238(14)
C63_10 C 0.2011(2) 0.8909(2) 0.68526(16)
H38_10 H 0.2151 0.8701 0.6948
C64_10 C 0.2174(2) 0.9303(2) 0.68410(17)
C65_10 C 0.1980(2) 0.9605(2) 0.66963(16)
H39_10 H 0.2096 0.9866 0.6682
C66_10 C 0.1601(2) 0.9515(2) 0.65683(14)
C67_10 C 0.1449(2) 0.9127(2) 0.65836(14)
H40_10 H 0.1202 0.9068 0.6494
C68_10 C 0.25606(14) 0.94082(18) 0.70065(11)
C69_10 C 0.25911(13) 0.93053(18) 0.72880(11)
H41_10 H 0.2377 0.9166 0.7376
C70_10 C 0.29424(16) 0.94106(17) 0.74383(8)
H42_10 H 0.2963 0.9342 0.7627
C71_6 C 0.32632(13) 0.96188(17) 0.73071(10)
C72_10 C 0.32326(14) 0.97217(18) 0.70257(11)
H43_10 H 0.3447 0.9861 0.6938
C73_10 C 0.28813(17) 0.96164(19) 0.68754(9)
H44_10 H 0.2861 0.9685 0.6687
C75_10 C 0.1355(2) 0.9848(2) 0.64214(15)
C80_10 C 0.0927(2) 0.9829(2) 0.64087(15)
H48_10 H 0.0793 0.9605 0.6489
Zn16_4 Zn 0.41058(2) 0.98291(2) 0.794929(16)
O24_6 O 0.10550(15) 0.57109(18) 0.83893(11)
O25_6 O 0.12251(16) 0.56548(17) 0.79389(12)
O34_6 O 0.36303(13) 0.96577(16) 0.77296(12)
O35_6 O 0.38984(17) 0.9949(2) 0.73549(12)
C82_6 C 0.1295(2) 0.9018(2) 0.56009(15)
C83_6 C 0.1095(3) 0.5854(2) 0.8148(2)
C90_6 C 0.3632(2) 0.9749(2) 0.7470(2)
O8_10 O 0.88681(15) 0.81372(15) 0.57078(11)
O19_10 O 0.99232(13) 0.84305(12) 0.57560(8)
H2_10 H 0.9919 0.8207 0.5849
H6_10 H 0.9959 0.7764 0.7282
H7_10 H 0.9835 0.7937 0.6835
C28_10 C 0.9000(2) 0.7808(2) 0.58026(15)
C29_10 C 0.8705(2) 0.7458(2) 0.58631(13)
C30_10 C 0.8293(2) 0.7524(2) 0.58320(15)
H19_10 H 0.8195 0.7773 0.5762
C31_10 C 0.8030(2) 0.7219(3) 0.59048(17)
H20_10 H 0.7749 0.7262 0.5878
C32_10 C 0.8156(2) 0.6849(2) 0.60156(14)
C33_10 C 0.8570(2) 0.6795(2) 0.60449(15)
H21_10 H 0.8666 0.6552 0.6125
C34_10 C 0.8847(2) 0.7082(2) 0.59626(14)
H22_10 H 0.9128 0.7028 0.5973
C35_10 C 0.78528(19) 0.6539(2) 0.61384(15)
C36_10 C 0.7488(2) 0.6444(2) 0.60229(15)
H23_10 H 0.7415 0.6567 0.5855
C37_10 C 0.7217(2) 0.6168(2) 0.61447(15)
C38_10 C 0.7334(2) 0.5984(2) 0.63983(17)
H24_10 H 0.7162 0.5790 0.6482
C39_10 C 0.77113(19) 0.60915(19) 0.65271(16)
C40_10 C 0.7959(2) 0.6363(2) 0.63891(16)
H25_10 H 0.8212 0.6431 0.6468
C41_10 C 0.6807(2) 0.6061(2) 0.60158(16)
C42_10 C 0.6559(3) 0.6343(2) 0.58974(18)
H26_10 H 0.6642 0.6617 0.5893
C43_10 C 0.6185(2) 0.6234(2) 0.57823(16)
H27_10 H 0.6030 0.6436 0.5693
C44_6 C 0.60357(19) 0.5848(2) 0.57930(14)
C45_10 C 0.6273(2) 0.5551(2) 0.59219(15)
H28_10 H 0.6174 0.5282 0.5932
C46_10 C 0.6644(2) 0.5639(2) 0.60339(17)
H29_10 H 0.6796 0.5434 0.6122
C48_10 C 0.78273(19) 0.5908(2) 0.67992(14)
C49_10 C 0.7732(2) 0.5514(2) 0.68830(17)
H30_10 H 0.7566 0.5354 0.6768
C50_10 C 0.7871(2) 0.5350(2) 0.71243(17)
H31_10 H 0.7811 0.5077 0.7168
C52_10 C 0.8209(2) 0.5977(2) 0.72373(17)
H32_10 H 0.8374 0.6133 0.7356
C53_10 C 0.8062(2) 0.6141(2) 0.69804(17)
H33_10 H 0.8125 0.6412 0.6933
Zn15_6 Zn 0.48291(2) 0.58942(2) 0.544929(16)
O27_6 O 0.53880(14) 0.60168(14) 0.55859(10)
C85_6 C 0.5619(2) 0.5735(2) 0.56725(14)
Zn15_7 Zn 0.01709(2) 0.58942(2) 0.205071(16)
C76_11 C 0.3445(2) 0.0172(2) 0.12179(17)
H45_11 H 0.3159 0.0186 0.1223
C77_11 C 0.3693(2) 0.0481(2) 0.13521(17)
H46_11 H 0.3565 0.0703 0.1440
C79_11 C 0.4309(2) 0.0142(3) 0.12232(17)
H47_11 H 0.4595 0.0132 0.1221
O9_7 O 0.39832(14) 0.03880(14) 0.80859(10)
C47_7 C 0.4265(2) 0.0619(2) 0.81725(14)
C84_7 C 0.4152(2) 0.10357(19) 0.82930(14)
K1_6 K 0.50862(7) 0.7500 0.1250
O1_6 O 0.50758(17) 0.83117(16) 0.11267(10)
O2_11 O 0.47027(16) 0.88651(17) 0.10713(11)
O5_7 O 0.42891(18) 0.89450(15) 0.16107(11)
O6_7 O 0.43452(17) 0.87749(16) 0.20611(12)
O7_6 O 0.56228(17) 0.77438(14) 0.16612(10)
O8_11 O 0.61319(15) 0.81372(15) 0.17922(11)
O13_6 O 0.45222(15) 0.72227(14) 0.08777(12)
O14_6 O 0.43030(13) 0.78507(15) 0.20557(12)
O19_11 O 0.50768(13) 0.84305(12) 0.17440(8)
H2_11 H 0.5081 0.8207 0.1651
C1_11 C 0.4882(3) 0.8546(3) 0.09809(16)
C2_11 C 0.4836(2) 0.8449(2) 0.06801(15)
C3_11 C 0.4589(3) 0.8711(2) 0.05123(16)
H4_11 H 0.4483 0.8955 0.0585
C4_11 C 0.4508(3) 0.8595(2) 0.02348(16)
H5_11 H 0.4335 0.8761 0.0128
C5_11 C 0.4673(2) 0.8247(2) 0.01145(14)
C6_11 C 0.4923(2) 0.80030(19) 0.02897(14)
H6_11 H 0.5041 0.7764 0.0218
C7_11 C 0.4997(2) 0.8108(2) 0.05580(13)
H7_11 H 0.5165 0.7937 0.0665
C27_7 C 0.4146(2) 0.8905(3) 0.1852(2)
C28_11 C 0.6000(2) 0.7808(2) 0.16974(15)
C29_11 C 0.6295(2) 0.7458(2) 0.16369(13)
C30_11 C 0.6707(2) 0.7524(2) 0.16680(15)
H19_11 H 0.6805 0.7773 0.1738
C31_11 C 0.6970(2) 0.7219(3) 0.15952(17)
H20_11 H 0.7251 0.7262 0.1622
C32_11 C 0.6844(2) 0.6849(2) 0.14844(14)
C33_11 C 0.6430(2) 0.6795(2) 0.14551(15)
H21_11 H 0.6334 0.6552 0.1375
C34_11 C 0.6153(2) 0.7082(2) 0.15374(14)
H22_11 H 0.5872 0.7028 0.1527
C35_11 C 0.71472(19) 0.6539(2) 0.13616(15)
C36_11 C 0.7512(2) 0.6444(2) 0.14771(15)
H23_11 H 0.7585 0.6567 0.1645
C37_11 C 0.7783(2) 0.6168(2) 0.13553(15)
C38_11 C 0.7666(2) 0.5984(2) 0.11017(17)
H24_11 H 0.7838 0.5790 0.1018
C39_11 C 0.72887(19) 0.60915(19) 0.09729(16)
C40_11 C 0.7041(2) 0.6363(2) 0.11109(16)
H25_11 H 0.6788 0.6431 0.1032
C41_11 C 0.8193(2) 0.6061(2) 0.14842(16)
C42_11 C 0.8441(3) 0.6343(2) 0.16026(18)
H26_11 H 0.8358 0.6617 0.1607
C43_11 C 0.8815(2) 0.6234(2) 0.17177(16)
H27_11 H 0.8970 0.6436 0.1807
C44_7 C 0.89643(19) 0.5848(2) 0.17070(14)
C45_11 C 0.8727(2) 0.5551(2) 0.15781(15)
H28_11 H 0.8826 0.5282 0.1568
C46_11 C 0.8356(2) 0.5639(2) 0.14661(17)
H29_11 H 0.8204 0.5434 0.1378
C48_11 C 0.71727(19) 0.5908(2) 0.07008(14)
C49_11 C 0.7268(2) 0.5514(2) 0.06170(17)
H30_11 H 0.7434 0.5354 0.0732
C50_11 C 0.7129(2) 0.5350(2) 0.03757(17)
H31_11 H 0.7189 0.5077 0.0332
C52_11 C 0.6791(2) 0.5977(2) 0.02627(17)
H32_11 H 0.6626 0.6133 0.0144
C53_11 C 0.6938(2) 0.6141(2) 0.05196(17)
H33_11 H 0.6875 0.6412 0.0567
C55_6 C 0.4302(2) 0.7330(2) 0.06743(18)
C56_11 C 0.40187(18) 0.76854(19) 0.07116(16)
C57_11 C 0.3782(2) 0.7819(2) 0.04837(16)
H34_11 H 0.3783 0.7672 0.0317
C58_11 C 0.3547(2) 0.8171(2) 0.05106(17)
H35_11 H 0.3383 0.8255 0.0362
C59_11 C 0.3551(2) 0.8409(2) 0.07586(16)
C60_11 C 0.37754(19) 0.8254(2) 0.09799(14)
H36_11 H 0.3773 0.8396 0.1149
C61_11 C 0.40077(19) 0.7887(2) 0.09603(15)
H37_11 H 0.4150 0.7786 0.1115
C62_11 C 0.3357(2) 0.8825(2) 0.07762(14)
C63_11 C 0.2989(2) 0.8909(2) 0.06474(16)
H38_11 H 0.2849 0.8701 0.0552
C64_11 C 0.2826(2) 0.9303(2) 0.06590(17)
C65_11 C 0.3020(2) 0.9605(2) 0.08037(16)
H39_11 H 0.2904 0.9866 0.0818
C66_11 C 0.3399(2) 0.9515(2) 0.09317(14)
C67_11 C 0.3551(2) 0.9127(2) 0.09164(14)
H40_11 H 0.3798 0.9068 0.1006
C68_11 C 0.24394(14) 0.94082(18) 0.04935(11)
C69_11 C 0.24089(13) 0.93053(18) 0.02120(11)
H41_11 H 0.2623 0.9166 0.0124
C70_11 C 0.20576(16) 0.94106(17) 0.00617(8)
C72_11 C 0.17674(14) 0.97217(18) 0.04743(11)
H43_11 H 0.1553 0.9861 0.0562
C73_11 C 0.21187(17) 0.96164(19) 0.06246(9)
H44_11 H 0.2139 0.9685 0.0813
C75_11 C 0.3645(2) 0.9848(2) 0.10786(15)
C80_11 C 0.4073(2) 0.9829(2) 0.10913(15)
H48_11 H 0.4207 0.9605 0.1011
O22_6 O 0.50758(17) 0.66883(16) 0.13733(10)
O26_6 O 0.56228(17) 0.72562(14) 0.08388(10)
O27_7 O 0.96120(14) 0.60168(14) 0.19141(10)
O32_6 O 0.45222(15) 0.77773(14) 0.16223(12)
O33_6 O 0.43030(13) 0.71493(15) 0.04443(12)
C82_7 C 0.3705(2) 0.9018(2) 0.18991(15)
C85_7 C 0.9381(2) 0.5735(2) 0.18275(14)
C88_6 C 0.4302(2) 0.7670(2) 0.18257(18)
O4_11 O 0.40828(15) 0.94310(14) 0.82728(10)
H3_11 H 0.4715 0.9471 0.7823
C8_11 C 0.4552(2) 0.8101(2) 0.98293(14)
C9_11 C 0.4560(2) 0.8379(2) 0.96046(16)
H8_11 H 0.4644 0.8650 0.9632
C10_11 C 0.4441(2) 0.8242(3) 0.93375(15)
C11_11 C 0.4325(2) 0.7835(2) 0.92966(15)
H9_11 H 0.4242 0.7744 0.9121
C12_11 C 0.4336(2) 0.7568(2) 0.95176(15)
C13_11 C 0.4452(2) 0.77011(19) 0.97772(14)
H10_11 H 0.4463 0.7512 0.9923
C14_11 C 0.4405(3) 0.8561(2) 0.91037(15)
C15_11 C 0.4714(3) 0.8870(3) 0.90776(16)
H11_11 H 0.4928 0.8878 0.9207
C16_11 C 0.4706(3) 0.9152(2) 0.88719(17)
H12_11 H 0.4910 0.9353 0.8861
C17_11 C 0.4390(2) 0.9140(2) 0.86762(15)
C18_11 C 0.4093(3) 0.8829(3) 0.87022(18)
H13_11 H 0.3888 0.8812 0.8567
C19_11 C 0.4088(3) 0.8557(2) 0.89100(17)
H14_11 H 0.3874 0.8367 0.8925
C20_11 C 0.4367(2) 0.9464(2) 0.84515(13)
C21_11 C 0.4225(2) 0.7130(2) 0.94722(15)
C22_11 C 0.4303(3) 0.6938(2) 0.92229(16)
H15_11 H 0.4426 0.7085 0.9078
C23_11 C 0.4196(3) 0.6514(2) 0.91837(16)
H16_11 H 0.4246 0.6387 0.9013
C24_7 C 0.4018(2) 0.6295(2) 0.93991(15)
C25_11 C 0.3940(3) 0.6493(2) 0.96455(16)
H17_11 H 0.3814 0.6352 0.9792
C26_11 C 0.4046(3) 0.6903(2) 0.96790(16)
H18_11 H 0.3994 0.7029 0.9850
H42_11 H 0.2037 0.9342 0.9873
O24_7 O 0.39450(15) 0.57109(18) 0.91107(11)
O25_7 O 0.37749(16) 0.56548(17) 0.95611(12)
C83_7 C 0.3905(3) 0.5854(2) 0.9352(2)
Zn15_8 Zn 0.01709(2) 0.91058(2) 0.044929(16)
O2_12 O 0.47027(16) 0.61349(17) 0.14287(11)
O4_12 O 0.40828(15) 0.55690(14) 0.42272(10)
O5_8 O 0.42891(18) 0.60550(15) 0.08893(11)
O6_8 O 0.43452(17) 0.62251(16) 0.04389(12)
O8_12 O 0.61319(15) 0.68628(15) 0.07078(11)
O9_8 O 0.39832(14) 0.46120(14) 0.44141(10)
O19_12 O 0.50768(13) 0.65695(12) 0.07560(8)
H2_12 H 0.5081 0.6793 0.0849
H3_12 H 0.4715 0.5529 0.4677
C1_12 C 0.4882(3) 0.6454(3) 0.15191(16)
C2_12 C 0.4836(2) 0.6551(2) 0.18199(15)
C3_12 C 0.4589(3) 0.6289(2) 0.19877(16)
H4_12 H 0.4483 0.6045 0.1915
C4_12 C 0.4508(3) 0.6405(2) 0.22652(16)
H5_12 H 0.4335 0.6239 0.2372
C5_12 C 0.4673(2) 0.6753(2) 0.23855(14)
C6_12 C 0.4923(2) 0.69970(19) 0.22103(14)
H6_12 H 0.5041 0.7236 0.2282
C7_12 C 0.4997(2) 0.6892(2) 0.19420(13)
H7_12 H 0.5165 0.7063 0.1835
C8_12 C 0.4552(2) 0.6899(2) 0.26707(14)
C9_12 C 0.4560(2) 0.6621(2) 0.28954(16)
H8_12 H 0.4644 0.6350 0.2868
C10_12 C 0.4441(2) 0.6758(3) 0.31625(15)
C11_12 C 0.4325(2) 0.7165(2) 0.32034(15)
H9_12 H 0.4242 0.7256 0.3379
C12_12 C 0.4336(2) 0.7432(2) 0.29824(15)
C13_12 C 0.4452(2) 0.72989(19) 0.27228(14)
H10_12 H 0.4463 0.7488 0.2577
C14_12 C 0.4405(3) 0.6439(2) 0.33963(15)
C15_12 C 0.4714(3) 0.6130(3) 0.34224(16)
H11_12 H 0.4928 0.6122 0.3293
C16_12 C 0.4706(3) 0.5848(2) 0.36281(17)
H12_12 H 0.4910 0.5647 0.3639
C17_12 C 0.4390(2) 0.5860(2) 0.38238(15)
C18_12 C 0.4093(3) 0.6171(3) 0.37978(18)
H13_12 H 0.3888 0.6188 0.3933
C19_12 C 0.4088(3) 0.6443(2) 0.35900(17)
H14_12 H 0.3874 0.6633 0.3575
C20_12 C 0.4367(2) 0.5536(2) 0.40485(13)
C21_12 C 0.4225(2) 0.7870(2) 0.30278(15)
C22_12 C 0.4303(3) 0.8062(2) 0.32771(16)
H15_12 H 0.4426 0.7915 0.3422
C23_12 C 0.4196(3) 0.8486(2) 0.33163(16)
H16_12 H 0.4246 0.8613 0.3487
C24_8 C 0.4018(2) 0.8705(2) 0.31009(15)
C25_12 C 0.3940(3) 0.8507(2) 0.28545(16)
H17_12 H 0.3814 0.8648 0.2708
C26_12 C 0.4046(3) 0.8097(2) 0.28210(16)
H18_12 H 0.3994 0.7971 0.2650
C27_8 C 0.4146(2) 0.6095(3) 0.0648(2)
C28_12 C 0.6000(2) 0.7192(2) 0.08026(15)
C29_12 C 0.6295(2) 0.7542(2) 0.08631(13)
C30_12 C 0.6707(2) 0.7476(2) 0.08320(15)
H19_12 H 0.6805 0.7227 0.0762
C31_12 C 0.6970(2) 0.7781(3) 0.09048(17)
H20_12 H 0.7251 0.7738 0.0878
C32_12 C 0.6844(2) 0.8151(2) 0.10156(14)
C33_12 C 0.6430(2) 0.8205(2) 0.10449(15)
H21_12 H 0.6334 0.8448 0.1125
C34_12 C 0.6153(2) 0.7918(2) 0.09626(14)
H22_12 H 0.5872 0.7972 0.0973
C35_12 C 0.71472(19) 0.8461(2) 0.11384(15)
C36_12 C 0.7512(2) 0.8556(2) 0.10229(15)
H23_12 H 0.7585 0.8433 0.0855
C37_12 C 0.7783(2) 0.8832(2) 0.11447(15)
C38_12 C 0.7666(2) 0.9016(2) 0.13983(17)
H24_12 H 0.7838 0.9210 0.1482
C39_12 C 0.72887(19) 0.89085(19) 0.15271(16)
C40_12 C 0.7041(2) 0.8637(2) 0.13891(16)
H25_12 H 0.6788 0.8569 0.1468
C41_12 C 0.8193(2) 0.8939(2) 0.10158(16)
C42_12 C 0.8441(3) 0.8657(2) 0.08974(18)
H26_12 H 0.8358 0.8383 0.0893
C43_12 C 0.8815(2) 0.8766(2) 0.07823(16)
H27_12 H 0.8970 0.8564 0.0693
C44_8 C 0.89643(19) 0.9152(2) 0.07930(14)
C45_12 C 0.8727(2) 0.9449(2) 0.09219(15)
H28_12 H 0.8826 0.9718 0.0932
C46_12 C 0.8356(2) 0.9361(2) 0.10339(17)
H29_12 H 0.8204 0.9566 0.1122
C47_8 C 0.4265(2) 0.4381(2) 0.43275(14)
C48_12 C 0.71727(19) 0.9092(2) 0.17992(14)
C49_12 C 0.7268(2) 0.9486(2) 0.18830(17)
H30_12 H 0.7434 0.9646 0.1768
C50_12 C 0.7129(2) 0.9650(2) 0.21243(17)
H31_12 H 0.7189 0.9923 0.2168
C52_12 C 0.6791(2) 0.9023(2) 0.22373(17)
H32_12 H 0.6626 0.8867 0.2356
C53_12 C 0.6938(2) 0.8859(2) 0.19804(17)
H33_12 H 0.6875 0.8588 0.1933
C56_12 C 0.40187(18) 0.73146(19) 0.17884(16)
C57_12 C 0.3782(2) 0.7181(2) 0.20163(16)
H34_12 H 0.3783 0.7328 0.2183
C58_12 C 0.3547(2) 0.6829(2) 0.19894(17)
H35_12 H 0.3383 0.6745 0.2138
C59_12 C 0.3551(2) 0.6591(2) 0.17414(16)
C60_12 C 0.37754(19) 0.6746(2) 0.15201(14)
H36_12 H 0.3773 0.6604 0.1351
C61_12 C 0.40077(19) 0.7113(2) 0.15397(15)
H37_12 H 0.4150 0.7214 0.1385
C62_12 C 0.3357(2) 0.6175(2) 0.17238(14)
C63_12 C 0.2989(2) 0.6091(2) 0.18526(16)
H38_12 H 0.2849 0.6299 0.1948
C64_12 C 0.2826(2) 0.5697(2) 0.18410(17)
C65_12 C 0.3020(2) 0.5395(2) 0.16963(16)
H39_12 H 0.2904 0.5134 0.1682
C66_12 C 0.3399(2) 0.5485(2) 0.15683(14)
C67_12 C 0.3551(2) 0.5873(2) 0.15836(14)
H40_12 H 0.3798 0.5932 0.1494
C68_12 C 0.24394(14) 0.55918(18) 0.20065(11)
C69_12 C 0.24089(13) 0.56947(18) 0.22880(11)
H41_12 H 0.2623 0.5834 0.2376
C70_12 C 0.20576(16) 0.55894(17) 0.24383(8)
H42_12 H 0.2037 0.5658 0.2627
C72_12 C 0.17674(14) 0.52783(18) 0.20257(11)
H43_12 H 0.1553 0.5139 0.1938
C73_12 C 0.21187(17) 0.53836(19) 0.18754(9)
H44_12 H 0.2139 0.5315 0.1687
C75_12 C 0.3645(2) 0.5152(2) 0.14214(15)
C76_12 C 0.3445(2) 0.4828(2) 0.12821(17)
H45_12 H 0.3159 0.4814 0.1277
C77_12 C 0.3693(2) 0.4519(2) 0.11479(17)
H46_12 H 0.3565 0.4297 0.1060
C79_12 C 0.4309(2) 0.4858(3) 0.12768(17)
H47_12 H 0.4595 0.4868 0.1279
C80_12 C 0.4073(2) 0.5171(2) 0.14087(15)
H48_12 H 0.4207 0.5395 0.1489
O24_8 O 0.39450(15) 0.92891(18) 0.33893(11)
O25_8 O 0.37749(16) 0.93452(17) 0.29389(12)
O27_8 O 0.96120(14) 0.89832(14) 0.05859(10)
C82_8 C 0.3705(2) 0.5982(2) 0.06009(15)
C83_8 C 0.3905(3) 0.9146(2) 0.3148(2)
C84_8 C 0.4152(2) 0.39643(19) 0.42070(14)
C85_8 C 0.9381(2) 0.9265(2) 0.06725(14)
O4_13 O 0.05690(14) 0.59172(15) 0.17272(10)
O15_7 O 0.03423(16) 0.63697(13) 0.22704(12)
O16_7 O 0.0051(2) 0.61016(17) 0.26451(12)
H3_13 H 0.0529 0.5285 0.2177
C8_13 C 0.1899(2) 0.5448(2) 0.01707(14)
C9_13 C 0.1621(2) 0.5440(2) 0.03954(16)
H8_13 H 0.1350 0.5356 0.0368
C10_13 C 0.1758(3) 0.5559(2) 0.06625(15)
C11_13 C 0.2165(2) 0.5675(2) 0.07034(15)
H9_13 H 0.2256 0.5758 0.0879
C12_13 C 0.2432(2) 0.5664(2) 0.04824(15)
C13_13 C 0.22989(19) 0.5548(2) 0.02228(14)
H10_13 H 0.2488 0.5537 0.0077
C14_13 C 0.1439(2) 0.5595(3) 0.08963(15)
C15_13 C 0.1130(3) 0.5286(3) 0.09224(16)
H11_13 H 0.1122 0.5072 0.0793
C16_13 C 0.0848(2) 0.5294(3) 0.11281(17)
H12_13 H 0.0647 0.5090 0.1139
C17_13 C 0.0860(2) 0.5610(2) 0.13238(15)
C18_13 C 0.1171(3) 0.5907(3) 0.12978(18)
H13_13 H 0.1188 0.6112 0.1433
C19_13 C 0.1443(2) 0.5912(3) 0.10900(17)
H14_13 H 0.1633 0.6126 0.1075
C20_13 C 0.0536(2) 0.5633(2) 0.15485(13)
C21_13 C 0.2870(2) 0.5775(2) 0.05278(15)
C22_13 C 0.3062(2) 0.5697(3) 0.07771(16)
H15_13 H 0.2915 0.5574 0.0922
C23_13 C 0.3486(2) 0.5804(3) 0.08163(16)
H16_13 H 0.3613 0.5754 0.0987
C25_13 C 0.3507(2) 0.6060(3) 0.03545(16)
H17_13 H 0.3648 0.6186 0.0208
C26_13 C 0.3097(2) 0.5954(3) 0.03210(16)
H18_13 H 0.2971 0.6006 0.0150
H42_13 H 0.0658 0.7963 0.0127
C74_7 C 0.0251(2) 0.6368(2) 0.2530(2)
O34_7 O 0.03423(16) 0.86303(13) 0.02296(12)
C89_7 C 0.03812(17) 0.67368(13) 0.26929(10)
K1_7 K 0.2500 0.49138(7) 0.8750
O1_7 O 0.16883(16) 0.49242(17) 0.88733(10)
O2_13 O 0.11349(17) 0.52973(16) 0.89287(11)
O7_7 O 0.22562(14) 0.43772(17) 0.83388(10)
O8_13 O 0.18628(15) 0.38681(15) 0.82078(11)
O13_7 O 0.27773(14) 0.54778(15) 0.91223(12)
O14_7 O 0.21493(15) 0.56970(13) 0.79443(12)
O19_13 O 0.15695(12) 0.49232(13) 0.82560(8)
H2_13 H 0.1793 0.4919 0.8349
C1_13 C 0.1454(3) 0.5118(3) 0.90191(16)
C2_13 C 0.1551(2) 0.5164(2) 0.93199(15)
C3_13 C 0.1289(2) 0.5411(3) 0.94877(16)
H4_13 H 0.1045 0.5517 0.9415
C4_13 C 0.1405(2) 0.5492(3) 0.97652(16)
H5_13 H 0.1239 0.5665 0.9872
C5_13 C 0.1753(2) 0.5327(2) 0.98855(14)
C6_13 C 0.19970(19) 0.5077(2) 0.97103(14)
H6_13 H 0.2236 0.4959 0.9782
C7_13 C 0.1892(2) 0.5003(2) 0.94420(13)
H7_13 H 0.2063 0.4835 0.9335
C28_13 C 0.2192(2) 0.4000(2) 0.83026(15)
C29_13 C 0.2542(2) 0.3705(2) 0.83631(13)
C30_13 C 0.2476(2) 0.3293(2) 0.83320(15)
H19_13 H 0.2227 0.3195 0.8262
C31_13 C 0.2781(3) 0.3030(2) 0.84048(17)
H20_13 H 0.2738 0.2749 0.8378
C32_13 C 0.3151(2) 0.3156(2) 0.85156(14)
C33_13 C 0.3205(2) 0.3570(2) 0.85449(15)
H21_13 H 0.3448 0.3666 0.8625
C34_13 C 0.2918(2) 0.3847(2) 0.84626(14)
H22_13 H 0.2972 0.4128 0.8473
C35_13 C 0.3461(2) 0.28528(19) 0.86384(15)
C36_13 C 0.3556(2) 0.2488(2) 0.85229(15)
H23_13 H 0.3433 0.2415 0.8355
C37_13 C 0.3832(2) 0.2217(2) 0.86447(15)
C38_13 C 0.4016(2) 0.2334(2) 0.88983(17)
H24_13 H 0.4210 0.2162 0.8982
C39_13 C 0.39085(19) 0.27113(19) 0.90271(16)
C40_13 C 0.3637(2) 0.2959(2) 0.88891(16)
H25_13 H 0.3569 0.3212 0.8968
C41_13 C 0.3939(2) 0.1807(2) 0.85158(16)
C42_13 C 0.3657(2) 0.1559(3) 0.83974(18)
H26_13 H 0.3383 0.1642 0.8393
C43_13 C 0.3766(2) 0.1185(2) 0.82823(16)
H27_13 H 0.3564 0.1030 0.8193
C45_13 C 0.4449(2) 0.1273(2) 0.84219(15)
H28_13 H 0.4718 0.1174 0.8432
C46_13 C 0.4361(2) 0.1644(2) 0.85339(17)
H29_13 H 0.4566 0.1796 0.8622
C48_13 C 0.4092(2) 0.28273(19) 0.92992(14)
C49_13 C 0.4486(2) 0.2732(2) 0.93830(17)
H30_13 H 0.4646 0.2566 0.9268
C50_13 C 0.4650(2) 0.2871(2) 0.96243(17)
H31_13 H 0.4923 0.2811 0.9668
C52_13 C 0.4023(2) 0.3209(2) 0.97373(17)
H32_13 H 0.3867 0.3374 0.9856
C53_13 C 0.3859(2) 0.3062(2) 0.94804(17)
H33_13 H 0.3588 0.3125 0.9433
C55_7 C 0.2670(2) 0.5698(2) 0.93257(18)
C56_13 C 0.23146(19) 0.59813(18) 0.92884(16)
C57_13 C 0.2181(2) 0.6218(2) 0.95163(16)
H34_13 H 0.2328 0.6217 0.9683
C58_13 C 0.1829(2) 0.6453(2) 0.94894(17)
H35_13 H 0.1745 0.6617 0.9638
C59_13 C 0.1591(2) 0.6449(2) 0.92414(16)
C60_13 C 0.1746(2) 0.62246(19) 0.90201(14)
H36_13 H 0.1604 0.6227 0.8851
C61_13 C 0.2113(2) 0.59923(19) 0.90397(15)
H37_13 H 0.2214 0.5850 0.8885
C62_13 C 0.1175(2) 0.6643(2) 0.92238(14)
C63_13 C 0.1091(2) 0.7011(2) 0.93526(16)
H38_13 H 0.1299 0.7151 0.9448
C64_13 C 0.0697(2) 0.7174(2) 0.93410(17)
C65_13 C 0.0395(2) 0.6980(2) 0.91963(16)
H39_13 H 0.0134 0.7096 0.9182
C66_13 C 0.0485(2) 0.6601(2) 0.90683(14)
C67_13 C 0.0873(2) 0.6449(2) 0.90836(14)
H40_13 H 0.0932 0.6202 0.8994
C68_13 C 0.05918(18) 0.75606(14) 0.95065(11)
C69_13 C 0.06947(18) 0.75911(13) 0.97880(11)
H41_13 H 0.0834 0.7377 0.9876
C70_13 C 0.05894(17) 0.79424(16) 0.99383(8)
C71_7 C 0.03812(17) 0.82632(13) 0.98071(10)
C72_13 C 0.02783(18) 0.82326(14) 0.95257(11)
H43_13 H 0.0139 0.8447 0.9438
C73_13 C 0.03836(19) 0.78813(17) 0.93754(9)
H44_13 H 0.0315 0.7861 0.9187
C75_13 C 0.0152(2) 0.6355(2) 0.89214(15)
C80_13 C 0.0171(2) 0.5927(2) 0.89087(15)
H48_13 H 0.0395 0.5793 0.8989
O22_7 O 0.33117(16) 0.49242(17) 0.86267(10)
O26_7 O 0.27438(14) 0.43772(17) 0.91612(10)
O32_7 O 0.22227(14) 0.54778(15) 0.83777(12)
O33_7 O 0.28507(15) 0.56970(13) 0.95557(12)
O35_7 O 0.0051(2) 0.88984(17) 0.98549(12)
C88_7 C 0.2330(2) 0.5698(2) 0.81743(18)
C90_7 C 0.0251(2) 0.8632(2) 0.9970(2)
H1_7 H 0.9999 0.5910 0.2529
C76_13 C 0.9828(2) 0.6555(2) 0.87821(17)
H45_13 H 0.9814 0.6841 0.8777
C77_13 C 0.9519(2) 0.6307(2) 0.86479(17)
H46_13 H 0.9297 0.6435 0.8560
C79_13 C 0.9858(3) 0.5691(2) 0.87768(17)
H47_13 H 0.9868 0.5405 0.8779
H49_7 H 0.9999 0.9090 0.9971
K1_8 K 0.2500 0.00862(7) 0.3750
O1_8 O 0.16883(16) 0.00758(17) 0.36267(10)
O7_8 O 0.22562(14) 0.06228(17) 0.41612(10)
O8_14 O 0.18628(15) 0.11319(15) 0.42922(11)
O19_14 O 0.15695(12) 0.00768(13) 0.42440(8)
H2_14 H 0.1793 0.0081 0.4151
H6_14 H 0.2236 0.0041 0.2718
H7_14 H 0.2063 0.0165 0.3165
C28_14 C 0.2192(2) 0.1000(2) 0.41974(15)
C29_14 C 0.2542(2) 0.1295(2) 0.41369(13)
C30_14 C 0.2476(2) 0.1707(2) 0.41680(15)
H19_14 H 0.2227 0.1805 0.4238
C31_14 C 0.2781(3) 0.1970(2) 0.40952(17)
H20_14 H 0.2738 0.2251 0.4122
C32_14 C 0.3151(2) 0.1844(2) 0.39844(14)
C33_14 C 0.3205(2) 0.1430(2) 0.39551(15)
H21_14 H 0.3448 0.1334 0.3875
C34_14 C 0.2918(2) 0.1153(2) 0.40374(14)
H22_14 H 0.2972 0.0872 0.4027
C35_14 C 0.3461(2) 0.21472(19) 0.38616(15)
C36_14 C 0.3556(2) 0.2512(2) 0.39771(15)
H23_14 H 0.3433 0.2585 0.4145
C37_14 C 0.3832(2) 0.2783(2) 0.38553(15)
C38_14 C 0.4016(2) 0.2666(2) 0.36017(17)
H24_14 H 0.4210 0.2838 0.3518
C39_14 C 0.39085(19) 0.22887(19) 0.34729(16)
C40_14 C 0.3637(2) 0.2041(2) 0.36109(16)
H25_14 H 0.3569 0.1788 0.3532
C41_14 C 0.3939(2) 0.3193(2) 0.39842(16)
C42_14 C 0.3657(2) 0.3441(3) 0.41026(18)
H26_14 H 0.3383 0.3358 0.4107
C43_14 C 0.3766(2) 0.3815(2) 0.42177(16)
H27_14 H 0.3564 0.3970 0.4307
C45_14 C 0.4449(2) 0.3727(2) 0.40781(15)
H28_14 H 0.4718 0.3826 0.4068
C46_14 C 0.4361(2) 0.3356(2) 0.39661(17)
H29_14 H 0.4566 0.3204 0.3878
C48_14 C 0.4092(2) 0.21727(19) 0.32008(14)
C49_14 C 0.4486(2) 0.2268(2) 0.31170(17)
H30_14 H 0.4646 0.2434 0.3232
C50_14 C 0.4650(2) 0.2129(2) 0.28757(17)
H31_14 H 0.4923 0.2189 0.2832
C52_14 C 0.4023(2) 0.1791(2) 0.27627(17)
H32_14 H 0.3867 0.1626 0.2644
C53_14 C 0.3859(2) 0.1938(2) 0.30196(17)
H33_14 H 0.3588 0.1875 0.3067
O22_8 O 0.33117(16) 0.00758(17) 0.38733(10)
O26_8 O 0.27438(14) 0.06228(17) 0.33388(10)
O2_14 O 0.11349(17) 0.97027(16) 0.35713(11)
O4_14 O 0.05690(14) 0.90828(15) 0.07728(10)
O13_8 O 0.27773(14) 0.95222(15) 0.33777(12)
O14_8 O 0.21493(15) 0.93030(13) 0.45557(12)
H3_14 H 0.0529 0.9715 0.0323
C1_14 C 0.1454(3) 0.9882(3) 0.34809(16)
C2_14 C 0.1551(2) 0.9836(2) 0.31801(15)
C3_14 C 0.1289(2) 0.9589(3) 0.30123(16)
H4_14 H 0.1045 0.9483 0.3085
C4_14 C 0.1405(2) 0.9508(3) 0.27348(16)
H5_14 H 0.1239 0.9335 0.2628
C5_14 C 0.1753(2) 0.9673(2) 0.26145(14)
C6_14 C 0.19970(19) 0.9923(2) 0.27897(14)
C7_14 C 0.1892(2) 0.9997(2) 0.30580(13)
C8_14 C 0.1899(2) 0.9552(2) 0.23293(14)
C9_14 C 0.1621(2) 0.9560(2) 0.21046(16)
H8_14 H 0.1350 0.9644 0.2132
C10_14 C 0.1758(3) 0.9441(2) 0.18375(15)
C11_14 C 0.2165(2) 0.9325(2) 0.17966(15)
H9_14 H 0.2256 0.9242 0.1621
C12_14 C 0.2432(2) 0.9336(2) 0.20176(15)
C13_14 C 0.22989(19) 0.9452(2) 0.22772(14)
H10_14 H 0.2488 0.9463 0.2423
C14_14 C 0.1439(2) 0.9405(3) 0.16037(15)
C15_14 C 0.1130(3) 0.9714(3) 0.15776(16)
H11_14 H 0.1122 0.9928 0.1707
C16_14 C 0.0848(2) 0.9706(3) 0.13719(17)
H12_14 H 0.0647 0.9910 0.1361
C17_14 C 0.0860(2) 0.9390(2) 0.11762(15)
C18_14 C 0.1171(3) 0.9093(3) 0.12022(18)
H13_14 H 0.1188 0.8888 0.1067
C19_14 C 0.1443(2) 0.9088(3) 0.14100(17)
H14_14 H 0.1633 0.8874 0.1425
C20_14 C 0.0536(2) 0.9367(2) 0.09515(13)
C21_14 C 0.2870(2) 0.9225(2) 0.19722(15)
C22_14 C 0.3062(2) 0.9303(3) 0.17229(16)
H15_14 H 0.2915 0.9426 0.1578
C23_14 C 0.3486(2) 0.9196(3) 0.16837(16)
H16_14 H 0.3613 0.9246 0.1513
C25_14 C 0.3507(2) 0.8940(3) 0.21455(16)
H17_14 H 0.3648 0.8814 0.2292
C26_14 C 0.3097(2) 0.9046(3) 0.21790(16)
H18_14 H 0.2971 0.8994 0.2350
C55_8 C 0.2670(2) 0.9302(2) 0.31743(18)
C56_14 C 0.23146(19) 0.90187(18) 0.32116(16)
C57_14 C 0.2181(2) 0.8782(2) 0.29837(16)
H34_14 H 0.2328 0.8783 0.2817
C58_14 C 0.1829(2) 0.8547(2) 0.30106(17)
H35_14 H 0.1745 0.8383 0.2862
C59_14 C 0.1591(2) 0.8551(2) 0.32586(16)
C60_14 C 0.1746(2) 0.87754(19) 0.34799(14)
H36_14 H 0.1604 0.8773 0.3649
C61_14 C 0.2113(2) 0.90077(19) 0.34603(15)
H37_14 H 0.2214 0.9150 0.3615
C62_14 C 0.1175(2) 0.8357(2) 0.32762(14)
C63_14 C 0.1091(2) 0.7989(2) 0.31474(16)
H38_14 H 0.1299 0.7849 0.3052
C64_14 C 0.0697(2) 0.7826(2) 0.31590(17)
C65_14 C 0.0395(2) 0.8020(2) 0.33037(16)
H39_14 H 0.0134 0.7904 0.3318
C66_14 C 0.0485(2) 0.8399(2) 0.34317(14)
C67_14 C 0.0873(2) 0.8551(2) 0.34164(14)
H40_14 H 0.0932 0.8798 0.3506
C68_14 C 0.05918(18) 0.74394(14) 0.29935(11)
C69_14 C 0.06947(18) 0.74089(13) 0.27120(11)
H41_14 H 0.0834 0.7623 0.2624
C70_14 C 0.05894(17) 0.70576(16) 0.25617(8)
H42_14 H 0.0658 0.7037 0.2373
C72_14 C 0.02783(18) 0.67674(14) 0.29743(11)
H43_14 H 0.0139 0.6553 0.3062
C73_14 C 0.03836(19) 0.71187(17) 0.31246(9)
H44_14 H 0.0315 0.7139 0.3313
C75_14 C 0.0152(2) 0.8645(2) 0.35786(15)
C80_14 C 0.0171(2) 0.9073(2) 0.35913(15)
H48_14 H 0.0395 0.9207 0.3511
O32_8 O 0.22227(14) 0.95222(15) 0.41223(12)
O33_8 O 0.28507(15) 0.93030(13) 0.29443(12)
C88_8 C 0.2330(2) 0.9302(2) 0.43257(18)
C76_14 C 0.9828(2) 0.8445(2) 0.37179(17)
H45_14 H 0.9814 0.8159 0.3723
C77_14 C 0.9519(2) 0.8693(2) 0.38521(17)
H46_14 H 0.9297 0.8565 0.3940
C79_14 C 0.9858(3) 0.9309(2) 0.37232(17)
H47_14 H 0.9868 0.9595 0.3721
O2_15 O 0.38651(17) 0.52973(16) 0.85713(11)
O4_15 O 0.44310(14) 0.59172(15) 0.57728(10)
O8_15 O 0.31372(15) 0.38681(15) 0.92922(11)
O15_8 O 0.46577(16) 0.63697(13) 0.52296(12)
O16_8 O 0.4949(2) 0.61016(17) 0.48549(12)
H1_8 H 0.5001 0.5910 0.4971
O19_15 O 0.34305(12) 0.49232(13) 0.92440(8)
H2_15 H 0.3207 0.4919 0.9151
H3_15 H 0.4471 0.5285 0.5323
C1_15 C 0.3546(3) 0.5118(3) 0.84809(16)
C2_15 C 0.3449(2) 0.5164(2) 0.81801(15)
C3_15 C 0.3711(2) 0.5411(3) 0.80123(16)
H4_15 H 0.3955 0.5517 0.8085
C4_15 C 0.3595(2) 0.5492(3) 0.77348(16)
H5_15 H 0.3761 0.5665 0.7628
C5_15 C 0.3247(2) 0.5327(2) 0.76145(14)
C6_15 C 0.30030(19) 0.5077(2) 0.77897(14)
H6_15 H 0.2764 0.4959 0.7718
C7_15 C 0.3108(2) 0.5003(2) 0.80580(13)
H7_15 H 0.2937 0.4835 0.8165
C8_15 C 0.3101(2) 0.5448(2) 0.73293(14)
C9_15 C 0.3379(2) 0.5440(2) 0.71046(16)
H8_15 H 0.3650 0.5356 0.7132
C10_15 C 0.3242(3) 0.5559(2) 0.68375(15)
C11_15 C 0.2835(2) 0.5675(2) 0.67966(15)
H9_15 H 0.2744 0.5758 0.6621
C12_15 C 0.2568(2) 0.5664(2) 0.70176(15)
C13_15 C 0.27011(19) 0.5548(2) 0.72772(14)
H10_15 H 0.2512 0.5537 0.7423
C14_15 C 0.3561(2) 0.5595(3) 0.66037(15)
C15_15 C 0.3870(3) 0.5286(3) 0.65776(16)
H11_15 H 0.3878 0.5072 0.6707
C16_15 C 0.4152(2) 0.5294(3) 0.63719(17)
H12_15 H 0.4353 0.5090 0.6361
C17_15 C 0.4140(2) 0.5610(2) 0.61762(15)
C18_15 C 0.3829(3) 0.5907(3) 0.62022(18)
H13_15 H 0.3812 0.6112 0.6067
C19_15 C 0.3557(2) 0.5912(3) 0.64100(17)
H14_15 H 0.3367 0.6126 0.6425
C20_15 C 0.4464(2) 0.5633(2) 0.59515(13)
C21_15 C 0.2130(2) 0.5775(2) 0.69722(15)
C22_15 C 0.1938(2) 0.5697(3) 0.67229(16)
H15_15 H 0.2085 0.5574 0.6578
C23_15 C 0.1514(2) 0.5804(3) 0.66837(16)
H16_15 H 0.1387 0.5754 0.6513
C25_15 C 0.1493(2) 0.6060(3) 0.71455(16)
H17_15 H 0.1352 0.6186 0.7292
C26_15 C 0.1903(2) 0.5954(3) 0.71790(16)
H18_15 H 0.2029 0.6006 0.7350
C28_15 C 0.2808(2) 0.4000(2) 0.91974(15)
C29_15 C 0.2458(2) 0.3705(2) 0.91369(13)
C30_15 C 0.2524(2) 0.3293(2) 0.91680(15)
H19_15 H 0.2773 0.3195 0.9238
C31_15 C 0.2219(3) 0.3030(2) 0.90952(17)
H20_15 H 0.2262 0.2749 0.9122
C32_15 C 0.1849(2) 0.3156(2) 0.89844(14)
C33_15 C 0.1795(2) 0.3570(2) 0.89551(15)
H21_15 H 0.1552 0.3666 0.8875
C34_15 C 0.2082(2) 0.3847(2) 0.90374(14)
H22_15 H 0.2028 0.4128 0.9027
C35_15 C 0.1539(2) 0.28528(19) 0.88616(15)
C36_15 C 0.1444(2) 0.2488(2) 0.89771(15)
H23_15 H 0.1567 0.2415 0.9145
C37_15 C 0.1168(2) 0.2217(2) 0.88553(15)
C38_15 C 0.0984(2) 0.2334(2) 0.86017(17)
H24_15 H 0.0790 0.2162 0.8518
C39_15 C 0.10915(19) 0.27113(19) 0.84729(16)
C40_15 C 0.1363(2) 0.2959(2) 0.86109(16)
H25_15 H 0.1431 0.3212 0.8532
C41_15 C 0.1061(2) 0.1807(2) 0.89842(16)
C42_15 C 0.1343(2) 0.1559(3) 0.91026(18)
H26_15 H 0.1617 0.1642 0.9107
C43_15 C 0.1234(2) 0.1185(2) 0.92177(16)
H27_15 H 0.1436 0.1030 0.9307
C45_15 C 0.0551(2) 0.1273(2) 0.90781(15)
H28_15 H 0.0282 0.1174 0.9068
C46_15 C 0.0639(2) 0.1644(2) 0.89661(17)
H29_15 H 0.0434 0.1796 0.8878
C48_15 C 0.0908(2) 0.28273(19) 0.82008(14)
C49_15 C 0.0514(2) 0.2732(2) 0.81170(17)
H30_15 H 0.0354 0.2566 0.8232
C50_15 C 0.0350(2) 0.2871(2) 0.78757(17)
H31_15 H 0.0077 0.2811 0.7832
C52_15 C 0.0977(2) 0.3209(2) 0.77627(17)
H32_15 H 0.1133 0.3374 0.7644
C53_15 C 0.1141(2) 0.3062(2) 0.80196(17)
H33_15 H 0.1412 0.3125 0.8067
C56_15 C 0.26854(19) 0.59813(18) 0.82116(16)
C57_15 C 0.2819(2) 0.6218(2) 0.79837(16)
H34_15 H 0.2672 0.6217 0.7817
C58_15 C 0.3171(2) 0.6453(2) 0.80106(17)
H35_15 H 0.3255 0.6617 0.7862
C59_15 C 0.3409(2) 0.6449(2) 0.82586(16)
C60_15 C 0.3254(2) 0.62246(19) 0.84799(14)
H36_15 H 0.3396 0.6227 0.8649
C61_15 C 0.2887(2) 0.59923(19) 0.84603(15)
H37_15 H 0.2786 0.5850 0.8615
C62_15 C 0.3825(2) 0.6643(2) 0.82762(14)
C63_15 C 0.3909(2) 0.7011(2) 0.81474(16)
H38_15 H 0.3701 0.7151 0.8052
C64_15 C 0.4303(2) 0.7174(2) 0.81590(17)
C65_15 C 0.4605(2) 0.6980(2) 0.83037(16)
H39_15 H 0.4866 0.7096 0.8318
C66_15 C 0.4515(2) 0.6601(2) 0.84317(14)
C67_15 C 0.4127(2) 0.6449(2) 0.84164(14)
H40_15 H 0.4068 0.6202 0.8506
C68_15 C 0.44082(18) 0.75606(14) 0.79935(11)
C69_15 C 0.43053(18) 0.75911(13) 0.77120(11)
H41_15 H 0.4166 0.7377 0.7624
C70_15 C 0.44106(17) 0.79424(16) 0.75617(8)
H42_15 H 0.4342 0.7963 0.7373
C71_8 C 0.46188(17) 0.82632(13) 0.76929(10)
C72_15 C 0.47217(18) 0.82326(14) 0.79743(11)
H43_15 H 0.4861 0.8447 0.8062
C73_15 C 0.46164(19) 0.78813(17) 0.81246(9)
H44_15 H 0.4685 0.7861 0.8313
C74_8 C 0.4749(2) 0.6368(2) 0.4970(2)
C75_15 C 0.4848(2) 0.6355(2) 0.85786(15)
C76_15 C 0.5172(2) 0.6555(2) 0.87179(17)
H45_15 H 0.5186 0.6841 0.8723
C77_15 C 0.5481(2) 0.6307(2) 0.88521(17)
H46_15 H 0.5703 0.6435 0.8940
C79_15 C 0.5142(3) 0.5691(2) 0.87232(17)
H47_15 H 0.5132 0.5405 0.8721
C80_15 C 0.4829(2) 0.5927(2) 0.85913(15)
H48_15 H 0.4605 0.5793 0.8511
O34_8 O 0.46577(16) 0.86303(13) 0.72704(12)
O35_8 O 0.4949(2) 0.88984(17) 0.76451(12)
H49_8 H 0.5001 0.9090 0.7529
C89_8 C 0.46188(17) 0.67368(13) 0.48071(10)
C90_8 C 0.4749(2) 0.8632(2) 0.7530(2)
O8_16 O 0.31372(15) 0.11319(15) 0.32078(11)
O19_16 O 0.34305(12) 0.00768(13) 0.32560(8)
H2_16 H 0.3207 0.0081 0.3349
H6_16 H 0.2764 0.0041 0.4782
H7_16 H 0.2937 0.0165 0.4335
C28_16 C 0.2808(2) 0.1000(2) 0.33026(15)
C29_16 C 0.2458(2) 0.1295(2) 0.33631(13)
C30_16 C 0.2524(2) 0.1707(2) 0.33320(15)
H19_16 H 0.2773 0.1805 0.3262
C31_16 C 0.2219(3) 0.1970(2) 0.34048(17)
H20_16 H 0.2262 0.2251 0.3378
C32_16 C 0.1849(2) 0.1844(2) 0.35156(14)
C33_16 C 0.1795(2) 0.1430(2) 0.35449(15)
H21_16 H 0.1552 0.1334 0.3625
C34_16 C 0.2082(2) 0.1153(2) 0.34626(14)
H22_16 H 0.2028 0.0872 0.3473
C35_16 C 0.1539(2) 0.21472(19) 0.36384(15)
C36_16 C 0.1444(2) 0.2512(2) 0.35229(15)
H23_16 H 0.1567 0.2585 0.3355
C37_16 C 0.1168(2) 0.2783(2) 0.36447(15)
C38_16 C 0.0984(2) 0.2666(2) 0.38983(17)
H24_16 H 0.0790 0.2838 0.3982
C39_16 C 0.10915(19) 0.22887(19) 0.40271(16)
C40_16 C 0.1363(2) 0.2041(2) 0.38891(16)
H25_16 H 0.1431 0.1788 0.3968
C41_16 C 0.1061(2) 0.3193(2) 0.35158(16)
C42_16 C 0.1343(2) 0.3441(3) 0.33974(18)
H26_16 H 0.1617 0.3358 0.3393
C43_16 C 0.1234(2) 0.3815(2) 0.32823(16)
H27_16 H 0.1436 0.3970 0.3193
C45_16 C 0.0551(2) 0.3727(2) 0.34219(15)
H28_16 H 0.0282 0.3826 0.3432
C46_16 C 0.0639(2) 0.3356(2) 0.35339(17)
H29_16 H 0.0434 0.3204 0.3622
C48_16 C 0.0908(2) 0.21727(19) 0.42992(14)
C49_16 C 0.0514(2) 0.2268(2) 0.43830(17)
H30_16 H 0.0354 0.2434 0.4268
C50_16 C 0.0350(2) 0.2129(2) 0.46243(17)
H31_16 H 0.0077 0.2189 0.4668
C52_16 C 0.0977(2) 0.1791(2) 0.47373(17)
H32_16 H 0.1133 0.1626 0.4856
C53_16 C 0.1141(2) 0.1938(2) 0.44804(17)
H33_16 H 0.1412 0.1875 0.4433
O2_16 O 0.38651(17) 0.97027(16) 0.39287(11)
O4_16 O 0.44310(14) 0.90828(15) 0.67272(10)
H3_16 H 0.4471 0.9715 0.7177
C1_16 C 0.3546(3) 0.9882(3) 0.40191(16)
C2_16 C 0.3449(2) 0.9836(2) 0.43199(15)
C3_16 C 0.3711(2) 0.9589(3) 0.44877(16)
H4_16 H 0.3955 0.9483 0.4415
C4_16 C 0.3595(2) 0.9508(3) 0.47652(16)
H5_16 H 0.3761 0.9335 0.4872
C5_16 C 0.3247(2) 0.9673(2) 0.48855(14)
C6_16 C 0.30030(19) 0.9923(2) 0.47103(14)
C7_16 C 0.3108(2) 0.9997(2) 0.44420(13)
C8_16 C 0.3101(2) 0.9552(2) 0.51707(14)
C9_16 C 0.3379(2) 0.9560(2) 0.53954(16)
H8_16 H 0.3650 0.9644 0.5368
C10_16 C 0.3242(3) 0.9441(2) 0.56625(15)
C11_16 C 0.2835(2) 0.9325(2) 0.57034(15)
H9_16 H 0.2744 0.9242 0.5879
C12_16 C 0.2568(2) 0.9336(2) 0.54824(15)
C13_16 C 0.27011(19) 0.9452(2) 0.52228(14)
H10_16 H 0.2512 0.9463 0.5077
C14_16 C 0.3561(2) 0.9405(3) 0.58963(15)
C15_16 C 0.3870(3) 0.9714(3) 0.59224(16)
H11_16 H 0.3878 0.9928 0.5793
C16_16 C 0.4152(2) 0.9706(3) 0.61281(17)
H12_16 H 0.4353 0.9910 0.6139
C17_16 C 0.4140(2) 0.9390(2) 0.63238(15)
C18_16 C 0.3829(3) 0.9093(3) 0.62978(18)
H13_16 H 0.3812 0.8888 0.6433
C19_16 C 0.3557(2) 0.9088(3) 0.60900(17)
H14_16 H 0.3367 0.8874 0.6075
C20_16 C 0.4464(2) 0.9367(2) 0.65485(13)
C21_16 C 0.2130(2) 0.9225(2) 0.55278(15)
C22_16 C 0.1938(2) 0.9303(3) 0.57771(16)
H15_16 H 0.2085 0.9426 0.5922
C23_16 C 0.1514(2) 0.9196(3) 0.58163(16)
H16_16 H 0.1387 0.9246 0.5987
C25_16 C 0.1493(2) 0.8940(3) 0.53545(16)
H17_16 H 0.1352 0.8814 0.5208
C26_16 C 0.1903(2) 0.9046(3) 0.53210(16)
H18_16 H 0.2029 0.8994 0.5150
C56_16 C 0.26854(19) 0.90187(18) 0.42884(16)
C57_16 C 0.2819(2) 0.8782(2) 0.45163(16)
H34_16 H 0.2672 0.8783 0.4683
C58_16 C 0.3171(2) 0.8547(2) 0.44894(17)
H35_16 H 0.3255 0.8383 0.4638
C59_16 C 0.3409(2) 0.8551(2) 0.42414(16)
C60_16 C 0.3254(2) 0.87754(19) 0.40201(14)
H36_16 H 0.3396 0.8773 0.3851
C61_16 C 0.2887(2) 0.90077(19) 0.40397(15)
H37_16 H 0.2786 0.9150 0.3885
C62_16 C 0.3825(2) 0.8357(2) 0.42238(14)
C63_16 C 0.3909(2) 0.7989(2) 0.43526(16)
H38_16 H 0.3701 0.7849 0.4448
C64_16 C 0.4303(2) 0.7826(2) 0.43410(17)
C65_16 C 0.4605(2) 0.8020(2) 0.41963(16)
H39_16 H 0.4866 0.7904 0.4182
C66_16 C 0.4515(2) 0.8399(2) 0.40683(14)
C67_16 C 0.4127(2) 0.8551(2) 0.40836(14)
H40_16 H 0.4068 0.8798 0.3994
C68_16 C 0.44082(18) 0.74394(14) 0.45065(11)
C69_16 C 0.43053(18) 0.74089(13) 0.47880(11)
H41_16 H 0.4166 0.7623 0.4876
C70_16 C 0.44106(17) 0.70576(16) 0.49383(8)
H42_16 H 0.4342 0.7037 0.5127
C72_16 C 0.47217(18) 0.67674(14) 0.45257(11)
H43_16 H 0.4861 0.6553 0.4438
C73_16 C 0.46164(19) 0.71187(17) 0.43754(9)
H44_16 H 0.4685 0.7139 0.4187
C75_16 C 0.4848(2) 0.8645(2) 0.39214(15)
C76_16 C 0.5172(2) 0.8445(2) 0.37821(17)
H45_16 H 0.5186 0.8159 0.3777
C77_16 C 0.5481(2) 0.8693(2) 0.36479(17)
H46_16 H 0.5703 0.8565 0.3560
C79_16 C 0.5142(3) 0.9309(2) 0.37768(17)
H47_16 H 0.5132 0.9595 0.3779
C80_16 C 0.4829(2) 0.9073(2) 0.39087(15)
H48_16 H 0.4605 0.9207 0.3989
loop_
_geom_bond_atom_site_label_1
_geom_bond_atom_site_label_2
_geom_bond_site_symmetry_1
_geom_bond_site_symmetry_2
Zn1 O1 1_555 1_555
Zn2 O8 1_555 1_555
Zn3 O6 1_555 1_555
K1 O1 1_555 1_555
O1 C1 1_555 1_555
O2 Zn1 1_555 1_555
O5 Zn1 1_555 1_555
O6 C27 1_555 1_555
O7 K1 1_555 1_555
O8 C28 1_555 1_555
O11 Zn3 1_555 1_555
O12 Zn2 1_555 1_555
O13 K1 1_555 1_555
O14 Zn3 1_555 1_555
O17 Zn2 1_555 1_555
O18 Zn1 1_555 1_555
O19 Zn1 1_555 1_555
H2 O19 1_555 1_555
C1 O2 1_555 1_555
C2 C1 1_555 1_555
C3 C2 1_555 1_555
H4 C3 1_555 1_555
C4 C3 1_555 1_555
H5 C4 1_555 1_555
C5 C4 1_555 1_555
C6 C5 1_555 1_555
H6 C6 1_555 1_555
C7 C2 1_555 1_555
H7 C7 1_555 1_555
C27 O5 1_555 1_555
C28 O7 1_555 1_555
C29 C28 1_555 1_555
C30 C29 1_555 1_555
H19 C30 1_555 1_555
C31 C30 1_555 1_555
H20 C31 1_555 1_555
C32 C31 1_555 1_555
C33 C32 1_555 1_555
H21 C33 1_555 1_555
C34 C29 1_555 1_555
H22 C34 1_555 1_555
C35 C32 1_555 1_555
C36 C35 1_555 1_555
H23 C36 1_555 1_555
C37 C36 1_555 1_555
C38 C37 1_555 1_555
H24 C38 1_555 1_555
C39 C38 1_555 1_555
C40 C35 1_555 1_555
H25 C40 1_555 1_555
C41 C37 1_555 1_555
C42 C41 1_555 1_555
H26 C42 1_555 1_555
C43 C42 1_555 1_555
H27 C43 1_555 1_555
C44 C43 1_555 1_555
C45 C44 1_555 1_555
H28 C45 1_555 1_555
C46 C41 1_555 1_555
H29 C46 1_555 1_555
C48 C39 1_555 1_555
C49 C48 1_555 1_555
H30 C49 1_555 1_555
C50 C49 1_555 1_555
H31 C50 1_555 1_555
C51 C50 1_555 1_555
C52 C51 1_555 1_555
H32 C52 1_555 1_555
C53 C48 1_555 1_555
H33 C53 1_555 1_555
C54 O11 1_555 1_555
C55 O13 1_555 1_555
C56 C55 1_555 1_555
C57 C56 1_555 1_555
H34 C57 1_555 1_555
C58 C57 1_555 1_555
H35 C58 1_555 1_555
C59 C58 1_555 1_555
C60 C59 1_555 1_555
H36 C60 1_555 1_555
C61 C56 1_555 1_555
H37 C61 1_555 1_555
C62 C59 1_555 1_555
C63 C62 1_555 1_555
H38 C63 1_555 1_555
C64 C63 1_555 1_555
C65 C64 1_555 1_555
H39 C65 1_555 1_555
C66 C65 1_555 1_555
C67 C62 1_555 1_555
H40 C67 1_555 1_555
C68 C64 1_555 1_555
C69 C68 1_555 1_555
H41 C69 1_555 1_555
C70 C69 1_555 1_555
C71 C70 1_555 1_555
C72 C71 1_555 1_555
H43 C72 1_555 1_555
C73 C68 1_555 1_555
H44 C73 1_555 1_555
C75 C66 1_555 1_555
C80 C75 1_555 1_555
H48 C80 1_555 1_555
C81 O17 1_555 1_555
Zn13 O33 1_555 1_555
Zn14 O29 1_555 1_555
O22 K1 1_555 1_555
O26 K1 1_555 1_555
O27 C85 1_555 1_555
O29 C85 1_555 1_555
O32 K1 1_555 1_555
O33 C55 1_555 1_555
C82 C27 1_555 1_555
C85 C44 1_555 1_555
C86 C54 1_555 1_555
C88 O14 1_555 1_555
C90 C71 1_555 1_555
C91 C81 1_555 1_555
Zn2 O19 1_555 1_555
Zn3 O19 1_555 1_555
O12 C54 1_555 1_555
O18 C81 1_555 1_555
C6 C7 1_555 1_555
C33 C34 1_555 1_555
C39 C40 1_555 1_555
C45 C46 1_555 1_555
C52 C53 1_555 1_555
C60 C61 1_555 1_555
C66 C67 1_555 1_555
C72 C73 1_555 1_555
O32 C88 1_555 1_555
O35 C90 1_555 1_555
Zn4 O3 1_555 1_555
Zn5 O4 1_555 1_555
Zn6 O20 1_555 1_555
O3 C20 1_555 1_555
O4 C20 1_555 1_555
O15 Zn5 1_555 1_555
O20 Zn4 1_555 1_555
H3 O20 1_555 1_555
O21 Zn6 1_555 1_555
C9 C8 1_555 1_555
H8 C9 1_555 1_555
C10 C9 1_555 1_555
C11 C10 1_555 1_555
H9 C11 1_555 1_555
C12 C11 1_555 1_555
C13 C8 1_555 1_555
H10 C13 1_555 1_555
C14 C10 1_555 1_555
C15 C14 1_555 1_555
H11 C15 1_555 1_555
C16 C15 1_555 1_555
H12 C16 1_555 1_555
C17 C16 1_555 1_555
C18 C17 1_555 1_555
H13 C18 1_555 1_555
C19 C14 1_555 1_555
H14 C19 1_555 1_555
C20 C17 1_555 1_555
C21 C12 1_555 1_555
C22 C21 1_555 1_555
H15 C22 1_555 1_555
C23 C22 1_555 1_555
H16 C23 1_555 1_555
C24 C23 1_555 1_555
C25 C24 1_555 1_555
H17 C25 1_555 1_555
C26 C21 1_555 1_555
H18 C26 1_555 1_555
C74 O15 1_555 1_555
Zn8 O24 1_555 1_555
Zn9 O31 1_555 1_555
Zn11 O30 1_555 1_555
Zn12 O25 1_555 1_555
Zn16 O34 1_555 1_555
O24 C83 1_555 1_555
O25 C83 1_555 1_555
O28 Zn4 1_555 1_555
O30 C87 1_555 1_555
O31 C87 1_555 1_555
O39 Zn6 1_555 1_555
C83 C24 1_555 1_555
C89 C74 1_555 1_555
Zn5 O20 1_555 1_555
O16 C74 1_555 1_555
C12 C13 1_555 1_555
C18 C19 1_555 1_555
C25 C26 1_555 1_555
H45 C76 1_555 1_555
C77 C76 1_555 1_555
H46 C77 1_555 1_555
C78 C77 1_555 1_555
C79 C78 1_555 1_555
H47 C79 1_555 1_555
Zn7 O37 1_555 1_555
Zn10 O36 1_555 1_555
O36 C92 1_555 1_555
O37 C92 1_555 1_555
C92 C78 1_555 1_555
O10 Zn4_2 1_555 1_555
C47 O9 1_555 1_555
O23 Zn4_2 1_555 1_555
O38 Zn4_2 1_555 1_555
O40 Zn6_2 1_555 1_555
O41 Zn6_2 1_555 1_555
C84 C47 1_555 1_555
Zn6_2 O38 1_555 1_555
O10 C47 1_555 1_555
Zn1_2 O22 1_555 1_555
Zn2_2 O8_2 1_555 1_555
Zn13 O6_2 1_555 1_555
Zn4_3 O3_2 1_555 1_555
Zn5_2 O4_2 1_555 1_555
Zn6_3 O20_2 1_555 1_555
O22 C1_2 1_555 1_555
O2_2 Zn1_2 1_555 1_555
O3_2 C20_2 1_555 1_555
O4_2 C20_2 1_555 1_555
O5_2 Zn1_2 1_555 1_555
O6_2 C27_2 1_555 1_555
O8_2 C28_2 1_555 1_555
O9_2 Zn5_2 1_555 1_555
O10_2 Zn4_3 1_555 1_555
O11_2 Zn13 1_555 1_555
O12_2 Zn2_2 1_555 1_555
O15_2 Zn5_2 1_555 1_555
O16_2 H1_2 1_555 1_555
O17_2 Zn2_2 1_555 1_555
O18_2 Zn1_2 1_555 1_555
O19_2 Zn1_2 1_555 1_555
H2_2 O19_2 1_555 1_555
O20_2 Zn4_3 1_555 1_555
H3_2 O20_2 1_555 1_555
O21_2 Zn6_3 1_555 1_555
C1_2 O2_2 1_555 1_555
C2_2 C1_2 1_555 1_555
C3_2 C2_2 1_555 1_555
H4_2 C3_2 1_555 1_555
C4_2 C3_2 1_555 1_555
H5_2 C4_2 1_555 1_555
C5_2 C4_2 1_555 1_555
C6_2 C5_2 1_555 1_555
H6_2 C6_2 1_555 1_555
C7_2 C2_2 1_555 1_555
H7_2 C7_2 1_555 1_555
C8_2 C5_2 1_555 1_555
C9_2 C8_2 1_555 1_555
H8_2 C9_2 1_555 1_555
C10_2 C9_2 1_555 1_555
C11_2 C10_2 1_555 1_555
H9_2 C11_2 1_555 1_555
C12_2 C11_2 1_555 1_555
C13_2 C8_2 1_555 1_555
H10_2 C13_2 1_555 1_555
C14_2 C10_2 1_555 1_555
C15_2 C14_2 1_555 1_555
H11_2 C15_2 1_555 1_555
C16_2 C15_2 1_555 1_555
H12_2 C16_2 1_555 1_555
C17_2 C16_2 1_555 1_555
C18_2 C17_2 1_555 1_555
H13_2 C18_2 1_555 1_555
C19_2 C14_2 1_555 1_555
H14_2 C19_2 1_555 1_555
C20_2 C17_2 1_555 1_555
C21_2 C12_2 1_555 1_555
C22_2 C21_2 1_555 1_555
H15_2 C22_2 1_555 1_555
C23_2 C22_2 1_555 1_555
H16_2 C23_2 1_555 1_555
C24_2 C23_2 1_555 1_555
C25_2 C24_2 1_555 1_555
H17_2 C25_2 1_555 1_555
C26_2 C21_2 1_555 1_555
H18_2 C26_2 1_555 1_555
C27_2 O5_2 1_555 1_555
C28_2 O26 1_555 1_555
C29_2 C28_2 1_555 1_555
C30_2 C29_2 1_555 1_555
H19_2 C30_2 1_555 1_555
C31_2 C30_2 1_555 1_555
H20_2 C31_2 1_555 1_555
C32_2 C31_2 1_555 1_555
C33_2 C32_2 1_555 1_555
H21_2 C33_2 1_555 1_555
C34_2 C29_2 1_555 1_555
H22_2 C34_2 1_555 1_555
C35_2 C32_2 1_555 1_555
C36_2 C35_2 1_555 1_555
H23_2 C36_2 1_555 1_555
C37_2 C36_2 1_555 1_555
C38_2 C37_2 1_555 1_555
H24_2 C38_2 1_555 1_555
C39_2 C38_2 1_555 1_555
C40_2 C35_2 1_555 1_555
H25_2 C40_2 1_555 1_555
C41_2 C37_2 1_555 1_555
C42_2 C41_2 1_555 1_555
H26_2 C42_2 1_555 1_555
C43_2 C42_2 1_555 1_555
H27_2 C43_2 1_555 1_555
C44_2 C43_2 1_555 1_555
C45_2 C44_2 1_555 1_555
H28_2 C45_2 1_555 1_555
C46_2 C41_2 1_555 1_555
H29_2 C46_2 1_555 1_555
C47_2 O9_2 1_555 1_555
C48_2 C39_2 1_555 1_555
C49_2 C48_2 1_555 1_555
H30_2 C49_2 1_555 1_555
C50_2 C49_2 1_555 1_555
H31_2 C50_2 1_555 1_555
C51_2 C50_2 1_555 1_555
C52_2 C51_2 1_555 1_555
H32_2 C52_2 1_555 1_555
C53_2 C48_2 1_555 1_555
H33_2 C53_2 1_555 1_555
C54_2 O11_2 1_555 1_555
C56_2 C88 1_555 1_555
C57_2 C56_2 1_555 1_555
H34_2 C57_2 1_555 1_555
C58_2 C57_2 1_555 1_555
H35_2 C58_2 1_555 1_555
C59_2 C58_2 1_555 1_555
C60_2 C59_2 1_555 1_555
H36_2 C60_2 1_555 1_555
C61_2 C56_2 1_555 1_555
H37_2 C61_2 1_555 1_555
C62_2 C59_2 1_555 1_555
C63_2 C62_2 1_555 1_555
H38_2 C63_2 1_555 1_555
C64_2 C63_2 1_555 1_555
C65_2 C64_2 1_555 1_555
H39_2 C65_2 1_555 1_555
C66_2 C65_2 1_555 1_555
C67_2 C62_2 1_555 1_555
H40_2 C67_2 1_555 1_555
C68_2 C64_2 1_555 1_555
C69_2 C68_2 1_555 1_555
H41_2 C69_2 1_555 1_555
C70_2 C69_2 1_555 1_555
H42_2 C70_2 1_555 1_555
C71_2 C70_2 1_555 1_555
C72_2 C71_2 1_555 1_555
H43_2 C72_2 1_555 1_555
C73_2 C68_2 1_555 1_555
H44_2 C73_2 1_555 1_555
C74_2 O15_2 1_555 1_555
C75_2 C66_2 1_555 1_555
C76_2 C75_2 1_555 1_555
H45_2 C76_2 1_555 1_555
C77_2 C76_2 1_555 1_555
H46_2 C77_2 1_555 1_555
C78_2 C77_2 1_555 1_555
C79_2 C78_2 1_555 1_555
H47_2 C79_2 1_555 1_555
C80_2 C75_2 1_555 1_555
H48_2 C80_2 1_555 1_555
C81_2 O17_2 1_555 1_555
Zn7_2 O37_2 1_555 1_555
Zn8_2 O24_2 1_555 1_555
Zn9_2 O31_2 1_555 1_555
Zn10_2 O36_2 1_555 1_555
Zn12_2 O25_2 1_555 1_555
Zn14_3 O29_2 1_555 1_555
Zn16_2 O34_2 1_555 1_555
O23_2 Zn4_3 1_555 1_555
O24_2 C83_2 1_555 1_555
O25_2 C83_2 1_555 1_555
O27_2 C85_2 1_555 1_555
O28_2 Zn4_3 1_555 1_555
O29_2 C85_2 1_555 1_555
O30_2 C87_2 1_555 1_555
O31_2 C87_2 1_555 1_555
O34_2 C90_2 1_555 1_555
O35_2 H49_2 1_555 1_555
O36_2 C92_2 1_555 1_555
O37_2 C92_2 1_555 1_555
O38_2 Zn4_3 1_555 1_555
O39_2 Zn6_3 1_555 1_555
O40_2 Zn6_3 1_555 1_555
O41_2 Zn6_3 1_555 1_555
C82_2 C27_2 1_555 1_555
C83_2 C24_2 1_555 1_555
C84_2 C47_2 1_555 1_555
C85_2 C44_2 1_555 1_555
C87_2 C51_2 1_555 1_555
C89_2 C74_2 1_555 1_555
C90_2 C71_2 1_555 1_555
C91_2 C81_2 1_555 1_555
C92_2 C78_2 1_555 1_555
Zn2_2 O19_2 1_555 1_555
Zn13 O19_2 1_555 1_555
Zn5_2 O20_2 1_555 1_555
Zn6_3 O38_2 1_555 1_555
O10_2 C47_2 1_555 1_555
O12_2 C54_2 1_555 1_555
O16_2 C74_2 1_555 1_555
O18_2 C81_2 1_555 1_555
C6_2 C7_2 1_555 1_555
C12_2 C13_2 1_555 1_555
C18_2 C19_2 1_555 1_555
C25_2 C26_2 1_555 1_555
C33_2 C34_2 1_555 1_555
C39_2 C40_2 1_555 1_555
C45_2 C46_2 1_555 1_555
C52_2 C53_2 1_555 1_555
C60_2 C61_2 1_555 1_555
C66_2 C67_2 1_555 1_555
C72_2 C73_2 1_555 1_555
C79_2 C80_2 1_555 1_555
O35_2 C90_2 1_555 1_555
Zn2_3 O8_3 1_555 1_555
K1_2 O1_2 1_555 1_555
O7_2 K1_2 1_555 1_555
O8_3 C28_3 1_555 1_555
O12_3 Zn2_3 1_555 1_555
O17_3 Zn2_3 1_555 1_555
H2_3 O19_3 1_555 1_555
O21_3 Zn6_4 1_555 1_555
C28_3 O7_2 1_555 1_555
C29_3 C28_3 1_555 1_555
C30_3 C29_3 1_555 1_555
H19_3 C30_3 1_555 1_555
C31_3 C30_3 1_555 1_555
H20_3 C31_3 1_555 1_555
C32_3 C31_3 1_555 1_555
C33_3 C32_3 1_555 1_555
H21_3 C33_3 1_555 1_555
C34_3 C29_3 1_555 1_555
H22_3 C34_3 1_555 1_555
C35_3 C32_3 1_555 1_555
C36_3 C35_3 1_555 1_555
H23_3 C36_3 1_555 1_555
C37_3 C36_3 1_555 1_555
C38_3 C37_3 1_555 1_555
H24_3 C38_3 1_555 1_555
C39_3 C38_3 1_555 1_555
C40_3 C35_3 1_555 1_555
H25_3 C40_3 1_555 1_555
C41_3 C37_3 1_555 1_555
C42_3 C41_3 1_555 1_555
H26_3 C42_3 1_555 1_555
C43_3 C42_3 1_555 1_555
H27_3 C43_3 1_555 1_555
C44_3 C43_3 1_555 1_555
C45_3 C44_3 1_555 1_555
H28_3 C45_3 1_555 1_555
C46_3 C41_3 1_555 1_555
H29_3 C46_3 1_555 1_555
C48_3 C39_3 1_555 1_555
C49_3 C48_3 1_555 1_555
H30_3 C49_3 1_555 1_555
C50_3 C49_3 1_555 1_555
H31_3 C50_3 1_555 1_555
C51_3 C50_3 1_555 1_555
C52_3 C51_3 1_555 1_555
H32_3 C52_3 1_555 1_555
C53_3 C48_3 1_555 1_555
H33_3 C53_3 1_555 1_555
C54_3 O11_3 1_555 1_555
C81_3 O17_3 1_555 1_555
Zn9_3 O31_3 1_555 1_555
Zn14_7 O29_3 1_555 1_555
Zn15_3 O27_3 1_555 1_555
O22_2 K1_2 1_555 1_555
O23_3 Zn4_4 1_555 1_555
O26_2 K1_2 1_555 1_555
O27_3 C85_3 1_555 1_555
O28_3 Zn4_4 1_555 1_555
O29_3 C85_3 1_555 1_555
O30_3 C87_3 1_555 1_555
O31_3 C87_3 1_555 1_555
O38_3 Zn4_4 1_555 1_555
O40_3 Zn6_4 1_555 1_555
C85_3 C44_3 1_555 1_555
C86_3 C54_3 1_555 1_555
C87_3 C51_3 1_555 1_555
C91_3 C81_3 1_555 1_555
Zn2_3 O19_3 1_555 1_555
Zn6_4 O38_3 1_555 1_555
O12_3 C54_3 1_555 1_555
O18_3 C81_3 1_555 1_555
C33_3 C34_3 1_555 1_555
C39_3 C40_3 1_555 1_555
C45_3 C46_3 1_555 1_555
C52_3 C53_3 1_555 1_555
Zn3_2 O6_3 1_555 1_555
Zn4_5 O3_3 1_555 1_555
Zn16_2 O4_3 1_555 1_555
Zn6_5 O20_3 1_555 1_555
O2_3 Zn1_3 1_555 1_555
O3_3 C20_3 1_555 1_555
O4_3 C20_3 1_555 1_555
O5_3 Zn1_3 1_555 1_555
O6_3 C27_3 1_555 1_555
O9_3 Zn16_2 1_555 1_555
O10_3 Zn4_5 1_555 1_555
O14_2 Zn3_2 1_555 1_555
O20_3 Zn4_5 1_555 1_555
H3_3 O20_3 1_555 1_555
C1_3 O2_3 1_555 1_555
C2_3 C1_3 1_555 1_555
C3_3 C2_3 1_555 1_555
H4_3 C3_3 1_555 1_555
C4_3 C3_3 1_555 1_555
H5_3 C4_3 1_555 1_555
C5_3 C4_3 1_555 1_555
C6_3 C5_3 1_555 1_555
C7_3 C2_3 1_555 1_555
C8_3 C5_3 1_555 1_555
C9_3 C8_3 1_555 1_555
H8_3 C9_3 1_555 1_555
C10_3 C9_3 1_555 1_555
C11_3 C10_3 1_555 1_555
H9_3 C11_3 1_555 1_555
C12_3 C11_3 1_555 1_555
C13_3 C8_3 1_555 1_555
H10_3 C13_3 1_555 1_555
C14_3 C10_3 1_555 1_555
C15_3 C14_3 1_555 1_555
H11_3 C15_3 1_555 1_555
C16_3 C15_3 1_555 1_555
H12_3 C16_3 1_555 1_555
C17_3 C16_3 1_555 1_555
C18_3 C17_3 1_555 1_555
H13_3 C18_3 1_555 1_555
C19_3 C14_3 1_555 1_555
H14_3 C19_3 1_555 1_555
C20_3 C17_3 1_555 1_555
C21_3 C12_3 1_555 1_555
C22_3 C21_3 1_555 1_555
H15_3 C22_3 1_555 1_555
C23_3 C22_3 1_555 1_555
H16_3 C23_3 1_555 1_555
C24_3 C23_3 1_555 1_555
C25_3 C24_3 1_555 1_555
H17_3 C25_3 1_555 1_555
C26_3 C21_3 1_555 1_555
H18_3 C26_3 1_555 1_555
C27_3 O5_3 1_555 1_555
C47_3 O9_3 1_555 1_555
C55_2 O13_2 1_555 1_555
C56_3 C55_2 1_555 1_555
C57_3 C56_3 1_555 1_555
H34_3 C57_3 1_555 1_555
C58_3 C57_3 1_555 1_555
H35_3 C58_3 1_555 1_555
C59_3 C58_3 1_555 1_555
C60_3 C59_3 1_555 1_555
H36_3 C60_3 1_555 1_555
C61_3 C56_3 1_555 1_555
H37_3 C61_3 1_555 1_555
C62_3 C59_3 1_555 1_555
C63_3 C62_3 1_555 1_555
H38_3 C63_3 1_555 1_555
C64_3 C63_3 1_555 1_555
C65_3 C64_3 1_555 1_555
H39_3 C65_3 1_555 1_555
C66_3 C65_3 1_555 1_555
C67_3 C62_3 1_555 1_555
H40_3 C67_3 1_555 1_555
C68_3 C64_3 1_555 1_555
C69_3 C68_3 1_555 1_555
H41_3 C69_3 1_555 1_555
C70_3 C69_3 1_555 1_555
H42_3 C70_3 1_555 1_555
C89_2 C70_3 1_555 1_555
C72_3 C89_2 1_555 1_555
H43_3 C72_3 1_555 1_555
C73_3 C68_3 1_555 1_555
H44_3 C73_3 1_555 1_555
C75_3 C66_3 1_555 1_555
C76_3 C75_3 1_555 1_555
H45_3 C76_3 1_555 1_555
C77_3 C76_3 1_555 1_555
H46_3 C77_3 1_555 1_555
C78_3 C77_3 1_555 1_555
C79_3 C78_3 1_555 1_555
H47_3 C79_3 1_555 1_555
C80_3 C75_3 1_555 1_555
H48_3 C80_3 1_555 1_555
Zn8_3 O24_3 1_555 1_555
Zn10_3 O36_3 1_555 1_555
Zn12_3 O25_3 1_555 1_555
Zn13_2 O33_2 1_555 1_555
O24_3 C83_3 1_555 1_555
O25_3 C83_3 1_555 1_555
O33_2 C55_2 1_555 1_555
O36_3 C92_3 1_555 1_555
O37_3 C92_3 1_555 1_555
O39_3 Zn6_5 1_555 1_555
O41_3 Zn6_5 1_555 1_555
C82_3 C27_3 1_555 1_555
C83_3 C24_3 1_555 1_555
C84_3 C47_3 1_555 1_555
C88_2 O14_2 1_555 1_555
C92_3 C78_3 1_555 1_555
Zn16_2 O20_3 1_555 1_555
O10_3 C47_3 1_555 1_555
C6_3 C7_3 1_555 1_555
C12_3 C13_3 1_555 1_555
C18_3 C19_3 1_555 1_555
C25_3 C26_3 1_555 1_555
C60_3 C61_3 1_555 1_555
C66_3 C67_3 1_555 1_555
C72_3 C73_3 1_555 1_555
C79_3 C80_3 1_555 1_555
O32_2 C88_2 1_555 1_555
O21_4 Zn6_6 1_555 1_555
Zn2_4 O8_4 1_555 1_555
O8_4 C28_4 1_555 1_555
O12_4 Zn2_4 1_555 1_555
O17_4 Zn2_4 1_555 1_555
H2_4 O19_4 1_555 1_555
O21_5 Zn6_7 1_555 1_555
C28_4 O26_2 1_555 1_555
C29_4 C28_4 1_555 1_555
C30_4 C29_4 1_555 1_555
H19_4 C30_4 1_555 1_555
C31_4 C30_4 1_555 1_555
H20_4 C31_4 1_555 1_555
C32_4 C31_4 1_555 1_555
C33_4 C32_4 1_555 1_555
H21_4 C33_4 1_555 1_555
C34_4 C29_4 1_555 1_555
H22_4 C34_4 1_555 1_555
C35_4 C32_4 1_555 1_555
C36_4 C35_4 1_555 1_555
H23_4 C36_4 1_555 1_555
C37_4 C36_4 1_555 1_555
C38_4 C37_4 1_555 1_555
H24_4 C38_4 1_555 1_555
C39_4 C38_4 1_555 1_555
C40_4 C35_4 1_555 1_555
H25_4 C40_4 1_555 1_555
C41_4 C37_4 1_555 1_555
C42_4 C41_4 1_555 1_555
H26_4 C42_4 1_555 1_555
C43_4 C42_4 1_555 1_555
H27_4 C43_4 1_555 1_555
C44_4 C43_4 1_555 1_555
C45_4 C44_4 1_555 1_555
H28_4 C45_4 1_555 1_555
C46_4 C41_4 1_555 1_555
H29_4 C46_4 1_555 1_555
C48_4 C39_4 1_555 1_555
C49_4 C48_4 1_555 1_555
H30_4 C49_4 1_555 1_555
C50_4 C49_4 1_555 1_555
H31_4 C50_4 1_555 1_555
C51_4 C50_4 1_555 1_555
C52_4 C51_4 1_555 1_555
H32_4 C52_4 1_555 1_555
C53_4 C48_4 1_555 1_555
H33_4 C53_4 1_555 1_555
C54_4 O11_4 1_555 1_555
C81_4 O17_4 1_555 1_555
Zn9_4 O31_4 1_555 1_555
Zn11_4 O30_4 1_555 1_555
Zn14_9 O29_4 1_555 1_555
Zn15_4 O27_4 1_555 1_555
O27_4 C85_4 1_555 1_555
O28_4 Zn4_6 1_555 1_555
O29_4 C85_4 1_555 1_555
O30_4 C87_4 1_555 1_555
O31_4 C87_4 1_555 1_555
C85_4 C44_4 1_555 1_555
C86_4 C54_4 1_555 1_555
C87_4 C51_4 1_555 1_555
C91_4 C81_4 1_555 1_555
Zn2_4 O19_4 1_555 1_555
O12_4 C54_4 1_555 1_555
O18_4 C81_4 1_555 1_555
C33_4 C34_4 1_555 1_555
C39_4 C40_4 1_555 1_555
C45_4 C46_4 1_555 1_555
C52_4 C53_4 1_555 1_555
O40_4 Zn6_8 1_555 1_555
O23_4 Zn4_7 1_555 1_555
O38_4 Zn4_7 1_555 1_555
Zn6_9 O38_4 1_555 1_555
O39_4 Zn6_10 1_555 1_555
Zn13_2 O6_4 1_555 1_555
Zn4_8 O3_4 1_555 1_555
Zn16 O4_4 1_555 1_555
Zn6_11 O20_4 1_555 1_555
O2_4 Zn1_4 1_555 1_555
O3_4 C20_4 1_555 1_555
O4_4 C20_4 1_555 1_555
O5_4 Zn1_4 1_555 1_555
O6_4 C27_4 1_555 1_555
O20_4 Zn4_8 1_555 1_555
H3_4 O20_4 1_555 1_555
C1_4 O2_4 1_555 1_555
C2_4 C1_4 1_555 1_555
C3_4 C2_4 1_555 1_555
H4_4 C3_4 1_555 1_555
C4_4 C3_4 1_555 1_555
H5_4 C4_4 1_555 1_555
C5_4 C4_4 1_555 1_555
C6_4 C5_4 1_555 1_555
C7_4 C2_4 1_555 1_555
C8_4 C5_4 1_555 1_555
C9_4 C8_4 1_555 1_555
H8_4 C9_4 1_555 1_555
C10_4 C9_4 1_555 1_555
C11_4 C10_4 1_555 1_555
H9_4 C11_4 1_555 1_555
C12_4 C11_4 1_555 1_555
C13_4 C8_4 1_555 1_555
H10_4 C13_4 1_555 1_555
C14_4 C10_4 1_555 1_555
C15_4 C14_4 1_555 1_555
H11_4 C15_4 1_555 1_555
C16_4 C15_4 1_555 1_555
H12_4 C16_4 1_555 1_555
C17_4 C16_4 1_555 1_555
C18_4 C17_4 1_555 1_555
H13_4 C18_4 1_555 1_555
C19_4 C14_4 1_555 1_555
H14_4 C19_4 1_555 1_555
C20_4 C17_4 1_555 1_555
C21_4 C12_4 1_555 1_555
C22_4 C21_4 1_555 1_555
H15_4 C22_4 1_555 1_555
C23_4 C22_4 1_555 1_555
H16_4 C23_4 1_555 1_555
C24_4 C23_4 1_555 1_555
C25_4 C24_4 1_555 1_555
H17_4 C25_4 1_555 1_555
C26_4 C21_4 1_555 1_555
H18_4 C26_4 1_555 1_555
C27_4 O5_4 1_555 1_555
C56_4 C88_2 1_555 1_555
C57_4 C56_4 1_555 1_555
H34_4 C57_4 1_555 1_555
C58_4 C57_4 1_555 1_555
H35_4 C58_4 1_555 1_555
C59_4 C58_4 1_555 1_555
C60_4 C59_4 1_555 1_555
H36_4 C60_4 1_555 1_555
C61_4 C56_4 1_555 1_555
H37_4 C61_4 1_555 1_555
C62_4 C59_4 1_555 1_555
C63_4 C62_4 1_555 1_555
H38_4 C63_4 1_555 1_555
C64_4 C63_4 1_555 1_555
C65_4 C64_4 1_555 1_555
H39_4 C65_4 1_555 1_555
C66_4 C65_4 1_555 1_555
C67_4 C62_4 1_555 1_555
H40_4 C67_4 1_555 1_555
C68_4 C64_4 1_555 1_555
C69_4 C68_4 1_555 1_555
H41_4 C69_4 1_555 1_555
C70_4 C69_4 1_555 1_555
H42_4 C70_4 1_555 1_555
C89 C70_4 1_555 1_555
C72_4 C89 1_555 1_555
H43_4 C72_4 1_555 1_555
C73_4 C68_4 1_555 1_555
H44_4 C73_4 1_555 1_555
C75_4 C66_4 1_555 1_555
C80_4 C75_4 1_555 1_555
H48_4 C80_4 1_555 1_555
Zn8_4 O24_4 1_555 1_555
Zn12_4 O25_4 1_555 1_555
O24_4 C83_4 1_555 1_555
O25_4 C83_4 1_555 1_555
C82_4 C27_4 1_555 1_555
C83_4 C24_4 1_555 1_555
Zn16 O20_4 1_555 1_555
C6_4 C7_4 1_555 1_555
C12_4 C13_4 1_555 1_555
C18_4 C19_4 1_555 1_555
C25_4 C26_4 1_555 1_555
C60_4 C61_4 1_555 1_555
C66_4 C67_4 1_555 1_555
C72_4 C73_4 1_555 1_555
O41_4 Zn6_12 1_555 1_555
O10_4 Zn4_9 1_555 1_555
C47_4 O9_4 1_555 1_555
H45_4 C76_4 1_555 1_555
C77_4 C76_4 1_555 1_555
H46_4 C77_4 1_555 1_555
C78_4 C77_4 1_555 1_555
C79_4 C78_4 1_555 1_555
H47_4 C79_4 1_555 1_555
Zn10_4 O36_4 1_555 1_555
O36_4 C92_4 1_555 1_555
O37_4 C92_4 1_555 1_555
O41_5 Zn6_13 1_555 1_555
C84_4 C47_4 1_555 1_555
C92_4 C78_4 1_555 1_555
O10_4 C47_4 1_555 1_555
Zn14_7 O3_5 1_555 1_555
Zn15_3 O4_5 1_555 1_555
O2_5 Zn8_2 1_555 1_555
O3_5 C20_5 1_555 1_555
O4_5 C20_5 1_555 1_555
O14_3 Zn12_2 1_555 1_555
O15_3 Zn15_3 1_555 1_555
O16_3 H1_3 1_555 1_555
O39 Zn14_7 1_555 1_555
H3_5 O39 1_555 1_555
C1_5 O2_5 1_555 1_555
C2_5 C1_5 1_555 1_555
C3_5 C2_5 1_555 1_555
H4_5 C3_5 1_555 1_555
C4_5 C3_5 1_555 1_555
H5_5 C4_5 1_555 1_555
C5_5 C4_5 1_555 1_555
C6_5 C5_5 1_555 1_555
C7_5 C2_5 1_555 1_555
C8_5 C5_5 1_555 1_555
C9_5 C8_5 1_555 1_555
H8_5 C9_5 1_555 1_555
C10_5 C9_5 1_555 1_555
C11_5 C10_5 1_555 1_555
H9_5 C11_5 1_555 1_555
C12_5 C11_5 1_555 1_555
C13_5 C8_5 1_555 1_555
H10_5 C13_5 1_555 1_555
C14_5 C10_5 1_555 1_555
C15_5 C14_5 1_555 1_555
H11_5 C15_5 1_555 1_555
C16_5 C15_5 1_555 1_555
H12_5 C16_5 1_555 1_555
C17_5 C16_5 1_555 1_555
C18_5 C17_5 1_555 1_555
H13_5 C18_5 1_555 1_555
C19_5 C14_5 1_555 1_555
H14_5 C19_5 1_555 1_555
C20_5 C17_5 1_555 1_555
C21_5 C12_5 1_555 1_555
C22_5 C21_5 1_555 1_555
H15_5 C22_5 1_555 1_555
C23_5 C22_5 1_555 1_555
H16_5 C23_5 1_555 1_555
C82_4 C23_5 1_555 1_555
C25_5 C82_4 1_555 1_555
H17_5 C25_5 1_555 1_555
C26_5 C21_5 1_555 1_555
H18_5 C26_5 1_555 1_555
C55_3 O13_3 1_555 1_555
C56_5 C55_3 1_555 1_555
C57_5 C56_5 1_555 1_555
H34_5 C57_5 1_555 1_555
C58_5 C57_5 1_555 1_555
H35_5 C58_5 1_555 1_555
C59_5 C58_5 1_555 1_555
C60_5 C59_5 1_555 1_555
H36_5 C60_5 1_555 1_555
C61_5 C56_5 1_555 1_555
H37_5 C61_5 1_555 1_555
C62_5 C59_5 1_555 1_555
C63_5 C62_5 1_555 1_555
H38_5 C63_5 1_555 1_555
C64_5 C63_5 1_555 1_555
C65_5 C64_5 1_555 1_555
H39_5 C65_5 1_555 1_555
C66_5 C65_5 1_555 1_555
C67_5 C62_5 1_555 1_555
H40_5 C67_5 1_555 1_555
C68_5 C64_5 1_555 1_555
C69_5 C68_5 1_555 1_555
H41_5 C69_5 1_555 1_555
C70_5 C69_5 1_555 1_555
H42_5 C70_5 1_555 1_555
C71_3 C70_5 1_555 1_555
C72_5 C71_3 1_555 1_555
H43_5 C72_5 1_555 1_555
C73_5 C68_5 1_555 1_555
H44_5 C73_5 1_555 1_555
C74_3 O15_3 1_555 1_555
C75_5 C66_5 1_555 1_555
C76_5 C75_5 1_555 1_555
H45_5 C76_5 1_555 1_555
C77_5 C76_5 1_555 1_555
H46_5 C77_5 1_555 1_555
C78_5 C77_5 1_555 1_555
C79_5 C78_5 1_555 1_555
H47_5 C79_5 1_555 1_555
C80_5 C75_5 1_555 1_555
H48_5 C80_5 1_555 1_555
Zn9_2 O36_5 1_555 1_555
Zn12_3 O33_3 1_555 1_555
Zn15_4 O34_3 1_555 1_555
O33_3 C55_3 1_555 1_555
O34_3 C90_3 1_555 1_555
O35_3 H49_3 1_555 1_555
O36_5 C92_5 1_555 1_555
O37_5 C92_5 1_555 1_555
C88_3 O14_3 1_555 1_555
C89_3 C74_3 1_555 1_555
C90_3 C71_3 1_555 1_555
C92_5 C78_5 1_555 1_555
Zn15_3 O39 1_555 1_555
O16_3 C74_3 1_555 1_555
C6_5 C7_5 1_555 1_555
C12_5 C13_5 1_555 1_555
C18_5 C19_5 1_555 1_555
C25_5 C26_5 1_555 1_555
C60_5 C61_5 1_555 1_555
C66_5 C67_5 1_555 1_555
C72_5 C73_5 1_555 1_555
C79_5 C80_5 1_555 1_555
O32_3 C88_3 1_555 1_555
O35_3 C90_3 1_555 1_555
Zn2_5 O8_5 1_555 1_555
K1_3 O1_3 1_555 1_555
O7_3 K1_3 1_555 1_555
O8_5 C28_5 1_555 1_555
O12_5 Zn2_5 1_555 1_555
O17_5 Zn2_5 1_555 1_555
H2_5 O19_5 1_555 1_555
C28_5 O7_3 1_555 1_555
C29_5 C28_5 1_555 1_555
C30_5 C29_5 1_555 1_555
H19_5 C30_5 1_555 1_555
C31_5 C30_5 1_555 1_555
H20_5 C31_5 1_555 1_555
C32_5 C31_5 1_555 1_555
C33_5 C32_5 1_555 1_555
H21_5 C33_5 1_555 1_555
C34_5 C29_5 1_555 1_555
H22_5 C34_5 1_555 1_555
C35_5 C32_5 1_555 1_555
C36_5 C35_5 1_555 1_555
H23_5 C36_5 1_555 1_555
C37_5 C36_5 1_555 1_555
C38_5 C37_5 1_555 1_555
H24_5 C38_5 1_555 1_555
C39_5 C38_5 1_555 1_555
C40_5 C35_5 1_555 1_555
H25_5 C40_5 1_555 1_555
C41_5 C37_5 1_555 1_555
C42_5 C41_5 1_555 1_555
H26_5 C42_5 1_555 1_555
C43_5 C42_5 1_555 1_555
H27_5 C43_5 1_555 1_555
C84_3 C43_5 1_555 1_555
C45_5 C84_3 1_555 1_555
H28_5 C45_5 1_555 1_555
C46_5 C41_5 1_555 1_555
H29_5 C46_5 1_555 1_555
C48_5 C39_5 1_555 1_555
C49_5 C48_5 1_555 1_555
H30_5 C49_5 1_555 1_555
C50_5 C49_5 1_555 1_555
H31_5 C50_5 1_555 1_555
C51_5 C50_5 1_555 1_555
C52_5 C51_5 1_555 1_555
H32_5 C52_5 1_555 1_555
C53_5 C48_5 1_555 1_555
H33_5 C53_5 1_555 1_555
C54_5 O11_5 1_555 1_555
C81_5 O17_5 1_555 1_555
Zn10_4 O31_5 1_555 1_555
O22_3 K1_3 1_555 1_555
O23_5 Zn14_8 1_555 1_555
O26_3 K1_3 1_555 1_555
O28_5 Zn14_8 1_555 1_555
O30_5 C87_5 1_555 1_555
O31_5 C87_5 1_555 1_555
O40 Zn14_8 1_555 1_555
C86_5 C54_5 1_555 1_555
C87_5 C51_5 1_555 1_555
C91_5 C81_5 1_555 1_555
Zn2_5 O19_5 1_555 1_555
O12_5 C54_5 1_555 1_555
O18_5 C81_5 1_555 1_555
C33_5 C34_5 1_555 1_555
C39_5 C40_5 1_555 1_555
C45_5 C46_5 1_555 1_555
C52_5 C53_5 1_555 1_555
Zn8 O1_4 1_555 1_555
Zn2_6 O8_6 1_555 1_555
Zn14_9 O3_6 1_555 1_555
Zn15_4 O4_6 1_555 1_555
K1_4 O1_4 1_555 1_555
O1_4 C1_6 1_555 1_555
O2_6 Zn8 1_555 1_555
O3_6 C20_6 1_555 1_555
O4_6 C20_6 1_555 1_555
O7_4 K1_4 1_555 1_555
O8_6 C28_6 1_555 1_555
O11_6 Zn12 1_555 1_555
O12_6 Zn2_6 1_555 1_555
O13_4 K1_4 1_555 1_555
O14_4 Zn12 1_555 1_555
O17_6 Zn2_6 1_555 1_555
O18_6 Zn8 1_555 1_555
O19_6 Zn8 1_555 1_555
H2_6 O19_6 1_555 1_555
O39_2 Zn14_9 1_555 1_555
H3_6 O39_2 1_555 1_555
C1_6 O2_6 1_555 1_555
C2_6 C1_6 1_555 1_555
C3_6 C2_6 1_555 1_555
H4_6 C3_6 1_555 1_555
C4_6 C3_6 1_555 1_555
H5_6 C4_6 1_555 1_555
C5_6 C4_6 1_555 1_555
C6_6 C5_6 1_555 1_555
H6_6 C6_6 1_555 1_555
C7_6 C2_6 1_555 1_555
H7_6 C7_6 1_555 1_555
C8_6 C5_6 1_555 1_555
C9_6 C8_6 1_555 1_555
H8_6 C9_6 1_555 1_555
C10_6 C9_6 1_555 1_555
C11_6 C10_6 1_555 1_555
H9_6 C11_6 1_555 1_555
C12_6 C11_6 1_555 1_555
C13_6 C8_6 1_555 1_555
H10_6 C13_6 1_555 1_555
C14_6 C10_6 1_555 1_555
C15_6 C14_6 1_555 1_555
H11_6 C15_6 1_555 1_555
C16_6 C15_6 1_555 1_555
H12_6 C16_6 1_555 1_555
C17_6 C16_6 1_555 1_555
C18_6 C17_6 1_555 1_555
H13_6 C18_6 1_555 1_555
C19_6 C14_6 1_555 1_555
H14_6 C19_6 1_555 1_555
C20_6 C17_6 1_555 1_555
C21_6 C12_6 1_555 1_555
C22_6 C21_6 1_555 1_555
H15_6 C22_6 1_555 1_555
C23_6 C22_6 1_555 1_555
H16_6 C23_6 1_555 1_555
C82_3 C23_6 1_555 1_555
C25_6 C82_3 1_555 1_555
H17_6 C25_6 1_555 1_555
C26_6 C21_6 1_555 1_555
H18_6 C26_6 1_555 1_555
C28_6 O7_4 1_555 1_555
C29_6 C28_6 1_555 1_555
C30_6 C29_6 1_555 1_555
H19_6 C30_6 1_555 1_555
C31_6 C30_6 1_555 1_555
H20_6 C31_6 1_555 1_555
C32_6 C31_6 1_555 1_555
C33_6 C32_6 1_555 1_555
H21_6 C33_6 1_555 1_555
C34_6 C29_6 1_555 1_555
H22_6 C34_6 1_555 1_555
C35_6 C32_6 1_555 1_555
C36_6 C35_6 1_555 1_555
H23_6 C36_6 1_555 1_555
C37_6 C36_6 1_555 1_555
C38_6 C37_6 1_555 1_555
H24_6 C38_6 1_555 1_555
C39_6 C38_6 1_555 1_555
C40_6 C35_6 1_555 1_555
H25_6 C40_6 1_555 1_555
C41_6 C37_6 1_555 1_555
C42_6 C41_6 1_555 1_555
H26_6 C42_6 1_555 1_555
C43_6 C42_6 1_555 1_555
H27_6 C43_6 1_555 1_555
C84_4 C43_6 1_555 1_555
C45_6 C84_4 1_555 1_555
H28_6 C45_6 1_555 1_555
C46_6 C41_6 1_555 1_555
H29_6 C46_6 1_555 1_555
C48_6 C39_6 1_555 1_555
C49_6 C48_6 1_555 1_555
H30_6 C49_6 1_555 1_555
C50_6 C49_6 1_555 1_555
H31_6 C50_6 1_555 1_555
C51_6 C50_6 1_555 1_555
C52_6 C51_6 1_555 1_555
H32_6 C52_6 1_555 1_555
C53_6 C48_6 1_555 1_555
H33_6 C53_6 1_555 1_555
C54_6 O11_6 1_555 1_555
C55_4 O13_4 1_555 1_555
C56_6 C55_4 1_555 1_555
C57_6 C56_6 1_555 1_555
H34_6 C57_6 1_555 1_555
C58_6 C57_6 1_555 1_555
H35_6 C58_6 1_555 1_555
C59_6 C58_6 1_555 1_555
C60_6 C59_6 1_555 1_555
H36_6 C60_6 1_555 1_555
C61_6 C56_6 1_555 1_555
H37_6 C61_6 1_555 1_555
C62_6 C59_6 1_555 1_555
C63_6 C62_6 1_555 1_555
H38_6 C63_6 1_555 1_555
C64_6 C63_6 1_555 1_555
C65_6 C64_6 1_555 1_555
H39_6 C65_6 1_555 1_555
C66_6 C65_6 1_555 1_555
C67_6 C62_6 1_555 1_555
H40_6 C67_6 1_555 1_555
C68_6 C64_6 1_555 1_555
C69_6 C68_6 1_555 1_555
H41_6 C69_6 1_555 1_555
C70_6 C69_6 1_555 1_555
H42_6 C70_6 1_555 1_555
C89_3 C70_6 1_555 1_555
C72_6 C89_3 1_555 1_555
H43_6 C72_6 1_555 1_555
C73_6 C68_6 1_555 1_555
H44_6 C73_6 1_555 1_555
C75_6 C66_6 1_555 1_555
C76_6 C75_6 1_555 1_555
H45_6 C76_6 1_555 1_555
C77_6 C76_6 1_555 1_555
H46_6 C77_6 1_555 1_555
C78_6 C77_6 1_555 1_555
C79_6 C78_6 1_555 1_555
H47_6 C79_6 1_555 1_555
C80_6 C75_6 1_555 1_555
H48_6 C80_6 1_555 1_555
C81_6 O17_6 1_555 1_555
Zn7_6 O37_6 1_555 1_555
Zn10_3 O31_6 1_555 1_555
Zn9 O36_6 1_555 1_555
Zn12_4 O33_4 1_555 1_555
O22_4 K1_4 1_555 1_555
O23_6 Zn14_9 1_555 1_555
O26_4 K1_4 1_555 1_555
O28_6 Zn14_9 1_555 1_555
O30_6 C87_6 1_555 1_555
O31_6 C87_6 1_555 1_555
O32_4 K1_4 1_555 1_555
O33_4 C55_4 1_555 1_555
O36_6 C92_6 1_555 1_555
O37_6 C92_6 1_555 1_555
O40_2 Zn14_9 1_555 1_555
C87_6 C51_6 1_555 1_555
C88_4 O14_4 1_555 1_555
C91_6 C81_6 1_555 1_555
C92_6 C78_6 1_555 1_555
Zn2_6 O19_6 1_555 1_555
Zn12 O19_6 1_555 1_555
Zn15_4 O39_2 1_555 1_555
O12_6 C54_6 1_555 1_555
O18_6 C81_6 1_555 1_555
C6_6 C7_6 1_555 1_555
C12_6 C13_6 1_555 1_555
C18_6 C19_6 1_555 1_555
C25_6 C26_6 1_555 1_555
C33_6 C34_6 1_555 1_555
C39_6 C40_6 1_555 1_555
C45_6 C46_6 1_555 1_555
C52_6 C53_6 1_555 1_555
C60_6 C61_6 1_555 1_555
C66_6 C67_6 1_555 1_555
C72_6 C73_6 1_555 1_555
C79_6 C80_6 1_555 1_555
O32_4 C88_4 1_555 1_555
H45_7 C76_7 1_555 1_555
C77_7 C76_7 1_555 1_555
H46_7 C77_7 1_555 1_555
C78_7 C77_7 1_555 1_555
C79_7 C78_7 1_555 1_555
H47_7 C79_7 1_555 1_555
Zn9_3 O36_7 1_555 1_555
O36_7 C92_7 1_555 1_555
O37_7 C92_7 1_555 1_555
C92_7 C78_7 1_555 1_555
O23_7 Zn14_4 1_555 1_555
O40_4 Zn14_4 1_555 1_555
Zn14_5 O3_7 1_555 1_555
Zn15_2 O4_7 1_555 1_555
O2_7 Zn8_3 1_555 1_555
O3_7 C20_7 1_555 1_555
O4_7 C20_7 1_555 1_555
O15_4 Zn15_2 1_555 1_555
O39_4 Zn14_5 1_555 1_555
H3_7 O39_4 1_555 1_555
C1_7 O2_7 1_555 1_555
C2_7 C1_7 1_555 1_555
C3_7 C2_7 1_555 1_555
H4_7 C3_7 1_555 1_555
C4_7 C3_7 1_555 1_555
H5_7 C4_7 1_555 1_555
C5_7 C4_7 1_555 1_555
C6_7 C5_7 1_555 1_555
C7_7 C2_7 1_555 1_555
C8_7 C5_7 1_555 1_555
C9_7 C8_7 1_555 1_555
H8_7 C9_7 1_555 1_555
C10_7 C9_7 1_555 1_555
C11_7 C10_7 1_555 1_555
H9_7 C11_7 1_555 1_555
C12_7 C11_7 1_555 1_555
C13_7 C8_7 1_555 1_555
H10_7 C13_7 1_555 1_555
C14_7 C10_7 1_555 1_555
C15_7 C14_7 1_555 1_555
H11_7 C15_7 1_555 1_555
C16_7 C15_7 1_555 1_555
H12_7 C16_7 1_555 1_555
C17_7 C16_7 1_555 1_555
C18_7 C17_7 1_555 1_555
H13_7 C18_7 1_555 1_555
C19_7 C14_7 1_555 1_555
H14_7 C19_7 1_555 1_555
C20_7 C17_7 1_555 1_555
C21_7 C12_7 1_555 1_555
C22_7 C21_7 1_555 1_555
H15_7 C22_7 1_555 1_555
C23_7 C22_7 1_555 1_555
H16_7 C23_7 1_555 1_555
C82 C23_7 1_555 1_555
C25_7 C82 1_555 1_555
H17_7 C25_7 1_555 1_555
C26_7 C21_7 1_555 1_555
H18_7 C26_7 1_555 1_555
C56_7 C88_3 1_555 1_555
C57_7 C56_7 1_555 1_555
H34_7 C57_7 1_555 1_555
C58_7 C57_7 1_555 1_555
H35_7 C58_7 1_555 1_555
C59_7 C58_7 1_555 1_555
C60_7 C59_7 1_555 1_555
H36_7 C60_7 1_555 1_555
C61_7 C56_7 1_555 1_555
H37_7 C61_7 1_555 1_555
C62_7 C59_7 1_555 1_555
C63_7 C62_7 1_555 1_555
H38_7 C63_7 1_555 1_555
C64_7 C63_7 1_555 1_555
C65_7 C64_7 1_555 1_555
H39_7 C65_7 1_555 1_555
C66_7 C65_7 1_555 1_555
C67_7 C62_7 1_555 1_555
H40_7 C67_7 1_555 1_555
C68_7 C64_7 1_555 1_555
C69_7 C68_7 1_555 1_555
H41_7 C69_7 1_555 1_555
C70_7 C69_7 1_555 1_555
H42_7 C70_7 1_555 1_555
C71_4 C70_7 1_555 1_555
C72_7 C71_4 1_555 1_555
H43_7 C72_7 1_555 1_555
C73_7 C68_7 1_555 1_555
H44_7 C73_7 1_555 1_555
C75_7 C66_7 1_555 1_555
C80_7 C75_7 1_555 1_555
H48_7 C80_7 1_555 1_555
Zn15 O34_4 1_555 1_555
O34_4 C90_4 1_555 1_555
C90_4 C71_4 1_555 1_555
Zn15_2 O39_4 1_555 1_555
C6_7 C7_7 1_555 1_555
C12_7 C13_7 1_555 1_555
C18_7 C19_7 1_555 1_555
C25_7 C26_7 1_555 1_555
C60_7 C61_7 1_555 1_555
C66_7 C67_7 1_555 1_555
C72_7 C73_7 1_555 1_555
O35_4 C90_4 1_555 1_555
C89_4 C74_4 1_555 1_555
O16_4 C74_4 1_555 1_555
Zn2_7 O8_7 1_555 1_555
O8_7 C28_7 1_555 1_555
O12_7 Zn2_7 1_555 1_555
O17_7 Zn2_7 1_555 1_555
H2_7 O19_7 1_555 1_555
C28_7 O26_3 1_555 1_555
C29_7 C28_7 1_555 1_555
C30_7 C29_7 1_555 1_555
H19_7 C30_7 1_555 1_555
C31_7 C30_7 1_555 1_555
H20_7 C31_7 1_555 1_555
C32_7 C31_7 1_555 1_555
C33_7 C32_7 1_555 1_555
H21_7 C33_7 1_555 1_555
C34_7 C29_7 1_555 1_555
H22_7 C34_7 1_555 1_555
C35_7 C32_7 1_555 1_555
C36_7 C35_7 1_555 1_555
H23_7 C36_7 1_555 1_555
C37_7 C36_7 1_555 1_555
C38_7 C37_7 1_555 1_555
H24_7 C38_7 1_555 1_555
C39_7 C38_7 1_555 1_555
C40_7 C35_7 1_555 1_555
H25_7 C40_7 1_555 1_555
C41_7 C37_7 1_555 1_555
C42_7 C41_7 1_555 1_555
H26_7 C42_7 1_555 1_555
C43_7 C42_7 1_555 1_555
H27_7 C43_7 1_555 1_555
C84_2 C43_7 1_555 1_555
C45_7 C84_2 1_555 1_555
H28_7 C45_7 1_555 1_555
C46_7 C41_7 1_555 1_555
H29_7 C46_7 1_555 1_555
C48_7 C39_7 1_555 1_555
C49_7 C48_7 1_555 1_555
H30_7 C49_7 1_555 1_555
C50_7 C49_7 1_555 1_555
H31_7 C50_7 1_555 1_555
C51_7 C50_7 1_555 1_555
C52_7 C51_7 1_555 1_555
H32_7 C52_7 1_555 1_555
C53_7 C48_7 1_555 1_555
H33_7 C53_7 1_555 1_555
C54_7 O11_7 1_555 1_555
C81_7 O17_7 1_555 1_555
Zn10 O31_7 1_555 1_555
Zn11_7 O30_7 1_555 1_555
O28_7 Zn14_6 1_555 1_555
O30_7 C87_7 1_555 1_555
O31_7 C87_7 1_555 1_555
C86_7 C54_7 1_555 1_555
C87_7 C51_7 1_555 1_555
C91_7 C81_7 1_555 1_555
Zn2_7 O19_7 1_555 1_555
O12_7 C54_7 1_555 1_555
O18_7 C81_7 1_555 1_555
C33_7 C34_7 1_555 1_555
C39_7 C40_7 1_555 1_555
C45_7 C46_7 1_555 1_555
C52_7 C53_7 1_555 1_555
O23_8 Zn14 1_555 1_555
O40_3 Zn14 1_555 1_555
H45_8 C76_8 1_555 1_555
C77_8 C76_8 1_555 1_555
H46_8 C77_8 1_555 1_555
C78_8 C77_8 1_555 1_555
C79_8 C78_8 1_555 1_555
H47_8 C79_8 1_555 1_555
Zn7_8 O37_8 1_555 1_555
Zn9_4 O36_8 1_555 1_555
O36_8 C92_8 1_555 1_555
O37_8 C92_8 1_555 1_555
C92_8 C78_8 1_555 1_555
Zn14_2 O3_8 1_555 1_555
Zn15 O4_8 1_555 1_555
O3_8 C20_8 1_555 1_555
O4_8 C20_8 1_555 1_555
O39_3 Zn14_2 1_555 1_555
H3_8 O39_3 1_555 1_555
C9_8 C8_8 1_555 1_555
H8_8 C9_8 1_555 1_555
C10_8 C9_8 1_555 1_555
C11_8 C10_8 1_555 1_555
H9_8 C11_8 1_555 1_555
C12_8 C11_8 1_555 1_555
C13_8 C8_8 1_555 1_555
H10_8 C13_8 1_555 1_555
C14_8 C10_8 1_555 1_555
C15_8 C14_8 1_555 1_555
H11_8 C15_8 1_555 1_555
C16_8 C15_8 1_555 1_555
H12_8 C16_8 1_555 1_555
C17_8 C16_8 1_555 1_555
C18_8 C17_8 1_555 1_555
H13_8 C18_8 1_555 1_555
C19_8 C14_8 1_555 1_555
H14_8 C19_8 1_555 1_555
C20_8 C17_8 1_555 1_555
C21_8 C12_8 1_555 1_555
C22_8 C21_8 1_555 1_555
H15_8 C22_8 1_555 1_555
C23_8 C22_8 1_555 1_555
H16_8 C23_8 1_555 1_555
C82_2 C23_8 1_555 1_555
C25_8 C82_2 1_555 1_555
H17_8 C25_8 1_555 1_555
C26_8 C21_8 1_555 1_555
H18_8 C26_8 1_555 1_555
Zn10_2 O31_8 1_555 1_555
Zn11_8 O30_8 1_555 1_555
O28_8 Zn14_2 1_555 1_555
O30_8 C87_8 1_555 1_555
O31_8 C87_8 1_555 1_555
Zn15 O39_3 1_555 1_555
C12_8 C13_8 1_555 1_555
C18_8 C19_8 1_555 1_555
C25_8 C26_8 1_555 1_555
Zn8_4 O22_4 1_555 1_555
Zn2_8 O8_8 1_555 1_555
O22_4 C1_8 1_555 1_555
O2_8 Zn8_4 1_555 1_555
O8_8 C28_8 1_555 1_555
O11_8 Zn12_4 1_555 1_555
O12_8 Zn2_8 1_555 1_555
O17_8 Zn2_8 1_555 1_555
O18_8 Zn8_4 1_555 1_555
O19_8 Zn8_4 1_555 1_555
H2_8 O19_8 1_555 1_555
C1_8 O2_8 1_555 1_555
C2_8 C1_8 1_555 1_555
C3_8 C2_8 1_555 1_555
H4_8 C3_8 1_555 1_555
C4_8 C3_8 1_555 1_555
H5_8 C4_8 1_555 1_555
C5_8 C4_8 1_555 1_555
C6_8 C5_8 1_555 1_555
H6_8 C6_8 1_555 1_555
C7_8 C2_8 1_555 1_555
H7_8 C7_8 1_555 1_555
C28_8 O26_4 1_555 1_555
C29_8 C28_8 1_555 1_555
C30_8 C29_8 1_555 1_555
H19_8 C30_8 1_555 1_555
C31_8 C30_8 1_555 1_555
H20_8 C31_8 1_555 1_555
C32_8 C31_8 1_555 1_555
C33_8 C32_8 1_555 1_555
H21_8 C33_8 1_555 1_555
C34_8 C29_8 1_555 1_555
H22_8 C34_8 1_555 1_555
C35_8 C32_8 1_555 1_555
C36_8 C35_8 1_555 1_555
H23_8 C36_8 1_555 1_555
C37_8 C36_8 1_555 1_555
C38_8 C37_8 1_555 1_555
H24_8 C38_8 1_555 1_555
C39_8 C38_8 1_555 1_555
C40_8 C35_8 1_555 1_555
H25_8 C40_8 1_555 1_555
C41_8 C37_8 1_555 1_555
C42_8 C41_8 1_555 1_555
H26_8 C42_8 1_555 1_555
C43_8 C42_8 1_555 1_555
H27_8 C43_8 1_555 1_555
C84 C43_8 1_555 1_555
C45_8 C84 1_555 1_555
H28_8 C45_8 1_555 1_555
C46_8 C41_8 1_555 1_555
H29_8 C46_8 1_555 1_555
C48_8 C39_8 1_555 1_555
C49_8 C48_8 1_555 1_555
H30_8 C49_8 1_555 1_555
C50_8 C49_8 1_555 1_555
H31_8 C50_8 1_555 1_555
C51_8 C50_8 1_555 1_555
C52_8 C51_8 1_555 1_555
H32_8 C52_8 1_555 1_555
C53_8 C48_8 1_555 1_555
H33_8 C53_8 1_555 1_555
C54_8 O11_8 1_555 1_555
C56_8 C88_4 1_555 1_555
C57_8 C56_8 1_555 1_555
H34_8 C57_8 1_555 1_555
C58_8 C57_8 1_555 1_555
H35_8 C58_8 1_555 1_555
C59_8 C58_8 1_555 1_555
C60_8 C59_8 1_555 1_555
H36_8 C60_8 1_555 1_555
C61_8 C56_8 1_555 1_555
H37_8 C61_8 1_555 1_555
C62_8 C59_8 1_555 1_555
C63_8 C62_8 1_555 1_555
H38_8 C63_8 1_555 1_555
C64_8 C63_8 1_555 1_555
C65_8 C64_8 1_555 1_555
H39_8 C65_8 1_555 1_555
C66_8 C65_8 1_555 1_555
C67_8 C62_8 1_555 1_555
H40_8 C67_8 1_555 1_555
C68_8 C64_8 1_555 1_555
C69_8 C68_8 1_555 1_555
H41_8 C69_8 1_555 1_555
C70_8 C69_8 1_555 1_555
C89_4 C70_8 1_555 1_555
C72_8 C89_4 1_555 1_555
H43_8 C72_8 1_555 1_555
C73_8 C68_8 1_555 1_555
H44_8 C73_8 1_555 1_555
C75_8 C66_8 1_555 1_555
C80_8 C75_8 1_555 1_555
H48_8 C80_8 1_555 1_555
C81_8 O17_8 1_555 1_555
C86_8 C54_8 1_555 1_555
C91_8 C81_8 1_555 1_555
Zn2_8 O19_8 1_555 1_555
Zn12_4 O19_8 1_555 1_555
O12_8 C54_8 1_555 1_555
O18_8 C81_8 1_555 1_555
C6_8 C7_8 1_555 1_555
C33_8 C34_8 1_555 1_555
C39_8 C40_8 1_555 1_555
C45_8 C46_8 1_555 1_555
C52_8 C53_8 1_555 1_555
C60_8 C61_8 1_555 1_555
C66_8 C67_8 1_555 1_555
C72_8 C73_8 1_555 1_555
Zn11_6 O6_5 1_555 1_555
Zn5_3 O4_9 1_555 1_555
O2_9 Zn7_3 1_555 1_555
O23_3 C20_9 1_555 1_555
O4_9 C20_9 1_555 1_555
O5_5 Zn7_3 1_555 1_555
O6_5 C27_5 1_555 1_555
O9_5 Zn5_3 1_555 1_555
O14_5 Zn11_6 1_555 1_555
O15_5 Zn5_3 1_555 1_555
O16_5 H1_5 1_555 1_555
H3_9 O38_3 1_555 1_555
C1_9 O2_9 1_555 1_555
C2_9 C1_9 1_555 1_555
C3_9 C2_9 1_555 1_555
H4_9 C3_9 1_555 1_555
C4_9 C3_9 1_555 1_555
H5_9 C4_9 1_555 1_555
C5_9 C4_9 1_555 1_555
C6_9 C5_9 1_555 1_555
C7_9 C2_9 1_555 1_555
C8_9 C5_9 1_555 1_555
C9_9 C8_9 1_555 1_555
H8_9 C9_9 1_555 1_555
C10_9 C9_9 1_555 1_555
C11_9 C10_9 1_555 1_555
H9_9 C11_9 1_555 1_555
C12_9 C11_9 1_555 1_555
C13_9 C8_9 1_555 1_555
H10_9 C13_9 1_555 1_555
C14_9 C10_9 1_555 1_555
C15_9 C14_9 1_555 1_555
H11_9 C15_9 1_555 1_555
C16_9 C15_9 1_555 1_555
H12_9 C16_9 1_555 1_555
C17_9 C16_9 1_555 1_555
C18_9 C17_9 1_555 1_555
H13_9 C18_9 1_555 1_555
C19_9 C14_9 1_555 1_555
H14_9 C19_9 1_555 1_555
C20_9 C17_9 1_555 1_555
C21_9 C12_9 1_555 1_555
C22_9 C21_9 1_555 1_555
H15_9 C22_9 1_555 1_555
C23_9 C22_9 1_555 1_555
H16_9 C23_9 1_555 1_555
C24_5 C23_9 1_555 1_555
C25_9 C24_5 1_555 1_555
H17_9 C25_9 1_555 1_555
C26_9 C21_9 1_555 1_555
H18_9 C26_9 1_555 1_555
C27_5 O5_5 1_555 1_555
C47_5 O9_5 1_555 1_555
C55_5 O13_5 1_555 1_555
C56_9 C55_5 1_555 1_555
C57_9 C56_9 1_555 1_555
H34_9 C57_9 1_555 1_555
C58_9 C57_9 1_555 1_555
H35_9 C58_9 1_555 1_555
C59_9 C58_9 1_555 1_555
C60_9 C59_9 1_555 1_555
H36_9 C60_9 1_555 1_555
C61_9 C56_9 1_555 1_555
H37_9 C61_9 1_555 1_555
C62_9 C59_9 1_555 1_555
C63_9 C62_9 1_555 1_555
H38_9 C63_9 1_555 1_555
C64_9 C63_9 1_555 1_555
C65_9 C64_9 1_555 1_555
H39_9 C65_9 1_555 1_555
C66_9 C65_9 1_555 1_555
C67_9 C62_9 1_555 1_555
H40_9 C67_9 1_555 1_555
C68_9 C64_9 1_555 1_555
C69_9 C68_9 1_555 1_555
H41_9 C69_9 1_555 1_555
C70_9 C69_9 1_555 1_555
H42_9 C70_9 1_555 1_555
C71_5 C70_9 1_555 1_555
C72_9 C71_5 1_555 1_555
H43_9 C72_9 1_555 1_555
C73_9 C68_9 1_555 1_555
H44_9 C73_9 1_555 1_555
C74_5 O15_5 1_555 1_555
C75_9 C66_9 1_555 1_555
C76_9 C75_9 1_555 1_555
H45_9 C76_9 1_555 1_555
C77_9 C76_9 1_555 1_555
H46_9 C77_9 1_555 1_555
C91_3 C77_9 1_555 1_555
C79_9 C91_3 1_555 1_555
H47_9 C79_9 1_555 1_555
C80_9 C75_9 1_555 1_555
H48_9 C80_9 1_555 1_555
Zn7_7 O24_5 1_555 1_555
Zn11_3 O25_5 1_555 1_555
Zn11_5 O33_5 1_555 1_555
Zn16_3 O34_5 1_555 1_555
O24_5 C83_5 1_555 1_555
O25_5 C83_5 1_555 1_555
O33_5 C55_5 1_555 1_555
O34_5 C90_5 1_555 1_555
O35_5 H49_5 1_555 1_555
C82_5 C27_5 1_555 1_555
C83_5 C24_5 1_555 1_555
C84_5 C47_5 1_555 1_555
C88_5 O14_5 1_555 1_555
C89_5 C74_5 1_555 1_555
C90_5 C71_5 1_555 1_555
Zn5_3 O38_3 1_555 1_555
O28_3 C47_5 1_555 1_555
O16_5 C74_5 1_555 1_555
C6_9 C7_9 1_555 1_555
C12_9 C13_9 1_555 1_555
C18_9 C19_9 1_555 1_555
C25_9 C26_9 1_555 1_555
C60_9 C61_9 1_555 1_555
C66_9 C67_9 1_555 1_555
C72_9 C73_9 1_555 1_555
C79_9 C80_9 1_555 1_555
O32_5 C88_5 1_555 1_555
O35_5 C90_5 1_555 1_555
Zn10_3 O8_9 1_555 1_555
K1_5 O1_5 1_555 1_555
O7_5 K1_5 1_555 1_555
O8_9 C28_9 1_555 1_555
H2_9 O19_9 1_555 1_555
C28_9 O7_5 1_555 1_555
C29_9 C28_9 1_555 1_555
C30_9 C29_9 1_555 1_555
H19_9 C30_9 1_555 1_555
C31_9 C30_9 1_555 1_555
H20_9 C31_9 1_555 1_555
C32_9 C31_9 1_555 1_555
C33_9 C32_9 1_555 1_555
H21_9 C33_9 1_555 1_555
C34_9 C29_9 1_555 1_555
H22_9 C34_9 1_555 1_555
C35_9 C32_9 1_555 1_555
C36_9 C35_9 1_555 1_555
H23_9 C36_9 1_555 1_555
C37_9 C36_9 1_555 1_555
C38_9 C37_9 1_555 1_555
H24_9 C38_9 1_555 1_555
C39_9 C38_9 1_555 1_555
C40_9 C35_9 1_555 1_555
H25_9 C40_9 1_555 1_555
C41_9 C37_9 1_555 1_555
C42_9 C41_9 1_555 1_555
H26_9 C42_9 1_555 1_555
C43_9 C42_9 1_555 1_555
H27_9 C43_9 1_555 1_555
C44_5 C43_9 1_555 1_555
C45_9 C44_5 1_555 1_555
H28_9 C45_9 1_555 1_555
C46_9 C41_9 1_555 1_555
H29_9 C46_9 1_555 1_555
C48_9 C39_9 1_555 1_555
C49_9 C48_9 1_555 1_555
H30_9 C49_9 1_555 1_555
C50_9 C49_9 1_555 1_555
H31_9 C50_9 1_555 1_555
C86_7 C50_9 1_555 1_555
C52_9 C86_7 1_555 1_555
H32_9 C52_9 1_555 1_555
C53_9 C48_9 1_555 1_555
H33_9 C53_9 1_555 1_555
Zn15_5 O27_5 1_555 1_555
O22_5 K1_5 1_555 1_555
O26_5 K1_5 1_555 1_555
O27_5 C85_5 1_555 1_555
O28_5 C85_5 1_555 1_555
C85_5 C44_5 1_555 1_555
Zn10_3 O19_9 1_555 1_555
C33_9 C34_9 1_555 1_555
C39_9 C40_9 1_555 1_555
C45_9 C46_9 1_555 1_555
C52_9 C53_9 1_555 1_555
C47_6 O9_6 1_555 1_555
H45_10 C76_10 1_555 1_555
C77_10 C76_10 1_555 1_555
H46_10 C77_10 1_555 1_555
C91_4 C77_10 1_555 1_555
C79_10 C91_4 1_555 1_555
H47_10 C79_10 1_555 1_555
C84_6 C47_6 1_555 1_555
O28_4 C47_6 1_555 1_555
C89_6 C74_6 1_555 1_555
O16_6 C74_6 1_555 1_555
Zn11_5 O6_6 1_555 1_555
Zn5_4 O4_10 1_555 1_555
O2_10 Zn7_4 1_555 1_555
O23_4 C20_10 1_555 1_555
O4_10 C20_10 1_555 1_555
O5_6 Zn7_4 1_555 1_555
O6_6 C27_6 1_555 1_555
O15_6 Zn5_4 1_555 1_555
H3_10 O38_4 1_555 1_555
C1_10 O2_10 1_555 1_555
C2_10 C1_10 1_555 1_555
C3_10 C2_10 1_555 1_555
H4_10 C3_10 1_555 1_555
C4_10 C3_10 1_555 1_555
H5_10 C4_10 1_555 1_555
C5_10 C4_10 1_555 1_555
C6_10 C5_10 1_555 1_555
C7_10 C2_10 1_555 1_555
C8_10 C5_10 1_555 1_555
C9_10 C8_10 1_555 1_555
H8_10 C9_10 1_555 1_555
C10_10 C9_10 1_555 1_555
C11_10 C10_10 1_555 1_555
H9_10 C11_10 1_555 1_555
C12_10 C11_10 1_555 1_555
C13_10 C8_10 1_555 1_555
H10_10 C13_10 1_555 1_555
C14_10 C10_10 1_555 1_555
C15_10 C14_10 1_555 1_555
H11_10 C15_10 1_555 1_555
C16_10 C15_10 1_555 1_555
H12_10 C16_10 1_555 1_555
C17_10 C16_10 1_555 1_555
C18_10 C17_10 1_555 1_555
H13_10 C18_10 1_555 1_555
C19_10 C14_10 1_555 1_555
H14_10 C19_10 1_555 1_555
C20_10 C17_10 1_555 1_555
C21_10 C12_10 1_555 1_555
C22_10 C21_10 1_555 1_555
H15_10 C22_10 1_555 1_555
C23_10 C22_10 1_555 1_555
H16_10 C23_10 1_555 1_555
C24_6 C23_10 1_555 1_555
C25_10 C24_6 1_555 1_555
H17_10 C25_10 1_555 1_555
C26_10 C21_10 1_555 1_555
H18_10 C26_10 1_555 1_555
C27_6 O5_6 1_555 1_555
C56_10 C88_5 1_555 1_555
C57_10 C56_10 1_555 1_555
H34_10 C57_10 1_555 1_555
C58_10 C57_10 1_555 1_555
H35_10 C58_10 1_555 1_555
C59_10 C58_10 1_555 1_555
C60_10 C59_10 1_555 1_555
H36_10 C60_10 1_555 1_555
C61_10 C56_10 1_555 1_555
H37_10 C61_10 1_555 1_555
C62_10 C59_10 1_555 1_555
C63_10 C62_10 1_555 1_555
H38_10 C63_10 1_555 1_555
C64_10 C63_10 1_555 1_555
C65_10 C64_10 1_555 1_555
H39_10 C65_10 1_555 1_555
C66_10 C65_10 1_555 1_555
C67_10 C62_10 1_555 1_555
H40_10 C67_10 1_555 1_555
C68_10 C64_10 1_555 1_555
C69_10 C68_10 1_555 1_555
H41_10 C69_10 1_555 1_555
C70_10 C69_10 1_555 1_555
H42_10 C70_10 1_555 1_555
C71_6 C70_10 1_555 1_555
C72_10 C71_6 1_555 1_555
H43_10 C72_10 1_555 1_555
C73_10 C68_10 1_555 1_555
H44_10 C73_10 1_555 1_555
C75_10 C66_10 1_555 1_555
C80_10 C75_10 1_555 1_555
H48_10 C80_10 1_555 1_555
Zn7_8 O24_6 1_555 1_555
Zn11_4 O25_6 1_555 1_555
Zn16_4 O34_6 1_555 1_555
O24_6 C83_6 1_555 1_555
O25_6 C83_6 1_555 1_555
O34_6 C90_6 1_555 1_555
C82_6 C27_6 1_555 1_555
C83_6 C24_6 1_555 1_555
C90_6 C71_6 1_555 1_555
Zn5_4 O38_4 1_555 1_555
C6_10 C7_10 1_555 1_555
C12_10 C13_10 1_555 1_555
C18_10 C19_10 1_555 1_555
C25_10 C26_10 1_555 1_555
C60_10 C61_10 1_555 1_555
C66_10 C67_10 1_555 1_555
C72_10 C73_10 1_555 1_555
O35_6 C90_6 1_555 1_555
Zn10_4 O8_10 1_555 1_555
O8_10 C28_10 1_555 1_555
H2_10 O19_10 1_555 1_555
C28_10 O26_5 1_555 1_555
C29_10 C28_10 1_555 1_555
C30_10 C29_10 1_555 1_555
H19_10 C30_10 1_555 1_555
C31_10 C30_10 1_555 1_555
H20_10 C31_10 1_555 1_555
C32_10 C31_10 1_555 1_555
C33_10 C32_10 1_555 1_555
H21_10 C33_10 1_555 1_555
C34_10 C29_10 1_555 1_555
H22_10 C34_10 1_555 1_555
C35_10 C32_10 1_555 1_555
C36_10 C35_10 1_555 1_555
H23_10 C36_10 1_555 1_555
C37_10 C36_10 1_555 1_555
C38_10 C37_10 1_555 1_555
H24_10 C38_10 1_555 1_555
C39_10 C38_10 1_555 1_555
C40_10 C35_10 1_555 1_555
H25_10 C40_10 1_555 1_555
C41_10 C37_10 1_555 1_555
C42_10 C41_10 1_555 1_555
H26_10 C42_10 1_555 1_555
C43_10 C42_10 1_555 1_555
H27_10 C43_10 1_555 1_555
C44_6 C43_10 1_555 1_555
C45_10 C44_6 1_555 1_555
H28_10 C45_10 1_555 1_555
C46_10 C41_10 1_555 1_555
H29_10 C46_10 1_555 1_555
C48_10 C39_10 1_555 1_555
C49_10 C48_10 1_555 1_555
H30_10 C49_10 1_555 1_555
C50_10 C49_10 1_555 1_555
H31_10 C50_10 1_555 1_555
C86_8 C50_10 1_555 1_555
C52_10 C86_8 1_555 1_555
H32_10 C52_10 1_555 1_555
C53_10 C48_10 1_555 1_555
H33_10 C53_10 1_555 1_555
Zn15_6 O27_6 1_555 1_555
O27_6 C85_6 1_555 1_555
O28_6 C85_6 1_555 1_555
C85_6 C44_6 1_555 1_555
Zn10_4 O19_10 1_555 1_555
C33_10 C34_10 1_555 1_555
C39_10 C40_10 1_555 1_555
C45_10 C46_10 1_555 1_555
C52_10 C53_10 1_555 1_555
H45_11 C76_11 1_555 1_555
C77_11 C76_11 1_555 1_555
H46_11 C77_11 1_555 1_555
C91 C77_11 1_555 1_555
C79_11 C91 1_555 1_555
H47_11 C79_11 1_555 1_555
C47_7 O9_7 1_555 1_555
C84_7 C47_7 1_555 1_555
O28 C47_7 1_555 1_555
Zn7 O1_6 1_555 1_555
Zn10 O8_11 1_555 1_555
Zn11_7 O6_7 1_555 1_555
K1_6 O1_6 1_555 1_555
O1_6 C1_11 1_555 1_555
O2_11 Zn7 1_555 1_555
O5_7 Zn7 1_555 1_555
O6_7 C27_7 1_555 1_555
O7_6 K1_6 1_555 1_555
O8_11 C28_11 1_555 1_555
O13_6 K1_6 1_555 1_555
O14_6 Zn11_7 1_555 1_555
O19_11 Zn7 1_555 1_555
H2_11 O19_11 1_555 1_555
C1_11 O2_11 1_555 1_555
C2_11 C1_11 1_555 1_555
C3_11 C2_11 1_555 1_555
H4_11 C3_11 1_555 1_555
C4_11 C3_11 1_555 1_555
H5_11 C4_11 1_555 1_555
C5_11 C4_11 1_555 1_555
C6_11 C5_11 1_555 1_555
H6_11 C6_11 1_555 1_555
C7_11 C2_11 1_555 1_555
H7_11 C7_11 1_555 1_555
C27_7 O5_7 1_555 1_555
C28_11 O7_6 1_555 1_555
C29_11 C28_11 1_555 1_555
C30_11 C29_11 1_555 1_555
H19_11 C30_11 1_555 1_555
C31_11 C30_11 1_555 1_555
H20_11 C31_11 1_555 1_555
C32_11 C31_11 1_555 1_555
C33_11 C32_11 1_555 1_555
H21_11 C33_11 1_555 1_555
C34_11 C29_11 1_555 1_555
H22_11 C34_11 1_555 1_555
C35_11 C32_11 1_555 1_555
C36_11 C35_11 1_555 1_555
H23_11 C36_11 1_555 1_555
C37_11 C36_11 1_555 1_555
C38_11 C37_11 1_555 1_555
H24_11 C38_11 1_555 1_555
C39_11 C38_11 1_555 1_555
C40_11 C35_11 1_555 1_555
H25_11 C40_11 1_555 1_555
C41_11 C37_11 1_555 1_555
C42_11 C41_11 1_555 1_555
H26_11 C42_11 1_555 1_555
C43_11 C42_11 1_555 1_555
H27_11 C43_11 1_555 1_555
C44_7 C43_11 1_555 1_555
C45_11 C44_7 1_555 1_555
H28_11 C45_11 1_555 1_555
C46_11 C41_11 1_555 1_555
H29_11 C46_11 1_555 1_555
C48_11 C39_11 1_555 1_555
C49_11 C48_11 1_555 1_555
H30_11 C49_11 1_555 1_555
C50_11 C49_11 1_555 1_555
H31_11 C50_11 1_555 1_555
C86_6 C50_11 1_555 1_555
C52_11 C86_6 1_555 1_555
H32_11 C52_11 1_555 1_555
C53_11 C48_11 1_555 1_555
H33_11 C53_11 1_555 1_555
C55_6 O13_6 1_555 1_555
C56_11 C55_6 1_555 1_555
C57_11 C56_11 1_555 1_555
H34_11 C57_11 1_555 1_555
C58_11 C57_11 1_555 1_555
H35_11 C58_11 1_555 1_555
C59_11 C58_11 1_555 1_555
C60_11 C59_11 1_555 1_555
H36_11 C60_11 1_555 1_555
C61_11 C56_11 1_555 1_555
H37_11 C61_11 1_555 1_555
C62_11 C59_11 1_555 1_555
C63_11 C62_11 1_555 1_555
H38_11 C63_11 1_555 1_555
C64_11 C63_11 1_555 1_555
C65_11 C64_11 1_555 1_555
H39_11 C65_11 1_555 1_555
C66_11 C65_11 1_555 1_555
C67_11 C62_11 1_555 1_555
H40_11 C67_11 1_555 1_555
C68_11 C64_11 1_555 1_555
C69_11 C68_11 1_555 1_555
H41_11 C69_11 1_555 1_555
C70_11 C69_11 1_555 1_555
C89_6 C70_11 1_555 1_555
C72_11 C89_6 1_555 1_555
H43_11 C72_11 1_555 1_555
C73_11 C68_11 1_555 1_555
H44_11 C73_11 1_555 1_555
C75_11 C66_11 1_555 1_555
C80_11 C75_11 1_555 1_555
H48_11 C80_11 1_555 1_555
Zn11_8 O33_6 1_555 1_555
O22_6 K1_6 1_555 1_555
O26_6 K1_6 1_555 1_555
O27_7 C85_7 1_555 1_555
O28_8 C85_7 1_555 1_555
O32_6 K1_6 1_555 1_555
O33_6 C55_6 1_555 1_555
C82_7 C27_7 1_555 1_555
C85_7 C44_7 1_555 1_555
C88_6 O14_6 1_555 1_555
Zn10 O19_11 1_555 1_555
Zn11_7 O19_11 1_555 1_555
C6_11 C7_11 1_555 1_555
C33_11 C34_11 1_555 1_555
C39_11 C40_11 1_555 1_555
C45_11 C46_11 1_555 1_555
C52_11 C53_11 1_555 1_555
C60_11 C61_11 1_555 1_555
C66_11 C67_11 1_555 1_555
C72_11 C73_11 1_555 1_555
O32_6 C88_6 1_555 1_555
Zn16_4 O4_11 1_555 1_555
O23 C20_11 1_555 1_555
O4_11 C20_11 1_555 1_555
H3_11 O38 1_555 1_555
C9_11 C8_11 1_555 1_555
H8_11 C9_11 1_555 1_555
C10_11 C9_11 1_555 1_555
C11_11 C10_11 1_555 1_555
H9_11 C11_11 1_555 1_555
C12_11 C11_11 1_555 1_555
C13_11 C8_11 1_555 1_555
H10_11 C13_11 1_555 1_555
C14_11 C10_11 1_555 1_555
C15_11 C14_11 1_555 1_555
H11_11 C15_11 1_555 1_555
C16_11 C15_11 1_555 1_555
H12_11 C16_11 1_555 1_555
C17_11 C16_11 1_555 1_555
C18_11 C17_11 1_555 1_555
H13_11 C18_11 1_555 1_555
C19_11 C14_11 1_555 1_555
H14_11 C19_11 1_555 1_555
C20_11 C17_11 1_555 1_555
C21_11 C12_11 1_555 1_555
C22_11 C21_11 1_555 1_555
H15_11 C22_11 1_555 1_555
C23_11 C22_11 1_555 1_555
H16_11 C23_11 1_555 1_555
C24_7 C23_11 1_555 1_555
C25_11 C24_7 1_555 1_555
H17_11 C25_11 1_555 1_555
C26_11 C21_11 1_555 1_555
H18_11 C26_11 1_555 1_555
Zn7_6 O24_7 1_555 1_555
Zn11 O25_7 1_555 1_555
O24_7 C83_7 1_555 1_555
O25_7 C83_7 1_555 1_555
C83_7 C24_7 1_555 1_555
Zn16_4 O38 1_555 1_555
C12_11 C13_11 1_555 1_555
C18_11 C19_11 1_555 1_555
C25_11 C26_11 1_555 1_555
Zn7_2 O22_6 1_555 1_555
Zn10_2 O8_12 1_555 1_555
Zn11_8 O6_8 1_555 1_555
Zn16_3 O4_12 1_555 1_555
O22_6 C1_12 1_555 1_555
O2_12 Zn7_2 1_555 1_555
O23_2 C20_12 1_555 1_555
O4_12 C20_12 1_555 1_555
O5_8 Zn7_2 1_555 1_555
O6_8 C27_8 1_555 1_555
O8_12 C28_12 1_555 1_555
O9_8 Zn16_3 1_555 1_555
O19_12 Zn7_2 1_555 1_555
H2_12 O19_12 1_555 1_555
H3_12 O38_2 1_555 1_555
C1_12 O2_12 1_555 1_555
C2_12 C1_12 1_555 1_555
C3_12 C2_12 1_555 1_555
H4_12 C3_12 1_555 1_555
C4_12 C3_12 1_555 1_555
H5_12 C4_12 1_555 1_555
C5_12 C4_12 1_555 1_555
C6_12 C5_12 1_555 1_555
H6_12 C6_12 1_555 1_555
C7_12 C2_12 1_555 1_555
H7_12 C7_12 1_555 1_555
C8_12 C5_12 1_555 1_555
C9_12 C8_12 1_555 1_555
H8_12 C9_12 1_555 1_555
C10_12 C9_12 1_555 1_555
C11_12 C10_12 1_555 1_555
H9_12 C11_12 1_555 1_555
C12_12 C11_12 1_555 1_555
C13_12 C8_12 1_555 1_555
H10_12 C13_12 1_555 1_555
C14_12 C10_12 1_555 1_555
C15_12 C14_12 1_555 1_555
H11_12 C15_12 1_555 1_555
C16_12 C15_12 1_555 1_555
H12_12 C16_12 1_555 1_555
C17_12 C16_12 1_555 1_555
C18_12 C17_12 1_555 1_555
H13_12 C18_12 1_555 1_555
C19_12 C14_12 1_555 1_555
H14_12 C19_12 1_555 1_555
C20_12 C17_12 1_555 1_555
C21_12 C12_12 1_555 1_555
C22_12 C21_12 1_555 1_555
H15_12 C22_12 1_555 1_555
C23_12 C22_12 1_555 1_555
H16_12 C23_12 1_555 1_555
C24_8 C23_12 1_555 1_555
C25_12 C24_8 1_555 1_555
H17_12 C25_12 1_555 1_555
C26_12 C21_12 1_555 1_555
H18_12 C26_12 1_555 1_555
C27_8 O5_8 1_555 1_555
C28_12 O26_6 1_555 1_555
C29_12 C28_12 1_555 1_555
C30_12 C29_12 1_555 1_555
H19_12 C30_12 1_555 1_555
C31_12 C30_12 1_555 1_555
H20_12 C31_12 1_555 1_555
C32_12 C31_12 1_555 1_555
C33_12 C32_12 1_555 1_555
H21_12 C33_12 1_555 1_555
C34_12 C29_12 1_555 1_555
H22_12 C34_12 1_555 1_555
C35_12 C32_12 1_555 1_555
C36_12 C35_12 1_555 1_555
H23_12 C36_12 1_555 1_555
C37_12 C36_12 1_555 1_555
C38_12 C37_12 1_555 1_555
H24_12 C38_12 1_555 1_555
C39_12 C38_12 1_555 1_555
C40_12 C35_12 1_555 1_555
H25_12 C40_12 1_555 1_555
C41_12 C37_12 1_555 1_555
C42_12 C41_12 1_555 1_555
H26_12 C42_12 1_555 1_555
C43_12 C42_12 1_555 1_555
H27_12 C43_12 1_555 1_555
C44_8 C43_12 1_555 1_555
C45_12 C44_8 1_555 1_555
H28_12 C45_12 1_555 1_555
C46_12 C41_12 1_555 1_555
H29_12 C46_12 1_555 1_555
C47_8 O9_8 1_555 1_555
C48_12 C39_12 1_555 1_555
C49_12 C48_12 1_555 1_555
H30_12 C49_12 1_555 1_555
C50_12 C49_12 1_555 1_555
H31_12 C50_12 1_555 1_555
C86_5 C50_12 1_555 1_555
C52_12 C86_5 1_555 1_555
H32_12 C52_12 1_555 1_555
C53_12 C48_12 1_555 1_555
H33_12 C53_12 1_555 1_555
C56_12 C88_6 1_555 1_555
C57_12 C56_12 1_555 1_555
H34_12 C57_12 1_555 1_555
C58_12 C57_12 1_555 1_555
H35_12 C58_12 1_555 1_555
C59_12 C58_12 1_555 1_555
C60_12 C59_12 1_555 1_555
H36_12 C60_12 1_555 1_555
C61_12 C56_12 1_555 1_555
H37_12 C61_12 1_555 1_555
C62_12 C59_12 1_555 1_555
C63_12 C62_12 1_555 1_555
H38_12 C63_12 1_555 1_555
C64_12 C63_12 1_555 1_555
C65_12 C64_12 1_555 1_555
H39_12 C65_12 1_555 1_555
C66_12 C65_12 1_555 1_555
C67_12 C62_12 1_555 1_555
H40_12 C67_12 1_555 1_555
C68_12 C64_12 1_555 1_555
C69_12 C68_12 1_555 1_555
H41_12 C69_12 1_555 1_555
C70_12 C69_12 1_555 1_555
H42_12 C70_12 1_555 1_555
C89_5 C70_12 1_555 1_555
C72_12 C89_5 1_555 1_555
H43_12 C72_12 1_555 1_555
C73_12 C68_12 1_555 1_555
H44_12 C73_12 1_555 1_555
C75_12 C66_12 1_555 1_555
C76_12 C75_12 1_555 1_555
H45_12 C76_12 1_555 1_555
C77_12 C76_12 1_555 1_555
H46_12 C77_12 1_555 1_555
C91_2 C77_12 1_555 1_555
C79_12 C91_2 1_555 1_555
H47_12 C79_12 1_555 1_555
C80_12 C75_12 1_555 1_555
H48_12 C80_12 1_555 1_555
Zn7_5 O24_8 1_555 1_555
Zn11_2 O25_8 1_555 1_555
O24_8 C83_8 1_555 1_555
O25_8 C83_8 1_555 1_555
O27_8 C85_8 1_555 1_555
O28_7 C85_8 1_555 1_555
C82_8 C27_8 1_555 1_555
C83_8 C24_8 1_555 1_555
C84_8 C47_8 1_555 1_555
C85_8 C44_8 1_555 1_555
Zn10_2 O19_12 1_555 1_555
Zn11_8 O19_12 1_555 1_555
Zn16_3 O38_2 1_555 1_555
O28_2 C47_8 1_555 1_555
C6_12 C7_12 1_555 1_555
C12_12 C13_12 1_555 1_555
C18_12 C19_12 1_555 1_555
C25_12 C26_12 1_555 1_555
C33_12 C34_12 1_555 1_555
C39_12 C40_12 1_555 1_555
C45_12 C46_12 1_555 1_555
C52_12 C53_12 1_555 1_555
C60_12 C61_12 1_555 1_555
C66_12 C67_12 1_555 1_555
C72_12 C73_12 1_555 1_555
C79_12 C80_12 1_555 1_555
Zn15_7 O4_13 1_555 1_555
O23_8 C20_13 1_555 1_555
O4_13 C20_13 1_555 1_555
O15_7 Zn15_7 1_555 1_555
H3_13 O40_3 1_555 1_555
C9_13 C8_13 1_555 1_555
H8_13 C9_13 1_555 1_555
C10_13 C9_13 1_555 1_555
C11_13 C10_13 1_555 1_555
H9_13 C11_13 1_555 1_555
C12_13 C11_13 1_555 1_555
C13_13 C8_13 1_555 1_555
H10_13 C13_13 1_555 1_555
C14_13 C10_13 1_555 1_555
C15_13 C14_13 1_555 1_555
H11_13 C15_13 1_555 1_555
C16_13 C15_13 1_555 1_555
H12_13 C16_13 1_555 1_555
C17_13 C16_13 1_555 1_555
C18_13 C17_13 1_555 1_555
H13_13 C18_13 1_555 1_555
C19_13 C14_13 1_555 1_555
H14_13 C19_13 1_555 1_555
C20_13 C17_13 1_555 1_555
C21_13 C12_13 1_555 1_555
C22_13 C21_13 1_555 1_555
H15_13 C22_13 1_555 1_555
C23_13 C22_13 1_555 1_555
H16_13 C23_13 1_555 1_555
C82_8 C23_13 1_555 1_555
C25_13 C82_8 1_555 1_555
H17_13 C25_13 1_555 1_555
C26_13 C21_13 1_555 1_555
H18_13 C26_13 1_555 1_555
C74_7 O15_7 1_555 1_555
Zn15_8 O34_7 1_555 1_555
C89_7 C74_7 1_555 1_555
Zn15_7 O40_3 1_555 1_555
O16_7 C74_7 1_555 1_555
C12_13 C13_13 1_555 1_555
C18_13 C19_13 1_555 1_555
C25_13 C26_13 1_555 1_555
Zn7_8 O1_7 1_555 1_555
Zn9_4 O8_13 1_555 1_555
K1_7 O1_7 1_555 1_555
O1_7 C1_13 1_555 1_555
O2_13 Zn7_8 1_555 1_555
O7_7 K1_7 1_555 1_555
O8_13 C28_13 1_555 1_555
O13_7 K1_7 1_555 1_555
O14_7 Zn11_4 1_555 1_555
O19_13 Zn7_8 1_555 1_555
H2_13 O19_13 1_555 1_555
C1_13 O2_13 1_555 1_555
C2_13 C1_13 1_555 1_555
C3_13 C2_13 1_555 1_555
H4_13 C3_13 1_555 1_555
C4_13 C3_13 1_555 1_555
H5_13 C4_13 1_555 1_555
C5_13 C4_13 1_555 1_555
C6_13 C5_13 1_555 1_555
H6_13 C6_13 1_555 1_555
C7_13 C2_13 1_555 1_555
H7_13 C7_13 1_555 1_555
C28_13 O7_7 1_555 1_555
C29_13 C28_13 1_555 1_555
C30_13 C29_13 1_555 1_555
H19_13 C30_13 1_555 1_555
C31_13 C30_13 1_555 1_555
H20_13 C31_13 1_555 1_555
C32_13 C31_13 1_555 1_555
C33_13 C32_13 1_555 1_555
H21_13 C33_13 1_555 1_555
C34_13 C29_13 1_555 1_555
H22_13 C34_13 1_555 1_555
C35_13 C32_13 1_555 1_555
C36_13 C35_13 1_555 1_555
H23_13 C36_13 1_555 1_555
C37_13 C36_13 1_555 1_555
C38_13 C37_13 1_555 1_555
H24_13 C38_13 1_555 1_555
C39_13 C38_13 1_555 1_555
C40_13 C35_13 1_555 1_555
H25_13 C40_13 1_555 1_555
C41_13 C37_13 1_555 1_555
C42_13 C41_13 1_555 1_555
H26_13 C42_13 1_555 1_555
C43_13 C42_13 1_555 1_555
H27_13 C43_13 1_555 1_555
C84_7 C43_13 1_555 1_555
C45_13 C84_7 1_555 1_555
H28_13 C45_13 1_555 1_555
C46_13 C41_13 1_555 1_555
H29_13 C46_13 1_555 1_555
C48_13 C39_13 1_555 1_555
C49_13 C48_13 1_555 1_555
H30_13 C49_13 1_555 1_555
C50_13 C49_13 1_555 1_555
H31_13 C50_13 1_555 1_555
C86_2 C50_13 1_555 1_555
C52_13 C86_2 1_555 1_555
H32_13 C52_13 1_555 1_555
C53_13 C48_13 1_555 1_555
H33_13 C53_13 1_555 1_555
C55_7 O13_7 1_555 1_555
C56_13 C55_7 1_555 1_555
C57_13 C56_13 1_555 1_555
H34_13 C57_13 1_555 1_555
C58_13 C57_13 1_555 1_555
H35_13 C58_13 1_555 1_555
C59_13 C58_13 1_555 1_555
C60_13 C59_13 1_555 1_555
H36_13 C60_13 1_555 1_555
C61_13 C56_13 1_555 1_555
H37_13 C61_13 1_555 1_555
C62_13 C59_13 1_555 1_555
C63_13 C62_13 1_555 1_555
H38_13 C63_13 1_555 1_555
C64_13 C63_13 1_555 1_555
C65_13 C64_13 1_555 1_555
H39_13 C65_13 1_555 1_555
C66_13 C65_13 1_555 1_555
C67_13 C62_13 1_555 1_555
H40_13 C67_13 1_555 1_555
C68_13 C64_13 1_555 1_555
C69_13 C68_13 1_555 1_555
H41_13 C69_13 1_555 1_555
C70_13 C69_13 1_555 1_555
C71_7 C70_13 1_555 1_555
C72_13 C71_7 1_555 1_555
H43_13 C72_13 1_555 1_555
C73_13 C68_13 1_555 1_555
H44_13 C73_13 1_555 1_555
C75_13 C66_13 1_555 1_555
C80_13 C75_13 1_555 1_555
H48_13 C80_13 1_555 1_555
Zn11 O33_7 1_555 1_555
O22_7 K1_7 1_555 1_555
O26_7 K1_7 1_555 1_555
O32_7 K1_7 1_555 1_555
O33_7 C55_7 1_555 1_555
C88_7 O14_7 1_555 1_555
C90_7 C71_7 1_555 1_555
Zn9_4 O19_13 1_555 1_555
Zn11_4 O19_13 1_555 1_555
C6_13 C7_13 1_555 1_555
C33_13 C34_13 1_555 1_555
C39_13 C40_13 1_555 1_555
C45_13 C46_13 1_555 1_555
C52_13 C53_13 1_555 1_555
C60_13 C61_13 1_555 1_555
C66_13 C67_13 1_555 1_555
C72_13 C73_13 1_555 1_555
O32_7 C88_7 1_555 1_555
O35_7 C90_7 1_555 1_555
H45_13 C76_13 1_555 1_555
C77_13 C76_13 1_555 1_555
H46_13 C77_13 1_555 1_555
C91_8 C77_13 1_555 1_555
C79_13 C91_8 1_555 1_555
H47_13 C79_13 1_555 1_555
Zn9_3 O8_14 1_555 1_555
K1_8 O1_8 1_555 1_555
O7_8 K1_8 1_555 1_555
O8_14 C28_14 1_555 1_555
H2_14 O19_14 1_555 1_555
C28_14 O7_8 1_555 1_555
C29_14 C28_14 1_555 1_555
C30_14 C29_14 1_555 1_555
H19_14 C30_14 1_555 1_555
C31_14 C30_14 1_555 1_555
H20_14 C31_14 1_555 1_555
C32_14 C31_14 1_555 1_555
C33_14 C32_14 1_555 1_555
H21_14 C33_14 1_555 1_555
C34_14 C29_14 1_555 1_555
H22_14 C34_14 1_555 1_555
C35_14 C32_14 1_555 1_555
C36_14 C35_14 1_555 1_555
H23_14 C36_14 1_555 1_555
C37_14 C36_14 1_555 1_555
C38_14 C37_14 1_555 1_555
H24_14 C38_14 1_555 1_555
C39_14 C38_14 1_555 1_555
C40_14 C35_14 1_555 1_555
H25_14 C40_14 1_555 1_555
C41_14 C37_14 1_555 1_555
C42_14 C41_14 1_555 1_555
H26_14 C42_14 1_555 1_555
C43_14 C42_14 1_555 1_555
H27_14 C43_14 1_555 1_555
C84_8 C43_14 1_555 1_555
C45_14 C84_8 1_555 1_555
H28_14 C45_14 1_555 1_555
C46_14 C41_14 1_555 1_555
H29_14 C46_14 1_555 1_555
C48_14 C39_14 1_555 1_555
C49_14 C48_14 1_555 1_555
H30_14 C49_14 1_555 1_555
C50_14 C49_14 1_555 1_555
H31_14 C50_14 1_555 1_555
C86 C50_14 1_555 1_555
C52_14 C86 1_555 1_555
H32_14 C52_14 1_555 1_555
C53_14 C48_14 1_555 1_555
H33_14 C53_14 1_555 1_555
O22_8 K1_8 1_555 1_555
O26_8 K1_8 1_555 1_555
Zn9_3 O19_14 1_555 1_555
C33_14 C34_14 1_555 1_555
C39_14 C40_14 1_555 1_555
C45_14 C46_14 1_555 1_555
C52_14 C53_14 1_555 1_555
Zn15_8 O4_14 1_555 1_555
O2_14 Zn7_7 1_555 1_555
O23_7 C20_14 1_555 1_555
O4_14 C20_14 1_555 1_555
O14_8 Zn11_3 1_555 1_555
H3_14 O40_4 1_555 1_555
C1_14 O2_14 1_555 1_555
C2_14 C1_14 1_555 1_555
C3_14 C2_14 1_555 1_555
H4_14 C3_14 1_555 1_555
C4_14 C3_14 1_555 1_555
H5_14 C4_14 1_555 1_555
C5_14 C4_14 1_555 1_555
C6_14 C5_14 1_555 1_555
C7_14 C2_14 1_555 1_555
C8_14 C5_14 1_555 1_555
C9_14 C8_14 1_555 1_555
H8_14 C9_14 1_555 1_555
C10_14 C9_14 1_555 1_555
C11_14 C10_14 1_555 1_555
H9_14 C11_14 1_555 1_555
C12_14 C11_14 1_555 1_555
C13_14 C8_14 1_555 1_555
H10_14 C13_14 1_555 1_555
C14_14 C10_14 1_555 1_555
C15_14 C14_14 1_555 1_555
H11_14 C15_14 1_555 1_555
C16_14 C15_14 1_555 1_555
H12_14 C16_14 1_555 1_555
C17_14 C16_14 1_555 1_555
C18_14 C17_14 1_555 1_555
H13_14 C18_14 1_555 1_555
C19_14 C14_14 1_555 1_555
H14_14 C19_14 1_555 1_555
C20_14 C17_14 1_555 1_555
C21_14 C12_14 1_555 1_555
C22_14 C21_14 1_555 1_555
H15_14 C22_14 1_555 1_555
C23_14 C22_14 1_555 1_555
H16_14 C23_14 1_555 1_555
C82_7 C23_14 1_555 1_555
C25_14 C82_7 1_555 1_555
H17_14 C25_14 1_555 1_555
C26_14 C21_14 1_555 1_555
H18_14 C26_14 1_555 1_555
C55_8 O13_8 1_555 1_555
C56_14 C55_8 1_555 1_555
C57_14 C56_14 1_555 1_555
H34_14 C57_14 1_555 1_555
C58_14 C57_14 1_555 1_555
H35_14 C58_14 1_555 1_555
C59_14 C58_14 1_555 1_555
C60_14 C59_14 1_555 1_555
H36_14 C60_14 1_555 1_555
C61_14 C56_14 1_555 1_555
H37_14 C61_14 1_555 1_555
C62_14 C59_14 1_555 1_555
C63_14 C62_14 1_555 1_555
H38_14 C63_14 1_555 1_555
C64_14 C63_14 1_555 1_555
C65_14 C64_14 1_555 1_555
H39_14 C65_14 1_555 1_555
C66_14 C65_14 1_555 1_555
C67_14 C62_14 1_555 1_555
H40_14 C67_14 1_555 1_555
C68_14 C64_14 1_555 1_555
C69_14 C68_14 1_555 1_555
H41_14 C69_14 1_555 1_555
C70_14 C69_14 1_555 1_555
H42_14 C70_14 1_555 1_555
C89_7 C70_14 1_555 1_555
C72_14 C89_7 1_555 1_555
H43_14 C72_14 1_555 1_555
C73_14 C68_14 1_555 1_555
H44_14 C73_14 1_555 1_555
C75_14 C66_14 1_555 1_555
C80_14 C75_14 1_555 1_555
H48_14 C80_14 1_555 1_555
Zn11_2 O33_8 1_555 1_555
O33_8 C55_8 1_555 1_555
C88_8 O14_8 1_555 1_555
Zn15_8 O40_4 1_555 1_555
C6_14 C7_14 1_555 1_555
C12_14 C13_14 1_555 1_555
C18_14 C19_14 1_555 1_555
C25_14 C26_14 1_555 1_555
C60_14 C61_14 1_555 1_555
C66_14 C67_14 1_555 1_555
C72_14 C73_14 1_555 1_555
O32_8 C88_8 1_555 1_555
H45_14 C76_14 1_555 1_555
C77_14 C76_14 1_555 1_555
H46_14 C77_14 1_555 1_555
C91_7 C77_14 1_555 1_555
C79_14 C91_7 1_555 1_555
H47_14 C79_14 1_555 1_555
Zn7_6 O22_7 1_555 1_555
Zn9 O8_15 1_555 1_555
Zn15_6 O4_15 1_555 1_555
O22_7 C1_15 1_555 1_555
O2_15 Zn7_6 1_555 1_555
O23_6 C20_15 1_555 1_555
O4_15 C20_15 1_555 1_555
O8_15 C28_15 1_555 1_555
O15_8 Zn15_6 1_555 1_555
O16_8 H1_8 1_555 1_555
O19_15 Zn7_6 1_555 1_555
H2_15 O19_15 1_555 1_555
H3_15 O40_2 1_555 1_555
C1_15 O2_15 1_555 1_555
C2_15 C1_15 1_555 1_555
C3_15 C2_15 1_555 1_555
H4_15 C3_15 1_555 1_555
C4_15 C3_15 1_555 1_555
H5_15 C4_15 1_555 1_555
C5_15 C4_15 1_555 1_555
C6_15 C5_15 1_555 1_555
H6_15 C6_15 1_555 1_555
C7_15 C2_15 1_555 1_555
H7_15 C7_15 1_555 1_555
C8_15 C5_15 1_555 1_555
C9_15 C8_15 1_555 1_555
H8_15 C9_15 1_555 1_555
C10_15 C9_15 1_555 1_555
C11_15 C10_15 1_555 1_555
H9_15 C11_15 1_555 1_555
C12_15 C11_15 1_555 1_555
C13_15 C8_15 1_555 1_555
H10_15 C13_15 1_555 1_555
C14_15 C10_15 1_555 1_555
C15_15 C14_15 1_555 1_555
H11_15 C15_15 1_555 1_555
C16_15 C15_15 1_555 1_555
H12_15 C16_15 1_555 1_555
C17_15 C16_15 1_555 1_555
C18_15 C17_15 1_555 1_555
H13_15 C18_15 1_555 1_555
C19_15 C14_15 1_555 1_555
H14_15 C19_15 1_555 1_555
C20_15 C17_15 1_555 1_555
C21_15 C12_15 1_555 1_555
C22_15 C21_15 1_555 1_555
H15_15 C22_15 1_555 1_555
C23_15 C22_15 1_555 1_555
H16_15 C23_15 1_555 1_555
C82_5 C23_15 1_555 1_555
C25_15 C82_5 1_555 1_555
H17_15 C25_15 1_555 1_555
C26_15 C21_15 1_555 1_555
H18_15 C26_15 1_555 1_555
C28_15 O26_7 1_555 1_555
C29_15 C28_15 1_555 1_555
C30_15 C29_15 1_555 1_555
H19_15 C30_15 1_555 1_555
C31_15 C30_15 1_555 1_555
H20_15 C31_15 1_555 1_555
C32_15 C31_15 1_555 1_555
C33_15 C32_15 1_555 1_555
H21_15 C33_15 1_555 1_555
C34_15 C29_15 1_555 1_555
H22_15 C34_15 1_555 1_555
C35_15 C32_15 1_555 1_555
C36_15 C35_15 1_555 1_555
H23_15 C36_15 1_555 1_555
C37_15 C36_15 1_555 1_555
C38_15 C37_15 1_555 1_555
H24_15 C38_15 1_555 1_555
C39_15 C38_15 1_555 1_555
C40_15 C35_15 1_555 1_555
H25_15 C40_15 1_555 1_555
C41_15 C37_15 1_555 1_555
C42_15 C41_15 1_555 1_555
H26_15 C42_15 1_555 1_555
C43_15 C42_15 1_555 1_555
H27_15 C43_15 1_555 1_555
C84_6 C43_15 1_555 1_555
C45_15 C84_6 1_555 1_555
H28_15 C45_15 1_555 1_555
C46_15 C41_15 1_555 1_555
H29_15 C46_15 1_555 1_555
C48_15 C39_15 1_555 1_555
C49_15 C48_15 1_555 1_555
H30_15 C49_15 1_555 1_555
C50_15 C49_15 1_555 1_555
H31_15 C50_15 1_555 1_555
C86_3 C50_15 1_555 1_555
C52_15 C86_3 1_555 1_555
H32_15 C52_15 1_555 1_555
C53_15 C48_15 1_555 1_555
H33_15 C53_15 1_555 1_555
C56_15 C88_7 1_555 1_555
C57_15 C56_15 1_555 1_555
H34_15 C57_15 1_555 1_555
C58_15 C57_15 1_555 1_555
H35_15 C58_15 1_555 1_555
C59_15 C58_15 1_555 1_555
C60_15 C59_15 1_555 1_555
H36_15 C60_15 1_555 1_555
C61_15 C56_15 1_555 1_555
H37_15 C61_15 1_555 1_555
C62_15 C59_15 1_555 1_555
C63_15 C62_15 1_555 1_555
H38_15 C63_15 1_555 1_555
C64_15 C63_15 1_555 1_555
C65_15 C64_15 1_555 1_555
H39_15 C65_15 1_555 1_555
C66_15 C65_15 1_555 1_555
C67_15 C62_15 1_555 1_555
H40_15 C67_15 1_555 1_555
C68_15 C64_15 1_555 1_555
C69_15 C68_15 1_555 1_555
H41_15 C69_15 1_555 1_555
C70_15 C69_15 1_555 1_555
H42_15 C70_15 1_555 1_555
C71_8 C70_15 1_555 1_555
C72_15 C71_8 1_555 1_555
H43_15 C72_15 1_555 1_555
C73_15 C68_15 1_555 1_555
H44_15 C73_15 1_555 1_555
C74_8 O15_8 1_555 1_555
C75_15 C66_15 1_555 1_555
C76_15 C75_15 1_555 1_555
H45_15 C76_15 1_555 1_555
C77_15 C76_15 1_555 1_555
H46_15 C77_15 1_555 1_555
C91_6 C77_15 1_555 1_555
C79_15 C91_6 1_555 1_555
H47_15 C79_15 1_555 1_555
C80_15 C75_15 1_555 1_555
H48_15 C80_15 1_555 1_555
Zn15_5 O34_8 1_555 1_555
O34_8 C90_8 1_555 1_555
O35_8 H49_8 1_555 1_555
C89_8 C74_8 1_555 1_555
C90_8 C71_8 1_555 1_555
Zn9 O19_15 1_555 1_555
Zn11 O19_15 1_555 1_555
Zn15_6 O40_2 1_555 1_555
O16_8 C74_8 1_555 1_555
C6_15 C7_15 1_555 1_555
C12_15 C13_15 1_555 1_555
C18_15 C19_15 1_555 1_555
C25_15 C26_15 1_555 1_555
C33_15 C34_15 1_555 1_555
C39_15 C40_15 1_555 1_555
C45_15 C46_15 1_555 1_555
C52_15 C53_15 1_555 1_555
C60_15 C61_15 1_555 1_555
C66_15 C67_15 1_555 1_555
C72_15 C73_15 1_555 1_555
C79_15 C80_15 1_555 1_555
O35_8 C90_8 1_555 1_555
Zn9_2 O8_16 1_555 1_555
O8_16 C28_16 1_555 1_555
H2_16 O19_16 1_555 1_555
C28_16 O26_8 1_555 1_555
C29_16 C28_16 1_555 1_555
C30_16 C29_16 1_555 1_555
H19_16 C30_16 1_555 1_555
C31_16 C30_16 1_555 1_555
H20_16 C31_16 1_555 1_555
C32_16 C31_16 1_555 1_555
C33_16 C32_16 1_555 1_555
H21_16 C33_16 1_555 1_555
C34_16 C29_16 1_555 1_555
H22_16 C34_16 1_555 1_555
C35_16 C32_16 1_555 1_555
C36_16 C35_16 1_555 1_555
H23_16 C36_16 1_555 1_555
C37_16 C36_16 1_555 1_555
C38_16 C37_16 1_555 1_555
H24_16 C38_16 1_555 1_555
C39_16 C38_16 1_555 1_555
C40_16 C35_16 1_555 1_555
H25_16 C40_16 1_555 1_555
C41_16 C37_16 1_555 1_555
C42_16 C41_16 1_555 1_555
H26_16 C42_16 1_555 1_555
C43_16 C42_16 1_555 1_555
H27_16 C43_16 1_555 1_555
C84_5 C43_16 1_555 1_555
C45_16 C84_5 1_555 1_555
H28_16 C45_16 1_555 1_555
C46_16 C41_16 1_555 1_555
H29_16 C46_16 1_555 1_555
C48_16 C39_16 1_555 1_555
C49_16 C48_16 1_555 1_555
H30_16 C49_16 1_555 1_555
C50_16 C49_16 1_555 1_555
H31_16 C50_16 1_555 1_555
C86_4 C50_16 1_555 1_555
C52_16 C86_4 1_555 1_555
H32_16 C52_16 1_555 1_555
C53_16 C48_16 1_555 1_555
H33_16 C53_16 1_555 1_555
Zn9_2 O19_16 1_555 1_555
C33_16 C34_16 1_555 1_555
C39_16 C40_16 1_555 1_555
C45_16 C46_16 1_555 1_555
C52_16 C53_16 1_555 1_555
Zn15_5 O4_16 1_555 1_555
O2_16 Zn7_5 1_555 1_555
O23_5 C20_16 1_555 1_555
O4_16 C20_16 1_555 1_555
H3_16 O40 1_555 1_555
C1_16 O2_16 1_555 1_555
C2_16 C1_16 1_555 1_555
C3_16 C2_16 1_555 1_555
H4_16 C3_16 1_555 1_555
C4_16 C3_16 1_555 1_555
H5_16 C4_16 1_555 1_555
C5_16 C4_16 1_555 1_555
C6_16 C5_16 1_555 1_555
C7_16 C2_16 1_555 1_555
C8_16 C5_16 1_555 1_555
C9_16 C8_16 1_555 1_555
H8_16 C9_16 1_555 1_555
C10_16 C9_16 1_555 1_555
C11_16 C10_16 1_555 1_555
H9_16 C11_16 1_555 1_555
C12_16 C11_16 1_555 1_555
C13_16 C8_16 1_555 1_555
H10_16 C13_16 1_555 1_555
C14_16 C10_16 1_555 1_555
C15_16 C14_16 1_555 1_555
H11_16 C15_16 1_555 1_555
C16_16 C15_16 1_555 1_555
H12_16 C16_16 1_555 1_555
C17_16 C16_16 1_555 1_555
C18_16 C17_16 1_555 1_555
H13_16 C18_16 1_555 1_555
C19_16 C14_16 1_555 1_555
H14_16 C19_16 1_555 1_555
C20_16 C17_16 1_555 1_555
C21_16 C12_16 1_555 1_555
C22_16 C21_16 1_555 1_555
H15_16 C22_16 1_555 1_555
C23_16 C22_16 1_555 1_555
H16_16 C23_16 1_555 1_555
C82_6 C23_16 1_555 1_555
C25_16 C82_6 1_555 1_555
H17_16 C25_16 1_555 1_555
C26_16 C21_16 1_555 1_555
H18_16 C26_16 1_555 1_555
C56_16 C88_8 1_555 1_555
C57_16 C56_16 1_555 1_555
H34_16 C57_16 1_555 1_555
C58_16 C57_16 1_555 1_555
H35_16 C58_16 1_555 1_555
C59_16 C58_16 1_555 1_555
C60_16 C59_16 1_555 1_555
H36_16 C60_16 1_555 1_555
C61_16 C56_16 1_555 1_555
H37_16 C61_16 1_555 1_555
C62_16 C59_16 1_555 1_555
C63_16 C62_16 1_555 1_555
H38_16 C63_16 1_555 1_555
C64_16 C63_16 1_555 1_555
C65_16 C64_16 1_555 1_555
H39_16 C65_16 1_555 1_555
C66_16 C65_16 1_555 1_555
C67_16 C62_16 1_555 1_555
H40_16 C67_16 1_555 1_555
C68_16 C64_16 1_555 1_555
C69_16 C68_16 1_555 1_555
H41_16 C69_16 1_555 1_555
C70_16 C69_16 1_555 1_555
H42_16 C70_16 1_555 1_555
C89_8 C70_16 1_555 1_555
C72_16 C89_8 1_555 1_555
H43_16 C72_16 1_555 1_555
C73_16 C68_16 1_555 1_555
H44_16 C73_16 1_555 1_555
C75_16 C66_16 1_555 1_555
C76_16 C75_16 1_555 1_555
H45_16 C76_16 1_555 1_555
C77_16 C76_16 1_555 1_555
H46_16 C77_16 1_555 1_555
C91_5 C77_16 1_555 1_555
C79_16 C91_5 1_555 1_555
H47_16 C79_16 1_555 1_555
C80_16 C75_16 1_555 1_555
H48_16 C80_16 1_555 1_555
Zn15_5 O40 1_555 1_555
C6_16 C7_16 1_555 1_555
C12_16 C13_16 1_555 1_555
C18_16 C19_16 1_555 1_555
C25_16 C26_16 1_555 1_555
C60_16 C61_16 1_555 1_555
C66_16 C67_16 1_555 1_555
C72_16 C73_16 1_555 1_555
C79_16 C80_16 1_555 1_555

#END
