
###############################################################################
#
# This file contains modified crystal structure data generated from the
# MOF subset of the Cambridge Structural Database (CSD) v543 
# hosted by the Cambridge Crystallographic Data Centre (CCDC).
#
# This work is licensed under the Creative Commons
# Attribution-NonCommercial-ShareAlike 4.0 International License.
# To view a copy of this license, visit
# http://creativecommons.org/licenses/by-nc-sa/4.0/
# or send a letter to
# Creative Commons, PO Box 1866, Mountain View, CA 94042, USA.
#
# CIF created using the CSD Python API on 29 September 2022
# The structure has been converted into the P1 space group
# The structure has a 3D framework
# The original CSD entry KOHLIE is in the orthorhombic crystal system
# The framework has been calculated to contain at least 10.0% void space
# The void calculation uses a probe of radius 1.32A, grid spacing 0.4
#
###############################################################################

data_KOHLIE
_chemical_formula_moiety         '(C224 H128 Co6 O64 Si8)n'
_symmetry_cell_setting           triclinic
_symmetry_space_group_name_H-M   'P 1'
_symmetry_Int_Tables_number      1
_space_group_name_Hall           'P 1'
loop_
_symmetry_equiv_pos_site_id
_symmetry_equiv_pos_as_xyz
1 x,y,z
_cell_length_a                   26.982(3)
_cell_length_b                   21.882(2)
_cell_length_c                   13.8219(14)
_cell_angle_alpha                90
_cell_angle_beta                 90
_cell_angle_gamma                90
_cell_volume                     8160.73
loop_
_atom_site_label
_atom_site_type_symbol
_atom_site_fract_x
_atom_site_fract_y
_atom_site_fract_z
O17 O 0.1071(3) 0.6493(4) 0.0982(5)
O18 O 0.3929(3) 0.3507(4) 0.0982(5)
Co1 Co 0.12840(3) 0.7500 0.7500
Co2 Co 0.11772(3) 0.68528(4) 0.96662(5)
Si1 Si 0.13160(6) 0.44566(7) 0.46551(11)
C1 C 0.1419(4) 0.6068(5) 0.0982(7)
O2 O 0.31703(13) 0.27698(17) 0.6593(3)
C2 C 0.3074(2) 0.2776(3) 0.5710(4)
C3 C 0.2660(2) 0.3181(2) 0.5404(4)
C4 C 0.2366(2) 0.3453(3) 0.6093(5)
H1 H 0.2430 0.3377 0.6743
C5 C 0.2548(4) 0.3316(4) 0.4498(5)
H2 H 0.2726 0.3133 0.4001
C8 C 0.0268(4) 0.3103(4) 0.4956(7)
H3 H 0.0216 0.2791 0.5402
C9 C 0.0120(3) 0.3543(3) 0.3496(5)
C10 C 0.1386(2) 0.4940(3) 0.3561(4)
O4 O 0.13043(11) 0.66064(15) 0.8263(2)
C11 C 0.07813(19) 0.3927(2) 0.4480(3)
C12 C 0.1194(2) 0.4966(2) 0.5713(4)
C13 C 0.18728(19) 0.3975(2) 0.4938(4)
C14 C 0.1072(2) 0.5754(2) 0.7335(4)
O5 O 0.07163(19) 0.6015(2) 0.8831(3)
C15 C 0.1465(2) 0.5817(3) 0.6750(4)
H5 H 0.1702 0.6115 0.6875
C16 C 0.1515(3) 0.5425(3) 0.5941(4)
H6 H 0.1786 0.5485 0.5536
C17 C 0.1020(2) 0.6145(3) 0.8198(4)
C18 C 0.1985(2) 0.3832(3) 0.5850(4)
H7 H 0.1794 0.3999 0.6343
C19 C 0.0515(3) 0.3950(4) 0.3640(6)
H8 H 0.0595 0.4235 0.3165
C20 C 0.0663(3) 0.3506(4) 0.5079(6)
H9 H 0.0854 0.3466 0.5636
C21 C 0.0794(2) 0.4915(3) 0.6332(5)
H10 H 0.0557 0.4617 0.6209
C22 C 0.0734(2) 0.5290(3) 0.7125(5)
H11 H 0.0463 0.5232 0.7529
C23 C 0.2172(3) 0.3723(4) 0.4266(4)
H12 H 0.2123 0.3826 0.3619
O6 O 0.32968(16) 0.2462(2) 0.5053(3)
C24 C 0.1425(3) 0.5672(4) 0.1905(5)
O8 O 0.1718(4) 0.5983(4) 0.0349(5)
C25 C 0.1045(5) 0.5717(7) 0.2497(9)
H13 H 0.0784 0.5978 0.2353
C26 C 0.1039(5) 0.5364(6) 0.3353(10)
H14 H 0.0784 0.5427 0.3794
C27 C 0.1766(4) 0.5280(6) 0.2089(8)
H15 H 0.2038 0.5239 0.1681
C28 C 0.1720(3) 0.4926(5) 0.2896(7)
H16 H 0.1966 0.4632 0.2979
Co3 Co 0.38228(3) 0.31472(4) 0.96662(5)
Si2 Si 0.36840(6) 0.55434(7) 0.46551(11)
C29 C 0.3581(4) 0.3932(5) 0.0982(7)
O10 O 0.18297(13) 0.72302(17) 0.6593(3)
C30 C 0.1926(2) 0.7224(3) 0.5710(4)
C31 C 0.2340(2) 0.6819(2) 0.5404(4)
C32 C 0.2634(2) 0.6547(3) 0.6093(5)
H17 H 0.2570 0.6623 0.6743
C33 C 0.2452(4) 0.6684(4) 0.4498(5)
H18 H 0.2274 0.6867 0.4001
O11 O 0.55654(16) 0.7642(2) 0.4673(3)
C34 C 0.5475(2) 0.7248(3) 0.4054(4)
C35 C 0.5035(2) 0.6838(3) 0.4205(4)
C36 C 0.4732(4) 0.6897(4) 0.4956(7)
H19 H 0.4784 0.7209 0.5402
C37 C 0.4880(3) 0.6457(3) 0.3496(5)
H20 H 0.5039 0.6466 0.2899
C38 C 0.3614(2) 0.5060(3) 0.3561(4)
O12 O 0.36957(11) 0.33936(15) 0.8263(2)
C39 C 0.42187(19) 0.6073(2) 0.4480(3)
C40 C 0.3806(2) 0.5034(2) 0.5713(4)
C41 C 0.31272(19) 0.6025(2) 0.4938(4)
C42 C 0.3928(2) 0.4246(2) 0.7335(4)
O13 O 0.42837(19) 0.3985(2) 0.8831(3)
C43 C 0.3535(2) 0.4183(3) 0.6750(4)
H21 H 0.3298 0.3885 0.6875
C44 C 0.3485(3) 0.4575(3) 0.5941(4)
H22 H 0.3214 0.4515 0.5536
C45 C 0.3980(2) 0.3855(3) 0.8198(4)
C46 C 0.3015(2) 0.6168(3) 0.5850(4)
H23 H 0.3206 0.6001 0.6343
C47 C 0.4485(3) 0.6050(4) 0.3640(6)
H24 H 0.4405 0.5765 0.3165
C48 C 0.4337(3) 0.6494(4) 0.5079(6)
H25 H 0.4146 0.6534 0.5636
C49 C 0.4206(2) 0.5085(3) 0.6332(5)
H26 H 0.4443 0.5383 0.6209
C50 C 0.4266(2) 0.4710(3) 0.7125(5)
H27 H 0.4537 0.4768 0.7529
C51 C 0.2828(3) 0.6277(4) 0.4266(4)
H28 H 0.2877 0.6174 0.3619
O14 O 0.17032(16) 0.7538(2) 0.5053(3)
O15 O 0.57341(14) 0.71482(19) 0.3326(3)
C52 C 0.3575(3) 0.4328(4) 0.1905(5)
O16 O 0.3282(4) 0.4017(4) 0.0349(5)
C53 C 0.3955(5) 0.4283(7) 0.2497(9)
H29 H 0.4216 0.4022 0.2353
C54 C 0.3961(5) 0.4636(6) 0.3353(10)
H30 H 0.4216 0.4573 0.3794
C55 C 0.3234(4) 0.4720(6) 0.2089(8)
H31 H 0.2962 0.4761 0.1681
C56 C 0.3280(3) 0.5074(5) 0.2896(7)
H32 H 0.3034 0.5368 0.2979
Co4 Co 0.37160(3) 0.2500 0.7500
Co6 Co 0.62840(3) 0.7500 0.2500
Co9 Co 0.38228(3) 0.18528(4) 0.53338(5)
Co10 Co 0.11772(3) 0.81472(4) 0.53338(5)
Co11 Co 0.61772(3) 0.81472(4) 0.46662(5)
O19 O 0.18297(13) 0.77698(17) 0.8407(3)
O20 O 0.44346(16) 0.2642(2) 0.9673(3)
O21 O 0.05654(16) 0.7358(2) 0.9673(3)
O22 O 0.13043(11) 0.83936(15) 0.6737(2)
O23 O 0.17032(16) 0.7462(2) 0.9947(3)
O24 O 0.32968(16) 0.2538(2) 0.9947(3)
O25 O 0.07341(14) 0.71482(19) 0.6674(3)
O26 O 0.07341(14) 0.78518(19) 0.8326(3)
O3 O 0.94346(16) 0.2358(2) 0.4673(3)
C6 C 0.9525(2) 0.2752(3) 0.4054(4)
C7 C 0.9965(2) 0.3162(3) 0.4205(4)
H4 H 0.9961 0.3534 0.2899
O7 O 0.92659(14) 0.28518(19) 0.3326(3)
Co5 Co 0.87160(3) 0.2500 0.2500
Co12 Co 0.88228(3) 0.18528(4) 0.46662(5)
O19_2 O 0.31703(13) 0.22302(17) 0.8407(3)
O22_2 O 0.36957(11) 0.16064(15) 0.6737(2)
O25_2 O 0.42659(14) 0.28518(19) 0.6674(3)
O26_2 O 0.42659(14) 0.21482(19) 0.8326(3)
O1 O 0.3929(3) 0.1493(4) 0.4018(5)
C1_2 C 0.3581(4) 0.1068(5) 0.4018(7)
C24_2 C 0.3575(3) 0.0672(4) 0.3095(5)
O8_2 O 0.3282(4) 0.0983(4) 0.4651(5)
C25_2 C 0.3955(5) 0.0717(7) 0.2503(9)
H13_2 H 0.4216 0.0978 0.2647
C26_2 C 0.3961(5) 0.0364(6) 0.1647(10)
H14_2 H 0.4216 0.0427 0.1206
C27_2 C 0.3234(4) 0.0280(6) 0.2911(8)
H15_2 H 0.2962 0.0239 0.3319
Si2_2 Si 0.13160(6) 0.05434(7) 0.03449(11)
C33_2 C 0.2548(4) 0.1684(4) 0.0502(5)
H18_2 H 0.2726 0.1867 0.0999
C36_2 C 0.0268(4) 0.1897(4) 0.0044(7)
C37_2 C 0.0120(3) 0.1457(3) 0.1504(5)
C38_2 C 0.1386(2) 0.0060(3) 0.1439(4)
C39_2 C 0.07813(19) 0.1073(2) 0.0520(3)
C41_2 C 0.18728(19) 0.1025(2) 0.0062(4)
C47_2 C 0.0515(3) 0.1050(4) 0.1360(6)
H24_2 H 0.0595 0.0765 0.1835
C51_2 C 0.2172(3) 0.1277(4) 0.0734(4)
H28_2 H 0.2123 0.1174 0.1381
C56_2 C 0.1720(3) 0.0074(5) 0.2104(7)
H32_2 H 0.1966 0.0368 0.2021
C14_2 C 0.3928(2) 0.0754(2) 0.7665(4)
O5_2 O 0.42837(19) 0.1015(2) 0.6169(3)
C15_2 C 0.3535(2) 0.0817(3) 0.8250(4)
H5_2 H 0.3298 0.1115 0.8125
C16_2 C 0.3485(3) 0.0425(3) 0.9059(4)
H6_2 H 0.3214 0.0485 0.9464
C17_2 C 0.3980(2) 0.1145(3) 0.6802(4)
C22_2 C 0.4266(2) 0.0290(3) 0.7875(5)
H11_2 H 0.4537 0.0232 0.7471
C30_2 C 0.3074(2) 0.2224(3) 0.9290(4)
C31_2 C 0.2660(2) 0.1819(2) 0.9596(4)
C32_2 C 0.2366(2) 0.1547(3) 0.8907(5)
H17_2 H 0.2430 0.1623 0.8257
H19_2 H 0.0216 0.2209 0.9598
C40_2 C 0.1194(2) 0.0034(2) 0.9287(4)
C46_2 C 0.1985(2) 0.1168(3) 0.9150(4)
H23_2 H 0.1794 0.1001 0.8657
C48_2 C 0.0663(3) 0.1494(4) 0.9921(6)
H25_2 H 0.0854 0.1534 0.9364
C49_2 C 0.0794(2) 0.0085(3) 0.8668(5)
H26_2 H 0.0557 0.0383 0.8791
O21_2 O 0.44346(16) 0.2358(2) 0.5327(3)
Si1_2 Si 0.36840(6) 0.94566(7) 0.03449(11)
C5_2 C 0.2452(4) 0.8316(4) 0.0502(5)
H2_2 H 0.2274 0.8133 0.0999
O3_2 O 0.55654(16) 0.7358(2) 0.0327(3)
C6_2 C 0.5475(2) 0.7752(3) 0.0946(4)
C7_2 C 0.5035(2) 0.8162(3) 0.0795(4)
C8_2 C 0.4732(4) 0.8103(4) 0.0044(7)
C9_2 C 0.4880(3) 0.8543(3) 0.1504(5)
H4_2 H 0.5039 0.8534 0.2101
C10_2 C 0.3614(2) 0.9940(3) 0.1439(4)
C11_2 C 0.42187(19) 0.8927(2) 0.0520(3)
C13_2 C 0.31272(19) 0.8975(2) 0.0062(4)
C19_2 C 0.4485(3) 0.8950(4) 0.1360(6)
H8_2 H 0.4405 0.9235 0.1835
C23_2 C 0.2828(3) 0.8723(4) 0.0734(4)
H12_2 H 0.2877 0.8826 0.1381
O7_2 O 0.57341(14) 0.78518(19) 0.1674(3)
C28_2 C 0.3280(3) 0.9926(5) 0.2104(7)
H16_2 H 0.3034 0.9632 0.2021
O9 O 0.1071(3) 0.8507(4) 0.4018(5)
C29_2 C 0.1419(4) 0.8932(5) 0.4018(7)
C52_2 C 0.1425(3) 0.9328(4) 0.3095(5)
O16_2 O 0.1718(4) 0.9017(4) 0.4651(5)
C53_2 C 0.1045(5) 0.9283(7) 0.2503(9)
H29_2 H 0.0784 0.9022 0.2647
C54_2 C 0.1039(5) 0.9636(6) 0.1647(10)
H30_2 H 0.0784 0.9573 0.1206
C55_2 C 0.1766(4) 0.9720(6) 0.2911(8)
H31_2 H 0.2038 0.9761 0.3319
Co12_2 Co 0.61772(3) 0.68528(4) 0.03338(5)
C2_2 C 0.1926(2) 0.7776(3) 0.9290(4)
C3_2 C 0.2340(2) 0.8181(2) 0.9596(4)
C4_2 C 0.2634(2) 0.8453(3) 0.8907(5)
H1_2 H 0.2570 0.8377 0.8257
H3_2 H 0.4784 0.7791 0.9598
C12_2 C 0.3806(2) 0.9966(2) 0.9287(4)
C18_2 C 0.3015(2) 0.8832(3) 0.9150(4)
H7_2 H 0.3206 0.8999 0.8657
C20_2 C 0.4337(3) 0.8506(4) 0.9921(6)
H9_2 H 0.4146 0.8466 0.9364
C21_2 C 0.4206(2) 0.9915(3) 0.8668(5)
H10_2 H 0.4443 0.9617 0.8791
C42_2 C 0.1072(2) 0.9246(2) 0.7665(4)
O13_2 O 0.07163(19) 0.8985(2) 0.6169(3)
C43_2 C 0.1465(2) 0.9183(3) 0.8250(4)
H21_2 H 0.1702 0.8885 0.8125
C44_2 C 0.1515(3) 0.9575(3) 0.9059(4)
H22_2 H 0.1786 0.9515 0.9464
C45_2 C 0.1020(2) 0.8855(3) 0.6802(4)
C50_2 C 0.0734(2) 0.9710(3) 0.7875(5)
H27_2 H 0.0463 0.9768 0.7471
O20_2 O 0.05654(16) 0.7642(2) 0.5327(3)
O11_2 O 0.94346(16) 0.2642(2) 0.0327(3)
C34_2 C 0.9525(2) 0.2248(3) 0.0946(4)
C35_2 C 0.9965(2) 0.1838(3) 0.0795(4)
H20_2 H 0.9961 0.1466 0.2101
O15_2 O 0.92659(14) 0.21482(19) 0.1674(3)
Co11_2 Co 0.88228(3) 0.31472(4) 0.03338(5)
C6_3 C 0.0475(2) 0.7248(3) 0.5946(4)
C7_3 C 0.0035(2) 0.6838(3) 0.5795(4)
H4_3 H 0.0039 0.6466 0.7101
Si1_3 Si 0.86840(6) 0.55434(7) 0.53449(11)
O1_2 O 0.8929(3) 0.3507(4) 0.9018(5)
C1_3 C 0.8581(4) 0.3932(5) 0.9018(7)
O2_2 O 0.68297(13) 0.72302(17) 0.3407(3)
C2_3 C 0.6926(2) 0.7224(3) 0.4290(4)
C3_3 C 0.7340(2) 0.6819(2) 0.4596(4)
C4_3 C 0.7634(2) 0.6547(3) 0.3907(5)
H1_3 H 0.7570 0.6623 0.3257
C5_3 C 0.7452(4) 0.6684(4) 0.5502(5)
H2_3 H 0.7274 0.6867 0.5999
C8_3 C 0.9732(4) 0.6897(4) 0.5044(7)
H3_3 H 0.9784 0.7209 0.4598
C9_3 C 0.9880(3) 0.6457(3) 0.6504(5)
C10_3 C 0.8614(2) 0.5060(3) 0.6439(4)
O4_2 O 0.86957(11) 0.33936(15) 0.1737(2)
C11_3 C 0.92187(19) 0.6073(2) 0.5520(3)
C12_3 C 0.8806(2) 0.5034(2) 0.4287(4)
C13_3 C 0.81272(19) 0.6025(2) 0.5062(4)
C14_3 C 0.8928(2) 0.4246(2) 0.2665(4)
O5_3 O 0.92837(19) 0.3985(2) 0.1169(3)
C15_3 C 0.8535(2) 0.4183(3) 0.3250(4)
H5_3 H 0.8298 0.3885 0.3125
C16_3 C 0.8485(3) 0.4575(3) 0.4059(4)
H6_3 H 0.8214 0.4515 0.4464
C17_3 C 0.8980(2) 0.3855(3) 0.1802(4)
C18_3 C 0.8015(2) 0.6168(3) 0.4150(4)
H7_3 H 0.8206 0.6001 0.3657
C19_3 C 0.9485(3) 0.6050(4) 0.6360(6)
H8_3 H 0.9405 0.5765 0.6835
C20_3 C 0.9337(3) 0.6494(4) 0.4921(6)
H9_3 H 0.9146 0.6534 0.4364
C21_3 C 0.9206(2) 0.5085(3) 0.3668(5)
H10_3 H 0.9443 0.5383 0.3791
C22_3 C 0.9266(2) 0.4710(3) 0.2875(5)
H11_3 H 0.9537 0.4768 0.2471
C23_3 C 0.7828(3) 0.6277(4) 0.5734(4)
H12_3 H 0.7877 0.6174 0.6381
O6_2 O 0.67032(16) 0.7538(2) 0.4947(3)
C24_3 C 0.8575(3) 0.4328(4) 0.8095(5)
O8_3 O 0.8282(4) 0.4017(4) 0.9651(5)
C25_3 C 0.8955(5) 0.4283(7) 0.7503(9)
H13_3 H 0.9216 0.4022 0.7647
C26_3 C 0.8961(5) 0.4636(6) 0.6647(10)
H14_3 H 0.9216 0.4573 0.6206
C27_3 C 0.8234(4) 0.4720(6) 0.7911(8)
H15_3 H 0.7962 0.4761 0.8319
C28_3 C 0.8280(3) 0.5074(5) 0.7104(7)
H16_3 H 0.8034 0.5368 0.7021
Si2_3 Si 0.63160(6) 0.44566(7) 0.53449(11)
O9_2 O 0.6071(3) 0.6493(4) 0.9018(5)
C29_3 C 0.6419(4) 0.6068(5) 0.9018(7)
O10_2 O 0.81703(13) 0.27698(17) 0.3407(3)
C30_3 C 0.8074(2) 0.2776(3) 0.4290(4)
C31_3 C 0.7660(2) 0.3181(2) 0.4596(4)
C32_3 C 0.7366(2) 0.3453(3) 0.3907(5)
H17_3 H 0.7430 0.3377 0.3257
C33_3 C 0.7548(4) 0.3316(4) 0.5502(5)
H18_3 H 0.7726 0.3133 0.5999
C34_3 C 0.4525(2) 0.2752(3) 0.5946(4)
C35_3 C 0.4965(2) 0.3162(3) 0.5795(4)
C36_3 C 0.5268(4) 0.3103(4) 0.5044(7)
H19_3 H 0.5216 0.2791 0.4598
C37_3 C 0.5120(3) 0.3543(3) 0.6504(5)
H20_3 H 0.4961 0.3534 0.7101
C38_3 C 0.6386(2) 0.4940(3) 0.6439(4)
O12_2 O 0.63043(11) 0.66064(15) 0.1737(2)
C39_3 C 0.57813(19) 0.3927(2) 0.5520(3)
C40_3 C 0.6194(2) 0.4966(2) 0.4287(4)
C41_3 C 0.68728(19) 0.3975(2) 0.5062(4)
C42_3 C 0.6072(2) 0.5754(2) 0.2665(4)
O13_3 O 0.57163(19) 0.6015(2) 0.1169(3)
C43_3 C 0.6465(2) 0.5817(3) 0.3250(4)
H21_3 H 0.6702 0.6115 0.3125
C44_3 C 0.6515(3) 0.5425(3) 0.4059(4)
H22_3 H 0.6786 0.5485 0.4464
C45_3 C 0.6020(2) 0.6145(3) 0.1802(4)
C46_3 C 0.6985(2) 0.3832(3) 0.4150(4)
H23_3 H 0.6794 0.3999 0.3657
C47_3 C 0.5515(3) 0.3950(4) 0.6360(6)
H24_3 H 0.5595 0.4235 0.6835
C48_3 C 0.5663(3) 0.3506(4) 0.4921(6)
H25_3 H 0.5854 0.3466 0.4364
C49_3 C 0.5794(2) 0.4915(3) 0.3668(5)
H26_3 H 0.5557 0.4617 0.3791
C50_3 C 0.5734(2) 0.5290(3) 0.2875(5)
H27_3 H 0.5463 0.5232 0.2471
C51_3 C 0.7172(3) 0.3723(4) 0.5734(4)
H28_3 H 0.7123 0.3826 0.6381
O14_2 O 0.82968(16) 0.2462(2) 0.4947(3)
C52_3 C 0.6425(3) 0.5672(4) 0.8095(5)
O16_3 O 0.6718(4) 0.5983(4) 0.9651(5)
C53_3 C 0.6045(5) 0.5717(7) 0.7503(9)
H29_3 H 0.5784 0.5978 0.7647
C54_3 C 0.6039(5) 0.5364(6) 0.6647(10)
H30_3 H 0.5784 0.5427 0.6206
C55_3 C 0.6766(4) 0.5280(6) 0.7911(8)
H31_3 H 0.7038 0.5239 0.8319
C56_3 C 0.6720(3) 0.4926(5) 0.7104(7)
H32_3 H 0.6966 0.4632 0.7021
O19_3 O 0.81703(13) 0.22302(17) 0.1593(3)
O22_3 O 0.86957(11) 0.16064(15) 0.3263(2)
O23_2 O 0.82968(16) 0.2538(2) 0.0053(3)
O24_2 O 0.67032(16) 0.7462(2) 0.0053(3)
O19_4 O 0.68297(13) 0.77698(17) 0.1593(3)
O22_4 O 0.63043(11) 0.83936(15) 0.3263(2)
C34_4 C 0.0475(2) 0.7752(3) 0.9054(4)
C35_4 C 0.0035(2) 0.8162(3) 0.9205(4)
H20_4 H 0.0039 0.8534 0.7899
C2_4 C 0.8074(2) 0.2224(3) 0.0710(4)
C3_4 C 0.7660(2) 0.1819(2) 0.0404(4)
C4_4 C 0.7366(2) 0.1547(3) 0.1093(5)
H1_4 H 0.7430 0.1623 0.1743
H3_4 H 0.5216 0.2209 0.0402
C12_4 C 0.6194(2) 0.0034(2) 0.0713(4)
C18_4 C 0.6985(2) 0.1168(3) 0.0850(4)
H7_4 H 0.6794 0.1001 0.1343
C20_4 C 0.5663(3) 0.1494(4) 0.0079(6)
H9_4 H 0.5854 0.1534 0.0636
C21_4 C 0.5794(2) 0.0085(3) 0.1332(5)
H10_4 H 0.5557 0.0383 0.1209
C42_4 C 0.8928(2) 0.0754(2) 0.2335(4)
O13_4 O 0.92837(19) 0.1015(2) 0.3831(3)
C43_4 C 0.8535(2) 0.0817(3) 0.1750(4)
H21_4 H 0.8298 0.1115 0.1875
C44_4 C 0.8485(3) 0.0425(3) 0.0941(4)
H22_4 H 0.8214 0.0485 0.0536
C45_4 C 0.8980(2) 0.1145(3) 0.3198(4)
C50_4 C 0.9266(2) 0.0290(3) 0.2125(5)
H27_4 H 0.9537 0.0232 0.2529
O18_2 O 0.8929(3) 0.1493(4) 0.5982(5)
Si1_4 Si 0.63160(6) 0.05434(7) 0.96551(11)
C5_4 C 0.7548(4) 0.1684(4) 0.9498(5)
H2_4 H 0.7726 0.1867 0.9001
C6_4 C 0.4525(2) 0.2248(3) 0.9054(4)
C7_4 C 0.4965(2) 0.1838(3) 0.9205(4)
C8_4 C 0.5268(4) 0.1897(4) 0.9956(7)
C9_4 C 0.5120(3) 0.1457(3) 0.8496(5)
H4_4 H 0.4961 0.1466 0.7899
C10_4 C 0.6386(2) 0.0060(3) 0.8561(4)
C11_4 C 0.57813(19) 0.1073(2) 0.9480(3)
C13_4 C 0.68728(19) 0.1025(2) 0.9938(4)
C19_4 C 0.5515(3) 0.1050(4) 0.8640(6)
H8_4 H 0.5595 0.0765 0.8165
C23_4 C 0.7172(3) 0.1277(4) 0.9266(4)
H12_4 H 0.7123 0.1174 0.8619
C28_4 C 0.6720(3) 0.0074(5) 0.7896(7)
H16_4 H 0.6966 0.0368 0.7979
C29_4 C 0.8581(4) 0.1068(5) 0.5982(7)
C52_4 C 0.8575(3) 0.0672(4) 0.6905(5)
O16_4 O 0.8282(4) 0.0983(4) 0.5349(5)
C53_4 C 0.8955(5) 0.0717(7) 0.7497(9)
H29_4 H 0.9216 0.0978 0.7353
C54_4 C 0.8961(5) 0.0364(6) 0.8353(10)
H30_4 H 0.9216 0.0427 0.8794
C55_4 C 0.8234(4) 0.0280(6) 0.7089(8)
H31_4 H 0.7962 0.0239 0.6681
C14_4 C 0.6072(2) 0.9246(2) 0.2335(4)
O5_4 O 0.57163(19) 0.8985(2) 0.3831(3)
C15_4 C 0.6465(2) 0.9183(3) 0.1750(4)
H5_4 H 0.6702 0.8885 0.1875
C16_4 C 0.6515(3) 0.9575(3) 0.0941(4)
H6_4 H 0.6786 0.9515 0.0536
C17_4 C 0.6020(2) 0.8855(3) 0.3198(4)
C22_4 C 0.5734(2) 0.9710(3) 0.2125(5)
H11_4 H 0.5463 0.9768 0.2529
C30_4 C 0.6926(2) 0.7776(3) 0.0710(4)
C31_4 C 0.7340(2) 0.8181(2) 0.0404(4)
C32_4 C 0.7634(2) 0.8453(3) 0.1093(5)
H17_4 H 0.7570 0.8377 0.1743
H19_4 H 0.9784 0.7791 0.0402
C40_4 C 0.8806(2) 0.9966(2) 0.0713(4)
C46_4 C 0.8015(2) 0.8832(3) 0.0850(4)
H23_4 H 0.8206 0.8999 0.1343
C48_4 C 0.9337(3) 0.8506(4) 0.0079(6)
H25_4 H 0.9146 0.8466 0.0636
C49_4 C 0.9206(2) 0.9915(3) 0.1332(5)
H26_4 H 0.9443 0.9617 0.1209
O17_2 O 0.6071(3) 0.8507(4) 0.5982(5)
C1_4 C 0.6419(4) 0.8932(5) 0.5982(7)
C24_4 C 0.6425(3) 0.9328(4) 0.6905(5)
O8_4 O 0.6718(4) 0.9017(4) 0.5349(5)
C25_4 C 0.6045(5) 0.9283(7) 0.7497(9)
H13_4 H 0.5784 0.9022 0.7353
C26_4 C 0.6039(5) 0.9636(6) 0.8353(10)
H14_4 H 0.5784 0.9573 0.8794
C27_4 C 0.6766(4) 0.9720(6) 0.7089(8)
H15_4 H 0.7038 0.9761 0.6681
Si2_4 Si 0.86840(6) 0.94566(7) 0.96551(11)
C33_4 C 0.7452(4) 0.8316(4) 0.9498(5)
H18_4 H 0.7274 0.8133 0.9001
C36_4 C 0.9732(4) 0.8103(4) 0.9956(7)
C37_4 C 0.9880(3) 0.8543(3) 0.8496(5)
C38_4 C 0.8614(2) 0.9940(3) 0.8561(4)
C39_4 C 0.92187(19) 0.8927(2) 0.9480(3)
C41_4 C 0.81272(19) 0.8975(2) 0.9938(4)
C47_4 C 0.9485(3) 0.8950(4) 0.8640(6)
H24_4 H 0.9405 0.9235 0.8165
C51_4 C 0.7828(3) 0.8723(4) 0.9266(4)
H28_4 H 0.7877 0.8826 0.8619
C56_4 C 0.8280(3) 0.9926(5) 0.7896(7)
H32_4 H 0.8034 0.9632 0.7979
loop_
_geom_bond_atom_site_label_1
_geom_bond_atom_site_label_2
_geom_bond_site_symmetry_1
_geom_bond_site_symmetry_2
Co1 O4 1_555 1_555
Co2 O4 1_555 1_555
Si1 C10 1_555 1_555
O17 C1 1_555 1_555
C1 C24 1_555 1_555
O2 C2 1_555 1_555
C2 C3 1_555 1_555
C3 C4 1_555 1_555
C4 H1 1_555 1_555
C5 C3 1_555 1_555
H2 C5 1_555 1_555
C8 H3 1_555 1_555
C10 C26 1_555 1_555
O4 C17 1_555 1_555
C11 Si1 1_555 1_555
C12 Si1 1_555 1_555
C13 Si1 1_555 1_555
C14 C15 1_555 1_555
O5 C17 1_555 1_555
C15 H5 1_555 1_555
C16 C12 1_555 1_555
H6 C16 1_555 1_555
C17 C14 1_555 1_555
C18 C4 1_555 1_555
H7 C18 1_555 1_555
C19 C9 1_555 1_555
H8 C19 1_555 1_555
C20 C8 1_555 1_555
H9 C20 1_555 1_555
C21 C12 1_555 1_555
H10 C21 1_555 1_555
C22 C14 1_555 1_555
H11 C22 1_555 1_555
C23 C5 1_555 1_555
H12 C23 1_555 1_555
O6 C2 1_555 1_555
C24 C25 1_555 1_555
O8 C1 1_555 1_555
C25 H13 1_555 1_555
C26 C25 1_555 1_555
H14 C26 1_555 1_555
C27 C24 1_555 1_555
H15 C27 1_555 1_555
C28 C10 1_555 1_555
H16 C28 1_555 1_555
Co3 O12 1_555 1_555
Si2 C38 1_555 1_555
O18 C29 1_555 1_555
C29 C52 1_555 1_555
O10 Co1 1_555 1_555
C30 O10 1_555 1_555
C31 C30 1_555 1_555
C32 C31 1_555 1_555
H17 C32 1_555 1_555
C33 C31 1_555 1_555
H18 C33 1_555 1_555
O11 C34 1_555 1_555
C34 C35 1_555 1_555
C35 C36 1_555 1_555
C36 H19 1_555 1_555
C37 C35 1_555 1_555
H20 C37 1_555 1_555
C38 C54 1_555 1_555
O12 C45 1_555 1_555
C39 Si2 1_555 1_555
C40 Si2 1_555 1_555
C41 Si2 1_555 1_555
C42 C43 1_555 1_555
O13 C45 1_555 1_555
C43 H21 1_555 1_555
C44 C40 1_555 1_555
H22 C44 1_555 1_555
C45 C42 1_555 1_555
C46 C32 1_555 1_555
H23 C46 1_555 1_555
C47 C37 1_555 1_555
H24 C47 1_555 1_555
C48 C36 1_555 1_555
H25 C48 1_555 1_555
C49 C40 1_555 1_555
H26 C49 1_555 1_555
C50 C42 1_555 1_555
H27 C50 1_555 1_555
C51 C33 1_555 1_555
H28 C51 1_555 1_555
O14 C30 1_555 1_555
O15 C34 1_555 1_555
C52 C53 1_555 1_555
O16 C29 1_555 1_555
C53 H29 1_555 1_555
C54 C53 1_555 1_555
H30 C54 1_555 1_555
C55 C52 1_555 1_555
H31 C55 1_555 1_555
C56 C38 1_555 1_555
H32 C56 1_555 1_555
Co4 O2 1_555 1_555
Co6 O15 1_555 1_555
Co9 O6 1_555 1_555
Co10 O14 1_555 1_555
Co11 O11 1_555 1_555
O19 Co1 1_555 1_555
O20 Co3 1_555 1_555
O21 Co2 1_555 1_555
O22 Co1 1_555 1_555
O23 Co2 1_555 1_555
O24 Co3 1_555 1_555
O25 Co1 1_555 1_555
O26 Co1 1_555 1_555
C11 C19 1_555 1_555
C11 C20 1_555 1_555
C13 C18 1_555 1_555
C13 C23 1_555 1_555
C15 C16 1_555 1_555
C21 C22 1_555 1_555
C27 C28 1_555 1_555
O12 Co4 1_555 1_555
C39 C47 1_555 1_555
C39 C48 1_555 1_555
C41 C46 1_555 1_555
C41 C51 1_555 1_555
C43 C44 1_555 1_555
C49 C50 1_555 1_555
C55 C56 1_555 1_555
Co10 O22 1_555 1_555
O3 C6 1_555 1_555
C6 C7 1_555 1_555
O7 C6 1_555 1_555
Co5 O7 1_555 1_555
Co12 O3 1_555 1_555
O19_2 Co4 1_555 1_555
O22_2 Co4 1_555 1_555
O25_2 Co4 1_555 1_555
O26_2 Co4 1_555 1_555
Co9 O22_2 1_555 1_555
O1 C1_2 1_555 1_555
C1_2 C24_2 1_555 1_555
C24_2 C25_2 1_555 1_555
O8_2 C1_2 1_555 1_555
C25_2 H13_2 1_555 1_555
C26_2 C25_2 1_555 1_555
H14_2 C26_2 1_555 1_555
C27_2 C24_2 1_555 1_555
H15_2 C27_2 1_555 1_555
Si2_2 C38_2 1_555 1_555
H18_2 C33_2 1_555 1_555
C39_2 Si2_2 1_555 1_555
C41_2 Si2_2 1_555 1_555
C47_2 C37_2 1_555 1_555
H24_2 C47_2 1_555 1_555
C51_2 C33_2 1_555 1_555
H28_2 C51_2 1_555 1_555
C56_2 C38_2 1_555 1_555
H32_2 C56_2 1_555 1_555
Co9 O1 1_555 1_555
C39_2 C47_2 1_555 1_555
C41_2 C51_2 1_555 1_555
O22_2 C17_2 1_555 1_555
C14_2 C15_2 1_555 1_555
O5_2 C17_2 1_555 1_555
C15_2 H5_2 1_555 1_555
H6_2 C16_2 1_555 1_555
C17_2 C14_2 1_555 1_555
C22_2 C14_2 1_555 1_555
H11_2 C22_2 1_555 1_555
C30_2 O19_2 1_555 1_555
C31_2 C30_2 1_555 1_555
C32_2 C31_2 1_555 1_555
H17_2 C32_2 1_555 1_555
C46_2 C32_2 1_555 1_555
H23_2 C46_2 1_555 1_555
H25_2 C48_2 1_555 1_555
C49_2 C40_2 1_555 1_555
H26_2 C49_2 1_555 1_555
O24 C30_2 1_555 1_555
O21_2 Co9 1_555 1_555
C15_2 C16_2 1_555 1_555
Si1_2 C10_2 1_555 1_555
H2_2 C5_2 1_555 1_555
O3_2 C6_2 1_555 1_555
C6_2 C7_2 1_555 1_555
C7_2 C8_2 1_555 1_555
C9_2 C7_2 1_555 1_555
H4_2 C9_2 1_555 1_555
C11_2 Si1_2 1_555 1_555
C13_2 Si1_2 1_555 1_555
C19_2 C9_2 1_555 1_555
H8_2 C19_2 1_555 1_555
C23_2 C5_2 1_555 1_555
H12_2 C23_2 1_555 1_555
O7_2 C6_2 1_555 1_555
C28_2 C10_2 1_555 1_555
H16_2 C28_2 1_555 1_555
O9 C29_2 1_555 1_555
C29_2 C52_2 1_555 1_555
C52_2 C53_2 1_555 1_555
O16_2 C29_2 1_555 1_555
C53_2 H29_2 1_555 1_555
C54_2 C53_2 1_555 1_555
H30_2 C54_2 1_555 1_555
C55_2 C52_2 1_555 1_555
H31_2 C55_2 1_555 1_555
Co6 O7_2 1_555 1_555
Co10 O9 1_555 1_555
Co12_2 O3_2 1_555 1_555
C11_2 C19_2 1_555 1_555
C13_2 C23_2 1_555 1_555
O19 C2_2 1_555 1_555
C2_2 C3_2 1_555 1_555
C3_2 C4_2 1_555 1_555
C4_2 H1_2 1_555 1_555
C18_2 C4_2 1_555 1_555
H7_2 C18_2 1_555 1_555
H9_2 C20_2 1_555 1_555
C21_2 C12_2 1_555 1_555
H10_2 C21_2 1_555 1_555
O23 C2_2 1_555 1_555
O22 C45_2 1_555 1_555
C42_2 C43_2 1_555 1_555
O13_2 C45_2 1_555 1_555
C43_2 H21_2 1_555 1_555
H22_2 C44_2 1_555 1_555
C45_2 C42_2 1_555 1_555
C50_2 C42_2 1_555 1_555
H27_2 C50_2 1_555 1_555
O20_2 Co10 1_555 1_555
C43_2 C44_2 1_555 1_555
O11_2 C34_2 1_555 1_555
C34_2 C35_2 1_555 1_555
O15_2 C34_2 1_555 1_555
Co5 O15_2 1_555 1_555
Co11_2 O11_2 1_555 1_555
O20_2 C6_3 1_555 1_555
C6_3 C7_3 1_555 1_555
O25 C6_3 1_555 1_555
Co5 O4_2 1_555 1_555
Co11_2 O4_2 1_555 1_555
Si1_3 C10_3 1_555 1_555
O1_2 C1_3 1_555 1_555
C1_3 C24_3 1_555 1_555
O2_2 C2_3 1_555 1_555
C2_3 C3_3 1_555 1_555
C3_3 C4_3 1_555 1_555
C4_3 H1_3 1_555 1_555
C5_3 C3_3 1_555 1_555
H2_3 C5_3 1_555 1_555
C8_3 H3_3 1_555 1_555
C10_3 C26_3 1_555 1_555
O4_2 C17_3 1_555 1_555
C11_3 Si1_3 1_555 1_555
C12_3 Si1_3 1_555 1_555
C13_3 Si1_3 1_555 1_555
C14_3 C15_3 1_555 1_555
O5_3 C17_3 1_555 1_555
C15_3 H5_3 1_555 1_555
C16_3 C12_3 1_555 1_555
H6_3 C16_3 1_555 1_555
C17_3 C14_3 1_555 1_555
C18_3 C4_3 1_555 1_555
H7_3 C18_3 1_555 1_555
C19_3 C9_3 1_555 1_555
H8_3 C19_3 1_555 1_555
C20_3 C8_3 1_555 1_555
H9_3 C20_3 1_555 1_555
C21_3 C12_3 1_555 1_555
H10_3 C21_3 1_555 1_555
C22_3 C14_3 1_555 1_555
H11_3 C22_3 1_555 1_555
C23_3 C5_3 1_555 1_555
H12_3 C23_3 1_555 1_555
O6_2 C2_3 1_555 1_555
C24_3 C25_3 1_555 1_555
O8_3 C1_3 1_555 1_555
C25_3 H13_3 1_555 1_555
C26_3 C25_3 1_555 1_555
H14_3 C26_3 1_555 1_555
C27_3 C24_3 1_555 1_555
H15_3 C27_3 1_555 1_555
C28_3 C10_3 1_555 1_555
H16_3 C28_3 1_555 1_555
Co12_2 O12_2 1_555 1_555
Si2_3 C38_3 1_555 1_555
O9_2 C29_3 1_555 1_555
C29_3 C52_3 1_555 1_555
O10_2 Co5 1_555 1_555
C30_3 O10_2 1_555 1_555
C31_3 C30_3 1_555 1_555
C32_3 C31_3 1_555 1_555
H17_3 C32_3 1_555 1_555
C33_3 C31_3 1_555 1_555
H18_3 C33_3 1_555 1_555
O21_2 C34_3 1_555 1_555
C34_3 C35_3 1_555 1_555
C35_3 C36_3 1_555 1_555
C36_3 H19_3 1_555 1_555
C37_3 C35_3 1_555 1_555
H20_3 C37_3 1_555 1_555
C38_3 C54_3 1_555 1_555
O12_2 C45_3 1_555 1_555
C39_3 Si2_3 1_555 1_555
C40_3 Si2_3 1_555 1_555
C41_3 Si2_3 1_555 1_555
C42_3 C43_3 1_555 1_555
O13_3 C45_3 1_555 1_555
C43_3 H21_3 1_555 1_555
C44_3 C40_3 1_555 1_555
H22_3 C44_3 1_555 1_555
C45_3 C42_3 1_555 1_555
C46_3 C32_3 1_555 1_555
H23_3 C46_3 1_555 1_555
C47_3 C37_3 1_555 1_555
H24_3 C47_3 1_555 1_555
C48_3 C36_3 1_555 1_555
H25_3 C48_3 1_555 1_555
C49_3 C40_3 1_555 1_555
H26_3 C49_3 1_555 1_555
C50_3 C42_3 1_555 1_555
H27_3 C50_3 1_555 1_555
C51_3 C33_3 1_555 1_555
H28_3 C51_3 1_555 1_555
O14_2 C30_3 1_555 1_555
O25_2 C34_3 1_555 1_555
C52_3 C53_3 1_555 1_555
O16_3 C29_3 1_555 1_555
C53_3 H29_3 1_555 1_555
C54_3 C53_3 1_555 1_555
H30_3 C54_3 1_555 1_555
C55_3 C52_3 1_555 1_555
H31_3 C55_3 1_555 1_555
C56_3 C38_3 1_555 1_555
H32_3 C56_3 1_555 1_555
Co6 O2_2 1_555 1_555
Co11 O6_2 1_555 1_555
Co12 O14_2 1_555 1_555
O19_3 Co5 1_555 1_555
O22_3 Co5 1_555 1_555
O23_2 Co11_2 1_555 1_555
O24_2 Co12_2 1_555 1_555
C11_3 C19_3 1_555 1_555
C11_3 C20_3 1_555 1_555
C13_3 C18_3 1_555 1_555
C13_3 C23_3 1_555 1_555
C15_3 C16_3 1_555 1_555
C21_3 C22_3 1_555 1_555
C27_3 C28_3 1_555 1_555
O12_2 Co6 1_555 1_555
C39_3 C47_3 1_555 1_555
C39_3 C48_3 1_555 1_555
C41_3 C46_3 1_555 1_555
C41_3 C51_3 1_555 1_555
C43_3 C44_3 1_555 1_555
C49_3 C50_3 1_555 1_555
C55_3 C56_3 1_555 1_555
Co12 O22_3 1_555 1_555
O19_4 Co6 1_555 1_555
O22_4 Co6 1_555 1_555
Co11 O22_4 1_555 1_555
O21 C34_4 1_555 1_555
C34_4 C35_4 1_555 1_555
O26 C34_4 1_555 1_555
O19_3 C2_4 1_555 1_555
C2_4 C3_4 1_555 1_555
C3_4 C4_4 1_555 1_555
C4_4 H1_4 1_555 1_555
C18_4 C4_4 1_555 1_555
H7_4 C18_4 1_555 1_555
H9_4 C20_4 1_555 1_555
C21_4 C12_4 1_555 1_555
H10_4 C21_4 1_555 1_555
O23_2 C2_4 1_555 1_555
O22_3 C45_4 1_555 1_555
C42_4 C43_4 1_555 1_555
O13_4 C45_4 1_555 1_555
C43_4 H21_4 1_555 1_555
H22_4 C44_4 1_555 1_555
C45_4 C42_4 1_555 1_555
C50_4 C42_4 1_555 1_555
H27_4 C50_4 1_555 1_555
O18_2 Co12 1_555 1_555
C43_4 C44_4 1_555 1_555
Si1_4 C10_4 1_555 1_555
H2_4 C5_4 1_555 1_555
O20 C6_4 1_555 1_555
C6_4 C7_4 1_555 1_555
C7_4 C8_4 1_555 1_555
C9_4 C7_4 1_555 1_555
H4_4 C9_4 1_555 1_555
C11_4 Si1_4 1_555 1_555
C13_4 Si1_4 1_555 1_555
C19_4 C9_4 1_555 1_555
H8_4 C19_4 1_555 1_555
C23_4 C5_4 1_555 1_555
H12_4 C23_4 1_555 1_555
O26_2 C6_4 1_555 1_555
C28_4 C10_4 1_555 1_555
H16_4 C28_4 1_555 1_555
O18_2 C29_4 1_555 1_555
C29_4 C52_4 1_555 1_555
C52_4 C53_4 1_555 1_555
O16_4 C29_4 1_555 1_555
C53_4 H29_4 1_555 1_555
C54_4 C53_4 1_555 1_555
H30_4 C54_4 1_555 1_555
C55_4 C52_4 1_555 1_555
H31_4 C55_4 1_555 1_555
C11_4 C19_4 1_555 1_555
C13_4 C23_4 1_555 1_555
O22_4 C17_4 1_555 1_555
C14_4 C15_4 1_555 1_555
O5_4 C17_4 1_555 1_555
C15_4 H5_4 1_555 1_555
H6_4 C16_4 1_555 1_555
C17_4 C14_4 1_555 1_555
C22_4 C14_4 1_555 1_555
H11_4 C22_4 1_555 1_555
C30_4 O19_4 1_555 1_555
C31_4 C30_4 1_555 1_555
C32_4 C31_4 1_555 1_555
H17_4 C32_4 1_555 1_555
C46_4 C32_4 1_555 1_555
H23_4 C46_4 1_555 1_555
H25_4 C48_4 1_555 1_555
C49_4 C40_4 1_555 1_555
H26_4 C49_4 1_555 1_555
O24_2 C30_4 1_555 1_555
O17_2 Co11 1_555 1_555
C15_4 C16_4 1_555 1_555
O17_2 C1_4 1_555 1_555
C1_4 C24_4 1_555 1_555
C24_4 C25_4 1_555 1_555
O8_4 C1_4 1_555 1_555
C25_4 H13_4 1_555 1_555
C26_4 C25_4 1_555 1_555
H14_4 C26_4 1_555 1_555
C27_4 C24_4 1_555 1_555
H15_4 C27_4 1_555 1_555
Si2_4 C38_4 1_555 1_555
H18_4 C33_4 1_555 1_555
C39_4 Si2_4 1_555 1_555
C41_4 Si2_4 1_555 1_555
C47_4 C37_4 1_555 1_555
H24_4 C47_4 1_555 1_555
C51_4 C33_4 1_555 1_555
H28_4 C51_4 1_555 1_555
C56_4 C38_4 1_555 1_555
H32_4 C56_4 1_555 1_555
C39_4 C47_4 1_555 1_555
C41_4 C51_4 1_555 1_555

#END
