
###############################################################################
#
# This file contains modified crystal structure data generated from the
# MOF subset of the Cambridge Structural Database (CSD) v543 
# hosted by the Cambridge Crystallographic Data Centre (CCDC).
#
# This work is licensed under the Creative Commons
# Attribution-NonCommercial-ShareAlike 4.0 International License.
# To view a copy of this license, visit
# http://creativecommons.org/licenses/by-nc-sa/4.0/
# or send a letter to
# Creative Commons, PO Box 1866, Mountain View, CA 94042, USA.
#
# CIF created using the CSD Python API on 29 September 2022
# The structure has been converted into the P1 space group
# The structure has a 3D framework
# The original CSD entry KOHYOY is in the triclinic crystal system
# The framework has been calculated to contain at least 10.0% void space
# The void calculation uses a probe of radius 1.32A, grid spacing 0.4
#
###############################################################################

data_KOHYOY
_chemical_formula_moiety         '(C256 H160 Cd8 N64 O32)n'
_symmetry_cell_setting           triclinic
_symmetry_space_group_name_H-M   'P 1'
_symmetry_Int_Tables_number      1
_space_group_name_Hall           'P 1'
loop_
_symmetry_equiv_pos_site_id
_symmetry_equiv_pos_as_xyz
1 x,y,z
_cell_length_a                   18.4591(2)
_cell_length_b                   20.0087(3)
_cell_length_c                   21.7899(3)
_cell_angle_alpha                82.8120(10)
_cell_angle_beta                 82.5980(10)
_cell_angle_gamma                68.3390(10)
_cell_volume                     7390.98
loop_
_atom_site_label
_atom_site_type_symbol
_atom_site_fract_x
_atom_site_fract_y
_atom_site_fract_z
Cd3 Cd 0.28272(2) 0.17614(2) 0.77386(2)
Cd4 Cd 0.20490(2) 0.37606(2) 0.70492(2)
O3 O 0.15701(16) 0.17399(15) 0.76392(13)
O4 O 0.16540(15) 0.27688(15) 0.72686(12)
N10 N 0.12947(17) 0.21104(18) 0.09445(13)
N11 N 0.13020(17) 0.26491(18) 0.18496(13)
N12 N 0.21529(17) 0.27425(18) 0.09575(13)
N14 N 0.2756(2) 0.4079(2) 0.2516(2)
N16 N 0.04779(16) 0.40371(16) 0.02825(13)
N17 N 0.05227(17) 0.45498(17) 0.11903(13)
N18 N 0.13546(17) 0.46490(17) 0.02885(13)
N19 N 0.1986(4) 0.6013(3) 0.1802(3)
C25 C 0.0219(3) 0.2007(3) 0.7039(2)
H15 H 0.038302 0.158691 0.730280
C26 C 0.0281(2) 0.3158(2) 0.66557(17)
H16 H 0.048826 0.351564 0.666379
C27 C 0.0566(2) 0.2512(2) 0.70236(14)
C28 C 0.13044(19) 0.23280(19) 0.73396(14)
C94 C 0.0083(3) 0.1676(3) 0.15085(19)
H58 H 0.030268 0.153240 0.111599
C95 C 0.0396(2) 0.2041(2) 0.18223(16)
C96 C 0.0059(2) 0.2233(2) 0.24090(16)
H59 H 0.026229 0.247389 0.263831
C98 C 0.10439(19) 0.2274(2) 0.15285(15)
C99 C 0.1841(2) 0.2369(2) 0.06775(15)
C100 C 0.18615(19) 0.2865(2) 0.15448(16)
C101 C 0.2174(2) 0.3287(2) 0.18815(17)
C102 C 0.2800(2) 0.3479(2) 0.1619(2)
H61 H 0.303804 0.334925 0.122651
C103 C 0.3061(3) 0.3872(3) 0.1960(2)
H62 H 0.348258 0.399935 0.178247
C104 C 0.2149(3) 0.3895(3) 0.2754(2)
H63 H 0.191625 0.404337 0.314269
C105 C 0.1841(2) 0.3499(2) 0.24649(19)
H64 H 0.142118 0.337742 0.265634
C106 C 0.2097(2) 0.2232(2) 0.00158(15)
C116 C 0.02406(19) 0.41931(19) 0.08727(15)
C117 C 0.10332(19) 0.42820(19) 0.00139(16)
C118 C 0.1077(2) 0.4774(2) 0.08748(16)
C119 C 0.1395(2) 0.5204(2) 0.1200(2)
C120 C 0.2007(3) 0.5408(3) 0.0916(3)
H73 H 0.222611 0.528448 0.051828
C121 C 0.2279(4) 0.5802(4) 0.1246(3)
H74 H 0.269917 0.592684 0.106030
C122 C 0.1399(4) 0.5817(4) 0.2057(3)
H75 H 0.118242 0.596232 0.244996
C123 C 0.1087(3) 0.5416(3) 0.1787(2)
H76 H 0.067694 0.528999 0.199313
O17 O 0.41439(18) 0.09073(16) 0.80432(15)
O18 O 0.31446(17) 0.05659(15) 0.80427(14)
O19 O 0.32881(15) 0.37806(15) 0.71024(12)
O20 O 0.32491(14) 0.27295(14) 0.74833(12)
O21 O 0.0768(2) 0.44884(18) 0.6713(2)
O22 O 0.15499(19) 0.50112(16) 0.68509(15)
N33 N 0.25111(18) 0.20391(17) 0.87604(12)
N34 N 0.17306(17) 0.39180(17) 0.81081(13)
N35 N 0.32877(18) 0.14623(18) 0.67313(13)
N36 N 0.24455(19) 0.34118(18) 0.60396(13)
C107 C 0.1710(3) 0.1947(3) 0.96895(18)
H65 H 0.129631 0.181799 0.988459
C108 C 0.1938(3) 0.1853(3) 0.90704(18)
H66 H 0.167747 0.164784 0.885818
C109 C 0.2879(2) 0.2324(2) 0.90768(18)
H67 H 0.328370 0.245710 0.886763
C110 C 0.2692(2) 0.2432(2) 0.97012(16)
H68 H 0.296275 0.263629 0.990454
C124 C 0.12928(19) 0.41432(19) 0.93558(16)
C125 C 0.1898(2) 0.4336(2) 0.90384(16)
H77 H 0.216473 0.454503 0.924038
C126 C 0.2099(2) 0.4214(2) 0.84196(16)
H78 H 0.250640 0.434174 0.821050
C127 C 0.1150(2) 0.3731(2) 0.84161(17)
H79 H 0.089482 0.352096 0.820330
C128 C 0.0912(2) 0.3835(2) 0.90299(17)
H80 H 0.050273 0.370032 0.922631
C43 C 0.0939(2) 0.5028(2) 0.66703(18)
C44 C 0.0416(2) 0.5728(2) 0.63708(18)
C48 C 0.0102(3) 0.6997(2) 0.61122(18)
H27 H 0.016867 0.742366 0.616836
C49 C 0.0506(3) 0.6365(2) 0.64425(18)
H28 H 0.084798 0.636821 0.671988
C1 C 0.3835(3) 0.0439(2) 0.81499(16)
Cd1 Cd 0.69779(2) 0.36986(2) 0.19962(2)
Cd2 Cd 0.78977(2) 0.16407(2) 0.26731(2)
O1 O 0.74574(17) 0.27925(16) 0.30287(13)
O2 O 0.70841(16) 0.39631(16) 0.29588(11)
O5 O 0.6604(2) 0.49317(16) 0.16171(13)
O6 O 0.6453(2) 0.42073(16) 0.10248(14)
O9 O 0.77706(17) 0.13627(15) 0.16930(12)
O10 O 0.74565(16) 0.25336(15) 0.16735(11)
O15 O 0.8358(2) 0.04220(16) 0.30185(13)
O16 O 0.8348(2) 0.11549(16) 0.36773(13)
N3 N 0.8639(2) 0.3324(2) 0.54977(16)
N4 N 0.8873(2) 0.2744(2) 0.58195(16)
N9 N 0.91005(17) 0.17178(18) 0.23350(14)
N15 N 0.82614(16) 0.36777(17) 0.16830(13)
N21 N 0.67043(18) 0.15539(19) 0.30673(14)
N22 N 0.46472(17) 0.10917(17) 0.45970(13)
N23 N 0.46680(19) 0.04343(19) 0.37597(14)
N24 N 0.38357(19) 0.03996(18) 0.46750(14)
N27 N 0.58108(16) 0.35158(18) 0.23565(14)
N28 N 0.37597(18) 0.30547(18) 0.38866(13)
N29 N 0.37766(17) 0.23763(18) 0.30574(13)
N30 N 0.29331(18) 0.23713(18) 0.39748(13)
N32 N 0.2224(3) 0.0922(3) 0.2590(2)
C10 C 0.5843(3) 0.5357(2) 0.01053(18)
H6 H 0.585364 0.490632 0.002989
C11 C 0.6120(2) 0.54357(19) 0.06462(15)
C12 C 0.6104(2) 0.6107(2) 0.07494(17)
H7 H 0.627843 0.616684 0.111341
C13 C 0.5834(2) 0.6692(2) 0.03209(17)
H8 H 0.583160 0.714117 0.039265
C14 C 0.6411(2) 0.4817(2) 0.11300(18)
C15 C 0.7365(2) 0.3358(2) 0.32501(15)
C16 C 0.7622(2) 0.3339(2) 0.38817(16)
C17 C 0.7961(2) 0.2683(2) 0.42200(18)
H9 H 0.798114 0.225739 0.407618
C18 C 0.8268(3) 0.2663(3) 0.47705(18)
H10 H 0.849683 0.222448 0.499714
C19 C 0.7569(2) 0.3974(2) 0.41037(18)
H11 H 0.732596 0.441541 0.388579
C20 C 0.7885(3) 0.3945(3) 0.4658(2)
H12 H 0.785833 0.436970 0.480706
C21 C 0.8234(3) 0.3299(3) 0.49844(18)
C22 C 0.9385(2) 0.2737(3) 0.62711(18)
C23 C 0.9628(3) 0.2123(3) 0.6666(2)
H13 H 0.939228 0.178243 0.668212
C24 C 0.9690(2) 0.3271(2) 0.62765(18)
H14 H 0.950098 0.370175 0.602901
C39 C 0.6921(2) 0.2731(2) 0.04835(17)
H23 H 0.683238 0.314416 0.068116
C40 C 0.7336(2) 0.2056(2) 0.07586(15)
C41 C 0.7505(3) 0.1449(3) 0.04489(19)
H24 H 0.780889 0.099961 0.062338
C42 C 0.75372(19) 0.1983(2) 0.14172(16)
H31 H 0.881294 0.044484 0.470240
C56 C 0.8440(2) 0.0539(2) 0.35416(19)
C57 C 0.6344(2) 0.1803(2) 0.36031(19)
H33 H 0.649918 0.213002 0.376937
C58 C 0.5755(2) 0.1606(2) 0.39270(18)
H34 H 0.551704 0.179638 0.430113
C59 C 0.5523(2) 0.1120(2) 0.36865(16)
C60 C 0.5894(2) 0.0846(3) 0.31296(17)
H35 H 0.574957 0.051750 0.295462
C61 C 0.6482(3) 0.1073(3) 0.28423(18)
H36 H 0.673823 0.088304 0.247222
C62 C 0.4906(2) 0.0864(2) 0.40290(16)
C63 C 0.4128(2) 0.0216(2) 0.41040(18)
C64 C 0.4114(2) 0.0830(2) 0.49015(16)
C70 C 0.3830(2) 0.1047(2) 0.55390(16)
C71 C 0.3271(2) 0.0816(2) 0.58895(18)
H41 H 0.306683 0.051979 0.572977
C72 C 0.3026(3) 0.1035(2) 0.64826(18)
H42 H 0.265715 0.087372 0.671906
C73 C 0.3826(2) 0.1679(2) 0.63940(17)
H43 H 0.401742 0.197636 0.656653
C74 C 0.4115(2) 0.1485(2) 0.58007(17)
H44 H 0.449518 0.164494 0.558084
C75 C 0.5466(2) 0.3741(2) 0.29060(19)
H45 H 0.563352 0.405168 0.308398
C76 C 0.5553(2) 0.3079(2) 0.21059(17)
H46 H 0.577757 0.292580 0.171677
C77 C 0.4967(2) 0.2841(2) 0.23976(17)
H47 H 0.480904 0.253086 0.221083
C78 C 0.4625(2) 0.3076(2) 0.29702(16)
C79 C 0.4877(2) 0.3541(2) 0.32251(19)
H48 H 0.465052 0.371565 0.360700
C80 C 0.4021(2) 0.2817(2) 0.33237(16)
C81 C 0.3225(2) 0.2181(2) 0.34024(16)
C82 C 0.3228(2) 0.2799(2) 0.41971(16)
C83 C 0.2897(2) 0.1727(2) 0.31258(18)
C84 C 0.3193(3) 0.1459(3) 0.2557(2)
H49 H 0.362361 0.154261 0.234011
C85 C 0.2837(3) 0.1065(3) 0.2315(2)
H50 H 0.304369 0.088781 0.193114
C86 C 0.1957(3) 0.1177(3) 0.3133(3)
H51 H 0.152670 0.108266 0.333848
C87 C 0.2262(3) 0.1575(3) 0.3424(2)
H52 H 0.204519 0.173673 0.381170
C88 C 0.2942(2) 0.3021(2) 0.48358(15)
C89 C 0.2386(2) 0.2795(2) 0.51885(15)
H53 H 0.216951 0.250989 0.502771
C90 C 0.2161(2) 0.3001(2) 0.57803(16)
H54 H 0.178675 0.284469 0.601592
C91 C 0.2982(3) 0.3626(3) 0.56964(18)
H55 H 0.318935 0.391076 0.586957
C92 C 0.3245(3) 0.3448(3) 0.50987(18)
H56 H 0.362062 0.360997 0.487354
C93 C 0.9441(3) 0.1525(3) 0.1780(2)
H57 H 0.923553 0.127509 0.156244
C97 C 0.9411(2) 0.2059(2) 0.26484(17)
H60 H 0.918430 0.218665 0.304368
C111 C 0.8596(2) 0.3489(3) 0.11227(19)
H69 H 0.837891 0.325099 0.090303
C112 C 0.8588(2) 0.4007(2) 0.19990(16)
H70 H 0.835818 0.414454 0.239116
C113 C 0.9246(2) 0.3626(2) 0.08500(18)
H71 H 0.945489 0.349055 0.045330
C114 C 0.9256(2) 0.41540(19) 0.17667(15)
H72 H 0.947860 0.437134 0.200310
C115 C 0.95843(19) 0.39683(19) 0.11735(15)
N1 N 0.54908(18) 0.76958(17) 0.93511(15)
N2 N 0.52340(19) 0.71990(17) 0.93420(14)
N5 N 0.6095(2) 0.2777(2) 0.88124(16)
N6 N 0.6386(2) 0.2173(2) 0.90872(17)
C2 C 0.4296(2) 0.96946(19) 0.84268(15)
C3 C 0.3922(2) 0.9203(2) 0.85934(17)
H1 H 0.340227 0.933014 0.851667
C4 C 0.4315(2) 0.8527(2) 0.88722(18)
H2 H 0.406440 0.819641 0.897609
C5 C 0.5084(2) 0.83476(19) 0.89952(16)
C6 C 0.5456(2) 0.8835(2) 0.8833(2)
H3 H 0.597178 0.871357 0.892101
C7 C 0.5067(2) 0.9502(2) 0.85421(19)
H4 H 0.532609 0.982388 0.842248
C8 C 0.5565(2) 0.66025(19) 0.97829(16)
C9 C 0.5556(3) 0.5937(2) 0.96812(18)
H5 H 0.535522 0.588300 0.932791
C29 C 0.35869(19) 0.3176(2) 0.73956(15)
C30 C 0.4692(2) 0.2345(2) 0.79845(17)
H17 H 0.451407 0.197214 0.795901
C31 C 0.4337(2) 0.3013(2) 0.76827(15)
C32 C 0.4627(2) 0.3562(2) 0.76924(17)
H18 H 0.440695 0.400253 0.746574
C33 C 0.5247(3) 0.3448(3) 0.80426(19)
H19 H 0.543910 0.381506 0.805730
C34 C 0.5576(2) 0.2786(3) 0.83686(17)
C35 C 0.5317(2) 0.2231(3) 0.83271(19)
H20 H 0.556076 0.177918 0.852916
C36 C 0.7222(3) 0.1509(3) 0.9876(2)
H21 H 0.732965 0.109927 0.966798
C37 C 0.6779(2) 0.2178(3) 0.96179(18)
C38 C 0.6639(2) 0.2788(2) 0.99095(17)
H22 H 0.635500 0.323856 0.972439
N7 N 0.9232(2) 0.76097(19) 0.52847(17)
N8 N 0.9331(2) 0.81678(19) 0.53816(15)
N26 N 0.3241(5) 0.8866(4) 0.3312(4)
C45 C 0.9886(3) 0.5744(3) 0.5977(3)
H25 H 0.979517 0.532445 0.593889
C46 C 0.9485(3) 0.6375(3) 0.5637(3)
H26 H 0.913621 0.637589 0.536484
C47 C 0.9603(2) 0.6998(2) 0.57019(19)
C50 C 0.9049(2) 0.8760(2) 0.49247(18)
C51 C 0.8844(3) 0.8685(3) 0.4361(2)
H29 H 0.883639 0.824427 0.427620
C52 C 0.8650(3) 0.9267(3) 0.3921(2)
H30 H 0.851968 0.921256 0.353648
C53 C 0.8647(2) 0.9919(2) 0.40433(17)
C54 C 0.8836(4) 0.9996(3) 0.4610(2)
C55 C 0.9064(4) 0.9408(3) 0.5048(2)
H32 H 0.922585 0.945409 0.542266
C65 C 0.3834(3) 0.9740(3) 0.3826(2)
C66 C 0.4123(3) 0.9496(3) 0.3244(2)
H37 H 0.452097 0.962230 0.301355
C67 C 0.3804(5) 0.9057(4) 0.3014(3)
H38 H 0.400405 0.889011 0.262493
C68 C 0.2978(6) 0.9098(6) 0.3859(4)
H39 H 0.258145 0.895882 0.407636
C69 C 0.3242(4) 0.9531(4) 0.4141(3)
H40 H 0.302812 0.968017 0.453286
N7_2 N 0.0768(2) 0.23903(19) 0.47153(17)
N8_2 N 0.0669(2) 0.18322(19) 0.46184(15)
N26_2 N 0.6759(5) 0.1134(4) 0.6688(4)
C45_2 C 0.0114(3) 0.4256(3) 0.4023(3)
H25_2 H 0.020483 0.467555 0.406111
C46_2 C 0.0515(3) 0.3625(3) 0.4363(3)
H26_2 H 0.086379 0.362411 0.463516
C47_2 C 0.0397(2) 0.3002(2) 0.42981(19)
C50_2 C 0.0951(2) 0.1240(2) 0.50753(18)
C51_2 C 0.1156(3) 0.1315(3) 0.5639(2)
H29_2 H 0.116361 0.175573 0.572380
C52_2 C 0.1350(3) 0.0733(3) 0.6079(2)
H30_2 H 0.148032 0.078744 0.646352
C53_2 C 0.1353(2) 0.0081(2) 0.59567(17)
C54_2 C 0.1164(4) 0.0004(3) 0.5390(2)
C55_2 C 0.0936(4) 0.0592(3) 0.4952(2)
H32_2 H 0.077415 0.054591 0.457734
C65_2 C 0.6166(3) 0.0260(3) 0.6174(2)
C66_2 C 0.5877(3) 0.0504(3) 0.6756(2)
H37_2 H 0.547903 0.037770 0.698645
C67_2 C 0.6196(5) 0.0943(4) 0.6986(3)
H38_2 H 0.599595 0.110989 0.737507
C68_2 C 0.7022(6) 0.0902(6) 0.6141(4)
H39_2 H 0.741855 0.104118 0.592364
C69_2 C 0.6758(4) 0.0469(4) 0.5859(3)
H40_2 H 0.697188 0.031983 0.546714
O11 O 0.67119(15) 0.62194(15) 0.28976(12)
O12 O 0.67509(14) 0.72705(14) 0.25167(12)
N1_2 N 0.45092(18) 0.23042(17) 0.06489(15)
N2_2 N 0.47660(19) 0.28010(17) 0.06580(14)
N5_2 N 0.3905(2) 0.7223(2) 0.11876(16)
N6_2 N 0.3614(2) 0.7827(2) 0.09128(17)
C2_2 C 0.5704(2) 0.03054(19) 0.15732(15)
C3_2 C 0.6078(2) 0.0797(2) 0.14066(17)
H1_2 H 0.659773 0.066986 0.148333
C4_2 C 0.5685(2) 0.1473(2) 0.11278(18)
H2_2 H 0.593560 0.180359 0.102391
C5_2 C 0.4916(2) 0.16524(19) 0.10048(16)
C6_2 C 0.4544(2) 0.1165(2) 0.1167(2)
H3_2 H 0.402822 0.128643 0.107899
C7_2 C 0.4933(2) 0.0498(2) 0.14579(19)
H4_2 H 0.467391 0.017612 0.157752
C8_2 C 0.4435(2) 0.33975(19) 0.02171(16)
C9_2 C 0.4444(3) 0.4063(2) 0.03188(18)
H5_2 H 0.464478 0.411700 0.067209
C29_2 C 0.64131(19) 0.6824(2) 0.26044(15)
C30_2 C 0.5308(2) 0.7655(2) 0.20155(17)
H17_2 H 0.548593 0.802786 0.204099
C31_2 C 0.5663(2) 0.6987(2) 0.23173(15)
C32_2 C 0.5373(2) 0.6438(2) 0.23076(17)
H18_2 H 0.559305 0.599747 0.253426
C33_2 C 0.4753(3) 0.6552(3) 0.19574(19)
H19_2 H 0.456090 0.618494 0.194270
C34_2 C 0.4424(2) 0.7214(3) 0.16314(17)
C35_2 C 0.4683(2) 0.7769(3) 0.16729(19)
H20_2 H 0.443924 0.822082 0.147084
C36_2 C 0.2778(3) 0.8491(3) 0.0124(2)
H21_2 H 0.267035 0.890073 0.033202
C37_2 C 0.3221(2) 0.7822(3) 0.03821(18)
C38_2 C 0.3361(2) 0.7212(2) 0.00905(17)
H22_2 H 0.364500 0.676144 0.027561
Cd5 Cd 0.71728(2) 0.82386(2) 0.22614(2)
Cd9 Cd 0.79510(2) 0.62394(2) 0.29508(2)
Cd1_2 Cd 0.30221(2) 0.63014(2) 0.80038(2)
Cd2_2 Cd 0.21023(2) 0.83593(2) 0.73269(2)
O1_2 O 0.25426(17) 0.72075(16) 0.69713(13)
O2_2 O 0.29159(16) 0.60369(16) 0.70412(11)
O5_2 O 0.3396(2) 0.50683(16) 0.83829(13)
O6_2 O 0.3547(2) 0.57927(16) 0.89752(14)
O9_2 O 0.22294(17) 0.86373(15) 0.83070(12)
O10_2 O 0.25435(16) 0.74664(15) 0.83265(11)
O15_2 O 0.1642(2) 0.95780(16) 0.69815(13)
O16_2 O 0.1652(2) 0.88451(16) 0.63227(13)
N3_2 N 0.1361(2) 0.6676(2) 0.45023(16)
N4_2 N 0.1127(2) 0.7256(2) 0.41805(16)
N9_2 N 0.08995(17) 0.82822(18) 0.76650(14)
N15_2 N 0.17386(16) 0.63223(17) 0.83170(13)
N21_2 N 0.32957(18) 0.84461(19) 0.69327(14)
N22_2 N 0.53528(17) 0.89083(17) 0.54030(13)
N23_2 N 0.53320(19) 0.95657(19) 0.62403(14)
N24_2 N 0.61643(19) 0.96004(18) 0.53250(14)
N25 N 0.67123(18) 0.85377(18) 0.32687(13)
N27_2 N 0.41892(16) 0.64842(18) 0.76435(14)
N28_2 N 0.62403(18) 0.69453(18) 0.61134(13)
N29_2 N 0.62234(17) 0.76237(18) 0.69426(13)
N30_2 N 0.70669(18) 0.76287(18) 0.60252(13)
N31 N 0.75545(19) 0.65882(18) 0.39604(13)
N32_2 N 0.7776(3) 0.9078(3) 0.7410(2)
C10_2 C 0.4157(3) 0.4643(2) 0.98947(18)
H6_2 H 0.414636 0.509368 0.997011
C11_2 C 0.3880(2) 0.45643(19) 0.93538(15)
C12_2 C 0.3896(2) 0.3893(2) 0.92506(17)
H7_2 H 0.372157 0.383316 0.888659
C13_2 C 0.4166(2) 0.3308(2) 0.96791(17)
H8_2 H 0.416840 0.285883 0.960735
C14_2 C 0.3589(2) 0.5183(2) 0.88700(18)
C15_2 C 0.2635(2) 0.6642(2) 0.67499(15)
C16_2 C 0.2378(2) 0.6661(2) 0.61183(16)
C17_2 C 0.2039(2) 0.7317(2) 0.57800(18)
H9_2 H 0.201886 0.774261 0.592382
C18_2 C 0.1732(3) 0.7337(3) 0.52295(18)
H10_2 H 0.150317 0.777552 0.500286
C19_2 C 0.2431(2) 0.6026(2) 0.58963(18)
H11_2 H 0.267404 0.558459 0.611421
C20_2 C 0.2115(3) 0.6055(3) 0.5342(2)
H12_2 H 0.214167 0.563030 0.519294
C21_2 C 0.1766(3) 0.6701(3) 0.50156(18)
C22_2 C 0.0615(2) 0.7263(3) 0.37289(18)
C23_2 C 0.0372(3) 0.7877(3) 0.3334(2)
H13_2 H 0.060772 0.821757 0.331788
C24_2 C 0.0310(2) 0.6729(2) 0.37235(18)
H14_2 H 0.049902 0.629825 0.397099
C39_2 C 0.3079(2) 0.7269(2) 0.95165(17)
H23_2 H 0.316762 0.685584 0.931884
C40_2 C 0.2664(2) 0.7944(2) 0.92414(15)
C41_2 C 0.2495(3) 0.8551(3) 0.95511(19)
H24_2 H 0.219111 0.900039 0.937662
C42_2 C 0.24628(19) 0.8017(2) 0.85828(16)
H31_2 H 0.118706 0.955516 0.529760
C56_2 C 0.1560(2) 0.9461(2) 0.64584(19)
C57_2 C 0.3656(2) 0.8197(2) 0.63969(19)
H33_2 H 0.350082 0.786998 0.623063
C58_2 C 0.4245(2) 0.8394(2) 0.60730(18)
H34_2 H 0.448296 0.820362 0.569887
C59_2 C 0.4477(2) 0.8880(2) 0.63135(16)
C60_2 C 0.4106(2) 0.9154(3) 0.68704(17)
H35_2 H 0.425043 0.948250 0.704538
C61_2 C 0.3518(3) 0.8927(3) 0.71577(18)
H36_2 H 0.326177 0.911696 0.752778
C62_2 C 0.5094(2) 0.9136(2) 0.59710(16)
C63_2 C 0.5872(2) 0.9784(2) 0.58960(18)
C64_2 C 0.5886(2) 0.9170(2) 0.50985(16)
C70_2 C 0.6170(2) 0.8953(2) 0.44610(16)
C71_2 C 0.6729(2) 0.9184(2) 0.41105(18)
H41_2 H 0.693317 0.948021 0.427023
C72_2 C 0.6974(3) 0.8965(2) 0.35174(18)
H42_2 H 0.734285 0.912628 0.328094
C73_2 C 0.6174(2) 0.8321(2) 0.36060(17)
H43_2 H 0.598258 0.802364 0.343347
C74_2 C 0.5885(2) 0.8515(2) 0.41993(17)
H44_2 H 0.550482 0.835506 0.441916
C75_2 C 0.4534(2) 0.6259(2) 0.70940(19)
H45_2 H 0.436648 0.594832 0.691602
C76_2 C 0.4447(2) 0.6921(2) 0.78941(17)
H46_2 H 0.422243 0.707420 0.828323
C77_2 C 0.5033(2) 0.7159(2) 0.76024(17)
H47_2 H 0.519096 0.746914 0.778917
C78_2 C 0.5375(2) 0.6924(2) 0.70298(16)
C79_2 C 0.5123(2) 0.6459(2) 0.67749(19)
H48_2 H 0.534948 0.628435 0.639300
C80_2 C 0.5979(2) 0.7183(2) 0.66763(16)
C81_2 C 0.6775(2) 0.7819(2) 0.65976(16)
C82_2 C 0.6772(2) 0.7201(2) 0.58029(16)
C83_2 C 0.7103(2) 0.8273(2) 0.68742(18)
C84_2 C 0.6807(3) 0.8541(3) 0.7443(2)
H49_2 H 0.637639 0.845739 0.765989
C85_2 C 0.7163(3) 0.8935(3) 0.7685(2)
H50_2 H 0.695631 0.911219 0.806886
C86_2 C 0.8043(3) 0.8823(3) 0.6867(3)
H51_2 H 0.847330 0.891734 0.666152
C87_2 C 0.7738(3) 0.8425(3) 0.6576(2)
H52_2 H 0.795481 0.826327 0.618830
C88_2 C 0.7058(2) 0.6979(2) 0.51642(15)
C89_2 C 0.7614(2) 0.7205(2) 0.48115(15)
H53_2 H 0.783049 0.749011 0.497229
C90_2 C 0.7839(2) 0.6999(2) 0.42197(16)
H54_2 H 0.821325 0.715531 0.398408
C91_2 C 0.7018(3) 0.6374(3) 0.43036(18)
H55_2 H 0.681065 0.608924 0.413043
C92_2 C 0.6755(3) 0.6552(3) 0.49013(18)
H56_2 H 0.637938 0.639003 0.512646
C93_2 C 0.0559(3) 0.8475(3) 0.8220(2)
H57_2 H 0.076447 0.872491 0.843756
C97_2 C 0.0589(2) 0.7941(2) 0.73516(17)
H60_2 H 0.081570 0.781335 0.695632
C111_2 C 0.1404(2) 0.6511(3) 0.88773(19)
H69_2 H 0.162109 0.674901 0.909697
C112_2 C 0.1412(2) 0.5993(2) 0.80010(16)
H70_2 H 0.164182 0.585546 0.760884
C113_2 C 0.0754(2) 0.6374(2) 0.91500(18)
H71_2 H 0.054511 0.650945 0.954670
C114_2 C 0.0744(2) 0.58460(19) 0.82333(15)
H72_2 H 0.052140 0.562866 0.799690
C115_2 C 0.04157(19) 0.60317(19) 0.88265(15)
O7 O 0.58561(18) 0.90927(16) 0.19568(15)
O8 O 0.68554(17) 0.94341(15) 0.19573(14)
C1_2 C 0.6165(3) 0.9561(2) 0.18501(16)
O13 O 0.9232(2) 0.55116(18) 0.3287(2)
O14 O 0.84501(19) 0.49888(16) 0.31491(15)
C43_2 C 0.9061(2) 0.4972(2) 0.33297(18)
C44_2 C 0.9584(2) 0.4272(2) 0.36292(18)
C48_2 C 0.9898(3) 0.3003(2) 0.38878(18)
H27_2 H 0.983133 0.257634 0.383164
C49_2 C 0.9494(3) 0.3635(2) 0.35575(18)
H28_2 H 0.915202 0.363179 0.328012
N13 N 0.74889(18) 0.79609(17) 0.12396(12)
N20 N 0.82694(17) 0.60820(17) 0.18919(13)
C107_2 C 0.8290(3) 0.8053(3) 0.03105(18)
H65_2 H 0.870369 0.818201 0.011541
C108_2 C 0.8062(3) 0.8147(3) 0.09296(18)
H66_2 H 0.832253 0.835216 0.114182
C109_2 C 0.7121(2) 0.7676(2) 0.09232(18)
H67_2 H 0.671630 0.754290 0.113237
C110_2 C 0.7308(2) 0.7568(2) 0.02988(16)
H68_2 H 0.703725 0.736371 0.009546
C124_2 C 0.87072(19) 0.58568(19) 0.06442(16)
C125_2 C 0.8102(2) 0.5664(2) 0.09616(16)
H77_2 H 0.783527 0.545497 0.075962
C126_2 C 0.7901(2) 0.5786(2) 0.15804(16)
H78_2 H 0.749360 0.565826 0.178950
C127_2 C 0.8850(2) 0.6269(2) 0.15839(17)
H79_2 H 0.910518 0.647904 0.179670
C128_2 C 0.9088(2) 0.6165(2) 0.09701(17)
H80_2 H 0.949727 0.629968 0.077369
O3_2 O 0.84299(16) 0.82601(15) 0.23608(13)
O4_2 O 0.83460(15) 0.72312(15) 0.27314(12)
N10_2 N 0.87053(17) 0.78896(18) 0.90555(13)
N11_2 N 0.86980(17) 0.73509(18) 0.81504(13)
N12_2 N 0.78471(17) 0.72575(18) 0.90425(13)
N14_2 N 0.7244(2) 0.5921(2) 0.7484(2)
N16_2 N 0.95221(16) 0.59629(16) 0.97175(13)
N17_2 N 0.94773(17) 0.54502(17) 0.88097(13)
N18_2 N 0.86454(17) 0.53510(17) 0.97115(13)
N19_2 N 0.8014(4) 0.3987(3) 0.8198(3)
C25_2 C 0.9781(3) 0.7993(3) 0.2961(2)
H15_2 H 0.961698 0.841309 0.269720
C26_2 C 0.9719(2) 0.6842(2) 0.33443(17)
H16_2 H 0.951174 0.648436 0.333621
C27_2 C 0.9434(2) 0.7488(2) 0.29764(14)
C28_2 C 0.86956(19) 0.76720(19) 0.26604(14)
C94_2 C 0.9917(3) 0.8324(3) 0.84915(19)
H58_2 H 0.969732 0.846760 0.888401
C95_2 C 0.9604(2) 0.7959(2) 0.81777(16)
C96_2 C 0.9941(2) 0.7767(2) 0.75910(16)
H59_2 H 0.973771 0.752611 0.736169
C98_2 C 0.89561(19) 0.7726(2) 0.84715(15)
C99_2 C 0.8159(2) 0.7631(2) 0.93225(15)
C100_2 C 0.81385(19) 0.7135(2) 0.84552(16)
C101_2 C 0.7826(2) 0.6713(2) 0.81185(17)
C102_2 C 0.7200(2) 0.6521(2) 0.8381(2)
H61_2 H 0.696196 0.665075 0.877349
C103_2 C 0.6939(3) 0.6128(3) 0.8040(2)
H62_2 H 0.651742 0.600065 0.821753
C104_2 C 0.7851(3) 0.6105(3) 0.7246(2)
H63_2 H 0.808375 0.595663 0.685731
C105_2 C 0.8159(2) 0.6501(2) 0.75351(19)
H64_2 H 0.857882 0.662258 0.734366
C106_2 C 0.7903(2) 0.7768(2) 0.99842(15)
C116_2 C 0.97594(19) 0.58069(19) 0.91273(15)
C117_2 C 0.89668(19) 0.57180(19) 0.99861(16)
C118_2 C 0.8923(2) 0.5226(2) 0.91252(16)
C119_2 C 0.8605(2) 0.4796(2) 0.8800(2)
C120_2 C 0.7993(3) 0.4592(3) 0.9084(3)
H73_2 H 0.777389 0.471552 0.948172
C121_2 C 0.7721(4) 0.4198(4) 0.8754(3)
H74_2 H 0.730083 0.407316 0.893970
C122_2 C 0.8601(4) 0.4183(4) 0.7943(3)
H75_2 H 0.881758 0.403768 0.755004
C123_2 C 0.8913(3) 0.4584(3) 0.8213(2)
H76_2 H 0.932306 0.471001 0.800687
loop_
_geom_bond_atom_site_label_1
_geom_bond_atom_site_label_2
_geom_bond_site_symmetry_1
_geom_bond_site_symmetry_2
Cd3 O3 1_555 1_555
Cd4 O4 1_555 1_555
O3 C28 1_555 1_555
O4 Cd3 1_555 1_555
N10 C98 1_555 1_555
N11 C98 1_555 1_555
N12 C99 1_555 1_555
N14 C103 1_555 1_555
N16 C116 1_555 1_555
N17 C116 1_555 1_555
N18 C117 1_555 1_555
N19 C121 1_555 1_555
H15 C25 1_555 1_555
H16 C26 1_555 1_555
C27 C25 1_555 1_555
C28 O4 1_555 1_555
H58 C94 1_555 1_555
C95 C94 1_555 1_555
C96 C95 1_555 1_555
H59 C96 1_555 1_555
C98 C95 1_555 1_555
C99 N10 1_555 1_555
C100 N11 1_555 1_555
C101 C100 1_555 1_555
C102 C101 1_555 1_555
H61 C102 1_555 1_555
C103 C102 1_555 1_555
H62 C103 1_555 1_555
C104 N14 1_555 1_555
H63 C104 1_555 1_555
C105 C101 1_555 1_555
H64 C105 1_555 1_555
C106 C99 1_555 1_555
C117 N16 1_555 1_555
C118 N17 1_555 1_555
C119 C118 1_555 1_555
C120 C119 1_555 1_555
H73 C120 1_555 1_555
C121 C120 1_555 1_555
H74 C121 1_555 1_555
C122 N19 1_555 1_555
H75 C122 1_555 1_555
C123 C119 1_555 1_555
H76 C123 1_555 1_555
O17 Cd3 1_555 1_555
O18 Cd3 1_555 1_555
O19 Cd4 1_555 1_555
O20 Cd3 1_555 1_555
O21 Cd4 1_555 1_555
O22 Cd4 1_555 1_555
N33 Cd3 1_555 1_555
N34 Cd4 1_555 1_555
N35 Cd3 1_555 1_555
N36 Cd4 1_555 1_555
Cd4 O20 1_555 1_555
N12 C100 1_555 1_555
N18 C118 1_555 1_555
C26 C27 1_555 1_555
C27 C28 1_555 1_555
C104 C105 1_555 1_555
C122 C123 1_555 1_555
N33 C108 1_555 1_555
N34 C126 1_555 1_555
H65 C107 1_555 1_555
C108 C107 1_555 1_555
H66 C108 1_555 1_555
C109 N33 1_555 1_555
H67 C109 1_555 1_555
H68 C110 1_555 1_555
C125 C124 1_555 1_555
H77 C125 1_555 1_555
C126 C125 1_555 1_555
H78 C126 1_555 1_555
C127 N34 1_555 1_555
H79 C127 1_555 1_555
C128 C124 1_555 1_555
H80 C128 1_555 1_555
C109 C110 1_555 1_555
C127 C128 1_555 1_555
O21 C43 1_555 1_555
O22 C43 1_555 1_555
C43 C44 1_555 1_555
H27 C48 1_555 1_555
C49 C44 1_555 1_555
H28 C49 1_555 1_555
C48 C49 1_555 1_555
O17 C1 1_555 1_555
O18 C1 1_555 1_555
Cd1 O1 1_555 1_555
Cd2 O1 1_555 1_555
O1 C15 1_555 1_555
O2 Cd1 1_555 1_555
O5 Cd1 1_555 1_555
O6 Cd1 1_555 1_555
O9 Cd2 1_555 1_555
O10 Cd1 1_555 1_555
O15 Cd2 1_555 1_555
O16 Cd2 1_555 1_555
N3 N4 1_555 1_555
N4 C22 1_555 1_555
N9 Cd2 1_555 1_555
N15 Cd1 1_555 1_555
N21 Cd2 1_555 1_555
N22 C62 1_555 1_555
N23 C62 1_555 1_555
N24 C63 1_555 1_555
N35 C72 1_555 1_555
N27 Cd1 1_555 1_555
N28 C80 1_555 1_555
N29 C80 1_555 1_555
N30 C81 1_555 1_555
N36 C90 1_555 1_555
N32 C85 1_555 1_555
H6 C10 1_555 1_555
C11 C10 1_555 1_555
C12 C11 1_555 1_555
H7 C12 1_555 1_555
H8 C13 1_555 1_555
C14 O5 1_555 1_555
C15 O2 1_555 1_555
C16 C15 1_555 1_555
C17 C16 1_555 1_555
H9 C17 1_555 1_555
C18 C17 1_555 1_555
H10 C18 1_555 1_555
C19 C16 1_555 1_555
H11 C19 1_555 1_555
C20 C19 1_555 1_555
H12 C20 1_555 1_555
C21 N3 1_555 1_555
C22 C23 1_555 1_555
C23 H13 1_555 1_555
C24 C22 1_555 1_555
H14 C24 1_555 1_555
H23 C39 1_555 1_555
C40 C39 1_555 1_555
H24 C41 1_555 1_555
C42 O9 1_555 1_555
C56 O15 1_555 1_555
C57 N21 1_555 1_555
H33 C57 1_555 1_555
C58 C57 1_555 1_555
H34 C58 1_555 1_555
C59 C58 1_555 1_555
C60 C59 1_555 1_555
H35 C60 1_555 1_555
C61 N21 1_555 1_555
H36 C61 1_555 1_555
C62 C59 1_555 1_555
C63 N23 1_555 1_555
C64 N22 1_555 1_555
C70 C64 1_555 1_555
C71 C70 1_555 1_555
H41 C71 1_555 1_555
C72 C71 1_555 1_555
H42 C72 1_555 1_555
C73 N35 1_555 1_555
H43 C73 1_555 1_555
C74 C70 1_555 1_555
H44 C74 1_555 1_555
C75 N27 1_555 1_555
H45 C75 1_555 1_555
C76 N27 1_555 1_555
H46 C76 1_555 1_555
C77 C76 1_555 1_555
H47 C77 1_555 1_555
C78 C77 1_555 1_555
C79 C75 1_555 1_555
H48 C79 1_555 1_555
C80 C78 1_555 1_555
C81 N29 1_555 1_555
C82 N28 1_555 1_555
C83 C81 1_555 1_555
C84 C83 1_555 1_555
H49 C84 1_555 1_555
C85 C84 1_555 1_555
H50 C85 1_555 1_555
C86 N32 1_555 1_555
H51 C86 1_555 1_555
C87 C83 1_555 1_555
H52 C87 1_555 1_555
C88 C82 1_555 1_555
C89 C88 1_555 1_555
H53 C89 1_555 1_555
C90 C89 1_555 1_555
H54 C90 1_555 1_555
C91 N36 1_555 1_555
H55 C91 1_555 1_555
C92 C88 1_555 1_555
H56 C92 1_555 1_555
C93 N9 1_555 1_555
H57 C93 1_555 1_555
C97 N9 1_555 1_555
H60 C97 1_555 1_555
C111 N15 1_555 1_555
H69 C111 1_555 1_555
C112 N15 1_555 1_555
H70 C112 1_555 1_555
C113 C111 1_555 1_555
H71 C113 1_555 1_555
C114 C112 1_555 1_555
H72 C114 1_555 1_555
C115 C113 1_555 1_555
Cd2 O10 1_555 1_555
O6 C14 1_555 1_555
O10 C42 1_555 1_555
O16 C56 1_555 1_555
N24 C64 1_555 1_555
N30 C82 1_555 1_555
C11 C14 1_555 1_555
C12 C13 1_555 1_555
C18 C21 1_555 1_555
C20 C21 1_555 1_555
C40 C41 1_555 1_555
C40 C42 1_555 1_555
C60 C61 1_555 1_555
C73 C74 1_555 1_555
C78 C79 1_555 1_555
C86 C87 1_555 1_555
C91 C92 1_555 1_555
C114 C115 1_555 1_555
O19 C29 1_555 1_555
O20 C29 1_555 1_555
N1 N2 1_555 1_555
N2 C8 1_555 1_555
N5 N6 1_555 1_555
N6 C37 1_555 1_555
C2 C3 1_555 1_555
C3 H1 1_555 1_555
C4 C3 1_555 1_555
H2 C4 1_555 1_555
C5 N1 1_555 1_555
C6 C5 1_555 1_555
H3 C6 1_555 1_555
C7 C2 1_555 1_555
H4 C7 1_555 1_555
C8 C9 1_555 1_555
C9 H5 1_555 1_555
C29 C31 1_555 1_555
C30 H17 1_555 1_555
C31 C30 1_555 1_555
C32 C31 1_555 1_555
H18 C32 1_555 1_555
C33 C32 1_555 1_555
H19 C33 1_555 1_555
C34 N5 1_555 1_555
C35 C30 1_555 1_555
H20 C35 1_555 1_555
C36 H21 1_555 1_555
C37 C36 1_555 1_555
C38 C37 1_555 1_555
H22 C38 1_555 1_555
C4 C5 1_555 1_555
C6 C7 1_555 1_555
C33 C34 1_555 1_555
C34 C35 1_555 1_555
N7 N8 1_555 1_555
N8 C50 1_555 1_555
N26 C67 1_555 1_555
C45 H25 1_555 1_555
C46 C45 1_555 1_555
H26 C46 1_555 1_555
C47 N7 1_555 1_555
C50 C51 1_555 1_555
C51 H29 1_555 1_555
C52 C51 1_555 1_555
H30 C52 1_555 1_555
C53 C52 1_555 1_555
C54 C53 1_555 1_555
C55 C50 1_555 1_555
H32 C55 1_555 1_555
C66 C65 1_555 1_555
H37 C66 1_555 1_555
C67 C66 1_555 1_555
H38 C67 1_555 1_555
C68 N26 1_555 1_555
H39 C68 1_555 1_555
C69 C65 1_555 1_555
H40 C69 1_555 1_555
C46 C47 1_555 1_555
C54 C55 1_555 1_555
C68 C69 1_555 1_555
N7_2 N8_2 1_555 1_555
N8_2 C50_2 1_555 1_555
N26_2 C67_2 1_555 1_555
C45_2 H25_2 1_555 1_555
C46_2 C45_2 1_555 1_555
H26_2 C46_2 1_555 1_555
C47_2 N7_2 1_555 1_555
C50_2 C51_2 1_555 1_555
C51_2 H29_2 1_555 1_555
C52_2 C51_2 1_555 1_555
H30_2 C52_2 1_555 1_555
C53_2 C52_2 1_555 1_555
C54_2 C53_2 1_555 1_555
C55_2 C50_2 1_555 1_555
H32_2 C55_2 1_555 1_555
C66_2 C65_2 1_555 1_555
H37_2 C66_2 1_555 1_555
C67_2 C66_2 1_555 1_555
H38_2 C67_2 1_555 1_555
C68_2 N26_2 1_555 1_555
H39_2 C68_2 1_555 1_555
C69_2 C65_2 1_555 1_555
H40_2 C69_2 1_555 1_555
C46_2 C47_2 1_555 1_555
C54_2 C55_2 1_555 1_555
C68_2 C69_2 1_555 1_555
O11 C29_2 1_555 1_555
O12 C29_2 1_555 1_555
N1_2 N2_2 1_555 1_555
N2_2 C8_2 1_555 1_555
N5_2 N6_2 1_555 1_555
N6_2 C37_2 1_555 1_555
C2_2 C3_2 1_555 1_555
C3_2 H1_2 1_555 1_555
C4_2 C3_2 1_555 1_555
H2_2 C4_2 1_555 1_555
C5_2 N1_2 1_555 1_555
C6_2 C5_2 1_555 1_555
H3_2 C6_2 1_555 1_555
C7_2 C2_2 1_555 1_555
H4_2 C7_2 1_555 1_555
C8_2 C9_2 1_555 1_555
C9_2 H5_2 1_555 1_555
C29_2 C31_2 1_555 1_555
C30_2 H17_2 1_555 1_555
C31_2 C30_2 1_555 1_555
C32_2 C31_2 1_555 1_555
H18_2 C32_2 1_555 1_555
C33_2 C32_2 1_555 1_555
H19_2 C33_2 1_555 1_555
C34_2 N5_2 1_555 1_555
C35_2 C30_2 1_555 1_555
H20_2 C35_2 1_555 1_555
C36_2 H21_2 1_555 1_555
C37_2 C36_2 1_555 1_555
C38_2 C37_2 1_555 1_555
H22_2 C38_2 1_555 1_555
Cd5 O12 1_555 1_555
Cd9 O11 1_555 1_555
O12 Cd9 1_555 1_555
C4_2 C5_2 1_555 1_555
C6_2 C7_2 1_555 1_555
C33_2 C34_2 1_555 1_555
C34_2 C35_2 1_555 1_555
Cd1_2 O1_2 1_555 1_555
Cd2_2 O1_2 1_555 1_555
O1_2 C15_2 1_555 1_555
O2_2 Cd1_2 1_555 1_555
O5_2 Cd1_2 1_555 1_555
O6_2 Cd1_2 1_555 1_555
O9_2 Cd2_2 1_555 1_555
O10_2 Cd1_2 1_555 1_555
O15_2 Cd2_2 1_555 1_555
O16_2 Cd2_2 1_555 1_555
N3_2 N4_2 1_555 1_555
N4_2 C22_2 1_555 1_555
N9_2 Cd2_2 1_555 1_555
N15_2 Cd1_2 1_555 1_555
N21_2 Cd2_2 1_555 1_555
N22_2 C62_2 1_555 1_555
N23_2 C62_2 1_555 1_555
N24_2 C63_2 1_555 1_555
N25 C72_2 1_555 1_555
N27_2 Cd1_2 1_555 1_555
N28_2 C80_2 1_555 1_555
N29_2 C80_2 1_555 1_555
N30_2 C81_2 1_555 1_555
N31 C90_2 1_555 1_555
N32_2 C85_2 1_555 1_555
H6_2 C10_2 1_555 1_555
C11_2 C10_2 1_555 1_555
C12_2 C11_2 1_555 1_555
H7_2 C12_2 1_555 1_555
H8_2 C13_2 1_555 1_555
C14_2 O5_2 1_555 1_555
C15_2 O2_2 1_555 1_555
C16_2 C15_2 1_555 1_555
C17_2 C16_2 1_555 1_555
H9_2 C17_2 1_555 1_555
C18_2 C17_2 1_555 1_555
H10_2 C18_2 1_555 1_555
C19_2 C16_2 1_555 1_555
H11_2 C19_2 1_555 1_555
C20_2 C19_2 1_555 1_555
H12_2 C20_2 1_555 1_555
C21_2 N3_2 1_555 1_555
C22_2 C23_2 1_555 1_555
C23_2 H13_2 1_555 1_555
C24_2 C22_2 1_555 1_555
H14_2 C24_2 1_555 1_555
H23_2 C39_2 1_555 1_555
C40_2 C39_2 1_555 1_555
H24_2 C41_2 1_555 1_555
C42_2 O9_2 1_555 1_555
C56_2 O15_2 1_555 1_555
C57_2 N21_2 1_555 1_555
H33_2 C57_2 1_555 1_555
C58_2 C57_2 1_555 1_555
H34_2 C58_2 1_555 1_555
C59_2 C58_2 1_555 1_555
C60_2 C59_2 1_555 1_555
H35_2 C60_2 1_555 1_555
C61_2 N21_2 1_555 1_555
H36_2 C61_2 1_555 1_555
C62_2 C59_2 1_555 1_555
C63_2 N23_2 1_555 1_555
C64_2 N22_2 1_555 1_555
C70_2 C64_2 1_555 1_555
C71_2 C70_2 1_555 1_555
H41_2 C71_2 1_555 1_555
C72_2 C71_2 1_555 1_555
H42_2 C72_2 1_555 1_555
C73_2 N25 1_555 1_555
H43_2 C73_2 1_555 1_555
C74_2 C70_2 1_555 1_555
H44_2 C74_2 1_555 1_555
C75_2 N27_2 1_555 1_555
H45_2 C75_2 1_555 1_555
C76_2 N27_2 1_555 1_555
H46_2 C76_2 1_555 1_555
C77_2 C76_2 1_555 1_555
H47_2 C77_2 1_555 1_555
C78_2 C77_2 1_555 1_555
C79_2 C75_2 1_555 1_555
H48_2 C79_2 1_555 1_555
C80_2 C78_2 1_555 1_555
C81_2 N29_2 1_555 1_555
C82_2 N28_2 1_555 1_555
C83_2 C81_2 1_555 1_555
C84_2 C83_2 1_555 1_555
H49_2 C84_2 1_555 1_555
C85_2 C84_2 1_555 1_555
H50_2 C85_2 1_555 1_555
C86_2 N32_2 1_555 1_555
H51_2 C86_2 1_555 1_555
C87_2 C83_2 1_555 1_555
H52_2 C87_2 1_555 1_555
C88_2 C82_2 1_555 1_555
C89_2 C88_2 1_555 1_555
H53_2 C89_2 1_555 1_555
C90_2 C89_2 1_555 1_555
H54_2 C90_2 1_555 1_555
C91_2 N31 1_555 1_555
H55_2 C91_2 1_555 1_555
C92_2 C88_2 1_555 1_555
H56_2 C92_2 1_555 1_555
C93_2 N9_2 1_555 1_555
H57_2 C93_2 1_555 1_555
C97_2 N9_2 1_555 1_555
H60_2 C97_2 1_555 1_555
C111_2 N15_2 1_555 1_555
H69_2 C111_2 1_555 1_555
C112_2 N15_2 1_555 1_555
H70_2 C112_2 1_555 1_555
C113_2 C111_2 1_555 1_555
H71_2 C113_2 1_555 1_555
C114_2 C112_2 1_555 1_555
H72_2 C114_2 1_555 1_555
C115_2 C113_2 1_555 1_555
Cd5 N25 1_555 1_555
Cd9 N31 1_555 1_555
Cd2_2 O10_2 1_555 1_555
O6_2 C14_2 1_555 1_555
O10_2 C42_2 1_555 1_555
O16_2 C56_2 1_555 1_555
N24_2 C64_2 1_555 1_555
N30_2 C82_2 1_555 1_555
C11_2 C14_2 1_555 1_555
C12_2 C13_2 1_555 1_555
C18_2 C21_2 1_555 1_555
C20_2 C21_2 1_555 1_555
C40_2 C41_2 1_555 1_555
C40_2 C42_2 1_555 1_555
C60_2 C61_2 1_555 1_555
C73_2 C74_2 1_555 1_555
C78_2 C79_2 1_555 1_555
C86_2 C87_2 1_555 1_555
C91_2 C92_2 1_555 1_555
C114_2 C115_2 1_555 1_555
O7 C1_2 1_555 1_555
O8 C1_2 1_555 1_555
Cd5 O7 1_555 1_555
O8 Cd5 1_555 1_555
O13 C43_2 1_555 1_555
O14 C43_2 1_555 1_555
C43_2 C44_2 1_555 1_555
H27_2 C48_2 1_555 1_555
C49_2 C44_2 1_555 1_555
H28_2 C49_2 1_555 1_555
Cd9 O13 1_555 1_555
O14 Cd9 1_555 1_555
C48_2 C49_2 1_555 1_555
N13 C108_2 1_555 1_555
N20 C126_2 1_555 1_555
H65_2 C107_2 1_555 1_555
C108_2 C107_2 1_555 1_555
H66_2 C108_2 1_555 1_555
C109_2 N13 1_555 1_555
H67_2 C109_2 1_555 1_555
H68_2 C110_2 1_555 1_555
C125_2 C124_2 1_555 1_555
H77_2 C125_2 1_555 1_555
C126_2 C125_2 1_555 1_555
H78_2 C126_2 1_555 1_555
C127_2 N20 1_555 1_555
H79_2 C127_2 1_555 1_555
C128_2 C124_2 1_555 1_555
H80_2 C128_2 1_555 1_555
Cd5 N13 1_555 1_555
Cd9 N20 1_555 1_555
C109_2 C110_2 1_555 1_555
C127_2 C128_2 1_555 1_555
Cd5 O3_2 1_555 1_555
Cd9 O4_2 1_555 1_555
O3_2 C28_2 1_555 1_555
O4_2 Cd5 1_555 1_555
N10_2 C98_2 1_555 1_555
N11_2 C98_2 1_555 1_555
N12_2 C99_2 1_555 1_555
N14_2 C103_2 1_555 1_555
N16_2 C116_2 1_555 1_555
N17_2 C116_2 1_555 1_555
N18_2 C117_2 1_555 1_555
N19_2 C121_2 1_555 1_555
H15_2 C25_2 1_555 1_555
H16_2 C26_2 1_555 1_555
C27_2 C25_2 1_555 1_555
C28_2 O4_2 1_555 1_555
H58_2 C94_2 1_555 1_555
C95_2 C94_2 1_555 1_555
C96_2 C95_2 1_555 1_555
H59_2 C96_2 1_555 1_555
C98_2 C95_2 1_555 1_555
C99_2 N10_2 1_555 1_555
C100_2 N11_2 1_555 1_555
C101_2 C100_2 1_555 1_555
C102_2 C101_2 1_555 1_555
H61_2 C102_2 1_555 1_555
C103_2 C102_2 1_555 1_555
H62_2 C103_2 1_555 1_555
C104_2 N14_2 1_555 1_555
H63_2 C104_2 1_555 1_555
C105_2 C101_2 1_555 1_555
H64_2 C105_2 1_555 1_555
C106_2 C99_2 1_555 1_555
C117_2 N16_2 1_555 1_555
C118_2 N17_2 1_555 1_555
C119_2 C118_2 1_555 1_555
C120_2 C119_2 1_555 1_555
H73_2 C120_2 1_555 1_555
C121_2 C120_2 1_555 1_555
H74_2 C121_2 1_555 1_555
C122_2 N19_2 1_555 1_555
H75_2 C122_2 1_555 1_555
C123_2 C119_2 1_555 1_555
H76_2 C123_2 1_555 1_555
N12_2 C100_2 1_555 1_555
N18_2 C118_2 1_555 1_555
C26_2 C27_2 1_555 1_555
C27_2 C28_2 1_555 1_555
C104_2 C105_2 1_555 1_555
C122_2 C123_2 1_555 1_555

#END
