
###############################################################################
#
# This file contains modified crystal structure data generated from the
# MOF subset of the Cambridge Structural Database (CSD) v543 
# hosted by the Cambridge Crystallographic Data Centre (CCDC).
#
# This work is licensed under the Creative Commons
# Attribution-NonCommercial-ShareAlike 4.0 International License.
# To view a copy of this license, visit
# http://creativecommons.org/licenses/by-nc-sa/4.0/
# or send a letter to
# Creative Commons, PO Box 1866, Mountain View, CA 94042, USA.
#
# CIF created using the CSD Python API on 29 September 2022
# The structure has been converted into the P1 space group
# The structure has a 3D framework
# The original CSD entry KOJCUI is in the orthorhombic crystal system
# The framework has been calculated to contain at least 10.0% void space
# The void calculation uses a probe of radius 1.32A, grid spacing 0.4
#
###############################################################################

data_KOJCUI
_chemical_formula_moiety         '(C112 H56 Mn8 N24 O64)n'
_symmetry_cell_setting           triclinic
_symmetry_space_group_name_H-M   'P 1'
_symmetry_Int_Tables_number      1
_space_group_name_Hall           'P 1'
loop_
_symmetry_equiv_pos_site_id
_symmetry_equiv_pos_as_xyz
1 x,y,z
_cell_length_a                   18.3259(15)
_cell_length_b                   25.300(2)
_cell_length_c                   7.5240(7)
_cell_angle_alpha                90
_cell_angle_beta                 90
_cell_angle_gamma                90
_cell_volume                     3488.47
loop_
_atom_site_label
_atom_site_type_symbol
_atom_site_fract_x
_atom_site_fract_y
_atom_site_fract_z
O13 O 0.0010(2) 0.56133(12) 0.2988(5)
Mn4 Mn 0.59927(3) 0.01713(2) 0.26448(13)
Mn1 Mn 0.90073(3) 0.51713(2) 0.26448(13)
C1 C 0.7510(3) 0.6110(2) 0.5834(8)
C2 C 0.7102(3) 0.6095(2) 0.7385(9)
H1 H 0.7226 0.5851 0.8297
C3 C 0.6516(3) 0.6434(2) 0.7613(10)
C4 C 0.6307(3) 0.6813(2) 0.6325(8)
C5 C 0.6761(3) 0.6815(2) 0.4800(9)
C6 C 0.7337(3) 0.6477(2) 0.4552(9)
H2 H 0.7618 0.6496 0.3493
C7 C 0.8109(3) 0.5707(2) 0.5538(8)
C8 C 0.5531(3) 0.87209(18) 0.4792(7)
C9 C 0.6204(3) 0.8532(2) 0.5368(8)
H3 H 0.6614 0.8762 0.5394
C10 C 0.6282(3) 0.8011(2) 0.5903(9)
H4 H 0.6746 0.7884 0.6272
C11 C 0.5679(3) 0.76694(19) 0.5902(8)
C12 C 0.5002(4) 0.78583(16) 0.5315(9)
H5 H 0.4590 0.7630 0.5307
C13 C 0.4932(3) 0.83731(18) 0.4748(7)
H6 H 0.4474 0.8495 0.4322
C14 C 0.5448(3) 0.92669(18) 0.4215(7)
H7 H 0.536(3) 0.711(3) 0.733(9)
N1 N 0.6099(4) 0.6377(2) 0.9267(9)
N2 N 0.6559(4) 0.7134(2) 0.3232(8)
N3 N 0.5734(3) 0.71540(18) 0.6558(7)
O2 O 0.5469(4) 0.6510(2) 0.9302(9)
O3 O 0.5925(3) 0.7141(2) 0.2788(9)
O4 O 0.7051(4) 0.7363(3) 0.2461(11)
O5 O 0.8383(2) 0.57100(16) 0.4010(7)
O6 O 0.8269(3) 0.5406(2) 0.6785(6)
O7 O 0.5856(2) 0.96240(14) 0.4904(5)
O8 O 0.5010(2) 0.93867(12) 0.2988(5)
Mn2 Mn 0.90073(3) 0.48287(2) 0.76448(13)
Mn3 Mn 0.59927(3) 0.98287(2) 0.76448(13)
Mn5 Mn 0.40073(3) 0.98287(2) 0.26448(13)
O9 O 0.8269(3) 0.4594(2) 0.1785(6)
O11 O 0.9144(2) 0.46240(14) 0.4904(5)
O12 O 0.9990(2) 0.43867(12) 0.2988(5)
O10 O 0.9144(2) 0.53760(14) 0.9904(5)
Mn1_2 Mn 0.09927(3) 0.48287(2) 0.26448(13)
C1_2 C 0.2490(3) 0.3890(2) 0.5834(8)
C2_2 C 0.2898(3) 0.3905(2) 0.7385(9)
H1_2 H 0.2774 0.4149 0.8297
C3_2 C 0.3484(3) 0.3566(2) 0.7613(10)
C4_2 C 0.3693(3) 0.3187(2) 0.6325(8)
C5_2 C 0.3239(3) 0.3185(2) 0.4800(9)
C6_2 C 0.2663(3) 0.3523(2) 0.4552(9)
H2_2 H 0.2382 0.3504 0.3493
C7_2 C 0.1891(3) 0.4293(2) 0.5538(8)
C8_2 C 0.4469(3) 0.12791(18) 0.4792(7)
C9_2 C 0.3796(3) 0.1468(2) 0.5368(8)
H3_2 H 0.3386 0.1238 0.5394
C10_2 C 0.3718(3) 0.1989(2) 0.5903(9)
H4_2 H 0.3254 0.2116 0.6272
C11_2 C 0.4321(3) 0.23306(19) 0.5902(8)
C12_2 C 0.4998(4) 0.21417(16) 0.5315(9)
H5_2 H 0.5410 0.2370 0.5307
C13_2 C 0.5068(3) 0.16269(18) 0.4748(7)
H6_2 H 0.5526 0.1505 0.4322
C14_2 C 0.4552(3) 0.07331(18) 0.4215(7)
H7_2 H 0.464(3) 0.289(3) 0.733(9)
N1_2 N 0.3901(4) 0.3623(2) 0.9267(9)
N2_2 N 0.3441(4) 0.2866(2) 0.3232(8)
N3_2 N 0.4266(3) 0.28460(18) 0.6558(7)
O2_2 O 0.4531(4) 0.3490(2) 0.9302(9)
O3_2 O 0.4075(3) 0.2859(2) 0.2788(9)
O4_2 O 0.2949(4) 0.2637(3) 0.2461(11)
O5_2 O 0.1617(2) 0.42900(16) 0.4010(7)
O6_2 O 0.1731(3) 0.4594(2) 0.6785(6)
O7_2 O 0.4144(2) 0.03760(14) 0.4904(5)
O8_2 O 0.4990(2) 0.06133(12) 0.2988(5)
Mn2_2 Mn 0.09927(3) 0.51713(2) 0.76448(13)
Mn3_2 Mn 0.40073(3) 0.01713(2) 0.76448(13)
O9_2 O 0.1731(3) 0.5406(2) 0.1785(6)
O11_2 O 0.0856(2) 0.53760(14) 0.4904(5)
O10_2 O 0.0856(2) 0.46240(14) 0.9904(5)
C1_3 C 0.2490(3) 0.6110(2) 0.0834(8)
C2_3 C 0.2898(3) 0.6095(2) 0.2385(9)
H1_3 H 0.2774 0.5851 0.3297
C3_3 C 0.3484(3) 0.6434(2) 0.2613(10)
C4_3 C 0.3693(3) 0.6813(2) 0.1325(8)
C7_3 C 0.1891(3) 0.5707(2) 0.0538(8)
C9_3 C 0.3796(3) 0.8532(2) 0.0368(8)
H3_3 H 0.3386 0.8762 0.0394
C10_3 C 0.3718(3) 0.8011(2) 0.0903(9)
H4_3 H 0.3254 0.7884 0.1272
C11_3 C 0.4321(3) 0.76694(19) 0.0902(8)
C12_3 C 0.4998(4) 0.78583(16) 0.0315(9)
H5_3 H 0.5410 0.7630 0.0307
H7_3 H 0.464(3) 0.711(3) 0.233(9)
N1_3 N 0.3901(4) 0.6377(2) 0.4267(9)
N3_3 N 0.4266(3) 0.71540(18) 0.1558(7)
O1 O 0.3561(5) 0.6205(3) 0.5557(8)
O2_3 O 0.4531(4) 0.6510(2) 0.4302(9)
C5_3 C 0.3239(3) 0.6815(2) 0.9800(9)
C6_3 C 0.2663(3) 0.6477(2) 0.9552(9)
H2_3 H 0.2382 0.6496 0.8493
C8_3 C 0.4469(3) 0.87209(18) 0.9792(7)
C13_3 C 0.5068(3) 0.83731(18) 0.9748(7)
H6_3 H 0.5526 0.8495 0.9322
C14_3 C 0.4552(3) 0.92669(18) 0.9215(7)
N2_3 N 0.3441(4) 0.7134(2) 0.8232(8)
O3_3 O 0.4075(3) 0.7141(2) 0.7788(9)
O4_3 O 0.2949(4) 0.7363(3) 0.7461(11)
O5_3 O 0.1617(2) 0.57100(16) 0.9010(7)
O7_3 O 0.4144(2) 0.96240(14) 0.9904(5)
O8_3 O 0.4990(2) 0.93867(12) 0.7988(5)
O12_2 O 0.0010(2) 0.43867(12) 0.7988(5)
O13_2 O 0.9990(2) 0.56133(12) 0.7988(5)
C1_4 C 0.7510(3) 0.3890(2) 0.0834(8)
C2_4 C 0.7102(3) 0.3905(2) 0.2385(9)
H1_4 H 0.7226 0.4149 0.3297
C3_4 C 0.6516(3) 0.3566(2) 0.2613(10)
C4_4 C 0.6307(3) 0.3187(2) 0.1325(8)
C7_4 C 0.8109(3) 0.4293(2) 0.0538(8)
C9_4 C 0.6204(3) 0.1468(2) 0.0368(8)
H3_4 H 0.6614 0.1238 0.0394
C10_4 C 0.6282(3) 0.1989(2) 0.0903(9)
H4_4 H 0.6746 0.2116 0.1272
C11_4 C 0.5679(3) 0.23306(19) 0.0902(8)
C12_4 C 0.5002(4) 0.21417(16) 0.0315(9)
H5_4 H 0.4590 0.2370 0.0307
H7_4 H 0.536(3) 0.289(3) 0.233(9)
N1_4 N 0.6099(4) 0.3623(2) 0.4267(9)
N3_4 N 0.5734(3) 0.28460(18) 0.1558(7)
O1_2 O 0.6439(5) 0.3795(3) 0.5557(8)
O2_4 O 0.5469(4) 0.3490(2) 0.4302(9)
C5_4 C 0.6761(3) 0.3185(2) 0.9800(9)
C6_4 C 0.7337(3) 0.3523(2) 0.9552(9)
H2_4 H 0.7618 0.3504 0.8493
C8_4 C 0.5531(3) 0.12791(18) 0.9792(7)
C13_4 C 0.4932(3) 0.16269(18) 0.9748(7)
H6_4 H 0.4474 0.1505 0.9322
C14_4 C 0.5448(3) 0.07331(18) 0.9215(7)
N2_4 N 0.6559(4) 0.2866(2) 0.8232(8)
O3_4 O 0.5925(3) 0.2859(2) 0.7788(9)
O4_4 O 0.7051(4) 0.2637(3) 0.7461(11)
O5_4 O 0.8383(2) 0.42900(16) 0.9010(7)
O7_4 O 0.5856(2) 0.03760(14) 0.9904(5)
O8_4 O 0.5010(2) 0.06133(12) 0.7988(5)
C1_5 C 0.2510(3) 0.1110(2) 0.0834(8)
C2_5 C 0.2102(3) 0.1095(2) 0.2385(9)
H1_5 H 0.2226 0.0851 0.3297
C3_5 C 0.1516(3) 0.1434(2) 0.2613(10)
C4_5 C 0.1307(3) 0.1813(2) 0.1325(8)
C7_5 C 0.3109(3) 0.0707(2) 0.0538(8)
C9_5 C 0.1204(3) 0.3532(2) 0.0368(8)
H3_5 H 0.1614 0.3762 0.0394
C10_5 C 0.1282(3) 0.3011(2) 0.0903(9)
H4_5 H 0.1746 0.2884 0.1272
C11_5 C 0.0679(3) 0.26694(19) 0.0902(8)
C12_5 C 0.0002(4) 0.28583(16) 0.0315(9)
H7_5 H 0.036(3) 0.211(3) 0.233(9)
N1_5 N 0.1099(4) 0.1377(2) 0.4267(9)
N3_5 N 0.0734(3) 0.21540(18) 0.1558(7)
O1_3 O 0.1439(5) 0.1205(3) 0.5557(8)
O2_5 O 0.0469(4) 0.1510(2) 0.4302(9)
O6_3 O 0.3269(3) 0.0406(2) 0.1785(6)
C5_5 C 0.1761(3) 0.1815(2) 0.9800(9)
C6_5 C 0.2337(3) 0.1477(2) 0.9552(9)
H2_5 H 0.2618 0.1496 0.8493
C8_5 C 0.0531(3) 0.37209(18) 0.9792(7)
C14_5 C 0.0448(3) 0.42669(18) 0.9215(7)
N2_5 N 0.1559(4) 0.2134(2) 0.8232(8)
O3_5 O 0.0925(3) 0.2141(2) 0.7788(9)
O4_5 O 0.2051(4) 0.2363(3) 0.7461(11)
O5_5 O 0.3383(2) 0.07100(16) 0.9010(7)
O9_3 O 0.3269(3) 0.9594(2) 0.6785(6)
C13_5 C 0.9932(3) 0.33731(18) 0.9748(7)
H6_5 H 0.9474 0.3495 0.9322
C13_6 C 0.0068(3) 0.66269(18) 0.9748(7)
H6_6 H 0.0526 0.6505 0.9322
O9_4 O 0.6731(3) 0.0406(2) 0.6785(6)
C1_6 C 0.7490(3) 0.8890(2) 0.0834(8)
C2_6 C 0.7898(3) 0.8905(2) 0.2385(9)
H1_6 H 0.7774 0.9149 0.3297
C3_6 C 0.8484(3) 0.8566(2) 0.2613(10)
C4_6 C 0.8693(3) 0.8187(2) 0.1325(8)
C7_6 C 0.6891(3) 0.9293(2) 0.0538(8)
C9_6 C 0.8796(3) 0.6468(2) 0.0368(8)
H3_6 H 0.8386 0.6238 0.0394
C10_6 C 0.8718(3) 0.6989(2) 0.0903(9)
H4_6 H 0.8254 0.7116 0.1272
C11_6 C 0.9321(3) 0.73306(19) 0.0902(8)
C12_6 C 0.9998(4) 0.71417(16) 0.0315(9)
H7_6 H 0.964(3) 0.789(3) 0.233(9)
N1_6 N 0.8901(4) 0.8623(2) 0.4267(9)
N3_6 N 0.9266(3) 0.78460(18) 0.1558(7)
O1_4 O 0.8561(5) 0.8795(3) 0.5557(8)
O2_6 O 0.9531(4) 0.8490(2) 0.4302(9)
O6_4 O 0.6731(3) 0.9594(2) 0.1785(6)
C5_6 C 0.8239(3) 0.8185(2) 0.9800(9)
C6_6 C 0.7663(3) 0.8523(2) 0.9552(9)
H2_6 H 0.7382 0.8504 0.8493
C8_6 C 0.9469(3) 0.62791(18) 0.9792(7)
C14_6 C 0.9552(3) 0.57331(18) 0.9215(7)
N2_6 N 0.8441(4) 0.7866(2) 0.8232(8)
O3_6 O 0.9075(3) 0.7859(2) 0.7788(9)
O4_6 O 0.7949(4) 0.7637(3) 0.7461(11)
O5_6 O 0.6617(2) 0.92900(16) 0.9010(7)
H5_5 H 0.0410 0.2630 0.5307
C13_7 C 0.0068(3) 0.33731(18) 0.4748(7)
H6_7 H 0.0526 0.3495 0.4322
C1_7 C 0.7490(3) 0.1110(2) 0.5834(8)
C2_7 C 0.7898(3) 0.1095(2) 0.7385(9)
H1_7 H 0.7774 0.0851 0.8297
C3_7 C 0.8484(3) 0.1434(2) 0.7613(10)
C4_7 C 0.8693(3) 0.1813(2) 0.6325(8)
C5_7 C 0.8239(3) 0.1815(2) 0.4800(9)
C6_7 C 0.7663(3) 0.1477(2) 0.4552(9)
H2_7 H 0.7382 0.1496 0.3493
C7_7 C 0.6891(3) 0.0707(2) 0.5538(8)
C8_7 C 0.9469(3) 0.37209(18) 0.4792(7)
C9_7 C 0.8796(3) 0.3532(2) 0.5368(8)
H3_7 H 0.8386 0.3762 0.5394
C10_7 C 0.8718(3) 0.3011(2) 0.5903(9)
H4_7 H 0.8254 0.2884 0.6272
C11_7 C 0.9321(3) 0.26694(19) 0.5902(8)
C12_7 C 0.9998(4) 0.28583(16) 0.5315(9)
C14_7 C 0.9552(3) 0.42669(18) 0.4215(7)
H7_7 H 0.964(3) 0.211(3) 0.733(9)
N1_7 N 0.8901(4) 0.1377(2) 0.9267(9)
N2_7 N 0.8441(4) 0.2134(2) 0.3232(8)
N3_7 N 0.9266(3) 0.21540(18) 0.6558(7)
O2_7 O 0.9531(4) 0.1510(2) 0.9302(9)
O3_7 O 0.9075(3) 0.2141(2) 0.2788(9)
O4_7 O 0.7949(4) 0.2363(3) 0.2461(11)
O5_7 O 0.6617(2) 0.07100(16) 0.4010(7)
C1_8 C 0.2510(3) 0.8890(2) 0.5834(8)
C2_8 C 0.2102(3) 0.8905(2) 0.7385(9)
H1_8 H 0.2226 0.9149 0.8297
C3_8 C 0.1516(3) 0.8566(2) 0.7613(10)
C4_8 C 0.1307(3) 0.8187(2) 0.6325(8)
C5_8 C 0.1761(3) 0.8185(2) 0.4800(9)
C6_8 C 0.2337(3) 0.8523(2) 0.4552(9)
H2_8 H 0.2618 0.8504 0.3493
C7_8 C 0.3109(3) 0.9293(2) 0.5538(8)
C8_8 C 0.0531(3) 0.62791(18) 0.4792(7)
C9_8 C 0.1204(3) 0.6468(2) 0.5368(8)
H3_8 H 0.1614 0.6238 0.5394
C10_8 C 0.1282(3) 0.6989(2) 0.5903(9)
H4_8 H 0.1746 0.7116 0.6272
C11_8 C 0.0679(3) 0.73306(19) 0.5902(8)
C12_8 C 0.0002(4) 0.71417(16) 0.5315(9)
C14_8 C 0.0448(3) 0.57331(18) 0.4215(7)
H7_8 H 0.036(3) 0.789(3) 0.733(9)
N1_8 N 0.1099(4) 0.8623(2) 0.9267(9)
N2_8 N 0.1559(4) 0.7866(2) 0.3232(8)
N3_8 N 0.0734(3) 0.78460(18) 0.6558(7)
O2_8 O 0.0469(4) 0.8490(2) 0.9302(9)
O3_8 O 0.0925(3) 0.7859(2) 0.2788(9)
O4_8 O 0.2051(4) 0.7637(3) 0.2461(11)
O5_8 O 0.3383(2) 0.92900(16) 0.4010(7)
H5_6 H 0.9590 0.7370 0.5307
C13_8 C 0.9932(3) 0.66269(18) 0.4748(7)
H6_8 H 0.9474 0.6505 0.4322
O1_5 O 0.6439(5) 0.6205(3) 0.0557(8)
O1_6 O 0.3561(5) 0.3795(3) 0.0557(8)
H5_7 H 0.9590 0.2630 0.0307
H5_8 H 0.0410 0.7370 0.0307
O1_7 O 0.8561(5) 0.1205(3) 0.0557(8)
O1_8 O 0.1439(5) 0.8795(3) 0.0557(8)
loop_
_geom_bond_atom_site_label_1
_geom_bond_atom_site_label_2
_geom_bond_site_symmetry_1
_geom_bond_site_symmetry_2
Mn1 O5 1_555 1_555
C1 C2 1_555 1_555
C2 H1 1_555 1_555
C3 C2 1_555 1_555
C4 C3 1_555 1_555
C5 C4 1_555 1_555
C6 C1 1_555 1_555
H2 C6 1_555 1_555
C7 C1 1_555 1_555
C8 C9 1_555 1_555
C9 H3 1_555 1_555
C10 C9 1_555 1_555
H4 C10 1_555 1_555
C11 C10 1_555 1_555
C12 C11 1_555 1_555
H5 C12 1_555 1_555
C13 C8 1_555 1_555
H6 C13 1_555 1_555
C14 C8 1_555 1_555
H7 N3 1_555 1_555
N1 C3 1_555 1_555
N2 C5 1_555 1_555
N3 C4 1_555 1_555
O2 N1 1_555 1_555
O3 N2 1_555 1_555
O4 N2 1_555 1_555
O5 C7 1_555 1_555
O6 C7 1_555 1_555
O7 C14 1_555 1_555
O8 C14 1_555 1_555
Mn2 O6 1_555 1_555
Mn3 O7 1_555 1_555
Mn5 O8 1_555 1_555
O9 Mn1 1_555 1_555
O11 Mn1 1_555 1_555
O12 Mn1 1_555 1_555
C5 C6 1_555 1_555
C11 N3 1_555 1_555
C12 C13 1_555 1_555
Mn2 O11 1_555 1_555
Mn1_2 O5_2 1_555 1_555
C1_2 C2_2 1_555 1_555
C2_2 H1_2 1_555 1_555
C3_2 C2_2 1_555 1_555
C4_2 C3_2 1_555 1_555
C5_2 C4_2 1_555 1_555
C6_2 C1_2 1_555 1_555
H2_2 C6_2 1_555 1_555
C7_2 C1_2 1_555 1_555
C8_2 C9_2 1_555 1_555
C9_2 H3_2 1_555 1_555
C10_2 C9_2 1_555 1_555
H4_2 C10_2 1_555 1_555
C11_2 C10_2 1_555 1_555
C12_2 C11_2 1_555 1_555
H5_2 C12_2 1_555 1_555
C13_2 C8_2 1_555 1_555
H6_2 C13_2 1_555 1_555
C14_2 C8_2 1_555 1_555
H7_2 N3_2 1_555 1_555
N1_2 C3_2 1_555 1_555
N2_2 C5_2 1_555 1_555
N3_2 C4_2 1_555 1_555
O2_2 N1_2 1_555 1_555
O3_2 N2_2 1_555 1_555
O4_2 N2_2 1_555 1_555
O5_2 C7_2 1_555 1_555
O6_2 C7_2 1_555 1_555
O7_2 C14_2 1_555 1_555
O8_2 C14_2 1_555 1_555
Mn2_2 O6_2 1_555 1_555
Mn3_2 O7_2 1_555 1_555
Mn4 O8_2 1_555 1_555
O9_2 Mn1_2 1_555 1_555
O11_2 Mn1_2 1_555 1_555
O13 Mn1_2 1_555 1_555
C5_2 C6_2 1_555 1_555
C11_2 N3_2 1_555 1_555
C12_2 C13_2 1_555 1_555
Mn2_2 O11_2 1_555 1_555
C1_3 C2_3 1_555 1_555
C2_3 H1_3 1_555 1_555
C3_3 C2_3 1_555 1_555
C4_3 C3_3 1_555 1_555
C7_3 C1_3 1_555 1_555
C9_3 H3_3 1_555 1_555
C10_3 C9_3 1_555 1_555
H4_3 C10_3 1_555 1_555
C11_3 C10_3 1_555 1_555
C12_3 C11_3 1_555 1_555
H5_3 C12_3 1_555 1_555
H7_3 N3_3 1_555 1_555
N1_3 C3_3 1_555 1_555
N3_3 C4_3 1_555 1_555
O1 N1_3 1_555 1_555
O2_3 N1_3 1_555 1_555
O9_2 C7_3 1_555 1_555
C11_3 N3_3 1_555 1_555
Mn2_2 O5_3 1_555 1_555
H2_3 C6_3 1_555 1_555
C13_3 C8_3 1_555 1_555
H6_3 C13_3 1_555 1_555
C14_3 C8_3 1_555 1_555
N2_3 C5_3 1_555 1_555
O3_3 N2_3 1_555 1_555
O4_3 N2_3 1_555 1_555
O7_3 C14_3 1_555 1_555
O8_3 C14_3 1_555 1_555
Mn3 O8_3 1_555 1_555
O10_2 Mn2_2 1_555 1_555
O12_2 Mn2_2 1_555 1_555
C5_3 C6_3 1_555 1_555
C1_4 C2_4 1_555 1_555
C2_4 H1_4 1_555 1_555
C3_4 C2_4 1_555 1_555
C4_4 C3_4 1_555 1_555
C7_4 C1_4 1_555 1_555
C9_4 H3_4 1_555 1_555
C10_4 C9_4 1_555 1_555
H4_4 C10_4 1_555 1_555
C11_4 C10_4 1_555 1_555
C12_4 C11_4 1_555 1_555
H5_4 C12_4 1_555 1_555
H7_4 N3_4 1_555 1_555
N1_4 C3_4 1_555 1_555
N3_4 C4_4 1_555 1_555
O1_2 N1_4 1_555 1_555
O2_4 N1_4 1_555 1_555
O9 C7_4 1_555 1_555
C11_4 N3_4 1_555 1_555
Mn2 O5_4 1_555 1_555
H2_4 C6_4 1_555 1_555
C13_4 C8_4 1_555 1_555
H6_4 C13_4 1_555 1_555
C14_4 C8_4 1_555 1_555
N2_4 C5_4 1_555 1_555
O3_4 N2_4 1_555 1_555
O4_4 N2_4 1_555 1_555
O7_4 C14_4 1_555 1_555
O8_4 C14_4 1_555 1_555
Mn3_2 O8_4 1_555 1_555
O10 Mn2 1_555 1_555
O13_2 Mn2 1_555 1_555
C5_4 C6_4 1_555 1_555
C1_5 C2_5 1_555 1_555
C2_5 H1_5 1_555 1_555
C3_5 C2_5 1_555 1_555
C4_5 C3_5 1_555 1_555
C7_5 C1_5 1_555 1_555
C9_5 H3_5 1_555 1_555
C10_5 C9_5 1_555 1_555
H4_5 C10_5 1_555 1_555
C11_5 C10_5 1_555 1_555
C12_5 C11_5 1_555 1_555
H7_5 N3_5 1_555 1_555
N1_5 C3_5 1_555 1_555
N3_5 C4_5 1_555 1_555
O1_3 N1_5 1_555 1_555
O2_5 N1_5 1_555 1_555
O6_3 C7_5 1_555 1_555
C11_5 N3_5 1_555 1_555
Mn3_2 O5_5 1_555 1_555
H2_5 C6_5 1_555 1_555
C14_5 C8_5 1_555 1_555
N2_5 C5_5 1_555 1_555
O3_5 N2_5 1_555 1_555
O4_5 N2_5 1_555 1_555
O10_2 C14_5 1_555 1_555
O12_2 C14_5 1_555 1_555
C5_5 C6_5 1_555 1_555
H6_5 C13_5 1_555 1_555
H6_6 C13_6 1_555 1_555
C1_6 C2_6 1_555 1_555
C2_6 H1_6 1_555 1_555
C3_6 C2_6 1_555 1_555
C4_6 C3_6 1_555 1_555
C7_6 C1_6 1_555 1_555
C9_6 H3_6 1_555 1_555
C10_6 C9_6 1_555 1_555
H4_6 C10_6 1_555 1_555
C11_6 C10_6 1_555 1_555
C12_6 C11_6 1_555 1_555
H7_6 N3_6 1_555 1_555
N1_6 C3_6 1_555 1_555
N3_6 C4_6 1_555 1_555
O1_4 N1_6 1_555 1_555
O2_6 N1_6 1_555 1_555
O6_4 C7_6 1_555 1_555
C11_6 N3_6 1_555 1_555
Mn3 O5_6 1_555 1_555
H2_6 C6_6 1_555 1_555
C14_6 C8_6 1_555 1_555
N2_6 C5_6 1_555 1_555
O3_6 N2_6 1_555 1_555
O4_6 N2_6 1_555 1_555
O10 C14_6 1_555 1_555
O13_2 C14_6 1_555 1_555
C5_6 C6_6 1_555 1_555
H6_7 C13_7 1_555 1_555
Mn4 O5_7 1_555 1_555
C1_7 C2_7 1_555 1_555
C2_7 H1_7 1_555 1_555
C3_7 C2_7 1_555 1_555
C4_7 C3_7 1_555 1_555
C5_7 C4_7 1_555 1_555
C6_7 C1_7 1_555 1_555
H2_7 C6_7 1_555 1_555
C7_7 C1_7 1_555 1_555
C8_7 C9_7 1_555 1_555
C9_7 H3_7 1_555 1_555
C10_7 C9_7 1_555 1_555
H4_7 C10_7 1_555 1_555
C11_7 C10_7 1_555 1_555
C12_7 C11_7 1_555 1_555
C14_7 C8_7 1_555 1_555
H7_7 N3_7 1_555 1_555
N1_7 C3_7 1_555 1_555
N2_7 C5_7 1_555 1_555
N3_7 C4_7 1_555 1_555
O2_7 N1_7 1_555 1_555
O3_7 N2_7 1_555 1_555
O4_7 N2_7 1_555 1_555
O5_7 C7_7 1_555 1_555
O9_4 C7_7 1_555 1_555
O11 C14_7 1_555 1_555
O12 C14_7 1_555 1_555
C5_7 C6_7 1_555 1_555
C11_7 N3_7 1_555 1_555
Mn5 O5_8 1_555 1_555
C1_8 C2_8 1_555 1_555
C2_8 H1_8 1_555 1_555
C3_8 C2_8 1_555 1_555
C4_8 C3_8 1_555 1_555
C5_8 C4_8 1_555 1_555
C6_8 C1_8 1_555 1_555
H2_8 C6_8 1_555 1_555
C7_8 C1_8 1_555 1_555
C8_8 C9_8 1_555 1_555
C9_8 H3_8 1_555 1_555
C10_8 C9_8 1_555 1_555
H4_8 C10_8 1_555 1_555
C11_8 C10_8 1_555 1_555
C12_8 C11_8 1_555 1_555
C14_8 C8_8 1_555 1_555
H7_8 N3_8 1_555 1_555
N1_8 C3_8 1_555 1_555
N2_8 C5_8 1_555 1_555
N3_8 C4_8 1_555 1_555
O2_8 N1_8 1_555 1_555
O3_8 N2_8 1_555 1_555
O4_8 N2_8 1_555 1_555
O5_8 C7_8 1_555 1_555
O9_3 C7_8 1_555 1_555
O11_2 C14_8 1_555 1_555
O13 C14_8 1_555 1_555
C5_8 C6_8 1_555 1_555
C11_8 N3_8 1_555 1_555
H6_8 C13_8 1_555 1_555

#END
