
###############################################################################
#
# This file contains modified crystal structure data generated from the
# MOF subset of the Cambridge Structural Database (CSD) v543 
# hosted by the Cambridge Crystallographic Data Centre (CCDC).
#
# This work is licensed under the Creative Commons
# Attribution-NonCommercial-ShareAlike 4.0 International License.
# To view a copy of this license, visit
# http://creativecommons.org/licenses/by-nc-sa/4.0/
# or send a letter to
# Creative Commons, PO Box 1866, Mountain View, CA 94042, USA.
#
# CIF created using the CSD Python API on 29 September 2022
# The structure has been converted into the P1 space group
# The structure has a 3D framework
# The original CSD entry KOJFUN is in the monoclinic crystal system
# The framework has been calculated to contain at least 10.0% void space
# The void calculation uses a probe of radius 1.32A, grid spacing 0.4
#
###############################################################################

data_KOJFUN
_chemical_formula_moiety         '(C216 H144 Cd14 N56 O56)n'
_symmetry_cell_setting           triclinic
_symmetry_space_group_name_H-M   'P 1'
_symmetry_Int_Tables_number      1
_space_group_name_Hall           'P 1'
loop_
_symmetry_equiv_pos_site_id
_symmetry_equiv_pos_as_xyz
1 x,y,z
_cell_length_a                   24.0134(9)
_cell_length_b                   8.3242(3)
_cell_length_c                   30.2643(11)
_cell_angle_alpha                90
_cell_angle_beta                 103.2200(10)
_cell_angle_gamma                90
_cell_volume                     5889.28
loop_
_atom_site_label
_atom_site_type_symbol
_atom_site_fract_x
_atom_site_fract_y
_atom_site_fract_z
Cd5 Cd 0.01256(2) 0.35888(3) 0.95812(2)
N16 N 0.07211(10) 0.2550(3) 0.57814(8)
O15 O 0.03283(8) 0.6213(2) 0.53246(6)
H10 H 0.6999 0.0153 0.7795
C23 C 0.82548(12) 0.1265(4) 0.87571(10)
C24 C 0.84471(13) 0.0976(4) 0.92142(11)
H12 H 0.8237 0.0346 0.9371
C25 C 0.89620(14) 0.1651(4) 0.94332(11)
H13 H 0.9094 0.1472 0.9743
C26 C 0.90834(13) 0.2818(4) 0.87768(10)
H14 H 0.9303 0.3441 0.8626
C27 C 0.85703(13) 0.2212(4) 0.85319(10)
H15 H 0.8441 0.2437 0.8224
N6 N 0.77239(11) 0.0690(3) 0.84846(9)
N7 N 0.92789(10) 0.2550(3) 0.92186(8)
H28 H 0.3001 0.0153 0.7205
C50 C 0.17452(12) 0.1265(4) 0.62429(10)
C51 C 0.15529(13) 0.0976(4) 0.57858(11)
H30 H 0.1763 0.0346 0.5629
C52 C 0.10380(14) 0.1651(4) 0.55668(11)
H31 H 0.0906 0.1472 0.5257
C53 C 0.09166(13) 0.2818(4) 0.62232(10)
H32 H 0.0697 0.3441 0.6374
C54 C 0.14297(13) 0.2212(4) 0.64681(10)
H33 H 0.1559 0.2437 0.6776
N13 N 0.22761(11) 0.0690(3) 0.65154(9)
Cd9 Cd 0.48744(2) 0.14112(3) 0.04188(2)
Cd2 Cd 0.5000 0.73964(3) 0.7500
C1 C 0.56181(11) 0.2676(3) 0.60065(9)
C2 C 0.54769(11) 0.3718(3) 0.63220(9)
H1 H 0.5139 0.4305 0.6248
C3 C 0.58399(11) 0.3883(3) 0.67486(9)
C4 C 0.63519(11) 0.3026(3) 0.68540(9)
H2 H 0.6594 0.3137 0.7140
C5 C 0.65038(11) 0.2013(3) 0.65381(9)
C6 C 0.61296(11) 0.1827(3) 0.61166(9)
H3 H 0.6223 0.1125 0.5906
C7 C 0.52399(12) 0.2479(3) 0.55422(9)
C8 C 0.56867(11) 0.5003(3) 0.70939(9)
C9 C 0.70585(11) 0.1167(3) 0.66273(9)
C18 C 0.60525(12) 0.7853(4) 0.83462(10)
H8 H 0.5810 0.7268 0.8485
C19 C 0.65818(13) 0.8297(4) 0.86020(10)
H9 H 0.6698 0.7997 0.8905
C20 C 0.69358(12) 0.9197(4) 0.83973(10)
C21 C 0.67626(13) 0.9576(4) 0.79413(11)
C22 C 0.62289(12) 0.9070(4) 0.77118(11)
H11 H 0.6108 0.9325 0.7406
N1 N 0.74204(10) 0.1154(3) 0.70314(8)
N2 N 0.78644(9) 0.0277(3) 0.69497(8)
H16 H 0.8187 0.0156 0.7203
N3 N 0.72496(9) 0.0365(3) 0.62974(7)
N4 N 0.58741(9) 0.8230(3) 0.79075(8)
N5 N 0.74762(10) 0.9697(3) 0.86774(9)
O1 O 0.53283(8) 0.1213(2) 0.53246(6)
O2 O 0.48824(9) 0.3506(3) 0.53834(7)
O3 O 0.52171(9) 0.5728(3) 0.69863(7)
O4 O 0.60245(10) 0.5151(3) 0.74662(7)
C28 C 0.43819(11) 0.2676(3) 0.89935(9)
C29 C 0.45231(11) 0.3718(3) 0.86780(9)
H19 H 0.4861 0.4305 0.8752
C30 C 0.41601(11) 0.3883(3) 0.82514(9)
C31 C 0.36481(11) 0.3026(3) 0.81460(9)
H20 H 0.3406 0.3137 0.7860
C32 C 0.34962(11) 0.2013(3) 0.84619(9)
C33 C 0.38704(11) 0.1827(3) 0.88834(9)
H21 H 0.3777 0.1125 0.9094
C34 C 0.47601(12) 0.2479(3) 0.94578(9)
C35 C 0.43133(11) 0.5003(3) 0.79061(9)
C36 C 0.29415(11) 0.1167(3) 0.83727(9)
C45 C 0.39475(12) 0.7853(4) 0.66538(10)
H26 H 0.4190 0.7268 0.6515
C46 C 0.34182(13) 0.8297(4) 0.63980(10)
H27 H 0.3302 0.7997 0.6095
C47 C 0.30642(12) 0.9197(4) 0.66027(10)
C48 C 0.32374(13) 0.9576(4) 0.70587(11)
C49 C 0.37711(12) 0.9070(4) 0.72882(11)
H29 H 0.3892 0.9325 0.7594
N8 N 0.25796(10) 0.1154(3) 0.79686(8)
N9 N 0.21356(9) 0.0277(3) 0.80503(8)
H34 H 0.1813 0.0156 0.7797
N10 N 0.27504(9) 0.0365(3) 0.87026(7)
N11 N 0.41259(9) 0.8230(3) 0.70925(8)
N12 N 0.25238(10) 0.9697(3) 0.63226(9)
O8 O 0.46717(8) 0.1213(2) 0.96754(6)
O9 O 0.51176(9) 0.3506(3) 0.96166(7)
O10 O 0.47829(9) 0.5728(3) 0.80137(7)
O11 O 0.39755(10) 0.5151(3) 0.75338(7)
Cd8 Cd 0.51256(2) 0.14112(3) 0.45812(2)
O18 O 0.03283(8) 0.3787(2) 0.03246(6)
Cd1 Cd 0.98744(2) 0.35888(3) 0.54188(2)
C10 C 0.77594(11) 0.9816(3) 0.65133(9)
C11 C 0.86940(13) 0.8479(4) 0.65451(11)
H4 H 0.8842 0.8958 0.6825
C12 C 0.90282(13) 0.7442(4) 0.63624(11)
H5 H 0.9399 0.7218 0.6523
C13 C 0.88223(12) 0.6732(3) 0.59472(10)
C14 C 0.82747(13) 0.7111(4) 0.57041(10)
H6 H 0.8135 0.6675 0.5417
C15 C 0.79373(13) 0.8136(4) 0.58890(10)
H7 H 0.7569 0.8376 0.5726
C16 C 0.81386(11) 0.8812(3) 0.63132(10)
C17 C 0.91753(12) 0.5545(3) 0.57606(10)
O5 O 0.96365(8) 0.5029(2) 0.60181(7)
O6 O 0.90161(9) 0.5071(3) 0.53593(7)
O7 O 0.93879(10) 0.1324(3) 0.55483(9)
H17 H 0.9589 0.0594 0.5459
H18 H 0.9046 0.1195 0.5431
C37 C 0.22406(11) 0.9816(3) 0.84867(9)
C38 C 0.13060(13) 0.8479(4) 0.84549(11)
H22 H 0.1158 0.8958 0.8175
C39 C 0.09718(13) 0.7442(4) 0.86376(11)
H23 H 0.0601 0.7218 0.8477
C40 C 0.11777(12) 0.6732(3) 0.90528(10)
C41 C 0.17253(13) 0.7111(4) 0.92959(10)
H24 H 0.1865 0.6675 0.9583
C42 C 0.20627(13) 0.8136(4) 0.91110(10)
H25 H 0.2431 0.8376 0.9274
C43 C 0.18614(11) 0.8812(3) 0.86868(10)
C44 C 0.08247(12) 0.5545(3) 0.92394(10)
O12 O 0.03635(8) 0.5029(2) 0.89819(7)
O13 O 0.09839(9) 0.5071(3) 0.96407(7)
O14 O 0.06121(10) 0.1324(3) 0.94517(9)
H35 H 0.0411 0.0594 0.9541
H36 H 0.0954 0.1195 0.9569
Cd6 Cd 0.48744(2) 0.85888(3) 0.54188(2)
Cd7 Cd 0.51256(2) 0.85888(3) 0.95812(2)
O17 O 0.96717(8) 0.3787(2) 0.46754(6)
O16 O 0.96717(8) 0.6213(2) 0.96754(6)
Cd2_2 Cd -0.0000 0.23964(3) 0.7500
C8_2 C 0.06867(11) 0.0003(3) 0.70939(9)
C18_2 C 0.10525(12) 0.2853(4) 0.83462(10)
H8_2 H 0.0810 0.2268 0.8485
C19_2 C 0.15818(13) 0.3297(4) 0.86020(10)
H9_2 H 0.1698 0.2997 0.8905
C20_2 C 0.19358(12) 0.4197(4) 0.83973(10)
C21_2 C 0.17626(13) 0.4576(4) 0.79413(11)
H10_2 H 0.1999 0.5153 0.7795
C22_2 C 0.12289(12) 0.4070(4) 0.77118(11)
H11_2 H 0.1108 0.4325 0.7406
C23_2 C 0.32548(12) 0.6265(4) 0.87571(10)
C24_2 C 0.34471(13) 0.5976(4) 0.92142(11)
H12_2 H 0.3237 0.5346 0.9371
C25_2 C 0.39620(14) 0.6651(4) 0.94332(11)
H13_2 H 0.4094 0.6472 0.9743
C26_2 C 0.40834(13) 0.7818(4) 0.87768(10)
H14_2 H 0.4303 0.8441 0.8626
C27_2 C 0.35703(13) 0.7212(4) 0.85319(10)
H15_2 H 0.3441 0.7437 0.8224
N4_2 N 0.08741(9) 0.3230(3) 0.79075(8)
N5_2 N 0.24762(10) 0.4697(3) 0.86774(9)
N6_2 N 0.27239(11) 0.5690(3) 0.84846(9)
N7_2 N 0.42789(10) 0.7550(3) 0.92186(8)
O3_2 O 0.02171(9) 0.0728(3) 0.69863(7)
O4_2 O 0.10245(10) 0.0151(3) 0.74662(7)
C1_2 C 0.06181(11) 0.7676(3) 0.60065(9)
C2_2 C 0.04769(11) 0.8718(3) 0.63220(9)
H1_2 H 0.0139 0.9305 0.6248
C3_2 C 0.08399(11) 0.8883(3) 0.67486(9)
C4_2 C 0.13519(11) 0.8026(3) 0.68540(9)
H2_2 H 0.1594 0.8137 0.7140
C5_2 C 0.15038(11) 0.7013(3) 0.65381(9)
C6_2 C 0.11296(11) 0.6827(3) 0.61166(9)
H3_2 H 0.1223 0.6125 0.5906
C7_2 C 0.02399(12) 0.7479(3) 0.55422(9)
C9_2 C 0.20585(11) 0.6167(3) 0.66273(9)
C10_2 C 0.27594(11) 0.4816(3) 0.65133(9)
C11_2 C 0.36940(13) 0.3479(4) 0.65451(11)
H4_2 H 0.3842 0.3958 0.6825
C12_2 C 0.40282(13) 0.2442(4) 0.63624(11)
H5_2 H 0.4399 0.2218 0.6523
C13_2 C 0.38223(12) 0.1732(3) 0.59472(10)
C14_2 C 0.32747(13) 0.2111(4) 0.57041(10)
H6_2 H 0.3135 0.1675 0.5417
C15_2 C 0.29373(13) 0.3136(4) 0.58890(10)
H7_2 H 0.2569 0.3376 0.5726
C16_2 C 0.31386(11) 0.3812(3) 0.63132(10)
C17_2 C 0.41753(12) 0.0545(3) 0.57606(10)
N1_2 N 0.24204(10) 0.6154(3) 0.70314(8)
N2_2 N 0.28644(9) 0.5277(3) 0.69497(8)
H16_2 H 0.3187 0.5156 0.7203
N3_2 N 0.22496(9) 0.5365(3) 0.62974(7)
O5_2 O 0.46365(8) 0.0029(2) 0.60181(7)
O6_2 O 0.40161(9) 0.0071(3) 0.53593(7)
O9_2 O 0.01176(9) 0.8506(3) 0.96166(7)
Cd8_2 Cd 0.01256(2) 0.64112(3) 0.45812(2)
O7_2 O 0.43879(10) 0.6324(3) 0.55483(9)
H17_2 H 0.4589 0.5594 0.5459
H18_2 H 0.4046 0.6195 0.5431
N16_2 N 0.57211(10) 0.7550(3) 0.57814(8)
O17_2 O 0.46717(8) 0.8787(2) 0.46754(6)
Cd2_3 Cd 1.0000 0.23964(3) 0.7500
C35_2 C 0.93133(11) 0.0003(3) 0.79061(9)
C45_2 C 0.89475(12) 0.2853(4) 0.66538(10)
H26_2 H 0.9190 0.2268 0.6515
C46_2 C 0.84182(13) 0.3297(4) 0.63980(10)
H27_2 H 0.8302 0.2997 0.6095
C47_2 C 0.80642(12) 0.4197(4) 0.66027(10)
C48_2 C 0.82374(13) 0.4576(4) 0.70587(11)
H28_2 H 0.8001 0.5153 0.7205
C49_2 C 0.87711(12) 0.4070(4) 0.72882(11)
H29_2 H 0.8892 0.4325 0.7594
C50_2 C 0.67452(12) 0.6265(4) 0.62429(10)
C51_2 C 0.65529(13) 0.5976(4) 0.57858(11)
H30_2 H 0.6763 0.5346 0.5629
C52_2 C 0.60380(14) 0.6651(4) 0.55668(11)
H31_2 H 0.5906 0.6472 0.5257
C53_2 C 0.59166(13) 0.7818(4) 0.62232(10)
H32_2 H 0.5697 0.8441 0.6374
C54_2 C 0.64297(13) 0.7212(4) 0.64681(10)
H33_2 H 0.6559 0.7437 0.6776
N11_2 N 0.91259(9) 0.3230(3) 0.70925(8)
N12_2 N 0.75238(10) 0.4697(3) 0.63226(9)
N13_2 N 0.72761(11) 0.5690(3) 0.65154(9)
O10_2 O 0.97829(9) 0.0728(3) 0.80137(7)
O11_2 O 0.89755(10) 0.0151(3) 0.75338(7)
Cd9_2 Cd 0.98744(2) 0.64112(3) 0.04188(2)
O2_2 O 0.98824(9) 0.8506(3) 0.53834(7)
C28_2 C 0.93819(11) 0.7676(3) 0.89935(9)
C29_2 C 0.95231(11) 0.8718(3) 0.86780(9)
H19_2 H 0.9861 0.9305 0.8752
C30_2 C 0.91601(11) 0.8883(3) 0.82514(9)
C31_2 C 0.86481(11) 0.8026(3) 0.81460(9)
H20_2 H 0.8406 0.8137 0.7860
C32_2 C 0.84962(11) 0.7013(3) 0.84619(9)
C33_2 C 0.88704(11) 0.6827(3) 0.88834(9)
H21_2 H 0.8777 0.6125 0.9094
C34_2 C 0.97601(12) 0.7479(3) 0.94578(9)
C36_2 C 0.79415(11) 0.6167(3) 0.83727(9)
C37_2 C 0.72406(11) 0.4816(3) 0.84867(9)
C38_2 C 0.63060(13) 0.3479(4) 0.84549(11)
H22_2 H 0.6158 0.3958 0.8175
C39_2 C 0.59718(13) 0.2442(4) 0.86376(11)
H23_2 H 0.5601 0.2218 0.8477
C40_2 C 0.61777(12) 0.1732(3) 0.90528(10)
C41_2 C 0.67253(13) 0.2111(4) 0.92959(10)
H24_2 H 0.6865 0.1675 0.9583
C42_2 C 0.70627(13) 0.3136(4) 0.91110(10)
H25_2 H 0.7431 0.3376 0.9274
C43_2 C 0.68614(11) 0.3812(3) 0.86868(10)
C44_2 C 0.58247(12) 0.0545(3) 0.92394(10)
N8_2 N 0.75796(10) 0.6154(3) 0.79686(8)
N9_2 N 0.71356(9) 0.5277(3) 0.80503(8)
H34_2 H 0.6813 0.5156 0.7797
N10_2 N 0.77504(9) 0.5365(3) 0.87026(7)
O12_2 O 0.53635(8) 0.0029(2) 0.89819(7)
O13_2 O 0.59839(9) 0.0071(3) 0.96407(7)
O18_2 O 0.53283(8) 0.8787(2) 0.03246(6)
O14_2 O 0.56121(10) 0.6324(3) 0.94517(9)
H35_2 H 0.5411 0.5594 0.9541
H36_2 H 0.5954 0.6195 0.9569
N15 N 0.07211(10) 0.7450(3) 0.07814(8)
C10_3 C 0.22406(11) 0.0184(3) 0.34867(9)
C11_3 C 0.13060(13) 0.1521(4) 0.34549(11)
H4_3 H 0.1158 0.1042 0.3175
C12_3 C 0.09718(13) 0.2558(4) 0.36376(11)
H5_3 H 0.0601 0.2782 0.3477
C13_3 C 0.11777(12) 0.3268(3) 0.40528(10)
C14_3 C 0.17253(13) 0.2889(4) 0.42959(10)
H6_3 H 0.1865 0.3325 0.4583
C15_3 C 0.20627(13) 0.1864(4) 0.41110(10)
H7_3 H 0.2431 0.1624 0.4274
C16_3 C 0.18614(11) 0.1188(3) 0.36868(10)
C17_3 C 0.08247(12) 0.4455(3) 0.42394(10)
O5_3 O 0.03635(8) 0.4971(2) 0.39819(7)
O6_3 O 0.09839(9) 0.4929(3) 0.46407(7)
O7_3 O 0.06121(10) 0.8676(3) 0.44517(9)
H17_3 H 0.0411 0.9406 0.4541
H18_3 H 0.0954 0.8805 0.4569
C37_3 C 0.77594(11) 0.0184(3) 0.15133(9)
C38_3 C 0.86940(13) 0.1521(4) 0.15451(11)
H22_3 H 0.8842 0.1042 0.1825
C39_3 C 0.90282(13) 0.2558(4) 0.13624(11)
H23_3 H 0.9399 0.2782 0.1523
C40_3 C 0.88223(12) 0.3268(3) 0.09472(10)
C41_3 C 0.82747(13) 0.2889(4) 0.07041(10)
H24_3 H 0.8135 0.3325 0.0417
C42_3 C 0.79373(13) 0.1864(4) 0.08890(10)
H25_3 H 0.7569 0.1624 0.0726
C43_3 C 0.81386(11) 0.1188(3) 0.13132(10)
C44_3 C 0.91753(12) 0.4455(3) 0.07606(10)
O12_3 O 0.96365(8) 0.4971(2) 0.10181(7)
O13_3 O 0.90161(9) 0.4929(3) 0.03593(7)
O14_3 O 0.93879(10) 0.8676(3) 0.05483(9)
H35_3 H 0.9589 0.9406 0.0459
H36_3 H 0.9046 0.8805 0.0431
Cd2_4 Cd 0.5000 0.26036(3) 0.2500
C1_3 C 0.43819(11) 0.7324(3) 0.39935(9)
C2_3 C 0.45231(11) 0.6282(3) 0.36780(9)
H1_3 H 0.4861 0.5695 0.3752
C3_3 C 0.41601(11) 0.6117(3) 0.32514(9)
C4_3 C 0.36481(11) 0.6974(3) 0.31460(9)
H2_3 H 0.3406 0.6863 0.2860
C5_3 C 0.34962(11) 0.7987(3) 0.34619(9)
C6_3 C 0.38704(11) 0.8173(3) 0.38834(9)
H3_3 H 0.3777 0.8875 0.4094
C7_3 C 0.47601(12) 0.7521(3) 0.44578(9)
C8_3 C 0.43133(11) 0.4997(3) 0.29061(9)
C9_3 C 0.29415(11) 0.8833(3) 0.33727(9)
C18_3 C 0.39475(12) 0.2147(4) 0.16538(10)
H8_3 H 0.4190 0.2732 0.1515
C19_3 C 0.34182(13) 0.1703(4) 0.13980(10)
H9_3 H 0.3302 0.2003 0.1095
C20_3 C 0.30642(12) 0.0803(4) 0.16027(10)
C21_3 C 0.32374(13) 0.0424(4) 0.20587(11)
C22_3 C 0.37711(12) 0.0930(4) 0.22882(11)
H11_3 H 0.3892 0.0675 0.2594
N1_3 N 0.25796(10) 0.8846(3) 0.29686(8)
N2_3 N 0.21356(9) 0.9723(3) 0.30503(8)
H16_3 H 0.1813 0.9844 0.2797
N3_3 N 0.27504(9) 0.9635(3) 0.37026(7)
N4_3 N 0.41259(9) 0.1770(3) 0.20925(8)
N5_3 N 0.25238(10) 0.0303(3) 0.13226(9)
O2_3 O 0.51176(9) 0.6494(3) 0.46166(7)
O3_3 O 0.47829(9) 0.4272(3) 0.30137(7)
O4_3 O 0.39755(10) 0.4849(3) 0.25338(7)
C28_3 C 0.56181(11) 0.7324(3) 0.10065(9)
C29_3 C 0.54769(11) 0.6282(3) 0.13220(9)
H19_3 H 0.5139 0.5695 0.1248
C30_3 C 0.58399(11) 0.6117(3) 0.17486(9)
C31_3 C 0.63519(11) 0.6974(3) 0.18540(9)
H20_3 H 0.6594 0.6863 0.2140
C32_3 C 0.65038(11) 0.7987(3) 0.15381(9)
C33_3 C 0.61296(11) 0.8173(3) 0.11166(9)
H21_3 H 0.6223 0.8875 0.0906
C34_3 C 0.52399(12) 0.7521(3) 0.05422(9)
C35_3 C 0.56867(11) 0.4997(3) 0.20939(9)
C36_3 C 0.70585(11) 0.8833(3) 0.16273(9)
C45_3 C 0.60525(12) 0.2147(4) 0.33462(10)
H26_3 H 0.5810 0.2732 0.3485
C46_3 C 0.65818(13) 0.1703(4) 0.36020(10)
H27_3 H 0.6698 0.2003 0.3905
C47_3 C 0.69358(12) 0.0803(4) 0.33973(10)
C48_3 C 0.67626(13) 0.0424(4) 0.29413(11)
C49_3 C 0.62289(12) 0.0930(4) 0.27118(11)
H29_3 H 0.6108 0.0675 0.2406
N8_3 N 0.74204(10) 0.8846(3) 0.20314(8)
N9_3 N 0.78644(9) 0.9723(3) 0.19497(8)
H34_3 H 0.8187 0.9844 0.2203
N10_3 N 0.72496(9) 0.9635(3) 0.12974(7)
N11_3 N 0.58741(9) 0.1770(3) 0.29075(8)
N12_3 N 0.74762(10) 0.0303(3) 0.36774(9)
O9_3 O 0.48824(9) 0.6494(3) 0.03834(7)
O10_3 O 0.52171(9) 0.4272(3) 0.19863(7)
O11_3 O 0.60245(10) 0.4849(3) 0.24662(7)
H10_3 H 0.3001 0.9847 0.2205
C23_3 C 0.17452(12) 0.8735(4) 0.12429(10)
C24_3 C 0.15529(13) 0.9024(4) 0.07858(11)
H12_3 H 0.1763 0.9654 0.0629
C25_3 C 0.10380(14) 0.8349(4) 0.05668(11)
H13_3 H 0.0906 0.8528 0.0257
C26_3 C 0.09166(13) 0.7182(4) 0.12232(10)
H14_3 H 0.0697 0.6559 0.1374
C27_3 C 0.14297(13) 0.7788(4) 0.14681(10)
H15_3 H 0.1559 0.7563 0.1776
N6_3 N 0.22761(11) 0.9310(3) 0.15154(9)
H28_3 H 0.6999 0.9847 0.2795
C50_3 C 0.82548(12) 0.8735(4) 0.37571(10)
C51_3 C 0.84471(13) 0.9024(4) 0.42142(11)
H30_3 H 0.8237 0.9654 0.4371
C52_3 C 0.89620(14) 0.8349(4) 0.44332(11)
H31_3 H 0.9094 0.8528 0.4743
C53_3 C 0.90834(13) 0.7182(4) 0.37768(10)
H32_3 H 0.9303 0.6559 0.3626
C54_3 C 0.85703(13) 0.7788(4) 0.35319(10)
H33_3 H 0.8441 0.7563 0.3224
N13_3 N 0.77239(11) 0.9310(3) 0.34846(9)
N14 N 0.92789(10) 0.7450(3) 0.42186(8)
O14_4 O 0.43879(10) 0.3676(3) 0.05483(9)
H35_4 H 0.4589 0.4406 0.0459
H36_4 H 0.4046 0.3805 0.0431
N15_2 N 0.57211(10) 0.2450(3) 0.07814(8)
O2_4 O 0.01176(9) 0.1494(3) 0.46166(7)
C28_4 C 0.06181(11) 0.2324(3) 0.10065(9)
C29_4 C 0.04769(11) 0.1282(3) 0.13220(9)
H19_4 H 0.0139 0.0695 0.1248
C30_4 C 0.08399(11) 0.1117(3) 0.17486(9)
C31_4 C 0.13519(11) 0.1974(3) 0.18540(9)
H20_4 H 0.1594 0.1863 0.2140
C32_4 C 0.15038(11) 0.2987(3) 0.15381(9)
C33_4 C 0.11296(11) 0.3173(3) 0.11166(9)
H21_4 H 0.1223 0.3875 0.0906
C34_4 C 0.02399(12) 0.2521(3) 0.05422(9)
C36_4 C 0.20585(11) 0.3833(3) 0.16273(9)
C37_4 C 0.27594(11) 0.5184(3) 0.15133(9)
C38_4 C 0.36940(13) 0.6521(4) 0.15451(11)
H22_4 H 0.3842 0.6042 0.1825
C39_4 C 0.40282(13) 0.7558(4) 0.13624(11)
H23_4 H 0.4399 0.7782 0.1523
C40_4 C 0.38223(12) 0.8268(3) 0.09472(10)
C41_4 C 0.32747(13) 0.7889(4) 0.07041(10)
H24_4 H 0.3135 0.8325 0.0417
C42_4 C 0.29373(13) 0.6864(4) 0.08890(10)
H25_4 H 0.2569 0.6624 0.0726
C43_4 C 0.31386(11) 0.6188(3) 0.13132(10)
C44_4 C 0.41753(12) 0.9455(3) 0.07606(10)
N8_4 N 0.24204(10) 0.3846(3) 0.20314(8)
N9_4 N 0.28644(9) 0.4723(3) 0.19497(8)
H34_4 H 0.3187 0.4844 0.2203
N10_4 N 0.22496(9) 0.4635(3) 0.12974(7)
O12_4 O 0.46365(8) 0.9971(2) 0.10181(7)
O13_4 O 0.40161(9) 0.9929(3) 0.03593(7)
Cd2_5 Cd 0.0000 0.76036(3) 0.2500
C35_4 C 0.06867(11) 0.9997(3) 0.20939(9)
C45_4 C 0.10525(12) 0.7147(4) 0.33462(10)
H26_4 H 0.0810 0.7732 0.3485
C46_4 C 0.15818(13) 0.6703(4) 0.36020(10)
H27_4 H 0.1698 0.7003 0.3905
C47_4 C 0.19358(12) 0.5803(4) 0.33973(10)
C48_4 C 0.17626(13) 0.5424(4) 0.29413(11)
H28_4 H 0.1999 0.4847 0.2795
C49_4 C 0.12289(12) 0.5930(4) 0.27118(11)
H29_4 H 0.1108 0.5675 0.2406
C50_4 C 0.32548(12) 0.3735(4) 0.37571(10)
C51_4 C 0.34471(13) 0.4024(4) 0.42142(11)
H30_4 H 0.3237 0.4654 0.4371
C52_4 C 0.39620(14) 0.3349(4) 0.44332(11)
H31_4 H 0.4094 0.3528 0.4743
C53_4 C 0.40834(13) 0.2182(4) 0.37768(10)
H32_4 H 0.4303 0.1559 0.3626
C54_4 C 0.35703(13) 0.2788(4) 0.35319(10)
H33_4 H 0.3441 0.2563 0.3224
N11_4 N 0.08741(9) 0.6770(3) 0.29075(8)
N12_4 N 0.24762(10) 0.5303(3) 0.36774(9)
N13_4 N 0.27239(11) 0.4310(3) 0.34846(9)
N14_2 N 0.42789(10) 0.2450(3) 0.42186(8)
O10_4 O 0.02171(9) 0.9272(3) 0.19863(7)
O11_4 O 0.10245(10) 0.9849(3) 0.24662(7)
O7_4 O 0.56121(10) 0.3676(3) 0.44517(9)
H17_4 H 0.5411 0.4406 0.4541
H18_4 H 0.5954 0.3805 0.4569
C1_4 C 0.93819(11) 0.2324(3) 0.39935(9)
C2_4 C 0.95231(11) 0.1282(3) 0.36780(9)
H1_4 H 0.9861 0.0695 0.3752
C3_4 C 0.91601(11) 0.1117(3) 0.32514(9)
C4_4 C 0.86481(11) 0.1974(3) 0.31460(9)
H2_4 H 0.8406 0.1863 0.2860
C5_4 C 0.84962(11) 0.2987(3) 0.34619(9)
C6_4 C 0.88704(11) 0.3173(3) 0.38834(9)
H3_4 H 0.8777 0.3875 0.4094
C7_4 C 0.97601(12) 0.2521(3) 0.44578(9)
C9_4 C 0.79415(11) 0.3833(3) 0.33727(9)
C10_4 C 0.72406(11) 0.5184(3) 0.34867(9)
C11_4 C 0.63060(13) 0.6521(4) 0.34549(11)
H4_4 H 0.6158 0.6042 0.3175
C12_4 C 0.59718(13) 0.7558(4) 0.36376(11)
H5_4 H 0.5601 0.7782 0.3477
C13_4 C 0.61777(12) 0.8268(3) 0.40528(10)
C14_4 C 0.67253(13) 0.7889(4) 0.42959(10)
H6_4 H 0.6865 0.8325 0.4583
C15_4 C 0.70627(13) 0.6864(4) 0.41110(10)
H7_4 H 0.7431 0.6624 0.4274
C16_4 C 0.68614(11) 0.6188(3) 0.36868(10)
C17_4 C 0.58247(12) 0.9455(3) 0.42394(10)
N1_4 N 0.75796(10) 0.3846(3) 0.29686(8)
N2_4 N 0.71356(9) 0.4723(3) 0.30503(8)
H16_4 H 0.6813 0.4844 0.2797
N3_4 N 0.77504(9) 0.4635(3) 0.37026(7)
O5_4 O 0.53635(8) 0.9971(2) 0.39819(7)
O6_4 O 0.59839(9) 0.9929(3) 0.46407(7)
O9_4 O 0.98824(9) 0.1494(3) 0.03834(7)
Cd2_6 Cd 1.0000 0.76036(3) 0.2500
C8_4 C 0.93133(11) 0.9997(3) 0.29061(9)
C18_4 C 0.89475(12) 0.7147(4) 0.16538(10)
H8_4 H 0.9190 0.7732 0.1515
C19_4 C 0.84182(13) 0.6703(4) 0.13980(10)
H9_4 H 0.8302 0.7003 0.1095
C20_4 C 0.80642(12) 0.5803(4) 0.16027(10)
C21_4 C 0.82374(13) 0.5424(4) 0.20587(11)
H10_4 H 0.8001 0.4847 0.2205
C22_4 C 0.87711(12) 0.5930(4) 0.22882(11)
H11_4 H 0.8892 0.5675 0.2594
C23_4 C 0.67452(12) 0.3735(4) 0.12429(10)
C24_4 C 0.65529(13) 0.4024(4) 0.07858(11)
H12_4 H 0.6763 0.4654 0.0629
C25_4 C 0.60380(14) 0.3349(4) 0.05668(11)
H13_4 H 0.5906 0.3528 0.0257
C26_4 C 0.59166(13) 0.2182(4) 0.12232(10)
H14_4 H 0.5697 0.1559 0.1374
C27_4 C 0.64297(13) 0.2788(4) 0.14681(10)
H15_4 H 0.6559 0.2563 0.1776
N4_4 N 0.91259(9) 0.6770(3) 0.20925(8)
N5_4 N 0.75238(10) 0.5303(3) 0.13226(9)
N6_4 N 0.72761(11) 0.4310(3) 0.15154(9)
O3_4 O 0.97829(9) 0.9272(3) 0.30137(7)
O4_4 O 0.89755(10) 0.9849(3) 0.25338(7)
loop_
_geom_bond_atom_site_label_1
_geom_bond_atom_site_label_2
_geom_bond_site_symmetry_1
_geom_bond_site_symmetry_2
C23 C24 1_555 1_555
C24 H12 1_555 1_555
C25 C24 1_555 1_555
H13 C25 1_555 1_555
C26 H14 1_555 1_555
C27 C23 1_555 1_555
H15 C27 1_555 1_555
N6 C23 1_555 1_555
N7 C25 1_555 1_555
C50 C51 1_555 1_555
C51 H30 1_555 1_555
C52 C51 1_555 1_555
H31 C52 1_555 1_555
C53 H32 1_555 1_555
C54 C50 1_555 1_555
H33 C54 1_555 1_555
N13 C50 1_555 1_555
N16 C52 1_555 1_555
C26 C27 1_555 1_555
C26 N7 1_555 1_555
C53 C54 1_555 1_555
C53 N16 1_555 1_555
Cd2 N4 1_555 1_555
C1 C2 1_555 1_555
C2 H1 1_555 1_555
C3 C2 1_555 1_555
C4 C3 1_555 1_555
H2 C4 1_555 1_555
C5 C4 1_555 1_555
C6 C1 1_555 1_555
H3 C6 1_555 1_555
C7 C1 1_555 1_555
C8 C3 1_555 1_555
C9 C5 1_555 1_555
C18 H8 1_555 1_555
C19 C18 1_555 1_555
H9 C19 1_555 1_555
C20 C19 1_555 1_555
C21 C20 1_555 1_555
C22 C21 1_555 1_555
H11 C22 1_555 1_555
N1 C9 1_555 1_555
H16 N2 1_555 1_555
N3 C9 1_555 1_555
N4 C18 1_555 1_555
N5 C20 1_555 1_555
O1 C7 1_555 1_555
O2 C7 1_555 1_555
O3 Cd2 1_555 1_555
O4 C8 1_555 1_555
C28 C29 1_555 1_555
C29 H19 1_555 1_555
C30 C29 1_555 1_555
C31 C30 1_555 1_555
H20 C31 1_555 1_555
C32 C31 1_555 1_555
C33 C28 1_555 1_555
H21 C33 1_555 1_555
C34 C28 1_555 1_555
C35 C30 1_555 1_555
C36 C32 1_555 1_555
C45 H26 1_555 1_555
C46 C45 1_555 1_555
H27 C46 1_555 1_555
C47 C46 1_555 1_555
C48 C47 1_555 1_555
C49 C48 1_555 1_555
H29 C49 1_555 1_555
N8 C36 1_555 1_555
H34 N9 1_555 1_555
N10 C36 1_555 1_555
N11 Cd2 1_555 1_555
N12 C47 1_555 1_555
O8 C34 1_555 1_555
O9 C34 1_555 1_555
O10 Cd2 1_555 1_555
O11 C35 1_555 1_555
Cd8 O1 1_555 1_555
C5 C6 1_555 1_555
C8 O3 1_555 1_555
C22 N4 1_555 1_555
N1 N2 1_555 1_555
C32 C33 1_555 1_555
C35 O10 1_555 1_555
C45 N11 1_555 1_555
C49 N11 1_555 1_555
N8 N9 1_555 1_555
Cd1 O5 1_555 1_555
C10 C16 1_555 1_555
C11 H4 1_555 1_555
C12 C11 1_555 1_555
H5 C12 1_555 1_555
C13 C12 1_555 1_555
C14 C13 1_555 1_555
H6 C14 1_555 1_555
C15 C14 1_555 1_555
H7 C15 1_555 1_555
C16 C11 1_555 1_555
C17 C13 1_555 1_555
O5 C17 1_555 1_555
O6 Cd1 1_555 1_555
O7 Cd1 1_555 1_555
H17 O7 1_555 1_555
H18 O7 1_555 1_555
Cd5 O12 1_555 1_555
C37 C43 1_555 1_555
C38 H22 1_555 1_555
C39 C38 1_555 1_555
H23 C39 1_555 1_555
C40 C39 1_555 1_555
C41 C40 1_555 1_555
H24 C41 1_555 1_555
C42 C41 1_555 1_555
H25 C42 1_555 1_555
C43 C38 1_555 1_555
C44 C40 1_555 1_555
O12 C44 1_555 1_555
O13 Cd5 1_555 1_555
O14 Cd5 1_555 1_555
H35 O14 1_555 1_555
H36 O14 1_555 1_555
O17 Cd1 1_555 1_555
C15 C16 1_555 1_555
C17 O6 1_555 1_555
C42 C43 1_555 1_555
C44 O13 1_555 1_555
Cd2_2 N4_2 1_555 1_555
C18_2 H8_2 1_555 1_555
C19_2 C18_2 1_555 1_555
H9_2 C19_2 1_555 1_555
C20_2 C19_2 1_555 1_555
C21_2 C20_2 1_555 1_555
H10_2 C21_2 1_555 1_555
C22_2 C21_2 1_555 1_555
H11_2 C22_2 1_555 1_555
C23_2 C24_2 1_555 1_555
C24_2 H12_2 1_555 1_555
C25_2 C24_2 1_555 1_555
H13_2 C25_2 1_555 1_555
C26_2 H14_2 1_555 1_555
C27_2 C23_2 1_555 1_555
H15_2 C27_2 1_555 1_555
N4_2 C18_2 1_555 1_555
N5_2 C20_2 1_555 1_555
N6_2 C23_2 1_555 1_555
N7_2 C25_2 1_555 1_555
O3_2 Cd2_2 1_555 1_555
O4_2 C8_2 1_555 1_555
Cd7 N7_2 1_555 1_555
C8_2 O3_2 1_555 1_555
C22_2 N4_2 1_555 1_555
C26_2 C27_2 1_555 1_555
C26_2 N7_2 1_555 1_555
N5_2 N6_2 1_555 1_555
C1_2 C2_2 1_555 1_555
C2_2 H1_2 1_555 1_555
C3_2 C2_2 1_555 1_555
C4_2 C3_2 1_555 1_555
H2_2 C4_2 1_555 1_555
C5_2 C4_2 1_555 1_555
C6_2 C1_2 1_555 1_555
H3_2 C6_2 1_555 1_555
C7_2 C1_2 1_555 1_555
C9_2 C5_2 1_555 1_555
C10_2 C16_2 1_555 1_555
C11_2 H4_2 1_555 1_555
C12_2 C11_2 1_555 1_555
H5_2 C12_2 1_555 1_555
C13_2 C12_2 1_555 1_555
C14_2 C13_2 1_555 1_555
H6_2 C14_2 1_555 1_555
C15_2 C14_2 1_555 1_555
H7_2 C15_2 1_555 1_555
C16_2 C11_2 1_555 1_555
C17_2 C13_2 1_555 1_555
N1_2 C9_2 1_555 1_555
N2_2 C10_2 1_555 1_555
H16_2 N2_2 1_555 1_555
N3_2 C9_2 1_555 1_555
O15 C7_2 1_555 1_555
O5_2 C17_2 1_555 1_555
Cd8_2 O15 1_555 1_555
C5_2 C6_2 1_555 1_555
C10_2 N3_2 1_555 1_555
C15_2 C16_2 1_555 1_555
C17_2 O6_2 1_555 1_555
N1_2 N2_2 1_555 1_555
O7_2 Cd6 1_555 1_555
H17_2 O7_2 1_555 1_555
H18_2 O7_2 1_555 1_555
N16_2 Cd6 1_555 1_555
O17_2 Cd6 1_555 1_555
C45_2 H26_2 1_555 1_555
C46_2 C45_2 1_555 1_555
H27_2 C46_2 1_555 1_555
C47_2 C46_2 1_555 1_555
C48_2 C47_2 1_555 1_555
H28_2 C48_2 1_555 1_555
C49_2 C48_2 1_555 1_555
H29_2 C49_2 1_555 1_555
C50_2 C51_2 1_555 1_555
C51_2 H30_2 1_555 1_555
C52_2 C51_2 1_555 1_555
H31_2 C52_2 1_555 1_555
C53_2 H32_2 1_555 1_555
C54_2 C50_2 1_555 1_555
H33_2 C54_2 1_555 1_555
N11_2 Cd2_3 1_555 1_555
N12_2 C47_2 1_555 1_555
N13_2 C50_2 1_555 1_555
N16_2 C52_2 1_555 1_555
O10_2 Cd2_3 1_555 1_555
O11_2 C35_2 1_555 1_555
C35_2 O10_2 1_555 1_555
C45_2 N11_2 1_555 1_555
C49_2 N11_2 1_555 1_555
C53_2 C54_2 1_555 1_555
C53_2 N16_2 1_555 1_555
N12_2 N13_2 1_555 1_555
C28_2 C29_2 1_555 1_555
C29_2 H19_2 1_555 1_555
C30_2 C29_2 1_555 1_555
C31_2 C30_2 1_555 1_555
H20_2 C31_2 1_555 1_555
C32_2 C31_2 1_555 1_555
C33_2 C28_2 1_555 1_555
H21_2 C33_2 1_555 1_555
C34_2 C28_2 1_555 1_555
C36_2 C32_2 1_555 1_555
C37_2 C43_2 1_555 1_555
C38_2 H22_2 1_555 1_555
C39_2 C38_2 1_555 1_555
H23_2 C39_2 1_555 1_555
C40_2 C39_2 1_555 1_555
C41_2 C40_2 1_555 1_555
H24_2 C41_2 1_555 1_555
C42_2 C41_2 1_555 1_555
H25_2 C42_2 1_555 1_555
C43_2 C38_2 1_555 1_555
C44_2 C40_2 1_555 1_555
N8_2 C36_2 1_555 1_555
N9_2 C37_2 1_555 1_555
H34_2 N9_2 1_555 1_555
N10_2 C36_2 1_555 1_555
O16 C34_2 1_555 1_555
O12_2 C44_2 1_555 1_555
C32_2 C33_2 1_555 1_555
C37_2 N10_2 1_555 1_555
C42_2 C43_2 1_555 1_555
C44_2 O13_2 1_555 1_555
N8_2 N9_2 1_555 1_555
O14_2 Cd7 1_555 1_555
H35_2 O14_2 1_555 1_555
H36_2 O14_2 1_555 1_555
Cd8_2 O5_3 1_555 1_555
C10_3 C16_3 1_555 1_555
C11_3 H4_3 1_555 1_555
C12_3 C11_3 1_555 1_555
H5_3 C12_3 1_555 1_555
C13_3 C12_3 1_555 1_555
C14_3 C13_3 1_555 1_555
H6_3 C14_3 1_555 1_555
C15_3 C14_3 1_555 1_555
H7_3 C15_3 1_555 1_555
C16_3 C11_3 1_555 1_555
C17_3 C13_3 1_555 1_555
O5_3 C17_3 1_555 1_555
O6_3 Cd8_2 1_555 1_555
O7_3 Cd8_2 1_555 1_555
H17_3 O7_3 1_555 1_555
H18_3 O7_3 1_555 1_555
Cd9_2 O12_3 1_555 1_555
C37_3 C43_3 1_555 1_555
C38_3 H22_3 1_555 1_555
C39_3 C38_3 1_555 1_555
H23_3 C39_3 1_555 1_555
C40_3 C39_3 1_555 1_555
C41_3 C40_3 1_555 1_555
H24_3 C41_3 1_555 1_555
C42_3 C41_3 1_555 1_555
H25_3 C42_3 1_555 1_555
C43_3 C38_3 1_555 1_555
C44_3 C40_3 1_555 1_555
O12_3 C44_3 1_555 1_555
O13_3 Cd9_2 1_555 1_555
O14_3 Cd9_2 1_555 1_555
H35_3 O14_3 1_555 1_555
H36_3 O14_3 1_555 1_555
C15_3 C16_3 1_555 1_555
C17_3 O6_3 1_555 1_555
C42_3 C43_3 1_555 1_555
C44_3 O13_3 1_555 1_555
Cd2_4 N4_3 1_555 1_555
C1_3 C2_3 1_555 1_555
C2_3 H1_3 1_555 1_555
C3_3 C2_3 1_555 1_555
C4_3 C3_3 1_555 1_555
H2_3 C4_3 1_555 1_555
C5_3 C4_3 1_555 1_555
C6_3 C1_3 1_555 1_555
H3_3 C6_3 1_555 1_555
C7_3 C1_3 1_555 1_555
C8_3 C3_3 1_555 1_555
C9_3 C5_3 1_555 1_555
C18_3 H8_3 1_555 1_555
C19_3 C18_3 1_555 1_555
H9_3 C19_3 1_555 1_555
C20_3 C19_3 1_555 1_555
C21_3 C20_3 1_555 1_555
C22_3 C21_3 1_555 1_555
H11_3 C22_3 1_555 1_555
N1_3 C9_3 1_555 1_555
H16_3 N2_3 1_555 1_555
N3_3 C9_3 1_555 1_555
N4_3 C18_3 1_555 1_555
N5_3 C20_3 1_555 1_555
O17_2 C7_3 1_555 1_555
O2_3 C7_3 1_555 1_555
O3_3 Cd2_4 1_555 1_555
O4_3 C8_3 1_555 1_555
C28_3 C29_3 1_555 1_555
C29_3 H19_3 1_555 1_555
C30_3 C29_3 1_555 1_555
C31_3 C30_3 1_555 1_555
H20_3 C31_3 1_555 1_555
C32_3 C31_3 1_555 1_555
C33_3 C28_3 1_555 1_555
H21_3 C33_3 1_555 1_555
C34_3 C28_3 1_555 1_555
C35_3 C30_3 1_555 1_555
C36_3 C32_3 1_555 1_555
C45_3 H26_3 1_555 1_555
C46_3 C45_3 1_555 1_555
H27_3 C46_3 1_555 1_555
C47_3 C46_3 1_555 1_555
C48_3 C47_3 1_555 1_555
C49_3 C48_3 1_555 1_555
H29_3 C49_3 1_555 1_555
N8_3 C36_3 1_555 1_555
H34_3 N9_3 1_555 1_555
N10_3 C36_3 1_555 1_555
N11_3 Cd2_4 1_555 1_555
N12_3 C47_3 1_555 1_555
O18_2 C34_3 1_555 1_555
O9_3 C34_3 1_555 1_555
O10_3 Cd2_4 1_555 1_555
O11_3 C35_3 1_555 1_555
C5_3 C6_3 1_555 1_555
C8_3 O3_3 1_555 1_555
C22_3 N4_3 1_555 1_555
N1_3 N2_3 1_555 1_555
C32_3 C33_3 1_555 1_555
C35_3 O10_3 1_555 1_555
C45_3 N11_3 1_555 1_555
C49_3 N11_3 1_555 1_555
N8_3 N9_3 1_555 1_555
C23_3 C24_3 1_555 1_555
C24_3 H12_3 1_555 1_555
C25_3 C24_3 1_555 1_555
H13_3 C25_3 1_555 1_555
C26_3 H14_3 1_555 1_555
C27_3 C23_3 1_555 1_555
H15_3 C27_3 1_555 1_555
N6_3 C23_3 1_555 1_555
N15 C25_3 1_555 1_555
C50_3 C51_3 1_555 1_555
C51_3 H30_3 1_555 1_555
C52_3 C51_3 1_555 1_555
H31_3 C52_3 1_555 1_555
C53_3 H32_3 1_555 1_555
C54_3 C50_3 1_555 1_555
H33_3 C54_3 1_555 1_555
N13_3 C50_3 1_555 1_555
N14 C52_3 1_555 1_555
C26_3 C27_3 1_555 1_555
C26_3 N15 1_555 1_555
C53_3 C54_3 1_555 1_555
C53_3 N14 1_555 1_555
O14_4 Cd9 1_555 1_555
H35_4 O14_4 1_555 1_555
H36_4 O14_4 1_555 1_555
N15_2 Cd9 1_555 1_555
C28_4 C29_4 1_555 1_555
C29_4 H19_4 1_555 1_555
C30_4 C29_4 1_555 1_555
C31_4 C30_4 1_555 1_555
H20_4 C31_4 1_555 1_555
C32_4 C31_4 1_555 1_555
C33_4 C28_4 1_555 1_555
H21_4 C33_4 1_555 1_555
C34_4 C28_4 1_555 1_555
C36_4 C32_4 1_555 1_555
C37_4 C43_4 1_555 1_555
C38_4 H22_4 1_555 1_555
C39_4 C38_4 1_555 1_555
H23_4 C39_4 1_555 1_555
C40_4 C39_4 1_555 1_555
C41_4 C40_4 1_555 1_555
H24_4 C41_4 1_555 1_555
C42_4 C41_4 1_555 1_555
H25_4 C42_4 1_555 1_555
C43_4 C38_4 1_555 1_555
C44_4 C40_4 1_555 1_555
N8_4 C36_4 1_555 1_555
N9_4 C37_4 1_555 1_555
H34_4 N9_4 1_555 1_555
N10_4 C36_4 1_555 1_555
O18 C34_4 1_555 1_555
O12_4 C44_4 1_555 1_555
C32_4 C33_4 1_555 1_555
C37_4 N10_4 1_555 1_555
C42_4 C43_4 1_555 1_555
C44_4 O13_4 1_555 1_555
N8_4 N9_4 1_555 1_555
C45_4 H26_4 1_555 1_555
C46_4 C45_4 1_555 1_555
H27_4 C46_4 1_555 1_555
C47_4 C46_4 1_555 1_555
C48_4 C47_4 1_555 1_555
H28_4 C48_4 1_555 1_555
C49_4 C48_4 1_555 1_555
H29_4 C49_4 1_555 1_555
C50_4 C51_4 1_555 1_555
C51_4 H30_4 1_555 1_555
C52_4 C51_4 1_555 1_555
H31_4 C52_4 1_555 1_555
C53_4 H32_4 1_555 1_555
C54_4 C50_4 1_555 1_555
H33_4 C54_4 1_555 1_555
N11_4 Cd2_5 1_555 1_555
N12_4 C47_4 1_555 1_555
N13_4 C50_4 1_555 1_555
N14_2 C52_4 1_555 1_555
O10_4 Cd2_5 1_555 1_555
O11_4 C35_4 1_555 1_555
Cd8 N14_2 1_555 1_555
C35_4 O10_4 1_555 1_555
C45_4 N11_4 1_555 1_555
C49_4 N11_4 1_555 1_555
C53_4 C54_4 1_555 1_555
C53_4 N14_2 1_555 1_555
N12_4 N13_4 1_555 1_555
O7_4 Cd8 1_555 1_555
H17_4 O7_4 1_555 1_555
H18_4 O7_4 1_555 1_555
C1_4 C2_4 1_555 1_555
C2_4 H1_4 1_555 1_555
C3_4 C2_4 1_555 1_555
C4_4 C3_4 1_555 1_555
H2_4 C4_4 1_555 1_555
C5_4 C4_4 1_555 1_555
C6_4 C1_4 1_555 1_555
H3_4 C6_4 1_555 1_555
C7_4 C1_4 1_555 1_555
C9_4 C5_4 1_555 1_555
C10_4 C16_4 1_555 1_555
C11_4 H4_4 1_555 1_555
C12_4 C11_4 1_555 1_555
H5_4 C12_4 1_555 1_555
C13_4 C12_4 1_555 1_555
C14_4 C13_4 1_555 1_555
H6_4 C14_4 1_555 1_555
C15_4 C14_4 1_555 1_555
H7_4 C15_4 1_555 1_555
C16_4 C11_4 1_555 1_555
C17_4 C13_4 1_555 1_555
N1_4 C9_4 1_555 1_555
N2_4 C10_4 1_555 1_555
H16_4 N2_4 1_555 1_555
N3_4 C9_4 1_555 1_555
O17 C7_4 1_555 1_555
O5_4 C17_4 1_555 1_555
C5_4 C6_4 1_555 1_555
C10_4 N3_4 1_555 1_555
C15_4 C16_4 1_555 1_555
C17_4 O6_4 1_555 1_555
N1_4 N2_4 1_555 1_555
Cd2_6 N4_4 1_555 1_555
C18_4 H8_4 1_555 1_555
C19_4 C18_4 1_555 1_555
H9_4 C19_4 1_555 1_555
C20_4 C19_4 1_555 1_555
C21_4 C20_4 1_555 1_555
H10_4 C21_4 1_555 1_555
C22_4 C21_4 1_555 1_555
H11_4 C22_4 1_555 1_555
C23_4 C24_4 1_555 1_555
C24_4 H12_4 1_555 1_555
C25_4 C24_4 1_555 1_555
H13_4 C25_4 1_555 1_555
C26_4 H14_4 1_555 1_555
C27_4 C23_4 1_555 1_555
H15_4 C27_4 1_555 1_555
N4_4 C18_4 1_555 1_555
N5_4 C20_4 1_555 1_555
N6_4 C23_4 1_555 1_555
N15_2 C25_4 1_555 1_555
O3_4 Cd2_6 1_555 1_555
O4_4 C8_4 1_555 1_555
C8_4 O3_4 1_555 1_555
C22_4 N4_4 1_555 1_555
C26_4 C27_4 1_555 1_555
C26_4 N15_2 1_555 1_555
N5_4 N6_4 1_555 1_555

#END
