
###############################################################################
#
# This file contains modified crystal structure data generated from the
# MOF subset of the Cambridge Structural Database (CSD) v543 
# hosted by the Cambridge Crystallographic Data Centre (CCDC).
#
# This work is licensed under the Creative Commons
# Attribution-NonCommercial-ShareAlike 4.0 International License.
# To view a copy of this license, visit
# http://creativecommons.org/licenses/by-nc-sa/4.0/
# or send a letter to
# Creative Commons, PO Box 1866, Mountain View, CA 94042, USA.
#
# CIF created using the CSD Python API on 29 September 2022
# The structure has been converted into the P1 space group
# The structure has a 3D framework
# The original CSD entry KOJTOU is in the monoclinic crystal system
# The framework has been calculated to contain at least 10.0% void space
# The void calculation uses a probe of radius 1.32A, grid spacing 0.4
#
###############################################################################

data_KOJTOU
_chemical_formula_moiety         '(C120 H120 N16 Ni16 O62)n'
_symmetry_cell_setting           triclinic
_symmetry_space_group_name_H-M   'P 1'
_symmetry_Int_Tables_number      1
_space_group_name_Hall           'P 1'
loop_
_symmetry_equiv_pos_site_id
_symmetry_equiv_pos_as_xyz
1 x,y,z
_cell_length_a                   12.8539(5)
_cell_length_b                   14.4578(8)
_cell_length_c                   30.4530(17)
_cell_angle_alpha                90
_cell_angle_beta                 96.497(5)
_cell_angle_gamma                90
_cell_volume                     5623.01
loop_
_atom_site_label
_atom_site_type_symbol
_atom_site_fract_x
_atom_site_fract_y
_atom_site_fract_z
O14 O 0.23834(18) 0.01501(17) 0.15509(9)
H3 H 0.1952 0.0187 0.1748
H4 H 0.2368 0.0666 0.1408
O2 O 0.07542(16) 0.10210(16) 0.89223(8)
C8 C 0.0330(3) 0.0329(2) 0.90852(12)
H19 H 0.2564 0.0443 0.8861
Ni7 Ni 0.12724(3) 0.21762(3) 0.933594(15)
Ni11 Ni 0.02667(3) 0.19010(3) 0.838866(15)
Ni2 Ni 0.19672(3) 0.90705(3) 0.111829(15)
Ni3 Ni 0.12926(3) 0.70616(3) 0.119069(15)
O1 O 0.14677(17) 0.79637(16) 0.06652(8)
O4 O 0.28879(17) 0.69812(17) 0.13018(8)
O5 O 0.00766(17) 0.71096(16) 0.20889(8)
O6 O 0.11999(17) 0.62570(16) 0.17397(8)
O7 O 0.12734(16) 0.82823(15) 0.15373(8)
H2 H 0.1707 0.8235 0.1822
O11 O 0.81930(16) 0.78606(16) 0.16834(8)
O12 O 0.74457(17) 0.75890(17) 0.09889(8)
O13 O 0.33918(17) 0.84726(17) 0.13071(9)
O15 O 0.26271(19) 0.97990(19) 0.06363(9)
H5 H 0.2200 0.9822 0.0395
H6 H 0.3199 0.9532 0.0579
N1 N 0.0313(2) 0.41444(19) 0.29302(10)
C1 C 0.6479(2) 0.7281(2) 0.15889(12)
N3 N 0.1417(2) 0.5865(2) 0.08277(10)
C2 C 0.1961(3) 0.5150(3) 0.10262(13)
H9 H 0.2228 0.5209 0.1322
N4 N 0.5658(2) 0.6381(2) 0.21166(11)
O17 O 0.2167(2) 0.26460(19) 0.03623(10)
C4 C 0.1246(3) 0.4982(3) 0.01592(13)
C5 C 0.4611(2) 0.7320(3) 0.15889(12)
C9 C 0.0846(3) 0.8139(2) 0.03197(12)
C10 C 0.3533(3) 0.7617(3) 0.13828(12)
C11 C 0.0613(2) 0.6388(2) 0.20368(12)
C14 C 0.7449(2) 0.7601(2) 0.14061(13)
C16 C 0.1770(3) 0.4237(3) 0.03682(13)
C17 C 0.0530(2) 0.5615(2) 0.23566(12)
C18 C 0.1077(3) 0.5774(3) 0.04003(13)
H14 H 0.0710 0.6262 0.0257
C19 C 0.6521(3) 0.6660(3) 0.19423(13)
C21 C 0.5499(2) 0.7609(2) 0.14154(12)
H15 H 0.5444 0.8024 0.1181
C22 C 0.0896(3) 0.4057(3) 0.25931(13)
H16 H 0.1230 0.3497 0.2554
C23 C 0.1017(3) 0.4770(3) 0.23028(13)
H17 H 0.1422 0.4687 0.2072
C24 C 0.1885(3) 0.3334(3) 0.01260(13)
C26 C 0.3041(3) 0.7697(3) 0.00583(14)
H22 H 0.2744 0.7087 0.0049
H23 H 0.3174 0.7897 0.0360
C27 C 0.7537(3) 0.6238(3) 0.21507(15)
H24 H 0.7398 0.5838 0.2389
H25 H 0.8007 0.6721 0.2263
H26 H 0.7851 0.5887 0.1933
C28 C 0.2136(3) 0.4338(3) 0.08098(14)
H27 H 0.2501 0.3858 0.0961
C29 C 0.4710(3) 0.6703(3) 0.19427(13)
C30 C 0.3796(3) 0.6396(3) 0.21753(15)
H28 H 0.4036 0.5978 0.2410
H29 H 0.3291 0.6089 0.1969
H30 H 0.3477 0.6926 0.2295
Ni5 Ni 0.87276(3) 0.78238(3) 0.066406(15)
Ni9 Ni 0.97333(3) 0.80990(3) 0.161134(15)
Ni10 Ni 0.02667(3) 0.30990(3) 0.338866(15)
O19 O 0.06394(17) 0.98040(16) 0.09172(8)
O9 O 0.16740(17) 0.33457(17) 0.97129(8)
N2 N 0.2619(2) 0.8744(2) 0.94441(10)
C3 C 0.1029(3) 0.9603(2) 0.93190(12)
H10 H 0.1010 0.4952 0.9859
C6 C 0.0662(3) 0.9153(2) 0.96661(12)
C13 C 0.2294(3) 0.8347(2) 0.98083(13)
C15 C 0.1291(3) 0.8543(2) 0.99276(12)
C20 C 0.2027(3) 0.9380(2) 0.92100(13)
C25 C 0.2496(3) 0.9785(3) 0.88235(13)
H18 H 0.3174 0.9519 0.8806
H20 H 0.2050 0.9654 0.8556
H21 H 0.3686 0.7688 0.9927
O8 O 0.93606(17) 0.01960(16) 0.90828(8)
Ni8 Ni 0.80328(3) 0.09295(3) 0.888171(15)
O3 O 0.97009(17) 0.71444(16) 0.11129(8)
H1 H 0.9387 0.6563 0.1198
O10 O 0.98763(17) 0.80313(16) 0.02689(8)
O16 O 0.78382(17) 0.86828(17) 0.02117(9)
H7 H 0.8150 0.9206 0.0190
H8 H 0.7233 0.8782 0.0299
C7 C 0.9839(3) 0.4958(2) 0.29767(12)
H12 H 0.9423 0.5020 0.3206
C12 C 0.9931(2) 0.5698(2) 0.27080(12)
H13 H 0.9597 0.6253 0.2758
O18 O 0.92458(16) 0.89790(16) 0.10777(8)
O20 O 0.83260(17) 0.66543(17) 0.02871(8)
N5 N 0.9687(2) 0.91444(19) 0.20698(10)
Ni1 Ni 0.12724(3) 0.28238(3) 0.433594(15)
O3_2 O 0.02991(17) 0.21444(16) 0.38871(8)
H1_2 H 0.0613 0.1563 0.3802
O8_2 O 0.06394(17) 0.51960(16) 0.59172(8)
O10_2 O 0.01237(17) 0.30313(16) 0.47311(8)
O16_2 O 0.21618(17) 0.36828(17) 0.47883(9)
H7_2 H 0.1850 0.4206 0.4810
H8_2 H 0.2767 0.3782 0.4701
H11 H 0.0020 0.4259 0.5273
H12_2 H 0.0577 0.0020 0.1794
C12_2 C 0.0069(2) 0.0698(2) 0.22920(12)
H13_2 H 0.0403 0.1253 0.2242
Ni8_2 Ni 0.19672(3) 0.59295(3) 0.611829(15)
O18_2 O 0.07542(16) 0.39790(16) 0.39223(8)
O20_2 O 0.16740(17) 0.16543(17) 0.47129(8)
O21 O 0.18070(16) 0.28606(16) 0.33166(8)
O22 O 0.25543(17) 0.25890(17) 0.40111(8)
Ni2_2 Ni 0.80328(3) 0.40705(3) 0.388171(15)
Ni3_2 Ni 0.87074(3) 0.20616(3) 0.380931(15)
O1_2 O 0.85323(17) 0.29637(16) 0.43348(8)
O2_2 O 0.92458(16) 0.60210(16) 0.60777(8)
O4_2 O 0.71121(17) 0.19812(17) 0.36982(8)
O5_2 O 0.99234(17) 0.21096(16) 0.29111(8)
O6_2 O 0.88001(17) 0.12570(16) 0.32603(8)
O7_2 O 0.87266(16) 0.32823(15) 0.34627(8)
H2_2 H 0.8293 0.3235 0.3178
O13_2 O 0.66082(17) 0.34726(17) 0.36929(9)
O14_2 O 0.76166(18) 0.51501(17) 0.34491(9)
H3_2 H 0.8048 0.5187 0.3252
H4_2 H 0.7632 0.5666 0.3592
O15_2 O 0.73729(19) 0.47990(19) 0.43637(9)
H5_2 H 0.7800 0.4822 0.4605
H6_2 H 0.6801 0.4532 0.4421
N2_2 N 0.7381(2) 0.3744(2) 0.55559(10)
C1_2 C 0.3521(2) 0.2281(2) 0.34111(12)
N3_2 N 0.8583(2) 0.0865(2) 0.41723(10)
C2_2 C 0.8039(3) 0.0150(3) 0.39738(13)
H9_2 H 0.7772 0.0209 0.3678
N4_2 N 0.4342(2) 0.1381(2) 0.28834(11)
C3_2 C 0.8971(3) 0.4603(2) 0.56810(12)
C5_2 C 0.5389(2) 0.2320(3) 0.34111(12)
C6_2 C 0.9338(3) 0.4153(2) 0.53339(12)
C8_2 C 0.9670(3) 0.5329(2) 0.59148(12)
C9_2 C 0.9154(3) 0.3139(2) 0.46803(12)
C10_2 C 0.6467(3) 0.2617(3) 0.36172(12)
C11_2 C 0.9387(2) 0.1388(2) 0.29632(12)
C13_2 C 0.7706(3) 0.3347(2) 0.51917(13)
C14_2 C 0.2551(2) 0.2601(2) 0.35939(13)
C15_2 C 0.8709(3) 0.3543(2) 0.50724(12)
C17_2 C 0.9470(2) 0.0615(2) 0.26434(12)
C18_2 C 0.8923(3) 0.0774(3) 0.45997(13)
H14_2 H 0.9290 0.1262 0.4743
C19_2 C 0.3479(3) 0.1660(3) 0.30577(13)
C20_2 C 0.7973(3) 0.4380(2) 0.57900(13)
C21_2 C 0.4501(2) 0.2609(2) 0.35846(12)
H15_2 H 0.4556 0.3024 0.3819
C25_2 C 0.7504(3) 0.4785(3) 0.61765(13)
H18_2 H 0.6826 0.4519 0.6194
H19_2 H 0.7436 0.5443 0.6139
H20_2 H 0.7950 0.4654 0.6444
C26_2 C 0.6959(3) 0.2697(3) 0.49417(14)
H21_2 H 0.6314 0.2688 0.5073
H22_2 H 0.7256 0.2087 0.4951
H23_2 H 0.6826 0.2897 0.4640
C27_2 C 0.2463(3) 0.1238(3) 0.28493(15)
H24_2 H 0.2602 0.0838 0.2611
H25_2 H 0.1993 0.1721 0.2737
H26_2 H 0.2149 0.0887 0.3067
C29_2 C 0.5290(3) 0.1703(3) 0.30573(13)
C30_2 C 0.6204(3) 0.1396(3) 0.28247(15)
H28_2 H 0.5964 0.0978 0.2590
H29_2 H 0.6709 0.1089 0.3031
H30_2 H 0.6523 0.1926 0.2705
Ni7_2 Ni 0.87276(3) 0.71762(3) 0.566406(15)
Ni11_2 Ni 0.97333(3) 0.69010(3) 0.661134(15)
O19_2 O 0.93606(17) 0.48040(16) 0.40828(8)
O9_2 O 0.83260(17) 0.83457(17) 0.52871(8)
O17_2 O 0.7833(2) 0.76460(19) 0.46377(10)
C4_2 C 0.8754(3) 0.9982(3) 0.48408(13)
H10_2 H 0.8990 0.9952 0.5141
C16_2 C 0.8230(3) 0.9237(3) 0.46318(13)
C22_2 C 0.9104(3) 0.9057(3) 0.24069(13)
H16_2 H 0.8770 0.8497 0.2446
C23_2 C 0.8983(3) 0.9770(3) 0.26972(13)
H17_2 H 0.8578 0.9687 0.2928
C24_2 C 0.8115(3) 0.8334(3) 0.48740(13)
C28_2 C 0.7864(3) 0.9338(3) 0.41902(14)
H27_2 H 0.7499 0.8858 0.4039
O3_3 O 0.02991(17) 0.28556(16) 0.88871(8)
H1_3 H 0.0613 0.3437 0.8802
O10_3 O 0.01237(17) 0.19687(16) 0.97311(8)
O16_3 O 0.21618(17) 0.13172(17) 0.97883(9)
H7_3 H 0.1850 0.0794 0.9810
H8_3 H 0.2767 0.1218 0.9701
C7_2 C 0.0161(3) 0.5042(2) 0.70233(12)
H12_3 H 0.0577 0.4980 0.6794
C12_3 C 0.0069(2) 0.4302(2) 0.72920(12)
H13_3 H 0.0403 0.3747 0.7242
O21_2 O 0.18070(16) 0.21394(16) 0.83166(8)
O22_2 O 0.25543(17) 0.24110(17) 0.90111(8)
N5_2 N 0.0313(2) 0.08556(19) 0.79302(10)
N2_3 N 0.7381(2) 0.1256(2) 0.05559(10)
C3_3 C 0.8971(3) 0.0397(2) 0.06810(12)
H10_3 H 0.8990 0.5048 0.0141
C6_3 C 0.9338(3) 0.0847(2) 0.03339(12)
C13_3 C 0.7706(3) 0.1653(2) 0.01917(13)
C15_3 C 0.8709(3) 0.1457(2) 0.00724(12)
C20_3 C 0.7973(3) 0.0620(2) 0.07900(13)
C25_3 C 0.7504(3) 0.0215(3) 0.11765(13)
H18_3 H 0.6826 0.0481 0.1194
H20_3 H 0.7950 0.0346 0.1444
H21_3 H 0.6314 0.2312 0.0073
Ni3_3 Ni 0.87074(3) 0.29384(3) 0.880931(15)
O1_3 O 0.85323(17) 0.20363(16) 0.93348(8)
O4_3 O 0.71121(17) 0.30188(17) 0.86982(8)
O5_3 O 0.99234(17) 0.28904(16) 0.79111(8)
O6_3 O 0.88001(17) 0.37430(16) 0.82603(8)
O7_3 O 0.87266(16) 0.17177(15) 0.84627(8)
H2_3 H 0.8293 0.1765 0.8178
O13_3 O 0.66082(17) 0.15274(17) 0.86929(9)
O15_3 O 0.73729(19) 0.02010(19) 0.93637(9)
H5_3 H 0.7800 0.0178 0.9605
H6_3 H 0.6801 0.0468 0.9421
N1_2 N 0.9687(2) 0.58556(19) 0.70698(10)
C1_3 C 0.3521(2) 0.2719(2) 0.84111(12)
N3_3 N 0.8583(2) 0.4135(2) 0.91723(10)
C2_3 C 0.8039(3) 0.4850(3) 0.89738(13)
H9_3 H 0.7772 0.4791 0.8678
N4_3 N 0.4342(2) 0.3619(2) 0.78834(11)
O17_3 O 0.7833(2) 0.73540(19) 0.96377(10)
C4_3 C 0.8754(3) 0.5018(3) 0.98408(13)
C5_3 C 0.5389(2) 0.2680(3) 0.84111(12)
C9_3 C 0.9154(3) 0.1861(2) 0.96803(12)
C10_3 C 0.6467(3) 0.2383(3) 0.86172(12)
C11_3 C 0.9387(2) 0.3612(2) 0.79632(12)
C14_3 C 0.2551(2) 0.2399(2) 0.85939(13)
C16_3 C 0.8230(3) 0.5763(3) 0.96318(13)
C17_3 C 0.9470(2) 0.4385(2) 0.76434(12)
C18_3 C 0.8923(3) 0.4226(3) 0.95997(13)
H14_3 H 0.9290 0.3738 0.9743
C19_3 C 0.3479(3) 0.3340(3) 0.80577(13)
C21_3 C 0.4501(2) 0.2391(2) 0.85846(12)
H15_3 H 0.4556 0.1976 0.8819
C22_3 C 0.9104(3) 0.5943(3) 0.74069(13)
H16_3 H 0.8770 0.6503 0.7446
C23_3 C 0.8983(3) 0.5230(3) 0.76972(13)
H17_3 H 0.8578 0.5313 0.7928
C24_3 C 0.8115(3) 0.6666(3) 0.98740(13)
C26_3 C 0.6959(3) 0.2303(3) 0.99417(14)
H22_3 H 0.7256 0.2913 0.9951
H23_3 H 0.6826 0.2103 0.9640
C27_3 C 0.2463(3) 0.3762(3) 0.78493(15)
H24_3 H 0.2602 0.4162 0.7611
H25_3 H 0.1993 0.3279 0.7737
H26_3 H 0.2149 0.4113 0.8067
C28_3 C 0.7864(3) 0.5662(3) 0.91902(14)
H27_3 H 0.7499 0.6142 0.9039
C29_3 C 0.5290(3) 0.3297(3) 0.80573(13)
C30_3 C 0.6204(3) 0.3604(3) 0.78247(15)
H28_3 H 0.5964 0.4022 0.7590
H29_3 H 0.6709 0.3911 0.8031
H30_3 H 0.6523 0.3074 0.7705
C8_3 C 0.9670(3) 0.9671(2) 0.09148(12)
H19_3 H 0.7436 0.9557 0.1139
O17_4 O 0.2167(2) 0.23540(19) 0.53623(10)
C4_4 C 0.1246(3) 0.0018(3) 0.51592(13)
H10_4 H 0.1010 0.0048 0.4859
C16_4 C 0.1770(3) 0.0763(3) 0.53682(13)
C22_4 C 0.0896(3) 0.0943(3) 0.75931(13)
H16_4 H 0.1230 0.1503 0.7554
C23_4 C 0.1017(3) 0.0230(3) 0.73028(13)
H17_4 H 0.1422 0.0313 0.7072
C24_4 C 0.1885(3) 0.1666(3) 0.51260(13)
C28_4 C 0.2136(3) 0.0662(3) 0.58098(14)
H27_4 H 0.2501 0.1142 0.5961
Ni3_4 Ni 0.12926(3) 0.79384(3) 0.619069(15)
O1_4 O 0.14677(17) 0.70363(16) 0.56652(8)
O4_4 O 0.28879(17) 0.80188(17) 0.63018(8)
O5_4 O 0.00766(17) 0.78904(16) 0.70889(8)
O6_4 O 0.11999(17) 0.87430(16) 0.67397(8)
O7_4 O 0.12734(16) 0.67177(15) 0.65373(8)
H2_4 H 0.1707 0.6765 0.6822
O11_2 O 0.81930(16) 0.71394(16) 0.66834(8)
O12_2 O 0.74457(17) 0.74110(17) 0.59889(8)
O13_4 O 0.33918(17) 0.65274(17) 0.63071(9)
O14_3 O 0.23834(18) 0.48499(17) 0.65509(9)
H3_3 H 0.1952 0.4813 0.6748
H4_3 H 0.2368 0.4334 0.6408
O15_4 O 0.26271(19) 0.52010(19) 0.56363(9)
H5_4 H 0.2200 0.5178 0.5395
H6_4 H 0.3199 0.5468 0.5579
N2_4 N 0.2619(2) 0.6256(2) 0.44441(10)
C1_4 C 0.6479(2) 0.7719(2) 0.65889(12)
N3_4 N 0.1417(2) 0.9135(2) 0.58277(10)
C2_4 C 0.1961(3) 0.9850(3) 0.60262(13)
H9_4 H 0.2228 0.9791 0.6322
N4_4 N 0.5658(2) 0.8619(2) 0.71166(11)
C3_4 C 0.1029(3) 0.5397(2) 0.43190(12)
C5_4 C 0.4611(2) 0.7680(3) 0.65889(12)
C6_4 C 0.0662(3) 0.5847(2) 0.46661(12)
C8_4 C 0.0330(3) 0.4671(2) 0.40852(12)
C9_4 C 0.0846(3) 0.6861(2) 0.53197(12)
C10_4 C 0.3533(3) 0.7383(3) 0.63828(12)
C11_4 C 0.0613(2) 0.8612(2) 0.70368(12)
C13_4 C 0.2294(3) 0.6653(2) 0.48083(13)
C14_4 C 0.7449(2) 0.7399(2) 0.64061(13)
C15_4 C 0.1291(3) 0.6457(2) 0.49276(12)
C17_4 C 0.0530(2) 0.9385(2) 0.73566(12)
C18_4 C 0.1077(3) 0.9226(3) 0.54003(13)
H14_4 H 0.0710 0.8738 0.5257
C19_4 C 0.6521(3) 0.8340(3) 0.69423(13)
C20_4 C 0.2027(3) 0.5620(2) 0.42100(13)
C21_4 C 0.5499(2) 0.7391(2) 0.64154(12)
H15_4 H 0.5444 0.6976 0.6181
C25_4 C 0.2496(3) 0.5215(3) 0.38235(13)
H18_4 H 0.3174 0.5481 0.3806
H19_4 H 0.2564 0.4557 0.3861
H20_4 H 0.2050 0.5346 0.3556
C26_4 C 0.3041(3) 0.7303(3) 0.50583(14)
H21_4 H 0.3686 0.7312 0.4927
H22_4 H 0.2744 0.7913 0.5049
H23_4 H 0.3174 0.7103 0.5360
C27_4 C 0.7537(3) 0.8762(3) 0.71507(15)
H24_4 H 0.7398 0.9162 0.7389
H25_4 H 0.8007 0.8279 0.7263
H26_4 H 0.7851 0.9113 0.6933
C29_4 C 0.4710(3) 0.8297(3) 0.69427(13)
C30_4 C 0.3796(3) 0.8604(3) 0.71753(15)
H28_4 H 0.4036 0.9022 0.7410
H29_4 H 0.3291 0.8911 0.6969
H30_4 H 0.3477 0.8074 0.7295
O3_4 O 0.97009(17) 0.78556(16) 0.61129(8)
H1_4 H 0.9387 0.8437 0.6198
O10_4 O 0.98763(17) 0.69687(16) 0.52689(8)
O16_4 O 0.78382(17) 0.63172(17) 0.52117(9)
H7_4 H 0.8150 0.5794 0.5190
H8_4 H 0.7233 0.6218 0.5299
H11_2 H 0.9980 0.5741 0.4727
H12_4 H 0.9423 0.9980 0.8206
C12_4 C 0.9931(2) 0.9302(2) 0.77080(12)
H13_4 H 0.9597 0.8747 0.7758
H11_3 H 0.9980 0.9259 0.9727
C7_3 C 0.0161(3) 0.9958(2) 0.20233(12)
H11_4 H 0.0020 0.0741 0.0273
O14_4 O 0.76166(18) 0.98499(17) 0.84491(9)
H3_4 H 0.8048 0.9813 0.8252
H4_4 H 0.7632 0.9334 0.8592
C7_4 C 0.9839(3) 0.0042(2) 0.79767(12)
loop_
_geom_bond_atom_site_label_1
_geom_bond_atom_site_label_2
_geom_bond_site_symmetry_1
_geom_bond_site_symmetry_2
H3 O14 1_555 1_555
H4 O14 1_555 1_555
O2 C8 1_555 1_555
Ni7 O2 1_555 1_555
Ni11 O2 1_555 1_555
Ni2 O1 1_555 1_555
Ni3 O1 1_555 1_555
O1 C9 1_555 1_555
O4 Ni3 1_555 1_555
O6 Ni3 1_555 1_555
O7 Ni2 1_555 1_555
H2 O7 1_555 1_555
O11 C14 1_555 1_555
O12 C14 1_555 1_555
O13 Ni2 1_555 1_555
O15 Ni2 1_555 1_555
H5 O15 1_555 1_555
H6 O15 1_555 1_555
C1 C14 1_555 1_555
N3 Ni3 1_555 1_555
C2 N3 1_555 1_555
H9 C2 1_555 1_555
N4 C19 1_555 1_555
O17 C24 1_555 1_555
C5 C10 1_555 1_555
C10 O4 1_555 1_555
C11 O5 1_555 1_555
C16 C4 1_555 1_555
C17 C11 1_555 1_555
C18 N3 1_555 1_555
H14 C18 1_555 1_555
C19 C1 1_555 1_555
C21 C1 1_555 1_555
H15 C21 1_555 1_555
C22 N1 1_555 1_555
H16 C22 1_555 1_555
C23 C17 1_555 1_555
H17 C23 1_555 1_555
C24 C16 1_555 1_555
H22 C26 1_555 1_555
H23 C26 1_555 1_555
C27 C19 1_555 1_555
H24 C27 1_555 1_555
H25 C27 1_555 1_555
H26 C27 1_555 1_555
C28 C2 1_555 1_555
H27 C28 1_555 1_555
C29 N4 1_555 1_555
C30 C29 1_555 1_555
H28 C30 1_555 1_555
H29 C30 1_555 1_555
H30 C30 1_555 1_555
Ni5 O12 1_555 1_555
Ni9 O11 1_555 1_555
Ni10 N1 1_555 1_555
O19 Ni2 1_555 1_555
Ni3 O7 1_555 1_555
O6 C11 1_555 1_555
O13 C10 1_555 1_555
C4 C18 1_555 1_555
C5 C21 1_555 1_555
C5 C29 1_555 1_555
C16 C28 1_555 1_555
C22 C23 1_555 1_555
N2 C13 1_555 1_555
C3 C6 1_555 1_555
C13 C15 1_555 1_555
C15 C6 1_555 1_555
C20 N2 1_555 1_555
C25 C20 1_555 1_555
H18 C25 1_555 1_555
H20 C25 1_555 1_555
Ni7 O9 1_555 1_555
C3 C20 1_555 1_555
Ni8 O8 1_555 1_555
Ni5 O3 1_555 1_555
Ni9 O3 1_555 1_555
H1 O3 1_555 1_555
O10 Ni5 1_555 1_555
O16 Ni5 1_555 1_555
H7 O16 1_555 1_555
H8 O16 1_555 1_555
C7 H12 1_555 1_555
C12 C7 1_555 1_555
H13 C12 1_555 1_555
O18 Ni5 1_555 1_555
O20 Ni5 1_555 1_555
N5 Ni9 1_555 1_555
Ni9 O18 1_555 1_555
Ni1 O3_2 1_555 1_555
Ni10 O3_2 1_555 1_555
H1_2 O3_2 1_555 1_555
O10_2 Ni1 1_555 1_555
O16_2 Ni1 1_555 1_555
H7_2 O16_2 1_555 1_555
H8_2 O16_2 1_555 1_555
H13_2 C12_2 1_555 1_555
Ni8_2 O8_2 1_555 1_555
O18_2 Ni1 1_555 1_555
O20_2 Ni1 1_555 1_555
O21 Ni10 1_555 1_555
O22 Ni1 1_555 1_555
Ni10 O18_2 1_555 1_555
Ni2_2 O1_2 1_555 1_555
Ni3_2 O1_2 1_555 1_555
O1_2 C9_2 1_555 1_555
O2_2 C8_2 1_555 1_555
O4_2 Ni3_2 1_555 1_555
O6_2 Ni3_2 1_555 1_555
O7_2 Ni2_2 1_555 1_555
H2_2 O7_2 1_555 1_555
O21 C14_2 1_555 1_555
O22 C14_2 1_555 1_555
O13_2 Ni2_2 1_555 1_555
O14_2 Ni2_2 1_555 1_555
H3_2 O14_2 1_555 1_555
H4_2 O14_2 1_555 1_555
O15_2 Ni2_2 1_555 1_555
H5_2 O15_2 1_555 1_555
H6_2 O15_2 1_555 1_555
N2_2 C13_2 1_555 1_555
C1_2 C14_2 1_555 1_555
N3_2 Ni3_2 1_555 1_555
C2_2 N3_2 1_555 1_555
H9_2 C2_2 1_555 1_555
N4_2 C19_2 1_555 1_555
C3_2 C6_2 1_555 1_555
C5_2 C10_2 1_555 1_555
C8_2 C3_2 1_555 1_555
C10_2 O4_2 1_555 1_555
C11_2 O5_2 1_555 1_555
C13_2 C15_2 1_555 1_555
C15_2 C6_2 1_555 1_555
C17_2 C11_2 1_555 1_555
C18_2 N3_2 1_555 1_555
H14_2 C18_2 1_555 1_555
C19_2 C1_2 1_555 1_555
C20_2 N2_2 1_555 1_555
C21_2 C1_2 1_555 1_555
H15_2 C21_2 1_555 1_555
C25_2 C20_2 1_555 1_555
H18_2 C25_2 1_555 1_555
H19_2 C25_2 1_555 1_555
H20_2 C25_2 1_555 1_555
C26_2 C13_2 1_555 1_555
H21_2 C26_2 1_555 1_555
H22_2 C26_2 1_555 1_555
H23_2 C26_2 1_555 1_555
C27_2 C19_2 1_555 1_555
H24_2 C27_2 1_555 1_555
H25_2 C27_2 1_555 1_555
H26_2 C27_2 1_555 1_555
C29_2 N4_2 1_555 1_555
C30_2 C29_2 1_555 1_555
H28_2 C30_2 1_555 1_555
H29_2 C30_2 1_555 1_555
H30_2 C30_2 1_555 1_555
Ni7_2 O2_2 1_555 1_555
Ni11_2 O2_2 1_555 1_555
O19_2 Ni2_2 1_555 1_555
Ni3_2 O7_2 1_555 1_555
O6_2 C11_2 1_555 1_555
O13_2 C10_2 1_555 1_555
C3_2 C20_2 1_555 1_555
C5_2 C21_2 1_555 1_555
C5_2 C29_2 1_555 1_555
C9_2 C15_2 1_555 1_555
O9_2 C24_2 1_555 1_555
O17_2 C24_2 1_555 1_555
C4_2 H10_2 1_555 1_555
C16_2 C4_2 1_555 1_555
C22_2 N5 1_555 1_555
H16_2 C22_2 1_555 1_555
H17_2 C23_2 1_555 1_555
C24_2 C16_2 1_555 1_555
H27_2 C28_2 1_555 1_555
Ni7_2 O9_2 1_555 1_555
C16_2 C28_2 1_555 1_555
C22_2 C23_2 1_555 1_555
Ni7 O3_3 1_555 1_555
Ni11 O3_3 1_555 1_555
H1_3 O3_3 1_555 1_555
O10_3 Ni7 1_555 1_555
O16_3 Ni7 1_555 1_555
H7_3 O16_3 1_555 1_555
H8_3 O16_3 1_555 1_555
C7_2 H12_3 1_555 1_555
C12_3 C7_2 1_555 1_555
H13_3 C12_3 1_555 1_555
O21_2 Ni11 1_555 1_555
O22_2 Ni7 1_555 1_555
N5_2 Ni11 1_555 1_555
N2_3 C13_3 1_555 1_555
C3_3 C6_3 1_555 1_555
C13_3 C15_3 1_555 1_555
C15_3 C6_3 1_555 1_555
C20_3 N2_3 1_555 1_555
C25_3 C20_3 1_555 1_555
H18_3 C25_3 1_555 1_555
H20_3 C25_3 1_555 1_555
C3_3 C20_3 1_555 1_555
Ni8 O1_3 1_555 1_555
Ni3_3 O1_3 1_555 1_555
O1_3 C9_3 1_555 1_555
O4_3 Ni3_3 1_555 1_555
O6_3 Ni3_3 1_555 1_555
O7_3 Ni8 1_555 1_555
H2_3 O7_3 1_555 1_555
O21_2 C14_3 1_555 1_555
O22_2 C14_3 1_555 1_555
O13_3 Ni8 1_555 1_555
O15_3 Ni8 1_555 1_555
H5_3 O15_3 1_555 1_555
H6_3 O15_3 1_555 1_555
C1_3 C14_3 1_555 1_555
N3_3 Ni3_3 1_555 1_555
C2_3 N3_3 1_555 1_555
H9_3 C2_3 1_555 1_555
N4_3 C19_3 1_555 1_555
O17_3 C24_3 1_555 1_555
C5_3 C10_3 1_555 1_555
C10_3 O4_3 1_555 1_555
C11_3 O5_3 1_555 1_555
C16_3 C4_3 1_555 1_555
C17_3 C11_3 1_555 1_555
C18_3 N3_3 1_555 1_555
H14_3 C18_3 1_555 1_555
C19_3 C1_3 1_555 1_555
C21_3 C1_3 1_555 1_555
H15_3 C21_3 1_555 1_555
C22_3 N1_2 1_555 1_555
H16_3 C22_3 1_555 1_555
C23_3 C17_3 1_555 1_555
H17_3 C23_3 1_555 1_555
C24_3 C16_3 1_555 1_555
H22_3 C26_3 1_555 1_555
H23_3 C26_3 1_555 1_555
C27_3 C19_3 1_555 1_555
H24_3 C27_3 1_555 1_555
H25_3 C27_3 1_555 1_555
H26_3 C27_3 1_555 1_555
C28_3 C2_3 1_555 1_555
H27_3 C28_3 1_555 1_555
C29_3 N4_3 1_555 1_555
C30_3 C29_3 1_555 1_555
H28_3 C30_3 1_555 1_555
H29_3 C30_3 1_555 1_555
H30_3 C30_3 1_555 1_555
Ni11_2 N1_2 1_555 1_555
Ni3_3 O7_3 1_555 1_555
O6_3 C11_3 1_555 1_555
O13_3 C10_3 1_555 1_555
C4_3 C18_3 1_555 1_555
C5_3 C21_3 1_555 1_555
C5_3 C29_3 1_555 1_555
C16_3 C28_3 1_555 1_555
C22_3 C23_3 1_555 1_555
O18 C8_3 1_555 1_555
O20_2 C24_4 1_555 1_555
O17_4 C24_4 1_555 1_555
C4_4 H10_4 1_555 1_555
C16_4 C4_4 1_555 1_555
C22_4 N5_2 1_555 1_555
H16_4 C22_4 1_555 1_555
H17_4 C23_4 1_555 1_555
C24_4 C16_4 1_555 1_555
H27_4 C28_4 1_555 1_555
C16_4 C28_4 1_555 1_555
C22_4 C23_4 1_555 1_555
Ni8_2 O1_4 1_555 1_555
Ni3_4 O1_4 1_555 1_555
O1_4 C9_4 1_555 1_555
O18_2 C8_4 1_555 1_555
O4_4 Ni3_4 1_555 1_555
O6_4 Ni3_4 1_555 1_555
O7_4 Ni8_2 1_555 1_555
H2_4 O7_4 1_555 1_555
O11_2 C14_4 1_555 1_555
O12_2 C14_4 1_555 1_555
O13_4 Ni8_2 1_555 1_555
O14_3 Ni8_2 1_555 1_555
H3_3 O14_3 1_555 1_555
H4_3 O14_3 1_555 1_555
O15_4 Ni8_2 1_555 1_555
H5_4 O15_4 1_555 1_555
H6_4 O15_4 1_555 1_555
N2_4 C13_4 1_555 1_555
C1_4 C14_4 1_555 1_555
N3_4 Ni3_4 1_555 1_555
C2_4 N3_4 1_555 1_555
H9_4 C2_4 1_555 1_555
N4_4 C19_4 1_555 1_555
C3_4 C6_4 1_555 1_555
C5_4 C10_4 1_555 1_555
C8_4 C3_4 1_555 1_555
C10_4 O4_4 1_555 1_555
C11_4 O5_4 1_555 1_555
C13_4 C15_4 1_555 1_555
C15_4 C6_4 1_555 1_555
C17_4 C11_4 1_555 1_555
C18_4 N3_4 1_555 1_555
H14_4 C18_4 1_555 1_555
C19_4 C1_4 1_555 1_555
C20_4 N2_4 1_555 1_555
C21_4 C1_4 1_555 1_555
H15_4 C21_4 1_555 1_555
C25_4 C20_4 1_555 1_555
H18_4 C25_4 1_555 1_555
H19_4 C25_4 1_555 1_555
H20_4 C25_4 1_555 1_555
C26_4 C13_4 1_555 1_555
H21_4 C26_4 1_555 1_555
H22_4 C26_4 1_555 1_555
H23_4 C26_4 1_555 1_555
C27_4 C19_4 1_555 1_555
H24_4 C27_4 1_555 1_555
H25_4 C27_4 1_555 1_555
H26_4 C27_4 1_555 1_555
C29_4 N4_4 1_555 1_555
C30_4 C29_4 1_555 1_555
H28_4 C30_4 1_555 1_555
H29_4 C30_4 1_555 1_555
H30_4 C30_4 1_555 1_555
Ni7_2 O12_2 1_555 1_555
Ni11_2 O11_2 1_555 1_555
Ni3_4 O7_4 1_555 1_555
O6_4 C11_4 1_555 1_555
O13_4 C10_4 1_555 1_555
C3_4 C20_4 1_555 1_555
C5_4 C21_4 1_555 1_555
C5_4 C29_4 1_555 1_555
C9_4 C15_4 1_555 1_555
Ni7_2 O3_4 1_555 1_555
Ni11_2 O3_4 1_555 1_555
H1_4 O3_4 1_555 1_555
O10_4 Ni7_2 1_555 1_555
O16_4 Ni7_2 1_555 1_555
H7_4 O16_4 1_555 1_555
H8_4 O16_4 1_555 1_555
H13_4 C12_4 1_555 1_555
H3_4 O14_4 1_555 1_555
H4_4 O14_4 1_555 1_555

#END
