
###############################################################################
#
# This file contains modified crystal structure data generated from the
# MOF subset of the Cambridge Structural Database (CSD) v543 
# hosted by the Cambridge Crystallographic Data Centre (CCDC).
#
# This work is licensed under the Creative Commons
# Attribution-NonCommercial-ShareAlike 4.0 International License.
# To view a copy of this license, visit
# http://creativecommons.org/licenses/by-nc-sa/4.0/
# or send a letter to
# Creative Commons, PO Box 1866, Mountain View, CA 94042, USA.
#
# CIF created using the CSD Python API on 29 September 2022
# The structure has been converted into the P1 space group
# The structure has a 3D framework
# The original CSD entry KOJYUG is in the orthorhombic crystal system
# The framework has been calculated to contain at least 10.0% void space
# The void calculation uses a probe of radius 1.32A, grid spacing 0.4
# The framework is charged, counterions have been retained in the structure
#
###############################################################################

data_KOJYUG
_chemical_formula_moiety         '(C320 H192 In8 N16 O72 8-)n'
_symmetry_cell_setting           triclinic
_symmetry_space_group_name_H-M   'P 1'
_symmetry_Int_Tables_number      1
_space_group_name_Hall           'P 1'
loop_
_symmetry_equiv_pos_site_id
_symmetry_equiv_pos_as_xyz
1 x,y,z
_cell_length_a                   24.589(2)
_cell_length_b                   32.420(3)
_cell_length_c                   32.839(3)
_cell_angle_alpha                90
_cell_angle_beta                 90
_cell_angle_gamma                90
_cell_volume                     26178.4
loop_
_atom_site_label
_atom_site_type_symbol
_atom_site_fract_x
_atom_site_fract_y
_atom_site_fract_z
O10 O 0.3765(2) 0.04364(10) 0.19912(11)
O11 O 0.45118(17) 0.01367(9) 0.21970(10)
O12 O 0.29436(16) 0.00882(9) 0.25736(11)
O13 O 0.37149(18) 0.00775(11) 0.29096(11)
In1 In 0.36861(2) 0.98050(2) 0.22723(2)
O1 O 0.42697(16) 0.93140(10) 0.25572(10)
O2 O 0.33866(17) 0.92080(10) 0.25332(11)
O3 O 0.6235(2) 0.54364(10) 0.30088(11)
O4 O 0.54882(17) 0.51367(9) 0.28030(10)
O5 O 0.34865(17) 0.70429(10) 0.43532(11)
O6 O 0.20564(16) 0.50882(9) 0.25736(11)
O7 O 0.12851(18) 0.50775(11) 0.29096(11)
O8 O 0.39579(18) 0.55017(10) 0.66841(10)
O9 O 0.31020(16) 0.53355(10) 0.67446(10)
N1 N 0.4801(2) 0.72838(14) 0.29680(16)
H1 H 0.488977 0.704817 0.286736
H2 H 0.462158 0.742248 0.278957
N2 N 0.2662(2) 0.54835(13) 0.46903(13)
H3 H 0.279892 0.540303 0.491790
H4 H 0.231261 0.548473 0.470881
C1 C 0.3854(3) 0.90870(16) 0.26366(16)
C2 C 0.3922(3) 0.86872(15) 0.28422(15)
C3 C 0.4432(3) 0.85586(15) 0.29609(17)
H5 H 0.473147 0.872708 0.291317
C4 C 0.4505(2) 0.81715(15) 0.31551(17)
H6 H 0.485191 0.808183 0.322536
C5 C 0.4059(3) 0.79300(14) 0.32387(15)
C6 C 0.3551(3) 0.80771(16) 0.31279(18)
H7 H 0.324294 0.792287 0.318998
C7 C 0.3495(2) 0.84428(16) 0.29299(17)
H8 H 0.314880 0.852747 0.285220
C8 C 0.4117(2) 0.75339(14) 0.34618(16)
C9 C 0.4454(2) 0.72254(16) 0.33243(16)
C10 C 0.4466(3) 0.68340(14) 0.35221(17)
C11 C 0.4151(3) 0.67783(15) 0.38587(16)
H9 H 0.416321 0.652823 0.399704
C12 C 0.3816(2) 0.70866(15) 0.39963(15)
C13 C 0.3797(2) 0.74595(14) 0.38015(16)
H10 H 0.356705 0.766514 0.389800
C14 C 0.4811(3) 0.64815(15) 0.33690(16)
C15 C 0.5361(3) 0.64798(16) 0.33862(18)
H11 H 0.553860 0.671236 0.348544
C16 C 0.5668(3) 0.61482(16) 0.32630(18)
H12 H 0.604504 0.615415 0.328552
C17 C 0.5406(3) 0.58036(15) 0.31041(16)
C18 C 0.4865(3) 0.57932(16) 0.30864(18)
H13 H 0.469066 0.556303 0.297942
C19 C 0.4558(3) 0.61291(18) 0.32289(18)
H14 H 0.417990 0.611363 0.322878
C20 C 0.5720(3) 0.54401(16) 0.29729(16)
C21 C 0.3295(2) 0.66557(15) 0.44311(15)
C22 C 0.3337(2) 0.64880(15) 0.48159(15)
H15 H 0.352047 0.663946 0.501346
C23 C 0.3124(2) 0.61066(15) 0.49274(15)
C24 C 0.2845(2) 0.58748(15) 0.46120(15)
C25 C 0.2800(2) 0.60434(15) 0.42199(14)
C26 C 0.3017(2) 0.64296(15) 0.41349(16)
H16 H 0.297720 0.653971 0.387518
C27 C 0.2812(3) 0.57589(15) 0.35217(16)
H17 H 0.316380 0.586049 0.349344
C28 C 0.2547(3) 0.58139(15) 0.38745(16)
C29 C 0.2028(3) 0.56531(17) 0.39108(15)
H18 H 0.184942 0.567625 0.415944
C30 C 0.1766(3) 0.54609(17) 0.35942(16)
H19 H 0.140620 0.537857 0.362750
C31 C 0.2024(3) 0.53865(16) 0.32259(16)
C32 C 0.2569(3) 0.55514(15) 0.31951(16)
H20 H 0.276243 0.551890 0.295361
C33 C 0.1777(3) 0.51705(15) 0.28886(16)
C34 C 0.3217(3) 0.59481(15) 0.53299(15)
C35 C 0.3708(3) 0.59446(15) 0.54981(16)
H21 H 0.400015 0.604104 0.534526
C36 C 0.3809(2) 0.58026(15) 0.58951(17)
H22 H 0.416105 0.580696 0.599868
C37 C 0.3392(3) 0.56585(14) 0.61287(15)
C38 C 0.2866(3) 0.56519(15) 0.59656(16)
H23 H 0.257466 0.555163 0.611656
C39 C 0.2789(3) 0.58031(15) 0.55620(16)
H24 H 0.244074 0.580400 0.545177
C40 C 0.3494(3) 0.54881(15) 0.65382(17)
In2 In 0.63139(2) 0.48050(2) 0.27277(2)
In3 In 0.36861(2) 0.51950(2) 0.72723(2)
In4 In 0.13139(2) 0.48050(2) 0.22723(2)
O14 O 0.39579(18) 0.94983(10) 0.16841(10)
O15 O 0.31020(16) 0.96645(10) 0.17446(10)
O8_2 O 0.10421(18) 0.44983(10) 0.16841(10)
O9_2 O 0.18980(16) 0.46645(10) 0.17446(10)
H15_2 H 0.147953 0.336054 0.001346
C34_2 C 0.1783(3) 0.40519(15) 0.03299(15)
C35_2 C 0.1292(3) 0.40554(15) 0.04981(16)
H21_2 H 0.099985 0.395896 0.034526
C36_2 C 0.1191(2) 0.41974(15) 0.08951(17)
H22_2 H 0.083895 0.419304 0.099868
C37_2 C 0.1608(3) 0.43415(14) 0.11287(15)
C38_2 C 0.2134(3) 0.43481(15) 0.09656(16)
H23_2 H 0.242534 0.444837 0.111656
C39_2 C 0.2211(3) 0.41969(15) 0.05620(16)
H24_2 H 0.255926 0.419600 0.045177
C40_2 C 0.1506(3) 0.45119(15) 0.15382(17)
In1_2 In 0.13139(2) 0.01950(2) 0.72723(2)
O1_2 O 0.07303(16) 0.06860(10) 0.75572(10)
O2_2 O 0.16134(17) 0.07920(10) 0.75332(11)
O5_2 O 0.15135(17) 0.29571(10) 0.93532(11)
O6_2 O 0.29436(16) 0.49118(9) 0.75736(11)
O7_2 O 0.37149(18) 0.49225(11) 0.79096(11)
N1_2 N 0.0199(2) 0.27162(14) 0.79680(16)
H1_2 H 0.011023 0.295183 0.786736
H2_2 H 0.037842 0.257752 0.778957
N2_2 N 0.2338(2) 0.45165(13) 0.96903(13)
H3_2 H 0.220108 0.459697 0.991790
H4_2 H 0.268739 0.451527 0.970881
C1_2 C 0.1146(3) 0.09130(16) 0.76366(16)
C2_2 C 0.1078(3) 0.13128(15) 0.78422(15)
C3_2 C 0.0568(3) 0.14414(15) 0.79609(17)
H5_2 H 0.026853 0.127292 0.791317
C4_2 C 0.0495(2) 0.18285(15) 0.81551(17)
H6_2 H 0.014809 0.191817 0.822536
C5_2 C 0.0941(3) 0.20700(14) 0.82387(15)
C6_2 C 0.1449(3) 0.19229(16) 0.81279(18)
H7_2 H 0.175706 0.207713 0.818998
C7_2 C 0.1505(2) 0.15572(16) 0.79299(17)
H8_2 H 0.185120 0.147253 0.785220
C8_2 C 0.0883(2) 0.24661(14) 0.84618(16)
C9_2 C 0.0546(2) 0.27746(16) 0.83243(16)
C10_2 C 0.0534(3) 0.31660(14) 0.85221(17)
C11_2 C 0.0849(3) 0.32217(15) 0.88587(16)
H9_2 H 0.083679 0.347177 0.899704
C12_2 C 0.1184(2) 0.29134(15) 0.89963(15)
C13_2 C 0.1203(2) 0.25405(14) 0.88015(16)
H10_2 H 0.143295 0.233486 0.889800
C14_2 C 0.0189(3) 0.35185(15) 0.83690(16)
C18_2 C 0.0135(3) 0.42068(16) 0.80864(18)
H13_2 H 0.030934 0.443697 0.797942
C19_2 C 0.0442(3) 0.38709(18) 0.82289(18)
H14_2 H 0.082010 0.388637 0.822878
C21_2 C 0.1705(2) 0.33443(15) 0.94311(15)
C22_2 C 0.1663(2) 0.35120(15) 0.98159(15)
C23_2 C 0.1876(2) 0.38934(15) 0.99274(15)
C24_2 C 0.2155(2) 0.41252(15) 0.96120(15)
C25_2 C 0.2200(2) 0.39566(15) 0.92199(14)
C26_2 C 0.1983(2) 0.35704(15) 0.91349(16)
H16_2 H 0.202280 0.346029 0.887518
C27_2 C 0.2188(3) 0.42411(15) 0.85217(16)
H17_2 H 0.183620 0.413951 0.849344
C28_2 C 0.2453(3) 0.41861(15) 0.88745(16)
C29_2 C 0.2972(3) 0.43469(17) 0.89108(15)
H18_2 H 0.315058 0.432375 0.915944
C30_2 C 0.3234(3) 0.45391(17) 0.85942(16)
H19_2 H 0.359380 0.462143 0.862750
C31_2 C 0.2976(3) 0.46135(16) 0.82259(16)
C32_2 C 0.2431(3) 0.44486(15) 0.81951(16)
H20_2 H 0.223757 0.448110 0.795361
C33_2 C 0.3223(3) 0.48295(15) 0.78886(16)
O14_2 O 0.10421(18) 0.05017(10) 0.66841(10)
O15_2 O 0.18980(16) 0.03355(10) 0.67446(10)
O10_2 O 0.1235(2) 0.95636(10) 0.69912(11)
O11_2 O 0.04882(17) 0.98633(9) 0.71970(10)
O12_2 O 0.20564(16) 0.99118(9) 0.75736(11)
O13_2 O 0.12851(18) 0.99225(11) 0.79096(11)
O3_2 O 0.8765(2) 0.45636(10) 0.80088(11)
O4_2 O 0.95118(17) 0.48633(9) 0.78030(10)
C15_2 C 0.9639(3) 0.35202(16) 0.83862(18)
H11_2 H 0.946140 0.328764 0.848544
C16_2 C 0.9332(3) 0.38518(16) 0.82630(18)
H12_2 H 0.895496 0.384585 0.828552
C17_2 C 0.9594(3) 0.41964(15) 0.81041(16)
C20_2 C 0.9280(3) 0.45599(16) 0.79729(16)
In2_2 In 0.86861(2) 0.51950(2) 0.77277(2)
O1_3 O 0.57303(16) 0.43140(10) 0.24428(10)
O2_3 O 0.66134(17) 0.42080(10) 0.24668(11)
O5_3 O 0.65135(17) 0.20429(10) 0.06468(11)
O6_3 O 0.79436(16) 0.00882(9) 0.24264(11)
O7_3 O 0.87149(18) 0.00775(11) 0.20904(11)
N1_3 N 0.5199(2) 0.22838(14) 0.20320(16)
H1_3 H 0.511023 0.204817 0.213264
H2_3 H 0.537842 0.242248 0.221043
N2_3 N 0.7338(2) 0.04835(13) 0.03097(13)
H3_3 H 0.720108 0.040303 0.008210
H4_3 H 0.768739 0.048473 0.029119
C1_3 C 0.6146(3) 0.40870(16) 0.23634(16)
C2_3 C 0.6078(3) 0.36872(15) 0.21578(15)
C3_3 C 0.5568(3) 0.35586(15) 0.20391(17)
H5_3 H 0.526853 0.372708 0.208683
C4_3 C 0.5495(2) 0.31715(15) 0.18449(17)
H6_3 H 0.514809 0.308183 0.177464
C5_3 C 0.5941(3) 0.29300(14) 0.17613(15)
C6_3 C 0.6449(3) 0.30771(16) 0.18721(18)
H7_3 H 0.675706 0.292287 0.181002
C7_3 C 0.6505(2) 0.34428(16) 0.20701(17)
H8_3 H 0.685120 0.352747 0.214780
C8_3 C 0.5883(2) 0.25339(14) 0.15382(16)
C9_3 C 0.5546(2) 0.22254(16) 0.16757(16)
C10_3 C 0.5534(3) 0.18340(14) 0.14779(17)
C11_3 C 0.5849(3) 0.17783(15) 0.11413(16)
H9_3 H 0.583679 0.152823 0.100296
C12_3 C 0.6184(2) 0.20866(15) 0.10037(15)
C13_3 C 0.6203(2) 0.24595(14) 0.11985(16)
H10_3 H 0.643295 0.266514 0.110200
C14_3 C 0.5189(3) 0.14815(15) 0.16310(16)
C15_3 C 0.4639(3) 0.14798(16) 0.16138(18)
H11_3 H 0.446140 0.171236 0.151456
C16_3 C 0.4332(3) 0.11482(16) 0.17370(18)
H12_3 H 0.395496 0.115415 0.171448
C17_3 C 0.4594(3) 0.08036(15) 0.18959(16)
C18_3 C 0.5135(3) 0.07932(16) 0.19136(18)
H13_3 H 0.530934 0.056303 0.202058
C19_3 C 0.5442(3) 0.11291(18) 0.17711(18)
H14_3 H 0.582010 0.111363 0.177122
C20_3 C 0.4280(3) 0.04401(16) 0.20271(16)
C21_3 C 0.6705(2) 0.16557(15) 0.05689(15)
C22_3 C 0.6663(2) 0.14880(15) 0.01841(15)
C23_3 C 0.6876(2) 0.11066(15) 0.00726(15)
C24_3 C 0.7155(2) 0.08748(15) 0.03880(15)
C25_3 C 0.7200(2) 0.10434(15) 0.07801(14)
C26_3 C 0.6983(2) 0.14296(15) 0.08651(16)
H16_3 H 0.702280 0.153971 0.112482
C27_3 C 0.7188(3) 0.07589(15) 0.14783(16)
H17_3 H 0.683620 0.086049 0.150656
C28_3 C 0.7453(3) 0.08139(15) 0.11255(16)
C29_3 C 0.7972(3) 0.06531(17) 0.10892(15)
H18_3 H 0.815058 0.067625 0.084056
C30_3 C 0.8234(3) 0.04609(17) 0.14058(16)
H19_3 H 0.859380 0.037857 0.137250
C31_3 C 0.7976(3) 0.03865(16) 0.17741(16)
C32_3 C 0.7431(3) 0.05514(15) 0.18049(16)
H20_3 H 0.723757 0.051890 0.204639
C33_3 C 0.8223(3) 0.01705(15) 0.21114(16)
O12_3 O 0.70564(16) 0.50882(9) 0.24264(11)
O13_3 O 0.62851(18) 0.50775(11) 0.20904(11)
O14_3 O 0.60421(18) 0.44983(10) 0.33159(10)
O15_3 O 0.68980(16) 0.46645(10) 0.32554(10)
O8_3 O 0.60421(18) 0.05017(10) 0.83159(10)
O9_3 O 0.68980(16) 0.03355(10) 0.82554(10)
H15_3 H 0.647953 0.163946 0.998654
C34_3 C 0.6783(3) 0.09481(15) 0.96701(15)
C35_3 C 0.6292(3) 0.09446(15) 0.95019(16)
H21_3 H 0.599985 0.104104 0.965474
C36_3 C 0.6191(2) 0.08026(15) 0.91049(17)
H22_3 H 0.583895 0.080696 0.900132
C37_3 C 0.6608(3) 0.06585(14) 0.88713(15)
C38_3 C 0.7134(3) 0.06519(15) 0.90344(16)
H23_3 H 0.742534 0.055163 0.888344
C39_3 C 0.7211(3) 0.08031(15) 0.94380(16)
H24_3 H 0.755926 0.080400 0.954823
C40_3 C 0.6506(3) 0.04881(15) 0.84618(17)
In3_2 In 0.63139(2) 0.01950(2) 0.77277(2)
In4_2 In 0.86861(2) 0.98050(2) 0.27277(2)
C15_4 C 0.0361(3) 0.85202(16) 0.66138(18)
H11_4 H 0.053860 0.828764 0.651456
C16_4 C 0.0668(3) 0.88518(16) 0.67370(18)
H12_4 H 0.104504 0.884585 0.671448
C17_4 C 0.0406(3) 0.91964(15) 0.68959(16)
C20_4 C 0.0720(3) 0.95599(16) 0.70271(16)
O1_4 O 0.92697(16) 0.56860(10) 0.74428(10)
O2_4 O 0.83866(17) 0.57920(10) 0.74668(11)
O5_4 O 0.84865(17) 0.79571(10) 0.56468(11)
O6_4 O 0.70564(16) 0.99118(9) 0.74264(11)
O7_4 O 0.62851(18) 0.99225(11) 0.70904(11)
O8_4 O 0.89579(18) 0.94983(10) 0.33159(10)
O9_4 O 0.81020(16) 0.96645(10) 0.32554(10)
N1_4 N 0.9801(2) 0.77162(14) 0.70320(16)
H1_4 H 0.988977 0.795183 0.713264
H2_4 H 0.962158 0.757752 0.721043
N2_4 N 0.7662(2) 0.95165(13) 0.53097(13)
H3_4 H 0.779892 0.959697 0.508210
H4_4 H 0.731261 0.951527 0.529119
C1_4 C 0.8854(3) 0.59130(16) 0.73634(16)
C2_4 C 0.8922(3) 0.63128(15) 0.71578(15)
C3_4 C 0.9432(3) 0.64414(15) 0.70391(17)
H5_4 H 0.973147 0.627292 0.708683
C4_4 C 0.9505(2) 0.68285(15) 0.68449(17)
H6_4 H 0.985191 0.691817 0.677464
C5_4 C 0.9059(3) 0.70700(14) 0.67613(15)
C6_4 C 0.8551(3) 0.69229(16) 0.68721(18)
H7_4 H 0.824294 0.707713 0.681002
C7_4 C 0.8495(2) 0.65572(16) 0.70701(17)
H8_4 H 0.814880 0.647253 0.714780
C8_4 C 0.9117(2) 0.74661(14) 0.65382(16)
C9_4 C 0.9454(2) 0.77746(16) 0.66757(16)
C10_4 C 0.9466(3) 0.81660(14) 0.64779(17)
C11_4 C 0.9151(3) 0.82217(15) 0.61413(16)
H9_4 H 0.916321 0.847177 0.600296
C12_4 C 0.8816(2) 0.79134(15) 0.60037(15)
C13_4 C 0.8797(2) 0.75405(14) 0.61985(16)
H10_4 H 0.856705 0.733486 0.610200
C14_4 C 0.9811(3) 0.85185(15) 0.66310(16)
C18_4 C 0.9865(3) 0.92068(16) 0.69136(18)
H13_4 H 0.969066 0.943697 0.702058
C19_4 C 0.9558(3) 0.88709(18) 0.67711(18)
H14_4 H 0.917990 0.888637 0.677122
C21_4 C 0.8295(2) 0.83443(15) 0.55689(15)
C22_4 C 0.8337(2) 0.85120(15) 0.51841(15)
H15_4 H 0.852047 0.836054 0.498654
C23_4 C 0.8124(2) 0.88934(15) 0.50726(15)
C24_4 C 0.7845(2) 0.91252(15) 0.53880(15)
C25_4 C 0.7800(2) 0.89566(15) 0.57801(14)
C26_4 C 0.8017(2) 0.85704(15) 0.58651(16)
H16_4 H 0.797720 0.846029 0.612482
C27_4 C 0.7812(3) 0.92411(15) 0.64783(16)
H17_4 H 0.816380 0.913951 0.650656
C28_4 C 0.7547(3) 0.91861(15) 0.61255(16)
C29_4 C 0.7028(3) 0.93469(17) 0.60892(15)
H18_4 H 0.684942 0.932375 0.584056
C30_4 C 0.6766(3) 0.95391(17) 0.64058(16)
H19_4 H 0.640620 0.962143 0.637250
C31_4 C 0.7024(3) 0.96135(16) 0.67741(16)
C32_4 C 0.7569(3) 0.94486(15) 0.68049(16)
H20_4 H 0.776243 0.948110 0.704639
C33_4 C 0.6777(3) 0.98295(15) 0.71114(16)
C34_4 C 0.8217(3) 0.90519(15) 0.46701(15)
C35_4 C 0.8708(3) 0.90554(15) 0.45019(16)
H21_4 H 0.900015 0.895896 0.465474
C36_4 C 0.8809(2) 0.91974(15) 0.41049(17)
H22_4 H 0.916105 0.919304 0.400132
C37_4 C 0.8392(3) 0.93415(14) 0.38713(15)
C38_4 C 0.7866(3) 0.93481(15) 0.40344(16)
H23_4 H 0.757466 0.944837 0.388344
C39_4 C 0.7789(3) 0.91969(15) 0.44380(16)
H24_4 H 0.744074 0.919600 0.454823
C40_4 C 0.8494(3) 0.95119(15) 0.34618(17)
O12_4 O 0.79436(16) 0.49118(9) 0.74264(11)
O13_4 O 0.87149(18) 0.49225(11) 0.70904(11)
O14_4 O 0.89579(18) 0.55017(10) 0.83159(10)
O15_4 O 0.81020(16) 0.53355(10) 0.82554(10)
O1_5 O 0.57303(16) 0.06860(10) 0.74428(10)
O2_5 O 0.66134(17) 0.07920(10) 0.74668(11)
O3_3 O 0.3765(2) 0.45636(10) 0.69912(11)
O4_3 O 0.45118(17) 0.48633(9) 0.71970(10)
O5_5 O 0.65135(17) 0.29571(10) 0.56468(11)
N1_5 N 0.5199(2) 0.27162(14) 0.70320(16)
H1_5 H 0.511023 0.295183 0.713264
H2_5 H 0.537842 0.257752 0.721043
N2_5 N 0.7338(2) 0.45165(13) 0.53097(13)
H3_5 H 0.720108 0.459697 0.508210
H4_5 H 0.768739 0.451527 0.529119
C1_5 C 0.6146(3) 0.09130(16) 0.73634(16)
C2_5 C 0.6078(3) 0.13128(15) 0.71578(15)
C3_5 C 0.5568(3) 0.14414(15) 0.70391(17)
H5_5 H 0.526853 0.127292 0.708683
C4_5 C 0.5495(2) 0.18285(15) 0.68449(17)
H6_5 H 0.514809 0.191817 0.677464
C5_5 C 0.5941(3) 0.20700(14) 0.67613(15)
C6_5 C 0.6449(3) 0.19229(16) 0.68721(18)
H7_5 H 0.675706 0.207713 0.681002
C7_5 C 0.6505(2) 0.15572(16) 0.70701(17)
H8_5 H 0.685120 0.147253 0.714780
C8_5 C 0.5883(2) 0.24661(14) 0.65382(16)
C9_5 C 0.5546(2) 0.27746(16) 0.66757(16)
C10_5 C 0.5534(3) 0.31660(14) 0.64779(17)
C11_5 C 0.5849(3) 0.32217(15) 0.61413(16)
H9_5 H 0.583679 0.347177 0.600296
C12_5 C 0.6184(2) 0.29134(15) 0.60037(15)
C13_5 C 0.6203(2) 0.25405(14) 0.61985(16)
H10_5 H 0.643295 0.233486 0.610200
C14_5 C 0.5189(3) 0.35185(15) 0.66310(16)
C15_5 C 0.4639(3) 0.35202(16) 0.66138(18)
H11_5 H 0.446140 0.328764 0.651456
C16_5 C 0.4332(3) 0.38518(16) 0.67370(18)
H12_5 H 0.395496 0.384585 0.671448
C17_5 C 0.4594(3) 0.41964(15) 0.68959(16)
C18_5 C 0.5135(3) 0.42068(16) 0.69136(18)
H13_5 H 0.530934 0.443697 0.702058
C19_5 C 0.5442(3) 0.38709(18) 0.67711(18)
H14_5 H 0.582010 0.388637 0.677122
C20_5 C 0.4280(3) 0.45599(16) 0.70271(16)
C21_5 C 0.6705(2) 0.33443(15) 0.55689(15)
C22_5 C 0.6663(2) 0.35120(15) 0.51841(15)
H15_5 H 0.647953 0.336054 0.498654
C23_5 C 0.6876(2) 0.38934(15) 0.50726(15)
C24_5 C 0.7155(2) 0.41252(15) 0.53880(15)
C25_5 C 0.7200(2) 0.39566(15) 0.57801(14)
C26_5 C 0.6983(2) 0.35704(15) 0.58651(16)
H16_5 H 0.702280 0.346029 0.612482
C27_5 C 0.7188(3) 0.42411(15) 0.64783(16)
H17_5 H 0.683620 0.413951 0.650656
C28_5 C 0.7453(3) 0.41861(15) 0.61255(16)
C29_5 C 0.7972(3) 0.43469(17) 0.60892(15)
H18_5 H 0.815058 0.432375 0.584056
C30_5 C 0.8234(3) 0.45391(17) 0.64058(16)
H19_5 H 0.859380 0.462143 0.637250
C31_5 C 0.7976(3) 0.46135(16) 0.67741(16)
C32_5 C 0.7431(3) 0.44486(15) 0.68049(16)
H20_5 H 0.723757 0.448110 0.704639
C33_5 C 0.8223(3) 0.48295(15) 0.71114(16)
C34_5 C 0.6783(3) 0.40519(15) 0.46701(15)
C35_5 C 0.6292(3) 0.40554(15) 0.45019(16)
H21_5 H 0.599985 0.395896 0.465474
C36_5 C 0.6191(2) 0.41974(15) 0.41049(17)
H22_5 H 0.583895 0.419304 0.400132
C37_5 C 0.6608(3) 0.43415(14) 0.38713(15)
C38_5 C 0.7134(3) 0.43481(15) 0.40344(16)
H23_5 H 0.742534 0.444837 0.388344
C39_5 C 0.7211(3) 0.41969(15) 0.44380(16)
H24_5 H 0.755926 0.419600 0.454823
C40_5 C 0.6506(3) 0.45119(15) 0.34618(17)
O10_3 O 0.6235(2) 0.95636(10) 0.80088(11)
O11_3 O 0.54882(17) 0.98633(9) 0.78030(10)
O3_4 O 0.1235(2) 0.54364(10) 0.19912(11)
O4_4 O 0.04882(17) 0.51367(9) 0.21970(10)
C15_6 C 0.0361(3) 0.64798(16) 0.16138(18)
H11_6 H 0.053860 0.671236 0.151456
C16_6 C 0.0668(3) 0.61482(16) 0.17370(18)
H12_6 H 0.104504 0.615415 0.171448
C17_6 C 0.0406(3) 0.58036(15) 0.18959(16)
C20_6 C 0.0720(3) 0.54401(16) 0.20271(16)
O10_4 O 0.8765(2) 0.04364(10) 0.30088(11)
O11_4 O 0.95118(17) 0.01367(9) 0.28030(10)
O1_6 O 0.92697(16) 0.93140(10) 0.24428(10)
O2_6 O 0.83866(17) 0.92080(10) 0.24668(11)
O5_6 O 0.84865(17) 0.70429(10) 0.06468(11)
N1_6 N 0.9801(2) 0.72838(14) 0.20320(16)
H1_6 H 0.988977 0.704817 0.213264
H2_6 H 0.962158 0.742248 0.221043
N2_6 N 0.7662(2) 0.54835(13) 0.03097(13)
H3_6 H 0.779892 0.540303 0.008210
H4_6 H 0.731261 0.548473 0.029119
C1_6 C 0.8854(3) 0.90870(16) 0.23634(16)
C2_6 C 0.8922(3) 0.86872(15) 0.21578(15)
C3_6 C 0.9432(3) 0.85586(15) 0.20391(17)
H5_6 H 0.973147 0.872708 0.208683
C4_6 C 0.9505(2) 0.81715(15) 0.18449(17)
H6_6 H 0.985191 0.808183 0.177464
C5_6 C 0.9059(3) 0.79300(14) 0.17613(15)
C6_6 C 0.8551(3) 0.80771(16) 0.18721(18)
H7_6 H 0.824294 0.792287 0.181002
C7_6 C 0.8495(2) 0.84428(16) 0.20701(17)
H8_6 H 0.814880 0.852747 0.214780
C8_6 C 0.9117(2) 0.75339(14) 0.15382(16)
C9_6 C 0.9454(2) 0.72254(16) 0.16757(16)
C10_6 C 0.9466(3) 0.68340(14) 0.14779(17)
C11_6 C 0.9151(3) 0.67783(15) 0.11413(16)
H9_6 H 0.916321 0.652823 0.100296
C12_6 C 0.8816(2) 0.70866(15) 0.10037(15)
C13_6 C 0.8797(2) 0.74595(14) 0.11985(16)
H10_6 H 0.856705 0.766514 0.110200
C14_6 C 0.9811(3) 0.64815(15) 0.16310(16)
C18_6 C 0.9865(3) 0.57932(16) 0.19136(18)
H13_6 H 0.969066 0.556303 0.202058
C19_6 C 0.9558(3) 0.61291(18) 0.17711(18)
H14_6 H 0.917990 0.611363 0.177122
C21_6 C 0.8295(2) 0.66557(15) 0.05689(15)
C22_6 C 0.8337(2) 0.64880(15) 0.01841(15)
C23_6 C 0.8124(2) 0.61066(15) 0.00726(15)
C24_6 C 0.7845(2) 0.58748(15) 0.03880(15)
C25_6 C 0.7800(2) 0.60434(15) 0.07801(14)
C26_6 C 0.8017(2) 0.64296(15) 0.08651(16)
H16_6 H 0.797720 0.653971 0.112482
C27_6 C 0.7812(3) 0.57589(15) 0.14783(16)
H17_6 H 0.816380 0.586049 0.150656
C28_6 C 0.7547(3) 0.58139(15) 0.11255(16)
C29_6 C 0.7028(3) 0.56531(17) 0.10892(15)
H18_6 H 0.684942 0.567625 0.084056
C30_6 C 0.6766(3) 0.54609(17) 0.14058(16)
H19_6 H 0.640620 0.537857 0.137250
C31_6 C 0.7024(3) 0.53865(16) 0.17741(16)
C32_6 C 0.7569(3) 0.55514(15) 0.18049(16)
H20_6 H 0.776243 0.551890 0.204639
C33_6 C 0.6777(3) 0.51705(15) 0.21114(16)
H15_6 H 0.852047 0.663946 0.998654
C34_6 C 0.8217(3) 0.59481(15) 0.96701(15)
C35_6 C 0.8708(3) 0.59446(15) 0.95019(16)
H21_6 H 0.900015 0.604104 0.965474
C36_6 C 0.8809(2) 0.58026(15) 0.91049(17)
H22_6 H 0.916105 0.580696 0.900132
C37_6 C 0.8392(3) 0.56585(14) 0.88713(15)
C38_6 C 0.7866(3) 0.56519(15) 0.90344(16)
H23_6 H 0.757466 0.555163 0.888344
C39_6 C 0.7789(3) 0.58031(15) 0.94380(16)
H24_6 H 0.744074 0.580400 0.954823
C40_6 C 0.8494(3) 0.54881(15) 0.84618(17)
H15_7 H 0.352047 0.836054 0.001346
C34_7 C 0.3217(3) 0.90519(15) 0.03299(15)
C35_7 C 0.3708(3) 0.90554(15) 0.04981(16)
H21_7 H 0.400015 0.895896 0.034526
C36_7 C 0.3809(2) 0.91974(15) 0.08951(17)
H22_7 H 0.416105 0.919304 0.099868
C37_7 C 0.3392(3) 0.93415(14) 0.11287(15)
C38_7 C 0.2866(3) 0.93481(15) 0.09656(16)
H23_7 H 0.257466 0.944837 0.111656
C39_7 C 0.2789(3) 0.91969(15) 0.05620(16)
H24_7 H 0.244074 0.919600 0.045177
C40_7 C 0.3494(3) 0.95119(15) 0.15382(17)
O1_7 O 0.42697(16) 0.56860(10) 0.75572(10)
O2_7 O 0.33866(17) 0.57920(10) 0.75332(11)
O5_7 O 0.34865(17) 0.79571(10) 0.93532(11)
N1_7 N 0.4801(2) 0.77162(14) 0.79680(16)
H1_7 H 0.488977 0.795183 0.786736
H2_7 H 0.462158 0.757752 0.778957
N2_7 N 0.2662(2) 0.95165(13) 0.96903(13)
H3_7 H 0.279892 0.959697 0.991790
H4_7 H 0.231261 0.951527 0.970881
C1_7 C 0.3854(3) 0.59130(16) 0.76366(16)
C2_7 C 0.3922(3) 0.63128(15) 0.78422(15)
C3_7 C 0.4432(3) 0.64414(15) 0.79609(17)
H5_7 H 0.473147 0.627292 0.791317
C4_7 C 0.4505(2) 0.68285(15) 0.81551(17)
H6_7 H 0.485191 0.691817 0.822536
C5_7 C 0.4059(3) 0.70700(14) 0.82387(15)
C6_7 C 0.3551(3) 0.69229(16) 0.81279(18)
H7_7 H 0.324294 0.707713 0.818998
C7_7 C 0.3495(2) 0.65572(16) 0.79299(17)
H8_7 H 0.314880 0.647253 0.785220
C8_7 C 0.4117(2) 0.74661(14) 0.84618(16)
C9_7 C 0.4454(2) 0.77746(16) 0.83243(16)
C10_7 C 0.4466(3) 0.81660(14) 0.85221(17)
C11_7 C 0.4151(3) 0.82217(15) 0.88587(16)
H9_7 H 0.416321 0.847177 0.899704
C12_7 C 0.3816(2) 0.79134(15) 0.89963(15)
C13_7 C 0.3797(2) 0.75405(14) 0.88015(16)
H10_7 H 0.356705 0.733486 0.889800
C14_7 C 0.4811(3) 0.85185(15) 0.83690(16)
C15_7 C 0.5361(3) 0.85202(16) 0.83862(18)
H11_7 H 0.553860 0.828764 0.848544
C16_7 C 0.5668(3) 0.88518(16) 0.82630(18)
H12_7 H 0.604504 0.884585 0.828552
C17_7 C 0.5406(3) 0.91964(15) 0.81041(16)
C18_7 C 0.4865(3) 0.92068(16) 0.80864(18)
H13_7 H 0.469066 0.943697 0.797942
C19_7 C 0.4558(3) 0.88709(18) 0.82289(18)
H14_7 H 0.417990 0.888637 0.822878
C20_7 C 0.5720(3) 0.95599(16) 0.79729(16)
C21_7 C 0.3295(2) 0.83443(15) 0.94311(15)
C22_7 C 0.3337(2) 0.85120(15) 0.98159(15)
C23_7 C 0.3124(2) 0.88934(15) 0.99274(15)
C24_7 C 0.2845(2) 0.91252(15) 0.96120(15)
C25_7 C 0.2800(2) 0.89566(15) 0.92199(14)
C26_7 C 0.3017(2) 0.85704(15) 0.91349(16)
H16_7 H 0.297720 0.846029 0.887518
C27_7 C 0.2812(3) 0.92411(15) 0.85217(16)
H17_7 H 0.316380 0.913951 0.849344
C28_7 C 0.2547(3) 0.91861(15) 0.88745(16)
C29_7 C 0.2028(3) 0.93469(17) 0.89108(15)
H18_7 H 0.184942 0.932375 0.915944
C30_7 C 0.1766(3) 0.95391(17) 0.85942(16)
H19_7 H 0.140620 0.962143 0.862750
C31_7 C 0.2024(3) 0.96135(16) 0.82259(16)
C32_7 C 0.2569(3) 0.94486(15) 0.81951(16)
H20_7 H 0.276243 0.948110 0.795361
C33_7 C 0.1777(3) 0.98295(15) 0.78886(16)
O1_8 O 0.07303(16) 0.43140(10) 0.25572(10)
O2_8 O 0.16134(17) 0.42080(10) 0.25332(11)
O5_8 O 0.15135(17) 0.20429(10) 0.43532(11)
N1_8 N 0.0199(2) 0.22838(14) 0.29680(16)
H1_8 H 0.011023 0.204817 0.286736
H2_8 H 0.037842 0.242248 0.278957
N2_8 N 0.2338(2) 0.04835(13) 0.46903(13)
H3_8 H 0.220108 0.040303 0.491790
H4_8 H 0.268739 0.048473 0.470881
C1_8 C 0.1146(3) 0.40870(16) 0.26366(16)
C2_8 C 0.1078(3) 0.36872(15) 0.28422(15)
C3_8 C 0.0568(3) 0.35586(15) 0.29609(17)
H5_8 H 0.026853 0.372708 0.291317
C4_8 C 0.0495(2) 0.31715(15) 0.31551(17)
H6_8 H 0.014809 0.308183 0.322536
C5_8 C 0.0941(3) 0.29300(14) 0.32387(15)
C6_8 C 0.1449(3) 0.30771(16) 0.31279(18)
H7_8 H 0.175706 0.292287 0.318998
C7_8 C 0.1505(2) 0.34428(16) 0.29299(17)
H8_8 H 0.185120 0.352747 0.285220
C8_8 C 0.0883(2) 0.25339(14) 0.34618(16)
C9_8 C 0.0546(2) 0.22254(16) 0.33243(16)
C10_8 C 0.0534(3) 0.18340(14) 0.35221(17)
C11_8 C 0.0849(3) 0.17783(15) 0.38587(16)
H9_8 H 0.083679 0.152823 0.399704
C12_8 C 0.1184(2) 0.20866(15) 0.39963(15)
C13_8 C 0.1203(2) 0.24595(14) 0.38015(16)
H10_8 H 0.143295 0.266514 0.389800
C14_8 C 0.0189(3) 0.14815(15) 0.33690(16)
C18_8 C 0.0135(3) 0.07932(16) 0.30864(18)
H13_8 H 0.030934 0.056303 0.297942
C19_8 C 0.0442(3) 0.11291(18) 0.32289(18)
H14_8 H 0.082010 0.111363 0.322878
C21_8 C 0.1705(2) 0.16557(15) 0.44311(15)
C22_8 C 0.1663(2) 0.14880(15) 0.48159(15)
H15_8 H 0.147953 0.163946 0.501346
C23_8 C 0.1876(2) 0.11066(15) 0.49274(15)
C24_8 C 0.2155(2) 0.08748(15) 0.46120(15)
C25_8 C 0.2200(2) 0.10434(15) 0.42199(14)
C26_8 C 0.1983(2) 0.14296(15) 0.41349(16)
H16_8 H 0.202280 0.153971 0.387518
C27_8 C 0.2188(3) 0.07589(15) 0.35217(16)
H17_8 H 0.183620 0.086049 0.349344
C28_8 C 0.2453(3) 0.08139(15) 0.38745(16)
C29_8 C 0.2972(3) 0.06531(17) 0.39108(15)
H18_8 H 0.315058 0.067625 0.415944
C30_8 C 0.3234(3) 0.04609(17) 0.35942(16)
H19_8 H 0.359380 0.037857 0.362750
C31_8 C 0.2976(3) 0.03865(16) 0.32259(16)
C32_8 C 0.2431(3) 0.05514(15) 0.31951(16)
H20_8 H 0.223757 0.051890 0.295361
C33_8 C 0.3223(3) 0.01705(15) 0.28886(16)
C34_8 C 0.1783(3) 0.09481(15) 0.53299(15)
C35_8 C 0.1292(3) 0.09446(15) 0.54981(16)
H21_8 H 0.099985 0.104104 0.534526
C36_8 C 0.1191(2) 0.08026(15) 0.58951(17)
H22_8 H 0.083895 0.080696 0.599868
C37_8 C 0.1608(3) 0.06585(14) 0.61287(15)
C38_8 C 0.2134(3) 0.06519(15) 0.59656(16)
H23_8 H 0.242534 0.055163 0.611656
C39_8 C 0.2211(3) 0.08031(15) 0.55620(16)
H24_8 H 0.255926 0.080400 0.545177
C40_8 C 0.1506(3) 0.04881(15) 0.65382(17)
C15_8 C 0.9639(3) 0.14798(16) 0.33862(18)
H11_8 H 0.946140 0.171236 0.348544
C16_8 C 0.9332(3) 0.11482(16) 0.32630(18)
H12_8 H 0.895496 0.115415 0.328552
C17_8 C 0.9594(3) 0.08036(15) 0.31041(16)
C20_8 C 0.9280(3) 0.04401(16) 0.29729(16)
loop_
_geom_bond_atom_site_label_1
_geom_bond_atom_site_label_2
_geom_bond_site_symmetry_1
_geom_bond_site_symmetry_2
In1 O1 1_555 1_555
O1 C1 1_555 1_555
O2 In1 1_555 1_555
O3 C20 1_555 1_555
O4 C20 1_555 1_555
O5 C12 1_555 1_555
O6 C33 1_555 1_555
O7 C33 1_555 1_555
O8 C40 1_555 1_555
O9 C40 1_555 1_555
N1 H1 1_555 1_555
H2 N1 1_555 1_555
N2 H3 1_555 1_555
H4 N2 1_555 1_555
C1 O2 1_555 1_555
C2 C1 1_555 1_555
C3 C2 1_555 1_555
H5 C3 1_555 1_555
C4 C3 1_555 1_555
H6 C4 1_555 1_555
C5 C4 1_555 1_555
C6 C5 1_555 1_555
H7 C6 1_555 1_555
C7 C2 1_555 1_555
H8 C7 1_555 1_555
C8 C5 1_555 1_555
C9 N1 1_555 1_555
C10 C9 1_555 1_555
C11 C10 1_555 1_555
H9 C11 1_555 1_555
C12 C11 1_555 1_555
C13 C8 1_555 1_555
H10 C13 1_555 1_555
C14 C10 1_555 1_555
C15 C14 1_555 1_555
H11 C15 1_555 1_555
C16 C15 1_555 1_555
H12 C16 1_555 1_555
C17 C16 1_555 1_555
C18 C17 1_555 1_555
H13 C18 1_555 1_555
C19 C14 1_555 1_555
H14 C19 1_555 1_555
C20 C17 1_555 1_555
C21 O5 1_555 1_555
C22 C21 1_555 1_555
H15 C22 1_555 1_555
C23 C22 1_555 1_555
C24 N2 1_555 1_555
C25 C24 1_555 1_555
C26 C21 1_555 1_555
H16 C26 1_555 1_555
C27 H17 1_555 1_555
C28 C25 1_555 1_555
C29 C28 1_555 1_555
H18 C29 1_555 1_555
C30 C29 1_555 1_555
H19 C30 1_555 1_555
C31 C30 1_555 1_555
C32 C27 1_555 1_555
H20 C32 1_555 1_555
C33 C31 1_555 1_555
C34 C23 1_555 1_555
C35 C34 1_555 1_555
H21 C35 1_555 1_555
C36 C35 1_555 1_555
H22 C36 1_555 1_555
C37 C36 1_555 1_555
C38 C37 1_555 1_555
H23 C38 1_555 1_555
C39 C34 1_555 1_555
H24 C39 1_555 1_555
C40 C37 1_555 1_555
In2 O3 1_555 1_555
In3 O8 1_555 1_555
In4 O6 1_555 1_555
O14 In1 1_555 1_555
O15 In1 1_555 1_555
O4 In2 1_555 1_555
O7 In4 1_555 1_555
O9 In3 1_555 1_555
C6 C7 1_555 1_555
C8 C9 1_555 1_555
C12 C13 1_555 1_555
C18 C19 1_555 1_555
C23 C24 1_555 1_555
C25 C26 1_555 1_555
C27 C28 1_555 1_555
C31 C32 1_555 1_555
C38 C39 1_555 1_555
O8_2 C40_2 1_555 1_555
O9_2 C40_2 1_555 1_555
C35_2 C34_2 1_555 1_555
H21_2 C35_2 1_555 1_555
C36_2 C35_2 1_555 1_555
H22_2 C36_2 1_555 1_555
C37_2 C36_2 1_555 1_555
C38_2 C37_2 1_555 1_555
H23_2 C38_2 1_555 1_555
C39_2 C34_2 1_555 1_555
H24_2 C39_2 1_555 1_555
C40_2 C37_2 1_555 1_555
In4 O8_2 1_555 1_555
O9_2 In4 1_555 1_555
C38_2 C39_2 1_555 1_555
In1_2 O1_2 1_555 1_555
O1_2 C1_2 1_555 1_555
O2_2 In1_2 1_555 1_555
O5_2 C12_2 1_555 1_555
O6_2 C33_2 1_555 1_555
O7_2 C33_2 1_555 1_555
N1_2 H1_2 1_555 1_555
H2_2 N1_2 1_555 1_555
N2_2 H3_2 1_555 1_555
H4_2 N2_2 1_555 1_555
C1_2 O2_2 1_555 1_555
C2_2 C1_2 1_555 1_555
C3_2 C2_2 1_555 1_555
H5_2 C3_2 1_555 1_555
C4_2 C3_2 1_555 1_555
H6_2 C4_2 1_555 1_555
C5_2 C4_2 1_555 1_555
C6_2 C5_2 1_555 1_555
H7_2 C6_2 1_555 1_555
C7_2 C2_2 1_555 1_555
H8_2 C7_2 1_555 1_555
C8_2 C5_2 1_555 1_555
C9_2 N1_2 1_555 1_555
C10_2 C9_2 1_555 1_555
C11_2 C10_2 1_555 1_555
H9_2 C11_2 1_555 1_555
C12_2 C11_2 1_555 1_555
C13_2 C8_2 1_555 1_555
H10_2 C13_2 1_555 1_555
C14_2 C10_2 1_555 1_555
H13_2 C18_2 1_555 1_555
C19_2 C14_2 1_555 1_555
H14_2 C19_2 1_555 1_555
C21_2 O5_2 1_555 1_555
C22_2 C21_2 1_555 1_555
C23_2 C22_2 1_555 1_555
C24_2 N2_2 1_555 1_555
C25_2 C24_2 1_555 1_555
C26_2 C21_2 1_555 1_555
H16_2 C26_2 1_555 1_555
C27_2 H17_2 1_555 1_555
C28_2 C25_2 1_555 1_555
C29_2 C28_2 1_555 1_555
H18_2 C29_2 1_555 1_555
C30_2 C29_2 1_555 1_555
H19_2 C30_2 1_555 1_555
C31_2 C30_2 1_555 1_555
C32_2 C27_2 1_555 1_555
H20_2 C32_2 1_555 1_555
C33_2 C31_2 1_555 1_555
In3 O6_2 1_555 1_555
O14_2 In1_2 1_555 1_555
O15_2 In1_2 1_555 1_555
O7_2 In3 1_555 1_555
C6_2 C7_2 1_555 1_555
C8_2 C9_2 1_555 1_555
C12_2 C13_2 1_555 1_555
C18_2 C19_2 1_555 1_555
C23_2 C24_2 1_555 1_555
C25_2 C26_2 1_555 1_555
C27_2 C28_2 1_555 1_555
C31_2 C32_2 1_555 1_555
O3_2 C20_2 1_555 1_555
O4_2 C20_2 1_555 1_555
H11_2 C15_2 1_555 1_555
C16_2 C15_2 1_555 1_555
H12_2 C16_2 1_555 1_555
C17_2 C16_2 1_555 1_555
C20_2 C17_2 1_555 1_555
In2_2 O3_2 1_555 1_555
O4_2 In2_2 1_555 1_555
In2 O1_3 1_555 1_555
O1_3 C1_3 1_555 1_555
O2_3 In2 1_555 1_555
O10 C20_3 1_555 1_555
O11 C20_3 1_555 1_555
O5_3 C12_3 1_555 1_555
O6_3 C33_3 1_555 1_555
O7_3 C33_3 1_555 1_555
N1_3 H1_3 1_555 1_555
H2_3 N1_3 1_555 1_555
N2_3 H3_3 1_555 1_555
H4_3 N2_3 1_555 1_555
C1_3 O2_3 1_555 1_555
C2_3 C1_3 1_555 1_555
C3_3 C2_3 1_555 1_555
H5_3 C3_3 1_555 1_555
C4_3 C3_3 1_555 1_555
H6_3 C4_3 1_555 1_555
C5_3 C4_3 1_555 1_555
C6_3 C5_3 1_555 1_555
H7_3 C6_3 1_555 1_555
C7_3 C2_3 1_555 1_555
H8_3 C7_3 1_555 1_555
C8_3 C5_3 1_555 1_555
C9_3 N1_3 1_555 1_555
C10_3 C9_3 1_555 1_555
C11_3 C10_3 1_555 1_555
H9_3 C11_3 1_555 1_555
C12_3 C11_3 1_555 1_555
C13_3 C8_3 1_555 1_555
H10_3 C13_3 1_555 1_555
C14_3 C10_3 1_555 1_555
C15_3 C14_3 1_555 1_555
H11_3 C15_3 1_555 1_555
C16_3 C15_3 1_555 1_555
H12_3 C16_3 1_555 1_555
C17_3 C16_3 1_555 1_555
C18_3 C17_3 1_555 1_555
H13_3 C18_3 1_555 1_555
C19_3 C14_3 1_555 1_555
H14_3 C19_3 1_555 1_555
C20_3 C17_3 1_555 1_555
C21_3 O5_3 1_555 1_555
C22_3 C21_3 1_555 1_555
C23_3 C22_3 1_555 1_555
C24_3 N2_3 1_555 1_555
C25_3 C24_3 1_555 1_555
C26_3 C21_3 1_555 1_555
H16_3 C26_3 1_555 1_555
C27_3 H17_3 1_555 1_555
C28_3 C25_3 1_555 1_555
C29_3 C28_3 1_555 1_555
H18_3 C29_3 1_555 1_555
C30_3 C29_3 1_555 1_555
H19_3 C30_3 1_555 1_555
C31_3 C30_3 1_555 1_555
C32_3 C27_3 1_555 1_555
H20_3 C32_3 1_555 1_555
C33_3 C31_3 1_555 1_555
O12_3 In2 1_555 1_555
O13_3 In2 1_555 1_555
O14_3 In2 1_555 1_555
O15_3 In2 1_555 1_555
C6_3 C7_3 1_555 1_555
C8_3 C9_3 1_555 1_555
C12_3 C13_3 1_555 1_555
C18_3 C19_3 1_555 1_555
C23_3 C24_3 1_555 1_555
C25_3 C26_3 1_555 1_555
C27_3 C28_3 1_555 1_555
C31_3 C32_3 1_555 1_555
O8_3 C40_3 1_555 1_555
O9_3 C40_3 1_555 1_555
C35_3 C34_3 1_555 1_555
H21_3 C35_3 1_555 1_555
C36_3 C35_3 1_555 1_555
H22_3 C36_3 1_555 1_555
C37_3 C36_3 1_555 1_555
C38_3 C37_3 1_555 1_555
H23_3 C38_3 1_555 1_555
C39_3 C34_3 1_555 1_555
H24_3 C39_3 1_555 1_555
C40_3 C37_3 1_555 1_555
In3_2 O8_3 1_555 1_555
O9_3 In3_2 1_555 1_555
C38_3 C39_3 1_555 1_555
O10_2 C20_4 1_555 1_555
O11_2 C20_4 1_555 1_555
H11_4 C15_4 1_555 1_555
C16_4 C15_4 1_555 1_555
H12_4 C16_4 1_555 1_555
C17_4 C16_4 1_555 1_555
C20_4 C17_4 1_555 1_555
In2_2 O1_4 1_555 1_555
O1_4 C1_4 1_555 1_555
O2_4 In2_2 1_555 1_555
O5_4 C12_4 1_555 1_555
O6_4 C33_4 1_555 1_555
O7_4 C33_4 1_555 1_555
O8_4 C40_4 1_555 1_555
O9_4 C40_4 1_555 1_555
N1_4 H1_4 1_555 1_555
H2_4 N1_4 1_555 1_555
N2_4 H3_4 1_555 1_555
H4_4 N2_4 1_555 1_555
C1_4 O2_4 1_555 1_555
C2_4 C1_4 1_555 1_555
C3_4 C2_4 1_555 1_555
H5_4 C3_4 1_555 1_555
C4_4 C3_4 1_555 1_555
H6_4 C4_4 1_555 1_555
C5_4 C4_4 1_555 1_555
C6_4 C5_4 1_555 1_555
H7_4 C6_4 1_555 1_555
C7_4 C2_4 1_555 1_555
H8_4 C7_4 1_555 1_555
C8_4 C5_4 1_555 1_555
C9_4 N1_4 1_555 1_555
C10_4 C9_4 1_555 1_555
C11_4 C10_4 1_555 1_555
H9_4 C11_4 1_555 1_555
C12_4 C11_4 1_555 1_555
C13_4 C8_4 1_555 1_555
H10_4 C13_4 1_555 1_555
C14_4 C10_4 1_555 1_555
H13_4 C18_4 1_555 1_555
C19_4 C14_4 1_555 1_555
H14_4 C19_4 1_555 1_555
C21_4 O5_4 1_555 1_555
C22_4 C21_4 1_555 1_555
H15_4 C22_4 1_555 1_555
C23_4 C22_4 1_555 1_555
C24_4 N2_4 1_555 1_555
C25_4 C24_4 1_555 1_555
C26_4 C21_4 1_555 1_555
H16_4 C26_4 1_555 1_555
C27_4 H17_4 1_555 1_555
C28_4 C25_4 1_555 1_555
C29_4 C28_4 1_555 1_555
H18_4 C29_4 1_555 1_555
C30_4 C29_4 1_555 1_555
H19_4 C30_4 1_555 1_555
C31_4 C30_4 1_555 1_555
C32_4 C27_4 1_555 1_555
H20_4 C32_4 1_555 1_555
C33_4 C31_4 1_555 1_555
C34_4 C23_4 1_555 1_555
C35_4 C34_4 1_555 1_555
H21_4 C35_4 1_555 1_555
C36_4 C35_4 1_555 1_555
H22_4 C36_4 1_555 1_555
C37_4 C36_4 1_555 1_555
C38_4 C37_4 1_555 1_555
H23_4 C38_4 1_555 1_555
C39_4 C34_4 1_555 1_555
H24_4 C39_4 1_555 1_555
C40_4 C37_4 1_555 1_555
In4_2 O8_4 1_555 1_555
O12_4 In2_2 1_555 1_555
O13_4 In2_2 1_555 1_555
O14_4 In2_2 1_555 1_555
O15_4 In2_2 1_555 1_555
O9_4 In4_2 1_555 1_555
C6_4 C7_4 1_555 1_555
C8_4 C9_4 1_555 1_555
C12_4 C13_4 1_555 1_555
C18_4 C19_4 1_555 1_555
C23_4 C24_4 1_555 1_555
C25_4 C26_4 1_555 1_555
C27_4 C28_4 1_555 1_555
C31_4 C32_4 1_555 1_555
C38_4 C39_4 1_555 1_555
In3_2 O1_5 1_555 1_555
O1_5 C1_5 1_555 1_555
O2_5 In3_2 1_555 1_555
O3_3 C20_5 1_555 1_555
O4_3 C20_5 1_555 1_555
O5_5 C12_5 1_555 1_555
O12_4 C33_5 1_555 1_555
O13_4 C33_5 1_555 1_555
O14_3 C40_5 1_555 1_555
O15_3 C40_5 1_555 1_555
N1_5 H1_5 1_555 1_555
H2_5 N1_5 1_555 1_555
N2_5 H3_5 1_555 1_555
H4_5 N2_5 1_555 1_555
C1_5 O2_5 1_555 1_555
C2_5 C1_5 1_555 1_555
C3_5 C2_5 1_555 1_555
H5_5 C3_5 1_555 1_555
C4_5 C3_5 1_555 1_555
H6_5 C4_5 1_555 1_555
C5_5 C4_5 1_555 1_555
C6_5 C5_5 1_555 1_555
H7_5 C6_5 1_555 1_555
C7_5 C2_5 1_555 1_555
H8_5 C7_5 1_555 1_555
C8_5 C5_5 1_555 1_555
C9_5 N1_5 1_555 1_555
C10_5 C9_5 1_555 1_555
C11_5 C10_5 1_555 1_555
H9_5 C11_5 1_555 1_555
C12_5 C11_5 1_555 1_555
C13_5 C8_5 1_555 1_555
H10_5 C13_5 1_555 1_555
C14_5 C10_5 1_555 1_555
C15_5 C14_5 1_555 1_555
H11_5 C15_5 1_555 1_555
C16_5 C15_5 1_555 1_555
H12_5 C16_5 1_555 1_555
C17_5 C16_5 1_555 1_555
C18_5 C17_5 1_555 1_555
H13_5 C18_5 1_555 1_555
C19_5 C14_5 1_555 1_555
H14_5 C19_5 1_555 1_555
C20_5 C17_5 1_555 1_555
C21_5 O5_5 1_555 1_555
C22_5 C21_5 1_555 1_555
H15_5 C22_5 1_555 1_555
C23_5 C22_5 1_555 1_555
C24_5 N2_5 1_555 1_555
C25_5 C24_5 1_555 1_555
C26_5 C21_5 1_555 1_555
H16_5 C26_5 1_555 1_555
C27_5 H17_5 1_555 1_555
C28_5 C25_5 1_555 1_555
C29_5 C28_5 1_555 1_555
H18_5 C29_5 1_555 1_555
C30_5 C29_5 1_555 1_555
H19_5 C30_5 1_555 1_555
C31_5 C30_5 1_555 1_555
C32_5 C27_5 1_555 1_555
H20_5 C32_5 1_555 1_555
C33_5 C31_5 1_555 1_555
C34_5 C23_5 1_555 1_555
C35_5 C34_5 1_555 1_555
H21_5 C35_5 1_555 1_555
C36_5 C35_5 1_555 1_555
H22_5 C36_5 1_555 1_555
C37_5 C36_5 1_555 1_555
C38_5 C37_5 1_555 1_555
H23_5 C38_5 1_555 1_555
C39_5 C34_5 1_555 1_555
H24_5 C39_5 1_555 1_555
C40_5 C37_5 1_555 1_555
In3 O3_3 1_555 1_555
O4_3 In3 1_555 1_555
C6_5 C7_5 1_555 1_555
C8_5 C9_5 1_555 1_555
C12_5 C13_5 1_555 1_555
C18_5 C19_5 1_555 1_555
C23_5 C24_5 1_555 1_555
C25_5 C26_5 1_555 1_555
C27_5 C28_5 1_555 1_555
C31_5 C32_5 1_555 1_555
C38_5 C39_5 1_555 1_555
O3_4 C20_6 1_555 1_555
O4_4 C20_6 1_555 1_555
H11_6 C15_6 1_555 1_555
C16_6 C15_6 1_555 1_555
H12_6 C16_6 1_555 1_555
C17_6 C16_6 1_555 1_555
C20_6 C17_6 1_555 1_555
In4 O3_4 1_555 1_555
O4_4 In4 1_555 1_555
In4_2 O1_6 1_555 1_555
O1_6 C1_6 1_555 1_555
O2_6 In4_2 1_555 1_555
O5_6 C12_6 1_555 1_555
O12_3 C33_6 1_555 1_555
O13_3 C33_6 1_555 1_555
N1_6 H1_6 1_555 1_555
H2_6 N1_6 1_555 1_555
N2_6 H3_6 1_555 1_555
H4_6 N2_6 1_555 1_555
C1_6 O2_6 1_555 1_555
C2_6 C1_6 1_555 1_555
C3_6 C2_6 1_555 1_555
H5_6 C3_6 1_555 1_555
C4_6 C3_6 1_555 1_555
H6_6 C4_6 1_555 1_555
C5_6 C4_6 1_555 1_555
C6_6 C5_6 1_555 1_555
H7_6 C6_6 1_555 1_555
C7_6 C2_6 1_555 1_555
H8_6 C7_6 1_555 1_555
C8_6 C5_6 1_555 1_555
C9_6 N1_6 1_555 1_555
C10_6 C9_6 1_555 1_555
C11_6 C10_6 1_555 1_555
H9_6 C11_6 1_555 1_555
C12_6 C11_6 1_555 1_555
C13_6 C8_6 1_555 1_555
H10_6 C13_6 1_555 1_555
C14_6 C10_6 1_555 1_555
H13_6 C18_6 1_555 1_555
C19_6 C14_6 1_555 1_555
H14_6 C19_6 1_555 1_555
C21_6 O5_6 1_555 1_555
C22_6 C21_6 1_555 1_555
C23_6 C22_6 1_555 1_555
C24_6 N2_6 1_555 1_555
C25_6 C24_6 1_555 1_555
C26_6 C21_6 1_555 1_555
H16_6 C26_6 1_555 1_555
C27_6 H17_6 1_555 1_555
C28_6 C25_6 1_555 1_555
C29_6 C28_6 1_555 1_555
H18_6 C29_6 1_555 1_555
C30_6 C29_6 1_555 1_555
H19_6 C30_6 1_555 1_555
C31_6 C30_6 1_555 1_555
C32_6 C27_6 1_555 1_555
H20_6 C32_6 1_555 1_555
C33_6 C31_6 1_555 1_555
C6_6 C7_6 1_555 1_555
C8_6 C9_6 1_555 1_555
C12_6 C13_6 1_555 1_555
C18_6 C19_6 1_555 1_555
C23_6 C24_6 1_555 1_555
C25_6 C26_6 1_555 1_555
C27_6 C28_6 1_555 1_555
C31_6 C32_6 1_555 1_555
O14_4 C40_6 1_555 1_555
O15_4 C40_6 1_555 1_555
C35_6 C34_6 1_555 1_555
H21_6 C35_6 1_555 1_555
C36_6 C35_6 1_555 1_555
H22_6 C36_6 1_555 1_555
C37_6 C36_6 1_555 1_555
C38_6 C37_6 1_555 1_555
H23_6 C38_6 1_555 1_555
C39_6 C34_6 1_555 1_555
H24_6 C39_6 1_555 1_555
C40_6 C37_6 1_555 1_555
C38_6 C39_6 1_555 1_555
O14 C40_7 1_555 1_555
O15 C40_7 1_555 1_555
C35_7 C34_7 1_555 1_555
H21_7 C35_7 1_555 1_555
C36_7 C35_7 1_555 1_555
H22_7 C36_7 1_555 1_555
C37_7 C36_7 1_555 1_555
C38_7 C37_7 1_555 1_555
H23_7 C38_7 1_555 1_555
C39_7 C34_7 1_555 1_555
H24_7 C39_7 1_555 1_555
C40_7 C37_7 1_555 1_555
C38_7 C39_7 1_555 1_555
In3 O1_7 1_555 1_555
O1_7 C1_7 1_555 1_555
O2_7 In3 1_555 1_555
O10_3 C20_7 1_555 1_555
O11_3 C20_7 1_555 1_555
O5_7 C12_7 1_555 1_555
O12_2 C33_7 1_555 1_555
O13_2 C33_7 1_555 1_555
N1_7 H1_7 1_555 1_555
H2_7 N1_7 1_555 1_555
N2_7 H3_7 1_555 1_555
H4_7 N2_7 1_555 1_555
C1_7 O2_7 1_555 1_555
C2_7 C1_7 1_555 1_555
C3_7 C2_7 1_555 1_555
H5_7 C3_7 1_555 1_555
C4_7 C3_7 1_555 1_555
H6_7 C4_7 1_555 1_555
C5_7 C4_7 1_555 1_555
C6_7 C5_7 1_555 1_555
H7_7 C6_7 1_555 1_555
C7_7 C2_7 1_555 1_555
H8_7 C7_7 1_555 1_555
C8_7 C5_7 1_555 1_555
C9_7 N1_7 1_555 1_555
C10_7 C9_7 1_555 1_555
C11_7 C10_7 1_555 1_555
H9_7 C11_7 1_555 1_555
C12_7 C11_7 1_555 1_555
C13_7 C8_7 1_555 1_555
H10_7 C13_7 1_555 1_555
C14_7 C10_7 1_555 1_555
C15_7 C14_7 1_555 1_555
H11_7 C15_7 1_555 1_555
C16_7 C15_7 1_555 1_555
H12_7 C16_7 1_555 1_555
C17_7 C16_7 1_555 1_555
C18_7 C17_7 1_555 1_555
H13_7 C18_7 1_555 1_555
C19_7 C14_7 1_555 1_555
H14_7 C19_7 1_555 1_555
C20_7 C17_7 1_555 1_555
C21_7 O5_7 1_555 1_555
C22_7 C21_7 1_555 1_555
C23_7 C22_7 1_555 1_555
C24_7 N2_7 1_555 1_555
C25_7 C24_7 1_555 1_555
C26_7 C21_7 1_555 1_555
H16_7 C26_7 1_555 1_555
C27_7 H17_7 1_555 1_555
C28_7 C25_7 1_555 1_555
C29_7 C28_7 1_555 1_555
H18_7 C29_7 1_555 1_555
C30_7 C29_7 1_555 1_555
H19_7 C30_7 1_555 1_555
C31_7 C30_7 1_555 1_555
C32_7 C27_7 1_555 1_555
H20_7 C32_7 1_555 1_555
C33_7 C31_7 1_555 1_555
C6_7 C7_7 1_555 1_555
C8_7 C9_7 1_555 1_555
C12_7 C13_7 1_555 1_555
C18_7 C19_7 1_555 1_555
C23_7 C24_7 1_555 1_555
C25_7 C26_7 1_555 1_555
C27_7 C28_7 1_555 1_555
C31_7 C32_7 1_555 1_555
In4 O1_8 1_555 1_555
O1_8 C1_8 1_555 1_555
O2_8 In4 1_555 1_555
O5_8 C12_8 1_555 1_555
O12 C33_8 1_555 1_555
O13 C33_8 1_555 1_555
O14_2 C40_8 1_555 1_555
O15_2 C40_8 1_555 1_555
N1_8 H1_8 1_555 1_555
H2_8 N1_8 1_555 1_555
N2_8 H3_8 1_555 1_555
H4_8 N2_8 1_555 1_555
C1_8 O2_8 1_555 1_555
C2_8 C1_8 1_555 1_555
C3_8 C2_8 1_555 1_555
H5_8 C3_8 1_555 1_555
C4_8 C3_8 1_555 1_555
H6_8 C4_8 1_555 1_555
C5_8 C4_8 1_555 1_555
C6_8 C5_8 1_555 1_555
H7_8 C6_8 1_555 1_555
C7_8 C2_8 1_555 1_555
H8_8 C7_8 1_555 1_555
C8_8 C5_8 1_555 1_555
C9_8 N1_8 1_555 1_555
C10_8 C9_8 1_555 1_555
C11_8 C10_8 1_555 1_555
H9_8 C11_8 1_555 1_555
C12_8 C11_8 1_555 1_555
C13_8 C8_8 1_555 1_555
H10_8 C13_8 1_555 1_555
C14_8 C10_8 1_555 1_555
H13_8 C18_8 1_555 1_555
C19_8 C14_8 1_555 1_555
H14_8 C19_8 1_555 1_555
C21_8 O5_8 1_555 1_555
C22_8 C21_8 1_555 1_555
H15_8 C22_8 1_555 1_555
C23_8 C22_8 1_555 1_555
C24_8 N2_8 1_555 1_555
C25_8 C24_8 1_555 1_555
C26_8 C21_8 1_555 1_555
H16_8 C26_8 1_555 1_555
C27_8 H17_8 1_555 1_555
C28_8 C25_8 1_555 1_555
C29_8 C28_8 1_555 1_555
H18_8 C29_8 1_555 1_555
C30_8 C29_8 1_555 1_555
H19_8 C30_8 1_555 1_555
C31_8 C30_8 1_555 1_555
C32_8 C27_8 1_555 1_555
H20_8 C32_8 1_555 1_555
C33_8 C31_8 1_555 1_555
C34_8 C23_8 1_555 1_555
C35_8 C34_8 1_555 1_555
H21_8 C35_8 1_555 1_555
C36_8 C35_8 1_555 1_555
H22_8 C36_8 1_555 1_555
C37_8 C36_8 1_555 1_555
C38_8 C37_8 1_555 1_555
H23_8 C38_8 1_555 1_555
C39_8 C34_8 1_555 1_555
H24_8 C39_8 1_555 1_555
C40_8 C37_8 1_555 1_555
C6_8 C7_8 1_555 1_555
C8_8 C9_8 1_555 1_555
C12_8 C13_8 1_555 1_555
C18_8 C19_8 1_555 1_555
C23_8 C24_8 1_555 1_555
C25_8 C26_8 1_555 1_555
C27_8 C28_8 1_555 1_555
C31_8 C32_8 1_555 1_555
C38_8 C39_8 1_555 1_555
O10_4 C20_8 1_555 1_555
O11_4 C20_8 1_555 1_555
H11_8 C15_8 1_555 1_555
C16_8 C15_8 1_555 1_555
H12_8 C16_8 1_555 1_555
C17_8 C16_8 1_555 1_555
C20_8 C17_8 1_555 1_555

#END
