
###############################################################################
#
# This file contains modified crystal structure data generated from the
# MOF subset of the Cambridge Structural Database (CSD) v543 
# hosted by the Cambridge Crystallographic Data Centre (CCDC).
#
# This work is licensed under the Creative Commons
# Attribution-NonCommercial-ShareAlike 4.0 International License.
# To view a copy of this license, visit
# http://creativecommons.org/licenses/by-nc-sa/4.0/
# or send a letter to
# Creative Commons, PO Box 1866, Mountain View, CA 94042, USA.
#
# CIF created using the CSD Python API on 29 September 2022
# The structure has been converted into the P1 space group
# The structure has a 3D framework
# The original CSD entry KOJZAN is in the monoclinic crystal system
# The framework has been calculated to contain at least 10.0% void space
# The void calculation uses a probe of radius 1.32A, grid spacing 0.4
# The framework is charged, counterions have been retained in the structure
#
###############################################################################

data_KOJZAN
_chemical_formula_moiety         '(C320 H176 In8 O70 8-)n'
_symmetry_cell_setting           triclinic
_symmetry_space_group_name_H-M   'P 1'
_symmetry_Int_Tables_number      1
_space_group_name_Hall           'P 1'
loop_
_symmetry_equiv_pos_site_id
_symmetry_equiv_pos_as_xyz
1 x,y,z
_cell_length_a                   34.946(3)
_cell_length_b                   17.4553(17)
_cell_length_c                   23.700(2)
_cell_angle_alpha                90
_cell_angle_beta                 108.999(2)
_cell_angle_gamma                90
_cell_volume                     13669.3
loop_
_atom_site_label
_atom_site_type_symbol
_atom_site_fract_x
_atom_site_fract_y
_atom_site_fract_z
O14 O 0.0048(4) 0.6981(8) 0.7043(5)
O21 O 0.0573(3) 0.9402(6) 0.2634(5)
O22 O 0.0603(3) 0.9545(7) 0.1762(5)
O26 O 0.0048(4) 0.8019(8) 0.2043(5)
O12 O 0.8065(3) 0.0549(7) 0.4816(5)
O15 O 0.9942(3) 0.4354(5) 0.7018(5)
O16 O 0.9735(3) 0.4795(6) 0.6144(5)
C51 C 0.8254(4) 0.0002(10) 0.3977(8)
H28 H 0.852249 0.014823 0.414970
C52 C 0.7967(5) 0.0162(11) 0.4289(7)
C61 C 0.8467(5) 0.0524(10) 0.5158(8)
C62 C 0.8641(4) 0.1303(9) 0.5302(7)
H34 H 0.849586 0.174300 0.514364
C63 C 0.9043(4) 0.1327(7) 0.5696(7)
C64 C 0.9276(4) 0.0682(8) 0.5857(7)
H35 H 0.954977 0.072610 0.607301
C67 C 0.9229(4) 0.2090(6) 0.5858(6)
C68 C 0.9150(5) 0.2726(8) 0.5522(7)
H37 H 0.897722 0.268159 0.513102
C69 C 0.9294(6) 0.3387(9) 0.5702(8)
H38 H 0.919047 0.380986 0.546205
C70 C 0.9611(5) 0.3501(9) 0.6260(7)
C71 C 0.9707(5) 0.2867(9) 0.6644(8)
H39 H 0.987906 0.293249 0.703338
C72 C 0.9549(5) 0.2135(8) 0.6453(6)
H40 H 0.964057 0.170108 0.668607
C73 C 0.9791(5) 0.4276(8) 0.6510(7)
In5 In 0.99918(3) 0.56325(6) 0.69139(5)
O19 O 0.5010(3) 0.0127(5) 0.2033(5)
O27 O 0.9942(3) 0.0646(5) 0.2018(5)
O28 O 0.9735(3) 0.0205(6) 0.1144(5)
In1 In 0.99918(3) 0.93675(6) 0.19139(5)
In2 In 0.49749(3) 0.87811(5) 0.19504(4)
O8 O 0.4978(3) 0.7550(4) 0.2042(4)
O9 O 0.4724(3) 0.7959(5) 0.1180(5)
O10 O 0.5546(3) 0.8758(6) 0.2692(5)
O11 O 0.5600(3) 0.8833(7) 0.1800(5)
O13 O 0.9793(3) 0.6463(5) 0.6121(5)
O17 O 0.9767(3) 0.9308(6) 0.2723(5)
O18 O 0.9358(3) 0.9282(7) 0.1860(5)
C21 C 0.3522(4) 0.3777(7) 0.0038(6)
C22 C 0.3708(5) 0.3097(8) 0.0236(7)
H12 H 0.357459 0.263690 0.010429
C23 C 0.4106(4) 0.3100(7) 0.0642(6)
C24 C 0.4277(4) 0.3760(7) 0.0811(6)
H13 H 0.454224 0.375147 0.106991
C25 C 0.4105(4) 0.4481(7) 0.0643(6)
C26 C 0.3712(5) 0.4460(8) 0.0262(7)
H14 H 0.357015 0.491702 0.015347
C27 C 0.4319(5) 0.2368(10) 0.0836(8)
C28 C 0.4212(5) 0.1705(9) 0.0431(9)
H15 H 0.401994 0.172909 0.005287
C29 C 0.4438(5) 0.0993(7) 0.0680(8)
H16 H 0.441757 0.056593 0.043764
C30 C 0.4675(4) 0.0969(8) 0.1262(6)
C31 C 0.4778(5) 0.1593(7) 0.1617(7)
H17 H 0.497362 0.155886 0.199236
C32 C 0.4592(4) 0.2273(7) 0.1416(6)
H18 H 0.464777 0.269118 0.167279
C33 C 0.4812(5) 0.0162(10) 0.1510(8)
C34 C 0.4290(4) 0.5193(7) 0.0842(6)
C35 C 0.4193(5) 0.5873(9) 0.0491(7)
H19 H 0.401224 0.584255 0.010373
C36 C 0.4354(4) 0.6561(8) 0.0702(6)
H20 H 0.428125 0.699034 0.045823
C37 C 0.4632(5) 0.6642(8) 0.1291(7)
C38 C 0.4750(4) 0.5978(8) 0.1633(6)
H21 H 0.494787 0.600671 0.200643
C39 C 0.4577(5) 0.5277(9) 0.1421(7)
H22 H 0.465145 0.484876 0.166591
C40 C 0.4779(4) 0.7372(7) 0.1536(6)
C41 C 0.5767(4) 0.8851(10) 0.2366(8)
C42 C 0.6195(4) 0.8939(9) 0.2640(7)
C43 C 0.6384(4) 0.8907(9) 0.3251(8)
H23 H 0.622881 0.877605 0.349033
C44 C 0.6781(4) 0.9058(10) 0.3518(7)
H24 H 0.689258 0.900759 0.393023
C45 C 0.7030(4) 0.9289(9) 0.3184(7)
C46 C 0.6868(5) 0.9292(12) 0.2595(8)
H25 H 0.702945 0.940716 0.236251
C47 C 0.6442(5) 0.9116(10) 0.2305(7)
H26 H 0.633397 0.912386 0.189086
C48 C 0.7453(4) 0.9544(11) 0.3469(6)
C49 C 0.7737(4) 0.9368(12) 0.3199(8)
H27 H 0.766022 0.906270 0.285852
C50 C 0.8135(5) 0.9632(11) 0.3420(7)
C53 C 0.7578(5) 0.9893(9) 0.4018(7)
H29 H 0.739101 0.995258 0.421815
C54 C 0.8456(5) 0.9479(10) 0.3175(7)
C55 C 0.8378(6) 0.9506(17) 0.2558(10)
H30 H 0.811267 0.961087 0.232446
C56 C 0.8648(5) 0.9396(14) 0.2264(10)
H31 H 0.857094 0.937899 0.185027
C57 C 0.9075(4) 0.9303(10) 0.2650(7)
C58 C 0.9167(6) 0.9230(13) 0.3277(9)
H32 H 0.942835 0.910989 0.351968
C59 C 0.8862(4) 0.9342(13) 0.3518(8)
H33 H 0.892830 0.932616 0.393082
C60 C 0.9388(6) 0.9265(11) 0.2363(8)
C65 C 0.9088(5) 0.9887(9) 0.5683(7)
C66 C 0.8670(4) 0.9889(9) 0.5315(7)
H36 H 0.854072 0.942427 0.518611
C74 C 0.9314(4) 0.9211(8) 0.5876(7)
C75 C 0.9233(5) 0.8561(8) 0.5526(8)
H41 H 0.904722 0.860530 0.514419
C76 C 0.9402(5) 0.7861(10) 0.5694(8)
H42 H 0.934330 0.744653 0.543349
C77 C 0.9674(6) 0.7795(10) 0.6285(8)
C78 C 0.9775(6) 0.8466(10) 0.6606(7)
H43 H 0.997174 0.844105 0.698068
C79 C 0.9619(5) 0.9123(10) 0.6425(7)
H44 H 0.971087 0.955049 0.666564
C80 C 0.9870(5) 0.7010(8) 0.6480(8)
O20 O 0.4763(3) 0.9574(5) 0.1134(4)
O23 O 0.4306(3) 0.8981(7) 0.1860(5)
O24 O 0.4739(3) 0.8891(6) 0.2732(5)
O25 O 0.9793(3) 0.8537(5) 0.1121(5)
O3 O 0.3116(3) 0.3737(6) 0.9642(5)
O4 O 0.0573(3) 0.5598(6) 0.7634(5)
O5 O 0.0603(3) 0.5455(7) 0.6762(5)
O6 O 0.4306(3) 0.6019(7) 0.6860(5)
O7 O 0.4739(3) 0.6109(6) 0.7732(5)
C1 C 0.0780(5) 0.5452(10) 0.7319(7)
C2 C 0.1228(4) 0.5281(10) 0.7582(6)
C3 C 0.1371(5) 0.5252(10) 0.8140(8)
H1 H 0.120706 0.534012 0.837351
C4 C 0.1816(5) 0.5072(11) 0.8427(7)
H2 H 0.193038 0.505270 0.883994
C5 C 0.2037(4) 0.4945(11) 0.8085(7)
C6 C 0.1864(5) 0.4951(13) 0.7458(8)
H3 H 0.201730 0.483944 0.721302
C7 C 0.1463(6) 0.5126(13) 0.7227(8)
H4 H 0.134374 0.514171 0.681443
C8 C 0.2481(4) 0.4750(10) 0.8359(7)
C9 C 0.2598(4) 0.4347(11) 0.8879(8)
H5 H 0.241373 0.418184 0.906118
C10 C 0.3007(5) 0.4199(10) 0.9118(8)
C11 C 0.3299(4) 0.4452(8) 0.8873(7)
H6 H 0.357250 0.433844 0.904939
C12 C 0.3174(4) 0.4840(8) 0.8405(6)
C13 C 0.2758(5) 0.5037(12) 0.8149(8)
H7 H 0.267905 0.537376 0.782805
C14 C 0.3466(4) 0.5145(10) 0.8117(7)
C15 C 0.3401(5) 0.5282(13) 0.7511(8)
H8 H 0.314642 0.515925 0.724699
C16 C 0.3677(5) 0.5583(11) 0.7266(8)
H9 H 0.360710 0.568722 0.685957
C17 C 0.4073(5) 0.5726(10) 0.7662(8)
C18 C 0.4161(4) 0.5653(11) 0.8278(8)
H10 H 0.440863 0.581628 0.853918
C19 C 0.3880(4) 0.5342(10) 0.8489(7)
H11 H 0.395367 0.524656 0.889651
C20 C 0.4402(4) 0.5998(8) 0.7426(7)
In7 In 0.49749(3) 0.62189(5) 0.69504(4)
O1 O 0.5010(3) 0.4873(5) 0.7033(5)
O2 O 0.4763(3) 0.5426(5) 0.6134(4)
O3_2 O 0.3116(3) 0.1263(6) 0.4642(5)
C5_2 C 0.2037(4) 0.0055(11) 0.3085(7)
C6_2 C 0.1864(5) 0.0049(13) 0.2458(8)
H3_2 H 0.201730 0.016056 0.221302
C8_2 C 0.2481(4) 0.0250(10) 0.3359(7)
C9_2 C 0.2598(4) 0.0653(11) 0.3879(8)
H5_2 H 0.241373 0.081816 0.406118
C10_2 C 0.3007(5) 0.0801(10) 0.4118(8)
C11_2 C 0.3299(4) 0.0548(8) 0.3873(7)
H6_2 H 0.357250 0.066156 0.404939
C12_2 C 0.3174(4) 0.0160(8) 0.3405(6)
C21_2 C 0.3522(4) 0.1223(7) 0.5038(6)
C22_2 C 0.3708(5) 0.1903(8) 0.5236(7)
H12_2 H 0.357459 0.236310 0.510429
C23_2 C 0.4106(4) 0.1900(7) 0.5642(6)
C24_2 C 0.4277(4) 0.1240(7) 0.5811(6)
H13_2 H 0.454224 0.124853 0.606991
C25_2 C 0.4105(4) 0.0519(7) 0.5643(6)
C26_2 C 0.3712(5) 0.0540(8) 0.5262(7)
H14_2 H 0.357015 0.008298 0.515347
C27_2 C 0.4319(5) 0.2632(10) 0.5836(8)
C28_2 C 0.4212(5) 0.3295(9) 0.5431(9)
H15_2 H 0.401994 0.327091 0.505287
C29_2 C 0.4438(5) 0.4007(7) 0.5680(8)
H16_2 H 0.441757 0.443407 0.543764
C30_2 C 0.4675(4) 0.4031(8) 0.6262(6)
C31_2 C 0.4778(5) 0.3407(7) 0.6617(7)
H17_2 H 0.497362 0.344114 0.699236
C32_2 C 0.4592(4) 0.2727(7) 0.6416(6)
H18_2 H 0.464777 0.230882 0.667279
C33_2 C 0.4812(5) 0.4838(10) 0.6510(8)
H22_2 H 0.465145 0.015124 0.666591
C61_2 C 0.8467(5) 0.4476(10) 0.0158(8)
C62_2 C 0.8641(4) 0.3697(9) 0.0302(7)
H34_2 H 0.849586 0.325700 0.014364
C63_2 C 0.9043(4) 0.3673(7) 0.0696(7)
C64_2 C 0.9276(4) 0.4318(8) 0.0857(7)
H35_2 H 0.954977 0.427390 0.107301
C65_2 C 0.9088(5) 0.5113(9) 0.0683(7)
C66_2 C 0.8670(4) 0.5111(9) 0.0315(7)
H36_2 H 0.854072 0.557573 0.018611
C67_2 C 0.9229(4) 0.2910(6) 0.0858(6)
C68_2 C 0.9150(5) 0.2274(8) 0.0522(7)
H37_2 H 0.897722 0.231841 0.013102
C69_2 C 0.9294(6) 0.1613(9) 0.0702(8)
H38_2 H 0.919047 0.119014 0.046205
C70_2 C 0.9611(5) 0.1499(9) 0.1260(7)
C71_2 C 0.9707(5) 0.2133(9) 0.1644(8)
H39_2 H 0.987906 0.206751 0.203338
C72_2 C 0.9549(5) 0.2865(8) 0.1453(6)
H40_2 H 0.964057 0.329892 0.168607
C73_2 C 0.9791(5) 0.0724(8) 0.1510(7)
C74_2 C 0.9314(4) 0.5789(8) 0.0876(7)
C75_2 C 0.9233(5) 0.6439(8) 0.0526(8)
H41_2 H 0.904722 0.639470 0.014419
C76_2 C 0.9402(5) 0.7139(10) 0.0694(8)
H42_2 H 0.934330 0.755347 0.043349
C77_2 C 0.9674(6) 0.7205(10) 0.1285(8)
C78_2 C 0.9775(6) 0.6534(10) 0.1606(7)
H43_2 H 0.997174 0.655895 0.198068
C79_2 C 0.9619(5) 0.5877(10) 0.1425(7)
H44_2 H 0.971087 0.544951 0.166564
C80_2 C 0.9870(5) 0.7990(8) 0.1480(8)
O8_2 O 0.4978(3) 0.7450(4) 0.7042(4)
O9_2 O 0.4724(3) 0.7041(5) 0.6180(5)
O10_2 O 0.5546(3) 0.6242(6) 0.7692(5)
O11_2 O 0.5600(3) 0.6167(7) 0.6800(5)
O12_2 O 0.8065(3) 0.4451(7) 0.9816(5)
O17_2 O 0.9767(3) 0.5692(6) 0.7723(5)
O18_2 O 0.9358(3) 0.5718(7) 0.6860(5)
C1_2 C 0.0780(5) 0.9548(10) 0.2319(7)
C2_2 C 0.1228(4) 0.9719(10) 0.2582(6)
C3_2 C 0.1371(5) 0.9748(10) 0.3140(8)
H1_2 H 0.120706 0.965988 0.337351
C4_2 C 0.1816(5) 0.9928(11) 0.3427(7)
H2_2 H 0.193038 0.994730 0.383994
C7_2 C 0.1463(6) 0.9874(13) 0.2227(8)
H4_2 H 0.134374 0.985829 0.181443
C13_2 C 0.2758(5) 0.9963(12) 0.3149(8)
H7_2 H 0.267905 0.962624 0.282805
C14_2 C 0.3466(4) 0.9855(10) 0.3117(7)
C15_2 C 0.3401(5) 0.9718(13) 0.2511(8)
H8_2 H 0.314642 0.984075 0.224699
C16_2 C 0.3677(5) 0.9417(11) 0.2266(8)
H9_2 H 0.360710 0.931278 0.185957
C17_2 C 0.4073(5) 0.9274(10) 0.2662(8)
C18_2 C 0.4161(4) 0.9347(11) 0.3278(8)
H10_2 H 0.440863 0.918372 0.353918
C19_2 C 0.3880(4) 0.9658(10) 0.3489(7)
H11_2 H 0.395367 0.975344 0.389651
C20_2 C 0.4402(4) 0.9002(8) 0.2426(7)
C34_2 C 0.4290(4) 0.9807(7) 0.5842(6)
C35_2 C 0.4193(5) 0.9127(9) 0.5491(7)
H19_2 H 0.401224 0.915745 0.510373
C36_2 C 0.4354(4) 0.8439(8) 0.5702(6)
H20_2 H 0.428125 0.800966 0.545823
C37_2 C 0.4632(5) 0.8358(8) 0.6291(7)
C38_2 C 0.4750(4) 0.9022(8) 0.6633(6)
H21_2 H 0.494787 0.899329 0.700643
C39_2 C 0.4577(5) 0.9723(9) 0.6421(7)
C40_2 C 0.4779(4) 0.7628(7) 0.6536(6)
C41_2 C 0.5767(4) 0.6149(10) 0.7366(8)
C42_2 C 0.6195(4) 0.6061(9) 0.7640(7)
C43_2 C 0.6384(4) 0.6093(9) 0.8251(8)
H23_2 H 0.622881 0.622395 0.849033
C44_2 C 0.6781(4) 0.5942(10) 0.8518(7)
H24_2 H 0.689258 0.599241 0.893023
C45_2 C 0.7030(4) 0.5711(9) 0.8184(7)
C46_2 C 0.6868(5) 0.5708(12) 0.7595(8)
H25_2 H 0.702945 0.559284 0.736251
C47_2 C 0.6442(5) 0.5884(10) 0.7305(7)
H26_2 H 0.633397 0.587614 0.689086
C48_2 C 0.7453(4) 0.5456(11) 0.8469(6)
C49_2 C 0.7737(4) 0.5632(12) 0.8199(8)
H27_2 H 0.766022 0.593730 0.785852
C50_2 C 0.8135(5) 0.5368(11) 0.8420(7)
C51_2 C 0.8254(4) 0.4998(10) 0.8977(8)
H28_2 H 0.852249 0.485177 0.914970
C52_2 C 0.7967(5) 0.4838(11) 0.9289(7)
C53_2 C 0.7578(5) 0.5107(9) 0.9018(7)
H29_2 H 0.739101 0.504742 0.921815
C54_2 C 0.8456(5) 0.5521(10) 0.8175(7)
C55_2 C 0.8378(6) 0.5494(17) 0.7558(10)
H30_2 H 0.811267 0.538913 0.732446
C56_2 C 0.8648(5) 0.5604(14) 0.7264(10)
H31_2 H 0.857094 0.562101 0.685027
C57_2 C 0.9075(4) 0.5697(10) 0.7650(7)
C58_2 C 0.9167(6) 0.5770(13) 0.8277(9)
H32_2 H 0.942835 0.589011 0.851968
C59_2 C 0.8862(4) 0.5658(13) 0.8518(8)
H33_2 H 0.892830 0.567384 0.893082
C60_2 C 0.9388(6) 0.5735(11) 0.7363(8)
In3 In 0.00082(3) 0.06325(6) 0.80861(5)
In1_2 In 0.00082(3) 0.43675(6) 0.30861(5)
In2_2 In 0.50251(3) 0.37811(5) 0.30496(4)
O4_2 O 0.9427(3) 0.0598(6) 0.7366(5)
O5_2 O 0.9397(3) 0.0455(7) 0.8238(5)
O6_2 O 0.5694(3) 0.1019(7) 0.8140(5)
O7_2 O 0.5261(3) 0.1109(6) 0.7268(5)
O8_3 O 0.5022(3) 0.2550(4) 0.2958(4)
O9_3 O 0.5276(3) 0.2959(5) 0.3820(5)
O10_3 O 0.4454(3) 0.3758(6) 0.2308(5)
O11_3 O 0.4400(3) 0.3833(7) 0.3200(5)
O12_3 O 0.1935(3) 0.5549(7) 0.0184(5)
O17_3 O 0.0233(3) 0.4308(6) 0.2277(5)
O18_3 O 0.0642(3) 0.4282(7) 0.3140(5)
C1_3 C 0.9220(5) 0.0452(10) 0.7681(7)
C2_3 C 0.8772(4) 0.0281(10) 0.7418(6)
C3_3 C 0.8629(5) 0.0252(10) 0.6860(8)
H1_3 H 0.879294 0.034012 0.662649
C4_3 C 0.8184(5) 0.0072(11) 0.6573(7)
H2_3 H 0.806962 0.005270 0.616006
C7_3 C 0.8537(6) 0.0126(13) 0.7773(8)
H4_3 H 0.865626 0.014171 0.818557
C13_3 C 0.7242(5) 0.0037(12) 0.6851(8)
H7_3 H 0.732095 0.037376 0.717195
C14_3 C 0.6534(4) 0.0145(10) 0.6883(7)
C15_3 C 0.6599(5) 0.0282(13) 0.7489(8)
H8_3 H 0.685358 0.015925 0.775301
C16_3 C 0.6323(5) 0.0583(11) 0.7734(8)
H9_3 H 0.639290 0.068722 0.814043
C17_3 C 0.5927(5) 0.0726(10) 0.7338(8)
C18_3 C 0.5839(4) 0.0653(11) 0.6722(8)
H10_3 H 0.559137 0.081628 0.646082
C19_3 C 0.6120(4) 0.0342(10) 0.6511(7)
H11_3 H 0.604633 0.024656 0.610349
C20_3 C 0.5598(4) 0.0998(8) 0.7574(7)
C34_3 C 0.5710(4) 0.0193(7) 0.4158(6)
C35_3 C 0.5807(5) 0.0873(9) 0.4509(7)
H19_3 H 0.598776 0.084255 0.489627
C36_3 C 0.5646(4) 0.1561(8) 0.4298(6)
H20_3 H 0.571875 0.199034 0.454177
C37_3 C 0.5368(5) 0.1642(8) 0.3709(7)
C38_3 C 0.5250(4) 0.0978(8) 0.3367(6)
H21_3 H 0.505213 0.100671 0.299357
C39_3 C 0.5423(5) 0.0277(9) 0.3579(7)
C40_3 C 0.5221(4) 0.2372(7) 0.3464(6)
C41_3 C 0.4233(4) 0.3851(10) 0.2634(8)
C42_3 C 0.3805(4) 0.3939(9) 0.2360(7)
C43_3 C 0.3616(4) 0.3907(9) 0.1749(8)
H23_3 H 0.377119 0.377605 0.150967
C44_3 C 0.3219(4) 0.4058(10) 0.1482(7)
H24_3 H 0.310742 0.400759 0.106977
C45_3 C 0.2970(4) 0.4289(9) 0.1816(7)
C46_3 C 0.3132(5) 0.4292(12) 0.2405(8)
H25_3 H 0.297055 0.440716 0.263749
C47_3 C 0.3558(5) 0.4116(10) 0.2695(7)
H26_3 H 0.366603 0.412386 0.310914
C48_3 C 0.2547(4) 0.4544(11) 0.1531(6)
C49_3 C 0.2263(4) 0.4368(12) 0.1801(8)
H27_3 H 0.233978 0.406270 0.214148
C50_3 C 0.1865(5) 0.4632(11) 0.1580(7)
C51_3 C 0.1746(4) 0.5002(10) 0.1023(8)
H28_3 H 0.147751 0.514823 0.085030
C52_3 C 0.2033(5) 0.5162(11) 0.0711(7)
C53_3 C 0.2422(5) 0.4893(9) 0.0982(7)
H29_3 H 0.260899 0.495258 0.078185
C54_3 C 0.1544(5) 0.4479(10) 0.1825(7)
C55_3 C 0.1622(6) 0.4506(17) 0.2442(10)
H30_3 H 0.188733 0.461087 0.267554
C56_3 C 0.1352(5) 0.4396(14) 0.2736(10)
H31_3 H 0.142906 0.437899 0.314973
C57_3 C 0.0925(4) 0.4303(10) 0.2350(7)
C58_3 C 0.0833(6) 0.4230(13) 0.1723(9)
H32_3 H 0.057165 0.410989 0.148032
C59_3 C 0.1138(4) 0.4342(13) 0.1482(8)
H33_3 H 0.107170 0.432616 0.106918
C60_3 C 0.0612(6) 0.4265(11) 0.2637(8)
In7_2 In 0.50251(3) 0.12189(5) 0.80496(4)
O19_2 O 0.4990(3) 0.5127(5) 0.2967(5)
O20_2 O 0.5237(3) 0.4574(5) 0.3866(4)
O23_2 O 0.5694(3) 0.3981(7) 0.3140(5)
O24_2 O 0.5261(3) 0.3891(6) 0.2268(5)
O25_2 O 0.0207(3) 0.3537(5) 0.3879(5)
O27_2 O 0.0058(3) 0.5646(5) 0.2982(5)
O28_2 O 0.0265(3) 0.5205(6) 0.3856(5)
O13_2 O 0.0207(3) 0.1463(5) 0.8879(5)
O15_2 O 0.0058(3) 0.9354(5) 0.7982(5)
O16_2 O 0.0265(3) 0.9795(6) 0.8856(5)
C61_3 C 0.1533(5) 0.5524(10) 0.9842(8)
C62_3 C 0.1359(4) 0.6303(9) 0.9698(7)
H34_3 H 0.150414 0.674300 0.985636
C63_3 C 0.0957(4) 0.6327(7) 0.9304(7)
C64_3 C 0.0724(4) 0.5682(8) 0.9143(7)
H35_3 H 0.045023 0.572610 0.892699
C65_3 C 0.0912(5) 0.4887(9) 0.9317(7)
C66_3 C 0.1330(4) 0.4889(9) 0.9685(7)
H36_3 H 0.145928 0.442427 0.981389
C67_3 C 0.0771(4) 0.7090(6) 0.9142(6)
C68_3 C 0.0850(5) 0.7726(8) 0.9478(7)
H37_3 H 0.102278 0.768159 0.986898
C69_3 C 0.0706(6) 0.8387(9) 0.9298(8)
H38_3 H 0.080953 0.880986 0.953795
C70_3 C 0.0389(5) 0.8501(9) 0.8740(7)
C71_3 C 0.0293(5) 0.7867(9) 0.8356(8)
H39_3 H 0.012094 0.793249 0.796662
C72_3 C 0.0451(5) 0.7135(8) 0.8547(6)
H40_3 H 0.035943 0.670108 0.831393
C73_3 C 0.0209(5) 0.9276(8) 0.8490(7)
C74_3 C 0.0686(4) 0.4211(8) 0.9124(7)
C75_3 C 0.0767(5) 0.3561(8) 0.9474(8)
H41_3 H 0.095278 0.360530 0.985581
C76_3 C 0.0598(5) 0.2861(10) 0.9306(8)
H42_3 H 0.065670 0.244653 0.956651
C77_3 C 0.0326(6) 0.2795(10) 0.8715(8)
C78_3 C 0.0225(6) 0.3466(10) 0.8394(7)
H43_3 H 0.002826 0.344105 0.801932
C79_3 C 0.0381(5) 0.4123(10) 0.8575(7)
H44_3 H 0.028913 0.455049 0.833436
C80_3 C 0.0130(5) 0.2010(8) 0.8520(8)
O3_3 O 0.6884(3) 0.8737(6) 0.5358(5)
C5_3 C 0.7963(4) 0.9945(11) 0.6915(7)
C6_3 C 0.8136(5) 0.9951(13) 0.7542(8)
H3_3 H 0.798270 0.983944 0.778698
C8_3 C 0.7519(4) 0.9750(10) 0.6641(7)
C9_3 C 0.7402(4) 0.9347(11) 0.6121(8)
H5_3 H 0.758627 0.918184 0.593882
C10_3 C 0.6993(5) 0.9199(10) 0.5882(8)
C11_3 C 0.6701(4) 0.9452(8) 0.6127(7)
H6_3 H 0.642750 0.933844 0.595061
C12_3 C 0.6826(4) 0.9840(8) 0.6595(6)
C21_3 C 0.6478(4) 0.8777(7) 0.4962(6)
C22_3 C 0.6292(5) 0.8097(8) 0.4764(7)
H12_3 H 0.642541 0.763690 0.489571
C23_3 C 0.5894(4) 0.8100(7) 0.4358(6)
C24_3 C 0.5723(4) 0.8760(7) 0.4189(6)
H13_3 H 0.545776 0.875147 0.393009
C25_3 C 0.5895(4) 0.9481(7) 0.4357(6)
C26_3 C 0.6288(5) 0.9460(8) 0.4738(7)
H14_3 H 0.642985 0.991702 0.484653
C27_3 C 0.5681(5) 0.7368(10) 0.4164(8)
C28_3 C 0.5788(5) 0.6705(9) 0.4569(9)
H15_3 H 0.598006 0.672909 0.494713
C29_3 C 0.5562(5) 0.5993(7) 0.4320(8)
H16_3 H 0.558243 0.556593 0.456236
C30_3 C 0.5325(4) 0.5969(8) 0.3738(6)
C31_3 C 0.5222(5) 0.6593(7) 0.3383(7)
H17_3 H 0.502638 0.655886 0.300764
C32_3 C 0.5408(4) 0.7273(7) 0.3584(6)
H18_3 H 0.535223 0.769118 0.332721
C33_3 C 0.5188(5) 0.5162(10) 0.3490(8)
H22_3 H 0.534855 0.984876 0.333409
O21_2 O 0.9427(3) 0.4402(6) 0.2366(5)
O22_2 O 0.9397(3) 0.4545(7) 0.3238(5)
O26_2 O 0.9952(4) 0.3019(8) 0.2957(5)
O14_2 O 0.9952(4) 0.1981(8) 0.7957(5)
O2_2 O 0.5237(3) 0.0426(5) 0.8866(4)
O3_4 O 0.6884(3) 0.6263(6) 0.0358(5)
C1_4 C 0.9220(5) 0.4548(10) 0.2681(7)
C2_4 C 0.8772(4) 0.4719(10) 0.2418(6)
C3_4 C 0.8629(5) 0.4748(10) 0.1860(8)
H1_4 H 0.879294 0.465988 0.162649
C4_4 C 0.8184(5) 0.4928(11) 0.1573(7)
H2_4 H 0.806962 0.494730 0.116006
C5_4 C 0.7963(4) 0.5055(11) 0.1915(7)
C6_4 C 0.8136(5) 0.5049(13) 0.2542(8)
H3_4 H 0.798270 0.516056 0.278698
C7_4 C 0.8537(6) 0.4874(13) 0.2773(8)
H4_4 H 0.865626 0.485829 0.318557
C8_4 C 0.7519(4) 0.5250(10) 0.1641(7)
C9_4 C 0.7402(4) 0.5653(11) 0.1121(8)
H5_4 H 0.758627 0.581816 0.093882
C10_4 C 0.6993(5) 0.5801(10) 0.0882(8)
C11_4 C 0.6701(4) 0.5548(8) 0.1127(7)
H6_4 H 0.642750 0.566156 0.095061
C12_4 C 0.6826(4) 0.5160(8) 0.1595(6)
C13_4 C 0.7242(5) 0.4963(12) 0.1851(8)
H7_4 H 0.732095 0.462624 0.217195
C14_4 C 0.6534(4) 0.4855(10) 0.1883(7)
C15_4 C 0.6599(5) 0.4718(13) 0.2489(8)
H8_4 H 0.685358 0.484075 0.275301
C16_4 C 0.6323(5) 0.4417(11) 0.2734(8)
H9_4 H 0.639290 0.431278 0.314043
C17_4 C 0.5927(5) 0.4274(10) 0.2338(8)
C18_4 C 0.5839(4) 0.4347(11) 0.1722(8)
H10_4 H 0.559137 0.418372 0.146082
C19_4 C 0.6120(4) 0.4658(10) 0.1511(7)
H11_4 H 0.604633 0.475344 0.110349
C20_4 C 0.5598(4) 0.4002(8) 0.2574(7)
O1_2 O 0.4990(3) 0.9873(5) 0.7967(5)
O8_4 O 0.5022(3) 0.2450(4) 0.7958(4)
O9_4 O 0.5276(3) 0.2041(5) 0.8820(5)
O10_4 O 0.4454(3) 0.1242(6) 0.7308(5)
O11_4 O 0.4400(3) 0.1167(7) 0.8200(5)
O17_4 O 0.0233(3) 0.0692(6) 0.7277(5)
O18_4 O 0.0642(3) 0.0718(7) 0.8140(5)
C21_4 C 0.6478(4) 0.6223(7) 0.9962(6)
C22_4 C 0.6292(5) 0.6903(8) 0.9764(7)
H12_4 H 0.642541 0.736310 0.989571
C23_4 C 0.5894(4) 0.6900(7) 0.9358(6)
C24_4 C 0.5723(4) 0.6240(7) 0.9189(6)
H13_4 H 0.545776 0.624853 0.893009
C25_4 C 0.5895(4) 0.5519(7) 0.9357(6)
C26_4 C 0.6288(5) 0.5540(8) 0.9738(7)
H14_4 H 0.642985 0.508298 0.984653
C27_4 C 0.5681(5) 0.7632(10) 0.9164(8)
C28_4 C 0.5788(5) 0.8295(9) 0.9569(9)
H15_4 H 0.598006 0.827091 0.994713
C29_4 C 0.5562(5) 0.9007(7) 0.9320(8)
H16_4 H 0.558243 0.943407 0.956236
C30_4 C 0.5325(4) 0.9031(8) 0.8738(6)
C31_4 C 0.5222(5) 0.8407(7) 0.8383(7)
H17_4 H 0.502638 0.844114 0.800764
C32_4 C 0.5408(4) 0.7727(7) 0.8584(6)
H18_4 H 0.535223 0.730882 0.832721
C33_4 C 0.5188(5) 0.9838(10) 0.8490(8)
C34_4 C 0.5710(4) 0.4807(7) 0.9158(6)
C35_4 C 0.5807(5) 0.4127(9) 0.9509(7)
H19_4 H 0.598776 0.415745 0.989627
C36_4 C 0.5646(4) 0.3439(8) 0.9298(6)
H20_4 H 0.571875 0.300966 0.954177
C37_4 C 0.5368(5) 0.3358(8) 0.8709(7)
C38_4 C 0.5250(4) 0.4022(8) 0.8367(6)
H21_4 H 0.505213 0.399329 0.799357
C39_4 C 0.5423(5) 0.4723(9) 0.8579(7)
H22_4 H 0.534855 0.515124 0.833409
C40_4 C 0.5221(4) 0.2628(7) 0.8464(6)
C41_4 C 0.4233(4) 0.1149(10) 0.7634(8)
C42_4 C 0.3805(4) 0.1061(9) 0.7360(7)
C43_4 C 0.3616(4) 0.1093(9) 0.6749(8)
H23_4 H 0.377119 0.122395 0.650967
C44_4 C 0.3219(4) 0.0942(10) 0.6482(7)
H24_4 H 0.310742 0.099241 0.606977
C45_4 C 0.2970(4) 0.0711(9) 0.6816(7)
C46_4 C 0.3132(5) 0.0708(12) 0.7405(8)
H25_4 H 0.297055 0.059284 0.763749
C47_4 C 0.3558(5) 0.0884(10) 0.7695(7)
H26_4 H 0.366603 0.087614 0.810914
C48_4 C 0.2547(4) 0.0456(11) 0.6531(6)
C49_4 C 0.2263(4) 0.0632(12) 0.6801(8)
H27_4 H 0.233978 0.093730 0.714148
C50_4 C 0.1865(5) 0.0368(11) 0.6580(7)
C53_4 C 0.2422(5) 0.0107(9) 0.5982(7)
H29_4 H 0.260899 0.004742 0.578185
C54_4 C 0.1544(5) 0.0521(10) 0.6825(7)
C55_4 C 0.1622(6) 0.0494(17) 0.7442(10)
H30_4 H 0.188733 0.038913 0.767554
C56_4 C 0.1352(5) 0.0604(14) 0.7736(10)
H31_4 H 0.142906 0.062101 0.814973
C57_4 C 0.0925(4) 0.0697(10) 0.7350(7)
C58_4 C 0.0833(6) 0.0770(13) 0.6723(9)
H32_4 H 0.057165 0.089011 0.648032
C59_4 C 0.1138(4) 0.0658(13) 0.6482(8)
H33_4 H 0.107170 0.067384 0.606918
C60_4 C 0.0612(6) 0.0735(11) 0.7637(8)
C65_4 C 0.0912(5) 0.0113(9) 0.4317(7)
C66_4 C 0.1330(4) 0.0111(9) 0.4685(7)
H36_4 H 0.145928 0.057573 0.481389
C74_4 C 0.0686(4) 0.0789(8) 0.4124(7)
C75_4 C 0.0767(5) 0.1439(8) 0.4474(8)
H41_4 H 0.095278 0.139470 0.485581
C76_4 C 0.0598(5) 0.2139(10) 0.4306(8)
H42_4 H 0.065670 0.255347 0.456651
C77_4 C 0.0326(6) 0.2205(10) 0.3715(8)
C78_4 C 0.0225(6) 0.1534(10) 0.3394(7)
H43_4 H 0.002826 0.155895 0.301932
C79_4 C 0.0381(5) 0.0877(10) 0.3575(7)
H44_4 H 0.028913 0.044951 0.333436
C80_4 C 0.0130(5) 0.2990(8) 0.3520(8)
O12_4 O 0.1935(3) 0.9451(7) 0.5184(5)
C51_4 C 0.1746(4) 0.9998(10) 0.6023(8)
H28_4 H 0.147751 0.985177 0.585030
C52_4 C 0.2033(5) 0.9838(11) 0.5711(7)
C61_4 C 0.1533(5) 0.9476(10) 0.4842(8)
C62_4 C 0.1359(4) 0.8697(9) 0.4698(7)
H34_4 H 0.150414 0.825700 0.485636
C63_4 C 0.0957(4) 0.8673(7) 0.4304(7)
C64_4 C 0.0724(4) 0.9318(8) 0.4143(7)
H35_4 H 0.045023 0.927390 0.392699
C67_4 C 0.0771(4) 0.7910(6) 0.4142(6)
C68_4 C 0.0850(5) 0.7274(8) 0.4478(7)
H37_4 H 0.102278 0.731841 0.486898
C69_4 C 0.0706(6) 0.6613(9) 0.4298(8)
H38_4 H 0.080953 0.619014 0.453795
C70_4 C 0.0389(5) 0.6499(9) 0.3740(7)
C71_4 C 0.0293(5) 0.7133(9) 0.3356(8)
H39_4 H 0.012094 0.706751 0.296662
C72_4 C 0.0451(5) 0.7865(8) 0.3547(6)
H40_4 H 0.035943 0.829892 0.331393
C73_4 C 0.0209(5) 0.5724(8) 0.3490(7)
loop_
_geom_bond_atom_site_label_1
_geom_bond_atom_site_label_2
_geom_bond_site_symmetry_1
_geom_bond_site_symmetry_2
O12 C52 1_555 1_555
O15 C73 1_555 1_555
O16 C73 1_555 1_555
H28 C51 1_555 1_555
C52 C51 1_555 1_555
C61 O12 1_555 1_555
C62 C61 1_555 1_555
H34 C62 1_555 1_555
C63 C62 1_555 1_555
C64 C63 1_555 1_555
H35 C64 1_555 1_555
C67 C63 1_555 1_555
C68 C67 1_555 1_555
H37 C68 1_555 1_555
C69 C68 1_555 1_555
H38 C69 1_555 1_555
C70 C69 1_555 1_555
C71 C70 1_555 1_555
H39 C71 1_555 1_555
C72 C67 1_555 1_555
H40 C72 1_555 1_555
C73 C70 1_555 1_555
In5 O15 1_555 1_555
O16 In5 1_555 1_555
C71 C72 1_555 1_555
In1 O17 1_555 1_555
In2 O8 1_555 1_555
O19 C33 1_555 1_555
O8 C40 1_555 1_555
O9 In2 1_555 1_555
O10 In2 1_555 1_555
O11 In2 1_555 1_555
O13 C80 1_555 1_555
O17 C60 1_555 1_555
O18 In1 1_555 1_555
C22 C21 1_555 1_555
H12 C22 1_555 1_555
C23 C22 1_555 1_555
C24 C23 1_555 1_555
H13 C24 1_555 1_555
C25 C24 1_555 1_555
C26 C21 1_555 1_555
H14 C26 1_555 1_555
C27 C23 1_555 1_555
C28 C27 1_555 1_555
H15 C28 1_555 1_555
C29 C28 1_555 1_555
H16 C29 1_555 1_555
C30 C29 1_555 1_555
C31 C30 1_555 1_555
H17 C31 1_555 1_555
C32 C27 1_555 1_555
H18 C32 1_555 1_555
C33 C30 1_555 1_555
C34 C25 1_555 1_555
C35 C34 1_555 1_555
H19 C35 1_555 1_555
C36 C35 1_555 1_555
H20 C36 1_555 1_555
C37 C36 1_555 1_555
C38 C37 1_555 1_555
H21 C38 1_555 1_555
C39 C34 1_555 1_555
H22 C39 1_555 1_555
C40 O9 1_555 1_555
C41 O10 1_555 1_555
C42 C41 1_555 1_555
C43 C42 1_555 1_555
H23 C43 1_555 1_555
C44 C43 1_555 1_555
H24 C44 1_555 1_555
C45 C44 1_555 1_555
C46 C45 1_555 1_555
H25 C46 1_555 1_555
C47 C42 1_555 1_555
H26 C47 1_555 1_555
C48 C45 1_555 1_555
C49 C48 1_555 1_555
H27 C49 1_555 1_555
C50 C49 1_555 1_555
C53 C48 1_555 1_555
H29 C53 1_555 1_555
C54 C50 1_555 1_555
C55 C54 1_555 1_555
H30 C55 1_555 1_555
C56 C55 1_555 1_555
H31 C56 1_555 1_555
C57 C56 1_555 1_555
C58 C57 1_555 1_555
H32 C58 1_555 1_555
C59 C54 1_555 1_555
H33 C59 1_555 1_555
C60 O18 1_555 1_555
H36 C66 1_555 1_555
C74 C65 1_555 1_555
C75 C74 1_555 1_555
H41 C75 1_555 1_555
C76 C75 1_555 1_555
H42 C76 1_555 1_555
C77 C76 1_555 1_555
C78 C77 1_555 1_555
H43 C78 1_555 1_555
C79 C74 1_555 1_555
H44 C79 1_555 1_555
C80 C77 1_555 1_555
In5 O13 1_555 1_555
O20 In2 1_555 1_555
O23 In2 1_555 1_555
O24 In2 1_555 1_555
O25 In1 1_555 1_555
O11 C41 1_555 1_555
C25 C26 1_555 1_555
C31 C32 1_555 1_555
C37 C40 1_555 1_555
C38 C39 1_555 1_555
C46 C47 1_555 1_555
C57 C60 1_555 1_555
C58 C59 1_555 1_555
C65 C66 1_555 1_555
C78 C79 1_555 1_555
O3 C10 1_555 1_555
O4 C1 1_555 1_555
O5 C1 1_555 1_555
O6 C20 1_555 1_555
O7 C20 1_555 1_555
C1 C2 1_555 1_555
C2 C3 1_555 1_555
C3 H1 1_555 1_555
C4 C3 1_555 1_555
H2 C4 1_555 1_555
C5 C4 1_555 1_555
C6 C5 1_555 1_555
H3 C6 1_555 1_555
C7 C2 1_555 1_555
H4 C7 1_555 1_555
C8 C5 1_555 1_555
C9 C8 1_555 1_555
H5 C9 1_555 1_555
C10 C9 1_555 1_555
C11 C10 1_555 1_555
H6 C11 1_555 1_555
C12 C11 1_555 1_555
C13 C8 1_555 1_555
H7 C13 1_555 1_555
C14 C12 1_555 1_555
C15 C14 1_555 1_555
H8 C15 1_555 1_555
C16 C15 1_555 1_555
H9 C16 1_555 1_555
C17 C16 1_555 1_555
C18 C17 1_555 1_555
H10 C18 1_555 1_555
C19 C14 1_555 1_555
H11 C19 1_555 1_555
C20 C17 1_555 1_555
In7 O6 1_555 1_555
O7 In7 1_555 1_555
C6 C7 1_555 1_555
C12 C13 1_555 1_555
C18 C19 1_555 1_555
O1 C33_2 1_555 1_555
O2 C33_2 1_555 1_555
O3_2 C10_2 1_555 1_555
C6_2 C5_2 1_555 1_555
H3_2 C6_2 1_555 1_555
C8_2 C5_2 1_555 1_555
C9_2 C8_2 1_555 1_555
H5_2 C9_2 1_555 1_555
C10_2 C9_2 1_555 1_555
C11_2 C10_2 1_555 1_555
H6_2 C11_2 1_555 1_555
C12_2 C11_2 1_555 1_555
C21_2 O3_2 1_555 1_555
C22_2 C21_2 1_555 1_555
H12_2 C22_2 1_555 1_555
C23_2 C22_2 1_555 1_555
C24_2 C23_2 1_555 1_555
H13_2 C24_2 1_555 1_555
C25_2 C24_2 1_555 1_555
C26_2 C21_2 1_555 1_555
H14_2 C26_2 1_555 1_555
C27_2 C23_2 1_555 1_555
C28_2 C27_2 1_555 1_555
H15_2 C28_2 1_555 1_555
C29_2 C28_2 1_555 1_555
H16_2 C29_2 1_555 1_555
C30_2 C29_2 1_555 1_555
C31_2 C30_2 1_555 1_555
H17_2 C31_2 1_555 1_555
C32_2 C27_2 1_555 1_555
H18_2 C32_2 1_555 1_555
C33_2 C30_2 1_555 1_555
In7 O1 1_555 1_555
O2 In7 1_555 1_555
C25_2 C26_2 1_555 1_555
C31_2 C32_2 1_555 1_555
O25 C80_2 1_555 1_555
O27 C73_2 1_555 1_555
O28 C73_2 1_555 1_555
C62_2 C61_2 1_555 1_555
H34_2 C62_2 1_555 1_555
C63_2 C62_2 1_555 1_555
C64_2 C63_2 1_555 1_555
H35_2 C64_2 1_555 1_555
C65_2 C64_2 1_555 1_555
C66_2 C61_2 1_555 1_555
H36_2 C66_2 1_555 1_555
C67_2 C63_2 1_555 1_555
C68_2 C67_2 1_555 1_555
H37_2 C68_2 1_555 1_555
C69_2 C68_2 1_555 1_555
H38_2 C69_2 1_555 1_555
C70_2 C69_2 1_555 1_555
C71_2 C70_2 1_555 1_555
H39_2 C71_2 1_555 1_555
C72_2 C67_2 1_555 1_555
H40_2 C72_2 1_555 1_555
C73_2 C70_2 1_555 1_555
C74_2 C65_2 1_555 1_555
C75_2 C74_2 1_555 1_555
H41_2 C75_2 1_555 1_555
C76_2 C75_2 1_555 1_555
H42_2 C76_2 1_555 1_555
C77_2 C76_2 1_555 1_555
C78_2 C77_2 1_555 1_555
H43_2 C78_2 1_555 1_555
C79_2 C74_2 1_555 1_555
H44_2 C79_2 1_555 1_555
C80_2 C77_2 1_555 1_555
C65_2 C66_2 1_555 1_555
C71_2 C72_2 1_555 1_555
C78_2 C79_2 1_555 1_555
In5 O17_2 1_555 1_555
In7 O8_2 1_555 1_555
O21 C1_2 1_555 1_555
O22 C1_2 1_555 1_555
O23 C20_2 1_555 1_555
O24 C20_2 1_555 1_555
O8_2 C40_2 1_555 1_555
O9_2 In7 1_555 1_555
O10_2 In7 1_555 1_555
O11_2 In7 1_555 1_555
O12_2 C52_2 1_555 1_555
O17_2 C60_2 1_555 1_555
O18_2 In5 1_555 1_555
C1_2 C2_2 1_555 1_555
C2_2 C3_2 1_555 1_555
C3_2 H1_2 1_555 1_555
C4_2 C3_2 1_555 1_555
H2_2 C4_2 1_555 1_555
C7_2 C2_2 1_555 1_555
H4_2 C7_2 1_555 1_555
H7_2 C13_2 1_555 1_555
C15_2 C14_2 1_555 1_555
H8_2 C15_2 1_555 1_555
C16_2 C15_2 1_555 1_555
H9_2 C16_2 1_555 1_555
C17_2 C16_2 1_555 1_555
C18_2 C17_2 1_555 1_555
H10_2 C18_2 1_555 1_555
C19_2 C14_2 1_555 1_555
H11_2 C19_2 1_555 1_555
C20_2 C17_2 1_555 1_555
C35_2 C34_2 1_555 1_555
H19_2 C35_2 1_555 1_555
C36_2 C35_2 1_555 1_555
H20_2 C36_2 1_555 1_555
C37_2 C36_2 1_555 1_555
C38_2 C37_2 1_555 1_555
H21_2 C38_2 1_555 1_555
C39_2 C34_2 1_555 1_555
C40_2 O9_2 1_555 1_555
C41_2 O10_2 1_555 1_555
C42_2 C41_2 1_555 1_555
C43_2 C42_2 1_555 1_555
H23_2 C43_2 1_555 1_555
C44_2 C43_2 1_555 1_555
H24_2 C44_2 1_555 1_555
C45_2 C44_2 1_555 1_555
C46_2 C45_2 1_555 1_555
H25_2 C46_2 1_555 1_555
C47_2 C42_2 1_555 1_555
H26_2 C47_2 1_555 1_555
C48_2 C45_2 1_555 1_555
C49_2 C48_2 1_555 1_555
H27_2 C49_2 1_555 1_555
C50_2 C49_2 1_555 1_555
C51_2 C50_2 1_555 1_555
H28_2 C51_2 1_555 1_555
C52_2 C51_2 1_555 1_555
C53_2 C48_2 1_555 1_555
H29_2 C53_2 1_555 1_555
C54_2 C50_2 1_555 1_555
C55_2 C54_2 1_555 1_555
H30_2 C55_2 1_555 1_555
C56_2 C55_2 1_555 1_555
H31_2 C56_2 1_555 1_555
C57_2 C56_2 1_555 1_555
C58_2 C57_2 1_555 1_555
H32_2 C58_2 1_555 1_555
C59_2 C54_2 1_555 1_555
H33_2 C59_2 1_555 1_555
C60_2 O18_2 1_555 1_555
O11_2 C41_2 1_555 1_555
C18_2 C19_2 1_555 1_555
C37_2 C40_2 1_555 1_555
C38_2 C39_2 1_555 1_555
C46_2 C47_2 1_555 1_555
C52_2 C53_2 1_555 1_555
C57_2 C60_2 1_555 1_555
C58_2 C59_2 1_555 1_555
In1_2 O17_3 1_555 1_555
In2_2 O8_3 1_555 1_555
O4_2 C1_3 1_555 1_555
O5_2 C1_3 1_555 1_555
O6_2 C20_3 1_555 1_555
O7_2 C20_3 1_555 1_555
O8_3 C40_3 1_555 1_555
O9_3 In2_2 1_555 1_555
O10_3 In2_2 1_555 1_555
O11_3 In2_2 1_555 1_555
O12_3 C52_3 1_555 1_555
O17_3 C60_3 1_555 1_555
O18_3 In1_2 1_555 1_555
C1_3 C2_3 1_555 1_555
C2_3 C3_3 1_555 1_555
C3_3 H1_3 1_555 1_555
C4_3 C3_3 1_555 1_555
H2_3 C4_3 1_555 1_555
C7_3 C2_3 1_555 1_555
H4_3 C7_3 1_555 1_555
H7_3 C13_3 1_555 1_555
C15_3 C14_3 1_555 1_555
H8_3 C15_3 1_555 1_555
C16_3 C15_3 1_555 1_555
H9_3 C16_3 1_555 1_555
C17_3 C16_3 1_555 1_555
C18_3 C17_3 1_555 1_555
H10_3 C18_3 1_555 1_555
C19_3 C14_3 1_555 1_555
H11_3 C19_3 1_555 1_555
C20_3 C17_3 1_555 1_555
C35_3 C34_3 1_555 1_555
H19_3 C35_3 1_555 1_555
C36_3 C35_3 1_555 1_555
H20_3 C36_3 1_555 1_555
C37_3 C36_3 1_555 1_555
C38_3 C37_3 1_555 1_555
H21_3 C38_3 1_555 1_555
C39_3 C34_3 1_555 1_555
C40_3 O9_3 1_555 1_555
C41_3 O10_3 1_555 1_555
C42_3 C41_3 1_555 1_555
C43_3 C42_3 1_555 1_555
H23_3 C43_3 1_555 1_555
C44_3 C43_3 1_555 1_555
H24_3 C44_3 1_555 1_555
C45_3 C44_3 1_555 1_555
C46_3 C45_3 1_555 1_555
H25_3 C46_3 1_555 1_555
C47_3 C42_3 1_555 1_555
H26_3 C47_3 1_555 1_555
C48_3 C45_3 1_555 1_555
C49_3 C48_3 1_555 1_555
H27_3 C49_3 1_555 1_555
C50_3 C49_3 1_555 1_555
C51_3 C50_3 1_555 1_555
H28_3 C51_3 1_555 1_555
C52_3 C51_3 1_555 1_555
C53_3 C48_3 1_555 1_555
H29_3 C53_3 1_555 1_555
C54_3 C50_3 1_555 1_555
C55_3 C54_3 1_555 1_555
H30_3 C55_3 1_555 1_555
C56_3 C55_3 1_555 1_555
H31_3 C56_3 1_555 1_555
C57_3 C56_3 1_555 1_555
C58_3 C57_3 1_555 1_555
H32_3 C58_3 1_555 1_555
C59_3 C54_3 1_555 1_555
H33_3 C59_3 1_555 1_555
C60_3 O18_3 1_555 1_555
In7_2 O6_2 1_555 1_555
O19_2 In2_2 1_555 1_555
O20_2 In2_2 1_555 1_555
O23_2 In2_2 1_555 1_555
O24_2 In2_2 1_555 1_555
O25_2 In1_2 1_555 1_555
O27_2 In1_2 1_555 1_555
O28_2 In1_2 1_555 1_555
O7_2 In7_2 1_555 1_555
O11_3 C41_3 1_555 1_555
C18_3 C19_3 1_555 1_555
C37_3 C40_3 1_555 1_555
C38_3 C39_3 1_555 1_555
C46_3 C47_3 1_555 1_555
C52_3 C53_3 1_555 1_555
C57_3 C60_3 1_555 1_555
C58_3 C59_3 1_555 1_555
O13_2 C80_3 1_555 1_555
O15_2 C73_3 1_555 1_555
O16_2 C73_3 1_555 1_555
C62_3 C61_3 1_555 1_555
H34_3 C62_3 1_555 1_555
C63_3 C62_3 1_555 1_555
C64_3 C63_3 1_555 1_555
H35_3 C64_3 1_555 1_555
C65_3 C64_3 1_555 1_555
C66_3 C61_3 1_555 1_555
H36_3 C66_3 1_555 1_555
C67_3 C63_3 1_555 1_555
C68_3 C67_3 1_555 1_555
H37_3 C68_3 1_555 1_555
C69_3 C68_3 1_555 1_555
H38_3 C69_3 1_555 1_555
C70_3 C69_3 1_555 1_555
C71_3 C70_3 1_555 1_555
H39_3 C71_3 1_555 1_555
C72_3 C67_3 1_555 1_555
H40_3 C72_3 1_555 1_555
C73_3 C70_3 1_555 1_555
C74_3 C65_3 1_555 1_555
C75_3 C74_3 1_555 1_555
H41_3 C75_3 1_555 1_555
C76_3 C75_3 1_555 1_555
H42_3 C76_3 1_555 1_555
C77_3 C76_3 1_555 1_555
C78_3 C77_3 1_555 1_555
H43_3 C78_3 1_555 1_555
C79_3 C74_3 1_555 1_555
H44_3 C79_3 1_555 1_555
C80_3 C77_3 1_555 1_555
In3 O13_2 1_555 1_555
C65_3 C66_3 1_555 1_555
C71_3 C72_3 1_555 1_555
C78_3 C79_3 1_555 1_555
O19_2 C33_3 1_555 1_555
O20_2 C33_3 1_555 1_555
O3_3 C10_3 1_555 1_555
C6_3 C5_3 1_555 1_555
H3_3 C6_3 1_555 1_555
C8_3 C5_3 1_555 1_555
C9_3 C8_3 1_555 1_555
H5_3 C9_3 1_555 1_555
C10_3 C9_3 1_555 1_555
C11_3 C10_3 1_555 1_555
H6_3 C11_3 1_555 1_555
C12_3 C11_3 1_555 1_555
C21_3 O3_3 1_555 1_555
C22_3 C21_3 1_555 1_555
H12_3 C22_3 1_555 1_555
C23_3 C22_3 1_555 1_555
C24_3 C23_3 1_555 1_555
H13_3 C24_3 1_555 1_555
C25_3 C24_3 1_555 1_555
C26_3 C21_3 1_555 1_555
H14_3 C26_3 1_555 1_555
C27_3 C23_3 1_555 1_555
C28_3 C27_3 1_555 1_555
H15_3 C28_3 1_555 1_555
C29_3 C28_3 1_555 1_555
H16_3 C29_3 1_555 1_555
C30_3 C29_3 1_555 1_555
C31_3 C30_3 1_555 1_555
H17_3 C31_3 1_555 1_555
C32_3 C27_3 1_555 1_555
H18_3 C32_3 1_555 1_555
C33_3 C30_3 1_555 1_555
C25_3 C26_3 1_555 1_555
C31_3 C32_3 1_555 1_555
O2_2 In7_2 1_555 1_555
O3_4 C10_4 1_555 1_555
O21_2 C1_4 1_555 1_555
O22_2 C1_4 1_555 1_555
O23_2 C20_4 1_555 1_555
O24_2 C20_4 1_555 1_555
C1_4 C2_4 1_555 1_555
C2_4 C3_4 1_555 1_555
C3_4 H1_4 1_555 1_555
C4_4 C3_4 1_555 1_555
H2_4 C4_4 1_555 1_555
C5_4 C4_4 1_555 1_555
C6_4 C5_4 1_555 1_555
H3_4 C6_4 1_555 1_555
C7_4 C2_4 1_555 1_555
H4_4 C7_4 1_555 1_555
C8_4 C5_4 1_555 1_555
C9_4 C8_4 1_555 1_555
H5_4 C9_4 1_555 1_555
C10_4 C9_4 1_555 1_555
C11_4 C10_4 1_555 1_555
H6_4 C11_4 1_555 1_555
C12_4 C11_4 1_555 1_555
C13_4 C8_4 1_555 1_555
H7_4 C13_4 1_555 1_555
C14_4 C12_4 1_555 1_555
C15_4 C14_4 1_555 1_555
H8_4 C15_4 1_555 1_555
C16_4 C15_4 1_555 1_555
H9_4 C16_4 1_555 1_555
C17_4 C16_4 1_555 1_555
C18_4 C17_4 1_555 1_555
H10_4 C18_4 1_555 1_555
C19_4 C14_4 1_555 1_555
H11_4 C19_4 1_555 1_555
C20_4 C17_4 1_555 1_555
C6_4 C7_4 1_555 1_555
C12_4 C13_4 1_555 1_555
C18_4 C19_4 1_555 1_555
In3 O17_4 1_555 1_555
In7_2 O8_4 1_555 1_555
O1_2 C33_4 1_555 1_555
O8_4 C40_4 1_555 1_555
O9_4 In7_2 1_555 1_555
O10_4 In7_2 1_555 1_555
O11_4 In7_2 1_555 1_555
O25_2 C80_4 1_555 1_555
O17_4 C60_4 1_555 1_555
O18_4 In3 1_555 1_555
C22_4 C21_4 1_555 1_555
H12_4 C22_4 1_555 1_555
C23_4 C22_4 1_555 1_555
C24_4 C23_4 1_555 1_555
H13_4 C24_4 1_555 1_555
C25_4 C24_4 1_555 1_555
C26_4 C21_4 1_555 1_555
H14_4 C26_4 1_555 1_555
C27_4 C23_4 1_555 1_555
C28_4 C27_4 1_555 1_555
H15_4 C28_4 1_555 1_555
C29_4 C28_4 1_555 1_555
H16_4 C29_4 1_555 1_555
C30_4 C29_4 1_555 1_555
C31_4 C30_4 1_555 1_555
H17_4 C31_4 1_555 1_555
C32_4 C27_4 1_555 1_555
H18_4 C32_4 1_555 1_555
C33_4 C30_4 1_555 1_555
C34_4 C25_4 1_555 1_555
C35_4 C34_4 1_555 1_555
H19_4 C35_4 1_555 1_555
C36_4 C35_4 1_555 1_555
H20_4 C36_4 1_555 1_555
C37_4 C36_4 1_555 1_555
C38_4 C37_4 1_555 1_555
H21_4 C38_4 1_555 1_555
C39_4 C34_4 1_555 1_555
H22_4 C39_4 1_555 1_555
C40_4 O9_4 1_555 1_555
C41_4 O10_4 1_555 1_555
C42_4 C41_4 1_555 1_555
C43_4 C42_4 1_555 1_555
H23_4 C43_4 1_555 1_555
C44_4 C43_4 1_555 1_555
H24_4 C44_4 1_555 1_555
C45_4 C44_4 1_555 1_555
C46_4 C45_4 1_555 1_555
H25_4 C46_4 1_555 1_555
C47_4 C42_4 1_555 1_555
H26_4 C47_4 1_555 1_555
C48_4 C45_4 1_555 1_555
C49_4 C48_4 1_555 1_555
H27_4 C49_4 1_555 1_555
C50_4 C49_4 1_555 1_555
C53_4 C48_4 1_555 1_555
H29_4 C53_4 1_555 1_555
C54_4 C50_4 1_555 1_555
C55_4 C54_4 1_555 1_555
H30_4 C55_4 1_555 1_555
C56_4 C55_4 1_555 1_555
H31_4 C56_4 1_555 1_555
C57_4 C56_4 1_555 1_555
C58_4 C57_4 1_555 1_555
H32_4 C58_4 1_555 1_555
C59_4 C54_4 1_555 1_555
H33_4 C59_4 1_555 1_555
C60_4 O18_4 1_555 1_555
H36_4 C66_4 1_555 1_555
C74_4 C65_4 1_555 1_555
C75_4 C74_4 1_555 1_555
H41_4 C75_4 1_555 1_555
C76_4 C75_4 1_555 1_555
H42_4 C76_4 1_555 1_555
C77_4 C76_4 1_555 1_555
C78_4 C77_4 1_555 1_555
H43_4 C78_4 1_555 1_555
C79_4 C74_4 1_555 1_555
H44_4 C79_4 1_555 1_555
C80_4 C77_4 1_555 1_555
O11_4 C41_4 1_555 1_555
C25_4 C26_4 1_555 1_555
C31_4 C32_4 1_555 1_555
C37_4 C40_4 1_555 1_555
C38_4 C39_4 1_555 1_555
C46_4 C47_4 1_555 1_555
C57_4 C60_4 1_555 1_555
C58_4 C59_4 1_555 1_555
C65_4 C66_4 1_555 1_555
C78_4 C79_4 1_555 1_555
O12_4 C52_4 1_555 1_555
O27_2 C73_4 1_555 1_555
O28_2 C73_4 1_555 1_555
H28_4 C51_4 1_555 1_555
C52_4 C51_4 1_555 1_555
C61_4 O12_4 1_555 1_555
C62_4 C61_4 1_555 1_555
H34_4 C62_4 1_555 1_555
C63_4 C62_4 1_555 1_555
C64_4 C63_4 1_555 1_555
H35_4 C64_4 1_555 1_555
C67_4 C63_4 1_555 1_555
C68_4 C67_4 1_555 1_555
H37_4 C68_4 1_555 1_555
C69_4 C68_4 1_555 1_555
H38_4 C69_4 1_555 1_555
C70_4 C69_4 1_555 1_555
C71_4 C70_4 1_555 1_555
H39_4 C71_4 1_555 1_555
C72_4 C67_4 1_555 1_555
H40_4 C72_4 1_555 1_555
C73_4 C70_4 1_555 1_555
C71_4 C72_4 1_555 1_555

#END
