
###############################################################################
#
# This file contains modified crystal structure data generated from the
# MOF subset of the Cambridge Structural Database (CSD) v543 
# hosted by the Cambridge Crystallographic Data Centre (CCDC).
#
# This work is licensed under the Creative Commons
# Attribution-NonCommercial-ShareAlike 4.0 International License.
# To view a copy of this license, visit
# http://creativecommons.org/licenses/by-nc-sa/4.0/
# or send a letter to
# Creative Commons, PO Box 1866, Mountain View, CA 94042, USA.
#
# CIF created using the CSD Python API on 29 September 2022
# The structure has been converted into the P1 space group
# The structure has a 3D framework
# The original CSD entry KOKCUJ is in the monoclinic crystal system
# The framework has been calculated to contain at least 10.0% void space
# The void calculation uses a probe of radius 1.32A, grid spacing 0.4
#
###############################################################################

data_KOKCUJ
_chemical_formula_moiety         '(C312 H216 B4 Cu28 F16 N96)n'
_symmetry_cell_setting           triclinic
_symmetry_space_group_name_H-M   'P 1'
_symmetry_Int_Tables_number      1
_space_group_name_Hall           'P 1'
loop_
_symmetry_equiv_pos_site_id
_symmetry_equiv_pos_as_xyz
1 x,y,z
_cell_length_a                   11.4602(6)
_cell_length_b                   22.8607(12)
_cell_length_c                   30.7886(16)
_cell_angle_alpha                90
_cell_angle_beta                 96.0170(10)
_cell_angle_gamma                90
_cell_volume                     8021.81
loop_
_atom_site_label
_atom_site_type_symbol
_atom_site_fract_x
_atom_site_fract_y
_atom_site_fract_z
Cu6 Cu 0.00439(11) 0.38986(4) 0.38819(3)
N1 N 0.0262(6) 0.3647(2) 0.44942(18)
N2 N 0.0183(5) 0.2520(2) 0.59178(16)
N3 N 0.0504(5) 0.2413(2) 0.63473(16)
N4 N 0.2719(7) 0.2969(4) 0.7835(2)
N24 N 0.2829(7) 0.0773(4) 0.5297(3)
C1 C 0.0292(7) 0.2864(3) 0.5006(2)
H1 H 0.0187 0.2466 0.5051
C2 C 0.0157(7) 0.3087(3) 0.4594(2)
C3 C 0.0552(9) 0.4000(3) 0.4838(3)
H3 H 0.0653 0.4396 0.4783
C4 C 0.0708(8) 0.3819(3) 0.5261(2)
H4 H 0.0898 0.4087 0.5485
C5 C 0.0583(6) 0.3229(3) 0.5357(2)
C6 C 0.0737(6) 0.3008(3) 0.5809(2)
C7 C 0.1407(6) 0.3234(3) 0.6175(2)
H5 H 0.1865 0.3570 0.6192
C8 C 0.1240(6) 0.2847(3) 0.6506(2)
C9 C 0.1758(6) 0.2877(3) 0.6961(2)
C10 C 0.2197(7) 0.3404(4) 0.7139(3)
H6 H 0.2175 0.3739 0.6966
C11 C 0.2653(8) 0.3429(4) 0.7562(3)
H7 H 0.2940 0.3787 0.7670
C12 C 0.2319(8) 0.2478(4) 0.7664(3)
H8 H 0.2374 0.2150 0.7844
C13 C 0.1821(6) 0.2400(3) 0.7240(2)
H9 H 0.1535 0.2037 0.7144
H24 H 0.0321 0.2979 0.8113
C37 C 0.0092(7) 0.2225(3) 0.8433(2)
H25 H 0.0727 0.2283 0.8643
C61 C 0.0105(6) 0.0292(3) 0.6837(2)
C64 C 0.2180(7) 0.0181(3) 0.6834(2)
H44 H 0.2923 0.0344 0.6894
C65 C 0.1212(7) 0.0517(3) 0.6905(2)
H45 H 0.1317 0.0902 0.7000
C74 C 0.0491(6) 0.0765(3) 0.5519(2)
C75 C 0.1093(7) 0.0280(3) 0.5427(3)
C76 C 0.2237(8) 0.0320(4) 0.5311(3)
C77 C 0.2319(11) 0.1241(5) 0.5438(7)
H53 H 0.2751 0.1586 0.5458
C78 C 0.1192(10) 0.1261(4) 0.5559(5)
H54 H 0.0903 0.1607 0.5666
Cu9 Cu 0.00439(11) 0.11014(4) 0.88819(3)
N25 N 0.0421(6) 0.4641(2) 0.36084(19)
N20 N 0.2089(5) 0.9633(2) 0.66831(18)
C62 C 0.0014(6) 0.9714(3) 0.6691(2)
C63 C 0.1007(6) 0.9410(3) 0.6616(2)
H43 H 0.0922 0.9029 0.6512
H51 H 0.0741 0.9915 0.5441
H52 H 0.2590 0.9972 0.5237
Cu11 Cu 0.34959(7) 0.91039(3) 0.66055(3)
Cu1 Cu 0.87961(7) 0.20879(3) 0.56226(2)
Cu2 Cu 0.73145(7) 0.21370(3) 0.67949(2)
Cu3 Cu 0.97124(7) 0.17884(3) 0.65824(3)
Cu4 Cu 0.79406(8) 0.31867(3) 0.61494(2)
Cu5 Cu 0.65902(7) 0.17037(3) 0.58939(2)
Cu7 Cu 0.65041(7) 0.08961(3) 0.33945(3)
N5 N 0.7059(5) 0.1498(2) 0.38743(17)
N6 N 0.7685(5) 0.2657(2) 0.53265(15)
N7 N 0.7530(5) 0.3168(2) 0.55457(16)
N8 N 0.6356(9) 0.5336(3) 0.5602(3)
N9 N 0.9579(6) 0.5359(2) 0.63916(19)
N10 N 0.8412(5) 0.3267(2) 0.67461(15)
N11 N 0.8313(5) 0.2807(2) 0.70230(15)
N12 N 0.9452(6) 0.1742(2) 0.84573(18)
N13 N 0.5898(5) 0.3749(2) 0.78111(17)
N14 N 0.5905(5) 0.2480(2) 0.64786(15)
N15 N 0.5632(4) 0.2314(2) 0.60538(15)
N16 N 0.3599(7) 0.2598(3) 0.4502(2)
N17 N 0.3962(8) 0.1016(4) 0.7586(4)
N18 N 0.7768(4) 0.13356(19) 0.69057(15)
N19 N 0.8869(4) 0.1183(2) 0.68124(16)
N22 N 0.7570(4) 0.10820(19) 0.57778(15)
N23 N 0.8640(4) 0.1244(2) 0.56584(15)
H2 H 0.9979 0.2826 0.4365
C14 C 0.7397(7) 0.2472(3) 0.4129(2)
H10 H 0.7530 0.2860 0.4060
C15 C 0.7283(7) 0.2058(3) 0.3806(2)
H11 H 0.7367 0.2176 0.3522
C16 C 0.7038(7) 0.1348(3) 0.4292(2)
H12 H 0.6931 0.0955 0.4354
C17 C 0.7162(7) 0.1733(3) 0.4636(2)
H13 H 0.7142 0.1598 0.4920
C18 C 0.7313(6) 0.2312(3) 0.45587(19)
C19 C 0.7334(6) 0.2769(3) 0.48992(19)
C20 C 0.6987(6) 0.3345(3) 0.4844(2)
H14 H 0.6729 0.3534 0.4584
C21 C 0.7106(6) 0.3577(3) 0.5256(2)
C22 C 0.6847(7) 0.4188(3) 0.5383(2)
C23 C 0.6872(9) 0.4629(3) 0.5081(3)
H15 H 0.7055 0.4555 0.4799
C24 C 0.6612(11) 0.5191(4) 0.5216(4)
H16 H 0.6623 0.5489 0.5011
C25 C 0.6370(9) 0.4918(4) 0.5888(3)
H17 H 0.6231 0.5011 0.6172
C26 C 0.6581(8) 0.4345(3) 0.5790(3)
H18 H 0.6544 0.4059 0.6004
C27 C 0.9379(7) 0.4337(3) 0.6351(2)
H19 H 0.9404 0.4004 0.6179
C28 C 0.9581(8) 0.4878(3) 0.6174(2)
H20 H 0.9725 0.4896 0.5882
C29 C 0.9362(12) 0.5310(3) 0.6798(3)
H21 H 0.9359 0.5649 0.6965
C30 C 0.9137(11) 0.4789(3) 0.6995(2)
H22 H 0.8980 0.4787 0.7286
C31 C 0.9142(7) 0.4282(3) 0.6774(2)
C32 C 0.8909(6) 0.3719(2) 0.69744(19)
C33 C 0.9184(6) 0.3543(3) 0.7406(2)
H23 H 0.9548 0.3762 0.7636
C34 C 0.8799(5) 0.2975(3) 0.74192(19)
C35 C 0.8953(6) 0.2562(2) 0.77904(19)
C36 C 0.9862(6) 0.2644(3) 0.8112(2)
C38 C 0.8529(7) 0.1682(3) 0.8161(2)
H26 H 0.8050 0.1357 0.8180
C39 C 0.8240(7) 0.2076(3) 0.7827(2)
H27 H 0.7580 0.2016 0.7629
C40 C 0.5493(6) 0.2928(3) 0.7345(2)
H28 H 0.5379 0.2526 0.7323
C41 C 0.5692(6) 0.3183(3) 0.7749(2)
H29 H 0.5682 0.2945 0.7993
C42 C 0.5805(8) 0.4070(3) 0.7447(2)
H30 H 0.5900 0.4473 0.7478
C43 C 0.5579(7) 0.3852(3) 0.7026(2)
H31 H 0.5510 0.4102 0.6786
C44 C 0.5459(6) 0.3260(3) 0.6972(2)
C45 C 0.5327(6) 0.2983(3) 0.6542(2)
C46 C 0.4693(6) 0.3153(3) 0.6152(2)
H32 H 0.4222 0.3483 0.6103
C47 C 0.4915(6) 0.2724(3) 0.5851(2)
C48 C 0.4462(6) 0.2673(3) 0.5387(2)
C49 C 0.3882(8) 0.3141(3) 0.5169(3)
H33 H 0.3758 0.3487 0.5316
C50 C 0.3497(9) 0.3083(4) 0.4735(3)
H34 H 0.3138 0.3405 0.4593
C51 C 0.4149(7) 0.2156(4) 0.4712(2)
H35 H 0.4246 0.1814 0.4557
C52 C 0.4583(7) 0.2167(3) 0.5143(2)
H36 H 0.4956 0.1840 0.5272
C53 C 0.5240(6) 0.1251(3) 0.7039(3)
H37 H 0.5341 0.1454 0.6784
C54 C 0.4199(8) 0.1282(4) 0.7230(4)
H38 H 0.3609 0.1516 0.7091
C55 C 0.4822(11) 0.0678(5) 0.7775(4)
H39 H 0.4687 0.0476 0.8027
C56 C 0.5890(7) 0.0611(3) 0.7620(2)
H40 H 0.6455 0.0369 0.7765
C57 C 0.6124(6) 0.0906(3) 0.7245(2)
C58 C 0.7292(6) 0.0870(3) 0.7081(2)
C59 C 0.8060(6) 0.0402(3) 0.7096(2)
H41 H 0.7941 0.0028 0.7201
C60 C 0.9044(6) 0.0610(3) 0.6919(2)
C66 C 0.5496(6) 0.0427(3) 0.6021(2)
H46 H 0.5349 0.0807 0.5923
C67 C 0.4628(6) 0.0118(3) 0.6192(2)
H47 H 0.3909 0.0300 0.6208
C70 C 0.6587(6) 0.0182(2) 0.59920(19)
C71 C 0.7578(5) 0.0491(2) 0.58345(18)
C72 C 0.8638(6) 0.0274(3) 0.5739(2)
C73 C 0.9297(5) 0.0753(3) 0.5635(2)
Cu8 Cu 0.99561(11) 0.61014(4) 0.61181(3)
Cu10 Cu 0.65041(7) 0.41039(3) 0.83945(3)
N26 N 0.9452(6) 0.3258(2) 0.34573(18)
N27 N 0.5898(5) 0.1251(2) 0.28111(17)
N28 N 0.7911(5) 0.0367(2) 0.33169(18)
N29 N 0.5240(5) 0.0435(2) 0.36627(17)
N21 N 0.4760(5) 0.9565(2) 0.63373(17)
H42 H 0.9282 0.9535 0.6646
C68 C 0.5814(6) 0.9317(3) 0.6291(2)
H48 H 0.5931 0.8931 0.6379
C69 C 0.6708(6) 0.9599(3) 0.6124(2)
H49 H 0.7407 0.9402 0.6097
H50 H 0.8868 0.9883 0.5743
N8_2 N 0.3644(9) 0.0336(3) 0.9398(3)
N9_2 N 0.0421(6) 0.0359(2) 0.86084(19)
C24_2 C 0.3388(11) 0.0191(4) 0.9784(4)
H16_2 H 0.3377 0.0489 0.9989
H17_2 H 0.3769 0.0011 0.8828
C29_2 C 0.0638(12) 0.0310(3) 0.8202(3)
H21_2 H 0.0641 0.0649 0.8035
Cu7_2 Cu 0.34959(7) 0.58961(3) 0.16055(3)
N5_2 N 0.2941(5) 0.6498(2) 0.11257(17)
N16_2 N 0.6401(7) 0.7598(3) 0.0498(2)
H2_2 H 0.0021 0.7826 0.0635
C14_2 C 0.2603(7) 0.7472(3) 0.0871(2)
H10_2 H 0.2470 0.7860 0.0940
C15_2 C 0.2717(7) 0.7058(3) 0.1194(2)
H11_2 H 0.2633 0.7176 0.1478
C16_2 C 0.2962(7) 0.6348(3) 0.0708(2)
H12_2 H 0.3069 0.5955 0.0646
C17_2 C 0.2838(7) 0.6733(3) 0.0364(2)
H13_2 H 0.2858 0.6598 0.0080
C18_2 C 0.2687(6) 0.7312(3) 0.04413(19)
C19_2 C 0.2666(6) 0.7769(3) 0.01008(19)
C20_2 C 0.3013(6) 0.8345(3) 0.0156(2)
H14_2 H 0.3271 0.8534 0.0416
H15_2 H 0.2945 0.9555 0.0201
C50_2 C 0.6503(9) 0.8083(4) 0.0265(3)
H34_2 H 0.6862 0.8405 0.0407
C51_2 C 0.5851(7) 0.7156(4) 0.0288(2)
H35_2 H 0.5754 0.6814 0.0443
N26_2 N 0.0548(6) 0.8258(2) 0.15427(18)
N27_2 N 0.4102(5) 0.6251(2) 0.21889(17)
N28_2 N 0.2089(5) 0.5367(2) 0.16831(18)
N29_2 N 0.4760(5) 0.5435(2) 0.13373(17)
Cu1_2 Cu 0.12039(7) 0.70879(3) 0.93774(2)
Cu2_2 Cu 0.26855(7) 0.71370(3) 0.82051(2)
Cu3_2 Cu 0.02876(7) 0.67884(3) 0.84176(3)
Cu4_2 Cu 0.20594(8) 0.81867(3) 0.88506(2)
Cu5_2 Cu 0.34098(7) 0.67037(3) 0.91061(2)
N6_2 N 0.2315(5) 0.7657(2) 0.96735(15)
N7_2 N 0.2470(5) 0.8168(2) 0.94543(16)
N10_2 N 0.1588(5) 0.8267(2) 0.82539(15)
N11_2 N 0.1687(5) 0.7807(2) 0.79770(15)
N12_2 N 0.0548(6) 0.6742(2) 0.65427(18)
N13_2 N 0.4102(5) 0.8749(2) 0.71889(17)
N14_2 N 0.4095(5) 0.7480(2) 0.85214(15)
N15_2 N 0.4368(4) 0.7314(2) 0.89462(15)
N17_2 N 0.6038(8) 0.6016(4) 0.7414(4)
N18_2 N 0.2232(4) 0.63356(19) 0.80943(15)
N19_2 N 0.1131(4) 0.6183(2) 0.81876(16)
N21_2 N 0.5240(5) 0.4565(2) 0.86627(17)
N22_2 N 0.2430(4) 0.60820(19) 0.92222(15)
N23_2 N 0.1360(4) 0.6244(2) 0.93416(15)
C21_2 C 0.2894(6) 0.8577(3) 0.9744(2)
C22_2 C 0.3153(7) 0.9188(3) 0.9617(2)
C23_2 C 0.3128(9) 0.9629(3) 0.9919(3)
C25_2 C 0.3630(9) 0.9918(4) 0.9112(3)
C26_2 C 0.3419(8) 0.9345(3) 0.9210(3)
H18_2 H 0.3456 0.9059 0.8996
C27_2 C 0.0621(7) 0.9337(3) 0.8649(2)
H19_2 H 0.0596 0.9004 0.8821
C28_2 C 0.0419(8) 0.9878(3) 0.8826(2)
H20_2 H 0.0275 0.9896 0.9118
C30_2 C 0.0863(11) 0.9789(3) 0.8005(2)
H22_2 H 0.1020 0.9787 0.7714
C31_2 C 0.0858(7) 0.9282(3) 0.8226(2)
C32_2 C 0.1091(6) 0.8719(2) 0.80256(19)
C33_2 C 0.0816(6) 0.8543(3) 0.7594(2)
H23_2 H 0.0452 0.8762 0.7364
C34_2 C 0.1201(5) 0.7975(3) 0.75808(19)
C35_2 C 0.1047(6) 0.7562(2) 0.72096(19)
C36_2 C 0.0138(6) 0.7644(3) 0.6888(2)
C38_2 C 0.1471(7) 0.6682(3) 0.6839(2)
H26_2 H 0.1950 0.6357 0.6820
C39_2 C 0.1760(7) 0.7076(3) 0.7173(2)
H27_2 H 0.2420 0.7016 0.7371
C40_2 C 0.4507(6) 0.7928(3) 0.7655(2)
H28_2 H 0.4621 0.7526 0.7677
C41_2 C 0.4308(6) 0.8183(3) 0.7251(2)
H29_2 H 0.4318 0.7945 0.7007
C42_2 C 0.4195(8) 0.9070(3) 0.7553(2)
H30_2 H 0.4100 0.9473 0.7522
C43_2 C 0.4421(7) 0.8852(3) 0.7974(2)
H31_2 H 0.4490 0.9102 0.8214
C44_2 C 0.4541(6) 0.8260(3) 0.8028(2)
C45_2 C 0.4673(6) 0.7983(3) 0.8458(2)
C46_2 C 0.5307(6) 0.8153(3) 0.8848(2)
H32_2 H 0.5778 0.8483 0.8897
C47_2 C 0.5085(6) 0.7724(3) 0.9149(2)
C48_2 C 0.5538(6) 0.7673(3) 0.9613(2)
C49_2 C 0.6118(8) 0.8141(3) 0.9831(3)
H33_2 H 0.6242 0.8487 0.9684
C52_2 C 0.5417(7) 0.7167(3) 0.9857(2)
H36_2 H 0.5044 0.6840 0.9728
C53_2 C 0.4760(6) 0.6251(3) 0.7961(3)
H37_2 H 0.4659 0.6454 0.8216
C54_2 C 0.5801(8) 0.6282(4) 0.7770(4)
H38_2 H 0.6391 0.6516 0.7909
C55_2 C 0.5178(11) 0.5678(5) 0.7225(4)
H39_2 H 0.5313 0.5476 0.6973
C56_2 C 0.4110(7) 0.5611(3) 0.7380(2)
H40_2 H 0.3545 0.5369 0.7235
C57_2 C 0.3876(6) 0.5906(3) 0.7755(2)
C58_2 C 0.2708(6) 0.5870(3) 0.7919(2)
C59_2 C 0.1940(6) 0.5402(3) 0.7904(2)
H41_2 H 0.2059 0.5028 0.7799
C60_2 C 0.0956(6) 0.5610(3) 0.8081(2)
H42_2 H 0.0718 0.4535 0.8354
C66_2 C 0.4504(6) 0.5427(3) 0.8979(2)
H46_2 H 0.4651 0.5807 0.9077
C67_2 C 0.5372(6) 0.5118(3) 0.8808(2)
H47_2 H 0.6091 0.5300 0.8792
C68_2 C 0.4186(6) 0.4317(3) 0.8709(2)
H48_2 H 0.4069 0.3931 0.8621
C69_2 C 0.3292(6) 0.4599(3) 0.8876(2)
H49_2 H 0.2593 0.4402 0.8903
C70_2 C 0.3413(6) 0.5182(2) 0.90080(19)
C71_2 C 0.2422(5) 0.5491(2) 0.91655(18)
C72_2 C 0.1362(6) 0.5274(3) 0.9261(2)
H50_2 H 0.1132 0.4883 0.9257
C73_2 C 0.0703(5) 0.5753(3) 0.9365(2)
Cu6_2 Cu 0.99561(11) 0.88986(4) 0.11181(3)
N1_2 N 0.9738(6) 0.8647(2) 0.05058(18)
C2_2 C 0.9843(7) 0.8087(3) 0.0406(2)
C3_2 C 0.9448(9) 0.9000(3) 0.0162(3)
H3_2 H 0.9347 0.9396 0.0217
N25_2 N 0.9579(6) 0.9641(2) 0.13916(19)
N2_2 N 0.9817(5) 0.7520(2) 0.90822(16)
N3_2 N 0.9496(5) 0.7413(2) 0.86527(16)
N4_2 N 0.7281(7) 0.7969(4) 0.7165(2)
N20_2 N 0.7911(5) 0.4633(2) 0.83169(18)
N24_2 N 0.7171(7) 0.5773(4) 0.9703(3)
C1_2 C 0.9708(7) 0.7864(3) 0.9994(2)
H1_2 H 0.9813 0.7466 0.9949
C4_2 C 0.9292(8) 0.8819(3) 0.9739(2)
H4_2 H 0.9102 0.9087 0.9515
C5_2 C 0.9417(6) 0.8229(3) 0.9643(2)
C6_2 C 0.9263(6) 0.8008(3) 0.9191(2)
C7_2 C 0.8593(6) 0.8234(3) 0.8825(2)
H5_2 H 0.8135 0.8570 0.8808
C8_2 C 0.8760(6) 0.7847(3) 0.8494(2)
C9_2 C 0.8242(6) 0.7877(3) 0.8039(2)
C10_2 C 0.7803(7) 0.8404(4) 0.7861(3)
H6_2 H 0.7825 0.8739 0.8034
C11_2 C 0.7347(8) 0.8429(4) 0.7438(3)
H7_2 H 0.7060 0.8787 0.7330
C12_2 C 0.7681(8) 0.7478(4) 0.7336(3)
H8_2 H 0.7626 0.7150 0.7156
C13_2 C 0.8179(6) 0.7400(3) 0.7760(2)
H9_2 H 0.8465 0.7037 0.7856
H24_2 H 0.9679 0.7979 0.6887
C37_2 C 0.9908(7) 0.7225(3) 0.6567(2)
H25_2 H 0.9273 0.7283 0.6357
C61_2 C 0.9895(6) 0.5292(3) 0.8163(2)
C62_2 C 0.9986(6) 0.4714(3) 0.8309(2)
C63_2 C 0.8993(6) 0.4410(3) 0.8384(2)
H43_2 H 0.9078 0.4029 0.8488
C64_2 C 0.7820(7) 0.5181(3) 0.8166(2)
H44_2 H 0.7077 0.5344 0.8106
C65_2 C 0.8788(7) 0.5517(3) 0.8095(2)
H45_2 H 0.8683 0.5902 0.8000
C74_2 C 0.9509(6) 0.5765(3) 0.9481(2)
C75_2 C 0.8907(7) 0.5280(3) 0.9573(3)
H51_2 H 0.9259 0.4915 0.9559
C76_2 C 0.7763(8) 0.5320(4) 0.9689(3)
H52_2 H 0.7410 0.4972 0.9763
C77_2 C 0.7681(11) 0.6241(5) 0.9562(7)
H53_2 H 0.7249 0.6586 0.9542
C78_2 C 0.8808(10) 0.6261(4) 0.9441(5)
H54_2 H 0.9097 0.6607 0.9334
H42_3 H 0.0718 0.0465 0.3354
C68_3 C 0.4186(6) 0.0683(3) 0.3709(2)
H48_3 H 0.4069 0.1069 0.3621
C69_3 C 0.3292(6) 0.0401(3) 0.3876(2)
H49_3 H 0.2593 0.0598 0.3903
H50_3 H 0.1132 0.0117 0.4257
Cu1_3 Cu 0.12039(7) 0.79121(3) 0.43774(2)
Cu2_3 Cu 0.26855(7) 0.78630(3) 0.32051(2)
Cu3_3 Cu 0.02876(7) 0.82116(3) 0.34176(3)
Cu4_3 Cu 0.20594(8) 0.68133(3) 0.38506(2)
Cu5_3 Cu 0.34098(7) 0.82963(3) 0.41061(2)
N5_3 N 0.2941(5) 0.8502(2) 0.61257(17)
N6_3 N 0.2315(5) 0.7343(2) 0.46735(15)
N7_3 N 0.2470(5) 0.6832(2) 0.44543(16)
N8_3 N 0.3644(9) 0.4664(3) 0.4398(3)
N10_3 N 0.1588(5) 0.6733(2) 0.32539(15)
N11_3 N 0.1687(5) 0.7193(2) 0.29770(15)
N14_3 N 0.4095(5) 0.7520(2) 0.35214(15)
N15_3 N 0.4368(4) 0.7686(2) 0.39462(15)
N16_3 N 0.6401(7) 0.7402(3) 0.5498(2)
N17_3 N 0.6038(8) 0.8984(4) 0.2414(4)
N18_3 N 0.2232(4) 0.86644(19) 0.30943(15)
N19_3 N 0.1131(4) 0.8817(2) 0.31876(16)
N22_3 N 0.2430(4) 0.89180(19) 0.42222(15)
N23_3 N 0.1360(4) 0.8756(2) 0.43416(15)
H2_3 H 0.0021 0.7174 0.5635
C14_3 C 0.2603(7) 0.7528(3) 0.5871(2)
H10_3 H 0.2470 0.7140 0.5940
C15_3 C 0.2717(7) 0.7942(3) 0.6194(2)
H11_3 H 0.2633 0.7824 0.6478
C16_3 C 0.2962(7) 0.8652(3) 0.5708(2)
H12_3 H 0.3069 0.9045 0.5646
C17_3 C 0.2838(7) 0.8267(3) 0.5364(2)
H13_3 H 0.2858 0.8402 0.5080
C18_3 C 0.2687(6) 0.7688(3) 0.54413(19)
C19_3 C 0.2666(6) 0.7231(3) 0.51008(19)
C20_3 C 0.3013(6) 0.6655(3) 0.5156(2)
H14_3 H 0.3271 0.6466 0.5416
C21_3 C 0.2894(6) 0.6423(3) 0.4744(2)
C22_3 C 0.3153(7) 0.5812(3) 0.4617(2)
C23_3 C 0.3128(9) 0.5371(3) 0.4919(3)
H15_3 H 0.2945 0.5445 0.5201
C24_3 C 0.3388(11) 0.4809(4) 0.4784(4)
H16_3 H 0.3377 0.4511 0.4989
C25_3 C 0.3630(9) 0.5082(4) 0.4112(3)
H17_3 H 0.3769 0.4989 0.3828
C26_3 C 0.3419(8) 0.5655(3) 0.4210(3)
H18_3 H 0.3456 0.5941 0.3996
C27_3 C 0.0621(7) 0.5663(3) 0.3649(2)
H19_3 H 0.0596 0.5996 0.3821
C28_3 C 0.0419(8) 0.5122(3) 0.3826(2)
H20_3 H 0.0275 0.5104 0.4118
C29_3 C 0.0638(12) 0.4690(3) 0.3202(3)
H21_3 H 0.0641 0.4351 0.3035
C30_3 C 0.0863(11) 0.5211(3) 0.3005(2)
H22_3 H 0.1020 0.5213 0.2714
C31_3 C 0.0858(7) 0.5718(3) 0.3226(2)
C32_3 C 0.1091(6) 0.6281(2) 0.30256(19)
C33_3 C 0.0816(6) 0.6457(3) 0.2594(2)
H23_3 H 0.0452 0.6238 0.2364
C34_3 C 0.1201(5) 0.7025(3) 0.25808(19)
C35_3 C 0.1047(6) 0.7438(2) 0.22096(19)
C36_3 C 0.0138(6) 0.7356(3) 0.1888(2)
C38_3 C 0.1471(7) 0.8318(3) 0.1839(2)
H26_3 H 0.1950 0.8643 0.1820
C39_3 C 0.1760(7) 0.7924(3) 0.2173(2)
H27_3 H 0.2420 0.7984 0.2371
C40_3 C 0.4507(6) 0.7072(3) 0.2655(2)
H28_3 H 0.4621 0.7474 0.2677
C41_3 C 0.4308(6) 0.6817(3) 0.2251(2)
H29_3 H 0.4318 0.7055 0.2007
C42_3 C 0.4195(8) 0.5930(3) 0.2553(2)
H30_3 H 0.4100 0.5527 0.2522
C43_3 C 0.4421(7) 0.6148(3) 0.2974(2)
H31_3 H 0.4490 0.5898 0.3214
C44_3 C 0.4541(6) 0.6740(3) 0.3028(2)
C45_3 C 0.4673(6) 0.7017(3) 0.3458(2)
C46_3 C 0.5307(6) 0.6847(3) 0.3848(2)
H32_3 H 0.5778 0.6517 0.3897
C47_3 C 0.5085(6) 0.7276(3) 0.4149(2)
C48_3 C 0.5538(6) 0.7327(3) 0.4613(2)
C49_3 C 0.6118(8) 0.6859(3) 0.4831(3)
H33_3 H 0.6242 0.6513 0.4684
C50_3 C 0.6503(9) 0.6917(4) 0.5265(3)
H34_3 H 0.6862 0.6595 0.5407
C51_3 C 0.5851(7) 0.7844(4) 0.5288(2)
H35_3 H 0.5754 0.8186 0.5443
C52_3 C 0.5417(7) 0.7833(3) 0.4857(2)
H36_3 H 0.5044 0.8160 0.4728
C53_3 C 0.4760(6) 0.8749(3) 0.2961(3)
H37_3 H 0.4659 0.8546 0.3216
C54_3 C 0.5801(8) 0.8718(4) 0.2770(4)
H38_3 H 0.6391 0.8484 0.2909
C55_3 C 0.5178(11) 0.9322(5) 0.2225(4)
H39_3 H 0.5313 0.9524 0.1973
C56_3 C 0.4110(7) 0.9389(3) 0.2380(2)
H40_3 H 0.3545 0.9631 0.2235
C57_3 C 0.3876(6) 0.9094(3) 0.2755(2)
C58_3 C 0.2708(6) 0.9130(3) 0.2919(2)
C59_3 C 0.1940(6) 0.9598(3) 0.2904(2)
H41_3 H 0.2059 0.9972 0.2799
C60_3 C 0.0956(6) 0.9390(3) 0.3081(2)
C66_3 C 0.4504(6) 0.9573(3) 0.3979(2)
H46_3 H 0.4651 0.9193 0.4077
C67_3 C 0.5372(6) 0.9882(3) 0.3808(2)
H47_3 H 0.6091 0.9700 0.3792
C70_3 C 0.3413(6) 0.9818(2) 0.40080(19)
C71_3 C 0.2422(5) 0.9509(2) 0.41655(18)
C72_3 C 0.1362(6) 0.9726(3) 0.4261(2)
C73_3 C 0.0703(5) 0.9247(3) 0.4365(2)
C62_3 C 0.9986(6) 0.0286(3) 0.3309(2)
C63_3 C 0.8993(6) 0.0590(3) 0.3384(2)
H43_3 H 0.9078 0.0971 0.3488
H51_3 H 0.9259 0.0085 0.4559
H52_3 H 0.7410 0.0028 0.4763
N1_3 N 0.9738(6) 0.6353(2) 0.55058(18)
N2_3 N 0.9817(5) 0.7480(2) 0.40822(16)
N3_3 N 0.9496(5) 0.7587(2) 0.36527(16)
N4_3 N 0.7281(7) 0.7031(4) 0.2165(2)
N24_3 N 0.7171(7) 0.9227(4) 0.4703(3)
C1_3 C 0.9708(7) 0.7136(3) 0.4994(2)
H1_3 H 0.9813 0.7534 0.4949
C2_3 C 0.9843(7) 0.6913(3) 0.5406(2)
C3_3 C 0.9448(9) 0.6000(3) 0.5162(3)
H3_3 H 0.9347 0.5604 0.5217
C4_3 C 0.9292(8) 0.6181(3) 0.4739(2)
H4_3 H 0.9102 0.5913 0.4515
C5_3 C 0.9417(6) 0.6771(3) 0.4643(2)
C6_3 C 0.9263(6) 0.6992(3) 0.4191(2)
C7_3 C 0.8593(6) 0.6766(3) 0.3825(2)
H5_3 H 0.8135 0.6430 0.3808
C8_3 C 0.8760(6) 0.7153(3) 0.3494(2)
C9_3 C 0.8242(6) 0.7123(3) 0.3039(2)
C10_3 C 0.7803(7) 0.6596(4) 0.2861(3)
H6_3 H 0.7825 0.6261 0.3034
C11_3 C 0.7347(8) 0.6571(4) 0.2438(3)
H7_3 H 0.7060 0.6213 0.2330
C12_3 C 0.7681(8) 0.7522(4) 0.2336(3)
H8_3 H 0.7626 0.7850 0.2156
C13_3 C 0.8179(6) 0.7600(3) 0.2760(2)
H9_3 H 0.8465 0.7963 0.2856
H24_3 H 0.9679 0.7021 0.1887
C37_3 C 0.9908(7) 0.7775(3) 0.1567(2)
H25_3 H 0.9273 0.7717 0.1357
C61_3 C 0.9895(6) 0.9708(3) 0.3163(2)
C64_3 C 0.7820(7) 0.9819(3) 0.3166(2)
H44_3 H 0.7077 0.9656 0.3106
C65_3 C 0.8788(7) 0.9483(3) 0.3095(2)
H45_3 H 0.8683 0.9098 0.3000
C74_3 C 0.9509(6) 0.9235(3) 0.4481(2)
C75_3 C 0.8907(7) 0.9720(3) 0.4573(3)
C76_3 C 0.7763(8) 0.9680(4) 0.4689(3)
C77_3 C 0.7681(11) 0.8759(5) 0.4562(7)
H53_3 H 0.7249 0.8414 0.4542
C78_3 C 0.8808(10) 0.8739(4) 0.4441(5)
H54_3 H 0.9097 0.8393 0.4334
N2_4 N 0.0183(5) 0.2480(2) 0.09178(16)
N3_4 N 0.0504(5) 0.2587(2) 0.13473(16)
N4_4 N 0.2719(7) 0.2031(4) 0.2835(2)
N24_4 N 0.2829(7) 0.4227(4) 0.0297(3)
C1_4 C 0.0292(7) 0.2136(3) 0.0006(2)
H1_4 H 0.0187 0.2534 0.0051
C4_4 C 0.0708(8) 0.1181(3) 0.0261(2)
H4_4 H 0.0898 0.0913 0.0485
C5_4 C 0.0583(6) 0.1771(3) 0.0357(2)
C6_4 C 0.0737(6) 0.1992(3) 0.0809(2)
C7_4 C 0.1407(6) 0.1766(3) 0.1175(2)
H5_4 H 0.1865 0.1430 0.1192
C8_4 C 0.1240(6) 0.2153(3) 0.1506(2)
C9_4 C 0.1758(6) 0.2123(3) 0.1961(2)
C10_4 C 0.2197(7) 0.1596(4) 0.2139(3)
H6_4 H 0.2175 0.1261 0.1966
C11_4 C 0.2653(8) 0.1571(4) 0.2562(3)
H7_4 H 0.2940 0.1213 0.2670
C12_4 C 0.2319(8) 0.2522(4) 0.2664(3)
H8_4 H 0.2374 0.2850 0.2844
C13_4 C 0.1821(6) 0.2600(3) 0.2240(2)
H9_4 H 0.1535 0.2963 0.2144
H24_4 H 0.0321 0.2021 0.3113
C37_4 C 0.0092(7) 0.2775(3) 0.3433(2)
H25_4 H 0.0727 0.2717 0.3643
C61_4 C 0.0105(6) 0.4708(3) 0.1837(2)
C62_4 C 0.0014(6) 0.5286(3) 0.1691(2)
C63_4 C 0.1007(6) 0.5590(3) 0.1616(2)
H43_4 H 0.0922 0.5971 0.1512
C64_4 C 0.2180(7) 0.4819(3) 0.1834(2)
H44_4 H 0.2923 0.4656 0.1894
C65_4 C 0.1212(7) 0.4483(3) 0.1905(2)
H45_4 H 0.1317 0.4098 0.2000
C74_4 C 0.0491(6) 0.4235(3) 0.0519(2)
C75_4 C 0.1093(7) 0.4720(3) 0.0427(3)
H51_4 H 0.0741 0.5085 0.0441
C76_4 C 0.2237(8) 0.4680(4) 0.0311(3)
H52_4 H 0.2590 0.5028 0.0237
C77_4 C 0.2319(11) 0.3759(5) 0.0438(7)
H53_4 H 0.2751 0.3414 0.0458
C78_4 C 0.1192(10) 0.3739(4) 0.0559(5)
H54_4 H 0.0903 0.3393 0.0666
N1_4 N 0.0262(6) 0.1353(2) 0.94942(18)
C2_4 C 0.0157(7) 0.1913(3) 0.9594(2)
C3_4 C 0.0552(9) 0.1000(3) 0.9838(3)
H3_4 H 0.0653 0.0604 0.9783
Cu1_4 Cu 0.87961(7) 0.29121(3) 0.06226(2)
Cu2_4 Cu 0.73145(7) 0.28630(3) 0.17949(2)
Cu3_4 Cu 0.97124(7) 0.32116(3) 0.15824(3)
Cu4_4 Cu 0.79406(8) 0.18133(3) 0.11494(2)
Cu5_4 Cu 0.65902(7) 0.32963(3) 0.08939(2)
N6_4 N 0.7685(5) 0.2343(2) 0.03265(15)
N7_4 N 0.7530(5) 0.1832(2) 0.05457(16)
N10_4 N 0.8412(5) 0.1733(2) 0.17461(15)
N11_4 N 0.8313(5) 0.2193(2) 0.20230(15)
N14_4 N 0.5905(5) 0.2520(2) 0.14786(15)
N15_4 N 0.5632(4) 0.2686(2) 0.10538(15)
N17_4 N 0.3962(8) 0.3984(4) 0.2586(4)
N18_4 N 0.7768(4) 0.36644(19) 0.19057(15)
N19_4 N 0.8869(4) 0.3817(2) 0.18124(16)
N22_4 N 0.7570(4) 0.39180(19) 0.07778(15)
N23_4 N 0.8640(4) 0.3756(2) 0.06584(15)
C21_4 C 0.7106(6) 0.1423(3) 0.0256(2)
C22_4 C 0.6847(7) 0.0812(3) 0.0383(2)
C23_4 C 0.6872(9) 0.0371(3) 0.0081(3)
C25_4 C 0.6370(9) 0.0082(4) 0.0888(3)
C26_4 C 0.6581(8) 0.0655(3) 0.0790(3)
H18_4 H 0.6544 0.0941 0.1004
C27_4 C 0.9379(7) 0.0663(3) 0.1351(2)
H19_4 H 0.9404 0.0996 0.1179
C28_4 C 0.9581(8) 0.0122(3) 0.1174(2)
H20_4 H 0.9725 0.0104 0.0882
C30_4 C 0.9137(11) 0.0211(3) 0.1995(2)
H22_4 H 0.8980 0.0213 0.2286
C31_4 C 0.9142(7) 0.0718(3) 0.1774(2)
C32_4 C 0.8909(6) 0.1281(2) 0.19744(19)
C33_4 C 0.9184(6) 0.1457(3) 0.2406(2)
H23_4 H 0.9548 0.1238 0.2636
C34_4 C 0.8799(5) 0.2025(3) 0.24192(19)
C35_4 C 0.8953(6) 0.2438(2) 0.27904(19)
C36_4 C 0.9862(6) 0.2356(3) 0.3112(2)
C38_4 C 0.8529(7) 0.3318(3) 0.3161(2)
H26_4 H 0.8050 0.3643 0.3180
C39_4 C 0.8240(7) 0.2924(3) 0.2827(2)
H27_4 H 0.7580 0.2984 0.2629
C40_4 C 0.5493(6) 0.2072(3) 0.2345(2)
H28_4 H 0.5379 0.2474 0.2323
C41_4 C 0.5692(6) 0.1817(3) 0.2749(2)
H29_4 H 0.5682 0.2055 0.2993
C42_4 C 0.5805(8) 0.0930(3) 0.2447(2)
H30_4 H 0.5900 0.0527 0.2478
C43_4 C 0.5579(7) 0.1148(3) 0.2026(2)
H31_4 H 0.5510 0.0898 0.1786
C44_4 C 0.5459(6) 0.1740(3) 0.1972(2)
C45_4 C 0.5327(6) 0.2017(3) 0.1542(2)
C46_4 C 0.4693(6) 0.1847(3) 0.1152(2)
H32_4 H 0.4222 0.1517 0.1103
C47_4 C 0.4915(6) 0.2276(3) 0.0851(2)
C48_4 C 0.4462(6) 0.2327(3) 0.0387(2)
C49_4 C 0.3882(8) 0.1859(3) 0.0169(3)
H33_4 H 0.3758 0.1513 0.0316
C52_4 C 0.4583(7) 0.2833(3) 0.0143(2)
H36_4 H 0.4956 0.3160 0.0272
C53_4 C 0.5240(6) 0.3749(3) 0.2039(3)
H37_4 H 0.5341 0.3546 0.1784
C54_4 C 0.4199(8) 0.3718(4) 0.2230(4)
H38_4 H 0.3609 0.3484 0.2091
C55_4 C 0.4822(11) 0.4322(5) 0.2775(4)
H39_4 H 0.4687 0.4524 0.3027
C56_4 C 0.5890(7) 0.4389(3) 0.2620(2)
H40_4 H 0.6455 0.4631 0.2765
C57_4 C 0.6124(6) 0.4094(3) 0.2245(2)
C58_4 C 0.7292(6) 0.4130(3) 0.2081(2)
C59_4 C 0.8060(6) 0.4598(3) 0.2096(2)
H41_4 H 0.7941 0.4972 0.2201
C60_4 C 0.9044(6) 0.4390(3) 0.1919(2)
H42_4 H 0.9282 0.5465 0.1646
C66_4 C 0.5496(6) 0.4573(3) 0.1021(2)
H46_4 H 0.5349 0.4193 0.0923
C67_4 C 0.4628(6) 0.4882(3) 0.1192(2)
H47_4 H 0.3909 0.4700 0.1208
C68_4 C 0.5814(6) 0.5683(3) 0.1291(2)
H48_4 H 0.5931 0.6069 0.1379
C69_4 C 0.6708(6) 0.5401(3) 0.1124(2)
H49_4 H 0.7407 0.5598 0.1097
C70_4 C 0.6587(6) 0.4818(2) 0.09920(19)
C71_4 C 0.7578(5) 0.4509(2) 0.08345(18)
C72_4 C 0.8638(6) 0.4726(3) 0.0739(2)
H50_4 H 0.8868 0.5117 0.0743
C73_4 C 0.9297(5) 0.4247(3) 0.0635(2)
N5_4 N 0.7059(5) 0.3502(2) 0.88743(17)
N16_4 N 0.3599(7) 0.2402(3) 0.9502(2)
H2_4 H 0.9979 0.2174 0.9365
C14_4 C 0.7397(7) 0.2528(3) 0.9129(2)
H10_4 H 0.7530 0.2140 0.9060
C15_4 C 0.7283(7) 0.2942(3) 0.8806(2)
H11_4 H 0.7367 0.2824 0.8522
C16_4 C 0.7038(7) 0.3652(3) 0.9292(2)
H12_4 H 0.6931 0.4045 0.9354
C17_4 C 0.7162(7) 0.3267(3) 0.9636(2)
H13_4 H 0.7142 0.3402 0.9920
C18_4 C 0.7313(6) 0.2688(3) 0.95587(19)
C19_4 C 0.7334(6) 0.2231(3) 0.98992(19)
C20_4 C 0.6987(6) 0.1655(3) 0.9844(2)
H14_4 H 0.6729 0.1466 0.9584
H15_4 H 0.7055 0.0445 0.9799
C50_4 C 0.3497(9) 0.1917(4) 0.9735(3)
H34_4 H 0.3138 0.1595 0.9593
C51_4 C 0.4149(7) 0.2844(4) 0.9712(2)
H35_4 H 0.4246 0.3186 0.9557
N8_4 N 0.6356(9) 0.9664(3) 0.0602(3)
C24_4 C 0.6612(11) 0.9809(4) 0.0216(4)
H16_4 H 0.6623 0.9511 0.0011
H17_4 H 0.6231 0.9989 0.1172
C29_4 C 0.9362(12) 0.9690(3) 0.1798(3)
H21_4 H 0.9359 0.9351 0.1965
F1 F 0.2377(8) 0.4729(4) 0.6589(3)
F2 F 0.2367(13) 0.5406(6) 0.6086(5)
F3 F 0.2836(14) 0.4500(5) 0.5941(4)
F4 F 0.4017(8) 0.5029(7) 0.6374(4)
B1 B 0.2867(7) 0.4921(3) 0.6244(3)
F2_2 F 0.7633(13) 0.0406(6) 0.8914(5)
F4_2 F 0.5983(8) 0.0029(7) 0.8626(4)
F1_2 F 0.7623(8) 0.9729(4) 0.8411(3)
F3_2 F 0.7164(14) 0.9500(5) 0.9059(4)
B1_2 B 0.7133(7) 0.9921(3) 0.8756(3)
F1_3 F 0.7623(8) 0.5271(4) 0.3411(3)
F2_3 F 0.7633(13) 0.4594(6) 0.3914(5)
F3_3 F 0.7164(14) 0.5500(5) 0.4059(4)
F4_3 F 0.5983(8) 0.4971(7) 0.3626(4)
B1_3 B 0.7133(7) 0.5079(3) 0.3756(3)
F1_4 F 0.2377(8) 0.0271(4) 0.1589(3)
F3_4 F 0.2836(14) 0.0500(5) 0.0941(4)
B1_4 B 0.2867(7) 0.0079(3) 0.1244(3)
F2_4 F 0.2367(13) 0.9594(6) 0.1086(5)
F4_4 F 0.4017(8) 0.9971(7) 0.1374(4)
loop_
_geom_bond_atom_site_label_1
_geom_bond_atom_site_label_2
_geom_bond_site_symmetry_1
_geom_bond_site_symmetry_2
Cu6 N1 1_555 1_555
N1 C2 1_555 1_555
N2 N3 1_555 1_555
N3 C8 1_555 1_555
N4 C11 1_555 1_555
N24 C76 1_555 1_555
C1 H1 1_555 1_555
C2 C1 1_555 1_555
C3 N1 1_555 1_555
H3 C3 1_555 1_555
C4 C3 1_555 1_555
H4 C4 1_555 1_555
C5 C1 1_555 1_555
C6 N2 1_555 1_555
C7 C6 1_555 1_555
H5 C7 1_555 1_555
C8 C7 1_555 1_555
C9 C8 1_555 1_555
C10 C9 1_555 1_555
H6 C10 1_555 1_555
C11 C10 1_555 1_555
H7 C11 1_555 1_555
C12 N4 1_555 1_555
H8 C12 1_555 1_555
C13 C9 1_555 1_555
H9 C13 1_555 1_555
H25 C37 1_555 1_555
H44 C64 1_555 1_555
C65 C61 1_555 1_555
H45 C65 1_555 1_555
C75 C74 1_555 1_555
C76 C75 1_555 1_555
C77 N24 1_555 1_555
H53 C77 1_555 1_555
C78 C74 1_555 1_555
H54 C78 1_555 1_555
N25 Cu6 1_555 1_555
C4 C5 1_555 1_555
C5 C6 1_555 1_555
C12 C13 1_555 1_555
C64 C65 1_555 1_555
C77 C78 1_555 1_555
N20 C63 1_555 1_555
C63 C62 1_555 1_555
H43 C63 1_555 1_555
Cu11 N20 1_555 1_555
Cu2 N11 1_555 1_555
Cu4 N7 1_555 1_555
Cu5 N15 1_555 1_555
Cu7 N5 1_555 1_555
N5 C15 1_555 1_555
N6 Cu1 1_555 1_555
N7 N6 1_555 1_555
N8 C24 1_555 1_555
N9 C28 1_555 1_555
N10 Cu4 1_555 1_555
N11 N10 1_555 1_555
N13 C41 1_555 1_555
N14 Cu2 1_555 1_555
N15 N14 1_555 1_555
N16 C50 1_555 1_555
N17 C54 1_555 1_555
N18 Cu2 1_555 1_555
N19 Cu3 1_555 1_555
N22 Cu5 1_555 1_555
N23 Cu1 1_555 1_555
C14 H10 1_555 1_555
C15 C14 1_555 1_555
H11 C15 1_555 1_555
C16 N5 1_555 1_555
H12 C16 1_555 1_555
C17 C16 1_555 1_555
H13 C17 1_555 1_555
C18 C14 1_555 1_555
C19 N6 1_555 1_555
C20 C19 1_555 1_555
H14 C20 1_555 1_555
C21 N7 1_555 1_555
C22 C21 1_555 1_555
C23 C22 1_555 1_555
H15 C23 1_555 1_555
C24 C23 1_555 1_555
H16 C24 1_555 1_555
C25 N8 1_555 1_555
H17 C25 1_555 1_555
C26 C22 1_555 1_555
H18 C26 1_555 1_555
C27 H19 1_555 1_555
C28 C27 1_555 1_555
H20 C28 1_555 1_555
C29 N9 1_555 1_555
H21 C29 1_555 1_555
C30 C29 1_555 1_555
H22 C30 1_555 1_555
C31 C27 1_555 1_555
C32 N10 1_555 1_555
C33 C32 1_555 1_555
H23 C33 1_555 1_555
C34 N11 1_555 1_555
C35 C34 1_555 1_555
C36 C35 1_555 1_555
C38 N12 1_555 1_555
H26 C38 1_555 1_555
C39 C35 1_555 1_555
H27 C39 1_555 1_555
C40 H28 1_555 1_555
C41 C40 1_555 1_555
H29 C41 1_555 1_555
C42 N13 1_555 1_555
H30 C42 1_555 1_555
C43 C42 1_555 1_555
H31 C43 1_555 1_555
C44 C40 1_555 1_555
C45 N14 1_555 1_555
C46 C45 1_555 1_555
H32 C46 1_555 1_555
C47 N15 1_555 1_555
C48 C47 1_555 1_555
C49 C48 1_555 1_555
H33 C49 1_555 1_555
C50 C49 1_555 1_555
H34 C50 1_555 1_555
C51 N16 1_555 1_555
H35 C51 1_555 1_555
C52 C48 1_555 1_555
H36 C52 1_555 1_555
C53 H37 1_555 1_555
C54 C53 1_555 1_555
H38 C54 1_555 1_555
C55 N17 1_555 1_555
H39 C55 1_555 1_555
C56 C55 1_555 1_555
H40 C56 1_555 1_555
C57 C53 1_555 1_555
C58 N18 1_555 1_555
C59 C58 1_555 1_555
H41 C59 1_555 1_555
C60 N19 1_555 1_555
C66 H46 1_555 1_555
C67 C66 1_555 1_555
H47 C67 1_555 1_555
C70 C66 1_555 1_555
C71 N22 1_555 1_555
C72 C71 1_555 1_555
C73 N23 1_555 1_555
Cu8 N9 1_555 1_555
Cu10 N13 1_555 1_555
N27 Cu7 1_555 1_555
N28 Cu7 1_555 1_555
N29 Cu7 1_555 1_555
N18 N19 1_555 1_555
N22 N23 1_555 1_555
C17 C18 1_555 1_555
C18 C19 1_555 1_555
C20 C21 1_555 1_555
C25 C26 1_555 1_555
C30 C31 1_555 1_555
C31 C32 1_555 1_555
C33 C34 1_555 1_555
C38 C39 1_555 1_555
C43 C44 1_555 1_555
C44 C45 1_555 1_555
C46 C47 1_555 1_555
C51 C52 1_555 1_555
C56 C57 1_555 1_555
C57 C58 1_555 1_555
C59 C60 1_555 1_555
C70 C71 1_555 1_555
C72 C73 1_555 1_555
C68 N21 1_555 1_555
H48 C68 1_555 1_555
C69 C68 1_555 1_555
H49 C69 1_555 1_555
Cu11 N21 1_555 1_555
N8_2 C24_2 1_555 1_555
H16_2 C24_2 1_555 1_555
C29_2 N9_2 1_555 1_555
H21_2 C29_2 1_555 1_555
Cu9 N9_2 1_555 1_555
Cu7_2 N5_2 1_555 1_555
N5_2 C15_2 1_555 1_555
N16_2 C50_2 1_555 1_555
C14_2 H10_2 1_555 1_555
C15_2 C14_2 1_555 1_555
H11_2 C15_2 1_555 1_555
C16_2 N5_2 1_555 1_555
H12_2 C16_2 1_555 1_555
C17_2 C16_2 1_555 1_555
H13_2 C17_2 1_555 1_555
C18_2 C14_2 1_555 1_555
C20_2 C19_2 1_555 1_555
H14_2 C20_2 1_555 1_555
H34_2 C50_2 1_555 1_555
C51_2 N16_2 1_555 1_555
H35_2 C51_2 1_555 1_555
N27_2 Cu7_2 1_555 1_555
N28_2 Cu7_2 1_555 1_555
N29_2 Cu7_2 1_555 1_555
C17_2 C18_2 1_555 1_555
C18_2 C19_2 1_555 1_555
Cu2_2 N11_2 1_555 1_555
Cu4_2 N7_2 1_555 1_555
Cu5_2 N15_2 1_555 1_555
N6_2 Cu1_2 1_555 1_555
N7_2 N6_2 1_555 1_555
N10_2 Cu4_2 1_555 1_555
N11_2 N10_2 1_555 1_555
N13_2 C41_2 1_555 1_555
N14_2 Cu2_2 1_555 1_555
N15_2 N14_2 1_555 1_555
N17_2 C54_2 1_555 1_555
N18_2 Cu2_2 1_555 1_555
N19_2 Cu3_2 1_555 1_555
N21_2 C67_2 1_555 1_555
N22_2 Cu5_2 1_555 1_555
N23_2 Cu1_2 1_555 1_555
C21_2 N7_2 1_555 1_555
C22_2 C21_2 1_555 1_555
C23_2 C22_2 1_555 1_555
C26_2 C22_2 1_555 1_555
H18_2 C26_2 1_555 1_555
C27_2 H19_2 1_555 1_555
C28_2 C27_2 1_555 1_555
H20_2 C28_2 1_555 1_555
H22_2 C30_2 1_555 1_555
C31_2 C27_2 1_555 1_555
C32_2 N10_2 1_555 1_555
C33_2 C32_2 1_555 1_555
H23_2 C33_2 1_555 1_555
C34_2 N11_2 1_555 1_555
C35_2 C34_2 1_555 1_555
C36_2 C35_2 1_555 1_555
C38_2 N12_2 1_555 1_555
H26_2 C38_2 1_555 1_555
C39_2 C35_2 1_555 1_555
H27_2 C39_2 1_555 1_555
C40_2 H28_2 1_555 1_555
C41_2 C40_2 1_555 1_555
H29_2 C41_2 1_555 1_555
C42_2 N13_2 1_555 1_555
H30_2 C42_2 1_555 1_555
C43_2 C42_2 1_555 1_555
H31_2 C43_2 1_555 1_555
C44_2 C40_2 1_555 1_555
C45_2 N14_2 1_555 1_555
C46_2 C45_2 1_555 1_555
H32_2 C46_2 1_555 1_555
C47_2 N15_2 1_555 1_555
C48_2 C47_2 1_555 1_555
C49_2 C48_2 1_555 1_555
H33_2 C49_2 1_555 1_555
C52_2 C48_2 1_555 1_555
H36_2 C52_2 1_555 1_555
C53_2 H37_2 1_555 1_555
C54_2 C53_2 1_555 1_555
H38_2 C54_2 1_555 1_555
C55_2 N17_2 1_555 1_555
H39_2 C55_2 1_555 1_555
C56_2 C55_2 1_555 1_555
H40_2 C56_2 1_555 1_555
C57_2 C53_2 1_555 1_555
C58_2 N18_2 1_555 1_555
C59_2 C58_2 1_555 1_555
H41_2 C59_2 1_555 1_555
C60_2 N19_2 1_555 1_555
C66_2 H46_2 1_555 1_555
C67_2 C66_2 1_555 1_555
H47_2 C67_2 1_555 1_555
C68_2 N21_2 1_555 1_555
H48_2 C68_2 1_555 1_555
C69_2 C68_2 1_555 1_555
H49_2 C69_2 1_555 1_555
C70_2 C66_2 1_555 1_555
C71_2 N22_2 1_555 1_555
C72_2 C71_2 1_555 1_555
H50_2 C72_2 1_555 1_555
C73_2 N23_2 1_555 1_555
Cu11 N13_2 1_555 1_555
Cu10 N21_2 1_555 1_555
N18_2 N19_2 1_555 1_555
N22_2 N23_2 1_555 1_555
C25_2 C26_2 1_555 1_555
C30_2 C31_2 1_555 1_555
C31_2 C32_2 1_555 1_555
C33_2 C34_2 1_555 1_555
C38_2 C39_2 1_555 1_555
C43_2 C44_2 1_555 1_555
C44_2 C45_2 1_555 1_555
C46_2 C47_2 1_555 1_555
C56_2 C57_2 1_555 1_555
C57_2 C58_2 1_555 1_555
C59_2 C60_2 1_555 1_555
C69_2 C70_2 1_555 1_555
C70_2 C71_2 1_555 1_555
C72_2 C73_2 1_555 1_555
Cu6_2 N1_2 1_555 1_555
N1_2 C2_2 1_555 1_555
C3_2 N1_2 1_555 1_555
H3_2 C3_2 1_555 1_555
N25_2 Cu6_2 1_555 1_555
N2_2 N3_2 1_555 1_555
N3_2 C8_2 1_555 1_555
N4_2 C11_2 1_555 1_555
N20_2 C63_2 1_555 1_555
N24_2 C76_2 1_555 1_555
C1_2 H1_2 1_555 1_555
H4_2 C4_2 1_555 1_555
C5_2 C1_2 1_555 1_555
C6_2 N2_2 1_555 1_555
C7_2 C6_2 1_555 1_555
H5_2 C7_2 1_555 1_555
C8_2 C7_2 1_555 1_555
C9_2 C8_2 1_555 1_555
C10_2 C9_2 1_555 1_555
H6_2 C10_2 1_555 1_555
C11_2 C10_2 1_555 1_555
H7_2 C11_2 1_555 1_555
C12_2 N4_2 1_555 1_555
H8_2 C12_2 1_555 1_555
C13_2 C9_2 1_555 1_555
H9_2 C13_2 1_555 1_555
H25_2 C37_2 1_555 1_555
C62_2 C61_2 1_555 1_555
C63_2 C62_2 1_555 1_555
H43_2 C63_2 1_555 1_555
C64_2 N20_2 1_555 1_555
H44_2 C64_2 1_555 1_555
C65_2 C61_2 1_555 1_555
H45_2 C65_2 1_555 1_555
C75_2 C74_2 1_555 1_555
H51_2 C75_2 1_555 1_555
C76_2 C75_2 1_555 1_555
H52_2 C76_2 1_555 1_555
C77_2 N24_2 1_555 1_555
H53_2 C77_2 1_555 1_555
C78_2 C74_2 1_555 1_555
H54_2 C78_2 1_555 1_555
Cu10 N20_2 1_555 1_555
C4_2 C5_2 1_555 1_555
C5_2 C6_2 1_555 1_555
C12_2 C13_2 1_555 1_555
C64_2 C65_2 1_555 1_555
C77_2 C78_2 1_555 1_555
C68_3 N29 1_555 1_555
H48_3 C68_3 1_555 1_555
C69_3 C68_3 1_555 1_555
H49_3 C69_3 1_555 1_555
Cu2_3 N11_3 1_555 1_555
Cu4_3 N7_3 1_555 1_555
Cu5_3 N15_3 1_555 1_555
Cu11 N5_3 1_555 1_555
N5_3 C15_3 1_555 1_555
N6_3 Cu1_3 1_555 1_555
N7_3 N6_3 1_555 1_555
N8_3 C24_3 1_555 1_555
N25 C28_3 1_555 1_555
N10_3 Cu4_3 1_555 1_555
N11_3 N10_3 1_555 1_555
N27_2 C41_3 1_555 1_555
N14_3 Cu2_3 1_555 1_555
N15_3 N14_3 1_555 1_555
N16_3 C50_3 1_555 1_555
N17_3 C54_3 1_555 1_555
N18_3 Cu2_3 1_555 1_555
N19_3 Cu3_3 1_555 1_555
N22_3 Cu5_3 1_555 1_555
N23_3 Cu1_3 1_555 1_555
C14_3 H10_3 1_555 1_555
C15_3 C14_3 1_555 1_555
H11_3 C15_3 1_555 1_555
C16_3 N5_3 1_555 1_555
H12_3 C16_3 1_555 1_555
C17_3 C16_3 1_555 1_555
H13_3 C17_3 1_555 1_555
C18_3 C14_3 1_555 1_555
C19_3 N6_3 1_555 1_555
C20_3 C19_3 1_555 1_555
H14_3 C20_3 1_555 1_555
C21_3 N7_3 1_555 1_555
C22_3 C21_3 1_555 1_555
C23_3 C22_3 1_555 1_555
H15_3 C23_3 1_555 1_555
C24_3 C23_3 1_555 1_555
H16_3 C24_3 1_555 1_555
C25_3 N8_3 1_555 1_555
H17_3 C25_3 1_555 1_555
C26_3 C22_3 1_555 1_555
H18_3 C26_3 1_555 1_555
C27_3 H19_3 1_555 1_555
C28_3 C27_3 1_555 1_555
H20_3 C28_3 1_555 1_555
C29_3 N25 1_555 1_555
H21_3 C29_3 1_555 1_555
C30_3 C29_3 1_555 1_555
H22_3 C30_3 1_555 1_555
C31_3 C27_3 1_555 1_555
C32_3 N10_3 1_555 1_555
C33_3 C32_3 1_555 1_555
H23_3 C33_3 1_555 1_555
C34_3 N11_3 1_555 1_555
C35_3 C34_3 1_555 1_555
C36_3 C35_3 1_555 1_555
C38_3 N26_2 1_555 1_555
H26_3 C38_3 1_555 1_555
C39_3 C35_3 1_555 1_555
H27_3 C39_3 1_555 1_555
C40_3 H28_3 1_555 1_555
C41_3 C40_3 1_555 1_555
H29_3 C41_3 1_555 1_555
C42_3 N27_2 1_555 1_555
H30_3 C42_3 1_555 1_555
C43_3 C42_3 1_555 1_555
H31_3 C43_3 1_555 1_555
C44_3 C40_3 1_555 1_555
C45_3 N14_3 1_555 1_555
C46_3 C45_3 1_555 1_555
H32_3 C46_3 1_555 1_555
C47_3 N15_3 1_555 1_555
C48_3 C47_3 1_555 1_555
C49_3 C48_3 1_555 1_555
H33_3 C49_3 1_555 1_555
C50_3 C49_3 1_555 1_555
H34_3 C50_3 1_555 1_555
C51_3 N16_3 1_555 1_555
H35_3 C51_3 1_555 1_555
C52_3 C48_3 1_555 1_555
H36_3 C52_3 1_555 1_555
C53_3 H37_3 1_555 1_555
C54_3 C53_3 1_555 1_555
H38_3 C54_3 1_555 1_555
C55_3 N17_3 1_555 1_555
H39_3 C55_3 1_555 1_555
C56_3 C55_3 1_555 1_555
H40_3 C56_3 1_555 1_555
C57_3 C53_3 1_555 1_555
C58_3 N18_3 1_555 1_555
C59_3 C58_3 1_555 1_555
H41_3 C59_3 1_555 1_555
C60_3 N19_3 1_555 1_555
C66_3 H46_3 1_555 1_555
C67_3 C66_3 1_555 1_555
H47_3 C67_3 1_555 1_555
C70_3 C66_3 1_555 1_555
C71_3 N22_3 1_555 1_555
C72_3 C71_3 1_555 1_555
C73_3 N23_3 1_555 1_555
N18_3 N19_3 1_555 1_555
N22_3 N23_3 1_555 1_555
C17_3 C18_3 1_555 1_555
C18_3 C19_3 1_555 1_555
C20_3 C21_3 1_555 1_555
C25_3 C26_3 1_555 1_555
C30_3 C31_3 1_555 1_555
C31_3 C32_3 1_555 1_555
C33_3 C34_3 1_555 1_555
C38_3 C39_3 1_555 1_555
C43_3 C44_3 1_555 1_555
C44_3 C45_3 1_555 1_555
C46_3 C47_3 1_555 1_555
C51_3 C52_3 1_555 1_555
C56_3 C57_3 1_555 1_555
C57_3 C58_3 1_555 1_555
C59_3 C60_3 1_555 1_555
C70_3 C71_3 1_555 1_555
C72_3 C73_3 1_555 1_555
N28 C63_3 1_555 1_555
C63_3 C62_3 1_555 1_555
H43_3 C63_3 1_555 1_555
Cu8 N1_3 1_555 1_555
N1_3 C2_3 1_555 1_555
N2_3 N3_3 1_555 1_555
N3_3 C8_3 1_555 1_555
N4_3 C11_3 1_555 1_555
N24_3 C76_3 1_555 1_555
C1_3 H1_3 1_555 1_555
C2_3 C1_3 1_555 1_555
C3_3 N1_3 1_555 1_555
H3_3 C3_3 1_555 1_555
C4_3 C3_3 1_555 1_555
H4_3 C4_3 1_555 1_555
C5_3 C1_3 1_555 1_555
C6_3 N2_3 1_555 1_555
C7_3 C6_3 1_555 1_555
H5_3 C7_3 1_555 1_555
C8_3 C7_3 1_555 1_555
C9_3 C8_3 1_555 1_555
C10_3 C9_3 1_555 1_555
H6_3 C10_3 1_555 1_555
C11_3 C10_3 1_555 1_555
H7_3 C11_3 1_555 1_555
C12_3 N4_3 1_555 1_555
H8_3 C12_3 1_555 1_555
C13_3 C9_3 1_555 1_555
H9_3 C13_3 1_555 1_555
H25_3 C37_3 1_555 1_555
H44_3 C64_3 1_555 1_555
C65_3 C61_3 1_555 1_555
H45_3 C65_3 1_555 1_555
C75_3 C74_3 1_555 1_555
C76_3 C75_3 1_555 1_555
C77_3 N24_3 1_555 1_555
H53_3 C77_3 1_555 1_555
C78_3 C74_3 1_555 1_555
H54_3 C78_3 1_555 1_555
C4_3 C5_3 1_555 1_555
C5_3 C6_3 1_555 1_555
C12_3 C13_3 1_555 1_555
C64_3 C65_3 1_555 1_555
C77_3 C78_3 1_555 1_555
N2_4 N3_4 1_555 1_555
N3_4 C8_4 1_555 1_555
N4_4 C11_4 1_555 1_555
N28_2 C63_4 1_555 1_555
N24_4 C76_4 1_555 1_555
C1_4 H1_4 1_555 1_555
H4_4 C4_4 1_555 1_555
C5_4 C1_4 1_555 1_555
C6_4 N2_4 1_555 1_555
C7_4 C6_4 1_555 1_555
H5_4 C7_4 1_555 1_555
C8_4 C7_4 1_555 1_555
C9_4 C8_4 1_555 1_555
C10_4 C9_4 1_555 1_555
H6_4 C10_4 1_555 1_555
C11_4 C10_4 1_555 1_555
H7_4 C11_4 1_555 1_555
C12_4 N4_4 1_555 1_555
H8_4 C12_4 1_555 1_555
C13_4 C9_4 1_555 1_555
H9_4 C13_4 1_555 1_555
H25_4 C37_4 1_555 1_555
C62_4 C61_4 1_555 1_555
C63_4 C62_4 1_555 1_555
H43_4 C63_4 1_555 1_555
C64_4 N28_2 1_555 1_555
H44_4 C64_4 1_555 1_555
C65_4 C61_4 1_555 1_555
H45_4 C65_4 1_555 1_555
C75_4 C74_4 1_555 1_555
H51_4 C75_4 1_555 1_555
C76_4 C75_4 1_555 1_555
H52_4 C76_4 1_555 1_555
C77_4 N24_4 1_555 1_555
H53_4 C77_4 1_555 1_555
C78_4 C74_4 1_555 1_555
H54_4 C78_4 1_555 1_555
C4_4 C5_4 1_555 1_555
C5_4 C6_4 1_555 1_555
C12_4 C13_4 1_555 1_555
C64_4 C65_4 1_555 1_555
C77_4 C78_4 1_555 1_555
Cu9 N1_4 1_555 1_555
N1_4 C2_4 1_555 1_555
C3_4 N1_4 1_555 1_555
H3_4 C3_4 1_555 1_555
Cu2_4 N11_4 1_555 1_555
Cu4_4 N7_4 1_555 1_555
Cu5_4 N15_4 1_555 1_555
N6_4 Cu1_4 1_555 1_555
N7_4 N6_4 1_555 1_555
N10_4 Cu4_4 1_555 1_555
N11_4 N10_4 1_555 1_555
N27 C41_4 1_555 1_555
N14_4 Cu2_4 1_555 1_555
N15_4 N14_4 1_555 1_555
N17_4 C54_4 1_555 1_555
N18_4 Cu2_4 1_555 1_555
N19_4 Cu3_4 1_555 1_555
N29_2 C67_4 1_555 1_555
N22_4 Cu5_4 1_555 1_555
N23_4 Cu1_4 1_555 1_555
C21_4 N7_4 1_555 1_555
C22_4 C21_4 1_555 1_555
C23_4 C22_4 1_555 1_555
C26_4 C22_4 1_555 1_555
H18_4 C26_4 1_555 1_555
C27_4 H19_4 1_555 1_555
C28_4 C27_4 1_555 1_555
H20_4 C28_4 1_555 1_555
H22_4 C30_4 1_555 1_555
C31_4 C27_4 1_555 1_555
C32_4 N10_4 1_555 1_555
C33_4 C32_4 1_555 1_555
H23_4 C33_4 1_555 1_555
C34_4 N11_4 1_555 1_555
C35_4 C34_4 1_555 1_555
C36_4 C35_4 1_555 1_555
C38_4 N26 1_555 1_555
H26_4 C38_4 1_555 1_555
C39_4 C35_4 1_555 1_555
H27_4 C39_4 1_555 1_555
C40_4 H28_4 1_555 1_555
C41_4 C40_4 1_555 1_555
H29_4 C41_4 1_555 1_555
C42_4 N27 1_555 1_555
H30_4 C42_4 1_555 1_555
C43_4 C42_4 1_555 1_555
H31_4 C43_4 1_555 1_555
C44_4 C40_4 1_555 1_555
C45_4 N14_4 1_555 1_555
C46_4 C45_4 1_555 1_555
H32_4 C46_4 1_555 1_555
C47_4 N15_4 1_555 1_555
C48_4 C47_4 1_555 1_555
C49_4 C48_4 1_555 1_555
H33_4 C49_4 1_555 1_555
C52_4 C48_4 1_555 1_555
H36_4 C52_4 1_555 1_555
C53_4 H37_4 1_555 1_555
C54_4 C53_4 1_555 1_555
H38_4 C54_4 1_555 1_555
C55_4 N17_4 1_555 1_555
H39_4 C55_4 1_555 1_555
C56_4 C55_4 1_555 1_555
H40_4 C56_4 1_555 1_555
C57_4 C53_4 1_555 1_555
C58_4 N18_4 1_555 1_555
C59_4 C58_4 1_555 1_555
H41_4 C59_4 1_555 1_555
C60_4 N19_4 1_555 1_555
C66_4 H46_4 1_555 1_555
C67_4 C66_4 1_555 1_555
H47_4 C67_4 1_555 1_555
C68_4 N29_2 1_555 1_555
H48_4 C68_4 1_555 1_555
C69_4 C68_4 1_555 1_555
H49_4 C69_4 1_555 1_555
C70_4 C66_4 1_555 1_555
C71_4 N22_4 1_555 1_555
C72_4 C71_4 1_555 1_555
H50_4 C72_4 1_555 1_555
C73_4 N23_4 1_555 1_555
N18_4 N19_4 1_555 1_555
N22_4 N23_4 1_555 1_555
C25_4 C26_4 1_555 1_555
C30_4 C31_4 1_555 1_555
C31_4 C32_4 1_555 1_555
C33_4 C34_4 1_555 1_555
C38_4 C39_4 1_555 1_555
C43_4 C44_4 1_555 1_555
C44_4 C45_4 1_555 1_555
C46_4 C47_4 1_555 1_555
C56_4 C57_4 1_555 1_555
C57_4 C58_4 1_555 1_555
C59_4 C60_4 1_555 1_555
C69_4 C70_4 1_555 1_555
C70_4 C71_4 1_555 1_555
C72_4 C73_4 1_555 1_555
Cu10 N5_4 1_555 1_555
N5_4 C15_4 1_555 1_555
N16_4 C50_4 1_555 1_555
C14_4 H10_4 1_555 1_555
C15_4 C14_4 1_555 1_555
H11_4 C15_4 1_555 1_555
C16_4 N5_4 1_555 1_555
H12_4 C16_4 1_555 1_555
C17_4 C16_4 1_555 1_555
H13_4 C17_4 1_555 1_555
C18_4 C14_4 1_555 1_555
C20_4 C19_4 1_555 1_555
H14_4 C20_4 1_555 1_555
H34_4 C50_4 1_555 1_555
C51_4 N16_4 1_555 1_555
H35_4 C51_4 1_555 1_555
C17_4 C18_4 1_555 1_555
C18_4 C19_4 1_555 1_555
N8_4 C24_4 1_555 1_555
H16_4 C24_4 1_555 1_555
C29_4 N25_2 1_555 1_555
H21_4 C29_4 1_555 1_555
F1 B1 1_555 1_555
F2 B1 1_555 1_555
F3 B1 1_555 1_555
F4 B1 1_555 1_555
F1_2 B1_2 1_555 1_555
F3_2 B1_2 1_555 1_555
F1_3 B1_3 1_555 1_555
F2_3 B1_3 1_555 1_555
F3_3 B1_3 1_555 1_555
F4_3 B1_3 1_555 1_555
F1_4 B1_4 1_555 1_555
F3_4 B1_4 1_555 1_555

#END
