
###############################################################################
#
# This file contains modified crystal structure data generated from the
# MOF subset of the Cambridge Structural Database (CSD) v543 
# hosted by the Cambridge Crystallographic Data Centre (CCDC).
#
# This work is licensed under the Creative Commons
# Attribution-NonCommercial-ShareAlike 4.0 International License.
# To view a copy of this license, visit
# http://creativecommons.org/licenses/by-nc-sa/4.0/
# or send a letter to
# Creative Commons, PO Box 1866, Mountain View, CA 94042, USA.
#
# CIF created using the CSD Python API on 29 September 2022
# The structure has been converted into the P1 space group
# The structure has a 3D framework
# The original CSD entry KOKSIO is in the monoclinic crystal system
# The framework has been calculated to contain at least 10.0% void space
# The void calculation uses a probe of radius 1.32A, grid spacing 0.4
#
###############################################################################

data_KOKSIO
_chemical_formula_moiety         '(C52 H48 Cu4 N16 O12)n'
_symmetry_cell_setting           triclinic
_symmetry_space_group_name_H-M   'P 1'
_symmetry_Int_Tables_number      1
_space_group_name_Hall           'P 1'
loop_
_symmetry_equiv_pos_site_id
_symmetry_equiv_pos_as_xyz
1 x,y,z
_cell_length_a                   7.8256(12)
_cell_length_b                   22.331(2)
_cell_length_c                   8.9976(13)
_cell_angle_alpha                90
_cell_angle_beta                 110.040(16)
_cell_angle_gamma                90
_cell_volume                     1477.16
loop_
_atom_site_label
_atom_site_type_symbol
_atom_site_fract_x
_atom_site_fract_y
_atom_site_fract_z
O1 O 0.3072(8) 0.1995(2) 0.2004(7)
N2 N 0.7658(12) 0.2933(3) 0.1646(9)
C2 C 0.8206(16) 0.2742(5) 0.0483(12)
H2 H 0.9191 0.2940 0.0304
C3 C 0.6208(15) 0.2647(4) 0.1831(13)
H3 H 0.5771 0.2774 0.2644
C4 C 0.5351(15) 0.2174(5) 0.0852(11)
C5 C 0.3707(11) 0.1848(3) 0.0932(10)
H5 H 0.0757 0.1320 0.0262
C7 C 0.2058(11) 0.0497(3) 0.0721(11)
C11 C 0.3310(12) 0.0503(4) 0.2239(10)
H9 H 0.3775 0.0871 0.2748
Cu3 Cu 0.94720(19) 0.36789(4) 0.33884(18)
N4 N 0.3255(10) 0.9430(3) 0.2361(9)
C8 C 0.1360(11) 0.9955(4) 0.0059(11)
C9 C 0.2044(13) 0.9429(4) 0.0884(13)
H7 H 0.1638 0.9056 0.0381
C10 C 0.3872(11) 0.9964(3) 0.3001(11)
H8 H 0.4747 0.9972 0.4039
Cu2 Cu 0.44720(19) 0.86789(4) 0.33884(18)
O1_2 O 0.3072(8) 0.8005(2) 0.7004(7)
O2 O 0.5973(10) 0.8674(3) 0.2054(9)
O3 O 0.7386(8) 0.9561(3) 0.2464(8)
N1 N 0.5958(11) 0.8012(3) 0.4695(9)
N2_2 N 0.7658(12) 0.7067(3) 0.6646(9)
N3 N 0.3109(12) 0.8579(4) 0.4844(11)
C1 C 0.7378(15) 0.7745(5) 0.4510(12)
H1 H 0.7839 0.7880 0.3720
C2_2 C 0.8206(16) 0.7258(5) 0.5483(12)
H2_2 H 0.9191 0.7060 0.5304
C3_2 C 0.6208(15) 0.7353(4) 0.6831(13)
H3_2 H 0.5771 0.7226 0.7644
C4_2 C 0.5351(15) 0.7826(5) 0.5852(11)
C5_2 C 0.3707(11) 0.8152(3) 0.5932(10)
C6 C 0.1512(13) 0.8922(4) 0.4801(12)
H4 H 0.0774 0.9013 0.3689
H5_2 H 0.0757 0.8680 0.5262
C7_2 C 0.2058(11) 0.9503(3) 0.5721(11)
C11_2 C 0.3310(12) 0.9497(4) 0.7239(10)
H9_2 H 0.3775 0.9129 0.7748
C12 C 0.6927(13) 0.9093(5) 0.1705(13)
C13 C 0.7531(12) 0.8942(4) 0.0323(10)
H11 H 0.8669 0.8715 0.0701
Cu3_2 Cu 0.94720(19) 0.63211(4) 0.83884(18)
N5 N 0.2658(12) 0.7933(3) 0.1646(9)
C2_3 C 0.3206(16) 0.7742(5) 0.0483(12)
H2_3 H 0.4191 0.7940 0.0304
C3_3 C 0.1208(15) 0.7647(4) 0.1831(13)
H3_3 H 0.0771 0.7774 0.2644
C4_3 C 0.0351(15) 0.7174(5) 0.0852(11)
O1_3 O 0.8072(8) 0.6995(2) 0.2004(7)
N4_2 N 0.8255(10) 0.4430(3) 0.2361(9)
C5_3 C 0.8707(11) 0.6848(3) 0.0932(10)
H5_3 H 0.5757 0.6320 0.0262
C7_3 C 0.7058(11) 0.5497(3) 0.0721(11)
C8_2 C 0.6360(11) 0.4955(4) 0.0059(11)
C9_2 C 0.7044(13) 0.4429(4) 0.0884(13)
H7_2 H 0.6638 0.4056 0.0381
C10_2 C 0.8872(11) 0.4964(3) 0.3001(11)
H8_2 H 0.9747 0.4972 0.4039
C11_3 C 0.8310(12) 0.5503(4) 0.2239(10)
H9_3 H 0.8775 0.5871 0.2748
N3_2 N 0.8109(12) 0.6421(4) 0.9844(11)
C6_2 C 0.6512(13) 0.6078(4) 0.9801(12)
H4_2 H 0.5774 0.5987 0.8689
H6 H 0.5425 0.4939 0.9053
N6 N 0.8255(10) 0.5570(3) 0.7361(9)
O1_4 O 0.8072(8) 0.3005(2) 0.7004(7)
N3_3 N 0.8109(12) 0.3579(4) 0.4844(11)
C5_4 C 0.8707(11) 0.3152(3) 0.5932(10)
C6_3 C 0.6512(13) 0.3922(4) 0.4801(12)
H4_3 H 0.5774 0.4013 0.3689
H5_4 H 0.5757 0.3680 0.5262
C7_4 C 0.7058(11) 0.4503(3) 0.5721(11)
C8_3 C 0.6360(11) 0.5045(4) 0.5059(11)
H6_2 H 0.5425 0.5061 0.4053
C9_3 C 0.7044(13) 0.5571(4) 0.5884(13)
H7_3 H 0.6638 0.5944 0.5381
C10_3 C 0.8872(11) 0.5036(3) 0.8001(11)
H8_3 H 0.9747 0.5028 0.9039
C11_4 C 0.8310(12) 0.4497(4) 0.7239(10)
H9_4 H 0.8775 0.4129 0.7748
Cu1 Cu 0.44720(19) 0.13211(4) 0.83884(18)
O2_2 O 0.5973(10) 0.1326(3) 0.7054(9)
O3_2 O 0.7386(8) 0.0439(3) 0.7464(8)
N1_2 N 0.5958(11) 0.1988(3) 0.9695(9)
N3_4 N 0.3109(12) 0.1421(4) 0.9844(11)
C1_2 C 0.7378(15) 0.2255(5) 0.9510(12)
H1_2 H 0.7839 0.2120 0.8720
C6_4 C 0.1512(13) 0.1078(4) 0.9801(12)
H4_4 H 0.0774 0.0987 0.8689
C12_2 C 0.6927(13) 0.0907(5) 0.6705(13)
C13_2 C 0.7531(12) 0.1058(4) 0.5323(10)
H10 H 0.7724 0.0687 0.4820
H11_2 H 0.8669 0.1285 0.5701
H12 H 0.6591 0.1298 0.4552
N5_2 N 0.2658(12) 0.2067(3) 0.6646(9)
N6_2 N 0.3255(10) 0.0570(3) 0.7361(9)
C8_4 C 0.1360(11) 0.0045(4) 0.5059(11)
H6_3 H 0.0425 0.0061 0.4053
C9_4 C 0.2044(13) 0.0571(4) 0.5884(13)
H7_4 H 0.1638 0.0944 0.5381
C10_4 C 0.3872(11) 0.0036(3) 0.8001(11)
H8_4 H 0.4747 0.0028 0.9039
O2_3 O 0.0973(10) 0.3674(3) 0.2054(9)
O3_3 O 0.2386(8) 0.4561(3) 0.2464(8)
N1_3 N 0.0958(11) 0.3012(3) 0.4695(9)
C1_3 C 0.2378(15) 0.2745(5) 0.4510(12)
H1_3 H 0.2839 0.2880 0.3720
C2_4 C 0.3206(16) 0.2258(5) 0.5483(12)
H2_4 H 0.4191 0.2060 0.5304
C3_4 C 0.1208(15) 0.2353(4) 0.6831(13)
H3_4 H 0.0771 0.2226 0.7644
C4_4 C 0.0351(15) 0.2826(5) 0.5852(11)
C12_3 C 0.1927(13) 0.4093(5) 0.1705(13)
C13_3 C 0.2531(12) 0.3942(4) 0.0323(10)
H11_3 H 0.3669 0.3715 0.0701
H6_4 H 0.0425 0.9939 0.9053
H10_2 H 0.7724 0.9313 0.9820
H12_2 H 0.6591 0.8702 0.9552
O2_4 O 0.0973(10) 0.6326(3) 0.7054(9)
O3_4 O 0.2386(8) 0.5439(3) 0.7464(8)
N1_4 N 0.0958(11) 0.6988(3) 0.9695(9)
C1_4 C 0.2378(15) 0.7255(5) 0.9510(12)
H1_4 H 0.2839 0.7120 0.8720
C12_4 C 0.1927(13) 0.5907(5) 0.6705(13)
C13_4 C 0.2531(12) 0.6058(4) 0.5323(10)
H10_3 H 0.2724 0.5687 0.4820
H11_4 H 0.3669 0.6285 0.5701
H12_3 H 0.1591 0.6298 0.4552
H10_4 H 0.2724 0.4313 0.9820
H12_4 H 0.1591 0.3702 0.9552
loop_
_geom_bond_atom_site_label_1
_geom_bond_atom_site_label_2
_geom_bond_site_symmetry_1
_geom_bond_site_symmetry_2
O1 C5 1_555 1_555
N2 C2 1_555 1_555
H2 C2 1_555 1_555
C3 N2 1_555 1_555
H3 C3 1_555 1_555
C11 C7 1_555 1_555
H9 C11 1_555 1_555
Cu3 N2 1_555 1_555
C3 C4 1_555 1_555
C4 C5 1_555 1_555
N4 C9 1_555 1_555
C9 C8 1_555 1_555
H7 C9 1_555 1_555
C10 N4 1_555 1_555
H8 C10 1_555 1_555
Cu2 N4 1_555 1_555
Cu2 O2 1_555 1_555
O1_2 C5_2 1_555 1_555
O2 C12 1_555 1_555
O3 C12 1_555 1_555
N1 Cu2 1_555 1_555
N2_2 C2_2 1_555 1_555
N3 Cu2 1_555 1_555
C1 N1 1_555 1_555
H1 C1 1_555 1_555
C2_2 C1 1_555 1_555
H2_2 C2_2 1_555 1_555
C3_2 N2_2 1_555 1_555
H3_2 C3_2 1_555 1_555
C4_2 N1 1_555 1_555
C5_2 N3 1_555 1_555
C6 N3 1_555 1_555
H4 C6 1_555 1_555
H5_2 C6 1_555 1_555
C7_2 C6 1_555 1_555
C11_2 C7_2 1_555 1_555
H9_2 C11_2 1_555 1_555
C12 C13 1_555 1_555
H11 C13 1_555 1_555
Cu3_2 N2_2 1_555 1_555
N5 Cu2 1_555 1_555
C3_2 C4_2 1_555 1_555
C4_2 C5_2 1_555 1_555
N5 C2_3 1_555 1_555
H2_3 C2_3 1_555 1_555
C3_3 N5 1_555 1_555
H3_3 C3_3 1_555 1_555
C3_3 C4_3 1_555 1_555
O1_3 C5_3 1_555 1_555
N4_2 C9_2 1_555 1_555
C8_2 C7_3 1_555 1_555
C9_2 C8_2 1_555 1_555
H7_2 C9_2 1_555 1_555
C10_2 N4_2 1_555 1_555
H8_2 C10_2 1_555 1_555
C11_3 C7_3 1_555 1_555
H9_3 C11_3 1_555 1_555
Cu3 N4_2 1_555 1_555
C10_2 C11_3 1_555 1_555
N3_2 Cu3_2 1_555 1_555
C6_2 N3_2 1_555 1_555
H4_2 C6_2 1_555 1_555
N6 Cu3_2 1_555 1_555
O1_4 C5_4 1_555 1_555
N3_3 Cu3 1_555 1_555
N6 C9_3 1_555 1_555
C5_4 N3_3 1_555 1_555
C6_3 N3_3 1_555 1_555
H4_3 C6_3 1_555 1_555
H5_4 C6_3 1_555 1_555
C7_4 C6_3 1_555 1_555
C8_3 C7_4 1_555 1_555
H6_2 C8_3 1_555 1_555
C9_3 C8_3 1_555 1_555
H7_3 C9_3 1_555 1_555
C10_3 N6 1_555 1_555
H8_3 C10_3 1_555 1_555
C11_4 C7_4 1_555 1_555
H9_4 C11_4 1_555 1_555
C10_3 C11_4 1_555 1_555
Cu1 O2_2 1_555 1_555
O2_2 C12_2 1_555 1_555
O3_2 C12_2 1_555 1_555
N1_2 Cu1 1_555 1_555
N3_4 Cu1 1_555 1_555
C1_2 N1_2 1_555 1_555
H1_2 C1_2 1_555 1_555
C6_4 N3_4 1_555 1_555
H4_4 C6_4 1_555 1_555
C12_2 C13_2 1_555 1_555
C13_2 H10 1_555 1_555
H11_2 C13_2 1_555 1_555
H12 C13_2 1_555 1_555
N5_2 Cu1 1_555 1_555
N6_2 Cu1 1_555 1_555
N6_2 C9_4 1_555 1_555
H6_3 C8_4 1_555 1_555
C9_4 C8_4 1_555 1_555
H7_4 C9_4 1_555 1_555
C10_4 N6_2 1_555 1_555
H8_4 C10_4 1_555 1_555
O2_3 C12_3 1_555 1_555
O3_3 C12_3 1_555 1_555
N5_2 C2_4 1_555 1_555
C1_3 N1_3 1_555 1_555
H1_3 C1_3 1_555 1_555
C2_4 C1_3 1_555 1_555
H2_4 C2_4 1_555 1_555
C3_4 N5_2 1_555 1_555
H3_4 C3_4 1_555 1_555
C4_4 N1_3 1_555 1_555
C12_3 C13_3 1_555 1_555
H11_3 C13_3 1_555 1_555
C3_4 C4_4 1_555 1_555
O2_4 C12_4 1_555 1_555
O3_4 C12_4 1_555 1_555
C1_4 N1_4 1_555 1_555
H1_4 C1_4 1_555 1_555
C12_4 C13_4 1_555 1_555
C13_4 H10_3 1_555 1_555
H11_4 C13_4 1_555 1_555
H12_3 C13_4 1_555 1_555

#END
