
###############################################################################
#
# This file contains modified crystal structure data generated from the
# MOF subset of the Cambridge Structural Database (CSD) v543 
# hosted by the Cambridge Crystallographic Data Centre (CCDC).
#
# This work is licensed under the Creative Commons
# Attribution-NonCommercial-ShareAlike 4.0 International License.
# To view a copy of this license, visit
# http://creativecommons.org/licenses/by-nc-sa/4.0/
# or send a letter to
# Creative Commons, PO Box 1866, Mountain View, CA 94042, USA.
#
# CIF created using the CSD Python API on 29 September 2022
# The structure has been converted into the P1 space group
# The structure has a 3D framework
# The original CSD entry KOLMII is in the monoclinic crystal system
# The framework has been calculated to contain at least 10.0% void space
# The void calculation uses a probe of radius 1.32A, grid spacing 0.4
#
###############################################################################

data_KOLMII
_chemical_formula_moiety         '(C328 H256 Cu16 N30 O80)n'
_symmetry_cell_setting           triclinic
_symmetry_space_group_name_H-M   'P 1'
_symmetry_Int_Tables_number      1
_space_group_name_Hall           'P 1'
loop_
_symmetry_equiv_pos_site_id
_symmetry_equiv_pos_as_xyz
1 x,y,z
_cell_length_a                   34.849(5)
_cell_length_b                   13.4109(15)
_cell_length_c                   26.387(3)
_cell_angle_alpha                90
_cell_angle_beta                 131.039(4)
_cell_angle_gamma                90
_cell_volume                     9301.67
loop_
_atom_site_label
_atom_site_type_symbol
_atom_site_fract_x
_atom_site_fract_y
_atom_site_fract_z
N2 N 0.0087(3) 0.7761(8) 0.0477(5)
H18 H 0.0119 0.9156 0.0392
Cu9 Cu 0.08261(5) 0.75382(11) 0.12706(7)
O14 O 0.2013(3) 0.1425(6) 0.3042(4)
O15 O 0.0659(3) 0.3700(7) 0.2587(4)
O21 O 0.3286(3) 0.0410(6) 0.4223(4)
N12 N 0.2538(4) 0.0116(9) 0.4300(4)
C42 C 0.0764(4) 0.0283(9) 0.1912(6)
C43 C 0.1137(5) 0.0930(10) 0.2333(6)
C44 C 0.1012(4) 0.1946(11) 0.2379(5)
H35 H 0.1270 0.2400 0.2670
C45 C 0.0496(4) 0.2239(9) 0.1980(5)
C46 C 0.0134(4) 0.1509(12) 0.1570(6)
C47 C 0.0279(5) 0.0578(11) 0.1537(6)
H37 H 0.0025 0.0122 0.1236
C49 C 0.1703(4) 0.0737(11) 0.2810(5)
C50 C 0.0386(5) 0.3266(11) 0.2032(6)
Cu3 Cu 0.25810(5) 0.99852(11) 0.35866(6)
O11 O 0.1019(4) 0.9268(7) 0.1455(5)
O12 O 0.0738(4) 0.8561(8) 0.1883(6)
O13 O 0.1833(2) 0.9829(6) 0.2938(3)
O18 O 0.0869(3) 0.7037(6) 0.0615(4)
O23 O 0.0638(3) 0.6177(6) 0.1556(4)
H33 H 0.0750 0.6050 0.1948
H34 H 0.0685 0.5935 0.1304
N6 N 0.1579(3) 0.7306(7) 0.2069(4)
N10 N 0.2642(3) 0.9629(6) 0.2903(4)
C48 C 0.0846(5) 0.9287(10) 0.1733(7)
C27 C 0.9899(4) 0.8613(11) 0.0192(6)
C28 C 0.9760(5) 0.7011(10) 0.0146(6)
H19 H 0.9877 0.6383 0.0340
Cu6 Cu 0.75810(5) 0.49852(11) 0.35866(6)
N9 N 0.7642(3) 0.4629(6) 0.2903(4)
H36 H 0.9791 0.1653 0.1317
C51 C 0.9940(4) 0.3805(9) 0.1452(5)
C52 C 0.9772(4) 0.3612(9) 0.0814(6)
H38 H 0.9940 0.3143 0.0759
C53 C 0.9340(5) 0.4140(10) 0.0242(5)
C54 C 0.9072(4) 0.4763(8) 0.0316(5)
C55 C 0.9260(4) 0.5001(10) 0.0961(5)
H39 H 0.9098 0.5481 0.1017
C56 C 0.9683(5) 0.4525(10) 0.1506(6)
H40 H 0.9803 0.4690 0.1931
C71 C 0.8072(5) 0.4603(8) 0.3035(6)
H53 H 0.8366 0.4724 0.3476
C72 C 0.8126(5) 0.4413(9) 0.2579(6)
H54 H 0.8445 0.4368 0.2705
C73 C 0.7682(5) 0.4291(9) 0.1916(6)
C74 C 0.7240(5) 0.4280(9) 0.1769(6)
H55 H 0.6941 0.4153 0.1333
C75 C 0.7228(4) 0.4450(8) 0.2251(5)
H56 H 0.6912 0.4448 0.2135
C76 C 0.7728(5) 0.4117(11) 0.1390(7)
H57 H 0.7574 0.3483 0.1170
H58 H 0.8085 0.4091 0.1606
C77 C 0.7477(6) 0.4918(13) 0.0890(8)
H59 H 0.7124 0.4950 0.0688
H60 H 0.7635 0.5547 0.1117
C78 C 0.7497(7) 0.4795(16) 0.0344(9)
C82 C 0.7683(7) 0.4032(15) 0.0230(7)
H64 H 0.7788 0.3454 0.0485
Cu1 Cu 0.75810(5) 0.50148(11) 0.85866(6)
Cu2 Cu 0.58261(5) 0.74618(11) 0.62706(7)
O1 O 0.6019(4) 0.5732(7) 0.6455(5)
O2 O 0.5738(4) 0.6439(8) 0.6883(6)
O3 O 0.6833(2) 0.5171(6) 0.7938(3)
O4 O 0.7013(3) 0.3575(6) 0.8042(4)
O5 O 0.5659(3) 0.1300(7) 0.7587(4)
O6 O 0.4131(3) 0.2037(6) 0.4385(4)
O7 O 0.4212(3) 0.0399(7) 0.4290(4)
O10 O 0.5638(3) 0.8823(6) 0.6556(4)
H1 H 0.5750 0.8950 0.6948
H2 H 0.5685 0.9065 0.6304
N1 N 0.6579(3) 0.7694(7) 0.7069(4)
N3 N 0.7642(3) 0.5371(6) 0.7903(4)
N4 N 0.7538(4) 0.5116(9) 0.4300(4)
C1 C 0.5764(4) 0.4717(9) 0.6912(6)
C2 C 0.6137(5) 0.4070(10) 0.7333(6)
C3 C 0.6012(4) 0.3054(11) 0.7379(5)
H3 H 0.6270 0.2600 0.7670
C4 C 0.5496(4) 0.2761(9) 0.6980(5)
C5 C 0.5134(4) 0.3491(12) 0.6570(6)
H4 H 0.4791 0.3347 0.6317
C6 C 0.5279(5) 0.4422(11) 0.6537(6)
H5 H 0.5025 0.4878 0.6236
C7 C 0.5846(5) 0.5713(10) 0.6733(7)
C8 C 0.6703(4) 0.4263(11) 0.7810(5)
C9 C 0.5386(5) 0.1734(11) 0.7032(6)
C10 C 0.4940(4) 0.1195(9) 0.6452(5)
C11 C 0.4772(4) 0.1388(9) 0.5814(6)
H6 H 0.4940 0.1857 0.5759
C12 C 0.4340(5) 0.0860(10) 0.5242(5)
C13 C 0.4072(4) 0.0237(8) 0.5316(5)
C15 C 0.4683(5) 0.0475(10) 0.6506(6)
H8 H 0.4803 0.0310 0.6931
C16 C 0.4207(4) 0.1190(15) 0.4567(6)
C18 C 0.6754(4) 0.7583(8) 0.7680(5)
H9 H 0.6531 0.7417 0.7746
C19 C 0.7268(4) 0.7708(8) 0.8234(5)
H10 H 0.7387 0.7645 0.8667
C20 C 0.7593(4) 0.7923(8) 0.8134(6)
C21 C 0.7414(4) 0.8013(8) 0.7524(5)
H11 H 0.7633 0.8129 0.7443
C22 C 0.6915(5) 0.7938(8) 0.7013(6)
H12 H 0.6795 0.8069 0.6584
C23 C 0.8171(4) 0.8009(9) 0.8784(5)
H13 H 0.8218 0.8582 0.9043
H14 H 0.8271 0.7419 0.9058
C24 C 0.8524(4) 0.8121(10) 0.8614(6)
H15 H 0.8439 0.7624 0.8287
H16 H 0.8485 0.8777 0.8430
C25 C 0.9079(4) 0.7970(11) 0.9282(6)
C26 C 0.9398(5) 0.8805(10) 0.9615(6)
H17 H 0.9281 0.9451 0.9459
C29 C 0.9278(4) 0.7067(9) 0.9557(6)
H20 H 0.9085 0.6492 0.9345
C30 C 0.8072(5) 0.5397(8) 0.8035(6)
H21 H 0.8366 0.5276 0.8476
C31 C 0.8126(5) 0.5587(9) 0.7579(6)
H22 H 0.8445 0.5632 0.7705
C32 C 0.7682(5) 0.5709(9) 0.6916(6)
C33 C 0.7240(5) 0.5720(9) 0.6769(6)
H23 H 0.6941 0.5847 0.6333
C34 C 0.7228(4) 0.5550(8) 0.7251(5)
H24 H 0.6912 0.5552 0.7135
C35 C 0.7728(5) 0.5883(11) 0.6390(7)
H25 H 0.7574 0.6517 0.6170
H26 H 0.8085 0.5909 0.6606
C36 C 0.7477(6) 0.5082(13) 0.5890(8)
H27 H 0.7124 0.5050 0.5688
H28 H 0.7635 0.4453 0.6117
C37 C 0.7497(7) 0.5205(16) 0.5344(9)
C38 C 0.7326(6) 0.4436(15) 0.4920(9)
H29 H 0.7173 0.3906 0.4957
C39 C 0.7365(6) 0.4383(13) 0.4415(7)
H30 H 0.7262 0.3804 0.4161
C40 C 0.7726(6) 0.5905(12) 0.4705(8)
H31 H 0.7882 0.6416 0.4660
C41 C 0.7683(7) 0.5968(15) 0.5230(7)
H32 H 0.7788 0.6546 0.5485
Cu8 Cu 0.41739(5) 0.25382(11) 0.37294(7)
Cu10 Cu 0.91739(5) 0.24618(11) 0.87294(7)
O16 O 0.9131(3) 0.2963(6) 0.9385(4)
O17 O 0.5869(3) 0.7963(6) 0.5615(4)
O19 O 0.9212(3) 0.4601(7) 0.9290(4)
O20 O 0.8286(3) 0.4590(6) 0.9223(4)
O22 O 0.8464(3) 0.6029(7) 0.9746(4)
N7 N 0.5087(3) 0.7239(8) 0.5477(5)
N11 N 0.7538(4) 0.4884(9) 0.9300(4)
C57 C 0.9207(4) 0.3810(15) 0.9567(6)
C58 C 0.8576(5) 0.5174(11) 0.9728(7)
C59 C 0.1754(4) 0.7417(8) 0.2680(5)
H41 H 0.1531 0.7583 0.2746
C60 C 0.2268(4) 0.7292(8) 0.3234(5)
H42 H 0.2387 0.7355 0.3667
C61 C 0.2593(4) 0.7077(8) 0.3134(6)
C62 C 0.2414(4) 0.6987(8) 0.2524(5)
H43 H 0.2633 0.6871 0.2443
C63 C 0.1915(5) 0.7062(8) 0.2013(6)
H44 H 0.1795 0.6931 0.1584
C64 C 0.3171(4) 0.6991(9) 0.3784(5)
H45 H 0.3218 0.6418 0.4043
H46 H 0.3271 0.7581 0.4058
C65 C 0.3524(4) 0.6879(10) 0.3614(6)
H47 H 0.3439 0.7376 0.3287
H48 H 0.3485 0.6223 0.3430
C66 C 0.4079(4) 0.7030(11) 0.4282(6)
C67 C 0.4398(5) 0.6195(10) 0.4615(6)
H49 H 0.4281 0.5549 0.4459
C68 C 0.4899(4) 0.6387(11) 0.5192(6)
H50 H 0.5119 0.5844 0.5392
C69 C 0.4760(5) 0.7989(10) 0.5146(6)
H51 H 0.4877 0.8617 0.5340
C70 C 0.4278(4) 0.7933(9) 0.4557(6)
H52 H 0.4085 0.8508 0.4345
C79 C 0.7326(6) 0.5564(15) 0.9920(9)
H61 H 0.7173 0.6094 0.9957
C80 C 0.7365(6) 0.5617(13) 0.9415(7)
H62 H 0.7262 0.6196 0.9161
C81 C 0.7726(6) 0.4095(12) 0.9705(8)
H63 H 0.7882 0.3584 0.9660
O9 O 0.3464(3) 0.8971(7) 0.4746(4)
C14 C 0.4260(4) 0.9999(10) 0.5961(5)
H7 H 0.4098 0.9519 0.6017
C17 C 0.3576(5) 0.9826(11) 0.4728(7)
N2_2 N 0.5087(3) 0.2761(8) 0.0477(5)
C27_2 C 0.4899(4) 0.3613(11) 0.0192(6)
H18_2 H 0.5119 0.4156 0.0392
C28_2 C 0.4760(5) 0.2011(10) 0.0146(6)
H19_2 H 0.4877 0.1383 0.0340
Cu9_2 Cu 0.58261(5) 0.25382(11) 0.12706(7)
C55_2 C 0.4260(4) 0.0001(10) 0.0961(5)
H39_2 H 0.4098 0.0481 0.1017
H60_2 H 0.2635 0.0547 0.1117
Cu1_2 Cu 0.25810(5) 0.00148(11) 0.85866(6)
Cu2_2 Cu 0.08261(5) 0.24618(11) 0.62706(7)
O1_2 O 0.1019(4) 0.0732(7) 0.6455(5)
O2_2 O 0.0738(4) 0.1439(8) 0.6883(6)
O3_2 O 0.1833(2) 0.0171(6) 0.7938(3)
O10_2 O 0.0638(3) 0.3823(6) 0.6556(4)
H1_2 H 0.0750 0.3950 0.6948
H2_2 H 0.0685 0.4065 0.6304
N1_2 N 0.1579(3) 0.2694(7) 0.7069(4)
N3_2 N 0.2642(3) 0.0371(6) 0.7903(4)
C7_2 C 0.0846(5) 0.0713(10) 0.6733(7)
C18_2 C 0.1754(4) 0.2583(8) 0.7680(5)
H9_2 H 0.1531 0.2417 0.7746
C19_2 C 0.2268(4) 0.2708(8) 0.8234(5)
H10_2 H 0.2387 0.2645 0.8667
C20_2 C 0.2593(4) 0.2923(8) 0.8134(6)
C21_2 C 0.2414(4) 0.3013(8) 0.7524(5)
H11_2 H 0.2633 0.3129 0.7443
C22_2 C 0.1915(5) 0.2938(8) 0.7013(6)
H12_2 H 0.1795 0.3069 0.6584
C23_2 C 0.3171(4) 0.3009(9) 0.8784(5)
H13_2 H 0.3218 0.3582 0.9043
H14_2 H 0.3271 0.2419 0.9058
C24_2 C 0.3524(4) 0.3121(10) 0.8614(6)
H15_2 H 0.3439 0.2624 0.8287
H16_2 H 0.3485 0.3777 0.8430
C25_2 C 0.4079(4) 0.2970(11) 0.9282(6)
C26_2 C 0.4398(5) 0.3805(10) 0.9615(6)
H17_2 H 0.4281 0.4451 0.9459
C29_2 C 0.4278(4) 0.2067(9) 0.9557(6)
H20_2 H 0.4085 0.1492 0.9345
C30_2 C 0.3072(5) 0.0397(8) 0.8035(6)
H21_2 H 0.3366 0.0276 0.8476
C31_2 C 0.3126(5) 0.0587(9) 0.7579(6)
H22_2 H 0.3445 0.0632 0.7705
C32_2 C 0.2682(5) 0.0709(9) 0.6916(6)
C33_2 C 0.2240(5) 0.0720(9) 0.6769(6)
H23_2 H 0.1941 0.0847 0.6333
C34_2 C 0.2228(4) 0.0550(8) 0.7251(5)
H24_2 H 0.1912 0.0552 0.7135
C35_2 C 0.2728(5) 0.0883(11) 0.6390(7)
H25_2 H 0.2574 0.1517 0.6170
H26_2 H 0.3085 0.0909 0.6606
C36_2 C 0.2477(6) 0.0082(13) 0.5890(8)
H27_2 H 0.2124 0.0050 0.5688
C37_2 C 0.2497(7) 0.0205(16) 0.5344(9)
C40_2 C 0.2726(6) 0.0905(12) 0.4705(8)
H31_2 H 0.2882 0.1416 0.4660
C41_2 C 0.2683(7) 0.0968(15) 0.5230(7)
H32_2 H 0.2788 0.1546 0.5485
O17_2 O 0.0869(3) 0.2963(6) 0.5615(4)
O22_2 O 0.3464(3) 0.1029(7) 0.9746(4)
N7_2 N 0.0087(3) 0.2239(8) 0.5477(5)
C58_2 C 0.3576(5) 0.0174(11) 0.9728(7)
H50_2 H 0.0119 0.0844 0.5392
C79_2 C 0.2326(6) 0.0564(15) 0.9920(9)
H61_2 H 0.2173 0.1094 0.9957
C80_2 C 0.2365(6) 0.0617(13) 0.9415(7)
H62_2 H 0.2262 0.1196 0.9161
O11_2 O 0.6019(4) 0.4268(7) 0.1455(5)
O12_2 O 0.5738(4) 0.3561(8) 0.1883(6)
O13_2 O 0.6833(2) 0.4829(6) 0.2938(3)
O14_2 O 0.7013(3) 0.6425(6) 0.3042(4)
O15_2 O 0.5659(3) 0.8700(7) 0.2587(4)
O18_2 O 0.5869(3) 0.2037(6) 0.0615(4)
O21_2 O 0.8286(3) 0.5410(6) 0.4223(4)
O23_2 O 0.5638(3) 0.1177(6) 0.1556(4)
H33_2 H 0.5750 0.1050 0.1948
H34_2 H 0.5685 0.0935 0.1304
N6_2 N 0.6579(3) 0.2306(7) 0.2069(4)
C42_2 C 0.5764(4) 0.5283(9) 0.1912(6)
C43_2 C 0.6137(5) 0.5930(10) 0.2333(6)
C44_2 C 0.6012(4) 0.6946(11) 0.2379(5)
H35_2 H 0.6270 0.7400 0.2670
C45_2 C 0.5496(4) 0.7239(9) 0.1980(5)
C46_2 C 0.5134(4) 0.6509(12) 0.1570(6)
H36_2 H 0.4791 0.6653 0.1317
C47_2 C 0.5279(5) 0.5578(11) 0.1537(6)
H37_2 H 0.5025 0.5122 0.1236
C48_2 C 0.5846(5) 0.4287(10) 0.1733(7)
C49_2 C 0.6703(4) 0.5737(11) 0.2810(5)
C50_2 C 0.5386(5) 0.8266(11) 0.2032(6)
C51_2 C 0.4940(4) 0.8805(9) 0.1452(5)
C52_2 C 0.4772(4) 0.8612(9) 0.0814(6)
H38_2 H 0.4940 0.8143 0.0759
C53_2 C 0.4340(5) 0.9140(10) 0.0242(5)
C54_2 C 0.4072(4) 0.9763(8) 0.0316(5)
C56_2 C 0.4683(5) 0.9525(10) 0.1506(6)
H40_2 H 0.4803 0.9690 0.1931
C71_2 C 0.3072(5) 0.9603(8) 0.3035(6)
H53_2 H 0.3366 0.9724 0.3476
C72_2 C 0.3126(5) 0.9413(9) 0.2579(6)
H54_2 H 0.3445 0.9368 0.2705
C73_2 C 0.2682(5) 0.9291(9) 0.1916(6)
C74_2 C 0.2240(5) 0.9280(9) 0.1769(6)
H55_2 H 0.1941 0.9153 0.1333
C75_2 C 0.2228(4) 0.9450(8) 0.2251(5)
H56_2 H 0.1912 0.9448 0.2135
C76_2 C 0.2728(5) 0.9117(11) 0.1390(7)
H57_2 H 0.2574 0.8483 0.1170
H58_2 H 0.3085 0.9091 0.1606
C77_2 C 0.2477(6) 0.9918(13) 0.0890(8)
H59_2 H 0.2124 0.9950 0.0688
C78_2 C 0.2497(7) 0.9795(16) 0.0344(9)
C82_2 C 0.2683(7) 0.9032(15) 0.0230(7)
H64_2 H 0.2788 0.8454 0.0485
O4_2 O 0.2013(3) 0.8575(6) 0.8042(4)
O5_2 O 0.0659(3) 0.6300(7) 0.7587(4)
C1_2 C 0.0764(4) 0.9717(9) 0.6912(6)
C2_2 C 0.1137(5) 0.9070(10) 0.7333(6)
C3_2 C 0.1012(4) 0.8054(11) 0.7379(5)
H3_2 H 0.1270 0.7600 0.7670
C4_2 C 0.0496(4) 0.7761(9) 0.6980(5)
C5_2 C 0.0134(4) 0.8491(12) 0.6570(6)
C6_2 C 0.0279(5) 0.9422(11) 0.6537(6)
H5_2 H 0.0025 0.9878 0.6236
C8_2 C 0.1703(4) 0.9263(11) 0.7810(5)
C9_2 C 0.0386(5) 0.6734(11) 0.7032(6)
H28_2 H 0.2635 0.9453 0.6117
C38_2 C 0.2326(6) 0.9436(15) 0.4920(9)
H29_2 H 0.2173 0.8906 0.4957
C39_2 C 0.2365(6) 0.9383(13) 0.4415(7)
H30_2 H 0.2262 0.8804 0.4161
Cu10_2 Cu 0.41739(5) 0.74618(11) 0.87294(7)
O16_2 O 0.4131(3) 0.7963(6) 0.9385(4)
O19_2 O 0.4212(3) 0.9601(7) 0.9290(4)
O20_2 O 0.3286(3) 0.9590(6) 0.9223(4)
N11_2 N 0.2538(4) 0.9884(9) 0.9300(4)
C57_2 C 0.4207(4) 0.8810(15) 0.9567(6)
C81_2 C 0.2726(6) 0.9095(12) 0.9705(8)
H63_2 H 0.2882 0.8584 0.9660
C59_2 C 0.6754(4) 0.2417(8) 0.2680(5)
H41_2 H 0.6531 0.2583 0.2746
C60_2 C 0.7268(4) 0.2292(8) 0.3234(5)
H42_2 H 0.7387 0.2355 0.3667
C61_2 C 0.7593(4) 0.2077(8) 0.3134(6)
C62_2 C 0.7414(4) 0.1987(8) 0.2524(5)
H43_2 H 0.7633 0.1871 0.2443
C63_2 C 0.6915(5) 0.2062(8) 0.2013(6)
H44_2 H 0.6795 0.1931 0.1584
C64_2 C 0.8171(4) 0.1991(9) 0.3784(5)
H45_2 H 0.8218 0.1418 0.4043
H46_2 H 0.8271 0.2581 0.4058
C65_2 C 0.8524(4) 0.1879(10) 0.3614(6)
H47_2 H 0.8439 0.2376 0.3287
H48_2 H 0.8485 0.1223 0.3430
C66_2 C 0.9079(4) 0.2030(11) 0.4282(6)
C67_2 C 0.9398(5) 0.1195(10) 0.4615(6)
H49_2 H 0.9281 0.0549 0.4459
C68_2 C 0.9899(4) 0.1387(11) 0.5192(6)
C69_2 C 0.9760(5) 0.2989(10) 0.5146(6)
H51_2 H 0.9877 0.3617 0.5340
C70_2 C 0.9278(4) 0.2933(9) 0.4557(6)
H52_2 H 0.9085 0.3508 0.4345
O6_2 O 0.9131(3) 0.7037(6) 0.4385(4)
O7_2 O 0.9212(3) 0.5399(7) 0.4290(4)
O9_2 O 0.8464(3) 0.3971(7) 0.4746(4)
H4_2 H 0.9791 0.8347 0.6317
C10_2 C 0.9940(4) 0.6195(9) 0.6452(5)
C11_2 C 0.9772(4) 0.6388(9) 0.5814(6)
H6_2 H 0.9940 0.6857 0.5759
C12_2 C 0.9340(5) 0.5860(10) 0.5242(5)
C13_2 C 0.9072(4) 0.5237(8) 0.5316(5)
C14_2 C 0.9260(4) 0.4999(10) 0.5961(5)
H7_2 H 0.9098 0.4519 0.6017
C15_2 C 0.9683(5) 0.5475(10) 0.6506(6)
H8_2 H 0.9803 0.5310 0.6931
C16_2 C 0.9207(4) 0.6190(15) 0.4567(6)
C17_2 C 0.8576(5) 0.4826(11) 0.4728(7)
Cu8_2 Cu 0.91739(5) 0.75382(11) 0.37294(7)
O7_3 O 0.5788(3) 0.0399(7) 0.0710(4)
O8 O 0.6714(3) 0.0410(6) 0.0777(4)
N4_2 N 0.2462(4) 0.5116(9) 0.0700(4)
C16_3 C 0.5793(4) 0.1190(15) 0.0433(6)
C38_3 C 0.2674(6) 0.4436(15) 0.0080(9)
H29_3 H 0.2827 0.3906 0.0043
C39_3 C 0.2635(6) 0.4383(13) 0.0585(7)
H30_3 H 0.2738 0.3804 0.0839
C40_3 C 0.2274(6) 0.5905(12) 0.0295(8)
H31_3 H 0.2118 0.6416 0.0340
Cu5 Cu 0.24190(5) 0.49852(11) 0.14134(6)
N5 N 0.8421(3) 0.7306(7) 0.2931(4)
C59_3 C 0.8246(4) 0.7417(8) 0.2320(5)
H41_3 H 0.8469 0.7583 0.2254
C60_3 C 0.7732(4) 0.7292(8) 0.1766(5)
H42_3 H 0.7613 0.7355 0.1333
C61_3 C 0.7407(4) 0.7077(8) 0.1866(6)
C62_3 C 0.7586(4) 0.6987(8) 0.2476(5)
H43_3 H 0.7367 0.6871 0.2557
C63_3 C 0.8085(5) 0.7062(8) 0.2987(6)
H44_3 H 0.8205 0.6931 0.3416
C64_3 C 0.6829(4) 0.6991(9) 0.1216(5)
H45_3 H 0.6782 0.6418 0.0957
H46_3 H 0.6729 0.7581 0.0942
C65_3 C 0.6476(4) 0.6879(10) 0.1386(6)
H47_3 H 0.6561 0.7376 0.1713
H48_3 H 0.6515 0.6223 0.1570
C66_3 C 0.5921(4) 0.7030(11) 0.0718(6)
C67_3 C 0.5602(5) 0.6195(10) 0.0385(6)
H49_3 H 0.5719 0.5549 0.0541
C70_3 C 0.5722(4) 0.7933(9) 0.0443(6)
H52_3 H 0.5915 0.8508 0.0655
Cu1_3 Cu 0.24190(5) 0.50148(11) 0.64134(6)
O1_3 O 0.3981(4) 0.5732(7) 0.8545(5)
O2_3 O 0.4262(4) 0.6439(8) 0.8117(6)
O3_3 O 0.3167(2) 0.5171(6) 0.7062(3)
O4_3 O 0.2987(3) 0.3575(6) 0.6958(4)
O5_3 O 0.4341(3) 0.1300(7) 0.7413(4)
O10_3 O 0.4362(3) 0.8823(6) 0.8444(4)
H1_3 H 0.4250 0.8950 0.8052
H2_3 H 0.4315 0.9065 0.8696
N1_3 N 0.3421(3) 0.7694(7) 0.7931(4)
N3_3 N 0.2358(3) 0.5371(6) 0.7097(4)
C1_3 C 0.4236(4) 0.4717(9) 0.8088(6)
C2_3 C 0.3863(5) 0.4070(10) 0.7667(6)
C3_3 C 0.3988(4) 0.3054(11) 0.7621(5)
H3_3 H 0.3730 0.2600 0.7330
C4_3 C 0.4504(4) 0.2761(9) 0.8020(5)
C5_3 C 0.4866(4) 0.3491(12) 0.8430(6)
H4_3 H 0.5209 0.3347 0.8683
C6_3 C 0.4721(5) 0.4422(11) 0.8463(6)
H5_3 H 0.4975 0.4878 0.8764
C7_3 C 0.4154(5) 0.5713(10) 0.8267(7)
C8_3 C 0.3297(4) 0.4263(11) 0.7190(5)
C9_3 C 0.4614(5) 0.1734(11) 0.7968(6)
C10_3 C 0.5060(4) 0.1195(9) 0.8548(5)
C11_3 C 0.5228(4) 0.1388(9) 0.9186(6)
H6_3 H 0.5060 0.1857 0.9241
C12_3 C 0.5660(5) 0.0860(10) 0.9758(5)
C13_3 C 0.5928(4) 0.0237(8) 0.9684(5)
C15_3 C 0.5317(5) 0.0475(10) 0.8494(6)
H8_3 H 0.5197 0.0310 0.8069
C18_3 C 0.3246(4) 0.7583(8) 0.7320(5)
H9_3 H 0.3469 0.7417 0.7254
C19_3 C 0.2732(4) 0.7708(8) 0.6766(5)
H10_3 H 0.2613 0.7645 0.6333
C20_3 C 0.2407(4) 0.7923(8) 0.6866(6)
C21_3 C 0.2586(4) 0.8013(8) 0.7476(5)
H11_3 H 0.2367 0.8129 0.7557
C22_3 C 0.3085(5) 0.7938(8) 0.7987(6)
H12_3 H 0.3205 0.8069 0.8416
C23_3 C 0.1829(4) 0.8009(9) 0.6216(5)
H13_3 H 0.1782 0.8582 0.5957
H14_3 H 0.1729 0.7419 0.5942
C24_3 C 0.1476(4) 0.8121(10) 0.6386(6)
H15_3 H 0.1561 0.7624 0.6713
H16_3 H 0.1515 0.8777 0.6570
C25_3 C 0.0921(4) 0.7970(11) 0.5718(6)
C26_3 C 0.0602(5) 0.8805(10) 0.5385(6)
H17_3 H 0.0719 0.9451 0.5541
C27_3 C 0.0101(4) 0.8613(11) 0.4808(6)
C28_3 C 0.0240(5) 0.7011(10) 0.4854(6)
H19_3 H 0.0123 0.6383 0.4660
C29_3 C 0.0722(4) 0.7067(9) 0.5443(6)
H20_3 H 0.0915 0.6492 0.5655
C30_3 C 0.1928(5) 0.5397(8) 0.6965(6)
H21_3 H 0.1634 0.5276 0.6524
C31_3 C 0.1874(5) 0.5587(9) 0.7421(6)
H22_3 H 0.1555 0.5632 0.7295
C32_3 C 0.2318(5) 0.5709(9) 0.8084(6)
C33_3 C 0.2760(5) 0.5720(9) 0.8231(6)
H23_3 H 0.3059 0.5847 0.8667
C34_3 C 0.2772(4) 0.5550(8) 0.7749(5)
H24_3 H 0.3088 0.5552 0.7865
C35_3 C 0.2272(5) 0.5883(11) 0.8610(7)
H25_3 H 0.2426 0.6517 0.8830
H26_3 H 0.1915 0.5909 0.8394
C36_3 C 0.2523(6) 0.5082(13) 0.9110(8)
H27_3 H 0.2876 0.5050 0.9312
H28_3 H 0.2365 0.4453 0.8883
C37_3 C 0.2503(7) 0.5205(16) 0.9656(9)
C41_3 C 0.2317(7) 0.5968(15) 0.9770(7)
H32_3 H 0.2212 0.6546 0.9515
O19_3 O 0.0788(3) 0.4601(7) 0.5710(4)
O20_3 O 0.1714(3) 0.4590(6) 0.5777(4)
O22_3 O 0.1536(3) 0.6029(7) 0.5254(4)
N7_3 N 0.4913(3) 0.7239(8) 0.9523(5)
N9_2 N 0.2358(3) 0.4629(6) 0.2097(4)
N11_3 N 0.2462(4) 0.4884(9) 0.5700(4)
H36_3 H 0.0209 0.1653 0.3683
C51_3 C 0.0060(4) 0.3805(9) 0.3548(5)
C52_3 C 0.0228(4) 0.3612(9) 0.4186(6)
H38_3 H 0.0060 0.3143 0.4241
C53_3 C 0.0660(5) 0.4140(10) 0.4758(5)
C54_3 C 0.0928(4) 0.4763(8) 0.4684(5)
C55_3 C 0.0740(4) 0.5001(10) 0.4039(5)
H39_3 H 0.0902 0.5481 0.3983
C56_3 C 0.0317(5) 0.4525(10) 0.3494(6)
H40_3 H 0.0197 0.4690 0.3069
C57_3 C 0.0793(4) 0.3810(15) 0.5433(6)
C58_3 C 0.1424(5) 0.5174(11) 0.5272(7)
C68_3 C 0.5101(4) 0.6387(11) 0.9808(6)
H50_3 H 0.4881 0.5844 0.9608
C69_3 C 0.5240(5) 0.7989(10) 0.9854(6)
H51_3 H 0.5123 0.8617 0.9660
C71_3 C 0.1928(5) 0.4603(8) 0.1965(6)
H53_3 H 0.1634 0.4724 0.1524
C72_3 C 0.1874(5) 0.4413(9) 0.2421(6)
H54_3 H 0.1555 0.4368 0.2295
C73_3 C 0.2318(5) 0.4291(9) 0.3084(6)
C74_3 C 0.2760(5) 0.4280(9) 0.3231(6)
H55_3 H 0.3059 0.4153 0.3667
C75_3 C 0.2772(4) 0.4450(8) 0.2749(5)
H56_3 H 0.3088 0.4448 0.2865
C76_3 C 0.2272(5) 0.4117(11) 0.3610(7)
H57_3 H 0.2426 0.3483 0.3830
H58_3 H 0.1915 0.4091 0.3394
C77_3 C 0.2523(6) 0.4918(13) 0.4110(8)
H59_3 H 0.2876 0.4950 0.4312
H60_3 H 0.2365 0.5547 0.3883
C78_3 C 0.2503(7) 0.4795(16) 0.4656(9)
C79_3 C 0.2674(6) 0.5564(15) 0.5080(9)
H61_3 H 0.2827 0.6094 0.5043
C80_3 C 0.2635(6) 0.5617(13) 0.5585(7)
H62_3 H 0.2738 0.6196 0.5839
C81_3 C 0.2274(6) 0.4095(12) 0.5295(8)
H63_3 H 0.2118 0.3584 0.5340
C82_3 C 0.2317(7) 0.4032(15) 0.4770(7)
H64_3 H 0.2212 0.3454 0.4515
O9_3 O 0.6536(3) 0.8971(7) 0.0254(4)
C17_3 C 0.6424(5) 0.9826(11) 0.0272(7)
Cu4 Cu 0.74190(5) 0.99852(11) 0.14134(6)
C14_3 C 0.5740(4) 0.9999(10) 0.9039(5)
H7_3 H 0.5902 0.9519 0.8983
N2_3 N 0.9913(3) 0.7761(8) 0.4523(5)
H18_3 H 0.9881 0.9156 0.4608
O14_3 O 0.7987(3) 0.1425(6) 0.1958(4)
O15_3 O 0.9341(3) 0.3700(7) 0.2413(4)
N12_2 N 0.7462(4) 0.0116(9) 0.0700(4)
C42_3 C 0.9236(4) 0.0283(9) 0.3088(6)
C43_3 C 0.8863(5) 0.0930(10) 0.2667(6)
C44_3 C 0.8988(4) 0.1946(11) 0.2621(5)
H35_3 H 0.8730 0.2400 0.2330
C45_3 C 0.9504(4) 0.2239(9) 0.3020(5)
C46_3 C 0.9866(4) 0.1509(12) 0.3430(6)
C47_3 C 0.9721(5) 0.0578(11) 0.3463(6)
H37_3 H 0.9975 0.0122 0.3764
C49_3 C 0.8297(4) 0.0737(11) 0.2190(5)
C50_3 C 0.9614(5) 0.3266(11) 0.2968(6)
O11_3 O 0.8981(4) 0.9268(7) 0.3545(5)
O12_3 O 0.9262(4) 0.8561(8) 0.3117(6)
O13_3 O 0.8167(2) 0.9829(6) 0.2062(3)
O23_3 O 0.9362(3) 0.6177(6) 0.3444(4)
H33_3 H 0.9250 0.6050 0.3052
H34_3 H 0.9315 0.5935 0.3696
N10_2 N 0.7358(3) 0.9629(6) 0.2097(4)
C48_3 C 0.9154(5) 0.9287(10) 0.3267(7)
N5_2 N 0.3421(3) 0.2306(7) 0.2931(4)
C59_4 C 0.3246(4) 0.2417(8) 0.2320(5)
H41_4 H 0.3469 0.2583 0.2254
C60_4 C 0.2732(4) 0.2292(8) 0.1766(5)
H42_4 H 0.2613 0.2355 0.1333
C61_4 C 0.2407(4) 0.2077(8) 0.1866(6)
C62_4 C 0.2586(4) 0.1987(8) 0.2476(5)
H43_4 H 0.2367 0.1871 0.2557
C63_4 C 0.3085(5) 0.2062(8) 0.2987(6)
H44_4 H 0.3205 0.1931 0.3416
C64_4 C 0.1829(4) 0.1991(9) 0.1216(5)
H45_4 H 0.1782 0.1418 0.0957
H46_4 H 0.1729 0.2581 0.0942
C65_4 C 0.1476(4) 0.1879(10) 0.1386(6)
H47_4 H 0.1561 0.2376 0.1713
H48_4 H 0.1515 0.1223 0.1570
C66_4 C 0.0921(4) 0.2030(11) 0.0718(6)
C67_4 C 0.0602(5) 0.1195(10) 0.0385(6)
H49_4 H 0.0719 0.0549 0.0541
C70_4 C 0.0722(4) 0.2933(9) 0.0443(6)
H52_4 H 0.0915 0.3508 0.0655
C68_4 C 0.0101(4) 0.1387(11) 0.9808(6)
C69_4 C 0.0240(5) 0.2989(10) 0.9854(6)
H51_4 H 0.0123 0.3617 0.9660
O7_4 O 0.0788(3) 0.5399(7) 0.0710(4)
O8_2 O 0.1714(3) 0.5410(6) 0.0777(4)
O9_4 O 0.1536(3) 0.3971(7) 0.0254(4)
C16_4 C 0.0793(4) 0.6190(15) 0.0433(6)
C17_4 C 0.1424(5) 0.4826(11) 0.0272(7)
H4_4 H 0.0209 0.8347 0.8683
C10_4 C 0.0060(4) 0.6195(9) 0.8548(5)
C11_4 C 0.0228(4) 0.6388(9) 0.9186(6)
H6_4 H 0.0060 0.6857 0.9241
C12_4 C 0.0660(5) 0.5860(10) 0.9758(5)
C13_4 C 0.0928(4) 0.5237(8) 0.9684(5)
C14_4 C 0.0740(4) 0.4999(10) 0.9039(5)
H7_4 H 0.0902 0.4519 0.8983
C15_4 C 0.0317(5) 0.5475(10) 0.8494(6)
H8_4 H 0.0197 0.5310 0.8069
C40_4 C 0.7274(6) 0.0905(12) 0.0295(8)
H31_4 H 0.7118 0.1416 0.0340
Cu1_4 Cu 0.74190(5) 0.00148(11) 0.64134(6)
O1_4 O 0.8981(4) 0.0732(7) 0.8545(5)
O2_4 O 0.9262(4) 0.1439(8) 0.8117(6)
O3_4 O 0.8167(2) 0.0171(6) 0.7062(3)
O10_4 O 0.9362(3) 0.3823(6) 0.8444(4)
H1_4 H 0.9250 0.3950 0.8052
H2_4 H 0.9315 0.4065 0.8696
N1_4 N 0.8421(3) 0.2694(7) 0.7931(4)
N2_4 N 0.4913(3) 0.2761(8) 0.4523(5)
N3_4 N 0.7358(3) 0.0371(6) 0.7097(4)
C7_4 C 0.9154(5) 0.0713(10) 0.8267(7)
C18_4 C 0.8246(4) 0.2583(8) 0.7320(5)
H9_4 H 0.8469 0.2417 0.7254
C19_4 C 0.7732(4) 0.2708(8) 0.6766(5)
H10_4 H 0.7613 0.2645 0.6333
C20_4 C 0.7407(4) 0.2923(8) 0.6866(6)
C21_4 C 0.7586(4) 0.3013(8) 0.7476(5)
H11_4 H 0.7367 0.3129 0.7557
C22_4 C 0.8085(5) 0.2938(8) 0.7987(6)
H12_4 H 0.8205 0.3069 0.8416
C23_4 C 0.6829(4) 0.3009(9) 0.6216(5)
H13_4 H 0.6782 0.3582 0.5957
H14_4 H 0.6729 0.2419 0.5942
C24_4 C 0.6476(4) 0.3121(10) 0.6386(6)
H15_4 H 0.6561 0.2624 0.6713
H16_4 H 0.6515 0.3777 0.6570
C25_4 C 0.5921(4) 0.2970(11) 0.5718(6)
C26_4 C 0.5602(5) 0.3805(10) 0.5385(6)
H17_4 H 0.5719 0.4451 0.5541
C27_4 C 0.5101(4) 0.3613(11) 0.4808(6)
H18_4 H 0.4881 0.4156 0.4608
C28_4 C 0.5240(5) 0.2011(10) 0.4854(6)
H19_4 H 0.5123 0.1383 0.4660
C29_4 C 0.5722(4) 0.2067(9) 0.5443(6)
H20_4 H 0.5915 0.1492 0.5655
C30_4 C 0.6928(5) 0.0397(8) 0.6965(6)
H21_4 H 0.6634 0.0276 0.6524
C31_4 C 0.6874(5) 0.0587(9) 0.7421(6)
H22_4 H 0.6555 0.0632 0.7295
C32_4 C 0.7318(5) 0.0709(9) 0.8084(6)
C33_4 C 0.7760(5) 0.0720(9) 0.8231(6)
H23_4 H 0.8059 0.0847 0.8667
C34_4 C 0.7772(4) 0.0550(8) 0.7749(5)
H24_4 H 0.8088 0.0552 0.7865
C35_4 C 0.7272(5) 0.0883(11) 0.8610(7)
H25_4 H 0.7426 0.1517 0.8830
H26_4 H 0.6915 0.0909 0.8394
C36_4 C 0.7523(6) 0.0082(13) 0.9110(8)
H27_4 H 0.7876 0.0050 0.9312
C37_4 C 0.7503(7) 0.0205(16) 0.9656(9)
C41_4 C 0.7317(7) 0.0968(15) 0.9770(7)
H32_4 H 0.7212 0.1546 0.9515
O22_4 O 0.6536(3) 0.1029(7) 0.5254(4)
N7_4 N 0.9913(3) 0.2239(8) 0.9523(5)
C55_4 C 0.5740(4) 0.0001(10) 0.4039(5)
H39_4 H 0.5902 0.0481 0.3983
C58_4 C 0.6424(5) 0.0174(11) 0.5272(7)
H50_4 H 0.9881 0.0844 0.9608
H60_4 H 0.7365 0.0547 0.3883
C79_4 C 0.7674(6) 0.0564(15) 0.5080(9)
H61_4 H 0.7827 0.1094 0.5043
C80_4 C 0.7635(6) 0.0617(13) 0.5585(7)
H62_4 H 0.7738 0.1196 0.5839
C38_4 C 0.7674(6) 0.9436(15) 0.0080(9)
H29_4 H 0.7827 0.8906 0.0043
C39_4 C 0.7635(6) 0.9383(13) 0.0585(7)
H30_4 H 0.7738 0.8804 0.0839
O4_4 O 0.7987(3) 0.8575(6) 0.6958(4)
O5_4 O 0.9341(3) 0.6300(7) 0.7413(4)
C1_4 C 0.9236(4) 0.9717(9) 0.8088(6)
C2_4 C 0.8863(5) 0.9070(10) 0.7667(6)
C3_4 C 0.8988(4) 0.8054(11) 0.7621(5)
H3_4 H 0.8730 0.7600 0.7330
C4_4 C 0.9504(4) 0.7761(9) 0.8020(5)
C5_4 C 0.9866(4) 0.8491(12) 0.8430(6)
C6_4 C 0.9721(5) 0.9422(11) 0.8463(6)
H5_4 H 0.9975 0.9878 0.8764
C8_4 C 0.8297(4) 0.9263(11) 0.7190(5)
C9_4 C 0.9614(5) 0.6734(11) 0.7968(6)
H28_4 H 0.7365 0.9453 0.8883
O11_4 O 0.3981(4) 0.4268(7) 0.3545(5)
O12_4 O 0.4262(4) 0.3561(8) 0.3117(6)
O13_4 O 0.3167(2) 0.4829(6) 0.2062(3)
O14_4 O 0.2987(3) 0.6425(6) 0.1958(4)
O15_4 O 0.4341(3) 0.8700(7) 0.2413(4)
O19_4 O 0.5788(3) 0.9601(7) 0.5710(4)
O20_4 O 0.6714(3) 0.9590(6) 0.5777(4)
O23_4 O 0.4362(3) 0.1177(6) 0.3444(4)
H33_4 H 0.4250 0.1050 0.3052
H34_4 H 0.4315 0.0935 0.3696
N11_4 N 0.7462(4) 0.9884(9) 0.5700(4)
C42_4 C 0.4236(4) 0.5283(9) 0.3088(6)
C43_4 C 0.3863(5) 0.5930(10) 0.2667(6)
C44_4 C 0.3988(4) 0.6946(11) 0.2621(5)
H35_4 H 0.3730 0.7400 0.2330
C45_4 C 0.4504(4) 0.7239(9) 0.3020(5)
C46_4 C 0.4866(4) 0.6509(12) 0.3430(6)
H36_4 H 0.5209 0.6653 0.3683
C47_4 C 0.4721(5) 0.5578(11) 0.3463(6)
H37_4 H 0.4975 0.5122 0.3764
C48_4 C 0.4154(5) 0.4287(10) 0.3267(7)
C49_4 C 0.3297(4) 0.5737(11) 0.2190(5)
C50_4 C 0.4614(5) 0.8266(11) 0.2968(6)
C51_4 C 0.5060(4) 0.8805(9) 0.3548(5)
C52_4 C 0.5228(4) 0.8612(9) 0.4186(6)
H38_4 H 0.5060 0.8143 0.4241
C53_4 C 0.5660(5) 0.9140(10) 0.4758(5)
C54_4 C 0.5928(4) 0.9763(8) 0.4684(5)
C56_4 C 0.5317(5) 0.9525(10) 0.3494(6)
H40_4 H 0.5197 0.9690 0.3069
C57_4 C 0.5793(4) 0.8810(15) 0.5433(6)
C71_4 C 0.6928(5) 0.9603(8) 0.1965(6)
H53_4 H 0.6634 0.9724 0.1524
C72_4 C 0.6874(5) 0.9413(9) 0.2421(6)
H54_4 H 0.6555 0.9368 0.2295
C73_4 C 0.7318(5) 0.9291(9) 0.3084(6)
C74_4 C 0.7760(5) 0.9280(9) 0.3231(6)
H55_4 H 0.8059 0.9153 0.3667
C75_4 C 0.7772(4) 0.9450(8) 0.2749(5)
H56_4 H 0.8088 0.9448 0.2865
C76_4 C 0.7272(5) 0.9117(11) 0.3610(7)
H57_4 H 0.7426 0.8483 0.3830
H58_4 H 0.6915 0.9091 0.3394
C77_4 C 0.7523(6) 0.9918(13) 0.4110(8)
H59_4 H 0.7876 0.9950 0.4312
C78_4 C 0.7503(7) 0.9795(16) 0.4656(9)
C81_4 C 0.7274(6) 0.9095(12) 0.5295(8)
H63_4 H 0.7118 0.8584 0.5340
C82_4 C 0.7317(7) 0.9032(15) 0.4770(7)
H64_4 H 0.7212 0.8454 0.4515
loop_
_geom_bond_atom_site_label_1
_geom_bond_atom_site_label_2
_geom_bond_site_symmetry_1
_geom_bond_site_symmetry_2
Cu9 N2 1_555 1_555
O15 C50 1_555 1_555
C42 C43 1_555 1_555
C43 C44 1_555 1_555
C44 H35 1_555 1_555
C45 C44 1_555 1_555
C46 C45 1_555 1_555
C47 C42 1_555 1_555
H37 C47 1_555 1_555
C49 O14 1_555 1_555
C50 C45 1_555 1_555
C43 C49 1_555 1_555
C46 C47 1_555 1_555
Cu3 O13 1_555 1_555
Cu9 O11 1_555 1_555
O11 C48 1_555 1_555
O12 Cu9 1_555 1_555
O18 Cu9 1_555 1_555
O23 Cu9 1_555 1_555
H33 O23 1_555 1_555
H34 O23 1_555 1_555
N6 Cu9 1_555 1_555
N10 Cu3 1_555 1_555
C48 O12 1_555 1_555
H19 C28 1_555 1_555
Cu6 N9 1_555 1_555
N9 C71 1_555 1_555
C52 C51 1_555 1_555
H38 C52 1_555 1_555
C53 C52 1_555 1_555
C54 C53 1_555 1_555
C55 C54 1_555 1_555
H39 C55 1_555 1_555
C56 C51 1_555 1_555
H40 C56 1_555 1_555
C71 H53 1_555 1_555
C72 C71 1_555 1_555
H54 C72 1_555 1_555
C73 C72 1_555 1_555
C74 C73 1_555 1_555
H55 C74 1_555 1_555
C75 N9 1_555 1_555
H56 C75 1_555 1_555
C76 C73 1_555 1_555
H57 C76 1_555 1_555
H58 C76 1_555 1_555
C77 C76 1_555 1_555
H59 C77 1_555 1_555
H60 C77 1_555 1_555
C78 C77 1_555 1_555
C82 C78 1_555 1_555
H64 C82 1_555 1_555
C55 C56 1_555 1_555
C74 C75 1_555 1_555
Cu1 O3 1_555 1_555
Cu2 O1 1_555 1_555
O1 C7 1_555 1_555
O2 Cu2 1_555 1_555
O3 C8 1_555 1_555
O4 Cu1 1_555 1_555
O5 C9 1_555 1_555
O6 C16 1_555 1_555
O7 C16 1_555 1_555
O10 Cu2 1_555 1_555
H1 O10 1_555 1_555
H2 O10 1_555 1_555
N1 Cu2 1_555 1_555
N3 Cu1 1_555 1_555
N4 C39 1_555 1_555
C1 C2 1_555 1_555
C2 C3 1_555 1_555
C3 H3 1_555 1_555
C4 C3 1_555 1_555
C5 C4 1_555 1_555
H4 C5 1_555 1_555
C6 C1 1_555 1_555
H5 C6 1_555 1_555
C7 O2 1_555 1_555
C8 O4 1_555 1_555
C9 C4 1_555 1_555
C10 C9 1_555 1_555
C11 C10 1_555 1_555
H6 C11 1_555 1_555
C12 C11 1_555 1_555
C13 C12 1_555 1_555
C15 C10 1_555 1_555
H8 C15 1_555 1_555
C16 C12 1_555 1_555
C18 N1 1_555 1_555
H9 C18 1_555 1_555
C19 C18 1_555 1_555
H10 C19 1_555 1_555
C20 C19 1_555 1_555
C21 C20 1_555 1_555
H11 C21 1_555 1_555
C22 N1 1_555 1_555
H12 C22 1_555 1_555
C23 C20 1_555 1_555
H13 C23 1_555 1_555
H14 C23 1_555 1_555
C24 C23 1_555 1_555
H15 C24 1_555 1_555
H16 C24 1_555 1_555
C25 C24 1_555 1_555
C26 C25 1_555 1_555
H17 C26 1_555 1_555
C29 C25 1_555 1_555
H20 C29 1_555 1_555
C30 N3 1_555 1_555
H21 C30 1_555 1_555
C31 C30 1_555 1_555
H22 C31 1_555 1_555
C32 C31 1_555 1_555
C33 C32 1_555 1_555
H23 C33 1_555 1_555
C34 N3 1_555 1_555
H24 C34 1_555 1_555
C35 C32 1_555 1_555
H25 C35 1_555 1_555
H26 C35 1_555 1_555
C36 C35 1_555 1_555
H27 C36 1_555 1_555
H28 C36 1_555 1_555
C37 C36 1_555 1_555
C38 C37 1_555 1_555
H29 C38 1_555 1_555
C39 C38 1_555 1_555
H30 C39 1_555 1_555
C40 N4 1_555 1_555
H31 C40 1_555 1_555
C41 C37 1_555 1_555
H32 C41 1_555 1_555
Cu6 N4 1_555 1_555
Cu8 O6 1_555 1_555
Cu10 O16 1_555 1_555
O16 C57 1_555 1_555
O17 Cu2 1_555 1_555
O19 C57 1_555 1_555
O20 Cu1 1_555 1_555
O22 C58 1_555 1_555
N6 C59 1_555 1_555
N7 Cu2 1_555 1_555
N11 Cu1 1_555 1_555
C58 O20 1_555 1_555
C59 H41 1_555 1_555
C60 C59 1_555 1_555
H42 C60 1_555 1_555
C61 C60 1_555 1_555
C62 C61 1_555 1_555
H43 C62 1_555 1_555
C63 N6 1_555 1_555
H44 C63 1_555 1_555
C64 C61 1_555 1_555
H45 C64 1_555 1_555
H46 C64 1_555 1_555
C65 C64 1_555 1_555
H47 C65 1_555 1_555
H48 C65 1_555 1_555
C66 C65 1_555 1_555
C67 C66 1_555 1_555
H49 C67 1_555 1_555
C68 N7 1_555 1_555
H50 C68 1_555 1_555
C69 N7 1_555 1_555
H51 C69 1_555 1_555
C70 C66 1_555 1_555
H52 C70 1_555 1_555
H61 C79 1_555 1_555
C80 N11 1_555 1_555
H62 C80 1_555 1_555
C81 N11 1_555 1_555
H63 C81 1_555 1_555
C1 C7 1_555 1_555
C2 C8 1_555 1_555
C5 C6 1_555 1_555
C21 C22 1_555 1_555
C33 C34 1_555 1_555
C40 C41 1_555 1_555
C62 C63 1_555 1_555
C67 C68 1_555 1_555
C69 C70 1_555 1_555
C79 C80 1_555 1_555
O9 C17 1_555 1_555
H7 C14 1_555 1_555
N2_2 C27_2 1_555 1_555
H18_2 C27_2 1_555 1_555
C28_2 N2_2 1_555 1_555
H19_2 C28_2 1_555 1_555
Cu9_2 N2_2 1_555 1_555
H39_2 C55_2 1_555 1_555
Cu1_2 O3_2 1_555 1_555
Cu2_2 O1_2 1_555 1_555
O1_2 C7_2 1_555 1_555
O2_2 Cu2_2 1_555 1_555
O10_2 Cu2_2 1_555 1_555
H1_2 O10_2 1_555 1_555
H2_2 O10_2 1_555 1_555
N1_2 Cu2_2 1_555 1_555
N3_2 Cu1_2 1_555 1_555
C7_2 O2_2 1_555 1_555
C18_2 N1_2 1_555 1_555
H9_2 C18_2 1_555 1_555
C19_2 C18_2 1_555 1_555
H10_2 C19_2 1_555 1_555
C20_2 C19_2 1_555 1_555
C21_2 C20_2 1_555 1_555
H11_2 C21_2 1_555 1_555
C22_2 N1_2 1_555 1_555
H12_2 C22_2 1_555 1_555
C23_2 C20_2 1_555 1_555
H13_2 C23_2 1_555 1_555
H14_2 C23_2 1_555 1_555
C24_2 C23_2 1_555 1_555
H15_2 C24_2 1_555 1_555
H16_2 C24_2 1_555 1_555
C25_2 C24_2 1_555 1_555
C26_2 C25_2 1_555 1_555
H17_2 C26_2 1_555 1_555
C29_2 C25_2 1_555 1_555
H20_2 C29_2 1_555 1_555
C30_2 N3_2 1_555 1_555
H21_2 C30_2 1_555 1_555
C31_2 C30_2 1_555 1_555
H22_2 C31_2 1_555 1_555
C32_2 C31_2 1_555 1_555
C33_2 C32_2 1_555 1_555
H23_2 C33_2 1_555 1_555
C34_2 N3_2 1_555 1_555
H24_2 C34_2 1_555 1_555
C35_2 C32_2 1_555 1_555
H25_2 C35_2 1_555 1_555
H26_2 C35_2 1_555 1_555
C36_2 C35_2 1_555 1_555
H27_2 C36_2 1_555 1_555
C37_2 C36_2 1_555 1_555
C40_2 N12 1_555 1_555
H31_2 C40_2 1_555 1_555
C41_2 C37_2 1_555 1_555
H32_2 C41_2 1_555 1_555
O17_2 Cu2_2 1_555 1_555
O22_2 C58_2 1_555 1_555
N7_2 Cu2_2 1_555 1_555
H61_2 C79_2 1_555 1_555
H62_2 C80_2 1_555 1_555
C21_2 C22_2 1_555 1_555
C33_2 C34_2 1_555 1_555
C40_2 C41_2 1_555 1_555
C79_2 C80_2 1_555 1_555
Cu6 O13_2 1_555 1_555
Cu9_2 O11_2 1_555 1_555
O11_2 C48_2 1_555 1_555
O12_2 Cu9_2 1_555 1_555
O13_2 C49_2 1_555 1_555
O14_2 Cu6 1_555 1_555
O15_2 C50_2 1_555 1_555
O18_2 Cu9_2 1_555 1_555
O21_2 Cu6 1_555 1_555
O23_2 Cu9_2 1_555 1_555
H33_2 O23_2 1_555 1_555
H34_2 O23_2 1_555 1_555
N6_2 Cu9_2 1_555 1_555
N10 C71_2 1_555 1_555
C42_2 C43_2 1_555 1_555
C43_2 C44_2 1_555 1_555
C44_2 H35_2 1_555 1_555
C45_2 C44_2 1_555 1_555
C46_2 C45_2 1_555 1_555
H36_2 C46_2 1_555 1_555
C47_2 C42_2 1_555 1_555
H37_2 C47_2 1_555 1_555
C48_2 O12_2 1_555 1_555
C49_2 O14_2 1_555 1_555
C50_2 C45_2 1_555 1_555
C51_2 C50_2 1_555 1_555
C52_2 C51_2 1_555 1_555
H38_2 C52_2 1_555 1_555
C53_2 C52_2 1_555 1_555
C54_2 C53_2 1_555 1_555
C56_2 C51_2 1_555 1_555
H40_2 C56_2 1_555 1_555
C71_2 H53_2 1_555 1_555
C72_2 C71_2 1_555 1_555
H54_2 C72_2 1_555 1_555
C73_2 C72_2 1_555 1_555
C74_2 C73_2 1_555 1_555
H55_2 C74_2 1_555 1_555
C75_2 N10 1_555 1_555
H56_2 C75_2 1_555 1_555
C76_2 C73_2 1_555 1_555
H57_2 C76_2 1_555 1_555
H58_2 C76_2 1_555 1_555
C77_2 C76_2 1_555 1_555
H59_2 C77_2 1_555 1_555
C78_2 C77_2 1_555 1_555
C82_2 C78_2 1_555 1_555
H64_2 C82_2 1_555 1_555
C42_2 C48_2 1_555 1_555
C43_2 C49_2 1_555 1_555
C46_2 C47_2 1_555 1_555
C74_2 C75_2 1_555 1_555
O5_2 C9_2 1_555 1_555
C1_2 C2_2 1_555 1_555
C2_2 C3_2 1_555 1_555
C3_2 H3_2 1_555 1_555
C4_2 C3_2 1_555 1_555
C5_2 C4_2 1_555 1_555
C6_2 C1_2 1_555 1_555
H5_2 C6_2 1_555 1_555
C8_2 O4_2 1_555 1_555
C9_2 C4_2 1_555 1_555
H29_2 C38_2 1_555 1_555
C39_2 C38_2 1_555 1_555
H30_2 C39_2 1_555 1_555
Cu10_2 O16_2 1_555 1_555
O16_2 C57_2 1_555 1_555
O19_2 C57_2 1_555 1_555
C81_2 N11_2 1_555 1_555
H63_2 C81_2 1_555 1_555
C2_2 C8_2 1_555 1_555
C5_2 C6_2 1_555 1_555
N6_2 C59_2 1_555 1_555
C59_2 H41_2 1_555 1_555
C60_2 C59_2 1_555 1_555
H42_2 C60_2 1_555 1_555
C61_2 C60_2 1_555 1_555
C62_2 C61_2 1_555 1_555
H43_2 C62_2 1_555 1_555
C63_2 N6_2 1_555 1_555
H44_2 C63_2 1_555 1_555
C64_2 C61_2 1_555 1_555
H45_2 C64_2 1_555 1_555
H46_2 C64_2 1_555 1_555
C65_2 C64_2 1_555 1_555
H47_2 C65_2 1_555 1_555
H48_2 C65_2 1_555 1_555
C66_2 C65_2 1_555 1_555
C67_2 C66_2 1_555 1_555
H49_2 C67_2 1_555 1_555
H51_2 C69_2 1_555 1_555
C70_2 C66_2 1_555 1_555
H52_2 C70_2 1_555 1_555
C62_2 C63_2 1_555 1_555
C67_2 C68_2 1_555 1_555
C69_2 C70_2 1_555 1_555
O6_2 C16_2 1_555 1_555
O7_2 C16_2 1_555 1_555
O21_2 C17_2 1_555 1_555
O9_2 C17_2 1_555 1_555
C11_2 C10_2 1_555 1_555
H6_2 C11_2 1_555 1_555
C12_2 C11_2 1_555 1_555
C13_2 C12_2 1_555 1_555
C14_2 C13_2 1_555 1_555
H7_2 C14_2 1_555 1_555
C15_2 C10_2 1_555 1_555
H8_2 C15_2 1_555 1_555
C16_2 C12_2 1_555 1_555
C17_2 C13_2 1_555 1_555
Cu8_2 O6_2 1_555 1_555
C14_2 C15_2 1_555 1_555
O18_2 C16_3 1_555 1_555
O7_3 C16_3 1_555 1_555
N4_2 C39_3 1_555 1_555
H29_3 C38_3 1_555 1_555
C39_3 C38_3 1_555 1_555
H30_3 C39_3 1_555 1_555
C40_3 N4_2 1_555 1_555
H31_3 C40_3 1_555 1_555
Cu5 N4_2 1_555 1_555
Cu8_2 N5 1_555 1_555
N5 C59_3 1_555 1_555
C59_3 H41_3 1_555 1_555
C60_3 C59_3 1_555 1_555
H42_3 C60_3 1_555 1_555
C61_3 C60_3 1_555 1_555
C62_3 C61_3 1_555 1_555
H43_3 C62_3 1_555 1_555
C63_3 N5 1_555 1_555
H44_3 C63_3 1_555 1_555
C64_3 C61_3 1_555 1_555
H45_3 C64_3 1_555 1_555
H46_3 C64_3 1_555 1_555
C65_3 C64_3 1_555 1_555
H47_3 C65_3 1_555 1_555
H48_3 C65_3 1_555 1_555
C66_3 C65_3 1_555 1_555
C67_3 C66_3 1_555 1_555
H49_3 C67_3 1_555 1_555
C70_3 C66_3 1_555 1_555
H52_3 C70_3 1_555 1_555
C62_3 C63_3 1_555 1_555
Cu1_3 O3_3 1_555 1_555
Cu10_2 O1_3 1_555 1_555
O1_3 C7_3 1_555 1_555
O2_3 Cu10_2 1_555 1_555
O3_3 C8_3 1_555 1_555
O4_3 Cu1_3 1_555 1_555
O5_3 C9_3 1_555 1_555
O10_3 Cu10_2 1_555 1_555
H1_3 O10_3 1_555 1_555
H2_3 O10_3 1_555 1_555
N1_3 Cu10_2 1_555 1_555
N3_3 Cu1_3 1_555 1_555
C1_3 C2_3 1_555 1_555
C2_3 C3_3 1_555 1_555
C3_3 H3_3 1_555 1_555
C4_3 C3_3 1_555 1_555
C5_3 C4_3 1_555 1_555
H4_3 C5_3 1_555 1_555
C6_3 C1_3 1_555 1_555
H5_3 C6_3 1_555 1_555
C7_3 O2_3 1_555 1_555
C8_3 O4_3 1_555 1_555
C9_3 C4_3 1_555 1_555
C10_3 C9_3 1_555 1_555
C11_3 C10_3 1_555 1_555
H6_3 C11_3 1_555 1_555
C12_3 C11_3 1_555 1_555
C13_3 C12_3 1_555 1_555
C15_3 C10_3 1_555 1_555
H8_3 C15_3 1_555 1_555
C18_3 N1_3 1_555 1_555
H9_3 C18_3 1_555 1_555
C19_3 C18_3 1_555 1_555
H10_3 C19_3 1_555 1_555
C20_3 C19_3 1_555 1_555
C21_3 C20_3 1_555 1_555
H11_3 C21_3 1_555 1_555
C22_3 N1_3 1_555 1_555
H12_3 C22_3 1_555 1_555
C23_3 C20_3 1_555 1_555
H13_3 C23_3 1_555 1_555
H14_3 C23_3 1_555 1_555
C24_3 C23_3 1_555 1_555
H15_3 C24_3 1_555 1_555
H16_3 C24_3 1_555 1_555
C25_3 C24_3 1_555 1_555
C26_3 C25_3 1_555 1_555
H17_3 C26_3 1_555 1_555
C27_3 C26_3 1_555 1_555
H19_3 C28_3 1_555 1_555
C29_3 C25_3 1_555 1_555
H20_3 C29_3 1_555 1_555
C30_3 N3_3 1_555 1_555
H21_3 C30_3 1_555 1_555
C31_3 C30_3 1_555 1_555
H22_3 C31_3 1_555 1_555
C32_3 C31_3 1_555 1_555
C33_3 C32_3 1_555 1_555
H23_3 C33_3 1_555 1_555
C34_3 N3_3 1_555 1_555
H24_3 C34_3 1_555 1_555
C35_3 C32_3 1_555 1_555
H25_3 C35_3 1_555 1_555
H26_3 C35_3 1_555 1_555
C36_3 C35_3 1_555 1_555
H27_3 C36_3 1_555 1_555
H28_3 C36_3 1_555 1_555
C37_3 C36_3 1_555 1_555
C41_3 C37_3 1_555 1_555
H32_3 C41_3 1_555 1_555
Cu5 N9_2 1_555 1_555
O17_2 C57_3 1_555 1_555
O19_3 C57_3 1_555 1_555
O20_3 Cu1_3 1_555 1_555
O22_3 C58_3 1_555 1_555
N7_3 Cu10_2 1_555 1_555
N9_2 C71_3 1_555 1_555
N11_3 Cu1_3 1_555 1_555
C52_3 C51_3 1_555 1_555
H38_3 C52_3 1_555 1_555
C53_3 C52_3 1_555 1_555
C54_3 C53_3 1_555 1_555
C55_3 C54_3 1_555 1_555
H39_3 C55_3 1_555 1_555
C56_3 C51_3 1_555 1_555
H40_3 C56_3 1_555 1_555
C57_3 C53_3 1_555 1_555
C58_3 O20_3 1_555 1_555
C68_3 N7_3 1_555 1_555
H50_3 C68_3 1_555 1_555
C69_3 N7_3 1_555 1_555
H51_3 C69_3 1_555 1_555
C71_3 H53_3 1_555 1_555
C72_3 C71_3 1_555 1_555
H54_3 C72_3 1_555 1_555
C73_3 C72_3 1_555 1_555
C74_3 C73_3 1_555 1_555
H55_3 C74_3 1_555 1_555
C75_3 N9_2 1_555 1_555
H56_3 C75_3 1_555 1_555
C76_3 C73_3 1_555 1_555
H57_3 C76_3 1_555 1_555
H58_3 C76_3 1_555 1_555
C77_3 C76_3 1_555 1_555
H59_3 C77_3 1_555 1_555
H60_3 C77_3 1_555 1_555
C78_3 C77_3 1_555 1_555
C79_3 C78_3 1_555 1_555
H61_3 C79_3 1_555 1_555
C80_3 N11_3 1_555 1_555
H62_3 C80_3 1_555 1_555
C81_3 N11_3 1_555 1_555
H63_3 C81_3 1_555 1_555
C82_3 C78_3 1_555 1_555
H64_3 C82_3 1_555 1_555
C1_3 C7_3 1_555 1_555
C2_3 C8_3 1_555 1_555
C5_3 C6_3 1_555 1_555
C21_3 C22_3 1_555 1_555
C28_3 C29_3 1_555 1_555
C33_3 C34_3 1_555 1_555
C54_3 C58_3 1_555 1_555
C55_3 C56_3 1_555 1_555
C74_3 C75_3 1_555 1_555
C79_3 C80_3 1_555 1_555
C81_3 C82_3 1_555 1_555
O9_3 C17_3 1_555 1_555
H7_3 C14_3 1_555 1_555
Cu8_2 N2_3 1_555 1_555
O15_3 C50_3 1_555 1_555
C42_3 C43_3 1_555 1_555
C43_3 C44_3 1_555 1_555
C44_3 H35_3 1_555 1_555
C45_3 C44_3 1_555 1_555
C46_3 C45_3 1_555 1_555
C47_3 C42_3 1_555 1_555
H37_3 C47_3 1_555 1_555
C49_3 O14_3 1_555 1_555
C50_3 C45_3 1_555 1_555
C43_3 C49_3 1_555 1_555
C46_3 C47_3 1_555 1_555
Cu4 O13_3 1_555 1_555
Cu8_2 O11_3 1_555 1_555
O11_3 C48_3 1_555 1_555
O12_3 Cu8_2 1_555 1_555
O23_3 Cu8_2 1_555 1_555
H33_3 O23_3 1_555 1_555
H34_3 O23_3 1_555 1_555
N10_2 Cu4 1_555 1_555
C48_3 O12_3 1_555 1_555
Cu8 N5_2 1_555 1_555
N5_2 C59_4 1_555 1_555
C59_4 H41_4 1_555 1_555
C60_4 C59_4 1_555 1_555
H42_4 C60_4 1_555 1_555
C61_4 C60_4 1_555 1_555
C62_4 C61_4 1_555 1_555
H43_4 C62_4 1_555 1_555
C63_4 N5_2 1_555 1_555
H44_4 C63_4 1_555 1_555
C64_4 C61_4 1_555 1_555
H45_4 C64_4 1_555 1_555
H46_4 C64_4 1_555 1_555
C65_4 C64_4 1_555 1_555
H47_4 C65_4 1_555 1_555
H48_4 C65_4 1_555 1_555
C66_4 C65_4 1_555 1_555
C67_4 C66_4 1_555 1_555
H49_4 C67_4 1_555 1_555
C70_4 C66_4 1_555 1_555
H52_4 C70_4 1_555 1_555
C62_4 C63_4 1_555 1_555
H51_4 C69_4 1_555 1_555
O18 C16_4 1_555 1_555
O7_4 C16_4 1_555 1_555
O8_2 C17_4 1_555 1_555
O9_4 C17_4 1_555 1_555
Cu5 O8_2 1_555 1_555
C11_4 C10_4 1_555 1_555
H6_4 C11_4 1_555 1_555
C12_4 C11_4 1_555 1_555
C13_4 C12_4 1_555 1_555
C14_4 C13_4 1_555 1_555
H7_4 C14_4 1_555 1_555
C15_4 C10_4 1_555 1_555
H8_4 C15_4 1_555 1_555
C14_4 C15_4 1_555 1_555
C40_4 N12_2 1_555 1_555
H31_4 C40_4 1_555 1_555
Cu1_4 O3_4 1_555 1_555
Cu10 O1_4 1_555 1_555
O1_4 C7_4 1_555 1_555
O2_4 Cu10 1_555 1_555
O10_4 Cu10 1_555 1_555
H1_4 O10_4 1_555 1_555
H2_4 O10_4 1_555 1_555
N1_4 Cu10 1_555 1_555
N2_4 C27_4 1_555 1_555
N3_4 Cu1_4 1_555 1_555
C7_4 O2_4 1_555 1_555
C18_4 N1_4 1_555 1_555
H9_4 C18_4 1_555 1_555
C19_4 C18_4 1_555 1_555
H10_4 C19_4 1_555 1_555
C20_4 C19_4 1_555 1_555
C21_4 C20_4 1_555 1_555
H11_4 C21_4 1_555 1_555
C22_4 N1_4 1_555 1_555
H12_4 C22_4 1_555 1_555
C23_4 C20_4 1_555 1_555
H13_4 C23_4 1_555 1_555
H14_4 C23_4 1_555 1_555
C24_4 C23_4 1_555 1_555
H15_4 C24_4 1_555 1_555
H16_4 C24_4 1_555 1_555
C25_4 C24_4 1_555 1_555
C26_4 C25_4 1_555 1_555
H17_4 C26_4 1_555 1_555
C27_4 C26_4 1_555 1_555
H18_4 C27_4 1_555 1_555
C28_4 N2_4 1_555 1_555
H19_4 C28_4 1_555 1_555
C29_4 C25_4 1_555 1_555
H20_4 C29_4 1_555 1_555
C30_4 N3_4 1_555 1_555
H21_4 C30_4 1_555 1_555
C31_4 C30_4 1_555 1_555
H22_4 C31_4 1_555 1_555
C32_4 C31_4 1_555 1_555
C33_4 C32_4 1_555 1_555
H23_4 C33_4 1_555 1_555
C34_4 N3_4 1_555 1_555
H24_4 C34_4 1_555 1_555
C35_4 C32_4 1_555 1_555
H25_4 C35_4 1_555 1_555
H26_4 C35_4 1_555 1_555
C36_4 C35_4 1_555 1_555
H27_4 C36_4 1_555 1_555
C37_4 C36_4 1_555 1_555
C41_4 C37_4 1_555 1_555
H32_4 C41_4 1_555 1_555
Cu8 N2_4 1_555 1_555
O22_4 C58_4 1_555 1_555
N7_4 Cu10 1_555 1_555
H39_4 C55_4 1_555 1_555
H61_4 C79_4 1_555 1_555
H62_4 C80_4 1_555 1_555
C21_4 C22_4 1_555 1_555
C28_4 C29_4 1_555 1_555
C33_4 C34_4 1_555 1_555
C79_4 C80_4 1_555 1_555
H29_4 C38_4 1_555 1_555
C39_4 C38_4 1_555 1_555
H30_4 C39_4 1_555 1_555
O5_4 C9_4 1_555 1_555
C1_4 C2_4 1_555 1_555
C2_4 C3_4 1_555 1_555
C3_4 H3_4 1_555 1_555
C4_4 C3_4 1_555 1_555
C5_4 C4_4 1_555 1_555
C6_4 C1_4 1_555 1_555
H5_4 C6_4 1_555 1_555
C8_4 O4_4 1_555 1_555
C9_4 C4_4 1_555 1_555
Cu5 O13_4 1_555 1_555
Cu8 O11_4 1_555 1_555
O11_4 C48_4 1_555 1_555
O12_4 Cu8 1_555 1_555
O13_4 C49_4 1_555 1_555
O14_4 Cu5 1_555 1_555
O15_4 C50_4 1_555 1_555
O17 C57_4 1_555 1_555
O19_4 C57_4 1_555 1_555
O23_4 Cu8 1_555 1_555
H33_4 O23_4 1_555 1_555
H34_4 O23_4 1_555 1_555
N10_2 C71_4 1_555 1_555
C42_4 C43_4 1_555 1_555
C43_4 C44_4 1_555 1_555
C44_4 H35_4 1_555 1_555
C45_4 C44_4 1_555 1_555
C46_4 C45_4 1_555 1_555
H36_4 C46_4 1_555 1_555
C47_4 C42_4 1_555 1_555
H37_4 C47_4 1_555 1_555
C48_4 O12_4 1_555 1_555
C49_4 O14_4 1_555 1_555
C50_4 C45_4 1_555 1_555
C51_4 C50_4 1_555 1_555
C52_4 C51_4 1_555 1_555
H38_4 C52_4 1_555 1_555
C53_4 C52_4 1_555 1_555
C54_4 C53_4 1_555 1_555
C56_4 C51_4 1_555 1_555
H40_4 C56_4 1_555 1_555
C57_4 C53_4 1_555 1_555
C71_4 H53_4 1_555 1_555
C72_4 C71_4 1_555 1_555
H54_4 C72_4 1_555 1_555
C73_4 C72_4 1_555 1_555
C74_4 C73_4 1_555 1_555
H55_4 C74_4 1_555 1_555
C75_4 N10_2 1_555 1_555
H56_4 C75_4 1_555 1_555
C76_4 C73_4 1_555 1_555
H57_4 C76_4 1_555 1_555
H58_4 C76_4 1_555 1_555
C77_4 C76_4 1_555 1_555
H59_4 C77_4 1_555 1_555
C78_4 C77_4 1_555 1_555
C81_4 N11_4 1_555 1_555
H63_4 C81_4 1_555 1_555
C82_4 C78_4 1_555 1_555
H64_4 C82_4 1_555 1_555
C2_4 C8_4 1_555 1_555
C5_4 C6_4 1_555 1_555
C42_4 C48_4 1_555 1_555
C43_4 C49_4 1_555 1_555
C46_4 C47_4 1_555 1_555
C74_4 C75_4 1_555 1_555
C81_4 C82_4 1_555 1_555

#END
