
###############################################################################
#
# This file contains modified crystal structure data generated from the
# MOF subset of the Cambridge Structural Database (CSD) v543 
# hosted by the Cambridge Crystallographic Data Centre (CCDC).
#
# This work is licensed under the Creative Commons
# Attribution-NonCommercial-ShareAlike 4.0 International License.
# To view a copy of this license, visit
# http://creativecommons.org/licenses/by-nc-sa/4.0/
# or send a letter to
# Creative Commons, PO Box 1866, Mountain View, CA 94042, USA.
#
# CIF created using the CSD Python API on 29 September 2022
# The structure has been converted into the P1 space group
# The structure has a 3D framework
# The original CSD entry KOLPOR is in the monoclinic crystal system
# The framework has been calculated to contain at least 10.0% void space
# The void calculation uses a probe of radius 1.32A, grid spacing 0.4
#
###############################################################################

data_KOLPOR
_chemical_formula_moiety         '(C128 H80 N16 O108 Sm16)n'
_symmetry_cell_setting           triclinic
_symmetry_space_group_name_H-M   'P 1'
_symmetry_Int_Tables_number      1
_space_group_name_Hall           'P 1'
loop_
_symmetry_equiv_pos_site_id
_symmetry_equiv_pos_as_xyz
1 x,y,z
_cell_length_a                   22.3162(11)
_cell_length_b                   9.3759(5)
_cell_length_c                   22.4546(12)
_cell_angle_alpha                90
_cell_angle_beta                 103.061(1)
_cell_angle_gamma                90
_cell_volume                     4576.73
loop_
_atom_site_label
_atom_site_type_symbol
_atom_site_fract_x
_atom_site_fract_y
_atom_site_fract_z
Sm3 Sm 0.046073(10) 0.27268(2) 0.432472(10)
O17 O 0.12524(17) 0.0957(4) 0.42622(17)
H13 H 0.1337 0.0835 0.3915
H14 H 0.1315 0.0201 0.4476
O18 O 0.05824(17) 0.0838(4) 0.51260(16)
H15 H 0.0371 0.0610 0.5383
H16 H 0.0604 0.0071 0.4930
O20 O 0.07322(15) 0.3039(4) 0.33465(14)
O29 O 0.09554(14) 0.3872(4) 0.52862(14)
O32 O 0.26663(14) 0.0360(3) 0.28298(15)
O41 O 0.02800(14) 0.5423(3) 0.41359(14)
N4 N 0.14415(16) 0.4119(4) 0.43384(16)
N7 N 0.38163(16) 0.1151(4) 0.32227(16)
Sm2 Sm 0.154291(9) 0.35796(2) 0.178889(9)
O5 O 0.13191(16) 0.3920(4) 0.27540(14)
O6 O 0.31830(18) 0.6822(4) 0.38638(17)
O7 O 0.35410(15) 0.6270(4) 0.48379(17)
O8 O 0.16737(15) 0.5271(4) 0.58583(14)
C1 C 0.1636(2) 0.4284(5) 0.38219(19)
C2 C 0.2171(2) 0.4997(5) 0.3806(2)
H7 H 0.2295 0.5110 0.3440
C3 C 0.2524(2) 0.5548(5) 0.4352(2)
C4 C 0.2308(2) 0.5418(5) 0.4884(2)
H8 H 0.2529 0.5797 0.5251
C5 C 0.1758(2) 0.4714(5) 0.48562(19)
C6 C 0.1195(2) 0.3684(5) 0.3262(2)
C7 C 0.3132(2) 0.6277(5) 0.4353(2)
C8 C 0.1439(2) 0.4594(5) 0.5383(2)
Sm6 Sm 0.345709(9) 0.85796(2) 0.321111(9)
Sm7 Sm 0.154291(9) 0.64204(2) 0.678889(9)
O22 O 0.36809(16) 0.8920(4) 0.22460(14)
O23 O 0.18170(18) 0.1822(4) 0.11362(17)
O24 O 0.14590(15) 0.1270(4) 0.01621(17)
O26 O 0.16737(15) 0.4729(4) 0.08583(14)
O27 O 0.33263(15) 0.9729(4) 0.41417(14)
O31 O 0.23337(14) 0.5360(3) 0.21702(15)
O34 O 0.23933(16) 0.2499(4) 0.24477(19)
O35 O 0.26067(16) 0.7499(4) 0.25523(19)
O37 O 0.09999(15) 0.1417(3) 0.19123(16)
O38 O 0.40001(15) 0.6417(3) 0.30877(16)
O43 O 0.04634(14) 0.4025(3) 0.13484(14)
O45 O 0.45366(14) 0.9025(3) 0.36516(14)
N6 N 0.11837(16) 0.6151(4) 0.17773(16)
H17 H 0.2705 0.0110 0.1560
C19 C 0.2476(2) 0.0548(5) 0.0648(2)
C20 C 0.2692(2) 0.0418(5) 0.0116(2)
C23 C 0.1868(2) 0.1277(5) 0.0647(2)
Sm14 Sm 0.345709(9) 0.14204(2) 0.821111(9)
O25 O 0.33263(15) 0.0271(4) 0.91417(14)
H18 H 0.2471 0.0797 0.9749
Sm5 Sm 0.453927(10) 0.77268(2) 0.067528(10)
O19 O 0.42678(15) 0.8039(4) 0.16535(14)
N3 N 0.35585(16) 0.9119(4) 0.06616(16)
C17 C 0.3364(2) 0.9284(5) 0.11781(19)
C18 C 0.2829(2) 0.9997(5) 0.1194(2)
C21 C 0.3242(2) 0.9714(5) 0.01438(19)
C22 C 0.3805(2) 0.8684(5) 0.1738(2)
O28 O 0.40446(14) 0.8872(4) 0.97138(14)
C24 C 0.3561(2) 0.9594(5) 0.9617(2)
Sm12 Sm 0.845709(9) 0.35796(2) 0.321111(9)
O16 O 0.96224(15) 0.2841(4) 0.48796(15)
H11 H 0.9681 0.3360 0.5198
H12 H 0.9262 0.2492 0.4819
O36 O 0.90001(15) 0.1417(3) 0.30877(16)
O39 O 0.97922(15) 0.0841(3) 0.38533(15)
O44 O 0.95366(14) 0.4025(3) 0.36516(14)
C31 C 0.9333(2) 0.0545(5) 0.3430(2)
Sm11 Sm 0.654291(9) 0.85796(2) 0.178889(9)
O30 O 0.76663(14) 0.5360(3) 0.28298(15)
O33 O 0.73933(16) 0.7499(4) 0.24477(19)
N5 N 0.88163(16) 0.6151(4) 0.32227(16)
C25 C 0.8412(2) 0.7180(5) 0.3007(2)
C26 C 0.8563(2) 0.8612(5) 0.3056(2)
H19 H 0.8272 0.9307 0.2900
C27 C 0.9162(2) 0.8984(5) 0.3344(2)
C28 C 0.9586(2) 0.7921(5) 0.3573(2)
H20 H 0.9990 0.8141 0.3763
C29 C 0.9385(2) 0.6522(5) 0.3506(2)
C30 C 0.7769(2) 0.6644(5) 0.2735(2)
C32 C 0.97668(19) 0.5260(5) 0.37825(19)
O41_2 O 0.52800(14) 0.0423(3) 0.41359(14)
O6_2 O 0.81830(18) 0.1822(4) 0.38638(17)
O7_2 O 0.85410(15) 0.1270(4) 0.48379(17)
O8_2 O 0.66737(15) 0.0271(4) 0.58583(14)
H7_2 H 0.7295 0.0110 0.3440
C3_2 C 0.7524(2) 0.0548(5) 0.4352(2)
C4_2 C 0.7308(2) 0.0418(5) 0.4884(2)
H8_2 H 0.7529 0.0797 0.5251
C7_2 C 0.8132(2) 0.1277(5) 0.4353(2)
Sm3_2 Sm 0.546073(10) 0.77268(2) 0.432472(10)
Sm7_2 Sm 0.654291(9) 0.14204(2) 0.678889(9)
O16_2 O 0.46224(15) 0.7841(4) 0.48796(15)
H11_2 H 0.4681 0.8360 0.5198
H12_2 H 0.4262 0.7492 0.4819
O17_2 O 0.62524(17) 0.5957(4) 0.42622(17)
H13_2 H 0.6337 0.5835 0.3915
H14_2 H 0.6315 0.5201 0.4476
O18_2 O 0.55824(17) 0.5838(4) 0.51260(16)
H15_2 H 0.5371 0.5610 0.5383
H16_2 H 0.5604 0.5071 0.4930
O20_2 O 0.57322(15) 0.8039(4) 0.33465(14)
O22_2 O 0.86809(16) 0.3920(4) 0.22460(14)
O27_2 O 0.83263(15) 0.4729(4) 0.41417(14)
O29_2 O 0.59554(14) 0.8872(4) 0.52862(14)
O31_2 O 0.73337(14) 0.0360(3) 0.21702(15)
O35_2 O 0.76067(16) 0.2499(4) 0.25523(19)
O39_2 O 0.47922(15) 0.5841(3) 0.38533(15)
N4_2 N 0.64415(16) 0.9119(4) 0.43384(16)
N6_2 N 0.61837(16) 0.1151(4) 0.17773(16)
C25_2 C 0.3412(2) 0.2180(5) 0.3007(2)
C26_2 C 0.3563(2) 0.3612(5) 0.3056(2)
H19_2 H 0.3272 0.4307 0.2900
C27_2 C 0.4162(2) 0.3984(5) 0.3344(2)
C28_2 C 0.4586(2) 0.2921(5) 0.3573(2)
H20_2 H 0.4990 0.3141 0.3763
C29_2 C 0.4385(2) 0.1522(5) 0.3506(2)
C30_2 C 0.2769(2) 0.1644(5) 0.2735(2)
C31_2 C 0.4333(2) 0.5545(5) 0.3430(2)
C32_2 C 0.47668(19) 0.0260(5) 0.37825(19)
O5_2 O 0.63191(16) 0.8920(4) 0.27540(14)
C1_2 C 0.6636(2) 0.9284(5) 0.38219(19)
C2_2 C 0.7171(2) 0.9997(5) 0.3806(2)
C5_2 C 0.6758(2) 0.9714(5) 0.48562(19)
C6_2 C 0.6195(2) 0.8684(5) 0.3262(2)
C8_2 C 0.6439(2) 0.9594(5) 0.5383(2)
Sm5_2 Sm 0.953927(10) 0.27268(2) 0.067528(10)
O19_2 O 0.92678(15) 0.3039(4) 0.16535(14)
O23_2 O 0.68170(18) 0.6822(4) 0.11362(17)
O24_2 O 0.64590(15) 0.6270(4) 0.01621(17)
O26_2 O 0.66737(15) 0.9729(4) 0.08583(14)
O37_2 O 0.59999(15) 0.6417(3) 0.19123(16)
O43_2 O 0.54634(14) 0.9025(3) 0.13484(14)
N3_2 N 0.85585(16) 0.4119(4) 0.06616(16)
C17_2 C 0.8364(2) 0.4284(5) 0.11781(19)
C18_2 C 0.7829(2) 0.4997(5) 0.1194(2)
H17_2 H 0.7705 0.5110 0.1560
C19_2 C 0.7476(2) 0.5548(5) 0.0648(2)
C20_2 C 0.7692(2) 0.5418(5) 0.0116(2)
C21_2 C 0.8242(2) 0.4714(5) 0.01438(19)
C22_2 C 0.8805(2) 0.3684(5) 0.1738(2)
C23_2 C 0.6868(2) 0.6277(5) 0.0647(2)
Sm14_2 Sm 0.845709(9) 0.64204(2) 0.821111(9)
O25_2 O 0.83263(15) 0.5271(4) 0.91417(14)
O28_2 O 0.90446(14) 0.3872(4) 0.97138(14)
H18_2 H 0.7471 0.5797 0.9749
C24_2 C 0.8561(2) 0.4594(5) 0.9617(2)
O16_3 O 0.03776(15) 0.2841(4) 0.01204(15)
H12_3 H 0.0738 0.2492 0.0181
O39_3 O 0.02078(15) 0.0841(3) 0.11467(15)
C31_3 C 0.0667(2) 0.0545(5) 0.1570(2)
C25_3 C 0.1588(2) 0.7180(5) 0.1993(2)
C26_3 C 0.1437(2) 0.8612(5) 0.1944(2)
H19_3 H 0.1728 0.9307 0.2100
C27_3 C 0.0838(2) 0.8984(5) 0.1656(2)
C28_3 C 0.0414(2) 0.7921(5) 0.1427(2)
H20_3 H 0.0010 0.8141 0.1237
C29_3 C 0.0615(2) 0.6522(5) 0.1494(2)
C30_3 C 0.2231(2) 0.6644(5) 0.2265(2)
C32_3 C 0.02332(19) 0.5260(5) 0.12175(19)
O17_3 O 0.87476(17) 0.0957(4) 0.07378(17)
H13_3 H 0.8663 0.0835 0.1085
H14_3 H 0.8685 0.0201 0.0524
H16_3 H 0.9396 0.0071 0.0070
O41_3 O 0.97200(14) 0.5423(3) 0.08641(14)
O18_3 O 0.94176(17) 0.0838(4) 0.98740(16)
H15_3 H 0.9629 0.0610 0.9617
O41_4 O 0.47200(14) 0.0423(3) 0.08641(14)
O16_4 O 0.53776(15) 0.7841(4) 0.01204(15)
H12_4 H 0.5738 0.7492 0.0181
O17_4 O 0.37476(17) 0.5957(4) 0.07378(17)
H13_4 H 0.3663 0.5835 0.1085
H14_4 H 0.3685 0.5201 0.0524
H16_4 H 0.4396 0.5071 0.0070
O39_4 O 0.52078(15) 0.5841(3) 0.11467(15)
C25_4 C 0.6588(2) 0.2180(5) 0.1993(2)
C26_4 C 0.6437(2) 0.3612(5) 0.1944(2)
H19_4 H 0.6728 0.4307 0.2100
C27_4 C 0.5838(2) 0.3984(5) 0.1656(2)
C28_4 C 0.5414(2) 0.2921(5) 0.1427(2)
H20_4 H 0.5010 0.3141 0.1237
C29_4 C 0.5615(2) 0.1522(5) 0.1494(2)
C30_4 C 0.7231(2) 0.1644(5) 0.2265(2)
C31_4 C 0.5667(2) 0.5545(5) 0.1570(2)
C32_4 C 0.52332(19) 0.0260(5) 0.12175(19)
H11_3 H 0.5319 0.8360 0.9802
O18_4 O 0.44176(17) 0.5838(4) 0.98740(16)
H15_4 H 0.4629 0.5610 0.9617
O10 O 0.23337(14) 0.4640(3) 0.71702(15)
O11 O 0.26067(16) 0.2501(4) 0.75523(19)
O15 O 0.04634(14) 0.5975(3) 0.63484(14)
N2 N 0.11837(16) 0.3849(4) 0.67773(16)
C9 C 0.1588(2) 0.2820(5) 0.6993(2)
C10 C 0.1437(2) 0.1388(5) 0.6944(2)
H9 H 0.1728 0.0693 0.7100
C11 C 0.0838(2) 0.1016(5) 0.6656(2)
C12 C 0.0414(2) 0.2079(5) 0.6427(2)
H10 H 0.0010 0.1859 0.6237
C13 C 0.0615(2) 0.3478(5) 0.6494(2)
C14 C 0.2231(2) 0.3356(5) 0.7265(2)
C16 C 0.02332(19) 0.4740(5) 0.62175(19)
O1 O 0.03776(15) 0.7159(4) 0.51204(15)
H1 H 0.0319 0.6640 0.4802
H2 H 0.0738 0.7508 0.5181
O12 O 0.09999(15) 0.8583(3) 0.69123(16)
O13 O 0.02078(15) 0.9159(3) 0.61467(15)
C15 C 0.0667(2) 0.9455(5) 0.6570(2)
O28_3 O 0.59554(14) 0.1128(4) 0.02862(14)
C24_3 C 0.6439(2) 0.0406(5) 0.0383(2)
O14 O 0.97200(14) 0.4577(3) 0.58641(14)
Sm4 Sm 0.953927(10) 0.72732(2) 0.567528(10)
Sm5_3 Sm 0.546073(10) 0.22732(2) 0.932472(10)
O19_3 O 0.57322(15) 0.1961(4) 0.83465(14)
O21 O 0.63191(16) 0.1080(4) 0.77540(14)
N3_3 N 0.64415(16) 0.0881(4) 0.93384(16)
C17_3 C 0.6636(2) 0.0716(5) 0.88219(19)
C18_3 C 0.7171(2) 0.0003(5) 0.8806(2)
C21_3 C 0.6758(2) 0.0286(5) 0.98562(19)
C22_3 C 0.6195(2) 0.1316(5) 0.8262(2)
H18_3 H 0.7529 0.9203 0.0251
O2 O 0.87476(17) 0.9043(4) 0.57378(17)
H3 H 0.8663 0.9165 0.6085
H4 H 0.8685 0.9799 0.5524
O3 O 0.94176(17) 0.9162(4) 0.48740(16)
H5 H 0.9629 0.9390 0.4617
H6 H 0.9396 0.9929 0.5070
O4 O 0.92678(15) 0.6961(4) 0.66535(14)
O5_3 O 0.86809(16) 0.6080(4) 0.72460(14)
O6_3 O 0.68170(18) 0.3178(4) 0.61362(17)
O7_3 O 0.64590(15) 0.3730(4) 0.51621(17)
O9 O 0.90446(14) 0.6128(4) 0.47138(14)
N1 N 0.85585(16) 0.5881(4) 0.56616(16)
C1_3 C 0.8364(2) 0.5716(5) 0.61781(19)
C2_3 C 0.7829(2) 0.5003(5) 0.6194(2)
H7_3 H 0.7705 0.4890 0.6560
C3_3 C 0.7476(2) 0.4452(5) 0.5648(2)
C4_3 C 0.7692(2) 0.4582(5) 0.5116(2)
H8_3 H 0.7471 0.4203 0.4749
C5_3 C 0.8242(2) 0.5286(5) 0.51438(19)
C6_3 C 0.8805(2) 0.6316(5) 0.6738(2)
C7_3 C 0.6868(2) 0.3723(5) 0.5647(2)
C8_3 C 0.8561(2) 0.5406(5) 0.4617(2)
O23_3 O 0.81830(18) 0.8178(4) 0.88638(17)
O24_3 O 0.85410(15) 0.8730(4) 0.98379(17)
O31_3 O 0.76663(14) 0.4640(3) 0.78298(15)
O34_2 O 0.76067(16) 0.7501(4) 0.75523(19)
O35_3 O 0.73933(16) 0.2501(4) 0.74477(19)
O37_3 O 0.90001(15) 0.8583(3) 0.80877(16)
O38_2 O 0.59999(15) 0.3583(3) 0.69123(16)
O43_3 O 0.95366(14) 0.5975(3) 0.86516(14)
O45_2 O 0.54634(14) 0.0975(3) 0.63484(14)
N6_3 N 0.88163(16) 0.3849(4) 0.82227(16)
H17_3 H 0.7295 0.9890 0.8440
C19_3 C 0.7524(2) 0.9452(5) 0.9352(2)
C20_3 C 0.7308(2) 0.9582(5) 0.9884(2)
C23_3 C 0.8132(2) 0.8723(5) 0.9353(2)
O32_2 O 0.73337(14) 0.9640(3) 0.71702(15)
N7_2 N 0.61837(16) 0.8849(4) 0.67773(16)
Sm4_2 Sm 0.453927(10) 0.22732(2) 0.567528(10)
O28_4 O 0.09554(14) 0.6128(4) 0.02862(14)
H18_4 H 0.2529 0.4203 0.0251
C24_4 C 0.1439(2) 0.5406(5) 0.0383(2)
O1_2 O 0.53776(15) 0.2159(4) 0.51204(15)
H1_2 H 0.5319 0.1640 0.4802
H2_2 H 0.5738 0.2508 0.5181
O2_2 O 0.37476(17) 0.4043(4) 0.57378(17)
H3_2 H 0.3663 0.4165 0.6085
H4_2 H 0.3685 0.4799 0.5524
O3_2 O 0.44176(17) 0.4162(4) 0.48740(16)
H5_2 H 0.4629 0.4390 0.4617
H6_2 H 0.4396 0.4929 0.5070
O4_2 O 0.42678(15) 0.1961(4) 0.66535(14)
O5_4 O 0.36809(16) 0.1080(4) 0.72460(14)
O9_2 O 0.40446(14) 0.1128(4) 0.47138(14)
O13_2 O 0.52078(15) 0.4159(3) 0.61467(15)
O14_2 O 0.47200(14) 0.9577(3) 0.58641(14)
N1_2 N 0.35585(16) 0.0881(4) 0.56616(16)
C1_4 C 0.3364(2) 0.0716(5) 0.61781(19)
C2_4 C 0.2829(2) 0.0003(5) 0.6194(2)
C5_4 C 0.3242(2) 0.0286(5) 0.51438(19)
C6_4 C 0.3805(2) 0.1316(5) 0.6738(2)
C8_4 C 0.3561(2) 0.0406(5) 0.4617(2)
C9_2 C 0.6588(2) 0.7820(5) 0.6993(2)
C10_2 C 0.6437(2) 0.6388(5) 0.6944(2)
H9_2 H 0.6728 0.5693 0.7100
C11_2 C 0.5838(2) 0.6016(5) 0.6656(2)
C12_2 C 0.5414(2) 0.7079(5) 0.6427(2)
H10_2 H 0.5010 0.6859 0.6237
C13_2 C 0.5615(2) 0.8478(5) 0.6494(2)
C14_2 C 0.7231(2) 0.8356(5) 0.7265(2)
C15_2 C 0.5667(2) 0.4455(5) 0.6570(2)
C16_2 C 0.52332(19) 0.9740(5) 0.62175(19)
Sm5_4 Sm 0.046073(10) 0.72732(2) 0.932472(10)
O19_4 O 0.07322(15) 0.6961(4) 0.83465(14)
O21_2 O 0.13191(16) 0.6080(4) 0.77540(14)
O23_4 O 0.31830(18) 0.3178(4) 0.88638(17)
O24_4 O 0.35410(15) 0.3730(4) 0.98379(17)
O37_4 O 0.40001(15) 0.3583(3) 0.80877(16)
O43_4 O 0.45366(14) 0.0975(3) 0.86516(14)
N3_4 N 0.14415(16) 0.5881(4) 0.93384(16)
C17_4 C 0.1636(2) 0.5716(5) 0.88219(19)
C18_4 C 0.2171(2) 0.5003(5) 0.8806(2)
H17_4 H 0.2295 0.4890 0.8440
C19_4 C 0.2524(2) 0.4452(5) 0.9352(2)
C20_4 C 0.2308(2) 0.4582(5) 0.9884(2)
C21_4 C 0.1758(2) 0.5286(5) 0.98562(19)
C22_4 C 0.1195(2) 0.6316(5) 0.8262(2)
C23_4 C 0.3132(2) 0.3723(5) 0.9353(2)
O6_4 O 0.18170(18) 0.8178(4) 0.61362(17)
O7_4 O 0.14590(15) 0.8730(4) 0.51621(17)
H7_4 H 0.2705 0.9890 0.6560
C3_4 C 0.2476(2) 0.9452(5) 0.5648(2)
C4_4 C 0.2692(2) 0.9582(5) 0.5116(2)
H8_4 H 0.2471 0.9203 0.4749
C7_4 C 0.1868(2) 0.8723(5) 0.5647(2)
O31_4 O 0.26663(14) 0.9640(3) 0.78298(15)
O35_4 O 0.23933(16) 0.7501(4) 0.74477(19)
N6_4 N 0.38163(16) 0.8849(4) 0.82227(16)
O14_3 O 0.02800(14) 0.4577(3) 0.91359(14)
O3_3 O 0.05824(17) 0.9162(4) 0.01260(16)
H5_3 H 0.0371 0.9390 0.0383
O2_3 O 0.12524(17) 0.9043(4) 0.92622(17)
H3_3 H 0.1337 0.9165 0.8915
H4_3 H 0.1315 0.9799 0.9476
H6_3 H 0.0604 0.9929 0.9930
C9_3 C 0.8412(2) 0.2820(5) 0.8007(2)
C10_3 C 0.8563(2) 0.1388(5) 0.8056(2)
H9_3 H 0.8272 0.0693 0.7900
C11_3 C 0.9162(2) 0.1016(5) 0.8344(2)
C12_3 C 0.9586(2) 0.2079(5) 0.8573(2)
H10_3 H 0.9990 0.1859 0.8763
C13_3 C 0.9385(2) 0.3478(5) 0.8506(2)
C14_3 C 0.7769(2) 0.3356(5) 0.7735(2)
C16_3 C 0.97668(19) 0.4740(5) 0.87825(19)
O1_3 O 0.96224(15) 0.7159(4) 0.98796(15)
H2_3 H 0.9262 0.7508 0.9819
O13_3 O 0.97922(15) 0.9159(3) 0.88533(15)
C15_3 C 0.9333(2) 0.9455(5) 0.8430(2)
H1_3 H 0.4681 0.1640 0.0198
O3_4 O 0.55824(17) 0.4162(4) 0.01260(16)
H5_4 H 0.5371 0.4390 0.0383
O1_4 O 0.46224(15) 0.2159(4) 0.98796(15)
H2_4 H 0.4262 0.2508 0.9819
O2_4 O 0.62524(17) 0.4043(4) 0.92622(17)
H3_4 H 0.6337 0.4165 0.8915
H4_4 H 0.6315 0.4799 0.9476
H6_4 H 0.5604 0.4929 0.9930
O13_4 O 0.47922(15) 0.4159(3) 0.88533(15)
O14_4 O 0.52800(14) 0.9577(3) 0.91359(14)
C9_4 C 0.3412(2) 0.7820(5) 0.8007(2)
C10_4 C 0.3563(2) 0.6388(5) 0.8056(2)
H9_4 H 0.3272 0.5693 0.7900
C11_4 C 0.4162(2) 0.6016(5) 0.8344(2)
C12_4 C 0.4586(2) 0.7079(5) 0.8573(2)
H10_4 H 0.4990 0.6859 0.8763
C13_4 C 0.4385(2) 0.8478(5) 0.8506(2)
C14_4 C 0.2769(2) 0.8356(5) 0.7735(2)
C15_4 C 0.4333(2) 0.4455(5) 0.8430(2)
C16_4 C 0.47668(19) 0.9740(5) 0.87825(19)
H11_4 H 0.0319 0.3360 0.9802
H1_4 H 0.9681 0.6640 0.0198
loop_
_geom_bond_atom_site_label_1
_geom_bond_atom_site_label_2
_geom_bond_site_symmetry_1
_geom_bond_site_symmetry_2
O17 Sm3 1_555 1_555
H13 O17 1_555 1_555
H14 O17 1_555 1_555
O18 Sm3 1_555 1_555
H15 O18 1_555 1_555
H16 O18 1_555 1_555
O20 Sm3 1_555 1_555
O29 Sm3 1_555 1_555
O41 Sm3 1_555 1_555
N4 Sm3 1_555 1_555
Sm2 O5 1_555 1_555
O5 C6 1_555 1_555
O6 C7 1_555 1_555
O7 C7 1_555 1_555
O8 C8 1_555 1_555
C1 N4 1_555 1_555
C2 C1 1_555 1_555
H7 C2 1_555 1_555
C3 C2 1_555 1_555
C4 C3 1_555 1_555
H8 C4 1_555 1_555
C5 N4 1_555 1_555
C6 O20 1_555 1_555
C7 C3 1_555 1_555
C8 O29 1_555 1_555
Sm6 O6 1_555 1_555
Sm7 O8 1_555 1_555
O22 Sm6 1_555 1_555
O23 Sm2 1_555 1_555
O24 C23 1_555 1_555
O26 Sm2 1_555 1_555
O27 Sm6 1_555 1_555
O31 Sm2 1_555 1_555
O34 Sm2 1_555 1_555
O35 Sm6 1_555 1_555
O37 Sm2 1_555 1_555
O38 Sm6 1_555 1_555
O43 Sm2 1_555 1_555
O45 Sm6 1_555 1_555
N6 Sm2 1_555 1_555
C20 C19 1_555 1_555
C23 O23 1_555 1_555
C1 C6 1_555 1_555
C4 C5 1_555 1_555
C5 C8 1_555 1_555
C19 C23 1_555 1_555
Sm14 O25 1_555 1_555
Sm5 O19 1_555 1_555
O19 C22 1_555 1_555
O22 C22 1_555 1_555
N3 Sm5 1_555 1_555
C17 N3 1_555 1_555
C18 C17 1_555 1_555
C21 N3 1_555 1_555
C22 C17 1_555 1_555
C24 O28 1_555 1_555
Sm12 O36 1_555 1_555
O16 H11 1_555 1_555
H12 O16 1_555 1_555
O36 C31 1_555 1_555
C31 O39 1_555 1_555
Sm12 O44 1_555 1_555
Sm11 O33 1_555 1_555
O30 Sm12 1_555 1_555
O33 C30 1_555 1_555
N5 Sm12 1_555 1_555
C25 N5 1_555 1_555
C26 C25 1_555 1_555
H19 C26 1_555 1_555
C27 C26 1_555 1_555
C28 C27 1_555 1_555
H20 C28 1_555 1_555
C29 N5 1_555 1_555
C30 O30 1_555 1_555
O44 C32 1_555 1_555
C25 C30 1_555 1_555
C28 C29 1_555 1_555
C29 C32 1_555 1_555
O6_2 C7_2 1_555 1_555
O7_2 C7_2 1_555 1_555
C4_2 C3_2 1_555 1_555
H8_2 C4_2 1_555 1_555
C7_2 C3_2 1_555 1_555
Sm3_2 O16_2 1_555 1_555
Sm12 O6_2 1_555 1_555
Sm7_2 O8_2 1_555 1_555
O16_2 H11_2 1_555 1_555
H12_2 O16_2 1_555 1_555
O17_2 Sm3_2 1_555 1_555
H13_2 O17_2 1_555 1_555
H14_2 O17_2 1_555 1_555
O18_2 Sm3_2 1_555 1_555
H15_2 O18_2 1_555 1_555
H16_2 O18_2 1_555 1_555
O20_2 Sm3_2 1_555 1_555
O22_2 Sm12 1_555 1_555
O27_2 Sm12 1_555 1_555
O29_2 Sm3_2 1_555 1_555
O34 C30_2 1_555 1_555
O35_2 Sm12 1_555 1_555
O38 C31_2 1_555 1_555
O39_2 Sm3_2 1_555 1_555
O45 Sm3_2 1_555 1_555
N4_2 Sm3_2 1_555 1_555
C25_2 N7 1_555 1_555
C26_2 C25_2 1_555 1_555
H19_2 C26_2 1_555 1_555
C27_2 C26_2 1_555 1_555
C28_2 C27_2 1_555 1_555
H20_2 C28_2 1_555 1_555
C29_2 N7 1_555 1_555
C30_2 O32 1_555 1_555
C31_2 O39_2 1_555 1_555
C32_2 O41_2 1_555 1_555
C25_2 C30_2 1_555 1_555
C27_2 C31_2 1_555 1_555
C28_2 C29_2 1_555 1_555
C29_2 C32_2 1_555 1_555
Sm11 O5_2 1_555 1_555
O5_2 C6_2 1_555 1_555
C1_2 N4_2 1_555 1_555
C2_2 C1_2 1_555 1_555
C5_2 N4_2 1_555 1_555
C6_2 O20_2 1_555 1_555
C8_2 O29_2 1_555 1_555
Sm5_2 O19_2 1_555 1_555
O19_2 C22_2 1_555 1_555
O22_2 C22_2 1_555 1_555
O23_2 Sm11 1_555 1_555
O24_2 C23_2 1_555 1_555
O26_2 Sm11 1_555 1_555
O37_2 Sm11 1_555 1_555
O43_2 Sm11 1_555 1_555
N3_2 Sm5_2 1_555 1_555
C17_2 N3_2 1_555 1_555
C18_2 C17_2 1_555 1_555
H17_2 C18_2 1_555 1_555
C19_2 C18_2 1_555 1_555
C20_2 C19_2 1_555 1_555
C21_2 N3_2 1_555 1_555
C22_2 C17_2 1_555 1_555
C23_2 O23_2 1_555 1_555
C1_2 C6_2 1_555 1_555
C5_2 C8_2 1_555 1_555
C19_2 C23_2 1_555 1_555
C20_2 C21_2 1_555 1_555
Sm14_2 O25_2 1_555 1_555
O25_2 C24_2 1_555 1_555
C24_2 O28_2 1_555 1_555
H12_3 O16_3 1_555 1_555
O37 C31_3 1_555 1_555
C31_3 O39_3 1_555 1_555
O35 C30_3 1_555 1_555
C25_3 N6 1_555 1_555
C26_3 C25_3 1_555 1_555
H19_3 C26_3 1_555 1_555
C27_3 C26_3 1_555 1_555
C28_3 C27_3 1_555 1_555
H20_3 C28_3 1_555 1_555
C29_3 N6 1_555 1_555
C30_3 O31 1_555 1_555
O43 C32_3 1_555 1_555
C25_3 C30_3 1_555 1_555
C28_3 C29_3 1_555 1_555
C29_3 C32_3 1_555 1_555
O17_3 Sm5_2 1_555 1_555
H13_3 O17_3 1_555 1_555
H14_3 O17_3 1_555 1_555
O41_3 Sm5_2 1_555 1_555
H15_3 O18_3 1_555 1_555
Sm5 O16_4 1_555 1_555
H12_4 O16_4 1_555 1_555
O17_4 Sm5 1_555 1_555
H13_4 O17_4 1_555 1_555
H14_4 O17_4 1_555 1_555
O35_2 C30_4 1_555 1_555
O37_2 C31_4 1_555 1_555
O39_4 Sm5 1_555 1_555
O43_2 Sm5 1_555 1_555
C25_4 N6_2 1_555 1_555
C26_4 C25_4 1_555 1_555
H19_4 C26_4 1_555 1_555
C27_4 C26_4 1_555 1_555
C28_4 C27_4 1_555 1_555
H20_4 C28_4 1_555 1_555
C29_4 N6_2 1_555 1_555
C30_4 O31_2 1_555 1_555
C31_4 O39_4 1_555 1_555
C32_4 O41_4 1_555 1_555
C25_4 C30_4 1_555 1_555
C27_4 C31_4 1_555 1_555
C28_4 C29_4 1_555 1_555
C29_4 C32_4 1_555 1_555
H15_4 O18_4 1_555 1_555
O10 C14 1_555 1_555
O11 C14 1_555 1_555
O15 C16 1_555 1_555
N2 C9 1_555 1_555
C9 C10 1_555 1_555
C10 H9 1_555 1_555
C11 C10 1_555 1_555
C12 C11 1_555 1_555
H10 C12 1_555 1_555
C13 N2 1_555 1_555
C14 C9 1_555 1_555
C16 C13 1_555 1_555
Sm7 O10 1_555 1_555
Sm14 O11 1_555 1_555
O15 Sm7 1_555 1_555
N2 Sm7 1_555 1_555
C12 C13 1_555 1_555
O1 H1 1_555 1_555
H2 O1 1_555 1_555
O12 C15 1_555 1_555
C15 O13 1_555 1_555
Sm7 O12 1_555 1_555
C24_3 O28_3 1_555 1_555
Sm4 O14 1_555 1_555
Sm5_3 O19_3 1_555 1_555
Sm7_2 O21 1_555 1_555
O19_3 C22_3 1_555 1_555
O21 C22_3 1_555 1_555
N3_3 Sm5_3 1_555 1_555
C17_3 N3_3 1_555 1_555
C18_3 C17_3 1_555 1_555
C21_3 N3_3 1_555 1_555
C22_3 C17_3 1_555 1_555
Sm14_2 O5_3 1_555 1_555
O2 Sm4 1_555 1_555
H3 O2 1_555 1_555
H4 O2 1_555 1_555
O3 Sm4 1_555 1_555
H5 O3 1_555 1_555
H6 O3 1_555 1_555
O4 Sm4 1_555 1_555
O5_3 C6_3 1_555 1_555
O6_3 C7_3 1_555 1_555
O7_3 C7_3 1_555 1_555
O27_2 C8_3 1_555 1_555
O9 Sm4 1_555 1_555
N1 Sm4 1_555 1_555
C1_3 N1 1_555 1_555
C2_3 C1_3 1_555 1_555
H7_3 C2_3 1_555 1_555
C3_3 C2_3 1_555 1_555
C4_3 C3_3 1_555 1_555
H8_3 C4_3 1_555 1_555
C5_3 N1 1_555 1_555
C6_3 O4 1_555 1_555
C7_3 C3_3 1_555 1_555
C8_3 O9 1_555 1_555
Sm7_2 O6_3 1_555 1_555
O23_3 Sm14_2 1_555 1_555
O24_3 C23_3 1_555 1_555
O31_3 Sm14_2 1_555 1_555
O34_2 Sm14_2 1_555 1_555
O35_3 Sm7_2 1_555 1_555
O37_3 Sm14_2 1_555 1_555
O38_2 Sm7_2 1_555 1_555
O43_3 Sm14_2 1_555 1_555
O45_2 Sm7_2 1_555 1_555
N6_3 Sm14_2 1_555 1_555
C20_3 C19_3 1_555 1_555
C23_3 O23_3 1_555 1_555
C1_3 C6_3 1_555 1_555
C4_3 C5_3 1_555 1_555
C5_3 C8_3 1_555 1_555
C19_3 C23_3 1_555 1_555
O45_2 Sm4_2 1_555 1_555
O26 C24_4 1_555 1_555
C24_4 O28_4 1_555 1_555
Sm4_2 O1_2 1_555 1_555
Sm14 O5_4 1_555 1_555
O1_2 H1_2 1_555 1_555
H2_2 O1_2 1_555 1_555
O2_2 Sm4_2 1_555 1_555
H3_2 O2_2 1_555 1_555
H4_2 O2_2 1_555 1_555
O3_2 Sm4_2 1_555 1_555
H5_2 O3_2 1_555 1_555
H6_2 O3_2 1_555 1_555
O4_2 Sm4_2 1_555 1_555
O5_4 C6_4 1_555 1_555
O9_2 Sm4_2 1_555 1_555
O32_2 C14_2 1_555 1_555
O34_2 C14_2 1_555 1_555
O38_2 C15_2 1_555 1_555
O13_2 Sm4_2 1_555 1_555
O14_2 C16_2 1_555 1_555
N1_2 Sm4_2 1_555 1_555
N7_2 C9_2 1_555 1_555
C1_4 N1_2 1_555 1_555
C2_4 C1_4 1_555 1_555
C5_4 N1_2 1_555 1_555
C6_4 O4_2 1_555 1_555
C8_4 O9_2 1_555 1_555
C9_2 C10_2 1_555 1_555
C10_2 H9_2 1_555 1_555
C11_2 C10_2 1_555 1_555
C12_2 C11_2 1_555 1_555
H10_2 C12_2 1_555 1_555
C13_2 N7_2 1_555 1_555
C14_2 C9_2 1_555 1_555
C15_2 O13_2 1_555 1_555
C16_2 C13_2 1_555 1_555
Sm5_4 O19_4 1_555 1_555
Sm7 O21_2 1_555 1_555
O19_4 C22_4 1_555 1_555
O21_2 C22_4 1_555 1_555
O23_4 Sm14 1_555 1_555
O24_4 C23_4 1_555 1_555
O37_4 Sm14 1_555 1_555
O43_4 Sm14 1_555 1_555
N3_4 Sm5_4 1_555 1_555
C17_4 N3_4 1_555 1_555
C18_4 C17_4 1_555 1_555
H17_4 C18_4 1_555 1_555
C19_4 C18_4 1_555 1_555
C20_4 C19_4 1_555 1_555
C21_4 N3_4 1_555 1_555
C22_4 C17_4 1_555 1_555
C23_4 O23_4 1_555 1_555
C1_4 C6_4 1_555 1_555
C5_4 C8_4 1_555 1_555
C11_2 C15_2 1_555 1_555
C12_2 C13_2 1_555 1_555
C19_4 C23_4 1_555 1_555
C20_4 C21_4 1_555 1_555
O6_4 C7_4 1_555 1_555
O7_4 C7_4 1_555 1_555
C4_4 C3_4 1_555 1_555
H8_4 C4_4 1_555 1_555
C7_4 C3_4 1_555 1_555
Sm7 O6_4 1_555 1_555
O35_4 Sm7 1_555 1_555
Sm5_4 O14_3 1_555 1_555
H5_3 O3_3 1_555 1_555
O2_3 Sm5_4 1_555 1_555
H3_3 O2_3 1_555 1_555
H4_3 O2_3 1_555 1_555
O31_3 C14_3 1_555 1_555
O35_3 C14_3 1_555 1_555
O43_3 C16_3 1_555 1_555
N6_3 C9_3 1_555 1_555
C9_3 C10_3 1_555 1_555
C10_3 H9_3 1_555 1_555
C11_3 C10_3 1_555 1_555
C12_3 C11_3 1_555 1_555
H10_3 C12_3 1_555 1_555
C13_3 N6_3 1_555 1_555
C14_3 C9_3 1_555 1_555
C16_3 C13_3 1_555 1_555
C12_3 C13_3 1_555 1_555
H2_3 O1_3 1_555 1_555
O37_3 C15_3 1_555 1_555
C15_3 O13_3 1_555 1_555
O43_4 Sm5_3 1_555 1_555
H5_4 O3_4 1_555 1_555
Sm5_3 O1_4 1_555 1_555
H2_4 O1_4 1_555 1_555
O2_4 Sm5_3 1_555 1_555
H3_4 O2_4 1_555 1_555
H4_4 O2_4 1_555 1_555
O31_4 C14_4 1_555 1_555
O35_4 C14_4 1_555 1_555
O37_4 C15_4 1_555 1_555
O13_4 Sm5_3 1_555 1_555
O14_4 C16_4 1_555 1_555
N6_4 C9_4 1_555 1_555
C9_4 C10_4 1_555 1_555
C10_4 H9_4 1_555 1_555
C11_4 C10_4 1_555 1_555
C12_4 C11_4 1_555 1_555
H10_4 C12_4 1_555 1_555
C13_4 N6_4 1_555 1_555
C14_4 C9_4 1_555 1_555
C15_4 O13_4 1_555 1_555
C16_4 C13_4 1_555 1_555
C11_4 C15_4 1_555 1_555
C12_4 C13_4 1_555 1_555

#END
