
###############################################################################
#
# This file contains modified crystal structure data generated from the
# MOF subset of the Cambridge Structural Database (CSD) v543 
# hosted by the Cambridge Crystallographic Data Centre (CCDC).
#
# This work is licensed under the Creative Commons
# Attribution-NonCommercial-ShareAlike 4.0 International License.
# To view a copy of this license, visit
# http://creativecommons.org/licenses/by-nc-sa/4.0/
# or send a letter to
# Creative Commons, PO Box 1866, Mountain View, CA 94042, USA.
#
# CIF created using the CSD Python API on 29 September 2022
# The structure has been converted into the P1 space group
# The structure has a 3D framework
# The original CSD entry KOLPUX is in the monoclinic crystal system
# The framework has been calculated to contain at least 10.0% void space
# The void calculation uses a probe of radius 1.32A, grid spacing 0.4
#
###############################################################################

data_KOLPUX
_chemical_formula_moiety         '(C128 H80 Eu16 N16 O108)n'
_symmetry_cell_setting           triclinic
_symmetry_space_group_name_H-M   'P 1'
_symmetry_Int_Tables_number      1
_space_group_name_Hall           'P 1'
loop_
_symmetry_equiv_pos_site_id
_symmetry_equiv_pos_as_xyz
1 x,y,z
_cell_length_a                   22.2466(18)
_cell_length_b                   9.3529(7)
_cell_length_c                   22.4043(18)
_cell_angle_alpha                90
_cell_angle_beta                 103.0670(10)
_cell_angle_gamma                90
_cell_volume                     4540.96
loop_
_atom_site_label
_atom_site_type_symbol
_atom_site_fract_x
_atom_site_fract_y
_atom_site_fract_z
Eu3 Eu 0.046064(14) 0.27302(3) 0.432336(14)
O17 O 0.1247(2) 0.0963(6) 0.4264(2)
H13 H 0.1337 0.0833 0.3919
H14 H 0.1354 0.0226 0.4485
O18 O 0.0579(2) 0.0856(6) 0.5125(2)
H15 H 0.0374 0.0638 0.5389
H16 H 0.0608 0.0088 0.4931
O20 O 0.0723(2) 0.3032(5) 0.3345(2)
O29 O 0.0953(2) 0.3856(5) 0.52845(19)
O32 O 0.2664(2) 0.0353(5) 0.2830(2)
O41 O 0.02837(19) 0.5419(5) 0.4133(2)
N4 N 0.1438(2) 0.4108(6) 0.4335(2)
N7 N 0.3818(2) 0.1154(5) 0.3217(2)
Eu2 Eu 0.154393(14) 0.35922(3) 0.178937(13)
O5 O 0.1312(2) 0.3917(5) 0.2750(2)
O6 O 0.3175(3) 0.6862(6) 0.3858(2)
O7 O 0.3542(2) 0.6273(6) 0.4828(2)
O8 O 0.1676(2) 0.5252(5) 0.58599(19)
C1 C 0.1633(3) 0.4273(7) 0.3818(3)
C2 C 0.2169(3) 0.5003(8) 0.3800(3)
H7 H 0.2293 0.5121 0.3433
C3 C 0.2524(3) 0.5566(7) 0.4355(3)
C4 C 0.2307(3) 0.5403(8) 0.4887(3)
H8 H 0.2530 0.5764 0.5258
C5 C 0.1756(3) 0.4696(7) 0.4854(3)
C6 C 0.1189(3) 0.3681(7) 0.3255(3)
C7 C 0.3134(3) 0.6300(7) 0.4345(3)
C8 C 0.1440(3) 0.4577(7) 0.5383(3)
Eu6 Eu 0.345607(14) 0.85922(3) 0.321063(13)
Eu7 Eu 0.154393(14) 0.64078(3) 0.678937(13)
O22 O 0.3688(2) 0.8917(5) 0.2250(2)
O23 O 0.1825(3) 0.1862(6) 0.1142(2)
O24 O 0.1458(2) 0.1273(6) 0.0172(2)
O26 O 0.1676(2) 0.4748(5) 0.08599(19)
O27 O 0.3324(2) 0.9748(5) 0.41401(19)
O31 O 0.2336(2) 0.5353(5) 0.2170(2)
O34 O 0.2385(2) 0.2514(5) 0.2451(3)
O35 O 0.2615(2) 0.7514(5) 0.2549(3)
O37 O 0.1011(2) 0.1429(5) 0.1909(2)
O38 O 0.3989(2) 0.6429(5) 0.3091(2)
O43 O 0.04640(19) 0.4032(4) 0.13515(19)
O45 O 0.45360(19) 0.9032(4) 0.36485(19)
N6 N 0.1182(2) 0.6154(5) 0.1783(2)
C18 C 0.2831(3) 0.0003(8) 0.1200(3)
H17 H 0.2707 0.0121 0.1567
C19 C 0.2476(3) 0.0566(7) 0.0645(3)
C20 C 0.2693(3) 0.0403(8) 0.0113(3)
C23 C 0.1866(3) 0.1300(7) 0.0655(3)
Eu14 Eu 0.345607(14) 0.14078(3) 0.821063(13)
O25 O 0.3324(2) 0.0252(5) 0.91401(19)
H18 H 0.2470 0.0764 0.9742
Eu5 Eu 0.453936(14) 0.77302(3) 0.067664(14)
O19 O 0.4277(2) 0.8032(5) 0.1655(2)
N3 N 0.3562(2) 0.9108(6) 0.0665(2)
C17 C 0.3367(3) 0.9273(7) 0.1182(3)
C21 C 0.3244(3) 0.9696(7) 0.0146(3)
C22 C 0.3811(3) 0.8681(7) 0.1745(3)
O28 O 0.4047(2) 0.8856(5) 0.97155(19)
C24 C 0.3560(3) 0.9577(7) 0.9617(3)
Eu12 Eu 0.845607(14) 0.35922(3) 0.321063(13)
O16 O 0.9628(2) 0.2850(5) 0.4872(2)
H11 H 0.9660 0.3269 0.5214
H12 H 0.9263 0.2531 0.4757
O36 O 0.8989(2) 0.1429(5) 0.3091(2)
O39 O 0.9793(2) 0.0847(5) 0.3853(2)
O44 O 0.95360(19) 0.4032(4) 0.36485(19)
C31 C 0.9328(3) 0.0561(7) 0.3431(3)
Eu11 Eu 0.654393(14) 0.85922(3) 0.178937(13)
O30 O 0.7664(2) 0.5353(5) 0.2830(2)
O33 O 0.7385(2) 0.7514(5) 0.2451(3)
N5 N 0.8818(2) 0.6154(5) 0.3217(2)
C25 C 0.8409(3) 0.7187(6) 0.3005(3)
C26 C 0.8564(3) 0.8613(7) 0.3055(3)
H19 H 0.8273 0.9310 0.2897
C27 C 0.9163(3) 0.8990(7) 0.3345(3)
C28 C 0.9584(3) 0.7928(7) 0.3575(3)
H20 H 0.9988 0.8149 0.3771
C29 C 0.9386(3) 0.6530(7) 0.3505(3)
C30 C 0.7767(3) 0.6648(7) 0.2741(3)
C32 C 0.9773(3) 0.5274(7) 0.3783(3)
O41_2 O 0.52837(19) 0.0419(5) 0.4133(2)
O6_2 O 0.8175(3) 0.1862(6) 0.3858(2)
O7_2 O 0.8542(2) 0.1273(6) 0.4828(2)
O8_2 O 0.6676(2) 0.0252(5) 0.58599(19)
C2_2 C 0.7169(3) 0.0003(8) 0.3800(3)
H7_2 H 0.7293 0.0121 0.3433
C3_2 C 0.7524(3) 0.0566(7) 0.4355(3)
C4_2 C 0.7307(3) 0.0403(8) 0.4887(3)
H8_2 H 0.7530 0.0764 0.5258
C7_2 C 0.8134(3) 0.1300(7) 0.4345(3)
Eu3_2 Eu 0.546064(14) 0.77302(3) 0.432336(14)
Eu7_2 Eu 0.654393(14) 0.14078(3) 0.678937(13)
O16_2 O 0.4628(2) 0.7850(5) 0.4872(2)
H11_2 H 0.4660 0.8269 0.5214
H12_2 H 0.4263 0.7531 0.4757
O17_2 O 0.6247(2) 0.5963(6) 0.4264(2)
H13_2 H 0.6337 0.5833 0.3919
H14_2 H 0.6354 0.5226 0.4485
O18_2 O 0.5579(2) 0.5856(6) 0.5125(2)
H15_2 H 0.5374 0.5638 0.5389
H16_2 H 0.5608 0.5088 0.4931
O20_2 O 0.5723(2) 0.8032(5) 0.3345(2)
O22_2 O 0.8688(2) 0.3917(5) 0.2250(2)
O27_2 O 0.8324(2) 0.4748(5) 0.41401(19)
O29_2 O 0.5953(2) 0.8856(5) 0.52845(19)
O31_2 O 0.7336(2) 0.0353(5) 0.2170(2)
O35_2 O 0.7615(2) 0.2514(5) 0.2549(3)
O39_2 O 0.4793(2) 0.5847(5) 0.3853(2)
N4_2 N 0.6438(2) 0.9108(6) 0.4335(2)
N6_2 N 0.6182(2) 0.1154(5) 0.1783(2)
C25_2 C 0.3409(3) 0.2187(6) 0.3005(3)
C26_2 C 0.3564(3) 0.3613(7) 0.3055(3)
H19_2 H 0.3273 0.4310 0.2897
C27_2 C 0.4163(3) 0.3990(7) 0.3345(3)
C28_2 C 0.4584(3) 0.2928(7) 0.3575(3)
H20_2 H 0.4988 0.3149 0.3771
C29_2 C 0.4386(3) 0.1530(7) 0.3505(3)
C30_2 C 0.2767(3) 0.1648(7) 0.2741(3)
C31_2 C 0.4328(3) 0.5561(7) 0.3431(3)
C32_2 C 0.4773(3) 0.0274(7) 0.3783(3)
O5_2 O 0.6312(2) 0.8917(5) 0.2750(2)
C1_2 C 0.6633(3) 0.9273(7) 0.3818(3)
C5_2 C 0.6756(3) 0.9696(7) 0.4854(3)
C6_2 C 0.6189(3) 0.8681(7) 0.3255(3)
C8_2 C 0.6440(3) 0.9577(7) 0.5383(3)
Eu5_2 Eu 0.953936(14) 0.27302(3) 0.067664(14)
O19_2 O 0.9277(2) 0.3032(5) 0.1655(2)
O23_2 O 0.6825(3) 0.6862(6) 0.1142(2)
O24_2 O 0.6458(2) 0.6273(6) 0.0172(2)
O26_2 O 0.6676(2) 0.9748(5) 0.08599(19)
O37_2 O 0.6011(2) 0.6429(5) 0.1909(2)
O43_2 O 0.54640(19) 0.9032(4) 0.13515(19)
N3_2 N 0.8562(2) 0.4108(6) 0.0665(2)
C17_2 C 0.8367(3) 0.4273(7) 0.1182(3)
C18_2 C 0.7831(3) 0.5003(8) 0.1200(3)
H17_2 H 0.7707 0.5121 0.1567
C19_2 C 0.7476(3) 0.5566(7) 0.0645(3)
C20_2 C 0.7693(3) 0.5403(8) 0.0113(3)
C21_2 C 0.8244(3) 0.4696(7) 0.0146(3)
C22_2 C 0.8811(3) 0.3681(7) 0.1745(3)
C23_2 C 0.6866(3) 0.6300(7) 0.0655(3)
Eu14_2 Eu 0.845607(14) 0.64078(3) 0.821063(13)
O25_2 O 0.8324(2) 0.5252(5) 0.91401(19)
O28_2 O 0.9047(2) 0.3856(5) 0.97155(19)
H18_2 H 0.7470 0.5764 0.9742
C24_2 C 0.8560(3) 0.4577(7) 0.9617(3)
O16_3 O 0.0372(2) 0.2850(5) 0.0128(2)
H12_3 H 0.0737 0.2531 0.0243
O39_3 O 0.0207(2) 0.0847(5) 0.1147(2)
C31_3 C 0.0672(3) 0.0561(7) 0.1569(3)
C25_3 C 0.1591(3) 0.7187(6) 0.1995(3)
C26_3 C 0.1436(3) 0.8613(7) 0.1945(3)
H19_3 H 0.1727 0.9310 0.2103
C27_3 C 0.0837(3) 0.8990(7) 0.1655(3)
C28_3 C 0.0416(3) 0.7928(7) 0.1425(3)
H20_3 H 0.0012 0.8149 0.1229
C29_3 C 0.0614(3) 0.6530(7) 0.1495(3)
C30_3 C 0.2233(3) 0.6648(7) 0.2259(3)
C32_3 C 0.0227(3) 0.5274(7) 0.1217(3)
O17_3 O 0.8753(2) 0.0963(6) 0.0736(2)
H13_3 H 0.8663 0.0833 0.1081
H14_3 H 0.8646 0.0226 0.0515
H16_3 H 0.9392 0.0088 0.0069
O41_3 O 0.97163(19) 0.5419(5) 0.0867(2)
O18_3 O 0.9421(2) 0.0856(6) 0.9875(2)
H15_3 H 0.9626 0.0638 0.9611
O41_4 O 0.47163(19) 0.0419(5) 0.0867(2)
O16_4 O 0.5372(2) 0.7850(5) 0.0128(2)
H12_4 H 0.5737 0.7531 0.0243
O17_4 O 0.3753(2) 0.5963(6) 0.0736(2)
H13_4 H 0.3663 0.5833 0.1081
H14_4 H 0.3646 0.5226 0.0515
H16_4 H 0.4392 0.5088 0.0069
O39_4 O 0.5207(2) 0.5847(5) 0.1147(2)
C25_4 C 0.6591(3) 0.2187(6) 0.1995(3)
C26_4 C 0.6436(3) 0.3613(7) 0.1945(3)
H19_4 H 0.6727 0.4310 0.2103
C27_4 C 0.5837(3) 0.3990(7) 0.1655(3)
C28_4 C 0.5416(3) 0.2928(7) 0.1425(3)
H20_4 H 0.5012 0.3149 0.1229
C29_4 C 0.5614(3) 0.1530(7) 0.1495(3)
C30_4 C 0.7233(3) 0.1648(7) 0.2259(3)
C31_4 C 0.5672(3) 0.5561(7) 0.1569(3)
C32_4 C 0.5227(3) 0.0274(7) 0.1217(3)
H11_3 H 0.5340 0.8269 0.9786
O18_4 O 0.4421(2) 0.5856(6) 0.9875(2)
H15_4 H 0.4626 0.5638 0.9611
O10 O 0.2336(2) 0.4647(5) 0.7170(2)
O11 O 0.2615(2) 0.2486(5) 0.7549(3)
O15 O 0.04640(19) 0.5968(4) 0.63515(19)
N2 N 0.1182(2) 0.3846(5) 0.6783(2)
C9 C 0.1591(3) 0.2813(6) 0.6995(3)
C10 C 0.1436(3) 0.1387(7) 0.6945(3)
H9 H 0.1727 0.0690 0.7103
C11 C 0.0837(3) 0.1010(7) 0.6655(3)
C12 C 0.0416(3) 0.2072(7) 0.6425(3)
H10 H 0.0012 0.1851 0.6229
C13 C 0.0614(3) 0.3470(7) 0.6495(3)
C14 C 0.2233(3) 0.3352(7) 0.7259(3)
C16 C 0.0227(3) 0.4726(7) 0.6217(3)
O1 O 0.0372(2) 0.7150(5) 0.5128(2)
H1 H 0.0340 0.6731 0.4786
H2 H 0.0737 0.7469 0.5243
O12 O 0.1011(2) 0.8571(5) 0.6909(2)
O13 O 0.0207(2) 0.9153(5) 0.6147(2)
C15 C 0.0672(3) 0.9439(7) 0.6569(3)
O28_3 O 0.5953(2) 0.1144(5) 0.02845(19)
C24_3 C 0.6440(3) 0.0423(7) 0.0383(3)
O14 O 0.97163(19) 0.4581(5) 0.5867(2)
Eu4 Eu 0.953936(14) 0.72698(3) 0.567664(14)
Eu5_3 Eu 0.546064(14) 0.22698(3) 0.932336(14)
O19_3 O 0.5723(2) 0.1968(5) 0.8345(2)
O21 O 0.6312(2) 0.1083(5) 0.7750(2)
N3_3 N 0.6438(2) 0.0892(6) 0.9335(2)
C17_3 C 0.6633(3) 0.0727(7) 0.8818(3)
C21_3 C 0.6756(3) 0.0304(7) 0.9854(3)
C22_3 C 0.6189(3) 0.1319(7) 0.8255(3)
H18_3 H 0.7530 0.9236 0.0258
O2 O 0.8753(2) 0.9037(6) 0.5736(2)
H3 H 0.8663 0.9167 0.6081
H4 H 0.8646 0.9774 0.5515
O3 O 0.9421(2) 0.9144(6) 0.4875(2)
H5 H 0.9626 0.9362 0.4611
H6 H 0.9392 0.9912 0.5069
O4 O 0.9277(2) 0.6968(5) 0.6655(2)
O5_3 O 0.8688(2) 0.6083(5) 0.7250(2)
O6_3 O 0.6825(3) 0.3138(6) 0.6142(2)
O7_3 O 0.6458(2) 0.3727(6) 0.5172(2)
O9 O 0.9047(2) 0.6144(5) 0.47155(19)
N1 N 0.8562(2) 0.5892(6) 0.5665(2)
C1_3 C 0.8367(3) 0.5727(7) 0.6182(3)
C2_3 C 0.7831(3) 0.4997(8) 0.6200(3)
H7_3 H 0.7707 0.4879 0.6567
C3_3 C 0.7476(3) 0.4434(7) 0.5645(3)
C4_3 C 0.7693(3) 0.4597(8) 0.5113(3)
H8_3 H 0.7470 0.4236 0.4742
C5_3 C 0.8244(3) 0.5304(7) 0.5146(3)
C6_3 C 0.8811(3) 0.6319(7) 0.6745(3)
C7_3 C 0.6866(3) 0.3700(7) 0.5655(3)
C8_3 C 0.8560(3) 0.5423(7) 0.4617(3)
O23_3 O 0.8175(3) 0.8138(6) 0.8858(2)
O24_3 O 0.8542(2) 0.8727(6) 0.9828(2)
O31_3 O 0.7664(2) 0.4647(5) 0.7830(2)
O34_2 O 0.7615(2) 0.7486(5) 0.7549(3)
O35_3 O 0.7385(2) 0.2486(5) 0.7451(3)
O37_3 O 0.8989(2) 0.8571(5) 0.8091(2)
O38_2 O 0.6011(2) 0.3571(5) 0.6909(2)
O43_3 O 0.95360(19) 0.5968(4) 0.86485(19)
O45_2 O 0.54640(19) 0.0968(4) 0.63515(19)
N6_3 N 0.8818(2) 0.3846(5) 0.8217(2)
C18_3 C 0.7169(3) 0.9997(8) 0.8800(3)
H17_3 H 0.7293 0.9879 0.8433
C19_3 C 0.7524(3) 0.9434(7) 0.9355(3)
C20_3 C 0.7307(3) 0.9597(8) 0.9887(3)
C23_3 C 0.8134(3) 0.8700(7) 0.9345(3)
O32_2 O 0.7336(2) 0.9647(5) 0.7170(2)
N7_2 N 0.6182(2) 0.8846(5) 0.6783(2)
Eu4_2 Eu 0.453936(14) 0.22698(3) 0.567664(14)
O28_4 O 0.0953(2) 0.6144(5) 0.02845(19)
H18_4 H 0.2530 0.4236 0.0258
C24_4 C 0.1440(3) 0.5423(7) 0.0383(3)
O1_2 O 0.5372(2) 0.2150(5) 0.5128(2)
H1_2 H 0.5340 0.1731 0.4786
H2_2 H 0.5737 0.2469 0.5243
O2_2 O 0.3753(2) 0.4037(6) 0.5736(2)
H3_2 H 0.3663 0.4167 0.6081
H4_2 H 0.3646 0.4774 0.5515
O3_2 O 0.4421(2) 0.4144(6) 0.4875(2)
H5_2 H 0.4626 0.4362 0.4611
H6_2 H 0.4392 0.4912 0.5069
O4_2 O 0.4277(2) 0.1968(5) 0.6655(2)
O5_4 O 0.3688(2) 0.1083(5) 0.7250(2)
O9_2 O 0.4047(2) 0.1144(5) 0.47155(19)
O13_2 O 0.5207(2) 0.4153(5) 0.6147(2)
O14_2 O 0.47163(19) 0.9581(5) 0.5867(2)
N1_2 N 0.3562(2) 0.0892(6) 0.5665(2)
C1_4 C 0.3367(3) 0.0727(7) 0.6182(3)
C5_4 C 0.3244(3) 0.0304(7) 0.5146(3)
C6_4 C 0.3811(3) 0.1319(7) 0.6745(3)
C8_4 C 0.3560(3) 0.0423(7) 0.4617(3)
C9_2 C 0.6591(3) 0.7813(6) 0.6995(3)
C10_2 C 0.6436(3) 0.6387(7) 0.6945(3)
H9_2 H 0.6727 0.5690 0.7103
C11_2 C 0.5837(3) 0.6010(7) 0.6655(3)
C12_2 C 0.5416(3) 0.7072(7) 0.6425(3)
H10_2 H 0.5012 0.6851 0.6229
C13_2 C 0.5614(3) 0.8470(7) 0.6495(3)
C14_2 C 0.7233(3) 0.8352(7) 0.7259(3)
C15_2 C 0.5672(3) 0.4439(7) 0.6569(3)
C16_2 C 0.5227(3) 0.9726(7) 0.6217(3)
Eu5_4 Eu 0.046064(14) 0.72698(3) 0.932336(14)
O19_4 O 0.0723(2) 0.6968(5) 0.8345(2)
O21_2 O 0.1312(2) 0.6083(5) 0.7750(2)
O23_4 O 0.3175(3) 0.3138(6) 0.8858(2)
O24_4 O 0.3542(2) 0.3727(6) 0.9828(2)
O37_4 O 0.3989(2) 0.3571(5) 0.8091(2)
O43_4 O 0.45360(19) 0.0968(4) 0.86485(19)
N3_4 N 0.1438(2) 0.5892(6) 0.9335(2)
C17_4 C 0.1633(3) 0.5727(7) 0.8818(3)
C18_4 C 0.2169(3) 0.4997(8) 0.8800(3)
H17_4 H 0.2293 0.4879 0.8433
C19_4 C 0.2524(3) 0.4434(7) 0.9355(3)
C20_4 C 0.2307(3) 0.4597(8) 0.9887(3)
C21_4 C 0.1756(3) 0.5304(7) 0.9854(3)
C22_4 C 0.1189(3) 0.6319(7) 0.8255(3)
C23_4 C 0.3134(3) 0.3700(7) 0.9345(3)
O6_4 O 0.1825(3) 0.8138(6) 0.6142(2)
O7_4 O 0.1458(2) 0.8727(6) 0.5172(2)
C2_4 C 0.2831(3) 0.9997(8) 0.6200(3)
H7_4 H 0.2707 0.9879 0.6567
C3_4 C 0.2476(3) 0.9434(7) 0.5645(3)
C4_4 C 0.2693(3) 0.9597(8) 0.5113(3)
H8_4 H 0.2470 0.9236 0.4742
C7_4 C 0.1866(3) 0.8700(7) 0.5655(3)
O31_4 O 0.2664(2) 0.9647(5) 0.7830(2)
O35_4 O 0.2385(2) 0.7486(5) 0.7451(3)
N6_4 N 0.3818(2) 0.8846(5) 0.8217(2)
O14_3 O 0.02837(19) 0.4581(5) 0.9133(2)
O3_3 O 0.0579(2) 0.9144(6) 0.0125(2)
H5_3 H 0.0374 0.9362 0.0389
O2_3 O 0.1247(2) 0.9037(6) 0.9264(2)
H3_3 H 0.1337 0.9167 0.8919
H4_3 H 0.1354 0.9774 0.9485
H6_3 H 0.0608 0.9912 0.9931
C9_3 C 0.8409(3) 0.2813(6) 0.8005(3)
C10_3 C 0.8564(3) 0.1387(7) 0.8055(3)
H9_3 H 0.8273 0.0690 0.7897
C11_3 C 0.9163(3) 0.1010(7) 0.8345(3)
C12_3 C 0.9584(3) 0.2072(7) 0.8575(3)
H10_3 H 0.9988 0.1851 0.8771
C13_3 C 0.9386(3) 0.3470(7) 0.8505(3)
C14_3 C 0.7767(3) 0.3352(7) 0.7741(3)
C16_3 C 0.9773(3) 0.4726(7) 0.8783(3)
O1_3 O 0.9628(2) 0.7150(5) 0.9872(2)
H2_3 H 0.9263 0.7469 0.9757
O13_3 O 0.9793(2) 0.9153(5) 0.8853(2)
C15_3 C 0.9328(3) 0.9439(7) 0.8431(3)
H1_3 H 0.4660 0.1731 0.0214
O3_4 O 0.5579(2) 0.4144(6) 0.0125(2)
H5_4 H 0.5374 0.4362 0.0389
O1_4 O 0.4628(2) 0.2150(5) 0.9872(2)
H2_4 H 0.4263 0.2469 0.9757
O2_4 O 0.6247(2) 0.4037(6) 0.9264(2)
H3_4 H 0.6337 0.4167 0.8919
H4_4 H 0.6354 0.4774 0.9485
H6_4 H 0.5608 0.4912 0.9931
O13_4 O 0.4793(2) 0.4153(5) 0.8853(2)
O14_4 O 0.52837(19) 0.9581(5) 0.9133(2)
C9_4 C 0.3409(3) 0.7813(6) 0.8005(3)
C10_4 C 0.3564(3) 0.6387(7) 0.8055(3)
H9_4 H 0.3273 0.5690 0.7897
C11_4 C 0.4163(3) 0.6010(7) 0.8345(3)
C12_4 C 0.4584(3) 0.7072(7) 0.8575(3)
H10_4 H 0.4988 0.6851 0.8771
C13_4 C 0.4386(3) 0.8470(7) 0.8505(3)
C14_4 C 0.2767(3) 0.8352(7) 0.7741(3)
C15_4 C 0.4328(3) 0.4439(7) 0.8431(3)
C16_4 C 0.4773(3) 0.9726(7) 0.8783(3)
H11_4 H 0.0340 0.3269 0.9786
H1_4 H 0.9660 0.6731 0.0214
loop_
_geom_bond_atom_site_label_1
_geom_bond_atom_site_label_2
_geom_bond_site_symmetry_1
_geom_bond_site_symmetry_2
O17 Eu3 1_555 1_555
H13 O17 1_555 1_555
H14 O17 1_555 1_555
O18 Eu3 1_555 1_555
H15 O18 1_555 1_555
H16 O18 1_555 1_555
O20 Eu3 1_555 1_555
O29 Eu3 1_555 1_555
O41 Eu3 1_555 1_555
N4 Eu3 1_555 1_555
Eu2 O5 1_555 1_555
O5 C6 1_555 1_555
O6 C7 1_555 1_555
O7 C7 1_555 1_555
O8 C8 1_555 1_555
C1 N4 1_555 1_555
C2 C1 1_555 1_555
H7 C2 1_555 1_555
C3 C2 1_555 1_555
C4 C3 1_555 1_555
H8 C4 1_555 1_555
C5 N4 1_555 1_555
C6 O20 1_555 1_555
C7 C3 1_555 1_555
C8 O29 1_555 1_555
Eu6 O6 1_555 1_555
Eu7 O8 1_555 1_555
O22 Eu6 1_555 1_555
O23 Eu2 1_555 1_555
O24 C23 1_555 1_555
O26 Eu2 1_555 1_555
O27 Eu6 1_555 1_555
O31 Eu2 1_555 1_555
O34 Eu2 1_555 1_555
O35 Eu6 1_555 1_555
O37 Eu2 1_555 1_555
O38 Eu6 1_555 1_555
O43 Eu2 1_555 1_555
O45 Eu6 1_555 1_555
N6 Eu2 1_555 1_555
H17 C18 1_555 1_555
C19 C18 1_555 1_555
C20 C19 1_555 1_555
C23 O23 1_555 1_555
C1 C6 1_555 1_555
C4 C5 1_555 1_555
C5 C8 1_555 1_555
C19 C23 1_555 1_555
Eu14 O25 1_555 1_555
Eu5 O19 1_555 1_555
O19 C22 1_555 1_555
O22 C22 1_555 1_555
N3 Eu5 1_555 1_555
C17 N3 1_555 1_555
C21 N3 1_555 1_555
C22 C17 1_555 1_555
C24 O28 1_555 1_555
Eu12 O36 1_555 1_555
O16 H11 1_555 1_555
H12 O16 1_555 1_555
O36 C31 1_555 1_555
C31 O39 1_555 1_555
Eu12 O44 1_555 1_555
Eu11 O33 1_555 1_555
O30 Eu12 1_555 1_555
O33 C30 1_555 1_555
N5 Eu12 1_555 1_555
C25 N5 1_555 1_555
C26 C25 1_555 1_555
H19 C26 1_555 1_555
C27 C26 1_555 1_555
C28 C27 1_555 1_555
H20 C28 1_555 1_555
C29 N5 1_555 1_555
C30 O30 1_555 1_555
O44 C32 1_555 1_555
C25 C30 1_555 1_555
C28 C29 1_555 1_555
C29 C32 1_555 1_555
O6_2 C7_2 1_555 1_555
O7_2 C7_2 1_555 1_555
H7_2 C2_2 1_555 1_555
C3_2 C2_2 1_555 1_555
C4_2 C3_2 1_555 1_555
H8_2 C4_2 1_555 1_555
C7_2 C3_2 1_555 1_555
Eu3_2 O16_2 1_555 1_555
Eu12 O6_2 1_555 1_555
Eu7_2 O8_2 1_555 1_555
O16_2 H11_2 1_555 1_555
H12_2 O16_2 1_555 1_555
O17_2 Eu3_2 1_555 1_555
H13_2 O17_2 1_555 1_555
H14_2 O17_2 1_555 1_555
O18_2 Eu3_2 1_555 1_555
H15_2 O18_2 1_555 1_555
H16_2 O18_2 1_555 1_555
O20_2 Eu3_2 1_555 1_555
O22_2 Eu12 1_555 1_555
O27_2 Eu12 1_555 1_555
O29_2 Eu3_2 1_555 1_555
O34 C30_2 1_555 1_555
O35_2 Eu12 1_555 1_555
O38 C31_2 1_555 1_555
O39_2 Eu3_2 1_555 1_555
O45 Eu3_2 1_555 1_555
N4_2 Eu3_2 1_555 1_555
C25_2 N7 1_555 1_555
C26_2 C25_2 1_555 1_555
H19_2 C26_2 1_555 1_555
C27_2 C26_2 1_555 1_555
C28_2 C27_2 1_555 1_555
H20_2 C28_2 1_555 1_555
C29_2 N7 1_555 1_555
C30_2 O32 1_555 1_555
C31_2 O39_2 1_555 1_555
C32_2 O41_2 1_555 1_555
C25_2 C30_2 1_555 1_555
C27_2 C31_2 1_555 1_555
C28_2 C29_2 1_555 1_555
C29_2 C32_2 1_555 1_555
Eu11 O5_2 1_555 1_555
O5_2 C6_2 1_555 1_555
C1_2 N4_2 1_555 1_555
C5_2 N4_2 1_555 1_555
C6_2 O20_2 1_555 1_555
C8_2 O29_2 1_555 1_555
Eu5_2 O19_2 1_555 1_555
O19_2 C22_2 1_555 1_555
O22_2 C22_2 1_555 1_555
O23_2 Eu11 1_555 1_555
O24_2 C23_2 1_555 1_555
O26_2 Eu11 1_555 1_555
O37_2 Eu11 1_555 1_555
O43_2 Eu11 1_555 1_555
N3_2 Eu5_2 1_555 1_555
C17_2 N3_2 1_555 1_555
C18_2 C17_2 1_555 1_555
H17_2 C18_2 1_555 1_555
C19_2 C18_2 1_555 1_555
C20_2 C19_2 1_555 1_555
C21_2 N3_2 1_555 1_555
C22_2 C17_2 1_555 1_555
C23_2 O23_2 1_555 1_555
C1_2 C6_2 1_555 1_555
C5_2 C8_2 1_555 1_555
C19_2 C23_2 1_555 1_555
C20_2 C21_2 1_555 1_555
Eu14_2 O25_2 1_555 1_555
O25_2 C24_2 1_555 1_555
C24_2 O28_2 1_555 1_555
H12_3 O16_3 1_555 1_555
O37 C31_3 1_555 1_555
C31_3 O39_3 1_555 1_555
O35 C30_3 1_555 1_555
C25_3 N6 1_555 1_555
C26_3 C25_3 1_555 1_555
H19_3 C26_3 1_555 1_555
C27_3 C26_3 1_555 1_555
C28_3 C27_3 1_555 1_555
H20_3 C28_3 1_555 1_555
C29_3 N6 1_555 1_555
C30_3 O31 1_555 1_555
O43 C32_3 1_555 1_555
C25_3 C30_3 1_555 1_555
C28_3 C29_3 1_555 1_555
C29_3 C32_3 1_555 1_555
O17_3 Eu5_2 1_555 1_555
H13_3 O17_3 1_555 1_555
H14_3 O17_3 1_555 1_555
O41_3 Eu5_2 1_555 1_555
H15_3 O18_3 1_555 1_555
Eu5 O16_4 1_555 1_555
H12_4 O16_4 1_555 1_555
O17_4 Eu5 1_555 1_555
H13_4 O17_4 1_555 1_555
H14_4 O17_4 1_555 1_555
O35_2 C30_4 1_555 1_555
O37_2 C31_4 1_555 1_555
O39_4 Eu5 1_555 1_555
O43_2 Eu5 1_555 1_555
C25_4 N6_2 1_555 1_555
C26_4 C25_4 1_555 1_555
H19_4 C26_4 1_555 1_555
C27_4 C26_4 1_555 1_555
C28_4 C27_4 1_555 1_555
H20_4 C28_4 1_555 1_555
C29_4 N6_2 1_555 1_555
C30_4 O31_2 1_555 1_555
C31_4 O39_4 1_555 1_555
C32_4 O41_4 1_555 1_555
C25_4 C30_4 1_555 1_555
C27_4 C31_4 1_555 1_555
C28_4 C29_4 1_555 1_555
C29_4 C32_4 1_555 1_555
H15_4 O18_4 1_555 1_555
O10 C14 1_555 1_555
O11 C14 1_555 1_555
O15 C16 1_555 1_555
N2 C9 1_555 1_555
C9 C10 1_555 1_555
C10 H9 1_555 1_555
C11 C10 1_555 1_555
C12 C11 1_555 1_555
H10 C12 1_555 1_555
C13 N2 1_555 1_555
C14 C9 1_555 1_555
C16 C13 1_555 1_555
Eu7 O10 1_555 1_555
Eu14 O11 1_555 1_555
O15 Eu7 1_555 1_555
N2 Eu7 1_555 1_555
C12 C13 1_555 1_555
O1 H1 1_555 1_555
H2 O1 1_555 1_555
O12 C15 1_555 1_555
C15 O13 1_555 1_555
Eu7 O12 1_555 1_555
C24_3 O28_3 1_555 1_555
Eu4 O14 1_555 1_555
Eu5_3 O19_3 1_555 1_555
Eu7_2 O21 1_555 1_555
O19_3 C22_3 1_555 1_555
O21 C22_3 1_555 1_555
N3_3 Eu5_3 1_555 1_555
C17_3 N3_3 1_555 1_555
C21_3 N3_3 1_555 1_555
C22_3 C17_3 1_555 1_555
Eu14_2 O5_3 1_555 1_555
O2 Eu4 1_555 1_555
H3 O2 1_555 1_555
H4 O2 1_555 1_555
O3 Eu4 1_555 1_555
H5 O3 1_555 1_555
H6 O3 1_555 1_555
O4 Eu4 1_555 1_555
O5_3 C6_3 1_555 1_555
O6_3 C7_3 1_555 1_555
O7_3 C7_3 1_555 1_555
O27_2 C8_3 1_555 1_555
O9 Eu4 1_555 1_555
N1 Eu4 1_555 1_555
C1_3 N1 1_555 1_555
C2_3 C1_3 1_555 1_555
H7_3 C2_3 1_555 1_555
C3_3 C2_3 1_555 1_555
C4_3 C3_3 1_555 1_555
H8_3 C4_3 1_555 1_555
C5_3 N1 1_555 1_555
C6_3 O4 1_555 1_555
C7_3 C3_3 1_555 1_555
C8_3 O9 1_555 1_555
Eu7_2 O6_3 1_555 1_555
O23_3 Eu14_2 1_555 1_555
O24_3 C23_3 1_555 1_555
O31_3 Eu14_2 1_555 1_555
O34_2 Eu14_2 1_555 1_555
O35_3 Eu7_2 1_555 1_555
O37_3 Eu14_2 1_555 1_555
O38_2 Eu7_2 1_555 1_555
O43_3 Eu14_2 1_555 1_555
O45_2 Eu7_2 1_555 1_555
N6_3 Eu14_2 1_555 1_555
H17_3 C18_3 1_555 1_555
C19_3 C18_3 1_555 1_555
C20_3 C19_3 1_555 1_555
C23_3 O23_3 1_555 1_555
C1_3 C6_3 1_555 1_555
C4_3 C5_3 1_555 1_555
C5_3 C8_3 1_555 1_555
C19_3 C23_3 1_555 1_555
O45_2 Eu4_2 1_555 1_555
O26 C24_4 1_555 1_555
C24_4 O28_4 1_555 1_555
Eu4_2 O1_2 1_555 1_555
Eu14 O5_4 1_555 1_555
O1_2 H1_2 1_555 1_555
H2_2 O1_2 1_555 1_555
O2_2 Eu4_2 1_555 1_555
H3_2 O2_2 1_555 1_555
H4_2 O2_2 1_555 1_555
O3_2 Eu4_2 1_555 1_555
H5_2 O3_2 1_555 1_555
H6_2 O3_2 1_555 1_555
O4_2 Eu4_2 1_555 1_555
O5_4 C6_4 1_555 1_555
O9_2 Eu4_2 1_555 1_555
O32_2 C14_2 1_555 1_555
O34_2 C14_2 1_555 1_555
O38_2 C15_2 1_555 1_555
O13_2 Eu4_2 1_555 1_555
O14_2 C16_2 1_555 1_555
N1_2 Eu4_2 1_555 1_555
N7_2 C9_2 1_555 1_555
C1_4 N1_2 1_555 1_555
C5_4 N1_2 1_555 1_555
C6_4 O4_2 1_555 1_555
C8_4 O9_2 1_555 1_555
C9_2 C10_2 1_555 1_555
C10_2 H9_2 1_555 1_555
C11_2 C10_2 1_555 1_555
C12_2 C11_2 1_555 1_555
H10_2 C12_2 1_555 1_555
C13_2 N7_2 1_555 1_555
C14_2 C9_2 1_555 1_555
C15_2 O13_2 1_555 1_555
C16_2 C13_2 1_555 1_555
Eu5_4 O19_4 1_555 1_555
Eu7 O21_2 1_555 1_555
O19_4 C22_4 1_555 1_555
O21_2 C22_4 1_555 1_555
O23_4 Eu14 1_555 1_555
O24_4 C23_4 1_555 1_555
O37_4 Eu14 1_555 1_555
O43_4 Eu14 1_555 1_555
N3_4 Eu5_4 1_555 1_555
C17_4 N3_4 1_555 1_555
C18_4 C17_4 1_555 1_555
H17_4 C18_4 1_555 1_555
C19_4 C18_4 1_555 1_555
C20_4 C19_4 1_555 1_555
C21_4 N3_4 1_555 1_555
C22_4 C17_4 1_555 1_555
C23_4 O23_4 1_555 1_555
C1_4 C6_4 1_555 1_555
C5_4 C8_4 1_555 1_555
C11_2 C15_2 1_555 1_555
C12_2 C13_2 1_555 1_555
C19_4 C23_4 1_555 1_555
C20_4 C21_4 1_555 1_555
O6_4 C7_4 1_555 1_555
O7_4 C7_4 1_555 1_555
H7_4 C2_4 1_555 1_555
C3_4 C2_4 1_555 1_555
C4_4 C3_4 1_555 1_555
H8_4 C4_4 1_555 1_555
C7_4 C3_4 1_555 1_555
Eu7 O6_4 1_555 1_555
O35_4 Eu7 1_555 1_555
Eu5_4 O14_3 1_555 1_555
H5_3 O3_3 1_555 1_555
O2_3 Eu5_4 1_555 1_555
H3_3 O2_3 1_555 1_555
H4_3 O2_3 1_555 1_555
O31_3 C14_3 1_555 1_555
O35_3 C14_3 1_555 1_555
O43_3 C16_3 1_555 1_555
N6_3 C9_3 1_555 1_555
C9_3 C10_3 1_555 1_555
C10_3 H9_3 1_555 1_555
C11_3 C10_3 1_555 1_555
C12_3 C11_3 1_555 1_555
H10_3 C12_3 1_555 1_555
C13_3 N6_3 1_555 1_555
C14_3 C9_3 1_555 1_555
C16_3 C13_3 1_555 1_555
C12_3 C13_3 1_555 1_555
H2_3 O1_3 1_555 1_555
O37_3 C15_3 1_555 1_555
C15_3 O13_3 1_555 1_555
O43_4 Eu5_3 1_555 1_555
H5_4 O3_4 1_555 1_555
Eu5_3 O1_4 1_555 1_555
H2_4 O1_4 1_555 1_555
O2_4 Eu5_3 1_555 1_555
H3_4 O2_4 1_555 1_555
H4_4 O2_4 1_555 1_555
O31_4 C14_4 1_555 1_555
O35_4 C14_4 1_555 1_555
O37_4 C15_4 1_555 1_555
O13_4 Eu5_3 1_555 1_555
O14_4 C16_4 1_555 1_555
N6_4 C9_4 1_555 1_555
C9_4 C10_4 1_555 1_555
C10_4 H9_4 1_555 1_555
C11_4 C10_4 1_555 1_555
C12_4 C11_4 1_555 1_555
H10_4 C12_4 1_555 1_555
C13_4 N6_4 1_555 1_555
C14_4 C9_4 1_555 1_555
C15_4 O13_4 1_555 1_555
C16_4 C13_4 1_555 1_555
C11_4 C15_4 1_555 1_555
C12_4 C13_4 1_555 1_555

#END
