
###############################################################################
#
# This file contains modified crystal structure data generated from the
# MOF subset of the Cambridge Structural Database (CSD) v543 
# hosted by the Cambridge Crystallographic Data Centre (CCDC).
#
# This work is licensed under the Creative Commons
# Attribution-NonCommercial-ShareAlike 4.0 International License.
# To view a copy of this license, visit
# http://creativecommons.org/licenses/by-nc-sa/4.0/
# or send a letter to
# Creative Commons, PO Box 1866, Mountain View, CA 94042, USA.
#
# CIF created using the CSD Python API on 29 September 2022
# The structure has been converted into the P1 space group
# The structure has a 3D framework
# The original CSD entry KOLQIM is in the monoclinic crystal system
# The framework has been calculated to contain at least 10.0% void space
# The void calculation uses a probe of radius 1.32A, grid spacing 0.4
#
###############################################################################

data_KOLQIM
_chemical_formula_moiety         '(C128 H64 Ho16 N16 O104)n'
_symmetry_cell_setting           triclinic
_symmetry_space_group_name_H-M   'P 1'
_symmetry_Int_Tables_number      1
_space_group_name_Hall           'P 1'
loop_
_symmetry_equiv_pos_site_id
_symmetry_equiv_pos_as_xyz
1 x,y,z
_cell_length_a                   21.721(8)
_cell_length_b                   9.202(4)
_cell_length_c                   22.347(9)
_cell_angle_alpha                90
_cell_angle_beta                 101.243(6)
_cell_angle_gamma                90
_cell_volume                     4380.92
loop_
_atom_site_label
_atom_site_type_symbol
_atom_site_fract_x
_atom_site_fract_y
_atom_site_fract_z
Ho3 Ho 0.045266(9) 0.31018(2) 0.423288(9)
O16 O 0.11525(17) 0.1180(4) 0.44166(16)
H11 H 0.1288 0.0910 0.4102
H12 H 0.1202 0.0516 0.4686
O18 O 0.07407(16) 0.3422(4) 0.32927(14)
O25 O 0.32601(15) 0.0050(4) 0.41346(14)
O27 O 0.09465(15) 0.3889(4) 0.52240(14)
O30 O 0.26364(14) 0.0692(3) 0.28585(14)
O39 O 0.02820(14) 0.5759(3) 0.41385(14)
N4 N 0.14737(17) 0.4278(4) 0.42923(16)
N7 N 0.37960(17) 0.1501(4) 0.32400(16)
Ho2 Ho 0.156078(9) 0.39203(2) 0.176175(8)
O4 O 0.13697(17) 0.4360(4) 0.27124(14)
O5 O 0.32871(18) 0.7149(4) 0.39173(17)
O6 O 0.36866(17) 0.6084(5) 0.47890(18)
O7 O 0.17399(15) 0.4950(4) 0.58654(14)
C1 C 0.1688(2) 0.4528(5) 0.3778(2)
C2 C 0.2254(2) 0.5201(5) 0.3783(2)
H5 H 0.2389 0.5381 0.3420
C3 C 0.2625(2) 0.5610(5) 0.4343(2)
C4 C 0.2395(2) 0.5362(5) 0.4875(2)
H6 H 0.2628 0.5629 0.5253
C5 C 0.1811(2) 0.4713(5) 0.48289(19)
C6 C 0.1234(2) 0.4062(5) 0.3209(2)
C7 C 0.3254(2) 0.6344(5) 0.4357(2)
C8 C 0.1476(2) 0.4495(5) 0.5352(2)
Ho6 Ho 0.343922(9) 0.89203(2) 0.323825(8)
Ho7 Ho 0.156078(9) 0.60797(2) 0.676175(8)
O20 O 0.36303(17) 0.9360(4) 0.22876(14)
O21 O 0.17129(18) 0.2149(4) 0.10827(17)
O22 O 0.13134(17) 0.1084(5) 0.02110(18)
O24 O 0.17399(15) 0.5050(4) 0.08654(14)
O29 O 0.23636(14) 0.5692(3) 0.21415(14)
O32 O 0.24003(16) 0.2749(4) 0.23440(17)
O33 O 0.25997(16) 0.7749(4) 0.26560(17)
O35 O 0.10035(16) 0.1859(3) 0.19662(16)
O36 O 0.39965(16) 0.6859(3) 0.30338(16)
O41 O 0.04944(14) 0.4352(3) 0.12951(14)
O43 O 0.45056(14) 0.9352(3) 0.37049(14)
N6 N 0.12040(17) 0.6501(4) 0.17600(16)
C18 C 0.2746(2) 0.0201(5) 0.1217(2)
H13 H 0.2611 0.0381 0.1580
C19 C 0.2375(2) 0.0610(5) 0.0657(2)
C20 C 0.2605(2) 0.0362(5) 0.0125(2)
C23 C 0.1746(2) 0.1344(5) 0.0643(2)
Ho14 Ho 0.343922(9) 0.10797(2) 0.823825(8)
H14 H 0.2372 0.0629 0.9747
Ho5 Ho 0.454734(9) 0.81018(2) 0.076712(9)
O17 O 0.42593(16) 0.8422(4) 0.17073(14)
N3 N 0.35263(17) 0.9278(4) 0.07077(16)
C17 C 0.3312(2) 0.9528(5) 0.1222(2)
C21 C 0.3189(2) 0.9713(5) 0.01711(19)
C22 C 0.3766(2) 0.9062(5) 0.1791(2)
O23 O 0.32601(15) 0.9950(4) 0.91346(14)
O26 O 0.40535(15) 0.8889(4) 0.97760(14)
C24 C 0.3524(2) 0.9495(5) 0.9648(2)
Ho12 Ho 0.843922(9) 0.39203(2) 0.323825(8)
O15 O 0.97793(16) 0.2498(4) 0.48728(15)
H9 H 0.9749 0.2970 0.5193
H10 H 0.9450 0.1994 0.4755
O34 O 0.89965(16) 0.1859(3) 0.30338(16)
O37 O 0.98559(16) 0.1262(4) 0.37216(16)
O42 O 0.95056(14) 0.4352(3) 0.37049(14)
C31 C 0.9357(2) 0.0972(5) 0.3356(2)
Ho11 Ho 0.656078(9) 0.89203(2) 0.176175(8)
O28 O 0.76364(14) 0.5692(3) 0.28585(14)
O31 O 0.74003(16) 0.7749(4) 0.23440(17)
N5 N 0.87960(17) 0.6501(4) 0.32400(16)
C25 C 0.8400(2) 0.7540(5) 0.2983(2)
C26 C 0.8566(2) 0.8988(5) 0.3001(2)
H15 H 0.8285 0.9687 0.2813
C27 C 0.9164(2) 0.9383(5) 0.3308(2)
C28 C 0.9575(2) 0.8314(5) 0.3585(2)
H16 H 0.9975 0.8552 0.3796
C29 C 0.9372(2) 0.6884(5) 0.3536(2)
C30 C 0.7759(2) 0.6960(5) 0.2706(2)
C32 C 0.9747(2) 0.5608(5) 0.38084(19)
O39_2 O 0.52820(14) 0.0759(3) 0.41385(14)
O5_2 O 0.82871(18) 0.2149(4) 0.39173(17)
O6_2 O 0.86866(17) 0.1084(5) 0.47890(18)
C2_2 C 0.7254(2) 0.0201(5) 0.3783(2)
H5_2 H 0.7389 0.0381 0.3420
C3_2 C 0.7625(2) 0.0610(5) 0.4343(2)
C4_2 C 0.7395(2) 0.0362(5) 0.4875(2)
H6_2 H 0.7628 0.0629 0.5253
C7_2 C 0.8254(2) 0.1344(5) 0.4357(2)
Ho3_2 Ho 0.545266(9) 0.81018(2) 0.423288(9)
Ho7_2 Ho 0.656078(9) 0.10797(2) 0.676175(8)
O15_2 O 0.47793(16) 0.7498(4) 0.48728(15)
H9_2 H 0.4749 0.7970 0.5193
H10_2 H 0.4450 0.6994 0.4755
O16_2 O 0.61525(17) 0.6180(4) 0.44166(16)
H11_2 H 0.6288 0.5910 0.4102
H12_2 H 0.6202 0.5516 0.4686
O18_2 O 0.57407(16) 0.8422(4) 0.32927(14)
O20_2 O 0.86303(17) 0.4360(4) 0.22876(14)
O24_2 O 0.67399(15) 0.0050(4) 0.08654(14)
O25_2 O 0.82601(15) 0.5050(4) 0.41346(14)
O27_2 O 0.59465(15) 0.8889(4) 0.52240(14)
O29_2 O 0.73636(14) 0.0692(3) 0.21415(14)
O33_2 O 0.75997(16) 0.2749(4) 0.26560(17)
O37_2 O 0.48559(16) 0.6262(4) 0.37216(16)
N4_2 N 0.64737(17) 0.9278(4) 0.42923(16)
N6_2 N 0.62040(17) 0.1501(4) 0.17600(16)
C25_2 C 0.3400(2) 0.2540(5) 0.2983(2)
C26_2 C 0.3566(2) 0.3988(5) 0.3001(2)
H15_2 H 0.3285 0.4687 0.2813
C27_2 C 0.4164(2) 0.4383(5) 0.3308(2)
C28_2 C 0.4575(2) 0.3314(5) 0.3585(2)
H16_2 H 0.4975 0.3552 0.3796
C29_2 C 0.4372(2) 0.1884(5) 0.3536(2)
C30_2 C 0.2759(2) 0.1960(5) 0.2706(2)
C31_2 C 0.4357(2) 0.5972(5) 0.3356(2)
C32_2 C 0.4747(2) 0.0608(5) 0.38084(19)
O4_2 O 0.63697(17) 0.9360(4) 0.27124(14)
O7_2 O 0.67399(15) 0.9950(4) 0.58654(14)
C1_2 C 0.6688(2) 0.9528(5) 0.3778(2)
C5_2 C 0.6811(2) 0.9713(5) 0.48289(19)
C6_2 C 0.6234(2) 0.9062(5) 0.3209(2)
C8_2 C 0.6476(2) 0.9495(5) 0.5352(2)
Ho5_2 Ho 0.954734(9) 0.31018(2) 0.076712(9)
O17_2 O 0.92593(16) 0.3422(4) 0.17073(14)
O21_2 O 0.67129(18) 0.7149(4) 0.10827(17)
O22_2 O 0.63134(17) 0.6084(5) 0.02110(18)
O35_2 O 0.60035(16) 0.6859(3) 0.19662(16)
O41_2 O 0.54944(14) 0.9352(3) 0.12951(14)
N3_2 N 0.85263(17) 0.4278(4) 0.07077(16)
C17_2 C 0.8312(2) 0.4528(5) 0.1222(2)
C18_2 C 0.7746(2) 0.5201(5) 0.1217(2)
H13_2 H 0.7611 0.5381 0.1580
C19_2 C 0.7375(2) 0.5610(5) 0.0657(2)
C20_2 C 0.7605(2) 0.5362(5) 0.0125(2)
C21_2 C 0.8189(2) 0.4713(5) 0.01711(19)
C22_2 C 0.8766(2) 0.4062(5) 0.1791(2)
C23_2 C 0.6746(2) 0.6344(5) 0.0643(2)
Ho14_2 Ho 0.843922(9) 0.60797(2) 0.823825(8)
O23_2 O 0.82601(15) 0.4950(4) 0.91346(14)
O26_2 O 0.90535(15) 0.3889(4) 0.97760(14)
H14_2 H 0.7372 0.5629 0.9747
C24_2 C 0.8524(2) 0.4495(5) 0.9648(2)
O15_3 O 0.02207(16) 0.2498(4) 0.01272(15)
H10_3 H 0.0550 0.1994 0.0245
O37_3 O 0.01441(16) 0.1262(4) 0.12784(16)
C31_3 C 0.0643(2) 0.0972(5) 0.1644(2)
C25_3 C 0.1600(2) 0.7540(5) 0.2017(2)
C26_3 C 0.1434(2) 0.8988(5) 0.1999(2)
H15_3 H 0.1715 0.9687 0.2187
C27_3 C 0.0836(2) 0.9383(5) 0.1692(2)
C28_3 C 0.0425(2) 0.8314(5) 0.1415(2)
H16_3 H 0.0025 0.8552 0.1204
C29_3 C 0.0628(2) 0.6884(5) 0.1464(2)
C30_3 C 0.2241(2) 0.6960(5) 0.2294(2)
C32_3 C 0.0253(2) 0.5608(5) 0.11916(19)
O16_3 O 0.88475(17) 0.1180(4) 0.05834(16)
H11_3 H 0.8712 0.0910 0.0898
H12_3 H 0.8798 0.0516 0.0314
O39_3 O 0.97180(14) 0.5759(3) 0.08615(14)
O39_4 O 0.47180(14) 0.0759(3) 0.08615(14)
O15_4 O 0.52207(16) 0.7498(4) 0.01272(15)
H10_4 H 0.5550 0.6994 0.0245
O16_4 O 0.38475(17) 0.6180(4) 0.05834(16)
H11_4 H 0.3712 0.5910 0.0898
H12_4 H 0.3798 0.5516 0.0314
O37_4 O 0.51441(16) 0.6262(4) 0.12784(16)
C25_4 C 0.6600(2) 0.2540(5) 0.2017(2)
C26_4 C 0.6434(2) 0.3988(5) 0.1999(2)
H15_4 H 0.6715 0.4687 0.2187
C27_4 C 0.5836(2) 0.4383(5) 0.1692(2)
C28_4 C 0.5425(2) 0.3314(5) 0.1415(2)
H16_4 H 0.5025 0.3552 0.1204
C29_4 C 0.5628(2) 0.1884(5) 0.1464(2)
C30_4 C 0.7241(2) 0.1960(5) 0.2294(2)
C31_4 C 0.5643(2) 0.5972(5) 0.1644(2)
C32_4 C 0.5253(2) 0.0608(5) 0.11916(19)
H9_3 H 0.5251 0.7970 0.9807
O9 O 0.23636(14) 0.4308(3) 0.71415(14)
O10 O 0.25997(16) 0.2251(4) 0.76560(17)
O14 O 0.04944(14) 0.5648(3) 0.62951(14)
N2 N 0.12040(17) 0.3499(4) 0.67600(16)
C9 C 0.1600(2) 0.2460(5) 0.7017(2)
C10 C 0.1434(2) 0.1012(5) 0.6999(2)
H7 H 0.1715 0.0313 0.7187
C11 C 0.0836(2) 0.0617(5) 0.6692(2)
C12 C 0.0425(2) 0.1686(5) 0.6415(2)
H8 H 0.0025 0.1448 0.6204
C13 C 0.0628(2) 0.3116(5) 0.6464(2)
C14 C 0.2241(2) 0.3040(5) 0.7294(2)
C16 C 0.0253(2) 0.4392(5) 0.61916(19)
O1 O 0.02207(16) 0.7502(4) 0.51272(15)
H1 H 0.0251 0.7030 0.4807
H2 H 0.0550 0.8006 0.5245
O11 O 0.10035(16) 0.8141(3) 0.69662(16)
O12 O 0.01441(16) 0.8738(4) 0.62784(16)
C15 C 0.0643(2) 0.9028(5) 0.6644(2)
O26_3 O 0.59465(15) 0.1111(4) 0.02240(14)
C24_3 C 0.6476(2) 0.0505(5) 0.0352(2)
O13 O 0.97180(14) 0.4241(3) 0.58615(14)
Ho4 Ho 0.954734(9) 0.68982(2) 0.576712(9)
Ho5_3 Ho 0.545266(9) 0.18982(2) 0.923288(9)
O17_3 O 0.57407(16) 0.1578(4) 0.82927(14)
O19 O 0.63697(17) 0.0640(4) 0.77124(14)
N3_3 N 0.64737(17) 0.0722(4) 0.92923(16)
C17_3 C 0.6688(2) 0.0472(5) 0.8778(2)
C21_3 C 0.6811(2) 0.0287(5) 0.98289(19)
C22_3 C 0.6234(2) 0.0938(5) 0.8209(2)
H14_3 H 0.7628 0.9371 0.0253
O2 O 0.88475(17) 0.8820(4) 0.55834(16)
H3 H 0.8712 0.9090 0.5898
H4 H 0.8798 0.9484 0.5314
O3 O 0.92593(16) 0.6578(4) 0.67073(14)
O4_3 O 0.86303(17) 0.5640(4) 0.72876(14)
O5_3 O 0.67129(18) 0.2851(4) 0.60827(17)
O6_3 O 0.63134(17) 0.3916(5) 0.52110(18)
O8 O 0.90535(15) 0.6111(4) 0.47760(14)
N1 N 0.85263(17) 0.5722(4) 0.57077(16)
C1_3 C 0.8312(2) 0.5472(5) 0.6222(2)
C2_3 C 0.7746(2) 0.4799(5) 0.6217(2)
H5_3 H 0.7611 0.4619 0.6580
C3_3 C 0.7375(2) 0.4390(5) 0.5657(2)
C4_3 C 0.7605(2) 0.4638(5) 0.5125(2)
H6_3 H 0.7372 0.4371 0.4747
C5_3 C 0.8189(2) 0.5287(5) 0.51711(19)
C6_3 C 0.8766(2) 0.5938(5) 0.6791(2)
C7_3 C 0.6746(2) 0.3656(5) 0.5643(2)
C8_3 C 0.8524(2) 0.5505(5) 0.4648(2)
O21_3 O 0.82871(18) 0.7851(4) 0.89173(17)
O22_3 O 0.86866(17) 0.8916(5) 0.97890(18)
O29_3 O 0.76364(14) 0.4308(3) 0.78585(14)
O32_2 O 0.75997(16) 0.7251(4) 0.76560(17)
O33_3 O 0.74003(16) 0.2251(4) 0.73440(17)
O35_3 O 0.89965(16) 0.8141(3) 0.80338(16)
O36_2 O 0.60035(16) 0.3141(3) 0.69662(16)
O41_3 O 0.95056(14) 0.5648(3) 0.87049(14)
O43_2 O 0.54944(14) 0.0648(3) 0.62951(14)
N6_3 N 0.87960(17) 0.3499(4) 0.82400(16)
C18_3 C 0.7254(2) 0.9799(5) 0.8783(2)
H13_3 H 0.7389 0.9619 0.8420
C19_3 C 0.7625(2) 0.9390(5) 0.9343(2)
C20_3 C 0.7395(2) 0.9638(5) 0.9875(2)
C23_3 C 0.8254(2) 0.8656(5) 0.9357(2)
O30_2 O 0.73636(14) 0.9308(3) 0.71415(14)
N7_2 N 0.62040(17) 0.8499(4) 0.67600(16)
Ho4_2 Ho 0.454734(9) 0.18982(2) 0.576712(9)
O26_4 O 0.09465(15) 0.6111(4) 0.02240(14)
H14_4 H 0.2628 0.4371 0.0253
C24_4 C 0.1476(2) 0.5505(5) 0.0352(2)
O1_2 O 0.52207(16) 0.2502(4) 0.51272(15)
H1_2 H 0.5251 0.2030 0.4807
H2_2 H 0.5550 0.3006 0.5245
O2_2 O 0.38475(17) 0.3820(4) 0.55834(16)
H3_2 H 0.3712 0.4090 0.5898
H4_2 H 0.3798 0.4484 0.5314
O3_2 O 0.42593(16) 0.1578(4) 0.67073(14)
O4_4 O 0.36303(17) 0.0640(4) 0.72876(14)
O8_2 O 0.40535(15) 0.1111(4) 0.47760(14)
O12_2 O 0.51441(16) 0.3738(4) 0.62784(16)
O13_2 O 0.47180(14) 0.9241(3) 0.58615(14)
N1_2 N 0.35263(17) 0.0722(4) 0.57077(16)
C1_4 C 0.3312(2) 0.0472(5) 0.6222(2)
C5_4 C 0.3189(2) 0.0287(5) 0.51711(19)
C6_4 C 0.3766(2) 0.0938(5) 0.6791(2)
C8_4 C 0.3524(2) 0.0505(5) 0.4648(2)
C9_2 C 0.6600(2) 0.7460(5) 0.7017(2)
C10_2 C 0.6434(2) 0.6012(5) 0.6999(2)
H7_2 H 0.6715 0.5313 0.7187
C11_2 C 0.5836(2) 0.5617(5) 0.6692(2)
C12_2 C 0.5425(2) 0.6686(5) 0.6415(2)
H8_2 H 0.5025 0.6448 0.6204
C13_2 C 0.5628(2) 0.8116(5) 0.6464(2)
C14_2 C 0.7241(2) 0.8040(5) 0.7294(2)
C15_2 C 0.5643(2) 0.4028(5) 0.6644(2)
C16_2 C 0.5253(2) 0.9392(5) 0.61916(19)
Ho5_4 Ho 0.045266(9) 0.68982(2) 0.923288(9)
O17_4 O 0.07407(16) 0.6578(4) 0.82927(14)
O19_2 O 0.13697(17) 0.5640(4) 0.77124(14)
O21_4 O 0.32871(18) 0.2851(4) 0.89173(17)
O22_4 O 0.36866(17) 0.3916(5) 0.97890(18)
O35_4 O 0.39965(16) 0.3141(3) 0.80338(16)
O41_4 O 0.45056(14) 0.0648(3) 0.87049(14)
N3_4 N 0.14737(17) 0.5722(4) 0.92923(16)
C17_4 C 0.1688(2) 0.5472(5) 0.8778(2)
C18_4 C 0.2254(2) 0.4799(5) 0.8783(2)
H13_4 H 0.2389 0.4619 0.8420
C19_4 C 0.2625(2) 0.4390(5) 0.9343(2)
C20_4 C 0.2395(2) 0.4638(5) 0.9875(2)
C21_4 C 0.1811(2) 0.5287(5) 0.98289(19)
C22_4 C 0.1234(2) 0.5938(5) 0.8209(2)
C23_4 C 0.3254(2) 0.3656(5) 0.9357(2)
O5_4 O 0.17129(18) 0.7851(4) 0.60827(17)
O6_4 O 0.13134(17) 0.8916(5) 0.52110(18)
C2_4 C 0.2746(2) 0.9799(5) 0.6217(2)
H5_4 H 0.2611 0.9619 0.6580
C3_4 C 0.2375(2) 0.9390(5) 0.5657(2)
C4_4 C 0.2605(2) 0.9638(5) 0.5125(2)
H6_4 H 0.2372 0.9371 0.4747
C7_4 C 0.1746(2) 0.8656(5) 0.5643(2)
O29_4 O 0.26364(14) 0.9308(3) 0.78585(14)
O33_4 O 0.24003(16) 0.7251(4) 0.73440(17)
N6_4 N 0.37960(17) 0.8499(4) 0.82400(16)
O13_3 O 0.02820(14) 0.4241(3) 0.91385(14)
O2_3 O 0.11525(17) 0.8820(4) 0.94166(16)
H3_3 H 0.1288 0.9090 0.9102
H4_3 H 0.1202 0.9484 0.9686
C9_3 C 0.8400(2) 0.2460(5) 0.7983(2)
C10_3 C 0.8566(2) 0.1012(5) 0.8001(2)
H7_3 H 0.8285 0.0313 0.7813
C11_3 C 0.9164(2) 0.0617(5) 0.8308(2)
C12_3 C 0.9575(2) 0.1686(5) 0.8585(2)
H8_3 H 0.9975 0.1448 0.8796
C13_3 C 0.9372(2) 0.3116(5) 0.8536(2)
C14_3 C 0.7759(2) 0.3040(5) 0.7706(2)
C16_3 C 0.9747(2) 0.4392(5) 0.88084(19)
O1_3 O 0.97793(16) 0.7502(4) 0.98728(15)
H2_3 H 0.9450 0.8006 0.9755
O12_3 O 0.98559(16) 0.8738(4) 0.87216(16)
C15_3 C 0.9357(2) 0.9028(5) 0.8356(2)
H1_3 H 0.4749 0.2030 0.0193
O1_4 O 0.47793(16) 0.2502(4) 0.98728(15)
H2_4 H 0.4450 0.3006 0.9755
O2_4 O 0.61525(17) 0.3820(4) 0.94166(16)
H3_4 H 0.6288 0.4090 0.9102
H4_4 H 0.6202 0.4484 0.9686
O12_4 O 0.48559(16) 0.3738(4) 0.87216(16)
O13_4 O 0.52820(14) 0.9241(3) 0.91385(14)
C9_4 C 0.3400(2) 0.7460(5) 0.7983(2)
C10_4 C 0.3566(2) 0.6012(5) 0.8001(2)
H7_4 H 0.3285 0.5313 0.7813
C11_4 C 0.4164(2) 0.5617(5) 0.8308(2)
C12_4 C 0.4575(2) 0.6686(5) 0.8585(2)
H8_4 H 0.4975 0.6448 0.8796
C13_4 C 0.4372(2) 0.8116(5) 0.8536(2)
C14_4 C 0.2759(2) 0.8040(5) 0.7706(2)
C15_4 C 0.4357(2) 0.4028(5) 0.8356(2)
C16_4 C 0.4747(2) 0.9392(5) 0.88084(19)
H9_4 H 0.0251 0.2970 0.9807
H1_4 H 0.9749 0.7030 0.0193
loop_
_geom_bond_atom_site_label_1
_geom_bond_atom_site_label_2
_geom_bond_site_symmetry_1
_geom_bond_site_symmetry_2
O16 Ho3 1_555 1_555
H11 O16 1_555 1_555
H12 O16 1_555 1_555
O18 Ho3 1_555 1_555
O27 Ho3 1_555 1_555
O39 Ho3 1_555 1_555
N4 Ho3 1_555 1_555
Ho2 O4 1_555 1_555
O4 C6 1_555 1_555
O5 C7 1_555 1_555
O6 C7 1_555 1_555
O7 C8 1_555 1_555
C1 N4 1_555 1_555
C2 C1 1_555 1_555
H5 C2 1_555 1_555
C3 C2 1_555 1_555
C4 C3 1_555 1_555
H6 C4 1_555 1_555
C5 N4 1_555 1_555
C6 O18 1_555 1_555
C7 C3 1_555 1_555
C8 O27 1_555 1_555
Ho6 O5 1_555 1_555
Ho7 O7 1_555 1_555
O20 Ho6 1_555 1_555
O21 Ho2 1_555 1_555
O22 C23 1_555 1_555
O24 Ho2 1_555 1_555
O29 Ho2 1_555 1_555
O32 Ho2 1_555 1_555
O33 Ho6 1_555 1_555
O35 Ho2 1_555 1_555
O36 Ho6 1_555 1_555
O41 Ho2 1_555 1_555
O43 Ho6 1_555 1_555
N6 Ho2 1_555 1_555
H13 C18 1_555 1_555
C19 C18 1_555 1_555
C20 C19 1_555 1_555
C23 O21 1_555 1_555
C1 C6 1_555 1_555
C4 C5 1_555 1_555
C5 C8 1_555 1_555
C19 C23 1_555 1_555
Ho5 O17 1_555 1_555
O17 C22 1_555 1_555
O20 C22 1_555 1_555
N3 Ho5 1_555 1_555
C17 N3 1_555 1_555
C21 N3 1_555 1_555
C22 C17 1_555 1_555
O23 C24 1_555 1_555
C24 O26 1_555 1_555
Ho12 O34 1_555 1_555
O15 H9 1_555 1_555
H10 O15 1_555 1_555
O34 C31 1_555 1_555
C31 O37 1_555 1_555
Ho12 O42 1_555 1_555
Ho11 O31 1_555 1_555
O28 Ho12 1_555 1_555
O31 C30 1_555 1_555
N5 Ho12 1_555 1_555
C25 N5 1_555 1_555
C26 C25 1_555 1_555
H15 C26 1_555 1_555
C27 C26 1_555 1_555
C28 C27 1_555 1_555
H16 C28 1_555 1_555
C29 N5 1_555 1_555
C30 O28 1_555 1_555
O42 C32 1_555 1_555
C25 C30 1_555 1_555
C28 C29 1_555 1_555
C29 C32 1_555 1_555
O5_2 C7_2 1_555 1_555
O6_2 C7_2 1_555 1_555
H5_2 C2_2 1_555 1_555
C3_2 C2_2 1_555 1_555
C4_2 C3_2 1_555 1_555
H6_2 C4_2 1_555 1_555
C7_2 C3_2 1_555 1_555
Ho3_2 O15_2 1_555 1_555
Ho12 O5_2 1_555 1_555
O15_2 H9_2 1_555 1_555
H10_2 O15_2 1_555 1_555
O16_2 Ho3_2 1_555 1_555
H11_2 O16_2 1_555 1_555
H12_2 O16_2 1_555 1_555
O18_2 Ho3_2 1_555 1_555
O20_2 Ho12 1_555 1_555
O25_2 Ho12 1_555 1_555
O27_2 Ho3_2 1_555 1_555
O32 C30_2 1_555 1_555
O33_2 Ho12 1_555 1_555
O36 C31_2 1_555 1_555
O37_2 Ho3_2 1_555 1_555
O43 Ho3_2 1_555 1_555
N4_2 Ho3_2 1_555 1_555
C25_2 N7 1_555 1_555
C26_2 C25_2 1_555 1_555
H15_2 C26_2 1_555 1_555
C27_2 C26_2 1_555 1_555
C28_2 C27_2 1_555 1_555
H16_2 C28_2 1_555 1_555
C29_2 N7 1_555 1_555
C30_2 O30 1_555 1_555
C31_2 O37_2 1_555 1_555
C32_2 O39_2 1_555 1_555
C25_2 C30_2 1_555 1_555
C27_2 C31_2 1_555 1_555
C28_2 C29_2 1_555 1_555
C29_2 C32_2 1_555 1_555
Ho11 O4_2 1_555 1_555
O4_2 C6_2 1_555 1_555
O7_2 C8_2 1_555 1_555
C1_2 N4_2 1_555 1_555
C5_2 N4_2 1_555 1_555
C6_2 O18_2 1_555 1_555
C8_2 O27_2 1_555 1_555
Ho5_2 O17_2 1_555 1_555
O17_2 C22_2 1_555 1_555
O20_2 C22_2 1_555 1_555
O21_2 Ho11 1_555 1_555
O22_2 C23_2 1_555 1_555
O35_2 Ho11 1_555 1_555
O41_2 Ho11 1_555 1_555
N3_2 Ho5_2 1_555 1_555
C17_2 N3_2 1_555 1_555
C18_2 C17_2 1_555 1_555
H13_2 C18_2 1_555 1_555
C19_2 C18_2 1_555 1_555
C20_2 C19_2 1_555 1_555
C21_2 N3_2 1_555 1_555
C22_2 C17_2 1_555 1_555
C23_2 O21_2 1_555 1_555
C1_2 C6_2 1_555 1_555
C5_2 C8_2 1_555 1_555
C19_2 C23_2 1_555 1_555
C20_2 C21_2 1_555 1_555
Ho14_2 O23_2 1_555 1_555
O23_2 C24_2 1_555 1_555
C24_2 O26_2 1_555 1_555
H10_3 O15_3 1_555 1_555
O35 C31_3 1_555 1_555
C31_3 O37_3 1_555 1_555
O33 C30_3 1_555 1_555
C25_3 N6 1_555 1_555
C26_3 C25_3 1_555 1_555
H15_3 C26_3 1_555 1_555
C27_3 C26_3 1_555 1_555
C28_3 C27_3 1_555 1_555
H16_3 C28_3 1_555 1_555
C29_3 N6 1_555 1_555
C30_3 O29 1_555 1_555
O41 C32_3 1_555 1_555
C25_3 C30_3 1_555 1_555
C28_3 C29_3 1_555 1_555
C29_3 C32_3 1_555 1_555
O16_3 Ho5_2 1_555 1_555
H11_3 O16_3 1_555 1_555
H12_3 O16_3 1_555 1_555
O39_3 Ho5_2 1_555 1_555
Ho5 O15_4 1_555 1_555
H10_4 O15_4 1_555 1_555
O16_4 Ho5 1_555 1_555
H11_4 O16_4 1_555 1_555
H12_4 O16_4 1_555 1_555
O33_2 C30_4 1_555 1_555
O35_2 C31_4 1_555 1_555
O37_4 Ho5 1_555 1_555
O41_2 Ho5 1_555 1_555
C25_4 N6_2 1_555 1_555
C26_4 C25_4 1_555 1_555
H15_4 C26_4 1_555 1_555
C27_4 C26_4 1_555 1_555
C28_4 C27_4 1_555 1_555
H16_4 C28_4 1_555 1_555
C29_4 N6_2 1_555 1_555
C30_4 O29_2 1_555 1_555
C31_4 O37_4 1_555 1_555
C32_4 O39_4 1_555 1_555
C25_4 C30_4 1_555 1_555
C27_4 C31_4 1_555 1_555
C28_4 C29_4 1_555 1_555
C29_4 C32_4 1_555 1_555
O9 C14 1_555 1_555
O10 C14 1_555 1_555
O14 C16 1_555 1_555
N2 C9 1_555 1_555
C9 C10 1_555 1_555
C10 H7 1_555 1_555
C11 C10 1_555 1_555
C12 C11 1_555 1_555
H8 C12 1_555 1_555
C13 N2 1_555 1_555
C14 C9 1_555 1_555
C16 C13 1_555 1_555
Ho7 O9 1_555 1_555
Ho14 O10 1_555 1_555
O14 Ho7 1_555 1_555
N2 Ho7 1_555 1_555
C12 C13 1_555 1_555
O1 H1 1_555 1_555
H2 O1 1_555 1_555
O11 C15 1_555 1_555
C15 O12 1_555 1_555
Ho7 O11 1_555 1_555
O24_2 C24_3 1_555 1_555
C24_3 O26_3 1_555 1_555
Ho4 O13 1_555 1_555
Ho5_3 O17_3 1_555 1_555
Ho7_2 O19 1_555 1_555
O17_3 C22_3 1_555 1_555
O19 C22_3 1_555 1_555
N3_3 Ho5_3 1_555 1_555
C17_3 N3_3 1_555 1_555
C21_3 N3_3 1_555 1_555
C22_3 C17_3 1_555 1_555
Ho14_2 O4_3 1_555 1_555
O2 Ho4 1_555 1_555
H3 O2 1_555 1_555
H4 O2 1_555 1_555
O3 Ho4 1_555 1_555
O4_3 C6_3 1_555 1_555
O5_3 C7_3 1_555 1_555
O6_3 C7_3 1_555 1_555
O25_2 C8_3 1_555 1_555
O8 Ho4 1_555 1_555
N1 Ho4 1_555 1_555
C1_3 N1 1_555 1_555
C2_3 C1_3 1_555 1_555
H5_3 C2_3 1_555 1_555
C3_3 C2_3 1_555 1_555
C4_3 C3_3 1_555 1_555
H6_3 C4_3 1_555 1_555
C5_3 N1 1_555 1_555
C6_3 O3 1_555 1_555
C7_3 C3_3 1_555 1_555
C8_3 O8 1_555 1_555
Ho7_2 O5_3 1_555 1_555
O21_3 Ho14_2 1_555 1_555
O22_3 C23_3 1_555 1_555
O29_3 Ho14_2 1_555 1_555
O32_2 Ho14_2 1_555 1_555
O33_3 Ho7_2 1_555 1_555
O35_3 Ho14_2 1_555 1_555
O36_2 Ho7_2 1_555 1_555
O41_3 Ho14_2 1_555 1_555
O43_2 Ho7_2 1_555 1_555
N6_3 Ho14_2 1_555 1_555
H13_3 C18_3 1_555 1_555
C19_3 C18_3 1_555 1_555
C20_3 C19_3 1_555 1_555
C23_3 O21_3 1_555 1_555
C1_3 C6_3 1_555 1_555
C4_3 C5_3 1_555 1_555
C5_3 C8_3 1_555 1_555
C19_3 C23_3 1_555 1_555
O43_2 Ho4_2 1_555 1_555
O24 C24_4 1_555 1_555
C24_4 O26_4 1_555 1_555
Ho4_2 O1_2 1_555 1_555
Ho14 O4_4 1_555 1_555
O1_2 H1_2 1_555 1_555
H2_2 O1_2 1_555 1_555
O2_2 Ho4_2 1_555 1_555
H3_2 O2_2 1_555 1_555
H4_2 O2_2 1_555 1_555
O3_2 Ho4_2 1_555 1_555
O4_4 C6_4 1_555 1_555
O25 C8_4 1_555 1_555
O8_2 Ho4_2 1_555 1_555
O30_2 C14_2 1_555 1_555
O32_2 C14_2 1_555 1_555
O36_2 C15_2 1_555 1_555
O12_2 Ho4_2 1_555 1_555
O13_2 C16_2 1_555 1_555
N1_2 Ho4_2 1_555 1_555
N7_2 C9_2 1_555 1_555
C1_4 N1_2 1_555 1_555
C5_4 N1_2 1_555 1_555
C6_4 O3_2 1_555 1_555
C8_4 O8_2 1_555 1_555
C9_2 C10_2 1_555 1_555
C10_2 H7_2 1_555 1_555
C11_2 C10_2 1_555 1_555
C12_2 C11_2 1_555 1_555
H8_2 C12_2 1_555 1_555
C13_2 N7_2 1_555 1_555
C14_2 C9_2 1_555 1_555
C15_2 O12_2 1_555 1_555
C16_2 C13_2 1_555 1_555
Ho5_4 O17_4 1_555 1_555
Ho7 O19_2 1_555 1_555
O17_4 C22_4 1_555 1_555
O19_2 C22_4 1_555 1_555
O21_4 Ho14 1_555 1_555
O22_4 C23_4 1_555 1_555
O35_4 Ho14 1_555 1_555
O41_4 Ho14 1_555 1_555
N3_4 Ho5_4 1_555 1_555
C17_4 N3_4 1_555 1_555
C18_4 C17_4 1_555 1_555
H13_4 C18_4 1_555 1_555
C19_4 C18_4 1_555 1_555
C20_4 C19_4 1_555 1_555
C21_4 N3_4 1_555 1_555
C22_4 C17_4 1_555 1_555
C23_4 O21_4 1_555 1_555
C1_4 C6_4 1_555 1_555
C5_4 C8_4 1_555 1_555
C11_2 C15_2 1_555 1_555
C12_2 C13_2 1_555 1_555
C19_4 C23_4 1_555 1_555
C20_4 C21_4 1_555 1_555
O5_4 C7_4 1_555 1_555
O6_4 C7_4 1_555 1_555
H5_4 C2_4 1_555 1_555
C3_4 C2_4 1_555 1_555
C4_4 C3_4 1_555 1_555
H6_4 C4_4 1_555 1_555
C7_4 C3_4 1_555 1_555
Ho7 O5_4 1_555 1_555
O33_4 Ho7 1_555 1_555
Ho5_4 O13_3 1_555 1_555
O2_3 Ho5_4 1_555 1_555
H3_3 O2_3 1_555 1_555
H4_3 O2_3 1_555 1_555
O29_3 C14_3 1_555 1_555
O33_3 C14_3 1_555 1_555
O41_3 C16_3 1_555 1_555
N6_3 C9_3 1_555 1_555
C9_3 C10_3 1_555 1_555
C10_3 H7_3 1_555 1_555
C11_3 C10_3 1_555 1_555
C12_3 C11_3 1_555 1_555
H8_3 C12_3 1_555 1_555
C13_3 N6_3 1_555 1_555
C14_3 C9_3 1_555 1_555
C16_3 C13_3 1_555 1_555
C12_3 C13_3 1_555 1_555
H2_3 O1_3 1_555 1_555
O35_3 C15_3 1_555 1_555
C15_3 O12_3 1_555 1_555
O41_4 Ho5_3 1_555 1_555
Ho5_3 O1_4 1_555 1_555
H2_4 O1_4 1_555 1_555
O2_4 Ho5_3 1_555 1_555
H3_4 O2_4 1_555 1_555
H4_4 O2_4 1_555 1_555
O29_4 C14_4 1_555 1_555
O33_4 C14_4 1_555 1_555
O35_4 C15_4 1_555 1_555
O12_4 Ho5_3 1_555 1_555
O13_4 C16_4 1_555 1_555
N6_4 C9_4 1_555 1_555
C9_4 C10_4 1_555 1_555
C10_4 H7_4 1_555 1_555
C11_4 C10_4 1_555 1_555
C12_4 C11_4 1_555 1_555
H8_4 C12_4 1_555 1_555
C13_4 N6_4 1_555 1_555
C14_4 C9_4 1_555 1_555
C15_4 O12_4 1_555 1_555
C16_4 C13_4 1_555 1_555
C11_4 C15_4 1_555 1_555
C12_4 C13_4 1_555 1_555

#END
