
###############################################################################
#
# This file contains modified crystal structure data generated from the
# MOF subset of the Cambridge Structural Database (CSD) v543 
# hosted by the Cambridge Crystallographic Data Centre (CCDC).
#
# This work is licensed under the Creative Commons
# Attribution-NonCommercial-ShareAlike 4.0 International License.
# To view a copy of this license, visit
# http://creativecommons.org/licenses/by-nc-sa/4.0/
# or send a letter to
# Creative Commons, PO Box 1866, Mountain View, CA 94042, USA.
#
# CIF created using the CSD Python API on 29 September 2022
# The structure has been converted into the P1 space group
# The structure has a 3D framework
# The original CSD entry KOLQEI is in the monoclinic crystal system
# The framework has been calculated to contain at least 10.0% void space
# The void calculation uses a probe of radius 1.32A, grid spacing 0.4
#
###############################################################################

data_KOLQEI
_chemical_formula_moiety         '(C128 H64 Dy16 N16 O104)n'
_symmetry_cell_setting           triclinic
_symmetry_space_group_name_H-M   'P 1'
_symmetry_Int_Tables_number      1
_space_group_name_Hall           'P 1'
loop_
_symmetry_equiv_pos_site_id
_symmetry_equiv_pos_as_xyz
1 x,y,z
_cell_length_a                   21.7769(15)
_cell_length_b                   9.2174(6)
_cell_length_c                   22.3883(15)
_cell_angle_alpha                90
_cell_angle_beta                 101.353(2)
_cell_angle_gamma                90
_cell_volume                     4405.99
loop_
_atom_site_label
_atom_site_type_symbol
_atom_site_fract_x
_atom_site_fract_y
_atom_site_fract_z
Dy3 Dy 0.044718(13) 0.30858(3) 0.423601(12)
O16 O 0.1155(2) 0.1165(5) 0.4414(2)
H11 H 0.1320 0.0848 0.4126
H12 H 0.1160 0.0508 0.4682
O18 O 0.0739(2) 0.3387(5) 0.32941(18)
O25 O 0.3266(2) 0.0052(5) 0.41379(18)
O27 O 0.0945(2) 0.3882(5) 0.52221(18)
O30 O 0.2637(2) 0.0697(4) 0.28568(19)
O39 O 0.0281(2) 0.5752(5) 0.41331(19)
N4 N 0.1467(2) 0.4266(5) 0.4294(2)
N7 N 0.3795(2) 0.1493(5) 0.3243(2)
Dy2 Dy 0.156573(13) 0.39136(3) 0.176112(11)
O4 O 0.1365(2) 0.4338(5) 0.27129(18)
O5 O 0.3271(3) 0.7148(6) 0.3915(2)
O6 O 0.3676(2) 0.6091(6) 0.4785(2)
O7 O 0.1734(2) 0.4948(5) 0.58621(18)
C1 C 0.1681(3) 0.4507(7) 0.3779(3)
C2 C 0.2246(3) 0.5179(7) 0.3783(3)
H5 H 0.2381 0.5351 0.3421
C3 C 0.2612(3) 0.5600(7) 0.4339(3)
C4 C 0.2388(3) 0.5358(7) 0.4873(3)
H6 H 0.2622 0.5626 0.5250
C5 C 0.1803(3) 0.4703(6) 0.4825(2)
C6 C 0.1228(3) 0.4039(7) 0.3210(3)
C7 C 0.3240(3) 0.6339(7) 0.4353(3)
C8 C 0.1474(3) 0.4488(6) 0.5352(3)
Dy6 Dy 0.343427(13) 0.89136(3) 0.323888(11)
Dy7 Dy 0.156573(13) 0.60864(3) 0.676112(11)
O20 O 0.3635(2) 0.9338(5) 0.22871(18)
O21 O 0.1729(3) 0.2148(6) 0.1085(2)
O22 O 0.1324(2) 0.1091(6) 0.0215(2)
O24 O 0.1734(2) 0.5052(5) 0.08621(18)
O29 O 0.2363(2) 0.5697(4) 0.21432(19)
O32 O 0.2402(2) 0.2752(5) 0.2353(2)
O33 O 0.2598(2) 0.7752(5) 0.2647(2)
O35 O 0.1013(2) 0.1838(4) 0.1955(2)
O36 O 0.3987(2) 0.6838(4) 0.3045(2)
O41 O 0.04956(19) 0.4346(4) 0.12978(17)
O43 O 0.45044(19) 0.9346(4) 0.37022(17)
N6 N 0.1205(2) 0.6493(5) 0.1757(2)
C18 C 0.2754(3) 0.0179(7) 0.1217(3)
H13 H 0.2619 0.0351 0.1579
C19 C 0.2388(3) 0.0600(7) 0.0661(3)
C20 C 0.2612(3) 0.0358(7) 0.0127(3)
C23 C 0.1760(3) 0.1339(7) 0.0647(3)
Dy14 Dy 0.343427(13) 0.10864(3) 0.823888(11)
H14 H 0.2378 0.0626 0.9750
Dy5 Dy 0.455282(13) 0.80858(3) 0.076399(12)
O17 O 0.4261(2) 0.8387(5) 0.17059(18)
N3 N 0.3533(2) 0.9266(5) 0.0706(2)
C17 C 0.3319(3) 0.9507(7) 0.1221(3)
C21 C 0.3197(3) 0.9703(6) 0.0175(2)
C22 C 0.3772(3) 0.9039(7) 0.1790(3)
O23 O 0.3266(2) 0.9948(5) 0.91379(18)
O26 O 0.4055(2) 0.8882(5) 0.97779(18)
C24 C 0.3526(3) 0.9488(6) 0.9648(3)
Dy12 Dy 0.843427(13) 0.39136(3) 0.323888(11)
O15 O 0.9763(2) 0.2501(6) 0.48755(19)
H9 H 0.9802 0.3028 0.5192
H10 H 0.9393 0.2166 0.4789
O34 O 0.8987(2) 0.1838(4) 0.3045(2)
O37 O 0.9849(2) 0.1240(5) 0.3733(2)
O42 O 0.95044(19) 0.4346(4) 0.37022(17)
C31 C 0.9342(3) 0.0951(6) 0.3368(3)
Dy11 Dy 0.656573(13) 0.89136(3) 0.176112(11)
O28 O 0.7637(2) 0.5697(4) 0.28568(19)
O31 O 0.7402(2) 0.7752(5) 0.2353(2)
N5 N 0.8795(2) 0.6493(5) 0.3243(2)
C25 C 0.8397(3) 0.7536(6) 0.2987(3)
C26 C 0.8564(3) 0.8966(7) 0.3011(3)
H15 H 0.8282 0.9662 0.2822
C27 C 0.9157(3) 0.9376(7) 0.3319(3)
C28 C 0.9563(3) 0.8298(7) 0.3586(3)
H16 H 0.9962 0.8531 0.3798
C29 C 0.9365(3) 0.6875(6) 0.3534(3)
C30 C 0.7755(3) 0.6954(6) 0.2711(3)
C32 C 0.9742(3) 0.5598(6) 0.3808(2)
O39_2 O 0.5281(2) 0.0752(5) 0.41331(19)
O5_2 O 0.8271(3) 0.2148(6) 0.3915(2)
O6_2 O 0.8676(2) 0.1091(6) 0.4785(2)
C2_2 C 0.7246(3) 0.0179(7) 0.3783(3)
H5_2 H 0.7381 0.0351 0.3421
C3_2 C 0.7612(3) 0.0600(7) 0.4339(3)
C4_2 C 0.7388(3) 0.0358(7) 0.4873(3)
H6_2 H 0.7622 0.0626 0.5250
C7_2 C 0.8240(3) 0.1339(7) 0.4353(3)
Dy3_2 Dy 0.544718(13) 0.80858(3) 0.423601(12)
Dy7_2 Dy 0.656573(13) 0.10864(3) 0.676112(11)
O15_2 O 0.4763(2) 0.7501(6) 0.48755(19)
H9_2 H 0.4802 0.8028 0.5192
H10_2 H 0.4393 0.7166 0.4789
O16_2 O 0.6155(2) 0.6165(5) 0.4414(2)
H11_2 H 0.6320 0.5848 0.4126
H12_2 H 0.6160 0.5508 0.4682
O18_2 O 0.5739(2) 0.8387(5) 0.32941(18)
O20_2 O 0.8635(2) 0.4338(5) 0.22871(18)
O24_2 O 0.6734(2) 0.0052(5) 0.08621(18)
O25_2 O 0.8266(2) 0.5052(5) 0.41379(18)
O27_2 O 0.5945(2) 0.8882(5) 0.52221(18)
O29_2 O 0.7363(2) 0.0697(4) 0.21432(19)
O33_2 O 0.7598(2) 0.2752(5) 0.2647(2)
O37_2 O 0.4849(2) 0.6240(5) 0.3733(2)
N4_2 N 0.6467(2) 0.9266(5) 0.4294(2)
N6_2 N 0.6205(2) 0.1493(5) 0.1757(2)
C25_2 C 0.3397(3) 0.2536(6) 0.2987(3)
C26_2 C 0.3564(3) 0.3966(7) 0.3011(3)
H15_2 H 0.3282 0.4662 0.2822
C27_2 C 0.4157(3) 0.4376(7) 0.3319(3)
C28_2 C 0.4563(3) 0.3298(7) 0.3586(3)
H16_2 H 0.4962 0.3531 0.3798
C29_2 C 0.4365(3) 0.1875(6) 0.3534(3)
C30_2 C 0.2755(3) 0.1954(6) 0.2711(3)
C31_2 C 0.4342(3) 0.5951(6) 0.3368(3)
C32_2 C 0.4742(3) 0.0598(6) 0.3808(2)
O4_2 O 0.6365(2) 0.9338(5) 0.27129(18)
O7_2 O 0.6734(2) 0.9948(5) 0.58621(18)
C1_2 C 0.6681(3) 0.9507(7) 0.3779(3)
C5_2 C 0.6803(3) 0.9703(6) 0.4825(2)
C6_2 C 0.6228(3) 0.9039(7) 0.3210(3)
C8_2 C 0.6474(3) 0.9488(6) 0.5352(3)
Dy5_2 Dy 0.955282(13) 0.30858(3) 0.076399(12)
O17_2 O 0.9261(2) 0.3387(5) 0.17059(18)
O21_2 O 0.6729(3) 0.7148(6) 0.1085(2)
O22_2 O 0.6324(2) 0.6091(6) 0.0215(2)
O35_2 O 0.6013(2) 0.6838(4) 0.1955(2)
O41_2 O 0.54956(19) 0.9346(4) 0.12978(17)
N3_2 N 0.8533(2) 0.4266(5) 0.0706(2)
C17_2 C 0.8319(3) 0.4507(7) 0.1221(3)
C18_2 C 0.7754(3) 0.5179(7) 0.1217(3)
H13_2 H 0.7619 0.5351 0.1579
C19_2 C 0.7388(3) 0.5600(7) 0.0661(3)
C20_2 C 0.7612(3) 0.5358(7) 0.0127(3)
C21_2 C 0.8197(3) 0.4703(6) 0.0175(2)
C22_2 C 0.8772(3) 0.4039(7) 0.1790(3)
C23_2 C 0.6760(3) 0.6339(7) 0.0647(3)
Dy14_2 Dy 0.843427(13) 0.60864(3) 0.823888(11)
O23_2 O 0.8266(2) 0.4948(5) 0.91379(18)
O26_2 O 0.9055(2) 0.3882(5) 0.97779(18)
H14_2 H 0.7378 0.5626 0.9750
C24_2 C 0.8526(3) 0.4488(6) 0.9648(3)
O15_3 O 0.0237(2) 0.2501(6) 0.01245(19)
H10_3 H 0.0607 0.2166 0.0211
O37_3 O 0.0151(2) 0.1240(5) 0.1267(2)
C31_3 C 0.0658(3) 0.0951(6) 0.1632(3)
C25_3 C 0.1603(3) 0.7536(6) 0.2013(3)
C26_3 C 0.1436(3) 0.8966(7) 0.1989(3)
H15_3 H 0.1718 0.9662 0.2178
C27_3 C 0.0843(3) 0.9376(7) 0.1681(3)
C28_3 C 0.0437(3) 0.8298(7) 0.1414(3)
H16_3 H 0.0038 0.8531 0.1202
C29_3 C 0.0635(3) 0.6875(6) 0.1466(3)
C30_3 C 0.2245(3) 0.6954(6) 0.2289(3)
C32_3 C 0.0258(3) 0.5598(6) 0.1192(2)
O16_3 O 0.8845(2) 0.1165(5) 0.0586(2)
H11_3 H 0.8680 0.0848 0.0874
H12_3 H 0.8840 0.0508 0.0318
O39_3 O 0.9719(2) 0.5752(5) 0.08669(19)
O39_4 O 0.4719(2) 0.0752(5) 0.08669(19)
O15_4 O 0.5237(2) 0.7501(6) 0.01245(19)
H10_4 H 0.5607 0.7166 0.0211
O16_4 O 0.3845(2) 0.6165(5) 0.0586(2)
H11_4 H 0.3680 0.5848 0.0874
H12_4 H 0.3840 0.5508 0.0318
O37_4 O 0.5151(2) 0.6240(5) 0.1267(2)
C25_4 C 0.6603(3) 0.2536(6) 0.2013(3)
C26_4 C 0.6436(3) 0.3966(7) 0.1989(3)
H15_4 H 0.6718 0.4662 0.2178
C27_4 C 0.5843(3) 0.4376(7) 0.1681(3)
C28_4 C 0.5437(3) 0.3298(7) 0.1414(3)
H16_4 H 0.5038 0.3531 0.1202
C29_4 C 0.5635(3) 0.1875(6) 0.1466(3)
C30_4 C 0.7245(3) 0.1954(6) 0.2289(3)
C31_4 C 0.5658(3) 0.5951(6) 0.1632(3)
C32_4 C 0.5258(3) 0.0598(6) 0.1192(2)
H9_3 H 0.5198 0.8028 0.9808
O9 O 0.2363(2) 0.4303(4) 0.71432(19)
O10 O 0.2598(2) 0.2248(5) 0.7647(2)
O14 O 0.04956(19) 0.5654(4) 0.62978(17)
N2 N 0.1205(2) 0.3507(5) 0.6757(2)
C9 C 0.1603(3) 0.2464(6) 0.7013(3)
C10 C 0.1436(3) 0.1034(7) 0.6989(3)
H7 H 0.1718 0.0338 0.7178
C11 C 0.0843(3) 0.0624(7) 0.6681(3)
C12 C 0.0437(3) 0.1702(7) 0.6414(3)
H8 H 0.0038 0.1469 0.6202
C13 C 0.0635(3) 0.3125(6) 0.6466(3)
C14 C 0.2245(3) 0.3046(6) 0.7289(3)
C16 C 0.0258(3) 0.4402(6) 0.6192(2)
O1 O 0.0237(2) 0.7499(6) 0.51245(19)
H1 H 0.0198 0.6972 0.4808
H2 H 0.0607 0.7834 0.5211
O11 O 0.1013(2) 0.8162(4) 0.6955(2)
O12 O 0.0151(2) 0.8760(5) 0.6267(2)
C15 C 0.0658(3) 0.9049(6) 0.6632(3)
O26_3 O 0.5945(2) 0.1118(5) 0.02221(18)
C24_3 C 0.6474(3) 0.0512(6) 0.0352(3)
O13 O 0.9719(2) 0.4248(5) 0.58669(19)
Dy4 Dy 0.955282(13) 0.69142(3) 0.576399(12)
Dy5_3 Dy 0.544718(13) 0.19142(3) 0.923601(12)
O17_3 O 0.5739(2) 0.1613(5) 0.82941(18)
O19 O 0.6365(2) 0.0662(5) 0.77129(18)
N3_3 N 0.6467(2) 0.0734(5) 0.9294(2)
C17_3 C 0.6681(3) 0.0493(7) 0.8779(3)
C21_3 C 0.6803(3) 0.0297(6) 0.9825(2)
C22_3 C 0.6228(3) 0.0961(7) 0.8210(3)
H14_3 H 0.7622 0.9374 0.0250
O2 O 0.8845(2) 0.8835(5) 0.5586(2)
H3 H 0.8680 0.9152 0.5874
H4 H 0.8840 0.9492 0.5318
O3 O 0.9261(2) 0.6613(5) 0.67059(18)
O4_3 O 0.8635(2) 0.5662(5) 0.72871(18)
O5_3 O 0.6729(3) 0.2852(6) 0.6085(2)
O6_3 O 0.6324(2) 0.3909(6) 0.5215(2)
O8 O 0.9055(2) 0.6118(5) 0.47779(18)
N1 N 0.8533(2) 0.5734(5) 0.5706(2)
C1_3 C 0.8319(3) 0.5493(7) 0.6221(3)
C2_3 C 0.7754(3) 0.4821(7) 0.6217(3)
H5_3 H 0.7619 0.4649 0.6579
C3_3 C 0.7388(3) 0.4400(7) 0.5661(3)
C4_3 C 0.7612(3) 0.4642(7) 0.5127(3)
H6_3 H 0.7378 0.4374 0.4750
C5_3 C 0.8197(3) 0.5297(6) 0.5175(2)
C6_3 C 0.8772(3) 0.5961(7) 0.6790(3)
C7_3 C 0.6760(3) 0.3661(7) 0.5647(3)
C8_3 C 0.8526(3) 0.5512(6) 0.4648(3)
O21_3 O 0.8271(3) 0.7852(6) 0.8915(2)
O22_3 O 0.8676(2) 0.8909(6) 0.9785(2)
O29_3 O 0.7637(2) 0.4303(4) 0.78568(19)
O32_2 O 0.7598(2) 0.7248(5) 0.7647(2)
O33_3 O 0.7402(2) 0.2248(5) 0.7353(2)
O35_3 O 0.8987(2) 0.8162(4) 0.8045(2)
O36_2 O 0.6013(2) 0.3162(4) 0.6955(2)
O41_3 O 0.95044(19) 0.5654(4) 0.87022(17)
O43_2 O 0.54956(19) 0.0654(4) 0.62978(17)
N6_3 N 0.8795(2) 0.3507(5) 0.8243(2)
C18_3 C 0.7246(3) 0.9821(7) 0.8783(3)
H13_3 H 0.7381 0.9649 0.8421
C19_3 C 0.7612(3) 0.9400(7) 0.9339(3)
C20_3 C 0.7388(3) 0.9642(7) 0.9873(3)
C23_3 C 0.8240(3) 0.8661(7) 0.9353(3)
O30_2 O 0.7363(2) 0.9303(4) 0.71432(19)
N7_2 N 0.6205(2) 0.8507(5) 0.6757(2)
Dy4_2 Dy 0.455282(13) 0.19142(3) 0.576399(12)
O26_4 O 0.0945(2) 0.6118(5) 0.02221(18)
H14_4 H 0.2622 0.4374 0.0250
C24_4 C 0.1474(3) 0.5512(6) 0.0352(3)
O1_2 O 0.5237(2) 0.2499(6) 0.51245(19)
H1_2 H 0.5198 0.1972 0.4808
H2_2 H 0.5607 0.2834 0.5211
O2_2 O 0.3845(2) 0.3835(5) 0.5586(2)
H3_2 H 0.3680 0.4152 0.5874
H4_2 H 0.3840 0.4492 0.5318
O3_2 O 0.4261(2) 0.1613(5) 0.67059(18)
O4_4 O 0.3635(2) 0.0662(5) 0.72871(18)
O8_2 O 0.4055(2) 0.1118(5) 0.47779(18)
O12_2 O 0.5151(2) 0.3760(5) 0.6267(2)
O13_2 O 0.4719(2) 0.9248(5) 0.58669(19)
N1_2 N 0.3533(2) 0.0734(5) 0.5706(2)
C1_4 C 0.3319(3) 0.0493(7) 0.6221(3)
C5_4 C 0.3197(3) 0.0297(6) 0.5175(2)
C6_4 C 0.3772(3) 0.0961(7) 0.6790(3)
C8_4 C 0.3526(3) 0.0512(6) 0.4648(3)
C9_2 C 0.6603(3) 0.7464(6) 0.7013(3)
C10_2 C 0.6436(3) 0.6034(7) 0.6989(3)
H7_2 H 0.6718 0.5338 0.7178
C11_2 C 0.5843(3) 0.5624(7) 0.6681(3)
C12_2 C 0.5437(3) 0.6702(7) 0.6414(3)
H8_2 H 0.5038 0.6469 0.6202
C13_2 C 0.5635(3) 0.8125(6) 0.6466(3)
C14_2 C 0.7245(3) 0.8046(6) 0.7289(3)
C15_2 C 0.5658(3) 0.4049(6) 0.6632(3)
C16_2 C 0.5258(3) 0.9402(6) 0.6192(2)
Dy5_4 Dy 0.044718(13) 0.69142(3) 0.923601(12)
O17_4 O 0.0739(2) 0.6613(5) 0.82941(18)
O19_2 O 0.1365(2) 0.5662(5) 0.77129(18)
O21_4 O 0.3271(3) 0.2852(6) 0.8915(2)
O22_4 O 0.3676(2) 0.3909(6) 0.9785(2)
O35_4 O 0.3987(2) 0.3162(4) 0.8045(2)
O41_4 O 0.45044(19) 0.0654(4) 0.87022(17)
N3_4 N 0.1467(2) 0.5734(5) 0.9294(2)
C17_4 C 0.1681(3) 0.5493(7) 0.8779(3)
C18_4 C 0.2246(3) 0.4821(7) 0.8783(3)
H13_4 H 0.2381 0.4649 0.8421
C19_4 C 0.2612(3) 0.4400(7) 0.9339(3)
C20_4 C 0.2388(3) 0.4642(7) 0.9873(3)
C21_4 C 0.1803(3) 0.5297(6) 0.9825(2)
C22_4 C 0.1228(3) 0.5961(7) 0.8210(3)
C23_4 C 0.3240(3) 0.3661(7) 0.9353(3)
O5_4 O 0.1729(3) 0.7852(6) 0.6085(2)
O6_4 O 0.1324(2) 0.8909(6) 0.5215(2)
C2_4 C 0.2754(3) 0.9821(7) 0.6217(3)
H5_4 H 0.2619 0.9649 0.6579
C3_4 C 0.2388(3) 0.9400(7) 0.5661(3)
C4_4 C 0.2612(3) 0.9642(7) 0.5127(3)
H6_4 H 0.2378 0.9374 0.4750
C7_4 C 0.1760(3) 0.8661(7) 0.5647(3)
O29_4 O 0.2637(2) 0.9303(4) 0.78568(19)
O33_4 O 0.2402(2) 0.7248(5) 0.7353(2)
N6_4 N 0.3795(2) 0.8507(5) 0.8243(2)
O13_3 O 0.0281(2) 0.4248(5) 0.91331(19)
O2_3 O 0.1155(2) 0.8835(5) 0.9414(2)
H3_3 H 0.1320 0.9152 0.9126
H4_3 H 0.1160 0.9492 0.9682
C9_3 C 0.8397(3) 0.2464(6) 0.7987(3)
C10_3 C 0.8564(3) 0.1034(7) 0.8011(3)
H7_3 H 0.8282 0.0338 0.7822
C11_3 C 0.9157(3) 0.0624(7) 0.8319(3)
C12_3 C 0.9563(3) 0.1702(7) 0.8586(3)
H8_3 H 0.9962 0.1469 0.8798
C13_3 C 0.9365(3) 0.3125(6) 0.8534(3)
C14_3 C 0.7755(3) 0.3046(6) 0.7711(3)
C16_3 C 0.9742(3) 0.4402(6) 0.8808(2)
O1_3 O 0.9763(2) 0.7499(6) 0.98755(19)
H2_3 H 0.9393 0.7834 0.9789
O12_3 O 0.9849(2) 0.8760(5) 0.8733(2)
C15_3 C 0.9342(3) 0.9049(6) 0.8368(3)
H1_3 H 0.4802 0.1972 0.0192
O1_4 O 0.4763(2) 0.2499(6) 0.98755(19)
H2_4 H 0.4393 0.2834 0.9789
O2_4 O 0.6155(2) 0.3835(5) 0.9414(2)
H3_4 H 0.6320 0.4152 0.9126
H4_4 H 0.6160 0.4492 0.9682
O12_4 O 0.4849(2) 0.3760(5) 0.8733(2)
O13_4 O 0.5281(2) 0.9248(5) 0.91331(19)
C9_4 C 0.3397(3) 0.7464(6) 0.7987(3)
C10_4 C 0.3564(3) 0.6034(7) 0.8011(3)
H7_4 H 0.3282 0.5338 0.7822
C11_4 C 0.4157(3) 0.5624(7) 0.8319(3)
C12_4 C 0.4563(3) 0.6702(7) 0.8586(3)
H8_4 H 0.4962 0.6469 0.8798
C13_4 C 0.4365(3) 0.8125(6) 0.8534(3)
C14_4 C 0.2755(3) 0.8046(6) 0.7711(3)
C15_4 C 0.4342(3) 0.4049(6) 0.8368(3)
C16_4 C 0.4742(3) 0.9402(6) 0.8808(2)
H9_4 H 0.0198 0.3028 0.9808
H1_4 H 0.9802 0.6972 0.0192
loop_
_geom_bond_atom_site_label_1
_geom_bond_atom_site_label_2
_geom_bond_site_symmetry_1
_geom_bond_site_symmetry_2
O16 Dy3 1_555 1_555
H11 O16 1_555 1_555
H12 O16 1_555 1_555
O18 Dy3 1_555 1_555
O27 Dy3 1_555 1_555
O39 Dy3 1_555 1_555
N4 Dy3 1_555 1_555
Dy2 O4 1_555 1_555
O4 C6 1_555 1_555
O5 C7 1_555 1_555
O6 C7 1_555 1_555
O7 C8 1_555 1_555
C1 N4 1_555 1_555
C2 C1 1_555 1_555
H5 C2 1_555 1_555
C3 C2 1_555 1_555
C4 C3 1_555 1_555
H6 C4 1_555 1_555
C5 N4 1_555 1_555
C6 O18 1_555 1_555
C7 C3 1_555 1_555
C8 O27 1_555 1_555
Dy6 O5 1_555 1_555
Dy7 O7 1_555 1_555
O20 Dy6 1_555 1_555
O21 Dy2 1_555 1_555
O22 C23 1_555 1_555
O24 Dy2 1_555 1_555
O29 Dy2 1_555 1_555
O32 Dy2 1_555 1_555
O33 Dy6 1_555 1_555
O35 Dy2 1_555 1_555
O36 Dy6 1_555 1_555
O41 Dy2 1_555 1_555
O43 Dy6 1_555 1_555
N6 Dy2 1_555 1_555
H13 C18 1_555 1_555
C19 C18 1_555 1_555
C20 C19 1_555 1_555
C23 O21 1_555 1_555
C1 C6 1_555 1_555
C4 C5 1_555 1_555
C5 C8 1_555 1_555
C19 C23 1_555 1_555
Dy5 O17 1_555 1_555
O17 C22 1_555 1_555
O20 C22 1_555 1_555
N3 Dy5 1_555 1_555
C17 N3 1_555 1_555
C21 N3 1_555 1_555
C22 C17 1_555 1_555
O23 C24 1_555 1_555
C24 O26 1_555 1_555
Dy12 O34 1_555 1_555
O15 H9 1_555 1_555
H10 O15 1_555 1_555
O34 C31 1_555 1_555
C31 O37 1_555 1_555
Dy12 O42 1_555 1_555
Dy11 O31 1_555 1_555
O28 Dy12 1_555 1_555
O31 C30 1_555 1_555
N5 Dy12 1_555 1_555
C25 N5 1_555 1_555
C26 C25 1_555 1_555
H15 C26 1_555 1_555
C27 C26 1_555 1_555
C28 C27 1_555 1_555
H16 C28 1_555 1_555
C29 N5 1_555 1_555
C30 O28 1_555 1_555
O42 C32 1_555 1_555
C25 C30 1_555 1_555
C28 C29 1_555 1_555
C29 C32 1_555 1_555
O5_2 C7_2 1_555 1_555
O6_2 C7_2 1_555 1_555
H5_2 C2_2 1_555 1_555
C3_2 C2_2 1_555 1_555
C4_2 C3_2 1_555 1_555
H6_2 C4_2 1_555 1_555
C7_2 C3_2 1_555 1_555
Dy3_2 O15_2 1_555 1_555
Dy12 O5_2 1_555 1_555
O15_2 H9_2 1_555 1_555
H10_2 O15_2 1_555 1_555
O16_2 Dy3_2 1_555 1_555
H11_2 O16_2 1_555 1_555
H12_2 O16_2 1_555 1_555
O18_2 Dy3_2 1_555 1_555
O20_2 Dy12 1_555 1_555
O25_2 Dy12 1_555 1_555
O27_2 Dy3_2 1_555 1_555
O32 C30_2 1_555 1_555
O33_2 Dy12 1_555 1_555
O36 C31_2 1_555 1_555
O37_2 Dy3_2 1_555 1_555
O43 Dy3_2 1_555 1_555
N4_2 Dy3_2 1_555 1_555
C25_2 N7 1_555 1_555
C26_2 C25_2 1_555 1_555
H15_2 C26_2 1_555 1_555
C27_2 C26_2 1_555 1_555
C28_2 C27_2 1_555 1_555
H16_2 C28_2 1_555 1_555
C29_2 N7 1_555 1_555
C30_2 O30 1_555 1_555
C31_2 O37_2 1_555 1_555
C32_2 O39_2 1_555 1_555
C25_2 C30_2 1_555 1_555
C27_2 C31_2 1_555 1_555
C28_2 C29_2 1_555 1_555
C29_2 C32_2 1_555 1_555
Dy11 O4_2 1_555 1_555
O4_2 C6_2 1_555 1_555
O7_2 C8_2 1_555 1_555
C1_2 N4_2 1_555 1_555
C5_2 N4_2 1_555 1_555
C6_2 O18_2 1_555 1_555
C8_2 O27_2 1_555 1_555
Dy5_2 O17_2 1_555 1_555
O17_2 C22_2 1_555 1_555
O20_2 C22_2 1_555 1_555
O21_2 Dy11 1_555 1_555
O22_2 C23_2 1_555 1_555
O35_2 Dy11 1_555 1_555
O41_2 Dy11 1_555 1_555
N3_2 Dy5_2 1_555 1_555
C17_2 N3_2 1_555 1_555
C18_2 C17_2 1_555 1_555
H13_2 C18_2 1_555 1_555
C19_2 C18_2 1_555 1_555
C20_2 C19_2 1_555 1_555
C21_2 N3_2 1_555 1_555
C22_2 C17_2 1_555 1_555
C23_2 O21_2 1_555 1_555
C1_2 C6_2 1_555 1_555
C5_2 C8_2 1_555 1_555
C19_2 C23_2 1_555 1_555
C20_2 C21_2 1_555 1_555
Dy14_2 O23_2 1_555 1_555
O23_2 C24_2 1_555 1_555
C24_2 O26_2 1_555 1_555
H10_3 O15_3 1_555 1_555
O35 C31_3 1_555 1_555
C31_3 O37_3 1_555 1_555
O33 C30_3 1_555 1_555
C25_3 N6 1_555 1_555
C26_3 C25_3 1_555 1_555
H15_3 C26_3 1_555 1_555
C27_3 C26_3 1_555 1_555
C28_3 C27_3 1_555 1_555
H16_3 C28_3 1_555 1_555
C29_3 N6 1_555 1_555
C30_3 O29 1_555 1_555
O41 C32_3 1_555 1_555
C25_3 C30_3 1_555 1_555
C28_3 C29_3 1_555 1_555
C29_3 C32_3 1_555 1_555
O16_3 Dy5_2 1_555 1_555
H11_3 O16_3 1_555 1_555
H12_3 O16_3 1_555 1_555
O39_3 Dy5_2 1_555 1_555
Dy5 O15_4 1_555 1_555
H10_4 O15_4 1_555 1_555
O16_4 Dy5 1_555 1_555
H11_4 O16_4 1_555 1_555
H12_4 O16_4 1_555 1_555
O33_2 C30_4 1_555 1_555
O35_2 C31_4 1_555 1_555
O37_4 Dy5 1_555 1_555
O41_2 Dy5 1_555 1_555
C25_4 N6_2 1_555 1_555
C26_4 C25_4 1_555 1_555
H15_4 C26_4 1_555 1_555
C27_4 C26_4 1_555 1_555
C28_4 C27_4 1_555 1_555
H16_4 C28_4 1_555 1_555
C29_4 N6_2 1_555 1_555
C30_4 O29_2 1_555 1_555
C31_4 O37_4 1_555 1_555
C32_4 O39_4 1_555 1_555
C25_4 C30_4 1_555 1_555
C27_4 C31_4 1_555 1_555
C28_4 C29_4 1_555 1_555
C29_4 C32_4 1_555 1_555
O9 C14 1_555 1_555
O10 C14 1_555 1_555
O14 C16 1_555 1_555
N2 C9 1_555 1_555
C9 C10 1_555 1_555
C10 H7 1_555 1_555
C11 C10 1_555 1_555
C12 C11 1_555 1_555
H8 C12 1_555 1_555
C13 N2 1_555 1_555
C14 C9 1_555 1_555
C16 C13 1_555 1_555
Dy7 O9 1_555 1_555
Dy14 O10 1_555 1_555
O14 Dy7 1_555 1_555
N2 Dy7 1_555 1_555
C12 C13 1_555 1_555
O1 H1 1_555 1_555
H2 O1 1_555 1_555
O11 C15 1_555 1_555
C15 O12 1_555 1_555
Dy7 O11 1_555 1_555
O24_2 C24_3 1_555 1_555
C24_3 O26_3 1_555 1_555
Dy4 O13 1_555 1_555
Dy5_3 O17_3 1_555 1_555
Dy7_2 O19 1_555 1_555
O17_3 C22_3 1_555 1_555
O19 C22_3 1_555 1_555
N3_3 Dy5_3 1_555 1_555
C17_3 N3_3 1_555 1_555
C21_3 N3_3 1_555 1_555
C22_3 C17_3 1_555 1_555
Dy14_2 O4_3 1_555 1_555
O2 Dy4 1_555 1_555
H3 O2 1_555 1_555
H4 O2 1_555 1_555
O3 Dy4 1_555 1_555
O4_3 C6_3 1_555 1_555
O5_3 C7_3 1_555 1_555
O6_3 C7_3 1_555 1_555
O25_2 C8_3 1_555 1_555
O8 Dy4 1_555 1_555
N1 Dy4 1_555 1_555
C1_3 N1 1_555 1_555
C2_3 C1_3 1_555 1_555
H5_3 C2_3 1_555 1_555
C3_3 C2_3 1_555 1_555
C4_3 C3_3 1_555 1_555
H6_3 C4_3 1_555 1_555
C5_3 N1 1_555 1_555
C6_3 O3 1_555 1_555
C7_3 C3_3 1_555 1_555
C8_3 O8 1_555 1_555
Dy7_2 O5_3 1_555 1_555
O21_3 Dy14_2 1_555 1_555
O22_3 C23_3 1_555 1_555
O29_3 Dy14_2 1_555 1_555
O32_2 Dy14_2 1_555 1_555
O33_3 Dy7_2 1_555 1_555
O35_3 Dy14_2 1_555 1_555
O36_2 Dy7_2 1_555 1_555
O41_3 Dy14_2 1_555 1_555
O43_2 Dy7_2 1_555 1_555
N6_3 Dy14_2 1_555 1_555
H13_3 C18_3 1_555 1_555
C19_3 C18_3 1_555 1_555
C20_3 C19_3 1_555 1_555
C23_3 O21_3 1_555 1_555
C1_3 C6_3 1_555 1_555
C4_3 C5_3 1_555 1_555
C5_3 C8_3 1_555 1_555
C19_3 C23_3 1_555 1_555
O43_2 Dy4_2 1_555 1_555
O24 C24_4 1_555 1_555
C24_4 O26_4 1_555 1_555
Dy4_2 O1_2 1_555 1_555
Dy14 O4_4 1_555 1_555
O1_2 H1_2 1_555 1_555
H2_2 O1_2 1_555 1_555
O2_2 Dy4_2 1_555 1_555
H3_2 O2_2 1_555 1_555
H4_2 O2_2 1_555 1_555
O3_2 Dy4_2 1_555 1_555
O4_4 C6_4 1_555 1_555
O25 C8_4 1_555 1_555
O8_2 Dy4_2 1_555 1_555
O30_2 C14_2 1_555 1_555
O32_2 C14_2 1_555 1_555
O36_2 C15_2 1_555 1_555
O12_2 Dy4_2 1_555 1_555
O13_2 C16_2 1_555 1_555
N1_2 Dy4_2 1_555 1_555
N7_2 C9_2 1_555 1_555
C1_4 N1_2 1_555 1_555
C5_4 N1_2 1_555 1_555
C6_4 O3_2 1_555 1_555
C8_4 O8_2 1_555 1_555
C9_2 C10_2 1_555 1_555
C10_2 H7_2 1_555 1_555
C11_2 C10_2 1_555 1_555
C12_2 C11_2 1_555 1_555
H8_2 C12_2 1_555 1_555
C13_2 N7_2 1_555 1_555
C14_2 C9_2 1_555 1_555
C15_2 O12_2 1_555 1_555
C16_2 C13_2 1_555 1_555
Dy5_4 O17_4 1_555 1_555
Dy7 O19_2 1_555 1_555
O17_4 C22_4 1_555 1_555
O19_2 C22_4 1_555 1_555
O21_4 Dy14 1_555 1_555
O22_4 C23_4 1_555 1_555
O35_4 Dy14 1_555 1_555
O41_4 Dy14 1_555 1_555
N3_4 Dy5_4 1_555 1_555
C17_4 N3_4 1_555 1_555
C18_4 C17_4 1_555 1_555
H13_4 C18_4 1_555 1_555
C19_4 C18_4 1_555 1_555
C20_4 C19_4 1_555 1_555
C21_4 N3_4 1_555 1_555
C22_4 C17_4 1_555 1_555
C23_4 O21_4 1_555 1_555
C1_4 C6_4 1_555 1_555
C5_4 C8_4 1_555 1_555
C11_2 C15_2 1_555 1_555
C12_2 C13_2 1_555 1_555
C19_4 C23_4 1_555 1_555
C20_4 C21_4 1_555 1_555
O5_4 C7_4 1_555 1_555
O6_4 C7_4 1_555 1_555
H5_4 C2_4 1_555 1_555
C3_4 C2_4 1_555 1_555
C4_4 C3_4 1_555 1_555
H6_4 C4_4 1_555 1_555
C7_4 C3_4 1_555 1_555
Dy7 O5_4 1_555 1_555
O33_4 Dy7 1_555 1_555
Dy5_4 O13_3 1_555 1_555
O2_3 Dy5_4 1_555 1_555
H3_3 O2_3 1_555 1_555
H4_3 O2_3 1_555 1_555
O29_3 C14_3 1_555 1_555
O33_3 C14_3 1_555 1_555
O41_3 C16_3 1_555 1_555
N6_3 C9_3 1_555 1_555
C9_3 C10_3 1_555 1_555
C10_3 H7_3 1_555 1_555
C11_3 C10_3 1_555 1_555
C12_3 C11_3 1_555 1_555
H8_3 C12_3 1_555 1_555
C13_3 N6_3 1_555 1_555
C14_3 C9_3 1_555 1_555
C16_3 C13_3 1_555 1_555
C12_3 C13_3 1_555 1_555
H2_3 O1_3 1_555 1_555
O35_3 C15_3 1_555 1_555
C15_3 O12_3 1_555 1_555
O41_4 Dy5_3 1_555 1_555
Dy5_3 O1_4 1_555 1_555
H2_4 O1_4 1_555 1_555
O2_4 Dy5_3 1_555 1_555
H3_4 O2_4 1_555 1_555
H4_4 O2_4 1_555 1_555
O29_4 C14_4 1_555 1_555
O33_4 C14_4 1_555 1_555
O35_4 C15_4 1_555 1_555
O12_4 Dy5_3 1_555 1_555
O13_4 C16_4 1_555 1_555
N6_4 C9_4 1_555 1_555
C9_4 C10_4 1_555 1_555
C10_4 H7_4 1_555 1_555
C11_4 C10_4 1_555 1_555
C12_4 C11_4 1_555 1_555
H8_4 C12_4 1_555 1_555
C13_4 N6_4 1_555 1_555
C14_4 C9_4 1_555 1_555
C15_4 O12_4 1_555 1_555
C16_4 C13_4 1_555 1_555
C11_4 C15_4 1_555 1_555
C12_4 C13_4 1_555 1_555

#END
