
###############################################################################
#
# This file contains modified crystal structure data generated from the
# MOF subset of the Cambridge Structural Database (CSD) v543 
# hosted by the Cambridge Crystallographic Data Centre (CCDC).
#
# This work is licensed under the Creative Commons
# Attribution-NonCommercial-ShareAlike 4.0 International License.
# To view a copy of this license, visit
# http://creativecommons.org/licenses/by-nc-sa/4.0/
# or send a letter to
# Creative Commons, PO Box 1866, Mountain View, CA 94042, USA.
#
# CIF created using the CSD Python API on 29 September 2022
# The structure has been converted into the P1 space group
# The structure has a 3D framework
# The original CSD entry KOLQAE is in the monoclinic crystal system
# The framework has been calculated to contain at least 10.0% void space
# The void calculation uses a probe of radius 1.32A, grid spacing 0.4
#
###############################################################################

data_KOLQAE
_chemical_formula_moiety         '(C128 H80 Gd16 N16 O108)n'
_symmetry_cell_setting           triclinic
_symmetry_space_group_name_H-M   'P 1'
_symmetry_Int_Tables_number      1
_space_group_name_Hall           'P 1'
loop_
_symmetry_equiv_pos_site_id
_symmetry_equiv_pos_as_xyz
1 x,y,z
_cell_length_a                   22.2267(16)
_cell_length_b                   9.3424(7)
_cell_length_c                   22.3427(16)
_cell_angle_alpha                90
_cell_angle_beta                 103.138(1)
_cell_angle_gamma                90
_cell_volume                     4518.04
loop_
_atom_site_label
_atom_site_type_symbol
_atom_site_fract_x
_atom_site_fract_y
_atom_site_fract_z
Gd3 Gd 0.045996(16) 0.27324(4) 0.432302(16)
O17 O 0.1243(3) 0.0965(6) 0.4265(3)
H13 H 0.1366 0.0666 0.3953
H14 H 0.1308 0.0370 0.4560
O18 O 0.0579(3) 0.0858(6) 0.5122(3)
H15 H 0.0377 0.0670 0.5394
H16 H 0.0613 0.0090 0.4929
O20 O 0.0723(2) 0.3029(6) 0.3341(2)
O29 O 0.0952(2) 0.3857(5) 0.5287(2)
O32 O 0.2667(2) 0.0349(5) 0.2829(2)
O41 O 0.0285(2) 0.5402(5) 0.4140(2)
N4 N 0.1438(3) 0.4103(6) 0.4337(2)
N7 N 0.3815(3) 0.1156(6) 0.3220(3)
Gd2 Gd 0.154251(15) 0.35990(3) 0.179096(15)
O5 O 0.1303(2) 0.3913(6) 0.2744(2)
O6 O 0.3168(3) 0.6884(6) 0.3852(3)
O7 O 0.3548(3) 0.6268(6) 0.4826(3)
O8 O 0.1673(2) 0.5259(6) 0.5863(2)
C1 C 0.1630(3) 0.4263(8) 0.3817(3)
C2 C 0.2168(3) 0.4984(8) 0.3800(3)
H7 H 0.2297 0.5080 0.3434
C3 C 0.2518(3) 0.5574(8) 0.4356(3)
C4 C 0.2304(3) 0.5396(8) 0.4877(3)
H8 H 0.2529 0.5760 0.5248
C5 C 0.1760(3) 0.4687(7) 0.4859(3)
C6 C 0.1186(3) 0.3675(7) 0.3251(3)
C7 C 0.3130(4) 0.6305(7) 0.4346(4)
C8 C 0.1437(3) 0.4585(7) 0.5387(3)
Gd6 Gd 0.345749(15) 0.85990(3) 0.320904(15)
Gd7 Gd 0.154251(15) 0.64010(3) 0.679096(15)
O22 O 0.3697(2) 0.8913(6) 0.2256(2)
O23 O 0.1832(3) 0.1884(6) 0.1148(3)
O24 O 0.1452(3) 0.1268(6) 0.0174(3)
O26 O 0.1673(2) 0.4741(6) 0.0863(2)
O27 O 0.3327(2) 0.9741(6) 0.4137(2)
O31 O 0.2333(2) 0.5349(5) 0.2171(2)
O34 O 0.2378(3) 0.2504(5) 0.2455(3)
O35 O 0.2622(3) 0.7504(5) 0.2545(3)
O37 O 0.1010(3) 0.1440(5) 0.1901(3)
O38 O 0.3990(3) 0.6440(5) 0.3099(3)
O43 O 0.0465(2) 0.4023(5) 0.1347(2)
O45 O 0.4535(2) 0.9023(5) 0.3653(2)
N6 N 0.1185(3) 0.6156(6) 0.1780(3)
H17 H 0.2703 0.0080 0.1566
C19 C 0.2482(3) 0.0574(8) 0.0644(3)
C20 C 0.2696(3) 0.0396(8) 0.0123(3)
C23 C 0.1870(4) 0.1305(7) 0.0654(4)
Gd14 Gd 0.345749(15) 0.14010(3) 0.820904(15)
O25 O 0.3327(2) 0.0259(6) 0.9137(2)
H18 H 0.2471 0.0760 0.9752
Gd5 Gd 0.454004(16) 0.77324(4) 0.067698(16)
O19 O 0.4277(2) 0.8029(6) 0.1659(2)
N3 N 0.3562(3) 0.9103(6) 0.0663(2)
C17 C 0.3370(3) 0.9263(8) 0.1183(3)
C18 C 0.2832(3) 0.9984(8) 0.1200(3)
C21 C 0.3240(3) 0.9687(7) 0.0141(3)
C22 C 0.3814(3) 0.8675(7) 0.1749(3)
O28 O 0.4048(2) 0.8857(5) 0.9713(2)
C24 C 0.3563(3) 0.9585(7) 0.9613(3)
Gd12 Gd 0.845749(15) 0.35990(3) 0.320904(15)
O16 O 0.9636(2) 0.2858(6) 0.4874(2)
H11 H 0.9668 0.3279 0.5217
H12 H 0.9270 0.2539 0.4758
O36 O 0.8990(3) 0.1440(5) 0.3099(3)
O39 O 0.9801(2) 0.0853(5) 0.3853(2)
O44 O 0.9535(2) 0.4023(5) 0.3653(2)
C31 C 0.9331(3) 0.0556(7) 0.3438(3)
Gd11 Gd 0.654251(15) 0.85990(3) 0.179096(15)
O30 O 0.7667(2) 0.5349(5) 0.2829(2)
O33 O 0.7378(3) 0.7504(5) 0.2455(3)
N5 N 0.8815(3) 0.6156(6) 0.3220(3)
C25 C 0.8411(3) 0.7186(7) 0.3003(3)
C26 C 0.8563(3) 0.8630(7) 0.3058(3)
H19 H 0.8273 0.9335 0.2908
C27 C 0.9162(3) 0.8975(7) 0.3344(3)
C28 C 0.9587(3) 0.7932(7) 0.3572(3)
H20 H 0.9993 0.8163 0.3761
C29 C 0.9388(3) 0.6517(7) 0.3510(3)
C30 C 0.7760(3) 0.6639(7) 0.2739(3)
C32 C 0.9768(3) 0.5258(7) 0.3783(3)
O41_2 O 0.5285(2) 0.0402(5) 0.4140(2)
O6_2 O 0.8168(3) 0.1884(6) 0.3852(3)
O7_2 O 0.8548(3) 0.1268(6) 0.4826(3)
O8_2 O 0.6673(2) 0.0259(6) 0.5863(2)
H7_2 H 0.7297 0.0080 0.3434
C3_2 C 0.7518(3) 0.0574(8) 0.4356(3)
C4_2 C 0.7304(3) 0.0396(8) 0.4877(3)
H8_2 H 0.7529 0.0760 0.5248
C7_2 C 0.8130(4) 0.1305(7) 0.4346(4)
Gd3_2 Gd 0.545996(16) 0.77324(4) 0.432302(16)
Gd7_2 Gd 0.654251(15) 0.14010(3) 0.679096(15)
O16_2 O 0.4636(2) 0.7858(6) 0.4874(2)
H11_2 H 0.4668 0.8279 0.5217
H12_2 H 0.4270 0.7539 0.4758
O17_2 O 0.6243(3) 0.5965(6) 0.4265(3)
H13_2 H 0.6366 0.5666 0.3953
H14_2 H 0.6308 0.5370 0.4560
O18_2 O 0.5579(3) 0.5858(6) 0.5122(3)
H15_2 H 0.5377 0.5670 0.5394
H16_2 H 0.5613 0.5090 0.4929
O20_2 O 0.5723(2) 0.8029(6) 0.3341(2)
O22_2 O 0.8697(2) 0.3913(6) 0.2256(2)
O27_2 O 0.8327(2) 0.4741(6) 0.4137(2)
O29_2 O 0.5952(2) 0.8857(5) 0.5287(2)
O31_2 O 0.7333(2) 0.0349(5) 0.2171(2)
O35_2 O 0.7622(3) 0.2504(5) 0.2545(3)
O39_2 O 0.4801(2) 0.5853(5) 0.3853(2)
N4_2 N 0.6438(3) 0.9103(6) 0.4337(2)
N6_2 N 0.6185(3) 0.1156(6) 0.1780(3)
C25_2 C 0.3411(3) 0.2186(7) 0.3003(3)
C26_2 C 0.3563(3) 0.3630(7) 0.3058(3)
H19_2 H 0.3273 0.4335 0.2908
C27_2 C 0.4162(3) 0.3975(7) 0.3344(3)
C28_2 C 0.4587(3) 0.2932(7) 0.3572(3)
H20_2 H 0.4993 0.3163 0.3761
C29_2 C 0.4388(3) 0.1517(7) 0.3510(3)
C30_2 C 0.2760(3) 0.1639(7) 0.2739(3)
C31_2 C 0.4331(3) 0.5556(7) 0.3438(3)
C32_2 C 0.4768(3) 0.0258(7) 0.3783(3)
O5_2 O 0.6303(2) 0.8913(6) 0.2744(2)
C1_2 C 0.6630(3) 0.9263(8) 0.3817(3)
C2_2 C 0.7168(3) 0.9984(8) 0.3800(3)
C5_2 C 0.6760(3) 0.9687(7) 0.4859(3)
C6_2 C 0.6186(3) 0.8675(7) 0.3251(3)
C8_2 C 0.6437(3) 0.9585(7) 0.5387(3)
Gd5_2 Gd 0.954004(16) 0.27324(4) 0.067698(16)
O19_2 O 0.9277(2) 0.3029(6) 0.1659(2)
O23_2 O 0.6832(3) 0.6884(6) 0.1148(3)
O24_2 O 0.6452(3) 0.6268(6) 0.0174(3)
O26_2 O 0.6673(2) 0.9741(6) 0.0863(2)
O37_2 O 0.6010(3) 0.6440(5) 0.1901(3)
O43_2 O 0.5465(2) 0.9023(5) 0.1347(2)
N3_2 N 0.8562(3) 0.4103(6) 0.0663(2)
C17_2 C 0.8370(3) 0.4263(8) 0.1183(3)
C18_2 C 0.7832(3) 0.4984(8) 0.1200(3)
H17_2 H 0.7703 0.5080 0.1566
C19_2 C 0.7482(3) 0.5574(8) 0.0644(3)
C20_2 C 0.7696(3) 0.5396(8) 0.0123(3)
C21_2 C 0.8240(3) 0.4687(7) 0.0141(3)
C22_2 C 0.8814(3) 0.3675(7) 0.1749(3)
C23_2 C 0.6870(4) 0.6305(7) 0.0654(4)
Gd14_2 Gd 0.845749(15) 0.64010(3) 0.820904(15)
O25_2 O 0.8327(2) 0.5259(6) 0.9137(2)
O28_2 O 0.9048(2) 0.3857(5) 0.9713(2)
H18_2 H 0.7471 0.5760 0.9752
C24_2 C 0.8563(3) 0.4585(7) 0.9613(3)
O16_3 O 0.0364(2) 0.2858(6) 0.0126(2)
H12_3 H 0.0730 0.2539 0.0242
O39_3 O 0.0199(2) 0.0853(5) 0.1147(2)
C31_3 C 0.0669(3) 0.0556(7) 0.1562(3)
C25_3 C 0.1589(3) 0.7186(7) 0.1997(3)
C26_3 C 0.1437(3) 0.8630(7) 0.1942(3)
H19_3 H 0.1727 0.9335 0.2092
C27_3 C 0.0838(3) 0.8975(7) 0.1656(3)
C28_3 C 0.0413(3) 0.7932(7) 0.1428(3)
H20_3 H 0.0007 0.8163 0.1239
C29_3 C 0.0612(3) 0.6517(7) 0.1490(3)
C30_3 C 0.2240(3) 0.6639(7) 0.2261(3)
C32_3 C 0.0232(3) 0.5258(7) 0.1217(3)
O17_3 O 0.8757(3) 0.0965(6) 0.0735(3)
H13_3 H 0.8634 0.0666 0.1047
H14_3 H 0.8692 0.0370 0.0440
H16_3 H 0.9387 0.0090 0.0071
O41_3 O 0.9715(2) 0.5402(5) 0.0860(2)
O18_3 O 0.9421(3) 0.0858(6) 0.9878(3)
H15_3 H 0.9623 0.0670 0.9606
O41_4 O 0.4715(2) 0.0402(5) 0.0860(2)
O16_4 O 0.5364(2) 0.7858(6) 0.0126(2)
H12_4 H 0.5730 0.7539 0.0242
O17_4 O 0.3757(3) 0.5965(6) 0.0735(3)
H13_4 H 0.3634 0.5666 0.1047
H14_4 H 0.3692 0.5370 0.0440
H16_4 H 0.4387 0.5090 0.0071
O39_4 O 0.5199(2) 0.5853(5) 0.1147(2)
C25_4 C 0.6589(3) 0.2186(7) 0.1997(3)
C26_4 C 0.6437(3) 0.3630(7) 0.1942(3)
H19_4 H 0.6727 0.4335 0.2092
C27_4 C 0.5838(3) 0.3975(7) 0.1656(3)
C28_4 C 0.5413(3) 0.2932(7) 0.1428(3)
H20_4 H 0.5007 0.3163 0.1239
C29_4 C 0.5612(3) 0.1517(7) 0.1490(3)
C30_4 C 0.7240(3) 0.1639(7) 0.2261(3)
C31_4 C 0.5669(3) 0.5556(7) 0.1562(3)
C32_4 C 0.5232(3) 0.0258(7) 0.1217(3)
H11_3 H 0.5332 0.8279 0.9783
O18_4 O 0.4421(3) 0.5858(6) 0.9878(3)
H15_4 H 0.4623 0.5670 0.9606
O10 O 0.2333(2) 0.4651(5) 0.7171(2)
O11 O 0.2622(3) 0.2496(5) 0.7545(3)
O15 O 0.0465(2) 0.5977(5) 0.6347(2)
N2 N 0.1185(3) 0.3844(6) 0.6780(3)
C9 C 0.1589(3) 0.2814(7) 0.6997(3)
C10 C 0.1437(3) 0.1370(7) 0.6942(3)
H9 H 0.1727 0.0665 0.7092
C11 C 0.0838(3) 0.1025(7) 0.6656(3)
C12 C 0.0413(3) 0.2068(7) 0.6428(3)
H10 H 0.0007 0.1837 0.6239
C13 C 0.0612(3) 0.3483(7) 0.6490(3)
C14 C 0.2240(3) 0.3361(7) 0.7261(3)
C16 C 0.0232(3) 0.4742(7) 0.6217(3)
O1 O 0.0364(2) 0.7142(6) 0.5126(2)
H1 H 0.0332 0.6721 0.4783
H2 H 0.0730 0.7461 0.5242
O12 O 0.1010(3) 0.8560(5) 0.6901(3)
O13 O 0.0199(2) 0.9147(5) 0.6147(2)
C15 C 0.0669(3) 0.9444(7) 0.6562(3)
O28_3 O 0.5952(2) 0.1143(5) 0.0287(2)
C24_3 C 0.6437(3) 0.0415(7) 0.0387(3)
O14 O 0.9715(2) 0.4598(5) 0.5860(2)
Gd4 Gd 0.954004(16) 0.72676(4) 0.567698(16)
Gd5_3 Gd 0.545996(16) 0.22676(4) 0.932302(16)
O19_3 O 0.5723(2) 0.1971(6) 0.8341(2)
O21 O 0.6303(2) 0.1087(6) 0.7744(2)
N3_3 N 0.6438(3) 0.0897(6) 0.9337(2)
C17_3 C 0.6630(3) 0.0737(8) 0.8817(3)
C18_3 C 0.7168(3) 0.0016(8) 0.8800(3)
C21_3 C 0.6760(3) 0.0313(7) 0.9859(3)
C22_3 C 0.6186(3) 0.1325(7) 0.8251(3)
H18_3 H 0.7529 0.9240 0.0248
O2 O 0.8757(3) 0.9035(6) 0.5735(3)
H3 H 0.8634 0.9334 0.6047
H4 H 0.8692 0.9630 0.5440
O3 O 0.9421(3) 0.9142(6) 0.4878(3)
H5 H 0.9623 0.9330 0.4606
H6 H 0.9387 0.9910 0.5071
O4 O 0.9277(2) 0.6971(6) 0.6659(2)
O5_3 O 0.8697(2) 0.6087(6) 0.7256(2)
O6_3 O 0.6832(3) 0.3116(6) 0.6148(3)
O7_3 O 0.6452(3) 0.3732(6) 0.5174(3)
O9 O 0.9048(2) 0.6143(5) 0.4713(2)
N1 N 0.8562(3) 0.5897(6) 0.5663(2)
C1_3 C 0.8370(3) 0.5737(8) 0.6183(3)
C2_3 C 0.7832(3) 0.5016(8) 0.6200(3)
H7_3 H 0.7703 0.4920 0.6566
C3_3 C 0.7482(3) 0.4426(8) 0.5644(3)
C4_3 C 0.7696(3) 0.4604(8) 0.5123(3)
H8_3 H 0.7471 0.4240 0.4752
C5_3 C 0.8240(3) 0.5313(7) 0.5141(3)
C6_3 C 0.8814(3) 0.6325(7) 0.6749(3)
C7_3 C 0.6870(4) 0.3695(7) 0.5654(4)
C8_3 C 0.8563(3) 0.5415(7) 0.4613(3)
O23_3 O 0.8168(3) 0.8116(6) 0.8852(3)
O24_3 O 0.8548(3) 0.8732(6) 0.9826(3)
O31_3 O 0.7667(2) 0.4651(5) 0.7829(2)
O34_2 O 0.7622(3) 0.7496(5) 0.7545(3)
O35_3 O 0.7378(3) 0.2496(5) 0.7455(3)
O37_3 O 0.8990(3) 0.8560(5) 0.8099(3)
O38_2 O 0.6010(3) 0.3560(5) 0.6901(3)
O43_3 O 0.9535(2) 0.5977(5) 0.8653(2)
O45_2 O 0.5465(2) 0.0977(5) 0.6347(2)
N6_3 N 0.8815(3) 0.3844(6) 0.8220(3)
H17_3 H 0.7297 0.9920 0.8434
C19_3 C 0.7518(3) 0.9426(8) 0.9356(3)
C20_3 C 0.7304(3) 0.9604(8) 0.9877(3)
C23_3 C 0.8130(4) 0.8695(7) 0.9346(4)
O32_2 O 0.7333(2) 0.9651(5) 0.7171(2)
N7_2 N 0.6185(3) 0.8844(6) 0.6780(3)
Gd4_2 Gd 0.454004(16) 0.22676(4) 0.567698(16)
O28_4 O 0.0952(2) 0.6143(5) 0.0287(2)
H18_4 H 0.2529 0.4240 0.0248
C24_4 C 0.1437(3) 0.5415(7) 0.0387(3)
O1_2 O 0.5364(2) 0.2142(6) 0.5126(2)
H1_2 H 0.5332 0.1721 0.4783
H2_2 H 0.5730 0.2461 0.5242
O2_2 O 0.3757(3) 0.4035(6) 0.5735(3)
H3_2 H 0.3634 0.4334 0.6047
H4_2 H 0.3692 0.4630 0.5440
O3_2 O 0.4421(3) 0.4142(6) 0.4878(3)
H5_2 H 0.4623 0.4330 0.4606
H6_2 H 0.4387 0.4910 0.5071
O4_2 O 0.4277(2) 0.1971(6) 0.6659(2)
O5_4 O 0.3697(2) 0.1087(6) 0.7256(2)
O9_2 O 0.4048(2) 0.1143(5) 0.4713(2)
O13_2 O 0.5199(2) 0.4147(5) 0.6147(2)
O14_2 O 0.4715(2) 0.9598(5) 0.5860(2)
N1_2 N 0.3562(3) 0.0897(6) 0.5663(2)
C1_4 C 0.3370(3) 0.0737(8) 0.6183(3)
C2_4 C 0.2832(3) 0.0016(8) 0.6200(3)
C5_4 C 0.3240(3) 0.0313(7) 0.5141(3)
C6_4 C 0.3814(3) 0.1325(7) 0.6749(3)
C8_4 C 0.3563(3) 0.0415(7) 0.4613(3)
C9_2 C 0.6589(3) 0.7814(7) 0.6997(3)
C10_2 C 0.6437(3) 0.6370(7) 0.6942(3)
H9_2 H 0.6727 0.5665 0.7092
C11_2 C 0.5838(3) 0.6025(7) 0.6656(3)
C12_2 C 0.5413(3) 0.7068(7) 0.6428(3)
H10_2 H 0.5007 0.6837 0.6239
C13_2 C 0.5612(3) 0.8483(7) 0.6490(3)
C14_2 C 0.7240(3) 0.8361(7) 0.7261(3)
C15_2 C 0.5669(3) 0.4444(7) 0.6562(3)
C16_2 C 0.5232(3) 0.9742(7) 0.6217(3)
Gd5_4 Gd 0.045996(16) 0.72676(4) 0.932302(16)
O19_4 O 0.0723(2) 0.6971(6) 0.8341(2)
O21_2 O 0.1303(2) 0.6087(6) 0.7744(2)
O23_4 O 0.3168(3) 0.3116(6) 0.8852(3)
O24_4 O 0.3548(3) 0.3732(6) 0.9826(3)
O37_4 O 0.3990(3) 0.3560(5) 0.8099(3)
O43_4 O 0.4535(2) 0.0977(5) 0.8653(2)
N3_4 N 0.1438(3) 0.5897(6) 0.9337(2)
C17_4 C 0.1630(3) 0.5737(8) 0.8817(3)
C18_4 C 0.2168(3) 0.5016(8) 0.8800(3)
H17_4 H 0.2297 0.4920 0.8434
C19_4 C 0.2518(3) 0.4426(8) 0.9356(3)
C20_4 C 0.2304(3) 0.4604(8) 0.9877(3)
C21_4 C 0.1760(3) 0.5313(7) 0.9859(3)
C22_4 C 0.1186(3) 0.6325(7) 0.8251(3)
C23_4 C 0.3130(4) 0.3695(7) 0.9346(4)
O6_4 O 0.1832(3) 0.8116(6) 0.6148(3)
O7_4 O 0.1452(3) 0.8732(6) 0.5174(3)
H7_4 H 0.2703 0.9920 0.6566
C3_4 C 0.2482(3) 0.9426(8) 0.5644(3)
C4_4 C 0.2696(3) 0.9604(8) 0.5123(3)
H8_4 H 0.2471 0.9240 0.4752
C7_4 C 0.1870(4) 0.8695(7) 0.5654(4)
O31_4 O 0.2667(2) 0.9651(5) 0.7829(2)
O35_4 O 0.2378(3) 0.7496(5) 0.7455(3)
N6_4 N 0.3815(3) 0.8844(6) 0.8220(3)
O14_3 O 0.0285(2) 0.4598(5) 0.9140(2)
O3_3 O 0.0579(3) 0.9142(6) 0.0122(3)
H5_3 H 0.0377 0.9330 0.0394
O2_3 O 0.1243(3) 0.9035(6) 0.9265(3)
H3_3 H 0.1366 0.9334 0.8953
H4_3 H 0.1308 0.9630 0.9560
H6_3 H 0.0613 0.9910 0.9929
C9_3 C 0.8411(3) 0.2814(7) 0.8003(3)
C10_3 C 0.8563(3) 0.1370(7) 0.8058(3)
H9_3 H 0.8273 0.0665 0.7908
C11_3 C 0.9162(3) 0.1025(7) 0.8344(3)
C12_3 C 0.9587(3) 0.2068(7) 0.8572(3)
H10_3 H 0.9993 0.1837 0.8761
C13_3 C 0.9388(3) 0.3483(7) 0.8510(3)
C14_3 C 0.7760(3) 0.3361(7) 0.7739(3)
C16_3 C 0.9768(3) 0.4742(7) 0.8783(3)
O1_3 O 0.9636(2) 0.7142(6) 0.9874(2)
H2_3 H 0.9270 0.7461 0.9758
O13_3 O 0.9801(2) 0.9147(5) 0.8853(2)
C15_3 C 0.9331(3) 0.9444(7) 0.8438(3)
H1_3 H 0.4668 0.1721 0.0217
O3_4 O 0.5579(3) 0.4142(6) 0.0122(3)
H5_4 H 0.5377 0.4330 0.0394
O1_4 O 0.4636(2) 0.2142(6) 0.9874(2)
H2_4 H 0.4270 0.2461 0.9758
O2_4 O 0.6243(3) 0.4035(6) 0.9265(3)
H3_4 H 0.6366 0.4334 0.8953
H4_4 H 0.6308 0.4630 0.9560
H6_4 H 0.5613 0.4910 0.9929
O13_4 O 0.4801(2) 0.4147(5) 0.8853(2)
O14_4 O 0.5285(2) 0.9598(5) 0.9140(2)
C9_4 C 0.3411(3) 0.7814(7) 0.8003(3)
C10_4 C 0.3563(3) 0.6370(7) 0.8058(3)
H9_4 H 0.3273 0.5665 0.7908
C11_4 C 0.4162(3) 0.6025(7) 0.8344(3)
C12_4 C 0.4587(3) 0.7068(7) 0.8572(3)
H10_4 H 0.4993 0.6837 0.8761
C13_4 C 0.4388(3) 0.8483(7) 0.8510(3)
C14_4 C 0.2760(3) 0.8361(7) 0.7739(3)
C15_4 C 0.4331(3) 0.4444(7) 0.8438(3)
C16_4 C 0.4768(3) 0.9742(7) 0.8783(3)
H11_4 H 0.0332 0.3279 0.9783
H1_4 H 0.9668 0.6721 0.0217
loop_
_geom_bond_atom_site_label_1
_geom_bond_atom_site_label_2
_geom_bond_site_symmetry_1
_geom_bond_site_symmetry_2
O17 Gd3 1_555 1_555
H13 O17 1_555 1_555
H14 O17 1_555 1_555
O18 Gd3 1_555 1_555
H15 O18 1_555 1_555
H16 O18 1_555 1_555
O20 Gd3 1_555 1_555
O29 Gd3 1_555 1_555
O41 Gd3 1_555 1_555
N4 Gd3 1_555 1_555
Gd2 O5 1_555 1_555
O5 C6 1_555 1_555
O6 C7 1_555 1_555
O7 C7 1_555 1_555
O8 C8 1_555 1_555
C1 N4 1_555 1_555
C2 C1 1_555 1_555
H7 C2 1_555 1_555
C3 C2 1_555 1_555
C4 C3 1_555 1_555
H8 C4 1_555 1_555
C5 N4 1_555 1_555
C6 O20 1_555 1_555
C7 C3 1_555 1_555
C8 O29 1_555 1_555
Gd6 O6 1_555 1_555
Gd7 O8 1_555 1_555
O22 Gd6 1_555 1_555
O23 Gd2 1_555 1_555
O24 C23 1_555 1_555
O26 Gd2 1_555 1_555
O27 Gd6 1_555 1_555
O31 Gd2 1_555 1_555
O34 Gd2 1_555 1_555
O35 Gd6 1_555 1_555
O37 Gd2 1_555 1_555
O38 Gd6 1_555 1_555
O43 Gd2 1_555 1_555
O45 Gd6 1_555 1_555
N6 Gd2 1_555 1_555
C20 C19 1_555 1_555
C23 O23 1_555 1_555
C1 C6 1_555 1_555
C4 C5 1_555 1_555
C5 C8 1_555 1_555
C19 C23 1_555 1_555
Gd14 O25 1_555 1_555
Gd5 O19 1_555 1_555
O19 C22 1_555 1_555
O22 C22 1_555 1_555
N3 Gd5 1_555 1_555
C17 N3 1_555 1_555
C18 C17 1_555 1_555
C21 N3 1_555 1_555
C22 C17 1_555 1_555
C24 O28 1_555 1_555
Gd12 O36 1_555 1_555
O16 H11 1_555 1_555
H12 O16 1_555 1_555
O36 C31 1_555 1_555
C31 O39 1_555 1_555
Gd12 O44 1_555 1_555
Gd11 O33 1_555 1_555
O30 Gd12 1_555 1_555
O33 C30 1_555 1_555
N5 Gd12 1_555 1_555
C25 N5 1_555 1_555
C26 C25 1_555 1_555
H19 C26 1_555 1_555
C27 C26 1_555 1_555
C28 C27 1_555 1_555
H20 C28 1_555 1_555
C29 N5 1_555 1_555
C30 O30 1_555 1_555
O44 C32 1_555 1_555
C25 C30 1_555 1_555
C28 C29 1_555 1_555
C29 C32 1_555 1_555
O6_2 C7_2 1_555 1_555
O7_2 C7_2 1_555 1_555
C4_2 C3_2 1_555 1_555
H8_2 C4_2 1_555 1_555
C7_2 C3_2 1_555 1_555
Gd3_2 O16_2 1_555 1_555
Gd12 O6_2 1_555 1_555
Gd7_2 O8_2 1_555 1_555
O16_2 H11_2 1_555 1_555
H12_2 O16_2 1_555 1_555
O17_2 Gd3_2 1_555 1_555
H13_2 O17_2 1_555 1_555
H14_2 O17_2 1_555 1_555
O18_2 Gd3_2 1_555 1_555
H15_2 O18_2 1_555 1_555
H16_2 O18_2 1_555 1_555
O20_2 Gd3_2 1_555 1_555
O22_2 Gd12 1_555 1_555
O27_2 Gd12 1_555 1_555
O29_2 Gd3_2 1_555 1_555
O34 C30_2 1_555 1_555
O35_2 Gd12 1_555 1_555
O38 C31_2 1_555 1_555
O39_2 Gd3_2 1_555 1_555
O45 Gd3_2 1_555 1_555
N4_2 Gd3_2 1_555 1_555
C25_2 N7 1_555 1_555
C26_2 C25_2 1_555 1_555
H19_2 C26_2 1_555 1_555
C27_2 C26_2 1_555 1_555
C28_2 C27_2 1_555 1_555
H20_2 C28_2 1_555 1_555
C29_2 N7 1_555 1_555
C30_2 O32 1_555 1_555
C31_2 O39_2 1_555 1_555
C32_2 O41_2 1_555 1_555
C25_2 C30_2 1_555 1_555
C27_2 C31_2 1_555 1_555
C28_2 C29_2 1_555 1_555
C29_2 C32_2 1_555 1_555
Gd11 O5_2 1_555 1_555
O5_2 C6_2 1_555 1_555
C1_2 N4_2 1_555 1_555
C2_2 C1_2 1_555 1_555
C5_2 N4_2 1_555 1_555
C6_2 O20_2 1_555 1_555
C8_2 O29_2 1_555 1_555
Gd5_2 O19_2 1_555 1_555
O19_2 C22_2 1_555 1_555
O22_2 C22_2 1_555 1_555
O23_2 Gd11 1_555 1_555
O24_2 C23_2 1_555 1_555
O26_2 Gd11 1_555 1_555
O37_2 Gd11 1_555 1_555
O43_2 Gd11 1_555 1_555
N3_2 Gd5_2 1_555 1_555
C17_2 N3_2 1_555 1_555
C18_2 C17_2 1_555 1_555
H17_2 C18_2 1_555 1_555
C19_2 C18_2 1_555 1_555
C20_2 C19_2 1_555 1_555
C21_2 N3_2 1_555 1_555
C22_2 C17_2 1_555 1_555
C23_2 O23_2 1_555 1_555
C1_2 C6_2 1_555 1_555
C5_2 C8_2 1_555 1_555
C19_2 C23_2 1_555 1_555
C20_2 C21_2 1_555 1_555
Gd14_2 O25_2 1_555 1_555
O25_2 C24_2 1_555 1_555
C24_2 O28_2 1_555 1_555
H12_3 O16_3 1_555 1_555
O37 C31_3 1_555 1_555
C31_3 O39_3 1_555 1_555
O35 C30_3 1_555 1_555
C25_3 N6 1_555 1_555
C26_3 C25_3 1_555 1_555
H19_3 C26_3 1_555 1_555
C27_3 C26_3 1_555 1_555
C28_3 C27_3 1_555 1_555
H20_3 C28_3 1_555 1_555
C29_3 N6 1_555 1_555
C30_3 O31 1_555 1_555
O43 C32_3 1_555 1_555
C25_3 C30_3 1_555 1_555
C28_3 C29_3 1_555 1_555
C29_3 C32_3 1_555 1_555
O17_3 Gd5_2 1_555 1_555
H13_3 O17_3 1_555 1_555
H14_3 O17_3 1_555 1_555
O41_3 Gd5_2 1_555 1_555
H15_3 O18_3 1_555 1_555
Gd5 O16_4 1_555 1_555
H12_4 O16_4 1_555 1_555
O17_4 Gd5 1_555 1_555
H13_4 O17_4 1_555 1_555
H14_4 O17_4 1_555 1_555
O35_2 C30_4 1_555 1_555
O37_2 C31_4 1_555 1_555
O39_4 Gd5 1_555 1_555
O43_2 Gd5 1_555 1_555
C25_4 N6_2 1_555 1_555
C26_4 C25_4 1_555 1_555
H19_4 C26_4 1_555 1_555
C27_4 C26_4 1_555 1_555
C28_4 C27_4 1_555 1_555
H20_4 C28_4 1_555 1_555
C29_4 N6_2 1_555 1_555
C30_4 O31_2 1_555 1_555
C31_4 O39_4 1_555 1_555
C32_4 O41_4 1_555 1_555
C25_4 C30_4 1_555 1_555
C27_4 C31_4 1_555 1_555
C28_4 C29_4 1_555 1_555
C29_4 C32_4 1_555 1_555
H15_4 O18_4 1_555 1_555
O10 C14 1_555 1_555
O11 C14 1_555 1_555
O15 C16 1_555 1_555
N2 C9 1_555 1_555
C9 C10 1_555 1_555
C10 H9 1_555 1_555
C11 C10 1_555 1_555
C12 C11 1_555 1_555
H10 C12 1_555 1_555
C13 N2 1_555 1_555
C14 C9 1_555 1_555
C16 C13 1_555 1_555
Gd7 O10 1_555 1_555
Gd14 O11 1_555 1_555
O15 Gd7 1_555 1_555
N2 Gd7 1_555 1_555
C12 C13 1_555 1_555
O1 H1 1_555 1_555
H2 O1 1_555 1_555
O12 C15 1_555 1_555
C15 O13 1_555 1_555
Gd7 O12 1_555 1_555
C24_3 O28_3 1_555 1_555
Gd4 O14 1_555 1_555
Gd5_3 O19_3 1_555 1_555
Gd7_2 O21 1_555 1_555
O19_3 C22_3 1_555 1_555
O21 C22_3 1_555 1_555
N3_3 Gd5_3 1_555 1_555
C17_3 N3_3 1_555 1_555
C18_3 C17_3 1_555 1_555
C21_3 N3_3 1_555 1_555
C22_3 C17_3 1_555 1_555
Gd14_2 O5_3 1_555 1_555
O2 Gd4 1_555 1_555
H3 O2 1_555 1_555
H4 O2 1_555 1_555
O3 Gd4 1_555 1_555
H5 O3 1_555 1_555
H6 O3 1_555 1_555
O4 Gd4 1_555 1_555
O5_3 C6_3 1_555 1_555
O6_3 C7_3 1_555 1_555
O7_3 C7_3 1_555 1_555
O27_2 C8_3 1_555 1_555
O9 Gd4 1_555 1_555
N1 Gd4 1_555 1_555
C1_3 N1 1_555 1_555
C2_3 C1_3 1_555 1_555
H7_3 C2_3 1_555 1_555
C3_3 C2_3 1_555 1_555
C4_3 C3_3 1_555 1_555
H8_3 C4_3 1_555 1_555
C5_3 N1 1_555 1_555
C6_3 O4 1_555 1_555
C7_3 C3_3 1_555 1_555
C8_3 O9 1_555 1_555
Gd7_2 O6_3 1_555 1_555
O23_3 Gd14_2 1_555 1_555
O24_3 C23_3 1_555 1_555
O31_3 Gd14_2 1_555 1_555
O34_2 Gd14_2 1_555 1_555
O35_3 Gd7_2 1_555 1_555
O37_3 Gd14_2 1_555 1_555
O38_2 Gd7_2 1_555 1_555
O43_3 Gd14_2 1_555 1_555
O45_2 Gd7_2 1_555 1_555
N6_3 Gd14_2 1_555 1_555
C20_3 C19_3 1_555 1_555
C23_3 O23_3 1_555 1_555
C1_3 C6_3 1_555 1_555
C4_3 C5_3 1_555 1_555
C5_3 C8_3 1_555 1_555
C19_3 C23_3 1_555 1_555
O45_2 Gd4_2 1_555 1_555
O26 C24_4 1_555 1_555
C24_4 O28_4 1_555 1_555
Gd4_2 O1_2 1_555 1_555
Gd14 O5_4 1_555 1_555
O1_2 H1_2 1_555 1_555
H2_2 O1_2 1_555 1_555
O2_2 Gd4_2 1_555 1_555
H3_2 O2_2 1_555 1_555
H4_2 O2_2 1_555 1_555
O3_2 Gd4_2 1_555 1_555
H5_2 O3_2 1_555 1_555
H6_2 O3_2 1_555 1_555
O4_2 Gd4_2 1_555 1_555
O5_4 C6_4 1_555 1_555
O9_2 Gd4_2 1_555 1_555
O32_2 C14_2 1_555 1_555
O34_2 C14_2 1_555 1_555
O38_2 C15_2 1_555 1_555
O13_2 Gd4_2 1_555 1_555
O14_2 C16_2 1_555 1_555
N1_2 Gd4_2 1_555 1_555
N7_2 C9_2 1_555 1_555
C1_4 N1_2 1_555 1_555
C2_4 C1_4 1_555 1_555
C5_4 N1_2 1_555 1_555
C6_4 O4_2 1_555 1_555
C8_4 O9_2 1_555 1_555
C9_2 C10_2 1_555 1_555
C10_2 H9_2 1_555 1_555
C11_2 C10_2 1_555 1_555
C12_2 C11_2 1_555 1_555
H10_2 C12_2 1_555 1_555
C13_2 N7_2 1_555 1_555
C14_2 C9_2 1_555 1_555
C15_2 O13_2 1_555 1_555
C16_2 C13_2 1_555 1_555
Gd5_4 O19_4 1_555 1_555
Gd7 O21_2 1_555 1_555
O19_4 C22_4 1_555 1_555
O21_2 C22_4 1_555 1_555
O23_4 Gd14 1_555 1_555
O24_4 C23_4 1_555 1_555
O37_4 Gd14 1_555 1_555
O43_4 Gd14 1_555 1_555
N3_4 Gd5_4 1_555 1_555
C17_4 N3_4 1_555 1_555
C18_4 C17_4 1_555 1_555
H17_4 C18_4 1_555 1_555
C19_4 C18_4 1_555 1_555
C20_4 C19_4 1_555 1_555
C21_4 N3_4 1_555 1_555
C22_4 C17_4 1_555 1_555
C23_4 O23_4 1_555 1_555
C1_4 C6_4 1_555 1_555
C5_4 C8_4 1_555 1_555
C11_2 C15_2 1_555 1_555
C12_2 C13_2 1_555 1_555
C19_4 C23_4 1_555 1_555
C20_4 C21_4 1_555 1_555
O6_4 C7_4 1_555 1_555
O7_4 C7_4 1_555 1_555
C4_4 C3_4 1_555 1_555
H8_4 C4_4 1_555 1_555
C7_4 C3_4 1_555 1_555
Gd7 O6_4 1_555 1_555
O35_4 Gd7 1_555 1_555
Gd5_4 O14_3 1_555 1_555
H5_3 O3_3 1_555 1_555
O2_3 Gd5_4 1_555 1_555
H3_3 O2_3 1_555 1_555
H4_3 O2_3 1_555 1_555
O31_3 C14_3 1_555 1_555
O35_3 C14_3 1_555 1_555
O43_3 C16_3 1_555 1_555
N6_3 C9_3 1_555 1_555
C9_3 C10_3 1_555 1_555
C10_3 H9_3 1_555 1_555
C11_3 C10_3 1_555 1_555
C12_3 C11_3 1_555 1_555
H10_3 C12_3 1_555 1_555
C13_3 N6_3 1_555 1_555
C14_3 C9_3 1_555 1_555
C16_3 C13_3 1_555 1_555
C12_3 C13_3 1_555 1_555
H2_3 O1_3 1_555 1_555
O37_3 C15_3 1_555 1_555
C15_3 O13_3 1_555 1_555
O43_4 Gd5_3 1_555 1_555
H5_4 O3_4 1_555 1_555
Gd5_3 O1_4 1_555 1_555
H2_4 O1_4 1_555 1_555
O2_4 Gd5_3 1_555 1_555
H3_4 O2_4 1_555 1_555
H4_4 O2_4 1_555 1_555
O31_4 C14_4 1_555 1_555
O35_4 C14_4 1_555 1_555
O37_4 C15_4 1_555 1_555
O13_4 Gd5_3 1_555 1_555
O14_4 C16_4 1_555 1_555
N6_4 C9_4 1_555 1_555
C9_4 C10_4 1_555 1_555
C10_4 H9_4 1_555 1_555
C11_4 C10_4 1_555 1_555
C12_4 C11_4 1_555 1_555
H10_4 C12_4 1_555 1_555
C13_4 N6_4 1_555 1_555
C14_4 C9_4 1_555 1_555
C15_4 O13_4 1_555 1_555
C16_4 C13_4 1_555 1_555
C11_4 C15_4 1_555 1_555
C12_4 C13_4 1_555 1_555

#END
