
###############################################################################
#
# This file contains modified crystal structure data generated from the
# MOF subset of the Cambridge Structural Database (CSD) v543 
# hosted by the Cambridge Crystallographic Data Centre (CCDC).
#
# This work is licensed under the Creative Commons
# Attribution-NonCommercial-ShareAlike 4.0 International License.
# To view a copy of this license, visit
# http://creativecommons.org/licenses/by-nc-sa/4.0/
# or send a letter to
# Creative Commons, PO Box 1866, Mountain View, CA 94042, USA.
#
# CIF created using the CSD Python API on 29 September 2022
# The structure has been converted into the P1 space group
# The structure has a 3D framework
# The original CSD entry KOLWEO is in the rhombohedral crystal system
# The framework has been calculated to contain at least 10.0% void space
# The void calculation uses a probe of radius 1.32A, grid spacing 0.4
#
###############################################################################

data_KOLWEO
_chemical_formula_moiety         '(C540 H432 N36 Ni22 O104)n'
_symmetry_cell_setting           triclinic
_symmetry_space_group_name_H-M   'P 1'
_symmetry_Int_Tables_number      1
_space_group_name_Hall           'P 1'
loop_
_symmetry_equiv_pos_site_id
_symmetry_equiv_pos_as_xyz
1 x,y,z
_cell_length_a                   31.053(2)
_cell_length_b                   31.053(2)
_cell_length_c                   16.9025(12)
_cell_angle_alpha                90
_cell_angle_beta                 90
_cell_angle_gamma                120.00
_cell_volume                     14115.3
loop_
_atom_site_label
_atom_site_type_symbol
_atom_site_fract_x
_atom_site_fract_y
_atom_site_fract_z
Ni1 Ni 0.285576(16) 0.3333 0.0833
O1 O 0.24498(8) 0.25894(8) 0.10422(13)
O2 O 0.34345(8) 0.34646(9) 0.16035(13)
C1 C 0.23486(12) 0.22304(12) 0.0580(2)
C2 C 0.18833(12) 0.17470(12) 0.0764(2)
C4 C 0.11027(13) 0.13031(13) 0.1472(2)
H2 H 0.0879 0.1302 0.1856
C5 C 0.17671(12) 0.13136(12) 0.0370(2)
C6 C 0.04750(13) 0.04209(12) 0.1133(2)
C8 C 0.09765(12) 0.08678(12) 0.1050(2)
C9 C 0.13233(12) 0.08799(12) 0.0514(2)
H4 H 0.1254 0.0584 0.0242
C10 C 0.15515(12) 0.17366(12) 0.1336(2)
H5 H 0.1634 0.2028 0.1633
C11 C 0.38373(17) 0.3483(2) 0.1183(3)
H6 H 0.4015 0.3369 0.1536
H7 H 0.4073 0.3832 0.1036
H9 H 0.1743 0.2840 0.0392
H12 H 0.3571 0.3820 0.1735
Ni4 Ni 0.047757(16) 0.714391(16) 0.0834
Ni5 Ni 0.6666 0.952243(16) 0.0834
O6 O 0.31937(11) 0.40773(8) 0.06245(13)
O7 O 0.08835(8) 0.68063(11) 0.06245(13)
O8 O 0.59227(8) 0.91165(8) 0.06245(13)
O10 O 0.01396(11) 0.75502(8) 0.10422(13)
O11 O 0.33032(12) 0.32021(9) 0.00632(13)
O14 O 0.00301(12) 0.65655(8) 0.16035(13)
O18 O 0.36851(13) 0.44147(9) 0.16689(16)
O19 O 0.07295(9) 0.63149(13) 0.16689(16)
O20 O 0.55853(9) 0.92705(9) 0.16689(16)
N3 N 0.24443(13) 0.33891(10) 0.17577(15)
N8 N 0.09447(9) 0.75557(13) 0.17577(15)
C18 C 0.34515(17) 0.44363(12) 0.1087(2)
C19 C 0.09847(12) 0.65485(17) 0.1087(2)
C20 C 0.55637(12) 0.90153(12) 0.1087(2)
C23 C 0.34696(17) 0.49197(12) 0.0903(2)
C24 C 0.14500(12) 0.65304(17) 0.0903(2)
C25 C 0.50803(12) 0.85500(12) 0.0903(2)
C27 C 0.00572(12) 0.04713(18) 0.1135(2)
C28 C 0.38046(18) 0.67239(12) 0.0532(2)
C29 C 0.32761(12) 0.70808(13) 0.0532(2)
C30 C 0.29192(13) 0.61954(18) 0.0532(2)
H14 H 0.0095 0.0794 0.1139
H15 H 0.4127 0.6762 0.0528
H16 H 0.3238 0.7366 0.0528
H17 H 0.2634 0.5873 0.0528
C33 C 0.31329(18) 0.53636(13) 0.0195(2)
C34 C 0.22306(13) 0.68671(18) 0.0195(2)
C35 C 0.46364(13) 0.77694(13) 0.0195(2)
C38 C 0.37868(17) 0.53531(12) 0.1297(2)
C39 C 0.15662(12) 0.62132(17) 0.1297(2)
C40 C 0.46469(12) 0.84338(12) 0.1297(2)
H25 H 0.4015 0.5355 0.1672
H26 H 0.1339 0.5985 0.1672
H27 H 0.4645 0.8661 0.1672
C43 C 0.33874(18) 0.62458(12) 0.0534(2)
C44 C 0.37542(12) 0.71417(13) 0.0534(2)
C45 C 0.28583(13) 0.66126(18) 0.0534(2)
C53 C 0.34420(17) 0.57989(12) 0.0617(2)
C54 C 0.23568(12) 0.65580(17) 0.0617(2)
C55 C 0.42011(12) 0.76432(12) 0.0617(2)
C58 C 0.37767(17) 0.57868(12) 0.1153(2)
C59 C 0.20100(12) 0.62233(17) 0.1153(2)
C60 C 0.42132(12) 0.79900(12) 0.1153(2)
H30 H 0.4003 0.6083 0.1425
H31 H 0.2079 0.5997 0.1425
H32 H 0.3917 0.7921 0.1425
C63 C 0.31482(17) 0.49301(12) 0.0331(2)
C64 C 0.17818(12) 0.68518(17) 0.0331(2)
C65 C 0.50699(12) 0.82182(12) 0.0331(2)
H35 H 0.2939 0.4639 0.0034
H36 H 0.1699 0.7061 0.0034
H37 H 0.5361 0.8301 0.0034
C66 C 0.36876(26) 0.3184(2) 0.0484(3)
H38 H 0.3979 0.3298 0.0131
H43 H 0.3574 0.2835 0.0631
H56 H 0.1097 0.8257 0.0392
H71 H 0.0249 0.6429 0.1735
O3 O 0.26038(9) 0.22520(9) 0.99978(16)
N1 N 0.23886(9) 0.32776(10) 0.99090(15)
H3 H 0.1994 0.1312 0.9995
C7 C 0.18169(12) 0.33186(13) 0.8660(2)
C12 C 0.16058(15) 0.3048(2) 0.9334(3)
H8 H 0.1254 0.2869 0.9388
C13 C 0.19013(15) 0.30345(19) 0.9937(3)
C14 C 0.25913(13) 0.35462(17) 0.9268(2)
H10 H 0.2944 0.3735 0.9237
C15 C 0.23174(10) 0.35663(13) 0.8640(2)
H11 H 0.2485 0.3758 0.8186
Ni6 Ni 0.047757(16) 0.3334 0.5834
Ni8 Ni 0.285576(16) 0.952276(16) 0.5833
N2 N 0.09447(9) 0.33891(10) 0.67577(15)
N7 N 0.08890(13) 0.76114(9) 0.99090(15)
N9 N 0.24443(13) 0.90553(9) 0.67577(15)
H20 H 0.2910 0.5365 0.9811
H21 H 0.2454 0.7090 0.9811
H22 H 0.4635 0.7546 0.9811
C46 C 0.15164(12) 0.33481(13) 0.8007(2)
C49 C 0.15017(18) 0.81831(12) 0.8660(2)
C50 C 0.18316(18) 0.84836(12) 0.8007(2)
C71 C 0.17275(15) 0.3619(2) 0.7333(3)
C74 C 0.14422(25) 0.83942(15) 0.9334(3)
C75 C 0.18911(25) 0.82725(15) 0.7333(3)
H48 H 0.2079 0.3798 0.7279
H51 H 0.1615 0.8746 0.9388
H52 H 0.1718 0.7921 0.7279
C76 C 0.14320(15) 0.36322(19) 0.6730(3)
C79 C 0.11332(24) 0.80987(15) 0.9937(3)
C80 C 0.22001(24) 0.85680(15) 0.6730(3)
H53 H 0.1590 0.3827 0.6275
H57 H 0.2236 0.8410 0.6275
C81 C 0.07420(13) 0.31205(17) 0.7399(2)
C84 C 0.09549(21) 0.74087(13) 0.9268(2)
C85 C 0.23784(21) 0.92580(13) 0.7399(2)
H58 H 0.0389 0.2932 0.7430
H61 H 0.0791 0.7056 0.9237
H62 H 0.2542 0.9611 0.7430
C86 C 0.10159(10) 0.31004(13) 0.8027(2)
C89 C 0.12489(16) 0.76826(10) 0.8640(2)
C90 C 0.20844(16) 0.89841(10) 0.8027(2)
H63 H 0.0848 0.2909 0.8481
H66 H 0.1273 0.7515 0.8186
H67 H 0.2060 0.9152 0.8481
H68 H 0.3084 0.2847 0.9932
C3 C 0.04141(13) 0.99428(12) 0.1135(2)
H1 H 0.0699 0.9905 0.1139
C32 C 0.02004(18) 0.88973(13) 0.1472(2)
H19 H 0.0423 0.9121 0.1856
C62 C 0.01851(17) 0.84485(12) 0.1336(2)
H34 H 0.0394 0.8366 0.1633
O13 O 0.67979(9) 0.01012(8) 0.00632(13)
O15 O 0.98988(8) 0.66968(12) 0.00632(13)
C16 C 0.77696(12) 0.01182(17) 0.0580(2)
C21 C 0.82530(12) 0.01363(17) 0.0764(2)
C36 C 0.86864(12) 0.04535(17) 0.0370(2)
C42 C 0.95791(12) 0.00541(18) 0.1133(2)
C51 C 0.91322(12) 0.01087(17) 0.1050(2)
C56 C 0.91201(12) 0.04434(17) 0.0514(2)
H28 H 0.9416 0.0670 0.0242
C67 C 0.6517(2) 0.03543(26) 0.1183(3)
C68 C 0.6816(2) 0.05040(17) 0.0484(3)
C69 C 0.96457(26) 0.61627(17) 0.1183(3)
C70 C 0.94960(17) 0.63124(26) 0.0484(3)
H39 H 0.6631 0.0646 0.1536
H40 H 0.6702 0.0682 0.0131
H41 H 0.9354 0.5985 0.1536
H42 H 0.9318 0.6021 0.0131
H44 H 0.6168 0.0241 0.1036
H45 H 0.7165 0.0740 0.0631
H46 H 0.9759 0.5927 0.1036
H47 H 0.9260 0.6426 0.0631
O16 O 0.77480(9) 0.03518(13) 0.99978(16)
H23 H 0.8688 0.0682 0.9995
H70 H 0.7153 0.0238 0.9932
H72 H 0.9762 0.6916 0.9932
O4 O 0.74106(8) 0.98604(11) 0.10422(13)
O12 O 0.65354(9) 0.99699(12) 0.16035(13)
N6 N 0.66109(10) 0.90553(9) 0.17577(15)
C17 C 0.98818(17) 0.76514(12) 0.0580(2)
C22 C 0.98637(17) 0.81167(12) 0.0764(2)
C26 C 0.95287(18) 0.95859(13) 0.1135(2)
H13 H 0.9206 0.9301 0.1139
C31 C 0.86969(13) 0.97996(18) 0.1472(2)
H18 H 0.8698 0.9577 0.1856
C37 C 0.95465(17) 0.82329(12) 0.0370(2)
C41 C 0.99459(18) 0.95250(13) 0.1133(2)
C52 C 0.98913(17) 0.90235(12) 0.1050(2)
C57 C 0.95566(17) 0.86767(12) 0.0514(2)
H29 H 0.9330 0.8746 0.0242
C61 C 0.82634(12) 0.98149(17) 0.1336(2)
H33 H 0.7972 0.9606 0.1633
H54 H 0.7160 0.8903 0.0392
H69 H 0.6180 0.9751 0.1735
Ni7 Ni 0.6667 0.714424(16) 0.5833
O17 O 0.96482(13) 0.73962(9) 0.99978(16)
N4 N 0.67224(10) 0.91110(13) 0.99090(15)
N5 N 0.66109(10) 0.75557(13) 0.67577(15)
H24 H 0.9318 0.8006 0.9995
C47 C 0.66814(13) 0.84983(18) 0.8660(2)
C48 C 0.66519(13) 0.81684(18) 0.8007(2)
C72 C 0.6952(2) 0.85578(25) 0.9334(3)
C73 C 0.6381(2) 0.81089(25) 0.7333(3)
H49 H 0.7131 0.8385 0.9388
H50 H 0.6202 0.8282 0.7279
C77 C 0.69655(19) 0.88668(24) 0.9937(3)
C78 C 0.63678(19) 0.77999(24) 0.6730(3)
H55 H 0.6173 0.7764 0.6275
C82 C 0.64538(17) 0.90451(21) 0.9268(2)
C83 C 0.68795(17) 0.76216(21) 0.7399(2)
H59 H 0.6265 0.9209 0.9237
H60 H 0.7068 0.7458 0.7430
C87 C 0.64337(13) 0.87511(16) 0.8640(2)
C88 C 0.68996(13) 0.79156(16) 0.8027(2)
H64 H 0.6242 0.8727 0.8186
H65 H 0.7091 0.7940 0.8481
N9_2 N 0.23886(9) 0.91110(13) 0.49090(15)
C49_2 C 0.15164(12) 0.81684(18) 0.3007(2)
C50_2 C 0.18169(12) 0.84983(18) 0.3660(2)
C74_2 C 0.17275(15) 0.81089(25) 0.2333(3)
C75_2 C 0.16058(15) 0.85578(25) 0.4334(3)
H51_2 H 0.2079 0.8282 0.2279
H52_2 H 0.1254 0.8385 0.4388
C79_2 C 0.14320(15) 0.77999(24) 0.1730(3)
C80_2 C 0.19013(15) 0.88668(24) 0.4937(3)
H56_2 H 0.1590 0.7764 0.1275
H57_2 H 0.1743 0.8903 0.5392
C84_2 C 0.07420(13) 0.76216(21) 0.2399(2)
C85_2 C 0.25913(13) 0.90451(21) 0.4268(2)
H61_2 H 0.0389 0.7458 0.2430
H62_2 H 0.2944 0.9209 0.4237
C89_2 C 0.10159(10) 0.79156(16) 0.3027(2)
C90_2 C 0.23174(10) 0.87511(16) 0.3640(2)
H66_2 H 0.0848 0.7940 0.3481
H67_2 H 0.2485 0.8727 0.3186
C7_2 C 0.66519(13) 0.84836(12) 0.3007(2)
C12_2 C 0.6381(2) 0.82725(15) 0.2333(3)
H8_2 H 0.6202 0.7921 0.2279
C13_2 C 0.63678(19) 0.85680(15) 0.1730(3)
H9_2 H 0.6173 0.8410 0.1275
C14_2 C 0.68795(17) 0.92580(13) 0.2399(2)
H10_2 H 0.7068 0.9611 0.2430
C15_2 C 0.68996(13) 0.89841(10) 0.3027(2)
H11_2 H 0.7091 0.9152 0.3481
N2_2 N 0.67224(10) 0.76114(9) 0.49090(15)
N5_2 N 0.08890(13) 0.32776(10) 0.49090(15)
C46_2 C 0.66814(13) 0.81831(12) 0.3660(2)
C47_2 C 0.18316(18) 0.33481(13) 0.3007(2)
C48_2 C 0.15017(18) 0.33186(13) 0.3660(2)
C71_2 C 0.6952(2) 0.83942(15) 0.4334(3)
C72_2 C 0.18911(25) 0.3619(2) 0.2333(3)
C73_2 C 0.14422(25) 0.3048(2) 0.4334(3)
H48_2 H 0.7131 0.8746 0.4388
H49_2 H 0.1718 0.3798 0.2279
H50_2 H 0.1615 0.2869 0.4388
C76_2 C 0.69655(19) 0.80987(15) 0.4937(3)
C77_2 C 0.22001(24) 0.36322(19) 0.1730(3)
C78_2 C 0.11332(24) 0.30345(19) 0.4937(3)
H53_2 H 0.7160 0.8257 0.5392
H54_2 H 0.2236 0.3827 0.1275
H55_2 H 0.1097 0.2840 0.5392
C81_2 C 0.64538(17) 0.74087(13) 0.4268(2)
C82_2 C 0.23784(21) 0.31205(17) 0.2399(2)
C83_2 C 0.09549(21) 0.35462(17) 0.4268(2)
H58_2 H 0.6265 0.7056 0.4237
H59_2 H 0.2542 0.2932 0.2430
H60_2 H 0.0791 0.3735 0.4237
C86_2 C 0.64337(13) 0.76826(10) 0.3640(2)
C87_2 C 0.20844(16) 0.31004(13) 0.3027(2)
C88_2 C 0.12489(16) 0.35663(13) 0.3640(2)
H63_2 H 0.6242 0.7515 0.3186
H64_2 H 0.2060 0.2909 0.3481
H65_2 H 0.1273 0.3758 0.3186
O4_2 O 0.01396(11) 0.25894(8) 0.60422(13)
O9 O 0.08835(8) 0.40773(8) 0.56245(13)
O12_2 O 0.00301(12) 0.34646(9) 0.66035(13)
O17_2 O 0.26038(9) 0.03518(13) 0.49978(16)
C17_2 C 0.23486(12) 0.01182(17) 0.5580(2)
C22_2 C 0.18833(12) 0.01363(17) 0.5764(2)
C26_2 C 0.04141(13) 0.04713(18) 0.6135(2)
H13_2 H 0.0699 0.0794 0.6139
C31_2 C 0.02004(18) 0.13031(13) 0.6472(2)
H18_2 H 0.0423 0.1302 0.6856
C37_2 C 0.17671(12) 0.04535(17) 0.5370(2)
H24_2 H 0.1994 0.0682 0.4995
C41_2 C 0.04750(13) 0.00541(18) 0.6133(2)
C52_2 C 0.09765(12) 0.01087(17) 0.6050(2)
C57_2 C 0.13233(12) 0.04434(17) 0.5514(2)
H29_2 H 0.1254 0.0670 0.5242
C61_2 C 0.01851(17) 0.17366(12) 0.6336(2)
H33_2 H 0.0394 0.2028 0.6633
H69_2 H 0.0249 0.3820 0.6735
C3_2 C 0.00572(12) 0.95859(13) 0.6135(2)
H1_2 H 0.0095 0.9301 0.6139
O5 O 0.24498(8) 0.98604(11) 0.60422(13)
C32_2 C 0.11027(13) 0.97996(18) 0.6472(2)
H19_2 H 0.0879 0.9577 0.6856
C62_2 C 0.15515(12) 0.98149(17) 0.6336(2)
H34_2 H 0.1634 0.9606 0.6633
O13_2 O 0.98988(8) 0.32021(9) 0.50632(13)
O15_2 O 0.33032(12) 0.01012(8) 0.50632(13)
O16_2 O 0.96482(13) 0.22520(9) 0.49978(16)
C16_2 C 0.98818(17) 0.22304(12) 0.5580(2)
C21_2 C 0.98637(17) 0.17470(12) 0.5764(2)
C36_2 C 0.95465(17) 0.13136(12) 0.5370(2)
H23_2 H 0.9318 0.1312 0.4995
C42_2 C 0.99459(18) 0.04209(12) 0.6133(2)
C51_2 C 0.98913(17) 0.08678(12) 0.6050(2)
C56_2 C 0.95566(17) 0.08799(12) 0.5514(2)
H28_2 H 0.9330 0.0584 0.5242
C67_2 C 0.96457(26) 0.3483(2) 0.6183(3)
C68_2 C 0.94960(17) 0.3184(2) 0.5484(3)
C69_2 C 0.38373(17) 0.03543(26) 0.6183(3)
C70_2 C 0.36876(26) 0.05040(17) 0.5484(3)
H39_2 H 0.9354 0.3369 0.6536
H40_2 H 0.9318 0.3298 0.5131
H41_2 H 0.4015 0.0646 0.6536
H42_2 H 0.3979 0.0682 0.5131
H44_2 H 0.9759 0.3832 0.6036
H45_2 H 0.9260 0.2835 0.5631
H46_2 H 0.4073 0.0241 0.6036
H47_2 H 0.3574 0.0740 0.5631
H70_2 H 0.9762 0.2847 0.4932
H72_2 H 0.3084 0.0238 0.4932
O1_2 O 0.74106(8) 0.75502(8) 0.60422(13)
O2_2 O 0.65354(9) 0.65655(8) 0.66035(13)
O3_2 O 0.77480(9) 0.73962(9) 0.49978(16)
C1_2 C 0.77696(12) 0.76514(12) 0.5580(2)
C2_2 C 0.82530(12) 0.81167(12) 0.5764(2)
C4_2 C 0.86969(13) 0.88973(13) 0.6472(2)
H2_2 H 0.8698 0.9121 0.6856
C5_2 C 0.86864(12) 0.82329(12) 0.5370(2)
H3_2 H 0.8688 0.8006 0.4995
C6_2 C 0.95791(12) 0.95250(13) 0.6133(2)
C8_2 C 0.91322(12) 0.90235(12) 0.6050(2)
C9_2 C 0.91201(12) 0.86767(12) 0.5514(2)
H4_2 H 0.9416 0.8746 0.5242
C10_2 C 0.82634(12) 0.84485(12) 0.6336(2)
H5_2 H 0.7972 0.8366 0.6633
C11_2 C 0.6517(2) 0.61627(17) 0.6183(3)
H6_2 H 0.6631 0.5985 0.6536
H7_2 H 0.6168 0.5927 0.6036
H12_2 H 0.6180 0.6429 0.6735
O6_2 O 0.59227(8) 0.68063(11) 0.56245(13)
O7_2 O 0.31937(11) 0.91165(8) 0.56245(13)
O11_2 O 0.67979(9) 0.66968(12) 0.50632(13)
O14_2 O 0.34345(8) 0.99699(12) 0.66035(13)
O18_2 O 0.55853(9) 0.63149(13) 0.66689(16)
O19_2 O 0.36851(13) 0.92705(9) 0.66689(16)
O20_2 O 0.07295(9) 0.44147(9) 0.66689(16)
C18_2 C 0.55637(12) 0.65485(17) 0.6087(2)
C19_2 C 0.34515(17) 0.90153(12) 0.6087(2)
C20_2 C 0.09847(12) 0.44363(12) 0.6087(2)
C23_2 C 0.50803(12) 0.65304(17) 0.5903(2)
C24_2 C 0.34696(17) 0.85500(12) 0.5903(2)
C25_2 C 0.14500(12) 0.49197(12) 0.5903(2)
C27_2 C 0.95287(18) 0.99428(12) 0.6135(2)
C28_2 C 0.32761(12) 0.61954(18) 0.5532(2)
C29_2 C 0.29192(13) 0.67239(12) 0.5532(2)
C30_2 C 0.38046(18) 0.70808(13) 0.5532(2)
H14_2 H 0.9206 0.9905 0.6139
H15_2 H 0.3238 0.5873 0.5528
H16_2 H 0.2634 0.6762 0.5528
H17_2 H 0.4127 0.7366 0.5528
C33_2 C 0.46364(13) 0.68671(18) 0.5195(2)
C34_2 C 0.31329(18) 0.77694(13) 0.5195(2)
C35_2 C 0.22306(13) 0.53636(13) 0.5195(2)
H20_2 H 0.4635 0.7090 0.4811
H21_2 H 0.2910 0.7546 0.4811
H22_2 H 0.2454 0.5365 0.4811
C38_2 C 0.46469(12) 0.62132(17) 0.6297(2)
C39_2 C 0.37868(17) 0.84338(12) 0.6297(2)
C40_2 C 0.15662(12) 0.53531(12) 0.6297(2)
H25_2 H 0.4645 0.5985 0.6672
H26_2 H 0.4015 0.8661 0.6672
H27_2 H 0.1339 0.5355 0.6672
C43_2 C 0.37542(12) 0.66126(18) 0.5534(2)
C44_2 C 0.28583(13) 0.62458(12) 0.5534(2)
C45_2 C 0.33874(18) 0.71417(13) 0.5534(2)
C53_2 C 0.42011(12) 0.65580(17) 0.5617(2)
C54_2 C 0.34420(17) 0.76432(12) 0.5617(2)
C55_2 C 0.23568(12) 0.57989(12) 0.5617(2)
C58_2 C 0.42132(12) 0.62233(17) 0.6153(2)
C59_2 C 0.37767(17) 0.79900(12) 0.6153(2)
C60_2 C 0.20100(12) 0.57868(12) 0.6153(2)
H30_2 H 0.3917 0.5997 0.6425
H31_2 H 0.4003 0.7921 0.6425
H32_2 H 0.2079 0.6083 0.6425
C63_2 C 0.50699(12) 0.68518(17) 0.5331(2)
C64_2 C 0.31482(17) 0.82182(12) 0.5331(2)
C65_2 C 0.17818(12) 0.49301(12) 0.5331(2)
H35_2 H 0.5361 0.7061 0.5034
H36_2 H 0.2939 0.8301 0.5034
H37_2 H 0.1699 0.4639 0.5034
C66_2 C 0.6816(2) 0.63124(26) 0.5484(3)
H38_2 H 0.6702 0.6021 0.5131
H43_2 H 0.7165 0.6426 0.5631
H68_2 H 0.7153 0.6916 0.4932
H71_2 H 0.3571 0.9751 0.6735
Ni1_2 Ni 0.3333 0.285576(16) 0.4167
O1_3 O 0.25894(8) 0.24498(8) 0.39578(13)
O2_3 O 0.34646(9) 0.34345(8) 0.33965(13)
O3_3 O 0.22520(9) 0.26038(9) 0.50022(16)
N1_2 N 0.32776(10) 0.23886(9) 0.50910(15)
C1_3 C 0.22304(12) 0.23486(12) 0.4420(2)
C2_3 C 0.17470(12) 0.18833(12) 0.4236(2)
C4_3 C 0.13031(13) 0.11027(13) 0.3528(2)
H2_3 H 0.1302 0.0879 0.3144
C5_3 C 0.13136(12) 0.17671(12) 0.4630(2)
H3_3 H 0.1312 0.1994 0.5005
C6_3 C 0.04209(12) 0.04750(13) 0.3867(2)
C7_3 C 0.33186(13) 0.18169(12) 0.6340(2)
C8_3 C 0.08678(12) 0.09765(12) 0.3950(2)
C9_3 C 0.08799(12) 0.13233(12) 0.4486(2)
H4_3 H 0.0584 0.1254 0.4758
C10_3 C 0.17366(12) 0.15515(12) 0.3664(2)
H5_3 H 0.2028 0.1634 0.3367
C11_3 C 0.3483(2) 0.38373(17) 0.3817(3)
H6_3 H 0.3369 0.4015 0.3464
H7_3 H 0.3832 0.4073 0.3964
C12_3 C 0.3048(2) 0.16058(15) 0.5666(3)
H8_3 H 0.2869 0.1254 0.5612
C13_3 C 0.30345(19) 0.19013(15) 0.5063(3)
H9_3 H 0.2840 0.1743 0.4608
C14_3 C 0.35462(17) 0.25913(13) 0.5732(2)
H10_3 H 0.3735 0.2944 0.5763
C15_3 C 0.35663(13) 0.23174(10) 0.6360(2)
H11_3 H 0.3758 0.2485 0.6814
H12_3 H 0.3820 0.3571 0.3265
Ni4_2 Ni 0.714391(16) 0.047757(16) 0.4166
Ni5_2 Ni 0.952243(16) 0.6666 0.4166
Ni6_2 Ni 0.3334 0.047757(16) 0.9166
Ni8_2 Ni 0.952276(16) 0.285576(16) 0.9167
O6_3 O 0.40773(8) 0.31937(11) 0.43755(13)
O7_3 O 0.68063(11) 0.08835(8) 0.43755(13)
O8_2 O 0.91165(8) 0.59227(8) 0.43755(13)
O10_2 O 0.75502(8) 0.01396(11) 0.39578(13)
O11_3 O 0.32021(9) 0.33032(12) 0.49368(13)
O14_3 O 0.65655(8) 0.00301(12) 0.33965(13)
O18_3 O 0.44147(9) 0.36851(13) 0.33311(16)
O19_3 O 0.63149(13) 0.07295(9) 0.33311(16)
O20_3 O 0.92705(9) 0.55853(9) 0.33311(16)
N2_3 N 0.33891(10) 0.09447(9) 0.82423(15)
N3_2 N 0.33891(10) 0.24443(13) 0.32423(15)
N7_2 N 0.76114(9) 0.08890(13) 0.50910(15)
N8_2 N 0.75557(13) 0.09447(9) 0.32423(15)
N9_3 N 0.90553(9) 0.24443(13) 0.82423(15)
C18_3 C 0.44363(12) 0.34515(17) 0.3913(2)
C19_3 C 0.65485(17) 0.09847(12) 0.3913(2)
C20_3 C 0.90153(12) 0.55637(12) 0.3913(2)
C23_3 C 0.49197(12) 0.34696(17) 0.4097(2)
C24_3 C 0.65304(17) 0.14500(12) 0.4097(2)
C25_3 C 0.85500(12) 0.50803(12) 0.4097(2)
C27_3 C 0.04713(18) 0.00572(12) 0.3865(2)
C28_3 C 0.67239(12) 0.38046(18) 0.4468(2)
C29_3 C 0.70808(13) 0.32761(12) 0.4468(2)
C30_3 C 0.61954(18) 0.29192(13) 0.4468(2)
H14_3 H 0.0794 0.0095 0.3861
H15_3 H 0.6762 0.4127 0.4472
H16_3 H 0.7366 0.3238 0.4472
H17_3 H 0.5873 0.2634 0.4472
C33_3 C 0.53636(13) 0.31329(18) 0.4805(2)
C34_3 C 0.68671(18) 0.22306(13) 0.4805(2)
C35_3 C 0.77694(13) 0.46364(13) 0.4805(2)
H20_3 H 0.5365 0.2910 0.5189
H21_3 H 0.7090 0.2454 0.5189
H22_3 H 0.7546 0.4635 0.5189
C38_3 C 0.53531(12) 0.37868(17) 0.3703(2)
C39_3 C 0.62132(17) 0.15662(12) 0.3703(2)
C40_3 C 0.84338(12) 0.46469(12) 0.3703(2)
H25_3 H 0.5355 0.4015 0.3328
H26_3 H 0.5985 0.1339 0.3328
H27_3 H 0.8661 0.4645 0.3328
C43_3 C 0.62458(12) 0.33874(18) 0.4466(2)
C44_3 C 0.71417(13) 0.37542(12) 0.4466(2)
C45_3 C 0.66126(18) 0.28583(13) 0.4466(2)
C46_3 C 0.33481(13) 0.15164(12) 0.6993(2)
C49_3 C 0.81831(12) 0.15017(18) 0.6340(2)
C50_3 C 0.84836(12) 0.18316(18) 0.6993(2)
C53_3 C 0.57989(12) 0.34420(17) 0.4383(2)
C54_3 C 0.65580(17) 0.23568(12) 0.4383(2)
C55_3 C 0.76432(12) 0.42011(12) 0.4383(2)
C58_3 C 0.57868(12) 0.37767(17) 0.3847(2)
C59_3 C 0.62233(17) 0.20100(12) 0.3847(2)
C60_3 C 0.79900(12) 0.42132(12) 0.3847(2)
H30_3 H 0.6083 0.4003 0.3575
H31_3 H 0.5997 0.2079 0.3575
H32_3 H 0.7921 0.3917 0.3575
C63_3 C 0.49301(12) 0.31482(17) 0.4669(2)
C64_3 C 0.68518(17) 0.17818(12) 0.4669(2)
C65_3 C 0.82182(12) 0.50699(12) 0.4669(2)
H35_3 H 0.4639 0.2939 0.4966
H36_3 H 0.7061 0.1699 0.4966
H37_3 H 0.8301 0.5361 0.4966
C66_3 C 0.3184(2) 0.36876(26) 0.4516(3)
H38_3 H 0.3298 0.3979 0.4869
H43_3 H 0.2835 0.3574 0.4369
C71_3 C 0.3619(2) 0.17275(15) 0.7667(3)
C74_3 C 0.83942(15) 0.14422(25) 0.5666(3)
C75_3 C 0.82725(15) 0.18911(25) 0.7667(3)
H48_3 H 0.3798 0.2079 0.7721
H51_3 H 0.8746 0.1615 0.5612
H52_3 H 0.7921 0.1718 0.7721
C76_3 C 0.36322(19) 0.14320(15) 0.8270(3)
C79_3 C 0.80987(15) 0.11332(24) 0.5063(3)
C80_3 C 0.85680(15) 0.22001(24) 0.8270(3)
H53_3 H 0.3827 0.1590 0.8725
H56_3 H 0.8257 0.1097 0.4608
H57_3 H 0.8410 0.2236 0.8725
C81_3 C 0.31205(17) 0.07420(13) 0.7601(2)
C84_3 C 0.74087(13) 0.09549(21) 0.5732(2)
C85_3 C 0.92580(13) 0.23784(21) 0.7601(2)
H58_3 H 0.2932 0.0389 0.7570
H61_3 H 0.7056 0.0791 0.5763
H62_3 H 0.9611 0.2542 0.7570
C86_3 C 0.31004(13) 0.10159(10) 0.6973(2)
C89_3 C 0.76826(10) 0.12489(16) 0.6360(2)
C90_3 C 0.89841(10) 0.20844(16) 0.6973(2)
H63_3 H 0.2909 0.0848 0.6519
H66_3 H 0.7515 0.1273 0.6814
H67_3 H 0.9152 0.2060 0.6519
H68_3 H 0.2847 0.3084 0.5068
H71_3 H 0.6429 0.0249 0.3265
O13_3 O 0.01012(8) 0.67979(9) 0.49368(13)
O15_3 O 0.66968(12) 0.98988(8) 0.49368(13)
O16_3 O 0.03518(13) 0.77480(9) 0.50022(16)
C16_3 C 0.01182(17) 0.77696(12) 0.4420(2)
C21_3 C 0.01363(17) 0.82530(12) 0.4236(2)
C36_3 C 0.04535(17) 0.86864(12) 0.4630(2)
H23_3 H 0.0682 0.8688 0.5005
C42_3 C 0.00541(18) 0.95791(12) 0.3867(2)
C51_3 C 0.01087(17) 0.91322(12) 0.3950(2)
C56_3 C 0.04434(17) 0.91201(12) 0.4486(2)
H28_3 H 0.0670 0.9416 0.4758
C67_3 C 0.03543(26) 0.6517(2) 0.3817(3)
C68_3 C 0.05040(17) 0.6816(2) 0.4516(3)
C69_3 C 0.61627(17) 0.96457(26) 0.3817(3)
C70_3 C 0.63124(26) 0.94960(17) 0.4516(3)
H39_3 H 0.0646 0.6631 0.3464
H40_3 H 0.0682 0.6702 0.4869
H41_3 H 0.5985 0.9354 0.3464
H42_3 H 0.6021 0.9318 0.4869
H44_3 H 0.0241 0.6168 0.3964
H45_3 H 0.0740 0.7165 0.4369
H46_3 H 0.5927 0.9759 0.3964
H47_3 H 0.6426 0.9260 0.4369
H70_3 H 0.0238 0.7153 0.5068
H72_3 H 0.6916 0.9762 0.5068
C3_3 C 0.99428(12) 0.04141(13) 0.3865(2)
H1_3 H 0.9905 0.0699 0.3861
C32_3 C 0.88973(13) 0.02004(18) 0.3528(2)
H19_3 H 0.9121 0.0423 0.3144
C62_3 C 0.84485(12) 0.01851(17) 0.3664(2)
H34_3 H 0.8366 0.0394 0.3367
Ni7_2 Ni 0.714424(16) 0.6667 0.9167
O4_3 O 0.98604(11) 0.74106(8) 0.39578(13)
O12_3 O 0.99699(12) 0.65354(9) 0.33965(13)
O17_3 O 0.73962(9) 0.96482(13) 0.50022(16)
N4_2 N 0.91110(13) 0.67224(10) 0.50910(15)
N5_3 N 0.75557(13) 0.66109(10) 0.82423(15)
N6_2 N 0.90553(9) 0.66109(10) 0.32423(15)
C17_3 C 0.76514(12) 0.98818(17) 0.4420(2)
C22_3 C 0.81167(12) 0.98637(17) 0.4236(2)
C26_3 C 0.95859(13) 0.95287(18) 0.3865(2)
H13_3 H 0.9301 0.9206 0.3861
C31_3 C 0.97996(18) 0.86969(13) 0.3528(2)
H18_3 H 0.9577 0.8698 0.3144
C37_3 C 0.82329(12) 0.95465(17) 0.4630(2)
H24_3 H 0.8006 0.9318 0.5005
C41_3 C 0.95250(13) 0.99459(18) 0.3867(2)
C47_3 C 0.84983(18) 0.66814(13) 0.6340(2)
C48_3 C 0.81684(18) 0.66519(13) 0.6993(2)
C52_3 C 0.90235(12) 0.98913(17) 0.3950(2)
C57_3 C 0.86767(12) 0.95566(17) 0.4486(2)
H29_3 H 0.8746 0.9330 0.4758
C61_3 C 0.98149(17) 0.82634(12) 0.3664(2)
H33_3 H 0.9606 0.7972 0.3367
C72_3 C 0.85578(25) 0.6952(2) 0.5666(3)
C73_3 C 0.81089(25) 0.6381(2) 0.7667(3)
H49_3 H 0.8385 0.7131 0.5612
H50_3 H 0.8282 0.6202 0.7721
C77_3 C 0.88668(24) 0.69655(19) 0.5063(3)
C78_3 C 0.77999(24) 0.63678(19) 0.8270(3)
H54_3 H 0.8903 0.7160 0.4608
H55_3 H 0.7764 0.6173 0.8725
C82_3 C 0.90451(21) 0.64538(17) 0.5732(2)
C83_3 C 0.76216(21) 0.68795(17) 0.7601(2)
H59_3 H 0.9209 0.6265 0.5763
H60_3 H 0.7458 0.7068 0.7570
C87_3 C 0.87511(16) 0.64337(13) 0.6360(2)
C88_3 C 0.79156(16) 0.68996(13) 0.6973(2)
H64_3 H 0.8727 0.6242 0.6814
H65_3 H 0.7940 0.7091 0.6519
H69_3 H 0.9751 0.6180 0.3265
N9_4 N 0.91110(13) 0.23886(9) 0.00910(15)
C49_4 C 0.81684(18) 0.15164(12) 0.1993(2)
C50_4 C 0.84983(18) 0.18169(12) 0.1340(2)
C74_4 C 0.81089(25) 0.17275(15) 0.2667(3)
C75_4 C 0.85578(25) 0.16058(15) 0.0666(3)
H51_4 H 0.8282 0.2079 0.2721
H52_4 H 0.8385 0.1254 0.0612
C79_4 C 0.77999(24) 0.14320(15) 0.3270(3)
C80_4 C 0.88668(24) 0.19013(15) 0.0063(3)
H56_4 H 0.7764 0.1590 0.3725
C84_4 C 0.76216(21) 0.07420(13) 0.2601(2)
C85_4 C 0.90451(21) 0.25913(13) 0.0732(2)
H61_4 H 0.7458 0.0389 0.2570
H62_4 H 0.9209 0.2944 0.0763
C89_4 C 0.79156(16) 0.10159(10) 0.1973(2)
C90_4 C 0.87511(16) 0.23174(10) 0.1360(2)
H66_4 H 0.7940 0.0848 0.1519
H67_4 H 0.8727 0.2485 0.1814
H57_4 H 0.8903 0.1743 0.9608
C7_4 C 0.84836(12) 0.66519(13) 0.1993(2)
C12_4 C 0.82725(15) 0.6381(2) 0.2667(3)
H8_4 H 0.7921 0.6202 0.2721
C13_4 C 0.85680(15) 0.63678(19) 0.3270(3)
H9_4 H 0.8410 0.6173 0.3725
C14_4 C 0.92580(13) 0.68795(17) 0.2601(2)
H10_4 H 0.9611 0.7068 0.2570
C15_4 C 0.89841(10) 0.68996(13) 0.1973(2)
H11_4 H 0.9152 0.7091 0.1519
N2_4 N 0.76114(9) 0.67224(10) 0.00910(15)
N5_4 N 0.32776(10) 0.08890(13) 0.00910(15)
C46_4 C 0.81831(12) 0.66814(13) 0.1340(2)
C47_4 C 0.33481(13) 0.18316(18) 0.1993(2)
C48_4 C 0.33186(13) 0.15017(18) 0.1340(2)
C71_4 C 0.83942(15) 0.6952(2) 0.0666(3)
C72_4 C 0.3619(2) 0.18911(25) 0.2667(3)
C73_4 C 0.3048(2) 0.14422(25) 0.0666(3)
H48_4 H 0.8746 0.7131 0.0612
H49_4 H 0.3798 0.1718 0.2721
H50_4 H 0.2869 0.1615 0.0612
C76_4 C 0.80987(15) 0.69655(19) 0.0063(3)
C77_4 C 0.36322(19) 0.22001(24) 0.3270(3)
C78_4 C 0.30345(19) 0.11332(24) 0.0063(3)
H54_4 H 0.3827 0.2236 0.3725
C81_4 C 0.74087(13) 0.64538(17) 0.0732(2)
C82_4 C 0.31205(17) 0.23784(21) 0.2601(2)
C83_4 C 0.35462(17) 0.09549(21) 0.0732(2)
H58_4 H 0.7056 0.6265 0.0763
H59_4 H 0.2932 0.2542 0.2570
H60_4 H 0.3735 0.0791 0.0763
C86_4 C 0.76826(10) 0.64337(13) 0.1360(2)
C87_4 C 0.31004(13) 0.20844(16) 0.1973(2)
C88_4 C 0.35663(13) 0.12489(16) 0.1360(2)
H63_4 H 0.7515 0.6242 0.1814
H64_4 H 0.2909 0.2060 0.1519
H65_4 H 0.3758 0.1273 0.1814
H53_4 H 0.8257 0.7160 0.9608
H55_4 H 0.2840 0.1097 0.9608
O17_4 O 0.03518(13) 0.26038(9) 0.00022(16)
H24_4 H 0.0682 0.1994 0.0005
O4_4 O 0.25894(8) 0.01396(11) 0.89578(13)
O9_2 O 0.40773(8) 0.08835(8) 0.93755(13)
O12_4 O 0.34646(9) 0.00301(12) 0.83965(13)
C17_4 C 0.01182(17) 0.23486(12) 0.9420(2)
C22_4 C 0.01363(17) 0.18833(12) 0.9236(2)
C26_4 C 0.04713(18) 0.04141(13) 0.8865(2)
H13_4 H 0.0794 0.0699 0.8861
C31_4 C 0.13031(13) 0.02004(18) 0.8528(2)
H18_4 H 0.1302 0.0423 0.8144
C37_4 C 0.04535(17) 0.17671(12) 0.9630(2)
C41_4 C 0.00541(18) 0.04750(13) 0.8867(2)
C52_4 C 0.01087(17) 0.09765(12) 0.8950(2)
C57_4 C 0.04434(17) 0.13233(12) 0.9486(2)
H29_4 H 0.0670 0.1254 0.9758
C61_4 C 0.17366(12) 0.01851(17) 0.8664(2)
H33_4 H 0.2028 0.0394 0.8367
H69_4 H 0.3820 0.0249 0.8265
O16_4 O 0.22520(9) 0.96482(13) 0.00022(16)
H23_4 H 0.1312 0.9318 0.0005
H70_4 H 0.2847 0.9762 0.0068
H72_4 H 0.0238 0.3084 0.0068
O13_4 O 0.32021(9) 0.98988(8) 0.99368(13)
O15_4 O 0.01012(8) 0.33032(12) 0.99368(13)
C16_4 C 0.22304(12) 0.98818(17) 0.9420(2)
C21_4 C 0.17470(12) 0.98637(17) 0.9236(2)
C36_4 C 0.13136(12) 0.95465(17) 0.9630(2)
C42_4 C 0.04209(12) 0.99459(18) 0.8867(2)
C51_4 C 0.08678(12) 0.98913(17) 0.8950(2)
C56_4 C 0.08799(12) 0.95566(17) 0.9486(2)
H28_4 H 0.0584 0.9330 0.9758
C67_4 C 0.3483(2) 0.96457(26) 0.8817(3)
C68_4 C 0.3184(2) 0.94960(17) 0.9516(3)
C69_4 C 0.03543(26) 0.38373(17) 0.8817(3)
C70_4 C 0.05040(17) 0.36876(26) 0.9516(3)
H39_4 H 0.3369 0.9354 0.8464
H40_4 H 0.3298 0.9318 0.9869
H41_4 H 0.0646 0.4015 0.8464
H42_4 H 0.0682 0.3979 0.9869
H44_4 H 0.3832 0.9759 0.8964
H45_4 H 0.2835 0.9260 0.9369
H46_4 H 0.0241 0.4073 0.8964
H47_4 H 0.0740 0.3574 0.9369
C3_4 C 0.95859(13) 0.00572(12) 0.8865(2)
H1_4 H 0.9301 0.0095 0.8861
O5_2 O 0.98604(11) 0.24498(8) 0.89578(13)
C32_4 C 0.97996(18) 0.11027(13) 0.8528(2)
H19_4 H 0.9577 0.0879 0.8144
C62_4 C 0.98149(17) 0.15515(12) 0.8664(2)
H34_4 H 0.9606 0.1634 0.8367
O3_4 O 0.73962(9) 0.77480(9) 0.00022(16)
H3_4 H 0.8006 0.8688 0.0005
H20_4 H 0.7090 0.4635 0.0189
H21_4 H 0.7546 0.2910 0.0189
H22_4 H 0.5365 0.2454 0.0189
H68_4 H 0.6916 0.7153 0.0068
O1_4 O 0.75502(8) 0.74106(8) 0.89578(13)
O2_4 O 0.65655(8) 0.65354(9) 0.83965(13)
C1_4 C 0.76514(12) 0.77696(12) 0.9420(2)
C2_4 C 0.81167(12) 0.82530(12) 0.9236(2)
C4_4 C 0.88973(13) 0.86969(13) 0.8528(2)
H2_4 H 0.9121 0.8698 0.8144
C5_4 C 0.82329(12) 0.86864(12) 0.9630(2)
C6_4 C 0.95250(13) 0.95791(12) 0.8867(2)
C8_4 C 0.90235(12) 0.91322(12) 0.8950(2)
C9_4 C 0.86767(12) 0.91201(12) 0.9486(2)
H4_4 H 0.8746 0.9416 0.9758
C10_4 C 0.84485(12) 0.82634(12) 0.8664(2)
H5_4 H 0.8366 0.7972 0.8367
C11_4 C 0.61627(17) 0.6517(2) 0.8817(3)
H6_4 H 0.5985 0.6631 0.8464
H7_4 H 0.5927 0.6168 0.8964
H12_4 H 0.6429 0.6180 0.8265
O6_4 O 0.68063(11) 0.59227(8) 0.93755(13)
O7_4 O 0.91165(8) 0.31937(11) 0.93755(13)
O11_4 O 0.66968(12) 0.67979(9) 0.99368(13)
O14_4 O 0.99699(12) 0.34345(8) 0.83965(13)
O18_4 O 0.63149(13) 0.55853(9) 0.83311(16)
O19_4 O 0.92705(9) 0.36851(13) 0.83311(16)
O20_4 O 0.44147(9) 0.07295(9) 0.83311(16)
C18_4 C 0.65485(17) 0.55637(12) 0.8913(2)
C19_4 C 0.90153(12) 0.34515(17) 0.8913(2)
C20_4 C 0.44363(12) 0.09847(12) 0.8913(2)
C23_4 C 0.65304(17) 0.50803(12) 0.9097(2)
C24_4 C 0.85500(12) 0.34696(17) 0.9097(2)
C25_4 C 0.49197(12) 0.14500(12) 0.9097(2)
C27_4 C 0.99428(12) 0.95287(18) 0.8865(2)
C28_4 C 0.61954(18) 0.32761(12) 0.9468(2)
C29_4 C 0.67239(12) 0.29192(13) 0.9468(2)
C30_4 C 0.70808(13) 0.38046(18) 0.9468(2)
H14_4 H 0.9905 0.9206 0.8861
H15_4 H 0.5873 0.3238 0.9472
H16_4 H 0.6762 0.2634 0.9472
H17_4 H 0.7366 0.4127 0.9472
C33_4 C 0.68671(18) 0.46364(13) 0.9805(2)
C34_4 C 0.77694(13) 0.31329(18) 0.9805(2)
C35_4 C 0.53636(13) 0.22306(13) 0.9805(2)
C38_4 C 0.62132(17) 0.46469(12) 0.8703(2)
C39_4 C 0.84338(12) 0.37868(17) 0.8703(2)
C40_4 C 0.53531(12) 0.15662(12) 0.8703(2)
H25_4 H 0.5985 0.4645 0.8328
H26_4 H 0.8661 0.4015 0.8328
H27_4 H 0.5355 0.1339 0.8328
C43_4 C 0.66126(18) 0.37542(12) 0.9466(2)
C44_4 C 0.62458(12) 0.28583(13) 0.9466(2)
C45_4 C 0.71417(13) 0.33874(18) 0.9466(2)
C53_4 C 0.65580(17) 0.42011(12) 0.9383(2)
C54_4 C 0.76432(12) 0.34420(17) 0.9383(2)
C55_4 C 0.57989(12) 0.23568(12) 0.9383(2)
C58_4 C 0.62233(17) 0.42132(12) 0.8847(2)
C59_4 C 0.79900(12) 0.37767(17) 0.8847(2)
C60_4 C 0.57868(12) 0.20100(12) 0.8847(2)
H30_4 H 0.5997 0.3917 0.8575
H31_4 H 0.7921 0.4003 0.8575
H32_4 H 0.6083 0.2079 0.8575
C63_4 C 0.68518(17) 0.50699(12) 0.9669(2)
C64_4 C 0.82182(12) 0.31482(17) 0.9669(2)
C65_4 C 0.49301(12) 0.17818(12) 0.9669(2)
H35_4 H 0.7061 0.5361 0.9966
H36_4 H 0.8301 0.2939 0.9966
H37_4 H 0.4639 0.1699 0.9966
C66_4 C 0.63124(26) 0.6816(2) 0.9516(3)
H38_4 H 0.6021 0.6702 0.9869
H43_4 H 0.6426 0.7165 0.9369
H71_4 H 0.9751 0.3571 0.8265
H11_5 H 0.0425 0.5818 0.0147
Ni6_3 Ni 0.0000 0.381091(16) 0.2500
Ni8_3 Ni 0.618943(16) 0.618909(16) 0.2500
N2_5 N 0.00557(10) 0.42781(9) 0.15757(15)
N9_5 N 0.57219(9) 0.57777(13) 0.15757(15)
C46_5 C 0.00147(13) 0.48498(12) 0.0327(2)
C50_5 C 0.51502(12) 0.51650(18) 0.0327(2)
C71_5 C 0.0285(2) 0.50609(15) 0.1001(3)
C75_5 C 0.49391(15) 0.52245(25) 0.1001(3)
H48_5 H 0.0464 0.5413 0.1055
H52_5 H 0.4587 0.5052 0.1055
C76_5 C 0.02988(19) 0.47654(15) 0.1604(3)
C80_5 C 0.52346(15) 0.55335(24) 0.1604(3)
H53_5 H 0.0493 0.4924 0.2059
H57_5 H 0.5076 0.5570 0.2059
C85_5 C 0.59246(13) 0.57118(21) 0.0935(2)
H62_5 H 0.6277 0.5876 0.0904
C90_5 C 0.56507(10) 0.54178(16) 0.0307(2)
H66_5 H 0.4182 0.4606 0.0147
O2_5 O 0.01313(9) 0.67678(8) 0.67298(13)
C11_5 C 0.0150(2) 0.71706(17) 0.7150(3)
H6_5 H 0.0036 0.7348 0.6797
H7_5 H 0.0499 0.7406 0.7297
C14_5 C 0.02129(17) 0.59246(13) 0.9065(2)
H10_5 H 0.0402 0.6277 0.9096
C15_5 C 0.02330(13) 0.56507(10) 0.9693(2)
H12_5 H 0.0487 0.6904 0.6598
Ni4_3 Ni 0.381057(16) 0.381091(16) 0.7500
Ni5_3 Ni 0.618909(16) 1.0000 0.7500
O6_5 O 0.07439(8) 0.65271(11) 0.77089(13)
O7_5 O 0.34729(11) 0.42169(8) 0.77089(13)
O8_3 O 0.57831(8) 0.92561(8) 0.77089(13)
O10_3 O 0.42169(8) 0.34729(11) 0.72911(13)
O14_5 O 0.32322(8) 0.33634(12) 0.67298(13)
O15_5 O 0.33634(12) 0.32322(8) 0.82702(13)
O18_5 O 0.10813(9) 0.70185(13) 0.66645(16)
O19_5 O 0.29815(13) 0.40629(9) 0.66645(16)
O20_5 O 0.59371(9) 0.89187(9) 0.66645(16)
N3_3 N 0.00557(10) 0.57777(13) 0.65757(15)
N7_3 N 0.42781(9) 0.42223(13) 0.84243(15)
N8_3 N 0.42223(13) 0.42781(9) 0.65757(15)
C18_5 C 0.11029(12) 0.67849(17) 0.7247(2)
C19_5 C 0.32151(17) 0.43181(12) 0.7247(2)
C20_5 C 0.56819(12) 0.88971(12) 0.7247(2)
C23_5 C 0.15863(12) 0.68030(17) 0.7431(2)
C24_5 C 0.31970(17) 0.47834(12) 0.7431(2)
C25_5 C 0.52166(12) 0.84137(12) 0.7431(2)
C28_5 C 0.33905(12) 0.71380(18) 0.7802(2)
C29_5 C 0.37474(13) 0.66095(12) 0.7802(2)
C30_5 C 0.28620(18) 0.62526(13) 0.7802(2)
H15_5 H 0.3428 0.7461 0.7806
H16_5 H 0.4032 0.6572 0.7806
H17_5 H 0.2539 0.5968 0.7806
C33_5 C 0.20302(13) 0.64663(18) 0.8139(2)
C34_5 C 0.35337(18) 0.55640(13) 0.8139(2)
C35_5 C 0.44360(13) 0.79698(13) 0.8139(2)
H20_5 H 0.2031 0.6244 0.8523
H21_5 H 0.3756 0.5788 0.8523
H22_5 H 0.4212 0.7969 0.8523
C38_5 C 0.20197(12) 0.71202(17) 0.7037(2)
C39_5 C 0.28798(17) 0.48996(12) 0.7037(2)
C40_5 C 0.51004(12) 0.79803(12) 0.7037(2)
H25_5 H 0.2021 0.7349 0.6662
H26_5 H 0.2651 0.4673 0.6662
H27_5 H 0.5327 0.7979 0.6662
C43_5 C 0.29124(12) 0.67208(18) 0.7800(2)
C44_5 C 0.38083(13) 0.70876(12) 0.7800(2)
C45_5 C 0.32792(18) 0.61917(13) 0.7800(2)
C49_5 C 0.48498(12) 0.48350(18) 0.9673(2)
C53_5 C 0.24655(12) 0.67754(17) 0.7717(2)
C54_5 C 0.32246(17) 0.56902(12) 0.7717(2)
C55_5 C 0.43098(12) 0.75345(12) 0.7717(2)
C58_5 C 0.24534(12) 0.71101(17) 0.7181(2)
C59_5 C 0.28899(17) 0.53434(12) 0.7181(2)
C60_5 C 0.46566(12) 0.75466(12) 0.7181(2)
H30_5 H 0.2749 0.7337 0.6909
H31_5 H 0.2663 0.5413 0.6909
H32_5 H 0.4587 0.7251 0.6909
C63_5 C 0.15967(12) 0.64816(17) 0.8003(2)
C64_5 C 0.35184(17) 0.51152(12) 0.8003(2)
C65_5 C 0.48848(12) 0.84033(12) 0.8003(2)
H35_5 H 0.1305 0.6273 0.8300
H36_5 H 0.3727 0.5033 0.8300
H37_5 H 0.4967 0.8695 0.8300
C69_5 C 0.28294(17) 0.29790(26) 0.7150(3)
C70_5 C 0.29790(26) 0.28294(17) 0.7850(3)
H41_5 H 0.2652 0.2687 0.6797
H42_5 H 0.2687 0.2652 0.8203
H46_5 H 0.2594 0.3092 0.7297
H47_5 H 0.3092 0.2594 0.7703
C74_5 C 0.50609(15) 0.47755(25) 0.8999(3)
H51_5 H 0.5413 0.4948 0.8945
C79_5 C 0.47654(15) 0.44665(24) 0.8396(3)
H56_5 H 0.4924 0.4430 0.7941
C84_5 C 0.40754(13) 0.42882(21) 0.9065(2)
H61_5 H 0.3723 0.4124 0.9096
C89_5 C 0.43493(10) 0.45822(16) 0.9693(2)
H67_5 H 0.5818 0.5394 0.9853
H71_5 H 0.3096 0.3582 0.6598
H72_5 H 0.3582 0.3096 0.8402
Ni7_3 Ni 0.381091(16) 0.0000 0.2500
C81_5 C 0.97871(17) 0.40754(13) 0.0935(2)
C83_5 C 0.42882(21) 0.02129(17) 0.0935(2)
H58_5 H 0.9598 0.3723 0.0904
H60_5 H 0.4124 0.0402 0.0904
C86_5 C 0.97670(13) 0.43493(10) 0.0307(2)
C88_5 C 0.45822(16) 0.02330(13) 0.0307(2)
Ni1_3 Ni 1.0000 0.618909(16) 0.7500
O1_5 O 0.92561(8) 0.57831(8) 0.72911(13)
O3_5 O 0.89187(9) 0.59371(9) 0.83355(16)
N1_3 N 0.99443(10) 0.57219(9) 0.84243(15)
C1_5 C 0.88971(12) 0.56819(12) 0.7753(2)
C2_5 C 0.84137(12) 0.52166(12) 0.7569(2)
C3_5 C 0.66095(12) 0.37474(13) 0.7198(2)
H1_5 H 0.6572 0.4032 0.7194
C4_5 C 0.79698(13) 0.44360(13) 0.6861(2)
H2_5 H 0.7969 0.4212 0.6477
C5_5 C 0.79803(12) 0.51004(12) 0.7963(2)
H3_5 H 0.7979 0.5327 0.8338
C6_5 C 0.70876(12) 0.38083(13) 0.7200(2)
C7_5 C 0.99853(13) 0.51502(12) 0.9673(2)
C8_5 C 0.75345(12) 0.43098(12) 0.7283(2)
C9_5 C 0.75466(12) 0.46566(12) 0.7819(2)
H4_5 H 0.7251 0.4587 0.8091
C10_5 C 0.84033(12) 0.48848(12) 0.6997(2)
H5_5 H 0.8695 0.4967 0.6700
C12_5 C 0.9715(2) 0.49391(15) 0.8999(3)
H8_5 H 0.9536 0.4587 0.8945
C13_5 C 0.97012(19) 0.52346(15) 0.8396(3)
H9_5 H 0.9507 0.5076 0.7941
Ni2 Ni 0.618943(16) 0.0000 0.7500
O4_5 O 0.65271(11) 0.07439(8) 0.72911(13)
O11_5 O 0.98687(9) 0.66366(12) 0.82702(13)
O13_5 O 0.67678(8) 0.01313(9) 0.82702(13)
O16_5 O 0.70185(13) 0.10813(9) 0.83355(16)
O17_5 O 0.40629(9) 0.29815(13) 0.83355(16)
N4_3 N 0.57777(13) 0.00557(10) 0.84243(15)
C16_5 C 0.67849(17) 0.11029(12) 0.7753(2)
C17_5 C 0.43181(12) 0.32151(17) 0.7753(2)
C21_5 C 0.68030(17) 0.15863(12) 0.7569(2)
C22_5 C 0.47834(12) 0.31970(17) 0.7569(2)
C26_5 C 0.62526(13) 0.28620(18) 0.7198(2)
C27_5 C 0.71380(18) 0.33905(12) 0.7198(2)
H13_5 H 0.5968 0.2539 0.7194
H14_5 H 0.7461 0.3428 0.7194
C31_5 C 0.64663(18) 0.20302(13) 0.6861(2)
C32_5 C 0.55640(13) 0.35337(18) 0.6861(2)
H18_5 H 0.6244 0.2031 0.6477
H19_5 H 0.5788 0.3756 0.6477
C36_5 C 0.71202(17) 0.20197(12) 0.7963(2)
C37_5 C 0.48996(12) 0.28798(17) 0.7963(2)
H23_5 H 0.7349 0.2021 0.8338
H24_5 H 0.4673 0.2651 0.8338
C41_5 C 0.61917(13) 0.32792(18) 0.7200(2)
C42_5 C 0.67208(18) 0.29124(12) 0.7200(2)
C47_5 C 0.51650(18) 0.00147(13) 0.9673(2)
C51_5 C 0.67754(17) 0.24655(12) 0.7283(2)
C52_5 C 0.56902(12) 0.32246(17) 0.7283(2)
C56_5 C 0.71101(17) 0.24534(12) 0.7819(2)
C57_5 C 0.53434(12) 0.28899(17) 0.7819(2)
H28_5 H 0.7337 0.2749 0.8091
H29_5 H 0.5413 0.2663 0.8091
C61_5 C 0.64816(17) 0.15967(12) 0.6997(2)
C62_5 C 0.51152(12) 0.35184(17) 0.6997(2)
H33_5 H 0.6273 0.1305 0.6700
H34_5 H 0.5033 0.3727 0.6700
C66_5 C 0.9850(2) 0.70210(26) 0.7850(3)
C68_5 C 0.71706(17) 0.0150(2) 0.7850(3)
H38_5 H 0.9964 0.7313 0.8203
H40_5 H 0.7348 0.0036 0.8203
H43_5 H 0.9501 0.6908 0.7703
H45_5 H 0.7406 0.0499 0.7703
C72_5 C 0.52245(25) 0.0285(2) 0.8999(3)
H49_5 H 0.5052 0.0464 0.8945
C77_5 C 0.55335(24) 0.02988(19) 0.8396(3)
H54_5 H 0.5570 0.0493 0.7941
H63_5 H 0.9575 0.4182 0.9853
H65_5 H 0.4606 0.0425 0.9853
H68_5 H 0.9513 0.6418 0.8402
H70_5 H 0.6904 0.0487 0.8402
N5_5 N 0.42223(13) 0.99443(10) 0.15757(15)
C48_5 C 0.48350(18) 0.99853(13) 0.0327(2)
C73_5 C 0.47755(25) 0.9715(2) 0.1001(3)
H50_5 H 0.4948 0.9536 0.1055
C78_5 C 0.44665(24) 0.97012(19) 0.1604(3)
H55_5 H 0.4430 0.9507 0.2059
H64_5 H 0.5394 0.9575 0.0147
O12_5 O 0.66366(12) 0.98687(9) 0.67298(13)
N6_3 N 0.57219(9) 0.99443(10) 0.65757(15)
C67_5 C 0.70210(26) 0.9850(2) 0.7150(3)
H39_5 H 0.7313 0.9964 0.6797
H44_5 H 0.6908 0.9501 0.7297
C82_5 C 0.57118(21) 0.97871(17) 0.9065(2)
H59_5 H 0.5876 0.9598 0.9096
C87_5 C 0.54178(16) 0.97670(13) 0.9693(2)
H69_5 H 0.6418 0.9513 0.6598
C14_6 C 0.59246(13) 0.02129(17) 0.5935(2)
H10_6 H 0.6277 0.0402 0.5904
C15_6 C 0.56507(10) 0.02330(13) 0.5307(2)
H11_6 H 0.5818 0.0425 0.4853
N2_6 N 0.42781(9) 0.00557(10) 0.34243(15)
N9_6 N 0.57777(13) 0.57219(9) 0.34243(15)
C46_6 C 0.48498(12) 0.00147(13) 0.4673(2)
C49_6 C 0.48350(18) 0.48498(12) 0.5327(2)
C50_6 C 0.51650(18) 0.51502(12) 0.4673(2)
C71_6 C 0.50609(15) 0.0285(2) 0.3999(3)
C74_6 C 0.47755(25) 0.50609(15) 0.6001(3)
C75_6 C 0.52245(25) 0.49391(15) 0.3999(3)
H48_6 H 0.5413 0.0464 0.3945
H51_6 H 0.4948 0.5413 0.6055
H52_6 H 0.5052 0.4587 0.3945
C76_6 C 0.47654(15) 0.02988(19) 0.3396(3)
C79_6 C 0.44665(24) 0.47654(15) 0.6604(3)
C80_6 C 0.55335(24) 0.52346(15) 0.3396(3)
H53_6 H 0.4924 0.0493 0.2941
H56_6 H 0.4430 0.4924 0.7059
H57_6 H 0.5570 0.5076 0.2941
C84_6 C 0.42882(21) 0.40754(13) 0.5935(2)
C85_6 C 0.57118(21) 0.59246(13) 0.4065(2)
H61_6 H 0.4124 0.3723 0.5904
H62_6 H 0.5876 0.6277 0.4096
C89_6 C 0.45822(16) 0.43493(10) 0.5307(2)
C90_6 C 0.54178(16) 0.56507(10) 0.4693(2)
H66_6 H 0.4606 0.4182 0.4853
H67_6 H 0.5394 0.5818 0.5147
C7_6 C 0.51502(12) 0.99853(13) 0.5327(2)
C12_6 C 0.49391(15) 0.9715(2) 0.6001(3)
H8_6 H 0.4587 0.9536 0.6055
C13_6 C 0.52346(15) 0.97012(19) 0.6604(3)
H9_6 H 0.5076 0.9507 0.7059
Ni2_2 Ni 0.0000 0.618943(16) 0.7500
C47_6 C 0.00147(13) 0.51650(18) 0.5327(2)
C72_6 C 0.0285(2) 0.52245(25) 0.6001(3)
H49_6 H 0.0464 0.5052 0.6055
C77_6 C 0.02988(19) 0.55335(24) 0.6604(3)
H54_6 H 0.0493 0.5570 0.7059
C81_6 C 0.40754(13) 0.97871(17) 0.4065(2)
C83_6 C 0.02129(17) 0.42882(21) 0.4065(2)
H58_6 H 0.3723 0.9598 0.4096
H60_6 H 0.0402 0.4124 0.4096
C86_6 C 0.43493(10) 0.97670(13) 0.4693(2)
C88_6 C 0.02330(13) 0.45822(16) 0.4693(2)
H63_6 H 0.4182 0.9575 0.5147
H65_6 H 0.0425 0.4606 0.5147
N5_6 N 0.99443(10) 0.42223(13) 0.34243(15)
C48_6 C 0.99853(13) 0.48350(18) 0.4673(2)
C73_6 C 0.9715(2) 0.47755(25) 0.3999(3)
H50_6 H 0.9536 0.4948 0.3945
C78_6 C 0.97012(19) 0.44665(24) 0.3396(3)
H55_6 H 0.9507 0.4430 0.2941
C82_6 C 0.97871(17) 0.57118(21) 0.5935(2)
H59_6 H 0.9598 0.5876 0.5904
C87_6 C 0.97670(13) 0.54178(16) 0.5307(2)
H64_6 H 0.9575 0.5394 0.4853
Ni6_4 Ni 1.0000 0.381057(16) 0.2500
Ni8_4 Ni 0.381057(16) 0.999967(23) 0.2500
O9_3 O 0.42169(8) 0.07439(8) 0.22911(13)
O12_6 O 0.33634(12) 0.01313(9) 0.32702(13)
C67_6 C 0.29790(26) 0.0150(2) 0.2850(3)
H39_6 H 0.2687 0.0036 0.3203
H44_6 H 0.3092 0.0499 0.2703
H69_6 H 0.3582 0.0487 0.3402
O1_6 O 0.07439(8) 0.42169(8) 0.27089(13)
O3_6 O 0.10813(9) 0.40629(9) 0.16645(16)
C1_6 C 0.11029(12) 0.43181(12) 0.2247(2)
C2_6 C 0.15863(12) 0.47834(12) 0.2431(2)
C3_6 C 0.33905(12) 0.62526(13) 0.2802(2)
H1_6 H 0.3428 0.5968 0.2806
C4_6 C 0.20302(13) 0.55640(13) 0.3139(2)
H2_6 H 0.2031 0.5788 0.3523
C5_6 C 0.20197(12) 0.48996(12) 0.2037(2)
H3_6 H 0.2021 0.4673 0.1662
C6_6 C 0.29124(12) 0.61917(13) 0.2800(2)
C8_6 C 0.24655(12) 0.56902(12) 0.2717(2)
C9_6 C 0.24534(12) 0.53434(12) 0.2181(2)
H4_6 H 0.2749 0.5413 0.1909
C10_6 C 0.15967(12) 0.51152(12) 0.3003(2)
H5_6 H 0.1305 0.5033 0.3300
O4_6 O 0.34729(11) 0.92561(8) 0.27089(13)
O5_3 O 0.57831(8) 0.65271(11) 0.27089(13)
O11_6 O 0.01313(9) 0.33634(12) 0.17298(13)
O13_6 O 0.32322(8) 0.98687(9) 0.17298(13)
O16_6 O 0.29815(13) 0.89187(9) 0.16645(16)
O17_6 O 0.59371(9) 0.70185(13) 0.16645(16)
C16_6 C 0.32151(17) 0.88971(12) 0.2247(2)
C17_6 C 0.56819(12) 0.67849(17) 0.2247(2)
C21_6 C 0.31970(17) 0.84137(12) 0.2431(2)
C22_6 C 0.52166(12) 0.68030(17) 0.2431(2)
C26_6 C 0.37474(13) 0.71380(18) 0.2802(2)
C27_6 C 0.28620(18) 0.66095(12) 0.2802(2)
H13_6 H 0.4032 0.7461 0.2806
H14_6 H 0.2539 0.6572 0.2806
C31_6 C 0.35337(18) 0.79698(13) 0.3139(2)
C32_6 C 0.44360(13) 0.64663(18) 0.3139(2)
H18_6 H 0.3756 0.7969 0.3523
H19_6 H 0.4212 0.6244 0.3523
C36_6 C 0.28798(17) 0.79803(12) 0.2037(2)
C37_6 C 0.51004(12) 0.71202(17) 0.2037(2)
H23_6 H 0.2651 0.7979 0.1662
H24_6 H 0.5327 0.7349 0.1662
C41_6 C 0.38083(13) 0.67208(18) 0.2800(2)
C42_6 C 0.32792(18) 0.70876(12) 0.2800(2)
C51_6 C 0.32246(17) 0.75345(12) 0.2717(2)
C52_6 C 0.43098(12) 0.67754(17) 0.2717(2)
C56_6 C 0.28899(17) 0.75466(12) 0.2181(2)
C57_6 C 0.46566(12) 0.71101(17) 0.2181(2)
H28_6 H 0.2663 0.7251 0.1909
H29_6 H 0.4587 0.7337 0.1909
C61_6 C 0.35184(17) 0.84033(12) 0.3003(2)
C62_6 C 0.48848(12) 0.64816(17) 0.3003(2)
H33_6 H 0.3727 0.8695 0.3300
H34_6 H 0.4967 0.6273 0.3300
C66_6 C 0.0150(2) 0.29790(26) 0.2150(3)
C68_6 C 0.28294(17) 0.9850(2) 0.2150(3)
H38_6 H 0.0036 0.2687 0.1797
H40_6 H 0.2652 0.9964 0.1797
H43_6 H 0.0499 0.3092 0.2297
H45_6 H 0.2594 0.9501 0.2297
H68_6 H 0.0487 0.3582 0.1598
H70_6 H 0.3096 0.9513 0.1598
O2_6 O 0.98687(9) 0.32322(8) 0.32702(13)
C11_6 C 0.9850(2) 0.28294(17) 0.2850(3)
H6_6 H 0.9964 0.2652 0.3203
H7_6 H 0.9501 0.2594 0.2703
H12_6 H 0.9513 0.3096 0.3402
O6_6 O 0.92561(8) 0.34729(11) 0.22911(13)
O7_6 O 0.65271(11) 0.57831(8) 0.22911(13)
O14_6 O 0.67678(8) 0.66366(12) 0.32702(13)
O15_6 O 0.66366(12) 0.67678(8) 0.17298(13)
O18_6 O 0.89187(9) 0.29815(13) 0.33355(16)
O19_6 O 0.70185(13) 0.59371(9) 0.33355(16)
O20_6 O 0.40629(9) 0.10813(9) 0.33355(16)
C18_6 C 0.88971(12) 0.32151(17) 0.2753(2)
C19_6 C 0.67849(17) 0.56819(12) 0.2753(2)
C20_6 C 0.43181(12) 0.11029(12) 0.2753(2)
C23_6 C 0.84137(12) 0.31970(17) 0.2569(2)
C24_6 C 0.68030(17) 0.52166(12) 0.2569(2)
C25_6 C 0.47834(12) 0.15863(12) 0.2569(2)
C28_6 C 0.66095(12) 0.28620(18) 0.2198(2)
C29_6 C 0.62526(13) 0.33905(12) 0.2198(2)
C30_6 C 0.71380(18) 0.37474(13) 0.2198(2)
H15_6 H 0.6572 0.2539 0.2194
H16_6 H 0.5968 0.3428 0.2194
H17_6 H 0.7461 0.4032 0.2194
C33_6 C 0.79698(13) 0.35337(18) 0.1861(2)
C34_6 C 0.64663(18) 0.44360(13) 0.1861(2)
C35_6 C 0.55640(13) 0.20302(13) 0.1861(2)
H20_6 H 0.7969 0.3756 0.1477
H21_6 H 0.6244 0.4212 0.1477
H22_6 H 0.5788 0.2031 0.1477
C38_6 C 0.79803(12) 0.28798(17) 0.2963(2)
C39_6 C 0.71202(17) 0.51004(12) 0.2963(2)
C40_6 C 0.48996(12) 0.20197(12) 0.2963(2)
H25_6 H 0.7979 0.2651 0.3338
H26_6 H 0.7349 0.5327 0.3338
H27_6 H 0.4673 0.2021 0.3338
C43_6 C 0.70876(12) 0.32792(18) 0.2200(2)
C44_6 C 0.61917(13) 0.29124(12) 0.2200(2)
C45_6 C 0.67208(18) 0.38083(13) 0.2200(2)
C53_6 C 0.75345(12) 0.32246(17) 0.2283(2)
C54_6 C 0.67754(17) 0.43098(12) 0.2283(2)
C55_6 C 0.56902(12) 0.24655(12) 0.2283(2)
C58_6 C 0.75466(12) 0.28899(17) 0.2819(2)
C59_6 C 0.71101(17) 0.46566(12) 0.2819(2)
C60_6 C 0.53434(12) 0.24534(12) 0.2819(2)
H30_6 H 0.7251 0.2663 0.3091
H31_6 H 0.7337 0.4587 0.3091
H32_6 H 0.5413 0.2749 0.3091
C63_6 C 0.84033(12) 0.35184(17) 0.1997(2)
C64_6 C 0.64816(17) 0.48848(12) 0.1997(2)
C65_6 C 0.51152(12) 0.15967(12) 0.1997(2)
H35_6 H 0.8695 0.3727 0.1700
H36_6 H 0.6273 0.4967 0.1700
H37_6 H 0.5033 0.1305 0.1700
C69_6 C 0.71706(17) 0.70210(26) 0.2850(3)
C70_6 C 0.70210(26) 0.71706(17) 0.2150(3)
H41_6 H 0.7348 0.7313 0.3203
H42_6 H 0.7313 0.7348 0.1797
H46_6 H 0.7406 0.6908 0.2703
H47_6 H 0.6908 0.7406 0.2297
H71_6 H 0.6904 0.6418 0.3402
H72_6 H 0.6418 0.6904 0.1598
loop_
_geom_bond_atom_site_label_1
_geom_bond_atom_site_label_2
_geom_bond_site_symmetry_1
_geom_bond_site_symmetry_2
Ni1 O1 1_555 1_555
O1 C1 1_555 1_555
O2 Ni1 1_555 1_555
C1 C2 1_555 1_555
C2 C5 1_555 1_555
C4 H2 1_555 1_555
C8 C4 1_555 1_555
C9 C5 1_555 1_555
H4 C9 1_555 1_555
C10 C2 1_555 1_555
H5 C10 1_555 1_555
C11 O2 1_555 1_555
H6 C11 1_555 1_555
H7 C11 1_555 1_555
H12 O2 1_555 1_555
Ni4 O7 1_555 1_555
Ni5 O8 1_555 1_555
O6 Ni1 1_555 1_555
O7 C19 1_555 1_555
O8 C20 1_555 1_555
O10 Ni4 1_555 1_555
O11 Ni1 1_555 1_555
O14 Ni4 1_555 1_555
O18 C18 1_555 1_555
O19 C19 1_555 1_555
O20 C20 1_555 1_555
N3 Ni1 1_555 1_555
N8 Ni4 1_555 1_555
C18 O6 1_555 1_555
C19 C24 1_555 1_555
C20 C25 1_555 1_555
C23 C18 1_555 1_555
C24 C39 1_555 1_555
C25 C40 1_555 1_555
C27 C6 1_555 1_555
C28 H15 1_555 1_555
C29 H16 1_555 1_555
C30 H17 1_555 1_555
H14 C27 1_555 1_555
C38 C23 1_555 1_555
C39 H26 1_555 1_555
C40 H27 1_555 1_555
H25 C38 1_555 1_555
C43 C28 1_555 1_555
C44 C28 1_555 1_555
C45 C29 1_555 1_555
C53 C33 1_555 1_555
C54 C34 1_555 1_555
C55 C35 1_555 1_555
C58 C38 1_555 1_555
C59 C39 1_555 1_555
C60 C40 1_555 1_555
H30 C58 1_555 1_555
H31 C59 1_555 1_555
H32 C60 1_555 1_555
C63 C23 1_555 1_555
C64 C24 1_555 1_555
C65 C25 1_555 1_555
H35 C63 1_555 1_555
H36 C64 1_555 1_555
H37 C65 1_555 1_555
C66 C11 1_555 1_555
H38 C66 1_555 1_555
H43 C66 1_555 1_555
H71 O14 1_555 1_555
C4 C10 1_555 1_555
C6 C8 1_555 1_555
C8 C9 1_555 1_555
O11 C66 1_555 1_555
C29 C44 1_555 1_555
C30 C43 1_555 1_555
C30 C45 1_555 1_555
C33 C63 1_555 1_555
C34 C64 1_555 1_555
C35 C65 1_555 1_555
C43 C53 1_555 1_555
C44 C55 1_555 1_555
C45 C54 1_555 1_555
C53 C58 1_555 1_555
C54 C59 1_555 1_555
C55 C60 1_555 1_555
C7 C12 1_555 1_555
C12 H8 1_555 1_555
C13 N1 1_555 1_555
C14 N1 1_555 1_555
H10 C14 1_555 1_555
C15 C7 1_555 1_555
H11 C15 1_555 1_555
Ni6 N2 1_555 1_555
Ni8 N9 1_555 1_555
N2 C76 1_555 1_555
N9 C80 1_555 1_555
C46 C7 1_555 1_555
C49 C50 1_555 1_555
C50 C75 1_555 1_555
C71 C46 1_555 1_555
C74 C49 1_555 1_555
C75 H52 1_555 1_555
H48 C71 1_555 1_555
H51 C74 1_555 1_555
C76 C71 1_555 1_555
C79 N7 1_555 1_555
C80 C75 1_555 1_555
H53 C76 1_555 1_555
H57 C80 1_555 1_555
C81 N2 1_555 1_555
C84 N7 1_555 1_555
C85 N9 1_555 1_555
H58 C81 1_555 1_555
H61 C84 1_555 1_555
H62 C85 1_555 1_555
C86 C46 1_555 1_555
C89 C49 1_555 1_555
C90 C50 1_555 1_555
H63 C86 1_555 1_555
H66 C89 1_555 1_555
H67 C90 1_555 1_555
C12 C13 1_555 1_555
C14 C15 1_555 1_555
C74 C79 1_555 1_555
C81 C86 1_555 1_555
C84 C89 1_555 1_555
C85 C90 1_555 1_555
C3 H1 1_555 1_555
C32 H19 1_555 1_555
H34 C62 1_555 1_555
C32 C62 1_555 1_555
C16 C21 1_555 1_555
C21 C36 1_555 1_555
C56 C36 1_555 1_555
H28 C56 1_555 1_555
C68 O13 1_555 1_555
C70 O15 1_555 1_555
H39 C67 1_555 1_555
H40 C68 1_555 1_555
H41 C69 1_555 1_555
H42 C70 1_555 1_555
H44 C67 1_555 1_555
H45 C68 1_555 1_555
H46 C69 1_555 1_555
H47 C70 1_555 1_555
C42 C51 1_555 1_555
C51 C56 1_555 1_555
C67 C68 1_555 1_555
C69 C70 1_555 1_555
Ni5 O4 1_555 1_555
O12 Ni5 1_555 1_555
N6 Ni5 1_555 1_555
C17 C22 1_555 1_555
C22 C37 1_555 1_555
C26 H13 1_555 1_555
C31 H18 1_555 1_555
C57 C37 1_555 1_555
H29 C57 1_555 1_555
H33 C61 1_555 1_555
H69 O12 1_555 1_555
C26 C41 1_555 1_555
C31 C61 1_555 1_555
C41 C52 1_555 1_555
C52 C57 1_555 1_555
Ni7 N5 1_555 1_555
N5 C78 1_555 1_555
C47 C48 1_555 1_555
C48 C73 1_555 1_555
C72 C47 1_555 1_555
C73 H50 1_555 1_555
H49 C72 1_555 1_555
C77 N4 1_555 1_555
C78 C73 1_555 1_555
H55 C78 1_555 1_555
C82 N4 1_555 1_555
C83 N5 1_555 1_555
H59 C82 1_555 1_555
H60 C83 1_555 1_555
C87 C47 1_555 1_555
C88 C48 1_555 1_555
H64 C87 1_555 1_555
H65 C88 1_555 1_555
C72 C77 1_555 1_555
C82 C87 1_555 1_555
C83 C88 1_555 1_555
Ni8 N9_2 1_555 1_555
N9_2 C80_2 1_555 1_555
C49_2 C50_2 1_555 1_555
C50_2 C75_2 1_555 1_555
C74_2 C49_2 1_555 1_555
C75_2 H52_2 1_555 1_555
H51_2 C74_2 1_555 1_555
C79_2 N8 1_555 1_555
C80_2 C75_2 1_555 1_555
H56_2 C79_2 1_555 1_555
H57_2 C80_2 1_555 1_555
C84_2 N8 1_555 1_555
C85_2 N9_2 1_555 1_555
H61_2 C84_2 1_555 1_555
H62_2 C85_2 1_555 1_555
C89_2 C49_2 1_555 1_555
C90_2 C50_2 1_555 1_555
H66_2 C89_2 1_555 1_555
H67_2 C90_2 1_555 1_555
C74_2 C79_2 1_555 1_555
C84_2 C89_2 1_555 1_555
C85_2 C90_2 1_555 1_555
C7_2 C12_2 1_555 1_555
C12_2 H8_2 1_555 1_555
C13_2 N6 1_555 1_555
H9_2 C13_2 1_555 1_555
C14_2 N6 1_555 1_555
H10_2 C14_2 1_555 1_555
C15_2 C7_2 1_555 1_555
H11_2 C15_2 1_555 1_555
Ni7 N2_2 1_555 1_555
Ni6 N5_2 1_555 1_555
N2_2 C76_2 1_555 1_555
N5_2 C78_2 1_555 1_555
C46_2 C7_2 1_555 1_555
C47_2 C48_2 1_555 1_555
C48_2 C73_2 1_555 1_555
C71_2 C46_2 1_555 1_555
C72_2 C47_2 1_555 1_555
C73_2 H50_2 1_555 1_555
H48_2 C71_2 1_555 1_555
H49_2 C72_2 1_555 1_555
C76_2 C71_2 1_555 1_555
C77_2 N3 1_555 1_555
C78_2 C73_2 1_555 1_555
H53_2 C76_2 1_555 1_555
H54_2 C77_2 1_555 1_555
H55_2 C78_2 1_555 1_555
C81_2 N2_2 1_555 1_555
C82_2 N3 1_555 1_555
C83_2 N5_2 1_555 1_555
H58_2 C81_2 1_555 1_555
H59_2 C82_2 1_555 1_555
H60_2 C83_2 1_555 1_555
C86_2 C46_2 1_555 1_555
C87_2 C47_2 1_555 1_555
C88_2 C48_2 1_555 1_555
H63_2 C86_2 1_555 1_555
H64_2 C87_2 1_555 1_555
H65_2 C88_2 1_555 1_555
C12_2 C13_2 1_555 1_555
C14_2 C15_2 1_555 1_555
C72_2 C77_2 1_555 1_555
C81_2 C86_2 1_555 1_555
C82_2 C87_2 1_555 1_555
C83_2 C88_2 1_555 1_555
Ni6 O4_2 1_555 1_555
O9 Ni6 1_555 1_555
O12_2 Ni6 1_555 1_555
O17_2 C17_2 1_555 1_555
C17_2 C22_2 1_555 1_555
C22_2 C37_2 1_555 1_555
C26_2 H13_2 1_555 1_555
C31_2 H18_2 1_555 1_555
C37_2 H24_2 1_555 1_555
C57_2 C37_2 1_555 1_555
H29_2 C57_2 1_555 1_555
H33_2 C61_2 1_555 1_555
H69_2 O12_2 1_555 1_555
C26_2 C41_2 1_555 1_555
C31_2 C61_2 1_555 1_555
C41_2 C52_2 1_555 1_555
C52_2 C57_2 1_555 1_555
C3_2 H1_2 1_555 1_555
Ni8 O5 1_555 1_555
C32_2 H19_2 1_555 1_555
H34_2 C62_2 1_555 1_555
C32_2 C62_2 1_555 1_555
O16_2 C16_2 1_555 1_555
C16_2 C21_2 1_555 1_555
C21_2 C36_2 1_555 1_555
C36_2 H23_2 1_555 1_555
C56_2 C36_2 1_555 1_555
H28_2 C56_2 1_555 1_555
C68_2 O13_2 1_555 1_555
C70_2 O15_2 1_555 1_555
H39_2 C67_2 1_555 1_555
H40_2 C68_2 1_555 1_555
H41_2 C69_2 1_555 1_555
H42_2 C70_2 1_555 1_555
H44_2 C67_2 1_555 1_555
H45_2 C68_2 1_555 1_555
H46_2 C69_2 1_555 1_555
H47_2 C70_2 1_555 1_555
H70_2 O13_2 1_555 1_555
H72_2 O15_2 1_555 1_555
C42_2 C51_2 1_555 1_555
C51_2 C56_2 1_555 1_555
C67_2 C68_2 1_555 1_555
C69_2 C70_2 1_555 1_555
Ni7 O1_2 1_555 1_555
O1_2 C1_2 1_555 1_555
O2_2 Ni7 1_555 1_555
O3_2 C1_2 1_555 1_555
C1_2 C2_2 1_555 1_555
C2_2 C5_2 1_555 1_555
C4_2 H2_2 1_555 1_555
C5_2 H3_2 1_555 1_555
C8_2 C4_2 1_555 1_555
C9_2 C5_2 1_555 1_555
H4_2 C9_2 1_555 1_555
C10_2 C2_2 1_555 1_555
H5_2 C10_2 1_555 1_555
C11_2 O2_2 1_555 1_555
H6_2 C11_2 1_555 1_555
H7_2 C11_2 1_555 1_555
H12_2 O2_2 1_555 1_555
Ni8 O7_2 1_555 1_555
O6_2 Ni7 1_555 1_555
O7_2 C19_2 1_555 1_555
O9 C20_2 1_555 1_555
O11_2 Ni7 1_555 1_555
O14_2 Ni8 1_555 1_555
O18_2 C18_2 1_555 1_555
O19_2 C19_2 1_555 1_555
O20_2 C20_2 1_555 1_555
C18_2 O6_2 1_555 1_555
C19_2 C24_2 1_555 1_555
C20_2 C25_2 1_555 1_555
C23_2 C18_2 1_555 1_555
C24_2 C39_2 1_555 1_555
C25_2 C40_2 1_555 1_555
C27_2 C6_2 1_555 1_555
C28_2 H15_2 1_555 1_555
C29_2 H16_2 1_555 1_555
C30_2 H17_2 1_555 1_555
H14_2 C27_2 1_555 1_555
C33_2 H20_2 1_555 1_555
C34_2 H21_2 1_555 1_555
C35_2 H22_2 1_555 1_555
C38_2 C23_2 1_555 1_555
C39_2 H26_2 1_555 1_555
C40_2 H27_2 1_555 1_555
H25_2 C38_2 1_555 1_555
C43_2 C28_2 1_555 1_555
C44_2 C28_2 1_555 1_555
C45_2 C29_2 1_555 1_555
C53_2 C33_2 1_555 1_555
C54_2 C34_2 1_555 1_555
C55_2 C35_2 1_555 1_555
C58_2 C38_2 1_555 1_555
C59_2 C39_2 1_555 1_555
C60_2 C40_2 1_555 1_555
H30_2 C58_2 1_555 1_555
H31_2 C59_2 1_555 1_555
H32_2 C60_2 1_555 1_555
C63_2 C23_2 1_555 1_555
C64_2 C24_2 1_555 1_555
C65_2 C25_2 1_555 1_555
H35_2 C63_2 1_555 1_555
H36_2 C64_2 1_555 1_555
H37_2 C65_2 1_555 1_555
C66_2 C11_2 1_555 1_555
H38_2 C66_2 1_555 1_555
H43_2 C66_2 1_555 1_555
H68_2 O11_2 1_555 1_555
H71_2 O14_2 1_555 1_555
C4_2 C10_2 1_555 1_555
C6_2 C8_2 1_555 1_555
C8_2 C9_2 1_555 1_555
O11_2 C66_2 1_555 1_555
C29_2 C44_2 1_555 1_555
C30_2 C43_2 1_555 1_555
C30_2 C45_2 1_555 1_555
C33_2 C63_2 1_555 1_555
C34_2 C64_2 1_555 1_555
C35_2 C65_2 1_555 1_555
C43_2 C53_2 1_555 1_555
C44_2 C55_2 1_555 1_555
C45_2 C54_2 1_555 1_555
C53_2 C58_2 1_555 1_555
C54_2 C59_2 1_555 1_555
C55_2 C60_2 1_555 1_555
Ni1_2 O1_3 1_555 1_555
O1_3 C1_3 1_555 1_555
O2_3 Ni1_2 1_555 1_555
O3_3 C1_3 1_555 1_555
N1_2 Ni1_2 1_555 1_555
C1_3 C2_3 1_555 1_555
C2_3 C5_3 1_555 1_555
C4_3 H2_3 1_555 1_555
C5_3 H3_3 1_555 1_555
C7_3 C12_3 1_555 1_555
C8_3 C4_3 1_555 1_555
C9_3 C5_3 1_555 1_555
H4_3 C9_3 1_555 1_555
C10_3 C2_3 1_555 1_555
H5_3 C10_3 1_555 1_555
C11_3 O2_3 1_555 1_555
H6_3 C11_3 1_555 1_555
H7_3 C11_3 1_555 1_555
C12_3 H8_3 1_555 1_555
C13_3 N1_2 1_555 1_555
H9_3 C13_3 1_555 1_555
C14_3 N1_2 1_555 1_555
H10_3 C14_3 1_555 1_555
C15_3 C7_3 1_555 1_555
H11_3 C15_3 1_555 1_555
H12_3 O2_3 1_555 1_555
Ni4_2 O7_3 1_555 1_555
Ni5_2 O8_2 1_555 1_555
Ni6_2 N2_3 1_555 1_555
Ni8_2 N9_3 1_555 1_555
O6_3 Ni1_2 1_555 1_555
O7_3 C19_3 1_555 1_555
O8_2 C20_3 1_555 1_555
O10_2 Ni4_2 1_555 1_555
O11_3 Ni1_2 1_555 1_555
O14_3 Ni4_2 1_555 1_555
O18_3 C18_3 1_555 1_555
O19_3 C19_3 1_555 1_555
O20_3 C20_3 1_555 1_555
N2_3 C76_3 1_555 1_555
N3_2 Ni1_2 1_555 1_555
N7_2 Ni4_2 1_555 1_555
N8_2 Ni4_2 1_555 1_555
N9_3 C80_3 1_555 1_555
C18_3 O6_3 1_555 1_555
C19_3 C24_3 1_555 1_555
C20_3 C25_3 1_555 1_555
C23_3 C18_3 1_555 1_555
C24_3 C39_3 1_555 1_555
C25_3 C40_3 1_555 1_555
C27_3 C6_3 1_555 1_555
C28_3 H15_3 1_555 1_555
C29_3 H16_3 1_555 1_555
C30_3 H17_3 1_555 1_555
H14_3 C27_3 1_555 1_555
C33_3 H20_3 1_555 1_555
C34_3 H21_3 1_555 1_555
C35_3 H22_3 1_555 1_555
C38_3 C23_3 1_555 1_555
C39_3 H26_3 1_555 1_555
C40_3 H27_3 1_555 1_555
H25_3 C38_3 1_555 1_555
C43_3 C28_3 1_555 1_555
C44_3 C28_3 1_555 1_555
C45_3 C29_3 1_555 1_555
C46_3 C7_3 1_555 1_555
C49_3 C50_3 1_555 1_555
C50_3 C75_3 1_555 1_555
C53_3 C33_3 1_555 1_555
C54_3 C34_3 1_555 1_555
C55_3 C35_3 1_555 1_555
C58_3 C38_3 1_555 1_555
C59_3 C39_3 1_555 1_555
C60_3 C40_3 1_555 1_555
H30_3 C58_3 1_555 1_555
H31_3 C59_3 1_555 1_555
H32_3 C60_3 1_555 1_555
C63_3 C23_3 1_555 1_555
C64_3 C24_3 1_555 1_555
C65_3 C25_3 1_555 1_555
H35_3 C63_3 1_555 1_555
H36_3 C64_3 1_555 1_555
H37_3 C65_3 1_555 1_555
C66_3 C11_3 1_555 1_555
H38_3 C66_3 1_555 1_555
H43_3 C66_3 1_555 1_555
C71_3 C46_3 1_555 1_555
C74_3 C49_3 1_555 1_555
C75_3 H52_3 1_555 1_555
H48_3 C71_3 1_555 1_555
H51_3 C74_3 1_555 1_555
C76_3 C71_3 1_555 1_555
C79_3 N7_2 1_555 1_555
C80_3 C75_3 1_555 1_555
H53_3 C76_3 1_555 1_555
H56_3 C79_3 1_555 1_555
H57_3 C80_3 1_555 1_555
C81_3 N2_3 1_555 1_555
C84_3 N7_2 1_555 1_555
C85_3 N9_3 1_555 1_555
H58_3 C81_3 1_555 1_555
H61_3 C84_3 1_555 1_555
H62_3 C85_3 1_555 1_555
C86_3 C46_3 1_555 1_555
C89_3 C49_3 1_555 1_555
C90_3 C50_3 1_555 1_555
H63_3 C86_3 1_555 1_555
H66_3 C89_3 1_555 1_555
H67_3 C90_3 1_555 1_555
H68_3 O11_3 1_555 1_555
H71_3 O14_3 1_555 1_555
C4_3 C10_3 1_555 1_555
C6_3 C8_3 1_555 1_555
C8_3 C9_3 1_555 1_555
C12_3 C13_3 1_555 1_555
C14_3 C15_3 1_555 1_555
O11_3 C66_3 1_555 1_555
C29_3 C44_3 1_555 1_555
C30_3 C43_3 1_555 1_555
C30_3 C45_3 1_555 1_555
C33_3 C63_3 1_555 1_555
C34_3 C64_3 1_555 1_555
C35_3 C65_3 1_555 1_555
C43_3 C53_3 1_555 1_555
C44_3 C55_3 1_555 1_555
C45_3 C54_3 1_555 1_555
C53_3 C58_3 1_555 1_555
C54_3 C59_3 1_555 1_555
C55_3 C60_3 1_555 1_555
C74_3 C79_3 1_555 1_555
C81_3 C86_3 1_555 1_555
C84_3 C89_3 1_555 1_555
C85_3 C90_3 1_555 1_555
O16_3 C16_3 1_555 1_555
C16_3 C21_3 1_555 1_555
C21_3 C36_3 1_555 1_555
C36_3 H23_3 1_555 1_555
C56_3 C36_3 1_555 1_555
H28_3 C56_3 1_555 1_555
C68_3 O13_3 1_555 1_555
C70_3 O15_3 1_555 1_555
H39_3 C67_3 1_555 1_555
H40_3 C68_3 1_555 1_555
H41_3 C69_3 1_555 1_555
H42_3 C70_3 1_555 1_555
H44_3 C67_3 1_555 1_555
H45_3 C68_3 1_555 1_555
H46_3 C69_3 1_555 1_555
H47_3 C70_3 1_555 1_555
H70_3 O13_3 1_555 1_555
H72_3 O15_3 1_555 1_555
C42_3 C51_3 1_555 1_555
C51_3 C56_3 1_555 1_555
C67_3 C68_3 1_555 1_555
C69_3 C70_3 1_555 1_555
C3_3 H1_3 1_555 1_555
C32_3 H19_3 1_555 1_555
H34_3 C62_3 1_555 1_555
C32_3 C62_3 1_555 1_555
Ni5_2 O4_3 1_555 1_555
Ni7_2 N5_3 1_555 1_555
O12_3 Ni5_2 1_555 1_555
O17_3 C17_3 1_555 1_555
N4_2 Ni5_2 1_555 1_555
N5_3 C78_3 1_555 1_555
N6_2 Ni5_2 1_555 1_555
C17_3 C22_3 1_555 1_555
C22_3 C37_3 1_555 1_555
C26_3 H13_3 1_555 1_555
C31_3 H18_3 1_555 1_555
C37_3 H24_3 1_555 1_555
C47_3 C48_3 1_555 1_555
C48_3 C73_3 1_555 1_555
C57_3 C37_3 1_555 1_555
H29_3 C57_3 1_555 1_555
H33_3 C61_3 1_555 1_555
C72_3 C47_3 1_555 1_555
C73_3 H50_3 1_555 1_555
H49_3 C72_3 1_555 1_555
C77_3 N4_2 1_555 1_555
C78_3 C73_3 1_555 1_555
H54_3 C77_3 1_555 1_555
H55_3 C78_3 1_555 1_555
C82_3 N4_2 1_555 1_555
C83_3 N5_3 1_555 1_555
H59_3 C82_3 1_555 1_555
H60_3 C83_3 1_555 1_555
C87_3 C47_3 1_555 1_555
C88_3 C48_3 1_555 1_555
H64_3 C87_3 1_555 1_555
H65_3 C88_3 1_555 1_555
H69_3 O12_3 1_555 1_555
C26_3 C41_3 1_555 1_555
C31_3 C61_3 1_555 1_555
C41_3 C52_3 1_555 1_555
C52_3 C57_3 1_555 1_555
C72_3 C77_3 1_555 1_555
C82_3 C87_3 1_555 1_555
C83_3 C88_3 1_555 1_555
N9_4 C80_4 1_555 1_555
C49_4 C50_4 1_555 1_555
C50_4 C75_4 1_555 1_555
C74_4 C49_4 1_555 1_555
C75_4 H52_4 1_555 1_555
H51_4 C74_4 1_555 1_555
C79_4 N8_2 1_555 1_555
C80_4 C75_4 1_555 1_555
H56_4 C79_4 1_555 1_555
C84_4 N8_2 1_555 1_555
C85_4 N9_4 1_555 1_555
H61_4 C84_4 1_555 1_555
H62_4 C85_4 1_555 1_555
C89_4 C49_4 1_555 1_555
C90_4 C50_4 1_555 1_555
H66_4 C89_4 1_555 1_555
H67_4 C90_4 1_555 1_555
C74_4 C79_4 1_555 1_555
C84_4 C89_4 1_555 1_555
C85_4 C90_4 1_555 1_555
C7_4 C12_4 1_555 1_555
C12_4 H8_4 1_555 1_555
C13_4 N6_2 1_555 1_555
H9_4 C13_4 1_555 1_555
C14_4 N6_2 1_555 1_555
H10_4 C14_4 1_555 1_555
C15_4 C7_4 1_555 1_555
H11_4 C15_4 1_555 1_555
N2_4 C76_4 1_555 1_555
N5_4 C78_4 1_555 1_555
C46_4 C7_4 1_555 1_555
C47_4 C48_4 1_555 1_555
C48_4 C73_4 1_555 1_555
C71_4 C46_4 1_555 1_555
C72_4 C47_4 1_555 1_555
C73_4 H50_4 1_555 1_555
H48_4 C71_4 1_555 1_555
H49_4 C72_4 1_555 1_555
C76_4 C71_4 1_555 1_555
C77_4 N3_2 1_555 1_555
C78_4 C73_4 1_555 1_555
H54_4 C77_4 1_555 1_555
C81_4 N2_4 1_555 1_555
C82_4 N3_2 1_555 1_555
C83_4 N5_4 1_555 1_555
H58_4 C81_4 1_555 1_555
H59_4 C82_4 1_555 1_555
H60_4 C83_4 1_555 1_555
C86_4 C46_4 1_555 1_555
C87_4 C47_4 1_555 1_555
C88_4 C48_4 1_555 1_555
H63_4 C86_4 1_555 1_555
H64_4 C87_4 1_555 1_555
H65_4 C88_4 1_555 1_555
C12_4 C13_4 1_555 1_555
C14_4 C15_4 1_555 1_555
C72_4 C77_4 1_555 1_555
C81_4 C86_4 1_555 1_555
C82_4 C87_4 1_555 1_555
C83_4 C88_4 1_555 1_555
Ni6_2 O4_4 1_555 1_555
O9_2 Ni6_2 1_555 1_555
O12_4 Ni6_2 1_555 1_555
C17_4 C22_4 1_555 1_555
C22_4 C37_4 1_555 1_555
C26_4 H13_4 1_555 1_555
C31_4 H18_4 1_555 1_555
C57_4 C37_4 1_555 1_555
H29_4 C57_4 1_555 1_555
H33_4 C61_4 1_555 1_555
H69_4 O12_4 1_555 1_555
C26_4 C41_4 1_555 1_555
C31_4 C61_4 1_555 1_555
C41_4 C52_4 1_555 1_555
C52_4 C57_4 1_555 1_555
C16_4 C21_4 1_555 1_555
C21_4 C36_4 1_555 1_555
C56_4 C36_4 1_555 1_555
H28_4 C56_4 1_555 1_555
C68_4 O13_4 1_555 1_555
C70_4 O15_4 1_555 1_555
H39_4 C67_4 1_555 1_555
H40_4 C68_4 1_555 1_555
H41_4 C69_4 1_555 1_555
H42_4 C70_4 1_555 1_555
H44_4 C67_4 1_555 1_555
H45_4 C68_4 1_555 1_555
H46_4 C69_4 1_555 1_555
H47_4 C70_4 1_555 1_555
C42_4 C51_4 1_555 1_555
C51_4 C56_4 1_555 1_555
C67_4 C68_4 1_555 1_555
C69_4 C70_4 1_555 1_555
C3_4 H1_4 1_555 1_555
Ni8_2 O5_2 1_555 1_555
C32_4 H19_4 1_555 1_555
H34_4 C62_4 1_555 1_555
C32_4 C62_4 1_555 1_555
Ni7_2 O1_4 1_555 1_555
O1_4 C1_4 1_555 1_555
O2_4 Ni7_2 1_555 1_555
C1_4 C2_4 1_555 1_555
C2_4 C5_4 1_555 1_555
C4_4 H2_4 1_555 1_555
C8_4 C4_4 1_555 1_555
C9_4 C5_4 1_555 1_555
H4_4 C9_4 1_555 1_555
C10_4 C2_4 1_555 1_555
H5_4 C10_4 1_555 1_555
C11_4 O2_4 1_555 1_555
H6_4 C11_4 1_555 1_555
H7_4 C11_4 1_555 1_555
H12_4 O2_4 1_555 1_555
Ni8_2 O7_4 1_555 1_555
O6_4 Ni7_2 1_555 1_555
O7_4 C19_4 1_555 1_555
O9_2 C20_4 1_555 1_555
O11_4 Ni7_2 1_555 1_555
O14_4 Ni8_2 1_555 1_555
O18_4 C18_4 1_555 1_555
O19_4 C19_4 1_555 1_555
O20_4 C20_4 1_555 1_555
C18_4 O6_4 1_555 1_555
C19_4 C24_4 1_555 1_555
C20_4 C25_4 1_555 1_555
C23_4 C18_4 1_555 1_555
C24_4 C39_4 1_555 1_555
C25_4 C40_4 1_555 1_555
C27_4 C6_4 1_555 1_555
C28_4 H15_4 1_555 1_555
C29_4 H16_4 1_555 1_555
C30_4 H17_4 1_555 1_555
H14_4 C27_4 1_555 1_555
C38_4 C23_4 1_555 1_555
C39_4 H26_4 1_555 1_555
C40_4 H27_4 1_555 1_555
H25_4 C38_4 1_555 1_555
C43_4 C28_4 1_555 1_555
C44_4 C28_4 1_555 1_555
C45_4 C29_4 1_555 1_555
C53_4 C33_4 1_555 1_555
C54_4 C34_4 1_555 1_555
C55_4 C35_4 1_555 1_555
C58_4 C38_4 1_555 1_555
C59_4 C39_4 1_555 1_555
C60_4 C40_4 1_555 1_555
H30_4 C58_4 1_555 1_555
H31_4 C59_4 1_555 1_555
H32_4 C60_4 1_555 1_555
C63_4 C23_4 1_555 1_555
C64_4 C24_4 1_555 1_555
C65_4 C25_4 1_555 1_555
H35_4 C63_4 1_555 1_555
H36_4 C64_4 1_555 1_555
H37_4 C65_4 1_555 1_555
C66_4 C11_4 1_555 1_555
H38_4 C66_4 1_555 1_555
H43_4 C66_4 1_555 1_555
H71_4 O14_4 1_555 1_555
C4_4 C10_4 1_555 1_555
C6_4 C8_4 1_555 1_555
C8_4 C9_4 1_555 1_555
O11_4 C66_4 1_555 1_555
C29_4 C44_4 1_555 1_555
C30_4 C43_4 1_555 1_555
C30_4 C45_4 1_555 1_555
C33_4 C63_4 1_555 1_555
C34_4 C64_4 1_555 1_555
C35_4 C65_4 1_555 1_555
C43_4 C53_4 1_555 1_555
C44_4 C55_4 1_555 1_555
C45_4 C54_4 1_555 1_555
C53_4 C58_4 1_555 1_555
C54_4 C59_4 1_555 1_555
C55_4 C60_4 1_555 1_555
Ni6_3 N2_5 1_555 1_555
Ni8_3 N9_5 1_555 1_555
N2_5 C76_5 1_555 1_555
N9_5 C80_5 1_555 1_555
C50_5 C75_5 1_555 1_555
C71_5 C46_5 1_555 1_555
C75_5 H52_5 1_555 1_555
H48_5 C71_5 1_555 1_555
C76_5 C71_5 1_555 1_555
C80_5 C75_5 1_555 1_555
H53_5 C76_5 1_555 1_555
H57_5 C80_5 1_555 1_555
C85_5 N9_5 1_555 1_555
H62_5 C85_5 1_555 1_555
C90_5 C50_5 1_555 1_555
C85_5 C90_5 1_555 1_555
C11_5 O2_5 1_555 1_555
H6_5 C11_5 1_555 1_555
H7_5 C11_5 1_555 1_555
H10_5 C14_5 1_555 1_555
H12_5 O2_5 1_555 1_555
Ni4_3 O7_5 1_555 1_555
Ni5_3 O8_3 1_555 1_555
O7_5 C19_5 1_555 1_555
O8_3 C20_5 1_555 1_555
O10_3 Ni4_3 1_555 1_555
O14_5 Ni4_3 1_555 1_555
O15_5 Ni4_3 1_555 1_555
O18_5 C18_5 1_555 1_555
O19_5 C19_5 1_555 1_555
O20_5 C20_5 1_555 1_555
N7_3 Ni4_3 1_555 1_555
N8_3 Ni4_3 1_555 1_555
C18_5 O6_5 1_555 1_555
C19_5 C24_5 1_555 1_555
C20_5 C25_5 1_555 1_555
C23_5 C18_5 1_555 1_555
C24_5 C39_5 1_555 1_555
C25_5 C40_5 1_555 1_555
C28_5 H15_5 1_555 1_555
C29_5 H16_5 1_555 1_555
C30_5 H17_5 1_555 1_555
C33_5 H20_5 1_555 1_555
C34_5 H21_5 1_555 1_555
C35_5 H22_5 1_555 1_555
C38_5 C23_5 1_555 1_555
C39_5 H26_5 1_555 1_555
C40_5 H27_5 1_555 1_555
H25_5 C38_5 1_555 1_555
C43_5 C28_5 1_555 1_555
C44_5 C28_5 1_555 1_555
C45_5 C29_5 1_555 1_555
C53_5 C33_5 1_555 1_555
C54_5 C34_5 1_555 1_555
C55_5 C35_5 1_555 1_555
C58_5 C38_5 1_555 1_555
C59_5 C39_5 1_555 1_555
C60_5 C40_5 1_555 1_555
H30_5 C58_5 1_555 1_555
H31_5 C59_5 1_555 1_555
H32_5 C60_5 1_555 1_555
C63_5 C23_5 1_555 1_555
C64_5 C24_5 1_555 1_555
C65_5 C25_5 1_555 1_555
H35_5 C63_5 1_555 1_555
H36_5 C64_5 1_555 1_555
H37_5 C65_5 1_555 1_555
C69_5 O14_5 1_555 1_555
C70_5 O15_5 1_555 1_555
H41_5 C69_5 1_555 1_555
H42_5 C70_5 1_555 1_555
H46_5 C69_5 1_555 1_555
H47_5 C70_5 1_555 1_555
C74_5 C49_5 1_555 1_555
H51_5 C74_5 1_555 1_555
C79_5 N7_3 1_555 1_555
H56_5 C79_5 1_555 1_555
C84_5 N7_3 1_555 1_555
H61_5 C84_5 1_555 1_555
C89_5 C49_5 1_555 1_555
H71_5 O14_5 1_555 1_555
H72_5 O15_5 1_555 1_555
C14_5 C15_5 1_555 1_555
C29_5 C44_5 1_555 1_555
C30_5 C43_5 1_555 1_555
C30_5 C45_5 1_555 1_555
C33_5 C63_5 1_555 1_555
C34_5 C64_5 1_555 1_555
C35_5 C65_5 1_555 1_555
C43_5 C53_5 1_555 1_555
C44_5 C55_5 1_555 1_555
C45_5 C54_5 1_555 1_555
C53_5 C58_5 1_555 1_555
C54_5 C59_5 1_555 1_555
C55_5 C60_5 1_555 1_555
C69_5 C70_5 1_555 1_555
C74_5 C79_5 1_555 1_555
C84_5 C89_5 1_555 1_555
H58_5 C81_5 1_555 1_555
H60_5 C83_5 1_555 1_555
C81_5 C86_5 1_555 1_555
C83_5 C88_5 1_555 1_555
Ni1_3 O1_5 1_555 1_555
O1_5 C1_5 1_555 1_555
O3_5 C1_5 1_555 1_555
N1_3 Ni1_3 1_555 1_555
C1_5 C2_5 1_555 1_555
C2_5 C5_5 1_555 1_555
C3_5 H1_5 1_555 1_555
C4_5 H2_5 1_555 1_555
C5_5 H3_5 1_555 1_555
C6_5 C3_5 1_555 1_555
C7_5 C12_5 1_555 1_555
C8_5 C4_5 1_555 1_555
C9_5 C5_5 1_555 1_555
H4_5 C9_5 1_555 1_555
C10_5 C2_5 1_555 1_555
H5_5 C10_5 1_555 1_555
C12_5 H8_5 1_555 1_555
C13_5 N1_3 1_555 1_555
H9_5 C13_5 1_555 1_555
Ni2 O4_5 1_555 1_555
O4_5 C16_5 1_555 1_555
O10_3 C17_5 1_555 1_555
O11_5 Ni1_3 1_555 1_555
O13_5 Ni2 1_555 1_555
O16_5 C16_5 1_555 1_555
O17_5 C17_5 1_555 1_555
N4_3 Ni2 1_555 1_555
C16_5 C21_5 1_555 1_555
C17_5 C22_5 1_555 1_555
C21_5 C36_5 1_555 1_555
C22_5 C37_5 1_555 1_555
C26_5 H13_5 1_555 1_555
C27_5 C6_5 1_555 1_555
H14_5 C27_5 1_555 1_555
C31_5 H18_5 1_555 1_555
C32_5 H19_5 1_555 1_555
C36_5 H23_5 1_555 1_555
C37_5 H24_5 1_555 1_555
C41_5 C3_5 1_555 1_555
C42_5 C26_5 1_555 1_555
C51_5 C31_5 1_555 1_555
C52_5 C32_5 1_555 1_555
C56_5 C36_5 1_555 1_555
C57_5 C37_5 1_555 1_555
H28_5 C56_5 1_555 1_555
H29_5 C57_5 1_555 1_555
C61_5 C21_5 1_555 1_555
C62_5 C22_5 1_555 1_555
H33_5 C61_5 1_555 1_555
H34_5 C62_5 1_555 1_555
C68_5 O13_5 1_555 1_555
H38_5 C66_5 1_555 1_555
H40_5 C68_5 1_555 1_555
H43_5 C66_5 1_555 1_555
H45_5 C68_5 1_555 1_555
C72_5 C47_5 1_555 1_555
H49_5 C72_5 1_555 1_555
C77_5 N4_3 1_555 1_555
H54_5 C77_5 1_555 1_555
H68_5 O11_5 1_555 1_555
H70_5 O13_5 1_555 1_555
C4_5 C10_5 1_555 1_555
C6_5 C8_5 1_555 1_555
C8_5 C9_5 1_555 1_555
C12_5 C13_5 1_555 1_555
O11_5 C66_5 1_555 1_555
C26_5 C41_5 1_555 1_555
C27_5 C42_5 1_555 1_555
C31_5 C61_5 1_555 1_555
C32_5 C62_5 1_555 1_555
C41_5 C52_5 1_555 1_555
C42_5 C51_5 1_555 1_555
C51_5 C56_5 1_555 1_555
C52_5 C57_5 1_555 1_555
C72_5 C77_5 1_555 1_555
N5_5 C78_5 1_555 1_555
C48_5 C73_5 1_555 1_555
C73_5 H50_5 1_555 1_555
C78_5 C73_5 1_555 1_555
H55_5 C78_5 1_555 1_555
C67_5 O12_5 1_555 1_555
H39_5 C67_5 1_555 1_555
H44_5 C67_5 1_555 1_555
H59_5 C82_5 1_555 1_555
H69_5 O12_5 1_555 1_555
C82_5 C87_5 1_555 1_555
H10_6 C14_6 1_555 1_555
H11_6 C15_6 1_555 1_555
Ni7_3 N2_6 1_555 1_555
Ni8_3 N9_6 1_555 1_555
N2_6 C76_6 1_555 1_555
N9_6 C80_6 1_555 1_555
C49_6 C50_6 1_555 1_555
C50_6 C75_6 1_555 1_555
C71_6 C46_6 1_555 1_555
C74_6 C49_6 1_555 1_555
C75_6 H52_6 1_555 1_555
H48_6 C71_6 1_555 1_555
H51_6 C74_6 1_555 1_555
C76_6 C71_6 1_555 1_555
C79_6 N8_3 1_555 1_555
C80_6 C75_6 1_555 1_555
H53_6 C76_6 1_555 1_555
H56_6 C79_6 1_555 1_555
H57_6 C80_6 1_555 1_555
C84_6 N8_3 1_555 1_555
C85_6 N9_6 1_555 1_555
H61_6 C84_6 1_555 1_555
H62_6 C85_6 1_555 1_555
C89_6 C49_6 1_555 1_555
C90_6 C50_6 1_555 1_555
H66_6 C89_6 1_555 1_555
H67_6 C90_6 1_555 1_555
C14_6 C15_6 1_555 1_555
C74_6 C79_6 1_555 1_555
C84_6 C89_6 1_555 1_555
C85_6 C90_6 1_555 1_555
N6_3 Ni5_3 1_555 1_555
C7_6 C12_6 1_555 1_555
C12_6 H8_6 1_555 1_555
C13_6 N6_3 1_555 1_555
H9_6 C13_6 1_555 1_555
Ni2_2 O6_5 1_555 1_555
O12_5 Ni5_3 1_555 1_555
O2_5 Ni2_2 1_555 1_555
N3_3 Ni2_2 1_555 1_555
C72_6 C47_6 1_555 1_555
H49_6 C72_6 1_555 1_555
C77_6 N3_3 1_555 1_555
H54_6 C77_6 1_555 1_555
H58_6 C81_6 1_555 1_555
H60_6 C83_6 1_555 1_555
H63_6 C86_6 1_555 1_555
H65_6 C88_6 1_555 1_555
C12_6 C13_6 1_555 1_555
C72_6 C77_6 1_555 1_555
C81_6 C86_6 1_555 1_555
C83_6 C88_6 1_555 1_555
N5_6 C78_6 1_555 1_555
C48_6 C73_6 1_555 1_555
C73_6 H50_6 1_555 1_555
C78_6 C73_6 1_555 1_555
H55_6 C78_6 1_555 1_555
H59_6 C82_6 1_555 1_555
H64_6 C87_6 1_555 1_555
C82_6 C87_6 1_555 1_555
Ni6_4 N5_6 1_555 1_555
Ni8_4 N5_5 1_555 1_555
C67_6 O12_6 1_555 1_555
H39_6 C67_6 1_555 1_555
H44_6 C67_6 1_555 1_555
H69_6 O12_6 1_555 1_555
Ni6_3 O1_6 1_555 1_555
O1_6 C1_6 1_555 1_555
O3_6 C1_6 1_555 1_555
C1_6 C2_6 1_555 1_555
C2_6 C5_6 1_555 1_555
C3_6 H1_6 1_555 1_555
C4_6 H2_6 1_555 1_555
C5_6 H3_6 1_555 1_555
C6_6 C3_6 1_555 1_555
C8_6 C4_6 1_555 1_555
C9_6 C5_6 1_555 1_555
H4_6 C9_6 1_555 1_555
C10_6 C2_6 1_555 1_555
H5_6 C10_6 1_555 1_555
Ni8_4 O4_6 1_555 1_555
Ni8_3 O5_3 1_555 1_555
O4_6 C16_6 1_555 1_555
O5_3 C17_6 1_555 1_555
O11_6 Ni6_3 1_555 1_555
O13_6 Ni8_4 1_555 1_555
O16_6 C16_6 1_555 1_555
O17_6 C17_6 1_555 1_555
C16_6 C21_6 1_555 1_555
C17_6 C22_6 1_555 1_555
C21_6 C36_6 1_555 1_555
C22_6 C37_6 1_555 1_555
C26_6 H13_6 1_555 1_555
C27_6 C6_6 1_555 1_555
H14_6 C27_6 1_555 1_555
C31_6 H18_6 1_555 1_555
C32_6 H19_6 1_555 1_555
C36_6 H23_6 1_555 1_555
C37_6 H24_6 1_555 1_555
C41_6 C3_6 1_555 1_555
C42_6 C26_6 1_555 1_555
C51_6 C31_6 1_555 1_555
C52_6 C32_6 1_555 1_555
C56_6 C36_6 1_555 1_555
C57_6 C37_6 1_555 1_555
H28_6 C56_6 1_555 1_555
H29_6 C57_6 1_555 1_555
C61_6 C21_6 1_555 1_555
C62_6 C22_6 1_555 1_555
H33_6 C61_6 1_555 1_555
H34_6 C62_6 1_555 1_555
C68_6 O13_6 1_555 1_555
H38_6 C66_6 1_555 1_555
H40_6 C68_6 1_555 1_555
H43_6 C66_6 1_555 1_555
H45_6 C68_6 1_555 1_555
H68_6 O11_6 1_555 1_555
H70_6 O13_6 1_555 1_555
C4_6 C10_6 1_555 1_555
C6_6 C8_6 1_555 1_555
C8_6 C9_6 1_555 1_555
O11_6 C66_6 1_555 1_555
C26_6 C41_6 1_555 1_555
C27_6 C42_6 1_555 1_555
C31_6 C61_6 1_555 1_555
C32_6 C62_6 1_555 1_555
C41_6 C52_6 1_555 1_555
C42_6 C51_6 1_555 1_555
C51_6 C56_6 1_555 1_555
C52_6 C57_6 1_555 1_555
C11_6 O2_6 1_555 1_555
H6_6 C11_6 1_555 1_555
H7_6 C11_6 1_555 1_555
H12_6 O2_6 1_555 1_555
Ni8_3 O7_6 1_555 1_555
Ni7_3 O9_3 1_555 1_555
O7_6 C19_6 1_555 1_555
O9_3 C20_6 1_555 1_555
O14_6 Ni8_3 1_555 1_555
O15_6 Ni8_3 1_555 1_555
O18_6 C18_6 1_555 1_555
O19_6 C19_6 1_555 1_555
O20_6 C20_6 1_555 1_555
C18_6 O6_6 1_555 1_555
C19_6 C24_6 1_555 1_555
C20_6 C25_6 1_555 1_555
C23_6 C18_6 1_555 1_555
C24_6 C39_6 1_555 1_555
C25_6 C40_6 1_555 1_555
C28_6 H15_6 1_555 1_555
C29_6 H16_6 1_555 1_555
C30_6 H17_6 1_555 1_555
C33_6 H20_6 1_555 1_555
C34_6 H21_6 1_555 1_555
C35_6 H22_6 1_555 1_555
C38_6 C23_6 1_555 1_555
C39_6 H26_6 1_555 1_555
C40_6 H27_6 1_555 1_555
H25_6 C38_6 1_555 1_555
C43_6 C28_6 1_555 1_555
C44_6 C28_6 1_555 1_555
C45_6 C29_6 1_555 1_555
C53_6 C33_6 1_555 1_555
C54_6 C34_6 1_555 1_555
C55_6 C35_6 1_555 1_555
C58_6 C38_6 1_555 1_555
C59_6 C39_6 1_555 1_555
C60_6 C40_6 1_555 1_555
H30_6 C58_6 1_555 1_555
H31_6 C59_6 1_555 1_555
H32_6 C60_6 1_555 1_555
C63_6 C23_6 1_555 1_555
C64_6 C24_6 1_555 1_555
C65_6 C25_6 1_555 1_555
H35_6 C63_6 1_555 1_555
H36_6 C64_6 1_555 1_555
H37_6 C65_6 1_555 1_555
C69_6 O14_6 1_555 1_555
C70_6 O15_6 1_555 1_555
H41_6 C69_6 1_555 1_555
H42_6 C70_6 1_555 1_555
H46_6 C69_6 1_555 1_555
H47_6 C70_6 1_555 1_555
H71_6 O14_6 1_555 1_555
H72_6 O15_6 1_555 1_555
C29_6 C44_6 1_555 1_555
C30_6 C43_6 1_555 1_555
C30_6 C45_6 1_555 1_555
C33_6 C63_6 1_555 1_555
C34_6 C64_6 1_555 1_555
C35_6 C65_6 1_555 1_555
C43_6 C53_6 1_555 1_555
C44_6 C55_6 1_555 1_555
C45_6 C54_6 1_555 1_555
C53_6 C58_6 1_555 1_555
C54_6 C59_6 1_555 1_555
C55_6 C60_6 1_555 1_555
C69_6 C70_6 1_555 1_555
Ni6_4 O6_6 1_555 1_555
O12_6 Ni7_3 1_555 1_555
O2_6 Ni6_4 1_555 1_555

#END
