
###############################################################################
#
# This file contains modified crystal structure data generated from the
# MOF subset of the Cambridge Structural Database (CSD) v543 
# hosted by the Cambridge Crystallographic Data Centre (CCDC).
#
# This work is licensed under the Creative Commons
# Attribution-NonCommercial-ShareAlike 4.0 International License.
# To view a copy of this license, visit
# http://creativecommons.org/licenses/by-nc-sa/4.0/
# or send a letter to
# Creative Commons, PO Box 1866, Mountain View, CA 94042, USA.
#
# CIF created using the CSD Python API on 29 September 2022
# The structure has been converted into the P1 space group
# The structure has a 3D framework
# The original CSD entry KOLYUH is in the tetragonal crystal system
# The framework has been calculated to contain at least 10.0% void space
# The void calculation uses a probe of radius 1.32A, grid spacing 0.4
# The framework is charged, counterions have been retained in the structure
#
###############################################################################

data_KOLYUH
_chemical_formula_moiety         '(C288 H224 B16 Cu12 F64 N96 O16 8+)n'
_symmetry_cell_setting           triclinic
_symmetry_space_group_name_H-M   'P 1'
_symmetry_Int_Tables_number      1
_space_group_name_Hall           'P 1'
loop_
_symmetry_equiv_pos_site_id
_symmetry_equiv_pos_as_xyz
1 x,y,z
_cell_length_a                   14.3290(12)
_cell_length_b                   14.3290(12)
_cell_length_c                   44.554(4)
_cell_angle_alpha                90
_cell_angle_beta                 90
_cell_angle_gamma                90
_cell_volume                     9147.84
loop_
_atom_site_label
_atom_site_type_symbol
_atom_site_fract_x
_atom_site_fract_y
_atom_site_fract_z
H24 H 0.0587 0.1200 0.4906
Cu3 Cu -0.0000 0.2500 0.333288(8)
Cu1 Cu 0.5000 0.2500 0.583288(8)
O1 O 0.60799(13) 0.37520(14) 0.58273(4)
H1 H 0.6478 0.3824 0.5688
H2 H 0.6308 0.3934 0.5993
N1 N 0.43093(14) 0.32087(13) 0.55079(4)
N2 N 0.38603(17) 0.44426(15) 0.52370(5)
N3 N 0.35463(14) 0.36349(13) 0.51098(4)
N4 N 0.14068(14) 0.37139(13) 0.40482(4)
N5 N 0.1138(2) 0.45179(16) 0.39113(5)
N6 N 0.06473(14) 0.32718(14) 0.36528(4)
C1 C 0.4307(2) 0.41489(17) 0.54756(6)
H3 H 0.4603 0.4559 0.5614
C2 C 0.38188(18) 0.29107(16) 0.52731(5)
H4 H 0.3684 0.2276 0.5229
C3 C 0.29987(17) 0.36550(15) 0.48377(5)
C4 C 0.34715(17) 0.36739(15) 0.45646(5)
C5 C 0.44595(17) 0.36514(17) 0.45384(6)
H5 H 0.4832 0.3610 0.4714
C6 C 0.48805(19) 0.36886(19) 0.42635(6)
H6 H 0.5541 0.3656 0.4249
C7 C 0.4337(2) 0.37753(19) 0.40009(6)
H7 H 0.4639 0.3830 0.3812
C8 C 0.33947(19) 0.37815(17) 0.40127(5)
H8 H 0.3045 0.3827 0.3832
C9 C 0.29165(17) 0.37209(15) 0.42949(5)
C10 C 0.19494(17) 0.37160(15) 0.43212(5)
C11 C 0.14802(17) 0.37083(16) 0.45951(5)
C12 C 0.04860(19) 0.3750(2) 0.46197(6)
H9 H 0.0113 0.3759 0.4443
C13 C 0.0074(2) 0.3774(3) 0.48925(7)
C14 C 0.0616(2) 0.3763(3) 0.51590(6)
H11 H 0.0312 0.3790 0.5348
C15 C 0.1559(2) 0.3714(2) 0.51485(6)
H12 H 0.1909 0.3699 0.5329
C16 C 0.20302(18) 0.36856(17) 0.48647(5)
C17 C 0.11075(17) 0.29821(16) 0.38925(5)
H13 H 0.1209 0.2348 0.3945
C18 C 0.0689(2) 0.42144(19) 0.36740(6)
H14 H 0.0416 0.4620 0.3530
O2 O 0.39201(13) 0.12480(14) 0.58273(4)
H15 H 0.3522 0.1176 0.5688
H16 H 0.3692 0.1066 0.5993
N7 N 0.56907(14) 0.17913(13) 0.55079(4)
N8 N 0.61397(17) 0.05574(15) 0.52370(5)
N9 N 0.64537(14) 0.13651(13) 0.51098(4)
N10 N 0.85932(14) 0.12861(13) 0.40482(4)
N11 N 0.8862(2) 0.04821(16) 0.39113(5)
N12 N 0.93527(14) 0.17282(14) 0.36528(4)
C19 C 0.5693(2) 0.08511(17) 0.54756(6)
H17 H 0.5397 0.0441 0.5614
C20 C 0.61812(18) 0.20893(16) 0.52731(5)
H18 H 0.6316 0.2724 0.5229
C21 C 0.70013(17) 0.13450(15) 0.48377(5)
C22 C 0.65285(17) 0.13261(15) 0.45646(5)
C23 C 0.55405(17) 0.13486(17) 0.45384(6)
H19 H 0.5168 0.1390 0.4714
C24 C 0.51195(19) 0.13114(19) 0.42635(6)
H20 H 0.4459 0.1344 0.4249
C25 C 0.5663(2) 0.12247(19) 0.40009(6)
H21 H 0.5361 0.1170 0.3812
C26 C 0.66053(19) 0.12185(17) 0.40127(5)
H22 H 0.6955 0.1173 0.3832
C27 C 0.70835(17) 0.12791(15) 0.42949(5)
C28 C 0.80506(17) 0.12840(15) 0.43212(5)
C29 C 0.85198(17) 0.12917(16) 0.45951(5)
C30 C 0.95140(19) 0.1250(2) 0.46197(6)
H23 H 0.9887 0.1241 0.4443
C31 C 0.9926(2) 0.1226(3) 0.48925(7)
C32 C 0.9384(2) 0.1237(3) 0.51590(6)
H25 H 0.9688 0.1210 0.5348
C33 C 0.8441(2) 0.1286(2) 0.51485(6)
H26 H 0.8091 0.1301 0.5329
C34 C 0.79698(18) 0.13144(17) 0.48647(5)
C35 C 0.88925(17) 0.20179(16) 0.38925(5)
H27 H 0.8791 0.2652 0.3945
C36 C 0.9311(2) 0.07856(19) 0.36740(6)
H28 H 0.9584 0.0380 0.3530
Cu3_2 Cu 1.0000 0.2500 0.333288(8)
N13 N 0.42282(14) 0.31473(14) 0.61528(4)
N14 N 0.57718(14) 0.18527(14) 0.61528(4)
H10 H 0.9413 0.3800 0.4906
Cu1_2 Cu 0.0000 0.7500 0.083288(8)
N1_2 N 0.06907(14) 0.67913(13) 0.05079(4)
N2_2 N 0.11397(17) 0.55574(15) 0.02370(5)
N3_2 N 0.14537(14) 0.63651(13) 0.01098(4)
C1_2 C 0.0693(2) 0.58511(17) 0.04756(6)
H3_2 H 0.0397 0.5441 0.0614
C2_2 C 0.11812(18) 0.70893(16) 0.02731(5)
H4_2 H 0.1316 0.7724 0.0229
C14_2 C 0.4384(2) 0.6237(3) 0.01590(6)
H11_2 H 0.4688 0.6210 0.0348
C15_2 C 0.3441(2) 0.6286(2) 0.01485(6)
H12_2 H 0.3091 0.6301 0.0329
O2_2 O 0.10799(13) 0.87520(14) 0.08273(4)
H15_2 H 0.1478 0.8824 0.0688
H16_2 H 0.1308 0.8934 0.0993
N13_2 N 0.07718(14) 0.68527(14) 0.11528(4)
N4_2 N 0.35932(14) 0.62861(13) 0.90482(4)
N5_2 N 0.3862(2) 0.54821(16) 0.89113(5)
N6_2 N 0.43527(14) 0.67282(14) 0.86528(4)
C3_2 C 0.20013(17) 0.63450(15) 0.98377(5)
C4_2 C 0.15285(17) 0.63261(15) 0.95646(5)
C5_2 C 0.05405(17) 0.63486(17) 0.95384(6)
H5_2 H 0.0168 0.6390 0.9714
C6_2 C 0.01195(19) 0.63114(19) 0.92635(6)
C7_2 C 0.0663(2) 0.62247(19) 0.90009(6)
H7_2 H 0.0361 0.6170 0.8812
C8_2 C 0.16053(19) 0.62185(17) 0.90127(5)
H8_2 H 0.1955 0.6173 0.8832
C9_2 C 0.20835(17) 0.62791(15) 0.92949(5)
C10_2 C 0.30506(17) 0.62840(15) 0.93212(5)
C11_2 C 0.35198(17) 0.62917(16) 0.95951(5)
C12_2 C 0.45140(19) 0.6250(2) 0.96197(6)
H9_2 H 0.4887 0.6241 0.9443
C13_2 C 0.4926(2) 0.6226(3) 0.98925(7)
H10_2 H 0.5587 0.6200 0.9906
C16_2 C 0.29698(18) 0.63144(17) 0.98647(5)
C17_2 C 0.38925(17) 0.70179(16) 0.88925(5)
H13_2 H 0.3791 0.7652 0.8945
C18_2 C 0.4311(2) 0.57856(19) 0.86740(6)
H14_2 H 0.4584 0.5380 0.8530
H20_2 H 0.0541 0.8656 0.9249
Cu2 Cu 0.5000 0.7500 0.833288(8)
Cu1_3 Cu 1.0000 0.7500 0.083288(8)
O1_2 O 0.89201(13) 0.62480(14) 0.08273(4)
H1_2 H 0.8522 0.6176 0.0688
H2_2 H 0.8692 0.6066 0.0993
N7_2 N 0.93093(14) 0.82087(13) 0.05079(4)
N8_2 N 0.88603(17) 0.94426(15) 0.02370(5)
N9_2 N 0.85463(14) 0.86349(13) 0.01098(4)
C19_2 C 0.9307(2) 0.91489(17) 0.04756(6)
H17_2 H 0.9603 0.9559 0.0614
C20_2 C 0.88188(18) 0.79107(16) 0.02731(5)
H18_2 H 0.8684 0.7276 0.0229
C32_2 C 0.5616(2) 0.8763(3) 0.01590(6)
H25_2 H 0.5312 0.8790 0.0348
C33_2 C 0.6559(2) 0.8714(2) 0.01485(6)
H26_2 H 0.6909 0.8699 0.0329
N14_2 N 0.92282(14) 0.81473(14) 0.11528(4)
H6_2 H 0.9459 0.6344 0.9249
N10_2 N 0.64068(14) 0.87139(13) 0.90482(4)
N11_2 N 0.6138(2) 0.95179(16) 0.89113(5)
N12_2 N 0.56473(14) 0.82718(14) 0.86528(4)
C21_2 C 0.79987(17) 0.86550(15) 0.98377(5)
C22_2 C 0.84715(17) 0.86739(15) 0.95646(5)
C23_2 C 0.94595(17) 0.86514(17) 0.95384(6)
H19_2 H 0.9832 0.8610 0.9714
C24_2 C 0.98805(19) 0.86886(19) 0.92635(6)
C25_2 C 0.9337(2) 0.87753(19) 0.90009(6)
H21_2 H 0.9639 0.8830 0.8812
C26_2 C 0.83947(19) 0.87815(17) 0.90127(5)
H22_2 H 0.8045 0.8827 0.8832
C27_2 C 0.79165(17) 0.87209(15) 0.92949(5)
C28_2 C 0.69494(17) 0.87160(15) 0.93212(5)
C29_2 C 0.64802(17) 0.87083(16) 0.95951(5)
C30_2 C 0.54860(19) 0.8750(2) 0.96197(6)
H23_2 H 0.5113 0.8759 0.9443
C31_2 C 0.5074(2) 0.8774(3) 0.98925(7)
H24_2 H 0.4413 0.8800 0.9906
C34_2 C 0.70302(18) 0.86856(17) 0.98647(5)
C35_2 C 0.61075(17) 0.79821(16) 0.88925(5)
H27_2 H 0.6209 0.7348 0.8945
C36_2 C 0.5689(2) 0.92144(19) 0.86740(6)
H28_2 H 0.5416 0.9620 0.8530
N10_3 N 0.62139(13) 0.10932(14) 0.65482(4)
N11_3 N 0.70179(16) 0.1362(2) 0.64113(5)
C28_3 C 0.62160(15) 0.05506(17) 0.68212(5)
C29_3 C 0.62083(16) 0.10198(17) 0.70951(5)
C30_3 C 0.6250(2) 0.20140(19) 0.71197(6)
H23_3 H 0.6259 0.2387 0.6943
C31_3 C 0.6274(3) 0.2426(2) 0.73925(7)
H24_3 H 0.6300 0.3087 0.7406
C32_3 C 0.6263(3) 0.1884(2) 0.76590(6)
H25_3 H 0.6290 0.2188 0.7848
C33_3 C 0.6214(2) 0.0941(2) 0.76485(6)
H26_3 H 0.6199 0.0591 0.7829
C34_3 C 0.61856(17) 0.04698(18) 0.73647(5)
C35_3 C 0.54821(16) 0.13925(17) 0.63925(5)
H27_3 H 0.4848 0.1291 0.6445
C36_3 C 0.67144(19) 0.1811(2) 0.61740(6)
H28_3 H 0.7120 0.2084 0.6030
O1_3 O 0.37480(14) 0.85799(13) 0.83273(4)
H1_3 H 0.3676 0.8978 0.8188
H2_3 H 0.3566 0.8808 0.8493
N1_3 N 0.42913(13) 0.68093(14) 0.80079(4)
N2_3 N 0.30574(15) 0.63603(17) 0.77370(5)
N3_3 N 0.38651(13) 0.60463(14) 0.76098(4)
N4_3 N 0.37861(13) 0.39068(14) 0.65482(4)
N5_3 N 0.29821(16) 0.3638(2) 0.64113(5)
C1_3 C 0.33511(17) 0.6807(2) 0.79756(6)
H3_3 H 0.2941 0.7103 0.8114
C2_3 C 0.45893(16) 0.63188(18) 0.77731(5)
H4_3 H 0.5224 0.6184 0.7729
C3_3 C 0.38450(15) 0.54987(17) 0.73377(5)
C4_3 C 0.38261(15) 0.59715(17) 0.70646(5)
C5_3 C 0.38486(17) 0.69595(17) 0.70384(6)
H5_3 H 0.3890 0.7332 0.7214
C6_3 C 0.38114(19) 0.73805(19) 0.67635(6)
H6_3 H 0.3844 0.8041 0.6749
C7_3 C 0.37247(19) 0.6837(2) 0.65009(6)
H7_3 H 0.3670 0.7139 0.6312
C8_3 C 0.37185(17) 0.58947(19) 0.65127(5)
H8_3 H 0.3673 0.5545 0.6332
C9_3 C 0.37791(15) 0.54165(17) 0.67949(5)
C10_3 C 0.37840(15) 0.44494(17) 0.68212(5)
C11_3 C 0.37917(16) 0.39802(17) 0.70951(5)
C12_3 C 0.3750(2) 0.29860(19) 0.71197(6)
H9_3 H 0.3741 0.2613 0.6943
C13_3 C 0.3726(3) 0.2574(2) 0.73925(7)
H10_3 H 0.3700 0.1913 0.7406
C14_3 C 0.3737(3) 0.3116(2) 0.76590(6)
H11_3 H 0.3710 0.2812 0.7848
C15_3 C 0.3786(2) 0.4059(2) 0.76485(6)
H12_3 H 0.3801 0.4409 0.7829
C16_3 C 0.38144(17) 0.45302(18) 0.73647(5)
C17_3 C 0.45179(16) 0.36075(17) 0.63925(5)
H13_3 H 0.5152 0.3709 0.6445
C18_3 C 0.32856(19) 0.3189(2) 0.61740(6)
H14_3 H 0.2880 0.2916 0.6030
O2_3 O 0.62520(14) 0.64201(13) 0.83273(4)
H15_3 H 0.6324 0.6022 0.8188
H16_3 H 0.6434 0.6192 0.8493
N7_3 N 0.57087(13) 0.81907(14) 0.80079(4)
N8_3 N 0.69426(15) 0.86397(17) 0.77370(5)
N9_3 N 0.61349(13) 0.89537(14) 0.76098(4)
C19_3 C 0.66489(17) 0.8193(2) 0.79756(6)
H17_3 H 0.7059 0.7897 0.8114
C20_3 C 0.54107(16) 0.86812(18) 0.77731(5)
H18_3 H 0.4776 0.8816 0.7729
C21_3 C 0.61550(15) 0.95013(17) 0.73377(5)
C22_3 C 0.61739(15) 0.90285(17) 0.70646(5)
C23_3 C 0.61514(17) 0.80405(17) 0.70384(6)
H19_3 H 0.6110 0.7668 0.7214
C24_3 C 0.61886(19) 0.76195(19) 0.67635(6)
H20_3 H 0.6156 0.6959 0.6749
C25_3 C 0.62753(19) 0.8163(2) 0.65009(6)
H21_3 H 0.6330 0.7861 0.6312
C26_3 C 0.62815(17) 0.91053(19) 0.65127(5)
H22_3 H 0.6327 0.9455 0.6332
C27_3 C 0.62209(15) 0.95835(17) 0.67949(5)
O1_4 O 0.12520(14) 0.14201(13) 0.33273(4)
H1_4 H 0.1324 0.1022 0.3188
H2_4 H 0.1434 0.1192 0.3493
N1_4 N 0.07087(13) 0.31907(14) 0.30079(4)
N2_4 N 0.19426(15) 0.36397(17) 0.27370(5)
N3_4 N 0.11349(13) 0.39537(14) 0.26098(4)
N4_4 N 0.12139(13) 0.60932(14) 0.15482(4)
N5_4 N 0.20179(16) 0.6362(2) 0.14113(5)
C1_4 C 0.16489(17) 0.3193(2) 0.29756(6)
H3_4 H 0.2059 0.2897 0.3114
C2_4 C 0.04107(16) 0.36812(18) 0.27731(5)
C3_4 C 0.11550(15) 0.45013(17) 0.23377(5)
C4_4 C 0.11739(15) 0.40285(17) 0.20646(5)
C5_4 C 0.11514(17) 0.30405(17) 0.20384(6)
H5_4 H 0.1110 0.2668 0.2214
C6_4 C 0.11886(19) 0.26195(19) 0.17635(6)
H6_4 H 0.1156 0.1959 0.1749
C7_4 C 0.12753(19) 0.3163(2) 0.15009(6)
H7_4 H 0.1330 0.2861 0.1312
C8_4 C 0.12815(17) 0.41053(19) 0.15127(5)
H8_4 H 0.1327 0.4455 0.1332
C9_4 C 0.12209(15) 0.45835(17) 0.17949(5)
C10_4 C 0.12160(15) 0.55506(17) 0.18212(5)
C11_4 C 0.12083(16) 0.60198(17) 0.20951(5)
C12_4 C 0.1250(2) 0.70140(19) 0.21197(6)
H9_4 H 0.1259 0.7387 0.1943
C13_4 C 0.1274(3) 0.7426(2) 0.23925(7)
H10_4 H 0.1300 0.8087 0.2406
C14_4 C 0.1263(3) 0.6884(2) 0.26590(6)
H11_4 H 0.1290 0.7188 0.2848
C15_4 C 0.1214(2) 0.5941(2) 0.26485(6)
H12_4 H 0.1199 0.5591 0.2829
C16_4 C 0.11856(17) 0.54698(18) 0.23647(5)
C17_4 C 0.04821(16) 0.63925(17) 0.13925(5)
C18_4 C 0.17144(19) 0.6811(2) 0.11740(6)
H14_4 H 0.2120 0.7084 0.1030
H18_4 H 0.0224 0.1184 0.2729
H27_4 H 0.0152 0.8709 0.1445
H4_4 H 0.9776 0.3816 0.2729
H13_4 H 0.9848 0.6291 0.1445
O2_4 O 0.87480(14) 0.35799(13) 0.33273(4)
H15_4 H 0.8676 0.3978 0.3188
H16_4 H 0.8566 0.3808 0.3493
N7_4 N 0.92913(13) 0.18093(14) 0.30079(4)
N8_4 N 0.80574(15) 0.13603(17) 0.27370(5)
N9_4 N 0.88651(13) 0.10463(14) 0.26098(4)
C19_4 C 0.83511(17) 0.1807(2) 0.29756(6)
H17_4 H 0.7941 0.2103 0.3114
C20_4 C 0.95893(16) 0.13188(18) 0.27731(5)
C21_4 C 0.88450(15) 0.04987(17) 0.23377(5)
C22_4 C 0.88261(15) 0.09715(17) 0.20646(5)
C23_4 C 0.88486(17) 0.19595(17) 0.20384(6)
H19_4 H 0.8890 0.2332 0.2214
C24_4 C 0.88114(19) 0.23805(19) 0.17635(6)
H20_4 H 0.8844 0.3041 0.1749
C25_4 C 0.87247(19) 0.1837(2) 0.15009(6)
H21_4 H 0.8670 0.2139 0.1312
C26_4 C 0.87185(17) 0.08947(19) 0.15127(5)
H22_4 H 0.8673 0.0545 0.1332
C27_4 C 0.87791(15) 0.04165(17) 0.17949(5)
N10_4 N 0.87861(13) 0.89068(14) 0.15482(4)
N11_4 N 0.79821(16) 0.8638(2) 0.14113(5)
C28_4 C 0.87840(15) 0.94494(17) 0.18212(5)
C29_4 C 0.87917(16) 0.89802(17) 0.20951(5)
C30_4 C 0.8750(2) 0.79860(19) 0.21197(6)
H23_4 H 0.8741 0.7613 0.1943
C31_4 C 0.8726(3) 0.7574(2) 0.23925(7)
H24_4 H 0.8700 0.6913 0.2406
C32_4 C 0.8737(3) 0.8116(2) 0.26590(6)
H25_4 H 0.8710 0.7812 0.2848
C33_4 C 0.8786(2) 0.9059(2) 0.26485(6)
H26_4 H 0.8801 0.9409 0.2829
C34_4 C 0.88144(17) 0.95302(18) 0.23647(5)
C35_4 C 0.95179(16) 0.86075(17) 0.13925(5)
C36_4 C 0.82856(19) 0.8189(2) 0.11740(6)
H28_4 H 0.7880 0.7916 0.1030
H10_5 H 0.0587 0.6200 0.5094
Cu2_2 Cu -0.0000 0.7500 0.666712(8)
Cu1_4 Cu 0.5000 0.7500 0.416712(8)
O1_5 O 0.39201(13) 0.62480(14) 0.41727(4)
H1_5 H 0.3522 0.6176 0.4312
H2_5 H 0.3692 0.6066 0.4007
N1_5 N 0.56907(14) 0.67913(13) 0.44921(4)
N2_5 N 0.61397(17) 0.55574(15) 0.47630(5)
N3_5 N 0.64537(14) 0.63651(13) 0.48902(4)
N4_5 N 0.85932(14) 0.62861(13) 0.59518(4)
N5_5 N 0.8862(2) 0.54821(16) 0.60887(5)
N6_3 N 0.93527(14) 0.67282(14) 0.63472(4)
C1_5 C 0.5693(2) 0.58511(17) 0.45244(6)
H3_5 H 0.5397 0.5441 0.4386
C2_5 C 0.61812(18) 0.70893(16) 0.47269(5)
H4_5 H 0.6316 0.7724 0.4771
C3_5 C 0.70013(17) 0.63450(15) 0.51623(5)
C4_5 C 0.65285(17) 0.63261(15) 0.54354(5)
C5_5 C 0.55405(17) 0.63486(17) 0.54616(6)
H5_5 H 0.5168 0.6390 0.5286
C6_5 C 0.51195(19) 0.63114(19) 0.57365(6)
H6_5 H 0.4459 0.6344 0.5751
C7_5 C 0.5663(2) 0.62247(19) 0.59991(6)
H7_5 H 0.5361 0.6170 0.6188
C8_5 C 0.66053(19) 0.62185(17) 0.59873(5)
H8_5 H 0.6955 0.6173 0.6168
C9_5 C 0.70835(17) 0.62791(15) 0.57051(5)
C10_5 C 0.80506(17) 0.62840(15) 0.56788(5)
C11_5 C 0.85198(17) 0.62917(16) 0.54049(5)
C12_5 C 0.95140(19) 0.6250(2) 0.53803(6)
H9_5 H 0.9887 0.6241 0.5557
C13_5 C 0.9926(2) 0.6226(3) 0.51075(7)
C14_5 C 0.9384(2) 0.6237(3) 0.48410(6)
H11_5 H 0.9688 0.6210 0.4652
C15_5 C 0.8441(2) 0.6286(2) 0.48515(6)
H12_5 H 0.8091 0.6301 0.4671
C16_5 C 0.79698(18) 0.63144(17) 0.51353(5)
C17_5 C 0.88925(17) 0.70179(16) 0.61075(5)
H13_5 H 0.8791 0.7652 0.6055
C18_5 C 0.9311(2) 0.57856(19) 0.63260(6)
H14_5 H 0.9584 0.5380 0.6470
O2_5 O 0.60799(13) 0.87520(14) 0.41727(4)
H15_5 H 0.6478 0.8824 0.4312
H16_5 H 0.6308 0.8934 0.4007
N7_5 N 0.43093(14) 0.82087(13) 0.44921(4)
N8_5 N 0.38603(17) 0.94426(15) 0.47630(5)
N9_5 N 0.35463(14) 0.86349(13) 0.48902(4)
N10_5 N 0.14068(14) 0.87139(13) 0.59518(4)
N11_5 N 0.1138(2) 0.95179(16) 0.60887(5)
N12_3 N 0.06473(14) 0.82718(14) 0.63472(4)
C19_5 C 0.4307(2) 0.91489(17) 0.45244(6)
H17_5 H 0.4603 0.9559 0.4386
C20_5 C 0.38188(18) 0.79107(16) 0.47269(5)
H18_5 H 0.3684 0.7276 0.4771
C21_5 C 0.29987(17) 0.86550(15) 0.51623(5)
C22_5 C 0.34715(17) 0.86739(15) 0.54354(5)
C23_5 C 0.44595(17) 0.86514(17) 0.54616(6)
H19_5 H 0.4832 0.8610 0.5286
C24_5 C 0.48805(19) 0.86886(19) 0.57365(6)
H20_5 H 0.5541 0.8656 0.5751
C25_5 C 0.4337(2) 0.87753(19) 0.59991(6)
H21_5 H 0.4639 0.8830 0.6188
C26_5 C 0.33947(19) 0.87815(17) 0.59873(5)
H22_5 H 0.3045 0.8827 0.6168
C27_5 C 0.29165(17) 0.87209(15) 0.57051(5)
C28_5 C 0.19494(17) 0.87160(15) 0.56788(5)
C29_5 C 0.14802(17) 0.87083(16) 0.54049(5)
C30_5 C 0.04860(19) 0.8750(2) 0.53803(6)
H23_5 H 0.0113 0.8759 0.5557
C31_5 C 0.0074(2) 0.8774(3) 0.51075(7)
C32_5 C 0.0616(2) 0.8763(3) 0.48410(6)
H25_5 H 0.0312 0.8790 0.4652
C33_5 C 0.1559(2) 0.8714(2) 0.48515(6)
H26_5 H 0.1909 0.8699 0.4671
C34_5 C 0.20302(18) 0.86856(17) 0.51353(5)
C35_5 C 0.11075(17) 0.79821(16) 0.61075(5)
H27_5 H 0.1209 0.7348 0.6055
C36_5 C 0.0689(2) 0.92144(19) 0.63260(6)
H28_5 H 0.0416 0.9620 0.6470
Cu2_3 Cu 1.0000 0.7500 0.666712(8)
N13_3 N 0.57718(14) 0.68527(14) 0.38472(4)
N14_3 N 0.42282(14) 0.81473(14) 0.38472(4)
H24_5 H 0.9413 0.8800 0.5094
H6_6 H 0.0541 0.3656 0.0751
N10_6 N 0.35932(14) 0.12861(13) 0.09518(4)
N11_6 N 0.3862(2) 0.04821(16) 0.10887(5)
N12_4 N 0.43527(14) 0.17282(14) 0.13472(4)
C21_6 C 0.20013(17) 0.13450(15) 0.01623(5)
C22_6 C 0.15285(17) 0.13261(15) 0.04354(5)
C23_6 C 0.05405(17) 0.13486(17) 0.04616(6)
H19_6 H 0.0168 0.1390 0.0286
C24_6 C 0.01195(19) 0.13114(19) 0.07365(6)
C25_6 C 0.0663(2) 0.12247(19) 0.09991(6)
H21_6 H 0.0361 0.1170 0.1188
C26_6 C 0.16053(19) 0.12185(17) 0.09873(5)
H22_6 H 0.1955 0.1173 0.1168
C27_6 C 0.20835(17) 0.12791(15) 0.07051(5)
C28_6 C 0.30506(17) 0.12840(15) 0.06788(5)
C29_6 C 0.35198(17) 0.12917(16) 0.04049(5)
C30_6 C 0.45140(19) 0.1250(2) 0.03803(6)
H23_6 H 0.4887 0.1241 0.0557
C31_6 C 0.4926(2) 0.1226(3) 0.01075(7)
H24_6 H 0.5587 0.1200 0.0094
C34_6 C 0.29698(18) 0.13144(17) 0.01353(5)
C35_6 C 0.38925(17) 0.20179(16) 0.11075(5)
H27_6 H 0.3791 0.2652 0.1055
C36_6 C 0.4311(2) 0.07856(19) 0.13260(6)
H28_6 H 0.4584 0.0380 0.1470
Cu3_3 Cu 0.5000 0.2500 0.166712(8)
Cu1_5 Cu 0.0000 0.2500 0.916712(8)
O1_6 O 0.10799(13) 0.37520(14) 0.91727(4)
H1_6 H 0.1478 0.3824 0.9312
H2_6 H 0.1308 0.3934 0.9007
N7_6 N 0.06907(14) 0.17913(13) 0.94921(4)
N8_6 N 0.11397(17) 0.05574(15) 0.97630(5)
N9_6 N 0.14537(14) 0.13651(13) 0.98902(4)
C19_6 C 0.0693(2) 0.08511(17) 0.95244(6)
H17_6 H 0.0397 0.0441 0.9386
C20_6 C 0.11812(18) 0.20893(16) 0.97269(5)
H18_6 H 0.1316 0.2724 0.9771
C32_6 C 0.4384(2) 0.1237(3) 0.98410(6)
H25_6 H 0.4688 0.1210 0.9652
C33_6 C 0.3441(2) 0.1286(2) 0.98515(6)
H26_6 H 0.3091 0.1301 0.9671
N14_4 N 0.07718(14) 0.18527(14) 0.88472(4)
N4_6 N 0.64068(14) 0.37139(13) 0.09518(4)
N5_6 N 0.6138(2) 0.45179(16) 0.10887(5)
N6_4 N 0.56473(14) 0.32718(14) 0.13472(4)
C3_6 C 0.79987(17) 0.36550(15) 0.01623(5)
C4_6 C 0.84715(17) 0.36739(15) 0.04354(5)
C5_6 C 0.94595(17) 0.36514(17) 0.04616(6)
H5_6 H 0.9832 0.3610 0.0286
C6_6 C 0.98805(19) 0.36886(19) 0.07365(6)
C7_6 C 0.9337(2) 0.37753(19) 0.09991(6)
H7_6 H 0.9639 0.3830 0.1188
C8_6 C 0.83947(19) 0.37815(17) 0.09873(5)
H8_6 H 0.8045 0.3827 0.1168
C9_6 C 0.79165(17) 0.37209(15) 0.07051(5)
C10_6 C 0.69494(17) 0.37160(15) 0.06788(5)
C11_6 C 0.64802(17) 0.37083(16) 0.04049(5)
C12_6 C 0.54860(19) 0.3750(2) 0.03803(6)
H9_6 H 0.5113 0.3759 0.0557
C13_6 C 0.5074(2) 0.3774(3) 0.01075(7)
H10_6 H 0.4413 0.3800 0.0094
C16_6 C 0.70302(18) 0.36856(17) 0.01353(5)
C17_6 C 0.61075(17) 0.29821(16) 0.11075(5)
H13_6 H 0.6209 0.2348 0.1055
C18_6 C 0.5689(2) 0.42144(19) 0.13260(6)
H14_6 H 0.5416 0.4620 0.1470
H20_6 H 0.9459 0.1344 0.0751
Cu1_6 Cu 1.0000 0.2500 0.916712(8)
N1_6 N 0.93093(14) 0.32087(13) 0.94921(4)
N2_6 N 0.88603(17) 0.44426(15) 0.97630(5)
N3_6 N 0.85463(14) 0.36349(13) 0.98902(4)
C1_6 C 0.9307(2) 0.41489(17) 0.95244(6)
H3_6 H 0.9603 0.4559 0.9386
C2_6 C 0.88188(18) 0.29107(16) 0.97269(5)
H4_6 H 0.8684 0.2276 0.9771
C14_6 C 0.5616(2) 0.3763(3) 0.98410(6)
H11_6 H 0.5312 0.3790 0.9652
C15_6 C 0.6559(2) 0.3714(2) 0.98515(6)
H12_6 H 0.6909 0.3699 0.9671
O2_6 O 0.89201(13) 0.12480(14) 0.91727(4)
H15_6 H 0.8522 0.1176 0.9312
H16_6 H 0.8692 0.1066 0.9007
N13_4 N 0.92282(14) 0.31473(14) 0.88472(4)
O1_7 O 0.62520(14) 0.14201(13) 0.16727(4)
H1_7 H 0.6324 0.1022 0.1812
H2_7 H 0.6434 0.1192 0.1507
N1_7 N 0.57087(13) 0.31907(14) 0.19921(4)
N2_7 N 0.69426(15) 0.36397(17) 0.22630(5)
N3_7 N 0.61349(13) 0.39537(14) 0.23902(4)
N4_7 N 0.62139(13) 0.60932(14) 0.34518(4)
N5_7 N 0.70179(16) 0.6362(2) 0.35887(5)
C1_7 C 0.66489(17) 0.3193(2) 0.20244(6)
H3_7 H 0.7059 0.2897 0.1886
C2_7 C 0.54107(16) 0.36812(18) 0.22269(5)
H4_7 H 0.4776 0.3816 0.2271
C3_7 C 0.61550(15) 0.45013(17) 0.26623(5)
C4_7 C 0.61739(15) 0.40285(17) 0.29354(5)
C5_7 C 0.61514(17) 0.30405(17) 0.29616(6)
H5_7 H 0.6110 0.2668 0.2786
C6_7 C 0.61886(19) 0.26195(19) 0.32365(6)
H6_7 H 0.6156 0.1959 0.3251
C7_7 C 0.62753(19) 0.3163(2) 0.34991(6)
H7_7 H 0.6330 0.2861 0.3688
C8_7 C 0.62815(17) 0.41053(19) 0.34873(5)
H8_7 H 0.6327 0.4455 0.3668
C9_7 C 0.62209(15) 0.45835(17) 0.32051(5)
C10_7 C 0.62160(15) 0.55506(17) 0.31788(5)
C11_7 C 0.62083(16) 0.60198(17) 0.29049(5)
C12_7 C 0.6250(2) 0.70140(19) 0.28803(6)
H9_7 H 0.6259 0.7387 0.3057
C13_7 C 0.6274(3) 0.7426(2) 0.26075(7)
H10_7 H 0.6300 0.8087 0.2594
C14_7 C 0.6263(3) 0.6884(2) 0.23410(6)
H11_7 H 0.6290 0.7188 0.2152
C15_7 C 0.6214(2) 0.5941(2) 0.23515(6)
H12_7 H 0.6199 0.5591 0.2171
C16_7 C 0.61856(17) 0.54698(18) 0.26353(5)
C17_7 C 0.54821(16) 0.63925(17) 0.36075(5)
H13_7 H 0.4848 0.6291 0.3555
C18_7 C 0.67144(19) 0.6811(2) 0.38260(6)
H14_7 H 0.7120 0.7084 0.3970
O2_7 O 0.37480(14) 0.35799(13) 0.16727(4)
H15_7 H 0.3676 0.3978 0.1812
H16_7 H 0.3566 0.3808 0.1507
N7_7 N 0.42913(13) 0.18093(14) 0.19921(4)
N8_7 N 0.30574(15) 0.13603(17) 0.22630(5)
N9_7 N 0.38651(13) 0.10463(14) 0.23902(4)
C19_7 C 0.33511(17) 0.1807(2) 0.20244(6)
H17_7 H 0.2941 0.2103 0.1886
C20_7 C 0.45893(16) 0.13188(18) 0.22269(5)
H18_7 H 0.5224 0.1184 0.2271
C21_7 C 0.38450(15) 0.04987(17) 0.26623(5)
C22_7 C 0.38261(15) 0.09715(17) 0.29354(5)
C23_7 C 0.38486(17) 0.19595(17) 0.29616(6)
H19_7 H 0.3890 0.2332 0.2786
C24_7 C 0.38114(19) 0.23805(19) 0.32365(6)
H20_7 H 0.3844 0.3041 0.3251
C25_7 C 0.37247(19) 0.1837(2) 0.34991(6)
H21_7 H 0.3670 0.2139 0.3688
C26_7 C 0.37185(17) 0.08947(19) 0.34873(5)
H22_7 H 0.3673 0.0545 0.3668
C27_7 C 0.37791(15) 0.04165(17) 0.32051(5)
N10_7 N 0.37861(13) 0.89068(14) 0.34518(4)
N11_7 N 0.29821(16) 0.8638(2) 0.35887(5)
C28_7 C 0.37840(15) 0.94494(17) 0.31788(5)
C29_7 C 0.37917(16) 0.89802(17) 0.29049(5)
C30_7 C 0.3750(2) 0.79860(19) 0.28803(6)
H23_7 H 0.3741 0.7613 0.3057
C31_7 C 0.3726(3) 0.7574(2) 0.26075(7)
H24_7 H 0.3700 0.6913 0.2594
C32_7 C 0.3737(3) 0.8116(2) 0.23410(6)
H25_7 H 0.3710 0.7812 0.2152
C33_7 C 0.3786(2) 0.9059(2) 0.23515(6)
H26_7 H 0.3801 0.9409 0.2171
C34_7 C 0.38144(17) 0.95302(18) 0.26353(5)
C35_7 C 0.45179(16) 0.86075(17) 0.36075(5)
H27_7 H 0.5152 0.8709 0.3555
C36_7 C 0.32856(19) 0.8189(2) 0.38260(6)
H28_7 H 0.2880 0.7916 0.3970
N10_8 N 0.12139(13) 0.10932(14) 0.84518(4)
N11_8 N 0.20179(16) 0.1362(2) 0.85887(5)
C28_8 C 0.12160(15) 0.05506(17) 0.81788(5)
C29_8 C 0.12083(16) 0.10198(17) 0.79049(5)
C30_8 C 0.1250(2) 0.20140(19) 0.78803(6)
H23_8 H 0.1259 0.2387 0.8057
C31_8 C 0.1274(3) 0.2426(2) 0.76075(7)
H24_8 H 0.1300 0.3087 0.7594
C32_8 C 0.1263(3) 0.1884(2) 0.73410(6)
H25_8 H 0.1290 0.2188 0.7152
C33_8 C 0.1214(2) 0.0941(2) 0.73515(6)
H26_8 H 0.1199 0.0591 0.7171
C34_8 C 0.11856(17) 0.04698(18) 0.76353(5)
C35_8 C 0.04821(16) 0.13925(17) 0.86075(5)
C36_8 C 0.17144(19) 0.1811(2) 0.88260(6)
H28_8 H 0.2120 0.2084 0.8970
H4_8 H 0.0224 0.6184 0.7271
H13_8 H 0.0152 0.3709 0.8555
O2_8 O 0.12520(14) 0.64201(13) 0.66727(4)
H15_8 H 0.1324 0.6022 0.6812
H16_8 H 0.1434 0.6192 0.6507
N7_8 N 0.07087(13) 0.81907(14) 0.69921(4)
N8_8 N 0.19426(15) 0.86397(17) 0.72630(5)
N9_8 N 0.11349(13) 0.89537(14) 0.73902(4)
C19_8 C 0.16489(17) 0.8193(2) 0.70244(6)
H17_8 H 0.2059 0.7897 0.6886
C20_8 C 0.04107(16) 0.86812(18) 0.72269(5)
C21_8 C 0.11550(15) 0.95013(17) 0.76623(5)
C22_8 C 0.11739(15) 0.90285(17) 0.79354(5)
C23_8 C 0.11514(17) 0.80405(17) 0.79616(6)
H19_8 H 0.1110 0.7668 0.7786
C24_8 C 0.11886(19) 0.76195(19) 0.82365(6)
H20_8 H 0.1156 0.6959 0.8251
C25_8 C 0.12753(19) 0.8163(2) 0.84991(6)
H21_8 H 0.1330 0.7861 0.8688
C26_8 C 0.12815(17) 0.91053(19) 0.84873(5)
H22_8 H 0.1327 0.9455 0.8668
C27_8 C 0.12209(15) 0.95835(17) 0.82051(5)
H27_8 H 0.9848 0.1291 0.8555
O1_8 O 0.87480(14) 0.85799(13) 0.66727(4)
H1_8 H 0.8676 0.8978 0.6812
H2_8 H 0.8566 0.8808 0.6507
N1_8 N 0.92913(13) 0.68093(14) 0.69921(4)
N2_8 N 0.80574(15) 0.63603(17) 0.72630(5)
N3_8 N 0.88651(13) 0.60463(14) 0.73902(4)
N4_8 N 0.87861(13) 0.39068(14) 0.84518(4)
N5_8 N 0.79821(16) 0.3638(2) 0.85887(5)
C1_8 C 0.83511(17) 0.6807(2) 0.70244(6)
H3_8 H 0.7941 0.7103 0.6886
C2_8 C 0.95893(16) 0.63188(18) 0.72269(5)
C3_8 C 0.88450(15) 0.54987(17) 0.76623(5)
C4_8 C 0.88261(15) 0.59715(17) 0.79354(5)
C5_8 C 0.88486(17) 0.69595(17) 0.79616(6)
H5_8 H 0.8890 0.7332 0.7786
C6_8 C 0.88114(19) 0.73805(19) 0.82365(6)
H6_8 H 0.8844 0.8041 0.8251
C7_8 C 0.87247(19) 0.6837(2) 0.84991(6)
H7_8 H 0.8670 0.7139 0.8688
C8_8 C 0.87185(17) 0.58947(19) 0.84873(5)
H8_8 H 0.8673 0.5545 0.8668
C9_8 C 0.87791(15) 0.54165(17) 0.82051(5)
C10_8 C 0.87840(15) 0.44494(17) 0.81788(5)
C11_8 C 0.87917(16) 0.39802(17) 0.79049(5)
C12_8 C 0.8750(2) 0.29860(19) 0.78803(6)
H9_8 H 0.8741 0.2613 0.8057
C13_8 C 0.8726(3) 0.2574(2) 0.76075(7)
H10_8 H 0.8700 0.1913 0.7594
C14_8 C 0.8737(3) 0.3116(2) 0.73410(6)
H11_8 H 0.8710 0.2812 0.7152
C15_8 C 0.8786(2) 0.4059(2) 0.73515(6)
H12_8 H 0.8801 0.4409 0.7171
C16_8 C 0.88144(17) 0.45302(18) 0.76353(5)
C17_8 C 0.95179(16) 0.36075(17) 0.86075(5)
C18_8 C 0.82856(19) 0.3189(2) 0.88260(6)
H14_8 H 0.7880 0.2916 0.8970
H18_8 H 0.9776 0.8816 0.7271
B1 B 0.6877(3) 0.4523(3) 0.66751(7)
F1 F 0.6651(3) 0.4218(3) 0.63928(7)
F2 F 0.7066(4) 0.5435(3) 0.66670(8)
F3 F 0.7752(3) 0.4089(5) 0.67286(11)
F4 F 0.6230(3) 0.4238(3) 0.68809(8)
B1_2 B 0.8123(3) 0.5477(3) 0.16751(7)
F1_2 F 0.8349(3) 0.5782(3) 0.13928(7)
F2_2 F 0.7934(4) 0.4565(3) 0.16670(8)
F3_2 F 0.7248(3) 0.5911(5) 0.17286(11)
F4_2 F 0.8770(3) 0.5762(3) 0.18809(8)
F3_3 F 0.3411(5) 0.0252(3) 0.92286(11)
B1_3 B 0.2977(3) 0.9377(3) 0.91751(7)
F1_3 F 0.3282(3) 0.9151(3) 0.88928(7)
F2_3 F 0.2065(3) 0.9566(4) 0.91670(8)
F4_3 F 0.3262(3) 0.8730(3) 0.93809(8)
B1_4 B 0.2023(3) 0.0623(3) 0.41751(7)
F1_4 F 0.1718(3) 0.0849(3) 0.38928(7)
F2_4 F 0.2935(3) 0.0434(4) 0.41670(8)
F4_4 F 0.1738(3) 0.1270(3) 0.43809(8)
F3_4 F 0.1589(5) 0.9748(3) 0.42286(11)
F2_5 F 0.2066(4) 0.0435(3) 0.16670(8)
B1_5 B 0.1877(3) 0.9523(3) 0.16751(7)
F1_5 F 0.1651(3) 0.9218(3) 0.13928(7)
F3_5 F 0.2752(3) 0.9089(5) 0.17286(11)
F4_5 F 0.1230(3) 0.9238(3) 0.18809(8)
B1_6 B 0.3123(3) 0.0477(3) 0.66751(7)
F1_6 F 0.3349(3) 0.0782(3) 0.63928(7)
F3_6 F 0.2248(3) 0.0911(5) 0.67286(11)
F4_6 F 0.3770(3) 0.0762(3) 0.68809(8)
F2_6 F 0.2934(4) 0.9565(3) 0.66670(8)
B1_7 B 0.7977(3) 0.4377(3) 0.41751(7)
F1_7 F 0.8282(3) 0.4151(3) 0.38928(7)
F2_7 F 0.7065(3) 0.4566(4) 0.41670(8)
F3_7 F 0.8411(5) 0.5252(3) 0.42286(11)
F4_7 F 0.8262(3) 0.3730(3) 0.43809(8)
B1_8 B 0.7023(3) 0.5623(3) 0.91751(7)
F1_8 F 0.6718(3) 0.5849(3) 0.88928(7)
F2_8 F 0.7935(3) 0.5434(4) 0.91670(8)
F3_8 F 0.6589(5) 0.4748(3) 0.92286(11)
F4_8 F 0.6738(3) 0.6270(3) 0.93809(8)
B1_9 B 0.3123(3) 0.5477(3) 0.33249(7)
F1_9 F 0.3349(3) 0.5782(3) 0.36072(7)
F2_9 F 0.2934(4) 0.4565(3) 0.33330(8)
F3_9 F 0.2248(3) 0.5911(5) 0.32714(11)
F4_9 F 0.3770(3) 0.5762(3) 0.31191(8)
B1_10 B 0.1877(3) 0.4523(3) 0.83249(7)
F1_10 F 0.1651(3) 0.4218(3) 0.86072(7)
F2_10 F 0.2066(4) 0.5435(3) 0.83330(8)
F3_10 F 0.2752(3) 0.4089(5) 0.82714(11)
F4_10 F 0.1230(3) 0.4238(3) 0.81191(8)
B1_11 B 0.7023(3) 0.0623(3) 0.08249(7)
F1_11 F 0.6718(3) 0.0849(3) 0.11072(7)
F2_11 F 0.7935(3) 0.0434(4) 0.08330(8)
F4_11 F 0.6738(3) 0.1270(3) 0.06191(8)
F3_11 F 0.6589(5) 0.9748(3) 0.07714(11)
F3_12 F 0.8411(5) 0.0252(3) 0.57714(11)
B1_12 B 0.7977(3) 0.9377(3) 0.58249(7)
F1_12 F 0.8282(3) 0.9151(3) 0.61072(7)
F2_12 F 0.7065(3) 0.9566(4) 0.58330(8)
F4_12 F 0.8262(3) 0.8730(3) 0.56191(8)
B1_13 B 0.8123(3) 0.0477(3) 0.83249(7)
F1_13 F 0.8349(3) 0.0782(3) 0.86072(7)
F3_13 F 0.7248(3) 0.0911(5) 0.82714(11)
F4_13 F 0.8770(3) 0.0762(3) 0.81191(8)
F2_13 F 0.7934(4) 0.9565(3) 0.83330(8)
F2_14 F 0.7066(4) 0.0435(3) 0.33330(8)
B1_14 B 0.6877(3) 0.9523(3) 0.33249(7)
F1_14 F 0.6651(3) 0.9218(3) 0.36072(7)
F3_14 F 0.7752(3) 0.9089(5) 0.32714(11)
F4_14 F 0.6230(3) 0.9238(3) 0.31191(8)
B1_15 B 0.2023(3) 0.5623(3) 0.58249(7)
F1_15 F 0.1718(3) 0.5849(3) 0.61072(7)
F2_15 F 0.2935(3) 0.5434(4) 0.58330(8)
F3_15 F 0.1589(5) 0.4748(3) 0.57714(11)
F4_15 F 0.1738(3) 0.6270(3) 0.56191(8)
B1_16 B 0.2977(3) 0.4377(3) 0.08249(7)
F1_16 F 0.3282(3) 0.4151(3) 0.11072(7)
F2_16 F 0.2065(3) 0.4566(4) 0.08330(8)
F3_16 F 0.3411(5) 0.5252(3) 0.07714(11)
F4_16 F 0.3262(3) 0.3730(3) 0.06191(8)
loop_
_geom_bond_atom_site_label_1
_geom_bond_atom_site_label_2
_geom_bond_site_symmetry_1
_geom_bond_site_symmetry_2
Cu1 O1 1_555 1_555
O1 H1 1_555 1_555
H2 O1 1_555 1_555
N1 Cu1 1_555 1_555
N2 N3 1_555 1_555
N3 C2 1_555 1_555
N4 N5 1_555 1_555
N5 C18 1_555 1_555
N6 C17 1_555 1_555
C1 N1 1_555 1_555
H3 C1 1_555 1_555
C2 N1 1_555 1_555
H4 C2 1_555 1_555
C3 N3 1_555 1_555
C4 C3 1_555 1_555
C5 C4 1_555 1_555
H5 C5 1_555 1_555
C6 C5 1_555 1_555
H6 C6 1_555 1_555
C7 C6 1_555 1_555
H7 C7 1_555 1_555
C8 C7 1_555 1_555
H8 C8 1_555 1_555
C9 C4 1_555 1_555
C10 N4 1_555 1_555
C11 C10 1_555 1_555
C12 C11 1_555 1_555
H9 C12 1_555 1_555
C13 C12 1_555 1_555
C14 C13 1_555 1_555
H11 C14 1_555 1_555
C15 C14 1_555 1_555
H12 C15 1_555 1_555
C16 C3 1_555 1_555
C17 N4 1_555 1_555
H13 C17 1_555 1_555
C18 N6 1_555 1_555
H14 C18 1_555 1_555
O2 Cu1 1_555 1_555
H15 O2 1_555 1_555
H16 O2 1_555 1_555
N7 Cu1 1_555 1_555
N8 N9 1_555 1_555
N9 C20 1_555 1_555
N10 N11 1_555 1_555
N11 C36 1_555 1_555
N12 C35 1_555 1_555
C19 N7 1_555 1_555
H17 C19 1_555 1_555
C20 N7 1_555 1_555
H18 C20 1_555 1_555
C21 N9 1_555 1_555
C22 C21 1_555 1_555
C23 C22 1_555 1_555
H19 C23 1_555 1_555
C24 C23 1_555 1_555
H20 C24 1_555 1_555
C25 C24 1_555 1_555
H21 C25 1_555 1_555
C26 C25 1_555 1_555
H22 C26 1_555 1_555
C27 C22 1_555 1_555
C28 N10 1_555 1_555
C29 C28 1_555 1_555
C30 C29 1_555 1_555
H23 C30 1_555 1_555
C31 C30 1_555 1_555
C32 C31 1_555 1_555
H25 C32 1_555 1_555
C33 C32 1_555 1_555
H26 C33 1_555 1_555
C34 C21 1_555 1_555
C35 N10 1_555 1_555
H27 C35 1_555 1_555
C36 N12 1_555 1_555
H28 C36 1_555 1_555
Cu3 N6 1_555 1_555
Cu3_2 N12 1_555 1_555
N13 Cu1 1_555 1_555
N14 Cu1 1_555 1_555
N2 C1 1_555 1_555
C8 C9 1_555 1_555
C9 C10 1_555 1_555
C11 C16 1_555 1_555
C15 C16 1_555 1_555
N8 C19 1_555 1_555
C26 C27 1_555 1_555
C27 C28 1_555 1_555
C29 C34 1_555 1_555
C33 C34 1_555 1_555
N1_2 Cu1_2 1_555 1_555
N2_2 N3_2 1_555 1_555
N3_2 C2_2 1_555 1_555
C1_2 N1_2 1_555 1_555
H3_2 C1_2 1_555 1_555
C2_2 N1_2 1_555 1_555
H4_2 C2_2 1_555 1_555
H11_2 C14_2 1_555 1_555
C15_2 C14_2 1_555 1_555
H12_2 C15_2 1_555 1_555
O2_2 Cu1_2 1_555 1_555
H15_2 O2_2 1_555 1_555
H16_2 O2_2 1_555 1_555
N13_2 Cu1_2 1_555 1_555
N2_2 C1_2 1_555 1_555
N4_2 N5_2 1_555 1_555
N5_2 C18_2 1_555 1_555
N6_2 C17_2 1_555 1_555
C4_2 C3_2 1_555 1_555
C5_2 C4_2 1_555 1_555
H5_2 C5_2 1_555 1_555
C6_2 C5_2 1_555 1_555
C7_2 C6_2 1_555 1_555
H7_2 C7_2 1_555 1_555
C8_2 C7_2 1_555 1_555
H8_2 C8_2 1_555 1_555
C9_2 C4_2 1_555 1_555
C10_2 N4_2 1_555 1_555
C11_2 C10_2 1_555 1_555
C12_2 C11_2 1_555 1_555
H9_2 C12_2 1_555 1_555
C13_2 C12_2 1_555 1_555
H10_2 C13_2 1_555 1_555
C16_2 C3_2 1_555 1_555
C17_2 N4_2 1_555 1_555
H13_2 C17_2 1_555 1_555
C18_2 N6_2 1_555 1_555
H14_2 C18_2 1_555 1_555
Cu2 N6_2 1_555 1_555
C8_2 C9_2 1_555 1_555
C9_2 C10_2 1_555 1_555
C11_2 C16_2 1_555 1_555
Cu1_3 O1_2 1_555 1_555
O1_2 H1_2 1_555 1_555
H2_2 O1_2 1_555 1_555
N7_2 Cu1_3 1_555 1_555
N8_2 N9_2 1_555 1_555
N9_2 C20_2 1_555 1_555
C19_2 N7_2 1_555 1_555
H17_2 C19_2 1_555 1_555
C20_2 N7_2 1_555 1_555
H18_2 C20_2 1_555 1_555
H25_2 C32_2 1_555 1_555
C33_2 C32_2 1_555 1_555
H26_2 C33_2 1_555 1_555
N14_2 Cu1_3 1_555 1_555
N8_2 C19_2 1_555 1_555
N10_2 N11_2 1_555 1_555
N11_2 C36_2 1_555 1_555
N12_2 C35_2 1_555 1_555
C22_2 C21_2 1_555 1_555
C23_2 C22_2 1_555 1_555
H19_2 C23_2 1_555 1_555
C24_2 C23_2 1_555 1_555
C25_2 C24_2 1_555 1_555
H21_2 C25_2 1_555 1_555
C26_2 C25_2 1_555 1_555
H22_2 C26_2 1_555 1_555
C27_2 C22_2 1_555 1_555
C28_2 N10_2 1_555 1_555
C29_2 C28_2 1_555 1_555
C30_2 C29_2 1_555 1_555
H23_2 C30_2 1_555 1_555
C31_2 C30_2 1_555 1_555
H24_2 C31_2 1_555 1_555
C34_2 C21_2 1_555 1_555
C35_2 N10_2 1_555 1_555
H27_2 C35_2 1_555 1_555
C36_2 N12_2 1_555 1_555
H28_2 C36_2 1_555 1_555
Cu2 N12_2 1_555 1_555
C26_2 C27_2 1_555 1_555
C27_2 C28_2 1_555 1_555
C29_2 C34_2 1_555 1_555
N10_3 N11_3 1_555 1_555
N11_3 C36_3 1_555 1_555
N14 C35_3 1_555 1_555
C28_3 N10_3 1_555 1_555
C29_3 C28_3 1_555 1_555
C30_3 C29_3 1_555 1_555
H23_3 C30_3 1_555 1_555
C31_3 C30_3 1_555 1_555
H24_3 C31_3 1_555 1_555
C32_3 C31_3 1_555 1_555
H25_3 C32_3 1_555 1_555
C33_3 C32_3 1_555 1_555
H26_3 C33_3 1_555 1_555
C35_3 N10_3 1_555 1_555
H27_3 C35_3 1_555 1_555
C36_3 N14 1_555 1_555
H28_3 C36_3 1_555 1_555
C29_3 C34_3 1_555 1_555
C33_3 C34_3 1_555 1_555
Cu2 O1_3 1_555 1_555
O1_3 H1_3 1_555 1_555
H2_3 O1_3 1_555 1_555
N1_3 Cu2 1_555 1_555
N2_3 N3_3 1_555 1_555
N3_3 C2_3 1_555 1_555
N4_3 N5_3 1_555 1_555
N5_3 C18_3 1_555 1_555
N13 C17_3 1_555 1_555
C1_3 N1_3 1_555 1_555
H3_3 C1_3 1_555 1_555
C2_3 N1_3 1_555 1_555
H4_3 C2_3 1_555 1_555
C3_3 N3_3 1_555 1_555
C4_3 C3_3 1_555 1_555
C5_3 C4_3 1_555 1_555
H5_3 C5_3 1_555 1_555
C6_3 C5_3 1_555 1_555
H6_3 C6_3 1_555 1_555
C7_3 C6_3 1_555 1_555
H7_3 C7_3 1_555 1_555
C8_3 C7_3 1_555 1_555
H8_3 C8_3 1_555 1_555
C9_3 C4_3 1_555 1_555
C10_3 N4_3 1_555 1_555
C11_3 C10_3 1_555 1_555
C12_3 C11_3 1_555 1_555
H9_3 C12_3 1_555 1_555
C13_3 C12_3 1_555 1_555
H10_3 C13_3 1_555 1_555
C14_3 C13_3 1_555 1_555
H11_3 C14_3 1_555 1_555
C15_3 C14_3 1_555 1_555
H12_3 C15_3 1_555 1_555
C16_3 C3_3 1_555 1_555
C17_3 N4_3 1_555 1_555
H13_3 C17_3 1_555 1_555
C18_3 N13 1_555 1_555
H14_3 C18_3 1_555 1_555
O2_3 Cu2 1_555 1_555
H15_3 O2_3 1_555 1_555
H16_3 O2_3 1_555 1_555
N7_3 Cu2 1_555 1_555
N8_3 N9_3 1_555 1_555
N9_3 C20_3 1_555 1_555
C19_3 N7_3 1_555 1_555
H17_3 C19_3 1_555 1_555
C20_3 N7_3 1_555 1_555
H18_3 C20_3 1_555 1_555
C21_3 N9_3 1_555 1_555
C22_3 C21_3 1_555 1_555
C23_3 C22_3 1_555 1_555
H19_3 C23_3 1_555 1_555
C24_3 C23_3 1_555 1_555
H20_3 C24_3 1_555 1_555
C25_3 C24_3 1_555 1_555
H21_3 C25_3 1_555 1_555
C26_3 C25_3 1_555 1_555
H22_3 C26_3 1_555 1_555
C27_3 C22_3 1_555 1_555
N2_3 C1_3 1_555 1_555
C8_3 C9_3 1_555 1_555
C9_3 C10_3 1_555 1_555
C11_3 C16_3 1_555 1_555
C15_3 C16_3 1_555 1_555
N8_3 C19_3 1_555 1_555
C26_3 C27_3 1_555 1_555
Cu3 O1_4 1_555 1_555
O1_4 H1_4 1_555 1_555
H2_4 O1_4 1_555 1_555
N1_4 Cu3 1_555 1_555
N2_4 N3_4 1_555 1_555
N3_4 C2_4 1_555 1_555
N4_4 N5_4 1_555 1_555
N5_4 C18_4 1_555 1_555
N13_2 C17_4 1_555 1_555
C1_4 N1_4 1_555 1_555
H3_4 C1_4 1_555 1_555
C2_4 N1_4 1_555 1_555
C3_4 N3_4 1_555 1_555
C4_4 C3_4 1_555 1_555
C5_4 C4_4 1_555 1_555
H5_4 C5_4 1_555 1_555
C6_4 C5_4 1_555 1_555
H6_4 C6_4 1_555 1_555
C7_4 C6_4 1_555 1_555
H7_4 C7_4 1_555 1_555
C8_4 C7_4 1_555 1_555
H8_4 C8_4 1_555 1_555
C9_4 C4_4 1_555 1_555
C10_4 N4_4 1_555 1_555
C11_4 C10_4 1_555 1_555
C12_4 C11_4 1_555 1_555
H9_4 C12_4 1_555 1_555
C13_4 C12_4 1_555 1_555
H10_4 C13_4 1_555 1_555
C14_4 C13_4 1_555 1_555
H11_4 C14_4 1_555 1_555
C15_4 C14_4 1_555 1_555
H12_4 C15_4 1_555 1_555
C16_4 C3_4 1_555 1_555
C17_4 N4_4 1_555 1_555
C18_4 N13_2 1_555 1_555
H14_4 C18_4 1_555 1_555
N2_4 C1_4 1_555 1_555
C8_4 C9_4 1_555 1_555
C9_4 C10_4 1_555 1_555
C11_4 C16_4 1_555 1_555
C15_4 C16_4 1_555 1_555
O2_4 Cu3_2 1_555 1_555
H15_4 O2_4 1_555 1_555
H16_4 O2_4 1_555 1_555
N7_4 Cu3_2 1_555 1_555
N8_4 N9_4 1_555 1_555
N9_4 C20_4 1_555 1_555
C19_4 N7_4 1_555 1_555
H17_4 C19_4 1_555 1_555
C20_4 N7_4 1_555 1_555
C21_4 N9_4 1_555 1_555
C22_4 C21_4 1_555 1_555
C23_4 C22_4 1_555 1_555
H19_4 C23_4 1_555 1_555
C24_4 C23_4 1_555 1_555
H20_4 C24_4 1_555 1_555
C25_4 C24_4 1_555 1_555
H21_4 C25_4 1_555 1_555
C26_4 C25_4 1_555 1_555
H22_4 C26_4 1_555 1_555
C27_4 C22_4 1_555 1_555
N8_4 C19_4 1_555 1_555
C26_4 C27_4 1_555 1_555
N10_4 N11_4 1_555 1_555
N11_4 C36_4 1_555 1_555
N14_2 C35_4 1_555 1_555
C28_4 N10_4 1_555 1_555
C29_4 C28_4 1_555 1_555
C30_4 C29_4 1_555 1_555
H23_4 C30_4 1_555 1_555
C31_4 C30_4 1_555 1_555
H24_4 C31_4 1_555 1_555
C32_4 C31_4 1_555 1_555
H25_4 C32_4 1_555 1_555
C33_4 C32_4 1_555 1_555
H26_4 C33_4 1_555 1_555
C35_4 N10_4 1_555 1_555
C36_4 N14_2 1_555 1_555
H28_4 C36_4 1_555 1_555
C29_4 C34_4 1_555 1_555
C33_4 C34_4 1_555 1_555
Cu1_4 O1_5 1_555 1_555
O1_5 H1_5 1_555 1_555
H2_5 O1_5 1_555 1_555
N1_5 Cu1_4 1_555 1_555
N2_5 N3_5 1_555 1_555
N3_5 C2_5 1_555 1_555
N4_5 N5_5 1_555 1_555
N5_5 C18_5 1_555 1_555
N6_3 C17_5 1_555 1_555
C1_5 N1_5 1_555 1_555
H3_5 C1_5 1_555 1_555
C2_5 N1_5 1_555 1_555
H4_5 C2_5 1_555 1_555
C3_5 N3_5 1_555 1_555
C4_5 C3_5 1_555 1_555
C5_5 C4_5 1_555 1_555
H5_5 C5_5 1_555 1_555
C6_5 C5_5 1_555 1_555
H6_5 C6_5 1_555 1_555
C7_5 C6_5 1_555 1_555
H7_5 C7_5 1_555 1_555
C8_5 C7_5 1_555 1_555
H8_5 C8_5 1_555 1_555
C9_5 C4_5 1_555 1_555
C10_5 N4_5 1_555 1_555
C11_5 C10_5 1_555 1_555
C12_5 C11_5 1_555 1_555
H9_5 C12_5 1_555 1_555
C13_5 C12_5 1_555 1_555
C14_5 C13_5 1_555 1_555
H11_5 C14_5 1_555 1_555
C15_5 C14_5 1_555 1_555
H12_5 C15_5 1_555 1_555
C16_5 C3_5 1_555 1_555
C17_5 N4_5 1_555 1_555
H13_5 C17_5 1_555 1_555
C18_5 N6_3 1_555 1_555
H14_5 C18_5 1_555 1_555
O2_5 Cu1_4 1_555 1_555
H15_5 O2_5 1_555 1_555
H16_5 O2_5 1_555 1_555
N7_5 Cu1_4 1_555 1_555
N8_5 N9_5 1_555 1_555
N9_5 C20_5 1_555 1_555
N10_5 N11_5 1_555 1_555
N11_5 C36_5 1_555 1_555
N12_3 C35_5 1_555 1_555
C19_5 N7_5 1_555 1_555
H17_5 C19_5 1_555 1_555
C20_5 N7_5 1_555 1_555
H18_5 C20_5 1_555 1_555
C21_5 N9_5 1_555 1_555
C22_5 C21_5 1_555 1_555
C23_5 C22_5 1_555 1_555
H19_5 C23_5 1_555 1_555
C24_5 C23_5 1_555 1_555
H20_5 C24_5 1_555 1_555
C25_5 C24_5 1_555 1_555
H21_5 C25_5 1_555 1_555
C26_5 C25_5 1_555 1_555
H22_5 C26_5 1_555 1_555
C27_5 C22_5 1_555 1_555
C28_5 N10_5 1_555 1_555
C29_5 C28_5 1_555 1_555
C30_5 C29_5 1_555 1_555
H23_5 C30_5 1_555 1_555
C31_5 C30_5 1_555 1_555
C32_5 C31_5 1_555 1_555
H25_5 C32_5 1_555 1_555
C33_5 C32_5 1_555 1_555
H26_5 C33_5 1_555 1_555
C34_5 C21_5 1_555 1_555
C35_5 N10_5 1_555 1_555
H27_5 C35_5 1_555 1_555
C36_5 N12_3 1_555 1_555
H28_5 C36_5 1_555 1_555
Cu2_3 N6_3 1_555 1_555
Cu2_2 N12_3 1_555 1_555
N13_3 Cu1_4 1_555 1_555
N14_3 Cu1_4 1_555 1_555
N2_5 C1_5 1_555 1_555
C8_5 C9_5 1_555 1_555
C9_5 C10_5 1_555 1_555
C11_5 C16_5 1_555 1_555
C15_5 C16_5 1_555 1_555
N8_5 C19_5 1_555 1_555
C26_5 C27_5 1_555 1_555
C27_5 C28_5 1_555 1_555
C29_5 C34_5 1_555 1_555
C33_5 C34_5 1_555 1_555
N10_6 N11_6 1_555 1_555
N11_6 C36_6 1_555 1_555
N12_4 C35_6 1_555 1_555
C22_6 C21_6 1_555 1_555
C23_6 C22_6 1_555 1_555
H19_6 C23_6 1_555 1_555
C24_6 C23_6 1_555 1_555
C25_6 C24_6 1_555 1_555
H21_6 C25_6 1_555 1_555
C26_6 C25_6 1_555 1_555
H22_6 C26_6 1_555 1_555
C27_6 C22_6 1_555 1_555
C28_6 N10_6 1_555 1_555
C29_6 C28_6 1_555 1_555
C30_6 C29_6 1_555 1_555
H23_6 C30_6 1_555 1_555
C31_6 C30_6 1_555 1_555
H24_6 C31_6 1_555 1_555
C34_6 C21_6 1_555 1_555
C35_6 N10_6 1_555 1_555
H27_6 C35_6 1_555 1_555
C36_6 N12_4 1_555 1_555
H28_6 C36_6 1_555 1_555
Cu3_3 N12_4 1_555 1_555
C26_6 C27_6 1_555 1_555
C27_6 C28_6 1_555 1_555
C29_6 C34_6 1_555 1_555
Cu1_5 O1_6 1_555 1_555
O1_6 H1_6 1_555 1_555
H2_6 O1_6 1_555 1_555
N7_6 Cu1_5 1_555 1_555
N8_6 N9_6 1_555 1_555
N9_6 C20_6 1_555 1_555
C19_6 N7_6 1_555 1_555
H17_6 C19_6 1_555 1_555
C20_6 N7_6 1_555 1_555
H18_6 C20_6 1_555 1_555
H25_6 C32_6 1_555 1_555
C33_6 C32_6 1_555 1_555
H26_6 C33_6 1_555 1_555
N14_4 Cu1_5 1_555 1_555
N8_6 C19_6 1_555 1_555
N4_6 N5_6 1_555 1_555
N5_6 C18_6 1_555 1_555
N6_4 C17_6 1_555 1_555
C4_6 C3_6 1_555 1_555
C5_6 C4_6 1_555 1_555
H5_6 C5_6 1_555 1_555
C6_6 C5_6 1_555 1_555
C7_6 C6_6 1_555 1_555
H7_6 C7_6 1_555 1_555
C8_6 C7_6 1_555 1_555
H8_6 C8_6 1_555 1_555
C9_6 C4_6 1_555 1_555
C10_6 N4_6 1_555 1_555
C11_6 C10_6 1_555 1_555
C12_6 C11_6 1_555 1_555
H9_6 C12_6 1_555 1_555
C13_6 C12_6 1_555 1_555
H10_6 C13_6 1_555 1_555
C16_6 C3_6 1_555 1_555
C17_6 N4_6 1_555 1_555
H13_6 C17_6 1_555 1_555
C18_6 N6_4 1_555 1_555
H14_6 C18_6 1_555 1_555
Cu3_3 N6_4 1_555 1_555
C8_6 C9_6 1_555 1_555
C9_6 C10_6 1_555 1_555
C11_6 C16_6 1_555 1_555
N1_6 Cu1_6 1_555 1_555
N2_6 N3_6 1_555 1_555
N3_6 C2_6 1_555 1_555
C1_6 N1_6 1_555 1_555
H3_6 C1_6 1_555 1_555
C2_6 N1_6 1_555 1_555
H4_6 C2_6 1_555 1_555
H11_6 C14_6 1_555 1_555
C15_6 C14_6 1_555 1_555
H12_6 C15_6 1_555 1_555
O2_6 Cu1_6 1_555 1_555
H15_6 O2_6 1_555 1_555
H16_6 O2_6 1_555 1_555
N13_4 Cu1_6 1_555 1_555
N2_6 C1_6 1_555 1_555
Cu3_3 O1_7 1_555 1_555
O1_7 H1_7 1_555 1_555
H2_7 O1_7 1_555 1_555
N1_7 Cu3_3 1_555 1_555
N2_7 N3_7 1_555 1_555
N3_7 C2_7 1_555 1_555
N4_7 N5_7 1_555 1_555
N5_7 C18_7 1_555 1_555
N13_3 C17_7 1_555 1_555
C1_7 N1_7 1_555 1_555
H3_7 C1_7 1_555 1_555
C2_7 N1_7 1_555 1_555
H4_7 C2_7 1_555 1_555
C3_7 N3_7 1_555 1_555
C4_7 C3_7 1_555 1_555
C5_7 C4_7 1_555 1_555
H5_7 C5_7 1_555 1_555
C6_7 C5_7 1_555 1_555
H6_7 C6_7 1_555 1_555
C7_7 C6_7 1_555 1_555
H7_7 C7_7 1_555 1_555
C8_7 C7_7 1_555 1_555
H8_7 C8_7 1_555 1_555
C9_7 C4_7 1_555 1_555
C10_7 N4_7 1_555 1_555
C11_7 C10_7 1_555 1_555
C12_7 C11_7 1_555 1_555
H9_7 C12_7 1_555 1_555
C13_7 C12_7 1_555 1_555
H10_7 C13_7 1_555 1_555
C14_7 C13_7 1_555 1_555
H11_7 C14_7 1_555 1_555
C15_7 C14_7 1_555 1_555
H12_7 C15_7 1_555 1_555
C16_7 C3_7 1_555 1_555
C17_7 N4_7 1_555 1_555
H13_7 C17_7 1_555 1_555
C18_7 N13_3 1_555 1_555
H14_7 C18_7 1_555 1_555
O2_7 Cu3_3 1_555 1_555
H15_7 O2_7 1_555 1_555
H16_7 O2_7 1_555 1_555
N7_7 Cu3_3 1_555 1_555
N8_7 N9_7 1_555 1_555
N9_7 C20_7 1_555 1_555
C19_7 N7_7 1_555 1_555
H17_7 C19_7 1_555 1_555
C20_7 N7_7 1_555 1_555
H18_7 C20_7 1_555 1_555
C21_7 N9_7 1_555 1_555
C22_7 C21_7 1_555 1_555
C23_7 C22_7 1_555 1_555
H19_7 C23_7 1_555 1_555
C24_7 C23_7 1_555 1_555
H20_7 C24_7 1_555 1_555
C25_7 C24_7 1_555 1_555
H21_7 C25_7 1_555 1_555
C26_7 C25_7 1_555 1_555
H22_7 C26_7 1_555 1_555
C27_7 C22_7 1_555 1_555
N2_7 C1_7 1_555 1_555
C8_7 C9_7 1_555 1_555
C9_7 C10_7 1_555 1_555
C11_7 C16_7 1_555 1_555
C15_7 C16_7 1_555 1_555
N8_7 C19_7 1_555 1_555
C26_7 C27_7 1_555 1_555
N10_7 N11_7 1_555 1_555
N11_7 C36_7 1_555 1_555
N14_3 C35_7 1_555 1_555
C28_7 N10_7 1_555 1_555
C29_7 C28_7 1_555 1_555
C30_7 C29_7 1_555 1_555
H23_7 C30_7 1_555 1_555
C31_7 C30_7 1_555 1_555
H24_7 C31_7 1_555 1_555
C32_7 C31_7 1_555 1_555
H25_7 C32_7 1_555 1_555
C33_7 C32_7 1_555 1_555
H26_7 C33_7 1_555 1_555
C35_7 N10_7 1_555 1_555
H27_7 C35_7 1_555 1_555
C36_7 N14_3 1_555 1_555
H28_7 C36_7 1_555 1_555
C29_7 C34_7 1_555 1_555
C33_7 C34_7 1_555 1_555
N10_8 N11_8 1_555 1_555
N11_8 C36_8 1_555 1_555
N14_4 C35_8 1_555 1_555
C28_8 N10_8 1_555 1_555
C29_8 C28_8 1_555 1_555
C30_8 C29_8 1_555 1_555
H23_8 C30_8 1_555 1_555
C31_8 C30_8 1_555 1_555
H24_8 C31_8 1_555 1_555
C32_8 C31_8 1_555 1_555
H25_8 C32_8 1_555 1_555
C33_8 C32_8 1_555 1_555
H26_8 C33_8 1_555 1_555
C35_8 N10_8 1_555 1_555
C36_8 N14_4 1_555 1_555
H28_8 C36_8 1_555 1_555
C29_8 C34_8 1_555 1_555
C33_8 C34_8 1_555 1_555
O2_8 Cu2_2 1_555 1_555
H15_8 O2_8 1_555 1_555
H16_8 O2_8 1_555 1_555
N7_8 Cu2_2 1_555 1_555
N8_8 N9_8 1_555 1_555
N9_8 C20_8 1_555 1_555
C19_8 N7_8 1_555 1_555
H17_8 C19_8 1_555 1_555
C20_8 N7_8 1_555 1_555
C21_8 N9_8 1_555 1_555
C22_8 C21_8 1_555 1_555
C23_8 C22_8 1_555 1_555
H19_8 C23_8 1_555 1_555
C24_8 C23_8 1_555 1_555
H20_8 C24_8 1_555 1_555
C25_8 C24_8 1_555 1_555
H21_8 C25_8 1_555 1_555
C26_8 C25_8 1_555 1_555
H22_8 C26_8 1_555 1_555
C27_8 C22_8 1_555 1_555
N8_8 C19_8 1_555 1_555
C26_8 C27_8 1_555 1_555
Cu2_3 O1_8 1_555 1_555
O1_8 H1_8 1_555 1_555
H2_8 O1_8 1_555 1_555
N1_8 Cu2_3 1_555 1_555
N2_8 N3_8 1_555 1_555
N3_8 C2_8 1_555 1_555
N4_8 N5_8 1_555 1_555
N5_8 C18_8 1_555 1_555
N13_4 C17_8 1_555 1_555
C1_8 N1_8 1_555 1_555
H3_8 C1_8 1_555 1_555
C2_8 N1_8 1_555 1_555
C3_8 N3_8 1_555 1_555
C4_8 C3_8 1_555 1_555
C5_8 C4_8 1_555 1_555
H5_8 C5_8 1_555 1_555
C6_8 C5_8 1_555 1_555
H6_8 C6_8 1_555 1_555
C7_8 C6_8 1_555 1_555
H7_8 C7_8 1_555 1_555
C8_8 C7_8 1_555 1_555
H8_8 C8_8 1_555 1_555
C9_8 C4_8 1_555 1_555
C10_8 N4_8 1_555 1_555
C11_8 C10_8 1_555 1_555
C12_8 C11_8 1_555 1_555
H9_8 C12_8 1_555 1_555
C13_8 C12_8 1_555 1_555
H10_8 C13_8 1_555 1_555
C14_8 C13_8 1_555 1_555
H11_8 C14_8 1_555 1_555
C15_8 C14_8 1_555 1_555
H12_8 C15_8 1_555 1_555
C16_8 C3_8 1_555 1_555
C17_8 N4_8 1_555 1_555
C18_8 N13_4 1_555 1_555
H14_8 C18_8 1_555 1_555
N2_8 C1_8 1_555 1_555
C8_8 C9_8 1_555 1_555
C9_8 C10_8 1_555 1_555
C11_8 C16_8 1_555 1_555
C15_8 C16_8 1_555 1_555
B1 F1 1_555 1_555
F2 B1 1_555 1_555
F3 B1 1_555 1_555
F4 B1 1_555 1_555
B1_2 F1_2 1_555 1_555
F2_2 B1_2 1_555 1_555
F3_2 B1_2 1_555 1_555
F4_2 B1_2 1_555 1_555
B1_3 F1_3 1_555 1_555
F2_3 B1_3 1_555 1_555
F4_3 B1_3 1_555 1_555
B1_4 F1_4 1_555 1_555
F2_4 B1_4 1_555 1_555
F4_4 B1_4 1_555 1_555
B1_5 F1_5 1_555 1_555
F3_5 B1_5 1_555 1_555
F4_5 B1_5 1_555 1_555
B1_6 F1_6 1_555 1_555
F3_6 B1_6 1_555 1_555
F4_6 B1_6 1_555 1_555
B1_7 F1_7 1_555 1_555
F2_7 B1_7 1_555 1_555
F3_7 B1_7 1_555 1_555
F4_7 B1_7 1_555 1_555
B1_8 F1_8 1_555 1_555
F2_8 B1_8 1_555 1_555
F3_8 B1_8 1_555 1_555
F4_8 B1_8 1_555 1_555
B1_9 F1_9 1_555 1_555
F2_9 B1_9 1_555 1_555
F3_9 B1_9 1_555 1_555
F4_9 B1_9 1_555 1_555
B1_10 F1_10 1_555 1_555
F2_10 B1_10 1_555 1_555
F3_10 B1_10 1_555 1_555
F4_10 B1_10 1_555 1_555
B1_11 F1_11 1_555 1_555
F2_11 B1_11 1_555 1_555
F4_11 B1_11 1_555 1_555
B1_12 F1_12 1_555 1_555
F2_12 B1_12 1_555 1_555
F4_12 B1_12 1_555 1_555
B1_13 F1_13 1_555 1_555
F3_13 B1_13 1_555 1_555
F4_13 B1_13 1_555 1_555
B1_14 F1_14 1_555 1_555
F3_14 B1_14 1_555 1_555
F4_14 B1_14 1_555 1_555
B1_15 F1_15 1_555 1_555
F2_15 B1_15 1_555 1_555
F3_15 B1_15 1_555 1_555
F4_15 B1_15 1_555 1_555
B1_16 F1_16 1_555 1_555
F2_16 B1_16 1_555 1_555
F3_16 B1_16 1_555 1_555
F4_16 B1_16 1_555 1_555

#END
