
###############################################################################
#
# This file contains modified crystal structure data generated from the
# MOF subset of the Cambridge Structural Database (CSD) v543 
# hosted by the Cambridge Crystallographic Data Centre (CCDC).
#
# This work is licensed under the Creative Commons
# Attribution-NonCommercial-ShareAlike 4.0 International License.
# To view a copy of this license, visit
# http://creativecommons.org/licenses/by-nc-sa/4.0/
# or send a letter to
# Creative Commons, PO Box 1866, Mountain View, CA 94042, USA.
#
# CIF created using the CSD Python API on 29 September 2022
# The structure has been converted into the P1 space group
# The structure has a 3D framework
# The original CSD entry KOMCOG is in the orthorhombic crystal system
# The framework has been calculated to contain at least 10.0% void space
# The void calculation uses a probe of radius 1.32A, grid spacing 0.4
# The framework is charged, counterions have been retained in the structure
#
###############################################################################

data_KOMCOG
_chemical_formula_moiety         '(C216 H168 Cl8 N56 Zn8 8+)n'
_symmetry_cell_setting           triclinic
_symmetry_space_group_name_H-M   'P 1'
_symmetry_Int_Tables_number      1
_space_group_name_Hall           'P 1'
loop_
_symmetry_equiv_pos_site_id
_symmetry_equiv_pos_as_xyz
1 x,y,z
_cell_length_a                   28.470(7)
_cell_length_b                   27.784(7)
_cell_length_c                   9.255(2)
_cell_angle_alpha                90
_cell_angle_beta                 90
_cell_angle_gamma                90
_cell_volume                     7320.8
loop_
_atom_site_label
_atom_site_type_symbol
_atom_site_fract_x
_atom_site_fract_y
_atom_site_fract_z
Zn1 Zn 0.364971(17) 0.492063(18) 0.08132(6)
C1 C 0.45563(15) 0.54215(16) 0.1372(5)
H1 H 0.4587 0.5281 0.2279
C4 C 0.52336(13) 0.59572(15) 0.1638(4)
C5 C 0.55238(14) 0.56772(15) 0.2460(5)
H4 H 0.5481 0.5345 0.2482
C6 C 0.58757(16) 0.58826(16) 0.3249(5)
H5 H 0.6068 0.5688 0.3815
C7 C 0.59518(13) 0.63728(14) 0.3222(4)
C8 C 0.56616(14) 0.66502(14) 0.2353(4)
H6 H 0.5712 0.6980 0.2292
C9 C 0.53022(14) 0.64452(15) 0.1581(5)
H7 H 0.5106 0.6637 0.1021
C10 C 0.79662(14) 0.54090(14) 0.7265(4)
H8 H 0.7771 0.5476 0.8046
C11 C 0.8539(2) 0.5158(3) 0.5991(6)
H9 H 0.8822 0.5016 0.5722
C12 C 0.82428(18) 0.5379(2) 0.5103(6)
H10 H 0.8278 0.5417 0.4110
C13 C 0.74830(13) 0.58109(16) 0.5414(5)
C14 C 0.72486(15) 0.61114(16) 0.6368(5)
H11 H 0.7351 0.6142 0.7318
C15 C 0.68642(15) 0.63623(18) 0.5893(4)
H12 H 0.6705 0.6562 0.6533
C16 C 0.67093(14) 0.63244(15) 0.4485(4)
C17 C 0.69476(17) 0.60345(17) 0.3573(5)
H13 H 0.6851 0.6011 0.2616
C18 C 0.73307(18) 0.5772(2) 0.4032(5)
H14 H 0.7485 0.5568 0.3392
C19 C 0.63104(15) 0.88573(15) 0.5653(4)
H15 H 0.6552 0.8850 0.4975
C20 C 0.58030(15) 0.91025(16) 0.7180(5)
H16 H 0.5627 0.9305 0.7770
C21 C 0.57569(15) 0.86260(16) 0.7099(5)
H17 H 0.5543 0.8437 0.7605
C22 C 0.61483(14) 0.79852(14) 0.5645(4)
C23 C 0.57733(15) 0.76714(15) 0.5665(4)
H18 H 0.5485 0.7769 0.6036
C24 C 0.58276(14) 0.72131(14) 0.5134(4)
H19 H 0.5576 0.7000 0.5154
C25 C 0.62521(14) 0.70679(15) 0.4575(5)
C26 C 0.66261(16) 0.73837(16) 0.4557(5)
H20 H 0.6913 0.7287 0.4176
C27 C 0.65756(15) 0.78392(16) 0.5098(5)
H21 H 0.6829 0.8050 0.5096
N1 N 0.42190(12) 0.53183(13) 0.0458(4)
N2 N 0.48420(12) 0.57435(14) 0.0857(4)
N3 N 0.61517(12) 0.92463(12) 0.6253(4)
N4 N 0.60846(12) 0.84696(12) 0.6128(3)
N5 N 0.78783(12) 0.55414(13) 0.5918(3)
N6 N 0.83619(13) 0.51715(13) 0.7361(4)
N7 N 0.63094(12) 0.65928(13) 0.4029(4)
Zn2 Zn 0.864971(17) 0.492063(18) 0.91868(6)
Zn3 Zn 0.635029(17) 0.992063(18) 0.58132(6)
N8 N 0.38483(12) 0.42463(12) 0.1253(4)
N9 N 0.33619(13) 0.51715(13) 0.2639(4)
C1_2 C 0.04437(15) 0.04215(16) 0.3628(5)
H1_2 H 0.0413 0.0281 0.2721
C2 C 0.06933(18) 0.0597(2) 0.5717(5)
H2 H 0.0871 0.0600 0.6560
C3 C 0.03152(17) 0.0865(2) 0.5478(5)
H3 H 0.0184 0.1090 0.6101
N1_2 N 0.07810(12) 0.03183(13) 0.4542(4)
N2_2 N 0.01580(12) 0.07435(14) 0.4143(4)
N9_2 N 0.16381(13) 0.01715(13) 0.2361(4)
Cl1 Cl 0.18323(7) 0.99924(7) 0.6071(2)
Zn1_2 Zn 0.135029(17) 0.992063(18) 0.41868(6)
N8_2 N 0.11517(12) 0.92463(12) 0.3747(4)
C10_2 C 0.70338(14) 0.04090(14) 0.7735(4)
H8_2 H 0.7229 0.0476 0.6954
C11_2 C 0.6461(2) 0.0158(3) 0.9009(6)
H9_2 H 0.6178 0.0016 0.9278
C12_2 C 0.67572(18) 0.0379(2) 0.9897(6)
C13_2 C 0.75170(13) 0.08109(16) 0.9586(5)
C14_2 C 0.77514(15) 0.11114(16) 0.8632(5)
H11_2 H 0.7649 0.1142 0.7682
C15_2 C 0.81358(15) 0.13623(18) 0.9107(4)
H12_2 H 0.8295 0.1562 0.8467
C19_2 C 0.86896(15) 0.38573(15) 0.9347(4)
C20_2 C 0.91970(15) 0.41025(16) 0.7820(5)
H16_2 H 0.9373 0.4305 0.7230
C21_2 C 0.92431(15) 0.36260(16) 0.7901(5)
H17_2 H 0.9457 0.3437 0.7395
C22_2 C 0.88517(14) 0.29852(14) 0.9355(4)
C23_2 C 0.92267(15) 0.26714(15) 0.9335(4)
H18_2 H 0.9515 0.2769 0.8964
C24_2 C 0.91724(14) 0.22131(14) 0.9866(4)
H19_2 H 0.9424 0.2000 0.9846
C27_2 C 0.84244(15) 0.28392(16) 0.9902(5)
H21_2 H 0.8171 0.3050 0.9904
N3_2 N 0.88483(12) 0.42463(12) 0.8747(4)
N4_2 N 0.89154(12) 0.34696(12) 0.8872(3)
N5_2 N 0.71217(12) 0.05414(13) 0.9082(3)
N6_2 N 0.66381(13) 0.01715(13) 0.7639(4)
C4_2 C 0.02336(13) 0.59572(15) 0.8362(4)
C5_2 C 0.05238(14) 0.56772(15) 0.7540(5)
H4_2 H 0.0481 0.5345 0.7518
C6_2 C 0.08757(16) 0.58826(16) 0.6751(5)
H5_2 H 0.1068 0.5688 0.6185
C7_2 C 0.09518(13) 0.63728(14) 0.6778(4)
C8_2 C 0.06616(14) 0.66502(14) 0.7647(4)
H6_2 H 0.0712 0.6980 0.7708
C9_2 C 0.03022(14) 0.64452(15) 0.8419(5)
H7_2 H 0.0106 0.6637 0.8979
C10_3 C 0.29662(14) 0.54090(14) 0.2735(4)
H8_3 H 0.2771 0.5476 0.1954
C11_3 C 0.3539(2) 0.5158(3) 0.4009(6)
H9_3 H 0.3822 0.5016 0.4278
C12_3 C 0.32428(18) 0.5379(2) 0.4897(6)
H10_2 H 0.3278 0.5417 0.5890
C13_3 C 0.24830(13) 0.58109(16) 0.4586(5)
C14_3 C 0.22486(15) 0.61114(16) 0.3632(5)
H11_3 H 0.2351 0.6142 0.2682
C15_3 C 0.18642(15) 0.63623(18) 0.4107(4)
H12_3 H 0.1705 0.6562 0.3467
C16_2 C 0.17093(14) 0.63244(15) 0.5515(4)
C17_2 C 0.19476(17) 0.60345(17) 0.6427(5)
H13_2 H 0.1851 0.6011 0.7384
C18_2 C 0.23307(18) 0.5772(2) 0.5968(5)
H14_2 H 0.2485 0.5568 0.6608
C19_3 C 0.13104(15) 0.88573(15) 0.4347(4)
H15_2 H 0.1552 0.8850 0.5025
C20_3 C 0.08030(15) 0.91025(16) 0.2820(5)
H16_3 H 0.0627 0.9305 0.2230
C21_3 C 0.07569(15) 0.86260(16) 0.2901(5)
H17_3 H 0.0543 0.8437 0.2395
C22_3 C 0.11483(14) 0.79852(14) 0.4355(4)
C23_3 C 0.07733(15) 0.76714(15) 0.4335(4)
H18_3 H 0.0485 0.7769 0.3964
C24_3 C 0.08276(14) 0.72131(14) 0.4866(4)
H19_3 H 0.0576 0.7000 0.4846
C25_2 C 0.12521(14) 0.70679(15) 0.5425(5)
C26_2 C 0.16261(16) 0.73837(16) 0.5443(5)
H20_2 H 0.1913 0.7287 0.5824
C27_3 C 0.15756(15) 0.78392(16) 0.4902(5)
H21_3 H 0.1829 0.8050 0.4904
N4_3 N 0.10846(12) 0.84696(12) 0.3872(3)
N5_3 N 0.28783(12) 0.55414(13) 0.4082(3)
N7_2 N 0.13094(12) 0.65928(13) 0.5971(4)
C1_3 C 0.95563(15) 0.54215(16) 0.8628(5)
H1_3 H 0.9587 0.5281 0.7721
N1_3 N 0.92190(12) 0.53183(13) 0.9542(4)
N2_3 N 0.98420(12) 0.57435(14) 0.9143(4)
C10_4 C 0.20338(14) 0.04090(14) 0.2265(4)
H8_4 H 0.2229 0.0476 0.3046
C11_4 C 0.1461(2) 0.0158(3) 0.0991(6)
H9_4 H 0.1178 0.0016 0.0722
C12_4 C 0.17572(18) 0.0379(2) 0.0103(6)
C13_4 C 0.25170(13) 0.08109(16) 0.0414(5)
C14_4 C 0.27514(15) 0.11114(16) 0.1368(5)
H11_4 H 0.2649 0.1142 0.2318
C15_4 C 0.31358(15) 0.13623(18) 0.0893(4)
H12_4 H 0.3295 0.1562 0.1533
C19_4 C 0.36896(15) 0.38573(15) 0.0653(4)
C20_4 C 0.41970(15) 0.41025(16) 0.2180(5)
H16_4 H 0.4373 0.4305 0.2770
C21_4 C 0.42431(15) 0.36260(16) 0.2099(5)
H17_4 H 0.4457 0.3437 0.2605
C22_4 C 0.38517(14) 0.29852(14) 0.0645(4)
C23_4 C 0.42267(15) 0.26714(15) 0.0665(4)
H18_4 H 0.4515 0.2769 0.1036
C24_4 C 0.41724(14) 0.22131(14) 0.0134(4)
H19_4 H 0.4424 0.2000 0.0154
C27_4 C 0.34244(15) 0.28392(16) 0.0098(5)
H21_4 H 0.3171 0.3050 0.0096
N4_4 N 0.39154(12) 0.34696(12) 0.1128(3)
N5_4 N 0.21217(12) 0.05414(13) 0.0918(3)
C1_4 C 0.54437(15) 0.04215(16) 0.6372(5)
H1_4 H 0.5413 0.0281 0.7279
C2_2 C 0.56933(18) 0.0597(2) 0.4283(5)
H2_2 H 0.5871 0.0600 0.3440
C3_2 C 0.53152(17) 0.0865(2) 0.4522(5)
H3_2 H 0.5184 0.1090 0.3899
C4_3 C 0.47664(13) 0.09572(15) 0.6638(4)
C5_3 C 0.44762(14) 0.06772(15) 0.7460(5)
H4_3 H 0.4519 0.0345 0.7482
C6_3 C 0.41243(16) 0.08826(16) 0.8249(5)
H5_3 H 0.3932 0.0688 0.8815
C7_3 C 0.40482(13) 0.13728(14) 0.8222(4)
C8_3 C 0.43384(14) 0.16502(14) 0.7353(4)
H6_3 H 0.4288 0.1980 0.7292
C9_3 C 0.46978(14) 0.14452(15) 0.6581(5)
H7_3 H 0.4894 0.1637 0.6021
H10_3 H 0.1722 0.0417 0.9110
C16_3 C 0.32907(14) 0.13244(15) 0.9485(4)
C17_3 C 0.30524(17) 0.10345(17) 0.8573(5)
H13_3 H 0.3149 0.1011 0.7616
C18_3 C 0.26693(18) 0.0772(2) 0.9032(5)
H14_3 H 0.2515 0.0568 0.8392
H15_3 H 0.3448 0.3850 0.9975
C25_3 C 0.37479(14) 0.20679(15) 0.9575(5)
C26_3 C 0.33739(16) 0.23837(16) 0.9557(5)
H20_3 H 0.3087 0.2287 0.9176
N1_4 N 0.57810(12) 0.03183(13) 0.5458(4)
N2_4 N 0.51580(12) 0.07435(14) 0.5857(4)
N7_3 N 0.36906(12) 0.15928(13) 0.9029(4)
Cl1_2 Cl 0.68323(7) 0.99924(7) 0.3929(2)
Cl1_3 Cl 0.31677(7) 0.49924(7) 0.8929(2)
C2_3 C 0.43067(18) 0.5597(2) 0.9283(5)
H2_3 H 0.4129 0.5600 0.8440
C3_3 C 0.46848(17) 0.5865(2) 0.9522(5)
H3_3 H 0.4816 0.6090 0.8899
Zn1_3 Zn 0.135029(17) 0.507937(18) 0.08132(6)
C1_5 C 0.04437(15) 0.45785(16) 0.1372(5)
H1_5 H 0.0413 0.4719 0.2279
N1_5 N 0.07810(12) 0.46817(13) 0.0458(4)
N2_5 N 0.01580(12) 0.42565(14) 0.0857(4)
N8_3 N 0.11517(12) 0.57537(12) 0.1253(4)
N9_3 N 0.16381(13) 0.48285(13) 0.2639(4)
C4_4 C 0.97664(13) 0.40428(15) 0.1638(4)
C5_4 C 0.94762(14) 0.43228(15) 0.2460(5)
H4_4 H 0.9519 0.4655 0.2482
C6_4 C 0.91243(16) 0.41174(16) 0.3249(5)
H5_4 H 0.8932 0.4312 0.3815
C7_4 C 0.90482(13) 0.36272(14) 0.3222(4)
C8_4 C 0.93384(14) 0.33498(14) 0.2353(4)
H6_4 H 0.9288 0.3020 0.2292
C9_4 C 0.96978(14) 0.35548(15) 0.1581(5)
H7_4 H 0.9894 0.3363 0.1021
C10_5 C 0.70338(14) 0.45910(14) 0.7265(4)
H8_5 H 0.7229 0.4524 0.8046
C11_5 C 0.6461(2) 0.4842(3) 0.5991(6)
H9_5 H 0.6178 0.4984 0.5722
C12_5 C 0.67572(18) 0.4621(2) 0.5103(6)
H10_4 H 0.6722 0.4583 0.4110
C13_5 C 0.75170(13) 0.41891(16) 0.5414(5)
C14_5 C 0.77514(15) 0.38886(16) 0.6368(5)
H11_5 H 0.7649 0.3858 0.7318
C15_5 C 0.81358(15) 0.36377(18) 0.5893(4)
H12_5 H 0.8295 0.3438 0.6533
C16_4 C 0.82907(14) 0.36756(15) 0.4485(4)
C17_4 C 0.80524(17) 0.39655(17) 0.3573(5)
H13_4 H 0.8149 0.3989 0.2616
C18_4 C 0.76693(18) 0.4228(2) 0.4032(5)
H14_4 H 0.7515 0.4432 0.3392
C19_5 C 0.86896(15) 0.11427(15) 0.5653(4)
H15_4 H 0.8448 0.1150 0.4975
C20_5 C 0.91970(15) 0.08975(16) 0.7180(5)
H16_5 H 0.9373 0.0695 0.7770
C21_5 C 0.92431(15) 0.13740(16) 0.7099(5)
H17_5 H 0.9457 0.1563 0.7605
C22_5 C 0.88517(14) 0.20148(14) 0.5645(4)
C23_5 C 0.92267(15) 0.23286(15) 0.5665(4)
H18_5 H 0.9515 0.2231 0.6036
C24_5 C 0.91724(14) 0.27869(14) 0.5134(4)
H19_5 H 0.9424 0.3000 0.5154
C25_4 C 0.87479(14) 0.29321(15) 0.4575(5)
C26_4 C 0.83739(16) 0.26163(16) 0.4557(5)
H20_4 H 0.8087 0.2713 0.4176
C27_5 C 0.84244(15) 0.21608(16) 0.5098(5)
H21_5 H 0.8171 0.1950 0.5096
N3_3 N 0.88483(12) 0.07537(12) 0.6253(4)
N4_5 N 0.89154(12) 0.15304(12) 0.6128(3)
N5_5 N 0.71217(12) 0.44586(13) 0.5918(3)
N6_3 N 0.66381(13) 0.48285(13) 0.7361(4)
N7_4 N 0.86906(12) 0.34072(13) 0.4029(4)
Zn2_2 Zn 0.635029(17) 0.507937(18) 0.91868(6)
Zn3_2 Zn 0.864971(17) 0.007937(18) 0.58132(6)
Cl1_4 Cl 0.31677(7) 0.00076(7) 0.6071(2)
Zn1_4 Zn 0.364971(17) 0.007937(18) 0.41868(6)
N8_4 N 0.38483(12) 0.07537(12) 0.3747(4)
C1_6 C 0.45563(15) 0.95785(16) 0.3628(5)
H1_6 H 0.4587 0.9719 0.2721
C2_4 C 0.43067(18) 0.9403(2) 0.5717(5)
H2_4 H 0.4129 0.9400 0.6560
C3_4 C 0.46848(17) 0.9135(2) 0.5478(5)
H3_4 H 0.4816 0.8910 0.6101
C4_5 C 0.52336(13) 0.90428(15) 0.3362(4)
C5_5 C 0.55238(14) 0.93228(15) 0.2540(5)
H4_5 H 0.5481 0.9655 0.2518
C6_5 C 0.58757(16) 0.91174(16) 0.1751(5)
H5_5 H 0.6068 0.9312 0.1185
C7_5 C 0.59518(13) 0.86272(14) 0.1778(4)
C8_5 C 0.56616(14) 0.83498(14) 0.2647(4)
H6_5 H 0.5712 0.8020 0.2708
C9_5 C 0.53022(14) 0.85548(15) 0.3419(5)
H7_5 H 0.5106 0.8363 0.3979
H10_5 H 0.8278 0.9583 0.0890
C16_5 C 0.67093(14) 0.86756(15) 0.0515(4)
C17_5 C 0.69476(17) 0.89655(17) 0.1427(5)
H13_5 H 0.6851 0.8989 0.2384
C18_5 C 0.73307(18) 0.9228(2) 0.0968(5)
H14_5 H 0.7485 0.9432 0.1608
H15_5 H 0.6552 0.6150 0.0025
C25_5 C 0.62521(14) 0.79321(15) 0.0425(5)
C26_5 C 0.66261(16) 0.76163(16) 0.0443(5)
H20_5 H 0.6913 0.7713 0.0824
N1_6 N 0.42190(12) 0.96817(13) 0.4542(4)
N2_6 N 0.48420(12) 0.92565(14) 0.4143(4)
N7_5 N 0.63094(12) 0.84072(13) 0.0971(4)
N9_4 N 0.33619(13) 0.98285(13) 0.2361(4)
C10_6 C 0.79662(14) 0.95910(14) 0.7735(4)
H8_6 H 0.7771 0.9524 0.6954
C11_6 C 0.8539(2) 0.9842(3) 0.9009(6)
H9_6 H 0.8822 0.9984 0.9278
C12_6 C 0.82428(18) 0.9621(2) 0.9897(6)
C13_6 C 0.74830(13) 0.91891(16) 0.9586(5)
C14_6 C 0.72486(15) 0.88886(16) 0.8632(5)
H11_6 H 0.7351 0.8858 0.7682
C15_6 C 0.68642(15) 0.86377(18) 0.9107(4)
H12_6 H 0.6705 0.8438 0.8467
C19_6 C 0.63104(15) 0.61427(15) 0.9347(4)
C20_6 C 0.58030(15) 0.58975(16) 0.7820(5)
H16_6 H 0.5627 0.5695 0.7230
C21_6 C 0.57569(15) 0.63740(16) 0.7901(5)
H17_6 H 0.5543 0.6563 0.7395
C22_6 C 0.61483(14) 0.70148(14) 0.9355(4)
C23_6 C 0.57733(15) 0.73286(15) 0.9335(4)
H18_6 H 0.5485 0.7231 0.8964
C24_6 C 0.58276(14) 0.77869(14) 0.9866(4)
H19_6 H 0.5576 0.8000 0.9846
C27_6 C 0.65756(15) 0.71608(16) 0.9902(5)
H21_6 H 0.6829 0.6950 0.9904
N3_4 N 0.61517(12) 0.57537(12) 0.8747(4)
N4_6 N 0.60846(12) 0.65304(12) 0.8872(3)
N5_6 N 0.78783(12) 0.94586(13) 0.9082(3)
N6_4 N 0.83619(13) 0.98285(13) 0.7639(4)
C1_7 C 0.54437(15) 0.45785(16) 0.8628(5)
H1_7 H 0.5413 0.4719 0.7721
C4_6 C 0.47664(13) 0.40428(15) 0.8362(4)
C5_6 C 0.44762(14) 0.43228(15) 0.7540(5)
H4_6 H 0.4519 0.4655 0.7518
C6_6 C 0.41243(16) 0.41174(16) 0.6751(5)
H5_6 H 0.3932 0.4312 0.6185
C7_6 C 0.40482(13) 0.36272(14) 0.6778(4)
C8_6 C 0.43384(14) 0.33498(14) 0.7647(4)
H6_6 H 0.4288 0.3020 0.7708
C9_6 C 0.46978(14) 0.35548(15) 0.8419(5)
H7_6 H 0.4894 0.3363 0.8979
C10_7 C 0.20338(14) 0.45910(14) 0.2735(4)
H8_7 H 0.2229 0.4524 0.1954
C11_7 C 0.1461(2) 0.4842(3) 0.4009(6)
H9_7 H 0.1178 0.4984 0.4278
C12_7 C 0.17572(18) 0.4621(2) 0.4897(6)
H10_6 H 0.1722 0.4583 0.5890
C13_7 C 0.25170(13) 0.41891(16) 0.4586(5)
C14_7 C 0.27514(15) 0.38886(16) 0.3632(5)
H11_7 H 0.2649 0.3858 0.2682
C15_7 C 0.31358(15) 0.36377(18) 0.4107(4)
H12_7 H 0.3295 0.3438 0.3467
C16_6 C 0.32907(14) 0.36756(15) 0.5515(4)
C17_6 C 0.30524(17) 0.39655(17) 0.6427(5)
H13_6 H 0.3149 0.3989 0.7384
C18_6 C 0.26693(18) 0.4228(2) 0.5968(5)
H14_6 H 0.2515 0.4432 0.6608
C19_7 C 0.36896(15) 0.11427(15) 0.4347(4)
H15_6 H 0.3448 0.1150 0.5025
C20_7 C 0.41970(15) 0.08975(16) 0.2820(5)
H16_7 H 0.4373 0.0695 0.2230
C21_7 C 0.42431(15) 0.13740(16) 0.2901(5)
H17_7 H 0.4457 0.1563 0.2395
C22_7 C 0.38517(14) 0.20148(14) 0.4355(4)
C23_7 C 0.42267(15) 0.23286(15) 0.4335(4)
H18_7 H 0.4515 0.2231 0.3964
C24_7 C 0.41724(14) 0.27869(14) 0.4866(4)
H19_7 H 0.4424 0.3000 0.4846
C25_6 C 0.37479(14) 0.29321(15) 0.5425(5)
C26_6 C 0.33739(16) 0.26163(16) 0.5443(5)
H20_6 H 0.3087 0.2713 0.5824
C27_7 C 0.34244(15) 0.21608(16) 0.4902(5)
H21_7 H 0.3171 0.1950 0.4904
N1_7 N 0.57810(12) 0.46817(13) 0.9542(4)
N2_7 N 0.51580(12) 0.42565(14) 0.9143(4)
N4_7 N 0.39154(12) 0.15304(12) 0.3872(3)
N5_7 N 0.21217(12) 0.44586(13) 0.4082(3)
N7_6 N 0.36906(12) 0.34072(13) 0.5971(4)
C10_8 C 0.29662(14) 0.95910(14) 0.2265(4)
H8_8 H 0.2771 0.9524 0.3046
C11_8 C 0.3539(2) 0.9842(3) 0.0991(6)
H9_8 H 0.3822 0.9984 0.0722
C12_8 C 0.32428(18) 0.9621(2) 0.0103(6)
C13_8 C 0.24830(13) 0.91891(16) 0.0414(5)
C14_8 C 0.22486(15) 0.88886(16) 0.1368(5)
H11_8 H 0.2351 0.8858 0.2318
C15_8 C 0.18642(15) 0.86377(18) 0.0893(4)
H12_8 H 0.1705 0.8438 0.1533
C19_8 C 0.13104(15) 0.61427(15) 0.0653(4)
C20_8 C 0.08030(15) 0.58975(16) 0.2180(5)
H16_8 H 0.0627 0.5695 0.2770
C21_8 C 0.07569(15) 0.63740(16) 0.2099(5)
H17_8 H 0.0543 0.6563 0.2605
C22_8 C 0.11483(14) 0.70148(14) 0.0645(4)
C23_8 C 0.07733(15) 0.73286(15) 0.0665(4)
H18_8 H 0.0485 0.7231 0.1036
C24_8 C 0.08276(14) 0.77869(14) 0.0134(4)
H19_8 H 0.0576 0.8000 0.0154
C27_8 C 0.15756(15) 0.71608(16) 0.0098(5)
H21_8 H 0.1829 0.6950 0.0096
N4_8 N 0.10846(12) 0.65304(12) 0.1128(3)
N5_8 N 0.28783(12) 0.94586(13) 0.0918(3)
Cl1_5 Cl 0.81677(7) 0.00076(7) 0.3929(2)
C1_8 C 0.95563(15) 0.95785(16) 0.6372(5)
H1_8 H 0.9587 0.9719 0.7279
C2_5 C 0.93067(18) 0.9403(2) 0.4283(5)
H2_5 H 0.9129 0.9400 0.3440
C3_5 C 0.96848(17) 0.9135(2) 0.4522(5)
H3_5 H 0.9816 0.8910 0.3899
N1_8 N 0.92190(12) 0.96817(13) 0.5458(4)
N2_8 N 0.98420(12) 0.92565(14) 0.5857(4)
Cl1_6 Cl 0.18323(7) 0.50076(7) 0.8929(2)
C2_6 C 0.06933(18) 0.4403(2) 0.9283(5)
H2_6 H 0.0871 0.4400 0.8440
C3_6 C 0.03152(17) 0.4135(2) 0.9522(5)
H3_6 H 0.0184 0.3910 0.8899
C4_7 C 0.97664(13) 0.09572(15) 0.3362(4)
C5_7 C 0.94762(14) 0.06772(15) 0.2540(5)
H4_7 H 0.9519 0.0345 0.2518
C6_7 C 0.91243(16) 0.08826(16) 0.1751(5)
H5_7 H 0.8932 0.0688 0.1185
C7_7 C 0.90482(13) 0.13728(14) 0.1778(4)
C8_7 C 0.93384(14) 0.16502(14) 0.2647(4)
H6_7 H 0.9288 0.1980 0.2708
C9_7 C 0.96978(14) 0.14452(15) 0.3419(5)
H7_7 H 0.9894 0.1637 0.3979
H10_7 H 0.6722 0.0417 0.0890
C16_7 C 0.82907(14) 0.13244(15) 0.0515(4)
C17_7 C 0.80524(17) 0.10345(17) 0.1427(5)
H13_7 H 0.8149 0.1011 0.2384
C18_7 C 0.76693(18) 0.0772(2) 0.0968(5)
H14_7 H 0.7515 0.0568 0.1608
H15_7 H 0.8448 0.3850 0.0025
C25_7 C 0.87479(14) 0.20679(15) 0.0425(5)
C26_7 C 0.83739(16) 0.23837(16) 0.0443(5)
H20_7 H 0.8087 0.2287 0.0824
N7_7 N 0.86906(12) 0.15928(13) 0.0971(4)
Cl1_7 Cl 0.68323(7) 0.50076(7) 0.1071(2)
C2_7 C 0.56933(18) 0.4403(2) 0.0717(5)
H2_7 H 0.5871 0.4400 0.1560
C3_7 C 0.53152(17) 0.4135(2) 0.0478(5)
H3_7 H 0.5184 0.3910 0.1101
Cl1_8 Cl 0.81677(7) 0.49924(7) 0.1071(2)
C2_8 C 0.93067(18) 0.5597(2) 0.0717(5)
H2_8 H 0.9129 0.5600 0.1560
C3_8 C 0.96848(17) 0.5865(2) 0.0478(5)
H3_8 H 0.9816 0.6090 0.1101
C4_8 C 0.02336(13) 0.90428(15) 0.6638(4)
C5_8 C 0.05238(14) 0.93228(15) 0.7460(5)
H4_8 H 0.0481 0.9655 0.7482
C6_8 C 0.08757(16) 0.91174(16) 0.8249(5)
H5_8 H 0.1068 0.9312 0.8815
C7_8 C 0.09518(13) 0.86272(14) 0.8222(4)
C8_8 C 0.06616(14) 0.83498(14) 0.7353(4)
H6_8 H 0.0712 0.8020 0.7292
C9_8 C 0.03022(14) 0.85548(15) 0.6581(5)
H7_8 H 0.0106 0.8363 0.6021
H10_8 H 0.3278 0.9583 0.9110
C16_8 C 0.17093(14) 0.86756(15) 0.9485(4)
C17_8 C 0.19476(17) 0.89655(17) 0.8573(5)
H13_8 H 0.1851 0.8989 0.7616
C18_8 C 0.23307(18) 0.9228(2) 0.9032(5)
H14_8 H 0.2485 0.9432 0.8392
H15_8 H 0.1552 0.6150 0.9975
C25_8 C 0.12521(14) 0.79321(15) 0.9575(5)
C26_8 C 0.16261(16) 0.76163(16) 0.9557(5)
H20_8 H 0.1913 0.7713 0.9176
N7_8 N 0.13094(12) 0.84072(13) 0.9029(4)
loop_
_geom_bond_atom_site_label_1
_geom_bond_atom_site_label_2
_geom_bond_site_symmetry_1
_geom_bond_site_symmetry_2
Zn1 N1 1_555 1_555
C1 H1 1_555 1_555
C4 C5 1_555 1_555
C5 H4 1_555 1_555
C6 C5 1_555 1_555
H5 C6 1_555 1_555
C7 C6 1_555 1_555
C8 C7 1_555 1_555
H6 C8 1_555 1_555
C9 C4 1_555 1_555
H7 C9 1_555 1_555
C10 H8 1_555 1_555
C11 H9 1_555 1_555
C12 C11 1_555 1_555
H10 C12 1_555 1_555
C13 C14 1_555 1_555
C14 H11 1_555 1_555
C15 C14 1_555 1_555
H12 C15 1_555 1_555
C16 C15 1_555 1_555
C17 C16 1_555 1_555
H13 C17 1_555 1_555
C18 C13 1_555 1_555
H14 C18 1_555 1_555
C19 H15 1_555 1_555
C20 H16 1_555 1_555
C21 C20 1_555 1_555
H17 C21 1_555 1_555
C22 C23 1_555 1_555
C23 H18 1_555 1_555
C24 C23 1_555 1_555
H19 C24 1_555 1_555
C25 C24 1_555 1_555
C26 C25 1_555 1_555
H20 C26 1_555 1_555
C27 C22 1_555 1_555
H21 C27 1_555 1_555
N1 C1 1_555 1_555
N2 C1 1_555 1_555
N3 C19 1_555 1_555
N4 C19 1_555 1_555
N5 C10 1_555 1_555
N6 C10 1_555 1_555
N7 C7 1_555 1_555
Zn2 N6 1_555 1_555
Zn3 N3 1_555 1_555
N8 Zn1 1_555 1_555
N9 Zn1 1_555 1_555
C4 N2 1_555 1_555
C8 C9 1_555 1_555
C11 N6 1_555 1_555
C12 N5 1_555 1_555
C13 N5 1_555 1_555
C16 N7 1_555 1_555
C17 C18 1_555 1_555
C20 N3 1_555 1_555
C21 N4 1_555 1_555
C22 N4 1_555 1_555
C25 N7 1_555 1_555
C26 C27 1_555 1_555
C1_2 H1_2 1_555 1_555
C2 H2 1_555 1_555
C3 C2 1_555 1_555
H3 C3 1_555 1_555
N1_2 C1_2 1_555 1_555
N2_2 C1_2 1_555 1_555
C2 N1_2 1_555 1_555
C3 N2_2 1_555 1_555
Cl1 Zn1_2 1_555 1_555
N8_2 Zn1_2 1_555 1_555
C10_2 H8_2 1_555 1_555
C11_2 H9_2 1_555 1_555
C12_2 C11_2 1_555 1_555
C13_2 C14_2 1_555 1_555
C14_2 H11_2 1_555 1_555
C15_2 C14_2 1_555 1_555
H12_2 C15_2 1_555 1_555
C20_2 H16_2 1_555 1_555
C21_2 C20_2 1_555 1_555
H17_2 C21_2 1_555 1_555
C22_2 C23_2 1_555 1_555
C23_2 H18_2 1_555 1_555
C24_2 C23_2 1_555 1_555
H19_2 C24_2 1_555 1_555
C27_2 C22_2 1_555 1_555
H21_2 C27_2 1_555 1_555
N3_2 C19_2 1_555 1_555
N4_2 C19_2 1_555 1_555
N5_2 C10_2 1_555 1_555
N6_2 C10_2 1_555 1_555
Zn2 N3_2 1_555 1_555
C11_2 N6_2 1_555 1_555
C12_2 N5_2 1_555 1_555
C13_2 N5_2 1_555 1_555
C20_2 N3_2 1_555 1_555
C21_2 N4_2 1_555 1_555
C22_2 N4_2 1_555 1_555
C4_2 C5_2 1_555 1_555
C5_2 H4_2 1_555 1_555
C6_2 C5_2 1_555 1_555
H5_2 C6_2 1_555 1_555
C7_2 C6_2 1_555 1_555
C8_2 C7_2 1_555 1_555
H6_2 C8_2 1_555 1_555
C9_2 C4_2 1_555 1_555
H7_2 C9_2 1_555 1_555
C10_3 H8_3 1_555 1_555
C11_3 H9_3 1_555 1_555
C12_3 C11_3 1_555 1_555
H10_2 C12_3 1_555 1_555
C13_3 C14_3 1_555 1_555
C14_3 H11_3 1_555 1_555
C15_3 C14_3 1_555 1_555
H12_3 C15_3 1_555 1_555
C16_2 C15_3 1_555 1_555
C17_2 C16_2 1_555 1_555
H13_2 C17_2 1_555 1_555
C18_2 C13_3 1_555 1_555
H14_2 C18_2 1_555 1_555
C19_3 H15_2 1_555 1_555
C20_3 H16_3 1_555 1_555
C21_3 C20_3 1_555 1_555
H17_3 C21_3 1_555 1_555
C22_3 C23_3 1_555 1_555
C23_3 H18_3 1_555 1_555
C24_3 C23_3 1_555 1_555
H19_3 C24_3 1_555 1_555
C25_2 C24_3 1_555 1_555
C26_2 C25_2 1_555 1_555
H20_2 C26_2 1_555 1_555
C27_3 C22_3 1_555 1_555
H21_3 C27_3 1_555 1_555
N8_2 C19_3 1_555 1_555
N4_3 C19_3 1_555 1_555
N5_3 C10_3 1_555 1_555
N9 C10_3 1_555 1_555
N7_2 C7_2 1_555 1_555
C8_2 C9_2 1_555 1_555
C11_3 N9 1_555 1_555
C12_3 N5_3 1_555 1_555
C13_3 N5_3 1_555 1_555
C16_2 N7_2 1_555 1_555
C17_2 C18_2 1_555 1_555
C20_3 N8_2 1_555 1_555
C21_3 N4_3 1_555 1_555
C22_3 N4_3 1_555 1_555
C25_2 N7_2 1_555 1_555
C26_2 C27_3 1_555 1_555
Zn2 N1_3 1_555 1_555
C1_3 H1_3 1_555 1_555
N1_3 C1_3 1_555 1_555
N2_3 C1_3 1_555 1_555
C10_4 H8_4 1_555 1_555
C11_4 H9_4 1_555 1_555
C12_4 C11_4 1_555 1_555
C13_4 C14_4 1_555 1_555
C14_4 H11_4 1_555 1_555
C15_4 C14_4 1_555 1_555
H12_4 C15_4 1_555 1_555
C20_4 H16_4 1_555 1_555
C21_4 C20_4 1_555 1_555
H17_4 C21_4 1_555 1_555
C22_4 C23_4 1_555 1_555
C23_4 H18_4 1_555 1_555
C24_4 C23_4 1_555 1_555
H19_4 C24_4 1_555 1_555
C27_4 C22_4 1_555 1_555
H21_4 C27_4 1_555 1_555
N8 C19_4 1_555 1_555
N4_4 C19_4 1_555 1_555
N5_4 C10_4 1_555 1_555
N9_2 C10_4 1_555 1_555
C11_4 N9_2 1_555 1_555
C12_4 N5_4 1_555 1_555
C13_4 N5_4 1_555 1_555
C20_4 N8 1_555 1_555
C21_4 N4_4 1_555 1_555
C22_4 N4_4 1_555 1_555
C1_4 H1_4 1_555 1_555
C2_2 H2_2 1_555 1_555
C3_2 C2_2 1_555 1_555
H3_2 C3_2 1_555 1_555
C4_3 C5_3 1_555 1_555
C5_3 H4_3 1_555 1_555
C6_3 C5_3 1_555 1_555
H5_3 C6_3 1_555 1_555
C7_3 C6_3 1_555 1_555
C8_3 C7_3 1_555 1_555
H6_3 C8_3 1_555 1_555
C9_3 C4_3 1_555 1_555
H7_3 C9_3 1_555 1_555
C17_3 C16_3 1_555 1_555
H13_3 C17_3 1_555 1_555
H14_3 C18_3 1_555 1_555
C26_3 C25_3 1_555 1_555
H20_3 C26_3 1_555 1_555
N1_4 C1_4 1_555 1_555
N2_4 C1_4 1_555 1_555
N7_3 C7_3 1_555 1_555
C2_2 N1_4 1_555 1_555
C3_2 N2_4 1_555 1_555
C4_3 N2_4 1_555 1_555
C8_3 C9_3 1_555 1_555
C16_3 N7_3 1_555 1_555
C17_3 C18_3 1_555 1_555
C25_3 N7_3 1_555 1_555
Cl1_2 Zn3 1_555 1_555
C2_3 H2_3 1_555 1_555
C3_3 C2_3 1_555 1_555
H3_3 C3_3 1_555 1_555
Zn1_3 N1_5 1_555 1_555
C1_5 H1_5 1_555 1_555
N1_5 C1_5 1_555 1_555
N2_5 C1_5 1_555 1_555
N8_3 Zn1_3 1_555 1_555
N9_3 Zn1_3 1_555 1_555
C4_4 C5_4 1_555 1_555
C5_4 H4_4 1_555 1_555
C6_4 C5_4 1_555 1_555
H5_4 C6_4 1_555 1_555
C7_4 C6_4 1_555 1_555
C8_4 C7_4 1_555 1_555
H6_4 C8_4 1_555 1_555
C9_4 C4_4 1_555 1_555
H7_4 C9_4 1_555 1_555
C10_5 H8_5 1_555 1_555
C11_5 H9_5 1_555 1_555
C12_5 C11_5 1_555 1_555
H10_4 C12_5 1_555 1_555
C13_5 C14_5 1_555 1_555
C14_5 H11_5 1_555 1_555
C15_5 C14_5 1_555 1_555
H12_5 C15_5 1_555 1_555
C16_4 C15_5 1_555 1_555
C17_4 C16_4 1_555 1_555
H13_4 C17_4 1_555 1_555
C18_4 C13_5 1_555 1_555
H14_4 C18_4 1_555 1_555
C19_5 H15_4 1_555 1_555
C20_5 H16_5 1_555 1_555
C21_5 C20_5 1_555 1_555
H17_5 C21_5 1_555 1_555
C22_5 C23_5 1_555 1_555
C23_5 H18_5 1_555 1_555
C24_5 C23_5 1_555 1_555
H19_5 C24_5 1_555 1_555
C25_4 C24_5 1_555 1_555
C26_4 C25_4 1_555 1_555
H20_4 C26_4 1_555 1_555
C27_5 C22_5 1_555 1_555
H21_5 C27_5 1_555 1_555
N3_3 C19_5 1_555 1_555
N4_5 C19_5 1_555 1_555
N5_5 C10_5 1_555 1_555
N6_3 C10_5 1_555 1_555
N7_4 C7_4 1_555 1_555
Zn2_2 N6_3 1_555 1_555
Zn3_2 N3_3 1_555 1_555
C8_4 C9_4 1_555 1_555
C11_5 N6_3 1_555 1_555
C12_5 N5_5 1_555 1_555
C13_5 N5_5 1_555 1_555
C16_4 N7_4 1_555 1_555
C17_4 C18_4 1_555 1_555
C20_5 N3_3 1_555 1_555
C21_5 N4_5 1_555 1_555
C22_5 N4_5 1_555 1_555
C25_4 N7_4 1_555 1_555
C26_4 C27_5 1_555 1_555
Cl1_4 Zn1_4 1_555 1_555
N8_4 Zn1_4 1_555 1_555
C1_6 H1_6 1_555 1_555
C2_4 H2_4 1_555 1_555
C3_4 C2_4 1_555 1_555
H3_4 C3_4 1_555 1_555
C4_5 C5_5 1_555 1_555
C5_5 H4_5 1_555 1_555
C6_5 C5_5 1_555 1_555
H5_5 C6_5 1_555 1_555
C7_5 C6_5 1_555 1_555
C8_5 C7_5 1_555 1_555
H6_5 C8_5 1_555 1_555
C9_5 C4_5 1_555 1_555
H7_5 C9_5 1_555 1_555
C17_5 C16_5 1_555 1_555
H13_5 C17_5 1_555 1_555
H14_5 C18_5 1_555 1_555
C26_5 C25_5 1_555 1_555
H20_5 C26_5 1_555 1_555
N1_6 C1_6 1_555 1_555
N2_6 C1_6 1_555 1_555
N7_5 C7_5 1_555 1_555
C2_4 N1_6 1_555 1_555
C3_4 N2_6 1_555 1_555
C4_5 N2_6 1_555 1_555
C8_5 C9_5 1_555 1_555
C16_5 N7_5 1_555 1_555
C17_5 C18_5 1_555 1_555
C25_5 N7_5 1_555 1_555
C10_6 H8_6 1_555 1_555
C11_6 H9_6 1_555 1_555
C12_6 C11_6 1_555 1_555
C13_6 C14_6 1_555 1_555
C14_6 H11_6 1_555 1_555
C15_6 C14_6 1_555 1_555
H12_6 C15_6 1_555 1_555
C20_6 H16_6 1_555 1_555
C21_6 C20_6 1_555 1_555
H17_6 C21_6 1_555 1_555
C22_6 C23_6 1_555 1_555
C23_6 H18_6 1_555 1_555
C24_6 C23_6 1_555 1_555
H19_6 C24_6 1_555 1_555
C27_6 C22_6 1_555 1_555
H21_6 C27_6 1_555 1_555
N3_4 C19_6 1_555 1_555
N4_6 C19_6 1_555 1_555
N5_6 C10_6 1_555 1_555
N6_4 C10_6 1_555 1_555
Zn2_2 N3_4 1_555 1_555
C11_6 N6_4 1_555 1_555
C12_6 N5_6 1_555 1_555
C13_6 N5_6 1_555 1_555
C20_6 N3_4 1_555 1_555
C21_6 N4_6 1_555 1_555
C22_6 N4_6 1_555 1_555
Zn2_2 N1_7 1_555 1_555
C1_7 H1_7 1_555 1_555
C4_6 C5_6 1_555 1_555
C5_6 H4_6 1_555 1_555
C6_6 C5_6 1_555 1_555
H5_6 C6_6 1_555 1_555
C7_6 C6_6 1_555 1_555
C8_6 C7_6 1_555 1_555
H6_6 C8_6 1_555 1_555
C9_6 C4_6 1_555 1_555
H7_6 C9_6 1_555 1_555
C10_7 H8_7 1_555 1_555
C11_7 H9_7 1_555 1_555
C12_7 C11_7 1_555 1_555
H10_6 C12_7 1_555 1_555
C13_7 C14_7 1_555 1_555
C14_7 H11_7 1_555 1_555
C15_7 C14_7 1_555 1_555
H12_7 C15_7 1_555 1_555
C16_6 C15_7 1_555 1_555
C17_6 C16_6 1_555 1_555
H13_6 C17_6 1_555 1_555
C18_6 C13_7 1_555 1_555
H14_6 C18_6 1_555 1_555
C19_7 H15_6 1_555 1_555
C20_7 H16_7 1_555 1_555
C21_7 C20_7 1_555 1_555
H17_7 C21_7 1_555 1_555
C22_7 C23_7 1_555 1_555
C23_7 H18_7 1_555 1_555
C24_7 C23_7 1_555 1_555
H19_7 C24_7 1_555 1_555
C25_6 C24_7 1_555 1_555
C26_6 C25_6 1_555 1_555
H20_6 C26_6 1_555 1_555
C27_7 C22_7 1_555 1_555
H21_7 C27_7 1_555 1_555
N1_7 C1_7 1_555 1_555
N2_7 C1_7 1_555 1_555
N8_4 C19_7 1_555 1_555
N4_7 C19_7 1_555 1_555
N5_7 C10_7 1_555 1_555
N9_3 C10_7 1_555 1_555
N7_6 C7_6 1_555 1_555
C4_6 N2_7 1_555 1_555
C8_6 C9_6 1_555 1_555
C11_7 N9_3 1_555 1_555
C12_7 N5_7 1_555 1_555
C13_7 N5_7 1_555 1_555
C16_6 N7_6 1_555 1_555
C17_6 C18_6 1_555 1_555
C20_7 N8_4 1_555 1_555
C21_7 N4_7 1_555 1_555
C22_7 N4_7 1_555 1_555
C25_6 N7_6 1_555 1_555
C26_6 C27_7 1_555 1_555
C10_8 H8_8 1_555 1_555
C11_8 H9_8 1_555 1_555
C12_8 C11_8 1_555 1_555
C13_8 C14_8 1_555 1_555
C14_8 H11_8 1_555 1_555
C15_8 C14_8 1_555 1_555
H12_8 C15_8 1_555 1_555
C20_8 H16_8 1_555 1_555
C21_8 C20_8 1_555 1_555
H17_8 C21_8 1_555 1_555
C22_8 C23_8 1_555 1_555
C23_8 H18_8 1_555 1_555
C24_8 C23_8 1_555 1_555
H19_8 C24_8 1_555 1_555
C27_8 C22_8 1_555 1_555
H21_8 C27_8 1_555 1_555
N8_3 C19_8 1_555 1_555
N4_8 C19_8 1_555 1_555
N5_8 C10_8 1_555 1_555
N9_4 C10_8 1_555 1_555
C11_8 N9_4 1_555 1_555
C12_8 N5_8 1_555 1_555
C13_8 N5_8 1_555 1_555
C20_8 N8_3 1_555 1_555
C21_8 N4_8 1_555 1_555
C22_8 N4_8 1_555 1_555
Cl1_5 Zn3_2 1_555 1_555
C1_8 H1_8 1_555 1_555
C2_5 H2_5 1_555 1_555
C3_5 C2_5 1_555 1_555
H3_5 C3_5 1_555 1_555
N1_8 C1_8 1_555 1_555
N2_8 C1_8 1_555 1_555
C2_5 N1_8 1_555 1_555
C3_5 N2_8 1_555 1_555
C2_6 H2_6 1_555 1_555
C3_6 C2_6 1_555 1_555
H3_6 C3_6 1_555 1_555
C4_7 C5_7 1_555 1_555
C5_7 H4_7 1_555 1_555
C6_7 C5_7 1_555 1_555
H5_7 C6_7 1_555 1_555
C7_7 C6_7 1_555 1_555
C8_7 C7_7 1_555 1_555
H6_7 C8_7 1_555 1_555
C9_7 C4_7 1_555 1_555
H7_7 C9_7 1_555 1_555
C17_7 C16_7 1_555 1_555
H13_7 C17_7 1_555 1_555
H14_7 C18_7 1_555 1_555
C26_7 C25_7 1_555 1_555
H20_7 C26_7 1_555 1_555
N7_7 C7_7 1_555 1_555
C8_7 C9_7 1_555 1_555
C16_7 N7_7 1_555 1_555
C17_7 C18_7 1_555 1_555
C25_7 N7_7 1_555 1_555
C2_7 H2_7 1_555 1_555
C3_7 C2_7 1_555 1_555
H3_7 C3_7 1_555 1_555
C2_8 H2_8 1_555 1_555
C3_8 C2_8 1_555 1_555
H3_8 C3_8 1_555 1_555
C4_8 C5_8 1_555 1_555
C5_8 H4_8 1_555 1_555
C6_8 C5_8 1_555 1_555
H5_8 C6_8 1_555 1_555
C7_8 C6_8 1_555 1_555
C8_8 C7_8 1_555 1_555
H6_8 C8_8 1_555 1_555
C9_8 C4_8 1_555 1_555
H7_8 C9_8 1_555 1_555
C17_8 C16_8 1_555 1_555
H13_8 C17_8 1_555 1_555
H14_8 C18_8 1_555 1_555
C26_8 C25_8 1_555 1_555
H20_8 C26_8 1_555 1_555
N7_8 C7_8 1_555 1_555
C8_8 C9_8 1_555 1_555
C16_8 N7_8 1_555 1_555
C17_8 C18_8 1_555 1_555
C25_8 N7_8 1_555 1_555

#END
