
###############################################################################
#
# This file contains modified crystal structure data generated from the
# MOF subset of the Cambridge Structural Database (CSD) v543 
# hosted by the Cambridge Crystallographic Data Centre (CCDC).
#
# This work is licensed under the Creative Commons
# Attribution-NonCommercial-ShareAlike 4.0 International License.
# To view a copy of this license, visit
# http://creativecommons.org/licenses/by-nc-sa/4.0/
# or send a letter to
# Creative Commons, PO Box 1866, Mountain View, CA 94042, USA.
#
# CIF created using the CSD Python API on 29 September 2022
# The structure has been converted into the P1 space group
# The structure has a 3D framework
# The original CSD entry KOMDAT is in the orthorhombic crystal system
# The framework has been calculated to contain at least 10.0% void space
# The void calculation uses a probe of radius 1.32A, grid spacing 0.4
# The framework is charged, counterions have been retained in the structure
#
###############################################################################

data_KOMDAT
_chemical_formula_moiety         '(C432 H328 Cl16 I20 N112 Zn16 4-)n'
_symmetry_cell_setting           triclinic
_symmetry_space_group_name_H-M   'P 1'
_symmetry_Int_Tables_number      1
_space_group_name_Hall           'P 1'
loop_
_symmetry_equiv_pos_site_id
_symmetry_equiv_pos_as_xyz
1 x,y,z
_cell_length_a                   8.960(5)
_cell_length_b                   28.437(14)
_cell_length_c                   56.80(3)
_cell_angle_alpha                90
_cell_angle_beta                 90
_cell_angle_gamma                90
_cell_volume                     14472.4
loop_
_atom_site_label
_atom_site_type_symbol
_atom_site_fract_x
_atom_site_fract_y
_atom_site_fract_z
I2 I 0.0000 0.5000 0.0000
I2_2 I 0.0000 0.5000 1.0000
I3 I 0.2278(4) 0.42104(11) 0.99380(5)
I1 I 0.7722(4) 0.57896(11) 0.00620(5)
I2_3 I 1.0000 0.5000 0.0000
I2_4 I 1.0000 0.5000 1.0000
I2_5 I 0.5000 0.0000 0.5000
I3_2 I 0.2722(4) 0.07896(11) 0.49380(5)
I1_2 I 0.7278(4) 0.92104(11) 0.50620(5)
I2_6 I 0.5000 1.0000 0.5000
I1_3 I 0.2278(4) 0.57896(11) 0.49380(5)
I2_7 I -0.0000 0.5000 0.5000
I2_8 I 1.0000 0.5000 0.5000
I3_3 I 0.7722(4) 0.42104(11) 0.50620(5)
I2_9 I 0.5000 0.0000 0.0000
I3_4 I 0.7278(4) 0.07896(11) 0.00620(5)
I2_10 I 0.5000 0.0000 1.0000
I2_11 I 0.5000 1.0000 0.0000
I1_4 I 0.2722(4) 0.92104(11) 0.99380(5)
I2_12 I 0.5000 1.0000 1.0000
C1 C 0.1760(12) 0.0316(4) 0.1810(2)
H1 H 0.2478 0.0561 0.1809
N1 N 0.1173(14) 0.0092(4) 0.20137(15)
N2 N 0.1087(14) 0.0107(4) 0.16095(14)
C4 C 0.2774(14) 0.0657(3) 0.2534(2)
H4 H 0.3098 0.0960 0.2582
C5 C 0.2244(14) 0.0587(4) 0.23065(19)
H5 H 0.2206 0.0842 0.2199
C6 C 0.1771(14) 0.0143(4) 0.22364(16)
C9 C 0.2831(14) 0.0283(4) 0.26911(16)
C10 C 0.3023(10) 0.2324(4) 0.3509(2)
H8 H 0.4048 0.2367 0.3472
C11 C 0.2118(13) 0.2640(3) 0.3639(2)
H9 H 0.2430 0.2932 0.3704
N3 N 0.0663(11) 0.2445(4) 0.36548(19)
C12 C 0.0669(11) 0.2008(3) 0.3534(2)
N4 N 0.2128(13) 0.1933(3) 0.34439(18)
C13 C 0.3838(12) 0.1371(4) 0.33333(19)
H11 H 0.4556 0.1511 0.3435
C14 C 0.2408(14) 0.1559(3) 0.33190(19)
C15 C 0.1358(11) 0.1355(4) 0.3171(2)
H12 H 0.0381 0.1483 0.3161
C16 C 0.1738(12) 0.0964(4) 0.30365(18)
H13 H 0.1020 0.0825 0.2935
C17 C 0.3168(14) 0.0777(3) 0.30508(19)
C18 C 0.4218(11) 0.0980(4) 0.3199(2)
H14 H 0.5196 0.0853 0.3209
H20 H 0.3626 0.0144 0.3369
Cl1 Cl 0.3412(5) 0.08133(15) 0.12813(7)
N9 N 0.3525(17) 0.0348(5) 0.2920(2)
Zn1 Zn 0.1563(2) 0.03105(7) 0.12988(4)
C2 C 0.0136(14) 0.9745(4) 0.1939(2)
C3 C 0.0083(13) 0.9755(4) 0.1689(2)
C7 C 0.1827(14) 0.9769(3) 0.2394(2)
H6 H 0.1504 0.9465 0.2346
C8 C 0.2357(14) 0.9839(4) 0.26210(19)
H7 H 0.2396 0.9583 0.2729
C19 C 0.596(2) 0.8653(6) 0.3539(3)
H15 H 0.5030 0.8751 0.3601
C20 C 0.807(2) 0.8311(6) 0.3505(3)
H16 H 0.8930 0.8127 0.3534
C21 C 0.793(2) 0.8697(6) 0.3331(3)
H17 H 0.8611 0.8799 0.3214
C22 C 0.5902(12) 0.9299(4) 0.30177(19)
H18 H 0.6481 0.9084 0.2928
C23 C 0.5200(13) 0.9675(4) 0.29071(14)
H19 H 0.5300 0.9717 0.2742
C24 C 0.4352(13) 0.9990(3) 0.30381(19)
C25 C 0.4205(12) 0.9929(4) 0.32798(18)
C26 C 0.4907(13) 0.9553(4) 0.33904(14)
H21 H 0.4806 0.9511 0.3556
C27 C 0.5755(13) 0.9238(3) 0.32594(19)
N5 N 0.2126(12) 0.9789(3) 0.11077(17)
C28 C 0.1158(10) 0.9415(4) 0.1044(2)
H22 H 0.0150 0.9379 0.1093
C29 C 0.1961(13) 0.9103(3) 0.08955(19)
N6 N 0.3425(11) 0.9285(4) 0.08667(17)
C30 C 0.3527(10) 0.9709(3) 0.09978(19)
H23 H 0.4383 0.9905 0.1010
C31 C 0.0235(12) 0.8448(3) 0.09017(13)
C33 C 0.0064(11) 0.7920(3) 0.05716(17)
C34 C 0.1178(11) 0.8171(3) 0.04566(13)
H26 H 0.1500 0.8076 0.0304
C35 C 0.1820(10) 0.8561(3) 0.05641(17)
H27 H 0.2582 0.8732 0.0486
C36 C 0.1349(11) 0.8699(3) 0.07867(17)
H30 H 0.0435 0.7160 0.0839
H33 H 0.0221 0.6753 0.0259
N10 N 0.6597(18) 0.8859(5) 0.3384(3)
N11 N 0.6687(17) 0.8269(5) 0.3617(2)
Zn4 Zn 0.6198(2) 0.76979(7) 0.37964(4)
H10 H 0.9843 0.1801 0.3517
N17 N 0.9712(9) 0.0582(3) 0.11741(17)
Zn5 Zn 0.8802(2) 0.26979(7) 0.37964(4)
H2 H 0.9576 0.9542 0.2038
H3 H 0.9482 0.9560 0.1592
H24 H 0.9912 0.8543 0.1054
C32 C 0.9592(10) 0.8059(3) 0.07941(17)
H25 H 0.8831 0.7887 0.0873
C37 C 0.7573(18) 0.6429(6) 0.0880(3)
C38 C 0.6945(17) 0.6575(5) 0.0660(3)
H28 H 0.6114 0.6407 0.0599
C39 C 0.7504(18) 0.6956(5) 0.0530(3)
H29 H 0.6980 0.7071 0.0397
C40 C 0.8767(18) 0.7152(5) 0.0597(3)
C41 C 0.9533(18) 0.7007(5) 0.0797(3)
C42 C 0.8993(17) 0.6633(5) 0.0939(3)
H31 H 0.9554 0.6521 0.1069
C44 C 0.9972(12) 0.6987(3) 0.01454(16)
C45 C 0.9487(12) 0.7427(4) 0.02185(13)
C46 C 0.9123(12) 0.7768(3) 0.00529(18)
H34 H 0.8791 0.8069 0.0103
N12 N 0.9354(14) 0.7508(4) 0.0462(2)
N13 N 0.5288(9) 0.5582(3) 0.11741(17)
C52 C 0.6722(11) 0.5374(3) 0.11963(18)
H39 H 0.6938 0.5082 0.1270
C53 C 0.7775(8) 0.5678(4) 0.10880(19)
H40 H 0.8820 0.5625 0.1077
N14 N 0.6992(11) 0.6074(3) 0.09989(16)
C54 C 0.5455(10) 0.6014(3) 0.10521(17)
H41 H 0.4675 0.6227 0.1013
Zn3 Zn 0.3437(2) 0.53105(7) 0.12988(4)
C47 C 0.9244(12) 0.7669(3) 0.98141(16)
H35 H 0.8995 0.7902 0.9701
C48 C 0.9729(12) 0.7228(4) 0.97409(13)
C49 C 0.9156(12) 0.7371(3) 0.93230(19)
H36 H 0.8492 0.7629 0.9341
N8 N 0.9479(12) 0.7131(4) 0.91096(14)
Cl2 Cl 0.7049(6) 0.78641(17) 0.87460(8)
Zn2 Zn 0.8802(2) 0.73021(7) 0.87964(4)
N16 N 0.8313(17) 0.6731(5) 0.8617(2)
C1_2 C 0.3240(12) 0.4684(4) 0.6810(2)
H1_2 H 0.2522 0.4439 0.6809
N1_2 N 0.3827(14) 0.4908(4) 0.70137(15)
C2_2 C 0.4864(14) 0.5255(4) 0.6939(2)
H2_2 H 0.5424 0.5458 0.7038
C3_2 C 0.4917(13) 0.5245(4) 0.6689(2)
H3_2 H 0.5518 0.5440 0.6592
N2_2 N 0.3913(14) 0.4893(4) 0.66095(14)
C4_2 C 0.2226(14) 0.4343(3) 0.7534(2)
H4_2 H 0.1902 0.4040 0.7582
C5_2 C 0.2756(14) 0.4413(4) 0.73065(19)
H5_2 H 0.2794 0.4158 0.7199
C6_2 C 0.3229(14) 0.4857(4) 0.72364(16)
C7_2 C 0.3173(14) 0.5231(3) 0.7394(2)
H6_2 H 0.3496 0.5535 0.7346
C8_2 C 0.2643(14) 0.5161(4) 0.76210(19)
H7_2 H 0.2604 0.5417 0.7729
C9_2 C 0.2169(14) 0.4717(4) 0.76911(16)
C10_2 C 0.1977(10) 0.2676(4) 0.8509(2)
H8_2 H 0.0952 0.2633 0.8472
C11_2 C 0.2882(13) 0.2360(3) 0.8639(2)
H9_2 H 0.2570 0.2068 0.8704
N3_2 N 0.4337(11) 0.2555(4) 0.86548(19)
C12_2 C 0.4331(11) 0.2992(3) 0.8534(2)
H10_2 H 0.5157 0.3199 0.8517
N4_2 N 0.2872(13) 0.3067(3) 0.84439(18)
C13_2 C 0.1162(12) 0.3629(4) 0.83333(19)
H11_2 H 0.0444 0.3489 0.8435
C14_2 C 0.2592(14) 0.3441(3) 0.83190(19)
C15_2 C 0.3642(11) 0.3645(4) 0.8171(2)
H12_2 H 0.4619 0.3517 0.8161
C16_2 C 0.3262(12) 0.4036(4) 0.80365(18)
H13_2 H 0.3980 0.4175 0.7935
C17_2 C 0.1832(14) 0.4223(3) 0.80508(19)
C18_2 C 0.0782(11) 0.4020(4) 0.8199(2)
C24_2 C 0.0648(13) 0.5010(3) 0.80381(19)
C25_2 C 0.0795(12) 0.5071(4) 0.82798(18)
H20_2 H 0.1374 0.4856 0.8369
C26_2 C 0.0093(13) 0.5447(4) 0.83904(14)
H21_2 H 0.0194 0.5489 0.8556
N5_2 N 0.2874(12) 0.5211(3) 0.61077(17)
C28_2 C 0.3842(10) 0.5585(4) 0.6044(2)
H22_2 H 0.4850 0.5621 0.6093
C29_2 C 0.3039(13) 0.5897(3) 0.58955(19)
N6_2 N 0.1575(11) 0.5715(4) 0.58667(17)
C30_2 C 0.1473(10) 0.5291(3) 0.59978(19)
H23_2 H 0.0617 0.5095 0.6010
C31_2 C 0.4765(12) 0.6552(3) 0.59017(13)
H24_2 H 0.5088 0.6457 0.6054
C32_2 C 0.5408(10) 0.6941(3) 0.57941(17)
H25_2 H 0.6169 0.7113 0.5873
C33_2 C 0.4936(11) 0.7080(3) 0.55716(17)
C34_2 C 0.3822(11) 0.6829(3) 0.54566(13)
H26_2 H 0.3500 0.6924 0.5304
C35_2 C 0.3180(10) 0.6439(3) 0.55641(17)
H27_2 H 0.2418 0.6268 0.5486
C36_2 C 0.3651(11) 0.6301(3) 0.57867(17)
C37_2 C 0.7427(18) 0.8571(6) 0.5880(3)
C38_2 C 0.8055(17) 0.8425(5) 0.5660(3)
H28_2 H 0.8886 0.8593 0.5599
C39_2 C 0.7496(18) 0.8044(5) 0.5530(3)
H29_2 H 0.8020 0.7929 0.5397
C40_2 C 0.6233(18) 0.7848(5) 0.5597(3)
C41_2 C 0.5467(18) 0.7993(5) 0.5797(3)
H30_2 H 0.4565 0.7840 0.5839
C42_2 C 0.6007(17) 0.8367(5) 0.5939(3)
H31_2 H 0.5446 0.8479 0.6069
C43 C 0.4906(12) 0.8113(3) 0.49065(18)
H32 H 0.4575 0.8414 0.4857
C44_2 C 0.5028(12) 0.8013(3) 0.51454(16)
H33_2 H 0.4779 0.8247 0.5259
C45_2 C 0.5513(12) 0.7573(4) 0.52185(13)
C46_2 C 0.5877(12) 0.7232(3) 0.50529(18)
H34_2 H 0.6209 0.6931 0.5103
C47_2 C 0.5756(12) 0.7331(3) 0.48141(16)
H35_2 H 0.6005 0.7098 0.4701
C48_2 C 0.5271(12) 0.7772(4) 0.47409(13)
C49_2 C 0.5844(12) 0.7629(3) 0.43230(19)
H36_2 H 0.6508 0.7371 0.4341
N7 N 0.4998(13) 0.7843(4) 0.45054(14)
C50 C 0.4153(12) 0.8215(4) 0.44047(19)
H37 H 0.3489 0.8417 0.4487
C51 C 0.4477(13) 0.8231(4) 0.41601(17)
H38 H 0.4066 0.8445 0.4050
N8_2 N 0.5521(12) 0.7869(4) 0.41096(14)
Cl1_2 Cl 0.1588(5) 0.41867(15) 0.62813(7)
Cl2_2 Cl 0.7951(6) 0.71359(17) 0.37460(8)
N9_2 N 0.1475(17) 0.4652(5) 0.7920(2)
N12_2 N 0.5646(14) 0.7492(4) 0.5462(2)
N13_2 N 0.9712(9) 0.9418(3) 0.61741(17)
C52_2 C 0.8278(11) 0.9626(3) 0.61963(18)
H39_2 H 0.8062 0.9918 0.6270
C53_2 C 0.7225(8) 0.9322(4) 0.60880(19)
H40_2 H 0.6180 0.9375 0.6077
N14_2 N 0.8008(11) 0.8926(3) 0.59989(16)
C54_2 C 0.9545(10) 0.8986(3) 0.60521(17)
Zn1_2 Zn 0.3437(2) 0.46895(7) 0.62988(4)
N15 N 0.4337(11) 0.7445(4) 0.36548(19)
N17_2 N 0.5288(9) 0.4418(3) 0.61741(17)
Zn5_2 Zn 0.6198(2) 0.23021(7) 0.87964(4)
H14_2 H 0.9804 0.4147 0.8209
C19_2 C 0.904(2) 0.6347(6) 0.8539(3)
H15_2 H 0.9970 0.6249 0.8601
C20_2 C 0.693(2) 0.6689(6) 0.8505(3)
H16_2 H 0.6070 0.6873 0.8534
C21_2 C 0.707(2) 0.6303(6) 0.8331(3)
H17_2 H 0.6389 0.6201 0.8214
C22_2 C 0.9098(12) 0.5701(4) 0.80177(19)
H18_2 H 0.8519 0.5916 0.7928
C23_2 C 0.9800(13) 0.5325(4) 0.79071(14)
H19_2 H 0.9700 0.5283 0.7742
C27_2 C 0.9245(13) 0.5762(3) 0.82594(19)
N10_2 N 0.8403(18) 0.6141(5) 0.8384(3)
C2_3 C 0.0136(14) 0.0255(4) 0.6939(2)
C3_3 C 0.0083(13) 0.0245(4) 0.6689(2)
C7_3 C 0.1827(14) 0.0231(3) 0.7394(2)
H6_3 H 0.1504 0.0535 0.7346
C8_3 C 0.2357(14) 0.0161(4) 0.76210(19)
H7_3 H 0.2396 0.0417 0.7729
C19_3 C 0.596(2) 0.1347(6) 0.8539(3)
H15_3 H 0.5030 0.1249 0.8601
C20_3 C 0.807(2) 0.1689(6) 0.8505(3)
H16_3 H 0.8930 0.1873 0.8534
C21_3 C 0.793(2) 0.1303(6) 0.8331(3)
H17_3 H 0.8611 0.1201 0.8214
C22_3 C 0.5902(12) 0.0701(4) 0.80177(19)
H18_3 H 0.6481 0.0916 0.7928
C23_3 C 0.5200(13) 0.0325(4) 0.79071(14)
H19_3 H 0.5300 0.0283 0.7742
C24_3 C 0.4352(13) 0.0010(3) 0.80381(19)
C25_3 C 0.4205(12) 0.0071(4) 0.82798(18)
C26_3 C 0.4907(13) 0.0447(4) 0.83904(14)
H21_3 H 0.4806 0.0489 0.8556
C27_3 C 0.5755(13) 0.0762(3) 0.82594(19)
N5_3 N 0.2126(12) 0.0211(3) 0.61077(17)
C28_3 C 0.1158(10) 0.0585(4) 0.6044(2)
H22_3 H 0.0150 0.0621 0.6093
C29_3 C 0.1961(13) 0.0897(3) 0.58955(19)
N6_3 N 0.3425(11) 0.0715(4) 0.58667(17)
C30_3 C 0.3527(10) 0.0291(3) 0.59978(19)
H23_3 H 0.4383 0.0095 0.6010
C31_3 C 0.0235(12) 0.1552(3) 0.59017(13)
C33_3 C 0.0064(11) 0.2080(3) 0.55716(17)
C34_3 C 0.1178(11) 0.1829(3) 0.54566(13)
H26_3 H 0.1500 0.1924 0.5304
C35_3 C 0.1820(10) 0.1439(3) 0.55641(17)
H27_3 H 0.2582 0.1268 0.5486
C36_3 C 0.1349(11) 0.1301(3) 0.57867(17)
H30_3 H 0.0435 0.2840 0.5839
C43_2 C 0.0094(12) 0.3113(3) 0.49065(18)
H32_2 H 0.0425 0.3414 0.4857
H33_3 H 0.0221 0.3247 0.5259
N7_2 N 0.0002(13) 0.2843(4) 0.45054(14)
C50_2 C 0.0847(12) 0.3215(4) 0.44047(19)
H37_2 H 0.1511 0.3417 0.4487
C51_2 C 0.0523(13) 0.3231(4) 0.41601(17)
H38_2 H 0.0934 0.3445 0.4050
N10_3 N 0.6597(18) 0.1141(5) 0.8384(3)
N11_2 N 0.6687(17) 0.1731(5) 0.8617(2)
H2_3 H 0.9576 0.0458 0.7038
H3_3 H 0.9482 0.0440 0.6592
H24_3 H 0.9912 0.1457 0.6054
C32_3 C 0.9592(10) 0.1941(3) 0.57941(17)
H25_3 H 0.8831 0.2113 0.5873
C37_3 C 0.7573(18) 0.3571(6) 0.5880(3)
C38_3 C 0.6945(17) 0.3425(5) 0.5660(3)
H28_3 H 0.6114 0.3593 0.5599
C39_3 C 0.7504(18) 0.3044(5) 0.5530(3)
H29_3 H 0.6980 0.2929 0.5397
C40_3 C 0.8767(18) 0.2848(5) 0.5597(3)
C41_3 C 0.9533(18) 0.2993(5) 0.5797(3)
C42_3 C 0.8993(17) 0.3367(5) 0.5939(3)
H31_3 H 0.9554 0.3479 0.6069
C44_3 C 0.9972(12) 0.3013(3) 0.51454(16)
C45_3 C 0.9487(12) 0.2573(4) 0.52185(13)
C46_3 C 0.9123(12) 0.2232(3) 0.50529(18)
H34_3 H 0.8791 0.1931 0.5103
C47_3 C 0.9244(12) 0.2331(3) 0.48141(16)
H35_3 H 0.8995 0.2098 0.4701
C48_3 C 0.9729(12) 0.2772(4) 0.47409(13)
C49_3 C 0.9156(12) 0.2629(3) 0.43230(19)
H36_3 H 0.8492 0.2371 0.4341
N8_3 N 0.9479(12) 0.2869(4) 0.41096(14)
Cl2_3 Cl 0.7049(6) 0.21359(17) 0.37460(8)
N12_3 N 0.9354(14) 0.2492(4) 0.5462(2)
C52_3 C 0.6722(11) 0.4626(3) 0.61963(18)
H39_3 H 0.6938 0.4918 0.6270
C53_3 C 0.7775(8) 0.4322(4) 0.60880(19)
H40_3 H 0.8820 0.4375 0.6077
N14_3 N 0.6992(11) 0.3926(3) 0.59989(16)
C54_3 C 0.5455(10) 0.3986(3) 0.60521(17)
H41_2 H 0.4675 0.3773 0.6013
N16_2 N 0.8313(17) 0.3269(5) 0.3617(2)
H10_3 H 0.9843 0.8199 0.8517
H41_3 H 0.0325 0.1227 0.1013
C1_3 C 0.3240(12) 0.5316(4) 0.1810(2)
H1_3 H 0.2522 0.5561 0.1809
N1_3 N 0.3827(14) 0.5092(4) 0.20137(15)
C2_4 C 0.4864(14) 0.4745(4) 0.1939(2)
H2_4 H 0.5424 0.4542 0.2038
C3_4 C 0.4917(13) 0.4755(4) 0.1689(2)
H3_4 H 0.5518 0.4560 0.1592
N2_3 N 0.3913(14) 0.5107(4) 0.16095(14)
C4_3 C 0.2226(14) 0.5657(3) 0.2534(2)
H4_3 H 0.1902 0.5960 0.2582
C5_3 C 0.2756(14) 0.5587(4) 0.23065(19)
H5_3 H 0.2794 0.5842 0.2199
C6_3 C 0.3229(14) 0.5143(4) 0.22364(16)
C7_4 C 0.3173(14) 0.4769(3) 0.2394(2)
H6_4 H 0.3496 0.4465 0.2346
C8_4 C 0.2643(14) 0.4839(4) 0.26210(19)
H7_4 H 0.2604 0.4583 0.2729
C9_3 C 0.2169(14) 0.5283(4) 0.26911(16)
C10_3 C 0.1977(10) 0.7324(4) 0.3509(2)
H8_3 H 0.0952 0.7367 0.3472
C11_3 C 0.2882(13) 0.7640(3) 0.3639(2)
H9_3 H 0.2570 0.7932 0.3704
C12_3 C 0.4331(11) 0.7008(3) 0.3534(2)
H10_4 H 0.5157 0.6801 0.3517
N4_3 N 0.2872(13) 0.6933(3) 0.34439(18)
C13_3 C 0.1162(12) 0.6371(4) 0.33333(19)
H11_3 H 0.0444 0.6511 0.3435
C14_3 C 0.2592(14) 0.6559(3) 0.33190(19)
C15_3 C 0.3642(11) 0.6355(4) 0.3171(2)
H12_3 H 0.4619 0.6483 0.3161
C16_3 C 0.3262(12) 0.5964(4) 0.30365(18)
H13_3 H 0.3980 0.5825 0.2935
C17_3 C 0.1832(14) 0.5777(3) 0.30508(19)
C18_3 C 0.0782(11) 0.5980(4) 0.3199(2)
C24_4 C 0.0648(13) 0.4990(3) 0.30381(19)
C25_4 C 0.0795(12) 0.4929(4) 0.32798(18)
H20_3 H 0.1374 0.5144 0.3369
C26_4 C 0.0093(13) 0.4553(4) 0.33904(14)
H21_4 H 0.0194 0.4511 0.3556
N5_4 N 0.2874(12) 0.4789(3) 0.11077(17)
C28_4 C 0.3842(10) 0.4415(4) 0.1044(2)
H22_4 H 0.4850 0.4379 0.1093
C29_4 C 0.3039(13) 0.4103(3) 0.08955(19)
N6_4 N 0.1575(11) 0.4285(4) 0.08667(17)
C30_4 C 0.1473(10) 0.4709(3) 0.09978(19)
H23_4 H 0.0617 0.4905 0.1010
C31_4 C 0.4765(12) 0.3448(3) 0.09017(13)
H24_4 H 0.5088 0.3543 0.1054
C32_4 C 0.5408(10) 0.3059(3) 0.07941(17)
H25_4 H 0.6169 0.2887 0.0873
C33_4 C 0.4936(11) 0.2920(3) 0.05716(17)
C34_4 C 0.3822(11) 0.3171(3) 0.04566(13)
H26_4 H 0.3500 0.3076 0.0304
C35_4 C 0.3180(10) 0.3561(3) 0.05641(17)
H27_4 H 0.2418 0.3732 0.0486
C36_4 C 0.3651(11) 0.3699(3) 0.07867(17)
C37_4 C 0.7427(18) 0.1429(6) 0.0880(3)
C38_4 C 0.8055(17) 0.1575(5) 0.0660(3)
H28_4 H 0.8886 0.1407 0.0599
C39_4 C 0.7496(18) 0.1956(5) 0.0530(3)
H29_4 H 0.8020 0.2071 0.0397
C40_4 C 0.6233(18) 0.2152(5) 0.0597(3)
C41_4 C 0.5467(18) 0.2007(5) 0.0797(3)
H30_4 H 0.4565 0.2160 0.0839
C42_4 C 0.6007(17) 0.1633(5) 0.0939(3)
H31_4 H 0.5446 0.1521 0.1069
C44_4 C 0.5028(12) 0.1987(3) 0.01454(16)
H33_4 H 0.4779 0.1753 0.0259
C45_4 C 0.5513(12) 0.2427(4) 0.02185(13)
C46_4 C 0.5877(12) 0.2768(3) 0.00529(18)
H34_4 H 0.6209 0.3069 0.0103
Cl1_3 Cl 0.1588(5) 0.58133(15) 0.12813(7)
N9_3 N 0.1475(17) 0.5348(5) 0.2920(2)
N12_4 N 0.5646(14) 0.2508(4) 0.0462(2)
C52_4 C 0.8278(11) 0.0374(3) 0.11963(18)
H39_4 H 0.8062 0.0082 0.1270
C53_4 C 0.7225(8) 0.0678(4) 0.10880(19)
H40_4 H 0.6180 0.0625 0.1077
N14_4 N 0.8008(11) 0.1074(3) 0.09989(16)
C54_4 C 0.9545(10) 0.1014(3) 0.10521(17)
C43_3 C 0.4906(12) 0.1887(3) 0.99065(18)
H32_3 H 0.4575 0.1586 0.9857
C47_4 C 0.5756(12) 0.2669(3) 0.98141(16)
H35_4 H 0.6005 0.2902 0.9701
C48_4 C 0.5271(12) 0.2228(4) 0.97409(13)
C49_4 C 0.5844(12) 0.2371(3) 0.93230(19)
H36_4 H 0.6508 0.2629 0.9341
N7_3 N 0.4998(13) 0.2157(4) 0.95054(14)
C50_3 C 0.4153(12) 0.1785(4) 0.94047(19)
H37_3 H 0.3489 0.1583 0.9487
C51_3 C 0.4477(13) 0.1769(4) 0.91601(17)
H38_3 H 0.4066 0.1555 0.9050
N8_4 N 0.5521(12) 0.2131(4) 0.91096(14)
Cl2_4 Cl 0.7951(6) 0.28641(17) 0.87460(8)
H14_3 H 0.9804 0.5853 0.3209
C19_4 C 0.904(2) 0.3653(6) 0.3539(3)
H15_4 H 0.9970 0.3751 0.3601
C20_4 C 0.693(2) 0.3311(6) 0.3505(3)
H16_4 H 0.6070 0.3127 0.3534
C21_4 C 0.707(2) 0.3697(6) 0.3331(3)
H17_4 H 0.6389 0.3799 0.3214
C22_4 C 0.9098(12) 0.4299(4) 0.30177(19)
H18_4 H 0.8519 0.4084 0.2928
C23_4 C 0.9800(13) 0.4675(4) 0.29071(14)
H19_4 H 0.9700 0.4717 0.2742
C27_4 C 0.9245(13) 0.4238(3) 0.32594(19)
N10_4 N 0.8403(18) 0.3859(5) 0.3384(3)
C43_4 C 0.0094(12) 0.6887(3) 0.99065(18)
H32_4 H 0.0425 0.6586 0.9857
N7_4 N 0.0002(13) 0.7157(4) 0.95054(14)
C50_4 C 0.0847(12) 0.6785(4) 0.94047(19)
H37_4 H 0.1511 0.6583 0.9487
C51_4 C 0.0523(13) 0.6769(4) 0.91601(17)
H38_4 H 0.0934 0.6555 0.9050
N15_2 N 0.0663(11) 0.7555(4) 0.86548(19)
H41_4 H 0.0325 0.8773 0.6013
Zn3_2 Zn 0.1563(2) 0.96895(7) 0.62988(4)
C1_4 C 0.1760(12) 0.9684(4) 0.6810(2)
H1_4 H 0.2478 0.9439 0.6809
N1_4 N 0.1173(14) 0.9908(4) 0.70137(15)
N2_4 N 0.1087(14) 0.9893(4) 0.66095(14)
C4_4 C 0.2774(14) 0.9343(3) 0.7534(2)
H4_4 H 0.3098 0.9040 0.7582
C5_4 C 0.2244(14) 0.9413(4) 0.73065(19)
H5_4 H 0.2206 0.9158 0.7199
C6_4 C 0.1771(14) 0.9857(4) 0.72364(16)
C9_4 C 0.2831(14) 0.9717(4) 0.76911(16)
C10_4 C 0.3023(10) 0.7676(4) 0.8509(2)
H8_4 H 0.4048 0.7633 0.8472
C11_4 C 0.2118(13) 0.7360(3) 0.8639(2)
H9_4 H 0.2430 0.7068 0.8704
C12_4 C 0.0669(11) 0.7992(3) 0.8534(2)
N4_4 N 0.2128(13) 0.8067(3) 0.84439(18)
C13_4 C 0.3838(12) 0.8629(4) 0.83333(19)
H11_4 H 0.4556 0.8489 0.8435
C14_4 C 0.2408(14) 0.8441(3) 0.83190(19)
C15_4 C 0.1358(11) 0.8645(4) 0.8171(2)
H12_4 H 0.0381 0.8517 0.8161
C16_4 C 0.1738(12) 0.9036(4) 0.80365(18)
H13_4 H 0.1020 0.9175 0.7935
C17_4 C 0.3168(14) 0.9223(3) 0.80508(19)
C18_4 C 0.4218(11) 0.9020(4) 0.8199(2)
H14_4 H 0.5196 0.9147 0.8209
H20_4 H 0.3626 0.9856 0.8369
Cl1_4 Cl 0.3412(5) 0.91867(15) 0.62813(7)
N9_4 N 0.3525(17) 0.9652(5) 0.7920(2)
H10_5 H 0.0157 0.1801 0.1483
N17_3 N 0.0288(9) 0.0582(3) 0.38259(17)
Zn5_3 Zn 0.1198(2) 0.26979(7) 0.12036(4)
H2_5 H 0.0424 0.9542 0.2962
H3_5 H 0.0518 0.9560 0.3408
H24_5 H 0.0088 0.8543 0.3946
C32_5 C 0.0408(10) 0.8059(3) 0.42059(17)
H25_5 H 0.1169 0.7887 0.4127
C37_5 C 0.2427(18) 0.6429(6) 0.4120(3)
C38_5 C 0.3055(17) 0.6575(5) 0.4340(3)
H28_5 H 0.3886 0.6407 0.4401
C39_5 C 0.2496(18) 0.6956(5) 0.4470(3)
H29_5 H 0.3020 0.7071 0.4603
C40_5 C 0.1233(18) 0.7152(5) 0.4403(3)
C41_5 C 0.0467(18) 0.7007(5) 0.4203(3)
C42_5 C 0.1007(17) 0.6633(5) 0.4061(3)
H31_5 H 0.0446 0.6521 0.3931
C44_5 C 0.0028(12) 0.6987(3) 0.48546(16)
C45_5 C 0.0513(12) 0.7427(4) 0.47815(13)
C46_5 C 0.0877(12) 0.7768(3) 0.49471(18)
H34_5 H 0.1209 0.8069 0.4897
C47_5 C 0.0756(12) 0.7669(3) 0.51859(16)
H35_5 H 0.1005 0.7902 0.5299
C48_5 C 0.0271(12) 0.7228(4) 0.52591(13)
C49_5 C 0.0844(12) 0.7371(3) 0.56770(19)
H36_5 H 0.1508 0.7629 0.5659
N8_5 N 0.0521(12) 0.7131(4) 0.58904(14)
Cl2_5 Cl 0.2951(6) 0.78641(17) 0.62540(8)
N12_5 N 0.0646(14) 0.7508(4) 0.4538(2)
N13_3 N 0.4712(9) 0.5582(3) 0.38259(17)
C52_5 C 0.3278(11) 0.5374(3) 0.38037(18)
H39_5 H 0.3062 0.5082 0.3730
C53_5 C 0.2225(8) 0.5678(4) 0.39120(19)
H40_5 H 0.1180 0.5625 0.3923
N14_5 N 0.3008(11) 0.6074(3) 0.40011(16)
C54_5 C 0.4545(10) 0.6014(3) 0.39479(17)
H41_5 H 0.5325 0.6227 0.3987
Zn2_2 Zn 0.1198(2) 0.73021(7) 0.62036(4)
N16_3 N 0.1687(17) 0.6731(5) 0.6383(2)
Zn3_3 Zn 0.6563(2) 0.53105(7) 0.37012(4)
C2_5 C 0.9864(14) 0.9745(4) 0.3061(2)
C3_5 C 0.9917(13) 0.9755(4) 0.3311(2)
C7_5 C 0.8173(14) 0.9769(3) 0.2606(2)
H6_5 H 0.8496 0.9465 0.2654
C8_5 C 0.7643(14) 0.9839(4) 0.23790(19)
H7_5 H 0.7604 0.9583 0.2271
C19_5 C 0.404(2) 0.8653(6) 0.1461(3)
H15_5 H 0.4970 0.8751 0.1399
C20_5 C 0.193(2) 0.8311(6) 0.1495(3)
H16_5 H 0.1070 0.8127 0.1466
C21_5 C 0.207(2) 0.8697(6) 0.1669(3)
H17_5 H 0.1389 0.8799 0.1786
C22_5 C 0.4098(12) 0.9299(4) 0.19823(19)
H18_5 H 0.3519 0.9084 0.2072
C23_5 C 0.4800(13) 0.9675(4) 0.20929(14)
H19_5 H 0.4700 0.9717 0.2258
C24_5 C 0.5648(13) 0.9990(3) 0.19619(19)
C25_5 C 0.5795(12) 0.9929(4) 0.17202(18)
C26_5 C 0.5093(13) 0.9553(4) 0.16096(14)
H21_5 H 0.5194 0.9511 0.1444
C27_5 C 0.4245(13) 0.9238(3) 0.17406(19)
N5_5 N 0.7874(12) 0.9789(3) 0.38923(17)
C28_5 C 0.8842(10) 0.9415(4) 0.3956(2)
H22_5 H 0.9850 0.9379 0.3907
C29_5 C 0.8039(13) 0.9103(3) 0.41045(19)
N6_5 N 0.6575(11) 0.9285(4) 0.41333(17)
C30_5 C 0.6473(10) 0.9709(3) 0.40022(19)
H23_5 H 0.5617 0.9905 0.3990
C31_5 C 0.9765(12) 0.8448(3) 0.40983(13)
C33_5 C 0.9936(11) 0.7920(3) 0.44284(17)
C34_5 C 0.8822(11) 0.8171(3) 0.45434(13)
H26_5 H 0.8500 0.8076 0.4696
C35_5 C 0.8180(10) 0.8561(3) 0.44359(17)
H27_5 H 0.7418 0.8732 0.4514
C36_5 C 0.8651(11) 0.8699(3) 0.42133(17)
H30_5 H 0.9565 0.7160 0.4161
C43_5 C 0.9906(12) 0.6887(3) 0.50935(18)
H32_5 H 0.9575 0.6586 0.5143
H33_5 H 0.9779 0.6753 0.4741
N7_5 N 0.9998(13) 0.7157(4) 0.54946(14)
C50_5 C 0.9153(12) 0.6785(4) 0.55953(19)
H37_5 H 0.8489 0.6583 0.5513
C51_5 C 0.9477(13) 0.6769(4) 0.58399(17)
H38_5 H 0.9066 0.6555 0.5950
N10_5 N 0.3403(18) 0.8859(5) 0.1616(3)
N11_3 N 0.3313(17) 0.8269(5) 0.1383(2)
N15_3 N 0.9337(11) 0.7555(4) 0.63452(19)
Zn4_2 Zn 0.3802(2) 0.76979(7) 0.12036(4)
H14_5 H 0.0196 0.4147 0.6791
C19_6 C 0.096(2) 0.6347(6) 0.6461(3)
H15_6 H 0.0030 0.6249 0.6399
C20_6 C 0.307(2) 0.6689(6) 0.6495(3)
H16_6 H 0.3930 0.6873 0.6466
C21_6 C 0.293(2) 0.6303(6) 0.6669(3)
H17_6 H 0.3611 0.6201 0.6786
C22_6 C 0.0902(12) 0.5701(4) 0.69823(19)
H18_6 H 0.1481 0.5916 0.7072
C23_6 C 0.0200(13) 0.5325(4) 0.70929(14)
H19_6 H 0.0300 0.5283 0.7258
C27_6 C 0.0755(13) 0.5762(3) 0.67406(19)
N10_6 N 0.1597(18) 0.6141(5) 0.6616(3)
C43_6 C 0.5094(12) 0.8113(3) 0.00935(18)
H32_6 H 0.5425 0.8414 0.0143
C47_6 C 0.4244(12) 0.7331(3) 0.01859(16)
H35_6 H 0.3995 0.7098 0.0299
C48_6 C 0.4729(12) 0.7772(4) 0.02591(13)
C49_6 C 0.4156(12) 0.7629(3) 0.06770(19)
H36_6 H 0.3492 0.7371 0.0659
N7_6 N 0.5002(13) 0.7843(4) 0.04946(14)
C50_6 C 0.5847(12) 0.8215(4) 0.05953(19)
H37_6 H 0.6511 0.8417 0.0513
C51_6 C 0.5523(13) 0.8231(4) 0.08399(17)
H38_6 H 0.5934 0.8445 0.0950
N8_6 N 0.4479(12) 0.7869(4) 0.08904(14)
Cl2_6 Cl 0.2049(6) 0.71359(17) 0.12540(8)
N15_4 N 0.5663(11) 0.7445(4) 0.13452(19)
C1_5 C 0.6760(12) 0.4684(4) 0.8190(2)
H1_5 H 0.7478 0.4439 0.8191
N1_5 N 0.6173(14) 0.4908(4) 0.79863(15)
C2_6 C 0.5136(14) 0.5255(4) 0.8061(2)
H2_6 H 0.4576 0.5458 0.7962
C3_6 C 0.5083(13) 0.5245(4) 0.8311(2)
H3_6 H 0.4482 0.5440 0.8408
N2_5 N 0.6087(14) 0.4893(4) 0.83905(14)
C4_5 C 0.7774(14) 0.4343(3) 0.7466(2)
H4_5 H 0.8098 0.4040 0.7418
C5_5 C 0.7244(14) 0.4413(4) 0.76935(19)
H5_5 H 0.7206 0.4158 0.7801
C6_5 C 0.6771(14) 0.4857(4) 0.77636(16)
C7_6 C 0.6827(14) 0.5231(3) 0.7606(2)
H6_6 H 0.6504 0.5535 0.7654
C8_6 C 0.7357(14) 0.5161(4) 0.73790(19)
H7_6 H 0.7396 0.5417 0.7271
C9_5 C 0.7831(14) 0.4717(4) 0.73089(16)
C10_5 C 0.8023(10) 0.2676(4) 0.6491(2)
H8_5 H 0.9048 0.2633 0.6528
C11_5 C 0.7118(13) 0.2360(3) 0.6361(2)
H9_5 H 0.7430 0.2068 0.6296
N3_3 N 0.5663(11) 0.2555(4) 0.63452(19)
C12_5 C 0.5669(11) 0.2992(3) 0.6466(2)
H10_6 H 0.4843 0.3199 0.6483
N4_5 N 0.7128(13) 0.3067(3) 0.65561(18)
C13_5 C 0.8838(12) 0.3629(4) 0.66667(19)
H11_5 H 0.9556 0.3489 0.6565
C14_5 C 0.7408(14) 0.3441(3) 0.66810(19)
C15_5 C 0.6358(11) 0.3645(4) 0.6829(2)
H12_5 H 0.5381 0.3517 0.6839
C16_5 C 0.6738(12) 0.4036(4) 0.69635(18)
H13_5 H 0.6020 0.4175 0.7065
C17_5 C 0.8168(14) 0.4223(3) 0.69492(19)
C18_5 C 0.9218(11) 0.4020(4) 0.6801(2)
C24_6 C 0.9352(13) 0.5010(3) 0.69619(19)
C25_6 C 0.9205(12) 0.5071(4) 0.67202(18)
H20_5 H 0.8626 0.4856 0.6631
C26_6 C 0.9907(13) 0.5447(4) 0.66096(14)
H21_6 H 0.9806 0.5489 0.6444
N5_6 N 0.7126(12) 0.5211(3) 0.88923(17)
C28_6 C 0.6158(10) 0.5585(4) 0.8956(2)
H22_6 H 0.5150 0.5621 0.8907
C29_6 C 0.6961(13) 0.5897(3) 0.91045(19)
N6_6 N 0.8425(11) 0.5715(4) 0.91333(17)
C30_6 C 0.8527(10) 0.5291(3) 0.90022(19)
H23_6 H 0.9383 0.5095 0.8990
C31_6 C 0.5235(12) 0.6552(3) 0.90983(13)
H24_6 H 0.4912 0.6457 0.8946
C32_6 C 0.4592(10) 0.6941(3) 0.92059(17)
H25_6 H 0.3831 0.7113 0.9127
C33_6 C 0.5064(11) 0.7080(3) 0.94284(17)
C34_6 C 0.6178(11) 0.6829(3) 0.95434(13)
H26_6 H 0.6500 0.6924 0.9696
C35_6 C 0.6820(10) 0.6439(3) 0.94359(17)
H27_6 H 0.7582 0.6268 0.9514
C36_6 C 0.6349(11) 0.6301(3) 0.92133(17)
C37_6 C 0.2573(18) 0.8571(6) 0.9120(3)
C38_6 C 0.1945(17) 0.8425(5) 0.9340(3)
H28_6 H 0.1114 0.8593 0.9401
C39_6 C 0.2504(18) 0.8044(5) 0.9470(3)
H29_6 H 0.1980 0.7929 0.9603
C40_6 C 0.3767(18) 0.7848(5) 0.9403(3)
C41_6 C 0.4533(18) 0.7993(5) 0.9203(3)
H30_6 H 0.5435 0.7840 0.9161
C42_6 C 0.3993(17) 0.8367(5) 0.9061(3)
H31_6 H 0.4554 0.8479 0.8931
C44_6 C 0.4972(12) 0.8013(3) 0.98546(16)
H33_6 H 0.5221 0.8247 0.9741
C45_6 C 0.4487(12) 0.7573(4) 0.97815(13)
C46_6 C 0.4123(12) 0.7232(3) 0.99471(18)
H34_6 H 0.3791 0.6931 0.9897
Cl1_5 Cl 0.8412(5) 0.41867(15) 0.87187(7)
N9_5 N 0.8525(17) 0.4652(5) 0.7080(2)
N12_6 N 0.4354(14) 0.7492(4) 0.9538(2)
N13_4 N 0.0288(9) 0.9418(3) 0.88259(17)
C52_6 C 0.1722(11) 0.9626(3) 0.88037(18)
H39_6 H 0.1938 0.9918 0.8730
C53_6 C 0.2775(8) 0.9322(4) 0.89120(19)
H40_6 H 0.3820 0.9375 0.8923
N14_6 N 0.1992(11) 0.8926(3) 0.90011(16)
C54_6 C 0.0455(10) 0.8986(3) 0.89479(17)
Zn1_3 Zn 0.6563(2) 0.46895(7) 0.87012(4)
N17_4 N 0.4712(9) 0.4418(3) 0.88259(17)
Zn5_4 Zn 0.3802(2) 0.23021(7) 0.62036(4)
H41_6 H 0.9675 0.8773 0.8987
Zn3_4 Zn 0.8437(2) 0.96895(7) 0.87012(4)
C47_7 C 0.0756(12) 0.2331(3) 0.01859(16)
H35_7 H 0.1005 0.2098 0.0299
C48_7 C 0.0271(12) 0.2772(4) 0.02591(13)
C49_7 C 0.0844(12) 0.2629(3) 0.06770(19)
H36_7 H 0.1508 0.2371 0.0659
N8_7 N 0.0521(12) 0.2869(4) 0.08904(14)
Cl2_7 Cl 0.2951(6) 0.21359(17) 0.12540(8)
N16_4 N 0.1687(17) 0.3269(5) 0.1383(2)
H2_7 H 0.0424 0.0458 0.7962
H3_7 H 0.0518 0.0440 0.8408
H24_7 H 0.0088 0.1457 0.8946
C32_7 C 0.0408(10) 0.1941(3) 0.92059(17)
H25_7 H 0.1169 0.2113 0.9127
C37_7 C 0.2427(18) 0.3571(6) 0.9120(3)
C38_7 C 0.3055(17) 0.3425(5) 0.9340(3)
H28_7 H 0.3886 0.3593 0.9401
C39_7 C 0.2496(18) 0.3044(5) 0.9470(3)
H29_7 H 0.3020 0.2929 0.9603
C40_7 C 0.1233(18) 0.2848(5) 0.9403(3)
C41_7 C 0.0467(18) 0.2993(5) 0.9203(3)
C42_7 C 0.1007(17) 0.3367(5) 0.9061(3)
H31_7 H 0.0446 0.3479 0.8931
C44_7 C 0.0028(12) 0.3013(3) 0.98546(16)
C45_7 C 0.0513(12) 0.2573(4) 0.97815(13)
C46_7 C 0.0877(12) 0.2232(3) 0.99471(18)
H34_7 H 0.1209 0.1931 0.9897
N12_7 N 0.0646(14) 0.2492(4) 0.9538(2)
C52_7 C 0.3278(11) 0.4626(3) 0.88037(18)
H39_7 H 0.3062 0.4918 0.8730
C53_7 C 0.2225(8) 0.4322(4) 0.89120(19)
H40_7 H 0.1180 0.4375 0.8923
N14_7 N 0.3008(11) 0.3926(3) 0.90011(16)
C54_7 C 0.4545(10) 0.3986(3) 0.89479(17)
H41_7 H 0.5325 0.3773 0.8987
H10_7 H 0.0157 0.8199 0.6483
C2_7 C 0.9864(14) 0.0255(4) 0.8061(2)
C3_7 C 0.9917(13) 0.0245(4) 0.8311(2)
C7_7 C 0.8173(14) 0.0231(3) 0.7606(2)
H6_7 H 0.8496 0.0535 0.7654
C8_7 C 0.7643(14) 0.0161(4) 0.73790(19)
H7_7 H 0.7604 0.0417 0.7271
C19_7 C 0.404(2) 0.1347(6) 0.6461(3)
H15_7 H 0.4970 0.1249 0.6399
C20_7 C 0.193(2) 0.1689(6) 0.6495(3)
H16_7 H 0.1070 0.1873 0.6466
C21_7 C 0.207(2) 0.1303(6) 0.6669(3)
H17_7 H 0.1389 0.1201 0.6786
C22_7 C 0.4098(12) 0.0701(4) 0.69823(19)
H18_7 H 0.3519 0.0916 0.7072
C23_7 C 0.4800(13) 0.0325(4) 0.70929(14)
H19_7 H 0.4700 0.0283 0.7258
C24_7 C 0.5648(13) 0.0010(3) 0.69619(19)
C25_7 C 0.5795(12) 0.0071(4) 0.67202(18)
C26_7 C 0.5093(13) 0.0447(4) 0.66096(14)
H21_7 H 0.5194 0.0489 0.6444
C27_7 C 0.4245(13) 0.0762(3) 0.67406(19)
N5_7 N 0.7874(12) 0.0211(3) 0.88923(17)
C28_7 C 0.8842(10) 0.0585(4) 0.8956(2)
H22_7 H 0.9850 0.0621 0.8907
C29_7 C 0.8039(13) 0.0897(3) 0.91045(19)
N6_7 N 0.6575(11) 0.0715(4) 0.91333(17)
C30_7 C 0.6473(10) 0.0291(3) 0.90022(19)
H23_7 H 0.5617 0.0095 0.8990
C31_7 C 0.9765(12) 0.1552(3) 0.90983(13)
C33_7 C 0.9936(11) 0.2080(3) 0.94284(17)
C34_7 C 0.8822(11) 0.1829(3) 0.95434(13)
H26_7 H 0.8500 0.1924 0.9696
C35_7 C 0.8180(10) 0.1439(3) 0.94359(17)
H27_7 H 0.7418 0.1268 0.9514
C36_7 C 0.8651(11) 0.1301(3) 0.92133(17)
H30_7 H 0.9565 0.2840 0.9161
H33_7 H 0.9779 0.3247 0.9741
N10_7 N 0.3403(18) 0.1141(5) 0.6616(3)
N11_4 N 0.3313(17) 0.1731(5) 0.6383(2)
C1_6 C 0.8240(12) 0.9684(4) 0.8190(2)
H1_6 H 0.7522 0.9439 0.8191
N1_6 N 0.8827(14) 0.9908(4) 0.79863(15)
N2_6 N 0.8913(14) 0.9893(4) 0.83905(14)
C4_6 C 0.7226(14) 0.9343(3) 0.7466(2)
H4_6 H 0.6902 0.9040 0.7418
C5_6 C 0.7756(14) 0.9413(4) 0.76935(19)
H5_6 H 0.7794 0.9158 0.7801
C6_6 C 0.8229(14) 0.9857(4) 0.77636(16)
C9_6 C 0.7169(14) 0.9717(4) 0.73089(16)
C10_6 C 0.6977(10) 0.7676(4) 0.6491(2)
H8_6 H 0.5952 0.7633 0.6528
C11_6 C 0.7882(13) 0.7360(3) 0.6361(2)
H9_6 H 0.7570 0.7068 0.6296
C12_6 C 0.9331(11) 0.7992(3) 0.6466(2)
N4_6 N 0.7872(13) 0.8067(3) 0.65561(18)
C13_6 C 0.6162(12) 0.8629(4) 0.66667(19)
H11_6 H 0.5444 0.8489 0.6565
C14_6 C 0.7592(14) 0.8441(3) 0.66810(19)
C15_6 C 0.8642(11) 0.8645(4) 0.6829(2)
H12_6 H 0.9619 0.8517 0.6839
C16_6 C 0.8262(12) 0.9036(4) 0.69635(18)
H13_6 H 0.8980 0.9175 0.7065
C17_6 C 0.6832(14) 0.9223(3) 0.69492(19)
C18_6 C 0.5782(11) 0.9020(4) 0.6801(2)
H14_6 H 0.4804 0.9147 0.6791
H20_6 H 0.6374 0.9856 0.6631
Cl1_6 Cl 0.6588(5) 0.91867(15) 0.87187(7)
N9_6 N 0.6475(17) 0.9652(5) 0.7080(2)
H14_7 H 0.0196 0.5853 0.1791
C19_8 C 0.096(2) 0.3653(6) 0.1461(3)
H15_8 H 0.0030 0.3751 0.1399
C20_8 C 0.307(2) 0.3311(6) 0.1495(3)
H16_8 H 0.3930 0.3127 0.1466
C21_8 C 0.293(2) 0.3697(6) 0.1669(3)
H17_8 H 0.3611 0.3799 0.1786
C22_8 C 0.0902(12) 0.4299(4) 0.19823(19)
H18_8 H 0.1481 0.4084 0.2072
C23_8 C 0.0200(13) 0.4675(4) 0.20929(14)
H19_8 H 0.0300 0.4717 0.2258
C27_8 C 0.0755(13) 0.4238(3) 0.17406(19)
N10_8 N 0.1597(18) 0.3859(5) 0.1616(3)
C1_7 C 0.6760(12) 0.5316(4) 0.3190(2)
H1_7 H 0.7478 0.5561 0.3191
N1_7 N 0.6173(14) 0.5092(4) 0.29863(15)
C2_8 C 0.5136(14) 0.4745(4) 0.3061(2)
H2_8 H 0.4576 0.4542 0.2962
C3_8 C 0.5083(13) 0.4755(4) 0.3311(2)
H3_8 H 0.4482 0.4560 0.3408
N2_7 N 0.6087(14) 0.5107(4) 0.33905(14)
C4_7 C 0.7774(14) 0.5657(3) 0.2466(2)
H4_7 H 0.8098 0.5960 0.2418
C5_7 C 0.7244(14) 0.5587(4) 0.26935(19)
H5_7 H 0.7206 0.5842 0.2801
C6_7 C 0.6771(14) 0.5143(4) 0.27636(16)
C7_8 C 0.6827(14) 0.4769(3) 0.2606(2)
H6_8 H 0.6504 0.4465 0.2654
C8_8 C 0.7357(14) 0.4839(4) 0.23790(19)
H7_8 H 0.7396 0.4583 0.2271
C9_7 C 0.7831(14) 0.5283(4) 0.23089(16)
C10_7 C 0.8023(10) 0.7324(4) 0.1491(2)
H8_7 H 0.9048 0.7367 0.1528
C11_7 C 0.7118(13) 0.7640(3) 0.1361(2)
H9_7 H 0.7430 0.7932 0.1296
C12_7 C 0.5669(11) 0.7008(3) 0.1466(2)
H10_8 H 0.4843 0.6801 0.1483
N4_7 N 0.7128(13) 0.6933(3) 0.15561(18)
C13_7 C 0.8838(12) 0.6371(4) 0.16667(19)
H11_7 H 0.9556 0.6511 0.1565
C14_7 C 0.7408(14) 0.6559(3) 0.16810(19)
C15_7 C 0.6358(11) 0.6355(4) 0.1829(2)
H12_7 H 0.5381 0.6483 0.1839
C16_7 C 0.6738(12) 0.5964(4) 0.19635(18)
H13_7 H 0.6020 0.5825 0.2065
C17_7 C 0.8168(14) 0.5777(3) 0.19492(19)
C18_7 C 0.9218(11) 0.5980(4) 0.1801(2)
C24_8 C 0.9352(13) 0.4990(3) 0.19619(19)
C25_8 C 0.9205(12) 0.4929(4) 0.17202(18)
H20_7 H 0.8626 0.5144 0.1631
C26_8 C 0.9907(13) 0.4553(4) 0.16096(14)
H21_8 H 0.9806 0.4511 0.1444
N5_8 N 0.7126(12) 0.4789(3) 0.38923(17)
C28_8 C 0.6158(10) 0.4415(4) 0.3956(2)
H22_8 H 0.5150 0.4379 0.3907
C29_8 C 0.6961(13) 0.4103(3) 0.41045(19)
N6_8 N 0.8425(11) 0.4285(4) 0.41333(17)
C30_8 C 0.8527(10) 0.4709(3) 0.40022(19)
H23_8 H 0.9383 0.4905 0.3990
C31_8 C 0.5235(12) 0.3448(3) 0.40983(13)
H24_8 H 0.4912 0.3543 0.3946
C32_8 C 0.4592(10) 0.3059(3) 0.42059(17)
H25_8 H 0.3831 0.2887 0.4127
C33_8 C 0.5064(11) 0.2920(3) 0.44284(17)
C34_8 C 0.6178(11) 0.3171(3) 0.45434(13)
H26_8 H 0.6500 0.3076 0.4696
C35_8 C 0.6820(10) 0.3561(3) 0.44359(17)
H27_8 H 0.7582 0.3732 0.4514
C36_8 C 0.6349(11) 0.3699(3) 0.42133(17)
C37_8 C 0.2573(18) 0.1429(6) 0.4120(3)
C38_8 C 0.1945(17) 0.1575(5) 0.4340(3)
H28_8 H 0.1114 0.1407 0.4401
C39_8 C 0.2504(18) 0.1956(5) 0.4470(3)
H29_8 H 0.1980 0.2071 0.4603
C40_8 C 0.3767(18) 0.2152(5) 0.4403(3)
C41_8 C 0.4533(18) 0.2007(5) 0.4203(3)
H30_8 H 0.5435 0.2160 0.4161
C42_8 C 0.3993(17) 0.1633(5) 0.4061(3)
H31_8 H 0.4554 0.1521 0.3931
C43_7 C 0.5094(12) 0.1887(3) 0.50935(18)
H32_7 H 0.5425 0.1586 0.5143
C44_8 C 0.4972(12) 0.1987(3) 0.48546(16)
H33_8 H 0.5221 0.1753 0.4741
C45_8 C 0.4487(12) 0.2427(4) 0.47815(13)
C46_8 C 0.4123(12) 0.2768(3) 0.49471(18)
H34_8 H 0.3791 0.3069 0.4897
C47_8 C 0.4244(12) 0.2669(3) 0.51859(16)
H35_8 H 0.3995 0.2902 0.5299
C48_8 C 0.4729(12) 0.2228(4) 0.52591(13)
C49_8 C 0.4156(12) 0.2371(3) 0.56770(19)
H36_8 H 0.3492 0.2629 0.5659
N7_7 N 0.5002(13) 0.2157(4) 0.54946(14)
C50_7 C 0.5847(12) 0.1785(4) 0.55953(19)
H37_7 H 0.6511 0.1583 0.5513
C51_7 C 0.5523(13) 0.1769(4) 0.58399(17)
H38_7 H 0.5934 0.1555 0.5950
N8_8 N 0.4479(12) 0.2131(4) 0.58904(14)
Cl1_7 Cl 0.8412(5) 0.58133(15) 0.37187(7)
Cl2_8 Cl 0.2049(6) 0.28641(17) 0.62540(8)
N9_7 N 0.8525(17) 0.5348(5) 0.2080(2)
N12_8 N 0.4354(14) 0.2508(4) 0.4538(2)
C52_8 C 0.1722(11) 0.0374(3) 0.38037(18)
H39_8 H 0.1938 0.0082 0.3730
C53_8 C 0.2775(8) 0.0678(4) 0.39120(19)
H40_8 H 0.3820 0.0625 0.3923
N14_8 N 0.1992(11) 0.1074(3) 0.40011(16)
C54_8 C 0.0455(10) 0.1014(3) 0.39479(17)
C1_8 C 0.8240(12) 0.0316(4) 0.3190(2)
H1_8 H 0.7522 0.0561 0.3191
N1_8 N 0.8827(14) 0.0092(4) 0.29863(15)
N2_8 N 0.8913(14) 0.0107(4) 0.33905(14)
C4_8 C 0.7226(14) 0.0657(3) 0.2466(2)
H4_8 H 0.6902 0.0960 0.2418
C5_8 C 0.7756(14) 0.0587(4) 0.26935(19)
H5_8 H 0.7794 0.0842 0.2801
C6_8 C 0.8229(14) 0.0143(4) 0.27636(16)
C9_8 C 0.7169(14) 0.0283(4) 0.23089(16)
C10_8 C 0.6977(10) 0.2324(4) 0.1491(2)
H8_8 H 0.5952 0.2367 0.1528
C11_8 C 0.7882(13) 0.2640(3) 0.1361(2)
H9_8 H 0.7570 0.2932 0.1296
N3_4 N 0.9337(11) 0.2445(4) 0.13452(19)
C12_8 C 0.9331(11) 0.2008(3) 0.1466(2)
N4_8 N 0.7872(13) 0.1933(3) 0.15561(18)
C13_8 C 0.6162(12) 0.1371(4) 0.16667(19)
H11_8 H 0.5444 0.1511 0.1565
C14_8 C 0.7592(14) 0.1559(3) 0.16810(19)
C15_8 C 0.8642(11) 0.1355(4) 0.1829(2)
H12_8 H 0.9619 0.1483 0.1839
C16_8 C 0.8262(12) 0.0964(4) 0.19635(18)
H13_8 H 0.8980 0.0825 0.2065
C17_8 C 0.6832(14) 0.0777(3) 0.19492(19)
C18_8 C 0.5782(11) 0.0980(4) 0.1801(2)
H14_8 H 0.4804 0.0853 0.1791
H20_8 H 0.6374 0.0144 0.1631
Cl1_8 Cl 0.6588(5) 0.08133(15) 0.37187(7)
N9_8 N 0.6475(17) 0.0348(5) 0.2080(2)
Zn1_4 Zn 0.8437(2) 0.03105(7) 0.37012(4)
C43_8 C 0.9906(12) 0.3113(3) 0.00935(18)
H32_8 H 0.9575 0.3414 0.0143
N7_8 N 0.9998(13) 0.2843(4) 0.04946(14)
C50_8 C 0.9153(12) 0.3215(4) 0.05953(19)
H37_8 H 0.8489 0.3417 0.0513
C51_8 C 0.9477(13) 0.3231(4) 0.08399(17)
H38_8 H 0.9066 0.3445 0.0950
H41_8 H 0.9675 0.1227 0.3987
loop_
_geom_bond_atom_site_label_1
_geom_bond_atom_site_label_2
_geom_bond_site_symmetry_1
_geom_bond_site_symmetry_2
I2_2 I3 1_555 1_555
I1 I2_3 1_555 1_555
I2_5 I3_2 1_555 1_555
I1_2 I2_6 1_555 1_555
I1_3 I2_7 1_555 1_555
I2_8 I3_3 1_555 1_555
I2_9 I3_4 1_555 1_555
I1_4 I2_12 1_555 1_555
C1 H1 1_555 1_555
N1 C1 1_555 1_555
N2 C1 1_555 1_555
C4 H4 1_555 1_555
C5 C4 1_555 1_555
H5 C5 1_555 1_555
C6 N1 1_555 1_555
C9 C4 1_555 1_555
C10 H8 1_555 1_555
C11 C10 1_555 1_555
H9 C11 1_555 1_555
N3 C11 1_555 1_555
C12 N3 1_555 1_555
N4 C10 1_555 1_555
C13 H11 1_555 1_555
C14 N4 1_555 1_555
C15 C14 1_555 1_555
H12 C15 1_555 1_555
C16 C15 1_555 1_555
H13 C16 1_555 1_555
C17 C16 1_555 1_555
C18 C13 1_555 1_555
H14 C18 1_555 1_555
Cl1 Zn1 1_555 1_555
N9 C9 1_555 1_555
Zn1 N2 1_555 1_555
C5 C6 1_555 1_555
C12 N4 1_555 1_555
C13 C14 1_555 1_555
C17 C18 1_555 1_555
C17 N9 1_555 1_555
C3 C2 1_555 1_555
H6 C7 1_555 1_555
C8 C7 1_555 1_555
H7 C8 1_555 1_555
C19 H15 1_555 1_555
C20 H16 1_555 1_555
C21 C20 1_555 1_555
H17 C21 1_555 1_555
C22 H18 1_555 1_555
C23 C22 1_555 1_555
H19 C23 1_555 1_555
C24 C23 1_555 1_555
C25 C24 1_555 1_555
C26 C25 1_555 1_555
H21 C26 1_555 1_555
C27 C22 1_555 1_555
N5 C28 1_555 1_555
C28 H22 1_555 1_555
C29 C28 1_555 1_555
N6 C29 1_555 1_555
C30 N5 1_555 1_555
H23 C30 1_555 1_555
C34 C33 1_555 1_555
H26 C34 1_555 1_555
C35 C34 1_555 1_555
H27 C35 1_555 1_555
C36 C29 1_555 1_555
N10 C19 1_555 1_555
N11 C19 1_555 1_555
Zn4 N11 1_555 1_555
C20 N11 1_555 1_555
C21 N10 1_555 1_555
C26 C27 1_555 1_555
C27 N10 1_555 1_555
N6 C30 1_555 1_555
C31 C36 1_555 1_555
C35 C36 1_555 1_555
H25 C32 1_555 1_555
C37 C38 1_555 1_555
C38 H28 1_555 1_555
C39 C38 1_555 1_555
H29 C39 1_555 1_555
C40 C39 1_555 1_555
C41 C40 1_555 1_555
C42 C37 1_555 1_555
H31 C42 1_555 1_555
C45 C44 1_555 1_555
C46 C45 1_555 1_555
H34 C46 1_555 1_555
N13 C52 1_555 1_555
C52 H39 1_555 1_555
C53 C52 1_555 1_555
H40 C53 1_555 1_555
N14 C37 1_555 1_555
C54 N13 1_555 1_555
H41 C54 1_555 1_555
Zn3 N13 1_555 1_555
C40 N12 1_555 1_555
C41 C42 1_555 1_555
C45 N12 1_555 1_555
C53 N14 1_555 1_555
N14 C54 1_555 1_555
H35 C47 1_555 1_555
C49 H36 1_555 1_555
N8 C49 1_555 1_555
Cl2 Zn2 1_555 1_555
Zn2 N8 1_555 1_555
N16 Zn2 1_555 1_555
C47 C48 1_555 1_555
C1_2 H1_2 1_555 1_555
N1_2 C1_2 1_555 1_555
C2_2 N1_2 1_555 1_555
H2_2 C2_2 1_555 1_555
C3_2 C2_2 1_555 1_555
H3_2 C3_2 1_555 1_555
N2_2 C1_2 1_555 1_555
C4_2 H4_2 1_555 1_555
C5_2 C4_2 1_555 1_555
H5_2 C5_2 1_555 1_555
C6_2 N1_2 1_555 1_555
C7_2 C6_2 1_555 1_555
H6_2 C7_2 1_555 1_555
C8_2 C7_2 1_555 1_555
H7_2 C8_2 1_555 1_555
C9_2 C4_2 1_555 1_555
C10_2 H8_2 1_555 1_555
C11_2 C10_2 1_555 1_555
H9_2 C11_2 1_555 1_555
N3_2 C11_2 1_555 1_555
C12_2 N3_2 1_555 1_555
H10_2 C12_2 1_555 1_555
N4_2 C10_2 1_555 1_555
C13_2 H11_2 1_555 1_555
C14_2 N4_2 1_555 1_555
C15_2 C14_2 1_555 1_555
H12_2 C15_2 1_555 1_555
C16_2 C15_2 1_555 1_555
H13_2 C16_2 1_555 1_555
C17_2 C16_2 1_555 1_555
C18_2 C13_2 1_555 1_555
C25_2 C24_2 1_555 1_555
H20_2 C25_2 1_555 1_555
C26_2 C25_2 1_555 1_555
H21_2 C26_2 1_555 1_555
N5_2 C28_2 1_555 1_555
C28_2 H22_2 1_555 1_555
C29_2 C28_2 1_555 1_555
N6_2 C29_2 1_555 1_555
C30_2 N5_2 1_555 1_555
H23_2 C30_2 1_555 1_555
C31_2 H24_2 1_555 1_555
C32_2 C31_2 1_555 1_555
H25_2 C32_2 1_555 1_555
C33_2 C32_2 1_555 1_555
C34_2 C33_2 1_555 1_555
H26_2 C34_2 1_555 1_555
C35_2 C34_2 1_555 1_555
H27_2 C35_2 1_555 1_555
C36_2 C29_2 1_555 1_555
C37_2 C38_2 1_555 1_555
C38_2 H28_2 1_555 1_555
C39_2 C38_2 1_555 1_555
H29_2 C39_2 1_555 1_555
C40_2 C39_2 1_555 1_555
C41_2 C40_2 1_555 1_555
H30_2 C41_2 1_555 1_555
C42_2 C37_2 1_555 1_555
H31_2 C42_2 1_555 1_555
C43 H32 1_555 1_555
C44_2 C43 1_555 1_555
H33_2 C44_2 1_555 1_555
C45_2 C44_2 1_555 1_555
C46_2 C45_2 1_555 1_555
H34_2 C46_2 1_555 1_555
C47_2 C46_2 1_555 1_555
H35_2 C47_2 1_555 1_555
C48_2 C43 1_555 1_555
C49_2 H36_2 1_555 1_555
N7 C48_2 1_555 1_555
C50 N7 1_555 1_555
H37 C50 1_555 1_555
C51 C50 1_555 1_555
H38 C51 1_555 1_555
N8_2 C49_2 1_555 1_555
Cl1_2 Zn1_2 1_555 1_555
Cl2_2 Zn4 1_555 1_555
N9_2 C9_2 1_555 1_555
N12_2 C33_2 1_555 1_555
N13_2 C52_2 1_555 1_555
C52_2 H39_2 1_555 1_555
C53_2 C52_2 1_555 1_555
H40_2 C53_2 1_555 1_555
N14_2 C37_2 1_555 1_555
C54_2 N13_2 1_555 1_555
Zn1_2 N2_2 1_555 1_555
Zn4 N8_2 1_555 1_555
N15 Zn4 1_555 1_555
N17_2 Zn1_2 1_555 1_555
Zn5_2 N3_2 1_555 1_555
C3_2 N2_2 1_555 1_555
C5_2 C6_2 1_555 1_555
C8_2 C9_2 1_555 1_555
C12_2 N4_2 1_555 1_555
C13_2 C14_2 1_555 1_555
C17_2 C18_2 1_555 1_555
C17_2 N9_2 1_555 1_555
C24_2 N9_2 1_555 1_555
N5_2 Zn1_2 1_555 1_555
N6_2 C30_2 1_555 1_555
C31_2 C36_2 1_555 1_555
C35_2 C36_2 1_555 1_555
C40_2 N12_2 1_555 1_555
C41_2 C42_2 1_555 1_555
C45_2 N12_2 1_555 1_555
C47_2 C48_2 1_555 1_555
C49_2 N7 1_555 1_555
C51 N8_2 1_555 1_555
C53_2 N14_2 1_555 1_555
N14_2 C54_2 1_555 1_555
C19_2 H15_2 1_555 1_555
C20_2 H16_2 1_555 1_555
C21_2 C20_2 1_555 1_555
H17_2 C21_2 1_555 1_555
C22_2 H18_2 1_555 1_555
C23_2 C22_2 1_555 1_555
H19_2 C23_2 1_555 1_555
C27_2 C22_2 1_555 1_555
N10_2 C19_2 1_555 1_555
N16 C19_2 1_555 1_555
C20_2 N16 1_555 1_555
C21_2 N10_2 1_555 1_555
C27_2 N10_2 1_555 1_555
C3_3 C2_3 1_555 1_555
H6_3 C7_3 1_555 1_555
C8_3 C7_3 1_555 1_555
H7_3 C8_3 1_555 1_555
C19_3 H15_3 1_555 1_555
C20_3 H16_3 1_555 1_555
C21_3 C20_3 1_555 1_555
H17_3 C21_3 1_555 1_555
C22_3 H18_3 1_555 1_555
C23_3 C22_3 1_555 1_555
H19_3 C23_3 1_555 1_555
C24_3 C23_3 1_555 1_555
C25_3 C24_3 1_555 1_555
C26_3 C25_3 1_555 1_555
H21_3 C26_3 1_555 1_555
C27_3 C22_3 1_555 1_555
N5_3 C28_3 1_555 1_555
C28_3 H22_3 1_555 1_555
C29_3 C28_3 1_555 1_555
N6_3 C29_3 1_555 1_555
C30_3 N5_3 1_555 1_555
H23_3 C30_3 1_555 1_555
C34_3 C33_3 1_555 1_555
H26_3 C34_3 1_555 1_555
C35_3 C34_3 1_555 1_555
H27_3 C35_3 1_555 1_555
C36_3 C29_3 1_555 1_555
C43_2 H32_2 1_555 1_555
C50_2 N7_2 1_555 1_555
H37_2 C50_2 1_555 1_555
C51_2 C50_2 1_555 1_555
H38_2 C51_2 1_555 1_555
N10_3 C19_3 1_555 1_555
N11_2 C19_3 1_555 1_555
Zn5_2 N11_2 1_555 1_555
C20_3 N11_2 1_555 1_555
C21_3 N10_3 1_555 1_555
C26_3 C27_3 1_555 1_555
C27_3 N10_3 1_555 1_555
N6_3 C30_3 1_555 1_555
C31_3 C36_3 1_555 1_555
C35_3 C36_3 1_555 1_555
H25_3 C32_3 1_555 1_555
C37_3 C38_3 1_555 1_555
C38_3 H28_3 1_555 1_555
C39_3 C38_3 1_555 1_555
H29_3 C39_3 1_555 1_555
C40_3 C39_3 1_555 1_555
C41_3 C40_3 1_555 1_555
C42_3 C37_3 1_555 1_555
H31_3 C42_3 1_555 1_555
C45_3 C44_3 1_555 1_555
C46_3 C45_3 1_555 1_555
H34_3 C46_3 1_555 1_555
C47_3 C46_3 1_555 1_555
H35_3 C47_3 1_555 1_555
C49_3 H36_3 1_555 1_555
N8_3 C49_3 1_555 1_555
Cl2_3 Zn5 1_555 1_555
N17_2 C52_3 1_555 1_555
C52_3 H39_3 1_555 1_555
C53_3 C52_3 1_555 1_555
H40_3 C53_3 1_555 1_555
N14_3 C37_3 1_555 1_555
C54_3 N17_2 1_555 1_555
H41_2 C54_3 1_555 1_555
Zn5 N8_3 1_555 1_555
N16_2 Zn5 1_555 1_555
C40_3 N12_3 1_555 1_555
C41_3 C42_3 1_555 1_555
C45_3 N12_3 1_555 1_555
C47_3 C48_3 1_555 1_555
C53_3 N14_3 1_555 1_555
N14_3 C54_3 1_555 1_555
C1_3 H1_3 1_555 1_555
N1_3 C1_3 1_555 1_555
C2_4 N1_3 1_555 1_555
H2_4 C2_4 1_555 1_555
C3_4 C2_4 1_555 1_555
H3_4 C3_4 1_555 1_555
N2_3 C1_3 1_555 1_555
C4_3 H4_3 1_555 1_555
C5_3 C4_3 1_555 1_555
H5_3 C5_3 1_555 1_555
C6_3 N1_3 1_555 1_555
C7_4 C6_3 1_555 1_555
H6_4 C7_4 1_555 1_555
C8_4 C7_4 1_555 1_555
H7_4 C8_4 1_555 1_555
C9_3 C4_3 1_555 1_555
C10_3 H8_3 1_555 1_555
C11_3 C10_3 1_555 1_555
H9_3 C11_3 1_555 1_555
N15 C11_3 1_555 1_555
C12_3 N15 1_555 1_555
H10_4 C12_3 1_555 1_555
N4_3 C10_3 1_555 1_555
C13_3 H11_3 1_555 1_555
C14_3 N4_3 1_555 1_555
C15_3 C14_3 1_555 1_555
H12_3 C15_3 1_555 1_555
C16_3 C15_3 1_555 1_555
H13_3 C16_3 1_555 1_555
C17_3 C16_3 1_555 1_555
C18_3 C13_3 1_555 1_555
C25_4 C24_4 1_555 1_555
H20_3 C25_4 1_555 1_555
C26_4 C25_4 1_555 1_555
H21_4 C26_4 1_555 1_555
N5_4 C28_4 1_555 1_555
C28_4 H22_4 1_555 1_555
C29_4 C28_4 1_555 1_555
N6_4 C29_4 1_555 1_555
C30_4 N5_4 1_555 1_555
H23_4 C30_4 1_555 1_555
C31_4 H24_4 1_555 1_555
C32_4 C31_4 1_555 1_555
H25_4 C32_4 1_555 1_555
C33_4 C32_4 1_555 1_555
C34_4 C33_4 1_555 1_555
H26_4 C34_4 1_555 1_555
C35_4 C34_4 1_555 1_555
H27_4 C35_4 1_555 1_555
C36_4 C29_4 1_555 1_555
C37_4 C38_4 1_555 1_555
C38_4 H28_4 1_555 1_555
C39_4 C38_4 1_555 1_555
H29_4 C39_4 1_555 1_555
C40_4 C39_4 1_555 1_555
C41_4 C40_4 1_555 1_555
H30_4 C41_4 1_555 1_555
C42_4 C37_4 1_555 1_555
H31_4 C42_4 1_555 1_555
H33_4 C44_4 1_555 1_555
C45_4 C44_4 1_555 1_555
C46_4 C45_4 1_555 1_555
H34_4 C46_4 1_555 1_555
Cl1_3 Zn3 1_555 1_555
N9_3 C9_3 1_555 1_555
N12_4 C33_4 1_555 1_555
N17 C52_4 1_555 1_555
C52_4 H39_4 1_555 1_555
C53_4 C52_4 1_555 1_555
H40_4 C53_4 1_555 1_555
N14_4 C37_4 1_555 1_555
C54_4 N17 1_555 1_555
Zn3 N2_3 1_555 1_555
C3_4 N2_3 1_555 1_555
C5_3 C6_3 1_555 1_555
C8_4 C9_3 1_555 1_555
C12_3 N4_3 1_555 1_555
C13_3 C14_3 1_555 1_555
C17_3 C18_3 1_555 1_555
C17_3 N9_3 1_555 1_555
C24_4 N9_3 1_555 1_555
N5_4 Zn3 1_555 1_555
N6_4 C30_4 1_555 1_555
C31_4 C36_4 1_555 1_555
C35_4 C36_4 1_555 1_555
C40_4 N12_4 1_555 1_555
C41_4 C42_4 1_555 1_555
C45_4 N12_4 1_555 1_555
C53_4 N14_4 1_555 1_555
N14_4 C54_4 1_555 1_555
C43_3 H32_3 1_555 1_555
H35_4 C47_4 1_555 1_555
C48_4 C43_3 1_555 1_555
C49_4 H36_4 1_555 1_555
N7_3 C48_4 1_555 1_555
C50_3 N7_3 1_555 1_555
H37_3 C50_3 1_555 1_555
C51_3 C50_3 1_555 1_555
H38_3 C51_3 1_555 1_555
N8_4 C49_4 1_555 1_555
Cl2_4 Zn5_2 1_555 1_555
Zn5_2 N8_4 1_555 1_555
C47_4 C48_4 1_555 1_555
C49_4 N7_3 1_555 1_555
C51_3 N8_4 1_555 1_555
C19_4 H15_4 1_555 1_555
C20_4 H16_4 1_555 1_555
C21_4 C20_4 1_555 1_555
H17_4 C21_4 1_555 1_555
C22_4 H18_4 1_555 1_555
C23_4 C22_4 1_555 1_555
H19_4 C23_4 1_555 1_555
C27_4 C22_4 1_555 1_555
N10_4 C19_4 1_555 1_555
N16_2 C19_4 1_555 1_555
C20_4 N16_2 1_555 1_555
C21_4 N10_4 1_555 1_555
C27_4 N10_4 1_555 1_555
C43_4 H32_4 1_555 1_555
C50_4 N7_4 1_555 1_555
H37_4 C50_4 1_555 1_555
C51_4 C50_4 1_555 1_555
H38_4 C51_4 1_555 1_555
C1_4 H1_4 1_555 1_555
N1_4 C1_4 1_555 1_555
N2_4 C1_4 1_555 1_555
C4_4 H4_4 1_555 1_555
C5_4 C4_4 1_555 1_555
H5_4 C5_4 1_555 1_555
C6_4 N1_4 1_555 1_555
C9_4 C4_4 1_555 1_555
C10_4 H8_4 1_555 1_555
C11_4 C10_4 1_555 1_555
H9_4 C11_4 1_555 1_555
N15_2 C11_4 1_555 1_555
C12_4 N15_2 1_555 1_555
N4_4 C10_4 1_555 1_555
C13_4 H11_4 1_555 1_555
C14_4 N4_4 1_555 1_555
C15_4 C14_4 1_555 1_555
H12_4 C15_4 1_555 1_555
C16_4 C15_4 1_555 1_555
H13_4 C16_4 1_555 1_555
C17_4 C16_4 1_555 1_555
C18_4 C13_4 1_555 1_555
H14_4 C18_4 1_555 1_555
Cl1_4 Zn3_2 1_555 1_555
N9_4 C9_4 1_555 1_555
Zn3_2 N2_4 1_555 1_555
C5_4 C6_4 1_555 1_555
C12_4 N4_4 1_555 1_555
C13_4 C14_4 1_555 1_555
C17_4 C18_4 1_555 1_555
C17_4 N9_4 1_555 1_555
H25_5 C32_5 1_555 1_555
C37_5 C38_5 1_555 1_555
C38_5 H28_5 1_555 1_555
C39_5 C38_5 1_555 1_555
H29_5 C39_5 1_555 1_555
C40_5 C39_5 1_555 1_555
C41_5 C40_5 1_555 1_555
C42_5 C37_5 1_555 1_555
H31_5 C42_5 1_555 1_555
C45_5 C44_5 1_555 1_555
C46_5 C45_5 1_555 1_555
H34_5 C46_5 1_555 1_555
C47_5 C46_5 1_555 1_555
H35_5 C47_5 1_555 1_555
C49_5 H36_5 1_555 1_555
N8_5 C49_5 1_555 1_555
Cl2_5 Zn2_2 1_555 1_555
N13_3 C52_5 1_555 1_555
C52_5 H39_5 1_555 1_555
C53_5 C52_5 1_555 1_555
H40_5 C53_5 1_555 1_555
N14_5 C37_5 1_555 1_555
C54_5 N13_3 1_555 1_555
H41_5 C54_5 1_555 1_555
Zn2_2 N8_5 1_555 1_555
N16_3 Zn2_2 1_555 1_555
Zn3_3 N13_3 1_555 1_555
C40_5 N12_5 1_555 1_555
C41_5 C42_5 1_555 1_555
C45_5 N12_5 1_555 1_555
C47_5 C48_5 1_555 1_555
C53_5 N14_5 1_555 1_555
N14_5 C54_5 1_555 1_555
C3_5 C2_5 1_555 1_555
H6_5 C7_5 1_555 1_555
C8_5 C7_5 1_555 1_555
H7_5 C8_5 1_555 1_555
C19_5 H15_5 1_555 1_555
C20_5 H16_5 1_555 1_555
C21_5 C20_5 1_555 1_555
H17_5 C21_5 1_555 1_555
C22_5 H18_5 1_555 1_555
C23_5 C22_5 1_555 1_555
H19_5 C23_5 1_555 1_555
C24_5 C23_5 1_555 1_555
C25_5 C24_5 1_555 1_555
C26_5 C25_5 1_555 1_555
H21_5 C26_5 1_555 1_555
C27_5 C22_5 1_555 1_555
N5_5 C28_5 1_555 1_555
C28_5 H22_5 1_555 1_555
C29_5 C28_5 1_555 1_555
N6_5 C29_5 1_555 1_555
C30_5 N5_5 1_555 1_555
H23_5 C30_5 1_555 1_555
C34_5 C33_5 1_555 1_555
H26_5 C34_5 1_555 1_555
C35_5 C34_5 1_555 1_555
H27_5 C35_5 1_555 1_555
C36_5 C29_5 1_555 1_555
C43_5 H32_5 1_555 1_555
C50_5 N7_5 1_555 1_555
H37_5 C50_5 1_555 1_555
C51_5 C50_5 1_555 1_555
H38_5 C51_5 1_555 1_555
N10_5 C19_5 1_555 1_555
N11_3 C19_5 1_555 1_555
Zn4_2 N11_3 1_555 1_555
C20_5 N11_3 1_555 1_555
C21_5 N10_5 1_555 1_555
C26_5 C27_5 1_555 1_555
C27_5 N10_5 1_555 1_555
N6_5 C30_5 1_555 1_555
C31_5 C36_5 1_555 1_555
C35_5 C36_5 1_555 1_555
C19_6 H15_6 1_555 1_555
C20_6 H16_6 1_555 1_555
C21_6 C20_6 1_555 1_555
H17_6 C21_6 1_555 1_555
C22_6 H18_6 1_555 1_555
C23_6 C22_6 1_555 1_555
H19_6 C23_6 1_555 1_555
C27_6 C22_6 1_555 1_555
N10_6 C19_6 1_555 1_555
N16_3 C19_6 1_555 1_555
C20_6 N16_3 1_555 1_555
C21_6 N10_6 1_555 1_555
C27_6 N10_6 1_555 1_555
C43_6 H32_6 1_555 1_555
H35_6 C47_6 1_555 1_555
C48_6 C43_6 1_555 1_555
C49_6 H36_6 1_555 1_555
N7_6 C48_6 1_555 1_555
C50_6 N7_6 1_555 1_555
H37_6 C50_6 1_555 1_555
C51_6 C50_6 1_555 1_555
H38_6 C51_6 1_555 1_555
N8_6 C49_6 1_555 1_555
Cl2_6 Zn4_2 1_555 1_555
Zn4_2 N8_6 1_555 1_555
N15_4 Zn4_2 1_555 1_555
C47_6 C48_6 1_555 1_555
C49_6 N7_6 1_555 1_555
C51_6 N8_6 1_555 1_555
C1_5 H1_5 1_555 1_555
N1_5 C1_5 1_555 1_555
C2_6 N1_5 1_555 1_555
H2_6 C2_6 1_555 1_555
C3_6 C2_6 1_555 1_555
H3_6 C3_6 1_555 1_555
N2_5 C1_5 1_555 1_555
C4_5 H4_5 1_555 1_555
C5_5 C4_5 1_555 1_555
H5_5 C5_5 1_555 1_555
C6_5 N1_5 1_555 1_555
C7_6 C6_5 1_555 1_555
H6_6 C7_6 1_555 1_555
C8_6 C7_6 1_555 1_555
H7_6 C8_6 1_555 1_555
C9_5 C4_5 1_555 1_555
C10_5 H8_5 1_555 1_555
C11_5 C10_5 1_555 1_555
H9_5 C11_5 1_555 1_555
N3_3 C11_5 1_555 1_555
C12_5 N3_3 1_555 1_555
H10_6 C12_5 1_555 1_555
N4_5 C10_5 1_555 1_555
C13_5 H11_5 1_555 1_555
C14_5 N4_5 1_555 1_555
C15_5 C14_5 1_555 1_555
H12_5 C15_5 1_555 1_555
C16_5 C15_5 1_555 1_555
H13_5 C16_5 1_555 1_555
C17_5 C16_5 1_555 1_555
C18_5 C13_5 1_555 1_555
C25_6 C24_6 1_555 1_555
H20_5 C25_6 1_555 1_555
C26_6 C25_6 1_555 1_555
H21_6 C26_6 1_555 1_555
N5_6 C28_6 1_555 1_555
C28_6 H22_6 1_555 1_555
C29_6 C28_6 1_555 1_555
N6_6 C29_6 1_555 1_555
C30_6 N5_6 1_555 1_555
H23_6 C30_6 1_555 1_555
C31_6 H24_6 1_555 1_555
C32_6 C31_6 1_555 1_555
H25_6 C32_6 1_555 1_555
C33_6 C32_6 1_555 1_555
C34_6 C33_6 1_555 1_555
H26_6 C34_6 1_555 1_555
C35_6 C34_6 1_555 1_555
H27_6 C35_6 1_555 1_555
C36_6 C29_6 1_555 1_555
C37_6 C38_6 1_555 1_555
C38_6 H28_6 1_555 1_555
C39_6 C38_6 1_555 1_555
H29_6 C39_6 1_555 1_555
C40_6 C39_6 1_555 1_555
C41_6 C40_6 1_555 1_555
H30_6 C41_6 1_555 1_555
C42_6 C37_6 1_555 1_555
H31_6 C42_6 1_555 1_555
H33_6 C44_6 1_555 1_555
C45_6 C44_6 1_555 1_555
C46_6 C45_6 1_555 1_555
H34_6 C46_6 1_555 1_555
Cl1_5 Zn1_3 1_555 1_555
N9_5 C9_5 1_555 1_555
N12_6 C33_6 1_555 1_555
N13_4 C52_6 1_555 1_555
C52_6 H39_6 1_555 1_555
C53_6 C52_6 1_555 1_555
H40_6 C53_6 1_555 1_555
N14_6 C37_6 1_555 1_555
C54_6 N13_4 1_555 1_555
Zn1_3 N2_5 1_555 1_555
N17_4 Zn1_3 1_555 1_555
Zn5_4 N3_3 1_555 1_555
C3_6 N2_5 1_555 1_555
C5_5 C6_5 1_555 1_555
C8_6 C9_5 1_555 1_555
C12_5 N4_5 1_555 1_555
C13_5 C14_5 1_555 1_555
C17_5 C18_5 1_555 1_555
C17_5 N9_5 1_555 1_555
C24_6 N9_5 1_555 1_555
N5_6 Zn1_3 1_555 1_555
N6_6 C30_6 1_555 1_555
C31_6 C36_6 1_555 1_555
C35_6 C36_6 1_555 1_555
C40_6 N12_6 1_555 1_555
C41_6 C42_6 1_555 1_555
C45_6 N12_6 1_555 1_555
C53_6 N14_6 1_555 1_555
N14_6 C54_6 1_555 1_555
H35_7 C47_7 1_555 1_555
C49_7 H36_7 1_555 1_555
N8_7 C49_7 1_555 1_555
Cl2_7 Zn5_3 1_555 1_555
Zn5_3 N8_7 1_555 1_555
N16_4 Zn5_3 1_555 1_555
C47_7 C48_7 1_555 1_555
H25_7 C32_7 1_555 1_555
C37_7 C38_7 1_555 1_555
C38_7 H28_7 1_555 1_555
C39_7 C38_7 1_555 1_555
H29_7 C39_7 1_555 1_555
C40_7 C39_7 1_555 1_555
C41_7 C40_7 1_555 1_555
C42_7 C37_7 1_555 1_555
H31_7 C42_7 1_555 1_555
C45_7 C44_7 1_555 1_555
C46_7 C45_7 1_555 1_555
H34_7 C46_7 1_555 1_555
N17_4 C52_7 1_555 1_555
C52_7 H39_7 1_555 1_555
C53_7 C52_7 1_555 1_555
H40_7 C53_7 1_555 1_555
N14_7 C37_7 1_555 1_555
C54_7 N17_4 1_555 1_555
H41_7 C54_7 1_555 1_555
C40_7 N12_7 1_555 1_555
C41_7 C42_7 1_555 1_555
C45_7 N12_7 1_555 1_555
C53_7 N14_7 1_555 1_555
N14_7 C54_7 1_555 1_555
C3_7 C2_7 1_555 1_555
H6_7 C7_7 1_555 1_555
C8_7 C7_7 1_555 1_555
H7_7 C8_7 1_555 1_555
C19_7 H15_7 1_555 1_555
C20_7 H16_7 1_555 1_555
C21_7 C20_7 1_555 1_555
H17_7 C21_7 1_555 1_555
C22_7 H18_7 1_555 1_555
C23_7 C22_7 1_555 1_555
H19_7 C23_7 1_555 1_555
C24_7 C23_7 1_555 1_555
C25_7 C24_7 1_555 1_555
C26_7 C25_7 1_555 1_555
H21_7 C26_7 1_555 1_555
C27_7 C22_7 1_555 1_555
N5_7 C28_7 1_555 1_555
C28_7 H22_7 1_555 1_555
C29_7 C28_7 1_555 1_555
N6_7 C29_7 1_555 1_555
C30_7 N5_7 1_555 1_555
H23_7 C30_7 1_555 1_555
C34_7 C33_7 1_555 1_555
H26_7 C34_7 1_555 1_555
C35_7 C34_7 1_555 1_555
H27_7 C35_7 1_555 1_555
C36_7 C29_7 1_555 1_555
N10_7 C19_7 1_555 1_555
N11_4 C19_7 1_555 1_555
Zn5_4 N11_4 1_555 1_555
C20_7 N11_4 1_555 1_555
C21_7 N10_7 1_555 1_555
C26_7 C27_7 1_555 1_555
C27_7 N10_7 1_555 1_555
N6_7 C30_7 1_555 1_555
C31_7 C36_7 1_555 1_555
C35_7 C36_7 1_555 1_555
C1_6 H1_6 1_555 1_555
N1_6 C1_6 1_555 1_555
N2_6 C1_6 1_555 1_555
C4_6 H4_6 1_555 1_555
C5_6 C4_6 1_555 1_555
H5_6 C5_6 1_555 1_555
C6_6 N1_6 1_555 1_555
C9_6 C4_6 1_555 1_555
C10_6 H8_6 1_555 1_555
C11_6 C10_6 1_555 1_555
H9_6 C11_6 1_555 1_555
N15_3 C11_6 1_555 1_555
C12_6 N15_3 1_555 1_555
N4_6 C10_6 1_555 1_555
C13_6 H11_6 1_555 1_555
C14_6 N4_6 1_555 1_555
C15_6 C14_6 1_555 1_555
H12_6 C15_6 1_555 1_555
C16_6 C15_6 1_555 1_555
H13_6 C16_6 1_555 1_555
C17_6 C16_6 1_555 1_555
C18_6 C13_6 1_555 1_555
H14_6 C18_6 1_555 1_555
Cl1_6 Zn3_4 1_555 1_555
N9_6 C9_6 1_555 1_555
Zn3_4 N2_6 1_555 1_555
C5_6 C6_6 1_555 1_555
C12_6 N4_6 1_555 1_555
C13_6 C14_6 1_555 1_555
C17_6 C18_6 1_555 1_555
C17_6 N9_6 1_555 1_555
C19_8 H15_8 1_555 1_555
C20_8 H16_8 1_555 1_555
C21_8 C20_8 1_555 1_555
H17_8 C21_8 1_555 1_555
C22_8 H18_8 1_555 1_555
C23_8 C22_8 1_555 1_555
H19_8 C23_8 1_555 1_555
C27_8 C22_8 1_555 1_555
N10_8 C19_8 1_555 1_555
N16_4 C19_8 1_555 1_555
C20_8 N16_4 1_555 1_555
C21_8 N10_8 1_555 1_555
C27_8 N10_8 1_555 1_555
C1_7 H1_7 1_555 1_555
N1_7 C1_7 1_555 1_555
C2_8 N1_7 1_555 1_555
H2_8 C2_8 1_555 1_555
C3_8 C2_8 1_555 1_555
H3_8 C3_8 1_555 1_555
N2_7 C1_7 1_555 1_555
C4_7 H4_7 1_555 1_555
C5_7 C4_7 1_555 1_555
H5_7 C5_7 1_555 1_555
C6_7 N1_7 1_555 1_555
C7_8 C6_7 1_555 1_555
H6_8 C7_8 1_555 1_555
C8_8 C7_8 1_555 1_555
H7_8 C8_8 1_555 1_555
C9_7 C4_7 1_555 1_555
C10_7 H8_7 1_555 1_555
C11_7 C10_7 1_555 1_555
H9_7 C11_7 1_555 1_555
N15_4 C11_7 1_555 1_555
C12_7 N15_4 1_555 1_555
H10_8 C12_7 1_555 1_555
N4_7 C10_7 1_555 1_555
C13_7 H11_7 1_555 1_555
C14_7 N4_7 1_555 1_555
C15_7 C14_7 1_555 1_555
H12_7 C15_7 1_555 1_555
C16_7 C15_7 1_555 1_555
H13_7 C16_7 1_555 1_555
C17_7 C16_7 1_555 1_555
C18_7 C13_7 1_555 1_555
C25_8 C24_8 1_555 1_555
H20_7 C25_8 1_555 1_555
C26_8 C25_8 1_555 1_555
H21_8 C26_8 1_555 1_555
N5_8 C28_8 1_555 1_555
C28_8 H22_8 1_555 1_555
C29_8 C28_8 1_555 1_555
N6_8 C29_8 1_555 1_555
C30_8 N5_8 1_555 1_555
H23_8 C30_8 1_555 1_555
C31_8 H24_8 1_555 1_555
C32_8 C31_8 1_555 1_555
H25_8 C32_8 1_555 1_555
C33_8 C32_8 1_555 1_555
C34_8 C33_8 1_555 1_555
H26_8 C34_8 1_555 1_555
C35_8 C34_8 1_555 1_555
H27_8 C35_8 1_555 1_555
C36_8 C29_8 1_555 1_555
C37_8 C38_8 1_555 1_555
C38_8 H28_8 1_555 1_555
C39_8 C38_8 1_555 1_555
H29_8 C39_8 1_555 1_555
C40_8 C39_8 1_555 1_555
C41_8 C40_8 1_555 1_555
H30_8 C41_8 1_555 1_555
C42_8 C37_8 1_555 1_555
H31_8 C42_8 1_555 1_555
C43_7 H32_7 1_555 1_555
C44_8 C43_7 1_555 1_555
H33_8 C44_8 1_555 1_555
C45_8 C44_8 1_555 1_555
C46_8 C45_8 1_555 1_555
H34_8 C46_8 1_555 1_555
C47_8 C46_8 1_555 1_555
H35_8 C47_8 1_555 1_555
C48_8 C43_7 1_555 1_555
C49_8 H36_8 1_555 1_555
N7_7 C48_8 1_555 1_555
C50_7 N7_7 1_555 1_555
H37_7 C50_7 1_555 1_555
C51_7 C50_7 1_555 1_555
H38_7 C51_7 1_555 1_555
N8_8 C49_8 1_555 1_555
Cl1_7 Zn3_3 1_555 1_555
Cl2_8 Zn5_4 1_555 1_555
N9_7 C9_7 1_555 1_555
N12_8 C33_8 1_555 1_555
N17_3 C52_8 1_555 1_555
C52_8 H39_8 1_555 1_555
C53_8 C52_8 1_555 1_555
H40_8 C53_8 1_555 1_555
N14_8 C37_8 1_555 1_555
C54_8 N17_3 1_555 1_555
Zn3_3 N2_7 1_555 1_555
Zn5_4 N8_8 1_555 1_555
C3_8 N2_7 1_555 1_555
C5_7 C6_7 1_555 1_555
C8_8 C9_7 1_555 1_555
C12_7 N4_7 1_555 1_555
C13_7 C14_7 1_555 1_555
C17_7 C18_7 1_555 1_555
C17_7 N9_7 1_555 1_555
C24_8 N9_7 1_555 1_555
N5_8 Zn3_3 1_555 1_555
N6_8 C30_8 1_555 1_555
C31_8 C36_8 1_555 1_555
C35_8 C36_8 1_555 1_555
C40_8 N12_8 1_555 1_555
C41_8 C42_8 1_555 1_555
C45_8 N12_8 1_555 1_555
C47_8 C48_8 1_555 1_555
C49_8 N7_7 1_555 1_555
C51_7 N8_8 1_555 1_555
C53_8 N14_8 1_555 1_555
N14_8 C54_8 1_555 1_555
C1_8 H1_8 1_555 1_555
N1_8 C1_8 1_555 1_555
N2_8 C1_8 1_555 1_555
C4_8 H4_8 1_555 1_555
C5_8 C4_8 1_555 1_555
H5_8 C5_8 1_555 1_555
C6_8 N1_8 1_555 1_555
C9_8 C4_8 1_555 1_555
C10_8 H8_8 1_555 1_555
C11_8 C10_8 1_555 1_555
H9_8 C11_8 1_555 1_555
N3_4 C11_8 1_555 1_555
C12_8 N3_4 1_555 1_555
N4_8 C10_8 1_555 1_555
C13_8 H11_8 1_555 1_555
C14_8 N4_8 1_555 1_555
C15_8 C14_8 1_555 1_555
H12_8 C15_8 1_555 1_555
C16_8 C15_8 1_555 1_555
H13_8 C16_8 1_555 1_555
C17_8 C16_8 1_555 1_555
C18_8 C13_8 1_555 1_555
H14_8 C18_8 1_555 1_555
Cl1_8 Zn1_4 1_555 1_555
N9_8 C9_8 1_555 1_555
Zn1_4 N2_8 1_555 1_555
C5_8 C6_8 1_555 1_555
C12_8 N4_8 1_555 1_555
C13_8 C14_8 1_555 1_555
C17_8 C18_8 1_555 1_555
C17_8 N9_8 1_555 1_555
C43_8 H32_8 1_555 1_555
C50_8 N7_8 1_555 1_555
H37_8 C50_8 1_555 1_555
C51_8 C50_8 1_555 1_555
H38_8 C51_8 1_555 1_555

#END
