
###############################################################################
#
# This file contains modified crystal structure data generated from the
# MOF subset of the Cambridge Structural Database (CSD) v543 
# hosted by the Cambridge Crystallographic Data Centre (CCDC).
#
# This work is licensed under the Creative Commons
# Attribution-NonCommercial-ShareAlike 4.0 International License.
# To view a copy of this license, visit
# http://creativecommons.org/licenses/by-nc-sa/4.0/
# or send a letter to
# Creative Commons, PO Box 1866, Mountain View, CA 94042, USA.
#
# CIF created using the CSD Python API on 29 September 2022
# The structure has been converted into the P1 space group
# The structure has a 3D framework
# The original CSD entry KOMHAW is in the monoclinic crystal system
# The framework has been calculated to contain at least 10.0% void space
# The void calculation uses a probe of radius 1.32A, grid spacing 0.4
#
###############################################################################

data_KOMHAW
_chemical_formula_moiety         '(C46 H64 N62 O38 Zn16)n'
_symmetry_cell_setting           triclinic
_symmetry_space_group_name_H-M   'P 1'
_symmetry_Int_Tables_number      1
_space_group_name_Hall           'P 1'
loop_
_symmetry_equiv_pos_site_id
_symmetry_equiv_pos_as_xyz
1 x,y,z
_cell_length_a                   33.587(3)
_cell_length_b                   9.0436(7)
_cell_length_c                   9.7308(8)
_cell_angle_alpha                90
_cell_angle_beta                 94.5890(10)
_cell_angle_gamma                90
_cell_volume                     2946.23
loop_
_atom_site_label
_atom_site_type_symbol
_atom_site_fract_x
_atom_site_fract_y
_atom_site_fract_z
Zn1 Zn 0.417871(17) 0.19953(6) 0.24039(6)
Zn2 Zn 0.328540(17) 0.29513(6) 0.44696(6)
N1 N 0.40582(13) 0.1047(5) 0.4159(4)
N2 N 0.37471(14) 0.1432(5) 0.4931(5)
N5 N 0.37953(12) 0.3676(5) 0.2066(5)
N6 N 0.34437(13) 0.3885(5) 0.2662(5)
N7 N 0.34602(13) 0.5423(5) 0.0896(5)
N8 N 0.40967(19) 0.4770(9) 0.0188(8)
H4 H 0.4306 0.4226 0.0321
O1 O 0.46715(12) 0.3097(5) 0.2408(6)
O2 O 0.5000 0.0980(6) 0.2500
O3 O 0.29313(12) 0.1706(6) 0.5756(6)
O4 O 0.22997(12) 0.1170(5) 0.6025(5)
C2 C 0.37675(16) 0.0540(7) 0.5966(6)
H5 H 0.3590 0.0573 0.6652
C3 C 0.37906(16) 0.4630(7) 0.1034(6)
C4 C 0.32542(17) 0.4919(7) 0.1932(6)
H6 H 0.3003 0.5270 0.2110
C5 C 0.5000 0.2368(10) 0.2500
C6 C 0.25676(17) 0.1885(6) 0.5488(7)
O5 O 0.3017(4) 0.1051(15) 0.2856(14)
H7 H 0.3193 0.0391 0.2765
H8 H 0.2953 0.1448 0.2077
Zn5 Zn 0.582129(17) 0.19953(6) 0.25961(6)
Zn6 Zn 0.417871(17) 0.80047(6) 0.74039(6)
Zn9 Zn 0.171460(17) 0.20487(6) 0.55304(6)
Zn10 Zn 0.328540(17) 0.70487(6) 0.94696(6)
N11 N 0.40677(14) 0.0441(5) 0.0965(5)
N14 N 0.37953(12) 0.6324(5) 0.7066(5)
N16 N 0.34437(13) 0.6115(5) 0.7662(5)
N18 N 0.34602(13) 0.4577(5) 0.5896(5)
N20 N 0.40967(19) 0.5230(9) 0.5188(8)
H11 H 0.4079 0.4599 0.4524
H12 H 0.4306 0.5774 0.5321
O6 O 0.53285(12) 0.3097(5) 0.2592(6)
O8 O 0.20687(12) 0.3294(6) 0.4244(6)
O10 O 0.27003(12) 0.3830(5) 0.3975(5)
C9 C 0.37906(16) 0.5370(7) 0.6034(6)
C10 C 0.32542(17) 0.5081(7) 0.6932(6)
H14 H 0.3003 0.4730 0.7110
C11 C 0.24324(17) 0.3115(6) 0.4512(7)
H3 H 0.4079 0.5401 0.9524
N13 N 0.45581(19) 0.0816(7) 0.9354(7)
H9 H 0.4654 0.0547 0.8600
H10 H 0.4663 0.1545 0.9820
C7 C 0.42390(17) 0.0087(6) 0.9811(6)
N3 N 0.40677(14) 0.9559(5) 0.5965(5)
N4 N 0.45581(19) 0.9184(7) 0.4354(7)
H1 H 0.4654 0.9453 0.3600
H2 H 0.4663 0.8455 0.4820
C1 C 0.42390(17) 0.9913(6) 0.4811(6)
O9 O 0.29313(12) 0.8294(6) 0.0756(6)
C8 C 0.37675(16) 0.9460(7) 0.0966(6)
H13 H 0.3590 0.9427 0.1652
N9 N 0.40582(13) 0.8953(5) 0.9159(4)
N10 N 0.37471(14) 0.8568(5) 0.9931(5)
O7 O 0.46715(12) 0.6903(5) 0.7408(6)
O11 O 0.27003(12) 0.6170(5) 0.8975(5)
O12 O 0.3017(4) 0.8949(15) 0.7856(14)
H15 H 0.3193 0.9609 0.7765
H16 H 0.2953 0.8552 0.7077
O2_2 O 0.0000 0.5980(6) 0.2500
C5_2 C 0.0000 0.7368(10) 0.2500
Zn5_2 Zn 0.082129(17) 0.69953(6) 0.25961(6)
O6_2 O 0.03285(12) 0.8097(5) 0.2592(6)
N7_2 N 0.84602(13) 0.0423(5) 0.0896(5)
H6_2 H 0.8003 0.0270 0.2110
Zn6_2 Zn 0.917871(17) 0.30047(6) 0.74039(6)
Zn10_2 Zn 0.828540(17) 0.20487(6) 0.94696(6)
N14_2 N 0.87953(12) 0.1324(5) 0.7066(5)
N16_2 N 0.84437(13) 0.1115(5) 0.7662(5)
N20_2 N 0.90967(19) 0.0230(9) 0.5188(8)
H12_2 H 0.9306 0.0774 0.5321
C9_2 C 0.87906(16) 0.0370(7) 0.6034(6)
C10_2 C 0.82542(17) 0.0081(7) 0.6932(6)
H3_2 H 0.9079 0.0401 0.9524
Zn1_2 Zn 0.917871(17) 0.69953(6) 0.24039(6)
Zn2_2 Zn 0.828540(17) 0.79513(6) 0.44696(6)
N1_2 N 0.90582(13) 0.6047(5) 0.4159(4)
N2_2 N 0.87471(14) 0.6432(5) 0.4931(5)
N3_2 N 0.90677(14) 0.4559(5) 0.5965(5)
N4_2 N 0.95581(19) 0.4184(7) 0.4354(7)
H1_2 H 0.9654 0.4453 0.3600
H2_2 H 0.9663 0.3455 0.4820
N5_2 N 0.87953(12) 0.8676(5) 0.2066(5)
N6_2 N 0.84437(13) 0.8885(5) 0.2662(5)
N8_2 N 0.90967(19) 0.9770(9) 0.0188(8)
H4_2 H 0.9306 0.9226 0.0321
O1_2 O 0.96715(12) 0.8097(5) 0.2408(6)
O2_3 O 1.0000 0.5980(6) 0.2500
O3_2 O 0.79313(12) 0.6706(6) 0.5756(6)
O4_2 O 0.72997(12) 0.6170(5) 0.6025(5)
C1_2 C 0.92390(17) 0.4913(6) 0.4811(6)
C2_2 C 0.87675(16) 0.5540(7) 0.5966(6)
H5_2 H 0.8590 0.5573 0.6652
C3_2 C 0.87906(16) 0.9630(7) 0.1034(6)
C4_2 C 0.82542(17) 0.9919(7) 0.1932(6)
C5_3 C 1.0000 0.7368(10) 0.2500
C6_2 C 0.75676(17) 0.6885(6) 0.5488(7)
O5_2 O 0.8017(4) 0.6051(15) 0.2856(14)
H7_2 H 0.8193 0.5391 0.2765
H8_2 H 0.7953 0.6448 0.2077
Zn9_2 Zn 0.671460(17) 0.70487(6) 0.55304(6)
N11_2 N 0.90677(14) 0.5441(5) 0.0965(5)
N18_2 N 0.84602(13) 0.9577(5) 0.5896(5)
H11_2 H 0.9079 0.9599 0.4524
O8_2 O 0.70687(12) 0.8294(6) 0.4244(6)
O9_2 O 0.79313(12) 0.3294(6) 0.0756(6)
O10_2 O 0.77003(12) 0.8830(5) 0.3975(5)
C8_2 C 0.87675(16) 0.4460(7) 0.0966(6)
H13_2 H 0.8590 0.4427 0.1652
H14_2 H 0.8003 0.9730 0.7110
C11_2 C 0.74324(17) 0.8115(6) 0.4512(7)
N9_2 N 0.90582(13) 0.3953(5) 0.9159(4)
N10_2 N 0.87471(14) 0.3568(5) 0.9931(5)
N13_2 N 0.95581(19) 0.5816(7) 0.9354(7)
H9_2 H 0.9654 0.5547 0.8600
H10_2 H 0.9663 0.6545 0.9820
O7_2 O 0.96715(12) 0.1903(5) 0.7408(6)
O11_2 O 0.77003(12) 0.1170(5) 0.8975(5)
C7_2 C 0.92390(17) 0.5087(6) 0.9811(6)
O12_2 O 0.8017(4) 0.3949(15) 0.7856(14)
H15_2 H 0.8193 0.4609 0.7765
H16_2 H 0.7953 0.3552 0.7077
Zn2_3 Zn 0.671460(17) 0.29513(6) 0.05304(6)
N1_3 N 0.59418(13) 0.1047(5) 0.0841(4)
N2_3 N 0.62529(14) 0.1432(5) 0.0069(5)
N5_3 N 0.62047(12) 0.3676(5) 0.2934(5)
N6_3 N 0.65563(13) 0.3885(5) 0.2338(5)
N7_3 N 0.65398(13) 0.5423(5) 0.4104(5)
N8_3 N 0.59033(19) 0.4770(9) 0.4812(8)
H3_3 H 0.5921 0.5401 0.5476
H4_3 H 0.5694 0.4226 0.4679
C3_3 C 0.62094(16) 0.4630(7) 0.3966(6)
C4_3 C 0.67458(17) 0.4919(7) 0.3068(6)
H6_3 H 0.6997 0.5270 0.2890
O5_3 O 0.6983(4) 0.1051(15) 0.2144(14)
H7_3 H 0.6807 0.0391 0.2235
H8_3 H 0.7047 0.1448 0.2923
N11_3 N 0.59323(14) 0.0441(5) 0.4035(5)
N13_3 N 0.54419(19) 0.0816(7) 0.5646(7)
H9_3 H 0.5346 0.0547 0.6400
H10_3 H 0.5337 0.1545 0.5180
H11_3 H 0.5921 0.4599 0.0476
O10_3 O 0.72997(12) 0.3830(5) 0.1025(5)
C7_3 C 0.57610(17) 0.0087(6) 0.5189(6)
C11_3 C 0.75676(17) 0.3115(6) 0.0488(7)
O3_3 O 0.70687(12) 0.1706(6) 0.9244(6)
C2_3 C 0.62325(16) 0.0540(7) 0.9034(6)
H5_3 H 0.6410 0.0573 0.8348
C6_3 C 0.74324(17) 0.1885(6) 0.9512(7)
Zn6_3 Zn 0.582129(17) 0.80047(6) 0.75961(6)
N14_3 N 0.62047(12) 0.6324(5) 0.7934(5)
N16_3 N 0.65563(13) 0.6115(5) 0.7338(5)
N18_3 N 0.65398(13) 0.4577(5) 0.9104(5)
N20_3 N 0.59033(19) 0.5230(9) 0.9812(8)
H12_3 H 0.5694 0.5774 0.9679
C9_3 C 0.62094(16) 0.5370(7) 0.8966(6)
C10_3 C 0.67458(17) 0.5081(7) 0.8068(6)
H14_3 H 0.6997 0.4730 0.7890
N4_3 N 0.54419(19) 0.9184(7) 0.0646(7)
H1_3 H 0.5346 0.9453 0.1400
H2_3 H 0.5337 0.8455 0.0180
C1_3 C 0.57610(17) 0.9913(6) 0.0189(6)
N9_3 N 0.59418(13) 0.8953(5) 0.5841(4)
N10_3 N 0.62529(14) 0.8568(5) 0.5069(5)
N12 N 0.59323(14) 0.9559(5) 0.9035(5)
O7_3 O 0.53285(12) 0.6903(5) 0.7592(6)
C8_3 C 0.62325(16) 0.9460(7) 0.4034(6)
H13_3 H 0.6410 0.9427 0.3348
O12_3 O 0.6983(4) 0.8949(15) 0.7144(14)
H15_3 H 0.6807 0.9609 0.7235
H16_3 H 0.7047 0.8552 0.7923
N7_4 N 0.15398(13) 0.0423(5) 0.4104(5)
H3_4 H 0.0921 0.0401 0.5476
H6_4 H 0.1997 0.0270 0.2890
Zn6_4 Zn 0.082129(17) 0.30047(6) 0.75961(6)
N14_4 N 0.12047(12) 0.1324(5) 0.7934(5)
N16_4 N 0.15563(13) 0.1115(5) 0.7338(5)
N20_4 N 0.09033(19) 0.0230(9) 0.9812(8)
H12_4 H 0.0694 0.0774 0.9679
C9_4 C 0.12094(16) 0.0370(7) 0.8966(6)
C10_4 C 0.17458(17) 0.0081(7) 0.8068(6)
Zn2_4 Zn 0.171460(17) 0.79513(6) 0.05304(6)
N1_4 N 0.09418(13) 0.6047(5) 0.0841(4)
N2_4 N 0.12529(14) 0.6432(5) 0.0069(5)
N4_4 N 0.04419(19) 0.4184(7) 0.0646(7)
H1_4 H 0.0346 0.4453 0.1400
H2_4 H 0.0337 0.3455 0.0180
N5_4 N 0.12047(12) 0.8676(5) 0.2934(5)
N6_4 N 0.15563(13) 0.8885(5) 0.2338(5)
N8_4 N 0.09033(19) 0.9770(9) 0.4812(8)
H4_4 H 0.0694 0.9226 0.4679
C1_4 C 0.07610(17) 0.4913(6) 0.0189(6)
C3_4 C 0.12094(16) 0.9630(7) 0.3966(6)
C4_4 C 0.17458(17) 0.9919(7) 0.3068(6)
O5_4 O 0.1983(4) 0.6051(15) 0.2144(14)
H7_4 H 0.1807 0.5391 0.2235
H8_4 H 0.2047 0.6448 0.2923
N9_4 N 0.09418(13) 0.3953(5) 0.5841(4)
N10_4 N 0.12529(14) 0.3568(5) 0.5069(5)
N11_4 N 0.09323(14) 0.5441(5) 0.4035(5)
N12_2 N 0.09323(14) 0.4559(5) 0.9035(5)
N13_4 N 0.04419(19) 0.5816(7) 0.5646(7)
H9_4 H 0.0346 0.5547 0.6400
H10_4 H 0.0337 0.6545 0.5180
H11_4 H 0.0921 0.9599 0.0476
O7_4 O 0.03285(12) 0.1903(5) 0.7592(6)
O10_4 O 0.22997(12) 0.8830(5) 0.1025(5)
C7_4 C 0.07610(17) 0.5087(6) 0.5189(6)
C8_4 C 0.12325(16) 0.4460(7) 0.4034(6)
H13_4 H 0.1410 0.4427 0.3348
C11_4 C 0.25676(17) 0.8115(6) 0.0488(7)
O12_4 O 0.1983(4) 0.3949(15) 0.7144(14)
H15_4 H 0.1807 0.4609 0.7235
H16_4 H 0.2047 0.3552 0.7923
O3_4 O 0.20687(12) 0.6706(6) 0.9244(6)
C2_4 C 0.12325(16) 0.5540(7) 0.9034(6)
H5_4 H 0.1410 0.5573 0.8348
C6_4 C 0.24324(17) 0.6885(6) 0.9512(7)
N18_4 N 0.15398(13) 0.9577(5) 0.9104(5)
H14_4 H 0.1997 0.9730 0.7890
O2_4 O 0.5000 0.9020(6) 0.7500
C5_4 C 0.5000 0.7632(10) 0.7500
O2_5 O 0.0000 0.4020(6) 0.7500
C5_5 C 0.0000 0.2632(10) 0.7500
O2_6 O 1.0000 0.4020(6) 0.7500
C5_6 C 1.0000 0.2632(10) 0.7500
loop_
_geom_bond_atom_site_label_1
_geom_bond_atom_site_label_2
_geom_bond_site_symmetry_1
_geom_bond_site_symmetry_2
Zn1 N1 1_555 1_555
Zn2 N2 1_555 1_555
N1 N2 1_555 1_555
N2 C2 1_555 1_555
N5 Zn1 1_555 1_555
N6 Zn2 1_555 1_555
N7 C3 1_555 1_555
H4 N8 1_555 1_555
O1 Zn1 1_555 1_555
O2 C5 1_555 1_555
O3 Zn2 1_555 1_555
O4 C6 1_555 1_555
H5 C2 1_555 1_555
C3 N5 1_555 1_555
C4 N6 1_555 1_555
H6 C4 1_555 1_555
C5 O1 1_555 1_555
C6 O3 1_555 1_555
O5 Zn2 1_555 1_555
H7 O5 1_555 1_555
H8 O5 1_555 1_555
Zn5 O6 1_555 1_555
Zn6 N14 1_555 1_555
Zn9 O4 1_555 1_555
Zn10 N16 1_555 1_555
N11 Zn1 1_555 1_555
N14 N16 1_555 1_555
N16 C10 1_555 1_555
N18 Zn2 1_555 1_555
N20 H11 1_555 1_555
H12 N20 1_555 1_555
O6 C5 1_555 1_555
O8 Zn9 1_555 1_555
O10 Zn2 1_555 1_555
C9 N14 1_555 1_555
C10 N18 1_555 1_555
H14 C10 1_555 1_555
C11 C6 1_555 1_555
N5 N6 1_555 1_555
N7 C4 1_555 1_555
N8 C3 1_555 1_555
N18 C9 1_555 1_555
N20 C9 1_555 1_555
O8 C11 1_555 1_555
O10 C11 1_555 1_555
N13 H9 1_555 1_555
H10 N13 1_555 1_555
N13 C7 1_555 1_555
N3 C1 1_555 1_555
N4 H1 1_555 1_555
H2 N4 1_555 1_555
Zn6 N3 1_555 1_555
H13 C8 1_555 1_555
N4 C1 1_555 1_555
Zn6 N9 1_555 1_555
Zn10 N10 1_555 1_555
N9 N10 1_555 1_555
O7 Zn6 1_555 1_555
O11 Zn10 1_555 1_555
O12 Zn10 1_555 1_555
H15 O12 1_555 1_555
H16 O12 1_555 1_555
O2_2 C5_2 1_555 1_555
Zn5_2 O6_2 1_555 1_555
O6_2 C5_2 1_555 1_555
Zn6_2 N14_2 1_555 1_555
Zn10_2 N16_2 1_555 1_555
N14_2 N16_2 1_555 1_555
N16_2 C10_2 1_555 1_555
H12_2 N20_2 1_555 1_555
C9_2 N14_2 1_555 1_555
N20_2 C9_2 1_555 1_555
Zn1_2 N1_2 1_555 1_555
Zn2_2 N2_2 1_555 1_555
N1_2 N2_2 1_555 1_555
N2_2 C2_2 1_555 1_555
N3_2 C1_2 1_555 1_555
N4_2 H1_2 1_555 1_555
H2_2 N4_2 1_555 1_555
N5_2 Zn1_2 1_555 1_555
N6_2 Zn2_2 1_555 1_555
H4_2 N8_2 1_555 1_555
O1_2 Zn1_2 1_555 1_555
O2_3 C5_3 1_555 1_555
O3_2 Zn2_2 1_555 1_555
O4_2 C6_2 1_555 1_555
C1_2 N1_2 1_555 1_555
C2_2 N3_2 1_555 1_555
H5_2 C2_2 1_555 1_555
C3_2 N5_2 1_555 1_555
C4_2 N6_2 1_555 1_555
C5_3 O1_2 1_555 1_555
C6_2 O3_2 1_555 1_555
O5_2 Zn2_2 1_555 1_555
H7_2 O5_2 1_555 1_555
H8_2 O5_2 1_555 1_555
Zn6_2 N3_2 1_555 1_555
Zn9_2 O4_2 1_555 1_555
N11_2 Zn1_2 1_555 1_555
N18_2 Zn2_2 1_555 1_555
O8_2 Zn9_2 1_555 1_555
O10_2 Zn2_2 1_555 1_555
C8_2 N11_2 1_555 1_555
H13_2 C8_2 1_555 1_555
C11_2 C6_2 1_555 1_555
N4_2 C1_2 1_555 1_555
N5_2 N6_2 1_555 1_555
N8_2 C3_2 1_555 1_555
O8_2 C11_2 1_555 1_555
O10_2 C11_2 1_555 1_555
Zn6_2 N9_2 1_555 1_555
Zn10_2 N10_2 1_555 1_555
N9_2 N10_2 1_555 1_555
N13_2 H9_2 1_555 1_555
H10_2 N13_2 1_555 1_555
O7_2 Zn6_2 1_555 1_555
O11_2 Zn10_2 1_555 1_555
C7_2 N9_2 1_555 1_555
O12_2 Zn10_2 1_555 1_555
H15_2 O12_2 1_555 1_555
H16_2 O12_2 1_555 1_555
N13_2 C7_2 1_555 1_555
Zn5 N1_3 1_555 1_555
Zn2_3 N2_3 1_555 1_555
N1_3 N2_3 1_555 1_555
N5_3 Zn5 1_555 1_555
N6_3 Zn2_3 1_555 1_555
N7_3 C3_3 1_555 1_555
N8_3 H3_3 1_555 1_555
H4_3 N8_3 1_555 1_555
C3_3 N5_3 1_555 1_555
C4_3 N6_3 1_555 1_555
H6_3 C4_3 1_555 1_555
O5_3 Zn2_3 1_555 1_555
H7_3 O5_3 1_555 1_555
H8_3 O5_3 1_555 1_555
Zn9_2 N7_3 1_555 1_555
N11_3 Zn5 1_555 1_555
N13_3 H9_3 1_555 1_555
H10_3 N13_3 1_555 1_555
O10_3 Zn2_3 1_555 1_555
N5_3 N6_3 1_555 1_555
N7_3 C4_3 1_555 1_555
N8_3 C3_3 1_555 1_555
N11_3 C7_3 1_555 1_555
N13_3 C7_3 1_555 1_555
O9_2 C11_3 1_555 1_555
O10_3 C11_3 1_555 1_555
O11_2 C6_3 1_555 1_555
H5_3 C2_3 1_555 1_555
C6_3 O3_3 1_555 1_555
Zn6_3 N14_3 1_555 1_555
Zn9_2 N16_3 1_555 1_555
N14_3 N16_3 1_555 1_555
N16_3 C10_3 1_555 1_555
H12_3 N20_3 1_555 1_555
C9_3 N14_3 1_555 1_555
C10_3 N18_3 1_555 1_555
H14_3 C10_3 1_555 1_555
N18_3 C9_3 1_555 1_555
N20_3 C9_3 1_555 1_555
N4_3 H1_3 1_555 1_555
H2_3 N4_3 1_555 1_555
Zn6_3 N9_3 1_555 1_555
Zn9_2 N10_3 1_555 1_555
N9_3 N10_3 1_555 1_555
N10_3 C8_3 1_555 1_555
N12 Zn6_3 1_555 1_555
O7_3 Zn6_3 1_555 1_555
H13_3 C8_3 1_555 1_555
O12_3 Zn9_2 1_555 1_555
H15_3 O12_3 1_555 1_555
H16_3 O12_3 1_555 1_555
N4_3 C1_3 1_555 1_555
Zn9 N7_4 1_555 1_555
Zn6_4 N14_4 1_555 1_555
Zn9 N16_4 1_555 1_555
N14_4 N16_4 1_555 1_555
N16_4 C10_4 1_555 1_555
H12_4 N20_4 1_555 1_555
C9_4 N14_4 1_555 1_555
N20_4 C9_4 1_555 1_555
Zn5_2 N1_4 1_555 1_555
Zn2_4 N2_4 1_555 1_555
N1_4 N2_4 1_555 1_555
N4_4 H1_4 1_555 1_555
H2_4 N4_4 1_555 1_555
N5_4 Zn5_2 1_555 1_555
N6_4 Zn2_4 1_555 1_555
H4_4 N8_4 1_555 1_555
C1_4 N1_4 1_555 1_555
C3_4 N5_4 1_555 1_555
C4_4 N6_4 1_555 1_555
O5_4 Zn2_4 1_555 1_555
H7_4 O5_4 1_555 1_555
H8_4 O5_4 1_555 1_555
Zn6_4 N9_4 1_555 1_555
Zn9 N10_4 1_555 1_555
N9_4 N10_4 1_555 1_555
N10_4 C8_4 1_555 1_555
N11_4 Zn5_2 1_555 1_555
N12_2 Zn6_4 1_555 1_555
N13_4 H9_4 1_555 1_555
H10_4 N13_4 1_555 1_555
O7_4 Zn6_4 1_555 1_555
O10_4 Zn2_4 1_555 1_555
C7_4 N9_4 1_555 1_555
C8_4 N11_4 1_555 1_555
H13_4 C8_4 1_555 1_555
O12_4 Zn9 1_555 1_555
H15_4 O12_4 1_555 1_555
H16_4 O12_4 1_555 1_555
N4_4 C1_4 1_555 1_555
N5_4 N6_4 1_555 1_555
N8_4 C3_4 1_555 1_555
N11_4 C7_4 1_555 1_555
N13_4 C7_4 1_555 1_555
O9 C11_4 1_555 1_555
O10_4 C11_4 1_555 1_555
O11 C6_4 1_555 1_555
C2_4 N12_2 1_555 1_555
H5_4 C2_4 1_555 1_555
C6_4 O3_4 1_555 1_555
O2_4 C5_4 1_555 1_555
C5_4 O7_3 1_555 1_555
O7 C5_4 1_555 1_555
O2_5 C5_5 1_555 1_555
C5_5 O7_4 1_555 1_555
O2_6 C5_6 1_555 1_555
O7_2 C5_6 1_555 1_555

#END
