
###############################################################################
#
# This file contains modified crystal structure data generated from the
# MOF subset of the Cambridge Structural Database (CSD) v543 
# hosted by the Cambridge Crystallographic Data Centre (CCDC).
#
# This work is licensed under the Creative Commons
# Attribution-NonCommercial-ShareAlike 4.0 International License.
# To view a copy of this license, visit
# http://creativecommons.org/licenses/by-nc-sa/4.0/
# or send a letter to
# Creative Commons, PO Box 1866, Mountain View, CA 94042, USA.
#
# CIF created using the CSD Python API on 29 September 2022
# The structure has been converted into the P1 space group
# The structure has a 3D framework
# The original CSD entry KOMHEA is in the monoclinic crystal system
# The framework has been calculated to contain at least 10.0% void space
# The void calculation uses a probe of radius 1.32A, grid spacing 0.4
#
###############################################################################

data_KOMHEA
_chemical_formula_moiety         '(C32 H40 N28 O14 Zn8)n'
_symmetry_cell_setting           triclinic
_symmetry_space_group_name_H-M   'P 1'
_symmetry_Int_Tables_number      1
_space_group_name_Hall           'P 1'
loop_
_symmetry_equiv_pos_site_id
_symmetry_equiv_pos_as_xyz
1 x,y,z
_cell_length_a                   22.267(8)
_cell_length_b                   8.262(3)
_cell_length_c                   9.323(4)
_cell_angle_alpha                90
_cell_angle_beta                 111.271(6)
_cell_angle_gamma                90
_cell_volume                     1598.31
loop_
_atom_site_label
_atom_site_type_symbol
_atom_site_fract_x
_atom_site_fract_y
_atom_site_fract_z
Zn1 Zn 0.17255(6) 0.23370(16) 0.03410(15)
O2 O 0.1084(4) 0.3969(13) 0.0292(13)
Zn5 Zn 0.32745(6) 0.73370(16) 0.46590(15)
N5 N 0.3131(4) 0.3607(12) 0.1477(11)
N6 N 0.2499(4) 0.3808(12) 0.1379(11)
N7 N 0.3103(4) 0.5530(12) 0.3123(10)
N8 N 0.1897(4) 0.0530(12) 0.1877(10)
N10 N 0.4117(5) 0.4872(18) 0.2946(15)
H6 H 0.4318 0.5570 0.3638
H7 H 0.4326 0.4290 0.2519
C5 C 0.3474(5) 0.4688(14) 0.2532(12)
C6 C 0.2517(5) 0.4927(15) 0.2375(12)
H8 H 0.2153 0.5276 0.2550
C8 C 0.0045(7) 0.5827(19) 0.037(2)
H10 H 0.0308 0.5706 0.1448
N1 N 0.1869(4) 0.1393(12) 0.8523(11)
N2 N 0.2501(4) 0.1192(12) 0.8621(11)
N4 N 0.0883(5) 0.0128(18) 0.7054(15)
H2 H 0.0674 0.0710 0.7481
O1 O 0.0486(5) 0.1872(15) 0.9302(11)
C1 C 0.1526(5) 0.0312(14) 0.7468(12)
C2 C 0.2483(5) 0.0073(15) 0.7625(12)
C3 C 0.0536(6) 0.3274(18) 0.9744(16)
Zn2 Zn 0.32745(6) 0.26630(16) 0.96590(15)
N9 N 0.3103(4) 0.4470(12) 0.8123(10)
O5 O 0.3916(4) 0.1031(13) 0.9708(13)
H9 H 0.0289 0.6482 0.9904
N3 N 0.1897(4) 0.9470(12) 0.6877(10)
H1 H 0.0682 0.9430 0.6362
H3 H 0.2847 0.9724 0.7450
Zn3 Zn 0.17255(6) 0.76630(16) 0.53410(15)
H4 H 0.9711 0.3518 0.0096
O3 O 0.9514(5) 0.8128(15) 0.0698(11)
C7 C 0.9464(6) 0.6726(18) 0.0256(16)
C4 C 0.9955(7) 0.4173(19) 0.963(2)
H5 H 0.9692 0.4294 0.8552
Zn4 Zn 0.82745(6) 0.76630(16) 0.96590(15)
O4 O 0.8916(4) 0.6031(13) 0.9708(13)
Zn5_2 Zn 0.82745(6) 0.23370(16) 0.46590(15)
N7_2 N 0.8103(4) 0.0530(12) 0.3123(10)
H6_2 H 0.9318 0.0570 0.3638
O3_2 O 0.4514(5) 0.3128(15) 0.0698(11)
H8_2 H 0.7153 0.0276 0.2550
C7_2 C 0.4464(6) 0.1726(18) 0.0256(16)
C8_2 C 0.5045(7) 0.0827(19) 0.037(2)
H10_2 H 0.5308 0.0706 0.1448
H9_2 H 0.5289 0.1482 0.9904
Zn1_2 Zn 0.67255(6) 0.73370(16) 0.03410(15)
O2_2 O 0.6084(4) 0.8969(13) 0.0292(13)
H4_2 H 0.4711 0.8518 0.0096
N5_2 N 0.8131(4) 0.8607(12) 0.1477(11)
N6_2 N 0.7499(4) 0.8808(12) 0.1379(11)
N8_2 N 0.6897(4) 0.5530(12) 0.1877(10)
N10_2 N 0.9117(5) 0.9872(18) 0.2946(15)
H7_2 H 0.9326 0.9290 0.2519
C5_2 C 0.8474(5) 0.9688(14) 0.2532(12)
C6_2 C 0.7517(5) 0.9927(15) 0.2375(12)
N1_2 N 0.6869(4) 0.6393(12) 0.8523(11)
N2_2 N 0.7501(4) 0.6192(12) 0.8621(11)
N3_2 N 0.6897(4) 0.4470(12) 0.6877(10)
N4_2 N 0.5883(5) 0.5128(18) 0.7054(15)
H1_2 H 0.5682 0.4430 0.6362
H2_2 H 0.5674 0.5710 0.7481
O1_2 O 0.5486(5) 0.6872(15) 0.9302(11)
C1_2 C 0.6526(5) 0.5312(14) 0.7468(12)
C2_2 C 0.7483(5) 0.5073(15) 0.7625(12)
H3_2 H 0.7847 0.4724 0.7450
C3_2 C 0.5536(6) 0.8274(18) 0.9744(16)
C4_2 C 0.4955(7) 0.9173(19) 0.963(2)
H5_2 H 0.4692 0.9294 0.8552
Zn3_2 Zn 0.67255(6) 0.26630(16) 0.53410(15)
N9_2 N 0.8103(4) 0.9470(12) 0.8123(10)
C4_3 C 0.0045(7) 0.4173(19) 0.537(2)
H4_3 H 0.0289 0.3518 0.4904
H5_3 H 0.0308 0.4294 0.6448
O3_3 O 0.0486(5) 0.8128(15) 0.4302(11)
O4_2 O 0.1084(4) 0.6031(13) 0.5292(13)
C7_3 C 0.0536(6) 0.6726(18) 0.4744(16)
N1_3 N 0.8131(4) 0.1393(12) 0.6477(11)
N2_3 N 0.7499(4) 0.1192(12) 0.6379(11)
N4_3 N 0.9117(5) 0.0128(18) 0.7946(15)
H2_3 H 0.9326 0.0710 0.7519
O1_3 O 0.9514(5) 0.1872(15) 0.5698(11)
O2_3 O 0.8916(4) 0.3969(13) 0.4708(13)
C1_3 C 0.8474(5) 0.0312(14) 0.7532(12)
C2_3 C 0.7517(5) 0.0073(15) 0.7375(12)
C3_3 C 0.9464(6) 0.3274(18) 0.5256(16)
N5_3 N 0.6869(4) 0.3607(12) 0.3523(11)
N6_3 N 0.7501(4) 0.3808(12) 0.3621(11)
N10_3 N 0.5883(5) 0.4872(18) 0.2054(15)
H6_3 H 0.5682 0.5570 0.1362
H7_3 H 0.5674 0.4290 0.2481
O5_2 O 0.6084(4) 0.1031(13) 0.5292(13)
C5_3 C 0.6526(5) 0.4688(14) 0.2468(12)
C6_3 C 0.7483(5) 0.4927(15) 0.2625(12)
H8_3 H 0.7847 0.5276 0.2450
C8_3 C 0.9955(7) 0.5827(19) 0.463(2)
H9_3 H 0.9711 0.6482 0.5096
H10_3 H 0.9692 0.5706 0.3552
H1_3 H 0.9318 0.9430 0.8638
H3_3 H 0.7153 0.9724 0.7550
H6_4 H 0.0682 0.0570 0.1362
O3_4 O 0.5486(5) 0.3128(15) 0.4302(11)
H8_4 H 0.2847 0.0276 0.2450
C7_4 C 0.5536(6) 0.1726(18) 0.4744(16)
C8_4 C 0.4955(7) 0.0827(19) 0.463(2)
H9_4 H 0.4711 0.1482 0.5096
H10_4 H 0.4692 0.0706 0.3552
N1_4 N 0.3131(4) 0.6393(12) 0.6477(11)
N2_4 N 0.2499(4) 0.6192(12) 0.6379(11)
N4_4 N 0.4117(5) 0.5128(18) 0.7946(15)
H1_4 H 0.4318 0.4430 0.8638
H2_4 H 0.4326 0.5710 0.7519
O1_4 O 0.4514(5) 0.6872(15) 0.5698(11)
O2_4 O 0.3916(4) 0.8969(13) 0.4708(13)
C1_4 C 0.3474(5) 0.5312(14) 0.7532(12)
C2_4 C 0.2517(5) 0.5073(15) 0.7375(12)
H3_4 H 0.2153 0.4724 0.7550
C3_4 C 0.4464(6) 0.8274(18) 0.5256(16)
C4_4 C 0.5045(7) 0.9173(19) 0.537(2)
H4_4 H 0.5289 0.8518 0.4904
H5_4 H 0.5308 0.9294 0.6448
N5_4 N 0.1869(4) 0.8607(12) 0.3523(11)
N6_4 N 0.2501(4) 0.8808(12) 0.3621(11)
N10_4 N 0.0883(5) 0.9872(18) 0.2054(15)
H7_4 H 0.0674 0.9290 0.2481
C5_4 C 0.1526(5) 0.9688(14) 0.2468(12)
C6_4 C 0.2483(5) 0.9927(15) 0.2625(12)
loop_
_geom_bond_atom_site_label_1
_geom_bond_atom_site_label_2
_geom_bond_site_symmetry_1
_geom_bond_site_symmetry_2
O2 Zn1 1_555 1_555
Zn5 N7 1_555 1_555
N6 Zn1 1_555 1_555
N7 C5 1_555 1_555
N8 Zn1 1_555 1_555
N10 H6 1_555 1_555
H7 N10 1_555 1_555
C5 N5 1_555 1_555
C6 N6 1_555 1_555
H8 C6 1_555 1_555
H10 C8 1_555 1_555
N5 N6 1_555 1_555
N7 C6 1_555 1_555
N10 C5 1_555 1_555
N1 N2 1_555 1_555
N2 C2 1_555 1_555
H2 N4 1_555 1_555
O1 C3 1_555 1_555
C1 N1 1_555 1_555
Zn2 N2 1_555 1_555
N9 Zn2 1_555 1_555
O5 Zn2 1_555 1_555
N4 C1 1_555 1_555
Zn3 N3 1_555 1_555
O3 C7 1_555 1_555
H5 C4 1_555 1_555
Zn4 O4 1_555 1_555
Zn5_2 N7_2 1_555 1_555
O3_2 C7_2 1_555 1_555
C7_2 C8_2 1_555 1_555
H10_2 C8_2 1_555 1_555
O2_2 Zn1_2 1_555 1_555
N6_2 Zn1_2 1_555 1_555
N8_2 Zn1_2 1_555 1_555
H7_2 N10_2 1_555 1_555
C5_2 N5_2 1_555 1_555
C6_2 N6_2 1_555 1_555
N5_2 N6_2 1_555 1_555
N10_2 C5_2 1_555 1_555
N1_2 N2_2 1_555 1_555
N2_2 C2_2 1_555 1_555
N3_2 C1_2 1_555 1_555
N4_2 H1_2 1_555 1_555
H2_2 N4_2 1_555 1_555
O1_2 C3_2 1_555 1_555
C1_2 N1_2 1_555 1_555
C2_2 N3_2 1_555 1_555
H3_2 C2_2 1_555 1_555
C4_2 C3_2 1_555 1_555
H5_2 C4_2 1_555 1_555
Zn4 N2_2 1_555 1_555
Zn3_2 N3_2 1_555 1_555
N9_2 Zn4 1_555 1_555
N4_2 C1_2 1_555 1_555
H4_3 C4_3 1_555 1_555
H5_3 C4_3 1_555 1_555
Zn3 O4_2 1_555 1_555
O3_3 C7_3 1_555 1_555
O4_2 C7_3 1_555 1_555
Zn5_2 N1_3 1_555 1_555
N1_3 N2_3 1_555 1_555
N2_3 C2_3 1_555 1_555
H2_3 N4_3 1_555 1_555
O1_3 C3_3 1_555 1_555
O2_3 Zn5_2 1_555 1_555
C1_3 N1_3 1_555 1_555
C3_3 O2_3 1_555 1_555
Zn3_2 N2_3 1_555 1_555
N5_3 Zn3_2 1_555 1_555
N6_3 Zn5_2 1_555 1_555
N8_2 C5_3 1_555 1_555
N10_3 H6_3 1_555 1_555
H7_3 N10_3 1_555 1_555
O5_2 Zn3_2 1_555 1_555
C5_3 N5_3 1_555 1_555
C6_3 N6_3 1_555 1_555
H8_3 C6_3 1_555 1_555
H9_3 C8_3 1_555 1_555
H10_3 C8_3 1_555 1_555
N4_3 C1_3 1_555 1_555
N5_3 N6_3 1_555 1_555
N8_2 C6_3 1_555 1_555
N10_3 C5_3 1_555 1_555
O3_4 C7_4 1_555 1_555
O5_2 C7_4 1_555 1_555
C7_4 C8_4 1_555 1_555
H9_4 C8_4 1_555 1_555
H10_4 C8_4 1_555 1_555
Zn5 N1_4 1_555 1_555
N1_4 N2_4 1_555 1_555
N2_4 C2_4 1_555 1_555
N9 C1_4 1_555 1_555
N4_4 H1_4 1_555 1_555
H2_4 N4_4 1_555 1_555
O1_4 C3_4 1_555 1_555
O2_4 Zn5 1_555 1_555
C1_4 N1_4 1_555 1_555
C2_4 N9 1_555 1_555
H3_4 C2_4 1_555 1_555
C3_4 O2_4 1_555 1_555
C4_4 C3_4 1_555 1_555
H4_4 C4_4 1_555 1_555
H5_4 C4_4 1_555 1_555
Zn3 N2_4 1_555 1_555
N5_4 Zn3 1_555 1_555
N6_4 Zn5 1_555 1_555
H7_4 N10_4 1_555 1_555
C5_4 N5_4 1_555 1_555
C6_4 N6_4 1_555 1_555
N4_4 C1_4 1_555 1_555
N5_4 N6_4 1_555 1_555
N10_4 C5_4 1_555 1_555

#END
