
###############################################################################
#
# This file contains modified crystal structure data generated from the
# MOF subset of the Cambridge Structural Database (CSD) v543 
# hosted by the Cambridge Crystallographic Data Centre (CCDC).
#
# This work is licensed under the Creative Commons
# Attribution-NonCommercial-ShareAlike 4.0 International License.
# To view a copy of this license, visit
# http://creativecommons.org/licenses/by-nc-sa/4.0/
# or send a letter to
# Creative Commons, PO Box 1866, Mountain View, CA 94042, USA.
#
# CIF created using the CSD Python API on 29 September 2022
# The structure has been converted into the P1 space group
# The structure has a 3D framework
# The original CSD entry KOMJED is in the cubic crystal system
# The framework has been calculated to contain at least 10.0% void space
# The void calculation uses a probe of radius 1.32A, grid spacing 0.4
#
###############################################################################

data_KOMJED
_chemical_formula_moiety         '(C384 H384 Cd16 Dy62 O504)n'
_symmetry_cell_setting           triclinic
_symmetry_space_group_name_H-M   'P 1'
_symmetry_Int_Tables_number      1
_space_group_name_Hall           'P 1'
loop_
_symmetry_equiv_pos_site_id
_symmetry_equiv_pos_as_xyz
1 x,y,z
_cell_length_a                   26.2522(13)
_cell_length_b                   26.2522(13)
_cell_length_c                   26.2522(13)
_cell_angle_alpha                90
_cell_angle_beta                 90
_cell_angle_gamma                90
_cell_volume                     18092.4
loop_
_atom_site_label
_atom_site_type_symbol
_atom_site_fract_x
_atom_site_fract_y
_atom_site_fract_z
Dy1 Dy 0.0000 0.0000 0.2500
Cd1 Cd 0.0000 0.0000 0.5000
O1 O 0.0000 0.0658(3) 0.3158(3)
C1 C 0.0035(6) 0.0546(6) 0.3672(5)
H2 H 0.0324 0.0722 0.3820
H3 H 0.0271 0.1346 0.3159
O12 O 0.0849(3) 0.0297(4) 0.2589(3)
O13 O 0.1674(4) 0.0214(4) 0.2643(4)
C10 C 0.1237(5) 0.0022(6) 0.2598(6)
Cd2 Cd -0.0000 0.2500 0.2500
Cd4 Cd 0.0000 0.0000 0.0000
Cd5 Cd 0.2500 0.0000 0.2500
O19 O 0.0214(4) 0.0826(4) 0.4857(4)
Cd4_2 Cd 0.0000 0.0000 1.0000
Dy1_2 Dy -0.0000 1.0000 0.2500
Cd1_2 Cd -0.0000 1.0000 0.5000
O2 O 0.0089(3) 0.9703(4) 0.3349(3)
O3 O 0.0143(4) 0.9786(4) 0.4174(4)
C2 C 0.0098(6) 0.9978(6) 0.3737(5)
O7 O 0.0297(4) 0.9911(3) 0.1651(3)
O8 O 0.0214(4) 0.9857(4) 0.0826(4)
C6 C 0.0022(6) 0.9902(6) 0.1263(5)
O11 O 0.0658(3) 0.9342(3) 0.2500
C9 C 0.1172(5) 0.9454(6) 0.2535(6)
H9 H 0.1346 0.9341 0.2229
H10 H 0.1320 0.9278 0.2824
C11 C 0.0546(6) 0.8828(5) 0.2465(6)
H11 H 0.0659 0.8654 0.2771
H12 H 0.0722 0.8680 0.2176
Cd4_3 Cd 0.0000 1.0000 0.0000
Cd5_2 Cd 0.2500 1.0000 0.2500
Cd6 Cd 0.0000 0.7500 0.2500
O20 O 0.0826(4) 0.9857(4) 0.5214(4)
Cd4_4 Cd 0.0000 1.0000 1.0000
Dy1_3 Dy 1.0000 0.0000 0.2500
Cd1_3 Cd 1.0000 0.0000 0.5000
O1_2 O 1.0000 0.0658(3) 0.3158(3)
H1 H 0.9729 0.0659 0.3846
O4 O 0.9911(3) 0.0849(3) 0.2203(4)
O5 O 0.9857(4) 0.1674(4) 0.2286(4)
C3 C 0.9965(6) 0.1172(5) 0.3046(6)
H4 H 0.9676 0.1320 0.3222
C4 C 0.9902(6) 0.1237(5) 0.2478(6)
O6 O 0.9342(3) 0.0000 0.1842(3)
H5 H 0.9341 0.0271 0.1154
O9 O 0.9151(3) 0.0089(3) 0.2797(4)
O10 O 0.8326(4) 0.0143(4) 0.2714(4)
C7 C 0.8828(5) 0.0035(6) 0.1954(6)
H8 H 0.8680 0.0324 0.1778
C8 C 0.8763(5) 0.0098(6) 0.2522(6)
Cd2_2 Cd 1.0000 0.2500 0.2500
Cd3 Cd 0.7500 0.0000 0.2500
Cd4_5 Cd 1.0000 0.0000 0.0000
O17 O 0.9174(4) 0.0143(4) 0.4786(4)
O18 O 0.9857(4) 0.0214(4) 0.5826(4)
Cd4_6 Cd 1.0000 0.0000 1.0000
Dy1_4 Dy 1.0000 1.0000 0.2500
Cd1_4 Cd 1.0000 1.0000 0.5000
O6_2 O 0.9342(3) 1.0000 0.1842(3)
C5 C 0.9454(6) 0.9965(6) 0.1328(5)
H6 H 0.9278 0.9676 0.1180
H7 H 0.8654 0.9729 0.1841
O14 O 0.9703(4) 0.9151(3) 0.2411(3)
O15 O 0.9786(4) 0.8326(4) 0.2357(4)
C12 C 0.9978(6) 0.8763(5) 0.2402(6)
Cd3_2 Cd 0.7500 1.0000 0.2500
Cd4_7 Cd 1.0000 1.0000 0.0000
Cd6_2 Cd 1.0000 0.7500 0.2500
O16 O 0.9786(4) 0.9174(4) 0.5143(4)
Cd4_8 Cd 1.0000 1.0000 1.0000
Dy1_5 Dy 0.0000 0.2500 0.0000
O2_2 O 0.0297(4) 0.2589(3) 0.0849(3)
O3_2 O 0.0214(4) 0.2643(4) 0.1674(4)
C2_2 C 0.0022(6) 0.2598(6) 0.1237(5)
O11_2 O 0.0658(3) 0.3158(3) 0.0000
C9_2 C 0.0546(6) 0.3672(5) 0.0035(6)
H10_2 H 0.0722 0.3820 0.0324
H11_2 H 0.1346 0.3159 0.0271
Cd5_3 Cd 0.0000 0.5000 0.0000
Cd6_3 Cd 0.2500 0.2500 0.0000
O16_2 O 0.0826(4) 0.2286(4) 0.2643(4)
O20_2 O 0.0143(4) 0.3326(4) 0.2714(4)
Dy1_6 Dy -0.0000 0.2500 1.0000
O6_3 O -0.0000 0.1842(3) 0.9342(3)
O7_2 O 0.0089(3) 0.2797(4) 0.9151(3)
O8_2 O 0.0143(4) 0.2714(4) 0.8326(4)
C5_2 C 0.0035(6) 0.1954(6) 0.8828(5)
H6_2 H 0.0324 0.1778 0.8680
C6_2 C 0.0098(6) 0.2522(6) 0.8763(5)
H7_2 H 0.0271 0.1154 0.9341
O11_3 O 0.0658(3) 0.3158(3) 1.0000
H9_2 H 0.0659 0.3846 0.9729
O14_2 O 0.0849(3) 0.2203(4) 0.9911(3)
O15_2 O 0.1674(4) 0.2286(4) 0.9857(4)
C11_2 C 0.1172(5) 0.3046(6) 0.9965(6)
H12_2 H 0.1320 0.3222 0.9676
C12_2 C 0.1237(5) 0.2478(6) 0.9902(6)
Cd4_9 Cd 0.0000 0.2500 0.7500
Cd5_4 Cd -0.0000 0.5000 1.0000
Cd6_4 Cd 0.2500 0.2500 1.0000
Dy1_7 Dy 1.0000 0.2500 0.0000
O1_3 O 0.9342(3) 0.2500 0.0658(3)
C1_2 C 0.9454(6) 0.2535(6) 0.1172(5)
H1_2 H 0.9341 0.2229 0.1346
H2_2 H 0.9278 0.2824 0.1320
C3_2 C 0.8828(5) 0.2465(6) 0.0546(6)
H3_2 H 0.8654 0.2771 0.0659
H4_2 H 0.8680 0.2176 0.0722
O9_2 O 0.9911(3) 0.1651(3) 0.0297(4)
O10_2 O 0.9857(4) 0.0826(4) 0.0214(4)
C8_2 C 0.9902(6) 0.1263(5) 0.0022(6)
O12_2 O 0.9703(4) 0.3349(3) 0.0089(3)
O13_2 O 0.9786(4) 0.4174(4) 0.0143(4)
C10_2 C 0.9978(6) 0.3737(5) 0.0098(6)
Cd2_3 Cd 0.7500 0.2500 0.0000
Cd5_5 Cd 1.0000 0.5000 0.0000
O18_2 O 0.9786(4) 0.2357(4) 0.3326(4)
O19_2 O 0.9174(4) 0.2714(4) 0.2357(4)
Dy1_8 Dy 1.0000 0.2500 1.0000
O4_2 O 0.9151(3) 0.2411(3) 0.9703(4)
O5_2 O 0.8326(4) 0.2357(4) 0.9786(4)
C4_2 C 0.8763(5) 0.2402(6) 0.9978(6)
O6_4 O 1.0000 0.1842(3) 0.9342(3)
H5_2 H 0.9729 0.1841 0.8654
C7_2 C 0.9965(6) 0.1328(5) 0.9454(6)
H8_2 H 0.9676 0.1180 0.9278
Cd2_4 Cd 0.7500 0.2500 1.0000
Cd4_10 Cd 1.0000 0.2500 0.7500
Cd5_6 Cd 1.0000 0.5000 1.0000
O16_3 O 0.7714(4) 0.3326(4) 0.0143(4)
O18_3 O 0.7643(4) 0.2286(4) 0.0826(4)
O20_3 O 0.6674(4) 0.2643(4) 0.0214(4)
Dy1_9 Dy 0.7500 0.2500 0.7500
O1_4 O 0.7500 0.1842(3) 0.8158(3)
O2_3 O 0.7411(3) 0.2797(4) 0.8349(3)
O3_3 O 0.7357(4) 0.2714(4) 0.9174(4)
C1_3 C 0.7465(6) 0.1954(6) 0.8672(5)
H1_3 H 0.7771 0.1841 0.8846
H2_3 H 0.7176 0.1778 0.8820
C2_3 C 0.7402(6) 0.2522(6) 0.8737(5)
O4_3 O 0.7589(3) 0.1651(3) 0.7203(4)
O5_3 O 0.7643(4) 0.0826(4) 0.7286(4)
C3_3 C 0.7535(6) 0.1328(5) 0.8046(6)
H3_3 H 0.7229 0.1154 0.8159
H4_3 H 0.7824 0.1180 0.8222
C4_3 C 0.7598(6) 0.1263(5) 0.7478(6)
O6_5 O 0.8158(3) 0.2500 0.6842(3)
O7_3 O 0.7203(4) 0.2589(3) 0.6651(3)
O8_3 O 0.7286(4) 0.2643(4) 0.5826(4)
C5_3 C 0.8046(6) 0.2535(6) 0.6328(5)
H5_3 H 0.8159 0.2229 0.6154
H6_3 H 0.8222 0.2824 0.6180
C6_3 C 0.7478(6) 0.2598(6) 0.6263(5)
O9_3 O 0.8349(3) 0.2411(3) 0.7797(4)
O10_3 O 0.9174(4) 0.2357(4) 0.7714(4)
C7_3 C 0.8672(5) 0.2465(6) 0.6954(6)
H7_3 H 0.8846 0.2771 0.6841
H8_3 H 0.8820 0.2176 0.6778
C8_3 C 0.8737(5) 0.2402(6) 0.7522(6)
O11_4 O 0.6842(3) 0.3158(3) 0.7500
O12_3 O 0.6651(3) 0.2203(4) 0.7589(3)
O13_3 O 0.5826(4) 0.2286(4) 0.7643(4)
C9_3 C 0.6328(5) 0.3046(6) 0.7535(6)
H9_3 H 0.6154 0.3159 0.7229
H10_3 H 0.6180 0.3222 0.7824
C10_3 C 0.6263(5) 0.2478(6) 0.7598(6)
O14_3 O 0.7797(4) 0.3349(3) 0.7411(3)
O15_3 O 0.7714(4) 0.4174(4) 0.7357(4)
C11_3 C 0.6954(6) 0.3672(5) 0.7465(6)
H11_3 H 0.6841 0.3846 0.7771
H12_3 H 0.6778 0.3820 0.7176
C12_3 C 0.7522(6) 0.3737(5) 0.7402(6)
Cd2_5 Cd 0.7500 0.0000 0.7500
Cd4_11 Cd 0.7500 0.2500 0.5000
Cd5_7 Cd 0.5000 0.2500 0.7500
Cd6_5 Cd 0.7500 0.5000 0.7500
O19_3 O 0.7286(4) 0.1674(4) 0.9857(4)
Cd2_6 Cd 0.7500 1.0000 0.7500
Dy1_10 Dy 0.7500 0.0000 0.5000
O1_5 O 0.8158(3) 0.0000 0.5658(3)
H1_4 H 0.8159 0.0271 0.6346
O4_4 O 0.8349(3) 0.0089(3) 0.4703(4)
C3_4 C 0.8672(5) 0.0035(6) 0.5546(6)
H4_4 H 0.8820 0.0324 0.5722
C4_4 C 0.8737(5) 0.0098(6) 0.4978(6)
O6_6 O 0.7500 0.0658(3) 0.4342(3)
C5_4 C 0.7465(6) 0.0546(6) 0.3828(5)
H5_4 H 0.7771 0.0659 0.3654
H6_4 H 0.7176 0.0722 0.3680
O9_4 O 0.7589(3) 0.0849(3) 0.5297(4)
O10_4 O 0.7643(4) 0.1674(4) 0.5214(4)
C7_4 C 0.7535(6) 0.1172(5) 0.4454(6)
H7_4 H 0.7229 0.1346 0.4341
H8_4 H 0.7824 0.1320 0.4278
C8_4 C 0.7598(6) 0.1237(5) 0.5022(6)
O14_4 O 0.6651(3) 0.0297(4) 0.4911(3)
O15_4 O 0.5826(4) 0.0214(4) 0.4857(4)
C12_4 C 0.6263(5) 0.0022(6) 0.4902(6)
Cd6_6 Cd 0.5000 0.0000 0.5000
O16_4 O 0.6674(4) 0.0214(4) 0.7643(4)
O18_4 O 0.7714(4) 0.0143(4) 0.8326(4)
Dy1_11 Dy 0.7500 1.0000 0.5000
O1_6 O 0.8158(3) 1.0000 0.5658(3)
O2_4 O 0.7203(4) 0.9911(3) 0.5849(3)
O3_4 O 0.7286(4) 0.9857(4) 0.6674(4)
C1_4 C 0.8046(6) 0.9965(6) 0.6172(5)
H2_4 H 0.8222 0.9676 0.6320
C2_4 C 0.7478(6) 0.9902(6) 0.6237(5)
H3_4 H 0.8846 0.9729 0.5659
O7_4 O 0.7411(3) 0.9703(4) 0.4151(3)
O8_4 O 0.7357(4) 0.9786(4) 0.3326(4)
C6_4 C 0.7402(6) 0.9978(6) 0.3763(5)
O11_5 O 0.6842(3) 0.9342(3) 0.5000
O12_4 O 0.7797(4) 0.9151(3) 0.5089(3)
O13_4 O 0.7714(4) 0.8326(4) 0.5143(4)
C9_4 C 0.6954(6) 0.8828(5) 0.5035(6)
H9_4 H 0.6841 0.8654 0.4729
H10_4 H 0.6778 0.8680 0.5324
C10_4 C 0.7522(6) 0.8763(5) 0.5098(6)
C11_4 C 0.6328(5) 0.9454(6) 0.4965(6)
H11_4 H 0.6154 0.9341 0.5271
H12_4 H 0.6180 0.9278 0.4676
Cd5_8 Cd 0.7500 0.7500 0.5000
Cd6_7 Cd 0.5000 1.0000 0.5000
O19_4 O 0.8326(4) 0.9786(4) 0.7357(4)
O20_4 O 0.7357(4) 0.9174(4) 0.7714(4)
O19_5 O 0.0214(4) 0.1674(4) 0.7643(4)
O20_5 O 0.0826(4) 0.2643(4) 0.7286(4)
O16_5 O 0.9786(4) 0.3326(4) 0.7357(4)
O18_5 O 0.9857(4) 0.2286(4) 0.6674(4)
O16_6 O 0.6674(4) 0.2286(4) 0.4857(4)
O18_6 O 0.7714(4) 0.2357(4) 0.4174(4)
O19_6 O 0.8326(4) 0.2714(4) 0.5143(4)
O20_6 O 0.7357(4) 0.3326(4) 0.4786(4)
O18_7 O 0.7643(4) 0.0214(4) 0.1674(4)
O19_7 O 0.7286(4) 0.0826(4) 0.2643(4)
O16_7 O 0.7714(4) 0.9174(4) 0.2357(4)
O20_7 O 0.6674(4) 0.9857(4) 0.2286(4)
O16_8 O 0.0826(4) 0.0214(4) 0.9857(4)
O20_8 O 0.0143(4) 0.9174(4) 0.9786(4)
O18_8 O 0.9786(4) 0.0143(4) 0.9174(4)
O19_8 O 0.9174(4) 0.9786(4) 0.0143(4)
Dy1_12 Dy 0.2500 0.0000 0.0000
Cd1_5 Cd 0.5000 0.0000 0.0000
O1_7 O 0.3158(3) -0.0000 0.0658(3)
C1_5 C 0.3672(5) 0.0035(6) 0.0546(6)
H2_5 H 0.3820 0.0324 0.0722
H3_5 H 0.3159 0.0271 0.1346
O12_5 O 0.2589(3) 0.0849(3) 0.0297(4)
O13_5 O 0.2643(4) 0.1674(4) 0.0214(4)
C10_5 C 0.2598(6) 0.1237(5) 0.0022(6)
O19_9 O 0.4857(4) 0.0214(4) 0.0826(4)
Dy1_13 Dy 0.2500 0.0000 1.0000
Cd1_6 Cd 0.5000 0.0000 1.0000
O2_5 O 0.3349(3) 0.0089(3) 0.9703(4)
O3_5 O 0.4174(4) 0.0143(4) 0.9786(4)
C2_5 C 0.3737(5) 0.0098(6) 0.9978(6)
O7_5 O 0.1651(3) 0.0297(4) 0.9911(3)
C6_5 C 0.1263(5) 0.0022(6) 0.9902(6)
O11_6 O 0.2500 0.0658(3) 0.9342(3)
C9_5 C 0.2535(6) 0.1172(5) 0.9454(6)
H9_5 H 0.2229 0.1346 0.9341
H10_5 H 0.2824 0.1320 0.9278
C11_5 C 0.2465(6) 0.0546(6) 0.8828(5)
H11_5 H 0.2771 0.0659 0.8654
H12_5 H 0.2176 0.0722 0.8680
Cd6_8 Cd 0.2500 0.0000 0.7500
O20_9 O 0.5214(4) 0.0826(4) 0.9857(4)
Dy1_14 Dy 0.2500 1.0000 0.0000
Cd1_7 Cd 0.5000 1.0000 0.0000
O1_8 O 0.3158(3) 1.0000 0.0658(3)
H1_5 H 0.3846 0.9729 0.0659
O4_5 O 0.2203(4) 0.9911(3) 0.0849(3)
O5_4 O 0.2286(4) 0.9857(4) 0.1674(4)
C3_5 C 0.3046(6) 0.9965(6) 0.1172(5)
H4_5 H 0.3222 0.9676 0.1320
C4_5 C 0.2478(6) 0.9902(6) 0.1237(5)
O6_7 O 0.1842(3) 0.9342(3) 0.0000
H5_5 H 0.1154 0.9341 0.0271
O9_5 O 0.2797(4) 0.9151(3) 0.0089(3)
O10_5 O 0.2714(4) 0.8326(4) 0.0143(4)
C7_5 C 0.1954(6) 0.8828(5) 0.0035(6)
H8_5 H 0.1778 0.8680 0.0324
C8_5 C 0.2522(6) 0.8763(5) 0.0098(6)
Cd3_3 Cd 0.2500 0.7500 0.0000
O17_2 O 0.4786(4) 0.9174(4) 0.0143(4)
O18_9 O 0.5826(4) 0.9857(4) 0.0214(4)
Dy1_15 Dy 0.2500 1.0000 1.0000
Cd1_8 Cd 0.5000 1.0000 1.0000
O6_8 O 0.1842(3) 0.9342(3) 1.0000
C5_5 C 0.1328(5) 0.9454(6) 0.9965(6)
H6_5 H 0.1180 0.9278 0.9676
H7_5 H 0.1841 0.8654 0.9729
O14_5 O 0.2411(3) 0.9703(4) 0.9151(3)
O15_5 O 0.2357(4) 0.9786(4) 0.8326(4)
C12_5 C 0.2402(6) 0.9978(6) 0.8763(5)
Cd3_4 Cd 0.2500 0.7500 1.0000
Cd6_9 Cd 0.2500 1.0000 0.7500
O16_9 O 0.5143(4) 0.9786(4) 0.9174(4)
Dy1_16 Dy -0.0000 0.5000 0.7500
Cd1_9 Cd 0.0000 0.7500 0.7500
O1_9 O 0.0000 0.5658(3) 0.8158(3)
H1_6 H 0.0271 0.6346 0.8159
O4_6 O 0.0089(3) 0.4703(4) 0.8349(3)
O5_5 O 0.0143(4) 0.4786(4) 0.9174(4)
C3_6 C 0.0035(6) 0.5546(6) 0.8672(5)
H4_6 H 0.0324 0.5722 0.8820
C4_6 C 0.0098(6) 0.4978(6) 0.8737(5)
O6_9 O 0.0658(3) 0.4342(3) 0.7500
C5_6 C 0.0546(6) 0.3828(5) 0.7465(6)
H5_6 H 0.0659 0.3654 0.7771
H6_6 H 0.0722 0.3680 0.7176
O9_6 O 0.0849(3) 0.5297(4) 0.7589(3)
O10_6 O 0.1674(4) 0.5214(4) 0.7643(4)
C7_6 C 0.1172(5) 0.4454(6) 0.7535(6)
H7_6 H 0.1346 0.4341 0.7229
H8_6 H 0.1320 0.4278 0.7824
C8_6 C 0.1237(5) 0.5022(6) 0.7598(6)
O14_6 O 0.0297(4) 0.4911(3) 0.6651(3)
O15_6 O 0.0214(4) 0.4857(4) 0.5826(4)
C12_6 C 0.0022(6) 0.4902(6) 0.6263(5)
Cd3_5 Cd 0.2500 0.5000 0.7500
Cd6_10 Cd 0.0000 0.5000 0.5000
O16_10 O 0.0214(4) 0.7643(4) 0.6674(4)
O17_3 O 0.0826(4) 0.7286(4) 0.7643(4)
O18_10 O 0.0143(4) 0.8326(4) 0.7714(4)
Dy1_17 Dy 1.0000 0.5000 0.7500
Cd1_10 Cd 1.0000 0.7500 0.7500
O1_10 O 1.0000 0.5658(3) 0.8158(3)
O2_6 O 0.9911(3) 0.5849(3) 0.7203(4)
O3_6 O 0.9857(4) 0.6674(4) 0.7286(4)
C1_6 C 0.9965(6) 0.6172(5) 0.8046(6)
H2_6 H 0.9676 0.6320 0.8222
C2_6 C 0.9902(6) 0.6237(5) 0.7478(6)
H3_6 H 0.9729 0.5659 0.8846
O7_6 O 0.9703(4) 0.4151(3) 0.7411(3)
C6_6 C 0.9978(6) 0.3763(5) 0.7402(6)
O11_7 O 0.9342(3) 0.5000 0.6842(3)
O12_6 O 0.9151(3) 0.5089(3) 0.7797(4)
O13_6 O 0.8326(4) 0.5143(4) 0.7714(4)
C9_6 C 0.8828(5) 0.5035(6) 0.6954(6)
H9_6 H 0.8654 0.4729 0.6841
H10_6 H 0.8680 0.5324 0.6778
C10_6 C 0.8763(5) 0.5098(6) 0.7522(6)
C11_6 C 0.9454(6) 0.4965(6) 0.6328(5)
H11_6 H 0.9341 0.5271 0.6154
H12_6 H 0.9278 0.4676 0.6180
Cd6_11 Cd 1.0000 0.5000 0.5000
O19_10 O 0.9786(4) 0.7357(4) 0.8326(4)
O20_10 O 0.9174(4) 0.7714(4) 0.7357(4)
Dy1_18 Dy 0.5000 0.2500 0.5000
Cd1_11 Cd 0.2500 0.2500 0.5000
O1_11 O 0.4342(3) 0.2500 0.5658(3)
O2_7 O 0.4151(3) 0.2411(3) 0.4703(4)
O3_7 O 0.3326(4) 0.2357(4) 0.4786(4)
C1_7 C 0.3828(5) 0.2465(6) 0.5546(6)
H1_7 H 0.3654 0.2771 0.5659
H2_7 H 0.3680 0.2176 0.5722
C2_7 C 0.3763(5) 0.2402(6) 0.4978(6)
O4_7 O 0.5297(4) 0.2589(3) 0.5849(3)
O5_6 O 0.5214(4) 0.2643(4) 0.6674(4)
C3_7 C 0.4454(6) 0.2535(6) 0.6172(5)
H3_7 H 0.4341 0.2229 0.6346
H4_7 H 0.4278 0.2824 0.6320
C4_7 C 0.5022(6) 0.2598(6) 0.6237(5)
O6_10 O 0.5658(3) 0.3158(3) 0.5000
O7_7 O 0.5849(3) 0.2203(4) 0.4911(3)
C5_7 C 0.6172(5) 0.3046(6) 0.4965(6)
H5_7 H 0.6346 0.3159 0.5271
H6_7 H 0.6320 0.3222 0.4676
C6_7 C 0.6237(5) 0.2478(6) 0.4902(6)
O9_7 O 0.4703(4) 0.3349(3) 0.5089(3)
O10_7 O 0.4786(4) 0.4174(4) 0.5143(4)
C7_7 C 0.5546(6) 0.3672(5) 0.5035(6)
H7_7 H 0.5659 0.3846 0.4729
H8_7 H 0.5722 0.3820 0.5324
C8_7 C 0.4978(6) 0.3737(5) 0.5098(6)
O11_8 O 0.5000 0.1842(3) 0.4342(3)
O12_7 O 0.4911(3) 0.1651(3) 0.5297(4)
O13_7 O 0.4857(4) 0.0826(4) 0.5214(4)
C9_7 C 0.4965(6) 0.1328(5) 0.4454(6)
H9_7 H 0.5271 0.1154 0.4341
H10_7 H 0.4676 0.1180 0.4278
C10_7 C 0.4902(6) 0.1263(5) 0.5022(6)
O14_7 O 0.5089(3) 0.2797(4) 0.4151(3)
O15_7 O 0.5143(4) 0.2714(4) 0.3326(4)
C11_7 C 0.5035(6) 0.1954(6) 0.3828(5)
H11_7 H 0.4729 0.1841 0.3654
H12_7 H 0.5324 0.1778 0.3680
C12_7 C 0.5098(6) 0.2522(6) 0.3763(5)
Cd3_6 Cd 0.5000 0.5000 0.5000
Cd6_12 Cd 0.5000 0.2500 0.2500
O16_11 O 0.2357(4) 0.2714(4) 0.4174(4)
O17_4 O 0.2714(4) 0.3326(4) 0.5143(4)
O18_11 O 0.1674(4) 0.2643(4) 0.5214(4)
O19_11 O 0.2643(4) 0.2286(4) 0.5826(4)
O20_11 O 0.2286(4) 0.1674(4) 0.4857(4)
Dy1_19 Dy 0.7500 0.7500 0.2500
Cd1_12 Cd 0.7500 0.5000 0.2500
O1_12 O 0.7500 0.6842(3) 0.3158(3)
O2_8 O 0.7589(3) 0.6651(3) 0.2203(4)
O3_8 O 0.7643(4) 0.5826(4) 0.2286(4)
C1_8 C 0.7535(6) 0.6328(5) 0.3046(6)
H1_8 H 0.7229 0.6154 0.3159
H2_8 H 0.7824 0.6180 0.3222
C2_8 C 0.7598(6) 0.6263(5) 0.2478(6)
O4_8 O 0.7411(3) 0.7797(4) 0.3349(3)
O5_7 O 0.7357(4) 0.7714(4) 0.4174(4)
C3_8 C 0.7465(6) 0.6954(6) 0.3672(5)
H3_8 H 0.7771 0.6841 0.3846
H4_8 H 0.7176 0.6778 0.3820
C4_8 C 0.7402(6) 0.7522(6) 0.3737(5)
O6_11 O 0.6842(3) 0.8158(3) 0.2500
O7_8 O 0.7797(4) 0.8349(3) 0.2411(3)
C5_8 C 0.6954(6) 0.8672(5) 0.2465(6)
H5_8 H 0.6841 0.8846 0.2771
H6_8 H 0.6778 0.8820 0.2176
C6_8 C 0.7522(6) 0.8737(5) 0.2402(6)
O9_8 O 0.6651(3) 0.7203(4) 0.2589(3)
O10_8 O 0.5826(4) 0.7286(4) 0.2643(4)
C7_8 C 0.6328(5) 0.8046(6) 0.2535(6)
H7_8 H 0.6154 0.8159 0.2229
H8_8 H 0.6180 0.8222 0.2824
C8_8 C 0.6263(5) 0.7478(6) 0.2598(6)
O11_9 O 0.8158(3) 0.7500 0.1842(3)
O12_8 O 0.8349(3) 0.7411(3) 0.2797(4)
O13_8 O 0.9174(4) 0.7357(4) 0.2714(4)
C9_8 C 0.8672(5) 0.7465(6) 0.1954(6)
H9_8 H 0.8846 0.7771 0.1841
H10_8 H 0.8820 0.7176 0.1778
C10_8 C 0.8737(5) 0.7402(6) 0.2522(6)
O14_8 O 0.7203(4) 0.7589(3) 0.1651(3)
O15_8 O 0.7286(4) 0.7643(4) 0.0826(4)
C11_8 C 0.8046(6) 0.7535(6) 0.1328(5)
H11_8 H 0.8159 0.7229 0.1154
H12_8 H 0.8222 0.7824 0.1180
C12_8 C 0.7478(6) 0.7598(6) 0.1263(5)
Cd3_7 Cd 0.5000 0.7500 0.2500
Cd6_13 Cd 0.7500 0.7500 0.0000
O16_12 O 0.7286(4) 0.4857(4) 0.1674(4)
O17_5 O 0.6674(4) 0.5214(4) 0.2643(4)
O18_12 O 0.7357(4) 0.4174(4) 0.2714(4)
O19_12 O 0.7714(4) 0.5143(4) 0.3326(4)
O20_12 O 0.8326(4) 0.4786(4) 0.2357(4)
Cd6_14 Cd 0.7500 0.7500 1.0000
Dy1_20 Dy 0.2500 0.2500 0.2500
O1_13 O 0.3158(3) 0.2500 0.1842(3)
O2_9 O 0.3349(3) 0.2411(3) 0.2797(4)
O3_9 O 0.4174(4) 0.2357(4) 0.2714(4)
C1_9 C 0.3672(5) 0.2465(6) 0.1954(6)
H1_9 H 0.3846 0.2771 0.1841
H2_9 H 0.3820 0.2176 0.1778
C2_9 C 0.3737(5) 0.2402(6) 0.2522(6)
O4_9 O 0.2203(4) 0.2589(3) 0.1651(3)
O5_8 O 0.2286(4) 0.2643(4) 0.0826(4)
C3_9 C 0.3046(6) 0.2535(6) 0.1328(5)
H3_9 H 0.3159 0.2229 0.1154
H4_9 H 0.3222 0.2824 0.1180
C4_9 C 0.2478(6) 0.2598(6) 0.1263(5)
O6_12 O 0.1842(3) 0.3158(3) 0.2500
O7_9 O 0.1651(3) 0.2203(4) 0.2589(3)
C5_9 C 0.1328(5) 0.3046(6) 0.2535(6)
H5_9 H 0.1154 0.3159 0.2229
H6_9 H 0.1180 0.3222 0.2824
C6_9 C 0.1263(5) 0.2478(6) 0.2598(6)
O9_9 O 0.2797(4) 0.3349(3) 0.2411(3)
O10_9 O 0.2714(4) 0.4174(4) 0.2357(4)
C7_9 C 0.1954(6) 0.3672(5) 0.2465(6)
H7_9 H 0.1841 0.3846 0.2771
H8_9 H 0.1778 0.3820 0.2176
C8_9 C 0.2522(6) 0.3737(5) 0.2402(6)
O11_10 O 0.2500 0.1842(3) 0.3158(3)
O12_9 O 0.2589(3) 0.1651(3) 0.2203(4)
O13_9 O 0.2643(4) 0.0826(4) 0.2286(4)
C9_9 C 0.2535(6) 0.1328(5) 0.3046(6)
H9_9 H 0.2229 0.1154 0.3159
H10_9 H 0.2824 0.1180 0.3222
C10_9 C 0.2598(6) 0.1263(5) 0.2478(6)
O14_9 O 0.2411(3) 0.2797(4) 0.3349(3)
C11_9 C 0.2465(6) 0.1954(6) 0.3672(5)
H11_9 H 0.2771 0.1841 0.3846
H12_9 H 0.2176 0.1778 0.3820
C12_9 C 0.2402(6) 0.2522(6) 0.3737(5)
Cd3_8 Cd 0.2500 0.5000 0.2500
O17_6 O 0.4786(4) 0.3326(4) 0.2357(4)
O18_13 O 0.5826(4) 0.2643(4) 0.2286(4)
O19_13 O 0.4857(4) 0.2286(4) 0.1674(4)
O20_13 O 0.5214(4) 0.1674(4) 0.2643(4)
Dy1_21 Dy 0.7500 0.5000 0.0000
O2_10 O 0.7589(3) 0.5849(3) 0.0297(4)
O3_10 O 0.7643(4) 0.6674(4) 0.0214(4)
C2_10 C 0.7598(6) 0.6237(5) 0.0022(6)
O6_13 O 0.6842(3) 0.4342(3) -0.0000
O7_10 O 0.7797(4) 0.4151(3) 0.0089(3)
C5_10 C 0.6954(6) 0.3828(5) 0.0035(6)
H6_10 H 0.6778 0.3680 0.0324
C6_10 C 0.7522(6) 0.3763(5) 0.0098(6)
H7_10 H 0.6154 0.4341 0.0271
O11_11 O 0.8158(3) 0.5000 0.0658(3)
C9_10 C 0.8672(5) 0.5035(6) 0.0546(6)
H9_10 H 0.8846 0.4729 0.0659
H10_10 H 0.8820 0.5324 0.0722
O14_10 O 0.7203(4) 0.4911(3) 0.0849(3)
C11_10 C 0.8046(6) 0.4965(6) 0.1172(5)
H11_10 H 0.8159 0.5271 0.1346
H12_10 H 0.8222 0.4676 0.1320
C12_10 C 0.7478(6) 0.4902(6) 0.1237(5)
Cd3_9 Cd 0.5000 0.5000 0.0000
O20_14 O 0.8326(4) 0.7714(4) 0.0143(4)
Dy1_22 Dy 0.7500 0.5000 1.0000
O1_14 O 0.7500 0.5658(3) 0.9342(3)
C1_10 C 0.7535(6) 0.6172(5) 0.9454(6)
H1_10 H 0.7229 0.6346 0.9341
H2_10 H 0.7824 0.6320 0.9278
O4_10 O 0.7411(3) 0.4703(4) 0.9151(3)
O5_9 O 0.7357(4) 0.4786(4) 0.8326(4)
C3_10 C 0.7465(6) 0.5546(6) 0.8828(5)
H3_10 H 0.7771 0.5659 0.8654
H4_10 H 0.7176 0.5722 0.8680
C4_10 C 0.7402(6) 0.4978(6) 0.8763(5)
O6_14 O 0.6842(3) 0.4342(3) 1.0000
H5_10 H 0.6841 0.3654 0.9729
O9_10 O 0.6651(3) 0.5297(4) 0.9911(3)
O10_10 O 0.5826(4) 0.5214(4) 0.9857(4)
C7_10 C 0.6328(5) 0.4454(6) 0.9965(6)
H8_10 H 0.6180 0.4278 0.9676
C8_10 C 0.6263(5) 0.5022(6) 0.9902(6)
O12_10 O 0.8349(3) 0.5089(3) 0.9703(4)
O13_10 O 0.9174(4) 0.5143(4) 0.9786(4)
C10_10 C 0.8737(5) 0.5098(6) 0.9978(6)
Cd3_10 Cd 0.5000 0.5000 1.0000
O17_7 O 0.6674(4) 0.7286(4) 0.9857(4)
O18_14 O 0.7357(4) 0.8326(4) 0.9786(4)
O19_14 O 0.7714(4) 0.7357(4) 0.9174(4)
Dy1_23 Dy 0.5000 0.0000 0.7500
O1_15 O 0.4342(3) 0.0000 0.6842(3)
O2_11 O 0.4151(3) 0.0089(3) 0.7797(4)
O3_11 O 0.3326(4) 0.0143(4) 0.7714(4)
C1_11 C 0.3828(5) 0.0035(6) 0.6954(6)
H2_11 H 0.3680 0.0324 0.6778
C2_11 C 0.3763(5) 0.0098(6) 0.7522(6)
H3_11 H 0.4341 0.0271 0.6154
O7_11 O 0.5849(3) 0.0297(4) 0.7589(3)
C6_11 C 0.6237(5) 0.0022(6) 0.7598(6)
O11_12 O 0.5000 0.0658(3) 0.8158(3)
O12_11 O 0.4911(3) 0.0849(3) 0.7203(4)
O13_11 O 0.4857(4) 0.1674(4) 0.7286(4)
C9_11 C 0.4965(6) 0.1172(5) 0.8046(6)
H9_11 H 0.5271 0.1346 0.8159
H10_11 H 0.4676 0.1320 0.8222
C10_11 C 0.4902(6) 0.1237(5) 0.7478(6)
C11_11 C 0.5035(6) 0.0546(6) 0.8672(5)
H11_11 H 0.4729 0.0659 0.8846
H12_11 H 0.5324 0.0722 0.8820
O19_15 O 0.2643(4) 0.0214(4) 0.6674(4)
O20_15 O 0.2286(4) 0.0826(4) 0.7643(4)
Dy1_24 Dy 0.5000 1.0000 0.7500
O1_16 O 0.4342(3) 1.0000 0.6842(3)
H1_11 H 0.3654 0.9729 0.6841
O4_11 O 0.5297(4) 0.9911(3) 0.6651(3)
O5_10 O 0.5214(4) 0.9857(4) 0.5826(4)
C3_11 C 0.4454(6) 0.9965(6) 0.6328(5)
H4_11 H 0.4278 0.9676 0.6180
C4_11 C 0.5022(6) 0.9902(6) 0.6263(5)
O6_15 O 0.5658(3) 0.9342(3) 0.7500
C5_11 C 0.6172(5) 0.9454(6) 0.7535(6)
H5_11 H 0.6346 0.9341 0.7229
H6_11 H 0.6320 0.9278 0.7824
O9_11 O 0.4703(4) 0.9151(3) 0.7411(3)
O10_11 O 0.4786(4) 0.8326(4) 0.7357(4)
C7_11 C 0.5546(6) 0.8828(5) 0.7465(6)
H7_11 H 0.5659 0.8654 0.7771
H8_11 H 0.5722 0.8680 0.7176
C8_11 C 0.4978(6) 0.8763(5) 0.7402(6)
O14_11 O 0.5089(3) 0.9703(4) 0.8349(3)
C12_11 C 0.5098(6) 0.9978(6) 0.8737(5)
Cd3_11 Cd 0.5000 0.7500 0.7500
O17_8 O 0.2714(4) 0.9174(4) 0.7357(4)
O18_15 O 0.1674(4) 0.9857(4) 0.7286(4)
Dy1_25 Dy -0.0000 0.7500 0.5000
O1_17 O 0.0000 0.6842(3) 0.4342(3)
H1_12 H 0.0271 0.6154 0.4341
O4_12 O 0.0089(3) 0.7797(4) 0.4151(3)
O5_11 O 0.0143(4) 0.7714(4) 0.3326(4)
C3_12 C 0.0035(6) 0.6954(6) 0.3828(5)
H4_12 H 0.0324 0.6778 0.3680
C4_12 C 0.0098(6) 0.7522(6) 0.3763(5)
O6_16 O 0.0658(3) 0.8158(3) 0.5000
C5_12 C 0.0546(6) 0.8672(5) 0.5035(6)
H5_12 H 0.0659 0.8846 0.4729
H6_12 H 0.0722 0.8820 0.5324
O9_12 O 0.0849(3) 0.7203(4) 0.4911(3)
O10_12 O 0.1674(4) 0.7286(4) 0.4857(4)
C7_12 C 0.1172(5) 0.8046(6) 0.4965(6)
H7_12 H 0.1346 0.8159 0.5271
H8_12 H 0.1320 0.8222 0.4676
C8_12 C 0.1237(5) 0.7478(6) 0.4902(6)
O14_12 O 0.0297(4) 0.7589(3) 0.5849(3)
C12_12 C 0.0022(6) 0.7598(6) 0.6237(5)
Cd3_12 Cd 0.2500 0.7500 0.5000
O17_9 O 0.0826(4) 0.5214(4) 0.4857(4)
O18_16 O 0.0143(4) 0.4174(4) 0.4786(4)
Dy1_26 Dy 1.0000 0.7500 0.5000
O1_18 O 1.0000 0.6842(3) 0.4342(3)
O2_12 O 0.9911(3) 0.6651(3) 0.5297(4)
O3_12 O 0.9857(4) 0.5826(4) 0.5214(4)
C1_12 C 0.9965(6) 0.6328(5) 0.4454(6)
H2_12 H 0.9676 0.6180 0.4278
C2_12 C 0.9902(6) 0.6263(5) 0.5022(6)
H3_12 H 0.9729 0.6841 0.3654
O7_12 O 0.9703(4) 0.8349(3) 0.5089(3)
C6_12 C 0.9978(6) 0.8737(5) 0.5098(6)
O11_13 O 0.9342(3) 0.7500 0.5658(3)
O12_12 O 0.9151(3) 0.7411(3) 0.4703(4)
O13_12 O 0.8326(4) 0.7357(4) 0.4786(4)
C9_12 C 0.8828(5) 0.7465(6) 0.5546(6)
H9_12 H 0.8654 0.7771 0.5659
H10_12 H 0.8680 0.7176 0.5722
C10_12 C 0.8763(5) 0.7402(6) 0.4978(6)
C11_12 C 0.9454(6) 0.7535(6) 0.6172(5)
H11_12 H 0.9341 0.7229 0.6346
H12_12 H 0.9278 0.7824 0.6320
O19_16 O 0.9786(4) 0.5143(4) 0.4174(4)
O20_16 O 0.9174(4) 0.4786(4) 0.5143(4)
O19_17 O 0.0826(4) 0.4857(4) 0.0214(4)
O18_17 O 0.0214(4) 0.5826(4) 0.9857(4)
O20_17 O 0.9857(4) 0.5214(4) 0.0826(4)
O16_13 O 0.4857(4) 0.6674(4) 0.2286(4)
O17_10 O 0.5214(4) 0.7643(4) 0.1674(4)
O18_18 O 0.4174(4) 0.7714(4) 0.2357(4)
O19_18 O 0.5143(4) 0.8326(4) 0.2714(4)
O20_18 O 0.4786(4) 0.7357(4) 0.3326(4)
Dy1_27 Dy 0.5000 0.7500 0.0000
O1_19 O 0.5658(3) 0.8158(3) 0.0000
H1_13 H 0.6346 0.8159 0.0271
O4_13 O 0.4703(4) 0.8349(3) 0.0089(3)
C3_13 C 0.5546(6) 0.8672(5) 0.0035(6)
H4_13 H 0.5722 0.8820 0.0324
C4_13 C 0.4978(6) 0.8737(5) 0.0098(6)
O6_17 O 0.4342(3) 0.7500 0.0658(3)
C5_13 C 0.3828(5) 0.7465(6) 0.0546(6)
H5_13 H 0.3654 0.7771 0.0659
H6_13 H 0.3680 0.7176 0.0722
O9_13 O 0.5297(4) 0.7589(3) 0.0849(3)
C7_13 C 0.4454(6) 0.7535(6) 0.1172(5)
H7_13 H 0.4341 0.7229 0.1346
H8_13 H 0.4278 0.7824 0.1320
C8_13 C 0.5022(6) 0.7598(6) 0.1237(5)
O14_13 O 0.4911(3) 0.6651(3) 0.0297(4)
O15_9 O 0.4857(4) 0.5826(4) 0.0214(4)
C12_13 C 0.4902(6) 0.6263(5) 0.0022(6)
Dy1_28 Dy 0.5000 0.7500 1.0000
O1_20 O 0.5658(3) 0.8158(3) 1.0000
O2_13 O 0.5849(3) 0.7203(4) 0.9911(3)
C1_13 C 0.6172(5) 0.8046(6) 0.9965(6)
H2_13 H 0.6320 0.8222 0.9676
C2_13 C 0.6237(5) 0.7478(6) 0.9902(6)
H3_13 H 0.5659 0.8846 0.9729
O7_13 O 0.4151(3) 0.7411(3) 0.9703(4)
O8_5 O 0.3326(4) 0.7357(4) 0.9786(4)
C6_13 C 0.3763(5) 0.7402(6) 0.9978(6)
O11_14 O 0.5000 0.6842(3) 0.9342(3)
O12_13 O 0.5089(3) 0.7797(4) 0.9151(3)
O13_13 O 0.5143(4) 0.7714(4) 0.8326(4)
C9_13 C 0.5035(6) 0.6954(6) 0.8828(5)
H9_13 H 0.4729 0.6841 0.8654
H10_13 H 0.5324 0.6778 0.8680
C10_13 C 0.5098(6) 0.7522(6) 0.8763(5)
C11_13 C 0.4965(6) 0.6328(5) 0.9454(6)
H11_13 H 0.5271 0.6154 0.9341
H12_13 H 0.4676 0.6180 0.9278
O20_19 O 0.2714(4) 0.0143(4) 0.3326(4)
O18_19 O 0.3326(4) 0.9786(4) 0.2357(4)
O19_19 O 0.2357(4) 0.9174(4) 0.2714(4)
O19_20 O 0.1674(4) 0.7643(4) 0.0214(4)
O20_20 O 0.2643(4) 0.7286(4) 0.0826(4)
O17_11 O 0.2357(4) 0.7714(4) 0.9174(4)
O18_20 O 0.2286(4) 0.6674(4) 0.9857(4)
Dy1_29 Dy 0.2500 0.7500 0.7500
O1_21 O 0.1842(3) 0.8158(3) 0.7500
O2_14 O 0.2797(4) 0.8349(3) 0.7411(3)
C1_14 C 0.1954(6) 0.8672(5) 0.7465(6)
H1_14 H 0.1841 0.8846 0.7771
H2_14 H 0.1778 0.8820 0.7176
C2_14 C 0.2522(6) 0.8737(5) 0.7402(6)
O4_14 O 0.1651(3) 0.7203(4) 0.7589(3)
C3_14 C 0.1328(5) 0.8046(6) 0.7535(6)
H3_14 H 0.1154 0.8159 0.7229
H4_14 H 0.1180 0.8222 0.7824
C4_14 C 0.1263(5) 0.7478(6) 0.7598(6)
O6_18 O 0.2500 0.6842(3) 0.8158(3)
O7_14 O 0.2589(3) 0.6651(3) 0.7203(4)
O8_6 O 0.2643(4) 0.5826(4) 0.7286(4)
C5_14 C 0.2535(6) 0.6328(5) 0.8046(6)
H5_14 H 0.2229 0.6154 0.8159
H6_14 H 0.2824 0.6180 0.8222
C6_14 C 0.2598(6) 0.6263(5) 0.7478(6)
O9_14 O 0.2411(3) 0.7797(4) 0.8349(3)
C7_14 C 0.2465(6) 0.6954(6) 0.8672(5)
H7_14 H 0.2771 0.6841 0.8846
H8_14 H 0.2176 0.6778 0.8820
C8_14 C 0.2402(6) 0.7522(6) 0.8737(5)
O11_15 O 0.3158(3) 0.7500 0.6842(3)
O12_14 O 0.2203(4) 0.7589(3) 0.6651(3)
O13_14 O 0.2286(4) 0.7643(4) 0.5826(4)
C9_14 C 0.3046(6) 0.7535(6) 0.6328(5)
H9_14 H 0.3159 0.7229 0.6154
H10_14 H 0.3222 0.7824 0.6180
C10_14 C 0.2478(6) 0.7598(6) 0.6263(5)
O14_14 O 0.3349(3) 0.7411(3) 0.7797(4)
O15_10 O 0.4174(4) 0.7357(4) 0.7714(4)
C11_14 C 0.3672(5) 0.7465(6) 0.6954(6)
H11_14 H 0.3846 0.7771 0.6841
H12_14 H 0.3820 0.7176 0.6778
C12_14 C 0.3737(5) 0.7402(6) 0.7522(6)
O18_21 O 0.7643(4) 0.7286(4) 0.5826(4)
O19_21 O 0.7286(4) 0.6674(4) 0.4857(4)
O20_21 O 0.6674(4) 0.7643(4) 0.5214(4)
O19_22 O 0.0214(4) 0.6674(4) 0.2643(4)
O20_22 O 0.0826(4) 0.7643(4) 0.2286(4)
O18_22 O 0.9857(4) 0.7286(4) 0.1674(4)
O18_23 O 0.7643(4) 0.5214(4) 0.6674(4)
O19_23 O 0.7286(4) 0.5826(4) 0.7643(4)
O20_23 O 0.6674(4) 0.4857(4) 0.7286(4)
Dy1_30 Dy 0.2500 0.5000 0.5000
O1_22 O 0.3158(3) 0.5000 0.5658(3)
O2_15 O 0.3349(3) 0.5089(3) 0.4703(4)
O3_13 O 0.4174(4) 0.5143(4) 0.4786(4)
C1_15 C 0.3672(5) 0.5035(6) 0.5546(6)
H1_15 H 0.3846 0.4729 0.5659
H2_15 H 0.3820 0.5324 0.5722
C2_15 C 0.3737(5) 0.5098(6) 0.4978(6)
O4_15 O 0.2203(4) 0.4911(3) 0.5849(3)
O5_12 O 0.2286(4) 0.4857(4) 0.6674(4)
C3_15 C 0.3046(6) 0.4965(6) 0.6172(5)
H3_15 H 0.3159 0.5271 0.6346
H4_15 H 0.3222 0.4676 0.6320
C4_15 C 0.2478(6) 0.4902(6) 0.6237(5)
O6_19 O 0.1842(3) 0.4342(3) 0.5000
O7_15 O 0.1651(3) 0.5297(4) 0.4911(3)
C5_15 C 0.1328(5) 0.4454(6) 0.4965(6)
H5_15 H 0.1154 0.4341 0.5271
H6_15 H 0.1180 0.4278 0.4676
C6_15 C 0.1263(5) 0.5022(6) 0.4902(6)
O9_15 O 0.2797(4) 0.4151(3) 0.5089(3)
C7_15 C 0.1954(6) 0.3828(5) 0.5035(6)
H7_15 H 0.1841 0.3654 0.4729
H8_15 H 0.1778 0.3680 0.5324
C8_15 C 0.2522(6) 0.3763(5) 0.5098(6)
O11_16 O 0.2500 0.5658(3) 0.4342(3)
O12_15 O 0.2589(3) 0.5849(3) 0.5297(4)
O13_15 O 0.2643(4) 0.6674(4) 0.5214(4)
C9_15 C 0.2535(6) 0.6172(5) 0.4454(6)
H9_15 H 0.2229 0.6346 0.4341
H10_15 H 0.2824 0.6320 0.4278
C10_15 C 0.2598(6) 0.6237(5) 0.5022(6)
O14_15 O 0.2411(3) 0.4703(4) 0.4151(3)
O15_11 O 0.2357(4) 0.4786(4) 0.3326(4)
C11_15 C 0.2465(6) 0.5546(6) 0.3828(5)
H11_15 H 0.2771 0.5659 0.3654
H12_15 H 0.2176 0.5722 0.3680
C12_15 C 0.2402(6) 0.4978(6) 0.3763(5)
O16_14 O 0.5143(4) 0.4786(4) 0.4174(4)
O18_24 O 0.5826(4) 0.4857(4) 0.5214(4)
O19_24 O 0.4857(4) 0.5214(4) 0.5826(4)
O20_24 O 0.5214(4) 0.5826(4) 0.4857(4)
O18_25 O 0.5826(4) 0.7643(4) 0.7286(4)
O19_25 O 0.4857(4) 0.7286(4) 0.6674(4)
O20_25 O 0.5214(4) 0.6674(4) 0.7643(4)
Dy1_31 Dy 0.5000 0.5000 0.2500
O1_23 O 0.4342(3) 0.5000 0.1842(3)
O2_16 O 0.4151(3) 0.5089(3) 0.2797(4)
O3_14 O 0.3326(4) 0.5143(4) 0.2714(4)
C1_16 C 0.3828(5) 0.5035(6) 0.1954(6)
H1_16 H 0.3654 0.4729 0.1841
H2_16 H 0.3680 0.5324 0.1778
C2_16 C 0.3763(5) 0.5098(6) 0.2522(6)
O4_16 O 0.5297(4) 0.4911(3) 0.1651(3)
O5_13 O 0.5214(4) 0.4857(4) 0.0826(4)
C3_16 C 0.4454(6) 0.4965(6) 0.1328(5)
H3_16 H 0.4341 0.5271 0.1154
H4_16 H 0.4278 0.4676 0.1180
C4_16 C 0.5022(6) 0.4902(6) 0.1263(5)
O6_20 O 0.5658(3) 0.4342(3) 0.2500
O7_16 O 0.5849(3) 0.5297(4) 0.2589(3)
C5_16 C 0.6172(5) 0.4454(6) 0.2535(6)
H5_16 H 0.6346 0.4341 0.2229
H6_16 H 0.6320 0.4278 0.2824
C6_16 C 0.6237(5) 0.5022(6) 0.2598(6)
O9_16 O 0.4703(4) 0.4151(3) 0.2411(3)
C7_16 C 0.5546(6) 0.3828(5) 0.2465(6)
H7_16 H 0.5659 0.3654 0.2771
H8_16 H 0.5722 0.3680 0.2176
C8_16 C 0.4978(6) 0.3763(5) 0.2402(6)
O11_17 O 0.5000 0.5658(3) 0.3158(3)
O12_16 O 0.4911(3) 0.5849(3) 0.2203(4)
C9_16 C 0.4965(6) 0.6172(5) 0.3046(6)
H9_16 H 0.5271 0.6346 0.3159
H10_16 H 0.4676 0.6320 0.3222
C10_16 C 0.4902(6) 0.6237(5) 0.2478(6)
O14_16 O 0.5089(3) 0.4703(4) 0.3349(3)
C11_16 C 0.5035(6) 0.5546(6) 0.3672(5)
H11_16 H 0.4729 0.5659 0.3846
H12_16 H 0.5324 0.5722 0.3820
C12_16 C 0.5098(6) 0.4978(6) 0.3737(5)
O18_26 O 0.1674(4) 0.4857(4) 0.2286(4)
O19_26 O 0.2643(4) 0.5214(4) 0.1674(4)
O20_26 O 0.2286(4) 0.5826(4) 0.2643(4)
O18_27 O 0.4174(4) 0.2714(4) 0.7357(4)
O19_27 O 0.5143(4) 0.3326(4) 0.7714(4)
O20_27 O 0.4786(4) 0.2357(4) 0.8326(4)
O18_28 O 0.3326(4) 0.4786(4) 0.7357(4)
O19_28 O 0.2357(4) 0.4174(4) 0.7714(4)
O20_28 O 0.2714(4) 0.5143(4) 0.8326(4)
O19_29 O 0.3326(4) 0.2714(4) 0.0143(4)
O18_29 O 0.2714(4) 0.2357(4) 0.9174(4)
O20_29 O 0.2357(4) 0.3326(4) 0.9786(4)
O18_30 O 0.4786(4) 0.0143(4) 0.4174(4)
O19_30 O 0.4174(4) 0.9786(4) 0.5143(4)
O20_30 O 0.5143(4) 0.9174(4) 0.4786(4)
O18_31 O 0.2357(4) 0.8326(4) 0.4786(4)
O19_31 O 0.2714(4) 0.7357(4) 0.4174(4)
O20_31 O 0.3326(4) 0.7714(4) 0.5143(4)
O20_32 O 0.4174(4) 0.4786(4) 0.0143(4)
O18_32 O 0.5143(4) 0.4174(4) 0.9786(4)
O19_32 O 0.4786(4) 0.5143(4) 0.9174(4)
Dy1_32 Dy 0.0000 0.0000 0.7500
O6_21 O 0.0658(3) -0.0000 0.8158(3)
C5_17 C 0.0546(6) 0.0035(6) 0.8672(5)
H6_17 H 0.0722 0.0324 0.8820
H7_17 H 0.1346 0.0271 0.8159
O14_17 O 0.0297(4) 0.0849(3) 0.7589(3)
C12_17 C 0.0022(6) 0.1237(5) 0.7598(6)
Dy1_33 Dy 0.0000 1.0000 0.7500
O1_24 O -0.0000 0.9342(3) 0.6842(3)
H1_17 H 0.0271 0.9341 0.6154
O4_17 O 0.0089(3) 0.9151(3) 0.7797(4)
C3_17 C 0.0035(6) 0.8828(5) 0.6954(6)
H4_17 H 0.0324 0.8680 0.6778
C4_17 C 0.0098(6) 0.8763(5) 0.7522(6)
O6_22 O 0.0658(3) 1.0000 0.8158(3)
H5_17 H 0.0659 0.9729 0.8846
O9_17 O 0.0849(3) 0.9911(3) 0.7203(4)
C7_17 C 0.1172(5) 0.9965(6) 0.8046(6)
H8_17 H 0.1320 0.9676 0.8222
C8_17 C 0.1237(5) 0.9902(6) 0.7478(6)
Dy1_34 Dy 1.0000 0.0000 0.7500
O2_17 O 0.9911(3) 0.0297(4) 0.6651(3)
C2_17 C 0.9902(6) 0.0022(6) 0.6263(5)
O7_17 O 0.9703(4) 0.0089(3) 0.8349(3)
C6_17 C 0.9978(6) 0.0098(6) 0.8737(5)
O11_18 O 0.9342(3) 0.0658(3) 0.7500
C9_17 C 0.8828(5) 0.0546(6) 0.7465(6)
H9_17 H 0.8654 0.0659 0.7771
H10_17 H 0.8680 0.0722 0.7176
C11_17 C 0.9454(6) 0.1172(5) 0.7535(6)
H11_17 H 0.9341 0.1346 0.7229
H12_17 H 0.9278 0.1320 0.7824
Dy1_35 Dy 1.0000 1.0000 0.7500
O1_25 O 1.0000 0.9342(3) 0.6842(3)
C1_17 C 0.9965(6) 0.9454(6) 0.6328(5)
H2_17 H 0.9676 0.9278 0.6180
H3_17 H 0.9729 0.8654 0.6841
O12_17 O 0.9151(3) 0.9703(4) 0.7411(3)
C10_17 C 0.8763(5) 0.9978(6) 0.7402(6)
Dy1_36 Dy 0.0000 0.7500 0.0000
O4_18 O 0.0849(3) 0.7589(3) 0.0297(4)
C4_18 C 0.1237(5) 0.7598(6) 0.0022(6)
O6_23 O -0.0000 0.8158(3) 0.0658(3)
H5_18 H 0.0271 0.8159 0.1346
C7_18 C 0.0035(6) 0.8672(5) 0.0546(6)
H8_18 H 0.0324 0.8820 0.0722
Dy1_37 Dy 0.0000 0.7500 1.0000
O1_26 O 0.0658(3) 0.7500 0.9342(3)
C1_18 C 0.0546(6) 0.7465(6) 0.8828(5)
H1_18 H 0.0659 0.7771 0.8654
H2_18 H 0.0722 0.7176 0.8680
C3_18 C 0.1172(5) 0.7535(6) 0.9454(6)
H3_18 H 0.1346 0.7229 0.9341
H4_18 H 0.1320 0.7824 0.9278
O9_18 O 0.0089(3) 0.8349(3) 0.9703(4)
C8_18 C 0.0098(6) 0.8737(5) 0.9978(6)
O12_18 O 0.0297(4) 0.6651(3) 0.9911(3)
C10_18 C 0.0022(6) 0.6263(5) 0.9902(6)
Dy1_38 Dy 1.0000 0.7500 0.0000
O6_24 O 1.0000 0.8158(3) 0.0658(3)
O7_18 O 0.9911(3) 0.7203(4) 0.0849(3)
C5_18 C 0.9965(6) 0.8046(6) 0.1172(5)
H6_18 H 0.9676 0.8222 0.1320
C6_18 C 0.9902(6) 0.7478(6) 0.1237(5)
H7_18 H 0.9729 0.8846 0.0659
O11_19 O 0.9342(3) 0.6842(3) 0.0000
H9_18 H 0.9341 0.6154 0.0271
O14_18 O 0.9151(3) 0.7797(4) 0.0089(3)
C11_18 C 0.8828(5) 0.6954(6) 0.0035(6)
H12_18 H 0.8680 0.6778 0.0324
C12_18 C 0.8763(5) 0.7522(6) 0.0098(6)
Dy1_39 Dy 1.0000 0.7500 1.0000
O2_18 O 0.9703(4) 0.7411(3) 0.9151(3)
C2_18 C 0.9978(6) 0.7402(6) 0.8763(5)
O11_20 O 0.9342(3) 0.6842(3) 1.0000
C9_18 C 0.9454(6) 0.6328(5) 0.9965(6)
H10_18 H 0.9278 0.6180 0.9676
H11_18 H 0.8654 0.6841 0.9729
Dy1_40 Dy 0.2500 0.7500 0.2500
O1_27 O 0.2500 0.8158(3) 0.1842(3)
O2_19 O 0.2589(3) 0.7203(4) 0.1651(3)
C1_19 C 0.2535(6) 0.8046(6) 0.1328(5)
H1_19 H 0.2229 0.8159 0.1154
H2_19 H 0.2824 0.8222 0.1180
C2_19 C 0.2598(6) 0.7478(6) 0.1263(5)
O4_19 O 0.2411(3) 0.8349(3) 0.2797(4)
C3_19 C 0.2465(6) 0.8672(5) 0.1954(6)
H3_19 H 0.2771 0.8846 0.1841
H4_19 H 0.2176 0.8820 0.1778
C4_19 C 0.2402(6) 0.8737(5) 0.2522(6)
O6_25 O 0.1842(3) 0.7500 0.3158(3)
O7_19 O 0.2797(4) 0.7411(3) 0.3349(3)
C5_19 C 0.1954(6) 0.7465(6) 0.3672(5)
H5_19 H 0.1841 0.7771 0.3846
H6_19 H 0.1778 0.7176 0.3820
C6_19 C 0.2522(6) 0.7402(6) 0.3737(5)
O9_19 O 0.1651(3) 0.7589(3) 0.2203(4)
C7_19 C 0.1328(5) 0.7535(6) 0.3046(6)
H7_19 H 0.1154 0.7229 0.3159
H8_19 H 0.1180 0.7824 0.3222
C8_19 C 0.1263(5) 0.7598(6) 0.2478(6)
O11_21 O 0.3158(3) 0.6842(3) 0.2500
O12_19 O 0.3349(3) 0.7797(4) 0.2411(3)
C9_19 C 0.3672(5) 0.6954(6) 0.2465(6)
H9_19 H 0.3846 0.6841 0.2771
H10_19 H 0.3820 0.6778 0.2176
C10_19 C 0.3737(5) 0.7522(6) 0.2402(6)
O14_19 O 0.2203(4) 0.6651(3) 0.2589(3)
C11_19 C 0.3046(6) 0.6328(5) 0.2535(6)
H11_19 H 0.3159 0.6154 0.2229
H12_19 H 0.3222 0.6180 0.2824
C12_19 C 0.2478(6) 0.6263(5) 0.2598(6)
Dy1_41 Dy 0.2500 0.0000 0.5000
O1_28 O 0.1842(3) 0.0000 0.4342(3)
O2_20 O 0.2797(4) 0.0089(3) 0.4151(3)
C1_20 C 0.1954(6) 0.0035(6) 0.3828(5)
H2_20 H 0.1778 0.0324 0.3680
C2_20 C 0.2522(6) 0.0098(6) 0.3763(5)
H3_20 H 0.1154 0.0271 0.4341
O7_20 O 0.2589(3) 0.0297(4) 0.5849(3)
C6_20 C 0.2598(6) 0.0022(6) 0.6237(5)
O11_22 O 0.3158(3) 0.0658(3) 0.5000
O12_20 O 0.2203(4) 0.0849(3) 0.4911(3)
C9_20 C 0.3046(6) 0.1172(5) 0.4965(6)
H9_20 H 0.3159 0.1346 0.5271
H10_20 H 0.3222 0.1320 0.4676
C10_20 C 0.2478(6) 0.1237(5) 0.4902(6)
C11_20 C 0.3672(5) 0.0546(6) 0.5035(6)
H11_20 H 0.3846 0.0659 0.4729
H12_20 H 0.3820 0.0722 0.5324
Dy1_42 Dy 0.2500 1.0000 0.5000
O1_29 O 0.1842(3) 1.0000 0.4342(3)
H1_20 H 0.1841 0.9729 0.3654
O4_20 O 0.1651(3) 0.9911(3) 0.5297(4)
C3_20 C 0.1328(5) 0.9965(6) 0.4454(6)
H4_20 H 0.1180 0.9676 0.4278
C4_20 C 0.1263(5) 0.9902(6) 0.5022(6)
O6_26 O 0.2500 0.9342(3) 0.5658(3)
C5_20 C 0.2535(6) 0.9454(6) 0.6172(5)
H5_20 H 0.2229 0.9341 0.6346
H6_20 H 0.2824 0.9278 0.6320
O9_20 O 0.2411(3) 0.9151(3) 0.4703(4)
C7_20 C 0.2465(6) 0.8828(5) 0.5546(6)
H7_20 H 0.2771 0.8654 0.5659
H8_20 H 0.2176 0.8680 0.5722
C8_20 C 0.2402(6) 0.8763(5) 0.4978(6)
O14_20 O 0.3349(3) 0.9703(4) 0.5089(3)
C12_20 C 0.3737(5) 0.9978(6) 0.5098(6)
Dy1_43 Dy 0.7500 0.0000 0.0000
O6_27 O 0.8158(3) 0.0658(3) -0.0000
C5_21 C 0.8672(5) 0.0546(6) 0.0035(6)
H6_21 H 0.8820 0.0722 0.0324
H7_21 H 0.8159 0.1346 0.0271
O14_21 O 0.7589(3) 0.0297(4) 0.0849(3)
C12_21 C 0.7598(6) 0.0022(6) 0.1237(5)
Dy1_44 Dy 0.7500 0.0000 1.0000
O1_30 O 0.6842(3) 0.0000 0.9342(3)
H1_21 H 0.6154 0.0271 0.9341
O4_21 O 0.7797(4) 0.0089(3) 0.9151(3)
C3_21 C 0.6954(6) 0.0035(6) 0.8828(5)
H4_21 H 0.6778 0.0324 0.8680
C4_21 C 0.7522(6) 0.0098(6) 0.8763(5)
O6_28 O 0.8158(3) 0.0658(3) 1.0000
H5_21 H 0.8846 0.0659 0.9729
O9_21 O 0.7203(4) 0.0849(3) 0.9911(3)
C7_21 C 0.8046(6) 0.1172(5) 0.9965(6)
H8_21 H 0.8222 0.1320 0.9676
C8_21 C 0.7478(6) 0.1237(5) 0.9902(6)
Dy1_45 Dy 0.7500 1.0000 0.0000
O2_21 O 0.6651(3) 0.9911(3) 0.0297(4)
C2_21 C 0.6263(5) 0.9902(6) 0.0022(6)
O7_21 O 0.8349(3) 0.9703(4) 0.0089(3)
C6_21 C 0.8737(5) 0.9978(6) 0.0098(6)
O11_23 O 0.7500 0.9342(3) 0.0658(3)
C9_21 C 0.7465(6) 0.8828(5) 0.0546(6)
H9_21 H 0.7771 0.8654 0.0659
H10_21 H 0.7176 0.8680 0.0722
C11_21 C 0.7535(6) 0.9454(6) 0.1172(5)
H11_21 H 0.7229 0.9341 0.1346
H12_21 H 0.7824 0.9278 0.1320
Dy1_46 Dy 0.7500 1.0000 1.0000
O1_31 O 0.6842(3) 1.0000 0.9342(3)
C1_21 C 0.6328(5) 0.9965(6) 0.9454(6)
H2_21 H 0.6180 0.9676 0.9278
H3_21 H 0.6841 0.9729 0.8654
O12_21 O 0.7411(3) 0.9151(3) 0.9703(4)
C10_21 C 0.7402(6) 0.8763(5) 0.9978(6)
Dy1_47 Dy -0.0000 0.5000 0.2500
O1_32 O 0.0000 0.4342(3) 0.1842(3)
O2_22 O 0.0089(3) 0.4151(3) 0.2797(4)
C1_22 C 0.0035(6) 0.3828(5) 0.1954(6)
H2_22 H 0.0324 0.3680 0.1778
C2_22 C 0.0098(6) 0.3763(5) 0.2522(6)
H3_22 H 0.0271 0.4341 0.1154
O7_22 O 0.0297(4) 0.5849(3) 0.2589(3)
C6_22 C 0.0022(6) 0.6237(5) 0.2598(6)
O11_24 O 0.0658(3) 0.5000 0.3158(3)
O12_22 O 0.0849(3) 0.4911(3) 0.2203(4)
C9_22 C 0.1172(5) 0.4965(6) 0.3046(6)
H9_22 H 0.1346 0.5271 0.3159
H10_22 H 0.1320 0.4676 0.3222
C10_22 C 0.1237(5) 0.4902(6) 0.2478(6)
C11_22 C 0.0546(6) 0.5035(6) 0.3672(5)
H11_22 H 0.0659 0.4729 0.3846
H12_22 H 0.0722 0.5324 0.3820
Dy1_48 Dy 1.0000 0.5000 0.2500
O1_33 O 1.0000 0.4342(3) 0.1842(3)
H1_22 H 0.9729 0.3654 0.1841
O4_22 O 0.9911(3) 0.5297(4) 0.1651(3)
C3_22 C 0.9965(6) 0.4454(6) 0.1328(5)
H4_22 H 0.9676 0.4278 0.1180
C4_22 C 0.9902(6) 0.5022(6) 0.1263(5)
O6_29 O 0.9342(3) 0.5658(3) 0.2500
C5_22 C 0.9454(6) 0.6172(5) 0.2535(6)
H5_22 H 0.9341 0.6346 0.2229
H6_22 H 0.9278 0.6320 0.2824
O9_22 O 0.9151(3) 0.4703(4) 0.2411(3)
C7_22 C 0.8828(5) 0.5546(6) 0.2465(6)
H7_22 H 0.8654 0.5659 0.2771
H8_22 H 0.8680 0.5722 0.2176
C8_22 C 0.8763(5) 0.4978(6) 0.2402(6)
O14_22 O 0.9703(4) 0.5089(3) 0.3349(3)
C12_22 C 0.9978(6) 0.5098(6) 0.3737(5)
Dy1_49 Dy 0.5000 0.7500 0.5000
O1_34 O 0.5658(3) 0.7500 0.4342(3)
O2_23 O 0.5849(3) 0.7589(3) 0.5297(4)
C1_23 C 0.6172(5) 0.7535(6) 0.4454(6)
H1_23 H 0.6346 0.7229 0.4341
H2_23 H 0.6320 0.7824 0.4278
C2_23 C 0.6237(5) 0.7598(6) 0.5022(6)
O4_23 O 0.4703(4) 0.7411(3) 0.4151(3)
C3_23 C 0.5546(6) 0.7465(6) 0.3828(5)
H3_23 H 0.5659 0.7771 0.3654
H4_23 H 0.5722 0.7176 0.3680
C4_23 C 0.4978(6) 0.7402(6) 0.3763(5)
O6_30 O 0.4342(3) 0.6842(3) 0.5000
O7_23 O 0.4151(3) 0.7797(4) 0.5089(3)
C5_23 C 0.3828(5) 0.6954(6) 0.5035(6)
H5_23 H 0.3654 0.6841 0.4729
H6_23 H 0.3680 0.6778 0.5324
C6_23 C 0.3763(5) 0.7522(6) 0.5098(6)
O9_23 O 0.5297(4) 0.6651(3) 0.4911(3)
C7_23 C 0.4454(6) 0.6328(5) 0.4965(6)
H7_23 H 0.4341 0.6154 0.5271
H8_23 H 0.4278 0.6180 0.4676
C8_23 C 0.5022(6) 0.6263(5) 0.4902(6)
O11_25 O 0.5000 0.8158(3) 0.5658(3)
O12_23 O 0.5089(3) 0.8349(3) 0.4703(4)
C9_23 C 0.5035(6) 0.8672(5) 0.5546(6)
H9_23 H 0.4729 0.8846 0.5659
H10_23 H 0.5324 0.8820 0.5722
C10_23 C 0.5098(6) 0.8737(5) 0.4978(6)
O14_23 O 0.4911(3) 0.7203(4) 0.5849(3)
C11_23 C 0.4965(6) 0.8046(6) 0.6172(5)
H11_23 H 0.5271 0.8159 0.6346
H12_23 H 0.4676 0.8222 0.6320
C12_23 C 0.4902(6) 0.7478(6) 0.6237(5)
Dy1_50 Dy 0.2500 0.2500 0.7500
O1_35 O 0.2500 0.3158(3) 0.6842(3)
O2_24 O 0.2411(3) 0.3349(3) 0.7797(4)
C1_24 C 0.2465(6) 0.3672(5) 0.6954(6)
H1_24 H 0.2771 0.3846 0.6841
H2_24 H 0.2176 0.3820 0.6778
C2_24 C 0.2402(6) 0.3737(5) 0.7522(6)
O4_24 O 0.2589(3) 0.2203(4) 0.6651(3)
C3_24 C 0.2535(6) 0.3046(6) 0.6328(5)
H3_24 H 0.2229 0.3159 0.6154
H4_24 H 0.2824 0.3222 0.6180
C4_24 C 0.2598(6) 0.2478(6) 0.6263(5)
O6_31 O 0.3158(3) 0.1842(3) 0.7500
O7_24 O 0.2203(4) 0.1651(3) 0.7589(3)
C5_24 C 0.3046(6) 0.1328(5) 0.7535(6)
H5_24 H 0.3159 0.1154 0.7229
H6_24 H 0.3222 0.1180 0.7824
C6_24 C 0.2478(6) 0.1263(5) 0.7598(6)
O9_24 O 0.3349(3) 0.2797(4) 0.7411(3)
C7_24 C 0.3672(5) 0.1954(6) 0.7465(6)
H7_24 H 0.3846 0.1841 0.7771
H8_24 H 0.3820 0.1778 0.7176
C8_24 C 0.3737(5) 0.2522(6) 0.7402(6)
O11_26 O 0.1842(3) 0.2500 0.8158(3)
O12_24 O 0.1651(3) 0.2589(3) 0.7203(4)
C9_24 C 0.1328(5) 0.2535(6) 0.8046(6)
H9_24 H 0.1154 0.2229 0.8159
H10_24 H 0.1180 0.2824 0.8222
C10_24 C 0.1263(5) 0.2598(6) 0.7478(6)
O14_24 O 0.2797(4) 0.2411(3) 0.8349(3)
C11_24 C 0.1954(6) 0.2465(6) 0.8672(5)
H11_24 H 0.1841 0.2771 0.8846
H12_24 H 0.1778 0.2176 0.8820
C12_24 C 0.2522(6) 0.2402(6) 0.8737(5)
Dy1_51 Dy 0.7500 0.7500 0.7500
O1_36 O 0.6842(3) 0.7500 0.8158(3)
O2_25 O 0.6651(3) 0.7589(3) 0.7203(4)
C1_25 C 0.6328(5) 0.7535(6) 0.8046(6)
H1_25 H 0.6154 0.7229 0.8159
H2_25 H 0.6180 0.7824 0.8222
C2_25 C 0.6263(5) 0.7598(6) 0.7478(6)
O4_25 O 0.7797(4) 0.7411(3) 0.8349(3)
C3_25 C 0.6954(6) 0.7465(6) 0.8672(5)
H3_25 H 0.6841 0.7771 0.8846
H4_25 H 0.6778 0.7176 0.8820
C4_25 C 0.7522(6) 0.7402(6) 0.8737(5)
O6_32 O 0.8158(3) 0.6842(3) 0.7500
O7_25 O 0.8349(3) 0.7797(4) 0.7411(3)
C5_25 C 0.8672(5) 0.6954(6) 0.7465(6)
H5_25 H 0.8846 0.6841 0.7771
H6_25 H 0.8820 0.6778 0.7176
C6_25 C 0.8737(5) 0.7522(6) 0.7402(6)
O9_25 O 0.7203(4) 0.6651(3) 0.7589(3)
C7_25 C 0.8046(6) 0.6328(5) 0.7535(6)
H7_25 H 0.8159 0.6154 0.7229
H8_25 H 0.8222 0.6180 0.7824
C8_25 C 0.7478(6) 0.6263(5) 0.7598(6)
O11_27 O 0.7500 0.8158(3) 0.6842(3)
O12_25 O 0.7411(3) 0.8349(3) 0.7797(4)
C9_25 C 0.7465(6) 0.8672(5) 0.6954(6)
H9_25 H 0.7771 0.8846 0.6841
H10_25 H 0.7176 0.8820 0.6778
C10_25 C 0.7402(6) 0.8737(5) 0.7522(6)
O14_25 O 0.7589(3) 0.7203(4) 0.6651(3)
C11_25 C 0.7535(6) 0.8046(6) 0.6328(5)
H11_25 H 0.7229 0.8159 0.6154
H12_25 H 0.7824 0.8222 0.6180
C12_25 C 0.7598(6) 0.7478(6) 0.6263(5)
Dy1_52 Dy 0.2500 0.5000 0.0000
O1_37 O 0.2500 0.4342(3) 0.0658(3)
C1_26 C 0.2465(6) 0.3828(5) 0.0546(6)
H1_26 H 0.2771 0.3654 0.0659
H2_26 H 0.2176 0.3680 0.0722
O4_26 O 0.2589(3) 0.5297(4) 0.0849(3)
C3_26 C 0.2535(6) 0.4454(6) 0.1172(5)
H3_26 H 0.2229 0.4341 0.1346
H4_26 H 0.2824 0.4278 0.1320
C4_26 C 0.2598(6) 0.5022(6) 0.1237(5)
O6_33 O 0.3158(3) 0.5658(3) 0.0000
H5_26 H 0.3159 0.6346 0.0271
O9_26 O 0.3349(3) 0.4703(4) 0.0089(3)
C7_26 C 0.3672(5) 0.5546(6) 0.0035(6)
H8_26 H 0.3820 0.5722 0.0324
C8_26 C 0.3737(5) 0.4978(6) 0.0098(6)
O12_26 O 0.1651(3) 0.4911(3) 0.0297(4)
C10_26 C 0.1263(5) 0.4902(6) 0.0022(6)
Dy1_53 Dy 0.2500 0.5000 1.0000
O2_26 O 0.2411(3) 0.4151(3) 0.9703(4)
C2_26 C 0.2402(6) 0.3763(5) 0.9978(6)
O6_34 O 0.3158(3) 0.5658(3) 1.0000
O7_26 O 0.2203(4) 0.5849(3) 0.9911(3)
C5_26 C 0.3046(6) 0.6172(5) 0.9965(6)
H6_26 H 0.3222 0.6320 0.9676
C6_26 C 0.2478(6) 0.6237(5) 0.9902(6)
H7_26 H 0.3846 0.5659 0.9729
O11_28 O 0.1842(3) 0.5000 0.9342(3)
C9_26 C 0.1328(5) 0.4965(6) 0.9454(6)
H9_26 H 0.1154 0.5271 0.9341
H10_26 H 0.1180 0.4676 0.9278
O14_26 O 0.2797(4) 0.5089(3) 0.9151(3)
C11_26 C 0.1954(6) 0.5035(6) 0.8828(5)
H11_26 H 0.1841 0.4729 0.8654
H12_26 H 0.1778 0.5324 0.8680
C12_26 C 0.2522(6) 0.5098(6) 0.8763(5)
Dy1_54 Dy 0.5000 0.0000 0.2500
O1_38 O 0.5658(3) 0.0000 0.3158(3)
H1_27 H 0.6346 0.0271 0.3159
O4_27 O 0.4703(4) 0.0089(3) 0.3349(3)
C3_27 C 0.5546(6) 0.0035(6) 0.3672(5)
H4_27 H 0.5722 0.0324 0.3820
C4_27 C 0.4978(6) 0.0098(6) 0.3737(5)
O6_35 O 0.4342(3) 0.0658(3) 0.2500
C5_27 C 0.3828(5) 0.0546(6) 0.2465(6)
H5_27 H 0.3654 0.0659 0.2771
H6_27 H 0.3680 0.0722 0.2176
O9_27 O 0.5297(4) 0.0849(3) 0.2589(3)
C7_27 C 0.4454(6) 0.1172(5) 0.2535(6)
H7_27 H 0.4341 0.1346 0.2229
H8_27 H 0.4278 0.1320 0.2824
C8_27 C 0.5022(6) 0.1237(5) 0.2598(6)
O14_27 O 0.4911(3) 0.0297(4) 0.1651(3)
C12_27 C 0.4902(6) 0.0022(6) 0.1263(5)
Dy1_55 Dy 0.5000 1.0000 0.2500
O1_39 O 0.5658(3) 1.0000 0.3158(3)
O2_27 O 0.5849(3) 0.9911(3) 0.2203(4)
C1_27 C 0.6172(5) 0.9965(6) 0.3046(6)
H2_27 H 0.6320 0.9676 0.3222
C2_27 C 0.6237(5) 0.9902(6) 0.2478(6)
H3_27 H 0.5659 0.9729 0.3846
O7_27 O 0.4151(3) 0.9703(4) 0.2411(3)
C6_27 C 0.3763(5) 0.9978(6) 0.2402(6)
O11_29 O 0.5000 0.9342(3) 0.1842(3)
O12_27 O 0.5089(3) 0.9151(3) 0.2797(4)
C9_27 C 0.5035(6) 0.8828(5) 0.1954(6)
H9_27 H 0.4729 0.8654 0.1841
H10_27 H 0.5324 0.8680 0.1778
C10_27 C 0.5098(6) 0.8763(5) 0.2522(6)
C11_27 C 0.4965(6) 0.9454(6) 0.1328(5)
H11_27 H 0.5271 0.9341 0.1154
H12_27 H 0.4676 0.9278 0.1180
Dy1_56 Dy -0.0000 0.2500 0.5000
O1_40 O 0.0000 0.3158(3) 0.5658(3)
O2_28 O 0.0089(3) 0.3349(3) 0.4703(4)
C1_28 C 0.0035(6) 0.3672(5) 0.5546(6)
H2_28 H 0.0324 0.3820 0.5722
C2_28 C 0.0098(6) 0.3737(5) 0.4978(6)
H3_28 H 0.0271 0.3159 0.6346
O7_28 O 0.0297(4) 0.1651(3) 0.4911(3)
C6_28 C 0.0022(6) 0.1263(5) 0.4902(6)
O11_30 O 0.0658(3) 0.2500 0.4342(3)
O12_28 O 0.0849(3) 0.2589(3) 0.5297(4)
C9_28 C 0.1172(5) 0.2535(6) 0.4454(6)
H9_28 H 0.1346 0.2229 0.4341
H10_28 H 0.1320 0.2824 0.4278
C10_28 C 0.1237(5) 0.2598(6) 0.5022(6)
C11_28 C 0.0546(6) 0.2465(6) 0.3828(5)
H11_28 H 0.0659 0.2771 0.3654
H12_28 H 0.0722 0.2176 0.3680
Dy1_57 Dy 1.0000 0.2500 0.5000
O1_41 O 1.0000 0.3158(3) 0.5658(3)
H1_28 H 0.9729 0.3846 0.5659
O4_28 O 0.9911(3) 0.2203(4) 0.5849(3)
C3_28 C 0.9965(6) 0.3046(6) 0.6172(5)
H4_28 H 0.9676 0.3222 0.6320
C4_28 C 0.9902(6) 0.2478(6) 0.6237(5)
O6_36 O 0.9342(3) 0.1842(3) 0.5000
C5_28 C 0.9454(6) 0.1328(5) 0.4965(6)
H5_28 H 0.9341 0.1154 0.5271
H6_28 H 0.9278 0.1180 0.4676
O9_28 O 0.9151(3) 0.2797(4) 0.5089(3)
C7_28 C 0.8828(5) 0.1954(6) 0.5035(6)
H7_28 H 0.8654 0.1841 0.4729
H8_28 H 0.8680 0.1778 0.5324
C8_28 C 0.8763(5) 0.2522(6) 0.5098(6)
O14_28 O 0.9703(4) 0.2411(3) 0.4151(3)
C12_28 C 0.9978(6) 0.2402(6) 0.3763(5)
Dy1_58 Dy 0.5000 0.2500 0.0000
O1_42 O 0.4342(3) 0.1842(3) 0.0000
O2_29 O 0.4151(3) 0.2797(4) 0.0089(3)
C1_29 C 0.3828(5) 0.1954(6) 0.0035(6)
H2_29 H 0.3680 0.1778 0.0324
C2_29 C 0.3763(5) 0.2522(6) 0.0098(6)
H3_29 H 0.4341 0.1154 0.0271
O7_29 O 0.5849(3) 0.2589(3) 0.0297(4)
C6_29 C 0.6237(5) 0.2598(6) 0.0022(6)
O11_31 O 0.5000 0.3158(3) 0.0658(3)
O12_29 O 0.4911(3) 0.2203(4) 0.0849(3)
C9_29 C 0.4965(6) 0.3046(6) 0.1172(5)
H9_29 H 0.5271 0.3159 0.1346
H10_29 H 0.4676 0.3222 0.1320
C10_29 C 0.4902(6) 0.2478(6) 0.1237(5)
C11_29 C 0.5035(6) 0.3672(5) 0.0546(6)
H11_29 H 0.4729 0.3846 0.0659
H12_29 H 0.5324 0.3820 0.0722
Dy1_59 Dy 0.5000 0.2500 1.0000
O1_43 O 0.4342(3) 0.1842(3) 1.0000
H1_29 H 0.3654 0.1841 0.9729
O4_29 O 0.5297(4) 0.1651(3) 0.9911(3)
C3_29 C 0.4454(6) 0.1328(5) 0.9965(6)
H4_29 H 0.4278 0.1180 0.9676
C4_29 C 0.5022(6) 0.1263(5) 0.9902(6)
O6_37 O 0.5658(3) 0.2500 0.9342(3)
C5_29 C 0.6172(5) 0.2535(6) 0.9454(6)
H5_29 H 0.6346 0.2229 0.9341
H6_29 H 0.6320 0.2824 0.9278
O9_29 O 0.4703(4) 0.2411(3) 0.9151(3)
C7_29 C 0.5546(6) 0.2465(6) 0.8828(5)
H7_29 H 0.5659 0.2771 0.8654
H8_29 H 0.5722 0.2176 0.8680
C8_29 C 0.4978(6) 0.2402(6) 0.8763(5)
O14_29 O 0.5089(3) 0.3349(3) 0.9703(4)
C12_29 C 0.5098(6) 0.3737(5) 0.9978(6)
Dy1_60 Dy 0.7500 0.2500 0.2500
O1_44 O 0.8158(3) 0.1842(3) 0.2500
O2_30 O 0.7203(4) 0.1651(3) 0.2589(3)
C1_30 C 0.8046(6) 0.1328(5) 0.2535(6)
H1_30 H 0.8159 0.1154 0.2229
H2_30 H 0.8222 0.1180 0.2824
C2_30 C 0.7478(6) 0.1263(5) 0.2598(6)
O4_30 O 0.8349(3) 0.2797(4) 0.2411(3)
C3_30 C 0.8672(5) 0.1954(6) 0.2465(6)
H3_30 H 0.8846 0.1841 0.2771
H4_30 H 0.8820 0.1778 0.2176
C4_30 C 0.8737(5) 0.2522(6) 0.2402(6)
O6_38 O 0.7500 0.3158(3) 0.1842(3)
O7_30 O 0.7411(3) 0.3349(3) 0.2797(4)
C5_30 C 0.7465(6) 0.3672(5) 0.1954(6)
H5_30 H 0.7771 0.3846 0.1841
H6_30 H 0.7176 0.3820 0.1778
C6_30 C 0.7402(6) 0.3737(5) 0.2522(6)
O9_30 O 0.7589(3) 0.2203(4) 0.1651(3)
C7_30 C 0.7535(6) 0.3046(6) 0.1328(5)
H7_30 H 0.7229 0.3159 0.1154
H8_30 H 0.7824 0.3222 0.1180
C8_30 C 0.7598(6) 0.2478(6) 0.1263(5)
O11_32 O 0.6842(3) 0.2500 0.3158(3)
O12_30 O 0.7797(4) 0.2411(3) 0.3349(3)
C9_30 C 0.6954(6) 0.2465(6) 0.3672(5)
H9_30 H 0.6841 0.2771 0.3846
H10_30 H 0.6778 0.2176 0.3820
C10_30 C 0.7522(6) 0.2402(6) 0.3737(5)
O14_30 O 0.6651(3) 0.2589(3) 0.2203(4)
C11_30 C 0.6328(5) 0.2535(6) 0.3046(6)
H11_30 H 0.6154 0.2229 0.3159
H12_30 H 0.6180 0.2824 0.3222
C12_30 C 0.6263(5) 0.2598(6) 0.2478(6)
Dy1_61 Dy 0.7500 0.5000 0.5000
O1_45 O 0.6842(3) 0.5000 0.4342(3)
O2_31 O 0.6651(3) 0.4911(3) 0.5297(4)
C1_31 C 0.6328(5) 0.4965(6) 0.4454(6)
H1_31 H 0.6154 0.5271 0.4341
H2_31 H 0.6180 0.4676 0.4278
C2_31 C 0.6263(5) 0.4902(6) 0.5022(6)
O4_31 O 0.7797(4) 0.5089(3) 0.4151(3)
C3_31 C 0.6954(6) 0.5035(6) 0.3828(5)
H3_31 H 0.6841 0.4729 0.3654
H4_31 H 0.6778 0.5324 0.3680
C4_31 C 0.7522(6) 0.5098(6) 0.3763(5)
O6_39 O 0.8158(3) 0.5658(3) 0.5000
O7_31 O 0.8349(3) 0.4703(4) 0.5089(3)
C5_31 C 0.8672(5) 0.5546(6) 0.5035(6)
H5_31 H 0.8846 0.5659 0.4729
H6_31 H 0.8820 0.5722 0.5324
C6_31 C 0.8737(5) 0.4978(6) 0.5098(6)
O9_31 O 0.7203(4) 0.5849(3) 0.4911(3)
C7_31 C 0.8046(6) 0.6172(5) 0.4965(6)
H7_31 H 0.8159 0.6346 0.5271
H8_31 H 0.8222 0.6320 0.4676
C8_31 C 0.7478(6) 0.6237(5) 0.4902(6)
O11_33 O 0.7500 0.4342(3) 0.5658(3)
O12_31 O 0.7411(3) 0.4151(3) 0.4703(4)
C9_31 C 0.7465(6) 0.3828(5) 0.5546(6)
H9_31 H 0.7771 0.3654 0.5659
H10_31 H 0.7176 0.3680 0.5722
C10_31 C 0.7402(6) 0.3763(5) 0.4978(6)
O14_31 O 0.7589(3) 0.5297(4) 0.5849(3)
C11_31 C 0.7535(6) 0.4454(6) 0.6172(5)
H11_31 H 0.7229 0.4341 0.6346
H12_31 H 0.7824 0.4278 0.6320
C12_31 C 0.7598(6) 0.5022(6) 0.6237(5)
Dy1_62 Dy 0.5000 0.5000 0.7500
O1_46 O 0.5658(3) 0.5000 0.8158(3)
O2_32 O 0.5849(3) 0.4911(3) 0.7203(4)
C1_32 C 0.6172(5) 0.4965(6) 0.8046(6)
H1_32 H 0.6346 0.5271 0.8159
H2_32 H 0.6320 0.4676 0.8222
C2_32 C 0.6237(5) 0.4902(6) 0.7478(6)
O4_32 O 0.4703(4) 0.5089(3) 0.8349(3)
C3_32 C 0.5546(6) 0.5035(6) 0.8672(5)
H3_32 H 0.5659 0.4729 0.8846
H4_32 H 0.5722 0.5324 0.8820
C4_32 C 0.4978(6) 0.5098(6) 0.8737(5)
O6_40 O 0.4342(3) 0.5658(3) 0.7500
O7_32 O 0.4151(3) 0.4703(4) 0.7411(3)
C5_32 C 0.3828(5) 0.5546(6) 0.7465(6)
H5_32 H 0.3654 0.5659 0.7771
H6_32 H 0.3680 0.5722 0.7176
C6_32 C 0.3763(5) 0.4978(6) 0.7402(6)
O9_32 O 0.5297(4) 0.5849(3) 0.7589(3)
C7_32 C 0.4454(6) 0.6172(5) 0.7535(6)
H7_32 H 0.4341 0.6346 0.7229
H8_32 H 0.4278 0.6320 0.7824
C8_32 C 0.5022(6) 0.6237(5) 0.7598(6)
O11_34 O 0.5000 0.4342(3) 0.6842(3)
O12_32 O 0.5089(3) 0.4151(3) 0.7797(4)
C9_32 C 0.5035(6) 0.3828(5) 0.6954(6)
H9_32 H 0.4729 0.3654 0.6841
H10_32 H 0.5324 0.3680 0.6778
C10_32 C 0.5098(6) 0.3763(5) 0.7522(6)
O14_32 O 0.4911(3) 0.5297(4) 0.6651(3)
C11_32 C 0.4965(6) 0.4454(6) 0.6328(5)
H11_32 H 0.5271 0.4341 0.6154
H12_32 H 0.4676 0.4278 0.6180
C12_32 C 0.4902(6) 0.5022(6) 0.6263(5)
loop_
_geom_bond_atom_site_label_1
_geom_bond_atom_site_label_2
_geom_bond_site_symmetry_1
_geom_bond_site_symmetry_2
Dy1 O1 1_555 1_555
O1 C1 1_555 1_555
H2 C1 1_555 1_555
O12 Dy1 1_555 1_555
O13 C10 1_555 1_555
C10 O12 1_555 1_555
Cd5 O13 1_555 1_555
O19 Cd1 1_555 1_555
Cd1_2 O3 1_555 1_555
O2 Dy1_2 1_555 1_555
O3 C2 1_555 1_555
C2 O2 1_555 1_555
O7 Dy1_2 1_555 1_555
O8 C6 1_555 1_555
C6 O7 1_555 1_555
O11 Dy1_2 1_555 1_555
C9 O11 1_555 1_555
H9 C9 1_555 1_555
H10 C9 1_555 1_555
C11 O11 1_555 1_555
H11 C11 1_555 1_555
H12 C11 1_555 1_555
Cd4_3 O8 1_555 1_555
O20 Cd1_2 1_555 1_555
Dy1_3 O1_2 1_555 1_555
O4 Dy1_3 1_555 1_555
O5 C4 1_555 1_555
C3 O1_2 1_555 1_555
H4 C3 1_555 1_555
C4 O4 1_555 1_555
O6 Dy1_3 1_555 1_555
O9 Dy1_3 1_555 1_555
O10 C8 1_555 1_555
C7 O6 1_555 1_555
H8 C7 1_555 1_555
C8 O9 1_555 1_555
Cd2_2 O5 1_555 1_555
Cd3 O10 1_555 1_555
O17 Cd1_3 1_555 1_555
O18 Cd1_3 1_555 1_555
C3 C4 1_555 1_555
C7 C8 1_555 1_555
O6_2 Dy1_4 1_555 1_555
C5 O6_2 1_555 1_555
H6 C5 1_555 1_555
O14 Dy1_4 1_555 1_555
O15 C12 1_555 1_555
C12 O14 1_555 1_555
Cd6_2 O15 1_555 1_555
O16 Cd1_4 1_555 1_555
Cd2 O3_2 1_555 1_555
O2_2 Dy1_5 1_555 1_555
O3_2 C2_2 1_555 1_555
C2_2 O2_2 1_555 1_555
O11_2 Dy1_5 1_555 1_555
C9_2 O11_2 1_555 1_555
H10_2 C9_2 1_555 1_555
O16_2 Cd2 1_555 1_555
O20_2 Cd2 1_555 1_555
O6_3 Dy1_6 1_555 1_555
O7_2 Dy1_6 1_555 1_555
O8_2 C6_2 1_555 1_555
C5_2 O6_3 1_555 1_555
H6_2 C5_2 1_555 1_555
C6_2 O7_2 1_555 1_555
O11_3 Dy1_6 1_555 1_555
O14_2 Dy1_6 1_555 1_555
O15_2 C12_2 1_555 1_555
C11_2 O11_3 1_555 1_555
H12_2 C11_2 1_555 1_555
C12_2 O14_2 1_555 1_555
Cd4_9 O8_2 1_555 1_555
Cd6_4 O15_2 1_555 1_555
C5_2 C6_2 1_555 1_555
C11_2 C12_2 1_555 1_555
Dy1_7 O1_3 1_555 1_555
O1_3 C1_2 1_555 1_555
C1_2 H1_2 1_555 1_555
H2_2 C1_2 1_555 1_555
C3_2 O1_3 1_555 1_555
H3_2 C3_2 1_555 1_555
H4_2 C3_2 1_555 1_555
O9_2 Dy1_7 1_555 1_555
O10_2 C8_2 1_555 1_555
C8_2 O9_2 1_555 1_555
O12_2 Dy1_7 1_555 1_555
O13_2 C10_2 1_555 1_555
C10_2 O12_2 1_555 1_555
Cd4_5 O10_2 1_555 1_555
Cd5_5 O13_2 1_555 1_555
O18_2 Cd2_2 1_555 1_555
O19_2 Cd2_2 1_555 1_555
O4_2 Dy1_8 1_555 1_555
O5_2 C4_2 1_555 1_555
C4_2 O4_2 1_555 1_555
O6_4 Dy1_8 1_555 1_555
C7_2 O6_4 1_555 1_555
H8_2 C7_2 1_555 1_555
Cd2_4 O5_2 1_555 1_555
O16_3 Cd2_3 1_555 1_555
O18_3 Cd2_3 1_555 1_555
O20_3 Cd2_3 1_555 1_555
Dy1_9 O1_4 1_555 1_555
Cd2_4 O3_3 1_555 1_555
O1_4 C1_3 1_555 1_555
O2_3 Dy1_9 1_555 1_555
O3_3 C2_3 1_555 1_555
C1_3 H1_3 1_555 1_555
H2_3 C1_3 1_555 1_555
C2_3 O2_3 1_555 1_555
O4_3 Dy1_9 1_555 1_555
O5_3 C4_3 1_555 1_555
C3_3 O1_4 1_555 1_555
H3_3 C3_3 1_555 1_555
H4_3 C3_3 1_555 1_555
C4_3 O4_3 1_555 1_555
O6_5 Dy1_9 1_555 1_555
O7_3 Dy1_9 1_555 1_555
O8_3 C6_3 1_555 1_555
C5_3 O6_5 1_555 1_555
H5_3 C5_3 1_555 1_555
H6_3 C5_3 1_555 1_555
C6_3 O7_3 1_555 1_555
O9_3 Dy1_9 1_555 1_555
O10_3 C8_3 1_555 1_555
C7_3 O6_5 1_555 1_555
H7_3 C7_3 1_555 1_555
H8_3 C7_3 1_555 1_555
C8_3 O9_3 1_555 1_555
O11_4 Dy1_9 1_555 1_555
O12_3 Dy1_9 1_555 1_555
O13_3 C10_3 1_555 1_555
C9_3 O11_4 1_555 1_555
H9_3 C9_3 1_555 1_555
H10_3 C9_3 1_555 1_555
C10_3 O12_3 1_555 1_555
O14_3 Dy1_9 1_555 1_555
O15_3 C12_3 1_555 1_555
C11_3 O11_4 1_555 1_555
H11_3 C11_3 1_555 1_555
H12_3 C11_3 1_555 1_555
C12_3 O14_3 1_555 1_555
Cd2_5 O5_3 1_555 1_555
Cd4_10 O10_3 1_555 1_555
Cd4_11 O8_3 1_555 1_555
Cd5_7 O13_3 1_555 1_555
Cd6_5 O15_3 1_555 1_555
O19_3 Cd2_4 1_555 1_555
C1_3 C2_3 1_555 1_555
C3_3 C4_3 1_555 1_555
C5_3 C6_3 1_555 1_555
C7_3 C8_3 1_555 1_555
C9_3 C10_3 1_555 1_555
C11_3 C12_3 1_555 1_555
Dy1_10 O1_5 1_555 1_555
O4_4 Dy1_10 1_555 1_555
O17 C4_4 1_555 1_555
C3_4 O1_5 1_555 1_555
H4_4 C3_4 1_555 1_555
C4_4 O4_4 1_555 1_555
O6_6 Dy1_10 1_555 1_555
C5_4 O6_6 1_555 1_555
H5_4 C5_4 1_555 1_555
H6_4 C5_4 1_555 1_555
O9_4 Dy1_10 1_555 1_555
O10_4 C8_4 1_555 1_555
C7_4 O6_6 1_555 1_555
H7_4 C7_4 1_555 1_555
H8_4 C7_4 1_555 1_555
C8_4 O9_4 1_555 1_555
O14_4 Dy1_10 1_555 1_555
O15_4 C12_4 1_555 1_555
C12_4 O14_4 1_555 1_555
Cd4_11 O10_4 1_555 1_555
Cd6_6 O15_4 1_555 1_555
O16_4 Cd2_5 1_555 1_555
O18_4 Cd2_5 1_555 1_555
C3_4 C4_4 1_555 1_555
C7_4 C8_4 1_555 1_555
Dy1_11 O1_6 1_555 1_555
Cd2_6 O3_4 1_555 1_555
O1_6 C1_4 1_555 1_555
O2_4 Dy1_11 1_555 1_555
O3_4 C2_4 1_555 1_555
H2_4 C1_4 1_555 1_555
C2_4 O2_4 1_555 1_555
O7_4 Dy1_11 1_555 1_555
O8_4 C6_4 1_555 1_555
C6_4 O7_4 1_555 1_555
O11_5 Dy1_11 1_555 1_555
O12_4 Dy1_11 1_555 1_555
O13_4 C10_4 1_555 1_555
C9_4 O11_5 1_555 1_555
H9_4 C9_4 1_555 1_555
H10_4 C9_4 1_555 1_555
C10_4 O12_4 1_555 1_555
C11_4 O11_5 1_555 1_555
H11_4 C11_4 1_555 1_555
H12_4 C11_4 1_555 1_555
Cd3_2 O8_4 1_555 1_555
Cd5_8 O13_4 1_555 1_555
O19_4 Cd2_6 1_555 1_555
O20_4 Cd2_6 1_555 1_555
C1_4 C2_4 1_555 1_555
C9_4 C10_4 1_555 1_555
O19_5 Cd4_9 1_555 1_555
O20_5 Cd4_9 1_555 1_555
O16_5 Cd4_10 1_555 1_555
O18_5 Cd4_10 1_555 1_555
O16_6 Cd4_11 1_555 1_555
O18_6 Cd4_11 1_555 1_555
O19_6 Cd4_11 1_555 1_555
O20_6 Cd4_11 1_555 1_555
O18_7 Cd3 1_555 1_555
O19_7 Cd3 1_555 1_555
O16_7 Cd3_2 1_555 1_555
O20_7 Cd3_2 1_555 1_555
O16_8 Cd4_2 1_555 1_555
O20_8 Cd4_4 1_555 1_555
O18_8 Cd4_6 1_555 1_555
O19_8 Cd4_7 1_555 1_555
Dy1_12 O1_7 1_555 1_555
O1_7 C1_5 1_555 1_555
H2_5 C1_5 1_555 1_555
O12_5 Dy1_12 1_555 1_555
O13_5 C10_5 1_555 1_555
C10_5 O12_5 1_555 1_555
Cd6_3 O13_5 1_555 1_555
O19_9 Cd1_5 1_555 1_555
Cd1_6 O3_5 1_555 1_555
O2_5 Dy1_13 1_555 1_555
O3_5 C2_5 1_555 1_555
C2_5 O2_5 1_555 1_555
O7_5 Dy1_13 1_555 1_555
O16_8 C6_5 1_555 1_555
C6_5 O7_5 1_555 1_555
O11_6 Dy1_13 1_555 1_555
C9_5 O11_6 1_555 1_555
H9_5 C9_5 1_555 1_555
H10_5 C9_5 1_555 1_555
C11_5 O11_6 1_555 1_555
H11_5 C11_5 1_555 1_555
H12_5 C11_5 1_555 1_555
O20_9 Cd1_6 1_555 1_555
Dy1_14 O1_8 1_555 1_555
O4_5 Dy1_14 1_555 1_555
O5_4 C4_5 1_555 1_555
C3_5 O1_8 1_555 1_555
H4_5 C3_5 1_555 1_555
C4_5 O4_5 1_555 1_555
O6_7 Dy1_14 1_555 1_555
O9_5 Dy1_14 1_555 1_555
O10_5 C8_5 1_555 1_555
C7_5 O6_7 1_555 1_555
H8_5 C7_5 1_555 1_555
C8_5 O9_5 1_555 1_555
Cd5_2 O5_4 1_555 1_555
Cd3_3 O10_5 1_555 1_555
O17_2 Cd1_7 1_555 1_555
O18_9 Cd1_7 1_555 1_555
C3_5 C4_5 1_555 1_555
C7_5 C8_5 1_555 1_555
O6_8 Dy1_15 1_555 1_555
C5_5 O6_8 1_555 1_555
H6_5 C5_5 1_555 1_555
O14_5 Dy1_15 1_555 1_555
O15_5 C12_5 1_555 1_555
C12_5 O14_5 1_555 1_555
Cd6_9 O15_5 1_555 1_555
O16_9 Cd1_8 1_555 1_555
Dy1_16 O1_9 1_555 1_555
O4_6 Dy1_16 1_555 1_555
O5_5 C4_6 1_555 1_555
C3_6 O1_9 1_555 1_555
H4_6 C3_6 1_555 1_555
C4_6 O4_6 1_555 1_555
O6_9 Dy1_16 1_555 1_555
C5_6 O6_9 1_555 1_555
H5_6 C5_6 1_555 1_555
H6_6 C5_6 1_555 1_555
O9_6 Dy1_16 1_555 1_555
O10_6 C8_6 1_555 1_555
C7_6 O6_9 1_555 1_555
H7_6 C7_6 1_555 1_555
H8_6 C7_6 1_555 1_555
C8_6 O9_6 1_555 1_555
O14_6 Dy1_16 1_555 1_555
O15_6 C12_6 1_555 1_555
C12_6 O14_6 1_555 1_555
Cd5_4 O5_5 1_555 1_555
Cd3_5 O10_6 1_555 1_555
Cd6_10 O15_6 1_555 1_555
O16_10 Cd1_9 1_555 1_555
O17_3 Cd1_9 1_555 1_555
O18_10 Cd1_9 1_555 1_555
C3_6 C4_6 1_555 1_555
C7_6 C8_6 1_555 1_555
Dy1_17 O1_10 1_555 1_555
Cd1_10 O3_6 1_555 1_555
O1_10 C1_6 1_555 1_555
O2_6 Dy1_17 1_555 1_555
O3_6 C2_6 1_555 1_555
H2_6 C1_6 1_555 1_555
C2_6 O2_6 1_555 1_555
O7_6 Dy1_17 1_555 1_555
O16_5 C6_6 1_555 1_555
C6_6 O7_6 1_555 1_555
O11_7 Dy1_17 1_555 1_555
O12_6 Dy1_17 1_555 1_555
O13_6 C10_6 1_555 1_555
C9_6 O11_7 1_555 1_555
H9_6 C9_6 1_555 1_555
H10_6 C9_6 1_555 1_555
C10_6 O12_6 1_555 1_555
C11_6 O11_7 1_555 1_555
H11_6 C11_6 1_555 1_555
H12_6 C11_6 1_555 1_555
Cd6_5 O13_6 1_555 1_555
O19_10 Cd1_10 1_555 1_555
O20_10 Cd1_10 1_555 1_555
C1_6 C2_6 1_555 1_555
C9_6 C10_6 1_555 1_555
Dy1_18 O1_11 1_555 1_555
Cd1_11 O3_7 1_555 1_555
O1_11 C1_7 1_555 1_555
O2_7 Dy1_18 1_555 1_555
O3_7 C2_7 1_555 1_555
C1_7 H1_7 1_555 1_555
H2_7 C1_7 1_555 1_555
C2_7 O2_7 1_555 1_555
O4_7 Dy1_18 1_555 1_555
O5_6 C4_7 1_555 1_555
C3_7 O1_11 1_555 1_555
H3_7 C3_7 1_555 1_555
H4_7 C3_7 1_555 1_555
C4_7 O4_7 1_555 1_555
O6_10 Dy1_18 1_555 1_555
O7_7 Dy1_18 1_555 1_555
O16_6 C6_7 1_555 1_555
C5_7 O6_10 1_555 1_555
H5_7 C5_7 1_555 1_555
H6_7 C5_7 1_555 1_555
C6_7 O7_7 1_555 1_555
O9_7 Dy1_18 1_555 1_555
O10_7 C8_7 1_555 1_555
C7_7 O6_10 1_555 1_555
H7_7 C7_7 1_555 1_555
H8_7 C7_7 1_555 1_555
C8_7 O9_7 1_555 1_555
O11_8 Dy1_18 1_555 1_555
O12_7 Dy1_18 1_555 1_555
O13_7 C10_7 1_555 1_555
C9_7 O11_8 1_555 1_555
H9_7 C9_7 1_555 1_555
H10_7 C9_7 1_555 1_555
C10_7 O12_7 1_555 1_555
O14_7 Dy1_18 1_555 1_555
O15_7 C12_7 1_555 1_555
C11_7 O11_8 1_555 1_555
H11_7 C11_7 1_555 1_555
H12_7 C11_7 1_555 1_555
C12_7 O14_7 1_555 1_555
Cd5_7 O5_6 1_555 1_555
Cd3_6 O10_7 1_555 1_555
Cd6_6 O13_7 1_555 1_555
Cd6_12 O15_7 1_555 1_555
O16_11 Cd1_11 1_555 1_555
O17_4 Cd1_11 1_555 1_555
O18_11 Cd1_11 1_555 1_555
O19_11 Cd1_11 1_555 1_555
O20_11 Cd1_11 1_555 1_555
C1_7 C2_7 1_555 1_555
C3_7 C4_7 1_555 1_555
C5_7 C6_7 1_555 1_555
C7_7 C8_7 1_555 1_555
C9_7 C10_7 1_555 1_555
C11_7 C12_7 1_555 1_555
Dy1_19 O1_12 1_555 1_555
Cd1_12 O3_8 1_555 1_555
O1_12 C1_8 1_555 1_555
O2_8 Dy1_19 1_555 1_555
O3_8 C2_8 1_555 1_555
C1_8 H1_8 1_555 1_555
H2_8 C1_8 1_555 1_555
C2_8 O2_8 1_555 1_555
O4_8 Dy1_19 1_555 1_555
O5_7 C4_8 1_555 1_555
C3_8 O1_12 1_555 1_555
H3_8 C3_8 1_555 1_555
H4_8 C3_8 1_555 1_555
C4_8 O4_8 1_555 1_555
O6_11 Dy1_19 1_555 1_555
O7_8 Dy1_19 1_555 1_555
O16_7 C6_8 1_555 1_555
C5_8 O6_11 1_555 1_555
H5_8 C5_8 1_555 1_555
H6_8 C5_8 1_555 1_555
C6_8 O7_8 1_555 1_555
O9_8 Dy1_19 1_555 1_555
O10_8 C8_8 1_555 1_555
C7_8 O6_11 1_555 1_555
H7_8 C7_8 1_555 1_555
H8_8 C7_8 1_555 1_555
C8_8 O9_8 1_555 1_555
O11_9 Dy1_19 1_555 1_555
O12_8 Dy1_19 1_555 1_555
O13_8 C10_8 1_555 1_555
C9_8 O11_9 1_555 1_555
H9_8 C9_8 1_555 1_555
H10_8 C9_8 1_555 1_555
C10_8 O12_8 1_555 1_555
O14_8 Dy1_19 1_555 1_555
O15_8 C12_8 1_555 1_555
C11_8 O11_9 1_555 1_555
H11_8 C11_8 1_555 1_555
H12_8 C11_8 1_555 1_555
C12_8 O14_8 1_555 1_555
Cd5_8 O5_7 1_555 1_555
Cd3_7 O10_8 1_555 1_555
Cd6_2 O13_8 1_555 1_555
Cd6_13 O15_8 1_555 1_555
O16_12 Cd1_12 1_555 1_555
O17_5 Cd1_12 1_555 1_555
O18_12 Cd1_12 1_555 1_555
O19_12 Cd1_12 1_555 1_555
O20_12 Cd1_12 1_555 1_555
C1_8 C2_8 1_555 1_555
C3_8 C4_8 1_555 1_555
C5_8 C6_8 1_555 1_555
C7_8 C8_8 1_555 1_555
C9_8 C10_8 1_555 1_555
C11_8 C12_8 1_555 1_555
Dy1_20 O1_13 1_555 1_555
Cd6_12 O3_9 1_555 1_555
O1_13 C1_9 1_555 1_555
O2_9 Dy1_20 1_555 1_555
O3_9 C2_9 1_555 1_555
C1_9 H1_9 1_555 1_555
H2_9 C1_9 1_555 1_555
C2_9 O2_9 1_555 1_555
O4_9 Dy1_20 1_555 1_555
O5_8 C4_9 1_555 1_555
C3_9 O1_13 1_555 1_555
H3_9 C3_9 1_555 1_555
H4_9 C3_9 1_555 1_555
C4_9 O4_9 1_555 1_555
O6_12 Dy1_20 1_555 1_555
O7_9 Dy1_20 1_555 1_555
O16_2 C6_9 1_555 1_555
C5_9 O6_12 1_555 1_555
H5_9 C5_9 1_555 1_555
H6_9 C5_9 1_555 1_555
C6_9 O7_9 1_555 1_555
O9_9 Dy1_20 1_555 1_555
O10_9 C8_9 1_555 1_555
C7_9 O6_12 1_555 1_555
H7_9 C7_9 1_555 1_555
H8_9 C7_9 1_555 1_555
C8_9 O9_9 1_555 1_555
O11_10 Dy1_20 1_555 1_555
O12_9 Dy1_20 1_555 1_555
O13_9 C10_9 1_555 1_555
C9_9 O11_10 1_555 1_555
H9_9 C9_9 1_555 1_555
H10_9 C9_9 1_555 1_555
C10_9 O12_9 1_555 1_555
O14_9 Dy1_20 1_555 1_555
O16_11 C12_9 1_555 1_555
C11_9 O11_10 1_555 1_555
H11_9 C11_9 1_555 1_555
H12_9 C11_9 1_555 1_555
C12_9 O14_9 1_555 1_555
Cd6_3 O5_8 1_555 1_555
Cd3_8 O10_9 1_555 1_555
Cd5 O13_9 1_555 1_555
O17_6 Cd6_12 1_555 1_555
O18_13 Cd6_12 1_555 1_555
O19_13 Cd6_12 1_555 1_555
O20_13 Cd6_12 1_555 1_555
C1_9 C2_9 1_555 1_555
C3_9 C4_9 1_555 1_555
C5_9 C6_9 1_555 1_555
C7_9 C8_9 1_555 1_555
C9_9 C10_9 1_555 1_555
C11_9 C12_9 1_555 1_555
Cd6_13 O3_10 1_555 1_555
O2_10 Dy1_21 1_555 1_555
O3_10 C2_10 1_555 1_555
C2_10 O2_10 1_555 1_555
O6_13 Dy1_21 1_555 1_555
O7_10 Dy1_21 1_555 1_555
O16_3 C6_10 1_555 1_555
C5_10 O6_13 1_555 1_555
H6_10 C5_10 1_555 1_555
C6_10 O7_10 1_555 1_555
O11_11 Dy1_21 1_555 1_555
C9_10 O11_11 1_555 1_555
H9_10 C9_10 1_555 1_555
H10_10 C9_10 1_555 1_555
O14_10 Dy1_21 1_555 1_555
O16_12 C12_10 1_555 1_555
C11_10 O11_11 1_555 1_555
H11_10 C11_10 1_555 1_555
H12_10 C11_10 1_555 1_555
C12_10 O14_10 1_555 1_555
O20_14 Cd6_13 1_555 1_555
C5_10 C6_10 1_555 1_555
C11_10 C12_10 1_555 1_555
Dy1_22 O1_14 1_555 1_555
O1_14 C1_10 1_555 1_555
C1_10 H1_10 1_555 1_555
H2_10 C1_10 1_555 1_555
O4_10 Dy1_22 1_555 1_555
O5_9 C4_10 1_555 1_555
C3_10 O1_14 1_555 1_555
H3_10 C3_10 1_555 1_555
H4_10 C3_10 1_555 1_555
C4_10 O4_10 1_555 1_555
O6_14 Dy1_22 1_555 1_555
O9_10 Dy1_22 1_555 1_555
O10_10 C8_10 1_555 1_555
C7_10 O6_14 1_555 1_555
H8_10 C7_10 1_555 1_555
C8_10 O9_10 1_555 1_555
O12_10 Dy1_22 1_555 1_555
O13_10 C10_10 1_555 1_555
C10_10 O12_10 1_555 1_555
Cd6_5 O5_9 1_555 1_555
Cd3_10 O10_10 1_555 1_555
Cd5_6 O13_10 1_555 1_555
O17_7 Cd6_14 1_555 1_555
O18_14 Cd6_14 1_555 1_555
O19_14 Cd6_14 1_555 1_555
C3_10 C4_10 1_555 1_555
C7_10 C8_10 1_555 1_555
Dy1_23 O1_15 1_555 1_555
Cd6_8 O3_11 1_555 1_555
O1_15 C1_11 1_555 1_555
O2_11 Dy1_23 1_555 1_555
O3_11 C2_11 1_555 1_555
H2_11 C1_11 1_555 1_555
C2_11 O2_11 1_555 1_555
O7_11 Dy1_23 1_555 1_555
O16_4 C6_11 1_555 1_555
C6_11 O7_11 1_555 1_555
O11_12 Dy1_23 1_555 1_555
O12_11 Dy1_23 1_555 1_555
O13_11 C10_11 1_555 1_555
C9_11 O11_12 1_555 1_555
H9_11 C9_11 1_555 1_555
H10_11 C9_11 1_555 1_555
C10_11 O12_11 1_555 1_555
C11_11 O11_12 1_555 1_555
H11_11 C11_11 1_555 1_555
H12_11 C11_11 1_555 1_555
Cd5_7 O13_11 1_555 1_555
O19_15 Cd6_8 1_555 1_555
O20_15 Cd6_8 1_555 1_555
C1_11 C2_11 1_555 1_555
C9_11 C10_11 1_555 1_555
Dy1_24 O1_16 1_555 1_555
O4_11 Dy1_24 1_555 1_555
O5_10 C4_11 1_555 1_555
C3_11 O1_16 1_555 1_555
H4_11 C3_11 1_555 1_555
C4_11 O4_11 1_555 1_555
O6_15 Dy1_24 1_555 1_555
C5_11 O6_15 1_555 1_555
H5_11 C5_11 1_555 1_555
H6_11 C5_11 1_555 1_555
O9_11 Dy1_24 1_555 1_555
O10_11 C8_11 1_555 1_555
C7_11 O6_15 1_555 1_555
H7_11 C7_11 1_555 1_555
H8_11 C7_11 1_555 1_555
C8_11 O9_11 1_555 1_555
O14_11 Dy1_24 1_555 1_555
O16_9 C12_11 1_555 1_555
C12_11 O14_11 1_555 1_555
Cd6_7 O5_10 1_555 1_555
Cd3_11 O10_11 1_555 1_555
O17_8 Cd6_9 1_555 1_555
O18_15 Cd6_9 1_555 1_555
C3_11 C4_11 1_555 1_555
C7_11 C8_11 1_555 1_555
Dy1_25 O1_17 1_555 1_555
O4_12 Dy1_25 1_555 1_555
O5_11 C4_12 1_555 1_555
C3_12 O1_17 1_555 1_555
H4_12 C3_12 1_555 1_555
C4_12 O4_12 1_555 1_555
O6_16 Dy1_25 1_555 1_555
C5_12 O6_16 1_555 1_555
H5_12 C5_12 1_555 1_555
H6_12 C5_12 1_555 1_555
O9_12 Dy1_25 1_555 1_555
O10_12 C8_12 1_555 1_555
C7_12 O6_16 1_555 1_555
H7_12 C7_12 1_555 1_555
H8_12 C7_12 1_555 1_555
C8_12 O9_12 1_555 1_555
O14_12 Dy1_25 1_555 1_555
O16_10 C12_12 1_555 1_555
C12_12 O14_12 1_555 1_555
Cd6 O5_11 1_555 1_555
Cd3_12 O10_12 1_555 1_555
O17_9 Cd6_10 1_555 1_555
O18_16 Cd6_10 1_555 1_555
C3_12 C4_12 1_555 1_555
C7_12 C8_12 1_555 1_555
Dy1_26 O1_18 1_555 1_555
Cd6_11 O3_12 1_555 1_555
O1_18 C1_12 1_555 1_555
O2_12 Dy1_26 1_555 1_555
O3_12 C2_12 1_555 1_555
H2_12 C1_12 1_555 1_555
C2_12 O2_12 1_555 1_555
O7_12 Dy1_26 1_555 1_555
O16 C6_12 1_555 1_555
C6_12 O7_12 1_555 1_555
O11_13 Dy1_26 1_555 1_555
O12_12 Dy1_26 1_555 1_555
O13_12 C10_12 1_555 1_555
C9_12 O11_13 1_555 1_555
H9_12 C9_12 1_555 1_555
H10_12 C9_12 1_555 1_555
C10_12 O12_12 1_555 1_555
C11_12 O11_13 1_555 1_555
H11_12 C11_12 1_555 1_555
H12_12 C11_12 1_555 1_555
Cd5_8 O13_12 1_555 1_555
O19_16 Cd6_11 1_555 1_555
O20_16 Cd6_11 1_555 1_555
C1_12 C2_12 1_555 1_555
C9_12 C10_12 1_555 1_555
O19_17 Cd5_3 1_555 1_555
O18_17 Cd5_4 1_555 1_555
O20_17 Cd5_5 1_555 1_555
O16_13 Cd3_7 1_555 1_555
O17_10 Cd3_7 1_555 1_555
O18_18 Cd3_7 1_555 1_555
O19_18 Cd3_7 1_555 1_555
O20_18 Cd3_7 1_555 1_555
Dy1_27 O1_19 1_555 1_555
O4_13 Dy1_27 1_555 1_555
O17_2 C4_13 1_555 1_555
C3_13 O1_19 1_555 1_555
H4_13 C3_13 1_555 1_555
C4_13 O4_13 1_555 1_555
O6_17 Dy1_27 1_555 1_555
C5_13 O6_17 1_555 1_555
H5_13 C5_13 1_555 1_555
H6_13 C5_13 1_555 1_555
O9_13 Dy1_27 1_555 1_555
O17_10 C8_13 1_555 1_555
C7_13 O6_17 1_555 1_555
H7_13 C7_13 1_555 1_555
H8_13 C7_13 1_555 1_555
C8_13 O9_13 1_555 1_555
O14_13 Dy1_27 1_555 1_555
O15_9 C12_13 1_555 1_555
C12_13 O14_13 1_555 1_555
Cd3_9 O15_9 1_555 1_555
C3_13 C4_13 1_555 1_555
C7_13 C8_13 1_555 1_555
Dy1_28 O1_20 1_555 1_555
O1_20 C1_13 1_555 1_555
O2_13 Dy1_28 1_555 1_555
O17_7 C2_13 1_555 1_555
H2_13 C1_13 1_555 1_555
C2_13 O2_13 1_555 1_555
O7_13 Dy1_28 1_555 1_555
O8_5 C6_13 1_555 1_555
C6_13 O7_13 1_555 1_555
O11_14 Dy1_28 1_555 1_555
O12_13 Dy1_28 1_555 1_555
O13_13 C10_13 1_555 1_555
C9_13 O11_14 1_555 1_555
H9_13 C9_13 1_555 1_555
H10_13 C9_13 1_555 1_555
C10_13 O12_13 1_555 1_555
C11_13 O11_14 1_555 1_555
H11_13 C11_13 1_555 1_555
H12_13 C11_13 1_555 1_555
Cd3_4 O8_5 1_555 1_555
Cd3_11 O13_13 1_555 1_555
C1_13 C2_13 1_555 1_555
C9_13 C10_13 1_555 1_555
O20_19 Cd5 1_555 1_555
O18_19 Cd5_2 1_555 1_555
O19_19 Cd5_2 1_555 1_555
O19_20 Cd3_3 1_555 1_555
O20_20 Cd3_3 1_555 1_555
O17_11 Cd3_4 1_555 1_555
O18_20 Cd3_4 1_555 1_555
Dy1_29 O1_21 1_555 1_555
O1_21 C1_14 1_555 1_555
O2_14 Dy1_29 1_555 1_555
O17_8 C2_14 1_555 1_555
C1_14 H1_14 1_555 1_555
H2_14 C1_14 1_555 1_555
C2_14 O2_14 1_555 1_555
O4_14 Dy1_29 1_555 1_555
O17_3 C4_14 1_555 1_555
C3_14 O1_21 1_555 1_555
H3_14 C3_14 1_555 1_555
H4_14 C3_14 1_555 1_555
C4_14 O4_14 1_555 1_555
O6_18 Dy1_29 1_555 1_555
O7_14 Dy1_29 1_555 1_555
O8_6 C6_14 1_555 1_555
C5_14 O6_18 1_555 1_555
H5_14 C5_14 1_555 1_555
H6_14 C5_14 1_555 1_555
C6_14 O7_14 1_555 1_555
O9_14 Dy1_29 1_555 1_555
O17_11 C8_14 1_555 1_555
C7_14 O6_18 1_555 1_555
H7_14 C7_14 1_555 1_555
H8_14 C7_14 1_555 1_555
C8_14 O9_14 1_555 1_555
O11_15 Dy1_29 1_555 1_555
O12_14 Dy1_29 1_555 1_555
O13_14 C10_14 1_555 1_555
C9_14 O11_15 1_555 1_555
H9_14 C9_14 1_555 1_555
H10_14 C9_14 1_555 1_555
C10_14 O12_14 1_555 1_555
O14_14 Dy1_29 1_555 1_555
O15_10 C12_14 1_555 1_555
C11_14 O11_15 1_555 1_555
H11_14 C11_14 1_555 1_555
H12_14 C11_14 1_555 1_555
C12_14 O14_14 1_555 1_555
Cd3_5 O8_6 1_555 1_555
Cd3_12 O13_14 1_555 1_555
Cd3_11 O15_10 1_555 1_555
C1_14 C2_14 1_555 1_555
C3_14 C4_14 1_555 1_555
C5_14 C6_14 1_555 1_555
C7_14 C8_14 1_555 1_555
C9_14 C10_14 1_555 1_555
C11_14 C12_14 1_555 1_555
O18_21 Cd5_8 1_555 1_555
O19_21 Cd5_8 1_555 1_555
O20_21 Cd5_8 1_555 1_555
O19_22 Cd6 1_555 1_555
O20_22 Cd6 1_555 1_555
O18_22 Cd6_2 1_555 1_555
O18_23 Cd6_5 1_555 1_555
O19_23 Cd6_5 1_555 1_555
O20_23 Cd6_5 1_555 1_555
Dy1_30 O1_22 1_555 1_555
Cd3_6 O3_13 1_555 1_555
O1_22 C1_15 1_555 1_555
O2_15 Dy1_30 1_555 1_555
O3_13 C2_15 1_555 1_555
C1_15 H1_15 1_555 1_555
H2_15 C1_15 1_555 1_555
C2_15 O2_15 1_555 1_555
O4_15 Dy1_30 1_555 1_555
O5_12 C4_15 1_555 1_555
C3_15 O1_22 1_555 1_555
H3_15 C3_15 1_555 1_555
H4_15 C3_15 1_555 1_555
C4_15 O4_15 1_555 1_555
O6_19 Dy1_30 1_555 1_555
O7_15 Dy1_30 1_555 1_555
O17_9 C6_15 1_555 1_555
C5_15 O6_19 1_555 1_555
H5_15 C5_15 1_555 1_555
H6_15 C5_15 1_555 1_555
C6_15 O7_15 1_555 1_555
O9_15 Dy1_30 1_555 1_555
O17_4 C8_15 1_555 1_555
C7_15 O6_19 1_555 1_555
H7_15 C7_15 1_555 1_555
H8_15 C7_15 1_555 1_555
C8_15 O9_15 1_555 1_555
O11_16 Dy1_30 1_555 1_555
O12_15 Dy1_30 1_555 1_555
O13_15 C10_15 1_555 1_555
C9_15 O11_16 1_555 1_555
H9_15 C9_15 1_555 1_555
H10_15 C9_15 1_555 1_555
C10_15 O12_15 1_555 1_555
O14_15 Dy1_30 1_555 1_555
O15_11 C12_15 1_555 1_555
C11_15 O11_16 1_555 1_555
H11_15 C11_15 1_555 1_555
H12_15 C11_15 1_555 1_555
C12_15 O14_15 1_555 1_555
Cd3_5 O5_12 1_555 1_555
Cd3_12 O13_15 1_555 1_555
Cd3_8 O15_11 1_555 1_555
O16_14 Cd3_6 1_555 1_555
O18_24 Cd3_6 1_555 1_555
O19_24 Cd3_6 1_555 1_555
O20_24 Cd3_6 1_555 1_555
C1_15 C2_15 1_555 1_555
C3_15 C4_15 1_555 1_555
C5_15 C6_15 1_555 1_555
C7_15 C8_15 1_555 1_555
C9_15 C10_15 1_555 1_555
C11_15 C12_15 1_555 1_555
O18_25 Cd3_11 1_555 1_555
O19_25 Cd3_11 1_555 1_555
O20_25 Cd3_11 1_555 1_555
Dy1_31 O1_23 1_555 1_555
Cd3_8 O3_14 1_555 1_555
O1_23 C1_16 1_555 1_555
O2_16 Dy1_31 1_555 1_555
O3_14 C2_16 1_555 1_555
C1_16 H1_16 1_555 1_555
H2_16 C1_16 1_555 1_555
C2_16 O2_16 1_555 1_555
O4_16 Dy1_31 1_555 1_555
O5_13 C4_16 1_555 1_555
C3_16 O1_23 1_555 1_555
H3_16 C3_16 1_555 1_555
H4_16 C3_16 1_555 1_555
C4_16 O4_16 1_555 1_555
O6_20 Dy1_31 1_555 1_555
O7_16 Dy1_31 1_555 1_555
O17_5 C6_16 1_555 1_555
C5_16 O6_20 1_555 1_555
H5_16 C5_16 1_555 1_555
H6_16 C5_16 1_555 1_555
C6_16 O7_16 1_555 1_555
O9_16 Dy1_31 1_555 1_555
O17_6 C8_16 1_555 1_555
C7_16 O6_20 1_555 1_555
H7_16 C7_16 1_555 1_555
H8_16 C7_16 1_555 1_555
C8_16 O9_16 1_555 1_555
O11_17 Dy1_31 1_555 1_555
O12_16 Dy1_31 1_555 1_555
O16_13 C10_16 1_555 1_555
C9_16 O11_17 1_555 1_555
H9_16 C9_16 1_555 1_555
H10_16 C9_16 1_555 1_555
C10_16 O12_16 1_555 1_555
O14_16 Dy1_31 1_555 1_555
O16_14 C12_16 1_555 1_555
C11_16 O11_17 1_555 1_555
H11_16 C11_16 1_555 1_555
H12_16 C11_16 1_555 1_555
C12_16 O14_16 1_555 1_555
Cd3_9 O5_13 1_555 1_555
O18_26 Cd3_8 1_555 1_555
O19_26 Cd3_8 1_555 1_555
O20_26 Cd3_8 1_555 1_555
C1_16 C2_16 1_555 1_555
C3_16 C4_16 1_555 1_555
C5_16 C6_16 1_555 1_555
C7_16 C8_16 1_555 1_555
C9_16 C10_16 1_555 1_555
C11_16 C12_16 1_555 1_555
O18_27 Cd5_7 1_555 1_555
O19_27 Cd5_7 1_555 1_555
O20_27 Cd5_7 1_555 1_555
O18_28 Cd3_5 1_555 1_555
O19_28 Cd3_5 1_555 1_555
O20_28 Cd3_5 1_555 1_555
O19_29 Cd6_3 1_555 1_555
O18_29 Cd6_4 1_555 1_555
O20_29 Cd6_4 1_555 1_555
O18_30 Cd6_6 1_555 1_555
O19_30 Cd6_7 1_555 1_555
O20_30 Cd6_7 1_555 1_555
O18_31 Cd3_12 1_555 1_555
O19_31 Cd3_12 1_555 1_555
O20_31 Cd3_12 1_555 1_555
O20_32 Cd3_9 1_555 1_555
O18_32 Cd3_10 1_555 1_555
O19_32 Cd3_10 1_555 1_555
O6_21 Dy1_32 1_555 1_555
C5_17 O6_21 1_555 1_555
H6_17 C5_17 1_555 1_555
O14_17 Dy1_32 1_555 1_555
O19_5 C12_17 1_555 1_555
C12_17 O14_17 1_555 1_555
Dy1_33 O1_24 1_555 1_555
O4_17 Dy1_33 1_555 1_555
O18_10 C4_17 1_555 1_555
C3_17 O1_24 1_555 1_555
H4_17 C3_17 1_555 1_555
C4_17 O4_17 1_555 1_555
O6_22 Dy1_33 1_555 1_555
O9_17 Dy1_33 1_555 1_555
O18_15 C8_17 1_555 1_555
C7_17 O6_22 1_555 1_555
H8_17 C7_17 1_555 1_555
C8_17 O9_17 1_555 1_555
C3_17 C4_17 1_555 1_555
C7_17 C8_17 1_555 1_555
O2_17 Dy1_34 1_555 1_555
O18 C2_17 1_555 1_555
C2_17 O2_17 1_555 1_555
O7_17 Dy1_34 1_555 1_555
O18_8 C6_17 1_555 1_555
C6_17 O7_17 1_555 1_555
O11_18 Dy1_34 1_555 1_555
C9_17 O11_18 1_555 1_555
H9_17 C9_17 1_555 1_555
H10_17 C9_17 1_555 1_555
C11_17 O11_18 1_555 1_555
H11_17 C11_17 1_555 1_555
H12_17 C11_17 1_555 1_555
Dy1_35 O1_25 1_555 1_555
O1_25 C1_17 1_555 1_555
H2_17 C1_17 1_555 1_555
O12_17 Dy1_35 1_555 1_555
O19_4 C10_17 1_555 1_555
C10_17 O12_17 1_555 1_555
O4_18 Dy1_36 1_555 1_555
O19_20 C4_18 1_555 1_555
C4_18 O4_18 1_555 1_555
O6_23 Dy1_36 1_555 1_555
C7_18 O6_23 1_555 1_555
H8_18 C7_18 1_555 1_555
Dy1_37 O1_26 1_555 1_555
O1_26 C1_18 1_555 1_555
C1_18 H1_18 1_555 1_555
H2_18 C1_18 1_555 1_555
C3_18 O1_26 1_555 1_555
H3_18 C3_18 1_555 1_555
H4_18 C3_18 1_555 1_555
O9_18 Dy1_37 1_555 1_555
O20_8 C8_18 1_555 1_555
C8_18 O9_18 1_555 1_555
O12_18 Dy1_37 1_555 1_555
O18_17 C10_18 1_555 1_555
C10_18 O12_18 1_555 1_555
O6_24 Dy1_38 1_555 1_555
O7_18 Dy1_38 1_555 1_555
O18_22 C6_18 1_555 1_555
C5_18 O6_24 1_555 1_555
H6_18 C5_18 1_555 1_555
C6_18 O7_18 1_555 1_555
O11_19 Dy1_38 1_555 1_555
O14_18 Dy1_38 1_555 1_555
O20_14 C12_18 1_555 1_555
C11_18 O11_19 1_555 1_555
H12_18 C11_18 1_555 1_555
C12_18 O14_18 1_555 1_555
C5_18 C6_18 1_555 1_555
C11_18 C12_18 1_555 1_555
O2_18 Dy1_39 1_555 1_555
O19_10 C2_18 1_555 1_555
C2_18 O2_18 1_555 1_555
O11_20 Dy1_39 1_555 1_555
C9_18 O11_20 1_555 1_555
H10_18 C9_18 1_555 1_555
Dy1_40 O1_27 1_555 1_555
O1_27 C1_19 1_555 1_555
O2_19 Dy1_40 1_555 1_555
O20_20 C2_19 1_555 1_555
C1_19 H1_19 1_555 1_555
H2_19 C1_19 1_555 1_555
C2_19 O2_19 1_555 1_555
O4_19 Dy1_40 1_555 1_555
O19_19 C4_19 1_555 1_555
C3_19 O1_27 1_555 1_555
H3_19 C3_19 1_555 1_555
H4_19 C3_19 1_555 1_555
C4_19 O4_19 1_555 1_555
O6_25 Dy1_40 1_555 1_555
O7_19 Dy1_40 1_555 1_555
O19_31 C6_19 1_555 1_555
C5_19 O6_25 1_555 1_555
H5_19 C5_19 1_555 1_555
H6_19 C5_19 1_555 1_555
C6_19 O7_19 1_555 1_555
O9_19 Dy1_40 1_555 1_555
O20_22 C8_19 1_555 1_555
C7_19 O6_25 1_555 1_555
H7_19 C7_19 1_555 1_555
H8_19 C7_19 1_555 1_555
C8_19 O9_19 1_555 1_555
O11_21 Dy1_40 1_555 1_555
O12_19 Dy1_40 1_555 1_555
O18_18 C10_19 1_555 1_555
C9_19 O11_21 1_555 1_555
H9_19 C9_19 1_555 1_555
H10_19 C9_19 1_555 1_555
C10_19 O12_19 1_555 1_555
O14_19 Dy1_40 1_555 1_555
O20_26 C12_19 1_555 1_555
C11_19 O11_21 1_555 1_555
H11_19 C11_19 1_555 1_555
H12_19 C11_19 1_555 1_555
C12_19 O14_19 1_555 1_555
C1_19 C2_19 1_555 1_555
C3_19 C4_19 1_555 1_555
C5_19 C6_19 1_555 1_555
C7_19 C8_19 1_555 1_555
C9_19 C10_19 1_555 1_555
C11_19 C12_19 1_555 1_555
Dy1_41 O1_28 1_555 1_555
O1_28 C1_20 1_555 1_555
O2_20 Dy1_41 1_555 1_555
O20_19 C2_20 1_555 1_555
H2_20 C1_20 1_555 1_555
C2_20 O2_20 1_555 1_555
O7_20 Dy1_41 1_555 1_555
O19_15 C6_20 1_555 1_555
C6_20 O7_20 1_555 1_555
O11_22 Dy1_41 1_555 1_555
O12_20 Dy1_41 1_555 1_555
O20_11 C10_20 1_555 1_555
C9_20 O11_22 1_555 1_555
H9_20 C9_20 1_555 1_555
H10_20 C9_20 1_555 1_555
C10_20 O12_20 1_555 1_555
C11_20 O11_22 1_555 1_555
H11_20 C11_20 1_555 1_555
H12_20 C11_20 1_555 1_555
C1_20 C2_20 1_555 1_555
C9_20 C10_20 1_555 1_555
Dy1_42 O1_29 1_555 1_555
O4_20 Dy1_42 1_555 1_555
O20 C4_20 1_555 1_555
C3_20 O1_29 1_555 1_555
H4_20 C3_20 1_555 1_555
C4_20 O4_20 1_555 1_555
O6_26 Dy1_42 1_555 1_555
C5_20 O6_26 1_555 1_555
H5_20 C5_20 1_555 1_555
H6_20 C5_20 1_555 1_555
O9_20 Dy1_42 1_555 1_555
O18_31 C8_20 1_555 1_555
C7_20 O6_26 1_555 1_555
H7_20 C7_20 1_555 1_555
H8_20 C7_20 1_555 1_555
C8_20 O9_20 1_555 1_555
O14_20 Dy1_42 1_555 1_555
O19_30 C12_20 1_555 1_555
C12_20 O14_20 1_555 1_555
C3_20 C4_20 1_555 1_555
C7_20 C8_20 1_555 1_555
O6_27 Dy1_43 1_555 1_555
C5_21 O6_27 1_555 1_555
H6_21 C5_21 1_555 1_555
O14_21 Dy1_43 1_555 1_555
O18_7 C12_21 1_555 1_555
C12_21 O14_21 1_555 1_555
Dy1_44 O1_30 1_555 1_555
O4_21 Dy1_44 1_555 1_555
O18_4 C4_21 1_555 1_555
C3_21 O1_30 1_555 1_555
H4_21 C3_21 1_555 1_555
C4_21 O4_21 1_555 1_555
O6_28 Dy1_44 1_555 1_555
O9_21 Dy1_44 1_555 1_555
O19_3 C8_21 1_555 1_555
C7_21 O6_28 1_555 1_555
H8_21 C7_21 1_555 1_555
C8_21 O9_21 1_555 1_555
C3_21 C4_21 1_555 1_555
C7_21 C8_21 1_555 1_555
O2_21 Dy1_45 1_555 1_555
O18_9 C2_21 1_555 1_555
C2_21 O2_21 1_555 1_555
O7_21 Dy1_45 1_555 1_555
O19_8 C6_21 1_555 1_555
C6_21 O7_21 1_555 1_555
O11_23 Dy1_45 1_555 1_555
C9_21 O11_23 1_555 1_555
H9_21 C9_21 1_555 1_555
H10_21 C9_21 1_555 1_555
C11_21 O11_23 1_555 1_555
H11_21 C11_21 1_555 1_555
H12_21 C11_21 1_555 1_555
Dy1_46 O1_31 1_555 1_555
O1_31 C1_21 1_555 1_555
H2_21 C1_21 1_555 1_555
O12_21 Dy1_46 1_555 1_555
O18_14 C10_21 1_555 1_555
C10_21 O12_21 1_555 1_555
Dy1_47 O1_32 1_555 1_555
O1_32 C1_22 1_555 1_555
O2_22 Dy1_47 1_555 1_555
O20_2 C2_22 1_555 1_555
H2_22 C1_22 1_555 1_555
C2_22 O2_22 1_555 1_555
O7_22 Dy1_47 1_555 1_555
O19_22 C6_22 1_555 1_555
C6_22 O7_22 1_555 1_555
O11_24 Dy1_47 1_555 1_555
O12_22 Dy1_47 1_555 1_555
O18_26 C10_22 1_555 1_555
C9_22 O11_24 1_555 1_555
H9_22 C9_22 1_555 1_555
H10_22 C9_22 1_555 1_555
C10_22 O12_22 1_555 1_555
C11_22 O11_24 1_555 1_555
H11_22 C11_22 1_555 1_555
H12_22 C11_22 1_555 1_555
C1_22 C2_22 1_555 1_555
C9_22 C10_22 1_555 1_555
Dy1_48 O1_33 1_555 1_555
O4_22 Dy1_48 1_555 1_555
O20_17 C4_22 1_555 1_555
C3_22 O1_33 1_555 1_555
H4_22 C3_22 1_555 1_555
C4_22 O4_22 1_555 1_555
O6_29 Dy1_48 1_555 1_555
C5_22 O6_29 1_555 1_555
H5_22 C5_22 1_555 1_555
H6_22 C5_22 1_555 1_555
O9_22 Dy1_48 1_555 1_555
O20_12 C8_22 1_555 1_555
C7_22 O6_29 1_555 1_555
H7_22 C7_22 1_555 1_555
H8_22 C7_22 1_555 1_555
C8_22 O9_22 1_555 1_555
O14_22 Dy1_48 1_555 1_555
O19_16 C12_22 1_555 1_555
C12_22 O14_22 1_555 1_555
C3_22 C4_22 1_555 1_555
C7_22 C8_22 1_555 1_555
Dy1_49 O1_34 1_555 1_555
O1_34 C1_23 1_555 1_555
O2_23 Dy1_49 1_555 1_555
O20_21 C2_23 1_555 1_555
C1_23 H1_23 1_555 1_555
H2_23 C1_23 1_555 1_555
C2_23 O2_23 1_555 1_555
O4_23 Dy1_49 1_555 1_555
O20_18 C4_23 1_555 1_555
C3_23 O1_34 1_555 1_555
H3_23 C3_23 1_555 1_555
H4_23 C3_23 1_555 1_555
C4_23 O4_23 1_555 1_555
O6_30 Dy1_49 1_555 1_555
O7_23 Dy1_49 1_555 1_555
O20_31 C6_23 1_555 1_555
C5_23 O6_30 1_555 1_555
H5_23 C5_23 1_555 1_555
H6_23 C5_23 1_555 1_555
C6_23 O7_23 1_555 1_555
O9_23 Dy1_49 1_555 1_555
O20_24 C8_23 1_555 1_555
C7_23 O6_30 1_555 1_555
H7_23 C7_23 1_555 1_555
H8_23 C7_23 1_555 1_555
C8_23 O9_23 1_555 1_555
O11_25 Dy1_49 1_555 1_555
O12_23 Dy1_49 1_555 1_555
O20_30 C10_23 1_555 1_555
C9_23 O11_25 1_555 1_555
H9_23 C9_23 1_555 1_555
H10_23 C9_23 1_555 1_555
C10_23 O12_23 1_555 1_555
O14_23 Dy1_49 1_555 1_555
O19_25 C12_23 1_555 1_555
C11_23 O11_25 1_555 1_555
H11_23 C11_23 1_555 1_555
H12_23 C11_23 1_555 1_555
C12_23 O14_23 1_555 1_555
C1_23 C2_23 1_555 1_555
C3_23 C4_23 1_555 1_555
C5_23 C6_23 1_555 1_555
C7_23 C8_23 1_555 1_555
C9_23 C10_23 1_555 1_555
C11_23 C12_23 1_555 1_555
Dy1_50 O1_35 1_555 1_555
O1_35 C1_24 1_555 1_555
O2_24 Dy1_50 1_555 1_555
O19_28 C2_24 1_555 1_555
C1_24 H1_24 1_555 1_555
H2_24 C1_24 1_555 1_555
C2_24 O2_24 1_555 1_555
O4_24 Dy1_50 1_555 1_555
O19_11 C4_24 1_555 1_555
C3_24 O1_35 1_555 1_555
H3_24 C3_24 1_555 1_555
H4_24 C3_24 1_555 1_555
C4_24 O4_24 1_555 1_555
O6_31 Dy1_50 1_555 1_555
O7_24 Dy1_50 1_555 1_555
O20_15 C6_24 1_555 1_555
C5_24 O6_31 1_555 1_555
H5_24 C5_24 1_555 1_555
H6_24 C5_24 1_555 1_555
C6_24 O7_24 1_555 1_555
O9_24 Dy1_50 1_555 1_555
O18_27 C8_24 1_555 1_555
C7_24 O6_31 1_555 1_555
H7_24 C7_24 1_555 1_555
H8_24 C7_24 1_555 1_555
C8_24 O9_24 1_555 1_555
O11_26 Dy1_50 1_555 1_555
O12_24 Dy1_50 1_555 1_555
O20_5 C10_24 1_555 1_555
C9_24 O11_26 1_555 1_555
H9_24 C9_24 1_555 1_555
H10_24 C9_24 1_555 1_555
C10_24 O12_24 1_555 1_555
O14_24 Dy1_50 1_555 1_555
O18_29 C12_24 1_555 1_555
C11_24 O11_26 1_555 1_555
H11_24 C11_24 1_555 1_555
H12_24 C11_24 1_555 1_555
C12_24 O14_24 1_555 1_555
C1_24 C2_24 1_555 1_555
C3_24 C4_24 1_555 1_555
C5_24 C6_24 1_555 1_555
C7_24 C8_24 1_555 1_555
C9_24 C10_24 1_555 1_555
C11_24 C12_24 1_555 1_555
Dy1_51 O1_36 1_555 1_555
O1_36 C1_25 1_555 1_555
O2_25 Dy1_51 1_555 1_555
O18_25 C2_25 1_555 1_555
C1_25 H1_25 1_555 1_555
H2_25 C1_25 1_555 1_555
C2_25 O2_25 1_555 1_555
O4_25 Dy1_51 1_555 1_555
O19_14 C4_25 1_555 1_555
C3_25 O1_36 1_555 1_555
H3_25 C3_25 1_555 1_555
H4_25 C3_25 1_555 1_555
C4_25 O4_25 1_555 1_555
O6_32 Dy1_51 1_555 1_555
O7_25 Dy1_51 1_555 1_555
O20_10 C6_25 1_555 1_555
C5_25 O6_32 1_555 1_555
H5_25 C5_25 1_555 1_555
H6_25 C5_25 1_555 1_555
C6_25 O7_25 1_555 1_555
O9_25 Dy1_51 1_555 1_555
O19_23 C8_25 1_555 1_555
C7_25 O6_32 1_555 1_555
H7_25 C7_25 1_555 1_555
H8_25 C7_25 1_555 1_555
C8_25 O9_25 1_555 1_555
O11_27 Dy1_51 1_555 1_555
O12_25 Dy1_51 1_555 1_555
O20_4 C10_25 1_555 1_555
C9_25 O11_27 1_555 1_555
H9_25 C9_25 1_555 1_555
H10_25 C9_25 1_555 1_555
C10_25 O12_25 1_555 1_555
O14_25 Dy1_51 1_555 1_555
O18_21 C12_25 1_555 1_555
C11_25 O11_27 1_555 1_555
H11_25 C11_25 1_555 1_555
H12_25 C11_25 1_555 1_555
C12_25 O14_25 1_555 1_555
C1_25 C2_25 1_555 1_555
C3_25 C4_25 1_555 1_555
C5_25 C6_25 1_555 1_555
C7_25 C8_25 1_555 1_555
C9_25 C10_25 1_555 1_555
C11_25 C12_25 1_555 1_555
Dy1_52 O1_37 1_555 1_555
O1_37 C1_26 1_555 1_555
C1_26 H1_26 1_555 1_555
H2_26 C1_26 1_555 1_555
O4_26 Dy1_52 1_555 1_555
O19_26 C4_26 1_555 1_555
C3_26 O1_37 1_555 1_555
H3_26 C3_26 1_555 1_555
H4_26 C3_26 1_555 1_555
C4_26 O4_26 1_555 1_555
O6_33 Dy1_52 1_555 1_555
O9_26 Dy1_52 1_555 1_555
O20_32 C8_26 1_555 1_555
C7_26 O6_33 1_555 1_555
H8_26 C7_26 1_555 1_555
C8_26 O9_26 1_555 1_555
O12_26 Dy1_52 1_555 1_555
O19_17 C10_26 1_555 1_555
C10_26 O12_26 1_555 1_555
C3_26 C4_26 1_555 1_555
C7_26 C8_26 1_555 1_555
O2_26 Dy1_53 1_555 1_555
O20_29 C2_26 1_555 1_555
C2_26 O2_26 1_555 1_555
O6_34 Dy1_53 1_555 1_555
O7_26 Dy1_53 1_555 1_555
O18_20 C6_26 1_555 1_555
C5_26 O6_34 1_555 1_555
H6_26 C5_26 1_555 1_555
C6_26 O7_26 1_555 1_555
O11_28 Dy1_53 1_555 1_555
C9_26 O11_28 1_555 1_555
H9_26 C9_26 1_555 1_555
H10_26 C9_26 1_555 1_555
O14_26 Dy1_53 1_555 1_555
O20_28 C12_26 1_555 1_555
C11_26 O11_28 1_555 1_555
H11_26 C11_26 1_555 1_555
H12_26 C11_26 1_555 1_555
C12_26 O14_26 1_555 1_555
C5_26 C6_26 1_555 1_555
C11_26 C12_26 1_555 1_555
Dy1_54 O1_38 1_555 1_555
O4_27 Dy1_54 1_555 1_555
O18_30 C4_27 1_555 1_555
C3_27 O1_38 1_555 1_555
H4_27 C3_27 1_555 1_555
C4_27 O4_27 1_555 1_555
O6_35 Dy1_54 1_555 1_555
C5_27 O6_35 1_555 1_555
H5_27 C5_27 1_555 1_555
H6_27 C5_27 1_555 1_555
O9_27 Dy1_54 1_555 1_555
O20_13 C8_27 1_555 1_555
C7_27 O6_35 1_555 1_555
H7_27 C7_27 1_555 1_555
H8_27 C7_27 1_555 1_555
C8_27 O9_27 1_555 1_555
O14_27 Dy1_54 1_555 1_555
O19_9 C12_27 1_555 1_555
C12_27 O14_27 1_555 1_555
C3_27 C4_27 1_555 1_555
C7_27 C8_27 1_555 1_555
Dy1_55 O1_39 1_555 1_555
O1_39 C1_27 1_555 1_555
O2_27 Dy1_55 1_555 1_555
O20_7 C2_27 1_555 1_555
H2_27 C1_27 1_555 1_555
C2_27 O2_27 1_555 1_555
O7_27 Dy1_55 1_555 1_555
O18_19 C6_27 1_555 1_555
C6_27 O7_27 1_555 1_555
O11_29 Dy1_55 1_555 1_555
O12_27 Dy1_55 1_555 1_555
O19_18 C10_27 1_555 1_555
C9_27 O11_29 1_555 1_555
H9_27 C9_27 1_555 1_555
H10_27 C9_27 1_555 1_555
C10_27 O12_27 1_555 1_555
C11_27 O11_29 1_555 1_555
H11_27 C11_27 1_555 1_555
H12_27 C11_27 1_555 1_555
C1_27 C2_27 1_555 1_555
C9_27 C10_27 1_555 1_555
Dy1_56 O1_40 1_555 1_555
O1_40 C1_28 1_555 1_555
O2_28 Dy1_56 1_555 1_555
O18_16 C2_28 1_555 1_555
H2_28 C1_28 1_555 1_555
C2_28 O2_28 1_555 1_555
O7_28 Dy1_56 1_555 1_555
O19 C6_28 1_555 1_555
C6_28 O7_28 1_555 1_555
O11_30 Dy1_56 1_555 1_555
O12_28 Dy1_56 1_555 1_555
O18_11 C10_28 1_555 1_555
C9_28 O11_30 1_555 1_555
H9_28 C9_28 1_555 1_555
H10_28 C9_28 1_555 1_555
C10_28 O12_28 1_555 1_555
C11_28 O11_30 1_555 1_555
H11_28 C11_28 1_555 1_555
H12_28 C11_28 1_555 1_555
C1_28 C2_28 1_555 1_555
C9_28 C10_28 1_555 1_555
Dy1_57 O1_41 1_555 1_555
O4_28 Dy1_57 1_555 1_555
O18_5 C4_28 1_555 1_555
C3_28 O1_41 1_555 1_555
H4_28 C3_28 1_555 1_555
C4_28 O4_28 1_555 1_555
O6_36 Dy1_57 1_555 1_555
C5_28 O6_36 1_555 1_555
H5_28 C5_28 1_555 1_555
H6_28 C5_28 1_555 1_555
O9_28 Dy1_57 1_555 1_555
O19_6 C8_28 1_555 1_555
C7_28 O6_36 1_555 1_555
H7_28 C7_28 1_555 1_555
H8_28 C7_28 1_555 1_555
C8_28 O9_28 1_555 1_555
O14_28 Dy1_57 1_555 1_555
O18_2 C12_28 1_555 1_555
C12_28 O14_28 1_555 1_555
C3_28 C4_28 1_555 1_555
C7_28 C8_28 1_555 1_555
Dy1_58 O1_42 1_555 1_555
O1_42 C1_29 1_555 1_555
O2_29 Dy1_58 1_555 1_555
O19_29 C2_29 1_555 1_555
H2_29 C1_29 1_555 1_555
C2_29 O2_29 1_555 1_555
O7_29 Dy1_58 1_555 1_555
O20_3 C6_29 1_555 1_555
C6_29 O7_29 1_555 1_555
O11_31 Dy1_58 1_555 1_555
O12_29 Dy1_58 1_555 1_555
O19_13 C10_29 1_555 1_555
C9_29 O11_31 1_555 1_555
H9_29 C9_29 1_555 1_555
H10_29 C9_29 1_555 1_555
C10_29 O12_29 1_555 1_555
C11_29 O11_31 1_555 1_555
H11_29 C11_29 1_555 1_555
H12_29 C11_29 1_555 1_555
C1_29 C2_29 1_555 1_555
C9_29 C10_29 1_555 1_555
Dy1_59 O1_43 1_555 1_555
O4_29 Dy1_59 1_555 1_555
O20_9 C4_29 1_555 1_555
C3_29 O1_43 1_555 1_555
H4_29 C3_29 1_555 1_555
C4_29 O4_29 1_555 1_555
O6_37 Dy1_59 1_555 1_555
C5_29 O6_37 1_555 1_555
H5_29 C5_29 1_555 1_555
H6_29 C5_29 1_555 1_555
O9_29 Dy1_59 1_555 1_555
O20_27 C8_29 1_555 1_555
C7_29 O6_37 1_555 1_555
H7_29 C7_29 1_555 1_555
H8_29 C7_29 1_555 1_555
C8_29 O9_29 1_555 1_555
O14_29 Dy1_59 1_555 1_555
O18_32 C12_29 1_555 1_555
C12_29 O14_29 1_555 1_555
C3_29 C4_29 1_555 1_555
C7_29 C8_29 1_555 1_555
Dy1_60 O1_44 1_555 1_555
O1_44 C1_30 1_555 1_555
O2_30 Dy1_60 1_555 1_555
O19_7 C2_30 1_555 1_555
C1_30 H1_30 1_555 1_555
H2_30 C1_30 1_555 1_555
C2_30 O2_30 1_555 1_555
O4_30 Dy1_60 1_555 1_555
O19_2 C4_30 1_555 1_555
C3_30 O1_44 1_555 1_555
H3_30 C3_30 1_555 1_555
H4_30 C3_30 1_555 1_555
C4_30 O4_30 1_555 1_555
O6_38 Dy1_60 1_555 1_555
O7_30 Dy1_60 1_555 1_555
O18_12 C6_30 1_555 1_555
C5_30 O6_38 1_555 1_555
H5_30 C5_30 1_555 1_555
H6_30 C5_30 1_555 1_555
C6_30 O7_30 1_555 1_555
O9_30 Dy1_60 1_555 1_555
O18_3 C8_30 1_555 1_555
C7_30 O6_38 1_555 1_555
H7_30 C7_30 1_555 1_555
H8_30 C7_30 1_555 1_555
C8_30 O9_30 1_555 1_555
O11_32 Dy1_60 1_555 1_555
O12_30 Dy1_60 1_555 1_555
O18_6 C10_30 1_555 1_555
C9_30 O11_32 1_555 1_555
H9_30 C9_30 1_555 1_555
H10_30 C9_30 1_555 1_555
C10_30 O12_30 1_555 1_555
O14_30 Dy1_60 1_555 1_555
O18_13 C12_30 1_555 1_555
C11_30 O11_32 1_555 1_555
H11_30 C11_30 1_555 1_555
H12_30 C11_30 1_555 1_555
C12_30 O14_30 1_555 1_555
C1_30 C2_30 1_555 1_555
C3_30 C4_30 1_555 1_555
C5_30 C6_30 1_555 1_555
C7_30 C8_30 1_555 1_555
C9_30 C10_30 1_555 1_555
C11_30 C12_30 1_555 1_555
Dy1_61 O1_45 1_555 1_555
O1_45 C1_31 1_555 1_555
O2_31 Dy1_61 1_555 1_555
O18_24 C2_31 1_555 1_555
C1_31 H1_31 1_555 1_555
H2_31 C1_31 1_555 1_555
C2_31 O2_31 1_555 1_555
O4_31 Dy1_61 1_555 1_555
O19_12 C4_31 1_555 1_555
C3_31 O1_45 1_555 1_555
H3_31 C3_31 1_555 1_555
H4_31 C3_31 1_555 1_555
C4_31 O4_31 1_555 1_555
O6_39 Dy1_61 1_555 1_555
O7_31 Dy1_61 1_555 1_555
O20_16 C6_31 1_555 1_555
C5_31 O6_39 1_555 1_555
H5_31 C5_31 1_555 1_555
H6_31 C5_31 1_555 1_555
C6_31 O7_31 1_555 1_555
O9_31 Dy1_61 1_555 1_555
O19_21 C8_31 1_555 1_555
C7_31 O6_39 1_555 1_555
H7_31 C7_31 1_555 1_555
H8_31 C7_31 1_555 1_555
C8_31 O9_31 1_555 1_555
O11_33 Dy1_61 1_555 1_555
O12_31 Dy1_61 1_555 1_555
O20_6 C10_31 1_555 1_555
C9_31 O11_33 1_555 1_555
H9_31 C9_31 1_555 1_555
H10_31 C9_31 1_555 1_555
C10_31 O12_31 1_555 1_555
O14_31 Dy1_61 1_555 1_555
O18_23 C12_31 1_555 1_555
C11_31 O11_33 1_555 1_555
H11_31 C11_31 1_555 1_555
H12_31 C11_31 1_555 1_555
C12_31 O14_31 1_555 1_555
C1_31 C2_31 1_555 1_555
C3_31 C4_31 1_555 1_555
C5_31 C6_31 1_555 1_555
C7_31 C8_31 1_555 1_555
C9_31 C10_31 1_555 1_555
C11_31 C12_31 1_555 1_555
Dy1_62 O1_46 1_555 1_555
O1_46 C1_32 1_555 1_555
O2_32 Dy1_62 1_555 1_555
O20_23 C2_32 1_555 1_555
C1_32 H1_32 1_555 1_555
H2_32 C1_32 1_555 1_555
C2_32 O2_32 1_555 1_555
O4_32 Dy1_62 1_555 1_555
O19_32 C4_32 1_555 1_555
C3_32 O1_46 1_555 1_555
H3_32 C3_32 1_555 1_555
H4_32 C3_32 1_555 1_555
C4_32 O4_32 1_555 1_555
O6_40 Dy1_62 1_555 1_555
O7_32 Dy1_62 1_555 1_555
O18_28 C6_32 1_555 1_555
C5_32 O6_40 1_555 1_555
H5_32 C5_32 1_555 1_555
H6_32 C5_32 1_555 1_555
C6_32 O7_32 1_555 1_555
O9_32 Dy1_62 1_555 1_555
O20_25 C8_32 1_555 1_555
C7_32 O6_40 1_555 1_555
H7_32 C7_32 1_555 1_555
H8_32 C7_32 1_555 1_555
C8_32 O9_32 1_555 1_555
O11_34 Dy1_62 1_555 1_555
O12_32 Dy1_62 1_555 1_555
O19_27 C10_32 1_555 1_555
C9_32 O11_34 1_555 1_555
H9_32 C9_32 1_555 1_555
H10_32 C9_32 1_555 1_555
C10_32 O12_32 1_555 1_555
O14_32 Dy1_62 1_555 1_555
O19_24 C12_32 1_555 1_555
C11_32 O11_34 1_555 1_555
H11_32 C11_32 1_555 1_555
H12_32 C11_32 1_555 1_555
C12_32 O14_32 1_555 1_555
C1_32 C2_32 1_555 1_555
C3_32 C4_32 1_555 1_555
C5_32 C6_32 1_555 1_555
C7_32 C8_32 1_555 1_555
C9_32 C10_32 1_555 1_555
C11_32 C12_32 1_555 1_555

#END
