
###############################################################################
#
# This file contains modified crystal structure data generated from the
# MOF subset of the Cambridge Structural Database (CSD) v543 
# hosted by the Cambridge Crystallographic Data Centre (CCDC).
#
# This work is licensed under the Creative Commons
# Attribution-NonCommercial-ShareAlike 4.0 International License.
# To view a copy of this license, visit
# http://creativecommons.org/licenses/by-nc-sa/4.0/
# or send a letter to
# Creative Commons, PO Box 1866, Mountain View, CA 94042, USA.
#
# CIF created using the CSD Python API on 29 September 2022
# The structure has been converted into the P1 space group
# The structure has a 3D framework
# The original CSD entry KOMJIH is in the cubic crystal system
# The framework has been calculated to contain at least 10.0% void space
# The void calculation uses a probe of radius 1.32A, grid spacing 0.4
#
###############################################################################

data_KOMJIH
_chemical_formula_moiety         '(C384 H384 Cd12 Ho62 O504)n'
_symmetry_cell_setting           triclinic
_symmetry_space_group_name_H-M   'P 1'
_symmetry_Int_Tables_number      1
_space_group_name_Hall           'P 1'
loop_
_symmetry_equiv_pos_site_id
_symmetry_equiv_pos_as_xyz
1 x,y,z
_cell_length_a                   26.179(3)
_cell_length_b                   26.179(3)
_cell_length_c                   26.179(3)
_cell_angle_alpha                90
_cell_angle_beta                 90
_cell_angle_gamma                90
_cell_volume                     17941.5
loop_
_atom_site_label
_atom_site_type_symbol
_atom_site_fract_x
_atom_site_fract_y
_atom_site_fract_z
Ho1 Ho 0.0000 0.2500 0.0000
Cd1 Cd 0.0000 0.5000 0.0000
O3 O -0.0000 0.3156(3) 0.0656(3)
C2 C 0.0031(6) 0.3674(5) 0.0546(6)
H1 H 0.0321 0.3824 0.0720
H4 H 0.0276 0.3162 0.1347
O6 O 0.1675(4) 0.2642(4) 0.0222(4)
O7 O 0.0843(3) 0.2589(4) 0.0300(3)
C5 C 0.1236(4) 0.2587(5) 0.0012(5)
Cd2 Cd 0.2500 0.2500 0.0000
Cd3 Cd 0.0000 0.2500 0.2500
Cd6 Cd 0.0000 0.0000 0.0000
O19 O 0.0222(4) 0.4858(4) 0.0825(4)
Ho1_2 Ho 0.0000 0.2500 1.0000
Cd1_2 Cd 0.0000 0.5000 1.0000
O1 O 0.0142(4) 0.4175(4) 0.9778(4)
O2 O 0.0089(4) 0.3343(3) 0.9700(3)
C1 C 0.0087(5) 0.3736(4) 0.9988(5)
O8 O 0.0656(3) 0.2500 0.9344(3)
C6 C 0.1174(5) 0.2531(6) 0.9454(6)
H5 H 0.1324 0.2821 0.9280
H6 H 0.1347 0.2224 0.9338
C8 C 0.0546(6) 0.2469(6) 0.8826(5)
H7 H 0.0720 0.2179 0.8676
H8 H 0.0662 0.2776 0.8653
O14 O 0.0222(4) 0.0825(4) 0.9858(4)
O15 O 0.0300(3) 0.1657(3) 0.9911(4)
C11 C 0.0012(5) 0.1264(4) 0.9913(5)
Cd2_2 Cd 0.2500 0.2500 1.0000
Cd5 Cd -0.0000 0.2500 0.7500
Cd6_2 Cd 0.0000 0.0000 1.0000
O20 O 0.0825(4) 0.5222(4) 0.9858(4)
Cd6_3 Cd 0.0000 1.0000 0.0000
Cd6_4 Cd 0.0000 1.0000 1.0000
Ho1_3 Ho 1.0000 0.2500 0.0000
Cd1_3 Cd 1.0000 0.5000 0.0000
O3_2 O 1.0000 0.3156(3) 0.0656(3)
H2 H 0.9724 0.3847 0.0662
O4 O 0.9858(4) 0.2278(4) 0.1675(4)
O5 O 0.9911(4) 0.2200(3) 0.0843(3)
C3 C 0.9913(5) 0.2488(5) 0.1236(4)
C4 C 0.9969(6) 0.3046(6) 0.1174(5)
H3 H 0.9679 0.3220 0.1324
O11 O 0.8325(4) 0.2722(4) 0.0142(4)
O12 O 0.9157(3) 0.2800(3) 0.0089(4)
O13 O 0.9344(3) 0.1844(3) 0.0000
C9 C 0.8764(4) 0.2512(5) 0.0087(5)
C10 C 0.8826(5) 0.1954(6) 0.0031(6)
H9 H 0.8676 0.1780 0.0321
H12 H 0.9338 0.1153 0.0276
Cd3_2 Cd 1.0000 0.2500 0.2500
Cd4 Cd 0.7500 0.2500 0.0000
Cd6_5 Cd 1.0000 0.0000 0.0000
O17 O 0.9175(4) 0.4778(4) 0.0142(4)
O18 O 0.9858(4) 0.5825(4) 0.0222(4)
Ho1_4 Ho 1.0000 0.2500 1.0000
Cd1_4 Cd 1.0000 0.5000 1.0000
O9 O 0.9778(4) 0.2358(4) 0.8325(4)
O10 O 0.9700(3) 0.2411(4) 0.9157(3)
C7 C 0.9988(5) 0.2413(5) 0.8764(4)
O13_2 O 0.9344(3) 0.1844(3) 1.0000
H10 H 0.8653 0.1838 0.9724
C12 C 0.9454(6) 0.1326(5) 0.9969(6)
H11 H 0.9280 0.1176 0.9679
Cd4_2 Cd 0.7500 0.2500 1.0000
Cd5_2 Cd 1.0000 0.2500 0.7500
Cd6_6 Cd 1.0000 0.0000 1.0000
O16 O 0.9778(4) 0.5142(4) 0.9175(4)
Cd6_7 Cd 1.0000 1.0000 0.0000
Cd6_8 Cd 1.0000 1.0000 1.0000
Ho1_5 Ho 0.7500 0.2500 0.7500
Cd1_5 Cd 0.5000 0.2500 0.7500
O1_2 O 0.5825(4) 0.2642(4) 0.7278(4)
O2_2 O 0.6657(3) 0.2589(4) 0.7200(3)
O3_3 O 0.6844(3) 0.2500 0.8156(3)
C1_2 C 0.6264(4) 0.2587(5) 0.7488(5)
C2_2 C 0.6326(5) 0.2531(6) 0.8046(6)
H1_2 H 0.6176 0.2821 0.8220
H2_2 H 0.6153 0.2224 0.8162
O4_2 O 0.7722(4) 0.2358(4) 0.9175(4)
O5_2 O 0.7800(3) 0.2411(4) 0.8343(3)
C3_2 C 0.7512(5) 0.2413(5) 0.8736(4)
C4_2 C 0.6954(6) 0.2469(6) 0.8674(5)
H3_2 H 0.6780 0.2179 0.8824
H4_2 H 0.6838 0.2776 0.8847
O6_2 O 0.7358(4) 0.4175(4) 0.7722(4)
O7_2 O 0.7411(4) 0.3343(3) 0.7800(3)
O8_2 O 0.7500 0.3156(3) 0.6844(3)
C5_2 C 0.7413(5) 0.3736(4) 0.7512(5)
C6_2 C 0.7469(6) 0.3674(5) 0.6954(6)
H5_2 H 0.7179 0.3824 0.6780
H6_2 H 0.7776 0.3847 0.6838
O9_2 O 0.7642(4) 0.2278(4) 0.5825(4)
O10_2 O 0.7589(4) 0.2200(3) 0.6657(3)
C7_2 C 0.7587(5) 0.2488(5) 0.6264(4)
C8_2 C 0.7531(6) 0.3046(6) 0.6326(5)
H7_2 H 0.7821 0.3220 0.6176
H8_2 H 0.7224 0.3162 0.6153
O11_2 O 0.7278(4) 0.0825(4) 0.7642(4)
O12_2 O 0.7200(3) 0.1657(3) 0.7589(4)
O13_3 O 0.8156(3) 0.1844(3) 0.7500
C9_2 C 0.7488(5) 0.1264(4) 0.7587(5)
C10_2 C 0.8046(6) 0.1326(5) 0.7531(6)
H9_2 H 0.8220 0.1176 0.7821
H10_2 H 0.8162 0.1153 0.7224
O14_2 O 0.9175(4) 0.2722(4) 0.7358(4)
O15_2 O 0.8343(3) 0.2800(3) 0.7411(4)
C11_2 C 0.8736(4) 0.2512(5) 0.7413(5)
C12_2 C 0.8674(5) 0.1954(6) 0.7469(6)
H11_2 H 0.8824 0.1780 0.7179
H12_2 H 0.8847 0.1838 0.7776
Cd2_3 Cd 0.7500 0.5000 0.7500
Cd4_3 Cd 0.7500 0.0000 0.7500
Cd5_3 Cd 0.7500 0.2500 0.5000
O16_2 O 0.4858(4) 0.2278(4) 0.6675(4)
O17_2 O 0.5222(4) 0.1675(4) 0.7642(4)
O18_2 O 0.4175(4) 0.2358(4) 0.7722(4)
O19_2 O 0.5142(4) 0.2722(4) 0.8325(4)
O20_2 O 0.4778(4) 0.3325(4) 0.7358(4)
Cd4_4 Cd 0.7500 1.0000 0.7500
Cd4_5 Cd 0.0000 0.0000 0.5000
Cd4_6 Cd 0.0000 1.0000 0.5000
Ho1_6 Ho 0.7500 0.0000 0.5000
O4_3 O 0.7642(4) 0.0222(4) 0.6675(4)
O5_3 O 0.7589(4) 0.0300(3) 0.5843(3)
C3_3 C 0.7587(5) 0.0012(5) 0.6236(4)
O8_3 O 0.6844(3) 0.0000 0.4344(3)
H6_3 H 0.6153 0.0276 0.4338
O9_3 O 0.7722(4) 0.0142(4) 0.3325(4)
O10_3 O 0.7800(3) 0.0089(4) 0.4157(3)
C7_3 C 0.7512(5) 0.0087(5) 0.3764(4)
C8_3 C 0.6954(6) 0.0031(6) 0.3826(5)
H7_3 H 0.6780 0.0321 0.3676
O13_4 O 0.8156(3) 0.0656(3) 0.5000
C10_3 C 0.8674(5) 0.0546(6) 0.5031(6)
H9_3 H 0.8824 0.0720 0.5321
H10_3 H 0.8847 0.0662 0.4724
O14_3 O 0.7278(4) 0.1675(4) 0.4858(4)
O15_3 O 0.7200(3) 0.0843(3) 0.4911(4)
C11_3 C 0.7488(5) 0.1236(4) 0.4913(5)
C12_3 C 0.8046(6) 0.1174(5) 0.4969(6)
H11_3 H 0.8220 0.1324 0.4679
H12_3 H 0.8162 0.1347 0.5276
Cd2_4 Cd 0.5000 0.0000 0.5000
Cd4_7 Cd 1.0000 0.0000 0.5000
Cd5_4 Cd 0.7500 0.0000 0.2500
Ho1_7 Ho 0.7500 1.0000 0.5000
Cd1_6 Cd 0.7500 0.7500 0.5000
O1_3 O 0.7358(4) 0.8325(4) 0.4778(4)
O2_3 O 0.7411(4) 0.9157(3) 0.4700(3)
O3_4 O 0.7500 0.9344(3) 0.5656(3)
C1_3 C 0.7413(5) 0.8764(4) 0.4988(5)
C2_3 C 0.7469(6) 0.8826(5) 0.5546(6)
H1_3 H 0.7179 0.8676 0.5720
H2_3 H 0.7776 0.8653 0.5662
C4_3 C 0.7531(6) 0.9454(6) 0.6174(5)
H3_3 H 0.7821 0.9280 0.6324
H4_3 H 0.7224 0.9338 0.6347
O6_3 O 0.5825(4) 0.9858(4) 0.5222(4)
O7_3 O 0.6657(3) 0.9911(4) 0.5300(3)
O8_4 O 0.6844(3) 1.0000 0.4344(3)
C5_3 C 0.6264(4) 0.9913(5) 0.5012(5)
C6_3 C 0.6326(5) 0.9969(6) 0.4454(6)
H5_3 H 0.6176 0.9679 0.4280
H8_3 H 0.6838 0.9724 0.3653
O11_3 O 0.9175(4) 0.9778(4) 0.5142(4)
O12_3 O 0.8343(3) 0.9700(3) 0.5089(4)
C9_3 C 0.8736(4) 0.9988(5) 0.5087(5)
Cd2_5 Cd 0.5000 1.0000 0.5000
Cd4_8 Cd 1.0000 1.0000 0.5000
Cd5_5 Cd 0.7500 1.0000 0.2500
O16_3 O 0.7722(4) 0.7358(4) 0.4175(4)
O17_3 O 0.8325(4) 0.7722(4) 0.5142(4)
O18_3 O 0.7642(4) 0.6675(4) 0.5222(4)
O19_3 O 0.7278(4) 0.7642(4) 0.5825(4)
O20_3 O 0.6675(4) 0.7278(4) 0.4858(4)
Ho1_8 Ho 0.0000 0.0000 0.2500
Cd1_7 Cd 0.2500 0.0000 0.2500
O3_5 O 0.0656(3) 0.0000 0.3156(3)
H2_4 H 0.1347 0.0276 0.3162
C4_4 C 0.0546(6) 0.0031(6) 0.3674(5)
H3_4 H 0.0720 0.0321 0.3824
O11_4 O 0.0222(4) 0.1675(4) 0.2642(4)
O12_4 O 0.0300(3) 0.0843(3) 0.2589(4)
C9_4 C 0.0012(5) 0.1236(4) 0.2587(5)
O16_4 O 0.2642(4) 0.0222(4) 0.1675(4)
O17_4 O 0.2278(4) 0.0825(4) 0.2642(4)
O18_4 O 0.3325(4) 0.0142(4) 0.2722(4)
Ho1_9 Ho 0.0000 1.0000 0.2500
Cd1_8 Cd 0.2500 1.0000 0.2500
O1_4 O 0.1675(4) 0.9858(4) 0.2278(4)
O2_4 O 0.0843(3) 0.9911(4) 0.2200(3)
O3_6 O 0.0656(3) 1.0000 0.3156(3)
C1_4 C 0.1236(4) 0.9913(5) 0.2488(5)
C2_4 C 0.1174(5) 0.9969(6) 0.3046(6)
H1_4 H 0.1324 0.9679 0.3220
H4_4 H 0.0662 0.9724 0.3847
O6_4 O 0.0142(4) 0.8325(4) 0.2722(4)
O7_4 O 0.0089(4) 0.9157(3) 0.2800(3)
O8_5 O 0.0000 0.9344(3) 0.1844(3)
C5_4 C 0.0087(5) 0.8764(4) 0.2512(5)
C6_4 C 0.0031(6) 0.8826(5) 0.1954(6)
H5_4 H 0.0321 0.8676 0.1780
H8_4 H 0.0276 0.9338 0.1153
Cd2_6 Cd -0.0000 0.7500 0.2500
O19_4 O 0.2358(4) 0.9778(4) 0.3325(4)
O20_4 O 0.2722(4) 0.9175(4) 0.2358(4)
Ho1_10 Ho 1.0000 0.0000 0.2500
O4_4 O 0.9778(4) 0.0142(4) 0.4175(4)
O5_4 O 0.9700(3) 0.0089(4) 0.3343(3)
C3_4 C 0.9988(5) 0.0087(5) 0.3736(4)
O9_4 O 0.9858(4) 0.0222(4) 0.0825(4)
O10_4 O 0.9911(4) 0.0300(3) 0.1657(3)
C7_4 C 0.9913(5) 0.0012(5) 0.1264(4)
O13_5 O 0.9344(3) 0.0656(3) 0.2500
C10_4 C 0.9454(6) 0.1174(5) 0.2531(6)
H9_4 H 0.9280 0.1324 0.2821
H10_4 H 0.9338 0.1347 0.2224
C12_4 C 0.8826(5) 0.0546(6) 0.2469(6)
H11_4 H 0.8676 0.0720 0.2179
H12_4 H 0.8653 0.0662 0.2776
Ho1_11 Ho 1.0000 1.0000 0.2500
O8_6 O 1.0000 0.9344(3) 0.1844(3)
H6_4 H 0.9724 0.8653 0.1838
C8_4 C 0.9969(6) 0.9454(6) 0.1326(5)
H7_4 H 0.9679 0.9280 0.1176
O14_4 O 0.8325(4) 0.9778(4) 0.2358(4)
O15_4 O 0.9157(3) 0.9700(3) 0.2411(4)
C11_4 C 0.8764(4) 0.9988(5) 0.2413(5)
Cd2_7 Cd 1.0000 0.7500 0.2500
O19_5 O 0.0222(4) 0.7642(4) 0.1675(4)
O20_5 O 0.0825(4) 0.7278(4) 0.2642(4)
O16_5 O 0.9778(4) 0.7358(4) 0.3325(4)
O17_5 O 0.9175(4) 0.7722(4) 0.2358(4)
O18_5 O 0.9858(4) 0.6675(4) 0.2278(4)
O16_6 O 0.2642(4) 0.2278(4) 0.0825(4)
O20_6 O 0.2722(4) 0.3325(4) 0.0142(4)
O17_6 O 0.2278(4) 0.1675(4) 0.9858(4)
O18_6 O 0.3325(4) 0.2358(4) 0.9778(4)
O19_6 O 0.2358(4) 0.2722(4) 0.9175(4)
O16_7 O 0.7722(4) 0.5142(4) 0.8325(4)
O17_7 O 0.8325(4) 0.4778(4) 0.7358(4)
O18_7 O 0.7642(4) 0.5825(4) 0.7278(4)
O19_7 O 0.7278(4) 0.4858(4) 0.6675(4)
O20_7 O 0.6675(4) 0.5222(4) 0.7642(4)
O16_8 O 0.4858(4) 0.0222(4) 0.5825(4)
O17_8 O 0.5222(4) 0.0825(4) 0.4858(4)
O18_8 O 0.4175(4) 0.0142(4) 0.4778(4)
O19_8 O 0.5142(4) 0.9778(4) 0.4175(4)
O20_8 O 0.4778(4) 0.9175(4) 0.5142(4)
O19_9 O 0.0825(4) 0.0222(4) 0.4858(4)
O17_9 O 0.0142(4) 0.9175(4) 0.4778(4)
O18_9 O 0.0222(4) 0.9858(4) 0.5825(4)
O20_9 O 0.9858(4) 0.0825(4) 0.5222(4)
O17_10 O 0.0825(4) 0.2642(4) 0.2278(4)
O18_10 O 0.0142(4) 0.2722(4) 0.3325(4)
O19_10 O 0.9778(4) 0.3325(4) 0.2358(4)
O20_10 O 0.9175(4) 0.2358(4) 0.2722(4)
O18_11 O 0.7278(4) 0.2642(4) 0.0825(4)
O20_11 O 0.7642(4) 0.1675(4) 0.0222(4)
O17_11 O 0.7358(4) 0.3325(4) 0.9778(4)
O19_11 O 0.6675(4) 0.2278(4) 0.9858(4)
O20_12 O 0.8325(4) 0.0142(4) 0.7722(4)
O17_12 O 0.6675(4) 0.9858(4) 0.7278(4)
O18_12 O 0.7358(4) 0.9778(4) 0.8325(4)
O19_12 O 0.7722(4) 0.9175(4) 0.7358(4)
O17_13 O 0.0142(4) 0.3325(4) 0.7722(4)
O18_13 O 0.0222(4) 0.2642(4) 0.6675(4)
O19_13 O 0.0825(4) 0.2278(4) 0.7642(4)
O20_13 O 0.9858(4) 0.1675(4) 0.7278(4)
O17_14 O 0.6675(4) 0.2642(4) 0.5222(4)
O18_14 O 0.7358(4) 0.2722(4) 0.4175(4)
O19_14 O 0.7722(4) 0.3325(4) 0.5142(4)
O20_14 O 0.8325(4) 0.2358(4) 0.4778(4)
O19_15 O 0.6675(4) 0.0222(4) 0.2642(4)
O20_15 O 0.7642(4) 0.0825(4) 0.2278(4)
O17_15 O 0.7358(4) 0.9175(4) 0.2722(4)
O18_15 O 0.7278(4) 0.9858(4) 0.1675(4)
O17_16 O 0.0825(4) 0.9858(4) 0.0222(4)
O18_16 O 0.0142(4) 0.9778(4) 0.9175(4)
O20_16 O 0.9175(4) 0.0142(4) 0.9778(4)
O19_16 O 0.9778(4) 0.9175(4) 0.0142(4)
Ho1_12 Ho 0.2500 0.0000 0.0000
Cd1_9 Cd 0.5000 0.0000 0.0000
O3_7 O 0.3156(3) 0.0656(3) -0.0000
C2_5 C 0.3674(5) 0.0546(6) 0.0031(6)
H1_5 H 0.3824 0.0720 0.0321
H4_5 H 0.3162 0.1347 0.0276
O7_5 O 0.2589(4) 0.0300(3) 0.0843(3)
C5_5 C 0.2587(5) 0.0012(5) 0.1236(4)
O19_17 O 0.4858(4) 0.0825(4) 0.0222(4)
Ho1_13 Ho 0.2500 0.0000 1.0000
Cd1_10 Cd 0.5000 0.0000 1.0000
O3_8 O 0.3156(3) 0.0656(3) 1.0000
H2_5 H 0.3847 0.0662 0.9724
O5_5 O 0.2200(3) 0.0843(3) 0.9911(4)
C3_5 C 0.2488(5) 0.1236(4) 0.9913(5)
C4_5 C 0.3046(6) 0.1174(5) 0.9969(6)
H3_5 H 0.3220 0.1324 0.9679
O11_5 O 0.2722(4) 0.0142(4) 0.8325(4)
O12_5 O 0.2800(3) 0.0089(4) 0.9157(3)
O13_6 O 0.1844(3) 0.0000 0.9344(3)
C9_5 C 0.2512(5) 0.0087(5) 0.8764(4)
C10_5 C 0.1954(6) 0.0031(6) 0.8826(5)
H9_5 H 0.1780 0.0321 0.8676
H12_5 H 0.1153 0.0276 0.9338
Cd4_9 Cd 0.2500 0.0000 0.7500
O17_17 O 0.4778(4) 0.0142(4) 0.9175(4)
O18_17 O 0.5825(4) 0.0222(4) 0.9858(4)
Ho1_14 Ho 0.2500 1.0000 0.0000
Cd1_11 Cd 0.5000 1.0000 0.0000
O1_5 O 0.4175(4) 0.9778(4) 0.0142(4)
O2_5 O 0.3343(3) 0.9700(3) 0.0089(4)
C1_5 C 0.3736(4) 0.9988(5) 0.0087(5)
O8_7 O 0.2500 0.9344(3) 0.0656(3)
C6_5 C 0.2531(6) 0.9454(6) 0.1174(5)
H5_5 H 0.2821 0.9280 0.1324
H6_5 H 0.2224 0.9338 0.1347
C8_5 C 0.2469(6) 0.8826(5) 0.0546(6)
H7_5 H 0.2179 0.8676 0.0720
H8_5 H 0.2776 0.8653 0.0662
O15_5 O 0.1657(3) 0.9911(4) 0.0300(3)
C11_5 C 0.1264(4) 0.9913(5) 0.0012(5)
Cd5_6 Cd 0.2500 0.7500 0.0000
O20_17 O 0.5222(4) 0.9858(4) 0.0825(4)
Ho1_15 Ho 0.2500 1.0000 1.0000
Cd1_12 Cd 0.5000 1.0000 1.0000
O9_5 O 0.2358(4) 0.8325(4) 0.9778(4)
O10_5 O 0.2411(4) 0.9157(3) 0.9700(3)
C7_5 C 0.2413(5) 0.8764(4) 0.9988(5)
O13_7 O 0.1844(3) 1.0000 0.9344(3)
H10_5 H 0.1838 0.9724 0.8653
C12_5 C 0.1326(5) 0.9969(6) 0.9454(6)
H11_5 H 0.1176 0.9679 0.9280
Cd4_10 Cd 0.2500 1.0000 0.7500
Cd5_7 Cd 0.2500 0.7500 1.0000
O16_9 O 0.5142(4) 0.9175(4) 0.9778(4)
Ho1_16 Ho 0.5000 0.7500 0.0000
Cd1_13 Cd 0.5000 0.5000 0.0000
O3_9 O 0.4344(3) 0.6844(3) 0.0000
H2_6 H 0.4338 0.6153 0.0276
O4_5 O 0.3325(4) 0.7722(4) 0.0142(4)
O5_6 O 0.4157(3) 0.7800(3) 0.0089(4)
C3_6 C 0.3764(4) 0.7512(5) 0.0087(5)
C4_6 C 0.3826(5) 0.6954(6) 0.0031(6)
H3_6 H 0.3676 0.6780 0.0321
O9_6 O 0.6675(4) 0.7642(4) 0.0222(4)
O10_6 O 0.5843(3) 0.7589(4) 0.0300(3)
C7_6 C 0.6236(4) 0.7587(5) 0.0012(5)
O11_6 O 0.4858(4) 0.7278(4) 0.1675(4)
O12_6 O 0.4911(4) 0.7200(3) 0.0843(3)
O13_8 O 0.5000 0.8156(3) 0.0656(3)
C9_6 C 0.4913(5) 0.7488(5) 0.1236(4)
C10_6 C 0.4969(6) 0.8046(6) 0.1174(5)
H9_6 H 0.4679 0.8220 0.1324
H10_6 H 0.5276 0.8162 0.1347
C12_6 C 0.5031(6) 0.8674(5) 0.0546(6)
H11_6 H 0.5321 0.8824 0.0720
H12_6 H 0.4724 0.8847 0.0662
Cd4_11 Cd 0.5000 0.7500 0.2500
Cd5_8 Cd 0.7500 0.7500 0.0000
O16_10 O 0.5825(4) 0.4858(4) 0.0222(4)
O17_18 O 0.4858(4) 0.5222(4) 0.0825(4)
O18_18 O 0.4778(4) 0.4175(4) 0.0142(4)
Ho1_17 Ho 0.5000 0.7500 1.0000
Cd1_14 Cd 0.5000 0.5000 1.0000
O1_6 O 0.5222(4) 0.5825(4) 0.9858(4)
O2_6 O 0.5300(3) 0.6657(3) 0.9911(4)
O3_10 O 0.4344(3) 0.6844(3) 1.0000
C1_6 C 0.5012(5) 0.6264(4) 0.9913(5)
C2_6 C 0.4454(6) 0.6326(5) 0.9969(6)
H1_6 H 0.4280 0.6176 0.9679
H4_6 H 0.3653 0.6838 0.9724
O6_5 O 0.4778(4) 0.7358(4) 0.8325(4)
O7_6 O 0.4700(3) 0.7411(4) 0.9157(3)
O8_8 O 0.5656(3) 0.7500 0.9344(3)
C5_6 C 0.4988(5) 0.7413(5) 0.8764(4)
C6_6 C 0.5546(6) 0.7469(6) 0.8826(5)
H5_6 H 0.5720 0.7179 0.8676
H6_6 H 0.5662 0.7776 0.8653
C8_6 C 0.6174(5) 0.7531(6) 0.9454(6)
H7_6 H 0.6324 0.7821 0.9280
H8_6 H 0.6347 0.7224 0.9338
O15_6 O 0.5089(4) 0.8343(3) 0.9700(3)
C11_6 C 0.5087(5) 0.8736(4) 0.9988(5)
Cd2_8 Cd 0.5000 0.7500 0.7500
Cd5_9 Cd 0.7500 0.7500 1.0000
O19_18 O 0.4175(4) 0.5142(4) 0.9778(4)
O20_18 O 0.5142(4) 0.4778(4) 0.9175(4)
Ho1_18 Ho 0.7500 0.7500 0.2500
Cd1_15 Cd 0.7500 0.5000 0.2500
O1_7 O 0.7278(4) 0.5825(4) 0.2642(4)
O2_7 O 0.7200(3) 0.6657(3) 0.2589(4)
O3_11 O 0.8156(3) 0.6844(3) 0.2500
C1_7 C 0.7488(5) 0.6264(4) 0.2587(5)
C2_7 C 0.8046(6) 0.6326(5) 0.2531(6)
H1_7 H 0.8220 0.6176 0.2821
H2_7 H 0.8162 0.6153 0.2224
O5_7 O 0.8343(3) 0.7800(3) 0.2411(4)
C3_7 C 0.8736(4) 0.7512(5) 0.2413(5)
C4_7 C 0.8674(5) 0.6954(6) 0.2469(6)
H3_7 H 0.8824 0.6780 0.2179
H4_7 H 0.8847 0.6838 0.2776
O7_7 O 0.7800(3) 0.7411(4) 0.3343(3)
O8_9 O 0.6844(3) 0.7500 0.3156(3)
C5_7 C 0.7512(5) 0.7413(5) 0.3736(4)
C6_7 C 0.6954(6) 0.7469(6) 0.3674(5)
H5_7 H 0.6780 0.7179 0.3824
H6_7 H 0.6838 0.7776 0.3847
O9_7 O 0.5825(4) 0.7642(4) 0.2278(4)
O10_7 O 0.6657(3) 0.7589(4) 0.2200(3)
C7_7 C 0.6264(4) 0.7587(5) 0.2488(5)
C8_7 C 0.6326(5) 0.7531(6) 0.3046(6)
H7_7 H 0.6176 0.7821 0.3220
H8_7 H 0.6153 0.7224 0.3162
O11_7 O 0.7642(4) 0.7278(4) 0.0825(4)
O12_7 O 0.7589(4) 0.7200(3) 0.1657(3)
O13_9 O 0.7500 0.8156(3) 0.1844(3)
C9_7 C 0.7587(5) 0.7488(5) 0.1264(4)
C10_7 C 0.7531(6) 0.8046(6) 0.1326(5)
H9_7 H 0.7821 0.8220 0.1176
H10_7 H 0.7224 0.8162 0.1153
O15_7 O 0.7411(4) 0.8343(3) 0.2800(3)
C11_7 C 0.7413(5) 0.8736(4) 0.2512(5)
C12_7 C 0.7469(6) 0.8674(5) 0.1954(6)
H11_7 H 0.7179 0.8824 0.1780
H12_7 H 0.7776 0.8847 0.1838
O16_11 O 0.6675(4) 0.4858(4) 0.2278(4)
O17_19 O 0.7642(4) 0.5222(4) 0.1675(4)
O18_19 O 0.7722(4) 0.4175(4) 0.2358(4)
O19_19 O 0.8325(4) 0.5142(4) 0.2722(4)
O20_19 O 0.7358(4) 0.4778(4) 0.3325(4)
Ho1_19 Ho 0.2500 0.7500 0.7500
O1_8 O 0.4175(4) 0.7722(4) 0.7358(4)
O2_8 O 0.3343(3) 0.7800(3) 0.7411(4)
O3_12 O 0.3156(3) 0.6844(3) 0.7500
C1_8 C 0.3736(4) 0.7512(5) 0.7413(5)
C2_8 C 0.3674(5) 0.6954(6) 0.7469(6)
H1_8 H 0.3824 0.6780 0.7179
H2_8 H 0.3847 0.6838 0.7776
O4_6 O 0.2278(4) 0.5825(4) 0.7642(4)
O5_8 O 0.2200(3) 0.6657(3) 0.7589(4)
C3_8 C 0.2488(5) 0.6264(4) 0.7587(5)
C4_8 C 0.3046(6) 0.6326(5) 0.7531(6)
H3_8 H 0.3220 0.6176 0.7821
H4_8 H 0.3162 0.6153 0.7224
O6_6 O 0.2642(4) 0.7278(4) 0.5825(4)
O7_8 O 0.2589(4) 0.7200(3) 0.6657(3)
O8_10 O 0.2500 0.8156(3) 0.6844(3)
C5_8 C 0.2587(5) 0.7488(5) 0.6264(4)
C6_8 C 0.2531(6) 0.8046(6) 0.6326(5)
H5_8 H 0.2821 0.8220 0.6176
H6_8 H 0.2224 0.8162 0.6153
O9_8 O 0.2358(4) 0.9175(4) 0.7722(4)
O10_8 O 0.2411(4) 0.8343(3) 0.7800(3)
C7_8 C 0.2413(5) 0.8736(4) 0.7512(5)
C8_8 C 0.2469(6) 0.8674(5) 0.6954(6)
H7_8 H 0.2179 0.8824 0.6780
H8_8 H 0.2776 0.8847 0.6838
O11_8 O 0.2722(4) 0.7358(4) 0.9175(4)
O12_8 O 0.2800(3) 0.7411(4) 0.8343(3)
O13_10 O 0.1844(3) 0.7500 0.8156(3)
C9_8 C 0.2512(5) 0.7413(5) 0.8736(4)
C10_8 C 0.1954(6) 0.7469(6) 0.8674(5)
H9_8 H 0.1780 0.7179 0.8824
H10_8 H 0.1838 0.7776 0.8847
O14_5 O 0.0825(4) 0.7642(4) 0.7278(4)
O15_8 O 0.1657(3) 0.7589(4) 0.7200(3)
C11_8 C 0.1264(4) 0.7587(5) 0.7488(5)
C12_8 C 0.1326(5) 0.7531(6) 0.8046(6)
H11_8 H 0.1176 0.7821 0.8220
H12_8 H 0.1153 0.7224 0.8162
Cd2_9 Cd 0.2500 0.7500 0.5000
Cd3_3 Cd 0.2500 0.5000 0.7500
Cd6_9 Cd 0.0000 0.7500 0.7500
O16_12 O 0.5142(4) 0.8325(4) 0.7722(4)
O18_20 O 0.5825(4) 0.7278(4) 0.7642(4)
O19_20 O 0.4858(4) 0.6675(4) 0.7278(4)
O20_20 O 0.5222(4) 0.7642(4) 0.6675(4)
Cd6_10 Cd 1.0000 0.7500 0.7500
Ho1_20 Ho -0.0000 0.5000 0.7500
O4_7 O 0.0222(4) 0.6675(4) 0.7642(4)
O5_9 O 0.0300(3) 0.5843(3) 0.7589(4)
C3_9 C 0.0012(5) 0.6236(4) 0.7587(5)
O8_11 O -0.0000 0.4344(3) 0.6844(3)
H6_9 H 0.0276 0.4338 0.6153
O10_9 O 0.0089(4) 0.4157(3) 0.7800(3)
C7_9 C 0.0087(5) 0.3764(4) 0.7512(5)
C8_9 C 0.0031(6) 0.3826(5) 0.6954(6)
H7_9 H 0.0321 0.3676 0.6780
O13_11 O 0.0656(3) 0.5000 0.8156(3)
C10_9 C 0.0546(6) 0.5031(6) 0.8674(5)
H9_9 H 0.0720 0.5321 0.8824
H10_9 H 0.0662 0.4724 0.8847
O14_6 O 0.1675(4) 0.4858(4) 0.7278(4)
O15_9 O 0.0843(3) 0.4911(4) 0.7200(3)
C11_9 C 0.1236(4) 0.4913(5) 0.7488(5)
C12_9 C 0.1174(5) 0.4969(6) 0.8046(6)
H11_9 H 0.1324 0.4679 0.8220
H12_9 H 0.1347 0.5276 0.8162
Cd2_10 Cd 0.0000 0.5000 0.5000
Ho1_21 Ho 1.0000 0.5000 0.7500
O2_9 O 0.9157(3) 0.4700(3) 0.7411(4)
O3_13 O 0.9344(3) 0.5656(3) 0.7500
C1_9 C 0.8764(4) 0.4988(5) 0.7413(5)
C2_9 C 0.8826(5) 0.5546(6) 0.7469(6)
H1_9 H 0.8676 0.5720 0.7179
H2_9 H 0.8653 0.5662 0.7776
C4_9 C 0.9454(6) 0.6174(5) 0.7531(6)
H3_9 H 0.9280 0.6324 0.7821
H4_9 H 0.9338 0.6347 0.7224
O6_7 O 0.9858(4) 0.5222(4) 0.5825(4)
O7_9 O 0.9911(4) 0.5300(3) 0.6657(3)
O8_12 O 1.0000 0.4344(3) 0.6844(3)
C5_9 C 0.9913(5) 0.5012(5) 0.6264(4)
C6_9 C 0.9969(6) 0.4454(6) 0.6326(5)
H5_9 H 0.9679 0.4280 0.6176
H8_9 H 0.9724 0.3653 0.6838
O12_9 O 0.9700(3) 0.5089(4) 0.8343(3)
C9_9 C 0.9988(5) 0.5087(5) 0.8736(4)
Cd2_11 Cd 1.0000 0.5000 0.5000
Ho1_22 Ho 0.0000 0.7500 0.5000
O2_10 O 0.0089(4) 0.8343(3) 0.4700(3)
O3_14 O 0.0000 0.8156(3) 0.5656(3)
C1_10 C 0.0087(5) 0.8736(4) 0.4988(5)
C2_10 C 0.0031(6) 0.8674(5) 0.5546(6)
H1_10 H 0.0321 0.8824 0.5720
H4_10 H 0.0276 0.8162 0.6347
O6_8 O 0.1675(4) 0.7642(4) 0.5222(4)
O7_10 O 0.0843(3) 0.7589(4) 0.5300(3)
O8_13 O 0.0656(3) 0.7500 0.4344(3)
C5_10 C 0.1236(4) 0.7587(5) 0.5012(5)
C6_10 C 0.1174(5) 0.7531(6) 0.4454(6)
H5_10 H 0.1324 0.7821 0.4280
H6_10 H 0.1347 0.7224 0.4338
C8_10 C 0.0546(6) 0.7469(6) 0.3826(5)
H7_10 H 0.0720 0.7179 0.3676
H8_10 H 0.0662 0.7776 0.3653
O14_7 O 0.0222(4) 0.5825(4) 0.4858(4)
O15_10 O 0.0300(3) 0.6657(3) 0.4911(4)
C11_10 C 0.0012(5) 0.6264(4) 0.4913(5)
Ho1_23 Ho 1.0000 0.7500 0.5000
O3_15 O 1.0000 0.8156(3) 0.5656(3)
H2_10 H 0.9724 0.8847 0.5662
O4_8 O 0.9858(4) 0.7278(4) 0.6675(4)
O5_10 O 0.9911(4) 0.7200(3) 0.5843(3)
C3_10 C 0.9913(5) 0.7488(5) 0.6236(4)
C4_10 C 0.9969(6) 0.8046(6) 0.6174(5)
H3_10 H 0.9679 0.8220 0.6324
O10_10 O 0.9700(3) 0.7411(4) 0.4157(3)
C7_10 C 0.9988(5) 0.7413(5) 0.3764(4)
O12_10 O 0.9157(3) 0.7800(3) 0.5089(4)
O13_12 O 0.9344(3) 0.6844(3) 0.5000
C9_10 C 0.8764(4) 0.7512(5) 0.5087(5)
C10_10 C 0.8826(5) 0.6954(6) 0.5031(6)
H9_10 H 0.8676 0.6780 0.5321
H10_10 H 0.8653 0.6838 0.4724
C12_10 C 0.9454(6) 0.6326(5) 0.4969(6)
H11_10 H 0.9280 0.6176 0.4679
H12_10 H 0.9338 0.6153 0.5276
O17_20 O 0.5222(4) 0.6675(4) 0.2642(4)
O18_21 O 0.4175(4) 0.7358(4) 0.2722(4)
O19_21 O 0.5142(4) 0.7722(4) 0.3325(4)
O20_21 O 0.4778(4) 0.8325(4) 0.2358(4)
Ho1_24 Ho 0.7500 0.5000 0.0000
O3_16 O 0.7500 0.4344(3) 0.0656(3)
C2_11 C 0.7469(6) 0.3826(5) 0.0546(6)
H1_11 H 0.7179 0.3676 0.0720
H2_11 H 0.7776 0.3653 0.0662
O5_11 O 0.7589(4) 0.5300(3) 0.0843(3)
C3_11 C 0.7587(5) 0.5012(5) 0.1236(4)
C4_11 C 0.7531(6) 0.4454(6) 0.1174(5)
H3_11 H 0.7821 0.4280 0.1324
H4_11 H 0.7224 0.4338 0.1347
O7_11 O 0.6657(3) 0.4911(4) 0.0300(3)
C5_11 C 0.6264(4) 0.4913(5) 0.0012(5)
O12_11 O 0.8343(3) 0.4700(3) 0.0089(4)
O13_13 O 0.8156(3) 0.5656(3) 0.0000
C9_11 C 0.8736(4) 0.4988(5) 0.0087(5)
C10_11 C 0.8674(5) 0.5546(6) 0.0031(6)
H9_11 H 0.8824 0.5720 0.0321
H12_11 H 0.8162 0.6347 0.0276
Ho1_25 Ho 0.7500 0.5000 1.0000
O2_11 O 0.7411(4) 0.4157(3) 0.9700(3)
C1_11 C 0.7413(5) 0.3764(4) 0.9988(5)
O8_14 O 0.6844(3) 0.5000 0.9344(3)
C6_11 C 0.6326(5) 0.4969(6) 0.9454(6)
H5_11 H 0.6176 0.4679 0.9280
H6_11 H 0.6153 0.5276 0.9338
O10_11 O 0.7800(3) 0.5089(4) 0.9157(3)
C7_11 C 0.7512(5) 0.5087(5) 0.8764(4)
C8_11 C 0.6954(6) 0.5031(6) 0.8826(5)
H7_11 H 0.6780 0.5321 0.8676
H8_11 H 0.6838 0.4724 0.8653
O13_14 O 0.8156(3) 0.5656(3) 1.0000
H10_11 H 0.8847 0.5662 0.9724
O14_8 O 0.7278(4) 0.6675(4) 0.9858(4)
O15_11 O 0.7200(3) 0.5843(3) 0.9911(4)
C11_11 C 0.7488(5) 0.6236(4) 0.9913(5)
C12_11 C 0.8046(6) 0.6174(5) 0.9969(6)
H11_11 H 0.8220 0.6324 0.9679
O16_13 O 0.2642(4) 0.5222(4) 0.6675(4)
O18_22 O 0.3325(4) 0.5142(4) 0.7722(4)
O19_22 O 0.2358(4) 0.4778(4) 0.8325(4)
O20_22 O 0.2722(4) 0.4175(4) 0.7358(4)
O17_21 O 0.2278(4) 0.6675(4) 0.4858(4)
O18_23 O 0.3325(4) 0.7358(4) 0.4778(4)
O19_23 O 0.2358(4) 0.7722(4) 0.4175(4)
O20_23 O 0.2722(4) 0.8325(4) 0.5142(4)
O18_24 O 0.0142(4) 0.7722(4) 0.8325(4)
O19_24 O 0.9778(4) 0.8325(4) 0.7358(4)
O20_24 O 0.9175(4) 0.7358(4) 0.7722(4)
O19_25 O 0.7722(4) 0.8325(4) 0.0142(4)
O18_25 O 0.7358(4) 0.7722(4) 0.9175(4)
O20_25 O 0.8325(4) 0.7358(4) 0.9778(4)
O17_22 O 0.0825(4) 0.4858(4) 0.5222(4)
O18_26 O 0.0142(4) 0.4778(4) 0.4175(4)
O19_26 O 0.9778(4) 0.4175(4) 0.5142(4)
O20_26 O 0.9175(4) 0.5142(4) 0.4778(4)
Ho1_26 Ho 0.2500 0.5000 0.5000
Cd1_16 Cd 0.5000 0.5000 0.5000
O1_9 O 0.4175(4) 0.4778(4) 0.5142(4)
O2_12 O 0.3343(3) 0.4700(3) 0.5089(4)
O3_17 O 0.3156(3) 0.5656(3) 0.5000
C1_12 C 0.3736(4) 0.4988(5) 0.5087(5)
C2_12 C 0.3674(5) 0.5546(6) 0.5031(6)
H1_12 H 0.3824 0.5720 0.5321
H2_12 H 0.3847 0.5662 0.4724
O5_12 O 0.2200(3) 0.5843(3) 0.4911(4)
C3_12 C 0.2488(5) 0.6236(4) 0.4913(5)
C4_12 C 0.3046(6) 0.6174(5) 0.4969(6)
H3_12 H 0.3220 0.6324 0.4679
H4_12 H 0.3162 0.6347 0.5276
O7_12 O 0.2589(4) 0.5300(3) 0.5843(3)
O8_15 O 0.2500 0.4344(3) 0.5656(3)
C5_12 C 0.2587(5) 0.5012(5) 0.6236(4)
C6_12 C 0.2531(6) 0.4454(6) 0.6174(5)
H5_12 H 0.2821 0.4280 0.6324
H6_12 H 0.2224 0.4338 0.6347
O9_9 O 0.2358(4) 0.3325(4) 0.4778(4)
O10_12 O 0.2411(4) 0.4157(3) 0.4700(3)
C7_12 C 0.2413(5) 0.3764(4) 0.4988(5)
C8_12 C 0.2469(6) 0.3826(5) 0.5546(6)
H7_12 H 0.2179 0.3676 0.5720
H8_12 H 0.2776 0.3653 0.5662
O11_9 O 0.2722(4) 0.5142(4) 0.3325(4)
O12_12 O 0.2800(3) 0.5089(4) 0.4157(3)
O13_15 O 0.1844(3) 0.5000 0.4344(3)
C9_12 C 0.2512(5) 0.5087(5) 0.3764(4)
C10_12 C 0.1954(6) 0.5031(6) 0.3826(5)
H9_12 H 0.1780 0.5321 0.3676
H10_12 H 0.1838 0.4724 0.3653
O15_12 O 0.1657(3) 0.4911(4) 0.5300(3)
C11_12 C 0.1264(4) 0.4913(5) 0.5012(5)
C12_12 C 0.1326(5) 0.4969(6) 0.4454(6)
H11_12 H 0.1176 0.4679 0.4280
H12_12 H 0.1153 0.5276 0.4338
Cd4_12 Cd 0.2500 0.5000 0.2500
Cd5_10 Cd 0.2500 0.2500 0.5000
O16_14 O 0.5142(4) 0.4175(4) 0.4778(4)
O17_23 O 0.4778(4) 0.5142(4) 0.4175(4)
O18_27 O 0.5825(4) 0.5222(4) 0.4858(4)
O19_27 O 0.4858(4) 0.5825(4) 0.5222(4)
O20_27 O 0.5222(4) 0.4858(4) 0.5825(4)
Ho1_27 Ho 0.5000 0.2500 0.5000
O2_13 O 0.5300(3) 0.1657(3) 0.4911(4)
O3_18 O 0.4344(3) 0.1844(3) 0.5000
C1_13 C 0.5012(5) 0.1264(4) 0.4913(5)
C2_13 C 0.4454(6) 0.1326(5) 0.4969(6)
H1_13 H 0.4280 0.1176 0.4679
H2_13 H 0.4338 0.1153 0.5276
O4_9 O 0.3325(4) 0.2722(4) 0.5142(4)
O5_13 O 0.4157(3) 0.2800(3) 0.5089(4)
C3_13 C 0.3764(4) 0.2512(5) 0.5087(5)
C4_13 C 0.3826(5) 0.1954(6) 0.5031(6)
H3_13 H 0.3676 0.1780 0.5321
H4_13 H 0.3653 0.1838 0.4724
O6_9 O 0.4778(4) 0.2358(4) 0.3325(4)
O7_13 O 0.4700(3) 0.2411(4) 0.4157(3)
O8_16 O 0.5656(3) 0.2500 0.4344(3)
C5_13 C 0.4988(5) 0.2413(5) 0.3764(4)
C6_13 C 0.5546(6) 0.2469(6) 0.3826(5)
H5_13 H 0.5720 0.2179 0.3676
H6_13 H 0.5662 0.2776 0.3653
O10_13 O 0.5843(3) 0.2589(4) 0.5300(3)
C7_13 C 0.6236(4) 0.2587(5) 0.5012(5)
C8_13 C 0.6174(5) 0.2531(6) 0.4454(6)
H7_13 H 0.6324 0.2821 0.4280
H8_13 H 0.6347 0.2224 0.4338
O12_13 O 0.4911(4) 0.2200(3) 0.5843(3)
O13_16 O 0.5000 0.3156(3) 0.5656(3)
C9_13 C 0.4913(5) 0.2488(5) 0.6236(4)
C10_13 C 0.4969(6) 0.3046(6) 0.6174(5)
H9_13 H 0.4679 0.3220 0.6324
H10_13 H 0.5276 0.3162 0.6347
O15_13 O 0.5089(4) 0.3343(3) 0.4700(3)
C11_13 C 0.5087(5) 0.3736(4) 0.4988(5)
C12_13 C 0.5031(6) 0.3674(5) 0.5546(6)
H11_13 H 0.5321 0.3824 0.5720
H12_13 H 0.4724 0.3847 0.5662
Cd2_12 Cd 0.5000 0.2500 0.2500
Ho1_28 Ho 0.2500 0.2500 0.2500
O1_10 O 0.4175(4) 0.2722(4) 0.2358(4)
O2_14 O 0.3343(3) 0.2800(3) 0.2411(4)
O3_19 O 0.3156(3) 0.1844(3) 0.2500
C1_14 C 0.3736(4) 0.2512(5) 0.2413(5)
C2_14 C 0.3674(5) 0.1954(6) 0.2469(6)
H1_14 H 0.3824 0.1780 0.2179
H2_14 H 0.3847 0.1838 0.2776
O5_14 O 0.2200(3) 0.1657(3) 0.2589(4)
C3_14 C 0.2488(5) 0.1264(4) 0.2587(5)
C4_14 C 0.3046(6) 0.1326(5) 0.2531(6)
H3_14 H 0.3220 0.1176 0.2821
H4_14 H 0.3162 0.1153 0.2224
O7_14 O 0.2589(4) 0.2200(3) 0.1657(3)
O8_17 O 0.2500 0.3156(3) 0.1844(3)
C5_14 C 0.2587(5) 0.2488(5) 0.1264(4)
C6_14 C 0.2531(6) 0.3046(6) 0.1326(5)
H5_14 H 0.2821 0.3220 0.1176
H6_14 H 0.2224 0.3162 0.1153
O9_10 O 0.2358(4) 0.4175(4) 0.2722(4)
O10_14 O 0.2411(4) 0.3343(3) 0.2800(3)
C7_14 C 0.2413(5) 0.3736(4) 0.2512(5)
C8_14 C 0.2469(6) 0.3674(5) 0.1954(6)
H7_14 H 0.2179 0.3824 0.1780
H8_14 H 0.2776 0.3847 0.1838
O11_10 O 0.2722(4) 0.2358(4) 0.4175(4)
O12_14 O 0.2800(3) 0.2411(4) 0.3343(3)
O13_17 O 0.1844(3) 0.2500 0.3156(3)
C9_14 C 0.2512(5) 0.2413(5) 0.3736(4)
C10_14 C 0.1954(6) 0.2469(6) 0.3674(5)
H9_14 H 0.1780 0.2179 0.3824
H10_14 H 0.1838 0.2776 0.3847
O15_14 O 0.1657(3) 0.2589(4) 0.2200(3)
C11_14 C 0.1264(4) 0.2587(5) 0.2488(5)
C12_14 C 0.1326(5) 0.2531(6) 0.3046(6)
H11_14 H 0.1176 0.2821 0.3220
H12_14 H 0.1153 0.2224 0.3162
O16_15 O 0.5142(4) 0.3325(4) 0.2722(4)
O18_28 O 0.5825(4) 0.2278(4) 0.2642(4)
O19_28 O 0.4858(4) 0.1675(4) 0.2278(4)
O20_28 O 0.5222(4) 0.2642(4) 0.1675(4)
O18_29 O 0.2642(4) 0.6675(4) 0.0222(4)
O19_29 O 0.2278(4) 0.7642(4) 0.0825(4)
O20_29 O 0.1675(4) 0.7278(4) 0.9858(4)
Ho1_29 Ho 0.5000 0.0000 0.7500
O3_20 O 0.5656(3) 0.0000 0.8156(3)
H2_15 H 0.6347 0.0276 0.8162
O5_15 O 0.4700(3) 0.0089(4) 0.8343(3)
C3_15 C 0.4988(5) 0.0087(5) 0.8736(4)
C4_15 C 0.5546(6) 0.0031(6) 0.8674(5)
H3_15 H 0.5720 0.0321 0.8824
O10_15 O 0.4911(4) 0.0300(3) 0.6657(3)
C7_15 C 0.4913(5) 0.0012(5) 0.6264(4)
O12_15 O 0.5300(3) 0.0843(3) 0.7589(4)
O13_18 O 0.4344(3) 0.0656(3) 0.7500
C9_15 C 0.5012(5) 0.1236(4) 0.7587(5)
C10_15 C 0.4454(6) 0.1174(5) 0.7531(6)
H9_15 H 0.4280 0.1324 0.7821
H10_15 H 0.4338 0.1347 0.7224
C12_15 C 0.3826(5) 0.0546(6) 0.7469(6)
H11_15 H 0.3676 0.0720 0.7179
H12_15 H 0.3653 0.0662 0.7776
Ho1_30 Ho 0.5000 1.0000 0.7500
O2_15 O 0.5843(3) 0.9911(4) 0.7200(3)
O3_21 O 0.5656(3) 1.0000 0.8156(3)
C1_15 C 0.6236(4) 0.9913(5) 0.7488(5)
C2_15 C 0.6174(5) 0.9969(6) 0.8046(6)
H1_15 H 0.6324 0.9679 0.8220
H4_15 H 0.5662 0.9724 0.8847
O7_15 O 0.5089(4) 0.9157(3) 0.7800(3)
O8_18 O 0.5000 0.9344(3) 0.6844(3)
C5_15 C 0.5087(5) 0.8764(4) 0.7512(5)
C6_15 C 0.5031(6) 0.8826(5) 0.6954(6)
H5_15 H 0.5321 0.8676 0.6780
H6_15 H 0.4724 0.8653 0.6838
C8_15 C 0.4969(6) 0.9454(6) 0.6326(5)
H7_15 H 0.4679 0.9280 0.6176
H8_15 H 0.5276 0.9338 0.6153
O14_9 O 0.3325(4) 0.9778(4) 0.7358(4)
O15_15 O 0.4157(3) 0.9700(3) 0.7411(4)
C11_15 C 0.3764(4) 0.9988(5) 0.7413(5)
O17_24 O 0.3325(4) 0.4778(4) 0.2358(4)
O18_30 O 0.2642(4) 0.5825(4) 0.2278(4)
O19_30 O 0.2278(4) 0.4858(4) 0.1675(4)
O20_30 O 0.1675(4) 0.5222(4) 0.2642(4)
O18_31 O 0.2278(4) 0.2642(4) 0.5825(4)
O19_31 O 0.1675(4) 0.2278(4) 0.4858(4)
O20_31 O 0.2642(4) 0.1675(4) 0.5222(4)
O19_32 O 0.1675(4) 0.0222(4) 0.7642(4)
O20_32 O 0.2642(4) 0.0825(4) 0.7278(4)
O18_32 O 0.2278(4) 0.9858(4) 0.6675(4)
Ho1_31 Ho 0.5000 0.5000 0.2500
O2_16 O 0.4157(3) 0.4700(3) 0.2411(4)
O3_22 O 0.4344(3) 0.5656(3) 0.2500
C1_16 C 0.3764(4) 0.4988(5) 0.2413(5)
C2_16 C 0.3826(5) 0.5546(6) 0.2469(6)
H1_16 H 0.3676 0.5720 0.2179
H2_16 H 0.3653 0.5662 0.2776
O5_16 O 0.5300(3) 0.5843(3) 0.2589(4)
C3_16 C 0.5012(5) 0.6236(4) 0.2587(5)
C4_16 C 0.4454(6) 0.6174(5) 0.2531(6)
H3_16 H 0.4280 0.6324 0.2821
H4_16 H 0.4338 0.6347 0.2224
O7_16 O 0.4911(4) 0.5300(3) 0.1657(3)
O8_19 O 0.5000 0.4344(3) 0.1844(3)
C5_16 C 0.4913(5) 0.5012(5) 0.1264(4)
C6_16 C 0.4969(6) 0.4454(6) 0.1326(5)
H5_16 H 0.4679 0.4280 0.1176
H6_16 H 0.5276 0.4338 0.1153
O10_16 O 0.5089(4) 0.4157(3) 0.2800(3)
C7_16 C 0.5087(5) 0.3764(4) 0.2512(5)
C8_16 C 0.5031(6) 0.3826(5) 0.1954(6)
H7_16 H 0.5321 0.3676 0.1780
H8_16 H 0.4724 0.3653 0.1838
O12_16 O 0.4700(3) 0.5089(4) 0.3343(3)
O13_19 O 0.5656(3) 0.5000 0.3156(3)
C9_16 C 0.4988(5) 0.5087(5) 0.3736(4)
C10_16 C 0.5546(6) 0.5031(6) 0.3674(5)
H9_16 H 0.5720 0.5321 0.3824
H10_16 H 0.5662 0.4724 0.3847
O15_16 O 0.5843(3) 0.4911(4) 0.2200(3)
C11_16 C 0.6236(4) 0.4913(5) 0.2488(5)
C12_16 C 0.6174(5) 0.4969(6) 0.3046(6)
H11_16 H 0.6324 0.4679 0.3220
H12_16 H 0.6347 0.5276 0.3162
Ho1_32 Ho 0.0000 0.7500 0.0000
O10_17 O 0.0300(3) 0.7589(4) 0.0843(3)
C7_17 C 0.0012(5) 0.7587(5) 0.1236(4)
O13_20 O 0.0656(3) 0.8156(3) 0.0000
H10_17 H 0.1347 0.8162 0.0276
C12_17 C 0.0546(6) 0.8674(5) 0.0031(6)
H11_17 H 0.0720 0.8824 0.0321
Ho1_33 Ho 0.0000 0.7500 1.0000
O3_23 O 0.0000 0.6844(3) 0.9344(3)
H2_17 H 0.0276 0.6153 0.9338
O5_17 O 0.0089(4) 0.7800(3) 0.9157(3)
C3_17 C 0.0087(5) 0.7512(5) 0.8764(4)
C4_17 C 0.0031(6) 0.6954(6) 0.8826(5)
H3_17 H 0.0321 0.6780 0.8676
O12_17 O 0.0843(3) 0.7200(3) 0.9911(4)
O13_21 O 0.0656(3) 0.8156(3) 1.0000
C9_17 C 0.1236(4) 0.7488(5) 0.9913(5)
C10_17 C 0.1174(5) 0.8046(6) 0.9969(6)
H9_17 H 0.1324 0.8220 0.9679
H12_17 H 0.0662 0.8847 0.9724
Ho1_34 Ho 1.0000 0.7500 0.0000
O2_17 O 0.9911(4) 0.6657(3) 0.0300(3)
C1_17 C 0.9913(5) 0.6264(4) 0.0012(5)
O8_20 O 0.9344(3) 0.7500 0.0656(3)
C6_17 C 0.8826(5) 0.7469(6) 0.0546(6)
H5_17 H 0.8676 0.7179 0.0720
H6_17 H 0.8653 0.7776 0.0662
C8_17 C 0.9454(6) 0.7531(6) 0.1174(5)
H7_17 H 0.9280 0.7821 0.1324
H8_17 H 0.9338 0.7224 0.1347
O15_17 O 0.9700(3) 0.8343(3) 0.0089(4)
C11_17 C 0.9988(5) 0.8736(4) 0.0087(5)
Ho1_35 Ho 1.0000 0.7500 1.0000
O3_24 O 1.0000 0.6844(3) 0.9344(3)
C2_17 C 0.9969(6) 0.6326(5) 0.9454(6)
H1_17 H 0.9679 0.6176 0.9280
H4_17 H 0.9724 0.6838 0.8653
O7_17 O 0.9157(3) 0.7411(4) 0.9700(3)
C5_17 C 0.8764(4) 0.7413(5) 0.9988(5)
Ho1_36 Ho 0.2500 0.7500 0.2500
O2_18 O 0.3343(3) 0.7411(4) 0.2800(3)
O3_25 O 0.3156(3) 0.7500 0.1844(3)
C1_18 C 0.3736(4) 0.7413(5) 0.2512(5)
C2_18 C 0.3674(5) 0.7469(6) 0.1954(6)
H1_18 H 0.3824 0.7179 0.1780
H2_18 H 0.3847 0.7776 0.1838
O5_18 O 0.2200(3) 0.7589(4) 0.1657(3)
C3_18 C 0.2488(5) 0.7587(5) 0.1264(4)
C4_18 C 0.3046(6) 0.7531(6) 0.1326(5)
H3_18 H 0.3220 0.7821 0.1176
H4_18 H 0.3162 0.7224 0.1153
O7_18 O 0.2589(4) 0.6657(3) 0.2200(3)
O8_21 O 0.2500 0.6844(3) 0.3156(3)
C5_18 C 0.2587(5) 0.6264(4) 0.2488(5)
C6_18 C 0.2531(6) 0.6326(5) 0.3046(6)
H5_18 H 0.2821 0.6176 0.3220
H6_18 H 0.2224 0.6153 0.3162
O10_18 O 0.2411(4) 0.7800(3) 0.3343(3)
C7_18 C 0.2413(5) 0.7512(5) 0.3736(4)
C8_18 C 0.2469(6) 0.6954(6) 0.3674(5)
H7_18 H 0.2179 0.6780 0.3824
H8_18 H 0.2776 0.6838 0.3847
O12_18 O 0.2800(3) 0.8343(3) 0.2411(4)
O13_22 O 0.1844(3) 0.8156(3) 0.2500
C9_18 C 0.2512(5) 0.8736(4) 0.2413(5)
C10_18 C 0.1954(6) 0.8674(5) 0.2469(6)
H9_18 H 0.1780 0.8824 0.2179
H10_18 H 0.1838 0.8847 0.2776
O15_18 O 0.1657(3) 0.7200(3) 0.2589(4)
C11_18 C 0.1264(4) 0.7488(5) 0.2587(5)
C12_18 C 0.1326(5) 0.8046(6) 0.2531(6)
H11_18 H 0.1176 0.8220 0.2821
H12_18 H 0.1153 0.8162 0.2224
Ho1_37 Ho 0.2500 0.0000 0.5000
O2_19 O 0.2589(4) 0.0843(3) 0.5300(3)
O3_26 O 0.2500 0.0656(3) 0.4344(3)
C1_19 C 0.2587(5) 0.1236(4) 0.5012(5)
C2_19 C 0.2531(6) 0.1174(5) 0.4454(6)
H1_19 H 0.2821 0.1324 0.4280
H2_19 H 0.2224 0.1347 0.4338
C4_19 C 0.2469(6) 0.0546(6) 0.3826(5)
H3_19 H 0.2179 0.0720 0.3676
H4_19 H 0.2776 0.0662 0.3653
O7_19 O 0.3343(3) 0.0089(4) 0.4700(3)
O8_22 O 0.3156(3) 0.0000 0.5656(3)
C5_19 C 0.3736(4) 0.0087(5) 0.4988(5)
C6_19 C 0.3674(5) 0.0031(6) 0.5546(6)
H5_19 H 0.3824 0.0321 0.5720
H8_19 H 0.3162 0.0276 0.6347
O12_19 O 0.1657(3) 0.0300(3) 0.4911(4)
C9_19 C 0.1264(4) 0.0012(5) 0.4913(5)
Ho1_38 Ho 0.2500 1.0000 0.5000
O5_19 O 0.2411(4) 0.9700(3) 0.4157(3)
C3_19 C 0.2413(5) 0.9988(5) 0.3764(4)
O8_23 O 0.3156(3) 1.0000 0.5656(3)
H6_19 H 0.3847 0.9724 0.5662
O10_19 O 0.2200(3) 0.9911(4) 0.5843(3)
C7_19 C 0.2488(5) 0.9913(5) 0.6236(4)
C8_19 C 0.3046(6) 0.9969(6) 0.6174(5)
H7_19 H 0.3220 0.9679 0.6324
O13_23 O 0.1844(3) 0.9344(3) 0.5000
C10_19 C 0.1326(5) 0.9454(6) 0.4969(6)
H9_19 H 0.1176 0.9280 0.4679
H10_19 H 0.1153 0.9338 0.5276
O15_19 O 0.2800(3) 0.9157(3) 0.5089(4)
C11_19 C 0.2512(5) 0.8764(4) 0.5087(5)
C12_19 C 0.1954(6) 0.8826(5) 0.5031(6)
H11_19 H 0.1780 0.8676 0.5321
H12_19 H 0.1838 0.8653 0.4724
Ho1_39 Ho 0.0000 0.0000 0.7500
O8_24 O 0.0000 0.0656(3) 0.8156(3)
H6_20 H 0.0276 0.1347 0.8162
C8_20 C 0.0031(6) 0.0546(6) 0.8674(5)
H7_20 H 0.0321 0.0720 0.8824
O15_20 O 0.0843(3) 0.0300(3) 0.7589(4)
C11_20 C 0.1236(4) 0.0012(5) 0.7587(5)
Ho1_40 Ho 0.0000 1.0000 0.7500
O5_20 O 0.0300(3) 0.9911(4) 0.6657(3)
C3_20 C 0.0012(5) 0.9913(5) 0.6264(4)
O10_20 O 0.0089(4) 0.9700(3) 0.8343(3)
C7_20 C 0.0087(5) 0.9988(5) 0.8736(4)
O13_24 O 0.0656(3) 0.9344(3) 0.7500
C10_20 C 0.0546(6) 0.8826(5) 0.7469(6)
H9_20 H 0.0720 0.8676 0.7179
H10_20 H 0.0662 0.8653 0.7776
C12_20 C 0.1174(5) 0.9454(6) 0.7531(6)
H11_20 H 0.1324 0.9280 0.7821
H12_20 H 0.1347 0.9338 0.7224
Ho1_41 Ho 1.0000 0.0000 0.7500
O2_20 O 0.9157(3) 0.0089(4) 0.7800(3)
O3_27 O 0.9344(3) 0.0000 0.6844(3)
C1_20 C 0.8764(4) 0.0087(5) 0.7512(5)
C2_20 C 0.8826(5) 0.0031(6) 0.6954(6)
H1_20 H 0.8676 0.0321 0.6780
H4_20 H 0.9338 0.0276 0.6153
O7_20 O 0.9911(4) 0.0843(3) 0.7200(3)
O8_25 O 1.0000 0.0656(3) 0.8156(3)
C5_20 C 0.9913(5) 0.1236(4) 0.7488(5)
C6_20 C 0.9969(6) 0.1174(5) 0.8046(6)
H5_20 H 0.9679 0.1324 0.8220
H8_20 H 0.9724 0.0662 0.8847
Ho1_42 Ho 1.0000 1.0000 0.7500
O3_28 O 0.9344(3) 1.0000 0.6844(3)
H2_20 H 0.8653 0.9724 0.6838
C4_20 C 0.9454(6) 0.9969(6) 0.6326(5)
H3_20 H 0.9280 0.9679 0.6176
O12_20 O 0.9700(3) 0.9157(3) 0.7411(4)
C9_20 C 0.9988(5) 0.8764(4) 0.7413(5)
Ho1_43 Ho 0.7500 0.0000 0.0000
O10_21 O 0.7589(4) 0.0843(3) 0.0300(3)
C7_21 C 0.7587(5) 0.1236(4) 0.0012(5)
O13_25 O 0.8156(3) 0.0000 0.0656(3)
H10_21 H 0.8162 0.0276 0.1347
C12_21 C 0.8674(5) 0.0031(6) 0.0546(6)
H11_21 H 0.8824 0.0321 0.0720
Ho1_44 Ho 0.7500 0.0000 1.0000
O2_21 O 0.6657(3) 0.0300(3) 0.9911(4)
C1_21 C 0.6264(4) 0.0012(5) 0.9913(5)
O8_26 O 0.7500 0.0656(3) 0.9344(3)
C6_21 C 0.7469(6) 0.0546(6) 0.8826(5)
H5_21 H 0.7179 0.0720 0.8676
H6_21 H 0.7776 0.0662 0.8653
C8_21 C 0.7531(6) 0.1174(5) 0.9454(6)
H7_21 H 0.7821 0.1324 0.9280
H8_21 H 0.7224 0.1347 0.9338
O15_21 O 0.8343(3) 0.0089(4) 0.9700(3)
C11_21 C 0.8736(4) 0.0087(5) 0.9988(5)
Ho1_45 Ho 0.7500 1.0000 0.0000
O3_29 O 0.6844(3) 0.9344(3) 0.0000
H2_21 H 0.6153 0.9338 0.0276
O5_21 O 0.7800(3) 0.9157(3) 0.0089(4)
C3_21 C 0.7512(5) 0.8764(4) 0.0087(5)
C4_21 C 0.6954(6) 0.8826(5) 0.0031(6)
H3_21 H 0.6780 0.8676 0.0321
O12_21 O 0.7200(3) 0.9911(4) 0.0843(3)
O13_26 O 0.8156(3) 1.0000 0.0656(3)
C9_21 C 0.7488(5) 0.9913(5) 0.1236(4)
C10_21 C 0.8046(6) 0.9969(6) 0.1174(5)
H9_21 H 0.8220 0.9679 0.1324
H12_21 H 0.8847 0.9724 0.0662
Ho1_46 Ho 0.7500 1.0000 1.0000
O3_30 O 0.6844(3) 0.9344(3) 1.0000
C2_21 C 0.6326(5) 0.9454(6) 0.9969(6)
H1_21 H 0.6176 0.9280 0.9679
H4_21 H 0.6838 0.8653 0.9724
O7_21 O 0.7411(4) 0.9700(3) 0.9157(3)
C5_21 C 0.7413(5) 0.9988(5) 0.8764(4)
Ho1_47 Ho 0.5000 0.2500 0.0000
O2_22 O 0.4700(3) 0.3343(3) 0.0089(4)
O3_31 O 0.5656(3) 0.3156(3) -0.0000
C1_22 C 0.4988(5) 0.3736(4) 0.0087(5)
C2_22 C 0.5546(6) 0.3674(5) 0.0031(6)
H1_22 H 0.5720 0.3824 0.0321
H4_22 H 0.6347 0.3162 0.0276
O7_22 O 0.5300(3) 0.2589(4) 0.0843(3)
O8_27 O 0.4344(3) 0.2500 0.0656(3)
C5_22 C 0.5012(5) 0.2587(5) 0.1236(4)
C6_22 C 0.4454(6) 0.2531(6) 0.1174(5)
H5_22 H 0.4280 0.2821 0.1324
H6_22 H 0.4338 0.2224 0.1347
C8_22 C 0.3826(5) 0.2469(6) 0.0546(6)
H7_22 H 0.3676 0.2179 0.0720
H8_22 H 0.3653 0.2776 0.0662
O15_22 O 0.4911(4) 0.1657(3) 0.0300(3)
C11_22 C 0.4913(5) 0.1264(4) 0.0012(5)
Ho1_48 Ho 0.5000 0.2500 1.0000
O3_32 O 0.5656(3) 0.3156(3) 1.0000
H2_22 H 0.5662 0.3847 0.9724
O5_22 O 0.5843(3) 0.2200(3) 0.9911(4)
C3_22 C 0.6236(4) 0.2488(5) 0.9913(5)
C4_22 C 0.6174(5) 0.3046(6) 0.9969(6)
H3_22 H 0.6324 0.3220 0.9679
O10_22 O 0.4157(3) 0.2411(4) 0.9700(3)
C7_22 C 0.3764(4) 0.2413(5) 0.9988(5)
O12_22 O 0.5089(4) 0.2800(3) 0.9157(3)
O13_27 O 0.5000 0.1844(3) 0.9344(3)
C9_22 C 0.5087(5) 0.2512(5) 0.8764(4)
C10_22 C 0.5031(6) 0.1954(6) 0.8826(5)
H9_22 H 0.5321 0.1780 0.8676
H10_22 H 0.4724 0.1838 0.8653
C12_22 C 0.4969(6) 0.1326(5) 0.9454(6)
H11_22 H 0.4679 0.1176 0.9280
H12_22 H 0.5276 0.1153 0.9338
Ho1_49 Ho 0.2500 0.2500 0.7500
O2_23 O 0.2800(3) 0.3343(3) 0.7411(4)
O3_33 O 0.1844(3) 0.3156(3) 0.7500
C1_23 C 0.2512(5) 0.3736(4) 0.7413(5)
C2_23 C 0.1954(6) 0.3674(5) 0.7469(6)
H1_23 H 0.1780 0.3824 0.7179
H2_23 H 0.1838 0.3847 0.7776
O5_23 O 0.1657(3) 0.2200(3) 0.7589(4)
C3_23 C 0.1264(4) 0.2488(5) 0.7587(5)
C4_23 C 0.1326(5) 0.3046(6) 0.7531(6)
H3_23 H 0.1176 0.3220 0.7821
H4_23 H 0.1153 0.3162 0.7224
O7_23 O 0.2200(3) 0.2589(4) 0.6657(3)
O8_28 O 0.3156(3) 0.2500 0.6844(3)
C5_23 C 0.2488(5) 0.2587(5) 0.6264(4)
C6_23 C 0.3046(6) 0.2531(6) 0.6326(5)
H5_23 H 0.3220 0.2821 0.6176
H6_23 H 0.3162 0.2224 0.6153
O10_23 O 0.3343(3) 0.2411(4) 0.7800(3)
C7_23 C 0.3736(4) 0.2413(5) 0.7512(5)
C8_23 C 0.3674(5) 0.2469(6) 0.6954(6)
H7_23 H 0.3824 0.2179 0.6780
H8_23 H 0.3847 0.2776 0.6838
O12_23 O 0.2411(4) 0.2800(3) 0.8343(3)
O13_28 O 0.2500 0.1844(3) 0.8156(3)
C9_23 C 0.2413(5) 0.2512(5) 0.8736(4)
C10_23 C 0.2469(6) 0.1954(6) 0.8674(5)
H9_23 H 0.2179 0.1780 0.8824
H10_23 H 0.2776 0.1838 0.8847
O15_23 O 0.2589(4) 0.1657(3) 0.7200(3)
C11_23 C 0.2587(5) 0.1264(4) 0.7488(5)
C12_23 C 0.2531(6) 0.1326(5) 0.8046(6)
H11_23 H 0.2821 0.1176 0.8220
H12_23 H 0.2224 0.1153 0.8162
Ho1_50 Ho 0.7500 0.2500 0.2500
O2_24 O 0.6657(3) 0.2200(3) 0.2589(4)
O3_34 O 0.6844(3) 0.3156(3) 0.2500
C1_24 C 0.6264(4) 0.2488(5) 0.2587(5)
C2_24 C 0.6326(5) 0.3046(6) 0.2531(6)
H1_24 H 0.6176 0.3220 0.2821
H2_24 H 0.6153 0.3162 0.2224
O5_24 O 0.7800(3) 0.3343(3) 0.2411(4)
C3_24 C 0.7512(5) 0.3736(4) 0.2413(5)
C4_24 C 0.6954(6) 0.3674(5) 0.2469(6)
H3_24 H 0.6780 0.3824 0.2179
H4_24 H 0.6838 0.3847 0.2776
O7_24 O 0.7411(4) 0.2800(3) 0.3343(3)
O8_29 O 0.7500 0.1844(3) 0.3156(3)
C5_24 C 0.7413(5) 0.2512(5) 0.3736(4)
C6_24 C 0.7469(6) 0.1954(6) 0.3674(5)
H5_24 H 0.7179 0.1780 0.3824
H6_24 H 0.7776 0.1838 0.3847
O10_24 O 0.7589(4) 0.1657(3) 0.2200(3)
C7_24 C 0.7587(5) 0.1264(4) 0.2488(5)
C8_24 C 0.7531(6) 0.1326(5) 0.3046(6)
H7_24 H 0.7821 0.1176 0.3220
H8_24 H 0.7224 0.1153 0.3162
O12_24 O 0.7200(3) 0.2589(4) 0.1657(3)
O13_29 O 0.8156(3) 0.2500 0.1844(3)
C9_24 C 0.7488(5) 0.2587(5) 0.1264(4)
C10_24 C 0.8046(6) 0.2531(6) 0.1326(5)
H9_24 H 0.8220 0.2821 0.1176
H10_24 H 0.8162 0.2224 0.1153
O15_24 O 0.8343(3) 0.2411(4) 0.2800(3)
C11_24 C 0.8736(4) 0.2413(5) 0.2512(5)
C12_24 C 0.8674(5) 0.2469(6) 0.1954(6)
H11_24 H 0.8824 0.2179 0.1780
H12_24 H 0.8847 0.2776 0.1838
Ho1_51 Ho 0.0000 0.5000 0.2500
O2_25 O 0.0843(3) 0.5300(3) 0.2589(4)
O3_35 O 0.0656(3) 0.4344(3) 0.2500
C1_25 C 0.1236(4) 0.5012(5) 0.2587(5)
C2_25 C 0.1174(5) 0.4454(6) 0.2531(6)
H1_25 H 0.1324 0.4280 0.2821
H2_25 H 0.1347 0.4338 0.2224
C4_25 C 0.0546(6) 0.3826(5) 0.2469(6)
H3_25 H 0.0720 0.3676 0.2179
H4_25 H 0.0662 0.3653 0.2776
O7_25 O 0.0089(4) 0.4700(3) 0.3343(3)
O8_30 O 0.0000 0.5656(3) 0.3156(3)
C5_25 C 0.0087(5) 0.4988(5) 0.3736(4)
C6_25 C 0.0031(6) 0.5546(6) 0.3674(5)
H5_25 H 0.0321 0.5720 0.3824
H8_25 H 0.0276 0.6347 0.3162
O12_25 O 0.0300(3) 0.4911(4) 0.1657(3)
C9_25 C 0.0012(5) 0.4913(5) 0.1264(4)
Ho1_52 Ho 1.0000 0.5000 0.2500
O5_25 O 0.9700(3) 0.4157(3) 0.2411(4)
C3_25 C 0.9988(5) 0.3764(4) 0.2413(5)
O8_31 O 1.0000 0.5656(3) 0.3156(3)
H6_25 H 0.9724 0.5662 0.3847
O10_25 O 0.9911(4) 0.5843(3) 0.2200(3)
C7_25 C 0.9913(5) 0.6236(4) 0.2488(5)
C8_25 C 0.9969(6) 0.6174(5) 0.3046(6)
H7_25 H 0.9679 0.6324 0.3220
O13_30 O 0.9344(3) 0.5000 0.1844(3)
C10_25 C 0.9454(6) 0.4969(6) 0.1326(5)
H9_25 H 0.9280 0.4679 0.1176
H10_25 H 0.9338 0.5276 0.1153
O15_25 O 0.9157(3) 0.5089(4) 0.2800(3)
C11_25 C 0.8764(4) 0.5087(5) 0.2512(5)
C12_25 C 0.8826(5) 0.5031(6) 0.1954(6)
H11_25 H 0.8676 0.5321 0.1780
H12_25 H 0.8653 0.4724 0.1838
Ho1_53 Ho 0.0000 0.2500 0.5000
O3_36 O 0.0000 0.1844(3) 0.4344(3)
H2_26 H 0.0276 0.1153 0.4338
O5_26 O 0.0089(4) 0.2800(3) 0.4157(3)
C3_26 C 0.0087(5) 0.2512(5) 0.3764(4)
C4_26 C 0.0031(6) 0.1954(6) 0.3826(5)
H3_26 H 0.0321 0.1780 0.3676
O10_26 O 0.0300(3) 0.2589(4) 0.5843(3)
C7_26 C 0.0012(5) 0.2587(5) 0.6236(4)
O12_26 O 0.0843(3) 0.2200(3) 0.4911(4)
O13_31 O 0.0656(3) 0.3156(3) 0.5000
C9_26 C 0.1236(4) 0.2488(5) 0.4913(5)
C10_26 C 0.1174(5) 0.3046(6) 0.4969(6)
H9_26 H 0.1324 0.3220 0.4679
H10_26 H 0.1347 0.3162 0.5276
C12_26 C 0.0546(6) 0.3674(5) 0.5031(6)
H11_26 H 0.0720 0.3824 0.5321
H12_26 H 0.0662 0.3847 0.4724
Ho1_54 Ho 1.0000 0.2500 0.5000
O2_26 O 0.9911(4) 0.1657(3) 0.5300(3)
O3_37 O 1.0000 0.1844(3) 0.4344(3)
C1_26 C 0.9913(5) 0.1264(4) 0.5012(5)
C2_26 C 0.9969(6) 0.1326(5) 0.4454(6)
H1_26 H 0.9679 0.1176 0.4280
H4_26 H 0.9724 0.1838 0.3653
O7_26 O 0.9157(3) 0.2411(4) 0.4700(3)
O8_32 O 0.9344(3) 0.2500 0.5656(3)
C5_26 C 0.8764(4) 0.2413(5) 0.4988(5)
C6_26 C 0.8826(5) 0.2469(6) 0.5546(6)
H5_26 H 0.8676 0.2179 0.5720
H6_26 H 0.8653 0.2776 0.5662
C8_26 C 0.9454(6) 0.2531(6) 0.6174(5)
H7_26 H 0.9280 0.2821 0.6324
H8_26 H 0.9338 0.2224 0.6347
O15_26 O 0.9700(3) 0.3343(3) 0.5089(4)
C11_26 C 0.9988(5) 0.3736(4) 0.5087(5)
Ho1_55 Ho 0.2500 0.5000 0.0000
O2_27 O 0.2589(4) 0.5843(3) 0.0300(3)
C1_27 C 0.2587(5) 0.6236(4) 0.0012(5)
O8_33 O 0.3156(3) 0.5000 0.0656(3)
C6_27 C 0.3674(5) 0.5031(6) 0.0546(6)
H5_27 H 0.3824 0.5321 0.0720
H6_27 H 0.3847 0.4724 0.0662
O10_27 O 0.2200(3) 0.4911(4) 0.0843(3)
C7_27 C 0.2488(5) 0.4913(5) 0.1236(4)
C8_27 C 0.3046(6) 0.4969(6) 0.1174(5)
H7_27 H 0.3220 0.4679 0.1324
H8_27 H 0.3162 0.5276 0.1347
O13_32 O 0.1844(3) 0.4344(3) 0.0000
H10_27 H 0.1153 0.4338 0.0276
O15_27 O 0.2800(3) 0.4157(3) 0.0089(4)
C11_27 C 0.2512(5) 0.3764(4) 0.0087(5)
C12_27 C 0.1954(6) 0.3826(5) 0.0031(6)
H11_27 H 0.1780 0.3676 0.0321
Ho1_56 Ho 0.2500 0.5000 1.0000
O3_38 O 0.2500 0.5656(3) 0.9344(3)
C2_27 C 0.2531(6) 0.6174(5) 0.9454(6)
H1_27 H 0.2821 0.6324 0.9280
H2_27 H 0.2224 0.6347 0.9338
O5_27 O 0.2411(4) 0.4700(3) 0.9157(3)
C3_27 C 0.2413(5) 0.4988(5) 0.8764(4)
C4_27 C 0.2469(6) 0.5546(6) 0.8826(5)
H3_27 H 0.2179 0.5720 0.8676
H4_27 H 0.2776 0.5662 0.8653
O7_27 O 0.3343(3) 0.5089(4) 0.9700(3)
C5_27 C 0.3736(4) 0.5087(5) 0.9988(5)
O12_27 O 0.1657(3) 0.5300(3) 0.9911(4)
O13_33 O 0.1844(3) 0.4344(3) 1.0000
C9_27 C 0.1264(4) 0.5012(5) 0.9913(5)
C10_27 C 0.1326(5) 0.4454(6) 0.9969(6)
H9_27 H 0.1176 0.4280 0.9679
H12_27 H 0.1838 0.3653 0.9724
Ho1_57 Ho 0.7500 0.5000 0.5000
O2_28 O 0.6657(3) 0.5300(3) 0.4911(4)
O3_39 O 0.6844(3) 0.4344(3) 0.5000
C1_28 C 0.6264(4) 0.5012(5) 0.4913(5)
C2_28 C 0.6326(5) 0.4454(6) 0.4969(6)
H1_28 H 0.6176 0.4280 0.4679
H2_28 H 0.6153 0.4338 0.5276
O5_28 O 0.7800(3) 0.4157(3) 0.5089(4)
C3_28 C 0.7512(5) 0.3764(4) 0.5087(5)
C4_28 C 0.6954(6) 0.3826(5) 0.5031(6)
H3_28 H 0.6780 0.3676 0.5321
H4_28 H 0.6838 0.3653 0.4724
O7_28 O 0.7411(4) 0.4700(3) 0.4157(3)
O8_34 O 0.7500 0.5656(3) 0.4344(3)
C5_28 C 0.7413(5) 0.4988(5) 0.3764(4)
C6_28 C 0.7469(6) 0.5546(6) 0.3826(5)
H5_28 H 0.7179 0.5720 0.3676
H6_28 H 0.7776 0.5662 0.3653
O10_28 O 0.7589(4) 0.5843(3) 0.5300(3)
C7_28 C 0.7587(5) 0.6236(4) 0.5012(5)
C8_28 C 0.7531(6) 0.6174(5) 0.4454(6)
H7_28 H 0.7821 0.6324 0.4280
H8_28 H 0.7224 0.6347 0.4338
O12_28 O 0.7200(3) 0.4911(4) 0.5843(3)
O13_34 O 0.8156(3) 0.5000 0.5656(3)
C9_28 C 0.7488(5) 0.4913(5) 0.6236(4)
C10_28 C 0.8046(6) 0.4969(6) 0.6174(5)
H9_28 H 0.8220 0.4679 0.6324
H10_28 H 0.8162 0.5276 0.6347
O15_28 O 0.8343(3) 0.5089(4) 0.4700(3)
C11_28 C 0.8736(4) 0.5087(5) 0.4988(5)
C12_28 C 0.8674(5) 0.5031(6) 0.5546(6)
H11_28 H 0.8824 0.5321 0.5720
H12_28 H 0.8847 0.4724 0.5662
Ho1_58 Ho 0.5000 0.7500 0.5000
O2_29 O 0.4700(3) 0.8343(3) 0.5089(4)
O3_40 O 0.5656(3) 0.8156(3) 0.5000
C1_29 C 0.4988(5) 0.8736(4) 0.5087(5)
C2_29 C 0.5546(6) 0.8674(5) 0.5031(6)
H1_29 H 0.5720 0.8824 0.5321
H2_29 H 0.5662 0.8847 0.4724
O5_29 O 0.5843(3) 0.7200(3) 0.4911(4)
C3_29 C 0.6236(4) 0.7488(5) 0.4913(5)
C4_29 C 0.6174(5) 0.8046(6) 0.4969(6)
H3_29 H 0.6324 0.8220 0.4679
H4_29 H 0.6347 0.8162 0.5276
O7_29 O 0.5300(3) 0.7589(4) 0.5843(3)
O8_35 O 0.4344(3) 0.7500 0.5656(3)
C5_29 C 0.5012(5) 0.7587(5) 0.6236(4)
C6_29 C 0.4454(6) 0.7531(6) 0.6174(5)
H5_29 H 0.4280 0.7821 0.6324
H6_29 H 0.4338 0.7224 0.6347
O10_29 O 0.4157(3) 0.7411(4) 0.4700(3)
C7_29 C 0.3764(4) 0.7413(5) 0.4988(5)
C8_29 C 0.3826(5) 0.7469(6) 0.5546(6)
H7_29 H 0.3676 0.7179 0.5720
H8_29 H 0.3653 0.7776 0.5662
O12_29 O 0.5089(4) 0.7800(3) 0.4157(3)
O13_35 O 0.5000 0.6844(3) 0.4344(3)
C9_29 C 0.5087(5) 0.7512(5) 0.3764(4)
C10_29 C 0.5031(6) 0.6954(6) 0.3826(5)
H9_29 H 0.5321 0.6780 0.3676
H10_29 H 0.4724 0.6838 0.3653
O15_29 O 0.4911(4) 0.6657(3) 0.5300(3)
C11_29 C 0.4913(5) 0.6264(4) 0.5012(5)
C12_29 C 0.4969(6) 0.6326(5) 0.4454(6)
H11_29 H 0.4679 0.6176 0.4280
H12_29 H 0.5276 0.6153 0.4338
Ho1_59 Ho 0.7500 0.7500 0.7500
O2_30 O 0.6657(3) 0.7200(3) 0.7589(4)
O3_41 O 0.6844(3) 0.8156(3) 0.7500
C1_30 C 0.6264(4) 0.7488(5) 0.7587(5)
C2_30 C 0.6326(5) 0.8046(6) 0.7531(6)
H1_30 H 0.6176 0.8220 0.7821
H2_30 H 0.6153 0.8162 0.7224
O5_30 O 0.7800(3) 0.8343(3) 0.7411(4)
C3_30 C 0.7512(5) 0.8736(4) 0.7413(5)
C4_30 C 0.6954(6) 0.8674(5) 0.7469(6)
H3_30 H 0.6780 0.8824 0.7179
H4_30 H 0.6838 0.8847 0.7776
O7_30 O 0.7411(4) 0.7800(3) 0.8343(3)
O8_36 O 0.7500 0.6844(3) 0.8156(3)
C5_30 C 0.7413(5) 0.7512(5) 0.8736(4)
C6_30 C 0.7469(6) 0.6954(6) 0.8674(5)
H5_30 H 0.7179 0.6780 0.8824
H6_30 H 0.7776 0.6838 0.8847
O10_30 O 0.7589(4) 0.6657(3) 0.7200(3)
C7_30 C 0.7587(5) 0.6264(4) 0.7488(5)
C8_30 C 0.7531(6) 0.6326(5) 0.8046(6)
H7_30 H 0.7821 0.6176 0.8220
H8_30 H 0.7224 0.6153 0.8162
O12_30 O 0.7200(3) 0.7589(4) 0.6657(3)
O13_36 O 0.8156(3) 0.7500 0.6844(3)
C9_30 C 0.7488(5) 0.7587(5) 0.6264(4)
C10_30 C 0.8046(6) 0.7531(6) 0.6326(5)
H9_30 H 0.8220 0.7821 0.6176
H10_30 H 0.8162 0.7224 0.6153
O15_30 O 0.8343(3) 0.7411(4) 0.7800(3)
C11_30 C 0.8736(4) 0.7413(5) 0.7512(5)
C12_30 C 0.8674(5) 0.7469(6) 0.6954(6)
H11_30 H 0.8824 0.7179 0.6780
H12_30 H 0.8847 0.7776 0.6838
Ho1_60 Ho 0.5000 0.0000 0.2500
O2_31 O 0.4157(3) 0.0089(4) 0.2800(3)
O3_42 O 0.4344(3) -0.0000 0.1844(3)
C1_31 C 0.3764(4) 0.0087(5) 0.2512(5)
C2_31 C 0.3826(5) 0.0031(6) 0.1954(6)
H1_31 H 0.3676 0.0321 0.1780
H4_31 H 0.4338 0.0276 0.1153
O7_31 O 0.4911(4) 0.0843(3) 0.2200(3)
O8_37 O 0.5000 0.0656(3) 0.3156(3)
C5_31 C 0.4913(5) 0.1236(4) 0.2488(5)
C6_31 C 0.4969(6) 0.1174(5) 0.3046(6)
H5_31 H 0.4679 0.1324 0.3220
H6_31 H 0.5276 0.1347 0.3162
C8_31 C 0.5031(6) 0.0546(6) 0.3674(5)
H7_31 H 0.5321 0.0720 0.3824
H8_31 H 0.4724 0.0662 0.3847
O15_31 O 0.5843(3) 0.0300(3) 0.2589(4)
C11_31 C 0.6236(4) 0.0012(5) 0.2587(5)
Ho1_61 Ho 0.5000 1.0000 0.2500
O3_43 O 0.4344(3) 1.0000 0.1844(3)
H2_31 H 0.3653 0.9724 0.1838
O5_31 O 0.5300(3) 0.9911(4) 0.1657(3)
C3_31 C 0.5012(5) 0.9913(5) 0.1264(4)
C4_31 C 0.4454(6) 0.9969(6) 0.1326(5)
H3_31 H 0.4280 0.9679 0.1176
O10_31 O 0.5089(4) 0.9700(3) 0.3343(3)
C7_31 C 0.5087(5) 0.9988(5) 0.3736(4)
O12_31 O 0.4700(3) 0.9157(3) 0.2411(4)
O13_37 O 0.5656(3) 0.9344(3) 0.2500
C9_31 C 0.4988(5) 0.8764(4) 0.2413(5)
C10_31 C 0.5546(6) 0.8826(5) 0.2469(6)
H9_31 H 0.5720 0.8676 0.2179
H10_31 H 0.5662 0.8653 0.2776
C12_31 C 0.6174(5) 0.9454(6) 0.2531(6)
H11_31 H 0.6324 0.9280 0.2821
H12_31 H 0.6347 0.9338 0.2224
Ho1_62 Ho 0.5000 0.5000 0.7500
O2_32 O 0.5843(3) 0.5300(3) 0.7589(4)
O3_44 O 0.5656(3) 0.4344(3) 0.7500
C1_32 C 0.6236(4) 0.5012(5) 0.7587(5)
C2_32 C 0.6174(5) 0.4454(6) 0.7531(6)
H1_32 H 0.6324 0.4280 0.7821
H2_32 H 0.6347 0.4338 0.7224
O5_32 O 0.4700(3) 0.4157(3) 0.7411(4)
C3_32 C 0.4988(5) 0.3764(4) 0.7413(5)
C4_32 C 0.5546(6) 0.3826(5) 0.7469(6)
H3_32 H 0.5720 0.3676 0.7179
H4_32 H 0.5662 0.3653 0.7776
O7_32 O 0.5089(4) 0.4700(3) 0.8343(3)
O8_38 O 0.5000 0.5656(3) 0.8156(3)
C5_32 C 0.5087(5) 0.4988(5) 0.8736(4)
C6_32 C 0.5031(6) 0.5546(6) 0.8674(5)
H5_32 H 0.5321 0.5720 0.8824
H6_32 H 0.4724 0.5662 0.8847
O10_32 O 0.4911(4) 0.5843(3) 0.7200(3)
C7_32 C 0.4913(5) 0.6236(4) 0.7488(5)
C8_32 C 0.4969(6) 0.6174(5) 0.8046(6)
H7_32 H 0.4679 0.6324 0.8220
H8_32 H 0.5276 0.6347 0.8162
O12_32 O 0.5300(3) 0.4911(4) 0.6657(3)
O13_38 O 0.4344(3) 0.5000 0.6844(3)
C9_32 C 0.5012(5) 0.4913(5) 0.6264(4)
C10_32 C 0.4454(6) 0.4969(6) 0.6326(5)
H9_32 H 0.4280 0.4679 0.6176
H10_32 H 0.4338 0.5276 0.6153
O15_32 O 0.4157(3) 0.5089(4) 0.7800(3)
C11_32 C 0.3764(4) 0.5087(5) 0.7512(5)
C12_32 C 0.3826(5) 0.5031(6) 0.6954(6)
H11_32 H 0.3676 0.5321 0.6780
H12_32 H 0.3653 0.4724 0.6838
loop_
_geom_bond_atom_site_label_1
_geom_bond_atom_site_label_2
_geom_bond_site_symmetry_1
_geom_bond_site_symmetry_2
O3 Ho1 1_555 1_555
C2 O3 1_555 1_555
H1 C2 1_555 1_555
O6 C5 1_555 1_555
O7 Ho1 1_555 1_555
C5 O7 1_555 1_555
Cd2 O6 1_555 1_555
O19 Cd1 1_555 1_555
Ho1_2 O2 1_555 1_555
Cd1_2 O1 1_555 1_555
O1 C1 1_555 1_555
O2 C1 1_555 1_555
O8 Ho1_2 1_555 1_555
C6 O8 1_555 1_555
H5 C6 1_555 1_555
H6 C6 1_555 1_555
C8 O8 1_555 1_555
H7 C8 1_555 1_555
H8 C8 1_555 1_555
O14 C11 1_555 1_555
O15 Ho1_2 1_555 1_555
C11 O15 1_555 1_555
Cd6_2 O14 1_555 1_555
O20 Cd1_2 1_555 1_555
O3_2 Ho1_3 1_555 1_555
O4 C3 1_555 1_555
O5 Ho1_3 1_555 1_555
C3 O5 1_555 1_555
C4 O3_2 1_555 1_555
H3 C4 1_555 1_555
O11 C9 1_555 1_555
O12 Ho1_3 1_555 1_555
O13 Ho1_3 1_555 1_555
C9 O12 1_555 1_555
C10 O13 1_555 1_555
H9 C10 1_555 1_555
Cd3_2 O4 1_555 1_555
Cd4 O11 1_555 1_555
O17 Cd1_3 1_555 1_555
O18 Cd1_3 1_555 1_555
C3 C4 1_555 1_555
C9 C10 1_555 1_555
O9 C7 1_555 1_555
O10 Ho1_4 1_555 1_555
C7 O10 1_555 1_555
O13_2 Ho1_4 1_555 1_555
C12 O13_2 1_555 1_555
H11 C12 1_555 1_555
Cd5_2 O9 1_555 1_555
O16 Cd1_4 1_555 1_555
Ho1_5 O2_2 1_555 1_555
Cd1_5 O1_2 1_555 1_555
O1_2 C1_2 1_555 1_555
O2_2 C1_2 1_555 1_555
O3_3 Ho1_5 1_555 1_555
C1_2 C2_2 1_555 1_555
C2_2 O3_3 1_555 1_555
H1_2 C2_2 1_555 1_555
H2_2 C2_2 1_555 1_555
O4_2 C3_2 1_555 1_555
O5_2 Ho1_5 1_555 1_555
C3_2 O5_2 1_555 1_555
C4_2 O3_3 1_555 1_555
H3_2 C4_2 1_555 1_555
H4_2 C4_2 1_555 1_555
O6_2 C5_2 1_555 1_555
O7_2 Ho1_5 1_555 1_555
O8_2 Ho1_5 1_555 1_555
C5_2 O7_2 1_555 1_555
C6_2 O8_2 1_555 1_555
H5_2 C6_2 1_555 1_555
H6_2 C6_2 1_555 1_555
O9_2 C7_2 1_555 1_555
O10_2 Ho1_5 1_555 1_555
C7_2 O10_2 1_555 1_555
C8_2 O8_2 1_555 1_555
H7_2 C8_2 1_555 1_555
H8_2 C8_2 1_555 1_555
O11_2 C9_2 1_555 1_555
O12_2 Ho1_5 1_555 1_555
O13_3 Ho1_5 1_555 1_555
C9_2 O12_2 1_555 1_555
C10_2 O13_3 1_555 1_555
H9_2 C10_2 1_555 1_555
H10_2 C10_2 1_555 1_555
O14_2 C11_2 1_555 1_555
O15_2 Ho1_5 1_555 1_555
C11_2 O15_2 1_555 1_555
C12_2 O13_3 1_555 1_555
H11_2 C12_2 1_555 1_555
H12_2 C12_2 1_555 1_555
Cd2_3 O6_2 1_555 1_555
Cd4_2 O4_2 1_555 1_555
Cd4_3 O11_2 1_555 1_555
Cd5_3 O9_2 1_555 1_555
Cd5_2 O14_2 1_555 1_555
O16_2 Cd1_5 1_555 1_555
O17_2 Cd1_5 1_555 1_555
O18_2 Cd1_5 1_555 1_555
O19_2 Cd1_5 1_555 1_555
O20_2 Cd1_5 1_555 1_555
C3_2 C4_2 1_555 1_555
C5_2 C6_2 1_555 1_555
C7_2 C8_2 1_555 1_555
C9_2 C10_2 1_555 1_555
C11_2 C12_2 1_555 1_555
O4_3 C3_3 1_555 1_555
O5_3 Ho1_6 1_555 1_555
C3_3 O5_3 1_555 1_555
O8_3 Ho1_6 1_555 1_555
O9_3 C7_3 1_555 1_555
O10_3 Ho1_6 1_555 1_555
C7_3 O10_3 1_555 1_555
C8_3 O8_3 1_555 1_555
H7_3 C8_3 1_555 1_555
O13_4 Ho1_6 1_555 1_555
C10_3 O13_4 1_555 1_555
H9_3 C10_3 1_555 1_555
H10_3 C10_3 1_555 1_555
O14_3 C11_3 1_555 1_555
O15_3 Ho1_6 1_555 1_555
C11_3 O15_3 1_555 1_555
C12_3 O13_4 1_555 1_555
H11_3 C12_3 1_555 1_555
H12_3 C12_3 1_555 1_555
Cd4_3 O4_3 1_555 1_555
Cd5_4 O9_3 1_555 1_555
Cd5_3 O14_3 1_555 1_555
C7_3 C8_3 1_555 1_555
C11_3 C12_3 1_555 1_555
Ho1_7 O2_3 1_555 1_555
Cd1_6 O1_3 1_555 1_555
O1_3 C1_3 1_555 1_555
O2_3 C1_3 1_555 1_555
O3_4 Ho1_7 1_555 1_555
C1_3 C2_3 1_555 1_555
C2_3 O3_4 1_555 1_555
H1_3 C2_3 1_555 1_555
H2_3 C2_3 1_555 1_555
C4_3 O3_4 1_555 1_555
H3_3 C4_3 1_555 1_555
H4_3 C4_3 1_555 1_555
O6_3 C5_3 1_555 1_555
O7_3 Ho1_7 1_555 1_555
O8_4 Ho1_7 1_555 1_555
C5_3 O7_3 1_555 1_555
C6_3 O8_4 1_555 1_555
H5_3 C6_3 1_555 1_555
O11_3 C9_3 1_555 1_555
O12_3 Ho1_7 1_555 1_555
C9_3 O12_3 1_555 1_555
Cd2_5 O6_3 1_555 1_555
Cd4_8 O11_3 1_555 1_555
O16_3 Cd1_6 1_555 1_555
O17_3 Cd1_6 1_555 1_555
O18_3 Cd1_6 1_555 1_555
O19_3 Cd1_6 1_555 1_555
O20_3 Cd1_6 1_555 1_555
C5_3 C6_3 1_555 1_555
O3_5 Ho1_8 1_555 1_555
C4_4 O3_5 1_555 1_555
H3_4 C4_4 1_555 1_555
O11_4 C9_4 1_555 1_555
O12_4 Ho1_8 1_555 1_555
C9_4 O12_4 1_555 1_555
Cd3 O11_4 1_555 1_555
O16_4 Cd1_7 1_555 1_555
O17_4 Cd1_7 1_555 1_555
O18_4 Cd1_7 1_555 1_555
Ho1_9 O2_4 1_555 1_555
Cd1_8 O1_4 1_555 1_555
O1_4 C1_4 1_555 1_555
O2_4 C1_4 1_555 1_555
O3_6 Ho1_9 1_555 1_555
C1_4 C2_4 1_555 1_555
C2_4 O3_6 1_555 1_555
H1_4 C2_4 1_555 1_555
O6_4 C5_4 1_555 1_555
O7_4 Ho1_9 1_555 1_555
O8_5 Ho1_9 1_555 1_555
C5_4 O7_4 1_555 1_555
C6_4 O8_5 1_555 1_555
H5_4 C6_4 1_555 1_555
Cd2_6 O6_4 1_555 1_555
O19_4 Cd1_8 1_555 1_555
O20_4 Cd1_8 1_555 1_555
C5_4 C6_4 1_555 1_555
O4_4 C3_4 1_555 1_555
O5_4 Ho1_10 1_555 1_555
C3_4 O5_4 1_555 1_555
O9_4 C7_4 1_555 1_555
O10_4 Ho1_10 1_555 1_555
C7_4 O10_4 1_555 1_555
O13_5 Ho1_10 1_555 1_555
C10_4 O13_5 1_555 1_555
H9_4 C10_4 1_555 1_555
H10_4 C10_4 1_555 1_555
C12_4 O13_5 1_555 1_555
H11_4 C12_4 1_555 1_555
H12_4 C12_4 1_555 1_555
Cd4_7 O4_4 1_555 1_555
Cd6_5 O9_4 1_555 1_555
O8_6 Ho1_11 1_555 1_555
C8_4 O8_6 1_555 1_555
H7_4 C8_4 1_555 1_555
O14_4 C11_4 1_555 1_555
O15_4 Ho1_11 1_555 1_555
C11_4 O15_4 1_555 1_555
Cd5_5 O14_4 1_555 1_555
O19_5 Cd2_6 1_555 1_555
O20_5 Cd2_6 1_555 1_555
O16_5 Cd2_7 1_555 1_555
O17_5 Cd2_7 1_555 1_555
O18_5 Cd2_7 1_555 1_555
O16_6 Cd2 1_555 1_555
O20_6 Cd2 1_555 1_555
O17_6 Cd2_2 1_555 1_555
O18_6 Cd2_2 1_555 1_555
O19_6 Cd2_2 1_555 1_555
O16_7 Cd2_3 1_555 1_555
O17_7 Cd2_3 1_555 1_555
O18_7 Cd2_3 1_555 1_555
O19_7 Cd2_3 1_555 1_555
O20_7 Cd2_3 1_555 1_555
O16_8 Cd2_4 1_555 1_555
O17_8 Cd2_4 1_555 1_555
O18_8 Cd2_4 1_555 1_555
O19_8 Cd2_5 1_555 1_555
O20_8 Cd2_5 1_555 1_555
O19_9 Cd4_5 1_555 1_555
O17_9 Cd4_6 1_555 1_555
O18_9 Cd4_6 1_555 1_555
O20_9 Cd4_7 1_555 1_555
O17_10 Cd3 1_555 1_555
O18_10 Cd3 1_555 1_555
O19_10 Cd3_2 1_555 1_555
O20_10 Cd3_2 1_555 1_555
O18_11 Cd4 1_555 1_555
O20_11 Cd4 1_555 1_555
O17_11 Cd4_2 1_555 1_555
O19_11 Cd4_2 1_555 1_555
O20_12 Cd4_3 1_555 1_555
O17_12 Cd4_4 1_555 1_555
O18_12 Cd4_4 1_555 1_555
O19_12 Cd4_4 1_555 1_555
O17_13 Cd5 1_555 1_555
O18_13 Cd5 1_555 1_555
O19_13 Cd5 1_555 1_555
O20_13 Cd5_2 1_555 1_555
O17_14 Cd5_3 1_555 1_555
O18_14 Cd5_3 1_555 1_555
O19_14 Cd5_3 1_555 1_555
O20_14 Cd5_3 1_555 1_555
O19_15 Cd5_4 1_555 1_555
O20_15 Cd5_4 1_555 1_555
O17_15 Cd5_5 1_555 1_555
O18_15 Cd5_5 1_555 1_555
O17_16 Cd6_3 1_555 1_555
O18_16 Cd6_4 1_555 1_555
O20_16 Cd6_6 1_555 1_555
O19_16 Cd6_7 1_555 1_555
O3_7 Ho1_12 1_555 1_555
C2_5 O3_7 1_555 1_555
H1_5 C2_5 1_555 1_555
O16_4 C5_5 1_555 1_555
O7_5 Ho1_12 1_555 1_555
C5_5 O7_5 1_555 1_555
O19_17 Cd1_9 1_555 1_555
O3_8 Ho1_13 1_555 1_555
O17_6 C3_5 1_555 1_555
O5_5 Ho1_13 1_555 1_555
C3_5 O5_5 1_555 1_555
C4_5 O3_8 1_555 1_555
H3_5 C4_5 1_555 1_555
O11_5 C9_5 1_555 1_555
O12_5 Ho1_13 1_555 1_555
O13_6 Ho1_13 1_555 1_555
C9_5 O12_5 1_555 1_555
C10_5 O13_6 1_555 1_555
H9_5 C10_5 1_555 1_555
Cd4_9 O11_5 1_555 1_555
O17_17 Cd1_10 1_555 1_555
O18_17 Cd1_10 1_555 1_555
C3_5 C4_5 1_555 1_555
C9_5 C10_5 1_555 1_555
Ho1_14 O2_5 1_555 1_555
Cd1_11 O1_5 1_555 1_555
O1_5 C1_5 1_555 1_555
O2_5 C1_5 1_555 1_555
O8_7 Ho1_14 1_555 1_555
C6_5 O8_7 1_555 1_555
H5_5 C6_5 1_555 1_555
H6_5 C6_5 1_555 1_555
C8_5 O8_7 1_555 1_555
H7_5 C8_5 1_555 1_555
H8_5 C8_5 1_555 1_555
O17_16 C11_5 1_555 1_555
O15_5 Ho1_14 1_555 1_555
C11_5 O15_5 1_555 1_555
O20_17 Cd1_11 1_555 1_555
O9_5 C7_5 1_555 1_555
O10_5 Ho1_15 1_555 1_555
C7_5 O10_5 1_555 1_555
O13_7 Ho1_15 1_555 1_555
C12_5 O13_7 1_555 1_555
H11_5 C12_5 1_555 1_555
Cd5_7 O9_5 1_555 1_555
O16_9 Cd1_12 1_555 1_555
O3_9 Ho1_16 1_555 1_555
O4_5 C3_6 1_555 1_555
O5_6 Ho1_16 1_555 1_555
C3_6 O5_6 1_555 1_555
C4_6 O3_9 1_555 1_555
H3_6 C4_6 1_555 1_555
O9_6 C7_6 1_555 1_555
O10_6 Ho1_16 1_555 1_555
C7_6 O10_6 1_555 1_555
O11_6 C9_6 1_555 1_555
O12_6 Ho1_16 1_555 1_555
O13_8 Ho1_16 1_555 1_555
C9_6 O12_6 1_555 1_555
C10_6 O13_8 1_555 1_555
H9_6 C10_6 1_555 1_555
H10_6 C10_6 1_555 1_555
C12_6 O13_8 1_555 1_555
H11_6 C12_6 1_555 1_555
H12_6 C12_6 1_555 1_555
Cd5_6 O4_5 1_555 1_555
Cd4_11 O11_6 1_555 1_555
Cd5_8 O9_6 1_555 1_555
O16_10 Cd1_13 1_555 1_555
O17_18 Cd1_13 1_555 1_555
O18_18 Cd1_13 1_555 1_555
C3_6 C4_6 1_555 1_555
C9_6 C10_6 1_555 1_555
Ho1_17 O2_6 1_555 1_555
Cd1_14 O1_6 1_555 1_555
O1_6 C1_6 1_555 1_555
O2_6 C1_6 1_555 1_555
O3_10 Ho1_17 1_555 1_555
C1_6 C2_6 1_555 1_555
C2_6 O3_10 1_555 1_555
H1_6 C2_6 1_555 1_555
O6_5 C5_6 1_555 1_555
O7_6 Ho1_17 1_555 1_555
O8_8 Ho1_17 1_555 1_555
C5_6 O7_6 1_555 1_555
C6_6 O8_8 1_555 1_555
H5_6 C6_6 1_555 1_555
H6_6 C6_6 1_555 1_555
C8_6 O8_8 1_555 1_555
H7_6 C8_6 1_555 1_555
H8_6 C8_6 1_555 1_555
O16_9 C11_6 1_555 1_555
O15_6 Ho1_17 1_555 1_555
C11_6 O15_6 1_555 1_555
Cd2_8 O6_5 1_555 1_555
O19_18 Cd1_14 1_555 1_555
O20_18 Cd1_14 1_555 1_555
C5_6 C6_6 1_555 1_555
Ho1_18 O2_7 1_555 1_555
Cd1_15 O1_7 1_555 1_555
O1_7 C1_7 1_555 1_555
O2_7 C1_7 1_555 1_555
O3_11 Ho1_18 1_555 1_555
C1_7 C2_7 1_555 1_555
C2_7 O3_11 1_555 1_555
H1_7 C2_7 1_555 1_555
H2_7 C2_7 1_555 1_555
O17_5 C3_7 1_555 1_555
O5_7 Ho1_18 1_555 1_555
C3_7 O5_7 1_555 1_555
C4_7 O3_11 1_555 1_555
H3_7 C4_7 1_555 1_555
H4_7 C4_7 1_555 1_555
O16_3 C5_7 1_555 1_555
O7_7 Ho1_18 1_555 1_555
O8_9 Ho1_18 1_555 1_555
C5_7 O7_7 1_555 1_555
C6_7 O8_9 1_555 1_555
H5_7 C6_7 1_555 1_555
H6_7 C6_7 1_555 1_555
O9_7 C7_7 1_555 1_555
O10_7 Ho1_18 1_555 1_555
C7_7 O10_7 1_555 1_555
C8_7 O8_9 1_555 1_555
H7_7 C8_7 1_555 1_555
H8_7 C8_7 1_555 1_555
O11_7 C9_7 1_555 1_555
O12_7 Ho1_18 1_555 1_555
O13_9 Ho1_18 1_555 1_555
C9_7 O12_7 1_555 1_555
C10_7 O13_9 1_555 1_555
H9_7 C10_7 1_555 1_555
H10_7 C10_7 1_555 1_555
O17_15 C11_7 1_555 1_555
O15_7 Ho1_18 1_555 1_555
C11_7 O15_7 1_555 1_555
C12_7 O13_9 1_555 1_555
H11_7 C12_7 1_555 1_555
H12_7 C12_7 1_555 1_555
Cd5_8 O11_7 1_555 1_555
Cd4_11 O9_7 1_555 1_555
O16_11 Cd1_15 1_555 1_555
O17_19 Cd1_15 1_555 1_555
O18_19 Cd1_15 1_555 1_555
O19_19 Cd1_15 1_555 1_555
O20_19 Cd1_15 1_555 1_555
C3_7 C4_7 1_555 1_555
C5_7 C6_7 1_555 1_555
C7_7 C8_7 1_555 1_555
C9_7 C10_7 1_555 1_555
C11_7 C12_7 1_555 1_555
Ho1_19 O2_8 1_555 1_555
Cd2_8 O1_8 1_555 1_555
O1_8 C1_8 1_555 1_555
O2_8 C1_8 1_555 1_555
O3_12 Ho1_19 1_555 1_555
C1_8 C2_8 1_555 1_555
C2_8 O3_12 1_555 1_555
H1_8 C2_8 1_555 1_555
H2_8 C2_8 1_555 1_555
O4_6 C3_8 1_555 1_555
O5_8 Ho1_19 1_555 1_555
C3_8 O5_8 1_555 1_555
C4_8 O3_12 1_555 1_555
H3_8 C4_8 1_555 1_555
H4_8 C4_8 1_555 1_555
O6_6 C5_8 1_555 1_555
O7_8 Ho1_19 1_555 1_555
O8_10 Ho1_19 1_555 1_555
C5_8 O7_8 1_555 1_555
C6_8 O8_10 1_555 1_555
H5_8 C6_8 1_555 1_555
H6_8 C6_8 1_555 1_555
O9_8 C7_8 1_555 1_555
O10_8 Ho1_19 1_555 1_555
C7_8 O10_8 1_555 1_555
C8_8 O8_10 1_555 1_555
H7_8 C8_8 1_555 1_555
H8_8 C8_8 1_555 1_555
O11_8 C9_8 1_555 1_555
O12_8 Ho1_19 1_555 1_555
O13_10 Ho1_19 1_555 1_555
C9_8 O12_8 1_555 1_555
C10_8 O13_10 1_555 1_555
H9_8 C10_8 1_555 1_555
H10_8 C10_8 1_555 1_555
O14_5 C11_8 1_555 1_555
O15_8 Ho1_19 1_555 1_555
C11_8 O15_8 1_555 1_555
C12_8 O13_10 1_555 1_555
H11_8 C12_8 1_555 1_555
H12_8 C12_8 1_555 1_555
Cd2_9 O6_6 1_555 1_555
Cd3_3 O4_6 1_555 1_555
Cd5_7 O11_8 1_555 1_555
Cd4_10 O9_8 1_555 1_555
Cd6_9 O14_5 1_555 1_555
O16_12 Cd2_8 1_555 1_555
O18_20 Cd2_8 1_555 1_555
O19_20 Cd2_8 1_555 1_555
O20_20 Cd2_8 1_555 1_555
C3_8 C4_8 1_555 1_555
C5_8 C6_8 1_555 1_555
C7_8 C8_8 1_555 1_555
C9_8 C10_8 1_555 1_555
C11_8 C12_8 1_555 1_555
O4_7 C3_9 1_555 1_555
O5_9 Ho1_20 1_555 1_555
C3_9 O5_9 1_555 1_555
O8_11 Ho1_20 1_555 1_555
O17_13 C7_9 1_555 1_555
O10_9 Ho1_20 1_555 1_555
C7_9 O10_9 1_555 1_555
C8_9 O8_11 1_555 1_555
H7_9 C8_9 1_555 1_555
O13_11 Ho1_20 1_555 1_555
C10_9 O13_11 1_555 1_555
H9_9 C10_9 1_555 1_555
H10_9 C10_9 1_555 1_555
O14_6 C11_9 1_555 1_555
O15_9 Ho1_20 1_555 1_555
C11_9 O15_9 1_555 1_555
C12_9 O13_11 1_555 1_555
H11_9 C12_9 1_555 1_555
H12_9 C12_9 1_555 1_555
Cd6_9 O4_7 1_555 1_555
Cd3_3 O14_6 1_555 1_555
C7_9 C8_9 1_555 1_555
C11_9 C12_9 1_555 1_555
Ho1_21 O2_9 1_555 1_555
O17_7 C1_9 1_555 1_555
O2_9 C1_9 1_555 1_555
O3_13 Ho1_21 1_555 1_555
C1_9 C2_9 1_555 1_555
C2_9 O3_13 1_555 1_555
H1_9 C2_9 1_555 1_555
H2_9 C2_9 1_555 1_555
C4_9 O3_13 1_555 1_555
H3_9 C4_9 1_555 1_555
H4_9 C4_9 1_555 1_555
O6_7 C5_9 1_555 1_555
O7_9 Ho1_21 1_555 1_555
O8_12 Ho1_21 1_555 1_555
C5_9 O7_9 1_555 1_555
C6_9 O8_12 1_555 1_555
H5_9 C6_9 1_555 1_555
O16 C9_9 1_555 1_555
O12_9 Ho1_21 1_555 1_555
C9_9 O12_9 1_555 1_555
Cd2_11 O6_7 1_555 1_555
C5_9 C6_9 1_555 1_555
Ho1_22 O2_10 1_555 1_555
O17_9 C1_10 1_555 1_555
O2_10 C1_10 1_555 1_555
O3_14 Ho1_22 1_555 1_555
C1_10 C2_10 1_555 1_555
C2_10 O3_14 1_555 1_555
H1_10 C2_10 1_555 1_555
O6_8 C5_10 1_555 1_555
O7_10 Ho1_22 1_555 1_555
O8_13 Ho1_22 1_555 1_555
C5_10 O7_10 1_555 1_555
C6_10 O8_13 1_555 1_555
H5_10 C6_10 1_555 1_555
H6_10 C6_10 1_555 1_555
C8_10 O8_13 1_555 1_555
H7_10 C8_10 1_555 1_555
H8_10 C8_10 1_555 1_555
O14_7 C11_10 1_555 1_555
O15_10 Ho1_22 1_555 1_555
C11_10 O15_10 1_555 1_555
Cd2_9 O6_8 1_555 1_555
Cd2_10 O14_7 1_555 1_555
C5_10 C6_10 1_555 1_555
O3_15 Ho1_23 1_555 1_555
O4_8 C3_10 1_555 1_555
O5_10 Ho1_23 1_555 1_555
C3_10 O5_10 1_555 1_555
C4_10 O3_15 1_555 1_555
H3_10 C4_10 1_555 1_555
O16_5 C7_10 1_555 1_555
O10_10 Ho1_23 1_555 1_555
C7_10 O10_10 1_555 1_555
O17_3 C9_10 1_555 1_555
O12_10 Ho1_23 1_555 1_555
O13_12 Ho1_23 1_555 1_555
C9_10 O12_10 1_555 1_555
C10_10 O13_12 1_555 1_555
H9_10 C10_10 1_555 1_555
H10_10 C10_10 1_555 1_555
C12_10 O13_12 1_555 1_555
H11_10 C12_10 1_555 1_555
H12_10 C12_10 1_555 1_555
Cd6_10 O4_8 1_555 1_555
C3_10 C4_10 1_555 1_555
C9_10 C10_10 1_555 1_555
O17_20 Cd4_11 1_555 1_555
O18_21 Cd4_11 1_555 1_555
O19_21 Cd4_11 1_555 1_555
O20_21 Cd4_11 1_555 1_555
O3_16 Ho1_24 1_555 1_555
C2_11 O3_16 1_555 1_555
H1_11 C2_11 1_555 1_555
H2_11 C2_11 1_555 1_555
O17_19 C3_11 1_555 1_555
O5_11 Ho1_24 1_555 1_555
C3_11 O5_11 1_555 1_555
C4_11 O3_16 1_555 1_555
H3_11 C4_11 1_555 1_555
H4_11 C4_11 1_555 1_555
O16_10 C5_11 1_555 1_555
O7_11 Ho1_24 1_555 1_555
C5_11 O7_11 1_555 1_555
O17 C9_11 1_555 1_555
O12_11 Ho1_24 1_555 1_555
O13_13 Ho1_24 1_555 1_555
C9_11 O12_11 1_555 1_555
C10_11 O13_13 1_555 1_555
H9_11 C10_11 1_555 1_555
C3_11 C4_11 1_555 1_555
C9_11 C10_11 1_555 1_555
Ho1_25 O2_11 1_555 1_555
O17_11 C1_11 1_555 1_555
O2_11 C1_11 1_555 1_555
O8_14 Ho1_25 1_555 1_555
C6_11 O8_14 1_555 1_555
H5_11 C6_11 1_555 1_555
H6_11 C6_11 1_555 1_555
O16_7 C7_11 1_555 1_555
O10_11 Ho1_25 1_555 1_555
C7_11 O10_11 1_555 1_555
C8_11 O8_14 1_555 1_555
H7_11 C8_11 1_555 1_555
H8_11 C8_11 1_555 1_555
O13_14 Ho1_25 1_555 1_555
O14_8 C11_11 1_555 1_555
O15_11 Ho1_25 1_555 1_555
C11_11 O15_11 1_555 1_555
C12_11 O13_14 1_555 1_555
H11_11 C12_11 1_555 1_555
Cd5_9 O14_8 1_555 1_555
C7_11 C8_11 1_555 1_555
C11_11 C12_11 1_555 1_555
O16_13 Cd3_3 1_555 1_555
O18_22 Cd3_3 1_555 1_555
O19_22 Cd3_3 1_555 1_555
O20_22 Cd3_3 1_555 1_555
O17_21 Cd2_9 1_555 1_555
O18_23 Cd2_9 1_555 1_555
O19_23 Cd2_9 1_555 1_555
O20_23 Cd2_9 1_555 1_555
O18_24 Cd6_9 1_555 1_555
O19_24 Cd6_10 1_555 1_555
O20_24 Cd6_10 1_555 1_555
O19_25 Cd5_8 1_555 1_555
O18_25 Cd5_9 1_555 1_555
O20_25 Cd5_9 1_555 1_555
O17_22 Cd2_10 1_555 1_555
O18_26 Cd2_10 1_555 1_555
O19_26 Cd2_11 1_555 1_555
O20_26 Cd2_11 1_555 1_555
Ho1_26 O2_12 1_555 1_555
Cd1_16 O1_9 1_555 1_555
O1_9 C1_12 1_555 1_555
O2_12 C1_12 1_555 1_555
O3_17 Ho1_26 1_555 1_555
C1_12 C2_12 1_555 1_555
C2_12 O3_17 1_555 1_555
H1_12 C2_12 1_555 1_555
H2_12 C2_12 1_555 1_555
O17_21 C3_12 1_555 1_555
O5_12 Ho1_26 1_555 1_555
C3_12 O5_12 1_555 1_555
C4_12 O3_17 1_555 1_555
H3_12 C4_12 1_555 1_555
H4_12 C4_12 1_555 1_555
O16_13 C5_12 1_555 1_555
O7_12 Ho1_26 1_555 1_555
O8_15 Ho1_26 1_555 1_555
C5_12 O7_12 1_555 1_555
C6_12 O8_15 1_555 1_555
H5_12 C6_12 1_555 1_555
H6_12 C6_12 1_555 1_555
O9_9 C7_12 1_555 1_555
O10_12 Ho1_26 1_555 1_555
C7_12 O10_12 1_555 1_555
C8_12 O8_15 1_555 1_555
H7_12 C8_12 1_555 1_555
H8_12 C8_12 1_555 1_555
O11_9 C9_12 1_555 1_555
O12_12 Ho1_26 1_555 1_555
O13_15 Ho1_26 1_555 1_555
C9_12 O12_12 1_555 1_555
C10_12 O13_15 1_555 1_555
H9_12 C10_12 1_555 1_555
H10_12 C10_12 1_555 1_555
O17_22 C11_12 1_555 1_555
O15_12 Ho1_26 1_555 1_555
C11_12 O15_12 1_555 1_555
C12_12 O13_15 1_555 1_555
H11_12 C12_12 1_555 1_555
H12_12 C12_12 1_555 1_555
Cd4_12 O11_9 1_555 1_555
Cd5_10 O9_9 1_555 1_555
O16_14 Cd1_16 1_555 1_555
O17_23 Cd1_16 1_555 1_555
O18_27 Cd1_16 1_555 1_555
O19_27 Cd1_16 1_555 1_555
O20_27 Cd1_16 1_555 1_555
C3_12 C4_12 1_555 1_555
C5_12 C6_12 1_555 1_555
C7_12 C8_12 1_555 1_555
C9_12 C10_12 1_555 1_555
C11_12 C12_12 1_555 1_555
Ho1_27 O2_13 1_555 1_555
O17_8 C1_13 1_555 1_555
O2_13 C1_13 1_555 1_555
O3_18 Ho1_27 1_555 1_555
C1_13 C2_13 1_555 1_555
C2_13 O3_18 1_555 1_555
H1_13 C2_13 1_555 1_555
H2_13 C2_13 1_555 1_555
O4_9 C3_13 1_555 1_555
O5_13 Ho1_27 1_555 1_555
C3_13 O5_13 1_555 1_555
C4_13 O3_18 1_555 1_555
H3_13 C4_13 1_555 1_555
H4_13 C4_13 1_555 1_555
O6_9 C5_13 1_555 1_555
O7_13 Ho1_27 1_555 1_555
O8_16 Ho1_27 1_555 1_555
C5_13 O7_13 1_555 1_555
C6_13 O8_16 1_555 1_555
H5_13 C6_13 1_555 1_555
H6_13 C6_13 1_555 1_555
O17_14 C7_13 1_555 1_555
O10_13 Ho1_27 1_555 1_555
C7_13 O10_13 1_555 1_555
C8_13 O8_16 1_555 1_555
H7_13 C8_13 1_555 1_555
H8_13 C8_13 1_555 1_555
O16_2 C9_13 1_555 1_555
O12_13 Ho1_27 1_555 1_555
O13_16 Ho1_27 1_555 1_555
C9_13 O12_13 1_555 1_555
C10_13 O13_16 1_555 1_555
H9_13 C10_13 1_555 1_555
H10_13 C10_13 1_555 1_555
O16_14 C11_13 1_555 1_555
O15_13 Ho1_27 1_555 1_555
C11_13 O15_13 1_555 1_555
C12_13 O13_16 1_555 1_555
H11_13 C12_13 1_555 1_555
H12_13 C12_13 1_555 1_555
Cd2_12 O6_9 1_555 1_555
Cd5_10 O4_9 1_555 1_555
C3_13 C4_13 1_555 1_555
C5_13 C6_13 1_555 1_555
C7_13 C8_13 1_555 1_555
C9_13 C10_13 1_555 1_555
C11_13 C12_13 1_555 1_555
Ho1_28 O2_14 1_555 1_555
Cd2_12 O1_10 1_555 1_555
O1_10 C1_14 1_555 1_555
O2_14 C1_14 1_555 1_555
O3_19 Ho1_28 1_555 1_555
C1_14 C2_14 1_555 1_555
C2_14 O3_19 1_555 1_555
H1_14 C2_14 1_555 1_555
H2_14 C2_14 1_555 1_555
O17_4 C3_14 1_555 1_555
O5_14 Ho1_28 1_555 1_555
C3_14 O5_14 1_555 1_555
C4_14 O3_19 1_555 1_555
H3_14 C4_14 1_555 1_555
H4_14 C4_14 1_555 1_555
O16_6 C5_14 1_555 1_555
O7_14 Ho1_28 1_555 1_555
O8_17 Ho1_28 1_555 1_555
C5_14 O7_14 1_555 1_555
C6_14 O8_17 1_555 1_555
H5_14 C6_14 1_555 1_555
H6_14 C6_14 1_555 1_555
O9_10 C7_14 1_555 1_555
O10_14 Ho1_28 1_555 1_555
C7_14 O10_14 1_555 1_555
C8_14 O8_17 1_555 1_555
H7_14 C8_14 1_555 1_555
H8_14 C8_14 1_555 1_555
O11_10 C9_14 1_555 1_555
O12_14 Ho1_28 1_555 1_555
O13_17 Ho1_28 1_555 1_555
C9_14 O12_14 1_555 1_555
C10_14 O13_17 1_555 1_555
H9_14 C10_14 1_555 1_555
H10_14 C10_14 1_555 1_555
O17_10 C11_14 1_555 1_555
O15_14 Ho1_28 1_555 1_555
C11_14 O15_14 1_555 1_555
C12_14 O13_17 1_555 1_555
H11_14 C12_14 1_555 1_555
H12_14 C12_14 1_555 1_555
Cd5_10 O11_10 1_555 1_555
Cd4_12 O9_10 1_555 1_555
O16_15 Cd2_12 1_555 1_555
O18_28 Cd2_12 1_555 1_555
O19_28 Cd2_12 1_555 1_555
O20_28 Cd2_12 1_555 1_555
C3_14 C4_14 1_555 1_555
C5_14 C6_14 1_555 1_555
C7_14 C8_14 1_555 1_555
C9_14 C10_14 1_555 1_555
C11_14 C12_14 1_555 1_555
O18_29 Cd5_6 1_555 1_555
O19_29 Cd5_6 1_555 1_555
O20_29 Cd5_7 1_555 1_555
O3_20 Ho1_29 1_555 1_555
O17_17 C3_15 1_555 1_555
O5_15 Ho1_29 1_555 1_555
C3_15 O5_15 1_555 1_555
C4_15 O3_20 1_555 1_555
H3_15 C4_15 1_555 1_555
O16_8 C7_15 1_555 1_555
O10_15 Ho1_29 1_555 1_555
C7_15 O10_15 1_555 1_555
O17_2 C9_15 1_555 1_555
O12_15 Ho1_29 1_555 1_555
O13_18 Ho1_29 1_555 1_555
C9_15 O12_15 1_555 1_555
C10_15 O13_18 1_555 1_555
H9_15 C10_15 1_555 1_555
H10_15 C10_15 1_555 1_555
C12_15 O13_18 1_555 1_555
H11_15 C12_15 1_555 1_555
H12_15 C12_15 1_555 1_555
C3_15 C4_15 1_555 1_555
C9_15 C10_15 1_555 1_555
Ho1_30 O2_15 1_555 1_555
O17_12 C1_15 1_555 1_555
O2_15 C1_15 1_555 1_555
O3_21 Ho1_30 1_555 1_555
C1_15 C2_15 1_555 1_555
C2_15 O3_21 1_555 1_555
H1_15 C2_15 1_555 1_555
O16_12 C5_15 1_555 1_555
O7_15 Ho1_30 1_555 1_555
O8_18 Ho1_30 1_555 1_555
C5_15 O7_15 1_555 1_555
C6_15 O8_18 1_555 1_555
H5_15 C6_15 1_555 1_555
H6_15 C6_15 1_555 1_555
C8_15 O8_18 1_555 1_555
H7_15 C8_15 1_555 1_555
H8_15 C8_15 1_555 1_555
O14_9 C11_15 1_555 1_555
O15_15 Ho1_30 1_555 1_555
C11_15 O15_15 1_555 1_555
Cd4_10 O14_9 1_555 1_555
C5_15 C6_15 1_555 1_555
O17_24 Cd4_12 1_555 1_555
O18_30 Cd4_12 1_555 1_555
O19_30 Cd4_12 1_555 1_555
O20_30 Cd4_12 1_555 1_555
O18_31 Cd5_10 1_555 1_555
O19_31 Cd5_10 1_555 1_555
O20_31 Cd5_10 1_555 1_555
O19_32 Cd4_9 1_555 1_555
O20_32 Cd4_9 1_555 1_555
O18_32 Cd4_10 1_555 1_555
Ho1_31 O2_16 1_555 1_555
O17_24 C1_16 1_555 1_555
O2_16 C1_16 1_555 1_555
O3_22 Ho1_31 1_555 1_555
C1_16 C2_16 1_555 1_555
C2_16 O3_22 1_555 1_555
H1_16 C2_16 1_555 1_555
H2_16 C2_16 1_555 1_555
O17_20 C3_16 1_555 1_555
O5_16 Ho1_31 1_555 1_555
C3_16 O5_16 1_555 1_555
C4_16 O3_22 1_555 1_555
H3_16 C4_16 1_555 1_555
H4_16 C4_16 1_555 1_555
O17_18 C5_16 1_555 1_555
O7_16 Ho1_31 1_555 1_555
O8_19 Ho1_31 1_555 1_555
C5_16 O7_16 1_555 1_555
C6_16 O8_19 1_555 1_555
H5_16 C6_16 1_555 1_555
H6_16 C6_16 1_555 1_555
O16_15 C7_16 1_555 1_555
O10_16 Ho1_31 1_555 1_555
C7_16 O10_16 1_555 1_555
C8_16 O8_19 1_555 1_555
H7_16 C8_16 1_555 1_555
H8_16 C8_16 1_555 1_555
O17_23 C9_16 1_555 1_555
O12_16 Ho1_31 1_555 1_555
O13_19 Ho1_31 1_555 1_555
C9_16 O12_16 1_555 1_555
C10_16 O13_19 1_555 1_555
H9_16 C10_16 1_555 1_555
H10_16 C10_16 1_555 1_555
O16_11 C11_16 1_555 1_555
O15_16 Ho1_31 1_555 1_555
C11_16 O15_16 1_555 1_555
C12_16 O13_19 1_555 1_555
H11_16 C12_16 1_555 1_555
H12_16 C12_16 1_555 1_555
C3_16 C4_16 1_555 1_555
C5_16 C6_16 1_555 1_555
C7_16 C8_16 1_555 1_555
C9_16 C10_16 1_555 1_555
C11_16 C12_16 1_555 1_555
O19_5 C7_17 1_555 1_555
O10_17 Ho1_32 1_555 1_555
C7_17 O10_17 1_555 1_555
O13_20 Ho1_32 1_555 1_555
C12_17 O13_20 1_555 1_555
H11_17 C12_17 1_555 1_555
O3_23 Ho1_33 1_555 1_555
O18_24 C3_17 1_555 1_555
O5_17 Ho1_33 1_555 1_555
C3_17 O5_17 1_555 1_555
C4_17 O3_23 1_555 1_555
H3_17 C4_17 1_555 1_555
O20_29 C9_17 1_555 1_555
O12_17 Ho1_33 1_555 1_555
O13_21 Ho1_33 1_555 1_555
C9_17 O12_17 1_555 1_555
C10_17 O13_21 1_555 1_555
H9_17 C10_17 1_555 1_555
C3_17 C4_17 1_555 1_555
C9_17 C10_17 1_555 1_555
Ho1_34 O2_17 1_555 1_555
O18 C1_17 1_555 1_555
O2_17 C1_17 1_555 1_555
O8_20 Ho1_34 1_555 1_555
C6_17 O8_20 1_555 1_555
H5_17 C6_17 1_555 1_555
H6_17 C6_17 1_555 1_555
C8_17 O8_20 1_555 1_555
H7_17 C8_17 1_555 1_555
H8_17 C8_17 1_555 1_555
O19_16 C11_17 1_555 1_555
O15_17 Ho1_34 1_555 1_555
C11_17 O15_17 1_555 1_555
O3_24 Ho1_35 1_555 1_555
C2_17 O3_24 1_555 1_555
H1_17 C2_17 1_555 1_555
O20_25 C5_17 1_555 1_555
O7_17 Ho1_35 1_555 1_555
C5_17 O7_17 1_555 1_555
Ho1_36 O2_18 1_555 1_555
O18_21 C1_18 1_555 1_555
O2_18 C1_18 1_555 1_555
O3_25 Ho1_36 1_555 1_555
C1_18 C2_18 1_555 1_555
C2_18 O3_25 1_555 1_555
H1_18 C2_18 1_555 1_555
H2_18 C2_18 1_555 1_555
O19_29 C3_18 1_555 1_555
O5_18 Ho1_36 1_555 1_555
C3_18 O5_18 1_555 1_555
C4_18 O3_25 1_555 1_555
H3_18 C4_18 1_555 1_555
H4_18 C4_18 1_555 1_555
O18_30 C5_18 1_555 1_555
O7_18 Ho1_36 1_555 1_555
O8_21 Ho1_36 1_555 1_555
C5_18 O7_18 1_555 1_555
C6_18 O8_21 1_555 1_555
H5_18 C6_18 1_555 1_555
H6_18 C6_18 1_555 1_555
O19_23 C7_18 1_555 1_555
O10_18 Ho1_36 1_555 1_555
C7_18 O10_18 1_555 1_555
C8_18 O8_21 1_555 1_555
H7_18 C8_18 1_555 1_555
H8_18 C8_18 1_555 1_555
O20_4 C9_18 1_555 1_555
O12_18 Ho1_36 1_555 1_555
O13_22 Ho1_36 1_555 1_555
C9_18 O12_18 1_555 1_555
C10_18 O13_22 1_555 1_555
H9_18 C10_18 1_555 1_555
H10_18 C10_18 1_555 1_555
O20_5 C11_18 1_555 1_555
O15_18 Ho1_36 1_555 1_555
C11_18 O15_18 1_555 1_555
C12_18 O13_22 1_555 1_555
H11_18 C12_18 1_555 1_555
H12_18 C12_18 1_555 1_555
C3_18 C4_18 1_555 1_555
C5_18 C6_18 1_555 1_555
C7_18 C8_18 1_555 1_555
C9_18 C10_18 1_555 1_555
C11_18 C12_18 1_555 1_555
Ho1_37 O2_19 1_555 1_555
O20_31 C1_19 1_555 1_555
O2_19 C1_19 1_555 1_555
O3_26 Ho1_37 1_555 1_555
C1_19 C2_19 1_555 1_555
C2_19 O3_26 1_555 1_555
H1_19 C2_19 1_555 1_555
H2_19 C2_19 1_555 1_555
C4_19 O3_26 1_555 1_555
H3_19 C4_19 1_555 1_555
H4_19 C4_19 1_555 1_555
O18_8 C5_19 1_555 1_555
O7_19 Ho1_37 1_555 1_555
O8_22 Ho1_37 1_555 1_555
C5_19 O7_19 1_555 1_555
C6_19 O8_22 1_555 1_555
H5_19 C6_19 1_555 1_555
O19_9 C9_19 1_555 1_555
O12_19 Ho1_37 1_555 1_555
C9_19 O12_19 1_555 1_555
C5_19 C6_19 1_555 1_555
O19_4 C3_19 1_555 1_555
O5_19 Ho1_38 1_555 1_555
C3_19 O5_19 1_555 1_555
O8_23 Ho1_38 1_555 1_555
O18_32 C7_19 1_555 1_555
O10_19 Ho1_38 1_555 1_555
C7_19 O10_19 1_555 1_555
C8_19 O8_23 1_555 1_555
H7_19 C8_19 1_555 1_555
O13_23 Ho1_38 1_555 1_555
C10_19 O13_23 1_555 1_555
H9_19 C10_19 1_555 1_555
H10_19 C10_19 1_555 1_555
O20_23 C11_19 1_555 1_555
O15_19 Ho1_38 1_555 1_555
C11_19 O15_19 1_555 1_555
C12_19 O13_23 1_555 1_555
H11_19 C12_19 1_555 1_555
H12_19 C12_19 1_555 1_555
C7_19 C8_19 1_555 1_555
C11_19 C12_19 1_555 1_555
O8_24 Ho1_39 1_555 1_555
C8_20 O8_24 1_555 1_555
H7_20 C8_20 1_555 1_555
O19_32 C11_20 1_555 1_555
O15_20 Ho1_39 1_555 1_555
C11_20 O15_20 1_555 1_555
O18_9 C3_20 1_555 1_555
O5_20 Ho1_40 1_555 1_555
C3_20 O5_20 1_555 1_555
O18_16 C7_20 1_555 1_555
O10_20 Ho1_40 1_555 1_555
C7_20 O10_20 1_555 1_555
O13_24 Ho1_40 1_555 1_555
C10_20 O13_24 1_555 1_555
H9_20 C10_20 1_555 1_555
H10_20 C10_20 1_555 1_555
C12_20 O13_24 1_555 1_555
H11_20 C12_20 1_555 1_555
H12_20 C12_20 1_555 1_555
Ho1_41 O2_20 1_555 1_555
O20_12 C1_20 1_555 1_555
O2_20 C1_20 1_555 1_555
O3_27 Ho1_41 1_555 1_555
C1_20 C2_20 1_555 1_555
C2_20 O3_27 1_555 1_555
H1_20 C2_20 1_555 1_555
O20_13 C5_20 1_555 1_555
O7_20 Ho1_41 1_555 1_555
O8_25 Ho1_41 1_555 1_555
C5_20 O7_20 1_555 1_555
C6_20 O8_25 1_555 1_555
H5_20 C6_20 1_555 1_555
C5_20 C6_20 1_555 1_555
O3_28 Ho1_42 1_555 1_555
C4_20 O3_28 1_555 1_555
H3_20 C4_20 1_555 1_555
O19_24 C9_20 1_555 1_555
O12_20 Ho1_42 1_555 1_555
C9_20 O12_20 1_555 1_555
O20_11 C7_21 1_555 1_555
O10_21 Ho1_43 1_555 1_555
C7_21 O10_21 1_555 1_555
O13_25 Ho1_43 1_555 1_555
C12_21 O13_25 1_555 1_555
H11_21 C12_21 1_555 1_555
Ho1_44 O2_21 1_555 1_555
O18_17 C1_21 1_555 1_555
O2_21 C1_21 1_555 1_555
O8_26 Ho1_44 1_555 1_555
C6_21 O8_26 1_555 1_555
H5_21 C6_21 1_555 1_555
H6_21 C6_21 1_555 1_555
C8_21 O8_26 1_555 1_555
H7_21 C8_21 1_555 1_555
H8_21 C8_21 1_555 1_555
O20_16 C11_21 1_555 1_555
O15_21 Ho1_44 1_555 1_555
C11_21 O15_21 1_555 1_555
O3_29 Ho1_45 1_555 1_555
O19_25 C3_21 1_555 1_555
O5_21 Ho1_45 1_555 1_555
C3_21 O5_21 1_555 1_555
C4_21 O3_29 1_555 1_555
H3_21 C4_21 1_555 1_555
O18_15 C9_21 1_555 1_555
O12_21 Ho1_45 1_555 1_555
O13_26 Ho1_45 1_555 1_555
C9_21 O12_21 1_555 1_555
C10_21 O13_26 1_555 1_555
H9_21 C10_21 1_555 1_555
C3_21 C4_21 1_555 1_555
C9_21 C10_21 1_555 1_555
O3_30 Ho1_46 1_555 1_555
C2_21 O3_30 1_555 1_555
H1_21 C2_21 1_555 1_555
O18_12 C5_21 1_555 1_555
O7_21 Ho1_46 1_555 1_555
C5_21 O7_21 1_555 1_555
Ho1_47 O2_22 1_555 1_555
O18_18 C1_22 1_555 1_555
O2_22 C1_22 1_555 1_555
O3_31 Ho1_47 1_555 1_555
C1_22 C2_22 1_555 1_555
C2_22 O3_31 1_555 1_555
H1_22 C2_22 1_555 1_555
O20_28 C5_22 1_555 1_555
O7_22 Ho1_47 1_555 1_555
O8_27 Ho1_47 1_555 1_555
C5_22 O7_22 1_555 1_555
C6_22 O8_27 1_555 1_555
H5_22 C6_22 1_555 1_555
H6_22 C6_22 1_555 1_555
C8_22 O8_27 1_555 1_555
H7_22 C8_22 1_555 1_555
H8_22 C8_22 1_555 1_555
O19_17 C11_22 1_555 1_555
O15_22 Ho1_47 1_555 1_555
C11_22 O15_22 1_555 1_555
C5_22 C6_22 1_555 1_555
O3_32 Ho1_48 1_555 1_555
O19_11 C3_22 1_555 1_555
O5_22 Ho1_48 1_555 1_555
C3_22 O5_22 1_555 1_555
C4_22 O3_32 1_555 1_555
H3_22 C4_22 1_555 1_555
O18_6 C7_22 1_555 1_555
O10_22 Ho1_48 1_555 1_555
C7_22 O10_22 1_555 1_555
O19_2 C9_22 1_555 1_555
O12_22 Ho1_48 1_555 1_555
O13_27 Ho1_48 1_555 1_555
C9_22 O12_22 1_555 1_555
C10_22 O13_27 1_555 1_555
H9_22 C10_22 1_555 1_555
H10_22 C10_22 1_555 1_555
C12_22 O13_27 1_555 1_555
H11_22 C12_22 1_555 1_555
H12_22 C12_22 1_555 1_555
C3_22 C4_22 1_555 1_555
C9_22 C10_22 1_555 1_555
Ho1_49 O2_23 1_555 1_555
O20_22 C1_23 1_555 1_555
O2_23 C1_23 1_555 1_555
O3_33 Ho1_49 1_555 1_555
C1_23 C2_23 1_555 1_555
C2_23 O3_33 1_555 1_555
H1_23 C2_23 1_555 1_555
H2_23 C2_23 1_555 1_555
O19_13 C3_23 1_555 1_555
O5_23 Ho1_49 1_555 1_555
C3_23 O5_23 1_555 1_555
C4_23 O3_33 1_555 1_555
H3_23 C4_23 1_555 1_555
H4_23 C4_23 1_555 1_555
O18_31 C5_23 1_555 1_555
O7_23 Ho1_49 1_555 1_555
O8_28 Ho1_49 1_555 1_555
C5_23 O7_23 1_555 1_555
C6_23 O8_28 1_555 1_555
H5_23 C6_23 1_555 1_555
H6_23 C6_23 1_555 1_555
O18_2 C7_23 1_555 1_555
O10_23 Ho1_49 1_555 1_555
C7_23 O10_23 1_555 1_555
C8_23 O8_28 1_555 1_555
H7_23 C8_23 1_555 1_555
H8_23 C8_23 1_555 1_555
O19_6 C9_23 1_555 1_555
O12_23 Ho1_49 1_555 1_555
O13_28 Ho1_49 1_555 1_555
C9_23 O12_23 1_555 1_555
C10_23 O13_28 1_555 1_555
H9_23 C10_23 1_555 1_555
H10_23 C10_23 1_555 1_555
O20_32 C11_23 1_555 1_555
O15_23 Ho1_49 1_555 1_555
C11_23 O15_23 1_555 1_555
C12_23 O13_28 1_555 1_555
H11_23 C12_23 1_555 1_555
H12_23 C12_23 1_555 1_555
C3_23 C4_23 1_555 1_555
C5_23 C6_23 1_555 1_555
C7_23 C8_23 1_555 1_555
C9_23 C10_23 1_555 1_555
C11_23 C12_23 1_555 1_555
Ho1_50 O2_24 1_555 1_555
O18_28 C1_24 1_555 1_555
O2_24 C1_24 1_555 1_555
O3_34 Ho1_50 1_555 1_555
C1_24 C2_24 1_555 1_555
C2_24 O3_34 1_555 1_555
H1_24 C2_24 1_555 1_555
H2_24 C2_24 1_555 1_555
O18_19 C3_24 1_555 1_555
O5_24 Ho1_50 1_555 1_555
C3_24 O5_24 1_555 1_555
C4_24 O3_34 1_555 1_555
H3_24 C4_24 1_555 1_555
H4_24 C4_24 1_555 1_555
O18_14 C5_24 1_555 1_555
O7_24 Ho1_50 1_555 1_555
O8_29 Ho1_50 1_555 1_555
C5_24 O7_24 1_555 1_555
C6_24 O8_29 1_555 1_555
H5_24 C6_24 1_555 1_555
H6_24 C6_24 1_555 1_555
O20_15 C7_24 1_555 1_555
O10_24 Ho1_50 1_555 1_555
C7_24 O10_24 1_555 1_555
C8_24 O8_29 1_555 1_555
H7_24 C8_24 1_555 1_555
H8_24 C8_24 1_555 1_555
O18_11 C9_24 1_555 1_555
O12_24 Ho1_50 1_555 1_555
O13_29 Ho1_50 1_555 1_555
C9_24 O12_24 1_555 1_555
C10_24 O13_29 1_555 1_555
H9_24 C10_24 1_555 1_555
H10_24 C10_24 1_555 1_555
O20_10 C11_24 1_555 1_555
O15_24 Ho1_50 1_555 1_555
C11_24 O15_24 1_555 1_555
C12_24 O13_29 1_555 1_555
H11_24 C12_24 1_555 1_555
H12_24 C12_24 1_555 1_555
C3_24 C4_24 1_555 1_555
C5_24 C6_24 1_555 1_555
C7_24 C8_24 1_555 1_555
C9_24 C10_24 1_555 1_555
C11_24 C12_24 1_555 1_555
Ho1_51 O2_25 1_555 1_555
O20_30 C1_25 1_555 1_555
O2_25 C1_25 1_555 1_555
O3_35 Ho1_51 1_555 1_555
C1_25 C2_25 1_555 1_555
C2_25 O3_35 1_555 1_555
H1_25 C2_25 1_555 1_555
H2_25 C2_25 1_555 1_555
C4_25 O3_35 1_555 1_555
H3_25 C4_25 1_555 1_555
H4_25 C4_25 1_555 1_555
O18_26 C5_25 1_555 1_555
O7_25 Ho1_51 1_555 1_555
O8_30 Ho1_51 1_555 1_555
C5_25 O7_25 1_555 1_555
C6_25 O8_30 1_555 1_555
H5_25 C6_25 1_555 1_555
O19 C9_25 1_555 1_555
O12_25 Ho1_51 1_555 1_555
C9_25 O12_25 1_555 1_555
C5_25 C6_25 1_555 1_555
O19_10 C3_25 1_555 1_555
O5_25 Ho1_52 1_555 1_555
C3_25 O5_25 1_555 1_555
O8_31 Ho1_52 1_555 1_555
O18_5 C7_25 1_555 1_555
O10_25 Ho1_52 1_555 1_555
C7_25 O10_25 1_555 1_555
C8_25 O8_31 1_555 1_555
H7_25 C8_25 1_555 1_555
O13_30 Ho1_52 1_555 1_555
C10_25 O13_30 1_555 1_555
H9_25 C10_25 1_555 1_555
H10_25 C10_25 1_555 1_555
O19_19 C11_25 1_555 1_555
O15_25 Ho1_52 1_555 1_555
C11_25 O15_25 1_555 1_555
C12_25 O13_30 1_555 1_555
H11_25 C12_25 1_555 1_555
H12_25 C12_25 1_555 1_555
C7_25 C8_25 1_555 1_555
C11_25 C12_25 1_555 1_555
O3_36 Ho1_53 1_555 1_555
O18_10 C3_26 1_555 1_555
O5_26 Ho1_53 1_555 1_555
C3_26 O5_26 1_555 1_555
C4_26 O3_36 1_555 1_555
H3_26 C4_26 1_555 1_555
O18_13 C7_26 1_555 1_555
O10_26 Ho1_53 1_555 1_555
C7_26 O10_26 1_555 1_555
O19_31 C9_26 1_555 1_555
O12_26 Ho1_53 1_555 1_555
O13_31 Ho1_53 1_555 1_555
C9_26 O12_26 1_555 1_555
C10_26 O13_31 1_555 1_555
H9_26 C10_26 1_555 1_555
H10_26 C10_26 1_555 1_555
C12_26 O13_31 1_555 1_555
H11_26 C12_26 1_555 1_555
H12_26 C12_26 1_555 1_555
C3_26 C4_26 1_555 1_555
C9_26 C10_26 1_555 1_555
Ho1_54 O2_26 1_555 1_555
O20_9 C1_26 1_555 1_555
O2_26 C1_26 1_555 1_555
O3_37 Ho1_54 1_555 1_555
C1_26 C2_26 1_555 1_555
C2_26 O3_37 1_555 1_555
H1_26 C2_26 1_555 1_555
O20_14 C5_26 1_555 1_555
O7_26 Ho1_54 1_555 1_555
O8_32 Ho1_54 1_555 1_555
C5_26 O7_26 1_555 1_555
C6_26 O8_32 1_555 1_555
H5_26 C6_26 1_555 1_555
H6_26 C6_26 1_555 1_555
C8_26 O8_32 1_555 1_555
H7_26 C8_26 1_555 1_555
H8_26 C8_26 1_555 1_555
O19_26 C11_26 1_555 1_555
O15_26 Ho1_54 1_555 1_555
C11_26 O15_26 1_555 1_555
C5_26 C6_26 1_555 1_555
Ho1_55 O2_27 1_555 1_555
O18_29 C1_27 1_555 1_555
O2_27 C1_27 1_555 1_555
O8_33 Ho1_55 1_555 1_555
C6_27 O8_33 1_555 1_555
H5_27 C6_27 1_555 1_555
H6_27 C6_27 1_555 1_555
O19_30 C7_27 1_555 1_555
O10_27 Ho1_55 1_555 1_555
C7_27 O10_27 1_555 1_555
C8_27 O8_33 1_555 1_555
H7_27 C8_27 1_555 1_555
H8_27 C8_27 1_555 1_555
O13_32 Ho1_55 1_555 1_555
O20_6 C11_27 1_555 1_555
O15_27 Ho1_55 1_555 1_555
C11_27 O15_27 1_555 1_555
C12_27 O13_32 1_555 1_555
H11_27 C12_27 1_555 1_555
C7_27 C8_27 1_555 1_555
C11_27 C12_27 1_555 1_555
O3_38 Ho1_56 1_555 1_555
C2_27 O3_38 1_555 1_555
H1_27 C2_27 1_555 1_555
H2_27 C2_27 1_555 1_555
O19_22 C3_27 1_555 1_555
O5_27 Ho1_56 1_555 1_555
C3_27 O5_27 1_555 1_555
C4_27 O3_38 1_555 1_555
H3_27 C4_27 1_555 1_555
H4_27 C4_27 1_555 1_555
O19_18 C5_27 1_555 1_555
O7_27 Ho1_56 1_555 1_555
C5_27 O7_27 1_555 1_555
O20 C9_27 1_555 1_555
O12_27 Ho1_56 1_555 1_555
O13_33 Ho1_56 1_555 1_555
C9_27 O12_27 1_555 1_555
C10_27 O13_33 1_555 1_555
H9_27 C10_27 1_555 1_555
C3_27 C4_27 1_555 1_555
C9_27 C10_27 1_555 1_555
Ho1_57 O2_28 1_555 1_555
O18_27 C1_28 1_555 1_555
O2_28 C1_28 1_555 1_555
O3_39 Ho1_57 1_555 1_555
C1_28 C2_28 1_555 1_555
C2_28 O3_39 1_555 1_555
H1_28 C2_28 1_555 1_555
H2_28 C2_28 1_555 1_555
O19_14 C3_28 1_555 1_555
O5_28 Ho1_57 1_555 1_555
C3_28 O5_28 1_555 1_555
C4_28 O3_39 1_555 1_555
H3_28 C4_28 1_555 1_555
H4_28 C4_28 1_555 1_555
O20_19 C5_28 1_555 1_555
O7_28 Ho1_57 1_555 1_555
O8_34 Ho1_57 1_555 1_555
C5_28 O7_28 1_555 1_555
C6_28 O8_34 1_555 1_555
H5_28 C6_28 1_555 1_555
H6_28 C6_28 1_555 1_555
O18_3 C7_28 1_555 1_555
O10_28 Ho1_57 1_555 1_555
C7_28 O10_28 1_555 1_555
C8_28 O8_34 1_555 1_555
H7_28 C8_28 1_555 1_555
H8_28 C8_28 1_555 1_555
O19_7 C9_28 1_555 1_555
O12_28 Ho1_57 1_555 1_555
O13_34 Ho1_57 1_555 1_555
C9_28 O12_28 1_555 1_555
C10_28 O13_34 1_555 1_555
H9_28 C10_28 1_555 1_555
H10_28 C10_28 1_555 1_555
O20_26 C11_28 1_555 1_555
O15_28 Ho1_57 1_555 1_555
C11_28 O15_28 1_555 1_555
C12_28 O13_34 1_555 1_555
H11_28 C12_28 1_555 1_555
H12_28 C12_28 1_555 1_555
C3_28 C4_28 1_555 1_555
C5_28 C6_28 1_555 1_555
C7_28 C8_28 1_555 1_555
C9_28 C10_28 1_555 1_555
C11_28 C12_28 1_555 1_555
Ho1_58 O2_29 1_555 1_555
O20_8 C1_29 1_555 1_555
O2_29 C1_29 1_555 1_555
O3_40 Ho1_58 1_555 1_555
C1_29 C2_29 1_555 1_555
C2_29 O3_40 1_555 1_555
H1_29 C2_29 1_555 1_555
H2_29 C2_29 1_555 1_555
O20_3 C3_29 1_555 1_555
O5_29 Ho1_58 1_555 1_555
C3_29 O5_29 1_555 1_555
C4_29 O3_40 1_555 1_555
H3_29 C4_29 1_555 1_555
H4_29 C4_29 1_555 1_555
O20_20 C5_29 1_555 1_555
O7_29 Ho1_58 1_555 1_555
O8_35 Ho1_58 1_555 1_555
C5_29 O7_29 1_555 1_555
C6_29 O8_35 1_555 1_555
H5_29 C6_29 1_555 1_555
H6_29 C6_29 1_555 1_555
O18_23 C7_29 1_555 1_555
O10_29 Ho1_58 1_555 1_555
C7_29 O10_29 1_555 1_555
C8_29 O8_35 1_555 1_555
H7_29 C8_29 1_555 1_555
H8_29 C8_29 1_555 1_555
O19_21 C9_29 1_555 1_555
O12_29 Ho1_58 1_555 1_555
O13_35 Ho1_58 1_555 1_555
C9_29 O12_29 1_555 1_555
C10_29 O13_35 1_555 1_555
H9_29 C10_29 1_555 1_555
H10_29 C10_29 1_555 1_555
O19_27 C11_29 1_555 1_555
O15_29 Ho1_58 1_555 1_555
C11_29 O15_29 1_555 1_555
C12_29 O13_35 1_555 1_555
H11_29 C12_29 1_555 1_555
H12_29 C12_29 1_555 1_555
C3_29 C4_29 1_555 1_555
C5_29 C6_29 1_555 1_555
C7_29 C8_29 1_555 1_555
C9_29 C10_29 1_555 1_555
C11_29 C12_29 1_555 1_555
Ho1_59 O2_30 1_555 1_555
O18_20 C1_30 1_555 1_555
O2_30 C1_30 1_555 1_555
O3_41 Ho1_59 1_555 1_555
C1_30 C2_30 1_555 1_555
C2_30 O3_41 1_555 1_555
H1_30 C2_30 1_555 1_555
H2_30 C2_30 1_555 1_555
O19_12 C3_30 1_555 1_555
O5_30 Ho1_59 1_555 1_555
C3_30 O5_30 1_555 1_555
C4_30 O3_41 1_555 1_555
H3_30 C4_30 1_555 1_555
H4_30 C4_30 1_555 1_555
O18_25 C5_30 1_555 1_555
O7_30 Ho1_59 1_555 1_555
O8_36 Ho1_59 1_555 1_555
C5_30 O7_30 1_555 1_555
C6_30 O8_36 1_555 1_555
H5_30 C6_30 1_555 1_555
H6_30 C6_30 1_555 1_555
O18_7 C7_30 1_555 1_555
O10_30 Ho1_59 1_555 1_555
C7_30 O10_30 1_555 1_555
C8_30 O8_36 1_555 1_555
H7_30 C8_30 1_555 1_555
H8_30 C8_30 1_555 1_555
O19_3 C9_30 1_555 1_555
O12_30 Ho1_59 1_555 1_555
O13_36 Ho1_59 1_555 1_555
C9_30 O12_30 1_555 1_555
C10_30 O13_36 1_555 1_555
H9_30 C10_30 1_555 1_555
H10_30 C10_30 1_555 1_555
O20_24 C11_30 1_555 1_555
O15_30 Ho1_59 1_555 1_555
C11_30 O15_30 1_555 1_555
C12_30 O13_36 1_555 1_555
H11_30 C12_30 1_555 1_555
H12_30 C12_30 1_555 1_555
C3_30 C4_30 1_555 1_555
C5_30 C6_30 1_555 1_555
C7_30 C8_30 1_555 1_555
C9_30 C10_30 1_555 1_555
C11_30 C12_30 1_555 1_555
Ho1_60 O2_31 1_555 1_555
O18_4 C1_31 1_555 1_555
O2_31 C1_31 1_555 1_555
O3_42 Ho1_60 1_555 1_555
C1_31 C2_31 1_555 1_555
C2_31 O3_42 1_555 1_555
H1_31 C2_31 1_555 1_555
O19_28 C5_31 1_555 1_555
O7_31 Ho1_60 1_555 1_555
O8_37 Ho1_60 1_555 1_555
C5_31 O7_31 1_555 1_555
C6_31 O8_37 1_555 1_555
H5_31 C6_31 1_555 1_555
H6_31 C6_31 1_555 1_555
C8_31 O8_37 1_555 1_555
H7_31 C8_31 1_555 1_555
H8_31 C8_31 1_555 1_555
O19_15 C11_31 1_555 1_555
O15_31 Ho1_60 1_555 1_555
C11_31 O15_31 1_555 1_555
C5_31 C6_31 1_555 1_555
O3_43 Ho1_61 1_555 1_555
O20_17 C3_31 1_555 1_555
O5_31 Ho1_61 1_555 1_555
C3_31 O5_31 1_555 1_555
C4_31 O3_43 1_555 1_555
H3_31 C4_31 1_555 1_555
O19_8 C7_31 1_555 1_555
O10_31 Ho1_61 1_555 1_555
C7_31 O10_31 1_555 1_555
O20_21 C9_31 1_555 1_555
O12_31 Ho1_61 1_555 1_555
O13_37 Ho1_61 1_555 1_555
C9_31 O12_31 1_555 1_555
C10_31 O13_37 1_555 1_555
H9_31 C10_31 1_555 1_555
H10_31 C10_31 1_555 1_555
C12_31 O13_37 1_555 1_555
H11_31 C12_31 1_555 1_555
H12_31 C12_31 1_555 1_555
C3_31 C4_31 1_555 1_555
C9_31 C10_31 1_555 1_555
Ho1_62 O2_32 1_555 1_555
O20_7 C1_32 1_555 1_555
O2_32 C1_32 1_555 1_555
O3_44 Ho1_62 1_555 1_555
C1_32 C2_32 1_555 1_555
C2_32 O3_44 1_555 1_555
H1_32 C2_32 1_555 1_555
H2_32 C2_32 1_555 1_555
O20_2 C3_32 1_555 1_555
O5_32 Ho1_62 1_555 1_555
C3_32 O5_32 1_555 1_555
C4_32 O3_44 1_555 1_555
H3_32 C4_32 1_555 1_555
H4_32 C4_32 1_555 1_555
O20_18 C5_32 1_555 1_555
O7_32 Ho1_62 1_555 1_555
O8_38 Ho1_62 1_555 1_555
C5_32 O7_32 1_555 1_555
C6_32 O8_38 1_555 1_555
H5_32 C6_32 1_555 1_555
H6_32 C6_32 1_555 1_555
O19_20 C7_32 1_555 1_555
O10_32 Ho1_62 1_555 1_555
C7_32 O10_32 1_555 1_555
C8_32 O8_38 1_555 1_555
H7_32 C8_32 1_555 1_555
H8_32 C8_32 1_555 1_555
O20_27 C9_32 1_555 1_555
O12_32 Ho1_62 1_555 1_555
O13_38 Ho1_62 1_555 1_555
C9_32 O12_32 1_555 1_555
C10_32 O13_38 1_555 1_555
H9_32 C10_32 1_555 1_555
H10_32 C10_32 1_555 1_555
O18_22 C11_32 1_555 1_555
O15_32 Ho1_62 1_555 1_555
C11_32 O15_32 1_555 1_555
C12_32 O13_38 1_555 1_555
H11_32 C12_32 1_555 1_555
H12_32 C12_32 1_555 1_555
C3_32 C4_32 1_555 1_555
C5_32 C6_32 1_555 1_555
C7_32 C8_32 1_555 1_555
C9_32 C10_32 1_555 1_555
C11_32 C12_32 1_555 1_555

#END
