
###############################################################################
#
# This file contains modified crystal structure data generated from the
# MOF subset of the Cambridge Structural Database (CSD) v543 
# hosted by the Cambridge Crystallographic Data Centre (CCDC).
#
# This work is licensed under the Creative Commons
# Attribution-NonCommercial-ShareAlike 4.0 International License.
# To view a copy of this license, visit
# http://creativecommons.org/licenses/by-nc-sa/4.0/
# or send a letter to
# Creative Commons, PO Box 1866, Mountain View, CA 94042, USA.
#
# CIF created using the CSD Python API on 29 September 2022
# The structure has been converted into the P1 space group
# The structure has a 3D framework
# The original CSD entry KOMLIK01 is in the monoclinic crystal system
# The framework has been calculated to contain at least 10.0% void space
# The void calculation uses a probe of radius 1.32A, grid spacing 0.4
#
###############################################################################

data_KOMLIK01
_chemical_formula_moiety         '(C352 H288 Co14 N32 O80)n'
_symmetry_cell_setting           triclinic
_symmetry_space_group_name_H-M   'P 1'
_symmetry_Int_Tables_number      1
_space_group_name_Hall           'P 1'
loop_
_symmetry_equiv_pos_site_id
_symmetry_equiv_pos_as_xyz
1 x,y,z
_cell_length_a                   31.506(4)
_cell_length_b                   15.5864(18)
_cell_length_c                   23.281(3)
_cell_angle_alpha                90
_cell_angle_beta                 126.407(3)
_cell_angle_gamma                90
_cell_volume                     9201.11
loop_
_atom_site_label
_atom_site_type_symbol
_atom_site_fract_x
_atom_site_fract_y
_atom_site_fract_z
O5 O 0.1768(2) 0.1367(4) 0.3723(3)
O6 O 0.2611(2) 0.1620(4) 0.4512(3)
C8 C 0.2253(3) 0.1200(5) 0.3984(4)
C10 C 0.2370(3) 0.0500(5) 0.3671(5)
C21 C 0.1981(3) 0.0113(5) 0.3050(5)
H10 H 0.163375 0.029471 0.281273
C27 C 0.2897(4) 0.0277(6) 0.3999(5)
H14 H 0.316533 0.055721 0.441151
Co9 Co 0.19242(4) 0.23037(6) 0.44473(6)
Co1 Co 0.50844(4) 0.50703(6) 0.44635(5)
O2 O 0.4389(2) 0.4037(3) 0.4850(3)
O3 O 0.4576(2) 0.4092(3) 0.4061(3)
O7 O 0.4558(2) 0.5956(4) 0.3734(3)
O8 O 0.4463(2) 0.5785(4) 0.4587(3)
O9 O 0.2741(2) 0.1355(4) 0.2565(3)
O10 O 0.2703(3) 0.8596(4) 0.2752(3)
N1 N 0.5531(2) 0.4590(4) 0.4154(3)
C2 C 0.3931(3) 0.3108(4) 0.3848(4)
C4 C 0.4329(3) 0.3790(4) 0.4286(4)
C5 C 0.3746(3) 0.7140(5) 0.4083(5)
H1 H 0.389787 0.694434 0.454381
C6 C 0.4342(3) 0.6142(5) 0.4033(4)
C7 C 0.3583(3) 0.2817(5) 0.3995(4)
H2 H 0.361530 0.302915 0.439271
C9 C 0.3195(3) 0.2225(5) 0.3566(5)
H3 H 0.295851 0.205593 0.365978
C11 C 0.3017(3) 0.9631(5) 0.3703(4)
H4 H 0.336651 0.948482 0.391448
C12 C 0.2099(3) 0.9441(5) 0.2765(5)
H5 H 0.183066 0.915521 0.235585
C13 C 0.2730(3) 0.0721(5) 0.2138(4)
C15 C 0.3697(3) 0.7115(5) 0.3027(4)
H7 H 0.381464 0.690800 0.277014
C16 C 0.3351(3) 0.7747(5) 0.3788(4)
H8 H 0.323575 0.795806 0.404767
C17 C 0.3133(3) 0.8030(5) 0.3119(4)
C18 C 0.2224(3) 0.0458(5) 0.1577(4)
H9 H 0.192910 0.072914 0.149466
C19 C 0.3162(3) 0.1885(5) 0.2988(5)
C20 C 0.3920(3) 0.6820(4) 0.3706(4)
C22 C 0.2622(3) 0.9211(5) 0.3103(5)
C25 C 0.3296(3) 0.7719(5) 0.2724(5)
H13 H 0.313965 0.791300 0.226056
C28 C 0.5981(4) 0.4986(6) 0.4373(5)
H15 H 0.604930 0.551277 0.459974
C29 C 0.3879(3) 0.2770(5) 0.3263(4)
H16 H 0.410557 0.295228 0.315468
C30 C 0.3492(4) 0.2157(6) 0.2828(5)
H17 H 0.346074 0.193615 0.243255
C31 C 0.3165(4) 0.0339(6) 0.2255(5)
H18 H 0.350012 0.052768 0.262517
H21 H 0.571233 0.002279 0.116980
C34 C 0.6253(4) 0.3854(7) 0.3967(6)
C36 C 0.6349(4) 0.4680(10) 0.4290(6)
H23 H 0.664864 0.499497 0.443769
C38 C 0.5454(5) 0.3830(7) 0.3869(8)
H26 H 0.515449 0.352465 0.373322
C39 C 0.5808(6) 0.3460(7) 0.3761(8)
H27 H 0.572966 0.292671 0.354029
C40 C 0.6666(5) 0.3469(10) 0.3898(6)
H28 H 0.648745 0.315587 0.345169
H29 H 0.686238 0.393239 0.387692
N4 N 0.7025(3) 0.2913(5) 0.4461(4)
C43 C 0.7389(5) 0.2565(10) 0.4329(6)
H33 H 0.761955 0.301883 0.437962
H34 H 0.719067 0.235246 0.384343
C44 C 0.7287(6) 0.3141(13) 0.5171(8)
H35 H 0.702985 0.331701 0.524983
H36 H 0.751299 0.362872 0.527360
N5 N 0.9469(2) 0.0410(4) 0.5846(3)
C45 C 0.9019(4) 0.0014(6) 0.5627(5)
C46 C 0.8747(4) 0.1146(7) 0.6033(6)
C47 C 0.8651(4) 0.0320(10) 0.5710(6)
H38 H 0.835136 0.000503 0.556231
C48 C 0.9546(5) 0.1170(7) 0.6131(8)
H39 H 0.984551 0.147535 0.626678
C49 C 0.9192(6) 0.1540(7) 0.6239(8)
H40 H 0.927034 0.207329 0.645971
C50 C 0.8334(5) 0.1531(10) 0.6102(6)
H41 H 0.851255 0.184413 0.654831
H42 H 0.813762 0.106761 0.612308
N6 N 0.7975(3) 0.2087(5) 0.5539(4)
C51 C 0.7611(5) 0.2435(10) 0.5671(6)
H43 H 0.738045 0.198117 0.562038
H44 H 0.780933 0.264754 0.615657
C52 C 0.7713(6) 0.1859(13) 0.4829(8)
H45 H 0.797015 0.168299 0.475017
H46 H 0.748701 0.137128 0.472640
C60 C 0.5336(5) 0.0691(10) 0.0243(8)
H55 H 0.565638 0.096841 0.036997
H56 H 0.515461 0.108201 0.035480
Co6 Co 0.49156(4) 0.49297(6) 0.55365(5)
Co8 Co 0.80758(4) 0.23037(6) 0.05527(6)
O21 O 0.70861(19) 0.3486(3) 0.0236(3)
O24 O 0.5611(2) 0.5963(3) 0.5150(3)
O30 O 0.5537(2) 0.4215(4) 0.5413(3)
N7 N 0.6221(2) 0.2230(4) 0.9186(4)
C53 C 0.5819(4) 0.2713(6) 0.9027(8)
H47 H 0.582286 0.328751 0.892127
C54 C 0.5351(4) 0.1599(8) 0.9093(6)
N8 N 0.5001(3) 0.0505(8) 0.9484(5)
C55 C 0.6178(3) 0.1404(6) 0.9281(6)
H48 H 0.644775 0.103531 0.938712
C56 C 0.4529(4) 0.0109(10) 0.9335(7)
H49 H 0.435410 0.050503 0.945370
C57 C 0.5404(6) 0.2439(8) 0.9006(10)
H51 H 0.515308 0.283009 0.893119
C58 C 0.4877(4) 0.1277(10) 0.9043(8)
H52 H 0.459547 0.114427 0.854965
H53 H 0.475312 0.172669 0.919815
C59 C 0.5752(4) 0.1066(8) 0.9232(8)
H54 H 0.573577 0.047973 0.929192
Co4 Co 0.69242(4) 0.26963(6) 0.94473(6)
O11 O 0.79139(19) 0.1514(3) 0.9764(3)
O14 O 0.7039(2) 0.1696(3) 0.9021(3)
C61 C 0.7456(3) 0.1325(4) 0.9215(4)
C63 C 0.7405(3) 0.0609(4) 0.8754(4)
C74 C 0.6895(3) 0.0330(5) 0.8178(4)
H62 H 0.659885 0.059913 0.809099
C83 C 0.7836(3) 0.0213(5) 0.8858(4)
H67 H 0.817291 0.039691 0.922626
O26 O 0.6768(2) 0.3633(4) 0.8723(3)
O28 O 0.7611(2) 0.3380(4) 0.9512(3)
Co2 Co 0.30758(4) 0.73037(6) 0.05527(6)
O1 O 0.20861(19) 0.8486(3) 0.0236(3)
O4 O 0.2961(2) 0.8304(3) 0.0979(3)
N2 N 0.3779(2) 0.7770(4) 0.0814(4)
C1 C 0.2544(3) 0.8675(4) 0.0785(4)
C3 C 0.2595(3) 0.9391(4) 0.1246(4)
C14 C 0.3105(3) 0.9670(5) 0.1822(4)
H6 H 0.340115 0.940087 0.190901
C23 C 0.2164(3) 0.9787(5) 0.1142(4)
H11 H 0.182709 0.960309 0.077374
C24 C 0.4181(4) 0.7287(6) 0.0973(8)
H12 H 0.417714 0.671249 0.107873
C26 C 0.4649(4) 0.8401(8) 0.0907(6)
N3 N 0.4999(3) 0.9495(8) 0.0516(5)
C32 C 0.3822(3) 0.8596(6) 0.0719(6)
H19 H 0.355225 0.896469 0.061288
C33 C 0.5471(4) 0.9891(10) 0.0665(7)
H20 H 0.564590 0.949497 0.054630
C35 C 0.4596(6) 0.7561(8) 0.0994(10)
H22 H 0.484692 0.716991 0.106881
C37 C 0.5123(4) 0.8723(10) 0.0957(8)
H24 H 0.540453 0.885573 0.145035
H25 H 0.524688 0.827331 0.080185
C41 C 0.4248(4) 0.8934(8) 0.0768(8)
H30 H 0.426423 0.952027 0.070808
H37 H 0.895070 0.948723 0.540026
Co7 Co 0.99156(4) 0.99297(6) 0.55365(5)
O25 O 0.3232(2) 0.6367(4) 0.1277(3)
O27 O 0.2389(2) 0.6620(4) 0.0488(3)
C42 C 0.4664(5) 0.9309(10) 0.9757(8)
H31 H 0.434362 0.903159 0.963003
H32 H 0.484539 0.891799 0.964520
H50 H 0.428767 0.997721 0.883020
O13 O 0.5424(2) 0.5908(3) 0.5939(3)
O17 O 0.5442(2) 0.4044(4) 0.6266(3)
O19 O 0.7259(2) 0.8645(4) 0.7435(3)
O20 O 0.7297(3) 0.1404(4) 0.7248(3)
C62 C 0.6069(3) 0.6892(4) 0.6152(4)
C64 C 0.5671(3) 0.6210(4) 0.5714(4)
C65 C 0.6254(3) 0.2860(5) 0.5917(5)
H57 H 0.610213 0.305566 0.545619
C66 C 0.5658(3) 0.3858(5) 0.5967(4)
C67 C 0.6417(3) 0.7183(5) 0.6005(4)
H58 H 0.638470 0.697085 0.560729
C69 C 0.6805(3) 0.7775(5) 0.6434(5)
H59 H 0.704149 0.794407 0.634022
C71 C 0.6983(3) 0.0369(5) 0.6297(4)
H60 H 0.663349 0.051518 0.608552
C72 C 0.7901(3) 0.0559(5) 0.7235(5)
H61 H 0.816934 0.084479 0.764415
C73 C 0.7270(3) 0.9279(5) 0.7862(4)
C75 C 0.6303(3) 0.2885(5) 0.6973(4)
H63 H 0.618536 0.309200 0.722986
C76 C 0.6649(3) 0.2253(5) 0.6212(4)
H64 H 0.676425 0.204194 0.595233
C77 C 0.6867(3) 0.1970(5) 0.6881(4)
C78 C 0.7776(3) 0.9542(5) 0.8423(4)
H65 H 0.807090 0.927086 0.850534
C79 C 0.6838(3) 0.8115(5) 0.7012(5)
C80 C 0.6080(3) 0.3180(4) 0.6294(4)
C82 C 0.7378(3) 0.0789(5) 0.6897(5)
C84 C 0.6704(3) 0.2281(5) 0.7276(5)
H68 H 0.686035 0.208700 0.773944
C86 C 0.6121(3) 0.7230(5) 0.6737(4)
H70 H 0.589443 0.704772 0.684532
C87 C 0.6508(4) 0.7843(6) 0.7172(5)
H71 H 0.653926 0.806385 0.756745
C88 C 0.6835(4) 0.9661(6) 0.7745(5)
H72 H 0.649988 0.947232 0.737483
Co10 Co 0.19242(4) 0.76963(6) 0.94473(6)
O22 O 0.29139(19) 0.6514(3) 0.9764(3)
N9 N 0.4469(2) 0.5410(4) 0.5846(3)
O15 O 0.8232(2) 0.8633(4) 0.6277(3)
O16 O 0.7389(2) 0.8380(4) 0.5488(3)
C68 C 0.7747(3) 0.8800(5) 0.6016(4)
C70 C 0.7630(3) 0.9500(5) 0.6329(5)
C81 C 0.8019(3) 0.9887(5) 0.6950(5)
H66 H 0.836625 0.970529 0.718727
C85 C 0.7103(4) 0.9723(6) 0.6001(5)
H69 H 0.683467 0.944279 0.558849
Co11 Co 0.80758(4) 0.76963(6) 0.55527(6)
O5_2 O 0.8232(2) 0.1367(4) 0.1277(3)
O6_2 O 0.7389(2) 0.1620(4) 0.0488(3)
C8_2 C 0.7747(3) 0.1200(5) 0.1016(4)
C10_2 C 0.7630(3) 0.0500(5) 0.1329(5)
C21_2 C 0.8019(3) 0.0113(5) 0.1950(5)
H10_2 H 0.836625 0.029471 0.218727
C27_2 C 0.7103(4) 0.0277(6) 0.1001(5)
H14_2 H 0.683467 0.055721 0.058849
Co1_2 Co 0.49156(4) 0.50703(6) 0.05365(5)
O2_2 O 0.5611(2) 0.4037(3) 0.0150(3)
O3_2 O 0.5424(2) 0.4092(3) 0.0939(3)
O7_2 O 0.5442(2) 0.5956(4) 0.1266(3)
O8_2 O 0.5537(2) 0.5785(4) 0.0413(3)
O9_2 O 0.7259(2) 0.1355(4) 0.2435(3)
O10_2 O 0.7297(3) 0.8596(4) 0.2248(3)
N1_2 N 0.4469(2) 0.4590(4) 0.0846(3)
C2_2 C 0.6069(3) 0.3108(4) 0.1152(4)
C4_2 C 0.5671(3) 0.3790(4) 0.0714(4)
C5_2 C 0.6254(3) 0.7140(5) 0.0917(5)
H1_2 H 0.610213 0.694434 0.045619
C6_2 C 0.5658(3) 0.6142(5) 0.0967(4)
C7_2 C 0.6417(3) 0.2817(5) 0.1005(4)
H2_2 H 0.638470 0.302915 0.060729
C9_2 C 0.6805(3) 0.2225(5) 0.1434(5)
H3_2 H 0.704149 0.205593 0.134022
C11_2 C 0.6983(3) 0.9631(5) 0.1297(4)
H4_2 H 0.663349 0.948482 0.108552
C12_2 C 0.7901(3) 0.9441(5) 0.2235(5)
H5_2 H 0.816934 0.915521 0.264415
C13_2 C 0.7270(3) 0.0721(5) 0.2862(4)
C15_2 C 0.6303(3) 0.7115(5) 0.1973(4)
H7_2 H 0.618536 0.690800 0.222986
C16_2 C 0.6649(3) 0.7747(5) 0.1212(4)
H8_2 H 0.676425 0.795806 0.095233
C17_2 C 0.6867(3) 0.8030(5) 0.1881(4)
C18_2 C 0.7776(3) 0.0458(5) 0.3423(4)
H9_2 H 0.807090 0.072914 0.350534
C19_2 C 0.6838(3) 0.1885(5) 0.2012(5)
C20_2 C 0.6080(3) 0.6820(4) 0.1294(4)
C22_2 C 0.7378(3) 0.9211(5) 0.1897(5)
C25_2 C 0.6704(3) 0.7719(5) 0.2276(5)
H13_2 H 0.686035 0.791300 0.273944
C28_2 C 0.4019(4) 0.4986(6) 0.0627(5)
H15_2 H 0.395070 0.551277 0.040026
C29_2 C 0.6121(3) 0.2770(5) 0.1737(4)
H16_2 H 0.589443 0.295228 0.184532
C30_2 C 0.6508(4) 0.2157(6) 0.2172(5)
H17_2 H 0.653926 0.193615 0.256745
C31_2 C 0.6835(4) 0.0339(6) 0.2745(5)
H18_2 H 0.649988 0.052768 0.237483
H21_2 H 0.428767 0.002279 0.383020
C34_2 C 0.3747(4) 0.3854(7) 0.1033(6)
C36_2 C 0.3651(4) 0.4680(10) 0.0710(6)
H23_2 H 0.335136 0.499497 0.056231
C38_2 C 0.4546(5) 0.3830(7) 0.1131(8)
H26_2 H 0.484551 0.352465 0.126678
C39_2 C 0.4192(6) 0.3460(7) 0.1239(8)
H27_2 H 0.427034 0.292671 0.145971
C40_2 C 0.3334(5) 0.3469(10) 0.1102(6)
H28_2 H 0.351255 0.315587 0.154831
H29_2 H 0.313762 0.393239 0.112308
N4_2 N 0.2975(3) 0.2913(5) 0.0539(4)
C43_2 C 0.2611(5) 0.2565(10) 0.0671(6)
H33_2 H 0.238045 0.301883 0.062038
H34_2 H 0.280933 0.235246 0.115657
C52_2 C 0.2287(6) 0.1859(13) 0.0171(8)
H45_2 H 0.202985 0.168299 0.024983
H46_2 H 0.251299 0.137128 0.027360
N7_2 N 0.3779(2) 0.2230(4) 0.5814(4)
C53_2 C 0.4181(4) 0.2713(6) 0.5973(8)
H47_2 H 0.417714 0.328751 0.607873
C54_2 C 0.4649(4) 0.1599(8) 0.5907(6)
N8_2 N 0.4999(3) 0.0505(8) 0.5516(5)
C55_2 C 0.3822(3) 0.1404(6) 0.5719(6)
H48_2 H 0.355225 0.103531 0.561288
C56_2 C 0.5471(4) 0.0109(10) 0.5665(7)
H49_2 H 0.564590 0.050503 0.554630
C57_2 C 0.4596(6) 0.2439(8) 0.5994(10)
H51_2 H 0.484692 0.283009 0.606881
C58_2 C 0.5123(4) 0.1277(10) 0.5957(8)
H52_2 H 0.540453 0.114427 0.645035
H53_2 H 0.524688 0.172669 0.580185
C59_2 C 0.4248(4) 0.1066(8) 0.5768(8)
H54_2 H 0.426423 0.047973 0.570808
C60_2 C 0.4664(5) 0.0691(10) 0.4757(8)
H55_2 H 0.434362 0.096841 0.463003
H56_2 H 0.484539 0.108201 0.464520
Co4_2 Co 0.30758(4) 0.26963(6) 0.55527(6)
O11_2 O 0.20861(19) 0.1514(3) 0.5236(3)
O14_2 O 0.2961(2) 0.1696(3) 0.5979(3)
C61_2 C 0.2544(3) 0.1325(4) 0.5785(4)
C63_2 C 0.2595(3) 0.0609(4) 0.6246(4)
C74_2 C 0.3105(3) 0.0330(5) 0.6822(4)
H62_2 H 0.340115 0.059913 0.690901
C83_2 C 0.2164(3) 0.0213(5) 0.6142(4)
H67_2 H 0.182709 0.039691 0.577374
O21_2 O 0.29139(19) 0.3486(3) 0.4764(3)
O26_2 O 0.3232(2) 0.3633(4) 0.6277(3)
O28_2 O 0.2389(2) 0.3380(4) 0.5488(3)
C44_2 C 0.2713(6) 0.3141(13) 0.9829(8)
H35_2 H 0.297015 0.331701 0.975017
H36_2 H 0.248701 0.362872 0.972640
N5_2 N 0.0531(2) 0.0410(4) 0.9154(3)
C45_2 C 0.0981(4) 0.0014(6) 0.9373(5)
C46_2 C 0.1253(4) 0.1146(7) 0.8967(6)
C47_2 C 0.1349(4) 0.0320(10) 0.9290(6)
H38_2 H 0.164864 0.000503 0.943769
C48_2 C 0.0454(5) 0.1170(7) 0.8869(8)
H39_2 H 0.015449 0.147535 0.873322
C49_2 C 0.0808(6) 0.1540(7) 0.8761(8)
H40_2 H 0.072966 0.207329 0.854029
C50_2 C 0.1666(5) 0.1531(10) 0.8898(6)
H41_2 H 0.148745 0.184413 0.845169
H42_2 H 0.186238 0.106761 0.887692
N6_2 N 0.2025(3) 0.2087(5) 0.9461(4)
C51_2 C 0.2389(5) 0.2435(10) 0.9329(6)
H43_2 H 0.261955 0.198117 0.937962
H44_2 H 0.219067 0.264754 0.884343
Co6_2 Co 0.50844(4) 0.49297(6) 0.94635(5)
O24_2 O 0.4389(2) 0.5963(3) 0.9850(3)
O30_2 O 0.4463(2) 0.4215(4) 0.9587(3)
Co2_2 Co 0.69242(4) 0.73037(6) 0.44473(6)
O1_2 O 0.79139(19) 0.8486(3) 0.4764(3)
O4_2 O 0.7039(2) 0.8304(3) 0.4021(3)
N2_2 N 0.6221(2) 0.7770(4) 0.4186(4)
C1_2 C 0.7456(3) 0.8675(4) 0.4215(4)
C3_2 C 0.7405(3) 0.9391(4) 0.3754(4)
C14_2 C 0.6895(3) 0.9670(5) 0.3178(4)
H6_2 H 0.659885 0.940087 0.309099
C23_2 C 0.7836(3) 0.9787(5) 0.3858(4)
H11_2 H 0.817291 0.960309 0.422626
C24_2 C 0.5819(4) 0.7287(6) 0.4027(8)
H12_2 H 0.582286 0.671249 0.392127
C26_2 C 0.5351(4) 0.8401(8) 0.4093(6)
N3_2 N 0.5001(3) 0.9495(8) 0.4484(5)
C32_2 C 0.6178(3) 0.8596(6) 0.4281(6)
H19_2 H 0.644775 0.896469 0.438712
C33_2 C 0.4529(4) 0.9891(10) 0.4335(7)
H20_2 H 0.435410 0.949497 0.445370
C35_2 C 0.5404(6) 0.7561(8) 0.4006(10)
H22_2 H 0.515308 0.716991 0.393119
C37_2 C 0.4877(4) 0.8723(10) 0.4043(8)
H24_2 H 0.459547 0.885573 0.354965
H25_2 H 0.475312 0.827331 0.419815
C41_2 C 0.5752(4) 0.8934(8) 0.4232(8)
H30_2 H 0.573577 0.952027 0.429192
C42_2 C 0.5336(5) 0.9309(10) 0.5243(8)
H31_2 H 0.565638 0.903159 0.536997
H32_2 H 0.515461 0.891799 0.535480
H50_2 H 0.571233 0.997721 0.616980
O13_2 O 0.4576(2) 0.5908(3) 0.9061(3)
O17_2 O 0.4558(2) 0.4044(4) 0.8734(3)
O19_2 O 0.2741(2) 0.8645(4) 0.7565(3)
O20_2 O 0.2703(3) 0.1404(4) 0.7752(3)
C62_2 C 0.3931(3) 0.6892(4) 0.8848(4)
C64_2 C 0.4329(3) 0.6210(4) 0.9286(4)
C65_2 C 0.3746(3) 0.2860(5) 0.9083(5)
H57_2 H 0.389787 0.305566 0.954381
C66_2 C 0.4342(3) 0.3858(5) 0.9033(4)
C67_2 C 0.3583(3) 0.7183(5) 0.8995(4)
H58_2 H 0.361530 0.697085 0.939271
C69_2 C 0.3195(3) 0.7775(5) 0.8566(5)
H59_2 H 0.295851 0.794407 0.865978
C71_2 C 0.3017(3) 0.0369(5) 0.8703(4)
H60_2 H 0.336651 0.051518 0.891448
C72_2 C 0.2099(3) 0.0559(5) 0.7765(5)
H61_2 H 0.183066 0.084479 0.735585
C73_2 C 0.2730(3) 0.9279(5) 0.7138(4)
C75_2 C 0.3697(3) 0.2885(5) 0.8027(4)
H63_2 H 0.381464 0.309200 0.777014
C76_2 C 0.3351(3) 0.2253(5) 0.8788(4)
H64_2 H 0.323575 0.204194 0.904767
C77_2 C 0.3133(3) 0.1970(5) 0.8119(4)
C78_2 C 0.2224(3) 0.9542(5) 0.6577(4)
H65_2 H 0.192910 0.927086 0.649466
C79_2 C 0.3162(3) 0.8115(5) 0.7988(5)
C80_2 C 0.3920(3) 0.3180(4) 0.8706(4)
C82_2 C 0.2622(3) 0.0789(5) 0.8103(5)
C84_2 C 0.3296(3) 0.2281(5) 0.7724(5)
H68_2 H 0.313965 0.208700 0.726056
C86_2 C 0.3879(3) 0.7230(5) 0.8263(4)
H70_2 H 0.410557 0.704772 0.815468
C87_2 C 0.3492(4) 0.7843(6) 0.7828(5)
H71_2 H 0.346074 0.806385 0.743255
C88_2 C 0.3165(4) 0.9661(6) 0.7255(5)
H72_2 H 0.350012 0.947232 0.762517
O22_2 O 0.70861(19) 0.6514(3) 0.5236(3)
O25_2 O 0.6768(2) 0.6367(4) 0.3723(3)
O27_2 O 0.7611(2) 0.6620(4) 0.4512(3)
N9_2 N 0.5531(2) 0.5410(4) 0.9154(3)
O15_2 O 0.1768(2) 0.8633(4) 0.8723(3)
O16_2 O 0.2611(2) 0.8380(4) 0.9512(3)
C68_2 C 0.2253(3) 0.8800(5) 0.8984(4)
C70_2 C 0.2370(3) 0.9500(5) 0.8671(5)
C81_2 C 0.1981(3) 0.9887(5) 0.8050(5)
H66_2 H 0.163375 0.970529 0.781273
C85_2 C 0.2897(4) 0.9723(6) 0.8999(5)
H69_2 H 0.316533 0.944279 0.941151
Co1_3 Co 0.00844(4) 0.00703(6) 0.44635(5)
H15_3 H 0.104930 0.051277 0.459974
O24_3 O 0.0611(2) 0.0963(3) 0.5150(3)
N1_3 N 0.0531(2) 0.9590(4) 0.4154(3)
C28_3 C 0.0981(4) 0.9986(6) 0.4373(5)
C33_3 C 0.0471(4) 0.4891(10) 0.0665(7)
H20_3 H 0.064590 0.449497 0.054630
H21_3 H 0.071233 0.502279 0.116980
C34_3 C 0.1253(4) 0.8854(7) 0.3967(6)
C36_3 C 0.1349(4) 0.9680(10) 0.4290(6)
H23_3 H 0.164864 0.999497 0.443769
C37_3 C 0.0123(4) 0.3723(10) 0.0957(8)
H24_3 H 0.040453 0.385573 0.145035
H25_3 H 0.024688 0.327331 0.080185
C38_3 C 0.0454(5) 0.8830(7) 0.3869(8)
H26_3 H 0.015449 0.852465 0.373322
C39_3 C 0.0808(6) 0.8460(7) 0.3761(8)
H27_3 H 0.072966 0.792671 0.354029
C40_3 C 0.1666(5) 0.8469(10) 0.3898(6)
H28_3 H 0.148745 0.815587 0.345169
H29_3 H 0.186238 0.893239 0.387692
N4_3 N 0.2025(3) 0.7913(5) 0.4461(4)
C43_3 C 0.2389(5) 0.7565(10) 0.4329(6)
H33_3 H 0.261955 0.801883 0.437962
H34_3 H 0.219067 0.735246 0.384343
C44_3 C 0.2287(6) 0.8141(13) 0.5171(8)
H35_3 H 0.202985 0.831701 0.524983
H36_3 H 0.251299 0.862872 0.527360
C45_3 C 0.4019(4) 0.5014(6) 0.5627(5)
H37_2 H 0.395070 0.448723 0.540026
C46_3 C 0.3747(4) 0.6146(7) 0.6033(6)
C47_3 C 0.3651(4) 0.5320(10) 0.5710(6)
H38_3 H 0.335136 0.500503 0.556231
C48_3 C 0.4546(5) 0.6170(7) 0.6131(8)
H39_3 H 0.484551 0.647535 0.626678
C49_3 C 0.4192(6) 0.6540(7) 0.6239(8)
H40_3 H 0.427034 0.707329 0.645971
C50_3 C 0.3334(5) 0.6531(10) 0.6102(6)
H41_3 H 0.351255 0.684413 0.654831
H42_3 H 0.313762 0.606761 0.612308
N6_3 N 0.2975(3) 0.7087(5) 0.5539(4)
C51_3 C 0.2611(5) 0.7435(10) 0.5671(6)
H43_3 H 0.238045 0.698117 0.562038
H44_3 H 0.280933 0.764754 0.615657
C52_3 C 0.2713(6) 0.6859(13) 0.4829(8)
H45_3 H 0.297015 0.668299 0.475017
H46_3 H 0.248701 0.637128 0.472640
C60_3 C 0.0336(5) 0.5691(10) 0.0243(8)
H55_3 H 0.065638 0.596841 0.036997
H56_3 H 0.015461 0.608201 0.035480
O30_3 O 0.0537(2) 0.9215(4) 0.5413(3)
N7_3 N 0.1221(2) 0.7230(4) 0.9186(4)
C53_3 C 0.0819(4) 0.7713(6) 0.9027(8)
H47_3 H 0.082286 0.828751 0.892127
C54_3 C 0.0351(4) 0.6599(8) 0.9093(6)
N8_3 N 0.0001(3) 0.5505(8) 0.9484(5)
C55_3 C 0.1178(3) 0.6404(6) 0.9281(6)
H48_3 H 0.144775 0.603531 0.938712
C57_3 C 0.0404(6) 0.7439(8) 0.9006(10)
H51_3 H 0.015308 0.783009 0.893119
C59_3 C 0.0752(4) 0.6066(8) 0.9232(8)
H54_3 H 0.073577 0.547973 0.929192
O13_3 O 0.0424(2) 0.0908(3) 0.5939(3)
O14_3 O 0.2039(2) 0.6696(3) 0.9021(3)
O19_3 O 0.2259(2) 0.3645(4) 0.7435(3)
C61_3 C 0.2456(3) 0.6325(4) 0.9215(4)
C62_3 C 0.1069(3) 0.1892(4) 0.6152(4)
C63_3 C 0.2405(3) 0.5609(4) 0.8754(4)
C64_3 C 0.0671(3) 0.1210(4) 0.5714(4)
C67_3 C 0.1417(3) 0.2183(5) 0.6005(4)
H58_3 H 0.138470 0.197085 0.560729
C69_3 C 0.1805(3) 0.2775(5) 0.6434(5)
H59_3 H 0.204149 0.294407 0.634022
C73_3 C 0.2270(3) 0.4279(5) 0.7862(4)
C74_3 C 0.1895(3) 0.5330(5) 0.8178(4)
H62_3 H 0.159885 0.559913 0.809099
C78_3 C 0.2776(3) 0.4542(5) 0.8423(4)
H65_3 H 0.307090 0.427086 0.850534
C79_3 C 0.1838(3) 0.3115(5) 0.7012(5)
C83_3 C 0.2836(3) 0.5213(5) 0.8858(4)
H67_3 H 0.317291 0.539691 0.922626
C86_3 C 0.1121(3) 0.2230(5) 0.6737(4)
H70_3 H 0.089443 0.204772 0.684532
C87_3 C 0.1508(4) 0.2843(6) 0.7172(5)
H71_3 H 0.153926 0.306385 0.756745
C88_3 C 0.1835(4) 0.4661(6) 0.7745(5)
H72_3 H 0.149988 0.447232 0.737483
O17_3 O 0.0442(2) 0.9044(4) 0.6266(3)
O20_3 O 0.2297(3) 0.6404(4) 0.7248(3)
C65_3 C 0.1254(3) 0.7860(5) 0.5917(5)
H57_3 H 0.110213 0.805566 0.545619
C66_3 C 0.0658(3) 0.8858(5) 0.5967(4)
C68_3 C 0.2747(3) 0.3800(5) 0.6016(4)
C70_3 C 0.2630(3) 0.4500(5) 0.6329(5)
C71_3 C 0.1983(3) 0.5369(5) 0.6297(4)
H60_3 H 0.163349 0.551518 0.608552
C72_3 C 0.2901(3) 0.5559(5) 0.7235(5)
H61_3 H 0.316934 0.584479 0.764415
C75_3 C 0.1303(3) 0.7885(5) 0.6973(4)
H63_3 H 0.118536 0.809200 0.722986
C76_3 C 0.1649(3) 0.7253(5) 0.6212(4)
H64_3 H 0.176425 0.704194 0.595233
C77_3 C 0.1867(3) 0.6970(5) 0.6881(4)
C80_3 C 0.1080(3) 0.8180(4) 0.6294(4)
C81_3 C 0.3019(3) 0.4887(5) 0.6950(5)
H66_3 H 0.336625 0.470529 0.718727
C82_3 C 0.2378(3) 0.5789(5) 0.6897(5)
C84_3 C 0.1704(3) 0.7281(5) 0.7276(5)
H68_3 H 0.186035 0.708700 0.773944
C85_3 C 0.2103(4) 0.4723(6) 0.6001(5)
H69_3 H 0.183467 0.444279 0.558849
O7_3 O 0.9558(2) 0.0956(4) 0.3734(3)
O8_3 O 0.9463(2) 0.0785(4) 0.4587(3)
O10_3 O 0.7703(3) 0.3596(4) 0.2752(3)
C5_3 C 0.8746(3) 0.2140(5) 0.4083(5)
H1_3 H 0.889787 0.194434 0.454381
C6_3 C 0.9342(3) 0.1142(5) 0.4033(4)
C8_3 C 0.7253(3) 0.6200(5) 0.3984(4)
C10_3 C 0.7370(3) 0.5500(5) 0.3671(5)
C11_3 C 0.8017(3) 0.4631(5) 0.3703(4)
H4_3 H 0.836651 0.448482 0.391448
C12_3 C 0.7099(3) 0.4441(5) 0.2765(5)
H5_3 H 0.683066 0.415521 0.235585
C15_3 C 0.8697(3) 0.2115(5) 0.3027(4)
H7_3 H 0.881464 0.190800 0.277014
C16_3 C 0.8351(3) 0.2747(5) 0.3788(4)
H8_3 H 0.823575 0.295806 0.404767
C17_3 C 0.8133(3) 0.3030(5) 0.3119(4)
C20_3 C 0.8920(3) 0.1820(4) 0.3706(4)
C21_3 C 0.6981(3) 0.5113(5) 0.3050(5)
H10_3 H 0.663375 0.529471 0.281273
C22_3 C 0.7622(3) 0.4211(5) 0.3103(5)
C25_3 C 0.8296(3) 0.2719(5) 0.2724(5)
H13_3 H 0.813965 0.291300 0.226056
C27_3 C 0.7897(4) 0.5277(6) 0.3999(5)
H14_3 H 0.816533 0.555721 0.441151
O2_3 O 0.9389(2) 0.9037(3) 0.4850(3)
O3_3 O 0.9576(2) 0.9092(3) 0.4061(3)
O4_3 O 0.7961(2) 0.3304(3) 0.0979(3)
O9_3 O 0.7741(2) 0.6355(4) 0.2565(3)
N2_3 N 0.8779(2) 0.2770(4) 0.0814(4)
C1_3 C 0.7544(3) 0.3675(4) 0.0785(4)
C2_3 C 0.8931(3) 0.8108(4) 0.3848(4)
C3_3 C 0.7595(3) 0.4391(4) 0.1246(4)
C4_3 C 0.9329(3) 0.8790(4) 0.4286(4)
C7_3 C 0.8583(3) 0.7817(5) 0.3995(4)
H2_3 H 0.861530 0.802915 0.439271
C9_3 C 0.8195(3) 0.7225(5) 0.3566(5)
H3_3 H 0.795851 0.705593 0.365978
C13_3 C 0.7730(3) 0.5721(5) 0.2138(4)
C14_3 C 0.8105(3) 0.4670(5) 0.1822(4)
H6_3 H 0.840115 0.440087 0.190901
C18_3 C 0.7224(3) 0.5458(5) 0.1577(4)
H9_3 H 0.692910 0.572914 0.149466
C19_3 C 0.8162(3) 0.6885(5) 0.2988(5)
C23_3 C 0.7164(3) 0.4787(5) 0.1142(4)
H11_3 H 0.682709 0.460309 0.077374
C24_3 C 0.9181(4) 0.2287(6) 0.0973(8)
H12_3 H 0.917714 0.171249 0.107873
C26_3 C 0.9649(4) 0.3401(8) 0.0907(6)
C29_3 C 0.8879(3) 0.7770(5) 0.3263(4)
H16_3 H 0.910557 0.795228 0.315468
C30_3 C 0.8492(4) 0.7157(6) 0.2828(5)
H17_3 H 0.846074 0.693615 0.243255
C31_3 C 0.8165(4) 0.5339(6) 0.2255(5)
H18_3 H 0.850012 0.552768 0.262517
N3_3 N 0.9999(3) 0.4495(8) 0.0516(5)
C32_3 C 0.8822(3) 0.3596(6) 0.0719(6)
H19_3 H 0.855225 0.396469 0.061288
C35_3 C 0.9596(6) 0.2561(8) 0.0994(10)
H22_3 H 0.984692 0.216991 0.106881
C41_3 C 0.9248(4) 0.3934(8) 0.0768(8)
H30_3 H 0.926423 0.452027 0.070808
C42_3 C 0.9664(5) 0.4309(10) 0.9757(8)
H31_3 H 0.934362 0.403159 0.963003
H32_3 H 0.984539 0.391799 0.964520
C56_3 C 0.9529(4) 0.5109(10) 0.9335(7)
H49_3 H 0.935410 0.550503 0.945370
H50_3 H 0.928767 0.497721 0.883020
C58_3 C 0.9877(4) 0.6277(10) 0.9043(8)
H52_3 H 0.959547 0.614427 0.854965
H53_3 H 0.975312 0.672669 0.919815
O7_4 O 0.0442(2) 0.0956(4) 0.1266(3)
O8_4 O 0.0537(2) 0.0785(4) 0.0413(3)
O10_4 O 0.2297(3) 0.3596(4) 0.2248(3)
C5_4 C 0.1254(3) 0.2140(5) 0.0917(5)
H1_4 H 0.110213 0.194434 0.045619
C6_4 C 0.0658(3) 0.1142(5) 0.0967(4)
C8_4 C 0.2747(3) 0.6200(5) 0.1016(4)
C10_4 C 0.2630(3) 0.5500(5) 0.1329(5)
C11_4 C 0.1983(3) 0.4631(5) 0.1297(4)
H4_4 H 0.163349 0.448482 0.108552
C12_4 C 0.2901(3) 0.4441(5) 0.2235(5)
H5_4 H 0.316934 0.415521 0.264415
C15_4 C 0.1303(3) 0.2115(5) 0.1973(4)
H7_4 H 0.118536 0.190800 0.222986
C16_4 C 0.1649(3) 0.2747(5) 0.1212(4)
H8_4 H 0.176425 0.295806 0.095233
C17_4 C 0.1867(3) 0.3030(5) 0.1881(4)
C20_4 C 0.1080(3) 0.1820(4) 0.1294(4)
C21_4 C 0.3019(3) 0.5113(5) 0.1950(5)
H10_4 H 0.336625 0.529471 0.218727
C22_4 C 0.2378(3) 0.4211(5) 0.1897(5)
C25_4 C 0.1704(3) 0.2719(5) 0.2276(5)
H13_4 H 0.186035 0.291300 0.273944
C27_4 C 0.2103(4) 0.5277(6) 0.1001(5)
H14_4 H 0.183467 0.555721 0.058849
O2_4 O 0.0611(2) 0.9037(3) 0.0150(3)
O3_4 O 0.0424(2) 0.9092(3) 0.0939(3)
O4_4 O 0.2039(2) 0.3304(3) 0.4021(3)
O9_4 O 0.2259(2) 0.6355(4) 0.2435(3)
N2_4 N 0.1221(2) 0.2770(4) 0.4186(4)
C1_4 C 0.2456(3) 0.3675(4) 0.4215(4)
C2_4 C 0.1069(3) 0.8108(4) 0.1152(4)
C3_4 C 0.2405(3) 0.4391(4) 0.3754(4)
C4_4 C 0.0671(3) 0.8790(4) 0.0714(4)
C7_4 C 0.1417(3) 0.7817(5) 0.1005(4)
H2_4 H 0.138470 0.802915 0.060729
C9_4 C 0.1805(3) 0.7225(5) 0.1434(5)
H3_4 H 0.204149 0.705593 0.134022
C13_4 C 0.2270(3) 0.5721(5) 0.2862(4)
C14_4 C 0.1895(3) 0.4670(5) 0.3178(4)
H6_4 H 0.159885 0.440087 0.309099
C18_4 C 0.2776(3) 0.5458(5) 0.3423(4)
H9_4 H 0.307090 0.572914 0.350534
C19_4 C 0.1838(3) 0.6885(5) 0.2012(5)
C23_4 C 0.2836(3) 0.4787(5) 0.3858(4)
H11_4 H 0.317291 0.460309 0.422626
C24_4 C 0.0819(4) 0.2287(6) 0.4027(8)
H12_4 H 0.082286 0.171249 0.392127
C26_4 C 0.0351(4) 0.3401(8) 0.4093(6)
C29_4 C 0.1121(3) 0.7770(5) 0.1737(4)
H16_4 H 0.089443 0.795228 0.184532
C30_4 C 0.1508(4) 0.7157(6) 0.2172(5)
H17_4 H 0.153926 0.693615 0.256745
C31_4 C 0.1835(4) 0.5339(6) 0.2745(5)
H18_4 H 0.149988 0.552768 0.237483
N3_4 N 0.0001(3) 0.4495(8) 0.4484(5)
C32_4 C 0.1178(3) 0.3596(6) 0.4281(6)
H19_4 H 0.144775 0.396469 0.438712
C35_4 C 0.0404(6) 0.2561(8) 0.4006(10)
H22_4 H 0.015308 0.216991 0.393119
C41_4 C 0.0752(4) 0.3934(8) 0.4232(8)
H30_4 H 0.073577 0.452027 0.429192
C42_4 C 0.0336(5) 0.4309(10) 0.5243(8)
H31_4 H 0.065638 0.403159 0.536997
H32_4 H 0.015461 0.391799 0.535480
C56_4 C 0.0471(4) 0.5109(10) 0.5665(7)
H49_4 H 0.064590 0.550503 0.554630
H50_4 H 0.071233 0.497721 0.616980
C58_4 C 0.0123(4) 0.6277(10) 0.5957(8)
H52_4 H 0.040453 0.614427 0.645035
H53_4 H 0.024688 0.672669 0.580185
O24_4 O 0.9389(2) 0.0963(3) 0.9850(3)
N1_4 N 0.9469(2) 0.9590(4) 0.0846(3)
C28_4 C 0.9019(4) 0.9986(6) 0.0627(5)
C33_4 C 0.9529(4) 0.4891(10) 0.4335(7)
H20_4 H 0.935410 0.449497 0.445370
H21_4 H 0.928767 0.502279 0.383020
C34_4 C 0.8747(4) 0.8854(7) 0.1033(6)
C36_4 C 0.8651(4) 0.9680(10) 0.0710(6)
H23_4 H 0.835136 0.999497 0.056231
C37_4 C 0.9877(4) 0.3723(10) 0.4043(8)
H24_4 H 0.959547 0.385573 0.354965
H25_4 H 0.975312 0.327331 0.419815
C38_4 C 0.9546(5) 0.8830(7) 0.1131(8)
H26_4 H 0.984551 0.852465 0.126678
C39_4 C 0.9192(6) 0.8460(7) 0.1239(8)
H27_4 H 0.927034 0.792671 0.145971
C40_4 C 0.8334(5) 0.8469(10) 0.1102(6)
H28_4 H 0.851255 0.815587 0.154831
H29_4 H 0.813762 0.893239 0.112308
N4_4 N 0.7975(3) 0.7913(5) 0.0539(4)
C43_4 C 0.7611(5) 0.7565(10) 0.0671(6)
H33_4 H 0.738045 0.801883 0.062038
H34_4 H 0.780933 0.735246 0.115657
C52_4 C 0.7287(6) 0.6859(13) 0.0171(8)
H45_4 H 0.702985 0.668299 0.024983
H46_4 H 0.751299 0.637128 0.027360
N7_4 N 0.8779(2) 0.7230(4) 0.5814(4)
C53_4 C 0.9181(4) 0.7713(6) 0.5973(8)
H47_4 H 0.917714 0.828751 0.607873
C54_4 C 0.9649(4) 0.6599(8) 0.5907(6)
N8_4 N 0.9999(3) 0.5505(8) 0.5516(5)
C55_4 C 0.8822(3) 0.6404(6) 0.5719(6)
H48_4 H 0.855225 0.603531 0.561288
C57_4 C 0.9596(6) 0.7439(8) 0.5994(10)
H51_4 H 0.984692 0.783009 0.606881
C59_4 C 0.9248(4) 0.6066(8) 0.5768(8)
H54_4 H 0.926423 0.547973 0.570808
C60_4 C 0.9664(5) 0.5691(10) 0.4757(8)
H55_4 H 0.934362 0.596841 0.463003
H56_4 H 0.984539 0.608201 0.464520
O13_4 O 0.9576(2) 0.0908(3) 0.9061(3)
O14_4 O 0.7961(2) 0.6696(3) 0.5979(3)
O19_4 O 0.7741(2) 0.3645(4) 0.7565(3)
C61_4 C 0.7544(3) 0.6325(4) 0.5785(4)
C62_4 C 0.8931(3) 0.1892(4) 0.8848(4)
C63_4 C 0.7595(3) 0.5609(4) 0.6246(4)
C64_4 C 0.9329(3) 0.1210(4) 0.9286(4)
C67_4 C 0.8583(3) 0.2183(5) 0.8995(4)
H58_4 H 0.861530 0.197085 0.939271
C69_4 C 0.8195(3) 0.2775(5) 0.8566(5)
H59_4 H 0.795851 0.294407 0.865978
C73_4 C 0.7730(3) 0.4279(5) 0.7138(4)
C74_4 C 0.8105(3) 0.5330(5) 0.6822(4)
H62_4 H 0.840115 0.559913 0.690901
C78_4 C 0.7224(3) 0.4542(5) 0.6577(4)
H65_4 H 0.692910 0.427086 0.649466
C79_4 C 0.8162(3) 0.3115(5) 0.7988(5)
C83_4 C 0.7164(3) 0.5213(5) 0.6142(4)
H67_4 H 0.682709 0.539691 0.577374
C86_4 C 0.8879(3) 0.2230(5) 0.8263(4)
H70_4 H 0.910557 0.204772 0.815468
C87_4 C 0.8492(4) 0.2843(6) 0.7828(5)
H71_4 H 0.846074 0.306385 0.743255
C88_4 C 0.8165(4) 0.4661(6) 0.7255(5)
H72_4 H 0.850012 0.447232 0.762517
C44_4 C 0.7713(6) 0.8141(13) 0.9829(8)
H35_4 H 0.797015 0.831701 0.975017
H36_4 H 0.748701 0.862872 0.972640
C45_4 C 0.5981(4) 0.5014(6) 0.9373(5)
H37_3 H 0.604930 0.448723 0.959974
C46_4 C 0.6253(4) 0.6146(7) 0.8967(6)
C47_4 C 0.6349(4) 0.5320(10) 0.9290(6)
H38_4 H 0.664864 0.500503 0.943769
C48_4 C 0.5454(5) 0.6170(7) 0.8869(8)
H39_4 H 0.515449 0.647535 0.873322
C49_4 C 0.5808(6) 0.6540(7) 0.8761(8)
H40_4 H 0.572966 0.707329 0.854029
C50_4 C 0.6666(5) 0.6531(10) 0.8898(6)
H41_4 H 0.648745 0.684413 0.845169
H42_4 H 0.686238 0.606761 0.887692
N6_4 N 0.7025(3) 0.7087(5) 0.9461(4)
C51_4 C 0.7389(5) 0.7435(10) 0.9329(6)
H43_4 H 0.761955 0.698117 0.937962
H44_4 H 0.719067 0.764754 0.884343
O30_4 O 0.9463(2) 0.9215(4) 0.9587(3)
O17_4 O 0.9558(2) 0.9044(4) 0.8734(3)
O20_4 O 0.7703(3) 0.6404(4) 0.7752(3)
C65_4 C 0.8746(3) 0.7860(5) 0.9083(5)
H57_4 H 0.889787 0.805566 0.954381
C66_4 C 0.9342(3) 0.8858(5) 0.9033(4)
C68_4 C 0.7253(3) 0.3800(5) 0.8984(4)
C70_4 C 0.7370(3) 0.4500(5) 0.8671(5)
C71_4 C 0.8017(3) 0.5369(5) 0.8703(4)
H60_4 H 0.836651 0.551518 0.891448
C72_4 C 0.7099(3) 0.5559(5) 0.7765(5)
H61_4 H 0.683066 0.584479 0.735585
C75_4 C 0.8697(3) 0.7885(5) 0.8027(4)
H63_4 H 0.881464 0.809200 0.777014
C76_4 C 0.8351(3) 0.7253(5) 0.8788(4)
H64_4 H 0.823575 0.704194 0.904767
C77_4 C 0.8133(3) 0.6970(5) 0.8119(4)
C80_4 C 0.8920(3) 0.8180(4) 0.8706(4)
C81_4 C 0.6981(3) 0.4887(5) 0.8050(5)
H66_4 H 0.663375 0.470529 0.781273
C82_4 C 0.7622(3) 0.5789(5) 0.8103(5)
C84_4 C 0.8296(3) 0.7281(5) 0.7724(5)
H68_4 H 0.813965 0.708700 0.726056
C85_4 C 0.7897(4) 0.4723(6) 0.8999(5)
H69_4 H 0.816533 0.444279 0.941151
H37_4 H 0.104930 0.948723 0.959974
Co7_2 Co 0.00844(4) 0.99297(6) 0.94635(5)
Co1_4 Co 0.99156(4) 0.00703(6) 0.05365(5)
H15_4 H 0.895070 0.051277 0.040026
loop_
_geom_bond_atom_site_label_1
_geom_bond_atom_site_label_2
_geom_bond_site_symmetry_1
_geom_bond_site_symmetry_2
O5 C8 1_555 1_555
O6 C8 1_555 1_555
C8 C10 1_555 1_555
C10 C21 1_555 1_555
H10 C21 1_555 1_555
C27 C10 1_555 1_555
H14 C27 1_555 1_555
Co9 O5 1_555 1_555
O6 Co9 1_555 1_555
Co1 O3 1_555 1_555
O2 C4 1_555 1_555
O3 C4 1_555 1_555
O7 Co1 1_555 1_555
O8 Co1 1_555 1_555
O9 C13 1_555 1_555
O10 C17 1_555 1_555
N1 Co1 1_555 1_555
C2 C4 1_555 1_555
C5 H1 1_555 1_555
C6 O7 1_555 1_555
C7 C2 1_555 1_555
H2 C7 1_555 1_555
C9 C7 1_555 1_555
H3 C9 1_555 1_555
C11 H4 1_555 1_555
C12 H5 1_555 1_555
C13 C18 1_555 1_555
C15 H7 1_555 1_555
C16 C5 1_555 1_555
H8 C16 1_555 1_555
C17 C16 1_555 1_555
C18 H9 1_555 1_555
C19 O9 1_555 1_555
C20 C5 1_555 1_555
C22 O10 1_555 1_555
C25 C15 1_555 1_555
H13 C25 1_555 1_555
C28 N1 1_555 1_555
H15 C28 1_555 1_555
C29 C2 1_555 1_555
H16 C29 1_555 1_555
C30 C19 1_555 1_555
H17 C30 1_555 1_555
C31 C13 1_555 1_555
H18 C31 1_555 1_555
C34 C36 1_555 1_555
C36 C28 1_555 1_555
H23 C36 1_555 1_555
C38 N1 1_555 1_555
H26 C38 1_555 1_555
C39 C34 1_555 1_555
H27 C39 1_555 1_555
C40 C34 1_555 1_555
H28 C40 1_555 1_555
H29 C40 1_555 1_555
N4 C40 1_555 1_555
C43 N4 1_555 1_555
H33 C43 1_555 1_555
H34 C43 1_555 1_555
C44 N4 1_555 1_555
H35 C44 1_555 1_555
H36 C44 1_555 1_555
N5 C45 1_555 1_555
C46 C47 1_555 1_555
C47 C45 1_555 1_555
H38 C47 1_555 1_555
C48 N5 1_555 1_555
H39 C48 1_555 1_555
C49 C46 1_555 1_555
H40 C49 1_555 1_555
C50 C46 1_555 1_555
H41 C50 1_555 1_555
H42 C50 1_555 1_555
N6 C50 1_555 1_555
C51 C44 1_555 1_555
H43 C51 1_555 1_555
H44 C51 1_555 1_555
C52 C43 1_555 1_555
H45 C52 1_555 1_555
H46 C52 1_555 1_555
H55 C60 1_555 1_555
H56 C60 1_555 1_555
Co6 O2 1_555 1_555
O24 Co1 1_555 1_555
O30 Co1 1_555 1_555
O8 C6 1_555 1_555
O8 Co6 1_555 1_555
C6 C20 1_555 1_555
C9 C19 1_555 1_555
C11 C22 1_555 1_555
C12 C22 1_555 1_555
C15 C20 1_555 1_555
C17 C25 1_555 1_555
C29 C30 1_555 1_555
C38 C39 1_555 1_555
C48 C49 1_555 1_555
N6 C51 1_555 1_555
N6 C52 1_555 1_555
Co6 O30 1_555 1_555
N7 C53 1_555 1_555
C53 H47 1_555 1_555
C54 C57 1_555 1_555
N8 C56 1_555 1_555
C55 N7 1_555 1_555
H48 C55 1_555 1_555
H49 C56 1_555 1_555
C57 C53 1_555 1_555
H51 C57 1_555 1_555
C58 C54 1_555 1_555
H52 C58 1_555 1_555
H53 C58 1_555 1_555
C59 C54 1_555 1_555
H54 C59 1_555 1_555
Co4 N7 1_555 1_555
O11 C61 1_555 1_555
O14 Co4 1_555 1_555
C61 O14 1_555 1_555
C63 C61 1_555 1_555
C74 C63 1_555 1_555
H62 C74 1_555 1_555
C83 C63 1_555 1_555
H67 C83 1_555 1_555
O26 Co4 1_555 1_555
O28 Co4 1_555 1_555
N8 C58 1_555 1_555
C55 C59 1_555 1_555
Co2 O4 1_555 1_555
O1 C1 1_555 1_555
O4 C1 1_555 1_555
N2 Co2 1_555 1_555
C1 C3 1_555 1_555
C3 C14 1_555 1_555
C14 H6 1_555 1_555
C23 C3 1_555 1_555
H11 C23 1_555 1_555
C24 N2 1_555 1_555
H12 C24 1_555 1_555
C26 C35 1_555 1_555
N3 C33 1_555 1_555
C32 N2 1_555 1_555
H19 C32 1_555 1_555
C33 H20 1_555 1_555
C35 C24 1_555 1_555
H22 C35 1_555 1_555
C37 C26 1_555 1_555
H24 C37 1_555 1_555
H25 C37 1_555 1_555
C41 C26 1_555 1_555
H30 C41 1_555 1_555
O25 Co2 1_555 1_555
O27 Co2 1_555 1_555
N3 C37 1_555 1_555
C32 C41 1_555 1_555
H31 C42 1_555 1_555
H32 C42 1_555 1_555
Co6 O13 1_555 1_555
O24 C64 1_555 1_555
O13 C64 1_555 1_555
O17 Co6 1_555 1_555
O19 C73 1_555 1_555
O20 C77 1_555 1_555
C62 C64 1_555 1_555
C65 H57 1_555 1_555
C66 O17 1_555 1_555
C67 C62 1_555 1_555
H58 C67 1_555 1_555
C69 C67 1_555 1_555
H59 C69 1_555 1_555
C71 H60 1_555 1_555
C72 H61 1_555 1_555
C73 C78 1_555 1_555
C75 H63 1_555 1_555
C76 C65 1_555 1_555
H64 C76 1_555 1_555
C77 C76 1_555 1_555
C78 H65 1_555 1_555
C79 O19 1_555 1_555
C80 C65 1_555 1_555
C82 O20 1_555 1_555
C84 C75 1_555 1_555
H68 C84 1_555 1_555
C86 C62 1_555 1_555
H70 C86 1_555 1_555
C87 C79 1_555 1_555
H71 C87 1_555 1_555
C88 C73 1_555 1_555
H72 C88 1_555 1_555
N9 Co6 1_555 1_555
O30 C66 1_555 1_555
C66 C80 1_555 1_555
C69 C79 1_555 1_555
C71 C82 1_555 1_555
C72 C82 1_555 1_555
C75 C80 1_555 1_555
C77 C84 1_555 1_555
C86 C87 1_555 1_555
O15 C68 1_555 1_555
O16 C68 1_555 1_555
C68 C70 1_555 1_555
C70 C81 1_555 1_555
H66 C81 1_555 1_555
C85 C70 1_555 1_555
H69 C85 1_555 1_555
Co11 O15 1_555 1_555
O16 Co11 1_555 1_555
O5_2 C8_2 1_555 1_555
O6_2 C8_2 1_555 1_555
C8_2 C10_2 1_555 1_555
C10_2 C21_2 1_555 1_555
H10_2 C21_2 1_555 1_555
C27_2 C10_2 1_555 1_555
H14_2 C27_2 1_555 1_555
Co8 O5_2 1_555 1_555
O6_2 Co8 1_555 1_555
Co1_2 O3_2 1_555 1_555
O2_2 C4_2 1_555 1_555
O3_2 C4_2 1_555 1_555
O7_2 Co1_2 1_555 1_555
O8_2 Co1_2 1_555 1_555
O9_2 C13_2 1_555 1_555
O10_2 C17_2 1_555 1_555
N1_2 Co1_2 1_555 1_555
C2_2 C4_2 1_555 1_555
C5_2 H1_2 1_555 1_555
C6_2 O7_2 1_555 1_555
C7_2 C2_2 1_555 1_555
H2_2 C7_2 1_555 1_555
C9_2 C7_2 1_555 1_555
H3_2 C9_2 1_555 1_555
C11_2 H4_2 1_555 1_555
C12_2 H5_2 1_555 1_555
C13_2 C18_2 1_555 1_555
C15_2 H7_2 1_555 1_555
C16_2 C5_2 1_555 1_555
H8_2 C16_2 1_555 1_555
C17_2 C16_2 1_555 1_555
C18_2 H9_2 1_555 1_555
C19_2 O9_2 1_555 1_555
C20_2 C5_2 1_555 1_555
C22_2 O10_2 1_555 1_555
C25_2 C15_2 1_555 1_555
H13_2 C25_2 1_555 1_555
C28_2 N1_2 1_555 1_555
H15_2 C28_2 1_555 1_555
C29_2 C2_2 1_555 1_555
H16_2 C29_2 1_555 1_555
C30_2 C19_2 1_555 1_555
H17_2 C30_2 1_555 1_555
C31_2 C13_2 1_555 1_555
H18_2 C31_2 1_555 1_555
C34_2 C36_2 1_555 1_555
C36_2 C28_2 1_555 1_555
H23_2 C36_2 1_555 1_555
C38_2 N1_2 1_555 1_555
H26_2 C38_2 1_555 1_555
C39_2 C34_2 1_555 1_555
H27_2 C39_2 1_555 1_555
C40_2 C34_2 1_555 1_555
H28_2 C40_2 1_555 1_555
H29_2 C40_2 1_555 1_555
N4_2 C40_2 1_555 1_555
C43_2 N4_2 1_555 1_555
H33_2 C43_2 1_555 1_555
H34_2 C43_2 1_555 1_555
C52_2 C43_2 1_555 1_555
H45_2 C52_2 1_555 1_555
H46_2 C52_2 1_555 1_555
N7_2 C53_2 1_555 1_555
C53_2 H47_2 1_555 1_555
C54_2 C57_2 1_555 1_555
N8_2 C56_2 1_555 1_555
C55_2 N7_2 1_555 1_555
H48_2 C55_2 1_555 1_555
H49_2 C56_2 1_555 1_555
C57_2 C53_2 1_555 1_555
H51_2 C57_2 1_555 1_555
C58_2 C54_2 1_555 1_555
H52_2 C58_2 1_555 1_555
H53_2 C58_2 1_555 1_555
C59_2 C54_2 1_555 1_555
H54_2 C59_2 1_555 1_555
H55_2 C60_2 1_555 1_555
H56_2 C60_2 1_555 1_555
Co4_2 N7_2 1_555 1_555
O11_2 C61_2 1_555 1_555
O14_2 Co4_2 1_555 1_555
C61_2 O14_2 1_555 1_555
C63_2 C61_2 1_555 1_555
C74_2 C63_2 1_555 1_555
H62_2 C74_2 1_555 1_555
C83_2 C63_2 1_555 1_555
H67_2 C83_2 1_555 1_555
Co9 O11_2 1_555 1_555
O21_2 Co4_2 1_555 1_555
O26_2 Co4_2 1_555 1_555
O28_2 Co4_2 1_555 1_555
O8_2 C6_2 1_555 1_555
C6_2 C20_2 1_555 1_555
C9_2 C19_2 1_555 1_555
C11_2 C22_2 1_555 1_555
C12_2 C22_2 1_555 1_555
C15_2 C20_2 1_555 1_555
C17_2 C25_2 1_555 1_555
C29_2 C30_2 1_555 1_555
C38_2 C39_2 1_555 1_555
N8_2 C58_2 1_555 1_555
N8_2 C60_2 1_555 1_555
C55_2 C59_2 1_555 1_555
H35_2 C44_2 1_555 1_555
H36_2 C44_2 1_555 1_555
N5_2 C45_2 1_555 1_555
C46_2 C47_2 1_555 1_555
C47_2 C45_2 1_555 1_555
H38_2 C47_2 1_555 1_555
C48_2 N5_2 1_555 1_555
H39_2 C48_2 1_555 1_555
C49_2 C46_2 1_555 1_555
H40_2 C49_2 1_555 1_555
C50_2 C46_2 1_555 1_555
H41_2 C50_2 1_555 1_555
H42_2 C50_2 1_555 1_555
N6_2 C50_2 1_555 1_555
C51_2 C44_2 1_555 1_555
H43_2 C51_2 1_555 1_555
H44_2 C51_2 1_555 1_555
C48_2 C49_2 1_555 1_555
N6_2 C51_2 1_555 1_555
Co6_2 O30_2 1_555 1_555
Co2_2 O4_2 1_555 1_555
O1_2 C1_2 1_555 1_555
O4_2 C1_2 1_555 1_555
N2_2 Co2_2 1_555 1_555
C1_2 C3_2 1_555 1_555
C3_2 C14_2 1_555 1_555
C14_2 H6_2 1_555 1_555
C23_2 C3_2 1_555 1_555
H11_2 C23_2 1_555 1_555
C24_2 N2_2 1_555 1_555
H12_2 C24_2 1_555 1_555
C26_2 C35_2 1_555 1_555
N3_2 C33_2 1_555 1_555
C32_2 N2_2 1_555 1_555
H19_2 C32_2 1_555 1_555
C33_2 H20_2 1_555 1_555
C35_2 C24_2 1_555 1_555
H22_2 C35_2 1_555 1_555
C37_2 C26_2 1_555 1_555
H24_2 C37_2 1_555 1_555
H25_2 C37_2 1_555 1_555
C41_2 C26_2 1_555 1_555
H30_2 C41_2 1_555 1_555
C42_2 N3_2 1_555 1_555
H31_2 C42_2 1_555 1_555
H32_2 C42_2 1_555 1_555
Co6_2 O13_2 1_555 1_555
O24_2 C64_2 1_555 1_555
O13_2 C64_2 1_555 1_555
O17_2 Co6_2 1_555 1_555
O19_2 C73_2 1_555 1_555
O20_2 C77_2 1_555 1_555
C62_2 C64_2 1_555 1_555
C65_2 H57_2 1_555 1_555
C66_2 O17_2 1_555 1_555
C67_2 C62_2 1_555 1_555
H58_2 C67_2 1_555 1_555
C69_2 C67_2 1_555 1_555
H59_2 C69_2 1_555 1_555
C71_2 H60_2 1_555 1_555
C72_2 H61_2 1_555 1_555
C73_2 C78_2 1_555 1_555
C75_2 H63_2 1_555 1_555
C76_2 C65_2 1_555 1_555
H64_2 C76_2 1_555 1_555
C77_2 C76_2 1_555 1_555
C78_2 H65_2 1_555 1_555
C79_2 O19_2 1_555 1_555
C80_2 C65_2 1_555 1_555
C82_2 O20_2 1_555 1_555
C84_2 C75_2 1_555 1_555
H68_2 C84_2 1_555 1_555
C86_2 C62_2 1_555 1_555
H70_2 C86_2 1_555 1_555
C87_2 C79_2 1_555 1_555
H71_2 C87_2 1_555 1_555
C88_2 C73_2 1_555 1_555
H72_2 C88_2 1_555 1_555
Co11 O1_2 1_555 1_555
O22_2 Co2_2 1_555 1_555
O25_2 Co2_2 1_555 1_555
O27_2 Co2_2 1_555 1_555
N9_2 Co6_2 1_555 1_555
N3_2 C37_2 1_555 1_555
C32_2 C41_2 1_555 1_555
O30_2 C66_2 1_555 1_555
C66_2 C80_2 1_555 1_555
C69_2 C79_2 1_555 1_555
C71_2 C82_2 1_555 1_555
C72_2 C82_2 1_555 1_555
C75_2 C80_2 1_555 1_555
C77_2 C84_2 1_555 1_555
C86_2 C87_2 1_555 1_555
O15_2 C68_2 1_555 1_555
O16_2 C68_2 1_555 1_555
C68_2 C70_2 1_555 1_555
C70_2 C81_2 1_555 1_555
H66_2 C81_2 1_555 1_555
C85_2 C70_2 1_555 1_555
H69_2 C85_2 1_555 1_555
Co10 O15_2 1_555 1_555
O16_2 Co10 1_555 1_555
O24_3 Co1_3 1_555 1_555
C28_3 N1_3 1_555 1_555
C33_3 H20_3 1_555 1_555
H21_3 C33_3 1_555 1_555
C34_3 C36_3 1_555 1_555
C36_3 C28_3 1_555 1_555
H23_3 C36_3 1_555 1_555
H24_3 C37_3 1_555 1_555
H25_3 C37_3 1_555 1_555
C38_3 N1_3 1_555 1_555
H26_3 C38_3 1_555 1_555
C39_3 C34_3 1_555 1_555
H27_3 C39_3 1_555 1_555
C40_3 C34_3 1_555 1_555
H28_3 C40_3 1_555 1_555
H29_3 C40_3 1_555 1_555
N4_3 C40_3 1_555 1_555
C43_3 N4_3 1_555 1_555
H33_3 C43_3 1_555 1_555
H34_3 C43_3 1_555 1_555
C44_3 N4_3 1_555 1_555
H35_3 C44_3 1_555 1_555
H36_3 C44_3 1_555 1_555
N9 C45_3 1_555 1_555
C45_3 H37_2 1_555 1_555
C46_3 C47_3 1_555 1_555
C47_3 C45_3 1_555 1_555
H38_3 C47_3 1_555 1_555
C48_3 N9 1_555 1_555
H39_3 C48_3 1_555 1_555
C49_3 C46_3 1_555 1_555
H40_3 C49_3 1_555 1_555
C50_3 C46_3 1_555 1_555
H41_3 C50_3 1_555 1_555
H42_3 C50_3 1_555 1_555
N6_3 C50_3 1_555 1_555
C51_3 C44_3 1_555 1_555
H43_3 C51_3 1_555 1_555
H44_3 C51_3 1_555 1_555
C52_3 C43_3 1_555 1_555
H45_3 C52_3 1_555 1_555
H46_3 C52_3 1_555 1_555
C60_3 C33_3 1_555 1_555
H55_3 C60_3 1_555 1_555
H56_3 C60_3 1_555 1_555
C38_3 C39_3 1_555 1_555
C48_3 C49_3 1_555 1_555
N6_3 C51_3 1_555 1_555
N6_3 C52_3 1_555 1_555
N7_3 C53_3 1_555 1_555
C53_3 H47_3 1_555 1_555
C54_3 C57_3 1_555 1_555
C55_3 N7_3 1_555 1_555
H48_3 C55_3 1_555 1_555
C57_3 C53_3 1_555 1_555
H51_3 C57_3 1_555 1_555
C59_3 C54_3 1_555 1_555
H54_3 C59_3 1_555 1_555
Co10 N7_3 1_555 1_555
O22 C61_3 1_555 1_555
O24_3 C64_3 1_555 1_555
O13_3 C64_3 1_555 1_555
O14_3 Co10 1_555 1_555
O19_3 C73_3 1_555 1_555
C61_3 O14_3 1_555 1_555
C62_3 C64_3 1_555 1_555
C63_3 C61_3 1_555 1_555
C67_3 C62_3 1_555 1_555
H58_3 C67_3 1_555 1_555
C69_3 C67_3 1_555 1_555
H59_3 C69_3 1_555 1_555
C73_3 C78_3 1_555 1_555
C74_3 C63_3 1_555 1_555
H62_3 C74_3 1_555 1_555
C78_3 H65_3 1_555 1_555
C79_3 O19_3 1_555 1_555
C83_3 C63_3 1_555 1_555
H67_3 C83_3 1_555 1_555
C86_3 C62_3 1_555 1_555
H70_3 C86_3 1_555 1_555
C87_3 C79_3 1_555 1_555
H71_3 C87_3 1_555 1_555
C88_3 C73_3 1_555 1_555
H72_3 C88_3 1_555 1_555
C55_3 C59_3 1_555 1_555
C69_3 C79_3 1_555 1_555
C74_3 C88_3 1_555 1_555
C78_3 C83_3 1_555 1_555
C86_3 C87_3 1_555 1_555
O26_2 C68_3 1_555 1_555
O28_2 C68_3 1_555 1_555
O20_3 C77_3 1_555 1_555
C65_3 H57_3 1_555 1_555
C66_3 O17_3 1_555 1_555
C68_3 C70_3 1_555 1_555
C70_3 C81_3 1_555 1_555
C71_3 H60_3 1_555 1_555
C72_3 H61_3 1_555 1_555
C75_3 H63_3 1_555 1_555
C76_3 C65_3 1_555 1_555
H64_3 C76_3 1_555 1_555
C77_3 C76_3 1_555 1_555
C80_3 C65_3 1_555 1_555
C81_3 C72_3 1_555 1_555
H66_3 C81_3 1_555 1_555
C82_3 O20_3 1_555 1_555
C84_3 C75_3 1_555 1_555
H68_3 C84_3 1_555 1_555
C85_3 C70_3 1_555 1_555
H69_3 C85_3 1_555 1_555
O30_3 C66_3 1_555 1_555
C66_3 C80_3 1_555 1_555
C71_3 C82_3 1_555 1_555
C71_3 C85_3 1_555 1_555
C72_3 C82_3 1_555 1_555
C75_3 C80_3 1_555 1_555
C77_3 C84_3 1_555 1_555
O25_2 C8_3 1_555 1_555
O27_2 C8_3 1_555 1_555
O10_3 C17_3 1_555 1_555
C5_3 H1_3 1_555 1_555
C6_3 O7_3 1_555 1_555
C8_3 C10_3 1_555 1_555
C10_3 C21_3 1_555 1_555
C11_3 H4_3 1_555 1_555
C12_3 H5_3 1_555 1_555
C15_3 H7_3 1_555 1_555
C16_3 C5_3 1_555 1_555
H8_3 C16_3 1_555 1_555
C17_3 C16_3 1_555 1_555
C20_3 C5_3 1_555 1_555
C21_3 C12_3 1_555 1_555
H10_3 C21_3 1_555 1_555
C22_3 O10_3 1_555 1_555
C25_3 C15_3 1_555 1_555
H13_3 C25_3 1_555 1_555
C27_3 C10_3 1_555 1_555
H14_3 C27_3 1_555 1_555
O8_3 C6_3 1_555 1_555
C6_3 C20_3 1_555 1_555
C11_3 C22_3 1_555 1_555
C11_3 C27_3 1_555 1_555
C12_3 C22_3 1_555 1_555
C15_3 C20_3 1_555 1_555
C17_3 C25_3 1_555 1_555
Co8 O4_3 1_555 1_555
O21 C1_3 1_555 1_555
O2_3 C4_3 1_555 1_555
O3_3 C4_3 1_555 1_555
O4_3 C1_3 1_555 1_555
O9_3 C13_3 1_555 1_555
N2_3 Co8 1_555 1_555
C1_3 C3_3 1_555 1_555
C2_3 C4_3 1_555 1_555
C3_3 C14_3 1_555 1_555
C7_3 C2_3 1_555 1_555
H2_3 C7_3 1_555 1_555
C9_3 C7_3 1_555 1_555
H3_3 C9_3 1_555 1_555
C13_3 C18_3 1_555 1_555
C14_3 H6_3 1_555 1_555
C18_3 H9_3 1_555 1_555
C19_3 O9_3 1_555 1_555
C23_3 C3_3 1_555 1_555
H11_3 C23_3 1_555 1_555
C24_3 N2_3 1_555 1_555
H12_3 C24_3 1_555 1_555
C26_3 C35_3 1_555 1_555
C29_3 C2_3 1_555 1_555
H16_3 C29_3 1_555 1_555
C30_3 C19_3 1_555 1_555
H17_3 C30_3 1_555 1_555
C31_3 C13_3 1_555 1_555
H18_3 C31_3 1_555 1_555
C32_3 N2_3 1_555 1_555
H19_3 C32_3 1_555 1_555
C35_3 C24_3 1_555 1_555
H22_3 C35_3 1_555 1_555
C41_3 C26_3 1_555 1_555
H30_3 C41_3 1_555 1_555
Co7 O2_3 1_555 1_555
C9_3 C19_3 1_555 1_555
C14_3 C31_3 1_555 1_555
C18_3 C23_3 1_555 1_555
C29_3 C30_3 1_555 1_555
C32_3 C41_3 1_555 1_555
H31_3 C42_3 1_555 1_555
H32_3 C42_3 1_555 1_555
C56_3 C42_3 1_555 1_555
H49_3 C56_3 1_555 1_555
H50_3 C56_3 1_555 1_555
H52_3 C58_3 1_555 1_555
H53_3 C58_3 1_555 1_555
O25 C8_4 1_555 1_555
O27 C8_4 1_555 1_555
O10_4 C17_4 1_555 1_555
C5_4 H1_4 1_555 1_555
C6_4 O7_4 1_555 1_555
C8_4 C10_4 1_555 1_555
C10_4 C21_4 1_555 1_555
C11_4 H4_4 1_555 1_555
C12_4 H5_4 1_555 1_555
C15_4 H7_4 1_555 1_555
C16_4 C5_4 1_555 1_555
H8_4 C16_4 1_555 1_555
C17_4 C16_4 1_555 1_555
C20_4 C5_4 1_555 1_555
C21_4 C12_4 1_555 1_555
H10_4 C21_4 1_555 1_555
C22_4 O10_4 1_555 1_555
C25_4 C15_4 1_555 1_555
H13_4 C25_4 1_555 1_555
C27_4 C10_4 1_555 1_555
H14_4 C27_4 1_555 1_555
O8_4 C6_4 1_555 1_555
C6_4 C20_4 1_555 1_555
C11_4 C22_4 1_555 1_555
C11_4 C27_4 1_555 1_555
C12_4 C22_4 1_555 1_555
C15_4 C20_4 1_555 1_555
C17_4 C25_4 1_555 1_555
Co9 O4_4 1_555 1_555
O21_2 C1_4 1_555 1_555
O2_4 C4_4 1_555 1_555
O3_4 C4_4 1_555 1_555
O4_4 C1_4 1_555 1_555
O9_4 C13_4 1_555 1_555
N2_4 Co9 1_555 1_555
C1_4 C3_4 1_555 1_555
C2_4 C4_4 1_555 1_555
C3_4 C14_4 1_555 1_555
C7_4 C2_4 1_555 1_555
H2_4 C7_4 1_555 1_555
C9_4 C7_4 1_555 1_555
H3_4 C9_4 1_555 1_555
C13_4 C18_4 1_555 1_555
C14_4 H6_4 1_555 1_555
C18_4 H9_4 1_555 1_555
C19_4 O9_4 1_555 1_555
C23_4 C3_4 1_555 1_555
H11_4 C23_4 1_555 1_555
C24_4 N2_4 1_555 1_555
H12_4 C24_4 1_555 1_555
C26_4 C35_4 1_555 1_555
C29_4 C2_4 1_555 1_555
H16_4 C29_4 1_555 1_555
C30_4 C19_4 1_555 1_555
H17_4 C30_4 1_555 1_555
C31_4 C13_4 1_555 1_555
H18_4 C31_4 1_555 1_555
C32_4 N2_4 1_555 1_555
H19_4 C32_4 1_555 1_555
C35_4 C24_4 1_555 1_555
H22_4 C35_4 1_555 1_555
C41_4 C26_4 1_555 1_555
H30_4 C41_4 1_555 1_555
C42_4 N3_4 1_555 1_555
H31_4 C42_4 1_555 1_555
H32_4 C42_4 1_555 1_555
C56_4 C42_4 1_555 1_555
H49_4 C56_4 1_555 1_555
H50_4 C56_4 1_555 1_555
H52_4 C58_4 1_555 1_555
H53_4 C58_4 1_555 1_555
C9_4 C19_4 1_555 1_555
C14_4 C31_4 1_555 1_555
C18_4 C23_4 1_555 1_555
C29_4 C30_4 1_555 1_555
C32_4 C41_4 1_555 1_555
C28_4 N1_4 1_555 1_555
C33_4 H20_4 1_555 1_555
H21_4 C33_4 1_555 1_555
C34_4 C36_4 1_555 1_555
C36_4 C28_4 1_555 1_555
H23_4 C36_4 1_555 1_555
H24_4 C37_4 1_555 1_555
H25_4 C37_4 1_555 1_555
C38_4 N1_4 1_555 1_555
H26_4 C38_4 1_555 1_555
C39_4 C34_4 1_555 1_555
H27_4 C39_4 1_555 1_555
C40_4 C34_4 1_555 1_555
H28_4 C40_4 1_555 1_555
H29_4 C40_4 1_555 1_555
N4_4 C40_4 1_555 1_555
C43_4 N4_4 1_555 1_555
H33_4 C43_4 1_555 1_555
H34_4 C43_4 1_555 1_555
C52_4 C43_4 1_555 1_555
H45_4 C52_4 1_555 1_555
H46_4 C52_4 1_555 1_555
N7_4 C53_4 1_555 1_555
C53_4 H47_4 1_555 1_555
C54_4 C57_4 1_555 1_555
C55_4 N7_4 1_555 1_555
H48_4 C55_4 1_555 1_555
C57_4 C53_4 1_555 1_555
H51_4 C57_4 1_555 1_555
C59_4 C54_4 1_555 1_555
H54_4 C59_4 1_555 1_555
C60_4 C33_4 1_555 1_555
H55_4 C60_4 1_555 1_555
H56_4 C60_4 1_555 1_555
Co11 N7_4 1_555 1_555
O22_2 C61_4 1_555 1_555
O24_4 C64_4 1_555 1_555
O13_4 C64_4 1_555 1_555
O14_4 Co11 1_555 1_555
O19_4 C73_4 1_555 1_555
C61_4 O14_4 1_555 1_555
C62_4 C64_4 1_555 1_555
C63_4 C61_4 1_555 1_555
C67_4 C62_4 1_555 1_555
H58_4 C67_4 1_555 1_555
C69_4 C67_4 1_555 1_555
H59_4 C69_4 1_555 1_555
C73_4 C78_4 1_555 1_555
C74_4 C63_4 1_555 1_555
H62_4 C74_4 1_555 1_555
C78_4 H65_4 1_555 1_555
C79_4 O19_4 1_555 1_555
C83_4 C63_4 1_555 1_555
H67_4 C83_4 1_555 1_555
C86_4 C62_4 1_555 1_555
H70_4 C86_4 1_555 1_555
C87_4 C79_4 1_555 1_555
H71_4 C87_4 1_555 1_555
C88_4 C73_4 1_555 1_555
H72_4 C88_4 1_555 1_555
C38_4 C39_4 1_555 1_555
N8_4 C60_4 1_555 1_555
C55_4 C59_4 1_555 1_555
C69_4 C79_4 1_555 1_555
C74_4 C88_4 1_555 1_555
C78_4 C83_4 1_555 1_555
C86_4 C87_4 1_555 1_555
H35_4 C44_4 1_555 1_555
H36_4 C44_4 1_555 1_555
N9_2 C45_4 1_555 1_555
C45_4 H37_3 1_555 1_555
C46_4 C47_4 1_555 1_555
C47_4 C45_4 1_555 1_555
H38_4 C47_4 1_555 1_555
C48_4 N9_2 1_555 1_555
H39_4 C48_4 1_555 1_555
C49_4 C46_4 1_555 1_555
H40_4 C49_4 1_555 1_555
C50_4 C46_4 1_555 1_555
H41_4 C50_4 1_555 1_555
H42_4 C50_4 1_555 1_555
N6_4 C50_4 1_555 1_555
C51_4 C44_4 1_555 1_555
H43_4 C51_4 1_555 1_555
H44_4 C51_4 1_555 1_555
C48_4 C49_4 1_555 1_555
N6_4 C51_4 1_555 1_555
O26 C68_4 1_555 1_555
O28 C68_4 1_555 1_555
O20_4 C77_4 1_555 1_555
C65_4 H57_4 1_555 1_555
C66_4 O17_4 1_555 1_555
C68_4 C70_4 1_555 1_555
C70_4 C81_4 1_555 1_555
C71_4 H60_4 1_555 1_555
C72_4 H61_4 1_555 1_555
C75_4 H63_4 1_555 1_555
C76_4 C65_4 1_555 1_555
H64_4 C76_4 1_555 1_555
C77_4 C76_4 1_555 1_555
C80_4 C65_4 1_555 1_555
C81_4 C72_4 1_555 1_555
H66_4 C81_4 1_555 1_555
C82_4 O20_4 1_555 1_555
C84_4 C75_4 1_555 1_555
H68_4 C84_4 1_555 1_555
C85_4 C70_4 1_555 1_555
H69_4 C85_4 1_555 1_555
O30_4 C66_4 1_555 1_555
C66_4 C80_4 1_555 1_555
C71_4 C82_4 1_555 1_555
C71_4 C85_4 1_555 1_555
C72_4 C82_4 1_555 1_555
C75_4 C80_4 1_555 1_555
C77_4 C84_4 1_555 1_555

#END
