
###############################################################################
#
# This file contains modified crystal structure data generated from the
# MOF subset of the Cambridge Structural Database (CSD) v543 
# hosted by the Cambridge Crystallographic Data Centre (CCDC).
#
# This work is licensed under the Creative Commons
# Attribution-NonCommercial-ShareAlike 4.0 International License.
# To view a copy of this license, visit
# http://creativecommons.org/licenses/by-nc-sa/4.0/
# or send a letter to
# Creative Commons, PO Box 1866, Mountain View, CA 94042, USA.
#
# CIF created using the CSD Python API on 29 September 2022
# The structure has been converted into the P1 space group
# The structure has a 3D framework
# The original CSD entry KOMLOQ is in the monoclinic crystal system
# The framework has been calculated to contain at least 10.0% void space
# The void calculation uses a probe of radius 1.32A, grid spacing 0.4
#
###############################################################################

data_KOMLOQ
_chemical_formula_moiety         '(C352 H288 Co14 N32 O80)n'
_symmetry_cell_setting           triclinic
_symmetry_space_group_name_H-M   'P 1'
_symmetry_Int_Tables_number      1
_space_group_name_Hall           'P 1'
loop_
_symmetry_equiv_pos_site_id
_symmetry_equiv_pos_as_xyz
1 x,y,z
_cell_length_a                   31.357(4)
_cell_length_b                   15.654(2)
_cell_length_c                   23.216(5)
_cell_angle_alpha                90
_cell_angle_beta                 126.779(3)
_cell_angle_gamma                90
_cell_volume                     9127.53
loop_
_atom_site_label
_atom_site_type_symbol
_atom_site_fract_x
_atom_site_fract_y
_atom_site_fract_z
Co3 Co 0.80791(4) 0.23188(7) 0.05538(6)
O14 O 0.7384(2) 0.1632(4) 0.0481(3)
O15 O 0.8245(2) 0.1379(4) 0.1283(3)
C66 C 0.7747(3) 0.1213(5) 0.1014(5)
C77 C 0.7630(4) 0.0517(5) 0.1325(5)
C78 C 0.8032(4) 0.0122(5) 0.1957(5)
H63 H 0.838287 0.029623 0.219367
C82 C 0.7113(4) 0.0285(5) 0.0995(5)
H66 H 0.684323 0.056129 0.057530
N9 N 0.8790(3) 0.2777(4) 0.0826(4)
O26 O 0.7960(2) 0.3310(3) 0.0983(3)
Co1 Co 0.19209(4) 0.23188(7) 0.44462(6)
O1 O 0.2070(2) 0.1521(3) 0.5231(3)
O4 O 0.2616(2) 0.1632(4) 0.4519(3)
O5 O 0.1755(2) 0.1379(4) 0.3717(3)
N2 N 0.1210(3) 0.2777(4) 0.4174(4)
C2 C 0.2539(3) 0.1318(5) 0.5787(4)
C3 C 0.2584(3) 0.0609(5) 0.6239(4)
C6 C 0.2253(3) 0.1213(5) 0.3986(5)
C10 C 0.3093(4) 0.0331(5) 0.6814(5)
H2 H 0.339289 0.059530 0.690444
C17 C 0.2370(4) 0.0517(5) 0.3675(5)
C18 C 0.1968(4) 0.0122(5) 0.3043(5)
H7 H 0.161713 0.029623 0.280633
C19 C 0.2150(3) 0.0215(5) 0.6133(5)
H8 H 0.180916 0.039964 0.576223
C22 C 0.2887(4) 0.0285(5) 0.4005(5)
H10 H 0.315677 0.056129 0.442470
C25 C 0.1155(4) 0.3622(7) 0.4227(7)
H13 H 0.141962 0.398688 0.430521
C29 C 0.0813(4) 0.2316(6) 0.4054(8)
H17 H 0.083595 0.172762 0.402587
C30 C 0.0331(4) 0.3461(8) 0.4048(7)
C31 C 0.0731(5) 0.3974(8) 0.4172(9)
H18 H 0.071555 0.456096 0.421859
C32 C 0.0368(5) 0.2624(9) 0.3966(8)
H19 H 0.009421 0.225564 0.385055
O8 O 0.2960(2) 0.1690(3) 0.5983(3)
C38 C 0.0319(5) 0.4293(10) 0.5214(8)
H27 H 0.063945 0.401060 0.533754
H28 H 0.012611 0.389586 0.530147
N5 N 0.0005(3) 0.5472(8) 0.5529(6)
C50 C 0.0143(4) 0.6211(10) 0.6012(8)
H41 H 0.041564 0.604071 0.650546
H42 H 0.028742 0.666582 0.589216
C51 C 0.0467(4) 0.5080(10) 0.5676(7)
H43 H 0.065357 0.548043 0.558043
H44 H 0.070340 0.492087 0.617974
H47 H 0.107160 0.051342 0.455873
O11 O 0.7930(2) 0.1521(3) 0.9769(3)
C62 C 0.7461(3) 0.1318(5) 0.9213(4)
C63 C 0.7416(3) 0.0609(5) 0.8761(4)
C70 C 0.6907(4) 0.0331(5) 0.8186(5)
H58 H 0.660711 0.059530 0.809556
C79 C 0.7850(3) 0.0215(5) 0.8867(5)
H64 H 0.819084 0.039964 0.923777
O18 O 0.7040(2) 0.1690(3) 0.9017(3)
Co6 Co 0.30791(4) 0.26812(7) 0.55538(6)
Co7 Co 0.69209(4) 0.26812(7) 0.94462(6)
Co10 Co 0.00814(4) 0.00720(6) 0.44577(6)
O25 O 0.2040(2) 0.3310(3) 0.4017(3)
O13 O 0.5536(2) 0.5795(4) 0.0412(3)
O16 O 0.7300(2) 0.8612(4) 0.2246(3)
C64 C 0.5662(3) 0.6160(5) 0.0974(5)
C67 C 0.6882(4) 0.8050(5) 0.1892(5)
C69 C 0.6082(3) 0.6836(5) 0.1294(4)
C72 C 0.7388(4) 0.9226(5) 0.1906(5)
C73 C 0.6318(3) 0.7124(5) 0.1979(4)
H59 H 0.621381 0.690004 0.224854
C74 C 0.6247(4) 0.7140(5) 0.0902(5)
H60 H 0.609382 0.693354 0.044060
C76 C 0.6983(3) 0.9631(6) 0.1283(5)
H62 H 0.662963 0.947575 0.105813
C80 C 0.6709(4) 0.7744(5) 0.2276(5)
H65 H 0.685455 0.795497 0.273342
C84 C 0.7909(4) 0.9463(6) 0.2239(5)
H68 H 0.818100 0.918202 0.265434
C85 C 0.6648(4) 0.7763(5) 0.1198(4)
H69 H 0.675599 0.798093 0.093151
O20 O 0.5446(2) 0.5963(4) 0.1272(3)
Co9 Co 0.49186(4) 0.50720(6) 0.05423(6)
O21 O 0.5621(2) 0.4040(3) 0.0156(3)
Co2 Co 0.49186(4) 0.49280(6) 0.55423(6)
O2 O 0.4379(2) 0.5960(3) 0.9844(3)
O3 O 0.4464(2) 0.5795(4) 0.4588(3)
C1 C 0.4321(3) 0.6206(5) 0.9280(4)
O6 O 0.2700(2) 0.8612(4) 0.2754(3)
O7 O 0.2723(3) 0.8646(4) 0.7551(4)
C4 C 0.4338(3) 0.6160(5) 0.4026(5)
C5 C 0.2719(4) 0.9279(5) 0.7132(5)
C7 C 0.3118(4) 0.8050(5) 0.3108(5)
C8 C 0.3868(3) 0.7222(5) 0.8257(4)
H1 H 0.408953 0.702678 0.814358
C9 C 0.3918(3) 0.6836(5) 0.3706(4)
C11 C 0.3924(3) 0.6901(5) 0.8850(4)
C12 C 0.2612(4) 0.9226(5) 0.3094(5)
C13 C 0.3682(3) 0.7124(5) 0.3021(4)
H3 H 0.378619 0.690004 0.275146
C14 C 0.3753(4) 0.7140(5) 0.4098(5)
H4 H 0.390618 0.693354 0.455940
C15 C 0.3583(3) 0.7185(5) 0.9001(4)
H5 H 0.361860 0.696800 0.940061
C16 C 0.3017(3) 0.9631(6) 0.3717(5)
H6 H 0.337037 0.947575 0.394187
C20 C 0.3291(4) 0.7744(5) 0.2724(5)
H9 H 0.314545 0.795497 0.226658
C21 C 0.3154(3) 0.8119(5) 0.7984(5)
C23 C 0.2213(3) 0.9552(5) 0.6568(5)
H11 H 0.191477 0.928606 0.648357
C24 C 0.2091(4) 0.9463(6) 0.2761(5)
H12 H 0.181900 0.918202 0.234566
C26 C 0.3352(4) 0.7763(5) 0.3802(4)
H14 H 0.324401 0.798093 0.406849
C27 C 0.3481(4) 0.7839(6) 0.7822(5)
H15 H 0.344801 0.805725 0.742472
C28 C 0.3152(4) 0.9653(6) 0.7256(5)
H16 H 0.348972 0.946562 0.763253
O9 O 0.4564(2) 0.5897(4) 0.9052(3)
O10 O 0.4554(2) 0.5963(4) 0.3728(3)
N3 N 0.4476(3) 0.5419(4) 0.5860(4)
C34 C 0.4010(5) 0.5019(7) 0.5661(6)
H22 H 0.392840 0.448658 0.544127
C36 C 0.4204(6) 0.6565(8) 0.6225(9)
H25 H 0.427973 0.711170 0.641936
C37 C 0.4546(6) 0.6190(8) 0.6119(9)
H26 H 0.484272 0.649718 0.623815
C39 C 0.3188(4) 0.7786(5) 0.8571(5)
H29 H 0.295392 0.796045 0.866922
N4 N 0.2972(4) 0.7066(6) 0.5545(5)
C40 C 0.3764(4) 0.6174(8) 0.6058(6)
C41 C 0.3356(6) 0.6575(11) 0.6130(7)
H30 H 0.317971 0.612342 0.620075
H31 H 0.354193 0.693176 0.655715
C42 C 0.3671(4) 0.5363(10) 0.5771(7)
H32 H 0.337472 0.505600 0.565423
C43 C 0.2604(6) 0.7440(11) 0.5669(7)
H33 H 0.240293 0.698873 0.569149
H34 H 0.280587 0.773840 0.612610
C44 C 0.2750(9) 0.698(2) 0.4887(10)
H35 H 0.255924 0.644563 0.475350
H36 H 0.303621 0.689728 0.484503
N7 N 0.0524(3) 0.9581(4) 0.4140(4)
C53 C 0.0990(5) 0.9981(7) 0.4339(6)
C54 C 0.0796(6) 0.8435(8) 0.3775(9)
H48 H 0.072027 0.788830 0.358064
C55 C 0.0454(6) 0.8810(8) 0.3881(9)
H49 H 0.015728 0.850282 0.376185
N8 N 0.2028(4) 0.7934(6) 0.4455(5)
C56 C 0.1236(4) 0.8826(8) 0.3942(6)
C57 C 0.1644(6) 0.8425(11) 0.3870(7)
H50 H 0.182029 0.887658 0.379925
H51 H 0.145807 0.806824 0.344285
C58 C 0.1329(4) 0.9637(10) 0.4229(7)
H52 H 0.162528 0.994400 0.434577
C59 C 0.2396(6) 0.7560(11) 0.4331(7)
H53 H 0.259707 0.801127 0.430851
H54 H 0.219413 0.726160 0.387390
C60 C 0.2250(9) 0.802(2) 0.5113(10)
H55 H 0.244076 0.855437 0.524650
H56 H 0.196379 0.810272 0.515497
Co4 Co 0.50814(4) 0.49280(6) 0.94577(6)
O12 O 0.5621(2) 0.5960(3) 0.5156(3)
C61 C 0.5679(3) 0.6206(5) 0.5720(4)
O17 O 0.7277(3) 0.8646(4) 0.7449(4)
C65 C 0.7281(4) 0.9279(5) 0.7868(5)
C68 C 0.6132(3) 0.7222(5) 0.6743(4)
H57 H 0.591047 0.702678 0.685642
C71 C 0.6076(3) 0.6901(5) 0.6150(4)
C75 C 0.6417(3) 0.7185(5) 0.5999(4)
H61 H 0.638140 0.696800 0.559939
C81 C 0.6846(3) 0.8119(5) 0.7016(5)
C83 C 0.7787(3) 0.9552(5) 0.8432(5)
H67 H 0.808523 0.928606 0.851643
C86 C 0.6519(4) 0.7839(6) 0.7178(5)
H70 H 0.655199 0.805725 0.757528
C87 C 0.6848(4) 0.9653(6) 0.7744(5)
H71 H 0.651028 0.946562 0.736747
O19 O 0.5436(2) 0.5897(4) 0.5948(3)
C88 C 0.6812(4) 0.7786(5) 0.6429(5)
H72 H 0.704608 0.796045 0.633078
Co8 Co 0.50814(4) 0.50720(6) 0.44577(6)
O22 O 0.4379(2) 0.4040(3) 0.4844(3)
O23 O 0.5536(2) 0.4205(4) 0.5412(3)
O24 O 0.4464(2) 0.4205(4) 0.9588(3)
O27 O 0.5446(2) 0.4037(4) 0.6272(3)
O28 O 0.4554(2) 0.4037(4) 0.8728(3)
N10 N 0.5524(3) 0.5419(4) 0.9140(4)
N1 N 0.9995(3) 0.4528(8) 0.4471(6)
C33 C 0.9857(4) 0.3789(10) 0.3988(8)
H20 H 0.958436 0.395929 0.349454
H21 H 0.971258 0.333418 0.410784
C35 C 0.9533(4) 0.4920(10) 0.4324(7)
H23 H 0.934643 0.451957 0.441957
H24 H 0.929660 0.507913 0.382026
N6 N 0.8790(3) 0.7223(4) 0.5826(4)
C45 C 0.8845(4) 0.6378(7) 0.5773(7)
H37 H 0.858038 0.601312 0.569479
C46 C 0.9187(4) 0.7684(6) 0.5946(8)
H38 H 0.916405 0.827238 0.597413
C47 C 0.9669(4) 0.6539(8) 0.5952(7)
C48 C 0.9269(5) 0.6026(8) 0.5828(9)
H39 H 0.928445 0.543904 0.578141
C49 C 0.9632(5) 0.7376(9) 0.6034(8)
H40 H 0.990579 0.774436 0.614945
C52 C 0.9681(5) 0.5707(10) 0.4786(8)
H45 H 0.936055 0.598940 0.466246
H46 H 0.987389 0.610414 0.469853
Co5 Co 0.80791(4) 0.76812(7) 0.55538(6)
N1_2 N 0.0005(3) 0.4528(8) 0.0529(6)
C33_2 C 0.0143(4) 0.3789(10) 0.1012(8)
H20_2 H 0.041564 0.395929 0.150546
H21_2 H 0.028742 0.333418 0.089216
C35_2 C 0.0467(4) 0.4920(10) 0.0676(7)
H23_2 H 0.065357 0.451957 0.058043
H24_2 H 0.070340 0.507913 0.117974
C52_2 C 0.0319(5) 0.5707(10) 0.0214(8)
H45_2 H 0.063945 0.598940 0.033754
H46_2 H 0.012611 0.610414 0.030147
N6_2 N 0.1210(3) 0.7223(4) 0.9174(4)
C45_2 C 0.1155(4) 0.6378(7) 0.9227(7)
H37_2 H 0.141962 0.601312 0.930521
C46_2 C 0.0813(4) 0.7684(6) 0.9054(8)
H38_2 H 0.083595 0.827238 0.902587
C47_2 C 0.0331(4) 0.6539(8) 0.9048(7)
C48_2 C 0.0731(5) 0.6026(8) 0.9172(9)
H39_2 H 0.071555 0.543904 0.921859
C49_2 C 0.0368(5) 0.7376(9) 0.8966(8)
H40_2 H 0.009421 0.774436 0.885055
Co5_2 Co 0.19209(4) 0.76812(7) 0.94462(6)
C25_2 C 0.8845(4) 0.3622(7) 0.0773(7)
H13_2 H 0.858038 0.398688 0.069479
C29_2 C 0.9187(4) 0.2316(6) 0.0946(8)
H17_2 H 0.916405 0.172762 0.097413
C30_2 C 0.9669(4) 0.3461(8) 0.0952(7)
C31_2 C 0.9269(5) 0.3974(8) 0.0828(9)
H18_2 H 0.928445 0.456096 0.078141
C32_2 C 0.9632(5) 0.2624(9) 0.1034(8)
H19_2 H 0.990579 0.225564 0.114945
H47_2 H 0.892840 0.051342 0.044127
Co10_2 Co 0.99186(4) 0.00720(6) 0.05423(6)
C38_2 C 0.9681(5) 0.4293(10) 0.9786(8)
H27_2 H 0.936055 0.401060 0.966246
H28_2 H 0.987389 0.389586 0.969853
N5_2 N 0.9995(3) 0.5472(8) 0.9471(6)
C50_2 C 0.9857(4) 0.6211(10) 0.8988(8)
H41_2 H 0.958436 0.604071 0.849454
H42_2 H 0.971258 0.666582 0.910784
C51_2 C 0.9533(4) 0.5080(10) 0.9324(7)
H43_2 H 0.934643 0.548043 0.941957
H44_2 H 0.929660 0.492087 0.882026
C44_2 C 0.7250(9) 0.698(2) 0.0113(10)
H35_2 H 0.744076 0.644563 0.024650
H36_2 H 0.696379 0.689728 0.015497
N7_2 N 0.9476(3) 0.9581(4) 0.0860(4)
C53_2 C 0.9010(5) 0.9981(7) 0.0661(6)
C54_2 C 0.9204(6) 0.8435(8) 0.1225(9)
H48_2 H 0.927973 0.788830 0.141936
C55_2 C 0.9546(6) 0.8810(8) 0.1119(9)
H49_2 H 0.984272 0.850282 0.123815
N8_2 N 0.7972(4) 0.7934(6) 0.0545(5)
C56_2 C 0.8764(4) 0.8826(8) 0.1058(6)
C57_2 C 0.8356(6) 0.8425(11) 0.1130(7)
H50_2 H 0.817971 0.887658 0.120075
H51_2 H 0.854193 0.806824 0.155715
C58_2 C 0.8671(4) 0.9637(10) 0.0771(7)
H52_2 H 0.837472 0.994400 0.065423
C59_2 C 0.7604(6) 0.7560(11) 0.0669(7)
H53_2 H 0.740293 0.801127 0.069149
H54_2 H 0.780587 0.726160 0.112610
C34_2 C 0.5990(5) 0.5019(7) 0.9339(6)
H22_2 H 0.607160 0.448658 0.955873
C36_2 C 0.5796(6) 0.6565(8) 0.8775(9)
H25_2 H 0.572027 0.711170 0.858064
C37_2 C 0.5454(6) 0.6190(8) 0.8881(9)
H26_2 H 0.515728 0.649718 0.876185
N4_2 N 0.7028(4) 0.7066(6) 0.9455(5)
C40_2 C 0.6236(4) 0.6174(8) 0.8942(6)
C41_2 C 0.6644(6) 0.6575(11) 0.8870(7)
H30_2 H 0.682029 0.612342 0.879925
H31_2 H 0.645807 0.693176 0.844285
C42_2 C 0.6329(4) 0.5363(10) 0.9229(7)
H32_2 H 0.662528 0.505600 0.934577
C43_2 C 0.7396(6) 0.7440(11) 0.9331(7)
H33_2 H 0.759707 0.698873 0.930851
H34_2 H 0.719413 0.773840 0.887390
C60_2 C 0.7750(9) 0.802(2) 0.9887(10)
H55_2 H 0.755924 0.855437 0.975350
H56_2 H 0.803621 0.810272 0.984503
Co3_2 Co 0.30791(4) 0.73188(7) 0.05538(6)
O13_2 O 0.0536(2) 0.0795(4) 0.0412(3)
O14_2 O 0.2384(2) 0.6632(4) 0.0481(3)
O15_2 O 0.3245(2) 0.6379(4) 0.1283(3)
O16_2 O 0.2300(2) 0.3612(4) 0.2246(3)
C64_2 C 0.0662(3) 0.1160(5) 0.0974(5)
C66_2 C 0.2747(3) 0.6213(5) 0.1014(5)
C67_2 C 0.1882(4) 0.3050(5) 0.1892(5)
C69_2 C 0.1082(3) 0.1836(5) 0.1294(4)
C72_2 C 0.2388(4) 0.4226(5) 0.1906(5)
C73_2 C 0.1318(3) 0.2124(5) 0.1979(4)
H59_2 H 0.121381 0.190004 0.224854
C74_2 C 0.1247(4) 0.2140(5) 0.0902(5)
H60_2 H 0.109382 0.193354 0.044060
C76_2 C 0.1983(3) 0.4631(6) 0.1283(5)
H62_2 H 0.162963 0.447575 0.105813
C77_2 C 0.2630(4) 0.5517(5) 0.1325(5)
C78_2 C 0.3032(4) 0.5122(5) 0.1957(5)
H63_2 H 0.338287 0.529623 0.219367
C80_2 C 0.1709(4) 0.2744(5) 0.2276(5)
H65_2 H 0.185455 0.295497 0.273342
C82_2 C 0.2113(4) 0.5285(5) 0.0995(5)
H66_2 H 0.184323 0.556129 0.057530
C84_2 C 0.2909(4) 0.4463(6) 0.2239(5)
H68_2 H 0.318100 0.418202 0.265434
C85_2 C 0.1648(4) 0.2763(5) 0.1198(4)
H69_2 H 0.175599 0.298093 0.093151
O20_2 O 0.0446(2) 0.0963(4) 0.1272(3)
N9_2 N 0.3790(3) 0.7777(4) 0.0826(4)
O26_2 O 0.2960(2) 0.8310(3) 0.0983(3)
O11_2 O 0.2930(2) 0.6521(3) 0.9769(3)
O12_2 O 0.0621(2) 0.0960(3) 0.5156(3)
C61_2 C 0.0679(3) 0.1206(5) 0.5720(4)
C62_2 C 0.2461(3) 0.6318(5) 0.9213(4)
O17_2 O 0.2277(3) 0.3646(4) 0.7449(4)
C63_2 C 0.2416(3) 0.5609(5) 0.8761(4)
C65_2 C 0.2281(4) 0.4279(5) 0.7868(5)
C68_2 C 0.1132(3) 0.2222(5) 0.6743(4)
H57_2 H 0.091047 0.202678 0.685642
C70_2 C 0.1907(4) 0.5331(5) 0.8186(5)
H58_2 H 0.160711 0.559530 0.809556
C71_2 C 0.1076(3) 0.1901(5) 0.6150(4)
C75_2 C 0.1417(3) 0.2185(5) 0.5999(4)
H61_2 H 0.138140 0.196800 0.559939
C79_2 C 0.2850(3) 0.5215(5) 0.8867(5)
H64_2 H 0.319084 0.539964 0.923777
C81_2 C 0.1846(3) 0.3119(5) 0.7016(5)
C83_2 C 0.2787(3) 0.4552(5) 0.8432(5)
H67_2 H 0.308523 0.428606 0.851643
C86_2 C 0.1519(4) 0.2839(6) 0.7178(5)
H70_2 H 0.155199 0.305725 0.757528
C87_2 C 0.1848(4) 0.4653(6) 0.7744(5)
H71_2 H 0.151028 0.446562 0.736747
O18_2 O 0.2040(2) 0.6690(3) 0.9017(3)
O19_2 O 0.0436(2) 0.0897(4) 0.5948(3)
C88_2 C 0.1812(4) 0.2786(5) 0.6429(5)
H72_2 H 0.204608 0.296045 0.633078
N10_2 N 0.0524(3) 0.0419(4) 0.9140(4)
O21_2 O 0.0621(2) 0.9040(3) 0.0156(3)
Co4_2 Co 0.00814(4) 0.99280(6) 0.94577(6)
O23_2 O 0.0536(2) 0.9205(4) 0.5412(3)
O27_2 O 0.0446(2) 0.9037(4) 0.6272(3)
H24_3 H 0.429660 0.007913 0.382026
N5_3 N 0.5005(3) 0.0472(8) 0.5529(6)
N6_3 N 0.3790(3) 0.2223(4) 0.5826(4)
C45_3 C 0.3845(4) 0.1378(7) 0.5773(7)
H37_3 H 0.358038 0.101312 0.569479
C46_3 C 0.4187(4) 0.2684(6) 0.5946(8)
H38_3 H 0.416405 0.327238 0.597413
C47_3 C 0.4669(4) 0.1539(8) 0.5952(7)
C48_3 C 0.4269(5) 0.1026(8) 0.5828(9)
H39_3 H 0.428445 0.043904 0.578141
C49_3 C 0.4632(5) 0.2376(9) 0.6034(8)
H40_3 H 0.490579 0.274436 0.614945
C50_3 C 0.5143(4) 0.1211(10) 0.6012(8)
H41_3 H 0.541564 0.104071 0.650546
H42_3 H 0.528742 0.166582 0.589216
C51_3 C 0.5467(4) 0.0080(10) 0.5676(7)
H43_3 H 0.565357 0.048043 0.558043
C52_3 C 0.4681(5) 0.0707(10) 0.4786(8)
H45_3 H 0.436055 0.098940 0.466246
H46_3 H 0.487389 0.110414 0.469853
Co1_2 Co 0.69209(4) 0.73188(7) 0.44462(6)
O1_2 O 0.7070(2) 0.6521(3) 0.5231(3)
O2_2 O 0.9379(2) 0.0960(3) 0.9844(3)
O3_2 O 0.9464(2) 0.0795(4) 0.4588(3)
O4_2 O 0.7616(2) 0.6632(4) 0.4519(3)
N1_3 N 0.4995(3) 0.9528(8) 0.4471(6)
O5_2 O 0.6755(2) 0.6379(4) 0.3717(3)
C1_2 C 0.9321(3) 0.1206(5) 0.9280(4)
N2_2 N 0.6210(3) 0.7777(4) 0.4174(4)
O6_2 O 0.7700(2) 0.3612(4) 0.2754(3)
C2_2 C 0.7539(3) 0.6318(5) 0.5787(4)
O7_2 O 0.7723(3) 0.3646(4) 0.7551(4)
C3_2 C 0.7584(3) 0.5609(5) 0.6239(4)
C4_2 C 0.9338(3) 0.1160(5) 0.4026(5)
C5_2 C 0.7719(4) 0.4279(5) 0.7132(5)
C6_2 C 0.7253(3) 0.6213(5) 0.3986(5)
C7_2 C 0.8118(4) 0.3050(5) 0.3108(5)
C8_2 C 0.8868(3) 0.2222(5) 0.8257(4)
H1_2 H 0.908953 0.202678 0.814358
C9_2 C 0.8918(3) 0.1836(5) 0.3706(4)
C10_2 C 0.8093(4) 0.5331(5) 0.6814(5)
H2_2 H 0.839289 0.559530 0.690444
C11_2 C 0.8924(3) 0.1901(5) 0.8850(4)
C12_2 C 0.7612(4) 0.4226(5) 0.3094(5)
C13_2 C 0.8682(3) 0.2124(5) 0.3021(4)
H3_2 H 0.878619 0.190004 0.275146
C14_2 C 0.8753(4) 0.2140(5) 0.4098(5)
H4_2 H 0.890618 0.193354 0.455940
C15_2 C 0.8583(3) 0.2185(5) 0.9001(4)
H5_2 H 0.861860 0.196800 0.940061
C16_2 C 0.8017(3) 0.4631(6) 0.3717(5)
H6_2 H 0.837037 0.447575 0.394187
C17_2 C 0.7370(4) 0.5517(5) 0.3675(5)
C18_2 C 0.6968(4) 0.5122(5) 0.3043(5)
H7_2 H 0.661713 0.529623 0.280633
C19_2 C 0.7150(3) 0.5215(5) 0.6133(5)
H8_2 H 0.680916 0.539964 0.576223
C20_2 C 0.8291(4) 0.2744(5) 0.2724(5)
H9_2 H 0.814545 0.295497 0.226658
C21_2 C 0.8154(3) 0.3119(5) 0.7984(5)
C22_2 C 0.7887(4) 0.5285(5) 0.4005(5)
H10_2 H 0.815677 0.556129 0.442470
C23_2 C 0.7213(3) 0.4552(5) 0.6568(5)
H11_2 H 0.691477 0.428606 0.648357
C24_2 C 0.7091(4) 0.4463(6) 0.2761(5)
H12_2 H 0.681900 0.418202 0.234566
C25_3 C 0.6155(4) 0.8622(7) 0.4227(7)
H13_3 H 0.641962 0.898688 0.430521
C26_2 C 0.8352(4) 0.2763(5) 0.3802(4)
H14_2 H 0.824401 0.298093 0.406849
C27_2 C 0.8481(4) 0.2839(6) 0.7822(5)
H15_2 H 0.844801 0.305725 0.742472
C28_2 C 0.8152(4) 0.4653(6) 0.7256(5)
H16_2 H 0.848972 0.446562 0.763253
C29_3 C 0.5813(4) 0.7316(6) 0.4054(8)
H17_3 H 0.583595 0.672762 0.402587
C30_3 C 0.5331(4) 0.8461(8) 0.4048(7)
C31_3 C 0.5731(5) 0.8974(8) 0.4172(9)
H18_3 H 0.571555 0.956096 0.421859
C32_3 C 0.5368(5) 0.7624(9) 0.3966(8)
H19_3 H 0.509421 0.725564 0.385055
C33_3 C 0.4857(4) 0.8789(10) 0.3988(8)
H20_3 H 0.458436 0.895929 0.349454
H21_3 H 0.471258 0.833418 0.410784
O8_2 O 0.7960(2) 0.6690(3) 0.5983(3)
O9_2 O 0.9564(2) 0.0897(4) 0.9052(3)
O10_2 O 0.9554(2) 0.0963(4) 0.3728(3)
N3_2 N 0.9476(3) 0.0419(4) 0.5860(4)
C34_3 C 0.9010(5) 0.0019(7) 0.5661(6)
C35_3 C 0.4533(4) 0.9920(10) 0.4324(7)
H23_3 H 0.434643 0.951957 0.441957
C36_3 C 0.9204(6) 0.1565(8) 0.6225(9)
H25_3 H 0.927973 0.211170 0.641936
C37_3 C 0.9546(6) 0.1190(8) 0.6119(9)
H26_3 H 0.984272 0.149718 0.623815
C38_3 C 0.5319(5) 0.9293(10) 0.5214(8)
H27_3 H 0.563945 0.901060 0.533754
H28_3 H 0.512611 0.889586 0.530147
C39_2 C 0.8188(4) 0.2786(5) 0.8571(5)
H29_2 H 0.795392 0.296045 0.866922
N4_3 N 0.7972(4) 0.2066(6) 0.5545(5)
C40_3 C 0.8764(4) 0.1174(8) 0.6058(6)
C41_3 C 0.8356(6) 0.1575(11) 0.6130(7)
H30_3 H 0.817971 0.112342 0.620075
H31_3 H 0.854193 0.193176 0.655715
C42_3 C 0.8671(4) 0.0363(10) 0.5771(7)
H32_3 H 0.837472 0.005600 0.565423
C43_3 C 0.7604(6) 0.2440(11) 0.5669(7)
H33_3 H 0.740293 0.198873 0.569149
H34_3 H 0.780587 0.273840 0.612610
C44_3 C 0.7750(9) 0.198(2) 0.4887(10)
H35_3 H 0.755924 0.144563 0.475350
H36_3 H 0.803621 0.189728 0.484503
H44_3 H 0.570340 0.992087 0.617974
N7_3 N 0.5524(3) 0.4581(4) 0.4140(4)
C53_3 C 0.5990(5) 0.4981(7) 0.4339(6)
H47_3 H 0.607160 0.551342 0.455873
C54_3 C 0.5796(6) 0.3435(8) 0.3775(9)
H48_3 H 0.572027 0.288830 0.358064
C55_3 C 0.5454(6) 0.3810(8) 0.3881(9)
H49_3 H 0.515728 0.350282 0.376185
N8_3 N 0.7028(4) 0.2934(6) 0.4455(5)
C56_3 C 0.6236(4) 0.3826(8) 0.3942(6)
C57_3 C 0.6644(6) 0.3425(11) 0.3870(7)
H50_3 H 0.682029 0.387658 0.379925
H51_3 H 0.645807 0.306824 0.344285
C58_3 C 0.6329(4) 0.4637(10) 0.4229(7)
H52_3 H 0.662528 0.494400 0.434577
C59_3 C 0.7396(6) 0.2560(11) 0.4331(7)
H53_3 H 0.759707 0.301127 0.430851
H54_3 H 0.719413 0.226160 0.387390
C60_3 C 0.7250(9) 0.302(2) 0.5113(10)
H55_3 H 0.744076 0.355437 0.524650
H56_3 H 0.696379 0.310272 0.515497
O25_2 O 0.7040(2) 0.8310(3) 0.4017(3)
Co2_2 Co 0.99186(4) 0.99280(6) 0.55423(6)
H22_3 H 0.892840 0.948658 0.544127
O22_2 O 0.9379(2) 0.9040(3) 0.4844(3)
O24_2 O 0.9464(2) 0.9205(4) 0.9588(3)
O28_2 O 0.9554(2) 0.9037(4) 0.8728(3)
H24_4 H 0.570340 0.007913 0.117974
C52_4 C 0.5319(5) 0.0707(10) 0.0214(8)
H45_4 H 0.563945 0.098940 0.033754
H46_4 H 0.512611 0.110414 0.030147
N5_4 N 0.4995(3) 0.0472(8) 0.9471(6)
N6_4 N 0.6210(3) 0.2223(4) 0.9174(4)
C45_4 C 0.6155(4) 0.1378(7) 0.9227(7)
H37_4 H 0.641962 0.101312 0.930521
C46_4 C 0.5813(4) 0.2684(6) 0.9054(8)
H38_4 H 0.583595 0.327238 0.902587
C47_4 C 0.5331(4) 0.1539(8) 0.9048(7)
C48_4 C 0.5731(5) 0.1026(8) 0.9172(9)
H39_4 H 0.571555 0.043904 0.921859
C49_4 C 0.5368(5) 0.2376(9) 0.8966(8)
H40_4 H 0.509421 0.274436 0.885055
C50_4 C 0.4857(4) 0.1211(10) 0.8988(8)
H41_4 H 0.458436 0.104071 0.849454
H42_4 H 0.471258 0.166582 0.910784
C51_4 C 0.4533(4) 0.0080(10) 0.9324(7)
H43_4 H 0.434643 0.048043 0.941957
N1_4 N 0.5005(3) 0.9528(8) 0.0529(6)
C25_4 C 0.3845(4) 0.8622(7) 0.0773(7)
H13_4 H 0.358038 0.898688 0.069479
C29_4 C 0.4187(4) 0.7316(6) 0.0946(8)
H17_4 H 0.416405 0.672762 0.097413
C30_4 C 0.4669(4) 0.8461(8) 0.0952(7)
C31_4 C 0.4269(5) 0.8974(8) 0.0828(9)
H18_4 H 0.428445 0.956096 0.078141
C32_4 C 0.4632(5) 0.7624(9) 0.1034(8)
H19_4 H 0.490579 0.725564 0.114945
C33_4 C 0.5143(4) 0.8789(10) 0.1012(8)
H20_4 H 0.541564 0.895929 0.150546
H21_4 H 0.528742 0.833418 0.089216
C35_4 C 0.5467(4) 0.9920(10) 0.0676(7)
H23_4 H 0.565357 0.951957 0.058043
C44_4 C 0.2250(9) 0.198(2) 0.0113(10)
H35_4 H 0.244076 0.144563 0.024650
H36_4 H 0.196379 0.189728 0.015497
N7_4 N 0.4476(3) 0.4581(4) 0.0860(4)
C53_4 C 0.4010(5) 0.4981(7) 0.0661(6)
H47_4 H 0.392840 0.551342 0.044127
C54_4 C 0.4204(6) 0.3435(8) 0.1225(9)
H48_4 H 0.427973 0.288830 0.141936
C55_4 C 0.4546(6) 0.3810(8) 0.1119(9)
H49_4 H 0.484272 0.350282 0.123815
N8_4 N 0.2972(4) 0.2934(6) 0.0545(5)
C56_4 C 0.3764(4) 0.3826(8) 0.1058(6)
C57_4 C 0.3356(6) 0.3425(11) 0.1130(7)
H50_4 H 0.317971 0.387658 0.120075
H51_4 H 0.354193 0.306824 0.155715
C58_4 C 0.3671(4) 0.4637(10) 0.0771(7)
H52_4 H 0.337472 0.494400 0.065423
C59_4 C 0.2604(6) 0.2560(11) 0.0669(7)
H53_4 H 0.240293 0.301127 0.069149
H54_4 H 0.280587 0.226160 0.112610
C34_4 C 0.0990(5) 0.0019(7) 0.9339(6)
C36_4 C 0.0796(6) 0.1565(8) 0.8775(9)
H25_4 H 0.072027 0.211170 0.858064
C37_4 C 0.0454(6) 0.1190(8) 0.8881(9)
H26_4 H 0.015728 0.149718 0.876185
C38_4 C 0.4681(5) 0.9293(10) 0.9786(8)
H27_4 H 0.436055 0.901060 0.966246
H28_4 H 0.487389 0.889586 0.969853
N4_4 N 0.2028(4) 0.2066(6) 0.9455(5)
C40_4 C 0.1236(4) 0.1174(8) 0.8942(6)
C41_4 C 0.1644(6) 0.1575(11) 0.8870(7)
H30_4 H 0.182029 0.112342 0.879925
H31_4 H 0.145807 0.193176 0.844285
C42_4 C 0.1329(4) 0.0363(10) 0.9229(7)
H32_4 H 0.162528 0.005600 0.934577
C43_4 C 0.2396(6) 0.2440(11) 0.9331(7)
H33_4 H 0.259707 0.198873 0.930851
H34_4 H 0.219413 0.273840 0.887390
H44_4 H 0.429660 0.992087 0.882026
C60_4 C 0.2750(9) 0.302(2) 0.9887(10)
H55_4 H 0.255924 0.355437 0.975350
H56_4 H 0.303621 0.310272 0.984503
H22_4 H 0.107160 0.948658 0.955873
C1_3 C 0.5679(3) 0.3794(5) 0.0720(4)
O6_3 O 0.7300(2) 0.1388(4) 0.7246(3)
O7_3 O 0.7277(3) 0.1354(4) 0.2449(4)
C4_3 C 0.5662(3) 0.3840(5) 0.5974(5)
C5_3 C 0.7281(4) 0.0721(5) 0.2868(5)
C7_3 C 0.6882(4) 0.1950(5) 0.6892(5)
C8_3 C 0.6132(3) 0.2778(5) 0.1743(4)
H1_3 H 0.591047 0.297322 0.185642
C9_3 C 0.6082(3) 0.3164(5) 0.6294(4)
C11_3 C 0.6076(3) 0.3099(5) 0.1150(4)
C12_3 C 0.7388(4) 0.0774(5) 0.6906(5)
C13_3 C 0.6318(3) 0.2876(5) 0.6979(4)
H3_3 H 0.621381 0.309996 0.724854
C14_3 C 0.6247(4) 0.2860(5) 0.5902(5)
H4_3 H 0.609382 0.306646 0.544060
C15_3 C 0.6417(3) 0.2815(5) 0.0999(4)
H5_3 H 0.638140 0.303200 0.059939
C16_3 C 0.6983(3) 0.0369(6) 0.6283(5)
H6_3 H 0.662963 0.052425 0.605813
C20_3 C 0.6709(4) 0.2256(5) 0.7276(5)
H9_3 H 0.685455 0.204503 0.773342
C21_3 C 0.6846(3) 0.1881(5) 0.2016(5)
C23_3 C 0.7787(3) 0.0448(5) 0.3432(5)
H11_3 H 0.808523 0.071394 0.351643
C24_3 C 0.7909(4) 0.0537(6) 0.7239(5)
H12_3 H 0.818100 0.081798 0.765434
C26_3 C 0.6648(4) 0.2237(5) 0.6198(4)
H14_3 H 0.675599 0.201907 0.593151
C27_3 C 0.6519(4) 0.2161(6) 0.2178(5)
H15_3 H 0.655199 0.194275 0.257528
C28_3 C 0.6848(4) 0.0347(6) 0.2744(5)
H16_3 H 0.651028 0.053438 0.236747
O9_3 O 0.5436(2) 0.4103(4) 0.0948(3)
C39_3 C 0.6812(4) 0.2214(5) 0.1429(5)
H29_3 H 0.704608 0.203955 0.133078
C61_3 C 0.4321(3) 0.3794(5) 0.4280(4)
O17_3 O 0.2723(3) 0.1354(4) 0.2551(4)
C65_3 C 0.2719(4) 0.0721(5) 0.2132(5)
C68_3 C 0.3868(3) 0.2778(5) 0.3257(4)
H57_3 H 0.408953 0.297322 0.314358
C71_3 C 0.3924(3) 0.3099(5) 0.3850(4)
C75_3 C 0.3583(3) 0.2815(5) 0.4001(4)
H61_3 H 0.361860 0.303200 0.440061
C81_3 C 0.3154(3) 0.1881(5) 0.2984(5)
C83_3 C 0.2213(3) 0.0448(5) 0.1568(5)
H67_3 H 0.191477 0.071394 0.148357
C86_3 C 0.3481(4) 0.2161(6) 0.2822(5)
H70_3 H 0.344801 0.194275 0.242472
C87_3 C 0.3152(4) 0.0347(6) 0.2256(5)
H71_3 H 0.348972 0.053438 0.263253
O19_3 O 0.4564(2) 0.4103(4) 0.4052(3)
C88_3 C 0.3188(4) 0.2214(5) 0.3571(5)
H72_3 H 0.295392 0.203955 0.366922
O16_3 O 0.2700(2) 0.1388(4) 0.7754(3)
C64_3 C 0.4338(3) 0.3840(5) 0.9026(5)
C67_3 C 0.3118(4) 0.1950(5) 0.8108(5)
C69_3 C 0.3918(3) 0.3164(5) 0.8706(4)
C72_3 C 0.2612(4) 0.0774(5) 0.8094(5)
C73_3 C 0.3682(3) 0.2876(5) 0.8021(4)
H59_3 H 0.378619 0.309996 0.775146
C74_3 C 0.3753(4) 0.2860(5) 0.9098(5)
H60_3 H 0.390618 0.306646 0.955940
C76_3 C 0.3017(3) 0.0369(6) 0.8717(5)
H62_3 H 0.337037 0.052425 0.894187
C80_3 C 0.3291(4) 0.2256(5) 0.7724(5)
H65_3 H 0.314545 0.204503 0.726658
C84_3 C 0.2091(4) 0.0537(6) 0.7761(5)
H68_3 H 0.181900 0.081798 0.734566
C85_3 C 0.3352(4) 0.2237(5) 0.8802(4)
H69_3 H 0.324401 0.201907 0.906849
O1_3 O 0.7930(2) 0.8479(3) 0.4769(3)
O4_3 O 0.7384(2) 0.8368(4) 0.5481(3)
O5_3 O 0.8245(2) 0.8621(4) 0.6283(3)
C2_3 C 0.7461(3) 0.8682(5) 0.4213(4)
C3_3 C 0.7416(3) 0.9391(5) 0.3761(4)
C6_3 C 0.7747(3) 0.8787(5) 0.6014(5)
C10_3 C 0.6907(4) 0.9669(5) 0.3186(5)
H2_3 H 0.660711 0.940470 0.309556
C17_3 C 0.7630(4) 0.9483(5) 0.6325(5)
C18_3 C 0.8032(4) 0.9878(5) 0.6957(5)
H7_3 H 0.838287 0.970377 0.719367
C19_3 C 0.7850(3) 0.9785(5) 0.3867(5)
H8_3 H 0.819084 0.960036 0.423777
C22_3 C 0.7113(4) 0.9715(5) 0.5995(5)
H10_3 H 0.684323 0.943871 0.557530
O11_3 O 0.2070(2) 0.8479(3) 0.0231(3)
C62_3 C 0.2539(3) 0.8682(5) 0.0787(4)
C63_3 C 0.2584(3) 0.9391(5) 0.1239(4)
C70_3 C 0.3093(4) 0.9669(5) 0.1814(5)
H58_3 H 0.339289 0.940470 0.190444
C79_3 C 0.2150(3) 0.9785(5) 0.1133(5)
H64_3 H 0.180916 0.960036 0.076223
O14_3 O 0.2616(2) 0.8368(4) 0.9519(3)
O15_3 O 0.1755(2) 0.8621(4) 0.8717(3)
C66_3 C 0.2253(3) 0.8787(5) 0.8986(5)
C77_3 C 0.2370(4) 0.9483(5) 0.8675(5)
C78_3 C 0.1968(4) 0.9878(5) 0.8043(5)
H63_3 H 0.161713 0.970377 0.780633
C82_3 C 0.2887(4) 0.9715(5) 0.9005(5)
H66_3 H 0.315677 0.943871 0.942470
O1_4 O 0.2930(2) 0.3479(3) 0.4769(3)
O4_4 O 0.2384(2) 0.3368(4) 0.5481(3)
O5_4 O 0.3245(2) 0.3621(4) 0.6283(3)
C1_4 C 0.0679(3) 0.8794(5) 0.0720(4)
O6_4 O 0.2300(2) 0.6388(4) 0.7246(3)
C2_4 C 0.2461(3) 0.3682(5) 0.4213(4)
O7_4 O 0.2277(3) 0.6354(4) 0.2449(4)
C3_4 C 0.2416(3) 0.4391(5) 0.3761(4)
C4_4 C 0.0662(3) 0.8840(5) 0.5974(5)
C5_4 C 0.2281(4) 0.5721(5) 0.2868(5)
C6_4 C 0.2747(3) 0.3787(5) 0.6014(5)
C7_4 C 0.1882(4) 0.6950(5) 0.6892(5)
C8_4 C 0.1132(3) 0.7778(5) 0.1743(4)
H1_4 H 0.091047 0.797322 0.185642
C9_4 C 0.1082(3) 0.8164(5) 0.6294(4)
C10_4 C 0.1907(4) 0.4669(5) 0.3186(5)
H2_4 H 0.160711 0.440470 0.309556
C11_4 C 0.1076(3) 0.8099(5) 0.1150(4)
C12_4 C 0.2388(4) 0.5774(5) 0.6906(5)
C13_4 C 0.1318(3) 0.7876(5) 0.6979(4)
H3_4 H 0.121381 0.809996 0.724854
C14_4 C 0.1247(4) 0.7860(5) 0.5902(5)
H4_4 H 0.109382 0.806646 0.544060
C15_4 C 0.1417(3) 0.7815(5) 0.0999(4)
H5_4 H 0.138140 0.803200 0.059939
C16_4 C 0.1983(3) 0.5369(6) 0.6283(5)
H6_4 H 0.162963 0.552425 0.605813
C17_4 C 0.2630(4) 0.4483(5) 0.6325(5)
C18_4 C 0.3032(4) 0.4878(5) 0.6957(5)
H7_4 H 0.338287 0.470377 0.719367
C19_4 C 0.2850(3) 0.4785(5) 0.3867(5)
H8_4 H 0.319084 0.460036 0.423777
C20_4 C 0.1709(4) 0.7256(5) 0.7276(5)
H9_4 H 0.185455 0.704503 0.773342
C21_4 C 0.1846(3) 0.6881(5) 0.2016(5)
C22_4 C 0.2113(4) 0.4715(5) 0.5995(5)
H10_4 H 0.184323 0.443871 0.557530
C23_4 C 0.2787(3) 0.5448(5) 0.3432(5)
H11_4 H 0.308523 0.571394 0.351643
C24_4 C 0.2909(4) 0.5537(6) 0.7239(5)
H12_4 H 0.318100 0.581798 0.765434
C26_4 C 0.1648(4) 0.7237(5) 0.6198(4)
H14_4 H 0.175599 0.701907 0.593151
C27_4 C 0.1519(4) 0.7161(6) 0.2178(5)
H15_4 H 0.155199 0.694275 0.257528
C28_4 C 0.1848(4) 0.5347(6) 0.2744(5)
H16_4 H 0.151028 0.553438 0.236747
O9_4 O 0.0436(2) 0.9103(4) 0.0948(3)
C39_4 C 0.1812(4) 0.7214(5) 0.1429(5)
H29_4 H 0.204608 0.703955 0.133078
O11_4 O 0.7070(2) 0.3479(3) 0.0231(3)
C61_4 C 0.9321(3) 0.8794(5) 0.4280(4)
C62_4 C 0.7539(3) 0.3682(5) 0.0787(4)
O17_4 O 0.7723(3) 0.6354(4) 0.2551(4)
C63_4 C 0.7584(3) 0.4391(5) 0.1239(4)
C65_4 C 0.7719(4) 0.5721(5) 0.2132(5)
C68_4 C 0.8868(3) 0.7778(5) 0.3257(4)
H57_4 H 0.908953 0.797322 0.314358
C70_4 C 0.8093(4) 0.4669(5) 0.1814(5)
H58_4 H 0.839289 0.440470 0.190444
C71_4 C 0.8924(3) 0.8099(5) 0.3850(4)
C75_4 C 0.8583(3) 0.7815(5) 0.4001(4)
H61_4 H 0.861860 0.803200 0.440061
C79_4 C 0.7150(3) 0.4785(5) 0.1133(5)
H64_4 H 0.680916 0.460036 0.076223
C81_4 C 0.8154(3) 0.6881(5) 0.2984(5)
C83_4 C 0.7213(3) 0.5448(5) 0.1568(5)
H67_4 H 0.691477 0.571394 0.148357
C86_4 C 0.8481(4) 0.7161(6) 0.2822(5)
H70_4 H 0.844801 0.694275 0.242472
C87_4 C 0.8152(4) 0.5347(6) 0.2256(5)
H71_4 H 0.848972 0.553438 0.263253
O19_4 O 0.9564(2) 0.9103(4) 0.4052(3)
C88_4 C 0.8188(4) 0.7214(5) 0.3571(5)
H72_4 H 0.795392 0.703955 0.366922
O14_4 O 0.7616(2) 0.3368(4) 0.9519(3)
O15_4 O 0.6755(2) 0.3621(4) 0.8717(3)
O16_4 O 0.7700(2) 0.6388(4) 0.7754(3)
C64_4 C 0.9338(3) 0.8840(5) 0.9026(5)
C66_4 C 0.7253(3) 0.3787(5) 0.8986(5)
C67_4 C 0.8118(4) 0.6950(5) 0.8108(5)
C69_4 C 0.8918(3) 0.8164(5) 0.8706(4)
C72_4 C 0.7612(4) 0.5774(5) 0.8094(5)
C73_4 C 0.8682(3) 0.7876(5) 0.8021(4)
H59_4 H 0.878619 0.809996 0.775146
C74_4 C 0.8753(4) 0.7860(5) 0.9098(5)
H60_4 H 0.890618 0.806646 0.955940
C76_4 C 0.8017(3) 0.5369(6) 0.8717(5)
H62_4 H 0.837037 0.552425 0.894187
C77_4 C 0.7370(4) 0.4483(5) 0.8675(5)
C78_4 C 0.6968(4) 0.4878(5) 0.8043(5)
H63_4 H 0.661713 0.470377 0.780633
C80_4 C 0.8291(4) 0.7256(5) 0.7724(5)
H65_4 H 0.814545 0.704503 0.726658
C82_4 C 0.7887(4) 0.4715(5) 0.9005(5)
H66_4 H 0.815677 0.443871 0.942470
C84_4 C 0.7091(4) 0.5537(6) 0.7761(5)
H68_4 H 0.681900 0.581798 0.734566
C85_4 C 0.8352(4) 0.7237(5) 0.8802(4)
H69_4 H 0.824401 0.701907 0.906849
loop_
_geom_bond_atom_site_label_1
_geom_bond_atom_site_label_2
_geom_bond_site_symmetry_1
_geom_bond_site_symmetry_2
O14 Co3 1_555 1_555
O15 Co3 1_555 1_555
C66 O14 1_555 1_555
C77 C66 1_555 1_555
C78 C77 1_555 1_555
H63 C78 1_555 1_555
H66 C82 1_555 1_555
N9 Co3 1_555 1_555
O26 Co3 1_555 1_555
O15 C66 1_555 1_555
C77 C82 1_555 1_555
Co1 O1 1_555 1_555
O1 C2 1_555 1_555
O4 Co1 1_555 1_555
O5 Co1 1_555 1_555
N2 Co1 1_555 1_555
C2 C3 1_555 1_555
C3 C10 1_555 1_555
C6 O4 1_555 1_555
C10 H2 1_555 1_555
C17 C6 1_555 1_555
C18 C17 1_555 1_555
H7 C18 1_555 1_555
C19 C3 1_555 1_555
H8 C19 1_555 1_555
H10 C22 1_555 1_555
C25 N2 1_555 1_555
H13 C25 1_555 1_555
C29 N2 1_555 1_555
H17 C29 1_555 1_555
C30 C31 1_555 1_555
C31 C25 1_555 1_555
H18 C31 1_555 1_555
C32 C29 1_555 1_555
H19 C32 1_555 1_555
O8 C2 1_555 1_555
H27 C38 1_555 1_555
H28 C38 1_555 1_555
N5 C50 1_555 1_555
H41 C50 1_555 1_555
H42 C50 1_555 1_555
C51 C38 1_555 1_555
H43 C51 1_555 1_555
H44 C51 1_555 1_555
O11 C62 1_555 1_555
C62 C63 1_555 1_555
C63 C70 1_555 1_555
C70 H58 1_555 1_555
C79 C63 1_555 1_555
H64 C79 1_555 1_555
O18 C62 1_555 1_555
Co6 O8 1_555 1_555
Co7 O18 1_555 1_555
O25 Co1 1_555 1_555
O5 C6 1_555 1_555
C17 C22 1_555 1_555
C30 C32 1_555 1_555
N5 C51 1_555 1_555
O16 C67 1_555 1_555
C64 O13 1_555 1_555
C67 C80 1_555 1_555
C69 C64 1_555 1_555
C72 O16 1_555 1_555
C73 C69 1_555 1_555
H59 C73 1_555 1_555
C74 C69 1_555 1_555
H60 C74 1_555 1_555
C76 C72 1_555 1_555
H62 C76 1_555 1_555
C80 C73 1_555 1_555
H65 C80 1_555 1_555
C84 C72 1_555 1_555
H68 C84 1_555 1_555
C85 C67 1_555 1_555
H69 C85 1_555 1_555
O20 C64 1_555 1_555
O13 Co9 1_555 1_555
C74 C85 1_555 1_555
O20 Co9 1_555 1_555
Co2 O3 1_555 1_555
O2 C1 1_555 1_555
O3 C4 1_555 1_555
C1 C11 1_555 1_555
O6 C7 1_555 1_555
O7 C5 1_555 1_555
C4 C9 1_555 1_555
C5 C23 1_555 1_555
C7 C20 1_555 1_555
C8 H1 1_555 1_555
C9 C13 1_555 1_555
C11 C8 1_555 1_555
C12 O6 1_555 1_555
C13 H3 1_555 1_555
C14 C9 1_555 1_555
H4 C14 1_555 1_555
C15 C11 1_555 1_555
H5 C15 1_555 1_555
C16 C12 1_555 1_555
H6 C16 1_555 1_555
C20 C13 1_555 1_555
H9 C20 1_555 1_555
C21 O7 1_555 1_555
H11 C23 1_555 1_555
C24 C12 1_555 1_555
H12 C24 1_555 1_555
C26 C7 1_555 1_555
H14 C26 1_555 1_555
C27 C8 1_555 1_555
H15 C27 1_555 1_555
C28 C5 1_555 1_555
H16 C28 1_555 1_555
O9 C1 1_555 1_555
O10 C4 1_555 1_555
N3 Co2 1_555 1_555
C34 N3 1_555 1_555
H22 C34 1_555 1_555
C36 H25 1_555 1_555
C37 N3 1_555 1_555
H26 C37 1_555 1_555
C39 C15 1_555 1_555
H29 C39 1_555 1_555
N4 C41 1_555 1_555
C40 C36 1_555 1_555
C41 C40 1_555 1_555
H30 C41 1_555 1_555
H31 C41 1_555 1_555
C42 C34 1_555 1_555
H32 C42 1_555 1_555
C43 N4 1_555 1_555
H33 C43 1_555 1_555
H34 C43 1_555 1_555
C44 N4 1_555 1_555
H35 C44 1_555 1_555
H36 C44 1_555 1_555
N7 C53 1_555 1_555
C54 H48 1_555 1_555
C55 N7 1_555 1_555
H49 C55 1_555 1_555
N8 C57 1_555 1_555
C56 C54 1_555 1_555
C57 C56 1_555 1_555
H50 C57 1_555 1_555
H51 C57 1_555 1_555
C58 C53 1_555 1_555
H52 C58 1_555 1_555
C59 C44 1_555 1_555
H53 C59 1_555 1_555
H54 C59 1_555 1_555
C60 C43 1_555 1_555
H55 C60 1_555 1_555
H56 C60 1_555 1_555
Co4 O9 1_555 1_555
O12 C61 1_555 1_555
C61 C71 1_555 1_555
O17 C65 1_555 1_555
C65 C83 1_555 1_555
C68 H57 1_555 1_555
C71 C68 1_555 1_555
C75 C71 1_555 1_555
H61 C75 1_555 1_555
C81 O17 1_555 1_555
H67 C83 1_555 1_555
C86 C68 1_555 1_555
H70 C86 1_555 1_555
C87 C65 1_555 1_555
H71 C87 1_555 1_555
O19 Co2 1_555 1_555
C88 C75 1_555 1_555
H72 C88 1_555 1_555
Co8 O3 1_555 1_555
O22 Co2 1_555 1_555
O23 Co2 1_555 1_555
O24 Co4 1_555 1_555
O27 Co2 1_555 1_555
O28 Co4 1_555 1_555
N10 Co4 1_555 1_555
C14 C26 1_555 1_555
C21 C27 1_555 1_555
C21 C39 1_555 1_555
O10 Co8 1_555 1_555
C36 C37 1_555 1_555
C40 C42 1_555 1_555
C54 C55 1_555 1_555
N8 C59 1_555 1_555
N8 C60 1_555 1_555
C56 C58 1_555 1_555
O12 Co8 1_555 1_555
C61 O19 1_555 1_555
C81 C86 1_555 1_555
C81 C88 1_555 1_555
Co8 O23 1_555 1_555
N1 C33 1_555 1_555
H20 C33 1_555 1_555
H21 C33 1_555 1_555
C35 N1 1_555 1_555
H23 C35 1_555 1_555
H24 C35 1_555 1_555
N6 C45 1_555 1_555
C45 H37 1_555 1_555
C46 N6 1_555 1_555
H38 C46 1_555 1_555
C47 C48 1_555 1_555
C48 C45 1_555 1_555
H39 C48 1_555 1_555
C49 C46 1_555 1_555
H40 C49 1_555 1_555
C52 C35 1_555 1_555
H45 C52 1_555 1_555
H46 C52 1_555 1_555
Co5 N6 1_555 1_555
C47 C49 1_555 1_555
N1_2 C33_2 1_555 1_555
H20_2 C33_2 1_555 1_555
H21_2 C33_2 1_555 1_555
C35_2 N1_2 1_555 1_555
H23_2 C35_2 1_555 1_555
H24_2 C35_2 1_555 1_555
C52_2 C35_2 1_555 1_555
H45_2 C52_2 1_555 1_555
H46_2 C52_2 1_555 1_555
N6_2 C45_2 1_555 1_555
C45_2 H37_2 1_555 1_555
C46_2 N6_2 1_555 1_555
H38_2 C46_2 1_555 1_555
C47_2 C48_2 1_555 1_555
C48_2 C45_2 1_555 1_555
H39_2 C48_2 1_555 1_555
C49_2 C46_2 1_555 1_555
H40_2 C49_2 1_555 1_555
Co5_2 N6_2 1_555 1_555
C47_2 C49_2 1_555 1_555
C25_2 N9 1_555 1_555
H13_2 C25_2 1_555 1_555
C29_2 N9 1_555 1_555
H17_2 C29_2 1_555 1_555
C30_2 C31_2 1_555 1_555
C31_2 C25_2 1_555 1_555
H18_2 C31_2 1_555 1_555
C32_2 C29_2 1_555 1_555
H19_2 C32_2 1_555 1_555
C30_2 C32_2 1_555 1_555
H27_2 C38_2 1_555 1_555
H28_2 C38_2 1_555 1_555
N5_2 C50_2 1_555 1_555
H41_2 C50_2 1_555 1_555
H42_2 C50_2 1_555 1_555
C51_2 C38_2 1_555 1_555
H43_2 C51_2 1_555 1_555
H44_2 C51_2 1_555 1_555
N5_2 C51_2 1_555 1_555
H35_2 C44_2 1_555 1_555
H36_2 C44_2 1_555 1_555
N7_2 C53_2 1_555 1_555
C54_2 H48_2 1_555 1_555
C55_2 N7_2 1_555 1_555
H49_2 C55_2 1_555 1_555
N8_2 C57_2 1_555 1_555
C56_2 C54_2 1_555 1_555
C57_2 C56_2 1_555 1_555
H50_2 C57_2 1_555 1_555
H51_2 C57_2 1_555 1_555
C58_2 C53_2 1_555 1_555
H52_2 C58_2 1_555 1_555
C59_2 C44_2 1_555 1_555
H53_2 C59_2 1_555 1_555
H54_2 C59_2 1_555 1_555
C54_2 C55_2 1_555 1_555
N8_2 C59_2 1_555 1_555
C56_2 C58_2 1_555 1_555
C34_2 N10 1_555 1_555
H22_2 C34_2 1_555 1_555
C36_2 H25_2 1_555 1_555
C37_2 N10 1_555 1_555
H26_2 C37_2 1_555 1_555
N4_2 C41_2 1_555 1_555
C40_2 C36_2 1_555 1_555
C41_2 C40_2 1_555 1_555
H30_2 C41_2 1_555 1_555
H31_2 C41_2 1_555 1_555
C42_2 C34_2 1_555 1_555
H32_2 C42_2 1_555 1_555
C43_2 N4_2 1_555 1_555
H33_2 C43_2 1_555 1_555
H34_2 C43_2 1_555 1_555
C60_2 C43_2 1_555 1_555
H55_2 C60_2 1_555 1_555
H56_2 C60_2 1_555 1_555
C36_2 C37_2 1_555 1_555
C40_2 C42_2 1_555 1_555
O14_2 Co3_2 1_555 1_555
O15_2 Co3_2 1_555 1_555
O16_2 C67_2 1_555 1_555
C64_2 O13_2 1_555 1_555
C66_2 O14_2 1_555 1_555
C67_2 C80_2 1_555 1_555
C69_2 C64_2 1_555 1_555
C72_2 O16_2 1_555 1_555
C73_2 C69_2 1_555 1_555
H59_2 C73_2 1_555 1_555
C74_2 C69_2 1_555 1_555
H60_2 C74_2 1_555 1_555
C76_2 C72_2 1_555 1_555
H62_2 C76_2 1_555 1_555
C77_2 C66_2 1_555 1_555
C78_2 C77_2 1_555 1_555
H63_2 C78_2 1_555 1_555
C80_2 C73_2 1_555 1_555
H65_2 C80_2 1_555 1_555
C82_2 C76_2 1_555 1_555
H66_2 C82_2 1_555 1_555
C84_2 C72_2 1_555 1_555
H68_2 C84_2 1_555 1_555
C85_2 C67_2 1_555 1_555
H69_2 C85_2 1_555 1_555
O20_2 C64_2 1_555 1_555
N9_2 Co3_2 1_555 1_555
O26_2 Co3_2 1_555 1_555
O15_2 C66_2 1_555 1_555
C74_2 C85_2 1_555 1_555
C77_2 C82_2 1_555 1_555
C78_2 C84_2 1_555 1_555
O11_2 C62_2 1_555 1_555
O12_2 C61_2 1_555 1_555
C61_2 C71_2 1_555 1_555
C62_2 C63_2 1_555 1_555
O17_2 C65_2 1_555 1_555
C63_2 C70_2 1_555 1_555
C65_2 C83_2 1_555 1_555
C68_2 H57_2 1_555 1_555
C70_2 H58_2 1_555 1_555
C71_2 C68_2 1_555 1_555
C75_2 C71_2 1_555 1_555
H61_2 C75_2 1_555 1_555
C79_2 C63_2 1_555 1_555
H64_2 C79_2 1_555 1_555
C81_2 O17_2 1_555 1_555
C83_2 C79_2 1_555 1_555
H67_2 C83_2 1_555 1_555
C86_2 C68_2 1_555 1_555
H70_2 C86_2 1_555 1_555
C87_2 C65_2 1_555 1_555
H71_2 C87_2 1_555 1_555
O18_2 C62_2 1_555 1_555
C88_2 C75_2 1_555 1_555
H72_2 C88_2 1_555 1_555
Co5_2 O18_2 1_555 1_555
O12_2 Co10 1_555 1_555
C61_2 O19_2 1_555 1_555
C70_2 C87_2 1_555 1_555
C81_2 C86_2 1_555 1_555
C81_2 C88_2 1_555 1_555
N5_3 C50_3 1_555 1_555
N6_3 C45_3 1_555 1_555
C45_3 H37_3 1_555 1_555
C46_3 N6_3 1_555 1_555
H38_3 C46_3 1_555 1_555
C47_3 C48_3 1_555 1_555
C48_3 C45_3 1_555 1_555
H39_3 C48_3 1_555 1_555
C49_3 C46_3 1_555 1_555
H40_3 C49_3 1_555 1_555
C50_3 C47_3 1_555 1_555
H41_3 C50_3 1_555 1_555
H42_3 C50_3 1_555 1_555
H43_3 C51_3 1_555 1_555
H45_3 C52_3 1_555 1_555
H46_3 C52_3 1_555 1_555
Co6 N6_3 1_555 1_555
N5_3 C51_3 1_555 1_555
N5_3 C52_3 1_555 1_555
C47_3 C49_3 1_555 1_555
Co1_2 O1_2 1_555 1_555
O1_2 C2_2 1_555 1_555
O2_2 C1_2 1_555 1_555
O3_2 C4_2 1_555 1_555
O4_2 Co1_2 1_555 1_555
N1_3 C33_3 1_555 1_555
O5_2 Co1_2 1_555 1_555
C1_2 C11_2 1_555 1_555
N2_2 Co1_2 1_555 1_555
O6_2 C7_2 1_555 1_555
C2_2 C3_2 1_555 1_555
O7_2 C5_2 1_555 1_555
C3_2 C10_2 1_555 1_555
C4_2 C9_2 1_555 1_555
C5_2 C23_2 1_555 1_555
C6_2 O4_2 1_555 1_555
C7_2 C20_2 1_555 1_555
C8_2 H1_2 1_555 1_555
C9_2 C13_2 1_555 1_555
C10_2 H2_2 1_555 1_555
C11_2 C8_2 1_555 1_555
C12_2 O6_2 1_555 1_555
C13_2 H3_2 1_555 1_555
C14_2 C9_2 1_555 1_555
H4_2 C14_2 1_555 1_555
C15_2 C11_2 1_555 1_555
H5_2 C15_2 1_555 1_555
C16_2 C12_2 1_555 1_555
H6_2 C16_2 1_555 1_555
C17_2 C6_2 1_555 1_555
C18_2 C17_2 1_555 1_555
H7_2 C18_2 1_555 1_555
C19_2 C3_2 1_555 1_555
H8_2 C19_2 1_555 1_555
C20_2 C13_2 1_555 1_555
H9_2 C20_2 1_555 1_555
C21_2 O7_2 1_555 1_555
C22_2 C16_2 1_555 1_555
H10_2 C22_2 1_555 1_555
C23_2 C19_2 1_555 1_555
H11_2 C23_2 1_555 1_555
C24_2 C12_2 1_555 1_555
H12_2 C24_2 1_555 1_555
C25_3 N2_2 1_555 1_555
H13_3 C25_3 1_555 1_555
C26_2 C7_2 1_555 1_555
H14_2 C26_2 1_555 1_555
C27_2 C8_2 1_555 1_555
H15_2 C27_2 1_555 1_555
C28_2 C5_2 1_555 1_555
H16_2 C28_2 1_555 1_555
C29_3 N2_2 1_555 1_555
H17_3 C29_3 1_555 1_555
C30_3 C31_3 1_555 1_555
C31_3 C25_3 1_555 1_555
H18_3 C31_3 1_555 1_555
C32_3 C29_3 1_555 1_555
H19_3 C32_3 1_555 1_555
C33_3 C30_3 1_555 1_555
H20_3 C33_3 1_555 1_555
H21_3 C33_3 1_555 1_555
O8_2 C2_2 1_555 1_555
O9_2 C1_2 1_555 1_555
O10_2 C4_2 1_555 1_555
C34_3 N3_2 1_555 1_555
C35_3 N1_3 1_555 1_555
H23_3 C35_3 1_555 1_555
C36_3 H25_3 1_555 1_555
C37_3 N3_2 1_555 1_555
H26_3 C37_3 1_555 1_555
C38_3 N1_3 1_555 1_555
H27_3 C38_3 1_555 1_555
H28_3 C38_3 1_555 1_555
C39_2 C15_2 1_555 1_555
H29_2 C39_2 1_555 1_555
N4_3 C41_3 1_555 1_555
C40_3 C36_3 1_555 1_555
C41_3 C40_3 1_555 1_555
H30_3 C41_3 1_555 1_555
H31_3 C41_3 1_555 1_555
C42_3 C34_3 1_555 1_555
H32_3 C42_3 1_555 1_555
C43_3 N4_3 1_555 1_555
H33_3 C43_3 1_555 1_555
H34_3 C43_3 1_555 1_555
C44_3 N4_3 1_555 1_555
H35_3 C44_3 1_555 1_555
H36_3 C44_3 1_555 1_555
N7_3 C53_3 1_555 1_555
C53_3 H47_3 1_555 1_555
C54_3 H48_3 1_555 1_555
C55_3 N7_3 1_555 1_555
H49_3 C55_3 1_555 1_555
N8_3 C57_3 1_555 1_555
C56_3 C54_3 1_555 1_555
C57_3 C56_3 1_555 1_555
H50_3 C57_3 1_555 1_555
H51_3 C57_3 1_555 1_555
C58_3 C53_3 1_555 1_555
H52_3 C58_3 1_555 1_555
C59_3 C44_3 1_555 1_555
H53_3 C59_3 1_555 1_555
H54_3 C59_3 1_555 1_555
C60_3 C43_3 1_555 1_555
H55_3 C60_3 1_555 1_555
H56_3 C60_3 1_555 1_555
Co5 O8_2 1_555 1_555
Co8 N7_3 1_555 1_555
O25_2 Co1_2 1_555 1_555
O5_2 C6_2 1_555 1_555
C10_2 C28_2 1_555 1_555
C14_2 C26_2 1_555 1_555
C17_2 C22_2 1_555 1_555
C18_2 C24_2 1_555 1_555
C21_2 C27_2 1_555 1_555
C21_2 C39_2 1_555 1_555
C30_3 C32_3 1_555 1_555
C36_3 C37_3 1_555 1_555
C40_3 C42_3 1_555 1_555
C54_3 C55_3 1_555 1_555
N8_3 C59_3 1_555 1_555
N8_3 C60_3 1_555 1_555
C56_3 C58_3 1_555 1_555
O22_2 Co2_2 1_555 1_555
H45_4 C52_4 1_555 1_555
H46_4 C52_4 1_555 1_555
N5_4 C50_4 1_555 1_555
N6_4 C45_4 1_555 1_555
C45_4 H37_4 1_555 1_555
C46_4 N6_4 1_555 1_555
H38_4 C46_4 1_555 1_555
C47_4 C48_4 1_555 1_555
C48_4 C45_4 1_555 1_555
H39_4 C48_4 1_555 1_555
C49_4 C46_4 1_555 1_555
H40_4 C49_4 1_555 1_555
C50_4 C47_4 1_555 1_555
H41_4 C50_4 1_555 1_555
H42_4 C50_4 1_555 1_555
H43_4 C51_4 1_555 1_555
Co7 N6_4 1_555 1_555
N5_4 C51_4 1_555 1_555
C47_4 C49_4 1_555 1_555
N1_4 C33_4 1_555 1_555
C25_4 N9_2 1_555 1_555
H13_4 C25_4 1_555 1_555
C29_4 N9_2 1_555 1_555
H17_4 C29_4 1_555 1_555
C30_4 C31_4 1_555 1_555
C31_4 C25_4 1_555 1_555
H18_4 C31_4 1_555 1_555
C32_4 C29_4 1_555 1_555
H19_4 C32_4 1_555 1_555
C33_4 C30_4 1_555 1_555
H20_4 C33_4 1_555 1_555
H21_4 C33_4 1_555 1_555
C35_4 N1_4 1_555 1_555
H23_4 C35_4 1_555 1_555
H35_4 C44_4 1_555 1_555
H36_4 C44_4 1_555 1_555
N7_4 C53_4 1_555 1_555
C53_4 H47_4 1_555 1_555
C54_4 H48_4 1_555 1_555
C55_4 N7_4 1_555 1_555
H49_4 C55_4 1_555 1_555
N8_4 C57_4 1_555 1_555
C56_4 C54_4 1_555 1_555
C57_4 C56_4 1_555 1_555
H50_4 C57_4 1_555 1_555
H51_4 C57_4 1_555 1_555
C58_4 C53_4 1_555 1_555
H52_4 C58_4 1_555 1_555
C59_4 C44_4 1_555 1_555
H53_4 C59_4 1_555 1_555
H54_4 C59_4 1_555 1_555
Co9 N7_4 1_555 1_555
C30_4 C32_4 1_555 1_555
C54_4 C55_4 1_555 1_555
N8_4 C59_4 1_555 1_555
C56_4 C58_4 1_555 1_555
C34_4 N10_2 1_555 1_555
C36_4 H25_4 1_555 1_555
C37_4 N10_2 1_555 1_555
H26_4 C37_4 1_555 1_555
H27_4 C38_4 1_555 1_555
H28_4 C38_4 1_555 1_555
N4_4 C41_4 1_555 1_555
C40_4 C36_4 1_555 1_555
C41_4 C40_4 1_555 1_555
H30_4 C41_4 1_555 1_555
H31_4 C41_4 1_555 1_555
C42_4 C34_4 1_555 1_555
H32_4 C42_4 1_555 1_555
C43_4 N4_4 1_555 1_555
H33_4 C43_4 1_555 1_555
H34_4 C43_4 1_555 1_555
C60_4 C43_4 1_555 1_555
H55_4 C60_4 1_555 1_555
H56_4 C60_4 1_555 1_555
C36_4 C37_4 1_555 1_555
C40_4 C42_4 1_555 1_555
O21 C1_3 1_555 1_555
O23 C4_3 1_555 1_555
C1_3 C11_3 1_555 1_555
O6_3 C7_3 1_555 1_555
O7_3 C5_3 1_555 1_555
C4_3 C9_3 1_555 1_555
C5_3 C23_3 1_555 1_555
C7_3 C20_3 1_555 1_555
C8_3 H1_3 1_555 1_555
C9_3 C13_3 1_555 1_555
C11_3 C8_3 1_555 1_555
C12_3 O6_3 1_555 1_555
C13_3 H3_3 1_555 1_555
C14_3 C9_3 1_555 1_555
H4_3 C14_3 1_555 1_555
C15_3 C11_3 1_555 1_555
H5_3 C15_3 1_555 1_555
C16_3 C12_3 1_555 1_555
H6_3 C16_3 1_555 1_555
C20_3 C13_3 1_555 1_555
H9_3 C20_3 1_555 1_555
C21_3 O7_3 1_555 1_555
H11_3 C23_3 1_555 1_555
C24_3 C12_3 1_555 1_555
H12_3 C24_3 1_555 1_555
C26_3 C7_3 1_555 1_555
H14_3 C26_3 1_555 1_555
C27_3 C8_3 1_555 1_555
H15_3 C27_3 1_555 1_555
C28_3 C5_3 1_555 1_555
H16_3 C28_3 1_555 1_555
O9_3 C1_3 1_555 1_555
O27 C4_3 1_555 1_555
C39_3 C15_3 1_555 1_555
H29_3 C39_3 1_555 1_555
Co9 O9_3 1_555 1_555
O22 C61_3 1_555 1_555
C61_3 C71_3 1_555 1_555
O17_3 C65_3 1_555 1_555
C65_3 C83_3 1_555 1_555
C68_3 H57_3 1_555 1_555
C71_3 C68_3 1_555 1_555
C75_3 C71_3 1_555 1_555
H61_3 C75_3 1_555 1_555
C81_3 O17_3 1_555 1_555
H67_3 C83_3 1_555 1_555
C86_3 C68_3 1_555 1_555
H70_3 C86_3 1_555 1_555
C87_3 C65_3 1_555 1_555
H71_3 C87_3 1_555 1_555
O19_3 Co8 1_555 1_555
C88_3 C75_3 1_555 1_555
H72_3 C88_3 1_555 1_555
C14_3 C26_3 1_555 1_555
C21_3 C27_3 1_555 1_555
C21_3 C39_3 1_555 1_555
C61_3 O19_3 1_555 1_555
C81_3 C86_3 1_555 1_555
C81_3 C88_3 1_555 1_555
O16_3 C67_3 1_555 1_555
C64_3 O24 1_555 1_555
C67_3 C80_3 1_555 1_555
C69_3 C64_3 1_555 1_555
C72_3 O16_3 1_555 1_555
C73_3 C69_3 1_555 1_555
H59_3 C73_3 1_555 1_555
C74_3 C69_3 1_555 1_555
H60_3 C74_3 1_555 1_555
C76_3 C72_3 1_555 1_555
H62_3 C76_3 1_555 1_555
C80_3 C73_3 1_555 1_555
H65_3 C80_3 1_555 1_555
C84_3 C72_3 1_555 1_555
H68_3 C84_3 1_555 1_555
C85_3 C67_3 1_555 1_555
H69_3 C85_3 1_555 1_555
O28 C64_3 1_555 1_555
C74_3 C85_3 1_555 1_555
Co5 O1_3 1_555 1_555
O1_3 C2_3 1_555 1_555
O4_3 Co5 1_555 1_555
O5_3 Co5 1_555 1_555
C2_3 C3_3 1_555 1_555
C3_3 C10_3 1_555 1_555
C6_3 O4_3 1_555 1_555
C10_3 H2_3 1_555 1_555
C17_3 C6_3 1_555 1_555
C18_3 C17_3 1_555 1_555
H7_3 C18_3 1_555 1_555
C19_3 C3_3 1_555 1_555
H8_3 C19_3 1_555 1_555
H10_3 C22_3 1_555 1_555
O25_2 C2_3 1_555 1_555
O11_3 C62_3 1_555 1_555
C62_3 C63_3 1_555 1_555
C63_3 C70_3 1_555 1_555
C70_3 H58_3 1_555 1_555
C79_3 C63_3 1_555 1_555
H64_3 C79_3 1_555 1_555
O26_2 C62_3 1_555 1_555
O5_3 C6_3 1_555 1_555
C17_3 C22_3 1_555 1_555
O14_3 Co5_2 1_555 1_555
O15_3 Co5_2 1_555 1_555
C66_3 O14_3 1_555 1_555
C77_3 C66_3 1_555 1_555
C78_3 C77_3 1_555 1_555
H63_3 C78_3 1_555 1_555
H66_3 C82_3 1_555 1_555
O15_3 C66_3 1_555 1_555
C77_3 C82_3 1_555 1_555
Co6 O1_4 1_555 1_555
O1_4 C2_4 1_555 1_555
O21_2 C1_4 1_555 1_555
O23_2 C4_4 1_555 1_555
O4_4 Co6 1_555 1_555
O5_4 Co6 1_555 1_555
C1_4 C11_4 1_555 1_555
O6_4 C7_4 1_555 1_555
C2_4 C3_4 1_555 1_555
O7_4 C5_4 1_555 1_555
C3_4 C10_4 1_555 1_555
C4_4 C9_4 1_555 1_555
C5_4 C23_4 1_555 1_555
C6_4 O4_4 1_555 1_555
C7_4 C20_4 1_555 1_555
C8_4 H1_4 1_555 1_555
C9_4 C13_4 1_555 1_555
C10_4 H2_4 1_555 1_555
C11_4 C8_4 1_555 1_555
C12_4 O6_4 1_555 1_555
C13_4 H3_4 1_555 1_555
C14_4 C9_4 1_555 1_555
H4_4 C14_4 1_555 1_555
C15_4 C11_4 1_555 1_555
H5_4 C15_4 1_555 1_555
C16_4 C12_4 1_555 1_555
H6_4 C16_4 1_555 1_555
C17_4 C6_4 1_555 1_555
C18_4 C17_4 1_555 1_555
H7_4 C18_4 1_555 1_555
C19_4 C3_4 1_555 1_555
H8_4 C19_4 1_555 1_555
C20_4 C13_4 1_555 1_555
H9_4 C20_4 1_555 1_555
C21_4 O7_4 1_555 1_555
C22_4 C16_4 1_555 1_555
H10_4 C22_4 1_555 1_555
C23_4 C19_4 1_555 1_555
H11_4 C23_4 1_555 1_555
C24_4 C12_4 1_555 1_555
H12_4 C24_4 1_555 1_555
C26_4 C7_4 1_555 1_555
H14_4 C26_4 1_555 1_555
C27_4 C8_4 1_555 1_555
H15_4 C27_4 1_555 1_555
C28_4 C5_4 1_555 1_555
H16_4 C28_4 1_555 1_555
O25 C2_4 1_555 1_555
O9_4 C1_4 1_555 1_555
O27_2 C4_4 1_555 1_555
C39_4 C15_4 1_555 1_555
H29_4 C39_4 1_555 1_555
O5_4 C6_4 1_555 1_555
C10_4 C28_4 1_555 1_555
C14_4 C26_4 1_555 1_555
C17_4 C22_4 1_555 1_555
C18_4 C24_4 1_555 1_555
C21_4 C27_4 1_555 1_555
C21_4 C39_4 1_555 1_555
O11_4 C62_4 1_555 1_555
O22_2 C61_4 1_555 1_555
C61_4 C71_4 1_555 1_555
C62_4 C63_4 1_555 1_555
O17_4 C65_4 1_555 1_555
C63_4 C70_4 1_555 1_555
C65_4 C83_4 1_555 1_555
C68_4 H57_4 1_555 1_555
C70_4 H58_4 1_555 1_555
C71_4 C68_4 1_555 1_555
C75_4 C71_4 1_555 1_555
H61_4 C75_4 1_555 1_555
C79_4 C63_4 1_555 1_555
H64_4 C79_4 1_555 1_555
C81_4 O17_4 1_555 1_555
C83_4 C79_4 1_555 1_555
H67_4 C83_4 1_555 1_555
C86_4 C68_4 1_555 1_555
H70_4 C86_4 1_555 1_555
C87_4 C65_4 1_555 1_555
H71_4 C87_4 1_555 1_555
O26 C62_4 1_555 1_555
C88_4 C75_4 1_555 1_555
H72_4 C88_4 1_555 1_555
C61_4 O19_4 1_555 1_555
C70_4 C87_4 1_555 1_555
C81_4 C86_4 1_555 1_555
C81_4 C88_4 1_555 1_555
O14_4 Co7 1_555 1_555
O15_4 Co7 1_555 1_555
O16_4 C67_4 1_555 1_555
C64_4 O24_2 1_555 1_555
C66_4 O14_4 1_555 1_555
C67_4 C80_4 1_555 1_555
C69_4 C64_4 1_555 1_555
C72_4 O16_4 1_555 1_555
C73_4 C69_4 1_555 1_555
H59_4 C73_4 1_555 1_555
C74_4 C69_4 1_555 1_555
H60_4 C74_4 1_555 1_555
C76_4 C72_4 1_555 1_555
H62_4 C76_4 1_555 1_555
C77_4 C66_4 1_555 1_555
C78_4 C77_4 1_555 1_555
H63_4 C78_4 1_555 1_555
C80_4 C73_4 1_555 1_555
H65_4 C80_4 1_555 1_555
C82_4 C76_4 1_555 1_555
H66_4 C82_4 1_555 1_555
C84_4 C72_4 1_555 1_555
H68_4 C84_4 1_555 1_555
C85_4 C67_4 1_555 1_555
H69_4 C85_4 1_555 1_555
O28_2 C64_4 1_555 1_555
O15_4 C66_4 1_555 1_555
C74_4 C85_4 1_555 1_555
C77_4 C82_4 1_555 1_555
C78_4 C84_4 1_555 1_555

#END
