
###############################################################################
#
# This file contains modified crystal structure data generated from the
# MOF subset of the Cambridge Structural Database (CSD) v543 
# hosted by the Cambridge Crystallographic Data Centre (CCDC).
#
# This work is licensed under the Creative Commons
# Attribution-NonCommercial-ShareAlike 4.0 International License.
# To view a copy of this license, visit
# http://creativecommons.org/licenses/by-nc-sa/4.0/
# or send a letter to
# Creative Commons, PO Box 1866, Mountain View, CA 94042, USA.
#
# CIF created using the CSD Python API on 29 September 2022
# The structure has been converted into the P1 space group
# The structure has a 3D framework
# The original CSD entry KOMLUW is in the monoclinic crystal system
# The framework has been calculated to contain at least 10.0% void space
# The void calculation uses a probe of radius 1.32A, grid spacing 0.4
# H atom positions have been added when not included in the experimental data
#
###############################################################################

data_KOMLUW
_chemical_formula_moiety         '(C352 H288 Co10 N32 O80)n'
_symmetry_cell_setting           triclinic
_symmetry_space_group_name_H-M   'P 1'
_symmetry_Int_Tables_number      1
_space_group_name_Hall           'P 1'
loop_
_symmetry_equiv_pos_site_id
_symmetry_equiv_pos_as_xyz
1 x,y,z
_cell_length_a                   31.420(4)
_cell_length_b                   15.609(2)
_cell_length_c                   23.220(5)
_cell_angle_alpha                90
_cell_angle_beta                 126.522(3)
_cell_angle_gamma                90
_cell_volume                     9151.64
loop_
_atom_site_label
_atom_site_type_symbol
_atom_site_fract_x
_atom_site_fract_y
_atom_site_fract_z
Co11 Co 0.00838(4) 0.49302(6) 0.44612(5)
O24 O 0.5618(2) 0.0963(3) 0.0160(2)
Co1 Co 0.50838(4) 0.00698(6) 0.94612(5)
H18 H 0.606430 0.047687 0.960470
H22 H 0.662562 0.001113 0.937570
O16 O 0.9463(2) 0.4201(3) 0.4585(3)
O18 O 0.9557(2) 0.4039(3) 0.3727(3)
O19 O 0.7703(2) 0.1399(4) 0.2752(3)
C65 C 0.9343(3) 0.3853(4) 0.4029(4)
C67 C 0.8690(3) 0.2886(5) 0.3015(4)
H53 H 0.880034 0.309736 0.274887
C69 C 0.8017(3) 0.0358(5) 0.3702(4)
H54 H 0.836907 0.049221 0.390929
C70 C 0.8129(3) 0.1968(5) 0.3110(4)
C73 C 0.7093(3) 0.0552(5) 0.2756(5)
H56 H 0.682504 0.083124 0.233980
C74 C 0.8748(3) 0.2856(5) 0.4090(5)
H57 H 0.890273 0.304867 0.455438
C77 C 0.8919(3) 0.3180(4) 0.3696(4)
C78 C 0.8347(3) 0.2247(5) 0.3789(4)
H59 H 0.823035 0.203309 0.404644
C82 C 0.7619(3) 0.0784(5) 0.3098(4)
C87 C 0.8296(3) 0.2273(5) 0.2726(4)
H67 H 0.814364 0.206775 0.226537
Co7 Co 0.99162(4) 0.50698(6) 0.55388(5)
O26 O 0.4463(2) 0.0799(3) 0.9585(3)
O29 O 0.4557(2) 0.0961(3) 0.8727(3)
C44 C 0.7269(8) 0.8072(19) 0.0155(8)
N5 N 0.9474(2) 0.5418(4) 0.0859(3)
C45 C 0.8756(4) 0.6174(7) 0.1047(5)
C46 C 0.9015(4) 0.5038(6) 0.0642(5)
H35 H 0.893570 0.452313 0.039530
N6 N 0.7971(3) 0.7079(5) 0.0537(5)
C47 C 0.8662(4) 0.5319(9) 0.0742(6)
H36 H 0.837438 0.498887 0.062430
C48 C 0.9204(5) 0.6561(7) 0.1245(7)
H37 H 0.928950 0.709492 0.146477
C49 C 0.7592(5) 0.7417(10) 0.0648(6)
H38 H 0.778382 0.764246 0.113125
H39 H 0.736856 0.695376 0.060296
C50 C 0.9543(5) 0.6175(6) 0.1125(7)
H40 H 0.983929 0.648169 0.124425
C51 C 0.8341(5) 0.6543(11) 0.1111(6)
H41 H 0.851701 0.686778 0.155271
H42 H 0.815240 0.607529 0.114175
Co8 Co 0.49162(4) 0.99302(6) 0.05388(5)
Co9 Co 0.99162(4) 0.49302(6) 0.05388(5)
O28 O 0.5537(2) 0.9201(3) 0.0415(3)
H71 H 0.696202 0.821187 0.0223508
H72 H 0.751805 0.863489 0.0296997
Co2 Co 0.30774(4) 0.23095(6) 0.55541(5)
O1 O 0.20824(19) 0.3486(3) 0.5238(2)
O2 O 0.4382(2) 0.9037(3) 0.9840(2)
O3 O 0.4573(2) 0.9100(3) 0.9060(3)
O4 O 0.29592(19) 0.3310(3) 0.5979(3)
O5 O 0.3239(2) 0.1381(4) 0.6284(3)
O7 O 0.2389(2) 0.1624(3) 0.5490(3)
O10 O 0.2736(2) 0.6355(4) 0.7565(3)
N1 N 0.5526(2) 0.9582(4) 0.9141(3)
N2 N 0.3790(2) 0.2779(4) 0.5827(3)
C1 C 0.2535(3) 0.3684(4) 0.5780(4)
C2 C 0.3923(3) 0.8105(4) 0.8852(4)
C3 C 0.4323(3) 0.8802(4) 0.9282(4)
C4 C 0.2590(3) 0.4399(4) 0.6238(4)
C6 C 0.2727(3) 0.5714(5) 0.7137(4)
C8 C 0.2634(3) 0.0512(4) 0.6330(4)
C11 C 0.2215(3) 0.5458(5) 0.6572(4)
H3 H 0.191961 0.572629 0.649026
C12 C 0.2750(3) 0.1204(5) 0.6013(4)
C15 C 0.3095(3) 0.4662(5) 0.6819(4)
H6 H 0.339144 0.438114 0.691373
C16 C 0.3156(3) 0.6888(5) 0.7998(4)
C19 C 0.2106(3) 0.0271(5) 0.5999(5)
H8 H 0.183589 0.053629 0.557528
C20 C 0.4186(4) 0.2291(5) 0.5967(7)
H9 H 0.417163 0.170612 0.602918
C21 C 0.2161(3) 0.4779(5) 0.6130(4)
H10 H 0.182358 0.458966 0.575922
C22 C 0.3028(3) 0.0116(5) 0.6952(5)
H11 H 0.337818 0.028721 0.718446
C24 C 0.3588(3) 0.7819(5) 0.9000(4)
H12 H 0.362650 0.802725 0.940387
C25 C 0.3186(3) 0.7217(5) 0.8562(5)
H13 H 0.294938 0.705052 0.865665
C26 C 0.3881(3) 0.7776(5) 0.8262(4)
H14 H 0.410907 0.796331 0.815752
N3 N 0.4998(3) 0.4527(7) 0.5512(5)
C27 C 0.3823(3) 0.3608(6) 0.5731(6)
H15 H 0.354983 0.397047 0.562309
C28 C 0.6244(4) 0.8826(7) 0.8953(5)
C29 C 0.3490(4) 0.7158(5) 0.7823(4)
H16 H 0.345618 0.693372 0.742641
C30 C 0.4656(3) 0.3424(7) 0.5924(6)
C32 C 0.5985(4) 0.9962(6) 0.9358(5)
C33 C 0.3162(3) 0.5334(5) 0.7259(5)
H19 H 0.349947 0.551946 0.763079
N4 N 0.7029(3) 0.7921(5) 0.9463(5)
C34 C 0.5469(5) 0.4920(10) 0.5675(7)
H20 H 0.565385 0.452323 0.557351
H21 H 0.570230 0.506384 0.618094
C35 C 0.6338(4) 0.9681(9) 0.9258(6)
C36 C 0.4621(4) 0.2610(8) 0.6026(7)
H23 H 0.489300 0.224032 0.613907
C37 C 0.5796(5) 0.8439(7) 0.8755(7)
H24 H 0.571050 0.790508 0.853523
C38 C 0.7408(5) 0.7583(10) 0.9352(6)
H25 H 0.721618 0.735754 0.886875
H26 H 0.763144 0.804624 0.939704
C39 C 0.5457(5) 0.8825(6) 0.8875(7)
H27 H 0.516071 0.851831 0.875575
C40 C 0.6659(5) 0.8457(11) 0.8889(6)
H28 H 0.648299 0.813222 0.844729
H29 H 0.684760 0.892471 0.885825
C41 C 0.5126(4) 0.3753(9) 0.5973(8)
H30 H 0.525709 0.330197 0.582921
H31 H 0.540550 0.389710 0.646808
C42 C 0.4256(4) 0.3950(8) 0.5787(7)
H32 H 0.427410 0.453560 0.573171
C43 C 0.4671(4) 0.4275(8) 0.4769(7)
H33 H 0.435156 0.399514 0.464861
H34 H 0.486127 0.387801 0.467651
C52 C 0.7731(8) 0.6928(19) 0.9845(8)
N7 N 0.6210(2) 0.7221(4) 0.4173(3)
C53 C 0.5814(4) 0.7709(5) 0.4033(7)
H43 H 0.582837 0.829388 0.397082
N8 N 0.5002(3) 0.5473(7) 0.4488(5)
C54 C 0.6177(3) 0.6392(6) 0.4269(6)
H44 H 0.645017 0.602953 0.437691
C55 C 0.5344(3) 0.6576(7) 0.4076(6)
C56 C 0.4531(5) 0.5080(10) 0.4325(7)
H45 H 0.434615 0.547677 0.442649
H46 H 0.429770 0.493616 0.381906
C57 C 0.5379(4) 0.7390(8) 0.3974(7)
H47 H 0.510700 0.775968 0.386093
C58 C 0.4874(4) 0.6247(9) 0.4027(8)
H48 H 0.474291 0.669803 0.417079
H49 H 0.459450 0.610290 0.353192
C59 C 0.5744(4) 0.6050(8) 0.4213(7)
H50 H 0.572590 0.546440 0.426829
C60 C 0.5329(4) 0.5725(8) 0.5231(7)
H51 H 0.564844 0.600486 0.535139
H52 H 0.513873 0.612199 0.532349
Co4 Co 0.69226(4) 0.76905(6) 0.44459(5)
O11 O 0.79176(19) 0.6514(3) 0.4762(2)
O13 O 0.5427(2) 0.0900(3) 0.0940(3)
O14 O 0.70408(19) 0.6690(3) 0.4021(3)
O15 O 0.6761(2) 0.8619(4) 0.3716(3)
O17 O 0.7611(2) 0.8376(3) 0.4510(3)
O20 O 0.7264(2) 0.3645(4) 0.2435(3)
C61 C 0.7465(3) 0.6316(4) 0.4220(4)
C62 C 0.6077(3) 0.1895(4) 0.1148(4)
C63 C 0.5677(3) 0.1198(4) 0.0718(4)
C64 C 0.7410(3) 0.5601(4) 0.3762(4)
C66 C 0.7273(3) 0.4286(5) 0.2863(4)
C68 C 0.7366(3) 0.9488(4) 0.3670(4)
C71 C 0.7785(3) 0.4542(5) 0.3428(4)
H55 H 0.808039 0.427371 0.350974
C72 C 0.7250(3) 0.8796(5) 0.3987(4)
C75 C 0.6905(3) 0.5338(5) 0.3181(4)
H58 H 0.660856 0.561886 0.308627
C76 C 0.6844(3) 0.3112(5) 0.2002(4)
C79 C 0.7894(3) 0.9729(5) 0.4001(5)
H60 H 0.816411 0.946371 0.442472
C80 C 0.7839(3) 0.5221(5) 0.3870(4)
H61 H 0.817642 0.541034 0.424078
C81 C 0.6972(3) 0.9884(5) 0.3048(5)
H62 H 0.662182 0.971279 0.281554
C83 C 0.6412(3) 0.2181(5) 0.1000(4)
H63 H 0.637350 0.197275 0.059613
C84 C 0.6814(3) 0.2783(5) 0.1438(5)
H64 H 0.705062 0.294948 0.134335
C85 C 0.6119(3) 0.2224(5) 0.1738(4)
H65 H 0.589093 0.203669 0.184248
C86 C 0.6510(4) 0.2842(5) 0.2177(4)
H66 H 0.654382 0.306628 0.257359
C88 C 0.6838(3) 0.4666(5) 0.2741(5)
H68 H 0.650053 0.448054 0.236921
Co12 Co 0.80774(4) 0.73095(6) 0.55541(5)
Co13 Co 0.19226(4) 0.26905(6) 0.44459(5)
O21 O 0.70824(19) 0.8486(3) 0.5238(2)
O22 O 0.29176(19) 0.1514(3) 0.4762(2)
N9 N 0.4474(2) 0.0418(4) 0.0859(3)
H69 H 0.803798 0.678813 0.977649
H70 H 0.748195 0.636511 0.9703
O6 O 0.0537(2) 0.5799(3) 0.5415(3)
O8 O 0.0443(2) 0.5961(3) 0.6273(3)
O9 O 0.2297(2) 0.8601(4) 0.7248(3)
C5 C 0.0657(3) 0.6147(4) 0.5971(4)
C7 C 0.1310(3) 0.7114(5) 0.6985(4)
H1 H 0.119966 0.690264 0.725113
C9 C 0.1983(3) 0.9642(5) 0.6298(4)
H2 H 0.163093 0.950779 0.609071
C10 C 0.1871(3) 0.8032(5) 0.6890(4)
C13 C 0.2907(3) 0.9448(5) 0.7244(5)
H4 H 0.317496 0.916876 0.766020
C14 C 0.1252(3) 0.7144(5) 0.5910(5)
H5 H 0.109727 0.695133 0.544562
C17 C 0.1081(3) 0.6820(4) 0.6304(4)
C18 C 0.1653(3) 0.7753(5) 0.6211(4)
H7 H 0.176965 0.796691 0.595356
C23 C 0.2381(3) 0.9216(5) 0.6902(4)
C31 C 0.1704(3) 0.7727(5) 0.7274(4)
H17 H 0.185636 0.793225 0.773463
O30 O 0.5443(2) 0.9039(3) 0.1273(3)
Co6 Co 0.00838(4) 0.50698(6) 0.94612(5)
O16_2 O 0.0537(2) 0.4201(3) 0.0415(3)
O18_2 O 0.0443(2) 0.4039(3) 0.1273(3)
O19_2 O 0.2297(2) 0.1399(4) 0.2248(3)
C65_2 C 0.0657(3) 0.3853(4) 0.0971(4)
C67_2 C 0.1310(3) 0.2886(5) 0.1985(4)
H53_2 H 0.119966 0.309736 0.225113
C69_2 C 0.1983(3) 0.0358(5) 0.1298(4)
H54_2 H 0.163093 0.049221 0.109071
C70_2 C 0.1871(3) 0.1968(5) 0.1890(4)
C73_2 C 0.2907(3) 0.0552(5) 0.2244(5)
H56_2 H 0.317496 0.083124 0.266020
C74_2 C 0.1252(3) 0.2856(5) 0.0910(5)
H57_2 H 0.109727 0.304867 0.044562
C77_2 C 0.1081(3) 0.3180(4) 0.1304(4)
C78_2 C 0.1653(3) 0.2247(5) 0.1211(4)
H59_2 H 0.176965 0.203309 0.095356
C82_2 C 0.2381(3) 0.0784(5) 0.1902(4)
C87_2 C 0.1704(3) 0.2273(5) 0.2274(4)
H67_2 H 0.185636 0.206775 0.273463
Co1_2 Co 0.49162(4) 0.00698(6) 0.55388(5)
H18_2 H 0.393570 0.047687 0.539530
H22_2 H 0.337438 0.001113 0.562430
O24_2 O 0.4382(2) 0.0963(3) 0.4840(2)
O26_2 O 0.5537(2) 0.0799(3) 0.5415(3)
O29_2 O 0.5443(2) 0.0961(3) 0.6273(3)
C43_2 C 0.5329(4) 0.4275(8) 0.0231(7)
H33_2 H 0.564844 0.399514 0.035139
H34_2 H 0.513873 0.387801 0.032349
N7_2 N 0.3790(2) 0.7221(4) 0.0827(3)
C53_2 C 0.4186(4) 0.7709(5) 0.0967(7)
H43_2 H 0.417163 0.829388 0.102918
N8_2 N 0.4998(3) 0.5473(7) 0.0512(5)
C54_2 C 0.3823(3) 0.6392(6) 0.0731(6)
H44_2 H 0.354983 0.602953 0.062309
C55_2 C 0.4656(3) 0.6576(7) 0.0924(6)
C56_2 C 0.5469(5) 0.5080(10) 0.0675(7)
H45_2 H 0.565385 0.547677 0.057351
H46_2 H 0.570230 0.493616 0.118094
C57_2 C 0.4621(4) 0.7390(8) 0.1026(7)
H47_2 H 0.489300 0.775968 0.113907
C58_2 C 0.5126(4) 0.6247(9) 0.0973(8)
H48_2 H 0.525709 0.669803 0.082921
H49_2 H 0.540550 0.610290 0.146808
C59_2 C 0.4256(4) 0.6050(8) 0.0787(7)
H50_2 H 0.427410 0.546440 0.073171
Co4_2 Co 0.30774(4) 0.76905(6) 0.05541(5)
O11_2 O 0.20824(19) 0.6514(3) 0.0238(2)
O13_2 O 0.4573(2) 0.0900(3) 0.4060(3)
O14_2 O 0.29592(19) 0.6690(3) 0.0979(3)
O15_2 O 0.3239(2) 0.8619(4) 0.1284(3)
O17_2 O 0.2389(2) 0.8376(3) 0.0490(3)
O20_2 O 0.2736(2) 0.3645(4) 0.2565(3)
C61_2 C 0.2535(3) 0.6316(4) 0.0780(4)
C62_2 C 0.3923(3) 0.1895(4) 0.3852(4)
C63_2 C 0.4323(3) 0.1198(4) 0.4282(4)
C64_2 C 0.2590(3) 0.5601(4) 0.1238(4)
C66_2 C 0.2727(3) 0.4286(5) 0.2137(4)
C68_2 C 0.2634(3) 0.9488(4) 0.1330(4)
C71_2 C 0.2215(3) 0.4542(5) 0.1572(4)
H55_2 H 0.191961 0.427371 0.149026
C72_2 C 0.2750(3) 0.8796(5) 0.1013(4)
C75_2 C 0.3095(3) 0.5338(5) 0.1819(4)
H58_2 H 0.339144 0.561886 0.191373
C76_2 C 0.3156(3) 0.3112(5) 0.2998(4)
C79_2 C 0.2106(3) 0.9729(5) 0.0999(5)
H60_2 H 0.183589 0.946371 0.057528
C80_2 C 0.2161(3) 0.5221(5) 0.1130(4)
H61_2 H 0.182358 0.541034 0.075922
C81_2 C 0.3028(3) 0.9884(5) 0.1952(5)
H62_2 H 0.337818 0.971279 0.218446
C83_2 C 0.3588(3) 0.2181(5) 0.4000(4)
H63_2 H 0.362650 0.197275 0.440387
C84_2 C 0.3186(3) 0.2783(5) 0.3562(5)
H64_2 H 0.294938 0.294948 0.365665
C85_2 C 0.3881(3) 0.2224(5) 0.3262(4)
H65_2 H 0.410907 0.203669 0.315752
C86_2 C 0.3490(4) 0.2842(5) 0.2823(4)
H66_2 H 0.345618 0.306628 0.242641
C88_2 C 0.3162(3) 0.4666(5) 0.2259(5)
H68_2 H 0.349947 0.448054 0.263079
Co13_2 Co 0.80774(4) 0.26905(6) 0.05541(5)
O22_2 O 0.70824(19) 0.1514(3) 0.0238(2)
N9_2 N 0.5526(2) 0.0418(4) 0.4141(3)
Co2_2 Co 0.69226(4) 0.23095(6) 0.94459(5)
O1_2 O 0.79176(19) 0.3486(3) 0.9762(2)
O2_2 O 0.5618(2) 0.9037(3) 0.5160(2)
O3_2 O 0.5427(2) 0.9100(3) 0.5940(3)
O4_2 O 0.70408(19) 0.3310(3) 0.9021(3)
O5_2 O 0.6761(2) 0.1381(4) 0.8716(3)
O7_2 O 0.7611(2) 0.1624(3) 0.9510(3)
O10_2 O 0.7264(2) 0.6355(4) 0.7435(3)
N1_2 N 0.4474(2) 0.9582(4) 0.5859(3)
N2_2 N 0.6210(2) 0.2779(4) 0.9173(3)
C1_2 C 0.7465(3) 0.3684(4) 0.9220(4)
C2_2 C 0.6077(3) 0.8105(4) 0.6148(4)
C3_2 C 0.5677(3) 0.8802(4) 0.5718(4)
C4_2 C 0.7410(3) 0.4399(4) 0.8762(4)
C6_2 C 0.7273(3) 0.5714(5) 0.7863(4)
C8_2 C 0.7366(3) 0.0512(4) 0.8670(4)
C11_2 C 0.7785(3) 0.5458(5) 0.8428(4)
H3_2 H 0.808039 0.572629 0.850974
C12_2 C 0.7250(3) 0.1204(5) 0.8987(4)
C15_2 C 0.6905(3) 0.4662(5) 0.8181(4)
H6_2 H 0.660856 0.438114 0.808627
C16_2 C 0.6844(3) 0.6888(5) 0.7002(4)
C19_2 C 0.7894(3) 0.0271(5) 0.9001(5)
H8_2 H 0.816411 0.053629 0.942472
C20_2 C 0.5814(4) 0.2291(5) 0.9033(7)
H9_2 H 0.582837 0.170612 0.897082
C21_2 C 0.7839(3) 0.4779(5) 0.8870(4)
H10_2 H 0.817642 0.458966 0.924078
C22_2 C 0.6972(3) 0.0116(5) 0.8048(5)
H11_2 H 0.662182 0.028721 0.781554
C24_2 C 0.6412(3) 0.7819(5) 0.6000(4)
H12_2 H 0.637350 0.802725 0.559613
C25_2 C 0.6814(3) 0.7217(5) 0.6438(5)
H13_2 H 0.705062 0.705052 0.634335
C26_2 C 0.6119(3) 0.7776(5) 0.6738(4)
H14_2 H 0.589093 0.796331 0.684248
N3_2 N 0.5002(3) 0.4527(7) 0.9488(5)
C27_2 C 0.6177(3) 0.3608(6) 0.9269(6)
H15_2 H 0.645017 0.397047 0.937691
C28_2 C 0.3756(4) 0.8826(7) 0.6047(5)
C29_2 C 0.6510(4) 0.7158(5) 0.7177(4)
H16_2 H 0.654382 0.693372 0.757359
C30_2 C 0.5344(3) 0.3424(7) 0.9076(6)
C32_2 C 0.4015(4) 0.9962(6) 0.5642(5)
C33_2 C 0.6838(3) 0.5334(5) 0.7741(5)
H19_2 H 0.650053 0.551946 0.736921
N4_2 N 0.2971(3) 0.7921(5) 0.5537(5)
C34_2 C 0.4531(5) 0.4920(10) 0.9325(7)
H20_2 H 0.434615 0.452323 0.942649
H21_2 H 0.429770 0.506384 0.881906
C35_2 C 0.3662(4) 0.9681(9) 0.5742(6)
C36_2 C 0.5379(4) 0.2610(8) 0.8974(7)
H23_2 H 0.510700 0.224032 0.886093
C37_2 C 0.4204(5) 0.8439(7) 0.6245(7)
H24_2 H 0.428950 0.790508 0.646477
C38_2 C 0.2592(5) 0.7583(10) 0.5648(6)
H25_2 H 0.278382 0.735754 0.613125
H26_2 H 0.236856 0.804624 0.560296
C39_2 C 0.4543(5) 0.8825(6) 0.6125(7)
H27_2 H 0.483929 0.851831 0.624425
C40_2 C 0.3341(5) 0.8457(11) 0.6111(6)
H28_2 H 0.351701 0.813222 0.655271
H29_2 H 0.315240 0.892471 0.614175
C41_2 C 0.4874(4) 0.3753(9) 0.9027(8)
H30_2 H 0.474291 0.330197 0.917079
H31_2 H 0.459450 0.389710 0.853192
C42_2 C 0.5744(4) 0.3950(8) 0.9213(7)
H32_2 H 0.572590 0.453560 0.926829
C44_2 C 0.2731(8) 0.8072(19) 0.4845(8)
N5_2 N 0.0526(2) 0.5418(4) 0.4141(3)
C45_2 C 0.1244(4) 0.6174(7) 0.3953(5)
C46_2 C 0.0985(4) 0.5038(6) 0.4358(5)
H35_2 H 0.106430 0.452313 0.460470
N6_2 N 0.2029(3) 0.7079(5) 0.4463(5)
C47_2 C 0.1338(4) 0.5319(9) 0.4258(6)
H36_2 H 0.162562 0.498887 0.437570
C48_2 C 0.0796(5) 0.6561(7) 0.3755(7)
H37_2 H 0.071050 0.709492 0.353523
C49_2 C 0.2408(5) 0.7417(10) 0.4352(6)
H38_2 H 0.221618 0.764246 0.386875
H39_2 H 0.263144 0.695376 0.439704
C50_2 C 0.0457(5) 0.6175(6) 0.3875(7)
H40_2 H 0.016071 0.648169 0.375575
C51_2 C 0.1659(5) 0.6543(11) 0.3889(6)
H41_2 H 0.148299 0.686778 0.344729
H42_2 H 0.184760 0.607529 0.385825
C52_2 C 0.2269(8) 0.6928(19) 0.5155(8)
C60_2 C 0.4671(4) 0.5725(8) 0.9769(7)
H51_2 H 0.435156 0.600486 0.964861
H52_2 H 0.486127 0.612199 0.967651
Co8_2 Co 0.50838(4) 0.99302(6) 0.44612(5)
Co12_2 Co 0.19226(4) 0.73095(6) 0.94459(5)
O21_2 O 0.29176(19) 0.8486(3) 0.9762(2)
O28_2 O 0.4463(2) 0.9201(3) 0.4585(3)
H69_2 H 0.196202 0.678813 0.522351
H70_2 H 0.251805 0.636511 0.5297
H71_2 H 0.303798 0.821187 0.477649
H72_2 H 0.248195 0.863489 0.4703
O30_2 O 0.4557(2) 0.9039(3) 0.3727(3)
O6_2 O 0.9463(2) 0.5799(3) 0.9585(3)
O8_2 O 0.9557(2) 0.5961(3) 0.8727(3)
O9_2 O 0.7703(2) 0.8601(4) 0.7752(3)
C5_2 C 0.9343(3) 0.6147(4) 0.9029(4)
C7_2 C 0.8690(3) 0.7114(5) 0.8015(4)
H1_2 H 0.880034 0.690264 0.774887
C9_2 C 0.8017(3) 0.9642(5) 0.8702(4)
H2_2 H 0.836907 0.950779 0.890929
C10_2 C 0.8129(3) 0.8032(5) 0.8110(4)
C13_2 C 0.7093(3) 0.9448(5) 0.7756(5)
H4_2 H 0.682504 0.916876 0.733980
C14_2 C 0.8748(3) 0.7144(5) 0.9090(5)
H5_2 H 0.890273 0.695133 0.955438
C17_2 C 0.8919(3) 0.6820(4) 0.8696(4)
C18_2 C 0.8347(3) 0.7753(5) 0.8789(4)
H7_2 H 0.823035 0.796691 0.904644
C23_2 C 0.7619(3) 0.9216(5) 0.8098(4)
C31_2 C 0.8296(3) 0.7727(5) 0.7726(4)
H17_2 H 0.814364 0.793225 0.726537
C44_3 C 0.2269(8) 0.3072(19) 0.0155(8)
C45_3 C 0.3756(4) 0.1174(7) 0.1047(5)
C46_3 C 0.4015(4) 0.0038(6) 0.0642(5)
N6_3 N 0.2971(3) 0.2079(5) 0.0537(5)
C47_3 C 0.3662(4) 0.0319(9) 0.0742(6)
C48_3 C 0.4204(5) 0.1561(7) 0.1245(7)
H37_3 H 0.428950 0.209492 0.146477
C49_3 C 0.2592(5) 0.2417(10) 0.0648(6)
H38_3 H 0.278382 0.264246 0.113125
H39_3 H 0.236856 0.195376 0.060296
C50_3 C 0.4543(5) 0.1175(6) 0.1125(7)
H40_3 H 0.483929 0.148169 0.124425
C51_3 C 0.3341(5) 0.1543(11) 0.1111(6)
H41_3 H 0.351701 0.186778 0.155271
H42_3 H 0.315240 0.107529 0.114175
O24_3 O 0.0618(2) 0.5963(3) 0.0160(2)
H71_3 H 0.196202 0.321187 0.0223508
H72_3 H 0.251805 0.363489 0.0296997
N1_3 N 0.0526(2) 0.4582(4) 0.9141(3)
C28_3 C 0.1244(4) 0.3826(7) 0.8953(5)
C32_3 C 0.0985(4) 0.4962(6) 0.9358(5)
H18_3 H 0.106430 0.547687 0.960470
N4_3 N 0.2029(3) 0.2921(5) 0.9463(5)
H21_3 H 0.070230 0.006384 0.618094
C35_3 C 0.1338(4) 0.4681(9) 0.9258(6)
H22_3 H 0.162562 0.501113 0.937570
C37_3 C 0.0796(5) 0.3439(7) 0.8755(7)
H24_3 H 0.071050 0.290508 0.853523
C38_3 C 0.2408(5) 0.2583(10) 0.9352(6)
H25_3 H 0.221618 0.235754 0.886875
H26_3 H 0.263144 0.304624 0.939704
C39_3 C 0.0457(5) 0.3825(6) 0.8875(7)
H27_3 H 0.016071 0.351831 0.875575
C40_3 C 0.1659(5) 0.3457(11) 0.8889(6)
H28_3 H 0.148299 0.313222 0.844729
H29_3 H 0.184760 0.392471 0.885825
C52_3 C 0.2731(8) 0.1928(19) 0.9845(8)
N7_3 N 0.1210(2) 0.2221(4) 0.4173(3)
C53_3 C 0.0814(4) 0.2709(5) 0.4033(7)
H43_3 H 0.082837 0.329388 0.397082
N8_3 N 0.0002(3) 0.0473(7) 0.4488(5)
C54_3 C 0.1177(3) 0.1392(6) 0.4269(6)
H44_3 H 0.145017 0.102953 0.437691
C55_3 C 0.0344(3) 0.1576(7) 0.4076(6)
C57_3 C 0.0379(4) 0.2390(8) 0.3974(7)
H47_3 H 0.010700 0.275968 0.386093
C59_3 C 0.0744(4) 0.1050(8) 0.4213(7)
H50_3 H 0.072590 0.046440 0.426829
C60_3 C 0.0329(4) 0.0725(8) 0.5231(7)
H51_3 H 0.064844 0.100486 0.535139
H52_3 H 0.013873 0.112199 0.532349
O14_3 O 0.20408(19) 0.1690(3) 0.4021(3)
O15_3 O 0.1761(2) 0.3619(4) 0.3716(3)
O17_3 O 0.2611(2) 0.3376(3) 0.4510(3)
O19_3 O 0.2703(2) 0.6399(4) 0.2752(3)
C61_3 C 0.2465(3) 0.1316(4) 0.4220(4)
C64_3 C 0.2410(3) 0.0601(4) 0.3762(4)
C65_3 C 0.4343(3) 0.8853(4) 0.4029(4)
C67_3 C 0.3690(3) 0.7886(5) 0.3015(4)
H53_3 H 0.380034 0.809736 0.274887
C68_3 C 0.2366(3) 0.4488(4) 0.3670(4)
C69_3 C 0.3017(3) 0.5358(5) 0.3702(4)
H54_3 H 0.336907 0.549221 0.390929
C70_3 C 0.3129(3) 0.6968(5) 0.3110(4)
C72_3 C 0.2250(3) 0.3796(5) 0.3987(4)
C73_3 C 0.2093(3) 0.5552(5) 0.2756(5)
H56_3 H 0.182504 0.583124 0.233980
C74_3 C 0.3748(3) 0.7856(5) 0.4090(5)
H57_3 H 0.390273 0.804867 0.455438
C75_3 C 0.1905(3) 0.0338(5) 0.3181(4)
H58_3 H 0.160856 0.061886 0.308627
C77_3 C 0.3919(3) 0.8180(4) 0.3696(4)
C78_3 C 0.3347(3) 0.7247(5) 0.3789(4)
H59_3 H 0.323035 0.703309 0.404644
C79_3 C 0.2894(3) 0.4729(5) 0.4001(5)
H60_3 H 0.316411 0.446371 0.442472
C80_3 C 0.2839(3) 0.0221(5) 0.3870(4)
H61_3 H 0.317642 0.041034 0.424078
C81_3 C 0.1972(3) 0.4884(5) 0.3048(5)
H62_3 H 0.162182 0.471279 0.281554
C82_3 C 0.2619(3) 0.5784(5) 0.3098(4)
C87_3 C 0.3296(3) 0.7273(5) 0.2726(4)
H67_3 H 0.314364 0.706775 0.226537
H69_3 H 0.303798 0.178813 0.977649
H70_3 H 0.248195 0.136511 0.9703
H35_3 H 0.393570 0.952313 0.039530
H36_3 H 0.337438 0.998887 0.062430
C34_3 C 0.0469(5) 0.9920(10) 0.5675(7)
H20_3 H 0.065385 0.952323 0.557351
C41_3 C 0.0126(4) 0.8753(9) 0.5973(8)
H30_3 H 0.025709 0.830197 0.582921
H31_3 H 0.040550 0.889710 0.646808
O13_3 O 0.0427(2) 0.5900(3) 0.0940(3)
O20_3 O 0.2264(2) 0.8645(4) 0.2435(3)
C62_3 C 0.1077(3) 0.6895(4) 0.1148(4)
C63_3 C 0.0677(3) 0.6198(4) 0.0718(4)
C66_3 C 0.2273(3) 0.9286(5) 0.2863(4)
C71_3 C 0.2785(3) 0.9542(5) 0.3428(4)
H55_3 H 0.308039 0.927371 0.350974
C76_3 C 0.1844(3) 0.8112(5) 0.2002(4)
C83_3 C 0.1412(3) 0.7181(5) 0.1000(4)
H63_3 H 0.137350 0.697275 0.059613
C84_3 C 0.1814(3) 0.7783(5) 0.1438(5)
H64_3 H 0.205062 0.794948 0.134335
C85_3 C 0.1119(3) 0.7224(5) 0.1738(4)
H65_3 H 0.089093 0.703669 0.184248
C86_3 C 0.1510(4) 0.7842(5) 0.2177(4)
H66_3 H 0.154382 0.806628 0.257359
C88_3 C 0.1838(3) 0.9666(5) 0.2741(5)
H68_3 H 0.150053 0.948054 0.236921
O2_3 O 0.9382(2) 0.4037(3) 0.9840(2)
O3_3 O 0.9573(2) 0.4100(3) 0.9060(3)
O10_3 O 0.7736(2) 0.1355(4) 0.7565(3)
C2_3 C 0.8923(3) 0.3105(4) 0.8852(4)
C3_3 C 0.9323(3) 0.3802(4) 0.9282(4)
C6_3 C 0.7727(3) 0.0714(5) 0.7137(4)
C11_3 C 0.7215(3) 0.0458(5) 0.6572(4)
H3_3 H 0.691961 0.072629 0.649026
C16_3 C 0.8156(3) 0.1888(5) 0.7998(4)
C24_3 C 0.8588(3) 0.2819(5) 0.9000(4)
H12_3 H 0.862650 0.302725 0.940387
C25_3 C 0.8186(3) 0.2217(5) 0.8562(5)
H13_3 H 0.794938 0.205052 0.865665
C26_3 C 0.8881(3) 0.2776(5) 0.8262(4)
H14_3 H 0.910907 0.296331 0.815752
C29_3 C 0.8490(4) 0.2158(5) 0.7823(4)
H16_3 H 0.845618 0.193372 0.742641
C33_3 C 0.8162(3) 0.0334(5) 0.7259(5)
H19_3 H 0.849947 0.051946 0.763079
C56_3 C 0.9531(5) 0.0080(10) 0.4325(7)
H45_3 H 0.934615 0.047677 0.442649
C58_3 C 0.9874(4) 0.1247(9) 0.4027(8)
H48_3 H 0.974291 0.169803 0.417079
H49_3 H 0.959450 0.110290 0.353192
O4_3 O 0.79592(19) 0.8310(3) 0.5979(3)
O5_3 O 0.8239(2) 0.6381(4) 0.6284(3)
O7_3 O 0.7389(2) 0.6624(3) 0.5490(3)
O9_3 O 0.7297(2) 0.3601(4) 0.7248(3)
N2_3 N 0.8790(2) 0.7779(4) 0.5827(3)
C1_3 C 0.7535(3) 0.8684(4) 0.5780(4)
C4_3 C 0.7590(3) 0.9399(4) 0.6238(4)
C5_3 C 0.5657(3) 0.1147(4) 0.5971(4)
C7_3 C 0.6310(3) 0.2114(5) 0.6985(4)
H1_3 H 0.619966 0.190264 0.725113
C8_3 C 0.7634(3) 0.5512(4) 0.6330(4)
C9_3 C 0.6983(3) 0.4642(5) 0.6298(4)
H2_3 H 0.663093 0.450779 0.609071
C10_3 C 0.6871(3) 0.3032(5) 0.6890(4)
C12_3 C 0.7750(3) 0.6204(5) 0.6013(4)
C13_3 C 0.7907(3) 0.4448(5) 0.7244(5)
H4_3 H 0.817496 0.416876 0.766020
C14_3 C 0.6252(3) 0.2144(5) 0.5910(5)
H5_3 H 0.609727 0.195133 0.544562
C15_3 C 0.8095(3) 0.9662(5) 0.6819(4)
H6_3 H 0.839144 0.938114 0.691373
C17_3 C 0.6081(3) 0.1820(4) 0.6304(4)
C18_3 C 0.6653(3) 0.2753(5) 0.6211(4)
H7_3 H 0.676965 0.296691 0.595356
C19_3 C 0.7106(3) 0.5271(5) 0.5999(5)
H8_3 H 0.683589 0.553629 0.557528
C20_3 C 0.9186(4) 0.7291(5) 0.5967(7)
H9_3 H 0.917163 0.670612 0.602918
C21_3 C 0.7161(3) 0.9779(5) 0.6130(4)
H10_3 H 0.682358 0.958966 0.575922
C22_3 C 0.8028(3) 0.5116(5) 0.6952(5)
H11_3 H 0.837818 0.528721 0.718446
C23_3 C 0.7381(3) 0.4216(5) 0.6902(4)
N3_3 N 0.9998(3) 0.9527(7) 0.5512(5)
C27_3 C 0.8823(3) 0.8608(6) 0.5731(6)
H15_3 H 0.854983 0.897047 0.562309
C30_3 C 0.9656(3) 0.8424(7) 0.5924(6)
C31_3 C 0.6704(3) 0.2727(5) 0.7274(4)
H17_3 H 0.685636 0.293225 0.773463
C36_3 C 0.9621(4) 0.7610(8) 0.6026(7)
H23_3 H 0.989300 0.724032 0.613907
C42_3 C 0.9256(4) 0.8950(8) 0.5787(7)
H32_3 H 0.927410 0.953560 0.573171
C43_3 C 0.9671(4) 0.9275(8) 0.4769(7)
H33_3 H 0.935156 0.899514 0.464861
H34_3 H 0.986127 0.887801 0.467651
H46_3 H 0.929770 0.993616 0.381906
C56_4 C 0.0469(5) 0.0080(10) 0.0675(7)
H45_4 H 0.065385 0.047677 0.057351
C58_4 C 0.0126(4) 0.1247(9) 0.0973(8)
H48_4 H 0.025709 0.169803 0.082921
H49_4 H 0.040550 0.110290 0.146808
O2_4 O 0.0618(2) 0.4037(3) 0.5160(2)
O3_4 O 0.0427(2) 0.4100(3) 0.5940(3)
O10_4 O 0.2264(2) 0.1355(4) 0.7435(3)
C2_4 C 0.1077(3) 0.3105(4) 0.6148(4)
C3_4 C 0.0677(3) 0.3802(4) 0.5718(4)
C6_4 C 0.2273(3) 0.0714(5) 0.7863(4)
C11_4 C 0.2785(3) 0.0458(5) 0.8428(4)
H3_4 H 0.308039 0.072629 0.850974
C16_4 C 0.1844(3) 0.1888(5) 0.7002(4)
C24_4 C 0.1412(3) 0.2819(5) 0.6000(4)
H12_4 H 0.137350 0.302725 0.559613
C25_4 C 0.1814(3) 0.2217(5) 0.6438(5)
H13_4 H 0.205062 0.205052 0.634335
C26_4 C 0.1119(3) 0.2776(5) 0.6738(4)
H14_4 H 0.089093 0.296331 0.684248
C29_4 C 0.1510(4) 0.2158(5) 0.7177(4)
H16_4 H 0.154382 0.193372 0.757359
C33_4 C 0.1838(3) 0.0334(5) 0.7741(5)
H19_4 H 0.150053 0.051946 0.736921
C43_4 C 0.0329(4) 0.9275(8) 0.0231(7)
H33_4 H 0.064844 0.899514 0.035139
H34_4 H 0.013873 0.887801 0.032349
H46_4 H 0.070230 0.993616 0.118094
O4_4 O 0.20408(19) 0.8310(3) 0.9021(3)
O5_4 O 0.1761(2) 0.6381(4) 0.8716(3)
O7_4 O 0.2611(2) 0.6624(3) 0.9510(3)
O9_4 O 0.2703(2) 0.3601(4) 0.7752(3)
N2_4 N 0.1210(2) 0.7779(4) 0.9173(3)
C1_4 C 0.2465(3) 0.8684(4) 0.9220(4)
C4_4 C 0.2410(3) 0.9399(4) 0.8762(4)
C5_4 C 0.4343(3) 0.1147(4) 0.9029(4)
C7_4 C 0.3690(3) 0.2114(5) 0.8015(4)
H1_4 H 0.380034 0.190264 0.774887
C8_4 C 0.2366(3) 0.5512(4) 0.8670(4)
C9_4 C 0.3017(3) 0.4642(5) 0.8702(4)
H2_4 H 0.336907 0.450779 0.890929
C10_4 C 0.3129(3) 0.3032(5) 0.8110(4)
C12_4 C 0.2250(3) 0.6204(5) 0.8987(4)
C13_4 C 0.2093(3) 0.4448(5) 0.7756(5)
H4_4 H 0.182504 0.416876 0.733980
C14_4 C 0.3748(3) 0.2144(5) 0.9090(5)
H5_4 H 0.390273 0.195133 0.955438
C15_4 C 0.1905(3) 0.9662(5) 0.8181(4)
H6_4 H 0.160856 0.938114 0.808627
C17_4 C 0.3919(3) 0.1820(4) 0.8696(4)
C18_4 C 0.3347(3) 0.2753(5) 0.8789(4)
H7_4 H 0.323035 0.296691 0.904644
C19_4 C 0.2894(3) 0.5271(5) 0.9001(5)
H8_4 H 0.316411 0.553629 0.942472
C20_4 C 0.0814(4) 0.7291(5) 0.9033(7)
H9_4 H 0.082837 0.670612 0.897082
C21_4 C 0.2839(3) 0.9779(5) 0.8870(4)
H10_4 H 0.317642 0.958966 0.924078
C22_4 C 0.1972(3) 0.5116(5) 0.8048(5)
H11_4 H 0.162182 0.528721 0.781554
C23_4 C 0.2619(3) 0.4216(5) 0.8098(4)
N3_4 N 0.0002(3) 0.9527(7) 0.9488(5)
C27_4 C 0.1177(3) 0.8608(6) 0.9269(6)
H15_4 H 0.145017 0.897047 0.937691
C30_4 C 0.0344(3) 0.8424(7) 0.9076(6)
C31_4 C 0.3296(3) 0.2727(5) 0.7726(4)
H17_4 H 0.314364 0.293225 0.726537
C36_4 C 0.0379(4) 0.7610(8) 0.8974(7)
H23_4 H 0.010700 0.724032 0.886093
C42_4 C 0.0744(4) 0.8950(8) 0.9213(7)
H32_4 H 0.072590 0.953560 0.926829
N7_4 N 0.8790(2) 0.2221(4) 0.0827(3)
C53_4 C 0.9186(4) 0.2709(5) 0.0967(7)
H43_4 H 0.917163 0.329388 0.102918
N8_4 N 0.9998(3) 0.0473(7) 0.0512(5)
C54_4 C 0.8823(3) 0.1392(6) 0.0731(6)
H44_4 H 0.854983 0.102953 0.062309
C55_4 C 0.9656(3) 0.1576(7) 0.0924(6)
C57_4 C 0.9621(4) 0.2390(8) 0.1026(7)
H47_4 H 0.989300 0.275968 0.113907
C59_4 C 0.9256(4) 0.1050(8) 0.0787(7)
H50_4 H 0.927410 0.046440 0.073171
O14_4 O 0.79592(19) 0.1690(3) 0.0979(3)
O15_4 O 0.8239(2) 0.3619(4) 0.1284(3)
O17_4 O 0.7389(2) 0.3376(3) 0.0490(3)
O19_4 O 0.7297(2) 0.6399(4) 0.2248(3)
C61_4 C 0.7535(3) 0.1316(4) 0.0780(4)
C64_4 C 0.7590(3) 0.0601(4) 0.1238(4)
C65_4 C 0.5657(3) 0.8853(4) 0.0971(4)
C67_4 C 0.6310(3) 0.7886(5) 0.1985(4)
H53_4 H 0.619966 0.809736 0.225113
C68_4 C 0.7634(3) 0.4488(4) 0.1330(4)
C69_4 C 0.6983(3) 0.5358(5) 0.1298(4)
H54_4 H 0.663093 0.549221 0.109071
C70_4 C 0.6871(3) 0.6968(5) 0.1890(4)
C72_4 C 0.7750(3) 0.3796(5) 0.1013(4)
C73_4 C 0.7907(3) 0.5552(5) 0.2244(5)
H56_4 H 0.817496 0.583124 0.266020
C74_4 C 0.6252(3) 0.7856(5) 0.0910(5)
H57_4 H 0.609727 0.804867 0.044562
C75_4 C 0.8095(3) 0.0338(5) 0.1819(4)
H58_4 H 0.839144 0.061886 0.191373
C77_4 C 0.6081(3) 0.8180(4) 0.1304(4)
C78_4 C 0.6653(3) 0.7247(5) 0.1211(4)
H59_4 H 0.676965 0.703309 0.095356
C79_4 C 0.7106(3) 0.4729(5) 0.0999(5)
H60_4 H 0.683589 0.446371 0.057528
C80_4 C 0.7161(3) 0.0221(5) 0.1130(4)
H61_4 H 0.682358 0.041034 0.075922
C81_4 C 0.8028(3) 0.4884(5) 0.1952(5)
H62_4 H 0.837818 0.471279 0.218446
C82_4 C 0.7381(3) 0.5784(5) 0.1902(4)
C87_4 C 0.6704(3) 0.7273(5) 0.2274(4)
H67_4 H 0.685636 0.706775 0.273463
N1_4 N 0.9474(2) 0.4582(4) 0.5859(3)
C28_4 C 0.8756(4) 0.3826(7) 0.6047(5)
C32_4 C 0.9015(4) 0.4962(6) 0.5642(5)
H18_4 H 0.893570 0.547687 0.539530
N4_4 N 0.7971(3) 0.2921(5) 0.5537(5)
H21_4 H 0.929770 0.006384 0.881906
C35_4 C 0.8662(4) 0.4681(9) 0.5742(6)
H22_4 H 0.837438 0.501113 0.562430
C37_4 C 0.9204(5) 0.3439(7) 0.6245(7)
H24_4 H 0.928950 0.290508 0.646477
C38_4 C 0.7592(5) 0.2583(10) 0.5648(6)
H25_4 H 0.778382 0.235754 0.613125
H26_4 H 0.736856 0.304624 0.560296
C39_4 C 0.9543(5) 0.3825(6) 0.6125(7)
H27_4 H 0.983929 0.351831 0.624425
C40_4 C 0.8341(5) 0.3457(11) 0.6111(6)
H28_4 H 0.851701 0.313222 0.655271
H29_4 H 0.815240 0.392471 0.614175
C44_4 C 0.7731(8) 0.3072(19) 0.4845(8)
C45_4 C 0.6244(4) 0.1174(7) 0.3953(5)
C46_4 C 0.5985(4) 0.0038(6) 0.4358(5)
N6_4 N 0.7029(3) 0.2079(5) 0.4463(5)
C47_4 C 0.6338(4) 0.0319(9) 0.4258(6)
C48_4 C 0.5796(5) 0.1561(7) 0.3755(7)
H37_4 H 0.571050 0.209492 0.353523
C49_4 C 0.7408(5) 0.2417(10) 0.4352(6)
H38_4 H 0.721618 0.264246 0.386875
H39_4 H 0.763144 0.195376 0.439704
C50_4 C 0.5457(5) 0.1175(6) 0.3875(7)
H40_4 H 0.516071 0.148169 0.375575
C51_4 C 0.6659(5) 0.1543(11) 0.3889(6)
H41_4 H 0.648299 0.186778 0.344729
H42_4 H 0.684760 0.107529 0.385825
C52_4 C 0.7269(8) 0.1928(19) 0.5155(8)
C60_4 C 0.9671(4) 0.0725(8) 0.9769(7)
H51_4 H 0.935156 0.100486 0.964861
H52_4 H 0.986127 0.112199 0.967651
O24_4 O 0.9382(2) 0.5963(3) 0.4840(2)
H69_4 H 0.696202 0.178813 0.522351
H70_4 H 0.751805 0.136511 0.5297
H71_4 H 0.803798 0.321187 0.477649
H72_4 H 0.748195 0.363489 0.4703
O13_4 O 0.9573(2) 0.5900(3) 0.4060(3)
O20_4 O 0.7736(2) 0.8645(4) 0.2565(3)
C62_4 C 0.8923(3) 0.6895(4) 0.3852(4)
C63_4 C 0.9323(3) 0.6198(4) 0.4282(4)
C66_4 C 0.7727(3) 0.9286(5) 0.2137(4)
C71_4 C 0.7215(3) 0.9542(5) 0.1572(4)
H55_4 H 0.691961 0.927371 0.149026
C76_4 C 0.8156(3) 0.8112(5) 0.2998(4)
C83_4 C 0.8588(3) 0.7181(5) 0.4000(4)
H63_4 H 0.862650 0.697275 0.440387
C84_4 C 0.8186(3) 0.7783(5) 0.3562(5)
H64_4 H 0.794938 0.794948 0.365665
C85_4 C 0.8881(3) 0.7224(5) 0.3262(4)
H65_4 H 0.910907 0.703669 0.315752
C86_4 C 0.8490(4) 0.7842(5) 0.2823(4)
H66_4 H 0.845618 0.806628 0.242641
C88_4 C 0.8162(3) 0.9666(5) 0.2259(5)
H68_4 H 0.849947 0.948054 0.263079
C34_4 C 0.9531(5) 0.9920(10) 0.9325(7)
H20_4 H 0.934615 0.952323 0.942649
C41_4 C 0.9874(4) 0.8753(9) 0.9027(8)
H30_4 H 0.974291 0.830197 0.917079
H31_4 H 0.959450 0.889710 0.853192
H35_4 H 0.606430 0.952313 0.460470
H36_4 H 0.662562 0.998887 0.437570
loop_
_geom_bond_atom_site_label_1
_geom_bond_atom_site_label_2
_geom_bond_site_symmetry_1
_geom_bond_site_symmetry_2
O16 C65 1_555 1_555
O18 C65 1_555 1_555
O19 C70 1_555 1_555
C65 C77 1_555 1_555
C67 H53 1_555 1_555
C69 H54 1_555 1_555
C70 C78 1_555 1_555
C73 H56 1_555 1_555
C74 H57 1_555 1_555
C77 C67 1_555 1_555
C78 C74 1_555 1_555
H59 C78 1_555 1_555
C82 O19 1_555 1_555
C87 C67 1_555 1_555
H67 C87 1_555 1_555
Co7 O16 1_555 1_555
O26 Co1 1_555 1_555
O29 Co1 1_555 1_555
C69 C82 1_555 1_555
C70 C87 1_555 1_555
C73 C82 1_555 1_555
C74 C77 1_555 1_555
N5 C46 1_555 1_555
C45 C47 1_555 1_555
C46 H35 1_555 1_555
N6 C49 1_555 1_555
C47 C46 1_555 1_555
H36 C47 1_555 1_555
C48 C45 1_555 1_555
H37 C48 1_555 1_555
C49 C44 1_555 1_555
H38 C49 1_555 1_555
H39 C49 1_555 1_555
C50 N5 1_555 1_555
H40 C50 1_555 1_555
C51 C45 1_555 1_555
H41 C51 1_555 1_555
H42 C51 1_555 1_555
Co9 N5 1_555 1_555
N6 C51 1_555 1_555
C48 C50 1_555 1_555
Co8 O28 1_555 1_555
C44 H71 1_555 1_555
C44 H72 1_555 1_555
Co2 O4 1_555 1_555
O1 C1 1_555 1_555
O2 C3 1_555 1_555
O3 C3 1_555 1_555
O4 C1 1_555 1_555
O5 Co2 1_555 1_555
O7 Co2 1_555 1_555
O10 C6 1_555 1_555
N2 Co2 1_555 1_555
C1 C4 1_555 1_555
C2 C3 1_555 1_555
C4 C15 1_555 1_555
C6 C11 1_555 1_555
C8 C12 1_555 1_555
C11 H3 1_555 1_555
C12 O5 1_555 1_555
C15 H6 1_555 1_555
C16 O10 1_555 1_555
C19 C8 1_555 1_555
H8 C19 1_555 1_555
C20 N2 1_555 1_555
H9 C20 1_555 1_555
C21 C4 1_555 1_555
H10 C21 1_555 1_555
C22 C8 1_555 1_555
H11 C22 1_555 1_555
C24 C2 1_555 1_555
H12 C24 1_555 1_555
C25 C16 1_555 1_555
H13 C25 1_555 1_555
C26 C2 1_555 1_555
H14 C26 1_555 1_555
N3 C34 1_555 1_555
C27 N2 1_555 1_555
H15 C27 1_555 1_555
C28 C35 1_555 1_555
C29 C16 1_555 1_555
H16 C29 1_555 1_555
C30 C36 1_555 1_555
C32 N1 1_555 1_555
C33 C6 1_555 1_555
H19 C33 1_555 1_555
N4 C38 1_555 1_555
C34 H20 1_555 1_555
H21 C34 1_555 1_555
C35 C32 1_555 1_555
C36 C20 1_555 1_555
H23 C36 1_555 1_555
C37 C28 1_555 1_555
H24 C37 1_555 1_555
C38 H25 1_555 1_555
H26 C38 1_555 1_555
C39 N1 1_555 1_555
H27 C39 1_555 1_555
C40 C28 1_555 1_555
H28 C40 1_555 1_555
H29 C40 1_555 1_555
C41 N3 1_555 1_555
H30 C41 1_555 1_555
H31 C41 1_555 1_555
C42 C27 1_555 1_555
H32 C42 1_555 1_555
C43 N3 1_555 1_555
H33 C43 1_555 1_555
H34 C43 1_555 1_555
C52 C38 1_555 1_555
N7 C53 1_555 1_555
C53 H43 1_555 1_555
N8 C56 1_555 1_555
C54 N7 1_555 1_555
H44 C54 1_555 1_555
C55 C57 1_555 1_555
C56 C43 1_555 1_555
H45 C56 1_555 1_555
H46 C56 1_555 1_555
C57 C53 1_555 1_555
H47 C57 1_555 1_555
C58 N8 1_555 1_555
H48 C58 1_555 1_555
H49 C58 1_555 1_555
C59 C54 1_555 1_555
H50 C59 1_555 1_555
C60 C34 1_555 1_555
H51 C60 1_555 1_555
H52 C60 1_555 1_555
Co4 N7 1_555 1_555
O11 C61 1_555 1_555
O24 C63 1_555 1_555
O13 C63 1_555 1_555
O14 Co4 1_555 1_555
O15 Co4 1_555 1_555
O17 Co4 1_555 1_555
O20 C66 1_555 1_555
C61 O14 1_555 1_555
C62 C63 1_555 1_555
C64 C61 1_555 1_555
C66 C71 1_555 1_555
C68 C72 1_555 1_555
C71 H55 1_555 1_555
C72 O15 1_555 1_555
C75 C64 1_555 1_555
H58 C75 1_555 1_555
C76 O20 1_555 1_555
C79 C68 1_555 1_555
H60 C79 1_555 1_555
C80 C64 1_555 1_555
H61 C80 1_555 1_555
C81 C68 1_555 1_555
H62 C81 1_555 1_555
C83 C62 1_555 1_555
H63 C83 1_555 1_555
C84 C76 1_555 1_555
H64 C84 1_555 1_555
C85 C62 1_555 1_555
H65 C85 1_555 1_555
C86 C76 1_555 1_555
H66 C86 1_555 1_555
C88 C66 1_555 1_555
H68 C88 1_555 1_555
Co12 O11 1_555 1_555
Co13 O1 1_555 1_555
O21 Co4 1_555 1_555
O22 Co2 1_555 1_555
O7 C12 1_555 1_555
C11 C21 1_555 1_555
C15 C33 1_555 1_555
C24 C25 1_555 1_555
C26 C29 1_555 1_555
C30 C41 1_555 1_555
C30 C42 1_555 1_555
N4 C40 1_555 1_555
C37 C39 1_555 1_555
N8 C60 1_555 1_555
C55 C58 1_555 1_555
C55 C59 1_555 1_555
O17 C72 1_555 1_555
C71 C80 1_555 1_555
C75 C88 1_555 1_555
C83 C84 1_555 1_555
C85 C86 1_555 1_555
C52 H69 1_555 1_555
C52 H70 1_555 1_555
O6 C5 1_555 1_555
O8 C5 1_555 1_555
O9 C10 1_555 1_555
C5 C17 1_555 1_555
C7 H1 1_555 1_555
C9 H2 1_555 1_555
C10 C18 1_555 1_555
C13 H4 1_555 1_555
C14 H5 1_555 1_555
C17 C7 1_555 1_555
C18 C14 1_555 1_555
H7 C18 1_555 1_555
C23 O9 1_555 1_555
C31 C7 1_555 1_555
H17 C31 1_555 1_555
Co11 O6 1_555 1_555
O30 Co8 1_555 1_555
C9 C23 1_555 1_555
C10 C31 1_555 1_555
C13 C23 1_555 1_555
C14 C17 1_555 1_555
O16_2 C65_2 1_555 1_555
O18_2 C65_2 1_555 1_555
O19_2 C70_2 1_555 1_555
C65_2 C77_2 1_555 1_555
C67_2 H53_2 1_555 1_555
C69_2 H54_2 1_555 1_555
C70_2 C78_2 1_555 1_555
C73_2 H56_2 1_555 1_555
C74_2 H57_2 1_555 1_555
C77_2 C67_2 1_555 1_555
C78_2 C74_2 1_555 1_555
H59_2 C78_2 1_555 1_555
C82_2 O19_2 1_555 1_555
C87_2 C67_2 1_555 1_555
H67_2 C87_2 1_555 1_555
C69_2 C82_2 1_555 1_555
C70_2 C87_2 1_555 1_555
C73_2 C82_2 1_555 1_555
C74_2 C77_2 1_555 1_555
O24_2 Co1_2 1_555 1_555
O26_2 Co1_2 1_555 1_555
O29_2 Co1_2 1_555 1_555
H33_2 C43_2 1_555 1_555
H34_2 C43_2 1_555 1_555
N7_2 C53_2 1_555 1_555
C53_2 H43_2 1_555 1_555
N8_2 C56_2 1_555 1_555
C54_2 N7_2 1_555 1_555
H44_2 C54_2 1_555 1_555
C55_2 C57_2 1_555 1_555
C56_2 C43_2 1_555 1_555
H45_2 C56_2 1_555 1_555
H46_2 C56_2 1_555 1_555
C57_2 C53_2 1_555 1_555
H47_2 C57_2 1_555 1_555
C58_2 N8_2 1_555 1_555
H48_2 C58_2 1_555 1_555
H49_2 C58_2 1_555 1_555
C59_2 C54_2 1_555 1_555
H50_2 C59_2 1_555 1_555
Co4_2 N7_2 1_555 1_555
O11_2 C61_2 1_555 1_555
O24_2 C63_2 1_555 1_555
O13_2 C63_2 1_555 1_555
O14_2 Co4_2 1_555 1_555
O15_2 Co4_2 1_555 1_555
O17_2 Co4_2 1_555 1_555
O20_2 C66_2 1_555 1_555
C61_2 O14_2 1_555 1_555
C62_2 C63_2 1_555 1_555
C64_2 C61_2 1_555 1_555
C66_2 C71_2 1_555 1_555
C68_2 C72_2 1_555 1_555
C71_2 H55_2 1_555 1_555
C72_2 O15_2 1_555 1_555
C75_2 C64_2 1_555 1_555
H58_2 C75_2 1_555 1_555
C76_2 O20_2 1_555 1_555
C79_2 C68_2 1_555 1_555
H60_2 C79_2 1_555 1_555
C80_2 C64_2 1_555 1_555
H61_2 C80_2 1_555 1_555
C81_2 C68_2 1_555 1_555
H62_2 C81_2 1_555 1_555
C83_2 C62_2 1_555 1_555
H63_2 C83_2 1_555 1_555
C84_2 C76_2 1_555 1_555
H64_2 C84_2 1_555 1_555
C85_2 C62_2 1_555 1_555
H65_2 C85_2 1_555 1_555
C86_2 C76_2 1_555 1_555
H66_2 C86_2 1_555 1_555
C88_2 C66_2 1_555 1_555
H68_2 C88_2 1_555 1_555
C55_2 C58_2 1_555 1_555
C55_2 C59_2 1_555 1_555
O17_2 C72_2 1_555 1_555
C71_2 C80_2 1_555 1_555
C75_2 C88_2 1_555 1_555
C83_2 C84_2 1_555 1_555
C85_2 C86_2 1_555 1_555
Co2_2 O4_2 1_555 1_555
O1_2 C1_2 1_555 1_555
O2_2 C3_2 1_555 1_555
O3_2 C3_2 1_555 1_555
O4_2 C1_2 1_555 1_555
O5_2 Co2_2 1_555 1_555
O7_2 Co2_2 1_555 1_555
O10_2 C6_2 1_555 1_555
N2_2 Co2_2 1_555 1_555
C1_2 C4_2 1_555 1_555
C2_2 C3_2 1_555 1_555
C4_2 C15_2 1_555 1_555
C6_2 C11_2 1_555 1_555
C8_2 C12_2 1_555 1_555
C11_2 H3_2 1_555 1_555
C12_2 O5_2 1_555 1_555
C15_2 H6_2 1_555 1_555
C16_2 O10_2 1_555 1_555
C19_2 C8_2 1_555 1_555
H8_2 C19_2 1_555 1_555
C20_2 N2_2 1_555 1_555
H9_2 C20_2 1_555 1_555
C21_2 C4_2 1_555 1_555
H10_2 C21_2 1_555 1_555
C22_2 C8_2 1_555 1_555
H11_2 C22_2 1_555 1_555
C24_2 C2_2 1_555 1_555
H12_2 C24_2 1_555 1_555
C25_2 C16_2 1_555 1_555
H13_2 C25_2 1_555 1_555
C26_2 C2_2 1_555 1_555
H14_2 C26_2 1_555 1_555
N3_2 C34_2 1_555 1_555
C27_2 N2_2 1_555 1_555
H15_2 C27_2 1_555 1_555
C28_2 C35_2 1_555 1_555
C29_2 C16_2 1_555 1_555
H16_2 C29_2 1_555 1_555
C30_2 C36_2 1_555 1_555
C32_2 N1_2 1_555 1_555
C33_2 C6_2 1_555 1_555
H19_2 C33_2 1_555 1_555
N4_2 C38_2 1_555 1_555
C34_2 H20_2 1_555 1_555
H21_2 C34_2 1_555 1_555
C35_2 C32_2 1_555 1_555
C36_2 C20_2 1_555 1_555
H23_2 C36_2 1_555 1_555
C37_2 C28_2 1_555 1_555
H24_2 C37_2 1_555 1_555
C38_2 H25_2 1_555 1_555
H26_2 C38_2 1_555 1_555
C39_2 N1_2 1_555 1_555
H27_2 C39_2 1_555 1_555
C40_2 C28_2 1_555 1_555
H28_2 C40_2 1_555 1_555
H29_2 C40_2 1_555 1_555
C41_2 N3_2 1_555 1_555
H30_2 C41_2 1_555 1_555
H31_2 C41_2 1_555 1_555
C42_2 C27_2 1_555 1_555
H32_2 C42_2 1_555 1_555
C44_2 N4_2 1_555 1_555
N5_2 C46_2 1_555 1_555
C45_2 C47_2 1_555 1_555
C46_2 H35_2 1_555 1_555
N6_2 C49_2 1_555 1_555
C47_2 C46_2 1_555 1_555
H36_2 C47_2 1_555 1_555
C48_2 C45_2 1_555 1_555
H37_2 C48_2 1_555 1_555
C49_2 C44_2 1_555 1_555
H38_2 C49_2 1_555 1_555
H39_2 C49_2 1_555 1_555
C50_2 N5_2 1_555 1_555
H40_2 C50_2 1_555 1_555
C51_2 C45_2 1_555 1_555
H41_2 C51_2 1_555 1_555
H42_2 C51_2 1_555 1_555
C52_2 C38_2 1_555 1_555
C60_2 C34_2 1_555 1_555
H51_2 C60_2 1_555 1_555
H52_2 C60_2 1_555 1_555
Co8_2 O2_2 1_555 1_555
Co11 N5_2 1_555 1_555
O7_2 C12_2 1_555 1_555
C11_2 C21_2 1_555 1_555
C15_2 C33_2 1_555 1_555
C24_2 C25_2 1_555 1_555
C26_2 C29_2 1_555 1_555
C30_2 C41_2 1_555 1_555
C30_2 C42_2 1_555 1_555
N4_2 C40_2 1_555 1_555
C37_2 C39_2 1_555 1_555
N6_2 C51_2 1_555 1_555
N6_2 C52_2 1_555 1_555
C48_2 C50_2 1_555 1_555
Co8_2 O28_2 1_555 1_555
C52_2 H69_2 1_555 1_555
C52_2 H70_2 1_555 1_555
C44_2 H71_2 1_555 1_555
C44_2 H72_2 1_555 1_555
O30_2 Co8_2 1_555 1_555
O6_2 C5_2 1_555 1_555
O8_2 C5_2 1_555 1_555
O9_2 C10_2 1_555 1_555
C5_2 C17_2 1_555 1_555
C7_2 H1_2 1_555 1_555
C9_2 H2_2 1_555 1_555
C10_2 C18_2 1_555 1_555
C13_2 H4_2 1_555 1_555
C14_2 H5_2 1_555 1_555
C17_2 C7_2 1_555 1_555
C18_2 C14_2 1_555 1_555
H7_2 C18_2 1_555 1_555
C23_2 O9_2 1_555 1_555
C31_2 C7_2 1_555 1_555
H17_2 C31_2 1_555 1_555
C9_2 C23_2 1_555 1_555
C10_2 C31_2 1_555 1_555
C13_2 C23_2 1_555 1_555
C14_2 C17_2 1_555 1_555
N9 C46_3 1_555 1_555
C45_3 C47_3 1_555 1_555
N6_3 C49_3 1_555 1_555
C47_3 C46_3 1_555 1_555
C48_3 C45_3 1_555 1_555
H37_3 C48_3 1_555 1_555
C49_3 C44_3 1_555 1_555
H38_3 C49_3 1_555 1_555
H39_3 C49_3 1_555 1_555
C50_3 N9 1_555 1_555
H40_3 C50_3 1_555 1_555
C51_3 C45_3 1_555 1_555
H41_3 C51_3 1_555 1_555
H42_3 C51_3 1_555 1_555
N6_3 C51_3 1_555 1_555
C48_3 C50_3 1_555 1_555
C44_3 H71_3 1_555 1_555
C44_3 H72_3 1_555 1_555
N1_3 Co6 1_555 1_555
C28_3 C35_3 1_555 1_555
C32_3 N1_3 1_555 1_555
H18_3 C32_3 1_555 1_555
N4_3 C38_3 1_555 1_555
C35_3 C32_3 1_555 1_555
H22_3 C35_3 1_555 1_555
C37_3 C28_3 1_555 1_555
H24_3 C37_3 1_555 1_555
C38_3 H25_3 1_555 1_555
H26_3 C38_3 1_555 1_555
C39_3 N1_3 1_555 1_555
H27_3 C39_3 1_555 1_555
C40_3 C28_3 1_555 1_555
H28_3 C40_3 1_555 1_555
H29_3 C40_3 1_555 1_555
C52_3 C38_3 1_555 1_555
N7_3 C53_3 1_555 1_555
C53_3 H43_3 1_555 1_555
C54_3 N7_3 1_555 1_555
H44_3 C54_3 1_555 1_555
C55_3 C57_3 1_555 1_555
C57_3 C53_3 1_555 1_555
H47_3 C57_3 1_555 1_555
C59_3 C54_3 1_555 1_555
H50_3 C59_3 1_555 1_555
H51_3 C60_3 1_555 1_555
H52_3 C60_3 1_555 1_555
Co13 N7_3 1_555 1_555
O22 C61_3 1_555 1_555
O14_3 Co13 1_555 1_555
O15_3 Co13 1_555 1_555
O28_2 C65_3 1_555 1_555
O17_3 Co13 1_555 1_555
O30_2 C65_3 1_555 1_555
O19_3 C70_3 1_555 1_555
C61_3 O14_3 1_555 1_555
C64_3 C61_3 1_555 1_555
C65_3 C77_3 1_555 1_555
C67_3 H53_3 1_555 1_555
C68_3 C72_3 1_555 1_555
C69_3 H54_3 1_555 1_555
C70_3 C78_3 1_555 1_555
C72_3 O15_3 1_555 1_555
C73_3 H56_3 1_555 1_555
C74_3 H57_3 1_555 1_555
C75_3 C64_3 1_555 1_555
H58_3 C75_3 1_555 1_555
C77_3 C67_3 1_555 1_555
C78_3 C74_3 1_555 1_555
H59_3 C78_3 1_555 1_555
C79_3 C68_3 1_555 1_555
H60_3 C79_3 1_555 1_555
C80_3 C64_3 1_555 1_555
H61_3 C80_3 1_555 1_555
C81_3 C68_3 1_555 1_555
H62_3 C81_3 1_555 1_555
C82_3 O19_3 1_555 1_555
C87_3 C67_3 1_555 1_555
H67_3 C87_3 1_555 1_555
N4_3 C40_3 1_555 1_555
C37_3 C39_3 1_555 1_555
N8_3 C60_3 1_555 1_555
C55_3 C59_3 1_555 1_555
O17_3 C72_3 1_555 1_555
C69_3 C79_3 1_555 1_555
C69_3 C82_3 1_555 1_555
C70_3 C87_3 1_555 1_555
C73_3 C81_3 1_555 1_555
C73_3 C82_3 1_555 1_555
C74_3 C77_3 1_555 1_555
C52_3 H69_3 1_555 1_555
C52_3 H70_3 1_555 1_555
C34_3 H20_3 1_555 1_555
H30_3 C41_3 1_555 1_555
H31_3 C41_3 1_555 1_555
O24_3 C63_3 1_555 1_555
O13_3 C63_3 1_555 1_555
O20_3 C66_3 1_555 1_555
C62_3 C63_3 1_555 1_555
C66_3 C71_3 1_555 1_555
C71_3 H55_3 1_555 1_555
C76_3 O20_3 1_555 1_555
C83_3 C62_3 1_555 1_555
H63_3 C83_3 1_555 1_555
C84_3 C76_3 1_555 1_555
H64_3 C84_3 1_555 1_555
C85_3 C62_3 1_555 1_555
H65_3 C85_3 1_555 1_555
C86_3 C76_3 1_555 1_555
H66_3 C86_3 1_555 1_555
C88_3 C66_3 1_555 1_555
H68_3 C88_3 1_555 1_555
C83_3 C84_3 1_555 1_555
C85_3 C86_3 1_555 1_555
O2_3 C3_3 1_555 1_555
O3_3 C3_3 1_555 1_555
O10_3 C6_3 1_555 1_555
C2_3 C3_3 1_555 1_555
C6_3 C11_3 1_555 1_555
C11_3 H3_3 1_555 1_555
C16_3 O10_3 1_555 1_555
C24_3 C2_3 1_555 1_555
H12_3 C24_3 1_555 1_555
C25_3 C16_3 1_555 1_555
H13_3 C25_3 1_555 1_555
C26_3 C2_3 1_555 1_555
H14_3 C26_3 1_555 1_555
C29_3 C16_3 1_555 1_555
H16_3 C29_3 1_555 1_555
C33_3 C6_3 1_555 1_555
H19_3 C33_3 1_555 1_555
H45_3 C56_3 1_555 1_555
H48_3 C58_3 1_555 1_555
H49_3 C58_3 1_555 1_555
C24_3 C25_3 1_555 1_555
C26_3 C29_3 1_555 1_555
Co12 O4_3 1_555 1_555
O21 C1_3 1_555 1_555
O4_3 C1_3 1_555 1_555
O5_3 Co12 1_555 1_555
O26_2 C5_3 1_555 1_555
O7_3 Co12 1_555 1_555
O29_2 C5_3 1_555 1_555
O9_3 C10_3 1_555 1_555
N2_3 Co12 1_555 1_555
C1_3 C4_3 1_555 1_555
C4_3 C15_3 1_555 1_555
C5_3 C17_3 1_555 1_555
C7_3 H1_3 1_555 1_555
C8_3 C12_3 1_555 1_555
C9_3 H2_3 1_555 1_555
C10_3 C18_3 1_555 1_555
C12_3 O5_3 1_555 1_555
C13_3 H4_3 1_555 1_555
C14_3 H5_3 1_555 1_555
C15_3 H6_3 1_555 1_555
C17_3 C7_3 1_555 1_555
C18_3 C14_3 1_555 1_555
H7_3 C18_3 1_555 1_555
C19_3 C8_3 1_555 1_555
H8_3 C19_3 1_555 1_555
C20_3 N2_3 1_555 1_555
H9_3 C20_3 1_555 1_555
C21_3 C4_3 1_555 1_555
H10_3 C21_3 1_555 1_555
C22_3 C8_3 1_555 1_555
H11_3 C22_3 1_555 1_555
C23_3 O9_3 1_555 1_555
C27_3 N2_3 1_555 1_555
H15_3 C27_3 1_555 1_555
C30_3 C36_3 1_555 1_555
C31_3 C7_3 1_555 1_555
H17_3 C31_3 1_555 1_555
C36_3 C20_3 1_555 1_555
H23_3 C36_3 1_555 1_555
C42_3 C27_3 1_555 1_555
H32_3 C42_3 1_555 1_555
C43_3 N3_3 1_555 1_555
H33_3 C43_3 1_555 1_555
H34_3 C43_3 1_555 1_555
O7_3 C12_3 1_555 1_555
C9_3 C19_3 1_555 1_555
C9_3 C23_3 1_555 1_555
C10_3 C31_3 1_555 1_555
C13_3 C22_3 1_555 1_555
C13_3 C23_3 1_555 1_555
C14_3 C17_3 1_555 1_555
C30_3 C42_3 1_555 1_555
H45_4 C56_4 1_555 1_555
H48_4 C58_4 1_555 1_555
H49_4 C58_4 1_555 1_555
O2_4 C3_4 1_555 1_555
O3_4 C3_4 1_555 1_555
O10_4 C6_4 1_555 1_555
C2_4 C3_4 1_555 1_555
C6_4 C11_4 1_555 1_555
C11_4 H3_4 1_555 1_555
C16_4 O10_4 1_555 1_555
C24_4 C2_4 1_555 1_555
H12_4 C24_4 1_555 1_555
C25_4 C16_4 1_555 1_555
H13_4 C25_4 1_555 1_555
C26_4 C2_4 1_555 1_555
H14_4 C26_4 1_555 1_555
C29_4 C16_4 1_555 1_555
H16_4 C29_4 1_555 1_555
C33_4 C6_4 1_555 1_555
H19_4 C33_4 1_555 1_555
Co11 O2_4 1_555 1_555
C24_4 C25_4 1_555 1_555
C26_4 C29_4 1_555 1_555
H33_4 C43_4 1_555 1_555
H34_4 C43_4 1_555 1_555
Co12_2 O4_4 1_555 1_555
O21_2 C1_4 1_555 1_555
O4_4 C1_4 1_555 1_555
O5_4 Co12_2 1_555 1_555
O26 C5_4 1_555 1_555
O7_4 Co12_2 1_555 1_555
O29 C5_4 1_555 1_555
O9_4 C10_4 1_555 1_555
N2_4 Co12_2 1_555 1_555
C1_4 C4_4 1_555 1_555
C4_4 C15_4 1_555 1_555
C5_4 C17_4 1_555 1_555
C7_4 H1_4 1_555 1_555
C8_4 C12_4 1_555 1_555
C9_4 H2_4 1_555 1_555
C10_4 C18_4 1_555 1_555
C12_4 O5_4 1_555 1_555
C13_4 H4_4 1_555 1_555
C14_4 H5_4 1_555 1_555
C15_4 H6_4 1_555 1_555
C17_4 C7_4 1_555 1_555
C18_4 C14_4 1_555 1_555
H7_4 C18_4 1_555 1_555
C19_4 C8_4 1_555 1_555
H8_4 C19_4 1_555 1_555
C20_4 N2_4 1_555 1_555
H9_4 C20_4 1_555 1_555
C21_4 C4_4 1_555 1_555
H10_4 C21_4 1_555 1_555
C22_4 C8_4 1_555 1_555
H11_4 C22_4 1_555 1_555
C23_4 O9_4 1_555 1_555
C27_4 N2_4 1_555 1_555
H15_4 C27_4 1_555 1_555
C30_4 C36_4 1_555 1_555
C31_4 C7_4 1_555 1_555
H17_4 C31_4 1_555 1_555
C36_4 C20_4 1_555 1_555
H23_4 C36_4 1_555 1_555
C42_4 C27_4 1_555 1_555
H32_4 C42_4 1_555 1_555
O7_4 C12_4 1_555 1_555
C9_4 C19_4 1_555 1_555
C9_4 C23_4 1_555 1_555
C10_4 C31_4 1_555 1_555
C13_4 C22_4 1_555 1_555
C13_4 C23_4 1_555 1_555
C14_4 C17_4 1_555 1_555
C30_4 C42_4 1_555 1_555
N7_4 C53_4 1_555 1_555
C53_4 H43_4 1_555 1_555
C54_4 N7_4 1_555 1_555
H44_4 C54_4 1_555 1_555
C55_4 C57_4 1_555 1_555
C57_4 C53_4 1_555 1_555
H47_4 C57_4 1_555 1_555
C59_4 C54_4 1_555 1_555
H50_4 C59_4 1_555 1_555
Co13_2 N7_4 1_555 1_555
O22_2 C61_4 1_555 1_555
O14_4 Co13_2 1_555 1_555
O15_4 Co13_2 1_555 1_555
O28 C65_4 1_555 1_555
O17_4 Co13_2 1_555 1_555
O30 C65_4 1_555 1_555
O19_4 C70_4 1_555 1_555
C61_4 O14_4 1_555 1_555
C64_4 C61_4 1_555 1_555
C65_4 C77_4 1_555 1_555
C67_4 H53_4 1_555 1_555
C68_4 C72_4 1_555 1_555
C69_4 H54_4 1_555 1_555
C70_4 C78_4 1_555 1_555
C72_4 O15_4 1_555 1_555
C73_4 H56_4 1_555 1_555
C74_4 H57_4 1_555 1_555
C75_4 C64_4 1_555 1_555
H58_4 C75_4 1_555 1_555
C77_4 C67_4 1_555 1_555
C78_4 C74_4 1_555 1_555
H59_4 C78_4 1_555 1_555
C79_4 C68_4 1_555 1_555
H60_4 C79_4 1_555 1_555
C80_4 C64_4 1_555 1_555
H61_4 C80_4 1_555 1_555
C81_4 C68_4 1_555 1_555
H62_4 C81_4 1_555 1_555
C82_4 O19_4 1_555 1_555
C87_4 C67_4 1_555 1_555
H67_4 C87_4 1_555 1_555
C55_4 C59_4 1_555 1_555
O17_4 C72_4 1_555 1_555
C69_4 C79_4 1_555 1_555
C69_4 C82_4 1_555 1_555
C70_4 C87_4 1_555 1_555
C73_4 C81_4 1_555 1_555
C73_4 C82_4 1_555 1_555
C74_4 C77_4 1_555 1_555
N1_4 Co7 1_555 1_555
C28_4 C35_4 1_555 1_555
C32_4 N1_4 1_555 1_555
H18_4 C32_4 1_555 1_555
N4_4 C38_4 1_555 1_555
C35_4 C32_4 1_555 1_555
H22_4 C35_4 1_555 1_555
C37_4 C28_4 1_555 1_555
H24_4 C37_4 1_555 1_555
C38_4 H25_4 1_555 1_555
H26_4 C38_4 1_555 1_555
C39_4 N1_4 1_555 1_555
H27_4 C39_4 1_555 1_555
C40_4 C28_4 1_555 1_555
H28_4 C40_4 1_555 1_555
H29_4 C40_4 1_555 1_555
C44_4 N4_4 1_555 1_555
N9_2 C46_4 1_555 1_555
C45_4 C47_4 1_555 1_555
N6_4 C49_4 1_555 1_555
C47_4 C46_4 1_555 1_555
C48_4 C45_4 1_555 1_555
H37_4 C48_4 1_555 1_555
C49_4 C44_4 1_555 1_555
H38_4 C49_4 1_555 1_555
H39_4 C49_4 1_555 1_555
C50_4 N9_2 1_555 1_555
H40_4 C50_4 1_555 1_555
C51_4 C45_4 1_555 1_555
H41_4 C51_4 1_555 1_555
H42_4 C51_4 1_555 1_555
C52_4 C38_4 1_555 1_555
H51_4 C60_4 1_555 1_555
H52_4 C60_4 1_555 1_555
O24_4 Co7 1_555 1_555
N4_4 C40_4 1_555 1_555
C37_4 C39_4 1_555 1_555
N6_4 C51_4 1_555 1_555
N6_4 C52_4 1_555 1_555
C48_4 C50_4 1_555 1_555
C52_4 H69_4 1_555 1_555
C52_4 H70_4 1_555 1_555
C44_4 H71_4 1_555 1_555
C44_4 H72_4 1_555 1_555
O24_4 C63_4 1_555 1_555
O13_4 C63_4 1_555 1_555
O20_4 C66_4 1_555 1_555
C62_4 C63_4 1_555 1_555
C66_4 C71_4 1_555 1_555
C71_4 H55_4 1_555 1_555
C76_4 O20_4 1_555 1_555
C83_4 C62_4 1_555 1_555
H63_4 C83_4 1_555 1_555
C84_4 C76_4 1_555 1_555
H64_4 C84_4 1_555 1_555
C85_4 C62_4 1_555 1_555
H65_4 C85_4 1_555 1_555
C86_4 C76_4 1_555 1_555
H66_4 C86_4 1_555 1_555
C88_4 C66_4 1_555 1_555
H68_4 C88_4 1_555 1_555
C83_4 C84_4 1_555 1_555
C85_4 C86_4 1_555 1_555
C34_4 H20_4 1_555 1_555
H30_4 C41_4 1_555 1_555
H31_4 C41_4 1_555 1_555

#END
