
###############################################################################
#
# This file contains modified crystal structure data generated from the
# MOF subset of the Cambridge Structural Database (CSD) v543 
# hosted by the Cambridge Crystallographic Data Centre (CCDC).
#
# This work is licensed under the Creative Commons
# Attribution-NonCommercial-ShareAlike 4.0 International License.
# To view a copy of this license, visit
# http://creativecommons.org/licenses/by-nc-sa/4.0/
# or send a letter to
# Creative Commons, PO Box 1866, Mountain View, CA 94042, USA.
#
# CIF created using the CSD Python API on 29 September 2022
# The structure has been converted into the P1 space group
# The structure has a 3D framework
# The original CSD entry KOMLEG is in the orthorhombic crystal system
# The framework has been calculated to contain at least 10.0% void space
# The void calculation uses a probe of radius 1.32A, grid spacing 0.4
#
###############################################################################

data_KOMLEG
_chemical_formula_moiety         '(C704 H576 Co32 N64 O160)n'
_symmetry_cell_setting           triclinic
_symmetry_space_group_name_H-M   'P 1'
_symmetry_Int_Tables_number      1
_space_group_name_Hall           'P 1'
loop_
_symmetry_equiv_pos_site_id
_symmetry_equiv_pos_as_xyz
1 x,y,z
_cell_length_a                   15.6371(10)
_cell_length_b                   31.0298(19)
_cell_length_c                   37.083(2)
_cell_angle_alpha                90
_cell_angle_beta                 90
_cell_angle_gamma                90
_cell_volume                     17993.3
loop_
_atom_site_label
_atom_site_type_symbol
_atom_site_fract_x
_atom_site_fract_y
_atom_site_fract_z
H14 H 0.018149 0.270544 0.157759
O11 O 0.03234(15) 0.11261(8) 0.13767(6)
O12 O 0.04916(14) 0.16137(7) 0.18077(6)
O13 O 0.05128(13) 0.19959(7) 0.10801(5)
O14 O 0.03323(13) 0.14567(7) 0.06825(6)
Co1 Co 0.93880(2) 0.11247(2) 0.09121(2)
Co2 Co 0.96020(2) 0.17917(2) 0.14310(2)
O1 O 0.28234(15) 0.36261(8) 0.11233(6)
O2 O 0.84285(14) 0.12904(7) 0.05592(6)
O3 O 0.29916(14) 0.41137(7) 0.06923(6)
O4 O 0.30128(13) 0.05041(7) 0.35801(5)
O5 O 0.87092(14) 0.17984(7) 0.09610(6)
O6 O 0.85738(14) 0.09010(7) 0.12920(6)
N1 N 0.90973(17) 0.23874(8) 0.15733(7)
O7 O 0.55724(14) 0.26690(7) 0.01547(6)
O8 O 0.28323(13) 0.10433(7) 0.31825(6)
O9 O 0.86365(14) 0.14638(7) 0.16690(6)
C1 C 0.4487(2) 0.02262(10) 0.31983(9)
H1 H 0.431427 0.005687 0.339892
C2 C 0.75649(19) 0.19296(10) 0.05509(8)
N2 N 0.48536(17) 0.55356(8) 0.07429(7)
C3 C 0.7735(2) 0.08811(10) 0.18231(8)
C4 C 0.8360(2) 0.10970(10) 0.15753(8)
C5 C 0.7382(2) 0.23240(10) 0.07143(9)
H2 H 0.772734 0.242193 0.090836
C6 C 0.4682(2) 0.32727(10) 0.01522(8)
C7 C 0.4233(2) 0.31502(10) 0.08669(8)
H4 H 0.407828 0.310865 0.111225
C8 C 0.32288(19) 0.07187(10) 0.33055(8)
C9 C 0.7526(2) 0.04505(10) 0.17718(8)
H5 H 0.776068 0.030048 0.157151
C10 C 0.7376(2) 0.10988(10) 0.21140(9)
H6 H 0.750791 0.139451 0.215039
C11 C 0.3184(2) 0.37551(11) 0.08377(9)
C12 C 0.5050(2) 0.29429(10) 0.03497(9)
C13 C 0.3850(2) 0.34799(10) 0.06687(9)
C14 C 0.40106(19) 0.05885(10) 0.31006(9)
C15 C 0.6831(2) 0.08916(10) 0.23514(9)
H7 H 0.659272 0.104194 0.255078
C16 C 0.6406(2) 0.20459(11) 0.01363(9)
C17 C 0.7077(2) 0.17953(10) 0.02598(9)
H9 H 0.720440 0.152961 0.014432
C18 C 0.82800(19) 0.16583(11) 0.06975(9)
C19 C 0.6708(2) 0.25729(11) 0.05988(9)
H10 H 0.658111 0.283802 0.071519
C20 C 0.62126(19) 0.24321(10) 0.03085(8)
C21 C 0.6986(2) 0.02350(10) 0.20055(8)
O10 O 0.61624(15) 0.02080(7) 0.25305(6)
C22 C 0.4087(2) 0.35415(10) 0.03117(9)
H12 H 0.383977 0.376955 0.017635
C23 C 0.4276(2) 0.08275(10) 0.28043(8)
H13 H 0.395393 0.107296 0.273361
C24 C 0.6635(2) 0.04579(10) 0.22930(9)
C25 C 0.5463(2) 0.03623(10) 0.27148(8)
C26 C 0.9579(2) 0.27365(12) 0.15958(11)
C27 C 0.4838(2) 0.28815(10) 0.07087(9)
H15 H 0.510164 0.265897 0.084500
C28 C 0.4992(2) 0.07173(10) 0.26114(9)
H16 H 0.516152 0.088374 0.240860
C29 C 0.8257(2) 0.24409(12) 0.16010(10)
H17 H 0.790018 0.219325 0.159204
C30 C 0.5208(2) 0.01123(10) 0.30047(9)
C31 C 0.8383(3) 0.32033(11) 0.16580(10)
C32 C 0.9243(3) 0.31465(12) 0.16448(12)
H19 H 0.961519 0.338686 0.166911
N3 N 0.7366(2) 0.37230(10) 0.14115(9)
C33 C 0.6858(4) 0.41077(15) 0.14867(12)
H20 H 0.723862 0.436189 0.150327
H21 H 0.656159 0.407396 0.172094
C34 C 0.7977(4) 0.36460(14) 0.16967(13)
H22 H 0.768597 0.366622 0.193310
H23 H 0.842839 0.386963 0.168869
C35 C 0.7782(3) 0.37746(14) 0.10609(11)
H24 H 0.811526 0.351166 0.100555
H25 H 0.818536 0.401996 0.107270
C36 C 0.7880(3) 0.28369(13) 0.16421(12)
H26 H 0.727552 0.285971 0.165948
C37 C 0.6001(4) 0.50974(14) 0.05366(16)
H27 H 0.656201 0.508441 0.043863
C38 C 0.5573(3) 0.47322(13) 0.05990(12)
C39 C 0.4779(3) 0.47691(16) 0.0730(3)
H28 H 0.444358 0.451975 0.077657
C40 C 0.5639(3) 0.54946(14) 0.06129(15)
H29 H 0.596654 0.574741 0.057029
C41 C 0.4453(3) 0.51764(14) 0.0798(2)
H30 H 0.388885 0.519362 0.089219
C42 C 0.6204(3) 0.41778(15) 0.11897(13)
H31 H 0.581096 0.392781 0.117934
H32 H 0.586025 0.443779 0.124429
C43 C 0.7158(3) 0.38518(13) 0.07674(12)
H33 H 0.746929 0.389617 0.053784
H34 H 0.678858 0.359500 0.073944
N4 N 0.6623(2) 0.42307(10) 0.08424(9)
C44 C 0.6009(4) 0.43000(14) 0.05566(14)
H35 H 0.557540 0.406780 0.056151
H36 H 0.630455 0.428870 0.032061
Co3 Co 0.18880(2) 0.36247(2) 0.15879(2)
Co4 Co 0.18880(2) 0.13753(2) 0.34121(2)
Co5 Co 0.43880(2) 0.61247(2) 0.09121(2)
Co6 Co 0.21020(2) 0.42917(2) 0.10690(2)
Co7 Co 0.21020(2) 0.07083(2) 0.39310(2)
N5 N 0.98536(17) 0.05356(8) 0.07429(7)
H14_2 H 0.018149 0.729456 0.842241
O11_2 O 0.03234(15) 0.88739(8) 0.86233(6)
O12_2 O 0.04916(14) 0.83863(7) 0.81923(6)
O13_2 O 0.05128(13) 0.80041(7) 0.89199(5)
O14_2 O 0.03323(13) 0.85433(7) 0.93175(6)
Co1_2 Co 0.93880(2) 0.88753(2) 0.90879(2)
Co2_2 Co 0.96020(2) 0.82083(2) 0.85690(2)
O1_2 O 0.28234(15) 0.63739(8) 0.88767(6)
O2_2 O 0.84285(14) 0.87096(7) 0.94408(6)
O3_2 O 0.29916(14) 0.58863(7) 0.93077(6)
O4_2 O 0.30128(13) 0.94959(7) 0.64199(5)
O5_2 O 0.87092(14) 0.82016(7) 0.90390(6)
O6_2 O 0.85738(14) 0.90990(7) 0.87080(6)
N1_2 N 0.90973(17) 0.76126(8) 0.84267(7)
O7_2 O 0.55724(14) 0.73310(7) 0.98453(6)
O8_2 O 0.28323(13) 0.89567(7) 0.68175(6)
O9_2 O 0.86365(14) 0.85362(7) 0.83310(6)
C1_2 C 0.4487(2) 0.97738(10) 0.68017(9)
H1_2 H 0.431427 0.994313 0.660108
C2_2 C 0.75649(19) 0.80704(10) 0.94491(8)
N2_2 N 0.48536(17) 0.44644(8) 0.92571(7)
C3_2 C 0.7735(2) 0.91189(10) 0.81769(8)
C4_2 C 0.8360(2) 0.89030(10) 0.84247(8)
C5_2 C 0.7382(2) 0.76760(10) 0.92857(9)
H2_2 H 0.772734 0.757807 0.909164
C6_2 C 0.4682(2) 0.67273(10) 0.98478(8)
C7_2 C 0.4233(2) 0.68498(10) 0.91331(8)
H4_2 H 0.407828 0.689135 0.888775
C8_2 C 0.32288(19) 0.92813(10) 0.66945(8)
C9_2 C 0.7526(2) 0.95495(10) 0.82282(8)
H5_2 H 0.776068 0.969952 0.842849
C10_2 C 0.7376(2) 0.89012(10) 0.78860(9)
H6_2 H 0.750791 0.860549 0.784961
C11_2 C 0.3184(2) 0.62449(11) 0.91623(9)
C12_2 C 0.5050(2) 0.70571(10) 0.96503(9)
C13_2 C 0.3850(2) 0.65201(10) 0.93313(9)
C14_2 C 0.40106(19) 0.94115(10) 0.68994(9)
C15_2 C 0.6831(2) 0.91084(10) 0.76486(9)
H7_2 H 0.659272 0.895806 0.744922
C16_2 C 0.6406(2) 0.79541(11) 0.98637(9)
C17_2 C 0.7077(2) 0.82047(10) 0.97402(9)
H9_2 H 0.720440 0.847039 0.985568
C18_2 C 0.82800(19) 0.83417(11) 0.93025(9)
C19_2 C 0.6708(2) 0.74271(11) 0.94012(9)
H10_2 H 0.658111 0.716198 0.928481
C20_2 C 0.62126(19) 0.75679(10) 0.96915(8)
C21_2 C 0.6986(2) 0.97650(10) 0.79945(8)
O10_2 O 0.61624(15) 0.97920(7) 0.74695(6)
C22_2 C 0.4087(2) 0.64585(10) 0.96883(9)
H12_2 H 0.383977 0.623045 0.982365
C23_2 C 0.4276(2) 0.91725(10) 0.71957(8)
H13_2 H 0.395393 0.892704 0.726639
C24_2 C 0.6635(2) 0.95421(10) 0.77070(9)
C25_2 C 0.5463(2) 0.96377(10) 0.72852(8)
C26_2 C 0.9579(2) 0.72635(12) 0.84042(11)
C27_2 C 0.4838(2) 0.71185(10) 0.92913(9)
H15_2 H 0.510164 0.734103 0.915500
C28_2 C 0.4992(2) 0.92827(10) 0.73886(9)
H16_2 H 0.516152 0.911626 0.759140
C29_2 C 0.8257(2) 0.75591(12) 0.83990(10)
H17_2 H 0.790018 0.780675 0.840796
C30_2 C 0.5208(2) 0.98877(10) 0.69953(9)
C31_2 C 0.8383(3) 0.67967(11) 0.83420(10)
C32_2 C 0.9243(3) 0.68535(12) 0.83552(12)
H19_2 H 0.961519 0.661314 0.833089
N3_2 N 0.7366(2) 0.62770(10) 0.85885(9)
C33_2 C 0.6858(4) 0.58923(15) 0.85133(12)
H20_2 H 0.723862 0.563811 0.849673
H21_2 H 0.656159 0.592604 0.827906
C34_2 C 0.7977(4) 0.63540(14) 0.83033(13)
H22_2 H 0.768597 0.633378 0.806690
H23_2 H 0.842839 0.613037 0.831131
C35_2 C 0.7782(3) 0.62254(14) 0.89391(11)
H24_2 H 0.811526 0.648834 0.899445
H25_2 H 0.818536 0.598004 0.892730
C36_2 C 0.7880(3) 0.71631(13) 0.83579(12)
H26_2 H 0.727552 0.714029 0.834052
C37_2 C 0.6001(4) 0.49026(14) 0.94634(16)
H27_2 H 0.656201 0.491559 0.956137
C38_2 C 0.5573(3) 0.52678(13) 0.94010(12)
C39_2 C 0.4779(3) 0.52309(16) 0.9270(3)
H28_2 H 0.444358 0.548025 0.922343
C40_2 C 0.5639(3) 0.45054(14) 0.93871(15)
H29_2 H 0.596654 0.425259 0.942971
C41_2 C 0.4453(3) 0.48236(14) 0.9202(2)
H30_2 H 0.388885 0.480638 0.910781
C42_2 C 0.6204(3) 0.58222(15) 0.88103(13)
H31_2 H 0.581096 0.607219 0.882066
H32_2 H 0.586025 0.556221 0.875571
C43_2 C 0.7158(3) 0.61482(13) 0.92326(12)
H33_2 H 0.746929 0.610383 0.946216
H34_2 H 0.678858 0.640500 0.926056
N4_2 N 0.6623(2) 0.57693(10) 0.91576(9)
C44_2 C 0.6009(4) 0.57000(14) 0.94434(14)
H35_2 H 0.557540 0.593220 0.943849
H36_2 H 0.630455 0.571130 0.967939
Co3_2 Co 0.18880(2) 0.63753(2) 0.84121(2)
Co4_2 Co 0.18880(2) 0.86247(2) 0.65879(2)
Co5_2 Co 0.43880(2) 0.38753(2) 0.90879(2)
Co6_2 Co 0.21020(2) 0.57083(2) 0.89310(2)
Co7_2 Co 0.21020(2) 0.92917(2) 0.60690(2)
N5_2 N 0.98536(17) 0.94644(8) 0.92571(7)
O2_3 O 0.09285(14) 0.37904(7) 0.19408(6)
O5_3 O 0.12092(14) 0.42984(7) 0.15390(6)
O6_3 O 0.10738(14) 0.34010(7) 0.12080(6)
N1_3 N 0.15973(17) 0.48874(8) 0.09267(7)
O9_3 O 0.11365(14) 0.39638(7) 0.08310(6)
C2_3 C 0.00649(19) 0.44296(10) 0.19491(8)
C3_3 C 0.0235(2) 0.33811(10) 0.06769(8)
C4_3 C 0.0860(2) 0.35970(10) 0.09247(8)
H2_3 H 0.022734 0.492193 0.159164
C9_3 C 0.0026(2) 0.29505(10) 0.07282(8)
H5_3 H 0.026068 0.280048 0.092849
H6_3 H 0.000791 0.389451 0.034961
C18_3 C 0.07800(19) 0.41583(11) 0.18025(9)
C26_3 C 0.2079(2) 0.52365(12) 0.09042(11)
H14_3 H 0.268149 0.520544 0.092241
C29_3 C 0.0757(2) 0.49409(12) 0.08990(10)
H17_3 H 0.040018 0.469325 0.090796
C31_3 C 0.0883(3) 0.57033(11) 0.08420(10)
C32_3 C 0.1743(3) 0.56465(12) 0.08552(12)
H19_3 H 0.211519 0.588686 0.083089
C34_3 C 0.0477(4) 0.61460(14) 0.08033(13)
H22_3 H 0.018597 0.616622 0.056690
H23_3 H 0.092839 0.636963 0.081131
C35_3 C 0.0282(3) 0.62746(14) 0.14391(11)
H24_3 H 0.061526 0.601166 0.149445
H25_3 H 0.068536 0.651996 0.142730
C36_3 C 0.0380(3) 0.53369(13) 0.08579(12)
O13_3 O 0.30128(13) 0.44959(7) 0.14199(5)
O14_3 O 0.28323(13) 0.39567(7) 0.18175(6)
N5_3 N 0.23536(17) 0.30356(8) 0.17571(7)
O1_3 O 0.53234(15) 0.61261(8) 0.13767(6)
O3_3 O 0.54916(14) 0.66137(7) 0.18077(6)
O7_3 O 0.80724(14) 0.51690(7) 0.23453(6)
N2_3 N 0.73536(17) 0.80356(8) 0.17571(7)
C5_3 C 0.9882(2) 0.48240(10) 0.17857(9)
C6_3 C 0.7182(2) 0.57727(10) 0.23478(8)
H3 H 0.733746 0.581422 0.259302
C7_3 C 0.6733(2) 0.56502(10) 0.16331(8)
H4_3 H 0.657828 0.560865 0.138775
C10_3 C 0.9876(2) 0.35988(10) 0.03860(9)
C11_3 C 0.5684(2) 0.62551(11) 0.16623(9)
C12_3 C 0.7550(2) 0.54429(10) 0.21503(9)
C13_3 C 0.6350(2) 0.59799(10) 0.18313(9)
C15_3 C 0.9331(2) 0.33916(10) 0.01486(9)
C16_3 C 0.8906(2) 0.45459(11) 0.23637(9)
H8 H 0.857800 0.445448 0.256540
C17_3 C 0.9577(2) 0.42953(10) 0.22402(9)
H9_3 H 0.970440 0.402961 0.235568
C19_3 C 0.9208(2) 0.50729(11) 0.19012(9)
H10_3 H 0.908111 0.533802 0.178481
C20_3 C 0.87126(19) 0.49321(10) 0.21915(8)
C21_3 C 0.9486(2) 0.27350(10) 0.04945(8)
H11 H 0.935741 0.243891 0.053073
C22_3 C 0.6587(2) 0.60415(10) 0.21883(9)
H12_3 H 0.633977 0.626955 0.232365
C24_3 C 0.9135(2) 0.29579(10) 0.02070(9)
C27_3 C 0.7338(2) 0.53815(10) 0.17913(9)
H15_3 H 0.760164 0.515897 0.165500
H16_3 H 0.766152 0.338374 0.009140
N3_3 N 0.9866(2) 0.62230(10) 0.10885(9)
C33_3 C 0.9358(4) 0.66077(15) 0.10133(12)
H20_3 H 0.973862 0.686189 0.099673
H21_3 H 0.906159 0.657396 0.077906
H26_3 H 0.977552 0.535971 0.084052
C37_3 C 0.8501(4) 0.75974(14) 0.19634(16)
H27_3 H 0.906201 0.758441 0.206137
C38_3 C 0.8073(3) 0.72322(13) 0.19010(12)
C39_3 C 0.7279(3) 0.72691(16) 0.1770(3)
H28_3 H 0.694358 0.701975 0.172343
C40_3 C 0.8139(3) 0.79946(14) 0.18871(15)
H29_3 H 0.846654 0.824741 0.192971
C41_3 C 0.6953(3) 0.76764(14) 0.1702(2)
H30_3 H 0.638885 0.769362 0.160781
C42_3 C 0.8704(3) 0.66778(15) 0.13103(13)
H31_3 H 0.831096 0.642781 0.132066
H32_3 H 0.836025 0.693779 0.125571
C43_3 C 0.9658(3) 0.63518(13) 0.17326(12)
H33_3 H 0.996929 0.639617 0.196216
H34_3 H 0.928858 0.609500 0.176056
N4_3 N 0.9123(2) 0.67307(10) 0.16576(9)
C44_3 C 0.8509(4) 0.68000(14) 0.19434(14)
H35_3 H 0.807540 0.656780 0.193849
H36_3 H 0.880455 0.678870 0.217939
Co5_3 Co 0.68880(2) 0.86247(2) 0.15879(2)
Co6_3 Co 0.46020(2) 0.67917(2) 0.14310(2)
O4_3 O 0.55128(13) 0.30041(7) 0.89199(5)
O8_3 O 0.53323(13) 0.35433(7) 0.93175(6)
C1_3 C 0.6987(2) 0.27262(10) 0.93017(9)
H1_3 H 0.681427 0.255687 0.910108
C8_3 C 0.57288(19) 0.32187(10) 0.91945(8)
C14_3 C 0.65106(19) 0.30885(10) 0.93994(9)
H7_3 H 0.909272 0.354194 0.994922
O10_3 O 0.86624(15) 0.27080(7) 0.99695(6)
C23_3 C 0.6776(2) 0.33275(10) 0.96957(8)
H13_3 H 0.645393 0.357296 0.976639
C25_3 C 0.7963(2) 0.28623(10) 0.97852(8)
C28_3 C 0.7492(2) 0.32173(10) 0.98886(9)
C30_3 C 0.7708(2) 0.26123(10) 0.94953(9)
H18 H 0.802720 0.236378 0.942964
Co7_3 Co 0.46020(2) 0.32083(2) 0.85690(2)
O2_4 O 0.09285(14) 0.12096(7) 0.30592(6)
O5_4 O 0.12092(14) 0.07016(7) 0.34610(6)
O6_4 O 0.10738(14) 0.15990(7) 0.37920(6)
N1_4 N 0.15973(17) 0.01126(8) 0.40733(7)
O9_4 O 0.11365(14) 0.10362(7) 0.41690(6)
C2_4 C 0.00649(19) 0.05704(10) 0.30509(8)
C3_4 C 0.0235(2) 0.16189(10) 0.43231(8)
C4_4 C 0.0860(2) 0.14030(10) 0.40753(8)
H2_4 H 0.022734 0.007807 0.340836
C9_4 C 0.0026(2) 0.20495(10) 0.42718(8)
H5_4 H 0.026068 0.219952 0.407151
H6_4 H 0.000791 0.110549 0.465039
C18_4 C 0.07800(19) 0.08417(11) 0.31975(9)
C29_4 C 0.0757(2) 0.00591(12) 0.41010(10)
H17_4 H 0.040018 0.030675 0.409204
O11_3 O 0.28234(15) 0.13739(8) 0.38767(6)
O12_3 O 0.29916(14) 0.08863(7) 0.43077(6)
N5_4 N 0.23536(17) 0.19644(8) 0.32429(7)
O4_4 O 0.55128(13) 0.19959(7) 0.60801(5)
O8_4 O 0.53323(13) 0.14567(7) 0.56825(6)
C1_4 C 0.6987(2) 0.22738(10) 0.56983(9)
H1_4 H 0.681427 0.244313 0.589892
C5_4 C 0.9882(2) 0.01760(10) 0.32143(9)
C8_4 C 0.57288(19) 0.17813(10) 0.58055(8)
C10_4 C 0.9876(2) 0.14012(10) 0.46140(9)
C14_4 C 0.65106(19) 0.19115(10) 0.56006(9)
C15_4 C 0.9331(2) 0.16084(10) 0.48514(9)
H7_4 H 0.909272 0.145806 0.505078
C16_4 C 0.8906(2) 0.04541(11) 0.26363(9)
H8_2 H 0.857800 0.054552 0.243460
C17_4 C 0.9577(2) 0.07047(10) 0.27598(9)
H9_4 H 0.970440 0.097039 0.264432
C20_4 C 0.87126(19) 0.00679(10) 0.28085(8)
C21_4 C 0.9486(2) 0.22650(10) 0.45055(8)
H11_2 H 0.935741 0.256109 0.446927
O10_4 O 0.86624(15) 0.22920(7) 0.50305(6)
C23_4 C 0.6776(2) 0.16725(10) 0.53043(8)
H13_4 H 0.645393 0.142704 0.523361
C24_4 C 0.9135(2) 0.20421(10) 0.47930(9)
C25_4 C 0.7963(2) 0.21377(10) 0.52148(8)
C28_4 C 0.7492(2) 0.17827(10) 0.51114(9)
H16_4 H 0.766152 0.161626 0.490860
C30_4 C 0.7708(2) 0.23877(10) 0.55047(9)
H18_2 H 0.802720 0.263622 0.557036
Co4_3 Co 0.43880(2) 0.11247(2) 0.59121(2)
Co7_4 Co 0.46020(2) 0.17917(2) 0.64310(2)
O1_4 O 0.53234(15) 0.88739(8) 0.36233(6)
O3_4 O 0.54916(14) 0.83863(7) 0.31923(6)
O7_4 O 0.80724(14) 0.98310(7) 0.26547(6)
N2_4 N 0.73536(17) 0.69644(8) 0.32429(7)
C6_4 C 0.7182(2) 0.92273(10) 0.26522(8)
H3_2 H 0.733746 0.918578 0.240698
C7_4 C 0.6733(2) 0.93498(10) 0.33669(8)
H4_4 H 0.657828 0.939135 0.361225
C11_4 C 0.5684(2) 0.87449(11) 0.33377(9)
C12_4 C 0.7550(2) 0.95571(10) 0.28497(9)
C13_4 C 0.6350(2) 0.90201(10) 0.31687(9)
C19_4 C 0.9208(2) 0.99271(11) 0.30988(9)
H10_4 H 0.908111 0.966198 0.321519
C22_4 C 0.6587(2) 0.89585(10) 0.28117(9)
H12_4 H 0.633977 0.873045 0.267635
C27_4 C 0.7338(2) 0.96185(10) 0.32087(9)
H15_4 H 0.760164 0.984103 0.334500
N3_4 N 0.9866(2) 0.87770(10) 0.39115(9)
C33_4 C 0.9358(4) 0.83923(15) 0.39867(12)
H20_4 H 0.973862 0.813811 0.400327
H21_4 H 0.906159 0.842604 0.422094
H26_4 H 0.977552 0.964029 0.415948
C37_4 C 0.8501(4) 0.74026(14) 0.30366(16)
H27_4 H 0.906201 0.741559 0.293863
C38_4 C 0.8073(3) 0.77678(13) 0.30990(12)
C39_4 C 0.7279(3) 0.77309(16) 0.3230(3)
H28_4 H 0.694358 0.798025 0.327657
C40_4 C 0.8139(3) 0.70054(14) 0.31129(15)
H29_4 H 0.846654 0.675259 0.307029
C41_4 C 0.6953(3) 0.73236(14) 0.3298(2)
H30_4 H 0.638885 0.730638 0.339219
C42_4 C 0.8704(3) 0.83222(15) 0.36897(13)
H31_4 H 0.831096 0.857219 0.367934
H32_4 H 0.836025 0.806221 0.374429
C43_4 C 0.9658(3) 0.86482(13) 0.32674(12)
H33_4 H 0.996929 0.860383 0.303784
H34_4 H 0.928858 0.890500 0.323944
N4_4 N 0.9123(2) 0.82693(10) 0.33424(9)
C44_4 C 0.8509(4) 0.82000(14) 0.30566(14)
H35_4 H 0.807540 0.843220 0.306151
H36_4 H 0.880455 0.821130 0.282061
Co3_3 Co 0.43880(2) 0.88753(2) 0.40879(2)
Co5_4 Co 0.68880(2) 0.63753(2) 0.34121(2)
Co6_4 Co 0.46020(2) 0.82083(2) 0.35690(2)
H14_4 H 0.018149 0.770544 0.657759
O11_4 O 0.03234(15) 0.61261(8) 0.63767(6)
O12_4 O 0.04916(14) 0.66137(7) 0.68077(6)
O13_4 O 0.05128(13) 0.69959(7) 0.60801(5)
O14_4 O 0.03323(13) 0.64567(7) 0.56825(6)
N2_5 N 0.48536(17) 0.05356(8) 0.57429(7)
C37_5 C 0.6001(4) 0.00974(14) 0.55366(16)
H27_5 H 0.656201 0.008441 0.543863
C40_5 C 0.5639(3) 0.04946(14) 0.56129(15)
H29_5 H 0.596654 0.074741 0.557029
C41_5 C 0.4453(3) 0.01764(14) 0.5798(2)
H30_5 H 0.388885 0.019362 0.589219
Co1_3 Co 0.93880(2) 0.61247(2) 0.59121(2)
Co2_3 Co 0.96020(2) 0.67917(2) 0.64310(2)
O1_5 O 0.28234(15) 0.86261(8) 0.61233(6)
O2_5 O 0.84285(14) 0.62904(7) 0.55592(6)
O3_5 O 0.29916(14) 0.91137(7) 0.56923(6)
O4_5 O 0.30128(13) 0.55041(7) 0.85801(5)
O5_5 O 0.87092(14) 0.67984(7) 0.59610(6)
O6_5 O 0.85738(14) 0.59010(7) 0.62920(6)
N1_5 N 0.90973(17) 0.73874(8) 0.65733(7)
O7_5 O 0.55724(14) 0.76690(7) 0.51547(6)
O8_5 O 0.28323(13) 0.60433(7) 0.81825(6)
O9_5 O 0.86365(14) 0.64638(7) 0.66690(6)
C1_5 C 0.4487(2) 0.52262(10) 0.81983(9)
H1_5 H 0.431427 0.505687 0.839892
C2_5 C 0.75649(19) 0.69296(10) 0.55509(8)
C3_5 C 0.7735(2) 0.58811(10) 0.68231(8)
C4_5 C 0.8360(2) 0.60970(10) 0.65753(8)
C5_5 C 0.7382(2) 0.73240(10) 0.57143(9)
H2_5 H 0.772734 0.742193 0.590836
C6_5 C 0.4682(2) 0.82727(10) 0.51522(8)
H3_3 H 0.483746 0.831422 0.490698
C7_5 C 0.4233(2) 0.81502(10) 0.58669(8)
H4_5 H 0.407828 0.810865 0.611225
C8_5 C 0.32288(19) 0.57187(10) 0.83055(8)
C9_5 C 0.7526(2) 0.54505(10) 0.67718(8)
H5_5 H 0.776068 0.530048 0.657151
C10_5 C 0.7376(2) 0.60988(10) 0.71140(9)
H6_5 H 0.750791 0.639451 0.715039
C11_5 C 0.3184(2) 0.87551(11) 0.58377(9)
C12_5 C 0.5050(2) 0.79429(10) 0.53497(9)
C13_5 C 0.3850(2) 0.84799(10) 0.56687(9)
C14_5 C 0.40106(19) 0.55885(10) 0.81006(9)
C15_5 C 0.6831(2) 0.58916(10) 0.73514(9)
H7_5 H 0.659272 0.604194 0.755078
C16_5 C 0.6406(2) 0.70459(11) 0.51363(9)
H8_3 H 0.607800 0.695448 0.493460
C17_5 C 0.7077(2) 0.67953(10) 0.52598(9)
H9_5 H 0.720440 0.652961 0.514432
C18_5 C 0.82800(19) 0.66583(11) 0.56975(9)
C19_5 C 0.6708(2) 0.75729(11) 0.55988(9)
H10_5 H 0.658111 0.783802 0.571519
C20_5 C 0.62126(19) 0.74321(10) 0.53085(8)
C21_5 C 0.6986(2) 0.52350(10) 0.70055(8)
H11_3 H 0.685741 0.493891 0.696927
O10_5 O 0.61624(15) 0.52080(7) 0.75305(6)
C22_5 C 0.4087(2) 0.85415(10) 0.53117(9)
H12_5 H 0.383977 0.876955 0.517635
C23_5 C 0.4276(2) 0.58275(10) 0.78043(8)
H13_5 H 0.395393 0.607296 0.773361
C24_5 C 0.6635(2) 0.54579(10) 0.72930(9)
C25_5 C 0.5463(2) 0.53623(10) 0.77148(8)
C26_4 C 0.9579(2) 0.77365(12) 0.65958(11)
C27_5 C 0.4838(2) 0.78815(10) 0.57087(9)
H15_5 H 0.510164 0.765897 0.584500
C28_5 C 0.4992(2) 0.57173(10) 0.76114(9)
H16_5 H 0.516152 0.588374 0.740860
C29_5 C 0.8257(2) 0.74409(12) 0.66010(10)
H17_5 H 0.790018 0.719325 0.659204
C30_5 C 0.5208(2) 0.51123(10) 0.80047(9)
H18_3 H 0.552720 0.486378 0.807036
C31_4 C 0.8383(3) 0.82033(11) 0.66580(10)
C32_4 C 0.9243(3) 0.81465(12) 0.66448(12)
H19_4 H 0.961519 0.838686 0.666911
N3_5 N 0.7366(2) 0.87230(10) 0.64115(9)
C33_5 C 0.6858(4) 0.91077(15) 0.64867(12)
H20_5 H 0.723862 0.936189 0.650327
H21_5 H 0.656159 0.907396 0.672094
C34_4 C 0.7977(4) 0.86460(14) 0.66967(13)
H22_4 H 0.768597 0.866622 0.693310
H23_4 H 0.842839 0.886963 0.668869
C35_4 C 0.7782(3) 0.87746(14) 0.60609(11)
H24_4 H 0.811526 0.851166 0.600555
H25_4 H 0.818536 0.901996 0.607270
C36_4 C 0.7880(3) 0.78369(13) 0.66421(12)
H26_5 H 0.727552 0.785971 0.665948
C38_5 C 0.5573(3) 0.97322(13) 0.55990(12)
C39_5 C 0.4779(3) 0.97691(16) 0.5730(3)
H28_5 H 0.444358 0.951975 0.577657
C42_5 C 0.6204(3) 0.91778(15) 0.61897(13)
H31_5 H 0.581096 0.892781 0.617934
H32_5 H 0.586025 0.943779 0.624429
C43_5 C 0.7158(3) 0.88518(13) 0.57674(12)
H33_5 H 0.746929 0.889617 0.553784
H34_5 H 0.678858 0.859500 0.573944
N4_5 N 0.6623(2) 0.92307(10) 0.58424(9)
C44_5 C 0.6009(4) 0.93000(14) 0.55566(14)
H35_5 H 0.557540 0.906780 0.556151
H36_5 H 0.630455 0.928870 0.532061
N5_5 N 0.98536(17) 0.55356(8) 0.57429(7)
H14_5 H 0.018149 0.229456 0.342241
O11_5 O 0.03234(15) 0.38739(8) 0.36233(6)
O12_5 O 0.04916(14) 0.33863(7) 0.31923(6)
O13_5 O 0.05128(13) 0.30041(7) 0.39199(5)
O14_5 O 0.03323(13) 0.35433(7) 0.43175(6)
Co1_4 Co 0.93880(2) 0.38753(2) 0.40879(2)
Co2_4 Co 0.96020(2) 0.32083(2) 0.35690(2)
O2_6 O 0.84285(14) 0.37096(7) 0.44408(6)
O5_6 O 0.87092(14) 0.32016(7) 0.40390(6)
O6_6 O 0.85738(14) 0.40990(7) 0.37080(6)
N1_6 N 0.90973(17) 0.26126(8) 0.34267(7)
O7_6 O 0.55724(14) 0.23310(7) 0.48453(6)
O9_6 O 0.86365(14) 0.35362(7) 0.33310(6)
C1_6 C 0.4487(2) 0.47738(10) 0.18017(9)
H1_6 H 0.431427 0.494313 0.160108
C2_6 C 0.75649(19) 0.30704(10) 0.44491(8)
C3_6 C 0.7735(2) 0.41189(10) 0.31769(8)
C4_6 C 0.8360(2) 0.39030(10) 0.34247(8)
C5_6 C 0.7382(2) 0.26760(10) 0.42857(9)
H2_6 H 0.772734 0.257807 0.409164
C6_6 C 0.4682(2) 0.17273(10) 0.48478(8)
H3_4 H 0.483746 0.168578 0.509302
C7_6 C 0.4233(2) 0.18498(10) 0.41331(8)
H4_6 H 0.407828 0.189135 0.388775
C8_6 C 0.32288(19) 0.42813(10) 0.16945(8)
C9_6 C 0.7526(2) 0.45495(10) 0.32282(8)
H5_6 H 0.776068 0.469952 0.342849
C10_6 C 0.7376(2) 0.39012(10) 0.28860(9)
H6_6 H 0.750791 0.360549 0.284961
C11_6 C 0.3184(2) 0.12449(11) 0.41623(9)
C12_6 C 0.5050(2) 0.20571(10) 0.46503(9)
C13_6 C 0.3850(2) 0.15201(10) 0.43313(9)
C14_6 C 0.40106(19) 0.44115(10) 0.18994(9)
C15_6 C 0.6831(2) 0.41084(10) 0.26486(9)
H7_6 H 0.659272 0.395806 0.244922
C16_6 C 0.6406(2) 0.29541(11) 0.48637(9)
H8_4 H 0.607800 0.304552 0.506540
C17_6 C 0.7077(2) 0.32047(10) 0.47402(9)
H9_6 H 0.720440 0.347039 0.485568
C18_6 C 0.82800(19) 0.33417(11) 0.43025(9)
C19_6 C 0.6708(2) 0.24271(11) 0.44012(9)
H10_6 H 0.658111 0.216198 0.428481
C20_6 C 0.62126(19) 0.25679(10) 0.46915(8)
C21_6 C 0.6986(2) 0.47650(10) 0.29945(8)
H11_4 H 0.685741 0.506109 0.303073
O10_6 O 0.61624(15) 0.47920(7) 0.24695(6)
C22_6 C 0.4087(2) 0.14585(10) 0.46883(9)
H12_6 H 0.383977 0.123045 0.482365
C23_6 C 0.4276(2) 0.41725(10) 0.21957(8)
H13_6 H 0.395393 0.392704 0.226639
C24_6 C 0.6635(2) 0.45421(10) 0.27070(9)
C25_6 C 0.5463(2) 0.46377(10) 0.22852(8)
C26_5 C 0.9579(2) 0.22635(12) 0.34042(11)
C27_6 C 0.4838(2) 0.21185(10) 0.42913(9)
H15_6 H 0.510164 0.234103 0.415500
C28_6 C 0.4992(2) 0.42827(10) 0.23886(9)
H16_6 H 0.516152 0.411626 0.259140
C29_6 C 0.8257(2) 0.25591(12) 0.33990(10)
H17_6 H 0.790018 0.280675 0.340796
C30_6 C 0.5208(2) 0.48877(10) 0.19953(9)
H18_4 H 0.552720 0.513622 0.192964
C31_5 C 0.8383(3) 0.17967(11) 0.33420(10)
C32_5 C 0.9243(3) 0.18535(12) 0.33552(12)
H19_5 H 0.961519 0.161314 0.333089
N3_6 N 0.7366(2) 0.12770(10) 0.35885(9)
C33_6 C 0.6858(4) 0.08923(15) 0.35133(12)
H20_6 H 0.723862 0.063811 0.349673
H21_6 H 0.656159 0.092604 0.327906
C34_5 C 0.7977(4) 0.13540(14) 0.33033(13)
H22_5 H 0.768597 0.133378 0.306690
H23_5 H 0.842839 0.113037 0.331131
C35_5 C 0.7782(3) 0.12254(14) 0.39391(11)
H24_5 H 0.811526 0.148834 0.399445
H25_5 H 0.818536 0.098004 0.392730
C36_5 C 0.7880(3) 0.21631(13) 0.33579(12)
H26_6 H 0.727552 0.214029 0.334052
C38_6 C 0.5573(3) 0.02678(13) 0.44010(12)
C39_6 C 0.4779(3) 0.02309(16) 0.4270(3)
H28_6 H 0.444358 0.048025 0.422343
C42_6 C 0.6204(3) 0.08222(15) 0.38103(13)
H31_6 H 0.581096 0.107219 0.382066
H32_6 H 0.586025 0.056221 0.375571
C43_6 C 0.7158(3) 0.11482(13) 0.42326(12)
H33_6 H 0.746929 0.110383 0.446216
H34_6 H 0.678858 0.140500 0.426056
N4_6 N 0.6623(2) 0.07693(10) 0.41576(9)
C44_6 C 0.6009(4) 0.07000(14) 0.44434(14)
H35_6 H 0.557540 0.093220 0.443849
H36_6 H 0.630455 0.071130 0.467939
N5_6 N 0.98536(17) 0.44644(8) 0.42571(7)
N2_6 N 0.48536(17) 0.94644(8) 0.42571(7)
C37_6 C 0.6001(4) 0.99026(14) 0.44634(16)
H27_6 H 0.656201 0.991559 0.456137
C40_6 C 0.5639(3) 0.95054(14) 0.43871(15)
H29_6 H 0.596654 0.925259 0.442971
C41_6 C 0.4453(3) 0.98236(14) 0.4202(2)
H30_6 H 0.388885 0.980638 0.410781
O2_7 O 0.09285(14) 0.87904(7) 0.69408(6)
O5_7 O 0.12092(14) 0.92984(7) 0.65390(6)
O6_7 O 0.10738(14) 0.84010(7) 0.62080(6)
N1_7 N 0.15973(17) 0.98874(8) 0.59267(7)
O9_7 O 0.11365(14) 0.89638(7) 0.58310(6)
C2_7 C 0.00649(19) 0.94296(10) 0.69491(8)
C3_7 C 0.0235(2) 0.83811(10) 0.56769(8)
C4_7 C 0.0860(2) 0.85970(10) 0.59247(8)
H2_7 H 0.022734 0.992193 0.659164
C9_7 C 0.0026(2) 0.79505(10) 0.57282(8)
H5_7 H 0.026068 0.780048 0.592849
H6_7 H 0.000791 0.889451 0.534961
C18_7 C 0.07800(19) 0.91583(11) 0.68025(9)
C29_7 C 0.0757(2) 0.99409(12) 0.58990(10)
H17_7 H 0.040018 0.969325 0.590796
N5_7 N 0.23536(17) 0.80356(8) 0.67571(7)
O1_6 O 0.53234(15) 0.11261(8) 0.63767(6)
O3_6 O 0.54916(14) 0.16137(7) 0.68077(6)
O7_7 O 0.80724(14) 0.01690(7) 0.73453(6)
N2_7 N 0.73536(17) 0.30356(8) 0.67571(7)
C6_7 C 0.7182(2) 0.07727(10) 0.73478(8)
H3_5 H 0.733746 0.081422 0.759302
C7_7 C 0.6733(2) 0.06502(10) 0.66331(8)
H4_7 H 0.657828 0.060865 0.638775
C11_7 C 0.5684(2) 0.12551(11) 0.66623(9)
C12_7 C 0.7550(2) 0.04429(10) 0.71503(9)
C13_7 C 0.6350(2) 0.09799(10) 0.68313(9)
C19_7 C 0.9208(2) 0.00729(11) 0.69012(9)
H10_7 H 0.908111 0.033802 0.678481
C22_7 C 0.6587(2) 0.10415(10) 0.71883(9)
H12_7 H 0.633977 0.126955 0.732365
C27_7 C 0.7338(2) 0.03815(10) 0.67913(9)
H15_7 H 0.760164 0.015897 0.665500
N3_7 N 0.9866(2) 0.12230(10) 0.60885(9)
C33_7 C 0.9358(4) 0.16077(15) 0.60133(12)
H20_7 H 0.973862 0.186189 0.599673
H21_7 H 0.906159 0.157396 0.577906
H26_7 H 0.977552 0.035971 0.584052
C37_7 C 0.8501(4) 0.25974(14) 0.69634(16)
H27_7 H 0.906201 0.258441 0.706137
C38_7 C 0.8073(3) 0.22322(13) 0.69010(12)
C39_7 C 0.7279(3) 0.22691(16) 0.6770(3)
H28_7 H 0.694358 0.201975 0.672343
C40_7 C 0.8139(3) 0.29946(14) 0.68871(15)
H29_7 H 0.846654 0.324741 0.692971
C41_7 C 0.6953(3) 0.26764(14) 0.6702(2)
H30_7 H 0.638885 0.269362 0.660781
C42_7 C 0.8704(3) 0.16778(15) 0.63103(13)
H31_7 H 0.831096 0.142781 0.632066
H32_7 H 0.836025 0.193779 0.625571
C43_7 C 0.9658(3) 0.13518(13) 0.67326(12)
H33_7 H 0.996929 0.139617 0.696216
H34_7 H 0.928858 0.109500 0.676056
N4_7 N 0.9123(2) 0.17307(10) 0.66576(9)
C44_7 C 0.8509(4) 0.18000(14) 0.69434(14)
H35_7 H 0.807540 0.156780 0.693849
H36_7 H 0.880455 0.178870 0.717939
Co5_5 Co 0.68880(2) 0.36247(2) 0.65879(2)
O4_6 O 0.55128(13) 0.80041(7) 0.39199(5)
O8_6 O 0.53323(13) 0.85433(7) 0.43175(6)
C1_7 C 0.6987(2) 0.77262(10) 0.43017(9)
H1_7 H 0.681427 0.755687 0.410108
C5_7 C 0.9882(2) 0.98240(10) 0.67857(9)
C8_7 C 0.57288(19) 0.82187(10) 0.41945(8)
C10_7 C 0.9876(2) 0.85988(10) 0.53860(9)
C14_7 C 0.65106(19) 0.80885(10) 0.43994(9)
C15_7 C 0.9331(2) 0.83916(10) 0.51486(9)
H7_7 H 0.909272 0.854194 0.494922
C16_7 C 0.8906(2) 0.95459(11) 0.73637(9)
H8_5 H 0.857800 0.945448 0.756540
C17_7 C 0.9577(2) 0.92953(10) 0.72402(9)
H9_7 H 0.970440 0.902961 0.735568
C20_7 C 0.87126(19) 0.99321(10) 0.71915(8)
C21_7 C 0.9486(2) 0.77350(10) 0.54945(8)
H11_5 H 0.935741 0.743891 0.553073
O10_7 O 0.86624(15) 0.77080(7) 0.49695(6)
C23_7 C 0.6776(2) 0.83275(10) 0.46957(8)
H13_7 H 0.645393 0.857296 0.476639
C24_7 C 0.9135(2) 0.79579(10) 0.52070(9)
C25_7 C 0.7963(2) 0.78623(10) 0.47852(8)
C28_7 C 0.7492(2) 0.82173(10) 0.48886(9)
H16_7 H 0.766152 0.838374 0.509140
C30_7 C 0.7708(2) 0.76123(10) 0.44953(9)
H18_5 H 0.802720 0.736378 0.442964
O2_8 O 0.09285(14) 0.62096(7) 0.80592(6)
O5_8 O 0.12092(14) 0.57016(7) 0.84610(6)
O6_8 O 0.10738(14) 0.65990(7) 0.87920(6)
N1_8 N 0.15973(17) 0.51126(8) 0.90733(7)
O9_8 O 0.11365(14) 0.60362(7) 0.91690(6)
C2_8 C 0.00649(19) 0.55704(10) 0.80509(8)
C3_8 C 0.0235(2) 0.66189(10) 0.93231(8)
C4_8 C 0.0860(2) 0.64030(10) 0.90753(8)
H2_8 H 0.022734 0.507807 0.840836
C9_8 C 0.0026(2) 0.70495(10) 0.92718(8)
H5_8 H 0.026068 0.719952 0.907151
H6_8 H 0.000791 0.610549 0.965039
C18_8 C 0.07800(19) 0.58417(11) 0.81975(9)
C26_6 C 0.2079(2) 0.47635(12) 0.90958(11)
H14_6 H 0.268149 0.479456 0.907759
C29_8 C 0.0757(2) 0.50591(12) 0.91010(10)
H17_8 H 0.040018 0.530675 0.909204
C31_6 C 0.0883(3) 0.42967(11) 0.91580(10)
C32_6 C 0.1743(3) 0.43535(12) 0.91448(12)
H19_6 H 0.211519 0.411314 0.916911
C34_6 C 0.0477(4) 0.38540(14) 0.91967(13)
H22_6 H 0.018597 0.383378 0.943310
H23_6 H 0.092839 0.363037 0.918869
C35_6 C 0.0282(3) 0.37254(14) 0.85609(11)
H24_6 H 0.061526 0.398834 0.850555
H25_6 H 0.068536 0.348004 0.857270
C36_6 C 0.0380(3) 0.46631(13) 0.91421(12)
N5_8 N 0.23536(17) 0.69644(8) 0.82429(7)
O4_7 O 0.55128(13) 0.69959(7) 0.10801(5)
O8_7 O 0.53323(13) 0.64567(7) 0.06825(6)
C1_8 C 0.6987(2) 0.72738(10) 0.06983(9)
H1_8 H 0.681427 0.744313 0.089892
C8_8 C 0.57288(19) 0.67813(10) 0.08055(8)
C14_8 C 0.65106(19) 0.69115(10) 0.06006(9)
H7_8 H 0.909272 0.645806 0.005078
O10_8 O 0.86624(15) 0.72920(7) 0.00305(6)
C23_8 C 0.6776(2) 0.66725(10) 0.03043(8)
H13_8 H 0.645393 0.642704 0.023361
C25_8 C 0.7963(2) 0.71377(10) 0.02148(8)
C28_8 C 0.7492(2) 0.67827(10) 0.01114(9)
C30_8 C 0.7708(2) 0.73877(10) 0.05047(9)
H18_6 H 0.802720 0.763622 0.057036
O1_7 O 0.53234(15) 0.38739(8) 0.86233(6)
O3_7 O 0.54916(14) 0.33863(7) 0.81923(6)
O7_8 O 0.80724(14) 0.48310(7) 0.76547(6)
N2_8 N 0.73536(17) 0.19644(8) 0.82429(7)
C5_8 C 0.9882(2) 0.51760(10) 0.82143(9)
C6_8 C 0.7182(2) 0.42273(10) 0.76522(8)
H3_6 H 0.733746 0.418578 0.740698
C7_8 C 0.6733(2) 0.43498(10) 0.83669(8)
H4_8 H 0.657828 0.439135 0.861225
C10_8 C 0.9876(2) 0.64012(10) 0.96140(9)
C11_8 C 0.5684(2) 0.37449(11) 0.83377(9)
C12_8 C 0.7550(2) 0.45571(10) 0.78497(9)
C13_8 C 0.6350(2) 0.40201(10) 0.81687(9)
C15_8 C 0.9331(2) 0.66084(10) 0.98514(9)
C16_8 C 0.8906(2) 0.54541(11) 0.76363(9)
H8_6 H 0.857800 0.554552 0.743460
C17_8 C 0.9577(2) 0.57047(10) 0.77598(9)
H9_8 H 0.970440 0.597039 0.764432
C19_8 C 0.9208(2) 0.49271(11) 0.80988(9)
H10_8 H 0.908111 0.466198 0.821519
C20_8 C 0.87126(19) 0.50679(10) 0.78085(8)
C21_8 C 0.9486(2) 0.72650(10) 0.95055(8)
H11_6 H 0.935741 0.756109 0.946927
C22_8 C 0.6587(2) 0.39585(10) 0.78117(9)
H12_8 H 0.633977 0.373045 0.767635
C24_8 C 0.9135(2) 0.70421(10) 0.97930(9)
C27_8 C 0.7338(2) 0.46185(10) 0.82087(9)
H15_8 H 0.760164 0.484103 0.834500
H16_8 H 0.766152 0.661626 0.990860
N3_8 N 0.9866(2) 0.37770(10) 0.89115(9)
C33_8 C 0.9358(4) 0.33923(15) 0.89867(12)
H20_8 H 0.973862 0.313811 0.900327
H21_8 H 0.906159 0.342604 0.922094
H26_8 H 0.977552 0.464029 0.915948
C37_8 C 0.8501(4) 0.24026(14) 0.80366(16)
H27_8 H 0.906201 0.241559 0.793863
C38_8 C 0.8073(3) 0.27678(13) 0.80990(12)
C39_8 C 0.7279(3) 0.27309(16) 0.8230(3)
H28_8 H 0.694358 0.298025 0.827657
C40_8 C 0.8139(3) 0.20054(14) 0.81129(15)
H29_8 H 0.846654 0.175259 0.807029
C41_8 C 0.6953(3) 0.23236(14) 0.8298(2)
H30_8 H 0.638885 0.230638 0.839219
C42_8 C 0.8704(3) 0.33222(15) 0.86897(13)
H31_8 H 0.831096 0.357219 0.867934
H32_8 H 0.836025 0.306221 0.874429
C43_8 C 0.9658(3) 0.36482(13) 0.82674(12)
H33_8 H 0.996929 0.360383 0.803784
H34_8 H 0.928858 0.390500 0.823944
N4_8 N 0.9123(2) 0.32693(10) 0.83424(9)
C44_8 C 0.8509(4) 0.32000(14) 0.80566(14)
H35_8 H 0.807540 0.343220 0.806151
H36_8 H 0.880455 0.321130 0.782061
Co5_6 Co 0.68880(2) 0.13753(2) 0.84121(2)
O2_9 O 0.34285(14) 0.12904(7) 0.55592(6)
O5_9 O 0.37092(14) 0.17984(7) 0.59610(6)
O6_9 O 0.35738(14) 0.09010(7) 0.62920(6)
N1_9 N 0.40973(17) 0.23874(8) 0.65733(7)
O7_9 O 0.05724(14) 0.26690(7) 0.51547(6)
O9_9 O 0.36365(14) 0.14638(7) 0.66690(6)
C2_9 C 0.25649(19) 0.19296(10) 0.55509(8)
C3_9 C 0.2735(2) 0.08811(10) 0.68231(8)
C4_9 C 0.3360(2) 0.10970(10) 0.65753(8)
C5_9 C 0.2382(2) 0.23240(10) 0.57143(9)
H2_9 H 0.272734 0.242193 0.590836
C9_9 C 0.2526(2) 0.04505(10) 0.67718(8)
H5_9 H 0.276068 0.030048 0.657151
C10_9 C 0.2376(2) 0.10988(10) 0.71140(9)
H6_9 H 0.250791 0.139451 0.715039
C12_9 C 0.0050(2) 0.29429(10) 0.53497(9)
C15_9 C 0.1831(2) 0.08916(10) 0.73514(9)
H7_9 H 0.159272 0.104194 0.755078
C16_9 C 0.1406(2) 0.20459(11) 0.51363(9)
H8_7 H 0.107800 0.195448 0.493460
C17_9 C 0.2077(2) 0.17953(10) 0.52598(9)
H9_9 H 0.220440 0.152961 0.514432
C18_9 C 0.32800(19) 0.16583(11) 0.56975(9)
C19_9 C 0.1708(2) 0.25729(11) 0.55988(9)
H10_9 H 0.158111 0.283802 0.571519
C20_9 C 0.12126(19) 0.24321(10) 0.53085(8)
C21_9 C 0.1986(2) 0.02350(10) 0.70055(8)
O10_9 O 0.11624(15) 0.02080(7) 0.75305(6)
C24_9 C 0.1635(2) 0.04579(10) 0.72930(9)
C25_9 C 0.0463(2) 0.03623(10) 0.77148(8)
C26_7 C 0.4579(2) 0.27365(12) 0.65958(11)
H14_7 H 0.518149 0.270544 0.657759
H15_9 H 0.010164 0.265897 0.584500
H16_9 H 0.016152 0.088374 0.740860
C29_9 C 0.3257(2) 0.24409(12) 0.66010(10)
H17_9 H 0.290018 0.219325 0.659204
C30_9 C 0.0208(2) 0.01123(10) 0.80047(9)
C31_7 C 0.3383(3) 0.32033(11) 0.66580(10)
C32_7 C 0.4243(3) 0.31465(12) 0.66448(12)
H19_7 H 0.461519 0.338686 0.666911
N3_9 N 0.2366(2) 0.37230(10) 0.64115(9)
C33_9 C 0.1858(4) 0.41077(15) 0.64867(12)
H20_9 H 0.223862 0.436189 0.650327
H21_9 H 0.156159 0.407396 0.672094
C34_7 C 0.2977(4) 0.36460(14) 0.66967(13)
H22_7 H 0.268597 0.366622 0.693310
H23_7 H 0.342839 0.386963 0.668869
C35_7 C 0.2782(3) 0.37746(14) 0.60609(11)
H24_7 H 0.311526 0.351166 0.600555
H25_7 H 0.318536 0.401996 0.607270
C36_7 C 0.2880(3) 0.28369(13) 0.66421(12)
H26_9 H 0.227552 0.285971 0.665948
C37_9 C 0.1001(4) 0.50974(14) 0.55366(16)
H27_9 H 0.156201 0.508441 0.543863
C38_9 C 0.0573(3) 0.47322(13) 0.55990(12)
C40_9 C 0.0639(3) 0.54946(14) 0.56129(15)
H29_9 H 0.096654 0.574741 0.557029
C42_9 C 0.1204(3) 0.41778(15) 0.61897(13)
H31_9 H 0.081096 0.392781 0.617934
H32_9 H 0.086025 0.443779 0.624429
C43_9 C 0.2158(3) 0.38518(13) 0.57674(12)
H33_9 H 0.246929 0.389617 0.553784
H34_9 H 0.178858 0.359500 0.573944
N4_9 N 0.1623(2) 0.42307(10) 0.58424(9)
C44_9 C 0.1009(4) 0.43000(14) 0.55566(14)
H35_9 H 0.057540 0.406780 0.556151
H36_9 H 0.130455 0.428870 0.532061
O1_8 O 0.78234(15) 0.36261(8) 0.61233(6)
O3_8 O 0.79916(14) 0.41137(7) 0.56923(6)
O4_8 O 0.80128(13) 0.05041(7) 0.85801(5)
O8_8 O 0.78323(13) 0.10433(7) 0.81825(6)
C1_9 C 0.9487(2) 0.02262(10) 0.81983(9)
H1_9 H 0.931427 0.005687 0.839892
C6_9 C 0.9682(2) 0.32727(10) 0.51522(8)
H3_7 H 0.983746 0.331422 0.490698
C7_9 C 0.9233(2) 0.31502(10) 0.58669(8)
H4_9 H 0.907828 0.310865 0.611225
C8_9 C 0.82288(19) 0.07187(10) 0.83055(8)
C11_9 C 0.8184(2) 0.37551(11) 0.58377(9)
C13_9 C 0.8850(2) 0.34799(10) 0.56687(9)
C14_9 C 0.90106(19) 0.05885(10) 0.81006(9)
C22_9 C 0.9087(2) 0.35415(10) 0.53117(9)
H12_9 H 0.883977 0.376955 0.517635
C23_9 C 0.9276(2) 0.08275(10) 0.78043(8)
H13_9 H 0.895393 0.107296 0.773361
C27_9 C 0.9838(2) 0.28815(10) 0.57087(9)
C28_9 C 0.9992(2) 0.07173(10) 0.76114(9)
C39_9 C 0.9779(3) 0.47691(16) 0.5730(3)
H28_9 H 0.944358 0.451975 0.577657
C41_9 C 0.9453(3) 0.51764(14) 0.5798(2)
H30_9 H 0.888885 0.519362 0.589219
Co6_5 Co 0.71020(2) 0.42917(2) 0.60690(2)
Co7_5 Co 0.71020(2) 0.07083(2) 0.89310(2)
O2_10 O 0.34285(14) 0.87096(7) 0.44408(6)
O5_10 O 0.37092(14) 0.82016(7) 0.40390(6)
O6_10 O 0.35738(14) 0.90990(7) 0.37080(6)
N1_10 N 0.40973(17) 0.76126(8) 0.34267(7)
O7_10 O 0.05724(14) 0.73310(7) 0.48453(6)
O9_10 O 0.36365(14) 0.85362(7) 0.33310(6)
C2_10 C 0.25649(19) 0.80704(10) 0.44491(8)
C3_10 C 0.2735(2) 0.91189(10) 0.31769(8)
C4_10 C 0.3360(2) 0.89030(10) 0.34247(8)
C5_10 C 0.2382(2) 0.76760(10) 0.42857(9)
H2_10 H 0.272734 0.757807 0.409164
C9_10 C 0.2526(2) 0.95495(10) 0.32282(8)
H5_10 H 0.276068 0.969952 0.342849
C10_10 C 0.2376(2) 0.89012(10) 0.28860(9)
H6_10 H 0.250791 0.860549 0.284961
C12_10 C 0.0050(2) 0.70571(10) 0.46503(9)
C15_10 C 0.1831(2) 0.91084(10) 0.26486(9)
H7_10 H 0.159272 0.895806 0.244922
C16_10 C 0.1406(2) 0.79541(11) 0.48637(9)
H8_8 H 0.107800 0.804552 0.506540
C17_10 C 0.2077(2) 0.82047(10) 0.47402(9)
H9_10 H 0.220440 0.847039 0.485568
C18_10 C 0.32800(19) 0.83417(11) 0.43025(9)
C19_10 C 0.1708(2) 0.74271(11) 0.44012(9)
H10_10 H 0.158111 0.716198 0.428481
C20_10 C 0.12126(19) 0.75679(10) 0.46915(8)
C21_10 C 0.1986(2) 0.97650(10) 0.29945(8)
O10_10 O 0.11624(15) 0.97920(7) 0.24695(6)
C24_10 C 0.1635(2) 0.95421(10) 0.27070(9)
C25_10 C 0.0463(2) 0.96377(10) 0.22852(8)
C26_8 C 0.4579(2) 0.72635(12) 0.34042(11)
H14_8 H 0.518149 0.729456 0.342241
H15_10 H 0.010164 0.734103 0.415500
H16_10 H 0.016152 0.911626 0.259140
C29_10 C 0.3257(2) 0.75591(12) 0.33990(10)
H17_10 H 0.290018 0.780675 0.340796
C30_10 C 0.0208(2) 0.98877(10) 0.19953(9)
C31_8 C 0.3383(3) 0.67967(11) 0.33420(10)
C32_8 C 0.4243(3) 0.68535(12) 0.33552(12)
H19_8 H 0.461519 0.661314 0.333089
N3_10 N 0.2366(2) 0.62770(10) 0.35885(9)
C33_10 C 0.1858(4) 0.58923(15) 0.35133(12)
H20_10 H 0.223862 0.563811 0.349673
H21_10 H 0.156159 0.592604 0.327906
C34_8 C 0.2977(4) 0.63540(14) 0.33033(13)
H22_8 H 0.268597 0.633378 0.306690
H23_8 H 0.342839 0.613037 0.331131
C35_8 C 0.2782(3) 0.62254(14) 0.39391(11)
H24_8 H 0.311526 0.648834 0.399445
H25_8 H 0.318536 0.598004 0.392730
C36_8 C 0.2880(3) 0.71631(13) 0.33579(12)
H26_10 H 0.227552 0.714029 0.334052
C37_10 C 0.1001(4) 0.49026(14) 0.44634(16)
H27_10 H 0.156201 0.491559 0.456137
C38_10 C 0.0573(3) 0.52678(13) 0.44010(12)
C40_10 C 0.0639(3) 0.45054(14) 0.43871(15)
H29_10 H 0.096654 0.425259 0.442971
C42_10 C 0.1204(3) 0.58222(15) 0.38103(13)
H31_10 H 0.081096 0.607219 0.382066
H32_10 H 0.086025 0.556221 0.375571
C43_10 C 0.2158(3) 0.61482(13) 0.42326(12)
H33_10 H 0.246929 0.610383 0.446216
H34_10 H 0.178858 0.640500 0.426056
N4_10 N 0.1623(2) 0.57693(10) 0.41576(9)
C44_10 C 0.1009(4) 0.57000(14) 0.44434(14)
H35_10 H 0.057540 0.593220 0.443849
H36_10 H 0.130455 0.571130 0.467939
O1_9 O 0.78234(15) 0.63739(8) 0.38767(6)
O3_9 O 0.79916(14) 0.58863(7) 0.43077(6)
O4_9 O 0.80128(13) 0.94959(7) 0.14199(5)
O8_9 O 0.78323(13) 0.89567(7) 0.18175(6)
C1_10 C 0.9487(2) 0.97738(10) 0.18017(9)
H1_10 H 0.931427 0.994313 0.160108
C6_10 C 0.9682(2) 0.67273(10) 0.48478(8)
H3_8 H 0.983746 0.668578 0.509302
C7_10 C 0.9233(2) 0.68498(10) 0.41331(8)
H4_10 H 0.907828 0.689135 0.388775
C8_10 C 0.82288(19) 0.92813(10) 0.16945(8)
C11_10 C 0.8184(2) 0.62449(11) 0.41623(9)
C13_10 C 0.8850(2) 0.65201(10) 0.43313(9)
C14_10 C 0.90106(19) 0.94115(10) 0.18994(9)
C22_10 C 0.9087(2) 0.64585(10) 0.46883(9)
H12_10 H 0.883977 0.623045 0.482365
C23_10 C 0.9276(2) 0.91725(10) 0.21957(8)
H13_10 H 0.895393 0.892704 0.226639
C27_10 C 0.9838(2) 0.71185(10) 0.42913(9)
C28_10 C 0.9992(2) 0.92827(10) 0.23886(9)
C39_10 C 0.9779(3) 0.52309(16) 0.4270(3)
H28_10 H 0.944358 0.548025 0.422343
C41_10 C 0.9453(3) 0.48236(14) 0.4202(2)
H30_10 H 0.888885 0.480638 0.410781
Co6_6 Co 0.71020(2) 0.57083(2) 0.39310(2)
Co7_6 Co 0.71020(2) 0.92917(2) 0.10690(2)
O2_11 O 0.59285(14) 0.37904(7) 0.69408(6)
O5_11 O 0.62092(14) 0.42984(7) 0.65390(6)
O6_11 O 0.60738(14) 0.34010(7) 0.62080(6)
N1_11 N 0.65973(17) 0.48874(8) 0.59267(7)
O7_11 O 0.30724(14) 0.51690(7) 0.73453(6)
O9_11 O 0.61365(14) 0.39638(7) 0.58310(6)
C1_11 C 0.1987(2) 0.27262(10) 0.43017(9)
H1_11 H 0.181427 0.255687 0.410108
C2_11 C 0.50649(19) 0.44296(10) 0.69491(8)
C3_11 C 0.5235(2) 0.33811(10) 0.56769(8)
C4_11 C 0.5860(2) 0.35970(10) 0.59247(8)
C5_11 C 0.4882(2) 0.48240(10) 0.67857(9)
H2_11 H 0.522734 0.492193 0.659164
C6_11 C 0.2182(2) 0.57727(10) 0.73478(8)
H3_9 H 0.233746 0.581422 0.759302
C7_11 C 0.1733(2) 0.56502(10) 0.66331(8)
H4_11 H 0.157828 0.560865 0.638775
C8_11 C 0.07288(19) 0.32187(10) 0.41945(8)
C9_11 C 0.5026(2) 0.29505(10) 0.57282(8)
H5_11 H 0.526068 0.280048 0.592849
C10_11 C 0.4876(2) 0.35988(10) 0.53860(9)
H6_11 H 0.500791 0.389451 0.534961
C11_11 C 0.0684(2) 0.62551(11) 0.66623(9)
C12_11 C 0.2550(2) 0.54429(10) 0.71503(9)
C13_11 C 0.1350(2) 0.59799(10) 0.68313(9)
C14_11 C 0.15106(19) 0.30885(10) 0.43994(9)
C15_11 C 0.4331(2) 0.33916(10) 0.51486(9)
H7_11 H 0.409272 0.354194 0.494922
C16_11 C 0.3906(2) 0.45459(11) 0.73637(9)
H8_9 H 0.357800 0.445448 0.756540
C17_11 C 0.4577(2) 0.42953(10) 0.72402(9)
H9_11 H 0.470440 0.402961 0.735568
C18_11 C 0.57800(19) 0.41583(11) 0.68025(9)
C19_11 C 0.4208(2) 0.50729(11) 0.69012(9)
H10_11 H 0.408111 0.533802 0.678481
C20_11 C 0.37126(19) 0.49321(10) 0.71915(8)
C21_11 C 0.4486(2) 0.27350(10) 0.54945(8)
H11_7 H 0.435741 0.243891 0.553073
O10_11 O 0.36624(15) 0.27080(7) 0.49695(6)
C22_11 C 0.1587(2) 0.60415(10) 0.71883(9)
H12_11 H 0.133977 0.626955 0.732365
C23_11 C 0.1776(2) 0.33275(10) 0.46957(8)
H13_11 H 0.145393 0.357296 0.476639
C24_11 C 0.4135(2) 0.29579(10) 0.52070(9)
C25_11 C 0.2963(2) 0.28623(10) 0.47852(8)
C26_9 C 0.7079(2) 0.52365(12) 0.59042(11)
H14_9 H 0.768149 0.520544 0.592241
C27_11 C 0.2338(2) 0.53815(10) 0.67913(9)
H15_11 H 0.260164 0.515897 0.665500
C28_11 C 0.2492(2) 0.32173(10) 0.48886(9)
H16_11 H 0.266152 0.338374 0.509140
C29_11 C 0.5757(2) 0.49409(12) 0.58990(10)
H17_11 H 0.540018 0.469325 0.590796
C30_11 C 0.2708(2) 0.26123(10) 0.44953(9)
H18_7 H 0.302720 0.236378 0.442964
C31_9 C 0.5883(3) 0.57033(11) 0.58420(10)
C32_9 C 0.6743(3) 0.56465(12) 0.58552(12)
H19_9 H 0.711519 0.588686 0.583089
N3_11 N 0.4866(2) 0.62230(10) 0.60885(9)
C33_11 C 0.4358(4) 0.66077(15) 0.60133(12)
H20_11 H 0.473862 0.686189 0.599673
H21_11 H 0.406159 0.657396 0.577906
C34_9 C 0.5477(4) 0.61460(14) 0.58033(13)
H22_9 H 0.518597 0.616622 0.556690
H23_9 H 0.592839 0.636963 0.581131
C35_9 C 0.5282(3) 0.62746(14) 0.64391(11)
H24_9 H 0.561526 0.601166 0.649445
H25_9 H 0.568536 0.651996 0.642730
C36_9 C 0.5380(3) 0.53369(13) 0.58579(12)
H26_11 H 0.477552 0.535971 0.584052
C37_11 C 0.3501(4) 0.75974(14) 0.69634(16)
H27_11 H 0.406201 0.758441 0.706137
C38_11 C 0.3073(3) 0.72322(13) 0.69010(12)
C39_11 C 0.2279(3) 0.72691(16) 0.6770(3)
H28_11 H 0.194358 0.701975 0.672343
C40_11 C 0.3139(3) 0.79946(14) 0.68871(15)
H29_11 H 0.346654 0.824741 0.692971
C41_11 C 0.1953(3) 0.76764(14) 0.6702(2)
H30_11 H 0.138885 0.769362 0.660781
C42_11 C 0.3704(3) 0.66778(15) 0.63103(13)
H31_11 H 0.331096 0.642781 0.632066
H32_11 H 0.336025 0.693779 0.625571
C43_11 C 0.4658(3) 0.63518(13) 0.67326(12)
H33_11 H 0.496929 0.639617 0.696216
H34_11 H 0.428858 0.609500 0.676056
N4_11 N 0.4123(2) 0.67307(10) 0.66576(9)
C44_11 C 0.3509(4) 0.68000(14) 0.69434(14)
H35_11 H 0.307540 0.656780 0.693849
H36_11 H 0.380455 0.678870 0.717939
O13_6 O 0.80128(13) 0.44959(7) 0.64199(5)
O14_6 O 0.78323(13) 0.39567(7) 0.68175(6)
C1_12 C 0.1987(2) 0.22738(10) 0.06983(9)
H1_12 H 0.181427 0.244313 0.089892
C8_12 C 0.07288(19) 0.17813(10) 0.08055(8)
C14_12 C 0.15106(19) 0.19115(10) 0.06006(9)
H7_12 H 0.409272 0.145806 0.005078
O10_12 O 0.36624(15) 0.22920(7) 0.00305(6)
C23_12 C 0.1776(2) 0.16725(10) 0.03043(8)
H13_12 H 0.145393 0.142704 0.023361
C25_12 C 0.2963(2) 0.21377(10) 0.02148(8)
C28_12 C 0.2492(2) 0.17827(10) 0.01114(9)
C30_12 C 0.2708(2) 0.23877(10) 0.05047(9)
H18_8 H 0.302720 0.263622 0.057036
O2_12 O 0.59285(14) 0.12096(7) 0.80592(6)
O5_12 O 0.62092(14) 0.07016(7) 0.84610(6)
O6_12 O 0.60738(14) 0.15990(7) 0.87920(6)
N1_12 N 0.65973(17) 0.01126(8) 0.90733(7)
O9_12 O 0.61365(14) 0.10362(7) 0.91690(6)
C2_12 C 0.50649(19) 0.05704(10) 0.80509(8)
C3_12 C 0.5235(2) 0.16189(10) 0.93231(8)
C4_12 C 0.5860(2) 0.14030(10) 0.90753(8)
C5_12 C 0.4882(2) 0.01760(10) 0.82143(9)
H2_12 H 0.522734 0.007807 0.840836
C9_12 C 0.5026(2) 0.20495(10) 0.92718(8)
H5_12 H 0.526068 0.219952 0.907151
C10_12 C 0.4876(2) 0.14012(10) 0.96140(9)
H6_12 H 0.500791 0.110549 0.965039
C15_12 C 0.4331(2) 0.16084(10) 0.98514(9)
C16_12 C 0.3906(2) 0.04541(11) 0.76363(9)
H8_10 H 0.357800 0.054552 0.743460
C17_12 C 0.4577(2) 0.07047(10) 0.77598(9)
H9_12 H 0.470440 0.097039 0.764432
C18_12 C 0.57800(19) 0.08417(11) 0.81975(9)
C20_12 C 0.37126(19) 0.00679(10) 0.78085(8)
C21_12 C 0.4486(2) 0.22650(10) 0.95055(8)
H11_8 H 0.435741 0.256109 0.946927
C24_12 C 0.4135(2) 0.20421(10) 0.97930(9)
H16_12 H 0.266152 0.161626 0.990860
C29_12 C 0.5757(2) 0.00591(12) 0.91010(10)
H17_12 H 0.540018 0.030675 0.909204
O11_6 O 0.78234(15) 0.13739(8) 0.88767(6)
O12_6 O 0.79916(14) 0.08863(7) 0.93077(6)
O7_12 O 0.30724(14) 0.98310(7) 0.76547(6)
C6_12 C 0.2182(2) 0.92273(10) 0.76522(8)
H3_10 H 0.233746 0.918578 0.740698
C7_12 C 0.1733(2) 0.93498(10) 0.83669(8)
H4_12 H 0.157828 0.939135 0.861225
C11_12 C 0.0684(2) 0.87449(11) 0.83377(9)
C12_12 C 0.2550(2) 0.95571(10) 0.78497(9)
C13_12 C 0.1350(2) 0.90201(10) 0.81687(9)
C19_12 C 0.4208(2) 0.99271(11) 0.80988(9)
H10_12 H 0.408111 0.966198 0.821519
C22_12 C 0.1587(2) 0.89585(10) 0.78117(9)
H12_12 H 0.133977 0.873045 0.767635
C26_10 C 0.7079(2) 0.97635(12) 0.90958(11)
H14_10 H 0.768149 0.979456 0.907759
C27_12 C 0.2338(2) 0.96185(10) 0.82087(9)
H15_12 H 0.260164 0.984103 0.834500
C31_10 C 0.5883(3) 0.92967(11) 0.91580(10)
C32_10 C 0.6743(3) 0.93535(12) 0.91448(12)
H19_10 H 0.711519 0.911314 0.916911
N3_12 N 0.4866(2) 0.87770(10) 0.89115(9)
C33_12 C 0.4358(4) 0.83923(15) 0.89867(12)
H20_12 H 0.473862 0.813811 0.900327
H21_12 H 0.406159 0.842604 0.922094
C34_10 C 0.5477(4) 0.88540(14) 0.91967(13)
H22_10 H 0.518597 0.883378 0.943310
H23_10 H 0.592839 0.863037 0.918869
C35_10 C 0.5282(3) 0.87254(14) 0.85609(11)
H24_10 H 0.561526 0.898834 0.850555
H25_10 H 0.568536 0.848004 0.857270
C36_10 C 0.5380(3) 0.96631(13) 0.91421(12)
H26_12 H 0.477552 0.964029 0.915948
C37_12 C 0.3501(4) 0.74026(14) 0.80366(16)
H27_12 H 0.406201 0.741559 0.793863
C38_12 C 0.3073(3) 0.77678(13) 0.80990(12)
C39_12 C 0.2279(3) 0.77309(16) 0.8230(3)
H28_12 H 0.194358 0.798025 0.827657
C40_12 C 0.3139(3) 0.70054(14) 0.81129(15)
H29_12 H 0.346654 0.675259 0.807029
C41_12 C 0.1953(3) 0.73236(14) 0.8298(2)
H30_12 H 0.138885 0.730638 0.839219
C42_12 C 0.3704(3) 0.83222(15) 0.86897(13)
H31_12 H 0.331096 0.857219 0.867934
H32_12 H 0.336025 0.806221 0.874429
C43_12 C 0.4658(3) 0.86482(13) 0.82674(12)
H33_12 H 0.496929 0.860383 0.803784
H34_12 H 0.428858 0.890500 0.823944
N4_12 N 0.4123(2) 0.82693(10) 0.83424(9)
C44_12 C 0.3509(4) 0.82000(14) 0.80566(14)
H35_12 H 0.307540 0.843220 0.806151
H36_12 H 0.380455 0.821130 0.782061
O2_13 O 0.34285(14) 0.62904(7) 0.05592(6)
O5_13 O 0.37092(14) 0.67984(7) 0.09610(6)
O6_13 O 0.35738(14) 0.59010(7) 0.12920(6)
N1_13 N 0.40973(17) 0.73874(8) 0.15733(7)
O7_13 O 0.05724(14) 0.76690(7) 0.01547(6)
O9_13 O 0.36365(14) 0.64638(7) 0.16690(6)
C2_13 C 0.25649(19) 0.69296(10) 0.05509(8)
C3_13 C 0.2735(2) 0.58811(10) 0.18231(8)
C4_13 C 0.3360(2) 0.60970(10) 0.15753(8)
C5_13 C 0.2382(2) 0.73240(10) 0.07143(9)
H2_13 H 0.272734 0.742193 0.090836
C9_13 C 0.2526(2) 0.54505(10) 0.17718(8)
H5_13 H 0.276068 0.530048 0.157151
C10_13 C 0.2376(2) 0.60988(10) 0.21140(9)
H6_13 H 0.250791 0.639451 0.215039
C12_13 C 0.0050(2) 0.79429(10) 0.03497(9)
C15_13 C 0.1831(2) 0.58916(10) 0.23514(9)
H7_13 H 0.159272 0.604194 0.255078
C16_13 C 0.1406(2) 0.70459(11) 0.01363(9)
C17_13 C 0.2077(2) 0.67953(10) 0.02598(9)
H9_13 H 0.220440 0.652961 0.014432
C18_13 C 0.32800(19) 0.66583(11) 0.06975(9)
C19_13 C 0.1708(2) 0.75729(11) 0.05988(9)
H10_13 H 0.158111 0.783802 0.071519
C20_13 C 0.12126(19) 0.74321(10) 0.03085(8)
C21_13 C 0.1986(2) 0.52350(10) 0.20055(8)
H11_9 H 0.185741 0.493891 0.196927
O10_13 O 0.11624(15) 0.52080(7) 0.25305(6)
C24_13 C 0.1635(2) 0.54579(10) 0.22930(9)
C25_13 C 0.0463(2) 0.53623(10) 0.27148(8)
C26_11 C 0.4579(2) 0.77365(12) 0.15958(11)
H14_11 H 0.518149 0.770544 0.157759
H15_13 H 0.010164 0.765897 0.084500
H16_13 H 0.016152 0.588374 0.240860
C29_13 C 0.3257(2) 0.74409(12) 0.16010(10)
H17_13 H 0.290018 0.719325 0.159204
C30_13 C 0.0208(2) 0.51123(10) 0.30047(9)
H18_9 H 0.052720 0.486378 0.307036
C31_11 C 0.3383(3) 0.82033(11) 0.16580(10)
C32_11 C 0.4243(3) 0.81465(12) 0.16448(12)
H19_11 H 0.461519 0.838686 0.166911
N3_13 N 0.2366(2) 0.87230(10) 0.14115(9)
C33_13 C 0.1858(4) 0.91077(15) 0.14867(12)
H20_13 H 0.223862 0.936189 0.150327
H21_13 H 0.156159 0.907396 0.172094
C34_11 C 0.2977(4) 0.86460(14) 0.16967(13)
H22_11 H 0.268597 0.866622 0.193310
H23_11 H 0.342839 0.886963 0.168869
C35_11 C 0.2782(3) 0.87746(14) 0.10609(11)
H24_11 H 0.311526 0.851166 0.100555
H25_11 H 0.318536 0.901996 0.107270
C36_11 C 0.2880(3) 0.78369(13) 0.16421(12)
H26_13 H 0.227552 0.785971 0.165948
C38_13 C 0.0573(3) 0.97322(13) 0.05990(12)
C42_13 C 0.1204(3) 0.91778(15) 0.11897(13)
H31_13 H 0.081096 0.892781 0.117934
H32_13 H 0.086025 0.943779 0.124429
C43_13 C 0.2158(3) 0.88518(13) 0.07674(12)
H33_13 H 0.246929 0.889617 0.053784
H34_13 H 0.178858 0.859500 0.073944
N4_13 N 0.1623(2) 0.92307(10) 0.08424(9)
C44_13 C 0.1009(4) 0.93000(14) 0.05566(14)
H35_13 H 0.057540 0.906780 0.056151
H36_13 H 0.130455 0.928870 0.032061
C41_13 C 0.9453(3) 0.01764(14) 0.0798(2)
H30_13 H 0.888885 0.019362 0.089219
O1_10 O 0.78234(15) 0.86261(8) 0.11233(6)
O3_10 O 0.79916(14) 0.91137(7) 0.06923(6)
O4_10 O 0.80128(13) 0.55041(7) 0.35801(5)
O8_10 O 0.78323(13) 0.60433(7) 0.31825(6)
C1_13 C 0.9487(2) 0.52262(10) 0.31983(9)
H1_13 H 0.931427 0.505687 0.339892
C6_13 C 0.9682(2) 0.82727(10) 0.01522(8)
C7_13 C 0.9233(2) 0.81502(10) 0.08669(8)
H4_13 H 0.907828 0.810865 0.111225
C8_13 C 0.82288(19) 0.57187(10) 0.33055(8)
C11_13 C 0.8184(2) 0.87551(11) 0.08377(9)
C13_13 C 0.8850(2) 0.84799(10) 0.06687(9)
C14_13 C 0.90106(19) 0.55885(10) 0.31006(9)
C22_13 C 0.9087(2) 0.85415(10) 0.03117(9)
H12_13 H 0.883977 0.876955 0.017635
C23_13 C 0.9276(2) 0.58275(10) 0.28043(8)
H13_13 H 0.895393 0.607296 0.273361
C27_13 C 0.9838(2) 0.78815(10) 0.07087(9)
C28_13 C 0.9992(2) 0.57173(10) 0.26114(9)
C39_13 C 0.9779(3) 0.97691(16) 0.0730(3)
H28_13 H 0.944358 0.951975 0.077657
O2_14 O 0.34285(14) 0.37096(7) 0.94408(6)
O5_14 O 0.37092(14) 0.32016(7) 0.90390(6)
O6_14 O 0.35738(14) 0.40990(7) 0.87080(6)
N1_14 N 0.40973(17) 0.26126(8) 0.84267(7)
O7_14 O 0.05724(14) 0.23310(7) 0.98453(6)
O9_14 O 0.36365(14) 0.35362(7) 0.83310(6)
C2_14 C 0.25649(19) 0.30704(10) 0.94491(8)
C3_14 C 0.2735(2) 0.41189(10) 0.81769(8)
C4_14 C 0.3360(2) 0.39030(10) 0.84247(8)
C5_14 C 0.2382(2) 0.26760(10) 0.92857(9)
H2_14 H 0.272734 0.257807 0.909164
C9_14 C 0.2526(2) 0.45495(10) 0.82282(8)
H5_14 H 0.276068 0.469952 0.842849
C10_14 C 0.2376(2) 0.39012(10) 0.78860(9)
H6_14 H 0.250791 0.360549 0.784961
C12_14 C 0.0050(2) 0.20571(10) 0.96503(9)
C15_14 C 0.1831(2) 0.41084(10) 0.76486(9)
H7_14 H 0.159272 0.395806 0.744922
C16_14 C 0.1406(2) 0.29541(11) 0.98637(9)
C17_14 C 0.2077(2) 0.32047(10) 0.97402(9)
H9_14 H 0.220440 0.347039 0.985568
C18_14 C 0.32800(19) 0.33417(11) 0.93025(9)
C19_14 C 0.1708(2) 0.24271(11) 0.94012(9)
H10_14 H 0.158111 0.216198 0.928481
C20_14 C 0.12126(19) 0.25679(10) 0.96915(8)
C21_14 C 0.1986(2) 0.47650(10) 0.79945(8)
H11_10 H 0.185741 0.506109 0.803073
O10_14 O 0.11624(15) 0.47920(7) 0.74695(6)
C24_14 C 0.1635(2) 0.45421(10) 0.77070(9)
C25_14 C 0.0463(2) 0.46377(10) 0.72852(8)
C26_12 C 0.4579(2) 0.22635(12) 0.84042(11)
H14_12 H 0.518149 0.229456 0.842241
H15_14 H 0.010164 0.234103 0.915500
H16_14 H 0.016152 0.411626 0.759140
C29_14 C 0.3257(2) 0.25591(12) 0.83990(10)
H17_14 H 0.290018 0.280675 0.840796
C30_14 C 0.0208(2) 0.48877(10) 0.69953(9)
H18_10 H 0.052720 0.513622 0.692964
C31_12 C 0.3383(3) 0.17967(11) 0.83420(10)
C32_12 C 0.4243(3) 0.18535(12) 0.83552(12)
H19_12 H 0.461519 0.161314 0.833089
N3_14 N 0.2366(2) 0.12770(10) 0.85885(9)
C33_14 C 0.1858(4) 0.08923(15) 0.85133(12)
H20_14 H 0.223862 0.063811 0.849673
H21_14 H 0.156159 0.092604 0.827906
C34_12 C 0.2977(4) 0.13540(14) 0.83033(13)
H22_12 H 0.268597 0.133378 0.806690
H23_12 H 0.342839 0.113037 0.831131
C35_12 C 0.2782(3) 0.12254(14) 0.89391(11)
H24_12 H 0.311526 0.148834 0.899445
H25_12 H 0.318536 0.098004 0.892730
C36_12 C 0.2880(3) 0.21631(13) 0.83579(12)
H26_14 H 0.227552 0.214029 0.834052
C38_14 C 0.0573(3) 0.02678(13) 0.94010(12)
C42_14 C 0.1204(3) 0.08222(15) 0.88103(13)
H31_14 H 0.081096 0.107219 0.882066
H32_14 H 0.086025 0.056221 0.875571
C43_14 C 0.2158(3) 0.11482(13) 0.92326(12)
H33_14 H 0.246929 0.110383 0.946216
H34_14 H 0.178858 0.140500 0.926056
N4_14 N 0.1623(2) 0.07693(10) 0.91576(9)
C44_14 C 0.1009(4) 0.07000(14) 0.94434(14)
H35_14 H 0.057540 0.093220 0.943849
H36_14 H 0.130455 0.071130 0.967939
C1_14 C 0.9487(2) 0.47738(10) 0.68017(9)
H1_14 H 0.931427 0.494313 0.660108
C6_14 C 0.9682(2) 0.17273(10) 0.98478(8)
C7_14 C 0.9233(2) 0.18498(10) 0.91331(8)
H4_14 H 0.907828 0.189135 0.888775
C8_14 C 0.82288(19) 0.42813(10) 0.66945(8)
C11_14 C 0.8184(2) 0.12449(11) 0.91623(9)
C13_14 C 0.8850(2) 0.15201(10) 0.93313(9)
C14_14 C 0.90106(19) 0.44115(10) 0.68994(9)
C22_14 C 0.9087(2) 0.14585(10) 0.96883(9)
H12_14 H 0.883977 0.123045 0.982365
C23_14 C 0.9276(2) 0.41725(10) 0.71957(8)
H13_14 H 0.895393 0.392704 0.726639
C27_14 C 0.9838(2) 0.21185(10) 0.92913(9)
C28_14 C 0.9992(2) 0.42827(10) 0.73886(9)
C39_14 C 0.9779(3) 0.02309(16) 0.9270(3)
H28_14 H 0.944358 0.048025 0.922343
C41_14 C 0.9453(3) 0.98236(14) 0.9202(2)
H30_14 H 0.888885 0.980638 0.910781
O7_15 O 0.30724(14) 0.01690(7) 0.23453(6)
C6_15 C 0.2182(2) 0.07727(10) 0.23478(8)
H3_11 H 0.233746 0.081422 0.259302
C7_15 C 0.1733(2) 0.06502(10) 0.16331(8)
H4_15 H 0.157828 0.060865 0.138775
C11_15 C 0.0684(2) 0.12551(11) 0.16623(9)
C12_15 C 0.2550(2) 0.04429(10) 0.21503(9)
C13_15 C 0.1350(2) 0.09799(10) 0.18313(9)
C19_15 C 0.4208(2) 0.00729(11) 0.19012(9)
H10_15 H 0.408111 0.033802 0.178481
C22_15 C 0.1587(2) 0.10415(10) 0.21883(9)
H12_15 H 0.133977 0.126955 0.232365
C26_13 C 0.7079(2) 0.02365(12) 0.09042(11)
H14_13 H 0.768149 0.020544 0.092241
C27_15 C 0.2338(2) 0.03815(10) 0.17913(9)
H15_15 H 0.260164 0.015897 0.165500
C31_13 C 0.5883(3) 0.07033(11) 0.08420(10)
C32_13 C 0.6743(3) 0.06465(12) 0.08552(12)
H19_13 H 0.711519 0.088686 0.083089
N3_15 N 0.4866(2) 0.12230(10) 0.10885(9)
C33_15 C 0.4358(4) 0.16077(15) 0.10133(12)
H20_15 H 0.473862 0.186189 0.099673
H21_15 H 0.406159 0.157396 0.077906
C34_13 C 0.5477(4) 0.11460(14) 0.08033(13)
H22_13 H 0.518597 0.116622 0.056690
H23_13 H 0.592839 0.136963 0.081131
C35_13 C 0.5282(3) 0.12746(14) 0.14391(11)
H24_13 H 0.561526 0.101166 0.149445
H25_13 H 0.568536 0.151996 0.142730
C36_13 C 0.5380(3) 0.03369(13) 0.08579(12)
H26_15 H 0.477552 0.035971 0.084052
C37_13 C 0.3501(4) 0.25974(14) 0.19634(16)
H27_13 H 0.406201 0.258441 0.206137
C38_15 C 0.3073(3) 0.22322(13) 0.19010(12)
C39_15 C 0.2279(3) 0.22691(16) 0.1770(3)
H28_15 H 0.194358 0.201975 0.172343
C40_13 C 0.3139(3) 0.29946(14) 0.18871(15)
H29_13 H 0.346654 0.324741 0.192971
C41_15 C 0.1953(3) 0.26764(14) 0.1702(2)
H30_15 H 0.138885 0.269362 0.160781
C42_15 C 0.3704(3) 0.16778(15) 0.13103(13)
H31_15 H 0.331096 0.142781 0.132066
H32_15 H 0.336025 0.193779 0.125571
C43_15 C 0.4658(3) 0.13518(13) 0.17326(12)
H33_15 H 0.496929 0.139617 0.196216
H34_15 H 0.428858 0.109500 0.176056
N4_15 N 0.4123(2) 0.17307(10) 0.16576(9)
C44_15 C 0.3509(4) 0.18000(14) 0.19434(14)
H35_15 H 0.307540 0.156780 0.193849
H36_15 H 0.380455 0.178870 0.217939
O2_15 O 0.59285(14) 0.87904(7) 0.19408(6)
O5_15 O 0.62092(14) 0.92984(7) 0.15390(6)
O6_15 O 0.60738(14) 0.84010(7) 0.12080(6)
N1_15 N 0.65973(17) 0.98874(8) 0.09267(7)
O9_15 O 0.61365(14) 0.89638(7) 0.08310(6)
C2_15 C 0.50649(19) 0.94296(10) 0.19491(8)
C3_15 C 0.5235(2) 0.83811(10) 0.06769(8)
C4_15 C 0.5860(2) 0.85970(10) 0.09247(8)
C5_15 C 0.4882(2) 0.98240(10) 0.17857(9)
H2_15 H 0.522734 0.992193 0.159164
C9_15 C 0.5026(2) 0.79505(10) 0.07282(8)
H5_15 H 0.526068 0.780048 0.092849
C10_15 C 0.4876(2) 0.85988(10) 0.03860(9)
H6_15 H 0.500791 0.889451 0.034961
C15_15 C 0.4331(2) 0.83916(10) 0.01486(9)
C16_15 C 0.3906(2) 0.95459(11) 0.23637(9)
H8_11 H 0.357800 0.945448 0.256540
C17_15 C 0.4577(2) 0.92953(10) 0.22402(9)
H9_15 H 0.470440 0.902961 0.235568
C18_15 C 0.57800(19) 0.91583(11) 0.18025(9)
C20_15 C 0.37126(19) 0.99321(10) 0.21915(8)
C21_15 C 0.4486(2) 0.77350(10) 0.04945(8)
H11_11 H 0.435741 0.743891 0.053073
C24_15 C 0.4135(2) 0.79579(10) 0.02070(9)
H16_15 H 0.266152 0.838374 0.009140
C29_15 C 0.5757(2) 0.99409(12) 0.08990(10)
H17_15 H 0.540018 0.969325 0.090796
C1_15 C 0.1987(2) 0.77262(10) 0.93017(9)
H1_15 H 0.181427 0.755687 0.910108
C8_15 C 0.07288(19) 0.82187(10) 0.91945(8)
C14_15 C 0.15106(19) 0.80885(10) 0.93994(9)
H7_15 H 0.409272 0.854194 0.994922
O10_15 O 0.36624(15) 0.77080(7) 0.99695(6)
C23_15 C 0.1776(2) 0.83275(10) 0.96957(8)
H13_15 H 0.145393 0.857296 0.976639
C25_15 C 0.2963(2) 0.78623(10) 0.97852(8)
C28_15 C 0.2492(2) 0.82173(10) 0.98886(9)
C30_15 C 0.2708(2) 0.76123(10) 0.94953(9)
H18_11 H 0.302720 0.736378 0.942964
O2_16 O 0.59285(14) 0.62096(7) 0.30592(6)
O5_16 O 0.62092(14) 0.57016(7) 0.34610(6)
O6_16 O 0.60738(14) 0.65990(7) 0.37920(6)
N1_16 N 0.65973(17) 0.51126(8) 0.40733(7)
O7_16 O 0.30724(14) 0.48310(7) 0.26547(6)
O9_16 O 0.61365(14) 0.60362(7) 0.41690(6)
C1_16 C 0.1987(2) 0.72738(10) 0.56983(9)
H1_16 H 0.181427 0.744313 0.589892
C2_16 C 0.50649(19) 0.55704(10) 0.30509(8)
C3_16 C 0.5235(2) 0.66189(10) 0.43231(8)
C4_16 C 0.5860(2) 0.64030(10) 0.40753(8)
C5_16 C 0.4882(2) 0.51760(10) 0.32143(9)
H2_16 H 0.522734 0.507807 0.340836
C6_16 C 0.2182(2) 0.42273(10) 0.26522(8)
H3_12 H 0.233746 0.418578 0.240698
C7_16 C 0.1733(2) 0.43498(10) 0.33669(8)
H4_16 H 0.157828 0.439135 0.361225
C8_16 C 0.07288(19) 0.67813(10) 0.58055(8)
C9_16 C 0.5026(2) 0.70495(10) 0.42718(8)
H5_16 H 0.526068 0.719952 0.407151
C10_16 C 0.4876(2) 0.64012(10) 0.46140(9)
H6_16 H 0.500791 0.610549 0.465039
C11_16 C 0.0684(2) 0.37449(11) 0.33377(9)
C12_16 C 0.2550(2) 0.45571(10) 0.28497(9)
C13_16 C 0.1350(2) 0.40201(10) 0.31687(9)
C14_16 C 0.15106(19) 0.69115(10) 0.56006(9)
C15_16 C 0.4331(2) 0.66084(10) 0.48514(9)
H7_16 H 0.409272 0.645806 0.505078
C16_16 C 0.3906(2) 0.54541(11) 0.26363(9)
H8_12 H 0.357800 0.554552 0.243460
C17_16 C 0.4577(2) 0.57047(10) 0.27598(9)
H9_16 H 0.470440 0.597039 0.264432
C18_16 C 0.57800(19) 0.58417(11) 0.31975(9)
C19_16 C 0.4208(2) 0.49271(11) 0.30988(9)
H10_16 H 0.408111 0.466198 0.321519
C20_16 C 0.37126(19) 0.50679(10) 0.28085(8)
C21_16 C 0.4486(2) 0.72650(10) 0.45055(8)
H11_12 H 0.435741 0.756109 0.446927
O10_16 O 0.36624(15) 0.72920(7) 0.50305(6)
C22_16 C 0.1587(2) 0.39585(10) 0.28117(9)
H12_16 H 0.133977 0.373045 0.267635
C23_16 C 0.1776(2) 0.66725(10) 0.53043(8)
H13_16 H 0.145393 0.642704 0.523361
C24_16 C 0.4135(2) 0.70421(10) 0.47930(9)
C25_16 C 0.2963(2) 0.71377(10) 0.52148(8)
C26_14 C 0.7079(2) 0.47635(12) 0.40958(11)
H14_14 H 0.768149 0.479456 0.407759
C27_16 C 0.2338(2) 0.46185(10) 0.32087(9)
H15_16 H 0.260164 0.484103 0.334500
C28_16 C 0.2492(2) 0.67827(10) 0.51114(9)
H16_16 H 0.266152 0.661626 0.490860
C29_16 C 0.5757(2) 0.50591(12) 0.41010(10)
H17_16 H 0.540018 0.530675 0.409204
C30_16 C 0.2708(2) 0.73877(10) 0.55047(9)
H18_12 H 0.302720 0.763622 0.557036
C31_14 C 0.5883(3) 0.42967(11) 0.41580(10)
C32_14 C 0.6743(3) 0.43535(12) 0.41448(12)
H19_14 H 0.711519 0.411314 0.416911
N3_16 N 0.4866(2) 0.37770(10) 0.39115(9)
C33_16 C 0.4358(4) 0.33923(15) 0.39867(12)
H20_16 H 0.473862 0.313811 0.400327
H21_16 H 0.406159 0.342604 0.422094
C34_14 C 0.5477(4) 0.38540(14) 0.41967(13)
H22_14 H 0.518597 0.383378 0.443310
H23_14 H 0.592839 0.363037 0.418869
C35_14 C 0.5282(3) 0.37254(14) 0.35609(11)
H24_14 H 0.561526 0.398834 0.350555
H25_14 H 0.568536 0.348004 0.357270
C36_14 C 0.5380(3) 0.46631(13) 0.41421(12)
H26_16 H 0.477552 0.464029 0.415948
C37_14 C 0.3501(4) 0.24026(14) 0.30366(16)
H27_14 H 0.406201 0.241559 0.293863
C38_16 C 0.3073(3) 0.27678(13) 0.30990(12)
C39_16 C 0.2279(3) 0.27309(16) 0.3230(3)
H28_16 H 0.194358 0.298025 0.327657
C40_14 C 0.3139(3) 0.20054(14) 0.31129(15)
H29_14 H 0.346654 0.175259 0.307029
C41_16 C 0.1953(3) 0.23236(14) 0.3298(2)
H30_16 H 0.138885 0.230638 0.339219
C42_16 C 0.3704(3) 0.33222(15) 0.36897(13)
H31_16 H 0.331096 0.357219 0.367934
H32_16 H 0.336025 0.306221 0.374429
C43_16 C 0.4658(3) 0.36482(13) 0.32674(12)
H33_16 H 0.496929 0.360383 0.303784
H34_16 H 0.428858 0.390500 0.323944
N4_16 N 0.4123(2) 0.32693(10) 0.33424(9)
C44_16 C 0.3509(4) 0.32000(14) 0.30566(14)
H35_16 H 0.307540 0.343220 0.306151
H36_16 H 0.380455 0.321130 0.282061
H3_13 H 0.483746 0.331422 0.990698
H8_13 H 0.607800 0.195448 0.993460
H11_13 H 0.685741 0.993891 0.196927
H18_13 H 0.552720 0.986378 0.307036
H11_14 H 0.685741 0.006109 0.803073
H18_14 H 0.552720 0.013622 0.692964
H3_14 H 0.483746 0.668578 0.009302
H8_14 H 0.607800 0.804552 0.006540
C26_15 C 0.2079(2) 0.97635(12) 0.40958(11)
H14_15 H 0.268149 0.979456 0.407759
C31_15 C 0.0883(3) 0.92967(11) 0.41580(10)
C32_15 C 0.1743(3) 0.93535(12) 0.41448(12)
H19_15 H 0.211519 0.911314 0.416911
C34_15 C 0.0477(4) 0.88540(14) 0.41967(13)
H22_15 H 0.018597 0.883378 0.443310
H23_15 H 0.092839 0.863037 0.418869
C35_15 C 0.0282(3) 0.87254(14) 0.35609(11)
H24_15 H 0.061526 0.898834 0.350555
H25_15 H 0.068536 0.848004 0.357270
C36_15 C 0.0380(3) 0.96631(13) 0.41421(12)
C26_16 C 0.2079(2) 0.02365(12) 0.59042(11)
H14_16 H 0.268149 0.020544 0.592241
C31_16 C 0.0883(3) 0.07033(11) 0.58420(10)
C32_16 C 0.1743(3) 0.06465(12) 0.58552(12)
H19_16 H 0.211519 0.088686 0.583089
C34_16 C 0.0477(4) 0.11460(14) 0.58033(13)
H22_16 H 0.018597 0.116622 0.556690
H23_16 H 0.092839 0.136963 0.581131
C35_16 C 0.0282(3) 0.12746(14) 0.64391(11)
H24_16 H 0.061526 0.101166 0.649445
H25_16 H 0.068536 0.151996 0.642730
C36_16 C 0.0380(3) 0.03369(13) 0.58579(12)
H11_15 H 0.185741 0.993891 0.696927
H18_15 H 0.052720 0.986378 0.807036
H11_16 H 0.185741 0.006109 0.303073
H18_16 H 0.052720 0.013622 0.192964
C37_15 C 0.1001(4) 0.00974(14) 0.05366(16)
H27_15 H 0.156201 0.008441 0.043863
C40_15 C 0.0639(3) 0.04946(14) 0.06129(15)
H29_15 H 0.096654 0.074741 0.057029
H8_15 H 0.107800 0.695448 0.993460
H3_15 H 0.983746 0.831422 0.990698
H8_16 H 0.107800 0.304552 0.006540
C37_16 C 0.1001(4) 0.99026(14) 0.94634(16)
H27_16 H 0.156201 0.991559 0.956137
C40_16 C 0.0639(3) 0.95054(14) 0.93871(15)
H29_16 H 0.096654 0.925259 0.942971
H3_16 H 0.983746 0.168578 0.009302
loop_
_geom_bond_atom_site_label_1
_geom_bond_atom_site_label_2
_geom_bond_site_symmetry_1
_geom_bond_site_symmetry_2
Co1 O2 1_555 1_555
Co2 O5 1_555 1_555
O1 C11 1_555 1_555
O2 C18 1_555 1_555
O3 C11 1_555 1_555
O4 C8 1_555 1_555
O5 Co1 1_555 1_555
O6 Co1 1_555 1_555
N1 Co2 1_555 1_555
O7 C12 1_555 1_555
O8 C8 1_555 1_555
O9 Co2 1_555 1_555
C1 H1 1_555 1_555
C2 C5 1_555 1_555
N2 C40 1_555 1_555
C3 C4 1_555 1_555
C4 O6 1_555 1_555
C5 H2 1_555 1_555
C7 H4 1_555 1_555
C8 C14 1_555 1_555
C9 C3 1_555 1_555
H5 C9 1_555 1_555
C10 C3 1_555 1_555
H6 C10 1_555 1_555
C11 C13 1_555 1_555
C12 C6 1_555 1_555
C13 C7 1_555 1_555
C14 C1 1_555 1_555
C15 C10 1_555 1_555
H7 C15 1_555 1_555
C17 C2 1_555 1_555
H9 C17 1_555 1_555
C18 O5 1_555 1_555
C19 C5 1_555 1_555
H10 C19 1_555 1_555
C20 O7 1_555 1_555
C21 C9 1_555 1_555
O10 C24 1_555 1_555
C22 C6 1_555 1_555
H12 C22 1_555 1_555
C23 C14 1_555 1_555
H13 C23 1_555 1_555
C24 C15 1_555 1_555
C25 O10 1_555 1_555
C26 N1 1_555 1_555
C27 C7 1_555 1_555
H15 C27 1_555 1_555
C28 C23 1_555 1_555
H16 C28 1_555 1_555
C29 N1 1_555 1_555
H17 C29 1_555 1_555
C30 C1 1_555 1_555
C31 C32 1_555 1_555
C32 C26 1_555 1_555
H19 C32 1_555 1_555
N3 C33 1_555 1_555
C33 H20 1_555 1_555
H21 C33 1_555 1_555
C34 C31 1_555 1_555
H22 C34 1_555 1_555
H23 C34 1_555 1_555
C35 N3 1_555 1_555
H24 C35 1_555 1_555
H25 C35 1_555 1_555
C36 C29 1_555 1_555
H26 C36 1_555 1_555
C37 H27 1_555 1_555
C38 C37 1_555 1_555
C39 C38 1_555 1_555
H28 C39 1_555 1_555
C40 C37 1_555 1_555
H29 C40 1_555 1_555
C41 N2 1_555 1_555
H30 C41 1_555 1_555
C42 C33 1_555 1_555
H31 C42 1_555 1_555
H32 C42 1_555 1_555
C43 C35 1_555 1_555
H33 C43 1_555 1_555
H34 C43 1_555 1_555
N4 C42 1_555 1_555
C44 C38 1_555 1_555
H35 C44 1_555 1_555
H36 C44 1_555 1_555
Co3 O1 1_555 1_555
Co4 O8 1_555 1_555
Co5 N2 1_555 1_555
Co6 O1 1_555 1_555
Co7 O4 1_555 1_555
N5 Co1 1_555 1_555
O3 Co6 1_555 1_555
O9 C4 1_555 1_555
C2 C18 1_555 1_555
C12 C27 1_555 1_555
C13 C22 1_555 1_555
C16 C17 1_555 1_555
C16 C20 1_555 1_555
C19 C20 1_555 1_555
C21 C24 1_555 1_555
C25 C28 1_555 1_555
C25 C30 1_555 1_555
C31 C36 1_555 1_555
N3 C34 1_555 1_555
C39 C41 1_555 1_555
C43 N4 1_555 1_555
N4 C44 1_555 1_555
Co1_2 O2_2 1_555 1_555
Co2_2 O5_2 1_555 1_555
O1_2 C11_2 1_555 1_555
O2_2 C18_2 1_555 1_555
O3_2 C11_2 1_555 1_555
O4_2 C8_2 1_555 1_555
O5_2 Co1_2 1_555 1_555
O6_2 Co1_2 1_555 1_555
N1_2 Co2_2 1_555 1_555
O7_2 C12_2 1_555 1_555
O8_2 C8_2 1_555 1_555
O9_2 Co2_2 1_555 1_555
C1_2 H1_2 1_555 1_555
C2_2 C5_2 1_555 1_555
N2_2 C40_2 1_555 1_555
C3_2 C4_2 1_555 1_555
C4_2 O6_2 1_555 1_555
C5_2 H2_2 1_555 1_555
C7_2 H4_2 1_555 1_555
C8_2 C14_2 1_555 1_555
C9_2 C3_2 1_555 1_555
H5_2 C9_2 1_555 1_555
C10_2 C3_2 1_555 1_555
H6_2 C10_2 1_555 1_555
C11_2 C13_2 1_555 1_555
C12_2 C6_2 1_555 1_555
C13_2 C7_2 1_555 1_555
C14_2 C1_2 1_555 1_555
C15_2 C10_2 1_555 1_555
H7_2 C15_2 1_555 1_555
C17_2 C2_2 1_555 1_555
H9_2 C17_2 1_555 1_555
C18_2 O5_2 1_555 1_555
C19_2 C5_2 1_555 1_555
H10_2 C19_2 1_555 1_555
C20_2 O7_2 1_555 1_555
C21_2 C9_2 1_555 1_555
O10_2 C24_2 1_555 1_555
C22_2 C6_2 1_555 1_555
H12_2 C22_2 1_555 1_555
C23_2 C14_2 1_555 1_555
H13_2 C23_2 1_555 1_555
C24_2 C15_2 1_555 1_555
C25_2 O10_2 1_555 1_555
C26_2 N1_2 1_555 1_555
C27_2 C7_2 1_555 1_555
H15_2 C27_2 1_555 1_555
C28_2 C23_2 1_555 1_555
H16_2 C28_2 1_555 1_555
C29_2 N1_2 1_555 1_555
H17_2 C29_2 1_555 1_555
C30_2 C1_2 1_555 1_555
C31_2 C32_2 1_555 1_555
C32_2 C26_2 1_555 1_555
H19_2 C32_2 1_555 1_555
N3_2 C33_2 1_555 1_555
C33_2 H20_2 1_555 1_555
H21_2 C33_2 1_555 1_555
C34_2 C31_2 1_555 1_555
H22_2 C34_2 1_555 1_555
H23_2 C34_2 1_555 1_555
C35_2 N3_2 1_555 1_555
H24_2 C35_2 1_555 1_555
H25_2 C35_2 1_555 1_555
C36_2 C29_2 1_555 1_555
H26_2 C36_2 1_555 1_555
C37_2 H27_2 1_555 1_555
C38_2 C37_2 1_555 1_555
C39_2 C38_2 1_555 1_555
H28_2 C39_2 1_555 1_555
C40_2 C37_2 1_555 1_555
H29_2 C40_2 1_555 1_555
C41_2 N2_2 1_555 1_555
H30_2 C41_2 1_555 1_555
C42_2 C33_2 1_555 1_555
H31_2 C42_2 1_555 1_555
H32_2 C42_2 1_555 1_555
C43_2 C35_2 1_555 1_555
H33_2 C43_2 1_555 1_555
H34_2 C43_2 1_555 1_555
N4_2 C42_2 1_555 1_555
C44_2 C38_2 1_555 1_555
H35_2 C44_2 1_555 1_555
H36_2 C44_2 1_555 1_555
Co3_2 O1_2 1_555 1_555
Co4_2 O8_2 1_555 1_555
Co5_2 N2_2 1_555 1_555
Co6_2 O1_2 1_555 1_555
Co7_2 O4_2 1_555 1_555
N5_2 Co1_2 1_555 1_555
O3_2 Co6_2 1_555 1_555
O9_2 C4_2 1_555 1_555
C2_2 C18_2 1_555 1_555
C12_2 C27_2 1_555 1_555
C13_2 C22_2 1_555 1_555
C16_2 C17_2 1_555 1_555
C16_2 C20_2 1_555 1_555
C19_2 C20_2 1_555 1_555
C21_2 C24_2 1_555 1_555
C25_2 C28_2 1_555 1_555
C25_2 C30_2 1_555 1_555
C31_2 C36_2 1_555 1_555
N3_2 C34_2 1_555 1_555
C39_2 C41_2 1_555 1_555
C43_2 N4_2 1_555 1_555
N4_2 C44_2 1_555 1_555
Co3 O2_3 1_555 1_555
Co6 O5_3 1_555 1_555
O2_3 C18_3 1_555 1_555
O5_3 Co3 1_555 1_555
O6_3 Co3 1_555 1_555
N1_3 Co6 1_555 1_555
O9_3 Co6 1_555 1_555
C3_3 C4_3 1_555 1_555
C4_3 O6_3 1_555 1_555
C9_3 C3_3 1_555 1_555
H5_3 C9_3 1_555 1_555
C18_3 O5_3 1_555 1_555
C26_3 N1_3 1_555 1_555
H14_3 C26_3 1_555 1_555
C29_3 N1_3 1_555 1_555
H17_3 C29_3 1_555 1_555
C31_3 C32_3 1_555 1_555
C32_3 C26_3 1_555 1_555
H19_3 C32_3 1_555 1_555
C34_3 C31_3 1_555 1_555
H22_3 C34_3 1_555 1_555
H23_3 C34_3 1_555 1_555
H24_3 C35_3 1_555 1_555
H25_3 C35_3 1_555 1_555
C36_3 C29_3 1_555 1_555
O13_3 Co6 1_555 1_555
O14_3 Co3 1_555 1_555
N5_3 Co3 1_555 1_555
O9_3 C4_3 1_555 1_555
C2_3 C18_3 1_555 1_555
C31_3 C36_3 1_555 1_555
O1_3 C11_3 1_555 1_555
O3_3 C11_3 1_555 1_555
O7_3 C12_3 1_555 1_555
N2_3 C40_3 1_555 1_555
C6_3 H3 1_555 1_555
C7_3 H4_3 1_555 1_555
C11_3 C13_3 1_555 1_555
C12_3 C6_3 1_555 1_555
C13_3 C7_3 1_555 1_555
C15_3 C10_3 1_555 1_555
C16_3 H8 1_555 1_555
H9_3 C17_3 1_555 1_555
C19_3 C5_3 1_555 1_555
H10_3 C19_3 1_555 1_555
C20_3 O7_3 1_555 1_555
H11 C21_3 1_555 1_555
C22_3 C6_3 1_555 1_555
H12_3 C22_3 1_555 1_555
C24_3 C15_3 1_555 1_555
C27_3 C7_3 1_555 1_555
H15_3 C27_3 1_555 1_555
N3_3 C33_3 1_555 1_555
C33_3 H20_3 1_555 1_555
H21_3 C33_3 1_555 1_555
C37_3 H27_3 1_555 1_555
C38_3 C37_3 1_555 1_555
C39_3 C38_3 1_555 1_555
H28_3 C39_3 1_555 1_555
C40_3 C37_3 1_555 1_555
H29_3 C40_3 1_555 1_555
C41_3 N2_3 1_555 1_555
H30_3 C41_3 1_555 1_555
C42_3 C33_3 1_555 1_555
H31_3 C42_3 1_555 1_555
H32_3 C42_3 1_555 1_555
H33_3 C43_3 1_555 1_555
H34_3 C43_3 1_555 1_555
N4_3 C42_3 1_555 1_555
C44_3 C38_3 1_555 1_555
H35_3 C44_3 1_555 1_555
H36_3 C44_3 1_555 1_555
Co5 O1_3 1_555 1_555
Co5_3 N2_3 1_555 1_555
Co6_3 O1_3 1_555 1_555
O3_3 Co6_3 1_555 1_555
C12_3 C27_3 1_555 1_555
C13_3 C22_3 1_555 1_555
C16_3 C17_3 1_555 1_555
C16_3 C20_3 1_555 1_555
C19_3 C20_3 1_555 1_555
C21_3 C24_3 1_555 1_555
C39_3 C41_3 1_555 1_555
C43_3 N4_3 1_555 1_555
N4_3 C44_3 1_555 1_555
O4_3 C8_3 1_555 1_555
O8_3 C8_3 1_555 1_555
C1_3 H1_3 1_555 1_555
C8_3 C14_3 1_555 1_555
C14_3 C1_3 1_555 1_555
C23_3 C14_3 1_555 1_555
H13_3 C23_3 1_555 1_555
C25_3 O10_3 1_555 1_555
C28_3 C23_3 1_555 1_555
C30_3 C1_3 1_555 1_555
H18 C30_3 1_555 1_555
Co5_2 O8_3 1_555 1_555
Co7_3 O4_3 1_555 1_555
C25_3 C28_3 1_555 1_555
C25_3 C30_3 1_555 1_555
Co4 O2_4 1_555 1_555
Co7 O5_4 1_555 1_555
O2_4 C18_4 1_555 1_555
O5_4 Co4 1_555 1_555
O6_4 Co4 1_555 1_555
N1_4 Co7 1_555 1_555
O9_4 Co7 1_555 1_555
C3_4 C4_4 1_555 1_555
C4_4 O6_4 1_555 1_555
C9_4 C3_4 1_555 1_555
H5_4 C9_4 1_555 1_555
C18_4 O5_4 1_555 1_555
C29_4 N1_4 1_555 1_555
H17_4 C29_4 1_555 1_555
O11_3 Co4 1_555 1_555
O12_3 Co7 1_555 1_555
N5_4 Co4 1_555 1_555
Co7 O11_3 1_555 1_555
O9_4 C4_4 1_555 1_555
C2_4 C18_4 1_555 1_555
O4_4 C8_4 1_555 1_555
O8_4 C8_4 1_555 1_555
C1_4 H1_4 1_555 1_555
C8_4 C14_4 1_555 1_555
C14_4 C1_4 1_555 1_555
C15_4 C10_4 1_555 1_555
H7_4 C15_4 1_555 1_555
C16_4 H8_2 1_555 1_555
H9_4 C17_4 1_555 1_555
H11_2 C21_4 1_555 1_555
O10_4 C24_4 1_555 1_555
C23_4 C14_4 1_555 1_555
H13_4 C23_4 1_555 1_555
C24_4 C15_4 1_555 1_555
C25_4 O10_4 1_555 1_555
C28_4 C23_4 1_555 1_555
H16_4 C28_4 1_555 1_555
C30_4 C1_4 1_555 1_555
H18_2 C30_4 1_555 1_555
Co4_3 O8_4 1_555 1_555
Co7_4 O4_4 1_555 1_555
C16_4 C17_4 1_555 1_555
C16_4 C20_4 1_555 1_555
C21_4 C24_4 1_555 1_555
C25_4 C28_4 1_555 1_555
C25_4 C30_4 1_555 1_555
O1_4 C11_4 1_555 1_555
O3_4 C11_4 1_555 1_555
O7_4 C12_4 1_555 1_555
N2_4 C40_4 1_555 1_555
C6_4 H3_2 1_555 1_555
C7_4 H4_4 1_555 1_555
C11_4 C13_4 1_555 1_555
C12_4 C6_4 1_555 1_555
C13_4 C7_4 1_555 1_555
H10_4 C19_4 1_555 1_555
C22_4 C6_4 1_555 1_555
H12_4 C22_4 1_555 1_555
C27_4 C7_4 1_555 1_555
H15_4 C27_4 1_555 1_555
N3_4 C33_4 1_555 1_555
C33_4 H20_4 1_555 1_555
H21_4 C33_4 1_555 1_555
C37_4 H27_4 1_555 1_555
C38_4 C37_4 1_555 1_555
C39_4 C38_4 1_555 1_555
H28_4 C39_4 1_555 1_555
C40_4 C37_4 1_555 1_555
H29_4 C40_4 1_555 1_555
C41_4 N2_4 1_555 1_555
H30_4 C41_4 1_555 1_555
C42_4 C33_4 1_555 1_555
H31_4 C42_4 1_555 1_555
H32_4 C42_4 1_555 1_555
H33_4 C43_4 1_555 1_555
H34_4 C43_4 1_555 1_555
N4_4 C42_4 1_555 1_555
C44_4 C38_4 1_555 1_555
H35_4 C44_4 1_555 1_555
H36_4 C44_4 1_555 1_555
Co3_3 O1_4 1_555 1_555
Co5_4 N2_4 1_555 1_555
Co6_4 O1_4 1_555 1_555
O3_4 Co6_4 1_555 1_555
C12_4 C27_4 1_555 1_555
C13_4 C22_4 1_555 1_555
C39_4 C41_4 1_555 1_555
C43_4 N4_4 1_555 1_555
N4_4 C44_4 1_555 1_555
N2_5 C40_5 1_555 1_555
C37_5 H27_5 1_555 1_555
C40_5 C37_5 1_555 1_555
H29_5 C40_5 1_555 1_555
C41_5 N2_5 1_555 1_555
H30_5 C41_5 1_555 1_555
Co4_3 N2_5 1_555 1_555
Co1_3 O2_5 1_555 1_555
Co2_3 O5_5 1_555 1_555
O1_5 C11_5 1_555 1_555
O2_5 C18_5 1_555 1_555
O3_5 C11_5 1_555 1_555
O4_5 C8_5 1_555 1_555
O5_5 Co1_3 1_555 1_555
O6_5 Co1_3 1_555 1_555
N1_5 Co2_3 1_555 1_555
O7_5 C12_5 1_555 1_555
O8_5 C8_5 1_555 1_555
O9_5 Co2_3 1_555 1_555
C1_5 H1_5 1_555 1_555
C2_5 C5_5 1_555 1_555
C3_5 C4_5 1_555 1_555
C4_5 O6_5 1_555 1_555
C5_5 H2_5 1_555 1_555
C6_5 H3_3 1_555 1_555
C7_5 H4_5 1_555 1_555
C8_5 C14_5 1_555 1_555
C9_5 C3_5 1_555 1_555
H5_5 C9_5 1_555 1_555
C10_5 C3_5 1_555 1_555
H6_5 C10_5 1_555 1_555
C11_5 C13_5 1_555 1_555
C12_5 C6_5 1_555 1_555
C13_5 C7_5 1_555 1_555
C14_5 C1_5 1_555 1_555
C15_5 C10_5 1_555 1_555
H7_5 C15_5 1_555 1_555
C16_5 H8_3 1_555 1_555
C17_5 C2_5 1_555 1_555
H9_5 C17_5 1_555 1_555
C18_5 O5_5 1_555 1_555
C19_5 C5_5 1_555 1_555
H10_5 C19_5 1_555 1_555
C20_5 O7_5 1_555 1_555
C21_5 C9_5 1_555 1_555
H11_3 C21_5 1_555 1_555
O10_5 C24_5 1_555 1_555
C22_5 C6_5 1_555 1_555
H12_5 C22_5 1_555 1_555
C23_5 C14_5 1_555 1_555
H13_5 C23_5 1_555 1_555
C24_5 C15_5 1_555 1_555
C25_5 O10_5 1_555 1_555
C26_4 N1_5 1_555 1_555
C27_5 C7_5 1_555 1_555
H15_5 C27_5 1_555 1_555
C28_5 C23_5 1_555 1_555
H16_5 C28_5 1_555 1_555
C29_5 N1_5 1_555 1_555
H17_5 C29_5 1_555 1_555
C30_5 C1_5 1_555 1_555
H18_3 C30_5 1_555 1_555
C31_4 C32_4 1_555 1_555
C32_4 C26_4 1_555 1_555
H19_4 C32_4 1_555 1_555
N3_5 C33_5 1_555 1_555
C33_5 H20_5 1_555 1_555
H21_5 C33_5 1_555 1_555
C34_4 C31_4 1_555 1_555
H22_4 C34_4 1_555 1_555
H23_4 C34_4 1_555 1_555
C35_4 N3_5 1_555 1_555
H24_4 C35_4 1_555 1_555
H25_4 C35_4 1_555 1_555
C36_4 C29_5 1_555 1_555
H26_5 C36_4 1_555 1_555
C39_5 C38_5 1_555 1_555
H28_5 C39_5 1_555 1_555
C42_5 C33_5 1_555 1_555
H31_5 C42_5 1_555 1_555
H32_5 C42_5 1_555 1_555
C43_5 C35_4 1_555 1_555
H33_5 C43_5 1_555 1_555
H34_5 C43_5 1_555 1_555
N4_5 C42_5 1_555 1_555
C44_5 C38_5 1_555 1_555
H35_5 C44_5 1_555 1_555
H36_5 C44_5 1_555 1_555
Co4_2 O1_5 1_555 1_555
Co3_2 O8_5 1_555 1_555
Co7_2 O1_5 1_555 1_555
Co6_2 O4_5 1_555 1_555
N5_5 Co1_3 1_555 1_555
O3_5 Co7_2 1_555 1_555
O9_5 C4_5 1_555 1_555
C2_5 C18_5 1_555 1_555
C12_5 C27_5 1_555 1_555
C13_5 C22_5 1_555 1_555
C16_5 C17_5 1_555 1_555
C16_5 C20_5 1_555 1_555
C19_5 C20_5 1_555 1_555
C21_5 C24_5 1_555 1_555
C25_5 C28_5 1_555 1_555
C25_5 C30_5 1_555 1_555
C31_4 C36_4 1_555 1_555
N3_5 C34_4 1_555 1_555
C43_5 N4_5 1_555 1_555
N4_5 C44_5 1_555 1_555
Co1_4 O2_6 1_555 1_555
Co2_4 O5_6 1_555 1_555
O11_3 C11_6 1_555 1_555
O2_6 C18_6 1_555 1_555
O12_3 C11_6 1_555 1_555
O13_3 C8_6 1_555 1_555
O5_6 Co1_4 1_555 1_555
O6_6 Co1_4 1_555 1_555
N1_6 Co2_4 1_555 1_555
O7_6 C12_6 1_555 1_555
O14_3 C8_6 1_555 1_555
O9_6 Co2_4 1_555 1_555
C1_6 H1_6 1_555 1_555
C2_6 C5_6 1_555 1_555
C3_6 C4_6 1_555 1_555
C4_6 O6_6 1_555 1_555
C5_6 H2_6 1_555 1_555
C6_6 H3_4 1_555 1_555
C7_6 H4_6 1_555 1_555
C8_6 C14_6 1_555 1_555
C9_6 C3_6 1_555 1_555
H5_6 C9_6 1_555 1_555
C10_6 C3_6 1_555 1_555
H6_6 C10_6 1_555 1_555
C11_6 C13_6 1_555 1_555
C12_6 C6_6 1_555 1_555
C13_6 C7_6 1_555 1_555
C14_6 C1_6 1_555 1_555
C15_6 C10_6 1_555 1_555
H7_6 C15_6 1_555 1_555
C16_6 H8_4 1_555 1_555
C17_6 C2_6 1_555 1_555
H9_6 C17_6 1_555 1_555
C18_6 O5_6 1_555 1_555
C19_6 C5_6 1_555 1_555
H10_6 C19_6 1_555 1_555
C20_6 O7_6 1_555 1_555
C21_6 C9_6 1_555 1_555
H11_4 C21_6 1_555 1_555
O10_6 C24_6 1_555 1_555
C22_6 C6_6 1_555 1_555
H12_6 C22_6 1_555 1_555
C23_6 C14_6 1_555 1_555
H13_6 C23_6 1_555 1_555
C24_6 C15_6 1_555 1_555
C25_6 O10_6 1_555 1_555
C26_5 N1_6 1_555 1_555
C27_6 C7_6 1_555 1_555
H15_6 C27_6 1_555 1_555
C28_6 C23_6 1_555 1_555
H16_6 C28_6 1_555 1_555
C29_6 N1_6 1_555 1_555
H17_6 C29_6 1_555 1_555
C30_6 C1_6 1_555 1_555
H18_4 C30_6 1_555 1_555
C31_5 C32_5 1_555 1_555
C32_5 C26_5 1_555 1_555
H19_5 C32_5 1_555 1_555
N3_6 C33_6 1_555 1_555
C33_6 H20_6 1_555 1_555
H21_6 C33_6 1_555 1_555
C34_5 C31_5 1_555 1_555
H22_5 C34_5 1_555 1_555
H23_5 C34_5 1_555 1_555
C35_5 N3_6 1_555 1_555
H24_5 C35_5 1_555 1_555
H25_5 C35_5 1_555 1_555
C36_5 C29_6 1_555 1_555
H26_6 C36_5 1_555 1_555
C39_6 C38_6 1_555 1_555
H28_6 C39_6 1_555 1_555
C42_6 C33_6 1_555 1_555
H31_6 C42_6 1_555 1_555
H32_6 C42_6 1_555 1_555
C43_6 C35_5 1_555 1_555
H33_6 C43_6 1_555 1_555
H34_6 C43_6 1_555 1_555
N4_6 C42_6 1_555 1_555
C44_6 C38_6 1_555 1_555
H35_6 C44_6 1_555 1_555
H36_6 C44_6 1_555 1_555
N5_6 Co1_4 1_555 1_555
O9_6 C4_6 1_555 1_555
C2_6 C18_6 1_555 1_555
C12_6 C27_6 1_555 1_555
C13_6 C22_6 1_555 1_555
C16_6 C17_6 1_555 1_555
C16_6 C20_6 1_555 1_555
C19_6 C20_6 1_555 1_555
C21_6 C24_6 1_555 1_555
C25_6 C28_6 1_555 1_555
C25_6 C30_6 1_555 1_555
C31_5 C36_5 1_555 1_555
N3_6 C34_5 1_555 1_555
C43_6 N4_6 1_555 1_555
N4_6 C44_6 1_555 1_555
N2_6 C40_6 1_555 1_555
C37_6 H27_6 1_555 1_555
C40_6 C37_6 1_555 1_555
H29_6 C40_6 1_555 1_555
C41_6 N2_6 1_555 1_555
H30_6 C41_6 1_555 1_555
Co3_3 N2_6 1_555 1_555
Co4_2 O2_7 1_555 1_555
Co7_2 O5_7 1_555 1_555
O2_7 C18_7 1_555 1_555
O5_7 Co4_2 1_555 1_555
O6_7 Co4_2 1_555 1_555
N1_7 Co7_2 1_555 1_555
O9_7 Co7_2 1_555 1_555
C3_7 C4_7 1_555 1_555
C4_7 O6_7 1_555 1_555
C9_7 C3_7 1_555 1_555
H5_7 C9_7 1_555 1_555
C18_7 O5_7 1_555 1_555
C29_7 N1_7 1_555 1_555
H17_7 C29_7 1_555 1_555
N5_7 Co4_2 1_555 1_555
O9_7 C4_7 1_555 1_555
C2_7 C18_7 1_555 1_555
O1_6 C11_7 1_555 1_555
O3_6 C11_7 1_555 1_555
O7_7 C12_7 1_555 1_555
N2_7 C40_7 1_555 1_555
C6_7 H3_5 1_555 1_555
C7_7 H4_7 1_555 1_555
C11_7 C13_7 1_555 1_555
C12_7 C6_7 1_555 1_555
C13_7 C7_7 1_555 1_555
H10_7 C19_7 1_555 1_555
C22_7 C6_7 1_555 1_555
H12_7 C22_7 1_555 1_555
C27_7 C7_7 1_555 1_555
H15_7 C27_7 1_555 1_555
N3_7 C33_7 1_555 1_555
C33_7 H20_7 1_555 1_555
H21_7 C33_7 1_555 1_555
C37_7 H27_7 1_555 1_555
C38_7 C37_7 1_555 1_555
C39_7 C38_7 1_555 1_555
H28_7 C39_7 1_555 1_555
C40_7 C37_7 1_555 1_555
H29_7 C40_7 1_555 1_555
C41_7 N2_7 1_555 1_555
H30_7 C41_7 1_555 1_555
C42_7 C33_7 1_555 1_555
H31_7 C42_7 1_555 1_555
H32_7 C42_7 1_555 1_555
H33_7 C43_7 1_555 1_555
H34_7 C43_7 1_555 1_555
N4_7 C42_7 1_555 1_555
C44_7 C38_7 1_555 1_555
H35_7 C44_7 1_555 1_555
H36_7 C44_7 1_555 1_555
Co4_3 O1_6 1_555 1_555
Co5_5 N2_7 1_555 1_555
Co7_4 O1_6 1_555 1_555
O3_6 Co7_4 1_555 1_555
C12_7 C27_7 1_555 1_555
C13_7 C22_7 1_555 1_555
C39_7 C41_7 1_555 1_555
C43_7 N4_7 1_555 1_555
N4_7 C44_7 1_555 1_555
O4_6 C8_7 1_555 1_555
O8_6 C8_7 1_555 1_555
C1_7 H1_7 1_555 1_555
C8_7 C14_7 1_555 1_555
C14_7 C1_7 1_555 1_555
C15_7 C10_7 1_555 1_555
H7_7 C15_7 1_555 1_555
C16_7 H8_5 1_555 1_555
H9_7 C17_7 1_555 1_555
H11_5 C21_7 1_555 1_555
O10_7 C24_7 1_555 1_555
C23_7 C14_7 1_555 1_555
H13_7 C23_7 1_555 1_555
C24_7 C15_7 1_555 1_555
C25_7 O10_7 1_555 1_555
C28_7 C23_7 1_555 1_555
H16_7 C28_7 1_555 1_555
C30_7 C1_7 1_555 1_555
H18_5 C30_7 1_555 1_555
Co3_3 O8_6 1_555 1_555
Co6_4 O4_6 1_555 1_555
C16_7 C17_7 1_555 1_555
C16_7 C20_7 1_555 1_555
C21_7 C24_7 1_555 1_555
C25_7 C28_7 1_555 1_555
C25_7 C30_7 1_555 1_555
Co3_2 O2_8 1_555 1_555
Co6_2 O5_8 1_555 1_555
O2_8 C18_8 1_555 1_555
O5_8 Co3_2 1_555 1_555
O6_8 Co3_2 1_555 1_555
N1_8 Co6_2 1_555 1_555
O9_8 Co6_2 1_555 1_555
C3_8 C4_8 1_555 1_555
C4_8 O6_8 1_555 1_555
C9_8 C3_8 1_555 1_555
H5_8 C9_8 1_555 1_555
C18_8 O5_8 1_555 1_555
C26_6 N1_8 1_555 1_555
H14_6 C26_6 1_555 1_555
C29_8 N1_8 1_555 1_555
H17_8 C29_8 1_555 1_555
C31_6 C32_6 1_555 1_555
C32_6 C26_6 1_555 1_555
H19_6 C32_6 1_555 1_555
C34_6 C31_6 1_555 1_555
H22_6 C34_6 1_555 1_555
H23_6 C34_6 1_555 1_555
H24_6 C35_6 1_555 1_555
H25_6 C35_6 1_555 1_555
C36_6 C29_8 1_555 1_555
N5_8 Co3_2 1_555 1_555
O9_8 C4_8 1_555 1_555
C2_8 C18_8 1_555 1_555
C31_6 C36_6 1_555 1_555
O4_7 C8_8 1_555 1_555
O8_7 C8_8 1_555 1_555
C1_8 H1_8 1_555 1_555
C8_8 C14_8 1_555 1_555
C14_8 C1_8 1_555 1_555
C23_8 C14_8 1_555 1_555
H13_8 C23_8 1_555 1_555
C25_8 O10_8 1_555 1_555
C28_8 C23_8 1_555 1_555
C30_8 C1_8 1_555 1_555
H18_6 C30_8 1_555 1_555
Co5 O8_7 1_555 1_555
Co6_3 O4_7 1_555 1_555
C25_8 C28_8 1_555 1_555
C25_8 C30_8 1_555 1_555
O1_7 C11_8 1_555 1_555
O3_7 C11_8 1_555 1_555
O7_8 C12_8 1_555 1_555
N2_8 C40_8 1_555 1_555
C6_8 H3_6 1_555 1_555
C7_8 H4_8 1_555 1_555
C11_8 C13_8 1_555 1_555
C12_8 C6_8 1_555 1_555
C13_8 C7_8 1_555 1_555
C15_8 C10_8 1_555 1_555
C16_8 H8_6 1_555 1_555
H9_8 C17_8 1_555 1_555
C19_8 C5_8 1_555 1_555
H10_8 C19_8 1_555 1_555
C20_8 O7_8 1_555 1_555
H11_6 C21_8 1_555 1_555
C22_8 C6_8 1_555 1_555
H12_8 C22_8 1_555 1_555
C24_8 C15_8 1_555 1_555
C27_8 C7_8 1_555 1_555
H15_8 C27_8 1_555 1_555
N3_8 C33_8 1_555 1_555
C33_8 H20_8 1_555 1_555
H21_8 C33_8 1_555 1_555
C37_8 H27_8 1_555 1_555
C38_8 C37_8 1_555 1_555
C39_8 C38_8 1_555 1_555
H28_8 C39_8 1_555 1_555
C40_8 C37_8 1_555 1_555
H29_8 C40_8 1_555 1_555
C41_8 N2_8 1_555 1_555
H30_8 C41_8 1_555 1_555
C42_8 C33_8 1_555 1_555
H31_8 C42_8 1_555 1_555
H32_8 C42_8 1_555 1_555
H33_8 C43_8 1_555 1_555
H34_8 C43_8 1_555 1_555
N4_8 C42_8 1_555 1_555
C44_8 C38_8 1_555 1_555
H35_8 C44_8 1_555 1_555
H36_8 C44_8 1_555 1_555
Co5_2 O1_7 1_555 1_555
Co5_6 N2_8 1_555 1_555
Co7_3 O1_7 1_555 1_555
O3_7 Co7_3 1_555 1_555
C12_8 C27_8 1_555 1_555
C13_8 C22_8 1_555 1_555
C16_8 C17_8 1_555 1_555
C16_8 C20_8 1_555 1_555
C19_8 C20_8 1_555 1_555
C21_8 C24_8 1_555 1_555
C39_8 C41_8 1_555 1_555
C43_8 N4_8 1_555 1_555
N4_8 C44_8 1_555 1_555
Co4_3 O2_9 1_555 1_555
Co7_4 O5_9 1_555 1_555
O2_9 C18_9 1_555 1_555
O5_9 Co4_3 1_555 1_555
O6_9 Co4_3 1_555 1_555
N1_9 Co7_4 1_555 1_555
O7_9 C12_9 1_555 1_555
O9_9 Co7_4 1_555 1_555
C2_9 C5_9 1_555 1_555
C3_9 C4_9 1_555 1_555
C4_9 O6_9 1_555 1_555
C5_9 H2_9 1_555 1_555
C9_9 C3_9 1_555 1_555
H5_9 C9_9 1_555 1_555
C10_9 C3_9 1_555 1_555
H6_9 C10_9 1_555 1_555
C15_9 C10_9 1_555 1_555
H7_9 C15_9 1_555 1_555
C16_9 H8_7 1_555 1_555
C17_9 C2_9 1_555 1_555
H9_9 C17_9 1_555 1_555
C18_9 O5_9 1_555 1_555
C19_9 C5_9 1_555 1_555
H10_9 C19_9 1_555 1_555
C20_9 O7_9 1_555 1_555
C21_9 C9_9 1_555 1_555
O10_9 C24_9 1_555 1_555
C24_9 C15_9 1_555 1_555
C25_9 O10_9 1_555 1_555
C26_7 N1_9 1_555 1_555
H14_7 C26_7 1_555 1_555
C29_9 N1_9 1_555 1_555
H17_9 C29_9 1_555 1_555
C31_7 C32_7 1_555 1_555
C32_7 C26_7 1_555 1_555
H19_7 C32_7 1_555 1_555
N3_9 C33_9 1_555 1_555
C33_9 H20_9 1_555 1_555
H21_9 C33_9 1_555 1_555
C34_7 C31_7 1_555 1_555
H22_7 C34_7 1_555 1_555
H23_7 C34_7 1_555 1_555
C35_7 N3_9 1_555 1_555
H24_7 C35_7 1_555 1_555
H25_7 C35_7 1_555 1_555
C36_7 C29_9 1_555 1_555
H26_9 C36_7 1_555 1_555
C37_9 H27_9 1_555 1_555
C38_9 C37_9 1_555 1_555
C40_9 C37_9 1_555 1_555
H29_9 C40_9 1_555 1_555
C42_9 C33_9 1_555 1_555
H31_9 C42_9 1_555 1_555
H32_9 C42_9 1_555 1_555
C43_9 C35_7 1_555 1_555
H33_9 C43_9 1_555 1_555
H34_9 C43_9 1_555 1_555
N4_9 C42_9 1_555 1_555
C44_9 C38_9 1_555 1_555
H35_9 C44_9 1_555 1_555
H36_9 C44_9 1_555 1_555
O9_9 C4_9 1_555 1_555
C2_9 C18_9 1_555 1_555
C16_9 C17_9 1_555 1_555
C16_9 C20_9 1_555 1_555
C19_9 C20_9 1_555 1_555
C21_9 C24_9 1_555 1_555
C25_9 C30_9 1_555 1_555
C31_7 C36_7 1_555 1_555
N3_9 C34_7 1_555 1_555
C43_9 N4_9 1_555 1_555
N4_9 C44_9 1_555 1_555
O1_8 C11_9 1_555 1_555
O3_8 C11_9 1_555 1_555
O4_8 C8_9 1_555 1_555
O8_8 C8_9 1_555 1_555
C1_9 H1_9 1_555 1_555
C6_9 H3_7 1_555 1_555
C7_9 H4_9 1_555 1_555
C8_9 C14_9 1_555 1_555
C11_9 C13_9 1_555 1_555
C13_9 C7_9 1_555 1_555
C14_9 C1_9 1_555 1_555
C22_9 C6_9 1_555 1_555
H12_9 C22_9 1_555 1_555
C23_9 C14_9 1_555 1_555
H13_9 C23_9 1_555 1_555
C27_9 C7_9 1_555 1_555
C28_9 C23_9 1_555 1_555
H28_9 C39_9 1_555 1_555
C41_9 N5_5 1_555 1_555
H30_9 C41_9 1_555 1_555
Co5_5 O1_8 1_555 1_555
Co5_6 O8_8 1_555 1_555
Co6_5 O1_8 1_555 1_555
Co7_5 O4_8 1_555 1_555
O3_8 Co6_5 1_555 1_555
C13_9 C22_9 1_555 1_555
C39_9 C41_9 1_555 1_555
Co3_3 O2_10 1_555 1_555
Co6_4 O5_10 1_555 1_555
O2_10 C18_10 1_555 1_555
O5_10 Co3_3 1_555 1_555
O6_10 Co3_3 1_555 1_555
N1_10 Co6_4 1_555 1_555
O7_10 C12_10 1_555 1_555
O9_10 Co6_4 1_555 1_555
C2_10 C5_10 1_555 1_555
C3_10 C4_10 1_555 1_555
C4_10 O6_10 1_555 1_555
C5_10 H2_10 1_555 1_555
C9_10 C3_10 1_555 1_555
H5_10 C9_10 1_555 1_555
C10_10 C3_10 1_555 1_555
H6_10 C10_10 1_555 1_555
C15_10 C10_10 1_555 1_555
H7_10 C15_10 1_555 1_555
C16_10 H8_8 1_555 1_555
C17_10 C2_10 1_555 1_555
H9_10 C17_10 1_555 1_555
C18_10 O5_10 1_555 1_555
C19_10 C5_10 1_555 1_555
H10_10 C19_10 1_555 1_555
C20_10 O7_10 1_555 1_555
C21_10 C9_10 1_555 1_555
O10_10 C24_10 1_555 1_555
C24_10 C15_10 1_555 1_555
C25_10 O10_10 1_555 1_555
C26_8 N1_10 1_555 1_555
H14_8 C26_8 1_555 1_555
C29_10 N1_10 1_555 1_555
H17_10 C29_10 1_555 1_555
C31_8 C32_8 1_555 1_555
C32_8 C26_8 1_555 1_555
H19_8 C32_8 1_555 1_555
N3_10 C33_10 1_555 1_555
C33_10 H20_10 1_555 1_555
H21_10 C33_10 1_555 1_555
C34_8 C31_8 1_555 1_555
H22_8 C34_8 1_555 1_555
H23_8 C34_8 1_555 1_555
C35_8 N3_10 1_555 1_555
H24_8 C35_8 1_555 1_555
H25_8 C35_8 1_555 1_555
C36_8 C29_10 1_555 1_555
H26_10 C36_8 1_555 1_555
C37_10 H27_10 1_555 1_555
C38_10 C37_10 1_555 1_555
C40_10 C37_10 1_555 1_555
H29_10 C40_10 1_555 1_555
C42_10 C33_10 1_555 1_555
H31_10 C42_10 1_555 1_555
H32_10 C42_10 1_555 1_555
C43_10 C35_8 1_555 1_555
H33_10 C43_10 1_555 1_555
H34_10 C43_10 1_555 1_555
N4_10 C42_10 1_555 1_555
C44_10 C38_10 1_555 1_555
H35_10 C44_10 1_555 1_555
H36_10 C44_10 1_555 1_555
O9_10 C4_10 1_555 1_555
C2_10 C18_10 1_555 1_555
C16_10 C17_10 1_555 1_555
C16_10 C20_10 1_555 1_555
C19_10 C20_10 1_555 1_555
C21_10 C24_10 1_555 1_555
C25_10 C30_10 1_555 1_555
C31_8 C36_8 1_555 1_555
N3_10 C34_8 1_555 1_555
C43_10 N4_10 1_555 1_555
N4_10 C44_10 1_555 1_555
O1_9 C11_10 1_555 1_555
O3_9 C11_10 1_555 1_555
O4_9 C8_10 1_555 1_555
O8_9 C8_10 1_555 1_555
C1_10 H1_10 1_555 1_555
C6_10 H3_8 1_555 1_555
C7_10 H4_10 1_555 1_555
C8_10 C14_10 1_555 1_555
C11_10 C13_10 1_555 1_555
C13_10 C7_10 1_555 1_555
C14_10 C1_10 1_555 1_555
C22_10 C6_10 1_555 1_555
H12_10 C22_10 1_555 1_555
C23_10 C14_10 1_555 1_555
H13_10 C23_10 1_555 1_555
C27_10 C7_10 1_555 1_555
C28_10 C23_10 1_555 1_555
H28_10 C39_10 1_555 1_555
C41_10 N5_6 1_555 1_555
H30_10 C41_10 1_555 1_555
Co5_4 O1_9 1_555 1_555
Co5_3 O8_9 1_555 1_555
Co6_6 O1_9 1_555 1_555
Co7_6 O4_9 1_555 1_555
O3_9 Co6_6 1_555 1_555
C13_10 C22_10 1_555 1_555
C39_10 C41_10 1_555 1_555
Co5_5 O2_11 1_555 1_555
Co6_5 O5_11 1_555 1_555
O11_4 C11_11 1_555 1_555
O2_11 C18_11 1_555 1_555
O12_4 C11_11 1_555 1_555
O13_5 C8_11 1_555 1_555
O5_11 Co5_5 1_555 1_555
O6_11 Co5_5 1_555 1_555
N1_11 Co6_5 1_555 1_555
O7_11 C12_11 1_555 1_555
O14_5 C8_11 1_555 1_555
O9_11 Co6_5 1_555 1_555
C1_11 H1_11 1_555 1_555
C2_11 C5_11 1_555 1_555
N5_7 C40_11 1_555 1_555
C3_11 C4_11 1_555 1_555
C4_11 O6_11 1_555 1_555
C5_11 H2_11 1_555 1_555
C6_11 H3_9 1_555 1_555
C7_11 H4_11 1_555 1_555
C8_11 C14_11 1_555 1_555
C9_11 C3_11 1_555 1_555
H5_11 C9_11 1_555 1_555
C10_11 C3_11 1_555 1_555
H6_11 C10_11 1_555 1_555
C11_11 C13_11 1_555 1_555
C12_11 C6_11 1_555 1_555
C13_11 C7_11 1_555 1_555
C14_11 C1_11 1_555 1_555
C15_11 C10_11 1_555 1_555
H7_11 C15_11 1_555 1_555
C16_11 H8_9 1_555 1_555
C17_11 C2_11 1_555 1_555
H9_11 C17_11 1_555 1_555
C18_11 O5_11 1_555 1_555
C19_11 C5_11 1_555 1_555
H10_11 C19_11 1_555 1_555
C20_11 O7_11 1_555 1_555
C21_11 C9_11 1_555 1_555
H11_7 C21_11 1_555 1_555
O10_11 C24_11 1_555 1_555
C22_11 C6_11 1_555 1_555
H12_11 C22_11 1_555 1_555
C23_11 C14_11 1_555 1_555
H13_11 C23_11 1_555 1_555
C24_11 C15_11 1_555 1_555
C25_11 O10_11 1_555 1_555
C26_9 N1_11 1_555 1_555
H14_9 C26_9 1_555 1_555
C27_11 C7_11 1_555 1_555
H15_11 C27_11 1_555 1_555
C28_11 C23_11 1_555 1_555
H16_11 C28_11 1_555 1_555
C29_11 N1_11 1_555 1_555
H17_11 C29_11 1_555 1_555
C30_11 C1_11 1_555 1_555
H18_7 C30_11 1_555 1_555
C31_9 C32_9 1_555 1_555
C32_9 C26_9 1_555 1_555
H19_9 C32_9 1_555 1_555
N3_11 C33_11 1_555 1_555
C33_11 H20_11 1_555 1_555
H21_11 C33_11 1_555 1_555
C34_9 C31_9 1_555 1_555
H22_9 C34_9 1_555 1_555
H23_9 C34_9 1_555 1_555
C35_9 N3_11 1_555 1_555
H24_9 C35_9 1_555 1_555
H25_9 C35_9 1_555 1_555
C36_9 C29_11 1_555 1_555
H26_11 C36_9 1_555 1_555
C37_11 H27_11 1_555 1_555
C38_11 C37_11 1_555 1_555
C39_11 C38_11 1_555 1_555
H28_11 C39_11 1_555 1_555
C40_11 C37_11 1_555 1_555
H29_11 C40_11 1_555 1_555
C41_11 N5_7 1_555 1_555
H30_11 C41_11 1_555 1_555
C42_11 C33_11 1_555 1_555
H31_11 C42_11 1_555 1_555
H32_11 C42_11 1_555 1_555
C43_11 C35_9 1_555 1_555
H33_11 C43_11 1_555 1_555
H34_11 C43_11 1_555 1_555
N4_11 C42_11 1_555 1_555
C44_11 C38_11 1_555 1_555
H35_11 C44_11 1_555 1_555
H36_11 C44_11 1_555 1_555
O13_6 Co6_5 1_555 1_555
O14_6 Co5_5 1_555 1_555
O9_11 C4_11 1_555 1_555
C2_11 C18_11 1_555 1_555
C12_11 C27_11 1_555 1_555
C13_11 C22_11 1_555 1_555
C16_11 C17_11 1_555 1_555
C16_11 C20_11 1_555 1_555
C19_11 C20_11 1_555 1_555
C21_11 C24_11 1_555 1_555
C25_11 C28_11 1_555 1_555
C25_11 C30_11 1_555 1_555
C31_9 C36_9 1_555 1_555
N3_11 C34_9 1_555 1_555
C39_11 C41_11 1_555 1_555
C43_11 N4_11 1_555 1_555
N4_11 C44_11 1_555 1_555
O13 C8_12 1_555 1_555
O14 C8_12 1_555 1_555
C1_12 H1_12 1_555 1_555
C8_12 C14_12 1_555 1_555
C14_12 C1_12 1_555 1_555
C23_12 C14_12 1_555 1_555
H13_12 C23_12 1_555 1_555
C25_12 O10_12 1_555 1_555
C28_12 C23_12 1_555 1_555
C30_12 C1_12 1_555 1_555
H18_8 C30_12 1_555 1_555
C25_12 C28_12 1_555 1_555
C25_12 C30_12 1_555 1_555
Co5_6 O2_12 1_555 1_555
Co7_5 O5_12 1_555 1_555
O2_12 C18_12 1_555 1_555
O5_12 Co5_6 1_555 1_555
O6_12 Co5_6 1_555 1_555
N1_12 Co7_5 1_555 1_555
O9_12 Co7_5 1_555 1_555
C2_12 C5_12 1_555 1_555
C3_12 C4_12 1_555 1_555
C4_12 O6_12 1_555 1_555
C5_12 H2_12 1_555 1_555
C9_12 C3_12 1_555 1_555
H5_12 C9_12 1_555 1_555
C10_12 C3_12 1_555 1_555
H6_12 C10_12 1_555 1_555
C15_12 C10_12 1_555 1_555
C16_12 H8_10 1_555 1_555
C17_12 C2_12 1_555 1_555
H9_12 C17_12 1_555 1_555
C18_12 O5_12 1_555 1_555
C21_12 C9_12 1_555 1_555
H11_8 C21_12 1_555 1_555
C24_12 C15_12 1_555 1_555
C29_12 N1_12 1_555 1_555
H17_12 C29_12 1_555 1_555
O11_6 Co5_6 1_555 1_555
O12_6 Co7_5 1_555 1_555
Co7_5 O11_6 1_555 1_555
O9_12 C4_12 1_555 1_555
C2_12 C18_12 1_555 1_555
C16_12 C17_12 1_555 1_555
C16_12 C20_12 1_555 1_555
C21_12 C24_12 1_555 1_555
O11_2 C11_12 1_555 1_555
O12_2 C11_12 1_555 1_555
O7_12 C12_12 1_555 1_555
N5_8 C40_12 1_555 1_555
C6_12 H3_10 1_555 1_555
C7_12 H4_12 1_555 1_555
C11_12 C13_12 1_555 1_555
C12_12 C6_12 1_555 1_555
C13_12 C7_12 1_555 1_555
H10_12 C19_12 1_555 1_555
C22_12 C6_12 1_555 1_555
H12_12 C22_12 1_555 1_555
H14_10 C26_10 1_555 1_555
C27_12 C7_12 1_555 1_555
H15_12 C27_12 1_555 1_555
C31_10 C32_10 1_555 1_555
C32_10 C26_10 1_555 1_555
H19_10 C32_10 1_555 1_555
N3_12 C33_12 1_555 1_555
C33_12 H20_12 1_555 1_555
H21_12 C33_12 1_555 1_555
C34_10 C31_10 1_555 1_555
H22_10 C34_10 1_555 1_555
H23_10 C34_10 1_555 1_555
C35_10 N3_12 1_555 1_555
H24_10 C35_10 1_555 1_555
H25_10 C35_10 1_555 1_555
H26_12 C36_10 1_555 1_555
C37_12 H27_12 1_555 1_555
C38_12 C37_12 1_555 1_555
C39_12 C38_12 1_555 1_555
H28_12 C39_12 1_555 1_555
C40_12 C37_12 1_555 1_555
H29_12 C40_12 1_555 1_555
C41_12 N5_8 1_555 1_555
H30_12 C41_12 1_555 1_555
C42_12 C33_12 1_555 1_555
H31_12 C42_12 1_555 1_555
H32_12 C42_12 1_555 1_555
C43_12 C35_10 1_555 1_555
H33_12 C43_12 1_555 1_555
H34_12 C43_12 1_555 1_555
N4_12 C42_12 1_555 1_555
C44_12 C38_12 1_555 1_555
H35_12 C44_12 1_555 1_555
H36_12 C44_12 1_555 1_555
C12_12 C27_12 1_555 1_555
C13_12 C22_12 1_555 1_555
C31_10 C36_10 1_555 1_555
N3_12 C34_10 1_555 1_555
C39_12 C41_12 1_555 1_555
C43_12 N4_12 1_555 1_555
N4_12 C44_12 1_555 1_555
Co5 O2_13 1_555 1_555
Co6_3 O5_13 1_555 1_555
O2_13 C18_13 1_555 1_555
O5_13 Co5 1_555 1_555
O6_13 Co5 1_555 1_555
N1_13 Co6_3 1_555 1_555
O7_13 C12_13 1_555 1_555
O9_13 Co6_3 1_555 1_555
C2_13 C5_13 1_555 1_555
C3_13 C4_13 1_555 1_555
C4_13 O6_13 1_555 1_555
C5_13 H2_13 1_555 1_555
C9_13 C3_13 1_555 1_555
H5_13 C9_13 1_555 1_555
C10_13 C3_13 1_555 1_555
H6_13 C10_13 1_555 1_555
C15_13 C10_13 1_555 1_555
H7_13 C15_13 1_555 1_555
C17_13 C2_13 1_555 1_555
H9_13 C17_13 1_555 1_555
C18_13 O5_13 1_555 1_555
C19_13 C5_13 1_555 1_555
H10_13 C19_13 1_555 1_555
C20_13 O7_13 1_555 1_555
C21_13 C9_13 1_555 1_555
H11_9 C21_13 1_555 1_555
O10_13 C24_13 1_555 1_555
C24_13 C15_13 1_555 1_555
C25_13 O10_13 1_555 1_555
C26_11 N1_13 1_555 1_555
H14_11 C26_11 1_555 1_555
C29_13 N1_13 1_555 1_555
H17_13 C29_13 1_555 1_555
H18_9 C30_13 1_555 1_555
C31_11 C32_11 1_555 1_555
C32_11 C26_11 1_555 1_555
H19_11 C32_11 1_555 1_555
N3_13 C33_13 1_555 1_555
C33_13 H20_13 1_555 1_555
H21_13 C33_13 1_555 1_555
C34_11 C31_11 1_555 1_555
H22_11 C34_11 1_555 1_555
H23_11 C34_11 1_555 1_555
C35_11 N3_13 1_555 1_555
H24_11 C35_11 1_555 1_555
H25_11 C35_11 1_555 1_555
C36_11 C29_13 1_555 1_555
H26_13 C36_11 1_555 1_555
C42_13 C33_13 1_555 1_555
H31_13 C42_13 1_555 1_555
H32_13 C42_13 1_555 1_555
C43_13 C35_11 1_555 1_555
H33_13 C43_13 1_555 1_555
H34_13 C43_13 1_555 1_555
N4_13 C42_13 1_555 1_555
C44_13 C38_13 1_555 1_555
H35_13 C44_13 1_555 1_555
H36_13 C44_13 1_555 1_555
O9_13 C4_13 1_555 1_555
C2_13 C18_13 1_555 1_555
C16_13 C17_13 1_555 1_555
C16_13 C20_13 1_555 1_555
C19_13 C20_13 1_555 1_555
C21_13 C24_13 1_555 1_555
C25_13 C30_13 1_555 1_555
C31_11 C36_11 1_555 1_555
N3_13 C34_11 1_555 1_555
C43_13 N4_13 1_555 1_555
N4_13 C44_13 1_555 1_555
C41_13 N5 1_555 1_555
H30_13 C41_13 1_555 1_555
O1_10 C11_13 1_555 1_555
O3_10 C11_13 1_555 1_555
O4_10 C8_13 1_555 1_555
O8_10 C8_13 1_555 1_555
C1_13 H1_13 1_555 1_555
C7_13 H4_13 1_555 1_555
C8_13 C14_13 1_555 1_555
C11_13 C13_13 1_555 1_555
C13_13 C7_13 1_555 1_555
C14_13 C1_13 1_555 1_555
C22_13 C6_13 1_555 1_555
H12_13 C22_13 1_555 1_555
C23_13 C14_13 1_555 1_555
H13_13 C23_13 1_555 1_555
C27_13 C7_13 1_555 1_555
C28_13 C23_13 1_555 1_555
H28_13 C39_13 1_555 1_555
Co5_3 O1_10 1_555 1_555
Co5_4 O8_10 1_555 1_555
Co7_6 O1_10 1_555 1_555
Co6_6 O4_10 1_555 1_555
O3_10 Co7_6 1_555 1_555
C13_13 C22_13 1_555 1_555
Co5_2 O2_14 1_555 1_555
Co7_3 O5_14 1_555 1_555
O2_14 C18_14 1_555 1_555
O5_14 Co5_2 1_555 1_555
O6_14 Co5_2 1_555 1_555
N1_14 Co7_3 1_555 1_555
O7_14 C12_14 1_555 1_555
O9_14 Co7_3 1_555 1_555
C2_14 C5_14 1_555 1_555
C3_14 C4_14 1_555 1_555
C4_14 O6_14 1_555 1_555
C5_14 H2_14 1_555 1_555
C9_14 C3_14 1_555 1_555
H5_14 C9_14 1_555 1_555
C10_14 C3_14 1_555 1_555
H6_14 C10_14 1_555 1_555
C15_14 C10_14 1_555 1_555
H7_14 C15_14 1_555 1_555
C17_14 C2_14 1_555 1_555
H9_14 C17_14 1_555 1_555
C18_14 O5_14 1_555 1_555
C19_14 C5_14 1_555 1_555
H10_14 C19_14 1_555 1_555
C20_14 O7_14 1_555 1_555
C21_14 C9_14 1_555 1_555
H11_10 C21_14 1_555 1_555
O10_14 C24_14 1_555 1_555
C24_14 C15_14 1_555 1_555
C25_14 O10_14 1_555 1_555
C26_12 N1_14 1_555 1_555
H14_12 C26_12 1_555 1_555
C29_14 N1_14 1_555 1_555
H17_14 C29_14 1_555 1_555
H18_10 C30_14 1_555 1_555
C31_12 C32_12 1_555 1_555
C32_12 C26_12 1_555 1_555
H19_12 C32_12 1_555 1_555
N3_14 C33_14 1_555 1_555
C33_14 H20_14 1_555 1_555
H21_14 C33_14 1_555 1_555
C34_12 C31_12 1_555 1_555
H22_12 C34_12 1_555 1_555
H23_12 C34_12 1_555 1_555
C35_12 N3_14 1_555 1_555
H24_12 C35_12 1_555 1_555
H25_12 C35_12 1_555 1_555
C36_12 C29_14 1_555 1_555
H26_14 C36_12 1_555 1_555
C42_14 C33_14 1_555 1_555
H31_14 C42_14 1_555 1_555
H32_14 C42_14 1_555 1_555
C43_14 C35_12 1_555 1_555
H33_14 C43_14 1_555 1_555
H34_14 C43_14 1_555 1_555
N4_14 C42_14 1_555 1_555
C44_14 C38_14 1_555 1_555
H35_14 C44_14 1_555 1_555
H36_14 C44_14 1_555 1_555
O9_14 C4_14 1_555 1_555
C2_14 C18_14 1_555 1_555
C16_14 C17_14 1_555 1_555
C16_14 C20_14 1_555 1_555
C19_14 C20_14 1_555 1_555
C21_14 C24_14 1_555 1_555
C25_14 C30_14 1_555 1_555
C31_12 C36_12 1_555 1_555
N3_14 C34_12 1_555 1_555
C43_14 N4_14 1_555 1_555
N4_14 C44_14 1_555 1_555
O11_6 C11_14 1_555 1_555
O12_6 C11_14 1_555 1_555
O13_6 C8_14 1_555 1_555
O14_6 C8_14 1_555 1_555
C1_14 H1_14 1_555 1_555
C7_14 H4_14 1_555 1_555
C8_14 C14_14 1_555 1_555
C11_14 C13_14 1_555 1_555
C13_14 C7_14 1_555 1_555
C14_14 C1_14 1_555 1_555
C22_14 C6_14 1_555 1_555
H12_14 C22_14 1_555 1_555
C23_14 C14_14 1_555 1_555
H13_14 C23_14 1_555 1_555
C27_14 C7_14 1_555 1_555
C28_14 C23_14 1_555 1_555
H28_14 C39_14 1_555 1_555
C13_14 C22_14 1_555 1_555
C41_14 N5_2 1_555 1_555
H30_14 C41_14 1_555 1_555
O11 C11_15 1_555 1_555
O12 C11_15 1_555 1_555
O7_15 C12_15 1_555 1_555
N5_3 C40_13 1_555 1_555
C6_15 H3_11 1_555 1_555
C7_15 H4_15 1_555 1_555
C11_15 C13_15 1_555 1_555
C12_15 C6_15 1_555 1_555
C13_15 C7_15 1_555 1_555
H10_15 C19_15 1_555 1_555
C22_15 C6_15 1_555 1_555
H12_15 C22_15 1_555 1_555
H14_13 C26_13 1_555 1_555
C27_15 C7_15 1_555 1_555
H15_15 C27_15 1_555 1_555
C31_13 C32_13 1_555 1_555
C32_13 C26_13 1_555 1_555
H19_13 C32_13 1_555 1_555
N3_15 C33_15 1_555 1_555
C33_15 H20_15 1_555 1_555
H21_15 C33_15 1_555 1_555
C34_13 C31_13 1_555 1_555
H22_13 C34_13 1_555 1_555
H23_13 C34_13 1_555 1_555
C35_13 N3_15 1_555 1_555
H24_13 C35_13 1_555 1_555
H25_13 C35_13 1_555 1_555
H26_15 C36_13 1_555 1_555
C37_13 H27_13 1_555 1_555
C38_15 C37_13 1_555 1_555
C39_15 C38_15 1_555 1_555
H28_15 C39_15 1_555 1_555
C40_13 C37_13 1_555 1_555
H29_13 C40_13 1_555 1_555
C41_15 N5_3 1_555 1_555
H30_15 C41_15 1_555 1_555
C42_15 C33_15 1_555 1_555
H31_15 C42_15 1_555 1_555
H32_15 C42_15 1_555 1_555
C43_15 C35_13 1_555 1_555
H33_15 C43_15 1_555 1_555
H34_15 C43_15 1_555 1_555
N4_15 C42_15 1_555 1_555
C44_15 C38_15 1_555 1_555
H35_15 C44_15 1_555 1_555
H36_15 C44_15 1_555 1_555
C12_15 C27_15 1_555 1_555
C13_15 C22_15 1_555 1_555
C31_13 C36_13 1_555 1_555
N3_15 C34_13 1_555 1_555
C39_15 C41_15 1_555 1_555
C43_15 N4_15 1_555 1_555
N4_15 C44_15 1_555 1_555
Co5_3 O2_15 1_555 1_555
Co7_6 O5_15 1_555 1_555
O2_15 C18_15 1_555 1_555
O5_15 Co5_3 1_555 1_555
O6_15 Co5_3 1_555 1_555
N1_15 Co7_6 1_555 1_555
O9_15 Co7_6 1_555 1_555
C2_15 C5_15 1_555 1_555
C3_15 C4_15 1_555 1_555
C4_15 O6_15 1_555 1_555
C5_15 H2_15 1_555 1_555
C9_15 C3_15 1_555 1_555
H5_15 C9_15 1_555 1_555
C10_15 C3_15 1_555 1_555
H6_15 C10_15 1_555 1_555
C15_15 C10_15 1_555 1_555
C16_15 H8_11 1_555 1_555
C17_15 C2_15 1_555 1_555
H9_15 C17_15 1_555 1_555
C18_15 O5_15 1_555 1_555
C21_15 C9_15 1_555 1_555
H11_11 C21_15 1_555 1_555
C24_15 C15_15 1_555 1_555
C29_15 N1_15 1_555 1_555
H17_15 C29_15 1_555 1_555
O9_15 C4_15 1_555 1_555
C2_15 C18_15 1_555 1_555
C16_15 C17_15 1_555 1_555
C16_15 C20_15 1_555 1_555
C21_15 C24_15 1_555 1_555
O13_2 C8_15 1_555 1_555
O14_2 C8_15 1_555 1_555
C1_15 H1_15 1_555 1_555
C8_15 C14_15 1_555 1_555
C14_15 C1_15 1_555 1_555
C23_15 C14_15 1_555 1_555
H13_15 C23_15 1_555 1_555
C25_15 O10_15 1_555 1_555
C28_15 C23_15 1_555 1_555
C30_15 C1_15 1_555 1_555
H18_11 C30_15 1_555 1_555
C25_15 C28_15 1_555 1_555
C25_15 C30_15 1_555 1_555
Co5_4 O2_16 1_555 1_555
Co6_6 O5_16 1_555 1_555
O11_5 C11_16 1_555 1_555
O2_16 C18_16 1_555 1_555
O12_5 C11_16 1_555 1_555
O13_4 C8_16 1_555 1_555
O5_16 Co5_4 1_555 1_555
O6_16 Co5_4 1_555 1_555
N1_16 Co6_6 1_555 1_555
O7_16 C12_16 1_555 1_555
O14_4 C8_16 1_555 1_555
O9_16 Co6_6 1_555 1_555
C1_16 H1_16 1_555 1_555
C2_16 C5_16 1_555 1_555
N5_4 C40_14 1_555 1_555
C3_16 C4_16 1_555 1_555
C4_16 O6_16 1_555 1_555
C5_16 H2_16 1_555 1_555
C6_16 H3_12 1_555 1_555
C7_16 H4_16 1_555 1_555
C8_16 C14_16 1_555 1_555
C9_16 C3_16 1_555 1_555
H5_16 C9_16 1_555 1_555
C10_16 C3_16 1_555 1_555
H6_16 C10_16 1_555 1_555
C11_16 C13_16 1_555 1_555
C12_16 C6_16 1_555 1_555
C13_16 C7_16 1_555 1_555
C14_16 C1_16 1_555 1_555
C15_16 C10_16 1_555 1_555
H7_16 C15_16 1_555 1_555
C16_16 H8_12 1_555 1_555
C17_16 C2_16 1_555 1_555
H9_16 C17_16 1_555 1_555
C18_16 O5_16 1_555 1_555
C19_16 C5_16 1_555 1_555
H10_16 C19_16 1_555 1_555
C20_16 O7_16 1_555 1_555
C21_16 C9_16 1_555 1_555
H11_12 C21_16 1_555 1_555
O10_16 C24_16 1_555 1_555
C22_16 C6_16 1_555 1_555
H12_16 C22_16 1_555 1_555
C23_16 C14_16 1_555 1_555
H13_16 C23_16 1_555 1_555
C24_16 C15_16 1_555 1_555
C25_16 O10_16 1_555 1_555
C26_14 N1_16 1_555 1_555
H14_14 C26_14 1_555 1_555
C27_16 C7_16 1_555 1_555
H15_16 C27_16 1_555 1_555
C28_16 C23_16 1_555 1_555
H16_16 C28_16 1_555 1_555
C29_16 N1_16 1_555 1_555
H17_16 C29_16 1_555 1_555
C30_16 C1_16 1_555 1_555
H18_12 C30_16 1_555 1_555
C31_14 C32_14 1_555 1_555
C32_14 C26_14 1_555 1_555
H19_14 C32_14 1_555 1_555
N3_16 C33_16 1_555 1_555
C33_16 H20_16 1_555 1_555
H21_16 C33_16 1_555 1_555
C34_14 C31_14 1_555 1_555
H22_14 C34_14 1_555 1_555
H23_14 C34_14 1_555 1_555
C35_14 N3_16 1_555 1_555
H24_14 C35_14 1_555 1_555
H25_14 C35_14 1_555 1_555
C36_14 C29_16 1_555 1_555
H26_16 C36_14 1_555 1_555
C37_14 H27_14 1_555 1_555
C38_16 C37_14 1_555 1_555
C39_16 C38_16 1_555 1_555
H28_16 C39_16 1_555 1_555
C40_14 C37_14 1_555 1_555
H29_14 C40_14 1_555 1_555
C41_16 N5_4 1_555 1_555
H30_16 C41_16 1_555 1_555
C42_16 C33_16 1_555 1_555
H31_16 C42_16 1_555 1_555
H32_16 C42_16 1_555 1_555
C43_16 C35_14 1_555 1_555
H33_16 C43_16 1_555 1_555
H34_16 C43_16 1_555 1_555
N4_16 C42_16 1_555 1_555
C44_16 C38_16 1_555 1_555
H35_16 C44_16 1_555 1_555
H36_16 C44_16 1_555 1_555
O9_16 C4_16 1_555 1_555
C2_16 C18_16 1_555 1_555
C12_16 C27_16 1_555 1_555
C13_16 C22_16 1_555 1_555
C16_16 C17_16 1_555 1_555
C16_16 C20_16 1_555 1_555
C19_16 C20_16 1_555 1_555
C21_16 C24_16 1_555 1_555
C25_16 C28_16 1_555 1_555
C25_16 C30_16 1_555 1_555
C31_14 C36_14 1_555 1_555
N3_16 C34_14 1_555 1_555
C39_16 C41_16 1_555 1_555
C43_16 N4_16 1_555 1_555
N4_16 C44_16 1_555 1_555
H14_15 C26_15 1_555 1_555
C31_15 C32_15 1_555 1_555
C32_15 C26_15 1_555 1_555
H19_15 C32_15 1_555 1_555
C34_15 C31_15 1_555 1_555
H22_15 C34_15 1_555 1_555
H23_15 C34_15 1_555 1_555
H24_15 C35_15 1_555 1_555
H25_15 C35_15 1_555 1_555
C31_15 C36_15 1_555 1_555
H14_16 C26_16 1_555 1_555
C31_16 C32_16 1_555 1_555
C32_16 C26_16 1_555 1_555
H19_16 C32_16 1_555 1_555
C34_16 C31_16 1_555 1_555
H22_16 C34_16 1_555 1_555
H23_16 C34_16 1_555 1_555
H24_16 C35_16 1_555 1_555
H25_16 C35_16 1_555 1_555
C31_16 C36_16 1_555 1_555
C37_15 H27_15 1_555 1_555
C40_15 C37_15 1_555 1_555
H29_15 C40_15 1_555 1_555
C37_16 H27_16 1_555 1_555
C40_16 C37_16 1_555 1_555
H29_16 C40_16 1_555 1_555

#END
