
###############################################################################
#
# This file contains modified crystal structure data generated from the
# MOF subset of the Cambridge Structural Database (CSD) v543 
# hosted by the Cambridge Crystallographic Data Centre (CCDC).
#
# This work is licensed under the Creative Commons
# Attribution-NonCommercial-ShareAlike 4.0 International License.
# To view a copy of this license, visit
# http://creativecommons.org/licenses/by-nc-sa/4.0/
# or send a letter to
# Creative Commons, PO Box 1866, Mountain View, CA 94042, USA.
#
# CIF created using the CSD Python API on 29 September 2022
# The structure has been converted into the P1 space group
# The structure has a 3D framework
# The original CSD entry KOMMAD is in the monoclinic crystal system
# The framework has been calculated to contain at least 10.0% void space
# The void calculation uses a probe of radius 1.32A, grid spacing 0.4
#
###############################################################################

data_KOMMAD
_chemical_formula_moiety         '(C352 H288 Co14 N32 O80)n'
_symmetry_cell_setting           triclinic
_symmetry_space_group_name_H-M   'P 1'
_symmetry_Int_Tables_number      1
_space_group_name_Hall           'P 1'
loop_
_symmetry_equiv_pos_site_id
_symmetry_equiv_pos_as_xyz
1 x,y,z
_cell_length_a                   31.473(4)
_cell_length_b                   15.592(2)
_cell_length_c                   23.252(5)
_cell_angle_alpha                90
_cell_angle_beta                 126.422(3)
_cell_angle_gamma                90
_cell_volume                     9181.55
loop_
_atom_site_label
_atom_site_type_symbol
_atom_site_fract_x
_atom_site_fract_y
_atom_site_fract_z
C35 C 0.0454(4) 0.4932(9) 0.5671(7)
H21 H 0.066239 0.454376 0.560423
H22 H 0.066722 0.509548 0.617147
C39 C 0.0128(4) 0.3724(9) 0.5973(7)
H27 H 0.025861 0.326584 0.583408
H28 H 0.040484 0.387636 0.646459
N5 N 0.1218(2) 0.7225(4) 0.4181(3)
C45 C 0.0814(3) 0.7716(5) 0.4023(7)
H37 H 0.082895 0.829833 0.394831
C46 C 0.0349(3) 0.6581(7) 0.4086(5)
N6 N 0.0008(3) 0.5508(6) 0.4501(5)
C47 C 0.1174(3) 0.6398(6) 0.4271(6)
H38 H 0.144419 0.603096 0.437302
C49 C 0.0383(4) 0.7421(7) 0.3964(7)
H41 H 0.011144 0.779647 0.384040
C51 C 0.0749(4) 0.6054(8) 0.4220(7)
H44 H 0.073296 0.546670 0.427658
C52 C 0.0332(4) 0.5703(8) 0.5235(7)
H45 H 0.065799 0.595847 0.536088
H46 H 0.015518 0.611803 0.533643
Co8 Co 0.19235(3) 0.76968(6) 0.44455(5)
Co2 Co 0.80765(3) 0.23032(6) 0.55545(5)
O1 O 0.79161(18) 0.1513(3) 0.4764(2)
O3 O 0.70394(17) 0.1696(3) 0.4017(2)
N1 N 0.8782(2) 0.2775(4) 0.5819(3)
C1 C 0.7405(3) 0.0605(4) 0.3753(4)
C5 C 0.7458(3) 0.1316(4) 0.4214(3)
C23 C 0.6901(3) 0.0324(5) 0.3186(4)
H11 H 0.660442 0.058940 0.310430
C25 C 0.7836(3) 0.0211(5) 0.3857(4)
H13 H 0.817254 0.039905 0.422633
C28 C 0.9186(3) 0.2284(5) 0.5977(7)
H16 H 0.917105 0.170167 0.605169
C30 C 0.9651(3) 0.3419(7) 0.5914(5)
N3 N 0.9992(3) 0.4492(6) 0.5499(5)
C34 C 0.8826(3) 0.3602(6) 0.5729(6)
H20 H 0.855581 0.396904 0.562698
C38 C 0.9617(4) 0.2579(7) 0.6036(7)
H26 H 0.988856 0.220353 0.615960
C40 C 0.9251(4) 0.3946(8) 0.5780(7)
H29 H 0.926704 0.453330 0.572342
C44 C 0.9668(4) 0.4297(8) 0.4765(7)
H35 H 0.934201 0.404153 0.463912
H36 H 0.984482 0.388197 0.466357
C48 C 0.9546(4) 0.5068(9) 0.4329(7)
H39 H 0.933761 0.545624 0.439577
H40 H 0.933278 0.490452 0.382853
C50 C 0.9872(4) 0.6276(9) 0.4027(7)
H42 H 0.974139 0.673416 0.416592
H43 H 0.959516 0.612364 0.353541
Co10 Co 0.69235(3) 0.26968(6) 0.44455(5)
O22 O 0.79606(17) 0.3304(3) 0.5983(2)
O24 O 0.8237(2) 0.1365(3) 0.6280(3)
O26 O 0.73915(19) 0.1618(3) 0.5492(3)
H47 H 0.107157 0.048458 0.962645
O16 O 0.1763(2) 0.1365(3) 0.8720(3)
O18 O 0.26085(19) 0.1618(3) 0.9508(3)
C64 C 0.2369(3) 0.0506(4) 0.8668(4)
C75 C 0.2254(3) 0.1196(4) 0.8983(4)
C76 C 0.1975(3) 0.0113(5) 0.8048(4)
H62 H 0.162559 0.028218 0.781294
C79 C 0.2896(3) 0.0279(5) 0.8991(4)
H64 H 0.316474 0.056031 0.940363
Co5 Co 0.00848(3) 0.00697(5) 0.94632(5)
Co6 Co 0.19235(3) 0.23032(6) 0.94455(5)
Co1 Co 0.49152(3) 0.49303(5) 0.05368(5)
O2 O 0.54215(19) 0.5912(3) 0.0936(3)
O4 O 0.56105(19) 0.5960(3) 0.0151(2)
O5 O 0.5442(2) 0.4044(3) 0.1271(3)
O7 O 0.5536(2) 0.4215(3) 0.0412(3)
O9 O 0.7295(2) 0.1407(4) 0.2247(3)
O10 O 0.7263(2) 0.8649(4) 0.2436(3)
N2 N 0.4473(2) 0.5411(3) 0.0854(3)
C2 C 0.5670(3) 0.6206(4) 0.0708(4)
C3 C 0.6068(3) 0.6902(4) 0.1144(4)
C6 C 0.6415(3) 0.7187(5) 0.0997(4)
H1 H 0.638112 0.697334 0.059817
C7 C 0.6083(2) 0.3177(4) 0.1301(3)
C8 C 0.6253(3) 0.2860(5) 0.0912(4)
H2 H 0.610046 0.305405 0.044956
C9 C 0.6654(3) 0.2250(5) 0.1216(4)
H3 H 0.677099 0.203458 0.095977
C10 C 0.7893(3) 0.0554(5) 0.2230(4)
H4 H 0.815818 0.083346 0.264588
C11 C 0.7272(3) 0.9282(5) 0.2864(4)
C12 C 0.6307(3) 0.2889(5) 0.1977(4)
H5 H 0.619459 0.310447 0.223908
C13 C 0.5662(3) 0.3854(4) 0.0968(4)
C14 C 0.6870(3) 0.1978(5) 0.1884(4)
C17 C 0.7378(3) 0.0793(5) 0.1893(4)
C18 C 0.6982(3) 0.0360(5) 0.1298(4)
H7 H 0.663085 0.049674 0.108896
C20 C 0.7784(3) 0.9539(4) 0.3427(4)
H9 H 0.807933 0.926783 0.351063
C21 C 0.6841(3) 0.8111(5) 0.2012(4)
C22 C 0.6807(3) 0.7779(4) 0.1430(4)
H10 H 0.704309 0.795066 0.133510
C24 C 0.4009(3) 0.5029(6) 0.0621(5)
H12 H 0.392843 0.451542 0.037355
C26 C 0.6707(3) 0.2270(5) 0.2279(4)
H14 H 0.685801 0.206154 0.273746
C27 C 0.6836(3) 0.9653(5) 0.2744(4)
H15 H 0.650073 0.946383 0.237362
C29 C 0.6118(3) 0.7231(4) 0.1732(4)
H17 H 0.589099 0.704379 0.183803
C31 C 0.3658(4) 0.5332(8) 0.0719(6)
H18 H 0.336162 0.501312 0.057898
N4 N 0.2972(3) 0.7088(5) 0.0542(4)
C32 C 0.3750(3) 0.6157(7) 0.1043(5)
C33 C 0.6506(3) 0.7844(5) 0.2173(4)
H19 H 0.653593 0.806598 0.256711
C36 C 0.4552(5) 0.6175(6) 0.1143(7)
H23 H 0.485315 0.647959 0.128321
C37 C 0.2605(5) 0.7436(9) 0.0658(6)
H24 H 0.279902 0.764284 0.114571
H25 H 0.237025 0.698376 0.059807
C41 C 0.4199(5) 0.6538(7) 0.1245(7)
H30 H 0.427893 0.707242 0.146452
C42 C 0.3336(5) 0.6544(9) 0.1110(6)
H31 H 0.314432 0.608166 0.114042
H32 H 0.351569 0.686617 0.155282
C60 C 0.2288(6) 0.8144(15) 0.0164(7)
H55 H 0.251759 0.862725 0.026771
H56 H 0.203100 0.832635 0.024172
C43 C 0.2712(6) 0.6856(15) 0.9836(7)
H33 H 0.248241 0.637275 0.973229
H34 H 0.296900 0.667365 0.975828
N7 N 0.0527(2) 0.9589(3) 0.9146(3)
C53 C 0.0991(3) 0.9971(6) 0.9379(5)
C54 C 0.1342(4) 0.9668(8) 0.9281(6)
H48 H 0.163838 0.998688 0.942102
N8 N 0.2028(3) 0.7912(5) 0.9458(4)
C55 C 0.1250(3) 0.8843(7) 0.8957(5)
C56 C 0.0448(5) 0.8825(6) 0.8857(7)
H49 H 0.014685 0.852041 0.871679
C57 C 0.2395(5) 0.7564(9) 0.9342(6)
H50 H 0.220098 0.735716 0.885429
H51 H 0.262975 0.801624 0.940193
C58 C 0.0801(5) 0.8462(7) 0.8755(7)
H52 H 0.072107 0.792758 0.853548
C59 C 0.1664(5) 0.8456(9) 0.8890(6)
H53 H 0.185568 0.891834 0.885958
H54 H 0.148431 0.813383 0.844718
Co3 Co 0.50848(3) 0.50697(5) 0.94632(5)
O12 O 0.45785(19) 0.4088(3) 0.9064(3)
O14 O 0.43895(19) 0.4040(3) 0.9849(2)
O15 O 0.4558(2) 0.5956(3) 0.8729(3)
O17 O 0.4464(2) 0.5785(3) 0.9588(3)
O19 O 0.2705(2) 0.8593(4) 0.7753(3)
O20 O 0.2737(2) 0.1351(4) 0.7564(3)
C62 C 0.4330(3) 0.3794(4) 0.9292(4)
C63 C 0.3932(3) 0.3098(4) 0.8856(4)
C66 C 0.3585(3) 0.2813(5) 0.9003(4)
H57 H 0.361888 0.302666 0.940183
C67 C 0.3917(2) 0.6823(4) 0.8699(3)
C68 C 0.3747(3) 0.7140(5) 0.9088(4)
H58 H 0.389954 0.694595 0.955044
C69 C 0.3346(3) 0.7750(5) 0.8784(4)
H59 H 0.322901 0.796542 0.904023
C70 C 0.2107(3) 0.9446(5) 0.7770(4)
H60 H 0.184182 0.916654 0.735412
C71 C 0.2728(3) 0.0718(5) 0.7136(4)
C72 C 0.3693(3) 0.7111(5) 0.8023(4)
H61 H 0.380541 0.689553 0.776092
C73 C 0.4338(3) 0.6146(4) 0.9032(4)
C74 C 0.3130(3) 0.8022(5) 0.8116(4)
C77 C 0.2622(3) 0.9207(5) 0.8107(4)
C78 C 0.3018(3) 0.9640(5) 0.8702(4)
H63 H 0.336915 0.950326 0.891104
C80 C 0.2216(3) 0.0461(4) 0.6573(4)
H65 H 0.192067 0.073217 0.648937
C81 C 0.3159(3) 0.1889(5) 0.7988(4)
C82 C 0.3193(3) 0.2221(4) 0.8570(4)
H66 H 0.295691 0.204934 0.866490
C85 C 0.3293(3) 0.7730(5) 0.7721(4)
H69 H 0.314199 0.793846 0.726254
C86 C 0.3164(3) 0.0347(5) 0.7256(4)
H70 H 0.349927 0.053617 0.762638
C87 C 0.3882(3) 0.2769(4) 0.8268(4)
H71 H 0.410901 0.295621 0.816197
C88 C 0.3494(3) 0.2156(5) 0.7827(4)
H72 H 0.346407 0.193402 0.743289
N10 N 0.5527(2) 0.4589(3) 0.9146(3)
O6 O 0.8237(2) 0.8635(3) 0.1280(3)
O8 O 0.73915(19) 0.8382(3) 0.0492(3)
C4 C 0.7631(3) 0.9494(4) 0.1332(4)
C15 C 0.7746(3) 0.8804(4) 0.1017(4)
C16 C 0.8025(3) 0.9887(5) 0.1952(4)
H6 H 0.837441 0.971782 0.218706
C19 C 0.7104(3) 0.9721(5) 0.1009(4)
H8 H 0.683526 0.943969 0.059637
Co9 Co 0.80765(3) 0.76968(6) 0.05545(5)
O11 O 0.20839(18) 0.8487(3) 0.5236(2)
O13 O 0.29606(17) 0.8304(3) 0.5983(2)
C61 C 0.2595(3) 0.9395(4) 0.6247(4)
C65 C 0.2542(3) 0.8684(4) 0.5786(3)
C83 C 0.3099(3) 0.9676(5) 0.6814(4)
H67 H 0.339558 0.941060 0.689570
C84 C 0.2164(3) 0.9789(5) 0.6143(4)
H68 H 0.182746 0.960095 0.577367
Co7 Co 0.30765(3) 0.73032(6) 0.55545(5)
O21 O 0.20394(17) 0.6696(3) 0.4017(2)
O23 O 0.1763(2) 0.8635(3) 0.3720(3)
O25 O 0.26085(19) 0.8382(3) 0.4508(3)
O1_2 O 0.20839(18) 0.1513(3) 0.0236(2)
O3_2 O 0.29606(17) 0.1696(3) 0.0983(2)
C1_2 C 0.2595(3) 0.0605(4) 0.1247(4)
C5_2 C 0.2542(3) 0.1316(4) 0.0786(3)
C23_2 C 0.3099(3) 0.0324(5) 0.1814(4)
H11_2 H 0.339558 0.058940 0.189570
C25_2 C 0.2164(3) 0.0211(5) 0.1143(4)
H13_2 H 0.182746 0.039905 0.077367
C44_2 C 0.0332(4) 0.4297(8) 0.0235(7)
H35_2 H 0.065799 0.404153 0.036088
H36_2 H 0.015518 0.388197 0.033643
C48_2 C 0.0454(4) 0.5068(9) 0.0671(7)
H39_2 H 0.066239 0.545624 0.060423
H40_2 H 0.066722 0.490452 0.117147
C50_2 C 0.0128(4) 0.6276(9) 0.0973(7)
H42_2 H 0.025861 0.673416 0.083408
H43_2 H 0.040484 0.612364 0.146459
H47_2 H 0.892843 0.048458 0.537355
C64_2 C 0.7631(3) 0.0506(4) 0.6332(4)
C75_2 C 0.7746(3) 0.1196(4) 0.6017(4)
C76_2 C 0.8025(3) 0.0113(5) 0.6952(4)
H62_2 H 0.837441 0.028218 0.718706
C79_2 C 0.7104(3) 0.0279(5) 0.6009(4)
H64_2 H 0.683526 0.056031 0.559637
Co5_2 Co 0.99152(3) 0.00697(5) 0.55368(5)
Co10_2 Co 0.30765(3) 0.26968(6) 0.05545(5)
N1_2 N 0.1218(2) 0.2775(4) 0.9181(3)
C28_2 C 0.0814(3) 0.2284(5) 0.9023(7)
H16_2 H 0.082895 0.170167 0.894831
C30_2 C 0.0349(3) 0.3419(7) 0.9086(5)
N3_2 N 0.0008(3) 0.4492(6) 0.9501(5)
C34_2 C 0.1174(3) 0.3602(6) 0.9271(6)
H20_2 H 0.144419 0.396904 0.937302
C38_2 C 0.0383(4) 0.2579(7) 0.8964(7)
H26_2 H 0.011144 0.220353 0.884040
C40_2 C 0.0749(4) 0.3946(8) 0.9220(7)
H29_2 H 0.073296 0.453330 0.927658
O22_2 O 0.20394(17) 0.3304(3) 0.9017(2)
Co1_2 Co 0.50848(3) 0.49303(5) 0.44632(5)
O2_2 O 0.45785(19) 0.5912(3) 0.4064(3)
O4_2 O 0.43895(19) 0.5960(3) 0.4849(2)
O5_2 O 0.4558(2) 0.4044(3) 0.3729(3)
O7_2 O 0.4464(2) 0.4215(3) 0.4588(3)
O9_2 O 0.2705(2) 0.1407(4) 0.2753(3)
O10_2 O 0.2737(2) 0.8649(4) 0.2564(3)
N2_2 N 0.5527(2) 0.5411(3) 0.4146(3)
C2_2 C 0.4330(3) 0.6206(4) 0.4292(4)
C3_2 C 0.3932(3) 0.6902(4) 0.3856(4)
C6_2 C 0.3585(3) 0.7187(5) 0.4003(4)
H1_2 H 0.361888 0.697334 0.440183
C7_2 C 0.3917(2) 0.3177(4) 0.3699(3)
C8_2 C 0.3747(3) 0.2860(5) 0.4088(4)
H2_2 H 0.389954 0.305405 0.455044
C9_2 C 0.3346(3) 0.2250(5) 0.3784(4)
H3_2 H 0.322901 0.203458 0.404023
C10_2 C 0.2107(3) 0.0554(5) 0.2770(4)
H4_2 H 0.184182 0.083346 0.235412
C11_2 C 0.2728(3) 0.9282(5) 0.2136(4)
C12_2 C 0.3693(3) 0.2889(5) 0.3023(4)
H5_2 H 0.380541 0.310447 0.276092
C13_2 C 0.4338(3) 0.3854(4) 0.4032(4)
C14_2 C 0.3130(3) 0.1978(5) 0.3116(4)
C17_2 C 0.2622(3) 0.0793(5) 0.3107(4)
C18_2 C 0.3018(3) 0.0360(5) 0.3702(4)
H7_2 H 0.336915 0.049674 0.391104
C20_2 C 0.2216(3) 0.9539(4) 0.1573(4)
H9_2 H 0.192067 0.926783 0.148937
C21_2 C 0.3159(3) 0.8111(5) 0.2988(4)
C22_2 C 0.3193(3) 0.7779(4) 0.3570(4)
H10_2 H 0.295691 0.795066 0.366490
C24_2 C 0.5991(3) 0.5029(6) 0.4379(5)
H12_2 H 0.607157 0.451542 0.462645
C26_2 C 0.3293(3) 0.2270(5) 0.2721(4)
H14_2 H 0.314199 0.206154 0.226254
C27_2 C 0.3164(3) 0.9653(5) 0.2256(4)
H15_2 H 0.349927 0.946383 0.262638
C29_2 C 0.3882(3) 0.7231(4) 0.3268(4)
H17_2 H 0.410901 0.704379 0.316197
C31_2 C 0.6342(4) 0.5332(8) 0.4281(6)
H18_2 H 0.663838 0.501312 0.442102
N4_2 N 0.7028(3) 0.7088(5) 0.4458(4)
C32_2 C 0.6250(3) 0.6157(7) 0.3957(5)
C33_2 C 0.3494(3) 0.7844(5) 0.2827(4)
H19_2 H 0.346407 0.806598 0.243289
C36_2 C 0.5448(5) 0.6175(6) 0.3857(7)
H23_2 H 0.514685 0.647959 0.371679
C37_2 C 0.7395(5) 0.7436(9) 0.4342(6)
H24_2 H 0.720098 0.764284 0.385429
H25_2 H 0.762975 0.698376 0.440193
C41_2 C 0.5801(5) 0.6538(7) 0.3755(7)
H30_2 H 0.572107 0.707242 0.353548
C42_2 C 0.6664(5) 0.6544(9) 0.3890(6)
H31_2 H 0.685568 0.608166 0.385958
H32_2 H 0.648431 0.686617 0.344718
C43_2 C 0.7288(6) 0.6856(15) 0.5164(7)
H33_2 H 0.751759 0.637275 0.526771
H34_2 H 0.703100 0.667365 0.524172
N7_2 N 0.9473(2) 0.9589(3) 0.5854(3)
C53_2 C 0.9009(3) 0.9971(6) 0.5621(5)
C54_2 C 0.8658(4) 0.9668(8) 0.5719(6)
H48_2 H 0.836162 0.998688 0.557898
N8_2 N 0.7972(3) 0.7912(5) 0.5542(4)
C55_2 C 0.8750(3) 0.8843(7) 0.6043(5)
C56_2 C 0.9552(5) 0.8825(6) 0.6143(7)
H49_2 H 0.985315 0.852041 0.628321
C57_2 C 0.7605(5) 0.7564(9) 0.5658(6)
H50_2 H 0.779902 0.735716 0.614571
H51_2 H 0.737025 0.801624 0.559807
C58_2 C 0.9199(5) 0.8462(7) 0.6245(7)
H52_2 H 0.927893 0.792758 0.646452
C59_2 C 0.8336(5) 0.8456(9) 0.6110(6)
H53_2 H 0.814432 0.891834 0.614042
H54_2 H 0.851569 0.813383 0.655282
C60_2 C 0.7712(6) 0.8144(15) 0.4836(7)
H55_2 H 0.748241 0.862725 0.473229
H56_2 H 0.796900 0.832635 0.475828
Co3_2 Co 0.49152(3) 0.50697(5) 0.55368(5)
O12_2 O 0.54215(19) 0.4088(3) 0.5936(3)
O14_2 O 0.56105(19) 0.4040(3) 0.5151(2)
O15_2 O 0.5442(2) 0.5956(3) 0.6271(3)
O17_2 O 0.5536(2) 0.5785(3) 0.5412(3)
O19_2 O 0.7295(2) 0.8593(4) 0.7247(3)
O20_2 O 0.7263(2) 0.1351(4) 0.7436(3)
C62_2 C 0.5670(3) 0.3794(4) 0.5708(4)
C63_2 C 0.6068(3) 0.3098(4) 0.6144(4)
C66_2 C 0.6415(3) 0.2813(5) 0.5997(4)
H57_2 H 0.638112 0.302666 0.559817
C67_2 C 0.6083(2) 0.6823(4) 0.6301(3)
C68_2 C 0.6253(3) 0.7140(5) 0.5912(4)
H58_2 H 0.610046 0.694595 0.544956
C69_2 C 0.6654(3) 0.7750(5) 0.6216(4)
H59_2 H 0.677099 0.796542 0.595977
C70_2 C 0.7893(3) 0.9446(5) 0.7230(4)
H60_2 H 0.815818 0.916654 0.764588
C71_2 C 0.7272(3) 0.0718(5) 0.7864(4)
C72_2 C 0.6307(3) 0.7111(5) 0.6977(4)
H61_2 H 0.619459 0.689553 0.723908
C73_2 C 0.5662(3) 0.6146(4) 0.5968(4)
C74_2 C 0.6870(3) 0.8022(5) 0.6884(4)
C77_2 C 0.7378(3) 0.9207(5) 0.6893(4)
C78_2 C 0.6982(3) 0.9640(5) 0.6298(4)
H63_2 H 0.663085 0.950326 0.608896
C80_2 C 0.7784(3) 0.0461(4) 0.8427(4)
H65_2 H 0.807933 0.073217 0.851063
C81_2 C 0.6841(3) 0.1889(5) 0.7012(4)
C82_2 C 0.6807(3) 0.2221(4) 0.6430(4)
H66_2 H 0.704309 0.204934 0.633510
C85_2 C 0.6707(3) 0.7730(5) 0.7279(4)
H69_2 H 0.685801 0.793846 0.773746
C86_2 C 0.6836(3) 0.0347(5) 0.7744(4)
H70_2 H 0.650073 0.053617 0.737362
C87_2 C 0.6118(3) 0.2769(4) 0.6732(4)
H71_2 H 0.589099 0.295621 0.683803
C88_2 C 0.6506(3) 0.2156(5) 0.7173(4)
H72_2 H 0.653593 0.193402 0.756711
N10_2 N 0.4473(2) 0.4589(3) 0.5854(3)
O21_2 O 0.79606(17) 0.6696(3) 0.0983(2)
N9 N 0.8782(2) 0.7225(4) 0.0819(3)
C4_2 C 0.2369(3) 0.9494(4) 0.3668(4)
C15_2 C 0.2254(3) 0.8804(4) 0.3983(4)
C16_2 C 0.1975(3) 0.9887(5) 0.3048(4)
H6_2 H 0.162559 0.971782 0.281294
C19_2 C 0.2896(3) 0.9721(5) 0.3991(4)
H8_2 H 0.316474 0.943969 0.440363
O11_2 O 0.79161(18) 0.8487(3) 0.9764(2)
O13_2 O 0.70394(17) 0.8304(3) 0.9017(2)
C61_2 C 0.7405(3) 0.9395(4) 0.8753(4)
C65_2 C 0.7458(3) 0.8684(4) 0.9214(3)
C83_2 C 0.6901(3) 0.9676(5) 0.8186(4)
H67_2 H 0.660442 0.941060 0.810430
C84_2 C 0.7836(3) 0.9789(5) 0.8857(4)
H68_2 H 0.817254 0.960095 0.922633
Co7_2 Co 0.69235(3) 0.73032(6) 0.94455(5)
C45_2 C 0.9186(3) 0.7716(5) 0.0977(7)
H37_2 H 0.917105 0.829833 0.105169
C46_2 C 0.9651(3) 0.6581(7) 0.0914(5)
N6_2 N 0.9992(3) 0.5508(6) 0.0499(5)
C47_2 C 0.8826(3) 0.6398(6) 0.0729(6)
H38_2 H 0.855581 0.603096 0.062698
C49_2 C 0.9617(4) 0.7421(7) 0.1036(7)
H41_2 H 0.988856 0.779647 0.115960
C51_2 C 0.9251(4) 0.6054(8) 0.0780(7)
H44_2 H 0.926704 0.546670 0.072342
C35_2 C 0.9546(4) 0.4932(9) 0.9329(7)
H21_2 H 0.933761 0.454376 0.939577
H22_2 H 0.933278 0.509548 0.882853
C39_2 C 0.9872(4) 0.3724(9) 0.9027(7)
H27_2 H 0.974139 0.326584 0.916592
H28_2 H 0.959516 0.387636 0.853541
C52_2 C 0.9668(4) 0.5703(8) 0.9765(7)
H45_2 H 0.934201 0.595847 0.963912
H46_2 H 0.984482 0.611803 0.966357
H22_3 H 0.566722 0.009548 0.617147
N5_2 N 0.6218(2) 0.2225(4) 0.4181(3)
C45_3 C 0.5814(3) 0.2716(5) 0.4023(7)
H37_3 H 0.582895 0.329833 0.394831
C46_3 C 0.5349(3) 0.1581(7) 0.4086(5)
N6_3 N 0.5008(3) 0.0508(6) 0.4501(5)
C47_3 C 0.6174(3) 0.1398(6) 0.4271(6)
H38_3 H 0.644419 0.103096 0.437302
C48_3 C 0.4546(4) 0.0068(9) 0.4329(7)
H39_3 H 0.433761 0.045624 0.439577
C49_3 C 0.5383(4) 0.2421(7) 0.3964(7)
H41_3 H 0.511144 0.279647 0.384040
C50_3 C 0.4872(4) 0.1276(9) 0.4027(7)
H42_3 H 0.474139 0.173416 0.416592
H43_3 H 0.459516 0.112364 0.353541
C51_3 C 0.5749(4) 0.1054(8) 0.4220(7)
H44_3 H 0.573296 0.046670 0.427658
C52_3 C 0.5332(4) 0.0703(8) 0.5235(7)
H45_3 H 0.565799 0.095847 0.536088
H46_3 H 0.515518 0.111803 0.533643
O1_3 O 0.29161(18) 0.6513(3) 0.4764(2)
O2_3 O 0.04215(19) 0.0912(3) 0.0936(3)
O4_3 O 0.06105(19) 0.0960(3) 0.0151(2)
N1_3 N 0.3782(2) 0.7775(4) 0.5819(3)
O10_3 O 0.2263(2) 0.3649(4) 0.2436(3)
C1_3 C 0.2405(3) 0.5605(4) 0.3753(4)
C2_3 C 0.0670(3) 0.1206(4) 0.0708(4)
C3_3 C 0.1068(3) 0.1902(4) 0.1144(4)
C5_3 C 0.2458(3) 0.6316(4) 0.4214(3)
C6_3 C 0.1415(3) 0.2187(5) 0.0997(4)
H1_3 H 0.138112 0.197334 0.059817
C11_3 C 0.2272(3) 0.4282(5) 0.2864(4)
C20_3 C 0.2784(3) 0.4539(4) 0.3427(4)
H9_3 H 0.307933 0.426783 0.351063
C21_3 C 0.1841(3) 0.3111(5) 0.2012(4)
C22_3 C 0.1807(3) 0.2779(4) 0.1430(4)
H10_3 H 0.204309 0.295066 0.133510
C23_3 C 0.1901(3) 0.5324(5) 0.3186(4)
H11_3 H 0.160442 0.558940 0.310430
C25_3 C 0.2836(3) 0.5211(5) 0.3857(4)
H13_3 H 0.317254 0.539905 0.422633
C27_3 C 0.1836(3) 0.4653(5) 0.2744(4)
H15_3 H 0.150073 0.446383 0.237362
C28_3 C 0.4186(3) 0.7284(5) 0.5977(7)
H16_3 H 0.417105 0.670167 0.605169
C29_3 C 0.1118(3) 0.2231(4) 0.1732(4)
H17_3 H 0.089099 0.204379 0.183803
C30_3 C 0.4651(3) 0.8419(7) 0.5914(5)
N3_3 N 0.4992(3) 0.9492(6) 0.5499(5)
C33_3 C 0.1506(3) 0.2844(5) 0.2173(4)
H19_3 H 0.153593 0.306598 0.256711
C34_3 C 0.3826(3) 0.8602(6) 0.5729(6)
H20_3 H 0.355581 0.896904 0.562698
C35_3 C 0.5454(4) 0.9932(9) 0.5671(7)
H21_3 H 0.566239 0.954376 0.560423
C38_3 C 0.4617(4) 0.7579(7) 0.6036(7)
H26_3 H 0.488856 0.720353 0.615960
C39_3 C 0.5128(4) 0.8724(9) 0.5973(7)
H27_3 H 0.525861 0.826584 0.583408
H28_3 H 0.540484 0.887636 0.646459
C40_3 C 0.4251(4) 0.8946(8) 0.5780(7)
H29_3 H 0.426704 0.953330 0.572342
C44_3 C 0.4668(4) 0.9297(8) 0.4765(7)
H35_3 H 0.434201 0.904153 0.463912
H36_3 H 0.484482 0.888197 0.466357
H40_3 H 0.433278 0.990452 0.382853
O24_2 O 0.3237(2) 0.6365(3) 0.6280(3)
O26_2 O 0.23915(19) 0.6618(3) 0.5492(3)
O5_3 O 0.0442(2) 0.9044(3) 0.1271(3)
O6_2 O 0.3237(2) 0.3635(3) 0.1280(3)
O7_3 O 0.0536(2) 0.9215(3) 0.0412(3)
O8_2 O 0.23915(19) 0.3382(3) 0.0492(3)
O9_3 O 0.2295(2) 0.6407(4) 0.2247(3)
C4_3 C 0.2631(3) 0.4494(4) 0.1332(4)
C7_3 C 0.1083(2) 0.8177(4) 0.1301(3)
C8_3 C 0.1253(3) 0.7860(5) 0.0912(4)
H2_3 H 0.110046 0.805405 0.044956
C9_3 C 0.1654(3) 0.7250(5) 0.1216(4)
H3_3 H 0.177099 0.703458 0.095977
C10_3 C 0.2893(3) 0.5554(5) 0.2230(4)
H4_3 H 0.315818 0.583346 0.264588
C12_3 C 0.1307(3) 0.7889(5) 0.1977(4)
H5_3 H 0.119459 0.810447 0.223908
C13_3 C 0.0662(3) 0.8854(4) 0.0968(4)
C14_3 C 0.1870(3) 0.6978(5) 0.1884(4)
C15_3 C 0.2746(3) 0.3804(4) 0.1017(4)
C16_3 C 0.3025(3) 0.4887(5) 0.1952(4)
H6_3 H 0.337441 0.471782 0.218706
C17_3 C 0.2378(3) 0.5793(5) 0.1893(4)
C18_3 C 0.1982(3) 0.5360(5) 0.1298(4)
H7_3 H 0.163085 0.549674 0.108896
C19_3 C 0.2104(3) 0.4721(5) 0.1009(4)
H8_3 H 0.183526 0.443969 0.059637
C26_3 C 0.1707(3) 0.7270(5) 0.2279(4)
H14_3 H 0.185801 0.706154 0.273746
N2_3 N 0.9473(2) 0.0411(3) 0.0854(3)
C24_3 C 0.9009(3) 0.0029(6) 0.0621(5)
C31_3 C 0.8658(4) 0.0332(8) 0.0719(6)
H18_3 H 0.836162 0.001312 0.057898
N4_3 N 0.7972(3) 0.2088(5) 0.0542(4)
C32_3 C 0.8750(3) 0.1157(7) 0.1043(5)
C36_3 C 0.9552(5) 0.1175(6) 0.1143(7)
H23_3 H 0.985315 0.147959 0.128321
C37_3 C 0.7605(5) 0.2436(9) 0.0658(6)
H24_3 H 0.779902 0.264284 0.114571
H25_3 H 0.737025 0.198376 0.059807
C41_3 C 0.9199(5) 0.1538(7) 0.1245(7)
H30_3 H 0.927893 0.207242 0.146452
C42_3 C 0.8336(5) 0.1544(9) 0.1110(6)
H31_3 H 0.814432 0.108166 0.114042
H32_3 H 0.851569 0.186617 0.155282
C60_3 C 0.7288(6) 0.3144(15) 0.0164(7)
H55_3 H 0.751759 0.362725 0.026771
H56_3 H 0.703100 0.332635 0.024172
C43_3 C 0.7712(6) 0.1856(15) 0.9836(7)
H33_3 H 0.748241 0.137275 0.973229
H34_3 H 0.796900 0.167365 0.975828
C53_3 C 0.5991(3) 0.4971(6) 0.9379(5)
H47_3 H 0.607157 0.548458 0.962645
C54_3 C 0.6342(4) 0.4668(8) 0.9281(6)
H48_3 H 0.663838 0.498688 0.942102
N8_3 N 0.7028(3) 0.2912(5) 0.9458(4)
C55_3 C 0.6250(3) 0.3843(7) 0.8957(5)
C56_3 C 0.5448(5) 0.3825(6) 0.8857(7)
H49_3 H 0.514685 0.352041 0.871679
C57_3 C 0.7395(5) 0.2564(9) 0.9342(6)
H50_3 H 0.720098 0.235716 0.885429
H51_3 H 0.762975 0.301624 0.940193
C58_3 C 0.5801(5) 0.3462(7) 0.8755(7)
H52_3 H 0.572107 0.292758 0.853548
C59_3 C 0.6664(5) 0.3456(9) 0.8890(6)
H53_3 H 0.685568 0.391834 0.885958
H54_3 H 0.648431 0.313383 0.844718
O15_3 O 0.9558(2) 0.0956(3) 0.8729(3)
O16_2 O 0.6763(2) 0.6365(3) 0.8720(3)
O17_3 O 0.9464(2) 0.0785(3) 0.9588(3)
O18_2 O 0.76085(19) 0.6618(3) 0.9508(3)
O19_3 O 0.7705(2) 0.3593(4) 0.7753(3)
C64_3 C 0.7369(3) 0.5506(4) 0.8668(4)
C67_3 C 0.8917(2) 0.1823(4) 0.8699(3)
C68_3 C 0.8747(3) 0.2140(5) 0.9088(4)
H58_3 H 0.889954 0.194595 0.955044
C69_3 C 0.8346(3) 0.2750(5) 0.8784(4)
H59_3 H 0.822901 0.296542 0.904023
C70_3 C 0.7107(3) 0.4446(5) 0.7770(4)
H60_3 H 0.684182 0.416654 0.735412
C72_3 C 0.8693(3) 0.2111(5) 0.8023(4)
H61_3 H 0.880541 0.189553 0.776092
C73_3 C 0.9338(3) 0.1146(4) 0.9032(4)
C74_3 C 0.8130(3) 0.3022(5) 0.8116(4)
C75_3 C 0.7254(3) 0.6196(4) 0.8983(4)
C76_3 C 0.6975(3) 0.5113(5) 0.8048(4)
H62_3 H 0.662559 0.528218 0.781294
C77_3 C 0.7622(3) 0.4207(5) 0.8107(4)
C78_3 C 0.8018(3) 0.4640(5) 0.8702(4)
H63_3 H 0.836915 0.450326 0.891104
C79_3 C 0.7896(3) 0.5279(5) 0.8991(4)
H64_3 H 0.816474 0.556031 0.940363
C85_3 C 0.8293(3) 0.2730(5) 0.7721(4)
H69_3 H 0.814199 0.293846 0.726254
Co1_3 Co 0.99152(3) 0.99303(5) 0.05368(5)
H12_3 H 0.892843 0.951542 0.037355
O11_3 O 0.70839(18) 0.3487(3) 0.5236(2)
O12_3 O 0.95785(19) 0.9088(3) 0.9064(3)
O14_3 O 0.93895(19) 0.9040(3) 0.9849(2)
O20_3 O 0.7737(2) 0.6351(4) 0.7564(3)
C61_3 C 0.7595(3) 0.4395(4) 0.6247(4)
C62_3 C 0.9330(3) 0.8794(4) 0.9292(4)
C63_3 C 0.8932(3) 0.8098(4) 0.8856(4)
C65_3 C 0.7542(3) 0.3684(4) 0.5786(3)
C66_3 C 0.8585(3) 0.7813(5) 0.9003(4)
H57_3 H 0.861888 0.802666 0.940183
C71_3 C 0.7728(3) 0.5718(5) 0.7136(4)
C80_3 C 0.7216(3) 0.5461(4) 0.6573(4)
H65_3 H 0.692067 0.573217 0.648937
C81_3 C 0.8159(3) 0.6889(5) 0.7988(4)
C82_3 C 0.8193(3) 0.7221(4) 0.8570(4)
H66_3 H 0.795691 0.704934 0.866490
C83_3 C 0.8099(3) 0.4676(5) 0.6814(4)
H67_3 H 0.839558 0.441060 0.689570
C84_3 C 0.7164(3) 0.4789(5) 0.6143(4)
H68_3 H 0.682746 0.460095 0.577367
C86_3 C 0.8164(3) 0.5347(5) 0.7256(4)
H70_3 H 0.849927 0.553617 0.762638
C87_3 C 0.8882(3) 0.7769(4) 0.8268(4)
H71_3 H 0.910901 0.795621 0.816197
C88_3 C 0.8494(3) 0.7156(5) 0.7827(4)
H72_3 H 0.846407 0.693402 0.743289
O23_2 O 0.6763(2) 0.3635(3) 0.3720(3)
O25_2 O 0.76085(19) 0.3382(3) 0.4508(3)
N2_4 N 0.0527(2) 0.0411(3) 0.4146(3)
C24_4 C 0.0991(3) 0.0029(6) 0.4379(5)
C31_4 C 0.1342(4) 0.0332(8) 0.4281(6)
H18_4 H 0.163838 0.001312 0.442102
N4_4 N 0.2028(3) 0.2088(5) 0.4458(4)
C32_4 C 0.1250(3) 0.1157(7) 0.3957(5)
C36_4 C 0.0448(5) 0.1175(6) 0.3857(7)
H23_4 H 0.014685 0.147959 0.371679
C37_4 C 0.2395(5) 0.2436(9) 0.4342(6)
H24_4 H 0.220098 0.264284 0.385429
H25_4 H 0.262975 0.198376 0.440193
C41_4 C 0.0801(5) 0.1538(7) 0.3755(7)
H30_4 H 0.072107 0.207242 0.353548
C42_4 C 0.1664(5) 0.1544(9) 0.3890(6)
H31_4 H 0.185568 0.108166 0.385958
H32_4 H 0.148431 0.186617 0.344718
C43_4 C 0.2288(6) 0.1856(15) 0.5164(7)
H33_4 H 0.251759 0.137275 0.526771
H34_4 H 0.203100 0.167365 0.524172
C53_4 C 0.4009(3) 0.4971(6) 0.5621(5)
H47_4 H 0.392843 0.548458 0.537355
C54_4 C 0.3658(4) 0.4668(8) 0.5719(6)
H48_4 H 0.336162 0.498688 0.557898
N8_4 N 0.2972(3) 0.2912(5) 0.5542(4)
C55_4 C 0.3750(3) 0.3843(7) 0.6043(5)
C56_4 C 0.4552(5) 0.3825(6) 0.6143(7)
H49_4 H 0.485315 0.352041 0.628321
C57_4 C 0.2605(5) 0.2564(9) 0.5658(6)
H50_4 H 0.279902 0.235716 0.614571
H51_4 H 0.237025 0.301624 0.559807
C58_4 C 0.4199(5) 0.3462(7) 0.6245(7)
H52_4 H 0.427893 0.292758 0.646452
C59_4 C 0.3336(5) 0.3456(9) 0.6110(6)
H53_4 H 0.314432 0.391834 0.614042
H54_4 H 0.351569 0.313383 0.655282
C60_4 C 0.2712(6) 0.3144(15) 0.4836(7)
H55_4 H 0.248241 0.362725 0.473229
H56_4 H 0.296900 0.332635 0.475828
O15_4 O 0.0442(2) 0.0956(3) 0.6271(3)
O17_4 O 0.0536(2) 0.0785(3) 0.5412(3)
O19_4 O 0.2295(2) 0.3593(4) 0.7247(3)
C64_4 C 0.2631(3) 0.5506(4) 0.6332(4)
C67_4 C 0.1083(2) 0.1823(4) 0.6301(3)
C68_4 C 0.1253(3) 0.2140(5) 0.5912(4)
H58_4 H 0.110046 0.194595 0.544956
C69_4 C 0.1654(3) 0.2750(5) 0.6216(4)
H59_4 H 0.177099 0.296542 0.595977
C70_4 C 0.2893(3) 0.4446(5) 0.7230(4)
H60_4 H 0.315818 0.416654 0.764588
C72_4 C 0.1307(3) 0.2111(5) 0.6977(4)
H61_4 H 0.119459 0.189553 0.723908
C73_4 C 0.0662(3) 0.1146(4) 0.5968(4)
C74_4 C 0.1870(3) 0.3022(5) 0.6884(4)
C75_4 C 0.2746(3) 0.6196(4) 0.6017(4)
C76_4 C 0.3025(3) 0.5113(5) 0.6952(4)
H62_4 H 0.337441 0.528218 0.718706
C77_4 C 0.2378(3) 0.4207(5) 0.6893(4)
C78_4 C 0.1982(3) 0.4640(5) 0.6298(4)
H63_4 H 0.163085 0.450326 0.608896
C79_4 C 0.2104(3) 0.5279(5) 0.6009(4)
H64_4 H 0.183526 0.556031 0.559637
C85_4 C 0.1707(3) 0.2730(5) 0.7279(4)
H69_4 H 0.185801 0.293846 0.773746
N9_2 N 0.3782(2) 0.2225(4) 0.0819(3)
Co1_4 Co 0.00848(3) 0.99303(5) 0.44632(5)
H12_4 H 0.107157 0.951542 0.462645
O11_4 O 0.29161(18) 0.3487(3) 0.9764(2)
O12_4 O 0.04215(19) 0.9088(3) 0.5936(3)
O14_4 O 0.06105(19) 0.9040(3) 0.5151(2)
O20_4 O 0.2263(2) 0.6351(4) 0.7436(3)
C61_4 C 0.2405(3) 0.4395(4) 0.8753(4)
C62_4 C 0.0670(3) 0.8794(4) 0.5708(4)
C63_4 C 0.1068(3) 0.8098(4) 0.6144(4)
C65_4 C 0.2458(3) 0.3684(4) 0.9214(3)
C66_4 C 0.1415(3) 0.7813(5) 0.5997(4)
H57_4 H 0.138112 0.802666 0.559817
C71_4 C 0.2272(3) 0.5718(5) 0.7864(4)
C80_4 C 0.2784(3) 0.5461(4) 0.8427(4)
H65_4 H 0.307933 0.573217 0.851063
C81_4 C 0.1841(3) 0.6889(5) 0.7012(4)
C82_4 C 0.1807(3) 0.7221(4) 0.6430(4)
H66_4 H 0.204309 0.704934 0.633510
C83_4 C 0.1901(3) 0.4676(5) 0.8186(4)
H67_4 H 0.160442 0.441060 0.810430
C84_4 C 0.2836(3) 0.4789(5) 0.8857(4)
H68_4 H 0.317254 0.460095 0.922633
C86_4 C 0.1836(3) 0.5347(5) 0.7744(4)
H70_4 H 0.150073 0.553617 0.737362
C87_4 C 0.1118(3) 0.7769(4) 0.6732(4)
H71_4 H 0.089099 0.795621 0.683803
C88_4 C 0.1506(3) 0.7156(5) 0.7173(4)
H72_4 H 0.153593 0.693402 0.756711
C45_4 C 0.4186(3) 0.2716(5) 0.0977(7)
H37_4 H 0.417105 0.329833 0.105169
C46_4 C 0.4651(3) 0.1581(7) 0.0914(5)
N6_4 N 0.4992(3) 0.0508(6) 0.0499(5)
C47_4 C 0.3826(3) 0.1398(6) 0.0729(6)
H38_4 H 0.355581 0.103096 0.062698
C48_4 C 0.5454(4) 0.0068(9) 0.0671(7)
H39_4 H 0.566239 0.045624 0.060423
C49_4 C 0.4617(4) 0.2421(7) 0.1036(7)
H41_4 H 0.488856 0.279647 0.115960
C50_4 C 0.5128(4) 0.1276(9) 0.0973(7)
H42_4 H 0.525861 0.173416 0.083408
H43_4 H 0.540484 0.112364 0.146459
C51_4 C 0.4251(4) 0.1054(8) 0.0780(7)
H44_4 H 0.426704 0.046670 0.072342
H22_4 H 0.433278 0.009548 0.882853
C52_4 C 0.4668(4) 0.0703(8) 0.9765(7)
H45_4 H 0.434201 0.095847 0.963912
H46_4 H 0.484482 0.111803 0.966357
O1_4 O 0.70839(18) 0.6513(3) 0.0236(2)
O2_4 O 0.95785(19) 0.0912(3) 0.4064(3)
O4_4 O 0.93895(19) 0.0960(3) 0.4849(2)
O10_4 O 0.7737(2) 0.3649(4) 0.2564(3)
C1_4 C 0.7595(3) 0.5605(4) 0.1247(4)
C2_4 C 0.9330(3) 0.1206(4) 0.4292(4)
C3_4 C 0.8932(3) 0.1902(4) 0.3856(4)
C5_4 C 0.7542(3) 0.6316(4) 0.0786(3)
C6_4 C 0.8585(3) 0.2187(5) 0.4003(4)
H1_4 H 0.861888 0.197334 0.440183
C11_4 C 0.7728(3) 0.4282(5) 0.2136(4)
C20_4 C 0.7216(3) 0.4539(4) 0.1573(4)
H9_4 H 0.692067 0.426783 0.148937
C21_4 C 0.8159(3) 0.3111(5) 0.2988(4)
C22_4 C 0.8193(3) 0.2779(4) 0.3570(4)
H10_4 H 0.795691 0.295066 0.366490
C23_4 C 0.8099(3) 0.5324(5) 0.1814(4)
H11_4 H 0.839558 0.558940 0.189570
C25_4 C 0.7164(3) 0.5211(5) 0.1143(4)
H13_4 H 0.682746 0.539905 0.077367
C27_4 C 0.8164(3) 0.4653(5) 0.2256(4)
H15_4 H 0.849927 0.446383 0.262638
C29_4 C 0.8882(3) 0.2231(4) 0.3268(4)
H17_4 H 0.910901 0.204379 0.316197
C33_4 C 0.8494(3) 0.2844(5) 0.2827(4)
H19_4 H 0.846407 0.306598 0.243289
C44_4 C 0.5332(4) 0.9297(8) 0.0235(7)
H35_4 H 0.565799 0.904153 0.036088
H36_4 H 0.515518 0.888197 0.033643
H40_4 H 0.566722 0.990452 0.117147
N1_4 N 0.6218(2) 0.7775(4) 0.9181(3)
C28_4 C 0.5814(3) 0.7284(5) 0.9023(7)
H16_4 H 0.582895 0.670167 0.894831
C30_4 C 0.5349(3) 0.8419(7) 0.9086(5)
N3_4 N 0.5008(3) 0.9492(6) 0.9501(5)
C34_4 C 0.6174(3) 0.8602(6) 0.9271(6)
H20_4 H 0.644419 0.896904 0.937302
C35_4 C 0.4546(4) 0.9932(9) 0.9329(7)
H21_4 H 0.433761 0.954376 0.939577
C38_4 C 0.5383(4) 0.7579(7) 0.8964(7)
H26_4 H 0.511144 0.720353 0.884040
C39_4 C 0.4872(4) 0.8724(9) 0.9027(7)
H27_4 H 0.474139 0.826584 0.916592
H28_4 H 0.459516 0.887636 0.853541
C40_4 C 0.5749(4) 0.8946(8) 0.9220(7)
H29_4 H 0.573296 0.953330 0.927658
O5_4 O 0.9558(2) 0.9044(3) 0.3729(3)
O7_4 O 0.9464(2) 0.9215(3) 0.4588(3)
O9_4 O 0.7705(2) 0.6407(4) 0.2753(3)
C4_4 C 0.7369(3) 0.4494(4) 0.3668(4)
C7_4 C 0.8917(2) 0.8177(4) 0.3699(3)
C8_4 C 0.8747(3) 0.7860(5) 0.4088(4)
H2_4 H 0.889954 0.805405 0.455044
C9_4 C 0.8346(3) 0.7250(5) 0.3784(4)
H3_4 H 0.822901 0.703458 0.404023
C10_4 C 0.7107(3) 0.5554(5) 0.2770(4)
H4_4 H 0.684182 0.583346 0.235412
C12_4 C 0.8693(3) 0.7889(5) 0.3023(4)
H5_4 H 0.880541 0.810447 0.276092
C13_4 C 0.9338(3) 0.8854(4) 0.4032(4)
C14_4 C 0.8130(3) 0.6978(5) 0.3116(4)
C15_4 C 0.7254(3) 0.3804(4) 0.3983(4)
C16_4 C 0.6975(3) 0.4887(5) 0.3048(4)
H6_4 H 0.662559 0.471782 0.281294
C17_4 C 0.7622(3) 0.5793(5) 0.3107(4)
C18_4 C 0.8018(3) 0.5360(5) 0.3702(4)
H7_4 H 0.836915 0.549674 0.391104
C19_4 C 0.7896(3) 0.4721(5) 0.3991(4)
H8_4 H 0.816474 0.443969 0.440363
C26_4 C 0.8293(3) 0.7270(5) 0.2721(4)
H14_4 H 0.814199 0.706154 0.226254
loop_
_geom_bond_atom_site_label_1
_geom_bond_atom_site_label_2
_geom_bond_site_symmetry_1
_geom_bond_site_symmetry_2
C35 H21 1_555 1_555
H22 C35 1_555 1_555
H27 C39 1_555 1_555
H28 C39 1_555 1_555
N5 C45 1_555 1_555
C45 H37 1_555 1_555
C46 C49 1_555 1_555
C47 N5 1_555 1_555
H38 C47 1_555 1_555
C49 C45 1_555 1_555
H41 C49 1_555 1_555
C51 C46 1_555 1_555
H44 C51 1_555 1_555
C52 C35 1_555 1_555
H45 C52 1_555 1_555
H46 C52 1_555 1_555
Co8 N5 1_555 1_555
N6 C52 1_555 1_555
C47 C51 1_555 1_555
Co2 O1 1_555 1_555
O1 C5 1_555 1_555
O3 C5 1_555 1_555
N1 Co2 1_555 1_555
C1 C5 1_555 1_555
C23 C1 1_555 1_555
H11 C23 1_555 1_555
C25 C1 1_555 1_555
H13 C25 1_555 1_555
C28 N1 1_555 1_555
H16 C28 1_555 1_555
C30 C38 1_555 1_555
C34 N1 1_555 1_555
H20 C34 1_555 1_555
C38 C28 1_555 1_555
H26 C38 1_555 1_555
C40 C30 1_555 1_555
H29 C40 1_555 1_555
C44 N3 1_555 1_555
H35 C44 1_555 1_555
H36 C44 1_555 1_555
C48 C44 1_555 1_555
H39 C48 1_555 1_555
H40 C48 1_555 1_555
H42 C50 1_555 1_555
H43 C50 1_555 1_555
Co10 O3 1_555 1_555
O22 Co2 1_555 1_555
O24 Co2 1_555 1_555
O26 Co2 1_555 1_555
C34 C40 1_555 1_555
O16 C75 1_555 1_555
O18 C75 1_555 1_555
C64 C75 1_555 1_555
C76 C64 1_555 1_555
H62 C76 1_555 1_555
C79 C64 1_555 1_555
H64 C79 1_555 1_555
Co6 O16 1_555 1_555
O18 Co6 1_555 1_555
Co1 O2 1_555 1_555
O2 C2 1_555 1_555
O4 C2 1_555 1_555
O5 Co1 1_555 1_555
O7 Co1 1_555 1_555
O9 C14 1_555 1_555
O10 C11 1_555 1_555
N2 Co1 1_555 1_555
C2 C3 1_555 1_555
C3 C6 1_555 1_555
C6 H1 1_555 1_555
C7 C8 1_555 1_555
C8 H2 1_555 1_555
C9 C8 1_555 1_555
H3 C9 1_555 1_555
C10 H4 1_555 1_555
C11 C20 1_555 1_555
C12 C7 1_555 1_555
H5 C12 1_555 1_555
C13 O5 1_555 1_555
C14 C9 1_555 1_555
C17 O9 1_555 1_555
C18 C17 1_555 1_555
H7 C18 1_555 1_555
C20 H9 1_555 1_555
C21 O10 1_555 1_555
C22 C6 1_555 1_555
H10 C22 1_555 1_555
C24 N2 1_555 1_555
H12 C24 1_555 1_555
C26 C12 1_555 1_555
H14 C26 1_555 1_555
C27 C11 1_555 1_555
H15 C27 1_555 1_555
C29 C3 1_555 1_555
H17 C29 1_555 1_555
C31 C24 1_555 1_555
H18 C31 1_555 1_555
N4 C37 1_555 1_555
C32 C31 1_555 1_555
C33 C21 1_555 1_555
H19 C33 1_555 1_555
C36 N2 1_555 1_555
H23 C36 1_555 1_555
C37 H24 1_555 1_555
H25 C37 1_555 1_555
C41 C32 1_555 1_555
H30 C41 1_555 1_555
C42 N4 1_555 1_555
H31 C42 1_555 1_555
H32 C42 1_555 1_555
C60 C37 1_555 1_555
H55 C60 1_555 1_555
H56 C60 1_555 1_555
O7 C13 1_555 1_555
C7 C13 1_555 1_555
C10 C17 1_555 1_555
C14 C26 1_555 1_555
C21 C22 1_555 1_555
C29 C33 1_555 1_555
C32 C42 1_555 1_555
C36 C41 1_555 1_555
H33 C43 1_555 1_555
H34 C43 1_555 1_555
N7 C53 1_555 1_555
C54 C53 1_555 1_555
H48 C54 1_555 1_555
N8 C57 1_555 1_555
C55 C54 1_555 1_555
C56 N7 1_555 1_555
H49 C56 1_555 1_555
C57 C43 1_555 1_555
H50 C57 1_555 1_555
H51 C57 1_555 1_555
C58 C55 1_555 1_555
H52 C58 1_555 1_555
C59 N8 1_555 1_555
H53 C59 1_555 1_555
H54 C59 1_555 1_555
O12 Co3 1_555 1_555
O15 Co3 1_555 1_555
O19 C74 1_555 1_555
O20 C71 1_555 1_555
C62 O12 1_555 1_555
C63 C62 1_555 1_555
C66 C63 1_555 1_555
H57 C66 1_555 1_555
C67 C68 1_555 1_555
C68 H58 1_555 1_555
C69 C68 1_555 1_555
H59 C69 1_555 1_555
C70 H60 1_555 1_555
C71 C80 1_555 1_555
C72 C67 1_555 1_555
H61 C72 1_555 1_555
C73 O15 1_555 1_555
C74 C69 1_555 1_555
C77 O19 1_555 1_555
C78 C77 1_555 1_555
H63 C78 1_555 1_555
C80 H65 1_555 1_555
C81 O20 1_555 1_555
C82 C66 1_555 1_555
H66 C82 1_555 1_555
C85 C72 1_555 1_555
H69 C85 1_555 1_555
C86 C71 1_555 1_555
H70 C86 1_555 1_555
C87 C63 1_555 1_555
H71 C87 1_555 1_555
C88 C81 1_555 1_555
H72 C88 1_555 1_555
N10 Co3 1_555 1_555
C55 C59 1_555 1_555
C56 C58 1_555 1_555
Co3 O17 1_555 1_555
O14 C62 1_555 1_555
O17 C73 1_555 1_555
C67 C73 1_555 1_555
C70 C77 1_555 1_555
C74 C85 1_555 1_555
C81 C82 1_555 1_555
C87 C88 1_555 1_555
O6 C15 1_555 1_555
O8 C15 1_555 1_555
C4 C15 1_555 1_555
C16 C4 1_555 1_555
H6 C16 1_555 1_555
C19 C4 1_555 1_555
H8 C19 1_555 1_555
Co9 O6 1_555 1_555
O8 Co9 1_555 1_555
Co8 O11 1_555 1_555
O11 C65 1_555 1_555
O13 C65 1_555 1_555
C61 C65 1_555 1_555
C83 C61 1_555 1_555
H67 C83 1_555 1_555
C84 C61 1_555 1_555
H68 C84 1_555 1_555
Co7 O13 1_555 1_555
O21 Co8 1_555 1_555
O23 Co8 1_555 1_555
O25 Co8 1_555 1_555
O1_2 C5_2 1_555 1_555
O3_2 C5_2 1_555 1_555
C1_2 C5_2 1_555 1_555
C23_2 C1_2 1_555 1_555
H11_2 C23_2 1_555 1_555
C25_2 C1_2 1_555 1_555
H13_2 C25_2 1_555 1_555
H35_2 C44_2 1_555 1_555
H36_2 C44_2 1_555 1_555
C48_2 C44_2 1_555 1_555
H39_2 C48_2 1_555 1_555
H40_2 C48_2 1_555 1_555
H42_2 C50_2 1_555 1_555
H43_2 C50_2 1_555 1_555
O24 C75_2 1_555 1_555
O26 C75_2 1_555 1_555
C64_2 C75_2 1_555 1_555
C76_2 C64_2 1_555 1_555
H62_2 C76_2 1_555 1_555
C79_2 C64_2 1_555 1_555
H64_2 C79_2 1_555 1_555
Co10_2 O3_2 1_555 1_555
N1_2 Co6 1_555 1_555
C28_2 N1_2 1_555 1_555
H16_2 C28_2 1_555 1_555
C30_2 C38_2 1_555 1_555
C34_2 N1_2 1_555 1_555
H20_2 C34_2 1_555 1_555
C38_2 C28_2 1_555 1_555
H26_2 C38_2 1_555 1_555
C40_2 C30_2 1_555 1_555
H29_2 C40_2 1_555 1_555
O22_2 Co6 1_555 1_555
C34_2 C40_2 1_555 1_555
Co1_2 O2_2 1_555 1_555
O2_2 C2_2 1_555 1_555
O4_2 C2_2 1_555 1_555
O5_2 Co1_2 1_555 1_555
O7_2 Co1_2 1_555 1_555
O9_2 C14_2 1_555 1_555
O10_2 C11_2 1_555 1_555
N2_2 Co1_2 1_555 1_555
C2_2 C3_2 1_555 1_555
C3_2 C6_2 1_555 1_555
C6_2 H1_2 1_555 1_555
C7_2 C8_2 1_555 1_555
C8_2 H2_2 1_555 1_555
C9_2 C8_2 1_555 1_555
H3_2 C9_2 1_555 1_555
C10_2 H4_2 1_555 1_555
C11_2 C20_2 1_555 1_555
C12_2 C7_2 1_555 1_555
H5_2 C12_2 1_555 1_555
C13_2 O5_2 1_555 1_555
C14_2 C9_2 1_555 1_555
C17_2 O9_2 1_555 1_555
C18_2 C17_2 1_555 1_555
H7_2 C18_2 1_555 1_555
C20_2 H9_2 1_555 1_555
C21_2 O10_2 1_555 1_555
C22_2 C6_2 1_555 1_555
H10_2 C22_2 1_555 1_555
C24_2 N2_2 1_555 1_555
H12_2 C24_2 1_555 1_555
C26_2 C12_2 1_555 1_555
H14_2 C26_2 1_555 1_555
C27_2 C11_2 1_555 1_555
H15_2 C27_2 1_555 1_555
C29_2 C3_2 1_555 1_555
H17_2 C29_2 1_555 1_555
C31_2 C24_2 1_555 1_555
H18_2 C31_2 1_555 1_555
N4_2 C37_2 1_555 1_555
C32_2 C31_2 1_555 1_555
C33_2 C21_2 1_555 1_555
H19_2 C33_2 1_555 1_555
C36_2 N2_2 1_555 1_555
H23_2 C36_2 1_555 1_555
C37_2 H24_2 1_555 1_555
H25_2 C37_2 1_555 1_555
C41_2 C32_2 1_555 1_555
H30_2 C41_2 1_555 1_555
C42_2 N4_2 1_555 1_555
H31_2 C42_2 1_555 1_555
H32_2 C42_2 1_555 1_555
C43_2 N4_2 1_555 1_555
H33_2 C43_2 1_555 1_555
H34_2 C43_2 1_555 1_555
N7_2 C53_2 1_555 1_555
C54_2 C53_2 1_555 1_555
H48_2 C54_2 1_555 1_555
N8_2 C57_2 1_555 1_555
C55_2 C54_2 1_555 1_555
C56_2 N7_2 1_555 1_555
H49_2 C56_2 1_555 1_555
C57_2 C43_2 1_555 1_555
H50_2 C57_2 1_555 1_555
H51_2 C57_2 1_555 1_555
C58_2 C55_2 1_555 1_555
H52_2 C58_2 1_555 1_555
C59_2 N8_2 1_555 1_555
H53_2 C59_2 1_555 1_555
H54_2 C59_2 1_555 1_555
C60_2 C37_2 1_555 1_555
H55_2 C60_2 1_555 1_555
H56_2 C60_2 1_555 1_555
Co3_2 O4_2 1_555 1_555
O12_2 Co3_2 1_555 1_555
O14_2 Co1_2 1_555 1_555
O15_2 Co3_2 1_555 1_555
O17_2 Co1_2 1_555 1_555
O19_2 C74_2 1_555 1_555
O20_2 C71_2 1_555 1_555
C62_2 O12_2 1_555 1_555
C63_2 C62_2 1_555 1_555
C66_2 C63_2 1_555 1_555
H57_2 C66_2 1_555 1_555
C67_2 C68_2 1_555 1_555
C68_2 H58_2 1_555 1_555
C69_2 C68_2 1_555 1_555
H59_2 C69_2 1_555 1_555
C70_2 H60_2 1_555 1_555
C71_2 C80_2 1_555 1_555
C72_2 C67_2 1_555 1_555
H61_2 C72_2 1_555 1_555
C73_2 O15_2 1_555 1_555
C74_2 C69_2 1_555 1_555
C77_2 O19_2 1_555 1_555
C78_2 C77_2 1_555 1_555
H63_2 C78_2 1_555 1_555
C80_2 H65_2 1_555 1_555
C81_2 O20_2 1_555 1_555
C82_2 C66_2 1_555 1_555
H66_2 C82_2 1_555 1_555
C85_2 C72_2 1_555 1_555
H69_2 C85_2 1_555 1_555
C86_2 C71_2 1_555 1_555
H70_2 C86_2 1_555 1_555
C87_2 C63_2 1_555 1_555
H71_2 C87_2 1_555 1_555
C88_2 C81_2 1_555 1_555
H72_2 C88_2 1_555 1_555
N10_2 Co3_2 1_555 1_555
O7_2 C13_2 1_555 1_555
O7_2 Co3_2 1_555 1_555
C7_2 C13_2 1_555 1_555
C10_2 C17_2 1_555 1_555
C14_2 C26_2 1_555 1_555
C21_2 C22_2 1_555 1_555
C29_2 C33_2 1_555 1_555
C32_2 C42_2 1_555 1_555
C36_2 C41_2 1_555 1_555
N8_2 C60_2 1_555 1_555
C55_2 C59_2 1_555 1_555
C56_2 C58_2 1_555 1_555
Co3_2 O17_2 1_555 1_555
O14_2 C62_2 1_555 1_555
O17_2 C73_2 1_555 1_555
C67_2 C73_2 1_555 1_555
C70_2 C77_2 1_555 1_555
C74_2 C85_2 1_555 1_555
C81_2 C82_2 1_555 1_555
C87_2 C88_2 1_555 1_555
O21_2 Co9 1_555 1_555
N9 Co9 1_555 1_555
O23 C15_2 1_555 1_555
O25 C15_2 1_555 1_555
C4_2 C15_2 1_555 1_555
C16_2 C4_2 1_555 1_555
H6_2 C16_2 1_555 1_555
C19_2 C4_2 1_555 1_555
H8_2 C19_2 1_555 1_555
O11_2 C65_2 1_555 1_555
O13_2 C65_2 1_555 1_555
C61_2 C65_2 1_555 1_555
C83_2 C61_2 1_555 1_555
H67_2 C83_2 1_555 1_555
C84_2 C61_2 1_555 1_555
H68_2 C84_2 1_555 1_555
Co7_2 O13_2 1_555 1_555
N9 C45_2 1_555 1_555
C45_2 H37_2 1_555 1_555
C46_2 C49_2 1_555 1_555
C47_2 N9 1_555 1_555
H38_2 C47_2 1_555 1_555
C49_2 C45_2 1_555 1_555
H41_2 C49_2 1_555 1_555
C51_2 C46_2 1_555 1_555
H44_2 C51_2 1_555 1_555
C47_2 C51_2 1_555 1_555
C35_2 H21_2 1_555 1_555
H22_2 C35_2 1_555 1_555
H27_2 C39_2 1_555 1_555
H28_2 C39_2 1_555 1_555
C52_2 C35_2 1_555 1_555
H45_2 C52_2 1_555 1_555
H46_2 C52_2 1_555 1_555
N5_2 C45_3 1_555 1_555
C45_3 H37_3 1_555 1_555
C46_3 C49_3 1_555 1_555
N6_3 C48_3 1_555 1_555
C47_3 N5_2 1_555 1_555
H38_3 C47_3 1_555 1_555
H39_3 C48_3 1_555 1_555
C49_3 C45_3 1_555 1_555
H41_3 C49_3 1_555 1_555
C50_3 C46_3 1_555 1_555
H42_3 C50_3 1_555 1_555
H43_3 C50_3 1_555 1_555
C51_3 C46_3 1_555 1_555
H44_3 C51_3 1_555 1_555
H45_3 C52_3 1_555 1_555
H46_3 C52_3 1_555 1_555
Co10 N5_2 1_555 1_555
N6_3 C50_3 1_555 1_555
N6_3 C52_3 1_555 1_555
C47_3 C51_3 1_555 1_555
Co7 O1_3 1_555 1_555
O1_3 C5_3 1_555 1_555
O2_3 C2_3 1_555 1_555
O21 C5_3 1_555 1_555
O4_3 C2_3 1_555 1_555
N1_3 Co7 1_555 1_555
O10_3 C11_3 1_555 1_555
C1_3 C5_3 1_555 1_555
C2_3 C3_3 1_555 1_555
C3_3 C6_3 1_555 1_555
C6_3 H1_3 1_555 1_555
C11_3 C20_3 1_555 1_555
C20_3 H9_3 1_555 1_555
C21_3 O10_3 1_555 1_555
C22_3 C6_3 1_555 1_555
H10_3 C22_3 1_555 1_555
C23_3 C1_3 1_555 1_555
H11_3 C23_3 1_555 1_555
C25_3 C1_3 1_555 1_555
H13_3 C25_3 1_555 1_555
C27_3 C11_3 1_555 1_555
H15_3 C27_3 1_555 1_555
C28_3 N1_3 1_555 1_555
H16_3 C28_3 1_555 1_555
C29_3 C3_3 1_555 1_555
H17_3 C29_3 1_555 1_555
C30_3 C38_3 1_555 1_555
N3_3 C35_3 1_555 1_555
C33_3 C21_3 1_555 1_555
H19_3 C33_3 1_555 1_555
C34_3 N1_3 1_555 1_555
H20_3 C34_3 1_555 1_555
C35_3 H21_3 1_555 1_555
C38_3 C28_3 1_555 1_555
H26_3 C38_3 1_555 1_555
C39_3 C30_3 1_555 1_555
H27_3 C39_3 1_555 1_555
H28_3 C39_3 1_555 1_555
C40_3 C30_3 1_555 1_555
H29_3 C40_3 1_555 1_555
C44_3 N3_3 1_555 1_555
H35_3 C44_3 1_555 1_555
H36_3 C44_3 1_555 1_555
O24_2 Co7 1_555 1_555
O26_2 Co7 1_555 1_555
C20_3 C25_3 1_555 1_555
C21_3 C22_3 1_555 1_555
C23_3 C27_3 1_555 1_555
C29_3 C33_3 1_555 1_555
N3_3 C39_3 1_555 1_555
C34_3 C40_3 1_555 1_555
O6_2 C15_3 1_555 1_555
O8_2 C15_3 1_555 1_555
O9_3 C14_3 1_555 1_555
C4_3 C15_3 1_555 1_555
C7_3 C8_3 1_555 1_555
C8_3 H2_3 1_555 1_555
C9_3 C8_3 1_555 1_555
H3_3 C9_3 1_555 1_555
C10_3 H4_3 1_555 1_555
C12_3 C7_3 1_555 1_555
H5_3 C12_3 1_555 1_555
C13_3 O5_3 1_555 1_555
C14_3 C9_3 1_555 1_555
C16_3 C4_3 1_555 1_555
H6_3 C16_3 1_555 1_555
C17_3 O9_3 1_555 1_555
C18_3 C17_3 1_555 1_555
H7_3 C18_3 1_555 1_555
C19_3 C4_3 1_555 1_555
H8_3 C19_3 1_555 1_555
C26_3 C12_3 1_555 1_555
H14_3 C26_3 1_555 1_555
Co10_2 O6_2 1_555 1_555
O7_3 C13_3 1_555 1_555
O8_2 Co10_2 1_555 1_555
C7_3 C13_3 1_555 1_555
C10_3 C16_3 1_555 1_555
C10_3 C17_3 1_555 1_555
C14_3 C26_3 1_555 1_555
C18_3 C19_3 1_555 1_555
C24_3 N2_3 1_555 1_555
C31_3 C24_3 1_555 1_555
H18_3 C31_3 1_555 1_555
N4_3 C37_3 1_555 1_555
C32_3 C31_3 1_555 1_555
C36_3 N2_3 1_555 1_555
H23_3 C36_3 1_555 1_555
C37_3 H24_3 1_555 1_555
H25_3 C37_3 1_555 1_555
C41_3 C32_3 1_555 1_555
H30_3 C41_3 1_555 1_555
C42_3 N4_3 1_555 1_555
H31_3 C42_3 1_555 1_555
H32_3 C42_3 1_555 1_555
C60_3 C37_3 1_555 1_555
H55_3 C60_3 1_555 1_555
H56_3 C60_3 1_555 1_555
C32_3 C42_3 1_555 1_555
C36_3 C41_3 1_555 1_555
H33_3 C43_3 1_555 1_555
H34_3 C43_3 1_555 1_555
N10 C53_3 1_555 1_555
C53_3 H47_3 1_555 1_555
C54_3 C53_3 1_555 1_555
H48_3 C54_3 1_555 1_555
N8_3 C57_3 1_555 1_555
C55_3 C54_3 1_555 1_555
C56_3 N10 1_555 1_555
H49_3 C56_3 1_555 1_555
C57_3 C43_3 1_555 1_555
H50_3 C57_3 1_555 1_555
H51_3 C57_3 1_555 1_555
C58_3 C55_3 1_555 1_555
H52_3 C58_3 1_555 1_555
C59_3 N8_3 1_555 1_555
H53_3 C59_3 1_555 1_555
H54_3 C59_3 1_555 1_555
O16_2 C75_3 1_555 1_555
O18_2 C75_3 1_555 1_555
O19_3 C74_3 1_555 1_555
C64_3 C75_3 1_555 1_555
C67_3 C68_3 1_555 1_555
C68_3 H58_3 1_555 1_555
C69_3 C68_3 1_555 1_555
H59_3 C69_3 1_555 1_555
C70_3 H60_3 1_555 1_555
C72_3 C67_3 1_555 1_555
H61_3 C72_3 1_555 1_555
C73_3 O15_3 1_555 1_555
C74_3 C69_3 1_555 1_555
C76_3 C64_3 1_555 1_555
H62_3 C76_3 1_555 1_555
C77_3 O19_3 1_555 1_555
C78_3 C77_3 1_555 1_555
H63_3 C78_3 1_555 1_555
C79_3 C64_3 1_555 1_555
H64_3 C79_3 1_555 1_555
C85_3 C72_3 1_555 1_555
H69_3 C85_3 1_555 1_555
Co7_2 O16_2 1_555 1_555
C55_3 C59_3 1_555 1_555
C56_3 C58_3 1_555 1_555
O17_3 C73_3 1_555 1_555
O18_2 Co7_2 1_555 1_555
C67_3 C73_3 1_555 1_555
C70_3 C76_3 1_555 1_555
C70_3 C77_3 1_555 1_555
C74_3 C85_3 1_555 1_555
C78_3 C79_3 1_555 1_555
Co10 O11_3 1_555 1_555
O11_3 C65_3 1_555 1_555
O22 C65_3 1_555 1_555
O20_3 C71_3 1_555 1_555
C61_3 C65_3 1_555 1_555
C62_3 O12_3 1_555 1_555
C63_3 C62_3 1_555 1_555
C66_3 C63_3 1_555 1_555
H57_3 C66_3 1_555 1_555
C71_3 C80_3 1_555 1_555
C80_3 H65_3 1_555 1_555
C81_3 O20_3 1_555 1_555
C82_3 C66_3 1_555 1_555
H66_3 C82_3 1_555 1_555
C83_3 C61_3 1_555 1_555
H67_3 C83_3 1_555 1_555
C84_3 C61_3 1_555 1_555
H68_3 C84_3 1_555 1_555
C86_3 C71_3 1_555 1_555
H70_3 C86_3 1_555 1_555
C87_3 C63_3 1_555 1_555
H71_3 C87_3 1_555 1_555
C88_3 C81_3 1_555 1_555
H72_3 C88_3 1_555 1_555
O23_2 Co10 1_555 1_555
O25_2 Co10 1_555 1_555
O14_3 C62_3 1_555 1_555
C80_3 C84_3 1_555 1_555
C81_3 C82_3 1_555 1_555
C83_3 C86_3 1_555 1_555
C87_3 C88_3 1_555 1_555
C24_4 N2_4 1_555 1_555
C31_4 C24_4 1_555 1_555
H18_4 C31_4 1_555 1_555
N4_4 C37_4 1_555 1_555
C32_4 C31_4 1_555 1_555
C36_4 N2_4 1_555 1_555
H23_4 C36_4 1_555 1_555
C37_4 H24_4 1_555 1_555
H25_4 C37_4 1_555 1_555
C41_4 C32_4 1_555 1_555
H30_4 C41_4 1_555 1_555
C42_4 N4_4 1_555 1_555
H31_4 C42_4 1_555 1_555
H32_4 C42_4 1_555 1_555
C43_4 N4_4 1_555 1_555
H33_4 C43_4 1_555 1_555
H34_4 C43_4 1_555 1_555
N10_2 C53_4 1_555 1_555
C53_4 H47_4 1_555 1_555
C54_4 C53_4 1_555 1_555
H48_4 C54_4 1_555 1_555
N8_4 C57_4 1_555 1_555
C55_4 C54_4 1_555 1_555
C56_4 N10_2 1_555 1_555
H49_4 C56_4 1_555 1_555
C57_4 C43_4 1_555 1_555
H50_4 C57_4 1_555 1_555
H51_4 C57_4 1_555 1_555
C58_4 C55_4 1_555 1_555
H52_4 C58_4 1_555 1_555
C59_4 N8_4 1_555 1_555
H53_4 C59_4 1_555 1_555
H54_4 C59_4 1_555 1_555
C60_4 C37_4 1_555 1_555
H55_4 C60_4 1_555 1_555
H56_4 C60_4 1_555 1_555
O24_2 C75_4 1_555 1_555
O26_2 C75_4 1_555 1_555
O19_4 C74_4 1_555 1_555
C64_4 C75_4 1_555 1_555
C67_4 C68_4 1_555 1_555
C68_4 H58_4 1_555 1_555
C69_4 C68_4 1_555 1_555
H59_4 C69_4 1_555 1_555
C70_4 H60_4 1_555 1_555
C72_4 C67_4 1_555 1_555
H61_4 C72_4 1_555 1_555
C73_4 O15_4 1_555 1_555
C74_4 C69_4 1_555 1_555
C76_4 C64_4 1_555 1_555
H62_4 C76_4 1_555 1_555
C77_4 O19_4 1_555 1_555
C78_4 C77_4 1_555 1_555
H63_4 C78_4 1_555 1_555
C79_4 C64_4 1_555 1_555
H64_4 C79_4 1_555 1_555
C85_4 C72_4 1_555 1_555
H69_4 C85_4 1_555 1_555
C32_4 C42_4 1_555 1_555
C36_4 C41_4 1_555 1_555
N8_4 C60_4 1_555 1_555
C55_4 C59_4 1_555 1_555
C56_4 C58_4 1_555 1_555
O17_4 C73_4 1_555 1_555
C67_4 C73_4 1_555 1_555
C70_4 C76_4 1_555 1_555
C70_4 C77_4 1_555 1_555
C74_4 C85_4 1_555 1_555
C78_4 C79_4 1_555 1_555
N9_2 Co10_2 1_555 1_555
O11_4 C65_4 1_555 1_555
O22_2 C65_4 1_555 1_555
O14_4 Co1_4 1_555 1_555
O20_4 C71_4 1_555 1_555
C61_4 C65_4 1_555 1_555
C62_4 O12_4 1_555 1_555
C63_4 C62_4 1_555 1_555
C66_4 C63_4 1_555 1_555
H57_4 C66_4 1_555 1_555
C71_4 C80_4 1_555 1_555
C80_4 H65_4 1_555 1_555
C81_4 O20_4 1_555 1_555
C82_4 C66_4 1_555 1_555
H66_4 C82_4 1_555 1_555
C83_4 C61_4 1_555 1_555
H67_4 C83_4 1_555 1_555
C84_4 C61_4 1_555 1_555
H68_4 C84_4 1_555 1_555
C86_4 C71_4 1_555 1_555
H70_4 C86_4 1_555 1_555
C87_4 C63_4 1_555 1_555
H71_4 C87_4 1_555 1_555
C88_4 C81_4 1_555 1_555
H72_4 C88_4 1_555 1_555
O14_4 C62_4 1_555 1_555
C80_4 C84_4 1_555 1_555
C81_4 C82_4 1_555 1_555
C83_4 C86_4 1_555 1_555
C87_4 C88_4 1_555 1_555
N9_2 C45_4 1_555 1_555
C45_4 H37_4 1_555 1_555
C46_4 C49_4 1_555 1_555
N6_4 C48_4 1_555 1_555
C47_4 N9_2 1_555 1_555
H38_4 C47_4 1_555 1_555
H39_4 C48_4 1_555 1_555
C49_4 C45_4 1_555 1_555
H41_4 C49_4 1_555 1_555
C50_4 C46_4 1_555 1_555
H42_4 C50_4 1_555 1_555
H43_4 C50_4 1_555 1_555
C51_4 C46_4 1_555 1_555
H44_4 C51_4 1_555 1_555
N6_4 C50_4 1_555 1_555
C47_4 C51_4 1_555 1_555
H45_4 C52_4 1_555 1_555
H46_4 C52_4 1_555 1_555
O1_4 C5_4 1_555 1_555
O2_4 C2_4 1_555 1_555
O21_2 C5_4 1_555 1_555
O4_4 C2_4 1_555 1_555
O10_4 C11_4 1_555 1_555
C1_4 C5_4 1_555 1_555
C2_4 C3_4 1_555 1_555
C3_4 C6_4 1_555 1_555
C6_4 H1_4 1_555 1_555
C11_4 C20_4 1_555 1_555
C20_4 H9_4 1_555 1_555
C21_4 O10_4 1_555 1_555
C22_4 C6_4 1_555 1_555
H10_4 C22_4 1_555 1_555
C23_4 C1_4 1_555 1_555
H11_4 C23_4 1_555 1_555
C25_4 C1_4 1_555 1_555
H13_4 C25_4 1_555 1_555
C27_4 C11_4 1_555 1_555
H15_4 C27_4 1_555 1_555
C29_4 C3_4 1_555 1_555
H17_4 C29_4 1_555 1_555
C33_4 C21_4 1_555 1_555
H19_4 C33_4 1_555 1_555
H35_4 C44_4 1_555 1_555
H36_4 C44_4 1_555 1_555
Co5_2 O4_4 1_555 1_555
C20_4 C25_4 1_555 1_555
C21_4 C22_4 1_555 1_555
C23_4 C27_4 1_555 1_555
C29_4 C33_4 1_555 1_555
N1_4 Co7_2 1_555 1_555
C28_4 N1_4 1_555 1_555
H16_4 C28_4 1_555 1_555
C30_4 C38_4 1_555 1_555
N3_4 C35_4 1_555 1_555
C34_4 N1_4 1_555 1_555
H20_4 C34_4 1_555 1_555
C35_4 H21_4 1_555 1_555
C38_4 C28_4 1_555 1_555
H26_4 C38_4 1_555 1_555
C39_4 C30_4 1_555 1_555
H27_4 C39_4 1_555 1_555
H28_4 C39_4 1_555 1_555
C40_4 C30_4 1_555 1_555
H29_4 C40_4 1_555 1_555
N3_4 C39_4 1_555 1_555
C34_4 C40_4 1_555 1_555
O23_2 C15_4 1_555 1_555
O25_2 C15_4 1_555 1_555
O9_4 C14_4 1_555 1_555
C4_4 C15_4 1_555 1_555
C7_4 C8_4 1_555 1_555
C8_4 H2_4 1_555 1_555
C9_4 C8_4 1_555 1_555
H3_4 C9_4 1_555 1_555
C10_4 H4_4 1_555 1_555
C12_4 C7_4 1_555 1_555
H5_4 C12_4 1_555 1_555
C13_4 O5_4 1_555 1_555
C14_4 C9_4 1_555 1_555
C16_4 C4_4 1_555 1_555
H6_4 C16_4 1_555 1_555
C17_4 O9_4 1_555 1_555
C18_4 C17_4 1_555 1_555
H7_4 C18_4 1_555 1_555
C19_4 C4_4 1_555 1_555
H8_4 C19_4 1_555 1_555
C26_4 C12_4 1_555 1_555
H14_4 C26_4 1_555 1_555
O7_4 C13_4 1_555 1_555
C7_4 C13_4 1_555 1_555
C10_4 C16_4 1_555 1_555
C10_4 C17_4 1_555 1_555
C14_4 C26_4 1_555 1_555
C18_4 C19_4 1_555 1_555

#END
