
###############################################################################
#
# This file contains modified crystal structure data generated from the
# MOF subset of the Cambridge Structural Database (CSD) v543 
# hosted by the Cambridge Crystallographic Data Centre (CCDC).
#
# This work is licensed under the Creative Commons
# Attribution-NonCommercial-ShareAlike 4.0 International License.
# To view a copy of this license, visit
# http://creativecommons.org/licenses/by-nc-sa/4.0/
# or send a letter to
# Creative Commons, PO Box 1866, Mountain View, CA 94042, USA.
#
# CIF created using the CSD Python API on 29 September 2022
# The structure has been converted into the P1 space group
# The structure has a 3D framework
# The original CSD entry KOMMIL is in the orthorhombic crystal system
# The framework has been calculated to contain at least 10.0% void space
# The void calculation uses a probe of radius 1.32A, grid spacing 0.4
#
###############################################################################

data_KOMMIL
_chemical_formula_moiety         '(C704 H576 Co28 N64 O156)n'
_symmetry_cell_setting           triclinic
_symmetry_space_group_name_H-M   'P 1'
_symmetry_Int_Tables_number      1
_space_group_name_Hall           'P 1'
loop_
_symmetry_equiv_pos_site_id
_symmetry_equiv_pos_as_xyz
1 x,y,z
_cell_length_a                   15.9599(5)
_cell_length_b                   30.6138(8)
_cell_length_c                   35.8049(9)
_cell_angle_alpha                90
_cell_angle_beta                 90
_cell_angle_gamma                90
_cell_volume                     17494
loop_
_atom_site_label
_atom_site_type_symbol
_atom_site_fract_x
_atom_site_fract_y
_atom_site_fract_z
Co1 Co 0.24047(2) 0.21687(2) 0.02853(2)
O2 O 0.14887(12) 0.23521(6) 0.06505(6)
O3 O 0.16807(12) 0.28506(6) 0.02109(5)
C7 C 0.05918(16) 0.29749(9) 0.06473(8)
C8 C 0.02430(17) 0.28768(9) 0.09942(8)
H3 H 0.043483 0.263649 0.112803
C9 C 0.12948(17) 0.27127(9) 0.04946(8)
C14 C 0.03007(19) 0.33391(10) 0.04572(8)
H8 H 0.053628 0.341084 0.022765
N1 N 0.29167(15) 0.15798(7) 0.04669(6)
C15 C 0.2490(2) 0.12141(12) 0.04926(12)
H9 H 0.190980 0.122730 0.046986
C16 C 0.3745(2) 0.15467(10) 0.05009(10)
H10 H 0.406709 0.179935 0.048607
C17 C 0.3694(3) 0.07764(10) 0.05821(10)
C18 C 0.2855(3) 0.08114(12) 0.05514(13)
H11 H 0.252113 0.056334 0.057000
C19 C 0.4143(2) 0.11547(11) 0.05568(11)
H12 H 0.472389 0.114665 0.057776
N2 N 0.4675(2) 0.02638(9) 0.02970(8)
C20 C 0.4153(3) 0.03435(12) 0.06207(12)
H13 H 0.449852 0.034877 0.084350
H14 H 0.374921 0.010870 0.064683
O15 O 0.33404(11) 0.25246(6) 0.05002(5)
O1 O 0.15604(11) 0.19303(6) 0.99158(5)
C2 C 0.02950(17) 0.21820(9) 0.91040(8)
H1 H 0.051793 0.245479 0.904745
C4 C 0.06029(16) 0.19533(8) 0.94091(7)
C5 C 0.13229(16) 0.21300(8) 0.96253(7)
C10 C 0.02532(17) 0.15504(9) 0.94907(8)
H4 H 0.044935 0.139330 0.969513
O6 O 0.16596(11) 0.24754(6) 0.94998(5)
C22 C 0.4182(3) 0.01573(14) 0.99729(12)
H17 H 0.379182 0.039291 0.992271
C43 C 0.4727(3) 0.00865(15) 0.96375(12)
H33 H 0.502611 0.035398 0.958018
H34 H 0.437917 0.001353 0.942416
H36 H 0.613969 0.010525 0.997831
Co5 Co 0.25953(2) 0.28313(2) 0.97147(2)
O13 O 0.33193(12) 0.21494(6) 0.97891(5)
C21 C 0.5273(3) 0.99135(15) 0.03625(12)
H15 H 0.497389 0.964602 0.041982
H16 H 0.562083 0.998647 0.057584
H18 H 0.386031 0.989475 0.002169
C44 C 0.5818(3) 0.98427(14) 0.00271(12)
H35 H 0.620818 0.960709 0.007729
N3 N 0.70833(15) 0.84202(7) 0.95331(6)
C37 C 0.7510(2) 0.87859(12) 0.95074(12)
H27 H 0.809020 0.877270 0.953014
C38 C 0.6255(2) 0.84533(10) 0.94991(10)
H28 H 0.593291 0.820065 0.951393
C39 C 0.6306(3) 0.92236(10) 0.94179(10)
C40 C 0.7145(3) 0.91886(12) 0.94486(13)
H29 H 0.747887 0.943666 0.943000
C41 C 0.5857(2) 0.88453(11) 0.94432(11)
H30 H 0.527611 0.885335 0.942224
N4 N 0.5325(2) 0.97362(9) 0.97030(8)
C42 C 0.5847(3) 0.96565(12) 0.93793(12)
H31 H 0.550148 0.965123 0.915650
H32 H 0.625079 0.989130 0.935317
Co4 Co 0.75953(2) 0.78313(2) 0.97147(2)
C1 C 0.93317(18) 0.34933(9) 0.09447(8)
O5 O 0.875000 0.375000 0.11285(8)
C11 C 0.96704(19) 0.35974(10) 0.06003(8)
H5 H 0.947579 0.383795 0.046744
C12 C 0.96144(17) 0.31351(9) 0.11396(8)
H6 H 0.938077 0.306676 0.137029
O9 O 0.60113(12) 0.51479(6) 0.06505(6)
O10 O 0.58193(12) 0.46494(6) 0.02109(5)
C30 C 0.81683(18) 0.40067(9) 0.09447(8)
C31 C 0.69082(16) 0.45251(9) 0.06473(8)
C32 C 0.72570(17) 0.46232(9) 0.09942(8)
H23 H 0.706517 0.486351 0.112803
C33 C 0.62052(17) 0.47873(9) 0.04946(8)
C34 C 0.78296(19) 0.39026(10) 0.06003(8)
H24 H 0.802421 0.366205 0.046744
C35 C 0.78856(17) 0.43649(9) 0.11396(8)
H25 H 0.811923 0.443324 0.137029
C36 C 0.71993(19) 0.41609(10) 0.04572(8)
H26 H 0.696372 0.408916 0.022765
Co3 Co 0.50953(2) 0.53313(2) 0.02853(2)
O4 O 0.875000 0.13944(9) 0.875000
C3 C 0.93277(17) 0.16094(9) 0.89690(8)
C6 C 0.96209(18) 0.13785(9) 0.92749(8)
H2 H 0.939112 0.110811 0.933414
C13 C 0.96661(18) 0.20137(10) 0.88831(8)
H7 H 0.947065 0.217011 0.867816
O7 O 0.59396(11) 0.19303(6) 0.75842(5)
C23 C 0.72050(17) 0.21820(9) 0.83960(8)
H19 H 0.698207 0.245479 0.845255
C24 C 0.81723(17) 0.16094(9) 0.85310(8)
C25 C 0.68971(16) 0.19533(8) 0.80909(7)
C26 C 0.61771(16) 0.21300(8) 0.78747(7)
C27 C 0.78791(18) 0.13785(9) 0.82251(8)
H20 H 0.810888 0.110811 0.816586
C28 C 0.72468(17) 0.15504(9) 0.80093(8)
H21 H 0.705065 0.139330 0.780487
C29 C 0.78339(18) 0.20137(10) 0.86169(8)
H22 H 0.802935 0.217011 0.882184
O8 O 0.58404(11) 0.24754(6) 0.80002(5)
Co2 Co 0.50953(2) 0.21687(2) 0.72147(2)
Co6 Co 0.49047(2) 0.46687(2) 0.97147(2)
Co7 Co 0.49047(2) 0.28313(2) 0.77853(2)
O11 O 0.60113(12) 0.23521(6) 0.68495(6)
O12 O 0.58193(12) 0.28506(6) 0.72891(5)
O14 O 0.41807(12) 0.21494(6) 0.77109(5)
O16 O 0.41596(11) 0.25246(6) 0.69998(5)
N5 N 0.45833(15) 0.15798(7) 0.70331(6)
Co1_2 Co 0.00953(2) 0.03313(2) 0.02853(2)
O2_2 O 0.10113(12) 0.01479(6) 0.06505(6)
C15_2 C 0.0010(2) 0.12859(12) 0.04926(12)
H9_2 H 0.059020 0.127270 0.046986
O1_2 O 0.09396(11) 0.05697(6) 0.99158(5)
O4_2 O 0.375000 0.11056(9) 0.875000
C2_2 C 0.22050(17) 0.03180(9) 0.91040(8)
H1_2 H 0.198207 0.004521 0.904745
C3_2 C 0.31723(17) 0.08906(9) 0.89690(8)
C4_2 C 0.18971(16) 0.05467(8) 0.94091(7)
C5_2 C 0.11771(16) 0.03700(8) 0.96253(7)
C6_2 C 0.28791(18) 0.11215(9) 0.92749(8)
H2_2 H 0.310888 0.139189 0.933414
C10_2 C 0.22468(17) 0.09496(9) 0.94907(8)
H4_2 H 0.205065 0.110670 0.969513
C13_2 C 0.28339(18) 0.04863(10) 0.88831(8)
H7_2 H 0.302935 0.032989 0.867816
O6_2 O 0.08404(11) 0.00246(6) 0.94998(5)
O7_2 O 0.65604(11) 0.05697(6) 0.75842(5)
C23_2 C 0.52950(17) 0.03180(9) 0.83960(8)
H19_2 H 0.551793 0.004521 0.845255
C24_2 C 0.43277(17) 0.08906(9) 0.85310(8)
C25_2 C 0.56029(16) 0.05467(8) 0.80909(7)
C26_2 C 0.63229(16) 0.03700(8) 0.78747(7)
C27_2 C 0.46209(18) 0.11215(9) 0.82251(8)
H20_2 H 0.439112 0.139189 0.816586
C28_2 C 0.52532(17) 0.09496(9) 0.80093(8)
H21_2 H 0.544935 0.110670 0.780487
C29_2 C 0.46661(18) 0.04863(10) 0.86169(8)
H22_2 H 0.447065 0.032989 0.882184
O8_2 O 0.66596(11) 0.00246(6) 0.80002(5)
Co2_2 Co 0.74047(2) 0.03313(2) 0.72147(2)
O11_2 O 0.64887(12) 0.01479(6) 0.68495(6)
O14_2 O 0.83193(12) 0.03506(6) 0.77109(5)
N5_2 N 0.79167(15) 0.09202(7) 0.70331(6)
O3_2 O 0.08193(12) 0.96494(6) 0.02109(5)
C1_2 C 0.31683(18) 0.90067(9) 0.09447(8)
O5_2 O 0.375000 0.875000 0.11285(8)
C7_2 C 0.19082(16) 0.95251(9) 0.06473(8)
C8_2 C 0.22570(17) 0.96232(9) 0.09942(8)
H3_2 H 0.206517 0.986351 0.112803
C9_2 C 0.12052(17) 0.97873(9) 0.04946(8)
C11_2 C 0.28296(19) 0.89026(10) 0.06003(8)
H5_2 H 0.302421 0.866205 0.046744
C12_2 C 0.28856(17) 0.93649(9) 0.11396(8)
H6_2 H 0.311923 0.943324 0.137029
C14_2 C 0.21993(19) 0.91609(10) 0.04572(8)
H8_2 H 0.196372 0.908916 0.022765
O9_2 O 0.64887(12) 0.73521(6) 0.06505(6)
O10_2 O 0.66807(12) 0.78506(6) 0.02109(5)
C30_2 C 0.43317(18) 0.84933(9) 0.09447(8)
C31_2 C 0.55918(16) 0.79749(9) 0.06473(8)
C32_2 C 0.52430(17) 0.78768(9) 0.09942(8)
H23_2 H 0.543483 0.763649 0.112803
C33_2 C 0.62948(17) 0.77127(9) 0.04946(8)
C34_2 C 0.46704(19) 0.85974(10) 0.06003(8)
H24_2 H 0.447579 0.883795 0.046744
C35_2 C 0.46144(17) 0.81351(9) 0.11396(8)
H25_2 H 0.438077 0.806676 0.137029
C36_2 C 0.53007(19) 0.83391(10) 0.04572(8)
H26_2 H 0.553628 0.841084 0.022765
Co3_2 Co 0.74047(2) 0.71687(2) 0.02853(2)
Co7_2 Co 0.75953(2) 0.96687(2) 0.77853(2)
O12_2 O 0.66807(12) 0.96494(6) 0.72891(5)
O16_2 O 0.83404(11) 0.99754(6) 0.69998(5)
N1_2 N 0.95833(15) 0.09202(7) 0.04669(6)
C16_2 C 0.8755(2) 0.09533(10) 0.05009(10)
H10_2 H 0.843291 0.070065 0.048607
C17_2 C 0.8806(3) 0.17236(10) 0.05821(10)
C18_2 C 0.9645(3) 0.16886(12) 0.05514(13)
H11_2 H 0.997887 0.193666 0.057000
C19_2 C 0.8357(2) 0.13453(11) 0.05568(11)
H12_2 H 0.777611 0.135335 0.057776
N2_2 N 0.7825(2) 0.22362(9) 0.02970(8)
C20_2 C 0.8347(3) 0.21565(12) 0.06207(12)
H13_2 H 0.800148 0.215123 0.084350
H14_2 H 0.875079 0.239130 0.064683
C21_2 C 0.7227(3) 0.25865(15) 0.03625(12)
H15_2 H 0.752611 0.285398 0.041982
H16_2 H 0.687917 0.251353 0.057584
H18_2 H 0.863969 0.260525 0.002169
C44_2 C 0.6682(3) 0.26573(14) 0.00271(12)
H35_2 H 0.629182 0.289291 0.007729
C22_2 C 0.8318(3) 0.23427(14) 0.99729(12)
H17_2 H 0.870818 0.210709 0.992271
N3_2 N 0.54167(15) 0.40798(7) 0.95331(6)
C37_2 C 0.4990(2) 0.37141(12) 0.95074(12)
H27_2 H 0.440980 0.372730 0.953014
C38_2 C 0.6245(2) 0.40467(10) 0.94991(10)
H28_2 H 0.656709 0.429935 0.951393
C39_2 C 0.6194(3) 0.32764(10) 0.94179(10)
C40_2 C 0.5355(3) 0.33114(12) 0.94486(13)
H29_2 H 0.502113 0.306334 0.943000
C41_2 C 0.6643(2) 0.36547(11) 0.94432(11)
H30_2 H 0.722389 0.364665 0.942224
N4_2 N 0.7175(2) 0.27638(9) 0.97030(8)
C42_2 C 0.6653(3) 0.28435(12) 0.93793(12)
H31_2 H 0.699852 0.284877 0.915650
H32_2 H 0.624921 0.260870 0.935317
C43_2 C 0.7773(3) 0.24135(15) 0.96375(12)
H33_2 H 0.747389 0.214602 0.958018
H34_2 H 0.812083 0.248647 0.942416
H36_2 H 0.636031 0.239475 0.997831
O13_2 O 0.91807(12) 0.03506(6) 0.97891(5)
O15_2 O 0.91596(11) 0.99754(6) 0.05002(5)
Co5_2 Co 0.99047(2) 0.96687(2) 0.97147(2)
Co1_3 Co 0.24047(2) 0.03313(2) 0.22147(2)
O1_3 O 0.15604(11) 0.05697(6) 0.25842(5)
O2_3 O 0.14887(12) 0.01479(6) 0.18495(6)
C2_3 C 0.02950(17) 0.03180(9) 0.33960(8)
H1_3 H 0.051793 0.004521 0.345255
C4_3 C 0.06029(16) 0.05467(8) 0.30909(7)
C5_3 C 0.13229(16) 0.03700(8) 0.28747(7)
C10_3 C 0.02532(17) 0.09496(9) 0.30093(8)
H4_3 H 0.044935 0.110670 0.280487
O6_3 O 0.16596(11) 0.00246(6) 0.30002(5)
N1_3 N 0.29167(15) 0.09202(7) 0.20331(6)
C15_3 C 0.2490(2) 0.12859(12) 0.20074(12)
H9_3 H 0.190980 0.127270 0.203014
C16_3 C 0.3745(2) 0.09533(10) 0.19991(10)
H10_3 H 0.406709 0.070065 0.201393
C17_3 C 0.3694(3) 0.17236(10) 0.19179(10)
C18_3 C 0.2855(3) 0.16886(12) 0.19486(13)
H11_3 H 0.252113 0.193666 0.193000
C19_3 C 0.4143(2) 0.13453(11) 0.19432(11)
H12_3 H 0.472389 0.135335 0.192224
N2_3 N 0.4675(2) 0.22362(9) 0.22030(8)
C20_3 C 0.4153(3) 0.21565(12) 0.18793(12)
H13_3 H 0.449852 0.215123 0.165650
H14_3 H 0.374921 0.239130 0.185317
C21_3 C 0.5273(3) 0.25865(15) 0.21375(12)
H15_3 H 0.497389 0.285398 0.208018
H16_3 H 0.562083 0.251353 0.192416
C22_3 C 0.4182(3) 0.23427(14) 0.25271(12)
H17_3 H 0.379182 0.210709 0.257729
H18_3 H 0.386031 0.260525 0.247831
N3_3 N 0.70833(15) 0.40798(7) 0.29669(6)
C37_3 C 0.7510(2) 0.37141(12) 0.29926(12)
H27_3 H 0.809020 0.372730 0.296986
C38_3 C 0.6255(2) 0.40467(10) 0.30009(10)
H28_3 H 0.593291 0.429935 0.298607
C39_3 C 0.6306(3) 0.32764(10) 0.30821(10)
C40_3 C 0.7145(3) 0.33114(12) 0.30514(13)
H29_3 H 0.747887 0.306334 0.307000
C41_3 C 0.5857(2) 0.36547(11) 0.30568(11)
H30_3 H 0.527611 0.364665 0.307776
N4_3 N 0.5325(2) 0.27638(9) 0.27970(8)
C42_3 C 0.5847(3) 0.28435(12) 0.31207(12)
H31_3 H 0.550148 0.284877 0.334350
H32_3 H 0.625079 0.260870 0.314683
C43_3 C 0.4727(3) 0.24135(15) 0.28625(12)
H33_3 H 0.502611 0.214602 0.291982
H34_3 H 0.437917 0.248647 0.307584
C44_3 C 0.5818(3) 0.26573(14) 0.24729(12)
H35_3 H 0.620818 0.289291 0.242271
H36_3 H 0.613969 0.239475 0.252169
Co4_2 Co 0.75953(2) 0.46687(2) 0.27853(2)
O13_3 O 0.33193(12) 0.03506(6) 0.27109(5)
O3_3 O 0.16807(12) 0.96494(6) 0.22891(5)
C7_3 C 0.05918(16) 0.95251(9) 0.18527(8)
C8_3 C 0.02430(17) 0.96232(9) 0.15058(8)
H3_3 H 0.043483 0.986351 0.137197
C9_3 C 0.12948(17) 0.97873(9) 0.20054(8)
C14_3 C 0.03007(19) 0.91609(10) 0.20428(8)
H8_3 H 0.053628 0.908916 0.227235
Co5_3 Co 0.25953(2) 0.96687(2) 0.27853(2)
O15_3 O 0.33404(11) 0.99754(6) 0.19998(5)
O4_3 O 0.875000 0.11056(9) 0.375000
C3_3 C 0.93277(17) 0.08906(9) 0.35310(8)
C6_3 C 0.96209(18) 0.11215(9) 0.32251(8)
H2_3 H 0.939112 0.139189 0.316586
C13_3 C 0.96661(18) 0.04863(10) 0.36169(8)
H7_3 H 0.947065 0.032989 0.382184
O7_3 O 0.59396(11) 0.05697(6) 0.49158(5)
C23_3 C 0.72050(17) 0.03180(9) 0.41040(8)
H19_3 H 0.698207 0.004521 0.404745
C24_3 C 0.81723(17) 0.08906(9) 0.39690(8)
C25_3 C 0.68971(16) 0.05467(8) 0.44091(7)
C26_3 C 0.61771(16) 0.03700(8) 0.46253(7)
C27_3 C 0.78791(18) 0.11215(9) 0.42749(8)
H20_3 H 0.810888 0.139189 0.433414
C28_3 C 0.72468(17) 0.09496(9) 0.44907(8)
H21_3 H 0.705065 0.110670 0.469513
C29_3 C 0.78339(18) 0.04863(10) 0.38831(8)
H22_3 H 0.802935 0.032989 0.367816
O8_3 O 0.58404(11) 0.00246(6) 0.44998(5)
Co2_3 Co 0.50953(2) 0.03313(2) 0.52853(2)
O11_3 O 0.60113(12) 0.01479(6) 0.56505(6)
O14_3 O 0.41807(12) 0.03506(6) 0.47891(5)
N5_3 N 0.45833(15) 0.09202(7) 0.54669(6)
C1_3 C 0.93317(18) 0.90067(9) 0.15553(8)
O5_3 O 0.875000 0.875000 0.13715(8)
C11_3 C 0.96704(19) 0.89026(10) 0.18997(8)
H5_3 H 0.947579 0.866205 0.203256
C12_3 C 0.96144(17) 0.93649(9) 0.13604(8)
H6_3 H 0.938077 0.943324 0.112971
O9_3 O 0.60113(12) 0.73521(6) 0.18495(6)
O10_3 O 0.58193(12) 0.78506(6) 0.22891(5)
C30_3 C 0.81683(18) 0.84933(9) 0.15553(8)
C31_3 C 0.69082(16) 0.79749(9) 0.18527(8)
C32_3 C 0.72570(17) 0.78768(9) 0.15058(8)
H23_3 H 0.706517 0.763649 0.137197
C33_3 C 0.62052(17) 0.77127(9) 0.20054(8)
C34_3 C 0.78296(19) 0.85974(10) 0.18997(8)
H24_3 H 0.802421 0.883795 0.203256
C35_3 C 0.78856(17) 0.81351(9) 0.13604(8)
H25_3 H 0.811923 0.806676 0.112971
C36_3 C 0.71993(19) 0.83391(10) 0.20428(8)
H26_3 H 0.696372 0.841084 0.227235
Co3_3 Co 0.50953(2) 0.71687(2) 0.22147(2)
Co6_2 Co 0.49047(2) 0.78313(2) 0.27853(2)
Co7_3 Co 0.49047(2) 0.96687(2) 0.47147(2)
O12_3 O 0.58193(12) 0.96494(6) 0.52109(5)
O16_3 O 0.41596(11) 0.99754(6) 0.55002(5)
Co1_4 Co 0.00953(2) 0.21687(2) 0.22147(2)
O1_4 O 0.09396(11) 0.19303(6) 0.25842(5)
O2_4 O 0.10113(12) 0.23521(6) 0.18495(6)
O3_4 O 0.08193(12) 0.28506(6) 0.22891(5)
O4_4 O 0.375000 0.13944(9) 0.375000
C1_4 C 0.31683(18) 0.34933(9) 0.15553(8)
O5_4 O 0.375000 0.375000 0.13715(8)
C2_4 C 0.22050(17) 0.21820(9) 0.33960(8)
H1_4 H 0.198207 0.245479 0.345255
C3_4 C 0.31723(17) 0.16094(9) 0.35310(8)
C4_4 C 0.18971(16) 0.19533(8) 0.30909(7)
C5_4 C 0.11771(16) 0.21300(8) 0.28747(7)
C6_4 C 0.28791(18) 0.13785(9) 0.32251(8)
H2_4 H 0.310888 0.110811 0.316586
C7_4 C 0.19082(16) 0.29749(9) 0.18527(8)
C8_4 C 0.22570(17) 0.28768(9) 0.15058(8)
H3_4 H 0.206517 0.263649 0.137197
C9_4 C 0.12052(17) 0.27127(9) 0.20054(8)
C10_4 C 0.22468(17) 0.15504(9) 0.30093(8)
H4_4 H 0.205065 0.139330 0.280487
C11_4 C 0.28296(19) 0.35974(10) 0.18997(8)
H5_4 H 0.302421 0.383795 0.203256
C12_4 C 0.28856(17) 0.31351(9) 0.13604(8)
H6_4 H 0.311923 0.306676 0.112971
C13_4 C 0.28339(18) 0.20137(10) 0.36169(8)
H7_4 H 0.302935 0.217011 0.382184
C14_4 C 0.21993(19) 0.33391(10) 0.20428(8)
H8_4 H 0.196372 0.341084 0.227235
O6_4 O 0.08404(11) 0.24754(6) 0.30002(5)
C15_4 C 0.0010(2) 0.12141(12) 0.20074(12)
H9_4 H 0.059020 0.122730 0.203014
O7_4 O 0.65604(11) 0.19303(6) 0.49158(5)
C23_4 C 0.52950(17) 0.21820(9) 0.41040(8)
H19_4 H 0.551793 0.245479 0.404745
C24_4 C 0.43277(17) 0.16094(9) 0.39690(8)
C25_4 C 0.56029(16) 0.19533(8) 0.44091(7)
C26_4 C 0.63229(16) 0.21300(8) 0.46253(7)
C27_4 C 0.46209(18) 0.13785(9) 0.42749(8)
H20_4 H 0.439112 0.110811 0.433414
C28_4 C 0.52532(17) 0.15504(9) 0.44907(8)
H21_4 H 0.544935 0.139330 0.469513
C29_4 C 0.46661(18) 0.20137(10) 0.38831(8)
H22_4 H 0.447065 0.217011 0.367816
O8_4 O 0.66596(11) 0.24754(6) 0.44998(5)
O9_4 O 0.64887(12) 0.51479(6) 0.18495(6)
O10_4 O 0.66807(12) 0.46494(6) 0.22891(5)
C30_4 C 0.43317(18) 0.40067(9) 0.15553(8)
C31_4 C 0.55918(16) 0.45251(9) 0.18527(8)
C32_4 C 0.52430(17) 0.46232(9) 0.15058(8)
H23_4 H 0.543483 0.486351 0.137197
C33_4 C 0.62948(17) 0.47873(9) 0.20054(8)
C34_4 C 0.46704(19) 0.39026(10) 0.18997(8)
H24_4 H 0.447579 0.366205 0.203256
C35_4 C 0.46144(17) 0.43649(9) 0.13604(8)
H25_4 H 0.438077 0.443324 0.112971
C36_4 C 0.53007(19) 0.41609(10) 0.20428(8)
H26_4 H 0.553628 0.408916 0.227235
Co2_4 Co 0.74047(2) 0.21687(2) 0.52853(2)
Co3_4 Co 0.74047(2) 0.53313(2) 0.22147(2)
Co7_4 Co 0.75953(2) 0.28313(2) 0.47147(2)
O11_4 O 0.64887(12) 0.23521(6) 0.56505(6)
O12_4 O 0.66807(12) 0.28506(6) 0.52109(5)
O14_4 O 0.83193(12) 0.21494(6) 0.47891(5)
O16_4 O 0.83404(11) 0.25246(6) 0.55002(5)
N5_4 N 0.79167(15) 0.15798(7) 0.54669(6)
N1_4 N 0.95833(15) 0.15798(7) 0.20331(6)
C16_4 C 0.8755(2) 0.15467(10) 0.19991(10)
H10_4 H 0.843291 0.179935 0.201393
C17_4 C 0.8806(3) 0.07764(10) 0.19179(10)
C18_4 C 0.9645(3) 0.08114(12) 0.19486(13)
H11_4 H 0.997887 0.056334 0.193000
C19_4 C 0.8357(2) 0.11547(11) 0.19432(11)
H12_4 H 0.777611 0.114665 0.192224
N2_4 N 0.7825(2) 0.02638(9) 0.22030(8)
C20_4 C 0.8347(3) 0.03435(12) 0.18793(12)
H13_4 H 0.800148 0.034877 0.165650
H14_4 H 0.875079 0.010870 0.185317
C22_4 C 0.8318(3) 0.01573(14) 0.25271(12)
H17_4 H 0.870818 0.039291 0.257729
C43_4 C 0.7773(3) 0.00865(15) 0.28625(12)
H33_4 H 0.747389 0.035398 0.291982
H34_4 H 0.812083 0.001353 0.307584
H36_4 H 0.636031 0.010525 0.252169
Co5_4 Co 0.99047(2) 0.28313(2) 0.27853(2)
O13_4 O 0.91807(12) 0.21494(6) 0.27109(5)
O15_4 O 0.91596(11) 0.25246(6) 0.19998(5)
C21_4 C 0.7227(3) 0.99135(15) 0.21375(12)
H15_4 H 0.752611 0.964602 0.208018
H16_4 H 0.687917 0.998647 0.192416
H18_4 H 0.863969 0.989475 0.247831
N3_4 N 0.54167(15) 0.84202(7) 0.29669(6)
C37_4 C 0.4990(2) 0.87859(12) 0.29926(12)
H27_4 H 0.440980 0.877270 0.296986
C38_4 C 0.6245(2) 0.84533(10) 0.30009(10)
H28_4 H 0.656709 0.820065 0.298607
C39_4 C 0.6194(3) 0.92236(10) 0.30821(10)
C40_4 C 0.5355(3) 0.91886(12) 0.30514(13)
H29_4 H 0.502113 0.943666 0.307000
C41_4 C 0.6643(2) 0.88453(11) 0.30568(11)
H30_4 H 0.722389 0.885335 0.307776
N4_4 N 0.7175(2) 0.97362(9) 0.27970(8)
C42_4 C 0.6653(3) 0.96565(12) 0.31207(12)
H31_4 H 0.699852 0.965123 0.334350
H32_4 H 0.624921 0.989130 0.314683
C44_4 C 0.6682(3) 0.98427(14) 0.24729(12)
H35_4 H 0.629182 0.960709 0.242271
Co1_5 Co 0.24047(2) 0.71687(2) 0.52853(2)
O1_5 O 0.15604(11) 0.69303(6) 0.49158(5)
O2_5 O 0.14887(12) 0.73521(6) 0.56505(6)
O3_5 O 0.16807(12) 0.78506(6) 0.52109(5)
C2_5 C 0.02950(17) 0.71820(9) 0.41040(8)
H1_5 H 0.051793 0.745479 0.404745
C4_5 C 0.06029(16) 0.69533(8) 0.44091(7)
C5_5 C 0.13229(16) 0.71300(8) 0.46253(7)
C7_5 C 0.05918(16) 0.79749(9) 0.56473(8)
C8_5 C 0.02430(17) 0.78768(9) 0.59942(8)
H3_5 H 0.043483 0.763649 0.612803
C9_5 C 0.12948(17) 0.77127(9) 0.54946(8)
C10_5 C 0.02532(17) 0.65504(9) 0.44907(8)
H4_5 H 0.044935 0.639330 0.469513
C14_5 C 0.03007(19) 0.83391(10) 0.54572(8)
H8_5 H 0.053628 0.841084 0.522765
O6_5 O 0.16596(11) 0.74754(6) 0.44998(5)
N1_5 N 0.29167(15) 0.65798(7) 0.54669(6)
C15_5 C 0.2490(2) 0.62141(12) 0.54926(12)
H9_5 H 0.190980 0.622730 0.546986
C16_5 C 0.3745(2) 0.65467(10) 0.55009(10)
H10_5 H 0.406709 0.679935 0.548607
C17_5 C 0.3694(3) 0.57764(10) 0.55821(10)
C18_5 C 0.2855(3) 0.58114(12) 0.55514(13)
H11_5 H 0.252113 0.556334 0.557000
C19_5 C 0.4143(2) 0.61547(11) 0.55568(11)
H12_5 H 0.472389 0.614665 0.557776
N2_5 N 0.4675(2) 0.52638(9) 0.52970(8)
C20_5 C 0.4153(3) 0.53435(12) 0.56207(12)
H13_5 H 0.449852 0.534877 0.584350
H14_5 H 0.374921 0.510870 0.564683
C21_5 C 0.5273(3) 0.49135(15) 0.53625(12)
H15_5 H 0.497389 0.464602 0.541982
H16_5 H 0.562083 0.498647 0.557584
C22_5 C 0.4182(3) 0.51573(14) 0.49729(12)
H17_5 H 0.379182 0.539291 0.492271
H18_5 H 0.386031 0.489475 0.502169
N3_5 N 0.70833(15) 0.34202(7) 0.45331(6)
C37_5 C 0.7510(2) 0.37859(12) 0.45074(12)
H27_5 H 0.809020 0.377270 0.453014
C38_5 C 0.6255(2) 0.34533(10) 0.44991(10)
H28_5 H 0.593291 0.320065 0.451393
C39_5 C 0.6306(3) 0.42236(10) 0.44179(10)
C40_5 C 0.7145(3) 0.41886(12) 0.44486(13)
H29_5 H 0.747887 0.443666 0.443000
C41_5 C 0.5857(2) 0.38453(11) 0.44432(11)
H30_5 H 0.527611 0.385335 0.442224
N4_5 N 0.5325(2) 0.47362(9) 0.47030(8)
C42_5 C 0.5847(3) 0.46565(12) 0.43793(12)
H31_5 H 0.550148 0.465123 0.415650
H32_5 H 0.625079 0.489130 0.435317
C43_5 C 0.4727(3) 0.50865(15) 0.46375(12)
H33_5 H 0.502611 0.535398 0.458018
H34_5 H 0.437917 0.501353 0.442416
C44_5 C 0.5818(3) 0.48427(14) 0.50271(12)
H35_5 H 0.620818 0.460709 0.507729
H36_5 H 0.613969 0.510525 0.497831
Co5_5 Co 0.25953(2) 0.78313(2) 0.47147(2)
O13_5 O 0.33193(12) 0.71494(6) 0.47891(5)
O15_5 O 0.33404(11) 0.75246(6) 0.55002(5)
O4_5 O 0.875000 0.63944(9) 0.375000
C1_5 C 0.93317(18) 0.84933(9) 0.59447(8)
O5_5 O 0.875000 0.875000 0.61285(8)
C3_5 C 0.93277(17) 0.66094(9) 0.39690(8)
C6_5 C 0.96209(18) 0.63785(9) 0.42749(8)
H2_5 H 0.939112 0.610811 0.433414
C11_5 C 0.96704(19) 0.85974(10) 0.56003(8)
H5_5 H 0.947579 0.883795 0.546744
C12_5 C 0.96144(17) 0.81351(9) 0.61396(8)
H6_5 H 0.938077 0.806676 0.637029
C13_5 C 0.96661(18) 0.70137(10) 0.38831(8)
H7_5 H 0.947065 0.717011 0.367816
O7_5 O 0.59396(11) 0.69303(6) 0.25842(5)
C23_5 C 0.72050(17) 0.71820(9) 0.33960(8)
H19_5 H 0.698207 0.745479 0.345255
C24_5 C 0.81723(17) 0.66094(9) 0.35310(8)
C25_5 C 0.68971(16) 0.69533(8) 0.30909(7)
C26_5 C 0.61771(16) 0.71300(8) 0.28747(7)
C27_5 C 0.78791(18) 0.63785(9) 0.32251(8)
H20_5 H 0.810888 0.610811 0.316586
C28_5 C 0.72468(17) 0.65504(9) 0.30093(8)
H21_5 H 0.705065 0.639330 0.280487
C29_5 C 0.78339(18) 0.70137(10) 0.36169(8)
H22_5 H 0.802935 0.717011 0.382184
O8_5 O 0.58404(11) 0.74754(6) 0.30002(5)
C30_5 C 0.81683(18) 0.90067(9) 0.59447(8)
C31_5 C 0.69082(16) 0.95251(9) 0.56473(8)
C32_5 C 0.72570(17) 0.96232(9) 0.59942(8)
H23_5 H 0.706517 0.986351 0.612803
C33_5 C 0.62052(17) 0.97873(9) 0.54946(8)
C34_5 C 0.78296(19) 0.89026(10) 0.56003(8)
H24_5 H 0.802421 0.866205 0.546744
C35_5 C 0.78856(17) 0.93649(9) 0.61396(8)
H25_5 H 0.811923 0.943324 0.637029
C36_5 C 0.71993(19) 0.91609(10) 0.54572(8)
H26_5 H 0.696372 0.908916 0.522765
O14_5 O 0.41807(12) 0.71494(6) 0.27109(5)
O16_5 O 0.41596(11) 0.75246(6) 0.19998(5)
N5_5 N 0.45833(15) 0.65798(7) 0.20331(6)
Co1_6 Co 0.00953(2) 0.53313(2) 0.52853(2)
O1_6 O 0.09396(11) 0.55697(6) 0.49158(5)
O2_6 O 0.10113(12) 0.51479(6) 0.56505(6)
O3_6 O 0.08193(12) 0.46494(6) 0.52109(5)
O4_6 O 0.375000 0.61056(9) 0.375000
C1_6 C 0.31683(18) 0.40067(9) 0.59447(8)
O5_6 O 0.375000 0.375000 0.61285(8)
C2_6 C 0.22050(17) 0.53180(9) 0.41040(8)
H1_6 H 0.198207 0.504521 0.404745
C3_6 C 0.31723(17) 0.58906(9) 0.39690(8)
C4_6 C 0.18971(16) 0.55467(8) 0.44091(7)
C5_6 C 0.11771(16) 0.53700(8) 0.46253(7)
C6_6 C 0.28791(18) 0.61215(9) 0.42749(8)
H2_6 H 0.310888 0.639189 0.433414
C7_6 C 0.19082(16) 0.45251(9) 0.56473(8)
C8_6 C 0.22570(17) 0.46232(9) 0.59942(8)
H3_6 H 0.206517 0.486351 0.612803
C9_6 C 0.12052(17) 0.47873(9) 0.54946(8)
C10_6 C 0.22468(17) 0.59496(9) 0.44907(8)
H4_6 H 0.205065 0.610670 0.469513
C11_6 C 0.28296(19) 0.39026(10) 0.56003(8)
H5_6 H 0.302421 0.366205 0.546744
C12_6 C 0.28856(17) 0.43649(9) 0.61396(8)
H6_6 H 0.311923 0.443324 0.637029
C13_6 C 0.28339(18) 0.54863(10) 0.38831(8)
H7_6 H 0.302935 0.532989 0.367816
C14_6 C 0.21993(19) 0.41609(10) 0.54572(8)
H8_6 H 0.196372 0.408916 0.522765
O6_6 O 0.08404(11) 0.50246(6) 0.44998(5)
C15_6 C 0.0010(2) 0.62859(12) 0.54926(12)
H9_6 H 0.059020 0.627270 0.546986
O7_6 O 0.65604(11) 0.55697(6) 0.25842(5)
C23_6 C 0.52950(17) 0.53180(9) 0.33960(8)
H19_6 H 0.551793 0.504521 0.345255
C24_6 C 0.43277(17) 0.58906(9) 0.35310(8)
C25_6 C 0.56029(16) 0.55467(8) 0.30909(7)
C26_6 C 0.63229(16) 0.53700(8) 0.28747(7)
C27_6 C 0.46209(18) 0.61215(9) 0.32251(8)
H20_6 H 0.439112 0.639189 0.316586
C28_6 C 0.52532(17) 0.59496(9) 0.30093(8)
H21_6 H 0.544935 0.610670 0.280487
C29_6 C 0.46661(18) 0.54863(10) 0.36169(8)
H22_6 H 0.447065 0.532989 0.382184
O8_6 O 0.66596(11) 0.50246(6) 0.30002(5)
C30_6 C 0.43317(18) 0.34933(9) 0.59447(8)
C31_6 C 0.55918(16) 0.29749(9) 0.56473(8)
C32_6 C 0.52430(17) 0.28768(9) 0.59942(8)
H23_6 H 0.543483 0.263649 0.612803
C33_6 C 0.62948(17) 0.27127(9) 0.54946(8)
C34_6 C 0.46704(19) 0.35974(10) 0.56003(8)
H24_6 H 0.447579 0.383795 0.546744
C35_6 C 0.46144(17) 0.31351(9) 0.61396(8)
H25_6 H 0.438077 0.306676 0.637029
C36_6 C 0.53007(19) 0.33391(10) 0.54572(8)
H26_6 H 0.553628 0.341084 0.522765
O14_6 O 0.83193(12) 0.53506(6) 0.27109(5)
O16_6 O 0.83404(11) 0.49754(6) 0.19998(5)
N5_6 N 0.79167(15) 0.59202(7) 0.20331(6)
N1_6 N 0.95833(15) 0.59202(7) 0.54669(6)
C16_6 C 0.8755(2) 0.59533(10) 0.55009(10)
H10_6 H 0.843291 0.570065 0.548607
C17_6 C 0.8806(3) 0.67236(10) 0.55821(10)
C18_6 C 0.9645(3) 0.66886(12) 0.55514(13)
H11_6 H 0.997887 0.693666 0.557000
C19_6 C 0.8357(2) 0.63453(11) 0.55568(11)
H12_6 H 0.777611 0.635335 0.557776
N2_6 N 0.7825(2) 0.72362(9) 0.52970(8)
C20_6 C 0.8347(3) 0.71565(12) 0.56207(12)
H13_6 H 0.800148 0.715123 0.584350
H14_6 H 0.875079 0.739130 0.564683
C21_6 C 0.7227(3) 0.75865(15) 0.53625(12)
H15_6 H 0.752611 0.785398 0.541982
H16_6 H 0.687917 0.751353 0.557584
C22_6 C 0.8318(3) 0.73427(14) 0.49729(12)
H17_6 H 0.870818 0.710709 0.492271
H18_6 H 0.863969 0.760525 0.502169
N3_6 N 0.54167(15) 0.90798(7) 0.45331(6)
C37_6 C 0.4990(2) 0.87141(12) 0.45074(12)
H27_6 H 0.440980 0.872730 0.453014
C38_6 C 0.6245(2) 0.90467(10) 0.44991(10)
H28_6 H 0.656709 0.929935 0.451393
C39_6 C 0.6194(3) 0.82764(10) 0.44179(10)
C40_6 C 0.5355(3) 0.83114(12) 0.44486(13)
H29_6 H 0.502113 0.806334 0.443000
C41_6 C 0.6643(2) 0.86547(11) 0.44432(11)
H30_6 H 0.722389 0.864665 0.442224
N4_6 N 0.7175(2) 0.77638(9) 0.47030(8)
C42_6 C 0.6653(3) 0.78435(12) 0.43793(12)
H31_6 H 0.699852 0.784877 0.415650
H32_6 H 0.624921 0.760870 0.435317
C43_6 C 0.7773(3) 0.74135(15) 0.46375(12)
H33_6 H 0.747389 0.714602 0.458018
H34_6 H 0.812083 0.748647 0.442416
C44_6 C 0.6682(3) 0.76573(14) 0.50271(12)
H35_6 H 0.629182 0.789291 0.507729
H36_6 H 0.636031 0.739475 0.497831
Co5_6 Co 0.99047(2) 0.46687(2) 0.47147(2)
O13_6 O 0.91807(12) 0.53506(6) 0.47891(5)
O15_6 O 0.91596(11) 0.49754(6) 0.55002(5)
Co1_7 Co 0.24047(2) 0.53313(2) 0.72147(2)
O1_7 O 0.15604(11) 0.55697(6) 0.75842(5)
O2_7 O 0.14887(12) 0.51479(6) 0.68495(6)
O3_7 O 0.16807(12) 0.46494(6) 0.72891(5)
C2_7 C 0.02950(17) 0.53180(9) 0.83960(8)
H1_7 H 0.051793 0.504521 0.845255
C4_7 C 0.06029(16) 0.55467(8) 0.80909(7)
C5_7 C 0.13229(16) 0.53700(8) 0.78747(7)
C7_7 C 0.05918(16) 0.45251(9) 0.68527(8)
C8_7 C 0.02430(17) 0.46232(9) 0.65058(8)
H3_7 H 0.043483 0.486351 0.637197
C9_7 C 0.12948(17) 0.47873(9) 0.70054(8)
C10_7 C 0.02532(17) 0.59496(9) 0.80093(8)
H4_7 H 0.044935 0.610670 0.780487
C14_7 C 0.03007(19) 0.41609(10) 0.70428(8)
H8_7 H 0.053628 0.408916 0.727235
O6_7 O 0.16596(11) 0.50246(6) 0.80002(5)
N1_7 N 0.29167(15) 0.59202(7) 0.70331(6)
C15_7 C 0.2490(2) 0.62859(12) 0.70074(12)
H9_7 H 0.190980 0.627270 0.703014
C16_7 C 0.3745(2) 0.59533(10) 0.69991(10)
H10_7 H 0.406709 0.570065 0.701393
C17_7 C 0.3694(3) 0.67236(10) 0.69179(10)
C18_7 C 0.2855(3) 0.66886(12) 0.69486(13)
H11_7 H 0.252113 0.693666 0.693000
C19_7 C 0.4143(2) 0.63453(11) 0.69432(11)
H12_7 H 0.472389 0.635335 0.692224
N2_7 N 0.4675(2) 0.72362(9) 0.72030(8)
C20_7 C 0.4153(3) 0.71565(12) 0.68793(12)
H13_7 H 0.449852 0.715123 0.665650
H14_7 H 0.374921 0.739130 0.685317
C21_7 C 0.5273(3) 0.75865(15) 0.71375(12)
H15_7 H 0.497389 0.785398 0.708018
H16_7 H 0.562083 0.751353 0.692416
C22_7 C 0.4182(3) 0.73427(14) 0.75271(12)
H17_7 H 0.379182 0.710709 0.757729
H18_7 H 0.386031 0.760525 0.747831
N3_7 N 0.70833(15) 0.90798(7) 0.79669(6)
C37_7 C 0.7510(2) 0.87141(12) 0.79926(12)
H27_7 H 0.809020 0.872730 0.796986
C38_7 C 0.6255(2) 0.90467(10) 0.80009(10)
H28_7 H 0.593291 0.929935 0.798607
C39_7 C 0.6306(3) 0.82764(10) 0.80821(10)
C40_7 C 0.7145(3) 0.83114(12) 0.80514(13)
H29_7 H 0.747887 0.806334 0.807000
C41_7 C 0.5857(2) 0.86547(11) 0.80568(11)
H30_7 H 0.527611 0.864665 0.807776
N4_7 N 0.5325(2) 0.77638(9) 0.77970(8)
C42_7 C 0.5847(3) 0.78435(12) 0.81207(12)
H31_7 H 0.550148 0.784877 0.834350
H32_7 H 0.625079 0.760870 0.814683
C43_7 C 0.4727(3) 0.74135(15) 0.78625(12)
H33_7 H 0.502611 0.714602 0.791982
H34_7 H 0.437917 0.748647 0.807584
C44_7 C 0.5818(3) 0.76573(14) 0.74729(12)
H35_7 H 0.620818 0.789291 0.742271
H36_7 H 0.613969 0.739475 0.752169
Co5_7 Co 0.25953(2) 0.46687(2) 0.77853(2)
O13_7 O 0.33193(12) 0.53506(6) 0.77109(5)
O15_7 O 0.33404(11) 0.49754(6) 0.69998(5)
O16_7 O 0.41596(11) 0.49754(6) 0.05002(5)
N5_7 N 0.45833(15) 0.59202(7) 0.04669(6)
O4_7 O 0.875000 0.61056(9) 0.875000
C1_7 C 0.93317(18) 0.40067(9) 0.65553(8)
O5_7 O 0.875000 0.375000 0.63715(8)
C3_7 C 0.93277(17) 0.58906(9) 0.85310(8)
C6_7 C 0.96209(18) 0.61215(9) 0.82251(8)
H2_7 H 0.939112 0.639189 0.816586
C11_7 C 0.96704(19) 0.39026(10) 0.68997(8)
H5_7 H 0.947579 0.366205 0.703256
C12_7 C 0.96144(17) 0.43649(9) 0.63604(8)
H6_7 H 0.938077 0.443324 0.612971
C13_7 C 0.96661(18) 0.54863(10) 0.86169(8)
H7_7 H 0.947065 0.532989 0.882184
O7_7 O 0.59396(11) 0.55697(6) 0.99158(5)
C23_7 C 0.72050(17) 0.53180(9) 0.91040(8)
H19_7 H 0.698207 0.504521 0.904745
C24_7 C 0.81723(17) 0.58906(9) 0.89690(8)
C25_7 C 0.68971(16) 0.55467(8) 0.94091(7)
C26_7 C 0.61771(16) 0.53700(8) 0.96253(7)
C27_7 C 0.78791(18) 0.61215(9) 0.92749(8)
H20_7 H 0.810888 0.639189 0.933414
C28_7 C 0.72468(17) 0.59496(9) 0.94907(8)
H21_7 H 0.705065 0.610670 0.969513
C29_7 C 0.78339(18) 0.54863(10) 0.88831(8)
H22_7 H 0.802935 0.532989 0.867816
O8_7 O 0.58404(11) 0.50246(6) 0.94998(5)
C30_7 C 0.81683(18) 0.34933(9) 0.65553(8)
C31_7 C 0.69082(16) 0.29749(9) 0.68527(8)
C32_7 C 0.72570(17) 0.28768(9) 0.65058(8)
H23_7 H 0.706517 0.263649 0.637197
C33_7 C 0.62052(17) 0.27127(9) 0.70054(8)
C34_7 C 0.78296(19) 0.35974(10) 0.68997(8)
H24_7 H 0.802421 0.383795 0.703256
C35_7 C 0.78856(17) 0.31351(9) 0.63604(8)
H25_7 H 0.811923 0.306676 0.612971
C36_7 C 0.71993(19) 0.33391(10) 0.70428(8)
H26_7 H 0.696372 0.341084 0.727235
O14_7 O 0.41807(12) 0.53506(6) 0.97891(5)
O16_8 O 0.83404(11) 0.75246(6) 0.05002(5)
N5_8 N 0.79167(15) 0.65798(7) 0.04669(6)
Co1_8 Co 0.00953(2) 0.71687(2) 0.72147(2)
O1_8 O 0.09396(11) 0.69303(6) 0.75842(5)
O2_8 O 0.10113(12) 0.73521(6) 0.68495(6)
O3_8 O 0.08193(12) 0.78506(6) 0.72891(5)
O4_8 O 0.375000 0.63944(9) 0.875000
C1_8 C 0.31683(18) 0.84933(9) 0.65553(8)
O5_8 O 0.375000 0.875000 0.63715(8)
C2_8 C 0.22050(17) 0.71820(9) 0.83960(8)
H1_8 H 0.198207 0.745479 0.845255
C3_8 C 0.31723(17) 0.66094(9) 0.85310(8)
C4_8 C 0.18971(16) 0.69533(8) 0.80909(7)
C5_8 C 0.11771(16) 0.71300(8) 0.78747(7)
C6_8 C 0.28791(18) 0.63785(9) 0.82251(8)
H2_8 H 0.310888 0.610811 0.816586
C7_8 C 0.19082(16) 0.79749(9) 0.68527(8)
C8_8 C 0.22570(17) 0.78768(9) 0.65058(8)
H3_8 H 0.206517 0.763649 0.637197
C9_8 C 0.12052(17) 0.77127(9) 0.70054(8)
C10_8 C 0.22468(17) 0.65504(9) 0.80093(8)
H4_8 H 0.205065 0.639330 0.780487
C11_8 C 0.28296(19) 0.85974(10) 0.68997(8)
H5_8 H 0.302421 0.883795 0.703256
C12_8 C 0.28856(17) 0.81351(9) 0.63604(8)
H6_8 H 0.311923 0.806676 0.612971
C13_8 C 0.28339(18) 0.70137(10) 0.86169(8)
H7_8 H 0.302935 0.717011 0.882184
C14_8 C 0.21993(19) 0.83391(10) 0.70428(8)
H8_8 H 0.196372 0.841084 0.727235
O6_8 O 0.08404(11) 0.74754(6) 0.80002(5)
C15_8 C 0.0010(2) 0.62141(12) 0.70074(12)
H9_8 H 0.059020 0.622730 0.703014
O7_8 O 0.65604(11) 0.69303(6) 0.99158(5)
C23_8 C 0.52950(17) 0.71820(9) 0.91040(8)
H19_8 H 0.551793 0.745479 0.904745
C24_8 C 0.43277(17) 0.66094(9) 0.89690(8)
C25_8 C 0.56029(16) 0.69533(8) 0.94091(7)
C26_8 C 0.63229(16) 0.71300(8) 0.96253(7)
C27_8 C 0.46209(18) 0.63785(9) 0.92749(8)
H20_8 H 0.439112 0.610811 0.933414
C28_8 C 0.52532(17) 0.65504(9) 0.94907(8)
H21_8 H 0.544935 0.639330 0.969513
C29_8 C 0.46661(18) 0.70137(10) 0.88831(8)
H22_8 H 0.447065 0.717011 0.867816
O8_8 O 0.66596(11) 0.74754(6) 0.94998(5)
C30_8 C 0.43317(18) 0.90067(9) 0.65553(8)
C31_8 C 0.55918(16) 0.95251(9) 0.68527(8)
C32_8 C 0.52430(17) 0.96232(9) 0.65058(8)
H23_8 H 0.543483 0.986351 0.637197
C33_8 C 0.62948(17) 0.97873(9) 0.70054(8)
C34_8 C 0.46704(19) 0.89026(10) 0.68997(8)
H24_8 H 0.447579 0.866205 0.703256
C35_8 C 0.46144(17) 0.93649(9) 0.63604(8)
H25_8 H 0.438077 0.943324 0.612971
C36_8 C 0.53007(19) 0.91609(10) 0.70428(8)
H26_8 H 0.553628 0.908916 0.727235
O14_8 O 0.83193(12) 0.71494(6) 0.97891(5)
N1_8 N 0.95833(15) 0.65798(7) 0.70331(6)
C16_8 C 0.8755(2) 0.65467(10) 0.69991(10)
H10_8 H 0.843291 0.679935 0.701393
C17_8 C 0.8806(3) 0.57764(10) 0.69179(10)
C18_8 C 0.9645(3) 0.58114(12) 0.69486(13)
H11_8 H 0.997887 0.556334 0.693000
C19_8 C 0.8357(2) 0.61547(11) 0.69432(11)
H12_8 H 0.777611 0.614665 0.692224
N2_8 N 0.7825(2) 0.52638(9) 0.72030(8)
C20_8 C 0.8347(3) 0.53435(12) 0.68793(12)
H13_8 H 0.800148 0.534877 0.665650
H14_8 H 0.875079 0.510870 0.685317
C21_8 C 0.7227(3) 0.49135(15) 0.71375(12)
H15_8 H 0.752611 0.464602 0.708018
H16_8 H 0.687917 0.498647 0.692416
C22_8 C 0.8318(3) 0.51573(14) 0.75271(12)
H17_8 H 0.870818 0.539291 0.757729
H18_8 H 0.863969 0.489475 0.747831
N3_8 N 0.54167(15) 0.34202(7) 0.79669(6)
C37_8 C 0.4990(2) 0.37859(12) 0.79926(12)
H27_8 H 0.440980 0.377270 0.796986
C38_8 C 0.6245(2) 0.34533(10) 0.80009(10)
H28_8 H 0.656709 0.320065 0.798607
C39_8 C 0.6194(3) 0.42236(10) 0.80821(10)
C40_8 C 0.5355(3) 0.41886(12) 0.80514(13)
H29_8 H 0.502113 0.443666 0.807000
C41_8 C 0.6643(2) 0.38453(11) 0.80568(11)
H30_8 H 0.722389 0.385335 0.807776
N4_8 N 0.7175(2) 0.47362(9) 0.77970(8)
C42_8 C 0.6653(3) 0.46565(12) 0.81207(12)
H31_8 H 0.699852 0.465123 0.834350
H32_8 H 0.624921 0.489130 0.814683
C43_8 C 0.7773(3) 0.50865(15) 0.78625(12)
H33_8 H 0.747389 0.535398 0.791982
H34_8 H 0.812083 0.501353 0.807584
C44_8 C 0.6682(3) 0.48427(14) 0.74729(12)
H35_8 H 0.629182 0.460709 0.742271
H36_8 H 0.636031 0.510525 0.752169
Co5_8 Co 0.99047(2) 0.78313(2) 0.77853(2)
O13_8 O 0.91807(12) 0.71494(6) 0.77109(5)
O15_8 O 0.91596(11) 0.75246(6) 0.69998(5)
C21_9 C 0.0273(3) 0.99135(15) 0.53625(12)
H16_9 H 0.062083 0.998647 0.557584
N3_9 N 0.20833(15) 0.84202(7) 0.45331(6)
C37_9 C 0.2510(2) 0.87859(12) 0.45074(12)
H27_9 H 0.309020 0.877270 0.453014
C38_9 C 0.1255(2) 0.84533(10) 0.44991(10)
H28_9 H 0.093291 0.820065 0.451393
C39_9 C 0.1306(3) 0.92236(10) 0.44179(10)
C40_9 C 0.2145(3) 0.91886(12) 0.44486(13)
H29_9 H 0.247887 0.943666 0.443000
C41_9 C 0.0857(2) 0.88453(11) 0.44432(11)
H30_9 H 0.027611 0.885335 0.442224
N4_9 N 0.0325(2) 0.97362(9) 0.47030(8)
C42_9 C 0.0847(3) 0.96565(12) 0.43793(12)
H31_9 H 0.050148 0.965123 0.415650
H32_9 H 0.125079 0.989130 0.435317
C44_9 C 0.0818(3) 0.98427(14) 0.50271(12)
H35_9 H 0.120818 0.960709 0.507729
C15_9 C 0.7490(2) 0.12141(12) 0.54926(12)
H9_9 H 0.690980 0.122730 0.546986
C16_9 C 0.8745(2) 0.15467(10) 0.55009(10)
H10_9 H 0.906709 0.179935 0.548607
C17_9 C 0.8694(3) 0.07764(10) 0.55821(10)
C18_9 C 0.7855(3) 0.08114(12) 0.55514(13)
H11_9 H 0.752113 0.056334 0.557000
C19_9 C 0.9143(2) 0.11547(11) 0.55568(11)
H12_9 H 0.972389 0.114665 0.557776
N2_9 N 0.9675(2) 0.02638(9) 0.52970(8)
C20_9 C 0.9153(3) 0.03435(12) 0.56207(12)
H13_9 H 0.949852 0.034877 0.584350
H14_9 H 0.874921 0.010870 0.564683
C22_9 C 0.9182(3) 0.01573(14) 0.49729(12)
H17_9 H 0.879182 0.039291 0.492271
C43_9 C 0.9727(3) 0.00865(15) 0.46375(12)
H34_9 H 0.937917 0.001353 0.442416
C15_10 C 0.5010(2) 0.12859(12) 0.54926(12)
H9_10 H 0.559020 0.127270 0.546986
C16_10 C 0.3755(2) 0.09533(10) 0.55009(10)
H10_10 H 0.343291 0.070065 0.548607
C17_10 C 0.3806(3) 0.17236(10) 0.55821(10)
C18_10 C 0.4645(3) 0.16886(12) 0.55514(13)
H11_10 H 0.497887 0.193666 0.557000
C19_10 C 0.3357(2) 0.13453(11) 0.55568(11)
H12_10 H 0.277611 0.135335 0.557776
N2_10 N 0.2825(2) 0.22362(9) 0.52970(8)
C20_10 C 0.3347(3) 0.21565(12) 0.56207(12)
H13_10 H 0.300148 0.215123 0.584350
H14_10 H 0.375079 0.239130 0.564683
C21_10 C 0.2227(3) 0.25865(15) 0.53625(12)
H15_9 H 0.252611 0.285398 0.541982
H16_10 H 0.187917 0.251353 0.557584
C22_10 C 0.3318(3) 0.23427(14) 0.49729(12)
H17_10 H 0.370818 0.210709 0.492271
H18_9 H 0.363969 0.260525 0.502169
N3_10 N 0.04167(15) 0.40798(7) 0.45331(6)
C38_10 C 0.1245(2) 0.40467(10) 0.44991(10)
H28_10 H 0.156709 0.429935 0.451393
C39_10 C 0.1194(3) 0.32764(10) 0.44179(10)
C40_10 C 0.0355(3) 0.33114(12) 0.44486(13)
H29_10 H 0.002113 0.306334 0.443000
C41_10 C 0.1643(2) 0.36547(11) 0.44432(11)
H30_10 H 0.222389 0.364665 0.442224
N4_10 N 0.2175(2) 0.27638(9) 0.47030(8)
C42_10 C 0.1653(3) 0.28435(12) 0.43793(12)
H31_10 H 0.199852 0.284877 0.415650
H32_10 H 0.124921 0.260870 0.435317
C43_10 C 0.2773(3) 0.24135(15) 0.46375(12)
H33_9 H 0.247389 0.214602 0.458018
H34_10 H 0.312083 0.248647 0.442416
C44_10 C 0.1682(3) 0.26573(14) 0.50271(12)
H35_10 H 0.129182 0.289291 0.507729
H36_9 H 0.136031 0.239475 0.497831
C37_10 C 0.9990(2) 0.37141(12) 0.45074(12)
H27_10 H 0.940980 0.372730 0.453014
C21_11 C 0.0273(3) 0.25865(15) 0.71375(12)
H16_11 H 0.062083 0.251353 0.692416
N3_11 N 0.20833(15) 0.40798(7) 0.79669(6)
C37_11 C 0.2510(2) 0.37141(12) 0.79926(12)
H27_11 H 0.309020 0.372730 0.796986
C38_11 C 0.1255(2) 0.40467(10) 0.80009(10)
H28_11 H 0.093291 0.429935 0.798607
C39_11 C 0.1306(3) 0.32764(10) 0.80821(10)
C40_11 C 0.2145(3) 0.33114(12) 0.80514(13)
H29_11 H 0.247887 0.306334 0.807000
C41_11 C 0.0857(2) 0.36547(11) 0.80568(11)
H30_11 H 0.027611 0.364665 0.807776
N4_11 N 0.0325(2) 0.27638(9) 0.77970(8)
C42_11 C 0.0847(3) 0.28435(12) 0.81207(12)
H31_11 H 0.050148 0.284877 0.834350
H32_11 H 0.125079 0.260870 0.814683
H33_10 H 0.002611 0.214602 0.791982
C44_11 C 0.0818(3) 0.26573(14) 0.74729(12)
H35_11 H 0.120818 0.289291 0.742271
H36_10 H 0.113969 0.239475 0.752169
C15_11 C 0.7490(2) 0.12859(12) 0.70074(12)
H9_11 H 0.690980 0.127270 0.703014
C16_11 C 0.8745(2) 0.09533(10) 0.69991(10)
H10_11 H 0.906709 0.070065 0.701393
C17_11 C 0.8694(3) 0.17236(10) 0.69179(10)
C18_11 C 0.7855(3) 0.16886(12) 0.69486(13)
H11_11 H 0.752113 0.193666 0.693000
C19_11 C 0.9143(2) 0.13453(11) 0.69432(11)
H12_11 H 0.972389 0.135335 0.692224
N2_11 N 0.9675(2) 0.22362(9) 0.72030(8)
C20_11 C 0.9153(3) 0.21565(12) 0.68793(12)
H13_11 H 0.949852 0.215123 0.665650
H14_11 H 0.874921 0.239130 0.685317
H15_10 H 0.997389 0.285398 0.708018
C22_11 C 0.9182(3) 0.23427(14) 0.75271(12)
H17_11 H 0.879182 0.210709 0.757729
H18_10 H 0.886031 0.260525 0.747831
C43_11 C 0.9727(3) 0.24135(15) 0.78625(12)
H34_11 H 0.937917 0.248647 0.807584
C15_12 C 0.5010(2) 0.12141(12) 0.70074(12)
H9_12 H 0.559020 0.122730 0.703014
C16_12 C 0.3755(2) 0.15467(10) 0.69991(10)
H10_12 H 0.343291 0.179935 0.701393
C17_12 C 0.3806(3) 0.07764(10) 0.69179(10)
C18_12 C 0.4645(3) 0.08114(12) 0.69486(13)
H11_12 H 0.497887 0.056334 0.693000
C19_12 C 0.3357(2) 0.11547(11) 0.69432(11)
H12_12 H 0.277611 0.114665 0.692224
N2_12 N 0.2825(2) 0.02638(9) 0.72030(8)
C20_12 C 0.3347(3) 0.03435(12) 0.68793(12)
H13_12 H 0.300148 0.034877 0.665650
H14_12 H 0.375079 0.010870 0.685317
C22_12 C 0.3318(3) 0.01573(14) 0.75271(12)
H17_12 H 0.370818 0.039291 0.757729
C43_12 C 0.2773(3) 0.00865(15) 0.78625(12)
H33_11 H 0.247389 0.035398 0.791982
H34_12 H 0.312083 0.001353 0.807584
H36_11 H 0.136031 0.010525 0.752169
C21_12 C 0.2227(3) 0.99135(15) 0.71375(12)
H15_11 H 0.252611 0.964602 0.708018
H16_12 H 0.187917 0.998647 0.692416
H18_11 H 0.363969 0.989475 0.747831
N3_12 N 0.04167(15) 0.84202(7) 0.79669(6)
C38_12 C 0.1245(2) 0.84533(10) 0.80009(10)
H28_12 H 0.156709 0.820065 0.798607
C39_12 C 0.1194(3) 0.92236(10) 0.80821(10)
C40_12 C 0.0355(3) 0.91886(12) 0.80514(13)
H29_12 H 0.002113 0.943666 0.807000
C41_12 C 0.1643(2) 0.88453(11) 0.80568(11)
H30_12 H 0.222389 0.885335 0.807776
N4_12 N 0.2175(2) 0.97362(9) 0.77970(8)
C42_12 C 0.1653(3) 0.96565(12) 0.81207(12)
H31_12 H 0.199852 0.965123 0.834350
H32_12 H 0.124921 0.989130 0.814683
C44_12 C 0.1682(3) 0.98427(14) 0.74729(12)
H35_12 H 0.129182 0.960709 0.742271
C37_12 C 0.9990(2) 0.87859(12) 0.79926(12)
H27_12 H 0.940980 0.877270 0.796986
C21_13 C 0.0273(3) 0.49135(15) 0.03625(12)
H16_13 H 0.062083 0.498647 0.057584
C44_13 C 0.0818(3) 0.48427(14) 0.00271(12)
H35_13 H 0.120818 0.460709 0.007729
N3_13 N 0.20833(15) 0.34202(7) 0.95331(6)
C37_13 C 0.2510(2) 0.37859(12) 0.95074(12)
H27_13 H 0.309020 0.377270 0.953014
C38_13 C 0.1255(2) 0.34533(10) 0.94991(10)
H28_13 H 0.093291 0.320065 0.951393
C39_13 C 0.1306(3) 0.42236(10) 0.94179(10)
C40_13 C 0.2145(3) 0.41886(12) 0.94486(13)
H29_13 H 0.247887 0.443666 0.943000
C41_13 C 0.0857(2) 0.38453(11) 0.94432(11)
H30_13 H 0.027611 0.385335 0.942224
N4_13 N 0.0325(2) 0.47362(9) 0.97030(8)
C42_13 C 0.0847(3) 0.46565(12) 0.93793(12)
H31_13 H 0.050148 0.465123 0.915650
H32_13 H 0.125079 0.489130 0.935317
H33_12 H 0.002611 0.535398 0.958018
H36_12 H 0.113969 0.510525 0.997831
C15_13 C 0.7490(2) 0.62141(12) 0.04926(12)
H9_13 H 0.690980 0.622730 0.046986
C16_13 C 0.8745(2) 0.65467(10) 0.05009(10)
H10_13 H 0.906709 0.679935 0.048607
C17_13 C 0.8694(3) 0.57764(10) 0.05821(10)
C18_13 C 0.7855(3) 0.58114(12) 0.05514(13)
H11_13 H 0.752113 0.556334 0.057000
C19_13 C 0.9143(2) 0.61547(11) 0.05568(11)
H12_13 H 0.972389 0.614665 0.057776
N2_13 N 0.9675(2) 0.52638(9) 0.02970(8)
C20_13 C 0.9153(3) 0.53435(12) 0.06207(12)
H13_13 H 0.949852 0.534877 0.084350
H14_13 H 0.874921 0.510870 0.064683
H15_12 H 0.997389 0.464602 0.041982
H18_12 H 0.886031 0.489475 0.002169
C22_13 C 0.9182(3) 0.51573(14) 0.99729(12)
H17_13 H 0.879182 0.539291 0.992271
C43_13 C 0.9727(3) 0.50865(15) 0.96375(12)
H34_13 H 0.937917 0.501353 0.942416
C15_14 C 0.5010(2) 0.62859(12) 0.04926(12)
H9_14 H 0.559020 0.627270 0.046986
C16_14 C 0.3755(2) 0.59533(10) 0.05009(10)
H10_14 H 0.343291 0.570065 0.048607
C17_14 C 0.3806(3) 0.67236(10) 0.05821(10)
C18_14 C 0.4645(3) 0.66886(12) 0.05514(13)
H11_14 H 0.497887 0.693666 0.057000
C19_14 C 0.3357(2) 0.63453(11) 0.05568(11)
H12_14 H 0.277611 0.635335 0.057776
N2_14 N 0.2825(2) 0.72362(9) 0.02970(8)
C20_14 C 0.3347(3) 0.71565(12) 0.06207(12)
H13_14 H 0.300148 0.715123 0.084350
H14_14 H 0.375079 0.739130 0.064683
C21_14 C 0.2227(3) 0.75865(15) 0.03625(12)
H15_13 H 0.252611 0.785398 0.041982
H16_14 H 0.187917 0.751353 0.057584
H18_13 H 0.363969 0.760525 0.002169
C44_14 C 0.1682(3) 0.76573(14) 0.00271(12)
H35_14 H 0.129182 0.789291 0.007729
C22_14 C 0.3318(3) 0.73427(14) 0.99729(12)
H17_14 H 0.370818 0.710709 0.992271
N3_14 N 0.04167(15) 0.90798(7) 0.95331(6)
C38_14 C 0.1245(2) 0.90467(10) 0.94991(10)
H28_14 H 0.156709 0.929935 0.951393
C39_14 C 0.1194(3) 0.82764(10) 0.94179(10)
C40_14 C 0.0355(3) 0.83114(12) 0.94486(13)
H29_14 H 0.002113 0.806334 0.943000
C41_14 C 0.1643(2) 0.86547(11) 0.94432(11)
H30_14 H 0.222389 0.864665 0.942224
N4_14 N 0.2175(2) 0.77638(9) 0.97030(8)
C42_14 C 0.1653(3) 0.78435(12) 0.93793(12)
H31_14 H 0.199852 0.784877 0.915650
H32_14 H 0.124921 0.760870 0.935317
C43_14 C 0.2773(3) 0.74135(15) 0.96375(12)
H33_13 H 0.247389 0.714602 0.958018
H34_14 H 0.312083 0.748647 0.942416
H36_13 H 0.136031 0.739475 0.997831
C37_14 C 0.9990(2) 0.87141(12) 0.95074(12)
H27_14 H 0.940980 0.872730 0.953014
C21_15 C 0.0273(3) 0.75865(15) 0.21375(12)
H16_15 H 0.062083 0.751353 0.192416
N3_15 N 0.20833(15) 0.90798(7) 0.29669(6)
C37_15 C 0.2510(2) 0.87141(12) 0.29926(12)
H27_15 H 0.309020 0.872730 0.296986
C38_15 C 0.1255(2) 0.90467(10) 0.30009(10)
H28_15 H 0.093291 0.929935 0.298607
C39_15 C 0.1306(3) 0.82764(10) 0.30821(10)
C40_15 C 0.2145(3) 0.83114(12) 0.30514(13)
H29_15 H 0.247887 0.806334 0.307000
C41_15 C 0.0857(2) 0.86547(11) 0.30568(11)
H30_15 H 0.027611 0.864665 0.307776
N4_15 N 0.0325(2) 0.77638(9) 0.27970(8)
C42_15 C 0.0847(3) 0.78435(12) 0.31207(12)
H31_15 H 0.050148 0.784877 0.334350
H32_15 H 0.125079 0.760870 0.314683
H33_14 H 0.002611 0.714602 0.291982
C44_15 C 0.0818(3) 0.76573(14) 0.24729(12)
H35_15 H 0.120818 0.789291 0.242271
H36_14 H 0.113969 0.739475 0.252169
C15_15 C 0.7490(2) 0.62859(12) 0.20074(12)
H9_15 H 0.690980 0.627270 0.203014
C16_15 C 0.8745(2) 0.59533(10) 0.19991(10)
H10_15 H 0.906709 0.570065 0.201393
C17_15 C 0.8694(3) 0.67236(10) 0.19179(10)
C18_15 C 0.7855(3) 0.66886(12) 0.19486(13)
H11_15 H 0.752113 0.693666 0.193000
C19_15 C 0.9143(2) 0.63453(11) 0.19432(11)
H12_15 H 0.972389 0.635335 0.192224
N2_15 N 0.9675(2) 0.72362(9) 0.22030(8)
C20_15 C 0.9153(3) 0.71565(12) 0.18793(12)
H13_15 H 0.949852 0.715123 0.165650
H14_15 H 0.874921 0.739130 0.185317
H15_14 H 0.997389 0.785398 0.208018
C22_15 C 0.9182(3) 0.73427(14) 0.25271(12)
H17_15 H 0.879182 0.710709 0.257729
H18_14 H 0.886031 0.760525 0.247831
C43_15 C 0.9727(3) 0.74135(15) 0.28625(12)
H34_15 H 0.937917 0.748647 0.307584
C15_16 C 0.5010(2) 0.62141(12) 0.20074(12)
H9_16 H 0.559020 0.622730 0.203014
C16_16 C 0.3755(2) 0.65467(10) 0.19991(10)
H10_16 H 0.343291 0.679935 0.201393
C17_16 C 0.3806(3) 0.57764(10) 0.19179(10)
C18_16 C 0.4645(3) 0.58114(12) 0.19486(13)
H11_16 H 0.497887 0.556334 0.193000
C19_16 C 0.3357(2) 0.61547(11) 0.19432(11)
H12_16 H 0.277611 0.614665 0.192224
N2_16 N 0.2825(2) 0.52638(9) 0.22030(8)
C20_16 C 0.3347(3) 0.53435(12) 0.18793(12)
H13_16 H 0.300148 0.534877 0.165650
H14_16 H 0.375079 0.510870 0.185317
C21_16 C 0.2227(3) 0.49135(15) 0.21375(12)
H15_15 H 0.252611 0.464602 0.208018
H16_16 H 0.187917 0.498647 0.192416
C22_16 C 0.3318(3) 0.51573(14) 0.25271(12)
H17_16 H 0.370818 0.539291 0.257729
H18_15 H 0.363969 0.489475 0.247831
N3_16 N 0.04167(15) 0.34202(7) 0.29669(6)
C38_16 C 0.1245(2) 0.34533(10) 0.30009(10)
H28_16 H 0.156709 0.320065 0.298607
C39_16 C 0.1194(3) 0.42236(10) 0.30821(10)
C40_16 C 0.0355(3) 0.41886(12) 0.30514(13)
H29_16 H 0.002113 0.443666 0.307000
C41_16 C 0.1643(2) 0.38453(11) 0.30568(11)
H30_16 H 0.222389 0.385335 0.307776
N4_16 N 0.2175(2) 0.47362(9) 0.27970(8)
C42_16 C 0.1653(3) 0.46565(12) 0.31207(12)
H31_16 H 0.199852 0.465123 0.334350
H32_16 H 0.124921 0.489130 0.314683
C43_16 C 0.2773(3) 0.50865(15) 0.28625(12)
H33_15 H 0.247389 0.535398 0.291982
H34_16 H 0.312083 0.501353 0.307584
C44_16 C 0.1682(3) 0.48427(14) 0.24729(12)
H35_16 H 0.129182 0.460709 0.242271
H36_15 H 0.136031 0.510525 0.252169
C37_16 C 0.9990(2) 0.37859(12) 0.29926(12)
H27_16 H 0.940980 0.377270 0.296986
O4_9 O 0.125000 0.86056(9) 0.125000
C3_9 C 0.06723(17) 0.83906(9) 0.10310(8)
C6_9 C 0.03791(18) 0.86215(9) 0.07251(8)
H2_9 H 0.060888 0.889189 0.066586
C13_9 C 0.03339(18) 0.79863(10) 0.11169(8)
H7_9 H 0.052935 0.782989 0.132184
O7_9 O 0.40604(11) 0.80697(6) 0.24158(5)
C23_9 C 0.27950(17) 0.78180(9) 0.16040(8)
H19_9 H 0.301793 0.754521 0.154745
C24_9 C 0.18277(17) 0.83906(9) 0.14690(8)
C25_9 C 0.31029(16) 0.80467(8) 0.19091(7)
C26_9 C 0.38229(16) 0.78700(8) 0.21253(7)
C27_9 C 0.21209(18) 0.86215(9) 0.17749(8)
H20_9 H 0.189112 0.889189 0.183414
C28_9 C 0.27532(17) 0.84496(9) 0.19907(8)
H21_9 H 0.294935 0.860670 0.219513
C29_9 C 0.21661(18) 0.79863(10) 0.13831(8)
H22_9 H 0.197065 0.782989 0.117816
O11_5 O 0.39887(12) 0.76479(6) 0.31505(6)
C1_9 C 0.06683(18) 0.65067(9) 0.90553(8)
O5_9 O 0.125000 0.625000 0.88715(8)
C11_9 C 0.03296(19) 0.64026(10) 0.93997(8)
H5_9 H 0.052421 0.616205 0.953256
C12_9 C 0.03856(17) 0.68649(9) 0.88604(8)
H6_9 H 0.061923 0.693324 0.862971
O9_5 O 0.39887(12) 0.48521(6) 0.93495(6)
C30_9 C 0.18317(18) 0.59933(9) 0.90553(8)
C31_9 C 0.30918(16) 0.54749(9) 0.93527(8)
C32_9 C 0.27430(17) 0.53768(9) 0.90058(8)
H23_9 H 0.293483 0.513649 0.887197
C33_9 C 0.37948(17) 0.52127(9) 0.95054(8)
C34_9 C 0.21704(19) 0.60974(10) 0.93997(8)
H24_9 H 0.197579 0.633795 0.953256
C35_9 C 0.21144(17) 0.56351(9) 0.88604(8)
H25_9 H 0.188077 0.556676 0.862971
C36_9 C 0.28007(19) 0.58391(10) 0.95428(8)
H26_9 H 0.303628 0.591084 0.977235
O1_9 O 0.84396(11) 0.80697(6) 0.00842(5)
C2_9 C 0.97050(17) 0.78180(9) 0.08960(8)
H1_9 H 0.948207 0.754521 0.095255
C4_9 C 0.93971(16) 0.80467(8) 0.05909(7)
C5_9 C 0.86771(16) 0.78700(8) 0.03747(7)
C10_9 C 0.97468(17) 0.84496(9) 0.05093(8)
H4_9 H 0.955065 0.860670 0.030487
O2_9 O 0.85113(12) 0.76479(6) 0.93495(6)
C7_9 C 0.94082(16) 0.70251(9) 0.93527(8)
C8_9 C 0.97570(17) 0.71232(9) 0.90058(8)
H3_9 H 0.956517 0.736351 0.887197
C9_9 C 0.87052(17) 0.72873(9) 0.95054(8)
C14_9 C 0.96993(19) 0.66609(10) 0.95428(8)
H8_9 H 0.946372 0.658916 0.977235
C1_10 C 0.68317(18) 0.09933(9) 0.90553(8)
O5_10 O 0.625000 0.125000 0.88715(8)
C7_10 C 0.80918(16) 0.04749(9) 0.93527(8)
C8_10 C 0.77430(17) 0.03768(9) 0.90058(8)
H3_10 H 0.793483 0.013649 0.887197
C9_10 C 0.87948(17) 0.02127(9) 0.95054(8)
C11_10 C 0.71704(19) 0.10974(10) 0.93997(8)
H5_10 H 0.697579 0.133795 0.953256
C12_10 C 0.71144(17) 0.06351(9) 0.88604(8)
H6_10 H 0.688077 0.056676 0.862971
C14_10 C 0.78007(19) 0.08391(10) 0.95428(8)
H8_10 H 0.803628 0.091084 0.977235
O9_6 O 0.35113(12) 0.26479(6) 0.93495(6)
C30_10 C 0.56683(18) 0.15067(9) 0.90553(8)
C31_10 C 0.44082(16) 0.20251(9) 0.93527(8)
C32_10 C 0.47570(17) 0.21232(9) 0.90058(8)
H23_10 H 0.456517 0.236351 0.887197
C33_10 C 0.37052(17) 0.22873(9) 0.95054(8)
C34_10 C 0.53296(19) 0.14026(10) 0.93997(8)
H24_10 H 0.552421 0.116205 0.953256
C35_10 C 0.53856(17) 0.18649(9) 0.88604(8)
H25_10 H 0.561923 0.193324 0.862971
C36_10 C 0.46993(19) 0.16609(10) 0.95428(8)
H26_10 H 0.446372 0.158916 0.977235
O1_10 O 0.90604(11) 0.94303(6) 0.00842(5)
O4_10 O 0.625000 0.88944(9) 0.125000
C2_10 C 0.77950(17) 0.96820(9) 0.08960(8)
H1_10 H 0.801793 0.995479 0.095255
C3_10 C 0.68277(17) 0.91094(9) 0.10310(8)
C4_10 C 0.81029(16) 0.94533(8) 0.05909(7)
C5_10 C 0.88229(16) 0.96300(8) 0.03747(7)
C6_10 C 0.71209(18) 0.88785(9) 0.07251(8)
H2_10 H 0.689112 0.860811 0.066586
C10_10 C 0.77532(17) 0.90504(9) 0.05093(8)
H4_10 H 0.794935 0.889330 0.030487
C13_10 C 0.71661(18) 0.95137(10) 0.11169(8)
H7_10 H 0.697065 0.967011 0.132184
O7_10 O 0.34396(11) 0.94303(6) 0.24158(5)
C23_10 C 0.47050(17) 0.96820(9) 0.16040(8)
H19_10 H 0.448207 0.995479 0.154745
C24_10 C 0.56723(17) 0.91094(9) 0.14690(8)
C25_10 C 0.43971(16) 0.94533(8) 0.19091(7)
C26_10 C 0.36771(16) 0.96300(8) 0.21253(7)
C27_10 C 0.53791(18) 0.88785(9) 0.17749(8)
H20_10 H 0.560888 0.860811 0.183414
C28_10 C 0.47468(17) 0.90504(9) 0.19907(8)
H21_10 H 0.455065 0.889330 0.219513
C29_10 C 0.53339(18) 0.95137(10) 0.13831(8)
H22_10 H 0.552935 0.967011 0.117816
O11_6 O 0.35113(12) 0.98521(6) 0.31505(6)
O2_10 O 0.89887(12) 0.98521(6) 0.93495(6)
C1_11 C 0.06683(18) 0.09933(9) 0.84447(8)
O5_11 O 0.125000 0.125000 0.86285(8)
C11_11 C 0.03296(19) 0.10974(10) 0.81003(8)
H5_11 H 0.052421 0.133795 0.796744
C12_11 C 0.03856(17) 0.06351(9) 0.86396(8)
H6_11 H 0.061923 0.056676 0.887029
O9_7 O 0.39887(12) 0.26479(6) 0.81505(6)
C30_11 C 0.18317(18) 0.15067(9) 0.84447(8)
C31_11 C 0.30918(16) 0.20251(9) 0.81473(8)
C32_11 C 0.27430(17) 0.21232(9) 0.84942(8)
H23_11 H 0.293483 0.236351 0.862803
C33_11 C 0.37948(17) 0.22873(9) 0.79946(8)
C34_11 C 0.21704(19) 0.14026(10) 0.81003(8)
H24_11 H 0.197579 0.116205 0.796744
C35_11 C 0.21144(17) 0.18649(9) 0.86396(8)
H25_11 H 0.188077 0.193324 0.887029
C36_11 C 0.28007(19) 0.16609(10) 0.79572(8)
H26_11 H 0.303628 0.158916 0.772765
O4_11 O 0.125000 0.88944(9) 0.625000
C3_11 C 0.06723(17) 0.91094(9) 0.64690(8)
C6_11 C 0.03791(18) 0.88785(9) 0.67749(8)
H2_11 H 0.060888 0.860811 0.683414
C13_11 C 0.03339(18) 0.95137(10) 0.63831(8)
H7_11 H 0.052935 0.967011 0.617816
O7_11 O 0.40604(11) 0.94303(6) 0.50842(5)
C23_11 C 0.27950(17) 0.96820(9) 0.58960(8)
H19_11 H 0.301793 0.995479 0.595255
C24_11 C 0.18277(17) 0.91094(9) 0.60310(8)
C25_11 C 0.31029(16) 0.94533(8) 0.55909(7)
C26_11 C 0.38229(16) 0.96300(8) 0.53747(7)
C27_11 C 0.21209(18) 0.88785(9) 0.57251(8)
H20_11 H 0.189112 0.860811 0.566586
C28_11 C 0.27532(17) 0.90504(9) 0.55093(8)
H21_11 H 0.294935 0.889330 0.530487
C29_11 C 0.21661(18) 0.95137(10) 0.61169(8)
H22_11 H 0.197065 0.967011 0.632184
O11_7 O 0.39887(12) 0.98521(6) 0.43495(6)
C7_11 C 0.94082(16) 0.04749(9) 0.81473(8)
C8_11 C 0.97570(17) 0.03768(9) 0.84942(8)
H3_11 H 0.956517 0.013649 0.862803
C9_11 C 0.87052(17) 0.02127(9) 0.79946(8)
C14_11 C 0.96993(19) 0.08391(10) 0.79572(8)
H8_11 H 0.946372 0.091084 0.772765
O1_11 O 0.84396(11) 0.94303(6) 0.74158(5)
O2_11 O 0.85113(12) 0.98521(6) 0.81505(6)
C2_11 C 0.97050(17) 0.96820(9) 0.66040(8)
H1_11 H 0.948207 0.995479 0.654745
C4_11 C 0.93971(16) 0.94533(8) 0.69091(7)
C5_11 C 0.86771(16) 0.96300(8) 0.71253(7)
C10_11 C 0.97468(17) 0.90504(9) 0.69907(8)
H4_11 H 0.955065 0.889330 0.719513
O1_12 O 0.90604(11) 0.80697(6) 0.74158(5)
O2_12 O 0.89887(12) 0.76479(6) 0.81505(6)
O4_12 O 0.625000 0.86056(9) 0.625000
C1_12 C 0.68317(18) 0.65067(9) 0.84447(8)
O5_12 O 0.625000 0.625000 0.86285(8)
C2_12 C 0.77950(17) 0.78180(9) 0.66040(8)
H1_12 H 0.801793 0.754521 0.654745
C3_12 C 0.68277(17) 0.83906(9) 0.64690(8)
C4_12 C 0.81029(16) 0.80467(8) 0.69091(7)
C5_12 C 0.88229(16) 0.78700(8) 0.71253(7)
C6_12 C 0.71209(18) 0.86215(9) 0.67749(8)
H2_12 H 0.689112 0.889189 0.683414
C7_12 C 0.80918(16) 0.70251(9) 0.81473(8)
C8_12 C 0.77430(17) 0.71232(9) 0.84942(8)
H3_12 H 0.793483 0.736351 0.862803
C9_12 C 0.87948(17) 0.72873(9) 0.79946(8)
C10_12 C 0.77532(17) 0.84496(9) 0.69907(8)
H4_12 H 0.794935 0.860670 0.719513
C11_12 C 0.71704(19) 0.64026(10) 0.81003(8)
H5_12 H 0.697579 0.616205 0.796744
C12_12 C 0.71144(17) 0.68649(9) 0.86396(8)
H6_12 H 0.688077 0.693324 0.887029
C13_12 C 0.71661(18) 0.79863(10) 0.63831(8)
H7_12 H 0.697065 0.782989 0.617816
C14_12 C 0.78007(19) 0.66609(10) 0.79572(8)
H8_12 H 0.803628 0.658916 0.772765
O7_12 O 0.34396(11) 0.80697(6) 0.50842(5)
C23_12 C 0.47050(17) 0.78180(9) 0.58960(8)
H19_12 H 0.448207 0.754521 0.595255
C24_12 C 0.56723(17) 0.83906(9) 0.60310(8)
C25_12 C 0.43971(16) 0.80467(8) 0.55909(7)
C26_12 C 0.36771(16) 0.78700(8) 0.53747(7)
C27_12 C 0.53791(18) 0.86215(9) 0.57251(8)
H20_12 H 0.560888 0.889189 0.566586
C28_12 C 0.47468(17) 0.84496(9) 0.55093(8)
H21_12 H 0.455065 0.860670 0.530487
C29_12 C 0.53339(18) 0.79863(10) 0.61169(8)
H22_12 H 0.552935 0.782989 0.632184
O9_8 O 0.35113(12) 0.48521(6) 0.81505(6)
C30_12 C 0.56683(18) 0.59933(9) 0.84447(8)
C31_12 C 0.44082(16) 0.54749(9) 0.81473(8)
C32_12 C 0.47570(17) 0.53768(9) 0.84942(8)
H23_12 H 0.456517 0.513649 0.862803
C33_12 C 0.37052(17) 0.52127(9) 0.79946(8)
C34_12 C 0.53296(19) 0.60974(10) 0.81003(8)
H24_12 H 0.552421 0.633795 0.796744
C35_12 C 0.53856(17) 0.56351(9) 0.86396(8)
H25_12 H 0.561923 0.556676 0.887029
C36_12 C 0.46993(19) 0.58391(10) 0.79572(8)
H26_12 H 0.446372 0.591084 0.772765
O11_8 O 0.35113(12) 0.76479(6) 0.43495(6)
O4_13 O 0.125000 0.36056(9) 0.625000
C1_13 C 0.06683(18) 0.15067(9) 0.40553(8)
O5_13 O 0.125000 0.125000 0.38715(8)
C3_13 C 0.06723(17) 0.33906(9) 0.60310(8)
C6_13 C 0.03791(18) 0.36215(9) 0.57251(8)
H2_13 H 0.060888 0.389189 0.566586
C11_13 C 0.03296(19) 0.14026(10) 0.43997(8)
H5_13 H 0.052421 0.116205 0.453256
C12_13 C 0.03856(17) 0.18649(9) 0.38604(8)
H6_13 H 0.061923 0.193324 0.362971
C13_13 C 0.03339(18) 0.29863(10) 0.61169(8)
H7_13 H 0.052935 0.282989 0.632184
O7_13 O 0.40604(11) 0.30697(6) 0.74158(5)
C23_13 C 0.27950(17) 0.28180(9) 0.66040(8)
H19_13 H 0.301793 0.254521 0.654745
C24_13 C 0.18277(17) 0.33906(9) 0.64690(8)
C25_13 C 0.31029(16) 0.30467(8) 0.69091(7)
C26_13 C 0.38229(16) 0.28700(8) 0.71253(7)
C27_13 C 0.21209(18) 0.36215(9) 0.67749(8)
H20_13 H 0.189112 0.389189 0.683414
C28_13 C 0.27532(17) 0.34496(9) 0.69907(8)
H21_13 H 0.294935 0.360670 0.719513
C29_13 C 0.21661(18) 0.29863(10) 0.63831(8)
H22_13 H 0.197065 0.282989 0.617816
C30_13 C 0.18317(18) 0.09933(9) 0.40553(8)
C31_13 C 0.30918(16) 0.04749(9) 0.43527(8)
C32_13 C 0.27430(17) 0.03768(9) 0.40058(8)
H23_13 H 0.293483 0.013649 0.387197
C33_13 C 0.37948(17) 0.02127(9) 0.45054(8)
C34_13 C 0.21704(19) 0.10974(10) 0.43997(8)
H24_13 H 0.197579 0.133795 0.453256
C35_13 C 0.21144(17) 0.06351(9) 0.38604(8)
H25_13 H 0.188077 0.056676 0.362971
C36_13 C 0.28007(19) 0.08391(10) 0.45428(8)
H26_13 H 0.303628 0.091084 0.477235
O1_13 O 0.84396(11) 0.30697(6) 0.50842(5)
O2_13 O 0.85113(12) 0.26479(6) 0.43495(6)
C2_13 C 0.97050(17) 0.28180(9) 0.58960(8)
H1_13 H 0.948207 0.254521 0.595255
C4_13 C 0.93971(16) 0.30467(8) 0.55909(7)
C5_13 C 0.86771(16) 0.28700(8) 0.53747(7)
C7_13 C 0.94082(16) 0.20251(9) 0.43527(8)
C8_13 C 0.97570(17) 0.21232(9) 0.40058(8)
H3_13 H 0.956517 0.236351 0.387197
C9_13 C 0.87052(17) 0.22873(9) 0.45054(8)
C10_13 C 0.97468(17) 0.34496(9) 0.55093(8)
H4_13 H 0.955065 0.360670 0.530487
C14_13 C 0.96993(19) 0.16609(10) 0.45428(8)
H8_13 H 0.946372 0.158916 0.477235
O1_14 O 0.90604(11) 0.44303(6) 0.50842(5)
O2_14 O 0.89887(12) 0.48521(6) 0.43495(6)
O4_14 O 0.625000 0.38944(9) 0.625000
C1_14 C 0.68317(18) 0.59933(9) 0.40553(8)
O5_14 O 0.625000 0.625000 0.38715(8)
C2_14 C 0.77950(17) 0.46820(9) 0.58960(8)
H1_14 H 0.801793 0.495479 0.595255
C3_14 C 0.68277(17) 0.41094(9) 0.60310(8)
C4_14 C 0.81029(16) 0.44533(8) 0.55909(7)
C5_14 C 0.88229(16) 0.46300(8) 0.53747(7)
C6_14 C 0.71209(18) 0.38785(9) 0.57251(8)
H2_14 H 0.689112 0.360811 0.566586
C7_14 C 0.80918(16) 0.54749(9) 0.43527(8)
C8_14 C 0.77430(17) 0.53768(9) 0.40058(8)
H3_14 H 0.793483 0.513649 0.387197
C9_14 C 0.87948(17) 0.52127(9) 0.45054(8)
C10_14 C 0.77532(17) 0.40504(9) 0.55093(8)
H4_14 H 0.794935 0.389330 0.530487
C11_14 C 0.71704(19) 0.60974(10) 0.43997(8)
H5_14 H 0.697579 0.633795 0.453256
C12_14 C 0.71144(17) 0.56351(9) 0.38604(8)
H6_14 H 0.688077 0.556676 0.362971
C13_14 C 0.71661(18) 0.45137(10) 0.61169(8)
H7_14 H 0.697065 0.467011 0.632184
C14_14 C 0.78007(19) 0.58391(10) 0.45428(8)
H8_14 H 0.803628 0.591084 0.477235
O7_14 O 0.34396(11) 0.44303(6) 0.74158(5)
C23_14 C 0.47050(17) 0.46820(9) 0.66040(8)
H19_14 H 0.448207 0.495479 0.654745
C24_14 C 0.56723(17) 0.41094(9) 0.64690(8)
C25_14 C 0.43971(16) 0.44533(8) 0.69091(7)
C26_14 C 0.36771(16) 0.46300(8) 0.71253(7)
C27_14 C 0.53791(18) 0.38785(9) 0.67749(8)
H20_14 H 0.560888 0.360811 0.683414
C28_14 C 0.47468(17) 0.40504(9) 0.69907(8)
H21_14 H 0.455065 0.389330 0.719513
C29_14 C 0.53339(18) 0.45137(10) 0.63831(8)
H22_14 H 0.552935 0.467011 0.617816
C30_14 C 0.56683(18) 0.65067(9) 0.40553(8)
C31_14 C 0.44082(16) 0.70251(9) 0.43527(8)
C32_14 C 0.47570(17) 0.71232(9) 0.40058(8)
H23_14 H 0.456517 0.736351 0.387197
C33_14 C 0.37052(17) 0.72873(9) 0.45054(8)
C34_14 C 0.53296(19) 0.64026(10) 0.43997(8)
H24_14 H 0.552421 0.616205 0.453256
C35_14 C 0.53856(17) 0.68649(9) 0.38604(8)
H25_14 H 0.561923 0.693324 0.362971
C36_14 C 0.46993(19) 0.66609(10) 0.45428(8)
H26_14 H 0.446372 0.658916 0.477235
O4_15 O 0.125000 0.38944(9) 0.125000
C1_15 C 0.06683(18) 0.59933(9) 0.34447(8)
O5_15 O 0.125000 0.625000 0.36285(8)
C3_15 C 0.06723(17) 0.41094(9) 0.14690(8)
C6_15 C 0.03791(18) 0.38785(9) 0.17749(8)
H2_15 H 0.060888 0.360811 0.183414
C11_15 C 0.03296(19) 0.60974(10) 0.31003(8)
H5_15 H 0.052421 0.633795 0.296744
C12_15 C 0.03856(17) 0.56351(9) 0.36396(8)
H6_15 H 0.061923 0.556676 0.387029
C13_15 C 0.03339(18) 0.45137(10) 0.13831(8)
H7_15 H 0.052935 0.467011 0.117816
O7_15 O 0.40604(11) 0.44303(6) 0.00842(5)
C23_15 C 0.27950(17) 0.46820(9) 0.08960(8)
H19_15 H 0.301793 0.495479 0.095255
C24_15 C 0.18277(17) 0.41094(9) 0.10310(8)
C25_15 C 0.31029(16) 0.44533(8) 0.05909(7)
C26_15 C 0.38229(16) 0.46300(8) 0.03747(7)
C27_15 C 0.21209(18) 0.38785(9) 0.07251(8)
H20_15 H 0.189112 0.360811 0.066586
C28_15 C 0.27532(17) 0.40504(9) 0.05093(8)
H21_15 H 0.294935 0.389330 0.030487
C29_15 C 0.21661(18) 0.45137(10) 0.11169(8)
H22_15 H 0.197065 0.467011 0.132184
C30_15 C 0.18317(18) 0.65067(9) 0.34447(8)
C31_15 C 0.30918(16) 0.70251(9) 0.31473(8)
C32_15 C 0.27430(17) 0.71232(9) 0.34942(8)
H23_15 H 0.293483 0.736351 0.362803
C33_15 C 0.37948(17) 0.72873(9) 0.29946(8)
C34_15 C 0.21704(19) 0.64026(10) 0.31003(8)
H24_15 H 0.197579 0.616205 0.296744
C35_15 C 0.21144(17) 0.68649(9) 0.36396(8)
H25_15 H 0.188077 0.693324 0.387029
C36_15 C 0.28007(19) 0.66609(10) 0.29572(8)
H26_15 H 0.303628 0.658916 0.272765
O1_15 O 0.84396(11) 0.44303(6) 0.24158(5)
O2_15 O 0.85113(12) 0.48521(6) 0.31505(6)
C2_15 C 0.97050(17) 0.46820(9) 0.16040(8)
H1_15 H 0.948207 0.495479 0.154745
C4_15 C 0.93971(16) 0.44533(8) 0.19091(7)
C5_15 C 0.86771(16) 0.46300(8) 0.21253(7)
C7_15 C 0.94082(16) 0.54749(9) 0.31473(8)
C8_15 C 0.97570(17) 0.53768(9) 0.34942(8)
H3_15 H 0.956517 0.513649 0.362803
C9_15 C 0.87052(17) 0.52127(9) 0.29946(8)
C10_15 C 0.97468(17) 0.40504(9) 0.19907(8)
H4_15 H 0.955065 0.389330 0.219513
C14_15 C 0.96993(19) 0.58391(10) 0.29572(8)
H8_15 H 0.946372 0.591084 0.272765
O1_16 O 0.90604(11) 0.30697(6) 0.24158(5)
O2_16 O 0.89887(12) 0.26479(6) 0.31505(6)
O4_16 O 0.625000 0.36056(9) 0.125000
C1_16 C 0.68317(18) 0.15067(9) 0.34447(8)
O5_16 O 0.625000 0.125000 0.36285(8)
C2_16 C 0.77950(17) 0.28180(9) 0.16040(8)
H1_16 H 0.801793 0.254521 0.154745
C3_16 C 0.68277(17) 0.33906(9) 0.14690(8)
C4_16 C 0.81029(16) 0.30467(8) 0.19091(7)
C5_16 C 0.88229(16) 0.28700(8) 0.21253(7)
C6_16 C 0.71209(18) 0.36215(9) 0.17749(8)
H2_16 H 0.689112 0.389189 0.183414
C7_16 C 0.80918(16) 0.20251(9) 0.31473(8)
C8_16 C 0.77430(17) 0.21232(9) 0.34942(8)
H3_16 H 0.793483 0.236351 0.362803
C9_16 C 0.87948(17) 0.22873(9) 0.29946(8)
C10_16 C 0.77532(17) 0.34496(9) 0.19907(8)
H4_16 H 0.794935 0.360670 0.219513
C11_16 C 0.71704(19) 0.14026(10) 0.31003(8)
H5_16 H 0.697579 0.116205 0.296744
C12_16 C 0.71144(17) 0.18649(9) 0.36396(8)
H6_16 H 0.688077 0.193324 0.387029
C13_16 C 0.71661(18) 0.29863(10) 0.13831(8)
H7_16 H 0.697065 0.282989 0.117816
C14_16 C 0.78007(19) 0.16609(10) 0.29572(8)
H8_16 H 0.803628 0.158916 0.272765
O7_16 O 0.34396(11) 0.30697(6) 0.00842(5)
C23_16 C 0.47050(17) 0.28180(9) 0.08960(8)
H19_16 H 0.448207 0.254521 0.095255
C24_16 C 0.56723(17) 0.33906(9) 0.10310(8)
C25_16 C 0.43971(16) 0.30467(8) 0.05909(7)
C26_16 C 0.36771(16) 0.28700(8) 0.03747(7)
C27_16 C 0.53791(18) 0.36215(9) 0.07251(8)
H20_16 H 0.560888 0.389189 0.066586
C28_16 C 0.47468(17) 0.34496(9) 0.05093(8)
H21_16 H 0.455065 0.360670 0.030487
C29_16 C 0.53339(18) 0.29863(10) 0.11169(8)
H22_16 H 0.552935 0.282989 0.132184
C30_16 C 0.56683(18) 0.09933(9) 0.34447(8)
C31_16 C 0.44082(16) 0.04749(9) 0.31473(8)
C32_16 C 0.47570(17) 0.03768(9) 0.34942(8)
H23_16 H 0.456517 0.013649 0.362803
C33_16 C 0.37052(17) 0.02127(9) 0.29946(8)
C34_16 C 0.53296(19) 0.10974(10) 0.31003(8)
H24_16 H 0.552421 0.133795 0.296744
C35_16 C 0.53856(17) 0.06351(9) 0.36396(8)
H25_16 H 0.561923 0.056676 0.387029
C36_16 C 0.46993(19) 0.08391(10) 0.29572(8)
H26_16 H 0.446372 0.091084 0.272765
H33_16 H 0.002611 0.035398 0.458018
H36_16 H 0.113969 0.010525 0.497831
H15_16 H 0.997389 0.964602 0.541982
H18_16 H 0.886031 0.989475 0.502169
loop_
_geom_bond_atom_site_label_1
_geom_bond_atom_site_label_2
_geom_bond_site_symmetry_1
_geom_bond_site_symmetry_2
O2 Co1 1_555 1_555
O3 Co1 1_555 1_555
C7 C8 1_555 1_555
C8 H3 1_555 1_555
C9 O2 1_555 1_555
C14 C7 1_555 1_555
H8 C14 1_555 1_555
N1 Co1 1_555 1_555
C15 N1 1_555 1_555
H9 C15 1_555 1_555
C16 N1 1_555 1_555
H10 C16 1_555 1_555
C17 C18 1_555 1_555
C18 C15 1_555 1_555
H11 C18 1_555 1_555
C19 C16 1_555 1_555
H12 C19 1_555 1_555
N2 C20 1_555 1_555
C20 C17 1_555 1_555
H13 C20 1_555 1_555
H14 C20 1_555 1_555
O15 Co1 1_555 1_555
O3 C9 1_555 1_555
C7 C9 1_555 1_555
C17 C19 1_555 1_555
O1 C5 1_555 1_555
C2 H1 1_555 1_555
C4 C2 1_555 1_555
C5 C4 1_555 1_555
C10 C4 1_555 1_555
H4 C10 1_555 1_555
O6 C5 1_555 1_555
H17 C22 1_555 1_555
C43 C22 1_555 1_555
H33 C43 1_555 1_555
H34 C43 1_555 1_555
O6 Co5 1_555 1_555
Co5 O13 1_555 1_555
H15 C21 1_555 1_555
H16 C21 1_555 1_555
C44 C21 1_555 1_555
H35 C44 1_555 1_555
N3 C37 1_555 1_555
C37 H27 1_555 1_555
C38 N3 1_555 1_555
H28 C38 1_555 1_555
C39 C40 1_555 1_555
C40 C37 1_555 1_555
H29 C40 1_555 1_555
C41 C38 1_555 1_555
H30 C41 1_555 1_555
N4 C42 1_555 1_555
C42 C39 1_555 1_555
H31 C42 1_555 1_555
H32 C42 1_555 1_555
Co4 N3 1_555 1_555
C39 C41 1_555 1_555
C1 O5 1_555 1_555
O5 C30 1_555 1_555
C11 C1 1_555 1_555
H5 C11 1_555 1_555
C12 C1 1_555 1_555
H6 C12 1_555 1_555
O9 C33 1_555 1_555
O10 C33 1_555 1_555
C30 C34 1_555 1_555
C31 C32 1_555 1_555
C32 H23 1_555 1_555
C33 C31 1_555 1_555
C34 H24 1_555 1_555
C35 C30 1_555 1_555
H25 C35 1_555 1_555
C36 C31 1_555 1_555
H26 C36 1_555 1_555
Co3 O9 1_555 1_555
O10 Co3 1_555 1_555
C32 C35 1_555 1_555
C34 C36 1_555 1_555
O4 C3 1_555 1_555
C3 C6 1_555 1_555
C6 H2 1_555 1_555
H7 C13 1_555 1_555
O7 C26 1_555 1_555
C23 H19 1_555 1_555
C24 O4 1_555 1_555
C25 C23 1_555 1_555
C26 C25 1_555 1_555
C27 C24 1_555 1_555
H20 C27 1_555 1_555
C28 C25 1_555 1_555
H21 C28 1_555 1_555
C29 C23 1_555 1_555
H22 C29 1_555 1_555
O8 C26 1_555 1_555
Co2 O7 1_555 1_555
Co7 O8 1_555 1_555
O11 Co2 1_555 1_555
O12 Co2 1_555 1_555
O14 Co2 1_555 1_555
O16 Co2 1_555 1_555
N5 Co2 1_555 1_555
C3 C13 1_555 1_555
C24 C29 1_555 1_555
C27 C28 1_555 1_555
Co7 O12 1_555 1_555
Co7 O14 1_555 1_555
O2_2 Co1_2 1_555 1_555
H9_2 C15_2 1_555 1_555
O1_2 C5_2 1_555 1_555
O4_2 C3_2 1_555 1_555
C2_2 H1_2 1_555 1_555
C3_2 C6_2 1_555 1_555
C4_2 C2_2 1_555 1_555
C5_2 C4_2 1_555 1_555
C6_2 H2_2 1_555 1_555
C10_2 C4_2 1_555 1_555
H4_2 C10_2 1_555 1_555
C13_2 C2_2 1_555 1_555
H7_2 C13_2 1_555 1_555
O6_2 C5_2 1_555 1_555
O7_2 C26_2 1_555 1_555
C23_2 H19_2 1_555 1_555
C24_2 O4_2 1_555 1_555
C25_2 C23_2 1_555 1_555
C26_2 C25_2 1_555 1_555
C27_2 C24_2 1_555 1_555
H20_2 C27_2 1_555 1_555
C28_2 C25_2 1_555 1_555
H21_2 C28_2 1_555 1_555
C29_2 C23_2 1_555 1_555
H22_2 C29_2 1_555 1_555
O8_2 C26_2 1_555 1_555
Co2_2 O7_2 1_555 1_555
O11_2 Co2_2 1_555 1_555
O14_2 Co2_2 1_555 1_555
N5_2 Co2_2 1_555 1_555
C3_2 C13_2 1_555 1_555
C6_2 C10_2 1_555 1_555
C24_2 C29_2 1_555 1_555
C27_2 C28_2 1_555 1_555
C1_2 O5_2 1_555 1_555
O5_2 C30_2 1_555 1_555
C7_2 C8_2 1_555 1_555
C8_2 H3_2 1_555 1_555
C11_2 C1_2 1_555 1_555
H5_2 C11_2 1_555 1_555
C12_2 C1_2 1_555 1_555
H6_2 C12_2 1_555 1_555
C14_2 C7_2 1_555 1_555
H8_2 C14_2 1_555 1_555
O9_2 C33_2 1_555 1_555
O10_2 C33_2 1_555 1_555
C30_2 C34_2 1_555 1_555
C31_2 C32_2 1_555 1_555
C32_2 H23_2 1_555 1_555
C33_2 C31_2 1_555 1_555
C34_2 H24_2 1_555 1_555
C35_2 C30_2 1_555 1_555
H25_2 C35_2 1_555 1_555
C36_2 C31_2 1_555 1_555
H26_2 C36_2 1_555 1_555
Co3_2 O9_2 1_555 1_555
O3_2 C9_2 1_555 1_555
C7_2 C9_2 1_555 1_555
C8_2 C12_2 1_555 1_555
C11_2 C14_2 1_555 1_555
O10_2 Co3_2 1_555 1_555
C32_2 C35_2 1_555 1_555
C34_2 C36_2 1_555 1_555
Co7_2 O12_2 1_555 1_555
C16_2 N1_2 1_555 1_555
H10_2 C16_2 1_555 1_555
C17_2 C18_2 1_555 1_555
H11_2 C18_2 1_555 1_555
C19_2 C16_2 1_555 1_555
H12_2 C19_2 1_555 1_555
N2_2 C20_2 1_555 1_555
C20_2 C17_2 1_555 1_555
H13_2 C20_2 1_555 1_555
H14_2 C20_2 1_555 1_555
C21_2 N2_2 1_555 1_555
H15_2 C21_2 1_555 1_555
H16_2 C21_2 1_555 1_555
C44_2 C21_2 1_555 1_555
H35_2 C44_2 1_555 1_555
C17_2 C19_2 1_555 1_555
H17_2 C22_2 1_555 1_555
N3_2 C37_2 1_555 1_555
C37_2 H27_2 1_555 1_555
C38_2 N3_2 1_555 1_555
H28_2 C38_2 1_555 1_555
C39_2 C40_2 1_555 1_555
C40_2 C37_2 1_555 1_555
H29_2 C40_2 1_555 1_555
C41_2 C38_2 1_555 1_555
H30_2 C41_2 1_555 1_555
N4_2 C42_2 1_555 1_555
C42_2 C39_2 1_555 1_555
H31_2 C42_2 1_555 1_555
H32_2 C42_2 1_555 1_555
C43_2 C22_2 1_555 1_555
H33_2 C43_2 1_555 1_555
H34_2 C43_2 1_555 1_555
Co6 N3_2 1_555 1_555
C39_2 C41_2 1_555 1_555
N4_2 C43_2 1_555 1_555
Co1_3 O1_3 1_555 1_555
O1_3 C5_3 1_555 1_555
O2_3 Co1_3 1_555 1_555
C2_3 H1_3 1_555 1_555
C4_3 C2_3 1_555 1_555
C5_3 C4_3 1_555 1_555
C10_3 C4_3 1_555 1_555
H4_3 C10_3 1_555 1_555
O6_3 C5_3 1_555 1_555
N1_3 Co1_3 1_555 1_555
C15_3 N1_3 1_555 1_555
H9_3 C15_3 1_555 1_555
C16_3 N1_3 1_555 1_555
H10_3 C16_3 1_555 1_555
C17_3 C18_3 1_555 1_555
C18_3 C15_3 1_555 1_555
H11_3 C18_3 1_555 1_555
C19_3 C16_3 1_555 1_555
H12_3 C19_3 1_555 1_555
N2_3 C20_3 1_555 1_555
C20_3 C17_3 1_555 1_555
H13_3 C20_3 1_555 1_555
H14_3 C20_3 1_555 1_555
C21_3 N2_3 1_555 1_555
H15_3 C21_3 1_555 1_555
H16_3 C21_3 1_555 1_555
C22_3 N2_3 1_555 1_555
H17_3 C22_3 1_555 1_555
H18_3 C22_3 1_555 1_555
N3_3 C37_3 1_555 1_555
C37_3 H27_3 1_555 1_555
C38_3 N3_3 1_555 1_555
H28_3 C38_3 1_555 1_555
C39_3 C40_3 1_555 1_555
C40_3 C37_3 1_555 1_555
H29_3 C40_3 1_555 1_555
C41_3 C38_3 1_555 1_555
H30_3 C41_3 1_555 1_555
N4_3 C42_3 1_555 1_555
C42_3 C39_3 1_555 1_555
H31_3 C42_3 1_555 1_555
H32_3 C42_3 1_555 1_555
C43_3 C22_3 1_555 1_555
H33_3 C43_3 1_555 1_555
H34_3 C43_3 1_555 1_555
C44_3 C21_3 1_555 1_555
H35_3 C44_3 1_555 1_555
H36_3 C44_3 1_555 1_555
Co4_2 N3_3 1_555 1_555
O13_3 Co1_3 1_555 1_555
C17_3 C19_3 1_555 1_555
C39_3 C41_3 1_555 1_555
N4_3 C43_3 1_555 1_555
N4_3 C44_3 1_555 1_555
C7_3 C8_3 1_555 1_555
C8_3 H3_3 1_555 1_555
C14_3 C7_3 1_555 1_555
H8_3 C14_3 1_555 1_555
Co5_3 O3_3 1_555 1_555
O3_3 C9_3 1_555 1_555
C7_3 C9_3 1_555 1_555
O4_3 C3_3 1_555 1_555
C3_3 C6_3 1_555 1_555
C6_3 H2_3 1_555 1_555
H7_3 C13_3 1_555 1_555
O7_3 C26_3 1_555 1_555
C23_3 H19_3 1_555 1_555
C24_3 O4_3 1_555 1_555
C25_3 C23_3 1_555 1_555
C26_3 C25_3 1_555 1_555
C27_3 C24_3 1_555 1_555
H20_3 C27_3 1_555 1_555
C28_3 C25_3 1_555 1_555
H21_3 C28_3 1_555 1_555
C29_3 C23_3 1_555 1_555
H22_3 C29_3 1_555 1_555
O8_3 C26_3 1_555 1_555
Co2_3 O7_3 1_555 1_555
O11_3 Co2_3 1_555 1_555
O14_3 Co2_3 1_555 1_555
N5_3 Co2_3 1_555 1_555
C3_3 C13_3 1_555 1_555
C24_3 C29_3 1_555 1_555
C27_3 C28_3 1_555 1_555
C1_3 O5_3 1_555 1_555
O5_3 C30_3 1_555 1_555
C11_3 C1_3 1_555 1_555
H5_3 C11_3 1_555 1_555
C12_3 C1_3 1_555 1_555
H6_3 C12_3 1_555 1_555
O9_3 C33_3 1_555 1_555
O10_3 C33_3 1_555 1_555
C30_3 C34_3 1_555 1_555
C31_3 C32_3 1_555 1_555
C32_3 H23_3 1_555 1_555
C33_3 C31_3 1_555 1_555
C34_3 H24_3 1_555 1_555
C35_3 C30_3 1_555 1_555
H25_3 C35_3 1_555 1_555
C36_3 C31_3 1_555 1_555
H26_3 C36_3 1_555 1_555
Co3_3 O9_3 1_555 1_555
Co6_2 O10_3 1_555 1_555
O10_3 Co3_3 1_555 1_555
C32_3 C35_3 1_555 1_555
C34_3 C36_3 1_555 1_555
Co7_3 O12_3 1_555 1_555
Co1_4 O1_4 1_555 1_555
O1_4 C5_4 1_555 1_555
O2_4 Co1_4 1_555 1_555
O3_4 Co1_4 1_555 1_555
O4_4 C3_4 1_555 1_555
C1_4 O5_4 1_555 1_555
O5_4 C30_4 1_555 1_555
C2_4 H1_4 1_555 1_555
C3_4 C6_4 1_555 1_555
C4_4 C2_4 1_555 1_555
C5_4 C4_4 1_555 1_555
C6_4 H2_4 1_555 1_555
C7_4 C8_4 1_555 1_555
C8_4 H3_4 1_555 1_555
C9_4 O2_4 1_555 1_555
C10_4 C4_4 1_555 1_555
H4_4 C10_4 1_555 1_555
C11_4 C1_4 1_555 1_555
H5_4 C11_4 1_555 1_555
C12_4 C1_4 1_555 1_555
H6_4 C12_4 1_555 1_555
C13_4 C2_4 1_555 1_555
H7_4 C13_4 1_555 1_555
C14_4 C7_4 1_555 1_555
H8_4 C14_4 1_555 1_555
O6_4 C5_4 1_555 1_555
H9_4 C15_4 1_555 1_555
O7_4 C26_4 1_555 1_555
C23_4 H19_4 1_555 1_555
C24_4 O4_4 1_555 1_555
C25_4 C23_4 1_555 1_555
C26_4 C25_4 1_555 1_555
C27_4 C24_4 1_555 1_555
H20_4 C27_4 1_555 1_555
C28_4 C25_4 1_555 1_555
H21_4 C28_4 1_555 1_555
C29_4 C23_4 1_555 1_555
H22_4 C29_4 1_555 1_555
O8_4 C26_4 1_555 1_555
O9_4 C33_4 1_555 1_555
O10_4 C33_4 1_555 1_555
C30_4 C34_4 1_555 1_555
C31_4 C32_4 1_555 1_555
C32_4 H23_4 1_555 1_555
C33_4 C31_4 1_555 1_555
C34_4 H24_4 1_555 1_555
C35_4 C30_4 1_555 1_555
H25_4 C35_4 1_555 1_555
C36_4 C31_4 1_555 1_555
H26_4 C36_4 1_555 1_555
Co2_4 O7_4 1_555 1_555
Co3_4 O9_4 1_555 1_555
Co4_2 O10_4 1_555 1_555
Co7_4 O8_4 1_555 1_555
O11_4 Co2_4 1_555 1_555
O12_4 Co2_4 1_555 1_555
O14_4 Co2_4 1_555 1_555
O16_4 Co2_4 1_555 1_555
N5_4 Co2_4 1_555 1_555
O3_4 C9_4 1_555 1_555
C3_4 C13_4 1_555 1_555
C6_4 C10_4 1_555 1_555
C7_4 C9_4 1_555 1_555
C8_4 C12_4 1_555 1_555
C11_4 C14_4 1_555 1_555
C24_4 C29_4 1_555 1_555
C27_4 C28_4 1_555 1_555
O10_4 Co3_4 1_555 1_555
C32_4 C35_4 1_555 1_555
C34_4 C36_4 1_555 1_555
Co7_4 O12_4 1_555 1_555
Co7_4 O14_4 1_555 1_555
C16_4 N1_4 1_555 1_555
H10_4 C16_4 1_555 1_555
C17_4 C18_4 1_555 1_555
H11_4 C18_4 1_555 1_555
C19_4 C16_4 1_555 1_555
H12_4 C19_4 1_555 1_555
N2_4 C20_4 1_555 1_555
C20_4 C17_4 1_555 1_555
H13_4 C20_4 1_555 1_555
H14_4 C20_4 1_555 1_555
C22_4 N2_4 1_555 1_555
H17_4 C22_4 1_555 1_555
C43_4 C22_4 1_555 1_555
H33_4 C43_4 1_555 1_555
H34_4 C43_4 1_555 1_555
C17_4 C19_4 1_555 1_555
Co5_4 O13_4 1_555 1_555
H15_4 C21_4 1_555 1_555
H16_4 C21_4 1_555 1_555
N3_4 C37_4 1_555 1_555
C37_4 H27_4 1_555 1_555
C38_4 N3_4 1_555 1_555
H28_4 C38_4 1_555 1_555
C39_4 C40_4 1_555 1_555
C40_4 C37_4 1_555 1_555
H29_4 C40_4 1_555 1_555
C41_4 C38_4 1_555 1_555
H30_4 C41_4 1_555 1_555
N4_4 C42_4 1_555 1_555
C42_4 C39_4 1_555 1_555
H31_4 C42_4 1_555 1_555
H32_4 C42_4 1_555 1_555
C44_4 C21_4 1_555 1_555
H35_4 C44_4 1_555 1_555
Co6_2 N3_4 1_555 1_555
C39_4 C41_4 1_555 1_555
N4_4 C44_4 1_555 1_555
Co1_5 O1_5 1_555 1_555
O1_5 C5_5 1_555 1_555
O2_5 Co1_5 1_555 1_555
O3_5 Co1_5 1_555 1_555
C2_5 H1_5 1_555 1_555
C4_5 C2_5 1_555 1_555
C5_5 C4_5 1_555 1_555
C7_5 C8_5 1_555 1_555
C8_5 H3_5 1_555 1_555
C9_5 O2_5 1_555 1_555
C10_5 C4_5 1_555 1_555
H4_5 C10_5 1_555 1_555
C14_5 C7_5 1_555 1_555
H8_5 C14_5 1_555 1_555
O6_5 C5_5 1_555 1_555
N1_5 Co1_5 1_555 1_555
C15_5 N1_5 1_555 1_555
H9_5 C15_5 1_555 1_555
C16_5 N1_5 1_555 1_555
H10_5 C16_5 1_555 1_555
C17_5 C18_5 1_555 1_555
C18_5 C15_5 1_555 1_555
H11_5 C18_5 1_555 1_555
C19_5 C16_5 1_555 1_555
H12_5 C19_5 1_555 1_555
N2_5 C20_5 1_555 1_555
C20_5 C17_5 1_555 1_555
H13_5 C20_5 1_555 1_555
H14_5 C20_5 1_555 1_555
C21_5 N2_5 1_555 1_555
H15_5 C21_5 1_555 1_555
H16_5 C21_5 1_555 1_555
C22_5 N2_5 1_555 1_555
H17_5 C22_5 1_555 1_555
H18_5 C22_5 1_555 1_555
N3_5 C37_5 1_555 1_555
C37_5 H27_5 1_555 1_555
C38_5 N3_5 1_555 1_555
H28_5 C38_5 1_555 1_555
C39_5 C40_5 1_555 1_555
C40_5 C37_5 1_555 1_555
H29_5 C40_5 1_555 1_555
C41_5 C38_5 1_555 1_555
H30_5 C41_5 1_555 1_555
N4_5 C42_5 1_555 1_555
C42_5 C39_5 1_555 1_555
H31_5 C42_5 1_555 1_555
H32_5 C42_5 1_555 1_555
C43_5 C22_5 1_555 1_555
H33_5 C43_5 1_555 1_555
H34_5 C43_5 1_555 1_555
C44_5 C21_5 1_555 1_555
H35_5 C44_5 1_555 1_555
H36_5 C44_5 1_555 1_555
Co7_4 N3_5 1_555 1_555
Co5_5 O3_5 1_555 1_555
O13_5 Co1_5 1_555 1_555
O15_5 Co1_5 1_555 1_555
O3_5 C9_5 1_555 1_555
C7_5 C9_5 1_555 1_555
O6_5 Co5_5 1_555 1_555
C17_5 C19_5 1_555 1_555
C39_5 C41_5 1_555 1_555
N4_5 C43_5 1_555 1_555
N4_5 C44_5 1_555 1_555
Co5_5 O13_5 1_555 1_555
O4_5 C3_5 1_555 1_555
C1_5 O5_5 1_555 1_555
O5_5 C30_5 1_555 1_555
C3_5 C6_5 1_555 1_555
C6_5 H2_5 1_555 1_555
C11_5 C1_5 1_555 1_555
H5_5 C11_5 1_555 1_555
C12_5 C1_5 1_555 1_555
H6_5 C12_5 1_555 1_555
H7_5 C13_5 1_555 1_555
O7_5 C26_5 1_555 1_555
C23_5 H19_5 1_555 1_555
C24_5 O4_5 1_555 1_555
C25_5 C23_5 1_555 1_555
C26_5 C25_5 1_555 1_555
C27_5 C24_5 1_555 1_555
H20_5 C27_5 1_555 1_555
C28_5 C25_5 1_555 1_555
H21_5 C28_5 1_555 1_555
C29_5 C23_5 1_555 1_555
H22_5 C29_5 1_555 1_555
O8_5 C26_5 1_555 1_555
O12_3 C33_5 1_555 1_555
C30_5 C34_5 1_555 1_555
C31_5 C32_5 1_555 1_555
C32_5 H23_5 1_555 1_555
C33_5 C31_5 1_555 1_555
C34_5 H24_5 1_555 1_555
C35_5 C30_5 1_555 1_555
H25_5 C35_5 1_555 1_555
C36_5 C31_5 1_555 1_555
H26_5 C36_5 1_555 1_555
Co3_3 O7_5 1_555 1_555
Co6_2 O8_5 1_555 1_555
O14_5 Co3_3 1_555 1_555
O16_5 Co3_3 1_555 1_555
N5_5 Co3_3 1_555 1_555
C3_5 C13_5 1_555 1_555
C24_5 C29_5 1_555 1_555
C27_5 C28_5 1_555 1_555
C32_5 C35_5 1_555 1_555
C34_5 C36_5 1_555 1_555
Co6_2 O14_5 1_555 1_555
Co1_6 O1_6 1_555 1_555
O1_6 C5_6 1_555 1_555
O2_6 Co1_6 1_555 1_555
O3_6 Co1_6 1_555 1_555
O4_6 C3_6 1_555 1_555
C1_6 O5_6 1_555 1_555
O5_6 C30_6 1_555 1_555
C2_6 H1_6 1_555 1_555
C3_6 C6_6 1_555 1_555
C4_6 C2_6 1_555 1_555
C5_6 C4_6 1_555 1_555
C6_6 H2_6 1_555 1_555
C7_6 C8_6 1_555 1_555
C8_6 H3_6 1_555 1_555
C9_6 O2_6 1_555 1_555
C10_6 C4_6 1_555 1_555
H4_6 C10_6 1_555 1_555
C11_6 C1_6 1_555 1_555
H5_6 C11_6 1_555 1_555
C12_6 C1_6 1_555 1_555
H6_6 C12_6 1_555 1_555
C13_6 C2_6 1_555 1_555
H7_6 C13_6 1_555 1_555
C14_6 C7_6 1_555 1_555
H8_6 C14_6 1_555 1_555
O6_6 C5_6 1_555 1_555
H9_6 C15_6 1_555 1_555
O7_6 C26_6 1_555 1_555
C23_6 H19_6 1_555 1_555
C24_6 O4_6 1_555 1_555
C25_6 C23_6 1_555 1_555
C26_6 C25_6 1_555 1_555
C27_6 C24_6 1_555 1_555
H20_6 C27_6 1_555 1_555
C28_6 C25_6 1_555 1_555
H21_6 C28_6 1_555 1_555
C29_6 C23_6 1_555 1_555
H22_6 C29_6 1_555 1_555
O8_6 C26_6 1_555 1_555
O11_4 C33_6 1_555 1_555
O12_4 C33_6 1_555 1_555
C30_6 C34_6 1_555 1_555
C31_6 C32_6 1_555 1_555
C32_6 H23_6 1_555 1_555
C33_6 C31_6 1_555 1_555
C34_6 H24_6 1_555 1_555
C35_6 C30_6 1_555 1_555
H25_6 C35_6 1_555 1_555
C36_6 C31_6 1_555 1_555
H26_6 C36_6 1_555 1_555
Co3_4 O7_6 1_555 1_555
Co4_2 O8_6 1_555 1_555
O14_6 Co3_4 1_555 1_555
O16_6 Co3_4 1_555 1_555
N5_6 Co3_4 1_555 1_555
O3_6 C9_6 1_555 1_555
C3_6 C13_6 1_555 1_555
C6_6 C10_6 1_555 1_555
C7_6 C9_6 1_555 1_555
C8_6 C12_6 1_555 1_555
C11_6 C14_6 1_555 1_555
C24_6 C29_6 1_555 1_555
C27_6 C28_6 1_555 1_555
C32_6 C35_6 1_555 1_555
C34_6 C36_6 1_555 1_555
Co4_2 O14_6 1_555 1_555
C16_6 N1_6 1_555 1_555
H10_6 C16_6 1_555 1_555
C17_6 C18_6 1_555 1_555
H11_6 C18_6 1_555 1_555
C19_6 C16_6 1_555 1_555
H12_6 C19_6 1_555 1_555
N2_6 C20_6 1_555 1_555
C20_6 C17_6 1_555 1_555
H13_6 C20_6 1_555 1_555
H14_6 C20_6 1_555 1_555
C21_6 N2_6 1_555 1_555
H15_6 C21_6 1_555 1_555
H16_6 C21_6 1_555 1_555
C22_6 N2_6 1_555 1_555
H17_6 C22_6 1_555 1_555
H18_6 C22_6 1_555 1_555
N3_6 C37_6 1_555 1_555
C37_6 H27_6 1_555 1_555
C38_6 N3_6 1_555 1_555
H28_6 C38_6 1_555 1_555
C39_6 C40_6 1_555 1_555
C40_6 C37_6 1_555 1_555
H29_6 C40_6 1_555 1_555
C41_6 C38_6 1_555 1_555
H30_6 C41_6 1_555 1_555
N4_6 C42_6 1_555 1_555
C42_6 C39_6 1_555 1_555
H31_6 C42_6 1_555 1_555
H32_6 C42_6 1_555 1_555
C43_6 C22_6 1_555 1_555
H33_6 C43_6 1_555 1_555
H34_6 C43_6 1_555 1_555
C44_6 C21_6 1_555 1_555
H35_6 C44_6 1_555 1_555
H36_6 C44_6 1_555 1_555
Co7_3 N3_6 1_555 1_555
C17_6 C19_6 1_555 1_555
C39_6 C41_6 1_555 1_555
N4_6 C43_6 1_555 1_555
N4_6 C44_6 1_555 1_555
Co5_6 O13_6 1_555 1_555
Co1_7 O1_7 1_555 1_555
O1_7 C5_7 1_555 1_555
O2_7 Co1_7 1_555 1_555
O3_7 Co1_7 1_555 1_555
C2_7 H1_7 1_555 1_555
C4_7 C2_7 1_555 1_555
C5_7 C4_7 1_555 1_555
C7_7 C8_7 1_555 1_555
C8_7 H3_7 1_555 1_555
C9_7 O2_7 1_555 1_555
C10_7 C4_7 1_555 1_555
H4_7 C10_7 1_555 1_555
C14_7 C7_7 1_555 1_555
H8_7 C14_7 1_555 1_555
O6_7 C5_7 1_555 1_555
N1_7 Co1_7 1_555 1_555
C15_7 N1_7 1_555 1_555
H9_7 C15_7 1_555 1_555
C16_7 N1_7 1_555 1_555
H10_7 C16_7 1_555 1_555
C17_7 C18_7 1_555 1_555
C18_7 C15_7 1_555 1_555
H11_7 C18_7 1_555 1_555
C19_7 C16_7 1_555 1_555
H12_7 C19_7 1_555 1_555
N2_7 C20_7 1_555 1_555
C20_7 C17_7 1_555 1_555
H13_7 C20_7 1_555 1_555
H14_7 C20_7 1_555 1_555
C21_7 N2_7 1_555 1_555
H15_7 C21_7 1_555 1_555
H16_7 C21_7 1_555 1_555
C22_7 N2_7 1_555 1_555
H17_7 C22_7 1_555 1_555
H18_7 C22_7 1_555 1_555
N3_7 C37_7 1_555 1_555
C37_7 H27_7 1_555 1_555
C38_7 N3_7 1_555 1_555
H28_7 C38_7 1_555 1_555
C39_7 C40_7 1_555 1_555
C40_7 C37_7 1_555 1_555
H29_7 C40_7 1_555 1_555
C41_7 C38_7 1_555 1_555
H30_7 C41_7 1_555 1_555
N4_7 C42_7 1_555 1_555
C42_7 C39_7 1_555 1_555
H31_7 C42_7 1_555 1_555
H32_7 C42_7 1_555 1_555
C43_7 C22_7 1_555 1_555
H33_7 C43_7 1_555 1_555
H34_7 C43_7 1_555 1_555
C44_7 C21_7 1_555 1_555
H35_7 C44_7 1_555 1_555
H36_7 C44_7 1_555 1_555
Co7_2 N3_7 1_555 1_555
Co5_7 O3_7 1_555 1_555
O13_7 Co1_7 1_555 1_555
O15_7 Co1_7 1_555 1_555
O3_7 C9_7 1_555 1_555
C7_7 C9_7 1_555 1_555
O6_7 Co5_7 1_555 1_555
C17_7 C19_7 1_555 1_555
C39_7 C41_7 1_555 1_555
N4_7 C43_7 1_555 1_555
N4_7 C44_7 1_555 1_555
Co5_7 O13_7 1_555 1_555
O16_7 Co3 1_555 1_555
N5_7 Co3 1_555 1_555
O4_7 C3_7 1_555 1_555
C1_7 O5_7 1_555 1_555
O5_7 C30_7 1_555 1_555
C3_7 C6_7 1_555 1_555
C6_7 H2_7 1_555 1_555
C11_7 C1_7 1_555 1_555
H5_7 C11_7 1_555 1_555
C12_7 C1_7 1_555 1_555
H6_7 C12_7 1_555 1_555
H7_7 C13_7 1_555 1_555
O7_7 C26_7 1_555 1_555
C23_7 H19_7 1_555 1_555
C24_7 O4_7 1_555 1_555
C25_7 C23_7 1_555 1_555
C26_7 C25_7 1_555 1_555
C27_7 C24_7 1_555 1_555
H20_7 C27_7 1_555 1_555
C28_7 C25_7 1_555 1_555
H21_7 C28_7 1_555 1_555
C29_7 C23_7 1_555 1_555
H22_7 C29_7 1_555 1_555
O8_7 C26_7 1_555 1_555
O11 C33_7 1_555 1_555
O12 C33_7 1_555 1_555
C30_7 C34_7 1_555 1_555
C31_7 C32_7 1_555 1_555
C32_7 H23_7 1_555 1_555
C33_7 C31_7 1_555 1_555
C34_7 H24_7 1_555 1_555
C35_7 C30_7 1_555 1_555
H25_7 C35_7 1_555 1_555
C36_7 C31_7 1_555 1_555
H26_7 C36_7 1_555 1_555
Co6 O8_7 1_555 1_555
C3_7 C13_7 1_555 1_555
C24_7 C29_7 1_555 1_555
C27_7 C28_7 1_555 1_555
C32_7 C35_7 1_555 1_555
C34_7 C36_7 1_555 1_555
Co6 O14_7 1_555 1_555
O16_8 Co3_2 1_555 1_555
N5_8 Co3_2 1_555 1_555
Co1_8 O1_8 1_555 1_555
O1_8 C5_8 1_555 1_555
O2_8 Co1_8 1_555 1_555
O3_8 Co1_8 1_555 1_555
O4_8 C3_8 1_555 1_555
C1_8 O5_8 1_555 1_555
O5_8 C30_8 1_555 1_555
C2_8 H1_8 1_555 1_555
C3_8 C6_8 1_555 1_555
C4_8 C2_8 1_555 1_555
C5_8 C4_8 1_555 1_555
C6_8 H2_8 1_555 1_555
C7_8 C8_8 1_555 1_555
C8_8 H3_8 1_555 1_555
C9_8 O2_8 1_555 1_555
C10_8 C4_8 1_555 1_555
H4_8 C10_8 1_555 1_555
C11_8 C1_8 1_555 1_555
H5_8 C11_8 1_555 1_555
C12_8 C1_8 1_555 1_555
H6_8 C12_8 1_555 1_555
C13_8 C2_8 1_555 1_555
H7_8 C13_8 1_555 1_555
C14_8 C7_8 1_555 1_555
H8_8 C14_8 1_555 1_555
O6_8 C5_8 1_555 1_555
H9_8 C15_8 1_555 1_555
O7_8 C26_8 1_555 1_555
C23_8 H19_8 1_555 1_555
C24_8 O4_8 1_555 1_555
C25_8 C23_8 1_555 1_555
C26_8 C25_8 1_555 1_555
C27_8 C24_8 1_555 1_555
H20_8 C27_8 1_555 1_555
C28_8 C25_8 1_555 1_555
H21_8 C28_8 1_555 1_555
C29_8 C23_8 1_555 1_555
H22_8 C29_8 1_555 1_555
O8_8 C26_8 1_555 1_555
O12_2 C33_8 1_555 1_555
C30_8 C34_8 1_555 1_555
C31_8 C32_8 1_555 1_555
C32_8 H23_8 1_555 1_555
C33_8 C31_8 1_555 1_555
C34_8 H24_8 1_555 1_555
C35_8 C30_8 1_555 1_555
H25_8 C35_8 1_555 1_555
C36_8 C31_8 1_555 1_555
H26_8 C36_8 1_555 1_555
Co4 O8_8 1_555 1_555
O3_8 C9_8 1_555 1_555
C3_8 C13_8 1_555 1_555
C6_8 C10_8 1_555 1_555
C7_8 C9_8 1_555 1_555
C8_8 C12_8 1_555 1_555
C11_8 C14_8 1_555 1_555
C24_8 C29_8 1_555 1_555
C27_8 C28_8 1_555 1_555
C32_8 C35_8 1_555 1_555
C34_8 C36_8 1_555 1_555
Co4 O14_8 1_555 1_555
C16_8 N1_8 1_555 1_555
H10_8 C16_8 1_555 1_555
C17_8 C18_8 1_555 1_555
H11_8 C18_8 1_555 1_555
C19_8 C16_8 1_555 1_555
H12_8 C19_8 1_555 1_555
N2_8 C20_8 1_555 1_555
C20_8 C17_8 1_555 1_555
H13_8 C20_8 1_555 1_555
H14_8 C20_8 1_555 1_555
C21_8 N2_8 1_555 1_555
H15_8 C21_8 1_555 1_555
H16_8 C21_8 1_555 1_555
C22_8 N2_8 1_555 1_555
H17_8 C22_8 1_555 1_555
H18_8 C22_8 1_555 1_555
N3_8 C37_8 1_555 1_555
C37_8 H27_8 1_555 1_555
C38_8 N3_8 1_555 1_555
H28_8 C38_8 1_555 1_555
C39_8 C40_8 1_555 1_555
C40_8 C37_8 1_555 1_555
H29_8 C40_8 1_555 1_555
C41_8 C38_8 1_555 1_555
H30_8 C41_8 1_555 1_555
N4_8 C42_8 1_555 1_555
C42_8 C39_8 1_555 1_555
H31_8 C42_8 1_555 1_555
H32_8 C42_8 1_555 1_555
C43_8 C22_8 1_555 1_555
H33_8 C43_8 1_555 1_555
H34_8 C43_8 1_555 1_555
C44_8 C21_8 1_555 1_555
H35_8 C44_8 1_555 1_555
H36_8 C44_8 1_555 1_555
Co7 N3_8 1_555 1_555
C17_8 C19_8 1_555 1_555
C39_8 C41_8 1_555 1_555
N4_8 C43_8 1_555 1_555
N4_8 C44_8 1_555 1_555
Co5_8 O13_8 1_555 1_555
H16_9 C21_9 1_555 1_555
N3_9 C37_9 1_555 1_555
C37_9 H27_9 1_555 1_555
C38_9 N3_9 1_555 1_555
H28_9 C38_9 1_555 1_555
C39_9 C40_9 1_555 1_555
C40_9 C37_9 1_555 1_555
H29_9 C40_9 1_555 1_555
C41_9 C38_9 1_555 1_555
H30_9 C41_9 1_555 1_555
N4_9 C42_9 1_555 1_555
C42_9 C39_9 1_555 1_555
H31_9 C42_9 1_555 1_555
H32_9 C42_9 1_555 1_555
C44_9 C21_9 1_555 1_555
H35_9 C44_9 1_555 1_555
Co5_5 N3_9 1_555 1_555
C39_9 C41_9 1_555 1_555
N4_9 C44_9 1_555 1_555
C15_9 N5_4 1_555 1_555
H9_9 C15_9 1_555 1_555
C16_9 N5_4 1_555 1_555
H10_9 C16_9 1_555 1_555
C17_9 C18_9 1_555 1_555
C18_9 C15_9 1_555 1_555
H11_9 C18_9 1_555 1_555
C19_9 C16_9 1_555 1_555
H12_9 C19_9 1_555 1_555
N2_9 C20_9 1_555 1_555
C20_9 C17_9 1_555 1_555
H13_9 C20_9 1_555 1_555
H14_9 C20_9 1_555 1_555
C22_9 N2_9 1_555 1_555
H17_9 C22_9 1_555 1_555
C43_9 C22_9 1_555 1_555
H34_9 C43_9 1_555 1_555
C17_9 C19_9 1_555 1_555
C15_10 N5_3 1_555 1_555
H9_10 C15_10 1_555 1_555
C16_10 N5_3 1_555 1_555
H10_10 C16_10 1_555 1_555
C17_10 C18_10 1_555 1_555
C18_10 C15_10 1_555 1_555
H11_10 C18_10 1_555 1_555
C19_10 C16_10 1_555 1_555
H12_10 C19_10 1_555 1_555
N2_10 C20_10 1_555 1_555
C20_10 C17_10 1_555 1_555
H13_10 C20_10 1_555 1_555
H14_10 C20_10 1_555 1_555
C21_10 N2_10 1_555 1_555
H15_9 C21_10 1_555 1_555
H16_10 C21_10 1_555 1_555
C22_10 N2_10 1_555 1_555
H17_10 C22_10 1_555 1_555
H18_9 C22_10 1_555 1_555
C38_10 N3_10 1_555 1_555
H28_10 C38_10 1_555 1_555
C39_10 C40_10 1_555 1_555
H29_10 C40_10 1_555 1_555
C41_10 C38_10 1_555 1_555
H30_10 C41_10 1_555 1_555
N4_10 C42_10 1_555 1_555
C42_10 C39_10 1_555 1_555
H31_10 C42_10 1_555 1_555
H32_10 C42_10 1_555 1_555
C43_10 C22_10 1_555 1_555
H33_9 C43_10 1_555 1_555
H34_10 C43_10 1_555 1_555
C44_10 C21_10 1_555 1_555
H35_10 C44_10 1_555 1_555
H36_9 C44_10 1_555 1_555
C17_10 C19_10 1_555 1_555
C39_10 C41_10 1_555 1_555
N4_10 C43_10 1_555 1_555
N4_10 C44_10 1_555 1_555
C37_10 H27_10 1_555 1_555
H16_11 C21_11 1_555 1_555
N3_11 C37_11 1_555 1_555
C37_11 H27_11 1_555 1_555
C38_11 N3_11 1_555 1_555
H28_11 C38_11 1_555 1_555
C39_11 C40_11 1_555 1_555
C40_11 C37_11 1_555 1_555
H29_11 C40_11 1_555 1_555
C41_11 C38_11 1_555 1_555
H30_11 C41_11 1_555 1_555
N4_11 C42_11 1_555 1_555
C42_11 C39_11 1_555 1_555
H31_11 C42_11 1_555 1_555
H32_11 C42_11 1_555 1_555
C44_11 C21_11 1_555 1_555
H35_11 C44_11 1_555 1_555
H36_10 C44_11 1_555 1_555
Co5_7 N3_11 1_555 1_555
C39_11 C41_11 1_555 1_555
N4_11 C44_11 1_555 1_555
C15_11 N5_2 1_555 1_555
H9_11 C15_11 1_555 1_555
C16_11 N5_2 1_555 1_555
H10_11 C16_11 1_555 1_555
C17_11 C18_11 1_555 1_555
C18_11 C15_11 1_555 1_555
H11_11 C18_11 1_555 1_555
C19_11 C16_11 1_555 1_555
H12_11 C19_11 1_555 1_555
N2_11 C20_11 1_555 1_555
C20_11 C17_11 1_555 1_555
H13_11 C20_11 1_555 1_555
H14_11 C20_11 1_555 1_555
C22_11 N2_11 1_555 1_555
H17_11 C22_11 1_555 1_555
H18_10 C22_11 1_555 1_555
C43_11 C22_11 1_555 1_555
H34_11 C43_11 1_555 1_555
C17_11 C19_11 1_555 1_555
C15_12 N5 1_555 1_555
H9_12 C15_12 1_555 1_555
C16_12 N5 1_555 1_555
H10_12 C16_12 1_555 1_555
C17_12 C18_12 1_555 1_555
C18_12 C15_12 1_555 1_555
H11_12 C18_12 1_555 1_555
C19_12 C16_12 1_555 1_555
H12_12 C19_12 1_555 1_555
N2_12 C20_12 1_555 1_555
C20_12 C17_12 1_555 1_555
H13_12 C20_12 1_555 1_555
H14_12 C20_12 1_555 1_555
C22_12 N2_12 1_555 1_555
H17_12 C22_12 1_555 1_555
C43_12 C22_12 1_555 1_555
H33_11 C43_12 1_555 1_555
H34_12 C43_12 1_555 1_555
C17_12 C19_12 1_555 1_555
H15_11 C21_12 1_555 1_555
H16_12 C21_12 1_555 1_555
C38_12 N3_12 1_555 1_555
H28_12 C38_12 1_555 1_555
C39_12 C40_12 1_555 1_555
H29_12 C40_12 1_555 1_555
C41_12 C38_12 1_555 1_555
H30_12 C41_12 1_555 1_555
N4_12 C42_12 1_555 1_555
C42_12 C39_12 1_555 1_555
H31_12 C42_12 1_555 1_555
H32_12 C42_12 1_555 1_555
C44_12 C21_12 1_555 1_555
H35_12 C44_12 1_555 1_555
C39_12 C41_12 1_555 1_555
N4_12 C44_12 1_555 1_555
C37_12 H27_12 1_555 1_555
H16_13 C21_13 1_555 1_555
C44_13 C21_13 1_555 1_555
H35_13 C44_13 1_555 1_555
N3_13 C37_13 1_555 1_555
C37_13 H27_13 1_555 1_555
C38_13 N3_13 1_555 1_555
H28_13 C38_13 1_555 1_555
C39_13 C40_13 1_555 1_555
C40_13 C37_13 1_555 1_555
H29_13 C40_13 1_555 1_555
C41_13 C38_13 1_555 1_555
H30_13 C41_13 1_555 1_555
N4_13 C42_13 1_555 1_555
C42_13 C39_13 1_555 1_555
H31_13 C42_13 1_555 1_555
H32_13 C42_13 1_555 1_555
Co5 N3_13 1_555 1_555
C39_13 C41_13 1_555 1_555
C15_13 N5_8 1_555 1_555
H9_13 C15_13 1_555 1_555
C16_13 N5_8 1_555 1_555
H10_13 C16_13 1_555 1_555
C17_13 C18_13 1_555 1_555
C18_13 C15_13 1_555 1_555
H11_13 C18_13 1_555 1_555
C19_13 C16_13 1_555 1_555
H12_13 C19_13 1_555 1_555
N2_13 C20_13 1_555 1_555
C20_13 C17_13 1_555 1_555
H13_13 C20_13 1_555 1_555
H14_13 C20_13 1_555 1_555
C17_13 C19_13 1_555 1_555
H17_13 C22_13 1_555 1_555
C43_13 C22_13 1_555 1_555
H34_13 C43_13 1_555 1_555
C15_14 N5_7 1_555 1_555
H9_14 C15_14 1_555 1_555
C16_14 N5_7 1_555 1_555
H10_14 C16_14 1_555 1_555
C17_14 C18_14 1_555 1_555
C18_14 C15_14 1_555 1_555
H11_14 C18_14 1_555 1_555
C19_14 C16_14 1_555 1_555
H12_14 C19_14 1_555 1_555
N2_14 C20_14 1_555 1_555
C20_14 C17_14 1_555 1_555
H13_14 C20_14 1_555 1_555
H14_14 C20_14 1_555 1_555
C21_14 N2_14 1_555 1_555
H15_13 C21_14 1_555 1_555
H16_14 C21_14 1_555 1_555
C44_14 C21_14 1_555 1_555
H35_14 C44_14 1_555 1_555
C17_14 C19_14 1_555 1_555
H17_14 C22_14 1_555 1_555
C38_14 N3_14 1_555 1_555
H28_14 C38_14 1_555 1_555
C39_14 C40_14 1_555 1_555
H29_14 C40_14 1_555 1_555
C41_14 C38_14 1_555 1_555
H30_14 C41_14 1_555 1_555
N4_14 C42_14 1_555 1_555
C42_14 C39_14 1_555 1_555
H31_14 C42_14 1_555 1_555
H32_14 C42_14 1_555 1_555
C43_14 C22_14 1_555 1_555
H33_13 C43_14 1_555 1_555
H34_14 C43_14 1_555 1_555
C39_14 C41_14 1_555 1_555
N4_14 C43_14 1_555 1_555
C37_14 H27_14 1_555 1_555
H16_15 C21_15 1_555 1_555
N3_15 C37_15 1_555 1_555
C37_15 H27_15 1_555 1_555
C38_15 N3_15 1_555 1_555
H28_15 C38_15 1_555 1_555
C39_15 C40_15 1_555 1_555
C40_15 C37_15 1_555 1_555
H29_15 C40_15 1_555 1_555
C41_15 C38_15 1_555 1_555
H30_15 C41_15 1_555 1_555
N4_15 C42_15 1_555 1_555
C42_15 C39_15 1_555 1_555
H31_15 C42_15 1_555 1_555
H32_15 C42_15 1_555 1_555
C44_15 C21_15 1_555 1_555
H35_15 C44_15 1_555 1_555
H36_14 C44_15 1_555 1_555
Co5_3 N3_15 1_555 1_555
C39_15 C41_15 1_555 1_555
N4_15 C44_15 1_555 1_555
C15_15 N5_6 1_555 1_555
H9_15 C15_15 1_555 1_555
C16_15 N5_6 1_555 1_555
H10_15 C16_15 1_555 1_555
C17_15 C18_15 1_555 1_555
C18_15 C15_15 1_555 1_555
H11_15 C18_15 1_555 1_555
C19_15 C16_15 1_555 1_555
H12_15 C19_15 1_555 1_555
N2_15 C20_15 1_555 1_555
C20_15 C17_15 1_555 1_555
H13_15 C20_15 1_555 1_555
H14_15 C20_15 1_555 1_555
C22_15 N2_15 1_555 1_555
H17_15 C22_15 1_555 1_555
H18_14 C22_15 1_555 1_555
C43_15 C22_15 1_555 1_555
H34_15 C43_15 1_555 1_555
C17_15 C19_15 1_555 1_555
C15_16 N5_5 1_555 1_555
H9_16 C15_16 1_555 1_555
C16_16 N5_5 1_555 1_555
H10_16 C16_16 1_555 1_555
C17_16 C18_16 1_555 1_555
C18_16 C15_16 1_555 1_555
H11_16 C18_16 1_555 1_555
C19_16 C16_16 1_555 1_555
H12_16 C19_16 1_555 1_555
N2_16 C20_16 1_555 1_555
C20_16 C17_16 1_555 1_555
H13_16 C20_16 1_555 1_555
H14_16 C20_16 1_555 1_555
C21_16 N2_16 1_555 1_555
H15_15 C21_16 1_555 1_555
H16_16 C21_16 1_555 1_555
C22_16 N2_16 1_555 1_555
H17_16 C22_16 1_555 1_555
H18_15 C22_16 1_555 1_555
C38_16 N3_16 1_555 1_555
H28_16 C38_16 1_555 1_555
C39_16 C40_16 1_555 1_555
H29_16 C40_16 1_555 1_555
C41_16 C38_16 1_555 1_555
H30_16 C41_16 1_555 1_555
N4_16 C42_16 1_555 1_555
C42_16 C39_16 1_555 1_555
H31_16 C42_16 1_555 1_555
H32_16 C42_16 1_555 1_555
C43_16 C22_16 1_555 1_555
H33_15 C43_16 1_555 1_555
H34_16 C43_16 1_555 1_555
C44_16 C21_16 1_555 1_555
H35_16 C44_16 1_555 1_555
H36_15 C44_16 1_555 1_555
C17_16 C19_16 1_555 1_555
C39_16 C41_16 1_555 1_555
N4_16 C43_16 1_555 1_555
N4_16 C44_16 1_555 1_555
C37_16 H27_16 1_555 1_555
O4_9 C3_9 1_555 1_555
C3_9 C6_9 1_555 1_555
C6_9 H2_9 1_555 1_555
H7_9 C13_9 1_555 1_555
O7_9 C26_9 1_555 1_555
C23_9 H19_9 1_555 1_555
C24_9 O4_9 1_555 1_555
C25_9 C23_9 1_555 1_555
C26_9 C25_9 1_555 1_555
C27_9 C24_9 1_555 1_555
H20_9 C27_9 1_555 1_555
C28_9 C25_9 1_555 1_555
H21_9 C28_9 1_555 1_555
C29_9 C23_9 1_555 1_555
H22_9 C29_9 1_555 1_555
O16_5 C26_9 1_555 1_555
Co6_2 O7_9 1_555 1_555
O11_5 Co6_2 1_555 1_555
C3_9 C13_9 1_555 1_555
C24_9 C29_9 1_555 1_555
C27_9 C28_9 1_555 1_555
C1_9 O5_9 1_555 1_555
O5_9 C30_9 1_555 1_555
C11_9 C1_9 1_555 1_555
H5_9 C11_9 1_555 1_555
C12_9 C1_9 1_555 1_555
H6_9 C12_9 1_555 1_555
O9_5 C33_9 1_555 1_555
O14_7 C33_9 1_555 1_555
C30_9 C34_9 1_555 1_555
C31_9 C32_9 1_555 1_555
C32_9 H23_9 1_555 1_555
C33_9 C31_9 1_555 1_555
C34_9 H24_9 1_555 1_555
C35_9 C30_9 1_555 1_555
H25_9 C35_9 1_555 1_555
C36_9 C31_9 1_555 1_555
H26_9 C36_9 1_555 1_555
Co6 O9_5 1_555 1_555
C32_9 C35_9 1_555 1_555
C34_9 C36_9 1_555 1_555
O1_9 C5_9 1_555 1_555
C2_9 H1_9 1_555 1_555
C4_9 C2_9 1_555 1_555
C5_9 C4_9 1_555 1_555
C10_9 C4_9 1_555 1_555
H4_9 C10_9 1_555 1_555
O16_8 C5_9 1_555 1_555
O2_9 Co4 1_555 1_555
C7_9 C8_9 1_555 1_555
C8_9 H3_9 1_555 1_555
C9_9 O2_9 1_555 1_555
C14_9 C7_9 1_555 1_555
H8_9 C14_9 1_555 1_555
O14_8 C9_9 1_555 1_555
C7_9 C9_9 1_555 1_555
C1_10 O5_10 1_555 1_555
O5_10 C30_10 1_555 1_555
C7_10 C8_10 1_555 1_555
C8_10 H3_10 1_555 1_555
C11_10 C1_10 1_555 1_555
H5_10 C11_10 1_555 1_555
C12_10 C1_10 1_555 1_555
H6_10 C12_10 1_555 1_555
C14_10 C7_10 1_555 1_555
H8_10 C14_10 1_555 1_555
O9_6 C33_10 1_555 1_555
O13 C33_10 1_555 1_555
C30_10 C34_10 1_555 1_555
C31_10 C32_10 1_555 1_555
C32_10 H23_10 1_555 1_555
C33_10 C31_10 1_555 1_555
C34_10 H24_10 1_555 1_555
C35_10 C30_10 1_555 1_555
H25_10 C35_10 1_555 1_555
C36_10 C31_10 1_555 1_555
H26_10 C36_10 1_555 1_555
Co5 O9_6 1_555 1_555
O13_2 C9_10 1_555 1_555
C7_10 C9_10 1_555 1_555
C8_10 C12_10 1_555 1_555
C11_10 C14_10 1_555 1_555
C32_10 C35_10 1_555 1_555
C34_10 C36_10 1_555 1_555
O1_10 C5_10 1_555 1_555
O4_10 C3_10 1_555 1_555
C2_10 H1_10 1_555 1_555
C3_10 C6_10 1_555 1_555
C4_10 C2_10 1_555 1_555
C5_10 C4_10 1_555 1_555
C6_10 H2_10 1_555 1_555
C10_10 C4_10 1_555 1_555
H4_10 C10_10 1_555 1_555
C13_10 C2_10 1_555 1_555
H7_10 C13_10 1_555 1_555
O15_2 C5_10 1_555 1_555
O7_10 C26_10 1_555 1_555
C23_10 H19_10 1_555 1_555
C24_10 O4_10 1_555 1_555
C25_10 C23_10 1_555 1_555
C26_10 C25_10 1_555 1_555
C27_10 C24_10 1_555 1_555
H20_10 C27_10 1_555 1_555
C28_10 C25_10 1_555 1_555
H21_10 C28_10 1_555 1_555
C29_10 C23_10 1_555 1_555
H22_10 C29_10 1_555 1_555
O15_3 C26_10 1_555 1_555
Co5_3 O7_10 1_555 1_555
O11_6 Co5_3 1_555 1_555
C3_10 C13_10 1_555 1_555
C6_10 C10_10 1_555 1_555
C24_10 C29_10 1_555 1_555
C27_10 C28_10 1_555 1_555
O2_10 Co5_2 1_555 1_555
C1_11 O5_11 1_555 1_555
O5_11 C30_11 1_555 1_555
C11_11 C1_11 1_555 1_555
H5_11 C11_11 1_555 1_555
C12_11 C1_11 1_555 1_555
H6_11 C12_11 1_555 1_555
O9_7 C33_11 1_555 1_555
O14 C33_11 1_555 1_555
C30_11 C34_11 1_555 1_555
C31_11 C32_11 1_555 1_555
C32_11 H23_11 1_555 1_555
C33_11 C31_11 1_555 1_555
C34_11 H24_11 1_555 1_555
C35_11 C30_11 1_555 1_555
H25_11 C35_11 1_555 1_555
C36_11 C31_11 1_555 1_555
H26_11 C36_11 1_555 1_555
Co7 O9_7 1_555 1_555
C32_11 C35_11 1_555 1_555
C34_11 C36_11 1_555 1_555
O4_11 C3_11 1_555 1_555
C3_11 C6_11 1_555 1_555
C6_11 H2_11 1_555 1_555
H7_11 C13_11 1_555 1_555
O7_11 C26_11 1_555 1_555
C23_11 H19_11 1_555 1_555
C24_11 O4_11 1_555 1_555
C25_11 C23_11 1_555 1_555
C26_11 C25_11 1_555 1_555
C27_11 C24_11 1_555 1_555
H20_11 C27_11 1_555 1_555
C28_11 C25_11 1_555 1_555
H21_11 C28_11 1_555 1_555
C29_11 C23_11 1_555 1_555
H22_11 C29_11 1_555 1_555
O16_3 C26_11 1_555 1_555
Co7_3 O7_11 1_555 1_555
O11_7 Co7_3 1_555 1_555
C3_11 C13_11 1_555 1_555
C24_11 C29_11 1_555 1_555
C27_11 C28_11 1_555 1_555
C7_11 C8_11 1_555 1_555
C8_11 H3_11 1_555 1_555
C14_11 C7_11 1_555 1_555
H8_11 C14_11 1_555 1_555
O14_2 C9_11 1_555 1_555
C7_11 C9_11 1_555 1_555
Co7_2 O1_11 1_555 1_555
O1_11 C5_11 1_555 1_555
O2_11 Co7_2 1_555 1_555
C2_11 H1_11 1_555 1_555
C4_11 C2_11 1_555 1_555
C5_11 C4_11 1_555 1_555
C10_11 C4_11 1_555 1_555
H4_11 C10_11 1_555 1_555
O16_2 C5_11 1_555 1_555
Co5_8 O1_12 1_555 1_555
O1_12 C5_12 1_555 1_555
O2_12 Co5_8 1_555 1_555
O4_12 C3_12 1_555 1_555
C1_12 O5_12 1_555 1_555
O5_12 C30_12 1_555 1_555
C2_12 H1_12 1_555 1_555
C3_12 C6_12 1_555 1_555
C4_12 C2_12 1_555 1_555
C5_12 C4_12 1_555 1_555
C6_12 H2_12 1_555 1_555
C7_12 C8_12 1_555 1_555
C8_12 H3_12 1_555 1_555
C9_12 O2_12 1_555 1_555
C10_12 C4_12 1_555 1_555
H4_12 C10_12 1_555 1_555
C11_12 C1_12 1_555 1_555
H5_12 C11_12 1_555 1_555
C12_12 C1_12 1_555 1_555
H6_12 C12_12 1_555 1_555
C13_12 C2_12 1_555 1_555
H7_12 C13_12 1_555 1_555
C14_12 C7_12 1_555 1_555
H8_12 C14_12 1_555 1_555
O15_8 C5_12 1_555 1_555
O7_12 C26_12 1_555 1_555
C23_12 H19_12 1_555 1_555
C24_12 O4_12 1_555 1_555
C25_12 C23_12 1_555 1_555
C26_12 C25_12 1_555 1_555
C27_12 C24_12 1_555 1_555
H20_12 C27_12 1_555 1_555
C28_12 C25_12 1_555 1_555
H21_12 C28_12 1_555 1_555
C29_12 C23_12 1_555 1_555
H22_12 C29_12 1_555 1_555
O15_5 C26_12 1_555 1_555
O9_8 C33_12 1_555 1_555
O13_7 C33_12 1_555 1_555
C30_12 C34_12 1_555 1_555
C31_12 C32_12 1_555 1_555
C32_12 H23_12 1_555 1_555
C33_12 C31_12 1_555 1_555
C34_12 H24_12 1_555 1_555
C35_12 C30_12 1_555 1_555
H25_12 C35_12 1_555 1_555
C36_12 C31_12 1_555 1_555
H26_12 C36_12 1_555 1_555
Co5_5 O7_12 1_555 1_555
Co5_7 O9_8 1_555 1_555
O11_8 Co5_5 1_555 1_555
O13_8 C9_12 1_555 1_555
C3_12 C13_12 1_555 1_555
C6_12 C10_12 1_555 1_555
C7_12 C9_12 1_555 1_555
C8_12 C12_12 1_555 1_555
C11_12 C14_12 1_555 1_555
C24_12 C29_12 1_555 1_555
C27_12 C28_12 1_555 1_555
C32_12 C35_12 1_555 1_555
C34_12 C36_12 1_555 1_555
O4_13 C3_13 1_555 1_555
C1_13 O5_13 1_555 1_555
O5_13 C30_13 1_555 1_555
C3_13 C6_13 1_555 1_555
C6_13 H2_13 1_555 1_555
C11_13 C1_13 1_555 1_555
H5_13 C11_13 1_555 1_555
C12_13 C1_13 1_555 1_555
H6_13 C12_13 1_555 1_555
H7_13 C13_13 1_555 1_555
O7_13 C26_13 1_555 1_555
C23_13 H19_13 1_555 1_555
C24_13 O4_13 1_555 1_555
C25_13 C23_13 1_555 1_555
C26_13 C25_13 1_555 1_555
C27_13 C24_13 1_555 1_555
H20_13 C27_13 1_555 1_555
C28_13 C25_13 1_555 1_555
H21_13 C28_13 1_555 1_555
C29_13 C23_13 1_555 1_555
H22_13 C29_13 1_555 1_555
O16 C26_13 1_555 1_555
O14_3 C33_13 1_555 1_555
C30_13 C34_13 1_555 1_555
C31_13 C32_13 1_555 1_555
C32_13 H23_13 1_555 1_555
C33_13 C31_13 1_555 1_555
C34_13 H24_13 1_555 1_555
C35_13 C30_13 1_555 1_555
H25_13 C35_13 1_555 1_555
C36_13 C31_13 1_555 1_555
H26_13 C36_13 1_555 1_555
Co7 O7_13 1_555 1_555
C3_13 C13_13 1_555 1_555
C24_13 C29_13 1_555 1_555
C27_13 C28_13 1_555 1_555
C32_13 C35_13 1_555 1_555
C34_13 C36_13 1_555 1_555
Co7_4 O1_13 1_555 1_555
O1_13 C5_13 1_555 1_555
O2_13 Co7_4 1_555 1_555
C2_13 H1_13 1_555 1_555
C4_13 C2_13 1_555 1_555
C5_13 C4_13 1_555 1_555
C7_13 C8_13 1_555 1_555
C8_13 H3_13 1_555 1_555
C9_13 O2_13 1_555 1_555
C10_13 C4_13 1_555 1_555
H4_13 C10_13 1_555 1_555
C14_13 C7_13 1_555 1_555
H8_13 C14_13 1_555 1_555
O16_4 C5_13 1_555 1_555
O14_4 C9_13 1_555 1_555
C7_13 C9_13 1_555 1_555
Co5_6 O1_14 1_555 1_555
O1_14 C5_14 1_555 1_555
O2_14 Co5_6 1_555 1_555
O4_14 C3_14 1_555 1_555
C1_14 O5_14 1_555 1_555
O5_14 C30_14 1_555 1_555
C2_14 H1_14 1_555 1_555
C3_14 C6_14 1_555 1_555
C4_14 C2_14 1_555 1_555
C5_14 C4_14 1_555 1_555
C6_14 H2_14 1_555 1_555
C7_14 C8_14 1_555 1_555
C8_14 H3_14 1_555 1_555
C9_14 O2_14 1_555 1_555
C10_14 C4_14 1_555 1_555
H4_14 C10_14 1_555 1_555
C11_14 C1_14 1_555 1_555
H5_14 C11_14 1_555 1_555
C12_14 C1_14 1_555 1_555
H6_14 C12_14 1_555 1_555
C13_14 C2_14 1_555 1_555
H7_14 C13_14 1_555 1_555
C14_14 C7_14 1_555 1_555
H8_14 C14_14 1_555 1_555
O15_6 C5_14 1_555 1_555
O7_14 C26_14 1_555 1_555
C23_14 H19_14 1_555 1_555
C24_14 O4_14 1_555 1_555
C25_14 C23_14 1_555 1_555
C26_14 C25_14 1_555 1_555
C27_14 C24_14 1_555 1_555
H20_14 C27_14 1_555 1_555
C28_14 C25_14 1_555 1_555
H21_14 C28_14 1_555 1_555
C29_14 C23_14 1_555 1_555
H22_14 C29_14 1_555 1_555
O15_7 C26_14 1_555 1_555
O11_8 C33_14 1_555 1_555
O13_5 C33_14 1_555 1_555
C30_14 C34_14 1_555 1_555
C31_14 C32_14 1_555 1_555
C32_14 H23_14 1_555 1_555
C33_14 C31_14 1_555 1_555
C34_14 H24_14 1_555 1_555
C35_14 C30_14 1_555 1_555
H25_14 C35_14 1_555 1_555
C36_14 C31_14 1_555 1_555
H26_14 C36_14 1_555 1_555
Co5_7 O7_14 1_555 1_555
O13_6 C9_14 1_555 1_555
C3_14 C13_14 1_555 1_555
C6_14 C10_14 1_555 1_555
C7_14 C9_14 1_555 1_555
C8_14 C12_14 1_555 1_555
C11_14 C14_14 1_555 1_555
C24_14 C29_14 1_555 1_555
C27_14 C28_14 1_555 1_555
C32_14 C35_14 1_555 1_555
C34_14 C36_14 1_555 1_555
O4_15 C3_15 1_555 1_555
C1_15 O5_15 1_555 1_555
O5_15 C30_15 1_555 1_555
C3_15 C6_15 1_555 1_555
C6_15 H2_15 1_555 1_555
C11_15 C1_15 1_555 1_555
H5_15 C11_15 1_555 1_555
C12_15 C1_15 1_555 1_555
H6_15 C12_15 1_555 1_555
H7_15 C13_15 1_555 1_555
O7_15 C26_15 1_555 1_555
C23_15 H19_15 1_555 1_555
C24_15 O4_15 1_555 1_555
C25_15 C23_15 1_555 1_555
C26_15 C25_15 1_555 1_555
C27_15 C24_15 1_555 1_555
H20_15 C27_15 1_555 1_555
C28_15 C25_15 1_555 1_555
H21_15 C28_15 1_555 1_555
C29_15 C23_15 1_555 1_555
H22_15 C29_15 1_555 1_555
O16_7 C26_15 1_555 1_555
O11_5 C33_15 1_555 1_555
O14_5 C33_15 1_555 1_555
C30_15 C34_15 1_555 1_555
C31_15 C32_15 1_555 1_555
C32_15 H23_15 1_555 1_555
C33_15 C31_15 1_555 1_555
C34_15 H24_15 1_555 1_555
C35_15 C30_15 1_555 1_555
H25_15 C35_15 1_555 1_555
C36_15 C31_15 1_555 1_555
H26_15 C36_15 1_555 1_555
C3_15 C13_15 1_555 1_555
C24_15 C29_15 1_555 1_555
C27_15 C28_15 1_555 1_555
C32_15 C35_15 1_555 1_555
C34_15 C36_15 1_555 1_555
Co4_2 O1_15 1_555 1_555
O1_15 C5_15 1_555 1_555
O2_15 Co4_2 1_555 1_555
C2_15 H1_15 1_555 1_555
C4_15 C2_15 1_555 1_555
C5_15 C4_15 1_555 1_555
C7_15 C8_15 1_555 1_555
C8_15 H3_15 1_555 1_555
C9_15 O2_15 1_555 1_555
C10_15 C4_15 1_555 1_555
H4_15 C10_15 1_555 1_555
C14_15 C7_15 1_555 1_555
H8_15 C14_15 1_555 1_555
O16_6 C5_15 1_555 1_555
O14_6 C9_15 1_555 1_555
C7_15 C9_15 1_555 1_555
Co5_4 O1_16 1_555 1_555
O1_16 C5_16 1_555 1_555
O2_16 Co5_4 1_555 1_555
O4_16 C3_16 1_555 1_555
C1_16 O5_16 1_555 1_555
O5_16 C30_16 1_555 1_555
C2_16 H1_16 1_555 1_555
C3_16 C6_16 1_555 1_555
C4_16 C2_16 1_555 1_555
C5_16 C4_16 1_555 1_555
C6_16 H2_16 1_555 1_555
C7_16 C8_16 1_555 1_555
C8_16 H3_16 1_555 1_555
C9_16 O2_16 1_555 1_555
C10_16 C4_16 1_555 1_555
H4_16 C10_16 1_555 1_555
C11_16 C1_16 1_555 1_555
H5_16 C11_16 1_555 1_555
C12_16 C1_16 1_555 1_555
H6_16 C12_16 1_555 1_555
C13_16 C2_16 1_555 1_555
H7_16 C13_16 1_555 1_555
C14_16 C7_16 1_555 1_555
H8_16 C14_16 1_555 1_555
O15_4 C5_16 1_555 1_555
O7_16 C26_16 1_555 1_555
C23_16 H19_16 1_555 1_555
C24_16 O4_16 1_555 1_555
C25_16 C23_16 1_555 1_555
C26_16 C25_16 1_555 1_555
C27_16 C24_16 1_555 1_555
H20_16 C27_16 1_555 1_555
C28_16 C25_16 1_555 1_555
H21_16 C28_16 1_555 1_555
C29_16 C23_16 1_555 1_555
H22_16 C29_16 1_555 1_555
O15 C26_16 1_555 1_555
O13_3 C33_16 1_555 1_555
C30_16 C34_16 1_555 1_555
C31_16 C32_16 1_555 1_555
C32_16 H23_16 1_555 1_555
C33_16 C31_16 1_555 1_555
C34_16 H24_16 1_555 1_555
C35_16 C30_16 1_555 1_555
H25_16 C35_16 1_555 1_555
C36_16 C31_16 1_555 1_555
H26_16 C36_16 1_555 1_555
O13_4 C9_16 1_555 1_555
C3_16 C13_16 1_555 1_555
C6_16 C10_16 1_555 1_555
C7_16 C9_16 1_555 1_555
C8_16 C12_16 1_555 1_555
C11_16 C14_16 1_555 1_555
C24_16 C29_16 1_555 1_555
C27_16 C28_16 1_555 1_555
C32_16 C35_16 1_555 1_555
C34_16 C36_16 1_555 1_555

#END
