
###############################################################################
#
# This file contains modified crystal structure data generated from the
# MOF subset of the Cambridge Structural Database (CSD) v543 
# hosted by the Cambridge Crystallographic Data Centre (CCDC).
#
# This work is licensed under the Creative Commons
# Attribution-NonCommercial-ShareAlike 4.0 International License.
# To view a copy of this license, visit
# http://creativecommons.org/licenses/by-nc-sa/4.0/
# or send a letter to
# Creative Commons, PO Box 1866, Mountain View, CA 94042, USA.
#
# CIF created using the CSD Python API on 29 September 2022
# The structure has been converted into the P1 space group
# The structure has a 3D framework
# The original CSD entry KOMMOR01 is in the monoclinic crystal system
# The framework has been calculated to contain at least 10.0% void space
# The void calculation uses a probe of radius 1.32A, grid spacing 0.4
#
###############################################################################

data_KOMMOR01
_chemical_formula_moiety         '(C352 H288 Co13 N32 O80)n'
_symmetry_cell_setting           triclinic
_symmetry_space_group_name_H-M   'P 1'
_symmetry_Int_Tables_number      1
_space_group_name_Hall           'P 1'
loop_
_symmetry_equiv_pos_site_id
_symmetry_equiv_pos_as_xyz
1 x,y,z
_cell_length_a                   31.536(3)
_cell_length_b                   15.5749(18)
_cell_length_c                   23.325(3)
_cell_angle_alpha                90
_cell_angle_beta                 126.413(3)
_cell_angle_gamma                90
_cell_volume                     9219.76
loop_
_atom_site_label
_atom_site_type_symbol
_atom_site_fract_x
_atom_site_fract_y
_atom_site_fract_z
Co11 Co 0.00852(4) 0.50703(6) 0.94656(5)
O16 O 0.0445(2) 0.4044(4) 0.1277(3)
O17 O 0.0539(2) 0.4216(4) 0.0416(3)
O19 O 0.2294(2) 0.1411(4) 0.2241(3)
C69 C 0.1080(3) 0.3183(5) 0.1292(4)
C70 C 0.1304(3) 0.2886(5) 0.1970(4)
H58 H 0.118801 0.309376 0.222850
C72 C 0.1980(3) 0.0372(6) 0.1293(5)
H60 H 0.162951 0.051617 0.107810
C74 C 0.1869(3) 0.1977(5) 0.1884(4)
C75 C 0.2896(3) 0.0558(5) 0.2236(5)
H62 H 0.316197 0.084195 0.264774
C76 C 0.0665(3) 0.3855(5) 0.0975(4)
C77 C 0.1253(4) 0.2866(5) 0.0914(5)
H63 H 0.109681 0.305393 0.045087
C82 C 0.2381(4) 0.0790(6) 0.1898(5)
C83 C 0.1662(4) 0.2265(5) 0.1220(4)
H67 H 0.178807 0.206682 0.097144
C85 C 0.1703(4) 0.2280(5) 0.2271(5)
H69 H 0.185691 0.208063 0.273080
N2 N 0.5532(3) 0.0417(4) 0.4156(4)
C18 C 0.5986(4) 0.0012(6) 0.4382(5)
C31 C 0.6255(4) 0.1126(7) 0.3964(5)
C32 C 0.6349(4) 0.0307(9) 0.4287(6)
C35 C 0.6677(5) 0.1491(10) 0.3909(7)
H21 H 0.688544 0.102130 0.392500
H22 H 0.650615 0.177231 0.345046
C37 C 0.5812(5) 0.1537(7) 0.3782(7)
H24 H 0.574496 0.208415 0.358649
C38 C 0.5457(5) 0.1175(7) 0.3875(7)
H25 H 0.515555 0.148141 0.373254
N3 N 0.7019(3) 0.2087(6) 0.4453(5)
C41 C 0.7394(5) 0.2454(9) 0.4340(6)
H29 H 0.762432 0.200158 0.438895
H30 H 0.719917 0.267295 0.385733
C44 C 0.7294(5) 0.1872(11) 0.5176(7)
H35 H 0.752061 0.138595 0.527691
H36 H 0.704101 0.169131 0.526119
N7 N 0.9468(3) 0.4583(4) 0.5844(4)
C53 C 0.9014(4) 0.4988(6) 0.5618(5)
H47 H 0.894301 0.550797 0.538105
C54 C 0.8745(4) 0.3874(7) 0.6036(5)
C55 C 0.8651(4) 0.4693(9) 0.5713(6)
H48 H 0.835544 0.501480 0.557120
C56 C 0.8323(5) 0.3509(10) 0.6091(7)
H49 H 0.811456 0.397870 0.607500
H50 H 0.849385 0.322769 0.654954
C57 C 0.9188(5) 0.3463(7) 0.6218(7)
H51 H 0.925504 0.291585 0.641351
C58 C 0.9543(5) 0.3825(7) 0.6125(7)
H52 H 0.984445 0.351859 0.626746
N8 N 0.7981(3) 0.2913(6) 0.5547(5)
C59 C 0.7606(5) 0.2546(9) 0.5660(6)
H53 H 0.737568 0.299842 0.561105
H54 H 0.780083 0.232705 0.614267
C60 C 0.7706(5) 0.3128(11) 0.4824(7)
H55 H 0.747939 0.361405 0.472309
H56 H 0.795899 0.330869 0.473881
Co8 Co 0.49148(4) 0.00703(6) 0.55344(5)
Co9 Co 0.99148(4) 0.50703(6) 0.55344(5)
O24 O 0.4579(2) 0.0907(4) 0.4070(3)
O28 O 0.5539(2) 0.0784(4) 0.5416(3)
C43 C 0.5346(5) 0.4299(9) 0.0245(7)
H33 H 0.566908 0.403955 0.036610
H34 H 0.517148 0.389243 0.035647
N5 N 0.3782(2) 0.7238(4) 0.0814(4)
C45 C 0.4179(4) 0.7722(6) 0.0974(7)
H37 H 0.417181 0.829910 0.106928
C46 C 0.4648(4) 0.6596(8) 0.0913(6)
C47 C 0.4616(5) 0.7424(8) 0.1011(8)
H38 H 0.487719 0.780311 0.110129
C48 C 0.3822(4) 0.6416(7) 0.0708(6)
H39 H 0.355564 0.604588 0.061255
C49 C 0.4235(4) 0.6079(8) 0.0729(7)
H40 H 0.423283 0.550404 0.061965
C50 C 0.5121(4) 0.6263(10) 0.0954(8)
H41 H 0.540415 0.612679 0.144533
H42 H 0.524546 0.671311 0.079969
N6 N 0.4995(3) 0.5490(7) 0.0508(5)
C51 C 0.5470(5) 0.5112(11) 0.0669(7)
H43 H 0.564441 0.551663 0.055608
H44 H 0.570720 0.498356 0.117398
Co4 Co 0.30742(4) 0.76980(7) 0.05510(6)
O11 O 0.2085(2) 0.6514(3) 0.0236(3)
O12 O 0.4388(2) 0.0968(3) 0.4844(3)
O13 O 0.2958(2) 0.6700(3) 0.0975(3)
O15 O 0.3233(2) 0.8635(4) 0.1272(3)
O18 O 0.2393(2) 0.8382(4) 0.0496(3)
O20 O 0.2740(2) 0.3645(4) 0.2562(3)
C61 C 0.3929(3) 0.1898(5) 0.3851(4)
C62 C 0.4335(3) 0.1215(4) 0.4286(4)
C63 C 0.2542(3) 0.6327(5) 0.0784(4)
C64 C 0.2625(4) 0.9488(5) 0.1326(5)
C65 C 0.2593(3) 0.5613(5) 0.1242(4)
C66 C 0.2730(4) 0.4286(6) 0.2141(5)
C67 C 0.2749(4) 0.8808(5) 0.1016(5)
C68 C 0.3590(3) 0.2174(5) 0.3994(4)
H57 H 0.362309 0.195444 0.438988
C71 C 0.3023(3) 0.9883(5) 0.1956(5)
H59 H 0.337085 0.970489 0.219277
C73 C 0.2161(3) 0.5223(5) 0.1137(5)
H61 H 0.182394 0.540646 0.077021
C78 C 0.2227(3) 0.4548(5) 0.1582(4)
H64 H 0.193421 0.427571 0.150237
C79 C 0.3196(3) 0.2776(5) 0.3566(5)
H65 H 0.296373 0.294756 0.366573
C80 C 0.3160(3) 0.3109(5) 0.2990(5)
C81 C 0.2110(4) 0.9731(6) 0.1010(5)
H66 H 0.184240 0.945608 0.059370
C84 C 0.3880(4) 0.2227(5) 0.3265(4)
H68 H 0.410901 0.204118 0.316345
C86 C 0.3103(3) 0.5329(5) 0.1819(5)
H70 H 0.339869 0.559139 0.189949
C87 C 0.3495(4) 0.2828(6) 0.2823(5)
H71 H 0.346174 0.303871 0.242485
C88 C 0.3169(4) 0.4674(6) 0.2263(5)
H72 H 0.350500 0.449582 0.263866
Co13 Co 0.80742(4) 0.26980(7) 0.05510(6)
O22 O 0.7085(2) 0.1514(3) 0.0236(3)
O25 O 0.5445(2) 0.0956(4) 0.6277(3)
Co1 Co 0.50852(4) 0.99297(6) 0.44656(5)
Co2 Co 0.69258(4) 0.23020(7) 0.94490(6)
O1 O 0.7915(2) 0.3486(3) 0.9764(3)
O2 O 0.5612(2) 0.9032(3) 0.5156(3)
O3 O 0.7042(2) 0.3300(3) 0.9025(3)
O4 O 0.5421(2) 0.9093(4) 0.5930(3)
O5 O 0.6767(2) 0.1365(4) 0.8728(3)
O8 O 0.7607(2) 0.1618(4) 0.9504(3)
N1 N 0.6218(2) 0.2762(4) 0.9186(4)
O10 O 0.7260(2) 0.6355(4) 0.7438(3)
C1 C 0.6071(3) 0.8102(5) 0.6149(4)
C2 C 0.5665(3) 0.8785(4) 0.5714(4)
C3 C 0.7458(3) 0.3673(5) 0.9216(4)
C4 C 0.7375(4) 0.0512(5) 0.8674(5)
C5 C 0.7407(3) 0.4387(5) 0.8758(4)
C6 C 0.7270(4) 0.5714(6) 0.7859(5)
C7 C 0.7251(4) 0.1192(5) 0.8984(5)
C8 C 0.6410(3) 0.7826(5) 0.6006(4)
H1 H 0.637691 0.804556 0.561012
C11 C 0.6977(3) 0.0117(5) 0.8044(5)
H3 H 0.662915 0.029511 0.780723
C13 C 0.7839(3) 0.4777(5) 0.8863(5)
H5 H 0.817606 0.459354 0.922979
H8 H 0.605699 0.949203 0.461895
C19 C 0.7773(3) 0.5452(5) 0.8418(4)
H9 H 0.806579 0.572429 0.849763
C20 C 0.6804(3) 0.7224(5) 0.6434(5)
H10 H 0.703627 0.705244 0.633427
C21 C 0.6840(3) 0.6891(5) 0.7010(5)
C22 C 0.7890(4) 0.0269(6) 0.8990(5)
H11 H 0.815760 0.054392 0.940630
C25 C 0.6120(4) 0.7773(5) 0.6735(4)
H13 H 0.589099 0.795882 0.683655
C27 C 0.6897(3) 0.4671(5) 0.8181(5)
H15 H 0.660131 0.440861 0.810051
C28 C 0.5821(4) 0.2278(6) 0.9026(7)
H16 H 0.582819 0.170090 0.893072
C29 C 0.6505(4) 0.7172(6) 0.7177(5)
H17 H 0.653826 0.696129 0.757515
C30 C 0.6831(4) 0.5326(6) 0.7737(5)
H18 H 0.649500 0.550418 0.736134
H19 H 0.664456 0.998520 0.442880
C33 C 0.5352(4) 0.3404(8) 0.9087(6)
C34 C 0.5384(5) 0.2576(8) 0.8989(8)
H20 H 0.512281 0.219689 0.889871
C36 C 0.6178(4) 0.3584(7) 0.9292(6)
H23 H 0.644436 0.395412 0.938745
C39 C 0.5765(4) 0.3921(8) 0.9271(7)
H26 H 0.576717 0.449596 0.938035
C40 C 0.4879(4) 0.3737(10) 0.9046(8)
H27 H 0.459585 0.387321 0.855467
H28 H 0.475454 0.328689 0.920031
N4 N 0.5005(3) 0.4510(7) 0.9492(5)
C42 C 0.4530(5) 0.4888(11) 0.9331(7)
H31 H 0.435559 0.448337 0.944392
H32 H 0.429280 0.501644 0.882602
C52 C 0.4654(5) 0.5701(9) 0.9755(7)
H45 H 0.433092 0.596045 0.963390
H46 H 0.482852 0.610757 0.964353
Co12 Co 0.19258(4) 0.73020(7) 0.94490(6)
O21 O 0.2915(2) 0.8486(3) 0.9764(3)
O26 O 0.4555(2) 0.9044(4) 0.3723(3)
O30 O 0.4461(2) 0.9216(4) 0.4584(3)
Co7 Co 0.99148(4) 0.49297(6) 0.05344(5)
N9 N 0.4468(3) 0.9583(4) 0.5844(4)
O6 O 0.9555(2) 0.5956(4) 0.8723(3)
O7 O 0.9461(2) 0.5784(4) 0.9584(3)
O9 O 0.7706(2) 0.8589(4) 0.7759(3)
C9 C 0.8920(3) 0.6817(5) 0.8708(4)
C10 C 0.8696(3) 0.7114(5) 0.8030(4)
H2 H 0.881199 0.690624 0.777150
C12 C 0.8020(3) 0.9628(6) 0.8707(5)
H4 H 0.837049 0.948383 0.892190
C14 C 0.8131(3) 0.8023(5) 0.8116(4)
C15 C 0.7104(3) 0.9442(5) 0.7764(5)
H6 H 0.683803 0.915805 0.735226
C16 C 0.9335(3) 0.6145(5) 0.9025(4)
C17 C 0.8747(4) 0.7134(5) 0.9086(5)
H7 H 0.890319 0.694607 0.954913
C23 C 0.7619(4) 0.9210(6) 0.8102(5)
C24 C 0.8338(4) 0.7735(5) 0.8780(4)
H12 H 0.821193 0.793318 0.902856
C26 C 0.8297(4) 0.7720(5) 0.7729(5)
H14 H 0.814309 0.791937 0.726920
Co6 Co 0.00852(4) 0.49297(6) 0.44656(5)
N2_2 N 0.4468(3) 0.0417(4) 0.0844(4)
C18_2 C 0.4014(4) 0.0012(6) 0.0618(5)
C31_2 C 0.3745(4) 0.1126(7) 0.1036(5)
C32_2 C 0.3651(4) 0.0307(9) 0.0713(6)
C35_2 C 0.3323(5) 0.1491(10) 0.1091(7)
H21_2 H 0.311456 0.102130 0.107500
H22_2 H 0.349385 0.177231 0.154954
C37_2 C 0.4188(5) 0.1537(7) 0.1218(7)
H24_2 H 0.425504 0.208415 0.141351
C38_2 C 0.4543(5) 0.1175(7) 0.1125(7)
H25_2 H 0.484445 0.148141 0.126746
N3_2 N 0.2981(3) 0.2087(6) 0.0547(5)
C41_2 C 0.2606(5) 0.2454(9) 0.0660(6)
H29_2 H 0.237568 0.200158 0.061105
H30_2 H 0.280083 0.267295 0.114267
C60_2 C 0.2294(5) 0.3128(11) 0.0176(7)
H55_2 H 0.252061 0.361405 0.027691
H56_2 H 0.204101 0.330869 0.026119
O24_2 O 0.5421(2) 0.0907(4) 0.0930(3)
C44_2 C 0.2706(5) 0.1872(11) 0.9824(7)
H35_2 H 0.247939 0.138595 0.972309
H36_2 H 0.295899 0.169131 0.973881
N7_2 N 0.0532(3) 0.4583(4) 0.9156(4)
C53_2 C 0.0986(4) 0.4988(6) 0.9382(5)
H47_2 H 0.105699 0.550797 0.961895
C54_2 C 0.1255(4) 0.3874(7) 0.8964(5)
C55_2 C 0.1349(4) 0.4693(9) 0.9287(6)
H48_2 H 0.164456 0.501480 0.942880
C56_2 C 0.1677(5) 0.3509(10) 0.8909(7)
H49_2 H 0.188544 0.397870 0.892500
H50_2 H 0.150615 0.322769 0.845046
C57_2 C 0.0812(5) 0.3463(7) 0.8782(7)
H51_2 H 0.074496 0.291585 0.858649
C58_2 C 0.0457(5) 0.3825(7) 0.8875(7)
H52_2 H 0.015555 0.351859 0.873254
N8_2 N 0.2019(3) 0.2913(6) 0.9453(5)
C59_2 C 0.2394(5) 0.2546(9) 0.9340(6)
H53_2 H 0.262432 0.299842 0.938895
H54_2 H 0.219917 0.232705 0.885733
O16_2 O 0.9555(2) 0.4044(4) 0.3723(3)
O17_2 O 0.9461(2) 0.4216(4) 0.4584(3)
O19_2 O 0.7706(2) 0.1411(4) 0.2759(3)
C69_2 C 0.8920(3) 0.3183(5) 0.3708(4)
C70_2 C 0.8696(3) 0.2886(5) 0.3030(4)
H58_2 H 0.881199 0.309376 0.277150
C72_2 C 0.8020(3) 0.0372(6) 0.3707(5)
H60_2 H 0.837049 0.051617 0.392190
C74_2 C 0.8131(3) 0.1977(5) 0.3116(4)
C75_2 C 0.7104(3) 0.0558(5) 0.2764(5)
H62_2 H 0.683803 0.084195 0.235226
C76_2 C 0.9335(3) 0.3855(5) 0.4025(4)
C77_2 C 0.8747(4) 0.2866(5) 0.4086(5)
H63_2 H 0.890319 0.305393 0.454913
C82_2 C 0.7619(4) 0.0790(6) 0.3102(5)
C83_2 C 0.8338(4) 0.2265(5) 0.3780(4)
H67_2 H 0.821193 0.206682 0.402856
C85_2 C 0.8297(4) 0.2280(5) 0.2729(5)
H69_2 H 0.814309 0.208063 0.226920
Co8_2 Co 0.50852(4) 0.00703(6) 0.94656(5)
O28_2 O 0.4461(2) 0.0784(4) 0.9584(3)
Co1_2 Co 0.49148(4) 0.99297(6) 0.05344(5)
H8_2 H 0.394301 0.949203 0.038105
H19_2 H 0.335544 0.998520 0.057120
O26_2 O 0.5445(2) 0.9044(4) 0.1277(3)
O30_2 O 0.5539(2) 0.9216(4) 0.0416(3)
Co2_2 Co 0.30742(4) 0.23020(7) 0.55510(6)
O1_2 O 0.2085(2) 0.3486(3) 0.5236(3)
O2_2 O 0.4388(2) 0.9032(3) 0.9844(3)
O3_2 O 0.2958(2) 0.3300(3) 0.5975(3)
O4_2 O 0.4579(2) 0.9093(4) 0.9070(3)
O5_2 O 0.3233(2) 0.1365(4) 0.6272(3)
O8_2 O 0.2393(2) 0.1618(4) 0.5496(3)
N1_2 N 0.3782(2) 0.2762(4) 0.5814(4)
O10_2 O 0.2740(2) 0.6355(4) 0.7562(3)
C1_2 C 0.3929(3) 0.8102(5) 0.8851(4)
C2_2 C 0.4335(3) 0.8785(4) 0.9286(4)
C3_2 C 0.2542(3) 0.3673(5) 0.5784(4)
C4_2 C 0.2625(4) 0.0512(5) 0.6326(5)
C5_2 C 0.2593(3) 0.4387(5) 0.6242(4)
C6_2 C 0.2730(4) 0.5714(6) 0.7141(5)
C7_2 C 0.2749(4) 0.1192(5) 0.6016(5)
C8_2 C 0.3590(3) 0.7826(5) 0.8994(4)
H1_2 H 0.362309 0.804556 0.938988
C11_2 C 0.3023(3) 0.0117(5) 0.6956(5)
H3_2 H 0.337085 0.029511 0.719277
C13_2 C 0.2161(3) 0.4777(5) 0.6137(5)
H5_2 H 0.182394 0.459354 0.577021
C19_2 C 0.2227(3) 0.5452(5) 0.6582(4)
H9_2 H 0.193421 0.572429 0.650237
C20_2 C 0.3196(3) 0.7224(5) 0.8566(5)
H10_2 H 0.296373 0.705244 0.866573
C21_2 C 0.3160(3) 0.6891(5) 0.7990(5)
C22_2 C 0.2110(4) 0.0269(6) 0.6010(5)
H11_2 H 0.184240 0.054392 0.559370
C25_2 C 0.3880(4) 0.7773(5) 0.8265(4)
H13_2 H 0.410901 0.795882 0.816345
C27_2 C 0.3103(3) 0.4671(5) 0.6819(5)
H15_2 H 0.339869 0.440861 0.689949
C28_2 C 0.4179(4) 0.2278(6) 0.5974(7)
H16_2 H 0.417181 0.170090 0.606928
C29_2 C 0.3495(4) 0.7172(6) 0.7823(5)
H17_2 H 0.346174 0.696129 0.742485
C30_2 C 0.3169(4) 0.5326(6) 0.7263(5)
H18_2 H 0.350500 0.550418 0.763866
C33_2 C 0.4648(4) 0.3404(8) 0.5913(6)
C34_2 C 0.4616(5) 0.2576(8) 0.6011(8)
H20_2 H 0.487719 0.219689 0.610129
C36_2 C 0.3822(4) 0.3584(7) 0.5708(6)
H23_2 H 0.355564 0.395412 0.561255
C39_2 C 0.4235(4) 0.3921(8) 0.5729(7)
H26_2 H 0.423283 0.449596 0.561965
C40_2 C 0.5121(4) 0.3737(10) 0.5954(8)
H27_2 H 0.540415 0.387321 0.644533
H28_2 H 0.524546 0.328689 0.579969
N4_2 N 0.4995(3) 0.4510(7) 0.5508(5)
C42_2 C 0.5470(5) 0.4888(11) 0.5669(7)
H31_2 H 0.564441 0.448337 0.555608
H32_2 H 0.570720 0.501644 0.617398
C43_2 C 0.4654(5) 0.4299(9) 0.4755(7)
H33_2 H 0.433092 0.403955 0.463390
H34_2 H 0.482852 0.389243 0.464353
N5_2 N 0.6218(2) 0.7238(4) 0.4186(4)
C45_2 C 0.5821(4) 0.7722(6) 0.4026(7)
H37_2 H 0.582819 0.829910 0.393072
C46_2 C 0.5352(4) 0.6596(8) 0.4087(6)
C47_2 C 0.5384(5) 0.7424(8) 0.3989(8)
H38_2 H 0.512281 0.780311 0.389871
C48_2 C 0.6178(4) 0.6416(7) 0.4292(6)
H39_2 H 0.644436 0.604588 0.438745
C49_2 C 0.5765(4) 0.6079(8) 0.4271(7)
H40_2 H 0.576717 0.550404 0.438035
C50_2 C 0.4879(4) 0.6263(10) 0.4046(8)
H41_2 H 0.459585 0.612679 0.355467
H42_2 H 0.475454 0.671311 0.420031
N6_2 N 0.5005(3) 0.5490(7) 0.4492(5)
C51_2 C 0.4530(5) 0.5112(11) 0.4331(7)
H43_2 H 0.435559 0.551663 0.444392
H44_2 H 0.429280 0.498356 0.382602
C52_2 C 0.5346(5) 0.5701(9) 0.5245(7)
H45_2 H 0.566908 0.596045 0.536610
H46_2 H 0.517148 0.610757 0.535647
Co4_2 Co 0.69258(4) 0.76980(7) 0.44490(6)
O11_2 O 0.7915(2) 0.6514(3) 0.4764(3)
O12_2 O 0.5612(2) 0.0968(3) 0.0156(3)
O13_2 O 0.7042(2) 0.6700(3) 0.4025(3)
O15_2 O 0.6767(2) 0.8635(4) 0.3728(3)
O18_2 O 0.7607(2) 0.8382(4) 0.4504(3)
O20_2 O 0.7260(2) 0.3645(4) 0.2438(3)
C61_2 C 0.6071(3) 0.1898(5) 0.1149(4)
C62_2 C 0.5665(3) 0.1215(4) 0.0714(4)
C63_2 C 0.7458(3) 0.6327(5) 0.4216(4)
C64_2 C 0.7375(4) 0.9488(5) 0.3674(5)
C65_2 C 0.7407(3) 0.5613(5) 0.3758(4)
C66_2 C 0.7270(4) 0.4286(6) 0.2859(5)
C67_2 C 0.7251(4) 0.8808(5) 0.3984(5)
C68_2 C 0.6410(3) 0.2174(5) 0.1006(4)
H57_2 H 0.637691 0.195444 0.061012
C71_2 C 0.6977(3) 0.9883(5) 0.3044(5)
H59_2 H 0.662915 0.970489 0.280723
C73_2 C 0.7839(3) 0.5223(5) 0.3863(5)
H61_2 H 0.817606 0.540646 0.422979
C78_2 C 0.7773(3) 0.4548(5) 0.3418(4)
H64_2 H 0.806579 0.427571 0.349763
C79_2 C 0.6804(3) 0.2776(5) 0.1434(5)
H65_2 H 0.703627 0.294756 0.133427
C80_2 C 0.6840(3) 0.3109(5) 0.2010(5)
C81_2 C 0.7890(4) 0.9731(6) 0.3990(5)
H66_2 H 0.815760 0.945608 0.440630
C84_2 C 0.6120(4) 0.2227(5) 0.1735(4)
H68_2 H 0.589099 0.204118 0.183655
C86_2 C 0.6897(3) 0.5329(5) 0.3181(5)
H70_2 H 0.660131 0.559139 0.310051
C87_2 C 0.6505(4) 0.2828(6) 0.2177(5)
H71_2 H 0.653826 0.303871 0.257515
C88_2 C 0.6831(4) 0.4674(6) 0.2737(5)
H72_2 H 0.649500 0.449582 0.236134
Co12_2 Co 0.80742(4) 0.73020(7) 0.55510(6)
Co13_2 Co 0.19258(4) 0.26980(7) 0.44490(6)
O21_2 O 0.7085(2) 0.8486(3) 0.5236(3)
O22_2 O 0.2915(2) 0.1514(3) 0.4764(3)
O25_2 O 0.4555(2) 0.0956(4) 0.8723(3)
O6_2 O 0.0445(2) 0.5956(4) 0.6277(3)
O7_2 O 0.0539(2) 0.5784(4) 0.5416(3)
O9_2 O 0.2294(2) 0.8589(4) 0.7241(3)
C9_2 C 0.1080(3) 0.6817(5) 0.6292(4)
C10_2 C 0.1304(3) 0.7114(5) 0.6970(4)
H2_2 H 0.118801 0.690624 0.722850
C12_2 C 0.1980(3) 0.9628(6) 0.6293(5)
H4_2 H 0.162951 0.948383 0.607810
C14_2 C 0.1869(3) 0.8023(5) 0.6884(4)
C15_2 C 0.2896(3) 0.9442(5) 0.7236(5)
H6_2 H 0.316197 0.915805 0.764774
C16_2 C 0.0665(3) 0.6145(5) 0.5975(4)
C17_2 C 0.1253(4) 0.7134(5) 0.5914(5)
H7_2 H 0.109681 0.694607 0.545087
C23_2 C 0.2381(4) 0.9210(6) 0.6898(5)
C24_2 C 0.1662(4) 0.7735(5) 0.6220(4)
H12_2 H 0.178807 0.793318 0.597144
C26_2 C 0.1703(4) 0.7720(5) 0.7271(5)
H14_2 H 0.185691 0.791937 0.773080
N9_2 N 0.5532(3) 0.9583(4) 0.9156(4)
H47_3 H 0.394301 0.050797 0.538105
H48_3 H 0.335544 0.001480 0.557120
O2_3 O 0.0612(2) 0.4032(3) 0.5156(3)
O4_3 O 0.0421(2) 0.4093(4) 0.5930(3)
O10_3 O 0.2260(2) 0.1355(4) 0.7438(3)
N2_3 N 0.0532(3) 0.5417(4) 0.4156(4)
C1_3 C 0.1071(3) 0.3102(5) 0.6149(4)
C2_3 C 0.0665(3) 0.3785(4) 0.5714(4)
C6_3 C 0.2270(4) 0.0714(6) 0.7859(5)
C8_3 C 0.1410(3) 0.2826(5) 0.6006(4)
H1_3 H 0.137691 0.304556 0.561012
C18_3 C 0.0986(4) 0.5012(6) 0.4382(5)
H8_3 H 0.105699 0.449203 0.461895
C19_3 C 0.2773(3) 0.0452(5) 0.8418(4)
H9_3 H 0.306579 0.072429 0.849763
C20_3 C 0.1804(3) 0.2224(5) 0.6434(5)
H10_3 H 0.203627 0.205244 0.633427
C21_3 C 0.1840(3) 0.1891(5) 0.7010(5)
C25_3 C 0.1120(4) 0.2773(5) 0.6735(4)
H13_3 H 0.089099 0.295882 0.683655
C29_3 C 0.1505(4) 0.2172(6) 0.7177(5)
H17_3 H 0.153826 0.196129 0.757515
C30_3 C 0.1831(4) 0.0326(6) 0.7737(5)
H18_3 H 0.149500 0.050418 0.736134
C31_3 C 0.1255(4) 0.6126(7) 0.3964(5)
C32_3 C 0.1349(4) 0.5307(9) 0.4287(6)
H19_3 H 0.164456 0.498520 0.442880
C35_3 C 0.1677(5) 0.6491(10) 0.3909(7)
H21_3 H 0.188544 0.602130 0.392500
H22_3 H 0.150615 0.677231 0.345046
C37_3 C 0.0812(5) 0.6537(7) 0.3782(7)
H24_3 H 0.074496 0.708415 0.358649
C38_3 C 0.0457(5) 0.6175(7) 0.3875(7)
H25_3 H 0.015555 0.648141 0.373254
N3_3 N 0.2019(3) 0.7087(6) 0.4453(5)
C41_3 C 0.2394(5) 0.7454(9) 0.4340(6)
H29_3 H 0.262432 0.700158 0.438895
H30_3 H 0.219917 0.767295 0.385733
C44_3 C 0.2294(5) 0.6872(11) 0.5176(7)
H35_3 H 0.252061 0.638595 0.527691
H36_3 H 0.204101 0.669131 0.526119
C53_3 C 0.4014(4) 0.9988(6) 0.5618(5)
C54_3 C 0.3745(4) 0.8874(7) 0.6036(5)
C55_3 C 0.3651(4) 0.9693(9) 0.5713(6)
C56_3 C 0.3323(5) 0.8509(10) 0.6091(7)
H49_3 H 0.311456 0.897870 0.607500
H50_3 H 0.349385 0.822769 0.654954
C57_3 C 0.4188(5) 0.8463(7) 0.6218(7)
H51_3 H 0.425504 0.791585 0.641351
C58_3 C 0.4543(5) 0.8825(7) 0.6125(7)
H52_3 H 0.484445 0.851859 0.626746
N8_3 N 0.2981(3) 0.7913(6) 0.5547(5)
C59_3 C 0.2606(5) 0.7546(9) 0.5660(6)
H53_3 H 0.237568 0.799842 0.561105
H54_3 H 0.280083 0.732705 0.614267
C60_3 C 0.2706(5) 0.8128(11) 0.4824(7)
H55_3 H 0.247939 0.861405 0.472309
H56_3 H 0.295899 0.830869 0.473881
C43_3 C 0.0346(5) 0.9299(9) 0.0245(7)
H33_3 H 0.066908 0.903955 0.036610
H34_3 H 0.017148 0.889243 0.035647
H44_3 H 0.070720 0.998356 0.117398
O3_3 O 0.2042(2) 0.8300(3) 0.9025(3)
O5_3 O 0.1767(2) 0.6365(4) 0.8728(3)
O8_3 O 0.2607(2) 0.6618(4) 0.9504(3)
O9_3 O 0.2706(2) 0.3589(4) 0.7759(3)
N1_3 N 0.1218(2) 0.7762(4) 0.9186(4)
C3_3 C 0.2458(3) 0.8673(5) 0.9216(4)
C4_3 C 0.2375(4) 0.5512(5) 0.8674(5)
C5_3 C 0.2407(3) 0.9387(5) 0.8758(4)
C7_3 C 0.2251(4) 0.6192(5) 0.8984(5)
C9_3 C 0.3920(3) 0.1817(5) 0.8708(4)
C10_3 C 0.3696(3) 0.2114(5) 0.8030(4)
H2_3 H 0.381199 0.190624 0.777150
C11_3 C 0.1977(3) 0.5117(5) 0.8044(5)
H3_3 H 0.162915 0.529511 0.780723
C12_3 C 0.3020(3) 0.4628(6) 0.8707(5)
H4_3 H 0.337049 0.448383 0.892190
C13_3 C 0.2839(3) 0.9777(5) 0.8863(5)
H5_3 H 0.317606 0.959354 0.922979
C14_3 C 0.3131(3) 0.3023(5) 0.8116(4)
C15_3 C 0.2104(3) 0.4442(5) 0.7764(5)
H6_3 H 0.183803 0.415805 0.735226
C16_3 C 0.4335(3) 0.1145(5) 0.9025(4)
C17_3 C 0.3747(4) 0.2134(5) 0.9086(5)
H7_3 H 0.390319 0.194607 0.954913
C22_3 C 0.2890(4) 0.5269(6) 0.8990(5)
H11_3 H 0.315760 0.554392 0.940630
C23_3 C 0.2619(4) 0.4210(6) 0.8102(5)
C24_3 C 0.3338(4) 0.2735(5) 0.8780(4)
H12_3 H 0.321193 0.293318 0.902856
C26_3 C 0.3297(4) 0.2720(5) 0.7729(5)
H14_3 H 0.314309 0.291937 0.726920
C27_3 C 0.1897(3) 0.9671(5) 0.8181(5)
H15_3 H 0.160131 0.940861 0.810051
C28_3 C 0.0821(4) 0.7278(6) 0.9026(7)
H16_3 H 0.082819 0.670090 0.893072
C33_3 C 0.0352(4) 0.8404(8) 0.9087(6)
C34_3 C 0.0384(5) 0.7576(8) 0.8989(8)
H20_3 H 0.012281 0.719689 0.889871
C36_3 C 0.1178(4) 0.8584(7) 0.9292(6)
H23_3 H 0.144436 0.895412 0.938745
C39_3 C 0.0765(4) 0.8921(8) 0.9271(7)
H26_3 H 0.076717 0.949596 0.938035
N4_3 N 0.0005(3) 0.9510(7) 0.9492(5)
N5_3 N 0.8782(2) 0.2238(4) 0.0814(4)
C45_3 C 0.9179(4) 0.2722(6) 0.0974(7)
H37_3 H 0.917181 0.329910 0.106928
C46_3 C 0.9648(4) 0.1596(8) 0.0913(6)
C47_3 C 0.9616(5) 0.2424(8) 0.1011(8)
H38_3 H 0.987719 0.280311 0.110129
C48_3 C 0.8822(4) 0.1416(7) 0.0708(6)
H39_3 H 0.855564 0.104588 0.061255
C49_3 C 0.9235(4) 0.1079(8) 0.0729(7)
H40_3 H 0.923283 0.050404 0.061965
N6_3 N 0.9995(3) 0.0490(7) 0.0508(5)
O13_3 O 0.7958(2) 0.1700(3) 0.0975(3)
O15_3 O 0.8233(2) 0.3635(4) 0.1272(3)
O18_3 O 0.7393(2) 0.3382(4) 0.0496(3)
O19_3 O 0.7294(2) 0.6411(4) 0.2241(3)
C63_3 C 0.7542(3) 0.1327(5) 0.0784(4)
C64_3 C 0.7625(4) 0.4488(5) 0.1326(5)
C65_3 C 0.7593(3) 0.0613(5) 0.1242(4)
C67_3 C 0.7749(4) 0.3808(5) 0.1016(5)
C69_3 C 0.6080(3) 0.8183(5) 0.1292(4)
C70_3 C 0.6304(3) 0.7886(5) 0.1970(4)
H58_3 H 0.618801 0.809376 0.222850
C71_3 C 0.8023(3) 0.4883(5) 0.1956(5)
H59_3 H 0.837085 0.470489 0.219277
C72_3 C 0.6980(3) 0.5372(6) 0.1293(5)
H60_3 H 0.662951 0.551617 0.107810
C73_3 C 0.7161(3) 0.0223(5) 0.1137(5)
H61_3 H 0.682394 0.040646 0.077021
C74_3 C 0.6869(3) 0.6977(5) 0.1884(4)
C75_3 C 0.7896(3) 0.5558(5) 0.2236(5)
H62_3 H 0.816197 0.584195 0.264774
C76_3 C 0.5665(3) 0.8855(5) 0.0975(4)
C77_3 C 0.6253(4) 0.7866(5) 0.0914(5)
H63_3 H 0.609681 0.805393 0.045087
C81_3 C 0.7110(4) 0.4731(6) 0.1010(5)
H66_3 H 0.684240 0.445608 0.059370
C82_3 C 0.7381(4) 0.5790(6) 0.1898(5)
C83_3 C 0.6662(4) 0.7265(5) 0.1220(4)
H67_3 H 0.678807 0.706682 0.097144
C85_3 C 0.6703(4) 0.7280(5) 0.2271(5)
H69_3 H 0.685691 0.708063 0.273080
C86_3 C 0.8103(3) 0.0329(5) 0.1819(5)
H70_3 H 0.839869 0.059139 0.189949
H32_3 H 0.929280 0.001644 0.882602
C52_3 C 0.9654(5) 0.0701(9) 0.9755(7)
H45_3 H 0.933092 0.096045 0.963390
H46_3 H 0.982852 0.110757 0.964353
O24_3 O 0.9579(2) 0.5907(4) 0.4070(3)
O12_3 O 0.9388(2) 0.5968(3) 0.4844(3)
O20_3 O 0.7740(2) 0.8645(4) 0.2562(3)
C61_3 C 0.8929(3) 0.6898(5) 0.3851(4)
C62_3 C 0.9335(3) 0.6215(4) 0.4286(4)
C66_3 C 0.7730(4) 0.9286(6) 0.2141(5)
C68_3 C 0.8590(3) 0.7174(5) 0.3994(4)
H57_3 H 0.862309 0.695444 0.438988
C78_3 C 0.7227(3) 0.9548(5) 0.1582(4)
H64_3 H 0.693421 0.927571 0.150237
C79_3 C 0.8196(3) 0.7776(5) 0.3566(5)
H65_3 H 0.796373 0.794756 0.366573
C80_3 C 0.8160(3) 0.8109(5) 0.2990(5)
C84_3 C 0.8880(4) 0.7227(5) 0.3265(4)
H68_3 H 0.910901 0.704118 0.316345
C87_3 C 0.8495(4) 0.7828(6) 0.2823(5)
H71_3 H 0.846174 0.803871 0.242485
C88_3 C 0.8169(4) 0.9674(6) 0.2263(5)
H72_3 H 0.850500 0.949582 0.263866
O24_4 O 0.0421(2) 0.5907(4) 0.0930(3)
H32_4 H 0.070720 0.001644 0.617398
N5_4 N 0.1218(2) 0.2238(4) 0.4186(4)
C45_4 C 0.0821(4) 0.2722(6) 0.4026(7)
H37_4 H 0.082819 0.329910 0.393072
C46_4 C 0.0352(4) 0.1596(8) 0.4087(6)
C47_4 C 0.0384(5) 0.2424(8) 0.3989(8)
H38_4 H 0.012281 0.280311 0.389871
C48_4 C 0.1178(4) 0.1416(7) 0.4292(6)
H39_4 H 0.144436 0.104588 0.438745
C49_4 C 0.0765(4) 0.1079(8) 0.4271(7)
H40_4 H 0.076717 0.050404 0.438035
N6_4 N 0.0005(3) 0.0490(7) 0.4492(5)
C52_4 C 0.0346(5) 0.0701(9) 0.5245(7)
H45_4 H 0.066908 0.096045 0.536610
H46_4 H 0.017148 0.110757 0.535647
O13_4 O 0.2042(2) 0.1700(3) 0.4025(3)
O15_4 O 0.1767(2) 0.3635(4) 0.3728(3)
O18_4 O 0.2607(2) 0.3382(4) 0.4504(3)
O19_4 O 0.2706(2) 0.6411(4) 0.2759(3)
C63_4 C 0.2458(3) 0.1327(5) 0.4216(4)
C64_4 C 0.2375(4) 0.4488(5) 0.3674(5)
C65_4 C 0.2407(3) 0.0613(5) 0.3758(4)
C67_4 C 0.2251(4) 0.3808(5) 0.3984(5)
C69_4 C 0.3920(3) 0.8183(5) 0.3708(4)
C70_4 C 0.3696(3) 0.7886(5) 0.3030(4)
H58_4 H 0.381199 0.809376 0.277150
C71_4 C 0.1977(3) 0.4883(5) 0.3044(5)
H59_4 H 0.162915 0.470489 0.280723
C72_4 C 0.3020(3) 0.5372(6) 0.3707(5)
H60_4 H 0.337049 0.551617 0.392190
C73_4 C 0.2839(3) 0.0223(5) 0.3863(5)
H61_4 H 0.317606 0.040646 0.422979
C74_4 C 0.3131(3) 0.6977(5) 0.3116(4)
C75_4 C 0.2104(3) 0.5558(5) 0.2764(5)
H62_4 H 0.183803 0.584195 0.235226
C76_4 C 0.4335(3) 0.8855(5) 0.4025(4)
C77_4 C 0.3747(4) 0.7866(5) 0.4086(5)
H63_4 H 0.390319 0.805393 0.454913
C81_4 C 0.2890(4) 0.4731(6) 0.3990(5)
H66_4 H 0.315760 0.445608 0.440630
C82_4 C 0.2619(4) 0.5790(6) 0.3102(5)
C83_4 C 0.3338(4) 0.7265(5) 0.3780(4)
H67_4 H 0.321193 0.706682 0.402856
C85_4 C 0.3297(4) 0.7280(5) 0.2729(5)
H69_4 H 0.314309 0.708063 0.226920
C86_4 C 0.1897(3) 0.0329(5) 0.3181(5)
H70_4 H 0.160131 0.059139 0.310051
C40_3 C 0.0121(4) 0.8737(10) 0.5954(8)
H27_3 H 0.040415 0.887321 0.644533
H28_3 H 0.024546 0.828689 0.579969
C42_3 C 0.0470(5) 0.9888(11) 0.5669(7)
H31_3 H 0.064441 0.948337 0.555608
O12_4 O 0.0612(2) 0.5968(3) 0.0156(3)
O20_4 O 0.2260(2) 0.8645(4) 0.2438(3)
C61_4 C 0.1071(3) 0.6898(5) 0.1149(4)
C62_4 C 0.0665(3) 0.6215(4) 0.0714(4)
C66_4 C 0.2270(4) 0.9286(6) 0.2859(5)
C68_4 C 0.1410(3) 0.7174(5) 0.1006(4)
H57_4 H 0.137691 0.695444 0.061012
C78_4 C 0.2773(3) 0.9548(5) 0.3418(4)
H64_4 H 0.306579 0.927571 0.349763
C79_4 C 0.1804(3) 0.7776(5) 0.1434(5)
H65_4 H 0.203627 0.794756 0.133427
C80_4 C 0.1840(3) 0.8109(5) 0.2010(5)
C84_4 C 0.1120(4) 0.7227(5) 0.1735(4)
H68_4 H 0.089099 0.704118 0.183655
C87_4 C 0.1505(4) 0.7828(6) 0.2177(5)
H71_4 H 0.153826 0.803871 0.257515
C88_4 C 0.1831(4) 0.9674(6) 0.2737(5)
H72_4 H 0.149500 0.949582 0.236134
H47_4 H 0.605699 0.050797 0.961895
H48_4 H 0.664456 0.001480 0.942880
N2_4 N 0.9468(3) 0.5417(4) 0.0844(4)
C18_4 C 0.9014(4) 0.5012(6) 0.0618(5)
H8_4 H 0.894301 0.449203 0.038105
C31_4 C 0.8745(4) 0.6126(7) 0.1036(5)
C32_4 C 0.8651(4) 0.5307(9) 0.0713(6)
H19_4 H 0.835544 0.498520 0.057120
C35_4 C 0.8323(5) 0.6491(10) 0.1091(7)
H21_4 H 0.811456 0.602130 0.107500
H22_4 H 0.849385 0.677231 0.154954
C37_4 C 0.9188(5) 0.6537(7) 0.1218(7)
H24_4 H 0.925504 0.708415 0.141351
C38_4 C 0.9543(5) 0.6175(7) 0.1125(7)
H25_4 H 0.984445 0.648141 0.126746
N3_4 N 0.7981(3) 0.7087(6) 0.0547(5)
C41_4 C 0.7606(5) 0.7454(9) 0.0660(6)
H29_4 H 0.737568 0.700158 0.061105
H30_4 H 0.780083 0.767295 0.114267
C60_4 C 0.7294(5) 0.8128(11) 0.0176(7)
H55_4 H 0.752061 0.861405 0.027691
H56_4 H 0.704101 0.830869 0.026119
O2_4 O 0.9388(2) 0.4032(3) 0.9844(3)
O4_4 O 0.9579(2) 0.4093(4) 0.9070(3)
O10_4 O 0.7740(2) 0.1355(4) 0.7562(3)
C1_4 C 0.8929(3) 0.3102(5) 0.8851(4)
C2_4 C 0.9335(3) 0.3785(4) 0.9286(4)
C6_4 C 0.7730(4) 0.0714(6) 0.7141(5)
C8_4 C 0.8590(3) 0.2826(5) 0.8994(4)
H1_4 H 0.862309 0.304556 0.938988
C19_4 C 0.7227(3) 0.0452(5) 0.6582(4)
H9_4 H 0.693421 0.072429 0.650237
C20_4 C 0.8196(3) 0.2224(5) 0.8566(5)
H10_4 H 0.796373 0.205244 0.866573
C21_4 C 0.8160(3) 0.1891(5) 0.7990(5)
C25_4 C 0.8880(4) 0.2773(5) 0.8265(4)
H13_4 H 0.910901 0.295882 0.816345
C29_4 C 0.8495(4) 0.2172(6) 0.7823(5)
H17_4 H 0.846174 0.196129 0.742485
C30_4 C 0.8169(4) 0.0326(6) 0.7263(5)
H18_4 H 0.850500 0.050418 0.763866
C44_4 C 0.7706(5) 0.6872(11) 0.9824(7)
H35_4 H 0.747939 0.638595 0.972309
H36_4 H 0.795899 0.669131 0.973881
C50_3 C 0.9879(4) 0.1263(10) 0.4046(8)
H41_3 H 0.959585 0.112679 0.355467
H42_3 H 0.975454 0.171311 0.420031
C51_3 C 0.9530(5) 0.0112(11) 0.4331(7)
H43_3 H 0.935559 0.051663 0.444392
C53_4 C 0.5986(4) 0.9988(6) 0.9382(5)
C54_4 C 0.6255(4) 0.8874(7) 0.8964(5)
C55_4 C 0.6349(4) 0.9693(9) 0.9287(6)
C56_4 C 0.6677(5) 0.8509(10) 0.8909(7)
H49_4 H 0.688544 0.897870 0.892500
H50_4 H 0.650615 0.822769 0.845046
C57_4 C 0.5812(5) 0.8463(7) 0.8782(7)
H51_4 H 0.574496 0.791585 0.858649
C58_4 C 0.5457(5) 0.8825(7) 0.8875(7)
H52_4 H 0.515555 0.851859 0.873254
N8_4 N 0.7019(3) 0.7913(6) 0.9453(5)
C59_4 C 0.7394(5) 0.7546(9) 0.9340(6)
H53_4 H 0.762432 0.799842 0.938895
H54_4 H 0.719917 0.732705 0.885733
O3_4 O 0.7958(2) 0.8300(3) 0.5975(3)
O5_4 O 0.8233(2) 0.6365(4) 0.6272(3)
O8_4 O 0.7393(2) 0.6618(4) 0.5496(3)
O9_4 O 0.7294(2) 0.3589(4) 0.7241(3)
N1_4 N 0.8782(2) 0.7762(4) 0.5814(4)
C3_4 C 0.7542(3) 0.8673(5) 0.5784(4)
C4_4 C 0.7625(4) 0.5512(5) 0.6326(5)
C5_4 C 0.7593(3) 0.9387(5) 0.6242(4)
C7_4 C 0.7749(4) 0.6192(5) 0.6016(5)
C9_4 C 0.6080(3) 0.1817(5) 0.6292(4)
C10_4 C 0.6304(3) 0.2114(5) 0.6970(4)
H2_4 H 0.618801 0.190624 0.722850
C11_4 C 0.8023(3) 0.5117(5) 0.6956(5)
H3_4 H 0.837085 0.529511 0.719277
C12_4 C 0.6980(3) 0.4628(6) 0.6293(5)
H4_4 H 0.662951 0.448383 0.607810
C13_4 C 0.7161(3) 0.9777(5) 0.6137(5)
H5_4 H 0.682394 0.959354 0.577021
C14_4 C 0.6869(3) 0.3023(5) 0.6884(4)
C15_4 C 0.7896(3) 0.4442(5) 0.7236(5)
H6_4 H 0.816197 0.415805 0.764774
C16_4 C 0.5665(3) 0.1145(5) 0.5975(4)
C17_4 C 0.6253(4) 0.2134(5) 0.5914(5)
H7_4 H 0.609681 0.194607 0.545087
C22_4 C 0.7110(4) 0.5269(6) 0.6010(5)
H11_4 H 0.684240 0.554392 0.559370
C23_4 C 0.7381(4) 0.4210(6) 0.6898(5)
C24_4 C 0.6662(4) 0.2735(5) 0.6220(4)
H12_4 H 0.678807 0.293318 0.597144
C26_4 C 0.6703(4) 0.2720(5) 0.7271(5)
H14_4 H 0.685691 0.291937 0.773080
C27_4 C 0.8103(3) 0.9671(5) 0.6819(5)
H15_4 H 0.839869 0.940861 0.689949
C28_4 C 0.9179(4) 0.7278(6) 0.5974(7)
H16_4 H 0.917181 0.670090 0.606928
C33_4 C 0.9648(4) 0.8404(8) 0.5913(6)
C34_4 C 0.9616(5) 0.7576(8) 0.6011(8)
H20_4 H 0.987719 0.719689 0.610129
C36_4 C 0.8822(4) 0.8584(7) 0.5708(6)
H23_4 H 0.855564 0.895412 0.561255
C39_4 C 0.9235(4) 0.8921(8) 0.5729(7)
H26_4 H 0.923283 0.949596 0.561965
N4_4 N 0.9995(3) 0.9510(7) 0.5508(5)
C43_4 C 0.9654(5) 0.9299(9) 0.4755(7)
H33_4 H 0.933092 0.903955 0.463390
H34_4 H 0.982852 0.889243 0.464353
H44_4 H 0.929280 0.998356 0.382602
C50_4 C 0.0121(4) 0.1263(10) 0.0954(8)
H41_4 H 0.040415 0.112679 0.144533
H42_4 H 0.024546 0.171311 0.079969
C51_4 C 0.0470(5) 0.0112(11) 0.0669(7)
H43_4 H 0.064441 0.051663 0.055608
C40_4 C 0.9879(4) 0.8737(10) 0.9046(8)
H27_4 H 0.959585 0.887321 0.855467
H28_4 H 0.975454 0.828689 0.920031
C42_4 C 0.9530(5) 0.9888(11) 0.9331(7)
H31_4 H 0.935559 0.948337 0.944392
loop_
_geom_bond_atom_site_label_1
_geom_bond_atom_site_label_2
_geom_bond_site_symmetry_1
_geom_bond_site_symmetry_2
O16 C76 1_555 1_555
O17 C76 1_555 1_555
O19 C74 1_555 1_555
C69 C70 1_555 1_555
C70 H58 1_555 1_555
C72 H60 1_555 1_555
C74 C83 1_555 1_555
H62 C75 1_555 1_555
C76 C69 1_555 1_555
C77 C69 1_555 1_555
H63 C77 1_555 1_555
C82 O19 1_555 1_555
C83 C77 1_555 1_555
H67 C83 1_555 1_555
C85 C70 1_555 1_555
H69 C85 1_555 1_555
C72 C82 1_555 1_555
C74 C85 1_555 1_555
C75 C82 1_555 1_555
C18 N2 1_555 1_555
C31 C32 1_555 1_555
C32 C18 1_555 1_555
C35 C31 1_555 1_555
H21 C35 1_555 1_555
H22 C35 1_555 1_555
C37 C31 1_555 1_555
H24 C37 1_555 1_555
C38 N2 1_555 1_555
H25 C38 1_555 1_555
N3 C35 1_555 1_555
C41 N3 1_555 1_555
H29 C41 1_555 1_555
H30 C41 1_555 1_555
C44 N3 1_555 1_555
H35 C44 1_555 1_555
H36 C44 1_555 1_555
N7 C53 1_555 1_555
C53 H47 1_555 1_555
C54 C55 1_555 1_555
C55 C53 1_555 1_555
H48 C55 1_555 1_555
C56 C54 1_555 1_555
H49 C56 1_555 1_555
H50 C56 1_555 1_555
C57 C54 1_555 1_555
H51 C57 1_555 1_555
C58 N7 1_555 1_555
H52 C58 1_555 1_555
N8 C56 1_555 1_555
C59 C44 1_555 1_555
H53 C59 1_555 1_555
H54 C59 1_555 1_555
C60 C41 1_555 1_555
H55 C60 1_555 1_555
H56 C60 1_555 1_555
Co9 N7 1_555 1_555
C37 C38 1_555 1_555
C57 C58 1_555 1_555
N8 C59 1_555 1_555
N8 C60 1_555 1_555
Co8 O28 1_555 1_555
H33 C43 1_555 1_555
H34 C43 1_555 1_555
N5 C45 1_555 1_555
C45 H37 1_555 1_555
C46 C47 1_555 1_555
C47 C45 1_555 1_555
H38 C47 1_555 1_555
C48 N5 1_555 1_555
H39 C48 1_555 1_555
C49 C46 1_555 1_555
H40 C49 1_555 1_555
C50 C46 1_555 1_555
H41 C50 1_555 1_555
H42 C50 1_555 1_555
N6 C50 1_555 1_555
C51 C43 1_555 1_555
H43 C51 1_555 1_555
H44 C51 1_555 1_555
Co8 O12 1_555 1_555
Co4 N5 1_555 1_555
O11 C63 1_555 1_555
O12 C62 1_555 1_555
O13 Co4 1_555 1_555
O24 C62 1_555 1_555
O15 Co4 1_555 1_555
O18 Co4 1_555 1_555
O20 C66 1_555 1_555
C61 C62 1_555 1_555
C63 O13 1_555 1_555
C64 C67 1_555 1_555
C65 C63 1_555 1_555
C66 C78 1_555 1_555
C67 O15 1_555 1_555
C68 C61 1_555 1_555
H57 C68 1_555 1_555
C71 C64 1_555 1_555
H59 C71 1_555 1_555
C73 C65 1_555 1_555
H61 C73 1_555 1_555
C78 C73 1_555 1_555
H64 C78 1_555 1_555
C79 C68 1_555 1_555
H65 C79 1_555 1_555
C80 O20 1_555 1_555
C81 C64 1_555 1_555
H66 C81 1_555 1_555
C84 C61 1_555 1_555
H68 C84 1_555 1_555
C86 C65 1_555 1_555
H70 C86 1_555 1_555
C87 C80 1_555 1_555
H71 C87 1_555 1_555
C88 C66 1_555 1_555
H72 C88 1_555 1_555
O25 Co8 1_555 1_555
C48 C49 1_555 1_555
N6 C51 1_555 1_555
O18 C67 1_555 1_555
C79 C80 1_555 1_555
C84 C87 1_555 1_555
C86 C88 1_555 1_555
Co1 O2 1_555 1_555
Co2 O3 1_555 1_555
O1 C3 1_555 1_555
O2 C2 1_555 1_555
O3 C3 1_555 1_555
O4 C2 1_555 1_555
O5 Co2 1_555 1_555
O8 Co2 1_555 1_555
N1 Co2 1_555 1_555
O10 C6 1_555 1_555
C1 C2 1_555 1_555
C3 C5 1_555 1_555
C4 C7 1_555 1_555
C5 C13 1_555 1_555
C6 C19 1_555 1_555
C7 O5 1_555 1_555
C8 C1 1_555 1_555
H1 C8 1_555 1_555
C11 C4 1_555 1_555
H3 C11 1_555 1_555
C13 H5 1_555 1_555
C19 C13 1_555 1_555
H9 C19 1_555 1_555
C20 C8 1_555 1_555
H10 C20 1_555 1_555
C21 O10 1_555 1_555
C22 C4 1_555 1_555
H11 C22 1_555 1_555
C25 C1 1_555 1_555
H13 C25 1_555 1_555
C27 C5 1_555 1_555
H15 C27 1_555 1_555
C28 N1 1_555 1_555
H16 C28 1_555 1_555
C29 C21 1_555 1_555
H17 C29 1_555 1_555
C30 C6 1_555 1_555
H18 C30 1_555 1_555
C33 C34 1_555 1_555
C34 C28 1_555 1_555
H20 C34 1_555 1_555
C36 N1 1_555 1_555
H23 C36 1_555 1_555
C39 C33 1_555 1_555
H26 C39 1_555 1_555
C40 C33 1_555 1_555
H27 C40 1_555 1_555
H28 C40 1_555 1_555
N4 C40 1_555 1_555
C42 N4 1_555 1_555
H31 C42 1_555 1_555
H32 C42 1_555 1_555
C52 C42 1_555 1_555
H45 C52 1_555 1_555
H46 C52 1_555 1_555
O26 Co1 1_555 1_555
O30 Co1 1_555 1_555
O8 C7 1_555 1_555
C20 C21 1_555 1_555
C25 C29 1_555 1_555
C27 C30 1_555 1_555
C36 C39 1_555 1_555
O6 C16 1_555 1_555
O7 C16 1_555 1_555
O9 C14 1_555 1_555
C9 C10 1_555 1_555
C10 H2 1_555 1_555
C12 H4 1_555 1_555
C14 C24 1_555 1_555
H6 C15 1_555 1_555
C16 C9 1_555 1_555
C17 C9 1_555 1_555
H7 C17 1_555 1_555
C23 O9 1_555 1_555
C24 C17 1_555 1_555
H12 C24 1_555 1_555
C26 C10 1_555 1_555
H14 C26 1_555 1_555
C12 C23 1_555 1_555
C14 C26 1_555 1_555
C15 C23 1_555 1_555
C18_2 N2_2 1_555 1_555
C31_2 C32_2 1_555 1_555
C32_2 C18_2 1_555 1_555
C35_2 C31_2 1_555 1_555
H21_2 C35_2 1_555 1_555
H22_2 C35_2 1_555 1_555
C37_2 C31_2 1_555 1_555
H24_2 C37_2 1_555 1_555
C38_2 N2_2 1_555 1_555
H25_2 C38_2 1_555 1_555
N3_2 C35_2 1_555 1_555
C41_2 N3_2 1_555 1_555
H29_2 C41_2 1_555 1_555
H30_2 C41_2 1_555 1_555
C60_2 C41_2 1_555 1_555
H55_2 C60_2 1_555 1_555
H56_2 C60_2 1_555 1_555
C37_2 C38_2 1_555 1_555
H35_2 C44_2 1_555 1_555
H36_2 C44_2 1_555 1_555
N7_2 C53_2 1_555 1_555
C53_2 H47_2 1_555 1_555
C54_2 C55_2 1_555 1_555
C55_2 C53_2 1_555 1_555
H48_2 C55_2 1_555 1_555
C56_2 C54_2 1_555 1_555
H49_2 C56_2 1_555 1_555
H50_2 C56_2 1_555 1_555
C57_2 C54_2 1_555 1_555
H51_2 C57_2 1_555 1_555
C58_2 N7_2 1_555 1_555
H52_2 C58_2 1_555 1_555
N8_2 C56_2 1_555 1_555
C59_2 C44_2 1_555 1_555
H53_2 C59_2 1_555 1_555
H54_2 C59_2 1_555 1_555
O16_2 C76_2 1_555 1_555
O17_2 C76_2 1_555 1_555
O19_2 C74_2 1_555 1_555
C69_2 C70_2 1_555 1_555
C70_2 H58_2 1_555 1_555
C72_2 H60_2 1_555 1_555
C74_2 C83_2 1_555 1_555
H62_2 C75_2 1_555 1_555
C76_2 C69_2 1_555 1_555
C77_2 C69_2 1_555 1_555
H63_2 C77_2 1_555 1_555
C82_2 O19_2 1_555 1_555
C83_2 C77_2 1_555 1_555
H67_2 C83_2 1_555 1_555
C85_2 C70_2 1_555 1_555
H69_2 C85_2 1_555 1_555
Co11 N7_2 1_555 1_555
Co9 O17_2 1_555 1_555
C57_2 C58_2 1_555 1_555
N8_2 C59_2 1_555 1_555
C72_2 C82_2 1_555 1_555
C74_2 C85_2 1_555 1_555
C75_2 C82_2 1_555 1_555
Co8_2 O28_2 1_555 1_555
O26_2 Co1_2 1_555 1_555
O30_2 Co1_2 1_555 1_555
Co2_2 O3_2 1_555 1_555
O1_2 C3_2 1_555 1_555
O2_2 C2_2 1_555 1_555
O3_2 C3_2 1_555 1_555
O4_2 C2_2 1_555 1_555
O5_2 Co2_2 1_555 1_555
O8_2 Co2_2 1_555 1_555
N1_2 Co2_2 1_555 1_555
O10_2 C6_2 1_555 1_555
C1_2 C2_2 1_555 1_555
C3_2 C5_2 1_555 1_555
C4_2 C7_2 1_555 1_555
C5_2 C13_2 1_555 1_555
C6_2 C19_2 1_555 1_555
C7_2 O5_2 1_555 1_555
C8_2 C1_2 1_555 1_555
H1_2 C8_2 1_555 1_555
C11_2 C4_2 1_555 1_555
H3_2 C11_2 1_555 1_555
C13_2 H5_2 1_555 1_555
C19_2 C13_2 1_555 1_555
H9_2 C19_2 1_555 1_555
C20_2 C8_2 1_555 1_555
H10_2 C20_2 1_555 1_555
C21_2 O10_2 1_555 1_555
C22_2 C4_2 1_555 1_555
H11_2 C22_2 1_555 1_555
C25_2 C1_2 1_555 1_555
H13_2 C25_2 1_555 1_555
C27_2 C5_2 1_555 1_555
H15_2 C27_2 1_555 1_555
C28_2 N1_2 1_555 1_555
H16_2 C28_2 1_555 1_555
C29_2 C21_2 1_555 1_555
H17_2 C29_2 1_555 1_555
C30_2 C6_2 1_555 1_555
H18_2 C30_2 1_555 1_555
C33_2 C34_2 1_555 1_555
C34_2 C28_2 1_555 1_555
H20_2 C34_2 1_555 1_555
C36_2 N1_2 1_555 1_555
H23_2 C36_2 1_555 1_555
C39_2 C33_2 1_555 1_555
H26_2 C39_2 1_555 1_555
C40_2 C33_2 1_555 1_555
H27_2 C40_2 1_555 1_555
H28_2 C40_2 1_555 1_555
N4_2 C40_2 1_555 1_555
C42_2 N4_2 1_555 1_555
H31_2 C42_2 1_555 1_555
H32_2 C42_2 1_555 1_555
C43_2 N4_2 1_555 1_555
H33_2 C43_2 1_555 1_555
H34_2 C43_2 1_555 1_555
N5_2 C45_2 1_555 1_555
C45_2 H37_2 1_555 1_555
C46_2 C47_2 1_555 1_555
C47_2 C45_2 1_555 1_555
H38_2 C47_2 1_555 1_555
C48_2 N5_2 1_555 1_555
H39_2 C48_2 1_555 1_555
C49_2 C46_2 1_555 1_555
H40_2 C49_2 1_555 1_555
C50_2 C46_2 1_555 1_555
H41_2 C50_2 1_555 1_555
H42_2 C50_2 1_555 1_555
N6_2 C50_2 1_555 1_555
C51_2 C43_2 1_555 1_555
H43_2 C51_2 1_555 1_555
H44_2 C51_2 1_555 1_555
C52_2 C42_2 1_555 1_555
H45_2 C52_2 1_555 1_555
H46_2 C52_2 1_555 1_555
Co4_2 N5_2 1_555 1_555
O11_2 C63_2 1_555 1_555
O12_2 C62_2 1_555 1_555
O13_2 Co4_2 1_555 1_555
O24_2 C62_2 1_555 1_555
O15_2 Co4_2 1_555 1_555
O18_2 Co4_2 1_555 1_555
O20_2 C66_2 1_555 1_555
C61_2 C62_2 1_555 1_555
C63_2 O13_2 1_555 1_555
C64_2 C67_2 1_555 1_555
C65_2 C63_2 1_555 1_555
C66_2 C78_2 1_555 1_555
C67_2 O15_2 1_555 1_555
C68_2 C61_2 1_555 1_555
H57_2 C68_2 1_555 1_555
C71_2 C64_2 1_555 1_555
H59_2 C71_2 1_555 1_555
C73_2 C65_2 1_555 1_555
H61_2 C73_2 1_555 1_555
C78_2 C73_2 1_555 1_555
H64_2 C78_2 1_555 1_555
C79_2 C68_2 1_555 1_555
H65_2 C79_2 1_555 1_555
C80_2 O20_2 1_555 1_555
C81_2 C64_2 1_555 1_555
H66_2 C81_2 1_555 1_555
C84_2 C61_2 1_555 1_555
H68_2 C84_2 1_555 1_555
C86_2 C65_2 1_555 1_555
H70_2 C86_2 1_555 1_555
C87_2 C80_2 1_555 1_555
H71_2 C87_2 1_555 1_555
C88_2 C66_2 1_555 1_555
H72_2 C88_2 1_555 1_555
Co12_2 O11_2 1_555 1_555
Co13_2 O1_2 1_555 1_555
O21_2 Co4_2 1_555 1_555
O22_2 Co2_2 1_555 1_555
O8_2 C7_2 1_555 1_555
C20_2 C21_2 1_555 1_555
C25_2 C29_2 1_555 1_555
C27_2 C30_2 1_555 1_555
C36_2 C39_2 1_555 1_555
C48_2 C49_2 1_555 1_555
N6_2 C51_2 1_555 1_555
N6_2 C52_2 1_555 1_555
O18_2 C67_2 1_555 1_555
C79_2 C80_2 1_555 1_555
C84_2 C87_2 1_555 1_555
C86_2 C88_2 1_555 1_555
O25_2 Co8_2 1_555 1_555
O6_2 C16_2 1_555 1_555
O7_2 C16_2 1_555 1_555
O9_2 C14_2 1_555 1_555
C9_2 C10_2 1_555 1_555
C10_2 H2_2 1_555 1_555
C12_2 H4_2 1_555 1_555
C14_2 C24_2 1_555 1_555
H6_2 C15_2 1_555 1_555
C16_2 C9_2 1_555 1_555
C17_2 C9_2 1_555 1_555
H7_2 C17_2 1_555 1_555
C23_2 O9_2 1_555 1_555
C24_2 C17_2 1_555 1_555
H12_2 C24_2 1_555 1_555
C26_2 C10_2 1_555 1_555
H14_2 C26_2 1_555 1_555
Co6 O7_2 1_555 1_555
C12_2 C23_2 1_555 1_555
C14_2 C26_2 1_555 1_555
C15_2 C23_2 1_555 1_555
Co6 O2_3 1_555 1_555
O2_3 C2_3 1_555 1_555
O4_3 C2_3 1_555 1_555
O10_3 C6_3 1_555 1_555
N2_3 Co6 1_555 1_555
C1_3 C2_3 1_555 1_555
C6_3 C19_3 1_555 1_555
C8_3 C1_3 1_555 1_555
H1_3 C8_3 1_555 1_555
C18_3 N2_3 1_555 1_555
H8_3 C18_3 1_555 1_555
H9_3 C19_3 1_555 1_555
C20_3 C8_3 1_555 1_555
H10_3 C20_3 1_555 1_555
C21_3 O10_3 1_555 1_555
C25_3 C1_3 1_555 1_555
H13_3 C25_3 1_555 1_555
C29_3 C21_3 1_555 1_555
H17_3 C29_3 1_555 1_555
C30_3 C6_3 1_555 1_555
H18_3 C30_3 1_555 1_555
C31_3 C32_3 1_555 1_555
C32_3 C18_3 1_555 1_555
H19_3 C32_3 1_555 1_555
C35_3 C31_3 1_555 1_555
H21_3 C35_3 1_555 1_555
H22_3 C35_3 1_555 1_555
C37_3 C31_3 1_555 1_555
H24_3 C37_3 1_555 1_555
C38_3 N2_3 1_555 1_555
H25_3 C38_3 1_555 1_555
N3_3 C35_3 1_555 1_555
C41_3 N3_3 1_555 1_555
H29_3 C41_3 1_555 1_555
H30_3 C41_3 1_555 1_555
C44_3 N3_3 1_555 1_555
H35_3 C44_3 1_555 1_555
H36_3 C44_3 1_555 1_555
N9 C53_3 1_555 1_555
C54_3 C55_3 1_555 1_555
C55_3 C53_3 1_555 1_555
C56_3 C54_3 1_555 1_555
H49_3 C56_3 1_555 1_555
H50_3 C56_3 1_555 1_555
C57_3 C54_3 1_555 1_555
H51_3 C57_3 1_555 1_555
C58_3 N9 1_555 1_555
H52_3 C58_3 1_555 1_555
N8_3 C56_3 1_555 1_555
C59_3 C44_3 1_555 1_555
H53_3 C59_3 1_555 1_555
H54_3 C59_3 1_555 1_555
C60_3 C41_3 1_555 1_555
H55_3 C60_3 1_555 1_555
H56_3 C60_3 1_555 1_555
C20_3 C21_3 1_555 1_555
C25_3 C29_3 1_555 1_555
C37_3 C38_3 1_555 1_555
C57_3 C58_3 1_555 1_555
N8_3 C59_3 1_555 1_555
N8_3 C60_3 1_555 1_555
H33_3 C43_3 1_555 1_555
H34_3 C43_3 1_555 1_555
Co12 O3_3 1_555 1_555
O21 C3_3 1_555 1_555
O3_3 C3_3 1_555 1_555
O5_3 Co12 1_555 1_555
O25_2 C16_3 1_555 1_555
O28_2 C16_3 1_555 1_555
O8_3 Co12 1_555 1_555
O9_3 C14_3 1_555 1_555
N1_3 Co12 1_555 1_555
C3_3 C5_3 1_555 1_555
C4_3 C7_3 1_555 1_555
C5_3 C13_3 1_555 1_555
C7_3 O5_3 1_555 1_555
C9_3 C10_3 1_555 1_555
C10_3 H2_3 1_555 1_555
C11_3 C4_3 1_555 1_555
H3_3 C11_3 1_555 1_555
C12_3 H4_3 1_555 1_555
C13_3 H5_3 1_555 1_555
C14_3 C24_3 1_555 1_555
C15_3 C11_3 1_555 1_555
H6_3 C15_3 1_555 1_555
C16_3 C9_3 1_555 1_555
C17_3 C9_3 1_555 1_555
H7_3 C17_3 1_555 1_555
C22_3 C4_3 1_555 1_555
H11_3 C22_3 1_555 1_555
C23_3 O9_3 1_555 1_555
C24_3 C17_3 1_555 1_555
H12_3 C24_3 1_555 1_555
C26_3 C10_3 1_555 1_555
H14_3 C26_3 1_555 1_555
C27_3 C5_3 1_555 1_555
H15_3 C27_3 1_555 1_555
C28_3 N1_3 1_555 1_555
H16_3 C28_3 1_555 1_555
C33_3 C34_3 1_555 1_555
C34_3 C28_3 1_555 1_555
H20_3 C34_3 1_555 1_555
C36_3 N1_3 1_555 1_555
H23_3 C36_3 1_555 1_555
C39_3 C33_3 1_555 1_555
H26_3 C39_3 1_555 1_555
O8_3 C7_3 1_555 1_555
C12_3 C22_3 1_555 1_555
C12_3 C23_3 1_555 1_555
C14_3 C26_3 1_555 1_555
C15_3 C23_3 1_555 1_555
C36_3 C39_3 1_555 1_555
N5_3 C45_3 1_555 1_555
C45_3 H37_3 1_555 1_555
C46_3 C47_3 1_555 1_555
C47_3 C45_3 1_555 1_555
H38_3 C47_3 1_555 1_555
C48_3 N5_3 1_555 1_555
H39_3 C48_3 1_555 1_555
C49_3 C46_3 1_555 1_555
H40_3 C49_3 1_555 1_555
Co13 N5_3 1_555 1_555
O22 C63_3 1_555 1_555
O13_3 Co13 1_555 1_555
O15_3 Co13 1_555 1_555
O26_2 C76_3 1_555 1_555
O30_2 C76_3 1_555 1_555
O18_3 Co13 1_555 1_555
O19_3 C74_3 1_555 1_555
C63_3 O13_3 1_555 1_555
C64_3 C67_3 1_555 1_555
C65_3 C63_3 1_555 1_555
C67_3 O15_3 1_555 1_555
C69_3 C70_3 1_555 1_555
C70_3 H58_3 1_555 1_555
C71_3 C64_3 1_555 1_555
H59_3 C71_3 1_555 1_555
C72_3 H60_3 1_555 1_555
C73_3 C65_3 1_555 1_555
H61_3 C73_3 1_555 1_555
C74_3 C83_3 1_555 1_555
C75_3 C71_3 1_555 1_555
H62_3 C75_3 1_555 1_555
C76_3 C69_3 1_555 1_555
C77_3 C69_3 1_555 1_555
H63_3 C77_3 1_555 1_555
C81_3 C64_3 1_555 1_555
H66_3 C81_3 1_555 1_555
C82_3 O19_3 1_555 1_555
C83_3 C77_3 1_555 1_555
H67_3 C83_3 1_555 1_555
C85_3 C70_3 1_555 1_555
H69_3 C85_3 1_555 1_555
C86_3 C65_3 1_555 1_555
H70_3 C86_3 1_555 1_555
C48_3 C49_3 1_555 1_555
O18_3 C67_3 1_555 1_555
C72_3 C81_3 1_555 1_555
C72_3 C82_3 1_555 1_555
C74_3 C85_3 1_555 1_555
C75_3 C82_3 1_555 1_555
H45_3 C52_3 1_555 1_555
H46_3 C52_3 1_555 1_555
Co9 O12_3 1_555 1_555
O12_3 C62_3 1_555 1_555
O24_3 C62_3 1_555 1_555
O20_3 C66_3 1_555 1_555
C61_3 C62_3 1_555 1_555
C66_3 C78_3 1_555 1_555
C68_3 C61_3 1_555 1_555
H57_3 C68_3 1_555 1_555
H64_3 C78_3 1_555 1_555
C79_3 C68_3 1_555 1_555
H65_3 C79_3 1_555 1_555
C80_3 O20_3 1_555 1_555
C84_3 C61_3 1_555 1_555
H68_3 C84_3 1_555 1_555
C87_3 C80_3 1_555 1_555
H71_3 C87_3 1_555 1_555
C88_3 C66_3 1_555 1_555
H72_3 C88_3 1_555 1_555
C79_3 C80_3 1_555 1_555
C84_3 C87_3 1_555 1_555
N5_4 C45_4 1_555 1_555
C45_4 H37_4 1_555 1_555
C46_4 C47_4 1_555 1_555
C47_4 C45_4 1_555 1_555
H38_4 C47_4 1_555 1_555
C48_4 N5_4 1_555 1_555
H39_4 C48_4 1_555 1_555
C49_4 C46_4 1_555 1_555
H40_4 C49_4 1_555 1_555
H45_4 C52_4 1_555 1_555
H46_4 C52_4 1_555 1_555
Co13_2 N5_4 1_555 1_555
O22_2 C63_4 1_555 1_555
O13_4 Co13_2 1_555 1_555
O15_4 Co13_2 1_555 1_555
O26 C76_4 1_555 1_555
O30 C76_4 1_555 1_555
O18_4 Co13_2 1_555 1_555
O19_4 C74_4 1_555 1_555
C63_4 O13_4 1_555 1_555
C64_4 C67_4 1_555 1_555
C65_4 C63_4 1_555 1_555
C67_4 O15_4 1_555 1_555
C69_4 C70_4 1_555 1_555
C70_4 H58_4 1_555 1_555
C71_4 C64_4 1_555 1_555
H59_4 C71_4 1_555 1_555
C72_4 H60_4 1_555 1_555
C73_4 C65_4 1_555 1_555
H61_4 C73_4 1_555 1_555
C74_4 C83_4 1_555 1_555
C75_4 C71_4 1_555 1_555
H62_4 C75_4 1_555 1_555
C76_4 C69_4 1_555 1_555
C77_4 C69_4 1_555 1_555
H63_4 C77_4 1_555 1_555
C81_4 C64_4 1_555 1_555
H66_4 C81_4 1_555 1_555
C82_4 O19_4 1_555 1_555
C83_4 C77_4 1_555 1_555
H67_4 C83_4 1_555 1_555
C85_4 C70_4 1_555 1_555
H69_4 C85_4 1_555 1_555
C86_4 C65_4 1_555 1_555
H70_4 C86_4 1_555 1_555
C48_4 C49_4 1_555 1_555
N6_4 C52_4 1_555 1_555
O18_4 C67_4 1_555 1_555
C72_4 C81_4 1_555 1_555
C72_4 C82_4 1_555 1_555
C74_4 C85_4 1_555 1_555
C75_4 C82_4 1_555 1_555
H27_3 C40_3 1_555 1_555
H28_3 C40_3 1_555 1_555
H31_3 C42_3 1_555 1_555
O12_4 C62_4 1_555 1_555
O24_4 C62_4 1_555 1_555
O20_4 C66_4 1_555 1_555
C61_4 C62_4 1_555 1_555
C66_4 C78_4 1_555 1_555
C68_4 C61_4 1_555 1_555
H57_4 C68_4 1_555 1_555
H64_4 C78_4 1_555 1_555
C79_4 C68_4 1_555 1_555
H65_4 C79_4 1_555 1_555
C80_4 O20_4 1_555 1_555
C84_4 C61_4 1_555 1_555
H68_4 C84_4 1_555 1_555
C87_4 C80_4 1_555 1_555
H71_4 C87_4 1_555 1_555
C88_4 C66_4 1_555 1_555
H72_4 C88_4 1_555 1_555
C79_4 C80_4 1_555 1_555
C84_4 C87_4 1_555 1_555
N2_4 Co7 1_555 1_555
C18_4 N2_4 1_555 1_555
H8_4 C18_4 1_555 1_555
C31_4 C32_4 1_555 1_555
C32_4 C18_4 1_555 1_555
H19_4 C32_4 1_555 1_555
C35_4 C31_4 1_555 1_555
H21_4 C35_4 1_555 1_555
H22_4 C35_4 1_555 1_555
C37_4 C31_4 1_555 1_555
H24_4 C37_4 1_555 1_555
C38_4 N2_4 1_555 1_555
H25_4 C38_4 1_555 1_555
N3_4 C35_4 1_555 1_555
C41_4 N3_4 1_555 1_555
H29_4 C41_4 1_555 1_555
H30_4 C41_4 1_555 1_555
C60_4 C41_4 1_555 1_555
H55_4 C60_4 1_555 1_555
H56_4 C60_4 1_555 1_555
C37_4 C38_4 1_555 1_555
O2_4 C2_4 1_555 1_555
O4_4 C2_4 1_555 1_555
O10_4 C6_4 1_555 1_555
C1_4 C2_4 1_555 1_555
C6_4 C19_4 1_555 1_555
C8_4 C1_4 1_555 1_555
H1_4 C8_4 1_555 1_555
H9_4 C19_4 1_555 1_555
C20_4 C8_4 1_555 1_555
H10_4 C20_4 1_555 1_555
C21_4 O10_4 1_555 1_555
C25_4 C1_4 1_555 1_555
H13_4 C25_4 1_555 1_555
C29_4 C21_4 1_555 1_555
H17_4 C29_4 1_555 1_555
C30_4 C6_4 1_555 1_555
H18_4 C30_4 1_555 1_555
H35_4 C44_4 1_555 1_555
H36_4 C44_4 1_555 1_555
H41_3 C50_3 1_555 1_555
H42_3 C50_3 1_555 1_555
H43_3 C51_3 1_555 1_555
N9_2 C53_4 1_555 1_555
C54_4 C55_4 1_555 1_555
C55_4 C53_4 1_555 1_555
C56_4 C54_4 1_555 1_555
H49_4 C56_4 1_555 1_555
H50_4 C56_4 1_555 1_555
C57_4 C54_4 1_555 1_555
H51_4 C57_4 1_555 1_555
C58_4 N9_2 1_555 1_555
H52_4 C58_4 1_555 1_555
N8_4 C56_4 1_555 1_555
C59_4 C44_4 1_555 1_555
H53_4 C59_4 1_555 1_555
H54_4 C59_4 1_555 1_555
C20_4 C21_4 1_555 1_555
C25_4 C29_4 1_555 1_555
C57_4 C58_4 1_555 1_555
N8_4 C59_4 1_555 1_555
Co12_2 O3_4 1_555 1_555
O21_2 C3_4 1_555 1_555
O3_4 C3_4 1_555 1_555
O5_4 Co12_2 1_555 1_555
O25 C16_4 1_555 1_555
O28 C16_4 1_555 1_555
O8_4 Co12_2 1_555 1_555
O9_4 C14_4 1_555 1_555
N1_4 Co12_2 1_555 1_555
C3_4 C5_4 1_555 1_555
C4_4 C7_4 1_555 1_555
C5_4 C13_4 1_555 1_555
C7_4 O5_4 1_555 1_555
C9_4 C10_4 1_555 1_555
C10_4 H2_4 1_555 1_555
C11_4 C4_4 1_555 1_555
H3_4 C11_4 1_555 1_555
C12_4 H4_4 1_555 1_555
C13_4 H5_4 1_555 1_555
C14_4 C24_4 1_555 1_555
C15_4 C11_4 1_555 1_555
H6_4 C15_4 1_555 1_555
C16_4 C9_4 1_555 1_555
C17_4 C9_4 1_555 1_555
H7_4 C17_4 1_555 1_555
C22_4 C4_4 1_555 1_555
H11_4 C22_4 1_555 1_555
C23_4 O9_4 1_555 1_555
C24_4 C17_4 1_555 1_555
H12_4 C24_4 1_555 1_555
C26_4 C10_4 1_555 1_555
H14_4 C26_4 1_555 1_555
C27_4 C5_4 1_555 1_555
H15_4 C27_4 1_555 1_555
C28_4 N1_4 1_555 1_555
H16_4 C28_4 1_555 1_555
C33_4 C34_4 1_555 1_555
C34_4 C28_4 1_555 1_555
H20_4 C34_4 1_555 1_555
C36_4 N1_4 1_555 1_555
H23_4 C36_4 1_555 1_555
C39_4 C33_4 1_555 1_555
H26_4 C39_4 1_555 1_555
C43_4 N4_4 1_555 1_555
H33_4 C43_4 1_555 1_555
H34_4 C43_4 1_555 1_555
O8_4 C7_4 1_555 1_555
C12_4 C22_4 1_555 1_555
C12_4 C23_4 1_555 1_555
C14_4 C26_4 1_555 1_555
C15_4 C23_4 1_555 1_555
C36_4 C39_4 1_555 1_555
H41_4 C50_4 1_555 1_555
H42_4 C50_4 1_555 1_555
H43_4 C51_4 1_555 1_555
H27_4 C40_4 1_555 1_555
H28_4 C40_4 1_555 1_555
H31_4 C42_4 1_555 1_555

#END
