
###############################################################################
#
# This file contains modified crystal structure data generated from the
# MOF subset of the Cambridge Structural Database (CSD) v543 
# hosted by the Cambridge Crystallographic Data Centre (CCDC).
#
# This work is licensed under the Creative Commons
# Attribution-NonCommercial-ShareAlike 4.0 International License.
# To view a copy of this license, visit
# http://creativecommons.org/licenses/by-nc-sa/4.0/
# or send a letter to
# Creative Commons, PO Box 1866, Mountain View, CA 94042, USA.
#
# CIF created using the CSD Python API on 29 September 2022
# The structure has been converted into the P1 space group
# The structure has a 3D framework
# The original CSD entry KOMMOR is in the monoclinic crystal system
# The framework has been calculated to contain at least 10.0% void space
# The void calculation uses a probe of radius 1.32A, grid spacing 0.4
#
###############################################################################

data_KOMMOR
_chemical_formula_moiety         '(C352 H288 Co16 N32 O80)n'
_symmetry_cell_setting           triclinic
_symmetry_space_group_name_H-M   'P 1'
_symmetry_Int_Tables_number      1
_space_group_name_Hall           'P 1'
loop_
_symmetry_equiv_pos_site_id
_symmetry_equiv_pos_as_xyz
1 x,y,z
_cell_length_a                   31.540(4)
_cell_length_b                   15.568(2)
_cell_length_c                   23.336(5)
_cell_angle_alpha                90
_cell_angle_beta                 126.411(3)
_cell_angle_gamma                90
_cell_volume                     9221.42
loop_
_atom_site_label
_atom_site_type_symbol
_atom_site_fract_x
_atom_site_fract_y
_atom_site_fract_z
H47 H 0.894303 0.051019 0.037357
H50 H 0.834920 0.001946 0.055506
O16 O 0.7390(2) 0.1615(4) 0.0491(3)
O17 O 0.8230(2) 0.1368(4) 0.1277(3)
C66 C 0.7630(3) 0.0508(4) 0.1332(5)
C69 C 0.8019(3) 0.0115(5) 0.1949(5)
H60 H 0.836692 0.029046 0.218448
C72 C 0.7749(3) 0.1202(5) 0.1018(4)
C82 C 0.7105(4) 0.0274(5) 0.1006(5)
H68 H 0.683730 0.055051 0.059139
Co5 Co 0.99148(4) 0.00706(6) 0.05334(5)
Co10 Co 0.80742(4) 0.23026(7) 0.05503(6)
Co2 Co 0.30742(4) 0.26974(7) 0.55503(6)
O1 O 0.2091(2) 0.1512(3) 0.5241(3)
O3 O 0.2959(2) 0.1694(3) 0.5977(3)
N1 N 0.3781(2) 0.2232(4) 0.5814(4)
C1 C 0.2592(3) 0.0618(5) 0.6241(4)
C2 C 0.2543(3) 0.1328(4) 0.5784(4)
C15 C 0.2160(3) 0.0223(5) 0.6140(4)
H5 H 0.182200 0.041080 0.577763
C22 C 0.3106(3) 0.0339(5) 0.6816(5)
H12 H 0.340120 0.060418 0.689786
C29 C 0.4176(4) 0.2713(6) 0.5961(7)
H16 H 0.416561 0.329274 0.604803
C32 C 0.4601(6) 0.2429(8) 0.5996(9)
H19 H 0.485805 0.281528 0.608366
C33 C 0.3820(3) 0.1407(6) 0.5721(6)
H20 H 0.356043 0.103372 0.564331
C34 C 0.4647(3) 0.1595(7) 0.5903(6)
C40 C 0.4243(4) 0.1071(8) 0.5735(7)
H28 H 0.424495 0.049560 0.563057
N4 N 0.4995(3) 0.0497(7) 0.5504(5)
C42 C 0.5472(5) 0.0123(10) 0.5665(7)
H32 H 0.564833 0.052968 0.555713
C43 C 0.4662(4) 0.0676(10) 0.4771(7)
H33 H 0.483380 0.108258 0.465504
H34 H 0.434022 0.093894 0.465243
C44 C 0.5115(4) 0.1276(9) 0.5951(7)
H35 H 0.524015 0.172971 0.580048
H36 H 0.539594 0.114145 0.644366
H41 H 0.429231 0.001682 0.383242
Co9 Co 0.19258(4) 0.23026(7) 0.44497(6)
O22 O 0.2909(2) 0.3488(3) 0.4759(3)
O23 O 0.2390(2) 0.3385(4) 0.5491(3)
O25 O 0.3230(2) 0.3632(4) 0.6277(3)
C41 C 0.7291(5) 0.6857(12) 0.0171(6)
H29 H 0.752099 0.637485 0.027194
H30 H 0.703734 0.667128 0.025214
N7 N 0.9466(3) 0.9597(4) 0.0844(4)
C53 C 0.9013(4) 0.9992(6) 0.0613(5)
C54 C 0.8744(4) 0.8870(7) 0.1026(6)
N8 N 0.7974(3) 0.7909(5) 0.0537(4)
C55 C 0.7609(5) 0.7568(9) 0.0665(6)
H48 H 0.780493 0.736135 0.115172
H49 H 0.737634 0.802252 0.060716
C56 C 0.8646(4) 0.9699(9) 0.0700(6)
C57 C 0.8324(5) 0.8502(9) 0.1100(7)
H51 H 0.812032 0.897119 0.109547
H52 H 0.849922 0.821037 0.155432
C58 C 0.9532(5) 0.8833(6) 0.1117(7)
H53 H 0.982542 0.851653 0.124086
C59 C 0.9187(5) 0.8470(7) 0.1230(7)
H54 H 0.926595 0.793787 0.145305
Co3 Co 0.49148(4) 0.50706(6) 0.05334(5)
O12 O 0.5421(2) 0.4093(3) 0.0931(3)
O14 O 0.5611(2) 0.4038(3) 0.0158(3)
O15 O 0.5444(2) 0.5953(4) 0.1270(3)
O18 O 0.5539(2) 0.5784(3) 0.0415(3)
O19 O 0.7256(2) 0.1355(4) 0.2431(3)
O20 O 0.7294(2) 0.8593(4) 0.2247(3)
C63 C 0.6067(3) 0.3102(4) 0.1152(4)
C64 C 0.5670(3) 0.3793(4) 0.0709(4)
C65 C 0.6305(3) 0.7102(5) 0.1970(4)
H57 H 0.619293 0.688346 0.223058
C67 C 0.6255(4) 0.7143(5) 0.0912(5)
H58 H 0.609878 0.695740 0.044854
C68 C 0.6410(3) 0.2821(5) 0.1003(4)
H59 H 0.637373 0.303466 0.060408
C70 C 0.6866(3) 0.8026(5) 0.1887(4)
C71 C 0.7261(3) 0.0727(5) 0.2860(4)
C73 C 0.6081(3) 0.6817(4) 0.1299(4)
C74 C 0.5657(3) 0.6143(5) 0.0968(4)
C76 C 0.6980(3) 0.9639(6) 0.1293(5)
H62 H 0.662986 0.949363 0.107752
C77 C 0.7897(3) 0.9452(5) 0.2227(5)
H63 H 0.816431 0.916292 0.263437
C78 C 0.7774(3) 0.0455(5) 0.3422(4)
H64 H 0.806630 0.072680 0.349944
C79 C 0.6807(3) 0.2225(5) 0.1437(5)
H65 H 0.704651 0.206057 0.134753
C80 C 0.6703(4) 0.7723(5) 0.2273(4)
H66 H 0.685462 0.792488 0.273098
C83 C 0.6651(3) 0.7732(5) 0.1212(4)
H69 H 0.677567 0.793260 0.096148
C84 C 0.6831(3) 0.1889(5) 0.2004(5)
C85 C 0.7375(3) 0.9221(5) 0.1898(4)
C86 C 0.6504(4) 0.2172(6) 0.2172(5)
H70 H 0.654013 0.196095 0.257117
C87 C 0.6121(3) 0.2775(5) 0.1740(4)
H71 H 0.589648 0.296227 0.184859
C88 C 0.6832(3) 0.0334(6) 0.2740(5)
H72 H 0.649635 0.051011 0.236361
N10 N 0.4466(3) 0.4597(4) 0.0844(4)
Co1 Co 0.50852(4) 0.49294(6) 0.94666(5)
O2 O 0.4579(2) 0.5907(3) 0.9069(3)
O4 O 0.4389(2) 0.5962(3) 0.9842(3)
O5 O 0.4556(2) 0.4047(4) 0.8730(3)
O8 O 0.4461(2) 0.4216(3) 0.9585(3)
O9 O 0.2744(2) 0.8645(4) 0.7569(3)
O10 O 0.2706(2) 0.1407(4) 0.7753(3)
N2 N 0.5534(3) 0.5403(4) 0.9156(4)
C3 C 0.3933(3) 0.6898(4) 0.8848(4)
C4 C 0.4330(3) 0.6207(4) 0.9291(4)
C5 C 0.3695(3) 0.2898(5) 0.8030(4)
H1 H 0.380707 0.311654 0.776942
C7 C 0.3745(4) 0.2857(5) 0.9088(5)
H2 H 0.390122 0.304260 0.955146
C8 C 0.3590(3) 0.7179(5) 0.8997(4)
H3 H 0.362627 0.696534 0.939592
C10 C 0.3134(3) 0.1974(5) 0.8113(4)
C11 C 0.2739(3) 0.9273(5) 0.7140(4)
C13 C 0.3919(3) 0.3183(4) 0.8701(4)
C14 C 0.4343(3) 0.3857(5) 0.9032(4)
C16 C 0.3020(3) 0.0361(6) 0.8707(5)
H6 H 0.337014 0.050637 0.892248
C17 C 0.2103(3) 0.0548(5) 0.7773(5)
H7 H 0.183569 0.083708 0.736563
C18 C 0.2226(3) 0.9545(5) 0.6578(4)
H8 H 0.193370 0.927320 0.650056
C19 C 0.5987(4) 0.5008(6) 0.9387(5)
H9 H 0.605697 0.448981 0.962643
C20 C 0.3193(3) 0.7775(5) 0.8563(5)
H10 H 0.295349 0.793943 0.865247
C21 C 0.3297(4) 0.2277(5) 0.7727(4)
H11 H 0.314538 0.207512 0.726902
C23 C 0.6256(4) 0.6130(7) 0.8974(6)
C25 C 0.3349(3) 0.2268(5) 0.8788(4)
H14 H 0.322433 0.206740 0.903852
C26 C 0.3169(3) 0.8111(5) 0.7996(5)
C27 C 0.2625(3) 0.0779(5) 0.8102(4)
C28 C 0.3496(4) 0.7828(6) 0.7828(5)
H15 H 0.345987 0.803905 0.742883
C30 C 0.3879(3) 0.7225(5) 0.8260(4)
H17 H 0.410352 0.703773 0.815141
C31 C 0.3168(3) 0.9666(6) 0.7260(5)
H18 H 0.350365 0.948989 0.763639
N3 N 0.7026(3) 0.7091(5) 0.9463(4)
C35 C 0.7391(5) 0.7432(9) 0.9335(6)
H21 H 0.719507 0.763865 0.884828
H22 H 0.762366 0.697748 0.939284
C36 C 0.6354(4) 0.5301(9) 0.9300(6)
H23 H 0.665080 0.498054 0.944494
C37 C 0.6676(5) 0.6498(9) 0.8900(7)
H24 H 0.687968 0.602881 0.890453
H25 H 0.650078 0.678963 0.844568
C38 C 0.5468(5) 0.6167(6) 0.8883(7)
H26 H 0.517458 0.648347 0.875914
C39 C 0.5813(5) 0.6530(7) 0.8770(7)
H27 H 0.573405 0.706213 0.854695
H31 H 0.570769 0.998318 0.616758
N5 N 0.6219(2) 0.7768(4) 0.4186(4)
C45 C 0.5824(4) 0.7287(6) 0.4039(7)
H37 H 0.583439 0.670726 0.395197
C46 C 0.5399(6) 0.7571(8) 0.4004(9)
H38 H 0.514195 0.718472 0.391634
C47 C 0.6180(3) 0.8593(6) 0.4279(6)
H39 H 0.643957 0.896628 0.435669
C48 C 0.5353(3) 0.8405(7) 0.4097(6)
C49 C 0.5757(4) 0.8929(8) 0.4265(7)
H40 H 0.575505 0.950440 0.436943
N6 N 0.5005(3) 0.9503(7) 0.4496(5)
C50 C 0.4528(5) 0.9877(10) 0.4335(7)
H42 H 0.435167 0.947032 0.444287
C51 C 0.5338(4) 0.9324(10) 0.5229(7)
H43 H 0.516620 0.891742 0.534496
H44 H 0.565978 0.906106 0.534757
C52 C 0.4885(4) 0.8724(9) 0.4049(7)
H45 H 0.475985 0.827029 0.419952
H46 H 0.460406 0.885855 0.355634
C60 C 0.7709(5) 0.8143(12) 0.9829(6)
H55 H 0.747901 0.862515 0.972806
H56 H 0.796266 0.832872 0.974786
Co8 Co 0.69258(4) 0.73026(7) 0.44497(6)
O11 O 0.7909(2) 0.8488(3) 0.4759(3)
O13 O 0.7041(2) 0.8306(3) 0.4023(3)
C61 C 0.7408(3) 0.9382(5) 0.3759(4)
C62 C 0.7457(3) 0.8672(4) 0.4216(4)
C75 C 0.7840(3) 0.9777(5) 0.3860(4)
H61 H 0.817800 0.958920 0.422237
C81 C 0.6894(3) 0.9661(5) 0.3184(5)
H67 H 0.659880 0.939582 0.310214
Co6 Co 0.80742(4) 0.76974(7) 0.55503(6)
O21 O 0.7091(2) 0.6512(3) 0.5241(3)
O24 O 0.7610(2) 0.6615(4) 0.4509(3)
O26 O 0.6770(2) 0.6368(4) 0.3723(3)
O6 O 0.2610(2) 0.8385(4) 0.9509(3)
O7 O 0.1770(2) 0.8632(4) 0.8723(3)
C6 C 0.2370(3) 0.9492(4) 0.8668(5)
C9 C 0.1981(3) 0.9885(5) 0.8051(5)
H4 H 0.163308 0.970954 0.781552
C12 C 0.2251(3) 0.8798(5) 0.8982(4)
C24 C 0.2895(4) 0.9726(5) 0.8994(5)
H13 H 0.316270 0.944949 0.940861
Co7 Co 0.19258(4) 0.76974(7) 0.94497(6)
C43_2 C 0.5338(4) 0.0676(10) 0.0229(7)
H33_2 H 0.516620 0.108258 0.034496
H34_2 H 0.565978 0.093894 0.034757
H41_2 H 0.570769 0.001682 0.116758
O22_2 O 0.7091(2) 0.3488(3) 0.0241(3)
Co2_2 Co 0.69258(4) 0.26974(7) 0.94497(6)
O1_2 O 0.7909(2) 0.1512(3) 0.9759(3)
O3_2 O 0.7041(2) 0.1694(3) 0.9023(3)
N1_2 N 0.6219(2) 0.2232(4) 0.9186(4)
C1_2 C 0.7408(3) 0.0618(5) 0.8759(4)
C2_2 C 0.7457(3) 0.1328(4) 0.9216(4)
C15_2 C 0.7840(3) 0.0223(5) 0.8860(4)
H5_2 H 0.817800 0.041080 0.922237
C22_2 C 0.6894(3) 0.0339(5) 0.8184(5)
H12_2 H 0.659880 0.060418 0.810214
C29_2 C 0.5824(4) 0.2713(6) 0.9039(7)
H16_2 H 0.583439 0.329274 0.895197
C32_2 C 0.5399(6) 0.2429(8) 0.9004(9)
H19_2 H 0.514195 0.281528 0.891634
C33_2 C 0.6180(3) 0.1407(6) 0.9279(6)
H20_2 H 0.643957 0.103372 0.935669
C34_2 C 0.5353(3) 0.1595(7) 0.9097(6)
C40_2 C 0.5757(4) 0.1071(8) 0.9265(7)
H28_2 H 0.575505 0.049560 0.936943
N4_2 N 0.5005(3) 0.0497(7) 0.9496(5)
C42_2 C 0.4528(5) 0.0123(10) 0.9335(7)
H32_2 H 0.435167 0.052968 0.944287
C44_2 C 0.4885(4) 0.1276(9) 0.9049(7)
H35_2 H 0.475985 0.172971 0.919952
H36_2 H 0.460406 0.114145 0.855634
H47_2 H 0.105697 0.051019 0.462643
H50_2 H 0.165080 0.001946 0.444494
O16_2 O 0.2610(2) 0.1615(4) 0.4509(3)
O17_2 O 0.1770(2) 0.1368(4) 0.3723(3)
C66_2 C 0.2370(3) 0.0508(4) 0.3668(5)
C69_2 C 0.1981(3) 0.0115(5) 0.3051(5)
H60_2 H 0.163308 0.029046 0.281552
C72_2 C 0.2251(3) 0.1202(5) 0.3982(4)
C82_2 C 0.2895(4) 0.0274(5) 0.3994(5)
H68_2 H 0.316270 0.055051 0.440861
Co5_2 Co 0.00852(4) 0.00706(6) 0.44666(5)
O23_2 O 0.7610(2) 0.3385(4) 0.9509(3)
O25_2 O 0.6770(2) 0.3632(4) 0.8723(3)
N5_2 N 0.3781(2) 0.7768(4) 0.0814(4)
C45_2 C 0.4176(4) 0.7287(6) 0.0961(7)
H37_2 H 0.416561 0.670726 0.104803
C46_2 C 0.4601(6) 0.7571(8) 0.0996(9)
H38_2 H 0.485805 0.718472 0.108366
C47_2 C 0.3820(3) 0.8593(6) 0.0721(6)
H39_2 H 0.356043 0.896628 0.064331
C48_2 C 0.4647(3) 0.8405(7) 0.0903(6)
C49_2 C 0.4243(4) 0.8929(8) 0.0735(7)
H40_2 H 0.424495 0.950440 0.063057
N6_2 N 0.4995(3) 0.9503(7) 0.0504(5)
C50_2 C 0.5472(5) 0.9877(10) 0.0665(7)
H42_2 H 0.564833 0.947032 0.055713
C52_2 C 0.5115(4) 0.8724(9) 0.0951(7)
H45_2 H 0.524015 0.827029 0.080048
H46_2 H 0.539594 0.885855 0.144366
Co8_2 Co 0.30742(4) 0.73026(7) 0.05503(6)
Co1_2 Co 0.49148(4) 0.49294(6) 0.55334(5)
O2_2 O 0.5421(2) 0.5907(3) 0.5931(3)
O4_2 O 0.5611(2) 0.5962(3) 0.5158(3)
O5_2 O 0.5444(2) 0.4047(4) 0.6270(3)
O8_2 O 0.5539(2) 0.4216(3) 0.5415(3)
O9_2 O 0.7256(2) 0.8645(4) 0.7431(3)
O10_2 O 0.7294(2) 0.1407(4) 0.7247(3)
N2_2 N 0.4466(3) 0.5403(4) 0.5844(4)
C3_2 C 0.6067(3) 0.6898(4) 0.6152(4)
C4_2 C 0.5670(3) 0.6207(4) 0.5709(4)
C5_2 C 0.6305(3) 0.2898(5) 0.6970(4)
H1_2 H 0.619293 0.311654 0.723058
C7_2 C 0.6255(4) 0.2857(5) 0.5912(5)
H2_2 H 0.609878 0.304260 0.544854
C8_2 C 0.6410(3) 0.7179(5) 0.6003(4)
H3_2 H 0.637373 0.696534 0.560408
C10_2 C 0.6866(3) 0.1974(5) 0.6887(4)
C11_2 C 0.7261(3) 0.9273(5) 0.7860(4)
C13_2 C 0.6081(3) 0.3183(4) 0.6299(4)
C14_2 C 0.5657(3) 0.3857(5) 0.5968(4)
C16_2 C 0.6980(3) 0.0361(6) 0.6293(5)
H6_2 H 0.662986 0.050637 0.607752
C17_2 C 0.7897(3) 0.0548(5) 0.7227(5)
H7_2 H 0.816431 0.083708 0.763437
C18_2 C 0.7774(3) 0.9545(5) 0.8422(4)
H8_2 H 0.806630 0.927320 0.849944
C19_2 C 0.4013(4) 0.5008(6) 0.5613(5)
H9_2 H 0.394303 0.448981 0.537357
C20_2 C 0.6807(3) 0.7775(5) 0.6437(5)
H10_2 H 0.704651 0.793943 0.634753
C21_2 C 0.6703(4) 0.2277(5) 0.7273(4)
H11_2 H 0.685462 0.207512 0.773098
C23_2 C 0.3744(4) 0.6130(7) 0.6026(6)
C25_2 C 0.6651(3) 0.2268(5) 0.6212(4)
H14_2 H 0.677567 0.206740 0.596148
C26_2 C 0.6831(3) 0.8111(5) 0.7004(5)
C27_2 C 0.7375(3) 0.0779(5) 0.6898(4)
C28_2 C 0.6504(4) 0.7828(6) 0.7172(5)
H15_2 H 0.654013 0.803905 0.757117
C30_2 C 0.6121(3) 0.7225(5) 0.6740(4)
H17_2 H 0.589648 0.703773 0.684859
C31_2 C 0.6832(3) 0.9666(6) 0.7740(5)
H18_2 H 0.649635 0.948989 0.736361
N3_2 N 0.2974(3) 0.7091(5) 0.5537(4)
C35_2 C 0.2609(5) 0.7432(9) 0.5665(6)
H21_2 H 0.280493 0.763865 0.615172
H22_2 H 0.237634 0.697748 0.560716
C36_2 C 0.3646(4) 0.5301(9) 0.5700(6)
H23_2 H 0.334920 0.498054 0.555506
C37_2 C 0.3324(5) 0.6498(9) 0.6100(7)
H24_2 H 0.312032 0.602881 0.609547
H25_2 H 0.349922 0.678963 0.655432
C38_2 C 0.4532(5) 0.6167(6) 0.6117(7)
H26_2 H 0.482542 0.648347 0.624086
C39_2 C 0.4187(5) 0.6530(7) 0.6230(7)
H27_2 H 0.426595 0.706213 0.645305
C41_2 C 0.2709(5) 0.6857(12) 0.4829(6)
H29_2 H 0.247901 0.637485 0.472806
H30_2 H 0.296266 0.667128 0.474786
H31_2 H 0.429231 0.998318 0.883242
C51_2 C 0.4662(4) 0.9324(10) 0.9771(7)
H43_2 H 0.483380 0.891742 0.965504
H44_2 H 0.434022 0.906106 0.965243
N7_2 N 0.0534(3) 0.9597(4) 0.4156(4)
C53_2 C 0.0987(4) 0.9992(6) 0.4387(5)
C54_2 C 0.1256(4) 0.8870(7) 0.3974(6)
N8_2 N 0.2026(3) 0.7909(5) 0.4463(4)
C55_2 C 0.2391(5) 0.7568(9) 0.4335(6)
H48_2 H 0.219507 0.736135 0.384828
H49_2 H 0.262366 0.802252 0.439284
C56_2 C 0.1354(4) 0.9699(9) 0.4300(6)
C57_2 C 0.1676(5) 0.8502(9) 0.3900(7)
H51_2 H 0.187968 0.897119 0.390453
H52_2 H 0.150078 0.821037 0.344568
C58_2 C 0.0468(5) 0.8833(6) 0.3883(7)
H53_2 H 0.017458 0.851653 0.375914
C59_2 C 0.0813(5) 0.8470(7) 0.3770(7)
H54_2 H 0.073405 0.793787 0.354695
C60_2 C 0.2291(5) 0.8143(12) 0.5171(6)
H55_2 H 0.252099 0.862515 0.527194
H56_2 H 0.203734 0.832872 0.525214
Co3_2 Co 0.50852(4) 0.50706(6) 0.44666(5)
O12_2 O 0.4579(2) 0.4093(3) 0.4069(3)
O14_2 O 0.4389(2) 0.4038(3) 0.4842(3)
O15_2 O 0.4556(2) 0.5953(4) 0.3730(3)
O18_2 O 0.4461(2) 0.5784(3) 0.4585(3)
O19_2 O 0.2744(2) 0.1355(4) 0.2569(3)
O20_2 O 0.2706(2) 0.8593(4) 0.2753(3)
C63_2 C 0.3933(3) 0.3102(4) 0.3848(4)
C64_2 C 0.4330(3) 0.3793(4) 0.4291(4)
C65_2 C 0.3695(3) 0.7102(5) 0.3030(4)
H57_2 H 0.380707 0.688346 0.276942
C67_2 C 0.3745(4) 0.7143(5) 0.4088(5)
H58_2 H 0.390122 0.695740 0.455146
C68_2 C 0.3590(3) 0.2821(5) 0.3997(4)
H59_2 H 0.362627 0.303466 0.439592
C70_2 C 0.3134(3) 0.8026(5) 0.3113(4)
C71_2 C 0.2739(3) 0.0727(5) 0.2140(4)
C73_2 C 0.3919(3) 0.6817(4) 0.3701(4)
C74_2 C 0.4343(3) 0.6143(5) 0.4032(4)
C76_2 C 0.3020(3) 0.9639(6) 0.3707(5)
H62_2 H 0.337014 0.949363 0.392248
C77_2 C 0.2103(3) 0.9452(5) 0.2773(5)
H63_2 H 0.183569 0.916292 0.236563
C78_2 C 0.2226(3) 0.0455(5) 0.1578(4)
H64_2 H 0.193370 0.072680 0.150056
C79_2 C 0.3193(3) 0.2225(5) 0.3563(5)
H65_2 H 0.295349 0.206057 0.365247
C80_2 C 0.3297(4) 0.7723(5) 0.2727(4)
H66_2 H 0.314538 0.792488 0.226902
C83_2 C 0.3349(3) 0.7732(5) 0.3788(4)
H69_2 H 0.322433 0.793260 0.403852
C84_2 C 0.3169(3) 0.1889(5) 0.2996(5)
C85_2 C 0.2625(3) 0.9221(5) 0.3102(4)
C86_2 C 0.3496(4) 0.2172(6) 0.2828(5)
H70_2 H 0.345987 0.196095 0.242883
C87_2 C 0.3879(3) 0.2775(5) 0.3260(4)
H71_2 H 0.410352 0.296227 0.315141
C88_2 C 0.3168(3) 0.0334(6) 0.2260(5)
H72_2 H 0.350365 0.051011 0.263639
N10_2 N 0.5534(3) 0.4597(4) 0.4156(4)
O6_2 O 0.7390(2) 0.8385(4) 0.5491(3)
O7_2 O 0.8230(2) 0.8632(4) 0.6277(3)
C6_2 C 0.7630(3) 0.9492(4) 0.6332(5)
C9_2 C 0.8019(3) 0.9885(5) 0.6949(5)
H4_2 H 0.836692 0.970954 0.718448
C12_2 C 0.7749(3) 0.8798(5) 0.6018(4)
C24_2 C 0.7105(4) 0.9726(5) 0.6006(5)
H13_2 H 0.683730 0.944949 0.559139
O11_2 O 0.2091(2) 0.8488(3) 0.0241(3)
O13_2 O 0.2959(2) 0.8306(3) 0.0977(3)
C61_2 C 0.2592(3) 0.9382(5) 0.1241(4)
C62_2 C 0.2543(3) 0.8672(4) 0.0784(4)
C75_2 C 0.2160(3) 0.9777(5) 0.1140(4)
H61_2 H 0.182200 0.958920 0.077763
C81_2 C 0.3106(3) 0.9661(5) 0.1816(5)
H67_2 H 0.340120 0.939582 0.189786
O24_2 O 0.2390(2) 0.6615(4) 0.0491(3)
O26_2 O 0.3230(2) 0.6368(4) 0.1277(3)
O21_2 O 0.2909(2) 0.6512(3) 0.9759(3)
C41_3 C 0.2291(5) 0.1857(12) 0.0171(6)
H29_3 H 0.252099 0.137485 0.027194
H30_3 H 0.203734 0.167128 0.025214
C53_3 C 0.4013(4) 0.4992(6) 0.0613(5)
H47_3 H 0.394303 0.551019 0.037357
C54_3 C 0.3744(4) 0.3870(7) 0.1026(6)
N8_3 N 0.2974(3) 0.2909(5) 0.0537(4)
C55_3 C 0.2609(5) 0.2568(9) 0.0665(6)
H48_3 H 0.280493 0.236135 0.115172
H49_3 H 0.237634 0.302252 0.060716
C56_3 C 0.3646(4) 0.4699(9) 0.0700(6)
H50_3 H 0.334920 0.501946 0.055506
C57_3 C 0.3324(5) 0.3502(9) 0.1100(7)
H51_3 H 0.312032 0.397119 0.109547
H52_3 H 0.349922 0.321037 0.155432
C58_3 C 0.4532(5) 0.3833(6) 0.1117(7)
H53_3 H 0.482542 0.351653 0.124086
C59_3 C 0.4187(5) 0.3470(7) 0.1230(7)
H54_3 H 0.426595 0.293787 0.145305
O15_3 O 0.0444(2) 0.0953(4) 0.1270(3)
O18_3 O 0.0539(2) 0.0784(3) 0.0415(3)
O20_3 O 0.2294(2) 0.3593(4) 0.2247(3)
C65_3 C 0.1305(3) 0.2102(5) 0.1970(4)
H57_3 H 0.119293 0.188346 0.223058
C66_3 C 0.2630(3) 0.5508(4) 0.1332(5)
C67_3 C 0.1255(4) 0.2143(5) 0.0912(5)
H58_3 H 0.109878 0.195740 0.044854
C69_3 C 0.3019(3) 0.5115(5) 0.1949(5)
H60_3 H 0.336692 0.529046 0.218448
C70_3 C 0.1866(3) 0.3026(5) 0.1887(4)
C72_3 C 0.2749(3) 0.6202(5) 0.1018(4)
C73_3 C 0.1081(3) 0.1817(4) 0.1299(4)
C74_3 C 0.0657(3) 0.1143(5) 0.0968(4)
C76_3 C 0.1980(3) 0.4639(6) 0.1293(5)
H62_3 H 0.162986 0.449363 0.107752
C77_3 C 0.2897(3) 0.4452(5) 0.2227(5)
H63_3 H 0.316431 0.416292 0.263437
C80_3 C 0.1703(4) 0.2723(5) 0.2273(4)
H66_3 H 0.185462 0.292488 0.273098
C82_3 C 0.2105(4) 0.5274(5) 0.1006(5)
H68_3 H 0.183730 0.555051 0.059139
C83_3 C 0.1651(3) 0.2732(5) 0.1212(4)
H69_3 H 0.177567 0.293260 0.096148
C85_3 C 0.2375(3) 0.4221(5) 0.1898(4)
N2_3 N 0.0534(3) 0.0403(4) 0.9156(4)
C19_3 C 0.0987(4) 0.0008(6) 0.9387(5)
C23_3 C 0.1256(4) 0.1130(7) 0.8974(6)
N3_3 N 0.2026(3) 0.2091(5) 0.9463(4)
C35_3 C 0.2391(5) 0.2432(9) 0.9335(6)
H21_3 H 0.219507 0.263865 0.884828
H22_3 H 0.262366 0.197748 0.939284
C36_3 C 0.1354(4) 0.0301(9) 0.9300(6)
C37_3 C 0.1676(5) 0.1498(9) 0.8900(7)
H24_3 H 0.187968 0.102881 0.890453
H25_3 H 0.150078 0.178963 0.844568
C38_3 C 0.0468(5) 0.1167(6) 0.8883(7)
H26_3 H 0.017458 0.148347 0.875914
C39_3 C 0.0813(5) 0.1530(7) 0.8770(7)
H27_3 H 0.073405 0.206213 0.854695
C42_3 C 0.0472(5) 0.5123(10) 0.5665(7)
H31_3 H 0.070769 0.498318 0.616758
H32_3 H 0.064833 0.552968 0.555713
C44_3 C 0.0115(4) 0.6276(9) 0.5951(7)
H35_3 H 0.024015 0.672971 0.580048
H36_3 H 0.039594 0.614145 0.644366
N5_3 N 0.1219(2) 0.2768(4) 0.4186(4)
C45_3 C 0.0824(4) 0.2287(6) 0.4039(7)
H37_3 H 0.083439 0.170726 0.395197
C46_3 C 0.0399(6) 0.2571(8) 0.4004(9)
H38_3 H 0.014195 0.218472 0.391634
C47_3 C 0.1180(3) 0.3593(6) 0.4279(6)
H39_3 H 0.143957 0.396628 0.435669
C48_3 C 0.0353(3) 0.3405(7) 0.4097(6)
C49_3 C 0.0757(4) 0.3929(8) 0.4265(7)
H40_3 H 0.075505 0.450440 0.436943
N6_3 N 0.0005(3) 0.4503(7) 0.4496(5)
C51_3 C 0.0338(4) 0.4324(10) 0.5229(7)
H43_3 H 0.016620 0.391742 0.534496
H44_3 H 0.065978 0.406106 0.534757
C60_3 C 0.2709(5) 0.3143(12) 0.9829(6)
H55_3 H 0.247901 0.362515 0.972806
H56_3 H 0.296266 0.332872 0.974786
O12_3 O 0.0421(2) 0.9093(3) 0.0931(3)
O13_3 O 0.2041(2) 0.3306(3) 0.4023(3)
O14_3 O 0.0611(2) 0.9038(3) 0.0158(3)
O19_3 O 0.2256(2) 0.6355(4) 0.2431(3)
C61_3 C 0.2408(3) 0.4382(5) 0.3759(4)
C62_3 C 0.2457(3) 0.3672(4) 0.4216(4)
C63_3 C 0.1067(3) 0.8102(4) 0.1152(4)
C64_3 C 0.0670(3) 0.8793(4) 0.0709(4)
C68_3 C 0.1410(3) 0.7821(5) 0.1003(4)
H59_3 H 0.137373 0.803466 0.060408
C71_3 C 0.2261(3) 0.5727(5) 0.2860(4)
C75_3 C 0.2840(3) 0.4777(5) 0.3860(4)
H61_3 H 0.317800 0.458920 0.422237
C78_3 C 0.2774(3) 0.5455(5) 0.3422(4)
H64_3 H 0.306630 0.572680 0.349944
C79_3 C 0.1807(3) 0.7225(5) 0.1437(5)
H65_3 H 0.204651 0.706057 0.134753
C81_3 C 0.1894(3) 0.4661(5) 0.3184(5)
H67_3 H 0.159880 0.439582 0.310214
C84_3 C 0.1831(3) 0.6889(5) 0.2004(5)
C86_3 C 0.1504(4) 0.7172(6) 0.2172(5)
H70_3 H 0.154013 0.696095 0.257117
C87_3 C 0.1121(3) 0.7775(5) 0.1740(4)
H71_3 H 0.089648 0.796227 0.184859
C88_3 C 0.1832(3) 0.5334(6) 0.2740(5)
H72_3 H 0.149635 0.551011 0.236361
Co1_3 Co 0.00852(4) 0.99294(6) 0.94666(5)
H9_3 H 0.105697 0.948981 0.962643
H23_3 H 0.165080 0.998054 0.944494
O2_3 O 0.9579(2) 0.0907(3) 0.9069(3)
O3_3 O 0.7959(2) 0.6694(3) 0.5977(3)
O4_3 O 0.9389(2) 0.0962(3) 0.9842(3)
N1_3 N 0.8781(2) 0.7232(4) 0.5814(4)
O9_3 O 0.7744(2) 0.3645(4) 0.7569(3)
C1_3 C 0.7592(3) 0.5618(5) 0.6241(4)
C2_3 C 0.7543(3) 0.6328(4) 0.5784(4)
C3_3 C 0.8933(3) 0.1898(4) 0.8848(4)
C4_3 C 0.9330(3) 0.1207(4) 0.9291(4)
C8_3 C 0.8590(3) 0.2179(5) 0.8997(4)
H3_3 H 0.862627 0.196534 0.939592
C11_3 C 0.7739(3) 0.4273(5) 0.7140(4)
C15_3 C 0.7160(3) 0.5223(5) 0.6140(4)
H5_3 H 0.682200 0.541080 0.577763
C18_3 C 0.7226(3) 0.4545(5) 0.6578(4)
H8_3 H 0.693370 0.427320 0.650056
C20_3 C 0.8193(3) 0.2775(5) 0.8563(5)
H10_3 H 0.795349 0.293943 0.865247
C22_3 C 0.8106(3) 0.5339(5) 0.6816(5)
H12_3 H 0.840120 0.560418 0.689786
C26_3 C 0.8169(3) 0.3111(5) 0.7996(5)
C28_3 C 0.8496(4) 0.2828(6) 0.7828(5)
H15_3 H 0.845987 0.303905 0.742883
C29_3 C 0.9176(4) 0.7713(6) 0.5961(7)
H16_3 H 0.916561 0.829274 0.604803
C30_3 C 0.8879(3) 0.2225(5) 0.8260(4)
H17_3 H 0.910352 0.203773 0.815141
C31_3 C 0.8168(3) 0.4666(6) 0.7260(5)
H18_3 H 0.850365 0.448989 0.763639
C32_3 C 0.9601(6) 0.7429(8) 0.5996(9)
H19_3 H 0.985805 0.781528 0.608366
C33_3 C 0.8820(3) 0.6407(6) 0.5721(6)
H20_3 H 0.856043 0.603372 0.564331
C34_3 C 0.9647(3) 0.6595(7) 0.5903(6)
C40_3 C 0.9243(4) 0.6071(8) 0.5735(7)
H28_3 H 0.924495 0.549560 0.563057
N4_3 N 0.9995(3) 0.5497(7) 0.5504(5)
C43_3 C 0.9662(4) 0.5676(10) 0.4771(7)
H33_3 H 0.983380 0.608258 0.465504
H34_3 H 0.934022 0.593894 0.465243
C50_3 C 0.9528(5) 0.4877(10) 0.4335(7)
H41_3 H 0.929231 0.501682 0.383242
H42_3 H 0.935167 0.447032 0.444287
C52_3 C 0.9885(4) 0.3724(9) 0.4049(7)
H45_3 H 0.975985 0.327029 0.419952
H46_3 H 0.960406 0.385855 0.355634
O5_3 O 0.9556(2) 0.9047(4) 0.8730(3)
O8_3 O 0.9461(2) 0.9216(3) 0.9585(3)
O10_3 O 0.7706(2) 0.6407(4) 0.7753(3)
C5_3 C 0.8695(3) 0.7898(5) 0.8030(4)
H1_3 H 0.880707 0.811654 0.776942
C6_3 C 0.7370(3) 0.4492(4) 0.8668(5)
C7_3 C 0.8745(4) 0.7857(5) 0.9088(5)
H2_3 H 0.890122 0.804260 0.955146
C9_3 C 0.6981(3) 0.4885(5) 0.8051(5)
H4_3 H 0.663308 0.470954 0.781552
C10_3 C 0.8134(3) 0.6974(5) 0.8113(4)
C12_3 C 0.7251(3) 0.3798(5) 0.8982(4)
C13_3 C 0.8919(3) 0.8183(4) 0.8701(4)
C14_3 C 0.9343(3) 0.8857(5) 0.9032(4)
C16_3 C 0.8020(3) 0.5361(6) 0.8707(5)
H6_3 H 0.837014 0.550637 0.892248
C17_3 C 0.7103(3) 0.5548(5) 0.7773(5)
H7_3 H 0.683569 0.583708 0.736563
C21_3 C 0.8297(4) 0.7277(5) 0.7727(4)
H11_3 H 0.814538 0.707512 0.726902
C24_3 C 0.7895(4) 0.4726(5) 0.8994(5)
H13_3 H 0.816270 0.444949 0.940861
C25_3 C 0.8349(3) 0.7268(5) 0.8788(4)
H14_3 H 0.822433 0.706740 0.903852
C27_3 C 0.7625(3) 0.5779(5) 0.8102(4)
C43_4 C 0.0338(4) 0.5676(10) 0.0229(7)
H33_4 H 0.016620 0.608258 0.034496
H34_4 H 0.065978 0.593894 0.034757
C50_4 C 0.0472(5) 0.4877(10) 0.0665(7)
H41_4 H 0.070769 0.501682 0.116758
H42_4 H 0.064833 0.447032 0.055713
C52_4 C 0.0115(4) 0.3724(9) 0.0951(7)
H45_4 H 0.024015 0.327029 0.080048
H46_4 H 0.039594 0.385855 0.144366
O2_4 O 0.0421(2) 0.0907(3) 0.5931(3)
O3_4 O 0.2041(2) 0.6694(3) 0.9023(3)
O4_4 O 0.0611(2) 0.0962(3) 0.5158(3)
N1_4 N 0.1219(2) 0.7232(4) 0.9186(4)
O9_4 O 0.2256(2) 0.3645(4) 0.7431(3)
C1_4 C 0.2408(3) 0.5618(5) 0.8759(4)
C2_4 C 0.2457(3) 0.6328(4) 0.9216(4)
C3_4 C 0.1067(3) 0.1898(4) 0.6152(4)
C4_4 C 0.0670(3) 0.1207(4) 0.5709(4)
C8_4 C 0.1410(3) 0.2179(5) 0.6003(4)
H3_4 H 0.137373 0.196534 0.560408
C11_4 C 0.2261(3) 0.4273(5) 0.7860(4)
C15_4 C 0.2840(3) 0.5223(5) 0.8860(4)
H5_4 H 0.317800 0.541080 0.922237
C18_4 C 0.2774(3) 0.4545(5) 0.8422(4)
H8_4 H 0.306630 0.427320 0.849944
C20_4 C 0.1807(3) 0.2775(5) 0.6437(5)
H10_4 H 0.204651 0.293943 0.634753
C22_4 C 0.1894(3) 0.5339(5) 0.8184(5)
H12_4 H 0.159880 0.560418 0.810214
C26_4 C 0.1831(3) 0.3111(5) 0.7004(5)
C28_4 C 0.1504(4) 0.2828(6) 0.7172(5)
H15_4 H 0.154013 0.303905 0.757117
C29_4 C 0.0824(4) 0.7713(6) 0.9039(7)
H16_4 H 0.083439 0.829274 0.895197
C30_4 C 0.1121(3) 0.2225(5) 0.6740(4)
H17_4 H 0.089648 0.203773 0.684859
C31_4 C 0.1832(3) 0.4666(6) 0.7740(5)
H18_4 H 0.149635 0.448989 0.736361
C32_4 C 0.0399(6) 0.7429(8) 0.9004(9)
H19_4 H 0.014195 0.781528 0.891634
C33_4 C 0.1180(3) 0.6407(6) 0.9279(6)
H20_4 H 0.143957 0.603372 0.935669
C34_4 C 0.0353(3) 0.6595(7) 0.9097(6)
C40_4 C 0.0757(4) 0.6071(8) 0.9265(7)
H28_4 H 0.075505 0.549560 0.936943
N4_4 N 0.0005(3) 0.5497(7) 0.9496(5)
O5_4 O 0.0444(2) 0.9047(4) 0.6270(3)
O8_4 O 0.0539(2) 0.9216(3) 0.5415(3)
O10_4 O 0.2294(2) 0.6407(4) 0.7247(3)
C5_4 C 0.1305(3) 0.7898(5) 0.6970(4)
H1_4 H 0.119293 0.811654 0.723058
C6_4 C 0.2630(3) 0.4492(4) 0.6332(5)
C7_4 C 0.1255(4) 0.7857(5) 0.5912(5)
H2_4 H 0.109878 0.804260 0.544854
C9_4 C 0.3019(3) 0.4885(5) 0.6949(5)
H4_4 H 0.336692 0.470954 0.718448
C10_4 C 0.1866(3) 0.6974(5) 0.6887(4)
C12_4 C 0.2749(3) 0.3798(5) 0.6018(4)
C13_4 C 0.1081(3) 0.8183(4) 0.6299(4)
C14_4 C 0.0657(3) 0.8857(5) 0.5968(4)
C16_4 C 0.1980(3) 0.5361(6) 0.6293(5)
H6_4 H 0.162986 0.550637 0.607752
C17_4 C 0.2897(3) 0.5548(5) 0.7227(5)
H7_4 H 0.316431 0.583708 0.763437
C21_4 C 0.1703(4) 0.7277(5) 0.7273(4)
H11_4 H 0.185462 0.707512 0.773098
C24_4 C 0.2105(4) 0.4726(5) 0.6006(5)
H13_4 H 0.183730 0.444949 0.559139
C25_4 C 0.1651(3) 0.7268(5) 0.6212(4)
H14_4 H 0.177567 0.706740 0.596148
C27_4 C 0.2375(3) 0.5779(5) 0.6898(4)
N5_4 N 0.8781(2) 0.2768(4) 0.0814(4)
C45_4 C 0.9176(4) 0.2287(6) 0.0961(7)
H37_4 H 0.916561 0.170726 0.104803
C46_4 C 0.9601(6) 0.2571(8) 0.0996(9)
H38_4 H 0.985805 0.218472 0.108366
C47_4 C 0.8820(3) 0.3593(6) 0.0721(6)
H39_4 H 0.856043 0.396628 0.064331
C48_4 C 0.9647(3) 0.3405(7) 0.0903(6)
C49_4 C 0.9243(4) 0.3929(8) 0.0735(7)
H40_4 H 0.924495 0.450440 0.063057
N6_4 N 0.9995(3) 0.4503(7) 0.0504(5)
N2_4 N 0.9466(3) 0.0403(4) 0.5844(4)
C19_4 C 0.9013(4) 0.0008(6) 0.5613(5)
C23_4 C 0.8744(4) 0.1130(7) 0.6026(6)
N3_4 N 0.7974(3) 0.2091(5) 0.5537(4)
C35_4 C 0.7609(5) 0.2432(9) 0.5665(6)
H21_4 H 0.780493 0.263865 0.615172
H22_4 H 0.737634 0.197748 0.560716
C36_4 C 0.8646(4) 0.0301(9) 0.5700(6)
C37_4 C 0.8324(5) 0.1498(9) 0.6100(7)
H24_4 H 0.812032 0.102881 0.609547
H25_4 H 0.849922 0.178963 0.655432
C38_4 C 0.9532(5) 0.1167(6) 0.6117(7)
H26_4 H 0.982542 0.148347 0.624086
C39_4 C 0.9187(5) 0.1530(7) 0.6230(7)
H27_4 H 0.926595 0.206213 0.645305
C41_4 C 0.7709(5) 0.1857(12) 0.4829(6)
H29_4 H 0.747901 0.137485 0.472806
H30_4 H 0.796266 0.167128 0.474786
C42_4 C 0.9528(5) 0.5123(10) 0.9335(7)
H31_4 H 0.929231 0.498318 0.883242
H32_4 H 0.935167 0.552968 0.944287
C44_4 C 0.9885(4) 0.6276(9) 0.9049(7)
H35_4 H 0.975985 0.672971 0.919952
H36_4 H 0.960406 0.614145 0.855634
C51_4 C 0.9662(4) 0.4324(10) 0.9771(7)
H43_4 H 0.983380 0.391742 0.965504
H44_4 H 0.934022 0.406106 0.965243
C53_4 C 0.5987(4) 0.4992(6) 0.4387(5)
H47_4 H 0.605697 0.551019 0.462643
C54_4 C 0.6256(4) 0.3870(7) 0.3974(6)
N8_4 N 0.7026(3) 0.2909(5) 0.4463(4)
C55_4 C 0.7391(5) 0.2568(9) 0.4335(6)
H48_4 H 0.719507 0.236135 0.384828
H49_4 H 0.762366 0.302252 0.439284
C56_4 C 0.6354(4) 0.4699(9) 0.4300(6)
H50_4 H 0.665080 0.501946 0.444494
C57_4 C 0.6676(5) 0.3502(9) 0.3900(7)
H51_4 H 0.687968 0.397119 0.390453
H52_4 H 0.650078 0.321037 0.344568
C58_4 C 0.5468(5) 0.3833(6) 0.3883(7)
H53_4 H 0.517458 0.351653 0.375914
C59_4 C 0.5813(5) 0.3470(7) 0.3770(7)
H54_4 H 0.573405 0.293787 0.354695
C60_4 C 0.7291(5) 0.3143(12) 0.5171(6)
H55_4 H 0.752099 0.362515 0.527194
H56_4 H 0.703734 0.332872 0.525214
O15_4 O 0.9556(2) 0.0953(4) 0.3730(3)
O18_4 O 0.9461(2) 0.0784(3) 0.4585(3)
O20_4 O 0.7706(2) 0.3593(4) 0.2753(3)
C65_4 C 0.8695(3) 0.2102(5) 0.3030(4)
H57_4 H 0.880707 0.188346 0.276942
C66_4 C 0.7370(3) 0.5508(4) 0.3668(5)
C67_4 C 0.8745(4) 0.2143(5) 0.4088(5)
H58_4 H 0.890122 0.195740 0.455146
C69_4 C 0.6981(3) 0.5115(5) 0.3051(5)
H60_4 H 0.663308 0.529046 0.281552
C70_4 C 0.8134(3) 0.3026(5) 0.3113(4)
C72_4 C 0.7251(3) 0.6202(5) 0.3982(4)
C73_4 C 0.8919(3) 0.1817(4) 0.3701(4)
C74_4 C 0.9343(3) 0.1143(5) 0.4032(4)
C76_4 C 0.8020(3) 0.4639(6) 0.3707(5)
H62_4 H 0.837014 0.449363 0.392248
C77_4 C 0.7103(3) 0.4452(5) 0.2773(5)
H63_4 H 0.683569 0.416292 0.236563
C80_4 C 0.8297(4) 0.2723(5) 0.2727(4)
H66_4 H 0.814538 0.292488 0.226902
C82_4 C 0.7895(4) 0.5274(5) 0.3994(5)
H68_4 H 0.816270 0.555051 0.440861
C83_4 C 0.8349(3) 0.2732(5) 0.3788(4)
H69_4 H 0.822433 0.293260 0.403852
C85_4 C 0.7625(3) 0.4221(5) 0.3102(4)
Co1_4 Co 0.99148(4) 0.99294(6) 0.55334(5)
H9_4 H 0.894303 0.948981 0.537357
H23_4 H 0.834920 0.998054 0.555506
O12_4 O 0.9579(2) 0.9093(3) 0.4069(3)
O13_4 O 0.7959(2) 0.3306(3) 0.0977(3)
O14_4 O 0.9389(2) 0.9038(3) 0.4842(3)
O19_4 O 0.7744(2) 0.6355(4) 0.2569(3)
C61_4 C 0.7592(3) 0.4382(5) 0.1241(4)
C62_4 C 0.7543(3) 0.3672(4) 0.0784(4)
C63_4 C 0.8933(3) 0.8102(4) 0.3848(4)
C64_4 C 0.9330(3) 0.8793(4) 0.4291(4)
C68_4 C 0.8590(3) 0.7821(5) 0.3997(4)
H59_4 H 0.862627 0.803466 0.439592
C71_4 C 0.7739(3) 0.5727(5) 0.2140(4)
C75_4 C 0.7160(3) 0.4777(5) 0.1140(4)
H61_4 H 0.682200 0.458920 0.077763
C78_4 C 0.7226(3) 0.5455(5) 0.1578(4)
H64_4 H 0.693370 0.572680 0.150056
C79_4 C 0.8193(3) 0.7225(5) 0.3563(5)
H65_4 H 0.795349 0.706057 0.365247
C81_4 C 0.8106(3) 0.4661(5) 0.1816(5)
H67_4 H 0.840120 0.439582 0.189786
C84_4 C 0.8169(3) 0.6889(5) 0.2996(5)
C86_4 C 0.8496(4) 0.7172(6) 0.2828(5)
H70_4 H 0.845987 0.696095 0.242883
C87_4 C 0.8879(3) 0.7775(5) 0.3260(4)
H71_4 H 0.910352 0.796227 0.315141
C88_4 C 0.8168(3) 0.5334(6) 0.2260(5)
H72_4 H 0.850365 0.551011 0.263639
loop_
_geom_bond_atom_site_label_1
_geom_bond_atom_site_label_2
_geom_bond_site_symmetry_1
_geom_bond_site_symmetry_2
O16 C72 1_555 1_555
O17 C72 1_555 1_555
C66 C69 1_555 1_555
C69 H60 1_555 1_555
C72 C66 1_555 1_555
C82 C66 1_555 1_555
H68 C82 1_555 1_555
Co10 O16 1_555 1_555
O17 Co10 1_555 1_555
Co2 O3 1_555 1_555
O1 C2 1_555 1_555
O3 C2 1_555 1_555
N1 Co2 1_555 1_555
C1 C2 1_555 1_555
C15 C1 1_555 1_555
H5 C15 1_555 1_555
C22 C1 1_555 1_555
H12 C22 1_555 1_555
C29 N1 1_555 1_555
H16 C29 1_555 1_555
C32 C29 1_555 1_555
H19 C32 1_555 1_555
C33 N1 1_555 1_555
H20 C33 1_555 1_555
C34 C32 1_555 1_555
C40 C33 1_555 1_555
H28 C40 1_555 1_555
N4 C42 1_555 1_555
H32 C42 1_555 1_555
C43 N4 1_555 1_555
H33 C43 1_555 1_555
H34 C43 1_555 1_555
C44 C34 1_555 1_555
H35 C44 1_555 1_555
H36 C44 1_555 1_555
Co9 O1 1_555 1_555
O22 Co2 1_555 1_555
O23 Co2 1_555 1_555
O25 Co2 1_555 1_555
C34 C40 1_555 1_555
N4 C44 1_555 1_555
H29 C41 1_555 1_555
H30 C41 1_555 1_555
N7 C53 1_555 1_555
C54 C56 1_555 1_555
N8 C55 1_555 1_555
C55 C41 1_555 1_555
H48 C55 1_555 1_555
H49 C55 1_555 1_555
C56 C53 1_555 1_555
C57 C54 1_555 1_555
H51 C57 1_555 1_555
H52 C57 1_555 1_555
C58 N7 1_555 1_555
H53 C58 1_555 1_555
C59 C54 1_555 1_555
H54 C59 1_555 1_555
O12 Co3 1_555 1_555
O15 Co3 1_555 1_555
O19 C71 1_555 1_555
O20 C70 1_555 1_555
C63 C64 1_555 1_555
C64 O12 1_555 1_555
C65 H57 1_555 1_555
C67 H58 1_555 1_555
C68 C63 1_555 1_555
H59 C68 1_555 1_555
C70 C80 1_555 1_555
C71 C78 1_555 1_555
C73 C65 1_555 1_555
C74 O15 1_555 1_555
C76 H62 1_555 1_555
H63 C77 1_555 1_555
H64 C78 1_555 1_555
C79 C68 1_555 1_555
H65 C79 1_555 1_555
C80 C65 1_555 1_555
H66 C80 1_555 1_555
C83 C67 1_555 1_555
H69 C83 1_555 1_555
C84 O19 1_555 1_555
C85 O20 1_555 1_555
C86 C84 1_555 1_555
H70 C86 1_555 1_555
C87 C63 1_555 1_555
H71 C87 1_555 1_555
C88 C71 1_555 1_555
H72 C88 1_555 1_555
N10 Co3 1_555 1_555
N8 C57 1_555 1_555
C58 C59 1_555 1_555
Co3 O18 1_555 1_555
O14 C64 1_555 1_555
O18 C74 1_555 1_555
C67 C73 1_555 1_555
C70 C83 1_555 1_555
C73 C74 1_555 1_555
C76 C85 1_555 1_555
C77 C85 1_555 1_555
C79 C84 1_555 1_555
C86 C87 1_555 1_555
Co1 O2 1_555 1_555
O2 C4 1_555 1_555
O4 C4 1_555 1_555
O5 Co1 1_555 1_555
O8 Co1 1_555 1_555
O9 C11 1_555 1_555
O10 C10 1_555 1_555
N2 Co1 1_555 1_555
C3 C4 1_555 1_555
C5 H1 1_555 1_555
C7 H2 1_555 1_555
C8 C3 1_555 1_555
H3 C8 1_555 1_555
C10 C21 1_555 1_555
C11 C18 1_555 1_555
C13 C5 1_555 1_555
C14 O5 1_555 1_555
C16 H6 1_555 1_555
H7 C17 1_555 1_555
H8 C18 1_555 1_555
C19 N2 1_555 1_555
H9 C19 1_555 1_555
C20 C8 1_555 1_555
H10 C20 1_555 1_555
C21 C5 1_555 1_555
H11 C21 1_555 1_555
C23 C36 1_555 1_555
C25 C7 1_555 1_555
H14 C25 1_555 1_555
C26 O9 1_555 1_555
C27 O10 1_555 1_555
C28 C26 1_555 1_555
H15 C28 1_555 1_555
C30 C3 1_555 1_555
H17 C30 1_555 1_555
C31 C11 1_555 1_555
H18 C31 1_555 1_555
N3 C35 1_555 1_555
C35 H21 1_555 1_555
H22 C35 1_555 1_555
C36 C19 1_555 1_555
H23 C36 1_555 1_555
C37 C23 1_555 1_555
H24 C37 1_555 1_555
H25 C37 1_555 1_555
C38 N2 1_555 1_555
H26 C38 1_555 1_555
C39 C23 1_555 1_555
H27 C39 1_555 1_555
N5 C45 1_555 1_555
C45 H37 1_555 1_555
C46 C45 1_555 1_555
H38 C46 1_555 1_555
C47 N5 1_555 1_555
H39 C47 1_555 1_555
C48 C46 1_555 1_555
C49 C47 1_555 1_555
H40 C49 1_555 1_555
N6 C50 1_555 1_555
H42 C50 1_555 1_555
H43 C51 1_555 1_555
H44 C51 1_555 1_555
C52 C48 1_555 1_555
H45 C52 1_555 1_555
H46 C52 1_555 1_555
C60 C35 1_555 1_555
H55 C60 1_555 1_555
H56 C60 1_555 1_555
Co8 N5 1_555 1_555
O8 C14 1_555 1_555
C7 C13 1_555 1_555
C10 C25 1_555 1_555
C13 C14 1_555 1_555
C16 C27 1_555 1_555
C17 C27 1_555 1_555
C20 C26 1_555 1_555
C28 C30 1_555 1_555
N3 C37 1_555 1_555
C38 C39 1_555 1_555
C48 C49 1_555 1_555
N6 C51 1_555 1_555
N6 C52 1_555 1_555
Co8 O13 1_555 1_555
O11 C62 1_555 1_555
O13 C62 1_555 1_555
C61 C62 1_555 1_555
C75 C61 1_555 1_555
H61 C75 1_555 1_555
C81 C61 1_555 1_555
H67 C81 1_555 1_555
Co6 O11 1_555 1_555
O21 Co8 1_555 1_555
O24 Co8 1_555 1_555
O26 Co8 1_555 1_555
O6 C12 1_555 1_555
O7 C12 1_555 1_555
C6 C9 1_555 1_555
C9 H4 1_555 1_555
C12 C6 1_555 1_555
C24 C6 1_555 1_555
H13 C24 1_555 1_555
Co7 O6 1_555 1_555
O7 Co7 1_555 1_555
H33_2 C43_2 1_555 1_555
H34_2 C43_2 1_555 1_555
Co2_2 O3_2 1_555 1_555
O1_2 C2_2 1_555 1_555
O3_2 C2_2 1_555 1_555
N1_2 Co2_2 1_555 1_555
C1_2 C2_2 1_555 1_555
C15_2 C1_2 1_555 1_555
H5_2 C15_2 1_555 1_555
C22_2 C1_2 1_555 1_555
H12_2 C22_2 1_555 1_555
C29_2 N1_2 1_555 1_555
H16_2 C29_2 1_555 1_555
C32_2 C29_2 1_555 1_555
H19_2 C32_2 1_555 1_555
C33_2 N1_2 1_555 1_555
H20_2 C33_2 1_555 1_555
C34_2 C32_2 1_555 1_555
C40_2 C33_2 1_555 1_555
H28_2 C40_2 1_555 1_555
N4_2 C42_2 1_555 1_555
H32_2 C42_2 1_555 1_555
C44_2 C34_2 1_555 1_555
H35_2 C44_2 1_555 1_555
H36_2 C44_2 1_555 1_555
O16_2 C72_2 1_555 1_555
O17_2 C72_2 1_555 1_555
C66_2 C69_2 1_555 1_555
C69_2 H60_2 1_555 1_555
C72_2 C66_2 1_555 1_555
C82_2 C66_2 1_555 1_555
H68_2 C82_2 1_555 1_555
Co9 O16_2 1_555 1_555
O23_2 Co2_2 1_555 1_555
O25_2 Co2_2 1_555 1_555
C34_2 C40_2 1_555 1_555
N4_2 C44_2 1_555 1_555
O17_2 Co9 1_555 1_555
N5_2 C45_2 1_555 1_555
C45_2 H37_2 1_555 1_555
C46_2 C45_2 1_555 1_555
H38_2 C46_2 1_555 1_555
C47_2 N5_2 1_555 1_555
H39_2 C47_2 1_555 1_555
C48_2 C46_2 1_555 1_555
C49_2 C47_2 1_555 1_555
H40_2 C49_2 1_555 1_555
N6_2 C50_2 1_555 1_555
H42_2 C50_2 1_555 1_555
C52_2 C48_2 1_555 1_555
H45_2 C52_2 1_555 1_555
H46_2 C52_2 1_555 1_555
Co8_2 N5_2 1_555 1_555
C48_2 C49_2 1_555 1_555
N6_2 C52_2 1_555 1_555
Co1_2 O2_2 1_555 1_555
O2_2 C4_2 1_555 1_555
O4_2 C4_2 1_555 1_555
O5_2 Co1_2 1_555 1_555
O8_2 Co1_2 1_555 1_555
O9_2 C11_2 1_555 1_555
O10_2 C10_2 1_555 1_555
N2_2 Co1_2 1_555 1_555
C3_2 C4_2 1_555 1_555
C5_2 H1_2 1_555 1_555
C7_2 H2_2 1_555 1_555
C8_2 C3_2 1_555 1_555
H3_2 C8_2 1_555 1_555
C10_2 C21_2 1_555 1_555
C11_2 C18_2 1_555 1_555
C13_2 C5_2 1_555 1_555
C14_2 O5_2 1_555 1_555
C16_2 H6_2 1_555 1_555
H7_2 C17_2 1_555 1_555
H8_2 C18_2 1_555 1_555
C19_2 N2_2 1_555 1_555
H9_2 C19_2 1_555 1_555
C20_2 C8_2 1_555 1_555
H10_2 C20_2 1_555 1_555
C21_2 C5_2 1_555 1_555
H11_2 C21_2 1_555 1_555
C23_2 C36_2 1_555 1_555
C25_2 C7_2 1_555 1_555
H14_2 C25_2 1_555 1_555
C26_2 O9_2 1_555 1_555
C27_2 O10_2 1_555 1_555
C28_2 C26_2 1_555 1_555
H15_2 C28_2 1_555 1_555
C30_2 C3_2 1_555 1_555
H17_2 C30_2 1_555 1_555
C31_2 C11_2 1_555 1_555
H18_2 C31_2 1_555 1_555
N3_2 C35_2 1_555 1_555
C35_2 H21_2 1_555 1_555
H22_2 C35_2 1_555 1_555
C36_2 C19_2 1_555 1_555
H23_2 C36_2 1_555 1_555
C37_2 C23_2 1_555 1_555
H24_2 C37_2 1_555 1_555
H25_2 C37_2 1_555 1_555
C38_2 N2_2 1_555 1_555
H26_2 C38_2 1_555 1_555
C39_2 C23_2 1_555 1_555
H27_2 C39_2 1_555 1_555
C41_2 N3_2 1_555 1_555
H29_2 C41_2 1_555 1_555
H30_2 C41_2 1_555 1_555
H43_2 C51_2 1_555 1_555
H44_2 C51_2 1_555 1_555
N7_2 C53_2 1_555 1_555
C54_2 C56_2 1_555 1_555
N8_2 C55_2 1_555 1_555
C55_2 C41_2 1_555 1_555
H48_2 C55_2 1_555 1_555
H49_2 C55_2 1_555 1_555
C56_2 C53_2 1_555 1_555
C57_2 C54_2 1_555 1_555
H51_2 C57_2 1_555 1_555
H52_2 C57_2 1_555 1_555
C58_2 N7_2 1_555 1_555
H53_2 C58_2 1_555 1_555
C59_2 C54_2 1_555 1_555
H54_2 C59_2 1_555 1_555
C60_2 C35_2 1_555 1_555
H55_2 C60_2 1_555 1_555
H56_2 C60_2 1_555 1_555
Co3_2 O4_2 1_555 1_555
O12_2 Co3_2 1_555 1_555
O14_2 Co1_2 1_555 1_555
O15_2 Co3_2 1_555 1_555
O18_2 Co1_2 1_555 1_555
O19_2 C71_2 1_555 1_555
O20_2 C70_2 1_555 1_555
C63_2 C64_2 1_555 1_555
C64_2 O12_2 1_555 1_555
C65_2 H57_2 1_555 1_555
C67_2 H58_2 1_555 1_555
C68_2 C63_2 1_555 1_555
H59_2 C68_2 1_555 1_555
C70_2 C80_2 1_555 1_555
C71_2 C78_2 1_555 1_555
C73_2 C65_2 1_555 1_555
C74_2 O15_2 1_555 1_555
C76_2 H62_2 1_555 1_555
H63_2 C77_2 1_555 1_555
H64_2 C78_2 1_555 1_555
C79_2 C68_2 1_555 1_555
H65_2 C79_2 1_555 1_555
C80_2 C65_2 1_555 1_555
H66_2 C80_2 1_555 1_555
C83_2 C67_2 1_555 1_555
H69_2 C83_2 1_555 1_555
C84_2 O19_2 1_555 1_555
C85_2 O20_2 1_555 1_555
C86_2 C84_2 1_555 1_555
H70_2 C86_2 1_555 1_555
C87_2 C63_2 1_555 1_555
H71_2 C87_2 1_555 1_555
C88_2 C71_2 1_555 1_555
H72_2 C88_2 1_555 1_555
N10_2 Co3_2 1_555 1_555
O8_2 C14_2 1_555 1_555
O8_2 Co3_2 1_555 1_555
C7_2 C13_2 1_555 1_555
C10_2 C25_2 1_555 1_555
C13_2 C14_2 1_555 1_555
C16_2 C27_2 1_555 1_555
C17_2 C27_2 1_555 1_555
C20_2 C26_2 1_555 1_555
C28_2 C30_2 1_555 1_555
N3_2 C37_2 1_555 1_555
C38_2 C39_2 1_555 1_555
N8_2 C57_2 1_555 1_555
N8_2 C60_2 1_555 1_555
C58_2 C59_2 1_555 1_555
Co3_2 O18_2 1_555 1_555
O14_2 C64_2 1_555 1_555
O18_2 C74_2 1_555 1_555
C67_2 C73_2 1_555 1_555
C70_2 C83_2 1_555 1_555
C73_2 C74_2 1_555 1_555
C76_2 C85_2 1_555 1_555
C77_2 C85_2 1_555 1_555
C79_2 C84_2 1_555 1_555
C86_2 C87_2 1_555 1_555
O6_2 C12_2 1_555 1_555
O7_2 C12_2 1_555 1_555
C6_2 C9_2 1_555 1_555
C9_2 H4_2 1_555 1_555
C12_2 C6_2 1_555 1_555
C24_2 C6_2 1_555 1_555
H13_2 C24_2 1_555 1_555
Co8_2 O13_2 1_555 1_555
O11_2 C62_2 1_555 1_555
O13_2 C62_2 1_555 1_555
C61_2 C62_2 1_555 1_555
C75_2 C61_2 1_555 1_555
H61_2 C75_2 1_555 1_555
C81_2 C61_2 1_555 1_555
H67_2 C81_2 1_555 1_555
Co6 O6_2 1_555 1_555
O24_2 Co8_2 1_555 1_555
O26_2 Co8_2 1_555 1_555
O7_2 Co6 1_555 1_555
H29_3 C41_3 1_555 1_555
H30_3 C41_3 1_555 1_555
N10 C53_3 1_555 1_555
C53_3 H47_3 1_555 1_555
C54_3 C56_3 1_555 1_555
N8_3 C55_3 1_555 1_555
C55_3 C41_3 1_555 1_555
H48_3 C55_3 1_555 1_555
H49_3 C55_3 1_555 1_555
C56_3 C53_3 1_555 1_555
H50_3 C56_3 1_555 1_555
C57_3 C54_3 1_555 1_555
H51_3 C57_3 1_555 1_555
H52_3 C57_3 1_555 1_555
C58_3 N10 1_555 1_555
H53_3 C58_3 1_555 1_555
C59_3 C54_3 1_555 1_555
H54_3 C59_3 1_555 1_555
O24_2 C72_3 1_555 1_555
O26_2 C72_3 1_555 1_555
O20_3 C70_3 1_555 1_555
C65_3 H57_3 1_555 1_555
C66_3 C69_3 1_555 1_555
C67_3 H58_3 1_555 1_555
C69_3 H60_3 1_555 1_555
C70_3 C80_3 1_555 1_555
C72_3 C66_3 1_555 1_555
C73_3 C65_3 1_555 1_555
C74_3 O15_3 1_555 1_555
C76_3 H62_3 1_555 1_555
C77_3 C69_3 1_555 1_555
H63_3 C77_3 1_555 1_555
C80_3 C65_3 1_555 1_555
H66_3 C80_3 1_555 1_555
C82_3 C66_3 1_555 1_555
H68_3 C82_3 1_555 1_555
C83_3 C67_3 1_555 1_555
H69_3 C83_3 1_555 1_555
C85_3 O20_3 1_555 1_555
N8_3 C57_3 1_555 1_555
C58_3 C59_3 1_555 1_555
O18_3 C74_3 1_555 1_555
C67_3 C73_3 1_555 1_555
C70_3 C83_3 1_555 1_555
C73_3 C74_3 1_555 1_555
C76_3 C82_3 1_555 1_555
C76_3 C85_3 1_555 1_555
C77_3 C85_3 1_555 1_555
C19_3 N2_3 1_555 1_555
C23_3 C36_3 1_555 1_555
N3_3 C35_3 1_555 1_555
C35_3 H21_3 1_555 1_555
H22_3 C35_3 1_555 1_555
C36_3 C19_3 1_555 1_555
C37_3 C23_3 1_555 1_555
H24_3 C37_3 1_555 1_555
H25_3 C37_3 1_555 1_555
C38_3 N2_3 1_555 1_555
H26_3 C38_3 1_555 1_555
C39_3 C23_3 1_555 1_555
H27_3 C39_3 1_555 1_555
C42_3 H31_3 1_555 1_555
H32_3 C42_3 1_555 1_555
H35_3 C44_3 1_555 1_555
H36_3 C44_3 1_555 1_555
N5_3 C45_3 1_555 1_555
C45_3 H37_3 1_555 1_555
C46_3 C45_3 1_555 1_555
H38_3 C46_3 1_555 1_555
C47_3 N5_3 1_555 1_555
H39_3 C47_3 1_555 1_555
C48_3 C46_3 1_555 1_555
C49_3 C47_3 1_555 1_555
H40_3 C49_3 1_555 1_555
C51_3 C42_3 1_555 1_555
H43_3 C51_3 1_555 1_555
H44_3 C51_3 1_555 1_555
C60_3 C35_3 1_555 1_555
H55_3 C60_3 1_555 1_555
H56_3 C60_3 1_555 1_555
Co9 N5_3 1_555 1_555
N3_3 C37_3 1_555 1_555
C38_3 C39_3 1_555 1_555
C48_3 C49_3 1_555 1_555
N6_3 C51_3 1_555 1_555
Co9 O13_3 1_555 1_555
O22 C62_3 1_555 1_555
O13_3 C62_3 1_555 1_555
O19_3 C71_3 1_555 1_555
C61_3 C62_3 1_555 1_555
C63_3 C64_3 1_555 1_555
C64_3 O12_3 1_555 1_555
C68_3 C63_3 1_555 1_555
H59_3 C68_3 1_555 1_555
C71_3 C78_3 1_555 1_555
C75_3 C61_3 1_555 1_555
H61_3 C75_3 1_555 1_555
C78_3 C75_3 1_555 1_555
H64_3 C78_3 1_555 1_555
C79_3 C68_3 1_555 1_555
H65_3 C79_3 1_555 1_555
C81_3 C61_3 1_555 1_555
H67_3 C81_3 1_555 1_555
C84_3 O19_3 1_555 1_555
C86_3 C84_3 1_555 1_555
H70_3 C86_3 1_555 1_555
C87_3 C63_3 1_555 1_555
H71_3 C87_3 1_555 1_555
C88_3 C71_3 1_555 1_555
H72_3 C88_3 1_555 1_555
O14_3 C64_3 1_555 1_555
C79_3 C84_3 1_555 1_555
C81_3 C88_3 1_555 1_555
C86_3 C87_3 1_555 1_555
Co6 O3_3 1_555 1_555
O21 C2_3 1_555 1_555
O2_3 C4_3 1_555 1_555
O3_3 C2_3 1_555 1_555
O4_3 C4_3 1_555 1_555
N1_3 Co6 1_555 1_555
O9_3 C11_3 1_555 1_555
C1_3 C2_3 1_555 1_555
C3_3 C4_3 1_555 1_555
C8_3 C3_3 1_555 1_555
H3_3 C8_3 1_555 1_555
C11_3 C18_3 1_555 1_555
C15_3 C1_3 1_555 1_555
H5_3 C15_3 1_555 1_555
C18_3 C15_3 1_555 1_555
H8_3 C18_3 1_555 1_555
C20_3 C8_3 1_555 1_555
H10_3 C20_3 1_555 1_555
C22_3 C1_3 1_555 1_555
H12_3 C22_3 1_555 1_555
C26_3 O9_3 1_555 1_555
C28_3 C26_3 1_555 1_555
H15_3 C28_3 1_555 1_555
C29_3 N1_3 1_555 1_555
H16_3 C29_3 1_555 1_555
C30_3 C3_3 1_555 1_555
H17_3 C30_3 1_555 1_555
C31_3 C11_3 1_555 1_555
H18_3 C31_3 1_555 1_555
C32_3 C29_3 1_555 1_555
H19_3 C32_3 1_555 1_555
C33_3 N1_3 1_555 1_555
H20_3 C33_3 1_555 1_555
C34_3 C32_3 1_555 1_555
C40_3 C33_3 1_555 1_555
H28_3 C40_3 1_555 1_555
C43_3 N4_3 1_555 1_555
H33_3 C43_3 1_555 1_555
H34_3 C43_3 1_555 1_555
C50_3 C43_3 1_555 1_555
H41_3 C50_3 1_555 1_555
H42_3 C50_3 1_555 1_555
H45_3 C52_3 1_555 1_555
H46_3 C52_3 1_555 1_555
C20_3 C26_3 1_555 1_555
C22_3 C31_3 1_555 1_555
C28_3 C30_3 1_555 1_555
C34_3 C40_3 1_555 1_555
O23_2 C12_3 1_555 1_555
O25_2 C12_3 1_555 1_555
O10_3 C10_3 1_555 1_555
C5_3 H1_3 1_555 1_555
C6_3 C9_3 1_555 1_555
C7_3 H2_3 1_555 1_555
C9_3 H4_3 1_555 1_555
C10_3 C21_3 1_555 1_555
C12_3 C6_3 1_555 1_555
C13_3 C5_3 1_555 1_555
C14_3 O5_3 1_555 1_555
C16_3 H6_3 1_555 1_555
C17_3 C9_3 1_555 1_555
H7_3 C17_3 1_555 1_555
C21_3 C5_3 1_555 1_555
H11_3 C21_3 1_555 1_555
C24_3 C6_3 1_555 1_555
H13_3 C24_3 1_555 1_555
C25_3 C7_3 1_555 1_555
H14_3 C25_3 1_555 1_555
C27_3 O10_3 1_555 1_555
O8_3 C14_3 1_555 1_555
C7_3 C13_3 1_555 1_555
C10_3 C25_3 1_555 1_555
C13_3 C14_3 1_555 1_555
C16_3 C24_3 1_555 1_555
C16_3 C27_3 1_555 1_555
C17_3 C27_3 1_555 1_555
H33_4 C43_4 1_555 1_555
H34_4 C43_4 1_555 1_555
C50_4 C43_4 1_555 1_555
H41_4 C50_4 1_555 1_555
H42_4 C50_4 1_555 1_555
H45_4 C52_4 1_555 1_555
H46_4 C52_4 1_555 1_555
Co7 O3_4 1_555 1_555
O21_2 C2_4 1_555 1_555
O2_4 C4_4 1_555 1_555
O3_4 C2_4 1_555 1_555
O4_4 C4_4 1_555 1_555
N1_4 Co7 1_555 1_555
O9_4 C11_4 1_555 1_555
C1_4 C2_4 1_555 1_555
C3_4 C4_4 1_555 1_555
C8_4 C3_4 1_555 1_555
H3_4 C8_4 1_555 1_555
C11_4 C18_4 1_555 1_555
C15_4 C1_4 1_555 1_555
H5_4 C15_4 1_555 1_555
C18_4 C15_4 1_555 1_555
H8_4 C18_4 1_555 1_555
C20_4 C8_4 1_555 1_555
H10_4 C20_4 1_555 1_555
C22_4 C1_4 1_555 1_555
H12_4 C22_4 1_555 1_555
C26_4 O9_4 1_555 1_555
C28_4 C26_4 1_555 1_555
H15_4 C28_4 1_555 1_555
C29_4 N1_4 1_555 1_555
H16_4 C29_4 1_555 1_555
C30_4 C3_4 1_555 1_555
H17_4 C30_4 1_555 1_555
C31_4 C11_4 1_555 1_555
H18_4 C31_4 1_555 1_555
C32_4 C29_4 1_555 1_555
H19_4 C32_4 1_555 1_555
C33_4 N1_4 1_555 1_555
H20_4 C33_4 1_555 1_555
C34_4 C32_4 1_555 1_555
C40_4 C33_4 1_555 1_555
H28_4 C40_4 1_555 1_555
Co5_2 O4_4 1_555 1_555
C20_4 C26_4 1_555 1_555
C22_4 C31_4 1_555 1_555
C28_4 C30_4 1_555 1_555
C34_4 C40_4 1_555 1_555
O23 C12_4 1_555 1_555
O25 C12_4 1_555 1_555
O10_4 C10_4 1_555 1_555
C5_4 H1_4 1_555 1_555
C6_4 C9_4 1_555 1_555
C7_4 H2_4 1_555 1_555
C9_4 H4_4 1_555 1_555
C10_4 C21_4 1_555 1_555
C12_4 C6_4 1_555 1_555
C13_4 C5_4 1_555 1_555
C14_4 O5_4 1_555 1_555
C16_4 H6_4 1_555 1_555
C17_4 C9_4 1_555 1_555
H7_4 C17_4 1_555 1_555
C21_4 C5_4 1_555 1_555
H11_4 C21_4 1_555 1_555
C24_4 C6_4 1_555 1_555
H13_4 C24_4 1_555 1_555
C25_4 C7_4 1_555 1_555
H14_4 C25_4 1_555 1_555
C27_4 O10_4 1_555 1_555
O8_4 C14_4 1_555 1_555
C7_4 C13_4 1_555 1_555
C10_4 C25_4 1_555 1_555
C13_4 C14_4 1_555 1_555
C16_4 C24_4 1_555 1_555
C16_4 C27_4 1_555 1_555
C17_4 C27_4 1_555 1_555
N5_4 C45_4 1_555 1_555
C45_4 H37_4 1_555 1_555
C46_4 C45_4 1_555 1_555
H38_4 C46_4 1_555 1_555
C47_4 N5_4 1_555 1_555
H39_4 C47_4 1_555 1_555
C48_4 C46_4 1_555 1_555
C49_4 C47_4 1_555 1_555
H40_4 C49_4 1_555 1_555
Co10 N5_4 1_555 1_555
C48_4 C49_4 1_555 1_555
C19_4 N2_4 1_555 1_555
C23_4 C36_4 1_555 1_555
N3_4 C35_4 1_555 1_555
C35_4 H21_4 1_555 1_555
H22_4 C35_4 1_555 1_555
C36_4 C19_4 1_555 1_555
C37_4 C23_4 1_555 1_555
H24_4 C37_4 1_555 1_555
H25_4 C37_4 1_555 1_555
C38_4 N2_4 1_555 1_555
H26_4 C38_4 1_555 1_555
C39_4 C23_4 1_555 1_555
H27_4 C39_4 1_555 1_555
C41_4 N3_4 1_555 1_555
H29_4 C41_4 1_555 1_555
H30_4 C41_4 1_555 1_555
C42_4 H31_4 1_555 1_555
H32_4 C42_4 1_555 1_555
H35_4 C44_4 1_555 1_555
H36_4 C44_4 1_555 1_555
C51_4 C42_4 1_555 1_555
H43_4 C51_4 1_555 1_555
H44_4 C51_4 1_555 1_555
N10_2 C53_4 1_555 1_555
C53_4 H47_4 1_555 1_555
C54_4 C56_4 1_555 1_555
N8_4 C55_4 1_555 1_555
C55_4 C41_4 1_555 1_555
H48_4 C55_4 1_555 1_555
H49_4 C55_4 1_555 1_555
C56_4 C53_4 1_555 1_555
H50_4 C56_4 1_555 1_555
C57_4 C54_4 1_555 1_555
H51_4 C57_4 1_555 1_555
H52_4 C57_4 1_555 1_555
C58_4 N10_2 1_555 1_555
H53_4 C58_4 1_555 1_555
C59_4 C54_4 1_555 1_555
H54_4 C59_4 1_555 1_555
C60_4 C35_4 1_555 1_555
H55_4 C60_4 1_555 1_555
H56_4 C60_4 1_555 1_555
O24 C72_4 1_555 1_555
O26 C72_4 1_555 1_555
O20_4 C70_4 1_555 1_555
C65_4 H57_4 1_555 1_555
C66_4 C69_4 1_555 1_555
C67_4 H58_4 1_555 1_555
C69_4 H60_4 1_555 1_555
C70_4 C80_4 1_555 1_555
C72_4 C66_4 1_555 1_555
C73_4 C65_4 1_555 1_555
C74_4 O15_4 1_555 1_555
C76_4 H62_4 1_555 1_555
C77_4 C69_4 1_555 1_555
H63_4 C77_4 1_555 1_555
C80_4 C65_4 1_555 1_555
H66_4 C80_4 1_555 1_555
C82_4 C66_4 1_555 1_555
H68_4 C82_4 1_555 1_555
C83_4 C67_4 1_555 1_555
H69_4 C83_4 1_555 1_555
C85_4 O20_4 1_555 1_555
N3_4 C37_4 1_555 1_555
C38_4 C39_4 1_555 1_555
N8_4 C57_4 1_555 1_555
N8_4 C60_4 1_555 1_555
C58_4 C59_4 1_555 1_555
O18_4 C74_4 1_555 1_555
C67_4 C73_4 1_555 1_555
C70_4 C83_4 1_555 1_555
C73_4 C74_4 1_555 1_555
C76_4 C82_4 1_555 1_555
C76_4 C85_4 1_555 1_555
C77_4 C85_4 1_555 1_555
Co10 O13_4 1_555 1_555
O22_2 C62_4 1_555 1_555
O13_4 C62_4 1_555 1_555
O14_4 Co1_4 1_555 1_555
O19_4 C71_4 1_555 1_555
C61_4 C62_4 1_555 1_555
C63_4 C64_4 1_555 1_555
C64_4 O12_4 1_555 1_555
C68_4 C63_4 1_555 1_555
H59_4 C68_4 1_555 1_555
C71_4 C78_4 1_555 1_555
C75_4 C61_4 1_555 1_555
H61_4 C75_4 1_555 1_555
C78_4 C75_4 1_555 1_555
H64_4 C78_4 1_555 1_555
C79_4 C68_4 1_555 1_555
H65_4 C79_4 1_555 1_555
C81_4 C61_4 1_555 1_555
H67_4 C81_4 1_555 1_555
C84_4 O19_4 1_555 1_555
C86_4 C84_4 1_555 1_555
H70_4 C86_4 1_555 1_555
C87_4 C63_4 1_555 1_555
H71_4 C87_4 1_555 1_555
C88_4 C71_4 1_555 1_555
H72_4 C88_4 1_555 1_555
O14_4 C64_4 1_555 1_555
C79_4 C84_4 1_555 1_555
C81_4 C88_4 1_555 1_555
C86_4 C87_4 1_555 1_555

#END
