
###############################################################################
#
# This file contains modified crystal structure data generated from the
# MOF subset of the Cambridge Structural Database (CSD) v543 
# hosted by the Cambridge Crystallographic Data Centre (CCDC).
#
# This work is licensed under the Creative Commons
# Attribution-NonCommercial-ShareAlike 4.0 International License.
# To view a copy of this license, visit
# http://creativecommons.org/licenses/by-nc-sa/4.0/
# or send a letter to
# Creative Commons, PO Box 1866, Mountain View, CA 94042, USA.
#
# CIF created using the CSD Python API on 29 September 2022
# The structure has been converted into the P1 space group
# The structure has a 3D framework
# The original CSD entry KONBOF is in the monoclinic crystal system
# The framework has been calculated to contain at least 10.0% void space
# The void calculation uses a probe of radius 1.32A, grid spacing 0.4
#
###############################################################################

data_KONBOF
_chemical_formula_moiety         '(C128 H64 N16 O104 Tb16)n'
_symmetry_cell_setting           triclinic
_symmetry_space_group_name_H-M   'P 1'
_symmetry_Int_Tables_number      1
_space_group_name_Hall           'P 1'
loop_
_symmetry_equiv_pos_site_id
_symmetry_equiv_pos_as_xyz
1 x,y,z
_cell_length_a                   21.757(3)
_cell_length_b                   9.1657(13)
_cell_length_c                   22.457(3)
_cell_angle_alpha                90
_cell_angle_beta                 100.886(3)
_cell_angle_gamma                90
_cell_volume                     4397.74
loop_
_atom_site_label
_atom_site_type_symbol
_atom_site_fract_x
_atom_site_fract_y
_atom_site_fract_z
Tb3 Tb 0.045254(13) 0.31163(3) 0.422380(14)
O16 O 0.1163(2) 0.1188(5) 0.4383(2)
H11 H 0.1330 0.0902 0.4091
H12 H 0.1168 0.0496 0.4636
O18 O 0.0757(2) 0.3507(6) 0.3285(2)
O25 O 0.3266(2) 0.0025(5) 0.4145(2)
O27 O 0.0947(2) 0.3899(5) 0.5218(2)
O30 O 0.26276(19) 0.0727(5) 0.2882(2)
O39 O 0.0276(2) 0.5812(5) 0.4132(2)
N4 N 0.1480(2) 0.4327(6) 0.4290(2)
N7 N 0.3790(2) 0.1522(6) 0.3249(2)
Tb2 Tb 0.156559(13) 0.39137(3) 0.175579(13)
O4 O 0.1410(2) 0.4407(5) 0.2717(2)
O5 O 0.3332(2) 0.7069(6) 0.3928(2)
O6 O 0.3690(2) 0.6067(6) 0.4824(2)
O7 O 0.1734(2) 0.4975(5) 0.5855(2)
C1 C 0.1699(3) 0.4557(8) 0.3779(3)
C2 C 0.2272(3) 0.5214(7) 0.3788(3)
H5 H 0.2418 0.5391 0.3422
C3 C 0.2636(3) 0.5616(8) 0.4352(3)
C4 C 0.2402(3) 0.5369(7) 0.4877(3)
H6 H 0.2637 0.5630 0.5263
C5 C 0.1812(3) 0.4729(7) 0.4823(3)
C6 C 0.1255(3) 0.4125(7) 0.3216(3)
C7 C 0.3271(3) 0.6312(7) 0.4374(3)
C8 C 0.1475(3) 0.4514(7) 0.5342(3)
Tb6 Tb 0.343441(13) 0.89137(3) 0.324421(13)
Tb7 Tb 0.156559(13) 0.60863(3) 0.675579(13)
O20 O 0.3590(2) 0.9407(5) 0.2283(2)
O21 O 0.1668(2) 0.2069(6) 0.1072(2)
O22 O 0.1310(2) 0.1067(6) 0.0176(2)
O24 O 0.1734(2) 0.5025(5) 0.0855(2)
O29 O 0.23724(19) 0.5727(5) 0.2118(2)
O32 O 0.2414(2) 0.2734(5) 0.2322(2)
O33 O 0.2586(2) 0.7734(5) 0.2678(2)
O35 O 0.0997(2) 0.1879(5) 0.1998(2)
O36 O 0.4003(2) 0.6879(5) 0.3002(2)
O41 O 0.0496(2) 0.4377(5) 0.1289(2)
O43 O 0.4504(2) 0.9377(5) 0.3711(2)
N6 N 0.1210(2) 0.6522(6) 0.1751(2)
C18 C 0.2728(3) 0.0214(7) 0.1212(3)
H13 H 0.2582 0.0391 0.1578
C19 C 0.2364(3) 0.0616(8) 0.0648(3)
C20 C 0.2598(3) 0.0369(7) 0.0123(3)
C23 C 0.1729(3) 0.1312(7) 0.0626(3)
Tb14 Tb 0.343441(13) 0.10863(3) 0.824421(13)
H14 H 0.2363 0.0630 0.9737
Tb5 Tb 0.454746(13) 0.81163(3) 0.077620(14)
O17 O 0.4243(2) 0.8507(6) 0.1715(2)
N3 N 0.3520(2) 0.9327(6) 0.0710(2)
C17 C 0.3301(3) 0.9557(8) 0.1221(3)
C21 C 0.3188(3) 0.9729(7) 0.0177(3)
C22 C 0.3745(3) 0.9125(7) 0.1784(3)
O23 O 0.3266(2) 0.9975(5) 0.9145(2)
O26 O 0.4053(2) 0.8899(5) 0.9782(2)
C24 C 0.3525(3) 0.9514(7) 0.9658(3)
Tb12 Tb 0.843441(13) 0.39137(3) 0.324421(13)
O15 O 0.9777(2) 0.2461(6) 0.4874(2)
H9 H 0.9778 0.2919 0.5203
H10 H 0.9403 0.2200 0.4735
O34 O 0.9003(2) 0.1879(5) 0.3002(2)
O37 O 0.9847(2) 0.1290(5) 0.3702(2)
O42 O 0.9504(2) 0.4377(5) 0.3711(2)
C31 C 0.9349(3) 0.0992(7) 0.3331(3)
Tb11 Tb 0.656559(13) 0.89137(3) 0.175579(13)
O28 O 0.76276(19) 0.5727(5) 0.2882(2)
O31 O 0.7414(2) 0.7734(5) 0.2322(2)
N5 N 0.8790(2) 0.6522(6) 0.3249(2)
C25 C 0.8403(3) 0.7544(7) 0.2986(3)
C26 C 0.8566(3) 0.8999(7) 0.2994(3)
H15 H 0.8278 0.9707 0.2798
C27 C 0.9160(3) 0.9412(7) 0.3294(3)
C28 C 0.9560(3) 0.8339(8) 0.3579(3)
H16 H 0.9964 0.8583 0.3799
C29 C 0.9360(3) 0.6923(7) 0.3537(3)
C30 C 0.7762(3) 0.6958(7) 0.2708(3)
C32 C 0.9740(3) 0.5648(7) 0.3817(3)
O39_2 O 0.5276(2) 0.0812(5) 0.4132(2)
O5_2 O 0.8332(2) 0.2069(6) 0.3928(2)
O6_2 O 0.8690(2) 0.1067(6) 0.4824(2)
C2_2 C 0.7272(3) 0.0214(7) 0.3788(3)
H5_2 H 0.7418 0.0391 0.3422
C3_2 C 0.7636(3) 0.0616(8) 0.4352(3)
C4_2 C 0.7402(3) 0.0369(7) 0.4877(3)
H6_2 H 0.7637 0.0630 0.5263
C7_2 C 0.8271(3) 0.1312(7) 0.4374(3)
Tb3_2 Tb 0.545254(13) 0.81163(3) 0.422380(14)
Tb7_2 Tb 0.656559(13) 0.10863(3) 0.675579(13)
O15_2 O 0.4777(2) 0.7461(6) 0.4874(2)
H9_2 H 0.4778 0.7919 0.5203
H10_2 H 0.4403 0.7200 0.4735
O16_2 O 0.6163(2) 0.6188(5) 0.4383(2)
H11_2 H 0.6330 0.5902 0.4091
H12_2 H 0.6168 0.5496 0.4636
O18_2 O 0.5757(2) 0.8507(6) 0.3285(2)
O20_2 O 0.8590(2) 0.4407(5) 0.2283(2)
O24_2 O 0.6734(2) 0.0025(5) 0.0855(2)
O25_2 O 0.8266(2) 0.5025(5) 0.4145(2)
O27_2 O 0.5947(2) 0.8899(5) 0.5218(2)
O29_2 O 0.73724(19) 0.0727(5) 0.2118(2)
O33_2 O 0.7586(2) 0.2734(5) 0.2678(2)
O37_2 O 0.4847(2) 0.6290(5) 0.3702(2)
N4_2 N 0.6480(2) 0.9327(6) 0.4290(2)
N6_2 N 0.6210(2) 0.1522(6) 0.1751(2)
C25_2 C 0.3403(3) 0.2544(7) 0.2986(3)
C26_2 C 0.3566(3) 0.3999(7) 0.2994(3)
H15_2 H 0.3278 0.4707 0.2798
C27_2 C 0.4160(3) 0.4412(7) 0.3294(3)
C28_2 C 0.4560(3) 0.3339(8) 0.3579(3)
H16_2 H 0.4964 0.3583 0.3799
C29_2 C 0.4360(3) 0.1923(7) 0.3537(3)
C30_2 C 0.2762(3) 0.1958(7) 0.2708(3)
C31_2 C 0.4349(3) 0.5992(7) 0.3331(3)
C32_2 C 0.4740(3) 0.0648(7) 0.3817(3)
O4_2 O 0.6410(2) 0.9407(5) 0.2717(2)
O7_2 O 0.6734(2) 0.9975(5) 0.5855(2)
C1_2 C 0.6699(3) 0.9557(8) 0.3779(3)
C5_2 C 0.6812(3) 0.9729(7) 0.4823(3)
C6_2 C 0.6255(3) 0.9125(7) 0.3216(3)
C8_2 C 0.6475(3) 0.9514(7) 0.5342(3)
Tb5_2 Tb 0.954746(13) 0.31163(3) 0.077620(14)
O17_2 O 0.9243(2) 0.3507(6) 0.1715(2)
O21_2 O 0.6668(2) 0.7069(6) 0.1072(2)
O22_2 O 0.6310(2) 0.6067(6) 0.0176(2)
O35_2 O 0.5997(2) 0.6879(5) 0.1998(2)
O41_2 O 0.5496(2) 0.9377(5) 0.1289(2)
N3_2 N 0.8520(2) 0.4327(6) 0.0710(2)
C17_2 C 0.8301(3) 0.4557(8) 0.1221(3)
C18_2 C 0.7728(3) 0.5214(7) 0.1212(3)
H13_2 H 0.7582 0.5391 0.1578
C19_2 C 0.7364(3) 0.5616(8) 0.0648(3)
C20_2 C 0.7598(3) 0.5369(7) 0.0123(3)
C21_2 C 0.8188(3) 0.4729(7) 0.0177(3)
C22_2 C 0.8745(3) 0.4125(7) 0.1784(3)
C23_2 C 0.6729(3) 0.6312(7) 0.0626(3)
Tb14_2 Tb 0.843441(13) 0.60863(3) 0.824421(13)
O23_2 O 0.8266(2) 0.4975(5) 0.9145(2)
O26_2 O 0.9053(2) 0.3899(5) 0.9782(2)
H14_2 H 0.7363 0.5630 0.9737
C24_2 C 0.8525(3) 0.4514(7) 0.9658(3)
O15_3 O 0.0223(2) 0.2461(6) 0.0126(2)
H10_3 H 0.0597 0.2200 0.0265
O37_3 O 0.0153(2) 0.1290(5) 0.1298(2)
C31_3 C 0.0651(3) 0.0992(7) 0.1669(3)
C25_3 C 0.1597(3) 0.7544(7) 0.2014(3)
C26_3 C 0.1434(3) 0.8999(7) 0.2006(3)
H15_3 H 0.1722 0.9707 0.2202
C27_3 C 0.0840(3) 0.9412(7) 0.1706(3)
C28_3 C 0.0440(3) 0.8339(8) 0.1421(3)
H16_3 H 0.0036 0.8583 0.1201
C29_3 C 0.0640(3) 0.6923(7) 0.1463(3)
C30_3 C 0.2238(3) 0.6958(7) 0.2292(3)
C32_3 C 0.0260(3) 0.5648(7) 0.1183(3)
O16_3 O 0.8837(2) 0.1188(5) 0.0617(2)
H11_3 H 0.8670 0.0902 0.0909
H12_3 H 0.8832 0.0496 0.0364
O39_3 O 0.9724(2) 0.5812(5) 0.0868(2)
O39_4 O 0.4724(2) 0.0812(5) 0.0868(2)
O15_4 O 0.5223(2) 0.7461(6) 0.0126(2)
H10_4 H 0.5597 0.7200 0.0265
O16_4 O 0.3837(2) 0.6188(5) 0.0617(2)
H11_4 H 0.3670 0.5902 0.0909
H12_4 H 0.3832 0.5496 0.0364
O37_4 O 0.5153(2) 0.6290(5) 0.1298(2)
C25_4 C 0.6597(3) 0.2544(7) 0.2014(3)
C26_4 C 0.6434(3) 0.3999(7) 0.2006(3)
H15_4 H 0.6722 0.4707 0.2202
C27_4 C 0.5840(3) 0.4412(7) 0.1706(3)
C28_4 C 0.5440(3) 0.3339(8) 0.1421(3)
H16_4 H 0.5036 0.3583 0.1201
C29_4 C 0.5640(3) 0.1923(7) 0.1463(3)
C30_4 C 0.7238(3) 0.1958(7) 0.2292(3)
C31_4 C 0.5651(3) 0.5992(7) 0.1669(3)
C32_4 C 0.5260(3) 0.0648(7) 0.1183(3)
H9_3 H 0.5222 0.7919 0.9797
O9 O 0.23724(19) 0.4273(5) 0.7118(2)
O10 O 0.2586(2) 0.2266(5) 0.7678(2)
O14 O 0.0496(2) 0.5623(5) 0.6289(2)
N2 N 0.1210(2) 0.3478(6) 0.6751(2)
C9 C 0.1597(3) 0.2456(7) 0.7014(3)
C10 C 0.1434(3) 0.1001(7) 0.7006(3)
H7 H 0.1722 0.0293 0.7202
C11 C 0.0840(3) 0.0588(7) 0.6706(3)
C12 C 0.0440(3) 0.1661(8) 0.6421(3)
H8 H 0.0036 0.1417 0.6201
C13 C 0.0640(3) 0.3077(7) 0.6463(3)
C14 C 0.2238(3) 0.3042(7) 0.7292(3)
C16 C 0.0260(3) 0.4352(7) 0.6183(3)
O1 O 0.0223(2) 0.7539(6) 0.5126(2)
H1 H 0.0222 0.7081 0.4797
H2 H 0.0597 0.7800 0.5265
O11 O 0.0997(2) 0.8121(5) 0.6998(2)
O12 O 0.0153(2) 0.8710(5) 0.6298(2)
C15 C 0.0651(3) 0.9008(7) 0.6669(3)
O26_3 O 0.5947(2) 0.1101(5) 0.0218(2)
C24_3 C 0.6475(3) 0.0486(7) 0.0342(3)
O13 O 0.9724(2) 0.4188(5) 0.5868(2)
Tb4 Tb 0.954746(13) 0.68837(3) 0.577620(14)
Tb5_3 Tb 0.545254(13) 0.18837(3) 0.922380(14)
O17_3 O 0.5757(2) 0.1493(6) 0.8285(2)
O19 O 0.6410(2) 0.0593(5) 0.7717(2)
N3_3 N 0.6480(2) 0.0673(6) 0.9290(2)
C17_3 C 0.6699(3) 0.0443(8) 0.8779(3)
C21_3 C 0.6812(3) 0.0271(7) 0.9823(3)
C22_3 C 0.6255(3) 0.0875(7) 0.8216(3)
H14_3 H 0.7637 0.9370 0.0263
O2 O 0.8837(2) 0.8812(5) 0.5617(2)
H3 H 0.8670 0.9098 0.5909
H4 H 0.8832 0.9504 0.5364
O3 O 0.9243(2) 0.6493(6) 0.6715(2)
O4_3 O 0.8590(2) 0.5593(5) 0.7283(2)
O5_3 O 0.6668(2) 0.2931(6) 0.6072(2)
O6_3 O 0.6310(2) 0.3933(6) 0.5176(2)
O8 O 0.9053(2) 0.6101(5) 0.4782(2)
N1 N 0.8520(2) 0.5673(6) 0.5710(2)
C1_3 C 0.8301(3) 0.5443(8) 0.6221(3)
C2_3 C 0.7728(3) 0.4786(7) 0.6212(3)
H5_3 H 0.7582 0.4609 0.6578
C3_3 C 0.7364(3) 0.4384(8) 0.5648(3)
C4_3 C 0.7598(3) 0.4631(7) 0.5123(3)
H6_3 H 0.7363 0.4370 0.4737
C5_3 C 0.8188(3) 0.5271(7) 0.5177(3)
C6_3 C 0.8745(3) 0.5875(7) 0.6784(3)
C7_3 C 0.6729(3) 0.3688(7) 0.5626(3)
C8_3 C 0.8525(3) 0.5486(7) 0.4658(3)
O21_3 O 0.8332(2) 0.7931(6) 0.8928(2)
O22_3 O 0.8690(2) 0.8933(6) 0.9824(2)
O29_3 O 0.76276(19) 0.4273(5) 0.7882(2)
O32_2 O 0.7586(2) 0.7266(5) 0.7678(2)
O33_3 O 0.7414(2) 0.2266(5) 0.7322(2)
O35_3 O 0.9003(2) 0.8121(5) 0.8002(2)
O36_2 O 0.5997(2) 0.3121(5) 0.6998(2)
O41_3 O 0.9504(2) 0.5623(5) 0.8711(2)
O43_2 O 0.5496(2) 0.0623(5) 0.6289(2)
N6_3 N 0.8790(2) 0.3478(6) 0.8249(2)
C18_3 C 0.7272(3) 0.9786(7) 0.8788(3)
H13_3 H 0.7418 0.9609 0.8422
C19_3 C 0.7636(3) 0.9384(8) 0.9352(3)
C20_3 C 0.7402(3) 0.9631(7) 0.9877(3)
C23_3 C 0.8271(3) 0.8688(7) 0.9374(3)
O30_2 O 0.73724(19) 0.9273(5) 0.7118(2)
N7_2 N 0.6210(2) 0.8478(6) 0.6751(2)
Tb4_2 Tb 0.454746(13) 0.18837(3) 0.577620(14)
O26_4 O 0.0947(2) 0.6101(5) 0.0218(2)
H14_4 H 0.2637 0.4370 0.0263
C24_4 C 0.1475(3) 0.5486(7) 0.0342(3)
O1_2 O 0.5223(2) 0.2539(6) 0.5126(2)
H1_2 H 0.5222 0.2081 0.4797
H2_2 H 0.5597 0.2800 0.5265
O2_2 O 0.3837(2) 0.3812(5) 0.5617(2)
H3_2 H 0.3670 0.4098 0.5909
H4_2 H 0.3832 0.4504 0.5364
O3_2 O 0.4243(2) 0.1493(6) 0.6715(2)
O4_4 O 0.3590(2) 0.0593(5) 0.7283(2)
O8_2 O 0.4053(2) 0.1101(5) 0.4782(2)
O12_2 O 0.5153(2) 0.3710(5) 0.6298(2)
O13_2 O 0.4724(2) 0.9188(5) 0.5868(2)
N1_2 N 0.3520(2) 0.0673(6) 0.5710(2)
C1_4 C 0.3301(3) 0.0443(8) 0.6221(3)
C5_4 C 0.3188(3) 0.0271(7) 0.5177(3)
C6_4 C 0.3745(3) 0.0875(7) 0.6784(3)
C8_4 C 0.3525(3) 0.0486(7) 0.4658(3)
C9_2 C 0.6597(3) 0.7456(7) 0.7014(3)
C10_2 C 0.6434(3) 0.6001(7) 0.7006(3)
H7_2 H 0.6722 0.5293 0.7202
C11_2 C 0.5840(3) 0.5588(7) 0.6706(3)
C12_2 C 0.5440(3) 0.6661(8) 0.6421(3)
H8_2 H 0.5036 0.6417 0.6201
C13_2 C 0.5640(3) 0.8077(7) 0.6463(3)
C14_2 C 0.7238(3) 0.8042(7) 0.7292(3)
C15_2 C 0.5651(3) 0.4008(7) 0.6669(3)
C16_2 C 0.5260(3) 0.9352(7) 0.6183(3)
Tb5_4 Tb 0.045254(13) 0.68837(3) 0.922380(14)
O17_4 O 0.0757(2) 0.6493(6) 0.8285(2)
O19_2 O 0.1410(2) 0.5593(5) 0.7717(2)
O21_4 O 0.3332(2) 0.2931(6) 0.8928(2)
O22_4 O 0.3690(2) 0.3933(6) 0.9824(2)
O35_4 O 0.4003(2) 0.3121(5) 0.8002(2)
O41_4 O 0.4504(2) 0.0623(5) 0.8711(2)
N3_4 N 0.1480(2) 0.5673(6) 0.9290(2)
C17_4 C 0.1699(3) 0.5443(8) 0.8779(3)
C18_4 C 0.2272(3) 0.4786(7) 0.8788(3)
H13_4 H 0.2418 0.4609 0.8422
C19_4 C 0.2636(3) 0.4384(8) 0.9352(3)
C20_4 C 0.2402(3) 0.4631(7) 0.9877(3)
C21_4 C 0.1812(3) 0.5271(7) 0.9823(3)
C22_4 C 0.1255(3) 0.5875(7) 0.8216(3)
C23_4 C 0.3271(3) 0.3688(7) 0.9374(3)
O5_4 O 0.1668(2) 0.7931(6) 0.6072(2)
O6_4 O 0.1310(2) 0.8933(6) 0.5176(2)
C2_4 C 0.2728(3) 0.9786(7) 0.6212(3)
H5_4 H 0.2582 0.9609 0.6578
C3_4 C 0.2364(3) 0.9384(8) 0.5648(3)
C4_4 C 0.2598(3) 0.9631(7) 0.5123(3)
H6_4 H 0.2363 0.9370 0.4737
C7_4 C 0.1729(3) 0.8688(7) 0.5626(3)
O29_4 O 0.26276(19) 0.9273(5) 0.7882(2)
O33_4 O 0.2414(2) 0.7266(5) 0.7322(2)
N6_4 N 0.3790(2) 0.8478(6) 0.8249(2)
O13_3 O 0.0276(2) 0.4188(5) 0.9132(2)
O2_3 O 0.1163(2) 0.8812(5) 0.9383(2)
H3_3 H 0.1330 0.9098 0.9091
H4_3 H 0.1168 0.9504 0.9636
C9_3 C 0.8403(3) 0.2456(7) 0.7986(3)
C10_3 C 0.8566(3) 0.1001(7) 0.7994(3)
H7_3 H 0.8278 0.0293 0.7798
C11_3 C 0.9160(3) 0.0588(7) 0.8294(3)
C12_3 C 0.9560(3) 0.1661(8) 0.8579(3)
H8_3 H 0.9964 0.1417 0.8799
C13_3 C 0.9360(3) 0.3077(7) 0.8537(3)
C14_3 C 0.7762(3) 0.3042(7) 0.7708(3)
C16_3 C 0.9740(3) 0.4352(7) 0.8817(3)
O1_3 O 0.9777(2) 0.7539(6) 0.9874(2)
H2_3 H 0.9403 0.7800 0.9735
O12_3 O 0.9847(2) 0.8710(5) 0.8702(2)
C15_3 C 0.9349(3) 0.9008(7) 0.8331(3)
H1_3 H 0.4778 0.2081 0.0203
O1_4 O 0.4777(2) 0.2539(6) 0.9874(2)
H2_4 H 0.4403 0.2800 0.9735
O2_4 O 0.6163(2) 0.3812(5) 0.9383(2)
H3_4 H 0.6330 0.4098 0.9091
H4_4 H 0.6168 0.4504 0.9636
O12_4 O 0.4847(2) 0.3710(5) 0.8702(2)
O13_4 O 0.5276(2) 0.9188(5) 0.9132(2)
C9_4 C 0.3403(3) 0.7456(7) 0.7986(3)
C10_4 C 0.3566(3) 0.6001(7) 0.7994(3)
H7_4 H 0.3278 0.5293 0.7798
C11_4 C 0.4160(3) 0.5588(7) 0.8294(3)
C12_4 C 0.4560(3) 0.6661(8) 0.8579(3)
H8_4 H 0.4964 0.6417 0.8799
C13_4 C 0.4360(3) 0.8077(7) 0.8537(3)
C14_4 C 0.2762(3) 0.8042(7) 0.7708(3)
C15_4 C 0.4349(3) 0.4008(7) 0.8331(3)
C16_4 C 0.4740(3) 0.9352(7) 0.8817(3)
H9_4 H 0.0222 0.2919 0.9797
H1_4 H 0.9778 0.7081 0.0203
loop_
_geom_bond_atom_site_label_1
_geom_bond_atom_site_label_2
_geom_bond_site_symmetry_1
_geom_bond_site_symmetry_2
O16 Tb3 1_555 1_555
H11 O16 1_555 1_555
H12 O16 1_555 1_555
O18 Tb3 1_555 1_555
O27 Tb3 1_555 1_555
O39 Tb3 1_555 1_555
N4 Tb3 1_555 1_555
Tb2 O4 1_555 1_555
O4 C6 1_555 1_555
O5 C7 1_555 1_555
O6 C7 1_555 1_555
O7 C8 1_555 1_555
C1 N4 1_555 1_555
C2 C1 1_555 1_555
H5 C2 1_555 1_555
C3 C2 1_555 1_555
C4 C3 1_555 1_555
H6 C4 1_555 1_555
C5 N4 1_555 1_555
C6 O18 1_555 1_555
C7 C3 1_555 1_555
C8 O27 1_555 1_555
Tb6 O5 1_555 1_555
Tb7 O7 1_555 1_555
O20 Tb6 1_555 1_555
O21 Tb2 1_555 1_555
O22 C23 1_555 1_555
O24 Tb2 1_555 1_555
O29 Tb2 1_555 1_555
O32 Tb2 1_555 1_555
O33 Tb6 1_555 1_555
O35 Tb2 1_555 1_555
O36 Tb6 1_555 1_555
O41 Tb2 1_555 1_555
O43 Tb6 1_555 1_555
N6 Tb2 1_555 1_555
H13 C18 1_555 1_555
C19 C18 1_555 1_555
C20 C19 1_555 1_555
C23 O21 1_555 1_555
C1 C6 1_555 1_555
C4 C5 1_555 1_555
C5 C8 1_555 1_555
C19 C23 1_555 1_555
Tb5 O17 1_555 1_555
O17 C22 1_555 1_555
O20 C22 1_555 1_555
N3 Tb5 1_555 1_555
C17 N3 1_555 1_555
C21 N3 1_555 1_555
C22 C17 1_555 1_555
O23 C24 1_555 1_555
C24 O26 1_555 1_555
Tb12 O34 1_555 1_555
O15 H9 1_555 1_555
H10 O15 1_555 1_555
O34 C31 1_555 1_555
C31 O37 1_555 1_555
Tb12 O42 1_555 1_555
Tb11 O31 1_555 1_555
O28 Tb12 1_555 1_555
O31 C30 1_555 1_555
N5 Tb12 1_555 1_555
C25 N5 1_555 1_555
C26 C25 1_555 1_555
H15 C26 1_555 1_555
C27 C26 1_555 1_555
C28 C27 1_555 1_555
H16 C28 1_555 1_555
C29 N5 1_555 1_555
C30 O28 1_555 1_555
O42 C32 1_555 1_555
C25 C30 1_555 1_555
C28 C29 1_555 1_555
C29 C32 1_555 1_555
O5_2 C7_2 1_555 1_555
O6_2 C7_2 1_555 1_555
H5_2 C2_2 1_555 1_555
C3_2 C2_2 1_555 1_555
C4_2 C3_2 1_555 1_555
H6_2 C4_2 1_555 1_555
C7_2 C3_2 1_555 1_555
Tb3_2 O15_2 1_555 1_555
Tb12 O5_2 1_555 1_555
O15_2 H9_2 1_555 1_555
H10_2 O15_2 1_555 1_555
O16_2 Tb3_2 1_555 1_555
H11_2 O16_2 1_555 1_555
H12_2 O16_2 1_555 1_555
O18_2 Tb3_2 1_555 1_555
O20_2 Tb12 1_555 1_555
O25_2 Tb12 1_555 1_555
O27_2 Tb3_2 1_555 1_555
O32 C30_2 1_555 1_555
O33_2 Tb12 1_555 1_555
O36 C31_2 1_555 1_555
O37_2 Tb3_2 1_555 1_555
O43 Tb3_2 1_555 1_555
N4_2 Tb3_2 1_555 1_555
C25_2 N7 1_555 1_555
C26_2 C25_2 1_555 1_555
H15_2 C26_2 1_555 1_555
C27_2 C26_2 1_555 1_555
C28_2 C27_2 1_555 1_555
H16_2 C28_2 1_555 1_555
C29_2 N7 1_555 1_555
C30_2 O30 1_555 1_555
C31_2 O37_2 1_555 1_555
C32_2 O39_2 1_555 1_555
C25_2 C30_2 1_555 1_555
C27_2 C31_2 1_555 1_555
C28_2 C29_2 1_555 1_555
C29_2 C32_2 1_555 1_555
Tb11 O4_2 1_555 1_555
O4_2 C6_2 1_555 1_555
O7_2 C8_2 1_555 1_555
C1_2 N4_2 1_555 1_555
C5_2 N4_2 1_555 1_555
C6_2 O18_2 1_555 1_555
C8_2 O27_2 1_555 1_555
Tb5_2 O17_2 1_555 1_555
O17_2 C22_2 1_555 1_555
O20_2 C22_2 1_555 1_555
O21_2 Tb11 1_555 1_555
O22_2 C23_2 1_555 1_555
O35_2 Tb11 1_555 1_555
O41_2 Tb11 1_555 1_555
N3_2 Tb5_2 1_555 1_555
C17_2 N3_2 1_555 1_555
C18_2 C17_2 1_555 1_555
H13_2 C18_2 1_555 1_555
C19_2 C18_2 1_555 1_555
C20_2 C19_2 1_555 1_555
C21_2 N3_2 1_555 1_555
C22_2 C17_2 1_555 1_555
C23_2 O21_2 1_555 1_555
C1_2 C6_2 1_555 1_555
C5_2 C8_2 1_555 1_555
C19_2 C23_2 1_555 1_555
C20_2 C21_2 1_555 1_555
Tb14_2 O23_2 1_555 1_555
O23_2 C24_2 1_555 1_555
C24_2 O26_2 1_555 1_555
H10_3 O15_3 1_555 1_555
O35 C31_3 1_555 1_555
C31_3 O37_3 1_555 1_555
O33 C30_3 1_555 1_555
C25_3 N6 1_555 1_555
C26_3 C25_3 1_555 1_555
H15_3 C26_3 1_555 1_555
C27_3 C26_3 1_555 1_555
C28_3 C27_3 1_555 1_555
H16_3 C28_3 1_555 1_555
C29_3 N6 1_555 1_555
C30_3 O29 1_555 1_555
O41 C32_3 1_555 1_555
C25_3 C30_3 1_555 1_555
C28_3 C29_3 1_555 1_555
C29_3 C32_3 1_555 1_555
O16_3 Tb5_2 1_555 1_555
H11_3 O16_3 1_555 1_555
H12_3 O16_3 1_555 1_555
O39_3 Tb5_2 1_555 1_555
Tb5 O15_4 1_555 1_555
H10_4 O15_4 1_555 1_555
O16_4 Tb5 1_555 1_555
H11_4 O16_4 1_555 1_555
H12_4 O16_4 1_555 1_555
O33_2 C30_4 1_555 1_555
O35_2 C31_4 1_555 1_555
O37_4 Tb5 1_555 1_555
O41_2 Tb5 1_555 1_555
C25_4 N6_2 1_555 1_555
C26_4 C25_4 1_555 1_555
H15_4 C26_4 1_555 1_555
C27_4 C26_4 1_555 1_555
C28_4 C27_4 1_555 1_555
H16_4 C28_4 1_555 1_555
C29_4 N6_2 1_555 1_555
C30_4 O29_2 1_555 1_555
C31_4 O37_4 1_555 1_555
C32_4 O39_4 1_555 1_555
C25_4 C30_4 1_555 1_555
C27_4 C31_4 1_555 1_555
C28_4 C29_4 1_555 1_555
C29_4 C32_4 1_555 1_555
O9 C14 1_555 1_555
O10 C14 1_555 1_555
O14 C16 1_555 1_555
N2 C9 1_555 1_555
C9 C10 1_555 1_555
C10 H7 1_555 1_555
C11 C10 1_555 1_555
C12 C11 1_555 1_555
H8 C12 1_555 1_555
C13 N2 1_555 1_555
C14 C9 1_555 1_555
C16 C13 1_555 1_555
Tb7 O9 1_555 1_555
Tb14 O10 1_555 1_555
O14 Tb7 1_555 1_555
N2 Tb7 1_555 1_555
C12 C13 1_555 1_555
O1 H1 1_555 1_555
H2 O1 1_555 1_555
O11 C15 1_555 1_555
C15 O12 1_555 1_555
Tb7 O11 1_555 1_555
O24_2 C24_3 1_555 1_555
C24_3 O26_3 1_555 1_555
Tb4 O13 1_555 1_555
Tb5_3 O17_3 1_555 1_555
Tb7_2 O19 1_555 1_555
O17_3 C22_3 1_555 1_555
O19 C22_3 1_555 1_555
N3_3 Tb5_3 1_555 1_555
C17_3 N3_3 1_555 1_555
C21_3 N3_3 1_555 1_555
C22_3 C17_3 1_555 1_555
Tb14_2 O4_3 1_555 1_555
O2 Tb4 1_555 1_555
H3 O2 1_555 1_555
H4 O2 1_555 1_555
O3 Tb4 1_555 1_555
O4_3 C6_3 1_555 1_555
O5_3 C7_3 1_555 1_555
O6_3 C7_3 1_555 1_555
O25_2 C8_3 1_555 1_555
O8 Tb4 1_555 1_555
N1 Tb4 1_555 1_555
C1_3 N1 1_555 1_555
C2_3 C1_3 1_555 1_555
H5_3 C2_3 1_555 1_555
C3_3 C2_3 1_555 1_555
C4_3 C3_3 1_555 1_555
H6_3 C4_3 1_555 1_555
C5_3 N1 1_555 1_555
C6_3 O3 1_555 1_555
C7_3 C3_3 1_555 1_555
C8_3 O8 1_555 1_555
Tb7_2 O5_3 1_555 1_555
O21_3 Tb14_2 1_555 1_555
O22_3 C23_3 1_555 1_555
O29_3 Tb14_2 1_555 1_555
O32_2 Tb14_2 1_555 1_555
O33_3 Tb7_2 1_555 1_555
O35_3 Tb14_2 1_555 1_555
O36_2 Tb7_2 1_555 1_555
O41_3 Tb14_2 1_555 1_555
O43_2 Tb7_2 1_555 1_555
N6_3 Tb14_2 1_555 1_555
H13_3 C18_3 1_555 1_555
C19_3 C18_3 1_555 1_555
C20_3 C19_3 1_555 1_555
C23_3 O21_3 1_555 1_555
C1_3 C6_3 1_555 1_555
C4_3 C5_3 1_555 1_555
C5_3 C8_3 1_555 1_555
C19_3 C23_3 1_555 1_555
O43_2 Tb4_2 1_555 1_555
O24 C24_4 1_555 1_555
C24_4 O26_4 1_555 1_555
Tb4_2 O1_2 1_555 1_555
Tb14 O4_4 1_555 1_555
O1_2 H1_2 1_555 1_555
H2_2 O1_2 1_555 1_555
O2_2 Tb4_2 1_555 1_555
H3_2 O2_2 1_555 1_555
H4_2 O2_2 1_555 1_555
O3_2 Tb4_2 1_555 1_555
O4_4 C6_4 1_555 1_555
O25 C8_4 1_555 1_555
O8_2 Tb4_2 1_555 1_555
O30_2 C14_2 1_555 1_555
O32_2 C14_2 1_555 1_555
O36_2 C15_2 1_555 1_555
O12_2 Tb4_2 1_555 1_555
O13_2 C16_2 1_555 1_555
N1_2 Tb4_2 1_555 1_555
N7_2 C9_2 1_555 1_555
C1_4 N1_2 1_555 1_555
C5_4 N1_2 1_555 1_555
C6_4 O3_2 1_555 1_555
C8_4 O8_2 1_555 1_555
C9_2 C10_2 1_555 1_555
C10_2 H7_2 1_555 1_555
C11_2 C10_2 1_555 1_555
C12_2 C11_2 1_555 1_555
H8_2 C12_2 1_555 1_555
C13_2 N7_2 1_555 1_555
C14_2 C9_2 1_555 1_555
C15_2 O12_2 1_555 1_555
C16_2 C13_2 1_555 1_555
Tb5_4 O17_4 1_555 1_555
Tb7 O19_2 1_555 1_555
O17_4 C22_4 1_555 1_555
O19_2 C22_4 1_555 1_555
O21_4 Tb14 1_555 1_555
O22_4 C23_4 1_555 1_555
O35_4 Tb14 1_555 1_555
O41_4 Tb14 1_555 1_555
N3_4 Tb5_4 1_555 1_555
C17_4 N3_4 1_555 1_555
C18_4 C17_4 1_555 1_555
H13_4 C18_4 1_555 1_555
C19_4 C18_4 1_555 1_555
C20_4 C19_4 1_555 1_555
C21_4 N3_4 1_555 1_555
C22_4 C17_4 1_555 1_555
C23_4 O21_4 1_555 1_555
C1_4 C6_4 1_555 1_555
C5_4 C8_4 1_555 1_555
C11_2 C15_2 1_555 1_555
C12_2 C13_2 1_555 1_555
C19_4 C23_4 1_555 1_555
C20_4 C21_4 1_555 1_555
O5_4 C7_4 1_555 1_555
O6_4 C7_4 1_555 1_555
H5_4 C2_4 1_555 1_555
C3_4 C2_4 1_555 1_555
C4_4 C3_4 1_555 1_555
H6_4 C4_4 1_555 1_555
C7_4 C3_4 1_555 1_555
Tb7 O5_4 1_555 1_555
O33_4 Tb7 1_555 1_555
Tb5_4 O13_3 1_555 1_555
O2_3 Tb5_4 1_555 1_555
H3_3 O2_3 1_555 1_555
H4_3 O2_3 1_555 1_555
O29_3 C14_3 1_555 1_555
O33_3 C14_3 1_555 1_555
O41_3 C16_3 1_555 1_555
N6_3 C9_3 1_555 1_555
C9_3 C10_3 1_555 1_555
C10_3 H7_3 1_555 1_555
C11_3 C10_3 1_555 1_555
C12_3 C11_3 1_555 1_555
H8_3 C12_3 1_555 1_555
C13_3 N6_3 1_555 1_555
C14_3 C9_3 1_555 1_555
C16_3 C13_3 1_555 1_555
C12_3 C13_3 1_555 1_555
H2_3 O1_3 1_555 1_555
O35_3 C15_3 1_555 1_555
C15_3 O12_3 1_555 1_555
O41_4 Tb5_3 1_555 1_555
Tb5_3 O1_4 1_555 1_555
H2_4 O1_4 1_555 1_555
O2_4 Tb5_3 1_555 1_555
H3_4 O2_4 1_555 1_555
H4_4 O2_4 1_555 1_555
O29_4 C14_4 1_555 1_555
O33_4 C14_4 1_555 1_555
O35_4 C15_4 1_555 1_555
O12_4 Tb5_3 1_555 1_555
O13_4 C16_4 1_555 1_555
N6_4 C9_4 1_555 1_555
C9_4 C10_4 1_555 1_555
C10_4 H7_4 1_555 1_555
C11_4 C10_4 1_555 1_555
C12_4 C11_4 1_555 1_555
H8_4 C12_4 1_555 1_555
C13_4 N6_4 1_555 1_555
C14_4 C9_4 1_555 1_555
C15_4 O12_4 1_555 1_555
C16_4 C13_4 1_555 1_555
C11_4 C15_4 1_555 1_555
C12_4 C13_4 1_555 1_555

#END
