
###############################################################################
#
# This file contains modified crystal structure data generated from the
# MOF subset of the Cambridge Structural Database (CSD) v543 
# hosted by the Cambridge Crystallographic Data Centre (CCDC).
#
# This work is licensed under the Creative Commons
# Attribution-NonCommercial-ShareAlike 4.0 International License.
# To view a copy of this license, visit
# http://creativecommons.org/licenses/by-nc-sa/4.0/
# or send a letter to
# Creative Commons, PO Box 1866, Mountain View, CA 94042, USA.
#
# CIF created using the CSD Python API on 29 September 2022
# The structure has been converted into the P1 space group
# The structure has a 3D framework
# The original CSD entry KOPHOO is in the monoclinic crystal system
# The framework has been calculated to contain at least 10.0% void space
# The void calculation uses a probe of radius 1.32A, grid spacing 0.4
#
###############################################################################

data_KOPHOO
_chemical_formula_moiety         '(C172 H120 N4 O44 Zn16)n'
_symmetry_cell_setting           triclinic
_symmetry_space_group_name_H-M   'P 1'
_symmetry_Int_Tables_number      1
_space_group_name_Hall           'P 1'
loop_
_symmetry_equiv_pos_site_id
_symmetry_equiv_pos_as_xyz
1 x,y,z
_cell_length_a                   17.1259(4)
_cell_length_b                   32.5986(8)
_cell_length_c                   25.1806(18)
_cell_angle_alpha                90
_cell_angle_beta                 99.471(7)
_cell_angle_gamma                90
_cell_volume                     13866.2
loop_
_atom_site_label
_atom_site_type_symbol
_atom_site_fract_x
_atom_site_fract_y
_atom_site_fract_z
Zn14 Zn 0.03572(4) 0.03784(2) 0.79012(3)
O14 O 0.0285(3) 0.02331(13) 0.86328(17)
Zn8 Zn 0.02588(4) 0.12906(2) 0.74400(3)
O18 O 0.1431(3) 0.05046(16) 0.7851(2)
O19 O 0.1362(3) 0.11489(15) 0.7496(2)
O20 O 0.7818(3) 0.06860(14) 0.71648(19)
O21 O 0.7983(2) 0.09431(14) 0.79987(19)
O23 O 0.0172(3) 0.32395(12) 0.28818(17)
C53 C 0.0111(5) 0.1765(2) 0.5126(3)
H35 H 0.0408 0.1993 0.5047
C54 C 0.0024(5) 0.1680(2) 0.5644(3)
H36 H 0.0278 0.1843 0.5929
C55 C 0.0050(5) 0.1238(2) 0.3860(3)
C56 C 0.0570(5) 0.0946(2) 0.4081(3)
H37 H 0.0850 0.0981 0.4431
C57 C 0.0692(5) 0.0594(2) 0.3791(3)
H38 H 0.1055 0.0394 0.3947
C58 C 0.0280(4) 0.0535(2) 0.3275(3)
C62 C 0.1715(4) 0.0833(3) 0.7656(3)
C63 C 0.2610(5) 0.0806(3) 0.7641(3)
C64 C 0.2959(5) 0.1139(3) 0.7457(4)
H41 H 0.2654 0.1374 0.7351
C65 C 0.3771(6) 0.1138(4) 0.7423(5)
C66 C 0.4200(5) 0.0789(3) 0.7596(4)
C67 C 0.3840(5) 0.0470(4) 0.7785(5)
C68 C 0.3063(5) 0.0473(3) 0.7816(4)
H42 H 0.2832 0.0245 0.7958
C69 C 0.4152(6) 0.1518(3) 0.7229(6)
H43 H 0.4560 0.1618 0.7513
H44 H 0.4385 0.1451 0.6915
H45 H 0.3753 0.1729 0.7136
C70 C 0.4343(6) 0.0088(4) 0.7991(7)
H47 H 0.4752 0.0167 0.8287
C71 C 0.5069(5) 0.0805(3) 0.7578(4)
C72 C 0.5356(5) 0.0667(3) 0.7136(4)
C73 C 0.6167(5) 0.0665(3) 0.7138(4)
H49 H 0.6364 0.0563 0.6837
C74 C 0.6695(4) 0.0812(2) 0.7580(3)
C75 C 0.7568(4) 0.0805(2) 0.7563(3)
C76 C 0.6389(5) 0.0953(3) 0.8027(4)
H50 H 0.6730 0.1054 0.8329
C77 C 0.5606(6) 0.0943(3) 0.8020(4)
C78 C 0.5280(6) 0.1105(5) 0.8541(5)
H51 H 0.4944 0.1342 0.8445
H52 H 0.4976 0.0890 0.8678
H53 H 0.5722 0.1182 0.8815
C79 C 0.4815(5) 0.0507(4) 0.6630(5)
H54 H 0.4508 0.0276 0.6726
H55 H 0.4461 0.0724 0.6476
H56 H 0.5137 0.0418 0.6368
C84 C 0.0357(5) 0.0154(2) 0.2972(3)
C85 C 0.0337(5) 0.2085(2) 0.3557(3)
H59 H 0.0662 0.1885 0.3436
C86 C 0.0313(4) 0.24652(19) 0.3343(3)
H60 H 0.0639 0.2532 0.3089
Zn12 Zn 0.88861(4) 0.06502(2) 0.70295(3)
Zn17 Zn 0.91059(4) 0.10047(2) 0.82216(3)
Zn19 Zn 0.02588(4) 0.37094(2) 0.24400(3)
O37 O 0.0172(3) 0.17605(12) 0.78818(17)
Zn1 Zn 0.11139(4) 0.93498(2) 0.29705(3)
Zn3 Zn 0.08941(4) 0.89953(2) 0.17784(3)
O2 O 0.0090(3) 0.98943(12) 0.74661(18)
O6 O 0.0591(3) 0.93234(13) 0.11417(16)
O9 O 0.0681(3) 0.65670(13) 0.65797(18)
O11 O 0.0076(3) 0.85654(13) 0.33132(16)
O12 O 0.0990(3) 0.90458(14) 0.36025(17)
O13 O 0.0350(2) 0.91695(10) 0.23558(13)
N1 N 0.0112(4) 0.84250(16) 0.5828(2)
C1 C 0.0525(5) 0.8773(2) 0.3678(2)
C2 C 0.0451(4) 0.86527(19) 0.4251(3)
C3 C 0.0823(5) 0.8883(2) 0.4673(3)
H1 H 0.1159 0.9099 0.4607
C4 C 0.0714(5) 0.8804(2) 0.5182(3)
H2 H 0.0967 0.8969 0.5466
C5 C 0.0252(5) 0.8497(2) 0.5287(3)
C12 C 0.0226(5) 0.9159(2) 0.6948(3)
H7 H 0.0497 0.9186 0.7302
C13 C 0.0340(5) 0.8808(2) 0.6650(3)
H8 H 0.0690 0.8603 0.6805
C14 C 0.0110(5) 0.8019(2) 0.6046(3)
C33 C 0.0121(4) 0.9627(2) 0.1043(3)
C34 C 0.0068(4) 0.98130(19) 0.0502(2)
C35 C 0.0469(5) 0.9670(2) 0.0131(3)
H25 H 0.0788 0.9436 0.0209
C37 C 0.0240(4) 0.6828(2) 0.6751(3)
C38 C 0.0188(4) 0.72462(19) 0.6504(3)
C39 C 0.0661(5) 0.7342(2) 0.6128(3)
H27 H 0.1002 0.7140 0.6027
C40 C 0.0646(5) 0.7721(2) 0.5897(3)
H28 H 0.0980 0.7785 0.5648
Zn18 Zn 0.08941(4) 0.60047(2) 0.67784(3)
O28 O 0.0891(3) 0.99050(13) 0.31726(18)
O31 O 0.2182(3) 0.93140(14) 0.28352(19)
O33 O 0.2017(2) 0.90569(14) 0.20013(19)
O36 O 0.0681(3) 0.84330(13) 0.15797(18)
C36 C 0.0429(5) 0.9855(2) 0.9633(3)
H26 H 0.0740 0.9756 0.9386
H46 H 0.4586 0.9976 0.7701
H48 H 0.4004 0.9882 0.8115
O1 O 0.9109(3) 0.00950(13) 0.68274(18)
H14 H 0.5414 0.0024 0.2299
H16 H 0.5996 0.0118 0.1885
C47 C 0.9571(5) 0.0145(2) 0.0367(3)
H32 H 0.9260 0.0244 0.0614
O30 O 0.9910(3) 0.01057(12) 0.25339(18)
O15 O 0.9409(3) 0.06766(13) 0.88583(16)
C44 C 0.9879(4) 0.0373(2) 0.8957(3)
C45 C 0.9932(4) 0.01870(19) 0.9498(2)
C46 C 0.9531(5) 0.0330(2) 0.9869(3)
H31 H 0.9212 0.0564 0.9791
O22 O 0.9319(3) 0.34330(13) 0.34203(18)
O24 O 0.9924(3) 0.14346(13) 0.66868(16)
O25 O 0.9010(3) 0.09542(14) 0.63975(17)
O26 O 0.9650(2) 0.08305(10) 0.76442(13)
N2 N 0.9888(4) 0.15750(16) 0.4172(2)
C48 C 0.9475(5) 0.1227(2) 0.6322(2)
C49 C 0.9549(4) 0.13473(19) 0.5749(3)
C50 C 0.9177(5) 0.1117(2) 0.5327(3)
H33 H 0.8841 0.0901 0.5393
C51 C 0.9286(5) 0.1196(2) 0.4818(3)
H34 H 0.9033 0.1031 0.4534
C52 C 0.9748(5) 0.1503(2) 0.4713(3)
C59 C 0.9774(5) 0.0841(2) 0.3052(3)
H39 H 0.9503 0.0814 0.2698
C60 C 0.9660(5) 0.1192(2) 0.3350(3)
H40 H 0.9310 0.1397 0.3195
C61 C 0.9890(5) 0.1981(2) 0.3954(3)
C80 C 0.9760(4) 0.3172(2) 0.3249(3)
C81 C 0.9812(4) 0.27538(19) 0.3496(3)
C82 C 0.9339(5) 0.2658(2) 0.3872(3)
H57 H 0.8998 0.2860 0.3973
C83 C 0.9354(5) 0.2279(2) 0.4103(3)
H58 H 0.9020 0.2215 0.4352
Zn16 Zn 0.91059(4) 0.39953(2) 0.32216(3)
O35 O 0.9319(3) 0.15670(13) 0.84203(18)
Zn2 Zn 0.96428(4) 0.96216(2) 0.20988(3)
Zn4 Zn 0.97412(4) 0.87094(2) 0.25600(3)
O3 O 0.8569(3) 0.94954(16) 0.2149(2)
O4 O 0.8638(3) 0.88511(15) 0.2504(2)
O5 O 0.9715(3) 0.97669(13) 0.13672(17)
O10 O 0.9828(3) 0.67605(12) 0.71182(17)
C6 C 0.9889(5) 0.8235(2) 0.4874(3)
H3 H 0.9592 0.8007 0.4953
C7 C 0.9976(5) 0.8320(2) 0.4356(3)
H4 H 0.9722 0.8157 0.4071
C8 C 0.9950(5) 0.8762(2) 0.6140(3)
C9 C 0.9430(5) 0.9054(2) 0.5919(3)
H5 H 0.9150 0.9019 0.5569
C10 C 0.9308(5) 0.9406(2) 0.6209(3)
H6 H 0.8945 0.9606 0.6053
C11 C 0.9720(4) 0.9465(2) 0.6725(3)
C15 C 0.8285(4) 0.9167(3) 0.2344(3)
C16 C 0.7390(5) 0.9194(3) 0.2359(3)
C17 C 0.7041(5) 0.8861(3) 0.2543(4)
H9 H 0.7346 0.8626 0.2649
C18 C 0.6229(6) 0.8862(4) 0.2577(5)
C19 C 0.5800(5) 0.9211(3) 0.2404(4)
C20 C 0.6160(5) 0.9530(4) 0.2215(5)
C21 C 0.6937(5) 0.9527(3) 0.2184(4)
H10 H 0.7168 0.9755 0.2042
C22 C 0.5848(6) 0.8482(3) 0.2771(6)
H11 H 0.5440 0.8382 0.2487
H12 H 0.5615 0.8549 0.3085
H13 H 0.6247 0.8271 0.2864
C23 C 0.5657(6) 0.9912(4) 0.2009(7)
H15 H 0.5248 0.9833 0.1713
C24 C 0.4931(5) 0.9195(3) 0.2422(4)
C25 C 0.4644(5) 0.9333(3) 0.2864(4)
C26 C 0.3833(5) 0.9335(3) 0.2862(4)
H17 H 0.3636 0.9437 0.3163
C27 C 0.3305(4) 0.9188(2) 0.2420(3)
C28 C 0.2432(4) 0.9195(2) 0.2437(3)
C29 C 0.3611(5) 0.9047(3) 0.1973(4)
H18 H 0.3270 0.8946 0.1671
C30 C 0.4394(6) 0.9057(3) 0.1980(4)
C31 C 0.4720(6) 0.8895(5) 0.1459(5)
H19 H 0.5056 0.8658 0.1555
H20 H 0.5024 0.9110 0.1322
H21 H 0.4278 0.8818 0.1185
C32 C 0.5185(5) 0.9493(4) 0.3370(5)
H22 H 0.5492 0.9724 0.3274
H23 H 0.5539 0.9276 0.3524
H24 H 0.4863 0.9582 0.3632
C41 C 0.9643(5) 0.9846(2) 0.7028(3)
C42 C 0.9663(5) 0.7915(2) 0.6443(3)
H29 H 0.9338 0.8115 0.6564
C43 C 0.9687(4) 0.75348(19) 0.6657(3)
H30 H 0.9361 0.7468 0.6911
Zn20 Zn 0.97412(4) 0.62906(2) 0.75600(3)
O38 O 0.9828(3) 0.82395(12) 0.21182(17)
O17 O 0.0090(3) 0.51057(12) 0.24661(18)
N2_2 N 0.0112(4) 0.65750(16) 0.0828(2)
C51_2 C 0.0714(5) 0.6196(2) 0.0182(3)
H34_2 H 0.0967 0.6031 0.0466
C52_2 C 0.0252(5) 0.6503(2) 0.0287(3)
C59_2 C 0.0226(5) 0.5841(2) 0.1948(3)
H39_2 H 0.0497 0.5814 0.2302
C60_2 C 0.0340(5) 0.6192(2) 0.1650(3)
H40_2 H 0.0690 0.6397 0.1805
C61_2 C 0.0110(5) 0.6981(2) 0.1046(3)
C80_2 C 0.0240(4) 0.8172(2) 0.1751(3)
C81_2 C 0.0188(4) 0.77538(19) 0.1504(3)
C82_2 C 0.0661(5) 0.7658(2) 0.1128(3)
H57_2 H 0.1002 0.7860 0.1027
C83_2 C 0.0646(5) 0.7279(2) 0.0897(3)
H58_2 H 0.0980 0.7215 0.0648
Zn13 Zn 0.03572(4) 0.46216(2) 0.29012(3)
O3_2 O 0.1431(3) 0.44954(16) 0.2851(2)
O4_2 O 0.1362(3) 0.38511(15) 0.2496(2)
O5_2 O 0.0285(3) 0.47669(13) 0.36328(17)
O7 O 0.7818(3) 0.43140(14) 0.21648(19)
O8 O 0.7983(2) 0.40569(14) 0.29987(19)
C6_2 C 0.0111(5) 0.3235(2) 0.0126(3)
H3_2 H 0.0408 0.3007 0.0047
C7_2 C 0.0024(5) 0.3320(2) 0.0644(3)
H4_2 H 0.0278 0.3157 0.0929
C15_2 C 0.1715(4) 0.4167(3) 0.2656(3)
C16_2 C 0.2610(5) 0.4194(3) 0.2641(3)
C17_2 C 0.2959(5) 0.3861(3) 0.2457(4)
H9_2 H 0.2654 0.3626 0.2351
C18_2 C 0.3771(6) 0.3862(4) 0.2423(5)
C19_2 C 0.4200(5) 0.4211(3) 0.2596(4)
C20_2 C 0.3840(5) 0.4530(4) 0.2785(5)
C21_2 C 0.3063(5) 0.4527(3) 0.2816(4)
H10_2 H 0.2832 0.4755 0.2958
C22_2 C 0.4152(6) 0.3482(3) 0.2229(6)
H11_2 H 0.4560 0.3382 0.2513
H12_2 H 0.4385 0.3549 0.1915
H13_2 H 0.3753 0.3271 0.2136
C23_2 C 0.4343(6) 0.4912(4) 0.2991(7)
H14_2 H 0.4586 0.5024 0.2701
H15_2 H 0.4752 0.4833 0.3287
H16_2 H 0.4004 0.5118 0.3115
C24_2 C 0.5069(5) 0.4195(3) 0.2578(4)
C25_2 C 0.5356(5) 0.4333(3) 0.2136(4)
C26_2 C 0.6167(5) 0.4335(3) 0.2138(4)
H17_2 H 0.6364 0.4437 0.1837
C27_2 C 0.6695(4) 0.4188(2) 0.2580(3)
C28_2 C 0.7568(4) 0.4195(2) 0.2563(3)
C29_2 C 0.6389(5) 0.4047(3) 0.3027(4)
H18_2 H 0.6730 0.3946 0.3329
C30_2 C 0.5606(6) 0.4057(3) 0.3020(4)
C31_2 C 0.5280(6) 0.3895(5) 0.3541(5)
H19_2 H 0.4944 0.3658 0.3445
H20_2 H 0.4976 0.4110 0.3678
H21_2 H 0.5722 0.3818 0.3815
C32_2 C 0.4815(5) 0.4493(4) 0.1630(5)
H22_2 H 0.4508 0.4724 0.1726
H23_2 H 0.4461 0.4276 0.1476
H24_2 H 0.5137 0.4582 0.1368
O15_2 O 0.0591(3) 0.56766(13) 0.61417(16)
C44_2 C 0.0121(4) 0.5373(2) 0.6043(3)
C45_2 C 0.0068(4) 0.51870(19) 0.5502(2)
C46_2 C 0.0469(5) 0.5330(2) 0.5131(3)
H31_2 H 0.0788 0.5564 0.5209
C47_2 C 0.0429(5) 0.5145(2) 0.4633(3)
H32_2 H 0.0740 0.5244 0.4386
Zn5 Zn 0.11139(4) 0.56502(2) 0.79705(3)
O24_2 O 0.0076(3) 0.64346(13) 0.83132(16)
O25_2 O 0.0990(3) 0.59542(14) 0.86025(17)
O26_2 O 0.0350(2) 0.58305(10) 0.73558(13)
C48_2 C 0.0525(5) 0.6227(2) 0.8678(2)
C49_2 C 0.0451(4) 0.63473(19) 0.9251(3)
C50_2 C 0.0823(5) 0.6117(2) 0.9673(3)
H33_2 H 0.1159 0.5901 0.9607
Zn9 Zn 0.88861(4) 0.43498(2) 0.20295(3)
O27 O 0.0891(3) 0.50950(13) 0.81726(18)
O32 O 0.2182(3) 0.56860(14) 0.78352(19)
O34 O 0.2017(2) 0.59431(14) 0.70013(19)
C8_2 C 0.0050(5) 0.3762(2) 0.8860(3)
C9_2 C 0.0570(5) 0.4054(2) 0.9081(3)
H5_2 H 0.0850 0.4019 0.9431
C10_2 C 0.0692(5) 0.4406(2) 0.8791(3)
H6_2 H 0.1055 0.4606 0.8947
C11_2 C 0.0280(4) 0.4465(2) 0.8275(3)
C41_2 C 0.0357(5) 0.4846(2) 0.7972(3)
C42_2 C 0.0337(5) 0.2915(2) 0.8557(3)
H29_2 H 0.0662 0.3115 0.8436
C43_2 C 0.0313(4) 0.25348(19) 0.8343(3)
H30_2 H 0.0639 0.2468 0.8089
O16 O 0.9109(3) 0.49050(13) 0.18274(18)
C55_2 C 0.9950(5) 0.6238(2) 0.1140(3)
C56_2 C 0.9430(5) 0.5946(2) 0.0919(3)
H37_2 H 0.9150 0.5981 0.0569
C57_2 C 0.9308(5) 0.5594(2) 0.1209(3)
H38_2 H 0.8945 0.5394 0.1053
C58_2 C 0.9720(4) 0.5535(2) 0.1725(3)
C84_2 C 0.9643(5) 0.5154(2) 0.2028(3)
C85_2 C 0.9663(5) 0.7085(2) 0.1443(3)
H59_2 H 0.9338 0.6885 0.1564
C86_2 C 0.9687(4) 0.74652(19) 0.1657(3)
H60_2 H 0.9361 0.7532 0.1911
O6_2 O 0.9409(3) 0.43234(13) 0.38583(16)
O11_2 O 0.9924(3) 0.35654(13) 0.16868(16)
O12_2 O 0.9010(3) 0.40458(14) 0.13975(17)
O13_2 O 0.9650(2) 0.41695(10) 0.26442(13)
C1_2 C 0.9475(5) 0.3773(2) 0.1322(2)
C2_2 C 0.9549(4) 0.36527(19) 0.0749(3)
C3_2 C 0.9177(5) 0.3883(2) 0.0327(3)
H1_2 H 0.8841 0.4099 0.0393
C33_2 C 0.9879(4) 0.4627(2) 0.3957(3)
C34_2 C 0.9932(4) 0.48130(19) 0.4498(2)
C35_2 C 0.9531(5) 0.4670(2) 0.4869(3)
H25_2 H 0.9212 0.4436 0.4791
C36_2 C 0.9571(5) 0.4855(2) 0.5367(3)
H26_2 H 0.9260 0.4756 0.5614
O14_2 O 0.9715(3) 0.52331(13) 0.63672(17)
Zn6 Zn 0.96428(4) 0.53784(2) 0.70988(3)
O18_2 O 0.8569(3) 0.55046(16) 0.7149(2)
O19_2 O 0.8638(3) 0.61489(15) 0.7504(2)
C53_2 C 0.9889(5) 0.6765(2) 0.9874(3)
H35_2 H 0.9592 0.6993 0.9953
C54_2 C 0.9976(5) 0.6680(2) 0.9356(3)
H36_2 H 0.9722 0.6843 0.9071
C62_2 C 0.8285(4) 0.5833(3) 0.7344(3)
C63_2 C 0.7390(5) 0.5806(3) 0.7359(3)
C64_2 C 0.7041(5) 0.6139(3) 0.7543(4)
H41_2 H 0.7346 0.6374 0.7649
C65_2 C 0.6229(6) 0.6138(4) 0.7577(5)
C66_2 C 0.5800(5) 0.5789(3) 0.7404(4)
C67_2 C 0.6160(5) 0.5470(4) 0.7215(5)
C68_2 C 0.6937(5) 0.5473(3) 0.7184(4)
H42_2 H 0.7168 0.5245 0.7042
C69_2 C 0.5848(6) 0.6518(3) 0.7771(6)
H43_2 H 0.5440 0.6618 0.7487
H44_2 H 0.5615 0.6451 0.8085
H45_2 H 0.6247 0.6729 0.7864
C70_2 C 0.5657(6) 0.5088(4) 0.7009(7)
H46_2 H 0.5414 0.4976 0.7299
H47_2 H 0.5248 0.5167 0.6713
H48_2 H 0.5996 0.4882 0.6885
C71_2 C 0.4931(5) 0.5805(3) 0.7422(4)
C72_2 C 0.4644(5) 0.5667(3) 0.7864(4)
C73_2 C 0.3833(5) 0.5665(3) 0.7862(4)
H49_2 H 0.3636 0.5563 0.8163
C74_2 C 0.3305(4) 0.5812(2) 0.7420(3)
C75_2 C 0.2432(4) 0.5805(2) 0.7437(3)
C76_2 C 0.3611(5) 0.5953(3) 0.6973(4)
H50_2 H 0.3270 0.6054 0.6671
C77_2 C 0.4394(6) 0.5943(3) 0.6980(4)
C78_2 C 0.4720(6) 0.6105(5) 0.6459(5)
H51_2 H 0.5056 0.6342 0.6555
H52_2 H 0.5024 0.5890 0.6322
H53_2 H 0.4278 0.6182 0.6185
C79_2 C 0.5185(5) 0.5507(4) 0.8370(5)
H54_2 H 0.5492 0.5276 0.8274
H55_2 H 0.5539 0.5724 0.8524
H56_2 H 0.4863 0.5418 0.8632
O29 O 0.9910(3) 0.48943(12) 0.75339(18)
N1_2 N 0.9888(4) 0.34250(16) 0.9172(2)
C4_2 C 0.9286(5) 0.3804(2) 0.9818(3)
H2_2 H 0.9033 0.3969 0.9534
C5_2 C 0.9748(5) 0.3497(2) 0.9713(3)
C12_2 C 0.9774(5) 0.4159(2) 0.8052(3)
H7_2 H 0.9503 0.4186 0.7698
C13_2 C 0.9660(5) 0.3808(2) 0.8350(3)
H8_2 H 0.9310 0.3603 0.8195
C14_2 C 0.9890(5) 0.3019(2) 0.8954(3)
C37_2 C 0.9760(4) 0.1828(2) 0.8249(3)
C38_2 C 0.9812(4) 0.22462(19) 0.8496(3)
C39_2 C 0.9339(5) 0.2342(2) 0.8872(3)
H27_2 H 0.8998 0.2140 0.8973
C40_2 C 0.9354(5) 0.2721(2) 0.9103(3)
H28_2 H 0.9020 0.2785 0.9352
loop_
_geom_bond_atom_site_label_1
_geom_bond_atom_site_label_2
_geom_bond_site_symmetry_1
_geom_bond_site_symmetry_2
Zn14 O14 1_555 1_555
Zn8 O19 1_555 1_555
O18 Zn14 1_555 1_555
O19 C62 1_555 1_555
O20 C75 1_555 1_555
O21 C75 1_555 1_555
H35 C53 1_555 1_555
H36 C54 1_555 1_555
C56 C55 1_555 1_555
H37 C56 1_555 1_555
C57 C56 1_555 1_555
H38 C57 1_555 1_555
C58 C57 1_555 1_555
C62 O18 1_555 1_555
C63 C62 1_555 1_555
C64 C63 1_555 1_555
H41 C64 1_555 1_555
C65 C64 1_555 1_555
C66 C65 1_555 1_555
C67 C66 1_555 1_555
C68 C63 1_555 1_555
H42 C68 1_555 1_555
C69 C65 1_555 1_555
H43 C69 1_555 1_555
H44 C69 1_555 1_555
H45 C69 1_555 1_555
C70 C67 1_555 1_555
H47 C70 1_555 1_555
C71 C66 1_555 1_555
C72 C71 1_555 1_555
C73 C72 1_555 1_555
H49 C73 1_555 1_555
C74 C73 1_555 1_555
C75 C74 1_555 1_555
C76 C74 1_555 1_555
H50 C76 1_555 1_555
C77 C71 1_555 1_555
C78 C77 1_555 1_555
H51 C78 1_555 1_555
H52 C78 1_555 1_555
H53 C78 1_555 1_555
C79 C72 1_555 1_555
H54 C79 1_555 1_555
H55 C79 1_555 1_555
H56 C79 1_555 1_555
C84 C58 1_555 1_555
H59 C85 1_555 1_555
H60 C86 1_555 1_555
Zn12 O20 1_555 1_555
Zn17 O21 1_555 1_555
Zn19 O23 1_555 1_555
O37 Zn8 1_555 1_555
C53 C54 1_555 1_555
C67 C68 1_555 1_555
C76 C77 1_555 1_555
C85 C86 1_555 1_555
Zn1 O12 1_555 1_555
Zn3 O6 1_555 1_555
O6 C33 1_555 1_555
O9 C37 1_555 1_555
O12 C1 1_555 1_555
O13 Zn1 1_555 1_555
N1 C5 1_555 1_555
C1 O11 1_555 1_555
C2 C1 1_555 1_555
C3 C2 1_555 1_555
H1 C3 1_555 1_555
C4 C3 1_555 1_555
H2 C4 1_555 1_555
C5 C4 1_555 1_555
H7 C12 1_555 1_555
H8 C13 1_555 1_555
C14 N1 1_555 1_555
C34 C33 1_555 1_555
C35 C34 1_555 1_555
H25 C35 1_555 1_555
C37 C38 1_555 1_555
C38 C39 1_555 1_555
C39 H27 1_555 1_555
C40 C14 1_555 1_555
H28 C40 1_555 1_555
Zn18 O9 1_555 1_555
O28 Zn1 1_555 1_555
O31 Zn1 1_555 1_555
O33 Zn3 1_555 1_555
O36 Zn3 1_555 1_555
Zn3 O13 1_555 1_555
C12 C13 1_555 1_555
C39 C40 1_555 1_555
H26 C36 1_555 1_555
H32 C47 1_555 1_555
Zn12 O1 1_555 1_555
O15 C44 1_555 1_555
C44 C45 1_555 1_555
C46 C45 1_555 1_555
H31 C46 1_555 1_555
Zn12 O25 1_555 1_555
Zn17 O15 1_555 1_555
O22 C80 1_555 1_555
O25 C48 1_555 1_555
O26 Zn12 1_555 1_555
N2 C52 1_555 1_555
C48 O24 1_555 1_555
C49 C48 1_555 1_555
C50 C49 1_555 1_555
H33 C50 1_555 1_555
C51 C50 1_555 1_555
H34 C51 1_555 1_555
C52 C51 1_555 1_555
H39 C59 1_555 1_555
H40 C60 1_555 1_555
C61 N2 1_555 1_555
C80 C81 1_555 1_555
C81 C82 1_555 1_555
C82 H57 1_555 1_555
C83 C61 1_555 1_555
H58 C83 1_555 1_555
Zn16 O22 1_555 1_555
O35 Zn17 1_555 1_555
Zn17 O26 1_555 1_555
C59 C60 1_555 1_555
C82 C83 1_555 1_555
Zn2 O3 1_555 1_555
Zn4 O4 1_555 1_555
O3 C15 1_555 1_555
O4 C15 1_555 1_555
O5 Zn2 1_555 1_555
O31 C28 1_555 1_555
O33 C28 1_555 1_555
H3 C6 1_555 1_555
H4 C7 1_555 1_555
C9 C8 1_555 1_555
H5 C9 1_555 1_555
C10 C9 1_555 1_555
H6 C10 1_555 1_555
C11 C10 1_555 1_555
C15 C16 1_555 1_555
C16 C17 1_555 1_555
C17 H9 1_555 1_555
C18 C17 1_555 1_555
C19 C18 1_555 1_555
C20 C19 1_555 1_555
C21 C16 1_555 1_555
H10 C21 1_555 1_555
C22 C18 1_555 1_555
H11 C22 1_555 1_555
H12 C22 1_555 1_555
H13 C22 1_555 1_555
C23 C20 1_555 1_555
H15 C23 1_555 1_555
C24 C19 1_555 1_555
C25 C24 1_555 1_555
C26 C25 1_555 1_555
H17 C26 1_555 1_555
C27 C26 1_555 1_555
C28 C27 1_555 1_555
C29 C27 1_555 1_555
H18 C29 1_555 1_555
C30 C24 1_555 1_555
C31 C30 1_555 1_555
H19 C31 1_555 1_555
H20 C31 1_555 1_555
H21 C31 1_555 1_555
C32 C25 1_555 1_555
H22 C32 1_555 1_555
H23 C32 1_555 1_555
H24 C32 1_555 1_555
C41 C11 1_555 1_555
H29 C42 1_555 1_555
H30 C43 1_555 1_555
Zn20 O10 1_555 1_555
O38 Zn4 1_555 1_555
C6 C7 1_555 1_555
C20 C21 1_555 1_555
C29 C30 1_555 1_555
C42 C43 1_555 1_555
O36 C80_2 1_555 1_555
N2_2 C52_2 1_555 1_555
H34_2 C51_2 1_555 1_555
C52_2 C51_2 1_555 1_555
H39_2 C59_2 1_555 1_555
H40_2 C60_2 1_555 1_555
C61_2 N2_2 1_555 1_555
C80_2 C81_2 1_555 1_555
C81_2 C82_2 1_555 1_555
C82_2 H57_2 1_555 1_555
C83_2 C61_2 1_555 1_555
H58_2 C83_2 1_555 1_555
Zn13 O17 1_555 1_555
C59_2 C60_2 1_555 1_555
C82_2 C83_2 1_555 1_555
Zn13 O3_2 1_555 1_555
Zn19 O4_2 1_555 1_555
O3_2 C15_2 1_555 1_555
O4_2 C15_2 1_555 1_555
O5_2 Zn13 1_555 1_555
O7 C28_2 1_555 1_555
O8 C28_2 1_555 1_555
H3_2 C6_2 1_555 1_555
H4_2 C7_2 1_555 1_555
C15_2 C16_2 1_555 1_555
C16_2 C17_2 1_555 1_555
C17_2 H9_2 1_555 1_555
C18_2 C17_2 1_555 1_555
C19_2 C18_2 1_555 1_555
C20_2 C19_2 1_555 1_555
C21_2 C16_2 1_555 1_555
H10_2 C21_2 1_555 1_555
C22_2 C18_2 1_555 1_555
H11_2 C22_2 1_555 1_555
H12_2 C22_2 1_555 1_555
H13_2 C22_2 1_555 1_555
C23_2 C20_2 1_555 1_555
H14_2 C23_2 1_555 1_555
H15_2 C23_2 1_555 1_555
H16_2 C23_2 1_555 1_555
C24_2 C19_2 1_555 1_555
C25_2 C24_2 1_555 1_555
C26_2 C25_2 1_555 1_555
H17_2 C26_2 1_555 1_555
C27_2 C26_2 1_555 1_555
C28_2 C27_2 1_555 1_555
C29_2 C27_2 1_555 1_555
H18_2 C29_2 1_555 1_555
C30_2 C24_2 1_555 1_555
C31_2 C30_2 1_555 1_555
H19_2 C31_2 1_555 1_555
H20_2 C31_2 1_555 1_555
H21_2 C31_2 1_555 1_555
C32_2 C25_2 1_555 1_555
H22_2 C32_2 1_555 1_555
H23_2 C32_2 1_555 1_555
H24_2 C32_2 1_555 1_555
O15_2 C44_2 1_555 1_555
C44_2 C45_2 1_555 1_555
C46_2 C45_2 1_555 1_555
H31_2 C46_2 1_555 1_555
H32_2 C47_2 1_555 1_555
Zn5 O25_2 1_555 1_555
Zn18 O15_2 1_555 1_555
O25_2 C48_2 1_555 1_555
O26_2 Zn5 1_555 1_555
C48_2 O24_2 1_555 1_555
C49_2 C48_2 1_555 1_555
C50_2 C49_2 1_555 1_555
H33_2 C50_2 1_555 1_555
Zn9 O7 1_555 1_555
Zn16 O8 1_555 1_555
O27 Zn5 1_555 1_555
O32 Zn5 1_555 1_555
O34 Zn18 1_555 1_555
C6_2 C7_2 1_555 1_555
C20_2 C21_2 1_555 1_555
C29_2 C30_2 1_555 1_555
C46_2 C47_2 1_555 1_555
Zn18 O26_2 1_555 1_555
O27 C41_2 1_555 1_555
C9_2 C8_2 1_555 1_555
H5_2 C9_2 1_555 1_555
C10_2 C9_2 1_555 1_555
H6_2 C10_2 1_555 1_555
C11_2 C10_2 1_555 1_555
C41_2 C11_2 1_555 1_555
H29_2 C42_2 1_555 1_555
H30_2 C43_2 1_555 1_555
C42_2 C43_2 1_555 1_555
O16 C84_2 1_555 1_555
C56_2 C55_2 1_555 1_555
H37_2 C56_2 1_555 1_555
C57_2 C56_2 1_555 1_555
H38_2 C57_2 1_555 1_555
C58_2 C57_2 1_555 1_555
C84_2 C58_2 1_555 1_555
H59_2 C85_2 1_555 1_555
H60_2 C86_2 1_555 1_555
Zn9 O16 1_555 1_555
C85_2 C86_2 1_555 1_555
Zn9 O12_2 1_555 1_555
Zn16 O6_2 1_555 1_555
O6_2 C33_2 1_555 1_555
O12_2 C1_2 1_555 1_555
O13_2 Zn9 1_555 1_555
C1_2 O11_2 1_555 1_555
C2_2 C1_2 1_555 1_555
C3_2 C2_2 1_555 1_555
H1_2 C3_2 1_555 1_555
C34_2 C33_2 1_555 1_555
C35_2 C34_2 1_555 1_555
H25_2 C35_2 1_555 1_555
C36_2 C35_2 1_555 1_555
H26_2 C36_2 1_555 1_555
Zn6 O14_2 1_555 1_555
Zn20 O19_2 1_555 1_555
O18_2 Zn6 1_555 1_555
O19_2 C62_2 1_555 1_555
O32 C75_2 1_555 1_555
O34 C75_2 1_555 1_555
H35_2 C53_2 1_555 1_555
H36_2 C54_2 1_555 1_555
C62_2 O18_2 1_555 1_555
C63_2 C62_2 1_555 1_555
C64_2 C63_2 1_555 1_555
H41_2 C64_2 1_555 1_555
C65_2 C64_2 1_555 1_555
C66_2 C65_2 1_555 1_555
C67_2 C66_2 1_555 1_555
C68_2 C63_2 1_555 1_555
H42_2 C68_2 1_555 1_555
C69_2 C65_2 1_555 1_555
H43_2 C69_2 1_555 1_555
H44_2 C69_2 1_555 1_555
H45_2 C69_2 1_555 1_555
C70_2 C67_2 1_555 1_555
H46_2 C70_2 1_555 1_555
H47_2 C70_2 1_555 1_555
H48_2 C70_2 1_555 1_555
C71_2 C66_2 1_555 1_555
C72_2 C71_2 1_555 1_555
C73_2 C72_2 1_555 1_555
H49_2 C73_2 1_555 1_555
C74_2 C73_2 1_555 1_555
C75_2 C74_2 1_555 1_555
C76_2 C74_2 1_555 1_555
H50_2 C76_2 1_555 1_555
C77_2 C71_2 1_555 1_555
C78_2 C77_2 1_555 1_555
H51_2 C78_2 1_555 1_555
H52_2 C78_2 1_555 1_555
H53_2 C78_2 1_555 1_555
C79_2 C72_2 1_555 1_555
H54_2 C79_2 1_555 1_555
H55_2 C79_2 1_555 1_555
H56_2 C79_2 1_555 1_555
O29 Zn6 1_555 1_555
Zn16 O13_2 1_555 1_555
C53_2 C54_2 1_555 1_555
C67_2 C68_2 1_555 1_555
C76_2 C77_2 1_555 1_555
O35 C37_2 1_555 1_555
N1_2 C5_2 1_555 1_555
H2_2 C4_2 1_555 1_555
C5_2 C4_2 1_555 1_555
H7_2 C12_2 1_555 1_555
H8_2 C13_2 1_555 1_555
C14_2 N1_2 1_555 1_555
C37_2 C38_2 1_555 1_555
C38_2 C39_2 1_555 1_555
C39_2 H27_2 1_555 1_555
C40_2 C14_2 1_555 1_555
H28_2 C40_2 1_555 1_555
C12_2 C13_2 1_555 1_555
C39_2 C40_2 1_555 1_555

#END
