
###############################################################################
#
# This file contains modified crystal structure data generated from the
# MOF subset of the Cambridge Structural Database (CSD) v543 
# hosted by the Cambridge Crystallographic Data Centre (CCDC).
#
# This work is licensed under the Creative Commons
# Attribution-NonCommercial-ShareAlike 4.0 International License.
# To view a copy of this license, visit
# http://creativecommons.org/licenses/by-nc-sa/4.0/
# or send a letter to
# Creative Commons, PO Box 1866, Mountain View, CA 94042, USA.
#
# CIF created using the CSD Python API on 29 September 2022
# The structure has been converted into the P1 space group
# The structure has a 3D framework
# The original CSD entry KOPKAE is in the cubic crystal system
# The framework has been calculated to contain at least 10.0% void space
# The void calculation uses a probe of radius 1.32A, grid spacing 0.4
#
###############################################################################

data_KOPKAE
_chemical_formula_moiety         '(C1056 H672 N96 O243 Zr41)n'
_symmetry_cell_setting           triclinic
_symmetry_space_group_name_H-M   'P 1'
_symmetry_Int_Tables_number      1
_space_group_name_Hall           'P 1'
loop_
_symmetry_equiv_pos_site_id
_symmetry_equiv_pos_as_xyz
1 x,y,z
_cell_length_a                   38.4025(16)
_cell_length_b                   38.4025
_cell_length_c                   38.4025
_cell_angle_alpha                90
_cell_angle_beta                 90
_cell_angle_gamma                90
_cell_volume                     56634.2
loop_
_atom_site_label
_atom_site_type_symbol
_atom_site_fract_x
_atom_site_fract_y
_atom_site_fract_z
Zr1 Zr 0.18915(3) 0.1250 0.1250
O1 O 0.1561(3) 0.0939(3) 0.0939(3)
O2 O 0.1571(4) 0.1571(4) 0.0929(4)
O3 O 0.21746(16) 0.07518(17) 0.1238(2)
C1 C 0.2061(3) 0.0439(3) 0.1299(3)
C2 C 0.2337(5) 0.0163(5) 0.1254(11)
C3 C 0.2699(6) 0.0262(6) 0.1286(8)
H1 H 0.2769 0.0499 0.1304
H2 H 0.3175 0.0047 0.1254
O5 O 0.17482(17) 0.03254(16) 0.1238(2)
O7 O 0.1561(3) 0.1561(3) 0.1561(3)
O8 O 0.1571(4) 0.0929(4) 0.1571(4)
Zr2 Zr 0.1250 0.18915(3) 0.1250
Zr3 Zr 0.1250 0.1250 0.18915(3)
O9 O 0.17482(17) 0.1262(2) 0.21746(16)
C23 C 0.2061(3) 0.1201(3) 0.2061(3)
C24 C 0.2337(5) 0.1246(11) 0.2337(5)
C25 C 0.2238(6) 0.1214(8) 0.2699(6)
H15 H 0.2001 0.1196 0.2769
C26 C 0.2505(6) 0.1212(7) 0.2936(6)
H16 H 0.2453 0.1246 0.3175
C27 C 0.2841(5) 0.1164(11) 0.2841(5)
C28 C 0.3107(5) 0.1202(11) 0.3107(5)
H17 H 0.3191 0.1419 0.3191
N3 N 0.3207(4) 0.0930(9) 0.3207(4)
C29 C 0.3639(4) 0.0630(11) 0.3639(4)
H18 H 0.3551 0.0416 0.3551
C30 C 0.3525(5) 0.0916(12) 0.3525(5)
C31 C 0.36182(17) 0.1269(12) 0.36182(17)
H19 H 0.3519 0.1472 0.3519
O10 O 0.57518(17) 0.1262(2) 0.53254(16)
C32 C 0.5439(3) 0.1201(3) 0.5439(3)
C33 C 0.5163(5) 0.1246(11) 0.5163(5)
C34 C 0.5262(6) 0.1214(8) 0.4801(6)
H20 H 0.5499 0.1196 0.4731
C35 C 0.4995(6) 0.1212(7) 0.4564(6)
H21 H 0.5047 0.1246 0.4325
C36 C 0.4659(5) 0.1164(11) 0.4659(5)
C37 C 0.4393(5) 0.1202(11) 0.4393(5)
H22 H 0.4309 0.1419 0.4309
N4 N 0.4293(4) 0.0930(9) 0.4293(4)
C38 C 0.3861(4) 0.0630(11) 0.3861(4)
H23 H 0.3949 0.0416 0.3949
C39 C 0.3975(5) 0.0916(12) 0.3975(5)
C40 C 0.38818(17) 0.1269(12) 0.38818(17)
H24 H 0.3981 0.1472 0.3981
O11 O 0.21746(16) 0.1262(2) 0.17482(17)
C41 C 0.2699(6) 0.1214(8) 0.2238(6)
H25 H 0.2769 0.1196 0.2001
C42 C 0.2936(6) 0.1212(7) 0.2505(6)
H26 H 0.3175 0.1246 0.2453
O12 O 0.53254(16) 0.1262(2) 0.57518(17)
C43 C 0.4801(6) 0.1214(8) 0.5262(6)
H27 H 0.4731 0.1196 0.5499
C44 C 0.4564(6) 0.1212(7) 0.4995(6)
H28 H 0.4325 0.1246 0.5047
O13 O 0.1238(2) 0.03254(16) 0.17482(17)
C45 C 0.1299(3) 0.0439(3) 0.2061(3)
C46 C 0.1254(11) 0.0163(5) 0.2337(5)
O15 O 0.1238(2) 0.07518(17) 0.21746(16)
C63 C 0.1286(8) 0.0262(6) 0.2699(6)
H39 H 0.1304 0.0499 0.2769
H40 H 0.1254 0.0047 0.3175
Zr4 Zr 0.1250 0.06085(3) 0.1250
Zr5 Zr 0.1250 0.1250 0.06085(3)
Zr8 Zr 0.56085(3) 0.1250 0.6250
Zr9 Zr 0.6250 0.1250 0.56085(3)
O17 O 0.0939(3) 0.1561(3) 0.0939(3)
O18 O 0.0939(3) 0.0939(3) 0.1561(3)
O19 O 0.0929(4) 0.1571(4) 0.1571(4)
O20 O 0.21746(16) 0.17482(17) 0.1262(2)
O21 O 0.1238(2) 0.21746(16) 0.07518(17)
O22 O 0.07518(17) 0.1238(2) 0.21746(16)
O23 O 0.1262(2) 0.21746(16) 0.17482(17)
O24 O 0.07518(17) 0.21746(16) 0.1238(2)
O25 O 0.21746(16) 0.1238(2) 0.07518(17)
O26 O 0.17482(17) 0.21746(16) 0.1262(2)
O27 O 0.1262(2) 0.17482(17) 0.21746(16)
C4 C 0.2936(6) 0.9995(6) 0.1288(7)
C5 C 0.2841(5) 0.9659(5) 0.1336(11)
C6 C 0.3107(5) 0.9393(5) 0.1298(11)
H3 H 0.3191 0.9309 0.1081
N1 N 0.3207(4) 0.9293(4) 0.1570(9)
C7 C 0.3639(4) 0.8861(4) 0.1870(11)
H4 H 0.3551 0.8949 0.2084
C8 C 0.3525(5) 0.8975(5) 0.1584(12)
C9 C 0.36182(17) 0.88818(17) 0.1231(12)
H5 H 0.3519 0.8981 0.1028
O4 O 0.53254(16) 0.67482(17) 0.1238(2)
C10 C 0.5439(3) 0.7061(3) 0.1299(3)
C11 C 0.5163(5) 0.7337(5) 0.1254(11)
C12 C 0.4801(6) 0.7238(6) 0.1286(8)
H6 H 0.4731 0.7001 0.1304
C13 C 0.4564(6) 0.7505(6) 0.1288(7)
H7 H 0.4325 0.7453 0.1254
C14 C 0.4659(5) 0.7841(5) 0.1336(11)
C15 C 0.4393(5) 0.8107(5) 0.1298(11)
H8 H 0.4309 0.8191 0.1081
N2 N 0.4293(4) 0.8207(4) 0.1570(9)
C16 C 0.3861(4) 0.8639(4) 0.1870(11)
H9 H 0.3949 0.8551 0.2084
C17 C 0.3975(5) 0.8525(5) 0.1584(12)
C18 C 0.38818(17) 0.86182(17) 0.1231(12)
H10 H 0.3981 0.8519 0.1028
C19 C 0.2238(6) 0.9801(6) 0.1286(8)
H11 H 0.2001 0.9731 0.1304
C20 C 0.2505(6) 0.9564(6) 0.1288(7)
H12 H 0.2453 0.9325 0.1254
O6 O 0.57518(17) 0.71746(16) 0.1238(2)
C21 C 0.5262(6) 0.7699(6) 0.1286(8)
H13 H 0.5499 0.7769 0.1304
C22 C 0.4995(6) 0.7936(6) 0.1288(7)
H14 H 0.5047 0.8175 0.1254
C47 C 0.1286(8) 0.9801(6) 0.2238(6)
H29 H 0.1304 0.9731 0.2001
C48 C 0.1288(7) 0.9564(6) 0.2505(6)
H30 H 0.1254 0.9325 0.2453
C49 C 0.1336(11) 0.9659(5) 0.2841(5)
C50 C 0.1298(11) 0.9393(5) 0.3107(5)
H31 H 0.1081 0.9309 0.3191
N5 N 0.1570(9) 0.9293(4) 0.3207(4)
C51 C 0.1870(11) 0.8861(4) 0.3639(4)
H32 H 0.2084 0.8949 0.3551
C52 C 0.1584(12) 0.8975(5) 0.3525(5)
C53 C 0.1231(12) 0.88818(17) 0.36182(17)
H33 H 0.1028 0.8981 0.3519
O14 O 0.1238(2) 0.71746(16) 0.57518(17)
C54 C 0.1299(3) 0.7061(3) 0.5439(3)
C55 C 0.1254(11) 0.7337(5) 0.5163(5)
C56 C 0.1286(8) 0.7699(6) 0.5262(6)
H34 H 0.1304 0.7769 0.5499
C57 C 0.1288(7) 0.7936(6) 0.4995(6)
H35 H 0.1254 0.8175 0.5047
C58 C 0.1336(11) 0.7841(5) 0.4659(5)
C59 C 0.1298(11) 0.8107(5) 0.4393(5)
H36 H 0.1081 0.8191 0.4309
N6 N 0.1570(9) 0.8207(4) 0.4293(4)
C60 C 0.1870(11) 0.8639(4) 0.3861(4)
H37 H 0.2084 0.8551 0.3949
C61 C 0.1584(12) 0.8525(5) 0.3975(5)
C62 C 0.1231(12) 0.86182(17) 0.38818(17)
H38 H 0.1028 0.8519 0.3981
C64 C 0.1288(7) 0.9995(6) 0.2936(6)
O16 O 0.1238(2) 0.67482(17) 0.53254(16)
C65 C 0.1286(8) 0.7238(6) 0.4801(6)
H41 H 0.1304 0.7001 0.4731
C66 C 0.1288(7) 0.7505(6) 0.4564(6)
H42 H 0.1254 0.7453 0.4325
Zr6 Zr 0.1250 0.68915(3) 0.6250
Zr7 Zr 0.1250 0.6250 0.56085(3)
Zr10 Zr 0.56085(3) 0.6250 0.1250
Zr11 Zr 0.6250 0.68915(3) 0.1250
Zr1_2 Zr 0.06085(3) 0.1250 0.1250
O2_2 O 0.0929(4) 0.0929(4) 0.0929(4)
O3_2 O 0.03254(16) 0.17482(17) 0.1238(2)
C1_2 C 0.0439(3) 0.2061(3) 0.1299(3)
C2_2 C 0.0163(5) 0.2337(5) 0.1254(11)
C19_2 C 0.0262(6) 0.2699(6) 0.1286(8)
H11_2 H 0.0499 0.2769 0.1304
H12_2 H 0.0047 0.3175 0.1254
C23_2 C 0.0439(3) 0.1299(3) 0.2061(3)
C24_2 C 0.0163(5) 0.1254(11) 0.2337(5)
C25_2 C 0.0262(6) 0.1286(8) 0.2699(6)
H15_2 H 0.0499 0.1304 0.2769
H16_2 H 0.0047 0.1254 0.3175
O11_2 O 0.03254(16) 0.1238(2) 0.17482(17)
C45_2 C 0.1201(3) 0.2061(3) 0.2061(3)
C46_2 C 0.1246(11) 0.2337(5) 0.2337(5)
C47_2 C 0.1214(8) 0.2699(6) 0.2238(6)
H29_2 H 0.1196 0.2769 0.2001
C48_2 C 0.1212(7) 0.2936(6) 0.2505(6)
H30_2 H 0.1246 0.3175 0.2453
C49_2 C 0.1164(11) 0.2841(5) 0.2841(5)
C50_2 C 0.1202(11) 0.3107(5) 0.3107(5)
H31_2 H 0.1419 0.3191 0.3191
N5_2 N 0.0930(9) 0.3207(4) 0.3207(4)
C51_2 C 0.0630(11) 0.3639(4) 0.3639(4)
H32_2 H 0.0416 0.3551 0.3551
C52_2 C 0.0916(12) 0.3525(5) 0.3525(5)
C53_2 C 0.1269(12) 0.36182(17) 0.36182(17)
H33_2 H 0.1472 0.3519 0.3519
O14_2 O 0.1262(2) 0.53254(16) 0.57518(17)
C54_2 C 0.1201(3) 0.5439(3) 0.5439(3)
C55_2 C 0.1246(11) 0.5163(5) 0.5163(5)
C56_2 C 0.1214(8) 0.4801(6) 0.5262(6)
H34_2 H 0.1196 0.4731 0.5499
C57_2 C 0.1212(7) 0.4564(6) 0.4995(6)
H35_2 H 0.1246 0.4325 0.5047
C58_2 C 0.1164(11) 0.4659(5) 0.4659(5)
C59_2 C 0.1202(11) 0.4393(5) 0.4393(5)
H36_2 H 0.1419 0.4309 0.4309
N6_2 N 0.0930(9) 0.4293(4) 0.4293(4)
C60_2 C 0.0630(11) 0.3861(4) 0.3861(4)
H37_2 H 0.0416 0.3949 0.3949
C61_2 C 0.0916(12) 0.3975(5) 0.3975(5)
C62_2 C 0.1269(12) 0.38818(17) 0.38818(17)
H38_2 H 0.1472 0.3981 0.3981
C63_2 C 0.1214(8) 0.2238(6) 0.2699(6)
H39_2 H 0.1196 0.2001 0.2769
C64_2 C 0.1212(7) 0.2505(6) 0.2936(6)
H40_2 H 0.1246 0.2453 0.3175
O16_2 O 0.1262(2) 0.57518(17) 0.53254(16)
C65_2 C 0.1214(8) 0.5262(6) 0.4801(6)
H41_2 H 0.1196 0.5499 0.4731
C66_2 C 0.1212(7) 0.4995(6) 0.4564(6)
H42_2 H 0.1246 0.5047 0.4325
Zr6_2 Zr 0.1250 0.56085(3) 0.6250
O20_2 O 0.03254(16) 0.07518(17) 0.1262(2)
O21_2 O 0.1262(2) 0.03254(16) 0.07518(17)
O25_2 O 0.03254(16) 0.1262(2) 0.07518(17)
O26_2 O 0.07518(17) 0.03254(16) 0.1262(2)
C3_2 C 0.9801(6) 0.2238(6) 0.1286(8)
H1_2 H 0.9731 0.2001 0.1304
C4_2 C 0.9564(6) 0.2505(6) 0.1288(7)
H2_2 H 0.9325 0.2453 0.1254
C5_2 C 0.9659(5) 0.2841(5) 0.1336(11)
C6_2 C 0.9393(5) 0.3107(5) 0.1298(11)
H3_2 H 0.9309 0.3191 0.1081
N1_2 N 0.9293(4) 0.3207(4) 0.1570(9)
C7_2 C 0.8861(4) 0.3639(4) 0.1870(11)
H4_2 H 0.8949 0.3551 0.2084
C8_2 C 0.8975(5) 0.3525(5) 0.1584(12)
C9_2 C 0.88818(17) 0.36182(17) 0.1231(12)
H5_2 H 0.8981 0.3519 0.1028
O4_2 O 0.71746(16) 0.57518(17) 0.1238(2)
C10_2 C 0.7061(3) 0.5439(3) 0.1299(3)
C11_2 C 0.7337(5) 0.5163(5) 0.1254(11)
C12_2 C 0.7699(6) 0.5262(6) 0.1286(8)
H6_2 H 0.7769 0.5499 0.1304
C13_2 C 0.7936(6) 0.4995(6) 0.1288(7)
H7_2 H 0.8175 0.5047 0.1254
C14_2 C 0.7841(5) 0.4659(5) 0.1336(11)
C15_2 C 0.8107(5) 0.4393(5) 0.1298(11)
H8_2 H 0.8191 0.4309 0.1081
N2_2 N 0.8207(4) 0.4293(4) 0.1570(9)
C16_2 C 0.8639(4) 0.3861(4) 0.1870(11)
H9_2 H 0.8551 0.3949 0.2084
C17_2 C 0.8525(5) 0.3975(5) 0.1584(12)
C18_2 C 0.86182(17) 0.38818(17) 0.1231(12)
H10_2 H 0.8519 0.3981 0.1028
C20_2 C 0.9995(6) 0.2936(6) 0.1288(7)
O6_2 O 0.67482(17) 0.53254(16) 0.1238(2)
C21_2 C 0.7238(6) 0.4801(6) 0.1286(8)
H13_2 H 0.7001 0.4731 0.1304
C22_2 C 0.7505(6) 0.4564(6) 0.1288(7)
H14_2 H 0.7453 0.4325 0.1254
C26_2 C 0.9995(6) 0.1288(7) 0.2936(6)
C27_2 C 0.9659(5) 0.1336(11) 0.2841(5)
C28_2 C 0.9393(5) 0.1298(11) 0.3107(5)
H17_2 H 0.9309 0.1081 0.3191
N3_2 N 0.9293(4) 0.1570(9) 0.3207(4)
C29_2 C 0.8861(4) 0.1870(11) 0.3639(4)
H18_2 H 0.8949 0.2084 0.3551
C30_2 C 0.8975(5) 0.1584(12) 0.3525(5)
C31_2 C 0.88818(17) 0.1231(12) 0.36182(17)
H19_2 H 0.8981 0.1028 0.3519
O10_2 O 0.67482(17) 0.1238(2) 0.53254(16)
C32_2 C 0.7061(3) 0.1299(3) 0.5439(3)
C33_2 C 0.7337(5) 0.1254(11) 0.5163(5)
C34_2 C 0.7238(6) 0.1286(8) 0.4801(6)
H20_2 H 0.7001 0.1304 0.4731
C35_2 C 0.7505(6) 0.1288(7) 0.4564(6)
H21_2 H 0.7453 0.1254 0.4325
C36_2 C 0.7841(5) 0.1336(11) 0.4659(5)
C37_2 C 0.8107(5) 0.1298(11) 0.4393(5)
H22_2 H 0.8191 0.1081 0.4309
N4_2 N 0.8207(4) 0.1570(9) 0.4293(4)
C38_2 C 0.8639(4) 0.1870(11) 0.3861(4)
H23_2 H 0.8551 0.2084 0.3949
C39_2 C 0.8525(5) 0.1584(12) 0.3975(5)
C40_2 C 0.86182(17) 0.1231(12) 0.38818(17)
H24_2 H 0.8519 0.1028 0.3981
C41_2 C 0.9801(6) 0.1286(8) 0.2238(6)
H25_2 H 0.9731 0.1304 0.2001
C42_2 C 0.9564(6) 0.1288(7) 0.2505(6)
H26_2 H 0.9325 0.1254 0.2453
O12_2 O 0.71746(16) 0.1238(2) 0.57518(17)
C43_2 C 0.7699(6) 0.1286(8) 0.5262(6)
H27_2 H 0.7769 0.1304 0.5499
C44_2 C 0.7936(6) 0.1288(7) 0.4995(6)
H28_2 H 0.8175 0.1254 0.5047
Zr8_2 Zr 0.68915(3) 0.1250 0.6250
Zr10_2 Zr 0.68915(3) 0.6250 0.1250
Zr11_2 Zr 0.6250 0.56085(3) 0.1250
C1_3 C 0.2061(3) 0.2061(3) 0.1201(3)
C2_3 C 0.2337(5) 0.2337(5) 0.1246(11)
C3_3 C 0.2699(6) 0.2238(6) 0.1214(8)
H1_3 H 0.2769 0.2001 0.1196
C4_3 C 0.2936(6) 0.2505(6) 0.1212(7)
H2_3 H 0.3175 0.2453 0.1246
C5_3 C 0.2841(5) 0.2841(5) 0.1164(11)
C6_3 C 0.3107(5) 0.3107(5) 0.1202(11)
H3_3 H 0.3191 0.3191 0.1419
N1_3 N 0.3207(4) 0.3207(4) 0.0930(9)
C7_3 C 0.3639(4) 0.3639(4) 0.0630(11)
H4_3 H 0.3551 0.3551 0.0416
C8_3 C 0.3525(5) 0.3525(5) 0.0916(12)
C9_3 C 0.36182(17) 0.36182(17) 0.1269(12)
H5_3 H 0.3519 0.3519 0.1472
O4_3 O 0.53254(16) 0.57518(17) 0.1262(2)
C10_3 C 0.5439(3) 0.5439(3) 0.1201(3)
C11_3 C 0.5163(5) 0.5163(5) 0.1246(11)
C12_3 C 0.4801(6) 0.5262(6) 0.1214(8)
H6_3 H 0.4731 0.5499 0.1196
C13_3 C 0.4564(6) 0.4995(6) 0.1212(7)
H7_3 H 0.4325 0.5047 0.1246
C14_3 C 0.4659(5) 0.4659(5) 0.1164(11)
C15_3 C 0.4393(5) 0.4393(5) 0.1202(11)
H8_3 H 0.4309 0.4309 0.1419
N2_3 N 0.4293(4) 0.4293(4) 0.0930(9)
C16_3 C 0.3861(4) 0.3861(4) 0.0630(11)
H9_3 H 0.3949 0.3949 0.0416
C17_3 C 0.3975(5) 0.3975(5) 0.0916(12)
C18_3 C 0.38818(17) 0.38818(17) 0.1269(12)
H10_3 H 0.3981 0.3981 0.1472
C19_3 C 0.2238(6) 0.2699(6) 0.1214(8)
H11_3 H 0.2001 0.2769 0.1196
C20_3 C 0.2505(6) 0.2936(6) 0.1212(7)
H12_3 H 0.2453 0.3175 0.1246
O6_3 O 0.57518(17) 0.53254(16) 0.1262(2)
C21_3 C 0.5262(6) 0.4801(6) 0.1214(8)
H13_3 H 0.5499 0.4731 0.1196
C22_3 C 0.4995(6) 0.4564(6) 0.1212(7)
H14_3 H 0.5047 0.4325 0.1246
O9_2 O 0.17482(17) 0.1238(2) 0.03254(16)
C23_3 C 0.2061(3) 0.1299(3) 0.0439(3)
C24_3 C 0.2337(5) 0.1254(11) 0.0163(5)
C41_3 C 0.2699(6) 0.1286(8) 0.0262(6)
H25_3 H 0.2769 0.1304 0.0499
H26_3 H 0.3175 0.1254 0.0047
C45_3 C 0.1299(3) 0.2061(3) 0.0439(3)
C46_3 C 0.1254(11) 0.2337(5) 0.0163(5)
C47_3 C 0.1286(8) 0.2699(6) 0.0262(6)
H29_3 H 0.1304 0.2769 0.0499
H30_3 H 0.1254 0.3175 0.0047
O15_2 O 0.1238(2) 0.17482(17) 0.03254(16)
O22_2 O 0.07518(17) 0.1262(2) 0.03254(16)
O27_2 O 0.1262(2) 0.07518(17) 0.03254(16)
C25_3 C 0.2238(6) 0.1286(8) 0.9801(6)
H15_3 H 0.2001 0.1304 0.9731
C26_3 C 0.2505(6) 0.1288(7) 0.9564(6)
H16_3 H 0.2453 0.1254 0.9325
C27_3 C 0.2841(5) 0.1336(11) 0.9659(5)
C28_3 C 0.3107(5) 0.1298(11) 0.9393(5)
H17_3 H 0.3191 0.1081 0.9309
N3_3 N 0.3207(4) 0.1570(9) 0.9293(4)
C29_3 C 0.3639(4) 0.1870(11) 0.8861(4)
H18_3 H 0.3551 0.2084 0.8949
C30_3 C 0.3525(5) 0.1584(12) 0.8975(5)
C31_3 C 0.36182(17) 0.1231(12) 0.88818(17)
H19_3 H 0.3519 0.1028 0.8981
O10_3 O 0.57518(17) 0.1238(2) 0.71746(16)
C32_3 C 0.5439(3) 0.1299(3) 0.7061(3)
C33_3 C 0.5163(5) 0.1254(11) 0.7337(5)
C34_3 C 0.5262(6) 0.1286(8) 0.7699(6)
H20_3 H 0.5499 0.1304 0.7769
C35_3 C 0.4995(6) 0.1288(7) 0.7936(6)
H21_3 H 0.5047 0.1254 0.8175
C36_3 C 0.4659(5) 0.1336(11) 0.7841(5)
C37_3 C 0.4393(5) 0.1298(11) 0.8107(5)
H22_3 H 0.4309 0.1081 0.8191
N4_3 N 0.4293(4) 0.1570(9) 0.8207(4)
C38_3 C 0.3861(4) 0.1870(11) 0.8639(4)
H23_3 H 0.3949 0.2084 0.8551
C39_3 C 0.3975(5) 0.1584(12) 0.8525(5)
C40_3 C 0.38818(17) 0.1231(12) 0.86182(17)
H24_3 H 0.3981 0.1028 0.8519
C42_3 C 0.2936(6) 0.1288(7) 0.9995(6)
O12_3 O 0.53254(16) 0.1238(2) 0.67482(17)
C43_3 C 0.4801(6) 0.1286(8) 0.7238(6)
H27_3 H 0.4731 0.1304 0.7001
C44_3 C 0.4564(6) 0.1288(7) 0.7505(6)
H28_3 H 0.4325 0.1254 0.7453
C48_3 C 0.1288(7) 0.2936(6) 0.9995(6)
C49_3 C 0.1336(11) 0.2841(5) 0.9659(5)
C50_3 C 0.1298(11) 0.3107(5) 0.9393(5)
H31_3 H 0.1081 0.3191 0.9309
N5_3 N 0.1570(9) 0.3207(4) 0.9293(4)
C51_3 C 0.1870(11) 0.3639(4) 0.8861(4)
H32_3 H 0.2084 0.3551 0.8949
C52_3 C 0.1584(12) 0.3525(5) 0.8975(5)
C53_3 C 0.1231(12) 0.36182(17) 0.88818(17)
H33_3 H 0.1028 0.3519 0.8981
O14_3 O 0.1238(2) 0.53254(16) 0.67482(17)
C54_3 C 0.1299(3) 0.5439(3) 0.7061(3)
C55_3 C 0.1254(11) 0.5163(5) 0.7337(5)
C56_3 C 0.1286(8) 0.4801(6) 0.7238(6)
H34_3 H 0.1304 0.4731 0.7001
C57_3 C 0.1288(7) 0.4564(6) 0.7505(6)
H35_3 H 0.1254 0.4325 0.7453
C58_3 C 0.1336(11) 0.4659(5) 0.7841(5)
C59_3 C 0.1298(11) 0.4393(5) 0.8107(5)
H36_3 H 0.1081 0.4309 0.8191
N6_3 N 0.1570(9) 0.4293(4) 0.8207(4)
C60_3 C 0.1870(11) 0.3861(4) 0.8639(4)
H37_3 H 0.2084 0.3949 0.8551
C61_3 C 0.1584(12) 0.3975(5) 0.8525(5)
C62_3 C 0.1231(12) 0.38818(17) 0.86182(17)
H38_3 H 0.1028 0.3981 0.8519
C63_3 C 0.1286(8) 0.2238(6) 0.9801(6)
H39_3 H 0.1304 0.2001 0.9731
C64_3 C 0.1288(7) 0.2505(6) 0.9564(6)
H40_3 H 0.1254 0.2453 0.9325
O16_3 O 0.1238(2) 0.57518(17) 0.71746(16)
C65_3 C 0.1286(8) 0.5262(6) 0.7699(6)
H41_3 H 0.1304 0.5499 0.7769
C66_3 C 0.1288(7) 0.4995(6) 0.7936(6)
H42_3 H 0.1254 0.5047 0.8175
Zr7_2 Zr 0.1250 0.6250 0.68915(3)
Zr9_2 Zr 0.6250 0.1250 0.68915(3)
C1_4 C 0.0439(3) 0.0439(3) 0.1201(3)
C2_4 C 0.0163(5) 0.0163(5) 0.1246(11)
C23_4 C 0.0439(3) 0.1201(3) 0.0439(3)
C24_4 C 0.0163(5) 0.1246(11) 0.0163(5)
C45_4 C 0.1201(3) 0.0439(3) 0.0439(3)
C46_4 C 0.1246(11) 0.0163(5) 0.0163(5)
C48_4 C 0.1212(7) 0.9564(6) 0.9995(6)
C49_4 C 0.1164(11) 0.9659(5) 0.9659(5)
C50_4 C 0.1202(11) 0.9393(5) 0.9393(5)
H31_4 H 0.1419 0.9309 0.9309
N5_4 N 0.0930(9) 0.9293(4) 0.9293(4)
C51_4 C 0.0630(11) 0.8861(4) 0.8861(4)
H32_4 H 0.0416 0.8949 0.8949
C52_4 C 0.0916(12) 0.8975(5) 0.8975(5)
C53_4 C 0.1269(12) 0.88818(17) 0.88818(17)
H33_4 H 0.1472 0.8981 0.8981
O14_4 O 0.1262(2) 0.71746(16) 0.67482(17)
C54_4 C 0.1201(3) 0.7061(3) 0.7061(3)
C55_4 C 0.1246(11) 0.7337(5) 0.7337(5)
C56_4 C 0.1214(8) 0.7699(6) 0.7238(6)
H34_4 H 0.1196 0.7769 0.7001
C57_4 C 0.1212(7) 0.7936(6) 0.7505(6)
H35_4 H 0.1246 0.8175 0.7453
C58_4 C 0.1164(11) 0.7841(5) 0.7841(5)
C59_4 C 0.1202(11) 0.8107(5) 0.8107(5)
H36_4 H 0.1419 0.8191 0.8191
N6_4 N 0.0930(9) 0.8207(4) 0.8207(4)
C60_4 C 0.0630(11) 0.8639(4) 0.8639(4)
H37_4 H 0.0416 0.8551 0.8551
C61_4 C 0.0916(12) 0.8525(5) 0.8525(5)
C62_4 C 0.1269(12) 0.86182(17) 0.86182(17)
H38_4 H 0.1472 0.8519 0.8519
C64_4 C 0.1212(7) 0.9995(6) 0.9564(6)
O16_4 O 0.1262(2) 0.67482(17) 0.71746(16)
C65_4 C 0.1214(8) 0.7238(6) 0.7699(6)
H41_4 H 0.1196 0.7001 0.7769
C66_4 C 0.1212(7) 0.7505(6) 0.7936(6)
H42_4 H 0.1246 0.7453 0.8175
C26_4 C 0.9995(6) 0.1212(7) 0.9564(6)
C27_4 C 0.9659(5) 0.1164(11) 0.9659(5)
C28_4 C 0.9393(5) 0.1202(11) 0.9393(5)
H17_4 H 0.9309 0.1419 0.9309
N3_4 N 0.9293(4) 0.0930(9) 0.9293(4)
C29_4 C 0.8861(4) 0.0630(11) 0.8861(4)
H18_4 H 0.8949 0.0416 0.8949
C30_4 C 0.8975(5) 0.0916(12) 0.8975(5)
C31_4 C 0.88818(17) 0.1269(12) 0.88818(17)
H19_4 H 0.8981 0.1472 0.8981
O10_4 O 0.67482(17) 0.1262(2) 0.71746(16)
C32_4 C 0.7061(3) 0.1201(3) 0.7061(3)
C33_4 C 0.7337(5) 0.1246(11) 0.7337(5)
C34_4 C 0.7238(6) 0.1214(8) 0.7699(6)
H20_4 H 0.7001 0.1196 0.7769
C35_4 C 0.7505(6) 0.1212(7) 0.7936(6)
H21_4 H 0.7453 0.1246 0.8175
C36_4 C 0.7841(5) 0.1164(11) 0.7841(5)
C37_4 C 0.8107(5) 0.1202(11) 0.8107(5)
H22_4 H 0.8191 0.1419 0.8191
N4_4 N 0.8207(4) 0.0930(9) 0.8207(4)
C38_4 C 0.8639(4) 0.0630(11) 0.8639(4)
H23_4 H 0.8551 0.0416 0.8551
C39_4 C 0.8525(5) 0.0916(12) 0.8525(5)
C40_4 C 0.86182(17) 0.1269(12) 0.86182(17)
H24_4 H 0.8519 0.1472 0.8519
C42_4 C 0.9564(6) 0.1212(7) 0.9995(6)
O12_4 O 0.71746(16) 0.1262(2) 0.67482(17)
C43_4 C 0.7699(6) 0.1214(8) 0.7238(6)
H27_4 H 0.7769 0.1196 0.7001
C44_4 C 0.7936(6) 0.1212(7) 0.7505(6)
H28_4 H 0.8175 0.1246 0.7453
C4_4 C 0.9564(6) 0.9995(6) 0.1212(7)
C5_4 C 0.9659(5) 0.9659(5) 0.1164(11)
C6_4 C 0.9393(5) 0.9393(5) 0.1202(11)
H3_4 H 0.9309 0.9309 0.1419
N1_4 N 0.9293(4) 0.9293(4) 0.0930(9)
C7_4 C 0.8861(4) 0.8861(4) 0.0630(11)
H4_4 H 0.8949 0.8949 0.0416
C8_4 C 0.8975(5) 0.8975(5) 0.0916(12)
C9_4 C 0.88818(17) 0.88818(17) 0.1269(12)
H5_4 H 0.8981 0.8981 0.1472
O4_4 O 0.71746(16) 0.67482(17) 0.1262(2)
C10_4 C 0.7061(3) 0.7061(3) 0.1201(3)
C11_4 C 0.7337(5) 0.7337(5) 0.1246(11)
C12_4 C 0.7699(6) 0.7238(6) 0.1214(8)
H6_4 H 0.7769 0.7001 0.1196
C13_4 C 0.7936(6) 0.7505(6) 0.1212(7)
H7_4 H 0.8175 0.7453 0.1246
C14_4 C 0.7841(5) 0.7841(5) 0.1164(11)
C15_4 C 0.8107(5) 0.8107(5) 0.1202(11)
H8_4 H 0.8191 0.8191 0.1419
N2_4 N 0.8207(4) 0.8207(4) 0.0930(9)
C16_4 C 0.8639(4) 0.8639(4) 0.0630(11)
H9_4 H 0.8551 0.8551 0.0416
C17_4 C 0.8525(5) 0.8525(5) 0.0916(12)
C18_4 C 0.86182(17) 0.86182(17) 0.1269(12)
H10_4 H 0.8519 0.8519 0.1472
C20_4 C 0.9995(6) 0.9564(6) 0.1212(7)
O6_4 O 0.67482(17) 0.71746(16) 0.1262(2)
C21_4 C 0.7238(6) 0.7699(6) 0.1214(8)
H13_4 H 0.7001 0.7769 0.1196
C22_4 C 0.7505(6) 0.7936(6) 0.1212(7)
H14_4 H 0.7453 0.8175 0.1246
O10_5 O 0.57518(17) 0.6262(2) 0.03254(16)
C32_5 C 0.5439(3) 0.6201(3) 0.0439(3)
C33_5 C 0.5163(5) 0.6246(11) 0.0163(5)
O12_5 O 0.53254(16) 0.6262(2) 0.07518(17)
C43_5 C 0.4801(6) 0.6214(8) 0.0262(6)
H27_5 H 0.4731 0.6196 0.0499
H28_5 H 0.4325 0.6246 0.0047
Zr9_3 Zr 0.6250 0.6250 0.06085(3)
Zr1_3 Zr 0.18915(3) 0.6250 0.6250
O1_2 O 0.1561(3) 0.5939(3) 0.5939(3)
O2_3 O 0.1571(4) 0.6571(4) 0.5929(4)
O3_3 O 0.21746(16) 0.57518(17) 0.6238(2)
C1_5 C 0.2061(3) 0.5439(3) 0.6299(3)
C2_5 C 0.2337(5) 0.5163(5) 0.6254(11)
C3_4 C 0.2699(6) 0.5262(6) 0.6286(8)
H1_4 H 0.2769 0.5499 0.6304
C4_5 C 0.2936(6) 0.4995(6) 0.6288(7)
H2_4 H 0.3175 0.5047 0.6254
C5_5 C 0.2841(5) 0.4659(5) 0.6336(11)
C6_5 C 0.3107(5) 0.4393(5) 0.6298(11)
H3_5 H 0.3191 0.4309 0.6081
N1_5 N 0.3207(4) 0.4293(4) 0.6570(9)
C7_5 C 0.3639(4) 0.3861(4) 0.6870(11)
H4_5 H 0.3551 0.3949 0.7084
C8_5 C 0.3525(5) 0.3975(5) 0.6584(12)
C9_5 C 0.36182(17) 0.38818(17) 0.6231(12)
H5_5 H 0.3519 0.3981 0.6028
O4_5 O 0.53254(16) 0.17482(17) 0.6238(2)
C10_5 C 0.5439(3) 0.2061(3) 0.6299(3)
C11_5 C 0.5163(5) 0.2337(5) 0.6254(11)
C12_5 C 0.4801(6) 0.2238(6) 0.6286(8)
H6_5 H 0.4731 0.2001 0.6304
C13_5 C 0.4564(6) 0.2505(6) 0.6288(7)
H7_5 H 0.4325 0.2453 0.6254
C14_5 C 0.4659(5) 0.2841(5) 0.6336(11)
C15_5 C 0.4393(5) 0.3107(5) 0.6298(11)
H8_5 H 0.4309 0.3191 0.6081
N2_5 N 0.4293(4) 0.3207(4) 0.6570(9)
C16_5 C 0.3861(4) 0.3639(4) 0.6870(11)
H9_5 H 0.3949 0.3551 0.7084
C17_5 C 0.3975(5) 0.3525(5) 0.6584(12)
C18_5 C 0.38818(17) 0.36182(17) 0.6231(12)
H10_5 H 0.3981 0.3519 0.6028
O5_2 O 0.17482(17) 0.53254(16) 0.6238(2)
C19_4 C 0.2238(6) 0.4801(6) 0.6286(8)
H11_4 H 0.2001 0.4731 0.6304
C20_5 C 0.2505(6) 0.4564(6) 0.6288(7)
H12_4 H 0.2453 0.4325 0.6254
O6_5 O 0.57518(17) 0.21746(16) 0.6238(2)
C21_5 C 0.5262(6) 0.2699(6) 0.6286(8)
H13_5 H 0.5499 0.2769 0.6304
C22_5 C 0.4995(6) 0.2936(6) 0.6288(7)
H14_5 H 0.5047 0.3175 0.6254
O7_2 O 0.1561(3) 0.6561(3) 0.6561(3)
O8_2 O 0.1571(4) 0.5929(4) 0.6571(4)
O9_3 O 0.17482(17) 0.6262(2) 0.71746(16)
C23_5 C 0.2061(3) 0.6201(3) 0.7061(3)
C24_5 C 0.2337(5) 0.6246(11) 0.7337(5)
C25_4 C 0.2238(6) 0.6214(8) 0.7699(6)
H15_4 H 0.2001 0.6196 0.7769
C26_5 C 0.2505(6) 0.6212(7) 0.7936(6)
H16_4 H 0.2453 0.6246 0.8175
C27_5 C 0.2841(5) 0.6164(11) 0.7841(5)
C28_5 C 0.3107(5) 0.6202(11) 0.8107(5)
H17_5 H 0.3191 0.6419 0.8191
N3_5 N 0.3207(4) 0.5930(9) 0.8207(4)
C29_5 C 0.3639(4) 0.5630(11) 0.8639(4)
H18_5 H 0.3551 0.5416 0.8551
C30_5 C 0.3525(5) 0.5916(12) 0.8525(5)
C31_5 C 0.36182(17) 0.6269(12) 0.86182(17)
H19_5 H 0.3519 0.6472 0.8519
C34_5 C 0.5262(6) 0.6214(8) 0.9801(6)
H20_5 H 0.5499 0.6196 0.9731
C35_5 C 0.4995(6) 0.6212(7) 0.9564(6)
H21_5 H 0.5047 0.6246 0.9325
C36_5 C 0.4659(5) 0.6164(11) 0.9659(5)
C37_5 C 0.4393(5) 0.6202(11) 0.9393(5)
H22_5 H 0.4309 0.6419 0.9309
N4_5 N 0.4293(4) 0.5930(9) 0.9293(4)
C38_5 C 0.3861(4) 0.5630(11) 0.8861(4)
H23_5 H 0.3949 0.5416 0.8949
C39_5 C 0.3975(5) 0.5916(12) 0.8975(5)
C40_5 C 0.38818(17) 0.6269(12) 0.88818(17)
H24_5 H 0.3981 0.6472 0.8981
O11_3 O 0.21746(16) 0.6262(2) 0.67482(17)
C41_4 C 0.2699(6) 0.6214(8) 0.7238(6)
H25_4 H 0.2769 0.6196 0.7001
C42_5 C 0.2936(6) 0.6212(7) 0.7505(6)
H26_4 H 0.3175 0.6246 0.7453
C44_5 C 0.4564(6) 0.6212(7) 0.9995(6)
Zr11_3 Zr 0.6250 0.18915(3) 0.6250
O17_2 O 0.0939(3) 0.6561(3) 0.5939(3)
O18_2 O 0.0939(3) 0.5939(3) 0.6561(3)
O19_2 O 0.0929(4) 0.6571(4) 0.6571(4)
O20_3 O 0.21746(16) 0.67482(17) 0.6262(2)
O22_3 O 0.07518(17) 0.6238(2) 0.71746(16)
O24_2 O 0.07518(17) 0.71746(16) 0.6238(2)
O25_3 O 0.21746(16) 0.6238(2) 0.57518(17)
O26_3 O 0.17482(17) 0.71746(16) 0.6262(2)
Zr1_4 Zr 0.06085(3) 0.6250 0.6250
O2_4 O 0.0929(4) 0.5929(4) 0.5929(4)
O3_4 O 0.03254(16) 0.67482(17) 0.6238(2)
C1_6 C 0.0439(3) 0.7061(3) 0.6299(3)
C2_6 C 0.0163(5) 0.7337(5) 0.6254(11)
C19_5 C 0.0262(6) 0.7699(6) 0.6286(8)
H11_5 H 0.0499 0.7769 0.6304
H12_5 H 0.0047 0.8175 0.6254
C23_6 C 0.0439(3) 0.6299(3) 0.7061(3)
C24_6 C 0.0163(5) 0.6254(11) 0.7337(5)
C25_5 C 0.0262(6) 0.6286(8) 0.7699(6)
H15_5 H 0.0499 0.6304 0.7769
H16_5 H 0.0047 0.6254 0.8175
O11_4 O 0.03254(16) 0.6238(2) 0.67482(17)
O20_4 O 0.03254(16) 0.57518(17) 0.6262(2)
O25_4 O 0.03254(16) 0.6262(2) 0.57518(17)
O26_4 O 0.07518(17) 0.53254(16) 0.6262(2)
O4_6 O 0.71746(16) 0.07518(17) 0.6238(2)
C10_6 C 0.7061(3) 0.0439(3) 0.6299(3)
C11_6 C 0.7337(5) 0.0163(5) 0.6254(11)
C12_6 C 0.7699(6) 0.0262(6) 0.6286(8)
H6_6 H 0.7769 0.0499 0.6304
H7_6 H 0.8175 0.0047 0.6254
O6_6 O 0.67482(17) 0.03254(16) 0.6238(2)
Zr11_4 Zr 0.6250 0.06085(3) 0.6250
O10_6 O 0.67482(17) 0.6238(2) 0.03254(16)
C32_6 C 0.7061(3) 0.6299(3) 0.0439(3)
C33_6 C 0.7337(5) 0.6254(11) 0.0163(5)
O12_6 O 0.71746(16) 0.6238(2) 0.07518(17)
C43_6 C 0.7699(6) 0.6286(8) 0.0262(6)
H27_6 H 0.7769 0.6304 0.0499
H28_6 H 0.8175 0.6254 0.0047
O4_7 O 0.53254(16) 0.07518(17) 0.6262(2)
C10_7 C 0.5439(3) 0.0439(3) 0.6201(3)
C11_7 C 0.5163(5) 0.0163(5) 0.6246(11)
C12_7 C 0.4801(6) 0.0262(6) 0.6214(8)
H6_7 H 0.4731 0.0499 0.6196
H7_7 H 0.4325 0.0047 0.6246
O6_7 O 0.57518(17) 0.03254(16) 0.6262(2)
C1_7 C 0.2061(3) 0.7061(3) 0.6201(3)
C2_7 C 0.2337(5) 0.7337(5) 0.6246(11)
C3_5 C 0.2699(6) 0.7238(6) 0.6214(8)
H1_5 H 0.2769 0.7001 0.6196
C4_6 C 0.2936(6) 0.7505(6) 0.6212(7)
H2_5 H 0.3175 0.7453 0.6246
C5_6 C 0.2841(5) 0.7841(5) 0.6164(11)
C6_6 C 0.3107(5) 0.8107(5) 0.6202(11)
H3_6 H 0.3191 0.8191 0.6419
N1_6 N 0.3207(4) 0.8207(4) 0.5930(9)
C7_6 C 0.3639(4) 0.8639(4) 0.5630(11)
H4_6 H 0.3551 0.8551 0.5416
C8_6 C 0.3525(5) 0.8525(5) 0.5916(12)
C9_6 C 0.36182(17) 0.86182(17) 0.6269(12)
H5_6 H 0.3519 0.8519 0.6472
C13_6 C 0.4564(6) 0.9995(6) 0.6212(7)
C14_6 C 0.4659(5) 0.9659(5) 0.6164(11)
C15_6 C 0.4393(5) 0.9393(5) 0.6202(11)
H8_6 H 0.4309 0.9309 0.6419
N2_6 N 0.4293(4) 0.9293(4) 0.5930(9)
C16_6 C 0.3861(4) 0.8861(4) 0.5630(11)
H9_6 H 0.3949 0.8949 0.5416
C17_6 C 0.3975(5) 0.8975(5) 0.5916(12)
C18_6 C 0.38818(17) 0.88818(17) 0.6269(12)
H10_6 H 0.3981 0.8981 0.6472
C19_6 C 0.2238(6) 0.7699(6) 0.6214(8)
H11_6 H 0.2001 0.7769 0.6196
C20_6 C 0.2505(6) 0.7936(6) 0.6212(7)
H12_6 H 0.2453 0.8175 0.6246
C21_6 C 0.5262(6) 0.9801(6) 0.6214(8)
H13_6 H 0.5499 0.9731 0.6196
C22_6 C 0.4995(6) 0.9564(6) 0.6212(7)
H14_6 H 0.5047 0.9325 0.6246
O9_4 O 0.17482(17) 0.6238(2) 0.53254(16)
C23_7 C 0.2061(3) 0.6299(3) 0.5439(3)
C24_7 C 0.2337(5) 0.6254(11) 0.5163(5)
C25_6 C 0.2238(6) 0.6286(8) 0.4801(6)
H15_6 H 0.2001 0.6304 0.4731
C26_6 C 0.2505(6) 0.6288(7) 0.4564(6)
H16_6 H 0.2453 0.6254 0.4325
C27_6 C 0.2841(5) 0.6336(11) 0.4659(5)
C28_6 C 0.3107(5) 0.6298(11) 0.4393(5)
H17_6 H 0.3191 0.6081 0.4309
N3_6 N 0.3207(4) 0.6570(9) 0.4293(4)
C29_6 C 0.3639(4) 0.6870(11) 0.3861(4)
H18_6 H 0.3551 0.7084 0.3949
C30_6 C 0.3525(5) 0.6584(12) 0.3975(5)
C31_6 C 0.36182(17) 0.6231(12) 0.38818(17)
H19_6 H 0.3519 0.6028 0.3981
O10_7 O 0.57518(17) 0.6238(2) 0.21746(16)
C32_7 C 0.5439(3) 0.6299(3) 0.2061(3)
C33_7 C 0.5163(5) 0.6254(11) 0.2337(5)
C34_6 C 0.5262(6) 0.6286(8) 0.2699(6)
H20_6 H 0.5499 0.6304 0.2769
C35_6 C 0.4995(6) 0.6288(7) 0.2936(6)
H21_6 H 0.5047 0.6254 0.3175
C36_6 C 0.4659(5) 0.6336(11) 0.2841(5)
C37_6 C 0.4393(5) 0.6298(11) 0.3107(5)
H22_6 H 0.4309 0.6081 0.3191
N4_6 N 0.4293(4) 0.6570(9) 0.3207(4)
C38_6 C 0.3861(4) 0.6870(11) 0.3639(4)
H23_6 H 0.3949 0.7084 0.3551
C39_6 C 0.3975(5) 0.6584(12) 0.3525(5)
C40_6 C 0.38818(17) 0.6231(12) 0.36182(17)
H24_6 H 0.3981 0.6028 0.3519
C41_5 C 0.2699(6) 0.6286(8) 0.5262(6)
H25_5 H 0.2769 0.6304 0.5499
C42_6 C 0.2936(6) 0.6288(7) 0.4995(6)
H26_5 H 0.3175 0.6254 0.5047
O12_7 O 0.53254(16) 0.6238(2) 0.17482(17)
C43_7 C 0.4801(6) 0.6286(8) 0.2238(6)
H27_7 H 0.4731 0.6304 0.2001
C44_6 C 0.4564(6) 0.6288(7) 0.2505(6)
H28_7 H 0.4325 0.6254 0.2453
Zr9_4 Zr 0.6250 0.6250 0.18915(3)
O22_4 O 0.07518(17) 0.6262(2) 0.53254(16)
C1_8 C 0.0439(3) 0.5439(3) 0.6201(3)
C2_8 C 0.0163(5) 0.5163(5) 0.6246(11)
C19_7 C 0.0262(6) 0.4801(6) 0.6214(8)
H11_7 H 0.0499 0.4731 0.6196
H12_7 H 0.0047 0.4325 0.6246
C23_8 C 0.0439(3) 0.6201(3) 0.5439(3)
C24_8 C 0.0163(5) 0.6246(11) 0.5163(5)
C25_7 C 0.0262(6) 0.6214(8) 0.4801(6)
H15_7 H 0.0499 0.6196 0.4731
H16_7 H 0.0047 0.6246 0.4325
C3_6 C 0.9801(6) 0.5262(6) 0.6214(8)
H1_6 H 0.9731 0.5499 0.6196
C4_7 C 0.9564(6) 0.4995(6) 0.6212(7)
H2_6 H 0.9325 0.5047 0.6246
C5_7 C 0.9659(5) 0.4659(5) 0.6164(11)
C6_7 C 0.9393(5) 0.4393(5) 0.6202(11)
H3_7 H 0.9309 0.4309 0.6419
N1_7 N 0.9293(4) 0.4293(4) 0.5930(9)
C7_7 C 0.8861(4) 0.3861(4) 0.5630(11)
H4_7 H 0.8949 0.3949 0.5416
C8_7 C 0.8975(5) 0.3975(5) 0.5916(12)
C9_7 C 0.88818(17) 0.38818(17) 0.6269(12)
H5_7 H 0.8981 0.3981 0.6472
O4_8 O 0.71746(16) 0.17482(17) 0.6262(2)
C10_8 C 0.7061(3) 0.2061(3) 0.6201(3)
C11_8 C 0.7337(5) 0.2337(5) 0.6246(11)
C12_8 C 0.7699(6) 0.2238(6) 0.6214(8)
H6_8 H 0.7769 0.2001 0.6196
C13_7 C 0.7936(6) 0.2505(6) 0.6212(7)
H7_8 H 0.8175 0.2453 0.6246
C14_7 C 0.7841(5) 0.2841(5) 0.6164(11)
C15_7 C 0.8107(5) 0.3107(5) 0.6202(11)
H8_7 H 0.8191 0.3191 0.6419
N2_7 N 0.8207(4) 0.3207(4) 0.5930(9)
C16_7 C 0.8639(4) 0.3639(4) 0.5630(11)
H9_7 H 0.8551 0.3551 0.5416
C17_7 C 0.8525(5) 0.3525(5) 0.5916(12)
C18_7 C 0.86182(17) 0.36182(17) 0.6269(12)
H10_7 H 0.8519 0.3519 0.6472
C20_7 C 0.9995(6) 0.4564(6) 0.6212(7)
O6_8 O 0.67482(17) 0.21746(16) 0.6262(2)
C21_7 C 0.7238(6) 0.2699(6) 0.6214(8)
H13_7 H 0.7001 0.2769 0.6196
C22_7 C 0.7505(6) 0.2936(6) 0.6212(7)
H14_7 H 0.7453 0.3175 0.6246
C26_7 C 0.9995(6) 0.6212(7) 0.4564(6)
C27_7 C 0.9659(5) 0.6164(11) 0.4659(5)
C28_7 C 0.9393(5) 0.6202(11) 0.4393(5)
H17_7 H 0.9309 0.6419 0.4309
N3_7 N 0.9293(4) 0.5930(9) 0.4293(4)
C29_7 C 0.8861(4) 0.5630(11) 0.3861(4)
H18_7 H 0.8949 0.5416 0.3949
C30_7 C 0.8975(5) 0.5916(12) 0.3975(5)
C31_7 C 0.88818(17) 0.6269(12) 0.38818(17)
H19_7 H 0.8981 0.6472 0.3981
O10_8 O 0.67482(17) 0.6262(2) 0.21746(16)
C32_8 C 0.7061(3) 0.6201(3) 0.2061(3)
C33_8 C 0.7337(5) 0.6246(11) 0.2337(5)
C34_7 C 0.7238(6) 0.6214(8) 0.2699(6)
H20_7 H 0.7001 0.6196 0.2769
C35_7 C 0.7505(6) 0.6212(7) 0.2936(6)
H21_7 H 0.7453 0.6246 0.3175
C36_7 C 0.7841(5) 0.6164(11) 0.2841(5)
C37_7 C 0.8107(5) 0.6202(11) 0.3107(5)
H22_7 H 0.8191 0.6419 0.3191
N4_7 N 0.8207(4) 0.5930(9) 0.3207(4)
C38_7 C 0.8639(4) 0.5630(11) 0.3639(4)
H23_7 H 0.8551 0.5416 0.3551
C39_7 C 0.8525(5) 0.5916(12) 0.3525(5)
C40_7 C 0.86182(17) 0.6269(12) 0.36182(17)
H24_7 H 0.8519 0.6472 0.3519
C41_6 C 0.9801(6) 0.6214(8) 0.5262(6)
H25_6 H 0.9731 0.6196 0.5499
C42_7 C 0.9564(6) 0.6212(7) 0.4995(6)
H26_6 H 0.9325 0.6246 0.5047
O12_8 O 0.71746(16) 0.6262(2) 0.17482(17)
C43_8 C 0.7699(6) 0.6214(8) 0.2238(6)
H27_8 H 0.7769 0.6196 0.2001
C44_7 C 0.7936(6) 0.6212(7) 0.2505(6)
H28_8 H 0.8175 0.6246 0.2453
O1_3 O 0.6561(3) 0.0939(3) 0.5939(3)
O2_5 O 0.6571(4) 0.1571(4) 0.5929(4)
O7_3 O 0.6561(3) 0.1561(3) 0.6561(3)
O8_3 O 0.6571(4) 0.0929(4) 0.6571(4)
O13_2 O 0.6238(2) 0.03254(16) 0.67482(17)
C45_5 C 0.6299(3) 0.0439(3) 0.7061(3)
C46_5 C 0.6254(11) 0.0163(5) 0.7337(5)
O15_3 O 0.6238(2) 0.07518(17) 0.71746(16)
C63_4 C 0.6286(8) 0.0262(6) 0.7699(6)
H39_4 H 0.6304 0.0499 0.7769
H40_4 H 0.6254 0.0047 0.8175
O17_3 O 0.5939(3) 0.1561(3) 0.5939(3)
O18_3 O 0.5939(3) 0.0939(3) 0.6561(3)
O19_3 O 0.5929(4) 0.1571(4) 0.6571(4)
O21_3 O 0.6238(2) 0.21746(16) 0.57518(17)
O23_2 O 0.6262(2) 0.21746(16) 0.67482(17)
O27_3 O 0.6262(2) 0.17482(17) 0.71746(16)
O14_5 O 0.6238(2) 0.71746(16) 0.07518(17)
C54_5 C 0.6299(3) 0.7061(3) 0.0439(3)
C55_5 C 0.6254(11) 0.7337(5) 0.0163(5)
C56_5 C 0.6286(8) 0.7699(6) 0.0262(6)
H34_5 H 0.6304 0.7769 0.0499
H35_5 H 0.6254 0.8175 0.0047
O16_5 O 0.6238(2) 0.67482(17) 0.03254(16)
O14_6 O 0.6262(2) 0.53254(16) 0.07518(17)
C54_6 C 0.6201(3) 0.5439(3) 0.0439(3)
C55_6 C 0.6246(11) 0.5163(5) 0.0163(5)
C56_6 C 0.6214(8) 0.4801(6) 0.0262(6)
H34_6 H 0.6196 0.4731 0.0499
H35_6 H 0.6246 0.4325 0.0047
O16_6 O 0.6262(2) 0.57518(17) 0.03254(16)
O2_6 O 0.5929(4) 0.0929(4) 0.5929(4)
C45_6 C 0.6201(3) 0.2061(3) 0.7061(3)
C46_6 C 0.6246(11) 0.2337(5) 0.7337(5)
C47_4 C 0.6214(8) 0.2699(6) 0.7238(6)
H29_4 H 0.6196 0.2769 0.7001
C48_5 C 0.6212(7) 0.2936(6) 0.7505(6)
H30_4 H 0.6246 0.3175 0.7453
C49_5 C 0.6164(11) 0.2841(5) 0.7841(5)
C50_5 C 0.6202(11) 0.3107(5) 0.8107(5)
H31_5 H 0.6419 0.3191 0.8191
N5_5 N 0.5930(9) 0.3207(4) 0.8207(4)
C51_5 C 0.5630(11) 0.3639(4) 0.8639(4)
H32_5 H 0.5416 0.3551 0.8551
C52_5 C 0.5916(12) 0.3525(5) 0.8525(5)
C53_5 C 0.6269(12) 0.36182(17) 0.86182(17)
H33_5 H 0.6472 0.3519 0.8519
C57_5 C 0.6212(7) 0.4564(6) 0.9995(6)
C58_5 C 0.6164(11) 0.4659(5) 0.9659(5)
C59_5 C 0.6202(11) 0.4393(5) 0.9393(5)
H36_5 H 0.6419 0.4309 0.9309
N6_5 N 0.5930(9) 0.4293(4) 0.9293(4)
C60_5 C 0.5630(11) 0.3861(4) 0.8861(4)
H37_5 H 0.5416 0.3949 0.8949
C61_5 C 0.5916(12) 0.3975(5) 0.8975(5)
C62_5 C 0.6269(12) 0.38818(17) 0.88818(17)
H38_5 H 0.6472 0.3981 0.8981
C63_5 C 0.6214(8) 0.2238(6) 0.7699(6)
H39_5 H 0.6196 0.2001 0.7769
C64_5 C 0.6212(7) 0.2505(6) 0.7936(6)
H40_5 H 0.6246 0.2453 0.8175
C65_5 C 0.6214(8) 0.5262(6) 0.9801(6)
H41_5 H 0.6196 0.5499 0.9731
C66_5 C 0.6212(7) 0.4995(6) 0.9564(6)
H42_5 H 0.6246 0.5047 0.9325
O21_4 O 0.6262(2) 0.03254(16) 0.57518(17)
C45_7 C 0.6299(3) 0.2061(3) 0.5439(3)
C46_7 C 0.6254(11) 0.2337(5) 0.5163(5)
C47_5 C 0.6286(8) 0.2699(6) 0.5262(6)
H29_5 H 0.6304 0.2769 0.5499
C48_6 C 0.6288(7) 0.2936(6) 0.4995(6)
H30_5 H 0.6254 0.3175 0.5047
C49_6 C 0.6336(11) 0.2841(5) 0.4659(5)
C50_6 C 0.6298(11) 0.3107(5) 0.4393(5)
H31_6 H 0.6081 0.3191 0.4309
N5_6 N 0.6570(9) 0.3207(4) 0.4293(4)
C51_6 C 0.6870(11) 0.3639(4) 0.3861(4)
H32_6 H 0.7084 0.3551 0.3949
C52_6 C 0.6584(12) 0.3525(5) 0.3975(5)
C53_6 C 0.6231(12) 0.36182(17) 0.38818(17)
H33_6 H 0.6028 0.3519 0.3981
O14_7 O 0.6238(2) 0.53254(16) 0.17482(17)
C54_7 C 0.6299(3) 0.5439(3) 0.2061(3)
C55_7 C 0.6254(11) 0.5163(5) 0.2337(5)
C56_7 C 0.6286(8) 0.4801(6) 0.2238(6)
H34_7 H 0.6304 0.4731 0.2001
C57_6 C 0.6288(7) 0.4564(6) 0.2505(6)
H35_7 H 0.6254 0.4325 0.2453
C58_6 C 0.6336(11) 0.4659(5) 0.2841(5)
C59_6 C 0.6298(11) 0.4393(5) 0.3107(5)
H36_6 H 0.6081 0.4309 0.3191
N6_6 N 0.6570(9) 0.4293(4) 0.3207(4)
C60_6 C 0.6870(11) 0.3861(4) 0.3639(4)
H37_6 H 0.7084 0.3949 0.3551
C61_6 C 0.6584(12) 0.3975(5) 0.3525(5)
C62_6 C 0.6231(12) 0.38818(17) 0.36182(17)
H38_6 H 0.6028 0.3981 0.3519
O15_4 O 0.6238(2) 0.17482(17) 0.53254(16)
C63_6 C 0.6286(8) 0.2238(6) 0.4801(6)
H39_6 H 0.6304 0.2001 0.4731
C64_6 C 0.6288(7) 0.2505(6) 0.4564(6)
H40_6 H 0.6254 0.2453 0.4325
O16_7 O 0.6238(2) 0.57518(17) 0.21746(16)
C65_6 C 0.6286(8) 0.5262(6) 0.2699(6)
H41_6 H 0.6304 0.5499 0.2769
C66_6 C 0.6288(7) 0.4995(6) 0.2936(6)
H42_6 H 0.6254 0.5047 0.3175
O27_4 O 0.6262(2) 0.07518(17) 0.53254(16)
C45_8 C 0.6201(3) 0.0439(3) 0.5439(3)
C46_8 C 0.6246(11) 0.0163(5) 0.5163(5)
C63_7 C 0.6214(8) 0.0262(6) 0.4801(6)
H39_7 H 0.6196 0.0499 0.4731
H40_7 H 0.6246 0.0047 0.4325
C47_6 C 0.6214(8) 0.9801(6) 0.5262(6)
H29_6 H 0.6196 0.9731 0.5499
C48_7 C 0.6212(7) 0.9564(6) 0.4995(6)
H30_6 H 0.6246 0.9325 0.5047
C49_7 C 0.6164(11) 0.9659(5) 0.4659(5)
C50_7 C 0.6202(11) 0.9393(5) 0.4393(5)
H31_7 H 0.6419 0.9309 0.4309
N5_7 N 0.5930(9) 0.9293(4) 0.4293(4)
C51_7 C 0.5630(11) 0.8861(4) 0.3861(4)
H32_7 H 0.5416 0.8949 0.3949
C52_7 C 0.5916(12) 0.8975(5) 0.3975(5)
C53_7 C 0.6269(12) 0.88818(17) 0.38818(17)
H33_7 H 0.6472 0.8981 0.3981
O14_8 O 0.6262(2) 0.71746(16) 0.17482(17)
C54_8 C 0.6201(3) 0.7061(3) 0.2061(3)
C55_8 C 0.6246(11) 0.7337(5) 0.2337(5)
C56_8 C 0.6214(8) 0.7699(6) 0.2238(6)
H34_8 H 0.6196 0.7769 0.2001
C57_7 C 0.6212(7) 0.7936(6) 0.2505(6)
H35_8 H 0.6246 0.8175 0.2453
C58_7 C 0.6164(11) 0.7841(5) 0.2841(5)
C59_7 C 0.6202(11) 0.8107(5) 0.3107(5)
H36_7 H 0.6419 0.8191 0.3191
N6_7 N 0.5930(9) 0.8207(4) 0.3207(4)
C60_7 C 0.5630(11) 0.8639(4) 0.3639(4)
H37_7 H 0.5416 0.8551 0.3551
C61_7 C 0.5916(12) 0.8525(5) 0.3525(5)
C62_7 C 0.6269(12) 0.86182(17) 0.36182(17)
H38_7 H 0.6472 0.8519 0.3519
C64_7 C 0.6212(7) 0.9995(6) 0.4564(6)
O16_8 O 0.6262(2) 0.67482(17) 0.21746(16)
C65_7 C 0.6214(8) 0.7238(6) 0.2699(6)
H41_7 H 0.6196 0.7001 0.2769
C66_7 C 0.6212(7) 0.7505(6) 0.2936(6)
H42_7 H 0.6246 0.7453 0.3175
O1_4 O 0.6561(3) 0.5939(3) 0.0939(3)
O2_7 O 0.6571(4) 0.6571(4) 0.0929(4)
O7_4 O 0.6561(3) 0.6561(3) 0.1561(3)
O8_4 O 0.6571(4) 0.5929(4) 0.1571(4)
O17_4 O 0.5939(3) 0.6561(3) 0.0939(3)
O18_4 O 0.5939(3) 0.5939(3) 0.1561(3)
O19_4 O 0.5929(4) 0.6571(4) 0.1571(4)
O2_8 O 0.5929(4) 0.5929(4) 0.0929(4)
C4_8 C 0.0005(6) 0.5436(6) 0.3788(7)
C5_8 C 0.0341(5) 0.5341(5) 0.3836(11)
C6_8 C 0.0607(5) 0.5607(5) 0.3798(11)
H3_8 H 0.0691 0.5691 0.3581
N1_8 N 0.0707(4) 0.5707(4) 0.4070(9)
C7_8 C 0.1139(4) 0.6139(4) 0.4370(11)
H4_8 H 0.1051 0.6051 0.4584
C8_8 C 0.1025(5) 0.6025(5) 0.4084(12)
C9_8 C 0.11182(17) 0.61182(17) 0.3731(12)
H5_8 H 0.1019 0.6019 0.3528
O4_9 O 0.32518(17) 0.78254(16) 0.3738(2)
C10_9 C 0.2939(3) 0.7939(3) 0.3799(3)
C11_9 C 0.2663(5) 0.7663(5) 0.3754(11)
C12_9 C 0.2762(6) 0.7301(6) 0.3786(8)
H6_9 H 0.2999 0.7231 0.3804
C13_8 C 0.2495(6) 0.7064(6) 0.3788(7)
H7_9 H 0.2547 0.6825 0.3754
C14_8 C 0.2159(5) 0.7159(5) 0.3836(11)
C15_8 C 0.1893(5) 0.6893(5) 0.3798(11)
H8_8 H 0.1809 0.6809 0.3581
N2_8 N 0.1793(4) 0.6793(4) 0.4070(9)
C16_8 C 0.1361(4) 0.6361(4) 0.4370(11)
H9_8 H 0.1449 0.6449 0.4584
C17_8 C 0.1475(5) 0.6475(5) 0.4084(12)
C18_8 C 0.13818(17) 0.63818(17) 0.3731(12)
H10_8 H 0.1481 0.6481 0.3528
C19_8 C 0.0199(6) 0.4738(6) 0.3786(8)
H11_8 H 0.0269 0.4501 0.3804
C20_8 C 0.0436(6) 0.5005(6) 0.3788(7)
H12_8 H 0.0675 0.4953 0.3754
O6_9 O 0.28254(16) 0.82518(17) 0.3738(2)
C21_8 C 0.2301(6) 0.7762(6) 0.3786(8)
H13_8 H 0.2231 0.7999 0.3804
C22_8 C 0.2064(6) 0.7495(6) 0.3788(7)
H14_8 H 0.1825 0.7547 0.3754
C47_7 C 0.0199(6) 0.3786(8) 0.4738(6)
H29_7 H 0.0269 0.3804 0.4501
C48_8 C 0.0436(6) 0.3788(7) 0.5005(6)
H30_7 H 0.0675 0.3754 0.4953
C49_8 C 0.0341(5) 0.3836(11) 0.5341(5)
C50_8 C 0.0607(5) 0.3798(11) 0.5607(5)
H31_8 H 0.0691 0.3581 0.5691
N5_8 N 0.0707(4) 0.4070(9) 0.5707(4)
C51_8 C 0.1139(4) 0.4370(11) 0.6139(4)
H32_8 H 0.1051 0.4584 0.6051
C52_8 C 0.1025(5) 0.4084(12) 0.6025(5)
C53_8 C 0.11182(17) 0.3731(12) 0.61182(17)
H33_8 H 0.1019 0.3528 0.6019
O14_9 O 0.28254(16) 0.3738(2) 0.82518(17)
C54_9 C 0.2939(3) 0.3799(3) 0.7939(3)
C55_9 C 0.2663(5) 0.3754(11) 0.7663(5)
C56_9 C 0.2301(6) 0.3786(8) 0.7762(6)
H34_9 H 0.2231 0.3804 0.7999
C57_8 C 0.2064(6) 0.3788(7) 0.7495(6)
H35_9 H 0.1825 0.3754 0.7547
C58_8 C 0.2159(5) 0.3836(11) 0.7159(5)
C59_8 C 0.1893(5) 0.3798(11) 0.6893(5)
H36_8 H 0.1809 0.3581 0.6809
N6_8 N 0.1793(4) 0.4070(9) 0.6793(4)
C60_8 C 0.1361(4) 0.4370(11) 0.6361(4)
H37_8 H 0.1449 0.4584 0.6449
C61_8 C 0.1475(5) 0.4084(12) 0.6475(5)
C62_8 C 0.13818(17) 0.3731(12) 0.63818(17)
H38_8 H 0.1481 0.3528 0.6481
C64_8 C 0.0005(6) 0.3788(7) 0.5436(6)
O16_9 O 0.32518(17) 0.3738(2) 0.78254(16)
C65_8 C 0.2762(6) 0.3786(8) 0.7301(6)
H41_8 H 0.2999 0.3804 0.7231
C66_8 C 0.2495(6) 0.3788(7) 0.7064(6)
H42_8 H 0.2547 0.3754 0.6825
Zr6_3 Zr 0.31085(3) 0.3750 0.8750
Zr7_3 Zr 0.3750 0.3750 0.81085(3)
Zr10_3 Zr 0.3750 0.81085(3) 0.3750
Zr11_5 Zr 0.31085(3) 0.8750 0.3750
Zr1_5 Zr 0.8750 0.43915(3) 0.3750
O1_5 O 0.9061(3) 0.4061(3) 0.3439(3)
O2_9 O 0.8429(4) 0.4071(4) 0.3429(4)
O3_5 O 0.92482(17) 0.46746(16) 0.3738(2)
C1_9 C 0.9561(3) 0.4561(3) 0.3799(3)
C2_9 C 0.9837(5) 0.4837(5) 0.3754(11)
C3_7 C 0.9738(6) 0.5199(6) 0.3786(8)
H1_7 H 0.9501 0.5269 0.3804
H2_7 H 0.9953 0.5675 0.3754
O5_3 O 0.96746(16) 0.42482(17) 0.3738(2)
O7_5 O 0.8439(3) 0.4061(3) 0.4061(3)
O8_5 O 0.9071(4) 0.4071(4) 0.4071(4)
Zr2_2 Zr 0.81085(3) 0.3750 0.3750
Zr3_2 Zr 0.8750 0.3750 0.43915(3)
O9_5 O 0.8738(2) 0.42482(17) 0.46746(16)
C23_9 C 0.8799(3) 0.4561(3) 0.4561(3)
C24_9 C 0.8754(11) 0.4837(5) 0.4837(5)
C25_8 C 0.8786(8) 0.4738(6) 0.5199(6)
H15_8 H 0.8804 0.4501 0.5269
C26_8 C 0.8788(7) 0.5005(6) 0.5436(6)
H16_8 H 0.8754 0.4953 0.5675
C27_8 C 0.8836(11) 0.5341(5) 0.5341(5)
C28_8 C 0.8798(11) 0.5607(5) 0.5607(5)
H17_8 H 0.8581 0.5691 0.5691
N3_8 N 0.9070(9) 0.5707(4) 0.5707(4)
C29_8 C 0.9370(11) 0.6139(4) 0.6139(4)
H18_8 H 0.9584 0.6051 0.6051
C30_8 C 0.9084(12) 0.6025(5) 0.6025(5)
C31_8 C 0.8731(12) 0.61182(17) 0.61182(17)
H19_8 H 0.8528 0.6019 0.6019
O10_9 O 0.8738(2) 0.82518(17) 0.78254(16)
C32_9 C 0.8799(3) 0.7939(3) 0.7939(3)
C33_9 C 0.8754(11) 0.7663(5) 0.7663(5)
C34_8 C 0.8786(8) 0.7762(6) 0.7301(6)
H20_8 H 0.8804 0.7999 0.7231
C35_8 C 0.8788(7) 0.7495(6) 0.7064(6)
H21_8 H 0.8754 0.7547 0.6825
C36_8 C 0.8836(11) 0.7159(5) 0.7159(5)
C37_8 C 0.8798(11) 0.6893(5) 0.6893(5)
H22_8 H 0.8581 0.6809 0.6809
N4_8 N 0.9070(9) 0.6793(4) 0.6793(4)
C38_8 C 0.9370(11) 0.6361(4) 0.6361(4)
H23_8 H 0.9584 0.6449 0.6449
C39_8 C 0.9084(12) 0.6475(5) 0.6475(5)
C40_8 C 0.8731(12) 0.63818(17) 0.63818(17)
H24_8 H 0.8528 0.6481 0.6481
O11_5 O 0.8738(2) 0.46746(16) 0.42482(17)
C41_7 C 0.8786(8) 0.5199(6) 0.4738(6)
H25_7 H 0.8804 0.5269 0.4501
C42_8 C 0.8788(7) 0.5436(6) 0.5005(6)
H26_7 H 0.8754 0.5675 0.4953
O12_9 O 0.8738(2) 0.78254(16) 0.82518(17)
C43_9 C 0.8786(8) 0.7301(6) 0.7762(6)
H27_9 H 0.8804 0.7231 0.7999
C44_8 C 0.8788(7) 0.7064(6) 0.7495(6)
H28_9 H 0.8754 0.6825 0.7547
O13_3 O 0.96746(16) 0.3738(2) 0.42482(17)
C45_9 C 0.9561(3) 0.3799(3) 0.4561(3)
C46_9 C 0.9837(5) 0.3754(11) 0.4837(5)
O15_5 O 0.92482(17) 0.3738(2) 0.46746(16)
C63_8 C 0.9738(6) 0.3786(8) 0.5199(6)
H39_8 H 0.9501 0.3804 0.5269
H40_8 H 0.9953 0.3754 0.5675
Zr4_2 Zr 0.93915(3) 0.3750 0.3750
Zr5_2 Zr 0.8750 0.3750 0.31085(3)
Zr8_3 Zr 0.8750 0.81085(3) 0.8750
Zr9_5 Zr 0.8750 0.8750 0.81085(3)
O17_5 O 0.8439(3) 0.3439(3) 0.3439(3)
O18_5 O 0.9061(3) 0.3439(3) 0.4061(3)
O19_5 O 0.8429(4) 0.3429(4) 0.4071(4)
O20_5 O 0.82518(17) 0.46746(16) 0.3762(2)
O21_5 O 0.78254(16) 0.3738(2) 0.32518(17)
O22_5 O 0.8762(2) 0.32518(17) 0.46746(16)
O23_3 O 0.78254(16) 0.3762(2) 0.42482(17)
O24_3 O 0.78254(16) 0.32518(17) 0.3738(2)
O25_5 O 0.8762(2) 0.46746(16) 0.32518(17)
O26_5 O 0.78254(16) 0.42482(17) 0.3762(2)
O27_5 O 0.82518(17) 0.3762(2) 0.46746(16)
O1_6 O 0.3439(3) 0.8439(3) 0.3439(3)
O2_10 O 0.4071(4) 0.8429(4) 0.3429(4)
O7_6 O 0.4061(3) 0.8439(3) 0.4061(3)
O8_6 O 0.3429(4) 0.8429(4) 0.4071(4)
Zr2_3 Zr 0.43915(3) 0.8750 0.3750
Zr3_3 Zr 0.3750 0.8750 0.43915(3)
O9_6 O 0.3762(2) 0.82518(17) 0.46746(16)
C23_10 C 0.3701(3) 0.7939(3) 0.4561(3)
C24_10 C 0.3746(11) 0.7663(5) 0.4837(5)
C25_9 C 0.3714(8) 0.7762(6) 0.5199(6)
H15_9 H 0.3696 0.7999 0.5269
C26_9 C 0.3712(7) 0.7495(6) 0.5436(6)
H16_9 H 0.3746 0.7547 0.5675
C27_9 C 0.3664(11) 0.7159(5) 0.5341(5)
C28_9 C 0.3702(11) 0.6893(5) 0.5607(5)
H17_9 H 0.3919 0.6809 0.5691
N3_9 N 0.3430(9) 0.6793(4) 0.5707(4)
C29_9 C 0.3130(11) 0.6361(4) 0.6139(4)
H18_9 H 0.2916 0.6449 0.6051
C30_9 C 0.3416(12) 0.6475(5) 0.6025(5)
C31_9 C 0.3769(12) 0.63818(17) 0.61182(17)
H19_9 H 0.3972 0.6481 0.6019
O10_10 O 0.3762(2) 0.42482(17) 0.78254(16)
C32_10 C 0.3701(3) 0.4561(3) 0.7939(3)
C33_10 C 0.3746(11) 0.4837(5) 0.7663(5)
C34_9 C 0.3714(8) 0.4738(6) 0.7301(6)
H20_9 H 0.3696 0.4501 0.7231
C35_9 C 0.3712(7) 0.5005(6) 0.7064(6)
H21_9 H 0.3746 0.4953 0.6825
C36_9 C 0.3664(11) 0.5341(5) 0.7159(5)
C37_9 C 0.3702(11) 0.5607(5) 0.6893(5)
H22_9 H 0.3919 0.5691 0.6809
N4_9 N 0.3430(9) 0.5707(4) 0.6793(4)
C38_9 C 0.3130(11) 0.6139(4) 0.6361(4)
H23_9 H 0.2916 0.6051 0.6449
C39_9 C 0.3416(12) 0.6025(5) 0.6475(5)
C40_9 C 0.3769(12) 0.61182(17) 0.63818(17)
H24_9 H 0.3972 0.6019 0.6481
O11_6 O 0.3762(2) 0.78254(16) 0.42482(17)
C41_8 C 0.3714(8) 0.7301(6) 0.4738(6)
H25_8 H 0.3696 0.7231 0.4501
C42_9 C 0.3712(7) 0.7064(6) 0.5005(6)
H26_8 H 0.3746 0.6825 0.4953
O12_10 O 0.3762(2) 0.46746(16) 0.82518(17)
C43_10 C 0.3714(8) 0.5199(6) 0.7762(6)
H27_10 H 0.3696 0.5269 0.7999
C44_9 C 0.3712(7) 0.5436(6) 0.7495(6)
H28_10 H 0.3746 0.5675 0.7547
O13_4 O 0.28254(16) 0.8762(2) 0.42482(17)
C45_10 C 0.2939(3) 0.8701(3) 0.4561(3)
C46_10 C 0.2663(5) 0.8746(11) 0.4837(5)
C47_8 C 0.2301(6) 0.8714(8) 0.4738(6)
H29_8 H 0.2231 0.8696 0.4501
C48_9 C 0.2064(6) 0.8712(7) 0.5005(6)
H30_8 H 0.1825 0.8746 0.4953
C49_9 C 0.2159(5) 0.8664(11) 0.5341(5)
C50_9 C 0.1893(5) 0.8702(11) 0.5607(5)
H31_9 H 0.1809 0.8919 0.5691
N5_9 N 0.1793(4) 0.8430(9) 0.5707(4)
C51_9 C 0.1361(4) 0.8130(11) 0.6139(4)
H32_9 H 0.1449 0.7916 0.6051
C52_9 C 0.1475(5) 0.8416(12) 0.6025(5)
C53_9 C 0.13818(17) 0.8769(12) 0.61182(17)
H33_9 H 0.1481 0.8972 0.6019
C56_10 C 0.0199(6) 0.8714(8) 0.7762(6)
H34_10 H 0.0269 0.8696 0.7999
C57_9 C 0.0436(6) 0.8712(7) 0.7495(6)
H35_10 H 0.0675 0.8746 0.7547
C58_9 C 0.0341(5) 0.8664(11) 0.7159(5)
C59_9 C 0.0607(5) 0.8702(11) 0.6893(5)
H36_9 H 0.0691 0.8919 0.6809
N6_9 N 0.0707(4) 0.8430(9) 0.6793(4)
C60_9 C 0.1139(4) 0.8130(11) 0.6361(4)
H37_9 H 0.1051 0.7916 0.6449
C61_9 C 0.1025(5) 0.8416(12) 0.6475(5)
C62_9 C 0.11182(17) 0.8769(12) 0.63818(17)
H38_9 H 0.1019 0.8972 0.6481
O15_6 O 0.32518(17) 0.8762(2) 0.46746(16)
C63_9 C 0.2762(6) 0.8714(8) 0.5199(6)
H39_9 H 0.2999 0.8696 0.5269
C64_9 C 0.2495(6) 0.8712(7) 0.5436(6)
H40_9 H 0.2547 0.8746 0.5675
C66_9 C 0.0005(6) 0.8712(7) 0.7064(6)
Zr5_3 Zr 0.3750 0.8750 0.31085(3)
Zr8_4 Zr 0.3750 0.43915(3) 0.8750
O17_6 O 0.4061(3) 0.9061(3) 0.3439(3)
O18_6 O 0.3439(3) 0.9061(3) 0.4061(3)
O19_6 O 0.4071(4) 0.9071(4) 0.4071(4)
O20_6 O 0.42482(17) 0.78254(16) 0.3762(2)
O21_6 O 0.46746(16) 0.8762(2) 0.32518(17)
O22_6 O 0.3738(2) 0.92482(17) 0.46746(16)
O23_4 O 0.46746(16) 0.8738(2) 0.42482(17)
O24_4 O 0.46746(16) 0.92482(17) 0.3738(2)
O25_6 O 0.3738(2) 0.78254(16) 0.32518(17)
O26_6 O 0.46746(16) 0.82518(17) 0.3762(2)
O27_6 O 0.42482(17) 0.8738(2) 0.46746(16)
O14_10 O 0.96746(16) 0.8762(2) 0.82518(17)
C54_10 C 0.9561(3) 0.8701(3) 0.7939(3)
C55_10 C 0.9837(5) 0.8746(11) 0.7663(5)
O16_10 O 0.92482(17) 0.8762(2) 0.78254(16)
C65_9 C 0.9738(6) 0.8714(8) 0.7301(6)
H41_9 H 0.9501 0.8696 0.7231
H42_9 H 0.9953 0.8746 0.6825
Zr6_4 Zr 0.93915(3) 0.8750 0.8750
C1_10 C 0.4561(3) 0.8701(3) 0.2939(3)
C2_10 C 0.4837(5) 0.8746(11) 0.2663(5)
C3_8 C 0.5199(6) 0.8714(8) 0.2762(6)
H1_8 H 0.5269 0.8696 0.2999
C4_9 C 0.5436(6) 0.8712(7) 0.2495(6)
H2_8 H 0.5675 0.8746 0.2547
C5_9 C 0.5341(5) 0.8664(11) 0.2159(5)
C6_9 C 0.5607(5) 0.8702(11) 0.1893(5)
H3_9 H 0.5691 0.8919 0.1809
N1_9 N 0.5707(4) 0.8430(9) 0.1793(4)
C7_9 C 0.6139(4) 0.8130(11) 0.1361(4)
H4_9 H 0.6051 0.7916 0.1449
C8_9 C 0.6025(5) 0.8416(12) 0.1475(5)
C9_9 C 0.61182(17) 0.8769(12) 0.13818(17)
H5_9 H 0.6019 0.8972 0.1481
C13_9 C 0.7064(6) 0.8712(7) 0.0005(6)
C14_9 C 0.7159(5) 0.8664(11) 0.0341(5)
C15_9 C 0.6893(5) 0.8702(11) 0.0607(5)
H8_9 H 0.6809 0.8919 0.0691
N2_9 N 0.6793(4) 0.8430(9) 0.0707(4)
C16_9 C 0.6361(4) 0.8130(11) 0.1139(4)
H9_9 H 0.6449 0.7916 0.1051
C17_9 C 0.6475(5) 0.8416(12) 0.1025(5)
C18_9 C 0.63818(17) 0.8769(12) 0.11182(17)
H10_9 H 0.6481 0.8972 0.1019
O5_4 O 0.42482(17) 0.8762(2) 0.28254(16)
C19_9 C 0.4738(6) 0.8714(8) 0.2301(6)
H11_9 H 0.4501 0.8696 0.2231
C20_9 C 0.5005(6) 0.8712(7) 0.2064(6)
H12_9 H 0.4953 0.8746 0.1825
C21_9 C 0.7762(6) 0.8714(8) 0.0199(6)
H13_9 H 0.7999 0.8696 0.0269
C22_9 C 0.7495(6) 0.8712(7) 0.0436(6)
H14_9 H 0.7547 0.8746 0.0675
C23_11 C 0.4561(3) 0.7939(3) 0.3701(3)
C24_11 C 0.4837(5) 0.7663(5) 0.3746(11)
C25_10 C 0.4738(6) 0.7301(6) 0.3714(8)
H15_10 H 0.4501 0.7231 0.3696
C26_10 C 0.5005(6) 0.7064(6) 0.3712(7)
H16_10 H 0.4953 0.6825 0.3746
C27_10 C 0.5341(5) 0.7159(5) 0.3664(11)
C28_10 C 0.5607(5) 0.6893(5) 0.3702(11)
H17_10 H 0.5691 0.6809 0.3919
N3_10 N 0.5707(4) 0.6793(4) 0.3430(9)
C29_10 C 0.6139(4) 0.6361(4) 0.3130(11)
H18_10 H 0.6051 0.6449 0.2916
C30_10 C 0.6025(5) 0.6475(5) 0.3416(12)
C31_10 C 0.61182(17) 0.63818(17) 0.3769(12)
H19_10 H 0.6019 0.6481 0.3972
C32_11 C 0.7939(3) 0.4561(3) 0.3701(3)
C33_11 C 0.7663(5) 0.4837(5) 0.3746(11)
C34_10 C 0.7762(6) 0.5199(6) 0.3714(8)
H20_10 H 0.7999 0.5269 0.3696
C35_10 C 0.7495(6) 0.5436(6) 0.3712(7)
H21_10 H 0.7547 0.5675 0.3746
C36_10 C 0.7159(5) 0.5341(5) 0.3664(11)
C37_10 C 0.6893(5) 0.5607(5) 0.3702(11)
H22_10 H 0.6809 0.5691 0.3919
N4_10 N 0.6793(4) 0.5707(4) 0.3430(9)
C38_10 C 0.6361(4) 0.6139(4) 0.3130(11)
H23_10 H 0.6449 0.6051 0.2916
C39_10 C 0.6475(5) 0.6025(5) 0.3416(12)
C40_10 C 0.63818(17) 0.61182(17) 0.3769(12)
H24_10 H 0.6481 0.6019 0.3972
C41_9 C 0.5199(6) 0.7762(6) 0.3714(8)
H25_9 H 0.5269 0.7999 0.3696
C42_10 C 0.5436(6) 0.7495(6) 0.3712(7)
H26_9 H 0.5675 0.7547 0.3746
C43_11 C 0.7301(6) 0.4738(6) 0.3714(8)
H27_11 H 0.7231 0.4501 0.3696
C44_10 C 0.7064(6) 0.5005(6) 0.3712(7)
H28_11 H 0.6825 0.4953 0.3746
O13_5 O 0.3738(2) 0.82518(17) 0.28254(16)
C45_11 C 0.3799(3) 0.7939(3) 0.2939(3)
C46_11 C 0.3754(11) 0.7663(5) 0.2663(5)
C47_9 C 0.3786(8) 0.7762(6) 0.2301(6)
H29_9 H 0.3804 0.7999 0.2231
C48_10 C 0.3788(7) 0.7495(6) 0.2064(6)
H30_9 H 0.3754 0.7547 0.1825
C49_10 C 0.3836(11) 0.7159(5) 0.2159(5)
C50_10 C 0.3798(11) 0.6893(5) 0.1893(5)
H31_10 H 0.3581 0.6809 0.1809
N5_10 N 0.4070(9) 0.6793(4) 0.1793(4)
C51_10 C 0.4370(11) 0.6361(4) 0.1361(4)
H32_10 H 0.4584 0.6449 0.1449
C52_10 C 0.4084(12) 0.6475(5) 0.1475(5)
C53_10 C 0.3731(12) 0.63818(17) 0.13818(17)
H33_10 H 0.3528 0.6481 0.1481
C56_11 C 0.3786(8) 0.4738(6) 0.0199(6)
H34_11 H 0.3804 0.4501 0.0269
C57_10 C 0.3788(7) 0.5005(6) 0.0436(6)
H35_11 H 0.3754 0.4953 0.0675
C58_10 C 0.3836(11) 0.5341(5) 0.0341(5)
C59_10 C 0.3798(11) 0.5607(5) 0.0607(5)
H36_10 H 0.3581 0.5691 0.0691
N6_10 N 0.4070(9) 0.5707(4) 0.0707(4)
C60_10 C 0.4370(11) 0.6139(4) 0.1139(4)
H37_10 H 0.4584 0.6051 0.1051
C61_10 C 0.4084(12) 0.6025(5) 0.1025(5)
C62_10 C 0.3731(12) 0.61182(17) 0.11182(17)
H38_10 H 0.3528 0.6019 0.1019
C63_10 C 0.3786(8) 0.7301(6) 0.2762(6)
H39_10 H 0.3804 0.7231 0.2999
C64_10 C 0.3788(7) 0.7064(6) 0.2495(6)
H40_10 H 0.3754 0.6825 0.2547
C66_10 C 0.3788(7) 0.5436(6) 0.0005(6)
Zr5_4 Zr 0.3750 0.93915(3) 0.3750
O4_10 O 0.78254(16) 0.8762(2) 0.92482(17)
C10_10 C 0.7939(3) 0.8701(3) 0.9561(3)
C11_10 C 0.7663(5) 0.8746(11) 0.9837(5)
C12_10 C 0.7301(6) 0.8714(8) 0.9738(6)
H6_10 H 0.7231 0.8696 0.9501
H7_10 H 0.6825 0.8746 0.9953
O6_10 O 0.82518(17) 0.8762(2) 0.96746(16)
O14_11 O 0.3738(2) 0.42482(17) 0.96746(16)
C54_11 C 0.3799(3) 0.4561(3) 0.9561(3)
C55_11 C 0.3754(11) 0.4837(5) 0.9837(5)
O16_11 O 0.3738(2) 0.46746(16) 0.92482(17)
C65_10 C 0.3786(8) 0.5199(6) 0.9738(6)
H41_10 H 0.3804 0.5269 0.9501
H42_10 H 0.3754 0.5675 0.9953
Zr6_5 Zr 0.3750 0.3750 0.93915(3)
Zr10_4 Zr 0.81085(3) 0.8750 0.8750
Zr11_6 Zr 0.8750 0.8750 0.93915(3)
C4_10 C 0.5436(6) 0.3788(7) 0.0005(6)
C5_10 C 0.5341(5) 0.3836(11) 0.0341(5)
C6_10 C 0.5607(5) 0.3798(11) 0.0607(5)
H3_10 H 0.5691 0.3581 0.0691
N1_10 N 0.5707(4) 0.4070(9) 0.0707(4)
C7_10 C 0.6139(4) 0.4370(11) 0.1139(4)
H4_10 H 0.6051 0.4584 0.1051
C8_10 C 0.6025(5) 0.4084(12) 0.1025(5)
C9_10 C 0.61182(17) 0.3731(12) 0.11182(17)
H5_10 H 0.6019 0.3528 0.1019
C10_11 C 0.7939(3) 0.3799(3) 0.2939(3)
C11_11 C 0.7663(5) 0.3754(11) 0.2663(5)
C12_11 C 0.7301(6) 0.3786(8) 0.2762(6)
H6_11 H 0.7231 0.3804 0.2999
C13_10 C 0.7064(6) 0.3788(7) 0.2495(6)
H7_11 H 0.6825 0.3754 0.2547
C14_10 C 0.7159(5) 0.3836(11) 0.2159(5)
C15_10 C 0.6893(5) 0.3798(11) 0.1893(5)
H8_10 H 0.6809 0.3581 0.1809
N2_10 N 0.6793(4) 0.4070(9) 0.1793(4)
C16_10 C 0.6361(4) 0.4370(11) 0.1361(4)
H9_10 H 0.6449 0.4584 0.1449
C17_10 C 0.6475(5) 0.4084(12) 0.1475(5)
C18_10 C 0.63818(17) 0.3731(12) 0.13818(17)
H10_10 H 0.6481 0.3528 0.1481
C19_10 C 0.4738(6) 0.3786(8) 0.0199(6)
H11_10 H 0.4501 0.3804 0.0269
C20_10 C 0.5005(6) 0.3788(7) 0.0436(6)
H12_10 H 0.4953 0.3754 0.0675
O6_11 O 0.82518(17) 0.3738(2) 0.28254(16)
C21_10 C 0.7762(6) 0.3786(8) 0.2301(6)
H13_10 H 0.7999 0.3804 0.2231
C22_10 C 0.7495(6) 0.3788(7) 0.2064(6)
H14_10 H 0.7547 0.3754 0.1825
Zr1_6 Zr 0.43915(3) 0.3750 0.8750
O1_7 O 0.4061(3) 0.3439(3) 0.9061(3)
O2_11 O 0.4071(4) 0.3429(4) 0.8429(4)
O3_6 O 0.46746(16) 0.3738(2) 0.92482(17)
C1_11 C 0.4561(3) 0.3799(3) 0.9561(3)
C2_11 C 0.4837(5) 0.3754(11) 0.9837(5)
C3_9 C 0.5199(6) 0.3786(8) 0.9738(6)
H1_9 H 0.5269 0.3804 0.9501
H2_9 H 0.5675 0.3754 0.9953
O5_5 O 0.42482(17) 0.3738(2) 0.96746(16)
O7_7 O 0.4061(3) 0.4061(3) 0.8439(3)
O8_7 O 0.4071(4) 0.4071(4) 0.9071(4)
O9_7 O 0.42482(17) 0.46746(16) 0.8738(2)
C23_12 C 0.4561(3) 0.4561(3) 0.8799(3)
C24_12 C 0.4837(5) 0.4837(5) 0.8754(11)
C25_11 C 0.4738(6) 0.5199(6) 0.8786(8)
H15_11 H 0.4501 0.5269 0.8804
C26_11 C 0.5005(6) 0.5436(6) 0.8788(7)
H16_11 H 0.4953 0.5675 0.8754
C27_11 C 0.5341(5) 0.5341(5) 0.8836(11)
C28_11 C 0.5607(5) 0.5607(5) 0.8798(11)
H17_11 H 0.5691 0.5691 0.8581
N3_11 N 0.5707(4) 0.5707(4) 0.9070(9)
C29_11 C 0.6139(4) 0.6139(4) 0.9370(11)
H18_11 H 0.6051 0.6051 0.9584
C30_11 C 0.6025(5) 0.6025(5) 0.9084(12)
C31_11 C 0.61182(17) 0.61182(17) 0.8731(12)
H19_11 H 0.6019 0.6019 0.8528
O10_11 O 0.82518(17) 0.78254(16) 0.8738(2)
C32_12 C 0.7939(3) 0.7939(3) 0.8799(3)
C33_12 C 0.7663(5) 0.7663(5) 0.8754(11)
C34_11 C 0.7762(6) 0.7301(6) 0.8786(8)
H20_11 H 0.7999 0.7231 0.8804
C35_11 C 0.7495(6) 0.7064(6) 0.8788(7)
H21_11 H 0.7547 0.6825 0.8754
C36_11 C 0.7159(5) 0.7159(5) 0.8836(11)
C37_11 C 0.6893(5) 0.6893(5) 0.8798(11)
H22_11 H 0.6809 0.6809 0.8581
N4_11 N 0.6793(4) 0.6793(4) 0.9070(9)
C38_11 C 0.6361(4) 0.6361(4) 0.9370(11)
H23_11 H 0.6449 0.6449 0.9584
C39_11 C 0.6475(5) 0.6475(5) 0.9084(12)
C40_11 C 0.63818(17) 0.63818(17) 0.8731(12)
H24_11 H 0.6481 0.6481 0.8528
O11_7 O 0.46746(16) 0.42482(17) 0.8738(2)
C41_10 C 0.5199(6) 0.4738(6) 0.8786(8)
H25_10 H 0.5269 0.4501 0.8804
C42_11 C 0.5436(6) 0.5005(6) 0.8788(7)
H26_10 H 0.5675 0.4953 0.8754
O12_11 O 0.78254(16) 0.82518(17) 0.8738(2)
C43_12 C 0.7301(6) 0.7762(6) 0.8786(8)
H27_12 H 0.7231 0.7999 0.8804
C44_11 C 0.7064(6) 0.7495(6) 0.8788(7)
H28_12 H 0.6825 0.7547 0.8754
Zr5_5 Zr 0.3750 0.31085(3) 0.8750
O17_7 O 0.3439(3) 0.3439(3) 0.8439(3)
O18_7 O 0.3439(3) 0.4061(3) 0.9061(3)
O19_7 O 0.3429(4) 0.4071(4) 0.8429(4)
O20_7 O 0.46746(16) 0.3762(2) 0.82518(17)
O21_7 O 0.3738(2) 0.32518(17) 0.78254(16)
O22_7 O 0.32518(17) 0.46746(16) 0.8762(2)
O25_7 O 0.46746(16) 0.32518(17) 0.8762(2)
O26_7 O 0.42482(17) 0.3762(2) 0.78254(16)
C1_12 C 0.3799(3) 0.2939(3) 0.7939(3)
C2_12 C 0.3754(11) 0.2663(5) 0.7663(5)
C3_10 C 0.3786(8) 0.2762(6) 0.7301(6)
H1_10 H 0.3804 0.2999 0.7231
C4_11 C 0.3788(7) 0.2495(6) 0.7064(6)
H2_10 H 0.3754 0.2547 0.6825
C5_11 C 0.3836(11) 0.2159(5) 0.7159(5)
C6_11 C 0.3798(11) 0.1893(5) 0.6893(5)
H3_11 H 0.3581 0.1809 0.6809
N1_11 N 0.4070(9) 0.1793(4) 0.6793(4)
C7_11 C 0.4370(11) 0.1361(4) 0.6361(4)
H4_11 H 0.4584 0.1449 0.6449
C8_11 C 0.4084(12) 0.1475(5) 0.6475(5)
C9_11 C 0.3731(12) 0.13818(17) 0.63818(17)
H5_11 H 0.3528 0.1481 0.6481
C13_11 C 0.3788(7) 0.0005(6) 0.5436(6)
C14_11 C 0.3836(11) 0.0341(5) 0.5341(5)
C15_11 C 0.3798(11) 0.0607(5) 0.5607(5)
H8_11 H 0.3581 0.0691 0.5691
N2_11 N 0.4070(9) 0.0707(4) 0.5707(4)
C16_11 C 0.4370(11) 0.1139(4) 0.6139(4)
H9_11 H 0.4584 0.1051 0.6051
C17_11 C 0.4084(12) 0.1025(5) 0.6025(5)
C18_11 C 0.3731(12) 0.11182(17) 0.61182(17)
H10_11 H 0.3528 0.1019 0.6019
O5_6 O 0.3738(2) 0.28254(16) 0.82518(17)
C19_11 C 0.3786(8) 0.2301(6) 0.7762(6)
H11_11 H 0.3804 0.2231 0.7999
C20_11 C 0.3788(7) 0.2064(6) 0.7495(6)
H12_11 H 0.3754 0.1825 0.7547
C21_11 C 0.3786(8) 0.0199(6) 0.4738(6)
H13_11 H 0.3804 0.0269 0.4501
C22_11 C 0.3788(7) 0.0436(6) 0.5005(6)
H14_11 H 0.3754 0.0675 0.4953
C23_13 C 0.4561(3) 0.3701(3) 0.7939(3)
C24_13 C 0.4837(5) 0.3746(11) 0.7663(5)
C25_12 C 0.5199(6) 0.3714(8) 0.7762(6)
H15_12 H 0.5269 0.3696 0.7999
C26_12 C 0.5436(6) 0.3712(7) 0.7495(6)
H16_12 H 0.5675 0.3746 0.7547
C27_12 C 0.5341(5) 0.3664(11) 0.7159(5)
C28_12 C 0.5607(5) 0.3702(11) 0.6893(5)
H17_12 H 0.5691 0.3919 0.6809
N3_12 N 0.5707(4) 0.3430(9) 0.6793(4)
C29_12 C 0.6139(4) 0.3130(11) 0.6361(4)
H18_12 H 0.6051 0.2916 0.6449
C30_12 C 0.6025(5) 0.3416(12) 0.6475(5)
C31_12 C 0.61182(17) 0.3769(12) 0.63818(17)
H19_12 H 0.6019 0.3972 0.6481
C32_13 C 0.7939(3) 0.3701(3) 0.4561(3)
C33_13 C 0.7663(5) 0.3746(11) 0.4837(5)
C34_12 C 0.7301(6) 0.3714(8) 0.4738(6)
H20_12 H 0.7231 0.3696 0.4501
C35_12 C 0.7064(6) 0.3712(7) 0.5005(6)
H21_12 H 0.6825 0.3746 0.4953
C36_12 C 0.7159(5) 0.3664(11) 0.5341(5)
C37_12 C 0.6893(5) 0.3702(11) 0.5607(5)
H22_12 H 0.6809 0.3919 0.5691
N4_12 N 0.6793(4) 0.3430(9) 0.5707(4)
C38_12 C 0.6361(4) 0.3130(11) 0.6139(4)
H23_12 H 0.6449 0.2916 0.6051
C39_12 C 0.6475(5) 0.3416(12) 0.6025(5)
C40_12 C 0.63818(17) 0.3769(12) 0.61182(17)
H24_12 H 0.6481 0.3972 0.6019
C41_11 C 0.4738(6) 0.3714(8) 0.7301(6)
H25_11 H 0.4501 0.3696 0.7231
C42_12 C 0.5005(6) 0.3712(7) 0.7064(6)
H26_11 H 0.4953 0.3746 0.6825
C43_13 C 0.7762(6) 0.3714(8) 0.5199(6)
H27_13 H 0.7999 0.3696 0.5269
C44_12 C 0.7495(6) 0.3712(7) 0.5436(6)
H28_13 H 0.7547 0.3746 0.5675
O13_6 O 0.42482(17) 0.28254(16) 0.8762(2)
C45_12 C 0.4561(3) 0.2939(3) 0.8701(3)
C46_12 C 0.4837(5) 0.2663(5) 0.8746(11)
C47_10 C 0.4738(6) 0.2301(6) 0.8714(8)
H29_10 H 0.4501 0.2231 0.8696
C48_11 C 0.5005(6) 0.2064(6) 0.8712(7)
H30_10 H 0.4953 0.1825 0.8746
C49_11 C 0.5341(5) 0.2159(5) 0.8664(11)
C50_11 C 0.5607(5) 0.1893(5) 0.8702(11)
H31_11 H 0.5691 0.1809 0.8919
N5_11 N 0.5707(4) 0.1793(4) 0.8430(9)
C51_11 C 0.6139(4) 0.1361(4) 0.8130(11)
H32_11 H 0.6051 0.1449 0.7916
C52_11 C 0.6025(5) 0.1475(5) 0.8416(12)
C53_11 C 0.61182(17) 0.13818(17) 0.8769(12)
H33_11 H 0.6019 0.1481 0.8972
C56_12 C 0.7762(6) 0.0199(6) 0.8714(8)
H34_12 H 0.7999 0.0269 0.8696
C57_11 C 0.7495(6) 0.0436(6) 0.8712(7)
H35_12 H 0.7547 0.0675 0.8746
C58_11 C 0.7159(5) 0.0341(5) 0.8664(11)
C59_11 C 0.6893(5) 0.0607(5) 0.8702(11)
H36_11 H 0.6809 0.0691 0.8919
N6_11 N 0.6793(4) 0.0707(4) 0.8430(9)
C60_11 C 0.6361(4) 0.1139(4) 0.8130(11)
H37_11 H 0.6449 0.1051 0.7916
C61_11 C 0.6475(5) 0.1025(5) 0.8416(12)
C62_11 C 0.63818(17) 0.11182(17) 0.8769(12)
H38_11 H 0.6481 0.1019 0.8972
C63_11 C 0.5199(6) 0.2762(6) 0.8714(8)
H39_11 H 0.5269 0.2999 0.8696
C64_11 C 0.5436(6) 0.2495(6) 0.8712(7)
H40_11 H 0.5675 0.2547 0.8746
C66_11 C 0.7064(6) 0.0005(6) 0.8712(7)
C10_12 C 0.3799(3) 0.9561(3) 0.4561(3)
C11_12 C 0.3754(11) 0.9837(5) 0.4837(5)
C12_12 C 0.3786(8) 0.9738(6) 0.5199(6)
H6_12 H 0.3804 0.9501 0.5269
H7_12 H 0.3754 0.9953 0.5675
O6_12 O 0.3738(2) 0.96746(16) 0.42482(17)
O14_12 O 0.82518(17) 0.96746(16) 0.8762(2)
C54_12 C 0.7939(3) 0.9561(3) 0.8701(3)
C55_12 C 0.7663(5) 0.9837(5) 0.8746(11)
O16_12 O 0.78254(16) 0.92482(17) 0.8762(2)
C65_11 C 0.7301(6) 0.9738(6) 0.8714(8)
H41_11 H 0.7231 0.9501 0.8696
H42_11 H 0.6825 0.9953 0.8746
Zr6_6 Zr 0.8750 0.93915(3) 0.8750
C1_13 C 0.8701(3) 0.2939(3) 0.4561(3)
C2_13 C 0.8746(11) 0.2663(5) 0.4837(5)
C3_11 C 0.8714(8) 0.2762(6) 0.5199(6)
H1_11 H 0.8696 0.2999 0.5269
C4_12 C 0.8712(7) 0.2495(6) 0.5436(6)
H2_11 H 0.8746 0.2547 0.5675
C5_12 C 0.8664(11) 0.2159(5) 0.5341(5)
C6_12 C 0.8702(11) 0.1893(5) 0.5607(5)
H3_12 H 0.8919 0.1809 0.5691
N1_12 N 0.8430(9) 0.1793(4) 0.5707(4)
C7_12 C 0.8130(11) 0.1361(4) 0.6139(4)
H4_12 H 0.7916 0.1449 0.6051
C8_12 C 0.8416(12) 0.1475(5) 0.6025(5)
C9_12 C 0.8769(12) 0.13818(17) 0.61182(17)
H5_12 H 0.8972 0.1481 0.6019
C13_12 C 0.8712(7) 0.0005(6) 0.7064(6)
C14_12 C 0.8664(11) 0.0341(5) 0.7159(5)
C15_12 C 0.8702(11) 0.0607(5) 0.6893(5)
H8_12 H 0.8919 0.0691 0.6809
N2_12 N 0.8430(9) 0.0707(4) 0.6793(4)
C16_12 C 0.8130(11) 0.1139(4) 0.6361(4)
H9_12 H 0.7916 0.1051 0.6449
C17_12 C 0.8416(12) 0.1025(5) 0.6475(5)
C18_12 C 0.8769(12) 0.11182(17) 0.63818(17)
H10_12 H 0.8972 0.1019 0.6481
O5_7 O 0.8762(2) 0.28254(16) 0.42482(17)
C19_12 C 0.8714(8) 0.2301(6) 0.4738(6)
H11_12 H 0.8696 0.2231 0.4501
C20_12 C 0.8712(7) 0.2064(6) 0.5005(6)
H12_12 H 0.8746 0.1825 0.4953
C21_12 C 0.8714(8) 0.0199(6) 0.7762(6)
H13_12 H 0.8696 0.0269 0.7999
C22_12 C 0.8712(7) 0.0436(6) 0.7495(6)
H14_12 H 0.8746 0.0675 0.7547
O13_7 O 0.82518(17) 0.28254(16) 0.3738(2)
C45_13 C 0.7939(3) 0.2939(3) 0.3799(3)
C46_13 C 0.7663(5) 0.2663(5) 0.3754(11)
C47_11 C 0.7762(6) 0.2301(6) 0.3786(8)
H29_11 H 0.7999 0.2231 0.3804
C48_12 C 0.7495(6) 0.2064(6) 0.3788(7)
H30_11 H 0.7547 0.1825 0.3754
C49_12 C 0.7159(5) 0.2159(5) 0.3836(11)
C50_12 C 0.6893(5) 0.1893(5) 0.3798(11)
H31_12 H 0.6809 0.1809 0.3581
N5_12 N 0.6793(4) 0.1793(4) 0.4070(9)
C51_12 C 0.6361(4) 0.1361(4) 0.4370(11)
H32_12 H 0.6449 0.1449 0.4584
C52_12 C 0.6475(5) 0.1475(5) 0.4084(12)
C53_12 C 0.63818(17) 0.13818(17) 0.3731(12)
H33_12 H 0.6481 0.1481 0.3528
C56_13 C 0.4738(6) 0.0199(6) 0.3786(8)
H34_13 H 0.4501 0.0269 0.3804
C57_12 C 0.5005(6) 0.0436(6) 0.3788(7)
H35_13 H 0.4953 0.0675 0.3754
C58_12 C 0.5341(5) 0.0341(5) 0.3836(11)
C59_12 C 0.5607(5) 0.0607(5) 0.3798(11)
H36_12 H 0.5691 0.0691 0.3581
N6_12 N 0.5707(4) 0.0707(4) 0.4070(9)
C60_12 C 0.6139(4) 0.1139(4) 0.4370(11)
H37_12 H 0.6051 0.1051 0.4584
C61_12 C 0.6025(5) 0.1025(5) 0.4084(12)
C62_12 C 0.61182(17) 0.11182(17) 0.3731(12)
H38_12 H 0.6019 0.1019 0.3528
C63_12 C 0.7301(6) 0.2762(6) 0.3786(8)
H39_12 H 0.7231 0.2999 0.3804
C64_12 C 0.7064(6) 0.2495(6) 0.3788(7)
H40_12 H 0.6825 0.2547 0.3754
C66_12 C 0.5436(6) 0.0005(6) 0.3788(7)
Zr4_3 Zr 0.8750 0.31085(3) 0.3750
O4_11 O 0.8762(2) 0.92482(17) 0.78254(16)
C10_13 C 0.8701(3) 0.9561(3) 0.7939(3)
C11_13 C 0.8746(11) 0.9837(5) 0.7663(5)
C12_13 C 0.8714(8) 0.9738(6) 0.7301(6)
H6_13 H 0.8696 0.9501 0.7231
H7_13 H 0.8746 0.9953 0.6825
O6_13 O 0.8762(2) 0.96746(16) 0.82518(17)
O14_13 O 0.42482(17) 0.96746(16) 0.3738(2)
C54_13 C 0.4561(3) 0.9561(3) 0.3799(3)
C55_13 C 0.4837(5) 0.9837(5) 0.3754(11)
C65_12 C 0.5199(6) 0.9738(6) 0.3786(8)
H41_12 H 0.5269 0.9501 0.3804
H42_12 H 0.5675 0.9953 0.3754
C1_14 C 0.2939(3) 0.4561(3) 0.8701(3)
C2_14 C 0.2663(5) 0.4837(5) 0.8746(11)
C3_12 C 0.2762(6) 0.5199(6) 0.8714(8)
H1_12 H 0.2999 0.5269 0.8696
C4_13 C 0.2495(6) 0.5436(6) 0.8712(7)
H2_12 H 0.2547 0.5675 0.8746
C5_13 C 0.2159(5) 0.5341(5) 0.8664(11)
C6_13 C 0.1893(5) 0.5607(5) 0.8702(11)
H3_13 H 0.1809 0.5691 0.8919
N1_13 N 0.1793(4) 0.5707(4) 0.8430(9)
C7_13 C 0.1361(4) 0.6139(4) 0.8130(11)
H4_13 H 0.1449 0.6051 0.7916
C8_13 C 0.1475(5) 0.6025(5) 0.8416(12)
C9_13 C 0.13818(17) 0.61182(17) 0.8769(12)
H5_13 H 0.1481 0.6019 0.8972
C13_13 C 0.0005(6) 0.7064(6) 0.8712(7)
C14_13 C 0.0341(5) 0.7159(5) 0.8664(11)
C15_13 C 0.0607(5) 0.6893(5) 0.8702(11)
H8_13 H 0.0691 0.6809 0.8919
N2_13 N 0.0707(4) 0.6793(4) 0.8430(9)
C16_13 C 0.1139(4) 0.6361(4) 0.8130(11)
H9_13 H 0.1051 0.6449 0.7916
C17_13 C 0.1025(5) 0.6475(5) 0.8416(12)
C18_13 C 0.11182(17) 0.63818(17) 0.8769(12)
H10_13 H 0.1019 0.6481 0.8972
O5_8 O 0.28254(16) 0.42482(17) 0.8762(2)
C19_13 C 0.2301(6) 0.4738(6) 0.8714(8)
H11_13 H 0.2231 0.4501 0.8696
C20_13 C 0.2064(6) 0.5005(6) 0.8712(7)
H12_13 H 0.1825 0.4953 0.8746
C21_13 C 0.0199(6) 0.7762(6) 0.8714(8)
H13_13 H 0.0269 0.7999 0.8696
C22_13 C 0.0436(6) 0.7495(6) 0.8712(7)
H14_13 H 0.0675 0.7547 0.8746
O4_12 O 0.92482(17) 0.78254(16) 0.8762(2)
C10_14 C 0.9561(3) 0.7939(3) 0.8701(3)
C11_14 C 0.9837(5) 0.7663(5) 0.8746(11)
C12_14 C 0.9738(6) 0.7301(6) 0.8714(8)
H6_14 H 0.9501 0.7231 0.8696
H7_14 H 0.9953 0.6825 0.8746
O6_14 O 0.96746(16) 0.82518(17) 0.8762(2)
O1_8 O 0.9061(3) 0.8439(3) 0.9061(3)
O2_12 O 0.8429(4) 0.8429(4) 0.9071(4)
O7_8 O 0.8439(3) 0.8439(3) 0.8439(3)
O8_8 O 0.9071(4) 0.8429(4) 0.8429(4)
O17_8 O 0.8439(3) 0.9061(3) 0.9061(3)
O18_8 O 0.9061(3) 0.9061(3) 0.8439(3)
O19_8 O 0.8429(4) 0.9071(4) 0.8429(4)
O23_5 O 0.78254(16) 0.8738(2) 0.82518(17)
O25_8 O 0.8762(2) 0.78254(16) 0.92482(17)
O27_7 O 0.82518(17) 0.8738(2) 0.78254(16)
O13_8 O 0.8762(2) 0.42482(17) 0.28254(16)
C45_14 C 0.8701(3) 0.4561(3) 0.2939(3)
C46_14 C 0.8746(11) 0.4837(5) 0.2663(5)
C47_12 C 0.8714(8) 0.4738(6) 0.2301(6)
H29_12 H 0.8696 0.4501 0.2231
C48_13 C 0.8712(7) 0.5005(6) 0.2064(6)
H30_12 H 0.8746 0.4953 0.1825
C49_13 C 0.8664(11) 0.5341(5) 0.2159(5)
C50_13 C 0.8702(11) 0.5607(5) 0.1893(5)
H31_13 H 0.8919 0.5691 0.1809
N5_13 N 0.8430(9) 0.5707(4) 0.1793(4)
C51_13 C 0.8130(11) 0.6139(4) 0.1361(4)
H32_13 H 0.7916 0.6051 0.1449
C52_13 C 0.8416(12) 0.6025(5) 0.1475(5)
C53_13 C 0.8769(12) 0.61182(17) 0.13818(17)
H33_13 H 0.8972 0.6019 0.1481
C56_14 C 0.8714(8) 0.7762(6) 0.0199(6)
H34_14 H 0.8696 0.7999 0.0269
C57_13 C 0.8712(7) 0.7495(6) 0.0436(6)
H35_14 H 0.8746 0.7547 0.0675
C58_13 C 0.8664(11) 0.7159(5) 0.0341(5)
C59_13 C 0.8702(11) 0.6893(5) 0.0607(5)
H36_13 H 0.8919 0.6809 0.0691
N6_13 N 0.8430(9) 0.6793(4) 0.0707(4)
C60_13 C 0.8130(11) 0.6361(4) 0.1139(4)
H37_13 H 0.7916 0.6449 0.1051
C61_13 C 0.8416(12) 0.6475(5) 0.1025(5)
C62_13 C 0.8769(12) 0.63818(17) 0.11182(17)
H38_13 H 0.8972 0.6481 0.1019
C63_13 C 0.8714(8) 0.5199(6) 0.2762(6)
H39_13 H 0.8696 0.5269 0.2999
C64_13 C 0.8712(7) 0.5436(6) 0.2495(6)
H40_13 H 0.8746 0.5675 0.2547
C66_13 C 0.8712(7) 0.7064(6) 0.0005(6)
O14_14 O 0.8762(2) 0.82518(17) 0.96746(16)
C54_14 C 0.8701(3) 0.7939(3) 0.9561(3)
C55_14 C 0.8746(11) 0.7663(5) 0.9837(5)
C65_13 C 0.8714(8) 0.7301(6) 0.9738(6)
H41_13 H 0.8696 0.7231 0.9501
H42_13 H 0.8746 0.6825 0.9953
C23_14 C 0.4561(3) 0.8799(3) 0.4561(3)
C24_14 C 0.4837(5) 0.8754(11) 0.4837(5)
C25_13 C 0.5199(6) 0.8786(8) 0.4738(6)
H15_13 H 0.5269 0.8804 0.4501
C26_13 C 0.5436(6) 0.8788(7) 0.5005(6)
H16_13 H 0.5675 0.8754 0.4953
C27_13 C 0.5341(5) 0.8836(11) 0.5341(5)
C28_13 C 0.5607(5) 0.8798(11) 0.5607(5)
H17_13 H 0.5691 0.8581 0.5691
N3_13 N 0.5707(4) 0.9070(9) 0.5707(4)
C29_13 C 0.6139(4) 0.9370(11) 0.6139(4)
H18_13 H 0.6051 0.9584 0.6051
C30_13 C 0.6025(5) 0.9084(12) 0.6025(5)
C31_13 C 0.61182(17) 0.8731(12) 0.61182(17)
H19_13 H 0.6019 0.8528 0.6019
C32_14 C 0.7939(3) 0.8799(3) 0.7939(3)
C33_14 C 0.7663(5) 0.8754(11) 0.7663(5)
C34_13 C 0.7301(6) 0.8786(8) 0.7762(6)
H20_13 H 0.7231 0.8804 0.7999
C35_13 C 0.7064(6) 0.8788(7) 0.7495(6)
H21_13 H 0.6825 0.8754 0.7547
C36_13 C 0.7159(5) 0.8836(11) 0.7159(5)
C37_13 C 0.6893(5) 0.8798(11) 0.6893(5)
H22_13 H 0.6809 0.8581 0.6809
N4_13 N 0.6793(4) 0.9070(9) 0.6793(4)
C38_13 C 0.6361(4) 0.9370(11) 0.6361(4)
H23_13 H 0.6449 0.9584 0.6449
C39_13 C 0.6475(5) 0.9084(12) 0.6475(5)
C40_13 C 0.63818(17) 0.8731(12) 0.63818(17)
H24_13 H 0.6481 0.8528 0.6481
C41_12 C 0.4738(6) 0.8786(8) 0.5199(6)
H25_12 H 0.4501 0.8804 0.5269
C42_13 C 0.5005(6) 0.8788(7) 0.5436(6)
H26_12 H 0.4953 0.8754 0.5675
C43_14 C 0.7762(6) 0.8786(8) 0.7301(6)
H27_14 H 0.7999 0.8804 0.7231
C44_13 C 0.7495(6) 0.8788(7) 0.7064(6)
H28_14 H 0.7547 0.8754 0.6825
C4_14 C 0.0005(6) 0.0436(6) 0.8788(7)
C5_14 C 0.0341(5) 0.0341(5) 0.8836(11)
C6_14 C 0.0607(5) 0.0607(5) 0.8798(11)
H3_14 H 0.0691 0.0691 0.8581
N1_14 N 0.0707(4) 0.0707(4) 0.9070(9)
C7_14 C 0.1139(4) 0.1139(4) 0.9370(11)
H4_14 H 0.1051 0.1051 0.9584
C8_14 C 0.1025(5) 0.1025(5) 0.9084(12)
C9_14 C 0.11182(17) 0.11182(17) 0.8731(12)
H5_14 H 0.1019 0.1019 0.8528
O4_13 O 0.32518(17) 0.28254(16) 0.8738(2)
C10_15 C 0.2939(3) 0.2939(3) 0.8799(3)
C11_15 C 0.2663(5) 0.2663(5) 0.8754(11)
C12_15 C 0.2762(6) 0.2301(6) 0.8786(8)
H6_15 H 0.2999 0.2231 0.8804
C13_14 C 0.2495(6) 0.2064(6) 0.8788(7)
H7_15 H 0.2547 0.1825 0.8754
C14_14 C 0.2159(5) 0.2159(5) 0.8836(11)
C15_14 C 0.1893(5) 0.1893(5) 0.8798(11)
H8_14 H 0.1809 0.1809 0.8581
N2_14 N 0.1793(4) 0.1793(4) 0.9070(9)
C16_14 C 0.1361(4) 0.1361(4) 0.9370(11)
H9_14 H 0.1449 0.1449 0.9584
C17_14 C 0.1475(5) 0.1475(5) 0.9084(12)
C18_14 C 0.13818(17) 0.13818(17) 0.8731(12)
H10_14 H 0.1481 0.1481 0.8528
C20_14 C 0.0436(6) 0.0005(6) 0.8788(7)
O6_15 O 0.28254(16) 0.32518(17) 0.8738(2)
C21_14 C 0.2301(6) 0.2762(6) 0.8786(8)
H13_14 H 0.2231 0.2999 0.8804
C22_14 C 0.2064(6) 0.2495(6) 0.8788(7)
H14_14 H 0.1825 0.2547 0.8754
C48_14 C 0.0436(6) 0.8788(7) 0.0005(6)
C49_14 C 0.0341(5) 0.8836(11) 0.0341(5)
C50_14 C 0.0607(5) 0.8798(11) 0.0607(5)
H31_14 H 0.0691 0.8581 0.0691
N5_14 N 0.0707(4) 0.9070(9) 0.0707(4)
C51_14 C 0.1139(4) 0.9370(11) 0.1139(4)
H32_14 H 0.1051 0.9584 0.1051
C52_14 C 0.1025(5) 0.9084(12) 0.1025(5)
C53_14 C 0.11182(17) 0.8731(12) 0.11182(17)
H33_14 H 0.1019 0.8528 0.1019
O14_15 O 0.28254(16) 0.8738(2) 0.32518(17)
C54_15 C 0.2939(3) 0.8799(3) 0.2939(3)
C55_15 C 0.2663(5) 0.8754(11) 0.2663(5)
C56_15 C 0.2301(6) 0.8786(8) 0.2762(6)
H34_15 H 0.2231 0.8804 0.2999
C57_14 C 0.2064(6) 0.8788(7) 0.2495(6)
H35_15 H 0.1825 0.8754 0.2547
C58_14 C 0.2159(5) 0.8836(11) 0.2159(5)
C59_14 C 0.1893(5) 0.8798(11) 0.1893(5)
H36_14 H 0.1809 0.8581 0.1809
N6_14 N 0.1793(4) 0.9070(9) 0.1793(4)
C60_14 C 0.1361(4) 0.9370(11) 0.1361(4)
H37_14 H 0.1449 0.9584 0.1449
C61_14 C 0.1475(5) 0.9084(12) 0.1475(5)
C62_14 C 0.13818(17) 0.8731(12) 0.13818(17)
H38_14 H 0.1481 0.8528 0.1481
C64_14 C 0.0005(6) 0.8788(7) 0.0436(6)
O16_13 O 0.32518(17) 0.8738(2) 0.28254(16)
C65_14 C 0.2762(6) 0.8786(8) 0.2301(6)
H41_14 H 0.2999 0.8804 0.2231
C66_14 C 0.2495(6) 0.8788(7) 0.2064(6)
H42_14 H 0.2547 0.8754 0.1825
C26_14 C 0.8788(7) 0.0005(6) 0.0436(6)
C27_14 C 0.8836(11) 0.0341(5) 0.0341(5)
C28_14 C 0.8798(11) 0.0607(5) 0.0607(5)
H17_14 H 0.8581 0.0691 0.0691
N3_14 N 0.9070(9) 0.0707(4) 0.0707(4)
C29_14 C 0.9370(11) 0.1139(4) 0.1139(4)
H18_14 H 0.9584 0.1051 0.1051
C30_14 C 0.9084(12) 0.1025(5) 0.1025(5)
C31_14 C 0.8731(12) 0.11182(17) 0.11182(17)
H19_14 H 0.8528 0.1019 0.1019
O10_12 O 0.8738(2) 0.32518(17) 0.28254(16)
C32_15 C 0.8799(3) 0.2939(3) 0.2939(3)
C33_15 C 0.8754(11) 0.2663(5) 0.2663(5)
C34_14 C 0.8786(8) 0.2762(6) 0.2301(6)
H20_14 H 0.8804 0.2999 0.2231
C35_14 C 0.8788(7) 0.2495(6) 0.2064(6)
H21_14 H 0.8754 0.2547 0.1825
C36_14 C 0.8836(11) 0.2159(5) 0.2159(5)
C37_14 C 0.8798(11) 0.1893(5) 0.1893(5)
H22_14 H 0.8581 0.1809 0.1809
N4_14 N 0.9070(9) 0.1793(4) 0.1793(4)
C38_14 C 0.9370(11) 0.1361(4) 0.1361(4)
H23_14 H 0.9584 0.1449 0.1449
C39_14 C 0.9084(12) 0.1475(5) 0.1475(5)
C40_14 C 0.8731(12) 0.13818(17) 0.13818(17)
H24_14 H 0.8528 0.1481 0.1481
C42_14 C 0.8788(7) 0.0436(6) 0.0005(6)
O12_12 O 0.8738(2) 0.28254(16) 0.32518(17)
C43_15 C 0.8786(8) 0.2301(6) 0.2762(6)
H27_15 H 0.8804 0.2231 0.2999
C44_14 C 0.8788(7) 0.2064(6) 0.2495(6)
H28_15 H 0.8754 0.1825 0.2547
O3_7 O 0.92482(17) 0.96746(16) 0.8738(2)
C1_15 C 0.9561(3) 0.9561(3) 0.8799(3)
C2_15 C 0.9837(5) 0.9837(5) 0.8754(11)
O5_9 O 0.96746(16) 0.92482(17) 0.8738(2)
O8_9 O 0.9071(4) 0.9071(4) 0.9071(4)
O9_8 O 0.8738(2) 0.92482(17) 0.96746(16)
C23_15 C 0.8799(3) 0.9561(3) 0.9561(3)
C24_15 C 0.8754(11) 0.9837(5) 0.9837(5)
O11_8 O 0.8738(2) 0.96746(16) 0.92482(17)
O13_9 O 0.96746(16) 0.8738(2) 0.92482(17)
C45_15 C 0.9561(3) 0.8799(3) 0.9561(3)
C46_15 C 0.9837(5) 0.8754(11) 0.9837(5)
O15_7 O 0.92482(17) 0.8738(2) 0.96746(16)
O8_10 O 0.3429(4) 0.3429(4) 0.9071(4)
O9_9 O 0.3762(2) 0.32518(17) 0.96746(16)
C23_16 C 0.3701(3) 0.2939(3) 0.9561(3)
C24_16 C 0.3746(11) 0.2663(5) 0.9837(5)
O11_9 O 0.3762(2) 0.28254(16) 0.92482(17)
C41_13 C 0.3714(8) 0.2301(6) 0.9738(6)
H25_13 H 0.3696 0.2231 0.9501
H26_13 H 0.3746 0.1825 0.9953
O13_10 O 0.28254(16) 0.3762(2) 0.92482(17)
C45_16 C 0.2939(3) 0.3701(3) 0.9561(3)
C46_16 C 0.2663(5) 0.3746(11) 0.9837(5)
C47_13 C 0.2301(6) 0.3714(8) 0.9738(6)
H29_13 H 0.2231 0.3696 0.9501
H30_13 H 0.1825 0.3746 0.9953
O15_8 O 0.32518(17) 0.3762(2) 0.96746(16)
O10_13 O 0.3762(2) 0.92482(17) 0.28254(16)
C32_16 C 0.3701(3) 0.9561(3) 0.2939(3)
C33_16 C 0.3746(11) 0.9837(5) 0.2663(5)
C34_15 C 0.3714(8) 0.9738(6) 0.2301(6)
H20_15 H 0.3696 0.9501 0.2231
H21_15 H 0.3746 0.9953 0.1825
O12_13 O 0.3762(2) 0.96746(16) 0.32518(17)
O14_16 O 0.96746(16) 0.3762(2) 0.32518(17)
C54_16 C 0.9561(3) 0.3701(3) 0.2939(3)
C55_16 C 0.9837(5) 0.3746(11) 0.2663(5)
O16_14 O 0.92482(17) 0.3762(2) 0.28254(16)
C65_15 C 0.9738(6) 0.3714(8) 0.2301(6)
H41_15 H 0.9501 0.3696 0.2231
H42_15 H 0.9953 0.3746 0.1825
O19_9 O 0.3429(4) 0.9071(4) 0.3429(4)
O22_8 O 0.32518(17) 0.96746(16) 0.3762(2)
C1_16 C 0.2939(3) 0.9561(3) 0.3701(3)
C2_16 C 0.2663(5) 0.9837(5) 0.3746(11)
O5_10 O 0.28254(16) 0.92482(17) 0.3762(2)
C19_14 C 0.2301(6) 0.9738(6) 0.3714(8)
H11_14 H 0.2231 0.9501 0.3696
H12_14 H 0.1825 0.9953 0.3746
O4_14 O 0.92482(17) 0.28254(16) 0.3762(2)
C10_16 C 0.9561(3) 0.2939(3) 0.3701(3)
C11_16 C 0.9837(5) 0.2663(5) 0.3746(11)
C12_16 C 0.9738(6) 0.2301(6) 0.3714(8)
H6_16 H 0.9501 0.2231 0.3696
H7_16 H 0.9953 0.1825 0.3746
O6_16 O 0.96746(16) 0.32518(17) 0.3762(2)
O8_11 O 0.9071(4) 0.3429(4) 0.3429(4)
C25_14 C 0.0262(6) 0.1214(8) 0.9801(6)
H15_14 H 0.0499 0.1196 0.9731
H16_14 H 0.0047 0.1246 0.9325
C63_14 C 0.1214(8) 0.0262(6) 0.9801(6)
H39_14 H 0.1196 0.0499 0.9731
H40_14 H 0.1246 0.0047 0.9325
C19_15 C 0.0262(6) 0.9801(6) 0.1214(8)
H11_15 H 0.0499 0.9731 0.1196
H12_15 H 0.0047 0.9325 0.1246
C47_14 C 0.1214(8) 0.9801(6) 0.0262(6)
H29_14 H 0.1196 0.9731 0.0499
H30_14 H 0.1246 0.9325 0.0047
C3_13 C 0.9801(6) 0.0262(6) 0.1214(8)
H1_13 H 0.9731 0.0499 0.1196
H2_13 H 0.9325 0.0047 0.1246
C41_14 C 0.9801(6) 0.1214(8) 0.0262(6)
H25_14 H 0.9731 0.1196 0.0499
H26_14 H 0.9325 0.1246 0.0047
C19_16 C 0.0199(6) 0.9738(6) 0.8786(8)
H11_16 H 0.0269 0.9501 0.8804
H12_16 H 0.0675 0.9953 0.8754
C47_15 C 0.0199(6) 0.8786(8) 0.9738(6)
H29_15 H 0.0269 0.8804 0.9501
H30_15 H 0.0675 0.8754 0.9953
C3_14 C 0.9738(6) 0.0199(6) 0.8786(8)
H1_14 H 0.9501 0.0269 0.8804
H2_14 H 0.9953 0.0675 0.8754
C41_15 C 0.8786(8) 0.0199(6) 0.9738(6)
H25_15 H 0.8804 0.0269 0.9501
H26_15 H 0.8754 0.0675 0.9953
C25_15 C 0.8786(8) 0.9738(6) 0.0199(6)
H15_15 H 0.8804 0.9501 0.0269
H16_15 H 0.8754 0.9953 0.0675
C63_15 C 0.9738(6) 0.8786(8) 0.0199(6)
H39_15 H 0.9501 0.8804 0.0269
H40_15 H 0.9953 0.8754 0.0675
C3_15 C 0.9801(6) 0.7238(6) 0.6286(8)
H1_15 H 0.9731 0.7001 0.6304
C4_15 C 0.9564(6) 0.7505(6) 0.6288(7)
H2_15 H 0.9325 0.7453 0.6254
C5_15 C 0.9659(5) 0.7841(5) 0.6336(11)
C6_15 C 0.9393(5) 0.8107(5) 0.6298(11)
H3_15 H 0.9309 0.8191 0.6081
N1_15 N 0.9293(4) 0.8207(4) 0.6570(9)
C7_15 C 0.8861(4) 0.8639(4) 0.6870(11)
H4_15 H 0.8949 0.8551 0.7084
C8_15 C 0.8975(5) 0.8525(5) 0.6584(12)
C9_15 C 0.88818(17) 0.86182(17) 0.6231(12)
H5_15 H 0.8981 0.8519 0.6028
C13_15 C 0.7936(6) 0.9995(6) 0.6288(7)
C14_15 C 0.7841(5) 0.9659(5) 0.6336(11)
C15_15 C 0.8107(5) 0.9393(5) 0.6298(11)
H8_15 H 0.8191 0.9309 0.6081
N2_15 N 0.8207(4) 0.9293(4) 0.6570(9)
C16_15 C 0.8639(4) 0.8861(4) 0.6870(11)
H9_15 H 0.8551 0.8949 0.7084
C17_15 C 0.8525(5) 0.8975(5) 0.6584(12)
C18_15 C 0.86182(17) 0.88818(17) 0.6231(12)
H10_15 H 0.8519 0.8981 0.6028
C20_15 C 0.9995(6) 0.7936(6) 0.6288(7)
C21_15 C 0.7238(6) 0.9801(6) 0.6286(8)
H13_15 H 0.7001 0.9731 0.6304
C22_15 C 0.7505(6) 0.9564(6) 0.6288(7)
H14_15 H 0.7453 0.9325 0.6254
C26_15 C 0.9995(6) 0.6288(7) 0.7936(6)
C27_15 C 0.9659(5) 0.6336(11) 0.7841(5)
C28_15 C 0.9393(5) 0.6298(11) 0.8107(5)
H17_15 H 0.9309 0.6081 0.8191
N3_15 N 0.9293(4) 0.6570(9) 0.8207(4)
C29_15 C 0.8861(4) 0.6870(11) 0.8639(4)
H18_15 H 0.8949 0.7084 0.8551
C30_15 C 0.8975(5) 0.6584(12) 0.8525(5)
C31_15 C 0.88818(17) 0.6231(12) 0.86182(17)
H19_15 H 0.8981 0.6028 0.8519
C34_16 C 0.7238(6) 0.6286(8) 0.9801(6)
H20_16 H 0.7001 0.6304 0.9731
C35_15 C 0.7505(6) 0.6288(7) 0.9564(6)
H21_16 H 0.7453 0.6254 0.9325
C36_15 C 0.7841(5) 0.6336(11) 0.9659(5)
C37_15 C 0.8107(5) 0.6298(11) 0.9393(5)
H22_15 H 0.8191 0.6081 0.9309
N4_15 N 0.8207(4) 0.6570(9) 0.9293(4)
C38_15 C 0.8639(4) 0.6870(11) 0.8861(4)
H23_15 H 0.8551 0.7084 0.8949
C39_15 C 0.8525(5) 0.6584(12) 0.8975(5)
C40_15 C 0.86182(17) 0.6231(12) 0.88818(17)
H24_15 H 0.8519 0.6028 0.8981
C41_16 C 0.9801(6) 0.6286(8) 0.7238(6)
H25_16 H 0.9731 0.6304 0.7001
C42_15 C 0.9564(6) 0.6288(7) 0.7505(6)
H26_16 H 0.9325 0.6254 0.7453
C44_15 C 0.7936(6) 0.6288(7) 0.9995(6)
C47_16 C 0.6286(8) 0.9801(6) 0.7238(6)
H29_16 H 0.6304 0.9731 0.7001
C48_15 C 0.6288(7) 0.9564(6) 0.7505(6)
H30_16 H 0.6254 0.9325 0.7453
C49_15 C 0.6336(11) 0.9659(5) 0.7841(5)
C50_15 C 0.6298(11) 0.9393(5) 0.8107(5)
H31_15 H 0.6081 0.9309 0.8191
N5_15 N 0.6570(9) 0.9293(4) 0.8207(4)
C51_15 C 0.6870(11) 0.8861(4) 0.8639(4)
H32_15 H 0.7084 0.8949 0.8551
C52_15 C 0.6584(12) 0.8975(5) 0.8525(5)
C53_15 C 0.6231(12) 0.88818(17) 0.86182(17)
H33_15 H 0.6028 0.8981 0.8519
C57_15 C 0.6288(7) 0.7936(6) 0.9995(6)
C58_15 C 0.6336(11) 0.7841(5) 0.9659(5)
C59_15 C 0.6298(11) 0.8107(5) 0.9393(5)
H36_15 H 0.6081 0.8191 0.9309
N6_15 N 0.6570(9) 0.8207(4) 0.9293(4)
C60_15 C 0.6870(11) 0.8639(4) 0.8861(4)
H37_15 H 0.7084 0.8551 0.8949
C61_15 C 0.6584(12) 0.8525(5) 0.8975(5)
C62_15 C 0.6231(12) 0.86182(17) 0.88818(17)
H38_15 H 0.6028 0.8519 0.8981
C64_15 C 0.6288(7) 0.9995(6) 0.7936(6)
C65_16 C 0.6286(8) 0.7238(6) 0.9801(6)
H41_16 H 0.6304 0.7001 0.9731
C66_15 C 0.6288(7) 0.7505(6) 0.9564(6)
H42_16 H 0.6254 0.7453 0.9325
C25_16 C 0.3714(8) 0.2762(6) 0.0199(6)
H15_16 H 0.3696 0.2999 0.0269
C26_16 C 0.3712(7) 0.2495(6) 0.0436(6)
H16_16 H 0.3746 0.2547 0.0675
C27_16 C 0.3664(11) 0.2159(5) 0.0341(5)
C28_16 C 0.3702(11) 0.1893(5) 0.0607(5)
H17_16 H 0.3919 0.1809 0.0691
N3_16 N 0.3430(9) 0.1793(4) 0.0707(4)
C29_16 C 0.3130(11) 0.1361(4) 0.1139(4)
H18_16 H 0.2916 0.1449 0.1051
C30_16 C 0.3416(12) 0.1475(5) 0.1025(5)
C31_16 C 0.3769(12) 0.13818(17) 0.11182(17)
H19_16 H 0.3972 0.1481 0.1019
C35_16 C 0.3712(7) 0.0005(6) 0.2064(6)
C36_16 C 0.3664(11) 0.0341(5) 0.2159(5)
C37_16 C 0.3702(11) 0.0607(5) 0.1893(5)
H22_16 H 0.3919 0.0691 0.1809
N4_16 N 0.3430(9) 0.0707(4) 0.1793(4)
C38_16 C 0.3130(11) 0.1139(4) 0.1361(4)
H23_16 H 0.2916 0.1051 0.1449
C39_16 C 0.3416(12) 0.1025(5) 0.1475(5)
C40_16 C 0.3769(12) 0.11182(17) 0.13818(17)
H24_16 H 0.3972 0.1019 0.1481
C42_16 C 0.3712(7) 0.2064(6) 0.0005(6)
C43_16 C 0.3714(8) 0.0199(6) 0.2762(6)
H27_16 H 0.3696 0.0269 0.2999
C44_16 C 0.3712(7) 0.0436(6) 0.2495(6)
H28_16 H 0.3746 0.0675 0.2547
C48_16 C 0.2064(6) 0.3712(7) 0.0005(6)
C49_16 C 0.2159(5) 0.3664(11) 0.0341(5)
C50_16 C 0.1893(5) 0.3702(11) 0.0607(5)
H31_16 H 0.1809 0.3919 0.0691
N5_16 N 0.1793(4) 0.3430(9) 0.0707(4)
C51_16 C 0.1361(4) 0.3130(11) 0.1139(4)
H32_16 H 0.1449 0.2916 0.1051
C52_16 C 0.1475(5) 0.3416(12) 0.1025(5)
C53_16 C 0.13818(17) 0.3769(12) 0.11182(17)
H33_16 H 0.1481 0.3972 0.1019
C56_16 C 0.0199(6) 0.3714(8) 0.2762(6)
H34_16 H 0.0269 0.3696 0.2999
C57_16 C 0.0436(6) 0.3712(7) 0.2495(6)
H35_16 H 0.0675 0.3746 0.2547
C58_16 C 0.0341(5) 0.3664(11) 0.2159(5)
C59_16 C 0.0607(5) 0.3702(11) 0.1893(5)
H36_16 H 0.0691 0.3919 0.1809
N6_16 N 0.0707(4) 0.3430(9) 0.1793(4)
C60_16 C 0.1139(4) 0.3130(11) 0.1361(4)
H37_16 H 0.1051 0.2916 0.1449
C61_16 C 0.1025(5) 0.3416(12) 0.1475(5)
C62_16 C 0.11182(17) 0.3769(12) 0.13818(17)
H38_16 H 0.1019 0.3972 0.1481
C63_16 C 0.2762(6) 0.3714(8) 0.0199(6)
H39_16 H 0.2999 0.3696 0.0269
C64_16 C 0.2495(6) 0.3712(7) 0.0436(6)
H40_16 H 0.2547 0.3746 0.0675
C66_16 C 0.0005(6) 0.3712(7) 0.2064(6)
C3_16 C 0.2762(6) 0.0199(6) 0.3714(8)
H1_16 H 0.2999 0.0269 0.3696
C4_16 C 0.2495(6) 0.0436(6) 0.3712(7)
H2_16 H 0.2547 0.0675 0.3746
C5_16 C 0.2159(5) 0.0341(5) 0.3664(11)
C6_16 C 0.1893(5) 0.0607(5) 0.3702(11)
H3_16 H 0.1809 0.0691 0.3919
N1_16 N 0.1793(4) 0.0707(4) 0.3430(9)
C7_16 C 0.1361(4) 0.1139(4) 0.3130(11)
H4_16 H 0.1449 0.1051 0.2916
C8_16 C 0.1475(5) 0.1025(5) 0.3416(12)
C9_16 C 0.13818(17) 0.11182(17) 0.3769(12)
H5_16 H 0.1481 0.1019 0.3972
C13_16 C 0.0005(6) 0.2064(6) 0.3712(7)
C14_16 C 0.0341(5) 0.2159(5) 0.3664(11)
C15_16 C 0.0607(5) 0.1893(5) 0.3702(11)
H8_16 H 0.0691 0.1809 0.3919
N2_16 N 0.0707(4) 0.1793(4) 0.3430(9)
C16_16 C 0.1139(4) 0.1361(4) 0.3130(11)
H9_16 H 0.1051 0.1449 0.2916
C17_16 C 0.1025(5) 0.1475(5) 0.3416(12)
C18_16 C 0.11182(17) 0.13818(17) 0.3769(12)
H10_16 H 0.1019 0.1481 0.3972
C20_16 C 0.2064(6) 0.0005(6) 0.3712(7)
C21_16 C 0.0199(6) 0.2762(6) 0.3714(8)
H13_16 H 0.0269 0.2999 0.3696
C22_16 C 0.0436(6) 0.2495(6) 0.3712(7)
H14_16 H 0.0675 0.2547 0.3746
loop_
_geom_bond_atom_site_label_1
_geom_bond_atom_site_label_2
_geom_bond_site_symmetry_1
_geom_bond_site_symmetry_2
Zr1 O1 1_555 1_555
O1 Zr4 1_555 1_555
O2 Zr1 1_555 1_555
O3 Zr1 1_555 1_555
C1 O3 1_555 1_555
C2 C1 1_555 1_555
C3 C2 1_555 1_555
H1 C3 1_555 1_555
O5 C1 1_555 1_555
O7 Zr1 1_555 1_555
O8 Zr1 1_555 1_555
Zr2 O2 1_555 1_555
Zr3 O7 1_555 1_555
O9 Zr3 1_555 1_555
C23 O9 1_555 1_555
C24 C23 1_555 1_555
C25 C24 1_555 1_555
H15 C25 1_555 1_555
C26 C25 1_555 1_555
H16 C26 1_555 1_555
C27 C26 1_555 1_555
C28 C27 1_555 1_555
H17 C28 1_555 1_555
N3 C28 1_555 1_555
C29 H18 1_555 1_555
C30 N3 1_555 1_555
C31 C30 1_555 1_555
H19 C31 1_555 1_555
O10 C32 1_555 1_555
C32 C33 1_555 1_555
C33 C34 1_555 1_555
C34 H20 1_555 1_555
C35 C34 1_555 1_555
H21 C35 1_555 1_555
C36 C35 1_555 1_555
C37 C36 1_555 1_555
H22 C37 1_555 1_555
N4 C37 1_555 1_555
C38 C29 1_555 1_555
H23 C38 1_555 1_555
C39 N4 1_555 1_555
C40 C31 1_555 1_555
H24 C40 1_555 1_555
O11 Zr1 1_555 1_555
C41 C24 1_555 1_555
H25 C41 1_555 1_555
C42 C27 1_555 1_555
H26 C42 1_555 1_555
O12 C32 1_555 1_555
C43 C33 1_555 1_555
H27 C43 1_555 1_555
C44 C36 1_555 1_555
H28 C44 1_555 1_555
O13 C45 1_555 1_555
C45 C46 1_555 1_555
O15 Zr3 1_555 1_555
C63 C46 1_555 1_555
H39 C63 1_555 1_555
Zr4 O5 1_555 1_555
Zr5 O1 1_555 1_555
Zr8 O12 1_555 1_555
Zr9 O10 1_555 1_555
O17 Zr2 1_555 1_555
O18 Zr3 1_555 1_555
O19 Zr2 1_555 1_555
O20 Zr1 1_555 1_555
O21 Zr2 1_555 1_555
O22 Zr3 1_555 1_555
O23 Zr2 1_555 1_555
O24 Zr2 1_555 1_555
O25 Zr1 1_555 1_555
O26 Zr2 1_555 1_555
O27 Zr3 1_555 1_555
O2 Zr5 1_555 1_555
O7 Zr2 1_555 1_555
O8 Zr3 1_555 1_555
O8 Zr4 1_555 1_555
Zr3 O19 1_555 1_555
C23 O11 1_555 1_555
C29 C30 1_555 1_555
C38 C39 1_555 1_555
C39 C40 1_555 1_555
C41 C42 1_555 1_555
C43 C44 1_555 1_555
O13 Zr4 1_555 1_555
C45 O15 1_555 1_555
Zr4 O18 1_555 1_555
Zr5 O17 1_555 1_555
C5 C4 1_555 1_555
C6 C5 1_555 1_555
H3 C6 1_555 1_555
N1 C6 1_555 1_555
C7 H4 1_555 1_555
C8 N1 1_555 1_555
C9 C8 1_555 1_555
H5 C9 1_555 1_555
O4 C10 1_555 1_555
C10 C11 1_555 1_555
C11 C12 1_555 1_555
C12 H6 1_555 1_555
C13 C12 1_555 1_555
H7 C13 1_555 1_555
C14 C13 1_555 1_555
C15 C14 1_555 1_555
H8 C15 1_555 1_555
N2 C15 1_555 1_555
C16 C7 1_555 1_555
H9 C16 1_555 1_555
C17 N2 1_555 1_555
C18 C9 1_555 1_555
H10 C18 1_555 1_555
H11 C19 1_555 1_555
C20 C5 1_555 1_555
H12 C20 1_555 1_555
O6 C10 1_555 1_555
C21 C11 1_555 1_555
H13 C21 1_555 1_555
C22 C14 1_555 1_555
H14 C22 1_555 1_555
C47 H29 1_555 1_555
C48 C47 1_555 1_555
H30 C48 1_555 1_555
C49 C48 1_555 1_555
C50 C49 1_555 1_555
H31 C50 1_555 1_555
N5 C50 1_555 1_555
C51 H32 1_555 1_555
C52 N5 1_555 1_555
C53 C52 1_555 1_555
H33 C53 1_555 1_555
O14 C54 1_555 1_555
C54 C55 1_555 1_555
C55 C56 1_555 1_555
C56 H34 1_555 1_555
C57 C56 1_555 1_555
H35 C57 1_555 1_555
C58 C57 1_555 1_555
C59 C58 1_555 1_555
H36 C59 1_555 1_555
N6 C59 1_555 1_555
C60 C51 1_555 1_555
H37 C60 1_555 1_555
C61 N6 1_555 1_555
C62 C53 1_555 1_555
H38 C62 1_555 1_555
C64 C49 1_555 1_555
O16 C54 1_555 1_555
C65 C55 1_555 1_555
H41 C65 1_555 1_555
C66 C58 1_555 1_555
H42 C66 1_555 1_555
Zr6 O14 1_555 1_555
Zr7 O16 1_555 1_555
Zr10 O4 1_555 1_555
Zr11 O6 1_555 1_555
C7 C8 1_555 1_555
C16 C17 1_555 1_555
C17 C18 1_555 1_555
C19 C20 1_555 1_555
C21 C22 1_555 1_555
C51 C52 1_555 1_555
C60 C61 1_555 1_555
C61 C62 1_555 1_555
C65 C66 1_555 1_555
Zr1_2 O17 1_555 1_555
O2_2 Zr1_2 1_555 1_555
O3_2 Zr1_2 1_555 1_555
C1_2 O3_2 1_555 1_555
C2_2 C1_2 1_555 1_555
O24 C1_2 1_555 1_555
C19_2 C2_2 1_555 1_555
H11_2 C19_2 1_555 1_555
O18 Zr1_2 1_555 1_555
O19 Zr1_2 1_555 1_555
Zr4 O2_2 1_555 1_555
C23_2 O22 1_555 1_555
C24_2 C23_2 1_555 1_555
C25_2 C24_2 1_555 1_555
H15_2 C25_2 1_555 1_555
O11_2 Zr1_2 1_555 1_555
O23 C45_2 1_555 1_555
C45_2 C46_2 1_555 1_555
C46_2 C47_2 1_555 1_555
C47_2 H29_2 1_555 1_555
C48_2 C47_2 1_555 1_555
H30_2 C48_2 1_555 1_555
C49_2 C48_2 1_555 1_555
C50_2 C49_2 1_555 1_555
H31_2 C50_2 1_555 1_555
N5_2 C50_2 1_555 1_555
C51_2 H32_2 1_555 1_555
C52_2 N5_2 1_555 1_555
C53_2 C52_2 1_555 1_555
H33_2 C53_2 1_555 1_555
O14_2 C54_2 1_555 1_555
C54_2 C55_2 1_555 1_555
C55_2 C56_2 1_555 1_555
C56_2 H34_2 1_555 1_555
C57_2 C56_2 1_555 1_555
H35_2 C57_2 1_555 1_555
C58_2 C57_2 1_555 1_555
C59_2 C58_2 1_555 1_555
H36_2 C59_2 1_555 1_555
N6_2 C59_2 1_555 1_555
C60_2 C51_2 1_555 1_555
H37_2 C60_2 1_555 1_555
C61_2 N6_2 1_555 1_555
C62_2 C53_2 1_555 1_555
H38_2 C62_2 1_555 1_555
C63_2 C46_2 1_555 1_555
H39_2 C63_2 1_555 1_555
C64_2 C49_2 1_555 1_555
H40_2 C64_2 1_555 1_555
O16_2 C54_2 1_555 1_555
C65_2 C55_2 1_555 1_555
H41_2 C65_2 1_555 1_555
C66_2 C58_2 1_555 1_555
H42_2 C66_2 1_555 1_555
Zr6_2 O14_2 1_555 1_555
Zr7 O16_2 1_555 1_555
O20_2 Zr1_2 1_555 1_555
O21_2 Zr4 1_555 1_555
O25_2 Zr1_2 1_555 1_555
O26_2 Zr4 1_555 1_555
O2_2 Zr5 1_555 1_555
C23_2 O11_2 1_555 1_555
C45_2 O27 1_555 1_555
C51_2 C52_2 1_555 1_555
C60_2 C61_2 1_555 1_555
C61_2 C62_2 1_555 1_555
C63_2 C64_2 1_555 1_555
C65_2 C66_2 1_555 1_555
H1_2 C3_2 1_555 1_555
C4_2 C3_2 1_555 1_555
H2_2 C4_2 1_555 1_555
C5_2 C4_2 1_555 1_555
C6_2 C5_2 1_555 1_555
H3_2 C6_2 1_555 1_555
N1_2 C6_2 1_555 1_555
C7_2 H4_2 1_555 1_555
C8_2 N1_2 1_555 1_555
C9_2 C8_2 1_555 1_555
H5_2 C9_2 1_555 1_555
O4_2 C10_2 1_555 1_555
C10_2 C11_2 1_555 1_555
C11_2 C12_2 1_555 1_555
C12_2 H6_2 1_555 1_555
C13_2 C12_2 1_555 1_555
H7_2 C13_2 1_555 1_555
C14_2 C13_2 1_555 1_555
C15_2 C14_2 1_555 1_555
H8_2 C15_2 1_555 1_555
N2_2 C15_2 1_555 1_555
C16_2 C7_2 1_555 1_555
H9_2 C16_2 1_555 1_555
C17_2 N2_2 1_555 1_555
C18_2 C9_2 1_555 1_555
H10_2 C18_2 1_555 1_555
C20_2 C5_2 1_555 1_555
O6_2 C10_2 1_555 1_555
C21_2 C11_2 1_555 1_555
H13_2 C21_2 1_555 1_555
C22_2 C14_2 1_555 1_555
H14_2 C22_2 1_555 1_555
C27_2 C26_2 1_555 1_555
C28_2 C27_2 1_555 1_555
H17_2 C28_2 1_555 1_555
N3_2 C28_2 1_555 1_555
C29_2 H18_2 1_555 1_555
C30_2 N3_2 1_555 1_555
C31_2 C30_2 1_555 1_555
H19_2 C31_2 1_555 1_555
O10_2 C32_2 1_555 1_555
C32_2 C33_2 1_555 1_555
C33_2 C34_2 1_555 1_555
C34_2 H20_2 1_555 1_555
C35_2 C34_2 1_555 1_555
H21_2 C35_2 1_555 1_555
C36_2 C35_2 1_555 1_555
C37_2 C36_2 1_555 1_555
H22_2 C37_2 1_555 1_555
N4_2 C37_2 1_555 1_555
C38_2 C29_2 1_555 1_555
H23_2 C38_2 1_555 1_555
C39_2 N4_2 1_555 1_555
C40_2 C31_2 1_555 1_555
H24_2 C40_2 1_555 1_555
H25_2 C41_2 1_555 1_555
C42_2 C27_2 1_555 1_555
H26_2 C42_2 1_555 1_555
O12_2 C32_2 1_555 1_555
C43_2 C33_2 1_555 1_555
H27_2 C43_2 1_555 1_555
C44_2 C36_2 1_555 1_555
H28_2 C44_2 1_555 1_555
Zr8_2 O12_2 1_555 1_555
Zr9 O10_2 1_555 1_555
Zr10_2 O4_2 1_555 1_555
Zr11_2 O6_2 1_555 1_555
C7_2 C8_2 1_555 1_555
C16_2 C17_2 1_555 1_555
C17_2 C18_2 1_555 1_555
C21_2 C22_2 1_555 1_555
C29_2 C30_2 1_555 1_555
C38_2 C39_2 1_555 1_555
C39_2 C40_2 1_555 1_555
C41_2 C42_2 1_555 1_555
C43_2 C44_2 1_555 1_555
C1_3 O20 1_555 1_555
C2_3 C1_3 1_555 1_555
C3_3 C2_3 1_555 1_555
H1_3 C3_3 1_555 1_555
C4_3 C3_3 1_555 1_555
H2_3 C4_3 1_555 1_555
C5_3 C4_3 1_555 1_555
C6_3 C5_3 1_555 1_555
H3_3 C6_3 1_555 1_555
N1_3 C6_3 1_555 1_555
C7_3 H4_3 1_555 1_555
C8_3 N1_3 1_555 1_555
C9_3 C8_3 1_555 1_555
H5_3 C9_3 1_555 1_555
O4_3 C10_3 1_555 1_555
C10_3 C11_3 1_555 1_555
C11_3 C12_3 1_555 1_555
C12_3 H6_3 1_555 1_555
C13_3 C12_3 1_555 1_555
H7_3 C13_3 1_555 1_555
C14_3 C13_3 1_555 1_555
C15_3 C14_3 1_555 1_555
H8_3 C15_3 1_555 1_555
N2_3 C15_3 1_555 1_555
C16_3 C7_3 1_555 1_555
H9_3 C16_3 1_555 1_555
C17_3 N2_3 1_555 1_555
C18_3 C9_3 1_555 1_555
H10_3 C18_3 1_555 1_555
O26 C1_3 1_555 1_555
C19_3 C2_3 1_555 1_555
H11_3 C19_3 1_555 1_555
C20_3 C5_3 1_555 1_555
H12_3 C20_3 1_555 1_555
O6_3 C10_3 1_555 1_555
C21_3 C11_3 1_555 1_555
H13_3 C21_3 1_555 1_555
C22_3 C14_3 1_555 1_555
H14_3 C22_3 1_555 1_555
O9_2 Zr5 1_555 1_555
C23_3 O9_2 1_555 1_555
C24_3 C23_3 1_555 1_555
C41_3 C24_3 1_555 1_555
H25_3 C41_3 1_555 1_555
O21 C45_3 1_555 1_555
C45_3 C46_3 1_555 1_555
C46_3 C47_3 1_555 1_555
C47_3 H29_3 1_555 1_555
O15_2 Zr5 1_555 1_555
Zr10 O4_3 1_555 1_555
Zr11_2 O6_3 1_555 1_555
O22_2 Zr5 1_555 1_555
O27_2 Zr5 1_555 1_555
C7_3 C8_3 1_555 1_555
C16_3 C17_3 1_555 1_555
C17_3 C18_3 1_555 1_555
C19_3 C20_3 1_555 1_555
C21_3 C22_3 1_555 1_555
C23_3 O25 1_555 1_555
C45_3 O15_2 1_555 1_555
H15_3 C25_3 1_555 1_555
C26_3 C25_3 1_555 1_555
H16_3 C26_3 1_555 1_555
C27_3 C26_3 1_555 1_555
C28_3 C27_3 1_555 1_555
H17_3 C28_3 1_555 1_555
N3_3 C28_3 1_555 1_555
C29_3 H18_3 1_555 1_555
C30_3 N3_3 1_555 1_555
C31_3 C30_3 1_555 1_555
H19_3 C31_3 1_555 1_555
O10_3 C32_3 1_555 1_555
C32_3 C33_3 1_555 1_555
C33_3 C34_3 1_555 1_555
C34_3 H20_3 1_555 1_555
C35_3 C34_3 1_555 1_555
H21_3 C35_3 1_555 1_555
C36_3 C35_3 1_555 1_555
C37_3 C36_3 1_555 1_555
H22_3 C37_3 1_555 1_555
N4_3 C37_3 1_555 1_555
C38_3 C29_3 1_555 1_555
H23_3 C38_3 1_555 1_555
C39_3 N4_3 1_555 1_555
C40_3 C31_3 1_555 1_555
H24_3 C40_3 1_555 1_555
C42_3 C27_3 1_555 1_555
O12_3 C32_3 1_555 1_555
C43_3 C33_3 1_555 1_555
H27_3 C43_3 1_555 1_555
C44_3 C36_3 1_555 1_555
H28_3 C44_3 1_555 1_555
C49_3 C48_3 1_555 1_555
C50_3 C49_3 1_555 1_555
H31_3 C50_3 1_555 1_555
N5_3 C50_3 1_555 1_555
C51_3 H32_3 1_555 1_555
C52_3 N5_3 1_555 1_555
C53_3 C52_3 1_555 1_555
H33_3 C53_3 1_555 1_555
O14_3 C54_3 1_555 1_555
C54_3 C55_3 1_555 1_555
C55_3 C56_3 1_555 1_555
C56_3 H34_3 1_555 1_555
C57_3 C56_3 1_555 1_555
H35_3 C57_3 1_555 1_555
C58_3 C57_3 1_555 1_555
C59_3 C58_3 1_555 1_555
H36_3 C59_3 1_555 1_555
N6_3 C59_3 1_555 1_555
C60_3 C51_3 1_555 1_555
H37_3 C60_3 1_555 1_555
C61_3 N6_3 1_555 1_555
C62_3 C53_3 1_555 1_555
H38_3 C62_3 1_555 1_555
H39_3 C63_3 1_555 1_555
C64_3 C49_3 1_555 1_555
H40_3 C64_3 1_555 1_555
O16_3 C54_3 1_555 1_555
C65_3 C55_3 1_555 1_555
H41_3 C65_3 1_555 1_555
C66_3 C58_3 1_555 1_555
H42_3 C66_3 1_555 1_555
Zr6_2 O14_3 1_555 1_555
Zr7_2 O16_3 1_555 1_555
Zr8 O12_3 1_555 1_555
Zr9_2 O10_3 1_555 1_555
C29_3 C30_3 1_555 1_555
C38_3 C39_3 1_555 1_555
C39_3 C40_3 1_555 1_555
C43_3 C44_3 1_555 1_555
C51_3 C52_3 1_555 1_555
C60_3 C61_3 1_555 1_555
C61_3 C62_3 1_555 1_555
C63_3 C64_3 1_555 1_555
C65_3 C66_3 1_555 1_555
C1_4 O20_2 1_555 1_555
C2_4 C1_4 1_555 1_555
O26_2 C1_4 1_555 1_555
C23_4 O22_2 1_555 1_555
C24_4 C23_4 1_555 1_555
O21_2 C45_4 1_555 1_555
C45_4 C46_4 1_555 1_555
C23_4 O25_2 1_555 1_555
C45_4 O27_2 1_555 1_555
C49_4 C48_4 1_555 1_555
C50_4 C49_4 1_555 1_555
H31_4 C50_4 1_555 1_555
N5_4 C50_4 1_555 1_555
C51_4 H32_4 1_555 1_555
C52_4 N5_4 1_555 1_555
C53_4 C52_4 1_555 1_555
H33_4 C53_4 1_555 1_555
O14_4 C54_4 1_555 1_555
C54_4 C55_4 1_555 1_555
C55_4 C56_4 1_555 1_555
C56_4 H34_4 1_555 1_555
C57_4 C56_4 1_555 1_555
H35_4 C57_4 1_555 1_555
C58_4 C57_4 1_555 1_555
C59_4 C58_4 1_555 1_555
H36_4 C59_4 1_555 1_555
N6_4 C59_4 1_555 1_555
C60_4 C51_4 1_555 1_555
H37_4 C60_4 1_555 1_555
C61_4 N6_4 1_555 1_555
C62_4 C53_4 1_555 1_555
H38_4 C62_4 1_555 1_555
C64_4 C49_4 1_555 1_555
O16_4 C54_4 1_555 1_555
C65_4 C55_4 1_555 1_555
H41_4 C65_4 1_555 1_555
C66_4 C58_4 1_555 1_555
H42_4 C66_4 1_555 1_555
Zr6 O14_4 1_555 1_555
Zr7_2 O16_4 1_555 1_555
C51_4 C52_4 1_555 1_555
C60_4 C61_4 1_555 1_555
C61_4 C62_4 1_555 1_555
C65_4 C66_4 1_555 1_555
C27_4 C26_4 1_555 1_555
C28_4 C27_4 1_555 1_555
H17_4 C28_4 1_555 1_555
N3_4 C28_4 1_555 1_555
C29_4 H18_4 1_555 1_555
C30_4 N3_4 1_555 1_555
C31_4 C30_4 1_555 1_555
H19_4 C31_4 1_555 1_555
O10_4 C32_4 1_555 1_555
C32_4 C33_4 1_555 1_555
C33_4 C34_4 1_555 1_555
C34_4 H20_4 1_555 1_555
C35_4 C34_4 1_555 1_555
H21_4 C35_4 1_555 1_555
C36_4 C35_4 1_555 1_555
C37_4 C36_4 1_555 1_555
H22_4 C37_4 1_555 1_555
N4_4 C37_4 1_555 1_555
C38_4 C29_4 1_555 1_555
H23_4 C38_4 1_555 1_555
C39_4 N4_4 1_555 1_555
C40_4 C31_4 1_555 1_555
H24_4 C40_4 1_555 1_555
C42_4 C27_4 1_555 1_555
O12_4 C32_4 1_555 1_555
C43_4 C33_4 1_555 1_555
H27_4 C43_4 1_555 1_555
C44_4 C36_4 1_555 1_555
H28_4 C44_4 1_555 1_555
Zr8_2 O12_4 1_555 1_555
Zr9_2 O10_4 1_555 1_555
C29_4 C30_4 1_555 1_555
C38_4 C39_4 1_555 1_555
C39_4 C40_4 1_555 1_555
C43_4 C44_4 1_555 1_555
C5_4 C4_4 1_555 1_555
C6_4 C5_4 1_555 1_555
H3_4 C6_4 1_555 1_555
N1_4 C6_4 1_555 1_555
C7_4 H4_4 1_555 1_555
C8_4 N1_4 1_555 1_555
C9_4 C8_4 1_555 1_555
H5_4 C9_4 1_555 1_555
O4_4 C10_4 1_555 1_555
C10_4 C11_4 1_555 1_555
C11_4 C12_4 1_555 1_555
C12_4 H6_4 1_555 1_555
C13_4 C12_4 1_555 1_555
H7_4 C13_4 1_555 1_555
C14_4 C13_4 1_555 1_555
C15_4 C14_4 1_555 1_555
H8_4 C15_4 1_555 1_555
N2_4 C15_4 1_555 1_555
C16_4 C7_4 1_555 1_555
H9_4 C16_4 1_555 1_555
C17_4 N2_4 1_555 1_555
C18_4 C9_4 1_555 1_555
H10_4 C18_4 1_555 1_555
C20_4 C5_4 1_555 1_555
O6_4 C10_4 1_555 1_555
C21_4 C11_4 1_555 1_555
H13_4 C21_4 1_555 1_555
C22_4 C14_4 1_555 1_555
H14_4 C22_4 1_555 1_555
Zr10_2 O4_4 1_555 1_555
Zr11 O6_4 1_555 1_555
C7_4 C8_4 1_555 1_555
C16_4 C17_4 1_555 1_555
C17_4 C18_4 1_555 1_555
C21_4 C22_4 1_555 1_555
O10_5 C32_5 1_555 1_555
C32_5 C33_5 1_555 1_555
O12_5 C32_5 1_555 1_555
C43_5 C33_5 1_555 1_555
H27_5 C43_5 1_555 1_555
Zr10 O12_5 1_555 1_555
Zr9_3 O10_5 1_555 1_555
Zr1_3 O1_2 1_555 1_555
O1_2 Zr6_2 1_555 1_555
O2_3 Zr1_3 1_555 1_555
O3_3 Zr1_3 1_555 1_555
C1_5 O3_3 1_555 1_555
C2_5 C1_5 1_555 1_555
C3_4 C2_5 1_555 1_555
H1_4 C3_4 1_555 1_555
C4_5 C3_4 1_555 1_555
H2_4 C4_5 1_555 1_555
C5_5 C4_5 1_555 1_555
C6_5 C5_5 1_555 1_555
H3_5 C6_5 1_555 1_555
N1_5 C6_5 1_555 1_555
C7_5 H4_5 1_555 1_555
C8_5 N1_5 1_555 1_555
C9_5 C8_5 1_555 1_555
H5_5 C9_5 1_555 1_555
O4_5 C10_5 1_555 1_555
C10_5 C11_5 1_555 1_555
C11_5 C12_5 1_555 1_555
C12_5 H6_5 1_555 1_555
C13_5 C12_5 1_555 1_555
H7_5 C13_5 1_555 1_555
C14_5 C13_5 1_555 1_555
C15_5 C14_5 1_555 1_555
H8_5 C15_5 1_555 1_555
N2_5 C15_5 1_555 1_555
C16_5 C7_5 1_555 1_555
H9_5 C16_5 1_555 1_555
C17_5 N2_5 1_555 1_555
C18_5 C9_5 1_555 1_555
H10_5 C18_5 1_555 1_555
O5_2 C1_5 1_555 1_555
C19_4 C2_5 1_555 1_555
H11_4 C19_4 1_555 1_555
C20_5 C5_5 1_555 1_555
H12_4 C20_5 1_555 1_555
O6_5 C10_5 1_555 1_555
C21_5 C11_5 1_555 1_555
H13_5 C21_5 1_555 1_555
C22_5 C14_5 1_555 1_555
H14_5 C22_5 1_555 1_555
O7_2 Zr1_3 1_555 1_555
O8_2 Zr1_3 1_555 1_555
Zr6 O2_3 1_555 1_555
Zr7_2 O7_2 1_555 1_555
O9_3 Zr7_2 1_555 1_555
C23_5 O9_3 1_555 1_555
C24_5 C23_5 1_555 1_555
C25_4 C24_5 1_555 1_555
H15_4 C25_4 1_555 1_555
C26_5 C25_4 1_555 1_555
H16_4 C26_5 1_555 1_555
C27_5 C26_5 1_555 1_555
C28_5 C27_5 1_555 1_555
H17_5 C28_5 1_555 1_555
N3_5 C28_5 1_555 1_555
C29_5 H18_5 1_555 1_555
C30_5 N3_5 1_555 1_555
C31_5 C30_5 1_555 1_555
H19_5 C31_5 1_555 1_555
C34_5 H20_5 1_555 1_555
C35_5 C34_5 1_555 1_555
H21_5 C35_5 1_555 1_555
C36_5 C35_5 1_555 1_555
C37_5 C36_5 1_555 1_555
H22_5 C37_5 1_555 1_555
N4_5 C37_5 1_555 1_555
C38_5 C29_5 1_555 1_555
H23_5 C38_5 1_555 1_555
C39_5 N4_5 1_555 1_555
C40_5 C31_5 1_555 1_555
H24_5 C40_5 1_555 1_555
O11_3 Zr1_3 1_555 1_555
C41_4 C24_5 1_555 1_555
H25_4 C41_4 1_555 1_555
C42_5 C27_5 1_555 1_555
H26_4 C42_5 1_555 1_555
C44_5 C36_5 1_555 1_555
Zr6_2 O5_2 1_555 1_555
Zr7 O1_2 1_555 1_555
Zr8 O4_5 1_555 1_555
Zr11_3 O6_5 1_555 1_555
O17_2 Zr6 1_555 1_555
O18_2 Zr7_2 1_555 1_555
O19_2 Zr6 1_555 1_555
O20_3 Zr1_3 1_555 1_555
O22_3 Zr7_2 1_555 1_555
O24_2 Zr6 1_555 1_555
O25_3 Zr1_3 1_555 1_555
O26_3 Zr6 1_555 1_555
O2_3 Zr7 1_555 1_555
C7_5 C8_5 1_555 1_555
C16_5 C17_5 1_555 1_555
C17_5 C18_5 1_555 1_555
C19_4 C20_5 1_555 1_555
C21_5 C22_5 1_555 1_555
O7_2 Zr6 1_555 1_555
O8_2 Zr7_2 1_555 1_555
O8_2 Zr6_2 1_555 1_555
Zr7_2 O19_2 1_555 1_555
C23_5 O11_3 1_555 1_555
C29_5 C30_5 1_555 1_555
C38_5 C39_5 1_555 1_555
C39_5 C40_5 1_555 1_555
C41_4 C42_5 1_555 1_555
Zr6_2 O18_2 1_555 1_555
Zr7 O17_2 1_555 1_555
Zr1_4 O17_2 1_555 1_555
O2_4 Zr1_4 1_555 1_555
O3_4 Zr1_4 1_555 1_555
C1_6 O3_4 1_555 1_555
C2_6 C1_6 1_555 1_555
O24_2 C1_6 1_555 1_555
C19_5 C2_6 1_555 1_555
H11_5 C19_5 1_555 1_555
O18_2 Zr1_4 1_555 1_555
O19_2 Zr1_4 1_555 1_555
Zr6_2 O2_4 1_555 1_555
C23_6 O22_3 1_555 1_555
C24_6 C23_6 1_555 1_555
C25_5 C24_6 1_555 1_555
H15_5 C25_5 1_555 1_555
O11_4 Zr1_4 1_555 1_555
O20_4 Zr1_4 1_555 1_555
O25_4 Zr1_4 1_555 1_555
O26_4 Zr6_2 1_555 1_555
O2_4 Zr7 1_555 1_555
C23_6 O11_4 1_555 1_555
O4_6 C10_6 1_555 1_555
C10_6 C11_6 1_555 1_555
C11_6 C12_6 1_555 1_555
C12_6 H6_6 1_555 1_555
O6_6 C10_6 1_555 1_555
Zr8_2 O4_6 1_555 1_555
Zr11_4 O6_6 1_555 1_555
O10_6 C32_6 1_555 1_555
C32_6 C33_6 1_555 1_555
O12_6 C32_6 1_555 1_555
C43_6 C33_6 1_555 1_555
H27_6 C43_6 1_555 1_555
Zr10_2 O12_6 1_555 1_555
Zr9_3 O10_6 1_555 1_555
O4_7 C10_7 1_555 1_555
C10_7 C11_7 1_555 1_555
C11_7 C12_7 1_555 1_555
C12_7 H6_7 1_555 1_555
O6_7 C10_7 1_555 1_555
Zr8 O4_7 1_555 1_555
Zr11_4 O6_7 1_555 1_555
C1_7 O20_3 1_555 1_555
C2_7 C1_7 1_555 1_555
C3_5 C2_7 1_555 1_555
H1_5 C3_5 1_555 1_555
C4_6 C3_5 1_555 1_555
H2_5 C4_6 1_555 1_555
C5_6 C4_6 1_555 1_555
C6_6 C5_6 1_555 1_555
H3_6 C6_6 1_555 1_555
N1_6 C6_6 1_555 1_555
C7_6 H4_6 1_555 1_555
C8_6 N1_6 1_555 1_555
C9_6 C8_6 1_555 1_555
H5_6 C9_6 1_555 1_555
C14_6 C13_6 1_555 1_555
C15_6 C14_6 1_555 1_555
H8_6 C15_6 1_555 1_555
N2_6 C15_6 1_555 1_555
C16_6 C7_6 1_555 1_555
H9_6 C16_6 1_555 1_555
C17_6 N2_6 1_555 1_555
C18_6 C9_6 1_555 1_555
H10_6 C18_6 1_555 1_555
O26_3 C1_7 1_555 1_555
C19_6 C2_7 1_555 1_555
H11_6 C19_6 1_555 1_555
C20_6 C5_6 1_555 1_555
H12_6 C20_6 1_555 1_555
H13_6 C21_6 1_555 1_555
C22_6 C14_6 1_555 1_555
H14_6 C22_6 1_555 1_555
O9_4 Zr7 1_555 1_555
C23_7 O9_4 1_555 1_555
C24_7 C23_7 1_555 1_555
C25_6 C24_7 1_555 1_555
H15_6 C25_6 1_555 1_555
C26_6 C25_6 1_555 1_555
H16_6 C26_6 1_555 1_555
C27_6 C26_6 1_555 1_555
C28_6 C27_6 1_555 1_555
H17_6 C28_6 1_555 1_555
N3_6 C28_6 1_555 1_555
C29_6 H18_6 1_555 1_555
C30_6 N3_6 1_555 1_555
C31_6 C30_6 1_555 1_555
H19_6 C31_6 1_555 1_555
O10_7 C32_7 1_555 1_555
C32_7 C33_7 1_555 1_555
C33_7 C34_6 1_555 1_555
C34_6 H20_6 1_555 1_555
C35_6 C34_6 1_555 1_555
H21_6 C35_6 1_555 1_555
C36_6 C35_6 1_555 1_555
C37_6 C36_6 1_555 1_555
H22_6 C37_6 1_555 1_555
N4_6 C37_6 1_555 1_555
C38_6 C29_6 1_555 1_555
H23_6 C38_6 1_555 1_555
C39_6 N4_6 1_555 1_555
C40_6 C31_6 1_555 1_555
H24_6 C40_6 1_555 1_555
C41_5 C24_7 1_555 1_555
H25_5 C41_5 1_555 1_555
C42_6 C27_6 1_555 1_555
H26_5 C42_6 1_555 1_555
O12_7 C32_7 1_555 1_555
C43_7 C33_7 1_555 1_555
H27_7 C43_7 1_555 1_555
C44_6 C36_6 1_555 1_555
H28_7 C44_6 1_555 1_555
Zr10 O12_7 1_555 1_555
Zr9_4 O10_7 1_555 1_555
O22_4 Zr7 1_555 1_555
C7_6 C8_6 1_555 1_555
C16_6 C17_6 1_555 1_555
C17_6 C18_6 1_555 1_555
C19_6 C20_6 1_555 1_555
C21_6 C22_6 1_555 1_555
C23_7 O25_3 1_555 1_555
C29_6 C30_6 1_555 1_555
C38_6 C39_6 1_555 1_555
C39_6 C40_6 1_555 1_555
C41_5 C42_6 1_555 1_555
C43_7 C44_6 1_555 1_555
C1_8 O20_4 1_555 1_555
C2_8 C1_8 1_555 1_555
O26_4 C1_8 1_555 1_555
C19_7 C2_8 1_555 1_555
H11_7 C19_7 1_555 1_555
C23_8 O22_4 1_555 1_555
C24_8 C23_8 1_555 1_555
C25_7 C24_8 1_555 1_555
H15_7 C25_7 1_555 1_555
C23_8 O25_4 1_555 1_555
H1_6 C3_6 1_555 1_555
C4_7 C3_6 1_555 1_555
H2_6 C4_7 1_555 1_555
C5_7 C4_7 1_555 1_555
C6_7 C5_7 1_555 1_555
H3_7 C6_7 1_555 1_555
N1_7 C6_7 1_555 1_555
C7_7 H4_7 1_555 1_555
C8_7 N1_7 1_555 1_555
C9_7 C8_7 1_555 1_555
H5_7 C9_7 1_555 1_555
O4_8 C10_8 1_555 1_555
C10_8 C11_8 1_555 1_555
C11_8 C12_8 1_555 1_555
C12_8 H6_8 1_555 1_555
C13_7 C12_8 1_555 1_555
H7_8 C13_7 1_555 1_555
C14_7 C13_7 1_555 1_555
C15_7 C14_7 1_555 1_555
H8_7 C15_7 1_555 1_555
N2_7 C15_7 1_555 1_555
C16_7 C7_7 1_555 1_555
H9_7 C16_7 1_555 1_555
C17_7 N2_7 1_555 1_555
C18_7 C9_7 1_555 1_555
H10_7 C18_7 1_555 1_555
C20_7 C5_7 1_555 1_555
O6_8 C10_8 1_555 1_555
C21_7 C11_8 1_555 1_555
H13_7 C21_7 1_555 1_555
C22_7 C14_7 1_555 1_555
H14_7 C22_7 1_555 1_555
C27_7 C26_7 1_555 1_555
C28_7 C27_7 1_555 1_555
H17_7 C28_7 1_555 1_555
N3_7 C28_7 1_555 1_555
C29_7 H18_7 1_555 1_555
C30_7 N3_7 1_555 1_555
C31_7 C30_7 1_555 1_555
H19_7 C31_7 1_555 1_555
O10_8 C32_8 1_555 1_555
C32_8 C33_8 1_555 1_555
C33_8 C34_7 1_555 1_555
C34_7 H20_7 1_555 1_555
C35_7 C34_7 1_555 1_555
H21_7 C35_7 1_555 1_555
C36_7 C35_7 1_555 1_555
C37_7 C36_7 1_555 1_555
H22_7 C37_7 1_555 1_555
N4_7 C37_7 1_555 1_555
C38_7 C29_7 1_555 1_555
H23_7 C38_7 1_555 1_555
C39_7 N4_7 1_555 1_555
C40_7 C31_7 1_555 1_555
H24_7 C40_7 1_555 1_555
H25_6 C41_6 1_555 1_555
C42_7 C27_7 1_555 1_555
H26_6 C42_7 1_555 1_555
O12_8 C32_8 1_555 1_555
C43_8 C33_8 1_555 1_555
H27_8 C43_8 1_555 1_555
C44_7 C36_7 1_555 1_555
H28_8 C44_7 1_555 1_555
Zr10_2 O12_8 1_555 1_555
Zr9_4 O10_8 1_555 1_555
Zr8_2 O4_8 1_555 1_555
Zr11_3 O6_8 1_555 1_555
C7_7 C8_7 1_555 1_555
C16_7 C17_7 1_555 1_555
C17_7 C18_7 1_555 1_555
C21_7 C22_7 1_555 1_555
C29_7 C30_7 1_555 1_555
C38_7 C39_7 1_555 1_555
C39_7 C40_7 1_555 1_555
C41_6 C42_7 1_555 1_555
C43_8 C44_7 1_555 1_555
Zr8_2 O1_3 1_555 1_555
O1_3 Zr11_4 1_555 1_555
O2_5 Zr8_2 1_555 1_555
O7_3 Zr8_2 1_555 1_555
O8_3 Zr8_2 1_555 1_555
Zr11_3 O2_5 1_555 1_555
Zr9_2 O7_3 1_555 1_555
O13_2 C45_5 1_555 1_555
C45_5 C46_5 1_555 1_555
O15_3 Zr9_2 1_555 1_555
C63_4 C46_5 1_555 1_555
H39_4 C63_4 1_555 1_555
Zr9 O1_3 1_555 1_555
O17_3 Zr11_3 1_555 1_555
O18_3 Zr9_2 1_555 1_555
O19_3 Zr11_3 1_555 1_555
O21_3 Zr11_3 1_555 1_555
O23_2 Zr11_3 1_555 1_555
O27_3 Zr9_2 1_555 1_555
O2_5 Zr9 1_555 1_555
O7_3 Zr11_3 1_555 1_555
O8_3 Zr9_2 1_555 1_555
O8_3 Zr11_4 1_555 1_555
Zr9_2 O19_3 1_555 1_555
O13_2 Zr11_4 1_555 1_555
C45_5 O15_3 1_555 1_555
Zr11_4 O18_3 1_555 1_555
Zr9 O17_3 1_555 1_555
O14_5 C54_5 1_555 1_555
C54_5 C55_5 1_555 1_555
C55_5 C56_5 1_555 1_555
C56_5 H34_5 1_555 1_555
O16_5 C54_5 1_555 1_555
Zr11 O14_5 1_555 1_555
Zr9_3 O16_5 1_555 1_555
O14_6 C54_6 1_555 1_555
C54_6 C55_6 1_555 1_555
C55_6 C56_6 1_555 1_555
C56_6 H34_6 1_555 1_555
O16_6 C54_6 1_555 1_555
Zr11_2 O14_6 1_555 1_555
Zr9_3 O16_6 1_555 1_555
Zr8 O17_3 1_555 1_555
O2_6 Zr8 1_555 1_555
O18_3 Zr8 1_555 1_555
O19_3 Zr8 1_555 1_555
Zr11_4 O2_6 1_555 1_555
O23_2 C45_6 1_555 1_555
C45_6 C46_6 1_555 1_555
C46_6 C47_4 1_555 1_555
C47_4 H29_4 1_555 1_555
C48_5 C47_4 1_555 1_555
H30_4 C48_5 1_555 1_555
C49_5 C48_5 1_555 1_555
C50_5 C49_5 1_555 1_555
H31_5 C50_5 1_555 1_555
N5_5 C50_5 1_555 1_555
C51_5 H32_5 1_555 1_555
C52_5 N5_5 1_555 1_555
C53_5 C52_5 1_555 1_555
H33_5 C53_5 1_555 1_555
C58_5 C57_5 1_555 1_555
C59_5 C58_5 1_555 1_555
H36_5 C59_5 1_555 1_555
N6_5 C59_5 1_555 1_555
C60_5 C51_5 1_555 1_555
H37_5 C60_5 1_555 1_555
C61_5 N6_5 1_555 1_555
C62_5 C53_5 1_555 1_555
H38_5 C62_5 1_555 1_555
C63_5 C46_6 1_555 1_555
H39_5 C63_5 1_555 1_555
C64_5 C49_5 1_555 1_555
H40_5 C64_5 1_555 1_555
H41_5 C65_5 1_555 1_555
C66_5 C58_5 1_555 1_555
H42_5 C66_5 1_555 1_555
O21_4 Zr11_4 1_555 1_555
O2_6 Zr9 1_555 1_555
C45_6 O27_3 1_555 1_555
C51_5 C52_5 1_555 1_555
C60_5 C61_5 1_555 1_555
C61_5 C62_5 1_555 1_555
C63_5 C64_5 1_555 1_555
C65_5 C66_5 1_555 1_555
O21_3 C45_7 1_555 1_555
C45_7 C46_7 1_555 1_555
C46_7 C47_5 1_555 1_555
C47_5 H29_5 1_555 1_555
C48_6 C47_5 1_555 1_555
H30_5 C48_6 1_555 1_555
C49_6 C48_6 1_555 1_555
C50_6 C49_6 1_555 1_555
H31_6 C50_6 1_555 1_555
N5_6 C50_6 1_555 1_555
C51_6 H32_6 1_555 1_555
C52_6 N5_6 1_555 1_555
C53_6 C52_6 1_555 1_555
H33_6 C53_6 1_555 1_555
O14_7 C54_7 1_555 1_555
C54_7 C55_7 1_555 1_555
C55_7 C56_7 1_555 1_555
C56_7 H34_7 1_555 1_555
C57_6 C56_7 1_555 1_555
H35_7 C57_6 1_555 1_555
C58_6 C57_6 1_555 1_555
C59_6 C58_6 1_555 1_555
H36_6 C59_6 1_555 1_555
N6_6 C59_6 1_555 1_555
C60_6 C51_6 1_555 1_555
H37_6 C60_6 1_555 1_555
C61_6 N6_6 1_555 1_555
C62_6 C53_6 1_555 1_555
H38_6 C62_6 1_555 1_555
O15_4 Zr9 1_555 1_555
C63_6 C46_7 1_555 1_555
H39_6 C63_6 1_555 1_555
C64_6 C49_6 1_555 1_555
H40_6 C64_6 1_555 1_555
O16_7 C54_7 1_555 1_555
C65_6 C55_7 1_555 1_555
H41_6 C65_6 1_555 1_555
C66_6 C58_6 1_555 1_555
H42_6 C66_6 1_555 1_555
Zr11_2 O14_7 1_555 1_555
Zr9_4 O16_7 1_555 1_555
O27_4 Zr9 1_555 1_555
C45_7 O15_4 1_555 1_555
C51_6 C52_6 1_555 1_555
C60_6 C61_6 1_555 1_555
C61_6 C62_6 1_555 1_555
C63_6 C64_6 1_555 1_555
C65_6 C66_6 1_555 1_555
O21_4 C45_8 1_555 1_555
C45_8 C46_8 1_555 1_555
C63_7 C46_8 1_555 1_555
H39_7 C63_7 1_555 1_555
C45_8 O27_4 1_555 1_555
C47_6 H29_6 1_555 1_555
C48_7 C47_6 1_555 1_555
H30_6 C48_7 1_555 1_555
C49_7 C48_7 1_555 1_555
C50_7 C49_7 1_555 1_555
H31_7 C50_7 1_555 1_555
N5_7 C50_7 1_555 1_555
C51_7 H32_7 1_555 1_555
C52_7 N5_7 1_555 1_555
C53_7 C52_7 1_555 1_555
H33_7 C53_7 1_555 1_555
O14_8 C54_8 1_555 1_555
C54_8 C55_8 1_555 1_555
C55_8 C56_8 1_555 1_555
C56_8 H34_8 1_555 1_555
C57_7 C56_8 1_555 1_555
H35_8 C57_7 1_555 1_555
C58_7 C57_7 1_555 1_555
C59_7 C58_7 1_555 1_555
H36_7 C59_7 1_555 1_555
N6_7 C59_7 1_555 1_555
C60_7 C51_7 1_555 1_555
H37_7 C60_7 1_555 1_555
C61_7 N6_7 1_555 1_555
C62_7 C53_7 1_555 1_555
H38_7 C62_7 1_555 1_555
C64_7 C49_7 1_555 1_555
O16_8 C54_8 1_555 1_555
C65_7 C55_8 1_555 1_555
H41_7 C65_7 1_555 1_555
C66_7 C58_7 1_555 1_555
H42_7 C66_7 1_555 1_555
Zr11 O14_8 1_555 1_555
Zr9_4 O16_8 1_555 1_555
C51_7 C52_7 1_555 1_555
C60_7 C61_7 1_555 1_555
C61_7 C62_7 1_555 1_555
C65_7 C66_7 1_555 1_555
Zr10_2 O1_4 1_555 1_555
O1_4 Zr11_2 1_555 1_555
O2_7 Zr10_2 1_555 1_555
O7_4 Zr10_2 1_555 1_555
O8_4 Zr10_2 1_555 1_555
Zr11 O2_7 1_555 1_555
Zr9_4 O7_4 1_555 1_555
Zr9_3 O1_4 1_555 1_555
O17_4 Zr11 1_555 1_555
O18_4 Zr9_4 1_555 1_555
O19_4 Zr11 1_555 1_555
O2_7 Zr9_3 1_555 1_555
O7_4 Zr11 1_555 1_555
O8_4 Zr9_4 1_555 1_555
O8_4 Zr11_2 1_555 1_555
Zr9_4 O19_4 1_555 1_555
Zr11_2 O18_4 1_555 1_555
Zr9_3 O17_4 1_555 1_555
Zr10 O17_4 1_555 1_555
O2_8 Zr10 1_555 1_555
O18_4 Zr10 1_555 1_555
O19_4 Zr10 1_555 1_555
Zr11_2 O2_8 1_555 1_555
O2_8 Zr9_3 1_555 1_555
C5_8 C4_8 1_555 1_555
C6_8 C5_8 1_555 1_555
H3_8 C6_8 1_555 1_555
N1_8 C6_8 1_555 1_555
C7_8 H4_8 1_555 1_555
C8_8 N1_8 1_555 1_555
C9_8 C8_8 1_555 1_555
H5_8 C9_8 1_555 1_555
O4_9 C10_9 1_555 1_555
C10_9 C11_9 1_555 1_555
C11_9 C12_9 1_555 1_555
C12_9 H6_9 1_555 1_555
C13_8 C12_9 1_555 1_555
H7_9 C13_8 1_555 1_555
C14_8 C13_8 1_555 1_555
C15_8 C14_8 1_555 1_555
H8_8 C15_8 1_555 1_555
N2_8 C15_8 1_555 1_555
C16_8 C7_8 1_555 1_555
H9_8 C16_8 1_555 1_555
C17_8 N2_8 1_555 1_555
C18_8 C9_8 1_555 1_555
H10_8 C18_8 1_555 1_555
H11_8 C19_8 1_555 1_555
C20_8 C5_8 1_555 1_555
H12_8 C20_8 1_555 1_555
O6_9 C10_9 1_555 1_555
C21_8 C11_9 1_555 1_555
H13_8 C21_8 1_555 1_555
C22_8 C14_8 1_555 1_555
H14_8 C22_8 1_555 1_555
C47_7 H29_7 1_555 1_555
C48_8 C47_7 1_555 1_555
H30_7 C48_8 1_555 1_555
C49_8 C48_8 1_555 1_555
C50_8 C49_8 1_555 1_555
H31_8 C50_8 1_555 1_555
N5_8 C50_8 1_555 1_555
C51_8 H32_8 1_555 1_555
C52_8 N5_8 1_555 1_555
C53_8 C52_8 1_555 1_555
H33_8 C53_8 1_555 1_555
O14_9 C54_9 1_555 1_555
C54_9 C55_9 1_555 1_555
C55_9 C56_9 1_555 1_555
C56_9 H34_9 1_555 1_555
C57_8 C56_9 1_555 1_555
H35_9 C57_8 1_555 1_555
C58_8 C57_8 1_555 1_555
C59_8 C58_8 1_555 1_555
H36_8 C59_8 1_555 1_555
N6_8 C59_8 1_555 1_555
C60_8 C51_8 1_555 1_555
H37_8 C60_8 1_555 1_555
C61_8 N6_8 1_555 1_555
C62_8 C53_8 1_555 1_555
H38_8 C62_8 1_555 1_555
C64_8 C49_8 1_555 1_555
O16_9 C54_9 1_555 1_555
C65_8 C55_9 1_555 1_555
H41_8 C65_8 1_555 1_555
C66_8 C58_8 1_555 1_555
H42_8 C66_8 1_555 1_555
Zr6_3 O14_9 1_555 1_555
Zr7_3 O16_9 1_555 1_555
Zr10_3 O4_9 1_555 1_555
Zr11_5 O6_9 1_555 1_555
C7_8 C8_8 1_555 1_555
C16_8 C17_8 1_555 1_555
C17_8 C18_8 1_555 1_555
C19_8 C20_8 1_555 1_555
C21_8 C22_8 1_555 1_555
C51_8 C52_8 1_555 1_555
C60_8 C61_8 1_555 1_555
C61_8 C62_8 1_555 1_555
C65_8 C66_8 1_555 1_555
Zr1_5 O1_5 1_555 1_555
O1_5 Zr4_2 1_555 1_555
O2_9 Zr1_5 1_555 1_555
O3_5 Zr1_5 1_555 1_555
C1_9 O3_5 1_555 1_555
C2_9 C1_9 1_555 1_555
C3_7 C2_9 1_555 1_555
H1_7 C3_7 1_555 1_555
O5_3 C1_9 1_555 1_555
O7_5 Zr1_5 1_555 1_555
O8_5 Zr1_5 1_555 1_555
Zr2_2 O2_9 1_555 1_555
Zr3_2 O7_5 1_555 1_555
O9_5 Zr3_2 1_555 1_555
C23_9 O9_5 1_555 1_555
C24_9 C23_9 1_555 1_555
C25_8 C24_9 1_555 1_555
H15_8 C25_8 1_555 1_555
C26_8 C25_8 1_555 1_555
H16_8 C26_8 1_555 1_555
C27_8 C26_8 1_555 1_555
C28_8 C27_8 1_555 1_555
H17_8 C28_8 1_555 1_555
N3_8 C28_8 1_555 1_555
C29_8 H18_8 1_555 1_555
C30_8 N3_8 1_555 1_555
C31_8 C30_8 1_555 1_555
H19_8 C31_8 1_555 1_555
O10_9 C32_9 1_555 1_555
C32_9 C33_9 1_555 1_555
C33_9 C34_8 1_555 1_555
C34_8 H20_8 1_555 1_555
C35_8 C34_8 1_555 1_555
H21_8 C35_8 1_555 1_555
C36_8 C35_8 1_555 1_555
C37_8 C36_8 1_555 1_555
H22_8 C37_8 1_555 1_555
N4_8 C37_8 1_555 1_555
C38_8 C29_8 1_555 1_555
H23_8 C38_8 1_555 1_555
C39_8 N4_8 1_555 1_555
C40_8 C31_8 1_555 1_555
H24_8 C40_8 1_555 1_555
O11_5 Zr1_5 1_555 1_555
C41_7 C24_9 1_555 1_555
H25_7 C41_7 1_555 1_555
C42_8 C27_8 1_555 1_555
H26_7 C42_8 1_555 1_555
O12_9 C32_9 1_555 1_555
C43_9 C33_9 1_555 1_555
H27_9 C43_9 1_555 1_555
C44_8 C36_8 1_555 1_555
H28_9 C44_8 1_555 1_555
O13_3 C45_9 1_555 1_555
C45_9 C46_9 1_555 1_555
O15_5 Zr3_2 1_555 1_555
C63_8 C46_9 1_555 1_555
H39_8 C63_8 1_555 1_555
Zr4_2 O5_3 1_555 1_555
Zr5_2 O1_5 1_555 1_555
Zr8_3 O12_9 1_555 1_555
Zr9_5 O10_9 1_555 1_555
O17_5 Zr2_2 1_555 1_555
O18_5 Zr3_2 1_555 1_555
O19_5 Zr2_2 1_555 1_555
O20_5 Zr1_5 1_555 1_555
O21_5 Zr2_2 1_555 1_555
O22_5 Zr3_2 1_555 1_555
O23_3 Zr2_2 1_555 1_555
O24_3 Zr2_2 1_555 1_555
O25_5 Zr1_5 1_555 1_555
O26_5 Zr2_2 1_555 1_555
O27_5 Zr3_2 1_555 1_555
O2_9 Zr5_2 1_555 1_555
O7_5 Zr2_2 1_555 1_555
O8_5 Zr3_2 1_555 1_555
O8_5 Zr4_2 1_555 1_555
Zr3_2 O19_5 1_555 1_555
C23_9 O11_5 1_555 1_555
C29_8 C30_8 1_555 1_555
C38_8 C39_8 1_555 1_555
C39_8 C40_8 1_555 1_555
C41_7 C42_8 1_555 1_555
C43_9 C44_8 1_555 1_555
O13_3 Zr4_2 1_555 1_555
C45_9 O15_5 1_555 1_555
Zr4_2 O18_5 1_555 1_555
Zr5_2 O17_5 1_555 1_555
Zr10_3 O1_6 1_555 1_555
O1_6 Zr11_5 1_555 1_555
O2_10 Zr10_3 1_555 1_555
O7_6 Zr10_3 1_555 1_555
O8_6 Zr10_3 1_555 1_555
Zr2_3 O2_10 1_555 1_555
Zr3_3 O7_6 1_555 1_555
O9_6 Zr3_3 1_555 1_555
C23_10 O9_6 1_555 1_555
C24_10 C23_10 1_555 1_555
C25_9 C24_10 1_555 1_555
H15_9 C25_9 1_555 1_555
C26_9 C25_9 1_555 1_555
H16_9 C26_9 1_555 1_555
C27_9 C26_9 1_555 1_555
C28_9 C27_9 1_555 1_555
H17_9 C28_9 1_555 1_555
N3_9 C28_9 1_555 1_555
C29_9 H18_9 1_555 1_555
C30_9 N3_9 1_555 1_555
C31_9 C30_9 1_555 1_555
H19_9 C31_9 1_555 1_555
O10_10 C32_10 1_555 1_555
C32_10 C33_10 1_555 1_555
C33_10 C34_9 1_555 1_555
C34_9 H20_9 1_555 1_555
C35_9 C34_9 1_555 1_555
H21_9 C35_9 1_555 1_555
C36_9 C35_9 1_555 1_555
C37_9 C36_9 1_555 1_555
H22_9 C37_9 1_555 1_555
N4_9 C37_9 1_555 1_555
C38_9 C29_9 1_555 1_555
H23_9 C38_9 1_555 1_555
C39_9 N4_9 1_555 1_555
C40_9 C31_9 1_555 1_555
H24_9 C40_9 1_555 1_555
O11_6 Zr10_3 1_555 1_555
C41_8 C24_10 1_555 1_555
H25_8 C41_8 1_555 1_555
C42_9 C27_9 1_555 1_555
H26_8 C42_9 1_555 1_555
O12_10 C32_10 1_555 1_555
C43_10 C33_10 1_555 1_555
H27_10 C43_10 1_555 1_555
C44_9 C36_9 1_555 1_555
H28_10 C44_9 1_555 1_555
O13_4 C45_10 1_555 1_555
C45_10 C46_10 1_555 1_555
C46_10 C47_8 1_555 1_555
C47_8 H29_8 1_555 1_555
C48_9 C47_8 1_555 1_555
H30_8 C48_9 1_555 1_555
C49_9 C48_9 1_555 1_555
C50_9 C49_9 1_555 1_555
H31_9 C50_9 1_555 1_555
N5_9 C50_9 1_555 1_555
C51_9 H32_9 1_555 1_555
C52_9 N5_9 1_555 1_555
C53_9 C52_9 1_555 1_555
H33_9 C53_9 1_555 1_555
C56_10 H34_10 1_555 1_555
C57_9 C56_10 1_555 1_555
H35_10 C57_9 1_555 1_555
C58_9 C57_9 1_555 1_555
C59_9 C58_9 1_555 1_555
H36_9 C59_9 1_555 1_555
N6_9 C59_9 1_555 1_555
C60_9 C51_9 1_555 1_555
H37_9 C60_9 1_555 1_555
C61_9 N6_9 1_555 1_555
C62_9 C53_9 1_555 1_555
H38_9 C62_9 1_555 1_555
O15_6 Zr3_3 1_555 1_555
C63_9 C46_10 1_555 1_555
H39_9 C63_9 1_555 1_555
C64_9 C49_9 1_555 1_555
H40_9 C64_9 1_555 1_555
C66_9 C58_9 1_555 1_555
Zr5_3 O1_6 1_555 1_555
Zr8_4 O12_10 1_555 1_555
Zr7_3 O10_10 1_555 1_555
O17_6 Zr2_3 1_555 1_555
O18_6 Zr3_3 1_555 1_555
O19_6 Zr2_3 1_555 1_555
O20_6 Zr10_3 1_555 1_555
O21_6 Zr2_3 1_555 1_555
O22_6 Zr3_3 1_555 1_555
O23_4 Zr2_3 1_555 1_555
O24_4 Zr2_3 1_555 1_555
O25_6 Zr10_3 1_555 1_555
O26_6 Zr2_3 1_555 1_555
O27_6 Zr3_3 1_555 1_555
O2_10 Zr5_3 1_555 1_555
O7_6 Zr2_3 1_555 1_555
O8_6 Zr3_3 1_555 1_555
O8_6 Zr11_5 1_555 1_555
Zr3_3 O19_6 1_555 1_555
C23_10 O11_6 1_555 1_555
C29_9 C30_9 1_555 1_555
C38_9 C39_9 1_555 1_555
C39_9 C40_9 1_555 1_555
C41_8 C42_9 1_555 1_555
C43_10 C44_9 1_555 1_555
O13_4 Zr11_5 1_555 1_555
C45_10 O15_6 1_555 1_555
C51_9 C52_9 1_555 1_555
C60_9 C61_9 1_555 1_555
C61_9 C62_9 1_555 1_555
C63_9 C64_9 1_555 1_555
Zr11_5 O18_6 1_555 1_555
Zr5_3 O17_6 1_555 1_555
O14_10 C54_10 1_555 1_555
C54_10 C55_10 1_555 1_555
O16_10 C54_10 1_555 1_555
C65_9 C55_10 1_555 1_555
H41_9 C65_9 1_555 1_555
Zr6_4 O14_10 1_555 1_555
Zr9_5 O16_10 1_555 1_555
C1_10 O21_6 1_555 1_555
C2_10 C1_10 1_555 1_555
C3_8 C2_10 1_555 1_555
H1_8 C3_8 1_555 1_555
C4_9 C3_8 1_555 1_555
H2_8 C4_9 1_555 1_555
C5_9 C4_9 1_555 1_555
C6_9 C5_9 1_555 1_555
H3_9 C6_9 1_555 1_555
N1_9 C6_9 1_555 1_555
C7_9 H4_9 1_555 1_555
C8_9 N1_9 1_555 1_555
C9_9 C8_9 1_555 1_555
H5_9 C9_9 1_555 1_555
C14_9 C13_9 1_555 1_555
C15_9 C14_9 1_555 1_555
H8_9 C15_9 1_555 1_555
N2_9 C15_9 1_555 1_555
C16_9 C7_9 1_555 1_555
H9_9 C16_9 1_555 1_555
C17_9 N2_9 1_555 1_555
C18_9 C9_9 1_555 1_555
H10_9 C18_9 1_555 1_555
O5_4 C1_10 1_555 1_555
C19_9 C2_10 1_555 1_555
H11_9 C19_9 1_555 1_555
C20_9 C5_9 1_555 1_555
H12_9 C20_9 1_555 1_555
H13_9 C21_9 1_555 1_555
C22_9 C14_9 1_555 1_555
H14_9 C22_9 1_555 1_555
C23_11 O20_6 1_555 1_555
C24_11 C23_11 1_555 1_555
C25_10 C24_11 1_555 1_555
H15_10 C25_10 1_555 1_555
C26_10 C25_10 1_555 1_555
H16_10 C26_10 1_555 1_555
C27_10 C26_10 1_555 1_555
C28_10 C27_10 1_555 1_555
H17_10 C28_10 1_555 1_555
N3_10 C28_10 1_555 1_555
C29_10 H18_10 1_555 1_555
C30_10 N3_10 1_555 1_555
C31_10 C30_10 1_555 1_555
H19_10 C31_10 1_555 1_555
O20_5 C32_11 1_555 1_555
C32_11 C33_11 1_555 1_555
C33_11 C34_10 1_555 1_555
C34_10 H20_10 1_555 1_555
C35_10 C34_10 1_555 1_555
H21_10 C35_10 1_555 1_555
C36_10 C35_10 1_555 1_555
C37_10 C36_10 1_555 1_555
H22_10 C37_10 1_555 1_555
N4_10 C37_10 1_555 1_555
C38_10 C29_10 1_555 1_555
H23_10 C38_10 1_555 1_555
C39_10 N4_10 1_555 1_555
C40_10 C31_10 1_555 1_555
H24_10 C40_10 1_555 1_555
C41_9 C24_11 1_555 1_555
H25_9 C41_9 1_555 1_555
C42_10 C27_10 1_555 1_555
H26_9 C42_10 1_555 1_555
O26_5 C32_11 1_555 1_555
C43_11 C33_11 1_555 1_555
H27_11 C43_11 1_555 1_555
C44_10 C36_10 1_555 1_555
H28_11 C44_10 1_555 1_555
O13_5 C45_11 1_555 1_555
C45_11 C46_11 1_555 1_555
C46_11 C47_9 1_555 1_555
C47_9 H29_9 1_555 1_555
C48_10 C47_9 1_555 1_555
H30_9 C48_10 1_555 1_555
C49_10 C48_10 1_555 1_555
C50_10 C49_10 1_555 1_555
H31_10 C50_10 1_555 1_555
N5_10 C50_10 1_555 1_555
C51_10 H32_10 1_555 1_555
C52_10 N5_10 1_555 1_555
C53_10 C52_10 1_555 1_555
H33_10 C53_10 1_555 1_555
C56_11 H34_11 1_555 1_555
C57_10 C56_11 1_555 1_555
H35_11 C57_10 1_555 1_555
C58_10 C57_10 1_555 1_555
C59_10 C58_10 1_555 1_555
H36_10 C59_10 1_555 1_555
N6_10 C59_10 1_555 1_555
C60_10 C51_10 1_555 1_555
H37_10 C60_10 1_555 1_555
C61_10 N6_10 1_555 1_555
C62_10 C53_10 1_555 1_555
H38_10 C62_10 1_555 1_555
C63_10 C46_11 1_555 1_555
H39_10 C63_10 1_555 1_555
C64_10 C49_10 1_555 1_555
H40_10 C64_10 1_555 1_555
C66_10 C58_10 1_555 1_555
Zr5_3 O5_4 1_555 1_555
Zr5_4 O17_6 1_555 1_555
O19_6 Zr5_4 1_555 1_555
C7_9 C8_9 1_555 1_555
C16_9 C17_9 1_555 1_555
C17_9 C18_9 1_555 1_555
C19_9 C20_9 1_555 1_555
C21_9 C22_9 1_555 1_555
C23_11 O26_6 1_555 1_555
C29_10 C30_10 1_555 1_555
C38_10 C39_10 1_555 1_555
C39_10 C40_10 1_555 1_555
C41_9 C42_10 1_555 1_555
C43_11 C44_10 1_555 1_555
O13_5 Zr5_3 1_555 1_555
C45_11 O25_6 1_555 1_555
C51_10 C52_10 1_555 1_555
C60_10 C61_10 1_555 1_555
C61_10 C62_10 1_555 1_555
C63_10 C64_10 1_555 1_555
Zr5_4 O18_6 1_555 1_555
O4_10 C10_10 1_555 1_555
C10_10 C11_10 1_555 1_555
C11_10 C12_10 1_555 1_555
C12_10 H6_10 1_555 1_555
O6_10 C10_10 1_555 1_555
O14_11 C54_11 1_555 1_555
C54_11 C55_11 1_555 1_555
O16_11 C54_11 1_555 1_555
C65_10 C55_11 1_555 1_555
H41_10 C65_10 1_555 1_555
Zr6_5 O14_11 1_555 1_555
Zr8_4 O16_11 1_555 1_555
Zr10_4 O4_10 1_555 1_555
Zr11_6 O6_10 1_555 1_555
C5_10 C4_10 1_555 1_555
C6_10 C5_10 1_555 1_555
H3_10 C6_10 1_555 1_555
N1_10 C6_10 1_555 1_555
C7_10 H4_10 1_555 1_555
C8_10 N1_10 1_555 1_555
C9_10 C8_10 1_555 1_555
H5_10 C9_10 1_555 1_555
O21_5 C10_11 1_555 1_555
C10_11 C11_11 1_555 1_555
C11_11 C12_11 1_555 1_555
C12_11 H6_11 1_555 1_555
C13_10 C12_11 1_555 1_555
H7_11 C13_10 1_555 1_555
C14_10 C13_10 1_555 1_555
C15_10 C14_10 1_555 1_555
H8_10 C15_10 1_555 1_555
N2_10 C15_10 1_555 1_555
C16_10 C7_10 1_555 1_555
H9_10 C16_10 1_555 1_555
C17_10 N2_10 1_555 1_555
C18_10 C9_10 1_555 1_555
H10_10 C18_10 1_555 1_555
H11_10 C19_10 1_555 1_555
C20_10 C5_10 1_555 1_555
H12_10 C20_10 1_555 1_555
O6_11 C10_11 1_555 1_555
C21_10 C11_11 1_555 1_555
H13_10 C21_10 1_555 1_555
C22_10 C14_10 1_555 1_555
H14_10 C22_10 1_555 1_555
Zr5_2 O6_11 1_555 1_555
C7_10 C8_10 1_555 1_555
C16_10 C17_10 1_555 1_555
C17_10 C18_10 1_555 1_555
C19_10 C20_10 1_555 1_555
C21_10 C22_10 1_555 1_555
Zr1_6 O1_7 1_555 1_555
O1_7 Zr6_5 1_555 1_555
O2_11 Zr1_6 1_555 1_555
O3_6 Zr1_6 1_555 1_555
C1_11 O3_6 1_555 1_555
C2_11 C1_11 1_555 1_555
C3_9 C2_11 1_555 1_555
H1_9 C3_9 1_555 1_555
O5_5 C1_11 1_555 1_555
O7_7 Zr1_6 1_555 1_555
O8_7 Zr1_6 1_555 1_555
Zr7_3 O2_11 1_555 1_555
Zr8_4 O7_7 1_555 1_555
O9_7 Zr8_4 1_555 1_555
C23_12 O9_7 1_555 1_555
C24_12 C23_12 1_555 1_555
C25_11 C24_12 1_555 1_555
H15_11 C25_11 1_555 1_555
C26_11 C25_11 1_555 1_555
H16_11 C26_11 1_555 1_555
C27_11 C26_11 1_555 1_555
C28_11 C27_11 1_555 1_555
H17_11 C28_11 1_555 1_555
N3_11 C28_11 1_555 1_555
C29_11 H18_11 1_555 1_555
C30_11 N3_11 1_555 1_555
C31_11 C30_11 1_555 1_555
H19_11 C31_11 1_555 1_555
O10_11 C32_12 1_555 1_555
C32_12 C33_12 1_555 1_555
C33_12 C34_11 1_555 1_555
C34_11 H20_11 1_555 1_555
C35_11 C34_11 1_555 1_555
H21_11 C35_11 1_555 1_555
C36_11 C35_11 1_555 1_555
C37_11 C36_11 1_555 1_555
H22_11 C37_11 1_555 1_555
N4_11 C37_11 1_555 1_555
C38_11 C29_11 1_555 1_555
H23_11 C38_11 1_555 1_555
C39_11 N4_11 1_555 1_555
C40_11 C31_11 1_555 1_555
H24_11 C40_11 1_555 1_555
O11_7 Zr1_6 1_555 1_555
C41_10 C24_12 1_555 1_555
H25_10 C41_10 1_555 1_555
C42_11 C27_11 1_555 1_555
H26_10 C42_11 1_555 1_555
O12_11 C32_12 1_555 1_555
C43_12 C33_12 1_555 1_555
H27_12 C43_12 1_555 1_555
C44_11 C36_11 1_555 1_555
H28_12 C44_11 1_555 1_555
Zr6_5 O5_5 1_555 1_555
Zr5_5 O1_7 1_555 1_555
Zr10_4 O12_11 1_555 1_555
Zr8_3 O10_11 1_555 1_555
O17_7 Zr7_3 1_555 1_555
O18_7 Zr8_4 1_555 1_555
O19_7 Zr7_3 1_555 1_555
O20_7 Zr1_6 1_555 1_555
O21_7 Zr7_3 1_555 1_555
O22_7 Zr8_4 1_555 1_555
O25_7 Zr1_6 1_555 1_555
O26_7 Zr7_3 1_555 1_555
O2_11 Zr5_5 1_555 1_555
O7_7 Zr7_3 1_555 1_555
O8_7 Zr8_4 1_555 1_555
O8_7 Zr6_5 1_555 1_555
Zr8_4 O19_7 1_555 1_555
C23_12 O11_7 1_555 1_555
C29_11 C30_11 1_555 1_555
C38_11 C39_11 1_555 1_555
C39_11 C40_11 1_555 1_555
C41_10 C42_11 1_555 1_555
C43_12 C44_11 1_555 1_555
Zr6_5 O18_7 1_555 1_555
Zr5_5 O17_7 1_555 1_555
C1_12 O21_7 1_555 1_555
C2_12 C1_12 1_555 1_555
C3_10 C2_12 1_555 1_555
H1_10 C3_10 1_555 1_555
C4_11 C3_10 1_555 1_555
H2_10 C4_11 1_555 1_555
C5_11 C4_11 1_555 1_555
C6_11 C5_11 1_555 1_555
H3_11 C6_11 1_555 1_555
N1_11 C6_11 1_555 1_555
C7_11 H4_11 1_555 1_555
C8_11 N1_11 1_555 1_555
C9_11 C8_11 1_555 1_555
H5_11 C9_11 1_555 1_555
C14_11 C13_11 1_555 1_555
C15_11 C14_11 1_555 1_555
H8_11 C15_11 1_555 1_555
N2_11 C15_11 1_555 1_555
C16_11 C7_11 1_555 1_555
H9_11 C16_11 1_555 1_555
C17_11 N2_11 1_555 1_555
C18_11 C9_11 1_555 1_555
H10_11 C18_11 1_555 1_555
O5_6 C1_12 1_555 1_555
C19_11 C2_12 1_555 1_555
H11_11 C19_11 1_555 1_555
C20_11 C5_11 1_555 1_555
H12_11 C20_11 1_555 1_555
H13_11 C21_11 1_555 1_555
C22_11 C14_11 1_555 1_555
H14_11 C22_11 1_555 1_555
C23_13 O20_7 1_555 1_555
C24_13 C23_13 1_555 1_555
C25_12 C24_13 1_555 1_555
H15_12 C25_12 1_555 1_555
C26_12 C25_12 1_555 1_555
H16_12 C26_12 1_555 1_555
C27_12 C26_12 1_555 1_555
C28_12 C27_12 1_555 1_555
H17_12 C28_12 1_555 1_555
N3_12 C28_12 1_555 1_555
C29_12 H18_12 1_555 1_555
C30_12 N3_12 1_555 1_555
C31_12 C30_12 1_555 1_555
H19_12 C31_12 1_555 1_555
O23_3 C32_13 1_555 1_555
C32_13 C33_13 1_555 1_555
C33_13 C34_12 1_555 1_555
C34_12 H20_12 1_555 1_555
C35_12 C34_12 1_555 1_555
H21_12 C35_12 1_555 1_555
C36_12 C35_12 1_555 1_555
C37_12 C36_12 1_555 1_555
H22_12 C37_12 1_555 1_555
N4_12 C37_12 1_555 1_555
C38_12 C29_12 1_555 1_555
H23_12 C38_12 1_555 1_555
C39_12 N4_12 1_555 1_555
C40_12 C31_12 1_555 1_555
H24_12 C40_12 1_555 1_555
C41_11 C24_13 1_555 1_555
H25_11 C41_11 1_555 1_555
C42_12 C27_12 1_555 1_555
H26_11 C42_12 1_555 1_555
O27_5 C32_13 1_555 1_555
C43_13 C33_13 1_555 1_555
H27_13 C43_13 1_555 1_555
C44_12 C36_12 1_555 1_555
H28_13 C44_12 1_555 1_555
O13_6 C45_12 1_555 1_555
C45_12 C46_12 1_555 1_555
C46_12 C47_10 1_555 1_555
C47_10 H29_10 1_555 1_555
C48_11 C47_10 1_555 1_555
H30_10 C48_11 1_555 1_555
C49_11 C48_11 1_555 1_555
C50_11 C49_11 1_555 1_555
H31_11 C50_11 1_555 1_555
N5_11 C50_11 1_555 1_555
C51_11 H32_11 1_555 1_555
C52_11 N5_11 1_555 1_555
C53_11 C52_11 1_555 1_555
H33_11 C53_11 1_555 1_555
C56_12 H34_12 1_555 1_555
C57_11 C56_12 1_555 1_555
H35_12 C57_11 1_555 1_555
C58_11 C57_11 1_555 1_555
C59_11 C58_11 1_555 1_555
H36_11 C59_11 1_555 1_555
N6_11 C59_11 1_555 1_555
C60_11 C51_11 1_555 1_555
H37_11 C60_11 1_555 1_555
C61_11 N6_11 1_555 1_555
C62_11 C53_11 1_555 1_555
H38_11 C62_11 1_555 1_555
C63_11 C46_12 1_555 1_555
H39_11 C63_11 1_555 1_555
C64_11 C49_11 1_555 1_555
H40_11 C64_11 1_555 1_555
C66_11 C58_11 1_555 1_555
Zr5_5 O5_6 1_555 1_555
Zr6_3 O17_7 1_555 1_555
O19_7 Zr6_3 1_555 1_555
C7_11 C8_11 1_555 1_555
C16_11 C17_11 1_555 1_555
C17_11 C18_11 1_555 1_555
C19_11 C20_11 1_555 1_555
C21_11 C22_11 1_555 1_555
C23_13 O26_7 1_555 1_555
C29_12 C30_12 1_555 1_555
C38_12 C39_12 1_555 1_555
C39_12 C40_12 1_555 1_555
C41_11 C42_12 1_555 1_555
C43_13 C44_12 1_555 1_555
O13_6 Zr5_5 1_555 1_555
C45_12 O25_7 1_555 1_555
C51_11 C52_11 1_555 1_555
C60_11 C61_11 1_555 1_555
C61_11 C62_11 1_555 1_555
C63_11 C64_11 1_555 1_555
Zr6_3 O18_7 1_555 1_555
O22_6 C10_12 1_555 1_555
C10_12 C11_12 1_555 1_555
C11_12 C12_12 1_555 1_555
C12_12 H6_12 1_555 1_555
O6_12 C10_12 1_555 1_555
O14_12 C54_12 1_555 1_555
C54_12 C55_12 1_555 1_555
O16_12 C54_12 1_555 1_555
C65_11 C55_12 1_555 1_555
H41_11 C65_11 1_555 1_555
Zr6_6 O14_12 1_555 1_555
Zr10_4 O16_12 1_555 1_555
Zr5_4 O6_12 1_555 1_555
O18_5 Zr4_3 1_555 1_555
C1_13 O22_5 1_555 1_555
C2_13 C1_13 1_555 1_555
C3_11 C2_13 1_555 1_555
H1_11 C3_11 1_555 1_555
C4_12 C3_11 1_555 1_555
H2_11 C4_12 1_555 1_555
C5_12 C4_12 1_555 1_555
C6_12 C5_12 1_555 1_555
H3_12 C6_12 1_555 1_555
N1_12 C6_12 1_555 1_555
C7_12 H4_12 1_555 1_555
C8_12 N1_12 1_555 1_555
C9_12 C8_12 1_555 1_555
H5_12 C9_12 1_555 1_555
C14_12 C13_12 1_555 1_555
C15_12 C14_12 1_555 1_555
H8_12 C15_12 1_555 1_555
N2_12 C15_12 1_555 1_555
C16_12 C7_12 1_555 1_555
H9_12 C16_12 1_555 1_555
C17_12 N2_12 1_555 1_555
C18_12 C9_12 1_555 1_555
H10_12 C18_12 1_555 1_555
O5_7 C1_13 1_555 1_555
C19_12 C2_13 1_555 1_555
H11_12 C19_12 1_555 1_555
C20_12 C5_12 1_555 1_555
H12_12 C20_12 1_555 1_555
H13_12 C21_12 1_555 1_555
C22_12 C14_12 1_555 1_555
H14_12 C22_12 1_555 1_555
O13_7 C45_13 1_555 1_555
C45_13 C46_13 1_555 1_555
C46_13 C47_11 1_555 1_555
C47_11 H29_11 1_555 1_555
C48_12 C47_11 1_555 1_555
H30_11 C48_12 1_555 1_555
C49_12 C48_12 1_555 1_555
C50_12 C49_12 1_555 1_555
H31_12 C50_12 1_555 1_555
N5_12 C50_12 1_555 1_555
C51_12 H32_12 1_555 1_555
C52_12 N5_12 1_555 1_555
C53_12 C52_12 1_555 1_555
H33_12 C53_12 1_555 1_555
C56_13 H34_13 1_555 1_555
C57_12 C56_13 1_555 1_555
H35_13 C57_12 1_555 1_555
C58_12 C57_12 1_555 1_555
C59_12 C58_12 1_555 1_555
H36_12 C59_12 1_555 1_555
N6_12 C59_12 1_555 1_555
C60_12 C51_12 1_555 1_555
H37_12 C60_12 1_555 1_555
C61_12 N6_12 1_555 1_555
C62_12 C53_12 1_555 1_555
H38_12 C62_12 1_555 1_555
C63_12 C46_13 1_555 1_555
H39_12 C63_12 1_555 1_555
C64_12 C49_12 1_555 1_555
H40_12 C64_12 1_555 1_555
C66_12 C58_12 1_555 1_555
Zr4_3 O5_7 1_555 1_555
C7_12 C8_12 1_555 1_555
C16_12 C17_12 1_555 1_555
C17_12 C18_12 1_555 1_555
C19_12 C20_12 1_555 1_555
C21_12 C22_12 1_555 1_555
O19_5 Zr4_3 1_555 1_555
O13_7 Zr4_3 1_555 1_555
C45_13 O24_3 1_555 1_555
C51_12 C52_12 1_555 1_555
C60_12 C61_12 1_555 1_555
C61_12 C62_12 1_555 1_555
C63_12 C64_12 1_555 1_555
Zr4_3 O17_5 1_555 1_555
O4_11 C10_13 1_555 1_555
C10_13 C11_13 1_555 1_555
C11_13 C12_13 1_555 1_555
C12_13 H6_13 1_555 1_555
O6_13 C10_13 1_555 1_555
O14_13 C54_13 1_555 1_555
C54_13 C55_13 1_555 1_555
O24_4 C54_13 1_555 1_555
C65_12 C55_13 1_555 1_555
H41_12 C65_12 1_555 1_555
Zr5_4 O14_13 1_555 1_555
Zr9_5 O4_11 1_555 1_555
Zr6_6 O6_13 1_555 1_555
C1_14 O22_7 1_555 1_555
C2_14 C1_14 1_555 1_555
C3_12 C2_14 1_555 1_555
H1_12 C3_12 1_555 1_555
C4_13 C3_12 1_555 1_555
H2_12 C4_13 1_555 1_555
C5_13 C4_13 1_555 1_555
C6_13 C5_13 1_555 1_555
H3_13 C6_13 1_555 1_555
N1_13 C6_13 1_555 1_555
C7_13 H4_13 1_555 1_555
C8_13 N1_13 1_555 1_555
C9_13 C8_13 1_555 1_555
H5_13 C9_13 1_555 1_555
C14_13 C13_13 1_555 1_555
C15_13 C14_13 1_555 1_555
H8_13 C15_13 1_555 1_555
N2_13 C15_13 1_555 1_555
C16_13 C7_13 1_555 1_555
H9_13 C16_13 1_555 1_555
C17_13 N2_13 1_555 1_555
C18_13 C9_13 1_555 1_555
H10_13 C18_13 1_555 1_555
O5_8 C1_14 1_555 1_555
C19_13 C2_14 1_555 1_555
H11_13 C19_13 1_555 1_555
C20_13 C5_13 1_555 1_555
H12_13 C20_13 1_555 1_555
H13_13 C21_13 1_555 1_555
C22_13 C14_13 1_555 1_555
H14_13 C22_13 1_555 1_555
Zr6_3 O5_8 1_555 1_555
C7_13 C8_13 1_555 1_555
C16_13 C17_13 1_555 1_555
C17_13 C18_13 1_555 1_555
C19_13 C20_13 1_555 1_555
C21_13 C22_13 1_555 1_555
O4_12 C10_14 1_555 1_555
C10_14 C11_14 1_555 1_555
C11_14 C12_14 1_555 1_555
C12_14 H6_14 1_555 1_555
O6_14 C10_14 1_555 1_555
Zr8_3 O4_12 1_555 1_555
Zr6_4 O6_14 1_555 1_555
Zr8_3 O1_8 1_555 1_555
O1_8 Zr6_4 1_555 1_555
O2_12 Zr8_3 1_555 1_555
O7_8 Zr8_3 1_555 1_555
O8_8 Zr8_3 1_555 1_555
Zr10_4 O2_12 1_555 1_555
Zr9_5 O7_8 1_555 1_555
Zr11_6 O1_8 1_555 1_555
O17_8 Zr10_4 1_555 1_555
O18_8 Zr9_5 1_555 1_555
O19_8 Zr10_4 1_555 1_555
O23_5 Zr10_4 1_555 1_555
O25_8 Zr8_3 1_555 1_555
O27_7 Zr9_5 1_555 1_555
O2_12 Zr11_6 1_555 1_555
O7_8 Zr10_4 1_555 1_555
O8_8 Zr9_5 1_555 1_555
O8_8 Zr6_4 1_555 1_555
Zr9_5 O19_8 1_555 1_555
Zr6_4 O18_8 1_555 1_555
Zr11_6 O17_8 1_555 1_555
O13_8 C45_14 1_555 1_555
C45_14 C46_14 1_555 1_555
C46_14 C47_12 1_555 1_555
C47_12 H29_12 1_555 1_555
C48_13 C47_12 1_555 1_555
H30_12 C48_13 1_555 1_555
C49_13 C48_13 1_555 1_555
C50_13 C49_13 1_555 1_555
H31_13 C50_13 1_555 1_555
N5_13 C50_13 1_555 1_555
C51_13 H32_13 1_555 1_555
C52_13 N5_13 1_555 1_555
C53_13 C52_13 1_555 1_555
H33_13 C53_13 1_555 1_555
C56_14 H34_14 1_555 1_555
C57_13 C56_14 1_555 1_555
H35_14 C57_13 1_555 1_555
C58_13 C57_13 1_555 1_555
C59_13 C58_13 1_555 1_555
H36_13 C59_13 1_555 1_555
N6_13 C59_13 1_555 1_555
C60_13 C51_13 1_555 1_555
H37_13 C60_13 1_555 1_555
C61_13 N6_13 1_555 1_555
C62_13 C53_13 1_555 1_555
H38_13 C62_13 1_555 1_555
C63_13 C46_14 1_555 1_555
H39_13 C63_13 1_555 1_555
C64_13 C49_13 1_555 1_555
H40_13 C64_13 1_555 1_555
C66_13 C58_13 1_555 1_555
O13_8 Zr5_2 1_555 1_555
C45_14 O25_5 1_555 1_555
C51_13 C52_13 1_555 1_555
C60_13 C61_13 1_555 1_555
C61_13 C62_13 1_555 1_555
C63_13 C64_13 1_555 1_555
O14_14 C54_14 1_555 1_555
C54_14 C55_14 1_555 1_555
O25_8 C54_14 1_555 1_555
C65_13 C55_14 1_555 1_555
H41_13 C65_13 1_555 1_555
Zr11_6 O14_14 1_555 1_555
Zr6_6 O17_8 1_555 1_555
O19_8 Zr6_6 1_555 1_555
Zr6_6 O18_8 1_555 1_555
C23_14 O23_4 1_555 1_555
C24_14 C23_14 1_555 1_555
C25_13 C24_14 1_555 1_555
H15_13 C25_13 1_555 1_555
C26_13 C25_13 1_555 1_555
H16_13 C26_13 1_555 1_555
C27_13 C26_13 1_555 1_555
C28_13 C27_13 1_555 1_555
H17_13 C28_13 1_555 1_555
N3_13 C28_13 1_555 1_555
C29_13 H18_13 1_555 1_555
C30_13 N3_13 1_555 1_555
C31_13 C30_13 1_555 1_555
H19_13 C31_13 1_555 1_555
O23_5 C32_14 1_555 1_555
C32_14 C33_14 1_555 1_555
C33_14 C34_13 1_555 1_555
C34_13 H20_13 1_555 1_555
C35_13 C34_13 1_555 1_555
H21_13 C35_13 1_555 1_555
C36_13 C35_13 1_555 1_555
C37_13 C36_13 1_555 1_555
H22_13 C37_13 1_555 1_555
N4_13 C37_13 1_555 1_555
C38_13 C29_13 1_555 1_555
H23_13 C38_13 1_555 1_555
C39_13 N4_13 1_555 1_555
C40_13 C31_13 1_555 1_555
H24_13 C40_13 1_555 1_555
C41_12 C24_14 1_555 1_555
H25_12 C41_12 1_555 1_555
C42_13 C27_13 1_555 1_555
H26_12 C42_13 1_555 1_555
O27_7 C32_14 1_555 1_555
C43_14 C33_14 1_555 1_555
H27_14 C43_14 1_555 1_555
C44_13 C36_13 1_555 1_555
H28_14 C44_13 1_555 1_555
C23_14 O27_6 1_555 1_555
C29_13 C30_13 1_555 1_555
C38_13 C39_13 1_555 1_555
C39_13 C40_13 1_555 1_555
C41_12 C42_13 1_555 1_555
C43_14 C44_13 1_555 1_555
C5_14 C4_14 1_555 1_555
C6_14 C5_14 1_555 1_555
H3_14 C6_14 1_555 1_555
N1_14 C6_14 1_555 1_555
C7_14 H4_14 1_555 1_555
C8_14 N1_14 1_555 1_555
C9_14 C8_14 1_555 1_555
H5_14 C9_14 1_555 1_555
O4_13 C10_15 1_555 1_555
C10_15 C11_15 1_555 1_555
C11_15 C12_15 1_555 1_555
C12_15 H6_15 1_555 1_555
C13_14 C12_15 1_555 1_555
H7_15 C13_14 1_555 1_555
C14_14 C13_14 1_555 1_555
C15_14 C14_14 1_555 1_555
H8_14 C15_14 1_555 1_555
N2_14 C15_14 1_555 1_555
C16_14 C7_14 1_555 1_555
H9_14 C16_14 1_555 1_555
C17_14 N2_14 1_555 1_555
C18_14 C9_14 1_555 1_555
H10_14 C18_14 1_555 1_555
C20_14 C5_14 1_555 1_555
O6_15 C10_15 1_555 1_555
C21_14 C11_15 1_555 1_555
H13_14 C21_14 1_555 1_555
C22_14 C14_14 1_555 1_555
H14_14 C22_14 1_555 1_555
Zr5_5 O4_13 1_555 1_555
Zr6_3 O6_15 1_555 1_555
C7_14 C8_14 1_555 1_555
C16_14 C17_14 1_555 1_555
C17_14 C18_14 1_555 1_555
C21_14 C22_14 1_555 1_555
C49_14 C48_14 1_555 1_555
C50_14 C49_14 1_555 1_555
H31_14 C50_14 1_555 1_555
N5_14 C50_14 1_555 1_555
C51_14 H32_14 1_555 1_555
C52_14 N5_14 1_555 1_555
C53_14 C52_14 1_555 1_555
H33_14 C53_14 1_555 1_555
O14_15 C54_15 1_555 1_555
C54_15 C55_15 1_555 1_555
C55_15 C56_15 1_555 1_555
C56_15 H34_15 1_555 1_555
C57_14 C56_15 1_555 1_555
H35_15 C57_14 1_555 1_555
C58_14 C57_14 1_555 1_555
C59_14 C58_14 1_555 1_555
H36_14 C59_14 1_555 1_555
N6_14 C59_14 1_555 1_555
C60_14 C51_14 1_555 1_555
H37_14 C60_14 1_555 1_555
C61_14 N6_14 1_555 1_555
C62_14 C53_14 1_555 1_555
H38_14 C62_14 1_555 1_555
C64_14 C49_14 1_555 1_555
O16_13 C54_15 1_555 1_555
C65_14 C55_15 1_555 1_555
H41_14 C65_14 1_555 1_555
C66_14 C58_14 1_555 1_555
H42_14 C66_14 1_555 1_555
Zr11_5 O14_15 1_555 1_555
Zr5_3 O16_13 1_555 1_555
C51_14 C52_14 1_555 1_555
C60_14 C61_14 1_555 1_555
C61_14 C62_14 1_555 1_555
C65_14 C66_14 1_555 1_555
C27_14 C26_14 1_555 1_555
C28_14 C27_14 1_555 1_555
H17_14 C28_14 1_555 1_555
N3_14 C28_14 1_555 1_555
C29_14 H18_14 1_555 1_555
C30_14 N3_14 1_555 1_555
C31_14 C30_14 1_555 1_555
H19_14 C31_14 1_555 1_555
O10_12 C32_15 1_555 1_555
C32_15 C33_15 1_555 1_555
C33_15 C34_14 1_555 1_555
C34_14 H20_14 1_555 1_555
C35_14 C34_14 1_555 1_555
H21_14 C35_14 1_555 1_555
C36_14 C35_14 1_555 1_555
C37_14 C36_14 1_555 1_555
H22_14 C37_14 1_555 1_555
N4_14 C37_14 1_555 1_555
C38_14 C29_14 1_555 1_555
H23_14 C38_14 1_555 1_555
C39_14 N4_14 1_555 1_555
C40_14 C31_14 1_555 1_555
H24_14 C40_14 1_555 1_555
C42_14 C27_14 1_555 1_555
O12_12 C32_15 1_555 1_555
C43_15 C33_15 1_555 1_555
H27_15 C43_15 1_555 1_555
C44_14 C36_14 1_555 1_555
H28_15 C44_14 1_555 1_555
Zr4_3 O12_12 1_555 1_555
Zr5_2 O10_12 1_555 1_555
C29_14 C30_14 1_555 1_555
C38_14 C39_14 1_555 1_555
C39_14 C40_14 1_555 1_555
C43_15 C44_14 1_555 1_555
O3_7 Zr6_6 1_555 1_555
C1_15 O3_7 1_555 1_555
C2_15 C1_15 1_555 1_555
O5_9 C1_15 1_555 1_555
O8_9 Zr6_6 1_555 1_555
O9_8 Zr11_6 1_555 1_555
C23_15 O9_8 1_555 1_555
C24_15 C23_15 1_555 1_555
O11_8 Zr6_6 1_555 1_555
O13_9 C45_15 1_555 1_555
C45_15 C46_15 1_555 1_555
O15_7 Zr11_6 1_555 1_555
Zr6_4 O5_9 1_555 1_555
O8_9 Zr11_6 1_555 1_555
O8_9 Zr6_4 1_555 1_555
C23_15 O11_8 1_555 1_555
O13_9 Zr6_4 1_555 1_555
C45_15 O15_7 1_555 1_555
O8_10 Zr5_5 1_555 1_555
O9_9 Zr6_5 1_555 1_555
C23_16 O9_9 1_555 1_555
C24_16 C23_16 1_555 1_555
O11_9 Zr5_5 1_555 1_555
C41_13 C24_16 1_555 1_555
H25_13 C41_13 1_555 1_555
O13_10 C45_16 1_555 1_555
C45_16 C46_16 1_555 1_555
C46_16 C47_13 1_555 1_555
C47_13 H29_13 1_555 1_555
O15_8 Zr6_5 1_555 1_555
O8_10 Zr6_5 1_555 1_555
O8_10 Zr6_3 1_555 1_555
C23_16 O11_9 1_555 1_555
O13_10 Zr6_3 1_555 1_555
C45_16 O15_8 1_555 1_555
O10_13 C32_16 1_555 1_555
C32_16 C33_16 1_555 1_555
C33_16 C34_15 1_555 1_555
C34_15 H20_15 1_555 1_555
O12_13 C32_16 1_555 1_555
Zr5_4 O12_13 1_555 1_555
Zr5_3 O10_13 1_555 1_555
O14_16 C54_16 1_555 1_555
C54_16 C55_16 1_555 1_555
O16_14 C54_16 1_555 1_555
C65_15 C55_16 1_555 1_555
H41_15 C65_15 1_555 1_555
Zr4_2 O14_16 1_555 1_555
Zr5_2 O16_14 1_555 1_555
O19_9 Zr5_3 1_555 1_555
O22_8 Zr5_4 1_555 1_555
Zr5_4 O19_9 1_555 1_555
O19_9 Zr11_5 1_555 1_555
C1_16 O22_8 1_555 1_555
C2_16 C1_16 1_555 1_555
O5_10 C1_16 1_555 1_555
C19_14 C2_16 1_555 1_555
H11_14 C19_14 1_555 1_555
Zr11_5 O5_10 1_555 1_555
O4_14 C10_16 1_555 1_555
C10_16 C11_16 1_555 1_555
C11_16 C12_16 1_555 1_555
C12_16 H6_16 1_555 1_555
O6_16 C10_16 1_555 1_555
Zr4_3 O4_14 1_555 1_555
Zr4_2 O6_16 1_555 1_555
O8_11 Zr4_3 1_555 1_555
O8_11 Zr5_2 1_555 1_555
O8_11 Zr4_2 1_555 1_555
H15_14 C25_14 1_555 1_555
H39_14 C63_14 1_555 1_555
H11_15 C19_15 1_555 1_555
C47_14 H29_14 1_555 1_555
H1_13 C3_13 1_555 1_555
H25_14 C41_14 1_555 1_555
H11_16 C19_16 1_555 1_555
C47_15 H29_15 1_555 1_555
H1_14 C3_14 1_555 1_555
H25_15 C41_15 1_555 1_555
H15_15 C25_15 1_555 1_555
H39_15 C63_15 1_555 1_555
H1_15 C3_15 1_555 1_555
C4_15 C3_15 1_555 1_555
H2_15 C4_15 1_555 1_555
C5_15 C4_15 1_555 1_555
C6_15 C5_15 1_555 1_555
H3_15 C6_15 1_555 1_555
N1_15 C6_15 1_555 1_555
C7_15 H4_15 1_555 1_555
C8_15 N1_15 1_555 1_555
C9_15 C8_15 1_555 1_555
H5_15 C9_15 1_555 1_555
C14_15 C13_15 1_555 1_555
C15_15 C14_15 1_555 1_555
H8_15 C15_15 1_555 1_555
N2_15 C15_15 1_555 1_555
C16_15 C7_15 1_555 1_555
H9_15 C16_15 1_555 1_555
C17_15 N2_15 1_555 1_555
C18_15 C9_15 1_555 1_555
H10_15 C18_15 1_555 1_555
C20_15 C5_15 1_555 1_555
H13_15 C21_15 1_555 1_555
C22_15 C14_15 1_555 1_555
H14_15 C22_15 1_555 1_555
C27_15 C26_15 1_555 1_555
C28_15 C27_15 1_555 1_555
H17_15 C28_15 1_555 1_555
N3_15 C28_15 1_555 1_555
C29_15 H18_15 1_555 1_555
C30_15 N3_15 1_555 1_555
C31_15 C30_15 1_555 1_555
H19_15 C31_15 1_555 1_555
C34_16 H20_16 1_555 1_555
C35_15 C34_16 1_555 1_555
H21_16 C35_15 1_555 1_555
C36_15 C35_15 1_555 1_555
C37_15 C36_15 1_555 1_555
H22_15 C37_15 1_555 1_555
N4_15 C37_15 1_555 1_555
C38_15 C29_15 1_555 1_555
H23_15 C38_15 1_555 1_555
C39_15 N4_15 1_555 1_555
C40_15 C31_15 1_555 1_555
H24_15 C40_15 1_555 1_555
H25_16 C41_16 1_555 1_555
C42_15 C27_15 1_555 1_555
H26_16 C42_15 1_555 1_555
C44_15 C36_15 1_555 1_555
C7_15 C8_15 1_555 1_555
C16_15 C17_15 1_555 1_555
C17_15 C18_15 1_555 1_555
C21_15 C22_15 1_555 1_555
C29_15 C30_15 1_555 1_555
C38_15 C39_15 1_555 1_555
C39_15 C40_15 1_555 1_555
C41_16 C42_15 1_555 1_555
C47_16 H29_16 1_555 1_555
C48_15 C47_16 1_555 1_555
H30_16 C48_15 1_555 1_555
C49_15 C48_15 1_555 1_555
C50_15 C49_15 1_555 1_555
H31_15 C50_15 1_555 1_555
N5_15 C50_15 1_555 1_555
C51_15 H32_15 1_555 1_555
C52_15 N5_15 1_555 1_555
C53_15 C52_15 1_555 1_555
H33_15 C53_15 1_555 1_555
C58_15 C57_15 1_555 1_555
C59_15 C58_15 1_555 1_555
H36_15 C59_15 1_555 1_555
N6_15 C59_15 1_555 1_555
C60_15 C51_15 1_555 1_555
H37_15 C60_15 1_555 1_555
C61_15 N6_15 1_555 1_555
C62_15 C53_15 1_555 1_555
H38_15 C62_15 1_555 1_555
C64_15 C49_15 1_555 1_555
H41_16 C65_16 1_555 1_555
C66_15 C58_15 1_555 1_555
H42_16 C66_15 1_555 1_555
C51_15 C52_15 1_555 1_555
C60_15 C61_15 1_555 1_555
C61_15 C62_15 1_555 1_555
C65_16 C66_15 1_555 1_555
H15_16 C25_16 1_555 1_555
C26_16 C25_16 1_555 1_555
H16_16 C26_16 1_555 1_555
C27_16 C26_16 1_555 1_555
C28_16 C27_16 1_555 1_555
H17_16 C28_16 1_555 1_555
N3_16 C28_16 1_555 1_555
C29_16 H18_16 1_555 1_555
C30_16 N3_16 1_555 1_555
C31_16 C30_16 1_555 1_555
H19_16 C31_16 1_555 1_555
C36_16 C35_16 1_555 1_555
C37_16 C36_16 1_555 1_555
H22_16 C37_16 1_555 1_555
N4_16 C37_16 1_555 1_555
C38_16 C29_16 1_555 1_555
H23_16 C38_16 1_555 1_555
C39_16 N4_16 1_555 1_555
C40_16 C31_16 1_555 1_555
H24_16 C40_16 1_555 1_555
C42_16 C27_16 1_555 1_555
H27_16 C43_16 1_555 1_555
C44_16 C36_16 1_555 1_555
H28_16 C44_16 1_555 1_555
C49_16 C48_16 1_555 1_555
C50_16 C49_16 1_555 1_555
H31_16 C50_16 1_555 1_555
N5_16 C50_16 1_555 1_555
C51_16 H32_16 1_555 1_555
C52_16 N5_16 1_555 1_555
C53_16 C52_16 1_555 1_555
H33_16 C53_16 1_555 1_555
C56_16 H34_16 1_555 1_555
C57_16 C56_16 1_555 1_555
H35_16 C57_16 1_555 1_555
C58_16 C57_16 1_555 1_555
C59_16 C58_16 1_555 1_555
H36_16 C59_16 1_555 1_555
N6_16 C59_16 1_555 1_555
C60_16 C51_16 1_555 1_555
H37_16 C60_16 1_555 1_555
C61_16 N6_16 1_555 1_555
C62_16 C53_16 1_555 1_555
H38_16 C62_16 1_555 1_555
H39_16 C63_16 1_555 1_555
C64_16 C49_16 1_555 1_555
H40_16 C64_16 1_555 1_555
C66_16 C58_16 1_555 1_555
C29_16 C30_16 1_555 1_555
C38_16 C39_16 1_555 1_555
C39_16 C40_16 1_555 1_555
C43_16 C44_16 1_555 1_555
C51_16 C52_16 1_555 1_555
C60_16 C61_16 1_555 1_555
C61_16 C62_16 1_555 1_555
C63_16 C64_16 1_555 1_555
H1_16 C3_16 1_555 1_555
C4_16 C3_16 1_555 1_555
H2_16 C4_16 1_555 1_555
C5_16 C4_16 1_555 1_555
C6_16 C5_16 1_555 1_555
H3_16 C6_16 1_555 1_555
N1_16 C6_16 1_555 1_555
C7_16 H4_16 1_555 1_555
C8_16 N1_16 1_555 1_555
C9_16 C8_16 1_555 1_555
H5_16 C9_16 1_555 1_555
C14_16 C13_16 1_555 1_555
C15_16 C14_16 1_555 1_555
H8_16 C15_16 1_555 1_555
N2_16 C15_16 1_555 1_555
C16_16 C7_16 1_555 1_555
H9_16 C16_16 1_555 1_555
C17_16 N2_16 1_555 1_555
C18_16 C9_16 1_555 1_555
H10_16 C18_16 1_555 1_555
C20_16 C5_16 1_555 1_555
H13_16 C21_16 1_555 1_555
C22_16 C14_16 1_555 1_555
H14_16 C22_16 1_555 1_555
C7_16 C8_16 1_555 1_555
C16_16 C17_16 1_555 1_555
C17_16 C18_16 1_555 1_555
C21_16 C22_16 1_555 1_555

#END
