
###############################################################################
#
# This file contains modified crystal structure data generated from the
# MOF subset of the Cambridge Structural Database (CSD) v543 
# hosted by the Cambridge Crystallographic Data Centre (CCDC).
#
# This work is licensed under the Creative Commons
# Attribution-NonCommercial-ShareAlike 4.0 International License.
# To view a copy of this license, visit
# http://creativecommons.org/licenses/by-nc-sa/4.0/
# or send a letter to
# Creative Commons, PO Box 1866, Mountain View, CA 94042, USA.
#
# CIF created using the CSD Python API on 29 September 2022
# The structure has been converted into the P1 space group
# The structure has a 3D framework
# The original CSD entry KOPLIN is in the tetragonal crystal system
# The framework has been calculated to contain at least 10.0% void space
# The void calculation uses a probe of radius 1.32A, grid spacing 0.4
# The framework is charged, counterions have been retained in the structure
#
###############################################################################

data_KOPLIN
_chemical_formula_moiety         '(C336 H48 Mn80 N96 O384 80-)n'
_symmetry_cell_setting           triclinic
_symmetry_space_group_name_H-M   'P 1'
_symmetry_Int_Tables_number      1
_space_group_name_Hall           'P 1'
loop_
_symmetry_equiv_pos_site_id
_symmetry_equiv_pos_as_xyz
1 x,y,z
_cell_length_a                   26.343(7)
_cell_length_b                   26.343(7)
_cell_length_c                   37.301(11)
_cell_angle_alpha                90
_cell_angle_beta                 90
_cell_angle_gamma                90
_cell_volume                     25885.2
loop_
_atom_site_label
_atom_site_type_symbol
_atom_site_fract_x
_atom_site_fract_y
_atom_site_fract_z
Mn1 Mn 0.01695(8) 0.17384(8) 0.83954(6)
Mn5 Mn 0.22135(8) 0.18628(8) 0.90256(5)
O3 O 0.0776(4) 0.4408(4) 0.7834(2)
O7 O 0.0245(4) 0.3477(4) 0.7299(3)
O9 O 0.0989(3) 0.3834(4) 0.7269(3)
O12 O 0.2324(4) 0.0430(4) 0.8547(3)
O13 O 0.0872(5) 0.2167(4) 0.8504(3)
O19 O 0.2414(4) 0.1226(4) 0.8679(3)
O21 O 0.0011(4) 0.4075(4) 0.7871(3)
O23 O 0.1718(4) 0.2100(4) 0.8628(3)
N1 N 0.0028(5) 0.1836(4) 0.7816(3)
N4 N 0.1318(4) 0.0509(4) 0.8427(3)
N5 N 0.0769(5) 0.1173(5) 0.8403(3)
C2 C 0.1260(5) 0.1342(5) 0.8488(3)
C3 C 0.1567(5) 0.0928(5) 0.8514(3)
C5 C 0.2137(5) 0.0879(5) 0.8600(3)
C8 C 0.0086(6) 0.1622(6) 0.7514(4)
H1 H 0.0270 0.1313 0.7494
C10 C 0.0538(6) 0.3789(5) 0.7402(4)
C11 C 0.0823(5) 0.0676(6) 0.8372(3)
H2 H 0.0549 0.0454 0.8318
C13 C 0.0450(5) 0.4083(6) 0.7731(4)
C18 C 0.1353(6) 0.1909(6) 0.8534(4)
Mn6 Mn 0.14259(9) 0.44942(9) 0.74464(7)
O25 O 0.1566(4) 0.1650(5) 0.9352(2)
O29 O 0.2532(4) 0.1492(4) 0.9509(2)
O30 O 0.2199(4) 0.2641(4) 0.9313(3)
O31 O 0.0430(4) 0.2324(4) 0.6453(3)
O32 O 0.2984(5) 0.2204(5) 0.8887(3)
N8 N 0.0509(4) 0.1318(4) 0.6573(3)
Mn7 Mn 0.17655(9) 0.98296(8) 0.83652(6)
O2 O 0.8350(5) 0.1566(4) 0.0648(2)
O10 O 0.8508(4) 0.2532(4) 0.0491(2)
O22 O 0.8527(4) 0.1342(4) 0.0076(2)
C17 C 0.8575(4) 0.2224(5) 0.0244(3)
C20 C 0.8464(5) 0.1666(5) 0.0325(3)
Mn9 Mn 0.81372(8) 0.22135(8) 0.09744(5)
Mn2 Mn 0.94942(9) 0.35741(9) 0.75536(7)
Mn3 Mn 0.98296(8) 0.17655(9) 0.66348(6)
Mn4 Mn 0.86210(9) 0.16841(8) 0.95490(5)
O1 O 0.9360(3) 0.2427(3) 0.6787(2)
O4 O 0.9754(4) 0.2490(4) 0.8358(3)
O5 O 0.8161(4) 0.0439(4) 0.8940(3)
O6 O 0.9973(4) 0.1793(4) 0.8966(3)
O8 O 0.9183(3) 0.3014(4) 0.7220(2)
O11 O 0.7199(4) 0.2359(4) 0.9313(3)
O14 O 0.9362(4) 0.1581(4) 0.9394(3)
O15 O 0.8753(4) 0.2335(5) 0.9919(3)
O16 O 0.8428(4) 0.0937(4) 0.9349(3)
O17 O 0.8512(4) 0.2194(4) 0.9105(2)
O18 O 0.9428(4) 0.3055(4) 0.7990(3)
O20 O 0.7984(5) 0.2796(5) 0.8887(3)
O24 O 0.7761(4) 0.1847(4) 0.9549(3)
N2 N 0.8831(4) 0.0736(4) 0.8440(3)
N3 N 0.9485(5) 0.1235(5) 0.8465(3)
N6 N 0.9877(5) 0.1848(5) 0.7215(3)
C1 C 0.9700(5) 0.2289(5) 0.7357(3)
C4 C 0.9773(4) 0.2285(5) 0.7734(3)
C6 C 0.8849(4) 0.0932(4) 0.8787(3)
C7 C 0.9665(4) 0.2642(5) 0.8057(3)
C9 C 0.8450(5) 0.0755(5) 0.9054(3)
C12 C 0.7635(6) 0.2215(5) 0.9365(4)
C14 C 0.9171(6) 0.0968(6) 0.8272(4)
H3 H 0.9198 0.0949 0.8019
C15 C 0.9373(5) 0.2604(5) 0.7113(3)
C16 C 0.9313(4) 0.1246(5) 0.8796(3)
C19 C 0.9587(6) 0.1548(5) 0.9073(4)
C21 C 0.8012(6) 0.2429(7) 0.9108(3)
Mn8 Mn 0.82345(9) 0.01704(8) 0.83652(6)
Mn10 Mn 0.72135(8) 0.31372(8) 0.90256(5)
O26 O 0.9408(4) 0.4224(4) 0.7166(2)
O27 O 0.9561(4) 0.1839(4) 0.6060(3)
O28 O 0.8834(4) 0.4011(3) 0.7731(3)
N7 N 0.9264(4) 0.1169(4) 0.6560(3)
Mn2_2 Mn 0.35741(9) 0.05058(9) 0.24464(7)
Mn3_2 Mn 0.17655(9) 0.01704(8) 0.33652(6)
Mn4_2 Mn 0.16841(8) 0.13790(9) 0.04510(5)
O1_2 O 0.2427(3) 0.0640(3) 0.3213(2)
O4_2 O 0.2490(4) 0.0246(4) 0.1642(3)
O5_2 O 0.0439(4) 0.1839(4) 0.1060(3)
O6_2 O 0.1793(4) 0.0027(4) 0.1034(3)
O8_2 O 0.3014(4) 0.0817(3) 0.2780(2)
O11_2 O 0.2359(4) 0.2801(4) 0.0687(3)
O14_2 O 0.1581(4) 0.0638(4) 0.0606(3)
O15_2 O 0.2335(5) 0.1247(4) 0.0081(3)
O16_2 O 0.0937(4) 0.1572(4) 0.0651(3)
O17_2 O 0.2194(4) 0.1488(4) 0.0895(2)
O18_2 O 0.3055(4) 0.0572(4) 0.2010(3)
O20_2 O 0.2796(5) 0.2016(5) 0.1113(3)
O24_2 O 0.1847(4) 0.2239(4) 0.0451(3)
N2_2 N 0.0736(4) 0.1169(4) 0.1560(3)
N3_2 N 0.1235(5) 0.0515(5) 0.1535(3)
N6_2 N 0.1848(5) 0.0123(5) 0.2785(3)
C1_2 C 0.2289(5) 0.0300(5) 0.2643(3)
C4_2 C 0.2285(5) 0.0227(4) 0.2266(3)
C6_2 C 0.0932(4) 0.1151(4) 0.1213(3)
C7_2 C 0.2642(5) 0.0335(4) 0.1943(3)
C9_2 C 0.0755(5) 0.1550(5) 0.0946(3)
C12_2 C 0.2215(5) 0.2365(6) 0.0635(4)
C14_2 C 0.0968(6) 0.0829(6) 0.1728(4)
H3_2 H 0.0949 0.0802 0.1981
C15_2 C 0.2604(5) 0.0627(5) 0.2887(3)
C16_2 C 0.1246(5) 0.0687(4) 0.1204(3)
C19_2 C 0.1548(5) 0.0413(6) 0.0927(4)
C21_2 C 0.2429(7) 0.1988(6) 0.0892(3)
Mn8_2 Mn 0.01704(8) 0.17655(9) 0.16348(6)
Mn10_2 Mn 0.31372(8) 0.27865(8) 0.09744(5)
O26_2 O 0.4224(4) 0.0592(4) 0.2834(2)
O27_2 O 0.1839(4) 0.0439(4) 0.3940(3)
O28_2 O 0.4011(3) 0.1166(4) 0.2269(3)
N7_2 N 0.1169(4) 0.0736(4) 0.3440(3)
O22_2 O 0.1342(4) 0.1473(4) 0.9924(2)
C17_2 C 0.2224(5) 0.1425(4) 0.9756(3)
C20_2 C 0.1666(5) 0.1536(5) 0.9675(3)
Mn1_2 Mn 0.17384(8) 0.98305(8) 0.16046(6)
Mn5_2 Mn 0.18628(8) 0.77865(8) 0.09744(5)
O3_2 O 0.4408(4) 0.9224(4) 0.2166(2)
O7_2 O 0.3477(4) 0.9755(4) 0.2701(3)
O9_2 O 0.3834(4) 0.9011(3) 0.2731(3)
O12_2 O 0.0430(4) 0.7676(4) 0.1453(3)
O13_2 O 0.2167(4) 0.9128(5) 0.1496(3)
O19_2 O 0.1226(4) 0.7586(4) 0.1321(3)
O21_2 O 0.4075(4) 0.9989(4) 0.2129(3)
O23_2 O 0.2100(4) 0.8282(4) 0.1372(3)
N1_2 N 0.1836(4) 0.9972(5) 0.2184(3)
N4_2 N 0.0509(4) 0.8682(4) 0.1573(3)
N5_2 N 0.1173(5) 0.9231(5) 0.1597(3)
C2_2 C 0.1342(5) 0.8740(5) 0.1512(3)
C3_2 C 0.0928(5) 0.8433(5) 0.1486(3)
C5_2 C 0.0879(5) 0.7863(5) 0.1400(3)
C8_2 C 0.1622(6) 0.9914(6) 0.2486(4)
H1_2 H 0.1313 0.9730 0.2506
C10_2 C 0.3789(5) 0.9462(6) 0.2598(4)
C11_2 C 0.0676(6) 0.9177(5) 0.1628(3)
H2_2 H 0.0454 0.9451 0.1682
C13_2 C 0.4083(6) 0.9550(5) 0.2269(4)
C18_2 C 0.1909(6) 0.8647(6) 0.1466(4)
Mn6_2 Mn 0.44942(9) 0.85741(9) 0.25536(7)
O25_2 O 0.1650(5) 0.8434(4) 0.0648(2)
O29_2 O 0.1492(4) 0.7468(4) 0.0491(2)
O30_2 O 0.2641(4) 0.7801(4) 0.0687(3)
O31_2 O 0.2324(4) 0.9570(4) 0.3547(3)
O32_2 O 0.2204(5) 0.7016(5) 0.1113(3)
N8_2 N 0.1318(4) 0.9491(4) 0.3427(3)
Mn7_2 Mn 0.98296(8) 0.82345(9) 0.16348(6)
O22_3 O 0.1473(4) 0.8658(4) 0.0076(2)
C17_3 C 0.1425(4) 0.7776(5) 0.0244(3)
C20_3 C 0.1536(5) 0.8334(5) 0.0325(3)
Mn2_3 Mn 0.05058(9) 0.64259(9) 0.75536(7)
Mn3_3 Mn 0.01704(8) 0.82345(9) 0.66348(6)
Mn4_3 Mn 0.13790(9) 0.83159(8) 0.95490(5)
O1_3 O 0.0640(3) 0.7573(3) 0.6787(2)
O4_3 O 0.0246(4) 0.7510(4) 0.8358(3)
O5_3 O 0.1839(4) 0.9561(4) 0.8940(3)
O6_3 O 0.0027(4) 0.8207(4) 0.8966(3)
O8_3 O 0.0817(3) 0.6986(4) 0.7220(2)
O11_3 O 0.2801(4) 0.7641(4) 0.9313(3)
O14_3 O 0.0638(4) 0.8419(4) 0.9394(3)
O15_3 O 0.1247(4) 0.7665(5) 0.9919(3)
O16_3 O 0.1572(4) 0.9063(4) 0.9349(3)
O17_3 O 0.1488(4) 0.7806(4) 0.9105(2)
O18_3 O 0.0572(4) 0.6945(4) 0.7990(3)
O20_3 O 0.2016(5) 0.7204(5) 0.8887(3)
O24_3 O 0.2239(4) 0.8153(4) 0.9549(3)
N2_3 N 0.1169(4) 0.9264(4) 0.8440(3)
N3_3 N 0.0515(5) 0.8765(5) 0.8465(3)
N6_3 N 0.0123(5) 0.8152(5) 0.7215(3)
C1_3 C 0.0300(5) 0.7711(5) 0.7357(3)
C4_3 C 0.0227(4) 0.7715(5) 0.7734(3)
C6_3 C 0.1151(4) 0.9068(4) 0.8787(3)
C7_3 C 0.0335(4) 0.7358(5) 0.8057(3)
C9_3 C 0.1550(5) 0.9245(5) 0.9054(3)
C12_3 C 0.2365(6) 0.7785(5) 0.9365(4)
C14_3 C 0.0829(6) 0.9032(6) 0.8272(4)
H3_3 H 0.0802 0.9051 0.8019
C15_3 C 0.0627(5) 0.7396(5) 0.7113(3)
C16_3 C 0.0687(4) 0.8754(5) 0.8796(3)
C19_3 C 0.0413(6) 0.8452(5) 0.9073(4)
C21_3 C 0.1988(6) 0.7571(7) 0.9108(3)
Mn10_3 Mn 0.27865(8) 0.68628(8) 0.90256(5)
O26_3 O 0.0592(4) 0.5776(4) 0.7166(2)
O27_3 O 0.0439(4) 0.8161(4) 0.6060(3)
O28_3 O 0.1166(4) 0.5989(3) 0.7731(3)
N7_3 N 0.0736(4) 0.8831(4) 0.6560(3)
Mn1_3 Mn 0.98305(8) 0.82616(8) 0.83954(6)
Mn5_3 Mn 0.77865(8) 0.81372(8) 0.90256(5)
O3_3 O 0.9224(4) 0.5592(4) 0.7834(2)
O7_3 O 0.9755(4) 0.6523(4) 0.7299(3)
O9_3 O 0.9011(3) 0.6166(4) 0.7269(3)
O12_3 O 0.7676(4) 0.9570(4) 0.8547(3)
O13_3 O 0.9128(5) 0.7833(4) 0.8504(3)
O19_3 O 0.7586(4) 0.8774(4) 0.8679(3)
O21_3 O 0.9989(4) 0.5925(4) 0.7871(3)
O23_3 O 0.8282(4) 0.7900(4) 0.8628(3)
N1_3 N 0.9972(5) 0.8164(4) 0.7816(3)
N4_3 N 0.8682(4) 0.9491(4) 0.8427(3)
N5_3 N 0.9231(5) 0.8827(5) 0.8403(3)
C2_3 C 0.8740(5) 0.8658(5) 0.8488(3)
C3_3 C 0.8433(5) 0.9072(5) 0.8514(3)
C5_3 C 0.7863(5) 0.9121(5) 0.8600(3)
C8_3 C 0.9914(6) 0.8378(6) 0.7514(4)
H1_3 H 0.9730 0.8687 0.7494
C10_3 C 0.9462(6) 0.6211(5) 0.7402(4)
C11_3 C 0.9177(5) 0.9324(6) 0.8372(3)
H2_3 H 0.9451 0.9546 0.8318
C13_3 C 0.9550(5) 0.5917(6) 0.7731(4)
C18_3 C 0.8647(6) 0.8091(6) 0.8534(4)
Mn6_3 Mn 0.85741(9) 0.55058(9) 0.74464(7)
O25_3 O 0.8434(4) 0.8350(5) 0.9352(2)
O29_3 O 0.7468(4) 0.8508(4) 0.9509(2)
O30_3 O 0.7801(4) 0.7359(4) 0.9313(3)
O31_3 O 0.9570(4) 0.7676(4) 0.6453(3)
O32_3 O 0.7016(5) 0.7796(5) 0.8887(3)
N8_3 N 0.9491(4) 0.8682(4) 0.6573(3)
Mn1_4 Mn 0.82616(8) 0.01695(8) 0.16046(6)
O3_4 O 0.5592(4) 0.0776(4) 0.2166(2)
O7_4 O 0.6523(4) 0.0245(4) 0.2701(3)
O9_4 O 0.6166(4) 0.0989(3) 0.2731(3)
O12_4 O 0.9570(4) 0.2324(4) 0.1453(3)
O13_4 O 0.7833(4) 0.0872(5) 0.1496(3)
O19_4 O 0.8774(4) 0.2414(4) 0.1321(3)
O21_4 O 0.5925(4) 0.0011(4) 0.2129(3)
O23_4 O 0.7900(4) 0.1718(4) 0.1372(3)
N1_4 N 0.8164(4) 0.0028(5) 0.2184(3)
N4_4 N 0.9491(4) 0.1318(4) 0.1573(3)
N5_4 N 0.8827(5) 0.0769(5) 0.1597(3)
C2_4 C 0.8658(5) 0.1260(5) 0.1512(3)
C3_4 C 0.9072(5) 0.1567(5) 0.1486(3)
C5_4 C 0.9121(5) 0.2137(5) 0.1400(3)
C8_4 C 0.8378(6) 0.0086(6) 0.2486(4)
H1_4 H 0.8687 0.0270 0.2506
C10_4 C 0.6211(5) 0.0538(6) 0.2598(4)
C11_4 C 0.9324(6) 0.0823(5) 0.1628(3)
H2_4 H 0.9546 0.0549 0.1682
C13_4 C 0.5917(6) 0.0450(5) 0.2269(4)
C18_4 C 0.8091(6) 0.1353(6) 0.1466(4)
Mn6_4 Mn 0.55058(9) 0.14259(9) 0.25536(7)
O30_4 O 0.7359(4) 0.2199(4) 0.0687(3)
O31_4 O 0.7676(4) 0.0430(4) 0.3547(3)
O32_4 O 0.7796(5) 0.2984(5) 0.1113(3)
N8_4 N 0.8682(4) 0.0509(4) 0.3427(3)
Mn2_4 Mn 0.64259(9) 0.94942(9) 0.24464(7)
Mn3_4 Mn 0.82345(9) 0.98296(8) 0.33652(6)
Mn4_4 Mn 0.83159(8) 0.86210(9) 0.04510(5)
O1_4 O 0.7573(3) 0.9360(3) 0.3213(2)
O4_4 O 0.7510(4) 0.9754(4) 0.1642(3)
O5_4 O 0.9561(4) 0.8161(4) 0.1060(3)
O6_4 O 0.8207(4) 0.9973(4) 0.1034(3)
O8_4 O 0.6986(4) 0.9183(3) 0.2780(2)
O11_4 O 0.7641(4) 0.7199(4) 0.0687(3)
O14_4 O 0.8419(4) 0.9362(4) 0.0606(3)
O15_4 O 0.7665(5) 0.8753(4) 0.0081(3)
O16_4 O 0.9063(4) 0.8428(4) 0.0651(3)
O17_4 O 0.7806(4) 0.8512(4) 0.0895(2)
O18_4 O 0.6945(4) 0.9428(4) 0.2010(3)
O20_4 O 0.7204(5) 0.7984(5) 0.1113(3)
O24_4 O 0.8153(4) 0.7761(4) 0.0451(3)
N2_4 N 0.9264(4) 0.8831(4) 0.1560(3)
N3_4 N 0.8765(5) 0.9485(5) 0.1535(3)
N6_4 N 0.8152(5) 0.9877(5) 0.2785(3)
C1_4 C 0.7711(5) 0.9700(5) 0.2643(3)
C4_4 C 0.7715(5) 0.9773(4) 0.2266(3)
C6_4 C 0.9068(4) 0.8849(4) 0.1213(3)
C7_4 C 0.7358(5) 0.9665(4) 0.1943(3)
C9_4 C 0.9245(5) 0.8450(5) 0.0946(3)
C12_4 C 0.7785(5) 0.7635(6) 0.0635(4)
C14_4 C 0.9032(6) 0.9171(6) 0.1728(4)
H3_4 H 0.9051 0.9198 0.1981
C15_4 C 0.7396(5) 0.9373(5) 0.2887(3)
C16_4 C 0.8754(5) 0.9313(4) 0.1204(3)
C19_4 C 0.8452(5) 0.9587(6) 0.0927(4)
C21_4 C 0.7571(7) 0.8012(6) 0.0892(3)
Mn10_4 Mn 0.68628(8) 0.72135(8) 0.09744(5)
O26_4 O 0.5776(4) 0.9408(4) 0.2834(2)
O27_4 O 0.8161(4) 0.9561(4) 0.3940(3)
O28_4 O 0.5989(3) 0.8834(4) 0.2269(3)
N7_4 N 0.8831(4) 0.9264(4) 0.3440(3)
O22_4 O 0.8658(4) 0.8527(4) 0.9924(2)
C17_4 C 0.7776(5) 0.8575(4) 0.9756(3)
C20_4 C 0.8334(5) 0.8464(5) 0.9675(3)
Mn2_5 Mn 0.05058(9) 0.35741(9) 0.25536(7)
Mn4_5 Mn 0.13790(9) 0.16841(8) 0.45490(5)
O1_5 O 0.0640(3) 0.2427(3) 0.1787(2)
O2_2 O 0.1650(5) 0.1566(4) 0.5648(2)
O4_5 O 0.0246(4) 0.2490(4) 0.3358(3)
O6_5 O 0.0027(4) 0.1793(4) 0.3966(3)
O8_5 O 0.0817(3) 0.3014(4) 0.2220(2)
O10_2 O 0.1492(4) 0.2532(4) 0.5491(2)
O11_5 O 0.2801(4) 0.2359(4) 0.4313(3)
O14_5 O 0.0638(4) 0.1581(4) 0.4394(3)
O15_5 O 0.1247(4) 0.2335(5) 0.4919(3)
O16_5 O 0.1572(4) 0.0937(4) 0.4349(3)
O17_5 O 0.1488(4) 0.2194(4) 0.4105(2)
O18_5 O 0.0572(4) 0.3055(4) 0.2990(3)
O20_5 O 0.2016(5) 0.2796(5) 0.3887(3)
O22_5 O 0.1473(4) 0.1342(4) 0.5076(2)
O24_5 O 0.2239(4) 0.1847(4) 0.4549(3)
N3_5 N 0.0515(5) 0.1235(5) 0.3465(3)
N6_5 N 0.0123(5) 0.1848(5) 0.2215(3)
C1_5 C 0.0300(5) 0.2289(5) 0.2357(3)
C4_5 C 0.0227(4) 0.2285(5) 0.2734(3)
C6_5 C 0.1151(4) 0.0932(4) 0.3787(3)
C7_5 C 0.0335(4) 0.2642(5) 0.3057(3)
C9_5 C 0.1550(5) 0.0755(5) 0.4054(3)
C12_5 C 0.2365(6) 0.2215(5) 0.4365(4)
C14_5 C 0.0829(6) 0.0968(6) 0.3272(4)
H3_5 H 0.0802 0.0949 0.3019
C15_5 C 0.0627(5) 0.2604(5) 0.2113(3)
C16_5 C 0.0687(4) 0.1246(5) 0.3796(3)
C17_5 C 0.1425(4) 0.2224(5) 0.5244(3)
C19_5 C 0.0413(6) 0.1548(5) 0.4073(4)
C20_5 C 0.1536(5) 0.1666(5) 0.5325(3)
C21_5 C 0.1988(6) 0.2429(7) 0.4108(3)
Mn9_2 Mn 0.18628(8) 0.22135(8) 0.59744(5)
Mn10_5 Mn 0.27865(8) 0.31372(8) 0.40256(5)
O26_5 O 0.0592(4) 0.4224(4) 0.2166(2)
O28_5 O 0.1166(4) 0.4011(3) 0.2731(3)
Mn1_5 Mn 0.98305(8) 0.17384(8) 0.33954(6)
Mn5_4 Mn 0.77865(8) 0.18628(8) 0.40256(5)
O3_5 O 0.9224(4) 0.4408(4) 0.2834(2)
O7_5 O 0.9755(4) 0.3477(4) 0.2299(3)
O9_5 O 0.9011(3) 0.3834(4) 0.2269(3)
O13_5 O 0.9128(5) 0.2167(4) 0.3504(3)
O19_5 O 0.7586(4) 0.1226(4) 0.3679(3)
O21_5 O 0.9989(4) 0.4075(4) 0.2871(3)
O23_5 O 0.8282(4) 0.2100(4) 0.3628(3)
N1_5 N 0.9972(5) 0.1836(4) 0.2816(3)
N5_5 N 0.9231(5) 0.1173(5) 0.3403(3)
C2_5 C 0.8740(5) 0.1342(5) 0.3488(3)
C3_5 C 0.8433(5) 0.0928(5) 0.3514(3)
C5_5 C 0.7863(5) 0.0879(5) 0.3600(3)
C8_5 C 0.9914(6) 0.1622(6) 0.2514(4)
H1_5 H 0.9730 0.1313 0.2494
C10_5 C 0.9462(6) 0.3789(5) 0.2402(4)
C11_5 C 0.9177(5) 0.0676(6) 0.3372(3)
H2_5 H 0.9451 0.0454 0.3318
C13_5 C 0.9550(5) 0.4083(6) 0.2731(4)
C18_5 C 0.8647(6) 0.1909(6) 0.3534(4)
Mn6_5 Mn 0.85741(9) 0.44942(9) 0.24464(7)
O25_4 O 0.8434(4) 0.1650(5) 0.4352(2)
O29_4 O 0.7468(4) 0.1492(4) 0.4509(2)
O30_5 O 0.7801(4) 0.2641(4) 0.4313(3)
O32_5 O 0.7016(5) 0.2204(5) 0.3887(3)
Mn1_6 Mn 0.17384(8) 0.01695(8) 0.66046(6)
O3_6 O 0.4408(4) 0.0776(4) 0.7166(2)
O7_6 O 0.3477(4) 0.0245(4) 0.7701(3)
O9_6 O 0.3834(4) 0.0989(3) 0.7731(3)
O13_6 O 0.2167(4) 0.0872(5) 0.6496(3)
O19_6 O 0.1226(4) 0.2414(4) 0.6321(3)
O21_6 O 0.4075(4) 0.0011(4) 0.7129(3)
O23_6 O 0.2100(4) 0.1718(4) 0.6372(3)
N1_6 N 0.1836(4) 0.0028(5) 0.7184(3)
N5_6 N 0.1173(5) 0.0769(5) 0.6597(3)
C2_6 C 0.1342(5) 0.1260(5) 0.6512(3)
C3_6 C 0.0928(5) 0.1567(5) 0.6486(3)
C5_6 C 0.0879(5) 0.2137(5) 0.6400(3)
C8_6 C 0.1622(6) 0.0086(6) 0.7486(4)
H1_6 H 0.1313 0.0270 0.7506
C10_6 C 0.3789(5) 0.0538(6) 0.7598(4)
C11_6 C 0.0676(6) 0.0823(5) 0.6628(3)
H2_6 H 0.0454 0.0549 0.6682
C13_6 C 0.4083(6) 0.0450(5) 0.7269(4)
C18_6 C 0.1909(6) 0.1353(6) 0.6466(4)
Mn6_6 Mn 0.44942(9) 0.14259(9) 0.75536(7)
O30_6 O 0.2641(4) 0.2199(4) 0.5687(3)
O32_6 O 0.2204(5) 0.2984(5) 0.6113(3)
Mn2_6 Mn 0.35741(9) 0.94942(9) 0.74464(7)
Mn4_6 Mn 0.16841(8) 0.86210(9) 0.54510(5)
O1_6 O 0.2427(3) 0.9360(3) 0.8213(2)
O2_3 O 0.1566(4) 0.8350(5) 0.4352(2)
O4_6 O 0.2490(4) 0.9754(4) 0.6642(3)
O6_6 O 0.1793(4) 0.9973(4) 0.6034(3)
O8_6 O 0.3014(4) 0.9183(3) 0.7780(2)
O10_3 O 0.2532(4) 0.8508(4) 0.4509(2)
O11_6 O 0.2359(4) 0.7199(4) 0.5687(3)
O14_6 O 0.1581(4) 0.9362(4) 0.5606(3)
O15_6 O 0.2335(5) 0.8753(4) 0.5081(3)
O16_6 O 0.0937(4) 0.8428(4) 0.5651(3)
O17_6 O 0.2194(4) 0.8512(4) 0.5895(2)
O18_6 O 0.3055(4) 0.9428(4) 0.7010(3)
O20_6 O 0.2796(5) 0.7984(5) 0.6113(3)
O22_6 O 0.1342(4) 0.8527(4) 0.4924(2)
O24_6 O 0.1847(4) 0.7761(4) 0.5451(3)
N3_6 N 0.1235(5) 0.9485(5) 0.6535(3)
N6_6 N 0.1848(5) 0.9877(5) 0.7785(3)
C1_6 C 0.2289(5) 0.9700(5) 0.7643(3)
C4_6 C 0.2285(5) 0.9773(4) 0.7266(3)
C6_6 C 0.0932(4) 0.8849(4) 0.6213(3)
C7_6 C 0.2642(5) 0.9665(4) 0.6943(3)
C9_6 C 0.0755(5) 0.8450(5) 0.5946(3)
C12_6 C 0.2215(5) 0.7635(6) 0.5635(4)
C14_6 C 0.0968(6) 0.9171(6) 0.6728(4)
H3_6 H 0.0949 0.9198 0.6981
C15_6 C 0.2604(5) 0.9373(5) 0.7887(3)
C16_6 C 0.1246(5) 0.9313(4) 0.6204(3)
C17_6 C 0.2224(5) 0.8575(4) 0.4756(3)
C19_6 C 0.1548(5) 0.9587(6) 0.5927(4)
C20_6 C 0.1666(5) 0.8464(5) 0.4675(3)
C21_6 C 0.2429(7) 0.8012(6) 0.5892(3)
Mn9_3 Mn 0.22135(8) 0.81372(8) 0.40256(5)
Mn10_6 Mn 0.31372(8) 0.72135(8) 0.59744(5)
O26_6 O 0.4224(4) 0.9408(4) 0.7834(2)
O28_6 O 0.4011(3) 0.8834(4) 0.7269(3)
Mn1_7 Mn 0.01695(8) 0.82616(8) 0.33954(6)
O3_7 O 0.0776(4) 0.5592(4) 0.2834(2)
O7_7 O 0.0245(4) 0.6523(4) 0.2299(3)
O9_7 O 0.0989(3) 0.6166(4) 0.2269(3)
O13_7 O 0.0872(5) 0.7833(4) 0.3504(3)
O19_7 O 0.2414(4) 0.8774(4) 0.3679(3)
O21_7 O 0.0011(4) 0.5925(4) 0.2871(3)
O23_7 O 0.1718(4) 0.7900(4) 0.3628(3)
N1_7 N 0.0028(5) 0.8164(4) 0.2816(3)
N5_7 N 0.0769(5) 0.8827(5) 0.3403(3)
C2_7 C 0.1260(5) 0.8658(5) 0.3488(3)
C3_7 C 0.1567(5) 0.9072(5) 0.3514(3)
C5_7 C 0.2137(5) 0.9121(5) 0.3600(3)
C8_7 C 0.0086(6) 0.8378(6) 0.2514(4)
H1_7 H 0.0270 0.8687 0.2494
C10_7 C 0.0538(6) 0.6211(5) 0.2402(4)
C11_7 C 0.0823(5) 0.9324(6) 0.3372(3)
H2_7 H 0.0549 0.9546 0.3318
C13_7 C 0.0450(5) 0.5917(6) 0.2731(4)
C18_7 C 0.1353(6) 0.8091(6) 0.3534(4)
Mn6_7 Mn 0.14259(9) 0.55058(9) 0.24464(7)
O30_7 O 0.2199(4) 0.7359(4) 0.4313(3)
O32_7 O 0.2984(5) 0.7796(5) 0.3887(3)
Mn2_7 Mn 0.94942(9) 0.64259(9) 0.25536(7)
Mn4_7 Mn 0.86210(9) 0.83159(8) 0.45490(5)
O1_7 O 0.9360(3) 0.7573(3) 0.1787(2)
O2_4 O 0.8350(5) 0.8434(4) 0.5648(2)
O4_7 O 0.9754(4) 0.7510(4) 0.3358(3)
O6_7 O 0.9973(4) 0.8207(4) 0.3966(3)
O8_7 O 0.9183(3) 0.6986(4) 0.2220(2)
O10_4 O 0.8508(4) 0.7468(4) 0.5491(2)
O11_7 O 0.7199(4) 0.7641(4) 0.4313(3)
O14_7 O 0.9362(4) 0.8419(4) 0.4394(3)
O15_7 O 0.8753(4) 0.7665(5) 0.4919(3)
O16_7 O 0.8428(4) 0.9063(4) 0.4349(3)
O17_7 O 0.8512(4) 0.7806(4) 0.4105(2)
O18_7 O 0.9428(4) 0.6945(4) 0.2990(3)
O20_7 O 0.7984(5) 0.7204(5) 0.3887(3)
O22_7 O 0.8527(4) 0.8658(4) 0.5076(2)
O24_7 O 0.7761(4) 0.8153(4) 0.4549(3)
N3_7 N 0.9485(5) 0.8765(5) 0.3465(3)
N6_7 N 0.9877(5) 0.8152(5) 0.2215(3)
C1_7 C 0.9700(5) 0.7711(5) 0.2357(3)
C4_7 C 0.9773(4) 0.7715(5) 0.2734(3)
C6_7 C 0.8849(4) 0.9068(4) 0.3787(3)
C7_7 C 0.9665(4) 0.7358(5) 0.3057(3)
C9_7 C 0.8450(5) 0.9245(5) 0.4054(3)
C12_7 C 0.7635(6) 0.7785(5) 0.4365(4)
C14_7 C 0.9171(6) 0.9032(6) 0.3272(4)
H3_7 H 0.9198 0.9051 0.3019
C15_7 C 0.9373(5) 0.7396(5) 0.2113(3)
C16_7 C 0.9313(4) 0.8754(5) 0.3796(3)
C17_7 C 0.8575(4) 0.7776(5) 0.5244(3)
C19_7 C 0.9587(6) 0.8452(5) 0.4073(4)
C20_7 C 0.8464(5) 0.8334(5) 0.5325(3)
C21_7 C 0.8012(6) 0.7571(7) 0.4108(3)
Mn9_4 Mn 0.81372(8) 0.77865(8) 0.59744(5)
Mn10_7 Mn 0.72135(8) 0.68628(8) 0.40256(5)
O26_7 O 0.9408(4) 0.5776(4) 0.2166(2)
O28_7 O 0.8834(4) 0.5989(3) 0.2731(3)
Mn2_8 Mn 0.64259(9) 0.05058(9) 0.74464(7)
Mn4_8 Mn 0.83159(8) 0.13790(9) 0.54510(5)
O1_8 O 0.7573(3) 0.0640(3) 0.8213(2)
O4_8 O 0.7510(4) 0.0246(4) 0.6642(3)
O6_8 O 0.8207(4) 0.0027(4) 0.6034(3)
O8_8 O 0.6986(4) 0.0817(3) 0.7780(2)
O11_8 O 0.7641(4) 0.2801(4) 0.5687(3)
O14_8 O 0.8419(4) 0.0638(4) 0.5606(3)
O15_8 O 0.7665(5) 0.1247(4) 0.5081(3)
O16_8 O 0.9063(4) 0.1572(4) 0.5651(3)
O17_8 O 0.7806(4) 0.1488(4) 0.5895(2)
O18_8 O 0.6945(4) 0.0572(4) 0.7010(3)
O20_8 O 0.7204(5) 0.2016(5) 0.6113(3)
O22_8 O 0.8658(4) 0.1473(4) 0.4924(2)
O24_8 O 0.8153(4) 0.2239(4) 0.5451(3)
N3_8 N 0.8765(5) 0.0515(5) 0.6535(3)
N6_8 N 0.8152(5) 0.0123(5) 0.7785(3)
C1_8 C 0.7711(5) 0.0300(5) 0.7643(3)
C4_8 C 0.7715(5) 0.0227(4) 0.7266(3)
C6_8 C 0.9068(4) 0.1151(4) 0.6213(3)
C7_8 C 0.7358(5) 0.0335(4) 0.6943(3)
C9_8 C 0.9245(5) 0.1550(5) 0.5946(3)
C12_8 C 0.7785(5) 0.2365(6) 0.5635(4)
C14_8 C 0.9032(6) 0.0829(6) 0.6728(4)
H3_8 H 0.9051 0.0802 0.6981
C15_8 C 0.7396(5) 0.0627(5) 0.7887(3)
C16_8 C 0.8754(5) 0.0687(4) 0.6204(3)
C17_8 C 0.7776(5) 0.1425(4) 0.4756(3)
C19_8 C 0.8452(5) 0.0413(6) 0.5927(4)
C20_8 C 0.8334(5) 0.1536(5) 0.4675(3)
C21_8 C 0.7571(7) 0.1988(6) 0.5892(3)
Mn10_8 Mn 0.68628(8) 0.27865(8) 0.59744(5)
O26_8 O 0.5776(4) 0.0592(4) 0.7834(2)
O28_8 O 0.5989(3) 0.1166(4) 0.7269(3)
Mn1_8 Mn 0.82616(8) 0.98305(8) 0.66046(6)
O3_8 O 0.5592(4) 0.9224(4) 0.7166(2)
O7_8 O 0.6523(4) 0.9755(4) 0.7701(3)
O9_8 O 0.6166(4) 0.9011(3) 0.7731(3)
O13_8 O 0.7833(4) 0.9128(5) 0.6496(3)
O19_8 O 0.8774(4) 0.7586(4) 0.6321(3)
O21_8 O 0.5925(4) 0.9989(4) 0.7129(3)
O23_8 O 0.7900(4) 0.8282(4) 0.6372(3)
N1_8 N 0.8164(4) 0.9972(5) 0.7184(3)
N5_8 N 0.8827(5) 0.9231(5) 0.6597(3)
C2_8 C 0.8658(5) 0.8740(5) 0.6512(3)
C3_8 C 0.9072(5) 0.8433(5) 0.6486(3)
C5_8 C 0.9121(5) 0.7863(5) 0.6400(3)
C8_8 C 0.8378(6) 0.9914(6) 0.7486(4)
H1_8 H 0.8687 0.9730 0.7506
C10_8 C 0.6211(5) 0.9462(6) 0.7598(4)
C11_8 C 0.9324(6) 0.9177(5) 0.6628(3)
H2_8 H 0.9546 0.9451 0.6682
C13_8 C 0.5917(6) 0.9550(5) 0.7269(4)
C18_8 C 0.8091(6) 0.8647(6) 0.6466(4)
Mn6_8 Mn 0.55058(9) 0.85741(9) 0.75536(7)
O30_8 O 0.7359(4) 0.7801(4) 0.5687(3)
O32_8 O 0.7796(5) 0.7016(5) 0.6113(3)
Mn1_9 Mn 0.51695(8) 0.67384(8) 0.33954(6)
Mn3_5 Mn 0.48296(8) 0.67655(9) 0.16348(6)
Mn4_9 Mn 0.36210(9) 0.66841(8) 0.45490(5)
O1_9 O 0.4360(3) 0.7427(3) 0.1787(2)
O2_5 O 0.3350(5) 0.6566(4) 0.5648(2)
O4_9 O 0.4754(4) 0.7490(4) 0.3358(3)
O5_5 O 0.3161(4) 0.5439(4) 0.3940(3)
O6_9 O 0.4973(4) 0.6793(4) 0.3966(3)
O7_9 O 0.5245(4) 0.8477(4) 0.2299(3)
O8_9 O 0.4183(3) 0.8014(4) 0.2220(2)
O10_5 O 0.3508(4) 0.7532(4) 0.5491(2)
O12_5 O 0.7324(4) 0.5430(4) 0.3547(3)
O13_9 O 0.5872(5) 0.7167(4) 0.3504(3)
O14_9 O 0.4362(4) 0.6581(4) 0.4394(3)
O15_9 O 0.3753(4) 0.7335(5) 0.4919(3)
O16_9 O 0.3428(4) 0.5937(4) 0.4349(3)
O17_9 O 0.3512(4) 0.7194(4) 0.4105(2)
O18_9 O 0.4428(4) 0.8055(4) 0.2990(3)
O19_9 O 0.7414(4) 0.6226(4) 0.3679(3)
O21_9 O 0.5011(4) 0.9075(4) 0.2871(3)
O22_9 O 0.3527(4) 0.6342(4) 0.5076(2)
O23_9 O 0.6718(4) 0.7100(4) 0.3628(3)
O24_9 O 0.2761(4) 0.6847(4) 0.4549(3)
N1_9 N 0.5028(5) 0.6836(4) 0.2816(3)
N2_5 N 0.3831(4) 0.5736(4) 0.3440(3)
N3_9 N 0.4485(5) 0.6235(5) 0.3465(3)
N4_5 N 0.6318(4) 0.5509(4) 0.3427(3)
N5_9 N 0.5769(5) 0.6173(5) 0.3403(3)
N6_9 N 0.4877(5) 0.6848(5) 0.2215(3)
C1_9 C 0.4700(5) 0.7289(5) 0.2357(3)
C2_9 C 0.6260(5) 0.6342(5) 0.3488(3)
C3_9 C 0.6567(5) 0.5928(5) 0.3514(3)
C4_9 C 0.4773(4) 0.7285(5) 0.2734(3)
C5_9 C 0.7137(5) 0.5879(5) 0.3600(3)
C6_9 C 0.3849(4) 0.5932(4) 0.3787(3)
C7_9 C 0.4665(4) 0.7642(5) 0.3057(3)
C8_9 C 0.5086(6) 0.6622(6) 0.2514(4)
H1_9 H 0.5270 0.6313 0.2494
C9_9 C 0.3450(5) 0.5755(5) 0.4054(3)
C10_9 C 0.5538(6) 0.8789(5) 0.2402(4)
C11_9 C 0.5823(5) 0.5676(6) 0.3372(3)
H2_9 H 0.5549 0.5454 0.3318
C12_9 C 0.2635(6) 0.7215(5) 0.4365(4)
C13_9 C 0.5450(5) 0.9083(6) 0.2731(4)
C14_9 C 0.4171(6) 0.5968(6) 0.3272(4)
H3_9 H 0.4198 0.5949 0.3019
C15_9 C 0.4373(5) 0.7604(5) 0.2113(3)
C16_9 C 0.4313(4) 0.6246(5) 0.3796(3)
C17_9 C 0.3575(4) 0.7224(5) 0.5244(3)
C18_9 C 0.6353(6) 0.6909(6) 0.3534(4)
C19_9 C 0.4587(6) 0.6548(5) 0.4073(4)
C20_9 C 0.3464(5) 0.6666(5) 0.5325(3)
C21_9 C 0.3012(6) 0.7429(7) 0.4108(3)
Mn7_3 Mn 0.67655(9) 0.48296(8) 0.33652(6)
Mn8_3 Mn 0.32345(9) 0.51704(8) 0.33652(6)
O25_5 O 0.6566(4) 0.6650(5) 0.4352(2)
O27_5 O 0.4561(4) 0.6839(4) 0.1060(3)
O29_5 O 0.7532(4) 0.6492(4) 0.4509(2)
O31_5 O 0.5430(4) 0.7324(4) 0.1453(3)
N7_5 N 0.4264(4) 0.6169(4) 0.1560(3)
N8_5 N 0.5509(4) 0.6318(4) 0.1573(3)
Mn1_10 Mn 0.67384(8) 0.48305(8) 0.66046(6)
Mn3_6 Mn 0.67655(9) 0.51704(8) 0.83652(6)
Mn4_10 Mn 0.66841(8) 0.63790(9) 0.54510(5)
O1_10 O 0.7427(3) 0.5640(3) 0.8213(2)
O4_10 O 0.7490(4) 0.5246(4) 0.6642(3)
O5_6 O 0.5439(4) 0.6839(4) 0.6060(3)
O6_10 O 0.6793(4) 0.5027(4) 0.6034(3)
O7_10 O 0.8477(4) 0.4755(4) 0.7701(3)
O8_10 O 0.8014(4) 0.5817(3) 0.7780(2)
O12_6 O 0.5430(4) 0.2676(4) 0.6453(3)
O13_10 O 0.7167(4) 0.4128(5) 0.6496(3)
O14_10 O 0.6581(4) 0.5638(4) 0.5606(3)
O15_10 O 0.7335(5) 0.6247(4) 0.5081(3)
O16_10 O 0.5937(4) 0.6572(4) 0.5651(3)
O17_10 O 0.7194(4) 0.6488(4) 0.5895(2)
O18_10 O 0.8055(4) 0.5572(4) 0.7010(3)
O19_10 O 0.6226(4) 0.2586(4) 0.6321(3)
O21_10 O 0.9075(4) 0.4989(4) 0.7129(3)
O22_10 O 0.6342(4) 0.6473(4) 0.4924(2)
O23_10 O 0.7100(4) 0.3282(4) 0.6372(3)
O24_10 O 0.6847(4) 0.7239(4) 0.5451(3)
N1_10 N 0.6836(4) 0.4972(5) 0.7184(3)
N2_6 N 0.5736(4) 0.6169(4) 0.6560(3)
N3_10 N 0.6235(5) 0.5515(5) 0.6535(3)
N4_6 N 0.5509(4) 0.3682(4) 0.6573(3)
N5_10 N 0.6173(5) 0.4231(5) 0.6597(3)
N6_10 N 0.6848(5) 0.5123(5) 0.7785(3)
C1_10 C 0.7289(5) 0.5300(5) 0.7643(3)
C2_10 C 0.6342(5) 0.3740(5) 0.6512(3)
C3_10 C 0.5928(5) 0.3433(5) 0.6486(3)
C4_10 C 0.7285(5) 0.5227(4) 0.7266(3)
C5_10 C 0.5879(5) 0.2863(5) 0.6400(3)
C6_10 C 0.5932(4) 0.6151(4) 0.6213(3)
C7_10 C 0.7642(5) 0.5335(4) 0.6943(3)
C8_10 C 0.6622(6) 0.4914(6) 0.7486(4)
H1_10 H 0.6313 0.4730 0.7506
C9_10 C 0.5755(5) 0.6550(5) 0.5946(3)
C10_10 C 0.8789(5) 0.4462(6) 0.7598(4)
C11_10 C 0.5676(6) 0.4177(5) 0.6628(3)
H2_10 H 0.5454 0.4451 0.6682
C12_10 C 0.7215(5) 0.7365(6) 0.5635(4)
C13_10 C 0.9083(6) 0.4550(5) 0.7269(4)
C14_10 C 0.5968(6) 0.5829(6) 0.6728(4)
H3_10 H 0.5949 0.5802 0.6981
C15_10 C 0.7604(5) 0.5627(5) 0.7887(3)
C16_10 C 0.6246(5) 0.5687(4) 0.6204(3)
C17_10 C 0.7224(5) 0.6425(4) 0.4756(3)
C18_10 C 0.6909(6) 0.3647(6) 0.6466(4)
C19_10 C 0.6548(5) 0.5413(6) 0.5927(4)
C20_10 C 0.6666(5) 0.6536(5) 0.4675(3)
C21_10 C 0.7429(7) 0.6988(6) 0.5892(3)
Mn7_4 Mn 0.48296(8) 0.32345(9) 0.66348(6)
Mn8_4 Mn 0.51704(8) 0.67655(9) 0.66348(6)
O25_6 O 0.6650(5) 0.3434(4) 0.5648(2)
O27_6 O 0.6839(4) 0.5439(4) 0.8940(3)
O29_6 O 0.6492(4) 0.2468(4) 0.5491(2)
O31_6 O 0.7324(4) 0.4570(4) 0.8547(3)
N7_6 N 0.6169(4) 0.5736(4) 0.8440(3)
N8_6 N 0.6318(4) 0.4491(4) 0.8427(3)
Mn1_11 Mn 0.48305(8) 0.32616(8) 0.33954(6)
Mn3_7 Mn 0.51704(8) 0.32345(9) 0.16348(6)
Mn4_11 Mn 0.63790(9) 0.33159(8) 0.45490(5)
O1_11 O 0.5640(3) 0.2573(3) 0.1787(2)
O4_11 O 0.5246(4) 0.2510(4) 0.3358(3)
O5_7 O 0.6839(4) 0.4561(4) 0.3940(3)
O6_11 O 0.5027(4) 0.3207(4) 0.3966(3)
O7_11 O 0.4755(4) 0.1523(4) 0.2299(3)
O8_11 O 0.5817(3) 0.1986(4) 0.2220(2)
O12_7 O 0.2676(4) 0.4570(4) 0.3547(3)
O13_11 O 0.4128(5) 0.2833(4) 0.3504(3)
O14_11 O 0.5638(4) 0.3419(4) 0.4394(3)
O15_11 O 0.6247(4) 0.2665(5) 0.4919(3)
O16_11 O 0.6572(4) 0.4063(4) 0.4349(3)
O17_11 O 0.6488(4) 0.2806(4) 0.4105(2)
O18_11 O 0.5572(4) 0.1945(4) 0.2990(3)
O19_11 O 0.2586(4) 0.3774(4) 0.3679(3)
O21_11 O 0.4989(4) 0.0925(4) 0.2871(3)
O22_11 O 0.6473(4) 0.3658(4) 0.5076(2)
O23_11 O 0.3282(4) 0.2900(4) 0.3628(3)
O24_11 O 0.7239(4) 0.3153(4) 0.4549(3)
N1_11 N 0.4972(5) 0.3164(4) 0.2816(3)
N2_7 N 0.6169(4) 0.4264(4) 0.3440(3)
N3_11 N 0.5515(5) 0.3765(5) 0.3465(3)
N4_7 N 0.3682(4) 0.4491(4) 0.3427(3)
N5_11 N 0.4231(5) 0.3827(5) 0.3403(3)
N6_11 N 0.5123(5) 0.3152(5) 0.2215(3)
C1_11 C 0.5300(5) 0.2711(5) 0.2357(3)
C2_11 C 0.3740(5) 0.3658(5) 0.3488(3)
C3_11 C 0.3433(5) 0.4072(5) 0.3514(3)
C4_11 C 0.5227(4) 0.2715(5) 0.2734(3)
C5_11 C 0.2863(5) 0.4121(5) 0.3600(3)
C6_11 C 0.6151(4) 0.4068(4) 0.3787(3)
C7_11 C 0.5335(4) 0.2358(5) 0.3057(3)
C8_11 C 0.4914(6) 0.3378(6) 0.2514(4)
H1_11 H 0.4730 0.3687 0.2494
C9_11 C 0.6550(5) 0.4245(5) 0.4054(3)
C10_11 C 0.4462(6) 0.1211(5) 0.2402(4)
C11_11 C 0.4177(5) 0.4324(6) 0.3372(3)
H2_11 H 0.4451 0.4546 0.3318
C12_11 C 0.7365(6) 0.2785(5) 0.4365(4)
C13_11 C 0.4550(5) 0.0917(6) 0.2731(4)
C14_11 C 0.5829(6) 0.4032(6) 0.3272(4)
H3_11 H 0.5802 0.4051 0.3019
C15_11 C 0.5627(5) 0.2396(5) 0.2113(3)
C16_11 C 0.5687(4) 0.3754(5) 0.3796(3)
C17_11 C 0.6425(4) 0.2776(5) 0.5244(3)
C18_11 C 0.3647(6) 0.3091(6) 0.3534(4)
C19_11 C 0.5413(6) 0.3452(5) 0.4073(4)
C20_11 C 0.6536(5) 0.3334(5) 0.5325(3)
C21_11 C 0.6988(6) 0.2571(7) 0.4108(3)
O25_7 O 0.3434(4) 0.3350(5) 0.4352(2)
O27_7 O 0.5439(4) 0.3161(4) 0.1060(3)
O29_7 O 0.2468(4) 0.3508(4) 0.4509(2)
O31_7 O 0.4570(4) 0.2676(4) 0.1453(3)
N7_7 N 0.5736(4) 0.3831(4) 0.1560(3)
N8_7 N 0.4491(4) 0.3682(4) 0.1573(3)
Mn1_12 Mn 0.32616(8) 0.51695(8) 0.66046(6)
Mn3_8 Mn 0.32345(9) 0.48296(8) 0.83652(6)
Mn4_12 Mn 0.33159(8) 0.36210(9) 0.54510(5)
O1_12 O 0.2573(3) 0.4360(3) 0.8213(2)
O4_12 O 0.2510(4) 0.4754(4) 0.6642(3)
O5_8 O 0.4561(4) 0.3161(4) 0.6060(3)
O6_12 O 0.3207(4) 0.4973(4) 0.6034(3)
O7_12 O 0.1523(4) 0.5245(4) 0.7701(3)
O8_12 O 0.1986(4) 0.4183(3) 0.7780(2)
O12_8 O 0.4570(4) 0.7324(4) 0.6453(3)
O13_12 O 0.2833(4) 0.5872(5) 0.6496(3)
O14_12 O 0.3419(4) 0.4362(4) 0.5606(3)
O15_12 O 0.2665(5) 0.3753(4) 0.5081(3)
O16_12 O 0.4063(4) 0.3428(4) 0.5651(3)
O17_12 O 0.2806(4) 0.3512(4) 0.5895(2)
O18_12 O 0.1945(4) 0.4428(4) 0.7010(3)
O19_12 O 0.3774(4) 0.7414(4) 0.6321(3)
O21_12 O 0.0925(4) 0.5011(4) 0.7129(3)
O22_12 O 0.3658(4) 0.3527(4) 0.4924(2)
O23_12 O 0.2900(4) 0.6718(4) 0.6372(3)
O24_12 O 0.3153(4) 0.2761(4) 0.5451(3)
N1_12 N 0.3164(4) 0.5028(5) 0.7184(3)
N2_8 N 0.4264(4) 0.3831(4) 0.6560(3)
N3_12 N 0.3765(5) 0.4485(5) 0.6535(3)
N4_8 N 0.4491(4) 0.6318(4) 0.6573(3)
N5_12 N 0.3827(5) 0.5769(5) 0.6597(3)
N6_12 N 0.3152(5) 0.4877(5) 0.7785(3)
C1_12 C 0.2711(5) 0.4700(5) 0.7643(3)
C2_12 C 0.3658(5) 0.6260(5) 0.6512(3)
C3_12 C 0.4072(5) 0.6567(5) 0.6486(3)
C4_12 C 0.2715(5) 0.4773(4) 0.7266(3)
C5_12 C 0.4121(5) 0.7137(5) 0.6400(3)
C6_12 C 0.4068(4) 0.3849(4) 0.6213(3)
C7_12 C 0.2358(5) 0.4665(4) 0.6943(3)
C8_12 C 0.3378(6) 0.5086(6) 0.7486(4)
H1_12 H 0.3687 0.5270 0.7506
C9_12 C 0.4245(5) 0.3450(5) 0.5946(3)
C10_12 C 0.1211(5) 0.5538(6) 0.7598(4)
C11_12 C 0.4324(6) 0.5823(5) 0.6628(3)
H2_12 H 0.4546 0.5549 0.6682
C12_12 C 0.2785(5) 0.2635(6) 0.5635(4)
C13_12 C 0.0917(6) 0.5450(5) 0.7269(4)
C14_12 C 0.4032(6) 0.4171(6) 0.6728(4)
H3_12 H 0.4051 0.4198 0.6981
C15_12 C 0.2396(5) 0.4373(5) 0.7887(3)
C16_12 C 0.3754(5) 0.4313(4) 0.6204(3)
C17_12 C 0.2776(5) 0.3575(4) 0.4756(3)
C18_12 C 0.3091(6) 0.6353(6) 0.6466(4)
C19_12 C 0.3452(5) 0.4587(6) 0.5927(4)
C20_12 C 0.3334(5) 0.3464(5) 0.4675(3)
C21_12 C 0.2571(7) 0.3012(6) 0.5892(3)
O27_8 O 0.3161(4) 0.4561(4) 0.8940(3)
O31_8 O 0.2676(4) 0.5430(4) 0.8547(3)
N7_8 N 0.3831(4) 0.4264(4) 0.8440(3)
N8_8 N 0.3682(4) 0.5509(4) 0.8427(3)
O2_6 O 0.6650(5) 0.6566(4) 0.0648(2)
O10_6 O 0.6492(4) 0.7532(4) 0.0491(2)
O22_13 O 0.6473(4) 0.6342(4) 0.0076(2)
C17_13 C 0.6425(4) 0.7224(5) 0.0244(3)
C20_13 C 0.6536(5) 0.6666(5) 0.0325(3)
Mn1_13 Mn 0.48305(8) 0.67384(8) 0.83954(6)
Mn4_13 Mn 0.63790(9) 0.66841(8) 0.95490(5)
O1_13 O 0.5640(3) 0.7427(3) 0.6787(2)
O4_13 O 0.5246(4) 0.7490(4) 0.8358(3)
O6_13 O 0.5027(4) 0.6793(4) 0.8966(3)
O7_13 O 0.4755(4) 0.8477(4) 0.7299(3)
O8_13 O 0.5817(3) 0.8014(4) 0.7220(2)
O13_13 O 0.4128(5) 0.7167(4) 0.8504(3)
O14_13 O 0.5638(4) 0.6581(4) 0.9394(3)
O15_13 O 0.6247(4) 0.7335(5) 0.9919(3)
O16_13 O 0.6572(4) 0.5937(4) 0.9349(3)
O17_13 O 0.6488(4) 0.7194(4) 0.9105(2)
O18_13 O 0.5572(4) 0.8055(4) 0.7990(3)
O19_13 O 0.2586(4) 0.6226(4) 0.8679(3)
O21_13 O 0.4989(4) 0.9075(4) 0.7871(3)
O23_13 O 0.3282(4) 0.7100(4) 0.8628(3)
O24_13 O 0.7239(4) 0.6847(4) 0.9549(3)
N1_13 N 0.4972(5) 0.6836(4) 0.7816(3)
N3_13 N 0.5515(5) 0.6235(5) 0.8465(3)
N5_13 N 0.4231(5) 0.6173(5) 0.8403(3)
N6_13 N 0.5123(5) 0.6848(5) 0.7215(3)
C1_13 C 0.5300(5) 0.7289(5) 0.7357(3)
C2_13 C 0.3740(5) 0.6342(5) 0.8488(3)
C3_13 C 0.3433(5) 0.5928(5) 0.8514(3)
C4_13 C 0.5227(4) 0.7285(5) 0.7734(3)
C5_13 C 0.2863(5) 0.5879(5) 0.8600(3)
C6_13 C 0.6151(4) 0.5932(4) 0.8787(3)
C7_13 C 0.5335(4) 0.7642(5) 0.8057(3)
C8_13 C 0.4914(6) 0.6622(6) 0.7514(4)
H1_13 H 0.4730 0.6313 0.7494
C9_13 C 0.6550(5) 0.5755(5) 0.9054(3)
C10_13 C 0.4462(6) 0.8789(5) 0.7402(4)
C11_13 C 0.4177(5) 0.5676(6) 0.8372(3)
H2_13 H 0.4451 0.5454 0.8318
C12_13 C 0.7365(6) 0.7215(5) 0.9365(4)
C13_13 C 0.4550(5) 0.9083(6) 0.7731(4)
C14_13 C 0.5829(6) 0.5968(6) 0.8272(4)
H3_13 H 0.5802 0.5949 0.8019
C15_13 C 0.5627(5) 0.7604(5) 0.7113(3)
C16_13 C 0.5687(4) 0.6246(5) 0.8796(3)
C18_13 C 0.3647(6) 0.6909(6) 0.8534(4)
C19_13 C 0.5413(6) 0.6548(5) 0.9073(4)
C21_13 C 0.6988(6) 0.7429(7) 0.9108(3)
O25_8 O 0.3434(4) 0.6650(5) 0.9352(2)
O29_8 O 0.2468(4) 0.6492(4) 0.9509(2)
Mn1_14 Mn 0.67384(8) 0.51695(8) 0.16046(6)
Mn4_14 Mn 0.66841(8) 0.36210(9) 0.04510(5)
O1_14 O 0.7427(3) 0.4360(3) 0.3213(2)
O4_14 O 0.7490(4) 0.4754(4) 0.1642(3)
O6_14 O 0.6793(4) 0.4973(4) 0.1034(3)
O7_14 O 0.8477(4) 0.5245(4) 0.2701(3)
O8_14 O 0.8014(4) 0.4183(3) 0.2780(2)
O13_14 O 0.7167(4) 0.5872(5) 0.1496(3)
O14_14 O 0.6581(4) 0.4362(4) 0.0606(3)
O15_14 O 0.7335(5) 0.3753(4) 0.0081(3)
O16_14 O 0.5937(4) 0.3428(4) 0.0651(3)
O17_14 O 0.7194(4) 0.3512(4) 0.0895(2)
O18_14 O 0.8055(4) 0.4428(4) 0.2010(3)
O19_14 O 0.6226(4) 0.7414(4) 0.1321(3)
O21_14 O 0.9075(4) 0.5011(4) 0.2129(3)
O23_14 O 0.7100(4) 0.6718(4) 0.1372(3)
O24_14 O 0.6847(4) 0.2761(4) 0.0451(3)
N1_14 N 0.6836(4) 0.5028(5) 0.2184(3)
N3_14 N 0.6235(5) 0.4485(5) 0.1535(3)
N5_14 N 0.6173(5) 0.5769(5) 0.1597(3)
N6_14 N 0.6848(5) 0.4877(5) 0.2785(3)
C1_14 C 0.7289(5) 0.4700(5) 0.2643(3)
C2_14 C 0.6342(5) 0.6260(5) 0.1512(3)
C3_14 C 0.5928(5) 0.6567(5) 0.1486(3)
C4_14 C 0.7285(5) 0.4773(4) 0.2266(3)
C5_14 C 0.5879(5) 0.7137(5) 0.1400(3)
C6_14 C 0.5932(4) 0.3849(4) 0.1213(3)
C7_14 C 0.7642(5) 0.4665(4) 0.1943(3)
C8_14 C 0.6622(6) 0.5086(6) 0.2486(4)
H1_14 H 0.6313 0.5270 0.2506
C9_14 C 0.5755(5) 0.3450(5) 0.0946(3)
C10_14 C 0.8789(5) 0.5538(6) 0.2598(4)
C11_14 C 0.5676(6) 0.5823(5) 0.1628(3)
H2_14 H 0.5454 0.5549 0.1682
C12_14 C 0.7215(5) 0.2635(6) 0.0635(4)
C13_14 C 0.9083(6) 0.5450(5) 0.2269(4)
C14_14 C 0.5968(6) 0.4171(6) 0.1728(4)
H3_14 H 0.5949 0.4198 0.1981
C15_14 C 0.7604(5) 0.4373(5) 0.2887(3)
C16_14 C 0.6246(5) 0.4313(4) 0.1204(3)
C18_14 C 0.6909(6) 0.6353(6) 0.1466(4)
C19_14 C 0.6548(5) 0.4587(6) 0.0927(4)
C21_14 C 0.7429(7) 0.3012(6) 0.0892(3)
O2_7 O 0.6566(4) 0.3350(5) 0.9352(2)
O10_7 O 0.7532(4) 0.3508(4) 0.9509(2)
O22_14 O 0.6342(4) 0.3527(4) 0.9924(2)
C17_14 C 0.7224(5) 0.3575(4) 0.9756(3)
C20_14 C 0.6666(5) 0.3464(5) 0.9675(3)
O2_8 O 0.3350(5) 0.3434(4) 0.0648(2)
O10_8 O 0.3508(4) 0.2468(4) 0.0491(2)
O22_15 O 0.3527(4) 0.3658(4) 0.0076(2)
C17_15 C 0.3575(4) 0.2776(5) 0.0244(3)
C20_15 C 0.3464(5) 0.3334(5) 0.0325(3)
Mn1_15 Mn 0.51695(8) 0.32616(8) 0.83954(6)
Mn4_15 Mn 0.36210(9) 0.33159(8) 0.95490(5)
O1_15 O 0.4360(3) 0.2573(3) 0.6787(2)
O4_15 O 0.4754(4) 0.2510(4) 0.8358(3)
O6_15 O 0.4973(4) 0.3207(4) 0.8966(3)
O7_15 O 0.5245(4) 0.1523(4) 0.7299(3)
O8_15 O 0.4183(3) 0.1986(4) 0.7220(2)
O13_15 O 0.5872(5) 0.2833(4) 0.8504(3)
O14_15 O 0.4362(4) 0.3419(4) 0.9394(3)
O15_15 O 0.3753(4) 0.2665(5) 0.9919(3)
O16_15 O 0.3428(4) 0.4063(4) 0.9349(3)
O17_15 O 0.3512(4) 0.2806(4) 0.9105(2)
O18_15 O 0.4428(4) 0.1945(4) 0.7990(3)
O19_15 O 0.7414(4) 0.3774(4) 0.8679(3)
O21_15 O 0.5011(4) 0.0925(4) 0.7871(3)
O23_15 O 0.6718(4) 0.2900(4) 0.8628(3)
O24_15 O 0.2761(4) 0.3153(4) 0.9549(3)
N1_15 N 0.5028(5) 0.3164(4) 0.7816(3)
N3_15 N 0.4485(5) 0.3765(5) 0.8465(3)
N5_15 N 0.5769(5) 0.3827(5) 0.8403(3)
N6_15 N 0.4877(5) 0.3152(5) 0.7215(3)
C1_15 C 0.4700(5) 0.2711(5) 0.7357(3)
C2_15 C 0.6260(5) 0.3658(5) 0.8488(3)
C3_15 C 0.6567(5) 0.4072(5) 0.8514(3)
C4_15 C 0.4773(4) 0.2715(5) 0.7734(3)
C5_15 C 0.7137(5) 0.4121(5) 0.8600(3)
C6_15 C 0.3849(4) 0.4068(4) 0.8787(3)
C7_15 C 0.4665(4) 0.2358(5) 0.8057(3)
C8_15 C 0.5086(6) 0.3378(6) 0.7514(4)
H1_15 H 0.5270 0.3687 0.7494
C9_15 C 0.3450(5) 0.4245(5) 0.9054(3)
C10_15 C 0.5538(6) 0.1211(5) 0.7402(4)
C11_15 C 0.5823(5) 0.4324(6) 0.8372(3)
H2_15 H 0.5549 0.4546 0.8318
C12_15 C 0.2635(6) 0.2785(5) 0.9365(4)
C13_15 C 0.5450(5) 0.0917(6) 0.7731(4)
C14_15 C 0.4171(6) 0.4032(6) 0.8272(4)
H3_15 H 0.4198 0.4051 0.8019
C15_15 C 0.4373(5) 0.2396(5) 0.7113(3)
C16_15 C 0.4313(4) 0.3754(5) 0.8796(3)
C18_15 C 0.6353(6) 0.3091(6) 0.8534(4)
C19_15 C 0.4587(6) 0.3452(5) 0.9073(4)
C21_15 C 0.3012(6) 0.2571(7) 0.9108(3)
Mn1_16 Mn 0.32616(8) 0.48305(8) 0.16046(6)
Mn4_16 Mn 0.33159(8) 0.63790(9) 0.04510(5)
O1_16 O 0.2573(3) 0.5640(3) 0.3213(2)
O4_16 O 0.2510(4) 0.5246(4) 0.1642(3)
O6_16 O 0.3207(4) 0.5027(4) 0.1034(3)
O7_16 O 0.1523(4) 0.4755(4) 0.2701(3)
O8_16 O 0.1986(4) 0.5817(3) 0.2780(2)
O13_16 O 0.2833(4) 0.4128(5) 0.1496(3)
O14_16 O 0.3419(4) 0.5638(4) 0.0606(3)
O15_16 O 0.2665(5) 0.6247(4) 0.0081(3)
O16_16 O 0.4063(4) 0.6572(4) 0.0651(3)
O17_16 O 0.2806(4) 0.6488(4) 0.0895(2)
O18_16 O 0.1945(4) 0.5572(4) 0.2010(3)
O19_16 O 0.3774(4) 0.2586(4) 0.1321(3)
O21_16 O 0.0925(4) 0.4989(4) 0.2129(3)
O23_16 O 0.2900(4) 0.3282(4) 0.1372(3)
O24_16 O 0.3153(4) 0.7239(4) 0.0451(3)
N1_16 N 0.3164(4) 0.4972(5) 0.2184(3)
N3_16 N 0.3765(5) 0.5515(5) 0.1535(3)
N5_16 N 0.3827(5) 0.4231(5) 0.1597(3)
N6_16 N 0.3152(5) 0.5123(5) 0.2785(3)
C1_16 C 0.2711(5) 0.5300(5) 0.2643(3)
C2_16 C 0.3658(5) 0.3740(5) 0.1512(3)
C3_16 C 0.4072(5) 0.3433(5) 0.1486(3)
C4_16 C 0.2715(5) 0.5227(4) 0.2266(3)
C5_16 C 0.4121(5) 0.2863(5) 0.1400(3)
C6_16 C 0.4068(4) 0.6151(4) 0.1213(3)
C7_16 C 0.2358(5) 0.5335(4) 0.1943(3)
C8_16 C 0.3378(6) 0.4914(6) 0.2486(4)
H1_16 H 0.3687 0.4730 0.2506
C9_16 C 0.4245(5) 0.6550(5) 0.0946(3)
C10_16 C 0.1211(5) 0.4462(6) 0.2598(4)
C11_16 C 0.4324(6) 0.4177(5) 0.1628(3)
H2_16 H 0.4546 0.4451 0.1682
C12_16 C 0.2785(5) 0.7365(6) 0.0635(4)
C13_16 C 0.0917(6) 0.4550(5) 0.2269(4)
C14_16 C 0.4032(6) 0.5829(6) 0.1728(4)
H3_16 H 0.4051 0.5802 0.1981
C15_16 C 0.2396(5) 0.5627(5) 0.2887(3)
C16_16 C 0.3754(5) 0.5687(4) 0.1204(3)
C18_16 C 0.3091(6) 0.3647(6) 0.1466(4)
C19_16 C 0.3452(5) 0.5413(6) 0.0927(4)
C21_16 C 0.2571(7) 0.6988(6) 0.0892(3)
O22_16 O 0.3658(4) 0.6473(4) 0.9924(2)
C17_16 C 0.2776(5) 0.6425(4) 0.9756(3)
C20_16 C 0.3334(5) 0.6536(5) 0.9675(3)
loop_
_geom_bond_atom_site_label_1
_geom_bond_atom_site_label_2
_geom_bond_site_symmetry_1
_geom_bond_site_symmetry_2
Mn5 O19 1_555 1_555
O3 C13 1_555 1_555
O7 C10 1_555 1_555
O9 C10 1_555 1_555
O12 C5 1_555 1_555
O13 Mn1 1_555 1_555
O19 C5 1_555 1_555
O23 Mn5 1_555 1_555
N1 Mn1 1_555 1_555
N4 C3 1_555 1_555
N5 Mn1 1_555 1_555
C2 N5 1_555 1_555
C3 C2 1_555 1_555
C5 C3 1_555 1_555
C8 N1 1_555 1_555
H1 C8 1_555 1_555
C10 C13 1_555 1_555
C11 N4 1_555 1_555
H2 C11 1_555 1_555
C13 O21 1_555 1_555
C18 O13 1_555 1_555
Mn6 O3 1_555 1_555
O25 Mn5 1_555 1_555
O29 Mn5 1_555 1_555
O30 Mn5 1_555 1_555
O32 Mn5 1_555 1_555
O9 Mn6 1_555 1_555
O23 C18 1_555 1_555
N5 C11 1_555 1_555
C2 C18 1_555 1_555
O2 C20 1_555 1_555
O10 C17 1_555 1_555
C20 O22 1_555 1_555
Mn9 O2 1_555 1_555
O10 Mn9 1_555 1_555
C17 C20 1_555 1_555
Mn3 O1 1_555 1_555
Mn4 O14 1_555 1_555
O1 C15 1_555 1_555
O4 C7 1_555 1_555
O5 C9 1_555 1_555
O8 Mn2 1_555 1_555
O11 C12 1_555 1_555
O14 C19 1_555 1_555
O15 Mn4 1_555 1_555
O16 Mn4 1_555 1_555
O17 Mn4 1_555 1_555
O18 Mn2 1_555 1_555
O20 C21 1_555 1_555
O24 Mn4 1_555 1_555
N2 C6 1_555 1_555
N6 Mn3 1_555 1_555
C1 N6 1_555 1_555
C6 C9 1_555 1_555
C7 O18 1_555 1_555
C9 O16 1_555 1_555
C12 O24 1_555 1_555
C14 N2 1_555 1_555
H3 C14 1_555 1_555
C15 O8 1_555 1_555
C16 N3 1_555 1_555
C19 O6 1_555 1_555
C21 O17 1_555 1_555
Mn8 O5 1_555 1_555
Mn10 O11 1_555 1_555
O26 Mn2 1_555 1_555
O27 Mn3 1_555 1_555
O28 Mn2 1_555 1_555
N7 Mn3 1_555 1_555
O20 Mn10 1_555 1_555
N2 Mn8 1_555 1_555
N3 C14 1_555 1_555
C1 C4 1_555 1_555
C1 C15 1_555 1_555
C4 C7 1_555 1_555
C6 C16 1_555 1_555
C12 C21 1_555 1_555
C16 C19 1_555 1_555
Mn3_2 O1_2 1_555 1_555
Mn4_2 O14_2 1_555 1_555
O1_2 C15_2 1_555 1_555
O4_2 C7_2 1_555 1_555
O5_2 C9_2 1_555 1_555
O8_2 Mn2_2 1_555 1_555
O11_2 C12_2 1_555 1_555
O14_2 C19_2 1_555 1_555
O15_2 Mn4_2 1_555 1_555
O16_2 Mn4_2 1_555 1_555
O17_2 Mn4_2 1_555 1_555
O18_2 Mn2_2 1_555 1_555
O20_2 C21_2 1_555 1_555
O24_2 Mn4_2 1_555 1_555
N2_2 C6_2 1_555 1_555
N6_2 Mn3_2 1_555 1_555
C1_2 N6_2 1_555 1_555
C6_2 C9_2 1_555 1_555
C7_2 O18_2 1_555 1_555
C9_2 O16_2 1_555 1_555
C12_2 O24_2 1_555 1_555
C14_2 N2_2 1_555 1_555
H3_2 C14_2 1_555 1_555
C15_2 O8_2 1_555 1_555
C16_2 N3_2 1_555 1_555
C19_2 O6_2 1_555 1_555
C21_2 O17_2 1_555 1_555
Mn8_2 O5_2 1_555 1_555
Mn10_2 O11_2 1_555 1_555
O26_2 Mn2_2 1_555 1_555
O27_2 Mn3_2 1_555 1_555
O28_2 Mn2_2 1_555 1_555
N7_2 Mn3_2 1_555 1_555
O20_2 Mn10_2 1_555 1_555
N2_2 Mn8_2 1_555 1_555
N3_2 C14_2 1_555 1_555
C1_2 C4_2 1_555 1_555
C1_2 C15_2 1_555 1_555
C4_2 C7_2 1_555 1_555
C6_2 C16_2 1_555 1_555
C12_2 C21_2 1_555 1_555
C16_2 C19_2 1_555 1_555
O25 C20_2 1_555 1_555
O29 C17_2 1_555 1_555
C20_2 O22_2 1_555 1_555
C17_2 C20_2 1_555 1_555
Mn5_2 O19_2 1_555 1_555
O3_2 C13_2 1_555 1_555
O7_2 C10_2 1_555 1_555
O9_2 C10_2 1_555 1_555
O12_2 C5_2 1_555 1_555
O13_2 Mn1_2 1_555 1_555
O19_2 C5_2 1_555 1_555
O23_2 Mn5_2 1_555 1_555
N1_2 Mn1_2 1_555 1_555
N4_2 C3_2 1_555 1_555
N5_2 Mn1_2 1_555 1_555
C2_2 N5_2 1_555 1_555
C3_2 C2_2 1_555 1_555
C5_2 C3_2 1_555 1_555
C8_2 N1_2 1_555 1_555
H1_2 C8_2 1_555 1_555
C10_2 C13_2 1_555 1_555
C11_2 N4_2 1_555 1_555
H2_2 C11_2 1_555 1_555
C13_2 O21_2 1_555 1_555
C18_2 O13_2 1_555 1_555
Mn6_2 O3_2 1_555 1_555
O25_2 Mn5_2 1_555 1_555
O29_2 Mn5_2 1_555 1_555
O30_2 Mn5_2 1_555 1_555
O32_2 Mn5_2 1_555 1_555
O9_2 Mn6_2 1_555 1_555
O23_2 C18_2 1_555 1_555
N5_2 C11_2 1_555 1_555
C2_2 C18_2 1_555 1_555
O25_2 C20_3 1_555 1_555
O29_2 C17_3 1_555 1_555
C20_3 O22_3 1_555 1_555
C17_3 C20_3 1_555 1_555
Mn3_3 O1_3 1_555 1_555
Mn4_3 O14_3 1_555 1_555
O1_3 C15_3 1_555 1_555
O4_3 C7_3 1_555 1_555
O5_3 C9_3 1_555 1_555
O8_3 Mn2_3 1_555 1_555
O11_3 C12_3 1_555 1_555
O14_3 C19_3 1_555 1_555
O15_3 Mn4_3 1_555 1_555
O16_3 Mn4_3 1_555 1_555
O17_3 Mn4_3 1_555 1_555
O18_3 Mn2_3 1_555 1_555
O20_3 C21_3 1_555 1_555
O24_3 Mn4_3 1_555 1_555
N2_3 C6_3 1_555 1_555
N6_3 Mn3_3 1_555 1_555
C1_3 N6_3 1_555 1_555
C6_3 C9_3 1_555 1_555
C7_3 O18_3 1_555 1_555
C9_3 O16_3 1_555 1_555
C12_3 O24_3 1_555 1_555
C14_3 N2_3 1_555 1_555
H3_3 C14_3 1_555 1_555
C15_3 O8_3 1_555 1_555
C16_3 N3_3 1_555 1_555
C19_3 O6_3 1_555 1_555
C21_3 O17_3 1_555 1_555
Mn7 O5_3 1_555 1_555
Mn10_3 O11_3 1_555 1_555
O26_3 Mn2_3 1_555 1_555
O27_3 Mn3_3 1_555 1_555
O28_3 Mn2_3 1_555 1_555
N7_3 Mn3_3 1_555 1_555
O20_3 Mn10_3 1_555 1_555
N2_3 Mn7 1_555 1_555
N3_3 C14_3 1_555 1_555
C1_3 C4_3 1_555 1_555
C1_3 C15_3 1_555 1_555
C4_3 C7_3 1_555 1_555
C6_3 C16_3 1_555 1_555
C12_3 C21_3 1_555 1_555
C16_3 C19_3 1_555 1_555
Mn5_3 O19_3 1_555 1_555
O3_3 C13_3 1_555 1_555
O7_3 C10_3 1_555 1_555
O9_3 C10_3 1_555 1_555
O12_3 C5_3 1_555 1_555
O13_3 Mn1_3 1_555 1_555
O19_3 C5_3 1_555 1_555
O23_3 Mn5_3 1_555 1_555
N1_3 Mn1_3 1_555 1_555
N4_3 C3_3 1_555 1_555
N5_3 Mn1_3 1_555 1_555
C2_3 N5_3 1_555 1_555
C3_3 C2_3 1_555 1_555
C5_3 C3_3 1_555 1_555
C8_3 N1_3 1_555 1_555
H1_3 C8_3 1_555 1_555
C10_3 C13_3 1_555 1_555
C11_3 N4_3 1_555 1_555
H2_3 C11_3 1_555 1_555
C13_3 O21_3 1_555 1_555
C18_3 O13_3 1_555 1_555
Mn6_3 O3_3 1_555 1_555
O25_3 Mn5_3 1_555 1_555
O29_3 Mn5_3 1_555 1_555
O30_3 Mn5_3 1_555 1_555
O32_3 Mn5_3 1_555 1_555
O9_3 Mn6_3 1_555 1_555
O23_3 C18_3 1_555 1_555
N5_3 C11_3 1_555 1_555
C2_3 C18_3 1_555 1_555
Mn9 O19_4 1_555 1_555
O3_4 C13_4 1_555 1_555
O7_4 C10_4 1_555 1_555
O9_4 C10_4 1_555 1_555
O12_4 C5_4 1_555 1_555
O13_4 Mn1_4 1_555 1_555
O19_4 C5_4 1_555 1_555
O23_4 Mn9 1_555 1_555
N1_4 Mn1_4 1_555 1_555
N4_4 C3_4 1_555 1_555
N5_4 Mn1_4 1_555 1_555
C2_4 N5_4 1_555 1_555
C3_4 C2_4 1_555 1_555
C5_4 C3_4 1_555 1_555
C8_4 N1_4 1_555 1_555
H1_4 C8_4 1_555 1_555
C10_4 C13_4 1_555 1_555
C11_4 N4_4 1_555 1_555
H2_4 C11_4 1_555 1_555
C13_4 O21_4 1_555 1_555
C18_4 O13_4 1_555 1_555
Mn6_4 O3_4 1_555 1_555
O30_4 Mn9 1_555 1_555
O32_4 Mn9 1_555 1_555
O9_4 Mn6_4 1_555 1_555
O23_4 C18_4 1_555 1_555
N5_4 C11_4 1_555 1_555
C2_4 C18_4 1_555 1_555
Mn3_4 O1_4 1_555 1_555
Mn4_4 O14_4 1_555 1_555
O1_4 C15_4 1_555 1_555
O4_4 C7_4 1_555 1_555
O5_4 C9_4 1_555 1_555
O8_4 Mn2_4 1_555 1_555
O11_4 C12_4 1_555 1_555
O14_4 C19_4 1_555 1_555
O15_4 Mn4_4 1_555 1_555
O16_4 Mn4_4 1_555 1_555
O17_4 Mn4_4 1_555 1_555
O18_4 Mn2_4 1_555 1_555
O20_4 C21_4 1_555 1_555
O24_4 Mn4_4 1_555 1_555
N2_4 C6_4 1_555 1_555
N6_4 Mn3_4 1_555 1_555
C1_4 N6_4 1_555 1_555
C6_4 C9_4 1_555 1_555
C7_4 O18_4 1_555 1_555
C9_4 O16_4 1_555 1_555
C12_4 O24_4 1_555 1_555
C14_4 N2_4 1_555 1_555
H3_4 C14_4 1_555 1_555
C15_4 O8_4 1_555 1_555
C16_4 N3_4 1_555 1_555
C19_4 O6_4 1_555 1_555
C21_4 O17_4 1_555 1_555
Mn7_2 O5_4 1_555 1_555
Mn10_4 O11_4 1_555 1_555
O26_4 Mn2_4 1_555 1_555
O27_4 Mn3_4 1_555 1_555
O28_4 Mn2_4 1_555 1_555
N7_4 Mn3_4 1_555 1_555
O20_4 Mn10_4 1_555 1_555
N2_4 Mn7_2 1_555 1_555
N3_4 C14_4 1_555 1_555
C1_4 C4_4 1_555 1_555
C1_4 C15_4 1_555 1_555
C4_4 C7_4 1_555 1_555
C6_4 C16_4 1_555 1_555
C12_4 C21_4 1_555 1_555
C16_4 C19_4 1_555 1_555
O25_3 C20_4 1_555 1_555
O29_3 C17_4 1_555 1_555
C20_4 O22_4 1_555 1_555
C17_4 C20_4 1_555 1_555
Mn8_2 O1_5 1_555 1_555
Mn4_5 O14_5 1_555 1_555
O1_5 C15_5 1_555 1_555
O2_2 C20_5 1_555 1_555
O4_5 C7_5 1_555 1_555
O27_2 C9_5 1_555 1_555
O8_5 Mn2_5 1_555 1_555
O10_2 C17_5 1_555 1_555
O11_5 C12_5 1_555 1_555
O14_5 C19_5 1_555 1_555
O15_5 Mn4_5 1_555 1_555
O16_5 Mn4_5 1_555 1_555
O17_5 Mn4_5 1_555 1_555
O18_5 Mn2_5 1_555 1_555
O20_5 C21_5 1_555 1_555
O22_5 Mn4_5 1_555 1_555
O24_5 Mn4_5 1_555 1_555
N7_2 C6_5 1_555 1_555
N6_5 Mn8_2 1_555 1_555
C1_5 N6_5 1_555 1_555
C6_5 C9_5 1_555 1_555
C7_5 O18_5 1_555 1_555
C9_5 O16_5 1_555 1_555
C12_5 O24_5 1_555 1_555
C14_5 N7_2 1_555 1_555
H3_5 C14_5 1_555 1_555
C15_5 O8_5 1_555 1_555
C16_5 N3_5 1_555 1_555
C17_5 O15_5 1_555 1_555
C19_5 O6_5 1_555 1_555
C20_5 O22_5 1_555 1_555
C21_5 O17_5 1_555 1_555
Mn9_2 O2_2 1_555 1_555
Mn10_5 O11_5 1_555 1_555
O26_5 Mn2_5 1_555 1_555
O28_5 Mn2_5 1_555 1_555
O10_2 Mn9_2 1_555 1_555
O20_5 Mn10_5 1_555 1_555
N3_5 C14_5 1_555 1_555
C1_5 C4_5 1_555 1_555
C1_5 C15_5 1_555 1_555
C4_5 C7_5 1_555 1_555
C6_5 C16_5 1_555 1_555
C12_5 C21_5 1_555 1_555
C16_5 C19_5 1_555 1_555
C17_5 C20_5 1_555 1_555
Mn5_4 O19_5 1_555 1_555
O3_5 C13_5 1_555 1_555
O7_5 C10_5 1_555 1_555
O9_5 C10_5 1_555 1_555
O31_4 C5_5 1_555 1_555
O13_5 Mn1_5 1_555 1_555
O19_5 C5_5 1_555 1_555
O23_5 Mn5_4 1_555 1_555
N1_5 Mn1_5 1_555 1_555
N8_4 C3_5 1_555 1_555
N5_5 Mn1_5 1_555 1_555
C2_5 N5_5 1_555 1_555
C3_5 C2_5 1_555 1_555
C5_5 C3_5 1_555 1_555
C8_5 N1_5 1_555 1_555
H1_5 C8_5 1_555 1_555
C10_5 C13_5 1_555 1_555
C11_5 N8_4 1_555 1_555
H2_5 C11_5 1_555 1_555
C13_5 O21_5 1_555 1_555
C18_5 O13_5 1_555 1_555
Mn6_5 O3_5 1_555 1_555
O25_4 Mn5_4 1_555 1_555
O29_4 Mn5_4 1_555 1_555
O30_5 Mn5_4 1_555 1_555
O32_5 Mn5_4 1_555 1_555
O9_5 Mn6_5 1_555 1_555
O23_5 C18_5 1_555 1_555
N5_5 C11_5 1_555 1_555
C2_5 C18_5 1_555 1_555
Mn9_2 O19_6 1_555 1_555
O3_6 C13_6 1_555 1_555
O7_6 C10_6 1_555 1_555
O9_6 C10_6 1_555 1_555
O31 C5_6 1_555 1_555
O13_6 Mn1_6 1_555 1_555
O19_6 C5_6 1_555 1_555
O23_6 Mn9_2 1_555 1_555
N1_6 Mn1_6 1_555 1_555
N8 C3_6 1_555 1_555
N5_6 Mn1_6 1_555 1_555
C2_6 N5_6 1_555 1_555
C3_6 C2_6 1_555 1_555
C5_6 C3_6 1_555 1_555
C8_6 N1_6 1_555 1_555
H1_6 C8_6 1_555 1_555
C10_6 C13_6 1_555 1_555
C11_6 N8 1_555 1_555
H2_6 C11_6 1_555 1_555
C13_6 O21_6 1_555 1_555
C18_6 O13_6 1_555 1_555
Mn6_6 O3_6 1_555 1_555
O30_6 Mn9_2 1_555 1_555
O32_6 Mn9_2 1_555 1_555
O9_6 Mn6_6 1_555 1_555
O23_6 C18_6 1_555 1_555
N5_6 C11_6 1_555 1_555
C2_6 C18_6 1_555 1_555
Mn7 O1_6 1_555 1_555
Mn4_6 O14_6 1_555 1_555
O1_6 C15_6 1_555 1_555
O2_3 C20_6 1_555 1_555
O4_6 C7_6 1_555 1_555
O27_3 C9_6 1_555 1_555
O8_6 Mn2_6 1_555 1_555
O10_3 C17_6 1_555 1_555
O11_6 C12_6 1_555 1_555
O14_6 C19_6 1_555 1_555
O15_6 Mn4_6 1_555 1_555
O16_6 Mn4_6 1_555 1_555
O17_6 Mn4_6 1_555 1_555
O18_6 Mn2_6 1_555 1_555
O20_6 C21_6 1_555 1_555
O22_6 Mn4_6 1_555 1_555
O24_6 Mn4_6 1_555 1_555
N7_3 C6_6 1_555 1_555
N6_6 Mn7 1_555 1_555
C1_6 N6_6 1_555 1_555
C6_6 C9_6 1_555 1_555
C7_6 O18_6 1_555 1_555
C9_6 O16_6 1_555 1_555
C12_6 O24_6 1_555 1_555
C14_6 N7_3 1_555 1_555
H3_6 C14_6 1_555 1_555
C15_6 O8_6 1_555 1_555
C16_6 N3_6 1_555 1_555
C17_6 O15_6 1_555 1_555
C19_6 O6_6 1_555 1_555
C20_6 O22_6 1_555 1_555
C21_6 O17_6 1_555 1_555
Mn9_3 O2_3 1_555 1_555
Mn10_6 O11_6 1_555 1_555
O26_6 Mn2_6 1_555 1_555
O28_6 Mn2_6 1_555 1_555
O10_3 Mn9_3 1_555 1_555
O20_6 Mn10_6 1_555 1_555
N3_6 C14_6 1_555 1_555
C1_6 C4_6 1_555 1_555
C1_6 C15_6 1_555 1_555
C4_6 C7_6 1_555 1_555
C6_6 C16_6 1_555 1_555
C12_6 C21_6 1_555 1_555
C16_6 C19_6 1_555 1_555
C17_6 C20_6 1_555 1_555
Mn9_3 O19_7 1_555 1_555
O3_7 C13_7 1_555 1_555
O7_7 C10_7 1_555 1_555
O9_7 C10_7 1_555 1_555
O31_2 C5_7 1_555 1_555
O13_7 Mn1_7 1_555 1_555
O19_7 C5_7 1_555 1_555
O23_7 Mn9_3 1_555 1_555
N1_7 Mn1_7 1_555 1_555
N8_2 C3_7 1_555 1_555
N5_7 Mn1_7 1_555 1_555
C2_7 N5_7 1_555 1_555
C3_7 C2_7 1_555 1_555
C5_7 C3_7 1_555 1_555
C8_7 N1_7 1_555 1_555
H1_7 C8_7 1_555 1_555
C10_7 C13_7 1_555 1_555
C11_7 N8_2 1_555 1_555
H2_7 C11_7 1_555 1_555
C13_7 O21_7 1_555 1_555
C18_7 O13_7 1_555 1_555
Mn6_7 O3_7 1_555 1_555
O30_7 Mn9_3 1_555 1_555
O32_7 Mn9_3 1_555 1_555
O9_7 Mn6_7 1_555 1_555
O23_7 C18_7 1_555 1_555
N5_7 C11_7 1_555 1_555
C2_7 C18_7 1_555 1_555
Mn7_2 O1_7 1_555 1_555
Mn4_7 O14_7 1_555 1_555
O1_7 C15_7 1_555 1_555
O2_4 C20_7 1_555 1_555
O4_7 C7_7 1_555 1_555
O27_4 C9_7 1_555 1_555
O8_7 Mn2_7 1_555 1_555
O10_4 C17_7 1_555 1_555
O11_7 C12_7 1_555 1_555
O14_7 C19_7 1_555 1_555
O15_7 Mn4_7 1_555 1_555
O16_7 Mn4_7 1_555 1_555
O17_7 Mn4_7 1_555 1_555
O18_7 Mn2_7 1_555 1_555
O20_7 C21_7 1_555 1_555
O22_7 Mn4_7 1_555 1_555
O24_7 Mn4_7 1_555 1_555
N7_4 C6_7 1_555 1_555
N6_7 Mn7_2 1_555 1_555
C1_7 N6_7 1_555 1_555
C6_7 C9_7 1_555 1_555
C7_7 O18_7 1_555 1_555
C9_7 O16_7 1_555 1_555
C12_7 O24_7 1_555 1_555
C14_7 N7_4 1_555 1_555
H3_7 C14_7 1_555 1_555
C15_7 O8_7 1_555 1_555
C16_7 N3_7 1_555 1_555
C17_7 O15_7 1_555 1_555
C19_7 O6_7 1_555 1_555
C20_7 O22_7 1_555 1_555
C21_7 O17_7 1_555 1_555
Mn9_4 O2_4 1_555 1_555
Mn10_7 O11_7 1_555 1_555
O26_7 Mn2_7 1_555 1_555
O28_7 Mn2_7 1_555 1_555
O10_4 Mn9_4 1_555 1_555
O20_7 Mn10_7 1_555 1_555
N3_7 C14_7 1_555 1_555
C1_7 C4_7 1_555 1_555
C1_7 C15_7 1_555 1_555
C4_7 C7_7 1_555 1_555
C6_7 C16_7 1_555 1_555
C12_7 C21_7 1_555 1_555
C16_7 C19_7 1_555 1_555
C17_7 C20_7 1_555 1_555
Mn8 O1_8 1_555 1_555
Mn4_8 O14_8 1_555 1_555
O1_8 C15_8 1_555 1_555
O25_4 C20_8 1_555 1_555
O4_8 C7_8 1_555 1_555
O27 C9_8 1_555 1_555
O8_8 Mn2_8 1_555 1_555
O29_4 C17_8 1_555 1_555
O11_8 C12_8 1_555 1_555
O14_8 C19_8 1_555 1_555
O15_8 Mn4_8 1_555 1_555
O16_8 Mn4_8 1_555 1_555
O17_8 Mn4_8 1_555 1_555
O18_8 Mn2_8 1_555 1_555
O20_8 C21_8 1_555 1_555
O22_8 Mn4_8 1_555 1_555
O24_8 Mn4_8 1_555 1_555
N7 C6_8 1_555 1_555
N6_8 Mn8 1_555 1_555
C1_8 N6_8 1_555 1_555
C6_8 C9_8 1_555 1_555
C7_8 O18_8 1_555 1_555
C9_8 O16_8 1_555 1_555
C12_8 O24_8 1_555 1_555
C14_8 N7 1_555 1_555
H3_8 C14_8 1_555 1_555
C15_8 O8_8 1_555 1_555
C16_8 N3_8 1_555 1_555
C17_8 O15_8 1_555 1_555
C19_8 O6_8 1_555 1_555
C20_8 O22_8 1_555 1_555
C21_8 O17_8 1_555 1_555
Mn10_8 O11_8 1_555 1_555
O26_8 Mn2_8 1_555 1_555
O28_8 Mn2_8 1_555 1_555
O20_8 Mn10_8 1_555 1_555
N3_8 C14_8 1_555 1_555
C1_8 C4_8 1_555 1_555
C1_8 C15_8 1_555 1_555
C4_8 C7_8 1_555 1_555
C6_8 C16_8 1_555 1_555
C12_8 C21_8 1_555 1_555
C16_8 C19_8 1_555 1_555
C17_8 C20_8 1_555 1_555
Mn9_4 O19_8 1_555 1_555
O3_8 C13_8 1_555 1_555
O7_8 C10_8 1_555 1_555
O9_8 C10_8 1_555 1_555
O31_3 C5_8 1_555 1_555
O13_8 Mn1_8 1_555 1_555
O19_8 C5_8 1_555 1_555
O23_8 Mn9_4 1_555 1_555
N1_8 Mn1_8 1_555 1_555
N8_3 C3_8 1_555 1_555
N5_8 Mn1_8 1_555 1_555
C2_8 N5_8 1_555 1_555
C3_8 C2_8 1_555 1_555
C5_8 C3_8 1_555 1_555
C8_8 N1_8 1_555 1_555
H1_8 C8_8 1_555 1_555
C10_8 C13_8 1_555 1_555
C11_8 N8_3 1_555 1_555
H2_8 C11_8 1_555 1_555
C13_8 O21_8 1_555 1_555
C18_8 O13_8 1_555 1_555
Mn6_8 O3_8 1_555 1_555
O30_8 Mn9_4 1_555 1_555
O32_8 Mn9_4 1_555 1_555
O9_8 Mn6_8 1_555 1_555
O23_8 C18_8 1_555 1_555
N5_8 C11_8 1_555 1_555
C2_8 C18_8 1_555 1_555
Mn1_9 O4_9 1_555 1_555
Mn6_2 O7_9 1_555 1_555
Mn3_5 O1_9 1_555 1_555
Mn4_9 O14_9 1_555 1_555
Mn10_7 O19_9 1_555 1_555
O1_9 C15_9 1_555 1_555
O2_5 C20_9 1_555 1_555
O26_4 C13_9 1_555 1_555
O4_9 C7_9 1_555 1_555
O5_5 C9_9 1_555 1_555
O6_9 Mn1_9 1_555 1_555
O7_9 C10_9 1_555 1_555
O8_9 Mn6_2 1_555 1_555
O28_4 C10_9 1_555 1_555
O10_5 C17_9 1_555 1_555
O30_7 C12_9 1_555 1_555
O12_5 C5_9 1_555 1_555
O13_9 Mn1_9 1_555 1_555
O14_9 C19_9 1_555 1_555
O15_9 Mn4_9 1_555 1_555
O16_9 Mn4_9 1_555 1_555
O17_9 Mn4_9 1_555 1_555
O18_9 Mn6_2 1_555 1_555
O19_9 C5_9 1_555 1_555
O32_7 C21_9 1_555 1_555
O21_9 Mn6_2 1_555 1_555
O22_9 Mn4_9 1_555 1_555
O23_9 Mn10_7 1_555 1_555
O24_9 Mn4_9 1_555 1_555
N1_9 Mn1_9 1_555 1_555
N2_5 C6_9 1_555 1_555
N3_9 Mn1_9 1_555 1_555
N4_5 C3_9 1_555 1_555
N5_9 Mn1_9 1_555 1_555
N6_9 Mn3_5 1_555 1_555
C1_9 N6_9 1_555 1_555
C2_9 N5_9 1_555 1_555
C3_9 C2_9 1_555 1_555
C4_9 N1_9 1_555 1_555
C5_9 C3_9 1_555 1_555
C6_9 C9_9 1_555 1_555
C7_9 O18_9 1_555 1_555
C8_9 N1_9 1_555 1_555
H1_9 C8_9 1_555 1_555
C9_9 O16_9 1_555 1_555
C10_9 C13_9 1_555 1_555
C11_9 N4_5 1_555 1_555
H2_9 C11_9 1_555 1_555
C12_9 O24_9 1_555 1_555
C13_9 O21_9 1_555 1_555
C14_9 N2_5 1_555 1_555
H3_9 C14_9 1_555 1_555
C15_9 O8_9 1_555 1_555
C16_9 N3_9 1_555 1_555
C17_9 O15_9 1_555 1_555
C18_9 O13_9 1_555 1_555
C19_9 O6_9 1_555 1_555
C20_9 O22_9 1_555 1_555
C21_9 O17_9 1_555 1_555
Mn7_3 O12_5 1_555 1_555
Mn8_3 O5_5 1_555 1_555
Mn10_6 O2_5 1_555 1_555
O25_5 Mn10_7 1_555 1_555
O27_5 Mn3_5 1_555 1_555
O29_5 Mn10_7 1_555 1_555
O31_5 Mn3_5 1_555 1_555
N7_5 Mn3_5 1_555 1_555
N8_5 Mn3_5 1_555 1_555
O10_5 Mn10_6 1_555 1_555
O23_9 C18_9 1_555 1_555
N2_5 Mn8_3 1_555 1_555
N3_9 C14_9 1_555 1_555
N4_5 Mn7_3 1_555 1_555
N5_9 C11_9 1_555 1_555
N6_9 C8_9 1_555 1_555
C1_9 C4_9 1_555 1_555
C1_9 C15_9 1_555 1_555
C2_9 C18_9 1_555 1_555
C4_9 C7_9 1_555 1_555
C6_9 C16_9 1_555 1_555
C12_9 C21_9 1_555 1_555
C16_9 C19_9 1_555 1_555
C17_9 C20_9 1_555 1_555
Mn1_10 O4_10 1_555 1_555
Mn6_3 O7_10 1_555 1_555
Mn3_6 O1_10 1_555 1_555
Mn4_10 O14_10 1_555 1_555
Mn10_8 O19_10 1_555 1_555
O1_10 C15_10 1_555 1_555
O25_5 C20_10 1_555 1_555
O26 C13_10 1_555 1_555
O4_10 C7_10 1_555 1_555
O5_6 C9_10 1_555 1_555
O6_10 Mn1_10 1_555 1_555
O7_10 C10_10 1_555 1_555
O8_10 Mn6_3 1_555 1_555
O28 C10_10 1_555 1_555
O29_5 C17_10 1_555 1_555
O30_8 C12_10 1_555 1_555
O12_6 C5_10 1_555 1_555
O13_10 Mn1_10 1_555 1_555
O14_10 C19_10 1_555 1_555
O15_10 Mn4_10 1_555 1_555
O16_10 Mn4_10 1_555 1_555
O17_10 Mn4_10 1_555 1_555
O18_10 Mn6_3 1_555 1_555
O19_10 C5_10 1_555 1_555
O32_8 C21_10 1_555 1_555
O21_10 Mn6_3 1_555 1_555
O22_10 Mn4_10 1_555 1_555
O23_10 Mn10_8 1_555 1_555
O24_10 Mn4_10 1_555 1_555
N1_10 Mn1_10 1_555 1_555
N2_6 C6_10 1_555 1_555
N3_10 Mn1_10 1_555 1_555
N4_6 C3_10 1_555 1_555
N5_10 Mn1_10 1_555 1_555
N6_10 Mn3_6 1_555 1_555
C1_10 N6_10 1_555 1_555
C2_10 N5_10 1_555 1_555
C3_10 C2_10 1_555 1_555
C4_10 N1_10 1_555 1_555
C5_10 C3_10 1_555 1_555
C6_10 C9_10 1_555 1_555
C7_10 O18_10 1_555 1_555
C8_10 N1_10 1_555 1_555
H1_10 C8_10 1_555 1_555
C9_10 O16_10 1_555 1_555
C10_10 C13_10 1_555 1_555
C11_10 N4_6 1_555 1_555
H2_10 C11_10 1_555 1_555
C12_10 O24_10 1_555 1_555
C13_10 O21_10 1_555 1_555
C14_10 N2_6 1_555 1_555
H3_10 C14_10 1_555 1_555
C15_10 O8_10 1_555 1_555
C16_10 N3_10 1_555 1_555
C17_10 O15_10 1_555 1_555
C18_10 O13_10 1_555 1_555
C19_10 O6_10 1_555 1_555
C20_10 O22_10 1_555 1_555
C21_10 O17_10 1_555 1_555
Mn7_4 O12_6 1_555 1_555
Mn8_4 O5_6 1_555 1_555
O25_6 Mn10_8 1_555 1_555
O27_6 Mn3_6 1_555 1_555
O29_6 Mn10_8 1_555 1_555
O31_6 Mn3_6 1_555 1_555
N7_6 Mn3_6 1_555 1_555
N8_6 Mn3_6 1_555 1_555
O23_10 C18_10 1_555 1_555
N2_6 Mn8_4 1_555 1_555
N3_10 C14_10 1_555 1_555
N4_6 Mn7_4 1_555 1_555
N5_10 C11_10 1_555 1_555
N6_10 C8_10 1_555 1_555
C1_10 C4_10 1_555 1_555
C1_10 C15_10 1_555 1_555
C2_10 C18_10 1_555 1_555
C4_10 C7_10 1_555 1_555
C6_10 C16_10 1_555 1_555
C12_10 C21_10 1_555 1_555
C16_10 C19_10 1_555 1_555
C17_10 C20_10 1_555 1_555
Mn1_11 O4_11 1_555 1_555
Mn6_4 O7_11 1_555 1_555
Mn3_7 O1_11 1_555 1_555
Mn4_11 O14_11 1_555 1_555
Mn10_5 O19_11 1_555 1_555
O1_11 C15_11 1_555 1_555
O25_6 C20_11 1_555 1_555
O26_2 C13_11 1_555 1_555
O4_11 C7_11 1_555 1_555
O5_7 C9_11 1_555 1_555
O6_11 Mn1_11 1_555 1_555
O7_11 C10_11 1_555 1_555
O8_11 Mn6_4 1_555 1_555
O28_2 C10_11 1_555 1_555
O29_6 C17_11 1_555 1_555
O30_5 C12_11 1_555 1_555
O12_7 C5_11 1_555 1_555
O13_11 Mn1_11 1_555 1_555
O14_11 C19_11 1_555 1_555
O15_11 Mn4_11 1_555 1_555
O16_11 Mn4_11 1_555 1_555
O17_11 Mn4_11 1_555 1_555
O18_11 Mn6_4 1_555 1_555
O19_11 C5_11 1_555 1_555
O32_5 C21_11 1_555 1_555
O21_11 Mn6_4 1_555 1_555
O22_11 Mn4_11 1_555 1_555
O23_11 Mn10_5 1_555 1_555
O24_11 Mn4_11 1_555 1_555
N1_11 Mn1_11 1_555 1_555
N2_7 C6_11 1_555 1_555
N3_11 Mn1_11 1_555 1_555
N4_7 C3_11 1_555 1_555
N5_11 Mn1_11 1_555 1_555
N6_11 Mn3_7 1_555 1_555
C1_11 N6_11 1_555 1_555
C2_11 N5_11 1_555 1_555
C3_11 C2_11 1_555 1_555
C4_11 N1_11 1_555 1_555
C5_11 C3_11 1_555 1_555
C6_11 C9_11 1_555 1_555
C7_11 O18_11 1_555 1_555
C8_11 N1_11 1_555 1_555
H1_11 C8_11 1_555 1_555
C9_11 O16_11 1_555 1_555
C10_11 C13_11 1_555 1_555
C11_11 N4_7 1_555 1_555
H2_11 C11_11 1_555 1_555
C12_11 O24_11 1_555 1_555
C13_11 O21_11 1_555 1_555
C14_11 N2_7 1_555 1_555
H3_11 C14_11 1_555 1_555
C15_11 O8_11 1_555 1_555
C16_11 N3_11 1_555 1_555
C17_11 O15_11 1_555 1_555
C18_11 O13_11 1_555 1_555
C19_11 O6_11 1_555 1_555
C20_11 O22_11 1_555 1_555
C21_11 O17_11 1_555 1_555
Mn8_3 O12_7 1_555 1_555
Mn7_3 O5_7 1_555 1_555
O25_7 Mn10_5 1_555 1_555
O27_7 Mn3_7 1_555 1_555
O29_7 Mn10_5 1_555 1_555
O31_7 Mn3_7 1_555 1_555
N7_7 Mn3_7 1_555 1_555
N8_7 Mn3_7 1_555 1_555
O23_11 C18_11 1_555 1_555
N2_7 Mn7_3 1_555 1_555
N3_11 C14_11 1_555 1_555
N4_7 Mn8_3 1_555 1_555
N5_11 C11_11 1_555 1_555
N6_11 C8_11 1_555 1_555
C1_11 C4_11 1_555 1_555
C1_11 C15_11 1_555 1_555
C2_11 C18_11 1_555 1_555
C4_11 C7_11 1_555 1_555
C6_11 C16_11 1_555 1_555
C12_11 C21_11 1_555 1_555
C16_11 C19_11 1_555 1_555
C17_11 C20_11 1_555 1_555
Mn1_12 O4_12 1_555 1_555
Mn6 O7_12 1_555 1_555
Mn3_8 O1_12 1_555 1_555
Mn4_12 O14_12 1_555 1_555
Mn10_6 O19_12 1_555 1_555
O1_12 C15_12 1_555 1_555
O25_7 C20_12 1_555 1_555
O26_3 C13_12 1_555 1_555
O4_12 C7_12 1_555 1_555
O5_8 C9_12 1_555 1_555
O6_12 Mn1_12 1_555 1_555
O7_12 C10_12 1_555 1_555
O8_12 Mn6 1_555 1_555
O28_3 C10_12 1_555 1_555
O29_7 C17_12 1_555 1_555
O30_6 C12_12 1_555 1_555
O12_8 C5_12 1_555 1_555
O13_12 Mn1_12 1_555 1_555
O14_12 C19_12 1_555 1_555
O15_12 Mn4_12 1_555 1_555
O16_12 Mn4_12 1_555 1_555
O17_12 Mn4_12 1_555 1_555
O18_12 Mn6 1_555 1_555
O19_12 C5_12 1_555 1_555
O32_6 C21_12 1_555 1_555
O21_12 Mn6 1_555 1_555
O22_12 Mn4_12 1_555 1_555
O23_12 Mn10_6 1_555 1_555
O24_12 Mn4_12 1_555 1_555
N1_12 Mn1_12 1_555 1_555
N2_8 C6_12 1_555 1_555
N3_12 Mn1_12 1_555 1_555
N4_8 C3_12 1_555 1_555
N5_12 Mn1_12 1_555 1_555
N6_12 Mn3_8 1_555 1_555
C1_12 N6_12 1_555 1_555
C2_12 N5_12 1_555 1_555
C3_12 C2_12 1_555 1_555
C4_12 N1_12 1_555 1_555
C5_12 C3_12 1_555 1_555
C6_12 C9_12 1_555 1_555
C7_12 O18_12 1_555 1_555
C8_12 N1_12 1_555 1_555
H1_12 C8_12 1_555 1_555
C9_12 O16_12 1_555 1_555
C10_12 C13_12 1_555 1_555
C11_12 N4_8 1_555 1_555
H2_12 C11_12 1_555 1_555
C12_12 O24_12 1_555 1_555
C13_12 O21_12 1_555 1_555
C14_12 N2_8 1_555 1_555
H3_12 C14_12 1_555 1_555
C15_12 O8_12 1_555 1_555
C16_12 N3_12 1_555 1_555
C17_12 O15_12 1_555 1_555
C18_12 O13_12 1_555 1_555
C19_12 O6_12 1_555 1_555
C20_12 O22_12 1_555 1_555
C21_12 O17_12 1_555 1_555
Mn8_4 O12_8 1_555 1_555
Mn7_4 O5_8 1_555 1_555
O27_8 Mn3_8 1_555 1_555
O31_8 Mn3_8 1_555 1_555
N7_8 Mn3_8 1_555 1_555
N8_8 Mn3_8 1_555 1_555
O23_12 C18_12 1_555 1_555
N2_8 Mn7_4 1_555 1_555
N3_12 C14_12 1_555 1_555
N4_8 Mn8_4 1_555 1_555
N5_12 C11_12 1_555 1_555
N6_12 C8_12 1_555 1_555
C1_12 C4_12 1_555 1_555
C1_12 C15_12 1_555 1_555
C2_12 C18_12 1_555 1_555
C4_12 C7_12 1_555 1_555
C6_12 C16_12 1_555 1_555
C12_12 C21_12 1_555 1_555
C16_12 C19_12 1_555 1_555
C17_12 C20_12 1_555 1_555
O2_6 C20_13 1_555 1_555
O10_6 C17_13 1_555 1_555
C20_13 O22_13 1_555 1_555
Mn10_4 O2_6 1_555 1_555
O10_6 Mn10_4 1_555 1_555
C17_13 C20_13 1_555 1_555
Mn1_13 O4_13 1_555 1_555
Mn6_8 O7_13 1_555 1_555
Mn8_4 O1_13 1_555 1_555
Mn4_13 O14_13 1_555 1_555
Mn10_3 O19_13 1_555 1_555
O1_13 C15_13 1_555 1_555
O26_6 C13_13 1_555 1_555
O4_13 C7_13 1_555 1_555
O27_6 C9_13 1_555 1_555
O6_13 Mn1_13 1_555 1_555
O7_13 C10_13 1_555 1_555
O8_13 Mn6_8 1_555 1_555
O28_6 C10_13 1_555 1_555
O30_3 C12_13 1_555 1_555
O31_8 C5_13 1_555 1_555
O13_13 Mn1_13 1_555 1_555
O14_13 C19_13 1_555 1_555
O15_13 Mn4_13 1_555 1_555
O16_13 Mn4_13 1_555 1_555
O17_13 Mn4_13 1_555 1_555
O18_13 Mn6_8 1_555 1_555
O19_13 C5_13 1_555 1_555
O32_3 C21_13 1_555 1_555
O21_13 Mn6_8 1_555 1_555
O23_13 Mn10_3 1_555 1_555
O24_13 Mn4_13 1_555 1_555
N1_13 Mn1_13 1_555 1_555
N7_6 C6_13 1_555 1_555
N3_13 Mn1_13 1_555 1_555
N8_8 C3_13 1_555 1_555
N5_13 Mn1_13 1_555 1_555
N6_13 Mn8_4 1_555 1_555
C1_13 N6_13 1_555 1_555
C2_13 N5_13 1_555 1_555
C3_13 C2_13 1_555 1_555
C4_13 N1_13 1_555 1_555
C5_13 C3_13 1_555 1_555
C6_13 C9_13 1_555 1_555
C7_13 O18_13 1_555 1_555
C8_13 N1_13 1_555 1_555
H1_13 C8_13 1_555 1_555
C9_13 O16_13 1_555 1_555
C10_13 C13_13 1_555 1_555
C11_13 N8_8 1_555 1_555
H2_13 C11_13 1_555 1_555
C12_13 O24_13 1_555 1_555
C13_13 O21_13 1_555 1_555
C14_13 N7_6 1_555 1_555
H3_13 C14_13 1_555 1_555
C15_13 O8_13 1_555 1_555
C16_13 N3_13 1_555 1_555
C18_13 O13_13 1_555 1_555
C19_13 O6_13 1_555 1_555
C21_13 O17_13 1_555 1_555
O25_8 Mn10_3 1_555 1_555
O29_8 Mn10_3 1_555 1_555
O23_13 C18_13 1_555 1_555
N3_13 C14_13 1_555 1_555
N5_13 C11_13 1_555 1_555
N6_13 C8_13 1_555 1_555
C1_13 C4_13 1_555 1_555
C1_13 C15_13 1_555 1_555
C2_13 C18_13 1_555 1_555
C4_13 C7_13 1_555 1_555
C6_13 C16_13 1_555 1_555
C12_13 C21_13 1_555 1_555
C16_13 C19_13 1_555 1_555
Mn1_14 O4_14 1_555 1_555
Mn6_5 O7_14 1_555 1_555
Mn7_3 O1_14 1_555 1_555
Mn4_14 O14_14 1_555 1_555
Mn10_4 O19_14 1_555 1_555
O1_14 C15_14 1_555 1_555
O26_7 C13_14 1_555 1_555
O4_14 C7_14 1_555 1_555
O27_7 C9_14 1_555 1_555
O6_14 Mn1_14 1_555 1_555
O7_14 C10_14 1_555 1_555
O8_14 Mn6_5 1_555 1_555
O28_7 C10_14 1_555 1_555
O30_4 C12_14 1_555 1_555
O31_5 C5_14 1_555 1_555
O13_14 Mn1_14 1_555 1_555
O14_14 C19_14 1_555 1_555
O15_14 Mn4_14 1_555 1_555
O16_14 Mn4_14 1_555 1_555
O17_14 Mn4_14 1_555 1_555
O18_14 Mn6_5 1_555 1_555
O19_14 C5_14 1_555 1_555
O32_4 C21_14 1_555 1_555
O21_14 Mn6_5 1_555 1_555
O23_14 Mn10_4 1_555 1_555
O24_14 Mn4_14 1_555 1_555
N1_14 Mn1_14 1_555 1_555
N7_7 C6_14 1_555 1_555
N3_14 Mn1_14 1_555 1_555
N8_5 C3_14 1_555 1_555
N5_14 Mn1_14 1_555 1_555
N6_14 Mn7_3 1_555 1_555
C1_14 N6_14 1_555 1_555
C2_14 N5_14 1_555 1_555
C3_14 C2_14 1_555 1_555
C4_14 N1_14 1_555 1_555
C5_14 C3_14 1_555 1_555
C6_14 C9_14 1_555 1_555
C7_14 O18_14 1_555 1_555
C8_14 N1_14 1_555 1_555
H1_14 C8_14 1_555 1_555
C9_14 O16_14 1_555 1_555
C10_14 C13_14 1_555 1_555
C11_14 N8_5 1_555 1_555
H2_14 C11_14 1_555 1_555
C12_14 O24_14 1_555 1_555
C13_14 O21_14 1_555 1_555
C14_14 N7_7 1_555 1_555
H3_14 C14_14 1_555 1_555
C15_14 O8_14 1_555 1_555
C16_14 N3_14 1_555 1_555
C18_14 O13_14 1_555 1_555
C19_14 O6_14 1_555 1_555
C21_14 O17_14 1_555 1_555
O23_14 C18_14 1_555 1_555
N3_14 C14_14 1_555 1_555
N5_14 C11_14 1_555 1_555
N6_14 C8_14 1_555 1_555
C1_14 C4_14 1_555 1_555
C1_14 C15_14 1_555 1_555
C2_14 C18_14 1_555 1_555
C4_14 C7_14 1_555 1_555
C6_14 C16_14 1_555 1_555
C12_14 C21_14 1_555 1_555
C16_14 C19_14 1_555 1_555
O2_7 C20_14 1_555 1_555
O10_7 C17_14 1_555 1_555
C20_14 O22_14 1_555 1_555
Mn10 O2_7 1_555 1_555
O10_7 Mn10 1_555 1_555
C17_14 C20_14 1_555 1_555
O2_8 C20_15 1_555 1_555
O10_8 C17_15 1_555 1_555
C20_15 O22_15 1_555 1_555
Mn10_2 O2_8 1_555 1_555
O10_8 Mn10_2 1_555 1_555
C17_15 C20_15 1_555 1_555
Mn1_15 O4_15 1_555 1_555
Mn6_6 O7_15 1_555 1_555
Mn7_4 O1_15 1_555 1_555
Mn4_15 O14_15 1_555 1_555
Mn10 O19_15 1_555 1_555
O1_15 C15_15 1_555 1_555
O26_8 C13_15 1_555 1_555
O4_15 C7_15 1_555 1_555
O27_8 C9_15 1_555 1_555
O6_15 Mn1_15 1_555 1_555
O7_15 C10_15 1_555 1_555
O8_15 Mn6_6 1_555 1_555
O28_8 C10_15 1_555 1_555
O30 C12_15 1_555 1_555
O31_6 C5_15 1_555 1_555
O13_15 Mn1_15 1_555 1_555
O14_15 C19_15 1_555 1_555
O15_15 Mn4_15 1_555 1_555
O16_15 Mn4_15 1_555 1_555
O17_15 Mn4_15 1_555 1_555
O18_15 Mn6_6 1_555 1_555
O19_15 C5_15 1_555 1_555
O32 C21_15 1_555 1_555
O21_15 Mn6_6 1_555 1_555
O23_15 Mn10 1_555 1_555
O24_15 Mn4_15 1_555 1_555
N1_15 Mn1_15 1_555 1_555
N7_8 C6_15 1_555 1_555
N3_15 Mn1_15 1_555 1_555
N8_6 C3_15 1_555 1_555
N5_15 Mn1_15 1_555 1_555
N6_15 Mn7_4 1_555 1_555
C1_15 N6_15 1_555 1_555
C2_15 N5_15 1_555 1_555
C3_15 C2_15 1_555 1_555
C4_15 N1_15 1_555 1_555
C5_15 C3_15 1_555 1_555
C6_15 C9_15 1_555 1_555
C7_15 O18_15 1_555 1_555
C8_15 N1_15 1_555 1_555
H1_15 C8_15 1_555 1_555
C9_15 O16_15 1_555 1_555
C10_15 C13_15 1_555 1_555
C11_15 N8_6 1_555 1_555
H2_15 C11_15 1_555 1_555
C12_15 O24_15 1_555 1_555
C13_15 O21_15 1_555 1_555
C14_15 N7_8 1_555 1_555
H3_15 C14_15 1_555 1_555
C15_15 O8_15 1_555 1_555
C16_15 N3_15 1_555 1_555
C18_15 O13_15 1_555 1_555
C19_15 O6_15 1_555 1_555
C21_15 O17_15 1_555 1_555
O23_15 C18_15 1_555 1_555
N3_15 C14_15 1_555 1_555
N5_15 C11_15 1_555 1_555
N6_15 C8_15 1_555 1_555
C1_15 C4_15 1_555 1_555
C1_15 C15_15 1_555 1_555
C2_15 C18_15 1_555 1_555
C4_15 C7_15 1_555 1_555
C6_15 C16_15 1_555 1_555
C12_15 C21_15 1_555 1_555
C16_15 C19_15 1_555 1_555
Mn1_16 O4_16 1_555 1_555
Mn6_7 O7_16 1_555 1_555
Mn8_3 O1_16 1_555 1_555
Mn4_16 O14_16 1_555 1_555
Mn10_2 O19_16 1_555 1_555
O1_16 C15_16 1_555 1_555
O26_5 C13_16 1_555 1_555
O4_16 C7_16 1_555 1_555
O27_5 C9_16 1_555 1_555
O6_16 Mn1_16 1_555 1_555
O7_16 C10_16 1_555 1_555
O8_16 Mn6_7 1_555 1_555
O28_5 C10_16 1_555 1_555
O30_2 C12_16 1_555 1_555
O31_7 C5_16 1_555 1_555
O13_16 Mn1_16 1_555 1_555
O14_16 C19_16 1_555 1_555
O15_16 Mn4_16 1_555 1_555
O16_16 Mn4_16 1_555 1_555
O17_16 Mn4_16 1_555 1_555
O18_16 Mn6_7 1_555 1_555
O19_16 C5_16 1_555 1_555
O32_2 C21_16 1_555 1_555
O21_16 Mn6_7 1_555 1_555
O23_16 Mn10_2 1_555 1_555
O24_16 Mn4_16 1_555 1_555
N1_16 Mn1_16 1_555 1_555
N7_5 C6_16 1_555 1_555
N3_16 Mn1_16 1_555 1_555
N8_7 C3_16 1_555 1_555
N5_16 Mn1_16 1_555 1_555
N6_16 Mn8_3 1_555 1_555
C1_16 N6_16 1_555 1_555
C2_16 N5_16 1_555 1_555
C3_16 C2_16 1_555 1_555
C4_16 N1_16 1_555 1_555
C5_16 C3_16 1_555 1_555
C6_16 C9_16 1_555 1_555
C7_16 O18_16 1_555 1_555
C8_16 N1_16 1_555 1_555
H1_16 C8_16 1_555 1_555
C9_16 O16_16 1_555 1_555
C10_16 C13_16 1_555 1_555
C11_16 N8_7 1_555 1_555
H2_16 C11_16 1_555 1_555
C12_16 O24_16 1_555 1_555
C13_16 O21_16 1_555 1_555
C14_16 N7_5 1_555 1_555
H3_16 C14_16 1_555 1_555
C15_16 O8_16 1_555 1_555
C16_16 N3_16 1_555 1_555
C18_16 O13_16 1_555 1_555
C19_16 O6_16 1_555 1_555
C21_16 O17_16 1_555 1_555
O23_16 C18_16 1_555 1_555
N3_16 C14_16 1_555 1_555
N5_16 C11_16 1_555 1_555
N6_16 C8_16 1_555 1_555
C1_16 C4_16 1_555 1_555
C1_16 C15_16 1_555 1_555
C2_16 C18_16 1_555 1_555
C4_16 C7_16 1_555 1_555
C6_16 C16_16 1_555 1_555
C12_16 C21_16 1_555 1_555
C16_16 C19_16 1_555 1_555
O25_8 C20_16 1_555 1_555
O29_8 C17_16 1_555 1_555
C20_16 O22_16 1_555 1_555
C17_16 C20_16 1_555 1_555

#END
