
###############################################################################
#
# This file contains modified crystal structure data generated from the
# MOF subset of the Cambridge Structural Database (CSD) v543 
# hosted by the Cambridge Crystallographic Data Centre (CCDC).
#
# This work is licensed under the Creative Commons
# Attribution-NonCommercial-ShareAlike 4.0 International License.
# To view a copy of this license, visit
# http://creativecommons.org/licenses/by-nc-sa/4.0/
# or send a letter to
# Creative Commons, PO Box 1866, Mountain View, CA 94042, USA.
#
# CIF created using the CSD Python API on 29 September 2022
# The structure has been converted into the P1 space group
# The structure has a 3D framework
# The original CSD entry KOQLEK is in the monoclinic crystal system
# The framework has been calculated to contain at least 10.0% void space
# The void calculation uses a probe of radius 1.32A, grid spacing 0.4
# H atom positions have been added when not included in the experimental data
#
###############################################################################

data_KOQLEK
_chemical_formula_moiety         '(C112 H112 Co20 N16 O88)n'
_symmetry_cell_setting           triclinic
_symmetry_space_group_name_H-M   'P 1'
_symmetry_Int_Tables_number      1
_space_group_name_Hall           'P 1'
loop_
_symmetry_equiv_pos_site_id
_symmetry_equiv_pos_as_xyz
1 x,y,z
_cell_length_a                   11.7007(3)
_cell_length_b                   28.4718(9)
_cell_length_c                   17.3114(4)
_cell_angle_alpha                90
_cell_angle_beta                 99.730(3)
_cell_angle_gamma                90
_cell_volume                     5684.16
loop_
_atom_site_label
_atom_site_type_symbol
_atom_site_fract_x
_atom_site_fract_y
_atom_site_fract_z
N3 N 0.2389(3) 0.38404(14) 0.3104(2)
C16 C 0.0190(4) 0.36813(17) 0.3465(3)
C17 C 0.1163(5) 0.3514(2) 0.3939(4)
H11 H 0.110219 0.334534 0.438979
C18 C 0.2240(5) 0.3602(3) 0.3734(4)
H12 H 0.289445 0.348570 0.405790
C19 C 0.1425(4) 0.39845(19) 0.2631(3)
H13 H 0.149656 0.414206 0.217067
C20 C 0.0337(4) 0.39077(19) 0.2801(3)
Co8 Co 0.14831(6) 0.14876(2) 0.80027(4)
Co9 Co 0.40638(6) 0.40734(2) 0.29060(4)
Co13 Co 0.13416(6) 0.24340(3) 0.69804(4)
O26 O 0.0741(3) 0.31128(11) 0.71520(19)
Co1 Co 0.89338(6) 0.29890(2) 0.69276(4)
Co2 Co 0.77066(6) 0.32386(2) 0.49743(4)
Co3 Co 0.64831(6) 0.35124(2) 0.30027(4)
Co5 Co 0.63416(6) 0.25660(3) 0.19804(4)
O1 O 0.8937(4) 0.30368(15) 0.8128(2)
O2 O 0.7273(3) 0.27270(13) 0.6757(2)
O3 O 0.6442(3) 0.30660(14) 0.5635(2)
O4 O 0.8406(3) 0.36790(11) 0.68578(19)
O5 O 0.7954(3) 0.38564(12) 0.55923(19)
O6 O 0.9610(3) 0.23059(11) 0.71463(18)
O7 O 0.9689(3) 0.16261(11) 0.77688(18)
O8 O 0.6358(3) 0.35755(11) 0.41832(17)
O9 O 0.4714(3) 0.39906(11) 0.40949(17)
O10 O 0.8968(3) 0.34144(13) 0.43219(19)
O11 O 0.7393(3) 0.25976(12) 0.44035(19)
O12 O 0.6873(3) 0.27739(11) 0.31408(17)
O13 O 0.8166(3) 0.37133(12) 0.31594(18)
O14 O 0.5781(3) 0.41799(11) 0.27409(18)
O15 O 0.5833(4) 0.48854(16) 0.2219(3)
O16 O 0.3395(3) 0.40731(13) 0.17224(19)
O17 O 0.6560(3) 0.32930(11) 0.18628(18)
O18 O 0.7070(5) 0.39163(18) 0.1244(3)
O19 O 0.5727(3) 0.24936(12) 0.07962(18)
O20 O 0.4051(3) 0.21017(11) 0.07373(17)
O21 O 0.5741(3) 0.18872(11) 0.21520(19)
O22 O 0.7205(4) 0.14404(15) 0.2708(3)
N1 N 0.3026(3) 0.25900(14) 0.6801(2)
N2 N 0.6491(3) 0.52415(13) 0.6870(2)
N4 N 0.3500(8) 0.3767(3) 0.0530(4)
C1 C 0.8003(4) 0.39377(16) 0.6299(3)
C2 C 0.7502(4) 0.44025(17) 0.6510(3)
C3 C 0.6982(7) 0.4691(2) 0.5934(3)
H1 H 0.694248 0.460880 0.541008
C4 C 0.6512(8) 0.5109(2) 0.6132(3)
H2 H 0.619146 0.530989 0.573029
C5 C 0.7042(5) 0.4960(2) 0.7422(3)
H3 H 0.708556 0.504876 0.794356
C6 C 0.7547(6) 0.4548(2) 0.7265(3)
H4 H 0.792524 0.436471 0.767499
C7 C 0.9159(4) 0.19691(16) 0.7446(3)
H5 H 0.835965 0.197660 0.742578
C8 C 0.6415(4) 0.28602(18) 0.6265(3)
C9 C 0.5219(4) 0.27563(18) 0.6455(3)
C10 C 0.4297(5) 0.30372(19) 0.6136(3)
H6 H 0.439783 0.328094 0.579676
C11 C 0.3222(4) 0.29486(18) 0.6333(3)
H7 H 0.260687 0.314467 0.613316
C12 C 0.3942(4) 0.23120(18) 0.7084(3)
H8 H 0.382050 0.205538 0.739230
C13 C 0.5038(5) 0.23920(18) 0.6936(3)
H9 H 0.565117 0.220155 0.716013
C14 C 0.5566(4) 0.37986(17) 0.4460(3)
H10 H 0.565385 0.381592 0.500333
C15 C 0.9009(4) 0.35972(15) 0.3677(3)
H14 H 0.969089 0.401255 0.245576
C21 C 0.7138(5) 0.24926(18) 0.3719(3)
H15 H 0.713533 0.217391 0.360114
C22 C 0.6279(5) 0.45287(18) 0.2470(3)
H16 H 0.707097 0.450044 0.246904
C23 C 0.3904(6) 0.4001(3) 0.1167(3)
H17 H 0.464658 0.412507 0.120368
H20 H 0.489477 0.356433 0.010612
C25 C 0.2447(15) 0.3532(5) 0.0435(7)
H22 H 0.247004 0.329814 0.083694
H23 H 0.183599 0.375146 0.047162
C26 C 0.4815(4) 0.23206(17) 0.0447(3)
C27 C 0.6190(5) 0.15038(19) 0.2436(3)
H25 H 0.569484 0.124839 0.243548
C28 C 0.6929(5) 0.3506(2) 0.1295(3)
H26 H 0.710112 0.332080 0.088764
Co6 Co 0.39338(6) 0.20110(2) 0.19276(4)
Co10 Co 0.59362(6) 0.59266(2) 0.70940(4)
Co11 Co 0.90638(6) 0.09266(2) 0.79060(4)
O23 O 0.4610(3) 0.26941(11) 0.21463(18)
O24 O 0.4689(3) 0.33739(11) 0.27688(18)
O25 O 0.9051(3) 0.28983(11) 0.57373(17)
N5 N 0.8026(3) 0.24100(14) 0.1801(2)
N6 N 0.3509(3) 0.47585(13) 0.3130(2)
H27 H 0.881464 0.272007 0.833991
H28 H 0.969389 0.316352 0.839152
C24 C 0.4177(13) 0.3720(5) 0.9908(5)
H18 H 0.375069 0.353887 0.948816
H19 H 0.433612 0.402585 0.971768
H21 H 0.230713 0.338300 0.993019
H24 H 0.467473 0.235622 0.990519
Co7 Co 0.27066(6) 0.17614(2) 0.99743(4)
Co4 Co 0.09362(6) 0.90734(2) 0.20940(4)
O9_2 O 0.0286(3) 0.89906(11) 0.09051(17)
O16_2 O 0.1605(3) 0.90731(13) 0.32776(19)
O20_2 O 0.0949(3) 0.71017(11) 0.42627(17)
N4_2 N 0.1500(8) 0.8767(3) 0.4470(4)
C23_2 C 0.1096(6) 0.9001(3) 0.3833(3)
H17_2 H 0.035342 0.912507 0.379632
C24_2 C 0.0823(13) 0.8720(5) 0.5092(5)
H18_2 H 0.124931 0.853887 0.551184
H19_2 H 0.066388 0.902585 0.528232
H20_2 H 0.010523 0.856433 0.489388
C25_2 C 0.2553(15) 0.8532(5) 0.4565(7)
H21_2 H 0.269287 0.838300 0.506981
H22_2 H 0.252996 0.829814 0.416306
H23_2 H 0.316401 0.875146 0.452838
C26_2 C 0.0185(4) 0.73206(17) 0.4553(3)
H24_2 H 0.032527 0.735622 0.509481
Co6_2 Co 0.10662(6) 0.70110(2) 0.30724(4)
Co7_2 Co 0.22934(6) 0.67614(2) 0.50257(4)
O23_2 O 0.0390(3) 0.76941(11) 0.28537(18)
O24_2 O 0.0311(3) 0.83739(11) 0.22312(18)
N6_2 N 0.1491(3) 0.97585(13) 0.1870(2)
N7 N 0.2611(3) 0.88404(14) 0.1896(2)
N1_2 N 0.1974(3) 0.75900(14) 0.8199(2)
C10_2 C 0.0703(5) 0.80372(19) 0.8864(3)
H6_2 H 0.060217 0.828094 0.920324
C11_2 C 0.1778(4) 0.79486(18) 0.8667(3)
H7_2 H 0.239313 0.814467 0.886684
C12_2 C 0.1058(4) 0.73120(18) 0.7916(3)
H8_2 H 0.117950 0.705538 0.760770
Co12 Co 0.36584(6) 0.74340(3) 0.80196(4)
N2_2 N 0.8509(3) 0.02415(13) 0.8130(2)
C4_2 C 0.8488(8) 0.0109(2) 0.8868(3)
H2_2 H 0.880854 0.030989 0.926971
H3_2 H 0.791444 0.004876 0.705644
Co2_2 Co 0.72934(6) 0.82386(2) 0.00257(4)
Co3_2 Co 0.85169(6) 0.85124(2) 0.19973(4)
Co5_2 Co 0.86584(6) 0.75660(3) 0.30196(4)
O8_2 O 0.8642(3) 0.85755(11) 0.08168(17)
O10_2 O 0.6032(3) 0.84144(13) 0.06781(19)
O11_2 O 0.7607(3) 0.75976(12) 0.05965(19)
O12_2 O 0.8127(3) 0.77739(11) 0.18592(17)
O13_2 O 0.6834(3) 0.87133(12) 0.18406(18)
O14_2 O 0.9219(3) 0.91799(11) 0.22591(18)
O15_2 O 0.9167(4) 0.98854(16) 0.2781(3)
O17_2 O 0.8440(3) 0.82930(11) 0.31372(18)
O18_2 O 0.7930(5) 0.89163(18) 0.3756(3)
O19_2 O 0.9273(3) 0.74936(12) 0.42038(18)
O21_2 O 0.9259(3) 0.68872(11) 0.28480(19)
O22_2 O 0.7795(4) 0.64404(15) 0.2292(3)
C14_2 C 0.9434(4) 0.87986(17) 0.0540(3)
C15_2 C 0.5991(4) 0.85972(15) 0.1323(3)
C16_2 C 0.4810(4) 0.86813(17) 0.1535(3)
C17_2 C 0.3837(5) 0.8514(2) 0.1061(4)
H11_2 H 0.389781 0.834534 0.061021
C18_2 C 0.2760(5) 0.8602(3) 0.1266(4)
H12_2 H 0.210555 0.848570 0.094210
C19_2 C 0.3575(4) 0.89845(19) 0.2369(3)
H13_2 H 0.350344 0.914206 0.282933
C20_2 C 0.4663(4) 0.89077(19) 0.2199(3)
H14_2 H 0.530911 0.901255 0.254424
C21_2 C 0.7862(5) 0.74926(18) 0.1281(3)
H15_2 H 0.786467 0.717391 0.139886
C22_2 C 0.8721(5) 0.95287(18) 0.2530(3)
H16_2 H 0.792903 0.950044 0.253096
C27_2 C 0.8810(5) 0.65038(19) 0.2564(3)
H25_2 H 0.930516 0.624839 0.256452
C28_2 C 0.8071(5) 0.8506(2) 0.3705(3)
H26_2 H 0.789888 0.832080 0.411236
N5_2 N 0.6974(3) 0.74100(14) 0.3199(2)
Co1_2 Co 0.60662(6) 0.79890(2) 0.80724(4)
O1_2 O 0.6063(4) 0.80368(15) 0.6872(2)
O2_2 O 0.7727(3) 0.77270(13) 0.8243(2)
O3_2 O 0.8558(3) 0.80660(14) 0.9365(2)
O4_2 O 0.6594(3) 0.86790(11) 0.81422(19)
O5_2 O 0.7046(3) 0.88564(12) 0.94077(19)
O6_2 O 0.5390(3) 0.73059(11) 0.78537(18)
O7_2 O 0.5311(3) 0.66261(11) 0.72312(18)
C1_2 C 0.6997(4) 0.89377(16) 0.8701(3)
C2_2 C 0.7498(4) 0.94025(17) 0.8490(3)
C3_2 C 0.8018(7) 0.9691(2) 0.9066(3)
H1_2 H 0.805752 0.960880 0.958992
C5_2 C 0.7958(5) 0.9960(2) 0.7578(3)
C6_2 C 0.7453(6) 0.9548(2) 0.7735(3)
H4_2 H 0.707476 0.936471 0.732501
C7_2 C 0.5841(4) 0.69691(16) 0.7554(3)
H5_2 H 0.664035 0.697660 0.757422
C8_2 C 0.8585(4) 0.78602(18) 0.8735(3)
C9_2 C 0.9781(4) 0.77563(18) 0.8545(3)
C13_2 C 0.9962(5) 0.73920(18) 0.8064(3)
H9_2 H 0.934883 0.720155 0.783987
H10_2 H 0.934615 0.881592 0.999667
Co8_2 Co 0.35169(6) 0.64876(2) 0.69973(4)
O25_2 O 0.5949(3) 0.78983(11) 0.92627(17)
O26_2 O 0.4259(3) 0.81128(11) 0.78480(19)
H27_2 H 0.618536 0.772007 0.666009
H28_2 H 0.530611 0.816352 0.660848
C24_3 C 0.5823(13) 0.6280(5) 0.0092(5)
H18_3 H 0.624931 0.646113 0.051184
H19_3 H 0.566388 0.597415 0.028232
H21_3 H 0.769287 0.661700 0.006981
H24_3 H 0.532527 0.764378 0.009481
O1_3 O 0.1063(4) 0.69632(15) 0.1872(2)
O2_3 O 0.2727(3) 0.72730(13) 0.3243(2)
O3_3 O 0.3558(3) 0.69340(14) 0.4365(2)
O4_3 O 0.1594(3) 0.63210(11) 0.31422(19)
O5_3 O 0.2046(3) 0.61436(12) 0.44077(19)
O8_3 O 0.3642(3) 0.64245(11) 0.58168(17)
O9_3 O 0.5286(3) 0.60094(11) 0.59051(17)
O10_3 O 0.1032(3) 0.65856(13) 0.56781(19)
O11_3 O 0.2607(3) 0.74024(12) 0.55965(19)
O12_3 O 0.3127(3) 0.72261(11) 0.68592(17)
O13_3 O 0.1834(3) 0.62867(12) 0.68406(18)
O14_3 O 0.4219(3) 0.58201(11) 0.72591(18)
O15_3 O 0.4167(4) 0.51146(16) 0.7781(3)
O16_3 O 0.6605(3) 0.59269(13) 0.82776(19)
O17_3 O 0.3440(3) 0.67070(11) 0.81372(18)
O18_3 O 0.2930(5) 0.60837(18) 0.8756(3)
O19_3 O 0.4273(3) 0.75064(12) 0.92038(18)
O22_3 O 0.2795(4) 0.85596(15) 0.7292(3)
N4_3 N 0.6500(8) 0.6233(3) 0.9470(4)
C1_3 C 0.1997(4) 0.60623(16) 0.3701(3)
C2_3 C 0.2498(4) 0.55975(17) 0.3490(3)
C3_3 C 0.3018(7) 0.5309(2) 0.4066(3)
H1_3 H 0.305752 0.539120 0.458992
C4_3 C 0.3488(8) 0.4891(2) 0.3868(3)
H2_3 H 0.380854 0.469011 0.426971
C5_3 C 0.2958(5) 0.5040(2) 0.2578(3)
H3_3 H 0.291444 0.495124 0.205644
C6_3 C 0.2453(6) 0.5452(2) 0.2735(3)
H4_3 H 0.207476 0.563529 0.232501
C7_3 C 0.0841(4) 0.80309(16) 0.2554(3)
H5_3 H 0.164035 0.802340 0.257422
C8_3 C 0.3585(4) 0.71398(18) 0.3735(3)
C9_3 C 0.4781(4) 0.72437(18) 0.3545(3)
C10_3 C 0.5703(5) 0.69628(19) 0.3864(3)
H6_3 H 0.560217 0.671906 0.420324
C11_3 C 0.6778(4) 0.70514(18) 0.3667(3)
H7_3 H 0.739313 0.685533 0.386684
C12_3 C 0.6058(4) 0.76880(18) 0.2916(3)
H8_3 H 0.617950 0.794462 0.260770
C13_3 C 0.4962(5) 0.76080(18) 0.3064(3)
H9_3 H 0.434883 0.779845 0.283987
C14_3 C 0.4434(4) 0.62014(17) 0.5540(3)
H10_3 H 0.434615 0.618408 0.499667
C15_3 C 0.0991(4) 0.64028(15) 0.6323(3)
H14_3 H 0.030911 0.598745 0.754424
C21_3 C 0.2862(5) 0.75074(18) 0.6281(3)
H15_3 H 0.286467 0.782609 0.639886
C22_3 C 0.3721(5) 0.54713(18) 0.7530(3)
H16_3 H 0.292903 0.549956 0.753096
C23_3 C 0.6096(6) 0.5999(3) 0.8833(3)
H17_3 H 0.535342 0.587493 0.879632
H20_3 H 0.510523 0.643567 0.989388
C25_3 C 0.7553(15) 0.6468(5) 0.9565(7)
H22_3 H 0.752996 0.670186 0.916306
H23_3 H 0.816401 0.624854 0.952838
C26_3 C 0.5185(4) 0.76794(17) 0.9553(3)
C27_3 C 0.3810(5) 0.84962(19) 0.7564(3)
H25_3 H 0.430516 0.875161 0.756452
C28_3 C 0.3071(5) 0.6494(2) 0.8705(3)
H26_3 H 0.289888 0.667920 0.911236
N7_2 N 0.7611(3) 0.61596(14) 0.6896(2)
H27_3 H 0.118536 0.727993 0.166009
H28_3 H 0.030611 0.683648 0.160848
C16_3 C 0.9810(4) 0.63187(17) 0.6535(3)
C17_3 C 0.8837(5) 0.6486(2) 0.6061(4)
H11_3 H 0.889781 0.665466 0.561021
C18_3 C 0.7760(5) 0.6398(3) 0.6266(4)
H12_3 H 0.710555 0.651430 0.594210
C19_3 C 0.8575(4) 0.60155(19) 0.7369(3)
H13_3 H 0.850344 0.585794 0.782933
C20_3 C 0.9663(4) 0.60923(19) 0.7199(3)
O1_4 O 0.3937(4) 0.19632(15) 0.3128(2)
O2_4 O 0.2273(3) 0.22730(13) 0.1757(2)
O3_4 O 0.1442(3) 0.19340(14) 0.0635(2)
O4_4 O 0.3406(3) 0.13210(11) 0.18578(19)
O5_4 O 0.2954(3) 0.11436(12) 0.05923(19)
C1_4 C 0.3003(4) 0.10623(16) 0.1299(3)
C2_4 C 0.2502(4) 0.05975(17) 0.1510(3)
C3_4 C 0.1982(7) 0.0309(2) 0.0934(3)
H1_4 H 0.194248 0.039120 0.041008
C5_4 C 0.2042(5) 0.0040(2) 0.2422(3)
C6_4 C 0.2547(6) 0.0452(2) 0.2265(3)
H4_4 H 0.292524 0.063529 0.267499
C7_4 C 0.4159(4) 0.30309(16) 0.2446(3)
H5_4 H 0.335965 0.302340 0.242578
C8_4 C 0.1415(4) 0.21398(18) 0.1265(3)
C9_4 C 0.0219(4) 0.22437(18) 0.1455(3)
C13_4 C 0.0038(5) 0.26080(18) 0.1936(3)
H9_4 H 0.065117 0.279845 0.216013
H10_4 H 0.065385 0.118408 0.000333
H27_4 H 0.381464 0.227993 0.333991
H28_4 H 0.469389 0.183648 0.339152
O8_4 O 0.1358(3) 0.14245(11) 0.91832(17)
O10_4 O 0.3968(3) 0.15856(13) 0.93219(19)
O11_4 O 0.2393(3) 0.24024(12) 0.94035(19)
O12_4 O 0.1873(3) 0.22261(11) 0.81408(17)
O13_4 O 0.3166(3) 0.12867(12) 0.81594(18)
O14_4 O 0.0781(3) 0.08201(11) 0.77409(18)
O15_4 O 0.0833(4) 0.01146(16) 0.7219(3)
O17_4 O 0.1560(3) 0.17070(11) 0.68628(18)
O18_4 O 0.2070(5) 0.10837(18) 0.6244(3)
O19_4 O 0.0727(3) 0.25064(12) 0.57962(18)
O22_4 O 0.2205(4) 0.35596(15) 0.7708(3)
N3_2 N 0.7389(3) 0.11596(14) 0.8104(2)
C14_4 C 0.0566(4) 0.12014(17) 0.9460(3)
C15_4 C 0.4009(4) 0.14028(15) 0.8677(3)
C16_4 C 0.5190(4) 0.13187(17) 0.8465(3)
C17_4 C 0.6163(5) 0.1486(2) 0.8939(4)
H11_4 H 0.610219 0.165466 0.938979
C18_4 C 0.7240(5) 0.1398(3) 0.8734(4)
H12_4 H 0.789445 0.151430 0.905790
C19_4 C 0.6425(4) 0.10155(19) 0.7631(3)
H13_4 H 0.649656 0.085794 0.717067
C20_4 C 0.5337(4) 0.10923(19) 0.7801(3)
H14_4 H 0.469089 0.098745 0.745576
C21_4 C 0.2138(5) 0.25074(18) 0.8719(3)
H15_4 H 0.213533 0.282609 0.860114
C22_4 C 0.1279(5) 0.04713(18) 0.7470(3)
H16_4 H 0.207097 0.049956 0.746904
C27_4 C 0.1190(5) 0.34962(19) 0.7436(3)
H25_4 H 0.069484 0.375161 0.743548
C28_4 C 0.1929(5) 0.1494(2) 0.6295(3)
H26_4 H 0.210112 0.167920 0.588764
C4_4 C 0.1512(8) 0.9891(2) 0.1132(3)
H2_4 H 0.119146 0.969011 0.073029
H3_4 H 0.208556 0.995124 0.294356
C10_4 C 0.9297(5) 0.19628(19) 0.1136(3)
H6_4 H 0.939783 0.171906 0.079676
C11_4 C 0.8222(4) 0.20514(18) 0.1333(3)
H7_4 H 0.760687 0.185533 0.113316
C12_4 C 0.8942(4) 0.26880(18) 0.2084(3)
H8_4 H 0.882050 0.294462 0.239230
O9_4 O 0.9714(3) 0.10094(11) 0.90949(17)
O16_4 O 0.8395(3) 0.09269(13) 0.67224(19)
N4_4 N 0.8500(8) 0.1233(3) 0.5530(4)
C23_4 C 0.8904(6) 0.0999(3) 0.6167(3)
H17_4 H 0.964658 0.087493 0.620368
C24_4 C 0.9177(13) 0.1280(5) 0.4908(5)
H18_4 H 0.875069 0.146113 0.448816
H19_4 H 0.933612 0.097415 0.471768
H20_4 H 0.989477 0.143567 0.510612
C25_4 C 0.7447(15) 0.1468(5) 0.5435(7)
H21_4 H 0.730713 0.161700 0.493019
H22_4 H 0.747004 0.170186 0.583694
H23_4 H 0.683599 0.124854 0.547162
C26_4 C 0.9815(4) 0.26794(17) 0.5447(3)
H24_4 H 0.967473 0.264378 0.490519
loop_
_geom_bond_atom_site_label_1
_geom_bond_atom_site_label_2
_geom_bond_site_symmetry_1
_geom_bond_site_symmetry_2
N3 C18 1_555 1_555
C17 C16 1_555 1_555
H11 C17 1_555 1_555
C18 C17 1_555 1_555
H12 C18 1_555 1_555
C19 N3 1_555 1_555
H13 C19 1_555 1_555
C20 C16 1_555 1_555
Co9 N3 1_555 1_555
C19 C20 1_555 1_555
Co13 O26 1_555 1_555
Co1 O1 1_555 1_555
Co2 O3 1_555 1_555
Co3 O8 1_555 1_555
Co9 O9 1_555 1_555
Co5 O12 1_555 1_555
O2 Co1 1_555 1_555
O3 C8 1_555 1_555
O4 Co1 1_555 1_555
O5 Co2 1_555 1_555
O6 Co1 1_555 1_555
O7 C7 1_555 1_555
O8 Co2 1_555 1_555
O9 C14 1_555 1_555
O10 Co2 1_555 1_555
O11 Co2 1_555 1_555
O12 Co3 1_555 1_555
O13 Co3 1_555 1_555
O14 Co3 1_555 1_555
O15 C22 1_555 1_555
O16 Co9 1_555 1_555
O17 Co3 1_555 1_555
O18 C28 1_555 1_555
O19 Co5 1_555 1_555
O20 C26 1_555 1_555
O21 Co5 1_555 1_555
O22 C27 1_555 1_555
N1 C11 1_555 1_555
N2 C4 1_555 1_555
N4 C23 1_555 1_555
C1 O4 1_555 1_555
C2 C1 1_555 1_555
C3 C2 1_555 1_555
H1 C3 1_555 1_555
C4 C3 1_555 1_555
H2 C4 1_555 1_555
C5 N2 1_555 1_555
H3 C5 1_555 1_555
C6 C2 1_555 1_555
H4 C6 1_555 1_555
C7 O6 1_555 1_555
H5 C7 1_555 1_555
C8 O2 1_555 1_555
C9 C8 1_555 1_555
C10 C9 1_555 1_555
H6 C10 1_555 1_555
C11 C10 1_555 1_555
H7 C11 1_555 1_555
C12 N1 1_555 1_555
H8 C12 1_555 1_555
C13 C9 1_555 1_555
H9 C13 1_555 1_555
C14 O8 1_555 1_555
H10 C14 1_555 1_555
C15 O10 1_555 1_555
C21 O11 1_555 1_555
H15 C21 1_555 1_555
C22 O14 1_555 1_555
H16 C22 1_555 1_555
C23 O16 1_555 1_555
H17 C23 1_555 1_555
C25 N4 1_555 1_555
H22 C25 1_555 1_555
H23 C25 1_555 1_555
C26 O19 1_555 1_555
C27 O21 1_555 1_555
H25 C27 1_555 1_555
C28 O17 1_555 1_555
H26 C28 1_555 1_555
Co6 O20 1_555 1_555
Co10 N2 1_555 1_555
Co11 O7 1_555 1_555
Co13 N1 1_555 1_555
O23 Co5 1_555 1_555
O24 Co3 1_555 1_555
O25 Co1 1_555 1_555
N5 Co5 1_555 1_555
N6 Co9 1_555 1_555
Co2 O25 1_555 1_555
Co9 O14 1_555 1_555
Co9 O24 1_555 1_555
Co5 O17 1_555 1_555
O5 C1 1_555 1_555
O12 C21 1_555 1_555
O13 C15 1_555 1_555
O21 Co6 1_555 1_555
C5 C6 1_555 1_555
C12 C13 1_555 1_555
Co6 O23 1_555 1_555
O1 H27 1_555 1_555
O1 H28 1_555 1_555
H18 C24 1_555 1_555
H19 C24 1_555 1_555
Co4 O9_2 1_555 1_555
O16_2 Co4 1_555 1_555
O20_2 C26_2 1_555 1_555
N4_2 C23_2 1_555 1_555
C23_2 O16_2 1_555 1_555
H17_2 C23_2 1_555 1_555
C24_2 N4_2 1_555 1_555
H18_2 C24_2 1_555 1_555
H19_2 C24_2 1_555 1_555
H20_2 C24_2 1_555 1_555
C25_2 N4_2 1_555 1_555
H21_2 C25_2 1_555 1_555
H22_2 C25_2 1_555 1_555
H23_2 C25_2 1_555 1_555
H24_2 C26_2 1_555 1_555
Co6_2 O20_2 1_555 1_555
Co7_2 O20_2 1_555 1_555
N6_2 Co4 1_555 1_555
N7 Co4 1_555 1_555
Co4 O24_2 1_555 1_555
Co6_2 O23_2 1_555 1_555
N1_2 C11_2 1_555 1_555
H6_2 C10_2 1_555 1_555
C11_2 C10_2 1_555 1_555
H7_2 C11_2 1_555 1_555
C12_2 N1_2 1_555 1_555
H8_2 C12_2 1_555 1_555
Co12 N1_2 1_555 1_555
N2_2 C4_2 1_555 1_555
H2_2 C4_2 1_555 1_555
Co11 N2_2 1_555 1_555
Co3_2 O8_2 1_555 1_555
Co5_2 O12_2 1_555 1_555
O8_2 Co2_2 1_555 1_555
O10_2 Co2_2 1_555 1_555
O11_2 Co2_2 1_555 1_555
O12_2 Co3_2 1_555 1_555
O13_2 Co3_2 1_555 1_555
O14_2 Co3_2 1_555 1_555
O15_2 C22_2 1_555 1_555
O17_2 Co3_2 1_555 1_555
O18_2 C28_2 1_555 1_555
O19_2 Co5_2 1_555 1_555
O21_2 Co5_2 1_555 1_555
O22_2 C27_2 1_555 1_555
N7 C18_2 1_555 1_555
C14_2 O8_2 1_555 1_555
C15_2 O10_2 1_555 1_555
C16_2 C15_2 1_555 1_555
C17_2 C16_2 1_555 1_555
H11_2 C17_2 1_555 1_555
C18_2 C17_2 1_555 1_555
H12_2 C18_2 1_555 1_555
C19_2 N7 1_555 1_555
H13_2 C19_2 1_555 1_555
C20_2 C16_2 1_555 1_555
H14_2 C20_2 1_555 1_555
C21_2 O11_2 1_555 1_555
H15_2 C21_2 1_555 1_555
C22_2 O14_2 1_555 1_555
H16_2 C22_2 1_555 1_555
C27_2 O21_2 1_555 1_555
H25_2 C27_2 1_555 1_555
C28_2 O17_2 1_555 1_555
H26_2 C28_2 1_555 1_555
N5_2 Co5_2 1_555 1_555
Co5_2 O17_2 1_555 1_555
O12_2 C21_2 1_555 1_555
O13_2 C15_2 1_555 1_555
C19_2 C20_2 1_555 1_555
Co1_2 O1_2 1_555 1_555
O2_2 Co1_2 1_555 1_555
O3_2 C8_2 1_555 1_555
O4_2 Co1_2 1_555 1_555
O6_2 Co1_2 1_555 1_555
O7_2 C7_2 1_555 1_555
C1_2 O4_2 1_555 1_555
C2_2 C1_2 1_555 1_555
C3_2 C2_2 1_555 1_555
H1_2 C3_2 1_555 1_555
C6_2 C2_2 1_555 1_555
H4_2 C6_2 1_555 1_555
C7_2 O6_2 1_555 1_555
H5_2 C7_2 1_555 1_555
C8_2 O2_2 1_555 1_555
C9_2 C8_2 1_555 1_555
C13_2 C9_2 1_555 1_555
H9_2 C13_2 1_555 1_555
Co8_2 O7_2 1_555 1_555
Co10 O7_2 1_555 1_555
Co12 O6_2 1_555 1_555
O25_2 Co1_2 1_555 1_555
O26_2 Co1_2 1_555 1_555
O5_2 C1_2 1_555 1_555
C5_2 C6_2 1_555 1_555
Co12 O26_2 1_555 1_555
O1_2 H27_2 1_555 1_555
O1_2 H28_2 1_555 1_555
H18_3 C24_3 1_555 1_555
H19_3 C24_3 1_555 1_555
Co6_2 O1_3 1_555 1_555
Co7_2 O3_3 1_555 1_555
Co8_2 O8_3 1_555 1_555
Co10 O9_3 1_555 1_555
Co12 O12_3 1_555 1_555
O2_3 Co6_2 1_555 1_555
O3_3 C8_3 1_555 1_555
O4_3 Co6_2 1_555 1_555
O5_3 Co7_2 1_555 1_555
O24_2 C7_3 1_555 1_555
O8_3 Co7_2 1_555 1_555
O9_3 C14_3 1_555 1_555
O10_3 Co7_2 1_555 1_555
O11_3 Co7_2 1_555 1_555
O12_3 Co8_2 1_555 1_555
O13_3 Co8_2 1_555 1_555
O14_3 Co8_2 1_555 1_555
O15_3 C22_3 1_555 1_555
O16_3 Co10 1_555 1_555
O17_3 Co8_2 1_555 1_555
O18_3 C28_3 1_555 1_555
O19_3 Co12 1_555 1_555
O25_2 C26_3 1_555 1_555
O22_3 C27_3 1_555 1_555
N5_2 C11_3 1_555 1_555
N6 C4_3 1_555 1_555
N4_3 C23_3 1_555 1_555
C1_3 O4_3 1_555 1_555
C2_3 C1_3 1_555 1_555
C3_3 C2_3 1_555 1_555
H1_3 C3_3 1_555 1_555
C4_3 C3_3 1_555 1_555
H2_3 C4_3 1_555 1_555
C5_3 N6 1_555 1_555
H3_3 C5_3 1_555 1_555
C6_3 C2_3 1_555 1_555
H4_3 C6_3 1_555 1_555
C7_3 O23_2 1_555 1_555
H5_3 C7_3 1_555 1_555
C8_3 O2_3 1_555 1_555
C9_3 C8_3 1_555 1_555
C10_3 C9_3 1_555 1_555
H6_3 C10_3 1_555 1_555
C11_3 C10_3 1_555 1_555
H7_3 C11_3 1_555 1_555
C12_3 N5_2 1_555 1_555
H8_3 C12_3 1_555 1_555
C13_3 C9_3 1_555 1_555
H9_3 C13_3 1_555 1_555
C14_3 O8_3 1_555 1_555
H10_3 C14_3 1_555 1_555
C15_3 O10_3 1_555 1_555
C21_3 O11_3 1_555 1_555
H15_3 C21_3 1_555 1_555
C22_3 O14_3 1_555 1_555
H16_3 C22_3 1_555 1_555
C23_3 O16_3 1_555 1_555
H17_3 C23_3 1_555 1_555
C25_3 N4_3 1_555 1_555
H22_3 C25_3 1_555 1_555
H23_3 C25_3 1_555 1_555
C26_3 O19_3 1_555 1_555
C27_3 O26_2 1_555 1_555
H25_3 C27_3 1_555 1_555
C28_3 O17_3 1_555 1_555
H26_3 C28_3 1_555 1_555
N7_2 Co10 1_555 1_555
Co10 O14_3 1_555 1_555
Co12 O17_3 1_555 1_555
O5_3 C1_3 1_555 1_555
O12_3 C21_3 1_555 1_555
O13_3 C15_3 1_555 1_555
C5_3 C6_3 1_555 1_555
C12_3 C13_3 1_555 1_555
O1_3 H27_3 1_555 1_555
O1_3 H28_3 1_555 1_555
N7_2 C18_3 1_555 1_555
C17_3 C16_3 1_555 1_555
H11_3 C17_3 1_555 1_555
C18_3 C17_3 1_555 1_555
H12_3 C18_3 1_555 1_555
C19_3 N7_2 1_555 1_555
H13_3 C19_3 1_555 1_555
C20_3 C16_3 1_555 1_555
C19_3 C20_3 1_555 1_555
Co6 O1_4 1_555 1_555
O2_4 Co6 1_555 1_555
O3_4 C8_4 1_555 1_555
O4_4 Co6 1_555 1_555
O24 C7_4 1_555 1_555
C1_4 O4_4 1_555 1_555
C2_4 C1_4 1_555 1_555
C3_4 C2_4 1_555 1_555
H1_4 C3_4 1_555 1_555
C6_4 C2_4 1_555 1_555
H4_4 C6_4 1_555 1_555
C7_4 O23 1_555 1_555
H5_4 C7_4 1_555 1_555
C8_4 O2_4 1_555 1_555
C9_4 C8_4 1_555 1_555
C13_4 C9_4 1_555 1_555
H9_4 C13_4 1_555 1_555
O5_4 C1_4 1_555 1_555
C5_4 C6_4 1_555 1_555
O1_4 H27_4 1_555 1_555
O1_4 H28_4 1_555 1_555
Co8 O8_4 1_555 1_555
Co13 O12_4 1_555 1_555
O8_4 Co7 1_555 1_555
O10_4 Co7 1_555 1_555
O11_4 Co7 1_555 1_555
O12_4 Co8 1_555 1_555
O13_4 Co8 1_555 1_555
O14_4 Co8 1_555 1_555
O15_4 C22_4 1_555 1_555
O17_4 Co8 1_555 1_555
O18_4 C28_4 1_555 1_555
O19_4 Co13 1_555 1_555
O22_4 C27_4 1_555 1_555
N3_2 C18_4 1_555 1_555
C14_4 O8_4 1_555 1_555
C15_4 O10_4 1_555 1_555
C16_4 C15_4 1_555 1_555
C17_4 C16_4 1_555 1_555
H11_4 C17_4 1_555 1_555
C18_4 C17_4 1_555 1_555
H12_4 C18_4 1_555 1_555
C19_4 N3_2 1_555 1_555
H13_4 C19_4 1_555 1_555
C20_4 C16_4 1_555 1_555
H14_4 C20_4 1_555 1_555
C21_4 O11_4 1_555 1_555
H15_4 C21_4 1_555 1_555
C22_4 O14_4 1_555 1_555
H16_4 C22_4 1_555 1_555
C27_4 O26 1_555 1_555
H25_4 C27_4 1_555 1_555
C28_4 O17_4 1_555 1_555
H26_4 C28_4 1_555 1_555
Co11 N3_2 1_555 1_555
Co13 O17_4 1_555 1_555
O12_4 C21_4 1_555 1_555
O13_4 C15_4 1_555 1_555
C19_4 C20_4 1_555 1_555
N6_2 C4_4 1_555 1_555
H2_4 C4_4 1_555 1_555
N5 C11_4 1_555 1_555
H6_4 C10_4 1_555 1_555
C11_4 C10_4 1_555 1_555
H7_4 C11_4 1_555 1_555
C12_4 N5 1_555 1_555
H8_4 C12_4 1_555 1_555
Co11 O9_4 1_555 1_555
O16_4 Co11 1_555 1_555
O25 C26_4 1_555 1_555
N4_4 C23_4 1_555 1_555
C23_4 O16_4 1_555 1_555
H17_4 C23_4 1_555 1_555
C24_4 N4_4 1_555 1_555
H18_4 C24_4 1_555 1_555
H19_4 C24_4 1_555 1_555
H20_4 C24_4 1_555 1_555
C25_4 N4_4 1_555 1_555
H21_4 C25_4 1_555 1_555
H22_4 C25_4 1_555 1_555
H23_4 C25_4 1_555 1_555
H24_4 C26_4 1_555 1_555

#END
