
###############################################################################
#
# This file contains modified crystal structure data generated from the
# MOF subset of the Cambridge Structural Database (CSD) v543 
# hosted by the Cambridge Crystallographic Data Centre (CCDC).
#
# This work is licensed under the Creative Commons
# Attribution-NonCommercial-ShareAlike 4.0 International License.
# To view a copy of this license, visit
# http://creativecommons.org/licenses/by-nc-sa/4.0/
# or send a letter to
# Creative Commons, PO Box 1866, Mountain View, CA 94042, USA.
#
# CIF created using the CSD Python API on 29 September 2022
# The structure has been converted into the P1 space group
# The structure has a 3D framework
# The original CSD entry KOQLUZ is in the monoclinic crystal system
# The framework has been calculated to contain at least 10.0% void space
# The void calculation uses a probe of radius 1.32A, grid spacing 0.4
#
###############################################################################

data_KOQLUZ
_chemical_formula_moiety         '(C48 H40 Cu7 N16 O160 Si6 W48)n'
_symmetry_cell_setting           triclinic
_symmetry_space_group_name_H-M   'P 1'
_symmetry_Int_Tables_number      1
_space_group_name_Hall           'P 1'
loop_
_symmetry_equiv_pos_site_id
_symmetry_equiv_pos_as_xyz
1 x,y,z
_cell_length_a                   24.737(5)
_cell_length_b                   10.601(5)
_cell_length_c                   20.038(5)
_cell_angle_alpha                90
_cell_angle_beta                 99.405(5)
_cell_angle_gamma                90
_cell_volume                     5184.07
loop_
_atom_site_label
_atom_site_type_symbol
_atom_site_fract_x
_atom_site_fract_y
_atom_site_fract_z
Cu2 Cu -0.0000 -0.0000 0.5000
Cu4 Cu 0.0000 0.0000 0.0000
Cu4_2 Cu -0.0000 0.0000 1.0000
C2 C 0.1517(7) 0.0158(14) 0.4443(8)
H2 H 0.1783 0.0553 0.4238
C3 C 0.1026(6) 0.0590(17) 0.4487(7)
H3 H 0.0890 0.1364 0.4316
O3 O 0.0370(4) 0.8565(9) 0.0819(5)
O4 O 0.0550(4) 0.7769(10) 0.2180(5)
O5 O 0.0681(4) 0.6070(10) 0.1293(4)
O8 O 0.1533(4) 0.8394(10) 0.3074(5)
O9 O 0.1268(4) 0.6000(9) 0.2488(5)
O10 O 0.1768(4) 0.5188(9) 0.1411(5)
O11 O 0.0864(3) 0.3527(9) 0.1156(4)
O12 O 0.1483(3) 0.3605(9) 0.2377(4)
O16 O 0.1499(4) 0.1616(10) 0.3241(5)
O17 O 0.0364(4) 0.2210(9) 0.3227(4)
O19 O 0.0199(3) 0.3923(9) 0.4082(4)
Si1 Si -0.0000 0.4979(5) 0.2500
W1 W 0.01464(2) 0.74051(6) 0.13230(3)
W2 W 0.10168(2) 0.72897(6) 0.30128(3)
W3 W 0.11849(2) 0.48828(5) 0.17177(3)
W5 W 0.10336(2) 0.26986(6) 0.28945(3)
O21 O 0.0452(4) 0.4119(9) 0.2225(4)
O22 O 0.0299(3) 0.5871(9) 0.3118(4)
O26 O 0.0319(3) 0.6445(9) 0.4373(4)
O27 O 0.0490(4) 0.8168(9) 0.3467(4)
O33 O 0.1138(4) 0.4799(10) 0.4919(5)
O34 O 0.1239(3) 0.6392(9) 0.3831(4)
O35 O 0.1106(3) 0.3932(9) 0.3581(4)
O38 O 0.0735(4) 0.1790(9) 0.2065(4)
O40 O 0.0183(4) 0.1437(10) 0.0739(5)
W10 W 0.07682(2) 0.51137(6) 0.41477(3)
W12 W 0.02440(2) 0.25840(6) 0.13669(3)
O42 O 0.0370(4) 0.1435(9) 0.5819(5)
Cu2_2 Cu -0.0000 1.0000 0.5000
Cu4_3 Cu 0.0000 1.0000 0.0000
Cu4_4 Cu -0.0000 1.0000 1.0000
C1 C 0.1075(6) 0.8803(14) 0.4964(7)
H1 H 0.0985 0.8079 0.5184
C4 C 0.2429(6) 0.8339(14) 0.4475(7)
H4 H 0.2376 0.8912 0.4119
C5 C 0.2100(6) 0.7334(14) 0.5402(7)
H5 H 0.1831 0.7226 0.5671
N1 N 0.0740(5) 0.9756(11) 0.4816(6)
N2 N 0.1558(5) 0.8979(12) 0.4767(5)
C6 C 0.2026(5) 0.8186(13) 0.4872(6)
C7 C 0.3925(6) 0.6197(14) 0.5036(7)
H6 H 0.4015 0.6921 0.4816
C8 C 0.3483(7) 0.4842(14) 0.5557(8)
H7 H 0.3217 0.4447 0.5762
C9 C 0.3974(6) 0.4410(17) 0.5513(7)
H8 H 0.4110 0.3636 0.5684
C10 C 0.2571(6) 0.6661(14) 0.5525(7)
H9 H 0.2624 0.6088 0.5881
C11 C 0.2900(6) 0.7666(14) 0.4598(7)
H10 H 0.3169 0.7774 0.4329
N3 N 0.4260(5) 0.5244(11) 0.5184(6)
N4 N 0.3442(5) 0.6021(12) 0.5233(5)
C12 C 0.2974(5) 0.6814(13) 0.5128(6)
O43 O 0.0183(4) 0.8563(10) 0.5739(5)
Cu5 Cu 0.5000 0.5000 0.5000
Cu2_3 Cu 1.0000 -0.0000 0.5000
Cu4_5 Cu 1.0000 0.0000 0.0000
Cu4_6 Cu 1.0000 0.0000 1.0000
O1 O 0.9548(4) 0.4119(9) 0.2775(4)
O2 O 0.9701(3) 0.5871(9) 0.1882(4)
O6 O 0.9681(3) 0.6445(9) 0.0627(4)
O7 O 0.9510(4) 0.8168(9) 0.1533(4)
O13 O 0.8862(4) 0.4799(10) 0.0081(5)
O14 O 0.8761(3) 0.6392(9) 0.1169(4)
O15 O 0.8894(3) 0.3932(9) 0.1419(4)
O18 O 0.9265(4) 0.1790(9) 0.2935(4)
O20 O 0.9817(4) 0.1437(10) 0.4261(5)
Si1_2 Si 1.0000 0.4979(5) 0.2500
W4 W 0.92318(2) 0.51137(6) 0.08523(3)
W6 W 0.97560(2) 0.25840(6) 0.36331(3)
O23 O 0.9630(4) 0.8565(9) 0.4181(5)
O24 O 0.9450(4) 0.7769(10) 0.2820(5)
O25 O 0.9319(4) 0.6070(10) 0.3707(4)
O28 O 0.8467(4) 0.8394(10) 0.1926(5)
O29 O 0.8732(4) 0.6000(9) 0.2512(5)
O30 O 0.8232(4) 0.5188(9) 0.3589(5)
O31 O 0.9136(3) 0.3527(9) 0.3844(4)
O32 O 0.8517(3) 0.3605(9) 0.2623(4)
O36 O 0.8501(4) 0.1616(10) 0.1759(5)
O37 O 0.9636(4) 0.2210(9) 0.1773(4)
O39 O 0.9801(3) 0.3923(9) 0.0918(4)
W7 W 0.98536(2) 0.74051(6) 0.36770(3)
W8 W 0.89832(2) 0.72897(6) 0.19872(3)
W9 W 0.88151(2) 0.48828(5) 0.32823(3)
W11 W 0.89664(2) 0.26986(6) 0.21055(3)
N5 N 0.9260(5) 0.0244(11) 0.5184(6)
Cu2_4 Cu 1.0000 1.0000 0.5000
Cu4_7 Cu 1.0000 1.0000 0.0000
Cu4_8 Cu 1.0000 1.0000 1.0000
N5_2 N 0.0740(5) 0.0244(11) 0.9816(6)
C2_2 C 0.8483(7) 0.0158(14) 0.0557(8)
H2_2 H 0.8217 0.0553 0.0762
C3_2 C 0.8974(6) 0.0590(17) 0.0513(7)
H3_2 H 0.9110 0.1364 0.0684
O42_2 O 0.9630(4) 0.1435(9) 0.9181(5)
C1_2 C 0.8925(6) 0.8803(14) 0.0036(7)
C4_2 C 0.7571(6) 0.8339(14) 0.0525(7)
H4_2 H 0.7624 0.8912 0.0881
N1_2 N 0.9260(5) 0.9756(11) 0.0184(6)
N2_2 N 0.8442(5) 0.8979(12) 0.0233(5)
C6_2 C 0.7974(5) 0.8186(13) 0.0128(6)
H6_2 H 0.5985 0.6921 0.0184
C11_2 C 0.7100(6) 0.7666(14) 0.0402(7)
H10_2 H 0.6831 0.7774 0.0671
Cu5_2 Cu 0.5000 0.5000 -0.0000
H1_2 H 0.9015 0.8079 0.9816
C5_2 C 0.7900(6) 0.7334(14) 0.9598(7)
H5_2 H 0.8169 0.7226 0.9329
C7_2 C 0.6075(6) 0.6197(14) 0.9964(7)
C8_2 C 0.6517(7) 0.4842(14) 0.9443(8)
H7_2 H 0.6783 0.4447 0.9238
C9_2 C 0.6026(6) 0.4410(17) 0.9487(7)
H8_2 H 0.5890 0.3636 0.9316
C10_2 C 0.7429(6) 0.6661(14) 0.9475(7)
H9_2 H 0.7376 0.6088 0.9119
N3_2 N 0.5740(5) 0.5244(11) 0.9816(6)
N4_2 N 0.6558(5) 0.6021(12) 0.9767(5)
C12_2 C 0.7026(5) 0.6814(13) 0.9872(6)
O43_2 O 0.9817(4) 0.8563(10) 0.9261(5)
Cu5_3 Cu 0.5000 0.5000 1.0000
O2_2 O 0.4701(3) 0.0871(9) 0.1882(4)
O3_2 O 0.5370(4) 0.3565(9) 0.0819(5)
O4_2 O 0.5550(4) 0.2769(10) 0.2180(5)
O5_2 O 0.5681(4) 0.1070(10) 0.1293(4)
O6_2 O 0.4681(3) 0.1445(9) 0.0627(4)
O7_2 O 0.4510(4) 0.3168(9) 0.1533(4)
O8_2 O 0.6533(4) 0.3394(10) 0.3074(5)
O9_2 O 0.6268(4) 0.1000(9) 0.2488(5)
O10_2 O 0.6768(4) 0.0188(9) 0.1411(5)
O14_2 O 0.3761(3) 0.1392(9) 0.1169(4)
W1_2 W 0.51464(2) 0.24051(6) 0.13230(3)
W2_2 W 0.60168(2) 0.22897(6) 0.30128(3)
W4_2 W 0.42318(2) 0.01137(6) 0.08523(3)
O22_2 O 0.5299(3) 0.0871(9) 0.3118(4)
O23_2 O 0.4630(4) 0.3565(9) 0.4181(5)
O24_2 O 0.4450(4) 0.2769(10) 0.2820(5)
O25_2 O 0.4319(4) 0.1070(10) 0.3707(4)
O26_2 O 0.5319(3) 0.1445(9) 0.4373(4)
O27_2 O 0.5490(4) 0.3168(9) 0.3467(4)
O28_2 O 0.3467(4) 0.3394(10) 0.1926(5)
O29_2 O 0.3732(4) 0.1000(9) 0.2512(5)
O30_2 O 0.3232(4) 0.0188(9) 0.3589(5)
O34_2 O 0.6239(3) 0.1392(9) 0.3831(4)
W7_2 W 0.48536(2) 0.24051(6) 0.36770(3)
W8_2 W 0.39832(2) 0.22897(6) 0.19872(3)
W10_2 W 0.57682(2) 0.01137(6) 0.41477(3)
C1_3 C 0.6075(6) 0.3803(14) 0.4964(7)
H1_3 H 0.5985 0.3079 0.5184
C2_3 C 0.6517(7) 0.5158(14) 0.4443(8)
H2_3 H 0.6783 0.5553 0.4238
C3_3 C 0.6026(6) 0.5590(17) 0.4487(7)
H3_3 H 0.5890 0.6364 0.4316
C4_3 C 0.7429(6) 0.3339(14) 0.4475(7)
H4_3 H 0.7376 0.3912 0.4119
C5_3 C 0.7100(6) 0.2334(14) 0.5402(7)
H5_3 H 0.6831 0.2226 0.5671
N1_3 N 0.5740(5) 0.4756(11) 0.4816(6)
N2_3 N 0.6558(5) 0.3979(12) 0.4767(5)
O1_2 O 0.4548(4) 0.9119(9) 0.2775(4)
O11_2 O 0.5864(3) 0.8527(9) 0.1156(4)
O12_2 O 0.6483(3) 0.8605(9) 0.2377(4)
O13_2 O 0.3862(4) 0.9799(10) 0.0081(5)
O15_2 O 0.3894(3) 0.8932(9) 0.1419(4)
O16_2 O 0.6499(4) 0.6616(10) 0.3241(5)
O17_2 O 0.5364(4) 0.7210(9) 0.3227(4)
O18_2 O 0.4265(4) 0.6790(9) 0.2935(4)
O19_2 O 0.5199(3) 0.8923(9) 0.4082(4)
O20_2 O 0.4817(4) 0.6437(10) 0.4261(5)
Si1_3 Si 0.5000 0.9979(5) 0.2500
W3_2 W 0.61849(2) 0.98828(5) 0.17177(3)
W5_2 W 0.60336(2) 0.76986(6) 0.28945(3)
W6_2 W 0.47560(2) 0.75840(6) 0.36331(3)
C6_3 C 0.7026(5) 0.3186(13) 0.4872(6)
C7_3 C 0.8925(6) 0.1197(14) 0.5036(7)
H6_3 H 0.9015 0.1921 0.4816
C10_3 C 0.7571(6) 0.1661(14) 0.5525(7)
H9_3 H 0.7624 0.1088 0.5881
C11_3 C 0.7900(6) 0.2666(14) 0.4598(7)
H10_3 H 0.8169 0.2774 0.4329
N4_3 N 0.8442(5) 0.1021(12) 0.5233(5)
C12_3 C 0.7974(5) 0.1814(13) 0.5128(6)
O21_2 O 0.5452(4) 0.9119(9) 0.2225(4)
O31_2 O 0.4136(3) 0.8527(9) 0.3844(4)
O32_2 O 0.3517(3) 0.8605(9) 0.2623(4)
O33_2 O 0.6138(4) 0.9799(10) 0.4919(5)
O35_2 O 0.6106(3) 0.8932(9) 0.3581(4)
O36_2 O 0.3501(4) 0.6616(10) 0.1759(5)
O37_2 O 0.4636(4) 0.7210(9) 0.1773(4)
O38_2 O 0.5735(4) 0.6790(9) 0.2065(4)
O39_2 O 0.4801(3) 0.8923(9) 0.0918(4)
O40_2 O 0.5183(4) 0.6437(10) 0.0739(5)
W9_2 W 0.38151(2) 0.98828(5) 0.32823(3)
W11_2 W 0.39664(2) 0.76986(6) 0.21055(3)
W12_2 W 0.52440(2) 0.75840(6) 0.13669(3)
O42_3 O 0.5370(4) 0.6435(9) 0.5819(5)
O43_3 O 0.5183(4) 0.3563(10) 0.5739(5)
C8_3 C 0.8483(7) 0.9842(14) 0.5557(8)
H7_3 H 0.8217 0.9447 0.5762
C9_3 C 0.8974(6) 0.9410(17) 0.5513(7)
H8_3 H 0.9110 0.8636 0.5684
C1_4 C 0.3925(6) 0.3803(14) 0.0036(7)
C2_4 C 0.3483(7) 0.5158(14) 0.0557(8)
H2_4 H 0.3217 0.5553 0.0762
C3_4 C 0.3974(6) 0.5590(17) 0.0513(7)
H3_4 H 0.4110 0.6364 0.0684
C4_4 C 0.2571(6) 0.3339(14) 0.0525(7)
H4_4 H 0.2624 0.3912 0.0881
N1_4 N 0.4260(5) 0.4756(11) 0.0184(6)
N2_4 N 0.3442(5) 0.3979(12) 0.0233(5)
C6_4 C 0.2974(5) 0.3186(13) 0.0128(6)
H6_4 H 0.0985 0.1921 0.0184
C11_4 C 0.2100(6) 0.2666(14) 0.0402(7)
H10_4 H 0.1831 0.2774 0.0671
H1_4 H 0.4015 0.3079 0.9816
C5_4 C 0.2900(6) 0.2334(14) 0.9598(7)
H5_4 H 0.3169 0.2226 0.9329
C7_4 C 0.1075(6) 0.1197(14) 0.9964(7)
C10_4 C 0.2429(6) 0.1661(14) 0.9475(7)
H9_4 H 0.2376 0.1088 0.9119
N4_4 N 0.1558(5) 0.1021(12) 0.9767(5)
C12_4 C 0.2026(5) 0.1814(13) 0.9872(6)
O42_4 O 0.4630(4) 0.6435(9) 0.9181(5)
O43_4 O 0.4817(4) 0.3563(10) 0.9261(5)
C8_4 C 0.1517(7) 0.9842(14) 0.9443(8)
H7_4 H 0.1783 0.9447 0.9238
C9_4 C 0.1026(6) 0.9410(17) 0.9487(7)
H8_4 H 0.0890 0.8636 0.9316
O1_3 O 0.0452(4) 0.5881(9) 0.7225(4)
O2_3 O 0.0299(3) 0.4129(9) 0.8118(4)
O6_3 O 0.0319(3) 0.3555(9) 0.9373(4)
O7_3 O 0.0490(4) 0.1832(9) 0.8467(4)
O13_3 O 0.1138(4) 0.5201(10) 0.9919(5)
O14_3 O 0.1239(3) 0.3608(9) 0.8831(4)
O15_3 O 0.1106(3) 0.6068(9) 0.8581(4)
O18_3 O 0.0735(4) 0.8210(9) 0.7065(4)
Si1_4 Si 0.0000 0.5021(5) 0.7500
W4_3 W 0.07682(2) 0.48863(6) 0.91477(3)
W6_3 W 0.02440(2) 0.74160(6) 0.63669(3)
O24_3 O 0.0550(4) 0.2231(10) 0.7180(5)
O25_3 O 0.0681(4) 0.3930(10) 0.6293(4)
O28_3 O 0.1533(4) 0.1606(10) 0.8074(5)
O29_3 O 0.1268(4) 0.4000(9) 0.7488(5)
O30_3 O 0.1768(4) 0.4812(9) 0.6411(5)
O31_3 O 0.0864(3) 0.6473(9) 0.6156(4)
O32_3 O 0.1483(3) 0.6395(9) 0.7377(4)
O36_3 O 0.1499(4) 0.8384(10) 0.8241(5)
O37_3 O 0.0364(4) 0.7790(9) 0.8227(4)
O39_3 O 0.0199(3) 0.6077(9) 0.9082(4)
W7_3 W 0.01464(2) 0.25949(6) 0.63230(3)
W8_3 W 0.10168(2) 0.27103(6) 0.80128(3)
W9_3 W 0.11849(2) 0.51172(5) 0.67177(3)
W11_3 W 0.10336(2) 0.73014(6) 0.78945(3)
O4_3 O 0.9450(4) 0.2231(10) 0.7820(5)
O5_3 O 0.9319(4) 0.3930(10) 0.8707(4)
O8_3 O 0.8467(4) 0.1606(10) 0.6926(5)
O9_3 O 0.8732(4) 0.4000(9) 0.7512(5)
O10_3 O 0.8232(4) 0.4812(9) 0.8589(5)
O11_3 O 0.9136(3) 0.6473(9) 0.8844(4)
O12_3 O 0.8517(3) 0.6395(9) 0.7623(4)
O16_3 O 0.8501(4) 0.8384(10) 0.6759(5)
O17_3 O 0.9636(4) 0.7790(9) 0.6773(4)
O19_3 O 0.9801(3) 0.6077(9) 0.5918(4)
Si1_5 Si 1.0000 0.5021(5) 0.7500
W1_3 W 0.98536(2) 0.25949(6) 0.86770(3)
W2_3 W 0.89832(2) 0.27103(6) 0.69872(3)
W3_3 W 0.88151(2) 0.51172(5) 0.82823(3)
W5_3 W 0.89664(2) 0.73014(6) 0.71055(3)
O21_3 O 0.9548(4) 0.5881(9) 0.7775(4)
O22_3 O 0.9701(3) 0.4129(9) 0.6882(4)
O26_3 O 0.9681(3) 0.3555(9) 0.5627(4)
O27_3 O 0.9510(4) 0.1832(9) 0.6533(4)
O33_3 O 0.8862(4) 0.5201(10) 0.5081(5)
O34_3 O 0.8761(3) 0.3608(9) 0.6169(4)
O35_3 O 0.8894(3) 0.6068(9) 0.6419(4)
O38_3 O 0.9265(4) 0.8210(9) 0.7935(4)
W10_3 W 0.92318(2) 0.48863(6) 0.58523(3)
W12_3 W 0.97560(2) 0.74160(6) 0.86331(3)
O1_4 O 0.5452(4) 0.0881(9) 0.7225(4)
O11_4 O 0.4136(3) 0.1473(9) 0.8844(4)
O12_4 O 0.3517(3) 0.1395(9) 0.7623(4)
O13_4 O 0.6138(4) 0.0201(10) 0.9919(5)
O15_4 O 0.6106(3) 0.1068(9) 0.8581(4)
O16_4 O 0.3501(4) 0.3384(10) 0.6759(5)
O17_4 O 0.4636(4) 0.2790(9) 0.6773(4)
O18_4 O 0.5735(4) 0.3210(9) 0.7065(4)
O19_4 O 0.4801(3) 0.1077(9) 0.5918(4)
Si1_6 Si 0.5000 0.0021(5) 0.7500
W3_4 W 0.38151(2) 0.01172(5) 0.82823(3)
W5_4 W 0.39664(2) 0.23014(6) 0.71055(3)
W6_4 W 0.52440(2) 0.24160(6) 0.63669(3)
O21_4 O 0.4548(4) 0.0881(9) 0.7775(4)
O31_4 O 0.5864(3) 0.1473(9) 0.6156(4)
O32_4 O 0.6483(3) 0.1395(9) 0.7377(4)
O33_4 O 0.3862(4) 0.0201(10) 0.5081(5)
O35_4 O 0.3894(3) 0.1068(9) 0.6419(4)
O36_4 O 0.6499(4) 0.3384(10) 0.8241(5)
O37_4 O 0.5364(4) 0.2790(9) 0.8227(4)
O38_4 O 0.4265(4) 0.3210(9) 0.7935(4)
O39_4 O 0.5199(3) 0.1077(9) 0.9082(4)
W9_4 W 0.61849(2) 0.01172(5) 0.67177(3)
W11_4 W 0.60336(2) 0.23014(6) 0.78945(3)
W12_4 W 0.47560(2) 0.24160(6) 0.86331(3)
O2_4 O 0.5299(3) 0.9129(9) 0.8118(4)
O4_4 O 0.4450(4) 0.7231(10) 0.7820(5)
O5_4 O 0.4319(4) 0.8930(10) 0.8707(4)
O6_4 O 0.5319(3) 0.8555(9) 0.9373(4)
O7_4 O 0.5490(4) 0.6832(9) 0.8467(4)
O8_4 O 0.3467(4) 0.6606(10) 0.6926(5)
O9_4 O 0.3732(4) 0.9000(9) 0.7512(5)
O10_4 O 0.3232(4) 0.9812(9) 0.8589(5)
O14_4 O 0.6239(3) 0.8608(9) 0.8831(4)
W1_4 W 0.48536(2) 0.75949(6) 0.86770(3)
W2_4 W 0.39832(2) 0.77103(6) 0.69872(3)
W4_4 W 0.57682(2) 0.98863(6) 0.91477(3)
O22_4 O 0.4701(3) 0.9129(9) 0.6882(4)
O24_4 O 0.5550(4) 0.7231(10) 0.7180(5)
O25_4 O 0.5681(4) 0.8930(10) 0.6293(4)
O26_4 O 0.4681(3) 0.8555(9) 0.5627(4)
O27_4 O 0.4510(4) 0.6832(9) 0.6533(4)
O28_4 O 0.6533(4) 0.6606(10) 0.8074(5)
O29_4 O 0.6268(4) 0.9000(9) 0.7488(5)
O30_4 O 0.6768(4) 0.9812(9) 0.6411(5)
O34_4 O 0.3761(3) 0.8608(9) 0.6169(4)
W7_4 W 0.51464(2) 0.75949(6) 0.63230(3)
W8_4 W 0.60168(2) 0.77103(6) 0.80128(3)
W10_4 W 0.42318(2) 0.98863(6) 0.58523(3)
loop_
_geom_bond_atom_site_label_1
_geom_bond_atom_site_label_2
_geom_bond_site_symmetry_1
_geom_bond_site_symmetry_2
C2 H2 1_555 1_555
C3 C2 1_555 1_555
H3 C3 1_555 1_555
O3 W1 1_555 1_555
O4 W1 1_555 1_555
O5 W1 1_555 1_555
O8 W2 1_555 1_555
O9 W2 1_555 1_555
O10 W3 1_555 1_555
O11 W3 1_555 1_555
O12 W3 1_555 1_555
O16 W5 1_555 1_555
O17 W5 1_555 1_555
Si1 O21 1_555 1_555
W2 O4 1_555 1_555
W3 O5 1_555 1_555
W5 O12 1_555 1_555
O21 W3 1_555 1_555
O22 Si1 1_555 1_555
O27 W2 1_555 1_555
O33 W10 1_555 1_555
O34 W2 1_555 1_555
O35 W5 1_555 1_555
O38 W5 1_555 1_555
O40 W12 1_555 1_555
W10 O19 1_555 1_555
W12 O11 1_555 1_555
O42 Cu2 1_555 1_555
Cu4 O40 1_555 1_555
Cu4_3 O3 1_555 1_555
O9 W3 1_555 1_555
W2 O22 1_555 1_555
W5 O21 1_555 1_555
O21 W12 1_555 1_555
O22 W10 1_555 1_555
O26 W10 1_555 1_555
O34 W10 1_555 1_555
O35 W10 1_555 1_555
O38 W12 1_555 1_555
C1 H1 1_555 1_555
C4 H4 1_555 1_555
C5 H5 1_555 1_555
N1 C1 1_555 1_555
N2 C1 1_555 1_555
Cu2_2 N1 1_555 1_555
C6 C4 1_555 1_555
C7 H6 1_555 1_555
C8 H7 1_555 1_555
C9 C8 1_555 1_555
H8 C9 1_555 1_555
C10 C5 1_555 1_555
H9 C10 1_555 1_555
C11 C4 1_555 1_555
H10 C11 1_555 1_555
N3 C7 1_555 1_555
N4 C7 1_555 1_555
C12 C10 1_555 1_555
O43 Cu2_2 1_555 1_555
Cu5 N3 1_555 1_555
C5 C6 1_555 1_555
N2 C6 1_555 1_555
C8 N4 1_555 1_555
C9 N3 1_555 1_555
C11 C12 1_555 1_555
N4 C12 1_555 1_555
O1 Si1_2 1_555 1_555
O2 Si1_2 1_555 1_555
O13 W4 1_555 1_555
O14 W4 1_555 1_555
O15 W4 1_555 1_555
O18 W6 1_555 1_555
O20 Cu2_3 1_555 1_555
W4 O2 1_555 1_555
W6 O1 1_555 1_555
O23 W7 1_555 1_555
O24 W7 1_555 1_555
O25 W7 1_555 1_555
O28 W8 1_555 1_555
O29 W8 1_555 1_555
O30 W9 1_555 1_555
O31 W6 1_555 1_555
O32 W9 1_555 1_555
O36 W11 1_555 1_555
O37 W11 1_555 1_555
O39 W4 1_555 1_555
W8 O2 1_555 1_555
W9 O1 1_555 1_555
W11 O1 1_555 1_555
N5 Cu2_3 1_555 1_555
Cu2_4 O23 1_555 1_555
O6 W4 1_555 1_555
O7 W8 1_555 1_555
O14 W8 1_555 1_555
O15 W11 1_555 1_555
O18 W11 1_555 1_555
O20 W6 1_555 1_555
O24 W8 1_555 1_555
O25 W9 1_555 1_555
O29 W9 1_555 1_555
O31 W9 1_555 1_555
O32 W11 1_555 1_555
N5_2 Cu4_2 1_555 1_555
C2_2 H2_2 1_555 1_555
C3_2 C2_2 1_555 1_555
H3_2 C3_2 1_555 1_555
O42_2 Cu4_6 1_555 1_555
C4_2 H4_2 1_555 1_555
N1_2 C1_2 1_555 1_555
N2_2 C1_2 1_555 1_555
Cu4_7 N1_2 1_555 1_555
C6_2 C4_2 1_555 1_555
C11_2 C4_2 1_555 1_555
H10_2 C11_2 1_555 1_555
N2_2 C6_2 1_555 1_555
C5_2 H5_2 1_555 1_555
C8_2 H7_2 1_555 1_555
C9_2 C8_2 1_555 1_555
H8_2 C9_2 1_555 1_555
C10_2 C5_2 1_555 1_555
H9_2 C10_2 1_555 1_555
N3_2 C7_2 1_555 1_555
N4_2 C7_2 1_555 1_555
C12_2 C10_2 1_555 1_555
O43_2 Cu4_8 1_555 1_555
Cu5_3 N3_2 1_555 1_555
C8_2 N4_2 1_555 1_555
C9_2 N3_2 1_555 1_555
N4_2 C12_2 1_555 1_555
O3_2 W1_2 1_555 1_555
O4_2 W1_2 1_555 1_555
O5_2 W1_2 1_555 1_555
O6_2 W1_2 1_555 1_555
O7_2 W1_2 1_555 1_555
O8_2 W2_2 1_555 1_555
O9_2 W2_2 1_555 1_555
O14_2 W4_2 1_555 1_555
W1_2 O2_2 1_555 1_555
W2_2 O4_2 1_555 1_555
W4_2 O2_2 1_555 1_555
O23_2 W7_2 1_555 1_555
O24_2 W7_2 1_555 1_555
O25_2 W7_2 1_555 1_555
O26_2 W7_2 1_555 1_555
O27_2 W2_2 1_555 1_555
O28_2 W8_2 1_555 1_555
O29_2 W8_2 1_555 1_555
O34_2 W2_2 1_555 1_555
W7_2 O22_2 1_555 1_555
W8_2 O2_2 1_555 1_555
Cu5 O23_2 1_555 1_555
Cu5_2 O3_2 1_555 1_555
O6_2 W4_2 1_555 1_555
O7_2 W8_2 1_555 1_555
O14_2 W8_2 1_555 1_555
W2_2 O22_2 1_555 1_555
O22_2 W10_2 1_555 1_555
O24_2 W8_2 1_555 1_555
O26_2 W10_2 1_555 1_555
O27_2 W7_2 1_555 1_555
O34_2 W10_2 1_555 1_555
C1_3 H1_3 1_555 1_555
C2_3 H2_3 1_555 1_555
C3_3 C2_3 1_555 1_555
H3_3 C3_3 1_555 1_555
C4_3 H4_3 1_555 1_555
C5_3 H5_3 1_555 1_555
N1_3 C1_3 1_555 1_555
N2_3 C1_3 1_555 1_555
O1_2 Si1_3 1_555 1_555
O11_2 W3_2 1_555 1_555
O12_2 W3_2 1_555 1_555
O16_2 W5_2 1_555 1_555
O17_2 W5_2 1_555 1_555
O18_2 W6_2 1_555 1_555
O19_2 W6_2 1_555 1_555
O20_2 Cu5 1_555 1_555
Si1_3 O21_2 1_555 1_555
Cu5 N1_3 1_555 1_555
W5_2 O12_2 1_555 1_555
W6_2 O1_2 1_555 1_555
C6_3 C4_3 1_555 1_555
C7_3 H6_3 1_555 1_555
C10_3 C5_3 1_555 1_555
H9_3 C10_3 1_555 1_555
C11_3 C4_3 1_555 1_555
H10_3 C11_3 1_555 1_555
N5 C7_3 1_555 1_555
N4_3 C7_3 1_555 1_555
C12_3 C10_3 1_555 1_555
O21_2 W3_2 1_555 1_555
O31_2 W6_2 1_555 1_555
O32_2 W9_2 1_555 1_555
O35_2 W5_2 1_555 1_555
O36_2 W11_2 1_555 1_555
O37_2 W11_2 1_555 1_555
O38_2 W5_2 1_555 1_555
O40_2 W12_2 1_555 1_555
W9_2 O1_2 1_555 1_555
W11_2 O1_2 1_555 1_555
W12_2 O11_2 1_555 1_555
O42_3 Cu5 1_555 1_555
O43_3 Cu5 1_555 1_555
Cu5_2 O40_2 1_555 1_555
C2_3 N2_3 1_555 1_555
C3_3 N1_3 1_555 1_555
C5_3 C6_3 1_555 1_555
N2_3 C6_3 1_555 1_555
O15_2 W11_2 1_555 1_555
O17_2 W6_2 1_555 1_555
O18_2 W11_2 1_555 1_555
O20_2 W6_2 1_555 1_555
W5_2 O21_2 1_555 1_555
C11_3 C12_3 1_555 1_555
N4_3 C12_3 1_555 1_555
O21_2 W12_2 1_555 1_555
O31_2 W9_2 1_555 1_555
O32_2 W11_2 1_555 1_555
O37_2 W12_2 1_555 1_555
O38_2 W12_2 1_555 1_555
O39_2 W12_2 1_555 1_555
C8_3 H7_3 1_555 1_555
C9_3 C8_3 1_555 1_555
H8_3 C9_3 1_555 1_555
C2_4 H2_4 1_555 1_555
C3_4 C2_4 1_555 1_555
H3_4 C3_4 1_555 1_555
C4_4 H4_4 1_555 1_555
N1_4 C1_4 1_555 1_555
N2_4 C1_4 1_555 1_555
Cu5_2 N1_4 1_555 1_555
C6_4 C4_4 1_555 1_555
C11_4 C4_4 1_555 1_555
H10_4 C11_4 1_555 1_555
C2_4 N2_4 1_555 1_555
C3_4 N1_4 1_555 1_555
N2_4 C6_4 1_555 1_555
C5_4 H5_4 1_555 1_555
C10_4 C5_4 1_555 1_555
H9_4 C10_4 1_555 1_555
N5_2 C7_4 1_555 1_555
N4_4 C7_4 1_555 1_555
C12_4 C10_4 1_555 1_555
O42_4 Cu5_3 1_555 1_555
O43_4 Cu5_3 1_555 1_555
N4_4 C12_4 1_555 1_555
C8_4 H7_4 1_555 1_555
C9_4 C8_4 1_555 1_555
H8_4 C9_4 1_555 1_555
O1_3 Si1_4 1_555 1_555
O2_3 Si1_4 1_555 1_555
O13_3 W4_3 1_555 1_555
O14_3 W4_3 1_555 1_555
O15_3 W4_3 1_555 1_555
O18_3 W6_3 1_555 1_555
W4_3 O2_3 1_555 1_555
W6_3 O1_3 1_555 1_555
O42 W7_3 1_555 1_555
O24_3 W7_3 1_555 1_555
O25_3 W7_3 1_555 1_555
O28_3 W8_3 1_555 1_555
O29_3 W8_3 1_555 1_555
O30_3 W9_3 1_555 1_555
O31_3 W6_3 1_555 1_555
O32_3 W9_3 1_555 1_555
O36_3 W11_3 1_555 1_555
O37_3 W11_3 1_555 1_555
O39_3 W4_3 1_555 1_555
W8_3 O2_3 1_555 1_555
W9_3 O1_3 1_555 1_555
W11_3 O1_3 1_555 1_555
O6_3 W4_3 1_555 1_555
O7_3 W8_3 1_555 1_555
O14_3 W8_3 1_555 1_555
O15_3 W11_3 1_555 1_555
O18_3 W11_3 1_555 1_555
O43 W6_3 1_555 1_555
O24_3 W8_3 1_555 1_555
O25_3 W9_3 1_555 1_555
O29_3 W9_3 1_555 1_555
O31_3 W9_3 1_555 1_555
O32_3 W11_3 1_555 1_555
O42_2 W1_3 1_555 1_555
O4_3 W1_3 1_555 1_555
O5_3 W1_3 1_555 1_555
O8_3 W2_3 1_555 1_555
O9_3 W2_3 1_555 1_555
O10_3 W3_3 1_555 1_555
O11_3 W3_3 1_555 1_555
O12_3 W3_3 1_555 1_555
O16_3 W5_3 1_555 1_555
O17_3 W5_3 1_555 1_555
Si1_5 O21_3 1_555 1_555
W2_3 O4_3 1_555 1_555
W3_3 O5_3 1_555 1_555
W5_3 O12_3 1_555 1_555
O21_3 W3_3 1_555 1_555
O22_3 Si1_5 1_555 1_555
O27_3 W2_3 1_555 1_555
O33_3 W10_3 1_555 1_555
O34_3 W2_3 1_555 1_555
O35_3 W5_3 1_555 1_555
O38_3 W5_3 1_555 1_555
O43_2 W12_3 1_555 1_555
W10_3 O19_3 1_555 1_555
W12_3 O11_3 1_555 1_555
O9_3 W3_3 1_555 1_555
W2_3 O22_3 1_555 1_555
W5_3 O21_3 1_555 1_555
O21_3 W12_3 1_555 1_555
O22_3 W10_3 1_555 1_555
O26_3 W10_3 1_555 1_555
O34_3 W10_3 1_555 1_555
O35_3 W10_3 1_555 1_555
O38_3 W12_3 1_555 1_555
O1_4 Si1_6 1_555 1_555
O11_4 W3_4 1_555 1_555
O12_4 W3_4 1_555 1_555
O16_4 W5_4 1_555 1_555
O17_4 W5_4 1_555 1_555
O18_4 W6_4 1_555 1_555
O19_4 W6_4 1_555 1_555
Si1_6 O21_4 1_555 1_555
W5_4 O12_4 1_555 1_555
W6_4 O1_4 1_555 1_555
O21_4 W3_4 1_555 1_555
O31_4 W6_4 1_555 1_555
O32_4 W9_4 1_555 1_555
O35_4 W5_4 1_555 1_555
O36_4 W11_4 1_555 1_555
O37_4 W11_4 1_555 1_555
O38_4 W5_4 1_555 1_555
O43_4 W12_4 1_555 1_555
W9_4 O1_4 1_555 1_555
W11_4 O1_4 1_555 1_555
W12_4 O11_4 1_555 1_555
O15_4 W11_4 1_555 1_555
O17_4 W6_4 1_555 1_555
O18_4 W11_4 1_555 1_555
O43_3 W6_4 1_555 1_555
W5_4 O21_4 1_555 1_555
O21_4 W12_4 1_555 1_555
O31_4 W9_4 1_555 1_555
O32_4 W11_4 1_555 1_555
O37_4 W12_4 1_555 1_555
O38_4 W12_4 1_555 1_555
O39_4 W12_4 1_555 1_555
O42_4 W1_4 1_555 1_555
O4_4 W1_4 1_555 1_555
O5_4 W1_4 1_555 1_555
O6_4 W1_4 1_555 1_555
O7_4 W1_4 1_555 1_555
O8_4 W2_4 1_555 1_555
O9_4 W2_4 1_555 1_555
O14_4 W4_4 1_555 1_555
W1_4 O2_4 1_555 1_555
W2_4 O4_4 1_555 1_555
W4_4 O2_4 1_555 1_555
O42_3 W7_4 1_555 1_555
O24_4 W7_4 1_555 1_555
O25_4 W7_4 1_555 1_555
O26_4 W7_4 1_555 1_555
O27_4 W2_4 1_555 1_555
O28_4 W8_4 1_555 1_555
O29_4 W8_4 1_555 1_555
O34_4 W2_4 1_555 1_555
W7_4 O22_4 1_555 1_555
W8_4 O2_4 1_555 1_555
O6_4 W4_4 1_555 1_555
O7_4 W8_4 1_555 1_555
O14_4 W8_4 1_555 1_555
W2_4 O22_4 1_555 1_555
O22_4 W10_4 1_555 1_555
O24_4 W8_4 1_555 1_555
O26_4 W10_4 1_555 1_555
O27_4 W7_4 1_555 1_555
O34_4 W10_4 1_555 1_555

#END
