
###############################################################################
#
# This file contains modified crystal structure data generated from the
# MOF subset of the Cambridge Structural Database (CSD) v543 
# hosted by the Cambridge Crystallographic Data Centre (CCDC).
#
# This work is licensed under the Creative Commons
# Attribution-NonCommercial-ShareAlike 4.0 International License.
# To view a copy of this license, visit
# http://creativecommons.org/licenses/by-nc-sa/4.0/
# or send a letter to
# Creative Commons, PO Box 1866, Mountain View, CA 94042, USA.
#
# CIF created using the CSD Python API on 29 September 2022
# The structure has been converted into the P1 space group
# The structure has a 3D framework
# The original CSD entry KORLAE is in the orthorhombic crystal system
# The original CSD entry KORLAE is in a Sohncke space group
# The framework has been calculated to contain at least 10.0% void space
# The void calculation uses a probe of radius 1.32A, grid spacing 0.4
# The framework is charged, counterions have been retained in the structure
#
###############################################################################

data_KORLAE
_chemical_formula_moiety         '(C88 H152 N18 Na4)n'
_symmetry_cell_setting           triclinic
_symmetry_space_group_name_H-M   'P 1'
_symmetry_Int_Tables_number      1
_space_group_name_Hall           'P 1'
loop_
_symmetry_equiv_pos_site_id
_symmetry_equiv_pos_as_xyz
1 x,y,z
_cell_length_a                   13.312(1)
_cell_length_b                   13.874(1)
_cell_length_c                   15.717(1)
_cell_angle_alpha                90
_cell_angle_beta                 90
_cell_angle_gamma                90
_cell_volume                     2902.78
loop_
_atom_site_label
_atom_site_type_symbol
_atom_site_fract_x
_atom_site_fract_y
_atom_site_fract_z
Na2 Na 0.06841(16) 0.88971(13) 0.38776(13)
Na1 Na 0.56841(16) 0.61029(13) 0.61224(13)
N1 N 0.74372(33) 0.64869(30) 0.61902(29)
N2 N 0.49554(36) 0.67748(33) 0.48709(28)
C1 C 0.90991(55) 0.73415(54) 0.63555(39)
H1 H 0.5936(45) 0.2192(37) 0.5839(31)
C2 C 0.95565(43) 0.78340(45) 0.56711(40)
C3 C 0.81832(45) 0.69026(40) 0.62529(35)
N3 N 0.55709(37) 0.44033(31) 0.61274(30)
N4 N 0.50208(40) 0.67062(28) 0.74216(27)
C4 C 0.56947(56) 0.25798(39) 0.63030(42)
H2 H 0.9140(47) 0.7703(36) 0.6838(29)
C5 C 0.56079(44) 0.35814(43) 0.62161(35)
C6 C 0.52996(42) 0.21161(37) 0.70117(35)
N5 N 0.99554(36) 0.82252(33) 0.51291(28)
Na3 Na 0.43159(16) 0.11029(13) 0.88776(13)
N6 N 0.49792(40) 0.17062(28) 0.75784(27)
N1_2 N 0.24372(33) 0.85131(30) 0.38098(29)
C1_2 C 0.40991(55) 0.76585(54) 0.36445(39)
C2_2 C 0.45565(43) 0.71660(45) 0.43289(40)
C3_2 C 0.31832(45) 0.80974(40) 0.37471(35)
N4_2 N 0.00208(40) 0.82938(28) 0.25784(27)
H2_2 H 0.4140(47) 0.7297(36) 0.3162(29)
N1_3 N 0.25628(33) 0.14869(30) 0.88098(29)
C1_3 C 0.09009(55) 0.23415(54) 0.86445(39)
C2_3 C 0.04435(43) 0.28340(45) 0.93289(40)
C3_3 C 0.18168(45) 0.19026(40) 0.87471(35)
H2_3 H 0.0860(47) 0.2703(36) 0.8162(29)
N5_2 N 0.00446(36) 0.32252(33) 0.98709(28)
H1_2 H 0.4064(45) 0.7192(37) 0.9161(31)
N3_2 N 0.44291(37) 0.94033(31) 0.88726(30)
C4_2 C 0.43053(56) 0.75798(39) 0.86970(42)
C5_2 C 0.43921(44) 0.85814(43) 0.87839(35)
C6_2 C 0.47004(42) 0.71161(37) 0.79883(35)
H1_3 H 0.0936(45) 0.2808(37) 0.4161(31)
N3_3 N 0.05709(37) 0.05967(31) 0.38726(30)
C4_3 C 0.06947(56) 0.24202(39) 0.36970(42)
C5_3 C 0.06079(44) 0.14186(43) 0.37839(35)
C6_3 C 0.02996(42) 0.28839(37) 0.29883(35)
Na3_2 Na 0.93159(16) 0.38971(13) 0.11224(13)
N6_2 N 0.99792(40) 0.32938(28) 0.24216(27)
N2_2 N 0.50446(36) 0.17748(33) 0.01291(28)
N1_4 N 0.75628(33) 0.35131(30) 0.11902(29)
C1_4 C 0.59009(55) 0.26585(54) 0.13555(39)
H1_4 H 0.9064(45) 0.7808(37) 0.0839(31)
C2_4 C 0.54435(43) 0.21660(45) 0.06711(40)
C3_4 C 0.68168(45) 0.30974(40) 0.12529(35)
N3_4 N 0.94291(37) 0.55967(31) 0.11274(30)
C4_4 C 0.93053(56) 0.74202(39) 0.13030(42)
H2_4 H 0.5860(47) 0.2297(36) 0.1838(29)
C5_4 C 0.93921(44) 0.64186(43) 0.12161(35)
C6_4 C 0.97004(42) 0.78839(37) 0.20117(35)
C17 C 0.05899(44) 0.53434(41) 0.41348(36)
H25 H 0.06824(44) 0.47441(41) 0.38401(36)
H26 H 0.09047(44) 0.53082(41) 0.46835(36)
C18 C 0.10790(45) 0.61098(46) 0.36432(42)
H27 H 0.17812(45) 0.59668(46) 0.35850(42)
H28 H 0.09994(45) 0.67138(46) 0.39330(42)
H29 H 0.07771(45) 0.61497(46) 0.30896(42)
N7 N 0.77819(31) 0.56035(29) 0.34690(22)
C7 C 0.74308(37) 0.64780(32) 0.39680(28)
H3 H 0.76434(37) 0.63985(32) 0.45474(28)
H4 H 0.67104(37) 0.64950(32) 0.39448(28)
C8 C 0.78190(40) 0.74416(31) 0.36575(31)
H5 H 0.85320(40) 0.74739(31) 0.37444(31)
H6 H 0.76736(40) 0.75097(31) 0.30622(31)
C9 C 0.73095(44) 0.82543(34) 0.41524(32)
H7 H 0.74154(44) 0.81505(34) 0.47496(32)
H8 H 0.66026(44) 0.82401(34) 0.40322(32)
C10 C 0.77148(46) 0.92392(34) 0.39179(37)
H9 H 0.73731(46) 0.97244(34) 0.42429(37)
H10 H 0.76082(46) 0.93531(34) 0.33223(37)
H11 H 0.84210(46) 0.92635(34) 0.40397(37)
C11 C 0.73566(36) 0.47290(30) 0.38980(31)
H12 H 0.66381(36) 0.47780(30) 0.38680(31)
H13 H 0.75653(36) 0.47481(30) 0.44824(31)
C12 C 0.76393(46) 0.37678(36) 0.35553(35)
H14 H 0.83589(46) 0.37253(36) 0.35435(35)
H15 H 0.73821(46) 0.37158(36) 0.29865(35)
C13 C 0.72550(51) 0.29617(39) 0.40482(37)
H16 H 0.74950(51) 0.30219(39) 0.46217(37)
H17 H 0.65344(51) 0.29901(39) 0.40453(37)
C14 C 0.89202(33) 0.55728(34) 0.34168(27)
H18 H 0.91421(33) 0.61496(34) 0.31370(27)
H19 H 0.91069(33) 0.50223(34) 0.30826(27)
C15 C 0.75714(43) 0.20015(36) 0.37118(39)
H20 H 0.72957(43) 0.15011(36) 0.40630(39)
H21 H 0.82912(43) 0.19592(36) 0.37162(39)
H22 H 0.73307(43) 0.19274(36) 0.31398(39)
C16 C 0.94573(38) 0.55048(42) 0.42643(30)
H23 H 0.93571(38) 0.60929(42) 0.45743(30)
H24 H 0.91849(38) 0.49756(42) 0.45830(30)
C19 C 0.74161(35) 0.56747(34) 0.25463(25)
H30 H 0.76197(35) 0.50974(34) 0.22573(25)
H31 H 0.77416(35) 0.62202(34) 0.22913(25)
C20 C 0.63030(37) 0.57920(39) 0.24171(30)
H32 H 0.59578(37) 0.52483(39) 0.26558(30)
H33 H 0.60792(37) 0.63710(39) 0.26924(30)
C21 C 0.60797(44) 0.58550(46) 0.14597(34)
H34 H 0.62587(44) 0.52516(46) 0.12023(34)
H35 H 0.64836(44) 0.63602(46) 0.12208(34)
C22 C 0.50164(50) 0.60556(47) 0.12620(41)
H36 H 0.49288(50) 0.60849(47) 0.06563(41)
H37 H 0.48269(50) 0.66611(47) 0.15098(41)
H38 H 0.46019(50) 0.55526(47) 0.14913(41)
C11_2 C 0.23566(36) 0.02710(30) 0.61020(31)
H12_2 H 0.16381(36) 0.02220(30) 0.61320(31)
H13_2 H 0.25653(36) 0.02519(30) 0.55176(31)
C12_2 C 0.26393(46) 0.12322(36) 0.64447(35)
H14_2 H 0.33589(46) 0.12747(36) 0.64565(35)
H15_2 H 0.23821(46) 0.12842(36) 0.70135(35)
C13_2 C 0.22550(51) 0.20383(39) 0.59518(37)
H16_2 H 0.24950(51) 0.19781(39) 0.53783(37)
H17_2 H 0.15344(51) 0.20099(39) 0.59547(37)
C15_2 C 0.25714(43) 0.29985(36) 0.62882(39)
H20_2 H 0.22957(43) 0.34989(36) 0.59370(39)
H21_2 H 0.32912(43) 0.30408(36) 0.62838(39)
H22_2 H 0.23307(43) 0.30726(36) 0.68602(39)
H24_2 H 0.41849(38) 0.00244(42) 0.54170(30)
H25_2 H 0.56824(44) 0.02559(41) 0.61599(36)
N7_2 N 0.27819(31) 0.93965(29) 0.65310(22)
C7_2 C 0.24308(37) 0.85220(32) 0.60320(28)
H3_2 H 0.26434(37) 0.86015(32) 0.54526(28)
H4_2 H 0.17104(37) 0.85050(32) 0.60552(28)
C8_2 C 0.28190(40) 0.75584(31) 0.63425(31)
H5_2 H 0.35320(40) 0.75261(31) 0.62556(31)
H6_2 H 0.26736(40) 0.74903(31) 0.69378(31)
C9_2 C 0.23095(44) 0.67457(34) 0.58476(32)
H7_2 H 0.24154(44) 0.68495(34) 0.52504(32)
H8_2 H 0.16026(44) 0.67599(34) 0.59678(32)
C10_2 C 0.27148(46) 0.57608(34) 0.60821(37)
H9_2 H 0.23731(46) 0.52756(34) 0.57571(37)
H10_2 H 0.26082(46) 0.56469(34) 0.66777(37)
H11_2 H 0.34210(46) 0.57365(34) 0.59603(37)
C14_2 C 0.39202(33) 0.94272(34) 0.65832(27)
H18_2 H 0.41421(33) 0.88504(34) 0.68630(27)
H19_2 H 0.41069(33) 0.99777(34) 0.69174(27)
C16_2 C 0.44573(38) 0.94952(42) 0.57357(30)
H23_2 H 0.43571(38) 0.89071(42) 0.54257(30)
C17_2 C 0.55899(44) 0.96566(41) 0.58652(36)
H26_2 H 0.59047(44) 0.96918(41) 0.53165(36)
C18_2 C 0.60790(45) 0.88902(46) 0.63568(42)
H27_2 H 0.67812(45) 0.90332(46) 0.64150(42)
H28_2 H 0.59994(45) 0.82862(46) 0.60670(42)
H29_2 H 0.57771(45) 0.88503(46) 0.69104(42)
C19_2 C 0.24161(35) 0.93253(34) 0.74537(25)
H30_2 H 0.26197(35) 0.99026(34) 0.77427(25)
H31_2 H 0.27416(35) 0.87798(34) 0.77087(25)
C20_2 C 0.13030(37) 0.92080(39) 0.75829(30)
H32_2 H 0.09578(37) 0.97517(39) 0.73442(30)
H33_2 H 0.10792(37) 0.86290(39) 0.73076(30)
C21_2 C 0.10797(44) 0.91450(46) 0.85403(34)
H34_2 H 0.12587(44) 0.97484(46) 0.87977(34)
H35_2 H 0.14836(44) 0.86398(46) 0.87792(34)
C22_2 C 0.00164(50) 0.89444(47) 0.87380(41)
H36_2 H 0.99288(50) 0.89151(47) 0.93437(41)
H37_2 H 0.98269(50) 0.83389(47) 0.84902(41)
H38_2 H 0.96019(50) 0.94474(47) 0.85087(41)
N7_3 N 0.22181(31) 0.06035(29) 0.15310(22)
C7_3 C 0.25692(37) 0.14780(32) 0.10320(28)
H3_3 H 0.23566(37) 0.13985(32) 0.04526(28)
H4_3 H 0.32896(37) 0.14950(32) 0.10552(28)
C8_3 C 0.21810(40) 0.24416(31) 0.13425(31)
H5_3 H 0.14680(40) 0.24739(31) 0.12556(31)
H6_3 H 0.23264(40) 0.25097(31) 0.19378(31)
C9_3 C 0.26905(44) 0.32543(34) 0.08476(32)
H7_3 H 0.25846(44) 0.31505(34) 0.02504(32)
H8_3 H 0.33974(44) 0.32401(34) 0.09678(32)
C10_3 C 0.22852(46) 0.42392(34) 0.10821(37)
H9_3 H 0.26269(46) 0.47244(34) 0.07571(37)
H10_3 H 0.23918(46) 0.43531(34) 0.16777(37)
H11_3 H 0.15790(46) 0.42635(34) 0.09603(37)
C14_3 C 0.10798(33) 0.05728(34) 0.15832(27)
H18_3 H 0.08579(33) 0.11496(34) 0.18630(27)
H19_3 H 0.08931(33) 0.00223(34) 0.19174(27)
C16_3 C 0.05427(38) 0.05048(42) 0.07357(30)
H23_3 H 0.06429(38) 0.10929(42) 0.04257(30)
C19_3 C 0.25839(35) 0.06747(34) 0.24537(25)
H30_3 H 0.23803(35) 0.00974(34) 0.27427(25)
H31_3 H 0.22584(35) 0.12202(34) 0.27087(25)
C20_3 C 0.36970(37) 0.07920(39) 0.25829(30)
H32_3 H 0.40422(37) 0.02483(39) 0.23442(30)
H33_3 H 0.39208(37) 0.13710(39) 0.23076(30)
C21_3 C 0.39203(44) 0.08550(46) 0.35403(34)
H34_3 H 0.37413(44) 0.02516(46) 0.37977(34)
H35_3 H 0.35164(44) 0.13602(46) 0.37792(34)
C22_3 C 0.49836(50) 0.10556(47) 0.37380(41)
H36_3 H 0.50712(50) 0.10849(47) 0.43437(41)
H37_3 H 0.51731(50) 0.16611(47) 0.34902(41)
H38_3 H 0.53981(50) 0.05526(47) 0.35087(41)
C11_3 C 0.26434(36) 0.97290(30) 0.11020(31)
H12_3 H 0.33619(36) 0.97780(30) 0.11320(31)
H13_3 H 0.24347(36) 0.97481(30) 0.05176(31)
C12_3 C 0.23607(46) 0.87678(36) 0.14447(35)
H14_3 H 0.16411(46) 0.87253(36) 0.14565(35)
H15_3 H 0.26179(46) 0.87158(36) 0.20135(35)
C13_3 C 0.27450(51) 0.79617(39) 0.09518(37)
H16_3 H 0.25050(51) 0.80219(39) 0.03783(37)
H17_3 H 0.34656(51) 0.79901(39) 0.09547(37)
C15_3 C 0.24286(43) 0.70015(36) 0.12882(39)
H20_3 H 0.27043(43) 0.65011(36) 0.09370(39)
H21_3 H 0.17088(43) 0.69592(36) 0.12838(39)
H22_3 H 0.26693(43) 0.69274(36) 0.18602(39)
H24_3 H 0.08151(38) 0.99756(42) 0.04170(30)
C17_3 C 0.94101(44) 0.03434(41) 0.08652(36)
H26_3 H 0.90953(44) 0.03082(41) 0.03165(36)
C18_3 C 0.89210(45) 0.11098(46) 0.13568(42)
H27_3 H 0.82188(45) 0.09668(46) 0.14150(42)
H28_3 H 0.90006(45) 0.17138(46) 0.10670(42)
H29_3 H 0.92229(45) 0.11497(46) 0.19104(42)
H25_3 H 0.93176(44) 0.97441(41) 0.11599(36)
H36_4 H 0.00712(50) 0.39151(47) 0.56563(41)
H37_4 H 0.01731(50) 0.33389(47) 0.65098(41)
H38_4 H 0.03981(50) 0.44474(47) 0.64913(41)
N7_4 N 0.72181(31) 0.43965(29) 0.84690(22)
C7_4 C 0.75692(37) 0.35220(32) 0.89680(28)
H3_4 H 0.73566(37) 0.36015(32) 0.95474(28)
H4_4 H 0.82896(37) 0.35050(32) 0.89448(28)
C8_4 C 0.71810(40) 0.25584(31) 0.86575(31)
H5_4 H 0.64680(40) 0.25261(31) 0.87444(31)
H6_4 H 0.73264(40) 0.24903(31) 0.80622(31)
C9_4 C 0.76905(44) 0.17457(34) 0.91524(32)
H7_4 H 0.75846(44) 0.18495(34) 0.97496(32)
H8_4 H 0.83974(44) 0.17599(34) 0.90322(32)
C10_4 C 0.72852(46) 0.07608(34) 0.89179(37)
H9_4 H 0.76269(46) 0.02756(34) 0.92429(37)
H10_4 H 0.73918(46) 0.06469(34) 0.83223(37)
H11_4 H 0.65790(46) 0.07365(34) 0.90397(37)
C11_4 C 0.76434(36) 0.52710(30) 0.88980(31)
H12_4 H 0.83619(36) 0.52220(30) 0.88680(31)
H13_4 H 0.74347(36) 0.52519(30) 0.94824(31)
C12_4 C 0.73607(46) 0.62322(36) 0.85553(35)
H14_4 H 0.66411(46) 0.62747(36) 0.85435(35)
H15_4 H 0.76179(46) 0.62842(36) 0.79865(35)
C13_4 C 0.77450(51) 0.70383(39) 0.90482(37)
H16_4 H 0.75050(51) 0.69781(39) 0.96217(37)
H17_4 H 0.84656(51) 0.70099(39) 0.90453(37)
C14_4 C 0.60798(33) 0.44272(34) 0.84168(27)
H18_4 H 0.58579(33) 0.38504(34) 0.81370(27)
H19_4 H 0.58931(33) 0.49777(34) 0.80826(27)
C15_4 C 0.74286(43) 0.79985(36) 0.87118(39)
H20_4 H 0.77043(43) 0.84989(36) 0.90630(39)
H21_4 H 0.67088(43) 0.80408(36) 0.87162(39)
H22_4 H 0.76693(43) 0.80726(36) 0.81398(39)
C16_4 C 0.55427(38) 0.44952(42) 0.92643(30)
H23_4 H 0.56429(38) 0.39071(42) 0.95743(30)
H24_4 H 0.58151(38) 0.50244(42) 0.95830(30)
C17_4 C 0.44101(44) 0.46566(41) 0.91348(36)
H25_4 H 0.43176(44) 0.52559(41) 0.88401(36)
H26_4 H 0.40953(44) 0.46918(41) 0.96835(36)
C18_4 C 0.39210(45) 0.38902(46) 0.86432(42)
H27_4 H 0.32188(45) 0.40332(46) 0.85850(42)
H28_4 H 0.40006(45) 0.32862(46) 0.89330(42)
H29_4 H 0.42229(45) 0.38503(46) 0.80896(42)
C19_4 C 0.75839(35) 0.43253(34) 0.75463(25)
H30_4 H 0.73803(35) 0.49026(34) 0.72573(25)
H31_4 H 0.72584(35) 0.37798(34) 0.72913(25)
C20_4 C 0.86970(37) 0.42080(39) 0.74171(30)
H32_4 H 0.90422(37) 0.47517(39) 0.76558(30)
H33_4 H 0.89208(37) 0.36290(39) 0.76924(30)
C21_4 C 0.89203(44) 0.41450(46) 0.64597(34)
H34_4 H 0.87413(44) 0.47484(46) 0.62023(34)
H35_4 H 0.85164(44) 0.36398(46) 0.62208(34)
C22_4 C 0.99836(50) 0.39444(47) 0.62620(41)
loop_
_geom_bond_atom_site_label_1
_geom_bond_atom_site_label_2
_geom_bond_site_symmetry_1
_geom_bond_site_symmetry_2
Na1 N1 1_555 1_555
N1 C3 1_555 1_555
N2 Na1 1_555 1_555
C1 C2 1_555 1_555
H1 C4 1_555 1_555
C2 N5 1_555 1_555
C3 C1 1_555 1_555
N3 Na1 1_555 1_555
N4 Na1 1_555 1_555
C4 C5 1_555 1_555
H2 C1 1_555 1_555
C5 N3 1_555 1_555
C6 C4 1_555 1_555
Na3 N6 1_555 1_555
N6 C6 1_555 1_555
Na2 N1_2 1_555 1_555
N1_2 C3_2 1_555 1_555
C1_2 C2_2 1_555 1_555
C2_2 N2 1_555 1_555
C3_2 C1_2 1_555 1_555
N4_2 Na2 1_555 1_555
H2_2 C1_2 1_555 1_555
Na3 N1_3 1_555 1_555
N1_3 C3_3 1_555 1_555
C1_3 C2_3 1_555 1_555
C2_3 N5_2 1_555 1_555
C3_3 C1_3 1_555 1_555
H2_3 C1_3 1_555 1_555
H1_2 C4_2 1_555 1_555
C4_2 C5_2 1_555 1_555
C5_2 N3_2 1_555 1_555
C6_2 C4_2 1_555 1_555
N4 C6_2 1_555 1_555
H1_3 C4_3 1_555 1_555
C4_3 C5_3 1_555 1_555
C5_3 N3_3 1_555 1_555
C6_3 C4_3 1_555 1_555
Na3_2 N6_2 1_555 1_555
Na3_2 N1_4 1_555 1_555
N1_4 C3_4 1_555 1_555
C1_4 C2_4 1_555 1_555
H1_4 C4_4 1_555 1_555
C2_4 N2_2 1_555 1_555
C3_4 C1_4 1_555 1_555
N3_4 Na3_2 1_555 1_555
C4_4 C5_4 1_555 1_555
H2_4 C1_4 1_555 1_555
C5_4 N3_4 1_555 1_555
C6_4 C4_4 1_555 1_555
H25 C17 1_555 1_555
H26 C17 1_555 1_555
C18 C17 1_555 1_555
H27 C18 1_555 1_555
H28 C18 1_555 1_555
H29 C18 1_555 1_555
N7 C7 1_555 1_555
C7 H3 1_555 1_555
H4 C7 1_555 1_555
C8 C7 1_555 1_555
H5 C8 1_555 1_555
H6 C8 1_555 1_555
C9 C8 1_555 1_555
H7 C9 1_555 1_555
H8 C9 1_555 1_555
C10 C9 1_555 1_555
H9 C10 1_555 1_555
H10 C10 1_555 1_555
H11 C10 1_555 1_555
C11 N7 1_555 1_555
H12 C11 1_555 1_555
H13 C11 1_555 1_555
C12 C11 1_555 1_555
H14 C12 1_555 1_555
H15 C12 1_555 1_555
C13 C12 1_555 1_555
H16 C13 1_555 1_555
H17 C13 1_555 1_555
C14 N7 1_555 1_555
H18 C14 1_555 1_555
H19 C14 1_555 1_555
C15 C13 1_555 1_555
H20 C15 1_555 1_555
H21 C15 1_555 1_555
H22 C15 1_555 1_555
C16 C14 1_555 1_555
H23 C16 1_555 1_555
H24 C16 1_555 1_555
C19 N7 1_555 1_555
H30 C19 1_555 1_555
H31 C19 1_555 1_555
C20 C19 1_555 1_555
H32 C20 1_555 1_555
H33 C20 1_555 1_555
C21 C20 1_555 1_555
H34 C21 1_555 1_555
H35 C21 1_555 1_555
C22 C21 1_555 1_555
H36 C22 1_555 1_555
H37 C22 1_555 1_555
H38 C22 1_555 1_555
H12_2 C11_2 1_555 1_555
H13_2 C11_2 1_555 1_555
C12_2 C11_2 1_555 1_555
H14_2 C12_2 1_555 1_555
H15_2 C12_2 1_555 1_555
C13_2 C12_2 1_555 1_555
H16_2 C13_2 1_555 1_555
H17_2 C13_2 1_555 1_555
C15_2 C13_2 1_555 1_555
H20_2 C15_2 1_555 1_555
H21_2 C15_2 1_555 1_555
H22_2 C15_2 1_555 1_555
N7_2 C7_2 1_555 1_555
C7_2 H3_2 1_555 1_555
H4_2 C7_2 1_555 1_555
C8_2 C7_2 1_555 1_555
H5_2 C8_2 1_555 1_555
H6_2 C8_2 1_555 1_555
C9_2 C8_2 1_555 1_555
H7_2 C9_2 1_555 1_555
H8_2 C9_2 1_555 1_555
C10_2 C9_2 1_555 1_555
H9_2 C10_2 1_555 1_555
H10_2 C10_2 1_555 1_555
H11_2 C10_2 1_555 1_555
C14_2 N7_2 1_555 1_555
H18_2 C14_2 1_555 1_555
H19_2 C14_2 1_555 1_555
C16_2 C14_2 1_555 1_555
H23_2 C16_2 1_555 1_555
C17_2 C16_2 1_555 1_555
H26_2 C17_2 1_555 1_555
C18_2 C17_2 1_555 1_555
H27_2 C18_2 1_555 1_555
H28_2 C18_2 1_555 1_555
H29_2 C18_2 1_555 1_555
C19_2 N7_2 1_555 1_555
H30_2 C19_2 1_555 1_555
H31_2 C19_2 1_555 1_555
C20_2 C19_2 1_555 1_555
H32_2 C20_2 1_555 1_555
H33_2 C20_2 1_555 1_555
C21_2 C20_2 1_555 1_555
H34_2 C21_2 1_555 1_555
H35_2 C21_2 1_555 1_555
C22_2 C21_2 1_555 1_555
N7_3 C7_3 1_555 1_555
C7_3 H3_3 1_555 1_555
H4_3 C7_3 1_555 1_555
C8_3 C7_3 1_555 1_555
H5_3 C8_3 1_555 1_555
H6_3 C8_3 1_555 1_555
C9_3 C8_3 1_555 1_555
H7_3 C9_3 1_555 1_555
H8_3 C9_3 1_555 1_555
C10_3 C9_3 1_555 1_555
H9_3 C10_3 1_555 1_555
H10_3 C10_3 1_555 1_555
H11_3 C10_3 1_555 1_555
C14_3 N7_3 1_555 1_555
H18_3 C14_3 1_555 1_555
H19_3 C14_3 1_555 1_555
C16_3 C14_3 1_555 1_555
H23_3 C16_3 1_555 1_555
C19_3 N7_3 1_555 1_555
H30_3 C19_3 1_555 1_555
H31_3 C19_3 1_555 1_555
C20_3 C19_3 1_555 1_555
H32_3 C20_3 1_555 1_555
H33_3 C20_3 1_555 1_555
C21_3 C20_3 1_555 1_555
H34_3 C21_3 1_555 1_555
H35_3 C21_3 1_555 1_555
C22_3 C21_3 1_555 1_555
H36_3 C22_3 1_555 1_555
H37_3 C22_3 1_555 1_555
H38_3 C22_3 1_555 1_555
H12_3 C11_3 1_555 1_555
H13_3 C11_3 1_555 1_555
C12_3 C11_3 1_555 1_555
H14_3 C12_3 1_555 1_555
H15_3 C12_3 1_555 1_555
C13_3 C12_3 1_555 1_555
H16_3 C13_3 1_555 1_555
H17_3 C13_3 1_555 1_555
C15_3 C13_3 1_555 1_555
H20_3 C15_3 1_555 1_555
H21_3 C15_3 1_555 1_555
H22_3 C15_3 1_555 1_555
H26_3 C17_3 1_555 1_555
C18_3 C17_3 1_555 1_555
H27_3 C18_3 1_555 1_555
H28_3 C18_3 1_555 1_555
H29_3 C18_3 1_555 1_555
N7_4 C7_4 1_555 1_555
C7_4 H3_4 1_555 1_555
H4_4 C7_4 1_555 1_555
C8_4 C7_4 1_555 1_555
H5_4 C8_4 1_555 1_555
H6_4 C8_4 1_555 1_555
C9_4 C8_4 1_555 1_555
H7_4 C9_4 1_555 1_555
H8_4 C9_4 1_555 1_555
C10_4 C9_4 1_555 1_555
H9_4 C10_4 1_555 1_555
H10_4 C10_4 1_555 1_555
H11_4 C10_4 1_555 1_555
C11_4 N7_4 1_555 1_555
H12_4 C11_4 1_555 1_555
H13_4 C11_4 1_555 1_555
C12_4 C11_4 1_555 1_555
H14_4 C12_4 1_555 1_555
H15_4 C12_4 1_555 1_555
C13_4 C12_4 1_555 1_555
H16_4 C13_4 1_555 1_555
H17_4 C13_4 1_555 1_555
C14_4 N7_4 1_555 1_555
H18_4 C14_4 1_555 1_555
H19_4 C14_4 1_555 1_555
C15_4 C13_4 1_555 1_555
H20_4 C15_4 1_555 1_555
H21_4 C15_4 1_555 1_555
H22_4 C15_4 1_555 1_555
C16_4 C14_4 1_555 1_555
H23_4 C16_4 1_555 1_555
H24_4 C16_4 1_555 1_555
C17_4 C16_4 1_555 1_555
H25_4 C17_4 1_555 1_555
H26_4 C17_4 1_555 1_555
C18_4 C17_4 1_555 1_555
H27_4 C18_4 1_555 1_555
H28_4 C18_4 1_555 1_555
H29_4 C18_4 1_555 1_555
C19_4 N7_4 1_555 1_555
H30_4 C19_4 1_555 1_555
H31_4 C19_4 1_555 1_555
C20_4 C19_4 1_555 1_555
H32_4 C20_4 1_555 1_555
H33_4 C20_4 1_555 1_555
C21_4 C20_4 1_555 1_555
H34_4 C21_4 1_555 1_555
H35_4 C21_4 1_555 1_555
C22_4 C21_4 1_555 1_555

#END
