
###############################################################################
#
# This file contains modified crystal structure data generated from the
# MOF subset of the Cambridge Structural Database (CSD) v543 
# hosted by the Cambridge Crystallographic Data Centre (CCDC).
#
# This work is licensed under the Creative Commons
# Attribution-NonCommercial-ShareAlike 4.0 International License.
# To view a copy of this license, visit
# http://creativecommons.org/licenses/by-nc-sa/4.0/
# or send a letter to
# Creative Commons, PO Box 1866, Mountain View, CA 94042, USA.
#
# CIF created using the CSD Python API on 29 September 2022
# The structure has been converted into the P1 space group
# The structure has a 3D framework
# The original CSD entry KORNAI is in the triclinic crystal system
# The framework has been calculated to contain at least 10.0% void space
# The void calculation uses a probe of radius 1.32A, grid spacing 0.4
#
###############################################################################

data_KORNAI
_chemical_formula_moiety         '(C76 H54 Co6 N18 O26)n'
_symmetry_cell_setting           triclinic
_symmetry_space_group_name_H-M   'P 1'
_symmetry_Int_Tables_number      1
_space_group_name_Hall           'P 1'
loop_
_symmetry_equiv_pos_site_id
_symmetry_equiv_pos_as_xyz
1 x,y,z
_cell_length_a                   12.1772(9)
_cell_length_b                   15.5314(13)
_cell_length_c                   15.8267(14)
_cell_angle_alpha                76.019(7)
_cell_angle_beta                 67.570(8)
_cell_angle_gamma                69.196(7)
_cell_volume                     2566.87
loop_
_atom_site_label
_atom_site_type_symbol
_atom_site_fract_x
_atom_site_fract_y
_atom_site_fract_z
Co4 Co 0.04536(7) 0.03558(5) 0.21574(5)
H7 H 0.2708 0.0258 0.4481
O6 O 0.1612(6) 0.0163(5) 0.6233(4)
H25 H 0.1205 0.0291 0.6759
O16 O 0.1960(4) 0.0775(3) 0.1750(3)
Co1 Co 0.23510(6) 0.67961(5) 0.03105(5)
Co2 Co 0.04897(6) 0.63356(5) 0.26076(5)
C5 C 0.6046(6) 0.8854(5) 0.0576(5)
H2 H 0.6323 0.9153 0.0863
C6 C 0.5107(6) 0.8456(6) 0.1092(4)
C7 C 0.4736(6) 0.7972(5) 0.0662(4)
H3 H 0.4140 0.7667 0.1007
C9 C 0.3525(7) 0.8328(8) 0.2489(5)
H4 H 0.3688 0.7660 0.2582
H5 H 0.2959 0.8592 0.2134
C10 C 0.2918(7) 0.8686(7) 0.3403(5)
C11 C 0.3095(9) 0.9455(7) 0.3543(6)
H6 H 0.3598 0.9767 0.3064
C12 C 0.2531(8) 0.9761(6) 0.4386(6)
C13 C 0.1722(6) 0.9372(5) 0.5093(5)
C14 C 0.1502(8) 0.8617(8) 0.4944(6)
H8 H 0.0942 0.8339 0.5409
C15 C 0.2122(8) 0.8272(7) 0.4098(6)
H9 H 0.1989 0.7752 0.4006
C16 C 0.1151(7) 0.9694(6) 0.6019(5)
C21 C 0.0849(5) 0.3634(4) 0.0116(4)
H11 H 0.0324 0.3264 0.0429
C22 C 0.1443(5) 0.3871(4) 0.0569(4)
C23 C 0.2173(5) 0.4450(4) 0.0111(4)
H12 H 0.2557 0.4619 0.0427
C25 C 0.0503(6) 0.3120(5) 0.2049(4)
H13 H 0.0783 0.2488 0.1908
C26 C 0.0466(6) 0.3137(4) 0.3009(4)
C27 C 0.1174(8) 0.2428(5) 0.3444(5)
H15 H 0.1654 0.1889 0.3170
C28 C 0.1184(8) 0.2502(6) 0.4280(5)
H16 H 0.1673 0.2009 0.4569
C29 C 0.0507(6) 0.3270(5) 0.4700(4)
C32 C 0.0509(8) 0.3322(5) 0.5653(5)
C33 C 0.1433(5) 0.8662(4) 0.1156(4)
H19 H 0.1822 0.8980 0.0609
C34 C 0.0388(5) 0.8363(4) 0.2515(4)
C35 C 0.2874(5) 0.4675(4) 0.2415(4)
H21 H 0.2578 0.4315 0.2963
C36 C 0.4021(6) 0.5167(4) 0.1198(4)
H22 H 0.4723 0.5223 0.0700
N1 N 0.1476(4) 0.7791(3) 0.1238(3)
N2 N 0.0773(4) 0.7591(3) 0.2139(3)
N3 N 0.0778(4) 0.9044(3) 0.1931(3)
N4 N 0.2932(4) 0.5745(3) 0.1285(3)
N5 N 0.2165(4) 0.5423(3) 0.2094(3)
N6 N 0.4044(4) 0.4477(3) 0.1894(3)
O5 O 0.0222(5) 0.9451(4) 0.6542(3)
O7 O 0.4616(5) 0.8540(5) 0.2000(3)
O12 O 0.1320(6) 0.2789(5) 0.5947(4)
O14 O 0.1366(4) 0.3613(3) 0.1464(3)
Co8 Co 0.56245(6) 0.33618(5) 0.18964(5)
O19 O 0.0613(4) 0.6514(3) 0.0806(3)
O20 O 0.0418(6) 0.6071(3) 0.3891(3)
Co3 Co 0.43755(6) 0.66382(5) 0.81036(5)
C1 C 0.4784(5) 0.7441(4) 0.9315(4)
C2 C 0.5255(5) 0.7948(4) 0.9723(4)
C3 C 0.6161(5) 0.8375(4) 0.9208(4)
H1 H 0.6494 0.8372 0.8573
C4 C 0.6573(5) 0.8815(4) 0.9651(4)
C8 C 0.7617(6) 0.9211(4) 0.9119(5)
C17 C 0.3082(5) 0.5462(3) 0.8736(4)
C18 C 0.2351(5) 0.4787(4) 0.9195(4)
C19 C 0.1791(5) 0.4523(4) 0.8720(4)
H10 H 0.1919 0.4728 0.8097
C20 C 0.1037(5) 0.3948(4) 0.9192(4)
C24 C 0.0329(5) 0.3735(4) 0.8713(4)
C37 C 0.2014(5) 0.8252(4) 0.7847(4)
H23 H 0.2335 0.8345 0.7207
C38 C 0.0856(5) 0.8347(4) 0.9181(4)
H24 H 0.0171 0.8528 0.9696
N7 N 0.1861(4) 0.7733(3) 0.9232(3)
N8 N 0.2644(4) 0.7663(3) 0.8346(3)
N9 N 0.0878(4) 0.8712(3) 0.8313(3)
O1 O 0.4099(4) 0.6967(3) 0.9847(3)
O2 O 0.5084(4) 0.7513(3) 0.8448(3)
O3 O 0.8040(4) 0.9225(3) 0.8250(3)
O4 O 0.8097(4) 0.9496(3) 0.9531(3)
O8 O 0.3292(3) 0.5855(2) 0.9247(3)
O9 O 0.3483(4) 0.5628(3) 0.7887(3)
O10 O 0.0702(3) 0.3841(3) 0.7843(3)
O15 O 0.4973(5) 0.7106(4) 0.6713(3)
H26 H 0.520(7) 0.763(3) 0.643(5)
H27 H 0.540(6) 0.654(2) 0.652(5)
Co11 Co 0.95464(7) 0.96442(5) 0.78426(5)
N10 N 0.5956(4) 0.5523(3) 0.8106(3)
N11 N 0.9122(4) 0.1288(3) 0.1687(3)
O17 O 0.9778(5) 0.0549(4) 0.3458(3)
H14 H 0.9689 0.3425 0.1982
C30 C 0.9802(8) 0.3990(6) 0.4282(5)
H17 H 0.9326 0.4526 0.4563
C31 C 0.9800(8) 0.3917(5) 0.3435(5)
H18 H 0.9326 0.4417 0.3141
H20 H 0.9894 0.8422 0.3126
O13 O 0.9582(6) 0.3929(3) 0.6109(3)
Co7 Co 0.95103(6) 0.36644(5) 0.73924(5)
O18 O 0.9298(3) 0.6159(3) 0.2157(3)
O11 O 0.9387(4) 0.3486(3) 0.9194(3)
Co5 Co 0.76490(6) 0.32039(5) 0.96895(5)
H14_2 H 0.0311 0.6575 0.8018
C30_2 C 0.0198(8) 0.6010(6) 0.5718(5)
H17_2 H 0.0674 0.5474 0.5437
C31_2 C 0.0200(8) 0.6083(5) 0.6565(5)
H18_2 H 0.0674 0.5583 0.6859
H20_2 H 0.0106 0.1578 0.6874
C1_2 C 0.5216(5) 0.2559(4) 0.0685(4)
C2_2 C 0.4745(5) 0.2052(4) 0.0277(4)
C3_2 C 0.3839(5) 0.1625(4) 0.0792(4)
H1_2 H 0.3506 0.1628 0.1427
C4_2 C 0.3427(5) 0.1185(4) 0.0349(4)
C8_2 C 0.2383(6) 0.0789(4) 0.0881(5)
C17_2 C 0.6918(5) 0.4538(3) 0.1264(4)
C18_2 C 0.7649(5) 0.5213(4) 0.0805(4)
C19_2 C 0.8209(5) 0.5477(4) 0.1280(4)
H10_2 H 0.8081 0.5272 0.1903
C20_2 C 0.8963(5) 0.6052(4) 0.0808(4)
C24_2 C 0.9671(5) 0.6265(4) 0.1287(4)
C37_2 C 0.7986(5) 0.1748(4) 0.2153(4)
H23_2 H 0.7665 0.1655 0.2793
C38_2 C 0.9144(5) 0.1653(4) 0.0819(4)
H24_2 H 0.9829 0.1472 0.0304
N7_2 N 0.8139(4) 0.2267(3) 0.0768(3)
N8_2 N 0.7356(4) 0.2337(3) 0.1654(3)
O1_2 O 0.5901(4) 0.3033(3) 0.0153(3)
O2_2 O 0.4916(4) 0.2487(3) 0.1552(3)
O4_2 O 0.1903(4) 0.0504(3) 0.0469(3)
O8_2 O 0.6708(3) 0.4145(2) 0.0753(3)
O9_2 O 0.6517(4) 0.4372(3) 0.2113(3)
O15_2 O 0.5027(5) 0.2894(4) 0.3287(3)
H26_2 H 0.480(7) 0.237(3) 0.357(5)
H27_2 H 0.460(6) 0.346(2) 0.348(5)
C5_2 C 0.3954(6) 0.1146(5) 0.9424(5)
H2_2 H 0.3677 0.0847 0.9137
C6_2 C 0.4893(6) 0.1544(6) 0.8908(4)
C7_2 C 0.5264(6) 0.2028(5) 0.9338(4)
H3_2 H 0.5860 0.2333 0.8993
C9_2 C 0.6475(7) 0.1672(8) 0.7511(5)
H4_2 H 0.6312 0.2340 0.7418
H5_2 H 0.7041 0.1408 0.7866
C10_2 C 0.7082(7) 0.1314(7) 0.6597(5)
C11_2 C 0.6905(9) 0.0545(7) 0.6457(6)
H6_2 H 0.6402 0.0233 0.6936
C12_2 C 0.7469(8) 0.0239(6) 0.5614(6)
C13_2 C 0.8278(6) 0.0628(5) 0.4907(5)
C14_2 C 0.8498(8) 0.1383(8) 0.5056(6)
H8_2 H 0.9058 0.1661 0.4591
C15_2 C 0.7878(8) 0.1728(7) 0.5902(6)
H9_2 H 0.8011 0.2248 0.5994
C16_2 C 0.8849(7) 0.0306(6) 0.3981(5)
C21_2 C 0.9151(5) 0.6366(4) 0.9884(4)
H11_2 H 0.9676 0.6736 0.9571
C22_2 C 0.8557(5) 0.6129(4) 0.9431(4)
C23_2 C 0.7827(5) 0.5550(4) 0.9889(4)
H12_2 H 0.7443 0.5381 0.9573
C25_2 C 0.9497(6) 0.6880(5) 0.7951(4)
H13_2 H 0.9217 0.7512 0.8092
C26_2 C 0.9534(6) 0.6863(4) 0.6991(4)
C27_2 C 0.8826(8) 0.7572(5) 0.6556(5)
H15_2 H 0.8346 0.8111 0.6830
C28_2 C 0.8816(8) 0.7498(6) 0.5720(5)
H16_2 H 0.8327 0.7991 0.5431
C29_2 C 0.9493(6) 0.6730(5) 0.5300(4)
C32_2 C 0.9491(8) 0.6678(5) 0.4347(5)
C33_2 C 0.8567(5) 0.1338(4) 0.8844(4)
H19_2 H 0.8178 0.1020 0.9391
C34_2 C 0.9612(5) 0.1637(4) 0.7485(4)
C35_2 C 0.7126(5) 0.5325(4) 0.7585(4)
H21_2 H 0.7422 0.5685 0.7037
C36_2 C 0.5979(6) 0.4833(4) 0.8802(4)
H22_2 H 0.5277 0.4777 0.9300
N1_2 N 0.8524(4) 0.2209(3) 0.8762(3)
N2_2 N 0.9227(4) 0.2409(3) 0.7861(3)
N3_2 N 0.9222(4) 0.0956(3) 0.8069(3)
N4_2 N 0.7068(4) 0.4255(3) 0.8715(3)
N5_2 N 0.7835(4) 0.4577(3) 0.7906(3)
O7_2 O 0.5384(5) 0.1460(5) 0.8000(3)
O12_2 O 0.8680(6) 0.7211(5) 0.4053(4)
O14_2 O 0.8634(4) 0.6387(3) 0.8536(3)
H7_2 H 0.7292 0.9742 0.5519
O6_2 O 0.8388(6) 0.9837(5) 0.3767(4)
H25_2 H 0.8795 0.9709 0.3241
loop_
_geom_bond_atom_site_label_1
_geom_bond_atom_site_label_2
_geom_bond_site_symmetry_1
_geom_bond_site_symmetry_2
H25 O6 1_555 1_555
O16 Co4 1_555 1_555
Co1 N1 1_555 1_555
Co2 N2 1_555 1_555
H2 C5 1_555 1_555
C6 C5 1_555 1_555
H3 C7 1_555 1_555
C9 H4 1_555 1_555
H5 C9 1_555 1_555
C10 C9 1_555 1_555
C11 C10 1_555 1_555
H6 C11 1_555 1_555
C12 C11 1_555 1_555
C13 C12 1_555 1_555
C14 C13 1_555 1_555
H8 C14 1_555 1_555
C15 C10 1_555 1_555
H9 C15 1_555 1_555
C16 C13 1_555 1_555
H11 C21 1_555 1_555
C22 C21 1_555 1_555
H12 C23 1_555 1_555
C25 H13 1_555 1_555
C26 C25 1_555 1_555
C27 C26 1_555 1_555
H15 C27 1_555 1_555
C28 C27 1_555 1_555
H16 C28 1_555 1_555
C29 C28 1_555 1_555
C32 C29 1_555 1_555
C33 H19 1_555 1_555
C35 H21 1_555 1_555
C36 H22 1_555 1_555
N1 C33 1_555 1_555
N2 C34 1_555 1_555
N3 C33 1_555 1_555
N4 Co1 1_555 1_555
N5 Co2 1_555 1_555
N6 C35 1_555 1_555
O5 C16 1_555 1_555
O7 C6 1_555 1_555
O12 C32 1_555 1_555
O14 C22 1_555 1_555
Co8 N6 1_555 1_555
O19 Co1 1_555 1_555
O20 Co2 1_555 1_555
C6 C7 1_555 1_555
C9 O7 1_555 1_555
C14 C15 1_555 1_555
C22 C23 1_555 1_555
C25 O14 1_555 1_555
C34 N3 1_555 1_555
C35 N5 1_555 1_555
C36 N4 1_555 1_555
C36 N6 1_555 1_555
N1 N2 1_555 1_555
N4 N5 1_555 1_555
Co3 N8 1_555 1_555
C1 C2 1_555 1_555
C2 C3 1_555 1_555
C3 H1 1_555 1_555
C4 C3 1_555 1_555
C8 C4 1_555 1_555
C17 C18 1_555 1_555
C18 C19 1_555 1_555
C19 H10 1_555 1_555
C20 C19 1_555 1_555
C24 C20 1_555 1_555
C37 H23 1_555 1_555
C38 H24 1_555 1_555
N8 C37 1_555 1_555
N9 C37 1_555 1_555
O2 Co3 1_555 1_555
O3 C8 1_555 1_555
O4 C8 1_555 1_555
O9 Co3 1_555 1_555
O10 C24 1_555 1_555
O15 Co3 1_555 1_555
H26 O15 1_555 1_555
H27 O15 1_555 1_555
Co11 O3 1_555 1_555
N10 Co3 1_555 1_555
Co3 O8 1_555 1_555
C1 O1 1_555 1_555
C1 O2 1_555 1_555
C17 O8 1_555 1_555
C17 O9 1_555 1_555
C38 N7 1_555 1_555
C38 N9 1_555 1_555
N7 N8 1_555 1_555
H17 C30 1_555 1_555
H18 C31 1_555 1_555
Co7 O13 1_555 1_555
C30 C31 1_555 1_555
Co5 O11 1_555 1_555
H17_2 C30_2 1_555 1_555
H18_2 C31_2 1_555 1_555
C30_2 C31_2 1_555 1_555
Co8 N8_2 1_555 1_555
C1_2 C2_2 1_555 1_555
C2_2 C3_2 1_555 1_555
C3_2 H1_2 1_555 1_555
C4_2 C3_2 1_555 1_555
C8_2 C4_2 1_555 1_555
C17_2 C18_2 1_555 1_555
C18_2 C19_2 1_555 1_555
C19_2 H10_2 1_555 1_555
C20_2 C19_2 1_555 1_555
C24_2 C20_2 1_555 1_555
C37_2 H23_2 1_555 1_555
C38_2 H24_2 1_555 1_555
N8_2 C37_2 1_555 1_555
N11 C37_2 1_555 1_555
O2_2 Co8 1_555 1_555
O16 C8_2 1_555 1_555
O4_2 C8_2 1_555 1_555
O9_2 Co8 1_555 1_555
O18 C24_2 1_555 1_555
O15_2 Co8 1_555 1_555
H26_2 O15_2 1_555 1_555
H27_2 O15_2 1_555 1_555
Co8 O8_2 1_555 1_555
C1_2 O1_2 1_555 1_555
C1_2 O2_2 1_555 1_555
C17_2 O8_2 1_555 1_555
C17_2 O9_2 1_555 1_555
C38_2 N7_2 1_555 1_555
C38_2 N11 1_555 1_555
N7_2 N8_2 1_555 1_555
Co5 N1_2 1_555 1_555
Co7 N2_2 1_555 1_555
H2_2 C5_2 1_555 1_555
C6_2 C5_2 1_555 1_555
H3_2 C7_2 1_555 1_555
C9_2 H4_2 1_555 1_555
H5_2 C9_2 1_555 1_555
C10_2 C9_2 1_555 1_555
C11_2 C10_2 1_555 1_555
H6_2 C11_2 1_555 1_555
C12_2 C11_2 1_555 1_555
C13_2 C12_2 1_555 1_555
C14_2 C13_2 1_555 1_555
H8_2 C14_2 1_555 1_555
C15_2 C10_2 1_555 1_555
H9_2 C15_2 1_555 1_555
C16_2 C13_2 1_555 1_555
H11_2 C21_2 1_555 1_555
C22_2 C21_2 1_555 1_555
H12_2 C23_2 1_555 1_555
C25_2 H13_2 1_555 1_555
C26_2 C25_2 1_555 1_555
C27_2 C26_2 1_555 1_555
H15_2 C27_2 1_555 1_555
C28_2 C27_2 1_555 1_555
H16_2 C28_2 1_555 1_555
C29_2 C28_2 1_555 1_555
C32_2 C29_2 1_555 1_555
C33_2 H19_2 1_555 1_555
C35_2 H21_2 1_555 1_555
C36_2 H22_2 1_555 1_555
N1_2 C33_2 1_555 1_555
N2_2 C34_2 1_555 1_555
N3_2 C33_2 1_555 1_555
N4_2 Co5 1_555 1_555
N5_2 Co7 1_555 1_555
N10 C35_2 1_555 1_555
O17 C16_2 1_555 1_555
O7_2 C6_2 1_555 1_555
O12_2 C32_2 1_555 1_555
O14_2 C22_2 1_555 1_555
C6_2 C7_2 1_555 1_555
C9_2 O7_2 1_555 1_555
C14_2 C15_2 1_555 1_555
C22_2 C23_2 1_555 1_555
C25_2 O14_2 1_555 1_555
C34_2 N3_2 1_555 1_555
C35_2 N5_2 1_555 1_555
C36_2 N4_2 1_555 1_555
C36_2 N10 1_555 1_555
N1_2 N2_2 1_555 1_555
N4_2 N5_2 1_555 1_555
H25_2 O6_2 1_555 1_555

#END
