
###############################################################################
#
# This file contains modified crystal structure data generated from the
# MOF subset of the Cambridge Structural Database (CSD) v543 
# hosted by the Cambridge Crystallographic Data Centre (CCDC).
#
# This work is licensed under the Creative Commons
# Attribution-NonCommercial-ShareAlike 4.0 International License.
# To view a copy of this license, visit
# http://creativecommons.org/licenses/by-nc-sa/4.0/
# or send a letter to
# Creative Commons, PO Box 1866, Mountain View, CA 94042, USA.
#
# CIF created using the CSD Python API on 29 September 2022
# The structure has been converted into the P1 space group
# The structure has a 3D framework
# The original CSD entry KOSJOT is in the rhombohedral crystal system
# The framework has been calculated to contain at least 10.0% void space
# The void calculation uses a probe of radius 1.32A, grid spacing 0.4
#
###############################################################################

data_KOSJOT
_chemical_formula_moiety         '(C72 H18 Co6 O44)n'
_symmetry_cell_setting           triclinic
_symmetry_space_group_name_H-M   'P 1'
_symmetry_Int_Tables_number      1
_space_group_name_Hall           'P 1'
loop_
_symmetry_equiv_pos_site_id
_symmetry_equiv_pos_as_xyz
1 x,y,z
_cell_length_a                   25.8826(10)
_cell_length_b                   25.8826
_cell_length_c                   6.8030(4)
_cell_angle_alpha                90
_cell_angle_beta                 90
_cell_angle_gamma                120
_cell_volume                     3946.82
loop_
_atom_site_label
_atom_site_type_symbol
_atom_site_fract_x
_atom_site_fract_y
_atom_site_fract_z
_atom_site_U_iso_or_equiv
_atom_site_thermal_displace_type
Co6 Co 0.6612(21) 0.0394(11) 0.238(4) 0.0010 Uiso
O9 O 0.6448(8) 0.0147(6) 0.7590(21) 0.0150 Uiso
O11 O 0.7032(6) 0.0218(8) 0.4256(21) 0.0150 Uiso
Co9 Co 0.7115(18) 0.0054(21) 0.904(4) 0.0010 Uiso
C3 C 0.6414(6) 0.8680(5) 0.0453(23) 0.0150 Uiso
C4 C 0.6341(4) 0.9101(5) 0.1627(20) 0.0072 Uiso
O2 O 0.6520(6) 0.9635(6) 0.0923(21) 0.0150 Uiso
O3 O 0.6119(6) 0.8957(6) 0.3360(22) 0.0140 Uiso
C5 C 0.6287(7) 0.8143(4) 0.1428(29) 0.0090 Uiso
H2 H 0.6210(15) 0.8105(8) 0.272(6) 0.0270 Uiso
C6 C 0.6414(6) 0.7734(8) 0.0453(23) 0.0150 Uiso
C7 C 0.6341(4) 0.7240(6) 0.1627(20) 0.0072 Uiso
O4 O 0.6520(6) 0.6885(8) 0.0923(21) 0.0150 Uiso
O5 O 0.6119(6) 0.7162(8) 0.3360(22) 0.0140 Uiso
Co3 Co 0.6273(11) 0.9552(18) 0.571(4) 0.0010 Uiso
Co4 Co 0.6273(11) 0.6721(21) 0.571(4) 0.0010 Uiso
Co8 Co 0.6612(21) 0.6219(18) 0.238(4) 0.0010 Uiso
C1 C 0.6567(6) 0.8755(5) 0.8355(22) 0.0120 Uiso
C2 C 0.6672(8) 0.8336(4) 0.7458(34) 0.0100 Uiso
H1 H 0.6775(19) 0.8387(9) 0.599(8) 0.0680 Uiso
O1 O 0.6732(5) 0.9279(5) 0.7474(23) 0.0080 Uiso
C8 C 0.6567(6) 0.7812(8) 0.8355(22) 0.0120 Uiso
O6 O 0.6732(5) 0.7453(7) 0.7474(23) 0.0080 Uiso
O7 O 0.5880(7) 0.9935(5) 0.4141(23) 0.0080 Uiso
O8 O 0.5880(7) 0.5946(5) 0.4141(23) 0.0080 Uiso
O10 O 0.6448(8) 0.6302(6) 0.7590(21) 0.0150 Uiso
O12 O 0.7032(6) 0.6813(6) 0.4256(21) 0.0150 Uiso
Co10 Co 0.7115(18) 0.7060(11) 0.904(4) 0.0010 Uiso
Co8_2 Co 0.3781(18) 0.0394(28) 0.238(4) 0.0010 Uiso
O10_2 O 0.3698(6) 0.0147(10) 0.7590(21) 0.0150 Uiso
O12_2 O 0.3187(6) 0.0218(8) 0.4256(21) 0.0150 Uiso
Co10_2 Co 0.2940(11) 0.0054(21) 0.904(4) 0.0010 Uiso
C3_2 C 0.1320(5) 0.7734(8) 0.0453(23) 0.0150 Uiso
C4_2 C 0.0899(5) 0.7240(6) 0.1627(20) 0.0072 Uiso
O2_2 O 0.0365(6) 0.6885(8) 0.0923(21) 0.0150 Uiso
O3_2 O 0.1043(6) 0.7162(8) 0.3360(22) 0.0140 Uiso
C5_2 C 0.1857(4) 0.8144(8) 0.1428(29) 0.0090 Uiso
H2_2 H 0.1895(8) 0.8105(17) 0.272(6) 0.0270 Uiso
C6_2 C 0.2266(8) 0.8680(10) 0.0453(23) 0.0150 Uiso
C7_2 C 0.2760(6) 0.9101(7) 0.1627(20) 0.0072 Uiso
O4_2 O 0.3115(8) 0.9635(10) 0.0923(21) 0.0150 Uiso
O5_2 O 0.2838(8) 0.8957(10) 0.3360(22) 0.0140 Uiso
Co3_2 Co 0.0448(18) 0.6721(21) 0.571(4) 0.0010 Uiso
Co4_2 Co 0.3279(21) 0.9552(24) 0.571(4) 0.0010 Uiso
C1_2 C 0.1245(5) 0.7812(8) 0.8355(22) 0.0120 Uiso
C2_2 C 0.1664(4) 0.8336(9) 0.7458(34) 0.0100 Uiso
H1_2 H 0.1613(9) 0.8388(21) 0.599(8) 0.0680 Uiso
O1_2 O 0.0721(5) 0.7453(7) 0.7474(23) 0.0080 Uiso
C8_2 C 0.2188(8) 0.8755(10) 0.8355(22) 0.0120 Uiso
O6_2 O 0.2547(7) 0.9279(9) 0.7474(23) 0.0080 Uiso
O7_2 O 0.0065(5) 0.5946(9) 0.4141(23) 0.0080 Uiso
O8_2 O 0.4054(5) 0.9935(9) 0.4141(23) 0.0080 Uiso
Co6_2 Co 0.9606(11) 0.6219(24) 0.238(4) 0.0010 Uiso
O9_2 O 0.9853(6) 0.6302(10) 0.7590(21) 0.0150 Uiso
O11_2 O 0.9782(8) 0.6813(10) 0.4256(21) 0.0150 Uiso
Co9_2 Co 0.9946(21) 0.7060(28) 0.904(4) 0.0010 Uiso
C3_3 C 0.2266(8) 0.3586(6) 0.0453(23) 0.0150 Uiso
C4_3 C 0.2760(6) 0.3659(4) 0.1627(20) 0.0072 Uiso
O2_3 O 0.3115(8) 0.3480(6) 0.0923(21) 0.0150 Uiso
O3_3 O 0.2838(8) 0.3881(6) 0.3360(22) 0.0140 Uiso
C5_3 C 0.1856(8) 0.3713(7) 0.1428(29) 0.0090 Uiso
H2_3 H 0.1895(17) 0.3790(15) 0.272(6) 0.0270 Uiso
C6_3 C 0.1320(10) 0.3586(6) 0.0453(23) 0.0150 Uiso
C7_3 C 0.0899(7) 0.3659(4) 0.1627(20) 0.0072 Uiso
O4_3 O 0.0365(10) 0.3480(6) 0.0923(21) 0.0150 Uiso
O5_3 O 0.1043(10) 0.3881(6) 0.3360(22) 0.0140 Uiso
Co3_3 Co 0.3279(21) 0.3727(11) 0.571(4) 0.0010 Uiso
Co4_3 Co 0.0448(24) 0.3727(11) 0.571(4) 0.0010 Uiso
Co6_3 Co 0.3781(24) 0.3388(21) 0.238(4) 0.0010 Uiso
C1_3 C 0.2188(8) 0.3433(6) 0.8355(22) 0.0120 Uiso
C2_3 C 0.1664(9) 0.3328(8) 0.7458(34) 0.0100 Uiso
H1_3 H 0.1612(21) 0.3225(19) 0.599(8) 0.0680 Uiso
O1_3 O 0.2547(7) 0.3268(5) 0.7474(23) 0.0080 Uiso
C8_3 C 0.1245(10) 0.3433(6) 0.8355(22) 0.0120 Uiso
O6_3 O 0.0721(9) 0.3268(5) 0.7474(23) 0.0080 Uiso
O7_3 O 0.4054(9) 0.4120(7) 0.4141(23) 0.0080 Uiso
O8_3 O 0.0065(9) 0.4120(7) 0.4141(23) 0.0080 Uiso
O9_3 O 0.3698(10) 0.3552(8) 0.7590(21) 0.0150 Uiso
O11_3 O 0.3187(10) 0.2968(6) 0.4256(21) 0.0150 Uiso
Co9_3 Co 0.2940(28) 0.2885(18) 0.904(4) 0.0010 Uiso
Co8_3 Co 0.9606(28) 0.3388(21) 0.238(4) 0.0010 Uiso
O10_3 O 0.9853(10) 0.3552(8) 0.7590(21) 0.0150 Uiso
O12_3 O 0.9782(8) 0.2968(6) 0.4256(21) 0.0150 Uiso
Co10_3 Co 0.9946(21) 0.2885(18) 0.904(4) 0.0010 Uiso
C2_4 C 0.0005(8) 0.5003(4) 0.4125(34) 0.0100 Uiso
H1_4 H 0.0108(19) 0.5054(9) 0.266(8) 0.0680 Uiso
O3_4 O 0.9452(6) 0.5624(6) 0.0027(22) 0.0140 Uiso
O5_4 O 0.9452(6) 0.3829(8) 0.0027(22) 0.0140 Uiso
C1_4 C 0.9900(6) 0.5422(5) 0.5022(22) 0.0120 Uiso
C3_4 C 0.9747(6) 0.5347(5) 0.7120(23) 0.0150 Uiso
C4_4 C 0.9674(4) 0.5768(5) 0.8294(20) 0.0072 Uiso
C5_4 C 0.9620(7) 0.4810(4) 0.8095(29) 0.0090 Uiso
H2_4 H 0.9543(15) 0.4772(8) 0.939(6) 0.0270 Uiso
C6_4 C 0.9747(6) 0.4401(8) 0.7120(23) 0.0150 Uiso
C7_4 C 0.9674(4) 0.3907(6) 0.8294(20) 0.0072 Uiso
C8_4 C 0.9900(6) 0.4479(8) 0.5022(22) 0.0120 Uiso
O7_4 O 0.9214(7) 0.6601(5) 0.0807(23) 0.0080 Uiso
O8_4 O 0.9214(7) 0.2612(5) 0.0807(23) 0.0080 Uiso
O3_5 O 0.4376(6) 0.3829(8) 0.0027(22) 0.0140 Uiso
O5_5 O 0.6171(8) 0.5624(10) 0.0027(22) 0.0140 Uiso
C1_5 C 0.4578(5) 0.4479(8) 0.5022(22) 0.0120 Uiso
C2_5 C 0.4997(4) 0.5003(9) 0.4125(34) 0.0100 Uiso
C3_5 C 0.4653(5) 0.4401(8) 0.7120(23) 0.0150 Uiso
C4_5 C 0.4232(5) 0.3907(6) 0.8294(20) 0.0072 Uiso
H1_5 H 0.4946(9) 0.5055(21) 0.266(8) 0.0680 Uiso
C5_5 C 0.5190(4) 0.4811(8) 0.8095(29) 0.0090 Uiso
H2_5 H 0.5228(8) 0.4772(17) 0.939(6) 0.0270 Uiso
C6_5 C 0.5599(8) 0.5347(10) 0.7120(23) 0.0150 Uiso
C7_5 C 0.6093(6) 0.5768(7) 0.8294(20) 0.0072 Uiso
C8_5 C 0.5521(8) 0.5422(10) 0.5022(22) 0.0120 Uiso
O7_5 O 0.3399(5) 0.2612(9) 0.0807(23) 0.0080 Uiso
O8_5 O 0.7388(5) 0.6601(9) 0.0807(23) 0.0080 Uiso
O3_6 O 0.6171(8) 0.0548(6) 0.0027(22) 0.0140 Uiso
O5_6 O 0.4376(10) 0.0548(6) 0.0027(22) 0.0140 Uiso
C1_6 C 0.5521(8) 0.0100(6) 0.5022(22) 0.0120 Uiso
C3_6 C 0.5599(8) 0.0253(6) 0.7120(23) 0.0150 Uiso
C4_6 C 0.6093(6) 0.0326(4) 0.8294(20) 0.0072 Uiso
C5_6 C 0.5189(8) 0.0380(7) 0.8095(29) 0.0090 Uiso
H2_6 H 0.5228(17) 0.0457(15) 0.939(6) 0.0270 Uiso
C6_6 C 0.4653(10) 0.0253(6) 0.7120(23) 0.0150 Uiso
C7_6 C 0.4232(7) 0.0326(4) 0.8294(20) 0.0072 Uiso
C8_6 C 0.4578(10) 0.0100(6) 0.5022(22) 0.0120 Uiso
O7_6 O 0.7388(9) 0.0786(7) 0.0807(23) 0.0080 Uiso
O8_6 O 0.3399(9) 0.0786(7) 0.0807(23) 0.0080 Uiso
C2_6 C 0.4997(9) 0.9995(8) 0.4125(34) 0.0100 Uiso
H1_6 H 0.4945(21) 0.9892(19) 0.266(8) 0.0680 Uiso
C1_7 C 0.3234(6) 0.2088(5) 0.1688(22) 0.0120 Uiso
C2_7 C 0.3339(8) 0.1669(4) 0.0791(34) 0.0100 Uiso
C3_7 C 0.3081(6) 0.2013(5) 0.3786(23) 0.0150 Uiso
C4_7 C 0.3008(4) 0.2434(5) 0.4960(20) 0.0072 Uiso
O3_7 O 0.2786(6) 0.2290(6) 0.6693(22) 0.0140 Uiso
C5_7 C 0.2954(7) 0.1476(4) 0.4761(29) 0.0090 Uiso
H2_7 H 0.2877(15) 0.1438(8) 0.605(6) 0.0270 Uiso
C6_7 C 0.3081(6) 0.1067(8) 0.3786(23) 0.0150 Uiso
C7_7 C 0.3008(4) 0.0573(6) 0.4960(20) 0.0072 Uiso
O5_7 O 0.2786(6) 0.0495(8) 0.6693(22) 0.0140 Uiso
C8_7 C 0.3234(6) 0.1145(8) 0.1688(22) 0.0120 Uiso
H1_7 H 0.3442(19) 0.1720(9) 0.932(8) 0.0680 Uiso
C1_8 C 0.7912(5) 0.1145(8) 0.1688(22) 0.0120 Uiso
C2_8 C 0.8331(4) 0.1669(9) 0.0791(34) 0.0100 Uiso
C3_8 C 0.7987(5) 0.1067(8) 0.3786(23) 0.0150 Uiso
C4_8 C 0.7566(5) 0.0573(6) 0.4960(20) 0.0072 Uiso
O3_8 O 0.7710(6) 0.0495(8) 0.6693(22) 0.0140 Uiso
C5_8 C 0.8524(4) 0.1477(8) 0.4761(29) 0.0090 Uiso
H2_8 H 0.8562(8) 0.1438(17) 0.605(6) 0.0270 Uiso
C6_8 C 0.8933(8) 0.2013(10) 0.3786(23) 0.0150 Uiso
C7_8 C 0.9427(6) 0.2434(7) 0.4960(20) 0.0072 Uiso
O5_8 O 0.9505(8) 0.2290(10) 0.6693(22) 0.0140 Uiso
C8_8 C 0.8855(8) 0.2088(10) 0.1688(22) 0.0120 Uiso
H1_8 H 0.8280(9) 0.1721(21) 0.932(8) 0.0680 Uiso
C1_9 C 0.8855(8) 0.6766(6) 0.1688(22) 0.0120 Uiso
C2_9 C 0.8331(9) 0.6661(8) 0.0791(34) 0.0100 Uiso
C3_9 C 0.8933(8) 0.6919(6) 0.3786(23) 0.0150 Uiso
C4_9 C 0.9427(6) 0.6992(4) 0.4960(20) 0.0072 Uiso
O3_9 O 0.9505(8) 0.7214(6) 0.6693(22) 0.0140 Uiso
C5_9 C 0.8523(8) 0.7046(7) 0.4761(29) 0.0090 Uiso
H2_9 H 0.8562(17) 0.7123(15) 0.605(6) 0.0270 Uiso
C6_9 C 0.7987(10) 0.6919(6) 0.3786(23) 0.0150 Uiso
C7_9 C 0.7566(7) 0.6992(4) 0.4960(20) 0.0072 Uiso
O5_9 O 0.7710(10) 0.7214(6) 0.6693(22) 0.0140 Uiso
C8_9 C 0.7912(10) 0.6766(6) 0.1688(22) 0.0120 Uiso
H1_9 H 0.8279(21) 0.6558(19) 0.932(8) 0.0680 Uiso
loop_
_geom_bond_atom_site_label_1
_geom_bond_atom_site_label_2
_geom_bond_site_symmetry_1
_geom_bond_site_symmetry_2
O9 Co9 1_555 1_555
O11 Co6 1_555 1_555
C4 C3 1_555 1_555
O2 C4 1_555 1_555
O3 C4 1_555 1_555
C5 C3 1_555 1_555
H2 C5 1_555 1_555
C6 C5 1_555 1_555
C7 C6 1_555 1_555
O4 C7 1_555 1_555
O5 C7 1_555 1_555
Co3 O3 1_555 1_555
Co4 O5 1_555 1_555
Co8 O4 1_555 1_555
Co4 Co8 1_555 1_555
C1 C2 1_555 1_555
C2 H1 1_555 1_555
O1 C1 1_555 1_555
Co3 O1 1_555 1_555
C8 C2 1_555 1_555
O6 C8 1_555 1_555
Co4 O6 1_555 1_555
O7 Co3 1_555 1_555
O8 Co4 1_555 1_555
O10 Co4 1_555 1_555
O12 Co4 1_555 1_555
O6 Co10 1_555 1_555
Co4 Co10 1_555 1_555
O8 Co8 1_555 1_555
O10 Co10 1_555 1_555
O12 Co8 1_555 1_555
O10_2 Co10_2 1_555 1_555
O12_2 Co8_2 1_555 1_555
C4_2 C3_2 1_555 1_555
O2_2 C4_2 1_555 1_555
O3_2 C4_2 1_555 1_555
C5_2 C3_2 1_555 1_555
H2_2 C5_2 1_555 1_555
C6_2 C5_2 1_555 1_555
C7_2 C6_2 1_555 1_555
O4_2 C7_2 1_555 1_555
O5_2 C7_2 1_555 1_555
Co3_2 O3_2 1_555 1_555
Co4_2 O5_2 1_555 1_555
C1_2 C2_2 1_555 1_555
C2_2 H1_2 1_555 1_555
O1_2 C1_2 1_555 1_555
Co3_2 O1_2 1_555 1_555
C8_2 C2_2 1_555 1_555
O6_2 C8_2 1_555 1_555
Co4_2 O6_2 1_555 1_555
O7_2 Co3_2 1_555 1_555
O8_2 Co4_2 1_555 1_555
O9_2 Co9_2 1_555 1_555
O11_2 Co6_2 1_555 1_555
C4_3 C3_3 1_555 1_555
O2_3 C4_3 1_555 1_555
O3_3 C4_3 1_555 1_555
C5_3 C3_3 1_555 1_555
H2_3 C5_3 1_555 1_555
C6_3 C5_3 1_555 1_555
C7_3 C6_3 1_555 1_555
O4_3 C7_3 1_555 1_555
O5_3 C7_3 1_555 1_555
Co3_3 O3_3 1_555 1_555
Co4_3 O5_3 1_555 1_555
Co6_3 O2_3 1_555 1_555
Co3_3 Co6_3 1_555 1_555
C1_3 C2_3 1_555 1_555
C2_3 H1_3 1_555 1_555
O1_3 C1_3 1_555 1_555
Co3_3 O1_3 1_555 1_555
C8_3 C2_3 1_555 1_555
O6_3 C8_3 1_555 1_555
Co4_3 O6_3 1_555 1_555
O7_3 Co3_3 1_555 1_555
O8_3 Co4_3 1_555 1_555
O9_3 Co3_3 1_555 1_555
O11_3 Co3_3 1_555 1_555
Co9_3 O1_3 1_555 1_555
Co3_3 Co9_3 1_555 1_555
O7_3 Co6_3 1_555 1_555
O9_3 Co9_3 1_555 1_555
O11_3 Co6_3 1_555 1_555
O10_3 Co10_3 1_555 1_555
O12_3 Co8_3 1_555 1_555
C2_4 H1_4 1_555 1_555
Co6_2 O3_4 1_555 1_555
Co8_3 O5_4 1_555 1_555
C3_4 C1_4 1_555 1_555
C4_4 C3_4 1_555 1_555
O9_2 C4_4 1_555 1_555
C5_4 C3_4 1_555 1_555
H2_4 C5_4 1_555 1_555
C6_4 C5_4 1_555 1_555
C7_4 C6_4 1_555 1_555
O10_3 C7_4 1_555 1_555
O7_4 Co6_2 1_555 1_555
O8_4 Co8_3 1_555 1_555
C6_4 C8_4 1_555 1_555
Co6_3 O3_5 1_555 1_555
Co8 O5_5 1_555 1_555
C1_5 C2_5 1_555 1_555
C2_5 H1_5 1_555 1_555
C3_5 C1_5 1_555 1_555
C4_5 C3_5 1_555 1_555
O7_3 C1_5 1_555 1_555
O9_3 C4_5 1_555 1_555
C5_5 C3_5 1_555 1_555
H2_5 C5_5 1_555 1_555
C6_5 C5_5 1_555 1_555
C7_5 C6_5 1_555 1_555
O10 C7_5 1_555 1_555
C8_5 C2_5 1_555 1_555
O8 C8_5 1_555 1_555
O7_5 Co6_3 1_555 1_555
O8_5 Co8 1_555 1_555
C6_5 C8_5 1_555 1_555
Co6 O3_6 1_555 1_555
Co8_2 O5_6 1_555 1_555
C3_6 C1_6 1_555 1_555
C4_6 C3_6 1_555 1_555
O9 C4_6 1_555 1_555
C5_6 C3_6 1_555 1_555
H2_6 C5_6 1_555 1_555
C6_6 C5_6 1_555 1_555
C7_6 C6_6 1_555 1_555
O10_2 C7_6 1_555 1_555
O7_6 Co6 1_555 1_555
O8_6 Co8_2 1_555 1_555
C6_6 C8_6 1_555 1_555
C2_6 H1_6 1_555 1_555
C1_7 C2_7 1_555 1_555
C3_7 C1_7 1_555 1_555
C4_7 C3_7 1_555 1_555
O7_5 C1_7 1_555 1_555
O11_3 C4_7 1_555 1_555
O3_7 C4_7 1_555 1_555
C5_7 C3_7 1_555 1_555
H2_7 C5_7 1_555 1_555
C6_7 C5_7 1_555 1_555
C7_7 C6_7 1_555 1_555
O12_2 C7_7 1_555 1_555
O5_7 C7_7 1_555 1_555
C8_7 C2_7 1_555 1_555
O8_6 C8_7 1_555 1_555
Co9_3 O3_7 1_555 1_555
Co10_2 O5_7 1_555 1_555
C6_7 C8_7 1_555 1_555
C1_8 C2_8 1_555 1_555
C3_8 C1_8 1_555 1_555
C4_8 C3_8 1_555 1_555
O7_6 C1_8 1_555 1_555
O11 C4_8 1_555 1_555
O3_8 C4_8 1_555 1_555
C5_8 C3_8 1_555 1_555
H2_8 C5_8 1_555 1_555
C6_8 C5_8 1_555 1_555
C7_8 C6_8 1_555 1_555
O12_3 C7_8 1_555 1_555
O5_8 C7_8 1_555 1_555
C8_8 C2_8 1_555 1_555
O8_4 C8_8 1_555 1_555
Co9 O3_8 1_555 1_555
Co10_3 O5_8 1_555 1_555
C6_8 C8_8 1_555 1_555
C1_9 C2_9 1_555 1_555
C3_9 C1_9 1_555 1_555
C4_9 C3_9 1_555 1_555
O7_4 C1_9 1_555 1_555
O11_2 C4_9 1_555 1_555
O3_9 C4_9 1_555 1_555
C5_9 C3_9 1_555 1_555
H2_9 C5_9 1_555 1_555
C6_9 C5_9 1_555 1_555
C7_9 C6_9 1_555 1_555
O12 C7_9 1_555 1_555
O5_9 C7_9 1_555 1_555
C8_9 C2_9 1_555 1_555
O8_5 C8_9 1_555 1_555
Co9_2 O3_9 1_555 1_555
Co10 O5_9 1_555 1_555
C6_9 C8_9 1_555 1_555

#END
