
###############################################################################
#
# This file contains modified crystal structure data generated from the
# MOF subset of the Cambridge Structural Database (CSD) v543 
# hosted by the Cambridge Crystallographic Data Centre (CCDC).
#
# This work is licensed under the Creative Commons
# Attribution-NonCommercial-ShareAlike 4.0 International License.
# To view a copy of this license, visit
# http://creativecommons.org/licenses/by-nc-sa/4.0/
# or send a letter to
# Creative Commons, PO Box 1866, Mountain View, CA 94042, USA.
#
# CIF created using the CSD Python API on 29 September 2022
# The structure has been converted into the P1 space group
# The structure has a 3D framework
# The original CSD entry KOSJEJ is in the rhombohedral crystal system
# The framework has been calculated to contain at least 10.0% void space
# The void calculation uses a probe of radius 1.32A, grid spacing 0.4
#
###############################################################################

data_KOSJEJ
_chemical_formula_moiety         '(C72 H18 Co6 O44)n'
_symmetry_cell_setting           triclinic
_symmetry_space_group_name_H-M   'P 1'
_symmetry_Int_Tables_number      1
_space_group_name_Hall           'P 1'
loop_
_symmetry_equiv_pos_site_id
_symmetry_equiv_pos_as_xyz
1 x,y,z
_cell_length_a                   25.8518(12)
_cell_length_b                   25.8518
_cell_length_c                   6.7881(5)
_cell_angle_alpha                90
_cell_angle_beta                 90
_cell_angle_gamma                120
_cell_volume                     3928.8
loop_
_atom_site_label
_atom_site_type_symbol
_atom_site_fract_x
_atom_site_fract_y
_atom_site_fract_z
_atom_site_U_iso_or_equiv
_atom_site_thermal_displace_type
Co6 Co 0.6614(23) 0.0394(12) 0.237(4) 0.0020 Uiso
O9 O 0.6458(10) 0.0156(7) 0.7524(22) 0.0180 Uiso
O11 O 0.7031(7) 0.0208(10) 0.4190(22) 0.0180 Uiso
Co9 Co 0.7113(20) 0.0052(23) 0.903(4) 0.0020 Uiso
C3 C 0.6414(6) 0.8682(6) 0.0403(24) 0.0140 Uiso
C4 C 0.6337(5) 0.9093(5) 0.1599(20) 0.0076 Uiso
O2 O 0.6511(7) 0.9636(7) 0.0857(22) 0.0180 Uiso
O3 O 0.6103(7) 0.8947(6) 0.3379(22) 0.0100 Uiso
C5 C 0.6275(8) 0.8137(4) 0.1361(30) 0.0120 Uiso
H2 H 0.6181(18) 0.8091(9) 0.275(7) 0.0350 Uiso
C6 C 0.6414(6) 0.7732(8) 0.0403(24) 0.0140 Uiso
C7 C 0.6337(5) 0.7244(7) 0.1599(20) 0.0076 Uiso
O4 O 0.6511(7) 0.6875(10) 0.0857(22) 0.0180 Uiso
O5 O 0.6103(7) 0.7156(9) 0.3379(22) 0.0100 Uiso
Co3 Co 0.6273(12) 0.9554(20) 0.570(4) 0.0020 Uiso
Co4 Co 0.6273(12) 0.6719(23) 0.570(4) 0.0020 Uiso
Co8 Co 0.6614(23) 0.6221(20) 0.237(4) 0.0020 Uiso
C1 C 0.6567(6) 0.8752(6) 0.8373(24) 0.0100 Uiso
C2 C 0.6664(9) 0.8332(4) 0.7531(35) 0.0100 Uiso
H1 H 0.6743(19) 0.8372(10) 0.608(7) 0.0450 Uiso
O1 O 0.6723(6) 0.9273(6) 0.7433(24) 0.0050 Uiso
C8 C 0.6567(6) 0.7815(8) 0.8373(24) 0.0100 Uiso
O6 O 0.6723(6) 0.7450(8) 0.7433(24) 0.0050 Uiso
O7 O 0.5883(8) 0.9944(6) 0.4100(24) 0.0050 Uiso
O8 O 0.5883(8) 0.5940(6) 0.4100(24) 0.0050 Uiso
O10 O 0.6458(10) 0.6303(7) 0.7524(22) 0.0180 Uiso
O12 O 0.7031(7) 0.6822(7) 0.4190(22) 0.0180 Uiso
Co10 Co 0.7113(20) 0.7060(12) 0.903(4) 0.0020 Uiso
Co8_2 Co 0.3779(20) 0.0394(30) 0.237(4) 0.0020 Uiso
O10_2 O 0.3697(7) 0.0156(12) 0.7524(22) 0.0180 Uiso
O12_2 O 0.3178(7) 0.0208(10) 0.4190(22) 0.0180 Uiso
Co10_2 Co 0.2940(12) 0.0052(23) 0.903(4) 0.0020 Uiso
C3_2 C 0.1318(6) 0.7732(8) 0.0403(24) 0.0140 Uiso
C4_2 C 0.0907(5) 0.7244(7) 0.1599(20) 0.0076 Uiso
O2_2 O 0.0364(7) 0.6875(10) 0.0857(22) 0.0180 Uiso
O3_2 O 0.1053(6) 0.7156(9) 0.3379(22) 0.0100 Uiso
C5_2 C 0.1863(4) 0.8138(9) 0.1361(30) 0.0120 Uiso
H2_2 H 0.1909(9) 0.8090(20) 0.275(7) 0.0350 Uiso
C6_2 C 0.2268(8) 0.8682(10) 0.0403(24) 0.0140 Uiso
C7_2 C 0.2756(7) 0.9093(9) 0.1599(20) 0.0076 Uiso
O4_2 O 0.3125(10) 0.9636(12) 0.0857(22) 0.0180 Uiso
O5_2 O 0.2844(9) 0.8947(11) 0.3379(22) 0.0100 Uiso
Co3_2 Co 0.0446(20) 0.6719(23) 0.570(4) 0.0020 Uiso
Co4_2 Co 0.3281(23) 0.9554(26) 0.570(4) 0.0020 Uiso
C1_2 C 0.1248(6) 0.7815(8) 0.8373(24) 0.0100 Uiso
C2_2 C 0.1668(4) 0.8332(10) 0.7531(35) 0.0100 Uiso
H1_2 H 0.1628(10) 0.8371(21) 0.608(7) 0.0450 Uiso
O1_2 O 0.0727(6) 0.7450(8) 0.7433(24) 0.0050 Uiso
C8_2 C 0.2185(8) 0.8752(10) 0.8373(24) 0.0100 Uiso
O6_2 O 0.2550(8) 0.9273(10) 0.7433(24) 0.0050 Uiso
O7_2 O 0.0056(6) 0.5940(10) 0.4100(24) 0.0050 Uiso
O8_2 O 0.4060(6) 0.9944(10) 0.4100(24) 0.0050 Uiso
Co6_2 Co 0.9606(12) 0.6221(26) 0.237(4) 0.0020 Uiso
O9_2 O 0.9844(7) 0.6303(12) 0.7524(22) 0.0180 Uiso
O11_2 O 0.9792(10) 0.6822(12) 0.4190(22) 0.0180 Uiso
Co9_2 Co 0.9948(23) 0.7060(30) 0.903(4) 0.0020 Uiso
C3_3 C 0.2268(8) 0.3586(6) 0.0403(24) 0.0140 Uiso
C4_3 C 0.2756(7) 0.3663(5) 0.1599(20) 0.0076 Uiso
O2_3 O 0.3125(10) 0.3489(7) 0.0857(22) 0.0180 Uiso
O3_3 O 0.2844(9) 0.3897(7) 0.3379(22) 0.0100 Uiso
C5_3 C 0.1862(9) 0.3725(8) 0.1361(30) 0.0120 Uiso
H2_3 H 0.1910(20) 0.3819(18) 0.275(7) 0.0350 Uiso
C6_3 C 0.1318(10) 0.3586(6) 0.0403(24) 0.0140 Uiso
C7_3 C 0.0907(9) 0.3663(5) 0.1599(20) 0.0076 Uiso
O4_3 O 0.0364(12) 0.3489(7) 0.0857(22) 0.0180 Uiso
O5_3 O 0.1053(11) 0.3897(7) 0.3379(22) 0.0100 Uiso
Co3_3 Co 0.3281(23) 0.3727(12) 0.570(4) 0.0020 Uiso
Co4_3 Co 0.0446(26) 0.3727(12) 0.570(4) 0.0020 Uiso
Co6_3 Co 0.3779(26) 0.3386(23) 0.237(4) 0.0020 Uiso
C1_3 C 0.2185(8) 0.3433(6) 0.8373(24) 0.0100 Uiso
C2_3 C 0.1668(10) 0.3336(9) 0.7531(35) 0.0100 Uiso
H1_3 H 0.1629(21) 0.3257(19) 0.608(7) 0.0450 Uiso
O1_3 O 0.2550(8) 0.3277(6) 0.7433(24) 0.0050 Uiso
C8_3 C 0.1248(10) 0.3433(6) 0.8373(24) 0.0100 Uiso
O6_3 O 0.0727(10) 0.3277(6) 0.7433(24) 0.0050 Uiso
O7_3 O 0.4060(10) 0.4117(8) 0.4100(24) 0.0050 Uiso
O8_3 O 0.0056(10) 0.4117(8) 0.4100(24) 0.0050 Uiso
O9_3 O 0.3697(12) 0.3542(10) 0.7524(22) 0.0180 Uiso
O11_3 O 0.3178(12) 0.2969(7) 0.4190(22) 0.0180 Uiso
Co9_3 Co 0.2940(30) 0.2887(20) 0.903(4) 0.0020 Uiso
Co8_3 Co 0.9606(30) 0.3386(23) 0.237(4) 0.0020 Uiso
O10_3 O 0.9844(12) 0.3542(10) 0.7524(22) 0.0180 Uiso
O12_3 O 0.9792(10) 0.2969(7) 0.4190(22) 0.0180 Uiso
Co10_3 Co 0.9948(23) 0.2887(20) 0.903(4) 0.0020 Uiso
H1_4 H 0.0076(19) 0.5039(10) 0.275(7) 0.0450 Uiso
O3_4 O 0.9436(7) 0.5614(6) 0.0046(22) 0.0100 Uiso
O5_4 O 0.9436(7) 0.3823(9) 0.0046(22) 0.0100 Uiso
C1_4 C 0.9900(6) 0.5419(6) 0.5040(24) 0.0100 Uiso
C2_4 C 0.9997(9) 0.4999(4) 0.4198(35) 0.0100 Uiso
C3_4 C 0.9747(6) 0.5349(6) 0.7070(24) 0.0140 Uiso
C4_4 C 0.9670(5) 0.5760(5) 0.8266(20) 0.0076 Uiso
C5_4 C 0.9608(8) 0.4804(4) 0.8028(30) 0.0120 Uiso
H2_4 H 0.9514(18) 0.4758(9) 0.942(7) 0.0350 Uiso
C6_4 C 0.9747(6) 0.4399(8) 0.7070(24) 0.0140 Uiso
C7_4 C 0.9670(5) 0.3911(7) 0.8266(20) 0.0076 Uiso
C8_4 C 0.9900(6) 0.4482(8) 0.5040(24) 0.0100 Uiso
O7_4 O 0.9217(8) 0.6610(6) 0.0766(24) 0.0050 Uiso
O8_4 O 0.9217(8) 0.2606(6) 0.0766(24) 0.0050 Uiso
O3_5 O 0.4386(6) 0.3823(9) 0.0046(22) 0.0100 Uiso
O5_5 O 0.6177(9) 0.5614(11) 0.0046(22) 0.0100 Uiso
C1_5 C 0.4581(6) 0.4482(8) 0.5040(24) 0.0100 Uiso
C2_5 C 0.5001(4) 0.4999(10) 0.4198(35) 0.0100 Uiso
C3_5 C 0.4651(6) 0.4399(8) 0.7070(24) 0.0140 Uiso
C4_5 C 0.4240(5) 0.3911(7) 0.8266(20) 0.0076 Uiso
H1_5 H 0.4961(10) 0.5038(21) 0.275(7) 0.0450 Uiso
C5_5 C 0.5196(4) 0.4805(9) 0.8028(30) 0.0120 Uiso
H2_5 H 0.5242(9) 0.4757(20) 0.942(7) 0.0350 Uiso
C6_5 C 0.5601(8) 0.5349(10) 0.7070(24) 0.0140 Uiso
C7_5 C 0.6089(7) 0.5760(9) 0.8266(20) 0.0076 Uiso
C8_5 C 0.5518(8) 0.5419(10) 0.5040(24) 0.0100 Uiso
O7_5 O 0.3390(6) 0.2606(10) 0.0766(24) 0.0050 Uiso
O8_5 O 0.7394(6) 0.6610(10) 0.0766(24) 0.0050 Uiso
O3_6 O 0.6177(9) 0.0564(7) 0.0046(22) 0.0100 Uiso
O5_6 O 0.4386(11) 0.0564(7) 0.0046(22) 0.0100 Uiso
C1_6 C 0.5518(8) 0.0100(6) 0.5040(24) 0.0100 Uiso
C2_6 C 0.5001(10) 0.0003(9) 0.4198(35) 0.0100 Uiso
C3_6 C 0.5601(8) 0.0253(6) 0.7070(24) 0.0140 Uiso
C4_6 C 0.6089(7) 0.0330(5) 0.8266(20) 0.0076 Uiso
C5_6 C 0.5195(9) 0.0392(8) 0.8028(30) 0.0120 Uiso
H2_6 H 0.5243(20) 0.0486(18) 0.942(7) 0.0350 Uiso
C6_6 C 0.4651(10) 0.0253(6) 0.7070(24) 0.0140 Uiso
C7_6 C 0.4240(9) 0.0330(5) 0.8266(20) 0.0076 Uiso
C8_6 C 0.4581(10) 0.0100(6) 0.5040(24) 0.0100 Uiso
O7_6 O 0.7394(10) 0.0783(8) 0.0766(24) 0.0050 Uiso
O8_6 O 0.3390(10) 0.0783(8) 0.0766(24) 0.0050 Uiso
H1_6 H 0.4962(21) 0.9924(19) 0.275(7) 0.0450 Uiso
C1_7 C 0.3234(6) 0.2085(6) 0.1706(24) 0.0100 Uiso
C2_7 C 0.3331(9) 0.1665(4) 0.0864(35) 0.0100 Uiso
C3_7 C 0.3081(6) 0.2015(6) 0.3736(24) 0.0140 Uiso
C4_7 C 0.3004(5) 0.2426(5) 0.4932(20) 0.0076 Uiso
O3_7 O 0.2770(7) 0.2280(6) 0.6712(22) 0.0100 Uiso
C5_7 C 0.2942(8) 0.1470(4) 0.4694(30) 0.0120 Uiso
H2_7 H 0.2848(18) 0.1424(9) 0.608(7) 0.0350 Uiso
C6_7 C 0.3081(6) 0.1065(8) 0.3736(24) 0.0140 Uiso
C7_7 C 0.3004(5) 0.0577(7) 0.4932(20) 0.0076 Uiso
O5_7 O 0.2770(7) 0.0489(9) 0.6712(22) 0.0100 Uiso
C8_7 C 0.3234(6) 0.1148(8) 0.1706(24) 0.0100 Uiso
H1_7 H 0.3410(19) 0.1705(10) 0.941(7) 0.0450 Uiso
C1_8 C 0.7915(6) 0.1148(8) 0.1706(24) 0.0100 Uiso
C2_8 C 0.8335(4) 0.1665(10) 0.0864(35) 0.0100 Uiso
C3_8 C 0.7985(6) 0.1065(8) 0.3736(24) 0.0140 Uiso
C4_8 C 0.7574(5) 0.0577(7) 0.4932(20) 0.0076 Uiso
O3_8 O 0.7720(6) 0.0489(9) 0.6712(22) 0.0100 Uiso
C5_8 C 0.8530(4) 0.1471(9) 0.4694(30) 0.0120 Uiso
H2_8 H 0.8576(9) 0.1423(20) 0.608(7) 0.0350 Uiso
C6_8 C 0.8935(8) 0.2015(10) 0.3736(24) 0.0140 Uiso
C7_8 C 0.9423(7) 0.2426(9) 0.4932(20) 0.0076 Uiso
O5_8 O 0.9511(9) 0.2280(11) 0.6712(22) 0.0100 Uiso
C8_8 C 0.8852(8) 0.2085(10) 0.1706(24) 0.0100 Uiso
H1_8 H 0.8295(10) 0.1704(21) 0.941(7) 0.0450 Uiso
C1_9 C 0.8852(8) 0.6766(6) 0.1706(24) 0.0100 Uiso
C2_9 C 0.8335(10) 0.6669(9) 0.0864(35) 0.0100 Uiso
C3_9 C 0.8935(8) 0.6919(6) 0.3736(24) 0.0140 Uiso
C4_9 C 0.9423(7) 0.6996(5) 0.4932(20) 0.0076 Uiso
O3_9 O 0.9511(9) 0.7230(7) 0.6712(22) 0.0100 Uiso
C5_9 C 0.8529(9) 0.7058(8) 0.4694(30) 0.0120 Uiso
H2_9 H 0.8577(20) 0.7152(18) 0.608(7) 0.0350 Uiso
C6_9 C 0.7985(10) 0.6919(6) 0.3736(24) 0.0140 Uiso
C7_9 C 0.7574(9) 0.6996(5) 0.4932(20) 0.0076 Uiso
O5_9 O 0.7720(11) 0.7230(7) 0.6712(22) 0.0100 Uiso
C8_9 C 0.7915(10) 0.6766(6) 0.1706(24) 0.0100 Uiso
H1_9 H 0.8296(21) 0.6590(19) 0.941(7) 0.0450 Uiso
loop_
_geom_bond_atom_site_label_1
_geom_bond_atom_site_label_2
_geom_bond_site_symmetry_1
_geom_bond_site_symmetry_2
O9 Co9 1_555 1_555
O11 Co6 1_555 1_555
C4 C3 1_555 1_555
O2 C4 1_555 1_555
O3 C4 1_555 1_555
C5 C3 1_555 1_555
H2 C5 1_555 1_555
C6 C5 1_555 1_555
C7 C6 1_555 1_555
O4 C7 1_555 1_555
O5 C7 1_555 1_555
Co3 O3 1_555 1_555
Co4 O5 1_555 1_555
Co8 O4 1_555 1_555
Co4 Co8 1_555 1_555
C1 C2 1_555 1_555
C2 H1 1_555 1_555
O1 C1 1_555 1_555
Co3 O1 1_555 1_555
C8 C2 1_555 1_555
O6 C8 1_555 1_555
Co4 O6 1_555 1_555
O7 Co3 1_555 1_555
O8 Co4 1_555 1_555
O10 Co4 1_555 1_555
O12 Co4 1_555 1_555
O6 Co10 1_555 1_555
Co4 Co10 1_555 1_555
O8 Co8 1_555 1_555
O10 Co10 1_555 1_555
O12 Co8 1_555 1_555
O10_2 Co10_2 1_555 1_555
O12_2 Co8_2 1_555 1_555
C4_2 C3_2 1_555 1_555
O2_2 C4_2 1_555 1_555
O3_2 C4_2 1_555 1_555
C5_2 C3_2 1_555 1_555
H2_2 C5_2 1_555 1_555
C6_2 C5_2 1_555 1_555
C7_2 C6_2 1_555 1_555
O4_2 C7_2 1_555 1_555
O5_2 C7_2 1_555 1_555
Co3_2 O3_2 1_555 1_555
Co4_2 O5_2 1_555 1_555
C1_2 C2_2 1_555 1_555
C2_2 H1_2 1_555 1_555
O1_2 C1_2 1_555 1_555
Co3_2 O1_2 1_555 1_555
C8_2 C2_2 1_555 1_555
O6_2 C8_2 1_555 1_555
Co4_2 O6_2 1_555 1_555
O7_2 Co3_2 1_555 1_555
O8_2 Co4_2 1_555 1_555
O9_2 Co9_2 1_555 1_555
O11_2 Co6_2 1_555 1_555
C4_3 C3_3 1_555 1_555
O2_3 C4_3 1_555 1_555
O3_3 C4_3 1_555 1_555
C5_3 C3_3 1_555 1_555
H2_3 C5_3 1_555 1_555
C6_3 C5_3 1_555 1_555
C7_3 C6_3 1_555 1_555
O4_3 C7_3 1_555 1_555
O5_3 C7_3 1_555 1_555
Co3_3 O3_3 1_555 1_555
Co4_3 O5_3 1_555 1_555
Co6_3 O2_3 1_555 1_555
Co3_3 Co6_3 1_555 1_555
C1_3 C2_3 1_555 1_555
C2_3 H1_3 1_555 1_555
O1_3 C1_3 1_555 1_555
Co3_3 O1_3 1_555 1_555
C8_3 C2_3 1_555 1_555
O6_3 C8_3 1_555 1_555
Co4_3 O6_3 1_555 1_555
O7_3 Co3_3 1_555 1_555
O8_3 Co4_3 1_555 1_555
O9_3 Co3_3 1_555 1_555
O11_3 Co3_3 1_555 1_555
Co9_3 O1_3 1_555 1_555
Co3_3 Co9_3 1_555 1_555
O7_3 Co6_3 1_555 1_555
O9_3 Co9_3 1_555 1_555
O11_3 Co6_3 1_555 1_555
O10_3 Co10_3 1_555 1_555
O12_3 Co8_3 1_555 1_555
Co6_2 O3_4 1_555 1_555
Co8_3 O5_4 1_555 1_555
C1_4 C2_4 1_555 1_555
C3_4 C1_4 1_555 1_555
C4_4 C3_4 1_555 1_555
O9_2 C4_4 1_555 1_555
C5_4 C3_4 1_555 1_555
H2_4 C5_4 1_555 1_555
C6_4 C5_4 1_555 1_555
C7_4 C6_4 1_555 1_555
O10_3 C7_4 1_555 1_555
C8_4 C2_4 1_555 1_555
O7_4 Co6_2 1_555 1_555
O8_4 Co8_3 1_555 1_555
C6_4 C8_4 1_555 1_555
Co6_3 O3_5 1_555 1_555
Co8 O5_5 1_555 1_555
C1_5 C2_5 1_555 1_555
C2_5 H1_5 1_555 1_555
C3_5 C1_5 1_555 1_555
C4_5 C3_5 1_555 1_555
O7_3 C1_5 1_555 1_555
O9_3 C4_5 1_555 1_555
C5_5 C3_5 1_555 1_555
H2_5 C5_5 1_555 1_555
C6_5 C5_5 1_555 1_555
C7_5 C6_5 1_555 1_555
O10 C7_5 1_555 1_555
C8_5 C2_5 1_555 1_555
O8 C8_5 1_555 1_555
O7_5 Co6_3 1_555 1_555
O8_5 Co8 1_555 1_555
C6_5 C8_5 1_555 1_555
Co6 O3_6 1_555 1_555
Co8_2 O5_6 1_555 1_555
C1_6 C2_6 1_555 1_555
C3_6 C1_6 1_555 1_555
C4_6 C3_6 1_555 1_555
O9 C4_6 1_555 1_555
C5_6 C3_6 1_555 1_555
H2_6 C5_6 1_555 1_555
C6_6 C5_6 1_555 1_555
C7_6 C6_6 1_555 1_555
O10_2 C7_6 1_555 1_555
C8_6 C2_6 1_555 1_555
O7_6 Co6 1_555 1_555
O8_6 Co8_2 1_555 1_555
C6_6 C8_6 1_555 1_555
C1_7 C2_7 1_555 1_555
C3_7 C1_7 1_555 1_555
C4_7 C3_7 1_555 1_555
O7_5 C1_7 1_555 1_555
O11_3 C4_7 1_555 1_555
O3_7 C4_7 1_555 1_555
C5_7 C3_7 1_555 1_555
H2_7 C5_7 1_555 1_555
C6_7 C5_7 1_555 1_555
C7_7 C6_7 1_555 1_555
O12_2 C7_7 1_555 1_555
O5_7 C7_7 1_555 1_555
C8_7 C2_7 1_555 1_555
O8_6 C8_7 1_555 1_555
Co9_3 O3_7 1_555 1_555
Co10_2 O5_7 1_555 1_555
C6_7 C8_7 1_555 1_555
C1_8 C2_8 1_555 1_555
C3_8 C1_8 1_555 1_555
C4_8 C3_8 1_555 1_555
O7_6 C1_8 1_555 1_555
O11 C4_8 1_555 1_555
O3_8 C4_8 1_555 1_555
C5_8 C3_8 1_555 1_555
H2_8 C5_8 1_555 1_555
C6_8 C5_8 1_555 1_555
C7_8 C6_8 1_555 1_555
O12_3 C7_8 1_555 1_555
O5_8 C7_8 1_555 1_555
C8_8 C2_8 1_555 1_555
O8_4 C8_8 1_555 1_555
Co9 O3_8 1_555 1_555
Co10_3 O5_8 1_555 1_555
C6_8 C8_8 1_555 1_555
C1_9 C2_9 1_555 1_555
C3_9 C1_9 1_555 1_555
C4_9 C3_9 1_555 1_555
O7_4 C1_9 1_555 1_555
O11_2 C4_9 1_555 1_555
O3_9 C4_9 1_555 1_555
C5_9 C3_9 1_555 1_555
H2_9 C5_9 1_555 1_555
C6_9 C5_9 1_555 1_555
C7_9 C6_9 1_555 1_555
O12 C7_9 1_555 1_555
O5_9 C7_9 1_555 1_555
C8_9 C2_9 1_555 1_555
O8_5 C8_9 1_555 1_555
Co9_2 O3_9 1_555 1_555
Co10 O5_9 1_555 1_555
C6_9 C8_9 1_555 1_555

#END
