
###############################################################################
#
# This file contains modified crystal structure data generated from the
# MOF subset of the Cambridge Structural Database (CSD) v543 
# hosted by the Cambridge Crystallographic Data Centre (CCDC).
#
# This work is licensed under the Creative Commons
# Attribution-NonCommercial-ShareAlike 4.0 International License.
# To view a copy of this license, visit
# http://creativecommons.org/licenses/by-nc-sa/4.0/
# or send a letter to
# Creative Commons, PO Box 1866, Mountain View, CA 94042, USA.
#
# CIF created using the CSD Python API on 29 September 2022
# The structure has been converted into the P1 space group
# The structure has a 3D framework
# The original CSD entry KOSJUZ is in the rhombohedral crystal system
# The framework has been calculated to contain at least 10.0% void space
# The void calculation uses a probe of radius 1.32A, grid spacing 0.4
#
###############################################################################

data_KOSJUZ
_chemical_formula_moiety         '(C72 H18 Co6 O50)n'
_symmetry_cell_setting           triclinic
_symmetry_space_group_name_H-M   'P 1'
_symmetry_Int_Tables_number      1
_space_group_name_Hall           'P 1'
loop_
_symmetry_equiv_pos_site_id
_symmetry_equiv_pos_as_xyz
1 x,y,z
_cell_length_a                   25.8806(17)
_cell_length_b                   25.8806
_cell_length_c                   6.8038(6)
_cell_angle_alpha                90
_cell_angle_beta                 90
_cell_angle_gamma                120
_cell_volume                     3946.67
loop_
_atom_site_label
_atom_site_type_symbol
_atom_site_fract_x
_atom_site_fract_y
_atom_site_fract_z
_atom_site_U_iso_or_equiv
_atom_site_thermal_displace_type
Co6 Co 0.6587(35) 0.0388(19) 0.225(7) 0.0020 Uiso
O9 O 0.6445(13) 0.0144(9) 0.7592(33) 0.0170 Uiso
O11 O 0.7032(10) 0.0221(13) 0.4258(33) 0.0170 Uiso
Co9 Co 0.7134(29) 0.0079(35) 0.891(7) 0.0020 Uiso
C3 C 0.6414(9) 0.8681(8) 0.0444(35) 0.0170 Uiso
C4 C 0.6338(7) 0.9098(7) 0.1621(31) 0.0120 Uiso
O2 O 0.6523(9) 0.9635(10) 0.0925(33) 0.0170 Uiso
O3 O 0.6107(9) 0.8939(9) 0.3312(33) 0.0180 Uiso
C5 C 0.6283(12) 0.8141(6) 0.131(5) 0.0140 Uiso
H2 H 0.6161(24) 0.8080(12) 0.280(9) 0.0320 Uiso
C6 C 0.6414(9) 0.7733(12) 0.0444(35) 0.0170 Uiso
C7 C 0.6338(7) 0.7240(10) 0.1621(31) 0.0120 Uiso
O4 O 0.6523(9) 0.6888(13) 0.0925(33) 0.0170 Uiso
O5 O 0.6107(9) 0.7168(13) 0.3312(33) 0.0180 Uiso
Co3 Co 0.6279(19) 0.9533(29) 0.558(7) 0.0020 Uiso
Co4 Co 0.6279(19) 0.6746(35) 0.558(7) 0.0020 Uiso
Co8 Co 0.6587(35) 0.6200(29) 0.225(7) 0.0020 Uiso
C1 C 0.6572(9) 0.8750(9) 0.835(4) 0.0160 Uiso
C2 C 0.6656(12) 0.8328(6) 0.749(5) 0.0150 Uiso
H1 H 0.6781(28) 0.8390(14) 0.602(12) 0.0710 Uiso
O1 O 0.6718(9) 0.9267(9) 0.751(4) 0.0140 Uiso
C8 C 0.6572(9) 0.7822(13) 0.835(4) 0.0160 Uiso
O6 O 0.6718(9) 0.7451(13) 0.751(4) 0.0140 Uiso
O7 O 0.5882(13) 0.9949(9) 0.418(4) 0.0140 Uiso
O8 O 0.5882(13) 0.5934(9) 0.418(4) 0.0140 Uiso
O10 O 0.6445(13) 0.6302(10) 0.7592(33) 0.0170 Uiso
O12 O 0.7032(10) 0.6810(9) 0.4258(33) 0.0170 Uiso
Co10 Co 0.7134(29) 0.7054(19) 0.891(7) 0.0020 Uiso
Co8_2 Co 0.3800(29) 0.0388(45) 0.225(7) 0.0020 Uiso
O10_2 O 0.3698(10) 0.0144(16) 0.7592(33) 0.0170 Uiso
O12_2 O 0.3190(9) 0.0221(13) 0.4258(33) 0.0170 Uiso
Co10_2 Co 0.2946(19) 0.0079(35) 0.891(7) 0.0020 Uiso
C3_2 C 0.1319(8) 0.7733(12) 0.0444(35) 0.0170 Uiso
C4_2 C 0.0902(7) 0.7240(10) 0.1621(31) 0.0120 Uiso
O2_2 O 0.0365(10) 0.6888(13) 0.0925(33) 0.0170 Uiso
O3_2 O 0.1061(9) 0.7168(13) 0.3312(33) 0.0180 Uiso
C5_2 C 0.1859(6) 0.8142(13) 0.131(5) 0.0140 Uiso
H2_2 H 0.1920(12) 0.8081(27) 0.280(9) 0.0320 Uiso
C6_2 C 0.2267(12) 0.8681(15) 0.0444(35) 0.0170 Uiso
C7_2 C 0.2760(10) 0.9098(12) 0.1621(31) 0.0120 Uiso
O4_2 O 0.3112(13) 0.9635(16) 0.0925(33) 0.0170 Uiso
O5_2 O 0.2832(13) 0.8939(16) 0.3312(33) 0.0180 Uiso
Co3_2 Co 0.0467(29) 0.6746(35) 0.558(7) 0.0020 Uiso
Co4_2 Co 0.3254(35) 0.9533(40) 0.558(7) 0.0020 Uiso
C1_2 C 0.1250(9) 0.7822(13) 0.835(4) 0.0160 Uiso
C2_2 C 0.1672(6) 0.8328(13) 0.749(5) 0.0150 Uiso
H1_2 H 0.1610(14) 0.8391(31) 0.602(12) 0.0710 Uiso
O1_2 O 0.0733(9) 0.7451(13) 0.751(4) 0.0140 Uiso
C8_2 C 0.2178(13) 0.8750(16) 0.835(4) 0.0160 Uiso
O6_2 O 0.2549(13) 0.9267(16) 0.751(4) 0.0140 Uiso
O7_2 O 0.0051(9) 0.5934(16) 0.418(4) 0.0140 Uiso
O8_2 O 0.4066(9) 0.9949(16) 0.418(4) 0.0140 Uiso
Co6_2 Co 0.9612(19) 0.6200(40) 0.225(7) 0.0020 Uiso
O9_2 O 0.9856(9) 0.6302(16) 0.7592(33) 0.0170 Uiso
O11_2 O 0.9779(13) 0.6810(16) 0.4258(33) 0.0170 Uiso
Co9_2 Co 0.9921(35) 0.7054(45) 0.891(7) 0.0020 Uiso
C3_3 C 0.2267(12) 0.3586(9) 0.0444(35) 0.0170 Uiso
C4_3 C 0.2760(10) 0.3662(7) 0.1621(31) 0.0120 Uiso
O2_3 O 0.3112(13) 0.3477(9) 0.0925(33) 0.0170 Uiso
O3_3 O 0.2832(13) 0.3893(9) 0.3312(33) 0.0180 Uiso
C5_3 C 0.1858(13) 0.3717(12) 0.131(5) 0.0140 Uiso
H2_3 H 0.1919(27) 0.3839(24) 0.280(9) 0.0320 Uiso
C6_3 C 0.1319(15) 0.3586(9) 0.0444(35) 0.0170 Uiso
C7_3 C 0.0902(12) 0.3662(7) 0.1621(31) 0.0120 Uiso
O4_3 O 0.0365(16) 0.3477(9) 0.0925(33) 0.0170 Uiso
O5_3 O 0.1061(16) 0.3893(9) 0.3312(33) 0.0180 Uiso
Co3_3 Co 0.3254(35) 0.3721(19) 0.558(7) 0.0020 Uiso
Co4_3 Co 0.0467(40) 0.3721(19) 0.558(7) 0.0020 Uiso
Co6_3 Co 0.3800(40) 0.3413(35) 0.225(7) 0.0020 Uiso
C1_3 C 0.2178(13) 0.3428(9) 0.835(4) 0.0160 Uiso
C2_3 C 0.1672(13) 0.3344(12) 0.749(5) 0.0150 Uiso
H1_3 H 0.1609(31) 0.3219(28) 0.602(12) 0.0710 Uiso
O1_3 O 0.2549(13) 0.3282(9) 0.751(4) 0.0140 Uiso
C8_3 C 0.1250(16) 0.3428(9) 0.835(4) 0.0160 Uiso
O6_3 O 0.0733(16) 0.3282(9) 0.751(4) 0.0140 Uiso
O7_3 O 0.4066(16) 0.4118(13) 0.418(4) 0.0140 Uiso
O8_3 O 0.0051(16) 0.4118(13) 0.418(4) 0.0140 Uiso
O9_3 O 0.3698(16) 0.3555(13) 0.7592(33) 0.0170 Uiso
O11_3 O 0.3190(16) 0.2968(10) 0.4258(33) 0.0170 Uiso
Co9_3 Co 0.2946(45) 0.2866(29) 0.891(7) 0.0020 Uiso
Co8_3 Co 0.9612(45) 0.3413(35) 0.225(7) 0.0020 Uiso
O10_3 O 0.9856(16) 0.3555(13) 0.7592(33) 0.0170 Uiso
O12_3 O 0.9779(13) 0.2968(10) 0.4258(33) 0.0170 Uiso
Co10_3 Co 0.9921(35) 0.2866(29) 0.891(7) 0.0020 Uiso
H1_4 H 0.0114(28) 0.5057(14) 0.269(12) 0.0710 Uiso
C1_4 C 0.9905(9) 0.5417(9) 0.502(4) 0.0160 Uiso
C2_4 C 0.9989(12) 0.4995(6) 0.416(5) 0.0150 Uiso
C3_4 C 0.9747(9) 0.5348(8) 0.7111(35) 0.0170 Uiso
C4_4 C 0.9671(7) 0.5765(7) 0.8288(31) 0.0120 Uiso
O3_4 O 0.9440(9) 0.5606(9) 0.9979(33) 0.0180 Uiso
C5_4 C 0.9616(12) 0.4808(6) 0.798(5) 0.0140 Uiso
H2_4 H 0.9494(24) 0.4747(12) 0.947(9) 0.0320 Uiso
C6_4 C 0.9747(9) 0.4400(12) 0.7111(35) 0.0170 Uiso
C7_4 C 0.9671(7) 0.3907(10) 0.8288(31) 0.0120 Uiso
O5_4 O 0.9440(9) 0.3835(13) 0.9979(33) 0.0180 Uiso
C8_4 C 0.9905(9) 0.4489(13) 0.502(4) 0.0160 Uiso
O7_4 O 0.9216(13) 0.6615(9) 0.084(4) 0.0140 Uiso
O8_4 O 0.9216(13) 0.2600(9) 0.084(4) 0.0140 Uiso
C1_5 C 0.4583(9) 0.4489(13) 0.502(4) 0.0160 Uiso
C2_5 C 0.5005(6) 0.4995(13) 0.416(5) 0.0150 Uiso
C3_5 C 0.4652(8) 0.4400(12) 0.7111(35) 0.0170 Uiso
C4_5 C 0.4235(7) 0.3907(10) 0.8288(31) 0.0120 Uiso
H1_5 H 0.4943(14) 0.5058(31) 0.269(12) 0.0710 Uiso
O3_5 O 0.4394(9) 0.3835(13) 0.9979(33) 0.0180 Uiso
C5_5 C 0.5192(6) 0.4809(13) 0.798(5) 0.0140 Uiso
H2_5 H 0.5253(12) 0.4748(27) 0.947(9) 0.0320 Uiso
C6_5 C 0.5600(12) 0.5348(15) 0.7111(35) 0.0170 Uiso
C7_5 C 0.6093(10) 0.5765(12) 0.8288(31) 0.0120 Uiso
O5_5 O 0.6165(13) 0.5606(16) 0.9979(33) 0.0180 Uiso
C8_5 C 0.5511(13) 0.5417(16) 0.502(4) 0.0160 Uiso
O7_5 O 0.3385(9) 0.2600(16) 0.084(4) 0.0140 Uiso
O8_5 O 0.7400(9) 0.6615(16) 0.084(4) 0.0140 Uiso
C1_6 C 0.5511(13) 0.0095(9) 0.502(4) 0.0160 Uiso
C2_6 C 0.5005(13) 0.0011(12) 0.416(5) 0.0150 Uiso
C3_6 C 0.5600(12) 0.0253(9) 0.7111(35) 0.0170 Uiso
C4_6 C 0.6093(10) 0.0329(7) 0.8288(31) 0.0120 Uiso
O3_6 O 0.6165(13) 0.0560(9) 0.9979(33) 0.0180 Uiso
C5_6 C 0.5191(13) 0.0384(12) 0.798(5) 0.0140 Uiso
H2_6 H 0.5252(27) 0.0506(24) 0.947(9) 0.0320 Uiso
C6_6 C 0.4652(15) 0.0253(9) 0.7111(35) 0.0170 Uiso
C7_6 C 0.4235(12) 0.0329(7) 0.8288(31) 0.0120 Uiso
O5_6 O 0.4394(16) 0.0560(9) 0.9979(33) 0.0180 Uiso
C8_6 C 0.4583(16) 0.0095(9) 0.502(4) 0.0160 Uiso
O7_6 O 0.7400(16) 0.0784(13) 0.084(4) 0.0140 Uiso
O8_6 O 0.3385(16) 0.0784(13) 0.084(4) 0.0140 Uiso
H1_6 H 0.4942(31) 0.9886(28) 0.269(12) 0.0710 Uiso
C1_7 C 0.3239(9) 0.2083(9) 0.168(4) 0.0160 Uiso
C2_7 C 0.3323(12) 0.1661(6) 0.082(5) 0.0150 Uiso
C3_7 C 0.3081(9) 0.2014(8) 0.3777(35) 0.0170 Uiso
C4_7 C 0.3005(7) 0.2431(7) 0.4954(31) 0.0120 Uiso
O3_7 O 0.2774(9) 0.2272(9) 0.6645(33) 0.0180 Uiso
C5_7 C 0.2950(12) 0.1474(6) 0.464(5) 0.0140 Uiso
H2_7 H 0.2828(24) 0.1413(12) 0.613(9) 0.0320 Uiso
C6_7 C 0.3081(9) 0.1066(12) 0.3777(35) 0.0170 Uiso
C7_7 C 0.3005(7) 0.0573(10) 0.4954(31) 0.0120 Uiso
O5_7 O 0.2774(9) 0.0501(13) 0.6645(33) 0.0180 Uiso
C8_7 C 0.3239(9) 0.1155(13) 0.168(4) 0.0160 Uiso
H1_7 H 0.3448(28) 0.1723(14) 0.935(12) 0.0710 Uiso
C1_8 C 0.7917(9) 0.1155(13) 0.168(4) 0.0160 Uiso
C2_8 C 0.8339(6) 0.1661(13) 0.082(5) 0.0150 Uiso
C3_8 C 0.7986(8) 0.1066(12) 0.3777(35) 0.0170 Uiso
C4_8 C 0.7569(7) 0.0573(10) 0.4954(31) 0.0120 Uiso
O3_8 O 0.7728(9) 0.0501(13) 0.6645(33) 0.0180 Uiso
C5_8 C 0.8526(6) 0.1475(13) 0.464(5) 0.0140 Uiso
H2_8 H 0.8587(12) 0.1414(27) 0.613(9) 0.0320 Uiso
C6_8 C 0.8934(12) 0.2014(15) 0.3777(35) 0.0170 Uiso
C7_8 C 0.9427(10) 0.2431(12) 0.4954(31) 0.0120 Uiso
O5_8 O 0.9499(13) 0.2272(16) 0.6645(33) 0.0180 Uiso
C8_8 C 0.8845(13) 0.2083(16) 0.168(4) 0.0160 Uiso
H1_8 H 0.8277(14) 0.1724(31) 0.935(12) 0.0710 Uiso
C1_9 C 0.8845(13) 0.6761(9) 0.168(4) 0.0160 Uiso
C2_9 C 0.8339(13) 0.6677(12) 0.082(5) 0.0150 Uiso
C3_9 C 0.8934(12) 0.6919(9) 0.3777(35) 0.0170 Uiso
C4_9 C 0.9427(10) 0.6995(7) 0.4954(31) 0.0120 Uiso
O3_9 O 0.9499(13) 0.7226(9) 0.6645(33) 0.0180 Uiso
C5_9 C 0.8525(13) 0.7050(12) 0.464(5) 0.0140 Uiso
H2_9 H 0.8586(27) 0.7172(24) 0.613(9) 0.0320 Uiso
C6_9 C 0.7986(15) 0.6919(9) 0.3777(35) 0.0170 Uiso
C7_9 C 0.7569(12) 0.6995(7) 0.4954(31) 0.0120 Uiso
O5_9 O 0.7728(16) 0.7226(9) 0.6645(33) 0.0180 Uiso
C8_9 C 0.7917(16) 0.6761(9) 0.168(4) 0.0160 Uiso
H1_9 H 0.8276(31) 0.6552(28) 0.935(12) 0.0710 Uiso
loop_
_geom_bond_atom_site_label_1
_geom_bond_atom_site_label_2
_geom_bond_site_symmetry_1
_geom_bond_site_symmetry_2
O9 Co9 1_555 1_555
O11 Co6 1_555 1_555
C4 C3 1_555 1_555
O2 C4 1_555 1_555
O3 C4 1_555 1_555
C5 C3 1_555 1_555
H2 C5 1_555 1_555
C6 C5 1_555 1_555
C7 C6 1_555 1_555
O4 C7 1_555 1_555
O5 C7 1_555 1_555
Co3 O3 1_555 1_555
Co4 O5 1_555 1_555
Co8 O4 1_555 1_555
Co4 Co8 1_555 1_555
C1 C2 1_555 1_555
C2 H1 1_555 1_555
O1 C1 1_555 1_555
Co3 O1 1_555 1_555
C8 C2 1_555 1_555
O6 C8 1_555 1_555
Co4 O6 1_555 1_555
O7 Co3 1_555 1_555
O8 Co4 1_555 1_555
O10 Co4 1_555 1_555
O12 Co4 1_555 1_555
O6 Co10 1_555 1_555
Co4 Co10 1_555 1_555
O8 Co8 1_555 1_555
O10 Co10 1_555 1_555
O12 Co8 1_555 1_555
O10_2 Co10_2 1_555 1_555
O12_2 Co8_2 1_555 1_555
C4_2 C3_2 1_555 1_555
O2_2 C4_2 1_555 1_555
O3_2 C4_2 1_555 1_555
C5_2 C3_2 1_555 1_555
H2_2 C5_2 1_555 1_555
C6_2 C5_2 1_555 1_555
C7_2 C6_2 1_555 1_555
O4_2 C7_2 1_555 1_555
O5_2 C7_2 1_555 1_555
Co3_2 O3_2 1_555 1_555
Co4_2 O5_2 1_555 1_555
C1_2 C2_2 1_555 1_555
C2_2 H1_2 1_555 1_555
O1_2 C1_2 1_555 1_555
Co3_2 O1_2 1_555 1_555
C8_2 C2_2 1_555 1_555
O6_2 C8_2 1_555 1_555
Co4_2 O6_2 1_555 1_555
O7_2 Co3_2 1_555 1_555
O8_2 Co4_2 1_555 1_555
O9_2 Co9_2 1_555 1_555
O11_2 Co6_2 1_555 1_555
C4_3 C3_3 1_555 1_555
O2_3 C4_3 1_555 1_555
O3_3 C4_3 1_555 1_555
C5_3 C3_3 1_555 1_555
H2_3 C5_3 1_555 1_555
C6_3 C5_3 1_555 1_555
C7_3 C6_3 1_555 1_555
O4_3 C7_3 1_555 1_555
O5_3 C7_3 1_555 1_555
Co3_3 O3_3 1_555 1_555
Co4_3 O5_3 1_555 1_555
Co6_3 O2_3 1_555 1_555
Co3_3 Co6_3 1_555 1_555
C1_3 C2_3 1_555 1_555
C2_3 H1_3 1_555 1_555
O1_3 C1_3 1_555 1_555
Co3_3 O1_3 1_555 1_555
C8_3 C2_3 1_555 1_555
O6_3 C8_3 1_555 1_555
Co4_3 O6_3 1_555 1_555
O7_3 Co3_3 1_555 1_555
O8_3 Co4_3 1_555 1_555
O9_3 Co3_3 1_555 1_555
O11_3 Co3_3 1_555 1_555
Co9_3 O1_3 1_555 1_555
Co3_3 Co9_3 1_555 1_555
O7_3 Co6_3 1_555 1_555
O9_3 Co9_3 1_555 1_555
O11_3 Co6_3 1_555 1_555
O10_3 Co10_3 1_555 1_555
O12_3 Co8_3 1_555 1_555
C1_4 C2_4 1_555 1_555
C3_4 C1_4 1_555 1_555
C4_4 C3_4 1_555 1_555
O9_2 C4_4 1_555 1_555
O3_4 C4_4 1_555 1_555
C5_4 C3_4 1_555 1_555
H2_4 C5_4 1_555 1_555
C6_4 C5_4 1_555 1_555
C7_4 C6_4 1_555 1_555
O10_3 C7_4 1_555 1_555
O5_4 C7_4 1_555 1_555
C8_4 C2_4 1_555 1_555
O7_4 Co6_2 1_555 1_555
O8_4 Co8_3 1_555 1_555
C6_4 C8_4 1_555 1_555
C1_5 C2_5 1_555 1_555
C2_5 H1_5 1_555 1_555
C3_5 C1_5 1_555 1_555
C4_5 C3_5 1_555 1_555
O7_3 C1_5 1_555 1_555
O9_3 C4_5 1_555 1_555
O3_5 C4_5 1_555 1_555
C5_5 C3_5 1_555 1_555
H2_5 C5_5 1_555 1_555
C6_5 C5_5 1_555 1_555
C7_5 C6_5 1_555 1_555
O10 C7_5 1_555 1_555
O5_5 C7_5 1_555 1_555
C8_5 C2_5 1_555 1_555
O8 C8_5 1_555 1_555
O7_5 Co6_3 1_555 1_555
O8_5 Co8 1_555 1_555
C6_5 C8_5 1_555 1_555
C1_6 C2_6 1_555 1_555
C3_6 C1_6 1_555 1_555
C4_6 C3_6 1_555 1_555
O9 C4_6 1_555 1_555
O3_6 C4_6 1_555 1_555
C5_6 C3_6 1_555 1_555
H2_6 C5_6 1_555 1_555
C6_6 C5_6 1_555 1_555
C7_6 C6_6 1_555 1_555
O10_2 C7_6 1_555 1_555
O5_6 C7_6 1_555 1_555
C8_6 C2_6 1_555 1_555
O7_6 Co6 1_555 1_555
O8_6 Co8_2 1_555 1_555
C6_6 C8_6 1_555 1_555
C1_7 C2_7 1_555 1_555
C3_7 C1_7 1_555 1_555
C4_7 C3_7 1_555 1_555
O7_5 C1_7 1_555 1_555
O11_3 C4_7 1_555 1_555
O3_7 C4_7 1_555 1_555
C5_7 C3_7 1_555 1_555
H2_7 C5_7 1_555 1_555
C6_7 C5_7 1_555 1_555
C7_7 C6_7 1_555 1_555
O12_2 C7_7 1_555 1_555
O5_7 C7_7 1_555 1_555
C8_7 C2_7 1_555 1_555
O8_6 C8_7 1_555 1_555
Co9_3 O3_7 1_555 1_555
Co10_2 O5_7 1_555 1_555
C6_7 C8_7 1_555 1_555
C1_8 C2_8 1_555 1_555
C3_8 C1_8 1_555 1_555
C4_8 C3_8 1_555 1_555
O7_6 C1_8 1_555 1_555
O11 C4_8 1_555 1_555
O3_8 C4_8 1_555 1_555
C5_8 C3_8 1_555 1_555
H2_8 C5_8 1_555 1_555
C6_8 C5_8 1_555 1_555
C7_8 C6_8 1_555 1_555
O12_3 C7_8 1_555 1_555
O5_8 C7_8 1_555 1_555
C8_8 C2_8 1_555 1_555
O8_4 C8_8 1_555 1_555
Co9 O3_8 1_555 1_555
Co10_3 O5_8 1_555 1_555
C6_8 C8_8 1_555 1_555
C1_9 C2_9 1_555 1_555
C3_9 C1_9 1_555 1_555
C4_9 C3_9 1_555 1_555
O7_4 C1_9 1_555 1_555
O11_2 C4_9 1_555 1_555
O3_9 C4_9 1_555 1_555
C5_9 C3_9 1_555 1_555
H2_9 C5_9 1_555 1_555
C6_9 C5_9 1_555 1_555
C7_9 C6_9 1_555 1_555
O12 C7_9 1_555 1_555
O5_9 C7_9 1_555 1_555
C8_9 C2_9 1_555 1_555
O8_5 C8_9 1_555 1_555
Co9_2 O3_9 1_555 1_555
Co10 O5_9 1_555 1_555
C6_9 C8_9 1_555 1_555

#END
