
###############################################################################
#
# This file contains modified crystal structure data generated from the
# MOF subset of the Cambridge Structural Database (CSD) v543 
# hosted by the Cambridge Crystallographic Data Centre (CCDC).
#
# This work is licensed under the Creative Commons
# Attribution-NonCommercial-ShareAlike 4.0 International License.
# To view a copy of this license, visit
# http://creativecommons.org/licenses/by-nc-sa/4.0/
# or send a letter to
# Creative Commons, PO Box 1866, Mountain View, CA 94042, USA.
#
# CIF created using the CSD Python API on 29 September 2022
# The structure has been converted into the P1 space group
# The structure has a 3D framework
# The original CSD entry KOSKUA is in the rhombohedral crystal system
# The framework has been calculated to contain at least 10.0% void space
# The void calculation uses a probe of radius 1.32A, grid spacing 0.4
#
###############################################################################

data_KOSKUA
_chemical_formula_moiety         '(C72 H18 Co5 O54)n'
_symmetry_cell_setting           triclinic
_symmetry_space_group_name_H-M   'P 1'
_symmetry_Int_Tables_number      1
_space_group_name_Hall           'P 1'
loop_
_symmetry_equiv_pos_site_id
_symmetry_equiv_pos_as_xyz
1 x,y,z
_cell_length_a                   25.8707(10)
_cell_length_b                   25.8707
_cell_length_c                   6.8687(4)
_cell_angle_alpha                90
_cell_angle_beta                 90
_cell_angle_gamma                120
_cell_volume                     3981.27
loop_
_atom_site_label
_atom_site_type_symbol
_atom_site_fract_x
_atom_site_fract_y
_atom_site_fract_z
_atom_site_U_iso_or_equiv
_atom_site_thermal_displace_type
Co1 Co 0.3857(10) 0.3549(11) 0.1342(33) 0.0040 Uiso
O1 O 0.3229(5) 0.2946(5) 0.3716(17) 0.0169 Uiso
O2 O 0.3040(5) 0.2292(5) 0.6005(13) 0.0048 Uiso
O3 O 0.3577(5) 0.2742(5) 0.0017(18) 0.0052 Uiso
C1 C 0.3147(5) 0.2463(5) 0.4283(14) 0.0303 Uiso
C2 C 0.3300(4) 0.2086(4) 0.2811(13) 0.0180 Uiso
C3 C 0.3491(4) 0.2278(4) 0.0895(12) 0.0103 Uiso
O6 O 0.3090(5) 0.0591(5) 0.3316(18) 0.0052 Uiso
C6 C 0.3367(4) 0.1247(4) 0.0522(13) 0.0180 Uiso
C7 C 0.3176(4) 0.1055(4) 0.2438(12) 0.0103 Uiso
C8 C 0.3142(4) 0.1494(5) 0.3680(12) 0.0038 Uiso
H2 H 0.3066(7) 0.1408(6) 0.4926(25) 0.0010 Uiso
Co4 Co 0.3025(15) 0.2810(10) 0.8009(33) 0.0040 Uiso
Co6 Co 0.3118(11) 0.3641(15) 0.4675(33) 0.0040 Uiso
Co8 Co 0.3641(15) 0.0524(10) 0.5325(33) 0.0040 Uiso
O8 O 0.3050(7) 0.3438(5) 0.0383(17) 0.0169 Uiso
O12 O 0.3925(5) 0.4168(7) 0.3350(18) 0.0052 Uiso
C4 C 0.3525(4) 0.1839(5) 0.9653(12) 0.0038 Uiso
H1 H 0.3601(7) 0.1925(6) 0.8407(25) 0.0010 Uiso
O4 O 0.3438(5) 0.0387(5) 0.9617(17) 0.0169 Uiso
O5 O 0.3627(5) 0.1041(5) 0.7328(13) 0.0048 Uiso
C5 C 0.3520(5) 0.0870(5) 0.9050(14) 0.0303 Uiso
O9 O 0.4375(5) 0.4081(7) 0.9338(13) 0.0048 Uiso
O13 O 0.4168(7) 0.0244(5) 0.6650(18) 0.0052 Uiso
Co5 Co 0.2810(10) 0.9784(11) 0.1991(33) 0.0040 Uiso
O10 O 0.4081(7) 0.9707(5) 0.0662(13) 0.0048 Uiso
Co2 Co 0.3549(11) 0.9692(15) 0.8658(33) 0.0040 Uiso
O7 O 0.2946(5) 0.9717(7) 0.6284(17) 0.0169 Uiso
O11 O 0.2742(5) 0.9165(7) 0.9983(18) 0.0052 Uiso
Co5_2 Co 0.0216(11) 0.3025(15) 0.1991(33) 0.0040 Uiso
O10_2 O 0.0293(5) 0.4375(9) 0.0662(13) 0.0048 Uiso
Co2_2 Co 0.0308(15) 0.3857(19) 0.8658(33) 0.0040 Uiso
O7_2 O 0.0283(7) 0.3229(9) 0.6284(17) 0.0169 Uiso
O11_2 O 0.0835(7) 0.3577(9) 0.9983(18) 0.0052 Uiso
Co1_2 Co 0.6451(11) 0.0308(15) 0.1342(33) 0.0040 Uiso
O1_2 O 0.7054(5) 0.0283(7) 0.3716(17) 0.0169 Uiso
O2_2 O 0.7708(5) 0.0748(7) 0.6005(13) 0.0048 Uiso
O3_2 O 0.7258(5) 0.0835(7) 0.0017(18) 0.0052 Uiso
C1_2 C 0.7537(5) 0.0684(7) 0.4283(14) 0.0303 Uiso
C2_2 C 0.7914(4) 0.1214(6) 0.2811(13) 0.0180 Uiso
C3_2 C 0.7722(4) 0.1213(6) 0.0895(12) 0.0103 Uiso
O6_2 O 0.9409(5) 0.2498(7) 0.3316(18) 0.0052 Uiso
C6_2 C 0.8753(4) 0.2119(6) 0.0522(13) 0.0180 Uiso
C7_2 C 0.8945(4) 0.2120(6) 0.2438(12) 0.0103 Uiso
C8_2 C 0.8506(5) 0.1647(6) 0.3680(12) 0.0038 Uiso
H2_2 H 0.8592(6) 0.1657(9) 0.4926(25) 0.0010 Uiso
Co4_2 Co 0.7190(10) 0.0216(18) 0.8009(33) 0.0040 Uiso
Co8_2 Co 0.9476(10) 0.3118(18) 0.5325(33) 0.0040 Uiso
C4_2 C 0.8161(5) 0.1686(6) 0.9653(12) 0.0038 Uiso
H1_2 H 0.8075(6) 0.1676(9) 0.8407(25) 0.0010 Uiso
O4_2 O 0.9613(5) 0.3050(7) 0.9617(17) 0.0169 Uiso
O5_2 O 0.8959(5) 0.2585(7) 0.7328(13) 0.0048 Uiso
C5_2 C 0.9130(5) 0.2649(7) 0.9050(14) 0.0303 Uiso
O9_2 O 0.5919(7) 0.0293(9) 0.9338(13) 0.0048 Uiso
O13_2 O 0.9756(5) 0.3925(9) 0.6650(18) 0.0052 Uiso
Co6_2 Co 0.6359(15) 0.9476(19) 0.4675(33) 0.0040 Uiso
O8_2 O 0.6562(5) 0.9613(9) 0.0383(17) 0.0169 Uiso
O12_2 O 0.5832(7) 0.9756(9) 0.3350(18) 0.0052 Uiso
Co6_3 Co 0.0524(19) 0.6882(11) 0.4675(33) 0.0040 Uiso
O8_3 O 0.0387(9) 0.6950(7) 0.0383(17) 0.0169 Uiso
O12_3 O 0.0244(9) 0.6075(5) 0.3350(18) 0.0052 Uiso
Co1_3 Co 0.9692(15) 0.6143(10) 0.1342(33) 0.0040 Uiso
O1_3 O 0.9717(7) 0.6771(5) 0.3716(17) 0.0169 Uiso
O2_3 O 0.9252(7) 0.6960(5) 0.6005(13) 0.0048 Uiso
O3_3 O 0.9165(7) 0.6423(5) 0.0017(18) 0.0052 Uiso
C1_3 C 0.9316(7) 0.6853(5) 0.4283(14) 0.0303 Uiso
C2_3 C 0.8786(6) 0.6700(4) 0.2811(13) 0.0180 Uiso
C3_3 C 0.8787(6) 0.6509(4) 0.0895(12) 0.0103 Uiso
O6_3 O 0.7502(7) 0.6910(5) 0.3316(18) 0.0052 Uiso
C6_3 C 0.7881(6) 0.6633(4) 0.0522(13) 0.0180 Uiso
C7_3 C 0.7880(6) 0.6824(4) 0.2438(12) 0.0103 Uiso
C8_3 C 0.8353(6) 0.6858(4) 0.3680(12) 0.0038 Uiso
H2_3 H 0.8343(9) 0.6934(7) 0.4926(25) 0.0010 Uiso
Co4_3 Co 0.9784(18) 0.6975(15) 0.8009(33) 0.0040 Uiso
Co5_3 Co 0.6975(15) 0.7190(10) 0.1991(33) 0.0040 Uiso
Co8_3 Co 0.6882(18) 0.6359(15) 0.5325(33) 0.0040 Uiso
O10_3 O 0.5625(9) 0.5919(7) 0.0662(13) 0.0048 Uiso
C4_3 C 0.8314(6) 0.6475(4) 0.9653(12) 0.0038 Uiso
H1_3 H 0.8324(9) 0.6399(7) 0.8407(25) 0.0010 Uiso
O4_3 O 0.6950(7) 0.6562(5) 0.9617(17) 0.0169 Uiso
O5_3 O 0.7415(7) 0.6373(5) 0.7328(13) 0.0048 Uiso
C5_3 C 0.7351(7) 0.6480(5) 0.9050(14) 0.0303 Uiso
Co2_3 Co 0.6143(19) 0.6451(11) 0.8658(33) 0.0040 Uiso
O7_3 O 0.6771(9) 0.7054(5) 0.6284(17) 0.0169 Uiso
O9_3 O 0.9707(9) 0.5625(5) 0.9338(13) 0.0048 Uiso
O11_3 O 0.6423(9) 0.7258(5) 0.9983(18) 0.0052 Uiso
O13_3 O 0.6075(9) 0.5832(7) 0.6650(18) 0.0052 Uiso
O8_4 O 0.6384(7) 0.0104(5) 0.7049(17) 0.0169 Uiso
O2_4 O 0.6373(5) 0.8959(5) 0.2672(13) 0.0048 Uiso
C1_4 C 0.6480(5) 0.9130(5) 0.0950(14) 0.0303 Uiso
C8_4 C 0.6475(4) 0.8161(5) 0.0347(12) 0.0038 Uiso
H2_4 H 0.6399(7) 0.8075(6) 0.1593(25) 0.0010 Uiso
O3_4 O 0.6910(5) 0.9409(5) 0.6684(18) 0.0052 Uiso
C2_4 C 0.6633(4) 0.8753(4) 0.9478(13) 0.0180 Uiso
C3_4 C 0.6824(4) 0.8945(4) 0.7562(12) 0.0103 Uiso
C4_4 C 0.6858(4) 0.8506(5) 0.6320(12) 0.0038 Uiso
H1_4 H 0.6934(7) 0.8592(6) 0.5074(25) 0.0010 Uiso
O5_4 O 0.6960(5) 0.7708(5) 0.3995(13) 0.0048 Uiso
C5_4 C 0.6853(5) 0.7537(5) 0.5717(14) 0.0303 Uiso
C6_4 C 0.6700(4) 0.7914(4) 0.7189(13) 0.0180 Uiso
C7_4 C 0.6509(4) 0.7722(4) 0.9105(12) 0.0103 Uiso
O7_4 O 0.6279(5) 0.6384(7) 0.2951(17) 0.0169 Uiso
O2_5 O 0.1041(5) 0.7415(7) 0.2672(13) 0.0048 Uiso
C1_5 C 0.0870(5) 0.7351(7) 0.0950(14) 0.0303 Uiso
C8_5 C 0.1839(5) 0.8314(6) 0.0347(12) 0.0038 Uiso
H2_5 H 0.1925(6) 0.8324(9) 0.1593(25) 0.0010 Uiso
O3_5 O 0.0591(5) 0.7502(7) 0.6684(18) 0.0052 Uiso
C2_5 C 0.1247(4) 0.7881(6) 0.9478(13) 0.0180 Uiso
C3_5 C 0.1055(4) 0.7880(6) 0.7562(12) 0.0103 Uiso
C4_5 C 0.1494(5) 0.8353(6) 0.6320(12) 0.0038 Uiso
H1_5 H 0.1408(6) 0.8343(9) 0.5074(25) 0.0010 Uiso
O5_5 O 0.2292(5) 0.9252(7) 0.3995(13) 0.0048 Uiso
C5_5 C 0.2463(5) 0.9316(7) 0.5717(14) 0.0303 Uiso
C6_5 C 0.2086(4) 0.8786(6) 0.7189(13) 0.0180 Uiso
C7_5 C 0.2278(4) 0.8787(6) 0.9105(12) 0.0103 Uiso
O7_5 O 0.3616(7) 0.9896(9) 0.2951(17) 0.0169 Uiso
O8_5 O 0.9896(5) 0.6279(9) 0.7049(17) 0.0169 Uiso
O2_6 O 0.2585(7) 0.3627(5) 0.2672(13) 0.0048 Uiso
C1_6 C 0.2649(7) 0.3520(5) 0.0950(14) 0.0303 Uiso
C8_6 C 0.1686(6) 0.3525(4) 0.0347(12) 0.0038 Uiso
H2_6 H 0.1676(9) 0.3601(7) 0.1593(25) 0.0010 Uiso
O3_6 O 0.2498(7) 0.3090(5) 0.6684(18) 0.0052 Uiso
C2_6 C 0.2119(6) 0.3367(4) 0.9478(13) 0.0180 Uiso
C3_6 C 0.2120(6) 0.3176(4) 0.7562(12) 0.0103 Uiso
C4_6 C 0.1647(6) 0.3142(4) 0.6320(12) 0.0038 Uiso
H1_6 H 0.1657(9) 0.3066(7) 0.5074(25) 0.0010 Uiso
O5_6 O 0.0748(7) 0.3040(5) 0.3995(13) 0.0048 Uiso
C5_6 C 0.0684(7) 0.3147(5) 0.5717(14) 0.0303 Uiso
C6_6 C 0.1214(6) 0.3300(4) 0.7189(13) 0.0180 Uiso
C7_6 C 0.1213(6) 0.3491(4) 0.9105(12) 0.0103 Uiso
O7_6 O 0.0104(9) 0.3721(5) 0.2951(17) 0.0169 Uiso
O8_6 O 0.3721(9) 0.3616(7) 0.7049(17) 0.0169 Uiso
C3_7 C 0.0158(4) 0.5611(4) 0.4228(12) 0.0103 Uiso
C4_7 C 0.0192(4) 0.5172(5) 0.2986(12) 0.0038 Uiso
H1_7 H 0.0268(7) 0.5258(6) 0.1740(25) 0.0010 Uiso
C5_7 C 0.0186(5) 0.4204(5) 0.2384(14) 0.0303 Uiso
C6_7 C 0.0033(4) 0.4581(4) 0.3856(13) 0.0180 Uiso
C1_7 C 0.9814(5) 0.5796(5) 0.7616(14) 0.0303 Uiso
C2_7 C 0.9967(4) 0.5419(4) 0.6144(13) 0.0180 Uiso
C7_7 C 0.9842(4) 0.4389(4) 0.5772(12) 0.0103 Uiso
C8_7 C 0.9808(4) 0.4828(5) 0.7014(12) 0.0038 Uiso
H2_7 H 0.9732(7) 0.4742(6) 0.8260(25) 0.0010 Uiso
C1_8 C 0.4204(5) 0.4017(7) 0.7616(14) 0.0303 Uiso
C2_8 C 0.4581(4) 0.4547(6) 0.6144(13) 0.0180 Uiso
C3_8 C 0.4389(4) 0.4546(6) 0.4228(12) 0.0103 Uiso
C4_8 C 0.4828(5) 0.5019(6) 0.2986(12) 0.0038 Uiso
H1_8 H 0.4742(6) 0.5009(9) 0.1740(25) 0.0010 Uiso
C5_8 C 0.5796(5) 0.5983(7) 0.2384(14) 0.0303 Uiso
C6_8 C 0.5419(4) 0.5453(6) 0.3856(13) 0.0180 Uiso
C7_8 C 0.5611(4) 0.5454(6) 0.5772(12) 0.0103 Uiso
C8_8 C 0.5172(5) 0.4981(6) 0.7014(12) 0.0038 Uiso
H2_8 H 0.5258(6) 0.4991(9) 0.8260(25) 0.0010 Uiso
C1_9 C 0.5983(7) 0.0186(5) 0.7616(14) 0.0303 Uiso
C2_9 C 0.5453(6) 0.0033(4) 0.6144(13) 0.0180 Uiso
C7_9 C 0.4546(6) 0.0158(4) 0.5772(12) 0.0103 Uiso
C8_9 C 0.5019(6) 0.0192(4) 0.7014(12) 0.0038 Uiso
H2_9 H 0.5009(9) 0.0268(7) 0.8260(25) 0.0010 Uiso
C3_9 C 0.5454(6) 0.9842(4) 0.4228(12) 0.0103 Uiso
C4_9 C 0.4981(6) 0.9808(4) 0.2986(12) 0.0038 Uiso
H1_9 H 0.4991(9) 0.9732(7) 0.1740(25) 0.0010 Uiso
C5_9 C 0.4017(7) 0.9814(5) 0.2384(14) 0.0303 Uiso
C6_9 C 0.4547(6) 0.9967(4) 0.3856(13) 0.0180 Uiso
loop_
_geom_bond_atom_site_label_1
_geom_bond_atom_site_label_2
_geom_bond_site_symmetry_1
_geom_bond_site_symmetry_2
Co1 O1 1_555 1_555
O1 C1 1_555 1_555
O2 C1 1_555 1_555
O3 Co1 1_555 1_555
C1 C2 1_555 1_555
C2 C3 1_555 1_555
C3 O3 1_555 1_555
O6 C7 1_555 1_555
C7 C6 1_555 1_555
C8 C2 1_555 1_555
H2 C8 1_555 1_555
Co4 O2 1_555 1_555
Co6 Co1 1_555 1_555
Co8 O6 1_555 1_555
O8 Co1 1_555 1_555
O12 Co1 1_555 1_555
O1 Co6 1_555 1_555
C7 C8 1_555 1_555
Co4 Co6 1_555 1_555
Co6 O12 1_555 1_555
H1 C4 1_555 1_555
O4 C5 1_555 1_555
O5 C5 1_555 1_555
Co8 O5 1_555 1_555
Co8 O13 1_555 1_555
O7 Co2 1_555 1_555
O11 Co2 1_555 1_555
O7_2 Co2_2 1_555 1_555
O11_2 Co2_2 1_555 1_555
Co1_2 O1_2 1_555 1_555
O1_2 C1_2 1_555 1_555
O2_2 C1_2 1_555 1_555
O3_2 Co1_2 1_555 1_555
C1_2 C2_2 1_555 1_555
C2_2 C3_2 1_555 1_555
C3_2 O3_2 1_555 1_555
O6_2 C7_2 1_555 1_555
C7_2 C6_2 1_555 1_555
C8_2 C2_2 1_555 1_555
H2_2 C8_2 1_555 1_555
Co4_2 O2_2 1_555 1_555
Co8_2 O6_2 1_555 1_555
C7_2 C8_2 1_555 1_555
H1_2 C4_2 1_555 1_555
O4_2 C5_2 1_555 1_555
O5_2 C5_2 1_555 1_555
Co8_2 O5_2 1_555 1_555
Co8_2 O13_2 1_555 1_555
Co6_2 O12_2 1_555 1_555
Co6_3 O12_3 1_555 1_555
Co1_3 O1_3 1_555 1_555
O1_3 C1_3 1_555 1_555
O2_3 C1_3 1_555 1_555
O3_3 Co1_3 1_555 1_555
C1_3 C2_3 1_555 1_555
C2_3 C3_3 1_555 1_555
C3_3 O3_3 1_555 1_555
O6_3 C7_3 1_555 1_555
C7_3 C6_3 1_555 1_555
C8_3 C2_3 1_555 1_555
H2_3 C8_3 1_555 1_555
Co4_3 O2_3 1_555 1_555
Co8_3 O6_3 1_555 1_555
O6_3 Co5_3 1_555 1_555
C7_3 C8_3 1_555 1_555
Co5_3 Co8_3 1_555 1_555
H1_3 C4_3 1_555 1_555
O4_3 C5_3 1_555 1_555
O5_3 C5_3 1_555 1_555
Co2_3 O4_3 1_555 1_555
Co8_3 O5_3 1_555 1_555
O7_3 Co2_3 1_555 1_555
O11_3 Co2_3 1_555 1_555
O13_3 Co2_3 1_555 1_555
Co2_3 Co8_3 1_555 1_555
Co8_3 O7_3 1_555 1_555
Co8_3 O13_3 1_555 1_555
O8_4 Co4_2 1_555 1_555
O8_2 C1_4 1_555 1_555
O2_4 C1_4 1_555 1_555
H2_4 C8_4 1_555 1_555
Co6_2 O2_4 1_555 1_555
C2_4 C3_4 1_555 1_555
C3_4 O3_4 1_555 1_555
C4_4 C3_4 1_555 1_555
H1_4 C4_4 1_555 1_555
O7_3 C5_4 1_555 1_555
O5_4 C5_4 1_555 1_555
O11_3 C7_4 1_555 1_555
C5_4 C6_4 1_555 1_555
C6_4 C4_4 1_555 1_555
C7_4 C6_4 1_555 1_555
Co5_3 O5_4 1_555 1_555
O7_4 Co8_3 1_555 1_555
O3_4 Co6_2 1_555 1_555
Co5_3 O7_4 1_555 1_555
O8_3 C1_5 1_555 1_555
O2_5 C1_5 1_555 1_555
H2_5 C8_5 1_555 1_555
Co6_3 O2_5 1_555 1_555
C2_5 C3_5 1_555 1_555
C3_5 O3_5 1_555 1_555
C4_5 C3_5 1_555 1_555
H1_5 C4_5 1_555 1_555
O7 C5_5 1_555 1_555
O5_5 C5_5 1_555 1_555
O11 C7_5 1_555 1_555
C5_5 C6_5 1_555 1_555
C6_5 C4_5 1_555 1_555
C7_5 C6_5 1_555 1_555
Co5 O5_5 1_555 1_555
O3_5 Co6_3 1_555 1_555
Co5 O7_5 1_555 1_555
O8_5 Co4_3 1_555 1_555
O8 C1_6 1_555 1_555
O2_6 C1_6 1_555 1_555
H2_6 C8_6 1_555 1_555
Co6 O2_6 1_555 1_555
O3_6 Co4 1_555 1_555
C2_6 C3_6 1_555 1_555
C3_6 O3_6 1_555 1_555
C4_6 C3_6 1_555 1_555
H1_6 C4_6 1_555 1_555
O7_2 C5_6 1_555 1_555
O5_6 C5_6 1_555 1_555
O11_2 C7_6 1_555 1_555
C5_6 C6_6 1_555 1_555
C6_6 C4_6 1_555 1_555
C7_6 C6_6 1_555 1_555
Co5_2 O5_6 1_555 1_555
O8_6 Co4 1_555 1_555
O3_6 Co6 1_555 1_555
Co6 O8_6 1_555 1_555
Co5_2 O7_6 1_555 1_555
C3_7 O12_3 1_555 1_555
C4_7 C3_7 1_555 1_555
H1_7 C4_7 1_555 1_555
O7_6 C5_7 1_555 1_555
O10_2 C5_7 1_555 1_555
C5_7 C6_7 1_555 1_555
C6_7 C4_7 1_555 1_555
O8_5 C1_7 1_555 1_555
O9_3 C1_7 1_555 1_555
C1_7 C2_7 1_555 1_555
O13_2 C7_7 1_555 1_555
C8_7 C2_7 1_555 1_555
H2_7 C8_7 1_555 1_555
C7_7 C8_7 1_555 1_555
O8_6 C1_8 1_555 1_555
O9 C1_8 1_555 1_555
C1_8 C2_8 1_555 1_555
C2_8 C3_8 1_555 1_555
C3_8 O12 1_555 1_555
C4_8 C3_8 1_555 1_555
H1_8 C4_8 1_555 1_555
O7_4 C5_8 1_555 1_555
O10_3 C5_8 1_555 1_555
O13_3 C7_8 1_555 1_555
C5_8 C6_8 1_555 1_555
C6_8 C4_8 1_555 1_555
C7_8 C6_8 1_555 1_555
C8_8 C2_8 1_555 1_555
H2_8 C8_8 1_555 1_555
C7_8 C8_8 1_555 1_555
O8_4 C1_9 1_555 1_555
O9_2 C1_9 1_555 1_555
C1_9 C2_9 1_555 1_555
O13 C7_9 1_555 1_555
C8_9 C2_9 1_555 1_555
H2_9 C8_9 1_555 1_555
C7_9 C8_9 1_555 1_555
C3_9 O12_2 1_555 1_555
C4_9 C3_9 1_555 1_555
H1_9 C4_9 1_555 1_555
O7_5 C5_9 1_555 1_555
O10 C5_9 1_555 1_555
C5_9 C6_9 1_555 1_555
C6_9 C4_9 1_555 1_555

#END
