
###############################################################################
#
# This file contains modified crystal structure data generated from the
# MOF subset of the Cambridge Structural Database (CSD) v543 
# hosted by the Cambridge Crystallographic Data Centre (CCDC).
#
# This work is licensed under the Creative Commons
# Attribution-NonCommercial-ShareAlike 4.0 International License.
# To view a copy of this license, visit
# http://creativecommons.org/licenses/by-nc-sa/4.0/
# or send a letter to
# Creative Commons, PO Box 1866, Mountain View, CA 94042, USA.
#
# CIF created using the CSD Python API on 29 September 2022
# The structure has been converted into the P1 space group
# The structure has a 3D framework
# The original CSD entry KOSKIO is in the rhombohedral crystal system
# The framework has been calculated to contain at least 10.0% void space
# The void calculation uses a probe of radius 1.32A, grid spacing 0.4
#
###############################################################################

data_KOSKIO
_chemical_formula_moiety         '(C72 H18 Co6 O44)n'
_symmetry_cell_setting           triclinic
_symmetry_space_group_name_H-M   'P 1'
_symmetry_Int_Tables_number      1
_space_group_name_Hall           'P 1'
loop_
_symmetry_equiv_pos_site_id
_symmetry_equiv_pos_as_xyz
1 x,y,z
_cell_length_a                   25.8734(23)
_cell_length_b                   25.8734
_cell_length_c                   6.7677(9)
_cell_angle_alpha                90
_cell_angle_beta                 90
_cell_angle_gamma                120
_cell_volume                     3923.55
loop_
_atom_site_label
_atom_site_type_symbol
_atom_site_fract_x
_atom_site_fract_y
_atom_site_fract_z
_atom_site_U_iso_or_equiv
_atom_site_thermal_displace_type
Co6 Co 0.6615(44) 0.0423(23) 0.223(8) 0.0210 Uiso
O9 O 0.6434(14) 0.0152(10) 0.7628(33) 0.0190 Uiso
O11 O 0.7051(10) 0.0232(14) 0.4294(33) 0.0190 Uiso
Co9 Co 0.7141(37) 0.0051(44) 0.889(8) 0.0210 Uiso
C3 C 0.6391(10) 0.8661(8) 0.040(4) 0.0150 Uiso
C4 C 0.6322(8) 0.9088(8) 0.1632(29) 0.0130 Uiso
O2 O 0.6515(10) 0.9616(10) 0.0961(33) 0.0190 Uiso
O3 O 0.6098(11) 0.8912(10) 0.334(4) 0.0340 Uiso
C5 C 0.6281(13) 0.8141(6) 0.125(4) 0.0260 Uiso
H2 H 0.6173(23) 0.8086(12) 0.282(8) 0.0280 Uiso
C6 C 0.6391(10) 0.7730(13) 0.040(4) 0.0150 Uiso
C7 C 0.6322(8) 0.7234(11) 0.1632(29) 0.0130 Uiso
O4 O 0.6515(10) 0.6899(14) 0.0961(33) 0.0190 Uiso
O5 O 0.6098(11) 0.7186(15) 0.334(4) 0.0340 Uiso
Co3 Co 0.6244(23) 0.9526(37) 0.556(8) 0.0210 Uiso
Co4 Co 0.6244(23) 0.6718(44) 0.556(8) 0.0210 Uiso
Co8 Co 0.6615(44) 0.6193(37) 0.223(8) 0.0210 Uiso
C1 C 0.6577(10) 0.8783(11) 0.837(4) 0.0440 Uiso
C2 C 0.6653(13) 0.8327(7) 0.744(5) 0.0230 Uiso
H1 H 0.6796(26) 0.8398(13) 0.588(10) 0.0400 Uiso
O1 O 0.6699(10) 0.9263(11) 0.748(4) 0.0310 Uiso
C8 C 0.6577(10) 0.7794(15) 0.837(4) 0.0440 Uiso
O6 O 0.6699(10) 0.7436(15) 0.748(4) 0.0310 Uiso
O7 O 0.5897(15) 0.9968(10) 0.415(4) 0.0310 Uiso
O8 O 0.5897(15) 0.5930(11) 0.415(4) 0.0310 Uiso
O10 O 0.6434(14) 0.6283(10) 0.7628(33) 0.0190 Uiso
O12 O 0.7051(10) 0.6818(10) 0.4294(33) 0.0190 Uiso
Co10 Co 0.7141(37) 0.7089(23) 0.889(8) 0.0210 Uiso
Co8_2 Co 0.3807(37) 0.0423(57) 0.223(8) 0.0210 Uiso
O10_2 O 0.3717(10) 0.0152(17) 0.7628(33) 0.0190 Uiso
O12_2 O 0.3182(10) 0.0232(14) 0.4294(33) 0.0190 Uiso
Co10_2 Co 0.2911(23) 0.0051(44) 0.889(8) 0.0210 Uiso
C3_2 C 0.1339(8) 0.7730(13) 0.040(4) 0.0150 Uiso
C4_2 C 0.0912(8) 0.7234(11) 0.1632(29) 0.0130 Uiso
O2_2 O 0.0384(10) 0.6899(14) 0.0961(33) 0.0190 Uiso
O3_2 O 0.1088(10) 0.7186(15) 0.334(4) 0.0340 Uiso
C5_2 C 0.1859(6) 0.8140(14) 0.125(4) 0.0260 Uiso
H2_2 H 0.1914(12) 0.8087(26) 0.282(8) 0.0280 Uiso
C6_2 C 0.2270(13) 0.8661(16) 0.040(4) 0.0150 Uiso
C7_2 C 0.2766(11) 0.9088(14) 0.1632(29) 0.0130 Uiso
O4_2 O 0.3101(14) 0.9616(17) 0.0961(33) 0.0190 Uiso
O5_2 O 0.2814(15) 0.8912(19) 0.334(4) 0.0340 Uiso
Co3_2 Co 0.0474(37) 0.6718(44) 0.556(8) 0.0210 Uiso
Co4_2 Co 0.3282(44) 0.9526(50) 0.556(8) 0.0210 Uiso
C1_2 C 0.1217(11) 0.7794(15) 0.837(4) 0.0440 Uiso
C2_2 C 0.1673(7) 0.8326(15) 0.744(5) 0.0230 Uiso
H1_2 H 0.1602(13) 0.8398(29) 0.588(10) 0.0400 Uiso
O1_2 O 0.0737(11) 0.7436(15) 0.748(4) 0.0310 Uiso
C8_2 C 0.2206(15) 0.8783(18) 0.837(4) 0.0440 Uiso
O6_2 O 0.2564(15) 0.9263(18) 0.748(4) 0.0310 Uiso
O7_2 O 0.0032(10) 0.5930(18) 0.415(4) 0.0310 Uiso
O8_2 O 0.4070(11) 0.9968(19) 0.415(4) 0.0310 Uiso
Co6_2 Co 0.9577(23) 0.6193(50) 0.223(8) 0.0210 Uiso
O9_2 O 0.9848(10) 0.6283(17) 0.7628(33) 0.0190 Uiso
O11_2 O 0.9768(14) 0.6818(17) 0.4294(33) 0.0190 Uiso
Co9_2 Co 0.9949(44) 0.7089(57) 0.889(8) 0.0210 Uiso
C3_3 C 0.2270(13) 0.3609(10) 0.040(4) 0.0150 Uiso
C4_3 C 0.2766(11) 0.3678(8) 0.1632(29) 0.0130 Uiso
O2_3 O 0.3101(14) 0.3485(10) 0.0961(33) 0.0190 Uiso
O3_3 O 0.2814(15) 0.3902(11) 0.334(4) 0.0340 Uiso
C5_3 C 0.1860(14) 0.3719(13) 0.125(4) 0.0260 Uiso
H2_3 H 0.1913(26) 0.3827(23) 0.282(8) 0.0280 Uiso
C6_3 C 0.1339(16) 0.3609(10) 0.040(4) 0.0150 Uiso
C7_3 C 0.0912(14) 0.3678(8) 0.1632(29) 0.0130 Uiso
O4_3 O 0.0384(17) 0.3485(10) 0.0961(33) 0.0190 Uiso
O5_3 O 0.1088(19) 0.3902(11) 0.334(4) 0.0340 Uiso
Co3_3 Co 0.3282(44) 0.3756(23) 0.556(8) 0.0210 Uiso
Co4_3 Co 0.0474(50) 0.3756(23) 0.556(8) 0.0210 Uiso
Co6_3 Co 0.3807(50) 0.3385(44) 0.223(8) 0.0210 Uiso
C1_3 C 0.2206(15) 0.3423(10) 0.837(4) 0.0440 Uiso
C2_3 C 0.1674(15) 0.3347(13) 0.744(5) 0.0230 Uiso
H1_3 H 0.1602(29) 0.3204(26) 0.588(10) 0.0400 Uiso
O1_3 O 0.2564(15) 0.3301(10) 0.748(4) 0.0310 Uiso
C8_3 C 0.1217(18) 0.3423(10) 0.837(4) 0.0440 Uiso
O6_3 O 0.0737(18) 0.3301(10) 0.748(4) 0.0310 Uiso
O7_3 O 0.4070(18) 0.4103(15) 0.415(4) 0.0310 Uiso
O8_3 O 0.0032(19) 0.4103(15) 0.415(4) 0.0310 Uiso
O9_3 O 0.3717(17) 0.3566(14) 0.7628(33) 0.0190 Uiso
O11_3 O 0.3182(17) 0.2949(10) 0.4294(33) 0.0190 Uiso
Co9_3 Co 0.2911(57) 0.2859(37) 0.889(8) 0.0210 Uiso
Co8_3 Co 0.9577(57) 0.3385(44) 0.223(8) 0.0210 Uiso
O10_3 O 0.9848(17) 0.3566(14) 0.7628(33) 0.0190 Uiso
O12_3 O 0.9768(14) 0.2949(10) 0.4294(33) 0.0190 Uiso
Co10_3 Co 0.9949(44) 0.2859(37) 0.889(8) 0.0210 Uiso
H1_4 H 0.0129(26) 0.5065(13) 0.255(10) 0.0400 Uiso
O3_4 O 0.9431(11) 0.5579(10) 0.001(4) 0.0340 Uiso
O5_4 O 0.9431(11) 0.3853(15) 0.001(4) 0.0340 Uiso
C1_4 C 0.9910(10) 0.5450(11) 0.504(4) 0.0440 Uiso
C2_4 C 0.9986(13) 0.4994(7) 0.411(5) 0.0230 Uiso
C3_4 C 0.9724(10) 0.5328(8) 0.707(4) 0.0150 Uiso
C4_4 C 0.9655(8) 0.5755(8) 0.8299(29) 0.0130 Uiso
C5_4 C 0.9614(13) 0.4808(6) 0.792(4) 0.0260 Uiso
H2_4 H 0.9506(23) 0.4753(12) 0.949(8) 0.0280 Uiso
C6_4 C 0.9724(10) 0.4397(13) 0.707(4) 0.0150 Uiso
C7_4 C 0.9655(8) 0.3901(11) 0.8299(29) 0.0130 Uiso
C8_4 C 0.9910(10) 0.4461(15) 0.504(4) 0.0440 Uiso
O7_4 O 0.9231(15) 0.6634(10) 0.081(4) 0.0310 Uiso
O8_4 O 0.9231(15) 0.2596(11) 0.081(4) 0.0310 Uiso
O3_5 O 0.4421(10) 0.3853(15) 0.001(4) 0.0340 Uiso
O5_5 O 0.6147(15) 0.5579(19) 0.001(4) 0.0340 Uiso
C1_5 C 0.4550(11) 0.4461(15) 0.504(4) 0.0440 Uiso
C2_5 C 0.5006(7) 0.4993(15) 0.411(5) 0.0230 Uiso
C3_5 C 0.4672(8) 0.4397(13) 0.707(4) 0.0150 Uiso
C4_5 C 0.4245(8) 0.3901(11) 0.8299(29) 0.0130 Uiso
H1_5 H 0.4935(13) 0.5065(29) 0.255(10) 0.0400 Uiso
C5_5 C 0.5192(6) 0.4807(14) 0.792(4) 0.0260 Uiso
H2_5 H 0.5247(12) 0.4754(26) 0.949(8) 0.0280 Uiso
C6_5 C 0.5603(13) 0.5328(16) 0.707(4) 0.0150 Uiso
C7_5 C 0.6099(11) 0.5755(14) 0.8299(29) 0.0130 Uiso
C8_5 C 0.5539(15) 0.5450(18) 0.504(4) 0.0440 Uiso
O7_5 O 0.3366(10) 0.2596(18) 0.081(4) 0.0310 Uiso
O8_5 O 0.7404(11) 0.6634(19) 0.081(4) 0.0310 Uiso
O3_6 O 0.6147(15) 0.0569(11) 0.001(4) 0.0340 Uiso
O5_6 O 0.4421(19) 0.0569(11) 0.001(4) 0.0340 Uiso
C1_6 C 0.5539(15) 0.0090(10) 0.504(4) 0.0440 Uiso
C2_6 C 0.5007(15) 0.0014(13) 0.411(5) 0.0230 Uiso
C3_6 C 0.5603(13) 0.0276(10) 0.707(4) 0.0150 Uiso
C4_6 C 0.6099(11) 0.0345(8) 0.8299(29) 0.0130 Uiso
C5_6 C 0.5193(14) 0.0386(13) 0.792(4) 0.0260 Uiso
H2_6 H 0.5246(26) 0.0494(23) 0.949(8) 0.0280 Uiso
C6_6 C 0.4672(16) 0.0276(10) 0.707(4) 0.0150 Uiso
C7_6 C 0.4245(14) 0.0345(8) 0.8299(29) 0.0130 Uiso
C8_6 C 0.4550(18) 0.0090(10) 0.504(4) 0.0440 Uiso
O7_6 O 0.7404(18) 0.0769(15) 0.081(4) 0.0310 Uiso
O8_6 O 0.3366(19) 0.0769(15) 0.081(4) 0.0310 Uiso
H1_6 H 0.4935(29) 0.9871(26) 0.255(10) 0.0400 Uiso
C1_7 C 0.3244(10) 0.2116(11) 0.170(4) 0.0440 Uiso
C2_7 C 0.3320(13) 0.1660(7) 0.077(5) 0.0230 Uiso
C3_7 C 0.3058(10) 0.1994(8) 0.373(4) 0.0150 Uiso
C4_7 C 0.2989(8) 0.2421(8) 0.4965(29) 0.0130 Uiso
O3_7 O 0.2765(11) 0.2245(10) 0.667(4) 0.0340 Uiso
C5_7 C 0.2948(13) 0.1474(6) 0.458(4) 0.0260 Uiso
H2_7 H 0.2840(23) 0.1419(12) 0.615(8) 0.0280 Uiso
C6_7 C 0.3058(10) 0.1063(13) 0.373(4) 0.0150 Uiso
C7_7 C 0.2989(8) 0.0567(11) 0.4965(29) 0.0130 Uiso
O5_7 O 0.2765(11) 0.0519(15) 0.667(4) 0.0340 Uiso
C8_7 C 0.3244(10) 0.1127(15) 0.170(4) 0.0440 Uiso
H1_7 H 0.3463(26) 0.1731(13) 0.921(10) 0.0400 Uiso
C1_8 C 0.7884(11) 0.1127(15) 0.170(4) 0.0440 Uiso
C2_8 C 0.8340(7) 0.1659(15) 0.077(5) 0.0230 Uiso
C3_8 C 0.8006(8) 0.1063(13) 0.373(4) 0.0150 Uiso
C4_8 C 0.7579(8) 0.0567(11) 0.4965(29) 0.0130 Uiso
O3_8 O 0.7755(10) 0.0519(15) 0.667(4) 0.0340 Uiso
C5_8 C 0.8526(6) 0.1473(14) 0.458(4) 0.0260 Uiso
H2_8 H 0.8581(12) 0.1420(26) 0.615(8) 0.0280 Uiso
C6_8 C 0.8937(13) 0.1994(16) 0.373(4) 0.0150 Uiso
C7_8 C 0.9433(11) 0.2421(14) 0.4965(29) 0.0130 Uiso
O5_8 O 0.9481(15) 0.2245(19) 0.667(4) 0.0340 Uiso
C8_8 C 0.8873(15) 0.2116(18) 0.170(4) 0.0440 Uiso
H1_8 H 0.8269(13) 0.1731(29) 0.921(10) 0.0400 Uiso
C1_9 C 0.8873(15) 0.6756(10) 0.170(4) 0.0440 Uiso
C2_9 C 0.8341(15) 0.6680(13) 0.077(5) 0.0230 Uiso
C3_9 C 0.8937(13) 0.6942(10) 0.373(4) 0.0150 Uiso
C4_9 C 0.9433(11) 0.7011(8) 0.4965(29) 0.0130 Uiso
O3_9 O 0.9481(15) 0.7235(11) 0.667(4) 0.0340 Uiso
C5_9 C 0.8527(14) 0.7052(13) 0.458(4) 0.0260 Uiso
H2_9 H 0.8580(26) 0.7160(23) 0.615(8) 0.0280 Uiso
C6_9 C 0.8006(16) 0.6942(10) 0.373(4) 0.0150 Uiso
C7_9 C 0.7579(14) 0.7011(8) 0.4965(29) 0.0130 Uiso
O5_9 O 0.7755(19) 0.7235(11) 0.667(4) 0.0340 Uiso
C8_9 C 0.7884(18) 0.6756(10) 0.170(4) 0.0440 Uiso
H1_9 H 0.8269(29) 0.6537(26) 0.921(10) 0.0400 Uiso
loop_
_geom_bond_atom_site_label_1
_geom_bond_atom_site_label_2
_geom_bond_site_symmetry_1
_geom_bond_site_symmetry_2
O9 Co9 1_555 1_555
O11 Co6 1_555 1_555
C4 C3 1_555 1_555
O2 C4 1_555 1_555
O3 C4 1_555 1_555
C5 C3 1_555 1_555
H2 C5 1_555 1_555
C6 C5 1_555 1_555
C7 C6 1_555 1_555
O4 C7 1_555 1_555
O5 C7 1_555 1_555
Co3 O3 1_555 1_555
Co4 O5 1_555 1_555
Co8 O4 1_555 1_555
Co4 Co8 1_555 1_555
C1 C2 1_555 1_555
C2 H1 1_555 1_555
O1 C1 1_555 1_555
Co3 O1 1_555 1_555
C8 C2 1_555 1_555
O6 C8 1_555 1_555
Co4 O6 1_555 1_555
O7 Co3 1_555 1_555
O8 Co4 1_555 1_555
O10 Co4 1_555 1_555
O12 Co4 1_555 1_555
O6 Co10 1_555 1_555
Co4 Co10 1_555 1_555
O8 Co8 1_555 1_555
O10 Co10 1_555 1_555
O12 Co8 1_555 1_555
O10_2 Co10_2 1_555 1_555
O12_2 Co8_2 1_555 1_555
C4_2 C3_2 1_555 1_555
O2_2 C4_2 1_555 1_555
O3_2 C4_2 1_555 1_555
C5_2 C3_2 1_555 1_555
H2_2 C5_2 1_555 1_555
C6_2 C5_2 1_555 1_555
C7_2 C6_2 1_555 1_555
O4_2 C7_2 1_555 1_555
O5_2 C7_2 1_555 1_555
Co3_2 O3_2 1_555 1_555
Co4_2 O5_2 1_555 1_555
C1_2 C2_2 1_555 1_555
C2_2 H1_2 1_555 1_555
O1_2 C1_2 1_555 1_555
Co3_2 O1_2 1_555 1_555
C8_2 C2_2 1_555 1_555
O6_2 C8_2 1_555 1_555
Co4_2 O6_2 1_555 1_555
O7_2 Co3_2 1_555 1_555
O8_2 Co4_2 1_555 1_555
O9_2 Co9_2 1_555 1_555
O11_2 Co6_2 1_555 1_555
C4_3 C3_3 1_555 1_555
O2_3 C4_3 1_555 1_555
O3_3 C4_3 1_555 1_555
C5_3 C3_3 1_555 1_555
H2_3 C5_3 1_555 1_555
C6_3 C5_3 1_555 1_555
C7_3 C6_3 1_555 1_555
O4_3 C7_3 1_555 1_555
O5_3 C7_3 1_555 1_555
Co3_3 O3_3 1_555 1_555
Co4_3 O5_3 1_555 1_555
Co6_3 O2_3 1_555 1_555
Co3_3 Co6_3 1_555 1_555
C1_3 C2_3 1_555 1_555
C2_3 H1_3 1_555 1_555
O1_3 C1_3 1_555 1_555
Co3_3 O1_3 1_555 1_555
C8_3 C2_3 1_555 1_555
O6_3 C8_3 1_555 1_555
Co4_3 O6_3 1_555 1_555
O7_3 Co3_3 1_555 1_555
O8_3 Co4_3 1_555 1_555
O9_3 Co3_3 1_555 1_555
O11_3 Co3_3 1_555 1_555
Co9_3 O1_3 1_555 1_555
Co3_3 Co9_3 1_555 1_555
O7_3 Co6_3 1_555 1_555
O9_3 Co9_3 1_555 1_555
O11_3 Co6_3 1_555 1_555
O10_3 Co10_3 1_555 1_555
O12_3 Co8_3 1_555 1_555
Co6_2 O3_4 1_555 1_555
Co8_3 O5_4 1_555 1_555
C1_4 C2_4 1_555 1_555
C3_4 C1_4 1_555 1_555
C4_4 C3_4 1_555 1_555
O9_2 C4_4 1_555 1_555
C5_4 C3_4 1_555 1_555
H2_4 C5_4 1_555 1_555
C6_4 C5_4 1_555 1_555
C7_4 C6_4 1_555 1_555
O10_3 C7_4 1_555 1_555
C8_4 C2_4 1_555 1_555
O7_4 Co6_2 1_555 1_555
O8_4 Co8_3 1_555 1_555
C6_4 C8_4 1_555 1_555
Co6_3 O3_5 1_555 1_555
Co8 O5_5 1_555 1_555
C1_5 C2_5 1_555 1_555
C2_5 H1_5 1_555 1_555
C3_5 C1_5 1_555 1_555
C4_5 C3_5 1_555 1_555
O7_3 C1_5 1_555 1_555
O9_3 C4_5 1_555 1_555
C5_5 C3_5 1_555 1_555
H2_5 C5_5 1_555 1_555
C6_5 C5_5 1_555 1_555
C7_5 C6_5 1_555 1_555
O10 C7_5 1_555 1_555
C8_5 C2_5 1_555 1_555
O8 C8_5 1_555 1_555
O7_5 Co6_3 1_555 1_555
O8_5 Co8 1_555 1_555
C6_5 C8_5 1_555 1_555
Co6 O3_6 1_555 1_555
Co8_2 O5_6 1_555 1_555
C1_6 C2_6 1_555 1_555
C3_6 C1_6 1_555 1_555
C4_6 C3_6 1_555 1_555
O9 C4_6 1_555 1_555
C5_6 C3_6 1_555 1_555
H2_6 C5_6 1_555 1_555
C6_6 C5_6 1_555 1_555
C7_6 C6_6 1_555 1_555
O10_2 C7_6 1_555 1_555
C8_6 C2_6 1_555 1_555
O7_6 Co6 1_555 1_555
O8_6 Co8_2 1_555 1_555
C6_6 C8_6 1_555 1_555
C1_7 C2_7 1_555 1_555
C3_7 C1_7 1_555 1_555
C4_7 C3_7 1_555 1_555
O7_5 C1_7 1_555 1_555
O11_3 C4_7 1_555 1_555
O3_7 C4_7 1_555 1_555
C5_7 C3_7 1_555 1_555
H2_7 C5_7 1_555 1_555
C6_7 C5_7 1_555 1_555
C7_7 C6_7 1_555 1_555
O12_2 C7_7 1_555 1_555
O5_7 C7_7 1_555 1_555
C8_7 C2_7 1_555 1_555
O8_6 C8_7 1_555 1_555
Co9_3 O3_7 1_555 1_555
Co10_2 O5_7 1_555 1_555
C6_7 C8_7 1_555 1_555
C1_8 C2_8 1_555 1_555
C3_8 C1_8 1_555 1_555
C4_8 C3_8 1_555 1_555
O7_6 C1_8 1_555 1_555
O11 C4_8 1_555 1_555
O3_8 C4_8 1_555 1_555
C5_8 C3_8 1_555 1_555
H2_8 C5_8 1_555 1_555
C6_8 C5_8 1_555 1_555
C7_8 C6_8 1_555 1_555
O12_3 C7_8 1_555 1_555
O5_8 C7_8 1_555 1_555
C8_8 C2_8 1_555 1_555
O8_4 C8_8 1_555 1_555
Co9 O3_8 1_555 1_555
Co10_3 O5_8 1_555 1_555
C6_8 C8_8 1_555 1_555
C1_9 C2_9 1_555 1_555
C3_9 C1_9 1_555 1_555
C4_9 C3_9 1_555 1_555
O7_4 C1_9 1_555 1_555
O11_2 C4_9 1_555 1_555
O3_9 C4_9 1_555 1_555
C5_9 C3_9 1_555 1_555
H2_9 C5_9 1_555 1_555
C6_9 C5_9 1_555 1_555
C7_9 C6_9 1_555 1_555
O12 C7_9 1_555 1_555
O5_9 C7_9 1_555 1_555
C8_9 C2_9 1_555 1_555
O8_5 C8_9 1_555 1_555
Co9_2 O3_9 1_555 1_555
Co10 O5_9 1_555 1_555
C6_9 C8_9 1_555 1_555

#END
