
###############################################################################
#
# This file contains modified crystal structure data generated from the
# MOF subset of the Cambridge Structural Database (CSD) v543 
# hosted by the Cambridge Crystallographic Data Centre (CCDC).
#
# This work is licensed under the Creative Commons
# Attribution-NonCommercial-ShareAlike 4.0 International License.
# To view a copy of this license, visit
# http://creativecommons.org/licenses/by-nc-sa/4.0/
# or send a letter to
# Creative Commons, PO Box 1866, Mountain View, CA 94042, USA.
#
# CIF created using the CSD Python API on 29 September 2022
# The structure has been converted into the P1 space group
# The structure has a 3D framework
# The original CSD entry KOSKIO01 is in the rhombohedral crystal system
# The framework has been calculated to contain at least 10.0% void space
# The void calculation uses a probe of radius 1.32A, grid spacing 0.4
#
###############################################################################

data_KOSKIO01
_chemical_formula_moiety         '(C72 H27 Co6 O44)n'
_symmetry_cell_setting           triclinic
_symmetry_space_group_name_H-M   'P 1'
_symmetry_Int_Tables_number      1
_space_group_name_Hall           'P 1'
loop_
_symmetry_equiv_pos_site_id
_symmetry_equiv_pos_as_xyz
1 x,y,z
_cell_length_a                   25.8902(7)
_cell_length_b                   25.8902
_cell_length_c                   6.79046(29)
_cell_angle_alpha                90
_cell_angle_beta                 90
_cell_angle_gamma                120
_cell_volume                     3941.85
loop_
_atom_site_label
_atom_site_type_symbol
_atom_site_fract_x
_atom_site_fract_y
_atom_site_fract_z
_atom_site_U_iso_or_equiv
_atom_site_thermal_displace_type
Co6 Co 0.66096(39) 0.04176(20) 0.224(6) 0.0213 Uiso
O9 O 0.6431(11) 0.0151(7) 0.765(7) 0.0670 Uiso
O11 O 0.7053(8) 0.0235(11) 0.431(7) 0.0670 Uiso
Co9 Co 0.71413(34) 0.00570(39) 0.890(6) 0.0213 Uiso
C3 C 0.6391(13) 0.8663(11) 0.036(7) 0.0260 Uiso
C4 C 0.6315(11) 0.9083(11) 0.163(8) 0.0220 Uiso
O2 O 0.6516(7) 0.9614(8) 0.098(7) 0.0670 Uiso
O3 O 0.6103(6) 0.8919(7) 0.339(6) 0.0520 Uiso
C5 C 0.6266(23) 0.8134(12) 0.127(7) 0.0900 Uiso
H2 H 0.626(11) 0.813(5) 0.29(4) 0.0600 Uiso
C6 C 0.6391(13) 0.7728(17) 0.036(7) 0.0260 Uiso
C7 C 0.6315(11) 0.7232(16) 0.163(8) 0.0220 Uiso
O4 O 0.6516(7) 0.6902(11) 0.098(7) 0.0670 Uiso
O5 O 0.6103(6) 0.7184(9) 0.339(6) 0.0520 Uiso
Co3 Co 0.62491(20) 0.95254(34) 0.557(6) 0.0213 Uiso
Co4 Co 0.62491(20) 0.67237(39) 0.557(6) 0.0213 Uiso
Co8 Co 0.66096(39) 0.61921(34) 0.224(6) 0.0213 Uiso
C1 C 0.6577(22) 0.8767(19) 0.837(9) 0.1710 Uiso
C2 C 0.6692(34) 0.8347(17) 0.739(10) 0.1060 Uiso
H1 H 0.691(12) 0.845(6) 0.58(4) 0.1700 Uiso
O1 O 0.6704(9) 0.9263(6) 0.747(8) 0.0220 Uiso
C8 C 0.6577(22) 0.7810(29) 0.837(9) 0.1710 Uiso
O6 O 0.6704(9) 0.7441(11) 0.747(8) 0.0220 Uiso
O7 O 0.5892(11) 0.9963(9) 0.414(8) 0.0220 Uiso
O8 O 0.5892(11) 0.5930(6) 0.414(8) 0.0220 Uiso
O10 O 0.6431(11) 0.6281(8) 0.765(7) 0.0670 Uiso
O12 O 0.7053(8) 0.6817(7) 0.431(7) 0.0670 Uiso
Co10 Co 0.71413(34) 0.70842(20) 0.890(6) 0.0213 Uiso
Co8_2 Co 0.38079(34) 0.04176(52) 0.224(6) 0.0213 Uiso
O10_2 O 0.3719(8) 0.0151(14) 0.765(7) 0.0670 Uiso
O12_2 O 0.3183(7) 0.0235(11) 0.431(7) 0.0670 Uiso
Co10_2 Co 0.29158(20) 0.00570(39) 0.890(6) 0.0213 Uiso
C3_2 C 0.1337(11) 0.7728(17) 0.036(7) 0.0260 Uiso
C4_2 C 0.0917(11) 0.7232(16) 0.163(8) 0.0220 Uiso
O2_2 O 0.0386(8) 0.6902(11) 0.098(7) 0.0670 Uiso
O3_2 O 0.1081(7) 0.7184(9) 0.339(6) 0.0520 Uiso
C5_2 C 0.1866(12) 0.8132(26) 0.127(7) 0.0900 Uiso
H2_2 H 0.187(5) 0.813(12) 0.29(4) 0.0600 Uiso
C6_2 C 0.2272(17) 0.8663(21) 0.036(7) 0.0260 Uiso
C7_2 C 0.2768(16) 0.9083(19) 0.163(8) 0.0220 Uiso
O4_2 O 0.3098(11) 0.9614(13) 0.098(7) 0.0670 Uiso
O5_2 O 0.2816(9) 0.8919(11) 0.339(6) 0.0520 Uiso
Co3_2 Co 0.04746(34) 0.67237(39) 0.557(6) 0.0213 Uiso
Co4_2 Co 0.32763(39) 0.95254(44) 0.557(6) 0.0213 Uiso
C1_2 C 0.1233(19) 0.7810(29) 0.837(9) 0.1710 Uiso
C2_2 C 0.1653(17) 0.8345(38) 0.739(10) 0.1060 Uiso
H1_2 H 0.155(6) 0.846(13) 0.58(4) 0.1700 Uiso
O1_2 O 0.0737(6) 0.7441(11) 0.747(8) 0.0220 Uiso
C8_2 C 0.2190(29) 0.8767(36) 0.837(9) 0.1710 Uiso
O6_2 O 0.2559(11) 0.9263(14) 0.747(8) 0.0220 Uiso
O7_2 O 0.0037(9) 0.5930(14) 0.414(8) 0.0220 Uiso
O8_2 O 0.4070(6) 0.9963(13) 0.414(8) 0.0220 Uiso
Co6_2 Co 0.95824(20) 0.61921(44) 0.224(6) 0.0213 Uiso
O9_2 O 0.9849(7) 0.6281(13) 0.765(7) 0.0670 Uiso
O11_2 O 0.9765(11) 0.6817(14) 0.431(7) 0.0670 Uiso
Co9_2 Co 0.99430(39) 0.70842(52) 0.890(6) 0.0213 Uiso
C3_3 C 0.2272(17) 0.3609(13) 0.036(7) 0.0260 Uiso
C4_3 C 0.2768(16) 0.3685(11) 0.163(8) 0.0220 Uiso
O2_3 O 0.3098(11) 0.3484(7) 0.098(7) 0.0670 Uiso
O3_3 O 0.2816(9) 0.3897(6) 0.339(6) 0.0520 Uiso
C5_3 C 0.1868(26) 0.3734(23) 0.127(7) 0.0900 Uiso
H2_3 H 0.187(12) 0.374(11) 0.29(4) 0.0600 Uiso
C6_3 C 0.1337(21) 0.3609(13) 0.036(7) 0.0260 Uiso
C7_3 C 0.0917(19) 0.3685(11) 0.163(8) 0.0220 Uiso
O4_3 O 0.0386(13) 0.3484(7) 0.098(7) 0.0670 Uiso
O5_3 O 0.1081(11) 0.3897(6) 0.339(6) 0.0520 Uiso
Co3_3 Co 0.32763(39) 0.37509(20) 0.557(6) 0.0213 Uiso
Co4_3 Co 0.04746(44) 0.37509(20) 0.557(6) 0.0213 Uiso
Co6_3 Co 0.38079(44) 0.33904(39) 0.224(6) 0.0213 Uiso
C1_3 C 0.2190(29) 0.3423(22) 0.837(9) 0.1710 Uiso
C2_3 C 0.1655(38) 0.3308(34) 0.739(10) 0.1060 Uiso
H1_3 H 0.154(13) 0.309(12) 0.58(4) 0.1700 Uiso
O1_3 O 0.2559(11) 0.3296(9) 0.747(8) 0.0220 Uiso
C8_3 C 0.1233(36) 0.3423(22) 0.837(9) 0.1710 Uiso
O6_3 O 0.0737(14) 0.3296(9) 0.747(8) 0.0220 Uiso
O7_3 O 0.4070(14) 0.4108(11) 0.414(8) 0.0220 Uiso
O8_3 O 0.0037(13) 0.4108(11) 0.414(8) 0.0220 Uiso
O9_3 O 0.3719(13) 0.3569(11) 0.765(7) 0.0670 Uiso
O11_3 O 0.3183(14) 0.2947(8) 0.431(7) 0.0670 Uiso
Co9_3 Co 0.29158(52) 0.28587(34) 0.890(6) 0.0213 Uiso
Co8_3 Co 0.95824(52) 0.33904(39) 0.224(6) 0.0213 Uiso
O10_3 O 0.9849(14) 0.3569(11) 0.765(7) 0.0670 Uiso
O12_3 O 0.9765(11) 0.2947(8) 0.431(7) 0.0670 Uiso
Co10_3 Co 0.99430(39) 0.28587(34) 0.890(6) 0.0213 Uiso
H1_4 H 0.154(13) 0.845(6) 0.58(4) 0.1700 Uiso
H1_5 H 0.155(6) 0.309(12) 0.58(4) 0.1700 Uiso
H1_6 H 0.691(12) 0.846(13) 0.58(4) 0.1700 Uiso
C2_4 C 0.0025(34) 0.5014(17) 0.406(10) 0.1060 Uiso
H1_7 H 0.024(12) 0.512(6) 0.25(4) 0.1700 Uiso
O3_4 O 0.9436(6) 0.5586(7) 0.006(6) 0.0520 Uiso
O5_4 O 0.9436(6) 0.3851(9) 0.006(6) 0.0520 Uiso
C1_4 C 0.9910(22) 0.5434(19) 0.504(9) 0.1710 Uiso
C3_4 C 0.9724(13) 0.5330(11) 0.703(7) 0.0260 Uiso
C4_4 C 0.9648(11) 0.5750(11) 0.830(8) 0.0220 Uiso
C5_4 C 0.9599(23) 0.4801(12) 0.794(7) 0.0900 Uiso
H2_4 H 0.959(11) 0.480(5) 0.96(4) 0.0600 Uiso
C6_4 C 0.9724(13) 0.4395(17) 0.703(7) 0.0260 Uiso
C7_4 C 0.9648(11) 0.3899(16) 0.830(8) 0.0220 Uiso
C8_4 C 0.9910(22) 0.4477(29) 0.504(9) 0.1710 Uiso
O7_4 O 0.9226(11) 0.6629(9) 0.080(8) 0.0220 Uiso
O8_4 O 0.9226(11) 0.2596(6) 0.080(8) 0.0220 Uiso
O3_5 O 0.4414(7) 0.3851(9) 0.006(6) 0.0520 Uiso
O5_5 O 0.6149(9) 0.5586(11) 0.006(6) 0.0520 Uiso
C1_5 C 0.4566(19) 0.4477(29) 0.504(9) 0.1710 Uiso
C2_5 C 0.4986(17) 0.5012(38) 0.406(10) 0.1060 Uiso
C3_5 C 0.4670(11) 0.4395(17) 0.703(7) 0.0260 Uiso
C4_5 C 0.4250(11) 0.3899(16) 0.830(8) 0.0220 Uiso
H1_8 H 0.488(6) 0.513(13) 0.25(4) 0.1700 Uiso
C5_5 C 0.5199(12) 0.4799(26) 0.794(7) 0.0900 Uiso
H2_5 H 0.520(5) 0.480(12) 0.96(4) 0.0600 Uiso
C6_5 C 0.5605(17) 0.5330(21) 0.703(7) 0.0260 Uiso
C7_5 C 0.6101(16) 0.5750(19) 0.830(8) 0.0220 Uiso
C8_5 C 0.5523(29) 0.5434(36) 0.504(9) 0.1710 Uiso
O7_5 O 0.3371(9) 0.2596(14) 0.080(8) 0.0220 Uiso
O8_5 O 0.7404(6) 0.6629(13) 0.080(8) 0.0220 Uiso
O3_6 O 0.6149(9) 0.0564(6) 0.006(6) 0.0520 Uiso
O5_6 O 0.4414(11) 0.0564(6) 0.006(6) 0.0520 Uiso
C1_6 C 0.5523(29) 0.0090(22) 0.504(9) 0.1710 Uiso
C3_6 C 0.5605(17) 0.0276(13) 0.703(7) 0.0260 Uiso
C4_6 C 0.6101(16) 0.0352(11) 0.830(8) 0.0220 Uiso
C5_6 C 0.5201(26) 0.0401(23) 0.794(7) 0.0900 Uiso
H2_6 H 0.520(12) 0.041(11) 0.96(4) 0.0600 Uiso
C6_6 C 0.4670(21) 0.0276(13) 0.703(7) 0.0260 Uiso
C7_6 C 0.4250(19) 0.0352(11) 0.830(8) 0.0220 Uiso
C8_6 C 0.4566(36) 0.0090(22) 0.504(9) 0.1710 Uiso
O7_6 O 0.7404(14) 0.0774(11) 0.080(8) 0.0220 Uiso
O8_6 O 0.3371(13) 0.0774(11) 0.080(8) 0.0220 Uiso
C2_6 C 0.4988(38) 0.9975(34) 0.406(10) 0.1060 Uiso
H1_9 H 0.487(13) 0.976(12) 0.25(4) 0.1700 Uiso
H1_10 H 0.487(13) 0.512(6) 0.25(4) 0.1700 Uiso
H1_11 H 0.488(6) 0.976(12) 0.25(4) 0.1700 Uiso
H1_12 H 0.024(12) 0.513(13) 0.25(4) 0.1700 Uiso
C1_7 C 0.3244(22) 0.2100(19) 0.170(9) 0.1710 Uiso
C2_7 C 0.3359(34) 0.1680(17) 0.072(10) 0.1060 Uiso
C3_7 C 0.3058(13) 0.1996(11) 0.369(7) 0.0260 Uiso
C4_7 C 0.2982(11) 0.2416(11) 0.496(8) 0.0220 Uiso
O3_7 O 0.2770(6) 0.2252(7) 0.672(6) 0.0520 Uiso
C5_7 C 0.2933(23) 0.1467(12) 0.460(7) 0.0900 Uiso
H2_7 H 0.293(11) 0.146(5) 0.62(4) 0.0600 Uiso
C6_7 C 0.3058(13) 0.1061(17) 0.369(7) 0.0260 Uiso
C7_7 C 0.2982(11) 0.0565(16) 0.496(8) 0.0220 Uiso
O5_7 O 0.2770(6) 0.0517(9) 0.672(6) 0.0520 Uiso
C8_7 C 0.3244(22) 0.1143(29) 0.170(9) 0.1710 Uiso
H1_13 H 0.358(12) 0.178(6) 0.91(4) 0.1700 Uiso
C1_8 C 0.7900(19) 0.1143(29) 0.170(9) 0.1710 Uiso
C2_8 C 0.8320(17) 0.1678(38) 0.072(10) 0.1060 Uiso
C3_8 C 0.8004(11) 0.1061(17) 0.369(7) 0.0260 Uiso
C4_8 C 0.7584(11) 0.0565(16) 0.496(8) 0.0220 Uiso
O3_8 O 0.7748(7) 0.0517(9) 0.672(6) 0.0520 Uiso
C5_8 C 0.8533(12) 0.1465(26) 0.460(7) 0.0900 Uiso
H2_8 H 0.854(5) 0.146(12) 0.62(4) 0.0600 Uiso
C6_8 C 0.8939(17) 0.1996(21) 0.369(7) 0.0260 Uiso
C7_8 C 0.9435(16) 0.2416(19) 0.496(8) 0.0220 Uiso
O5_8 O 0.9483(9) 0.2252(11) 0.672(6) 0.0520 Uiso
C8_8 C 0.8857(29) 0.2100(36) 0.170(9) 0.1710 Uiso
H1_14 H 0.822(6) 0.179(13) 0.91(4) 0.1700 Uiso
C1_9 C 0.8857(29) 0.6756(22) 0.170(9) 0.1710 Uiso
C2_9 C 0.8322(38) 0.6641(34) 0.072(10) 0.1060 Uiso
C3_9 C 0.8939(17) 0.6942(13) 0.369(7) 0.0260 Uiso
C4_9 C 0.9435(16) 0.7018(11) 0.496(8) 0.0220 Uiso
O3_9 O 0.9483(9) 0.7230(6) 0.672(6) 0.0520 Uiso
C5_9 C 0.8535(26) 0.7067(23) 0.460(7) 0.0900 Uiso
H2_9 H 0.854(12) 0.707(11) 0.62(4) 0.0600 Uiso
C6_9 C 0.8004(21) 0.6942(13) 0.369(7) 0.0260 Uiso
C7_9 C 0.7584(19) 0.7018(11) 0.496(8) 0.0220 Uiso
O5_9 O 0.7748(11) 0.7230(6) 0.672(6) 0.0520 Uiso
C8_9 C 0.7900(36) 0.6756(22) 0.170(9) 0.1710 Uiso
H1_15 H 0.821(13) 0.642(12) 0.91(4) 0.1700 Uiso
H1_16 H 0.821(13) 0.178(6) 0.91(4) 0.1700 Uiso
H1_17 H 0.822(6) 0.642(12) 0.91(4) 0.1700 Uiso
H1_18 H 0.358(12) 0.179(13) 0.91(4) 0.1700 Uiso
loop_
_geom_bond_atom_site_label_1
_geom_bond_atom_site_label_2
_geom_bond_site_symmetry_1
_geom_bond_site_symmetry_2
O9 Co9 1_555 1_555
O11 Co6 1_555 1_555
C4 C3 1_555 1_555
O2 C4 1_555 1_555
O3 C4 1_555 1_555
C5 C3 1_555 1_555
H2 C5 1_555 1_555
C6 C5 1_555 1_555
C7 C6 1_555 1_555
O4 C7 1_555 1_555
O5 C7 1_555 1_555
Co3 O3 1_555 1_555
Co4 O5 1_555 1_555
Co8 O4 1_555 1_555
Co4 Co8 1_555 1_555
C1 C2 1_555 1_555
C2 H1 1_555 1_555
O1 C1 1_555 1_555
Co3 O1 1_555 1_555
C8 C2 1_555 1_555
O6 C8 1_555 1_555
Co4 O6 1_555 1_555
O7 Co3 1_555 1_555
O8 Co4 1_555 1_555
O10 Co4 1_555 1_555
O12 Co4 1_555 1_555
O6 Co10 1_555 1_555
Co4 Co10 1_555 1_555
O8 Co8 1_555 1_555
O10 Co10 1_555 1_555
O12 Co8 1_555 1_555
O10_2 Co10_2 1_555 1_555
O12_2 Co8_2 1_555 1_555
C4_2 C3_2 1_555 1_555
O2_2 C4_2 1_555 1_555
O3_2 C4_2 1_555 1_555
C5_2 C3_2 1_555 1_555
H2_2 C5_2 1_555 1_555
C6_2 C5_2 1_555 1_555
C7_2 C6_2 1_555 1_555
O4_2 C7_2 1_555 1_555
O5_2 C7_2 1_555 1_555
Co3_2 O3_2 1_555 1_555
Co4_2 O5_2 1_555 1_555
C1_2 C2_2 1_555 1_555
C2_2 H1_2 1_555 1_555
O1_2 C1_2 1_555 1_555
Co3_2 O1_2 1_555 1_555
C8_2 C2_2 1_555 1_555
O6_2 C8_2 1_555 1_555
Co4_2 O6_2 1_555 1_555
O7_2 Co3_2 1_555 1_555
O8_2 Co4_2 1_555 1_555
O9_2 Co9_2 1_555 1_555
O11_2 Co6_2 1_555 1_555
C4_3 C3_3 1_555 1_555
O2_3 C4_3 1_555 1_555
O3_3 C4_3 1_555 1_555
C5_3 C3_3 1_555 1_555
H2_3 C5_3 1_555 1_555
C6_3 C5_3 1_555 1_555
C7_3 C6_3 1_555 1_555
O4_3 C7_3 1_555 1_555
O5_3 C7_3 1_555 1_555
Co3_3 O3_3 1_555 1_555
Co4_3 O5_3 1_555 1_555
Co6_3 O2_3 1_555 1_555
Co3_3 Co6_3 1_555 1_555
C1_3 C2_3 1_555 1_555
C2_3 H1_3 1_555 1_555
O1_3 C1_3 1_555 1_555
Co3_3 O1_3 1_555 1_555
C8_3 C2_3 1_555 1_555
O6_3 C8_3 1_555 1_555
Co4_3 O6_3 1_555 1_555
O7_3 Co3_3 1_555 1_555
O8_3 Co4_3 1_555 1_555
O9_3 Co3_3 1_555 1_555
O11_3 Co3_3 1_555 1_555
Co9_3 O1_3 1_555 1_555
Co3_3 Co9_3 1_555 1_555
O7_3 Co6_3 1_555 1_555
O9_3 Co9_3 1_555 1_555
O11_3 Co6_3 1_555 1_555
O10_3 Co10_3 1_555 1_555
O12_3 Co8_3 1_555 1_555
C2_2 H1_4 1_555 1_555
C2_3 H1_5 1_555 1_555
C2 H1_6 1_555 1_555
C2_4 H1_7 1_555 1_555
Co6_2 O3_4 1_555 1_555
Co8_3 O5_4 1_555 1_555
C3_4 C1_4 1_555 1_555
C4_4 C3_4 1_555 1_555
O9_2 C4_4 1_555 1_555
C5_4 C3_4 1_555 1_555
H2_4 C5_4 1_555 1_555
C6_4 C5_4 1_555 1_555
C7_4 C6_4 1_555 1_555
O10_3 C7_4 1_555 1_555
O7_4 Co6_2 1_555 1_555
O8_4 Co8_3 1_555 1_555
C6_4 C8_4 1_555 1_555
Co6_3 O3_5 1_555 1_555
Co8 O5_5 1_555 1_555
C1_5 C2_5 1_555 1_555
C2_5 H1_8 1_555 1_555
C3_5 C1_5 1_555 1_555
C4_5 C3_5 1_555 1_555
O7_3 C1_5 1_555 1_555
O9_3 C4_5 1_555 1_555
C5_5 C3_5 1_555 1_555
H2_5 C5_5 1_555 1_555
C6_5 C5_5 1_555 1_555
C7_5 C6_5 1_555 1_555
O10 C7_5 1_555 1_555
C8_5 C2_5 1_555 1_555
O8 C8_5 1_555 1_555
O7_5 Co6_3 1_555 1_555
O8_5 Co8 1_555 1_555
C6_5 C8_5 1_555 1_555
Co6 O3_6 1_555 1_555
Co8_2 O5_6 1_555 1_555
C3_6 C1_6 1_555 1_555
C4_6 C3_6 1_555 1_555
O9 C4_6 1_555 1_555
C5_6 C3_6 1_555 1_555
H2_6 C5_6 1_555 1_555
C6_6 C5_6 1_555 1_555
C7_6 C6_6 1_555 1_555
O10_2 C7_6 1_555 1_555
O7_6 Co6 1_555 1_555
O8_6 Co8_2 1_555 1_555
C6_6 C8_6 1_555 1_555
C2_6 H1_9 1_555 1_555
C2_5 H1_10 1_555 1_555
C2_6 H1_11 1_555 1_555
C2_4 H1_12 1_555 1_555
C1_7 C2_7 1_555 1_555
C3_7 C1_7 1_555 1_555
C4_7 C3_7 1_555 1_555
O7_5 C1_7 1_555 1_555
O11_3 C4_7 1_555 1_555
O3_7 C4_7 1_555 1_555
C5_7 C3_7 1_555 1_555
H2_7 C5_7 1_555 1_555
C6_7 C5_7 1_555 1_555
C7_7 C6_7 1_555 1_555
O12_2 C7_7 1_555 1_555
O5_7 C7_7 1_555 1_555
C8_7 C2_7 1_555 1_555
O8_6 C8_7 1_555 1_555
Co9_3 O3_7 1_555 1_555
Co10_2 O5_7 1_555 1_555
C6_7 C8_7 1_555 1_555
C1_8 C2_8 1_555 1_555
C3_8 C1_8 1_555 1_555
C4_8 C3_8 1_555 1_555
O7_6 C1_8 1_555 1_555
O11 C4_8 1_555 1_555
O3_8 C4_8 1_555 1_555
C5_8 C3_8 1_555 1_555
H2_8 C5_8 1_555 1_555
C6_8 C5_8 1_555 1_555
C7_8 C6_8 1_555 1_555
O12_3 C7_8 1_555 1_555
O5_8 C7_8 1_555 1_555
C8_8 C2_8 1_555 1_555
O8_4 C8_8 1_555 1_555
Co9 O3_8 1_555 1_555
Co10_3 O5_8 1_555 1_555
C6_8 C8_8 1_555 1_555
C1_9 C2_9 1_555 1_555
C3_9 C1_9 1_555 1_555
C4_9 C3_9 1_555 1_555
O7_4 C1_9 1_555 1_555
O11_2 C4_9 1_555 1_555
O3_9 C4_9 1_555 1_555
C5_9 C3_9 1_555 1_555
H2_9 C5_9 1_555 1_555
C6_9 C5_9 1_555 1_555
C7_9 C6_9 1_555 1_555
O12 C7_9 1_555 1_555
O5_9 C7_9 1_555 1_555
C8_9 C2_9 1_555 1_555
O8_5 C8_9 1_555 1_555
Co9_2 O3_9 1_555 1_555
Co10 O5_9 1_555 1_555
C6_9 C8_9 1_555 1_555

#END
