
###############################################################################
#
# This file contains modified crystal structure data generated from the
# MOF subset of the Cambridge Structural Database (CSD) v543 
# hosted by the Cambridge Crystallographic Data Centre (CCDC).
#
# This work is licensed under the Creative Commons
# Attribution-NonCommercial-ShareAlike 4.0 International License.
# To view a copy of this license, visit
# http://creativecommons.org/licenses/by-nc-sa/4.0/
# or send a letter to
# Creative Commons, PO Box 1866, Mountain View, CA 94042, USA.
#
# CIF created using the CSD Python API on 29 September 2022
# The structure has been converted into the P1 space group
# The structure has a 3D framework
# The original CSD entry KOSLIP is in the rhombohedral crystal system
# The framework has been calculated to contain at least 10.0% void space
# The void calculation uses a probe of radius 1.32A, grid spacing 0.4
#
###############################################################################

data_KOSLIP
_chemical_formula_moiety         '(C72 H18 Ni6 O44)n'
_symmetry_cell_setting           triclinic
_symmetry_space_group_name_H-M   'P 1'
_symmetry_Int_Tables_number      1
_space_group_name_Hall           'P 1'
loop_
_symmetry_equiv_pos_site_id
_symmetry_equiv_pos_as_xyz
1 x,y,z
_cell_length_a                   25.776(5)
_cell_length_b                   25.776
_cell_length_c                   6.7544(17)
_cell_angle_alpha                90
_cell_angle_beta                 90
_cell_angle_gamma                120
_cell_volume                     3886.41
loop_
_atom_site_label
_atom_site_type_symbol
_atom_site_fract_x
_atom_site_fract_y
_atom_site_fract_z
_atom_site_U_iso_or_equiv
_atom_site_thermal_displace_type
Ni6 Ni 0.6587(16) 0.0364(9) 0.2236(32) 0.0020 Uiso
O9 O 0.6417(23) 0.0111(15) 0.764(7) 0.0150 Uiso
O11 O 0.7027(17) 0.0249(23) 0.430(7) 0.0150 Uiso
Ni9 Ni 0.7110(13) 0.0079(16) 0.8902(32) 0.0020 Uiso
C3 C 0.6479(18) 0.8693(18) 0.051(6) 0.0180 Uiso
C4 C 0.6320(15) 0.9094(14) 0.162(5) 0.0050 Uiso
O2 O 0.6556(15) 0.9640(17) 0.097(7) 0.0150 Uiso
O3 O 0.6148(24) 0.8940(21) 0.351(8) 0.0490 Uiso
C5 C 0.6269(24) 0.8134(12) 0.138(8) 0.0090 Uiso
H2 H 0.623(4) 0.8116(20) 0.260(15) 0.0030 Uiso
C6 C 0.6479(18) 0.7786(25) 0.051(6) 0.0180 Uiso
C7 C 0.6320(15) 0.7226(21) 0.162(5) 0.0050 Uiso
O4 O 0.6556(15) 0.6916(23) 0.097(7) 0.0150 Uiso
O5 O 0.6148(24) 0.7208(32) 0.351(8) 0.0490 Uiso
Ni3 Ni 0.6303(9) 0.9557(13) 0.5569(32) 0.0020 Uiso
Ni4 Ni 0.6303(9) 0.6746(16) 0.5569(32) 0.0020 Uiso
Ni8 Ni 0.6587(16) 0.6224(13) 0.2236(32) 0.0020 Uiso
C1 C 0.6596(17) 0.8767(17) 0.832(7) 0.0170 Uiso
C2 C 0.6717(25) 0.8359(13) 0.740(10) 0.0070 Uiso
H1 H 0.673(4) 0.8364(20) 0.586(18) 0.0240 Uiso
O1 O 0.6741(16) 0.9280(17) 0.764(6) 0.0080 Uiso
C8 C 0.6596(17) 0.7829(24) 0.832(7) 0.0170 Uiso
O6 O 0.6741(16) 0.7461(23) 0.764(6) 0.0080 Uiso
O7 O 0.5872(23) 0.9926(16) 0.431(6) 0.0080 Uiso
O8 O 0.5872(23) 0.5947(17) 0.431(6) 0.0080 Uiso
O10 O 0.6417(23) 0.6307(17) 0.764(7) 0.0150 Uiso
O12 O 0.7027(17) 0.6777(15) 0.430(7) 0.0150 Uiso
Ni10 Ni 0.7110(13) 0.7030(9) 0.8902(32) 0.0020 Uiso
Ni8_2 Ni 0.3776(13) 0.0364(21) 0.2236(32) 0.0020 Uiso
O10_2 O 0.3693(17) 0.0111(29) 0.764(7) 0.0150 Uiso
O12_2 O 0.3223(15) 0.0249(23) 0.430(7) 0.0150 Uiso
Ni10_2 Ni 0.2970(9) 0.0079(16) 0.8902(32) 0.0020 Uiso
C3_2 C 0.1307(18) 0.7786(25) 0.051(6) 0.0180 Uiso
C4_2 C 0.0906(14) 0.7226(21) 0.162(5) 0.0050 Uiso
O2_2 O 0.0360(17) 0.6916(23) 0.097(7) 0.0150 Uiso
O3_2 O 0.1060(21) 0.7208(32) 0.351(8) 0.0490 Uiso
C5_2 C 0.1866(12) 0.8135(27) 0.138(8) 0.0090 Uiso
H2_2 H 0.1884(20) 0.8114(45) 0.260(15) 0.0030 Uiso
C6_2 C 0.2214(25) 0.8693(31) 0.051(6) 0.0180 Uiso
C7_2 C 0.2774(21) 0.9094(26) 0.162(5) 0.0050 Uiso
O4_2 O 0.3084(23) 0.9640(27) 0.097(7) 0.0150 Uiso
O5_2 O 0.2792(32) 0.8940(40) 0.351(8) 0.0490 Uiso
Ni3_2 Ni 0.0443(13) 0.6746(16) 0.5569(32) 0.0020 Uiso
Ni4_2 Ni 0.3254(16) 0.9557(18) 0.5569(32) 0.0020 Uiso
C1_2 C 0.1233(17) 0.7829(24) 0.832(7) 0.0170 Uiso
C2_2 C 0.1641(13) 0.8358(28) 0.740(10) 0.0070 Uiso
H1_2 H 0.1636(20) 0.8366(45) 0.586(18) 0.0240 Uiso
O1_2 O 0.0720(17) 0.7461(23) 0.764(6) 0.0080 Uiso
C8_2 C 0.2171(24) 0.8767(29) 0.832(7) 0.0170 Uiso
O6_2 O 0.2539(23) 0.9280(28) 0.764(6) 0.0080 Uiso
O7_2 O 0.0074(16) 0.5947(28) 0.431(6) 0.0080 Uiso
O8_2 O 0.4053(17) 0.9926(29) 0.431(6) 0.0080 Uiso
Ni6_2 Ni 0.9636(9) 0.6224(18) 0.2236(32) 0.0020 Uiso
O9_2 O 0.9889(15) 0.6307(27) 0.764(7) 0.0150 Uiso
O11_2 O 0.9751(23) 0.6777(29) 0.430(7) 0.0150 Uiso
Ni9_2 Ni 0.9921(16) 0.7030(21) 0.8902(32) 0.0020 Uiso
C3_3 C 0.2214(25) 0.3521(18) 0.051(6) 0.0180 Uiso
C4_3 C 0.2774(21) 0.3680(15) 0.162(5) 0.0050 Uiso
O2_3 O 0.3084(23) 0.3444(15) 0.097(7) 0.0150 Uiso
O3_3 O 0.2792(32) 0.3852(24) 0.351(8) 0.0490 Uiso
C5_3 C 0.1865(27) 0.3731(24) 0.138(8) 0.0090 Uiso
H2_3 H 0.1886(45) 0.377(4) 0.260(15) 0.0030 Uiso
C6_3 C 0.1307(31) 0.3521(18) 0.051(6) 0.0180 Uiso
C7_3 C 0.0906(26) 0.3680(15) 0.162(5) 0.0050 Uiso
O4_3 O 0.0360(27) 0.3444(15) 0.097(7) 0.0150 Uiso
O5_3 O 0.1060(40) 0.3852(24) 0.351(8) 0.0490 Uiso
Ni3_3 Ni 0.3254(16) 0.3697(9) 0.5569(32) 0.0020 Uiso
Ni4_3 Ni 0.0443(18) 0.3697(9) 0.5569(32) 0.0020 Uiso
Ni6_3 Ni 0.3776(18) 0.3413(16) 0.2236(32) 0.0020 Uiso
C1_3 C 0.2171(24) 0.3404(17) 0.832(7) 0.0170 Uiso
C2_3 C 0.1642(28) 0.3283(25) 0.740(10) 0.0070 Uiso
H1_3 H 0.1634(45) 0.327(4) 0.586(18) 0.0240 Uiso
O1_3 O 0.2539(23) 0.3259(16) 0.764(6) 0.0080 Uiso
C8_3 C 0.1233(29) 0.3404(17) 0.832(7) 0.0170 Uiso
O6_3 O 0.0720(28) 0.3259(16) 0.764(6) 0.0080 Uiso
O7_3 O 0.4053(28) 0.4128(23) 0.431(6) 0.0080 Uiso
O8_3 O 0.0074(29) 0.4128(23) 0.431(6) 0.0080 Uiso
O9_3 O 0.3693(27) 0.3583(23) 0.764(7) 0.0150 Uiso
O11_3 O 0.3223(29) 0.2973(17) 0.430(7) 0.0150 Uiso
Ni9_3 Ni 0.2970(21) 0.2890(13) 0.8902(32) 0.0020 Uiso
Ni8_3 Ni 0.9636(21) 0.3413(16) 0.2236(32) 0.0020 Uiso
O10_3 O 0.9889(29) 0.3583(23) 0.764(7) 0.0150 Uiso
O12_3 O 0.9751(23) 0.2973(17) 0.430(7) 0.0150 Uiso
Ni10_3 Ni 0.9921(16) 0.2890(13) 0.8902(32) 0.0020 Uiso
C2_4 C 0.0050(25) 0.5026(13) 0.407(10) 0.0070 Uiso
H1_4 H 0.006(4) 0.5031(20) 0.253(18) 0.0240 Uiso
O3_4 O 0.9481(24) 0.5607(21) 0.018(8) 0.0490 Uiso
O5_4 O 0.9481(24) 0.3875(32) 0.018(8) 0.0490 Uiso
C1_4 C 0.9929(17) 0.5434(17) 0.499(7) 0.0170 Uiso
C3_4 C 0.9812(18) 0.5360(18) 0.718(6) 0.0180 Uiso
C4_4 C 0.9653(15) 0.5761(14) 0.829(5) 0.0050 Uiso
C5_4 C 0.9602(24) 0.4801(12) 0.805(8) 0.0090 Uiso
H2_4 H 0.956(4) 0.4783(20) 0.927(15) 0.0030 Uiso
C6_4 C 0.9812(18) 0.4453(25) 0.718(6) 0.0180 Uiso
C7_4 C 0.9653(15) 0.3893(21) 0.829(5) 0.0050 Uiso
C8_4 C 0.9929(17) 0.4496(24) 0.499(7) 0.0170 Uiso
O7_4 O 0.9206(23) 0.6592(16) 0.097(6) 0.0080 Uiso
O8_4 O 0.9206(23) 0.2613(17) 0.097(6) 0.0080 Uiso
O3_5 O 0.4393(21) 0.3875(32) 0.018(8) 0.0490 Uiso
O5_5 O 0.6125(32) 0.5607(40) 0.018(8) 0.0490 Uiso
C1_5 C 0.4566(17) 0.4496(24) 0.499(7) 0.0170 Uiso
C2_5 C 0.4974(13) 0.5025(28) 0.407(10) 0.0070 Uiso
C3_5 C 0.4640(18) 0.4453(25) 0.718(6) 0.0180 Uiso
C4_5 C 0.4239(14) 0.3893(21) 0.829(5) 0.0050 Uiso
H1_5 H 0.4969(20) 0.5033(45) 0.253(18) 0.0240 Uiso
C5_5 C 0.5199(12) 0.4802(27) 0.805(8) 0.0090 Uiso
H2_5 H 0.5217(20) 0.4781(45) 0.927(15) 0.0030 Uiso
C6_5 C 0.5547(25) 0.5360(31) 0.718(6) 0.0180 Uiso
C7_5 C 0.6107(21) 0.5761(26) 0.829(5) 0.0050 Uiso
C8_5 C 0.5504(24) 0.5434(29) 0.499(7) 0.0170 Uiso
O7_5 O 0.3408(16) 0.2613(28) 0.097(6) 0.0080 Uiso
O8_5 O 0.7387(17) 0.6592(29) 0.097(6) 0.0080 Uiso
O3_6 O 0.6125(32) 0.0519(24) 0.018(8) 0.0490 Uiso
O5_6 O 0.4393(40) 0.0519(24) 0.018(8) 0.0490 Uiso
C1_6 C 0.5504(24) 0.0071(17) 0.499(7) 0.0170 Uiso
C3_6 C 0.5547(25) 0.0188(18) 0.718(6) 0.0180 Uiso
C4_6 C 0.6107(21) 0.0347(15) 0.829(5) 0.0050 Uiso
C5_6 C 0.5198(27) 0.0398(24) 0.805(8) 0.0090 Uiso
H2_6 H 0.5219(45) 0.044(4) 0.927(15) 0.0030 Uiso
C6_6 C 0.4640(31) 0.0188(18) 0.718(6) 0.0180 Uiso
C7_6 C 0.4239(26) 0.0347(15) 0.829(5) 0.0050 Uiso
C8_6 C 0.4566(29) 0.0071(17) 0.499(7) 0.0170 Uiso
O7_6 O 0.7387(28) 0.0794(23) 0.097(6) 0.0080 Uiso
O8_6 O 0.3408(29) 0.0794(23) 0.097(6) 0.0080 Uiso
C2_6 C 0.4975(28) 0.9950(25) 0.407(10) 0.0070 Uiso
H1_6 H 0.4967(45) 0.994(4) 0.253(18) 0.0240 Uiso
C1_7 C 0.3263(17) 0.2100(17) 0.165(7) 0.0170 Uiso
C2_7 C 0.3384(25) 0.1692(13) 0.073(10) 0.0070 Uiso
C3_7 C 0.3146(18) 0.2026(18) 0.384(6) 0.0180 Uiso
C4_7 C 0.2987(15) 0.2427(14) 0.495(5) 0.0050 Uiso
O3_7 O 0.2815(24) 0.2273(21) 0.684(8) 0.0490 Uiso
C5_7 C 0.2936(24) 0.1467(12) 0.471(8) 0.0090 Uiso
H2_7 H 0.290(4) 0.1449(20) 0.593(15) 0.0030 Uiso
C6_7 C 0.3146(18) 0.1119(25) 0.384(6) 0.0180 Uiso
C7_7 C 0.2987(15) 0.0559(21) 0.495(5) 0.0050 Uiso
O5_7 O 0.2815(24) 0.0541(32) 0.684(8) 0.0490 Uiso
C8_7 C 0.3263(17) 0.1162(24) 0.165(7) 0.0170 Uiso
H1_7 H 0.340(4) 0.1697(20) 0.919(18) 0.0240 Uiso
C1_8 C 0.7900(17) 0.1162(24) 0.165(7) 0.0170 Uiso
C2_8 C 0.8308(13) 0.1691(28) 0.073(10) 0.0070 Uiso
C3_8 C 0.7974(18) 0.1119(25) 0.384(6) 0.0180 Uiso
C4_8 C 0.7573(14) 0.0559(21) 0.495(5) 0.0050 Uiso
O3_8 O 0.7727(21) 0.0541(32) 0.684(8) 0.0490 Uiso
C5_8 C 0.8533(12) 0.1468(27) 0.471(8) 0.0090 Uiso
H2_8 H 0.8551(20) 0.1447(45) 0.593(15) 0.0030 Uiso
C6_8 C 0.8881(25) 0.2026(31) 0.384(6) 0.0180 Uiso
C7_8 C 0.9441(21) 0.2427(26) 0.495(5) 0.0050 Uiso
O5_8 O 0.9459(32) 0.2273(40) 0.684(8) 0.0490 Uiso
C8_8 C 0.8838(24) 0.2100(29) 0.165(7) 0.0170 Uiso
H1_8 H 0.8303(20) 0.1699(45) 0.919(18) 0.0240 Uiso
C1_9 C 0.8838(24) 0.6737(17) 0.165(7) 0.0170 Uiso
C2_9 C 0.8309(28) 0.6616(25) 0.073(10) 0.0070 Uiso
C3_9 C 0.8881(25) 0.6854(18) 0.384(6) 0.0180 Uiso
C4_9 C 0.9441(21) 0.7013(15) 0.495(5) 0.0050 Uiso
O3_9 O 0.9459(32) 0.7185(24) 0.684(8) 0.0490 Uiso
C5_9 C 0.8532(27) 0.7064(24) 0.471(8) 0.0090 Uiso
H2_9 H 0.8553(45) 0.710(4) 0.593(15) 0.0030 Uiso
C6_9 C 0.7974(31) 0.6854(18) 0.384(6) 0.0180 Uiso
C7_9 C 0.7573(26) 0.7013(15) 0.495(5) 0.0050 Uiso
O5_9 O 0.7727(40) 0.7185(24) 0.684(8) 0.0490 Uiso
C8_9 C 0.7900(29) 0.6737(17) 0.165(7) 0.0170 Uiso
H1_9 H 0.8301(45) 0.660(4) 0.919(18) 0.0240 Uiso
loop_
_geom_bond_atom_site_label_1
_geom_bond_atom_site_label_2
_geom_bond_site_symmetry_1
_geom_bond_site_symmetry_2
O9 Ni9 1_555 1_555
O11 Ni6 1_555 1_555
C4 C3 1_555 1_555
O2 C4 1_555 1_555
O3 C4 1_555 1_555
C5 C3 1_555 1_555
H2 C5 1_555 1_555
C6 C5 1_555 1_555
C7 C6 1_555 1_555
O4 C7 1_555 1_555
O5 C7 1_555 1_555
Ni3 O3 1_555 1_555
Ni4 O5 1_555 1_555
Ni8 O4 1_555 1_555
Ni4 Ni8 1_555 1_555
C1 C2 1_555 1_555
C2 H1 1_555 1_555
O1 C1 1_555 1_555
Ni3 O1 1_555 1_555
C8 C2 1_555 1_555
O6 C8 1_555 1_555
Ni4 O6 1_555 1_555
O7 Ni3 1_555 1_555
O8 Ni4 1_555 1_555
O10 Ni4 1_555 1_555
O12 Ni4 1_555 1_555
O6 Ni10 1_555 1_555
Ni4 Ni10 1_555 1_555
O8 Ni8 1_555 1_555
O10 Ni10 1_555 1_555
O12 Ni8 1_555 1_555
O10_2 Ni10_2 1_555 1_555
O12_2 Ni8_2 1_555 1_555
C4_2 C3_2 1_555 1_555
O2_2 C4_2 1_555 1_555
O3_2 C4_2 1_555 1_555
C5_2 C3_2 1_555 1_555
H2_2 C5_2 1_555 1_555
C6_2 C5_2 1_555 1_555
C7_2 C6_2 1_555 1_555
O4_2 C7_2 1_555 1_555
O5_2 C7_2 1_555 1_555
Ni3_2 O3_2 1_555 1_555
Ni4_2 O5_2 1_555 1_555
C1_2 C2_2 1_555 1_555
C2_2 H1_2 1_555 1_555
O1_2 C1_2 1_555 1_555
Ni3_2 O1_2 1_555 1_555
C8_2 C2_2 1_555 1_555
O6_2 C8_2 1_555 1_555
Ni4_2 O6_2 1_555 1_555
O7_2 Ni3_2 1_555 1_555
O8_2 Ni4_2 1_555 1_555
O9_2 Ni9_2 1_555 1_555
O11_2 Ni6_2 1_555 1_555
C4_3 C3_3 1_555 1_555
O2_3 C4_3 1_555 1_555
O3_3 C4_3 1_555 1_555
C5_3 C3_3 1_555 1_555
H2_3 C5_3 1_555 1_555
C6_3 C5_3 1_555 1_555
C7_3 C6_3 1_555 1_555
O4_3 C7_3 1_555 1_555
O5_3 C7_3 1_555 1_555
Ni3_3 O3_3 1_555 1_555
Ni4_3 O5_3 1_555 1_555
Ni6_3 O2_3 1_555 1_555
Ni3_3 Ni6_3 1_555 1_555
C1_3 C2_3 1_555 1_555
C2_3 H1_3 1_555 1_555
O1_3 C1_3 1_555 1_555
Ni3_3 O1_3 1_555 1_555
C8_3 C2_3 1_555 1_555
O6_3 C8_3 1_555 1_555
Ni4_3 O6_3 1_555 1_555
O7_3 Ni3_3 1_555 1_555
O8_3 Ni4_3 1_555 1_555
O9_3 Ni3_3 1_555 1_555
O11_3 Ni3_3 1_555 1_555
Ni9_3 O1_3 1_555 1_555
Ni3_3 Ni9_3 1_555 1_555
O7_3 Ni6_3 1_555 1_555
O9_3 Ni9_3 1_555 1_555
O11_3 Ni6_3 1_555 1_555
O10_3 Ni10_3 1_555 1_555
O12_3 Ni8_3 1_555 1_555
C2_4 H1_4 1_555 1_555
Ni6_2 O3_4 1_555 1_555
Ni8_3 O5_4 1_555 1_555
C3_4 C1_4 1_555 1_555
C4_4 C3_4 1_555 1_555
O9_2 C4_4 1_555 1_555
C5_4 C3_4 1_555 1_555
H2_4 C5_4 1_555 1_555
C6_4 C5_4 1_555 1_555
C7_4 C6_4 1_555 1_555
O10_3 C7_4 1_555 1_555
O7_4 Ni6_2 1_555 1_555
O8_4 Ni8_3 1_555 1_555
C6_4 C8_4 1_555 1_555
Ni6_3 O3_5 1_555 1_555
Ni8 O5_5 1_555 1_555
C1_5 C2_5 1_555 1_555
C2_5 H1_5 1_555 1_555
C3_5 C1_5 1_555 1_555
C4_5 C3_5 1_555 1_555
O7_3 C1_5 1_555 1_555
O9_3 C4_5 1_555 1_555
C5_5 C3_5 1_555 1_555
H2_5 C5_5 1_555 1_555
C6_5 C5_5 1_555 1_555
C7_5 C6_5 1_555 1_555
O10 C7_5 1_555 1_555
C8_5 C2_5 1_555 1_555
O8 C8_5 1_555 1_555
O7_5 Ni6_3 1_555 1_555
O8_5 Ni8 1_555 1_555
C6_5 C8_5 1_555 1_555
Ni6 O3_6 1_555 1_555
Ni8_2 O5_6 1_555 1_555
C3_6 C1_6 1_555 1_555
C4_6 C3_6 1_555 1_555
O9 C4_6 1_555 1_555
C5_6 C3_6 1_555 1_555
H2_6 C5_6 1_555 1_555
C6_6 C5_6 1_555 1_555
C7_6 C6_6 1_555 1_555
O10_2 C7_6 1_555 1_555
O7_6 Ni6 1_555 1_555
O8_6 Ni8_2 1_555 1_555
C6_6 C8_6 1_555 1_555
C2_6 H1_6 1_555 1_555
C1_7 C2_7 1_555 1_555
C3_7 C1_7 1_555 1_555
C4_7 C3_7 1_555 1_555
O7_5 C1_7 1_555 1_555
O11_3 C4_7 1_555 1_555
O3_7 C4_7 1_555 1_555
C5_7 C3_7 1_555 1_555
H2_7 C5_7 1_555 1_555
C6_7 C5_7 1_555 1_555
C7_7 C6_7 1_555 1_555
O12_2 C7_7 1_555 1_555
O5_7 C7_7 1_555 1_555
C8_7 C2_7 1_555 1_555
O8_6 C8_7 1_555 1_555
Ni9_3 O3_7 1_555 1_555
Ni10_2 O5_7 1_555 1_555
C6_7 C8_7 1_555 1_555
C1_8 C2_8 1_555 1_555
C3_8 C1_8 1_555 1_555
C4_8 C3_8 1_555 1_555
O7_6 C1_8 1_555 1_555
O11 C4_8 1_555 1_555
O3_8 C4_8 1_555 1_555
C5_8 C3_8 1_555 1_555
H2_8 C5_8 1_555 1_555
C6_8 C5_8 1_555 1_555
C7_8 C6_8 1_555 1_555
O12_3 C7_8 1_555 1_555
O5_8 C7_8 1_555 1_555
C8_8 C2_8 1_555 1_555
O8_4 C8_8 1_555 1_555
Ni9 O3_8 1_555 1_555
Ni10_3 O5_8 1_555 1_555
C6_8 C8_8 1_555 1_555
C1_9 C2_9 1_555 1_555
C3_9 C1_9 1_555 1_555
C4_9 C3_9 1_555 1_555
O7_4 C1_9 1_555 1_555
O11_2 C4_9 1_555 1_555
O3_9 C4_9 1_555 1_555
C5_9 C3_9 1_555 1_555
H2_9 C5_9 1_555 1_555
C6_9 C5_9 1_555 1_555
C7_9 C6_9 1_555 1_555
O12 C7_9 1_555 1_555
O5_9 C7_9 1_555 1_555
C8_9 C2_9 1_555 1_555
O8_5 C8_9 1_555 1_555
Ni9_2 O3_9 1_555 1_555
Ni10 O5_9 1_555 1_555
C6_9 C8_9 1_555 1_555

#END
