
###############################################################################
#
# This file contains modified crystal structure data generated from the
# MOF subset of the Cambridge Structural Database (CSD) v543 
# hosted by the Cambridge Crystallographic Data Centre (CCDC).
#
# This work is licensed under the Creative Commons
# Attribution-NonCommercial-ShareAlike 4.0 International License.
# To view a copy of this license, visit
# http://creativecommons.org/licenses/by-nc-sa/4.0/
# or send a letter to
# Creative Commons, PO Box 1866, Mountain View, CA 94042, USA.
#
# CIF created using the CSD Python API on 29 September 2022
# The structure has been converted into the P1 space group
# The structure has a 3D framework
# The original CSD entry KOSLUB is in the rhombohedral crystal system
# The framework has been calculated to contain at least 10.0% void space
# The void calculation uses a probe of radius 1.32A, grid spacing 0.4
#
###############################################################################

data_KOSLUB
_chemical_formula_moiety         '(C72 H18 Ni6 O44)n'
_symmetry_cell_setting           triclinic
_symmetry_space_group_name_H-M   'P 1'
_symmetry_Int_Tables_number      1
_space_group_name_Hall           'P 1'
loop_
_symmetry_equiv_pos_site_id
_symmetry_equiv_pos_as_xyz
1 x,y,z
_cell_length_a                   25.797(5)
_cell_length_b                   25.797
_cell_length_c                   6.7292(17)
_cell_angle_alpha                90
_cell_angle_beta                 90
_cell_angle_gamma                120
_cell_volume                     3878.22
loop_
_atom_site_label
_atom_site_type_symbol
_atom_site_fract_x
_atom_site_fract_y
_atom_site_fract_z
_atom_site_U_iso_or_equiv
_atom_site_thermal_displace_type
Ni6 Ni 0.6618(20) 0.0424(11) 0.2219(29) 0.0200 Uiso
O9 O 0.6434(21) 0.0144(14) 0.763(5) 0.0220 Uiso
O11 O 0.7043(15) 0.0232(21) 0.429(5) 0.0220 Uiso
Ni9 Ni 0.7139(17) 0.0048(20) 0.8885(29) 0.0200 Uiso
C3 C 0.6394(16) 0.8657(14) 0.043(6) 0.0060 Uiso
C4 C 0.6320(14) 0.9091(11) 0.166(5) 0.0110 Uiso
O2 O 0.6523(14) 0.9624(15) 0.096(5) 0.0220 Uiso
O3 O 0.6098(18) 0.8912(17) 0.338(7) 0.0370 Uiso
C5 C 0.6278(22) 0.8140(11) 0.128(7) 0.0110 Uiso
H2 H 0.6188(34) 0.8094(17) 0.275(13) 0.0060 Uiso
C6 C 0.6394(16) 0.7737(21) 0.043(6) 0.0060 Uiso
C7 C 0.6320(14) 0.7229(18) 0.166(5) 0.0110 Uiso
O4 O 0.6523(14) 0.6899(21) 0.096(5) 0.0220 Uiso
O5 O 0.6098(18) 0.7186(25) 0.338(7) 0.0370 Uiso
Ni3 Ni 0.6243(11) 0.9528(17) 0.5552(29) 0.0200 Uiso
Ni4 Ni 0.6243(11) 0.6715(20) 0.5552(29) 0.0200 Uiso
Ni8 Ni 0.6618(20) 0.6195(17) 0.2219(29) 0.0200 Uiso
C1 C 0.6580(16) 0.8781(14) 0.837(6) 0.0340 Uiso
C2 C 0.6657(25) 0.8329(13) 0.746(10) 0.0270 Uiso
H1 H 0.679(4) 0.8394(21) 0.580(14) 0.0510 Uiso
O1 O 0.6690(16) 0.9254(16) 0.749(7) 0.0170 Uiso
C8 C 0.6580(16) 0.7799(21) 0.837(6) 0.0340 Uiso
O6 O 0.6690(16) 0.7436(23) 0.749(7) 0.0170 Uiso
O7 O 0.5897(23) 0.9977(16) 0.416(7) 0.0170 Uiso
O8 O 0.5897(23) 0.5921(16) 0.416(7) 0.0170 Uiso
O10 O 0.6434(21) 0.6291(15) 0.763(5) 0.0220 Uiso
O12 O 0.7043(15) 0.6810(14) 0.429(5) 0.0220 Uiso
Ni10 Ni 0.7139(17) 0.7090(11) 0.8885(29) 0.0200 Uiso
Ni8_2 Ni 0.3805(17) 0.0424(26) 0.2219(29) 0.0200 Uiso
O10_2 O 0.3709(15) 0.0144(26) 0.763(5) 0.0220 Uiso
O12_2 O 0.3190(14) 0.0232(21) 0.429(5) 0.0220 Uiso
Ni10_2 Ni 0.2910(11) 0.0048(20) 0.8885(29) 0.0200 Uiso
C3_2 C 0.1343(14) 0.7737(21) 0.043(6) 0.0060 Uiso
C4_2 C 0.0909(11) 0.7229(18) 0.166(5) 0.0110 Uiso
O2_2 O 0.0376(15) 0.6899(21) 0.096(5) 0.0220 Uiso
O3_2 O 0.1088(17) 0.7186(25) 0.338(7) 0.0370 Uiso
C5_2 C 0.1860(11) 0.8138(25) 0.128(7) 0.0110 Uiso
H2_2 H 0.1906(17) 0.8094(38) 0.275(13) 0.0060 Uiso
C6_2 C 0.2263(21) 0.8657(26) 0.043(6) 0.0060 Uiso
C7_2 C 0.2771(18) 0.9091(23) 0.166(5) 0.0110 Uiso
O4_2 O 0.3101(21) 0.9624(25) 0.096(5) 0.0220 Uiso
O5_2 O 0.2814(25) 0.8912(31) 0.338(7) 0.0370 Uiso
Ni3_2 Ni 0.0472(17) 0.6715(20) 0.5552(29) 0.0200 Uiso
Ni4_2 Ni 0.3285(20) 0.9528(23) 0.5552(29) 0.0200 Uiso
C1_2 C 0.1219(14) 0.7799(21) 0.837(6) 0.0340 Uiso
C2_2 C 0.1671(13) 0.8328(28) 0.746(10) 0.0270 Uiso
H1_2 H 0.1606(21) 0.8396(45) 0.580(14) 0.0510 Uiso
O1_2 O 0.0746(16) 0.7436(23) 0.749(7) 0.0170 Uiso
C8_2 C 0.2201(21) 0.8781(26) 0.837(6) 0.0340 Uiso
O6_2 O 0.2564(23) 0.9254(28) 0.749(7) 0.0170 Uiso
O7_2 O 0.0023(16) 0.5921(28) 0.416(7) 0.0170 Uiso
O8_2 O 0.4079(16) 0.9977(28) 0.416(7) 0.0170 Uiso
Ni6_2 Ni 0.9576(11) 0.6195(23) 0.2219(29) 0.0200 Uiso
O9_2 O 0.9856(14) 0.6291(25) 0.763(5) 0.0220 Uiso
O11_2 O 0.9768(21) 0.6810(26) 0.429(5) 0.0220 Uiso
Ni9_2 Ni 0.9952(20) 0.7090(26) 0.8885(29) 0.0200 Uiso
C3_3 C 0.2263(21) 0.3606(16) 0.043(6) 0.0060 Uiso
C4_3 C 0.2771(18) 0.3680(14) 0.166(5) 0.0110 Uiso
O2_3 O 0.3101(21) 0.3477(14) 0.096(5) 0.0220 Uiso
O3_3 O 0.2814(25) 0.3902(18) 0.338(7) 0.0370 Uiso
C5_3 C 0.1862(25) 0.3722(22) 0.128(7) 0.0110 Uiso
H2_3 H 0.1906(38) 0.3812(34) 0.275(13) 0.0060 Uiso
C6_3 C 0.1343(26) 0.3606(16) 0.043(6) 0.0060 Uiso
C7_3 C 0.0909(23) 0.3680(14) 0.166(5) 0.0110 Uiso
O4_3 O 0.0376(25) 0.3477(14) 0.096(5) 0.0220 Uiso
O5_3 O 0.1088(31) 0.3902(18) 0.338(7) 0.0370 Uiso
Ni3_3 Ni 0.3285(20) 0.3757(11) 0.5552(29) 0.0200 Uiso
Ni4_3 Ni 0.0472(23) 0.3757(11) 0.5552(29) 0.0200 Uiso
Ni6_3 Ni 0.3805(23) 0.3382(20) 0.2219(29) 0.0200 Uiso
C1_3 C 0.2201(21) 0.3420(16) 0.837(6) 0.0340 Uiso
C2_3 C 0.1672(28) 0.3343(25) 0.746(10) 0.0270 Uiso
H1_3 H 0.1604(45) 0.321(4) 0.580(14) 0.0510 Uiso
O1_3 O 0.2564(23) 0.3310(16) 0.749(7) 0.0170 Uiso
C8_3 C 0.1219(26) 0.3420(16) 0.837(6) 0.0340 Uiso
O6_3 O 0.0746(28) 0.3310(16) 0.749(7) 0.0170 Uiso
O7_3 O 0.4079(28) 0.4103(23) 0.416(7) 0.0170 Uiso
O8_3 O 0.0023(28) 0.4103(23) 0.416(7) 0.0170 Uiso
O9_3 O 0.3709(25) 0.3566(21) 0.763(5) 0.0220 Uiso
O11_3 O 0.3190(26) 0.2957(15) 0.429(5) 0.0220 Uiso
Ni9_3 Ni 0.2910(26) 0.2861(17) 0.8885(29) 0.0200 Uiso
Ni8_3 Ni 0.9576(26) 0.3382(20) 0.2219(29) 0.0200 Uiso
O10_3 O 0.9856(26) 0.3566(21) 0.763(5) 0.0220 Uiso
O12_3 O 0.9768(21) 0.2957(15) 0.429(5) 0.0220 Uiso
Ni10_3 Ni 0.9952(20) 0.2861(17) 0.8885(29) 0.0200 Uiso
H1_4 H 0.012(4) 0.5061(21) 0.247(14) 0.0510 Uiso
O3_4 O 0.9431(18) 0.5579(17) 0.005(7) 0.0370 Uiso
O5_4 O 0.9431(18) 0.3853(25) 0.005(7) 0.0370 Uiso
C1_4 C 0.9913(16) 0.5448(14) 0.504(6) 0.0340 Uiso
C2_4 C 0.9990(25) 0.4996(13) 0.413(10) 0.0270 Uiso
C3_4 C 0.9727(16) 0.5324(14) 0.710(6) 0.0060 Uiso
C4_4 C 0.9653(14) 0.5758(11) 0.833(5) 0.0110 Uiso
C5_4 C 0.9611(22) 0.4807(11) 0.795(7) 0.0110 Uiso
H2_4 H 0.9521(34) 0.4761(17) 0.942(13) 0.0060 Uiso
C6_4 C 0.9727(16) 0.4404(21) 0.710(6) 0.0060 Uiso
C7_4 C 0.9653(14) 0.3896(18) 0.833(5) 0.0110 Uiso
C8_4 C 0.9913(16) 0.4466(21) 0.504(6) 0.0340 Uiso
O7_4 O 0.9231(23) 0.6643(16) 0.082(7) 0.0170 Uiso
O8_4 O 0.9231(23) 0.2587(16) 0.082(7) 0.0170 Uiso
O3_5 O 0.4421(17) 0.3853(25) 0.005(7) 0.0370 Uiso
O5_5 O 0.6147(25) 0.5579(31) 0.005(7) 0.0370 Uiso
C1_5 C 0.4552(14) 0.4466(21) 0.504(6) 0.0340 Uiso
C2_5 C 0.5004(13) 0.4995(28) 0.413(10) 0.0270 Uiso
C3_5 C 0.4676(14) 0.4404(21) 0.710(6) 0.0060 Uiso
C4_5 C 0.4242(11) 0.3896(18) 0.833(5) 0.0110 Uiso
H1_5 H 0.4939(21) 0.5063(45) 0.247(14) 0.0510 Uiso
C5_5 C 0.5193(11) 0.4805(25) 0.795(7) 0.0110 Uiso
H2_5 H 0.5239(17) 0.4761(38) 0.942(13) 0.0060 Uiso
C6_5 C 0.5596(21) 0.5324(26) 0.710(6) 0.0060 Uiso
C7_5 C 0.6104(18) 0.5758(23) 0.833(5) 0.0110 Uiso
C8_5 C 0.5534(21) 0.5448(26) 0.504(6) 0.0340 Uiso
O7_5 O 0.3357(16) 0.2587(28) 0.082(7) 0.0170 Uiso
O8_5 O 0.7413(16) 0.6643(28) 0.082(7) 0.0170 Uiso
O3_6 O 0.6147(25) 0.0569(18) 0.005(7) 0.0370 Uiso
O5_6 O 0.4421(31) 0.0569(18) 0.005(7) 0.0370 Uiso
C1_6 C 0.5534(21) 0.0087(16) 0.504(6) 0.0340 Uiso
C2_6 C 0.5005(28) 0.0010(25) 0.413(10) 0.0270 Uiso
C3_6 C 0.5596(21) 0.0273(16) 0.710(6) 0.0060 Uiso
C4_6 C 0.6104(18) 0.0347(14) 0.833(5) 0.0110 Uiso
C5_6 C 0.5195(25) 0.0389(22) 0.795(7) 0.0110 Uiso
H2_6 H 0.5239(38) 0.0479(34) 0.942(13) 0.0060 Uiso
C6_6 C 0.4676(26) 0.0273(16) 0.710(6) 0.0060 Uiso
C7_6 C 0.4242(23) 0.0347(14) 0.833(5) 0.0110 Uiso
C8_6 C 0.4552(26) 0.0087(16) 0.504(6) 0.0340 Uiso
O7_6 O 0.7413(28) 0.0769(23) 0.082(7) 0.0170 Uiso
O8_6 O 0.3357(28) 0.0769(23) 0.082(7) 0.0170 Uiso
H1_6 H 0.4937(45) 0.988(4) 0.247(14) 0.0510 Uiso
C1_7 C 0.3247(16) 0.2114(14) 0.170(6) 0.0340 Uiso
C2_7 C 0.3324(25) 0.1662(13) 0.079(10) 0.0270 Uiso
C3_7 C 0.3061(16) 0.1990(14) 0.376(6) 0.0060 Uiso
C4_7 C 0.2987(14) 0.2424(11) 0.499(5) 0.0110 Uiso
O3_7 O 0.2765(18) 0.2245(17) 0.671(7) 0.0370 Uiso
C5_7 C 0.2945(22) 0.1473(11) 0.461(7) 0.0110 Uiso
H2_7 H 0.2855(34) 0.1427(17) 0.608(13) 0.0060 Uiso
C6_7 C 0.3061(16) 0.1070(21) 0.376(6) 0.0060 Uiso
C7_7 C 0.2987(14) 0.0562(18) 0.499(5) 0.0110 Uiso
O5_7 O 0.2765(18) 0.0519(25) 0.671(7) 0.0370 Uiso
C8_7 C 0.3247(16) 0.1132(21) 0.170(6) 0.0340 Uiso
H1_7 H 0.346(4) 0.1727(21) 0.913(14) 0.0510 Uiso
C1_8 C 0.7886(14) 0.1132(21) 0.170(6) 0.0340 Uiso
C2_8 C 0.8338(13) 0.1661(28) 0.079(10) 0.0270 Uiso
C3_8 C 0.8010(14) 0.1070(21) 0.376(6) 0.0060 Uiso
C4_8 C 0.7576(11) 0.0562(18) 0.499(5) 0.0110 Uiso
O3_8 O 0.7755(17) 0.0519(25) 0.671(7) 0.0370 Uiso
C5_8 C 0.8527(11) 0.1471(25) 0.461(7) 0.0110 Uiso
H2_8 H 0.8573(17) 0.1427(38) 0.608(13) 0.0060 Uiso
C6_8 C 0.8930(21) 0.1990(26) 0.376(6) 0.0060 Uiso
C7_8 C 0.9438(18) 0.2424(23) 0.499(5) 0.0110 Uiso
O5_8 O 0.9481(25) 0.2245(31) 0.671(7) 0.0370 Uiso
C8_8 C 0.8868(21) 0.2114(26) 0.170(6) 0.0340 Uiso
H1_8 H 0.8273(21) 0.1729(45) 0.913(14) 0.0510 Uiso
C1_9 C 0.8868(21) 0.6753(16) 0.170(6) 0.0340 Uiso
C2_9 C 0.8339(28) 0.6676(25) 0.079(10) 0.0270 Uiso
C3_9 C 0.8930(21) 0.6939(16) 0.376(6) 0.0060 Uiso
C4_9 C 0.9438(18) 0.7013(14) 0.499(5) 0.0110 Uiso
O3_9 O 0.9481(25) 0.7235(18) 0.671(7) 0.0370 Uiso
C5_9 C 0.8529(25) 0.7055(22) 0.461(7) 0.0110 Uiso
H2_9 H 0.8573(38) 0.7145(34) 0.608(13) 0.0060 Uiso
C6_9 C 0.8010(26) 0.6939(16) 0.376(6) 0.0060 Uiso
C7_9 C 0.7576(23) 0.7013(14) 0.499(5) 0.0110 Uiso
O5_9 O 0.7755(31) 0.7235(18) 0.671(7) 0.0370 Uiso
C8_9 C 0.7886(26) 0.6753(16) 0.170(6) 0.0340 Uiso
H1_9 H 0.8271(45) 0.654(4) 0.913(14) 0.0510 Uiso
loop_
_geom_bond_atom_site_label_1
_geom_bond_atom_site_label_2
_geom_bond_site_symmetry_1
_geom_bond_site_symmetry_2
O9 Ni9 1_555 1_555
O11 Ni6 1_555 1_555
C4 C3 1_555 1_555
O2 C4 1_555 1_555
O3 C4 1_555 1_555
C5 C3 1_555 1_555
H2 C5 1_555 1_555
C6 C5 1_555 1_555
C7 C6 1_555 1_555
O4 C7 1_555 1_555
O5 C7 1_555 1_555
Ni3 O3 1_555 1_555
Ni4 O5 1_555 1_555
Ni8 O4 1_555 1_555
Ni4 Ni8 1_555 1_555
C1 C2 1_555 1_555
C2 H1 1_555 1_555
O1 C1 1_555 1_555
Ni3 O1 1_555 1_555
C8 C2 1_555 1_555
O6 C8 1_555 1_555
Ni4 O6 1_555 1_555
O7 Ni3 1_555 1_555
O8 Ni4 1_555 1_555
O10 Ni4 1_555 1_555
O12 Ni4 1_555 1_555
O6 Ni10 1_555 1_555
Ni4 Ni10 1_555 1_555
O8 Ni8 1_555 1_555
O10 Ni10 1_555 1_555
O12 Ni8 1_555 1_555
O10_2 Ni10_2 1_555 1_555
O12_2 Ni8_2 1_555 1_555
C4_2 C3_2 1_555 1_555
O2_2 C4_2 1_555 1_555
O3_2 C4_2 1_555 1_555
C5_2 C3_2 1_555 1_555
H2_2 C5_2 1_555 1_555
C6_2 C5_2 1_555 1_555
C7_2 C6_2 1_555 1_555
O4_2 C7_2 1_555 1_555
O5_2 C7_2 1_555 1_555
Ni3_2 O3_2 1_555 1_555
Ni4_2 O5_2 1_555 1_555
C1_2 C2_2 1_555 1_555
C2_2 H1_2 1_555 1_555
O1_2 C1_2 1_555 1_555
Ni3_2 O1_2 1_555 1_555
C8_2 C2_2 1_555 1_555
O6_2 C8_2 1_555 1_555
Ni4_2 O6_2 1_555 1_555
O7_2 Ni3_2 1_555 1_555
O8_2 Ni4_2 1_555 1_555
O9_2 Ni9_2 1_555 1_555
O11_2 Ni6_2 1_555 1_555
C4_3 C3_3 1_555 1_555
O2_3 C4_3 1_555 1_555
O3_3 C4_3 1_555 1_555
C5_3 C3_3 1_555 1_555
H2_3 C5_3 1_555 1_555
C6_3 C5_3 1_555 1_555
C7_3 C6_3 1_555 1_555
O4_3 C7_3 1_555 1_555
O5_3 C7_3 1_555 1_555
Ni3_3 O3_3 1_555 1_555
Ni4_3 O5_3 1_555 1_555
Ni6_3 O2_3 1_555 1_555
Ni3_3 Ni6_3 1_555 1_555
C1_3 C2_3 1_555 1_555
C2_3 H1_3 1_555 1_555
O1_3 C1_3 1_555 1_555
Ni3_3 O1_3 1_555 1_555
C8_3 C2_3 1_555 1_555
O6_3 C8_3 1_555 1_555
Ni4_3 O6_3 1_555 1_555
O7_3 Ni3_3 1_555 1_555
O8_3 Ni4_3 1_555 1_555
O9_3 Ni3_3 1_555 1_555
O11_3 Ni3_3 1_555 1_555
Ni9_3 O1_3 1_555 1_555
Ni3_3 Ni9_3 1_555 1_555
O7_3 Ni6_3 1_555 1_555
O9_3 Ni9_3 1_555 1_555
O11_3 Ni6_3 1_555 1_555
O10_3 Ni10_3 1_555 1_555
O12_3 Ni8_3 1_555 1_555
Ni6_2 O3_4 1_555 1_555
Ni8_3 O5_4 1_555 1_555
C1_4 C2_4 1_555 1_555
C3_4 C1_4 1_555 1_555
C4_4 C3_4 1_555 1_555
O9_2 C4_4 1_555 1_555
C5_4 C3_4 1_555 1_555
H2_4 C5_4 1_555 1_555
C6_4 C5_4 1_555 1_555
C7_4 C6_4 1_555 1_555
O10_3 C7_4 1_555 1_555
C8_4 C2_4 1_555 1_555
O7_4 Ni6_2 1_555 1_555
O8_4 Ni8_3 1_555 1_555
C6_4 C8_4 1_555 1_555
Ni6_3 O3_5 1_555 1_555
Ni8 O5_5 1_555 1_555
C1_5 C2_5 1_555 1_555
C2_5 H1_5 1_555 1_555
C3_5 C1_5 1_555 1_555
C4_5 C3_5 1_555 1_555
O7_3 C1_5 1_555 1_555
O9_3 C4_5 1_555 1_555
C5_5 C3_5 1_555 1_555
H2_5 C5_5 1_555 1_555
C6_5 C5_5 1_555 1_555
C7_5 C6_5 1_555 1_555
O10 C7_5 1_555 1_555
C8_5 C2_5 1_555 1_555
O8 C8_5 1_555 1_555
O7_5 Ni6_3 1_555 1_555
O8_5 Ni8 1_555 1_555
C6_5 C8_5 1_555 1_555
Ni6 O3_6 1_555 1_555
Ni8_2 O5_6 1_555 1_555
C1_6 C2_6 1_555 1_555
C3_6 C1_6 1_555 1_555
C4_6 C3_6 1_555 1_555
O9 C4_6 1_555 1_555
C5_6 C3_6 1_555 1_555
H2_6 C5_6 1_555 1_555
C6_6 C5_6 1_555 1_555
C7_6 C6_6 1_555 1_555
O10_2 C7_6 1_555 1_555
C8_6 C2_6 1_555 1_555
O7_6 Ni6 1_555 1_555
O8_6 Ni8_2 1_555 1_555
C6_6 C8_6 1_555 1_555
C1_7 C2_7 1_555 1_555
C3_7 C1_7 1_555 1_555
C4_7 C3_7 1_555 1_555
O7_5 C1_7 1_555 1_555
O11_3 C4_7 1_555 1_555
O3_7 C4_7 1_555 1_555
C5_7 C3_7 1_555 1_555
H2_7 C5_7 1_555 1_555
C6_7 C5_7 1_555 1_555
C7_7 C6_7 1_555 1_555
O12_2 C7_7 1_555 1_555
O5_7 C7_7 1_555 1_555
C8_7 C2_7 1_555 1_555
O8_6 C8_7 1_555 1_555
Ni9_3 O3_7 1_555 1_555
Ni10_2 O5_7 1_555 1_555
C6_7 C8_7 1_555 1_555
C1_8 C2_8 1_555 1_555
C3_8 C1_8 1_555 1_555
C4_8 C3_8 1_555 1_555
O7_6 C1_8 1_555 1_555
O11 C4_8 1_555 1_555
O3_8 C4_8 1_555 1_555
C5_8 C3_8 1_555 1_555
H2_8 C5_8 1_555 1_555
C6_8 C5_8 1_555 1_555
C7_8 C6_8 1_555 1_555
O12_3 C7_8 1_555 1_555
O5_8 C7_8 1_555 1_555
C8_8 C2_8 1_555 1_555
O8_4 C8_8 1_555 1_555
Ni9 O3_8 1_555 1_555
Ni10_3 O5_8 1_555 1_555
C6_8 C8_8 1_555 1_555
C1_9 C2_9 1_555 1_555
C3_9 C1_9 1_555 1_555
C4_9 C3_9 1_555 1_555
O7_4 C1_9 1_555 1_555
O11_2 C4_9 1_555 1_555
O3_9 C4_9 1_555 1_555
C5_9 C3_9 1_555 1_555
H2_9 C5_9 1_555 1_555
C6_9 C5_9 1_555 1_555
C7_9 C6_9 1_555 1_555
O12 C7_9 1_555 1_555
O5_9 C7_9 1_555 1_555
C8_9 C2_9 1_555 1_555
O8_5 C8_9 1_555 1_555
Ni9_2 O3_9 1_555 1_555
Ni10 O5_9 1_555 1_555
C6_9 C8_9 1_555 1_555

#END
