
###############################################################################
#
# This file contains modified crystal structure data generated from the
# MOF subset of the Cambridge Structural Database (CSD) v543 
# hosted by the Cambridge Crystallographic Data Centre (CCDC).
#
# This work is licensed under the Creative Commons
# Attribution-NonCommercial-ShareAlike 4.0 International License.
# To view a copy of this license, visit
# http://creativecommons.org/licenses/by-nc-sa/4.0/
# or send a letter to
# Creative Commons, PO Box 1866, Mountain View, CA 94042, USA.
#
# CIF created using the CSD Python API on 29 September 2022
# The structure has been converted into the P1 space group
# The structure has a 3D framework
# The original CSD entry KOSLEL is in the rhombohedral crystal system
# The framework has been calculated to contain at least 10.0% void space
# The void calculation uses a probe of radius 1.32A, grid spacing 0.4
#
###############################################################################

data_KOSLEL
_chemical_formula_moiety         '(C72 H18 Ni6 O44)n'
_symmetry_cell_setting           triclinic
_symmetry_space_group_name_H-M   'P 1'
_symmetry_Int_Tables_number      1
_space_group_name_Hall           'P 1'
loop_
_symmetry_equiv_pos_site_id
_symmetry_equiv_pos_as_xyz
1 x,y,z
_cell_length_a                   25.749(4)
_cell_length_b                   25.749
_cell_length_c                   6.7390(12)
_cell_angle_alpha                90
_cell_angle_beta                 90
_cell_angle_gamma                120
_cell_volume                     3869.43
loop_
_atom_site_label
_atom_site_type_symbol
_atom_site_fract_x
_atom_site_fract_y
_atom_site_fract_z
Ni6 Ni 0.6595(14) 0.0387(8) 0.2301(21)
Ni9 Ni 0.7125(11) 0.0071(14) 0.8967(21)
O9 O 0.6440(23) 0.0128(11) 0.767(5)
O11 O 0.7021(20) 0.0226(23) 0.433(5)
O2 O 0.6539(11) 0.9646(20) 0.100(5)
O3 O 0.6098(17) 0.8925(15) 0.357(5)
C3 C 0.6473(12) 0.8691(14) 0.054(5)
C4 C 0.6345(13) 0.9118(11) 0.172(4)
C5 C 0.6296(16) 0.8148(8) 0.135(5)
H2 H 0.6243(24) 0.8121(12) 0.268(10)
C7 C 0.6473(12) 0.7782(18) 0.054(5)
C8 C 0.6345(13) 0.7227(17) 0.172(4)
O5 O 0.6539(11) 0.6893(23) 0.100(5)
O6 O 0.6098(17) 0.7173(23) 0.357(5)
Ni3 Ni 0.6280(8) 0.9542(11) 0.5634(21)
Ni4 Ni 0.6280(8) 0.6738(14) 0.5634(21)
Ni8 Ni 0.6595(14) 0.6209(11) 0.2301(21)
O1 O 0.6731(11) 0.9290(11) 0.759(4)
C1 C 0.6577(13) 0.8746(12) 0.836(5)
C2 C 0.6678(17) 0.8339(8) 0.748(7)
H1 H 0.6711(31) 0.8355(15) 0.613(9)
O4 O 0.6731(11) 0.7441(16) 0.759(4)
C6 C 0.6577(13) 0.7831(18) 0.836(5)
Ni10 Ni 0.7125(11) 0.7053(8) 0.8967(21)
O7 O 0.5892(16) 0.9936(11) 0.426(4)
O8 O 0.5892(16) 0.5957(11) 0.426(4)
O10 O 0.6440(23) 0.6313(20) 0.767(5)
O12 O 0.7021(20) 0.6794(11) 0.433(5)
Ni8_2 Ni 0.3791(11) 0.0387(18) 0.2301(21)
Ni10_2 Ni 0.2947(8) 0.0071(14) 0.8967(21)
O10_2 O 0.3687(20) 0.0128(30) 0.767(5)
O12_2 O 0.3206(11) 0.0226(23) 0.433(5)
O2_2 O 0.0354(20) 0.6893(23) 0.100(5)
O3_2 O 0.1075(15) 0.7173(23) 0.357(5)
C3_2 C 0.1309(14) 0.7782(18) 0.054(5)
C4_2 C 0.0882(11) 0.7227(17) 0.172(4)
C5_2 C 0.1852(8) 0.8148(18) 0.135(5)
H2_2 H 0.1879(12) 0.8122(27) 0.268(10)
C7_2 C 0.2218(18) 0.8691(22) 0.054(5)
C8_2 C 0.2773(17) 0.9118(21) 0.172(4)
O5_2 O 0.3107(23) 0.9646(25) 0.100(5)
O6_2 O 0.2827(23) 0.8925(29) 0.357(5)
Ni3_2 Ni 0.0458(11) 0.6738(14) 0.5634(21)
Ni4_2 Ni 0.3262(14) 0.9542(16) 0.5634(21)
O1_2 O 0.0710(11) 0.7441(16) 0.759(4)
C1_2 C 0.1254(12) 0.7831(18) 0.836(5)
C2_2 C 0.1661(8) 0.8339(19) 0.748(7)
H1_2 H 0.1645(15) 0.8356(34) 0.613(9)
O4_2 O 0.2559(16) 0.9290(19) 0.759(4)
C6_2 C 0.2169(18) 0.8746(22) 0.836(5)
O7_2 O 0.0064(11) 0.5957(19) 0.426(4)
O8_2 O 0.4043(11) 0.9936(19) 0.426(4)
Ni6_2 Ni 0.9613(8) 0.6209(16) 0.2301(21)
Ni9_2 Ni 0.9929(14) 0.7053(18) 0.8967(21)
O9_2 O 0.9872(11) 0.6313(25) 0.767(5)
O11_2 O 0.9774(23) 0.6794(30) 0.433(5)
O2_3 O 0.3107(23) 0.3461(11) 0.100(5)
O3_3 O 0.2827(23) 0.3902(17) 0.357(5)
C3_3 C 0.2218(18) 0.3527(12) 0.054(5)
C4_3 C 0.2773(17) 0.3655(13) 0.172(4)
C5_3 C 0.1852(18) 0.3704(16) 0.135(5)
H2_3 H 0.1878(27) 0.3757(24) 0.268(10)
C7_3 C 0.1309(22) 0.3527(12) 0.054(5)
C8_3 C 0.0882(21) 0.3655(13) 0.172(4)
O5_3 O 0.0354(25) 0.3461(11) 0.100(5)
O6_3 O 0.1075(29) 0.3902(17) 0.357(5)
Ni3_3 Ni 0.3262(14) 0.3720(8) 0.5634(21)
Ni4_3 Ni 0.0458(16) 0.3720(8) 0.5634(21)
Ni6_3 Ni 0.3791(16) 0.3405(14) 0.2301(21)
O1_3 O 0.2559(16) 0.3269(11) 0.759(4)
C1_3 C 0.2169(18) 0.3423(13) 0.836(5)
C2_3 C 0.1661(19) 0.3322(17) 0.748(7)
H1_3 H 0.1644(34) 0.3289(31) 0.613(9)
O4_3 O 0.0710(19) 0.3269(11) 0.759(4)
C6_3 C 0.1254(22) 0.3423(13) 0.836(5)
Ni9_3 Ni 0.2947(18) 0.2875(11) 0.8967(21)
O7_3 O 0.4043(19) 0.4108(16) 0.426(4)
O8_3 O 0.0064(19) 0.4108(16) 0.426(4)
O9_3 O 0.3687(25) 0.3560(23) 0.767(5)
O11_3 O 0.3206(30) 0.2979(20) 0.433(5)
Ni8_3 Ni 0.9613(18) 0.3405(14) 0.2301(21)
Ni10_3 Ni 0.9929(14) 0.2875(11) 0.8967(21)
O10_3 O 0.9872(30) 0.3560(23) 0.767(5)
O12_3 O 0.9774(23) 0.2979(20) 0.433(5)
C2_4 C 0.0011(17) 0.5006(8) 0.415(7)
H1_4 H 0.0044(31) 0.5022(15) 0.280(9)
O3_4 O 0.9431(17) 0.5592(15) 0.024(5)
O6_4 O 0.9431(17) 0.3840(23) 0.024(5)
C1_4 C 0.9910(13) 0.5413(12) 0.503(5)
C3_4 C 0.9806(12) 0.5358(14) 0.721(5)
C4_4 C 0.9678(13) 0.5785(11) 0.839(4)
C5_4 C 0.9629(16) 0.4815(8) 0.802(5)
H2_4 H 0.9576(24) 0.4788(12) 0.935(10)
C6_4 C 0.9910(13) 0.4498(18) 0.503(5)
C7_4 C 0.9806(12) 0.4449(18) 0.721(5)
C8_4 C 0.9678(13) 0.3894(17) 0.839(4)
O7_4 O 0.9226(16) 0.6602(11) 0.092(4)
O8_4 O 0.9226(16) 0.2623(11) 0.092(4)
O3_5 O 0.4408(15) 0.3840(23) 0.024(5)
O6_5 O 0.6160(23) 0.5592(29) 0.024(5)
C1_5 C 0.4587(12) 0.4498(18) 0.503(5)
C2_5 C 0.4994(8) 0.5006(19) 0.415(7)
C3_5 C 0.4642(14) 0.4449(18) 0.721(5)
C4_5 C 0.4215(11) 0.3894(17) 0.839(4)
H1_5 H 0.4978(15) 0.5023(34) 0.280(9)
C5_5 C 0.5185(8) 0.4815(18) 0.802(5)
H2_5 H 0.5212(12) 0.4789(27) 0.935(10)
C6_5 C 0.5502(18) 0.5413(22) 0.503(5)
C7_5 C 0.5551(18) 0.5358(22) 0.721(5)
C8_5 C 0.6106(17) 0.5785(21) 0.839(4)
O7_5 O 0.3398(11) 0.2623(19) 0.092(4)
O8_5 O 0.7377(11) 0.6602(19) 0.092(4)
O3_6 O 0.6160(23) 0.0569(17) 0.024(5)
O6_6 O 0.4408(29) 0.0569(17) 0.024(5)
C1_6 C 0.5502(18) 0.0090(13) 0.503(5)
C3_6 C 0.5551(18) 0.0194(12) 0.721(5)
C4_6 C 0.6106(17) 0.0322(13) 0.839(4)
C5_6 C 0.5185(18) 0.0371(16) 0.802(5)
H2_6 H 0.5211(27) 0.0424(24) 0.935(10)
C6_6 C 0.4587(22) 0.0090(13) 0.503(5)
C7_6 C 0.4642(22) 0.0194(12) 0.721(5)
C8_6 C 0.4215(21) 0.0322(13) 0.839(4)
O7_6 O 0.7377(19) 0.0774(16) 0.092(4)
O8_6 O 0.3398(19) 0.0774(16) 0.092(4)
C2_6 C 0.4994(19) 0.9989(17) 0.415(7)
H1_6 H 0.4977(34) 0.9956(31) 0.280(9)
O3_7 O 0.2765(17) 0.2258(15) 0.690(5)
C1_7 C 0.3244(13) 0.2079(12) 0.169(5)
C2_7 C 0.3345(17) 0.1672(8) 0.081(7)
C3_7 C 0.3140(12) 0.2024(14) 0.387(5)
C4_7 C 0.3012(13) 0.2451(11) 0.505(4)
C5_7 C 0.2963(16) 0.1481(8) 0.468(5)
H2_7 H 0.2910(24) 0.1454(12) 0.601(10)
C6_7 C 0.3244(13) 0.1164(18) 0.169(5)
C7_7 C 0.3140(12) 0.1115(18) 0.387(5)
C8_7 C 0.3012(13) 0.0560(17) 0.505(4)
O6_7 O 0.2765(17) 0.0506(23) 0.690(5)
H1_7 H 0.3378(31) 0.1688(15) 0.946(9)
O3_8 O 0.7742(15) 0.0506(23) 0.690(5)
C1_8 C 0.7921(12) 0.1164(18) 0.169(5)
C2_8 C 0.8328(8) 0.1672(19) 0.081(7)
C3_8 C 0.7976(14) 0.1115(18) 0.387(5)
C4_8 C 0.7549(11) 0.0560(17) 0.505(4)
C5_8 C 0.8519(8) 0.1481(18) 0.468(5)
H2_8 H 0.8546(12) 0.1455(27) 0.601(10)
C6_8 C 0.8836(18) 0.2079(22) 0.169(5)
C7_8 C 0.8885(18) 0.2024(22) 0.387(5)
C8_8 C 0.9440(17) 0.2451(21) 0.505(4)
O6_8 O 0.9494(23) 0.2258(29) 0.690(5)
H1_8 H 0.8312(15) 0.1689(34) 0.946(9)
O3_9 O 0.9494(23) 0.7235(17) 0.690(5)
C1_9 C 0.8836(18) 0.6756(13) 0.169(5)
C2_9 C 0.8328(19) 0.6655(17) 0.081(7)
C3_9 C 0.8885(18) 0.6860(12) 0.387(5)
C4_9 C 0.9440(17) 0.6988(13) 0.505(4)
C5_9 C 0.8519(18) 0.7037(16) 0.468(5)
H2_9 H 0.8545(27) 0.7090(24) 0.601(10)
C6_9 C 0.7921(22) 0.6756(13) 0.169(5)
C7_9 C 0.7976(22) 0.6860(12) 0.387(5)
C8_9 C 0.7549(21) 0.6988(13) 0.505(4)
O6_9 O 0.7742(29) 0.7235(17) 0.690(5)
H1_9 H 0.8311(34) 0.6622(31) 0.946(9)
loop_
_geom_bond_atom_site_label_1
_geom_bond_atom_site_label_2
_geom_bond_site_symmetry_1
_geom_bond_site_symmetry_2
Ni6 O11 1_555 1_555
Ni9 O9 1_555 1_555
O2 C4 1_555 1_555
O3 C4 1_555 1_555
C4 C3 1_555 1_555
C5 C3 1_555 1_555
H2 C5 1_555 1_555
C7 C5 1_555 1_555
C8 C7 1_555 1_555
O5 C8 1_555 1_555
O6 C8 1_555 1_555
Ni3 O3 1_555 1_555
Ni4 O6 1_555 1_555
Ni8 O5 1_555 1_555
Ni4 Ni8 1_555 1_555
Ni3 O1 1_555 1_555
O1 C1 1_555 1_555
C1 C2 1_555 1_555
C2 H1 1_555 1_555
O4 C6 1_555 1_555
C6 C2 1_555 1_555
Ni4 O4 1_555 1_555
Ni10 O4 1_555 1_555
O7 Ni3 1_555 1_555
O8 Ni4 1_555 1_555
O10 Ni4 1_555 1_555
O12 Ni4 1_555 1_555
Ni4 Ni10 1_555 1_555
Ni8 O8 1_555 1_555
Ni8 O12 1_555 1_555
Ni10 O10 1_555 1_555
Ni8_2 O12_2 1_555 1_555
Ni10_2 O10_2 1_555 1_555
O2_2 C4_2 1_555 1_555
O3_2 C4_2 1_555 1_555
C4_2 C3_2 1_555 1_555
C5_2 C3_2 1_555 1_555
H2_2 C5_2 1_555 1_555
C7_2 C5_2 1_555 1_555
C8_2 C7_2 1_555 1_555
O5_2 C8_2 1_555 1_555
O6_2 C8_2 1_555 1_555
Ni3_2 O3_2 1_555 1_555
Ni4_2 O6_2 1_555 1_555
Ni3_2 O1_2 1_555 1_555
O1_2 C1_2 1_555 1_555
C1_2 C2_2 1_555 1_555
C2_2 H1_2 1_555 1_555
O4_2 C6_2 1_555 1_555
C6_2 C2_2 1_555 1_555
Ni4_2 O4_2 1_555 1_555
O7_2 Ni3_2 1_555 1_555
O8_2 Ni4_2 1_555 1_555
Ni6_2 O11_2 1_555 1_555
Ni9_2 O9_2 1_555 1_555
O2_3 C4_3 1_555 1_555
O3_3 C4_3 1_555 1_555
C4_3 C3_3 1_555 1_555
C5_3 C3_3 1_555 1_555
H2_3 C5_3 1_555 1_555
C7_3 C5_3 1_555 1_555
C8_3 C7_3 1_555 1_555
O5_3 C8_3 1_555 1_555
O6_3 C8_3 1_555 1_555
Ni3_3 O3_3 1_555 1_555
Ni4_3 O6_3 1_555 1_555
Ni6_3 O2_3 1_555 1_555
Ni3_3 Ni6_3 1_555 1_555
Ni3_3 O1_3 1_555 1_555
O1_3 C1_3 1_555 1_555
C1_3 C2_3 1_555 1_555
C2_3 H1_3 1_555 1_555
O4_3 C6_3 1_555 1_555
C6_3 C2_3 1_555 1_555
Ni4_3 O4_3 1_555 1_555
Ni9_3 Ni3_3 1_555 1_555
O7_3 Ni3_3 1_555 1_555
O8_3 Ni4_3 1_555 1_555
O9_3 Ni3_3 1_555 1_555
O11_3 Ni3_3 1_555 1_555
O1_3 Ni9_3 1_555 1_555
Ni6_3 O7_3 1_555 1_555
Ni6_3 O11_3 1_555 1_555
Ni9_3 O9_3 1_555 1_555
Ni8_3 O12_3 1_555 1_555
Ni10_3 O10_3 1_555 1_555
C2_4 H1_4 1_555 1_555
Ni6_2 O3_4 1_555 1_555
Ni8_3 O6_4 1_555 1_555
O9_2 C4_4 1_555 1_555
C3_4 C1_4 1_555 1_555
C4_4 C3_4 1_555 1_555
C5_4 C3_4 1_555 1_555
H2_4 C5_4 1_555 1_555
C7_4 C5_4 1_555 1_555
C8_4 C7_4 1_555 1_555
O10_3 C8_4 1_555 1_555
O7_4 Ni6_2 1_555 1_555
O8_4 Ni8_3 1_555 1_555
C6_4 C7_4 1_555 1_555
Ni6_3 O3_5 1_555 1_555
Ni8 O6_5 1_555 1_555
O7_3 C1_5 1_555 1_555
O9_3 C4_5 1_555 1_555
C1_5 C2_5 1_555 1_555
C2_5 H1_5 1_555 1_555
C3_5 C1_5 1_555 1_555
C4_5 C3_5 1_555 1_555
C5_5 C3_5 1_555 1_555
H2_5 C5_5 1_555 1_555
O8 C6_5 1_555 1_555
C6_5 C2_5 1_555 1_555
C7_5 C5_5 1_555 1_555
C8_5 C7_5 1_555 1_555
O10 C8_5 1_555 1_555
O7_5 Ni6_3 1_555 1_555
O8_5 Ni8 1_555 1_555
C6_5 C7_5 1_555 1_555
Ni6 O3_6 1_555 1_555
Ni8_2 O6_6 1_555 1_555
O9 C4_6 1_555 1_555
C3_6 C1_6 1_555 1_555
C4_6 C3_6 1_555 1_555
C5_6 C3_6 1_555 1_555
H2_6 C5_6 1_555 1_555
C7_6 C5_6 1_555 1_555
C8_6 C7_6 1_555 1_555
O10_2 C8_6 1_555 1_555
O7_6 Ni6 1_555 1_555
O8_6 Ni8_2 1_555 1_555
C6_6 C7_6 1_555 1_555
C2_6 H1_6 1_555 1_555
O7_5 C1_7 1_555 1_555
O11_3 C4_7 1_555 1_555
O3_7 C4_7 1_555 1_555
C1_7 C2_7 1_555 1_555
C3_7 C1_7 1_555 1_555
C4_7 C3_7 1_555 1_555
C5_7 C3_7 1_555 1_555
H2_7 C5_7 1_555 1_555
O8_6 C6_7 1_555 1_555
C6_7 C2_7 1_555 1_555
C7_7 C5_7 1_555 1_555
C8_7 C7_7 1_555 1_555
O12_2 C8_7 1_555 1_555
O6_7 C8_7 1_555 1_555
Ni9_3 O3_7 1_555 1_555
Ni10_2 O6_7 1_555 1_555
C6_7 C7_7 1_555 1_555
O7_6 C1_8 1_555 1_555
O11 C4_8 1_555 1_555
O3_8 C4_8 1_555 1_555
C1_8 C2_8 1_555 1_555
C3_8 C1_8 1_555 1_555
C4_8 C3_8 1_555 1_555
C5_8 C3_8 1_555 1_555
H2_8 C5_8 1_555 1_555
O8_4 C6_8 1_555 1_555
C6_8 C2_8 1_555 1_555
C7_8 C5_8 1_555 1_555
C8_8 C7_8 1_555 1_555
O12_3 C8_8 1_555 1_555
O6_8 C8_8 1_555 1_555
Ni9 O3_8 1_555 1_555
Ni10_3 O6_8 1_555 1_555
C6_8 C7_8 1_555 1_555
O7_4 C1_9 1_555 1_555
O11_2 C4_9 1_555 1_555
O3_9 C4_9 1_555 1_555
C1_9 C2_9 1_555 1_555
C3_9 C1_9 1_555 1_555
C4_9 C3_9 1_555 1_555
C5_9 C3_9 1_555 1_555
H2_9 C5_9 1_555 1_555
O8_5 C6_9 1_555 1_555
C6_9 C2_9 1_555 1_555
C7_9 C5_9 1_555 1_555
C8_9 C7_9 1_555 1_555
O12 C8_9 1_555 1_555
O6_9 C8_9 1_555 1_555
Ni9_2 O3_9 1_555 1_555
Ni10 O6_9 1_555 1_555
C6_9 C7_9 1_555 1_555

#END
