
###############################################################################
#
# This file contains modified crystal structure data generated from the
# MOF subset of the Cambridge Structural Database (CSD) v543 
# hosted by the Cambridge Crystallographic Data Centre (CCDC).
#
# This work is licensed under the Creative Commons
# Attribution-NonCommercial-ShareAlike 4.0 International License.
# To view a copy of this license, visit
# http://creativecommons.org/licenses/by-nc-sa/4.0/
# or send a letter to
# Creative Commons, PO Box 1866, Mountain View, CA 94042, USA.
#
# CIF created using the CSD Python API on 29 September 2022
# The structure has been converted into the P1 space group
# The structure has a 3D framework
# The original CSD entry KOSMAI is in the rhombohedral crystal system
# The framework has been calculated to contain at least 10.0% void space
# The void calculation uses a probe of radius 1.32A, grid spacing 0.4
#
###############################################################################

data_KOSMAI
_chemical_formula_moiety         '(C72 H18 Co6 O44)n'
_symmetry_cell_setting           triclinic
_symmetry_space_group_name_H-M   'P 1'
_symmetry_Int_Tables_number      1
_space_group_name_Hall           'P 1'
loop_
_symmetry_equiv_pos_site_id
_symmetry_equiv_pos_as_xyz
1 x,y,z
_cell_length_a                   25.8595(10)
_cell_length_b                   25.8595
_cell_length_c                   6.7766(4)
_cell_angle_alpha                90
_cell_angle_beta                 90
_cell_angle_gamma                120
_cell_volume                     3924.49
loop_
_atom_site_label
_atom_site_type_symbol
_atom_site_fract_x
_atom_site_fract_y
_atom_site_fract_z
_atom_site_U_iso_or_equiv
_atom_site_thermal_displace_type
Co6 Co 0.6603(22) 0.0412(12) 0.227(4) 0.0200 Uiso
O9 O 0.6437(6) 0.0138(4) 0.7619(16) 0.0140 Uiso
O11 O 0.7034(5) 0.0229(6) 0.4285(16) 0.0140 Uiso
Co9 Co 0.7142(18) 0.0063(22) 0.893(4) 0.0200 Uiso
C3 C 0.6388(5) 0.8658(4) 0.0446(16) 0.0099 Uiso
C4 C 0.6325(4) 0.9102(4) 0.1706(14) 0.0115 Uiso
O2 O 0.6529(4) 0.9633(5) 0.0952(16) 0.0140 Uiso
O3 O 0.6076(4) 0.8932(5) 0.3452(16) 0.0151 Uiso
C5 C 0.6288(6) 0.81446(28) 0.1394(20) 0.0020 Uiso
H2 H 0.6190(11) 0.8094(6) 0.273(4) 0.0210 Uiso
C6 C 0.6388(5) 0.7730(6) 0.0446(16) 0.0099 Uiso
C7 C 0.6325(4) 0.7223(6) 0.1706(14) 0.0115 Uiso
O4 O 0.6529(4) 0.6896(6) 0.0952(16) 0.0140 Uiso
O5 O 0.6076(4) 0.7144(6) 0.3452(16) 0.0151 Uiso
Co3 Co 0.6255(12) 0.9525(18) 0.560(4) 0.0200 Uiso
Co4 Co 0.6255(12) 0.6730(22) 0.560(4) 0.0200 Uiso
Co8 Co 0.6603(22) 0.6192(18) 0.227(4) 0.0200 Uiso
C1 C 0.6571(4) 0.8756(4) 0.8410(17) 0.0110 Uiso
C2 C 0.6687(8) 0.8344(4) 0.7520(26) 0.0180 Uiso
H1 H 0.6797(12) 0.8399(6) 0.597(4) 0.0290 Uiso
O1 O 0.6715(4) 0.9268(5) 0.7484(18) 0.0100 Uiso
C8 C 0.6571(4) 0.7815(6) 0.8410(17) 0.0110 Uiso
O6 O 0.6715(4) 0.7447(6) 0.7484(18) 0.0100 Uiso
O7 O 0.5886(6) 0.9952(4) 0.4151(18) 0.0100 Uiso
O8 O 0.5886(6) 0.5935(5) 0.4151(18) 0.0100 Uiso
O10 O 0.6437(6) 0.6300(5) 0.7619(16) 0.0140 Uiso
O12 O 0.7034(5) 0.6804(4) 0.4285(16) 0.0140 Uiso
Co10 Co 0.7142(18) 0.7078(12) 0.893(4) 0.0200 Uiso
Co8_2 Co 0.3808(18) 0.0412(28) 0.227(4) 0.0200 Uiso
O10_2 O 0.3700(5) 0.0138(8) 0.7619(16) 0.0140 Uiso
O12_2 O 0.3196(4) 0.0229(6) 0.4285(16) 0.0140 Uiso
Co10_2 Co 0.2922(12) 0.0063(22) 0.893(4) 0.0200 Uiso
C3_2 C 0.1342(4) 0.7730(6) 0.0446(16) 0.0099 Uiso
C4_2 C 0.0898(4) 0.7223(6) 0.1706(14) 0.0115 Uiso
O2_2 O 0.0367(5) 0.6896(6) 0.0952(16) 0.0140 Uiso
O3_2 O 0.1068(5) 0.7144(6) 0.3452(16) 0.0151 Uiso
C5_2 C 0.18554(28) 0.81434(66) 0.1394(20) 0.0020 Uiso
H2_2 H 0.1906(6) 0.8096(13) 0.273(4) 0.0210 Uiso
C6_2 C 0.2270(6) 0.8658(8) 0.0446(16) 0.0099 Uiso
C7_2 C 0.2777(6) 0.9102(7) 0.1706(14) 0.0115 Uiso
O4_2 O 0.3104(6) 0.9633(7) 0.0952(16) 0.0140 Uiso
O5_2 O 0.2856(6) 0.8932(7) 0.3452(16) 0.0151 Uiso
Co3_2 Co 0.0475(18) 0.6730(22) 0.560(4) 0.0200 Uiso
Co4_2 Co 0.3270(22) 0.9525(25) 0.560(4) 0.0200 Uiso
C1_2 C 0.1244(4) 0.7815(6) 0.8410(17) 0.0110 Uiso
C2_2 C 0.1656(4) 0.8343(9) 0.7520(26) 0.0180 Uiso
H1_2 H 0.1601(6) 0.8398(13) 0.597(4) 0.0290 Uiso
O1_2 O 0.0732(5) 0.7447(6) 0.7484(18) 0.0100 Uiso
C8_2 C 0.2185(6) 0.8756(7) 0.8410(17) 0.0110 Uiso
O6_2 O 0.2553(6) 0.9268(7) 0.7484(18) 0.0100 Uiso
O7_2 O 0.0048(4) 0.5935(7) 0.4151(18) 0.0100 Uiso
O8_2 O 0.4065(5) 0.9952(8) 0.4151(18) 0.0100 Uiso
Co6_2 Co 0.9588(12) 0.6192(25) 0.227(4) 0.0200 Uiso
O9_2 O 0.9862(4) 0.6300(7) 0.7619(16) 0.0140 Uiso
O11_2 O 0.9771(6) 0.6804(8) 0.4285(16) 0.0140 Uiso
Co9_2 Co 0.9937(22) 0.7078(28) 0.893(4) 0.0200 Uiso
C3_3 C 0.2270(6) 0.3612(5) 0.0446(16) 0.0099 Uiso
C4_3 C 0.2777(6) 0.3675(4) 0.1706(14) 0.0115 Uiso
O2_3 O 0.3104(6) 0.3471(4) 0.0952(16) 0.0140 Uiso
O3_3 O 0.2856(6) 0.3924(4) 0.3452(16) 0.0151 Uiso
C5_3 C 0.18566(66) 0.3712(6) 0.1394(20) 0.0020 Uiso
H2_3 H 0.1904(13) 0.3810(11) 0.273(4) 0.0210 Uiso
C6_3 C 0.1342(8) 0.3612(5) 0.0446(16) 0.0099 Uiso
C7_3 C 0.0898(7) 0.3675(4) 0.1706(14) 0.0115 Uiso
O4_3 O 0.0367(7) 0.3471(4) 0.0952(16) 0.0140 Uiso
O5_3 O 0.1068(7) 0.3924(4) 0.3452(16) 0.0151 Uiso
Co3_3 Co 0.3270(22) 0.3745(12) 0.560(4) 0.0200 Uiso
Co4_3 Co 0.0475(25) 0.3745(12) 0.560(4) 0.0200 Uiso
Co6_3 Co 0.3808(25) 0.3397(22) 0.227(4) 0.0200 Uiso
C1_3 C 0.2185(6) 0.3429(4) 0.8410(17) 0.0110 Uiso
C2_3 C 0.1657(9) 0.3313(8) 0.7520(26) 0.0180 Uiso
H1_3 H 0.1602(13) 0.3203(12) 0.597(4) 0.0290 Uiso
O1_3 O 0.2553(6) 0.3285(4) 0.7484(18) 0.0100 Uiso
C8_3 C 0.1244(7) 0.3429(4) 0.8410(17) 0.0110 Uiso
O6_3 O 0.0732(7) 0.3285(4) 0.7484(18) 0.0100 Uiso
O7_3 O 0.4065(7) 0.4114(6) 0.4151(18) 0.0100 Uiso
O8_3 O 0.0048(8) 0.4114(6) 0.4151(18) 0.0100 Uiso
O9_3 O 0.3700(7) 0.3563(6) 0.7619(16) 0.0140 Uiso
O11_3 O 0.3196(8) 0.2966(5) 0.4285(16) 0.0140 Uiso
Co9_3 Co 0.2922(28) 0.2858(18) 0.893(4) 0.0200 Uiso
Co8_3 Co 0.9588(28) 0.3397(22) 0.227(4) 0.0200 Uiso
O10_3 O 0.9862(8) 0.3563(6) 0.7619(16) 0.0140 Uiso
O12_3 O 0.9771(6) 0.2966(5) 0.4285(16) 0.0140 Uiso
Co10_3 Co 0.9937(22) 0.2858(18) 0.893(4) 0.0200 Uiso
C2_4 C 0.0020(8) 0.5011(4) 0.4187(26) 0.0180 Uiso
H1_4 H 0.0130(12) 0.5066(6) 0.264(4) 0.0290 Uiso
O3_4 O 0.9409(4) 0.5599(5) 0.0119(16) 0.0151 Uiso
O5_4 O 0.9409(4) 0.3811(6) 0.0119(16) 0.0151 Uiso
C1_4 C 0.9904(4) 0.5423(4) 0.5077(17) 0.0110 Uiso
C3_4 C 0.9721(5) 0.5325(4) 0.7113(16) 0.0099 Uiso
C4_4 C 0.9658(4) 0.5769(4) 0.8373(14) 0.0115 Uiso
C5_4 C 0.9621(6) 0.48113(28) 0.8061(20) 0.0020 Uiso
H2_4 H 0.9523(11) 0.4761(6) 0.940(4) 0.0210 Uiso
C6_4 C 0.9721(5) 0.4397(6) 0.7113(16) 0.0099 Uiso
C7_4 C 0.9658(4) 0.3890(6) 0.8373(14) 0.0115 Uiso
C8_4 C 0.9904(4) 0.4482(6) 0.5077(17) 0.0110 Uiso
O7_4 O 0.9220(6) 0.6618(4) 0.0817(18) 0.0100 Uiso
O8_4 O 0.9220(6) 0.2601(5) 0.0817(18) 0.0100 Uiso
O3_5 O 0.4401(5) 0.3811(6) 0.0119(16) 0.0151 Uiso
O5_5 O 0.6189(6) 0.5599(7) 0.0119(16) 0.0151 Uiso
C1_5 C 0.4577(4) 0.4482(6) 0.5077(17) 0.0110 Uiso
C2_5 C 0.4989(4) 0.5010(9) 0.4187(26) 0.0180 Uiso
C3_5 C 0.4675(4) 0.4397(6) 0.7113(16) 0.0099 Uiso
C4_5 C 0.4231(4) 0.3890(6) 0.8373(14) 0.0115 Uiso
H1_5 H 0.4934(6) 0.5065(13) 0.264(4) 0.0290 Uiso
C5_5 C 0.51887(28) 0.48101(66) 0.8061(20) 0.0020 Uiso
H2_5 H 0.5239(6) 0.4763(13) 0.940(4) 0.0210 Uiso
C6_5 C 0.5603(6) 0.5325(8) 0.7113(16) 0.0099 Uiso
C7_5 C 0.6110(6) 0.5769(7) 0.8373(14) 0.0115 Uiso
C8_5 C 0.5518(6) 0.5423(7) 0.5077(17) 0.0110 Uiso
O7_5 O 0.3382(4) 0.2601(7) 0.0817(18) 0.0100 Uiso
O8_5 O 0.7399(5) 0.6618(8) 0.0817(18) 0.0100 Uiso
O3_6 O 0.6189(6) 0.0591(4) 0.0119(16) 0.0151 Uiso
O5_6 O 0.4401(7) 0.0591(4) 0.0119(16) 0.0151 Uiso
C1_6 C 0.5518(6) 0.0096(4) 0.5077(17) 0.0110 Uiso
C3_6 C 0.5603(6) 0.0279(5) 0.7113(16) 0.0099 Uiso
C4_6 C 0.6110(6) 0.0342(4) 0.8373(14) 0.0115 Uiso
C5_6 C 0.51899(66) 0.0379(6) 0.8061(20) 0.0020 Uiso
H2_6 H 0.5237(13) 0.0477(11) 0.940(4) 0.0210 Uiso
C6_6 C 0.4675(8) 0.0279(5) 0.7113(16) 0.0099 Uiso
C7_6 C 0.4231(7) 0.0342(4) 0.8373(14) 0.0115 Uiso
C8_6 C 0.4577(7) 0.0096(4) 0.5077(17) 0.0110 Uiso
O7_6 O 0.7399(7) 0.0780(6) 0.0817(18) 0.0100 Uiso
O8_6 O 0.3382(8) 0.0780(6) 0.0817(18) 0.0100 Uiso
C2_6 C 0.4990(9) 0.9980(8) 0.4187(26) 0.0180 Uiso
H1_6 H 0.4935(13) 0.9870(12) 0.264(4) 0.0290 Uiso
C1_7 C 0.3238(4) 0.2089(4) 0.1743(17) 0.0110 Uiso
C2_7 C 0.3354(8) 0.1677(4) 0.0853(26) 0.0180 Uiso
C3_7 C 0.3055(5) 0.1991(4) 0.3779(16) 0.0099 Uiso
C4_7 C 0.2992(4) 0.2435(4) 0.5039(14) 0.0115 Uiso
O3_7 O 0.2743(4) 0.2265(5) 0.6785(16) 0.0151 Uiso
C5_7 C 0.2955(6) 0.14779(28) 0.4727(20) 0.0020 Uiso
H2_7 H 0.2857(11) 0.1427(6) 0.606(4) 0.0210 Uiso
C6_7 C 0.3055(5) 0.1063(6) 0.3779(16) 0.0099 Uiso
C7_7 C 0.2992(4) 0.0556(6) 0.5039(14) 0.0115 Uiso
O5_7 O 0.2743(4) 0.0477(6) 0.6785(16) 0.0151 Uiso
C8_7 C 0.3238(4) 0.1148(6) 0.1743(17) 0.0110 Uiso
H1_7 H 0.3464(12) 0.1732(6) 0.930(4) 0.0290 Uiso
C1_8 C 0.7911(4) 0.1148(6) 0.1743(17) 0.0110 Uiso
C2_8 C 0.8323(4) 0.1676(9) 0.0853(26) 0.0180 Uiso
C3_8 C 0.8009(4) 0.1063(6) 0.3779(16) 0.0099 Uiso
C4_8 C 0.7565(4) 0.0556(6) 0.5039(14) 0.0115 Uiso
O3_8 O 0.7735(5) 0.0477(6) 0.6785(16) 0.0151 Uiso
C5_8 C 0.85221(28) 0.14767(66) 0.4727(20) 0.0020 Uiso
H2_8 H 0.8573(6) 0.1429(13) 0.606(4) 0.0210 Uiso
C6_8 C 0.8937(6) 0.1991(8) 0.3779(16) 0.0099 Uiso
C7_8 C 0.9444(6) 0.2435(7) 0.5039(14) 0.0115 Uiso
O5_8 O 0.9523(6) 0.2265(7) 0.6785(16) 0.0151 Uiso
C8_8 C 0.8852(6) 0.2089(7) 0.1743(17) 0.0110 Uiso
H1_8 H 0.8268(6) 0.1731(13) 0.930(4) 0.0290 Uiso
C1_9 C 0.8852(6) 0.6762(4) 0.1743(17) 0.0110 Uiso
C2_9 C 0.8324(9) 0.6646(8) 0.0853(26) 0.0180 Uiso
C3_9 C 0.8937(6) 0.6945(5) 0.3779(16) 0.0099 Uiso
C4_9 C 0.9444(6) 0.7008(4) 0.5039(14) 0.0115 Uiso
O3_9 O 0.9523(6) 0.7257(4) 0.6785(16) 0.0151 Uiso
C5_9 C 0.85233(66) 0.7045(6) 0.4727(20) 0.0020 Uiso
H2_9 H 0.8571(13) 0.7143(11) 0.606(4) 0.0210 Uiso
C6_9 C 0.8009(8) 0.6945(5) 0.3779(16) 0.0099 Uiso
C7_9 C 0.7565(7) 0.7008(4) 0.5039(14) 0.0115 Uiso
O5_9 O 0.7735(7) 0.7257(4) 0.6785(16) 0.0151 Uiso
C8_9 C 0.7911(7) 0.6762(4) 0.1743(17) 0.0110 Uiso
H1_9 H 0.8269(13) 0.6536(12) 0.930(4) 0.0290 Uiso
loop_
_geom_bond_atom_site_label_1
_geom_bond_atom_site_label_2
_geom_bond_site_symmetry_1
_geom_bond_site_symmetry_2
O9 Co9 1_555 1_555
O11 Co6 1_555 1_555
C4 C3 1_555 1_555
O2 C4 1_555 1_555
O3 C4 1_555 1_555
C5 C3 1_555 1_555
H2 C5 1_555 1_555
C6 C5 1_555 1_555
C7 C6 1_555 1_555
O4 C7 1_555 1_555
O5 C7 1_555 1_555
Co3 O3 1_555 1_555
Co4 O5 1_555 1_555
Co8 O4 1_555 1_555
Co4 Co8 1_555 1_555
C1 C2 1_555 1_555
C2 H1 1_555 1_555
O1 C1 1_555 1_555
Co3 O1 1_555 1_555
C8 C2 1_555 1_555
O6 C8 1_555 1_555
Co4 O6 1_555 1_555
O7 Co3 1_555 1_555
O8 Co4 1_555 1_555
O10 Co4 1_555 1_555
O12 Co4 1_555 1_555
O6 Co10 1_555 1_555
Co4 Co10 1_555 1_555
O8 Co8 1_555 1_555
O10 Co10 1_555 1_555
O12 Co8 1_555 1_555
O10_2 Co10_2 1_555 1_555
O12_2 Co8_2 1_555 1_555
C4_2 C3_2 1_555 1_555
O2_2 C4_2 1_555 1_555
O3_2 C4_2 1_555 1_555
C5_2 C3_2 1_555 1_555
H2_2 C5_2 1_555 1_555
C6_2 C5_2 1_555 1_555
C7_2 C6_2 1_555 1_555
O4_2 C7_2 1_555 1_555
O5_2 C7_2 1_555 1_555
Co3_2 O3_2 1_555 1_555
Co4_2 O5_2 1_555 1_555
C1_2 C2_2 1_555 1_555
C2_2 H1_2 1_555 1_555
O1_2 C1_2 1_555 1_555
Co3_2 O1_2 1_555 1_555
C8_2 C2_2 1_555 1_555
O6_2 C8_2 1_555 1_555
Co4_2 O6_2 1_555 1_555
O7_2 Co3_2 1_555 1_555
O8_2 Co4_2 1_555 1_555
O9_2 Co9_2 1_555 1_555
O11_2 Co6_2 1_555 1_555
C4_3 C3_3 1_555 1_555
O2_3 C4_3 1_555 1_555
O3_3 C4_3 1_555 1_555
C5_3 C3_3 1_555 1_555
H2_3 C5_3 1_555 1_555
C6_3 C5_3 1_555 1_555
C7_3 C6_3 1_555 1_555
O4_3 C7_3 1_555 1_555
O5_3 C7_3 1_555 1_555
Co3_3 O3_3 1_555 1_555
Co4_3 O5_3 1_555 1_555
Co6_3 O2_3 1_555 1_555
Co3_3 Co6_3 1_555 1_555
C1_3 C2_3 1_555 1_555
C2_3 H1_3 1_555 1_555
O1_3 C1_3 1_555 1_555
Co3_3 O1_3 1_555 1_555
C8_3 C2_3 1_555 1_555
O6_3 C8_3 1_555 1_555
Co4_3 O6_3 1_555 1_555
O7_3 Co3_3 1_555 1_555
O8_3 Co4_3 1_555 1_555
O9_3 Co3_3 1_555 1_555
O11_3 Co3_3 1_555 1_555
Co9_3 O1_3 1_555 1_555
Co3_3 Co9_3 1_555 1_555
O7_3 Co6_3 1_555 1_555
O9_3 Co9_3 1_555 1_555
O11_3 Co6_3 1_555 1_555
O10_3 Co10_3 1_555 1_555
O12_3 Co8_3 1_555 1_555
C2_4 H1_4 1_555 1_555
Co6_2 O3_4 1_555 1_555
Co8_3 O5_4 1_555 1_555
C3_4 C1_4 1_555 1_555
C4_4 C3_4 1_555 1_555
O9_2 C4_4 1_555 1_555
C5_4 C3_4 1_555 1_555
H2_4 C5_4 1_555 1_555
C6_4 C5_4 1_555 1_555
C7_4 C6_4 1_555 1_555
O10_3 C7_4 1_555 1_555
O7_4 Co6_2 1_555 1_555
O8_4 Co8_3 1_555 1_555
C6_4 C8_4 1_555 1_555
Co6_3 O3_5 1_555 1_555
Co8 O5_5 1_555 1_555
C1_5 C2_5 1_555 1_555
C2_5 H1_5 1_555 1_555
C3_5 C1_5 1_555 1_555
C4_5 C3_5 1_555 1_555
O7_3 C1_5 1_555 1_555
O9_3 C4_5 1_555 1_555
C5_5 C3_5 1_555 1_555
H2_5 C5_5 1_555 1_555
C6_5 C5_5 1_555 1_555
C7_5 C6_5 1_555 1_555
O10 C7_5 1_555 1_555
C8_5 C2_5 1_555 1_555
O8 C8_5 1_555 1_555
O7_5 Co6_3 1_555 1_555
O8_5 Co8 1_555 1_555
C6_5 C8_5 1_555 1_555
Co6 O3_6 1_555 1_555
Co8_2 O5_6 1_555 1_555
C3_6 C1_6 1_555 1_555
C4_6 C3_6 1_555 1_555
O9 C4_6 1_555 1_555
C5_6 C3_6 1_555 1_555
H2_6 C5_6 1_555 1_555
C6_6 C5_6 1_555 1_555
C7_6 C6_6 1_555 1_555
O10_2 C7_6 1_555 1_555
O7_6 Co6 1_555 1_555
O8_6 Co8_2 1_555 1_555
C6_6 C8_6 1_555 1_555
C2_6 H1_6 1_555 1_555
C1_7 C2_7 1_555 1_555
C3_7 C1_7 1_555 1_555
C4_7 C3_7 1_555 1_555
O7_5 C1_7 1_555 1_555
O11_3 C4_7 1_555 1_555
O3_7 C4_7 1_555 1_555
C5_7 C3_7 1_555 1_555
H2_7 C5_7 1_555 1_555
C6_7 C5_7 1_555 1_555
C7_7 C6_7 1_555 1_555
O12_2 C7_7 1_555 1_555
O5_7 C7_7 1_555 1_555
C8_7 C2_7 1_555 1_555
O8_6 C8_7 1_555 1_555
Co9_3 O3_7 1_555 1_555
Co10_2 O5_7 1_555 1_555
C6_7 C8_7 1_555 1_555
C1_8 C2_8 1_555 1_555
C3_8 C1_8 1_555 1_555
C4_8 C3_8 1_555 1_555
O7_6 C1_8 1_555 1_555
O11 C4_8 1_555 1_555
O3_8 C4_8 1_555 1_555
C5_8 C3_8 1_555 1_555
H2_8 C5_8 1_555 1_555
C6_8 C5_8 1_555 1_555
C7_8 C6_8 1_555 1_555
O12_3 C7_8 1_555 1_555
O5_8 C7_8 1_555 1_555
C8_8 C2_8 1_555 1_555
O8_4 C8_8 1_555 1_555
Co9 O3_8 1_555 1_555
Co10_3 O5_8 1_555 1_555
C6_8 C8_8 1_555 1_555
C1_9 C2_9 1_555 1_555
C3_9 C1_9 1_555 1_555
C4_9 C3_9 1_555 1_555
O7_4 C1_9 1_555 1_555
O11_2 C4_9 1_555 1_555
O3_9 C4_9 1_555 1_555
C5_9 C3_9 1_555 1_555
H2_9 C5_9 1_555 1_555
C6_9 C5_9 1_555 1_555
C7_9 C6_9 1_555 1_555
O12 C7_9 1_555 1_555
O5_9 C7_9 1_555 1_555
C8_9 C2_9 1_555 1_555
O8_5 C8_9 1_555 1_555
Co9_2 O3_9 1_555 1_555
Co10 O5_9 1_555 1_555
C6_9 C8_9 1_555 1_555

#END
