
###############################################################################
#
# This file contains modified crystal structure data generated from the
# MOF subset of the Cambridge Structural Database (CSD) v543 
# hosted by the Cambridge Crystallographic Data Centre (CCDC).
#
# This work is licensed under the Creative Commons
# Attribution-NonCommercial-ShareAlike 4.0 International License.
# To view a copy of this license, visit
# http://creativecommons.org/licenses/by-nc-sa/4.0/
# or send a letter to
# Creative Commons, PO Box 1866, Mountain View, CA 94042, USA.
#
# CIF created using the CSD Python API on 29 September 2022
# The structure has been converted into the P1 space group
# The structure has a 3D framework
# The original CSD entry KOSQOB is in the orthorhombic crystal system
# The framework has been calculated to contain at least 10.0% void space
# The void calculation uses a probe of radius 1.32A, grid spacing 0.4
#
###############################################################################

data_KOSQOB
_chemical_formula_moiety         '(C624 H336 N32 O128 Zn20)n'
_symmetry_cell_setting           triclinic
_symmetry_space_group_name_H-M   'P 1'
_symmetry_Int_Tables_number      1
_space_group_name_Hall           'P 1'
loop_
_symmetry_equiv_pos_site_id
_symmetry_equiv_pos_as_xyz
1 x,y,z
_cell_length_a                   27.9512(8)
_cell_length_b                   32.0897(8)
_cell_length_c                   25.2538(6)
_cell_angle_alpha                90
_cell_angle_beta                 90
_cell_angle_gamma                90
_cell_volume                     22651.3
loop_
_atom_site_label
_atom_site_type_symbol
_atom_site_fract_x
_atom_site_fract_y
_atom_site_fract_z
Zn12 Zn 0.00237(2) 0.38777(2) 0.12351(2)
Zn6 Zn 0.46837(2) 0.62394(2) 0.00563(2)
Zn1 Zn 0.53925(2) 0.61957(2) 0.24310(2)
Zn3 Zn 0.50237(2) 0.61223(2) 0.12351(2)
O1 O 0.07149(10) 0.43338(8) 0.22838(11)
O2 O 0.46680(10) 0.66927(10) 0.25421(12)
O3 O 0.47677(9) 0.61271(8) 0.20618(10)
O4 O 0.57960(13) 0.60865(15) 0.77451(13)
O5 O 0.42409(13) 0.64235(14) 0.75405(12)
O6 O 0.60717(18) 0.6041(2) 0.49621(16)
O7 O 0.04357(9) 0.83758(8) 0.11008(10)
O8 O 0.04862(9) 0.43519(8) 0.14337(10)
O9 O 0.07624(9) 0.83419(8) 0.02954(10)
O10 O 0.45182(17) 0.6340(2) 0.47792(16)
O11 O 0.52871(9) 0.61640(8) 0.04457(9)
O12 O 0.53948(9) 0.67618(8) 0.00168(11)
O13 O 0.91787(9) 0.83530(8) 0.22368(10)
O14 O 0.95597(9) 0.43261(8) 0.09995(10)
O15 O 0.95159(10) 0.84057(9) 0.14382(10)
O16 O 0.93685(9) 0.42999(8) 0.01376(10)
N1 N 0.47948(11) 0.62540(10) 0.92699(12)
N2 N 0.50206(13) 0.62544(11) 0.76327(13)
N3 N 0.52920(18) 0.61947(14) 0.48826(15)
N4 N 0.53979(13) 0.61842(11) 0.32301(12)
C1 C 0.07101(14) 0.44904(12) 0.18211(16)
C2 C 0.09925(14) 0.48789(13) 0.17531(16)
C3 C 0.10056(15) 0.50870(12) 0.12751(15)
H1 H 0.0839 0.4973 0.0981
C4 C 0.1233(2) 0.50559(16) 0.21745(19)
H2 H 0.1219 0.4924 0.2511
C5 C 0.30257(15) 0.64198(13) 0.17989(17)
C6 C 0.39835(14) 0.64139(13) 0.20839(15)
C7 C 0.17831(14) 0.67611(12) 0.13821(16)
C8 C 0.22703(14) 0.67636(13) 0.14904(16)
H3 H 0.2443 0.7017 0.1453
C9 C 0.09940(14) 0.78492(12) 0.09355(16)
C10 C 0.15398(14) 0.63874(13) 0.14235(16)
H4 H 0.1207 0.6380 0.1345
C11 C 0.25113(15) 0.64100(13) 0.16502(16)
C12 C 0.17679(15) 0.60222(13) 0.15766(16)
C13 C 0.37994(14) 0.60828(13) 0.18158(15)
H5 H 0.3998 0.5853 0.1728
C14 C 0.49546(15) 0.62480(14) 0.81998(16)
C15 C 0.32199(14) 0.67482(13) 0.20767(17)
H6 H 0.3024 0.6979 0.2168
C16 C 0.36946(15) 0.67471(13) 0.22240(17)
H7 H 0.3823 0.6973 0.2420
C17 C 0.15023(14) 0.56224(13) 0.16346(17)
C18 C 0.44997(15) 0.64213(14) 0.22482(16)
C19 C 0.07111(14) 0.82179(12) 0.07598(16)
C20 C 0.08406(15) 0.75985(13) 0.13524(16)
H8 H 0.0556 0.7667 0.1538
C21 C 0.33223(15) 0.60822(14) 0.16716(16)
H9 H 0.3194 0.5851 0.1485
C22 C 0.10985(15) 0.72522(13) 0.14963(16)
H10 H 0.0990 0.7086 0.1783
C23 C 0.15197(14) 0.71398(12) 0.12267(16)
C24 C 0.22559(15) 0.60386(13) 0.16928(17)
H11 H 0.2417 0.5792 0.1803
C25 C 0.48141(16) 0.58936(14) 0.89997(16)
H12 H 0.4771 0.5639 0.9185
C26 C 0.49438(15) 0.66277(14) 0.84763(16)
H13 H 0.4995 0.6885 0.8299
C27 C 0.54778(19) 0.61605(18) 0.74356(19)
C28 C 0.14135(16) 0.77484(14) 0.06635(19)
H14 H 0.1517 0.7914 0.0373
C29 C 0.48948(18) 0.58821(15) 0.84587(18)
H15 H 0.4908 0.5624 0.8274
C30 C 0.48568(15) 0.66157(13) 0.90140(16)
H16 H 0.4841 0.6869 0.9207
C31 C 0.1492(2) 0.54176(16) 0.2123(2)
H17 H 0.1663 0.5528 0.2416
C32 C 0.12503(16) 0.54503(13) 0.12123(17)
H18 H 0.1249 0.5587 0.0879
C33 C 0.46162(19) 0.63349(18) 0.73224(19)
C34 C 0.16808(16) 0.74008(15) 0.08225(19)
H19 H 0.1976 0.7342 0.0652
C35 C 0.5639(2) 0.6122(2) 0.5761(2)
C36 C 0.51317(17) 0.62261(15) 0.65334(17)
C37 C 0.55288(19) 0.61492(18) 0.68565(18)
C38 C 0.51850(19) 0.62103(16) 0.59809(18)
C39 C 0.4794(2) 0.6292(3) 0.5654(2)
C40 C 0.46850(19) 0.63193(17) 0.67529(18)
C41 C 0.53525(19) 0.61980(19) 0.43083(18)
C42 C 0.5955(2) 0.6055(3) 0.6644(2)
H20 H 0.6220 0.5997 0.6868
C43 C 0.5700(3) 0.6123(2) 0.5184(2)
C44 C 0.6012(2) 0.6042(2) 0.6077(2)
H21 H 0.6315 0.5977 0.5927
C45 C 0.4311(2) 0.6416(3) 0.6421(2)
H22 H 0.4013 0.6502 0.6566
C46 C 0.4362(2) 0.6390(3) 0.5884(2)
H23 H 0.4093 0.6441 0.5663
C47 C 0.5386(3) 0.58242(19) 0.4045(2)
H24 H 0.5391 0.5567 0.4230
C48 C 0.5347(2) 0.65598(18) 0.4049(2)
H25 H 0.5332 0.6819 0.4230
C49 C 0.5412(2) 0.58404(17) 0.34980(18)
H26 H 0.5442 0.5586 0.3309
C50 C 0.5366(2) 0.65371(17) 0.34925(18)
H27 H 0.5355 0.6790 0.3297
C51 C 0.4851(2) 0.6279(3) 0.5075(2)
C52 C 0.60763(14) 0.64517(12) 0.04206(15)
C53 C 0.63744(14) 0.67963(12) 0.03162(15)
H28 H 0.6244 0.7042 0.0165
C54 C 0.55591(14) 0.64733(13) 0.02832(15)
C55 C 0.62736(15) 0.61024(12) 0.06426(16)
H29 H 0.6073 0.5871 0.0719
C56 C 0.75693(13) 0.63894(13) 0.07795(16)
C57 C 0.68572(14) 0.67764(12) 0.04347(15)
H30 H 0.7058 0.7008 0.0365
C58 C 0.70473(14) 0.64154(13) 0.06566(15)
C59 C 0.67564(14) 0.60772(12) 0.07588(15)
H31 H 0.6886 0.5830 0.0907
C60 C 0.78036(14) 0.67504(13) 0.09754(16)
H32 H 0.7628 0.7001 0.1027
C61 C 0.85405(15) 0.63629(12) 0.10151(16)
H33 H 0.8872 0.6352 0.1095
C62 C 0.83152(15) 0.60042(12) 0.08226(16)
C63 C 0.85784(14) 0.56150(12) 0.07644(16)
C64 C 0.82936(14) 0.67373(12) 0.10937(15)
C65 C 0.85369(14) 0.71228(12) 0.12730(16)
C66 C 0.78234(14) 0.60267(12) 0.07066(15)
H34 H 0.7664 0.5787 0.0575
C67 C 0.90012(15) 0.78425(12) 0.15964(15)
C68 C 0.92065(14) 0.75917(12) 0.12071(15)
H35 H 0.9500 0.7673 0.1047
C69 C 0.89865(14) 0.72280(12) 0.10531(16)
H36 H 0.9135 0.7049 0.0802
C70 C 0.90876(14) 0.48715(12) 0.06510(15)
C71 C 0.85593(14) 0.77272(13) 0.18129(15)
H37 H 0.8419 0.7897 0.2079
C72 C 0.85024(14) 0.53501(12) 0.03351(15)
H38 H 0.8268 0.5423 0.0079
C73 C 0.87539(14) 0.49909(12) 0.02724(15)
C74 C 0.89172(15) 0.54956(12) 0.11388(17)
H40 H 0.8980 0.5673 0.1432
C75 C 0.83286(15) 0.73791(12) 0.16514(16)
H41 H 0.8025 0.7310 0.1796
C76 C 0.91638(15) 0.51245(13) 0.10922(16)
H42 H 0.9384 0.5042 0.1359
C77 C 0.93614(14) 0.44691(12) 0.05947(16)
C78 C 0.92449(14) 0.82298(13) 0.17644(16)
Zn4 Zn 0.96075(2) 0.88043(2) 0.24310(2)
Zn5 Zn 0.03925(2) 0.38043(2) 0.24310(2)
Zn7 Zn 0.03163(2) 0.87606(2) 0.00563(2)
Zn8 Zn 0.96837(2) 0.37606(2) 0.00563(2)
Zn10 Zn 0.99763(2) 0.88777(2) 0.12351(2)
O17 O 0.57149(10) 0.56662(8) 0.22838(11)
O18 O 0.45643(9) 0.66242(8) 0.11008(10)
O19 O 0.54862(9) 0.56481(8) 0.14337(10)
O20 O 0.42376(9) 0.66581(8) 0.02954(10)
O21 O 0.58213(9) 0.66470(8) 0.22368(10)
O22 O 0.45597(9) 0.56739(8) 0.09995(10)
O23 O 0.54841(10) 0.65943(9) 0.14382(10)
O24 O 0.43685(9) 0.57001(8) 0.01376(10)
H39 H 0.8701 0.4821 0.9969
O1_2 O 0.42851(10) 0.06662(8) 0.22838(11)
O8_2 O 0.45138(9) 0.06481(8) 0.14337(10)
C1_2 C 0.42899(14) 0.05096(12) 0.18211(16)
C2_2 C 0.40075(14) 0.01211(13) 0.17531(16)
H1_2 H 0.4161 0.0027 0.0981
H2_2 H 0.3781 0.0076 0.2511
Zn5_2 Zn 0.46075(2) 0.11957(2) 0.24310(2)
Zn11 Zn 0.49763(2) 0.11223(2) 0.12351(2)
O2_2 O 0.03320(10) 0.83073(10) 0.25421(12)
O3_2 O 0.02323(9) 0.88729(8) 0.20618(10)
O5_2 O 0.07591(13) 0.85765(14) 0.75405(12)
O10_2 O 0.04818(17) 0.8660(2) 0.47792(16)
N1_2 N 0.02052(11) 0.87460(10) 0.92699(12)
C3_2 C 0.39944(15) 0.99130(12) 0.12751(15)
C4_2 C 0.3767(2) 0.99441(16) 0.21745(19)
C5_2 C 0.19743(15) 0.85802(13) 0.17989(17)
C6_2 C 0.10165(14) 0.85861(13) 0.20839(15)
C7_2 C 0.32169(14) 0.82389(12) 0.13821(16)
C8_2 C 0.27297(14) 0.82364(13) 0.14904(16)
H3_2 H 0.2557 0.7983 0.1453
C9_2 C 0.40060(14) 0.71508(12) 0.09355(16)
C10_2 C 0.34602(14) 0.86126(13) 0.14235(16)
H4_2 H 0.3793 0.8620 0.1345
C11_2 C 0.24887(15) 0.85900(13) 0.16502(16)
C12_2 C 0.32321(15) 0.89778(13) 0.15766(16)
C13_2 C 0.12006(14) 0.89172(13) 0.18158(15)
H5_2 H 0.1002 0.9147 0.1728
C14_2 C 0.00454(15) 0.87520(14) 0.81998(16)
C15_2 C 0.17801(14) 0.82518(13) 0.20767(17)
H6_2 H 0.1976 0.8021 0.2168
C16_2 C 0.13054(15) 0.82529(13) 0.22240(17)
H7_2 H 0.1177 0.8027 0.2420
C17_2 C 0.34977(14) 0.93776(13) 0.16346(17)
C18_2 C 0.05003(15) 0.85787(14) 0.22482(16)
C19_2 C 0.42889(14) 0.67821(12) 0.07598(16)
C20_2 C 0.41594(15) 0.74015(13) 0.13524(16)
H8_2 H 0.4444 0.7333 0.1538
C21_2 C 0.16777(15) 0.89178(14) 0.16716(16)
H9_2 H 0.1806 0.9149 0.1485
C22_2 C 0.39015(15) 0.77478(13) 0.14963(16)
H10_2 H 0.4010 0.7914 0.1783
C23_2 C 0.34803(14) 0.78602(12) 0.12267(16)
C24_2 C 0.27441(15) 0.89614(13) 0.16928(17)
H11_2 H 0.2583 0.9208 0.1803
C25_2 C 0.01859(16) 0.91064(14) 0.89997(16)
H12_2 H 0.0229 0.9361 0.9185
C26_2 C 0.00562(15) 0.83723(14) 0.84763(16)
H13_2 H 0.0005 0.8115 0.8299
C28_2 C 0.35865(16) 0.72516(14) 0.06635(19)
H14_2 H 0.3483 0.7086 0.0373
C29_2 C 0.01052(18) 0.91179(15) 0.84587(18)
H15_2 H 0.0092 0.9376 0.8274
C30_2 C 0.01432(15) 0.83843(13) 0.90140(16)
H16_2 H 0.0159 0.8131 0.9207
C31_2 C 0.3508(2) 0.95824(16) 0.2123(2)
H17_2 H 0.3337 0.9472 0.2416
C32_2 C 0.37497(16) 0.95497(13) 0.12123(17)
H18_2 H 0.3751 0.9413 0.0879
C33_2 C 0.03838(19) 0.86651(18) 0.73224(19)
C34_2 C 0.33192(16) 0.75992(15) 0.08225(19)
H19_2 H 0.3024 0.7658 0.0652
C39_2 C 0.0206(2) 0.8708(3) 0.5654(2)
C40_2 C 0.03150(19) 0.86807(17) 0.67529(18)
C45_2 C 0.0689(2) 0.8584(3) 0.6421(2)
H22_2 H 0.0987 0.8498 0.6566
C46_2 C 0.0638(2) 0.8610(3) 0.5884(2)
H23_2 H 0.0907 0.8559 0.5663
C51_2 C 0.0149(2) 0.8721(3) 0.5075(2)
O22_2 O 0.04403(9) 0.93261(8) 0.09995(10)
O24_2 O 0.06315(9) 0.92999(8) 0.01376(10)
O14_2 O 0.54403(9) 0.06739(8) 0.09995(10)
O16_2 O 0.56315(9) 0.07001(8) 0.01376(10)
C70_2 C 0.59124(14) 0.01285(12) 0.06510(15)
C73_2 C 0.62461(14) 0.00091(12) 0.02724(15)
C77_2 C 0.56386(14) 0.05309(12) 0.05947(16)
Zn8_2 Zn 0.53163(2) 0.12394(2) 0.00563(2)
O4_2 O 0.92040(13) 0.89135(15) 0.77451(13)
O6_2 O 0.89283(18) 0.8959(2) 0.49621(16)
O11_2 O 0.97129(9) 0.88360(8) 0.04457(9)
O12_2 O 0.96052(9) 0.82382(8) 0.00168(11)
N2_2 N 0.99794(13) 0.87456(11) 0.76327(13)
N3_2 N 0.97080(18) 0.88053(14) 0.48826(15)
N4_2 N 0.96021(13) 0.88158(11) 0.32301(12)
C27_2 C 0.95222(19) 0.88395(18) 0.74356(19)
C35_2 C 0.9361(2) 0.8878(2) 0.5761(2)
C36_2 C 0.98683(17) 0.87739(15) 0.65334(17)
C37_2 C 0.94712(19) 0.88508(18) 0.68565(18)
C38_2 C 0.98150(19) 0.87897(16) 0.59809(18)
C41_2 C 0.96475(19) 0.88020(19) 0.43083(18)
C42_2 C 0.9045(2) 0.8945(3) 0.6644(2)
H20_2 H 0.8780 0.9003 0.6868
C43_2 C 0.9300(3) 0.8877(2) 0.5184(2)
C44_2 C 0.8988(2) 0.8958(2) 0.6077(2)
H21_2 H 0.8685 0.9023 0.5927
C47_2 C 0.9614(3) 0.91758(19) 0.4045(2)
H24_2 H 0.9609 0.9433 0.4230
C48_2 C 0.9653(2) 0.84402(18) 0.4049(2)
H25_2 H 0.9668 0.8181 0.4230
C49_2 C 0.9588(2) 0.91596(17) 0.34980(18)
H26_2 H 0.9558 0.9414 0.3309
C50_2 C 0.9634(2) 0.84629(17) 0.34925(18)
H27_2 H 0.9645 0.8210 0.3297
C52_2 C 0.89237(14) 0.85483(12) 0.04206(15)
C53_2 C 0.86256(14) 0.82037(12) 0.03162(15)
H28_2 H 0.8756 0.7958 0.0165
C54_2 C 0.94409(14) 0.85267(13) 0.02832(15)
C55_2 C 0.87264(15) 0.88976(12) 0.06426(16)
H29_2 H 0.8927 0.9129 0.0719
C56_2 C 0.74307(13) 0.86106(13) 0.07795(16)
C57_2 C 0.81428(14) 0.82236(12) 0.04347(15)
H30_2 H 0.7942 0.7992 0.0365
C58_2 C 0.79527(14) 0.85846(13) 0.06566(15)
C59_2 C 0.82436(14) 0.89228(12) 0.07588(15)
H31_2 H 0.8114 0.9170 0.0907
C60_2 C 0.71964(14) 0.82496(13) 0.09754(16)
H32_2 H 0.7372 0.7999 0.1027
C61_2 C 0.64595(15) 0.86371(12) 0.10151(16)
H33_2 H 0.6128 0.8648 0.1095
C62_2 C 0.66848(15) 0.89958(12) 0.08226(16)
C63_2 C 0.64216(14) 0.93850(12) 0.07644(16)
C64_2 C 0.67064(14) 0.82627(12) 0.10937(15)
C65_2 C 0.64631(14) 0.78772(12) 0.12730(16)
C66_2 C 0.71766(14) 0.89733(12) 0.07066(15)
H34_2 H 0.7336 0.9213 0.0575
C67_2 C 0.59988(15) 0.71575(12) 0.15964(15)
C68_2 C 0.57935(14) 0.74083(12) 0.12071(15)
H35_2 H 0.5500 0.7327 0.1047
C69_2 C 0.60135(14) 0.77720(12) 0.10531(16)
H36_2 H 0.5865 0.7951 0.0802
C71_2 C 0.64407(14) 0.72728(13) 0.18129(15)
H37_2 H 0.6581 0.7103 0.2079
C72_2 C 0.64976(14) 0.96499(12) 0.03351(15)
H38_2 H 0.6732 0.9577 0.0079
C74_2 C 0.60828(15) 0.95044(12) 0.11388(17)
H40_2 H 0.6020 0.9327 0.1432
C75_2 C 0.66714(15) 0.76209(12) 0.16514(16)
H41_2 H 0.6975 0.7690 0.1796
C76_2 C 0.58362(15) 0.98755(13) 0.10922(16)
H42_2 H 0.5616 0.9958 0.1359
C78_2 C 0.57551(14) 0.67702(13) 0.17644(16)
O17_2 O 0.92851(10) 0.93338(8) 0.22838(11)
O19_2 O 0.95138(9) 0.93519(8) 0.14337(10)
O2_3 O 0.53320(10) 0.16927(10) 0.25421(12)
O3_3 O 0.52323(9) 0.11271(8) 0.20618(10)
O4_3 O 0.42040(13) 0.10865(15) 0.77451(13)
O5_3 O 0.57591(13) 0.14235(14) 0.75405(12)
O6_3 O 0.39283(18) 0.1041(2) 0.49621(16)
O7_2 O 0.95643(9) 0.33758(8) 0.11008(10)
O9_2 O 0.92376(9) 0.33419(8) 0.02954(10)
O10_3 O 0.54818(17) 0.1340(2) 0.47792(16)
O11_3 O 0.47129(9) 0.11640(8) 0.04457(9)
O12_3 O 0.46052(9) 0.17618(8) 0.00168(11)
O13_2 O 0.08213(9) 0.33530(8) 0.22368(10)
O15_2 O 0.04841(10) 0.34057(9) 0.14382(10)
N1_3 N 0.52052(11) 0.12540(10) 0.92699(12)
N2_3 N 0.49794(13) 0.12544(11) 0.76327(13)
N3_3 N 0.47080(18) 0.11947(14) 0.48826(15)
N4_3 N 0.46021(13) 0.11842(11) 0.32301(12)
C3_3 C 0.89944(15) 0.00870(12) 0.12751(15)
C4_3 C 0.8767(2) 0.00559(16) 0.21745(19)
C5_3 C 0.69743(15) 0.14198(13) 0.17989(17)
C6_3 C 0.60165(14) 0.14139(13) 0.20839(15)
C7_3 C 0.82169(14) 0.17611(12) 0.13821(16)
C8_3 C 0.77297(14) 0.17636(13) 0.14904(16)
H3_3 H 0.7557 0.2017 0.1453
C9_3 C 0.90060(14) 0.28492(12) 0.09355(16)
C10_3 C 0.84602(14) 0.13874(13) 0.14235(16)
H4_3 H 0.8793 0.1380 0.1345
C11_3 C 0.74887(15) 0.14100(13) 0.16502(16)
C12_3 C 0.82321(15) 0.10222(13) 0.15766(16)
C13_3 C 0.62006(14) 0.10828(13) 0.18158(15)
H5_3 H 0.6002 0.0853 0.1728
C14_3 C 0.50454(15) 0.12480(14) 0.81998(16)
C15_3 C 0.67801(14) 0.17482(13) 0.20767(17)
H6_3 H 0.6976 0.1979 0.2168
C16_3 C 0.63054(15) 0.17471(13) 0.22240(17)
H7_3 H 0.6177 0.1973 0.2420
C17_3 C 0.84977(14) 0.06224(13) 0.16346(17)
C18_3 C 0.55003(15) 0.14213(14) 0.22482(16)
C19_3 C 0.92889(14) 0.32179(12) 0.07598(16)
C20_3 C 0.91594(15) 0.25985(13) 0.13524(16)
H8_3 H 0.9444 0.2667 0.1538
C21_3 C 0.66777(15) 0.10822(14) 0.16716(16)
H9_3 H 0.6806 0.0851 0.1485
C22_3 C 0.89015(15) 0.22522(13) 0.14963(16)
H10_3 H 0.9010 0.2086 0.1783
C23_3 C 0.84803(14) 0.21398(12) 0.12267(16)
C24_3 C 0.77441(15) 0.10386(13) 0.16928(17)
H11_3 H 0.7583 0.0792 0.1803
C25_3 C 0.51859(16) 0.08936(14) 0.89997(16)
H12_3 H 0.5229 0.0639 0.9185
C26_3 C 0.50562(15) 0.16277(14) 0.84763(16)
H13_3 H 0.5005 0.1885 0.8299
C27_3 C 0.45222(19) 0.11605(18) 0.74356(19)
C28_3 C 0.85865(16) 0.27484(14) 0.06635(19)
H14_3 H 0.8483 0.2914 0.0373
C29_3 C 0.51052(18) 0.08821(15) 0.84587(18)
H15_3 H 0.5092 0.0624 0.8274
C30_3 C 0.51432(15) 0.16157(13) 0.90140(16)
H16_3 H 0.5159 0.1869 0.9207
C31_3 C 0.8508(2) 0.04176(16) 0.2123(2)
H17_3 H 0.8337 0.0528 0.2416
C32_3 C 0.87497(16) 0.04503(13) 0.12123(17)
H18_3 H 0.8751 0.0587 0.0879
C33_3 C 0.53838(19) 0.13349(18) 0.73224(19)
C34_3 C 0.83192(16) 0.24008(15) 0.08225(19)
H19_3 H 0.8024 0.2342 0.0652
C35_3 C 0.4361(2) 0.1122(2) 0.5761(2)
C36_3 C 0.48683(17) 0.12261(15) 0.65334(17)
C37_3 C 0.44712(19) 0.11492(18) 0.68565(18)
C38_3 C 0.48150(19) 0.12103(16) 0.59809(18)
C39_3 C 0.5206(2) 0.1292(3) 0.5654(2)
C40_3 C 0.53150(19) 0.13193(17) 0.67529(18)
C41_3 C 0.46475(19) 0.11980(19) 0.43083(18)
C42_3 C 0.4045(2) 0.1055(3) 0.6644(2)
H20_3 H 0.3780 0.0997 0.6868
C43_3 C 0.4300(3) 0.1123(2) 0.5184(2)
C44_3 C 0.3988(2) 0.1042(2) 0.6077(2)
H21_3 H 0.3685 0.0977 0.5927
C45_3 C 0.5689(2) 0.1416(3) 0.6421(2)
H22_3 H 0.5987 0.1502 0.6566
C46_3 C 0.5638(2) 0.1390(3) 0.5884(2)
H23_3 H 0.5907 0.1441 0.5663
C47_3 C 0.4614(3) 0.08242(19) 0.4045(2)
H24_3 H 0.4609 0.0567 0.4230
C48_3 C 0.4653(2) 0.15598(18) 0.4049(2)
H25_3 H 0.4668 0.1819 0.4230
C49_3 C 0.4588(2) 0.08404(17) 0.34980(18)
H26_3 H 0.4558 0.0586 0.3309
C50_3 C 0.4634(2) 0.15371(17) 0.34925(18)
H27_3 H 0.4645 0.1790 0.3297
C51_3 C 0.5149(2) 0.1279(3) 0.5075(2)
C52_3 C 0.39237(14) 0.14517(12) 0.04206(15)
C53_3 C 0.36256(14) 0.17963(12) 0.03162(15)
H28_3 H 0.3756 0.2042 0.0165
C54_3 C 0.44409(14) 0.14733(13) 0.02832(15)
C55_3 C 0.37264(15) 0.11024(12) 0.06426(16)
H29_3 H 0.3927 0.0871 0.0719
C56_3 C 0.24307(13) 0.13894(13) 0.07795(16)
C57_3 C 0.31428(14) 0.17764(12) 0.04347(15)
H30_3 H 0.2942 0.2008 0.0365
C58_3 C 0.29527(14) 0.14154(13) 0.06566(15)
C59_3 C 0.32436(14) 0.10772(12) 0.07588(15)
H31_3 H 0.3114 0.0830 0.0907
C60_3 C 0.21964(14) 0.17504(13) 0.09754(16)
H32_3 H 0.2372 0.2001 0.1027
C61_3 C 0.14595(15) 0.13629(12) 0.10151(16)
H33_3 H 0.1128 0.1352 0.1095
C62_3 C 0.16848(15) 0.10042(12) 0.08226(16)
C63_3 C 0.14216(14) 0.06150(12) 0.07644(16)
C64_3 C 0.17064(14) 0.17373(12) 0.10937(15)
C65_3 C 0.14631(14) 0.21228(12) 0.12730(16)
C66_3 C 0.21766(14) 0.10267(12) 0.07066(15)
H34_3 H 0.2336 0.0787 0.0575
C67_3 C 0.09988(15) 0.28425(12) 0.15964(15)
C68_3 C 0.07935(14) 0.25917(12) 0.12071(15)
H35_3 H 0.0500 0.2673 0.1047
C69_3 C 0.10135(14) 0.22280(12) 0.10531(16)
H36_3 H 0.0865 0.2049 0.0802
C71_3 C 0.14407(14) 0.27272(13) 0.18129(15)
H37_3 H 0.1581 0.2897 0.2079
C72_3 C 0.14976(14) 0.03501(12) 0.03351(15)
H38_3 H 0.1732 0.0423 0.0079
C74_3 C 0.10828(15) 0.04956(12) 0.11388(17)
H40_3 H 0.1020 0.0673 0.1432
C75_3 C 0.16714(15) 0.23791(12) 0.16514(16)
H41_3 H 0.1975 0.2310 0.1796
C76_3 C 0.08362(15) 0.01245(13) 0.10922(16)
H42_3 H 0.0616 0.0042 0.1359
C78_3 C 0.07551(14) 0.32298(13) 0.17644(16)
O18_2 O 0.54357(9) 0.16242(8) 0.11008(10)
O20_2 O 0.57624(9) 0.16581(8) 0.02954(10)
O21_2 O 0.41787(9) 0.16470(8) 0.22368(10)
O23_2 O 0.45159(10) 0.15943(9) 0.14382(10)
C1_3 C 0.92899(14) 0.94904(12) 0.18211(16)
C2_3 C 0.90075(14) 0.98789(13) 0.17531(16)
H1_3 H 0.9161 0.9973 0.0981
H2_3 H 0.8781 0.9924 0.2511
C70_3 C 0.09124(14) 0.98715(12) 0.06510(15)
C73_3 C 0.12461(14) 0.99909(12) 0.02724(15)
C77_3 C 0.06386(14) 0.94691(12) 0.05947(16)
O4_4 O 0.07960(13) 0.39135(15) 0.77451(13)
O6_4 O 0.10717(18) 0.3959(2) 0.49621(16)
O11_4 O 0.02871(9) 0.38360(8) 0.04457(9)
O12_4 O 0.03948(9) 0.32382(8) 0.00168(11)
N2_4 N 0.00206(13) 0.37456(11) 0.76327(13)
N3_4 N 0.02920(18) 0.38053(14) 0.48826(15)
N4_4 N 0.03979(13) 0.38158(11) 0.32301(12)
C27_4 C 0.04778(19) 0.38395(18) 0.74356(19)
C35_4 C 0.0639(2) 0.3878(2) 0.5761(2)
C36_4 C 0.01317(17) 0.37739(15) 0.65334(17)
C37_4 C 0.05288(19) 0.38508(18) 0.68565(18)
C38_4 C 0.01850(19) 0.37897(16) 0.59809(18)
C41_4 C 0.03525(19) 0.38020(19) 0.43083(18)
C42_4 C 0.0955(2) 0.3945(3) 0.6644(2)
H20_4 H 0.1220 0.4003 0.6868
C43_4 C 0.0700(3) 0.3877(2) 0.5184(2)
C44_4 C 0.1012(2) 0.3958(2) 0.6077(2)
H21_4 H 0.1315 0.4023 0.5927
C47_4 C 0.0386(3) 0.41758(19) 0.4045(2)
H24_4 H 0.0391 0.4433 0.4230
C48_4 C 0.0347(2) 0.34402(18) 0.4049(2)
H25_4 H 0.0332 0.3181 0.4230
C49_4 C 0.0412(2) 0.41596(17) 0.34980(18)
H26_4 H 0.0442 0.4414 0.3309
C50_4 C 0.0366(2) 0.34629(17) 0.34925(18)
H27_4 H 0.0355 0.3210 0.3297
C52_4 C 0.10763(14) 0.35483(12) 0.04206(15)
C53_4 C 0.13744(14) 0.32037(12) 0.03162(15)
H28_4 H 0.1244 0.2958 0.0165
C54_4 C 0.05591(14) 0.35267(13) 0.02832(15)
C55_4 C 0.12736(15) 0.38976(12) 0.06426(16)
H29_4 H 0.1073 0.4129 0.0719
C56_4 C 0.25693(13) 0.36106(13) 0.07795(16)
C57_4 C 0.18572(14) 0.32236(12) 0.04347(15)
H30_4 H 0.2058 0.2992 0.0365
C58_4 C 0.20473(14) 0.35846(13) 0.06566(15)
C59_4 C 0.17564(14) 0.39228(12) 0.07588(15)
H31_4 H 0.1886 0.4170 0.0907
C60_4 C 0.28036(14) 0.32496(13) 0.09754(16)
H32_4 H 0.2628 0.2999 0.1027
C61_4 C 0.35405(15) 0.36371(12) 0.10151(16)
H33_4 H 0.3872 0.3648 0.1095
C62_4 C 0.33152(15) 0.39958(12) 0.08226(16)
C63_4 C 0.35784(14) 0.43850(12) 0.07644(16)
C64_4 C 0.32936(14) 0.32627(12) 0.10937(15)
C65_4 C 0.35369(14) 0.28772(12) 0.12730(16)
C66_4 C 0.28234(14) 0.39733(12) 0.07066(15)
H34_4 H 0.2664 0.4213 0.0575
C67_4 C 0.40012(15) 0.21575(12) 0.15964(15)
C68_4 C 0.42065(14) 0.24083(12) 0.12071(15)
H35_4 H 0.4500 0.2327 0.1047
C69_4 C 0.39865(14) 0.27720(12) 0.10531(16)
H36_4 H 0.4135 0.2951 0.0802
C70_4 C 0.40876(14) 0.51285(12) 0.06510(15)
C71_4 C 0.35593(14) 0.22728(13) 0.18129(15)
H37_4 H 0.3419 0.2103 0.2079
C72_4 C 0.35024(14) 0.46499(12) 0.03351(15)
H38_4 H 0.3268 0.4577 0.0079
C73_4 C 0.37539(14) 0.50091(12) 0.02724(15)
C74_4 C 0.39172(15) 0.45044(12) 0.11388(17)
H40_4 H 0.3980 0.4327 0.1432
C75_4 C 0.33286(15) 0.26209(12) 0.16514(16)
H41_4 H 0.3025 0.2690 0.1796
C76_4 C 0.41638(15) 0.48755(13) 0.10922(16)
H42_4 H 0.4384 0.4958 0.1359
C77_4 C 0.43614(14) 0.55309(12) 0.05947(16)
C78_4 C 0.42449(14) 0.17702(13) 0.17644(16)
O2_4 O 0.96680(10) 0.33073(10) 0.25421(12)
O3_4 O 0.97677(9) 0.38729(8) 0.20618(10)
O5_4 O 0.92409(13) 0.35765(14) 0.75405(12)
O10_4 O 0.95182(17) 0.3660(2) 0.47792(16)
N1_4 N 0.97948(11) 0.37460(10) 0.92699(12)
C1_4 C 0.57101(14) 0.55096(12) 0.18211(16)
C2_4 C 0.59925(14) 0.51211(13) 0.17531(16)
C3_4 C 0.60056(15) 0.49130(12) 0.12751(15)
H1_4 H 0.5839 0.5027 0.0981
C4_4 C 0.6233(2) 0.49441(16) 0.21745(19)
H2_4 H 0.6219 0.5076 0.2511
C5_4 C 0.80257(15) 0.35802(13) 0.17989(17)
C6_4 C 0.89835(14) 0.35861(13) 0.20839(15)
C7_4 C 0.67831(14) 0.32389(12) 0.13821(16)
C8_4 C 0.72703(14) 0.32364(13) 0.14904(16)
H3_4 H 0.7443 0.2983 0.1453
C9_4 C 0.59940(14) 0.21508(12) 0.09355(16)
C10_4 C 0.65398(14) 0.36126(13) 0.14235(16)
H4_4 H 0.6207 0.3620 0.1345
C11_4 C 0.75113(15) 0.35900(13) 0.16502(16)
C12_4 C 0.67679(15) 0.39778(13) 0.15766(16)
C13_4 C 0.87994(14) 0.39172(13) 0.18158(15)
H5_4 H 0.8998 0.4147 0.1728
C14_4 C 0.99546(15) 0.37520(14) 0.81998(16)
C15_4 C 0.82199(14) 0.32518(13) 0.20767(17)
H6_4 H 0.8024 0.3021 0.2168
C16_4 C 0.86946(15) 0.32529(13) 0.22240(17)
H7_4 H 0.8823 0.3027 0.2420
C17_4 C 0.65023(14) 0.43776(13) 0.16346(17)
C18_4 C 0.94997(15) 0.35787(14) 0.22482(16)
C19_4 C 0.57111(14) 0.17821(12) 0.07598(16)
C20_4 C 0.58406(15) 0.24015(13) 0.13524(16)
H8_4 H 0.5556 0.2333 0.1538
C21_4 C 0.83223(15) 0.39178(14) 0.16716(16)
H9_4 H 0.8194 0.4149 0.1485
C22_4 C 0.60985(15) 0.27478(13) 0.14963(16)
H10_4 H 0.5990 0.2914 0.1783
C23_4 C 0.65197(14) 0.28602(12) 0.12267(16)
C24_4 C 0.72559(15) 0.39614(13) 0.16928(17)
H11_4 H 0.7417 0.4208 0.1803
C25_4 C 0.98141(16) 0.41064(14) 0.89997(16)
H12_4 H 0.9771 0.4361 0.9185
C26_4 C 0.99438(15) 0.33723(14) 0.84763(16)
H13_4 H 0.9995 0.3115 0.8299
C28_4 C 0.64135(16) 0.22516(14) 0.06635(19)
H14_4 H 0.6517 0.2086 0.0373
C29_4 C 0.98948(18) 0.41179(15) 0.84587(18)
H15_4 H 0.9908 0.4376 0.8274
C30_4 C 0.98568(15) 0.33843(13) 0.90140(16)
H16_4 H 0.9841 0.3131 0.9207
C31_4 C 0.6492(2) 0.45824(16) 0.2123(2)
H17_4 H 0.6663 0.4472 0.2416
C32_4 C 0.62503(16) 0.45497(13) 0.12123(17)
H18_4 H 0.6249 0.4413 0.0879
C33_4 C 0.96162(19) 0.36651(18) 0.73224(19)
C34_4 C 0.66808(16) 0.25992(15) 0.08225(19)
H19_4 H 0.6976 0.2658 0.0652
C39_4 C 0.9794(2) 0.3708(3) 0.5654(2)
C40_4 C 0.96850(19) 0.36807(17) 0.67529(18)
C45_4 C 0.9311(2) 0.3584(3) 0.6421(2)
H22_4 H 0.9013 0.3498 0.6566
C46_4 C 0.9362(2) 0.3610(3) 0.5884(2)
H23_4 H 0.9093 0.3559 0.5663
C51_4 C 0.9851(2) 0.3721(3) 0.5075(2)
H39_2 H 0.6299 0.0179 0.9969
Zn12_2 Zn 0.00237(2) 0.11223(2) 0.87649(2)
O1_3 O 0.07149(10) 0.06662(8) 0.77162(11)
O8_3 O 0.04862(9) 0.06481(8) 0.85663(10)
O14_3 O 0.95597(9) 0.06739(8) 0.90005(10)
O16_3 O 0.93685(9) 0.07001(8) 0.98624(10)
C1_5 C 0.07101(14) 0.05096(12) 0.81789(16)
C2_5 C 0.09925(14) 0.01211(13) 0.82469(16)
H1_5 H 0.0839 0.0027 0.9019
H2_5 H 0.1219 0.0076 0.7489
C70_5 C 0.90876(14) 0.01285(12) 0.93490(15)
C73_5 C 0.87539(14) 0.00091(12) 0.97276(15)
C77_5 C 0.93614(14) 0.05309(12) 0.94053(16)
Zn5_3 Zn 0.03925(2) 0.11957(2) 0.75690(2)
Zn8_3 Zn 0.96837(2) 0.12394(2) 0.99437(2)
N5 N 0.47948(11) 0.87460(10) 0.07301(12)
Zn1_2 Zn 0.53925(2) 0.88043(2) 0.75690(2)
Zn2 Zn 0.46837(2) 0.87606(2) 0.99437(2)
Zn3_2 Zn 0.50237(2) 0.88777(2) 0.87649(2)
O2_5 O 0.46680(10) 0.83073(10) 0.74579(12)
O3_5 O 0.47677(9) 0.88729(8) 0.79382(10)
O4_5 O 0.57960(13) 0.89135(15) 0.22549(13)
O5_5 O 0.42409(13) 0.85765(14) 0.24595(12)
O6_5 O 0.60717(18) 0.8959(2) 0.50379(16)
O7_3 O 0.04357(9) 0.66242(8) 0.88992(10)
O9_3 O 0.07624(9) 0.66581(8) 0.97046(10)
O10_5 O 0.45182(17) 0.8660(2) 0.52208(16)
O11_5 O 0.52871(9) 0.88360(8) 0.95543(9)
O12_5 O 0.53948(9) 0.82382(8) 0.99832(11)
O13_3 O 0.91787(9) 0.66470(8) 0.77632(10)
O15_3 O 0.95159(10) 0.65943(9) 0.85618(10)
N2_5 N 0.50206(13) 0.87456(11) 0.23673(13)
N3_5 N 0.52920(18) 0.88053(14) 0.51174(15)
N4_5 N 0.53979(13) 0.88158(11) 0.67699(12)
C3_5 C 0.10056(15) 0.99130(12) 0.87249(15)
C4_5 C 0.1233(2) 0.99441(16) 0.78255(19)
C5_5 C 0.30257(15) 0.85802(13) 0.82011(17)
C6_5 C 0.39835(14) 0.85861(13) 0.79161(15)
C7_5 C 0.17831(14) 0.82389(12) 0.86179(16)
C8_5 C 0.22703(14) 0.82364(13) 0.85096(16)
H3_5 H 0.2443 0.7983 0.8547
C9_5 C 0.09940(14) 0.71508(12) 0.90645(16)
C10_5 C 0.15398(14) 0.86126(13) 0.85765(16)
H4_5 H 0.1207 0.8620 0.8655
C11_5 C 0.25113(15) 0.85900(13) 0.83498(16)
C12_5 C 0.17679(15) 0.89778(13) 0.84234(16)
C13_5 C 0.37994(14) 0.89172(13) 0.81842(15)
H5_5 H 0.3998 0.9147 0.8272
C14_5 C 0.49546(15) 0.87520(14) 0.18002(16)
C15_5 C 0.32199(14) 0.82518(13) 0.79233(17)
H6_5 H 0.3024 0.8021 0.7832
C16_5 C 0.36946(15) 0.82529(13) 0.77760(17)
H7_5 H 0.3823 0.8027 0.7580
C17_5 C 0.15023(14) 0.93776(13) 0.83654(17)
C18_5 C 0.44997(15) 0.85787(14) 0.77518(16)
C19_5 C 0.07111(14) 0.67821(12) 0.92402(16)
C20_5 C 0.08406(15) 0.74015(13) 0.86476(16)
H8_5 H 0.0556 0.7333 0.8462
C21_5 C 0.33223(15) 0.89178(14) 0.83284(16)
H9_5 H 0.3194 0.9149 0.8515
C22_5 C 0.10985(15) 0.77478(13) 0.85037(16)
H10_5 H 0.0990 0.7914 0.8217
C23_5 C 0.15197(14) 0.78602(12) 0.87733(16)
C24_5 C 0.22559(15) 0.89614(13) 0.83072(17)
H11_5 H 0.2417 0.9208 0.8197
C25_5 C 0.48141(16) 0.91064(14) 0.10003(16)
H12_5 H 0.4771 0.9361 0.0815
C26_5 C 0.49438(15) 0.83723(14) 0.15237(16)
H13_5 H 0.4995 0.8115 0.1701
C27_5 C 0.54778(19) 0.88395(18) 0.25644(19)
C28_5 C 0.14135(16) 0.72516(14) 0.93365(19)
H14_5 H 0.1517 0.7086 0.9627
C29_5 C 0.48948(18) 0.91179(15) 0.15413(18)
H15_5 H 0.4908 0.9376 0.1726
C30_5 C 0.48568(15) 0.83843(13) 0.09860(16)
H16_5 H 0.4841 0.8131 0.0793
C31_5 C 0.1492(2) 0.95824(16) 0.7877(2)
H17_5 H 0.1663 0.9472 0.7584
C32_5 C 0.12503(16) 0.95497(13) 0.87877(17)
H18_5 H 0.1249 0.9413 0.9121
C33_5 C 0.46162(19) 0.86651(18) 0.26776(19)
C34_5 C 0.16808(16) 0.75992(15) 0.91775(19)
H19_5 H 0.1976 0.7658 0.9348
C35_5 C 0.5639(2) 0.8878(2) 0.4239(2)
C36_5 C 0.51317(17) 0.87739(15) 0.34666(17)
C37_5 C 0.55288(19) 0.88508(18) 0.31435(18)
C38_5 C 0.51850(19) 0.87897(16) 0.40191(18)
C39_5 C 0.4794(2) 0.8708(3) 0.4346(2)
C40_5 C 0.46850(19) 0.86807(17) 0.32471(18)
C41_5 C 0.53525(19) 0.88020(19) 0.56917(18)
C42_5 C 0.5955(2) 0.8945(3) 0.3356(2)
H20_5 H 0.6220 0.9003 0.3132
C43_5 C 0.5700(3) 0.8877(2) 0.4816(2)
C44_5 C 0.6012(2) 0.8958(2) 0.3923(2)
H21_5 H 0.6315 0.9023 0.4073
C45_5 C 0.4311(2) 0.8584(3) 0.3579(2)
H22_5 H 0.4013 0.8498 0.3434
C46_5 C 0.4362(2) 0.8610(3) 0.4116(2)
H23_5 H 0.4093 0.8559 0.4337
C47_5 C 0.5386(3) 0.91758(19) 0.5955(2)
H24_5 H 0.5391 0.9433 0.5770
C48_5 C 0.5347(2) 0.84402(18) 0.5951(2)
H25_5 H 0.5332 0.8181 0.5770
C49_5 C 0.5412(2) 0.91596(17) 0.65020(18)
H26_5 H 0.5442 0.9414 0.6691
C50_5 C 0.5366(2) 0.84629(17) 0.65075(18)
H27_5 H 0.5355 0.8210 0.6703
C51_5 C 0.4851(2) 0.8721(3) 0.4925(2)
C52_5 C 0.60763(14) 0.85483(12) 0.95794(15)
C53_5 C 0.63744(14) 0.82037(12) 0.96838(15)
H28_5 H 0.6244 0.7958 0.9835
C54_5 C 0.55591(14) 0.85267(13) 0.97168(15)
C55_5 C 0.62736(15) 0.88976(12) 0.93574(16)
H29_5 H 0.6073 0.9129 0.9281
C56_5 C 0.75693(13) 0.86106(13) 0.92205(16)
C57_5 C 0.68572(14) 0.82236(12) 0.95653(15)
H30_5 H 0.7058 0.7992 0.9635
C58_5 C 0.70473(14) 0.85846(13) 0.93434(15)
C59_5 C 0.67564(14) 0.89228(12) 0.92412(15)
H31_5 H 0.6886 0.9170 0.9093
C60_5 C 0.78036(14) 0.82496(13) 0.90246(16)
H32_5 H 0.7628 0.7999 0.8973
C61_5 C 0.85405(15) 0.86371(12) 0.89849(16)
H33_5 H 0.8872 0.8648 0.8905
C62_5 C 0.83152(15) 0.89958(12) 0.91774(16)
C63_5 C 0.85784(14) 0.93850(12) 0.92356(16)
C64_5 C 0.82936(14) 0.82627(12) 0.89063(15)
C65_5 C 0.85369(14) 0.78772(12) 0.87270(16)
C66_5 C 0.78234(14) 0.89733(12) 0.92934(15)
H34_5 H 0.7664 0.9213 0.9425
C67_5 C 0.90012(15) 0.71575(12) 0.84036(15)
C68_5 C 0.92065(14) 0.74083(12) 0.87929(15)
H35_5 H 0.9500 0.7327 0.8953
C69_5 C 0.89865(14) 0.77720(12) 0.89469(16)
H36_5 H 0.9135 0.7951 0.9198
C71_5 C 0.85593(14) 0.72728(13) 0.81871(15)
H37_5 H 0.8419 0.7103 0.7921
C72_5 C 0.85024(14) 0.96499(12) 0.96649(15)
H38_5 H 0.8268 0.9577 0.9921
C74_5 C 0.89172(15) 0.95044(12) 0.88612(17)
H40_5 H 0.8980 0.9327 0.8568
C75_5 C 0.83286(15) 0.76209(12) 0.83486(16)
H41_5 H 0.8025 0.7690 0.8204
C76_5 C 0.91638(15) 0.98755(13) 0.89078(16)
H42_5 H 0.9384 0.9958 0.8641
C78_5 C 0.92449(14) 0.67702(13) 0.82356(16)
Zn4_2 Zn 0.96075(2) 0.61957(2) 0.75690(2)
Zn7_2 Zn 0.03163(2) 0.62394(2) 0.99437(2)
Zn10_2 Zn 0.99763(2) 0.61223(2) 0.87649(2)
O17_3 O 0.57149(10) 0.93338(8) 0.77162(11)
O18_3 O 0.45643(9) 0.83758(8) 0.88992(10)
O19_3 O 0.54862(9) 0.93519(8) 0.85663(10)
O20_3 O 0.42376(9) 0.83419(8) 0.97046(10)
O21_3 O 0.58213(9) 0.83530(8) 0.77632(10)
O22_3 O 0.45597(9) 0.93261(8) 0.90005(10)
O23_3 O 0.54841(10) 0.84057(9) 0.85618(10)
O24_3 O 0.43685(9) 0.92999(8) 0.98624(10)
N5_2 N 0.02052(11) 0.62540(10) 0.07301(12)
O1_4 O 0.42851(10) 0.43338(8) 0.77162(11)
O2_6 O 0.03320(10) 0.66927(10) 0.74579(12)
O3_6 O 0.02323(9) 0.61271(8) 0.79382(10)
O5_6 O 0.07591(13) 0.64235(14) 0.24595(12)
O8_4 O 0.45138(9) 0.43519(8) 0.85663(10)
O10_6 O 0.04818(17) 0.6340(2) 0.52208(16)
C1_6 C 0.42899(14) 0.44904(12) 0.81789(16)
C2_6 C 0.40075(14) 0.48789(13) 0.82469(16)
C3_6 C 0.39944(15) 0.50870(12) 0.87249(15)
H1_6 H 0.4161 0.4973 0.9019
C4_6 C 0.3767(2) 0.50559(16) 0.78255(19)
H2_6 H 0.3781 0.4924 0.7489
C5_6 C 0.19743(15) 0.64198(13) 0.82011(17)
C6_6 C 0.10165(14) 0.64139(13) 0.79161(15)
C7_6 C 0.32169(14) 0.67611(12) 0.86179(16)
C8_6 C 0.27297(14) 0.67636(13) 0.85096(16)
H3_6 H 0.2557 0.7017 0.8547
C9_6 C 0.40060(14) 0.78492(12) 0.90645(16)
C10_6 C 0.34602(14) 0.63874(13) 0.85765(16)
H4_6 H 0.3793 0.6380 0.8655
C11_6 C 0.24887(15) 0.64100(13) 0.83498(16)
C12_6 C 0.32321(15) 0.60222(13) 0.84234(16)
C13_6 C 0.12006(14) 0.60828(13) 0.81842(15)
H5_6 H 0.1002 0.5853 0.8272
C14_6 C 0.00454(15) 0.62480(14) 0.18002(16)
C15_6 C 0.17801(14) 0.67482(13) 0.79233(17)
H6_6 H 0.1976 0.6979 0.7832
C16_6 C 0.13054(15) 0.67471(13) 0.77760(17)
H7_6 H 0.1177 0.6973 0.7580
C17_6 C 0.34977(14) 0.56224(13) 0.83654(17)
C18_6 C 0.05003(15) 0.64213(14) 0.77518(16)
C19_6 C 0.42889(14) 0.82179(12) 0.92402(16)
C20_6 C 0.41594(15) 0.75985(13) 0.86476(16)
H8_6 H 0.4444 0.7667 0.8462
C21_6 C 0.16777(15) 0.60822(14) 0.83284(16)
H9_6 H 0.1806 0.5851 0.8515
C22_6 C 0.39015(15) 0.72522(13) 0.85037(16)
H10_6 H 0.4010 0.7086 0.8217
C23_6 C 0.34803(14) 0.71398(12) 0.87733(16)
C24_6 C 0.27441(15) 0.60386(13) 0.83072(17)
H11_6 H 0.2583 0.5792 0.8197
C25_6 C 0.01859(16) 0.58936(14) 0.10003(16)
H12_6 H 0.0229 0.5639 0.0815
C26_6 C 0.00562(15) 0.66277(14) 0.15237(16)
H13_6 H 0.0005 0.6885 0.1701
C28_6 C 0.35865(16) 0.77484(14) 0.93365(19)
H14_6 H 0.3483 0.7914 0.9627
C29_6 C 0.01052(18) 0.58821(15) 0.15413(18)
H15_6 H 0.0092 0.5624 0.1726
C30_6 C 0.01432(15) 0.66157(13) 0.09860(16)
H16_6 H 0.0159 0.6869 0.0793
C31_6 C 0.3508(2) 0.54176(16) 0.7877(2)
H17_6 H 0.3337 0.5528 0.7584
C32_6 C 0.37497(16) 0.54503(13) 0.87877(17)
H18_6 H 0.3751 0.5587 0.9121
C33_6 C 0.03838(19) 0.63349(18) 0.26776(19)
C34_6 C 0.33192(16) 0.74008(15) 0.91775(19)
H19_6 H 0.3024 0.7342 0.9348
C39_6 C 0.0206(2) 0.6292(3) 0.4346(2)
C40_6 C 0.03150(19) 0.63193(17) 0.32471(18)
C45_6 C 0.0689(2) 0.6416(3) 0.3579(2)
H22_6 H 0.0987 0.6502 0.3434
C46_6 C 0.0638(2) 0.6390(3) 0.4116(2)
H23_6 H 0.0907 0.6441 0.4337
C51_6 C 0.0149(2) 0.6279(3) 0.4925(2)
Zn5_4 Zn 0.46075(2) 0.38043(2) 0.75690(2)
Zn11_2 Zn 0.49763(2) 0.38777(2) 0.87649(2)
O22_4 O 0.04403(9) 0.56739(8) 0.90005(10)
O24_4 O 0.06315(9) 0.57001(8) 0.98624(10)
O4_6 O 0.92040(13) 0.60865(15) 0.22549(13)
O6_6 O 0.89283(18) 0.6041(2) 0.50379(16)
O11_6 O 0.97129(9) 0.61640(8) 0.95543(9)
O12_6 O 0.96052(9) 0.67618(8) 0.99832(11)
O14_4 O 0.54403(9) 0.43261(8) 0.90005(10)
O16_4 O 0.56315(9) 0.42999(8) 0.98624(10)
N2_6 N 0.99794(13) 0.62544(11) 0.23673(13)
N3_6 N 0.97080(18) 0.61947(14) 0.51174(15)
N4_6 N 0.96021(13) 0.61842(11) 0.67699(12)
C27_6 C 0.95222(19) 0.61605(18) 0.25644(19)
C35_6 C 0.9361(2) 0.6122(2) 0.4239(2)
C36_6 C 0.98683(17) 0.62261(15) 0.34666(17)
C37_6 C 0.94712(19) 0.61492(18) 0.31435(18)
C38_6 C 0.98150(19) 0.62103(16) 0.40191(18)
C41_6 C 0.96475(19) 0.61980(19) 0.56917(18)
C42_6 C 0.9045(2) 0.6055(3) 0.3356(2)
H20_6 H 0.8780 0.5997 0.3132
C43_6 C 0.9300(3) 0.6123(2) 0.4816(2)
C44_6 C 0.8988(2) 0.6042(2) 0.3923(2)
H21_6 H 0.8685 0.5977 0.4073
C47_6 C 0.9614(3) 0.58242(19) 0.5955(2)
H24_6 H 0.9609 0.5567 0.5770
C48_6 C 0.9653(2) 0.65598(18) 0.5951(2)
H25_6 H 0.9668 0.6819 0.5770
C49_6 C 0.9588(2) 0.58404(17) 0.65020(18)
H26_6 H 0.9558 0.5586 0.6691
C50_6 C 0.9634(2) 0.65371(17) 0.65075(18)
H27_6 H 0.9645 0.6790 0.6703
C52_6 C 0.89237(14) 0.64517(12) 0.95794(15)
C53_6 C 0.86256(14) 0.67963(12) 0.96838(15)
H28_6 H 0.8756 0.7042 0.9835
C54_6 C 0.94409(14) 0.64733(13) 0.97168(15)
C55_6 C 0.87264(15) 0.61024(12) 0.93574(16)
H29_6 H 0.8927 0.5871 0.9281
C56_6 C 0.74307(13) 0.63894(13) 0.92205(16)
C57_6 C 0.81428(14) 0.67764(12) 0.95653(15)
H30_6 H 0.7942 0.7008 0.9635
C58_6 C 0.79527(14) 0.64154(13) 0.93434(15)
C59_6 C 0.82436(14) 0.60772(12) 0.92412(15)
H31_6 H 0.8114 0.5830 0.9093
C60_6 C 0.71964(14) 0.67504(13) 0.90246(16)
H32_6 H 0.7372 0.7001 0.8973
C61_6 C 0.64595(15) 0.63629(12) 0.89849(16)
H33_6 H 0.6128 0.6352 0.8905
C62_6 C 0.66848(15) 0.60042(12) 0.91774(16)
C63_6 C 0.64216(14) 0.56150(12) 0.92356(16)
C64_6 C 0.67064(14) 0.67373(12) 0.89063(15)
C65_6 C 0.64631(14) 0.71228(12) 0.87270(16)
C66_6 C 0.71766(14) 0.60267(12) 0.92934(15)
H34_6 H 0.7336 0.5787 0.9425
C67_6 C 0.59988(15) 0.78425(12) 0.84036(15)
C68_6 C 0.57935(14) 0.75917(12) 0.87929(15)
H35_6 H 0.5500 0.7673 0.8953
C69_6 C 0.60135(14) 0.72280(12) 0.89469(16)
H36_6 H 0.5865 0.7049 0.9198
C70_6 C 0.59124(14) 0.48715(12) 0.93490(15)
C71_6 C 0.64407(14) 0.77272(13) 0.81871(15)
H37_6 H 0.6581 0.7897 0.7921
C72_6 C 0.64976(14) 0.53501(12) 0.96649(15)
H38_6 H 0.6732 0.5423 0.9921
C73_6 C 0.62461(14) 0.49909(12) 0.97276(15)
C74_6 C 0.60828(15) 0.54956(12) 0.88612(17)
H40_6 H 0.6020 0.5673 0.8568
C75_6 C 0.66714(15) 0.73791(12) 0.83486(16)
H41_6 H 0.6975 0.7310 0.8204
C76_6 C 0.58362(15) 0.51245(13) 0.89078(16)
H42_6 H 0.5616 0.5042 0.8641
C77_6 C 0.56386(14) 0.44691(12) 0.94053(16)
C78_6 C 0.57551(14) 0.82298(13) 0.82356(16)
Zn8_4 Zn 0.53163(2) 0.37606(2) 0.99437(2)
O17_4 O 0.92851(10) 0.56662(8) 0.77162(11)
O19_4 O 0.95138(9) 0.56481(8) 0.85663(10)
H39_3 H 0.1299 0.5179 0.0031
N5_3 N 0.52052(11) 0.37460(10) 0.07301(12)
O2_7 O 0.53320(10) 0.33073(10) 0.74579(12)
O3_7 O 0.52323(9) 0.38729(8) 0.79382(10)
O4_7 O 0.42040(13) 0.39135(15) 0.22549(13)
O5_7 O 0.57591(13) 0.35765(14) 0.24595(12)
O6_7 O 0.39283(18) 0.3959(2) 0.50379(16)
O7_4 O 0.95643(9) 0.16242(8) 0.88992(10)
O9_4 O 0.92376(9) 0.16581(8) 0.97046(10)
O10_7 O 0.54818(17) 0.3660(2) 0.52208(16)
O11_7 O 0.47129(9) 0.38360(8) 0.95543(9)
O12_7 O 0.46052(9) 0.32382(8) 0.99832(11)
O13_4 O 0.08213(9) 0.16470(8) 0.77632(10)
O15_4 O 0.04841(10) 0.15943(9) 0.85618(10)
N2_7 N 0.49794(13) 0.37456(11) 0.23673(13)
N3_7 N 0.47080(18) 0.38053(14) 0.51174(15)
N4_7 N 0.46021(13) 0.38158(11) 0.67699(12)
C1_7 C 0.92899(14) 0.55096(12) 0.81789(16)
C2_7 C 0.90075(14) 0.51211(13) 0.82469(16)
C3_7 C 0.89944(15) 0.49130(12) 0.87249(15)
H1_7 H 0.9161 0.5027 0.9019
C4_7 C 0.8767(2) 0.49441(16) 0.78255(19)
H2_7 H 0.8781 0.5076 0.7489
C5_7 C 0.69743(15) 0.35802(13) 0.82011(17)
C6_7 C 0.60165(14) 0.35861(13) 0.79161(15)
C7_7 C 0.82169(14) 0.32389(12) 0.86179(16)
C8_7 C 0.77297(14) 0.32364(13) 0.85096(16)
H3_7 H 0.7557 0.2983 0.8547
C9_7 C 0.90060(14) 0.21508(12) 0.90645(16)
C10_7 C 0.84602(14) 0.36126(13) 0.85765(16)
H4_7 H 0.8793 0.3620 0.8655
C11_7 C 0.74887(15) 0.35900(13) 0.83498(16)
C12_7 C 0.82321(15) 0.39778(13) 0.84234(16)
C13_7 C 0.62006(14) 0.39172(13) 0.81842(15)
H5_7 H 0.6002 0.4147 0.8272
C14_7 C 0.50454(15) 0.37520(14) 0.18002(16)
C15_7 C 0.67801(14) 0.32518(13) 0.79233(17)
H6_7 H 0.6976 0.3021 0.7832
C16_7 C 0.63054(15) 0.32529(13) 0.77760(17)
H7_7 H 0.6177 0.3027 0.7580
C17_7 C 0.84977(14) 0.43776(13) 0.83654(17)
C18_7 C 0.55003(15) 0.35787(14) 0.77518(16)
C19_7 C 0.92889(14) 0.17821(12) 0.92402(16)
C20_7 C 0.91594(15) 0.24015(13) 0.86476(16)
H8_7 H 0.9444 0.2333 0.8462
C21_7 C 0.66777(15) 0.39178(14) 0.83284(16)
H9_7 H 0.6806 0.4149 0.8515
C22_7 C 0.89015(15) 0.27478(13) 0.85037(16)
H10_7 H 0.9010 0.2914 0.8217
C23_7 C 0.84803(14) 0.28602(12) 0.87733(16)
C24_7 C 0.77441(15) 0.39614(13) 0.83072(17)
H11_7 H 0.7583 0.4208 0.8197
C25_7 C 0.51859(16) 0.41064(14) 0.10003(16)
H12_7 H 0.5229 0.4361 0.0815
C26_7 C 0.50562(15) 0.33723(14) 0.15237(16)
H13_7 H 0.5005 0.3115 0.1701
C27_7 C 0.45222(19) 0.38395(18) 0.25644(19)
C28_7 C 0.85865(16) 0.22516(14) 0.93365(19)
H14_7 H 0.8483 0.2086 0.9627
C29_7 C 0.51052(18) 0.41179(15) 0.15413(18)
H15_7 H 0.5092 0.4376 0.1726
C30_7 C 0.51432(15) 0.33843(13) 0.09860(16)
H16_7 H 0.5159 0.3131 0.0793
C31_7 C 0.8508(2) 0.45824(16) 0.7877(2)
H17_7 H 0.8337 0.4472 0.7584
C32_7 C 0.87497(16) 0.45497(13) 0.87877(17)
H18_7 H 0.8751 0.4413 0.9121
C33_7 C 0.53838(19) 0.36651(18) 0.26776(19)
C34_7 C 0.83192(16) 0.25992(15) 0.91775(19)
H19_7 H 0.8024 0.2658 0.9348
C35_7 C 0.4361(2) 0.3878(2) 0.4239(2)
C36_7 C 0.48683(17) 0.37739(15) 0.34666(17)
C37_7 C 0.44712(19) 0.38508(18) 0.31435(18)
C38_7 C 0.48150(19) 0.37897(16) 0.40191(18)
C39_7 C 0.5206(2) 0.3708(3) 0.4346(2)
C40_7 C 0.53150(19) 0.36807(17) 0.32471(18)
C41_7 C 0.46475(19) 0.38020(19) 0.56917(18)
C42_7 C 0.4045(2) 0.3945(3) 0.3356(2)
H20_7 H 0.3780 0.4003 0.3132
C43_7 C 0.4300(3) 0.3877(2) 0.4816(2)
C44_7 C 0.3988(2) 0.3958(2) 0.3923(2)
H21_7 H 0.3685 0.4023 0.4073
C45_7 C 0.5689(2) 0.3584(3) 0.3579(2)
H22_7 H 0.5987 0.3498 0.3434
C46_7 C 0.5638(2) 0.3610(3) 0.4116(2)
H23_7 H 0.5907 0.3559 0.4337
C47_7 C 0.4614(3) 0.41758(19) 0.5955(2)
H24_7 H 0.4609 0.4433 0.5770
C48_7 C 0.4653(2) 0.34402(18) 0.5951(2)
H25_7 H 0.4668 0.3181 0.5770
C49_7 C 0.4588(2) 0.41596(17) 0.65020(18)
H26_7 H 0.4558 0.4414 0.6691
C50_7 C 0.4634(2) 0.34629(17) 0.65075(18)
H27_7 H 0.4645 0.3210 0.6703
C51_7 C 0.5149(2) 0.3721(3) 0.4925(2)
C52_7 C 0.39237(14) 0.35483(12) 0.95794(15)
C53_7 C 0.36256(14) 0.32037(12) 0.96838(15)
H28_7 H 0.3756 0.2958 0.9835
C54_7 C 0.44409(14) 0.35267(13) 0.97168(15)
C55_7 C 0.37264(15) 0.38976(12) 0.93574(16)
H29_7 H 0.3927 0.4129 0.9281
C56_7 C 0.24307(13) 0.36106(13) 0.92205(16)
C57_7 C 0.31428(14) 0.32236(12) 0.95653(15)
H30_7 H 0.2942 0.2992 0.9635
C58_7 C 0.29527(14) 0.35846(13) 0.93434(15)
C59_7 C 0.32436(14) 0.39228(12) 0.92412(15)
H31_7 H 0.3114 0.4170 0.9093
C60_7 C 0.21964(14) 0.32496(13) 0.90246(16)
H32_7 H 0.2372 0.2999 0.8973
C61_7 C 0.14595(15) 0.36371(12) 0.89849(16)
H33_7 H 0.1128 0.3648 0.8905
C62_7 C 0.16848(15) 0.39958(12) 0.91774(16)
C63_7 C 0.14216(14) 0.43850(12) 0.92356(16)
C64_7 C 0.17064(14) 0.32627(12) 0.89063(15)
C65_7 C 0.14631(14) 0.28772(12) 0.87270(16)
C66_7 C 0.21766(14) 0.39733(12) 0.92934(15)
H34_7 H 0.2336 0.4213 0.9425
C67_7 C 0.09988(15) 0.21575(12) 0.84036(15)
C68_7 C 0.07935(14) 0.24083(12) 0.87929(15)
H35_7 H 0.0500 0.2327 0.8953
C69_7 C 0.10135(14) 0.27720(12) 0.89469(16)
H36_7 H 0.0865 0.2951 0.9198
C70_7 C 0.09124(14) 0.51285(12) 0.93490(15)
C71_7 C 0.14407(14) 0.22728(13) 0.81871(15)
H37_7 H 0.1581 0.2103 0.7921
C72_7 C 0.14976(14) 0.46499(12) 0.96649(15)
H38_7 H 0.1732 0.4577 0.9921
C73_7 C 0.12461(14) 0.50091(12) 0.97276(15)
C74_7 C 0.10828(15) 0.45044(12) 0.88612(17)
H40_7 H 0.1020 0.4327 0.8568
C75_7 C 0.16714(15) 0.26209(12) 0.83486(16)
H41_7 H 0.1975 0.2690 0.8204
C76_7 C 0.08362(15) 0.48755(13) 0.89078(16)
H42_7 H 0.0616 0.4958 0.8641
C77_7 C 0.06386(14) 0.55309(12) 0.94053(16)
C78_7 C 0.07551(14) 0.17702(13) 0.82356(16)
O18_4 O 0.54357(9) 0.33758(8) 0.88992(10)
O20_4 O 0.57624(9) 0.33419(8) 0.97046(10)
O21_4 O 0.41787(9) 0.33530(8) 0.77632(10)
O23_4 O 0.45159(10) 0.34057(9) 0.85618(10)
O4_8 O 0.07960(13) 0.10865(15) 0.22549(13)
O6_8 O 0.10717(18) 0.1041(2) 0.50379(16)
O11_8 O 0.02871(9) 0.11640(8) 0.95543(9)
O12_8 O 0.03948(9) 0.17618(8) 0.99832(11)
N2_8 N 0.00206(13) 0.12544(11) 0.23673(13)
N3_8 N 0.02920(18) 0.11947(14) 0.51174(15)
N4_8 N 0.03979(13) 0.11842(11) 0.67699(12)
C27_8 C 0.04778(19) 0.11605(18) 0.25644(19)
C35_8 C 0.0639(2) 0.1122(2) 0.4239(2)
C36_8 C 0.01317(17) 0.12261(15) 0.34666(17)
C37_8 C 0.05288(19) 0.11492(18) 0.31435(18)
C38_8 C 0.01850(19) 0.12103(16) 0.40191(18)
C41_8 C 0.03525(19) 0.11980(19) 0.56917(18)
C42_8 C 0.0955(2) 0.1055(3) 0.3356(2)
H20_8 H 0.1220 0.0997 0.3132
C43_8 C 0.0700(3) 0.1123(2) 0.4816(2)
C44_8 C 0.1012(2) 0.1042(2) 0.3923(2)
H21_8 H 0.1315 0.0977 0.4073
C47_8 C 0.0386(3) 0.08242(19) 0.5955(2)
H24_8 H 0.0391 0.0567 0.5770
C48_8 C 0.0347(2) 0.15598(18) 0.5951(2)
H25_8 H 0.0332 0.1819 0.5770
C49_8 C 0.0412(2) 0.08404(17) 0.65020(18)
H26_8 H 0.0442 0.0586 0.6691
C50_8 C 0.0366(2) 0.15371(17) 0.65075(18)
H27_8 H 0.0355 0.1790 0.6703
C52_8 C 0.10763(14) 0.14517(12) 0.95794(15)
C53_8 C 0.13744(14) 0.17963(12) 0.96838(15)
H28_8 H 0.1244 0.2042 0.9835
C54_8 C 0.05591(14) 0.14733(13) 0.97168(15)
C55_8 C 0.12736(15) 0.11024(12) 0.93574(16)
H29_8 H 0.1073 0.0871 0.9281
C56_8 C 0.25693(13) 0.13894(13) 0.92205(16)
C57_8 C 0.18572(14) 0.17764(12) 0.95653(15)
H30_8 H 0.2058 0.2008 0.9635
C58_8 C 0.20473(14) 0.14154(13) 0.93434(15)
C59_8 C 0.17564(14) 0.10772(12) 0.92412(15)
H31_8 H 0.1886 0.0830 0.9093
C60_8 C 0.28036(14) 0.17504(13) 0.90246(16)
H32_8 H 0.2628 0.2001 0.8973
C61_8 C 0.35405(15) 0.13629(12) 0.89849(16)
H33_8 H 0.3872 0.1352 0.8905
C62_8 C 0.33152(15) 0.10042(12) 0.91774(16)
C63_8 C 0.35784(14) 0.06150(12) 0.92356(16)
C64_8 C 0.32936(14) 0.17373(12) 0.89063(15)
C65_8 C 0.35369(14) 0.21228(12) 0.87270(16)
C66_8 C 0.28234(14) 0.10267(12) 0.92934(15)
H34_8 H 0.2664 0.0787 0.9425
C67_8 C 0.40012(15) 0.28425(12) 0.84036(15)
C68_8 C 0.42065(14) 0.25917(12) 0.87929(15)
H35_8 H 0.4500 0.2673 0.8953
C69_8 C 0.39865(14) 0.22280(12) 0.89469(16)
H36_8 H 0.4135 0.2049 0.9198
C71_8 C 0.35593(14) 0.27272(13) 0.81871(15)
H37_8 H 0.3419 0.2897 0.7921
C72_8 C 0.35024(14) 0.03501(12) 0.96649(15)
H38_8 H 0.3268 0.0423 0.9921
C74_8 C 0.39172(15) 0.04956(12) 0.88612(17)
H40_8 H 0.3980 0.0673 0.8568
C75_8 C 0.33286(15) 0.23791(12) 0.83486(16)
H41_8 H 0.3025 0.2310 0.8204
C76_8 C 0.41638(15) 0.01245(13) 0.89078(16)
H42_8 H 0.4384 0.0042 0.8641
C78_8 C 0.42449(14) 0.32298(13) 0.82356(16)
C70_8 C 0.40876(14) 0.98715(12) 0.93490(15)
C73_8 C 0.37539(14) 0.99909(12) 0.97276(15)
C77_8 C 0.43614(14) 0.94691(12) 0.94053(16)
N5_4 N 0.97948(11) 0.12540(10) 0.07301(12)
O2_8 O 0.96680(10) 0.16927(10) 0.74579(12)
O3_8 O 0.97677(9) 0.11271(8) 0.79382(10)
O5_8 O 0.92409(13) 0.14235(14) 0.24595(12)
O10_8 O 0.95182(17) 0.1340(2) 0.52208(16)
C3_8 C 0.60056(15) 0.00870(12) 0.87249(15)
C4_8 C 0.6233(2) 0.00559(16) 0.78255(19)
C5_8 C 0.80257(15) 0.14198(13) 0.82011(17)
C6_8 C 0.89835(14) 0.14139(13) 0.79161(15)
C7_8 C 0.67831(14) 0.17611(12) 0.86179(16)
C8_8 C 0.72703(14) 0.17636(13) 0.85096(16)
H3_8 H 0.7443 0.2017 0.8547
C9_8 C 0.59940(14) 0.28492(12) 0.90645(16)
C10_8 C 0.65398(14) 0.13874(13) 0.85765(16)
H4_8 H 0.6207 0.1380 0.8655
C11_8 C 0.75113(15) 0.14100(13) 0.83498(16)
C12_8 C 0.67679(15) 0.10222(13) 0.84234(16)
C13_8 C 0.87994(14) 0.10828(13) 0.81842(15)
H5_8 H 0.8998 0.0853 0.8272
C14_8 C 0.99546(15) 0.12480(14) 0.18002(16)
C15_8 C 0.82199(14) 0.17482(13) 0.79233(17)
H6_8 H 0.8024 0.1979 0.7832
C16_8 C 0.86946(15) 0.17471(13) 0.77760(17)
H7_8 H 0.8823 0.1973 0.7580
C17_8 C 0.65023(14) 0.06224(13) 0.83654(17)
C18_8 C 0.94997(15) 0.14213(14) 0.77518(16)
C19_8 C 0.57111(14) 0.32179(12) 0.92402(16)
C20_8 C 0.58406(15) 0.25985(13) 0.86476(16)
H8_8 H 0.5556 0.2667 0.8462
C21_8 C 0.83223(15) 0.10822(14) 0.83284(16)
H9_8 H 0.8194 0.0851 0.8515
C22_8 C 0.60985(15) 0.22522(13) 0.85037(16)
H10_8 H 0.5990 0.2086 0.8217
C23_8 C 0.65197(14) 0.21398(12) 0.87733(16)
C24_8 C 0.72559(15) 0.10386(13) 0.83072(17)
H11_8 H 0.7417 0.0792 0.8197
C25_8 C 0.98141(16) 0.08936(14) 0.10003(16)
H12_8 H 0.9771 0.0639 0.0815
C26_8 C 0.99438(15) 0.16277(14) 0.15237(16)
H13_8 H 0.9995 0.1885 0.1701
C28_8 C 0.64135(16) 0.27484(14) 0.93365(19)
H14_8 H 0.6517 0.2914 0.9627
C29_8 C 0.98948(18) 0.08821(15) 0.15413(18)
H15_8 H 0.9908 0.0624 0.1726
C30_8 C 0.98568(15) 0.16157(13) 0.09860(16)
H16_8 H 0.9841 0.1869 0.0793
C31_8 C 0.6492(2) 0.04176(16) 0.7877(2)
H17_8 H 0.6663 0.0528 0.7584
C32_8 C 0.62503(16) 0.04503(13) 0.87877(17)
H18_8 H 0.6249 0.0587 0.9121
C33_8 C 0.96162(19) 0.13349(18) 0.26776(19)
C34_8 C 0.66808(16) 0.24008(15) 0.91775(19)
H19_8 H 0.6976 0.2342 0.9348
C39_8 C 0.9794(2) 0.1292(3) 0.4346(2)
C40_8 C 0.96850(19) 0.13193(17) 0.32471(18)
C45_8 C 0.9311(2) 0.1416(3) 0.3579(2)
H22_8 H 0.9013 0.1502 0.3434
C46_8 C 0.9362(2) 0.1390(3) 0.4116(2)
H23_8 H 0.9093 0.1441 0.4337
C51_8 C 0.9851(2) 0.1279(3) 0.4925(2)
C1_8 C 0.57101(14) 0.94904(12) 0.81789(16)
C2_8 C 0.59925(14) 0.98789(13) 0.82469(16)
H1_8 H 0.5839 0.9973 0.9019
H2_8 H 0.6219 0.9924 0.7489
H39_4 H 0.8701 0.0179 0.0031
H39_5 H 0.6299 0.4821 0.0031
H39_6 H 0.3701 0.9821 0.0031
H39_7 H 0.1299 0.9821 0.9969
H39_8 H 0.3701 0.5179 0.9969
loop_
_geom_bond_atom_site_label_1
_geom_bond_atom_site_label_2
_geom_bond_site_symmetry_1
_geom_bond_site_symmetry_2
Zn1 O3 1_555 1_555
Zn6 O11 1_555 1_555
Zn3 O3 1_555 1_555
O1 C1 1_555 1_555
O2 C18 1_555 1_555
O3 C18 1_555 1_555
O4 C27 1_555 1_555
O5 C33 1_555 1_555
O6 C43 1_555 1_555
O7 C19 1_555 1_555
O8 C1 1_555 1_555
O9 C19 1_555 1_555
O10 C51 1_555 1_555
O11 Zn3 1_555 1_555
O12 C54 1_555 1_555
O13 C78 1_555 1_555
O14 C77 1_555 1_555
O15 C78 1_555 1_555
O16 C77 1_555 1_555
N1 C25 1_555 1_555
N2 C14 1_555 1_555
N3 C41 1_555 1_555
N4 Zn1 1_555 1_555
C1 C2 1_555 1_555
C2 C3 1_555 1_555
C3 H1 1_555 1_555
C4 C2 1_555 1_555
H2 C4 1_555 1_555
C5 C11 1_555 1_555
C6 C13 1_555 1_555
C7 C8 1_555 1_555
C8 H3 1_555 1_555
C9 C19 1_555 1_555
C10 C7 1_555 1_555
H4 C10 1_555 1_555
C11 C8 1_555 1_555
C12 C10 1_555 1_555
C13 H5 1_555 1_555
C14 C26 1_555 1_555
C15 C5 1_555 1_555
H6 C15 1_555 1_555
C16 C6 1_555 1_555
H7 C16 1_555 1_555
C17 C12 1_555 1_555
C18 C6 1_555 1_555
C20 C9 1_555 1_555
H8 C20 1_555 1_555
C21 C5 1_555 1_555
H9 C21 1_555 1_555
C22 C20 1_555 1_555
H10 C22 1_555 1_555
C23 C7 1_555 1_555
C24 C11 1_555 1_555
H11 C24 1_555 1_555
C25 H12 1_555 1_555
C26 H13 1_555 1_555
C27 N2 1_555 1_555
C28 C9 1_555 1_555
H14 C28 1_555 1_555
C29 C14 1_555 1_555
H15 C29 1_555 1_555
C30 N1 1_555 1_555
H16 C30 1_555 1_555
C31 C4 1_555 1_555
H17 C31 1_555 1_555
C32 C3 1_555 1_555
H18 C32 1_555 1_555
C33 N2 1_555 1_555
C34 C23 1_555 1_555
H19 C34 1_555 1_555
C35 C38 1_555 1_555
C36 C37 1_555 1_555
C37 C27 1_555 1_555
C38 C36 1_555 1_555
C39 C38 1_555 1_555
C40 C33 1_555 1_555
C41 C47 1_555 1_555
C42 C37 1_555 1_555
H20 C42 1_555 1_555
C43 N3 1_555 1_555
C44 C35 1_555 1_555
H21 C44 1_555 1_555
C45 C40 1_555 1_555
H22 C45 1_555 1_555
C46 C39 1_555 1_555
H23 C46 1_555 1_555
C47 H24 1_555 1_555
C48 C41 1_555 1_555
H25 C48 1_555 1_555
C49 N4 1_555 1_555
H26 C49 1_555 1_555
C50 N4 1_555 1_555
H27 C50 1_555 1_555
C51 N3 1_555 1_555
C52 C53 1_555 1_555
C53 H28 1_555 1_555
C54 O11 1_555 1_555
C55 C52 1_555 1_555
H29 C55 1_555 1_555
C56 C58 1_555 1_555
C57 C53 1_555 1_555
H30 C57 1_555 1_555
C58 C57 1_555 1_555
C59 C55 1_555 1_555
H31 C59 1_555 1_555
C60 C56 1_555 1_555
H32 C60 1_555 1_555
C61 H33 1_555 1_555
C62 C61 1_555 1_555
C63 C62 1_555 1_555
C64 C60 1_555 1_555
C65 C64 1_555 1_555
C66 C56 1_555 1_555
H34 C66 1_555 1_555
C67 C68 1_555 1_555
C68 H35 1_555 1_555
C69 C65 1_555 1_555
H36 C69 1_555 1_555
C70 C73 1_555 1_555
C71 C67 1_555 1_555
H37 C71 1_555 1_555
C72 C63 1_555 1_555
H38 C72 1_555 1_555
C73 C72 1_555 1_555
C74 C63 1_555 1_555
H40 C74 1_555 1_555
C75 C65 1_555 1_555
H41 C75 1_555 1_555
C76 C70 1_555 1_555
H42 C76 1_555 1_555
C77 C70 1_555 1_555
C78 C67 1_555 1_555
Zn4 O13 1_555 1_555
Zn5 O1 1_555 1_555
Zn7 O9 1_555 1_555
Zn8 O16 1_555 1_555
Zn10 O15 1_555 1_555
Zn12 O8 1_555 1_555
O17 Zn1 1_555 1_555
O18 Zn3 1_555 1_555
O19 Zn3 1_555 1_555
O20 Zn6 1_555 1_555
O21 Zn1 1_555 1_555
O22 Zn3 1_555 1_555
O23 Zn3 1_555 1_555
O24 Zn6 1_555 1_555
C12 C24 1_555 1_555
C13 C21 1_555 1_555
C15 C16 1_555 1_555
C17 C31 1_555 1_555
C17 C32 1_555 1_555
C22 C23 1_555 1_555
C25 C29 1_555 1_555
C26 C30 1_555 1_555
C28 C34 1_555 1_555
C35 C43 1_555 1_555
C36 C40 1_555 1_555
C39 C51 1_555 1_555
C42 C44 1_555 1_555
C45 C46 1_555 1_555
C47 C49 1_555 1_555
C48 C50 1_555 1_555
C52 C54 1_555 1_555
C58 C59 1_555 1_555
C61 C64 1_555 1_555
C62 C66 1_555 1_555
C68 C69 1_555 1_555
C71 C75 1_555 1_555
C74 C76 1_555 1_555
O1_2 C1_2 1_555 1_555
O8_2 C1_2 1_555 1_555
C1_2 C2_2 1_555 1_555
Zn5_2 O1_2 1_555 1_555
Zn11 O8_2 1_555 1_555
O2_2 C18_2 1_555 1_555
O3_2 C18_2 1_555 1_555
O5_2 C33_2 1_555 1_555
O18 C19_2 1_555 1_555
O20 C19_2 1_555 1_555
O10_2 C51_2 1_555 1_555
N1_2 C25_2 1_555 1_555
C5_2 C11_2 1_555 1_555
C6_2 C13_2 1_555 1_555
C7_2 C8_2 1_555 1_555
C8_2 H3_2 1_555 1_555
C9_2 C19_2 1_555 1_555
C10_2 C7_2 1_555 1_555
H4_2 C10_2 1_555 1_555
C11_2 C8_2 1_555 1_555
C12_2 C10_2 1_555 1_555
C13_2 H5_2 1_555 1_555
C14_2 C26_2 1_555 1_555
C15_2 C5_2 1_555 1_555
H6_2 C15_2 1_555 1_555
C16_2 C6_2 1_555 1_555
H7_2 C16_2 1_555 1_555
C17_2 C12_2 1_555 1_555
C18_2 C6_2 1_555 1_555
C20_2 C9_2 1_555 1_555
H8_2 C20_2 1_555 1_555
C21_2 C5_2 1_555 1_555
H9_2 C21_2 1_555 1_555
C22_2 C20_2 1_555 1_555
H10_2 C22_2 1_555 1_555
C23_2 C7_2 1_555 1_555
C24_2 C11_2 1_555 1_555
H11_2 C24_2 1_555 1_555
C25_2 H12_2 1_555 1_555
C26_2 H13_2 1_555 1_555
C28_2 C9_2 1_555 1_555
H14_2 C28_2 1_555 1_555
C29_2 C14_2 1_555 1_555
H15_2 C29_2 1_555 1_555
C30_2 N1_2 1_555 1_555
H16_2 C30_2 1_555 1_555
C31_2 C4_2 1_555 1_555
H17_2 C31_2 1_555 1_555
C32_2 C3_2 1_555 1_555
H18_2 C32_2 1_555 1_555
C34_2 C23_2 1_555 1_555
H19_2 C34_2 1_555 1_555
C40_2 C33_2 1_555 1_555
C45_2 C40_2 1_555 1_555
H22_2 C45_2 1_555 1_555
C46_2 C39_2 1_555 1_555
H23_2 C46_2 1_555 1_555
O24_2 Zn7 1_555 1_555
C12_2 C24_2 1_555 1_555
C13_2 C21_2 1_555 1_555
C15_2 C16_2 1_555 1_555
C17_2 C31_2 1_555 1_555
C17_2 C32_2 1_555 1_555
C22_2 C23_2 1_555 1_555
C25_2 C29_2 1_555 1_555
C26_2 C30_2 1_555 1_555
C28_2 C34_2 1_555 1_555
C39_2 C51_2 1_555 1_555
C45_2 C46_2 1_555 1_555
O14_2 C77_2 1_555 1_555
O16_2 C77_2 1_555 1_555
C70_2 C73_2 1_555 1_555
C77_2 C70_2 1_555 1_555
Zn8_2 O16_2 1_555 1_555
Zn11 O14_2 1_555 1_555
O4_2 C27_2 1_555 1_555
O6_2 C43_2 1_555 1_555
O11_2 Zn10 1_555 1_555
O12_2 C54_2 1_555 1_555
O21 C78_2 1_555 1_555
O23 C78_2 1_555 1_555
N3_2 C41_2 1_555 1_555
N4_2 Zn4 1_555 1_555
C27_2 N2_2 1_555 1_555
C35_2 C38_2 1_555 1_555
C36_2 C37_2 1_555 1_555
C37_2 C27_2 1_555 1_555
C38_2 C36_2 1_555 1_555
C41_2 C47_2 1_555 1_555
C42_2 C37_2 1_555 1_555
H20_2 C42_2 1_555 1_555
C43_2 N3_2 1_555 1_555
C44_2 C35_2 1_555 1_555
H21_2 C44_2 1_555 1_555
C47_2 H24_2 1_555 1_555
C48_2 C41_2 1_555 1_555
H25_2 C48_2 1_555 1_555
C49_2 N4_2 1_555 1_555
H26_2 C49_2 1_555 1_555
C50_2 N4_2 1_555 1_555
H27_2 C50_2 1_555 1_555
C52_2 C53_2 1_555 1_555
C53_2 H28_2 1_555 1_555
C54_2 O11_2 1_555 1_555
C55_2 C52_2 1_555 1_555
H29_2 C55_2 1_555 1_555
C56_2 C58_2 1_555 1_555
C57_2 C53_2 1_555 1_555
H30_2 C57_2 1_555 1_555
C58_2 C57_2 1_555 1_555
C59_2 C55_2 1_555 1_555
H31_2 C59_2 1_555 1_555
C60_2 C56_2 1_555 1_555
H32_2 C60_2 1_555 1_555
C61_2 H33_2 1_555 1_555
C62_2 C61_2 1_555 1_555
C63_2 C62_2 1_555 1_555
C64_2 C60_2 1_555 1_555
C65_2 C64_2 1_555 1_555
C66_2 C56_2 1_555 1_555
H34_2 C66_2 1_555 1_555
C67_2 C68_2 1_555 1_555
C68_2 H35_2 1_555 1_555
C69_2 C65_2 1_555 1_555
H36_2 C69_2 1_555 1_555
C71_2 C67_2 1_555 1_555
H37_2 C71_2 1_555 1_555
C72_2 C63_2 1_555 1_555
H38_2 C72_2 1_555 1_555
C74_2 C63_2 1_555 1_555
H40_2 C74_2 1_555 1_555
C75_2 C65_2 1_555 1_555
H41_2 C75_2 1_555 1_555
H42_2 C76_2 1_555 1_555
C78_2 C67_2 1_555 1_555
O17_2 Zn4 1_555 1_555
O19_2 Zn10 1_555 1_555
C35_2 C43_2 1_555 1_555
C42_2 C44_2 1_555 1_555
C47_2 C49_2 1_555 1_555
C48_2 C50_2 1_555 1_555
C52_2 C54_2 1_555 1_555
C58_2 C59_2 1_555 1_555
C61_2 C64_2 1_555 1_555
C62_2 C66_2 1_555 1_555
C68_2 C69_2 1_555 1_555
C71_2 C75_2 1_555 1_555
C74_2 C76_2 1_555 1_555
Zn5_2 O3_3 1_555 1_555
Zn8_2 O11_3 1_555 1_555
Zn11 O3_3 1_555 1_555
O2_3 C18_3 1_555 1_555
O3_3 C18_3 1_555 1_555
O4_3 C27_3 1_555 1_555
O5_3 C33_3 1_555 1_555
O6_3 C43_3 1_555 1_555
O7_2 C19_3 1_555 1_555
O9_2 C19_3 1_555 1_555
O10_3 C51_3 1_555 1_555
O11_3 Zn11 1_555 1_555
O12_3 C54_3 1_555 1_555
O13_2 C78_3 1_555 1_555
O15_2 C78_3 1_555 1_555
N1_3 C25_3 1_555 1_555
N2_3 C14_3 1_555 1_555
N3_3 C41_3 1_555 1_555
N4_3 Zn5_2 1_555 1_555
C5_3 C11_3 1_555 1_555
C6_3 C13_3 1_555 1_555
C7_3 C8_3 1_555 1_555
C8_3 H3_3 1_555 1_555
C9_3 C19_3 1_555 1_555
C10_3 C7_3 1_555 1_555
H4_3 C10_3 1_555 1_555
C11_3 C8_3 1_555 1_555
C12_3 C10_3 1_555 1_555
C13_3 H5_3 1_555 1_555
C14_3 C26_3 1_555 1_555
C15_3 C5_3 1_555 1_555
H6_3 C15_3 1_555 1_555
C16_3 C6_3 1_555 1_555
H7_3 C16_3 1_555 1_555
C17_3 C12_3 1_555 1_555
C18_3 C6_3 1_555 1_555
C20_3 C9_3 1_555 1_555
H8_3 C20_3 1_555 1_555
C21_3 C5_3 1_555 1_555
H9_3 C21_3 1_555 1_555
C22_3 C20_3 1_555 1_555
H10_3 C22_3 1_555 1_555
C23_3 C7_3 1_555 1_555
C24_3 C11_3 1_555 1_555
H11_3 C24_3 1_555 1_555
C25_3 H12_3 1_555 1_555
C26_3 H13_3 1_555 1_555
C27_3 N2_3 1_555 1_555
C28_3 C9_3 1_555 1_555
H14_3 C28_3 1_555 1_555
C29_3 C14_3 1_555 1_555
H15_3 C29_3 1_555 1_555
C30_3 N1_3 1_555 1_555
H16_3 C30_3 1_555 1_555
C31_3 C4_3 1_555 1_555
H17_3 C31_3 1_555 1_555
C32_3 C3_3 1_555 1_555
H18_3 C32_3 1_555 1_555
C33_3 N2_3 1_555 1_555
C34_3 C23_3 1_555 1_555
H19_3 C34_3 1_555 1_555
C35_3 C38_3 1_555 1_555
C36_3 C37_3 1_555 1_555
C37_3 C27_3 1_555 1_555
C38_3 C36_3 1_555 1_555
C39_3 C38_3 1_555 1_555
C40_3 C33_3 1_555 1_555
C41_3 C47_3 1_555 1_555
C42_3 C37_3 1_555 1_555
H20_3 C42_3 1_555 1_555
C43_3 N3_3 1_555 1_555
C44_3 C35_3 1_555 1_555
H21_3 C44_3 1_555 1_555
C45_3 C40_3 1_555 1_555
H22_3 C45_3 1_555 1_555
C46_3 C39_3 1_555 1_555
H23_3 C46_3 1_555 1_555
C47_3 H24_3 1_555 1_555
C48_3 C41_3 1_555 1_555
H25_3 C48_3 1_555 1_555
C49_3 N4_3 1_555 1_555
H26_3 C49_3 1_555 1_555
C50_3 N4_3 1_555 1_555
H27_3 C50_3 1_555 1_555
C51_3 N3_3 1_555 1_555
C52_3 C53_3 1_555 1_555
C53_3 H28_3 1_555 1_555
C54_3 O11_3 1_555 1_555
C55_3 C52_3 1_555 1_555
H29_3 C55_3 1_555 1_555
C56_3 C58_3 1_555 1_555
C57_3 C53_3 1_555 1_555
H30_3 C57_3 1_555 1_555
C58_3 C57_3 1_555 1_555
C59_3 C55_3 1_555 1_555
H31_3 C59_3 1_555 1_555
C60_3 C56_3 1_555 1_555
H32_3 C60_3 1_555 1_555
C61_3 H33_3 1_555 1_555
C62_3 C61_3 1_555 1_555
C63_3 C62_3 1_555 1_555
C64_3 C60_3 1_555 1_555
C65_3 C64_3 1_555 1_555
C66_3 C56_3 1_555 1_555
H34_3 C66_3 1_555 1_555
C67_3 C68_3 1_555 1_555
C68_3 H35_3 1_555 1_555
C69_3 C65_3 1_555 1_555
H36_3 C69_3 1_555 1_555
C71_3 C67_3 1_555 1_555
H37_3 C71_3 1_555 1_555
C72_3 C63_3 1_555 1_555
H38_3 C72_3 1_555 1_555
C74_3 C63_3 1_555 1_555
H40_3 C74_3 1_555 1_555
C75_3 C65_3 1_555 1_555
H41_3 C75_3 1_555 1_555
H42_3 C76_3 1_555 1_555
C78_3 C67_3 1_555 1_555
Zn5 O13_2 1_555 1_555
Zn8 O9_2 1_555 1_555
Zn12 O15_2 1_555 1_555
O18_2 Zn11 1_555 1_555
O20_2 Zn8_2 1_555 1_555
O21_2 Zn5_2 1_555 1_555
O23_2 Zn11 1_555 1_555
C12_3 C24_3 1_555 1_555
C13_3 C21_3 1_555 1_555
C15_3 C16_3 1_555 1_555
C17_3 C31_3 1_555 1_555
C17_3 C32_3 1_555 1_555
C22_3 C23_3 1_555 1_555
C25_3 C29_3 1_555 1_555
C26_3 C30_3 1_555 1_555
C28_3 C34_3 1_555 1_555
C35_3 C43_3 1_555 1_555
C36_3 C40_3 1_555 1_555
C39_3 C51_3 1_555 1_555
C42_3 C44_3 1_555 1_555
C45_3 C46_3 1_555 1_555
C47_3 C49_3 1_555 1_555
C48_3 C50_3 1_555 1_555
C52_3 C54_3 1_555 1_555
C58_3 C59_3 1_555 1_555
C61_3 C64_3 1_555 1_555
C62_3 C66_3 1_555 1_555
C68_3 C69_3 1_555 1_555
C71_3 C75_3 1_555 1_555
C74_3 C76_3 1_555 1_555
O17_2 C1_3 1_555 1_555
O19_2 C1_3 1_555 1_555
O22_2 C77_3 1_555 1_555
O24_2 C77_3 1_555 1_555
C1_3 C2_3 1_555 1_555
C70_3 C73_3 1_555 1_555
C77_3 C70_3 1_555 1_555
O4_4 C27_4 1_555 1_555
O6_4 C43_4 1_555 1_555
O11_4 Zn12 1_555 1_555
O12_4 C54_4 1_555 1_555
O21_2 C78_4 1_555 1_555
O22 C77_4 1_555 1_555
O23_2 C78_4 1_555 1_555
O24 C77_4 1_555 1_555
N3_4 C41_4 1_555 1_555
N4_4 Zn5 1_555 1_555
C27_4 N2_4 1_555 1_555
C35_4 C38_4 1_555 1_555
C36_4 C37_4 1_555 1_555
C37_4 C27_4 1_555 1_555
C38_4 C36_4 1_555 1_555
C41_4 C47_4 1_555 1_555
C42_4 C37_4 1_555 1_555
H20_4 C42_4 1_555 1_555
C43_4 N3_4 1_555 1_555
C44_4 C35_4 1_555 1_555
H21_4 C44_4 1_555 1_555
C47_4 H24_4 1_555 1_555
C48_4 C41_4 1_555 1_555
H25_4 C48_4 1_555 1_555
C49_4 N4_4 1_555 1_555
H26_4 C49_4 1_555 1_555
C50_4 N4_4 1_555 1_555
H27_4 C50_4 1_555 1_555
C52_4 C53_4 1_555 1_555
C53_4 H28_4 1_555 1_555
C54_4 O11_4 1_555 1_555
C55_4 C52_4 1_555 1_555
H29_4 C55_4 1_555 1_555
C56_4 C58_4 1_555 1_555
C57_4 C53_4 1_555 1_555
H30_4 C57_4 1_555 1_555
C58_4 C57_4 1_555 1_555
C59_4 C55_4 1_555 1_555
H31_4 C59_4 1_555 1_555
C60_4 C56_4 1_555 1_555
H32_4 C60_4 1_555 1_555
C61_4 H33_4 1_555 1_555
C62_4 C61_4 1_555 1_555
C63_4 C62_4 1_555 1_555
C64_4 C60_4 1_555 1_555
C65_4 C64_4 1_555 1_555
C66_4 C56_4 1_555 1_555
H34_4 C66_4 1_555 1_555
C67_4 C68_4 1_555 1_555
C68_4 H35_4 1_555 1_555
C69_4 C65_4 1_555 1_555
H36_4 C69_4 1_555 1_555
C70_4 C73_4 1_555 1_555
C71_4 C67_4 1_555 1_555
H37_4 C71_4 1_555 1_555
C72_4 C63_4 1_555 1_555
H38_4 C72_4 1_555 1_555
C73_4 C72_4 1_555 1_555
C74_4 C63_4 1_555 1_555
H40_4 C74_4 1_555 1_555
C75_4 C65_4 1_555 1_555
H41_4 C75_4 1_555 1_555
C76_4 C70_4 1_555 1_555
H42_4 C76_4 1_555 1_555
C77_4 C70_4 1_555 1_555
C78_4 C67_4 1_555 1_555
C35_4 C43_4 1_555 1_555
C42_4 C44_4 1_555 1_555
C47_4 C49_4 1_555 1_555
C48_4 C50_4 1_555 1_555
C52_4 C54_4 1_555 1_555
C58_4 C59_4 1_555 1_555
C61_4 C64_4 1_555 1_555
C62_4 C66_4 1_555 1_555
C68_4 C69_4 1_555 1_555
C71_4 C75_4 1_555 1_555
C74_4 C76_4 1_555 1_555
O17 C1_4 1_555 1_555
O2_4 C18_4 1_555 1_555
O3_4 C18_4 1_555 1_555
O5_4 C33_4 1_555 1_555
O18_2 C19_4 1_555 1_555
O19 C1_4 1_555 1_555
O20_2 C19_4 1_555 1_555
O10_4 C51_4 1_555 1_555
N1_4 C25_4 1_555 1_555
C1_4 C2_4 1_555 1_555
C2_4 C3_4 1_555 1_555
C3_4 H1_4 1_555 1_555
C4_4 C2_4 1_555 1_555
H2_4 C4_4 1_555 1_555
C5_4 C11_4 1_555 1_555
C6_4 C13_4 1_555 1_555
C7_4 C8_4 1_555 1_555
C8_4 H3_4 1_555 1_555
C9_4 C19_4 1_555 1_555
C10_4 C7_4 1_555 1_555
H4_4 C10_4 1_555 1_555
C11_4 C8_4 1_555 1_555
C12_4 C10_4 1_555 1_555
C13_4 H5_4 1_555 1_555
C14_4 C26_4 1_555 1_555
C15_4 C5_4 1_555 1_555
H6_4 C15_4 1_555 1_555
C16_4 C6_4 1_555 1_555
H7_4 C16_4 1_555 1_555
C17_4 C12_4 1_555 1_555
C18_4 C6_4 1_555 1_555
C20_4 C9_4 1_555 1_555
H8_4 C20_4 1_555 1_555
C21_4 C5_4 1_555 1_555
H9_4 C21_4 1_555 1_555
C22_4 C20_4 1_555 1_555
H10_4 C22_4 1_555 1_555
C23_4 C7_4 1_555 1_555
C24_4 C11_4 1_555 1_555
H11_4 C24_4 1_555 1_555
C25_4 H12_4 1_555 1_555
C26_4 H13_4 1_555 1_555
C28_4 C9_4 1_555 1_555
H14_4 C28_4 1_555 1_555
C29_4 C14_4 1_555 1_555
H15_4 C29_4 1_555 1_555
C30_4 N1_4 1_555 1_555
H16_4 C30_4 1_555 1_555
C31_4 C4_4 1_555 1_555
H17_4 C31_4 1_555 1_555
C32_4 C3_4 1_555 1_555
H18_4 C32_4 1_555 1_555
C34_4 C23_4 1_555 1_555
H19_4 C34_4 1_555 1_555
C40_4 C33_4 1_555 1_555
C45_4 C40_4 1_555 1_555
H22_4 C45_4 1_555 1_555
C46_4 C39_4 1_555 1_555
H23_4 C46_4 1_555 1_555
C12_4 C24_4 1_555 1_555
C13_4 C21_4 1_555 1_555
C15_4 C16_4 1_555 1_555
C17_4 C31_4 1_555 1_555
C17_4 C32_4 1_555 1_555
C22_4 C23_4 1_555 1_555
C25_4 C29_4 1_555 1_555
C26_4 C30_4 1_555 1_555
C28_4 C34_4 1_555 1_555
C39_4 C51_4 1_555 1_555
C45_4 C46_4 1_555 1_555
O1_3 C1_5 1_555 1_555
O8_3 C1_5 1_555 1_555
O14_3 C77_5 1_555 1_555
O16_3 C77_5 1_555 1_555
C1_5 C2_5 1_555 1_555
C70_5 C73_5 1_555 1_555
C77_5 C70_5 1_555 1_555
Zn5_3 O1_3 1_555 1_555
Zn8_3 O16_3 1_555 1_555
Zn12_2 O8_3 1_555 1_555
Zn1_2 O3_5 1_555 1_555
Zn2 O11_5 1_555 1_555
Zn3_2 O3_5 1_555 1_555
O2_5 C18_5 1_555 1_555
O3_5 C18_5 1_555 1_555
O4_5 C27_5 1_555 1_555
O5_5 C33_5 1_555 1_555
O6_5 C43_5 1_555 1_555
O7_3 C19_5 1_555 1_555
O9_3 C19_5 1_555 1_555
O10_5 C51_5 1_555 1_555
O11_5 Zn3_2 1_555 1_555
O12_5 C54_5 1_555 1_555
O13_3 C78_5 1_555 1_555
O15_3 C78_5 1_555 1_555
N5 C25_5 1_555 1_555
N2_5 C14_5 1_555 1_555
N3_5 C41_5 1_555 1_555
N4_5 Zn1_2 1_555 1_555
C5_5 C11_5 1_555 1_555
C6_5 C13_5 1_555 1_555
C7_5 C8_5 1_555 1_555
C8_5 H3_5 1_555 1_555
C9_5 C19_5 1_555 1_555
C10_5 C7_5 1_555 1_555
H4_5 C10_5 1_555 1_555
C11_5 C8_5 1_555 1_555
C12_5 C10_5 1_555 1_555
C13_5 H5_5 1_555 1_555
C14_5 C26_5 1_555 1_555
C15_5 C5_5 1_555 1_555
H6_5 C15_5 1_555 1_555
C16_5 C6_5 1_555 1_555
H7_5 C16_5 1_555 1_555
C17_5 C12_5 1_555 1_555
C18_5 C6_5 1_555 1_555
C20_5 C9_5 1_555 1_555
H8_5 C20_5 1_555 1_555
C21_5 C5_5 1_555 1_555
H9_5 C21_5 1_555 1_555
C22_5 C20_5 1_555 1_555
H10_5 C22_5 1_555 1_555
C23_5 C7_5 1_555 1_555
C24_5 C11_5 1_555 1_555
H11_5 C24_5 1_555 1_555
C25_5 H12_5 1_555 1_555
C26_5 H13_5 1_555 1_555
C27_5 N2_5 1_555 1_555
C28_5 C9_5 1_555 1_555
H14_5 C28_5 1_555 1_555
C29_5 C14_5 1_555 1_555
H15_5 C29_5 1_555 1_555
C30_5 N5 1_555 1_555
H16_5 C30_5 1_555 1_555
C31_5 C4_5 1_555 1_555
H17_5 C31_5 1_555 1_555
C32_5 C3_5 1_555 1_555
H18_5 C32_5 1_555 1_555
C33_5 N2_5 1_555 1_555
C34_5 C23_5 1_555 1_555
H19_5 C34_5 1_555 1_555
C35_5 C38_5 1_555 1_555
C36_5 C37_5 1_555 1_555
C37_5 C27_5 1_555 1_555
C38_5 C36_5 1_555 1_555
C39_5 C38_5 1_555 1_555
C40_5 C33_5 1_555 1_555
C41_5 C47_5 1_555 1_555
C42_5 C37_5 1_555 1_555
H20_5 C42_5 1_555 1_555
C43_5 N3_5 1_555 1_555
C44_5 C35_5 1_555 1_555
H21_5 C44_5 1_555 1_555
C45_5 C40_5 1_555 1_555
H22_5 C45_5 1_555 1_555
C46_5 C39_5 1_555 1_555
H23_5 C46_5 1_555 1_555
C47_5 H24_5 1_555 1_555
C48_5 C41_5 1_555 1_555
H25_5 C48_5 1_555 1_555
C49_5 N4_5 1_555 1_555
H26_5 C49_5 1_555 1_555
C50_5 N4_5 1_555 1_555
H27_5 C50_5 1_555 1_555
C51_5 N3_5 1_555 1_555
C52_5 C53_5 1_555 1_555
C53_5 H28_5 1_555 1_555
C54_5 O11_5 1_555 1_555
C55_5 C52_5 1_555 1_555
H29_5 C55_5 1_555 1_555
C56_5 C58_5 1_555 1_555
C57_5 C53_5 1_555 1_555
H30_5 C57_5 1_555 1_555
C58_5 C57_5 1_555 1_555
C59_5 C55_5 1_555 1_555
H31_5 C59_5 1_555 1_555
C60_5 C56_5 1_555 1_555
H32_5 C60_5 1_555 1_555
C61_5 H33_5 1_555 1_555
C62_5 C61_5 1_555 1_555
C63_5 C62_5 1_555 1_555
C64_5 C60_5 1_555 1_555
C65_5 C64_5 1_555 1_555
C66_5 C56_5 1_555 1_555
H34_5 C66_5 1_555 1_555
C67_5 C68_5 1_555 1_555
C68_5 H35_5 1_555 1_555
C69_5 C65_5 1_555 1_555
H36_5 C69_5 1_555 1_555
C71_5 C67_5 1_555 1_555
H37_5 C71_5 1_555 1_555
C72_5 C63_5 1_555 1_555
H38_5 C72_5 1_555 1_555
C74_5 C63_5 1_555 1_555
H40_5 C74_5 1_555 1_555
C75_5 C65_5 1_555 1_555
H41_5 C75_5 1_555 1_555
H42_5 C76_5 1_555 1_555
C78_5 C67_5 1_555 1_555
Zn4_2 O13_3 1_555 1_555
Zn7_2 O9_3 1_555 1_555
Zn10_2 O15_3 1_555 1_555
O17_3 Zn1_2 1_555 1_555
O18_3 Zn3_2 1_555 1_555
O19_3 Zn3_2 1_555 1_555
O20_3 Zn2 1_555 1_555
O21_3 Zn1_2 1_555 1_555
O22_3 Zn3_2 1_555 1_555
O23_3 Zn3_2 1_555 1_555
O24_3 Zn2 1_555 1_555
C12_5 C24_5 1_555 1_555
C13_5 C21_5 1_555 1_555
C15_5 C16_5 1_555 1_555
C17_5 C31_5 1_555 1_555
C17_5 C32_5 1_555 1_555
C22_5 C23_5 1_555 1_555
C25_5 C29_5 1_555 1_555
C26_5 C30_5 1_555 1_555
C28_5 C34_5 1_555 1_555
C35_5 C43_5 1_555 1_555
C36_5 C40_5 1_555 1_555
C39_5 C51_5 1_555 1_555
C42_5 C44_5 1_555 1_555
C45_5 C46_5 1_555 1_555
C47_5 C49_5 1_555 1_555
C48_5 C50_5 1_555 1_555
C52_5 C54_5 1_555 1_555
C58_5 C59_5 1_555 1_555
C61_5 C64_5 1_555 1_555
C62_5 C66_5 1_555 1_555
C68_5 C69_5 1_555 1_555
C71_5 C75_5 1_555 1_555
C74_5 C76_5 1_555 1_555
O1_4 C1_6 1_555 1_555
O2_6 C18_6 1_555 1_555
O3_6 C18_6 1_555 1_555
O5_6 C33_6 1_555 1_555
O18_3 C19_6 1_555 1_555
O8_4 C1_6 1_555 1_555
O20_3 C19_6 1_555 1_555
O10_6 C51_6 1_555 1_555
N5_2 C25_6 1_555 1_555
C1_6 C2_6 1_555 1_555
C2_6 C3_6 1_555 1_555
C3_6 H1_6 1_555 1_555
C4_6 C2_6 1_555 1_555
H2_6 C4_6 1_555 1_555
C5_6 C11_6 1_555 1_555
C6_6 C13_6 1_555 1_555
C7_6 C8_6 1_555 1_555
C8_6 H3_6 1_555 1_555
C9_6 C19_6 1_555 1_555
C10_6 C7_6 1_555 1_555
H4_6 C10_6 1_555 1_555
C11_6 C8_6 1_555 1_555
C12_6 C10_6 1_555 1_555
C13_6 H5_6 1_555 1_555
C14_6 C26_6 1_555 1_555
C15_6 C5_6 1_555 1_555
H6_6 C15_6 1_555 1_555
C16_6 C6_6 1_555 1_555
H7_6 C16_6 1_555 1_555
C17_6 C12_6 1_555 1_555
C18_6 C6_6 1_555 1_555
C20_6 C9_6 1_555 1_555
H8_6 C20_6 1_555 1_555
C21_6 C5_6 1_555 1_555
H9_6 C21_6 1_555 1_555
C22_6 C20_6 1_555 1_555
H10_6 C22_6 1_555 1_555
C23_6 C7_6 1_555 1_555
C24_6 C11_6 1_555 1_555
H11_6 C24_6 1_555 1_555
C25_6 H12_6 1_555 1_555
C26_6 H13_6 1_555 1_555
C28_6 C9_6 1_555 1_555
H14_6 C28_6 1_555 1_555
C29_6 C14_6 1_555 1_555
H15_6 C29_6 1_555 1_555
C30_6 N5_2 1_555 1_555
H16_6 C30_6 1_555 1_555
C31_6 C4_6 1_555 1_555
H17_6 C31_6 1_555 1_555
C32_6 C3_6 1_555 1_555
H18_6 C32_6 1_555 1_555
C34_6 C23_6 1_555 1_555
H19_6 C34_6 1_555 1_555
C40_6 C33_6 1_555 1_555
C45_6 C40_6 1_555 1_555
H22_6 C45_6 1_555 1_555
C46_6 C39_6 1_555 1_555
H23_6 C46_6 1_555 1_555
Zn5_4 O1_4 1_555 1_555
Zn11_2 O8_4 1_555 1_555
O24_4 Zn7_2 1_555 1_555
C12_6 C24_6 1_555 1_555
C13_6 C21_6 1_555 1_555
C15_6 C16_6 1_555 1_555
C17_6 C31_6 1_555 1_555
C17_6 C32_6 1_555 1_555
C22_6 C23_6 1_555 1_555
C25_6 C29_6 1_555 1_555
C26_6 C30_6 1_555 1_555
C28_6 C34_6 1_555 1_555
C39_6 C51_6 1_555 1_555
C45_6 C46_6 1_555 1_555
O4_6 C27_6 1_555 1_555
O6_6 C43_6 1_555 1_555
O11_6 Zn10_2 1_555 1_555
O12_6 C54_6 1_555 1_555
O21_3 C78_6 1_555 1_555
O14_4 C77_6 1_555 1_555
O23_3 C78_6 1_555 1_555
O16_4 C77_6 1_555 1_555
N3_6 C41_6 1_555 1_555
N4_6 Zn4_2 1_555 1_555
C27_6 N2_6 1_555 1_555
C35_6 C38_6 1_555 1_555
C36_6 C37_6 1_555 1_555
C37_6 C27_6 1_555 1_555
C38_6 C36_6 1_555 1_555
C41_6 C47_6 1_555 1_555
C42_6 C37_6 1_555 1_555
H20_6 C42_6 1_555 1_555
C43_6 N3_6 1_555 1_555
C44_6 C35_6 1_555 1_555
H21_6 C44_6 1_555 1_555
C47_6 H24_6 1_555 1_555
C48_6 C41_6 1_555 1_555
H25_6 C48_6 1_555 1_555
C49_6 N4_6 1_555 1_555
H26_6 C49_6 1_555 1_555
C50_6 N4_6 1_555 1_555
H27_6 C50_6 1_555 1_555
C52_6 C53_6 1_555 1_555
C53_6 H28_6 1_555 1_555
C54_6 O11_6 1_555 1_555
C55_6 C52_6 1_555 1_555
H29_6 C55_6 1_555 1_555
C56_6 C58_6 1_555 1_555
C57_6 C53_6 1_555 1_555
H30_6 C57_6 1_555 1_555
C58_6 C57_6 1_555 1_555
C59_6 C55_6 1_555 1_555
H31_6 C59_6 1_555 1_555
C60_6 C56_6 1_555 1_555
H32_6 C60_6 1_555 1_555
C61_6 H33_6 1_555 1_555
C62_6 C61_6 1_555 1_555
C63_6 C62_6 1_555 1_555
C64_6 C60_6 1_555 1_555
C65_6 C64_6 1_555 1_555
C66_6 C56_6 1_555 1_555
H34_6 C66_6 1_555 1_555
C67_6 C68_6 1_555 1_555
C68_6 H35_6 1_555 1_555
C69_6 C65_6 1_555 1_555
H36_6 C69_6 1_555 1_555
C70_6 C73_6 1_555 1_555
C71_6 C67_6 1_555 1_555
H37_6 C71_6 1_555 1_555
C72_6 C63_6 1_555 1_555
H38_6 C72_6 1_555 1_555
C73_6 C72_6 1_555 1_555
C74_6 C63_6 1_555 1_555
H40_6 C74_6 1_555 1_555
C75_6 C65_6 1_555 1_555
H41_6 C75_6 1_555 1_555
C76_6 C70_6 1_555 1_555
H42_6 C76_6 1_555 1_555
C77_6 C70_6 1_555 1_555
C78_6 C67_6 1_555 1_555
Zn8_4 O16_4 1_555 1_555
Zn11_2 O14_4 1_555 1_555
O17_4 Zn4_2 1_555 1_555
O19_4 Zn10_2 1_555 1_555
C35_6 C43_6 1_555 1_555
C42_6 C44_6 1_555 1_555
C47_6 C49_6 1_555 1_555
C48_6 C50_6 1_555 1_555
C52_6 C54_6 1_555 1_555
C58_6 C59_6 1_555 1_555
C61_6 C64_6 1_555 1_555
C62_6 C66_6 1_555 1_555
C68_6 C69_6 1_555 1_555
C71_6 C75_6 1_555 1_555
C74_6 C76_6 1_555 1_555
Zn5_4 O3_7 1_555 1_555
Zn8_4 O11_7 1_555 1_555
Zn11_2 O3_7 1_555 1_555
O17_4 C1_7 1_555 1_555
O2_7 C18_7 1_555 1_555
O3_7 C18_7 1_555 1_555
O4_7 C27_7 1_555 1_555
O5_7 C33_7 1_555 1_555
O6_7 C43_7 1_555 1_555
O7_4 C19_7 1_555 1_555
O19_4 C1_7 1_555 1_555
O9_4 C19_7 1_555 1_555
O10_7 C51_7 1_555 1_555
O11_7 Zn11_2 1_555 1_555
O12_7 C54_7 1_555 1_555
O13_4 C78_7 1_555 1_555
O22_4 C77_7 1_555 1_555
O15_4 C78_7 1_555 1_555
O24_4 C77_7 1_555 1_555
N5_3 C25_7 1_555 1_555
N2_7 C14_7 1_555 1_555
N3_7 C41_7 1_555 1_555
N4_7 Zn5_4 1_555 1_555
C1_7 C2_7 1_555 1_555
C2_7 C3_7 1_555 1_555
C3_7 H1_7 1_555 1_555
C4_7 C2_7 1_555 1_555
H2_7 C4_7 1_555 1_555
C5_7 C11_7 1_555 1_555
C6_7 C13_7 1_555 1_555
C7_7 C8_7 1_555 1_555
C8_7 H3_7 1_555 1_555
C9_7 C19_7 1_555 1_555
C10_7 C7_7 1_555 1_555
H4_7 C10_7 1_555 1_555
C11_7 C8_7 1_555 1_555
C12_7 C10_7 1_555 1_555
C13_7 H5_7 1_555 1_555
C14_7 C26_7 1_555 1_555
C15_7 C5_7 1_555 1_555
H6_7 C15_7 1_555 1_555
C16_7 C6_7 1_555 1_555
H7_7 C16_7 1_555 1_555
C17_7 C12_7 1_555 1_555
C18_7 C6_7 1_555 1_555
C20_7 C9_7 1_555 1_555
H8_7 C20_7 1_555 1_555
C21_7 C5_7 1_555 1_555
H9_7 C21_7 1_555 1_555
C22_7 C20_7 1_555 1_555
H10_7 C22_7 1_555 1_555
C23_7 C7_7 1_555 1_555
C24_7 C11_7 1_555 1_555
H11_7 C24_7 1_555 1_555
C25_7 H12_7 1_555 1_555
C26_7 H13_7 1_555 1_555
C27_7 N2_7 1_555 1_555
C28_7 C9_7 1_555 1_555
H14_7 C28_7 1_555 1_555
C29_7 C14_7 1_555 1_555
H15_7 C29_7 1_555 1_555
C30_7 N5_3 1_555 1_555
H16_7 C30_7 1_555 1_555
C31_7 C4_7 1_555 1_555
H17_7 C31_7 1_555 1_555
C32_7 C3_7 1_555 1_555
H18_7 C32_7 1_555 1_555
C33_7 N2_7 1_555 1_555
C34_7 C23_7 1_555 1_555
H19_7 C34_7 1_555 1_555
C35_7 C38_7 1_555 1_555
C36_7 C37_7 1_555 1_555
C37_7 C27_7 1_555 1_555
C38_7 C36_7 1_555 1_555
C39_7 C38_7 1_555 1_555
C40_7 C33_7 1_555 1_555
C41_7 C47_7 1_555 1_555
C42_7 C37_7 1_555 1_555
H20_7 C42_7 1_555 1_555
C43_7 N3_7 1_555 1_555
C44_7 C35_7 1_555 1_555
H21_7 C44_7 1_555 1_555
C45_7 C40_7 1_555 1_555
H22_7 C45_7 1_555 1_555
C46_7 C39_7 1_555 1_555
H23_7 C46_7 1_555 1_555
C47_7 H24_7 1_555 1_555
C48_7 C41_7 1_555 1_555
H25_7 C48_7 1_555 1_555
C49_7 N4_7 1_555 1_555
H26_7 C49_7 1_555 1_555
C50_7 N4_7 1_555 1_555
H27_7 C50_7 1_555 1_555
C51_7 N3_7 1_555 1_555
C52_7 C53_7 1_555 1_555
C53_7 H28_7 1_555 1_555
C54_7 O11_7 1_555 1_555
C55_7 C52_7 1_555 1_555
H29_7 C55_7 1_555 1_555
C56_7 C58_7 1_555 1_555
C57_7 C53_7 1_555 1_555
H30_7 C57_7 1_555 1_555
C58_7 C57_7 1_555 1_555
C59_7 C55_7 1_555 1_555
H31_7 C59_7 1_555 1_555
C60_7 C56_7 1_555 1_555
H32_7 C60_7 1_555 1_555
C61_7 H33_7 1_555 1_555
C62_7 C61_7 1_555 1_555
C63_7 C62_7 1_555 1_555
C64_7 C60_7 1_555 1_555
C65_7 C64_7 1_555 1_555
C66_7 C56_7 1_555 1_555
H34_7 C66_7 1_555 1_555
C67_7 C68_7 1_555 1_555
C68_7 H35_7 1_555 1_555
C69_7 C65_7 1_555 1_555
H36_7 C69_7 1_555 1_555
C70_7 C73_7 1_555 1_555
C71_7 C67_7 1_555 1_555
H37_7 C71_7 1_555 1_555
C72_7 C63_7 1_555 1_555
H38_7 C72_7 1_555 1_555
C73_7 C72_7 1_555 1_555
C74_7 C63_7 1_555 1_555
H40_7 C74_7 1_555 1_555
C75_7 C65_7 1_555 1_555
H41_7 C75_7 1_555 1_555
C76_7 C70_7 1_555 1_555
H42_7 C76_7 1_555 1_555
C77_7 C70_7 1_555 1_555
C78_7 C67_7 1_555 1_555
Zn5_3 O13_4 1_555 1_555
Zn8_3 O9_4 1_555 1_555
Zn12_2 O15_4 1_555 1_555
O18_4 Zn11_2 1_555 1_555
O20_4 Zn8_4 1_555 1_555
O21_4 Zn5_4 1_555 1_555
O23_4 Zn11_2 1_555 1_555
C12_7 C24_7 1_555 1_555
C13_7 C21_7 1_555 1_555
C15_7 C16_7 1_555 1_555
C17_7 C31_7 1_555 1_555
C17_7 C32_7 1_555 1_555
C22_7 C23_7 1_555 1_555
C25_7 C29_7 1_555 1_555
C26_7 C30_7 1_555 1_555
C28_7 C34_7 1_555 1_555
C35_7 C43_7 1_555 1_555
C36_7 C40_7 1_555 1_555
C39_7 C51_7 1_555 1_555
C42_7 C44_7 1_555 1_555
C45_7 C46_7 1_555 1_555
C47_7 C49_7 1_555 1_555
C48_7 C50_7 1_555 1_555
C52_7 C54_7 1_555 1_555
C58_7 C59_7 1_555 1_555
C61_7 C64_7 1_555 1_555
C62_7 C66_7 1_555 1_555
C68_7 C69_7 1_555 1_555
C71_7 C75_7 1_555 1_555
C74_7 C76_7 1_555 1_555
O4_8 C27_8 1_555 1_555
O6_8 C43_8 1_555 1_555
O11_8 Zn12_2 1_555 1_555
O12_8 C54_8 1_555 1_555
O21_4 C78_8 1_555 1_555
O23_4 C78_8 1_555 1_555
N3_8 C41_8 1_555 1_555
N4_8 Zn5_3 1_555 1_555
C27_8 N2_8 1_555 1_555
C35_8 C38_8 1_555 1_555
C36_8 C37_8 1_555 1_555
C37_8 C27_8 1_555 1_555
C38_8 C36_8 1_555 1_555
C41_8 C47_8 1_555 1_555
C42_8 C37_8 1_555 1_555
H20_8 C42_8 1_555 1_555
C43_8 N3_8 1_555 1_555
C44_8 C35_8 1_555 1_555
H21_8 C44_8 1_555 1_555
C47_8 H24_8 1_555 1_555
C48_8 C41_8 1_555 1_555
H25_8 C48_8 1_555 1_555
C49_8 N4_8 1_555 1_555
H26_8 C49_8 1_555 1_555
C50_8 N4_8 1_555 1_555
H27_8 C50_8 1_555 1_555
C52_8 C53_8 1_555 1_555
C53_8 H28_8 1_555 1_555
C54_8 O11_8 1_555 1_555
C55_8 C52_8 1_555 1_555
H29_8 C55_8 1_555 1_555
C56_8 C58_8 1_555 1_555
C57_8 C53_8 1_555 1_555
H30_8 C57_8 1_555 1_555
C58_8 C57_8 1_555 1_555
C59_8 C55_8 1_555 1_555
H31_8 C59_8 1_555 1_555
C60_8 C56_8 1_555 1_555
H32_8 C60_8 1_555 1_555
C61_8 H33_8 1_555 1_555
C62_8 C61_8 1_555 1_555
C63_8 C62_8 1_555 1_555
C64_8 C60_8 1_555 1_555
C65_8 C64_8 1_555 1_555
C66_8 C56_8 1_555 1_555
H34_8 C66_8 1_555 1_555
C67_8 C68_8 1_555 1_555
C68_8 H35_8 1_555 1_555
C69_8 C65_8 1_555 1_555
H36_8 C69_8 1_555 1_555
C71_8 C67_8 1_555 1_555
H37_8 C71_8 1_555 1_555
C72_8 C63_8 1_555 1_555
H38_8 C72_8 1_555 1_555
C74_8 C63_8 1_555 1_555
H40_8 C74_8 1_555 1_555
C75_8 C65_8 1_555 1_555
H41_8 C75_8 1_555 1_555
H42_8 C76_8 1_555 1_555
C78_8 C67_8 1_555 1_555
C35_8 C43_8 1_555 1_555
C42_8 C44_8 1_555 1_555
C47_8 C49_8 1_555 1_555
C48_8 C50_8 1_555 1_555
C52_8 C54_8 1_555 1_555
C58_8 C59_8 1_555 1_555
C61_8 C64_8 1_555 1_555
C62_8 C66_8 1_555 1_555
C68_8 C69_8 1_555 1_555
C71_8 C75_8 1_555 1_555
C74_8 C76_8 1_555 1_555
O22_3 C77_8 1_555 1_555
O24_3 C77_8 1_555 1_555
C70_8 C73_8 1_555 1_555
C77_8 C70_8 1_555 1_555
O2_8 C18_8 1_555 1_555
O3_8 C18_8 1_555 1_555
O5_8 C33_8 1_555 1_555
O18_4 C19_8 1_555 1_555
O20_4 C19_8 1_555 1_555
O10_8 C51_8 1_555 1_555
N5_4 C25_8 1_555 1_555
C5_8 C11_8 1_555 1_555
C6_8 C13_8 1_555 1_555
C7_8 C8_8 1_555 1_555
C8_8 H3_8 1_555 1_555
C9_8 C19_8 1_555 1_555
C10_8 C7_8 1_555 1_555
H4_8 C10_8 1_555 1_555
C11_8 C8_8 1_555 1_555
C12_8 C10_8 1_555 1_555
C13_8 H5_8 1_555 1_555
C14_8 C26_8 1_555 1_555
C15_8 C5_8 1_555 1_555
H6_8 C15_8 1_555 1_555
C16_8 C6_8 1_555 1_555
H7_8 C16_8 1_555 1_555
C17_8 C12_8 1_555 1_555
C18_8 C6_8 1_555 1_555
C20_8 C9_8 1_555 1_555
H8_8 C20_8 1_555 1_555
C21_8 C5_8 1_555 1_555
H9_8 C21_8 1_555 1_555
C22_8 C20_8 1_555 1_555
H10_8 C22_8 1_555 1_555
C23_8 C7_8 1_555 1_555
C24_8 C11_8 1_555 1_555
H11_8 C24_8 1_555 1_555
C25_8 H12_8 1_555 1_555
C26_8 H13_8 1_555 1_555
C28_8 C9_8 1_555 1_555
H14_8 C28_8 1_555 1_555
C29_8 C14_8 1_555 1_555
H15_8 C29_8 1_555 1_555
C30_8 N5_4 1_555 1_555
H16_8 C30_8 1_555 1_555
C31_8 C4_8 1_555 1_555
H17_8 C31_8 1_555 1_555
C32_8 C3_8 1_555 1_555
H18_8 C32_8 1_555 1_555
C34_8 C23_8 1_555 1_555
H19_8 C34_8 1_555 1_555
C40_8 C33_8 1_555 1_555
C45_8 C40_8 1_555 1_555
H22_8 C45_8 1_555 1_555
C46_8 C39_8 1_555 1_555
H23_8 C46_8 1_555 1_555
C12_8 C24_8 1_555 1_555
C13_8 C21_8 1_555 1_555
C15_8 C16_8 1_555 1_555
C17_8 C31_8 1_555 1_555
C17_8 C32_8 1_555 1_555
C22_8 C23_8 1_555 1_555
C25_8 C29_8 1_555 1_555
C26_8 C30_8 1_555 1_555
C28_8 C34_8 1_555 1_555
C39_8 C51_8 1_555 1_555
C45_8 C46_8 1_555 1_555
O17_3 C1_8 1_555 1_555
O19_3 C1_8 1_555 1_555
C1_8 C2_8 1_555 1_555

#END
