
###############################################################################
#
# This file contains modified crystal structure data generated from the
# MOF subset of the Cambridge Structural Database (CSD) v543 
# hosted by the Cambridge Crystallographic Data Centre (CCDC).
#
# This work is licensed under the Creative Commons
# Attribution-NonCommercial-ShareAlike 4.0 International License.
# To view a copy of this license, visit
# http://creativecommons.org/licenses/by-nc-sa/4.0/
# or send a letter to
# Creative Commons, PO Box 1866, Mountain View, CA 94042, USA.
#
# CIF created using the CSD Python API on 29 September 2022
# The structure has been converted into the P1 space group
# The structure has a 3D framework
# The original CSD entry KOSROC is in the orthorhombic crystal system
# The framework has been calculated to contain at least 10.0% void space
# The void calculation uses a probe of radius 1.32A, grid spacing 0.4
#
###############################################################################

data_KOSROC
_chemical_formula_moiety         '(C528 H320 N16 O96 Zn24)n'
_symmetry_cell_setting           triclinic
_symmetry_space_group_name_H-M   'P 1'
_symmetry_Int_Tables_number      1
_space_group_name_Hall           'P 1'
loop_
_symmetry_equiv_pos_site_id
_symmetry_equiv_pos_as_xyz
1 x,y,z
_cell_length_a                   31.8382(4)
_cell_length_b                   28.3102(3)
_cell_length_c                   19.3354(3)
_cell_angle_alpha                90
_cell_angle_beta                 90
_cell_angle_gamma                90
_cell_volume                     17427.9
loop_
_atom_site_label
_atom_site_type_symbol
_atom_site_fract_x
_atom_site_fract_y
_atom_site_fract_z
N2 N 0.1172(3) 0.4679(3) 0.0828(5)
C63 C 0.1502(4) 0.4801(3) 0.0432(6)
H37 H 0.1755 0.4869 0.0650
C66 C 0.0831(4) 0.4585(4) 0.0447(7)
H40 H 0.0592 0.4492 0.0691
Zn9 Zn 0.11988(3) 0.46523(3) 0.18592(5)
Zn1 Zn 0.12303(3) 0.52909(3) 0.50081(5)
Zn2 Zn 0.11250(3) 0.49782(2) 0.34529(5)
O1 O 0.11541(14) 0.46972(16) 0.4474(3)
O2 O 0.06446(16) 0.45413(17) 0.3174(3)
O3 O 0.06829(17) 0.43025(19) 0.2073(3)
O4 O 0.17574(17) 0.45784(18) 0.5036(3)
O8 O 0.33962(16) 0.04696(18) 0.3155(3)
O9 O 0.33491(16) 0.07708(18) 0.2108(3)
N1 N 0.12486(18) 0.5172(2) 0.6029(4)
C1 C 0.0129(2) 0.4012(2) 0.2771(4)
C2 C 0.1456(2) 0.3916(2) 0.4469(4)
C3 C 0.2834(2) 0.0983(2) 0.2940(5)
C5 C 0.1475(2) 0.4426(2) 0.4661(3)
C6 C 0.3219(2) 0.0727(2) 0.2717(4)
C7 C 0.0517(2) 0.4307(2) 0.2648(4)
C10 C 0.1779(2) 0.3155(2) 0.4433(4)
H2 H 0.2012 0.2966 0.4521
C11 C 0.1419(2) 0.2957(2) 0.4138(4)
C15 C 0.1790(2) 0.3627(2) 0.4595(4)
H5 H 0.2031 0.3753 0.4796
C16 C 0.0341(2) 0.1514(2) 0.4584(4)
H6 H 0.0409 0.1748 0.4904
C18 C 0.0605(2) 0.1444(2) 0.4030(5)
C22 C 0.1746(2) 0.2205(2) 0.3732(4)
H8 H 0.1993 0.2372 0.3650
C25 C 0.1369(2) 0.1483(2) 0.3715(4)
H10 H 0.1363 0.1158 0.3645
C26 C 0.1005(2) 0.1710(2) 0.3927(4)
C27 C 0.1326(4) 0.4898(5) 0.8211(7)
H11 H 0.1593 0.4932 0.8399
C28 C 0.1097(2) 0.3730(2) 0.4165(5)
H12 H 0.0868 0.3923 0.4070
C32 C 0.1398(2) 0.2443(2) 0.3979(5)
C34 C 0.1029(2) 0.2191(2) 0.4084(4)
H15 H 0.0794 0.2345 0.4261
C36 C 0.2218(2) 0.1023(2) 0.3652(5)
H17 H 0.2043 0.0884 0.3978
C41 C 0.1736(2) 0.1725(2) 0.3603(4)
C42 C 0.1084(2) 0.3253(2) 0.4006(5)
H21 H 0.0843 0.3129 0.3805
C43 C 0.2580(2) 0.0799(2) 0.3441(4)
H22 H 0.2654 0.0514 0.3646
C44 C 0.2735(3) 0.1417(3) 0.2643(5)
H23 H 0.2904 0.1540 0.2294
C45 C 0.0475(3) 0.1105(3) 0.3550(5)
H24 H 0.0643 0.1051 0.3165
C49 C 0.2118(2) 0.1464(2) 0.3367(4)
C51 C 0.0119(2) 0.0855(3) 0.3617(4)
H27 H 0.0040 0.0643 0.3273
C54 C 0.0003(3) 0.3692(3) 0.2269(6)
H30 H 0.0168 0.3646 0.1877
C55 C 0.2389(3) 0.1663(3) 0.2864(5)
H31 H 0.2332 0.1961 0.2684
C56 C 0.1615(3) 0.5135(3) 0.6380(4)
H32 H 0.1861 0.5173 0.6129
C57 C 0.0903(3) 0.5098(3) 0.6395(5)
H33 H 0.0645 0.5108 0.6171
C58 C 0.0913(4) 0.5007(4) 0.7100(5)
H34 H 0.0663 0.4965 0.7340
C59 C 0.1652(3) 0.5049(3) 0.7051(5)
H35 H 0.1913 0.5034 0.7264
C60 C 0.1275(4) 0.4981(3) 0.7433(6)
C61 C 0.1100(4) 0.4725(4) 0.9382(7)
C62 C 0.1021(4) 0.4782(5) 0.8630(7)
H36 H 0.0752 0.4734 0.8455
C64 C 0.1487(4) 0.4830(4) 0.9759(6)
H38 H 0.1726 0.4918 0.9515
C65 C 0.0791(5) 0.4607(4) 0.9774(7)
H39 H 0.0534 0.4535 0.9574
Zn6 Zn 0.38750(3) 0.00218(2) 0.34529(5)
Zn10 Zn 0.38012(3) 0.03477(3) 0.18592(5)
O13 O 0.16201(16) 0.54232(17) 0.3660(3)
O14 O 0.11245(17) 0.52546(16) 0.2366(3)
O15 O 0.06696(16) 0.54348(18) 0.3768(3)
O16 O 0.16038(16) 0.45304(18) 0.3155(3)
O17 O 0.16509(16) 0.42292(18) 0.2108(3)
O18 O 0.16516(16) 0.57382(16) 0.4708(3)
O19 O 0.06861(15) 0.56143(17) 0.4890(3)
O5 O 0.66201(16) 0.45768(17) 0.3660(3)
O6 O 0.88755(17) 0.02546(16) 0.2366(3)
O7 O 0.93304(16) 0.04348(18) 0.3768(3)
O10 O 0.66516(16) 0.42618(16) 0.4708(3)
O11 O 0.93139(15) 0.06143(17) 0.4890(3)
O12 O 0.82900(19) 0.03726(17) 0.1787(3)
C4 C 0.8581(2) 0.1991(2) 0.2777(4)
C8 C 0.8617(2) 0.3466(2) 0.3224(4)
H1 H 0.8626 0.3788 0.3321
C9 C 0.8572(2) 0.0522(2) 0.2170(3)
C12 C 0.7753(2) 0.3909(2) 0.3151(4)
H3 H 0.7924 0.4020 0.2796
C13 C 0.8239(2) 0.1791(2) 0.2416(5)
H4 H 0.8011 0.1981 0.2299
C14 C 0.6775(2) 0.4303(2) 0.4102(4)
C17 C 0.8575(2) 0.1027(2) 0.2382(4)
C19 C 0.9864(2) 0.0915(2) 0.4206(4)
C20 C 0.8987(2) 0.3231(2) 0.3015(4)
C21 C 0.8916(2) 0.1218(2) 0.2745(4)
H7 H 0.9141 0.1026 0.2865
C23 C 0.8240(2) 0.3224(2) 0.3287(4)
C24 C 0.8970(2) 0.2747(2) 0.2871(5)
H9 H 0.9212 0.2591 0.2728
C29 C 0.7151(2) 0.4011(2) 0.3883(4)
C30 C 0.9897(2) 0.4053(3) 0.3369(4)
H13 H 0.9992 0.4248 0.3723
C31 C 0.8237(2) 0.2743(2) 0.3147(4)
H14 H 0.7986 0.2577 0.3192
C33 C 0.9471(2) 0.0636(2) 0.4310(3)
C35 C 0.7244(3) 0.3592(3) 0.4209(5)
H16 H 0.7079 0.3490 0.4577
C37 C 0.9981(2) 0.1253(2) 0.4683(5)
H18 H 0.9816 0.1305 0.5072
C38 C 0.7412(2) 0.4165(2) 0.3339(4)
H19 H 0.7351 0.4445 0.3108
C39 C 0.8234(2) 0.1322(2) 0.2236(4)
H20 H 0.8000 0.1198 0.2014
C40 C 0.9389(2) 0.3490(2) 0.2926(4)
C46 C 0.8596(2) 0.2498(2) 0.2941(4)
C47 C 0.9529(2) 0.3808(3) 0.3449(4)
H25 H 0.9369 0.3851 0.3846
C48 C 0.7580(2) 0.3323(3) 0.3991(5)
H26 H 0.7624 0.3029 0.4192
C50 C 0.7857(2) 0.3481(2) 0.3474(4)
C52 C 0.8919(2) 0.1692(2) 0.2926(5)
H28 H 0.9152 0.1814 0.3153
C53 C 0.9635(3) 0.3443(3) 0.2346(5)
H29 H 0.9551 0.3237 0.1998
Zn4 Zn 0.87697(3) 0.02909(3) 0.50081(5)
Zn5 Zn 0.62303(3) 0.47091(3) 0.50081(5)
Zn8 Zn 0.61250(3) 0.50218(2) 0.34529(5)
Zn7 Zn 0.88750(3) 0.99782(2) 0.34529(5)
Zn11 Zn 0.88012(3) 0.96523(3) 0.18592(5)
N2_2 N 0.3828(3) 0.0321(3) 0.0828(5)
C63_2 C 0.3498(4) 0.0199(3) 0.0432(6)
H37_2 H 0.3245 0.0131 0.0650
C66_2 C 0.4169(4) 0.0415(4) 0.0447(7)
H40_2 H 0.4408 0.0508 0.0691
O1_2 O 0.38459(14) 0.03028(16) 0.4474(3)
O2_2 O 0.43554(16) 0.04587(17) 0.3174(3)
O3_2 O 0.43171(17) 0.06975(19) 0.2073(3)
O4_2 O 0.32426(17) 0.04216(18) 0.5036(3)
O5_2 O 0.83799(16) 0.04232(17) 0.3660(3)
O6_2 O 0.61245(17) 0.47454(16) 0.2366(3)
O7_2 O 0.56696(16) 0.45652(18) 0.3768(3)
O10_2 O 0.83484(16) 0.07382(16) 0.4708(3)
O11_2 O 0.56861(15) 0.43857(17) 0.4890(3)
O12_2 O 0.67100(19) 0.46274(17) 0.1787(3)
C1_2 C 0.4871(2) 0.0988(2) 0.2771(4)
C2_2 C 0.3544(2) 0.1084(2) 0.4469(4)
C3_2 C 0.2166(2) 0.4017(2) 0.2940(5)
C4_2 C 0.6419(2) 0.3009(2) 0.2777(4)
C5_2 C 0.3525(2) 0.0574(2) 0.4661(3)
C6_2 C 0.1781(2) 0.4273(2) 0.2717(4)
C7_2 C 0.4483(2) 0.0693(2) 0.2648(4)
C8_2 C 0.6383(2) 0.1534(2) 0.3224(4)
H1_2 H 0.6374 0.1212 0.3321
C9_2 C 0.6428(2) 0.4478(2) 0.2170(3)
C10_2 C 0.3221(2) 0.1845(2) 0.4433(4)
H2_2 H 0.2988 0.2034 0.4521
C11_2 C 0.3581(2) 0.2043(2) 0.4138(4)
C12_2 C 0.7247(2) 0.1091(2) 0.3151(4)
H3_2 H 0.7076 0.0980 0.2796
C13_2 C 0.6761(2) 0.3209(2) 0.2416(5)
H4_2 H 0.6989 0.3019 0.2299
C14_2 C 0.8225(2) 0.0697(2) 0.4102(4)
C15_2 C 0.3210(2) 0.1373(2) 0.4595(4)
H5_2 H 0.2969 0.1247 0.4796
C16_2 C 0.4659(2) 0.3486(2) 0.4584(4)
H6_2 H 0.4591 0.3252 0.4904
C17_2 C 0.6425(2) 0.3973(2) 0.2382(4)
C18_2 C 0.4395(2) 0.3556(2) 0.4030(5)
C19_2 C 0.5136(2) 0.4085(2) 0.4206(4)
C20_2 C 0.6013(2) 0.1769(2) 0.3015(4)
C21_2 C 0.6084(2) 0.3782(2) 0.2745(4)
H7_2 H 0.5859 0.3974 0.2865
C22_2 C 0.3254(2) 0.2795(2) 0.3732(4)
H8_2 H 0.3007 0.2628 0.3650
C23_2 C 0.6760(2) 0.1776(2) 0.3287(4)
C24_2 C 0.6030(2) 0.2253(2) 0.2871(5)
H9_2 H 0.5788 0.2409 0.2728
C25_2 C 0.3631(2) 0.3517(2) 0.3715(4)
H10_2 H 0.3637 0.3842 0.3645
C26_2 C 0.3995(2) 0.3290(2) 0.3927(4)
C27_2 C 0.3674(4) 0.0102(5) 0.8211(7)
H11_2 H 0.3407 0.0068 0.8399
C28_2 C 0.3903(2) 0.1270(2) 0.4165(5)
H12_2 H 0.4132 0.1077 0.4070
C29_2 C 0.7849(2) 0.0989(2) 0.3883(4)
C30_2 C 0.5103(2) 0.0947(3) 0.3369(4)
H13_2 H 0.5008 0.0752 0.3723
C31_2 C 0.6763(2) 0.2257(2) 0.3147(4)
H14_2 H 0.7014 0.2423 0.3192
C32_2 C 0.3602(2) 0.2557(2) 0.3979(5)
C33_2 C 0.5529(2) 0.4364(2) 0.4310(3)
C34_2 C 0.3971(2) 0.2809(2) 0.4084(4)
H15_2 H 0.4206 0.2655 0.4261
C35_2 C 0.7756(3) 0.1408(3) 0.4209(5)
H16_2 H 0.7921 0.1510 0.4577
C36_2 C 0.2782(2) 0.3977(2) 0.3652(5)
H17_2 H 0.2957 0.4116 0.3978
C37_2 C 0.5019(2) 0.3747(2) 0.4683(5)
H18_2 H 0.5184 0.3695 0.5072
C38_2 C 0.7588(2) 0.0835(2) 0.3339(4)
H19_2 H 0.7649 0.0555 0.3108
C39_2 C 0.6766(2) 0.3678(2) 0.2236(4)
H20_2 H 0.7000 0.3802 0.2014
C40_2 C 0.5611(2) 0.1510(2) 0.2926(4)
C41_2 C 0.3264(2) 0.3275(2) 0.3603(4)
C42_2 C 0.3916(2) 0.1747(2) 0.4006(5)
H21_2 H 0.4157 0.1871 0.3805
C43_2 C 0.2420(2) 0.4201(2) 0.3441(4)
H22_2 H 0.2346 0.4486 0.3646
C44_2 C 0.2265(3) 0.3583(3) 0.2643(5)
H23_2 H 0.2096 0.3460 0.2294
C45_2 C 0.4525(3) 0.3895(3) 0.3550(5)
H24_2 H 0.4357 0.3949 0.3165
C46_2 C 0.6404(2) 0.2502(2) 0.2941(4)
C47_2 C 0.5471(2) 0.1192(3) 0.3449(4)
H25_2 H 0.5631 0.1149 0.3846
C48_2 C 0.7420(2) 0.1677(3) 0.3991(5)
H26_2 H 0.7376 0.1971 0.4192
C49_2 C 0.2882(2) 0.3536(2) 0.3367(4)
C50_2 C 0.7143(2) 0.1519(2) 0.3474(4)
C51_2 C 0.4881(2) 0.4145(3) 0.3617(4)
H27_2 H 0.4960 0.4357 0.3273
C52_2 C 0.6081(2) 0.3308(2) 0.2926(5)
H28_2 H 0.5848 0.3186 0.3153
C53_2 C 0.5365(3) 0.1557(3) 0.2346(5)
H29_2 H 0.5449 0.1763 0.1998
C54_2 C 0.4997(3) 0.1308(3) 0.2269(6)
H30_2 H 0.4832 0.1354 0.1877
C55_2 C 0.2611(3) 0.3337(3) 0.2864(5)
H31_2 H 0.2668 0.3039 0.2684
H34_2 H 0.4337 0.0035 0.7340
C60_2 C 0.3725(4) 0.0019(3) 0.7433(6)
C61_2 C 0.3900(4) 0.0275(4) 0.9382(7)
C62_2 C 0.3979(4) 0.0218(5) 0.8630(7)
H36_2 H 0.4248 0.0266 0.8455
C64_2 C 0.3513(4) 0.0170(4) 0.9759(6)
H38_2 H 0.3274 0.0082 0.9515
C65_2 C 0.4209(5) 0.0393(4) 0.9774(7)
H39_2 H 0.4466 0.0465 0.9574
Zn11_2 Zn 0.61988(3) 0.53477(3) 0.18592(5)
Zn1_2 Zn 0.37697(3) 0.97091(3) 0.50081(5)
N1_2 N 0.37514(18) 0.9828(2) 0.6029(4)
C56_2 C 0.3385(3) 0.9865(3) 0.6380(4)
H32_2 H 0.3139 0.9827 0.6129
C57_2 C 0.4097(3) 0.9902(3) 0.6395(5)
H33_2 H 0.4355 0.9892 0.6171
C58_2 C 0.4087(4) 0.9993(4) 0.7100(5)
C59_2 C 0.3348(3) 0.9951(3) 0.7051(5)
H35_2 H 0.3087 0.9966 0.7264
O13_2 O 0.33799(16) 0.95768(17) 0.3660(3)
O14_2 O 0.38755(17) 0.97454(16) 0.2366(3)
O15_2 O 0.43304(16) 0.95652(18) 0.3768(3)
O18_2 O 0.33484(16) 0.92618(16) 0.4708(3)
O19_2 O 0.43139(15) 0.93857(17) 0.4890(3)
O12_3 O 0.17100(19) 0.53726(17) 0.1787(3)
C4_3 C 0.1419(2) 0.6991(2) 0.2777(4)
C8_3 C 0.1383(2) 0.8466(2) 0.3224(4)
H1_3 H 0.1374 0.8788 0.3321
C9_3 C 0.1428(2) 0.5522(2) 0.2170(3)
C12_3 C 0.2247(2) 0.8909(2) 0.3151(4)
H3_3 H 0.2076 0.9020 0.2796
C13_3 C 0.1761(2) 0.6791(2) 0.2416(5)
H4_3 H 0.1989 0.6981 0.2299
C14_3 C 0.3225(2) 0.9303(2) 0.4102(4)
C17_3 C 0.1425(2) 0.6027(2) 0.2382(4)
C19_3 C 0.0136(2) 0.5915(2) 0.4206(4)
C20_3 C 0.1013(2) 0.8231(2) 0.3015(4)
C21_3 C 0.1084(2) 0.6218(2) 0.2745(4)
H7_3 H 0.0859 0.6026 0.2865
C23_3 C 0.1760(2) 0.8224(2) 0.3287(4)
C24_3 C 0.1030(2) 0.7747(2) 0.2871(5)
H9_3 H 0.0788 0.7591 0.2728
C29_3 C 0.2849(2) 0.9011(2) 0.3883(4)
C30_3 C 0.0103(2) 0.9053(3) 0.3369(4)
H13_3 H 0.0008 0.9248 0.3723
C31_3 C 0.1763(2) 0.7743(2) 0.3147(4)
H14_3 H 0.2014 0.7577 0.3192
C33_3 C 0.0529(2) 0.5636(2) 0.4310(3)
C35_3 C 0.2756(3) 0.8592(3) 0.4209(5)
H16_3 H 0.2921 0.8490 0.4577
C37_3 C 0.0019(2) 0.6253(2) 0.4683(5)
H18_3 H 0.0184 0.6305 0.5072
C38_3 C 0.2588(2) 0.9165(2) 0.3339(4)
H19_3 H 0.2649 0.9445 0.3108
C39_3 C 0.1766(2) 0.6322(2) 0.2236(4)
H20_3 H 0.2000 0.6198 0.2014
C40_3 C 0.0611(2) 0.8490(2) 0.2926(4)
C46_3 C 0.1404(2) 0.7498(2) 0.2941(4)
C47_3 C 0.0471(2) 0.8808(3) 0.3449(4)
H25_3 H 0.0631 0.8851 0.3846
C48_3 C 0.2420(2) 0.8323(3) 0.3991(5)
H26_3 H 0.2376 0.8029 0.4192
C50_3 C 0.2143(2) 0.8481(2) 0.3474(4)
C52_3 C 0.1081(2) 0.6692(2) 0.2926(5)
H28_3 H 0.0848 0.6814 0.3153
C53_3 C 0.0365(3) 0.8443(3) 0.2346(5)
H29_3 H 0.0449 0.8237 0.1998
N1_3 N 0.87514(18) 0.0172(2) 0.6029(4)
C56_3 C 0.8385(3) 0.0135(3) 0.6380(4)
H32_3 H 0.8139 0.0173 0.6129
C57_3 C 0.9097(3) 0.0098(3) 0.6395(5)
H33_3 H 0.9355 0.0108 0.6171
C58_3 C 0.9087(4) 0.0007(4) 0.7100(5)
C59_3 C 0.8348(3) 0.0049(3) 0.7051(5)
H35_3 H 0.8087 0.0034 0.7264
N2_3 N 0.8828(3) 0.9679(3) 0.0828(5)
C63_3 C 0.8498(4) 0.9801(3) 0.0432(6)
H37_3 H 0.8245 0.9869 0.0650
C66_3 C 0.9169(4) 0.9585(4) 0.0447(7)
H40_3 H 0.9408 0.9492 0.0691
O1_3 O 0.88459(14) 0.96972(16) 0.4474(3)
O2_3 O 0.93554(16) 0.95413(17) 0.3174(3)
O3_3 O 0.93171(17) 0.93025(19) 0.2073(3)
O4_3 O 0.82426(17) 0.95784(18) 0.5036(3)
O8_2 O 0.66038(16) 0.54696(18) 0.3155(3)
O9_2 O 0.66509(16) 0.57708(18) 0.2108(3)
C1_3 C 0.9871(2) 0.9012(2) 0.2771(4)
C2_3 C 0.8544(2) 0.8916(2) 0.4469(4)
C3_3 C 0.7166(2) 0.5983(2) 0.2940(5)
C5_3 C 0.8525(2) 0.9426(2) 0.4661(3)
C6_3 C 0.6781(2) 0.5727(2) 0.2717(4)
C7_3 C 0.9483(2) 0.9307(2) 0.2648(4)
C10_3 C 0.8221(2) 0.8155(2) 0.4433(4)
H2_3 H 0.7988 0.7966 0.4521
C11_3 C 0.8581(2) 0.7957(2) 0.4138(4)
C15_3 C 0.8210(2) 0.8627(2) 0.4595(4)
H5_3 H 0.7969 0.8753 0.4796
C16_3 C 0.9659(2) 0.6514(2) 0.4584(4)
H6_3 H 0.9591 0.6748 0.4904
C18_3 C 0.9395(2) 0.6444(2) 0.4030(5)
C22_3 C 0.8254(2) 0.7205(2) 0.3732(4)
H8_3 H 0.8007 0.7372 0.3650
C25_3 C 0.8631(2) 0.6483(2) 0.3715(4)
H10_3 H 0.8637 0.6158 0.3645
C26_3 C 0.8995(2) 0.6710(2) 0.3927(4)
C27_3 C 0.8674(4) 0.9898(5) 0.8211(7)
H11_3 H 0.8407 0.9932 0.8399
C28_3 C 0.8903(2) 0.8730(2) 0.4165(5)
H12_3 H 0.9132 0.8923 0.4070
C32_3 C 0.8602(2) 0.7443(2) 0.3979(5)
C34_3 C 0.8971(2) 0.7191(2) 0.4084(4)
H15_3 H 0.9206 0.7345 0.4261
C36_3 C 0.7782(2) 0.6023(2) 0.3652(5)
H17_3 H 0.7957 0.5884 0.3978
C41_3 C 0.8264(2) 0.6725(2) 0.3603(4)
C42_3 C 0.8916(2) 0.8253(2) 0.4006(5)
H21_3 H 0.9157 0.8129 0.3805
C43_3 C 0.7420(2) 0.5799(2) 0.3441(4)
H22_3 H 0.7346 0.5514 0.3646
C44_3 C 0.7265(3) 0.6417(3) 0.2643(5)
H23_3 H 0.7096 0.6540 0.2294
C45_3 C 0.9525(3) 0.6105(3) 0.3550(5)
H24_3 H 0.9357 0.6051 0.3165
C49_3 C 0.7882(2) 0.6464(2) 0.3367(4)
C51_3 C 0.9881(2) 0.5855(3) 0.3617(4)
H27_3 H 0.9960 0.5643 0.3273
C54_3 C 0.9997(3) 0.8692(3) 0.2269(6)
H30_3 H 0.9832 0.8646 0.1877
C55_3 C 0.7611(3) 0.6663(3) 0.2864(5)
H31_3 H 0.7668 0.6961 0.2684
H34_3 H 0.9337 0.9965 0.7340
C60_3 C 0.8725(4) 0.9981(3) 0.7433(6)
C61_3 C 0.8900(4) 0.9725(4) 0.9382(7)
C62_3 C 0.8979(4) 0.9782(5) 0.8630(7)
H36_3 H 0.9248 0.9734 0.8455
C64_3 C 0.8513(4) 0.9830(4) 0.9759(6)
H38_3 H 0.8274 0.9918 0.9515
C65_3 C 0.9209(5) 0.9607(4) 0.9774(7)
H39_3 H 0.9466 0.9535 0.9574
O16_2 O 0.83962(16) 0.95304(18) 0.3155(3)
O17_2 O 0.83491(16) 0.92292(18) 0.2108(3)
N2_4 N 0.6172(3) 0.5321(3) 0.0828(5)
C63_4 C 0.6502(4) 0.5199(3) 0.0432(6)
H37_4 H 0.6755 0.5131 0.0650
C66_4 C 0.5831(4) 0.5415(4) 0.0447(7)
H40_4 H 0.5592 0.5508 0.0691
O1_4 O 0.61541(14) 0.53028(16) 0.4474(3)
O2_4 O 0.56446(16) 0.54587(17) 0.3174(3)
O3_4 O 0.56829(17) 0.56975(19) 0.2073(3)
O4_4 O 0.67574(17) 0.54216(18) 0.5036(3)
O12_4 O 0.32900(19) 0.96274(17) 0.1787(3)
N1_4 N 0.62486(18) 0.4828(2) 0.6029(4)
C1_4 C 0.5129(2) 0.5988(2) 0.2771(4)
C2_4 C 0.6456(2) 0.6084(2) 0.4469(4)
C3_4 C 0.7834(2) 0.9017(2) 0.2940(5)
C4_4 C 0.3581(2) 0.8009(2) 0.2777(4)
C5_4 C 0.6475(2) 0.5574(2) 0.4661(3)
C6_4 C 0.8219(2) 0.9273(2) 0.2717(4)
C7_4 C 0.5517(2) 0.5693(2) 0.2648(4)
C8_4 C 0.3617(2) 0.6534(2) 0.3224(4)
H1_4 H 0.3626 0.6212 0.3321
C9_4 C 0.3572(2) 0.9478(2) 0.2170(3)
C10_4 C 0.6779(2) 0.6845(2) 0.4433(4)
H2_4 H 0.7012 0.7034 0.4521
C11_4 C 0.6419(2) 0.7043(2) 0.4138(4)
C12_4 C 0.2753(2) 0.6091(2) 0.3151(4)
H3_4 H 0.2924 0.5980 0.2796
C13_4 C 0.3239(2) 0.8209(2) 0.2416(5)
H4_4 H 0.3011 0.8019 0.2299
C14_4 C 0.1775(2) 0.5697(2) 0.4102(4)
C15_4 C 0.6790(2) 0.6373(2) 0.4595(4)
H5_4 H 0.7031 0.6247 0.4796
C16_4 C 0.5341(2) 0.8486(2) 0.4584(4)
H6_4 H 0.5409 0.8252 0.4904
C17_4 C 0.3575(2) 0.8973(2) 0.2382(4)
C18_4 C 0.5605(2) 0.8556(2) 0.4030(5)
C19_4 C 0.4864(2) 0.9085(2) 0.4206(4)
C20_4 C 0.3987(2) 0.6769(2) 0.3015(4)
C21_4 C 0.3916(2) 0.8782(2) 0.2745(4)
H7_4 H 0.4141 0.8974 0.2865
C22_4 C 0.6746(2) 0.7795(2) 0.3732(4)
H8_4 H 0.6993 0.7628 0.3650
C23_4 C 0.3240(2) 0.6776(2) 0.3287(4)
C24_4 C 0.3970(2) 0.7253(2) 0.2871(5)
H9_4 H 0.4212 0.7409 0.2728
C25_4 C 0.6369(2) 0.8517(2) 0.3715(4)
H10_4 H 0.6363 0.8842 0.3645
C26_4 C 0.6005(2) 0.8290(2) 0.3927(4)
C27_4 C 0.6326(4) 0.5102(5) 0.8211(7)
H11_4 H 0.6593 0.5068 0.8399
C28_4 C 0.6097(2) 0.6270(2) 0.4165(5)
H12_4 H 0.5868 0.6077 0.4070
C29_4 C 0.2151(2) 0.5989(2) 0.3883(4)
C30_4 C 0.4897(2) 0.5947(3) 0.3369(4)
H13_4 H 0.4992 0.5752 0.3723
C31_4 C 0.3237(2) 0.7257(2) 0.3147(4)
H14_4 H 0.2986 0.7423 0.3192
C32_4 C 0.6398(2) 0.7557(2) 0.3979(5)
C33_4 C 0.4471(2) 0.9364(2) 0.4310(3)
C34_4 C 0.6029(2) 0.7809(2) 0.4084(4)
H15_4 H 0.5794 0.7655 0.4261
C35_4 C 0.2244(3) 0.6408(3) 0.4209(5)
H16_4 H 0.2079 0.6510 0.4577
C36_4 C 0.7218(2) 0.8977(2) 0.3652(5)
H17_4 H 0.7043 0.9116 0.3978
C37_4 C 0.4981(2) 0.8747(2) 0.4683(5)
H18_4 H 0.4816 0.8695 0.5072
C38_4 C 0.2412(2) 0.5835(2) 0.3339(4)
H19_4 H 0.2351 0.5555 0.3108
C39_4 C 0.3234(2) 0.8678(2) 0.2236(4)
H20_4 H 0.3000 0.8802 0.2014
C40_4 C 0.4389(2) 0.6510(2) 0.2926(4)
C41_4 C 0.6736(2) 0.8275(2) 0.3603(4)
C42_4 C 0.6084(2) 0.6747(2) 0.4006(5)
H21_4 H 0.5843 0.6871 0.3805
C43_4 C 0.7580(2) 0.9201(2) 0.3441(4)
H22_4 H 0.7654 0.9486 0.3646
C44_4 C 0.7735(3) 0.8583(3) 0.2643(5)
H23_4 H 0.7904 0.8460 0.2294
C45_4 C 0.5475(3) 0.8895(3) 0.3550(5)
H24_4 H 0.5643 0.8949 0.3165
C46_4 C 0.3596(2) 0.7502(2) 0.2941(4)
C47_4 C 0.4529(2) 0.6192(3) 0.3449(4)
H25_4 H 0.4369 0.6149 0.3846
C48_4 C 0.2580(2) 0.6677(3) 0.3991(5)
H26_4 H 0.2624 0.6971 0.4192
C49_4 C 0.7118(2) 0.8536(2) 0.3367(4)
C50_4 C 0.2857(2) 0.6519(2) 0.3474(4)
C51_4 C 0.5119(2) 0.9145(3) 0.3617(4)
H27_4 H 0.5040 0.9357 0.3273
C52_4 C 0.3919(2) 0.8308(2) 0.2926(5)
H28_4 H 0.4152 0.8186 0.3153
C53_4 C 0.4635(3) 0.6557(3) 0.2346(5)
H29_4 H 0.4551 0.6763 0.1998
C54_4 C 0.5003(3) 0.6308(3) 0.2269(6)
H30_4 H 0.5168 0.6354 0.1877
C55_4 C 0.7389(3) 0.8337(3) 0.2864(5)
H31_4 H 0.7332 0.8039 0.2684
C56_4 C 0.6615(3) 0.4865(3) 0.6380(4)
H32_4 H 0.6861 0.4827 0.6129
C57_4 C 0.5903(3) 0.4902(3) 0.6395(5)
H33_4 H 0.5645 0.4892 0.6171
C58_4 C 0.5913(4) 0.4993(4) 0.7100(5)
H34_4 H 0.5663 0.5035 0.7340
C59_4 C 0.6652(3) 0.4951(3) 0.7051(5)
H35_4 H 0.6913 0.4966 0.7264
C60_4 C 0.6275(4) 0.5019(3) 0.7433(6)
C61_4 C 0.6100(4) 0.5275(4) 0.9382(7)
C62_4 C 0.6021(4) 0.5218(5) 0.8630(7)
H36_4 H 0.5752 0.5266 0.8455
C64_4 C 0.6487(4) 0.5170(4) 0.9759(6)
H38_4 H 0.6726 0.5082 0.9515
C65_4 C 0.5791(5) 0.5393(4) 0.9774(7)
H39_4 H 0.5534 0.5465 0.9574
Zn2_2 Zn 0.11250(3) 0.00218(2) 0.65471(5)
Zn3 Zn 0.11988(3) 0.03477(3) 0.81408(5)
O1_5 O 0.11541(14) 0.03028(16) 0.5526(3)
O2_5 O 0.06446(16) 0.04587(17) 0.6826(3)
O3_5 O 0.06829(17) 0.06975(19) 0.7927(3)
O4_5 O 0.17574(17) 0.04216(18) 0.4964(3)
O8_3 O 0.33962(16) 0.45304(18) 0.6845(3)
O9_3 O 0.33491(16) 0.42292(18) 0.7892(3)
C1_5 C 0.0129(2) 0.0988(2) 0.7229(4)
C2_5 C 0.1456(2) 0.1084(2) 0.5531(4)
C3_5 C 0.2834(2) 0.4017(2) 0.7060(5)
C5_5 C 0.1475(2) 0.0574(2) 0.5339(3)
C6_5 C 0.3219(2) 0.4273(2) 0.7283(4)
C7_5 C 0.0517(2) 0.0693(2) 0.7352(4)
C10_5 C 0.1779(2) 0.1845(2) 0.5567(4)
H2_5 H 0.2012 0.2034 0.5479
C11_5 C 0.1419(2) 0.2043(2) 0.5862(4)
C15_5 C 0.1790(2) 0.1373(2) 0.5405(4)
H5_5 H 0.2031 0.1247 0.5204
C16_5 C 0.0341(2) 0.3486(2) 0.5416(4)
H6_5 H 0.0409 0.3252 0.5096
C18_5 C 0.0605(2) 0.3556(2) 0.5970(5)
C22_5 C 0.1746(2) 0.2795(2) 0.6268(4)
H8_5 H 0.1993 0.2628 0.6350
C25_5 C 0.1369(2) 0.3517(2) 0.6285(4)
H10_5 H 0.1363 0.3842 0.6355
C26_5 C 0.1005(2) 0.3290(2) 0.6073(4)
C27_5 C 0.1326(4) 0.0102(5) 0.1789(7)
H11_5 H 0.1593 0.0068 0.1601
C28_5 C 0.1097(2) 0.1270(2) 0.5835(5)
H12_5 H 0.0868 0.1077 0.5930
C32_5 C 0.1398(2) 0.2557(2) 0.6021(5)
C34_5 C 0.1029(2) 0.2809(2) 0.5916(4)
H15_5 H 0.0794 0.2655 0.5739
C36_5 C 0.2218(2) 0.3977(2) 0.6348(5)
H17_5 H 0.2043 0.4116 0.6022
C41_5 C 0.1736(2) 0.3275(2) 0.6397(4)
C42_5 C 0.1084(2) 0.1747(2) 0.5994(5)
H21_5 H 0.0843 0.1871 0.6195
C43_5 C 0.2580(2) 0.4201(2) 0.6559(4)
H22_5 H 0.2654 0.4486 0.6354
C44_5 C 0.2735(3) 0.3583(3) 0.7357(5)
H23_5 H 0.2904 0.3460 0.7706
C45_5 C 0.0475(3) 0.3895(3) 0.6450(5)
H24_5 H 0.0643 0.3949 0.6835
C49_5 C 0.2118(2) 0.3536(2) 0.6633(4)
C51_5 C 0.0119(2) 0.4145(3) 0.6383(4)
H27_5 H 0.0040 0.4357 0.6727
C54_5 C 0.0003(3) 0.1308(3) 0.7731(6)
H30_5 H 0.0168 0.1354 0.8123
C55_5 C 0.2389(3) 0.3337(3) 0.7136(5)
H31_5 H 0.2332 0.3039 0.7316
H34_5 H 0.0663 0.0035 0.2660
C60_5 C 0.1275(4) 0.0019(3) 0.2567(6)
C61_5 C 0.1100(4) 0.0275(4) 0.0618(7)
C62_5 C 0.1021(4) 0.0218(5) 0.1370(7)
H36_5 H 0.0752 0.0266 0.1545
C64_5 C 0.1487(4) 0.0170(4) 0.0241(6)
H38_5 H 0.1726 0.0082 0.0485
C65_5 C 0.0791(5) 0.0393(4) 0.0226(7)
H39_5 H 0.0534 0.0465 0.0426
Zn6_2 Zn 0.38750(3) 0.49782(2) 0.65471(5)
Zn10_2 Zn 0.38012(3) 0.46523(3) 0.81408(5)
O16_3 O 0.16038(16) 0.04696(18) 0.6845(3)
O17_3 O 0.16509(16) 0.07708(18) 0.7892(3)
N3 N 0.1172(3) 0.0321(3) 0.9172(5)
C63_5 C 0.1502(4) 0.0199(3) 0.9568(6)
H37_5 H 0.1755 0.0131 0.9350
C66_5 C 0.0831(4) 0.0415(4) 0.9553(7)
H40_5 H 0.0592 0.0508 0.9309
Zn1_3 Zn 0.12303(3) 0.97091(3) 0.49919(5)
N1_5 N 0.12486(18) 0.9828(2) 0.3971(4)
C56_5 C 0.1615(3) 0.9865(3) 0.3620(4)
H32_5 H 0.1861 0.9827 0.3871
C57_5 C 0.0903(3) 0.9902(3) 0.3605(5)
H33_5 H 0.0645 0.9892 0.3829
C58_5 C 0.0913(4) 0.9993(4) 0.2900(5)
C59_5 C 0.1652(3) 0.9951(3) 0.2949(5)
H35_5 H 0.1913 0.9966 0.2736
O13_3 O 0.16201(16) 0.95768(17) 0.6340(3)
O14_3 O 0.11245(17) 0.97454(16) 0.7634(3)
O15_3 O 0.06696(16) 0.95652(18) 0.6232(3)
O18_3 O 0.16516(16) 0.92618(16) 0.5292(3)
O19_3 O 0.06861(15) 0.93857(17) 0.5110(3)
O5_3 O 0.66201(16) 0.04232(17) 0.6340(3)
O6_3 O 0.88755(17) 0.47454(16) 0.7634(3)
O7_3 O 0.93304(16) 0.45652(18) 0.6232(3)
O10_3 O 0.66516(16) 0.07382(16) 0.5292(3)
O11_3 O 0.93139(15) 0.43857(17) 0.5110(3)
O12_5 O 0.82900(19) 0.46274(17) 0.8213(3)
C4_5 C 0.8581(2) 0.3009(2) 0.7223(4)
C8_5 C 0.8617(2) 0.1534(2) 0.6776(4)
H1_5 H 0.8626 0.1212 0.6679
C9_5 C 0.8572(2) 0.4478(2) 0.7830(3)
C12_5 C 0.7753(2) 0.1091(2) 0.6849(4)
H3_5 H 0.7924 0.0980 0.7204
C13_5 C 0.8239(2) 0.3209(2) 0.7584(5)
H4_5 H 0.8011 0.3019 0.7701
C14_5 C 0.6775(2) 0.0697(2) 0.5898(4)
C17_5 C 0.8575(2) 0.3973(2) 0.7618(4)
C19_5 C 0.9864(2) 0.4085(2) 0.5794(4)
C20_5 C 0.8987(2) 0.1769(2) 0.6985(4)
C21_5 C 0.8916(2) 0.3782(2) 0.7255(4)
H7_5 H 0.9141 0.3974 0.7135
C23_5 C 0.8240(2) 0.1776(2) 0.6713(4)
C24_5 C 0.8970(2) 0.2253(2) 0.7129(5)
H9_5 H 0.9212 0.2409 0.7272
C29_5 C 0.7151(2) 0.0989(2) 0.6117(4)
C30_5 C 0.9897(2) 0.0947(3) 0.6631(4)
H13_5 H 0.9992 0.0752 0.6277
C31_5 C 0.8237(2) 0.2257(2) 0.6853(4)
H14_5 H 0.7986 0.2423 0.6808
C33_5 C 0.9471(2) 0.4364(2) 0.5690(3)
C35_5 C 0.7244(3) 0.1408(3) 0.5791(5)
H16_5 H 0.7079 0.1510 0.5423
C37_5 C 0.9981(2) 0.3747(2) 0.5317(5)
H18_5 H 0.9816 0.3695 0.4928
C38_5 C 0.7412(2) 0.0835(2) 0.6661(4)
H19_5 H 0.7351 0.0555 0.6892
C39_5 C 0.8234(2) 0.3678(2) 0.7764(4)
H20_5 H 0.8000 0.3802 0.7986
C40_5 C 0.9389(2) 0.1510(2) 0.7074(4)
C46_5 C 0.8596(2) 0.2502(2) 0.7059(4)
C47_5 C 0.9529(2) 0.1192(3) 0.6551(4)
H25_5 H 0.9369 0.1149 0.6154
C48_5 C 0.7580(2) 0.1677(3) 0.6009(5)
H26_5 H 0.7624 0.1971 0.5808
C50_5 C 0.7857(2) 0.1519(2) 0.6526(4)
C52_5 C 0.8919(2) 0.3308(2) 0.7074(5)
H28_5 H 0.9152 0.3186 0.6847
C53_5 C 0.9635(3) 0.1557(3) 0.7654(5)
H29_5 H 0.9551 0.1763 0.8002
Zn4_2 Zn 0.87697(3) 0.47091(3) 0.49919(5)
Zn5_2 Zn 0.62303(3) 0.02909(3) 0.49919(5)
Zn7_2 Zn 0.88750(3) 0.50218(2) 0.65471(5)
Zn11_3 Zn 0.88012(3) 0.53477(3) 0.81408(5)
Zn8_2 Zn 0.61250(3) 0.99782(2) 0.65471(5)
Zn1_4 Zn 0.37697(3) 0.52909(3) 0.49919(5)
O1_6 O 0.38459(14) 0.46972(16) 0.5526(3)
O2_6 O 0.43554(16) 0.45413(17) 0.6826(3)
O3_6 O 0.43171(17) 0.43025(19) 0.7927(3)
O4_6 O 0.32426(17) 0.45784(18) 0.4964(3)
O5_4 O 0.83799(16) 0.45768(17) 0.6340(3)
O6_4 O 0.61245(17) 0.02546(16) 0.7634(3)
O7_4 O 0.56696(16) 0.04348(18) 0.6232(3)
O10_4 O 0.83484(16) 0.42618(16) 0.5292(3)
O11_4 O 0.56861(15) 0.06143(17) 0.5110(3)
O12_6 O 0.67100(19) 0.03726(17) 0.8213(3)
N1_6 N 0.37514(18) 0.5172(2) 0.3971(4)
C1_6 C 0.4871(2) 0.4012(2) 0.7229(4)
C2_6 C 0.3544(2) 0.3916(2) 0.5531(4)
C3_6 C 0.2166(2) 0.0983(2) 0.7060(5)
C4_6 C 0.6419(2) 0.1991(2) 0.7223(4)
C5_6 C 0.3525(2) 0.4426(2) 0.5339(3)
C6_6 C 0.1781(2) 0.0727(2) 0.7283(4)
C7_6 C 0.4483(2) 0.4307(2) 0.7352(4)
C8_6 C 0.6383(2) 0.3466(2) 0.6776(4)
H1_6 H 0.6374 0.3788 0.6679
C9_6 C 0.6428(2) 0.0522(2) 0.7830(3)
C10_6 C 0.3221(2) 0.3155(2) 0.5567(4)
H2_6 H 0.2988 0.2966 0.5479
C11_6 C 0.3581(2) 0.2957(2) 0.5862(4)
C12_6 C 0.7247(2) 0.3909(2) 0.6849(4)
H3_6 H 0.7076 0.4020 0.7204
C13_6 C 0.6761(2) 0.1791(2) 0.7584(5)
H4_6 H 0.6989 0.1981 0.7701
C14_6 C 0.8225(2) 0.4303(2) 0.5898(4)
C15_6 C 0.3210(2) 0.3627(2) 0.5405(4)
H5_6 H 0.2969 0.3753 0.5204
C16_6 C 0.4659(2) 0.1514(2) 0.5416(4)
H6_6 H 0.4591 0.1748 0.5096
C17_6 C 0.6425(2) 0.1027(2) 0.7618(4)
C18_6 C 0.4395(2) 0.1444(2) 0.5970(5)
C19_6 C 0.5136(2) 0.0915(2) 0.5794(4)
C20_6 C 0.6013(2) 0.3231(2) 0.6985(4)
C21_6 C 0.6084(2) 0.1218(2) 0.7255(4)
H7_6 H 0.5859 0.1026 0.7135
C22_6 C 0.3254(2) 0.2205(2) 0.6268(4)
H8_6 H 0.3007 0.2372 0.6350
C23_6 C 0.6760(2) 0.3224(2) 0.6713(4)
C24_6 C 0.6030(2) 0.2747(2) 0.7129(5)
H9_6 H 0.5788 0.2591 0.7272
C25_6 C 0.3631(2) 0.1483(2) 0.6285(4)
H10_6 H 0.3637 0.1158 0.6355
C26_6 C 0.3995(2) 0.1710(2) 0.6073(4)
C27_6 C 0.3674(4) 0.4898(5) 0.1789(7)
H11_6 H 0.3407 0.4932 0.1601
C28_6 C 0.3903(2) 0.3730(2) 0.5835(5)
H12_6 H 0.4132 0.3923 0.5930
C29_6 C 0.7849(2) 0.4011(2) 0.6117(4)
C30_6 C 0.5103(2) 0.4053(3) 0.6631(4)
H13_6 H 0.5008 0.4248 0.6277
C31_6 C 0.6763(2) 0.2743(2) 0.6853(4)
H14_6 H 0.7014 0.2577 0.6808
C32_6 C 0.3602(2) 0.2443(2) 0.6021(5)
C33_6 C 0.5529(2) 0.0636(2) 0.5690(3)
C34_6 C 0.3971(2) 0.2191(2) 0.5916(4)
H15_6 H 0.4206 0.2345 0.5739
C35_6 C 0.7756(3) 0.3592(3) 0.5791(5)
H16_6 H 0.7921 0.3490 0.5423
C36_6 C 0.2782(2) 0.1023(2) 0.6348(5)
H17_6 H 0.2957 0.0884 0.6022
C37_6 C 0.5019(2) 0.1253(2) 0.5317(5)
H18_6 H 0.5184 0.1305 0.4928
C38_6 C 0.7588(2) 0.4165(2) 0.6661(4)
H19_6 H 0.7649 0.4445 0.6892
C39_6 C 0.6766(2) 0.1322(2) 0.7764(4)
H20_6 H 0.7000 0.1198 0.7986
C40_6 C 0.5611(2) 0.3490(2) 0.7074(4)
C41_6 C 0.3264(2) 0.1725(2) 0.6397(4)
C42_6 C 0.3916(2) 0.3253(2) 0.5994(5)
H21_6 H 0.4157 0.3129 0.6195
C43_6 C 0.2420(2) 0.0799(2) 0.6559(4)
H22_6 H 0.2346 0.0514 0.6354
C44_6 C 0.2265(3) 0.1417(3) 0.7357(5)
H23_6 H 0.2096 0.1540 0.7706
C45_6 C 0.4525(3) 0.1105(3) 0.6450(5)
H24_6 H 0.4357 0.1051 0.6835
C46_6 C 0.6404(2) 0.2498(2) 0.7059(4)
C47_6 C 0.5471(2) 0.3808(3) 0.6551(4)
H25_6 H 0.5631 0.3851 0.6154
C48_6 C 0.7420(2) 0.3323(3) 0.6009(5)
H26_6 H 0.7376 0.3029 0.5808
C49_6 C 0.2882(2) 0.1464(2) 0.6633(4)
C50_6 C 0.7143(2) 0.3481(2) 0.6526(4)
C51_6 C 0.4881(2) 0.0855(3) 0.6383(4)
H27_6 H 0.4960 0.0643 0.6727
C52_6 C 0.6081(2) 0.1692(2) 0.7074(5)
H28_6 H 0.5848 0.1814 0.6847
C53_6 C 0.5365(3) 0.3443(3) 0.7654(5)
H29_6 H 0.5449 0.3237 0.8002
C54_6 C 0.4997(3) 0.3692(3) 0.7731(6)
H30_6 H 0.4832 0.3646 0.8123
C55_6 C 0.2611(3) 0.1663(3) 0.7136(5)
H31_6 H 0.2668 0.1961 0.7316
C56_6 C 0.3385(3) 0.5135(3) 0.3620(4)
H32_6 H 0.3139 0.5173 0.3871
C57_6 C 0.4097(3) 0.5098(3) 0.3605(5)
H33_6 H 0.4355 0.5108 0.3829
C58_6 C 0.4087(4) 0.5007(4) 0.2900(5)
H34_6 H 0.4337 0.4965 0.2660
C59_6 C 0.3348(3) 0.5049(3) 0.2949(5)
H35_6 H 0.3087 0.5034 0.2736
C60_6 C 0.3725(4) 0.4981(3) 0.2567(6)
C61_6 C 0.3900(4) 0.4725(4) 0.0618(7)
C62_6 C 0.3979(4) 0.4782(5) 0.1370(7)
H36_6 H 0.4248 0.4734 0.1545
C64_6 C 0.3513(4) 0.4830(4) 0.0241(6)
H38_6 H 0.3274 0.4918 0.0485
C65_6 C 0.4209(5) 0.4607(4) 0.0226(7)
H39_6 H 0.4466 0.4535 0.0426
O13_4 O 0.33799(16) 0.54232(17) 0.6340(3)
O14_4 O 0.38755(17) 0.52546(16) 0.7634(3)
O15_4 O 0.43304(16) 0.54348(18) 0.6232(3)
O18_4 O 0.33484(16) 0.57382(16) 0.5292(3)
O19_4 O 0.43139(15) 0.56143(17) 0.5110(3)
N3_2 N 0.3828(3) 0.4679(3) 0.9172(5)
C63_6 C 0.3498(4) 0.4801(3) 0.9568(6)
H37_6 H 0.3245 0.4869 0.9350
C66_6 C 0.4169(4) 0.4585(4) 0.9553(7)
H40_6 H 0.4408 0.4492 0.9309
Zn11_4 Zn 0.61988(3) 0.96523(3) 0.81408(5)
O12_7 O 0.17100(19) 0.96274(17) 0.8213(3)
C4_7 C 0.1419(2) 0.8009(2) 0.7223(4)
C8_7 C 0.1383(2) 0.6534(2) 0.6776(4)
H1_7 H 0.1374 0.6212 0.6679
C9_7 C 0.1428(2) 0.9478(2) 0.7830(3)
C12_7 C 0.2247(2) 0.6091(2) 0.6849(4)
H3_7 H 0.2076 0.5980 0.7204
C13_7 C 0.1761(2) 0.8209(2) 0.7584(5)
H4_7 H 0.1989 0.8019 0.7701
C14_7 C 0.3225(2) 0.5697(2) 0.5898(4)
C17_7 C 0.1425(2) 0.8973(2) 0.7618(4)
C19_7 C 0.0136(2) 0.9085(2) 0.5794(4)
C20_7 C 0.1013(2) 0.6769(2) 0.6985(4)
C21_7 C 0.1084(2) 0.8782(2) 0.7255(4)
H7_7 H 0.0859 0.8974 0.7135
C23_7 C 0.1760(2) 0.6776(2) 0.6713(4)
C24_7 C 0.1030(2) 0.7253(2) 0.7129(5)
H9_7 H 0.0788 0.7409 0.7272
C29_7 C 0.2849(2) 0.5989(2) 0.6117(4)
C30_7 C 0.0103(2) 0.5947(3) 0.6631(4)
H13_7 H 0.0008 0.5752 0.6277
C31_7 C 0.1763(2) 0.7257(2) 0.6853(4)
H14_7 H 0.2014 0.7423 0.6808
C33_7 C 0.0529(2) 0.9364(2) 0.5690(3)
C35_7 C 0.2756(3) 0.6408(3) 0.5791(5)
H16_7 H 0.2921 0.6510 0.5423
C37_7 C 0.0019(2) 0.8747(2) 0.5317(5)
H18_7 H 0.0184 0.8695 0.4928
C38_7 C 0.2588(2) 0.5835(2) 0.6661(4)
H19_7 H 0.2649 0.5555 0.6892
C39_7 C 0.1766(2) 0.8678(2) 0.7764(4)
H20_7 H 0.2000 0.8802 0.7986
C40_7 C 0.0611(2) 0.6510(2) 0.7074(4)
C46_7 C 0.1404(2) 0.7502(2) 0.7059(4)
C47_7 C 0.0471(2) 0.6192(3) 0.6551(4)
H25_7 H 0.0631 0.6149 0.6154
C48_7 C 0.2420(2) 0.6677(3) 0.6009(5)
H26_7 H 0.2376 0.6971 0.5808
C50_7 C 0.2143(2) 0.6519(2) 0.6526(4)
C52_7 C 0.1081(2) 0.8308(2) 0.7074(5)
H28_7 H 0.0848 0.8186 0.6847
C53_7 C 0.0365(3) 0.6557(3) 0.7654(5)
H29_7 H 0.0449 0.6763 0.8002
O1_7 O 0.88459(14) 0.53028(16) 0.5526(3)
O2_7 O 0.93554(16) 0.54587(17) 0.6826(3)
O3_7 O 0.93171(17) 0.56975(19) 0.7927(3)
O4_7 O 0.82426(17) 0.54216(18) 0.4964(3)
O8_4 O 0.66038(16) 0.95304(18) 0.6845(3)
O9_4 O 0.66509(16) 0.92292(18) 0.7892(3)
N1_7 N 0.87514(18) 0.4828(2) 0.3971(4)
C1_7 C 0.9871(2) 0.5988(2) 0.7229(4)
C2_7 C 0.8544(2) 0.6084(2) 0.5531(4)
C3_7 C 0.7166(2) 0.9017(2) 0.7060(5)
C5_7 C 0.8525(2) 0.5574(2) 0.5339(3)
C6_7 C 0.6781(2) 0.9273(2) 0.7283(4)
C7_7 C 0.9483(2) 0.5693(2) 0.7352(4)
C10_7 C 0.8221(2) 0.6845(2) 0.5567(4)
H2_7 H 0.7988 0.7034 0.5479
C11_7 C 0.8581(2) 0.7043(2) 0.5862(4)
C15_7 C 0.8210(2) 0.6373(2) 0.5405(4)
H5_7 H 0.7969 0.6247 0.5204
C16_7 C 0.9659(2) 0.8486(2) 0.5416(4)
H6_7 H 0.9591 0.8252 0.5096
C18_7 C 0.9395(2) 0.8556(2) 0.5970(5)
C22_7 C 0.8254(2) 0.7795(2) 0.6268(4)
H8_7 H 0.8007 0.7628 0.6350
C25_7 C 0.8631(2) 0.8517(2) 0.6285(4)
H10_7 H 0.8637 0.8842 0.6355
C26_7 C 0.8995(2) 0.8290(2) 0.6073(4)
C27_7 C 0.8674(4) 0.5102(5) 0.1789(7)
H11_7 H 0.8407 0.5068 0.1601
C28_7 C 0.8903(2) 0.6270(2) 0.5835(5)
H12_7 H 0.9132 0.6077 0.5930
C32_7 C 0.8602(2) 0.7557(2) 0.6021(5)
C34_7 C 0.8971(2) 0.7809(2) 0.5916(4)
H15_7 H 0.9206 0.7655 0.5739
C36_7 C 0.7782(2) 0.8977(2) 0.6348(5)
H17_7 H 0.7957 0.9116 0.6022
C41_7 C 0.8264(2) 0.8275(2) 0.6397(4)
C42_7 C 0.8916(2) 0.6747(2) 0.5994(5)
H21_7 H 0.9157 0.6871 0.6195
C43_7 C 0.7420(2) 0.9201(2) 0.6559(4)
H22_7 H 0.7346 0.9486 0.6354
C44_7 C 0.7265(3) 0.8583(3) 0.7357(5)
H23_7 H 0.7096 0.8460 0.7706
C45_7 C 0.9525(3) 0.8895(3) 0.6450(5)
H24_7 H 0.9357 0.8949 0.6835
C49_7 C 0.7882(2) 0.8536(2) 0.6633(4)
C51_7 C 0.9881(2) 0.9145(3) 0.6383(4)
H27_7 H 0.9960 0.9357 0.6727
C54_7 C 0.9997(3) 0.6308(3) 0.7731(6)
H30_7 H 0.9832 0.6354 0.8123
C55_7 C 0.7611(3) 0.8337(3) 0.7136(5)
H31_7 H 0.7668 0.8039 0.7316
C56_7 C 0.8385(3) 0.4865(3) 0.3620(4)
H32_7 H 0.8139 0.4827 0.3871
C57_7 C 0.9097(3) 0.4902(3) 0.3605(5)
H33_7 H 0.9355 0.4892 0.3829
C58_7 C 0.9087(4) 0.4993(4) 0.2900(5)
H34_7 H 0.9337 0.5035 0.2660
C59_7 C 0.8348(3) 0.4951(3) 0.2949(5)
H35_7 H 0.8087 0.4966 0.2736
C60_7 C 0.8725(4) 0.5019(3) 0.2567(6)
C61_7 C 0.8900(4) 0.5275(4) 0.0618(7)
C62_7 C 0.8979(4) 0.5218(5) 0.1370(7)
H36_7 H 0.9248 0.5266 0.1545
C64_7 C 0.8513(4) 0.5170(4) 0.0241(6)
H38_7 H 0.8274 0.5082 0.0485
C65_7 C 0.9209(5) 0.5393(4) 0.0226(7)
H39_7 H 0.9466 0.5465 0.0426
O16_4 O 0.83962(16) 0.54696(18) 0.6845(3)
O17_4 O 0.83491(16) 0.57708(18) 0.7892(3)
N3_3 N 0.8828(3) 0.5321(3) 0.9172(5)
C63_7 C 0.8498(4) 0.5199(3) 0.9568(6)
H37_7 H 0.8245 0.5131 0.9350
C66_7 C 0.9169(4) 0.5415(4) 0.9553(7)
H40_7 H 0.9408 0.5508 0.9309
N1_8 N 0.62486(18) 0.0172(2) 0.3971(4)
C56_8 C 0.6615(3) 0.0135(3) 0.3620(4)
H32_8 H 0.6861 0.0173 0.3871
C57_8 C 0.5903(3) 0.0098(3) 0.3605(5)
H33_8 H 0.5645 0.0108 0.3829
C58_8 C 0.5913(4) 0.0007(4) 0.2900(5)
C59_8 C 0.6652(3) 0.0049(3) 0.2949(5)
H35_8 H 0.6913 0.0034 0.2736
O1_8 O 0.61541(14) 0.96972(16) 0.5526(3)
O2_8 O 0.56446(16) 0.95413(17) 0.6826(3)
O3_8 O 0.56829(17) 0.93025(19) 0.7927(3)
O4_8 O 0.67574(17) 0.95784(18) 0.4964(3)
O12_8 O 0.32900(19) 0.53726(17) 0.8213(3)
C1_8 C 0.5129(2) 0.9012(2) 0.7229(4)
C2_8 C 0.6456(2) 0.8916(2) 0.5531(4)
C3_8 C 0.7834(2) 0.5983(2) 0.7060(5)
C4_8 C 0.3581(2) 0.6991(2) 0.7223(4)
C5_8 C 0.6475(2) 0.9426(2) 0.5339(3)
C6_8 C 0.8219(2) 0.5727(2) 0.7283(4)
C7_8 C 0.5517(2) 0.9307(2) 0.7352(4)
C8_8 C 0.3617(2) 0.8466(2) 0.6776(4)
H1_8 H 0.3626 0.8788 0.6679
C9_8 C 0.3572(2) 0.5522(2) 0.7830(3)
C10_8 C 0.6779(2) 0.8155(2) 0.5567(4)
H2_8 H 0.7012 0.7966 0.5479
C11_8 C 0.6419(2) 0.7957(2) 0.5862(4)
C12_8 C 0.2753(2) 0.8909(2) 0.6849(4)
H3_8 H 0.2924 0.9020 0.7204
C13_8 C 0.3239(2) 0.6791(2) 0.7584(5)
H4_8 H 0.3011 0.6981 0.7701
C14_8 C 0.1775(2) 0.9303(2) 0.5898(4)
C15_8 C 0.6790(2) 0.8627(2) 0.5405(4)
H5_8 H 0.7031 0.8753 0.5204
C16_8 C 0.5341(2) 0.6514(2) 0.5416(4)
H6_8 H 0.5409 0.6748 0.5096
C17_8 C 0.3575(2) 0.6027(2) 0.7618(4)
C18_8 C 0.5605(2) 0.6444(2) 0.5970(5)
C19_8 C 0.4864(2) 0.5915(2) 0.5794(4)
C20_8 C 0.3987(2) 0.8231(2) 0.6985(4)
C21_8 C 0.3916(2) 0.6218(2) 0.7255(4)
H7_8 H 0.4141 0.6026 0.7135
C22_8 C 0.6746(2) 0.7205(2) 0.6268(4)
H8_8 H 0.6993 0.7372 0.6350
C23_8 C 0.3240(2) 0.8224(2) 0.6713(4)
C24_8 C 0.3970(2) 0.7747(2) 0.7129(5)
H9_8 H 0.4212 0.7591 0.7272
C25_8 C 0.6369(2) 0.6483(2) 0.6285(4)
H10_8 H 0.6363 0.6158 0.6355
C26_8 C 0.6005(2) 0.6710(2) 0.6073(4)
C27_8 C 0.6326(4) 0.9898(5) 0.1789(7)
H11_8 H 0.6593 0.9932 0.1601
C28_8 C 0.6097(2) 0.8730(2) 0.5835(5)
H12_8 H 0.5868 0.8923 0.5930
C29_8 C 0.2151(2) 0.9011(2) 0.6117(4)
C30_8 C 0.4897(2) 0.9053(3) 0.6631(4)
H13_8 H 0.4992 0.9248 0.6277
C31_8 C 0.3237(2) 0.7743(2) 0.6853(4)
H14_8 H 0.2986 0.7577 0.6808
C32_8 C 0.6398(2) 0.7443(2) 0.6021(5)
C33_8 C 0.4471(2) 0.5636(2) 0.5690(3)
C34_8 C 0.6029(2) 0.7191(2) 0.5916(4)
H15_8 H 0.5794 0.7345 0.5739
C35_8 C 0.2244(3) 0.8592(3) 0.5791(5)
H16_8 H 0.2079 0.8490 0.5423
C36_8 C 0.7218(2) 0.6023(2) 0.6348(5)
H17_8 H 0.7043 0.5884 0.6022
C37_8 C 0.4981(2) 0.6253(2) 0.5317(5)
H18_8 H 0.4816 0.6305 0.4928
C38_8 C 0.2412(2) 0.9165(2) 0.6661(4)
H19_8 H 0.2351 0.9445 0.6892
C39_8 C 0.3234(2) 0.6322(2) 0.7764(4)
H20_8 H 0.3000 0.6198 0.7986
C40_8 C 0.4389(2) 0.8490(2) 0.7074(4)
C41_8 C 0.6736(2) 0.6725(2) 0.6397(4)
C42_8 C 0.6084(2) 0.8253(2) 0.5994(5)
H21_8 H 0.5843 0.8129 0.6195
C43_8 C 0.7580(2) 0.5799(2) 0.6559(4)
H22_8 H 0.7654 0.5514 0.6354
C44_8 C 0.7735(3) 0.6417(3) 0.7357(5)
H23_8 H 0.7904 0.6540 0.7706
C45_8 C 0.5475(3) 0.6105(3) 0.6450(5)
H24_8 H 0.5643 0.6051 0.6835
C46_8 C 0.3596(2) 0.7498(2) 0.7059(4)
C47_8 C 0.4529(2) 0.8808(3) 0.6551(4)
H25_8 H 0.4369 0.8851 0.6154
C48_8 C 0.2580(2) 0.8323(3) 0.6009(5)
H26_8 H 0.2624 0.8029 0.5808
C49_8 C 0.7118(2) 0.6464(2) 0.6633(4)
C50_8 C 0.2857(2) 0.8481(2) 0.6526(4)
C51_8 C 0.5119(2) 0.5855(3) 0.6383(4)
H27_8 H 0.5040 0.5643 0.6727
C52_8 C 0.3919(2) 0.6692(2) 0.7074(5)
H28_8 H 0.4152 0.6814 0.6847
C53_8 C 0.4635(3) 0.8443(3) 0.7654(5)
H29_8 H 0.4551 0.8237 0.8002
C54_8 C 0.5003(3) 0.8692(3) 0.7731(6)
H30_8 H 0.5168 0.8646 0.8123
C55_8 C 0.7389(3) 0.6663(3) 0.7136(5)
H31_8 H 0.7332 0.6961 0.7316
H34_8 H 0.5663 0.9965 0.2660
C60_8 C 0.6275(4) 0.9981(3) 0.2567(6)
C61_8 C 0.6100(4) 0.9725(4) 0.0618(7)
C62_8 C 0.6021(4) 0.9782(5) 0.1370(7)
H36_8 H 0.5752 0.9734 0.1545
C64_8 C 0.6487(4) 0.9830(4) 0.0241(6)
H38_8 H 0.6726 0.9918 0.0485
C65_8 C 0.5791(5) 0.9607(4) 0.0226(7)
H39_8 H 0.5534 0.9535 0.0426
N3_4 N 0.6172(3) 0.9679(3) 0.9172(5)
C63_8 C 0.6502(4) 0.9801(3) 0.9568(6)
H37_8 H 0.6755 0.9869 0.9350
C66_8 C 0.5831(4) 0.9585(4) 0.9553(7)
H40_8 H 0.5592 0.9492 0.9309
loop_
_geom_bond_atom_site_label_1
_geom_bond_atom_site_label_2
_geom_bond_site_symmetry_1
_geom_bond_site_symmetry_2
N2 C63 1_555 1_555
C63 H37 1_555 1_555
C66 N2 1_555 1_555
H40 C66 1_555 1_555
Zn9 N2 1_555 1_555
Zn1 O1 1_555 1_555
Zn2 O1 1_555 1_555
Zn9 O3 1_555 1_555
O1 C5 1_555 1_555
O2 Zn2 1_555 1_555
O3 C7 1_555 1_555
O4 C5 1_555 1_555
O8 C6 1_555 1_555
O9 C6 1_555 1_555
N1 Zn1 1_555 1_555
C1 C7 1_555 1_555
C2 C5 1_555 1_555
C3 C6 1_555 1_555
C7 O2 1_555 1_555
C10 H2 1_555 1_555
C11 C10 1_555 1_555
C15 C2 1_555 1_555
H5 C15 1_555 1_555
C16 H6 1_555 1_555
C18 C16 1_555 1_555
C22 H8 1_555 1_555
C25 H10 1_555 1_555
C26 C18 1_555 1_555
C27 H11 1_555 1_555
C28 C2 1_555 1_555
H12 C28 1_555 1_555
C32 C11 1_555 1_555
C34 C26 1_555 1_555
H15 C34 1_555 1_555
C36 H17 1_555 1_555
C41 C22 1_555 1_555
C42 C11 1_555 1_555
H21 C42 1_555 1_555
C43 C3 1_555 1_555
H22 C43 1_555 1_555
C44 C3 1_555 1_555
H23 C44 1_555 1_555
C45 C18 1_555 1_555
H24 C45 1_555 1_555
C49 C36 1_555 1_555
H27 C51 1_555 1_555
C54 C1 1_555 1_555
H30 C54 1_555 1_555
C55 C44 1_555 1_555
H31 C55 1_555 1_555
C56 N1 1_555 1_555
H32 C56 1_555 1_555
C57 N1 1_555 1_555
H33 C57 1_555 1_555
C58 C57 1_555 1_555
H34 C58 1_555 1_555
C59 C56 1_555 1_555
H35 C59 1_555 1_555
C60 C27 1_555 1_555
C61 C62 1_555 1_555
C62 C27 1_555 1_555
H36 C62 1_555 1_555
C64 C61 1_555 1_555
H38 C64 1_555 1_555
C65 C61 1_555 1_555
H39 C65 1_555 1_555
Zn6 O8 1_555 1_555
Zn10 O9 1_555 1_555
O13 Zn2 1_555 1_555
O14 Zn2 1_555 1_555
O15 Zn2 1_555 1_555
O16 Zn2 1_555 1_555
O17 Zn9 1_555 1_555
O18 Zn1 1_555 1_555
O19 Zn1 1_555 1_555
Zn9 O14 1_555 1_555
C10 C15 1_555 1_555
C22 C32 1_555 1_555
C25 C26 1_555 1_555
C25 C41 1_555 1_555
C28 C42 1_555 1_555
C32 C34 1_555 1_555
C36 C43 1_555 1_555
C41 C49 1_555 1_555
C45 C51 1_555 1_555
C49 C55 1_555 1_555
C58 C60 1_555 1_555
C59 C60 1_555 1_555
O5 C14 1_555 1_555
O6 C9 1_555 1_555
O7 C33 1_555 1_555
O10 C14 1_555 1_555
O11 C33 1_555 1_555
O12 C9 1_555 1_555
C4 C13 1_555 1_555
C8 H1 1_555 1_555
C9 C17 1_555 1_555
C12 H3 1_555 1_555
C13 H4 1_555 1_555
C14 C29 1_555 1_555
C17 C21 1_555 1_555
C19 C33 1_555 1_555
C20 C8 1_555 1_555
C21 H7 1_555 1_555
C23 C8 1_555 1_555
C24 C20 1_555 1_555
H9 C24 1_555 1_555
C29 C35 1_555 1_555
H13 C30 1_555 1_555
C31 C23 1_555 1_555
H14 C31 1_555 1_555
C35 H16 1_555 1_555
H18 C37 1_555 1_555
C38 C12 1_555 1_555
H19 C38 1_555 1_555
C39 C13 1_555 1_555
H20 C39 1_555 1_555
C40 C20 1_555 1_555
C46 C4 1_555 1_555
C47 C30 1_555 1_555
H25 C47 1_555 1_555
C48 C35 1_555 1_555
H26 C48 1_555 1_555
C50 C12 1_555 1_555
C52 C4 1_555 1_555
H28 C52 1_555 1_555
C53 C40 1_555 1_555
H29 C53 1_555 1_555
Zn4 O11 1_555 1_555
Zn5 O10 1_555 1_555
Zn8 O5 1_555 1_555
C17 C39 1_555 1_555
C19 C37 1_555 1_555
C21 C52 1_555 1_555
C23 C50 1_555 1_555
C24 C46 1_555 1_555
C29 C38 1_555 1_555
C31 C46 1_555 1_555
C40 C47 1_555 1_555
C48 C50 1_555 1_555
N2_2 C63_2 1_555 1_555
C63_2 H37_2 1_555 1_555
C66_2 N2_2 1_555 1_555
H40_2 C66_2 1_555 1_555
Zn10 N2_2 1_555 1_555
Zn6 O1_2 1_555 1_555
Zn10 O3_2 1_555 1_555
O1_2 C5_2 1_555 1_555
O2_2 Zn6 1_555 1_555
O3_2 C7_2 1_555 1_555
O4_2 C5_2 1_555 1_555
O5_2 C14_2 1_555 1_555
O6_2 C9_2 1_555 1_555
O7_2 C33_2 1_555 1_555
O16 C6_2 1_555 1_555
O17 C6_2 1_555 1_555
O10_2 C14_2 1_555 1_555
O11_2 C33_2 1_555 1_555
O12_2 C9_2 1_555 1_555
C1_2 C7_2 1_555 1_555
C2_2 C5_2 1_555 1_555
C3_2 C6_2 1_555 1_555
C4_2 C13_2 1_555 1_555
C7_2 O2_2 1_555 1_555
C8_2 H1_2 1_555 1_555
C9_2 C17_2 1_555 1_555
C10_2 H2_2 1_555 1_555
C11_2 C10_2 1_555 1_555
C12_2 H3_2 1_555 1_555
C13_2 H4_2 1_555 1_555
C14_2 C29_2 1_555 1_555
C15_2 C2_2 1_555 1_555
H5_2 C15_2 1_555 1_555
C16_2 H6_2 1_555 1_555
C17_2 C21_2 1_555 1_555
C18_2 C16_2 1_555 1_555
C19_2 C33_2 1_555 1_555
C20_2 C8_2 1_555 1_555
C21_2 H7_2 1_555 1_555
C22_2 H8_2 1_555 1_555
C23_2 C8_2 1_555 1_555
C24_2 C20_2 1_555 1_555
H9_2 C24_2 1_555 1_555
C25_2 H10_2 1_555 1_555
C26_2 C18_2 1_555 1_555
C27_2 H11_2 1_555 1_555
C28_2 C2_2 1_555 1_555
H12_2 C28_2 1_555 1_555
C29_2 C35_2 1_555 1_555
C30_2 C1_2 1_555 1_555
H13_2 C30_2 1_555 1_555
C31_2 C23_2 1_555 1_555
H14_2 C31_2 1_555 1_555
C32_2 C11_2 1_555 1_555
C34_2 C26_2 1_555 1_555
H15_2 C34_2 1_555 1_555
C35_2 H16_2 1_555 1_555
C36_2 H17_2 1_555 1_555
C37_2 C16_2 1_555 1_555
H18_2 C37_2 1_555 1_555
C38_2 C12_2 1_555 1_555
H19_2 C38_2 1_555 1_555
C39_2 C13_2 1_555 1_555
H20_2 C39_2 1_555 1_555
C40_2 C20_2 1_555 1_555
C41_2 C22_2 1_555 1_555
C42_2 C11_2 1_555 1_555
H21_2 C42_2 1_555 1_555
C43_2 C3_2 1_555 1_555
H22_2 C43_2 1_555 1_555
C44_2 C3_2 1_555 1_555
H23_2 C44_2 1_555 1_555
C45_2 C18_2 1_555 1_555
H24_2 C45_2 1_555 1_555
C46_2 C4_2 1_555 1_555
C47_2 C30_2 1_555 1_555
H25_2 C47_2 1_555 1_555
C48_2 C35_2 1_555 1_555
H26_2 C48_2 1_555 1_555
C49_2 C36_2 1_555 1_555
C50_2 C12_2 1_555 1_555
C51_2 C19_2 1_555 1_555
H27_2 C51_2 1_555 1_555
C52_2 C4_2 1_555 1_555
H28_2 C52_2 1_555 1_555
C53_2 C40_2 1_555 1_555
H29_2 C53_2 1_555 1_555
C54_2 C1_2 1_555 1_555
H30_2 C54_2 1_555 1_555
C55_2 C44_2 1_555 1_555
H31_2 C55_2 1_555 1_555
C60_2 C27_2 1_555 1_555
C61_2 C62_2 1_555 1_555
C62_2 C27_2 1_555 1_555
H36_2 C62_2 1_555 1_555
C64_2 C61_2 1_555 1_555
H38_2 C64_2 1_555 1_555
C65_2 C61_2 1_555 1_555
H39_2 C65_2 1_555 1_555
Zn5 O11_2 1_555 1_555
Zn4 O10_2 1_555 1_555
Zn8 O6_2 1_555 1_555
Zn11_2 O6_2 1_555 1_555
O7_2 Zn8 1_555 1_555
C10_2 C15_2 1_555 1_555
C17_2 C39_2 1_555 1_555
C19_2 C37_2 1_555 1_555
C21_2 C52_2 1_555 1_555
C22_2 C32_2 1_555 1_555
C23_2 C50_2 1_555 1_555
C24_2 C46_2 1_555 1_555
C25_2 C26_2 1_555 1_555
C25_2 C41_2 1_555 1_555
C28_2 C42_2 1_555 1_555
C29_2 C38_2 1_555 1_555
C31_2 C46_2 1_555 1_555
C32_2 C34_2 1_555 1_555
C36_2 C43_2 1_555 1_555
C40_2 C47_2 1_555 1_555
C41_2 C49_2 1_555 1_555
C45_2 C51_2 1_555 1_555
C48_2 C50_2 1_555 1_555
C49_2 C55_2 1_555 1_555
C53_2 C54_2 1_555 1_555
N1_2 Zn1_2 1_555 1_555
C56_2 N1_2 1_555 1_555
H32_2 C56_2 1_555 1_555
C57_2 N1_2 1_555 1_555
H33_2 C57_2 1_555 1_555
C58_2 C57_2 1_555 1_555
C59_2 C56_2 1_555 1_555
H35_2 C59_2 1_555 1_555
O18_2 Zn1_2 1_555 1_555
O19_2 Zn1_2 1_555 1_555
O13_2 C14_3 1_555 1_555
O14 C9_3 1_555 1_555
O15 C33_3 1_555 1_555
O18_2 C14_3 1_555 1_555
O19 C33_3 1_555 1_555
O12_3 C9_3 1_555 1_555
C4_3 C13_3 1_555 1_555
C8_3 H1_3 1_555 1_555
C9_3 C17_3 1_555 1_555
C12_3 H3_3 1_555 1_555
C13_3 H4_3 1_555 1_555
C14_3 C29_3 1_555 1_555
C17_3 C21_3 1_555 1_555
C19_3 C33_3 1_555 1_555
C20_3 C8_3 1_555 1_555
C21_3 H7_3 1_555 1_555
C23_3 C8_3 1_555 1_555
C24_3 C20_3 1_555 1_555
H9_3 C24_3 1_555 1_555
C29_3 C35_3 1_555 1_555
H13_3 C30_3 1_555 1_555
C31_3 C23_3 1_555 1_555
H14_3 C31_3 1_555 1_555
C35_3 H16_3 1_555 1_555
H18_3 C37_3 1_555 1_555
C38_3 C12_3 1_555 1_555
H19_3 C38_3 1_555 1_555
C39_3 C13_3 1_555 1_555
H20_3 C39_3 1_555 1_555
C40_3 C20_3 1_555 1_555
C46_3 C4_3 1_555 1_555
C47_3 C30_3 1_555 1_555
H25_3 C47_3 1_555 1_555
C48_3 C35_3 1_555 1_555
H26_3 C48_3 1_555 1_555
C50_3 C12_3 1_555 1_555
C52_3 C4_3 1_555 1_555
H28_3 C52_3 1_555 1_555
C53_3 C40_3 1_555 1_555
H29_3 C53_3 1_555 1_555
C17_3 C39_3 1_555 1_555
C19_3 C37_3 1_555 1_555
C21_3 C52_3 1_555 1_555
C23_3 C50_3 1_555 1_555
C24_3 C46_3 1_555 1_555
C29_3 C38_3 1_555 1_555
C31_3 C46_3 1_555 1_555
C40_3 C47_3 1_555 1_555
C48_3 C50_3 1_555 1_555
N1_3 Zn4 1_555 1_555
C56_3 N1_3 1_555 1_555
H32_3 C56_3 1_555 1_555
C57_3 N1_3 1_555 1_555
H33_3 C57_3 1_555 1_555
C58_3 C57_3 1_555 1_555
C59_3 C56_3 1_555 1_555
H35_3 C59_3 1_555 1_555
N2_3 C63_3 1_555 1_555
C63_3 H37_3 1_555 1_555
C66_3 N2_3 1_555 1_555
H40_3 C66_3 1_555 1_555
Zn11 N2_3 1_555 1_555
Zn7 O1_3 1_555 1_555
Zn11 O3_3 1_555 1_555
O1_3 C5_3 1_555 1_555
O2_3 Zn7 1_555 1_555
O3_3 C7_3 1_555 1_555
O4_3 C5_3 1_555 1_555
O8_2 C6_3 1_555 1_555
O9_2 C6_3 1_555 1_555
C1_3 C7_3 1_555 1_555
C2_3 C5_3 1_555 1_555
C3_3 C6_3 1_555 1_555
C7_3 O2_3 1_555 1_555
C10_3 H2_3 1_555 1_555
C11_3 C10_3 1_555 1_555
C15_3 C2_3 1_555 1_555
H5_3 C15_3 1_555 1_555
C16_3 H6_3 1_555 1_555
C18_3 C16_3 1_555 1_555
C22_3 H8_3 1_555 1_555
C25_3 H10_3 1_555 1_555
C26_3 C18_3 1_555 1_555
C27_3 H11_3 1_555 1_555
C28_3 C2_3 1_555 1_555
H12_3 C28_3 1_555 1_555
C32_3 C11_3 1_555 1_555
C34_3 C26_3 1_555 1_555
H15_3 C34_3 1_555 1_555
C36_3 H17_3 1_555 1_555
C41_3 C22_3 1_555 1_555
C42_3 C11_3 1_555 1_555
H21_3 C42_3 1_555 1_555
C43_3 C3_3 1_555 1_555
H22_3 C43_3 1_555 1_555
C44_3 C3_3 1_555 1_555
H23_3 C44_3 1_555 1_555
C45_3 C18_3 1_555 1_555
H24_3 C45_3 1_555 1_555
C49_3 C36_3 1_555 1_555
H27_3 C51_3 1_555 1_555
C54_3 C1_3 1_555 1_555
H30_3 C54_3 1_555 1_555
C55_3 C44_3 1_555 1_555
H31_3 C55_3 1_555 1_555
C60_3 C27_3 1_555 1_555
C61_3 C62_3 1_555 1_555
C62_3 C27_3 1_555 1_555
H36_3 C62_3 1_555 1_555
C64_3 C61_3 1_555 1_555
H38_3 C64_3 1_555 1_555
C65_3 C61_3 1_555 1_555
H39_3 C65_3 1_555 1_555
Zn8 O8_2 1_555 1_555
Zn11_2 O9_2 1_555 1_555
O16_2 Zn7 1_555 1_555
O17_2 Zn11 1_555 1_555
C10_3 C15_3 1_555 1_555
C22_3 C32_3 1_555 1_555
C25_3 C26_3 1_555 1_555
C25_3 C41_3 1_555 1_555
C28_3 C42_3 1_555 1_555
C32_3 C34_3 1_555 1_555
C36_3 C43_3 1_555 1_555
C41_3 C49_3 1_555 1_555
C45_3 C51_3 1_555 1_555
C49_3 C55_3 1_555 1_555
N2_4 C63_4 1_555 1_555
C63_4 H37_4 1_555 1_555
C66_4 N2_4 1_555 1_555
H40_4 C66_4 1_555 1_555
Zn11_2 N2_4 1_555 1_555
Zn5 O1_4 1_555 1_555
Zn8 O1_4 1_555 1_555
Zn11_2 O3_4 1_555 1_555
O1_4 C5_4 1_555 1_555
O2_4 Zn8 1_555 1_555
O3_4 C7_4 1_555 1_555
O4_4 C5_4 1_555 1_555
O13 C14_4 1_555 1_555
O14_2 C9_4 1_555 1_555
O15_2 C33_4 1_555 1_555
O16_2 C6_4 1_555 1_555
O17_2 C6_4 1_555 1_555
O18 C14_4 1_555 1_555
O19_2 C33_4 1_555 1_555
O12_4 C9_4 1_555 1_555
N1_4 Zn5 1_555 1_555
C1_4 C7_4 1_555 1_555
C2_4 C5_4 1_555 1_555
C3_4 C6_4 1_555 1_555
C4_4 C13_4 1_555 1_555
C7_4 O2_4 1_555 1_555
C8_4 H1_4 1_555 1_555
C9_4 C17_4 1_555 1_555
C10_4 H2_4 1_555 1_555
C11_4 C10_4 1_555 1_555
C12_4 H3_4 1_555 1_555
C13_4 H4_4 1_555 1_555
C14_4 C29_4 1_555 1_555
C15_4 C2_4 1_555 1_555
H5_4 C15_4 1_555 1_555
C16_4 H6_4 1_555 1_555
C17_4 C21_4 1_555 1_555
C18_4 C16_4 1_555 1_555
C19_4 C33_4 1_555 1_555
C20_4 C8_4 1_555 1_555
C21_4 H7_4 1_555 1_555
C22_4 H8_4 1_555 1_555
C23_4 C8_4 1_555 1_555
C24_4 C20_4 1_555 1_555
H9_4 C24_4 1_555 1_555
C25_4 H10_4 1_555 1_555
C26_4 C18_4 1_555 1_555
C27_4 H11_4 1_555 1_555
C28_4 C2_4 1_555 1_555
H12_4 C28_4 1_555 1_555
C29_4 C35_4 1_555 1_555
C30_4 C1_4 1_555 1_555
H13_4 C30_4 1_555 1_555
C31_4 C23_4 1_555 1_555
H14_4 C31_4 1_555 1_555
C32_4 C11_4 1_555 1_555
C34_4 C26_4 1_555 1_555
H15_4 C34_4 1_555 1_555
C35_4 H16_4 1_555 1_555
C36_4 H17_4 1_555 1_555
C37_4 C16_4 1_555 1_555
H18_4 C37_4 1_555 1_555
C38_4 C12_4 1_555 1_555
H19_4 C38_4 1_555 1_555
C39_4 C13_4 1_555 1_555
H20_4 C39_4 1_555 1_555
C40_4 C20_4 1_555 1_555
C41_4 C22_4 1_555 1_555
C42_4 C11_4 1_555 1_555
H21_4 C42_4 1_555 1_555
C43_4 C3_4 1_555 1_555
H22_4 C43_4 1_555 1_555
C44_4 C3_4 1_555 1_555
H23_4 C44_4 1_555 1_555
C45_4 C18_4 1_555 1_555
H24_4 C45_4 1_555 1_555
C46_4 C4_4 1_555 1_555
C47_4 C30_4 1_555 1_555
H25_4 C47_4 1_555 1_555
C48_4 C35_4 1_555 1_555
H26_4 C48_4 1_555 1_555
C49_4 C36_4 1_555 1_555
C50_4 C12_4 1_555 1_555
C51_4 C19_4 1_555 1_555
H27_4 C51_4 1_555 1_555
C52_4 C4_4 1_555 1_555
H28_4 C52_4 1_555 1_555
C53_4 C40_4 1_555 1_555
H29_4 C53_4 1_555 1_555
C54_4 C1_4 1_555 1_555
H30_4 C54_4 1_555 1_555
C55_4 C44_4 1_555 1_555
H31_4 C55_4 1_555 1_555
C56_4 N1_4 1_555 1_555
H32_4 C56_4 1_555 1_555
C57_4 N1_4 1_555 1_555
H33_4 C57_4 1_555 1_555
C58_4 C57_4 1_555 1_555
H34_4 C58_4 1_555 1_555
C59_4 C56_4 1_555 1_555
H35_4 C59_4 1_555 1_555
C60_4 C27_4 1_555 1_555
C61_4 C62_4 1_555 1_555
C62_4 C27_4 1_555 1_555
H36_4 C62_4 1_555 1_555
C64_4 C61_4 1_555 1_555
H38_4 C64_4 1_555 1_555
C65_4 C61_4 1_555 1_555
H39_4 C65_4 1_555 1_555
C10_4 C15_4 1_555 1_555
C17_4 C39_4 1_555 1_555
C19_4 C37_4 1_555 1_555
C21_4 C52_4 1_555 1_555
C22_4 C32_4 1_555 1_555
C23_4 C50_4 1_555 1_555
C24_4 C46_4 1_555 1_555
C25_4 C26_4 1_555 1_555
C25_4 C41_4 1_555 1_555
C28_4 C42_4 1_555 1_555
C29_4 C38_4 1_555 1_555
C31_4 C46_4 1_555 1_555
C32_4 C34_4 1_555 1_555
C36_4 C43_4 1_555 1_555
C40_4 C47_4 1_555 1_555
C41_4 C49_4 1_555 1_555
C45_4 C51_4 1_555 1_555
C48_4 C50_4 1_555 1_555
C49_4 C55_4 1_555 1_555
C53_4 C54_4 1_555 1_555
C58_4 C60_4 1_555 1_555
C59_4 C60_4 1_555 1_555
Zn2_2 O1_5 1_555 1_555
Zn3 O3_5 1_555 1_555
O1_5 C5_5 1_555 1_555
O2_5 Zn2_2 1_555 1_555
O3_5 C7_5 1_555 1_555
O4_5 C5_5 1_555 1_555
O8_3 C6_5 1_555 1_555
O9_3 C6_5 1_555 1_555
C1_5 C7_5 1_555 1_555
C2_5 C5_5 1_555 1_555
C3_5 C6_5 1_555 1_555
C7_5 O2_5 1_555 1_555
C10_5 H2_5 1_555 1_555
C11_5 C10_5 1_555 1_555
C15_5 C2_5 1_555 1_555
H5_5 C15_5 1_555 1_555
C16_5 H6_5 1_555 1_555
C18_5 C16_5 1_555 1_555
C22_5 H8_5 1_555 1_555
C25_5 H10_5 1_555 1_555
C26_5 C18_5 1_555 1_555
C27_5 H11_5 1_555 1_555
C28_5 C2_5 1_555 1_555
H12_5 C28_5 1_555 1_555
C32_5 C11_5 1_555 1_555
C34_5 C26_5 1_555 1_555
H15_5 C34_5 1_555 1_555
C36_5 H17_5 1_555 1_555
C41_5 C22_5 1_555 1_555
C42_5 C11_5 1_555 1_555
H21_5 C42_5 1_555 1_555
C43_5 C3_5 1_555 1_555
H22_5 C43_5 1_555 1_555
C44_5 C3_5 1_555 1_555
H23_5 C44_5 1_555 1_555
C45_5 C18_5 1_555 1_555
H24_5 C45_5 1_555 1_555
C49_5 C36_5 1_555 1_555
H27_5 C51_5 1_555 1_555
C54_5 C1_5 1_555 1_555
H30_5 C54_5 1_555 1_555
C55_5 C44_5 1_555 1_555
H31_5 C55_5 1_555 1_555
C60_5 C27_5 1_555 1_555
C61_5 C62_5 1_555 1_555
C62_5 C27_5 1_555 1_555
H36_5 C62_5 1_555 1_555
C64_5 C61_5 1_555 1_555
H38_5 C64_5 1_555 1_555
C65_5 C61_5 1_555 1_555
H39_5 C65_5 1_555 1_555
Zn6_2 O8_3 1_555 1_555
Zn10_2 O9_3 1_555 1_555
O16_3 Zn2_2 1_555 1_555
O17_3 Zn3 1_555 1_555
N3 Zn3 1_555 1_555
C10_5 C15_5 1_555 1_555
C22_5 C32_5 1_555 1_555
C25_5 C26_5 1_555 1_555
C25_5 C41_5 1_555 1_555
C28_5 C42_5 1_555 1_555
C32_5 C34_5 1_555 1_555
C36_5 C43_5 1_555 1_555
C41_5 C49_5 1_555 1_555
C45_5 C51_5 1_555 1_555
C49_5 C55_5 1_555 1_555
N3 C63_5 1_555 1_555
C63_5 H37_5 1_555 1_555
C66_5 N3 1_555 1_555
H40_5 C66_5 1_555 1_555
N1_5 Zn1_3 1_555 1_555
C56_5 N1_5 1_555 1_555
H32_5 C56_5 1_555 1_555
C57_5 N1_5 1_555 1_555
H33_5 C57_5 1_555 1_555
C58_5 C57_5 1_555 1_555
C59_5 C56_5 1_555 1_555
H35_5 C59_5 1_555 1_555
O18_3 Zn1_3 1_555 1_555
O19_3 Zn1_3 1_555 1_555
O5_3 C14_5 1_555 1_555
O6_3 C9_5 1_555 1_555
O7_3 C33_5 1_555 1_555
O10_3 C14_5 1_555 1_555
O11_3 C33_5 1_555 1_555
O12_5 C9_5 1_555 1_555
C4_5 C13_5 1_555 1_555
C8_5 H1_5 1_555 1_555
C9_5 C17_5 1_555 1_555
C12_5 H3_5 1_555 1_555
C13_5 H4_5 1_555 1_555
C14_5 C29_5 1_555 1_555
C17_5 C21_5 1_555 1_555
C19_5 C33_5 1_555 1_555
C20_5 C8_5 1_555 1_555
C21_5 H7_5 1_555 1_555
C23_5 C8_5 1_555 1_555
C24_5 C20_5 1_555 1_555
H9_5 C24_5 1_555 1_555
C29_5 C35_5 1_555 1_555
H13_5 C30_5 1_555 1_555
C31_5 C23_5 1_555 1_555
H14_5 C31_5 1_555 1_555
C35_5 H16_5 1_555 1_555
H18_5 C37_5 1_555 1_555
C38_5 C12_5 1_555 1_555
H19_5 C38_5 1_555 1_555
C39_5 C13_5 1_555 1_555
H20_5 C39_5 1_555 1_555
C40_5 C20_5 1_555 1_555
C46_5 C4_5 1_555 1_555
C47_5 C30_5 1_555 1_555
H25_5 C47_5 1_555 1_555
C48_5 C35_5 1_555 1_555
H26_5 C48_5 1_555 1_555
C50_5 C12_5 1_555 1_555
C52_5 C4_5 1_555 1_555
H28_5 C52_5 1_555 1_555
C53_5 C40_5 1_555 1_555
H29_5 C53_5 1_555 1_555
Zn4_2 O11_3 1_555 1_555
Zn5_2 O10_3 1_555 1_555
Zn7_2 O6_3 1_555 1_555
Zn11_3 O6_3 1_555 1_555
O7_3 Zn7_2 1_555 1_555
C17_5 C39_5 1_555 1_555
C19_5 C37_5 1_555 1_555
C21_5 C52_5 1_555 1_555
C23_5 C50_5 1_555 1_555
C24_5 C46_5 1_555 1_555
C29_5 C38_5 1_555 1_555
C31_5 C46_5 1_555 1_555
C40_5 C47_5 1_555 1_555
C48_5 C50_5 1_555 1_555
Zn1_4 O1_6 1_555 1_555
Zn6_2 O1_6 1_555 1_555
Zn10_2 O3_6 1_555 1_555
O1_6 C5_6 1_555 1_555
O2_6 Zn6_2 1_555 1_555
O3_6 C7_6 1_555 1_555
O4_6 C5_6 1_555 1_555
O5_4 C14_6 1_555 1_555
O6_4 C9_6 1_555 1_555
O7_4 C33_6 1_555 1_555
O16_3 C6_6 1_555 1_555
O17_3 C6_6 1_555 1_555
O10_4 C14_6 1_555 1_555
O11_4 C33_6 1_555 1_555
O12_6 C9_6 1_555 1_555
N1_6 Zn1_4 1_555 1_555
C1_6 C7_6 1_555 1_555
C2_6 C5_6 1_555 1_555
C3_6 C6_6 1_555 1_555
C4_6 C13_6 1_555 1_555
C7_6 O2_6 1_555 1_555
C8_6 H1_6 1_555 1_555
C9_6 C17_6 1_555 1_555
C10_6 H2_6 1_555 1_555
C11_6 C10_6 1_555 1_555
C12_6 H3_6 1_555 1_555
C13_6 H4_6 1_555 1_555
C14_6 C29_6 1_555 1_555
C15_6 C2_6 1_555 1_555
H5_6 C15_6 1_555 1_555
C16_6 H6_6 1_555 1_555
C17_6 C21_6 1_555 1_555
C18_6 C16_6 1_555 1_555
C19_6 C33_6 1_555 1_555
C20_6 C8_6 1_555 1_555
C21_6 H7_6 1_555 1_555
C22_6 H8_6 1_555 1_555
C23_6 C8_6 1_555 1_555
C24_6 C20_6 1_555 1_555
H9_6 C24_6 1_555 1_555
C25_6 H10_6 1_555 1_555
C26_6 C18_6 1_555 1_555
C27_6 H11_6 1_555 1_555
C28_6 C2_6 1_555 1_555
H12_6 C28_6 1_555 1_555
C29_6 C35_6 1_555 1_555
C30_6 C1_6 1_555 1_555
H13_6 C30_6 1_555 1_555
C31_6 C23_6 1_555 1_555
H14_6 C31_6 1_555 1_555
C32_6 C11_6 1_555 1_555
C34_6 C26_6 1_555 1_555
H15_6 C34_6 1_555 1_555
C35_6 H16_6 1_555 1_555
C36_6 H17_6 1_555 1_555
C37_6 C16_6 1_555 1_555
H18_6 C37_6 1_555 1_555
C38_6 C12_6 1_555 1_555
H19_6 C38_6 1_555 1_555
C39_6 C13_6 1_555 1_555
H20_6 C39_6 1_555 1_555
C40_6 C20_6 1_555 1_555
C41_6 C22_6 1_555 1_555
C42_6 C11_6 1_555 1_555
H21_6 C42_6 1_555 1_555
C43_6 C3_6 1_555 1_555
H22_6 C43_6 1_555 1_555
C44_6 C3_6 1_555 1_555
H23_6 C44_6 1_555 1_555
C45_6 C18_6 1_555 1_555
H24_6 C45_6 1_555 1_555
C46_6 C4_6 1_555 1_555
C47_6 C30_6 1_555 1_555
H25_6 C47_6 1_555 1_555
C48_6 C35_6 1_555 1_555
H26_6 C48_6 1_555 1_555
C49_6 C36_6 1_555 1_555
C50_6 C12_6 1_555 1_555
C51_6 C19_6 1_555 1_555
H27_6 C51_6 1_555 1_555
C52_6 C4_6 1_555 1_555
H28_6 C52_6 1_555 1_555
C53_6 C40_6 1_555 1_555
H29_6 C53_6 1_555 1_555
C54_6 C1_6 1_555 1_555
H30_6 C54_6 1_555 1_555
C55_6 C44_6 1_555 1_555
H31_6 C55_6 1_555 1_555
C56_6 N1_6 1_555 1_555
H32_6 C56_6 1_555 1_555
C57_6 N1_6 1_555 1_555
H33_6 C57_6 1_555 1_555
C58_6 C57_6 1_555 1_555
H34_6 C58_6 1_555 1_555
C59_6 C56_6 1_555 1_555
H35_6 C59_6 1_555 1_555
C60_6 C27_6 1_555 1_555
C61_6 C62_6 1_555 1_555
C62_6 C27_6 1_555 1_555
H36_6 C62_6 1_555 1_555
C64_6 C61_6 1_555 1_555
H38_6 C64_6 1_555 1_555
C65_6 C61_6 1_555 1_555
H39_6 C65_6 1_555 1_555
Zn5_2 O11_4 1_555 1_555
Zn4_2 O10_4 1_555 1_555
Zn7_2 O5_4 1_555 1_555
O13_4 Zn6_2 1_555 1_555
O14_4 Zn6_2 1_555 1_555
O15_4 Zn6_2 1_555 1_555
O18_4 Zn1_4 1_555 1_555
O19_4 Zn1_4 1_555 1_555
N3_2 Zn10_2 1_555 1_555
Zn10_2 O14_4 1_555 1_555
C10_6 C15_6 1_555 1_555
C17_6 C39_6 1_555 1_555
C19_6 C37_6 1_555 1_555
C21_6 C52_6 1_555 1_555
C22_6 C32_6 1_555 1_555
C23_6 C50_6 1_555 1_555
C24_6 C46_6 1_555 1_555
C25_6 C26_6 1_555 1_555
C25_6 C41_6 1_555 1_555
C28_6 C42_6 1_555 1_555
C29_6 C38_6 1_555 1_555
C31_6 C46_6 1_555 1_555
C32_6 C34_6 1_555 1_555
C36_6 C43_6 1_555 1_555
C40_6 C47_6 1_555 1_555
C41_6 C49_6 1_555 1_555
C45_6 C51_6 1_555 1_555
C48_6 C50_6 1_555 1_555
C49_6 C55_6 1_555 1_555
C53_6 C54_6 1_555 1_555
C58_6 C60_6 1_555 1_555
C59_6 C60_6 1_555 1_555
N3_2 C63_6 1_555 1_555
C63_6 H37_6 1_555 1_555
C66_6 N3_2 1_555 1_555
H40_6 C66_6 1_555 1_555
O13_4 C14_7 1_555 1_555
O14_3 C9_7 1_555 1_555
O15_3 C33_7 1_555 1_555
O18_4 C14_7 1_555 1_555
O19_3 C33_7 1_555 1_555
O12_7 C9_7 1_555 1_555
C4_7 C13_7 1_555 1_555
C8_7 H1_7 1_555 1_555
C9_7 C17_7 1_555 1_555
C12_7 H3_7 1_555 1_555
C13_7 H4_7 1_555 1_555
C14_7 C29_7 1_555 1_555
C17_7 C21_7 1_555 1_555
C19_7 C33_7 1_555 1_555
C20_7 C8_7 1_555 1_555
C21_7 H7_7 1_555 1_555
C23_7 C8_7 1_555 1_555
C24_7 C20_7 1_555 1_555
H9_7 C24_7 1_555 1_555
C29_7 C35_7 1_555 1_555
H13_7 C30_7 1_555 1_555
C31_7 C23_7 1_555 1_555
H14_7 C31_7 1_555 1_555
C35_7 H16_7 1_555 1_555
H18_7 C37_7 1_555 1_555
C38_7 C12_7 1_555 1_555
H19_7 C38_7 1_555 1_555
C39_7 C13_7 1_555 1_555
H20_7 C39_7 1_555 1_555
C40_7 C20_7 1_555 1_555
C46_7 C4_7 1_555 1_555
C47_7 C30_7 1_555 1_555
H25_7 C47_7 1_555 1_555
C48_7 C35_7 1_555 1_555
H26_7 C48_7 1_555 1_555
C50_7 C12_7 1_555 1_555
C52_7 C4_7 1_555 1_555
H28_7 C52_7 1_555 1_555
C53_7 C40_7 1_555 1_555
H29_7 C53_7 1_555 1_555
C17_7 C39_7 1_555 1_555
C19_7 C37_7 1_555 1_555
C21_7 C52_7 1_555 1_555
C23_7 C50_7 1_555 1_555
C24_7 C46_7 1_555 1_555
C29_7 C38_7 1_555 1_555
C31_7 C46_7 1_555 1_555
C40_7 C47_7 1_555 1_555
C48_7 C50_7 1_555 1_555
Zn4_2 O1_7 1_555 1_555
Zn7_2 O1_7 1_555 1_555
Zn11_3 O3_7 1_555 1_555
O1_7 C5_7 1_555 1_555
O2_7 Zn7_2 1_555 1_555
O3_7 C7_7 1_555 1_555
O4_7 C5_7 1_555 1_555
O8_4 C6_7 1_555 1_555
O9_4 C6_7 1_555 1_555
N1_7 Zn4_2 1_555 1_555
C1_7 C7_7 1_555 1_555
C2_7 C5_7 1_555 1_555
C3_7 C6_7 1_555 1_555
C7_7 O2_7 1_555 1_555
C10_7 H2_7 1_555 1_555
C11_7 C10_7 1_555 1_555
C15_7 C2_7 1_555 1_555
H5_7 C15_7 1_555 1_555
C16_7 H6_7 1_555 1_555
C18_7 C16_7 1_555 1_555
C22_7 H8_7 1_555 1_555
C25_7 H10_7 1_555 1_555
C26_7 C18_7 1_555 1_555
C27_7 H11_7 1_555 1_555
C28_7 C2_7 1_555 1_555
H12_7 C28_7 1_555 1_555
C32_7 C11_7 1_555 1_555
C34_7 C26_7 1_555 1_555
H15_7 C34_7 1_555 1_555
C36_7 H17_7 1_555 1_555
C41_7 C22_7 1_555 1_555
C42_7 C11_7 1_555 1_555
H21_7 C42_7 1_555 1_555
C43_7 C3_7 1_555 1_555
H22_7 C43_7 1_555 1_555
C44_7 C3_7 1_555 1_555
H23_7 C44_7 1_555 1_555
C45_7 C18_7 1_555 1_555
H24_7 C45_7 1_555 1_555
C49_7 C36_7 1_555 1_555
H27_7 C51_7 1_555 1_555
C54_7 C1_7 1_555 1_555
H30_7 C54_7 1_555 1_555
C55_7 C44_7 1_555 1_555
H31_7 C55_7 1_555 1_555
C56_7 N1_7 1_555 1_555
H32_7 C56_7 1_555 1_555
C57_7 N1_7 1_555 1_555
H33_7 C57_7 1_555 1_555
C58_7 C57_7 1_555 1_555
H34_7 C58_7 1_555 1_555
C59_7 C56_7 1_555 1_555
H35_7 C59_7 1_555 1_555
C60_7 C27_7 1_555 1_555
C61_7 C62_7 1_555 1_555
C62_7 C27_7 1_555 1_555
H36_7 C62_7 1_555 1_555
C64_7 C61_7 1_555 1_555
H38_7 C64_7 1_555 1_555
C65_7 C61_7 1_555 1_555
H39_7 C65_7 1_555 1_555
Zn8_2 O8_4 1_555 1_555
Zn11_4 O9_4 1_555 1_555
O16_4 Zn7_2 1_555 1_555
O17_4 Zn11_3 1_555 1_555
N3_3 Zn11_3 1_555 1_555
C10_7 C15_7 1_555 1_555
C22_7 C32_7 1_555 1_555
C25_7 C26_7 1_555 1_555
C25_7 C41_7 1_555 1_555
C28_7 C42_7 1_555 1_555
C32_7 C34_7 1_555 1_555
C36_7 C43_7 1_555 1_555
C41_7 C49_7 1_555 1_555
C45_7 C51_7 1_555 1_555
C49_7 C55_7 1_555 1_555
C58_7 C60_7 1_555 1_555
C59_7 C60_7 1_555 1_555
N3_3 C63_7 1_555 1_555
C63_7 H37_7 1_555 1_555
C66_7 N3_3 1_555 1_555
H40_7 C66_7 1_555 1_555
N1_8 Zn5_2 1_555 1_555
C56_8 N1_8 1_555 1_555
H32_8 C56_8 1_555 1_555
C57_8 N1_8 1_555 1_555
H33_8 C57_8 1_555 1_555
C58_8 C57_8 1_555 1_555
C59_8 C56_8 1_555 1_555
H35_8 C59_8 1_555 1_555
Zn8_2 O1_8 1_555 1_555
Zn11_4 O3_8 1_555 1_555
O1_8 C5_8 1_555 1_555
O2_8 Zn8_2 1_555 1_555
O3_8 C7_8 1_555 1_555
O4_8 C5_8 1_555 1_555
O13_3 C14_8 1_555 1_555
O14_4 C9_8 1_555 1_555
O15_4 C33_8 1_555 1_555
O16_4 C6_8 1_555 1_555
O17_4 C6_8 1_555 1_555
O18_3 C14_8 1_555 1_555
O19_4 C33_8 1_555 1_555
O12_8 C9_8 1_555 1_555
C1_8 C7_8 1_555 1_555
C2_8 C5_8 1_555 1_555
C3_8 C6_8 1_555 1_555
C4_8 C13_8 1_555 1_555
C7_8 O2_8 1_555 1_555
C8_8 H1_8 1_555 1_555
C9_8 C17_8 1_555 1_555
C10_8 H2_8 1_555 1_555
C11_8 C10_8 1_555 1_555
C12_8 H3_8 1_555 1_555
C13_8 H4_8 1_555 1_555
C14_8 C29_8 1_555 1_555
C15_8 C2_8 1_555 1_555
H5_8 C15_8 1_555 1_555
C16_8 H6_8 1_555 1_555
C17_8 C21_8 1_555 1_555
C18_8 C16_8 1_555 1_555
C19_8 C33_8 1_555 1_555
C20_8 C8_8 1_555 1_555
C21_8 H7_8 1_555 1_555
C22_8 H8_8 1_555 1_555
C23_8 C8_8 1_555 1_555
C24_8 C20_8 1_555 1_555
H9_8 C24_8 1_555 1_555
C25_8 H10_8 1_555 1_555
C26_8 C18_8 1_555 1_555
C27_8 H11_8 1_555 1_555
C28_8 C2_8 1_555 1_555
H12_8 C28_8 1_555 1_555
C29_8 C35_8 1_555 1_555
C30_8 C1_8 1_555 1_555
H13_8 C30_8 1_555 1_555
C31_8 C23_8 1_555 1_555
H14_8 C31_8 1_555 1_555
C32_8 C11_8 1_555 1_555
C34_8 C26_8 1_555 1_555
H15_8 C34_8 1_555 1_555
C35_8 H16_8 1_555 1_555
C36_8 H17_8 1_555 1_555
C37_8 C16_8 1_555 1_555
H18_8 C37_8 1_555 1_555
C38_8 C12_8 1_555 1_555
H19_8 C38_8 1_555 1_555
C39_8 C13_8 1_555 1_555
H20_8 C39_8 1_555 1_555
C40_8 C20_8 1_555 1_555
C41_8 C22_8 1_555 1_555
C42_8 C11_8 1_555 1_555
H21_8 C42_8 1_555 1_555
C43_8 C3_8 1_555 1_555
H22_8 C43_8 1_555 1_555
C44_8 C3_8 1_555 1_555
H23_8 C44_8 1_555 1_555
C45_8 C18_8 1_555 1_555
H24_8 C45_8 1_555 1_555
C46_8 C4_8 1_555 1_555
C47_8 C30_8 1_555 1_555
H25_8 C47_8 1_555 1_555
C48_8 C35_8 1_555 1_555
H26_8 C48_8 1_555 1_555
C49_8 C36_8 1_555 1_555
C50_8 C12_8 1_555 1_555
C51_8 C19_8 1_555 1_555
H27_8 C51_8 1_555 1_555
C52_8 C4_8 1_555 1_555
H28_8 C52_8 1_555 1_555
C53_8 C40_8 1_555 1_555
H29_8 C53_8 1_555 1_555
C54_8 C1_8 1_555 1_555
H30_8 C54_8 1_555 1_555
C55_8 C44_8 1_555 1_555
H31_8 C55_8 1_555 1_555
C60_8 C27_8 1_555 1_555
C61_8 C62_8 1_555 1_555
C62_8 C27_8 1_555 1_555
H36_8 C62_8 1_555 1_555
C64_8 C61_8 1_555 1_555
H38_8 C64_8 1_555 1_555
C65_8 C61_8 1_555 1_555
H39_8 C65_8 1_555 1_555
N3_4 Zn11_4 1_555 1_555
C10_8 C15_8 1_555 1_555
C17_8 C39_8 1_555 1_555
C19_8 C37_8 1_555 1_555
C21_8 C52_8 1_555 1_555
C22_8 C32_8 1_555 1_555
C23_8 C50_8 1_555 1_555
C24_8 C46_8 1_555 1_555
C25_8 C26_8 1_555 1_555
C25_8 C41_8 1_555 1_555
C28_8 C42_8 1_555 1_555
C29_8 C38_8 1_555 1_555
C31_8 C46_8 1_555 1_555
C32_8 C34_8 1_555 1_555
C36_8 C43_8 1_555 1_555
C40_8 C47_8 1_555 1_555
C41_8 C49_8 1_555 1_555
C45_8 C51_8 1_555 1_555
C48_8 C50_8 1_555 1_555
C49_8 C55_8 1_555 1_555
C53_8 C54_8 1_555 1_555
N3_4 C63_8 1_555 1_555
C63_8 H37_8 1_555 1_555
C66_8 N3_4 1_555 1_555
H40_8 C66_8 1_555 1_555

#END
