
###############################################################################
#
# This file contains modified crystal structure data generated from the
# MOF subset of the Cambridge Structural Database (CSD) v543 
# hosted by the Cambridge Crystallographic Data Centre (CCDC).
#
# This work is licensed under the Creative Commons
# Attribution-NonCommercial-ShareAlike 4.0 International License.
# To view a copy of this license, visit
# http://creativecommons.org/licenses/by-nc-sa/4.0/
# or send a letter to
# Creative Commons, PO Box 1866, Mountain View, CA 94042, USA.
#
# CIF created using the CSD Python API on 29 September 2022
# The structure has been converted into the P1 space group
# The structure has a 3D framework
# The original CSD entry KOSZUQ is in the orthorhombic crystal system
# The framework has been calculated to contain at least 10.0% void space
# The void calculation uses a probe of radius 1.32A, grid spacing 0.4
#
###############################################################################

data_KOSZUQ
_chemical_formula_moiety         '(C240 H160 N48 O32 Zn16)n'
_symmetry_cell_setting           triclinic
_symmetry_space_group_name_H-M   'P 1'
_symmetry_Int_Tables_number      1
_space_group_name_Hall           'P 1'
loop_
_symmetry_equiv_pos_site_id
_symmetry_equiv_pos_as_xyz
1 x,y,z
_cell_length_a                   18.4096(5)
_cell_length_b                   18.7666(6)
_cell_length_c                   30.4087(9)
_cell_angle_alpha                90
_cell_angle_beta                 90
_cell_angle_gamma                90
_cell_volume                     10505.8
loop_
_atom_site_label
_atom_site_type_symbol
_atom_site_fract_x
_atom_site_fract_y
_atom_site_fract_z
Zn1 Zn 0.17489(2) 0.05785(2) 0.11757(2)
N3 N 0.27587(14) 0.08783(14) 0.13315(11)
N4 N 0.33519(14) 0.04360(15) 0.13309(11)
O1 O 0.52908(18) 0.42909(16) 0.24189(12)
O2 O 0.62339(15) 0.36386(15) 0.22256(10)
C10 C 0.5548(2) 0.3755(2) 0.22482(14)
C11 C 0.29826(19) 0.15225(18) 0.14732(13)
H7 H 0.2685 0.1920 0.1505
C12 C 0.37169(19) 0.15074(18) 0.15641(13)
C13 C 0.41822(18) 0.20924(18) 0.17299(13)
C14 C 0.39215(18) 0.08155(18) 0.14720(13)
H8 H 0.4390 0.0638 0.1504
C15 C 0.3882(2) 0.2708(2) 0.19004(17)
H9 H 0.3380 0.2766 0.1904
C16 C 0.4936(2) 0.2026(2) 0.17258(15)
H10 H 0.5147 0.1615 0.1612
C17 C 0.50737(19) 0.31776(19) 0.20625(13)
C18 C 0.5374(2) 0.2561(2) 0.18888(15)
H11 H 0.5876 0.2507 0.1882
C19 C 0.4332(2) 0.3247(2) 0.20688(17)
H12 H 0.4125 0.3657 0.2186
N6 N 0.16944(16) 0.06263(16) 0.04988(11)
C26 C 0.2071(3) 0.1075(3) 0.02778(16)
H17 H 0.2352 0.1401 0.0433
C27 C 0.1308(3) 0.0176(3) 0.02741(17)
Zn6 Zn 0.67412(2) 0.44175(2) 0.24993(2)
O6 O 0.12002(14) 0.13478(14) 0.14312(10)
Zn2 Zn 0.17412(2) 0.05825(2) 0.74993(2)
N1 N 0.27584(14) 0.08742(15) 0.73487(11)
N2 N 0.33564(15) 0.04384(15) 0.73557(11)
C1 C 0.29845(19) 0.15199(17) 0.72039(13)
H1 H 0.2685 0.1914 0.7167
C2 C 0.37206(18) 0.15105(18) 0.71197(12)
C3 C 0.50495(19) 0.31899(19) 0.66064(14)
C4 C 0.41781(19) 0.20961(18) 0.69493(13)
C5 C 0.39278(19) 0.08183(19) 0.72217(14)
H2 H 0.4399 0.0644 0.7200
C6 C 0.3877(2) 0.2703(2) 0.67776(17)
H3 H 0.3374 0.2753 0.6774
C7 C 0.5349(2) 0.2587(2) 0.67871(18)
H4 H 0.5852 0.2540 0.6794
C8 C 0.4310(2) 0.3248(2) 0.66074(17)
H5 H 0.4092 0.3655 0.6493
C9 C 0.4921(2) 0.2045(2) 0.69592(18)
H6 H 0.5140 0.1645 0.7082
N5 N 0.16955(15) 0.06350(15) 0.81767(11)
C20 C 0.16732(19) 0.06519(19) 0.90912(13)
C21 C 0.1669(2) 0.0652(2) 0.95784(15)
C22 C 0.1130(2) 0.0317(2) 0.88542(14)
H13 H 0.0752 0.0087 0.8999
C23 C 0.2230(2) 0.0944(2) 0.84092(14)
H14 H 0.2617 0.1148 0.8258
C24 C 0.1156(2) 0.0329(2) 0.84004(13)
H15 H 0.0781 0.0114 0.8244
C25 C 0.2228(2) 0.0971(2) 0.88607(14)
H16 H 0.2600 0.1204 0.9010
C28 C 0.2086(3) 0.1104(3) 0.98214(17)
H19 H 0.2382 0.1434 0.9681
C29 C 0.1271(4) 0.0176(3) 0.98199(16)
O3 O 0.62002(14) 0.36522(14) 0.64312(10)
O4 O 0.52503(17) 0.43030(15) 0.62551(12)
C30 C 0.5511(2) 0.3767(2) 0.64184(14)
Zn4 Zn 0.67489(2) 0.44215(2) 0.61757(2)
O5 O 0.12339(15) 0.13614(15) 0.72256(10)
H18 H 0.1043 0.9834 0.0427
Zn3 Zn 0.32511(2) 0.94215(2) 0.11757(2)
N8 N 0.16481(14) 0.95640(15) 0.13309(11)
H20 H 0.0973 0.9850 0.9677
Zn5 Zn 0.32588(2) 0.94175(2) 0.74993(2)
N7 N 0.16436(15) 0.95616(15) 0.73557(11)
H18_2 H 0.3957 0.0166 0.0427
H20_2 H 0.4027 0.0150 0.9677
N3_2 N 0.22413(14) 0.91217(14) 0.13315(11)
C11_2 C 0.20174(19) 0.84775(18) 0.14732(13)
H7_2 H 0.2315 0.8080 0.1505
C12_2 C 0.12831(19) 0.84926(18) 0.15641(13)
C13_2 C 0.08178(18) 0.79076(18) 0.17299(13)
C14_2 C 0.10785(18) 0.91845(18) 0.14720(13)
H8_2 H 0.0610 0.9362 0.1504
C15_2 C 0.1118(2) 0.7292(2) 0.19004(17)
H9_2 H 0.1620 0.7234 0.1904
C16_2 C 0.0064(2) 0.7974(2) 0.17258(15)
C19_2 C 0.0668(2) 0.6753(2) 0.20688(17)
H12_2 H 0.0875 0.6343 0.2186
N6_2 N 0.33056(16) 0.93737(16) 0.04988(11)
C26_2 C 0.2929(3) 0.8925(3) 0.02778(16)
H17_2 H 0.2648 0.8599 0.0433
C27_2 C 0.3692(3) 0.9824(3) 0.02741(17)
O6_2 O 0.37998(14) 0.86522(14) 0.14312(10)
N1_2 N 0.22416(14) 0.91258(15) 0.73487(11)
C1_2 C 0.20155(19) 0.84801(17) 0.72039(13)
H1_2 H 0.2315 0.8086 0.7167
C2_2 C 0.12794(18) 0.84895(18) 0.71197(12)
C4_2 C 0.08219(19) 0.79039(18) 0.69493(13)
C5_2 C 0.10722(19) 0.91817(19) 0.72217(14)
H2_2 H 0.0601 0.9356 0.7200
C6_2 C 0.1123(2) 0.7297(2) 0.67776(17)
H3_2 H 0.1626 0.7247 0.6774
C8_2 C 0.0690(2) 0.6752(2) 0.66074(17)
H5_2 H 0.0908 0.6345 0.6493
C9_2 C 0.0079(2) 0.7955(2) 0.69592(18)
N5_2 N 0.33045(15) 0.93650(15) 0.81767(11)
C20_2 C 0.33268(19) 0.93481(19) 0.90912(13)
C21_2 C 0.3331(2) 0.9348(2) 0.95784(15)
C22_2 C 0.3870(2) 0.9683(2) 0.88542(14)
H13_2 H 0.4248 0.9913 0.8999
C23_2 C 0.2770(2) 0.9056(2) 0.84092(14)
H14_2 H 0.2383 0.8852 0.8258
C24_2 C 0.3844(2) 0.9671(2) 0.84004(13)
H15_2 H 0.4219 0.9886 0.8244
C25_2 C 0.2772(2) 0.9029(2) 0.88607(14)
H16_2 H 0.2400 0.8796 0.9010
C28_2 C 0.2914(3) 0.8896(3) 0.98214(17)
H19_2 H 0.2618 0.8566 0.9681
C29_2 C 0.3729(4) 0.9824(3) 0.98199(16)
O5_2 O 0.37661(15) 0.86386(15) 0.72256(10)
O1_2 O 0.97092(18) 0.57091(16) 0.24189(12)
O2_2 O 0.87661(15) 0.63614(15) 0.22256(10)
C10_2 C 0.9452(2) 0.6245(2) 0.22482(14)
H10_2 H 0.9853 0.8385 0.1612
C17_2 C 0.99263(19) 0.68224(19) 0.20625(13)
C18_2 C 0.9626(2) 0.7439(2) 0.18888(15)
H11_2 H 0.9124 0.7493 0.1882
Zn6_2 Zn 0.82588(2) 0.55825(2) 0.24993(2)
C3_2 C 0.99505(19) 0.68101(19) 0.66064(14)
C7_2 C 0.9651(2) 0.7413(2) 0.67871(18)
H4_2 H 0.9148 0.7460 0.6794
H6_2 H 0.9860 0.8355 0.7082
O3_2 O 0.87998(14) 0.63478(14) 0.64312(10)
O4_2 O 0.97497(17) 0.56970(15) 0.62551(12)
C30_2 C 0.9489(2) 0.6233(2) 0.64184(14)
Zn4_2 Zn 0.82511(2) 0.55785(2) 0.61757(2)
C3_3 C 0.00495(19) 0.18101(19) 0.16064(14)
C7_3 C 0.0349(2) 0.2413(2) 0.17871(18)
H4_3 H 0.0852 0.2460 0.1794
H6_3 H 0.0140 0.3355 0.2082
O1_3 O 0.02908(18) 0.07091(16) 0.74189(12)
C10_3 C 0.0548(2) 0.1245(2) 0.72482(14)
H10_3 H 0.0147 0.3385 0.6612
C17_3 C 0.00737(19) 0.18224(19) 0.70625(13)
C18_3 C 0.0374(2) 0.2439(2) 0.68888(15)
H11_3 H 0.0876 0.2493 0.6882
O4_3 O 0.02503(17) 0.06970(15) 0.12551(12)
C30_3 C 0.0511(2) 0.1233(2) 0.14184(14)
N1_3 N 0.77584(14) 0.41258(15) 0.23487(11)
N2_2 N 0.83564(15) 0.45616(15) 0.23557(11)
N3_3 N 0.77587(14) 0.41217(14) 0.63315(11)
N4_2 N 0.83519(14) 0.45640(15) 0.63309(11)
C1_3 C 0.79845(19) 0.34801(17) 0.22039(13)
H1_3 H 0.7685 0.3086 0.2167
C2_3 C 0.87206(18) 0.34895(18) 0.21197(12)
C4_3 C 0.91781(19) 0.29039(18) 0.19493(13)
C5_3 C 0.89278(19) 0.41817(19) 0.22217(14)
H2_3 H 0.9399 0.4356 0.2200
C6_3 C 0.8877(2) 0.2297(2) 0.17776(17)
H3_3 H 0.8374 0.2247 0.1774
C8_3 C 0.9310(2) 0.1752(2) 0.16074(17)
H5_3 H 0.9092 0.1345 0.1493
C9_3 C 0.9921(2) 0.2955(2) 0.19592(18)
C11_3 C 0.79826(19) 0.34775(18) 0.64732(13)
H7_3 H 0.7685 0.3080 0.6505
C12_3 C 0.87169(19) 0.34926(18) 0.65641(13)
C13_3 C 0.91822(18) 0.29076(18) 0.67299(13)
C14_3 C 0.89215(18) 0.41845(18) 0.64720(13)
H8_3 H 0.9390 0.4362 0.6504
C15_3 C 0.8882(2) 0.2292(2) 0.69004(17)
H9_3 H 0.8380 0.2234 0.6904
C16_3 C 0.9936(2) 0.2974(2) 0.67258(15)
C19_3 C 0.9332(2) 0.1753(2) 0.70688(17)
H12_3 H 0.9125 0.1343 0.7186
N5_3 N 0.66955(15) 0.43650(15) 0.31767(11)
N6_3 N 0.66944(16) 0.43737(16) 0.54988(11)
C20_3 C 0.66732(19) 0.43481(19) 0.40912(13)
C21_3 C 0.6669(2) 0.4348(2) 0.45784(15)
C22_3 C 0.6130(2) 0.4683(2) 0.38542(14)
H13_3 H 0.5752 0.4913 0.3999
C23_3 C 0.7230(2) 0.4056(2) 0.34092(14)
H14_3 H 0.7617 0.3852 0.3258
C24_3 C 0.6156(2) 0.4671(2) 0.34004(13)
H15_3 H 0.5781 0.4886 0.3244
C25_3 C 0.7228(2) 0.4029(2) 0.38607(14)
H16_3 H 0.7600 0.3796 0.4010
C26_3 C 0.7071(3) 0.3925(3) 0.52778(16)
H17_3 H 0.7352 0.3599 0.5433
C27_3 C 0.6308(3) 0.4824(3) 0.52741(17)
H18_3 H 0.6043 0.5166 0.5427
C28_3 C 0.7086(3) 0.3896(3) 0.48214(17)
H19_3 H 0.7382 0.3566 0.4681
C29_3 C 0.6271(4) 0.4824(3) 0.48199(16)
H20_3 H 0.5973 0.5150 0.4677
N7_2 N 0.66436(15) 0.54384(15) 0.23557(11)
N8_2 N 0.66481(14) 0.54360(15) 0.63309(11)
N1_4 N 0.72416(14) 0.58742(15) 0.23487(11)
N3_4 N 0.72413(14) 0.58783(14) 0.63315(11)
C1_4 C 0.70155(19) 0.65199(17) 0.22039(13)
H1_4 H 0.7315 0.6914 0.2167
C2_4 C 0.62794(18) 0.65105(18) 0.21197(12)
C3_4 C 0.49505(19) 0.81899(19) 0.16064(14)
C4_4 C 0.58219(19) 0.70961(18) 0.19493(13)
C5_4 C 0.60722(19) 0.58183(19) 0.22217(14)
H2_4 H 0.5601 0.5644 0.2200
C6_4 C 0.6123(2) 0.7703(2) 0.17776(17)
H3_4 H 0.6626 0.7753 0.1774
C7_4 C 0.4651(2) 0.7587(2) 0.17871(18)
H4_4 H 0.4148 0.7540 0.1794
C8_4 C 0.5690(2) 0.8248(2) 0.16074(17)
H5_4 H 0.5908 0.8655 0.1493
C9_4 C 0.5079(2) 0.7045(2) 0.19592(18)
H6_4 H 0.4860 0.6645 0.2082
O1_4 O 0.47092(18) 0.92909(16) 0.74189(12)
C10_4 C 0.4452(2) 0.8755(2) 0.72482(14)
C11_4 C 0.70174(19) 0.65225(18) 0.64732(13)
H7_4 H 0.7315 0.6920 0.6505
C12_4 C 0.62831(19) 0.65074(18) 0.65641(13)
C13_4 C 0.58178(18) 0.70924(18) 0.67299(13)
C14_4 C 0.60785(18) 0.58155(18) 0.64720(13)
H8_4 H 0.5610 0.5638 0.6504
C15_4 C 0.6118(2) 0.7708(2) 0.69004(17)
H9_4 H 0.6620 0.7766 0.6904
C16_4 C 0.5064(2) 0.7026(2) 0.67258(15)
H10_4 H 0.4853 0.6615 0.6612
C17_4 C 0.49263(19) 0.81776(19) 0.70625(13)
C18_4 C 0.4626(2) 0.7561(2) 0.68888(15)
H11_4 H 0.4124 0.7507 0.6882
C19_4 C 0.5668(2) 0.8247(2) 0.70688(17)
H12_4 H 0.5875 0.8657 0.7186
N5_4 N 0.83045(15) 0.56350(15) 0.31767(11)
N6_4 N 0.83056(16) 0.56263(16) 0.54988(11)
C20_4 C 0.83268(19) 0.56519(19) 0.40912(13)
C21_4 C 0.8331(2) 0.5652(2) 0.45784(15)
C22_4 C 0.8870(2) 0.5317(2) 0.38542(14)
H13_4 H 0.9248 0.5087 0.3999
C23_4 C 0.7770(2) 0.5944(2) 0.34092(14)
H14_4 H 0.7383 0.6148 0.3258
C24_4 C 0.8844(2) 0.5329(2) 0.34004(13)
H15_4 H 0.9219 0.5114 0.3244
C25_4 C 0.7772(2) 0.5971(2) 0.38607(14)
H16_4 H 0.7400 0.6204 0.4010
C26_4 C 0.7929(3) 0.6075(3) 0.52778(16)
H17_4 H 0.7648 0.6401 0.5433
C27_4 C 0.8692(3) 0.5176(3) 0.52741(17)
H18_4 H 0.8957 0.4834 0.5427
C28_4 C 0.7914(3) 0.6104(3) 0.48214(17)
H19_4 H 0.7618 0.6434 0.4681
C29_4 C 0.8729(4) 0.5176(3) 0.48199(16)
H20_4 H 0.9027 0.4850 0.4677
O4_4 O 0.47497(17) 0.93030(15) 0.12551(12)
C30_4 C 0.4489(2) 0.8767(2) 0.14184(14)
Zn1_2 Zn 0.32511(2) 0.55785(2) 0.38243(2)
Zn2_2 Zn 0.32588(2) 0.55825(2) 0.75007(2)
N1_5 N 0.22416(14) 0.58742(15) 0.76513(11)
N2_3 N 0.16436(15) 0.54384(15) 0.76443(11)
N3_5 N 0.22413(14) 0.58783(14) 0.36685(11)
N4_3 N 0.16481(14) 0.54360(15) 0.36691(11)
C1_5 C 0.20155(19) 0.65199(17) 0.77961(13)
H1_5 H 0.2315 0.6914 0.7833
C2_5 C 0.12794(18) 0.65105(18) 0.78803(12)
C4_5 C 0.08219(19) 0.70961(18) 0.80507(13)
C5_5 C 0.10722(19) 0.58183(19) 0.77783(14)
H2_5 H 0.0601 0.5644 0.7800
C6_5 C 0.1123(2) 0.7703(2) 0.82224(17)
H3_5 H 0.1626 0.7753 0.8226
C8_5 C 0.0690(2) 0.8248(2) 0.83926(17)
H5_5 H 0.0908 0.8655 0.8507
C9_5 C 0.0079(2) 0.7045(2) 0.80408(18)
C11_5 C 0.20174(19) 0.65225(18) 0.35268(13)
H7_5 H 0.2315 0.6920 0.3495
C12_5 C 0.12831(19) 0.65074(18) 0.34359(13)
C13_5 C 0.08178(18) 0.70924(18) 0.32701(13)
C14_5 C 0.10785(18) 0.58155(18) 0.35280(13)
H8_5 H 0.0610 0.5638 0.3496
C15_5 C 0.1118(2) 0.7708(2) 0.30996(17)
H9_5 H 0.1620 0.7766 0.3096
C16_5 C 0.0064(2) 0.7026(2) 0.32742(15)
C19_5 C 0.0668(2) 0.8247(2) 0.29312(17)
H12_5 H 0.0875 0.8657 0.2814
N5_5 N 0.33045(15) 0.56350(15) 0.68233(11)
N6_5 N 0.33056(16) 0.56263(16) 0.45012(11)
C20_5 C 0.33268(19) 0.56519(19) 0.59088(13)
C21_5 C 0.3331(2) 0.5652(2) 0.54216(15)
C22_5 C 0.3870(2) 0.5317(2) 0.61458(14)
H13_5 H 0.4248 0.5087 0.6001
C23_5 C 0.2770(2) 0.5944(2) 0.65908(14)
H14_5 H 0.2383 0.6148 0.6742
C24_5 C 0.3844(2) 0.5329(2) 0.65996(13)
H15_5 H 0.4219 0.5114 0.6756
C25_5 C 0.2772(2) 0.5971(2) 0.61393(14)
H16_5 H 0.2400 0.6204 0.5990
C26_5 C 0.2929(3) 0.6075(3) 0.47222(16)
H17_5 H 0.2648 0.6401 0.4567
C27_5 C 0.3692(3) 0.5176(3) 0.47259(17)
H18_5 H 0.3957 0.4834 0.4573
C28_5 C 0.2914(3) 0.6104(3) 0.51786(17)
H19_5 H 0.2618 0.6434 0.5319
C29_5 C 0.3729(4) 0.5176(3) 0.51801(16)
H20_5 H 0.4027 0.4850 0.5323
Zn3_2 Zn 0.17489(2) 0.44215(2) 0.38243(2)
Zn5_2 Zn 0.17412(2) 0.44175(2) 0.75007(2)
N7_3 N 0.33564(15) 0.45616(15) 0.76443(11)
N8_3 N 0.33519(14) 0.45640(15) 0.36691(11)
O5_3 O 0.37661(15) 0.63614(15) 0.77744(10)
O6_3 O 0.37998(14) 0.63478(14) 0.35688(10)
C3_5 C 0.99505(19) 0.81899(19) 0.83936(14)
C7_5 C 0.9651(2) 0.7587(2) 0.82129(18)
H4_5 H 0.9148 0.7540 0.8206
H6_5 H 0.9860 0.6645 0.7918
O1_5 O 0.97092(18) 0.92909(16) 0.25811(12)
O2_3 O 0.87661(15) 0.86386(15) 0.27744(10)
C10_5 C 0.9452(2) 0.8755(2) 0.27518(14)
H10_5 H 0.9853 0.6615 0.3388
C17_5 C 0.99263(19) 0.81776(19) 0.29375(13)
C18_5 C 0.9626(2) 0.7561(2) 0.31112(15)
H11_5 H 0.9124 0.7507 0.3118
O3_3 O 0.87998(14) 0.86522(14) 0.85688(10)
O4_5 O 0.97497(17) 0.93030(15) 0.87449(12)
C30_5 C 0.9489(2) 0.8767(2) 0.85816(14)
Zn4_3 Zn 0.82511(2) 0.94215(2) 0.88243(2)
Zn6_3 Zn 0.82588(2) 0.94175(2) 0.25007(2)
N1_6 N 0.27584(14) 0.41258(15) 0.76513(11)
N3_6 N 0.27587(14) 0.41217(14) 0.36685(11)
C1_6 C 0.29845(19) 0.34801(17) 0.77961(13)
H1_6 H 0.2685 0.3086 0.7833
C2_6 C 0.37206(18) 0.34895(18) 0.78803(12)
C3_6 C 0.50495(19) 0.18101(19) 0.83936(14)
C4_6 C 0.41781(19) 0.29039(18) 0.80507(13)
C5_6 C 0.39278(19) 0.41817(19) 0.77783(14)
H2_6 H 0.4399 0.4356 0.7800
C6_6 C 0.3877(2) 0.2297(2) 0.82224(17)
H3_6 H 0.3374 0.2247 0.8226
C7_6 C 0.5349(2) 0.2413(2) 0.82129(18)
H4_6 H 0.5852 0.2460 0.8206
C8_6 C 0.4310(2) 0.1752(2) 0.83926(17)
H5_6 H 0.4092 0.1345 0.8507
C9_6 C 0.4921(2) 0.2955(2) 0.80408(18)
H6_6 H 0.5140 0.3355 0.7918
O1_6 O 0.52908(18) 0.07091(16) 0.25811(12)
O2_4 O 0.62339(15) 0.13614(15) 0.27744(10)
C10_6 C 0.5548(2) 0.1245(2) 0.27518(14)
C11_6 C 0.29826(19) 0.34775(18) 0.35268(13)
H7_6 H 0.2685 0.3080 0.3495
C12_6 C 0.37169(19) 0.34926(18) 0.34359(13)
C13_6 C 0.41822(18) 0.29076(18) 0.32701(13)
C14_6 C 0.39215(18) 0.41845(18) 0.35280(13)
H8_6 H 0.4390 0.4362 0.3496
C15_6 C 0.3882(2) 0.2292(2) 0.30996(17)
H9_6 H 0.3380 0.2234 0.3096
C16_6 C 0.4936(2) 0.2974(2) 0.32742(15)
H10_6 H 0.5147 0.3385 0.3388
C17_6 C 0.50737(19) 0.18224(19) 0.29375(13)
C18_6 C 0.5374(2) 0.2439(2) 0.31112(15)
H11_6 H 0.5876 0.2493 0.3118
C19_6 C 0.4332(2) 0.1753(2) 0.29312(17)
H12_6 H 0.4125 0.1343 0.2814
N5_6 N 0.16955(15) 0.43650(15) 0.68233(11)
N6_6 N 0.16944(16) 0.43737(16) 0.45012(11)
C20_6 C 0.16732(19) 0.43481(19) 0.59088(13)
C21_6 C 0.1669(2) 0.4348(2) 0.54216(15)
C22_6 C 0.1130(2) 0.4683(2) 0.61458(14)
H13_6 H 0.0752 0.4913 0.6001
C23_6 C 0.2230(2) 0.4056(2) 0.65908(14)
H14_6 H 0.2617 0.3852 0.6742
C24_6 C 0.1156(2) 0.4671(2) 0.65996(13)
H15_6 H 0.0781 0.4886 0.6756
C25_6 C 0.2228(2) 0.4029(2) 0.61393(14)
H16_6 H 0.2600 0.3796 0.5990
C26_6 C 0.2071(3) 0.3925(3) 0.47222(16)
H17_6 H 0.2352 0.3599 0.4567
C27_6 C 0.1308(3) 0.4824(3) 0.47259(17)
H18_6 H 0.1043 0.5166 0.4573
C28_6 C 0.2086(3) 0.3896(3) 0.51786(17)
H19_6 H 0.2382 0.3566 0.5319
C29_6 C 0.1271(4) 0.4824(3) 0.51801(16)
H20_6 H 0.0973 0.5150 0.5323
O3_4 O 0.62002(14) 0.13478(14) 0.85688(10)
O4_6 O 0.52503(17) 0.06970(15) 0.87449(12)
C30_6 C 0.5511(2) 0.1233(2) 0.85816(14)
Zn4_4 Zn 0.67489(2) 0.05785(2) 0.88243(2)
Zn6_4 Zn 0.67412(2) 0.05825(2) 0.25007(2)
O5_4 O 0.12339(15) 0.36386(15) 0.77744(10)
O6_4 O 0.12002(14) 0.36522(14) 0.35688(10)
H20_7 H 0.9027 0.0150 0.0323
N7_4 N 0.83564(15) 0.04384(15) 0.26443(11)
H18_7 H 0.8957 0.0166 0.9573
N8_4 N 0.83519(14) 0.04360(15) 0.86691(11)
N1_7 N 0.72416(14) 0.91258(15) 0.26513(11)
N2_4 N 0.66436(15) 0.95616(15) 0.26443(11)
C1_7 C 0.70155(19) 0.84801(17) 0.27961(13)
H1_7 H 0.7315 0.8086 0.2833
C2_7 C 0.62794(18) 0.84895(18) 0.28803(12)
C3_7 C 0.49505(19) 0.68101(19) 0.33936(14)
C4_7 C 0.58219(19) 0.79039(18) 0.30507(13)
C5_7 C 0.60722(19) 0.91817(19) 0.27783(14)
H2_7 H 0.5601 0.9356 0.2800
C6_7 C 0.6123(2) 0.7297(2) 0.32224(17)
H3_7 H 0.6626 0.7247 0.3226
C7_7 C 0.4651(2) 0.7413(2) 0.32129(18)
H4_7 H 0.4148 0.7460 0.3206
C8_7 C 0.5690(2) 0.6752(2) 0.33926(17)
H5_7 H 0.5908 0.6345 0.3507
C9_7 C 0.5079(2) 0.7955(2) 0.30408(18)
H6_7 H 0.4860 0.8355 0.2918
N5_7 N 0.83045(15) 0.93650(15) 0.18233(11)
C20_7 C 0.83268(19) 0.93481(19) 0.09088(13)
C21_7 C 0.8331(2) 0.9348(2) 0.04216(15)
C22_7 C 0.8870(2) 0.9683(2) 0.11458(14)
H13_7 H 0.9248 0.9913 0.1001
C23_7 C 0.7770(2) 0.9056(2) 0.15908(14)
H14_7 H 0.7383 0.8852 0.1742
C24_7 C 0.8844(2) 0.9671(2) 0.15996(13)
H15_7 H 0.9219 0.9886 0.1756
C25_7 C 0.7772(2) 0.9029(2) 0.11393(14)
H16_7 H 0.7400 0.8796 0.0990
C28_7 C 0.7914(3) 0.8896(3) 0.01786(17)
H19_7 H 0.7618 0.8566 0.0319
C29_7 C 0.8729(4) 0.9824(3) 0.01801(16)
O4_7 O 0.47497(17) 0.56970(15) 0.37449(12)
C30_7 C 0.4489(2) 0.6233(2) 0.35816(14)
N3_7 N 0.72413(14) 0.91217(14) 0.86685(11)
N4_4 N 0.66481(14) 0.95640(15) 0.86691(11)
O1_7 O 0.47092(18) 0.57091(16) 0.75811(12)
C10_7 C 0.4452(2) 0.6245(2) 0.77518(14)
C11_7 C 0.70174(19) 0.84775(18) 0.85268(13)
H7_7 H 0.7315 0.8080 0.8495
C12_7 C 0.62831(19) 0.84926(18) 0.84359(13)
C13_7 C 0.58178(18) 0.79076(18) 0.82701(13)
C14_7 C 0.60785(18) 0.91845(18) 0.85280(13)
H8_7 H 0.5610 0.9362 0.8496
C15_7 C 0.6118(2) 0.7292(2) 0.80996(17)
H9_7 H 0.6620 0.7234 0.8096
C16_7 C 0.5064(2) 0.7974(2) 0.82742(15)
H10_7 H 0.4853 0.8385 0.8388
C17_7 C 0.49263(19) 0.68224(19) 0.79375(13)
C18_7 C 0.4626(2) 0.7439(2) 0.81112(15)
H11_7 H 0.4124 0.7493 0.8118
C19_7 C 0.5668(2) 0.6753(2) 0.79312(17)
H12_7 H 0.5875 0.6343 0.7814
N6_7 N 0.83056(16) 0.93737(16) 0.95012(11)
C26_7 C 0.7929(3) 0.8925(3) 0.97222(16)
H17_7 H 0.7648 0.8599 0.9567
C27_7 C 0.8692(3) 0.9824(3) 0.97259(17)
C3_8 C 0.00495(19) 0.31899(19) 0.33936(14)
C7_8 C 0.0349(2) 0.2587(2) 0.32129(18)
H4_8 H 0.0852 0.2540 0.3206
H6_8 H 0.0140 0.1645 0.2918
O4_8 O 0.02503(17) 0.43030(15) 0.37449(12)
C30_8 C 0.0511(2) 0.3767(2) 0.35816(14)
O1_8 O 0.02908(18) 0.42909(16) 0.75811(12)
C10_8 C 0.0548(2) 0.3755(2) 0.77518(14)
H10_8 H 0.0147 0.1615 0.8388
C17_8 C 0.00737(19) 0.31776(19) 0.79375(13)
C18_8 C 0.0374(2) 0.2561(2) 0.81112(15)
H11_8 H 0.0876 0.2507 0.8118
N1_8 N 0.77584(14) 0.08742(15) 0.26513(11)
C1_8 C 0.79845(19) 0.15199(17) 0.27961(13)
H1_8 H 0.7685 0.1914 0.2833
C2_8 C 0.87206(18) 0.15105(18) 0.28803(12)
C4_8 C 0.91781(19) 0.20961(18) 0.30507(13)
C5_8 C 0.89278(19) 0.08183(19) 0.27783(14)
H2_8 H 0.9399 0.0644 0.2800
C6_8 C 0.8877(2) 0.2703(2) 0.32224(17)
H3_8 H 0.8374 0.2753 0.3226
C8_8 C 0.9310(2) 0.3248(2) 0.33926(17)
H5_8 H 0.9092 0.3655 0.3507
C9_8 C 0.9921(2) 0.2045(2) 0.30408(18)
N5_8 N 0.66955(15) 0.06350(15) 0.18233(11)
C20_8 C 0.66732(19) 0.06519(19) 0.09088(13)
C21_8 C 0.6669(2) 0.0652(2) 0.04216(15)
C22_8 C 0.6130(2) 0.0317(2) 0.11458(14)
H13_8 H 0.5752 0.0087 0.1001
C23_8 C 0.7230(2) 0.0944(2) 0.15908(14)
H14_8 H 0.7617 0.1148 0.1742
C24_8 C 0.6156(2) 0.0329(2) 0.15996(13)
H15_8 H 0.5781 0.0114 0.1756
C25_8 C 0.7228(2) 0.0971(2) 0.11393(14)
H16_8 H 0.7600 0.1204 0.0990
C28_8 C 0.7086(3) 0.1104(3) 0.01786(17)
H19_8 H 0.7382 0.1434 0.0319
C29_8 C 0.6271(4) 0.0176(3) 0.01801(16)
N3_8 N 0.77587(14) 0.08783(14) 0.86685(11)
C11_8 C 0.79826(19) 0.15225(18) 0.85268(13)
H7_8 H 0.7685 0.1920 0.8495
C12_8 C 0.87169(19) 0.15074(18) 0.84359(13)
C13_8 C 0.91822(18) 0.20924(18) 0.82701(13)
C14_8 C 0.89215(18) 0.08155(18) 0.85280(13)
H8_8 H 0.9390 0.0638 0.8496
C15_8 C 0.8882(2) 0.2708(2) 0.80996(17)
H9_8 H 0.8380 0.2766 0.8096
C16_8 C 0.9936(2) 0.2026(2) 0.82742(15)
C19_8 C 0.9332(2) 0.3247(2) 0.79312(17)
H12_8 H 0.9125 0.3657 0.7814
N6_8 N 0.66944(16) 0.06263(16) 0.95012(11)
C26_8 C 0.7071(3) 0.1075(3) 0.97222(16)
H17_8 H 0.7352 0.1401 0.9567
C27_8 C 0.6308(3) 0.0176(3) 0.97259(17)
H20_8 H 0.5973 0.9850 0.0323
H18_8 H 0.6043 0.9834 0.9573
loop_
_geom_bond_atom_site_label_1
_geom_bond_atom_site_label_2
_geom_bond_site_symmetry_1
_geom_bond_site_symmetry_2
Zn1 N3 1_555 1_555
N3 N4 1_555 1_555
N4 C14 1_555 1_555
O1 C10 1_555 1_555
O2 C10 1_555 1_555
C10 C17 1_555 1_555
C11 N3 1_555 1_555
H7 C11 1_555 1_555
C12 C11 1_555 1_555
C13 C12 1_555 1_555
C14 C12 1_555 1_555
H8 C14 1_555 1_555
C15 C13 1_555 1_555
H9 C15 1_555 1_555
C16 C13 1_555 1_555
H10 C16 1_555 1_555
C17 C18 1_555 1_555
C18 C16 1_555 1_555
H11 C18 1_555 1_555
C19 C15 1_555 1_555
H12 C19 1_555 1_555
N6 Zn1 1_555 1_555
C26 N6 1_555 1_555
H17 C26 1_555 1_555
C27 N6 1_555 1_555
Zn6 O2 1_555 1_555
O6 Zn1 1_555 1_555
C17 C19 1_555 1_555
Zn2 N1 1_555 1_555
N1 N2 1_555 1_555
N2 C5 1_555 1_555
C1 N1 1_555 1_555
H1 C1 1_555 1_555
C2 C1 1_555 1_555
C3 C7 1_555 1_555
C4 C2 1_555 1_555
C5 C2 1_555 1_555
H2 C5 1_555 1_555
C6 C4 1_555 1_555
H3 C6 1_555 1_555
C7 H4 1_555 1_555
C8 C3 1_555 1_555
H5 C8 1_555 1_555
C9 C4 1_555 1_555
H6 C9 1_555 1_555
N5 Zn2 1_555 1_555
C20 C21 1_555 1_555
C21 C28 1_555 1_555
C22 C20 1_555 1_555
H13 C22 1_555 1_555
C23 N5 1_555 1_555
H14 C23 1_555 1_555
C24 N5 1_555 1_555
H15 C24 1_555 1_555
C25 C20 1_555 1_555
H16 C25 1_555 1_555
H19 C28 1_555 1_555
C29 C21 1_555 1_555
O3 C30 1_555 1_555
O4 C30 1_555 1_555
C30 C3 1_555 1_555
Zn4 O3 1_555 1_555
O5 Zn2 1_555 1_555
C6 C8 1_555 1_555
C7 C9 1_555 1_555
C22 C24 1_555 1_555
C23 C25 1_555 1_555
Zn3 N3_2 1_555 1_555
N3_2 N8 1_555 1_555
N8 C14_2 1_555 1_555
C11_2 N3_2 1_555 1_555
H7_2 C11_2 1_555 1_555
C12_2 C11_2 1_555 1_555
C13_2 C12_2 1_555 1_555
C14_2 C12_2 1_555 1_555
H8_2 C14_2 1_555 1_555
C15_2 C13_2 1_555 1_555
H9_2 C15_2 1_555 1_555
C16_2 C13_2 1_555 1_555
C19_2 C15_2 1_555 1_555
H12_2 C19_2 1_555 1_555
N6_2 Zn3 1_555 1_555
C26_2 N6_2 1_555 1_555
H17_2 C26_2 1_555 1_555
C27_2 N6_2 1_555 1_555
O6_2 Zn3 1_555 1_555
Zn5 N1_2 1_555 1_555
N1_2 N7 1_555 1_555
N7 C5_2 1_555 1_555
C1_2 N1_2 1_555 1_555
H1_2 C1_2 1_555 1_555
C2_2 C1_2 1_555 1_555
C4_2 C2_2 1_555 1_555
C5_2 C2_2 1_555 1_555
H2_2 C5_2 1_555 1_555
C6_2 C4_2 1_555 1_555
H3_2 C6_2 1_555 1_555
H5_2 C8_2 1_555 1_555
C9_2 C4_2 1_555 1_555
N5_2 Zn5 1_555 1_555
C20_2 C21_2 1_555 1_555
C21_2 C28_2 1_555 1_555
C22_2 C20_2 1_555 1_555
H13_2 C22_2 1_555 1_555
C23_2 N5_2 1_555 1_555
H14_2 C23_2 1_555 1_555
C24_2 N5_2 1_555 1_555
H15_2 C24_2 1_555 1_555
C25_2 C20_2 1_555 1_555
H16_2 C25_2 1_555 1_555
H19_2 C28_2 1_555 1_555
C29_2 C21_2 1_555 1_555
O5_2 Zn5 1_555 1_555
C6_2 C8_2 1_555 1_555
C22_2 C24_2 1_555 1_555
C23_2 C25_2 1_555 1_555
O1_2 C10_2 1_555 1_555
O2_2 C10_2 1_555 1_555
C10_2 C17_2 1_555 1_555
C17_2 C18_2 1_555 1_555
H11_2 C18_2 1_555 1_555
Zn6_2 O2_2 1_555 1_555
C3_2 C7_2 1_555 1_555
C7_2 H4_2 1_555 1_555
O3_2 C30_2 1_555 1_555
O4_2 C30_2 1_555 1_555
C30_2 C3_2 1_555 1_555
Zn4_2 O3_2 1_555 1_555
C3_3 C7_3 1_555 1_555
C7_3 H4_3 1_555 1_555
O1_3 C10_3 1_555 1_555
O5 C10_3 1_555 1_555
C10_3 C17_3 1_555 1_555
C17_3 C18_3 1_555 1_555
H11_3 C18_3 1_555 1_555
O6 C30_3 1_555 1_555
O4_3 C30_3 1_555 1_555
C30_3 C3_3 1_555 1_555
Zn4 N3_3 1_555 1_555
Zn6 N1_3 1_555 1_555
N1_3 N2_2 1_555 1_555
N2_2 C5_3 1_555 1_555
N3_3 N4_2 1_555 1_555
N4_2 C14_3 1_555 1_555
C1_3 N1_3 1_555 1_555
H1_3 C1_3 1_555 1_555
C2_3 C1_3 1_555 1_555
C4_3 C2_3 1_555 1_555
C5_3 C2_3 1_555 1_555
H2_3 C5_3 1_555 1_555
C6_3 C4_3 1_555 1_555
H3_3 C6_3 1_555 1_555
H5_3 C8_3 1_555 1_555
C9_3 C4_3 1_555 1_555
C11_3 N3_3 1_555 1_555
H7_3 C11_3 1_555 1_555
C12_3 C11_3 1_555 1_555
C13_3 C12_3 1_555 1_555
C14_3 C12_3 1_555 1_555
H8_3 C14_3 1_555 1_555
C15_3 C13_3 1_555 1_555
H9_3 C15_3 1_555 1_555
C16_3 C13_3 1_555 1_555
C19_3 C15_3 1_555 1_555
H12_3 C19_3 1_555 1_555
N5_3 Zn6 1_555 1_555
N6_3 Zn4 1_555 1_555
C20_3 C21_3 1_555 1_555
C21_3 C28_3 1_555 1_555
C22_3 C20_3 1_555 1_555
H13_3 C22_3 1_555 1_555
C23_3 N5_3 1_555 1_555
H14_3 C23_3 1_555 1_555
C24_3 N5_3 1_555 1_555
H15_3 C24_3 1_555 1_555
C25_3 C20_3 1_555 1_555
H16_3 C25_3 1_555 1_555
C26_3 N6_3 1_555 1_555
H17_3 C26_3 1_555 1_555
C27_3 N6_3 1_555 1_555
H18_3 C27_3 1_555 1_555
C28_3 C26_3 1_555 1_555
H19_3 C28_3 1_555 1_555
C29_3 C21_3 1_555 1_555
H20_3 C29_3 1_555 1_555
Zn4_2 N4_2 1_555 1_555
Zn6_2 N2_2 1_555 1_555
N7_2 Zn6 1_555 1_555
N8_2 Zn4 1_555 1_555
C6_3 C8_3 1_555 1_555
C22_3 C24_3 1_555 1_555
C23_3 C25_3 1_555 1_555
C27_3 C29_3 1_555 1_555
Zn4_2 N3_4 1_555 1_555
Zn6_2 N1_4 1_555 1_555
N1_4 N7_2 1_555 1_555
N7_2 C5_4 1_555 1_555
N3_4 N8_2 1_555 1_555
N8_2 C14_4 1_555 1_555
C1_4 N1_4 1_555 1_555
H1_4 C1_4 1_555 1_555
C2_4 C1_4 1_555 1_555
C3_4 C7_4 1_555 1_555
C4_4 C2_4 1_555 1_555
C5_4 C2_4 1_555 1_555
H2_4 C5_4 1_555 1_555
C6_4 C4_4 1_555 1_555
H3_4 C6_4 1_555 1_555
C7_4 H4_4 1_555 1_555
C8_4 C3_4 1_555 1_555
H5_4 C8_4 1_555 1_555
C9_4 C4_4 1_555 1_555
H6_4 C9_4 1_555 1_555
O1_4 C10_4 1_555 1_555
O5_2 C10_4 1_555 1_555
C10_4 C17_4 1_555 1_555
C11_4 N3_4 1_555 1_555
H7_4 C11_4 1_555 1_555
C12_4 C11_4 1_555 1_555
C13_4 C12_4 1_555 1_555
C14_4 C12_4 1_555 1_555
H8_4 C14_4 1_555 1_555
C15_4 C13_4 1_555 1_555
H9_4 C15_4 1_555 1_555
C16_4 C13_4 1_555 1_555
H10_4 C16_4 1_555 1_555
C17_4 C18_4 1_555 1_555
C18_4 C16_4 1_555 1_555
H11_4 C18_4 1_555 1_555
C19_4 C15_4 1_555 1_555
H12_4 C19_4 1_555 1_555
N5_4 Zn6_2 1_555 1_555
N6_4 Zn4_2 1_555 1_555
C20_4 C21_4 1_555 1_555
C21_4 C28_4 1_555 1_555
C22_4 C20_4 1_555 1_555
H13_4 C22_4 1_555 1_555
C23_4 N5_4 1_555 1_555
H14_4 C23_4 1_555 1_555
C24_4 N5_4 1_555 1_555
H15_4 C24_4 1_555 1_555
C25_4 C20_4 1_555 1_555
H16_4 C25_4 1_555 1_555
C26_4 N6_4 1_555 1_555
H17_4 C26_4 1_555 1_555
C27_4 N6_4 1_555 1_555
H18_4 C27_4 1_555 1_555
C28_4 C26_4 1_555 1_555
H19_4 C28_4 1_555 1_555
C29_4 C21_4 1_555 1_555
H20_4 C29_4 1_555 1_555
O6_2 C30_4 1_555 1_555
O4_4 C30_4 1_555 1_555
C30_4 C3_4 1_555 1_555
C6_4 C8_4 1_555 1_555
C7_4 C9_4 1_555 1_555
C17_4 C19_4 1_555 1_555
C22_4 C24_4 1_555 1_555
C23_4 C25_4 1_555 1_555
C27_4 C29_4 1_555 1_555
Zn1_2 N3_5 1_555 1_555
Zn2_2 N1_5 1_555 1_555
N1_5 N2_3 1_555 1_555
N2_3 C5_5 1_555 1_555
N3_5 N4_3 1_555 1_555
N4_3 C14_5 1_555 1_555
C1_5 N1_5 1_555 1_555
H1_5 C1_5 1_555 1_555
C2_5 C1_5 1_555 1_555
C4_5 C2_5 1_555 1_555
C5_5 C2_5 1_555 1_555
H2_5 C5_5 1_555 1_555
C6_5 C4_5 1_555 1_555
H3_5 C6_5 1_555 1_555
H5_5 C8_5 1_555 1_555
C9_5 C4_5 1_555 1_555
C11_5 N3_5 1_555 1_555
H7_5 C11_5 1_555 1_555
C12_5 C11_5 1_555 1_555
C13_5 C12_5 1_555 1_555
C14_5 C12_5 1_555 1_555
H8_5 C14_5 1_555 1_555
C15_5 C13_5 1_555 1_555
H9_5 C15_5 1_555 1_555
C16_5 C13_5 1_555 1_555
C19_5 C15_5 1_555 1_555
H12_5 C19_5 1_555 1_555
N5_5 Zn2_2 1_555 1_555
N6_5 Zn1_2 1_555 1_555
C20_5 C21_5 1_555 1_555
C21_5 C28_5 1_555 1_555
C22_5 C20_5 1_555 1_555
H13_5 C22_5 1_555 1_555
C23_5 N5_5 1_555 1_555
H14_5 C23_5 1_555 1_555
C24_5 N5_5 1_555 1_555
H15_5 C24_5 1_555 1_555
C25_5 C20_5 1_555 1_555
H16_5 C25_5 1_555 1_555
C26_5 N6_5 1_555 1_555
H17_5 C26_5 1_555 1_555
C27_5 N6_5 1_555 1_555
H18_5 C27_5 1_555 1_555
C28_5 C26_5 1_555 1_555
H19_5 C28_5 1_555 1_555
C29_5 C21_5 1_555 1_555
H20_5 C29_5 1_555 1_555
Zn3_2 N4_3 1_555 1_555
Zn5_2 N2_3 1_555 1_555
N7_3 Zn2_2 1_555 1_555
N8_3 Zn1_2 1_555 1_555
O5_3 Zn2_2 1_555 1_555
O6_3 Zn1_2 1_555 1_555
C6_5 C8_5 1_555 1_555
C22_5 C24_5 1_555 1_555
C23_5 C25_5 1_555 1_555
C27_5 C29_5 1_555 1_555
C3_5 C7_5 1_555 1_555
C7_5 H4_5 1_555 1_555
O1_5 C10_5 1_555 1_555
O2_3 C10_5 1_555 1_555
C10_5 C17_5 1_555 1_555
C17_5 C18_5 1_555 1_555
H11_5 C18_5 1_555 1_555
O3_3 C30_5 1_555 1_555
O4_5 C30_5 1_555 1_555
C30_5 C3_5 1_555 1_555
Zn4_3 O3_3 1_555 1_555
Zn6_3 O2_3 1_555 1_555
Zn3_2 N3_6 1_555 1_555
Zn5_2 N1_6 1_555 1_555
N1_6 N7_3 1_555 1_555
N7_3 C5_6 1_555 1_555
N3_6 N8_3 1_555 1_555
N8_3 C14_6 1_555 1_555
C1_6 N1_6 1_555 1_555
H1_6 C1_6 1_555 1_555
C2_6 C1_6 1_555 1_555
C3_6 C7_6 1_555 1_555
C4_6 C2_6 1_555 1_555
C5_6 C2_6 1_555 1_555
H2_6 C5_6 1_555 1_555
C6_6 C4_6 1_555 1_555
H3_6 C6_6 1_555 1_555
C7_6 H4_6 1_555 1_555
C8_6 C3_6 1_555 1_555
H5_6 C8_6 1_555 1_555
C9_6 C4_6 1_555 1_555
H6_6 C9_6 1_555 1_555
O1_6 C10_6 1_555 1_555
O2_4 C10_6 1_555 1_555
C10_6 C17_6 1_555 1_555
C11_6 N3_6 1_555 1_555
H7_6 C11_6 1_555 1_555
C12_6 C11_6 1_555 1_555
C13_6 C12_6 1_555 1_555
C14_6 C12_6 1_555 1_555
H8_6 C14_6 1_555 1_555
C15_6 C13_6 1_555 1_555
H9_6 C15_6 1_555 1_555
C16_6 C13_6 1_555 1_555
H10_6 C16_6 1_555 1_555
C17_6 C18_6 1_555 1_555
C18_6 C16_6 1_555 1_555
H11_6 C18_6 1_555 1_555
C19_6 C15_6 1_555 1_555
H12_6 C19_6 1_555 1_555
N5_6 Zn5_2 1_555 1_555
N6_6 Zn3_2 1_555 1_555
C20_6 C21_6 1_555 1_555
C21_6 C28_6 1_555 1_555
C22_6 C20_6 1_555 1_555
H13_6 C22_6 1_555 1_555
C23_6 N5_6 1_555 1_555
H14_6 C23_6 1_555 1_555
C24_6 N5_6 1_555 1_555
H15_6 C24_6 1_555 1_555
C25_6 C20_6 1_555 1_555
H16_6 C25_6 1_555 1_555
C26_6 N6_6 1_555 1_555
H17_6 C26_6 1_555 1_555
C27_6 N6_6 1_555 1_555
H18_6 C27_6 1_555 1_555
C28_6 C26_6 1_555 1_555
H19_6 C28_6 1_555 1_555
C29_6 C21_6 1_555 1_555
H20_6 C29_6 1_555 1_555
O3_4 C30_6 1_555 1_555
O4_6 C30_6 1_555 1_555
C30_6 C3_6 1_555 1_555
Zn4_4 O3_4 1_555 1_555
Zn6_4 O2_4 1_555 1_555
O5_4 Zn5_2 1_555 1_555
O6_4 Zn3_2 1_555 1_555
C6_6 C8_6 1_555 1_555
C7_6 C9_6 1_555 1_555
C17_6 C19_6 1_555 1_555
C22_6 C24_6 1_555 1_555
C23_6 C25_6 1_555 1_555
C27_6 C29_6 1_555 1_555
Zn6_3 N1_7 1_555 1_555
N1_7 N2_4 1_555 1_555
N2_4 C5_7 1_555 1_555
C1_7 N1_7 1_555 1_555
H1_7 C1_7 1_555 1_555
C2_7 C1_7 1_555 1_555
C3_7 C7_7 1_555 1_555
C4_7 C2_7 1_555 1_555
C5_7 C2_7 1_555 1_555
H2_7 C5_7 1_555 1_555
C6_7 C4_7 1_555 1_555
H3_7 C6_7 1_555 1_555
C7_7 H4_7 1_555 1_555
C8_7 C3_7 1_555 1_555
H5_7 C8_7 1_555 1_555
C9_7 C4_7 1_555 1_555
H6_7 C9_7 1_555 1_555
N5_7 Zn6_3 1_555 1_555
C20_7 C21_7 1_555 1_555
C21_7 C28_7 1_555 1_555
C22_7 C20_7 1_555 1_555
H13_7 C22_7 1_555 1_555
C23_7 N5_7 1_555 1_555
H14_7 C23_7 1_555 1_555
C24_7 N5_7 1_555 1_555
H15_7 C24_7 1_555 1_555
C25_7 C20_7 1_555 1_555
H16_7 C25_7 1_555 1_555
H19_7 C28_7 1_555 1_555
C29_7 C21_7 1_555 1_555
O6_3 C30_7 1_555 1_555
O4_7 C30_7 1_555 1_555
C30_7 C3_7 1_555 1_555
C6_7 C8_7 1_555 1_555
C7_7 C9_7 1_555 1_555
C22_7 C24_7 1_555 1_555
C23_7 C25_7 1_555 1_555
Zn4_3 N3_7 1_555 1_555
N3_7 N4_4 1_555 1_555
N4_4 C14_7 1_555 1_555
O1_7 C10_7 1_555 1_555
O5_3 C10_7 1_555 1_555
C10_7 C17_7 1_555 1_555
C11_7 N3_7 1_555 1_555
H7_7 C11_7 1_555 1_555
C12_7 C11_7 1_555 1_555
C13_7 C12_7 1_555 1_555
C14_7 C12_7 1_555 1_555
H8_7 C14_7 1_555 1_555
C15_7 C13_7 1_555 1_555
H9_7 C15_7 1_555 1_555
C16_7 C13_7 1_555 1_555
H10_7 C16_7 1_555 1_555
C17_7 C18_7 1_555 1_555
C18_7 C16_7 1_555 1_555
H11_7 C18_7 1_555 1_555
C19_7 C15_7 1_555 1_555
H12_7 C19_7 1_555 1_555
N6_7 Zn4_3 1_555 1_555
C26_7 N6_7 1_555 1_555
H17_7 C26_7 1_555 1_555
C27_7 N6_7 1_555 1_555
C17_7 C19_7 1_555 1_555
C3_8 C7_8 1_555 1_555
C7_8 H4_8 1_555 1_555
O6_4 C30_8 1_555 1_555
O4_8 C30_8 1_555 1_555
C30_8 C3_8 1_555 1_555
O1_8 C10_8 1_555 1_555
O5_4 C10_8 1_555 1_555
C10_8 C17_8 1_555 1_555
C17_8 C18_8 1_555 1_555
H11_8 C18_8 1_555 1_555
Zn6_4 N1_8 1_555 1_555
N1_8 N7_4 1_555 1_555
N7_4 C5_8 1_555 1_555
C1_8 N1_8 1_555 1_555
H1_8 C1_8 1_555 1_555
C2_8 C1_8 1_555 1_555
C4_8 C2_8 1_555 1_555
C5_8 C2_8 1_555 1_555
H2_8 C5_8 1_555 1_555
C6_8 C4_8 1_555 1_555
H3_8 C6_8 1_555 1_555
H5_8 C8_8 1_555 1_555
C9_8 C4_8 1_555 1_555
N5_8 Zn6_4 1_555 1_555
C20_8 C21_8 1_555 1_555
C21_8 C28_8 1_555 1_555
C22_8 C20_8 1_555 1_555
H13_8 C22_8 1_555 1_555
C23_8 N5_8 1_555 1_555
H14_8 C23_8 1_555 1_555
C24_8 N5_8 1_555 1_555
H15_8 C24_8 1_555 1_555
C25_8 C20_8 1_555 1_555
H16_8 C25_8 1_555 1_555
H19_8 C28_8 1_555 1_555
C29_8 C21_8 1_555 1_555
C6_8 C8_8 1_555 1_555
C22_8 C24_8 1_555 1_555
C23_8 C25_8 1_555 1_555
Zn4_4 N3_8 1_555 1_555
N3_8 N8_4 1_555 1_555
N8_4 C14_8 1_555 1_555
C11_8 N3_8 1_555 1_555
H7_8 C11_8 1_555 1_555
C12_8 C11_8 1_555 1_555
C13_8 C12_8 1_555 1_555
C14_8 C12_8 1_555 1_555
H8_8 C14_8 1_555 1_555
C15_8 C13_8 1_555 1_555
H9_8 C15_8 1_555 1_555
C16_8 C13_8 1_555 1_555
C19_8 C15_8 1_555 1_555
H12_8 C19_8 1_555 1_555
N6_8 Zn4_4 1_555 1_555
C26_8 N6_8 1_555 1_555
H17_8 C26_8 1_555 1_555
C27_8 N6_8 1_555 1_555

#END
