
###############################################################################
#
# This file contains modified crystal structure data generated from the
# MOF subset of the Cambridge Structural Database (CSD) v543 
# hosted by the Cambridge Crystallographic Data Centre (CCDC).
#
# This work is licensed under the Creative Commons
# Attribution-NonCommercial-ShareAlike 4.0 International License.
# To view a copy of this license, visit
# http://creativecommons.org/licenses/by-nc-sa/4.0/
# or send a letter to
# Creative Commons, PO Box 1866, Mountain View, CA 94042, USA.
#
# CIF created using the CSD Python API on 29 September 2022
# The structure has been converted into the P1 space group
# The structure has a 3D framework
# The original CSD entry KOTBIH is in the monoclinic crystal system
# The framework has been calculated to contain at least 10.0% void space
# The void calculation uses a probe of radius 1.32A, grid spacing 0.4
#
###############################################################################

data_KOTBIH
_chemical_formula_moiety         '(C256 H176 N48 O32 Zn16)n'
_symmetry_cell_setting           triclinic
_symmetry_space_group_name_H-M   'P 1'
_symmetry_Int_Tables_number      1
_space_group_name_Hall           'P 1'
loop_
_symmetry_equiv_pos_site_id
_symmetry_equiv_pos_as_xyz
1 x,y,z
_cell_length_a                   18.403(3)
_cell_length_b                   18.904(3)
_cell_length_c                   34.615(6)
_cell_angle_alpha                90
_cell_angle_beta                 90.924(9)
_cell_angle_gamma                90
_cell_volume                     12040.7
loop_
_atom_site_label
_atom_site_type_symbol
_atom_site_fract_x
_atom_site_fract_y
_atom_site_fract_z
O5 O 0.1228(3) 0.6454(4) 0.72478(19)
O8 O 0.0310(4) 0.5797(4) 0.7395(3)
C41 C 0.0080(4) 0.6931(4) 0.7102(2)
H29 H 0.0141 0.8534 0.6760
C50 C 0.0389(4) 0.7552(4) 0.6958(3)
H32 H 0.0892 0.7596 0.6945
C54 C 0.0532(6) 0.6346(5) 0.7260(3)
Zn6 Zn 0.17290(5) 0.56803(5) 0.74842(3)
N1 N 0.8333(3) 0.0562(3) 0.3075(2)
C1 C 0.7803(5) 0.0908(6) 0.3276(3)
H1 H 0.7460 0.1175 0.3140
C2 C 0.8830(4) 0.0228(5) 0.3278(3)
H2 H 0.9230 0.0049 0.3149
C3 C 0.7765(7) 0.0872(7) 0.3674(3)
H3 H 0.7406 0.1122 0.3802
C4 C 0.8796(7) 0.0124(10) 0.3673(4)
C5 C 0.8251(8) 0.0472(7) 0.3880(3)
Zn2 Zn 0.82071(5) 0.06808(5) 0.63506(3)
N4 N 0.7189(2) 0.0960(3) 0.6489(2)
N6 N 0.6601(3) 0.0510(3) 0.6499(2)
H10 H 0.5795 0.0105 0.5698
H11 H 0.5830 0.0189 0.5030
O4 O 0.3741(3) 0.3719(4) 0.7251(2)
O7 O 0.4691(4) 0.4377(4) 0.7408(3)
C18 C 0.6216(3) 0.1593(4) 0.6691(2)
C19 C 0.8099(8) 0.0679(8) 0.49621(17)
C20 C 0.7614(7) 0.1083(7) 0.5172(3)
H14 H 0.7246 0.1332 0.5045
C21 C 0.7680(5) 0.1115(5) 0.5573(2)
H15 H 0.7355 0.1385 0.5713
N12 N 0.8230(4) 0.0743(4) 0.57625(16)
C22 C 0.8715(5) 0.0339(5) 0.5552(3)
H16 H 0.9084 0.0090 0.5679
C23 C 0.8650(7) 0.0307(7) 0.5152(3)
H17 H 0.8975 0.0037 0.5011
C31 C 0.6985(4) 0.1589(4) 0.6619(2)
H22 H 0.7295 0.1972 0.6659
C32 C 0.5782(3) 0.2174(4) 0.6831(2)
C33 C 0.6050(4) 0.0892(4) 0.6606(3)
H23 H 0.5582 0.0710 0.6623
C38 C 0.4870(4) 0.3256(4) 0.7104(3)
C43 C 0.5017(4) 0.2103(5) 0.6830(3)
H26 H 0.4797 0.1694 0.6736
C49 C 0.4606(4) 0.2644(5) 0.6970(3)
H31 H 0.4105 0.2582 0.6972
C53 C 0.5626(4) 0.3306(5) 0.7099(3)
H35 H 0.5832 0.3725 0.7190
C55 C 0.6099(5) 0.2786(4) 0.6971(3)
H36 H 0.6600 0.2846 0.6979
C56 C 0.4409(5) 0.3814(6) 0.7265(3)
H41 H 0.6380 0.0125 0.4416
C62 C 0.7513(12) 0.0545(13) 0.4578(6)
H42 H 0.7356 0.1000 0.4470
C63 C 0.8052(15) 0.0169(15) 0.4293(7)
Zn8 Zn 0.32566(5) 0.45004(5) 0.74854(3)
Zn9 Zn 0.82566(5) 0.04996(5) 0.24854(3)
O9 O 0.8752(3) 0.1430(3) 0.6576(2)
H4 H 0.9128 0.9830 0.3800
C6 C 0.7259(3) 0.8880(4) 0.32630(17)
H5 H 0.7584 0.8614 0.3120
N2 N 0.6698(3) 0.9243(3) 0.30761(12)
C7 C 0.6212(3) 0.9641(3) 0.32891(17)
H6 H 0.5837 0.9884 0.3164
C8 C 0.6285(4) 0.9676(4) 0.36889(17)
H7 H 0.5960 0.9942 0.3831
C9 C 0.6846(5) 0.9312(5) 0.38758(12)
C10 C 0.7332(4) 0.8915(4) 0.36628(17)
H8 H 0.7707 0.8671 0.3788
Zn1 Zn 0.67069(5) 0.95039(5) 0.63530(3)
N3 N 0.2760(3) 0.5952(3) 0.7362(2)
N5 N 0.1636(3) 0.4652(3) 0.73676(19)
N7 N 0.8318(3) 0.9672(3) 0.6479(2)
N8 N 0.3349(3) 0.5516(4) 0.7353(2)
N9 N 0.2214(3) 0.4216(3) 0.7352(2)
O1 O 0.6179(3) 0.8726(3) 0.6581(2)
C11 C 0.7159(5) 0.9053(4) 0.5555(3)
H9 H 0.7492 0.8768 0.5687
N10 N 0.6640(4) 0.9428(4) 0.57588(16)
C12 C 0.6142(4) 0.9854(5) 0.5562(3)
C13 C 0.6163(7) 0.9904(7) 0.5162(3)
C14 C 0.6682(8) 0.9529(7) 0.49582(16)
C15 C 0.7180(6) 0.9103(6) 0.5155(3)
H12 H 0.7527 0.8852 0.5019
N11 N 0.7732(3) 0.9218(3) 0.6494(2)
C16 C 0.1983(4) 0.3608(4) 0.7234(2)
H13 H 0.2286 0.3219 0.7203
O6 O 0.5226(4) 0.9390(4) 0.6426(3)
C17 C 0.3716(4) 0.6590(4) 0.7161(2)
C24 C 0.8723(4) 0.8592(4) 0.6685(2)
C25 C 0.2971(4) 0.6580(4) 0.7233(3)
H18 H 0.2662 0.6964 0.7195
C26 C 0.1074(4) 0.4267(4) 0.7243(3)
H19 H 0.0605 0.4446 0.7216
C27 C 0.1248(4) 0.3590(4) 0.7160(2)
C28 C 0.3909(4) 0.5910(4) 0.7249(3)
H20 H 0.4383 0.5741 0.7237
C29 C 0.8884(4) 0.9270(4) 0.6597(3)
H21 H 0.9355 0.9447 0.6616
C30 C 0.4184(4) 0.7171(4) 0.7018(2)
C34 C 0.5044(4) 0.8255(4) 0.6730(3)
C35 C 0.7964(4) 0.8601(4) 0.6611(3)
H24 H 0.7664 0.8210 0.6643
C36 C 0.0785(4) 0.3025(4) 0.7012(3)
C39 C 0.9176(4) 0.8012(5) 0.6819(3)
C44 C 0.4929(4) 0.7124(5) 0.7022(3)
H27 H 0.5148 0.6716 0.7119
C45 C 0.5472(5) 0.8859(6) 0.6562(3)
C46 C 0.9335(5) 0.6873(5) 0.7113(3)
H28 H 0.9129 0.6470 0.7221
C47 C 0.9939(4) 0.8105(5) 0.6833(3)
C48 C 0.5356(5) 0.7655(5) 0.6888(4)
H30 H 0.5860 0.7614 0.6904
C51 C 0.0664(5) 0.1857(5) 0.6720(3)
H33 H 0.0884 0.1463 0.6612
C52 C 0.3866(4) 0.7783(5) 0.6869(3)
H34 H 0.3363 0.7827 0.6861
C57 C 0.0041(4) 0.3057(6) 0.7010(4)
C58 C 0.4292(4) 0.8321(5) 0.6736(4)
H38 H 0.4076 0.8736 0.6648
C59 C 0.1096(4) 0.2387(5) 0.6873(4)
H39 H 0.1597 0.2327 0.6886
C60 C 0.8891(4) 0.7396(5) 0.6970(3)
H40 H 0.8390 0.7335 0.6975
C61 C 0.6824(14) 0.9936(13) 0.4538(6)
H43 H 0.8475 0.9966 0.4429
C64 C 0.7371(13) 0.9582(15) 0.4239(7)
H44 H 0.7544 0.9149 0.4365
N13 N 0.3333(3) 0.4438(3) 0.8075(2)
N14 N 0.1698(3) 0.5757(3) 0.80761(12)
Zn7 Zn 0.67290(5) 0.93197(5) 0.24842(3)
O3 O 0.9717(4) 0.0787(3) 0.6426(2)
C37 C 0.9916(4) 0.1897(4) 0.6724(2)
C40 C 0.9616(4) 0.2521(5) 0.6876(3)
H25 H 0.9113 0.2568 0.6885
C42 C 0.9447(5) 0.1339(4) 0.6562(3)
H37 H 0.9819 0.3462 0.7105
Zn1_2 Zn 0.17069(5) 0.54961(5) 0.13530(3)
Zn2_2 Zn 0.32071(5) 0.43192(5) 0.13506(3)
N4_2 N 0.2189(2) 0.4040(3) 0.1489(2)
N6_2 N 0.1601(3) 0.4490(3) 0.1499(2)
N7_2 N 0.3318(3) 0.5328(3) 0.1479(2)
O1_2 O 0.1179(3) 0.6274(3) 0.1581(2)
C11_2 C 0.2159(5) 0.5947(4) 0.0555(3)
H9_2 H 0.2492 0.6232 0.0687
N10_2 N 0.1640(4) 0.5572(4) 0.07588(16)
C12_2 C 0.1142(4) 0.5146(5) 0.0562(3)
H10_2 H 0.0795 0.4895 0.0698
C13_2 C 0.1163(7) 0.5096(7) 0.0162(3)
H11_2 H 0.0830 0.4811 0.0030
C15_2 C 0.2180(6) 0.5897(6) 0.0155(3)
H12_2 H 0.2527 0.6148 0.0019
N11_2 N 0.2732(3) 0.5782(3) 0.1494(2)
O5_2 O 0.6228(3) 0.8546(4) 0.22478(19)
O6_2 O 0.0226(4) 0.5610(4) 0.1426(3)
C18_2 C 0.1216(3) 0.3407(4) 0.1691(2)
O8_2 O 0.5310(4) 0.9203(4) 0.2395(3)
C20_2 C 0.2614(7) 0.3917(7) 0.0172(3)
H14_2 H 0.2246 0.3668 0.0045
C21_2 C 0.2680(5) 0.3885(5) 0.0573(2)
H15_2 H 0.2355 0.3615 0.0713
N12_2 N 0.3230(4) 0.4257(4) 0.07625(16)
C22_2 C 0.3715(5) 0.4661(5) 0.0552(3)
H16_2 H 0.4084 0.4910 0.0679
C23_2 C 0.3650(7) 0.4693(7) 0.0152(3)
H17_2 H 0.3975 0.4963 0.0011
C24_2 C 0.3723(4) 0.6408(4) 0.1685(2)
C29_2 C 0.3884(4) 0.5730(4) 0.1597(3)
H21_2 H 0.4355 0.5553 0.1616
C31_2 C 0.1985(4) 0.3411(4) 0.1619(2)
H22_2 H 0.2295 0.3028 0.1659
C32_2 C 0.0782(3) 0.2826(4) 0.1831(2)
C33_2 C 0.1050(4) 0.4108(4) 0.1606(3)
H23_2 H 0.0582 0.4290 0.1623
C34_2 C 0.0044(4) 0.6745(4) 0.1730(3)
C35_2 C 0.2964(4) 0.6399(4) 0.1611(3)
H24_2 H 0.2664 0.6790 0.1643
C39_2 C 0.4176(4) 0.6988(5) 0.1819(3)
C41_2 C 0.5080(4) 0.8069(4) 0.2102(2)
C43_2 C 0.0017(4) 0.2897(5) 0.1830(3)
H27_2 H 0.0148 0.8284 0.2119
C45_2 C 0.0472(5) 0.6141(6) 0.1562(3)
C46_2 C 0.4335(5) 0.8127(5) 0.2113(3)
H28_2 H 0.4129 0.8530 0.2221
C47_2 C 0.4939(4) 0.6895(5) 0.1833(3)
H29_2 H 0.5141 0.6466 0.1760
C48_2 C 0.0356(5) 0.7345(5) 0.1888(4)
H30_2 H 0.0860 0.7386 0.1904
C50_2 C 0.5389(4) 0.7448(4) 0.1958(3)
H32_2 H 0.5892 0.7404 0.1945
C53_2 C 0.0626(4) 0.1694(5) 0.2099(3)
H35_2 H 0.0832 0.1275 0.2190
C54_2 C 0.5532(6) 0.8654(5) 0.2260(3)
C55_2 C 0.1099(5) 0.2214(4) 0.1971(3)
H36_2 H 0.1600 0.2154 0.1979
C60_2 C 0.3891(4) 0.7604(5) 0.1970(3)
H40_2 H 0.3390 0.7665 0.1975
O9_2 O 0.3752(3) 0.3570(3) 0.1576(2)
C1_2 C 0.2803(5) 0.4092(6) 0.8276(3)
H1_2 H 0.2460 0.3825 0.8140
C2_2 C 0.3830(4) 0.4772(5) 0.8278(3)
H2_2 H 0.4230 0.4951 0.8149
C3_2 C 0.2765(7) 0.4128(7) 0.8674(3)
H3_2 H 0.2406 0.3878 0.8802
C4_2 C 0.3796(7) 0.4876(10) 0.8673(4)
H4_2 H 0.4128 0.5170 0.8800
C5_2 C 0.3251(8) 0.4528(7) 0.8880(3)
C6_2 C 0.2259(3) 0.6120(4) 0.82630(17)
H5_2 H 0.2584 0.6386 0.8120
C7_2 C 0.1212(3) 0.5359(3) 0.82891(17)
H6_2 H 0.0837 0.5116 0.8164
C8_2 C 0.1285(4) 0.5324(4) 0.86889(17)
H7_2 H 0.0960 0.5058 0.8831
C9_2 C 0.1846(5) 0.5688(5) 0.88758(12)
C10_2 C 0.2332(4) 0.6085(4) 0.86628(17)
H8_2 H 0.2707 0.6329 0.8788
C14_2 C 0.1682(8) 0.5471(7) 0.99582(16)
C19_2 C 0.3099(8) 0.4321(8) 0.99621(17)
C61_2 C 0.1824(14) 0.5064(13) 0.9538(6)
H41_2 H 0.1380 0.4875 0.9416
C62_2 C 0.2513(12) 0.4455(13) 0.9578(6)
H42_2 H 0.2356 0.4000 0.9470
C63_2 C 0.3052(15) 0.4831(15) 0.9293(7)
H43_2 H 0.3475 0.5034 0.9429
C64_2 C 0.2371(13) 0.5418(15) 0.9239(7)
H44_2 H 0.2544 0.5851 0.9365
N5_2 N 0.6636(3) 0.0348(3) 0.23676(19)
N9_2 N 0.7214(3) 0.0784(3) 0.2352(2)
O3_2 O 0.4717(4) 0.4213(3) 0.1426(2)
C16_2 C 0.6983(4) 0.1392(4) 0.2234(2)
H13_2 H 0.7286 0.1781 0.2203
C26_2 C 0.6074(4) 0.0733(4) 0.2243(3)
H19_2 H 0.5605 0.0554 0.2216
C27_2 C 0.6248(4) 0.1410(4) 0.2160(2)
C36_2 C 0.5785(4) 0.1975(4) 0.2012(3)
C37_2 C 0.4916(4) 0.3103(4) 0.1724(2)
C40_2 C 0.4616(4) 0.2479(5) 0.1876(3)
H25_2 H 0.4113 0.2432 0.1885
C42_2 C 0.4447(5) 0.3661(4) 0.1562(3)
C51_2 C 0.5664(5) 0.3143(5) 0.1720(3)
H33_2 H 0.5884 0.3537 0.1612
C57_2 C 0.5041(4) 0.1943(6) 0.2010(4)
H37_2 H 0.4819 0.1538 0.2105
C59_2 C 0.6096(4) 0.2613(5) 0.1873(4)
H39_2 H 0.6597 0.2673 0.1886
O10 O 0.8741(3) 0.1281(4) 0.2251(2)
N3_2 N 0.7760(3) 0.9048(3) 0.2362(2)
N8_2 N 0.8349(3) 0.9484(4) 0.2353(2)
O7_2 O 0.9691(4) 0.0623(4) 0.2408(3)
C17_2 C 0.8716(4) 0.8410(4) 0.2161(2)
C25_2 C 0.7971(4) 0.8420(4) 0.2233(3)
H18_2 H 0.7662 0.8036 0.2195
C28_2 C 0.8909(4) 0.9090(4) 0.2249(3)
H20_2 H 0.9383 0.9259 0.2237
C30_2 C 0.9184(4) 0.7829(4) 0.2018(2)
C38_2 C 0.9870(4) 0.1744(4) 0.2104(3)
H26_2 H 0.9797 0.3306 0.1736
C44_2 C 0.9929(4) 0.7876(5) 0.2022(3)
C49_2 C 0.9606(4) 0.2356(5) 0.1970(3)
H31_2 H 0.9105 0.2418 0.1972
C52_2 C 0.8866(4) 0.7217(5) 0.1869(3)
H34_2 H 0.8363 0.7173 0.1861
C56_2 C 0.9409(5) 0.1186(6) 0.2265(3)
C58_2 C 0.9292(4) 0.6679(5) 0.1736(4)
H38_2 H 0.9076 0.6264 0.1648
Zn3 Zn 0.32710(5) 0.06803(5) 0.75158(3)
N3_3 N 0.2240(3) 0.0952(3) 0.7638(2)
N8_3 N 0.1651(3) 0.0516(4) 0.7647(2)
O4_2 O 0.1259(3) 0.8719(4) 0.7749(2)
O7_3 O 0.0309(4) 0.9377(4) 0.7592(3)
C17_3 C 0.1284(4) 0.1590(4) 0.7839(2)
C25_3 C 0.2029(4) 0.1580(4) 0.7767(3)
H18_3 H 0.2338 0.1964 0.7805
C28_3 C 0.1091(4) 0.0910(4) 0.7751(3)
H20_3 H 0.0617 0.0741 0.7763
C30_3 C 0.0816(4) 0.2171(4) 0.7982(2)
C38_3 C 0.0130(4) 0.8256(4) 0.7896(3)
H26_3 H 0.0203 0.6694 0.8264
C44_3 C 0.0071(4) 0.2124(5) 0.7978(3)
C49_3 C 0.0394(4) 0.7644(5) 0.8030(3)
H31_3 H 0.0895 0.7582 0.8028
C52_3 C 0.1134(4) 0.2783(5) 0.8131(3)
H34_3 H 0.1637 0.2827 0.8139
C56_3 C 0.0591(5) 0.8814(6) 0.7735(3)
C58_3 C 0.0708(4) 0.3321(5) 0.8264(4)
H38_3 H 0.0924 0.3736 0.8352
N14_2 N 0.3302(3) 0.0757(3) 0.69239(12)
Zn8_2 Zn 0.17434(5) 0.95004(5) 0.75146(3)
O11 O 0.3772(3) 0.1454(4) 0.77522(19)
N5_3 N 0.3364(3) 0.9652(3) 0.76324(19)
N9_3 N 0.2786(3) 0.9216(3) 0.7648(2)
O2 O 0.6248(3) 0.6430(3) 0.8424(2)
O3_3 O 0.5283(4) 0.5787(3) 0.8574(2)
C16_3 C 0.3017(4) 0.8608(4) 0.7766(2)
H13_3 H 0.2714 0.8219 0.7797
C26_3 C 0.3926(4) 0.9267(4) 0.7757(3)
H19_3 H 0.4395 0.9446 0.7784
C27_3 C 0.3752(4) 0.8590(4) 0.7840(2)
C36_3 C 0.4215(4) 0.8025(4) 0.7988(3)
C37_3 C 0.5084(4) 0.6897(4) 0.8276(2)
C40_3 C 0.5384(4) 0.7521(5) 0.8124(3)
H25_3 H 0.5887 0.7568 0.8115
C42_3 C 0.5553(5) 0.6339(4) 0.8438(3)
C51_3 C 0.4336(5) 0.6857(5) 0.8280(3)
H33_3 H 0.4116 0.6463 0.8388
C57_3 C 0.4959(4) 0.8057(6) 0.7990(4)
H37_3 H 0.5181 0.8462 0.7895
C59_3 C 0.3904(4) 0.7387(5) 0.8127(4)
H39_3 H 0.3403 0.7327 0.8114
N13_2 N 0.1667(3) 0.9438(3) 0.6925(2)
Zn5 Zn 0.67929(5) 0.56808(5) 0.86494(3)
N1_2 N 0.6667(3) 0.5562(3) 0.1925(2)
C1_3 C 0.7197(5) 0.5908(6) 0.1724(3)
H1_3 H 0.7540 0.6175 0.1860
C2_3 C 0.6170(4) 0.5228(5) 0.1722(3)
H2_3 H 0.5770 0.5049 0.1851
C3_3 C 0.7235(7) 0.5872(7) 0.1326(3)
H3_3 H 0.7594 0.6122 0.1198
C4_3 C 0.6204(7) 0.5124(10) 0.1327(4)
H4_3 H 0.5872 0.4830 0.1200
C5_3 C 0.6749(8) 0.5472(7) 0.1120(3)
C6_3 C 0.7741(3) 0.3880(4) 0.17370(17)
H5_3 H 0.7416 0.3614 0.1880
N2_2 N 0.8302(3) 0.4243(3) 0.19239(12)
C7_3 C 0.8788(3) 0.4641(3) 0.17109(17)
H6_3 H 0.9163 0.4884 0.1836
C8_3 C 0.8715(4) 0.4676(4) 0.13111(17)
H7_3 H 0.9040 0.4942 0.1169
C9_3 C 0.8154(5) 0.4312(5) 0.11242(12)
C10_3 C 0.7668(4) 0.3915(4) 0.13372(17)
H8_3 H 0.7293 0.3671 0.1212
C14_3 C 0.8318(8) 0.4529(7) 0.00418(16)
C19_3 C 0.6901(8) 0.5679(8) 0.00379(17)
C61_3 C 0.8176(14) 0.4936(13) 0.0462(6)
H41_3 H 0.8620 0.5125 0.0584
C62_3 C 0.7487(12) 0.5545(13) 0.0422(6)
H42_3 H 0.7644 0.6000 0.0530
C63_3 C 0.6948(15) 0.5169(15) 0.0707(7)
H43_3 H 0.6525 0.4966 0.0571
C64_3 C 0.7629(13) 0.4582(15) 0.0761(7)
H44_3 H 0.7456 0.4149 0.0635
Zn7_2 Zn 0.82710(5) 0.43197(5) 0.25158(3)
Zn9_2 Zn 0.67434(5) 0.54996(5) 0.25146(3)
Zn1_3 Zn 0.82931(5) 0.45039(5) 0.86470(3)
N4_3 N 0.7811(2) 0.5960(3) 0.8511(2)
N6_3 N 0.8399(3) 0.5510(3) 0.8501(2)
N7_3 N 0.6682(3) 0.4672(3) 0.8521(2)
O1_3 O 0.8821(3) 0.3726(3) 0.8419(2)
C11_3 C 0.7841(5) 0.4053(4) 0.9445(3)
H9_3 H 0.7508 0.3768 0.9313
N10_3 N 0.8360(4) 0.4428(4) 0.92412(16)
C12_3 C 0.8858(4) 0.4854(5) 0.9438(3)
H10_3 H 0.9205 0.5105 0.9302
C13_3 C 0.8837(7) 0.4904(7) 0.9838(3)
H11_3 H 0.9170 0.5189 0.9970
C15_3 C 0.7820(6) 0.4103(6) 0.9845(3)
H12_3 H 0.7473 0.3852 0.9981
N11_3 N 0.7268(3) 0.4218(3) 0.8506(2)
O6_3 O 0.9774(4) 0.4390(4) 0.8574(3)
C18_3 C 0.8784(3) 0.6593(4) 0.8309(2)
O8_3 O 0.4690(4) 0.0797(4) 0.7605(3)
C20_3 C 0.7386(7) 0.6083(7) 0.9828(3)
H14_3 H 0.7754 0.6332 0.9955
C21_3 C 0.7320(5) 0.6115(5) 0.9427(2)
H15_3 H 0.7645 0.6385 0.9287
N12_3 N 0.6770(4) 0.5743(4) 0.92375(16)
C22_3 C 0.6285(5) 0.5339(5) 0.9448(3)
H16_3 H 0.5916 0.5090 0.9321
C23_3 C 0.6350(7) 0.5307(7) 0.9848(3)
H17_3 H 0.6025 0.5037 0.9989
C24_3 C 0.6277(4) 0.3592(4) 0.8315(2)
C29_3 C 0.6116(4) 0.4270(4) 0.8403(3)
H21_3 H 0.5645 0.4447 0.8384
C31_3 C 0.8015(4) 0.6589(4) 0.8381(2)
H22_3 H 0.7705 0.6972 0.8341
C32_3 C 0.9218(3) 0.7174(4) 0.8169(2)
C33_3 C 0.8950(4) 0.5892(4) 0.8394(3)
H23_3 H 0.9418 0.5710 0.8377
C34_3 C 0.9956(4) 0.3255(4) 0.8270(3)
C35_3 C 0.7036(4) 0.3601(4) 0.8389(3)
H24_3 H 0.7336 0.3210 0.8357
C39_3 C 0.5824(4) 0.3012(5) 0.8181(3)
C41_3 C 0.4920(4) 0.1931(4) 0.7898(2)
C43_3 C 0.9983(4) 0.7103(5) 0.8170(3)
H27_3 H 0.9852 0.1716 0.7881
C45_3 C 0.9528(5) 0.3859(6) 0.8438(3)
C46_3 C 0.5665(5) 0.1873(5) 0.7887(3)
H28_3 H 0.5871 0.1470 0.7779
C47_3 C 0.5061(4) 0.3105(5) 0.8167(3)
H29_3 H 0.4859 0.3534 0.8240
C48_3 C 0.9644(5) 0.2655(5) 0.8112(4)
H30_3 H 0.9140 0.2614 0.8096
C50_3 C 0.4611(4) 0.2552(4) 0.8042(3)
H32_3 H 0.4108 0.2596 0.8055
C53_3 C 0.9374(4) 0.8306(5) 0.7901(3)
H35_3 H 0.9168 0.8725 0.7810
C54_3 C 0.4468(6) 0.1346(5) 0.7740(3)
C55_3 C 0.8901(5) 0.7786(4) 0.8029(3)
H36_3 H 0.8400 0.7846 0.8021
C60_3 C 0.6109(4) 0.2396(5) 0.8030(3)
H40_3 H 0.6610 0.2335 0.8025
O2_2 O 0.1248(3) 0.8570(3) 0.3424(2)
O3_4 O 0.0283(4) 0.9213(3) 0.3574(2)
C37_4 C 0.0084(4) 0.8103(4) 0.3276(2)
C40_4 C 0.0384(4) 0.7479(5) 0.3124(3)
H25_4 H 0.0887 0.7432 0.3115
C42_4 C 0.0553(5) 0.8661(4) 0.3438(3)
H37_4 H 0.0181 0.6538 0.2895
Zn5_2 Zn 0.17929(5) 0.93192(5) 0.36494(3)
H4_4 H 0.0872 0.0170 0.6200
C6_4 C 0.2741(3) 0.1120(4) 0.67370(17)
H5_4 H 0.2416 0.1386 0.6880
C7_4 C 0.3788(3) 0.0359(3) 0.67109(17)
H6_4 H 0.4163 0.0116 0.6836
C8_4 C 0.3715(4) 0.0324(4) 0.63111(17)
H7_4 H 0.4040 0.0058 0.6169
C9_4 C 0.3154(5) 0.0688(5) 0.61242(12)
C10_4 C 0.2668(4) 0.1085(4) 0.63372(17)
H8_4 H 0.2293 0.1329 0.6212
Zn1_4 Zn 0.32931(5) 0.04961(5) 0.36470(3)
N3_4 N 0.7240(3) 0.4048(3) 0.2638(2)
N5_4 N 0.8364(3) 0.5348(3) 0.26324(19)
N7_4 N 0.1682(3) 0.0328(3) 0.3521(2)
N8_4 N 0.6651(3) 0.4484(4) 0.2647(2)
N9_4 N 0.7786(3) 0.5784(3) 0.2648(2)
O1_4 O 0.3821(3) 0.1274(3) 0.3419(2)
C11_4 C 0.2841(5) 0.0947(4) 0.4445(3)
H9_4 H 0.2508 0.1232 0.4313
N10_4 N 0.3360(4) 0.0572(4) 0.42412(16)
C12_4 C 0.3858(4) 0.0146(5) 0.4438(3)
C13_4 C 0.3837(7) 0.0096(7) 0.4838(3)
C14_4 C 0.3318(8) 0.0471(7) 0.50418(16)
C15_4 C 0.2820(6) 0.0897(6) 0.4845(3)
H12_4 H 0.2473 0.1148 0.4981
N11_4 N 0.2268(3) 0.0782(3) 0.3506(2)
C16_4 C 0.8017(4) 0.6392(4) 0.2766(2)
H13_4 H 0.7714 0.6781 0.2797
O6_4 O 0.4774(4) 0.0610(4) 0.3574(3)
C17_4 C 0.6284(4) 0.3410(4) 0.2839(2)
C24_4 C 0.1277(4) 0.1408(4) 0.3315(2)
C25_4 C 0.7029(4) 0.3420(4) 0.2767(3)
H18_4 H 0.7338 0.3036 0.2805
C26_4 C 0.8926(4) 0.5733(4) 0.2757(3)
H19_4 H 0.9395 0.5554 0.2784
C27_4 C 0.8752(4) 0.6410(4) 0.2840(2)
C28_4 C 0.6091(4) 0.4090(4) 0.2751(3)
H20_4 H 0.5617 0.4259 0.2763
C29_4 C 0.1116(4) 0.0730(4) 0.3403(3)
H21_4 H 0.0645 0.0553 0.3384
C30_4 C 0.5816(4) 0.2829(4) 0.2982(2)
C34_4 C 0.4956(4) 0.1745(4) 0.3270(3)
C35_4 C 0.2036(4) 0.1399(4) 0.3389(3)
H24_4 H 0.2336 0.1790 0.3357
C36_4 C 0.9215(4) 0.6975(4) 0.2988(3)
C39_4 C 0.0824(4) 0.1988(5) 0.3181(3)
C44_4 C 0.5071(4) 0.2876(5) 0.2978(3)
H27_4 H 0.4852 0.3284 0.2881
C45_4 C 0.4528(5) 0.1141(6) 0.3438(3)
C46_4 C 0.0665(5) 0.3127(5) 0.2887(3)
H28_4 H 0.0871 0.3530 0.2779
C47_4 C 0.0061(4) 0.1895(5) 0.3167(3)
C48_4 C 0.4644(5) 0.2345(5) 0.3112(4)
H30_4 H 0.4140 0.2386 0.3096
C51_4 C 0.9336(5) 0.8143(5) 0.3280(3)
H33_4 H 0.9116 0.8537 0.3388
C52_4 C 0.6134(4) 0.2217(5) 0.3131(3)
H34_4 H 0.6637 0.2173 0.3139
C57_4 C 0.9959(4) 0.6943(6) 0.2990(4)
C58_4 C 0.5708(4) 0.1679(5) 0.3264(4)
H38_4 H 0.5924 0.1264 0.3352
C59_4 C 0.8904(4) 0.7613(5) 0.3127(4)
H39_4 H 0.8403 0.7673 0.3114
C60_4 C 0.1109(4) 0.2604(5) 0.3030(3)
H40_4 H 0.1610 0.2665 0.3025
C61_4 C 0.3176(14) 0.0064(13) 0.5462(6)
H43_4 H 0.1525 0.0034 0.5571
C64_4 C 0.2629(13) 0.0418(15) 0.5761(7)
H44_4 H 0.2456 0.0851 0.5635
O10_2 O 0.6259(3) 0.6281(4) 0.2749(2)
O11_2 O 0.8772(3) 0.3546(4) 0.27522(19)
C1_4 C 0.2197(5) 0.9092(6) 0.6724(3)
H1_4 H 0.2540 0.8825 0.6860
C2_4 C 0.1170(4) 0.9772(5) 0.6722(3)
H2_4 H 0.0770 0.9951 0.6851
C3_4 C 0.2235(7) 0.9128(7) 0.6326(3)
H3_4 H 0.2594 0.8878 0.6198
C4_4 C 0.1204(7) 0.9876(10) 0.6327(4)
C5_4 C 0.1749(8) 0.9528(7) 0.6120(3)
N4_4 N 0.2811(2) 0.9040(3) 0.3511(2)
N6_4 N 0.3399(3) 0.9490(3) 0.3501(2)
H10_4 H 0.4205 0.9895 0.4302
H11_4 H 0.4170 0.9811 0.4970
O7_4 O 0.5309(4) 0.5623(4) 0.2592(3)
C18_4 C 0.3784(3) 0.8407(4) 0.3309(2)
C19_4 C 0.1901(8) 0.9321(8) 0.50379(17)
C20_4 C 0.2386(7) 0.8917(7) 0.4828(3)
H14_4 H 0.2754 0.8668 0.4955
C21_4 C 0.2320(5) 0.8885(5) 0.4427(2)
H15_4 H 0.2645 0.8615 0.4287
N12_4 N 0.1770(4) 0.9257(4) 0.42375(16)
C22_4 C 0.1285(5) 0.9661(5) 0.4448(3)
H16_4 H 0.0916 0.9910 0.4321
C23_4 C 0.1350(7) 0.9693(7) 0.4848(3)
H17_4 H 0.1025 0.9963 0.4989
C31_4 C 0.3015(4) 0.8411(4) 0.3381(2)
H22_4 H 0.2705 0.8028 0.3341
C32_4 C 0.4218(3) 0.7826(4) 0.3169(2)
C33_4 C 0.3950(4) 0.9108(4) 0.3394(3)
H23_4 H 0.4418 0.9290 0.3377
C38_4 C 0.5130(4) 0.6744(4) 0.2896(3)
C43_4 C 0.4983(4) 0.7897(5) 0.3170(3)
H26_4 H 0.5203 0.8306 0.3264
C49_4 C 0.5394(4) 0.7356(5) 0.3030(3)
H31_4 H 0.5895 0.7418 0.3028
C53_4 C 0.4374(4) 0.6694(5) 0.2901(3)
H35_4 H 0.4168 0.6275 0.2810
C55_4 C 0.3901(5) 0.7214(4) 0.3029(3)
H36_4 H 0.3400 0.7154 0.3021
C56_4 C 0.5591(5) 0.6186(6) 0.2735(3)
H41_4 H 0.3620 0.9875 0.5584
C62_4 C 0.2487(12) 0.9455(13) 0.5422(6)
H42_4 H 0.2644 0.9000 0.5530
C63_4 C 0.1948(15) 0.9831(15) 0.5707(7)
O8_4 O 0.9690(4) 0.4203(4) 0.2605(3)
C41_4 C 0.9920(4) 0.3069(4) 0.2898(2)
H29_4 H 0.9859 0.1466 0.3240
C50_4 C 0.9611(4) 0.2448(4) 0.3042(3)
H32_4 H 0.9108 0.2404 0.3055
C54_4 C 0.9468(6) 0.3654(5) 0.2740(3)
loop_
_geom_bond_atom_site_label_1
_geom_bond_atom_site_label_2
_geom_bond_site_symmetry_1
_geom_bond_site_symmetry_2
O5 C54 1_555 1_555
O8 C54 1_555 1_555
C50 C41 1_555 1_555
H32 C50 1_555 1_555
C54 C41 1_555 1_555
Zn6 O5 1_555 1_555
N1 C1 1_555 1_555
C1 H1 1_555 1_555
C2 N1 1_555 1_555
H2 C2 1_555 1_555
C3 C1 1_555 1_555
H3 C3 1_555 1_555
C4 C2 1_555 1_555
C5 C3 1_555 1_555
Zn2 N4 1_555 1_555
N4 N6 1_555 1_555
N6 C33 1_555 1_555
O4 C56 1_555 1_555
O7 C56 1_555 1_555
C18 C31 1_555 1_555
C19 C20 1_555 1_555
C20 H14 1_555 1_555
C21 C20 1_555 1_555
H15 C21 1_555 1_555
N12 Zn2 1_555 1_555
C22 N12 1_555 1_555
H16 C22 1_555 1_555
C23 C19 1_555 1_555
H17 C23 1_555 1_555
C31 N4 1_555 1_555
H22 C31 1_555 1_555
C32 C18 1_555 1_555
C33 C18 1_555 1_555
H23 C33 1_555 1_555
C38 C49 1_555 1_555
C43 C32 1_555 1_555
H26 C43 1_555 1_555
C49 C43 1_555 1_555
H31 C49 1_555 1_555
C53 C38 1_555 1_555
H35 C53 1_555 1_555
C55 C32 1_555 1_555
H36 C55 1_555 1_555
C56 C38 1_555 1_555
C62 C19 1_555 1_555
H42 C62 1_555 1_555
C63 C5 1_555 1_555
Zn8 O4 1_555 1_555
Zn9 N1 1_555 1_555
O9 Zn2 1_555 1_555
C4 C5 1_555 1_555
C21 N12 1_555 1_555
C22 C23 1_555 1_555
C53 C55 1_555 1_555
C62 C63 1_555 1_555
C6 H5 1_555 1_555
N2 C6 1_555 1_555
C7 N2 1_555 1_555
H6 C7 1_555 1_555
C8 C7 1_555 1_555
H7 C8 1_555 1_555
C9 C8 1_555 1_555
C10 C6 1_555 1_555
H8 C10 1_555 1_555
Zn6 N3 1_555 1_555
Zn8 N8 1_555 1_555
N3 N8 1_555 1_555
N5 Zn6 1_555 1_555
N8 C28 1_555 1_555
N9 Zn8 1_555 1_555
O1 Zn1 1_555 1_555
C11 H9 1_555 1_555
N10 Zn1 1_555 1_555
C12 N10 1_555 1_555
C13 C12 1_555 1_555
C14 C13 1_555 1_555
C15 C11 1_555 1_555
H12 C15 1_555 1_555
N11 Zn1 1_555 1_555
C16 N9 1_555 1_555
H13 C16 1_555 1_555
O6 C45 1_555 1_555
C17 C25 1_555 1_555
C24 C29 1_555 1_555
C25 N3 1_555 1_555
H18 C25 1_555 1_555
C26 N5 1_555 1_555
H19 C26 1_555 1_555
C27 C16 1_555 1_555
C28 C17 1_555 1_555
H20 C28 1_555 1_555
C29 N7 1_555 1_555
H21 C29 1_555 1_555
C30 C17 1_555 1_555
C34 C45 1_555 1_555
C35 N11 1_555 1_555
H24 C35 1_555 1_555
C36 C27 1_555 1_555
C39 C24 1_555 1_555
C44 C30 1_555 1_555
H27 C44 1_555 1_555
C45 O1 1_555 1_555
C46 H28 1_555 1_555
C47 C39 1_555 1_555
C48 C34 1_555 1_555
H30 C48 1_555 1_555
H33 C51 1_555 1_555
C52 C30 1_555 1_555
H34 C52 1_555 1_555
C57 C36 1_555 1_555
C58 C34 1_555 1_555
H38 C58 1_555 1_555
C59 C36 1_555 1_555
H39 C59 1_555 1_555
C60 C39 1_555 1_555
H40 C60 1_555 1_555
C61 C14 1_555 1_555
C64 C9 1_555 1_555
H44 C64 1_555 1_555
N13 Zn8 1_555 1_555
N14 Zn6 1_555 1_555
Zn7 N2 1_555 1_555
C9 C10 1_555 1_555
N5 N9 1_555 1_555
N7 N11 1_555 1_555
C11 N10 1_555 1_555
C14 C15 1_555 1_555
C24 C35 1_555 1_555
C26 C27 1_555 1_555
C44 C48 1_555 1_555
C46 C60 1_555 1_555
C51 C59 1_555 1_555
C52 C58 1_555 1_555
C61 C64 1_555 1_555
O9 C42 1_555 1_555
O3 C42 1_555 1_555
C37 C40 1_555 1_555
C40 H25 1_555 1_555
C42 C37 1_555 1_555
Zn1_2 N6_2 1_555 1_555
Zn2_2 N4_2 1_555 1_555
N4_2 N6_2 1_555 1_555
N6_2 C33_2 1_555 1_555
N7_2 Zn2_2 1_555 1_555
O1_2 Zn1_2 1_555 1_555
C11_2 H9_2 1_555 1_555
N10_2 Zn1_2 1_555 1_555
C12_2 N10_2 1_555 1_555
H10_2 C12_2 1_555 1_555
C13_2 C12_2 1_555 1_555
H11_2 C13_2 1_555 1_555
C15_2 C11_2 1_555 1_555
H12_2 C15_2 1_555 1_555
N11_2 Zn1_2 1_555 1_555
O5_2 C54_2 1_555 1_555
O6_2 C45_2 1_555 1_555
C18_2 C31_2 1_555 1_555
O8_2 C54_2 1_555 1_555
C20_2 H14_2 1_555 1_555
C21_2 C20_2 1_555 1_555
H15_2 C21_2 1_555 1_555
N12_2 Zn2_2 1_555 1_555
C22_2 N12_2 1_555 1_555
H16_2 C22_2 1_555 1_555
H17_2 C23_2 1_555 1_555
C24_2 C29_2 1_555 1_555
C29_2 N7_2 1_555 1_555
H21_2 C29_2 1_555 1_555
C31_2 N4_2 1_555 1_555
H22_2 C31_2 1_555 1_555
C32_2 C18_2 1_555 1_555
C33_2 C18_2 1_555 1_555
H23_2 C33_2 1_555 1_555
C34_2 C45_2 1_555 1_555
C35_2 N11_2 1_555 1_555
H24_2 C35_2 1_555 1_555
C39_2 C24_2 1_555 1_555
C41_2 C46_2 1_555 1_555
C43_2 C32_2 1_555 1_555
C45_2 O1_2 1_555 1_555
C46_2 H28_2 1_555 1_555
C47_2 C39_2 1_555 1_555
H29_2 C47_2 1_555 1_555
C48_2 C34_2 1_555 1_555
H30_2 C48_2 1_555 1_555
C50_2 C41_2 1_555 1_555
H32_2 C50_2 1_555 1_555
H35_2 C53_2 1_555 1_555
C54_2 C41_2 1_555 1_555
C55_2 C32_2 1_555 1_555
H36_2 C55_2 1_555 1_555
C60_2 C39_2 1_555 1_555
H40_2 C60_2 1_555 1_555
Zn7 O5_2 1_555 1_555
O9_2 Zn2_2 1_555 1_555
N7_2 N11_2 1_555 1_555
C11_2 N10_2 1_555 1_555
C21_2 N12_2 1_555 1_555
C22_2 C23_2 1_555 1_555
C24_2 C35_2 1_555 1_555
C46_2 C60_2 1_555 1_555
C47_2 C50_2 1_555 1_555
C53_2 C55_2 1_555 1_555
N13 C1_2 1_555 1_555
C1_2 H1_2 1_555 1_555
C2_2 N13 1_555 1_555
H2_2 C2_2 1_555 1_555
C3_2 C1_2 1_555 1_555
H3_2 C3_2 1_555 1_555
C4_2 C2_2 1_555 1_555
H4_2 C4_2 1_555 1_555
C5_2 C3_2 1_555 1_555
C6_2 H5_2 1_555 1_555
N14 C6_2 1_555 1_555
C7_2 N14 1_555 1_555
H6_2 C7_2 1_555 1_555
C8_2 C7_2 1_555 1_555
H7_2 C8_2 1_555 1_555
C9_2 C8_2 1_555 1_555
C10_2 C6_2 1_555 1_555
H8_2 C10_2 1_555 1_555
C61_2 C14_2 1_555 1_555
H41_2 C61_2 1_555 1_555
C62_2 C19_2 1_555 1_555
H42_2 C62_2 1_555 1_555
C63_2 C5_2 1_555 1_555
H43_2 C63_2 1_555 1_555
C64_2 C9_2 1_555 1_555
H44_2 C64_2 1_555 1_555
C4_2 C5_2 1_555 1_555
C9_2 C10_2 1_555 1_555
C61_2 C62_2 1_555 1_555
C61_2 C64_2 1_555 1_555
C62_2 C63_2 1_555 1_555
C63_2 C64_2 1_555 1_555
N9_2 Zn9 1_555 1_555
O9_2 C42_2 1_555 1_555
O3_2 C42_2 1_555 1_555
C16_2 N9_2 1_555 1_555
H13_2 C16_2 1_555 1_555
C26_2 N5_2 1_555 1_555
H19_2 C26_2 1_555 1_555
C27_2 C16_2 1_555 1_555
C36_2 C27_2 1_555 1_555
C37_2 C40_2 1_555 1_555
C40_2 H25_2 1_555 1_555
C42_2 C37_2 1_555 1_555
C51_2 C37_2 1_555 1_555
H33_2 C51_2 1_555 1_555
C57_2 C36_2 1_555 1_555
H37_2 C57_2 1_555 1_555
C59_2 C36_2 1_555 1_555
H39_2 C59_2 1_555 1_555
O10 Zn9 1_555 1_555
N5_2 N9_2 1_555 1_555
C26_2 C27_2 1_555 1_555
C40_2 C57_2 1_555 1_555
C51_2 C59_2 1_555 1_555
Zn7 N3_2 1_555 1_555
N3_2 N8_2 1_555 1_555
N8_2 C28_2 1_555 1_555
O10 C56_2 1_555 1_555
O7_2 C56_2 1_555 1_555
C17_2 C25_2 1_555 1_555
C25_2 N3_2 1_555 1_555
H18_2 C25_2 1_555 1_555
C28_2 C17_2 1_555 1_555
H20_2 C28_2 1_555 1_555
C30_2 C17_2 1_555 1_555
C38_2 C49_2 1_555 1_555
C44_2 C30_2 1_555 1_555
H31_2 C49_2 1_555 1_555
C52_2 C30_2 1_555 1_555
H34_2 C52_2 1_555 1_555
C56_2 C38_2 1_555 1_555
H38_2 C58_2 1_555 1_555
C52_2 C58_2 1_555 1_555
Zn3 N3_3 1_555 1_555
N3_3 N8_3 1_555 1_555
N8_3 C28_3 1_555 1_555
O4_2 C56_3 1_555 1_555
O7_3 C56_3 1_555 1_555
C17_3 C25_3 1_555 1_555
C25_3 N3_3 1_555 1_555
H18_3 C25_3 1_555 1_555
C28_3 C17_3 1_555 1_555
H20_3 C28_3 1_555 1_555
C30_3 C17_3 1_555 1_555
C38_3 C49_3 1_555 1_555
C44_3 C30_3 1_555 1_555
H31_3 C49_3 1_555 1_555
C52_3 C30_3 1_555 1_555
H34_3 C52_3 1_555 1_555
C56_3 C38_3 1_555 1_555
H38_3 C58_3 1_555 1_555
N14_2 Zn3 1_555 1_555
Zn8_2 O4_2 1_555 1_555
O11 Zn3 1_555 1_555
C52_3 C58_3 1_555 1_555
N9_3 Zn8_2 1_555 1_555
O2 C42_3 1_555 1_555
O3_3 C42_3 1_555 1_555
C16_3 N9_3 1_555 1_555
H13_3 C16_3 1_555 1_555
C26_3 N5_3 1_555 1_555
H19_3 C26_3 1_555 1_555
C27_3 C16_3 1_555 1_555
C36_3 C27_3 1_555 1_555
C37_3 C40_3 1_555 1_555
C40_3 H25_3 1_555 1_555
C42_3 C37_3 1_555 1_555
C51_3 C37_3 1_555 1_555
H33_3 C51_3 1_555 1_555
C57_3 C36_3 1_555 1_555
H37_3 C57_3 1_555 1_555
C59_3 C36_3 1_555 1_555
H39_3 C59_3 1_555 1_555
N13_2 Zn8_2 1_555 1_555
Zn5 O2 1_555 1_555
N5_3 N9_3 1_555 1_555
C26_3 C27_3 1_555 1_555
C40_3 C57_3 1_555 1_555
C51_3 C59_3 1_555 1_555
N1_2 C1_3 1_555 1_555
C1_3 H1_3 1_555 1_555
C2_3 N1_2 1_555 1_555
H2_3 C2_3 1_555 1_555
C3_3 C1_3 1_555 1_555
H3_3 C3_3 1_555 1_555
C4_3 C2_3 1_555 1_555
H4_3 C4_3 1_555 1_555
C5_3 C3_3 1_555 1_555
C6_3 H5_3 1_555 1_555
N2_2 C6_3 1_555 1_555
C7_3 N2_2 1_555 1_555
H6_3 C7_3 1_555 1_555
C8_3 C7_3 1_555 1_555
H7_3 C8_3 1_555 1_555
C9_3 C8_3 1_555 1_555
C10_3 C6_3 1_555 1_555
H8_3 C10_3 1_555 1_555
C61_3 C14_3 1_555 1_555
H41_3 C61_3 1_555 1_555
C62_3 C19_3 1_555 1_555
H42_3 C62_3 1_555 1_555
C63_3 C5_3 1_555 1_555
H43_3 C63_3 1_555 1_555
C64_3 C9_3 1_555 1_555
H44_3 C64_3 1_555 1_555
Zn7_2 N2_2 1_555 1_555
Zn9_2 N1_2 1_555 1_555
C4_3 C5_3 1_555 1_555
C9_3 C10_3 1_555 1_555
C61_3 C62_3 1_555 1_555
C61_3 C64_3 1_555 1_555
C62_3 C63_3 1_555 1_555
C63_3 C64_3 1_555 1_555
Zn1_3 N6_3 1_555 1_555
Zn5 N4_3 1_555 1_555
N4_3 N6_3 1_555 1_555
N6_3 C33_3 1_555 1_555
N7_3 Zn5 1_555 1_555
O1_3 Zn1_3 1_555 1_555
C11_3 H9_3 1_555 1_555
N10_3 Zn1_3 1_555 1_555
C12_3 N10_3 1_555 1_555
H10_3 C12_3 1_555 1_555
C13_3 C12_3 1_555 1_555
H11_3 C13_3 1_555 1_555
C15_3 C11_3 1_555 1_555
H12_3 C15_3 1_555 1_555
N11_3 Zn1_3 1_555 1_555
O11 C54_3 1_555 1_555
O6_3 C45_3 1_555 1_555
C18_3 C31_3 1_555 1_555
O8_3 C54_3 1_555 1_555
C20_3 H14_3 1_555 1_555
C21_3 C20_3 1_555 1_555
H15_3 C21_3 1_555 1_555
N12_3 Zn5 1_555 1_555
C22_3 N12_3 1_555 1_555
H16_3 C22_3 1_555 1_555
H17_3 C23_3 1_555 1_555
C24_3 C29_3 1_555 1_555
C29_3 N7_3 1_555 1_555
H21_3 C29_3 1_555 1_555
C31_3 N4_3 1_555 1_555
H22_3 C31_3 1_555 1_555
C32_3 C18_3 1_555 1_555
C33_3 C18_3 1_555 1_555
H23_3 C33_3 1_555 1_555
C34_3 C45_3 1_555 1_555
C35_3 N11_3 1_555 1_555
H24_3 C35_3 1_555 1_555
C39_3 C24_3 1_555 1_555
C41_3 C46_3 1_555 1_555
C43_3 C32_3 1_555 1_555
C45_3 O1_3 1_555 1_555
C46_3 H28_3 1_555 1_555
C47_3 C39_3 1_555 1_555
H29_3 C47_3 1_555 1_555
C48_3 C34_3 1_555 1_555
H30_3 C48_3 1_555 1_555
C50_3 C41_3 1_555 1_555
H32_3 C50_3 1_555 1_555
H35_3 C53_3 1_555 1_555
C54_3 C41_3 1_555 1_555
C55_3 C32_3 1_555 1_555
H36_3 C55_3 1_555 1_555
C60_3 C39_3 1_555 1_555
H40_3 C60_3 1_555 1_555
N7_3 N11_3 1_555 1_555
C11_3 N10_3 1_555 1_555
C21_3 N12_3 1_555 1_555
C22_3 C23_3 1_555 1_555
C24_3 C35_3 1_555 1_555
C46_3 C60_3 1_555 1_555
C47_3 C50_3 1_555 1_555
C53_3 C55_3 1_555 1_555
O2_2 C42_4 1_555 1_555
O3_4 C42_4 1_555 1_555
C37_4 C40_4 1_555 1_555
C40_4 H25_4 1_555 1_555
C42_4 C37_4 1_555 1_555
Zn5_2 O2_2 1_555 1_555
C6_4 H5_4 1_555 1_555
N14_2 C6_4 1_555 1_555
C7_4 N14_2 1_555 1_555
H6_4 C7_4 1_555 1_555
C8_4 C7_4 1_555 1_555
H7_4 C8_4 1_555 1_555
C9_4 C8_4 1_555 1_555
C10_4 C6_4 1_555 1_555
H8_4 C10_4 1_555 1_555
Zn7_2 N3_4 1_555 1_555
Zn9_2 N8_4 1_555 1_555
N3_4 N8_4 1_555 1_555
N5_4 Zn7_2 1_555 1_555
N8_4 C28_4 1_555 1_555
N9_4 Zn9_2 1_555 1_555
O1_4 Zn1_4 1_555 1_555
C11_4 H9_4 1_555 1_555
N10_4 Zn1_4 1_555 1_555
C12_4 N10_4 1_555 1_555
C13_4 C12_4 1_555 1_555
C14_4 C13_4 1_555 1_555
C15_4 C11_4 1_555 1_555
H12_4 C15_4 1_555 1_555
N11_4 Zn1_4 1_555 1_555
C16_4 N9_4 1_555 1_555
H13_4 C16_4 1_555 1_555
O6_4 C45_4 1_555 1_555
C17_4 C25_4 1_555 1_555
C24_4 C29_4 1_555 1_555
C25_4 N3_4 1_555 1_555
H18_4 C25_4 1_555 1_555
C26_4 N5_4 1_555 1_555
H19_4 C26_4 1_555 1_555
C27_4 C16_4 1_555 1_555
C28_4 C17_4 1_555 1_555
H20_4 C28_4 1_555 1_555
C29_4 N7_4 1_555 1_555
H21_4 C29_4 1_555 1_555
C30_4 C17_4 1_555 1_555
C34_4 C45_4 1_555 1_555
C35_4 N11_4 1_555 1_555
H24_4 C35_4 1_555 1_555
C36_4 C27_4 1_555 1_555
C39_4 C24_4 1_555 1_555
C44_4 C30_4 1_555 1_555
H27_4 C44_4 1_555 1_555
C45_4 O1_4 1_555 1_555
C46_4 H28_4 1_555 1_555
C47_4 C39_4 1_555 1_555
C48_4 C34_4 1_555 1_555
H30_4 C48_4 1_555 1_555
H33_4 C51_4 1_555 1_555
C52_4 C30_4 1_555 1_555
H34_4 C52_4 1_555 1_555
C57_4 C36_4 1_555 1_555
C58_4 C34_4 1_555 1_555
H38_4 C58_4 1_555 1_555
C59_4 C36_4 1_555 1_555
H39_4 C59_4 1_555 1_555
C60_4 C39_4 1_555 1_555
H40_4 C60_4 1_555 1_555
C61_4 C14_4 1_555 1_555
C64_4 C9_4 1_555 1_555
H44_4 C64_4 1_555 1_555
O10_2 Zn9_2 1_555 1_555
O11_2 Zn7_2 1_555 1_555
C9_4 C10_4 1_555 1_555
N5_4 N9_4 1_555 1_555
N7_4 N11_4 1_555 1_555
C11_4 N10_4 1_555 1_555
C14_4 C15_4 1_555 1_555
C24_4 C35_4 1_555 1_555
C26_4 C27_4 1_555 1_555
C44_4 C48_4 1_555 1_555
C46_4 C60_4 1_555 1_555
C51_4 C59_4 1_555 1_555
C52_4 C58_4 1_555 1_555
C61_4 C64_4 1_555 1_555
N13_2 C1_4 1_555 1_555
C1_4 H1_4 1_555 1_555
C2_4 N13_2 1_555 1_555
H2_4 C2_4 1_555 1_555
C3_4 C1_4 1_555 1_555
H3_4 C3_4 1_555 1_555
C4_4 C2_4 1_555 1_555
C5_4 C3_4 1_555 1_555
Zn5_2 N4_4 1_555 1_555
N4_4 N6_4 1_555 1_555
N6_4 C33_4 1_555 1_555
O10_2 C56_4 1_555 1_555
O7_4 C56_4 1_555 1_555
C18_4 C31_4 1_555 1_555
C19_4 C20_4 1_555 1_555
C20_4 H14_4 1_555 1_555
C21_4 C20_4 1_555 1_555
H15_4 C21_4 1_555 1_555
N12_4 Zn5_2 1_555 1_555
C22_4 N12_4 1_555 1_555
H16_4 C22_4 1_555 1_555
C23_4 C19_4 1_555 1_555
H17_4 C23_4 1_555 1_555
C31_4 N4_4 1_555 1_555
H22_4 C31_4 1_555 1_555
C32_4 C18_4 1_555 1_555
C33_4 C18_4 1_555 1_555
H23_4 C33_4 1_555 1_555
C38_4 C49_4 1_555 1_555
C43_4 C32_4 1_555 1_555
H26_4 C43_4 1_555 1_555
C49_4 C43_4 1_555 1_555
H31_4 C49_4 1_555 1_555
C53_4 C38_4 1_555 1_555
H35_4 C53_4 1_555 1_555
C55_4 C32_4 1_555 1_555
H36_4 C55_4 1_555 1_555
C56_4 C38_4 1_555 1_555
C62_4 C19_4 1_555 1_555
H42_4 C62_4 1_555 1_555
C63_4 C5_4 1_555 1_555
C4_4 C5_4 1_555 1_555
C21_4 N12_4 1_555 1_555
C22_4 C23_4 1_555 1_555
C53_4 C55_4 1_555 1_555
C62_4 C63_4 1_555 1_555
O11_2 C54_4 1_555 1_555
O8_4 C54_4 1_555 1_555
C50_4 C41_4 1_555 1_555
H32_4 C50_4 1_555 1_555
C54_4 C41_4 1_555 1_555

#END
