
###############################################################################
#
# This file contains modified crystal structure data generated from the
# MOF subset of the Cambridge Structural Database (CSD) v543 
# hosted by the Cambridge Crystallographic Data Centre (CCDC).
#
# This work is licensed under the Creative Commons
# Attribution-NonCommercial-ShareAlike 4.0 International License.
# To view a copy of this license, visit
# http://creativecommons.org/licenses/by-nc-sa/4.0/
# or send a letter to
# Creative Commons, PO Box 1866, Mountain View, CA 94042, USA.
#
# CIF created using the CSD Python API on 29 September 2022
# The structure has been converted into the P1 space group
# The structure has a 3D framework
# The original CSD entry KOTBED is in the monoclinic crystal system
# The framework has been calculated to contain at least 10.0% void space
# The void calculation uses a probe of radius 1.32A, grid spacing 0.4
#
###############################################################################

data_KOTBED
_chemical_formula_moiety         '(C256 H176 N48 O32 Zn14)n'
_symmetry_cell_setting           triclinic
_symmetry_space_group_name_H-M   'P 1'
_symmetry_Int_Tables_number      1
_space_group_name_Hall           'P 1'
loop_
_symmetry_equiv_pos_site_id
_symmetry_equiv_pos_as_xyz
1 x,y,z
_cell_length_a                   18.9718(18)
_cell_length_b                   19.4495(19)
_cell_length_c                   30.870(4)
_cell_angle_alpha                90
_cell_angle_beta                 91.963(5)
_cell_angle_gamma                90
_cell_volume                     11384.1
loop_
_atom_site_label
_atom_site_type_symbol
_atom_site_fract_x
_atom_site_fract_y
_atom_site_fract_z
H15 H 0.0142 0.8040 0.2123
C26 C 0.0392(4) 0.7049(4) 0.1948(3)
H16 H 0.0890 0.7098 0.1955
C28 C 0.0051(5) 0.6386(4) 0.1844(3)
C30 C 0.0534(5) 0.5828(4) 0.1740(4)
O5 O 0.1202(3) 0.5890(3) 0.1826(2)
O6 O 0.0284(3) 0.5278(3) 0.1572(3)
Zn5 Zn 0.17791(5) 0.52066(5) 0.15622(5)
Zn3 Zn 0.82711(6) 0.02095(5) 0.22312(6)
O9 O 0.8746(3) 0.1027(3) 0.2025(2)
O10 O 0.9601(3) 0.0325(3) 0.2182(3)
N13 N 0.7245(3) 0.0470(3) 0.2102(2)
N14 N 0.6705(3) 0.0038(3) 0.2140(2)
N16 N 0.8372(4) 0.0315(3) 0.2889(3)
Zn2 Zn 0.68208(5) 0.90661(5) 0.22854(4)
Zn4 Zn 0.32300(6) 0.40775(5) 0.15125(5)
N1 N 0.2722(3) 0.5484(3) 0.1704(3)
N2 N 0.3325(3) 0.5049(3) 0.1669(2)
N3 N 0.2237(3) 0.3789(3) 0.1652(3)
N4 N 0.1657(3) 0.4202(3) 0.1651(3)
C1 C 0.3901(4) 0.5447(3) 0.1700(3)
H1 H 0.4365 0.5282 0.1660
C2 C 0.3750(4) 0.6107(4) 0.1794(3)
C3 C 0.3049(4) 0.6117(4) 0.1790(3)
H2 H 0.2789 0.6524 0.1842
C4 C 0.5416(4) 0.7169(4) 0.1869(3)
H3 H 0.5902 0.7113 0.1813
C5 C 0.5668(4) 0.8388(4) 0.2123(3)
C6 C 0.4203(4) 0.6702(4) 0.1858(3)
C7 C 0.5166(4) 0.7803(4) 0.2013(3)
C8 C 0.4949(4) 0.6613(4) 0.1806(3)
H4 H 0.5127 0.6175 0.1729
C9 C 0.3965(5) 0.7322(4) 0.1996(4)
H5 H 0.3477 0.7391 0.2041
C10 C 0.4469(5) 0.7878(4) 0.2074(4)
H6 H 0.4300 0.8309 0.2171
C11 C 0.2028(4) 0.3151(4) 0.1709(3)
H7 H 0.2323 0.2756 0.1717
C12 C 0.1128(5) 0.3847(4) 0.1714(3)
H8 H 0.0667 0.4032 0.1733
C13 C 0.0801(4) 0.2568(4) 0.1820(3)
C14 C 0.1281(4) 0.3153(4) 0.1755(3)
C15 C 0.0091(4) 0.2649(5) 0.1786(4)
C16 C 0.1068(4) 0.1905(4) 0.1921(3)
H10 H 0.1563 0.1829 0.1942
C18 C 0.0616(4) 0.1377(4) 0.1988(3)
H12 H 0.0805 0.0935 0.2054
O1 O 0.5441(3) 0.8936(3) 0.2258(2)
O2 O 0.6317(3) 0.8270(3) 0.2057(2)
N5 N 0.7787(3) 0.8792(3) 0.2152(3)
N6 N 0.8365(3) 0.9191(3) 0.2131(3)
C21 C 0.8042(4) 0.8156(3) 0.2094(3)
H13 H 0.7748 0.7761 0.2078
C22 C 0.9197(4) 0.7544(4) 0.2002(3)
C23 C 0.8759(4) 0.8120(4) 0.2059(3)
C24 C 0.8954(4) 0.8821(3) 0.2070(3)
H14 H 0.9416 0.8999 0.2041
C25 C 0.9941(5) 0.7612(5) 0.2038(5)
C27 C 0.9352(4) 0.6339(4) 0.1829(3)
H17 H 0.9143 0.5905 0.1767
C29 C 0.8914(4) 0.6897(4) 0.1899(3)
H18 H 0.8416 0.6838 0.1878
C31 C 0.6100(3) 0.0437(3) 0.2095(3)
H19 H 0.5634 0.0278 0.2135
C32 C 0.7042(4) 0.1071(4) 0.1996(3)
H20 H 0.7343 0.1446 0.1935
C33 C 0.6275(4) 0.1095(4) 0.1983(3)
C34 C 0.6086(4) 0.2341(4) 0.1825(3)
H21 H 0.6583 0.2398 0.1815
C35 C 0.4668(3) 0.2172(3) 0.1842(4)
H22 H 0.4172 0.2117 0.1856
C36 C 0.5812(4) 0.1682(4) 0.1918(3)
C37 C 0.4932(4) 0.2825(4) 0.1746(3)
C38 C 0.5090(4) 0.1606(4) 0.1918(3)
H23 H 0.4886 0.1169 0.1970
C39 C 0.5663(4) 0.2893(4) 0.1751(3)
H24 H 0.5867 0.3331 0.1701
C40 C 0.4465(5) 0.3437(4) 0.1666(4)
O7 O 0.3808(3) 0.3317(3) 0.1712(2)
O8 O 0.4689(3) 0.3964(3) 0.1527(3)
N9 N 0.3231(3) 0.4082(4) 0.0860(3)
N12 N 0.1726(3) 0.5356(4) 0.0903(3)
C51 C 0.3647(5) 0.4440(6) 0.0622(5)
H33 H 0.4057 0.4623 0.0765
C52 C 0.3563(5) 0.4586(6) 0.0178(4)
H34 H 0.3864 0.4905 0.0042
C53 C 0.2572(6) 0.3828(7) 0.0178(5)
H35 H 0.2190 0.3604 0.0029
C55 C 0.2688(7) 0.3741(7) 0.0628(5)
H36 H 0.2387 0.3440 0.0779
C56 C 0.1221(6) 0.5028(6) 0.0641(5)
H37 H 0.0848 0.4781 0.0767
C57 C 0.1262(10) 0.5065(13) 0.0208(6)
H38 H 0.0882 0.4862 0.0046
C59 C 0.2200(7) 0.5727(7) 0.0254(6)
H39 H 0.2532 0.6013 0.0117
C60 C 0.2198(7) 0.5716(6) 0.0719(5)
H40 H 0.2537 0.5969 0.0887
N15 N 0.6826(4) 0.8985(3) 0.2951(3)
N10 N 0.1826(4) 0.6015(3) 0.7951(3)
N11 N 0.3372(4) 0.4685(3) 0.7889(3)
C41 C 0.3860(5) 0.5013(4) 0.8121(4)
H25 H 0.4223 0.5240 0.7972
C42 C 0.2771(6) 0.4391(5) 0.8540(5)
H26 H 0.2389 0.4183 0.8682
C43 C 0.3879(5) 0.5050(6) 0.8567(6)
H27 H 0.4248 0.5278 0.8725
C44 C 0.2825(5) 0.4384(5) 0.8084(5)
H28 H 0.2469 0.4162 0.7912
C45 C 0.3327(7) 0.4732(6) 0.8771(5)
C46 C 0.1295(5) 0.5677(5) 0.8177(5)
H29 H 0.0889 0.5505 0.8024
C47 C 0.2350(5) 0.6281(5) 0.8173(4)
H30 H 0.2680 0.6542 0.8018
C48 C 0.2470(8) 0.6223(6) 0.8602(5)
H31 H 0.2883 0.6423 0.8731
C49 C 0.1368(10) 0.5596(7) 0.8627(6)
H32 H 0.1017 0.5364 0.8783
C50 C 0.2012(13) 0.5883(8) 0.8856(5)
C54 C 0.3045(6) 0.4264(5) 0.9950(5)
C58 C 0.1734(12) 0.5331(11) 0.9990(5)
C61 C 0.2052(10) 0.5010(10) 0.9544(7)
H41 H 0.1662 0.4825 0.9352
C62 C 0.2787(8) 0.4489(8) 0.9523(5)
H42 H 0.2652 0.4070 0.9351
C63 C 0.3164(12) 0.4982(11) 0.9221(8)
H43 H 0.3607 0.5151 0.9370
C64 C 0.2529(8) 0.5561(8) 0.9278(5)
H44 H 0.2696 0.5941 0.9474
Zn7 Zn 0.18208(5) 0.59339(5) 0.72854(4)
Zn10 Zn 0.32711(6) 0.47905(5) 0.72312(6)
H9 H 0.9901 0.3087 0.1712
C17 C 0.9656(5) 0.2128(5) 0.1854(4)
H11 H 0.9162 0.2209 0.1828
C19 C 0.9896(3) 0.1454(4) 0.1964(3)
C20 C 0.9424(5) 0.0877(4) 0.2051(3)
N7 N 0.2245(3) 0.4530(3) 0.7102(2)
N8 N 0.1705(3) 0.4962(3) 0.7140(2)
C31_2 C 0.1100(3) 0.4563(3) 0.7095(3)
H19_2 H 0.0634 0.4722 0.7135
C32_2 C 0.2042(4) 0.3929(4) 0.6996(3)
H20_2 H 0.2343 0.3554 0.6935
C33_2 C 0.1275(4) 0.3905(4) 0.6983(3)
C34_2 C 0.1086(4) 0.2659(4) 0.6825(3)
H21_2 H 0.1583 0.2602 0.6815
C36_2 C 0.0812(4) 0.3318(4) 0.6918(3)
C38_2 C 0.0090(4) 0.3394(4) 0.6918(3)
C39_2 C 0.0663(4) 0.2107(4) 0.6751(3)
H24_2 H 0.0867 0.1669 0.6701
C4_2 C 0.0416(4) 0.7831(4) 0.6869(3)
H3_2 H 0.0902 0.7887 0.6813
C5_2 C 0.0668(4) 0.6612(4) 0.7123(3)
C7_2 C 0.0166(4) 0.7197(4) 0.7013(3)
H4_2 H 0.0127 0.8825 0.6729
O1_2 O 0.0441(3) 0.6064(3) 0.7258(2)
O2_2 O 0.1317(3) 0.6730(3) 0.7057(2)
N5_2 N 0.2787(3) 0.6208(3) 0.7152(3)
N6_2 N 0.3365(3) 0.5809(3) 0.7131(3)
C21_2 C 0.3042(4) 0.6844(3) 0.7094(3)
H13_2 H 0.2748 0.7239 0.7078
C22_2 C 0.4197(4) 0.7456(4) 0.7002(3)
C23_2 C 0.3759(4) 0.6880(4) 0.7059(3)
C24_2 C 0.3954(4) 0.6179(3) 0.7070(3)
H14_2 H 0.4416 0.6001 0.7041
C25_2 C 0.4941(5) 0.7388(5) 0.7038(5)
H15_2 H 0.5142 0.6960 0.7123
C26_2 C 0.5392(4) 0.7951(4) 0.6948(3)
H16_2 H 0.5890 0.7902 0.6955
C27_2 C 0.4352(4) 0.8661(4) 0.6829(3)
H17_2 H 0.4143 0.9095 0.6767
C28_2 C 0.5051(5) 0.8614(4) 0.6844(3)
C29_2 C 0.3914(4) 0.8103(4) 0.6899(3)
H18_2 H 0.3416 0.8162 0.6878
C30_2 C 0.5534(5) 0.9172(4) 0.6740(4)
O5_2 O 0.6202(3) 0.9110(3) 0.6826(2)
O6_2 O 0.5284(3) 0.9722(3) 0.6572(3)
Zn5_2 Zn 0.67791(5) 0.97934(5) 0.65622(5)
O9_2 O 0.3746(3) 0.3973(3) 0.7025(2)
O10_2 O 0.4601(3) 0.4675(3) 0.7182(3)
Zn4_2 Zn 0.82300(6) 0.09225(5) 0.65125(5)
N3_2 N 0.7237(3) 0.1211(3) 0.6652(3)
N4_2 N 0.6657(3) 0.0798(3) 0.6651(3)
C11_2 C 0.7028(4) 0.1849(4) 0.6709(3)
H7_2 H 0.7323 0.2244 0.6717
C12_2 C 0.6128(5) 0.1153(4) 0.6714(3)
H8_2 H 0.5667 0.0968 0.6733
C13_2 C 0.5801(4) 0.2432(4) 0.6820(3)
C14_2 C 0.6281(4) 0.1847(4) 0.6755(3)
C15_2 C 0.5091(4) 0.2351(5) 0.6786(4)
H9_2 H 0.4901 0.1913 0.6712
C16_2 C 0.6068(4) 0.3095(4) 0.6921(3)
H10_2 H 0.6563 0.3171 0.6942
C17_2 C 0.4656(5) 0.2872(5) 0.6854(4)
H11_2 H 0.4162 0.2791 0.6828
C18_2 C 0.5616(4) 0.3623(4) 0.6988(3)
H12_2 H 0.5805 0.4065 0.7054
C19_2 C 0.4896(3) 0.3546(4) 0.6964(3)
C20_2 C 0.4424(5) 0.4123(4) 0.7051(3)
C35_2 C 0.9668(3) 0.2828(3) 0.6842(4)
H22_2 H 0.9172 0.2883 0.6856
C37_2 C 0.9932(4) 0.2175(4) 0.6746(3)
H23_2 H 0.9886 0.3831 0.6970
C40_2 C 0.9465(5) 0.1563(4) 0.6666(4)
O7_2 O 0.8808(3) 0.1683(3) 0.6712(2)
O8_2 O 0.9689(3) 0.1036(3) 0.6527(3)
N9_2 N 0.8231(3) 0.0918(4) 0.5860(3)
C42_2 C 0.7771(6) 0.0609(5) 0.3540(5)
H26_2 H 0.7389 0.0817 0.3682
C44_2 C 0.7825(5) 0.0616(5) 0.3084(5)
H28_2 H 0.7469 0.0838 0.2912
C45_2 C 0.8327(7) 0.0268(6) 0.3771(5)
C51_2 C 0.8647(5) 0.0560(6) 0.5622(5)
H33_2 H 0.9057 0.0377 0.5765
C52_2 C 0.8563(5) 0.0414(6) 0.5178(4)
H34_2 H 0.8864 0.0095 0.5042
C53_2 C 0.7572(6) 0.1172(7) 0.5178(5)
H35_2 H 0.7190 0.1396 0.5029
C54_2 C 0.8045(6) 0.0736(5) 0.4950(5)
C55_2 C 0.7688(7) 0.1259(7) 0.5628(5)
H36_2 H 0.7387 0.1560 0.5779
H37_2 H 0.5848 0.0219 0.5767
H38_2 H 0.5882 0.0138 0.5046
H41_2 H 0.6662 0.0175 0.4352
C62_2 C 0.7787(8) 0.0511(8) 0.4523(5)
H42_2 H 0.7652 0.0930 0.4351
C63_2 C 0.8164(12) 0.0018(11) 0.4221(8)
N1_2 N 0.7722(3) 0.9516(3) 0.6704(3)
N2_2 N 0.8325(3) 0.9951(3) 0.6669(2)
C1_2 C 0.8901(4) 0.9553(3) 0.6700(3)
H1_2 H 0.9365 0.9718 0.6660
C2_2 C 0.8750(4) 0.8893(4) 0.6794(3)
C3_2 C 0.8049(4) 0.8883(4) 0.6790(3)
H2_2 H 0.7789 0.8476 0.6842
C6_2 C 0.9203(4) 0.8298(4) 0.6858(3)
C8_2 C 0.9949(4) 0.8387(4) 0.6806(3)
C9_2 C 0.8965(5) 0.7678(4) 0.6996(4)
H5_2 H 0.8477 0.7609 0.7041
C10_2 C 0.9469(5) 0.7122(4) 0.7074(4)
H6_2 H 0.9300 0.6691 0.7171
N12_2 N 0.6726(3) 0.9644(4) 0.5903(3)
C41_2 C 0.8860(5) 0.9987(4) 0.3121(4)
H25_2 H 0.9223 0.9760 0.2972
C43_2 C 0.8879(5) 0.9950(6) 0.3567(6)
H27_2 H 0.9248 0.9722 0.3725
C46_2 C 0.6295(5) 0.9323(5) 0.3177(5)
H29_2 H 0.5889 0.9495 0.3024
C47_2 C 0.7350(5) 0.8719(5) 0.3173(4)
H30_2 H 0.7680 0.8458 0.3018
C48_2 C 0.7470(8) 0.8777(6) 0.3602(5)
H31_2 H 0.7883 0.8577 0.3731
C49_2 C 0.6368(10) 0.9404(7) 0.3627(6)
H32_2 H 0.6017 0.9636 0.3783
C50_2 C 0.7012(13) 0.9117(8) 0.3856(5)
C56_2 C 0.6221(6) 0.9972(6) 0.5641(5)
C57_2 C 0.6262(10) 0.9935(13) 0.5208(6)
C58_2 C 0.6734(12) 0.9669(11) 0.4990(5)
C59_2 C 0.7200(7) 0.9273(7) 0.5254(6)
H39_2 H 0.7532 0.8987 0.5117
C60_2 C 0.7198(7) 0.9284(6) 0.5719(5)
H40_2 H 0.7537 0.9031 0.5887
C61_2 C 0.7052(10) 0.9990(10) 0.4544(7)
H43_2 H 0.8607 0.9849 0.4370
C64_2 C 0.7529(8) 0.9439(8) 0.4278(5)
H44_2 H 0.7696 0.9059 0.4474
Zn1 Zn 0.32209(5) 0.02066(5) 0.34378(5)
N1_3 N 0.2278(3) 0.0484(3) 0.3296(3)
N2_3 N 0.1675(3) 0.0049(3) 0.3331(2)
C1_3 C 0.1099(4) 0.0447(3) 0.3300(3)
H1_3 H 0.0635 0.0282 0.3340
C2_3 C 0.1250(4) 0.1107(4) 0.3206(3)
C3_3 C 0.1951(4) 0.1117(4) 0.3210(3)
H2_3 H 0.2211 0.1524 0.3158
C6_3 C 0.0797(4) 0.1702(4) 0.3142(3)
C8_3 C 0.0051(4) 0.1613(4) 0.3194(3)
C9_3 C 0.1035(5) 0.2322(4) 0.3004(4)
H5_3 H 0.1523 0.2391 0.2959
C10_3 C 0.0531(5) 0.2878(4) 0.2926(4)
H6_3 H 0.0700 0.3309 0.2829
N10_2 N 0.3174(4) 0.1015(3) 0.7049(3)
N12_3 N 0.3274(3) 0.0356(4) 0.4097(3)
C41_3 C 0.1140(5) 0.0013(4) 0.6879(4)
H25_3 H 0.0777 0.0240 0.7028
C43_3 C 0.1121(5) 0.0050(6) 0.6433(6)
H27_3 H 0.0752 0.0278 0.6275
C46_3 C 0.3705(5) 0.0677(5) 0.6823(5)
H29_3 H 0.4111 0.0505 0.6976
C47_3 C 0.2650(5) 0.1281(5) 0.6827(4)
H30_3 H 0.2320 0.1542 0.6982
C48_3 C 0.2530(8) 0.1223(6) 0.6398(5)
H31_3 H 0.2117 0.1423 0.6269
C49_3 C 0.3632(10) 0.0596(7) 0.6373(6)
H32_3 H 0.3983 0.0364 0.6217
C50_3 C 0.2988(13) 0.0883(8) 0.6144(5)
C56_3 C 0.3779(6) 0.0028(6) 0.4359(5)
C57_3 C 0.3738(10) 0.0065(13) 0.4792(6)
C58_3 C 0.3266(12) 0.0331(11) 0.5010(5)
C59_3 C 0.2800(7) 0.0727(7) 0.4746(6)
H39_3 H 0.2468 0.1013 0.4883
C60_3 C 0.2802(7) 0.0716(6) 0.4281(5)
H40_3 H 0.2463 0.0969 0.4113
C61_3 C 0.2948(10) 0.0010(10) 0.5456(7)
H43_3 H 0.1393 0.0151 0.5630
C64_3 C 0.2471(8) 0.0561(8) 0.5722(5)
H44_3 H 0.2304 0.0941 0.5526
Zn7_2 Zn 0.31792(5) 0.09339(5) 0.77146(4)
O11 O 0.3798(3) 0.0890(3) 0.3174(2)
Zn4_3 Zn 0.17700(6) 0.90775(5) 0.34875(5)
N3_3 N 0.2763(3) 0.8789(3) 0.3348(3)
N4_3 N 0.3343(3) 0.9202(3) 0.3349(3)
C11_3 C 0.2972(4) 0.8151(4) 0.3291(3)
H7_3 H 0.2677 0.7756 0.3283
C12_3 C 0.3872(5) 0.8847(4) 0.3286(3)
H8_3 H 0.4333 0.9032 0.3267
C13_3 C 0.4199(4) 0.7568(4) 0.3180(3)
C14_3 C 0.3719(4) 0.8153(4) 0.3245(3)
C15_3 C 0.4909(4) 0.7649(5) 0.3214(4)
H9_3 H 0.5099 0.8087 0.3288
C16_3 C 0.3932(4) 0.6905(4) 0.3079(3)
H10_3 H 0.3437 0.6829 0.3058
C17_3 C 0.5344(5) 0.7128(5) 0.3146(4)
H11_3 H 0.5838 0.7209 0.3172
C18_3 C 0.4384(4) 0.6377(4) 0.3012(3)
H12_3 H 0.4195 0.5935 0.2946
C19_3 C 0.5104(3) 0.6454(4) 0.3036(3)
C20_3 C 0.5576(5) 0.5877(4) 0.2949(3)
O3 O 0.6254(3) 0.6027(3) 0.2975(2)
O4 O 0.5399(3) 0.5325(3) 0.2818(3)
C35_3 C 0.0332(3) 0.7172(3) 0.3158(4)
H22_3 H 0.0828 0.7117 0.3144
C37_3 C 0.0068(4) 0.7825(4) 0.3254(3)
H23_3 H 0.0114 0.6169 0.3030
C40_3 C 0.0535(5) 0.8437(4) 0.3334(4)
O7_3 O 0.1192(3) 0.8317(3) 0.3288(2)
O8_3 O 0.0311(3) 0.8964(3) 0.3473(3)
N9_3 N 0.1769(3) 0.9082(4) 0.4140(3)
N11_2 N 0.1628(4) 0.9685(3) 0.7111(3)
C42_3 C 0.2229(6) 0.9391(5) 0.6460(5)
H26_3 H 0.2611 0.9183 0.6318
C44_3 C 0.2175(5) 0.9384(5) 0.6916(5)
H28_3 H 0.2531 0.9162 0.7088
C45_3 C 0.1673(7) 0.9732(6) 0.6229(5)
C51_3 C 0.1353(5) 0.9440(6) 0.4378(5)
H33_3 H 0.0943 0.9623 0.4235
C52_3 C 0.1437(5) 0.9586(6) 0.4822(4)
H34_3 H 0.1136 0.9905 0.4958
C53_3 C 0.2428(6) 0.8828(7) 0.4822(5)
H35_3 H 0.2810 0.8604 0.4971
C54_3 C 0.1955(6) 0.9264(5) 0.5050(5)
C55_3 C 0.2312(7) 0.8741(7) 0.4372(5)
H36_3 H 0.2613 0.8440 0.4221
H37_3 H 0.4152 0.9781 0.4233
H38_3 H 0.4118 0.9862 0.4954
H41_3 H 0.3338 0.9825 0.5648
C62_3 C 0.2213(8) 0.9489(8) 0.5477(5)
H42_3 H 0.2348 0.9070 0.5649
C63_3 C 0.1836(12) 0.9982(11) 0.5779(8)
Zn8 Zn 0.67289(6) 0.52095(5) 0.27688(6)
Zn10_2 Zn 0.17289(6) 0.97905(5) 0.77688(6)
Zn2_2 Zn 0.81792(5) 0.40661(5) 0.27146(4)
C4_3 C 0.9584(4) 0.2169(4) 0.3131(3)
H3_3 H 0.9098 0.2113 0.3187
C5_3 C 0.9332(4) 0.3388(4) 0.2877(3)
C7_3 C 0.9834(4) 0.2803(4) 0.2987(3)
H4_3 H 0.9873 0.1175 0.3271
O1_3 O 0.9559(3) 0.3936(3) 0.2742(2)
O2_3 O 0.8683(3) 0.3270(3) 0.2943(2)
N5_3 N 0.7213(3) 0.3792(3) 0.2848(3)
N6_3 N 0.6635(3) 0.4191(3) 0.2869(3)
C21_3 C 0.6958(4) 0.3156(3) 0.2906(3)
H13_3 H 0.7252 0.2761 0.2922
C22_3 C 0.5803(4) 0.2544(4) 0.2998(3)
C23_3 C 0.6241(4) 0.3120(4) 0.2941(3)
C24_3 C 0.6046(4) 0.3821(3) 0.2930(3)
H14_3 H 0.5584 0.3999 0.2959
C25_3 C 0.5059(5) 0.2612(5) 0.2962(5)
H15_3 H 0.4858 0.3040 0.2877
C26_3 C 0.4608(4) 0.2049(4) 0.3052(3)
H16_3 H 0.4110 0.2098 0.3045
C27_3 C 0.5648(4) 0.1339(4) 0.3171(3)
H17_3 H 0.5857 0.0905 0.3233
C28_3 C 0.4949(5) 0.1386(4) 0.3156(3)
C29_3 C 0.6086(4) 0.1897(4) 0.3101(3)
H18_3 H 0.6584 0.1838 0.3122
C30_3 C 0.4466(5) 0.0828(4) 0.3260(4)
O6_3 O 0.4716(3) 0.0278(3) 0.3428(3)
N13_2 N 0.7755(3) 0.5470(3) 0.2898(2)
N14_2 N 0.8295(3) 0.5038(3) 0.2860(2)
N15_2 N 0.8174(4) 0.3985(3) 0.2049(3)
N16_2 N 0.6628(4) 0.5315(3) 0.2111(3)
C31_3 C 0.8900(3) 0.5437(3) 0.2905(3)
H19_3 H 0.9366 0.5278 0.2865
C32_3 C 0.7958(4) 0.6071(4) 0.3004(3)
H20_3 H 0.7657 0.6446 0.3065
C33_3 C 0.8725(4) 0.6095(4) 0.3017(3)
C34_3 C 0.8914(4) 0.7341(4) 0.3175(3)
H21_3 H 0.8417 0.7398 0.3185
C36_3 C 0.9188(4) 0.6682(4) 0.3082(3)
C38_3 C 0.9910(4) 0.6606(4) 0.3082(3)
C39_3 C 0.9337(4) 0.7893(4) 0.3249(3)
H24_3 H 0.9133 0.8331 0.3299
H9_4 H 0.0099 0.6913 0.8288
C17_4 C 0.0344(5) 0.7872(5) 0.8146(4)
H11_4 H 0.0838 0.7791 0.8172
C19_4 C 0.0104(3) 0.8546(4) 0.8036(3)
C20_4 C 0.0576(5) 0.9123(4) 0.7949(3)
O3_2 O 0.1254(3) 0.8973(3) 0.7975(2)
O4_2 O 0.0399(3) 0.9675(3) 0.7818(3)
C41_4 C 0.6140(5) 0.4987(4) 0.1879(4)
H25_4 H 0.5777 0.4760 0.2028
C42_4 C 0.7229(6) 0.5609(5) 0.1460(5)
H26_4 H 0.7611 0.5817 0.1318
C43_4 C 0.6121(5) 0.4950(6) 0.1433(6)
H27_4 H 0.5752 0.4722 0.1275
C44_4 C 0.7175(5) 0.5616(5) 0.1916(5)
H28_4 H 0.7531 0.5838 0.2088
C45_4 C 0.6673(7) 0.5268(6) 0.1229(5)
C46_4 C 0.8705(5) 0.4323(5) 0.1823(5)
H29_4 H 0.9111 0.4495 0.1976
C47_4 C 0.7650(5) 0.3719(5) 0.1827(4)
H30_4 H 0.7320 0.3458 0.1982
C48_4 C 0.7530(8) 0.3777(6) 0.1398(5)
H31_4 H 0.7117 0.3577 0.1269
C49_4 C 0.8632(10) 0.4404(7) 0.1373(6)
H32_4 H 0.8983 0.4636 0.1217
C50_4 C 0.7988(13) 0.4117(8) 0.1144(5)
C54_4 C 0.6955(6) 0.5736(5) 0.0050(5)
C58_4 C 0.8266(12) 0.4669(11) 0.0010(5)
C61_4 C 0.7948(10) 0.4990(10) 0.0456(7)
H41_4 H 0.8338 0.5175 0.0648
C62_4 C 0.7213(8) 0.5511(8) 0.0477(5)
H42_4 H 0.7348 0.5930 0.0649
C63_4 C 0.6836(12) 0.5018(11) 0.0779(8)
H43_4 H 0.6393 0.4849 0.0630
C64_4 C 0.7471(8) 0.4439(8) 0.0722(5)
H44_4 H 0.7304 0.4059 0.0526
Zn1_2 Zn 0.82209(5) 0.47934(5) 0.84378(5)
Zn4_4 Zn 0.67700(6) 0.59225(5) 0.84875(5)
N1_4 N 0.7278(3) 0.4516(3) 0.8296(3)
N2_4 N 0.6675(3) 0.4951(3) 0.8331(2)
N3_4 N 0.7763(3) 0.6211(3) 0.8348(3)
N4_4 N 0.8343(3) 0.5798(3) 0.8349(3)
C1_4 C 0.6099(4) 0.4553(3) 0.8300(3)
H1_4 H 0.5635 0.4718 0.8340
C2_4 C 0.6250(4) 0.3893(4) 0.8206(3)
C3_4 C 0.6951(4) 0.3883(4) 0.8210(3)
H2_4 H 0.7211 0.3476 0.8158
C4_4 C 0.4584(4) 0.2831(4) 0.8131(3)
H3_4 H 0.4098 0.2887 0.8187
C5_4 C 0.4332(4) 0.1612(4) 0.7877(3)
C6_4 C 0.5797(4) 0.3298(4) 0.8142(3)
C7_4 C 0.4834(4) 0.2197(4) 0.7987(3)
C8_4 C 0.5051(4) 0.3387(4) 0.8194(3)
H4_4 H 0.4873 0.3825 0.8271
C9_4 C 0.6035(5) 0.2678(4) 0.8004(4)
H5_4 H 0.6523 0.2609 0.7959
C10_4 C 0.5531(5) 0.2122(4) 0.7926(4)
H6_4 H 0.5700 0.1691 0.7829
C11_4 C 0.7972(4) 0.6849(4) 0.8291(3)
H7_4 H 0.7677 0.7244 0.8283
C12_4 C 0.8872(5) 0.6153(4) 0.8286(3)
H8_4 H 0.9333 0.5968 0.8267
C13_4 C 0.9199(4) 0.7432(4) 0.8180(3)
C14_4 C 0.8719(4) 0.6847(4) 0.8245(3)
C15_4 C 0.9909(4) 0.7351(5) 0.8214(4)
C16_4 C 0.8932(4) 0.8095(4) 0.8079(3)
H10_4 H 0.8437 0.8171 0.8058
C18_4 C 0.9384(4) 0.8623(4) 0.8012(3)
H12_4 H 0.9195 0.9065 0.7946
O1_4 O 0.4559(3) 0.1064(3) 0.7742(2)
O2_4 O 0.3683(3) 0.1730(3) 0.7943(2)
N5_4 N 0.2213(3) 0.1208(3) 0.7848(3)
N6_4 N 0.1635(3) 0.0809(3) 0.7869(3)
N7_2 N 0.2755(3) 0.9530(3) 0.7898(2)
N8_2 N 0.3295(3) 0.9962(3) 0.7860(2)
C21_4 C 0.1958(4) 0.1844(3) 0.7906(3)
H13_4 H 0.2252 0.2239 0.7922
C22_4 C 0.0803(4) 0.2456(4) 0.7998(3)
C23_4 C 0.1241(4) 0.1880(4) 0.7941(3)
C24_4 C 0.1046(4) 0.1179(3) 0.7930(3)
H14_4 H 0.0584 0.1001 0.7959
C25_4 C 0.0059(5) 0.2388(5) 0.7962(5)
C27_4 C 0.0648(4) 0.3661(4) 0.8171(3)
H17_4 H 0.0857 0.4095 0.8233
C29_4 C 0.1086(4) 0.3103(4) 0.8101(3)
H18_4 H 0.1584 0.3162 0.8122
C31_4 C 0.3900(3) 0.9563(3) 0.7905(3)
H19_4 H 0.4366 0.9722 0.7865
C32_4 C 0.2958(4) 0.8929(4) 0.8004(3)
H20_4 H 0.2657 0.8554 0.8065
C33_4 C 0.3725(4) 0.8905(4) 0.8017(3)
C34_4 C 0.3914(4) 0.7659(4) 0.8175(3)
H21_4 H 0.3417 0.7602 0.8185
C35_4 C 0.5332(3) 0.7828(3) 0.8158(4)
H22_4 H 0.5828 0.7883 0.8144
C36_4 C 0.4188(4) 0.8318(4) 0.8082(3)
C37_4 C 0.5068(4) 0.7175(4) 0.8254(3)
C38_4 C 0.4910(4) 0.8394(4) 0.8082(3)
H23_4 H 0.5114 0.8831 0.8030
C39_4 C 0.4337(4) 0.7107(4) 0.8249(3)
H24_4 H 0.4133 0.6669 0.8299
C40_4 C 0.5535(5) 0.6563(4) 0.8334(4)
O7_4 O 0.6192(3) 0.6683(3) 0.8288(2)
O8_4 O 0.5311(3) 0.6036(3) 0.8473(3)
N9_4 N 0.6769(3) 0.5918(4) 0.9140(3)
N12_4 N 0.8274(3) 0.4644(4) 0.9097(3)
C51_4 C 0.6353(5) 0.5560(6) 0.9378(5)
H33_4 H 0.5943 0.5377 0.9235
C52_4 C 0.6437(5) 0.5414(6) 0.9822(4)
H34_4 H 0.6136 0.5095 0.9958
C53_4 C 0.7428(6) 0.6172(7) 0.9822(5)
H35_4 H 0.7810 0.6396 0.9971
C55_4 C 0.7312(7) 0.6259(7) 0.9372(5)
H36_4 H 0.7613 0.6560 0.9221
C56_4 C 0.8779(6) 0.4972(6) 0.9359(5)
H37_4 H 0.9152 0.5219 0.9233
C57_4 C 0.8738(10) 0.4935(13) 0.9792(6)
H38_4 H 0.9118 0.5138 0.9954
C59_4 C 0.7800(7) 0.4273(7) 0.9746(6)
H39_4 H 0.7468 0.3987 0.9883
C60_4 C 0.7802(7) 0.4284(6) 0.9281(5)
H40_4 H 0.7463 0.4031 0.9113
O11_2 O 0.8798(3) 0.4110(3) 0.8174(2)
H15_4 H 0.9858 0.1960 0.7877
C26_4 C 0.9608(4) 0.2951(4) 0.8052(3)
H16_4 H 0.9110 0.2902 0.8045
C28_4 C 0.9949(5) 0.3614(4) 0.8156(3)
C30_4 C 0.9466(5) 0.4172(4) 0.8260(4)
O6_4 O 0.9716(3) 0.4722(3) 0.8428(3)
loop_
_geom_bond_atom_site_label_1
_geom_bond_atom_site_label_2
_geom_bond_site_symmetry_1
_geom_bond_site_symmetry_2
H16 C26 1_555 1_555
C28 C26 1_555 1_555
C30 C28 1_555 1_555
O5 C30 1_555 1_555
O6 C30 1_555 1_555
Zn5 O5 1_555 1_555
O9 Zn3 1_555 1_555
O10 Zn3 1_555 1_555
N13 Zn3 1_555 1_555
N16 Zn3 1_555 1_555
N13 N14 1_555 1_555
Zn5 N1 1_555 1_555
Zn2 O2 1_555 1_555
Zn4 N2 1_555 1_555
N1 N2 1_555 1_555
N2 C1 1_555 1_555
N3 Zn4 1_555 1_555
N4 Zn5 1_555 1_555
C1 H1 1_555 1_555
C2 C1 1_555 1_555
C3 N1 1_555 1_555
H2 C3 1_555 1_555
C4 H3 1_555 1_555
C5 C7 1_555 1_555
C6 C2 1_555 1_555
C7 C4 1_555 1_555
C8 C4 1_555 1_555
H4 C8 1_555 1_555
C9 C6 1_555 1_555
H5 C9 1_555 1_555
C10 C7 1_555 1_555
H6 C10 1_555 1_555
C11 N3 1_555 1_555
H7 C11 1_555 1_555
C12 N4 1_555 1_555
H8 C12 1_555 1_555
C13 C14 1_555 1_555
C14 C11 1_555 1_555
C15 C13 1_555 1_555
C16 C13 1_555 1_555
H10 C16 1_555 1_555
C18 C16 1_555 1_555
H12 C18 1_555 1_555
O1 C5 1_555 1_555
O2 C5 1_555 1_555
N5 Zn2 1_555 1_555
N6 N5 1_555 1_555
N14 C31 1_555 1_555
C21 N5 1_555 1_555
H13 C21 1_555 1_555
C22 C23 1_555 1_555
C23 C21 1_555 1_555
C24 N6 1_555 1_555
H14 C24 1_555 1_555
C25 C22 1_555 1_555
C27 H17 1_555 1_555
C29 C22 1_555 1_555
H18 C29 1_555 1_555
C31 H19 1_555 1_555
C32 N13 1_555 1_555
H20 C32 1_555 1_555
C33 C31 1_555 1_555
C34 H21 1_555 1_555
C35 H22 1_555 1_555
C36 C33 1_555 1_555
C37 C35 1_555 1_555
C38 C35 1_555 1_555
H23 C38 1_555 1_555
C39 C34 1_555 1_555
H24 C39 1_555 1_555
C40 C37 1_555 1_555
O7 Zn4 1_555 1_555
O8 C40 1_555 1_555
N9 Zn4 1_555 1_555
N12 Zn5 1_555 1_555
C51 N9 1_555 1_555
H33 C51 1_555 1_555
C52 C51 1_555 1_555
H34 C52 1_555 1_555
C53 H35 1_555 1_555
C55 N9 1_555 1_555
H36 C55 1_555 1_555
C56 N12 1_555 1_555
H37 C56 1_555 1_555
C57 C56 1_555 1_555
H38 C57 1_555 1_555
H39 C59 1_555 1_555
C60 N12 1_555 1_555
H40 C60 1_555 1_555
N15 Zn2 1_555 1_555
N3 N4 1_555 1_555
C2 C3 1_555 1_555
C6 C8 1_555 1_555
C9 C10 1_555 1_555
C12 C14 1_555 1_555
C23 C24 1_555 1_555
C27 C29 1_555 1_555
C32 C33 1_555 1_555
C34 C36 1_555 1_555
C36 C38 1_555 1_555
C37 C39 1_555 1_555
C40 O7 1_555 1_555
C53 C55 1_555 1_555
C59 C60 1_555 1_555
N10 C46 1_555 1_555
N11 C41 1_555 1_555
C41 H25 1_555 1_555
C42 H26 1_555 1_555
C43 C41 1_555 1_555
H27 C43 1_555 1_555
C44 N11 1_555 1_555
H28 C44 1_555 1_555
C45 C42 1_555 1_555
C46 H29 1_555 1_555
C47 N10 1_555 1_555
H30 C47 1_555 1_555
C48 C47 1_555 1_555
H31 C48 1_555 1_555
C49 C46 1_555 1_555
H32 C49 1_555 1_555
C50 C48 1_555 1_555
C61 C58 1_555 1_555
H41 C61 1_555 1_555
C62 C54 1_555 1_555
H42 C62 1_555 1_555
C63 C45 1_555 1_555
H43 C63 1_555 1_555
C64 C50 1_555 1_555
H44 C64 1_555 1_555
Zn7 N10 1_555 1_555
Zn10 N11 1_555 1_555
C42 C44 1_555 1_555
C43 C45 1_555 1_555
C49 C50 1_555 1_555
C61 C62 1_555 1_555
C61 C64 1_555 1_555
C62 C63 1_555 1_555
C63 C64 1_555 1_555
H11 C17 1_555 1_555
C19 C17 1_555 1_555
C20 C19 1_555 1_555
O9 C20 1_555 1_555
O10 C20 1_555 1_555
N7 N8 1_555 1_555
N8 C31_2 1_555 1_555
C31_2 H19_2 1_555 1_555
C32_2 N7 1_555 1_555
H20_2 C32_2 1_555 1_555
C33_2 C31_2 1_555 1_555
C34_2 H21_2 1_555 1_555
C36_2 C33_2 1_555 1_555
C39_2 C34_2 1_555 1_555
H24_2 C39_2 1_555 1_555
Zn7 N8 1_555 1_555
Zn10 N7 1_555 1_555
C32_2 C33_2 1_555 1_555
C34_2 C36_2 1_555 1_555
C36_2 C38_2 1_555 1_555
Zn7 O2_2 1_555 1_555
Zn10 N6_2 1_555 1_555
C4_2 H3_2 1_555 1_555
C5_2 C7_2 1_555 1_555
C7_2 C4_2 1_555 1_555
O1_2 C5_2 1_555 1_555
O2_2 C5_2 1_555 1_555
N5_2 Zn7 1_555 1_555
N6_2 N5_2 1_555 1_555
C21_2 N5_2 1_555 1_555
H13_2 C21_2 1_555 1_555
C22_2 C23_2 1_555 1_555
C23_2 C21_2 1_555 1_555
C24_2 N6_2 1_555 1_555
H14_2 C24_2 1_555 1_555
C25_2 C22_2 1_555 1_555
H15_2 C25_2 1_555 1_555
C26_2 C25_2 1_555 1_555
H16_2 C26_2 1_555 1_555
C27_2 H17_2 1_555 1_555
C28_2 C26_2 1_555 1_555
C29_2 C22_2 1_555 1_555
H18_2 C29_2 1_555 1_555
C30_2 C28_2 1_555 1_555
O5_2 C30_2 1_555 1_555
O6_2 C30_2 1_555 1_555
Zn5_2 O5_2 1_555 1_555
O9_2 Zn10 1_555 1_555
O10_2 Zn10 1_555 1_555
C23_2 C24_2 1_555 1_555
C27_2 C28_2 1_555 1_555
C27_2 C29_2 1_555 1_555
N3_2 Zn4_2 1_555 1_555
C11_2 N3_2 1_555 1_555
H7_2 C11_2 1_555 1_555
C12_2 N4_2 1_555 1_555
H8_2 C12_2 1_555 1_555
C13_2 C14_2 1_555 1_555
C14_2 C11_2 1_555 1_555
C15_2 C13_2 1_555 1_555
H9_2 C15_2 1_555 1_555
C16_2 C13_2 1_555 1_555
H10_2 C16_2 1_555 1_555
C17_2 C15_2 1_555 1_555
H11_2 C17_2 1_555 1_555
C18_2 C16_2 1_555 1_555
H12_2 C18_2 1_555 1_555
C19_2 C17_2 1_555 1_555
C20_2 C19_2 1_555 1_555
O9_2 C20_2 1_555 1_555
O10_2 C20_2 1_555 1_555
C35_2 H22_2 1_555 1_555
C37_2 C35_2 1_555 1_555
C40_2 C37_2 1_555 1_555
O7_2 Zn4_2 1_555 1_555
O8_2 C40_2 1_555 1_555
N9_2 Zn4_2 1_555 1_555
C42_2 H26_2 1_555 1_555
C44_2 N16 1_555 1_555
H28_2 C44_2 1_555 1_555
C45_2 C42_2 1_555 1_555
C51_2 N9_2 1_555 1_555
H33_2 C51_2 1_555 1_555
C52_2 C51_2 1_555 1_555
H34_2 C52_2 1_555 1_555
C53_2 H35_2 1_555 1_555
C54_2 C52_2 1_555 1_555
C55_2 N9_2 1_555 1_555
H36_2 C55_2 1_555 1_555
C62_2 C54_2 1_555 1_555
H42_2 C62_2 1_555 1_555
C63_2 C45_2 1_555 1_555
N3_2 N4_2 1_555 1_555
C12_2 C14_2 1_555 1_555
C18_2 C19_2 1_555 1_555
C40_2 O7_2 1_555 1_555
C42_2 C44_2 1_555 1_555
C53_2 C54_2 1_555 1_555
C53_2 C55_2 1_555 1_555
C62_2 C63_2 1_555 1_555
Zn5_2 N1_2 1_555 1_555
N1_2 N2_2 1_555 1_555
N2_2 C1_2 1_555 1_555
C1_2 H1_2 1_555 1_555
C2_2 C1_2 1_555 1_555
C3_2 N1_2 1_555 1_555
H2_2 C3_2 1_555 1_555
C6_2 C2_2 1_555 1_555
C9_2 C6_2 1_555 1_555
H5_2 C9_2 1_555 1_555
H6_2 C10_2 1_555 1_555
N15 C46_2 1_555 1_555
N12_2 Zn5_2 1_555 1_555
C41_2 H25_2 1_555 1_555
C43_2 C41_2 1_555 1_555
H27_2 C43_2 1_555 1_555
C46_2 H29_2 1_555 1_555
C47_2 N15 1_555 1_555
H30_2 C47_2 1_555 1_555
C48_2 C47_2 1_555 1_555
H31_2 C48_2 1_555 1_555
C49_2 C46_2 1_555 1_555
H32_2 C49_2 1_555 1_555
C50_2 C48_2 1_555 1_555
C56_2 N12_2 1_555 1_555
C57_2 C56_2 1_555 1_555
C58_2 C57_2 1_555 1_555
C59_2 C58_2 1_555 1_555
H39_2 C59_2 1_555 1_555
C60_2 N12_2 1_555 1_555
H40_2 C60_2 1_555 1_555
C61_2 C58_2 1_555 1_555
C64_2 C50_2 1_555 1_555
H44_2 C64_2 1_555 1_555
C2_2 C3_2 1_555 1_555
C6_2 C8_2 1_555 1_555
C9_2 C10_2 1_555 1_555
C49_2 C50_2 1_555 1_555
C59_2 C60_2 1_555 1_555
C61_2 C64_2 1_555 1_555
Zn1 N1_3 1_555 1_555
N1_3 N2_3 1_555 1_555
N2_3 C1_3 1_555 1_555
C1_3 H1_3 1_555 1_555
C2_3 C1_3 1_555 1_555
C3_3 N1_3 1_555 1_555
H2_3 C3_3 1_555 1_555
C6_3 C2_3 1_555 1_555
C9_3 C6_3 1_555 1_555
H5_3 C9_3 1_555 1_555
H6_3 C10_3 1_555 1_555
N10_2 C46_3 1_555 1_555
N12_3 Zn1 1_555 1_555
C41_3 H25_3 1_555 1_555
C43_3 C41_3 1_555 1_555
H27_3 C43_3 1_555 1_555
C46_3 H29_3 1_555 1_555
C47_3 N10_2 1_555 1_555
H30_3 C47_3 1_555 1_555
C48_3 C47_3 1_555 1_555
H31_3 C48_3 1_555 1_555
C49_3 C46_3 1_555 1_555
H32_3 C49_3 1_555 1_555
C50_3 C48_3 1_555 1_555
C56_3 N12_3 1_555 1_555
C57_3 C56_3 1_555 1_555
C58_3 C57_3 1_555 1_555
C59_3 C58_3 1_555 1_555
H39_3 C59_3 1_555 1_555
C60_3 N12_3 1_555 1_555
H40_3 C60_3 1_555 1_555
C61_3 C58_3 1_555 1_555
C64_3 C50_3 1_555 1_555
H44_3 C64_3 1_555 1_555
Zn7_2 N10_2 1_555 1_555
O11 Zn1 1_555 1_555
C2_3 C3_3 1_555 1_555
C6_3 C8_3 1_555 1_555
C9_3 C10_3 1_555 1_555
C49_3 C50_3 1_555 1_555
C59_3 C60_3 1_555 1_555
C61_3 C64_3 1_555 1_555
N3_3 Zn4_3 1_555 1_555
C11_3 N3_3 1_555 1_555
H7_3 C11_3 1_555 1_555
C12_3 N4_3 1_555 1_555
H8_3 C12_3 1_555 1_555
C13_3 C14_3 1_555 1_555
C14_3 C11_3 1_555 1_555
C15_3 C13_3 1_555 1_555
H9_3 C15_3 1_555 1_555
C16_3 C13_3 1_555 1_555
H10_3 C16_3 1_555 1_555
C17_3 C15_3 1_555 1_555
H11_3 C17_3 1_555 1_555
C18_3 C16_3 1_555 1_555
H12_3 C18_3 1_555 1_555
C19_3 C17_3 1_555 1_555
C20_3 C19_3 1_555 1_555
O3 C20_3 1_555 1_555
O4 C20_3 1_555 1_555
C35_3 H22_3 1_555 1_555
C37_3 C35_3 1_555 1_555
C40_3 C37_3 1_555 1_555
O7_3 Zn4_3 1_555 1_555
O8_3 C40_3 1_555 1_555
N9_3 Zn4_3 1_555 1_555
C42_3 H26_3 1_555 1_555
C44_3 N11_2 1_555 1_555
H28_3 C44_3 1_555 1_555
C45_3 C42_3 1_555 1_555
C51_3 N9_3 1_555 1_555
H33_3 C51_3 1_555 1_555
C52_3 C51_3 1_555 1_555
H34_3 C52_3 1_555 1_555
C53_3 H35_3 1_555 1_555
C54_3 C52_3 1_555 1_555
C55_3 N9_3 1_555 1_555
H36_3 C55_3 1_555 1_555
C62_3 C54_3 1_555 1_555
H42_3 C62_3 1_555 1_555
C63_3 C45_3 1_555 1_555
Zn8 O3 1_555 1_555
Zn10_2 N11_2 1_555 1_555
N3_3 N4_3 1_555 1_555
C12_3 C14_3 1_555 1_555
C18_3 C19_3 1_555 1_555
O4 Zn8 1_555 1_555
C40_3 O7_3 1_555 1_555
C42_3 C44_3 1_555 1_555
C53_3 C54_3 1_555 1_555
C53_3 C55_3 1_555 1_555
C62_3 C63_3 1_555 1_555
Zn2_2 O2_3 1_555 1_555
Zn8 N6_3 1_555 1_555
C4_3 H3_3 1_555 1_555
C5_3 C7_3 1_555 1_555
C7_3 C4_3 1_555 1_555
O1_3 C5_3 1_555 1_555
O2_3 C5_3 1_555 1_555
N5_3 Zn2_2 1_555 1_555
N6_3 N5_3 1_555 1_555
C21_3 N5_3 1_555 1_555
H13_3 C21_3 1_555 1_555
C22_3 C23_3 1_555 1_555
C23_3 C21_3 1_555 1_555
C24_3 N6_3 1_555 1_555
H14_3 C24_3 1_555 1_555
C25_3 C22_3 1_555 1_555
H15_3 C25_3 1_555 1_555
C26_3 C25_3 1_555 1_555
H16_3 C26_3 1_555 1_555
C27_3 H17_3 1_555 1_555
C28_3 C26_3 1_555 1_555
C29_3 C22_3 1_555 1_555
H18_3 C29_3 1_555 1_555
C30_3 C28_3 1_555 1_555
O11 C30_3 1_555 1_555
O6_3 C30_3 1_555 1_555
N13_2 Zn8 1_555 1_555
N14_2 Zn2_2 1_555 1_555
N15_2 Zn2_2 1_555 1_555
N16_2 Zn8 1_555 1_555
C23_3 C24_3 1_555 1_555
C27_3 C28_3 1_555 1_555
C27_3 C29_3 1_555 1_555
N13_2 N14_2 1_555 1_555
N14_2 C31_3 1_555 1_555
C31_3 H19_3 1_555 1_555
C32_3 N13_2 1_555 1_555
H20_3 C32_3 1_555 1_555
C33_3 C31_3 1_555 1_555
C34_3 H21_3 1_555 1_555
C36_3 C33_3 1_555 1_555
C39_3 C34_3 1_555 1_555
H24_3 C39_3 1_555 1_555
C32_3 C33_3 1_555 1_555
C34_3 C36_3 1_555 1_555
C36_3 C38_3 1_555 1_555
H11_4 C17_4 1_555 1_555
C19_4 C17_4 1_555 1_555
C20_4 C19_4 1_555 1_555
O3_2 C20_4 1_555 1_555
O4_2 C20_4 1_555 1_555
Zn10_2 O3_2 1_555 1_555
O4_2 Zn10_2 1_555 1_555
N15_2 C46_4 1_555 1_555
N16_2 C41_4 1_555 1_555
C41_4 H25_4 1_555 1_555
C42_4 H26_4 1_555 1_555
C43_4 C41_4 1_555 1_555
H27_4 C43_4 1_555 1_555
C44_4 N16_2 1_555 1_555
H28_4 C44_4 1_555 1_555
C45_4 C42_4 1_555 1_555
C46_4 H29_4 1_555 1_555
C47_4 N15_2 1_555 1_555
H30_4 C47_4 1_555 1_555
C48_4 C47_4 1_555 1_555
H31_4 C48_4 1_555 1_555
C49_4 C46_4 1_555 1_555
H32_4 C49_4 1_555 1_555
C50_4 C48_4 1_555 1_555
C61_4 C58_4 1_555 1_555
H41_4 C61_4 1_555 1_555
C62_4 C54_4 1_555 1_555
H42_4 C62_4 1_555 1_555
C63_4 C45_4 1_555 1_555
H43_4 C63_4 1_555 1_555
C64_4 C50_4 1_555 1_555
H44_4 C64_4 1_555 1_555
C42_4 C44_4 1_555 1_555
C43_4 C45_4 1_555 1_555
C49_4 C50_4 1_555 1_555
C61_4 C62_4 1_555 1_555
C61_4 C64_4 1_555 1_555
C62_4 C63_4 1_555 1_555
C63_4 C64_4 1_555 1_555
Zn1_2 N1_4 1_555 1_555
Zn7_2 O2_4 1_555 1_555
Zn4_4 N2_4 1_555 1_555
N1_4 N2_4 1_555 1_555
N2_4 C1_4 1_555 1_555
N3_4 Zn4_4 1_555 1_555
N4_4 Zn1_2 1_555 1_555
C1_4 H1_4 1_555 1_555
C2_4 C1_4 1_555 1_555
C3_4 N1_4 1_555 1_555
H2_4 C3_4 1_555 1_555
C4_4 H3_4 1_555 1_555
C5_4 C7_4 1_555 1_555
C6_4 C2_4 1_555 1_555
C7_4 C4_4 1_555 1_555
C8_4 C4_4 1_555 1_555
H4_4 C8_4 1_555 1_555
C9_4 C6_4 1_555 1_555
H5_4 C9_4 1_555 1_555
C10_4 C7_4 1_555 1_555
H6_4 C10_4 1_555 1_555
C11_4 N3_4 1_555 1_555
H7_4 C11_4 1_555 1_555
C12_4 N4_4 1_555 1_555
H8_4 C12_4 1_555 1_555
C13_4 C14_4 1_555 1_555
C14_4 C11_4 1_555 1_555
C15_4 C13_4 1_555 1_555
C16_4 C13_4 1_555 1_555
H10_4 C16_4 1_555 1_555
C18_4 C16_4 1_555 1_555
H12_4 C18_4 1_555 1_555
O1_4 C5_4 1_555 1_555
O2_4 C5_4 1_555 1_555
N5_4 Zn7_2 1_555 1_555
N6_4 N5_4 1_555 1_555
N7_2 N8_2 1_555 1_555
N8_2 C31_4 1_555 1_555
C21_4 N5_4 1_555 1_555
H13_4 C21_4 1_555 1_555
C22_4 C23_4 1_555 1_555
C23_4 C21_4 1_555 1_555
C24_4 N6_4 1_555 1_555
H14_4 C24_4 1_555 1_555
C25_4 C22_4 1_555 1_555
C27_4 H17_4 1_555 1_555
C29_4 C22_4 1_555 1_555
H18_4 C29_4 1_555 1_555
C31_4 H19_4 1_555 1_555
C32_4 N7_2 1_555 1_555
H20_4 C32_4 1_555 1_555
C33_4 C31_4 1_555 1_555
C34_4 H21_4 1_555 1_555
C35_4 H22_4 1_555 1_555
C36_4 C33_4 1_555 1_555
C37_4 C35_4 1_555 1_555
C38_4 C35_4 1_555 1_555
H23_4 C38_4 1_555 1_555
C39_4 C34_4 1_555 1_555
H24_4 C39_4 1_555 1_555
C40_4 C37_4 1_555 1_555
O7_4 Zn4_4 1_555 1_555
O8_4 C40_4 1_555 1_555
N9_4 Zn4_4 1_555 1_555
N12_4 Zn1_2 1_555 1_555
C51_4 N9_4 1_555 1_555
H33_4 C51_4 1_555 1_555
C52_4 C51_4 1_555 1_555
H34_4 C52_4 1_555 1_555
C53_4 H35_4 1_555 1_555
C55_4 N9_4 1_555 1_555
H36_4 C55_4 1_555 1_555
C56_4 N12_4 1_555 1_555
H37_4 C56_4 1_555 1_555
C57_4 C56_4 1_555 1_555
H38_4 C57_4 1_555 1_555
H39_4 C59_4 1_555 1_555
C60_4 N12_4 1_555 1_555
H40_4 C60_4 1_555 1_555
Zn10_2 N7_2 1_555 1_555
O11_2 Zn1_2 1_555 1_555
N3_4 N4_4 1_555 1_555
C2_4 C3_4 1_555 1_555
C6_4 C8_4 1_555 1_555
C9_4 C10_4 1_555 1_555
C12_4 C14_4 1_555 1_555
C23_4 C24_4 1_555 1_555
C27_4 C29_4 1_555 1_555
C32_4 C33_4 1_555 1_555
C34_4 C36_4 1_555 1_555
C36_4 C38_4 1_555 1_555
C37_4 C39_4 1_555 1_555
C40_4 O7_4 1_555 1_555
C53_4 C55_4 1_555 1_555
C59_4 C60_4 1_555 1_555
H16_4 C26_4 1_555 1_555
C28_4 C26_4 1_555 1_555
C30_4 C28_4 1_555 1_555
O11_2 C30_4 1_555 1_555
O6_4 C30_4 1_555 1_555

#END
